253199
Actelion Java MolfileCreator 1.0

 37 41  0  0  1  0  0  0  0  0999 V2000
    0.0000   -0.0000   -0.0000 S   0  0  0  0  0  0  0  0  0  0  0  0
   -1.4316    0.4811   -0.0000 C   0  0  0  0  0  0  0  0  0  0  0  0
    0.8684    1.2321   -0.0000 C   0  0  0  0  0  0  0  0  0  0  0  0
   -1.4434    1.9831   -0.0000 C   0  0  0  0  0  0  0  0  0  0  0  0
   -2.7342   -0.2699   -0.0000 C   0  0  0  0  0  0  0  0  0  0  0  0
   -0.0235    2.4525   -0.0000 N   0  0  0  0  0  0  0  0  0  0  0  0
    2.3352    1.2321   -0.0000 C   0  0  0  0  0  0  0  0  0  0  0  0
   -2.7459    2.7224   -0.0000 C   0  0  0  0  0  0  0  0  0  0  0  0
   -4.0367    0.4811   -0.0000 C   0  0  0  0  0  0  0  0  0  0  0  0
   -4.0484    1.9831   -0.0000 C   0  0  0  0  0  0  0  0  0  0  0  0
   -5.3510    2.7459   -0.0000 O   0  0  0  0  0  0  0  0  0  0  0  0
   -6.6652    2.0066   -0.0000 C   0  0  0  0  0  0  0  0  0  0  0  0
   -7.9678    2.7694   -0.0000 C   0  0  0  0  0  0  0  0  0  0  0  0
   -7.9795    4.2714   -0.0000 O   0  0  0  0  0  0  0  0  0  0  0  0
   -9.2703    2.0301   -0.0000 C   0  0  0  0  0  0  0  0  0  0  0  0
  -10.5728    2.7928   -0.0000 N   0  0  0  0  0  0  0  0  0  0  0  0
  -11.3121    4.0954   -0.0000 C   0  0  0  0  0  0  0  0  0  0  0  0
  -11.3239    1.5255   -0.0000 C   0  0  0  0  0  0  0  0  0  0  0  0
  -12.8024    4.1188   -0.0000 C   0  0  0  0  0  0  0  0  0  0  0  0
  -12.8024    1.5372   -0.0000 C   0  0  0  0  0  0  0  0  0  0  0  0
  -13.5652    2.8398   -0.0000 N   0  0  0  0  0  0  0  0  0  0  0  0
  -14.8677    2.1240   -0.0000 C   0  0  0  0  0  0  0  0  0  0  0  0
  -16.1702    2.8867   -0.0000 C   0  0  0  0  0  0  0  0  0  0  0  0
  -16.1820    4.3887   -0.0000 O   0  0  0  0  0  0  0  0  0  0  0  0
  -17.4728    2.1592   -0.0000 N   0  0  0  0  0  0  0  0  0  0  0  0
  -18.7753    2.9336   -0.0000 C   0  0  0  0  0  0  0  0  0  0  0  0
  -18.7753    4.4357   -0.0000 C   0  0  0  0  0  0  0  0  0  0  0  0
  -20.0778    2.1944   -0.0000 C   0  0  0  0  0  0  0  0  0  0  0  0
  -20.0778    5.1984   -0.0000 C   0  0  0  0  0  0  0  0  0  0  0  0
  -21.3804    2.9571   -0.0000 C   0  0  0  0  0  0  0  0  0  0  0  0
  -20.0778    6.6887   -0.0000 C   0  0  0  0  0  0  0  0  0  0  0  0
  -21.3804    4.4826   -0.0000 C   0  0  0  0  0  0  0  0  0  0  0  0
  -21.3804    7.4514   -0.0000 C   0  0  0  0  0  0  0  0  0  0  0  0
  -18.7988    7.4280   -0.0000 C   0  0  0  0  0  0  0  0  0  0  0  0
  -21.3804    8.9535   -0.0000 C   0  0  0  0  0  0  0  0  0  0  0  0
  -18.7988    8.9300   -0.0000 C   0  0  0  0  0  0  0  0  0  0  0  0
  -20.0896    9.7162   -0.0000 C   0  0  0  0  0  0  0  0  0  0  0  0
  1  2  1  0  0  0  0
  1  3  1  0  0  0  0
  2  4  2  0  0  0  0
  2  5  1  0  0  0  0
  3  6  2  0  0  0  0
  3  7  1  0  0  0  0
  4  8  1  0  0  0  0
  5  9  2  0  0  0  0
  8 10  2  0  0  0  0
 10 11  1  0  0  0  0
 11 12  1  0  0  0  0
 12 13  1  0  0  0  0
 13 14  1  1  0  0  0
 13 15  1  0  0  0  0
 15 16  1  0  0  0  0
 16 17  1  0  0  0  0
 16 18  1  0  0  0  0
 17 19  1  0  0  0  0
 18 20  1  0  0  0  0
 19 21  1  0  0  0  0
 21 22  1  0  0  0  0
 22 23  1  0  0  0  0
 23 24  2  0  0  0  0
 23 25  1  0  0  0  0
 25 26  1  0  0  0  0
 26 27  2  0  0  0  0
 26 28  1  0  0  0  0
 27 29  1  0  0  0  0
 28 30  2  0  0  0  0
 29 31  1  0  0  0  0
 29 32  2  0  0  0  0
 31 33  2  0  0  0  0
 31 34  1  0  0  0  0
 33 35  1  0  0  0  0
 34 36  2  0  0  0  0
 35 37  2  0  0  0  0
  4  6  1  0  0  0  0
  9 10  1  0  0  0  0
 20 21  1  0  0  0  0
 30 32  1  0  0  0  0
 36 37  1  0  0  0  0
M  END
>  <MolRegNo>
253199

>  <m>
=

>  <Value>
37000

>  <Unit>
nM

>  <Type>
IC50

>  <pValue>
4.43

>  <Ligand Efficiency>
0

>  <Binding Efficiency>
0

>  <Surface Efficiency>
0

>  <Assay Index>
51805

>  <Assay Category>


>  <Assay Organism>
Cavia porcellus

>  <Target ID>
17045

>  <Target Name>
Cytochrome P450 3A4

>  <Target Organism>
Homo sapiens

>  <Target Description>
Target is a single protein chain

>  <Sequence Accession>
P08684

>  <Reference>
Bioorg Med Chem Lett 14 (2), 549-552 (2004)

>  <Pubmed ID>
14698201

>  <DOI>
10.1016/j.bmcl.2003.09.093

$$$$
99770
Actelion Java MolfileCreator 1.0

 26 28  0  0  0  0  0  0  0  0999 V2000
    0.0000   -0.0000   -0.0000 Br  0  0  0  0  0  0  0  0  0  0  0  0
    1.3066    0.7602   -0.0000 C   0  0  0  0  0  0  0  0  0  0  0  0
    2.6132    0.0238   -0.0000 C   0  0  0  0  0  0  0  0  0  0  0  0
    1.2947    2.2806   -0.0000 C   0  0  0  0  0  0  0  0  0  0  0  0
    3.8961    0.7840   -0.0000 C   0  0  0  0  0  0  0  0  0  0  0  0
    2.5895    3.0408   -0.0000 C   0  0  0  0  0  0  0  0  0  0  0  0
    3.8842    2.3044   -0.0000 C   0  0  0  0  0  0  0  0  0  0  0  0
    5.1789    3.0765   -0.0000 S   0  0  0  0  0  0  0  0  0  0  0  0
    5.9272    1.7699   -0.0000 O   0  0  0  0  0  0  0  0  0  0  0  0
    4.4068    4.3950   -0.0000 O   0  0  0  0  0  0  0  0  0  0  0  0
    6.4618    3.8367   -0.0000 N   0  0  0  0  0  0  0  0  0  0  0  0
    7.7565    3.0765   -0.0000 C   0  0  0  0  0  0  0  0  0  0  0  0
    9.0512    3.8367   -0.0000 C   0  0  0  0  0  0  0  0  0  0  0  0
    7.7446    1.5917   -0.0000 C   0  0  0  0  0  0  0  0  0  0  0  0
   10.3341    3.1002   -0.0000 C   0  0  0  0  0  0  0  0  0  0  0  0
    9.0393    0.8552   -0.0000 C   0  0  0  0  0  0  0  0  0  0  0  0
   11.6050    3.8604   -0.0000 N   0  0  0  0  0  0  0  0  0  0  0  0
   10.3222    1.6154   -0.0000 C   0  0  0  0  0  0  0  0  0  0  0  0
   11.5932    5.3690   -0.0000 C   0  0  0  0  0  0  0  0  0  0  0  0
   12.8998    3.1240   -0.0000 C   0  0  0  0  0  0  0  0  0  0  0  0
   11.6169    0.8552   -0.0000 O   0  0  0  0  0  0  0  0  0  0  0  0
   12.8879    6.1292   -0.0000 C   0  0  0  0  0  0  0  0  0  0  0  0
   14.1945    3.8842   -0.0000 C   0  0  0  0  0  0  0  0  0  0  0  0
   12.9235    1.6036   -0.0000 C   0  0  0  0  0  0  0  0  0  0  0  0
   14.1826    5.3927   -0.0000 N   0  0  0  0  0  0  0  0  0  0  0  0
   15.4774    6.1767   -0.0000 C   0  0  0  0  0  0  0  0  0  0  0  0
  1  2  1  0  0  0  0
  2  3  2  0  0  0  0
  2  4  1  0  0  0  0
  3  5  1  0  0  0  0
  4  6  2  0  0  0  0
  5  7  2  0  0  0  0
  7  8  1  0  0  0  0
  8  9  2  0  0  0  0
  8 10  2  0  0  0  0
  8 11  1  0  0  0  0
 11 12  1  0  0  0  0
 12 13  2  0  0  0  0
 12 14  1  0  0  0  0
 13 15  1  0  0  0  0
 14 16  2  0  0  0  0
 15 17  1  0  0  0  0
 15 18  2  0  0  0  0
 17 19  1  0  0  0  0
 17 20  1  0  0  0  0
 18 21  1  0  0  0  0
 19 22  1  0  0  0  0
 20 23  1  0  0  0  0
 21 24  1  0  0  0  0
 22 25  1  0  0  0  0
 25 26  1  0  0  0  0
  6  7  1  0  0  0  0
 16 18  1  0  0  0  0
 23 25  1  0  0  0  0
M  END
>  <MolRegNo>
99770

>  <m>
=

>  <Value>
6000

>  <Unit>
nM

>  <Type>
IC50

>  <pValue>
5.22

>  <Ligand Efficiency>
0

>  <Binding Efficiency>
0

>  <Surface Efficiency>
0

>  <Assay Index>
52464

>  <Assay Category>


>  <Assay Organism>
Homo sapiens

>  <Target ID>
17045

>  <Target Name>
Cytochrome P450 3A4

>  <Target Organism>
Homo sapiens

>  <Target Description>
Target is a single protein chain

>  <Sequence Accession>
P08684

>  <Reference>
J Med Chem 42 (2), 202-205 (1999)

>  <Pubmed ID>
9925723

>  <DOI>
10.1021/jm980532e

$$$$
253401
Actelion Java MolfileCreator 1.0

 37 41  0  0  1  0  0  0  0  0999 V2000
    0.0000   -0.0000   -0.0000 S   0  0  0  0  0  0  0  0  0  0  0  0
   -1.4324    0.4854   -0.0000 C   0  0  0  0  0  0  0  0  0  0  0  0
    0.8642    1.2312   -0.0000 C   0  0  0  0  0  0  0  0  0  0  0  0
   -1.4443    1.9888   -0.0000 C   0  0  0  0  0  0  0  0  0  0  0  0
   -2.7347   -0.2604   -0.0000 C   0  0  0  0  0  0  0  0  0  0  0  0
   -0.0237    2.4505   -0.0000 N   0  0  0  0  0  0  0  0  0  0  0  0
    2.3203    1.2312   -0.0000 C   0  0  0  0  0  0  0  0  0  0  0  0
   -2.7465    2.7347   -0.0000 C   0  0  0  0  0  0  0  0  0  0  0  0
   -4.0369    0.4972   -0.0000 C   0  0  0  0  0  0  0  0  0  0  0  0
   -4.0487    2.0007   -0.0000 C   0  0  0  0  0  0  0  0  0  0  0  0
   -5.3509    2.7583   -0.0000 O   0  0  0  0  0  0  0  0  0  0  0  0
   -6.6650    2.0244   -0.0000 C   0  0  0  0  0  0  0  0  0  0  0  0
   -7.9672    2.7820   -0.0000 C   0  0  0  0  0  0  0  0  0  0  0  0
   -7.9791    4.2855   -0.0000 O   0  0  0  0  0  0  0  0  0  0  0  0
   -9.2694    2.0362   -0.0000 C   0  0  0  0  0  0  0  0  0  0  0  0
  -10.5717    2.7939   -0.0000 N   0  0  0  0  0  0  0  0  0  0  0  0
  -11.3293    1.5271   -0.0000 C   0  0  0  0  0  0  0  0  0  0  0  0
  -11.3175    4.0961   -0.0000 C   0  0  0  0  0  0  0  0  0  0  0  0
  -12.8091    1.5390   -0.0000 C   0  0  0  0  0  0  0  0  0  0  0  0
  -12.8091    4.1198   -0.0000 C   0  0  0  0  0  0  0  0  0  0  0  0
  -13.5668    2.8412   -0.0000 N   0  0  0  0  0  0  0  0  0  0  0  0
  -14.8690    2.1191   -0.0000 C   0  0  0  0  0  0  0  0  0  0  0  0
  -16.1712    2.8767   -0.0000 C   0  0  0  0  0  0  0  0  0  0  0  0
  -16.1831    4.3802   -0.0000 O   0  0  0  0  0  0  0  0  0  0  0  0
  -17.4734    2.1546   -0.0000 N   0  0  0  0  0  0  0  0  0  0  0  0
  -18.7757    2.9241   -0.0000 C   0  0  0  0  0  0  0  0  0  0  0  0
  -20.0779    2.1901   -0.0000 C   0  0  0  0  0  0  0  0  0  0  0  0
  -18.7757    4.4276   -0.0000 C   0  0  0  0  0  0  0  0  0  0  0  0
  -21.3801    2.9596   -0.0000 C   0  0  0  0  0  0  0  0  0  0  0  0
  -20.0779    5.1970   -0.0000 C   0  0  0  0  0  0  0  0  0  0  0  0
  -21.3801    4.4749   -0.0000 C   0  0  0  0  0  0  0  0  0  0  0  0
  -22.6823    5.2326   -0.0000 C   0  0  0  0  0  0  0  0  0  0  0  0
  -23.9845    4.4986   -0.0000 C   0  0  0  0  0  0  0  0  0  0  0  0
  -22.6942    6.7360   -0.0000 C   0  0  0  0  0  0  0  0  0  0  0  0
  -25.2868    5.2562   -0.0000 C   0  0  0  0  0  0  0  0  0  0  0  0
  -23.9964    7.4937   -0.0000 C   0  0  0  0  0  0  0  0  0  0  0  0
  -25.2986    6.7597   -0.0000 C   0  0  0  0  0  0  0  0  0  0  0  0
  1  2  1  0  0  0  0
  1  3  1  0  0  0  0
  2  4  2  0  0  0  0
  2  5  1  0  0  0  0
  3  6  2  0  0  0  0
  3  7  1  0  0  0  0
  4  8  1  0  0  0  0
  5  9  2  0  0  0  0
  8 10  2  0  0  0  0
 10 11  1  0  0  0  0
 11 12  1  0  0  0  0
 12 13  1  0  0  0  0
 13 14  1  1  0  0  0
 13 15  1  0  0  0  0
 15 16  1  0  0  0  0
 16 17  1  0  0  0  0
 16 18  1  0  0  0  0
 17 19  1  0  0  0  0
 18 20  1  0  0  0  0
 19 21  1  0  0  0  0
 21 22  1  0  0  0  0
 22 23  1  0  0  0  0
 23 24  2  0  0  0  0
 23 25  1  0  0  0  0
 25 26  1  0  0  0  0
 26 27  2  0  0  0  0
 26 28  1  0  0  0  0
 27 29  1  0  0  0  0
 28 30  2  0  0  0  0
 29 31  2  0  0  0  0
 31 32  1  0  0  0  0
 32 33  2  0  0  0  0
 32 34  1  0  0  0  0
 33 35  1  0  0  0  0
 34 36  2  0  0  0  0
 35 37  2  0  0  0  0
  4  6  1  0  0  0  0
  9 10  1  0  0  0  0
 20 21  1  0  0  0  0
 30 31  1  0  0  0  0
 36 37  1  0  0  0  0
M  END
>  <MolRegNo>
253401

>  <m>
=

>  <Value>
7900

>  <Unit>
nM

>  <Type>
IC50

>  <pValue>
5.1

>  <Ligand Efficiency>
0

>  <Binding Efficiency>
0

>  <Surface Efficiency>
0

>  <Assay Index>
51805

>  <Assay Category>


>  <Assay Organism>
Cavia porcellus

>  <Target ID>
17045

>  <Target Name>
Cytochrome P450 3A4

>  <Target Organism>
Homo sapiens

>  <Target Description>
Target is a single protein chain

>  <Sequence Accession>
P08684

>  <Reference>
Bioorg Med Chem Lett 14 (2), 549-552 (2004)

>  <Pubmed ID>
14698201

>  <DOI>
10.1016/j.bmcl.2003.09.093

$$$$
252786
Actelion Java MolfileCreator 1.0

 40 45  0  0  1  0  0  0  0  0999 V2000
    0.0000   -0.0000   -0.0000 S   0  0  0  0  0  0  0  0  0  0  0  0
   -1.4323    0.4813   -0.0000 C   0  0  0  0  0  0  0  0  0  0  0  0
    0.8687    1.2327   -0.0000 C   0  0  0  0  0  0  0  0  0  0  0  0
   -1.4440    1.9840   -0.0000 C   0  0  0  0  0  0  0  0  0  0  0  0
   -2.7354   -0.2700   -0.0000 C   0  0  0  0  0  0  0  0  0  0  0  0
   -0.0235    2.4536   -0.0000 N   0  0  0  0  0  0  0  0  0  0  0  0
    2.3480    1.2327   -0.0000 C   0  0  0  0  0  0  0  0  0  0  0  0
   -2.7471    2.7236   -0.0000 C   0  0  0  0  0  0  0  0  0  0  0  0
   -4.0385    0.4813   -0.0000 C   0  0  0  0  0  0  0  0  0  0  0  0
   -4.0502    1.9958   -0.0000 C   0  0  0  0  0  0  0  0  0  0  0  0
   -5.3533    2.7471   -0.0000 O   0  0  0  0  0  0  0  0  0  0  0  0
   -6.6682    2.0192   -0.0000 C   0  0  0  0  0  0  0  0  0  0  0  0
   -7.9713    2.7706   -0.0000 C   0  0  0  0  0  0  0  0  0  0  0  0
   -7.9831    4.2733   -0.0000 O   0  0  0  0  0  0  0  0  0  0  0  0
   -9.2744    2.0310   -0.0000 C   0  0  0  0  0  0  0  0  0  0  0  0
  -10.5776    2.7823   -0.0000 N   0  0  0  0  0  0  0  0  0  0  0  0
  -11.3289    1.5144   -0.0000 C   0  0  0  0  0  0  0  0  0  0  0  0
  -11.3172    4.0855   -0.0000 C   0  0  0  0  0  0  0  0  0  0  0  0
  -12.8081    1.5262   -0.0000 C   0  0  0  0  0  0  0  0  0  0  0  0
  -12.8081    4.1089   -0.0000 C   0  0  0  0  0  0  0  0  0  0  0  0
  -13.5595    2.8293   -0.0000 N   0  0  0  0  0  0  0  0  0  0  0  0
  -14.8626    2.1132   -0.0000 C   0  0  0  0  0  0  0  0  0  0  0  0
  -16.1657    2.8645   -0.0000 C   0  0  0  0  0  0  0  0  0  0  0  0
  -16.1774    4.3672   -0.0000 O   0  0  0  0  0  0  0  0  0  0  0  0
  -17.4688    2.1366   -0.0000 N   0  0  0  0  0  0  0  0  0  0  0  0
  -18.7719    2.9115   -0.0000 C   0  0  0  0  0  0  0  0  0  0  0  0
  -18.7719    4.4142   -0.0000 C   0  0  0  0  0  0  0  0  0  0  0  0
  -20.0751    2.1836   -0.0000 C   0  0  0  0  0  0  0  0  0  0  0  0
  -20.0516    5.1773   -0.0000 C   0  0  0  0  0  0  0  0  0  0  0  0
  -21.3782    2.9467   -0.0000 C   0  0  0  0  0  0  0  0  0  0  0  0
  -21.3664    4.4611   -0.0000 C   0  0  0  0  0  0  0  0  0  0  0  0
  -20.3686    6.6447   -0.0000 C   0  0  0  0  0  0  0  0  0  0  0  0
  -22.4817    5.4707   -0.0000 N   0  0  0  0  0  0  0  0  0  0  0  0
  -21.8712    6.8326   -0.0000 C   0  0  0  0  0  0  0  0  0  0  0  0
  -19.4998    7.8539   -0.0000 C   0  0  0  0  0  0  0  0  0  0  0  0
  -23.9609    5.1773   -0.0000 C   0  0  0  0  0  0  0  0  0  0  0  0
  -22.4700    8.1944   -0.0000 C   0  0  0  0  0  0  0  0  0  0  0  0
  -20.0985    9.2392   -0.0000 C   0  0  0  0  0  0  0  0  0  0  0  0
  -24.9706    6.3043   -0.0000 C   0  0  0  0  0  0  0  0  0  0  0  0
  -21.6012    9.4036   -0.0000 C   0  0  0  0  0  0  0  0  0  0  0  0
  1  2  1  0  0  0  0
  1  3  1  0  0  0  0
  2  4  2  0  0  0  0
  2  5  1  0  0  0  0
  3  6  2  0  0  0  0
  3  7  1  0  0  0  0
  4  8  1  0  0  0  0
  5  9  2  0  0  0  0
  8 10  2  0  0  0  0
 10 11  1  0  0  0  0
 11 12  1  0  0  0  0
 12 13  1  0  0  0  0
 13 14  1  1  0  0  0
 13 15  1  0  0  0  0
 15 16  1  0  0  0  0
 16 17  1  0  0  0  0
 16 18  1  0  0  0  0
 17 19  1  0  0  0  0
 18 20  1  0  0  0  0
 19 21  1  0  0  0  0
 21 22  1  0  0  0  0
 22 23  1  0  0  0  0
 23 24  2  0  0  0  0
 23 25  1  0  0  0  0
 25 26  1  0  0  0  0
 26 27  2  0  0  0  0
 26 28  1  0  0  0  0
 27 29  1  0  0  0  0
 28 30  2  0  0  0  0
 29 31  2  0  0  0  0
 29 32  1  0  0  0  0
 31 33  1  0  0  0  0
 32 34  2  0  0  0  0
 32 35  1  0  0  0  0
 33 36  1  0  0  0  0
 34 37  1  0  0  0  0
 35 38  2  0  0  0  0
 36 39  1  0  0  0  0
 37 40  2  0  0  0  0
  4  6  1  0  0  0  0
  9 10  1  0  0  0  0
 20 21  1  0  0  0  0
 30 31  1  0  0  0  0
 33 34  1  0  0  0  0
 38 40  1  0  0  0  0
M  END
>  <MolRegNo>
252786

>  <m>
=

>  <Value>
39000

>  <Unit>
nM

>  <Type>
IC50

>  <pValue>
4.41

>  <Ligand Efficiency>
0

>  <Binding Efficiency>
0

>  <Surface Efficiency>
0

>  <Assay Index>
51805

>  <Assay Category>


>  <Assay Organism>
Cavia porcellus

>  <Target ID>
17045

>  <Target Name>
Cytochrome P450 3A4

>  <Target Organism>
Homo sapiens

>  <Target Description>
Target is a single protein chain

>  <Sequence Accession>
P08684

>  <Reference>
Bioorg Med Chem Lett 14 (2), 549-552 (2004)

>  <Pubmed ID>
14698201

>  <DOI>
10.1016/j.bmcl.2003.09.093

$$$$
545283
Actelion Java MolfileCreator 1.0

 30 32  0  0  0  0  0  0  0  0999 V2000
    0.0000   -0.0000   -0.0000 Cl  0  0  0  0  0  0  0  0  0  0  0  0
    1.0597   -0.6107   -0.0000 C   0  0  0  0  0  0  0  0  0  0  0  0
    2.4068    0.1976   -0.0000 C   0  0  0  0  0  0  0  0  0  0  0  0
    1.0418   -2.1554   -0.0000 C   0  0  0  0  0  0  0  0  0  0  0  0
    3.7360   -0.5748   -0.0000 C   0  0  0  0  0  0  0  0  0  0  0  0
    2.3889   -2.9277   -0.0000 C   0  0  0  0  0  0  0  0  0  0  0  0
    3.7180   -2.1194   -0.0000 C   0  0  0  0  0  0  0  0  0  0  0  0
    5.1909   -0.0898   -0.0000 C   0  0  0  0  0  0  0  0  0  0  0  0
    5.1729   -2.5685   -0.0000 S   0  0  0  0  0  0  0  0  0  0  0  0
    6.0889   -1.3112   -0.0000 C   0  0  0  0  0  0  0  0  0  0  0  0
    5.5501    1.1136   -0.0000 C   0  0  0  0  0  0  0  0  0  0  0  0
    7.6336   -1.2753   -0.0000 S   0  0  0  0  0  0  0  0  0  0  0  0
    8.2263   -0.1617   -0.0000 O   0  0  0  0  0  0  0  0  0  0  0  0
    8.8729   -1.2393   -0.0000 O   0  0  0  0  0  0  0  0  0  0  0  0
    8.4060   -2.6044   -0.0000 N   0  0  0  0  0  0  0  0  0  0  0  0
    9.9506   -2.5685   -0.0000 C   0  0  0  0  0  0  0  0  0  0  0  0
   10.7409   -3.8976   -0.0000 C   0  0  0  0  0  0  0  0  0  0  0  0
   10.6871   -1.1855   -0.0000 C   0  0  0  0  0  0  0  0  0  0  0  0
   12.2856   -3.8617   -0.0000 C   0  0  0  0  0  0  0  0  0  0  0  0
   12.2317   -1.1495   -0.0000 C   0  0  0  0  0  0  0  0  0  0  0  0
   13.0759   -5.1909   -0.0000 N   0  0  0  0  0  0  0  0  0  0  0  0
   13.0220   -2.4787   -0.0000 C   0  0  0  0  0  0  0  0  0  0  0  0
   14.6206   -5.1549   -0.0000 C   0  0  0  0  0  0  0  0  0  0  0  0
   12.3036   -6.5380   -0.0000 C   0  0  0  0  0  0  0  0  0  0  0  0
   14.5667   -2.4428   -0.0000 O   0  0  0  0  0  0  0  0  0  0  0  0
   15.4109   -6.4841   -0.0000 C   0  0  0  0  0  0  0  0  0  0  0  0
   13.0939   -7.8671   -0.0000 C   0  0  0  0  0  0  0  0  0  0  0  0
   15.1595   -1.3291   -0.0000 C   0  0  0  0  0  0  0  0  0  0  0  0
   14.6386   -7.8312   -0.0000 N   0  0  0  0  0  0  0  0  0  0  0  0
   18.1051   -3.1612   -0.0000 Cl  0  0  0  0  0  0  0  0  0  0  0  0
  1  2  1  0  0  0  0
  2  3  2  0  0  0  0
  2  4  1  0  0  0  0
  3  5  1  0  0  0  0
  4  6  2  0  0  0  0
  5  7  2  0  0  0  0
  5  8  1  0  0  0  0
  7  9  1  0  0  0  0
  8 10  2  0  0  0  0
  8 11  1  0  0  0  0
 10 12  1  0  0  0  0
 12 13  2  0  0  0  0
 12 14  2  0  0  0  0
 12 15  1  0  0  0  0
 15 16  1  0  0  0  0
 16 17  2  0  0  0  0
 16 18  1  0  0  0  0
 17 19  1  0  0  0  0
 18 20  2  0  0  0  0
 19 21  1  0  0  0  0
 19 22  2  0  0  0  0
 21 23  1  0  0  0  0
 21 24  1  0  0  0  0
 22 25  1  0  0  0  0
 23 26  1  0  0  0  0
 24 27  1  0  0  0  0
 25 28  1  0  0  0  0
 26 29  1  0  0  0  0
  6  7  1  0  0  0  0
  9 10  1  0  0  0  0
 20 22  1  0  0  0  0
 27 29  1  0  0  0  0
M  END
>  <MolRegNo>
545283

>  <m>
=

>  <Value>
40000

>  <Unit>
nM

>  <Type>
IC50

>  <pValue>
4.4

>  <Ligand Efficiency>
0

>  <Binding Efficiency>
0

>  <Surface Efficiency>
0

>  <Assay Index>
52464

>  <Assay Category>


>  <Assay Organism>
Homo sapiens

>  <Target ID>
17045

>  <Target Name>
Cytochrome P450 3A4

>  <Target Organism>
Homo sapiens

>  <Target Description>
Target is a single protein chain

>  <Sequence Accession>
P08684

>  <Reference>
J Med Chem 42 (2), 202-205 (1999)

>  <Pubmed ID>
9925723

>  <DOI>
10.1021/jm980532e

$$$$
253453
Actelion Java MolfileCreator 1.0

 33 36  0  0  1  0  0  0  0  0999 V2000
    0.0000   -0.0000   -0.0000 S   0  0  0  0  0  0  0  0  0  0  0  0
   -1.4387   -0.4481   -0.0000 C   0  0  0  0  0  0  0  0  0  0  0  0
    0.8726   -1.2028   -0.0000 C   0  0  0  0  0  0  0  0  0  0  0  0
   -1.4505   -1.9340   -0.0000 C   0  0  0  0  0  0  0  0  0  0  0  0
   -2.7476    0.3066   -0.0000 C   0  0  0  0  0  0  0  0  0  0  0  0
   -0.0236   -2.4174   -0.0000 N   0  0  0  0  0  0  0  0  0  0  0  0
    2.3585   -1.1910   -0.0000 C   0  0  0  0  0  0  0  0  0  0  0  0
   -2.7594   -2.6651   -0.0000 C   0  0  0  0  0  0  0  0  0  0  0  0
   -4.0566   -0.4245   -0.0000 C   0  0  0  0  0  0  0  0  0  0  0  0
   -4.0684   -1.9104   -0.0000 C   0  0  0  0  0  0  0  0  0  0  0  0
   -5.3773   -2.6415   -0.0000 O   0  0  0  0  0  0  0  0  0  0  0  0
   -6.6863   -1.8868   -0.0000 C   0  0  0  0  0  0  0  0  0  0  0  0
   -7.9952   -2.6179   -0.0000 C   0  0  0  0  0  0  0  0  0  0  0  0
   -8.0070   -4.1038   -0.0000 O   0  0  0  0  0  0  0  0  0  0  0  0
   -9.3042   -1.8632   -0.0000 C   0  0  0  0  0  0  0  0  0  0  0  0
  -10.6131   -2.5943   -0.0000 N   0  0  0  0  0  0  0  0  0  0  0  0
  -11.3679   -3.8797   -0.0000 C   0  0  0  0  0  0  0  0  0  0  0  0
  -11.3679   -1.2972   -0.0000 C   0  0  0  0  0  0  0  0  0  0  0  0
  -12.8773   -3.8797   -0.0000 C   0  0  0  0  0  0  0  0  0  0  0  0
  -12.8655   -1.2854   -0.0000 C   0  0  0  0  0  0  0  0  0  0  0  0
  -13.6202   -2.5707   -0.0000 N   0  0  0  0  0  0  0  0  0  0  0  0
  -14.9410   -1.8278   -0.0000 C   0  0  0  0  0  0  0  0  0  0  0  0
  -16.2499   -2.5589   -0.0000 C   0  0  0  0  0  0  0  0  0  0  0  0
  -16.2499   -4.0448   -0.0000 O   0  0  0  0  0  0  0  0  0  0  0  0
  -17.5589   -1.8042   -0.0000 N   0  0  0  0  0  0  0  0  0  0  0  0
  -18.8678   -2.5354   -0.0000 C   0  0  0  0  0  0  0  0  0  0  0  0
  -18.8678   -4.0212   -0.0000 C   0  0  0  0  0  0  0  0  0  0  0  0
  -20.1768   -1.7924   -0.0000 C   0  0  0  0  0  0  0  0  0  0  0  0
  -20.1650   -4.7759   -0.0000 C   0  0  0  0  0  0  0  0  0  0  0  0
  -17.5824   -4.7523   -0.0000 C   0  0  0  0  0  0  0  0  0  0  0  0
  -21.4857   -2.5354   -0.0000 C   0  0  0  0  0  0  0  0  0  0  0  0
  -20.2004   -0.2830   -0.0000 C   0  0  0  0  0  0  0  0  0  0  0  0
  -21.4975   -4.0212   -0.0000 C   0  0  0  0  0  0  0  0  0  0  0  0
  1  2  1  0  0  0  0
  1  3  1  0  0  0  0
  2  4  2  0  0  0  0
  2  5  1  0  0  0  0
  3  6  2  0  0  0  0
  3  7  1  0  0  0  0
  4  8  1  0  0  0  0
  5  9  2  0  0  0  0
  8 10  2  0  0  0  0
 10 11  1  0  0  0  0
 11 12  1  0  0  0  0
 12 13  1  0  0  0  0
 13 14  1  6  0  0  0
 13 15  1  0  0  0  0
 15 16  1  0  0  0  0
 16 17  1  0  0  0  0
 16 18  1  0  0  0  0
 17 19  1  0  0  0  0
 18 20  1  0  0  0  0
 19 21  1  0  0  0  0
 21 22  1  0  0  0  0
 22 23  1  0  0  0  0
 23 24  2  0  0  0  0
 23 25  1  0  0  0  0
 25 26  1  0  0  0  0
 26 27  2  0  0  0  0
 26 28  1  0  0  0  0
 27 29  1  0  0  0  0
 27 30  1  0  0  0  0
 28 31  2  0  0  0  0
 28 32  1  0  0  0  0
 29 33  2  0  0  0  0
  4  6  1  0  0  0  0
  9 10  1  0  0  0  0
 20 21  1  0  0  0  0
 31 33  1  0  0  0  0
M  END
>  <MolRegNo>
253453

>  <m>
=

>  <Value>
23000

>  <Unit>
nM

>  <Type>
IC50

>  <pValue>
4.64

>  <Ligand Efficiency>
0

>  <Binding Efficiency>
0

>  <Surface Efficiency>
0

>  <Assay Index>
51805

>  <Assay Category>


>  <Assay Organism>
Cavia porcellus

>  <Target ID>
17045

>  <Target Name>
Cytochrome P450 3A4

>  <Target Organism>
Homo sapiens

>  <Target Description>
Target is a single protein chain

>  <Sequence Accession>
P08684

>  <Reference>
Bioorg Med Chem Lett 14 (2), 549-552 (2004)

>  <Pubmed ID>
14698201

>  <DOI>
10.1016/j.bmcl.2003.09.093

$$$$
282942
Actelion Java MolfileCreator 1.0

 25 25  0  0  1  0  0  0  0  0999 V2000
    0.0000   -0.0000   -0.0000 S   0  0  0  0  0  0  0  0  0  0  0  0
   -0.0361    1.5166   -0.0000 O   0  0  0  0  0  0  0  0  0  0  0  0
   -1.3000   -0.7704   -0.0000 O   0  0  0  0  0  0  0  0  0  0  0  0
    1.3240   -0.7102   -0.0000 N   0  0  0  0  0  0  0  0  0  0  0  0
   -1.3240    0.7824   -0.0000 C   0  0  0  0  0  0  0  0  0  0  0  0
    2.5759    0.0602   -0.0000 C   0  0  0  0  0  0  0  0  0  0  0  0
   -2.6601    0.0481   -0.0000 C   0  0  0  0  0  0  0  0  0  0  0  0
   -1.3240    2.3111   -0.0000 C   0  0  0  0  0  0  0  0  0  0  0  0
    3.8638   -0.6259   -0.0000 C   0  0  0  0  0  0  0  0  0  0  0  0
    2.5398    1.5527   -0.0000 C   0  0  0  0  0  0  0  0  0  0  0  0
   -3.9962    0.8305   -0.0000 C   0  0  0  0  0  0  0  0  0  0  0  0
   -2.6481    3.0814   -0.0000 C   0  0  0  0  0  0  0  0  0  0  0  0
    3.8999   -2.1426   -0.0000 O   0  0  0  0  0  0  0  0  0  0  0  0
    5.1758    0.1324   -0.0000 N   0  0  0  0  0  0  0  0  0  0  0  0
    1.2278    2.2870   -0.0000 C   0  0  0  0  0  0  0  0  0  0  0  0
    3.8036    2.3351   -0.0000 C   0  0  0  0  0  0  0  0  0  0  0  0
   -3.9962    2.3592   -0.0000 C   0  0  0  0  0  0  0  0  0  0  0  0
    6.4397   -0.6018   -0.0000 C   0  0  0  0  0  0  0  0  0  0  0  0
   -5.2842    3.1175   -0.0000 F   0  0  0  0  0  0  0  0  0  0  0  0
    7.7036    0.1565   -0.0000 C   0  0  0  0  0  0  0  0  0  0  0  0
    6.4277   -2.0703   -0.0000 C   0  0  0  0  0  0  0  0  0  0  0  0
    7.6915    1.6490   -0.0000 O   0  0  0  0  0  0  0  0  0  0  0  0
    7.6915   -2.8046   -0.0000 C   0  0  0  0  0  0  0  0  0  0  0  0
    8.9554   -2.0463   -0.0000 C   0  0  0  0  0  0  0  0  0  0  0  0
    7.6795   -4.2731   -0.0000 C   0  0  0  0  0  0  0  0  0  0  0  0
  1  2  2  0  0  0  0
  1  3  2  0  0  0  0
  1  4  1  0  0  0  0
  1  5  1  0  0  0  0
  6  4  1  1  0  0  0
  5  7  2  0  0  0  0
  5  8  1  0  0  0  0
  6  9  1  0  0  0  0
  6 10  1  0  0  0  0
  7 11  1  0  0  0  0
  8 12  2  0  0  0  0
  9 13  2  0  0  0  0
  9 14  1  0  0  0  0
 10 15  1  0  0  0  0
 10 16  1  0  0  0  0
 11 17  2  0  0  0  0
 18 14  1  1  0  0  0
 17 19  1  0  0  0  0
 18 20  1  0  0  0  0
 18 21  1  0  0  0  0
 20 22  2  0  0  0  0
 21 23  1  0  0  0  0
 23 24  1  0  0  0  0
 23 25  1  0  0  0  0
 12 17  1  0  0  0  0
M  END
>  <MolRegNo>
282942

>  <m>
=

>  <Value>
81000

>  <Unit>
nM

>  <Type>
IC50

>  <pValue>
4.09

>  <Ligand Efficiency>
0

>  <Binding Efficiency>
0

>  <Surface Efficiency>
0

>  <Assay Index>
51977

>  <Assay Category>


>  <Assay Organism>


>  <Target ID>
17045

>  <Target Name>
Cytochrome P450 3A4

>  <Target Organism>
Homo sapiens

>  <Target Description>
Target is a single protein chain

>  <Sequence Accession>
P08684

>  <Reference>
J Med Chem 46 (5), 868-871 (2003)

>  <Pubmed ID>
12593666

>  <DOI>
10.1021/jm0201924

$$$$
2038629
Actelion Java MolfileCreator 1.0

 52 57  0  0  1  0  0  0  0  0999 V2000
    0.0000   -0.0000   -0.0000 F   0  0  0  0  0  0  0  0  0  0  0  0
    1.2916   -0.7347   -0.0000 C   0  0  0  0  0  0  0  0  0  0  0  0
    2.0263    0.5806   -0.0000 F   0  0  0  0  0  0  0  0  0  0  0  0
    0.5332   -2.0263   -0.0000 F   0  0  0  0  0  0  0  0  0  0  0  0
    2.5833   -1.4694   -0.0000 C   0  0  0  0  0  0  0  0  0  0  0  0
    2.5714   -2.9625   -0.0000 N   0  0  0  0  0  0  0  0  0  0  0  0
    3.8631   -3.6972   -0.0000 C   0  0  0  0  0  0  0  0  0  0  0  0
    3.8512   -5.1903   -0.0000 O   0  0  0  0  0  0  0  0  0  0  0  0
    5.1547   -2.9388   -0.0000 C   0  0  0  0  0  0  0  0  0  0  0  0
    6.4464   -3.6735   -0.0000 N   0  0  0  0  0  0  0  0  0  0  0  0
    5.1429   -1.4220   -0.0000 C   0  0  0  0  0  0  0  0  0  0  0  0
    7.7380   -2.9151   -0.0000 C   0  0  0  0  0  0  0  0  0  0  0  0
    6.4345   -5.1666   -0.0000 C   0  0  0  0  0  0  0  0  0  0  0  0
    6.4345   -0.6636   -0.0000 N   0  0  0  0  0  0  0  0  0  0  0  0
    7.7262   -1.3983   -0.0000 C   0  0  0  0  0  0  0  0  0  0  0  0
    7.7262   -5.9013   -0.0000 C   0  0  0  0  0  0  0  0  0  0  0  0
    6.4227    0.8532   -0.0000 C   0  0  0  0  0  0  0  0  0  0  0  0
    9.0178   -5.1429   -0.0000 O   0  0  0  0  0  0  0  0  0  0  0  0
    7.7143   -7.3944   -0.0000 C   0  0  0  0  0  0  0  0  0  0  0  0
    5.1073    1.6234   -0.0000 C   0  0  0  0  0  0  0  0  0  0  0  0
    9.0060   -8.1291   -0.0000 C   0  0  0  0  0  0  0  0  0  0  0  0
    4.9414    3.1284   -0.0000 O   0  0  0  0  0  0  0  0  0  0  0  0
    3.7209    1.0191   -0.0000 C   0  0  0  0  0  0  0  0  0  0  0  0
    8.9941   -9.6222   -0.0000 C   0  0  0  0  0  0  0  0  0  0  0  0
   10.2976   -7.3707   -0.0000 C   0  0  0  0  0  0  0  0  0  0  0  0
    3.4602    3.4483   -0.0000 C   0  0  0  0  0  0  0  0  0  0  0  0
    2.7018    2.1448   -0.0000 C   0  0  0  0  0  0  0  0  0  0  0  0
    7.6788  -10.3569   -0.0000 O   0  0  0  0  0  0  0  0  0  0  0  0
   10.2858  -10.3569   -0.0000 N   0  0  0  0  0  0  0  0  0  0  0  0
   11.5893   -8.1054   -0.0000 C   0  0  0  0  0  0  0  0  0  0  0  0
    2.8321    4.8348   -0.0000 C   0  0  0  0  0  0  0  0  0  0  0  0
   10.2739  -11.8500   -0.0000 C   0  0  0  0  0  0  0  0  0  0  0  0
   12.8809   -7.3470   -0.0000 C   0  0  0  0  0  0  0  0  0  0  0  0
   11.5774   -9.5985   -0.0000 C   0  0  0  0  0  0  0  0  0  0  0  0
    1.3272    5.0007   -0.0000 C   0  0  0  0  0  0  0  0  0  0  0  0
    3.7090    6.0672   -0.0000 C   0  0  0  0  0  0  0  0  0  0  0  0
   11.5656  -12.5846   -0.0000 C   0  0  0  0  0  0  0  0  0  0  0  0
    8.9586  -12.5846   -0.0000 C   0  0  0  0  0  0  0  0  0  0  0  0
   14.1725   -8.0817   -0.0000 C   0  0  0  0  0  0  0  0  0  0  0  0
   12.8690  -10.3332   -0.0000 C   0  0  0  0  0  0  0  0  0  0  0  0
    0.6991    6.3871   -0.0000 N   0  0  0  0  0  0  0  0  0  0  0  0
    3.0810    7.4536   -0.0000 C   0  0  0  0  0  0  0  0  0  0  0  0
   11.5537  -14.0777   -0.0000 C   0  0  0  0  0  0  0  0  0  0  0  0
   12.8572  -11.8263   -0.0000 C   0  0  0  0  0  0  0  0  0  0  0  0
    7.6432  -11.8263   -0.0000 O   0  0  0  0  0  0  0  0  0  0  0  0
    8.9467  -14.0777   -0.0000 C   0  0  0  0  0  0  0  0  0  0  0  0
   14.1607   -9.5748   -0.0000 C   0  0  0  0  0  0  0  0  0  0  0  0
    1.5760    7.6195   -0.0000 C   0  0  0  0  0  0  0  0  0  0  0  0
   10.2384  -14.8124   -0.0000 O   0  0  0  0  0  0  0  0  0  0  0  0
   12.8453  -14.8124   -0.0000 C   0  0  0  0  0  0  0  0  0  0  0  0
   14.1488  -12.5609   -0.0000 C   0  0  0  0  0  0  0  0  0  0  0  0
   14.1370  -14.0540   -0.0000 C   0  0  0  0  0  0  0  0  0  0  0  0
  1  2  1  0  0  0  0
  2  3  1  0  0  0  0
  2  4  1  0  0  0  0
  2  5  1  0  0  0  0
  5  6  1  0  0  0  0
  6  7  1  0  0  0  0
  7  8  2  0  0  0  0
  9  7  1  6  0  0  0
  9 10  1  0  0  0  0
  9 11  1  0  0  0  0
 10 12  1  0  0  0  0
 10 13  1  0  0  0  0
 11 14  1  0  0  0  0
 12 15  1  0  0  0  0
 13 16  1  0  0  0  0
 14 17  1  0  0  0  0
 16 18  1  1  0  0  0
 16 19  1  0  0  0  0
 17 20  1  0  0  0  0
 21 19  1  1  0  0  0
 20 22  1  0  0  0  0
 20 23  2  0  0  0  0
 21 24  1  0  0  0  0
 21 25  1  0  0  0  0
 22 26  1  0  0  0  0
 23 27  1  0  0  0  0
 24 28  2  0  0  0  0
 24 29  1  0  0  0  0
 25 30  1  0  0  0  0
 26 31  1  0  0  0  0
 32 29  1  1  0  0  0
 30 33  2  0  0  0  0
 30 34  1  0  0  0  0
 31 35  2  0  0  0  0
 31 36  1  0  0  0  0
 32 37  1  0  0  0  0
 32 38  1  0  0  0  0
 33 39  1  0  0  0  0
 34 40  2  0  0  0  0
 35 41  1  0  0  0  0
 36 42  2  0  0  0  0
 37 43  2  0  0  0  0
 37 44  1  0  0  0  0
 38 45  1  1  0  0  0
 38 46  1  0  0  0  0
 39 47  2  0  0  0  0
 41 48  2  0  0  0  0
 43 49  1  0  0  0  0
 43 50  1  0  0  0  0
 44 51  2  0  0  0  0
 50 52  2  0  0  0  0
 14 15  1  0  0  0  0
 26 27  2  0  0  0  0
 40 47  1  0  0  0  0
 42 48  1  0  0  0  0
 46 49  1  0  0  0  0
 51 52  1  0  0  0  0
M  END
>  <MolRegNo>
2038629

>  <m>
=

>  <Value>
440

>  <Unit>
nM

>  <Type>
IC50

>  <pValue>
6.36

>  <Ligand Efficiency>
0

>  <Binding Efficiency>
0

>  <Surface Efficiency>
0

>  <Assay Index>
51817

>  <Assay Category>


>  <Assay Organism>
Homo sapiens

>  <Target ID>
17045

>  <Target Name>
Cytochrome P450 3A4

>  <Target Organism>
Homo sapiens

>  <Target Description>
Target is a single protein chain

>  <Sequence Accession>
P08684

>  <Reference>
Bioorg Med Chem Lett 13 (15), 2569-2572 (2003)

>  <Pubmed ID>
12852968

>  <DOI>
10.1016/s0960-894x(03)00475-x

$$$$
17170
Actelion Java MolfileCreator 1.0

 45 49  0  0  1  0  0  0  0  0999 V2000
    0.0000   -0.0000   -0.0000 O   0  0  0  0  0  0  0  0  0  0  0  0
   -1.3074    0.7917   -0.0000 C   0  0  0  0  0  0  0  0  0  0  0  0
   -2.6389    0.0480   -0.0000 N   0  0  0  0  0  0  0  0  0  0  0  0
   -1.3194    2.3150   -0.0000 C   0  0  0  0  0  0  0  0  0  0  0  0
   -2.6509   -1.4514   -0.0000 C   0  0  0  0  0  0  0  0  0  0  0  0
   -0.0360    3.0587   -0.0000 N   0  0  0  0  0  0  0  0  0  0  0  0
   -2.6389    3.0707   -0.0000 C   0  0  0  0  0  0  0  0  0  0  0  0
   -3.9823   -2.1711   -0.0000 C   0  0  0  0  0  0  0  0  0  0  0  0
   -1.2235   -1.7992   -0.0000 C   0  0  0  0  0  0  0  0  0  0  0  0
   -1.9192   -2.7228   -0.0000 C   0  0  0  0  0  0  0  0  0  0  0  0
   -0.0240    4.5700   -0.0000 C   0  0  0  0  0  0  0  0  0  0  0  0
    1.2595    2.3150   -0.0000 C   0  0  0  0  0  0  0  0  0  0  0  0
   -2.6269    4.5820   -0.0000 N   0  0  0  0  0  0  0  0  0  0  0  0
   -1.3434    5.3377   -0.0000 C   0  0  0  0  0  0  0  0  0  0  0  0
    2.5429    3.0587   -0.0000 C   0  0  0  0  0  0  0  0  0  0  0  0
   -3.9463    5.3377   -0.0000 C   0  0  0  0  0  0  0  0  0  0  0  0
    2.5309    4.5940   -0.0000 O   0  0  0  0  0  0  0  0  0  0  0  0
    3.8384    2.3150   -0.0000 C   0  0  0  0  0  0  0  0  0  0  0  0
   -5.2537    4.5940   -0.0000 C   0  0  0  0  0  0  0  0  0  0  0  0
    5.1218    3.0707   -0.0000 C   0  0  0  0  0  0  0  0  0  0  0  0
   -6.5732    5.3617   -0.0000 C   0  0  0  0  0  0  0  0  0  0  0  0
   -5.2537    3.1067   -0.0000 C   0  0  0  0  0  0  0  0  0  0  0  0
    6.4172    2.3270   -0.0000 C   0  0  0  0  0  0  0  0  0  0  0  0
    5.1098    4.5820   -0.0000 C   0  0  0  0  0  0  0  0  0  0  0  0
   -7.9046    4.6180   -0.0000 N   0  0  0  0  0  0  0  0  0  0  0  0
   -6.5852    2.3630   -0.0000 C   0  0  0  0  0  0  0  0  0  0  0  0
    6.3813    0.8276   -0.0000 O   0  0  0  0  0  0  0  0  0  0  0  0
    7.7007    3.0707   -0.0000 N   0  0  0  0  0  0  0  0  0  0  0  0
    6.3933    5.3497   -0.0000 C   0  0  0  0  0  0  0  0  0  0  0  0
   -7.9166    3.1307   -0.0000 C   0  0  0  0  0  0  0  0  0  0  0  0
    8.9841    2.3390   -0.0000 C   0  0  0  0  0  0  0  0  0  0  0  0
    7.6887    4.6180   -0.0000 C   0  0  0  0  0  0  0  0  0  0  0  0
    6.3813    6.8730   -0.0000 C   0  0  0  0  0  0  0  0  0  0  0  0
    9.1401    0.8636   -0.0000 C   0  0  0  0  0  0  0  0  0  0  0  0
   10.3635    2.9507   -0.0000 C   0  0  0  0  0  0  0  0  0  0  0  0
    8.9721    5.3857   -0.0000 C   0  0  0  0  0  0  0  0  0  0  0  0
    7.6647    7.6407   -0.0000 C   0  0  0  0  0  0  0  0  0  0  0  0
   10.5915    0.5638   -0.0000 C   0  0  0  0  0  0  0  0  0  0  0  0
    8.1445   -0.2159   -0.0000 C   0  0  0  0  0  0  0  0  0  0  0  0
   10.7234    4.4381   -0.0000 O   0  0  0  0  0  0  0  0  0  0  0  0
   11.3471    1.8472   -0.0000 C   0  0  0  0  0  0  0  0  0  0  0  0
    8.9602    6.9090   -0.0000 C   0  0  0  0  0  0  0  0  0  0  0  0
   11.0233   -0.8396   -0.0000 C   0  0  0  0  0  0  0  0  0  0  0  0
    8.5763   -1.6313   -0.0000 C   0  0  0  0  0  0  0  0  0  0  0  0
   10.0277   -1.9312   -0.0000 C   0  0  0  0  0  0  0  0  0  0  0  0
  1  2  2  0  0  0  0
  2  3  1  0  0  0  0
  4  2  1  6  0  0  0
  3  5  1  0  0  0  0
  4  6  1  0  0  0  0
  4  7  1  0  0  0  0
  5  8  1  0  0  0  0
  5  9  1  0  0  0  0
  5 10  1  0  0  0  0
  6 11  1  0  0  0  0
  6 12  1  0  0  0  0
  7 13  1  0  0  0  0
 11 14  1  0  0  0  0
 12 15  1  0  0  0  0
 13 16  1  0  0  0  0
 15 17  1  1  0  0  0
 15 18  1  0  0  0  0
 16 19  1  0  0  0  0
 20 18  1  1  0  0  0
 19 21  2  0  0  0  0
 19 22  1  0  0  0  0
 20 23  1  0  0  0  0
 20 24  1  0  0  0  0
 21 25  1  0  0  0  0
 22 26  2  0  0  0  0
 23 27  2  0  0  0  0
 23 28  1  0  0  0  0
 24 29  1  0  0  0  0
 25 30  2  0  0  0  0
 31 28  1  6  0  0  0
 29 32  2  0  0  0  0
 29 33  1  0  0  0  0
 31 34  1  0  0  0  0
 31 35  1  0  0  0  0
 32 36  1  0  0  0  0
 33 37  2  0  0  0  0
 34 38  2  0  0  0  0
 34 39  1  0  0  0  0
 35 40  1  6  0  0  0
 35 41  1  0  0  0  0
 36 42  2  0  0  0  0
 38 43  1  0  0  0  0
 39 44  2  0  0  0  0
 43 45  2  0  0  0  0
 13 14  1  0  0  0  0
 26 30  1  0  0  0  0
 37 42  1  0  0  0  0
 38 41  1  0  0  0  0
 44 45  1  0  0  0  0
M  END
>  <MolRegNo>
17170

>  <m>
=

>  <Value>
150

>  <Unit>
nM

>  <Type>
IC50

>  <pValue>
6.82

>  <Ligand Efficiency>
0

>  <Binding Efficiency>
0

>  <Surface Efficiency>
0

>  <Assay Index>
51817

>  <Assay Category>


>  <Assay Organism>
Homo sapiens

>  <Target ID>
17045

>  <Target Name>
Cytochrome P450 3A4

>  <Target Organism>
Homo sapiens

>  <Target Description>
Target is a single protein chain

>  <Sequence Accession>
P08684

>  <Reference>
Bioorg Med Chem Lett 13 (15), 2569-2572 (2003)

>  <Pubmed ID>
12852968

>  <DOI>
10.1016/s0960-894x(03)00475-x

$$$$
2038625
Actelion Java MolfileCreator 1.0

 52 57  0  0  1  0  0  0  0  0999 V2000
    0.0000   -0.0000   -0.0000 F   0  0  0  0  0  0  0  0  0  0  0  0
    1.1712    0.6954   -0.0000 C   0  0  0  0  0  0  0  0  0  0  0  0
   -0.3172    1.2566   -0.0000 F   0  0  0  0  0  0  0  0  0  0  0  0
    0.9150   -0.8418   -0.0000 F   0  0  0  0  0  0  0  0  0  0  0  0
    2.4399    1.4639   -0.0000 C   0  0  0  0  0  0  0  0  0  0  0  0
    2.4277    2.9767   -0.0000 N   0  0  0  0  0  0  0  0  0  0  0  0
    1.1102    3.7331   -0.0000 C   0  0  0  0  0  0  0  0  0  0  0  0
   -0.2196    2.9889   -0.0000 O   0  0  0  0  0  0  0  0  0  0  0  0
    1.0858    5.2458   -0.0000 C   0  0  0  0  0  0  0  0  0  0  0  0
    2.3667    6.0266   -0.0000 N   0  0  0  0  0  0  0  0  0  0  0  0
   -0.2318    6.0144   -0.0000 C   0  0  0  0  0  0  0  0  0  0  0  0
    2.3423    7.5393   -0.0000 C   0  0  0  0  0  0  0  0  0  0  0  0
    3.6477    5.2824   -0.0000 C   0  0  0  0  0  0  0  0  0  0  0  0
   -0.2562    7.5393   -0.0000 N   0  0  0  0  0  0  0  0  0  0  0  0
    1.0126    8.2835   -0.0000 C   0  0  0  0  0  0  0  0  0  0  0  0
    4.9286    6.0632   -0.0000 C   0  0  0  0  0  0  0  0  0  0  0  0
   -1.5615    8.2957   -0.0000 C   0  0  0  0  0  0  0  0  0  0  0  0
    4.9042    7.5759   -0.0000 O   0  0  0  0  0  0  0  0  0  0  0  0
    6.2340    5.3190   -0.0000 C   0  0  0  0  0  0  0  0  0  0  0  0
   -2.8669    7.5515   -0.0000 C   0  0  0  0  0  0  0  0  0  0  0  0
    7.5149    6.0876   -0.0000 C   0  0  0  0  0  0  0  0  0  0  0  0
   -3.0377    6.0876   -0.0000 O   0  0  0  0  0  0  0  0  0  0  0  0
   -4.2698    8.1737   -0.0000 C   0  0  0  0  0  0  0  0  0  0  0  0
    8.8081    5.3678   -0.0000 C   0  0  0  0  0  0  0  0  0  0  0  0
    7.4905    7.6003   -0.0000 C   0  0  0  0  0  0  0  0  0  0  0  0
   -4.5138    5.7826   -0.0000 C   0  0  0  0  0  0  0  0  0  0  0  0
   -5.2824    7.0635   -0.0000 C   0  0  0  0  0  0  0  0  0  0  0  0
    8.8081    3.8795   -0.0000 O   0  0  0  0  0  0  0  0  0  0  0  0
   10.0890    6.1486   -0.0000 N   0  0  0  0  0  0  0  0  0  0  0  0
    8.7715    8.3811   -0.0000 C   0  0  0  0  0  0  0  0  0  0  0  0
   -5.1360    4.4162   -0.0000 C   0  0  0  0  0  0  0  0  0  0  0  0
   11.6018    5.9656   -0.0000 C   0  0  0  0  0  0  0  0  0  0  0  0
    8.7471    9.8938   -0.0000 C   0  0  0  0  0  0  0  0  0  0  0  0
   10.0646    7.6613   -0.0000 C   0  0  0  0  0  0  0  0  0  0  0  0
   -4.2576    3.2329   -0.0000 N   0  0  0  0  0  0  0  0  0  0  0  0
   -6.6366    4.2820   -0.0000 C   0  0  0  0  0  0  0  0  0  0  0  0
   12.0654    4.5626   -0.0000 C   0  0  0  0  0  0  0  0  0  0  0  0
   12.5655    7.1001   -0.0000 C   0  0  0  0  0  0  0  0  0  0  0  0
   10.0280   10.6624   -0.0000 C   0  0  0  0  0  0  0  0  0  0  0  0
   11.3456    8.4299   -0.0000 C   0  0  0  0  0  0  0  0  0  0  0  0
   -4.8676    1.8665   -0.0000 C   0  0  0  0  0  0  0  0  0  0  0  0
   -7.2587    2.9035   -0.0000 C   0  0  0  0  0  0  0  0  0  0  0  0
   13.5171    4.2698   -0.0000 C   0  0  0  0  0  0  0  0  0  0  0  0
   11.0528    3.4525   -0.0000 C   0  0  0  0  0  0  0  0  0  0  0  0
   12.0776    8.5397   -0.0000 O   0  0  0  0  0  0  0  0  0  0  0  0
   14.0295    6.8196   -0.0000 C   0  0  0  0  0  0  0  0  0  0  0  0
   11.3212    9.9426   -0.0000 C   0  0  0  0  0  0  0  0  0  0  0  0
   -6.3804    1.7079   -0.0000 C   0  0  0  0  0  0  0  0  0  0  0  0
   14.5053    5.4044   -0.0000 O   0  0  0  0  0  0  0  0  0  0  0  0
   13.9807    2.8791   -0.0000 C   0  0  0  0  0  0  0  0  0  0  0  0
   11.5164    2.0495   -0.0000 C   0  0  0  0  0  0  0  0  0  0  0  0
   12.9925    1.7689   -0.0000 C   0  0  0  0  0  0  0  0  0  0  0  0
  1  2  1  0  0  0  0
  2  3  1  0  0  0  0
  2  4  1  0  0  0  0
  2  5  1  0  0  0  0
  5  6  1  0  0  0  0
  6  7  1  0  0  0  0
  7  8  2  0  0  0  0
  9  7  1  6  0  0  0
  9 10  1  0  0  0  0
  9 11  1  0  0  0  0
 10 12  1  0  0  0  0
 10 13  1  0  0  0  0
 11 14  1  0  0  0  0
 12 15  1  0  0  0  0
 13 16  1  0  0  0  0
 14 17  1  0  0  0  0
 16 18  1  1  0  0  0
 16 19  1  0  0  0  0
 17 20  1  0  0  0  0
 21 19  1  1  0  0  0
 20 22  1  0  0  0  0
 20 23  2  0  0  0  0
 21 24  1  0  0  0  0
 21 25  1  0  0  0  0
 22 26  1  0  0  0  0
 23 27  1  0  0  0  0
 24 28  2  0  0  0  0
 24 29  1  0  0  0  0
 25 30  1  0  0  0  0
 26 31  1  0  0  0  0
 32 29  1  6  0  0  0
 30 33  2  0  0  0  0
 30 34  1  0  0  0  0
 31 35  2  0  0  0  0
 31 36  1  0  0  0  0
 32 37  1  0  0  0  0
 32 38  1  0  0  0  0
 33 39  1  0  0  0  0
 34 40  2  0  0  0  0
 35 41  1  0  0  0  0
 36 42  2  0  0  0  0
 37 43  2  0  0  0  0
 37 44  1  0  0  0  0
 38 45  1  6  0  0  0
 38 46  1  0  0  0  0
 39 47  2  0  0  0  0
 41 48  2  0  0  0  0
 43 49  1  0  0  0  0
 43 50  1  0  0  0  0
 44 51  2  0  0  0  0
 50 52  2  0  0  0  0
 14 15  1  0  0  0  0
 26 27  2  0  0  0  0
 40 47  1  0  0  0  0
 42 48  1  0  0  0  0
 46 49  1  0  0  0  0
 51 52  1  0  0  0  0
M  END
>  <MolRegNo>
2038625

>  <m>
=

>  <Value>
5200

>  <Unit>
nM

>  <Type>
IC50

>  <pValue>
5.28

>  <Ligand Efficiency>
0

>  <Binding Efficiency>
0

>  <Surface Efficiency>
0

>  <Assay Index>
51817

>  <Assay Category>


>  <Assay Organism>
Homo sapiens

>  <Target ID>
17045

>  <Target Name>
Cytochrome P450 3A4

>  <Target Organism>
Homo sapiens

>  <Target Description>
Target is a single protein chain

>  <Sequence Accession>
P08684

>  <Reference>
Bioorg Med Chem Lett 13 (15), 2569-2572 (2003)

>  <Pubmed ID>
12852968

>  <DOI>
10.1016/s0960-894x(03)00475-x

$$$$
280337
Actelion Java MolfileCreator 1.0

 45 51  0  0  1  0  0  0  0  0999 V2000
    0.0000   -0.0000   -0.0000 O   0  0  0  0  0  0  0  0  0  0  0  0
   -0.0188    1.3942   -0.0000 C   0  0  0  0  0  0  0  0  0  0  0  0
   -1.2247    2.1102   -0.0000 N   0  0  0  0  0  0  0  0  0  0  0  0
    1.1493    2.1290   -0.0000 C   0  0  0  0  0  0  0  0  0  0  0  0
   -3.1465    2.1479   -0.0000 C   0  0  0  0  0  0  0  0  0  0  0  0
   -1.1305    3.5610   -0.0000 C   0  0  0  0  0  0  0  0  0  0  0  0
    2.3363    1.4508   -0.0000 C   0  0  0  0  0  0  0  0  0  0  0  0
    0.1507    3.1276   -0.0000 C   0  0  0  0  0  0  0  0  0  0  0  0
    1.8276    3.3537   -0.0000 C   0  0  0  0  0  0  0  0  0  0  0  0
   -3.8813    3.3725   -0.0000 C   0  0  0  0  0  0  0  0  0  0  0  0
   -4.1639    0.5275   -0.0000 C   0  0  0  0  0  0  0  0  0  0  0  0
   -3.0146    3.5986   -0.0000 C   0  0  0  0  0  0  0  0  0  0  0  0
    3.5233    2.1667   -0.0000 C   0  0  0  0  0  0  0  0  0  0  0  0
    2.3363    0.0754   -0.0000 C   0  0  0  0  0  0  0  0  0  0  0  0
   -3.6175    4.5595   -0.0000 C   0  0  0  0  0  0  0  0  0  0  0  0
   -4.1262    2.0348   -0.0000 C   0  0  0  0  0  0  0  0  0  0  0  0
    4.7103    1.5073   -0.0000 C   0  0  0  0  0  0  0  0  0  0  0  0
    3.5233   -0.5841   -0.0000 C   0  0  0  0  0  0  0  0  0  0  0  0
    4.6914    0.1507   -0.0000 C   0  0  0  0  0  0  0  0  0  0  0  0
    7.0842    1.5450   -0.0000 C   0  0  0  0  0  0  0  0  0  0  0  0
    5.8784   -0.5275   -0.0000 N   0  0  0  0  0  0  0  0  0  0  0  0
    7.0654    0.1696   -0.0000 C   0  0  0  0  0  0  0  0  0  0  0  0
    8.4219    2.3551   -0.0000 C   0  0  0  0  0  0  0  0  0  0  0  0
    8.2524   -0.4899   -0.0000 C   0  0  0  0  0  0  0  0  0  0  0  0
    9.7785    1.5826   -0.0000 C   0  0  0  0  0  0  0  0  0  0  0  0
    8.4031    3.9566   -0.0000 C   0  0  0  0  0  0  0  0  0  0  0  0
    8.2335   -1.8653   -0.0000 C   0  0  0  0  0  0  0  0  0  0  0  0
    9.4017    0.2261   -0.0000 C   0  0  0  0  0  0  0  0  0  0  0  0
   11.1351    2.3928   -0.0000 N   0  0  0  0  0  0  0  0  0  0  0  0
    9.4394   -2.5247   -0.0000 C   0  0  0  0  0  0  0  0  0  0  0  0
   10.6075   -0.4333   -0.0000 C   0  0  0  0  0  0  0  0  0  0  0  0
   12.4916    1.6203   -0.0000 C   0  0  0  0  0  0  0  0  0  0  0  0
   10.6075   -1.8087   -0.0000 C   0  0  0  0  0  0  0  0  0  0  0  0
    9.4205   -3.9001   -0.0000 C   0  0  0  0  0  0  0  0  0  0  0  0
   11.7945    0.3015   -0.0000 C   0  0  0  0  0  0  0  0  0  0  0  0
   13.8482    2.4305   -0.0000 C   0  0  0  0  0  0  0  0  0  0  0  0
   15.1859    1.6580   -0.0000 C   0  0  0  0  0  0  0  0  0  0  0  0
   15.0728    0.0942   -0.0000 C   0  0  0  0  0  0  0  0  0  0  0  0
   16.5613    2.3928   -0.0000 C   0  0  0  0  0  0  0  0  0  0  0  0
   16.3917   -0.7536   -0.0000 N   0  0  0  0  0  0  0  0  0  0  0  0
   17.8801    1.5638   -0.0000 C   0  0  0  0  0  0  0  0  0  0  0  0
   17.7859   -0.0000   -0.0000 C   0  0  0  0  0  0  0  0  0  0  0  0
   19.3874    2.0160   -0.0000 N   0  0  0  0  0  0  0  0  0  0  0  0
   19.2367   -0.5464   -0.0000 N   0  0  0  0  0  0  0  0  0  0  0  0
   20.2541    0.7160   -0.0000 C   0  0  0  0  0  0  0  0  0  0  0  0
  1  2  2  0  0  0  0
  2  3  1  0  0  0  0
  2  4  1  0  0  0  0
  3  5  1  0  0  0  0
  3  6  1  0  0  0  0
  4  7  1  0  0  0  0
  4  8  1  0  0  0  0
  4  9  1  0  0  0  0
  5 10  1  0  0  0  0
  5 11  1  0  0  0  0
  6 12  1  0  0  0  0
  7 13  2  0  0  0  0
  7 14  1  0  0  0  0
 10 15  1  0  0  0  0
 11 16  1  0  0  0  0
 13 17  1  0  0  0  0
 14 18  2  0  0  0  0
 17 19  2  0  0  0  0
 17 20  1  0  0  0  0
 19 21  1  0  0  0  0
 20 22  2  0  0  0  0
 20 23  1  0  0  0  0
 22 24  1  0  0  0  0
 23 25  1  0  0  0  0
 23 26  1  6  0  0  0
 24 27  2  0  0  0  0
 24 28  1  0  0  0  0
 25 29  1  0  0  0  0
 27 30  1  0  0  0  0
 28 31  2  0  0  0  0
 29 32  1  0  0  0  0
 30 33  2  0  0  0  0
 30 34  1  0  0  0  0
 31 35  1  0  0  0  0
 32 36  1  0  0  0  0
 36 37  1  0  0  0  0
 37 38  2  0  0  0  0
 37 39  1  0  0  0  0
 38 40  1  0  0  0  0
 39 41  2  0  0  0  0
 40 42  1  0  0  0  0
 41 43  1  0  0  0  0
 42 44  2  0  0  0  0
 43 45  2  0  0  0  0
 12 15  1  0  0  0  0
 12 16  1  0  0  0  0
 18 19  1  0  0  0  0
 21 22  1  0  0  0  0
 31 33  1  0  0  0  0
 41 42  1  0  0  0  0
 44 45  1  0  0  0  0
M  END
>  <MolRegNo>
280337

>  <m>
=

>  <Value>
4000

>  <Unit>
nM

>  <Type>
IC50

>  <pValue>
5.4

>  <Ligand Efficiency>
0

>  <Binding Efficiency>
0

>  <Surface Efficiency>
0

>  <Assay Index>
51811

>  <Assay Category>


>  <Assay Organism>
Homo sapiens

>  <Target ID>
17045

>  <Target Name>
Cytochrome P450 3A4

>  <Target Organism>
Homo sapiens

>  <Target Description>
Target is a single protein chain

>  <Sequence Accession>
P08684

>  <Reference>
Bioorg Med Chem Lett 12 (5), 827-832 (2002)

>  <Pubmed ID>
11859012

>  <DOI>
10.1016/s0960-894x(02)00026-4

$$$$
281041
Actelion Java MolfileCreator 1.0

 45 51  0  0  1  0  0  0  0  0999 V2000
    0.0000   -0.0000   -0.0000 O   0  0  0  0  0  0  0  0  0  0  0  0
   -0.0379    1.4217   -0.0000 C   0  0  0  0  0  0  0  0  0  0  0  0
   -1.2511    2.1231   -0.0000 N   0  0  0  0  0  0  0  0  0  0  0  0
    1.1374    2.1420   -0.0000 C   0  0  0  0  0  0  0  0  0  0  0  0
   -2.1610    1.0994   -0.0000 C   0  0  0  0  0  0  0  0  0  0  0  0
   -3.6775    0.7393   -0.0000 C   0  0  0  0  0  0  0  0  0  0  0  0
    2.3316    1.4786   -0.0000 C   0  0  0  0  0  0  0  0  0  0  0  0
    1.8198    3.3931   -0.0000 C   0  0  0  0  0  0  0  0  0  0  0  0
    0.1327    3.1467   -0.0000 C   0  0  0  0  0  0  0  0  0  0  0  0
   -3.5258    1.8008   -0.0000 C   0  0  0  0  0  0  0  0  0  0  0  0
   -2.0662   -0.3223   -0.0000 C   0  0  0  0  0  0  0  0  0  0  0  0
   -4.8717    1.5544   -0.0000 C   0  0  0  0  0  0  0  0  0  0  0  0
   -3.5069   -0.5497   -0.0000 C   0  0  0  0  0  0  0  0  0  0  0  0
    3.5069    2.1989   -0.0000 C   0  0  0  0  0  0  0  0  0  0  0  0
    2.3126    0.0948   -0.0000 C   0  0  0  0  0  0  0  0  0  0  0  0
    4.7011    1.5354   -0.0000 C   0  0  0  0  0  0  0  0  0  0  0  0
    3.5069   -0.5687   -0.0000 C   0  0  0  0  0  0  0  0  0  0  0  0
    4.7011    0.1706   -0.0000 C   0  0  0  0  0  0  0  0  0  0  0  0
    7.0895    1.5733   -0.0000 C   0  0  0  0  0  0  0  0  0  0  0  0
    5.8953   -0.4929   -0.0000 N   0  0  0  0  0  0  0  0  0  0  0  0
    7.0706    0.2085   -0.0000 C   0  0  0  0  0  0  0  0  0  0  0  0
    8.4354    2.3885   -0.0000 C   0  0  0  0  0  0  0  0  0  0  0  0
    8.2648   -0.4549   -0.0000 C   0  0  0  0  0  0  0  0  0  0  0  0
    9.7813    1.6113   -0.0000 C   0  0  0  0  0  0  0  0  0  0  0  0
    8.4164    3.9997   -0.0000 C   0  0  0  0  0  0  0  0  0  0  0  0
    8.2648   -1.8198   -0.0000 C   0  0  0  0  0  0  0  0  0  0  0  0
    9.4401    0.2654   -0.0000 C   0  0  0  0  0  0  0  0  0  0  0  0
   11.1461    2.4264   -0.0000 N   0  0  0  0  0  0  0  0  0  0  0  0
    9.4590   -2.4832   -0.0000 C   0  0  0  0  0  0  0  0  0  0  0  0
   10.6343   -0.3981   -0.0000 C   0  0  0  0  0  0  0  0  0  0  0  0
   12.4920    1.6492   -0.0000 C   0  0  0  0  0  0  0  0  0  0  0  0
   10.6343   -1.7629   -0.0000 C   0  0  0  0  0  0  0  0  0  0  0  0
    9.4401   -3.8481   -0.0000 C   0  0  0  0  0  0  0  0  0  0  0  0
   11.8285    0.3412   -0.0000 C   0  0  0  0  0  0  0  0  0  0  0  0
   13.8378    2.4643   -0.0000 C   0  0  0  0  0  0  0  0  0  0  0  0
   15.1837    1.7060   -0.0000 C   0  0  0  0  0  0  0  0  0  0  0  0
   16.5296    2.5211   -0.0000 C   0  0  0  0  0  0  0  0  0  0  0  0
   15.1648    0.1516   -0.0000 C   0  0  0  0  0  0  0  0  0  0  0  0
   17.8755    1.7629   -0.0000 C   0  0  0  0  0  0  0  0  0  0  0  0
   16.4917    4.1134   -0.0000 C   0  0  0  0  0  0  0  0  0  0  0  0
   16.5106   -0.6255   -0.0000 C   0  0  0  0  0  0  0  0  0  0  0  0
   19.2213    2.5591   -0.0000 C   0  0  0  0  0  0  0  0  0  0  0  0
   17.8755    0.1896   -0.0000 C   0  0  0  0  0  0  0  0  0  0  0  0
   17.8376    4.9285   -0.0000 C   0  0  0  0  0  0  0  0  0  0  0  0
   19.2024    4.1514   -0.0000 N   0  0  0  0  0  0  0  0  0  0  0  0
  1  2  2  0  0  0  0
  2  3  1  0  0  0  0
  2  4  1  0  0  0  0
  3  5  1  0  0  0  0
  3  6  1  0  0  0  0
  4  7  1  0  0  0  0
  4  8  1  0  0  0  0
  4  9  1  0  0  0  0
  5 10  1  0  0  0  0
  5 11  1  0  0  0  0
  6 12  1  0  0  0  0
  6 13  1  0  0  0  0
  7 14  2  0  0  0  0
  7 15  1  0  0  0  0
 14 16  1  0  0  0  0
 15 17  2  0  0  0  0
 16 18  2  0  0  0  0
 16 19  1  0  0  0  0
 18 20  1  0  0  0  0
 19 21  2  0  0  0  0
 19 22  1  0  0  0  0
 21 23  1  0  0  0  0
 22 24  1  0  0  0  0
 22 25  1  6  0  0  0
 23 26  2  0  0  0  0
 23 27  1  0  0  0  0
 24 28  1  0  0  0  0
 26 29  1  0  0  0  0
 27 30  2  0  0  0  0
 28 31  1  0  0  0  0
 29 32  2  0  0  0  0
 29 33  1  0  0  0  0
 30 34  1  0  0  0  0
 31 35  1  0  0  0  0
 35 36  1  0  0  0  0
 36 37  1  0  0  0  0
 36 38  2  0  0  0  0
 37 39  1  0  0  0  0
 37 40  2  0  0  0  0
 38 41  1  0  0  0  0
 39 42  2  0  0  0  0
 39 43  1  0  0  0  0
 40 44  1  0  0  0  0
 42 45  1  0  0  0  0
 10 12  1  0  0  0  0
 11 13  1  0  0  0  0
 17 18  1  0  0  0  0
 20 21  1  0  0  0  0
 30 32  1  0  0  0  0
 41 43  2  0  0  0  0
 44 45  2  0  0  0  0
M  END
>  <MolRegNo>
281041

>  <m>
=

>  <Value>
1000

>  <Unit>
nM

>  <Type>
IC50

>  <pValue>
6

>  <Ligand Efficiency>
0

>  <Binding Efficiency>
0

>  <Surface Efficiency>
0

>  <Assay Index>
51812

>  <Assay Category>


>  <Assay Organism>
Homo sapiens

>  <Target ID>
17045

>  <Target Name>
Cytochrome P450 3A4

>  <Target Organism>
Homo sapiens

>  <Target Description>
Target is a single protein chain

>  <Sequence Accession>
P08684

>  <Reference>
Bioorg Med Chem Lett 12 (5), 827-832 (2002)

>  <Pubmed ID>
11859012

>  <DOI>
10.1016/s0960-894x(02)00026-4

$$$$
280297
Actelion Java MolfileCreator 1.0

 45 51  0  0  1  0  0  0  0  0999 V2000
    0.0000   -0.0000   -0.0000 O   0  0  0  0  0  0  0  0  0  0  0  0
   -0.0437    1.4198   -0.0000 C   0  0  0  0  0  0  0  0  0  0  0  0
   -1.2669    2.1188   -0.0000 N   0  0  0  0  0  0  0  0  0  0  0  0
    1.1358    2.1406   -0.0000 C   0  0  0  0  0  0  0  0  0  0  0  0
   -4.0628    2.4246   -0.0000 C   0  0  0  0  0  0  0  0  0  0  0  0
   -2.6212    1.8130   -0.0000 C   0  0  0  0  0  0  0  0  0  0  0  0
    2.3154    1.4853   -0.0000 C   0  0  0  0  0  0  0  0  0  0  0  0
    1.8130    3.3857   -0.0000 C   0  0  0  0  0  0  0  0  0  0  0  0
    0.1092    3.1454   -0.0000 C   0  0  0  0  0  0  0  0  0  0  0  0
   -4.7181    1.2887   -0.0000 C   0  0  0  0  0  0  0  0  0  0  0  0
   -4.5652    3.8007   -0.0000 C   0  0  0  0  0  0  0  0  0  0  0  0
   -3.4075    0.6116   -0.0000 C   0  0  0  0  0  0  0  0  0  0  0  0
   -3.3420    3.1891   -0.0000 C   0  0  0  0  0  0  0  0  0  0  0  0
    3.4949    2.2062   -0.0000 C   0  0  0  0  0  0  0  0  0  0  0  0
    2.3154    0.1092   -0.0000 C   0  0  0  0  0  0  0  0  0  0  0  0
    4.6744    1.5509   -0.0000 C   0  0  0  0  0  0  0  0  0  0  0  0
    3.4949   -0.5461   -0.0000 C   0  0  0  0  0  0  0  0  0  0  0  0
    4.6526    0.1747   -0.0000 C   0  0  0  0  0  0  0  0  0  0  0  0
    7.0553    1.5727   -0.0000 C   0  0  0  0  0  0  0  0  0  0  0  0
    5.8321   -0.5024   -0.0000 N   0  0  0  0  0  0  0  0  0  0  0  0
    7.0553    0.2184   -0.0000 C   0  0  0  0  0  0  0  0  0  0  0  0
    8.4096    2.3809   -0.0000 C   0  0  0  0  0  0  0  0  0  0  0  0
    8.2349   -0.4587   -0.0000 C   0  0  0  0  0  0  0  0  0  0  0  0
    9.7639    1.6164   -0.0000 C   0  0  0  0  0  0  0  0  0  0  0  0
    8.3878    3.9973   -0.0000 C   0  0  0  0  0  0  0  0  0  0  0  0
    8.2130   -1.8130   -0.0000 C   0  0  0  0  0  0  0  0  0  0  0  0
    9.3926    0.2840   -0.0000 C   0  0  0  0  0  0  0  0  0  0  0  0
   11.1182    2.4246   -0.0000 N   0  0  0  0  0  0  0  0  0  0  0  0
    9.3926   -2.4901   -0.0000 C   0  0  0  0  0  0  0  0  0  0  0  0
   10.5721   -0.3713   -0.0000 C   0  0  0  0  0  0  0  0  0  0  0  0
   12.4724    1.6601   -0.0000 C   0  0  0  0  0  0  0  0  0  0  0  0
   10.5721   -1.7475   -0.0000 C   0  0  0  0  0  0  0  0  0  0  0  0
    9.3926   -3.8444   -0.0000 C   0  0  0  0  0  0  0  0  0  0  0  0
   11.7516    0.3495   -0.0000 C   0  0  0  0  0  0  0  0  0  0  0  0
   13.8486    2.4683   -0.0000 C   0  0  0  0  0  0  0  0  0  0  0  0
   15.1810    1.6819   -0.0000 C   0  0  0  0  0  0  0  0  0  0  0  0
   16.5353    2.5120   -0.0000 C   0  0  0  0  0  0  0  0  0  0  0  0
   15.1810    0.1092   -0.0000 C   0  0  0  0  0  0  0  0  0  0  0  0
   17.8896    1.7475   -0.0000 C   0  0  0  0  0  0  0  0  0  0  0  0
   16.5353   -0.6335   -0.0000 C   0  0  0  0  0  0  0  0  0  0  0  0
   19.3967    2.2717   -0.0000 N   0  0  0  0  0  0  0  0  0  0  0  0
   17.8677    0.1966   -0.0000 C   0  0  0  0  0  0  0  0  0  0  0  0
   20.2923    1.0048   -0.0000 C   0  0  0  0  0  0  0  0  0  0  0  0
   19.3530   -0.2621   -0.0000 N   0  0  0  0  0  0  0  0  0  0  0  0
   21.8650    1.0266   -0.0000 C   0  0  0  0  0  0  0  0  0  0  0  0
  1  2  2  0  0  0  0
  2  3  1  0  0  0  0
  2  4  1  0  0  0  0
  3  5  1  0  0  0  0
  3  6  1  0  0  0  0
  4  7  1  0  0  0  0
  4  8  1  0  0  0  0
  4  9  1  0  0  0  0
  5 10  1  0  0  0  0
  5 11  1  0  0  0  0
  6 12  1  0  0  0  0
  6 13  1  0  0  0  0
  7 14  2  0  0  0  0
  7 15  1  0  0  0  0
 14 16  1  0  0  0  0
 15 17  2  0  0  0  0
 16 18  2  0  0  0  0
 16 19  1  0  0  0  0
 18 20  1  0  0  0  0
 19 21  2  0  0  0  0
 19 22  1  0  0  0  0
 21 23  1  0  0  0  0
 22 24  1  0  0  0  0
 22 25  1  6  0  0  0
 23 26  2  0  0  0  0
 23 27  1  0  0  0  0
 24 28  1  0  0  0  0
 26 29  1  0  0  0  0
 27 30  2  0  0  0  0
 28 31  1  0  0  0  0
 29 32  2  0  0  0  0
 29 33  1  0  0  0  0
 30 34  1  0  0  0  0
 31 35  1  0  0  0  0
 35 36  1  0  0  0  0
 36 37  2  0  0  0  0
 36 38  1  0  0  0  0
 37 39  1  0  0  0  0
 38 40  2  0  0  0  0
 39 41  1  0  0  0  0
 39 42  2  0  0  0  0
 41 43  2  0  0  0  0
 42 44  1  0  0  0  0
 43 45  1  0  0  0  0
 10 12  1  0  0  0  0
 11 13  1  0  0  0  0
 17 18  1  0  0  0  0
 20 21  1  0  0  0  0
 30 32  1  0  0  0  0
 40 42  1  0  0  0  0
 43 44  1  0  0  0  0
M  END
>  <MolRegNo>
280297

>  <m>
=

>  <Value>
5000

>  <Unit>
nM

>  <Type>
IC50

>  <pValue>
5.3

>  <Ligand Efficiency>
0

>  <Binding Efficiency>
0

>  <Surface Efficiency>
0

>  <Assay Index>
51811

>  <Assay Category>


>  <Assay Organism>
Homo sapiens

>  <Target ID>
17045

>  <Target Name>
Cytochrome P450 3A4

>  <Target Organism>
Homo sapiens

>  <Target Description>
Target is a single protein chain

>  <Sequence Accession>
P08684

>  <Reference>
Bioorg Med Chem Lett 12 (5), 827-832 (2002)

>  <Pubmed ID>
11859012

>  <DOI>
10.1016/s0960-894x(02)00026-4

$$$$
280210
Actelion Java MolfileCreator 1.0

 45 51  0  0  1  0  0  0  0  0999 V2000
    0.0000   -0.0000   -0.0000 O   0  0  0  0  0  0  0  0  0  0  0  0
   -0.0377    1.4122   -0.0000 C   0  0  0  0  0  0  0  0  0  0  0  0
   -1.2616    2.1089   -0.0000 N   0  0  0  0  0  0  0  0  0  0  0  0
    1.1486    2.1465   -0.0000 C   0  0  0  0  0  0  0  0  0  0  0  0
   -2.8997    3.1068   -0.0000 C   0  0  0  0  0  0  0  0  0  0  0  0
   -0.4519    3.2951   -0.0000 C   0  0  0  0  0  0  0  0  0  0  0  0
    2.3348    1.4875   -0.0000 C   0  0  0  0  0  0  0  0  0  0  0  0
    1.8264    3.3893   -0.0000 C   0  0  0  0  0  0  0  0  0  0  0  0
    0.1318    3.1445   -0.0000 C   0  0  0  0  0  0  0  0  0  0  0  0
   -2.9185    4.5379   -0.0000 C   0  0  0  0  0  0  0  0  0  0  0  0
   -4.6132    2.2219   -0.0000 C   0  0  0  0  0  0  0  0  0  0  0  0
   -2.0712    4.2742   -0.0000 C   0  0  0  0  0  0  0  0  0  0  0  0
    3.5022    2.2030   -0.0000 C   0  0  0  0  0  0  0  0  0  0  0  0
    2.3348    0.1130   -0.0000 C   0  0  0  0  0  0  0  0  0  0  0  0
   -2.0901    5.4040   -0.0000 C   0  0  0  0  0  0  0  0  0  0  0  0
   -3.8412    3.4834   -0.0000 C   0  0  0  0  0  0  0  0  0  0  0  0
    4.6885    1.5440   -0.0000 C   0  0  0  0  0  0  0  0  0  0  0  0
    3.5211   -0.5460   -0.0000 C   0  0  0  0  0  0  0  0  0  0  0  0
    4.6697    0.1695   -0.0000 C   0  0  0  0  0  0  0  0  0  0  0  0
    7.0610    1.5628   -0.0000 C   0  0  0  0  0  0  0  0  0  0  0  0
    5.8559   -0.5084   -0.0000 N   0  0  0  0  0  0  0  0  0  0  0  0
    7.0610    0.2071   -0.0000 C   0  0  0  0  0  0  0  0  0  0  0  0
    8.4167    2.3725   -0.0000 C   0  0  0  0  0  0  0  0  0  0  0  0
    8.2472   -0.4707   -0.0000 C   0  0  0  0  0  0  0  0  0  0  0  0
    9.7724    1.6005   -0.0000 C   0  0  0  0  0  0  0  0  0  0  0  0
    8.3979    3.9730   -0.0000 C   0  0  0  0  0  0  0  0  0  0  0  0
    9.4146    0.2636   -0.0000 C   0  0  0  0  0  0  0  0  0  0  0  0
    8.2284   -1.8264   -0.0000 C   0  0  0  0  0  0  0  0  0  0  0  0
   11.1281    2.4101   -0.0000 N   0  0  0  0  0  0  0  0  0  0  0  0
   10.6009   -0.3954   -0.0000 C   0  0  0  0  0  0  0  0  0  0  0  0
    9.4146   -2.5043   -0.0000 C   0  0  0  0  0  0  0  0  0  0  0  0
   12.4838    1.6381   -0.0000 C   0  0  0  0  0  0  0  0  0  0  0  0
   10.6009   -1.7700   -0.0000 C   0  0  0  0  0  0  0  0  0  0  0  0
   11.7871    0.3389   -0.0000 C   0  0  0  0  0  0  0  0  0  0  0  0
    9.4146   -3.8600   -0.0000 C   0  0  0  0  0  0  0  0  0  0  0  0
   13.8584    2.4478   -0.0000 C   0  0  0  0  0  0  0  0  0  0  0  0
   15.1952    1.6570   -0.0000 C   0  0  0  0  0  0  0  0  0  0  0  0
   16.5509    2.4855   -0.0000 C   0  0  0  0  0  0  0  0  0  0  0  0
   15.1952    0.0941   -0.0000 C   0  0  0  0  0  0  0  0  0  0  0  0
   17.9067    1.7135   -0.0000 C   0  0  0  0  0  0  0  0  0  0  0  0
   16.5509   -0.6590   -0.0000 C   0  0  0  0  0  0  0  0  0  0  0  0
   19.4130    2.2219   -0.0000 N   0  0  0  0  0  0  0  0  0  0  0  0
   17.8878    0.1506   -0.0000 C   0  0  0  0  0  0  0  0  0  0  0  0
   20.3168    0.9603   -0.0000 N   0  0  0  0  0  0  0  0  0  0  0  0
   19.3753   -0.3201   -0.0000 N   0  0  0  0  0  0  0  0  0  0  0  0
  1  2  2  0  0  0  0
  2  3  1  0  0  0  0
  2  4  1  0  0  0  0
  3  5  1  0  0  0  0
  3  6  1  0  0  0  0
  4  7  1  0  0  0  0
  4  8  1  0  0  0  0
  4  9  1  0  0  0  0
  5 10  1  0  0  0  0
  5 11  1  0  0  0  0
  6 12  1  0  0  0  0
  7 13  2  0  0  0  0
  7 14  1  0  0  0  0
 10 15  1  0  0  0  0
 11 16  1  0  0  0  0
 13 17  1  0  0  0  0
 14 18  2  0  0  0  0
 17 19  2  0  0  0  0
 17 20  1  0  0  0  0
 19 21  1  0  0  0  0
 20 22  2  0  0  0  0
 20 23  1  0  0  0  0
 22 24  1  0  0  0  0
 23 25  1  0  0  0  0
 23 26  1  6  0  0  0
 24 27  2  0  0  0  0
 24 28  1  0  0  0  0
 25 29  1  0  0  0  0
 27 30  1  0  0  0  0
 28 31  2  0  0  0  0
 29 32  1  0  0  0  0
 30 33  2  0  0  0  0
 30 34  1  0  0  0  0
 31 35  1  0  0  0  0
 32 36  1  0  0  0  0
 36 37  1  0  0  0  0
 37 38  2  0  0  0  0
 37 39  1  0  0  0  0
 38 40  1  0  0  0  0
 39 41  2  0  0  0  0
 40 42  1  0  0  0  0
 40 43  2  0  0  0  0
 42 44  2  0  0  0  0
 43 45  1  0  0  0  0
 12 15  1  0  0  0  0
 12 16  1  0  0  0  0
 18 19  1  0  0  0  0
 21 22  1  0  0  0  0
 31 33  1  0  0  0  0
 41 43  1  0  0  0  0
 44 45  1  0  0  0  0
M  END
>  <MolRegNo>
280210

>  <m>
=

>  <Value>
7500

>  <Unit>
nM

>  <Type>
IC50

>  <pValue>
5.12

>  <Ligand Efficiency>
0

>  <Binding Efficiency>
0

>  <Surface Efficiency>
0

>  <Assay Index>
51811

>  <Assay Category>


>  <Assay Organism>
Homo sapiens

>  <Target ID>
17045

>  <Target Name>
Cytochrome P450 3A4

>  <Target Organism>
Homo sapiens

>  <Target Description>
Target is a single protein chain

>  <Sequence Accession>
P08684

>  <Reference>
Bioorg Med Chem Lett 12 (5), 827-832 (2002)

>  <Pubmed ID>
11859012

>  <DOI>
10.1016/s0960-894x(02)00026-4

$$$$
280738
Actelion Java MolfileCreator 1.0

 45 51  0  0  1  0  0  0  0  0999 V2000
    0.0000   -0.0000   -0.0000 O   0  0  0  0  0  0  0  0  0  0  0  0
   -0.7553    1.3023   -0.0000 C   0  0  0  0  0  0  0  0  0  0  0  0
   -2.2530    1.3153   -0.0000 N   0  0  0  0  0  0  0  0  0  0  0  0
   -0.0260    2.6177   -0.0000 C   0  0  0  0  0  0  0  0  0  0  0  0
   -3.9200    0.4167   -0.0000 C   0  0  0  0  0  0  0  0  0  0  0  0
   -3.0083    2.6177   -0.0000 C   0  0  0  0  0  0  0  0  0  0  0  0
    1.2632    1.8884   -0.0000 C   0  0  0  0  0  0  0  0  0  0  0  0
   -1.3284    3.3730   -0.0000 C   0  0  0  0  0  0  0  0  0  0  0  0
    0.7032    3.9200   -0.0000 C   0  0  0  0  0  0  0  0  0  0  0  0
   -5.2223    1.1721   -0.0000 C   0  0  0  0  0  0  0  0  0  0  0  0
   -3.9330   -1.0679   -0.0000 C   0  0  0  0  0  0  0  0  0  0  0  0
   -4.3107    1.8753   -0.0000 C   0  0  0  0  0  0  0  0  0  0  0  0
    2.5395    2.6437   -0.0000 C   0  0  0  0  0  0  0  0  0  0  0  0
    1.2502    0.4167   -0.0000 C   0  0  0  0  0  0  0  0  0  0  0  0
   -5.6390    2.6307   -0.0000 C   0  0  0  0  0  0  0  0  0  0  0  0
   -4.6883    0.2344   -0.0000 C   0  0  0  0  0  0  0  0  0  0  0  0
    3.8158    1.9144   -0.0000 C   0  0  0  0  0  0  0  0  0  0  0  0
    2.5265   -0.3126   -0.0000 C   0  0  0  0  0  0  0  0  0  0  0  0
    3.8028    0.4428   -0.0000 C   0  0  0  0  0  0  0  0  0  0  0  0
    5.2223    2.3832   -0.0000 C   0  0  0  0  0  0  0  0  0  0  0  0
    5.2093   -0.0130   -0.0000 N   0  0  0  0  0  0  0  0  0  0  0  0
    6.0818    1.1851   -0.0000 C   0  0  0  0  0  0  0  0  0  0  0  0
    5.6651    3.8158   -0.0000 C   0  0  0  0  0  0  0  0  0  0  0  0
    7.5404    1.0419   -0.0000 C   0  0  0  0  0  0  0  0  0  0  0  0
    7.1106    4.1414   -0.0000 C   0  0  0  0  0  0  0  0  0  0  0  0
    4.6623    4.9358   -0.0000 C   0  0  0  0  0  0  0  0  0  0  0  0
    8.1395   -0.2995   -0.0000 C   0  0  0  0  0  0  0  0  0  0  0  0
    8.4130    2.2660   -0.0000 C   0  0  0  0  0  0  0  0  0  0  0  0
    7.5534    5.5739   -0.0000 N   0  0  0  0  0  0  0  0  0  0  0  0
    9.6111   -0.4428   -0.0000 C   0  0  0  0  0  0  0  0  0  0  0  0
    9.8846    2.1228   -0.0000 C   0  0  0  0  0  0  0  0  0  0  0  0
    8.9860    5.8995   -0.0000 C   0  0  0  0  0  0  0  0  0  0  0  0
   10.4836    0.7944   -0.0000 C   0  0  0  0  0  0  0  0  0  0  0  0
   10.1971   -1.8102   -0.0000 C   0  0  0  0  0  0  0  0  0  0  0  0
   10.7571    3.3600   -0.0000 C   0  0  0  0  0  0  0  0  0  0  0  0
    9.4418    7.3320   -0.0000 C   0  0  0  0  0  0  0  0  0  0  0  0
   10.8743    7.6576   -0.0000 C   0  0  0  0  0  0  0  0  0  0  0  0
   11.3171    9.0902   -0.0000 C   0  0  0  0  0  0  0  0  0  0  0  0
   11.8511    6.5637   -0.0000 C   0  0  0  0  0  0  0  0  0  0  0  0
   12.7627    9.4157   -0.0000 C   0  0  0  0  0  0  0  0  0  0  0  0
   13.2966    6.8892   -0.0000 C   0  0  0  0  0  0  0  0  0  0  0  0
   13.4790   10.7180   -0.0000 N   0  0  0  0  0  0  0  0  0  0  0  0
   13.7524    8.3218   -0.0000 C   0  0  0  0  0  0  0  0  0  0  0  0
   14.9375   10.4185   -0.0000 C   0  0  0  0  0  0  0  0  0  0  0  0
   15.0808    8.9469   -0.0000 N   0  0  0  0  0  0  0  0  0  0  0  0
  1  2  2  0  0  0  0
  2  3  1  0  0  0  0
  2  4  1  0  0  0  0
  3  5  1  0  0  0  0
  3  6  1  0  0  0  0
  4  7  1  0  0  0  0
  4  8  1  0  0  0  0
  4  9  1  0  0  0  0
  5 10  1  0  0  0  0
  5 11  1  0  0  0  0
  6 12  1  0  0  0  0
  7 13  2  0  0  0  0
  7 14  1  0  0  0  0
 10 15  1  0  0  0  0
 11 16  1  0  0  0  0
 13 17  1  0  0  0  0
 14 18  2  0  0  0  0
 17 19  2  0  0  0  0
 17 20  1  0  0  0  0
 19 21  1  0  0  0  0
 20 22  2  0  0  0  0
 20 23  1  0  0  0  0
 22 24  1  0  0  0  0
 23 25  1  0  0  0  0
 23 26  1  6  0  0  0
 24 27  2  0  0  0  0
 24 28  1  0  0  0  0
 25 29  1  0  0  0  0
 27 30  1  0  0  0  0
 28 31  2  0  0  0  0
 29 32  1  0  0  0  0
 30 33  2  0  0  0  0
 30 34  1  0  0  0  0
 31 35  1  0  0  0  0
 32 36  1  0  0  0  0
 36 37  1  0  0  0  0
 37 38  2  0  0  0  0
 37 39  1  0  0  0  0
 38 40  1  0  0  0  0
 39 41  2  0  0  0  0
 40 42  1  0  0  0  0
 40 43  2  0  0  0  0
 42 44  2  0  0  0  0
 43 45  1  0  0  0  0
 12 15  1  0  0  0  0
 12 16  1  0  0  0  0
 18 19  1  0  0  0  0
 21 22  1  0  0  0  0
 31 33  1  0  0  0  0
 41 43  1  0  0  0  0
 44 45  1  0  0  0  0
M  END
>  <MolRegNo>
280738

>  <m>
=

>  <Value>
100

>  <Unit>
nM

>  <Type>
IC50

>  <pValue>
7

>  <Ligand Efficiency>
0

>  <Binding Efficiency>
0

>  <Surface Efficiency>
0

>  <Assay Index>
51811

>  <Assay Category>


>  <Assay Organism>
Homo sapiens

>  <Target ID>
17045

>  <Target Name>
Cytochrome P450 3A4

>  <Target Organism>
Homo sapiens

>  <Target Description>
Target is a single protein chain

>  <Sequence Accession>
P08684

>  <Reference>
Bioorg Med Chem Lett 12 (5), 827-832 (2002)

>  <Pubmed ID>
11859012

>  <DOI>
10.1016/s0960-894x(02)00026-4

$$$$
2038626
Actelion Java MolfileCreator 1.0

 54 59  0  0  1  0  0  0  0  0999 V2000
    0.0000   -0.0000   -0.0000 F   0  0  0  0  0  0  0  0  0  0  0  0
    1.2917   -0.7347   -0.0000 C   0  0  0  0  0  0  0  0  0  0  0  0
    2.0265    0.5807   -0.0000 F   0  0  0  0  0  0  0  0  0  0  0  0
    0.5333   -2.0265   -0.0000 F   0  0  0  0  0  0  0  0  0  0  0  0
    2.5835   -1.4813   -0.0000 C   0  0  0  0  0  0  0  0  0  0  0  0
    2.5716   -2.9745   -0.0000 N   0  0  0  0  0  0  0  0  0  0  0  0
    3.8633   -3.7093   -0.0000 C   0  0  0  0  0  0  0  0  0  0  0  0
    3.8515   -5.2025   -0.0000 O   0  0  0  0  0  0  0  0  0  0  0  0
    5.1551   -2.9508   -0.0000 C   0  0  0  0  0  0  0  0  0  0  0  0
    6.4468   -3.6856   -0.0000 N   0  0  0  0  0  0  0  0  0  0  0  0
    5.1432   -1.4339   -0.0000 C   0  0  0  0  0  0  0  0  0  0  0  0
    7.7385   -2.9271   -0.0000 C   0  0  0  0  0  0  0  0  0  0  0  0
    6.4350   -5.1788   -0.0000 C   0  0  0  0  0  0  0  0  0  0  0  0
    6.4350   -0.6755   -0.0000 N   0  0  0  0  0  0  0  0  0  0  0  0
    7.7267   -1.4102   -0.0000 C   0  0  0  0  0  0  0  0  0  0  0  0
    7.7267   -5.9135   -0.0000 C   0  0  0  0  0  0  0  0  0  0  0  0
    6.4231    0.8414   -0.0000 C   0  0  0  0  0  0  0  0  0  0  0  0
    9.0184   -5.1551   -0.0000 O   0  0  0  0  0  0  0  0  0  0  0  0
    7.7148   -7.4067   -0.0000 C   0  0  0  0  0  0  0  0  0  0  0  0
    6.4113    2.3583   -0.0000 C   0  0  0  0  0  0  0  0  0  0  0  0
    4.9062    0.8533   -0.0000 C   0  0  0  0  0  0  0  0  0  0  0  0
    7.9163    0.8533   -0.0000 C   0  0  0  0  0  0  0  0  0  0  0  0
    9.0066   -8.1415   -0.0000 C   0  0  0  0  0  0  0  0  0  0  0  0
    7.6200    3.2590   -0.0000 O   0  0  0  0  0  0  0  0  0  0  0  0
    5.1788    3.2590   -0.0000 C   0  0  0  0  0  0  0  0  0  0  0  0
    8.9947   -9.6347   -0.0000 C   0  0  0  0  0  0  0  0  0  0  0  0
   10.2983   -7.3830   -0.0000 C   0  0  0  0  0  0  0  0  0  0  0  0
    7.1460    4.7048   -0.0000 C   0  0  0  0  0  0  0  0  0  0  0  0
    5.6291    4.7048   -0.0000 C   0  0  0  0  0  0  0  0  0  0  0  0
    7.6793  -10.3813   -0.0000 O   0  0  0  0  0  0  0  0  0  0  0  0
   10.2865  -10.3813   -0.0000 N   0  0  0  0  0  0  0  0  0  0  0  0
   11.5900   -8.1178   -0.0000 C   0  0  0  0  0  0  0  0  0  0  0  0
    8.0230    5.9372   -0.0000 C   0  0  0  0  0  0  0  0  0  0  0  0
   10.2746  -11.8745   -0.0000 C   0  0  0  0  0  0  0  0  0  0  0  0
   11.5782   -9.6110   -0.0000 C   0  0  0  0  0  0  0  0  0  0  0  0
   12.8818   -7.3593   -0.0000 C   0  0  0  0  0  0  0  0  0  0  0  0
    7.3949    7.3238   -0.0000 C   0  0  0  0  0  0  0  0  0  0  0  0
    9.5043    5.7950   -0.0000 C   0  0  0  0  0  0  0  0  0  0  0  0
   11.5663  -12.6092   -0.0000 C   0  0  0  0  0  0  0  0  0  0  0  0
    8.9592  -12.6092   -0.0000 C   0  0  0  0  0  0  0  0  0  0  0  0
   12.8699  -10.3576   -0.0000 C   0  0  0  0  0  0  0  0  0  0  0  0
   14.1735   -8.0941   -0.0000 C   0  0  0  0  0  0  0  0  0  0  0  0
    8.2718    8.5562   -0.0000 C   0  0  0  0  0  0  0  0  0  0  0  0
   10.3813    7.0275   -0.0000 C   0  0  0  0  0  0  0  0  0  0  0  0
   11.5545  -14.1024   -0.0000 C   0  0  0  0  0  0  0  0  0  0  0  0
   12.8581  -11.8508   -0.0000 C   0  0  0  0  0  0  0  0  0  0  0  0
    7.6437  -11.8508   -0.0000 O   0  0  0  0  0  0  0  0  0  0  0  0
    8.9473  -14.1024   -0.0000 C   0  0  0  0  0  0  0  0  0  0  0  0
   14.1617   -9.5991   -0.0000 C   0  0  0  0  0  0  0  0  0  0  0  0
    9.7532    8.4140   -0.0000 N   0  0  0  0  0  0  0  0  0  0  0  0
   10.2391  -14.8371   -0.0000 O   0  0  0  0  0  0  0  0  0  0  0  0
   12.8462  -14.8371   -0.0000 C   0  0  0  0  0  0  0  0  0  0  0  0
   14.1498  -12.5855   -0.0000 C   0  0  0  0  0  0  0  0  0  0  0  0
   14.1380  -14.0787   -0.0000 C   0  0  0  0  0  0  0  0  0  0  0  0
  1  2  1  0  0  0  0
  2  3  1  0  0  0  0
  2  4  1  0  0  0  0
  2  5  1  0  0  0  0
  5  6  1  0  0  0  0
  6  7  1  0  0  0  0
  7  8  2  0  0  0  0
  9  7  1  6  0  0  0
  9 10  1  0  0  0  0
  9 11  1  0  0  0  0
 10 12  1  0  0  0  0
 10 13  1  0  0  0  0
 11 14  1  0  0  0  0
 12 15  1  0  0  0  0
 13 16  1  0  0  0  0
 14 17  1  0  0  0  0
 16 18  1  1  0  0  0
 16 19  1  0  0  0  0
 17 20  1  0  0  0  0
 17 21  1  0  0  0  0
 17 22  1  0  0  0  0
 23 19  1  1  0  0  0
 20 24  1  0  0  0  0
 20 25  2  0  0  0  0
 23 26  1  0  0  0  0
 23 27  1  0  0  0  0
 24 28  1  0  0  0  0
 25 29  1  0  0  0  0
 26 30  2  0  0  0  0
 26 31  1  0  0  0  0
 27 32  1  0  0  0  0
 28 33  1  0  0  0  0
 34 31  1  1  0  0  0
 32 35  2  0  0  0  0
 32 36  1  0  0  0  0
 33 37  2  0  0  0  0
 33 38  1  0  0  0  0
 34 39  1  0  0  0  0
 34 40  1  0  0  0  0
 35 41  1  0  0  0  0
 36 42  2  0  0  0  0
 37 43  1  0  0  0  0
 38 44  2  0  0  0  0
 39 45  2  0  0  0  0
 39 46  1  0  0  0  0
 40 47  1  1  0  0  0
 40 48  1  0  0  0  0
 41 49  2  0  0  0  0
 43 50  2  0  0  0  0
 45 51  1  0  0  0  0
 45 52  1  0  0  0  0
 46 53  2  0  0  0  0
 52 54  2  0  0  0  0
 14 15  1  0  0  0  0
 28 29  2  0  0  0  0
 42 49  1  0  0  0  0
 44 50  1  0  0  0  0
 48 51  1  0  0  0  0
 53 54  1  0  0  0  0
M  END
>  <MolRegNo>
2038626

>  <m>
=

>  <Value>
10

>  <Unit>
nM

>  <Type>
IC50

>  <pValue>
8

>  <Ligand Efficiency>
0

>  <Binding Efficiency>
0

>  <Surface Efficiency>
0

>  <Assay Index>
51817

>  <Assay Category>


>  <Assay Organism>
Homo sapiens

>  <Target ID>
17045

>  <Target Name>
Cytochrome P450 3A4

>  <Target Organism>
Homo sapiens

>  <Target Description>
Target is a single protein chain

>  <Sequence Accession>
P08684

>  <Reference>
Bioorg Med Chem Lett 13 (15), 2569-2572 (2003)

>  <Pubmed ID>
12852968

>  <DOI>
10.1016/s0960-894x(03)00475-x

$$$$
280567
Actelion Java MolfileCreator 1.0

 44 50  0  0  1  0  0  0  0  0999 V2000
    0.0000   -0.0000   -0.0000 O   0  0  0  0  0  0  0  0  0  0  0  0
   -0.0194    1.3957   -0.0000 C   0  0  0  0  0  0  0  0  0  0  0  0
   -1.2407    2.1130   -0.0000 N   0  0  0  0  0  0  0  0  0  0  0  0
    1.1437    2.1324   -0.0000 C   0  0  0  0  0  0  0  0  0  0  0  0
   -2.1905    1.1244   -0.0000 C   0  0  0  0  0  0  0  0  0  0  0  0
   -3.7220    0.8142   -0.0000 C   0  0  0  0  0  0  0  0  0  0  0  0
    2.3262    1.4539   -0.0000 C   0  0  0  0  0  0  0  0  0  0  0  0
    1.8222    3.3731   -0.0000 C   0  0  0  0  0  0  0  0  0  0  0  0
    0.1357    3.1404   -0.0000 C   0  0  0  0  0  0  0  0  0  0  0  0
   -3.5281    1.8610   -0.0000 C   0  0  0  0  0  0  0  0  0  0  0  0
   -2.1324   -0.3102   -0.0000 C   0  0  0  0  0  0  0  0  0  0  0  0
   -4.9045    1.6865   -0.0000 C   0  0  0  0  0  0  0  0  0  0  0  0
   -3.6057   -0.4846   -0.0000 C   0  0  0  0  0  0  0  0  0  0  0  0
    3.5088    2.1712   -0.0000 C   0  0  0  0  0  0  0  0  0  0  0  0
    2.3262    0.0775   -0.0000 C   0  0  0  0  0  0  0  0  0  0  0  0
    4.6913    1.5121   -0.0000 C   0  0  0  0  0  0  0  0  0  0  0  0
    3.5088   -0.5816   -0.0000 C   0  0  0  0  0  0  0  0  0  0  0  0
    4.6719    0.1551   -0.0000 C   0  0  0  0  0  0  0  0  0  0  0  0
    7.0757    1.5508   -0.0000 C   0  0  0  0  0  0  0  0  0  0  0  0
    5.8544   -0.5234   -0.0000 N   0  0  0  0  0  0  0  0  0  0  0  0
    7.0563    0.1745   -0.0000 C   0  0  0  0  0  0  0  0  0  0  0  0
    8.4133    2.3650   -0.0000 C   0  0  0  0  0  0  0  0  0  0  0  0
    8.2388   -0.4846   -0.0000 C   0  0  0  0  0  0  0  0  0  0  0  0
    9.7702    1.5896   -0.0000 C   0  0  0  0  0  0  0  0  0  0  0  0
    8.3939    3.9740   -0.0000 C   0  0  0  0  0  0  0  0  0  0  0  0
    9.4019    0.2326   -0.0000 C   0  0  0  0  0  0  0  0  0  0  0  0
    8.2194   -1.8610   -0.0000 C   0  0  0  0  0  0  0  0  0  0  0  0
   11.1466    2.4038   -0.0000 N   0  0  0  0  0  0  0  0  0  0  0  0
   10.6038   -0.4265   -0.0000 C   0  0  0  0  0  0  0  0  0  0  0  0
    9.4213   -2.5201   -0.0000 C   0  0  0  0  0  0  0  0  0  0  0  0
   12.5036    1.6284   -0.0000 C   0  0  0  0  0  0  0  0  0  0  0  0
   10.5844   -1.8028   -0.0000 C   0  0  0  0  0  0  0  0  0  0  0  0
   11.7863    0.3102   -0.0000 C   0  0  0  0  0  0  0  0  0  0  0  0
    9.4019   -3.8965   -0.0000 C   0  0  0  0  0  0  0  0  0  0  0  0
   13.8605    2.4426   -0.0000 C   0  0  0  0  0  0  0  0  0  0  0  0
   15.2175    1.6478   -0.0000 C   0  0  0  0  0  0  0  0  0  0  0  0
   16.5745    2.4813   -0.0000 C   0  0  0  0  0  0  0  0  0  0  0  0
   15.1981    0.0775   -0.0000 C   0  0  0  0  0  0  0  0  0  0  0  0
   17.9315    1.7059   -0.0000 C   0  0  0  0  0  0  0  0  0  0  0  0
   16.5551   -0.6785   -0.0000 C   0  0  0  0  0  0  0  0  0  0  0  0
   19.4241    2.2099   -0.0000 O   0  0  0  0  0  0  0  0  0  0  0  0
   17.9121    0.1357   -0.0000 C   0  0  0  0  0  0  0  0  0  0  0  0
   20.3353    0.9499   -0.0000 C   0  0  0  0  0  0  0  0  0  0  0  0
   19.4048   -0.3296   -0.0000 N   0  0  0  0  0  0  0  0  0  0  0  0
  1  2  2  0  0  0  0
  2  3  1  0  0  0  0
  2  4  1  0  0  0  0
  3  5  1  0  0  0  0
  3  6  1  0  0  0  0
  4  7  1  0  0  0  0
  4  8  1  0  0  0  0
  4  9  1  0  0  0  0
  5 10  1  0  0  0  0
  5 11  1  0  0  0  0
  6 12  1  0  0  0  0
  6 13  1  0  0  0  0
  7 14  2  0  0  0  0
  7 15  1  0  0  0  0
 14 16  1  0  0  0  0
 15 17  2  0  0  0  0
 16 18  2  0  0  0  0
 16 19  1  0  0  0  0
 18 20  1  0  0  0  0
 19 21  2  0  0  0  0
 19 22  1  0  0  0  0
 21 23  1  0  0  0  0
 22 24  1  0  0  0  0
 22 25  1  6  0  0  0
 23 26  2  0  0  0  0
 23 27  1  0  0  0  0
 24 28  1  0  0  0  0
 26 29  1  0  0  0  0
 27 30  2  0  0  0  0
 28 31  1  0  0  0  0
 29 32  2  0  0  0  0
 29 33  1  0  0  0  0
 30 34  1  0  0  0  0
 31 35  1  0  0  0  0
 35 36  1  0  0  0  0
 36 37  2  0  0  0  0
 36 38  1  0  0  0  0
 37 39  1  0  0  0  0
 38 40  2  0  0  0  0
 39 41  1  0  0  0  0
 39 42  2  0  0  0  0
 41 43  1  0  0  0  0
 42 44  1  0  0  0  0
 10 12  1  0  0  0  0
 11 13  1  0  0  0  0
 17 18  1  0  0  0  0
 20 21  1  0  0  0  0
 30 32  1  0  0  0  0
 40 42  1  0  0  0  0
 43 44  2  0  0  0  0
M  END
>  <MolRegNo>
280567

>  <m>
=

>  <Value>
1000

>  <Unit>
nM

>  <Type>
IC50

>  <pValue>
6

>  <Ligand Efficiency>
0

>  <Binding Efficiency>
0

>  <Surface Efficiency>
0

>  <Assay Index>
51812

>  <Assay Category>


>  <Assay Organism>
Homo sapiens

>  <Target ID>
17045

>  <Target Name>
Cytochrome P450 3A4

>  <Target Organism>
Homo sapiens

>  <Target Description>
Target is a single protein chain

>  <Sequence Accession>
P08684

>  <Reference>
Bioorg Med Chem Lett 12 (5), 827-832 (2002)

>  <Pubmed ID>
11859012

>  <DOI>
10.1016/s0960-894x(02)00026-4

$$$$
185868
Actelion Java MolfileCreator 1.0

 52 57  0  0  1  0  0  0  0  0999 V2000
    0.0000   -0.0000   -0.0000 F   0  0  0  0  0  0  0  0  0  0  0  0
    0.2434    1.5577   -0.0000 C   0  0  0  0  0  0  0  0  0  0  0  0
   -0.9492    0.8884   -0.0000 F   0  0  0  0  0  0  0  0  0  0  0  0
   -1.2291    2.1297   -0.0000 F   0  0  0  0  0  0  0  0  0  0  0  0
    1.5456    2.3244   -0.0000 C   0  0  0  0  0  0  0  0  0  0  0  0
    1.5334    3.8335   -0.0000 N   0  0  0  0  0  0  0  0  0  0  0  0
    0.2069    4.6002   -0.0000 C   0  0  0  0  0  0  0  0  0  0  0  0
   -1.0953    3.8578   -0.0000 O   0  0  0  0  0  0  0  0  0  0  0  0
    0.1947    6.1092   -0.0000 C   0  0  0  0  0  0  0  0  0  0  0  0
    1.4725    6.8759   -0.0000 N   0  0  0  0  0  0  0  0  0  0  0  0
   -1.0953    6.8759   -0.0000 C   0  0  0  0  0  0  0  0  0  0  0  0
    1.4604    8.3850   -0.0000 C   0  0  0  0  0  0  0  0  0  0  0  0
    2.7747    6.1336   -0.0000 C   0  0  0  0  0  0  0  0  0  0  0  0
   -1.1074    8.3850   -0.0000 N   0  0  0  0  0  0  0  0  0  0  0  0
    0.1582    9.1517   -0.0000 C   0  0  0  0  0  0  0  0  0  0  0  0
    4.0525    6.9003   -0.0000 C   0  0  0  0  0  0  0  0  0  0  0  0
   -2.4340    9.1517   -0.0000 C   0  0  0  0  0  0  0  0  0  0  0  0
    4.0404    8.4093   -0.0000 O   0  0  0  0  0  0  0  0  0  0  0  0
    5.3304    6.1579   -0.0000 C   0  0  0  0  0  0  0  0  0  0  0  0
   -3.7361    8.4093   -0.0000 C   0  0  0  0  0  0  0  0  0  0  0  0
    6.6082    6.9124   -0.0000 C   0  0  0  0  0  0  0  0  0  0  0  0
   -3.9065    6.9246   -0.0000 O   0  0  0  0  0  0  0  0  0  0  0  0
   -5.1113    9.0300   -0.0000 C   0  0  0  0  0  0  0  0  0  0  0  0
    7.8860    6.1701   -0.0000 C   0  0  0  0  0  0  0  0  0  0  0  0
    6.5960    8.4215   -0.0000 C   0  0  0  0  0  0  0  0  0  0  0  0
   -5.3790    6.6203   -0.0000 C   0  0  0  0  0  0  0  0  0  0  0  0
   -6.1457    7.9103   -0.0000 C   0  0  0  0  0  0  0  0  0  0  0  0
    7.8738    4.6854   -0.0000 O   0  0  0  0  0  0  0  0  0  0  0  0
    9.1638    6.9368   -0.0000 N   0  0  0  0  0  0  0  0  0  0  0  0
    5.5129    9.5046   -0.0000 C   0  0  0  0  0  0  0  0  0  0  0  0
   -5.9997    5.2695   -0.0000 C   0  0  0  0  0  0  0  0  0  0  0  0
   10.4417    6.1944   -0.0000 C   0  0  0  0  0  0  0  0  0  0  0  0
    4.0404    9.1273   -0.0000 C   0  0  0  0  0  0  0  0  0  0  0  0
    5.8902   10.9893   -0.0000 C   0  0  0  0  0  0  0  0  0  0  0  0
   -7.5087    5.1235   -0.0000 C   0  0  0  0  0  0  0  0  0  0  0  0
   -5.1235    4.0769   -0.0000 C   0  0  0  0  0  0  0  0  0  0  0  0
   10.4295    4.7097   -0.0000 C   0  0  0  0  0  0  0  0  0  0  0  0
   11.7195    6.9368   -0.0000 C   0  0  0  0  0  0  0  0  0  0  0  0
    2.9329   10.2104   -0.0000 C   0  0  0  0  0  0  0  0  0  0  0  0
    4.8071   12.0724   -0.0000 C   0  0  0  0  0  0  0  0  0  0  0  0
   -8.1172    3.7726   -0.0000 C   0  0  0  0  0  0  0  0  0  0  0  0
   -5.7320    2.7260   -0.0000 C   0  0  0  0  0  0  0  0  0  0  0  0
   11.7073    3.9552   -0.0000 C   0  0  0  0  0  0  0  0  0  0  0  0
    9.1273    3.9795   -0.0000 C   0  0  0  0  0  0  0  0  0  0  0  0
   11.7073    8.4458   -0.0000 O   0  0  0  0  0  0  0  0  0  0  0  0
   12.9973    6.1944   -0.0000 C   0  0  0  0  0  0  0  0  0  0  0  0
    3.3345   11.7195   -0.0000 C   0  0  0  0  0  0  0  0  0  0  0  0
   -7.2410    2.5678   -0.0000 N   0  0  0  0  0  0  0  0  0  0  0  0
   12.9851    4.7219   -0.0000 O   0  0  0  0  0  0  0  0  0  0  0  0
   11.6708    2.4948   -0.0000 C   0  0  0  0  0  0  0  0  0  0  0  0
    9.1152    2.5070   -0.0000 C   0  0  0  0  0  0  0  0  0  0  0  0
   10.3808    1.7768   -0.0000 C   0  0  0  0  0  0  0  0  0  0  0  0
  1  2  1  0  0  0  0
  2  3  1  0  0  0  0
  2  4  1  0  0  0  0
  2  5  1  0  0  0  0
  5  6  1  0  0  0  0
  6  7  1  0  0  0  0
  7  8  2  0  0  0  0
  9  7  1  6  0  0  0
  9 10  1  0  0  0  0
  9 11  1  0  0  0  0
 10 12  1  0  0  0  0
 10 13  1  0  0  0  0
 11 14  1  0  0  0  0
 12 15  1  0  0  0  0
 13 16  1  0  0  0  0
 14 17  1  0  0  0  0
 16 18  1  1  0  0  0
 16 19  1  0  0  0  0
 17 20  1  0  0  0  0
 21 19  1  1  0  0  0
 20 22  1  0  0  0  0
 20 23  2  0  0  0  0
 21 24  1  0  0  0  0
 21 25  1  0  0  0  0
 22 26  1  0  0  0  0
 23 27  1  0  0  0  0
 24 28  2  0  0  0  0
 24 29  1  0  0  0  0
 25 30  1  0  0  0  0
 26 31  1  0  0  0  0
 32 29  1  6  0  0  0
 30 33  2  0  0  0  0
 30 34  1  0  0  0  0
 31 35  2  0  0  0  0
 31 36  1  0  0  0  0
 32 37  1  0  0  0  0
 32 38  1  0  0  0  0
 33 39  1  0  0  0  0
 34 40  2  0  0  0  0
 35 41  1  0  0  0  0
 36 42  2  0  0  0  0
 37 43  2  0  0  0  0
 37 44  1  0  0  0  0
 38 45  1  6  0  0  0
 38 46  1  0  0  0  0
 39 47  2  0  0  0  0
 41 48  2  0  0  0  0
 43 49  1  0  0  0  0
 43 50  1  0  0  0  0
 44 51  2  0  0  0  0
 50 52  2  0  0  0  0
 14 15  1  0  0  0  0
 26 27  2  0  0  0  0
 40 47  1  0  0  0  0
 42 48  1  0  0  0  0
 46 49  1  0  0  0  0
 51 52  1  0  0  0  0
M  END
>  <MolRegNo>
185868

>  <m>
=

>  <Value>
320

>  <Unit>
nM

>  <Type>
IC50

>  <pValue>
6.5

>  <Ligand Efficiency>
0

>  <Binding Efficiency>
0

>  <Surface Efficiency>
0

>  <Assay Index>
51817

>  <Assay Category>


>  <Assay Organism>
Homo sapiens

>  <Target ID>
17045

>  <Target Name>
Cytochrome P450 3A4

>  <Target Organism>
Homo sapiens

>  <Target Description>
Target is a single protein chain

>  <Sequence Accession>
P08684

>  <Reference>
Bioorg Med Chem Lett 13 (15), 2569-2572 (2003)

>  <Pubmed ID>
12852968

>  <DOI>
10.1016/s0960-894x(03)00475-x

$$$$
280568
Actelion Java MolfileCreator 1.0

 45 51  0  0  1  0  0  0  0  0999 V2000
    0.0000   -0.0000   -0.0000 S   0  0  0  0  0  0  0  0  0  0  0  0
   -0.9347    1.2898   -0.0000 N   0  0  0  0  0  0  0  0  0  0  0  0
   -0.9347   -1.2525   -0.0000 N   0  0  0  0  0  0  0  0  0  0  0  0
   -2.4302    0.8225   -0.0000 C   0  0  0  0  0  0  0  0  0  0  0  0
   -2.4302   -0.7477   -0.0000 C   0  0  0  0  0  0  0  0  0  0  0  0
   -3.8135    1.6263   -0.0000 C   0  0  0  0  0  0  0  0  0  0  0  0
   -3.7948   -1.5142   -0.0000 C   0  0  0  0  0  0  0  0  0  0  0  0
   -5.1968    0.8412   -0.0000 C   0  0  0  0  0  0  0  0  0  0  0  0
   -5.1781   -0.7290   -0.0000 C   0  0  0  0  0  0  0  0  0  0  0  0
   -6.5614    1.6637   -0.0000 C   0  0  0  0  0  0  0  0  0  0  0  0
   -7.9447    0.8973   -0.0000 C   0  0  0  0  0  0  0  0  0  0  0  0
   -9.3280    1.7011   -0.0000 N   0  0  0  0  0  0  0  0  0  0  0  0
  -10.7114    0.9347   -0.0000 C   0  0  0  0  0  0  0  0  0  0  0  0
  -12.0947    1.7385   -0.0000 C   0  0  0  0  0  0  0  0  0  0  0  0
  -13.4593    0.9721   -0.0000 C   0  0  0  0  0  0  0  0  0  0  0  0
  -12.1134    3.3274   -0.0000 C   0  0  0  0  0  0  0  0  0  0  0  0
  -13.4780   -0.3926   -0.0000 C   0  0  0  0  0  0  0  0  0  0  0  0
  -15.8521    0.9721   -0.0000 C   0  0  0  0  0  0  0  0  0  0  0  0
  -14.6931   -1.0655   -0.0000 N   0  0  0  0  0  0  0  0  0  0  0  0
  -12.3003   -1.0468   -0.0000 C   0  0  0  0  0  0  0  0  0  0  0  0
  -15.8708   -0.3739   -0.0000 C   0  0  0  0  0  0  0  0  0  0  0  0
  -17.0671    1.6637   -0.0000 C   0  0  0  0  0  0  0  0  0  0  0  0
  -11.1600   -0.3365   -0.0000 C   0  0  0  0  0  0  0  0  0  0  0  0
  -12.3190   -2.4115   -0.0000 C   0  0  0  0  0  0  0  0  0  0  0  0
  -17.0484   -1.0655   -0.0000 C   0  0  0  0  0  0  0  0  0  0  0  0
  -18.2822    0.9908   -0.0000 C   0  0  0  0  0  0  0  0  0  0  0  0
   -9.9636   -0.9908   -0.0000 C   0  0  0  0  0  0  0  0  0  0  0  0
  -11.1226   -3.0657   -0.0000 C   0  0  0  0  0  0  0  0  0  0  0  0
  -18.2635   -0.3739   -0.0000 C   0  0  0  0  0  0  0  0  0  0  0  0
  -19.4973    1.7011   -0.0000 C   0  0  0  0  0  0  0  0  0  0  0  0
   -9.9823   -2.3554   -0.0000 C   0  0  0  0  0  0  0  0  0  0  0  0
   -8.7859   -0.2617   -0.0000 C   0  0  0  0  0  0  0  0  0  0  0  0
  -11.1413   -4.4304   -0.0000 C   0  0  0  0  0  0  0  0  0  0  0  0
  -20.6937    1.0094   -0.0000 C   0  0  0  0  0  0  0  0  0  0  0  0
  -20.4880    2.6919   -0.0000 C   0  0  0  0  0  0  0  0  0  0  0  0
  -18.8243    2.9162   -0.0000 C   0  0  0  0  0  0  0  0  0  0  0  0
  -20.7124   -0.3365   -0.0000 O   0  0  0  0  0  0  0  0  0  0  0  0
  -21.9087    1.7198   -0.0000 N   0  0  0  0  0  0  0  0  0  0  0  0
  -23.6285    2.5423   -0.0000 C   0  0  0  0  0  0  0  0  0  0  0  0
  -21.2358    2.9536   -0.0000 C   0  0  0  0  0  0  0  0  0  0  0  0
  -25.2362    1.4955   -0.0000 C   0  0  0  0  0  0  0  0  0  0  0  0
  -23.7968    3.9443   -0.0000 C   0  0  0  0  0  0  0  0  0  0  0  0
  -22.9182    3.7574   -0.0000 C   0  0  0  0  0  0  0  0  0  0  0  0
  -24.5819    2.8227   -0.0000 C   0  0  0  0  0  0  0  0  0  0  0  0
  -23.0490    4.8977   -0.0000 C   0  0  0  0  0  0  0  0  0  0  0  0
  1  2  1  0  0  0  0
  1  3  1  0  0  0  0
  2  4  2  0  0  0  0
  3  5  2  0  0  0  0
  4  6  1  0  0  0  0
  5  7  1  0  0  0  0
  6  8  2  0  0  0  0
  7  9  2  0  0  0  0
  8 10  1  0  0  0  0
 10 11  1  0  0  0  0
 11 12  1  0  0  0  0
 12 13  1  0  0  0  0
 13 14  1  0  0  0  0
 14 15  1  0  0  0  0
 14 16  1  6  0  0  0
 15 17  2  0  0  0  0
 15 18  1  0  0  0  0
 17 19  1  0  0  0  0
 17 20  1  0  0  0  0
 18 21  2  0  0  0  0
 18 22  1  0  0  0  0
 20 23  2  0  0  0  0
 20 24  1  0  0  0  0
 21 25  1  0  0  0  0
 22 26  2  0  0  0  0
 23 27  1  0  0  0  0
 24 28  2  0  0  0  0
 25 29  2  0  0  0  0
 26 30  1  0  0  0  0
 27 31  2  0  0  0  0
 27 32  1  0  0  0  0
 28 33  1  0  0  0  0
 30 34  1  0  0  0  0
 30 35  1  0  0  0  0
 30 36  1  0  0  0  0
 34 37  2  0  0  0  0
 34 38  1  0  0  0  0
 38 39  1  0  0  0  0
 38 40  1  0  0  0  0
 39 41  1  0  0  0  0
 39 42  1  0  0  0  0
 40 43  1  0  0  0  0
 41 44  1  0  0  0  0
 42 45  1  0  0  0  0
  4  5  1  0  0  0  0
  8  9  1  0  0  0  0
 19 21  1  0  0  0  0
 26 29  1  0  0  0  0
 28 31  1  0  0  0  0
 43 44  1  0  0  0  0
 43 45  1  0  0  0  0
M  END
>  <MolRegNo>
280568

>  <m>
=

>  <Value>
1000

>  <Unit>
nM

>  <Type>
IC50

>  <pValue>
6

>  <Ligand Efficiency>
0

>  <Binding Efficiency>
0

>  <Surface Efficiency>
0

>  <Assay Index>
51812

>  <Assay Category>


>  <Assay Organism>
Homo sapiens

>  <Target ID>
17045

>  <Target Name>
Cytochrome P450 3A4

>  <Target Organism>
Homo sapiens

>  <Target Description>
Target is a single protein chain

>  <Sequence Accession>
P08684

>  <Reference>
Bioorg Med Chem Lett 12 (5), 827-832 (2002)

>  <Pubmed ID>
11859012

>  <DOI>
10.1016/s0960-894x(02)00026-4

$$$$
7582
Actelion Java MolfileCreator 1.0

 45 49  0  0  0  0  0  0  0  0999 V2000
    0.0000   -0.0000   -0.0000 Cl  0  0  0  0  0  0  0  0  0  0  0  0
   -1.3066   -0.7483   -0.0000 C   0  0  0  0  0  0  0  0  0  0  0  0
   -1.3066   -2.2330   -0.0000 C   0  0  0  0  0  0  0  0  0  0  0  0
   -2.6131    0.0119   -0.0000 C   0  0  0  0  0  0  0  0  0  0  0  0
   -2.6250   -2.9695   -0.0000 C   0  0  0  0  0  0  0  0  0  0  0  0
   -3.9078   -0.7364   -0.0000 C   0  0  0  0  0  0  0  0  0  0  0  0
   -3.9316   -2.2093   -0.0000 C   0  0  0  0  0  0  0  0  0  0  0  0
   -5.2381   -2.9576   -0.0000 C   0  0  0  0  0  0  0  0  0  0  0  0
   -5.2500   -4.4423   -0.0000 C   0  0  0  0  0  0  0  0  0  0  0  0
   -6.5447   -2.1974   -0.0000 C   0  0  0  0  0  0  0  0  0  0  0  0
   -6.5566   -5.1787   -0.0000 C   0  0  0  0  0  0  0  0  0  0  0  0
   -7.8394   -2.9338   -0.0000 C   0  0  0  0  0  0  0  0  0  0  0  0
   -7.8631   -4.4067   -0.0000 C   0  0  0  0  0  0  0  0  0  0  0  0
   -9.1697   -5.1431   -0.0000 C   0  0  0  0  0  0  0  0  0  0  0  0
  -10.4763   -4.3829   -0.0000 N   0  0  0  0  0  0  0  0  0  0  0  0
  -10.4881   -2.8744   -0.0000 C   0  0  0  0  0  0  0  0  0  0  0  0
  -11.7828   -5.1194   -0.0000 C   0  0  0  0  0  0  0  0  0  0  0  0
   -9.2053   -2.1143   -0.0000 O   0  0  0  0  0  0  0  0  0  0  0  0
  -11.7947   -2.1143   -0.0000 C   0  0  0  0  0  0  0  0  0  0  0  0
  -13.0894   -4.3592   -0.0000 C   0  0  0  0  0  0  0  0  0  0  0  0
  -11.8066   -0.6058   -0.0000 N   0  0  0  0  0  0  0  0  0  0  0  0
  -14.3960   -5.0956   -0.0000 N   0  0  0  0  0  0  0  0  0  0  0  0
  -13.1250    0.1544   -0.0000 C   0  0  0  0  0  0  0  0  0  0  0  0
  -10.5238    0.1544   -0.0000 C   0  0  0  0  0  0  0  0  0  0  0  0
  -14.4078   -6.5803   -0.0000 C   0  0  0  0  0  0  0  0  0  0  0  0
  -15.7144   -4.3473   -0.0000 C   0  0  0  0  0  0  0  0  0  0  0  0
  -14.4316   -0.5820   -0.0000 S   0  0  0  0  0  0  0  0  0  0  0  0
  -13.1369    1.6510   -0.0000 N   0  0  0  0  0  0  0  0  0  0  0  0
  -10.5475    1.6510   -0.0000 C   0  0  0  0  0  0  0  0  0  0  0  0
   -9.2647   -0.5701   -0.0000 C   0  0  0  0  0  0  0  0  0  0  0  0
  -15.7263   -7.3286   -0.0000 C   0  0  0  0  0  0  0  0  0  0  0  0
  -17.0210   -5.0837   -0.0000 C   0  0  0  0  0  0  0  0  0  0  0  0
  -15.7382    0.1663   -0.0000 C   0  0  0  0  0  0  0  0  0  0  0  0
  -11.8541    2.4231   -0.0000 C   0  0  0  0  0  0  0  0  0  0  0  0
   -9.2647    2.4231   -0.0000 C   0  0  0  0  0  0  0  0  0  0  0  0
   -7.9819    0.1782   -0.0000 C   0  0  0  0  0  0  0  0  0  0  0  0
  -17.0447   -0.5701   -0.0000 C   0  0  0  0  0  0  0  0  0  0  0  0
  -11.8660    3.9316   -0.0000 O   0  0  0  0  0  0  0  0  0  0  0  0
   -7.9819    1.6985   -0.0000 C   0  0  0  0  0  0  0  0  0  0  0  0
  -18.3513    0.1900   -0.0000 C   0  0  0  0  0  0  0  0  0  0  0  0
  -17.0566   -2.0667   -0.0000 C   0  0  0  0  0  0  0  0  0  0  0  0
  -19.6579   -0.5583   -0.0000 C   0  0  0  0  0  0  0  0  0  0  0  0
  -18.3632   -2.7913   -0.0000 C   0  0  0  0  0  0  0  0  0  0  0  0
  -19.6697   -2.0430   -0.0000 C   0  0  0  0  0  0  0  0  0  0  0  0
  -20.9882   -2.7675   -0.0000 F   0  0  0  0  0  0  0  0  0  0  0  0
  1  2  1  0  0  0  0
  2  3  2  0  0  0  0
  2  4  1  0  0  0  0
  3  5  1  0  0  0  0
  4  6  2  0  0  0  0
  5  7  2  0  0  0  0
  7  8  1  0  0  0  0
  8  9  2  0  0  0  0
  8 10  1  0  0  0  0
  9 11  1  0  0  0  0
 10 12  2  0  0  0  0
 11 13  2  0  0  0  0
 13 14  1  0  0  0  0
 14 15  1  0  0  0  0
 15 16  1  0  0  0  0
 15 17  1  0  0  0  0
 16 18  2  0  0  0  0
 16 19  1  0  0  0  0
 17 20  1  0  0  0  0
 19 21  1  0  0  0  0
 20 22  1  0  0  0  0
 21 23  1  0  0  0  0
 21 24  1  0  0  0  0
 22 25  1  0  0  0  0
 22 26  1  0  0  0  0
 23 27  1  0  0  0  0
 23 28  2  0  0  0  0
 24 29  2  0  0  0  0
 24 30  1  0  0  0  0
 25 31  1  0  0  0  0
 26 32  1  0  0  0  0
 27 33  1  0  0  0  0
 28 34  1  0  0  0  0
 29 35  1  0  0  0  0
 30 36  1  0  0  0  0
 33 37  1  0  0  0  0
 34 38  2  0  0  0  0
 35 39  1  0  0  0  0
 37 40  2  0  0  0  0
 37 41  1  0  0  0  0
 40 42  1  0  0  0  0
 41 43  2  0  0  0  0
 42 44  2  0  0  0  0
 44 45  1  0  0  0  0
  6  7  1  0  0  0  0
 12 13  1  0  0  0  0
 29 34  1  0  0  0  0
 36 39  1  0  0  0  0
 43 44  1  0  0  0  0
M  END
>  <MolRegNo>
7582

>  <m>
=

>  <Value>
5000

>  <Unit>
nM

>  <Type>
IC50

>  <pValue>
5.3

>  <Ligand Efficiency>
0

>  <Binding Efficiency>
0

>  <Surface Efficiency>
0

>  <Assay Index>
51974

>  <Assay Category>


>  <Assay Organism>


>  <Target ID>
17045

>  <Target Name>
Cytochrome P450 3A4

>  <Target Organism>
Homo sapiens

>  <Target Description>
Target is a single protein chain

>  <Sequence Accession>
P08684

>  <Reference>
Bioorg Med Chem Lett 13 (6), 1067-1070 (2003)

>  <Pubmed ID>
12643913

>  <DOI>
10.1016/s0960-894x(03)00058-1

$$$$
7570
Actelion Java MolfileCreator 1.0

 45 48  0  0  0  0  0  0  0  0999 V2000
    0.0000   -0.0000   -0.0000 S   0  0  0  0  0  0  0  0  0  0  0  0
    1.2797    0.7678   -0.0000 C   0  0  0  0  0  0  0  0  0  0  0  0
   -1.3162    0.7556   -0.0000 C   0  0  0  0  0  0  0  0  0  0  0  0
    1.2553    2.2791   -0.0000 N   0  0  0  0  0  0  0  0  0  0  0  0
    2.5594    0.0244   -0.0000 N   0  0  0  0  0  0  0  0  0  0  0  0
   -2.6203    0.0122   -0.0000 C   0  0  0  0  0  0  0  0  0  0  0  0
    2.5472    3.0469   -0.0000 C   0  0  0  0  0  0  0  0  0  0  0  0
    3.8391    0.7922   -0.0000 C   0  0  0  0  0  0  0  0  0  0  0  0
    2.5472   -1.4625   -0.0000 C   0  0  0  0  0  0  0  0  0  0  0  0
   -3.9487    0.7800   -0.0000 C   0  0  0  0  0  0  0  0  0  0  0  0
   -2.6325   -1.4991   -0.0000 C   0  0  0  0  0  0  0  0  0  0  0  0
    2.5350    4.5581   -0.0000 O   0  0  0  0  0  0  0  0  0  0  0  0
    3.8269    2.3034   -0.0000 C   0  0  0  0  0  0  0  0  0  0  0  0
    3.8512   -2.2059   -0.0000 C   0  0  0  0  0  0  0  0  0  0  0  0
   -5.2528    0.0244   -0.0000 C   0  0  0  0  0  0  0  0  0  0  0  0
   -3.9609   -2.2425   -0.0000 C   0  0  0  0  0  0  0  0  0  0  0  0
    5.1309    3.0712   -0.0000 C   0  0  0  0  0  0  0  0  0  0  0  0
    5.1309   -1.4381   -0.0000 O   0  0  0  0  0  0  0  0  0  0  0  0
    3.8391   -3.6928   -0.0000 N   0  0  0  0  0  0  0  0  0  0  0  0
   -5.2650   -1.4625   -0.0000 C   0  0  0  0  0  0  0  0  0  0  0  0
    5.1309   -4.4362   -0.0000 C   0  0  0  0  0  0  0  0  0  0  0  0
    2.5350   -4.4362   -0.0000 C   0  0  0  0  0  0  0  0  0  0  0  0
   -6.5690   -2.2059   -0.0000 F   0  0  0  0  0  0  0  0  0  0  0  0
    6.4106   -3.6684   -0.0000 C   0  0  0  0  0  0  0  0  0  0  0  0
    1.2066   -3.6684   -0.0000 C   0  0  0  0  0  0  0  0  0  0  0  0
    6.3862   -2.1572   -0.0000 C   0  0  0  0  0  0  0  0  0  0  0  0
    7.6903   -4.4119   -0.0000 C   0  0  0  0  0  0  0  0  0  0  0  0
   -0.0975   -4.4119   -0.0000 N   0  0  0  0  0  0  0  0  0  0  0  0
    7.6537   -1.3894   -0.0000 C   0  0  0  0  0  0  0  0  0  0  0  0
    8.9700   -3.6441   -0.0000 C   0  0  0  0  0  0  0  0  0  0  0  0
   -0.1097   -5.8987   -0.0000 C   0  0  0  0  0  0  0  0  0  0  0  0
   -1.4016   -3.6562   -0.0000 C   0  0  0  0  0  0  0  0  0  0  0  0
    8.9578   -2.1328   -0.0000 C   0  0  0  0  0  0  0  0  0  0  0  0
   -1.4137   -6.6422   -0.0000 C   0  0  0  0  0  0  0  0  0  0  0  0
   -2.7056   -4.3997   -0.0000 C   0  0  0  0  0  0  0  0  0  0  0  0
   10.2375   -1.3650   -0.0000 C   0  0  0  0  0  0  0  0  0  0  0  0
   10.2131    0.1462   -0.0000 C   0  0  0  0  0  0  0  0  0  0  0  0
   11.5172   -2.1084   -0.0000 C   0  0  0  0  0  0  0  0  0  0  0  0
   11.4806    0.9141   -0.0000 C   0  0  0  0  0  0  0  0  0  0  0  0
   12.7968   -1.3406   -0.0000 C   0  0  0  0  0  0  0  0  0  0  0  0
   12.7847    0.1706   -0.0000 C   0  0  0  0  0  0  0  0  0  0  0  0
   14.0643    0.9506   -0.0000 C   0  0  0  0  0  0  0  0  0  0  0  0
   15.2222    1.6453   -0.0000 F   0  0  0  0  0  0  0  0  0  0  0  0
   15.5147    0.4144   -0.0000 F   0  0  0  0  0  0  0  0  0  0  0  0
   14.2959    2.5106   -0.0000 F   0  0  0  0  0  0  0  0  0  0  0  0
  1  2  1  0  0  0  0
  1  3  1  0  0  0  0
  2  4  2  0  0  0  0
  2  5  1  0  0  0  0
  3  6  1  0  0  0  0
  4  7  1  0  0  0  0
  5  8  1  0  0  0  0
  5  9  1  0  0  0  0
  6 10  2  0  0  0  0
  6 11  1  0  0  0  0
  7 12  2  0  0  0  0
  7 13  1  0  0  0  0
  9 14  1  0  0  0  0
 10 15  1  0  0  0  0
 11 16  2  0  0  0  0
 13 17  1  0  0  0  0
 14 18  2  0  0  0  0
 14 19  1  0  0  0  0
 15 20  2  0  0  0  0
 19 21  1  0  0  0  0
 19 22  1  0  0  0  0
 20 23  1  0  0  0  0
 21 24  1  0  0  0  0
 22 25  1  0  0  0  0
 24 26  2  0  0  0  0
 24 27  1  0  0  0  0
 25 28  1  0  0  0  0
 26 29  1  0  0  0  0
 27 30  2  0  0  0  0
 28 31  1  0  0  0  0
 28 32  1  0  0  0  0
 29 33  2  0  0  0  0
 31 34  1  0  0  0  0
 32 35  1  0  0  0  0
 33 36  1  0  0  0  0
 36 37  2  0  0  0  0
 36 38  1  0  0  0  0
 37 39  1  0  0  0  0
 38 40  2  0  0  0  0
 39 41  2  0  0  0  0
 41 42  1  0  0  0  0
 42 43  1  0  0  0  0
 42 44  1  0  0  0  0
 42 45  1  0  0  0  0
  8 13  2  0  0  0  0
 16 20  1  0  0  0  0
 30 33  1  0  0  0  0
 40 41  1  0  0  0  0
M  END
>  <MolRegNo>
7570

>  <m>
=

>  <Value>
17000

>  <Unit>
nM

>  <Type>
IC50

>  <pValue>
4.77

>  <Ligand Efficiency>
0

>  <Binding Efficiency>
0

>  <Surface Efficiency>
0

>  <Assay Index>
51974

>  <Assay Category>


>  <Assay Organism>


>  <Target ID>
17045

>  <Target Name>
Cytochrome P450 3A4

>  <Target Organism>
Homo sapiens

>  <Target Description>
Target is a single protein chain

>  <Sequence Accession>
P08684

>  <Reference>
Bioorg Med Chem Lett 13 (6), 1067-1070 (2003)

>  <Pubmed ID>
12643913

>  <DOI>
10.1016/s0960-894x(03)00058-1

$$$$
7617
Actelion Java MolfileCreator 1.0

 47 50  0  0  0  0  0  0  0  0999 V2000
    0.0000   -0.0000   -0.0000 S   0  0  0  0  0  0  0  0  0  0  0  0
    1.2789    0.7673   -0.0000 C   0  0  0  0  0  0  0  0  0  0  0  0
   -1.3032    0.7673   -0.0000 C   0  0  0  0  0  0  0  0  0  0  0  0
    1.2667    2.2776   -0.0000 N   0  0  0  0  0  0  0  0  0  0  0  0
    2.5821    0.0244   -0.0000 N   0  0  0  0  0  0  0  0  0  0  0  0
   -2.6064    0.0122   -0.0000 C   0  0  0  0  0  0  0  0  0  0  0  0
    2.5455    3.0449   -0.0000 C   0  0  0  0  0  0  0  0  0  0  0  0
    3.8610    0.7917   -0.0000 C   0  0  0  0  0  0  0  0  0  0  0  0
    2.5699   -1.4616   -0.0000 C   0  0  0  0  0  0  0  0  0  0  0  0
   -3.9219    0.7795   -0.0000 C   0  0  0  0  0  0  0  0  0  0  0  0
   -2.6186   -1.4859   -0.0000 C   0  0  0  0  0  0  0  0  0  0  0  0
    2.5334    4.5552   -0.0000 O   0  0  0  0  0  0  0  0  0  0  0  0
    3.8488    2.3020   -0.0000 C   0  0  0  0  0  0  0  0  0  0  0  0
    3.8610   -2.2045   -0.0000 C   0  0  0  0  0  0  0  0  0  0  0  0
   -5.2251    0.0365   -0.0000 C   0  0  0  0  0  0  0  0  0  0  0  0
   -3.9340   -2.2289   -0.0000 C   0  0  0  0  0  0  0  0  0  0  0  0
    5.1398    3.0693   -0.0000 C   0  0  0  0  0  0  0  0  0  0  0  0
    5.1398   -1.4372   -0.0000 O   0  0  0  0  0  0  0  0  0  0  0  0
    3.8488   -3.6904   -0.0000 N   0  0  0  0  0  0  0  0  0  0  0  0
   -5.2373   -1.4616   -0.0000 C   0  0  0  0  0  0  0  0  0  0  0  0
    6.4187    2.3263   -0.0000 C   0  0  0  0  0  0  0  0  0  0  0  0
    5.1276   -4.4334   -0.0000 C   0  0  0  0  0  0  0  0  0  0  0  0
    2.5455   -4.4334   -0.0000 C   0  0  0  0  0  0  0  0  0  0  0  0
   -6.5648   -2.2045   -0.0000 F   0  0  0  0  0  0  0  0  0  0  0  0
    7.6975    3.0936   -0.0000 C   0  0  0  0  0  0  0  0  0  0  0  0
    6.4065   -3.6661   -0.0000 C   0  0  0  0  0  0  0  0  0  0  0  0
    1.2301   -3.6661   -0.0000 C   0  0  0  0  0  0  0  0  0  0  0  0
    6.3943   -2.1558   -0.0000 C   0  0  0  0  0  0  0  0  0  0  0  0
    7.6854   -4.4090   -0.0000 C   0  0  0  0  0  0  0  0  0  0  0  0
   -0.0731   -4.4090   -0.0000 N   0  0  0  0  0  0  0  0  0  0  0  0
    7.6732   -1.3885   -0.0000 C   0  0  0  0  0  0  0  0  0  0  0  0
    8.9642   -3.6417   -0.0000 C   0  0  0  0  0  0  0  0  0  0  0  0
   -1.4007   -3.6417   -0.0000 C   0  0  0  0  0  0  0  0  0  0  0  0
   -0.0853   -5.8950   -0.0000 C   0  0  0  0  0  0  0  0  0  0  0  0
    8.9642   -2.1314   -0.0000 C   0  0  0  0  0  0  0  0  0  0  0  0
   -2.7039   -4.3847   -0.0000 C   0  0  0  0  0  0  0  0  0  0  0  0
   -1.4128   -6.6379   -0.0000 C   0  0  0  0  0  0  0  0  0  0  0  0
   10.2431   -1.3641   -0.0000 C   0  0  0  0  0  0  0  0  0  0  0  0
   10.2309    0.1462   -0.0000 C   0  0  0  0  0  0  0  0  0  0  0  0
   11.5220   -2.1071   -0.0000 C   0  0  0  0  0  0  0  0  0  0  0  0
   11.5098    0.9135   -0.0000 C   0  0  0  0  0  0  0  0  0  0  0  0
   12.8252   -1.3398   -0.0000 C   0  0  0  0  0  0  0  0  0  0  0  0
   12.8008    0.1705   -0.0000 C   0  0  0  0  0  0  0  0  0  0  0  0
   14.0797    0.9500   -0.0000 C   0  0  0  0  0  0  0  0  0  0  0  0
   15.2489    1.6443   -0.0000 F   0  0  0  0  0  0  0  0  0  0  0  0
   15.5412    0.4019   -0.0000 F   0  0  0  0  0  0  0  0  0  0  0  0
   14.3233    2.5090   -0.0000 F   0  0  0  0  0  0  0  0  0  0  0  0
  1  2  1  0  0  0  0
  1  3  1  0  0  0  0
  2  4  2  0  0  0  0
  2  5  1  0  0  0  0
  3  6  1  0  0  0  0
  4  7  1  0  0  0  0
  5  8  1  0  0  0  0
  5  9  1  0  0  0  0
  6 10  2  0  0  0  0
  6 11  1  0  0  0  0
  7 12  2  0  0  0  0
  7 13  1  0  0  0  0
  9 14  1  0  0  0  0
 10 15  1  0  0  0  0
 11 16  2  0  0  0  0
 13 17  1  0  0  0  0
 14 18  2  0  0  0  0
 14 19  1  0  0  0  0
 15 20  2  0  0  0  0
 17 21  1  0  0  0  0
 19 22  1  0  0  0  0
 19 23  1  0  0  0  0
 20 24  1  0  0  0  0
 21 25  1  0  0  0  0
 22 26  1  0  0  0  0
 23 27  1  0  0  0  0
 26 28  2  0  0  0  0
 26 29  1  0  0  0  0
 27 30  1  0  0  0  0
 28 31  1  0  0  0  0
 29 32  2  0  0  0  0
 30 33  1  0  0  0  0
 30 34  1  0  0  0  0
 31 35  2  0  0  0  0
 33 36  1  0  0  0  0
 34 37  1  0  0  0  0
 35 38  1  0  0  0  0
 38 39  2  0  0  0  0
 38 40  1  0  0  0  0
 39 41  1  0  0  0  0
 40 42  2  0  0  0  0
 41 43  2  0  0  0  0
 43 44  1  0  0  0  0
 44 45  1  0  0  0  0
 44 46  1  0  0  0  0
 44 47  1  0  0  0  0
  8 13  2  0  0  0  0
 16 20  1  0  0  0  0
 32 35  1  0  0  0  0
 42 43  1  0  0  0  0
M  END
>  <MolRegNo>
7617

>  <m>
=

>  <Value>
5000

>  <Unit>
nM

>  <Type>
IC50

>  <pValue>
5.3

>  <Ligand Efficiency>
0

>  <Binding Efficiency>
0

>  <Surface Efficiency>
0

>  <Assay Index>
51974

>  <Assay Category>


>  <Assay Organism>


>  <Target ID>
17045

>  <Target Name>
Cytochrome P450 3A4

>  <Target Organism>
Homo sapiens

>  <Target Description>
Target is a single protein chain

>  <Sequence Accession>
P08684

>  <Reference>
Bioorg Med Chem Lett 13 (6), 1067-1070 (2003)

>  <Pubmed ID>
12643913

>  <DOI>
10.1016/s0960-894x(03)00058-1

$$$$
7616
Actelion Java MolfileCreator 1.0

 45 48  0  0  0  0  0  0  0  0999 V2000
    0.0000   -0.0000   -0.0000 Br  0  0  0  0  0  0  0  0  0  0  0  0
   -1.3139   -0.7421   -0.0000 C   0  0  0  0  0  0  0  0  0  0  0  0
   -2.6400    0.0243   -0.0000 C   0  0  0  0  0  0  0  0  0  0  0  0
   -1.3261   -2.2263   -0.0000 C   0  0  0  0  0  0  0  0  0  0  0  0
   -2.6521    1.5329   -0.0000 O   0  0  0  0  0  0  0  0  0  0  0  0
   -3.9417   -0.7178   -0.0000 N   0  0  0  0  0  0  0  0  0  0  0  0
   -2.6278   -2.9684   -0.0000 N   0  0  0  0  0  0  0  0  0  0  0  0
   -3.9539   -2.2020   -0.0000 C   0  0  0  0  0  0  0  0  0  0  0  0
   -2.6400   -4.4527   -0.0000 C   0  0  0  0  0  0  0  0  0  0  0  0
   -5.2556   -2.9441   -0.0000 S   0  0  0  0  0  0  0  0  0  0  0  0
   -1.3504   -5.1948   -0.0000 C   0  0  0  0  0  0  0  0  0  0  0  0
   -6.5573   -2.1777   -0.0000 C   0  0  0  0  0  0  0  0  0  0  0  0
   -0.0730   -4.4283   -0.0000 O   0  0  0  0  0  0  0  0  0  0  0  0
   -1.3626   -6.6790   -0.0000 N   0  0  0  0  0  0  0  0  0  0  0  0
   -7.8591   -2.9319   -0.0000 C   0  0  0  0  0  0  0  0  0  0  0  0
   -0.0852   -7.4211   -0.0000 C   0  0  0  0  0  0  0  0  0  0  0  0
   -2.6643   -7.4211   -0.0000 C   0  0  0  0  0  0  0  0  0  0  0  0
   -9.1730   -2.1655   -0.0000 C   0  0  0  0  0  0  0  0  0  0  0  0
   -7.8712   -4.4283   -0.0000 C   0  0  0  0  0  0  0  0  0  0  0  0
    1.1922   -6.6547   -0.0000 C   0  0  0  0  0  0  0  0  0  0  0  0
   -3.9782   -6.6547   -0.0000 C   0  0  0  0  0  0  0  0  0  0  0  0
  -10.4747   -2.9076   -0.0000 C   0  0  0  0  0  0  0  0  0  0  0  0
   -9.1851   -5.1704   -0.0000 C   0  0  0  0  0  0  0  0  0  0  0  0
    1.1801   -5.1461   -0.0000 C   0  0  0  0  0  0  0  0  0  0  0  0
    2.4696   -7.3968   -0.0000 C   0  0  0  0  0  0  0  0  0  0  0  0
   -5.2799   -7.3968   -0.0000 N   0  0  0  0  0  0  0  0  0  0  0  0
  -10.4869   -4.4040   -0.0000 C   0  0  0  0  0  0  0  0  0  0  0  0
    2.4575   -4.3797   -0.0000 C   0  0  0  0  0  0  0  0  0  0  0  0
    3.7470   -6.6303   -0.0000 C   0  0  0  0  0  0  0  0  0  0  0  0
   -5.2921   -8.8810   -0.0000 C   0  0  0  0  0  0  0  0  0  0  0  0
   -6.6060   -6.6303   -0.0000 C   0  0  0  0  0  0  0  0  0  0  0  0
  -11.8129   -5.1461   -0.0000 F   0  0  0  0  0  0  0  0  0  0  0  0
    3.7470   -5.1218   -0.0000 C   0  0  0  0  0  0  0  0  0  0  0  0
   -6.6182   -9.6231   -0.0000 C   0  0  0  0  0  0  0  0  0  0  0  0
   -7.9077   -7.3724   -0.0000 C   0  0  0  0  0  0  0  0  0  0  0  0
    5.0244   -4.3553   -0.0000 C   0  0  0  0  0  0  0  0  0  0  0  0
    6.3019   -5.0974   -0.0000 C   0  0  0  0  0  0  0  0  0  0  0  0
    5.0123   -2.8468   -0.0000 C   0  0  0  0  0  0  0  0  0  0  0  0
    7.6036   -4.3310   -0.0000 C   0  0  0  0  0  0  0  0  0  0  0  0
    6.2897   -2.0803   -0.0000 C   0  0  0  0  0  0  0  0  0  0  0  0
    7.5793   -2.8225   -0.0000 C   0  0  0  0  0  0  0  0  0  0  0  0
    8.8567   -2.0438   -0.0000 C   0  0  0  0  0  0  0  0  0  0  0  0
   10.0246   -1.3504   -0.0000 F   0  0  0  0  0  0  0  0  0  0  0  0
   10.3165   -2.5913   -0.0000 F   0  0  0  0  0  0  0  0  0  0  0  0
    9.1000   -0.4866   -0.0000 F   0  0  0  0  0  0  0  0  0  0  0  0
  1  2  1  0  0  0  0
  2  3  1  0  0  0  0
  2  4  2  0  0  0  0
  3  5  2  0  0  0  0
  3  6  1  0  0  0  0
  4  7  1  0  0  0  0
  6  8  2  0  0  0  0
  7  9  1  0  0  0  0
  8 10  1  0  0  0  0
  9 11  1  0  0  0  0
 10 12  1  0  0  0  0
 11 13  2  0  0  0  0
 11 14  1  0  0  0  0
 12 15  1  0  0  0  0
 14 16  1  0  0  0  0
 14 17  1  0  0  0  0
 15 18  2  0  0  0  0
 15 19  1  0  0  0  0
 16 20  1  0  0  0  0
 17 21  1  0  0  0  0
 18 22  1  0  0  0  0
 19 23  2  0  0  0  0
 20 24  2  0  0  0  0
 20 25  1  0  0  0  0
 21 26  1  0  0  0  0
 22 27  2  0  0  0  0
 24 28  1  0  0  0  0
 25 29  2  0  0  0  0
 26 30  1  0  0  0  0
 26 31  1  0  0  0  0
 27 32  1  0  0  0  0
 28 33  2  0  0  0  0
 30 34  1  0  0  0  0
 31 35  1  0  0  0  0
 33 36  1  0  0  0  0
 36 37  2  0  0  0  0
 36 38  1  0  0  0  0
 37 39  1  0  0  0  0
 38 40  2  0  0  0  0
 39 41  2  0  0  0  0
 41 42  1  0  0  0  0
 42 43  1  0  0  0  0
 42 44  1  0  0  0  0
 42 45  1  0  0  0  0
  7  8  1  0  0  0  0
 23 27  1  0  0  0  0
 29 33  1  0  0  0  0
 40 41  1  0  0  0  0
M  END
>  <MolRegNo>
7616

>  <m>
=

>  <Value>
39000

>  <Unit>
nM

>  <Type>
IC50

>  <pValue>
4.41

>  <Ligand Efficiency>
0

>  <Binding Efficiency>
0

>  <Surface Efficiency>
0

>  <Assay Index>
51974

>  <Assay Category>


>  <Assay Organism>


>  <Target ID>
17045

>  <Target Name>
Cytochrome P450 3A4

>  <Target Organism>
Homo sapiens

>  <Target Description>
Target is a single protein chain

>  <Sequence Accession>
P08684

>  <Reference>
Bioorg Med Chem Lett 13 (6), 1067-1070 (2003)

>  <Pubmed ID>
12643913

>  <DOI>
10.1016/s0960-894x(03)00058-1

$$$$
7622
Actelion Java MolfileCreator 1.0

 45 48  0  0  0  0  0  0  0  0999 V2000
    0.0000   -0.0000   -0.0000 Cl  0  0  0  0  0  0  0  0  0  0  0  0
   -1.3139   -0.7421   -0.0000 C   0  0  0  0  0  0  0  0  0  0  0  0
   -2.6400    0.0243   -0.0000 C   0  0  0  0  0  0  0  0  0  0  0  0
   -1.3261   -2.2263   -0.0000 C   0  0  0  0  0  0  0  0  0  0  0  0
   -2.6521    1.5329   -0.0000 O   0  0  0  0  0  0  0  0  0  0  0  0
   -3.9417   -0.7178   -0.0000 N   0  0  0  0  0  0  0  0  0  0  0  0
   -2.6278   -2.9684   -0.0000 N   0  0  0  0  0  0  0  0  0  0  0  0
   -3.9539   -2.2020   -0.0000 C   0  0  0  0  0  0  0  0  0  0  0  0
   -2.6400   -4.4527   -0.0000 C   0  0  0  0  0  0  0  0  0  0  0  0
   -5.2556   -2.9441   -0.0000 S   0  0  0  0  0  0  0  0  0  0  0  0
   -1.3504   -5.1948   -0.0000 C   0  0  0  0  0  0  0  0  0  0  0  0
   -6.5573   -2.1777   -0.0000 C   0  0  0  0  0  0  0  0  0  0  0  0
   -0.0730   -4.4283   -0.0000 O   0  0  0  0  0  0  0  0  0  0  0  0
   -1.3626   -6.6790   -0.0000 N   0  0  0  0  0  0  0  0  0  0  0  0
   -7.8591   -2.9319   -0.0000 C   0  0  0  0  0  0  0  0  0  0  0  0
   -0.0852   -7.4211   -0.0000 C   0  0  0  0  0  0  0  0  0  0  0  0
   -2.6643   -7.4211   -0.0000 C   0  0  0  0  0  0  0  0  0  0  0  0
   -9.1730   -2.1655   -0.0000 C   0  0  0  0  0  0  0  0  0  0  0  0
   -7.8712   -4.4283   -0.0000 C   0  0  0  0  0  0  0  0  0  0  0  0
    1.1922   -6.6547   -0.0000 C   0  0  0  0  0  0  0  0  0  0  0  0
   -3.9782   -6.6547   -0.0000 C   0  0  0  0  0  0  0  0  0  0  0  0
  -10.4747   -2.9076   -0.0000 C   0  0  0  0  0  0  0  0  0  0  0  0
   -9.1851   -5.1704   -0.0000 C   0  0  0  0  0  0  0  0  0  0  0  0
    1.1801   -5.1461   -0.0000 C   0  0  0  0  0  0  0  0  0  0  0  0
    2.4696   -7.3968   -0.0000 C   0  0  0  0  0  0  0  0  0  0  0  0
   -5.2799   -7.3968   -0.0000 N   0  0  0  0  0  0  0  0  0  0  0  0
  -10.4869   -4.4040   -0.0000 C   0  0  0  0  0  0  0  0  0  0  0  0
    2.4575   -4.3797   -0.0000 C   0  0  0  0  0  0  0  0  0  0  0  0
    3.7470   -6.6303   -0.0000 C   0  0  0  0  0  0  0  0  0  0  0  0
   -5.2921   -8.8810   -0.0000 C   0  0  0  0  0  0  0  0  0  0  0  0
   -6.6060   -6.6303   -0.0000 C   0  0  0  0  0  0  0  0  0  0  0  0
  -11.8129   -5.1461   -0.0000 F   0  0  0  0  0  0  0  0  0  0  0  0
    3.7470   -5.1218   -0.0000 C   0  0  0  0  0  0  0  0  0  0  0  0
   -6.6182   -9.6231   -0.0000 C   0  0  0  0  0  0  0  0  0  0  0  0
   -7.9077   -7.3724   -0.0000 C   0  0  0  0  0  0  0  0  0  0  0  0
    5.0244   -4.3553   -0.0000 C   0  0  0  0  0  0  0  0  0  0  0  0
    6.3019   -5.0974   -0.0000 C   0  0  0  0  0  0  0  0  0  0  0  0
    5.0123   -2.8468   -0.0000 C   0  0  0  0  0  0  0  0  0  0  0  0
    7.6036   -4.3310   -0.0000 C   0  0  0  0  0  0  0  0  0  0  0  0
    6.2897   -2.0803   -0.0000 C   0  0  0  0  0  0  0  0  0  0  0  0
    7.5793   -2.8225   -0.0000 C   0  0  0  0  0  0  0  0  0  0  0  0
    8.8567   -2.0438   -0.0000 C   0  0  0  0  0  0  0  0  0  0  0  0
   10.0246   -1.3504   -0.0000 F   0  0  0  0  0  0  0  0  0  0  0  0
   10.3165   -2.5913   -0.0000 F   0  0  0  0  0  0  0  0  0  0  0  0
    9.1000   -0.4866   -0.0000 F   0  0  0  0  0  0  0  0  0  0  0  0
  1  2  1  0  0  0  0
  2  3  1  0  0  0  0
  2  4  2  0  0  0  0
  3  5  2  0  0  0  0
  3  6  1  0  0  0  0
  4  7  1  0  0  0  0
  6  8  2  0  0  0  0
  7  9  1  0  0  0  0
  8 10  1  0  0  0  0
  9 11  1  0  0  0  0
 10 12  1  0  0  0  0
 11 13  2  0  0  0  0
 11 14  1  0  0  0  0
 12 15  1  0  0  0  0
 14 16  1  0  0  0  0
 14 17  1  0  0  0  0
 15 18  2  0  0  0  0
 15 19  1  0  0  0  0
 16 20  1  0  0  0  0
 17 21  1  0  0  0  0
 18 22  1  0  0  0  0
 19 23  2  0  0  0  0
 20 24  2  0  0  0  0
 20 25  1  0  0  0  0
 21 26  1  0  0  0  0
 22 27  2  0  0  0  0
 24 28  1  0  0  0  0
 25 29  2  0  0  0  0
 26 30  1  0  0  0  0
 26 31  1  0  0  0  0
 27 32  1  0  0  0  0
 28 33  2  0  0  0  0
 30 34  1  0  0  0  0
 31 35  1  0  0  0  0
 33 36  1  0  0  0  0
 36 37  2  0  0  0  0
 36 38  1  0  0  0  0
 37 39  1  0  0  0  0
 38 40  2  0  0  0  0
 39 41  2  0  0  0  0
 41 42  1  0  0  0  0
 42 43  1  0  0  0  0
 42 44  1  0  0  0  0
 42 45  1  0  0  0  0
  7  8  1  0  0  0  0
 23 27  1  0  0  0  0
 29 33  1  0  0  0  0
 40 41  1  0  0  0  0
M  END
>  <MolRegNo>
7622

>  <m>
=

>  <Value>
29000

>  <Unit>
nM

>  <Type>
IC50

>  <pValue>
4.54

>  <Ligand Efficiency>
0

>  <Binding Efficiency>
0

>  <Surface Efficiency>
0

>  <Assay Index>
51974

>  <Assay Category>


>  <Assay Organism>


>  <Target ID>
17045

>  <Target Name>
Cytochrome P450 3A4

>  <Target Organism>
Homo sapiens

>  <Target Description>
Target is a single protein chain

>  <Sequence Accession>
P08684

>  <Reference>
Bioorg Med Chem Lett 13 (6), 1067-1070 (2003)

>  <Pubmed ID>
12643913

>  <DOI>
10.1016/s0960-894x(03)00058-1

$$$$
7606
Actelion Java MolfileCreator 1.0

 46 49  0  0  0  0  0  0  0  0999 V2000
    0.0000   -0.0000   -0.0000 S   0  0  0  0  0  0  0  0  0  0  0  0
    1.2678    0.7680   -0.0000 C   0  0  0  0  0  0  0  0  0  0  0  0
   -1.3287    0.7558   -0.0000 C   0  0  0  0  0  0  0  0  0  0  0  0
    1.2556    2.2796   -0.0000 N   0  0  0  0  0  0  0  0  0  0  0  0
    2.5721    0.0244   -0.0000 N   0  0  0  0  0  0  0  0  0  0  0  0
   -2.6331    0.0122   -0.0000 C   0  0  0  0  0  0  0  0  0  0  0  0
    2.5599    3.0475   -0.0000 C   0  0  0  0  0  0  0  0  0  0  0  0
    3.8521    0.7924   -0.0000 C   0  0  0  0  0  0  0  0  0  0  0  0
    2.5599   -1.4628   -0.0000 C   0  0  0  0  0  0  0  0  0  0  0  0
   -2.6453   -1.4994   -0.0000 C   0  0  0  0  0  0  0  0  0  0  0  0
   -3.9374    0.7802   -0.0000 C   0  0  0  0  0  0  0  0  0  0  0  0
    2.5477    4.5591   -0.0000 O   0  0  0  0  0  0  0  0  0  0  0  0
    3.8521    2.3039   -0.0000 C   0  0  0  0  0  0  0  0  0  0  0  0
    5.1320    0.0488   -0.0000 C   0  0  0  0  0  0  0  0  0  0  0  0
    3.8399   -2.2064   -0.0000 C   0  0  0  0  0  0  0  0  0  0  0  0
   -3.9496   -2.2430   -0.0000 C   0  0  0  0  0  0  0  0  0  0  0  0
   -5.2418    0.0244   -0.0000 C   0  0  0  0  0  0  0  0  0  0  0  0
    5.1320    3.0719   -0.0000 C   0  0  0  0  0  0  0  0  0  0  0  0
    5.1199   -1.4384   -0.0000 O   0  0  0  0  0  0  0  0  0  0  0  0
    3.8277   -3.6936   -0.0000 N   0  0  0  0  0  0  0  0  0  0  0  0
   -5.2539   -1.4750   -0.0000 C   0  0  0  0  0  0  0  0  0  0  0  0
    5.1320   -4.4372   -0.0000 C   0  0  0  0  0  0  0  0  0  0  0  0
    2.5234   -4.4372   -0.0000 C   0  0  0  0  0  0  0  0  0  0  0  0
   -6.5705   -2.2186   -0.0000 F   0  0  0  0  0  0  0  0  0  0  0  0
    6.4120   -3.6692   -0.0000 C   0  0  0  0  0  0  0  0  0  0  0  0
    1.2190   -3.6692   -0.0000 C   0  0  0  0  0  0  0  0  0  0  0  0
    7.6920   -4.4128   -0.0000 C   0  0  0  0  0  0  0  0  0  0  0  0
    6.3876   -2.1577   -0.0000 C   0  0  0  0  0  0  0  0  0  0  0  0
   -0.0853   -4.4128   -0.0000 N   0  0  0  0  0  0  0  0  0  0  0  0
    8.9719   -3.6448   -0.0000 C   0  0  0  0  0  0  0  0  0  0  0  0
    7.6676   -1.3897   -0.0000 C   0  0  0  0  0  0  0  0  0  0  0  0
   -1.4019   -3.6570   -0.0000 C   0  0  0  0  0  0  0  0  0  0  0  0
   -0.0975   -5.9000   -0.0000 C   0  0  0  0  0  0  0  0  0  0  0  0
    8.9597   -2.1333   -0.0000 C   0  0  0  0  0  0  0  0  0  0  0  0
   -2.7062   -4.4006   -0.0000 C   0  0  0  0  0  0  0  0  0  0  0  0
   -1.4141   -6.6436   -0.0000 C   0  0  0  0  0  0  0  0  0  0  0  0
   10.2397   -1.3653   -0.0000 C   0  0  0  0  0  0  0  0  0  0  0  0
   10.2153    0.1463   -0.0000 C   0  0  0  0  0  0  0  0  0  0  0  0
   11.5197   -2.1089   -0.0000 C   0  0  0  0  0  0  0  0  0  0  0  0
   11.4953    0.9143   -0.0000 C   0  0  0  0  0  0  0  0  0  0  0  0
   12.8118   -1.3409   -0.0000 C   0  0  0  0  0  0  0  0  0  0  0  0
   12.7996    0.1707   -0.0000 C   0  0  0  0  0  0  0  0  0  0  0  0
   14.0796    0.9508   -0.0000 C   0  0  0  0  0  0  0  0  0  0  0  0
   15.2377    1.6457   -0.0000 F   0  0  0  0  0  0  0  0  0  0  0  0
   15.5302    0.4145   -0.0000 F   0  0  0  0  0  0  0  0  0  0  0  0
   14.2990    2.5112   -0.0000 F   0  0  0  0  0  0  0  0  0  0  0  0
  1  2  1  0  0  0  0
  1  3  1  0  0  0  0
  2  4  2  0  0  0  0
  2  5  1  0  0  0  0
  3  6  1  0  0  0  0
  4  7  1  0  0  0  0
  5  8  1  0  0  0  0
  5  9  1  0  0  0  0
  6 10  2  0  0  0  0
  6 11  1  0  0  0  0
  7 12  2  0  0  0  0
  7 13  1  0  0  0  0
  8 14  1  0  0  0  0
  9 15  1  0  0  0  0
 10 16  1  0  0  0  0
 11 17  2  0  0  0  0
 13 18  1  0  0  0  0
 15 19  2  0  0  0  0
 15 20  1  0  0  0  0
 16 21  2  0  0  0  0
 20 22  1  0  0  0  0
 20 23  1  0  0  0  0
 21 24  1  0  0  0  0
 22 25  1  0  0  0  0
 23 26  1  0  0  0  0
 25 27  2  0  0  0  0
 25 28  1  0  0  0  0
 26 29  1  0  0  0  0
 27 30  1  0  0  0  0
 28 31  2  0  0  0  0
 29 32  1  0  0  0  0
 29 33  1  0  0  0  0
 30 34  2  0  0  0  0
 32 35  1  0  0  0  0
 33 36  1  0  0  0  0
 34 37  1  0  0  0  0
 37 38  2  0  0  0  0
 37 39  1  0  0  0  0
 38 40  1  0  0  0  0
 39 41  2  0  0  0  0
 40 42  2  0  0  0  0
 42 43  1  0  0  0  0
 43 44  1  0  0  0  0
 43 45  1  0  0  0  0
 43 46  1  0  0  0  0
  8 13  2  0  0  0  0
 17 21  1  0  0  0  0
 31 34  1  0  0  0  0
 41 42  1  0  0  0  0
M  END
>  <MolRegNo>
7606

>  <m>
=

>  <Value>
22000

>  <Unit>
nM

>  <Type>
IC50

>  <pValue>
4.66

>  <Ligand Efficiency>
0

>  <Binding Efficiency>
0

>  <Surface Efficiency>
0

>  <Assay Index>
51974

>  <Assay Category>


>  <Assay Organism>


>  <Target ID>
17045

>  <Target Name>
Cytochrome P450 3A4

>  <Target Organism>
Homo sapiens

>  <Target Description>
Target is a single protein chain

>  <Sequence Accession>
P08684

>  <Reference>
Bioorg Med Chem Lett 13 (6), 1067-1070 (2003)

>  <Pubmed ID>
12643913

>  <DOI>
10.1016/s0960-894x(03)00058-1

$$$$
7607
Actelion Java MolfileCreator 1.0

 45 48  0  0  0  0  0  0  0  0999 V2000
    0.0000   -0.0000   -0.0000 S   0  0  0  0  0  0  0  0  0  0  0  0
    1.2791    0.7675   -0.0000 C   0  0  0  0  0  0  0  0  0  0  0  0
   -1.3035    0.7553   -0.0000 C   0  0  0  0  0  0  0  0  0  0  0  0
    1.2669    2.2780   -0.0000 N   0  0  0  0  0  0  0  0  0  0  0  0
    2.5826    0.0244   -0.0000 N   0  0  0  0  0  0  0  0  0  0  0  0
   -2.6070    0.0122   -0.0000 C   0  0  0  0  0  0  0  0  0  0  0  0
    2.5460    3.0455   -0.0000 C   0  0  0  0  0  0  0  0  0  0  0  0
    3.8617    0.7918   -0.0000 C   0  0  0  0  0  0  0  0  0  0  0  0
    2.5704   -1.4618   -0.0000 C   0  0  0  0  0  0  0  0  0  0  0  0
   -3.9226    0.7796   -0.0000 C   0  0  0  0  0  0  0  0  0  0  0  0
   -2.6191   -1.4984   -0.0000 C   0  0  0  0  0  0  0  0  0  0  0  0
    2.5339    4.5561   -0.0000 O   0  0  0  0  0  0  0  0  0  0  0  0
    3.8495    2.3024   -0.0000 C   0  0  0  0  0  0  0  0  0  0  0  0
    5.1408    0.0487   -0.0000 C   0  0  0  0  0  0  0  0  0  0  0  0
    3.8617   -2.2049   -0.0000 C   0  0  0  0  0  0  0  0  0  0  0  0
   -5.2261    0.0244   -0.0000 C   0  0  0  0  0  0  0  0  0  0  0  0
   -3.9348   -2.2415   -0.0000 C   0  0  0  0  0  0  0  0  0  0  0  0
    5.1408   -1.4375   -0.0000 O   0  0  0  0  0  0  0  0  0  0  0  0
    3.8495   -3.6912   -0.0000 N   0  0  0  0  0  0  0  0  0  0  0  0
   -5.2383   -1.4618   -0.0000 C   0  0  0  0  0  0  0  0  0  0  0  0
    5.1286   -4.4343   -0.0000 C   0  0  0  0  0  0  0  0  0  0  0  0
    2.5460   -4.4343   -0.0000 C   0  0  0  0  0  0  0  0  0  0  0  0
   -6.5661   -2.2049   -0.0000 F   0  0  0  0  0  0  0  0  0  0  0  0
    6.4077   -3.6668   -0.0000 C   0  0  0  0  0  0  0  0  0  0  0  0
    1.2304   -3.6668   -0.0000 C   0  0  0  0  0  0  0  0  0  0  0  0
    7.6869   -4.4099   -0.0000 C   0  0  0  0  0  0  0  0  0  0  0  0
    6.3956   -2.1562   -0.0000 C   0  0  0  0  0  0  0  0  0  0  0  0
   -0.0731   -4.4099   -0.0000 N   0  0  0  0  0  0  0  0  0  0  0  0
    8.9660   -3.6424   -0.0000 C   0  0  0  0  0  0  0  0  0  0  0  0
    7.6747   -1.3888   -0.0000 C   0  0  0  0  0  0  0  0  0  0  0  0
   -0.0853   -5.8961   -0.0000 C   0  0  0  0  0  0  0  0  0  0  0  0
   -1.4009   -3.6546   -0.0000 C   0  0  0  0  0  0  0  0  0  0  0  0
    8.9538   -2.1319   -0.0000 C   0  0  0  0  0  0  0  0  0  0  0  0
   -1.4131   -6.6392   -0.0000 C   0  0  0  0  0  0  0  0  0  0  0  0
   -2.7044   -4.3977   -0.0000 C   0  0  0  0  0  0  0  0  0  0  0  0
   10.2329   -1.3644   -0.0000 C   0  0  0  0  0  0  0  0  0  0  0  0
   10.2207    0.1462   -0.0000 C   0  0  0  0  0  0  0  0  0  0  0  0
   11.5120   -2.1075   -0.0000 C   0  0  0  0  0  0  0  0  0  0  0  0
   11.4998    0.9137   -0.0000 C   0  0  0  0  0  0  0  0  0  0  0  0
   12.8155   -1.3400   -0.0000 C   0  0  0  0  0  0  0  0  0  0  0  0
   12.7911    0.1705   -0.0000 C   0  0  0  0  0  0  0  0  0  0  0  0
   14.0702    0.9502   -0.0000 C   0  0  0  0  0  0  0  0  0  0  0  0
   15.2397    1.6446   -0.0000 F   0  0  0  0  0  0  0  0  0  0  0  0
   15.5321    0.4142   -0.0000 F   0  0  0  0  0  0  0  0  0  0  0  0
   14.3139    2.5095   -0.0000 F   0  0  0  0  0  0  0  0  0  0  0  0
  1  2  1  0  0  0  0
  1  3  1  0  0  0  0
  2  4  2  0  0  0  0
  2  5  1  0  0  0  0
  3  6  1  0  0  0  0
  4  7  1  0  0  0  0
  5  8  1  0  0  0  0
  5  9  1  0  0  0  0
  6 10  2  0  0  0  0
  6 11  1  0  0  0  0
  7 12  2  0  0  0  0
  7 13  1  0  0  0  0
  8 14  1  0  0  0  0
  9 15  1  0  0  0  0
 10 16  1  0  0  0  0
 11 17  2  0  0  0  0
 15 18  2  0  0  0  0
 15 19  1  0  0  0  0
 16 20  2  0  0  0  0
 19 21  1  0  0  0  0
 19 22  1  0  0  0  0
 20 23  1  0  0  0  0
 21 24  1  0  0  0  0
 22 25  1  0  0  0  0
 24 26  2  0  0  0  0
 24 27  1  0  0  0  0
 25 28  1  0  0  0  0
 26 29  1  0  0  0  0
 27 30  2  0  0  0  0
 28 31  1  0  0  0  0
 28 32  1  0  0  0  0
 29 33  2  0  0  0  0
 31 34  1  0  0  0  0
 32 35  1  0  0  0  0
 33 36  1  0  0  0  0
 36 37  2  0  0  0  0
 36 38  1  0  0  0  0
 37 39  1  0  0  0  0
 38 40  2  0  0  0  0
 39 41  2  0  0  0  0
 41 42  1  0  0  0  0
 42 43  1  0  0  0  0
 42 44  1  0  0  0  0
 42 45  1  0  0  0  0
  8 13  2  0  0  0  0
 17 20  1  0  0  0  0
 30 33  1  0  0  0  0
 40 41  1  0  0  0  0
M  END
>  <MolRegNo>
7607

>  <m>
=

>  <Value>
22000

>  <Unit>
nM

>  <Type>
IC50

>  <pValue>
4.66

>  <Ligand Efficiency>
0

>  <Binding Efficiency>
0

>  <Surface Efficiency>
0

>  <Assay Index>
51974

>  <Assay Category>


>  <Assay Organism>


>  <Target ID>
17045

>  <Target Name>
Cytochrome P450 3A4

>  <Target Organism>
Homo sapiens

>  <Target Description>
Target is a single protein chain

>  <Sequence Accession>
P08684

>  <Reference>
Bioorg Med Chem Lett 13 (6), 1067-1070 (2003)

>  <Pubmed ID>
12643913

>  <DOI>
10.1016/s0960-894x(03)00058-1

$$$$
154
Actelion Java MolfileCreator 1.0

 47 51  0  0  0  0  0  0  0  0999 V2000
    0.0000   -0.0000   -0.0000 S   0  0  0  0  0  0  0  0  0  0  0  0
   -0.0118    1.5140   -0.0000 C   0  0  0  0  0  0  0  0  0  0  0  0
   -1.3129   -0.7452   -0.0000 C   0  0  0  0  0  0  0  0  0  0  0  0
   -1.3248    2.2710   -0.0000 N   0  0  0  0  0  0  0  0  0  0  0  0
    1.2775    2.2710   -0.0000 N   0  0  0  0  0  0  0  0  0  0  0  0
   -2.6259    0.0118   -0.0000 C   0  0  0  0  0  0  0  0  0  0  0  0
   -1.3366    3.7851   -0.0000 C   0  0  0  0  0  0  0  0  0  0  0  0
    1.2656    3.7851   -0.0000 C   0  0  0  0  0  0  0  0  0  0  0  0
    2.5668    1.5377   -0.0000 C   0  0  0  0  0  0  0  0  0  0  0  0
   -3.9388   -0.7334   -0.0000 C   0  0  0  0  0  0  0  0  0  0  0  0
   -2.6377    1.5259   -0.0000 C   0  0  0  0  0  0  0  0  0  0  0  0
   -2.6496    4.5421   -0.0000 O   0  0  0  0  0  0  0  0  0  0  0  0
   -0.0473    4.5421   -0.0000 C   0  0  0  0  0  0  0  0  0  0  0  0
    2.3657    4.8023   -0.0000 C   0  0  0  0  0  0  0  0  0  0  0  0
    3.8560    2.2947   -0.0000 C   0  0  0  0  0  0  0  0  0  0  0  0
   -5.2518    0.0237   -0.0000 C   0  0  0  0  0  0  0  0  0  0  0  0
   -3.9507    2.2829   -0.0000 C   0  0  0  0  0  0  0  0  0  0  0  0
    0.2484    6.0206   -0.0000 C   0  0  0  0  0  0  0  0  0  0  0  0
    1.7388    6.1862   -0.0000 C   0  0  0  0  0  0  0  0  0  0  0  0
    3.8442    3.8087   -0.0000 O   0  0  0  0  0  0  0  0  0  0  0  0
    5.1453    1.5613   -0.0000 N   0  0  0  0  0  0  0  0  0  0  0  0
   -5.2636    1.5377   -0.0000 C   0  0  0  0  0  0  0  0  0  0  0  0
    6.4346    2.3184   -0.0000 C   0  0  0  0  0  0  0  0  0  0  0  0
    5.1335    0.0710   -0.0000 C   0  0  0  0  0  0  0  0  0  0  0  0
   -6.5766    2.2947   -0.0000 F   0  0  0  0  0  0  0  0  0  0  0  0
    7.7239    1.5850   -0.0000 C   0  0  0  0  0  0  0  0  0  0  0  0
    3.8206   -0.6742   -0.0000 C   0  0  0  0  0  0  0  0  0  0  0  0
    7.7121    0.0946   -0.0000 C   0  0  0  0  0  0  0  0  0  0  0  0
    9.0132    2.3420   -0.0000 C   0  0  0  0  0  0  0  0  0  0  0  0
    3.8087   -2.1646   -0.0000 N   0  0  0  0  0  0  0  0  0  0  0  0
    9.0014   -0.6506   -0.0000 C   0  0  0  0  0  0  0  0  0  0  0  0
   10.3025    1.6087   -0.0000 C   0  0  0  0  0  0  0  0  0  0  0  0
    5.0980   -2.8980   -0.0000 C   0  0  0  0  0  0  0  0  0  0  0  0
    2.4958   -2.8980   -0.0000 C   0  0  0  0  0  0  0  0  0  0  0  0
   10.2907    0.1065   -0.0000 C   0  0  0  0  0  0  0  0  0  0  0  0
    6.3873   -2.1409   -0.0000 C   0  0  0  0  0  0  0  0  0  0  0  0
    1.1828   -2.1409   -0.0000 C   0  0  0  0  0  0  0  0  0  0  0  0
   11.5800   -0.6387   -0.0000 C   0  0  0  0  0  0  0  0  0  0  0  0
   11.5681   -2.1291   -0.0000 C   0  0  0  0  0  0  0  0  0  0  0  0
   12.8693    0.1183   -0.0000 C   0  0  0  0  0  0  0  0  0  0  0  0
   12.8574   -2.8625   -0.0000 C   0  0  0  0  0  0  0  0  0  0  0  0
   14.1586   -0.6269   -0.0000 C   0  0  0  0  0  0  0  0  0  0  0  0
   14.1467   -2.1054   -0.0000 C   0  0  0  0  0  0  0  0  0  0  0  0
   15.4360   -2.8388   -0.0000 C   0  0  0  0  0  0  0  0  0  0  0  0
   16.7253   -2.0818   -0.0000 F   0  0  0  0  0  0  0  0  0  0  0  0
   15.4242   -4.3292   -0.0000 F   0  0  0  0  0  0  0  0  0  0  0  0
   16.7253   -3.5840   -0.0000 F   0  0  0  0  0  0  0  0  0  0  0  0
  1  2  1  0  0  0  0
  1  3  1  0  0  0  0
  2  4  2  0  0  0  0
  2  5  1  0  0  0  0
  3  6  1  0  0  0  0
  4  7  1  0  0  0  0
  5  8  1  0  0  0  0
  5  9  1  0  0  0  0
  6 10  2  0  0  0  0
  6 11  1  0  0  0  0
  7 12  2  0  0  0  0
  7 13  1  0  0  0  0
  8 14  1  0  0  0  0
  9 15  1  0  0  0  0
 10 16  1  0  0  0  0
 11 17  2  0  0  0  0
 13 18  1  0  0  0  0
 14 19  1  0  0  0  0
 15 20  2  0  0  0  0
 15 21  1  0  0  0  0
 16 22  2  0  0  0  0
 21 23  1  0  0  0  0
 21 24  1  0  0  0  0
 22 25  1  0  0  0  0
 23 26  1  0  0  0  0
 24 27  1  0  0  0  0
 26 28  2  0  0  0  0
 26 29  1  0  0  0  0
 27 30  1  0  0  0  0
 28 31  1  0  0  0  0
 29 32  2  0  0  0  0
 30 33  1  0  0  0  0
 30 34  1  0  0  0  0
 31 35  2  0  0  0  0
 33 36  1  0  0  0  0
 34 37  1  0  0  0  0
 35 38  1  0  0  0  0
 38 39  2  0  0  0  0
 38 40  1  0  0  0  0
 39 41  1  0  0  0  0
 40 42  2  0  0  0  0
 41 43  2  0  0  0  0
 43 44  1  0  0  0  0
 44 45  1  0  0  0  0
 44 46  1  0  0  0  0
 44 47  1  0  0  0  0
  8 13  2  0  0  0  0
 17 22  1  0  0  0  0
 18 19  1  0  0  0  0
 32 35  1  0  0  0  0
 42 43  1  0  0  0  0
M  END
>  <MolRegNo>
154

>  <m>
=

>  <Value>
27000

>  <Unit>
nM

>  <Type>
IC50

>  <pValue>
4.57

>  <Ligand Efficiency>
0

>  <Binding Efficiency>
0

>  <Surface Efficiency>
0

>  <Assay Index>
51974

>  <Assay Category>


>  <Assay Organism>


>  <Target ID>
17045

>  <Target Name>
Cytochrome P450 3A4

>  <Target Organism>
Homo sapiens

>  <Target Description>
Target is a single protein chain

>  <Sequence Accession>
P08684

>  <Reference>
Bioorg Med Chem Lett 13 (6), 1067-1070 (2003)

>  <Pubmed ID>
12643913

>  <DOI>
10.1016/s0960-894x(03)00058-1

$$$$
7755
Actelion Java MolfileCreator 1.0

 51 55  0  0  0  0  0  0  0  0999 V2000
    0.0000   -0.0000   -0.0000 S   0  0  0  0  0  0  0  0  0  0  0  0
    1.2784    0.7621   -0.0000 C   0  0  0  0  0  0  0  0  0  0  0  0
   -1.3030    0.7621   -0.0000 C   0  0  0  0  0  0  0  0  0  0  0  0
    1.2661    2.2741   -0.0000 N   0  0  0  0  0  0  0  0  0  0  0  0
    2.5815    0.0246   -0.0000 N   0  0  0  0  0  0  0  0  0  0  0  0
   -2.6060    0.0123   -0.0000 C   0  0  0  0  0  0  0  0  0  0  0  0
    2.5446    3.0363   -0.0000 C   0  0  0  0  0  0  0  0  0  0  0  0
    3.8599    0.7867   -0.0000 C   0  0  0  0  0  0  0  0  0  0  0  0
    2.5692   -1.4628   -0.0000 C   0  0  0  0  0  0  0  0  0  0  0  0
   -2.6183   -1.4874   -0.0000 C   0  0  0  0  0  0  0  0  0  0  0  0
   -3.9214    0.7744   -0.0000 C   0  0  0  0  0  0  0  0  0  0  0  0
    2.5323    4.5483   -0.0000 O   0  0  0  0  0  0  0  0  0  0  0  0
    3.8476    2.2987   -0.0000 C   0  0  0  0  0  0  0  0  0  0  0  0
    3.8599   -2.2004   -0.0000 C   0  0  0  0  0  0  0  0  0  0  0  0
   -3.9336   -2.2250   -0.0000 C   0  0  0  0  0  0  0  0  0  0  0  0
   -5.2244    0.0369   -0.0000 C   0  0  0  0  0  0  0  0  0  0  0  0
    5.1383    3.0609   -0.0000 C   0  0  0  0  0  0  0  0  0  0  0  0
    5.1383   -1.4382   -0.0000 O   0  0  0  0  0  0  0  0  0  0  0  0
    3.8476   -3.6878   -0.0000 N   0  0  0  0  0  0  0  0  0  0  0  0
   -5.2367   -1.4628   -0.0000 C   0  0  0  0  0  0  0  0  0  0  0  0
    5.1260    4.5729   -0.0000 C   0  0  0  0  0  0  0  0  0  0  0  0
    5.1260   -4.4254   -0.0000 C   0  0  0  0  0  0  0  0  0  0  0  0
    2.5446   -4.4254   -0.0000 C   0  0  0  0  0  0  0  0  0  0  0  0
   -6.5643   -2.2004   -0.0000 F   0  0  0  0  0  0  0  0  0  0  0  0
    3.8845    5.4702   -0.0000 C   0  0  0  0  0  0  0  0  0  0  0  0
    6.3184    5.4702   -0.0000 C   0  0  0  0  0  0  0  0  0  0  0  0
    6.4045   -3.6632   -0.0000 C   0  0  0  0  0  0  0  0  0  0  0  0
    1.2293   -3.6632   -0.0000 C   0  0  0  0  0  0  0  0  0  0  0  0
    4.3516    6.8962   -0.0000 N   0  0  0  0  0  0  0  0  0  0  0  0
    5.8513    6.8962   -0.0000 N   0  0  0  0  0  0  0  0  0  0  0  0
    7.6829   -4.4008   -0.0000 C   0  0  0  0  0  0  0  0  0  0  0  0
    6.3922   -2.1512   -0.0000 C   0  0  0  0  0  0  0  0  0  0  0  0
   -0.0738   -4.4008   -0.0000 N   0  0  0  0  0  0  0  0  0  0  0  0
    6.8962    7.9779   -0.0000 C   0  0  0  0  0  0  0  0  0  0  0  0
    8.9613   -3.6386   -0.0000 C   0  0  0  0  0  0  0  0  0  0  0  0
    7.6706   -1.3891   -0.0000 C   0  0  0  0  0  0  0  0  0  0  0  0
   -0.0860   -5.8882   -0.0000 C   0  0  0  0  0  0  0  0  0  0  0  0
   -1.4014   -3.6386   -0.0000 C   0  0  0  0  0  0  0  0  0  0  0  0
    8.9491   -2.1266   -0.0000 C   0  0  0  0  0  0  0  0  0  0  0  0
   -1.4137   -6.6257   -0.0000 C   0  0  0  0  0  0  0  0  0  0  0  0
   -2.7044   -4.3762   -0.0000 C   0  0  0  0  0  0  0  0  0  0  0  0
   10.2275   -1.3645   -0.0000 C   0  0  0  0  0  0  0  0  0  0  0  0
   10.2152    0.1475   -0.0000 C   0  0  0  0  0  0  0  0  0  0  0  0
   11.5059   -2.1020   -0.0000 C   0  0  0  0  0  0  0  0  0  0  0  0
   11.4936    0.9097   -0.0000 C   0  0  0  0  0  0  0  0  0  0  0  0
   12.8089   -1.3399   -0.0000 C   0  0  0  0  0  0  0  0  0  0  0  0
   12.7844    0.1721   -0.0000 C   0  0  0  0  0  0  0  0  0  0  0  0
   14.0628    0.9465   -0.0000 C   0  0  0  0  0  0  0  0  0  0  0  0
   15.2306    1.6595   -0.0000 F   0  0  0  0  0  0  0  0  0  0  0  0
   15.5256    0.4180   -0.0000 F   0  0  0  0  0  0  0  0  0  0  0  0
   14.2964    2.5200   -0.0000 F   0  0  0  0  0  0  0  0  0  0  0  0
  1  2  1  0  0  0  0
  1  3  1  0  0  0  0
  2  4  2  0  0  0  0
  2  5  1  0  0  0  0
  3  6  1  0  0  0  0
  4  7  1  0  0  0  0
  5  8  1  0  0  0  0
  5  9  1  0  0  0  0
  6 10  2  0  0  0  0
  6 11  1  0  0  0  0
  7 12  2  0  0  0  0
  7 13  1  0  0  0  0
  9 14  1  0  0  0  0
 10 15  1  0  0  0  0
 11 16  2  0  0  0  0
 13 17  1  0  0  0  0
 14 18  2  0  0  0  0
 14 19  1  0  0  0  0
 15 20  2  0  0  0  0
 17 21  1  0  0  0  0
 19 22  1  0  0  0  0
 19 23  1  0  0  0  0
 20 24  1  0  0  0  0
 21 25  1  0  0  0  0
 21 26  2  0  0  0  0
 22 27  1  0  0  0  0
 23 28  1  0  0  0  0
 25 29  2  0  0  0  0
 26 30  1  0  0  0  0
 27 31  2  0  0  0  0
 27 32  1  0  0  0  0
 28 33  1  0  0  0  0
 30 34  1  0  0  0  0
 31 35  1  0  0  0  0
 32 36  2  0  0  0  0
 33 37  1  0  0  0  0
 33 38  1  0  0  0  0
 35 39  2  0  0  0  0
 37 40  1  0  0  0  0
 38 41  1  0  0  0  0
 39 42  1  0  0  0  0
 42 43  2  0  0  0  0
 42 44  1  0  0  0  0
 43 45  1  0  0  0  0
 44 46  2  0  0  0  0
 45 47  2  0  0  0  0
 47 48  1  0  0  0  0
 48 49  1  0  0  0  0
 48 50  1  0  0  0  0
 48 51  1  0  0  0  0
  8 13  2  0  0  0  0
 16 20  1  0  0  0  0
 29 30  1  0  0  0  0
 36 39  1  0  0  0  0
 46 47  1  0  0  0  0
M  END
>  <MolRegNo>
7755

>  <m>
=

>  <Value>
10000

>  <Unit>
nM

>  <Type>
IC50

>  <pValue>
5

>  <Ligand Efficiency>
0

>  <Binding Efficiency>
0

>  <Surface Efficiency>
0

>  <Assay Index>
51974

>  <Assay Category>


>  <Assay Organism>


>  <Target ID>
17045

>  <Target Name>
Cytochrome P450 3A4

>  <Target Organism>
Homo sapiens

>  <Target Description>
Target is a single protein chain

>  <Sequence Accession>
P08684

>  <Reference>
Bioorg Med Chem Lett 13 (6), 1067-1070 (2003)

>  <Pubmed ID>
12643913

>  <DOI>
10.1016/s0960-894x(03)00058-1

$$$$
7663
Actelion Java MolfileCreator 1.0

 43 46  0  0  0  0  0  0  0  0999 V2000
    0.0000   -0.0000   -0.0000 Cl  0  0  0  0  0  0  0  0  0  0  0  0
   -1.3051   -0.7475   -0.0000 C   0  0  0  0  0  0  0  0  0  0  0  0
   -1.3051   -2.2306   -0.0000 C   0  0  0  0  0  0  0  0  0  0  0  0
   -2.6102    0.0119   -0.0000 C   0  0  0  0  0  0  0  0  0  0  0  0
   -2.6221   -2.9662   -0.0000 C   0  0  0  0  0  0  0  0  0  0  0  0
   -3.9035   -0.7356   -0.0000 C   0  0  0  0  0  0  0  0  0  0  0  0
   -3.9272   -2.2068   -0.0000 C   0  0  0  0  0  0  0  0  0  0  0  0
   -5.2323   -2.9543   -0.0000 C   0  0  0  0  0  0  0  0  0  0  0  0
   -6.5374   -2.1950   -0.0000 C   0  0  0  0  0  0  0  0  0  0  0  0
   -5.2442   -4.4374   -0.0000 C   0  0  0  0  0  0  0  0  0  0  0  0
   -7.8307   -2.9306   -0.0000 C   0  0  0  0  0  0  0  0  0  0  0  0
   -6.5493   -5.1730   -0.0000 C   0  0  0  0  0  0  0  0  0  0  0  0
   -7.8425   -4.4018   -0.0000 C   0  0  0  0  0  0  0  0  0  0  0  0
   -9.1477   -5.1374   -0.0000 C   0  0  0  0  0  0  0  0  0  0  0  0
  -10.4528   -4.3781   -0.0000 N   0  0  0  0  0  0  0  0  0  0  0  0
  -10.4646   -2.8713   -0.0000 C   0  0  0  0  0  0  0  0  0  0  0  0
  -11.7579   -5.1137   -0.0000 C   0  0  0  0  0  0  0  0  0  0  0  0
   -9.1833   -2.1119   -0.0000 O   0  0  0  0  0  0  0  0  0  0  0  0
  -11.7698   -2.1119   -0.0000 C   0  0  0  0  0  0  0  0  0  0  0  0
  -13.0630   -4.3543   -0.0000 C   0  0  0  0  0  0  0  0  0  0  0  0
  -11.7816   -0.6051   -0.0000 N   0  0  0  0  0  0  0  0  0  0  0  0
  -14.3681   -5.0899   -0.0000 N   0  0  0  0  0  0  0  0  0  0  0  0
  -13.0986    0.1542   -0.0000 C   0  0  0  0  0  0  0  0  0  0  0  0
  -10.5002    0.1542   -0.0000 C   0  0  0  0  0  0  0  0  0  0  0  0
  -14.3800   -6.5730   -0.0000 C   0  0  0  0  0  0  0  0  0  0  0  0
  -15.6851   -4.3425   -0.0000 C   0  0  0  0  0  0  0  0  0  0  0  0
  -14.4037   -0.5814   -0.0000 S   0  0  0  0  0  0  0  0  0  0  0  0
  -13.1105    1.6492   -0.0000 N   0  0  0  0  0  0  0  0  0  0  0  0
  -10.5121    1.6611   -0.0000 C   0  0  0  0  0  0  0  0  0  0  0  0
  -15.6970   -7.3205   -0.0000 C   0  0  0  0  0  0  0  0  0  0  0  0
  -16.9902   -5.0781   -0.0000 C   0  0  0  0  0  0  0  0  0  0  0  0
  -15.7088    0.1661   -0.0000 C   0  0  0  0  0  0  0  0  0  0  0  0
  -11.8291    2.4204   -0.0000 C   0  0  0  0  0  0  0  0  0  0  0  0
   -9.2307    2.4204   -0.0000 C   0  0  0  0  0  0  0  0  0  0  0  0
  -17.0139   -0.5695   -0.0000 C   0  0  0  0  0  0  0  0  0  0  0  0
  -11.8409    3.9391   -0.0000 O   0  0  0  0  0  0  0  0  0  0  0  0
   -7.9493    1.6848   -0.0000 C   0  0  0  0  0  0  0  0  0  0  0  0
  -17.0258   -2.0645   -0.0000 C   0  0  0  0  0  0  0  0  0  0  0  0
  -18.3191    0.1898   -0.0000 C   0  0  0  0  0  0  0  0  0  0  0  0
  -18.3309   -2.8001   -0.0000 C   0  0  0  0  0  0  0  0  0  0  0  0
  -19.6242   -0.5576   -0.0000 C   0  0  0  0  0  0  0  0  0  0  0  0
  -19.6360   -2.0407   -0.0000 C   0  0  0  0  0  0  0  0  0  0  0  0
  -20.9530   -2.7763   -0.0000 F   0  0  0  0  0  0  0  0  0  0  0  0
  1  2  1  0  0  0  0
  2  3  2  0  0  0  0
  2  4  1  0  0  0  0
  3  5  1  0  0  0  0
  4  6  2  0  0  0  0
  5  7  2  0  0  0  0
  7  8  1  0  0  0  0
  8  9  2  0  0  0  0
  8 10  1  0  0  0  0
  9 11  1  0  0  0  0
 10 12  2  0  0  0  0
 11 13  2  0  0  0  0
 13 14  1  0  0  0  0
 14 15  1  0  0  0  0
 15 16  1  0  0  0  0
 15 17  1  0  0  0  0
 16 18  2  0  0  0  0
 16 19  1  0  0  0  0
 17 20  1  0  0  0  0
 19 21  1  0  0  0  0
 20 22  1  0  0  0  0
 21 23  1  0  0  0  0
 21 24  1  0  0  0  0
 22 25  1  0  0  0  0
 22 26  1  0  0  0  0
 23 27  1  0  0  0  0
 23 28  2  0  0  0  0
 24 29  2  0  0  0  0
 25 30  1  0  0  0  0
 26 31  1  0  0  0  0
 27 32  1  0  0  0  0
 28 33  1  0  0  0  0
 29 34  1  0  0  0  0
 32 35  1  0  0  0  0
 33 36  2  0  0  0  0
 34 37  1  0  0  0  0
 35 38  2  0  0  0  0
 35 39  1  0  0  0  0
 38 40  1  0  0  0  0
 39 41  2  0  0  0  0
 40 42  2  0  0  0  0
 42 43  1  0  0  0  0
  6  7  1  0  0  0  0
 12 13  1  0  0  0  0
 29 33  1  0  0  0  0
 41 42  1  0  0  0  0
M  END
>  <MolRegNo>
7663

>  <m>
=

>  <Value>
7000

>  <Unit>
nM

>  <Type>
IC50

>  <pValue>
5.16

>  <Ligand Efficiency>
0

>  <Binding Efficiency>
0

>  <Surface Efficiency>
0

>  <Assay Index>
51974

>  <Assay Category>


>  <Assay Organism>


>  <Target ID>
17045

>  <Target Name>
Cytochrome P450 3A4

>  <Target Organism>
Homo sapiens

>  <Target Description>
Target is a single protein chain

>  <Sequence Accession>
P08684

>  <Reference>
Bioorg Med Chem Lett 13 (6), 1067-1070 (2003)

>  <Pubmed ID>
12643913

>  <DOI>
10.1016/s0960-894x(03)00058-1

$$$$
7756
Actelion Java MolfileCreator 1.0

 46 49  0  0  0  0  0  0  0  0999 V2000
    0.0000   -0.0000   -0.0000 S   0  0  0  0  0  0  0  0  0  0  0  0
    1.2787    0.7672   -0.0000 C   0  0  0  0  0  0  0  0  0  0  0  0
   -1.3031    0.7672   -0.0000 C   0  0  0  0  0  0  0  0  0  0  0  0
    1.2665    2.2773   -0.0000 N   0  0  0  0  0  0  0  0  0  0  0  0
    2.5818    0.0244   -0.0000 N   0  0  0  0  0  0  0  0  0  0  0  0
   -2.6061    0.0122   -0.0000 C   0  0  0  0  0  0  0  0  0  0  0  0
    2.5453    3.0446   -0.0000 C   0  0  0  0  0  0  0  0  0  0  0  0
    3.8605    0.7916   -0.0000 C   0  0  0  0  0  0  0  0  0  0  0  0
    2.5696   -1.4614   -0.0000 C   0  0  0  0  0  0  0  0  0  0  0  0
   -3.9214    0.7794   -0.0000 C   0  0  0  0  0  0  0  0  0  0  0  0
   -2.6183   -1.4857   -0.0000 C   0  0  0  0  0  0  0  0  0  0  0  0
    2.5331    4.5547   -0.0000 O   0  0  0  0  0  0  0  0  0  0  0  0
    3.8483    2.3017   -0.0000 C   0  0  0  0  0  0  0  0  0  0  0  0
    3.8605   -2.2043   -0.0000 C   0  0  0  0  0  0  0  0  0  0  0  0
   -5.2245    0.0365   -0.0000 C   0  0  0  0  0  0  0  0  0  0  0  0
   -3.9336   -2.2286   -0.0000 C   0  0  0  0  0  0  0  0  0  0  0  0
    5.1392    3.0689   -0.0000 C   0  0  0  0  0  0  0  0  0  0  0  0
    5.1392   -1.4370   -0.0000 O   0  0  0  0  0  0  0  0  0  0  0  0
    3.8483   -3.6900   -0.0000 N   0  0  0  0  0  0  0  0  0  0  0  0
   -5.2366   -1.4614   -0.0000 C   0  0  0  0  0  0  0  0  0  0  0  0
    6.4179    2.3260   -0.0000 C   0  0  0  0  0  0  0  0  0  0  0  0
    5.1270   -4.4329   -0.0000 C   0  0  0  0  0  0  0  0  0  0  0  0
    2.5453   -4.4329   -0.0000 C   0  0  0  0  0  0  0  0  0  0  0  0
   -6.5641   -2.2043   -0.0000 F   0  0  0  0  0  0  0  0  0  0  0  0
    6.4058   -3.6656   -0.0000 C   0  0  0  0  0  0  0  0  0  0  0  0
    1.2300   -3.6656   -0.0000 C   0  0  0  0  0  0  0  0  0  0  0  0
    6.3936   -2.1555   -0.0000 C   0  0  0  0  0  0  0  0  0  0  0  0
    7.6845   -4.4085   -0.0000 C   0  0  0  0  0  0  0  0  0  0  0  0
   -0.0731   -4.4085   -0.0000 N   0  0  0  0  0  0  0  0  0  0  0  0
    7.6723   -1.3883   -0.0000 C   0  0  0  0  0  0  0  0  0  0  0  0
    8.9632   -3.6413   -0.0000 C   0  0  0  0  0  0  0  0  0  0  0  0
   -1.4005   -3.6413   -0.0000 C   0  0  0  0  0  0  0  0  0  0  0  0
   -0.0852   -5.8943   -0.0000 C   0  0  0  0  0  0  0  0  0  0  0  0
    8.9632   -2.1312   -0.0000 C   0  0  0  0  0  0  0  0  0  0  0  0
   -2.7036   -4.3842   -0.0000 C   0  0  0  0  0  0  0  0  0  0  0  0
   -1.4127   -6.6371   -0.0000 C   0  0  0  0  0  0  0  0  0  0  0  0
   10.2419   -1.3640   -0.0000 C   0  0  0  0  0  0  0  0  0  0  0  0
   10.2297    0.1461   -0.0000 C   0  0  0  0  0  0  0  0  0  0  0  0
   11.5206   -2.1068   -0.0000 C   0  0  0  0  0  0  0  0  0  0  0  0
   11.5084    0.9134   -0.0000 C   0  0  0  0  0  0  0  0  0  0  0  0
   12.8237   -1.3396   -0.0000 C   0  0  0  0  0  0  0  0  0  0  0  0
   12.7993    0.1705   -0.0000 C   0  0  0  0  0  0  0  0  0  0  0  0
   14.0780    0.9499   -0.0000 C   0  0  0  0  0  0  0  0  0  0  0  0
   15.2472    1.6441   -0.0000 F   0  0  0  0  0  0  0  0  0  0  0  0
   15.5394    0.4019   -0.0000 F   0  0  0  0  0  0  0  0  0  0  0  0
   14.3216    2.5087   -0.0000 F   0  0  0  0  0  0  0  0  0  0  0  0
  1  2  1  0  0  0  0
  1  3  1  0  0  0  0
  2  4  2  0  0  0  0
  2  5  1  0  0  0  0
  3  6  1  0  0  0  0
  4  7  1  0  0  0  0
  5  8  1  0  0  0  0
  5  9  1  0  0  0  0
  6 10  2  0  0  0  0
  6 11  1  0  0  0  0
  7 12  2  0  0  0  0
  7 13  1  0  0  0  0
  9 14  1  0  0  0  0
 10 15  1  0  0  0  0
 11 16  2  0  0  0  0
 13 17  1  0  0  0  0
 14 18  2  0  0  0  0
 14 19  1  0  0  0  0
 15 20  2  0  0  0  0
 17 21  1  0  0  0  0
 19 22  1  0  0  0  0
 19 23  1  0  0  0  0
 20 24  1  0  0  0  0
 22 25  1  0  0  0  0
 23 26  1  0  0  0  0
 25 27  2  0  0  0  0
 25 28  1  0  0  0  0
 26 29  1  0  0  0  0
 27 30  1  0  0  0  0
 28 31  2  0  0  0  0
 29 32  1  0  0  0  0
 29 33  1  0  0  0  0
 30 34  2  0  0  0  0
 32 35  1  0  0  0  0
 33 36  1  0  0  0  0
 34 37  1  0  0  0  0
 37 38  2  0  0  0  0
 37 39  1  0  0  0  0
 38 40  1  0  0  0  0
 39 41  2  0  0  0  0
 40 42  2  0  0  0  0
 42 43  1  0  0  0  0
 43 44  1  0  0  0  0
 43 45  1  0  0  0  0
 43 46  1  0  0  0  0
  8 13  2  0  0  0  0
 16 20  1  0  0  0  0
 31 34  1  0  0  0  0
 41 42  1  0  0  0  0
M  END
>  <MolRegNo>
7756

>  <m>
=

>  <Value>
11000

>  <Unit>
nM

>  <Type>
IC50

>  <pValue>
4.96

>  <Ligand Efficiency>
0

>  <Binding Efficiency>
0

>  <Surface Efficiency>
0

>  <Assay Index>
51974

>  <Assay Category>


>  <Assay Organism>


>  <Target ID>
17045

>  <Target Name>
Cytochrome P450 3A4

>  <Target Organism>
Homo sapiens

>  <Target Description>
Target is a single protein chain

>  <Sequence Accession>
P08684

>  <Reference>
Bioorg Med Chem Lett 13 (6), 1067-1070 (2003)

>  <Pubmed ID>
12643913

>  <DOI>
10.1016/s0960-894x(03)00058-1

$$$$
7576
Actelion Java MolfileCreator 1.0

 46 49  0  0  0  0  0  0  0  0999 V2000
    0.0000   -0.0000   -0.0000 S   0  0  0  0  0  0  0  0  0  0  0  0
    1.2796    0.7678   -0.0000 C   0  0  0  0  0  0  0  0  0  0  0  0
   -1.3284    0.7556   -0.0000 C   0  0  0  0  0  0  0  0  0  0  0  0
    1.2553    2.2790   -0.0000 N   0  0  0  0  0  0  0  0  0  0  0  0
    2.5715    0.0244   -0.0000 N   0  0  0  0  0  0  0  0  0  0  0  0
   -2.6324    0.0122   -0.0000 C   0  0  0  0  0  0  0  0  0  0  0  0
    2.5593    3.0468   -0.0000 C   0  0  0  0  0  0  0  0  0  0  0  0
    3.8511    0.7922   -0.0000 C   0  0  0  0  0  0  0  0  0  0  0  0
    2.5593   -1.4624   -0.0000 C   0  0  0  0  0  0  0  0  0  0  0  0
   -3.9364    0.7800   -0.0000 C   0  0  0  0  0  0  0  0  0  0  0  0
   -2.6446   -1.4990   -0.0000 C   0  0  0  0  0  0  0  0  0  0  0  0
    2.5471    4.5823   -0.0000 O   0  0  0  0  0  0  0  0  0  0  0  0
    3.8511    2.3034   -0.0000 C   0  0  0  0  0  0  0  0  0  0  0  0
    3.8389   -2.2059   -0.0000 C   0  0  0  0  0  0  0  0  0  0  0  0
   -5.2404    0.0244   -0.0000 C   0  0  0  0  0  0  0  0  0  0  0  0
   -3.9486   -2.2424   -0.0000 C   0  0  0  0  0  0  0  0  0  0  0  0
    5.1308    3.0711   -0.0000 S   0  0  0  0  0  0  0  0  0  0  0  0
    5.1186   -1.4381   -0.0000 O   0  0  0  0  0  0  0  0  0  0  0  0
    3.8267   -3.6927   -0.0000 N   0  0  0  0  0  0  0  0  0  0  0  0
   -5.2526   -1.4624   -0.0000 C   0  0  0  0  0  0  0  0  0  0  0  0
    6.4104    2.3277   -0.0000 C   0  0  0  0  0  0  0  0  0  0  0  0
    5.1308   -4.4361   -0.0000 C   0  0  0  0  0  0  0  0  0  0  0  0
    2.5227   -4.4361   -0.0000 C   0  0  0  0  0  0  0  0  0  0  0  0
   -6.5688   -2.2059   -0.0000 F   0  0  0  0  0  0  0  0  0  0  0  0
    6.4104   -3.6683   -0.0000 C   0  0  0  0  0  0  0  0  0  0  0  0
    1.2187   -3.6683   -0.0000 C   0  0  0  0  0  0  0  0  0  0  0  0
    6.3860   -2.1571   -0.0000 C   0  0  0  0  0  0  0  0  0  0  0  0
    7.6900   -4.4117   -0.0000 C   0  0  0  0  0  0  0  0  0  0  0  0
   -0.0853   -4.4117   -0.0000 N   0  0  0  0  0  0  0  0  0  0  0  0
    7.6657   -1.3893   -0.0000 C   0  0  0  0  0  0  0  0  0  0  0  0
    8.9697   -3.6439   -0.0000 C   0  0  0  0  0  0  0  0  0  0  0  0
   -1.4015   -3.6561   -0.0000 C   0  0  0  0  0  0  0  0  0  0  0  0
   -0.0975   -5.8985   -0.0000 C   0  0  0  0  0  0  0  0  0  0  0  0
    8.9697   -2.1327   -0.0000 C   0  0  0  0  0  0  0  0  0  0  0  0
   -2.7055   -4.3995   -0.0000 C   0  0  0  0  0  0  0  0  0  0  0  0
   -1.4137   -6.6419   -0.0000 C   0  0  0  0  0  0  0  0  0  0  0  0
   10.2493   -1.3650   -0.0000 C   0  0  0  0  0  0  0  0  0  0  0  0
   11.5290   -2.1084   -0.0000 C   0  0  0  0  0  0  0  0  0  0  0  0
   10.2249    0.1462   -0.0000 C   0  0  0  0  0  0  0  0  0  0  0  0
   12.8208   -1.3406   -0.0000 C   0  0  0  0  0  0  0  0  0  0  0  0
   11.5046    0.9140   -0.0000 C   0  0  0  0  0  0  0  0  0  0  0  0
   12.7964    0.1706   -0.0000 C   0  0  0  0  0  0  0  0  0  0  0  0
   14.0761    0.9506   -0.0000 C   0  0  0  0  0  0  0  0  0  0  0  0
   15.2338    1.6453   -0.0000 F   0  0  0  0  0  0  0  0  0  0  0  0
   15.5263    0.4144   -0.0000 F   0  0  0  0  0  0  0  0  0  0  0  0
   14.2954    2.5105   -0.0000 F   0  0  0  0  0  0  0  0  0  0  0  0
  1  2  1  0  0  0  0
  1  3  1  0  0  0  0
  2  4  2  0  0  0  0
  2  5  1  0  0  0  0
  3  6  1  0  0  0  0
  4  7  1  0  0  0  0
  5  8  1  0  0  0  0
  5  9  1  0  0  0  0
  6 10  2  0  0  0  0
  6 11  1  0  0  0  0
  7 12  2  0  0  0  0
  7 13  1  0  0  0  0
  9 14  1  0  0  0  0
 10 15  1  0  0  0  0
 11 16  2  0  0  0  0
 13 17  1  0  0  0  0
 14 18  2  0  0  0  0
 14 19  1  0  0  0  0
 15 20  2  0  0  0  0
 17 21  1  0  0  0  0
 19 22  1  0  0  0  0
 19 23  1  0  0  0  0
 20 24  1  0  0  0  0
 22 25  1  0  0  0  0
 23 26  1  0  0  0  0
 25 27  2  0  0  0  0
 25 28  1  0  0  0  0
 26 29  1  0  0  0  0
 27 30  1  0  0  0  0
 28 31  2  0  0  0  0
 29 32  1  0  0  0  0
 29 33  1  0  0  0  0
 30 34  2  0  0  0  0
 32 35  1  0  0  0  0
 33 36  1  0  0  0  0
 34 37  1  0  0  0  0
 37 38  2  0  0  0  0
 37 39  1  0  0  0  0
 38 40  1  0  0  0  0
 39 41  2  0  0  0  0
 40 42  2  0  0  0  0
 42 43  1  0  0  0  0
 43 44  1  0  0  0  0
 43 45  1  0  0  0  0
 43 46  1  0  0  0  0
  8 13  2  0  0  0  0
 16 20  1  0  0  0  0
 31 34  1  0  0  0  0
 41 42  1  0  0  0  0
M  END
>  <MolRegNo>
7576

>  <m>
=

>  <Value>
15000

>  <Unit>
nM

>  <Type>
IC50

>  <pValue>
4.82

>  <Ligand Efficiency>
0

>  <Binding Efficiency>
0

>  <Surface Efficiency>
0

>  <Assay Index>
51974

>  <Assay Category>


>  <Assay Organism>


>  <Target ID>
17045

>  <Target Name>
Cytochrome P450 3A4

>  <Target Organism>
Homo sapiens

>  <Target Description>
Target is a single protein chain

>  <Sequence Accession>
P08684

>  <Reference>
Bioorg Med Chem Lett 13 (6), 1067-1070 (2003)

>  <Pubmed ID>
12643913

>  <DOI>
10.1016/s0960-894x(03)00058-1

$$$$
7571
Actelion Java MolfileCreator 1.0

 42 45  0  0  0  0  0  0  0  0999 V2000
    0.0000   -0.0000   -0.0000 Cl  0  0  0  0  0  0  0  0  0  0  0  0
   -1.3030   -0.7462   -0.0000 C   0  0  0  0  0  0  0  0  0  0  0  0
   -1.3148   -2.2269   -0.0000 C   0  0  0  0  0  0  0  0  0  0  0  0
   -2.6296    0.0118   -0.0000 C   0  0  0  0  0  0  0  0  0  0  0  0
   -2.6178   -2.9613   -0.0000 C   0  0  0  0  0  0  0  0  0  0  0  0
   -3.9207   -0.7225   -0.0000 C   0  0  0  0  0  0  0  0  0  0  0  0
   -3.9207   -2.2032   -0.0000 C   0  0  0  0  0  0  0  0  0  0  0  0
   -5.2237   -2.9376   -0.0000 C   0  0  0  0  0  0  0  0  0  0  0  0
   -6.5503   -2.1795   -0.0000 C   0  0  0  0  0  0  0  0  0  0  0  0
   -5.2355   -4.4182   -0.0000 C   0  0  0  0  0  0  0  0  0  0  0  0
   -7.8414   -2.9139   -0.0000 C   0  0  0  0  0  0  0  0  0  0  0  0
   -6.5385   -5.1526   -0.0000 C   0  0  0  0  0  0  0  0  0  0  0  0
   -7.8414   -4.3945   -0.0000 C   0  0  0  0  0  0  0  0  0  0  0  0
   -9.1444   -5.1289   -0.0000 C   0  0  0  0  0  0  0  0  0  0  0  0
  -10.4592   -4.3708   -0.0000 N   0  0  0  0  0  0  0  0  0  0  0  0
  -10.4710   -2.8665   -0.0000 C   0  0  0  0  0  0  0  0  0  0  0  0
  -11.7621   -5.1052   -0.0000 C   0  0  0  0  0  0  0  0  0  0  0  0
   -9.1918   -2.1084   -0.0000 O   0  0  0  0  0  0  0  0  0  0  0  0
  -11.7858   -2.1084   -0.0000 C   0  0  0  0  0  0  0  0  0  0  0  0
  -13.0769   -4.3471   -0.0000 C   0  0  0  0  0  0  0  0  0  0  0  0
  -11.7977   -0.6041   -0.0000 N   0  0  0  0  0  0  0  0  0  0  0  0
  -14.3799   -5.0815   -0.0000 N   0  0  0  0  0  0  0  0  0  0  0  0
  -13.1006    0.1540   -0.0000 C   0  0  0  0  0  0  0  0  0  0  0  0
  -10.5184    0.1540   -0.0000 C   0  0  0  0  0  0  0  0  0  0  0  0
  -15.6829   -4.3234   -0.0000 C   0  0  0  0  0  0  0  0  0  0  0  0
  -14.3917   -6.5622   -0.0000 C   0  0  0  0  0  0  0  0  0  0  0  0
  -14.4036   -0.5804   -0.0000 S   0  0  0  0  0  0  0  0  0  0  0  0
  -13.1243    1.6583   -0.0000 N   0  0  0  0  0  0  0  0  0  0  0  0
  -10.5303    1.6583   -0.0000 C   0  0  0  0  0  0  0  0  0  0  0  0
  -16.9858   -5.0578   -0.0000 C   0  0  0  0  0  0  0  0  0  0  0  0
  -15.6947   -7.2966   -0.0000 C   0  0  0  0  0  0  0  0  0  0  0  0
  -15.7184    0.1777   -0.0000 C   0  0  0  0  0  0  0  0  0  0  0  0
  -11.8332    2.4164   -0.0000 C   0  0  0  0  0  0  0  0  0  0  0  0
   -9.2391    2.4164   -0.0000 C   0  0  0  0  0  0  0  0  0  0  0  0
  -17.0213   -0.5686   -0.0000 C   0  0  0  0  0  0  0  0  0  0  0  0
  -11.8451    3.9207   -0.0000 O   0  0  0  0  0  0  0  0  0  0  0  0
  -17.0332   -2.0610   -0.0000 C   0  0  0  0  0  0  0  0  0  0  0  0
  -18.3361    0.1895   -0.0000 C   0  0  0  0  0  0  0  0  0  0  0  0
  -18.3480   -2.7954   -0.0000 C   0  0  0  0  0  0  0  0  0  0  0  0
  -19.6391   -0.5449   -0.0000 C   0  0  0  0  0  0  0  0  0  0  0  0
  -19.6509   -2.0373   -0.0000 C   0  0  0  0  0  0  0  0  0  0  0  0
  -20.9539   -2.7717   -0.0000 F   0  0  0  0  0  0  0  0  0  0  0  0
  1  2  1  0  0  0  0
  2  3  2  0  0  0  0
  2  4  1  0  0  0  0
  3  5  1  0  0  0  0
  4  6  2  0  0  0  0
  5  7  2  0  0  0  0
  7  8  1  0  0  0  0
  8  9  2  0  0  0  0
  8 10  1  0  0  0  0
  9 11  1  0  0  0  0
 10 12  2  0  0  0  0
 11 13  2  0  0  0  0
 13 14  1  0  0  0  0
 14 15  1  0  0  0  0
 15 16  1  0  0  0  0
 15 17  1  0  0  0  0
 16 18  2  0  0  0  0
 16 19  1  0  0  0  0
 17 20  1  0  0  0  0
 19 21  1  0  0  0  0
 20 22  1  0  0  0  0
 21 23  1  0  0  0  0
 21 24  1  0  0  0  0
 22 25  1  0  0  0  0
 22 26  1  0  0  0  0
 23 27  1  0  0  0  0
 23 28  2  0  0  0  0
 24 29  2  0  0  0  0
 25 30  1  0  0  0  0
 26 31  1  0  0  0  0
 27 32  1  0  0  0  0
 28 33  1  0  0  0  0
 29 34  1  0  0  0  0
 32 35  1  0  0  0  0
 33 36  2  0  0  0  0
 35 37  2  0  0  0  0
 35 38  1  0  0  0  0
 37 39  1  0  0  0  0
 38 40  2  0  0  0  0
 39 41  2  0  0  0  0
 41 42  1  0  0  0  0
  6  7  1  0  0  0  0
 12 13  1  0  0  0  0
 29 33  1  0  0  0  0
 40 41  1  0  0  0  0
M  END
>  <MolRegNo>
7571

>  <m>
=

>  <Value>
13000

>  <Unit>
nM

>  <Type>
IC50

>  <pValue>
4.89

>  <Ligand Efficiency>
0

>  <Binding Efficiency>
0

>  <Surface Efficiency>
0

>  <Assay Index>
51974

>  <Assay Category>


>  <Assay Organism>


>  <Target ID>
17045

>  <Target Name>
Cytochrome P450 3A4

>  <Target Organism>
Homo sapiens

>  <Target Description>
Target is a single protein chain

>  <Sequence Accession>
P08684

>  <Reference>
Bioorg Med Chem Lett 13 (6), 1067-1070 (2003)

>  <Pubmed ID>
12643913

>  <DOI>
10.1016/s0960-894x(03)00058-1

$$$$
7726
Actelion Java MolfileCreator 1.0

 44 48  0  0  0  0  0  0  0  0999 V2000
    0.0000   -0.0000   -0.0000 Cl  0  0  0  0  0  0  0  0  0  0  0  0
   -1.3072   -0.7419   -0.0000 C   0  0  0  0  0  0  0  0  0  0  0  0
   -1.3072   -2.2258   -0.0000 C   0  0  0  0  0  0  0  0  0  0  0  0
   -2.6262    0.0118   -0.0000 C   0  0  0  0  0  0  0  0  0  0  0  0
   -2.6144   -2.9560   -0.0000 C   0  0  0  0  0  0  0  0  0  0  0  0
   -3.9334   -0.7419   -0.0000 C   0  0  0  0  0  0  0  0  0  0  0  0
   -3.9217   -2.2023   -0.0000 C   0  0  0  0  0  0  0  0  0  0  0  0
   -5.2289   -2.9560   -0.0000 C   0  0  0  0  0  0  0  0  0  0  0  0
   -5.2407   -4.4398   -0.0000 C   0  0  0  0  0  0  0  0  0  0  0  0
   -6.5479   -2.2023   -0.0000 C   0  0  0  0  0  0  0  0  0  0  0  0
   -6.5479   -5.1700   -0.0000 C   0  0  0  0  0  0  0  0  0  0  0  0
   -7.8551   -2.9442   -0.0000 C   0  0  0  0  0  0  0  0  0  0  0  0
   -7.8551   -4.3927   -0.0000 C   0  0  0  0  0  0  0  0  0  0  0  0
   -9.1623   -5.1347   -0.0000 C   0  0  0  0  0  0  0  0  0  0  0  0
  -10.4813   -4.3809   -0.0000 N   0  0  0  0  0  0  0  0  0  0  0  0
  -10.4931   -2.8735   -0.0000 C   0  0  0  0  0  0  0  0  0  0  0  0
  -11.7885   -5.1229   -0.0000 C   0  0  0  0  0  0  0  0  0  0  0  0
   -9.2094   -2.1198   -0.0000 O   0  0  0  0  0  0  0  0  0  0  0  0
  -11.8003   -2.1198   -0.0000 C   0  0  0  0  0  0  0  0  0  0  0  0
  -13.0957   -4.3692   -0.0000 C   0  0  0  0  0  0  0  0  0  0  0  0
  -11.8121   -0.6124   -0.0000 N   0  0  0  0  0  0  0  0  0  0  0  0
  -14.4030   -5.1111   -0.0000 N   0  0  0  0  0  0  0  0  0  0  0  0
  -13.1428    0.1413   -0.0000 C   0  0  0  0  0  0  0  0  0  0  0  0
  -10.5284    0.1413   -0.0000 C   0  0  0  0  0  0  0  0  0  0  0  0
  -15.7102   -4.3692   -0.0000 C   0  0  0  0  0  0  0  0  0  0  0  0
  -14.4147   -6.5950   -0.0000 C   0  0  0  0  0  0  0  0  0  0  0  0
  -14.4265   -0.6006   -0.0000 S   0  0  0  0  0  0  0  0  0  0  0  0
  -13.1546    1.6370   -0.0000 N   0  0  0  0  0  0  0  0  0  0  0  0
  -10.5402    1.6487   -0.0000 C   0  0  0  0  0  0  0  0  0  0  0  0
   -9.1152   -0.3180   -0.0000 C   0  0  0  0  0  0  0  0  0  0  0  0
  -17.0174   -5.0993   -0.0000 C   0  0  0  0  0  0  0  0  0  0  0  0
  -15.7220   -7.3487   -0.0000 C   0  0  0  0  0  0  0  0  0  0  0  0
  -15.7455    0.1413   -0.0000 C   0  0  0  0  0  0  0  0  0  0  0  0
  -11.8592    2.4142   -0.0000 C   0  0  0  0  0  0  0  0  0  0  0  0
   -9.1270    2.1080   -0.0000 C   0  0  0  0  0  0  0  0  0  0  0  0
   -8.2555    0.9068   -0.0000 C   0  0  0  0  0  0  0  0  0  0  0  0
  -17.0527   -0.6006   -0.0000 C   0  0  0  0  0  0  0  0  0  0  0  0
  -11.8710    3.9217   -0.0000 O   0  0  0  0  0  0  0  0  0  0  0  0
  -18.3599    0.1531   -0.0000 C   0  0  0  0  0  0  0  0  0  0  0  0
  -17.0645   -2.0845   -0.0000 C   0  0  0  0  0  0  0  0  0  0  0  0
  -19.6672   -0.5888   -0.0000 C   0  0  0  0  0  0  0  0  0  0  0  0
  -18.3717   -2.8146   -0.0000 C   0  0  0  0  0  0  0  0  0  0  0  0
  -19.6789   -2.0727   -0.0000 C   0  0  0  0  0  0  0  0  0  0  0  0
  -20.9862   -2.8029   -0.0000 F   0  0  0  0  0  0  0  0  0  0  0  0
  1  2  1  0  0  0  0
  2  3  2  0  0  0  0
  2  4  1  0  0  0  0
  3  5  1  0  0  0  0
  4  6  2  0  0  0  0
  5  7  2  0  0  0  0
  7  8  1  0  0  0  0
  8  9  2  0  0  0  0
  8 10  1  0  0  0  0
  9 11  1  0  0  0  0
 10 12  2  0  0  0  0
 11 13  2  0  0  0  0
 13 14  1  0  0  0  0
 14 15  1  0  0  0  0
 15 16  1  0  0  0  0
 15 17  1  0  0  0  0
 16 18  2  0  0  0  0
 16 19  1  0  0  0  0
 17 20  1  0  0  0  0
 19 21  1  0  0  0  0
 20 22  1  0  0  0  0
 21 23  1  0  0  0  0
 21 24  1  0  0  0  0
 22 25  1  0  0  0  0
 22 26  1  0  0  0  0
 23 27  1  0  0  0  0
 23 28  2  0  0  0  0
 24 29  2  0  0  0  0
 24 30  1  0  0  0  0
 25 31  1  0  0  0  0
 26 32  1  0  0  0  0
 27 33  1  0  0  0  0
 28 34  1  0  0  0  0
 29 35  1  0  0  0  0
 30 36  1  0  0  0  0
 33 37  1  0  0  0  0
 34 38  2  0  0  0  0
 37 39  2  0  0  0  0
 37 40  1  0  0  0  0
 39 41  1  0  0  0  0
 40 42  2  0  0  0  0
 41 43  2  0  0  0  0
 43 44  1  0  0  0  0
  6  7  1  0  0  0  0
 12 13  1  0  0  0  0
 29 34  1  0  0  0  0
 35 36  1  0  0  0  0
 42 43  1  0  0  0  0
M  END
>  <MolRegNo>
7726

>  <m>
=

>  <Value>
18000

>  <Unit>
nM

>  <Type>
IC50

>  <pValue>
4.75

>  <Ligand Efficiency>
0

>  <Binding Efficiency>
0

>  <Surface Efficiency>
0

>  <Assay Index>
51974

>  <Assay Category>


>  <Assay Organism>


>  <Target ID>
17045

>  <Target Name>
Cytochrome P450 3A4

>  <Target Organism>
Homo sapiens

>  <Target Description>
Target is a single protein chain

>  <Sequence Accession>
P08684

>  <Reference>
Bioorg Med Chem Lett 13 (6), 1067-1070 (2003)

>  <Pubmed ID>
12643913

>  <DOI>
10.1016/s0960-894x(03)00058-1

$$$$
7572
Actelion Java MolfileCreator 1.0

 48 52  0  0  0  0  0  0  0  0999 V2000
    0.0000   -0.0000   -0.0000 S   0  0  0  0  0  0  0  0  0  0  0  0
    1.2808    0.7685   -0.0000 C   0  0  0  0  0  0  0  0  0  0  0  0
   -1.3051    0.7563   -0.0000 C   0  0  0  0  0  0  0  0  0  0  0  0
    1.2686    2.2810   -0.0000 N   0  0  0  0  0  0  0  0  0  0  0  0
    2.5859    0.0244   -0.0000 N   0  0  0  0  0  0  0  0  0  0  0  0
   -2.6103    0.0122   -0.0000 C   0  0  0  0  0  0  0  0  0  0  0  0
    2.5493    3.0494   -0.0000 C   0  0  0  0  0  0  0  0  0  0  0  0
    3.8667    0.7928   -0.0000 C   0  0  0  0  0  0  0  0  0  0  0  0
    2.5737   -1.4637   -0.0000 C   0  0  0  0  0  0  0  0  0  0  0  0
   -2.6225   -1.5003   -0.0000 C   0  0  0  0  0  0  0  0  0  0  0  0
   -3.9276    0.7806   -0.0000 C   0  0  0  0  0  0  0  0  0  0  0  0
    2.5371    4.5619   -0.0000 O   0  0  0  0  0  0  0  0  0  0  0  0
    3.8301    2.3054   -0.0000 C   0  0  0  0  0  0  0  0  0  0  0  0
    5.1352    0.0732   -0.0000 C   0  0  0  0  0  0  0  0  0  0  0  0
    3.8667   -2.2078   -0.0000 C   0  0  0  0  0  0  0  0  0  0  0  0
   -3.9398   -2.2200   -0.0000 C   0  0  0  0  0  0  0  0  0  0  0  0
   -5.2328    0.0244   -0.0000 C   0  0  0  0  0  0  0  0  0  0  0  0
    5.1108    3.0738   -0.0000 C   0  0  0  0  0  0  0  0  0  0  0  0
    6.4160    0.8172   -0.0000 C   0  0  0  0  0  0  0  0  0  0  0  0
    5.1474   -1.4393   -0.0000 O   0  0  0  0  0  0  0  0  0  0  0  0
    3.8545   -3.6959   -0.0000 N   0  0  0  0  0  0  0  0  0  0  0  0
   -5.2450   -1.4759   -0.0000 C   0  0  0  0  0  0  0  0  0  0  0  0
    6.3916    2.3541   -0.0000 C   0  0  0  0  0  0  0  0  0  0  0  0
    5.1352   -4.4399   -0.0000 C   0  0  0  0  0  0  0  0  0  0  0  0
    2.5493   -4.4399   -0.0000 C   0  0  0  0  0  0  0  0  0  0  0  0
   -6.5745   -2.1956   -0.0000 F   0  0  0  0  0  0  0  0  0  0  0  0
    6.4160   -3.6715   -0.0000 C   0  0  0  0  0  0  0  0  0  0  0  0
    1.2320   -3.6715   -0.0000 C   0  0  0  0  0  0  0  0  0  0  0  0
    7.6967   -4.4155   -0.0000 C   0  0  0  0  0  0  0  0  0  0  0  0
    6.4038   -2.1590   -0.0000 C   0  0  0  0  0  0  0  0  0  0  0  0
   -0.0732   -4.4155   -0.0000 N   0  0  0  0  0  0  0  0  0  0  0  0
    8.9775   -3.6471   -0.0000 C   0  0  0  0  0  0  0  0  0  0  0  0
    7.6845   -1.3905   -0.0000 C   0  0  0  0  0  0  0  0  0  0  0  0
   -1.4027   -3.6593   -0.0000 C   0  0  0  0  0  0  0  0  0  0  0  0
   -0.0854   -5.9037   -0.0000 C   0  0  0  0  0  0  0  0  0  0  0  0
    8.9653   -2.1346   -0.0000 C   0  0  0  0  0  0  0  0  0  0  0  0
   -2.7079   -4.4034   -0.0000 C   0  0  0  0  0  0  0  0  0  0  0  0
   -1.4149   -6.6477   -0.0000 C   0  0  0  0  0  0  0  0  0  0  0  0
   10.2460   -1.3661   -0.0000 C   0  0  0  0  0  0  0  0  0  0  0  0
   10.2338    0.1464   -0.0000 C   0  0  0  0  0  0  0  0  0  0  0  0
   11.5268   -2.1102   -0.0000 C   0  0  0  0  0  0  0  0  0  0  0  0
   11.5146    0.9148   -0.0000 C   0  0  0  0  0  0  0  0  0  0  0  0
   12.8319   -1.3417   -0.0000 C   0  0  0  0  0  0  0  0  0  0  0  0
   12.8075    0.1708   -0.0000 C   0  0  0  0  0  0  0  0  0  0  0  0
   14.0883    0.9514   -0.0000 C   0  0  0  0  0  0  0  0  0  0  0  0
   14.3322    2.5127   -0.0000 F   0  0  0  0  0  0  0  0  0  0  0  0
   15.2593    1.6467   -0.0000 F   0  0  0  0  0  0  0  0  0  0  0  0
   15.5520    0.4147   -0.0000 F   0  0  0  0  0  0  0  0  0  0  0  0
  1  2  1  0  0  0  0
  1  3  1  0  0  0  0
  2  4  2  0  0  0  0
  2  5  1  0  0  0  0
  3  6  1  0  0  0  0
  4  7  1  0  0  0  0
  5  8  1  0  0  0  0
  5  9  1  0  0  0  0
  6 10  2  0  0  0  0
  6 11  1  0  0  0  0
  7 12  2  0  0  0  0
  7 13  1  0  0  0  0
  8 14  1  0  0  0  0
  9 15  1  0  0  0  0
 10 16  1  0  0  0  0
 11 17  2  0  0  0  0
 13 18  1  0  0  0  0
 14 19  1  0  0  0  0
 15 20  2  0  0  0  0
 15 21  1  0  0  0  0
 16 22  2  0  0  0  0
 18 23  1  0  0  0  0
 21 24  1  0  0  0  0
 21 25  1  0  0  0  0
 22 26  1  0  0  0  0
 24 27  1  0  0  0  0
 25 28  1  0  0  0  0
 27 29  2  0  0  0  0
 27 30  1  0  0  0  0
 28 31  1  0  0  0  0
 29 32  1  0  0  0  0
 30 33  2  0  0  0  0
 31 34  1  0  0  0  0
 31 35  1  0  0  0  0
 32 36  2  0  0  0  0
 34 37  1  0  0  0  0
 35 38  1  0  0  0  0
 36 39  1  0  0  0  0
 39 40  2  0  0  0  0
 39 41  1  0  0  0  0
 40 42  1  0  0  0  0
 41 43  2  0  0  0  0
 42 44  2  0  0  0  0
 44 45  1  0  0  0  0
 45 46  1  0  0  0  0
 45 47  1  0  0  0  0
 45 48  1  0  0  0  0
  8 13  2  0  0  0  0
 17 22  1  0  0  0  0
 19 23  1  0  0  0  0
 33 36  1  0  0  0  0
 43 44  1  0  0  0  0
M  END
>  <MolRegNo>
7572

>  <m>
=

>  <Value>
10000

>  <Unit>
nM

>  <Type>
IC50

>  <pValue>
5

>  <Ligand Efficiency>
0

>  <Binding Efficiency>
0

>  <Surface Efficiency>
0

>  <Assay Index>
51974

>  <Assay Category>


>  <Assay Organism>


>  <Target ID>
17045

>  <Target Name>
Cytochrome P450 3A4

>  <Target Organism>
Homo sapiens

>  <Target Description>
Target is a single protein chain

>  <Sequence Accession>
P08684

>  <Reference>
Bioorg Med Chem Lett 13 (6), 1067-1070 (2003)

>  <Pubmed ID>
12643913

>  <DOI>
10.1016/s0960-894x(03)00058-1

$$$$
37255
Actelion Java MolfileCreator 1.0

 33 37  0  0  0  0  0  0  0  0999 V2000
    0.0000   -0.0000   -0.0000 F   0  0  0  0  0  0  0  0  0  0  0  0
   -1.4203   -0.4578   -0.0000 C   0  0  0  0  0  0  0  0  0  0  0  0
   -1.7490   -1.9133   -0.0000 C   0  0  0  0  0  0  0  0  0  0  0  0
   -2.5355    0.5517   -0.0000 C   0  0  0  0  0  0  0  0  0  0  0  0
   -0.6573   -2.8993   -0.0000 F   0  0  0  0  0  0  0  0  0  0  0  0
   -3.1811   -2.3476   -0.0000 C   0  0  0  0  0  0  0  0  0  0  0  0
   -3.9675    0.1056   -0.0000 C   0  0  0  0  0  0  0  0  0  0  0  0
   -4.2962   -1.3264   -0.0000 C   0  0  0  0  0  0  0  0  0  0  0  0
   -5.0826    1.1151   -0.0000 C   0  0  0  0  0  0  0  0  0  0  0  0
   -4.7775    2.5824   -0.0000 C   0  0  0  0  0  0  0  0  0  0  0  0
   -5.8808    3.5919   -0.0000 N   0  0  0  0  0  0  0  0  0  0  0  0
   -5.5874    5.0709   -0.0000 C   0  0  0  0  0  0  0  0  0  0  0  0
   -7.3129    3.1576   -0.0000 C   0  0  0  0  0  0  0  0  0  0  0  0
   -6.6908    6.0804   -0.0000 C   0  0  0  0  0  0  0  0  0  0  0  0
   -8.4280    4.1553   -0.0000 C   0  0  0  0  0  0  0  0  0  0  0  0
   -8.1228    5.6343   -0.0000 N   0  0  0  0  0  0  0  0  0  0  0  0
   -9.2380    6.6438   -0.0000 C   0  0  0  0  0  0  0  0  0  0  0  0
   -8.8858    8.0994   -0.0000 N   0  0  0  0  0  0  0  0  0  0  0  0
  -10.6935    6.2330   -0.0000 C   0  0  0  0  0  0  0  0  0  0  0  0
   -9.9892    9.1558   -0.0000 C   0  0  0  0  0  0  0  0  0  0  0  0
  -11.3508    4.9066   -0.0000 N   0  0  0  0  0  0  0  0  0  0  0  0
  -11.7734    7.2894   -0.0000 C   0  0  0  0  0  0  0  0  0  0  0  0
  -11.4448    8.7450   -0.0000 N   0  0  0  0  0  0  0  0  0  0  0  0
  -12.8533    5.1179   -0.0000 C   0  0  0  0  0  0  0  0  0  0  0  0
  -13.1116    6.5969   -0.0000 C   0  0  0  0  0  0  0  0  0  0  0  0
  -14.0154    4.1671   -0.0000 C   0  0  0  0  0  0  0  0  0  0  0  0
  -14.5202    7.1251   -0.0000 C   0  0  0  0  0  0  0  0  0  0  0  0
  -15.4240    4.6953   -0.0000 C   0  0  0  0  0  0  0  0  0  0  0  0
  -15.6705    6.1743   -0.0000 C   0  0  0  0  0  0  0  0  0  0  0  0
  -17.0791    6.7025   -0.0000 C   0  0  0  0  0  0  0  0  0  0  0  0
  -17.3491    8.1815   -0.0000 O   0  0  0  0  0  0  0  0  0  0  0  0
  -18.2294    5.7635   -0.0000 O   0  0  0  0  0  0  0  0  0  0  0  0
  -19.6380    6.2799   -0.0000 C   0  0  0  0  0  0  0  0  0  0  0  0
  1  2  1  0  0  0  0
  2  3  2  0  0  0  0
  2  4  1  0  0  0  0
  3  5  1  0  0  0  0
  3  6  1  0  0  0  0
  4  7  2  0  0  0  0
  6  8  2  0  0  0  0
  7  9  1  0  0  0  0
  9 10  1  0  0  0  0
 10 11  1  0  0  0  0
 11 12  1  0  0  0  0
 11 13  1  0  0  0  0
 12 14  1  0  0  0  0
 13 15  1  0  0  0  0
 14 16  1  0  0  0  0
 16 17  1  0  0  0  0
 17 18  2  0  0  0  0
 17 19  1  0  0  0  0
 18 20  1  0  0  0  0
 19 21  1  0  0  0  0
 19 22  2  0  0  0  0
 20 23  2  0  0  0  0
 21 24  1  0  0  0  0
 22 25  1  0  0  0  0
 24 26  1  0  0  0  0
 25 27  1  0  0  0  0
 26 28  2  0  0  0  0
 27 29  2  0  0  0  0
 29 30  1  0  0  0  0
 30 31  2  0  0  0  0
 30 32  1  0  0  0  0
 32 33  1  0  0  0  0
  7  8  1  0  0  0  0
 15 16  1  0  0  0  0
 22 23  1  0  0  0  0
 24 25  2  0  0  0  0
 28 29  1  0  0  0  0
M  END
>  <MolRegNo>
37255

>  <m>
=

>  <Value>
2530

>  <Unit>
nM

>  <Type>
IC50

>  <pValue>
5.6

>  <Ligand Efficiency>
0

>  <Binding Efficiency>
0

>  <Surface Efficiency>
0

>  <Assay Index>
51975

>  <Assay Category>


>  <Assay Organism>


>  <Target ID>
17045

>  <Target Name>
Cytochrome P450 3A4

>  <Target Organism>
Homo sapiens

>  <Target Description>
Target is a single protein chain

>  <Sequence Accession>
P08684

>  <Reference>
J Med Chem 47 (6), 1339-1350 (2004)

>  <Pubmed ID>
14998324

>  <DOI>
10.1021/jm0310129

$$$$
37032
Actelion Java MolfileCreator 1.0

 30 34  0  0  0  0  0  0  0  0999 V2000
    0.0000   -0.0000   -0.0000 F   0  0  0  0  0  0  0  0  0  0  0  0
   -1.4326   -0.4580   -0.0000 C   0  0  0  0  0  0  0  0  0  0  0  0
   -1.7614   -1.9140   -0.0000 C   0  0  0  0  0  0  0  0  0  0  0  0
   -2.5481    0.5519   -0.0000 C   0  0  0  0  0  0  0  0  0  0  0  0
   -0.6693   -2.9004   -0.0000 F   0  0  0  0  0  0  0  0  0  0  0  0
   -3.1940   -2.3485   -0.0000 C   0  0  0  0  0  0  0  0  0  0  0  0
   -3.9690    0.1057   -0.0000 C   0  0  0  0  0  0  0  0  0  0  0  0
   -4.3095   -1.3269   -0.0000 C   0  0  0  0  0  0  0  0  0  0  0  0
   -5.0845    1.1155   -0.0000 C   0  0  0  0  0  0  0  0  0  0  0  0
   -4.7792    2.5834   -0.0000 C   0  0  0  0  0  0  0  0  0  0  0  0
   -5.8948    3.5932   -0.0000 N   0  0  0  0  0  0  0  0  0  0  0  0
   -7.3274    3.1588   -0.0000 C   0  0  0  0  0  0  0  0  0  0  0  0
   -5.6012    5.0728   -0.0000 C   0  0  0  0  0  0  0  0  0  0  0  0
   -8.4312    4.1569   -0.0000 C   0  0  0  0  0  0  0  0  0  0  0  0
   -6.7168    6.0827   -0.0000 C   0  0  0  0  0  0  0  0  0  0  0  0
   -8.1376    5.6364   -0.0000 N   0  0  0  0  0  0  0  0  0  0  0  0
   -9.2532    6.6463   -0.0000 C   0  0  0  0  0  0  0  0  0  0  0  0
   -8.9009    8.1024   -0.0000 N   0  0  0  0  0  0  0  0  0  0  0  0
  -10.6975    6.2353   -0.0000 C   0  0  0  0  0  0  0  0  0  0  0  0
   -9.9930    9.1592   -0.0000 C   0  0  0  0  0  0  0  0  0  0  0  0
  -11.3551    4.9084   -0.0000 N   0  0  0  0  0  0  0  0  0  0  0  0
  -11.7896    7.2922   -0.0000 C   0  0  0  0  0  0  0  0  0  0  0  0
  -11.4373    8.7482   -0.0000 N   0  0  0  0  0  0  0  0  0  0  0  0
  -12.8581    5.1198   -0.0000 C   0  0  0  0  0  0  0  0  0  0  0  0
  -10.6623    3.5932   -0.0000 C   0  0  0  0  0  0  0  0  0  0  0  0
  -13.1400    6.5993   -0.0000 C   0  0  0  0  0  0  0  0  0  0  0  0
  -14.0207    4.1686   -0.0000 C   0  0  0  0  0  0  0  0  0  0  0  0
  -14.5491    7.1278   -0.0000 N   0  0  0  0  0  0  0  0  0  0  0  0
  -15.4298    4.6970   -0.0000 C   0  0  0  0  0  0  0  0  0  0  0  0
  -15.6881    6.1766   -0.0000 C   0  0  0  0  0  0  0  0  0  0  0  0
  1  2  1  0  0  0  0
  2  3  2  0  0  0  0
  2  4  1  0  0  0  0
  3  5  1  0  0  0  0
  3  6  1  0  0  0  0
  4  7  2  0  0  0  0
  6  8  2  0  0  0  0
  7  9  1  0  0  0  0
  9 10  1  0  0  0  0
 10 11  1  0  0  0  0
 11 12  1  0  0  0  0
 11 13  1  0  0  0  0
 12 14  1  0  0  0  0
 13 15  1  0  0  0  0
 14 16  1  0  0  0  0
 16 17  1  0  0  0  0
 17 18  2  0  0  0  0
 17 19  1  0  0  0  0
 18 20  1  0  0  0  0
 19 21  1  0  0  0  0
 19 22  2  0  0  0  0
 20 23  2  0  0  0  0
 21 24  1  0  0  0  0
 21 25  1  0  0  0  0
 22 26  1  0  0  0  0
 24 27  1  0  0  0  0
 26 28  1  0  0  0  0
 27 29  2  0  0  0  0
 28 30  2  0  0  0  0
  7  8  1  0  0  0  0
 15 16  1  0  0  0  0
 22 23  1  0  0  0  0
 24 26  2  0  0  0  0
 29 30  1  0  0  0  0
M  END
>  <MolRegNo>
37032

>  <m>
=

>  <Value>
19300

>  <Unit>
nM

>  <Type>
IC50

>  <pValue>
4.71

>  <Ligand Efficiency>
0

>  <Binding Efficiency>
0

>  <Surface Efficiency>
0

>  <Assay Index>
51975

>  <Assay Category>


>  <Assay Organism>


>  <Target ID>
17045

>  <Target Name>
Cytochrome P450 3A4

>  <Target Organism>
Homo sapiens

>  <Target Description>
Target is a single protein chain

>  <Sequence Accession>
P08684

>  <Reference>
J Med Chem 47 (6), 1339-1350 (2004)

>  <Pubmed ID>
14998324

>  <DOI>
10.1021/jm0310129

$$$$
37618
Actelion Java MolfileCreator 1.0

 39 44  0  0  0  0  0  0  0  0999 V2000
    0.0000   -0.0000   -0.0000 F   0  0  0  0  0  0  0  0  0  0  0  0
   -1.4225   -0.4386   -0.0000 C   0  0  0  0  0  0  0  0  0  0  0  0
   -1.7544   -1.8967   -0.0000 C   0  0  0  0  0  0  0  0  0  0  0  0
   -2.5368    0.5690   -0.0000 C   0  0  0  0  0  0  0  0  0  0  0  0
   -0.6638   -2.8925   -0.0000 F   0  0  0  0  0  0  0  0  0  0  0  0
   -3.1888   -2.3353   -0.0000 C   0  0  0  0  0  0  0  0  0  0  0  0
   -3.9594    0.1185   -0.0000 C   0  0  0  0  0  0  0  0  0  0  0  0
   -4.3031   -1.3277   -0.0000 C   0  0  0  0  0  0  0  0  0  0  0  0
   -5.0737    1.1380   -0.0000 C   0  0  0  0  0  0  0  0  0  0  0  0
   -4.7655    2.5961   -0.0000 C   0  0  0  0  0  0  0  0  0  0  0  0
   -5.8798    3.6037   -0.0000 N   0  0  0  0  0  0  0  0  0  0  0  0
   -7.3142    3.1770   -0.0000 C   0  0  0  0  0  0  0  0  0  0  0  0
   -5.5834    5.0737   -0.0000 C   0  0  0  0  0  0  0  0  0  0  0  0
   -8.4166    4.1727   -0.0000 C   0  0  0  0  0  0  0  0  0  0  0  0
   -6.6977    6.1050   -0.0000 C   0  0  0  0  0  0  0  0  0  0  0  0
   -8.1321    5.6427   -0.0000 N   0  0  0  0  0  0  0  0  0  0  0  0
   -9.2464    6.6503   -0.0000 C   0  0  0  0  0  0  0  0  0  0  0  0
   -8.9026    8.1202   -0.0000 N   0  0  0  0  0  0  0  0  0  0  0  0
  -10.6927    6.2591   -0.0000 C   0  0  0  0  0  0  0  0  0  0  0  0
   -9.9932    9.1753   -0.0000 C   0  0  0  0  0  0  0  0  0  0  0  0
  -11.3565    4.9196   -0.0000 N   0  0  0  0  0  0  0  0  0  0  0  0
  -11.7833    7.3142   -0.0000 C   0  0  0  0  0  0  0  0  0  0  0  0
  -11.4395    8.7722   -0.0000 N   0  0  0  0  0  0  0  0  0  0  0  0
  -12.8620    5.1329   -0.0000 C   0  0  0  0  0  0  0  0  0  0  0  0
  -10.6689    3.6274   -0.0000 C   0  0  0  0  0  0  0  0  0  0  0  0
  -13.1228    6.6266   -0.0000 C   0  0  0  0  0  0  0  0  0  0  0  0
  -14.0237    4.1965   -0.0000 C   0  0  0  0  0  0  0  0  0  0  0  0
  -11.4750    2.3590   -0.0000 C   0  0  0  0  0  0  0  0  0  0  0  0
  -14.5335    7.1363   -0.0000 C   0  0  0  0  0  0  0  0  0  0  0  0
  -15.4344    4.7180   -0.0000 C   0  0  0  0  0  0  0  0  0  0  0  0
  -12.9924    2.4420   -0.0000 C   0  0  0  0  0  0  0  0  0  0  0  0
  -10.7875    1.0550   -0.0000 C   0  0  0  0  0  0  0  0  0  0  0  0
  -14.7943    8.6181   -0.0000 N   0  0  0  0  0  0  0  0  0  0  0  0
  -15.6715    6.1998   -0.0000 C   0  0  0  0  0  0  0  0  0  0  0  0
  -13.8222    1.1854   -0.0000 C   0  0  0  0  0  0  0  0  0  0  0  0
  -11.6054   -0.2015   -0.0000 C   0  0  0  0  0  0  0  0  0  0  0  0
  -16.2049    9.1397   -0.0000 O   0  0  0  0  0  0  0  0  0  0  0  0
  -13.6562    9.5902   -0.0000 O   0  0  0  0  0  0  0  0  0  0  0  0
  -13.1347   -0.1423   -0.0000 N   0  0  0  0  0  0  0  0  0  0  0  0
  1  2  1  0  0  0  0
  2  3  2  0  0  0  0
  2  4  1  0  0  0  0
  3  5  1  0  0  0  0
  3  6  1  0  0  0  0
  4  7  2  0  0  0  0
  6  8  2  0  0  0  0
  7  9  1  0  0  0  0
  9 10  1  0  0  0  0
 10 11  1  0  0  0  0
 11 12  1  0  0  0  0
 11 13  1  0  0  0  0
 12 14  1  0  0  0  0
 13 15  1  0  0  0  0
 14 16  1  0  0  0  0
 16 17  1  0  0  0  0
 17 18  2  0  0  0  0
 17 19  1  0  0  0  0
 18 20  1  0  0  0  0
 19 21  1  0  0  0  0
 19 22  2  0  0  0  0
 20 23  2  0  0  0  0
 21 24  1  0  0  0  0
 21 25  1  0  0  0  0
 22 26  1  0  0  0  0
 24 27  1  0  0  0  0
 25 28  1  0  0  0  0
 26 29  1  0  0  0  0
 27 30  2  0  0  0  0
 28 31  2  0  0  0  0
 28 32  1  0  0  0  0
 29 33  1  0  0  0  0
 29 34  2  0  0  0  0
 31 35  1  0  0  0  0
 32 36  2  0  0  0  0
 33 37  2  0  0  0  0
 33 38  1  0  0  0  0
 35 39  2  0  0  0  0
  7  8  1  0  0  0  0
 15 16  1  0  0  0  0
 22 23  1  0  0  0  0
 24 26  2  0  0  0  0
 30 34  1  0  0  0  0
 36 39  1  0  0  0  0
M  CHG  2  33   1  38  -1
M  END
>  <MolRegNo>
37618

>  <m>
=

>  <Value>
5780

>  <Unit>
nM

>  <Type>
IC50

>  <pValue>
5.24

>  <Ligand Efficiency>
0

>  <Binding Efficiency>
0

>  <Surface Efficiency>
0

>  <Assay Index>
51975

>  <Assay Category>


>  <Assay Organism>


>  <Target ID>
17045

>  <Target Name>
Cytochrome P450 3A4

>  <Target Organism>
Homo sapiens

>  <Target Description>
Target is a single protein chain

>  <Sequence Accession>
P08684

>  <Reference>
J Med Chem 47 (6), 1339-1350 (2004)

>  <Pubmed ID>
14998324

>  <DOI>
10.1021/jm0310129

$$$$
36868
Actelion Java MolfileCreator 1.0

 33 37  0  0  0  0  0  0  0  0999 V2000
    0.0000   -0.0000   -0.0000 F   0  0  0  0  0  0  0  0  0  0  0  0
   -1.4327   -0.4462   -0.0000 C   0  0  0  0  0  0  0  0  0  0  0  0
   -1.7615   -1.9024   -0.0000 C   0  0  0  0  0  0  0  0  0  0  0  0
   -2.5483    0.5637   -0.0000 C   0  0  0  0  0  0  0  0  0  0  0  0
   -0.6694   -2.8888   -0.0000 F   0  0  0  0  0  0  0  0  0  0  0  0
   -3.1941   -2.3369   -0.0000 C   0  0  0  0  0  0  0  0  0  0  0  0
   -3.9692    0.1292   -0.0000 C   0  0  0  0  0  0  0  0  0  0  0  0
   -4.3097   -1.3270   -0.0000 C   0  0  0  0  0  0  0  0  0  0  0  0
   -5.0848    1.1391   -0.0000 C   0  0  0  0  0  0  0  0  0  0  0  0
   -4.7795    2.6070   -0.0000 C   0  0  0  0  0  0  0  0  0  0  0  0
   -5.8951    3.6286   -0.0000 N   0  0  0  0  0  0  0  0  0  0  0  0
   -5.6015    5.0965   -0.0000 C   0  0  0  0  0  0  0  0  0  0  0  0
   -7.3277    3.1941   -0.0000 C   0  0  0  0  0  0  0  0  0  0  0  0
   -6.7171    6.1182   -0.0000 C   0  0  0  0  0  0  0  0  0  0  0  0
   -8.4316    4.2041   -0.0000 C   0  0  0  0  0  0  0  0  0  0  0  0
   -8.1498    5.6602   -0.0000 N   0  0  0  0  0  0  0  0  0  0  0  0
   -9.2654    6.6701   -0.0000 C   0  0  0  0  0  0  0  0  0  0  0  0
   -8.9131    8.1380   -0.0000 N   0  0  0  0  0  0  0  0  0  0  0  0
  -10.7098    6.2709   -0.0000 C   0  0  0  0  0  0  0  0  0  0  0  0
  -10.0052    9.1949   -0.0000 C   0  0  0  0  0  0  0  0  0  0  0  0
  -11.3674    4.9321   -0.0000 N   0  0  0  0  0  0  0  0  0  0  0  0
  -11.8019    7.3277   -0.0000 C   0  0  0  0  0  0  0  0  0  0  0  0
  -11.4496    8.7721   -0.0000 N   0  0  0  0  0  0  0  0  0  0  0  0
  -12.8705    5.1435   -0.0000 C   0  0  0  0  0  0  0  0  0  0  0  0
  -10.6745    3.6286   -0.0000 C   0  0  0  0  0  0  0  0  0  0  0  0
  -13.1523    6.6349   -0.0000 C   0  0  0  0  0  0  0  0  0  0  0  0
  -14.0331    4.2041   -0.0000 C   0  0  0  0  0  0  0  0  0  0  0  0
  -14.5615    7.1516   -0.0000 C   0  0  0  0  0  0  0  0  0  0  0  0
  -15.4423    4.7325   -0.0000 C   0  0  0  0  0  0  0  0  0  0  0  0
  -15.7006    6.2121   -0.0000 N   0  0  0  0  0  0  0  0  0  0  0  0
  -14.8316    8.6430   -0.0000 N   0  0  0  0  0  0  0  0  0  0  0  0
  -13.7043    9.6059   -0.0000 C   0  0  0  0  0  0  0  0  0  0  0  0
  -16.2408    9.1479   -0.0000 C   0  0  0  0  0  0  0  0  0  0  0  0
  1  2  1  0  0  0  0
  2  3  2  0  0  0  0
  2  4  1  0  0  0  0
  3  5  1  0  0  0  0
  3  6  1  0  0  0  0
  4  7  2  0  0  0  0
  6  8  2  0  0  0  0
  7  9  1  0  0  0  0
  9 10  1  0  0  0  0
 10 11  1  0  0  0  0
 11 12  1  0  0  0  0
 11 13  1  0  0  0  0
 12 14  1  0  0  0  0
 13 15  1  0  0  0  0
 14 16  1  0  0  0  0
 16 17  1  0  0  0  0
 17 18  2  0  0  0  0
 17 19  1  0  0  0  0
 18 20  1  0  0  0  0
 19 21  1  0  0  0  0
 19 22  2  0  0  0  0
 20 23  2  0  0  0  0
 21 24  1  0  0  0  0
 21 25  1  0  0  0  0
 22 26  1  0  0  0  0
 24 27  1  0  0  0  0
 26 28  1  0  0  0  0
 27 29  2  0  0  0  0
 28 30  2  0  0  0  0
 28 31  1  0  0  0  0
 31 32  1  0  0  0  0
 31 33  1  0  0  0  0
  7  8  1  0  0  0  0
 15 16  1  0  0  0  0
 22 23  1  0  0  0  0
 24 26  2  0  0  0  0
 29 30  1  0  0  0  0
M  END
>  <MolRegNo>
36868

>  <m>
=

>  <Value>
26410

>  <Unit>
nM

>  <Type>
IC50

>  <pValue>
4.58

>  <Ligand Efficiency>
0

>  <Binding Efficiency>
0

>  <Surface Efficiency>
0

>  <Assay Index>
51975

>  <Assay Category>


>  <Assay Organism>


>  <Target ID>
17045

>  <Target Name>
Cytochrome P450 3A4

>  <Target Organism>
Homo sapiens

>  <Target Description>
Target is a single protein chain

>  <Sequence Accession>
P08684

>  <Reference>
J Med Chem 47 (6), 1339-1350 (2004)

>  <Pubmed ID>
14998324

>  <DOI>
10.1021/jm0310129

$$$$
199046
Actelion Java MolfileCreator 1.0

 52 58  0  0  1  0  0  0  0  0999 V2000
    0.0000   -0.0000   -0.0000 O   0  0  0  0  0  0  0  0  0  0  0  0
   -0.3928   -1.4283   -0.0000 C   0  0  0  0  0  0  0  0  0  0  0  0
    0.6546   -2.4876   -0.0000 N   0  0  0  0  0  0  0  0  0  0  0  0
   -1.8449   -1.8211   -0.0000 N   0  0  0  0  0  0  0  0  0  0  0  0
    0.2619   -3.9040   -0.0000 C   0  0  0  0  0  0  0  0  0  0  0  0
   -2.2376   -3.2493   -0.0000 C   0  0  0  0  0  0  0  0  0  0  0  0
   -2.9161   -0.7498   -0.0000 C   0  0  0  0  0  0  0  0  0  0  0  0
    1.3093   -4.9752   -0.0000 N   0  0  0  0  0  0  0  0  0  0  0  0
   -1.2021   -4.2730   -0.0000 C   0  0  0  0  0  0  0  0  0  0  0  0
   -3.6897   -3.6421   -0.0000 O   0  0  0  0  0  0  0  0  0  0  0  0
   -2.5471    0.7141   -0.0000 C   0  0  0  0  0  0  0  0  0  0  0  0
    0.9165   -6.4035   -0.0000 C   0  0  0  0  0  0  0  0  0  0  0  0
    2.7375   -4.5824   -0.0000 C   0  0  0  0  0  0  0  0  0  0  0  0
   -1.5949   -5.7131   -0.0000 C   0  0  0  0  0  0  0  0  0  0  0  0
   -3.6302    1.7735   -0.0000 C   0  0  0  0  0  0  0  0  0  0  0  0
   -0.5356   -6.7725   -0.0000 C   0  0  0  0  0  0  0  0  0  0  0  0
    1.9520   -7.4390   -0.0000 C   0  0  0  0  0  0  0  0  0  0  0  0
    3.1065   -3.1184   -0.0000 C   0  0  0  0  0  0  0  0  0  0  0  0
   -3.2613    3.2255   -0.0000 C   0  0  0  0  0  0  0  0  0  0  0  0
   -0.9284   -8.1888   -0.0000 C   0  0  0  0  0  0  0  0  0  0  0  0
    1.5592   -8.8792   -0.0000 C   0  0  0  0  0  0  0  0  0  0  0  0
    4.5467   -2.7256   -0.0000 C   0  0  0  0  0  0  0  0  0  0  0  0
   -1.8330    3.6302   -0.0000 O   0  0  0  0  0  0  0  0  0  0  0  0
   -4.3444    4.3087   -0.0000 O   0  0  0  0  0  0  0  0  0  0  0  0
    0.1071   -9.2481   -0.0000 C   0  0  0  0  0  0  0  0  0  0  0  0
    4.9157   -1.2736   -0.0000 C   0  0  0  0  0  0  0  0  0  0  0  0
   -3.9754    5.7727   -0.0000 C   0  0  0  0  0  0  0  0  0  0  0  0
    6.3559   -0.8808   -0.0000 O   0  0  0  0  0  0  0  0  0  0  0  0
   -5.0585    6.8558   -0.0000 C   0  0  0  0  0  0  0  0  0  0  0  0
    6.3440    0.6308   -0.0000 C   0  0  0  0  0  0  0  0  0  0  0  0
    7.6413    1.3807   -0.0000 O   0  0  0  0  0  0  0  0  0  0  0  0
    5.0347    1.4045   -0.0000 C   0  0  0  0  0  0  0  0  0  0  0  0
    5.0466    2.9161   -0.0000 C   0  0  0  0  0  0  0  0  0  0  0  0
    3.7373    3.6778   -0.0000 C   0  0  0  0  0  0  0  0  0  0  0  0
    6.3321    3.6659   -0.0000 C   0  0  0  0  0  0  0  0  0  0  0  0
    2.4281    2.9399   -0.0000 C   0  0  0  0  0  0  0  0  0  0  0  0
    3.7254    5.1894   -0.0000 C   0  0  0  0  0  0  0  0  0  0  0  0
    6.3202    5.1656   -0.0000 C   0  0  0  0  0  0  0  0  0  0  0  0
    1.1426    3.7016   -0.0000 C   0  0  0  0  0  0  0  0  0  0  0  0
    5.0109    5.9512   -0.0000 C   0  0  0  0  0  0  0  0  0  0  0  0
    2.4162    5.9512   -0.0000 C   0  0  0  0  0  0  0  0  0  0  0  0
    3.7135    6.7010   -0.0000 C   0  0  0  0  0  0  0  0  0  0  0  0
    7.6175    5.9155   -0.0000 C   0  0  0  0  0  0  0  0  0  0  0  0
   -0.1785    2.9637   -0.0000 O   0  0  0  0  0  0  0  0  0  0  0  0
    1.1307    5.2132   -0.0000 C   0  0  0  0  0  0  0  0  0  0  0  0
    5.0228    7.4628   -0.0000 C   0  0  0  0  0  0  0  0  0  0  0  0
    7.6413    7.4390   -0.0000 C   0  0  0  0  0  0  0  0  0  0  0  0
    9.0220    5.4394   -0.0000 C   0  0  0  0  0  0  0  0  0  0  0  0
    6.3202    8.2126   -0.0000 C   0  0  0  0  0  0  0  0  0  0  0  0
    9.0577    7.8794   -0.0000 C   0  0  0  0  0  0  0  0  0  0  0  0
    9.9147    6.6534   -0.0000 C   0  0  0  0  0  0  0  0  0  0  0  0
    9.5338    9.3196   -0.0000 O   0  0  0  0  0  0  0  0  0  0  0  0
  1  2  2  0  0  0  0
  2  3  1  0  0  0  0
  2  4  1  0  0  0  0
  3  5  2  0  0  0  0
  4  6  1  0  0  0  0
  4  7  1  0  0  0  0
  5  8  1  0  0  0  0
  5  9  1  0  0  0  0
  6 10  2  0  0  0  0
  7 11  1  0  0  0  0
  8 12  1  0  0  0  0
  8 13  1  0  0  0  0
  9 14  2  0  0  0  0
 11 15  1  0  0  0  0
 12 16  2  0  0  0  0
 12 17  1  0  0  0  0
 13 18  1  0  0  0  0
 15 19  1  0  0  0  0
 16 20  1  0  0  0  0
 17 21  2  0  0  0  0
 18 22  1  0  0  0  0
 19 23  2  0  0  0  0
 19 24  1  0  0  0  0
 20 25  2  0  0  0  0
 22 26  1  0  0  0  0
 24 27  1  0  0  0  0
 26 28  1  0  0  0  0
 27 29  1  0  0  0  0
 28 30  1  0  0  0  0
 30 31  2  0  0  0  0
 30 32  1  0  0  0  0
 33 32  1  1  0  0  0
 33 34  1  0  0  0  0
 33 35  1  0  0  0  0
 34 36  2  0  0  0  0
 34 37  1  0  0  0  0
 35 38  1  0  0  0  0
 36 39  1  0  0  0  0
 37 40  1  0  0  0  0
 37 41  1  0  0  0  0
 37 42  1  1  0  0  0
 38 43  1  0  0  0  0
 39 44  2  0  0  0  0
 39 45  1  0  0  0  0
 40 46  1  0  0  0  0
 43 47  1  0  0  0  0
 43 48  1  0  0  0  0
 46 49  1  0  0  0  0
 47 50  1  0  0  0  0
 48 51  1  0  0  0  0
 50 52  1  1  0  0  0
  6  9  1  0  0  0  0
 14 16  1  0  0  0  0
 21 25  1  0  0  0  0
 38 40  1  0  0  0  0
 41 45  1  0  0  0  0
 47 49  1  0  0  0  0
 50 51  1  0  0  0  0
M  END
>  <MolRegNo>
199046

>  <m>
=

>  <Value>
2500

>  <Unit>
nM

>  <Type>
IC50

>  <pValue>
5.6

>  <Ligand Efficiency>
0

>  <Binding Efficiency>
0

>  <Surface Efficiency>
0

>  <Assay Index>
51830

>  <Assay Category>


>  <Assay Organism>
Homo sapiens

>  <Target ID>
17045

>  <Target Name>
Cytochrome P450 3A4

>  <Target Organism>
Homo sapiens

>  <Target Description>
Target is a single protein chain

>  <Sequence Accession>
P08684

>  <Reference>
Bioorg Med Chem Lett 13 (21), 3643-3645 (2003)

>  <Pubmed ID>
14552748

>  <DOI>
10.1016/j.bmcl.2003.08.027

$$$$
199047
Actelion Java MolfileCreator 1.0

 23 26  0  0  0  0  0  0  0  0999 V2000
    0.0000   -0.0000   -0.0000 Cl  0  0  0  0  0  0  0  0  0  0  0  0
    1.3047    0.7661   -0.0000 C   0  0  0  0  0  0  0  0  0  0  0  0
    2.5974    0.0239   -0.0000 C   0  0  0  0  0  0  0  0  0  0  0  0
    1.2927    2.2862   -0.0000 C   0  0  0  0  0  0  0  0  0  0  0  0
    3.8662    0.8020   -0.0000 C   0  0  0  0  0  0  0  0  0  0  0  0
    2.5855    3.0523   -0.0000 C   0  0  0  0  0  0  0  0  0  0  0  0
    5.0273   -0.1436   -0.0000 C   0  0  0  0  0  0  0  0  0  0  0  0
    3.8902    2.3341   -0.0000 C   0  0  0  0  0  0  0  0  0  0  0  0
    6.4637    0.1795   -0.0000 N   0  0  0  0  0  0  0  0  0  0  0  0
    4.6682   -1.5920   -0.0000 C   0  0  0  0  0  0  0  0  0  0  0  0
    5.0752    3.2438   -0.0000 N   0  0  0  0  0  0  0  0  0  0  0  0
    7.1459    1.5202   -0.0000 C   0  0  0  0  0  0  0  0  0  0  0  0
    5.7335   -2.6094   -0.0000 C   0  0  0  0  0  0  0  0  0  0  0  0
    3.2079   -1.9989   -0.0000 C   0  0  0  0  0  0  0  0  0  0  0  0
    6.5235    2.8967   -0.0000 C   0  0  0  0  0  0  0  0  0  0  0  0
    4.9555    4.7520   -0.0000 C   0  0  0  0  0  0  0  0  0  0  0  0
    8.6422    1.4962   -0.0000 O   0  0  0  0  0  0  0  0  0  0  0  0
    7.1699   -2.1665   -0.0000 F   0  0  0  0  0  0  0  0  0  0  0  0
    5.3744   -4.0697   -0.0000 C   0  0  0  0  0  0  0  0  0  0  0  0
    2.8488   -3.4473   -0.0000 C   0  0  0  0  0  0  0  0  0  0  0  0
    7.3135    4.1774   -0.0000 C   0  0  0  0  0  0  0  0  0  0  0  0
    6.3320    5.3146   -0.0000 N   0  0  0  0  0  0  0  0  0  0  0  0
    3.9021   -4.4887   -0.0000 C   0  0  0  0  0  0  0  0  0  0  0  0
  1  2  1  0  0  0  0
  2  3  2  0  0  0  0
  2  4  1  0  0  0  0
  3  5  1  0  0  0  0
  4  6  2  0  0  0  0
  5  7  1  0  0  0  0
  5  8  2  0  0  0  0
  7  9  2  0  0  0  0
  7 10  1  0  0  0  0
  8 11  1  0  0  0  0
  9 12  1  0  0  0  0
 10 13  2  0  0  0  0
 10 14  1  0  0  0  0
 11 15  1  0  0  0  0
 11 16  1  0  0  0  0
 12 17  1  0  0  0  0
 13 18  1  0  0  0  0
 13 19  1  0  0  0  0
 14 20  2  0  0  0  0
 15 21  2  0  0  0  0
 16 22  2  0  0  0  0
 19 23  2  0  0  0  0
  6  8  1  0  0  0  0
 12 15  1  0  0  0  0
 20 23  1  0  0  0  0
 21 22  1  0  0  0  0
M  END
>  <MolRegNo>
199047

>  <m>
=

>  <Value>
10000

>  <Unit>
nM

>  <Type>
IC50

>  <pValue>
5

>  <Ligand Efficiency>
0

>  <Binding Efficiency>
0

>  <Surface Efficiency>
0

>  <Assay Index>
51809

>  <Assay Category>


>  <Assay Organism>
Homo sapiens

>  <Target ID>
17045

>  <Target Name>
Cytochrome P450 3A4

>  <Target Organism>
Homo sapiens

>  <Target Description>
Target is a single protein chain

>  <Sequence Accession>
P08684

>  <Reference>
Bioorg Med Chem Lett 13 (21), 3643-3645 (2003)

>  <Pubmed ID>
14552748

>  <DOI>
10.1016/j.bmcl.2003.08.027

$$$$
37081
Actelion Java MolfileCreator 1.0

 32 36  0  0  0  0  0  0  0  0999 V2000
    0.0000   -0.0000   -0.0000 F   0  0  0  0  0  0  0  0  0  0  0  0
   -1.4206   -0.4579   -0.0000 C   0  0  0  0  0  0  0  0  0  0  0  0
   -1.7494   -1.9137   -0.0000 C   0  0  0  0  0  0  0  0  0  0  0  0
   -2.5360    0.5518   -0.0000 C   0  0  0  0  0  0  0  0  0  0  0  0
   -0.6575   -2.8999   -0.0000 F   0  0  0  0  0  0  0  0  0  0  0  0
   -3.1817   -2.3481   -0.0000 C   0  0  0  0  0  0  0  0  0  0  0  0
   -3.9683    0.1057   -0.0000 C   0  0  0  0  0  0  0  0  0  0  0  0
   -4.2971   -1.3267   -0.0000 C   0  0  0  0  0  0  0  0  0  0  0  0
   -5.0837    1.1154   -0.0000 C   0  0  0  0  0  0  0  0  0  0  0  0
   -4.7785    2.5829   -0.0000 C   0  0  0  0  0  0  0  0  0  0  0  0
   -5.8821    3.5926   -0.0000 N   0  0  0  0  0  0  0  0  0  0  0  0
   -5.5886    5.0720   -0.0000 C   0  0  0  0  0  0  0  0  0  0  0  0
   -7.3144    3.1582   -0.0000 C   0  0  0  0  0  0  0  0  0  0  0  0
   -6.6922    6.0817   -0.0000 C   0  0  0  0  0  0  0  0  0  0  0  0
   -8.4298    4.1562   -0.0000 C   0  0  0  0  0  0  0  0  0  0  0  0
   -8.1245    5.6355   -0.0000 N   0  0  0  0  0  0  0  0  0  0  0  0
   -9.2399    6.6452   -0.0000 C   0  0  0  0  0  0  0  0  0  0  0  0
   -8.8877    8.1011   -0.0000 N   0  0  0  0  0  0  0  0  0  0  0  0
  -10.6958    6.2343   -0.0000 C   0  0  0  0  0  0  0  0  0  0  0  0
   -9.9913    9.1577   -0.0000 C   0  0  0  0  0  0  0  0  0  0  0  0
  -11.3532    4.9076   -0.0000 N   0  0  0  0  0  0  0  0  0  0  0  0
  -11.7759    7.2910   -0.0000 C   0  0  0  0  0  0  0  0  0  0  0  0
  -11.4472    8.7468   -0.0000 N   0  0  0  0  0  0  0  0  0  0  0  0
  -12.8560    5.1189   -0.0000 C   0  0  0  0  0  0  0  0  0  0  0  0
  -13.1143    6.5983   -0.0000 C   0  0  0  0  0  0  0  0  0  0  0  0
  -14.0184    4.1679   -0.0000 C   0  0  0  0  0  0  0  0  0  0  0  0
  -14.5232    7.1266   -0.0000 C   0  0  0  0  0  0  0  0  0  0  0  0
  -15.4272    4.6963   -0.0000 C   0  0  0  0  0  0  0  0  0  0  0  0
  -14.7932    8.6059   -0.0000 C   0  0  0  0  0  0  0  0  0  0  0  0
  -15.6738    6.1756   -0.0000 C   0  0  0  0  0  0  0  0  0  0  0  0
  -13.6661    9.5686   -0.0000 O   0  0  0  0  0  0  0  0  0  0  0  0
  -16.2021    9.1108   -0.0000 N   0  0  0  0  0  0  0  0  0  0  0  0
  1  2  1  0  0  0  0
  2  3  2  0  0  0  0
  2  4  1  0  0  0  0
  3  5  1  0  0  0  0
  3  6  1  0  0  0  0
  4  7  2  0  0  0  0
  6  8  2  0  0  0  0
  7  9  1  0  0  0  0
  9 10  1  0  0  0  0
 10 11  1  0  0  0  0
 11 12  1  0  0  0  0
 11 13  1  0  0  0  0
 12 14  1  0  0  0  0
 13 15  1  0  0  0  0
 14 16  1  0  0  0  0
 16 17  1  0  0  0  0
 17 18  2  0  0  0  0
 17 19  1  0  0  0  0
 18 20  1  0  0  0  0
 19 21  1  0  0  0  0
 19 22  2  0  0  0  0
 20 23  2  0  0  0  0
 21 24  1  0  0  0  0
 22 25  1  0  0  0  0
 24 26  1  0  0  0  0
 25 27  1  0  0  0  0
 26 28  2  0  0  0  0
 27 29  1  0  0  0  0
 27 30  2  0  0  0  0
 29 31  2  0  0  0  0
 29 32  1  0  0  0  0
  7  8  1  0  0  0  0
 15 16  1  0  0  0  0
 22 23  1  0  0  0  0
 24 25  2  0  0  0  0
 28 30  1  0  0  0  0
M  END
>  <MolRegNo>
37081

>  <m>
=

>  <Value>
1360

>  <Unit>
nM

>  <Type>
IC50

>  <pValue>
5.87

>  <Ligand Efficiency>
0

>  <Binding Efficiency>
0

>  <Surface Efficiency>
0

>  <Assay Index>
51975

>  <Assay Category>


>  <Assay Organism>


>  <Target ID>
17045

>  <Target Name>
Cytochrome P450 3A4

>  <Target Organism>
Homo sapiens

>  <Target Description>
Target is a single protein chain

>  <Sequence Accession>
P08684

>  <Reference>
J Med Chem 47 (6), 1339-1350 (2004)

>  <Pubmed ID>
14998324

>  <DOI>
10.1021/jm0310129

$$$$
364520
Actelion Java MolfileCreator 1.0

 21 24  0  0  1  0  0  0  0  0999 V2000
    0.0000   -0.0000   -0.0000 O   0  0  0  0  0  0  0  0  0  0  0  0
    1.2812    0.8098   -0.0000 C   0  0  0  0  0  0  0  0  0  0  0  0
    2.5867    0.0967   -0.0000 C   0  0  0  0  0  0  0  0  0  0  0  0
    1.2571    2.3570   -0.0000 C   0  0  0  0  0  0  0  0  0  0  0  0
    3.8679    0.8461   -0.0000 C   0  0  0  0  0  0  0  0  0  0  0  0
    2.5504    3.1064   -0.0000 C   0  0  0  0  0  0  0  0  0  0  0  0
    3.8437    2.3691   -0.0000 C   0  0  0  0  0  0  0  0  0  0  0  0
    5.1371    0.1209   -0.0000 C   0  0  0  0  0  0  0  0  0  0  0  0
    5.1250    3.1306   -0.0000 C   0  0  0  0  0  0  0  0  0  0  0  0
    3.8437    3.8679   -0.0000 C   0  0  0  0  0  0  0  0  0  0  0  0
    6.4425    0.8703   -0.0000 C   0  0  0  0  0  0  0  0  0  0  0  0
    6.4183    2.4054   -0.0000 C   0  0  0  0  0  0  0  0  0  0  0  0
    5.1008    4.6415   -0.0000 C   0  0  0  0  0  0  0  0  0  0  0  0
    7.7237    3.1789   -0.0000 C   0  0  0  0  0  0  0  0  0  0  0  0
    6.3820    5.4030   -0.0000 C   0  0  0  0  0  0  0  0  0  0  0  0
    7.6996    4.7019   -0.0000 C   0  0  0  0  0  0  0  0  0  0  0  0
    9.1258    2.7438   -0.0000 C   0  0  0  0  0  0  0  0  0  0  0  0
    9.1138    5.1733   -0.0000 C   0  0  0  0  0  0  0  0  0  0  0  0
    7.6754    6.2007   -0.0000 C   0  0  0  0  0  0  0  0  0  0  0  0
    9.9840    3.9767   -0.0000 C   0  0  0  0  0  0  0  0  0  0  0  0
    9.5731    6.6117   -0.0000 O   0  0  0  0  0  0  0  0  0  0  0  0
  1  2  2  0  0  0  0
  2  3  1  0  0  0  0
  2  4  1  0  0  0  0
  3  5  2  0  0  0  0
  4  6  1  0  0  0  0
  5  7  1  0  0  0  0
  5  8  1  0  0  0  0
  7  9  1  0  0  0  0
  7 10  1  1  0  0  0
  8 11  1  0  0  0  0
  9 12  1  0  0  0  0
  9 13  1  1  0  0  0
 12 14  1  0  0  0  0
 13 15  1  0  0  0  0
 14 16  1  0  0  0  0
 14 17  1  1  0  0  0
 16 18  1  0  0  0  0
 16 19  1  1  0  0  0
 17 20  1  0  0  0  0
 18 21  1  1  0  0  0
  6  7  1  0  0  0  0
 12 11  1  6  0  0  0
 15 16  1  0  0  0  0
 18 20  1  0  0  0  0
M  END
>  <MolRegNo>
364520

>  <m>
=

>  <Value>
10000

>  <Unit>
nM

>  <Type>
IC50

>  <pValue>
5

>  <Ligand Efficiency>
0

>  <Binding Efficiency>
0

>  <Surface Efficiency>
0

>  <Assay Index>
51809

>  <Assay Category>


>  <Assay Organism>
Homo sapiens

>  <Target ID>
17045

>  <Target Name>
Cytochrome P450 3A4

>  <Target Organism>
Homo sapiens

>  <Target Description>
Target is a single protein chain

>  <Sequence Accession>
P08684

>  <Reference>
Bioorg Med Chem Lett 13 (21), 3643-3645 (2003)

>  <Pubmed ID>
14552748

>  <DOI>
10.1016/j.bmcl.2003.08.027

$$$$
36841
Actelion Java MolfileCreator 1.0

 31 35  0  0  0  0  0  0  0  0999 V2000
    0.0000   -0.0000   -0.0000 Cl  0  0  0  0  0  0  0  0  0  0  0  0
    0.2496   -1.4740   -0.0000 C   0  0  0  0  0  0  0  0  0  0  0  0
   -0.9153   -2.4368   -0.0000 N   0  0  0  0  0  0  0  0  0  0  0  0
    1.6523   -1.9851   -0.0000 C   0  0  0  0  0  0  0  0  0  0  0  0
   -0.6775   -3.9226   -0.0000 C   0  0  0  0  0  0  0  0  0  0  0  0
    2.9717   -1.2600   -0.0000 C   0  0  0  0  0  0  0  0  0  0  0  0
    1.9019   -3.4590   -0.0000 C   0  0  0  0  0  0  0  0  0  0  0  0
    0.7251   -4.4338   -0.0000 C   0  0  0  0  0  0  0  0  0  0  0  0
    3.3283    0.2140   -0.0000 N   0  0  0  0  0  0  0  0  0  0  0  0
    4.0534   -2.3060   -0.0000 C   0  0  0  0  0  0  0  0  0  0  0  0
    3.3996   -3.6492   -0.0000 N   0  0  0  0  0  0  0  0  0  0  0  0
    4.7547    0.6538   -0.0000 C   0  0  0  0  0  0  0  0  0  0  0  0
    5.5036   -1.8662   -0.0000 C   0  0  0  0  0  0  0  0  0  0  0  0
    4.1128   -4.9805   -0.0000 C   0  0  0  0  0  0  0  0  0  0  0  0
    5.8602   -0.3923   -0.0000 N   0  0  0  0  0  0  0  0  0  0  0  0
    6.6090   -2.8647   -0.0000 N   0  0  0  0  0  0  0  0  0  0  0  0
    6.2881   -4.3387   -0.0000 C   0  0  0  0  0  0  0  0  0  0  0  0
    8.0236   -2.3892   -0.0000 C   0  0  0  0  0  0  0  0  0  0  0  0
    7.3936   -5.3253   -0.0000 C   0  0  0  0  0  0  0  0  0  0  0  0
    9.1290   -3.3877   -0.0000 C   0  0  0  0  0  0  0  0  0  0  0  0
    8.8081   -4.8617   -0.0000 N   0  0  0  0  0  0  0  0  0  0  0  0
    9.9135   -5.8602   -0.0000 C   0  0  0  0  0  0  0  0  0  0  0  0
    9.5807   -7.3222   -0.0000 C   0  0  0  0  0  0  0  0  0  0  0  0
   10.6862   -8.3207   -0.0000 C   0  0  0  0  0  0  0  0  0  0  0  0
   12.0888   -7.8453   -0.0000 C   0  0  0  0  0  0  0  0  0  0  0  0
   10.3415   -9.7709   -0.0000 C   0  0  0  0  0  0  0  0  0  0  0  0
   13.1943   -8.8437   -0.0000 C   0  0  0  0  0  0  0  0  0  0  0  0
   11.4469  -10.7813   -0.0000 C   0  0  0  0  0  0  0  0  0  0  0  0
   14.6207   -8.3564   -0.0000 F   0  0  0  0  0  0  0  0  0  0  0  0
   12.8615  -10.3177   -0.0000 C   0  0  0  0  0  0  0  0  0  0  0  0
   13.9669  -11.3162   -0.0000 F   0  0  0  0  0  0  0  0  0  0  0  0
  1  2  1  0  0  0  0
  2  3  2  0  0  0  0
  2  4  1  0  0  0  0
  3  5  1  0  0  0  0
  4  6  1  0  0  0  0
  4  7  2  0  0  0  0
  5  8  2  0  0  0  0
  6  9  2  0  0  0  0
  6 10  1  0  0  0  0
  7 11  1  0  0  0  0
  9 12  1  0  0  0  0
 10 13  2  0  0  0  0
 11 14  1  0  0  0  0
 12 15  2  0  0  0  0
 13 16  1  0  0  0  0
 16 17  1  0  0  0  0
 16 18  1  0  0  0  0
 17 19  1  0  0  0  0
 18 20  1  0  0  0  0
 19 21  1  0  0  0  0
 21 22  1  0  0  0  0
 22 23  1  0  0  0  0
 23 24  1  0  0  0  0
 24 25  2  0  0  0  0
 24 26  1  0  0  0  0
 25 27  1  0  0  0  0
 26 28  2  0  0  0  0
 27 29  1  0  0  0  0
 27 30  2  0  0  0  0
 30 31  1  0  0  0  0
  7  8  1  0  0  0  0
 10 11  1  0  0  0  0
 13 15  1  0  0  0  0
 20 21  1  0  0  0  0
 28 30  1  0  0  0  0
M  END
>  <MolRegNo>
36841

>  <m>
=

>  <Value>
9440

>  <Unit>
nM

>  <Type>
IC50

>  <pValue>
5.03

>  <Ligand Efficiency>
0

>  <Binding Efficiency>
0

>  <Surface Efficiency>
0

>  <Assay Index>
51975

>  <Assay Category>


>  <Assay Organism>


>  <Target ID>
17045

>  <Target Name>
Cytochrome P450 3A4

>  <Target Organism>
Homo sapiens

>  <Target Description>
Target is a single protein chain

>  <Sequence Accession>
P08684

>  <Reference>
J Med Chem 47 (6), 1339-1350 (2004)

>  <Pubmed ID>
14998324

>  <DOI>
10.1021/jm0310129

$$$$
36190
Actelion Java MolfileCreator 1.0

 42 47  0  0  0  0  0  0  0  0999 V2000
    0.0000   -0.0000   -0.0000 F   0  0  0  0  0  0  0  0  0  0  0  0
   -1.4230   -0.4351   -0.0000 C   0  0  0  0  0  0  0  0  0  0  0  0
   -1.7522   -1.9051   -0.0000 C   0  0  0  0  0  0  0  0  0  0  0  0
   -2.5401    0.5527   -0.0000 C   0  0  0  0  0  0  0  0  0  0  0  0
   -0.6586   -2.8929   -0.0000 F   0  0  0  0  0  0  0  0  0  0  0  0
   -3.1869   -2.3402   -0.0000 C   0  0  0  0  0  0  0  0  0  0  0  0
   -3.9749    0.1058   -0.0000 C   0  0  0  0  0  0  0  0  0  0  0  0
   -4.3041   -1.3171   -0.0000 C   0  0  0  0  0  0  0  0  0  0  0  0
   -5.0921    1.1172   -0.0000 C   0  0  0  0  0  0  0  0  0  0  0  0
   -4.7863    2.5872   -0.0000 C   0  0  0  0  0  0  0  0  0  0  0  0
   -5.8917    3.5985   -0.0000 N   0  0  0  0  0  0  0  0  0  0  0  0
   -7.3264    3.1634   -0.0000 C   0  0  0  0  0  0  0  0  0  0  0  0
   -5.5977    5.0803   -0.0000 C   0  0  0  0  0  0  0  0  0  0  0  0
   -8.4436    4.1630   -0.0000 C   0  0  0  0  0  0  0  0  0  0  0  0
   -6.7032    6.0916   -0.0000 C   0  0  0  0  0  0  0  0  0  0  0  0
   -8.1379    5.6448   -0.0000 N   0  0  0  0  0  0  0  0  0  0  0  0
   -9.2551    6.6561   -0.0000 C   0  0  0  0  0  0  0  0  0  0  0  0
   -8.9023    8.1144   -0.0000 N   0  0  0  0  0  0  0  0  0  0  0  0
  -10.7133    6.2445   -0.0000 C   0  0  0  0  0  0  0  0  0  0  0  0
  -10.0077    9.1728   -0.0000 C   0  0  0  0  0  0  0  0  0  0  0  0
  -11.3719    4.9157   -0.0000 N   0  0  0  0  0  0  0  0  0  0  0  0
  -11.7952    7.3029   -0.0000 C   0  0  0  0  0  0  0  0  0  0  0  0
  -11.4659    8.7612   -0.0000 N   0  0  0  0  0  0  0  0  0  0  0  0
   -9.6667   10.6427   -0.0000 C   0  0  0  0  0  0  0  0  0  0  0  0
  -12.8771    5.1273   -0.0000 C   0  0  0  0  0  0  0  0  0  0  0  0
  -13.1359    6.6091   -0.0000 C   0  0  0  0  0  0  0  0  0  0  0  0
   -8.2320   11.0779   -0.0000 N   0  0  0  0  0  0  0  0  0  0  0  0
  -14.0414    4.1748   -0.0000 C   0  0  0  0  0  0  0  0  0  0  0  0
  -14.5470    7.1383   -0.0000 C   0  0  0  0  0  0  0  0  0  0  0  0
   -7.8909   12.5361   -0.0000 C   0  0  0  0  0  0  0  0  0  0  0  0
   -7.1736   10.0430   -0.0000 C   0  0  0  0  0  0  0  0  0  0  0  0
  -13.7944    2.7048   -0.0000 N   0  0  0  0  0  0  0  0  0  0  0  0
  -15.4526    4.7040   -0.0000 C   0  0  0  0  0  0  0  0  0  0  0  0
  -15.6995    6.1857   -0.0000 C   0  0  0  0  0  0  0  0  0  0  0  0
   -6.4562   12.9595   -0.0000 C   0  0  0  0  0  0  0  0  0  0  0  0
   -5.7624   10.4663   -0.0000 C   0  0  0  0  0  0  0  0  0  0  0  0
  -12.4067    2.1991   -0.0000 O   0  0  0  0  0  0  0  0  0  0  0  0
  -14.9586    1.7640   -0.0000 O   0  0  0  0  0  0  0  0  0  0  0  0
  -17.1342    6.7149   -0.0000 N   0  0  0  0  0  0  0  0  0  0  0  0
   -5.3978   11.9246   -0.0000 O   0  0  0  0  0  0  0  0  0  0  0  0
  -18.2867    5.7741   -0.0000 O   0  0  0  0  0  0  0  0  0  0  0  0
  -17.3929    8.1967   -0.0000 O   0  0  0  0  0  0  0  0  0  0  0  0
  1  2  1  0  0  0  0
  2  3  2  0  0  0  0
  2  4  1  0  0  0  0
  3  5  1  0  0  0  0
  3  6  1  0  0  0  0
  4  7  2  0  0  0  0
  6  8  2  0  0  0  0
  7  9  1  0  0  0  0
  9 10  1  0  0  0  0
 10 11  1  0  0  0  0
 11 12  1  0  0  0  0
 11 13  1  0  0  0  0
 12 14  1  0  0  0  0
 13 15  1  0  0  0  0
 14 16  1  0  0  0  0
 16 17  1  0  0  0  0
 17 18  2  0  0  0  0
 17 19  1  0  0  0  0
 18 20  1  0  0  0  0
 19 21  1  0  0  0  0
 19 22  2  0  0  0  0
 20 23  2  0  0  0  0
 20 24  1  0  0  0  0
 21 25  1  0  0  0  0
 22 26  1  0  0  0  0
 24 27  1  0  0  0  0
 25 28  1  0  0  0  0
 26 29  1  0  0  0  0
 27 30  1  0  0  0  0
 27 31  1  0  0  0  0
 28 32  1  0  0  0  0
 28 33  2  0  0  0  0
 29 34  2  0  0  0  0
 30 35  1  0  0  0  0
 31 36  1  0  0  0  0
 32 37  2  0  0  0  0
 32 38  1  0  0  0  0
 34 39  1  0  0  0  0
 35 40  1  0  0  0  0
 39 41  2  0  0  0  0
 39 42  1  0  0  0  0
  7  8  1  0  0  0  0
 15 16  1  0  0  0  0
 22 23  1  0  0  0  0
 25 26  2  0  0  0  0
 33 34  1  0  0  0  0
 36 40  1  0  0  0  0
M  CHG  4  32   1  38  -1  39   1  42  -1
M  END
>  <MolRegNo>
36190

>  <m>
=

>  <Value>
42260

>  <Unit>
nM

>  <Type>
IC50

>  <pValue>
4.37

>  <Ligand Efficiency>
0

>  <Binding Efficiency>
0

>  <Surface Efficiency>
0

>  <Assay Index>
51975

>  <Assay Category>


>  <Assay Organism>


>  <Target ID>
17045

>  <Target Name>
Cytochrome P450 3A4

>  <Target Organism>
Homo sapiens

>  <Target Description>
Target is a single protein chain

>  <Sequence Accession>
P08684

>  <Reference>
J Med Chem 47 (6), 1339-1350 (2004)

>  <Pubmed ID>
14998324

>  <DOI>
10.1021/jm0310129

$$$$
37059
Actelion Java MolfileCreator 1.0

 32 36  0  0  0  0  0  0  0  0999 V2000
    0.0000   -0.0000   -0.0000 F   0  0  0  0  0  0  0  0  0  0  0  0
   -1.4327   -0.4580   -0.0000 C   0  0  0  0  0  0  0  0  0  0  0  0
   -1.7616   -1.9142   -0.0000 C   0  0  0  0  0  0  0  0  0  0  0  0
   -2.5484    0.5520   -0.0000 C   0  0  0  0  0  0  0  0  0  0  0  0
   -0.6694   -2.9007   -0.0000 F   0  0  0  0  0  0  0  0  0  0  0  0
   -3.1825   -2.3487   -0.0000 C   0  0  0  0  0  0  0  0  0  0  0  0
   -3.9576    0.1057   -0.0000 C   0  0  0  0  0  0  0  0  0  0  0  0
   -4.2982   -1.3270   -0.0000 C   0  0  0  0  0  0  0  0  0  0  0  0
   -5.0733    1.1157   -0.0000 C   0  0  0  0  0  0  0  0  0  0  0  0
   -4.7679    2.5836   -0.0000 C   0  0  0  0  0  0  0  0  0  0  0  0
   -5.8836    3.5936   -0.0000 N   0  0  0  0  0  0  0  0  0  0  0  0
   -7.3046    3.1591   -0.0000 C   0  0  0  0  0  0  0  0  0  0  0  0
   -5.5783    5.0733   -0.0000 C   0  0  0  0  0  0  0  0  0  0  0  0
   -8.4202    4.1573   -0.0000 C   0  0  0  0  0  0  0  0  0  0  0  0
   -6.6939    6.0832   -0.0000 C   0  0  0  0  0  0  0  0  0  0  0  0
   -8.1267    5.6370   -0.0000 N   0  0  0  0  0  0  0  0  0  0  0  0
   -9.2423    6.6469   -0.0000 C   0  0  0  0  0  0  0  0  0  0  0  0
   -8.8900    8.1032   -0.0000 N   0  0  0  0  0  0  0  0  0  0  0  0
  -10.6985    6.2359   -0.0000 C   0  0  0  0  0  0  0  0  0  0  0  0
  -10.0056    9.1601   -0.0000 C   0  0  0  0  0  0  0  0  0  0  0  0
  -11.3679    4.9089   -0.0000 N   0  0  0  0  0  0  0  0  0  0  0  0
  -11.7907    7.2928   -0.0000 C   0  0  0  0  0  0  0  0  0  0  0  0
  -11.4384    8.7491   -0.0000 N   0  0  0  0  0  0  0  0  0  0  0  0
  -12.8711    5.1203   -0.0000 C   0  0  0  0  0  0  0  0  0  0  0  0
  -13.1177    6.6000   -0.0000 C   0  0  0  0  0  0  0  0  0  0  0  0
  -14.0337    4.1690   -0.0000 C   0  0  0  0  0  0  0  0  0  0  0  0
  -14.5270    7.1284   -0.0000 C   0  0  0  0  0  0  0  0  0  0  0  0
  -15.4430    4.6975   -0.0000 C   0  0  0  0  0  0  0  0  0  0  0  0
  -15.6779    6.1772   -0.0000 C   0  0  0  0  0  0  0  0  0  0  0  0
  -17.0871    6.7057   -0.0000 N   0  0  0  0  0  0  0  0  0  0  0  0
  -18.2380    5.7662   -0.0000 O   0  0  0  0  0  0  0  0  0  0  0  0
  -17.3455    8.1854   -0.0000 O   0  0  0  0  0  0  0  0  0  0  0  0
  1  2  1  0  0  0  0
  2  3  2  0  0  0  0
  2  4  1  0  0  0  0
  3  5  1  0  0  0  0
  3  6  1  0  0  0  0
  4  7  2  0  0  0  0
  6  8  2  0  0  0  0
  7  9  1  0  0  0  0
  9 10  1  0  0  0  0
 10 11  1  0  0  0  0
 11 12  1  0  0  0  0
 11 13  1  0  0  0  0
 12 14  1  0  0  0  0
 13 15  1  0  0  0  0
 14 16  1  0  0  0  0
 16 17  1  0  0  0  0
 17 18  2  0  0  0  0
 17 19  1  0  0  0  0
 18 20  1  0  0  0  0
 19 21  1  0  0  0  0
 19 22  2  0  0  0  0
 20 23  2  0  0  0  0
 21 24  1  0  0  0  0
 22 25  1  0  0  0  0
 24 26  1  0  0  0  0
 25 27  1  0  0  0  0
 26 28  2  0  0  0  0
 27 29  2  0  0  0  0
 29 30  1  0  0  0  0
 30 31  2  0  0  0  0
 30 32  1  0  0  0  0
  7  8  1  0  0  0  0
 15 16  1  0  0  0  0
 22 23  1  0  0  0  0
 24 25  2  0  0  0  0
 28 29  1  0  0  0  0
M  CHG  2  30   1  32  -1
M  END
>  <MolRegNo>
37059

>  <m>
=

>  <Value>
12580

>  <Unit>
nM

>  <Type>
IC50

>  <pValue>
4.9

>  <Ligand Efficiency>
0

>  <Binding Efficiency>
0

>  <Surface Efficiency>
0

>  <Assay Index>
51975

>  <Assay Category>


>  <Assay Organism>


>  <Target ID>
17045

>  <Target Name>
Cytochrome P450 3A4

>  <Target Organism>
Homo sapiens

>  <Target Description>
Target is a single protein chain

>  <Sequence Accession>
P08684

>  <Reference>
J Med Chem 47 (6), 1339-1350 (2004)

>  <Pubmed ID>
14998324

>  <DOI>
10.1021/jm0310129

$$$$
37650
Actelion Java MolfileCreator 1.0

 33 37  0  0  0  0  0  0  0  0999 V2000
    0.0000   -0.0000   -0.0000 F   0  0  0  0  0  0  0  0  0  0  0  0
   -1.4337   -0.4348   -0.0000 C   0  0  0  0  0  0  0  0  0  0  0  0
   -1.7627   -1.9037   -0.0000 C   0  0  0  0  0  0  0  0  0  0  0  0
   -2.5500    0.5523   -0.0000 C   0  0  0  0  0  0  0  0  0  0  0  0
   -0.6698   -2.8908   -0.0000 F   0  0  0  0  0  0  0  0  0  0  0  0
   -3.1964   -2.3385   -0.0000 C   0  0  0  0  0  0  0  0  0  0  0  0
   -3.9720    0.1058   -0.0000 C   0  0  0  0  0  0  0  0  0  0  0  0
   -4.3127   -1.3161   -0.0000 C   0  0  0  0  0  0  0  0  0  0  0  0
   -5.0883    1.1164   -0.0000 C   0  0  0  0  0  0  0  0  0  0  0  0
   -4.7828    2.5853   -0.0000 C   0  0  0  0  0  0  0  0  0  0  0  0
   -5.8992    3.5959   -0.0000 N   0  0  0  0  0  0  0  0  0  0  0  0
   -7.3328    3.1611   -0.0000 C   0  0  0  0  0  0  0  0  0  0  0  0
   -5.6054    5.0766   -0.0000 C   0  0  0  0  0  0  0  0  0  0  0  0
   -8.4375    4.1600   -0.0000 C   0  0  0  0  0  0  0  0  0  0  0  0
   -6.7218    6.0872   -0.0000 C   0  0  0  0  0  0  0  0  0  0  0  0
   -8.1437    5.6406   -0.0000 N   0  0  0  0  0  0  0  0  0  0  0  0
   -9.2601    6.6513   -0.0000 C   0  0  0  0  0  0  0  0  0  0  0  0
   -8.9075    8.1084   -0.0000 N   0  0  0  0  0  0  0  0  0  0  0  0
  -10.7055    6.2400   -0.0000 C   0  0  0  0  0  0  0  0  0  0  0  0
  -10.0004    9.1660   -0.0000 C   0  0  0  0  0  0  0  0  0  0  0  0
  -11.3635    4.9121   -0.0000 N   0  0  0  0  0  0  0  0  0  0  0  0
  -11.7983    7.2976   -0.0000 C   0  0  0  0  0  0  0  0  0  0  0  0
  -11.4458    8.7547   -0.0000 N   0  0  0  0  0  0  0  0  0  0  0  0
  -12.8677    5.1236   -0.0000 C   0  0  0  0  0  0  0  0  0  0  0  0
  -10.6702    3.5959   -0.0000 C   0  0  0  0  0  0  0  0  0  0  0  0
  -13.1497    6.6043   -0.0000 C   0  0  0  0  0  0  0  0  0  0  0  0
  -14.0311    4.1717   -0.0000 C   0  0  0  0  0  0  0  0  0  0  0  0
  -14.5599    7.1331   -0.0000 C   0  0  0  0  0  0  0  0  0  0  0  0
  -15.4413    4.7005   -0.0000 C   0  0  0  0  0  0  0  0  0  0  0  0
  -14.8184    8.6137   -0.0000 C   0  0  0  0  0  0  0  0  0  0  0  0
  -15.6998    6.1812   -0.0000 C   0  0  0  0  0  0  0  0  0  0  0  0
  -13.6903    9.5773   -0.0000 O   0  0  0  0  0  0  0  0  0  0  0  0
  -16.2286    9.1190   -0.0000 N   0  0  0  0  0  0  0  0  0  0  0  0
  1  2  1  0  0  0  0
  2  3  2  0  0  0  0
  2  4  1  0  0  0  0
  3  5  1  0  0  0  0
  3  6  1  0  0  0  0
  4  7  2  0  0  0  0
  6  8  2  0  0  0  0
  7  9  1  0  0  0  0
  9 10  1  0  0  0  0
 10 11  1  0  0  0  0
 11 12  1  0  0  0  0
 11 13  1  0  0  0  0
 12 14  1  0  0  0  0
 13 15  1  0  0  0  0
 14 16  1  0  0  0  0
 16 17  1  0  0  0  0
 17 18  2  0  0  0  0
 17 19  1  0  0  0  0
 18 20  1  0  0  0  0
 19 21  1  0  0  0  0
 19 22  2  0  0  0  0
 20 23  2  0  0  0  0
 21 24  1  0  0  0  0
 21 25  1  0  0  0  0
 22 26  1  0  0  0  0
 24 27  1  0  0  0  0
 26 28  1  0  0  0  0
 27 29  2  0  0  0  0
 28 30  1  0  0  0  0
 28 31  2  0  0  0  0
 30 32  2  0  0  0  0
 30 33  1  0  0  0  0
  7  8  1  0  0  0  0
 15 16  1  0  0  0  0
 22 23  1  0  0  0  0
 24 26  2  0  0  0  0
 29 31  1  0  0  0  0
M  END
>  <MolRegNo>
37650

>  <m>
=

>  <Value>
260

>  <Unit>
nM

>  <Type>
IC50

>  <pValue>
6.58

>  <Ligand Efficiency>
0

>  <Binding Efficiency>
0

>  <Surface Efficiency>
0

>  <Assay Index>
51975

>  <Assay Category>


>  <Assay Organism>


>  <Target ID>
17045

>  <Target Name>
Cytochrome P450 3A4

>  <Target Organism>
Homo sapiens

>  <Target Description>
Target is a single protein chain

>  <Sequence Accession>
P08684

>  <Reference>
J Med Chem 47 (6), 1339-1350 (2004)

>  <Pubmed ID>
14998324

>  <DOI>
10.1021/jm0310129

$$$$
37094
Actelion Java MolfileCreator 1.0

 38 42  0  0  0  0  0  0  0  0999 V2000
    0.0000   -0.0000   -0.0000 F   0  0  0  0  0  0  0  0  0  0  0  0
   -1.4338   -0.4348   -0.0000 C   0  0  0  0  0  0  0  0  0  0  0  0
   -1.7629   -1.9039   -0.0000 C   0  0  0  0  0  0  0  0  0  0  0  0
   -2.5503    0.5524   -0.0000 C   0  0  0  0  0  0  0  0  0  0  0  0
   -0.6699   -2.8911   -0.0000 F   0  0  0  0  0  0  0  0  0  0  0  0
   -3.1967   -2.3387   -0.0000 C   0  0  0  0  0  0  0  0  0  0  0  0
   -3.9723    0.1058   -0.0000 C   0  0  0  0  0  0  0  0  0  0  0  0
   -4.3132   -1.3163   -0.0000 C   0  0  0  0  0  0  0  0  0  0  0  0
   -5.0888    1.1165   -0.0000 C   0  0  0  0  0  0  0  0  0  0  0  0
   -4.7832    2.5855   -0.0000 C   0  0  0  0  0  0  0  0  0  0  0  0
   -5.8997    3.5963   -0.0000 N   0  0  0  0  0  0  0  0  0  0  0  0
   -5.6059    5.0771   -0.0000 C   0  0  0  0  0  0  0  0  0  0  0  0
   -7.3335    3.1614   -0.0000 C   0  0  0  0  0  0  0  0  0  0  0  0
   -6.7224    6.0878   -0.0000 C   0  0  0  0  0  0  0  0  0  0  0  0
   -8.4383    4.1604   -0.0000 C   0  0  0  0  0  0  0  0  0  0  0  0
   -8.1562    5.6412   -0.0000 N   0  0  0  0  0  0  0  0  0  0  0  0
   -9.2727    6.6519   -0.0000 C   0  0  0  0  0  0  0  0  0  0  0  0
   -8.9201    8.1092   -0.0000 N   0  0  0  0  0  0  0  0  0  0  0  0
  -10.7182    6.2406   -0.0000 C   0  0  0  0  0  0  0  0  0  0  0  0
  -10.0131    9.1669   -0.0000 C   0  0  0  0  0  0  0  0  0  0  0  0
  -11.3764    4.9125   -0.0000 N   0  0  0  0  0  0  0  0  0  0  0  0
  -11.8112    7.2983   -0.0000 C   0  0  0  0  0  0  0  0  0  0  0  0
  -11.4586    8.7556   -0.0000 N   0  0  0  0  0  0  0  0  0  0  0  0
  -12.8807    5.1241   -0.0000 C   0  0  0  0  0  0  0  0  0  0  0  0
  -10.6830    3.5963   -0.0000 C   0  0  0  0  0  0  0  0  0  0  0  0
  -13.1627    6.6049   -0.0000 C   0  0  0  0  0  0  0  0  0  0  0  0
  -14.0442    4.1721   -0.0000 C   0  0  0  0  0  0  0  0  0  0  0  0
  -11.4821    2.3387   -0.0000 C   0  0  0  0  0  0  0  0  0  0  0  0
  -14.5730    7.1337   -0.0000 C   0  0  0  0  0  0  0  0  0  0  0  0
  -15.4545    4.7010   -0.0000 C   0  0  0  0  0  0  0  0  0  0  0  0
  -12.9747    2.3857   -0.0000 O   0  0  0  0  0  0  0  0  0  0  0  0
  -10.7770    1.0342   -0.0000 O   0  0  0  0  0  0  0  0  0  0  0  0
  -15.7130    6.1818   -0.0000 C   0  0  0  0  0  0  0  0  0  0  0  0
  -11.5762   -0.2233   -0.0000 C   0  0  0  0  0  0  0  0  0  0  0  0
  -17.1351    6.7107   -0.0000 N   0  0  0  0  0  0  0  0  0  0  0  0
  -13.0805   -0.1645   -0.0000 C   0  0  0  0  0  0  0  0  0  0  0  0
  -18.2868    5.7705   -0.0000 O   0  0  0  0  0  0  0  0  0  0  0  0
  -17.4054    8.1915   -0.0000 O   0  0  0  0  0  0  0  0  0  0  0  0
  1  2  1  0  0  0  0
  2  3  2  0  0  0  0
  2  4  1  0  0  0  0
  3  5  1  0  0  0  0
  3  6  1  0  0  0  0
  4  7  2  0  0  0  0
  6  8  2  0  0  0  0
  7  9  1  0  0  0  0
  9 10  1  0  0  0  0
 10 11  1  0  0  0  0
 11 12  1  0  0  0  0
 11 13  1  0  0  0  0
 12 14  1  0  0  0  0
 13 15  1  0  0  0  0
 14 16  1  0  0  0  0
 16 17  1  0  0  0  0
 17 18  2  0  0  0  0
 17 19  1  0  0  0  0
 18 20  1  0  0  0  0
 19 21  1  0  0  0  0
 19 22  2  0  0  0  0
 20 23  2  0  0  0  0
 21 24  1  0  0  0  0
 21 25  1  0  0  0  0
 22 26  1  0  0  0  0
 24 27  1  0  0  0  0
 25 28  1  0  0  0  0
 26 29  1  0  0  0  0
 27 30  2  0  0  0  0
 28 31  2  0  0  0  0
 28 32  1  0  0  0  0
 29 33  2  0  0  0  0
 32 34  1  0  0  0  0
 33 35  1  0  0  0  0
 34 36  1  0  0  0  0
 35 37  2  0  0  0  0
 35 38  1  0  0  0  0
  7  8  1  0  0  0  0
 15 16  1  0  0  0  0
 22 23  1  0  0  0  0
 24 26  2  0  0  0  0
 30 33  1  0  0  0  0
M  CHG  2  35   1  38  -1
M  END
>  <MolRegNo>
37094

>  <m>
=

>  <Value>
15000

>  <Unit>
nM

>  <Type>
IC50

>  <pValue>
4.82

>  <Ligand Efficiency>
0

>  <Binding Efficiency>
0

>  <Surface Efficiency>
0

>  <Assay Index>
51975

>  <Assay Category>


>  <Assay Organism>


>  <Target ID>
17045

>  <Target Name>
Cytochrome P450 3A4

>  <Target Organism>
Homo sapiens

>  <Target Description>
Target is a single protein chain

>  <Sequence Accession>
P08684

>  <Reference>
J Med Chem 47 (6), 1339-1350 (2004)

>  <Pubmed ID>
14998324

>  <DOI>
10.1021/jm0310129

$$$$
37065
Actelion Java MolfileCreator 1.0

 38 43  0  0  0  0  0  0  0  0999 V2000
    0.0000   -0.0000   -0.0000 Cl  0  0  0  0  0  0  0  0  0  0  0  0
    0.2495   -1.4730   -0.0000 C   0  0  0  0  0  0  0  0  0  0  0  0
   -0.9147   -2.4352   -0.0000 N   0  0  0  0  0  0  0  0  0  0  0  0
    1.6512   -1.9838   -0.0000 C   0  0  0  0  0  0  0  0  0  0  0  0
   -0.6771   -3.9201   -0.0000 C   0  0  0  0  0  0  0  0  0  0  0  0
    2.9698   -1.2592   -0.0000 C   0  0  0  0  0  0  0  0  0  0  0  0
    1.9007   -3.4568   -0.0000 C   0  0  0  0  0  0  0  0  0  0  0  0
    0.7246   -4.4309   -0.0000 C   0  0  0  0  0  0  0  0  0  0  0  0
    3.3261    0.2138   -0.0000 N   0  0  0  0  0  0  0  0  0  0  0  0
    4.0508   -2.3045   -0.0000 C   0  0  0  0  0  0  0  0  0  0  0  0
    3.3974   -3.6469   -0.0000 N   0  0  0  0  0  0  0  0  0  0  0  0
    4.7516    0.6534   -0.0000 C   0  0  0  0  0  0  0  0  0  0  0  0
    5.5000   -1.8650   -0.0000 C   0  0  0  0  0  0  0  0  0  0  0  0
    4.1102   -4.9773   -0.0000 C   0  0  0  0  0  0  0  0  0  0  0  0
    5.8564   -0.3920   -0.0000 N   0  0  0  0  0  0  0  0  0  0  0  0
    5.1080    2.1382   -0.0000 C   0  0  0  0  0  0  0  0  0  0  0  0
    6.6048   -2.8629   -0.0000 N   0  0  0  0  0  0  0  0  0  0  0  0
    6.5335    2.5778   -0.0000 N   0  0  0  0  0  0  0  0  0  0  0  0
    8.0184   -2.3877   -0.0000 C   0  0  0  0  0  0  0  0  0  0  0  0
    6.2840   -4.3359   -0.0000 C   0  0  0  0  0  0  0  0  0  0  0  0
    7.6145    1.5324   -0.0000 C   0  0  0  0  0  0  0  0  0  0  0  0
    6.8780    4.0508   -0.0000 C   0  0  0  0  0  0  0  0  0  0  0  0
    9.1232   -3.3855   -0.0000 C   0  0  0  0  0  0  0  0  0  0  0  0
    7.3888   -5.3218   -0.0000 C   0  0  0  0  0  0  0  0  0  0  0  0
    9.0400    1.9601   -0.0000 C   0  0  0  0  0  0  0  0  0  0  0  0
    8.3154    4.4784   -0.0000 C   0  0  0  0  0  0  0  0  0  0  0  0
    8.7905   -4.8586   -0.0000 N   0  0  0  0  0  0  0  0  0  0  0  0
    9.3964    3.4331   -0.0000 O   0  0  0  0  0  0  0  0  0  0  0  0
    9.8953   -5.8564   -0.0000 C   0  0  0  0  0  0  0  0  0  0  0  0
    9.5627   -7.3175   -0.0000 C   0  0  0  0  0  0  0  0  0  0  0  0
   10.6674   -8.3154   -0.0000 C   0  0  0  0  0  0  0  0  0  0  0  0
   12.0692   -7.8402   -0.0000 C   0  0  0  0  0  0  0  0  0  0  0  0
   10.3229   -9.7646   -0.0000 C   0  0  0  0  0  0  0  0  0  0  0  0
   13.1739   -8.8381   -0.0000 C   0  0  0  0  0  0  0  0  0  0  0  0
   11.4277  -10.7743   -0.0000 C   0  0  0  0  0  0  0  0  0  0  0  0
   14.5994   -8.3510   -0.0000 F   0  0  0  0  0  0  0  0  0  0  0  0
   12.8413  -10.3111   -0.0000 C   0  0  0  0  0  0  0  0  0  0  0  0
   13.9461  -11.3089   -0.0000 F   0  0  0  0  0  0  0  0  0  0  0  0
  1  2  1  0  0  0  0
  2  3  2  0  0  0  0
  2  4  1  0  0  0  0
  3  5  1  0  0  0  0
  4  6  1  0  0  0  0
  4  7  2  0  0  0  0
  5  8  2  0  0  0  0
  6  9  2  0  0  0  0
  6 10  1  0  0  0  0
  7 11  1  0  0  0  0
  9 12  1  0  0  0  0
 10 13  2  0  0  0  0
 11 14  1  0  0  0  0
 12 15  2  0  0  0  0
 12 16  1  0  0  0  0
 13 17  1  0  0  0  0
 16 18  1  0  0  0  0
 17 19  1  0  0  0  0
 17 20  1  0  0  0  0
 18 21  1  0  0  0  0
 18 22  1  0  0  0  0
 19 23  1  0  0  0  0
 20 24  1  0  0  0  0
 21 25  1  0  0  0  0
 22 26  1  0  0  0  0
 23 27  1  0  0  0  0
 25 28  1  0  0  0  0
 27 29  1  0  0  0  0
 29 30  1  0  0  0  0
 30 31  1  0  0  0  0
 31 32  2  0  0  0  0
 31 33  1  0  0  0  0
 32 34  1  0  0  0  0
 33 35  2  0  0  0  0
 34 36  1  0  0  0  0
 34 37  2  0  0  0  0
 37 38  1  0  0  0  0
  7  8  1  0  0  0  0
 10 11  1  0  0  0  0
 13 15  1  0  0  0  0
 24 27  1  0  0  0  0
 26 28  1  0  0  0  0
 35 37  1  0  0  0  0
M  END
>  <MolRegNo>
37065

>  <m>
=

>  <Value>
20030

>  <Unit>
nM

>  <Type>
IC50

>  <pValue>
4.7

>  <Ligand Efficiency>
0

>  <Binding Efficiency>
0

>  <Surface Efficiency>
0

>  <Assay Index>
51975

>  <Assay Category>


>  <Assay Organism>


>  <Target ID>
17045

>  <Target Name>
Cytochrome P450 3A4

>  <Target Organism>
Homo sapiens

>  <Target Description>
Target is a single protein chain

>  <Sequence Accession>
P08684

>  <Reference>
J Med Chem 47 (6), 1339-1350 (2004)

>  <Pubmed ID>
14998324

>  <DOI>
10.1021/jm0310129

$$$$
37397
Actelion Java MolfileCreator 1.0

 36 41  0  0  0  0  0  0  0  0999 V2000
    0.0000   -0.0000   -0.0000 F   0  0  0  0  0  0  0  0  0  0  0  0
   -1.4328   -0.4580   -0.0000 C   0  0  0  0  0  0  0  0  0  0  0  0
   -1.7617   -1.9143   -0.0000 C   0  0  0  0  0  0  0  0  0  0  0  0
   -2.5485    0.5520   -0.0000 C   0  0  0  0  0  0  0  0  0  0  0  0
   -0.6694   -2.9009   -0.0000 F   0  0  0  0  0  0  0  0  0  0  0  0
   -3.1827   -2.3489   -0.0000 C   0  0  0  0  0  0  0  0  0  0  0  0
   -3.9579    0.1057   -0.0000 C   0  0  0  0  0  0  0  0  0  0  0  0
   -4.2984   -1.3271   -0.0000 C   0  0  0  0  0  0  0  0  0  0  0  0
   -5.0736    1.1157   -0.0000 C   0  0  0  0  0  0  0  0  0  0  0  0
   -4.7682    2.5838   -0.0000 C   0  0  0  0  0  0  0  0  0  0  0  0
   -5.8839    3.5938   -0.0000 N   0  0  0  0  0  0  0  0  0  0  0  0
   -7.3050    3.1592   -0.0000 C   0  0  0  0  0  0  0  0  0  0  0  0
   -5.5786    5.0736   -0.0000 C   0  0  0  0  0  0  0  0  0  0  0  0
   -8.4207    4.1575   -0.0000 C   0  0  0  0  0  0  0  0  0  0  0  0
   -6.6943    6.0836   -0.0000 C   0  0  0  0  0  0  0  0  0  0  0  0
   -8.1271    5.6373   -0.0000 N   0  0  0  0  0  0  0  0  0  0  0  0
   -9.2428    6.6473   -0.0000 C   0  0  0  0  0  0  0  0  0  0  0  0
   -8.8905    8.1036   -0.0000 N   0  0  0  0  0  0  0  0  0  0  0  0
  -10.6991    6.2363   -0.0000 C   0  0  0  0  0  0  0  0  0  0  0  0
  -10.0062    9.1606   -0.0000 C   0  0  0  0  0  0  0  0  0  0  0  0
  -11.3686    4.9092   -0.0000 N   0  0  0  0  0  0  0  0  0  0  0  0
  -11.7914    7.2933   -0.0000 C   0  0  0  0  0  0  0  0  0  0  0  0
  -11.4390    8.7496   -0.0000 N   0  0  0  0  0  0  0  0  0  0  0  0
  -12.8718    5.1206   -0.0000 C   0  0  0  0  0  0  0  0  0  0  0  0
  -10.6639    3.5938   -0.0000 C   0  0  0  0  0  0  0  0  0  0  0  0
  -13.1185    6.6003   -0.0000 C   0  0  0  0  0  0  0  0  0  0  0  0
  -14.0345    4.1693   -0.0000 C   0  0  0  0  0  0  0  0  0  0  0  0
  -14.5278    7.1288   -0.0000 C   0  0  0  0  0  0  0  0  0  0  0  0
  -15.4439    4.6978   -0.0000 C   0  0  0  0  0  0  0  0  0  0  0  0
  -15.6787    6.1775   -0.0000 N   0  0  0  0  0  0  0  0  0  0  0  0
  -14.7979    8.6086   -0.0000 N   0  0  0  0  0  0  0  0  0  0  0  0
  -13.6587    9.5717   -0.0000 C   0  0  0  0  0  0  0  0  0  0  0  0
  -16.2072    9.1136   -0.0000 C   0  0  0  0  0  0  0  0  0  0  0  0
  -13.9171   11.0515   -0.0000 C   0  0  0  0  0  0  0  0  0  0  0  0
  -16.4656   10.5934   -0.0000 C   0  0  0  0  0  0  0  0  0  0  0  0
  -15.3264   11.5682   -0.0000 O   0  0  0  0  0  0  0  0  0  0  0  0
  1  2  1  0  0  0  0
  2  3  2  0  0  0  0
  2  4  1  0  0  0  0
  3  5  1  0  0  0  0
  3  6  1  0  0  0  0
  4  7  2  0  0  0  0
  6  8  2  0  0  0  0
  7  9  1  0  0  0  0
  9 10  1  0  0  0  0
 10 11  1  0  0  0  0
 11 12  1  0  0  0  0
 11 13  1  0  0  0  0
 12 14  1  0  0  0  0
 13 15  1  0  0  0  0
 14 16  1  0  0  0  0
 16 17  1  0  0  0  0
 17 18  2  0  0  0  0
 17 19  1  0  0  0  0
 18 20  1  0  0  0  0
 19 21  1  0  0  0  0
 19 22  2  0  0  0  0
 20 23  2  0  0  0  0
 21 24  1  0  0  0  0
 21 25  1  0  0  0  0
 22 26  1  0  0  0  0
 24 27  1  0  0  0  0
 26 28  1  0  0  0  0
 27 29  2  0  0  0  0
 28 30  2  0  0  0  0
 28 31  1  0  0  0  0
 31 32  1  0  0  0  0
 31 33  1  0  0  0  0
 32 34  1  0  0  0  0
 33 35  1  0  0  0  0
 34 36  1  0  0  0  0
  7  8  1  0  0  0  0
 15 16  1  0  0  0  0
 22 23  1  0  0  0  0
 24 26  2  0  0  0  0
 29 30  1  0  0  0  0
 35 36  1  0  0  0  0
M  END
>  <MolRegNo>
37397

>  <m>
=

>  <Value>
20800

>  <Unit>
nM

>  <Type>
IC50

>  <pValue>
4.68

>  <Ligand Efficiency>
0

>  <Binding Efficiency>
0

>  <Surface Efficiency>
0

>  <Assay Index>
51975

>  <Assay Category>


>  <Assay Organism>


>  <Target ID>
17045

>  <Target Name>
Cytochrome P450 3A4

>  <Target Organism>
Homo sapiens

>  <Target Description>
Target is a single protein chain

>  <Sequence Accession>
P08684

>  <Reference>
J Med Chem 47 (6), 1339-1350 (2004)

>  <Pubmed ID>
14998324

>  <DOI>
10.1021/jm0310129

$$$$
37267
Actelion Java MolfileCreator 1.0

 33 37  0  0  0  0  0  0  0  0999 V2000
    0.0000   -0.0000   -0.0000 F   0  0  0  0  0  0  0  0  0  0  0  0
   -1.4331   -0.4581   -0.0000 C   0  0  0  0  0  0  0  0  0  0  0  0
   -1.7620   -1.9147   -0.0000 C   0  0  0  0  0  0  0  0  0  0  0  0
   -2.5490    0.5521   -0.0000 C   0  0  0  0  0  0  0  0  0  0  0  0
   -0.6696   -2.9014   -0.0000 F   0  0  0  0  0  0  0  0  0  0  0  0
   -3.1951   -2.3493   -0.0000 C   0  0  0  0  0  0  0  0  0  0  0  0
   -3.9703    0.1057   -0.0000 C   0  0  0  0  0  0  0  0  0  0  0  0
   -4.3110   -1.3274   -0.0000 C   0  0  0  0  0  0  0  0  0  0  0  0
   -5.0863    1.1159   -0.0000 C   0  0  0  0  0  0  0  0  0  0  0  0
   -4.7808    2.5842   -0.0000 C   0  0  0  0  0  0  0  0  0  0  0  0
   -5.8968    3.5944   -0.0000 N   0  0  0  0  0  0  0  0  0  0  0  0
   -7.3298    3.1598   -0.0000 C   0  0  0  0  0  0  0  0  0  0  0  0
   -5.6031    5.0745   -0.0000 C   0  0  0  0  0  0  0  0  0  0  0  0
   -8.4340    4.1583   -0.0000 C   0  0  0  0  0  0  0  0  0  0  0  0
   -6.7190    6.0847   -0.0000 C   0  0  0  0  0  0  0  0  0  0  0  0
   -8.1404    5.6383   -0.0000 N   0  0  0  0  0  0  0  0  0  0  0  0
   -9.2563    6.6485   -0.0000 C   0  0  0  0  0  0  0  0  0  0  0  0
   -8.9039    8.1051   -0.0000 N   0  0  0  0  0  0  0  0  0  0  0  0
  -10.7011    6.2374   -0.0000 C   0  0  0  0  0  0  0  0  0  0  0  0
   -9.9963    9.1623   -0.0000 C   0  0  0  0  0  0  0  0  0  0  0  0
  -11.3589    4.9101   -0.0000 N   0  0  0  0  0  0  0  0  0  0  0  0
  -11.7935    7.2946   -0.0000 C   0  0  0  0  0  0  0  0  0  0  0  0
  -11.4411    8.7512   -0.0000 N   0  0  0  0  0  0  0  0  0  0  0  0
  -12.8625    5.1215   -0.0000 C   0  0  0  0  0  0  0  0  0  0  0  0
  -10.6659    3.5944   -0.0000 C   0  0  0  0  0  0  0  0  0  0  0  0
  -13.1444    6.6016   -0.0000 C   0  0  0  0  0  0  0  0  0  0  0  0
  -14.0254    4.1700   -0.0000 N   0  0  0  0  0  0  0  0  0  0  0  0
  -14.5540    7.1302   -0.0000 C   0  0  0  0  0  0  0  0  0  0  0  0
  -15.4350    4.6986   -0.0000 C   0  0  0  0  0  0  0  0  0  0  0  0
  -14.8124    8.6102   -0.0000 C   0  0  0  0  0  0  0  0  0  0  0  0
  -15.6934    6.1787   -0.0000 C   0  0  0  0  0  0  0  0  0  0  0  0
  -13.6847    9.5734   -0.0000 O   0  0  0  0  0  0  0  0  0  0  0  0
  -16.2220    9.1153   -0.0000 N   0  0  0  0  0  0  0  0  0  0  0  0
  1  2  1  0  0  0  0
  2  3  2  0  0  0  0
  2  4  1  0  0  0  0
  3  5  1  0  0  0  0
  3  6  1  0  0  0  0
  4  7  2  0  0  0  0
  6  8  2  0  0  0  0
  7  9  1  0  0  0  0
  9 10  1  0  0  0  0
 10 11  1  0  0  0  0
 11 12  1  0  0  0  0
 11 13  1  0  0  0  0
 12 14  1  0  0  0  0
 13 15  1  0  0  0  0
 14 16  1  0  0  0  0
 16 17  1  0  0  0  0
 17 18  2  0  0  0  0
 17 19  1  0  0  0  0
 18 20  1  0  0  0  0
 19 21  1  0  0  0  0
 19 22  2  0  0  0  0
 20 23  2  0  0  0  0
 21 24  1  0  0  0  0
 21 25  1  0  0  0  0
 22 26  1  0  0  0  0
 24 27  1  0  0  0  0
 26 28  1  0  0  0  0
 27 29  2  0  0  0  0
 28 30  1  0  0  0  0
 28 31  2  0  0  0  0
 30 32  2  0  0  0  0
 30 33  1  0  0  0  0
  7  8  1  0  0  0  0
 15 16  1  0  0  0  0
 22 23  1  0  0  0  0
 24 26  2  0  0  0  0
 29 31  1  0  0  0  0
M  END
>  <MolRegNo>
37267

>  <m>
=

>  <Value>
1230

>  <Unit>
nM

>  <Type>
IC50

>  <pValue>
5.91

>  <Ligand Efficiency>
0

>  <Binding Efficiency>
0

>  <Surface Efficiency>
0

>  <Assay Index>
51975

>  <Assay Category>


>  <Assay Organism>


>  <Target ID>
17045

>  <Target Name>
Cytochrome P450 3A4

>  <Target Organism>
Homo sapiens

>  <Target Description>
Target is a single protein chain

>  <Sequence Accession>
P08684

>  <Reference>
J Med Chem 47 (6), 1339-1350 (2004)

>  <Pubmed ID>
14998324

>  <DOI>
10.1021/jm0310129

$$$$
37217
Actelion Java MolfileCreator 1.0

 40 45  0  0  0  0  0  0  0  0999 V2000
    0.0000   -0.0000   -0.0000 F   0  0  0  0  0  0  0  0  0  0  0  0
   -1.4230   -0.4469   -0.0000 C   0  0  0  0  0  0  0  0  0  0  0  0
   -1.7523   -1.9052   -0.0000 C   0  0  0  0  0  0  0  0  0  0  0  0
   -2.5402    0.5645   -0.0000 C   0  0  0  0  0  0  0  0  0  0  0  0
   -0.6586   -2.8930   -0.0000 F   0  0  0  0  0  0  0  0  0  0  0  0
   -3.1870   -2.3403   -0.0000 C   0  0  0  0  0  0  0  0  0  0  0  0
   -3.9750    0.1294   -0.0000 C   0  0  0  0  0  0  0  0  0  0  0  0
   -4.3043   -1.3289   -0.0000 C   0  0  0  0  0  0  0  0  0  0  0  0
   -5.0922    1.1408   -0.0000 C   0  0  0  0  0  0  0  0  0  0  0  0
   -4.7865    2.6108   -0.0000 C   0  0  0  0  0  0  0  0  0  0  0  0
   -5.8919    3.6339   -0.0000 N   0  0  0  0  0  0  0  0  0  0  0  0
   -5.5979    5.1040   -0.0000 C   0  0  0  0  0  0  0  0  0  0  0  0
   -7.3267    3.1988   -0.0000 C   0  0  0  0  0  0  0  0  0  0  0  0
   -6.7151    6.1271   -0.0000 C   0  0  0  0  0  0  0  0  0  0  0  0
   -8.4439    4.2102   -0.0000 C   0  0  0  0  0  0  0  0  0  0  0  0
   -8.1264    5.6685   -0.0000 N   0  0  0  0  0  0  0  0  0  0  0  0
   -9.2436    6.6799   -0.0000 C   0  0  0  0  0  0  0  0  0  0  0  0
   -8.8908    8.1499   -0.0000 N   0  0  0  0  0  0  0  0  0  0  0  0
  -10.7019    6.2800   -0.0000 C   0  0  0  0  0  0  0  0  0  0  0  0
   -9.9963    9.2083   -0.0000 C   0  0  0  0  0  0  0  0  0  0  0  0
  -11.3605    4.9393   -0.0000 N   0  0  0  0  0  0  0  0  0  0  0  0
  -11.7838    7.3384   -0.0000 C   0  0  0  0  0  0  0  0  0  0  0  0
  -11.4546    8.7850   -0.0000 N   0  0  0  0  0  0  0  0  0  0  0  0
   -9.6552   10.6666   -0.0000 C   0  0  0  0  0  0  0  0  0  0  0  0
  -12.8658    5.1510   -0.0000 C   0  0  0  0  0  0  0  0  0  0  0  0
  -10.6666    3.6339   -0.0000 C   0  0  0  0  0  0  0  0  0  0  0  0
  -13.1245    6.6446   -0.0000 C   0  0  0  0  0  0  0  0  0  0  0  0
   -8.2205   11.1135   -0.0000 N   0  0  0  0  0  0  0  0  0  0  0  0
  -14.0301    4.2102   -0.0000 C   0  0  0  0  0  0  0  0  0  0  0  0
  -14.5358    7.1620   -0.0000 C   0  0  0  0  0  0  0  0  0  0  0  0
   -7.1620   10.0786   -0.0000 C   0  0  0  0  0  0  0  0  0  0  0  0
   -7.8912   12.5718   -0.0000 C   0  0  0  0  0  0  0  0  0  0  0  0
  -15.4413    4.7394   -0.0000 C   0  0  0  0  0  0  0  0  0  0  0  0
  -14.8063    8.6438   -0.0000 C   0  0  0  0  0  0  0  0  0  0  0  0
  -15.6883    6.2212   -0.0000 C   0  0  0  0  0  0  0  0  0  0  0  0
   -5.7508   10.5020   -0.0000 C   0  0  0  0  0  0  0  0  0  0  0  0
   -6.4682   12.9952   -0.0000 C   0  0  0  0  0  0  0  0  0  0  0  0
  -13.6773    9.6199   -0.0000 O   0  0  0  0  0  0  0  0  0  0  0  0
  -16.2175    9.1731   -0.0000 N   0  0  0  0  0  0  0  0  0  0  0  0
   -5.3980   11.9603   -0.0000 O   0  0  0  0  0  0  0  0  0  0  0  0
  1  2  1  0  0  0  0
  2  3  2  0  0  0  0
  2  4  1  0  0  0  0
  3  5  1  0  0  0  0
  3  6  1  0  0  0  0
  4  7  2  0  0  0  0
  6  8  2  0  0  0  0
  7  9  1  0  0  0  0
  9 10  1  0  0  0  0
 10 11  1  0  0  0  0
 11 12  1  0  0  0  0
 11 13  1  0  0  0  0
 12 14  1  0  0  0  0
 13 15  1  0  0  0  0
 14 16  1  0  0  0  0
 16 17  1  0  0  0  0
 17 18  2  0  0  0  0
 17 19  1  0  0  0  0
 18 20  1  0  0  0  0
 19 21  1  0  0  0  0
 19 22  2  0  0  0  0
 20 23  2  0  0  0  0
 20 24  1  0  0  0  0
 21 25  1  0  0  0  0
 21 26  1  0  0  0  0
 22 27  1  0  0  0  0
 24 28  1  0  0  0  0
 25 29  1  0  0  0  0
 27 30  1  0  0  0  0
 28 31  1  0  0  0  0
 28 32  1  0  0  0  0
 29 33  2  0  0  0  0
 30 34  1  0  0  0  0
 30 35  2  0  0  0  0
 31 36  1  0  0  0  0
 32 37  1  0  0  0  0
 34 38  2  0  0  0  0
 34 39  1  0  0  0  0
 36 40  1  0  0  0  0
  7  8  1  0  0  0  0
 15 16  1  0  0  0  0
 22 23  1  0  0  0  0
 25 27  2  0  0  0  0
 33 35  1  0  0  0  0
 37 40  1  0  0  0  0
M  END
>  <MolRegNo>
37217

>  <m>
=

>  <Value>
31310

>  <Unit>
nM

>  <Type>
IC50

>  <pValue>
4.5

>  <Ligand Efficiency>
0

>  <Binding Efficiency>
0

>  <Surface Efficiency>
0

>  <Assay Index>
51975

>  <Assay Category>


>  <Assay Organism>


>  <Target ID>
17045

>  <Target Name>
Cytochrome P450 3A4

>  <Target Organism>
Homo sapiens

>  <Target Description>
Target is a single protein chain

>  <Sequence Accession>
P08684

>  <Reference>
J Med Chem 47 (6), 1339-1350 (2004)

>  <Pubmed ID>
14998324

>  <DOI>
10.1021/jm0310129

$$$$
37401
Actelion Java MolfileCreator 1.0

 38 43  0  0  0  0  0  0  0  0999 V2000
    0.0000   -0.0000   -0.0000 F   0  0  0  0  0  0  0  0  0  0  0  0
   -1.4334   -0.4347   -0.0000 C   0  0  0  0  0  0  0  0  0  0  0  0
   -1.7624   -1.8917   -0.0000 C   0  0  0  0  0  0  0  0  0  0  0  0
   -2.5496    0.5757   -0.0000 C   0  0  0  0  0  0  0  0  0  0  0  0
   -0.6697   -2.8904   -0.0000 F   0  0  0  0  0  0  0  0  0  0  0  0
   -3.1841   -2.3264   -0.0000 C   0  0  0  0  0  0  0  0  0  0  0  0
   -3.9596    0.1175   -0.0000 C   0  0  0  0  0  0  0  0  0  0  0  0
   -4.3003   -1.3159   -0.0000 C   0  0  0  0  0  0  0  0  0  0  0  0
   -5.0758    1.1397   -0.0000 C   0  0  0  0  0  0  0  0  0  0  0  0
   -4.7703    2.5966   -0.0000 C   0  0  0  0  0  0  0  0  0  0  0  0
   -5.8865    3.6071   -0.0000 N   0  0  0  0  0  0  0  0  0  0  0  0
   -7.3082    3.1841   -0.0000 C   0  0  0  0  0  0  0  0  0  0  0  0
   -5.5810    5.0758   -0.0000 C   0  0  0  0  0  0  0  0  0  0  0  0
   -8.4244    4.1711   -0.0000 C   0  0  0  0  0  0  0  0  0  0  0  0
   -6.6972    6.1098   -0.0000 C   0  0  0  0  0  0  0  0  0  0  0  0
   -8.1307    5.6398   -0.0000 N   0  0  0  0  0  0  0  0  0  0  0  0
   -9.2469    6.6502   -0.0000 C   0  0  0  0  0  0  0  0  0  0  0  0
   -8.8944    8.1189   -0.0000 N   0  0  0  0  0  0  0  0  0  0  0  0
  -10.7038    6.2508   -0.0000 C   0  0  0  0  0  0  0  0  0  0  0  0
  -10.0106    9.1764   -0.0000 C   0  0  0  0  0  0  0  0  0  0  0  0
  -11.3736    4.9113   -0.0000 N   0  0  0  0  0  0  0  0  0  0  0  0
  -11.7965    7.3082   -0.0000 C   0  0  0  0  0  0  0  0  0  0  0  0
  -11.4440    8.7769   -0.0000 N   0  0  0  0  0  0  0  0  0  0  0  0
  -12.8775    5.1228   -0.0000 C   0  0  0  0  0  0  0  0  0  0  0  0
  -10.6686    3.6071   -0.0000 C   0  0  0  0  0  0  0  0  0  0  0  0
  -13.1242    6.6032   -0.0000 C   0  0  0  0  0  0  0  0  0  0  0  0
  -14.0407    4.1828   -0.0000 C   0  0  0  0  0  0  0  0  0  0  0  0
  -14.5342    7.1320   -0.0000 C   0  0  0  0  0  0  0  0  0  0  0  0
  -15.4506    4.6998   -0.0000 C   0  0  0  0  0  0  0  0  0  0  0  0
  -15.6856    6.1920   -0.0000 N   0  0  0  0  0  0  0  0  0  0  0  0
  -14.8044    8.6124   -0.0000 N   0  0  0  0  0  0  0  0  0  0  0  0
  -16.2144    9.1411   -0.0000 C   0  0  0  0  0  0  0  0  0  0  0  0
  -16.4846   10.6216   -0.0000 C   0  0  0  0  0  0  0  0  0  0  0  0
  -17.8945   11.1268   -0.0000 N   0  0  0  0  0  0  0  0  0  0  0  0
  -15.3566   11.5850   -0.0000 C   0  0  0  0  0  0  0  0  0  0  0  0
  -18.1648   12.6073   -0.0000 C   0  0  0  0  0  0  0  0  0  0  0  0
  -15.6386   13.0655   -0.0000 C   0  0  0  0  0  0  0  0  0  0  0  0
  -17.0368   13.5707   -0.0000 C   0  0  0  0  0  0  0  0  0  0  0  0
  1  2  1  0  0  0  0
  2  3  2  0  0  0  0
  2  4  1  0  0  0  0
  3  5  1  0  0  0  0
  3  6  1  0  0  0  0
  4  7  2  0  0  0  0
  6  8  2  0  0  0  0
  7  9  1  0  0  0  0
  9 10  1  0  0  0  0
 10 11  1  0  0  0  0
 11 12  1  0  0  0  0
 11 13  1  0  0  0  0
 12 14  1  0  0  0  0
 13 15  1  0  0  0  0
 14 16  1  0  0  0  0
 16 17  1  0  0  0  0
 17 18  2  0  0  0  0
 17 19  1  0  0  0  0
 18 20  1  0  0  0  0
 19 21  1  0  0  0  0
 19 22  2  0  0  0  0
 20 23  2  0  0  0  0
 21 24  1  0  0  0  0
 21 25  1  0  0  0  0
 22 26  1  0  0  0  0
 24 27  1  0  0  0  0
 26 28  1  0  0  0  0
 27 29  2  0  0  0  0
 28 30  2  0  0  0  0
 28 31  1  0  0  0  0
 31 32  1  0  0  0  0
 32 33  1  0  0  0  0
 33 34  2  0  0  0  0
 33 35  1  0  0  0  0
 34 36  1  0  0  0  0
 35 37  2  0  0  0  0
 36 38  2  0  0  0  0
  7  8  1  0  0  0  0
 15 16  1  0  0  0  0
 22 23  1  0  0  0  0
 24 26  2  0  0  0  0
 29 30  1  0  0  0  0
 37 38  1  0  0  0  0
M  END
>  <MolRegNo>
37401

>  <m>
=

>  <Value>
18480

>  <Unit>
nM

>  <Type>
IC50

>  <pValue>
4.73

>  <Ligand Efficiency>
0

>  <Binding Efficiency>
0

>  <Surface Efficiency>
0

>  <Assay Index>
51975

>  <Assay Category>


>  <Assay Organism>


>  <Target ID>
17045

>  <Target Name>
Cytochrome P450 3A4

>  <Target Organism>
Homo sapiens

>  <Target Description>
Target is a single protein chain

>  <Sequence Accession>
P08684

>  <Reference>
J Med Chem 47 (6), 1339-1350 (2004)

>  <Pubmed ID>
14998324

>  <DOI>
10.1021/jm0310129

$$$$
199657
Actelion Java MolfileCreator 1.0

 24 27  0  0  0  0  0  0  0  0999 V2000
    0.0000   -0.0000   -0.0000 Cl  0  0  0  0  0  0  0  0  0  0  0  0
    1.1991    0.1938   -0.0000 C   0  0  0  0  0  0  0  0  0  0  0  0
    1.7441    1.6351   -0.0000 C   0  0  0  0  0  0  0  0  0  0  0  0
    2.1438   -0.9932   -0.0000 C   0  0  0  0  0  0  0  0  0  0  0  0
    3.2581    1.8774   -0.0000 C   0  0  0  0  0  0  0  0  0  0  0  0
    3.6578   -0.7509   -0.0000 C   0  0  0  0  0  0  0  0  0  0  0  0
    3.5852    3.3914   -0.0000 C   0  0  0  0  0  0  0  0  0  0  0  0
    4.2029    0.6904   -0.0000 C   0  0  0  0  0  0  0  0  0  0  0  0
    4.9538    4.0696   -0.0000 N   0  0  0  0  0  0  0  0  0  0  0  0
    2.3740    4.3603   -0.0000 C   0  0  0  0  0  0  0  0  0  0  0  0
    5.7290    0.7025   -0.0000 N   0  0  0  0  0  0  0  0  0  0  0  0
    6.3225    3.4156   -0.0000 C   0  0  0  0  0  0  0  0  0  0  0  0
    2.6646    5.8864   -0.0000 C   0  0  0  0  0  0  0  0  0  0  0  0
    0.9084    3.8880   -0.0000 C   0  0  0  0  0  0  0  0  0  0  0  0
    6.6737    1.9137   -0.0000 C   0  0  0  0  0  0  0  0  0  0  0  0
    6.5647   -0.5693   -0.0000 C   0  0  0  0  0  0  0  0  0  0  0  0
    3.8153    6.2861   -0.0000 F   0  0  0  0  0  0  0  0  0  0  0  0
    1.5019    6.9160   -0.0000 C   0  0  0  0  0  0  0  0  0  0  0  0
   -0.2544    4.9175   -0.0000 C   0  0  0  0  0  0  0  0  0  0  0  0
    8.1029    1.3808   -0.0000 C   0  0  0  0  0  0  0  0  0  0  0  0
    8.0303   -0.1453   -0.0000 N   0  0  0  0  0  0  0  0  0  0  0  0
    6.0197   -1.9985   -0.0000 C   0  0  0  0  0  0  0  0  0  0  0  0
    0.0363    6.4436   -0.0000 C   0  0  0  0  0  0  0  0  0  0  0  0
    6.7948   -2.9311   -0.0000 O   0  0  0  0  0  0  0  0  0  0  0  0
  1  2  1  0  0  0  0
  2  3  2  0  0  0  0
  2  4  1  0  0  0  0
  3  5  1  0  0  0  0
  4  6  2  0  0  0  0
  5  7  1  0  0  0  0
  5  8  2  0  0  0  0
  7  9  2  0  0  0  0
  7 10  1  0  0  0  0
  8 11  1  0  0  0  0
  9 12  1  0  0  0  0
 10 13  2  0  0  0  0
 10 14  1  0  0  0  0
 11 15  1  0  0  0  0
 11 16  1  0  0  0  0
 13 17  1  0  0  0  0
 13 18  1  0  0  0  0
 14 19  2  0  0  0  0
 15 20  2  0  0  0  0
 16 21  2  0  0  0  0
 16 22  1  0  0  0  0
 18 23  2  0  0  0  0
 22 24  1  0  0  0  0
  6  8  1  0  0  0  0
 12 15  1  0  0  0  0
 19 23  1  0  0  0  0
 20 21  1  0  0  0  0
M  END
>  <MolRegNo>
199657

>  <m>
=

>  <Value>
10000

>  <Unit>
nM

>  <Type>
IC50

>  <pValue>
5

>  <Ligand Efficiency>
0

>  <Binding Efficiency>
0

>  <Surface Efficiency>
0

>  <Assay Index>
51809

>  <Assay Category>


>  <Assay Organism>
Homo sapiens

>  <Target ID>
17045

>  <Target Name>
Cytochrome P450 3A4

>  <Target Organism>
Homo sapiens

>  <Target Description>
Target is a single protein chain

>  <Sequence Accession>
P08684

>  <Reference>
Bioorg Med Chem Lett 13 (21), 3643-3645 (2003)

>  <Pubmed ID>
14552748

>  <DOI>
10.1016/j.bmcl.2003.08.027

$$$$
36866
Actelion Java MolfileCreator 1.0

 32 36  0  0  0  0  0  0  0  0999 V2000
    0.0000   -0.0000   -0.0000 F   0  0  0  0  0  0  0  0  0  0  0  0
   -1.4323   -0.4461   -0.0000 C   0  0  0  0  0  0  0  0  0  0  0  0
   -1.7610   -1.9019   -0.0000 C   0  0  0  0  0  0  0  0  0  0  0  0
   -2.5476    0.5635   -0.0000 C   0  0  0  0  0  0  0  0  0  0  0  0
   -0.6692   -2.8881   -0.0000 F   0  0  0  0  0  0  0  0  0  0  0  0
   -3.1933   -2.3363   -0.0000 C   0  0  0  0  0  0  0  0  0  0  0  0
   -3.9682    0.1291   -0.0000 C   0  0  0  0  0  0  0  0  0  0  0  0
   -4.3086   -1.3266   -0.0000 C   0  0  0  0  0  0  0  0  0  0  0  0
   -5.0835    1.1388   -0.0000 C   0  0  0  0  0  0  0  0  0  0  0  0
   -4.7782    2.6063   -0.0000 C   0  0  0  0  0  0  0  0  0  0  0  0
   -5.8936    3.6277   -0.0000 N   0  0  0  0  0  0  0  0  0  0  0  0
   -5.6000    5.0952   -0.0000 C   0  0  0  0  0  0  0  0  0  0  0  0
   -7.3258    3.1933   -0.0000 C   0  0  0  0  0  0  0  0  0  0  0  0
   -6.7154    6.1166   -0.0000 C   0  0  0  0  0  0  0  0  0  0  0  0
   -8.4294    4.2030   -0.0000 C   0  0  0  0  0  0  0  0  0  0  0  0
   -8.1477    5.6587   -0.0000 N   0  0  0  0  0  0  0  0  0  0  0  0
   -9.2630    6.6684   -0.0000 C   0  0  0  0  0  0  0  0  0  0  0  0
   -8.9108    8.1359   -0.0000 N   0  0  0  0  0  0  0  0  0  0  0  0
  -10.7070    6.2692   -0.0000 C   0  0  0  0  0  0  0  0  0  0  0  0
  -10.0026    9.1925   -0.0000 C   0  0  0  0  0  0  0  0  0  0  0  0
  -11.3645    4.9309   -0.0000 N   0  0  0  0  0  0  0  0  0  0  0  0
  -11.7988    7.3258   -0.0000 C   0  0  0  0  0  0  0  0  0  0  0  0
  -11.4466    8.7699   -0.0000 N   0  0  0  0  0  0  0  0  0  0  0  0
  -12.8672    5.1422   -0.0000 C   0  0  0  0  0  0  0  0  0  0  0  0
  -10.6718    3.6277   -0.0000 C   0  0  0  0  0  0  0  0  0  0  0  0
  -13.1490    6.6332   -0.0000 C   0  0  0  0  0  0  0  0  0  0  0  0
  -14.0295    4.2030   -0.0000 C   0  0  0  0  0  0  0  0  0  0  0  0
  -14.5578    7.1497   -0.0000 C   0  0  0  0  0  0  0  0  0  0  0  0
  -15.4383    4.7313   -0.0000 C   0  0  0  0  0  0  0  0  0  0  0  0
  -15.6966    6.2105   -0.0000 N   0  0  0  0  0  0  0  0  0  0  0  0
  -14.8278    8.6290   -0.0000 N   0  0  0  0  0  0  0  0  0  0  0  0
  -16.2366    9.1573   -0.0000 C   0  0  0  0  0  0  0  0  0  0  0  0
  1  2  1  0  0  0  0
  2  3  2  0  0  0  0
  2  4  1  0  0  0  0
  3  5  1  0  0  0  0
  3  6  1  0  0  0  0
  4  7  2  0  0  0  0
  6  8  2  0  0  0  0
  7  9  1  0  0  0  0
  9 10  1  0  0  0  0
 10 11  1  0  0  0  0
 11 12  1  0  0  0  0
 11 13  1  0  0  0  0
 12 14  1  0  0  0  0
 13 15  1  0  0  0  0
 14 16  1  0  0  0  0
 16 17  1  0  0  0  0
 17 18  2  0  0  0  0
 17 19  1  0  0  0  0
 18 20  1  0  0  0  0
 19 21  1  0  0  0  0
 19 22  2  0  0  0  0
 20 23  2  0  0  0  0
 21 24  1  0  0  0  0
 21 25  1  0  0  0  0
 22 26  1  0  0  0  0
 24 27  1  0  0  0  0
 26 28  1  0  0  0  0
 27 29  2  0  0  0  0
 28 30  2  0  0  0  0
 28 31  1  0  0  0  0
 31 32  1  0  0  0  0
  7  8  1  0  0  0  0
 15 16  1  0  0  0  0
 22 23  1  0  0  0  0
 24 26  2  0  0  0  0
 29 30  1  0  0  0  0
M  END
>  <MolRegNo>
36866

>  <m>
=

>  <Value>
53810

>  <Unit>
nM

>  <Type>
IC50

>  <pValue>
4.27

>  <Ligand Efficiency>
0

>  <Binding Efficiency>
0

>  <Surface Efficiency>
0

>  <Assay Index>
51975

>  <Assay Category>


>  <Assay Organism>


>  <Target ID>
17045

>  <Target Name>
Cytochrome P450 3A4

>  <Target Organism>
Homo sapiens

>  <Target Description>
Target is a single protein chain

>  <Sequence Accession>
P08684

>  <Reference>
J Med Chem 47 (6), 1339-1350 (2004)

>  <Pubmed ID>
14998324

>  <DOI>
10.1021/jm0310129

$$$$
38398
Actelion Java MolfileCreator 1.0

 39 44  0  0  0  0  0  0  0  0999 V2000
    0.0000   -0.0000   -0.0000 F   0  0  0  0  0  0  0  0  0  0  0  0
   -1.4351   -0.4352   -0.0000 C   0  0  0  0  0  0  0  0  0  0  0  0
   -1.7644   -1.9056   -0.0000 C   0  0  0  0  0  0  0  0  0  0  0  0
   -2.5526    0.5529   -0.0000 C   0  0  0  0  0  0  0  0  0  0  0  0
   -0.6705   -2.8937   -0.0000 F   0  0  0  0  0  0  0  0  0  0  0  0
   -3.1995   -2.3408   -0.0000 C   0  0  0  0  0  0  0  0  0  0  0  0
   -3.9759    0.1059   -0.0000 C   0  0  0  0  0  0  0  0  0  0  0  0
   -4.3170   -1.3174   -0.0000 C   0  0  0  0  0  0  0  0  0  0  0  0
   -5.0933    1.1175   -0.0000 C   0  0  0  0  0  0  0  0  0  0  0  0
   -4.7875    2.5878   -0.0000 C   0  0  0  0  0  0  0  0  0  0  0  0
   -5.9050    3.5994   -0.0000 N   0  0  0  0  0  0  0  0  0  0  0  0
   -5.6109    5.0816   -0.0000 C   0  0  0  0  0  0  0  0  0  0  0  0
   -7.3401    3.1642   -0.0000 C   0  0  0  0  0  0  0  0  0  0  0  0
   -6.7284    6.0932   -0.0000 C   0  0  0  0  0  0  0  0  0  0  0  0
   -8.4458    4.1641   -0.0000 C   0  0  0  0  0  0  0  0  0  0  0  0
   -8.1635    5.6462   -0.0000 N   0  0  0  0  0  0  0  0  0  0  0  0
   -9.2809    6.6578   -0.0000 C   0  0  0  0  0  0  0  0  0  0  0  0
   -8.9280    8.1164   -0.0000 N   0  0  0  0  0  0  0  0  0  0  0  0
  -10.7278    6.2461   -0.0000 C   0  0  0  0  0  0  0  0  0  0  0  0
  -10.0220    9.1751   -0.0000 C   0  0  0  0  0  0  0  0  0  0  0  0
  -11.3865    4.9169   -0.0000 N   0  0  0  0  0  0  0  0  0  0  0  0
  -11.8217    7.3048   -0.0000 C   0  0  0  0  0  0  0  0  0  0  0  0
  -11.4688    8.7634   -0.0000 N   0  0  0  0  0  0  0  0  0  0  0  0
  -12.8921    5.1286   -0.0000 C   0  0  0  0  0  0  0  0  0  0  0  0
  -10.6925    3.5994   -0.0000 C   0  0  0  0  0  0  0  0  0  0  0  0
  -13.1745    6.6108   -0.0000 C   0  0  0  0  0  0  0  0  0  0  0  0
  -14.0567    4.1758   -0.0000 C   0  0  0  0  0  0  0  0  0  0  0  0
  -11.4924    2.3408   -0.0000 C   0  0  0  0  0  0  0  0  0  0  0  0
  -14.5860    7.1401   -0.0000 C   0  0  0  0  0  0  0  0  0  0  0  0
  -15.4682    4.7052   -0.0000 C   0  0  0  0  0  0  0  0  0  0  0  0
  -12.9863    2.3996   -0.0000 C   0  0  0  0  0  0  0  0  0  0  0  0
  -10.7748    1.0351   -0.0000 C   0  0  0  0  0  0  0  0  0  0  0  0
  -14.8448    8.6222   -0.0000 C   0  0  0  0  0  0  0  0  0  0  0  0
  -15.7270    6.1873   -0.0000 C   0  0  0  0  0  0  0  0  0  0  0  0
  -13.7861    1.1410   -0.0000 C   0  0  0  0  0  0  0  0  0  0  0  0
  -11.5747   -0.2235   -0.0000 C   0  0  0  0  0  0  0  0  0  0  0  0
  -13.7156    9.5868   -0.0000 O   0  0  0  0  0  0  0  0  0  0  0  0
  -16.2563    9.1280   -0.0000 N   0  0  0  0  0  0  0  0  0  0  0  0
  -13.0921   -0.1412   -0.0000 N   0  0  0  0  0  0  0  0  0  0  0  0
  1  2  1  0  0  0  0
  2  3  2  0  0  0  0
  2  4  1  0  0  0  0
  3  5  1  0  0  0  0
  3  6  1  0  0  0  0
  4  7  2  0  0  0  0
  6  8  2  0  0  0  0
  7  9  1  0  0  0  0
  9 10  1  0  0  0  0
 10 11  1  0  0  0  0
 11 12  1  0  0  0  0
 11 13  1  0  0  0  0
 12 14  1  0  0  0  0
 13 15  1  0  0  0  0
 14 16  1  0  0  0  0
 16 17  1  0  0  0  0
 17 18  2  0  0  0  0
 17 19  1  0  0  0  0
 18 20  1  0  0  0  0
 19 21  1  0  0  0  0
 19 22  2  0  0  0  0
 20 23  2  0  0  0  0
 21 24  1  0  0  0  0
 21 25  1  0  0  0  0
 22 26  1  0  0  0  0
 24 27  1  0  0  0  0
 25 28  1  0  0  0  0
 26 29  1  0  0  0  0
 27 30  2  0  0  0  0
 28 31  2  0  0  0  0
 28 32  1  0  0  0  0
 29 33  1  0  0  0  0
 29 34  2  0  0  0  0
 31 35  1  0  0  0  0
 32 36  2  0  0  0  0
 33 37  2  0  0  0  0
 33 38  1  0  0  0  0
 35 39  2  0  0  0  0
  7  8  1  0  0  0  0
 15 16  1  0  0  0  0
 22 23  1  0  0  0  0
 24 26  2  0  0  0  0
 30 34  1  0  0  0  0
 36 39  1  0  0  0  0
M  END
>  <MolRegNo>
38398

>  <m>
=

>  <Value>
200

>  <Unit>
nM

>  <Type>
IC50

>  <pValue>
6.7

>  <Ligand Efficiency>
0

>  <Binding Efficiency>
0

>  <Surface Efficiency>
0

>  <Assay Index>
51975

>  <Assay Category>


>  <Assay Organism>


>  <Target ID>
17045

>  <Target Name>
Cytochrome P450 3A4

>  <Target Organism>
Homo sapiens

>  <Target Description>
Target is a single protein chain

>  <Sequence Accession>
P08684

>  <Reference>
J Med Chem 47 (6), 1339-1350 (2004)

>  <Pubmed ID>
14998324

>  <DOI>
10.1021/jm0310129

$$$$
37486
Actelion Java MolfileCreator 1.0

 30 34  0  0  0  0  0  0  0  0999 V2000
    0.0000   -0.0000   -0.0000 F   0  0  0  0  0  0  0  0  0  0  0  0
   -1.4327   -0.4580   -0.0000 C   0  0  0  0  0  0  0  0  0  0  0  0
   -1.7615   -1.9141   -0.0000 C   0  0  0  0  0  0  0  0  0  0  0  0
   -2.5483    0.5519   -0.0000 C   0  0  0  0  0  0  0  0  0  0  0  0
   -0.6694   -2.9006   -0.0000 F   0  0  0  0  0  0  0  0  0  0  0  0
   -3.1824   -2.3486   -0.0000 C   0  0  0  0  0  0  0  0  0  0  0  0
   -3.9574    0.1057   -0.0000 C   0  0  0  0  0  0  0  0  0  0  0  0
   -4.2980   -1.3270   -0.0000 C   0  0  0  0  0  0  0  0  0  0  0  0
   -5.0730    1.1156   -0.0000 C   0  0  0  0  0  0  0  0  0  0  0  0
   -4.7677    2.5835   -0.0000 C   0  0  0  0  0  0  0  0  0  0  0  0
   -5.8833    3.5934   -0.0000 N   0  0  0  0  0  0  0  0  0  0  0  0
   -5.5780    5.0730   -0.0000 C   0  0  0  0  0  0  0  0  0  0  0  0
   -7.3042    3.1589   -0.0000 C   0  0  0  0  0  0  0  0  0  0  0  0
   -6.6936    6.0830   -0.0000 C   0  0  0  0  0  0  0  0  0  0  0  0
   -8.4198    4.1571   -0.0000 C   0  0  0  0  0  0  0  0  0  0  0  0
   -8.1145    5.6367   -0.0000 N   0  0  0  0  0  0  0  0  0  0  0  0
   -9.2301    6.6466   -0.0000 C   0  0  0  0  0  0  0  0  0  0  0  0
   -8.8778    8.1028   -0.0000 N   0  0  0  0  0  0  0  0  0  0  0  0
  -10.6863    6.2356   -0.0000 C   0  0  0  0  0  0  0  0  0  0  0  0
   -9.9934    9.1597   -0.0000 C   0  0  0  0  0  0  0  0  0  0  0  0
  -11.3556    4.9086   -0.0000 N   0  0  0  0  0  0  0  0  0  0  0  0
  -11.7784    7.2925   -0.0000 C   0  0  0  0  0  0  0  0  0  0  0  0
  -11.4261    8.7487   -0.0000 N   0  0  0  0  0  0  0  0  0  0  0  0
  -12.8588    5.1200   -0.0000 C   0  0  0  0  0  0  0  0  0  0  0  0
  -13.1054    6.5997   -0.0000 C   0  0  0  0  0  0  0  0  0  0  0  0
  -14.0213    4.1688   -0.0000 C   0  0  0  0  0  0  0  0  0  0  0  0
  -14.5145    7.1281   -0.0000 C   0  0  0  0  0  0  0  0  0  0  0  0
  -15.4305    4.6973   -0.0000 C   0  0  0  0  0  0  0  0  0  0  0  0
  -15.6654    6.1769   -0.0000 C   0  0  0  0  0  0  0  0  0  0  0  0
  -14.7846    8.6077   -0.0000 C   0  0  0  0  0  0  0  0  0  0  0  0
  1  2  1  0  0  0  0
  2  3  2  0  0  0  0
  2  4  1  0  0  0  0
  3  5  1  0  0  0  0
  3  6  1  0  0  0  0
  4  7  2  0  0  0  0
  6  8  2  0  0  0  0
  7  9  1  0  0  0  0
  9 10  1  0  0  0  0
 10 11  1  0  0  0  0
 11 12  1  0  0  0  0
 11 13  1  0  0  0  0
 12 14  1  0  0  0  0
 13 15  1  0  0  0  0
 14 16  1  0  0  0  0
 16 17  1  0  0  0  0
 17 18  2  0  0  0  0
 17 19  1  0  0  0  0
 18 20  1  0  0  0  0
 19 21  1  0  0  0  0
 19 22  2  0  0  0  0
 20 23  2  0  0  0  0
 21 24  1  0  0  0  0
 22 25  1  0  0  0  0
 24 26  1  0  0  0  0
 25 27  1  0  0  0  0
 26 28  2  0  0  0  0
 27 29  2  0  0  0  0
 27 30  1  0  0  0  0
  7  8  1  0  0  0  0
 15 16  1  0  0  0  0
 22 23  1  0  0  0  0
 24 25  2  0  0  0  0
 28 29  1  0  0  0  0
M  END
>  <MolRegNo>
37486

>  <m>
=

>  <Value>
9250

>  <Unit>
nM

>  <Type>
IC50

>  <pValue>
5.03

>  <Ligand Efficiency>
0

>  <Binding Efficiency>
0

>  <Surface Efficiency>
0

>  <Assay Index>
51975

>  <Assay Category>


>  <Assay Organism>


>  <Target ID>
17045

>  <Target Name>
Cytochrome P450 3A4

>  <Target Organism>
Homo sapiens

>  <Target Description>
Target is a single protein chain

>  <Sequence Accession>
P08684

>  <Reference>
J Med Chem 47 (6), 1339-1350 (2004)

>  <Pubmed ID>
14998324

>  <DOI>
10.1021/jm0310129

$$$$
37196
Actelion Java MolfileCreator 1.0

 34 38  0  0  0  0  0  0  0  0999 V2000
    0.0000   -0.0000   -0.0000 Cl  0  0  0  0  0  0  0  0  0  0  0  0
    0.2496   -1.4739   -0.0000 C   0  0  0  0  0  0  0  0  0  0  0  0
   -0.9152   -2.4248   -0.0000 N   0  0  0  0  0  0  0  0  0  0  0  0
    1.6522   -1.9850   -0.0000 C   0  0  0  0  0  0  0  0  0  0  0  0
   -0.6775   -3.9106   -0.0000 C   0  0  0  0  0  0  0  0  0  0  0  0
    2.9715   -1.2480   -0.0000 C   0  0  0  0  0  0  0  0  0  0  0  0
    1.9018   -3.4708   -0.0000 C   0  0  0  0  0  0  0  0  0  0  0  0
    0.7251   -4.4098   -0.0000 C   0  0  0  0  0  0  0  0  0  0  0  0
    3.3281    0.2258   -0.0000 N   0  0  0  0  0  0  0  0  0  0  0  0
    4.0532   -2.2940   -0.0000 C   0  0  0  0  0  0  0  0  0  0  0  0
    3.3994   -3.6609   -0.0000 N   0  0  0  0  0  0  0  0  0  0  0  0
    4.7545    0.6537   -0.0000 C   0  0  0  0  0  0  0  0  0  0  0  0
    5.5033   -1.8661   -0.0000 C   0  0  0  0  0  0  0  0  0  0  0  0
    4.1126   -4.9803   -0.0000 C   0  0  0  0  0  0  0  0  0  0  0  0
    5.8599   -0.3922   -0.0000 N   0  0  0  0  0  0  0  0  0  0  0  0
    5.1111    2.1395   -0.0000 C   0  0  0  0  0  0  0  0  0  0  0  0
    6.6087   -2.8646   -0.0000 N   0  0  0  0  0  0  0  0  0  0  0  0
    6.5374    2.5674   -0.0000 O   0  0  0  0  0  0  0  0  0  0  0  0
    6.2878   -4.3266   -0.0000 C   0  0  0  0  0  0  0  0  0  0  0  0
    8.0232   -2.3772   -0.0000 C   0  0  0  0  0  0  0  0  0  0  0  0
    6.8940    4.0413   -0.0000 C   0  0  0  0  0  0  0  0  0  0  0  0
    7.3932   -5.3012   -0.0000 C   0  0  0  0  0  0  0  0  0  0  0  0
    9.1286   -3.3994   -0.0000 C   0  0  0  0  0  0  0  0  0  0  0  0
    8.8077   -4.8496   -0.0000 N   0  0  0  0  0  0  0  0  0  0  0  0
    9.9131   -5.8480   -0.0000 C   0  0  0  0  0  0  0  0  0  0  0  0
    9.5803   -7.2981   -0.0000 C   0  0  0  0  0  0  0  0  0  0  0  0
   10.6857   -8.3084   -0.0000 C   0  0  0  0  0  0  0  0  0  0  0  0
   12.0882   -7.8211   -0.0000 C   0  0  0  0  0  0  0  0  0  0  0  0
   10.3410   -9.7704   -0.0000 C   0  0  0  0  0  0  0  0  0  0  0  0
   13.1937   -8.8195   -0.0000 C   0  0  0  0  0  0  0  0  0  0  0  0
   11.4464  -10.7689   -0.0000 C   0  0  0  0  0  0  0  0  0  0  0  0
   14.6200   -8.3560   -0.0000 F   0  0  0  0  0  0  0  0  0  0  0  0
   12.8608  -10.2934   -0.0000 C   0  0  0  0  0  0  0  0  0  0  0  0
   13.9663  -11.3038   -0.0000 F   0  0  0  0  0  0  0  0  0  0  0  0
  1  2  1  0  0  0  0
  2  3  2  0  0  0  0
  2  4  1  0  0  0  0
  3  5  1  0  0  0  0
  4  6  1  0  0  0  0
  4  7  2  0  0  0  0
  5  8  2  0  0  0  0
  6  9  2  0  0  0  0
  6 10  1  0  0  0  0
  7 11  1  0  0  0  0
  9 12  1  0  0  0  0
 10 13  2  0  0  0  0
 11 14  1  0  0  0  0
 12 15  2  0  0  0  0
 12 16  1  0  0  0  0
 13 17  1  0  0  0  0
 16 18  1  0  0  0  0
 17 19  1  0  0  0  0
 17 20  1  0  0  0  0
 18 21  1  0  0  0  0
 19 22  1  0  0  0  0
 20 23  1  0  0  0  0
 22 24  1  0  0  0  0
 24 25  1  0  0  0  0
 25 26  1  0  0  0  0
 26 27  1  0  0  0  0
 27 28  2  0  0  0  0
 27 29  1  0  0  0  0
 28 30  1  0  0  0  0
 29 31  2  0  0  0  0
 30 32  1  0  0  0  0
 30 33  2  0  0  0  0
 33 34  1  0  0  0  0
  7  8  1  0  0  0  0
 10 11  1  0  0  0  0
 13 15  1  0  0  0  0
 23 24  1  0  0  0  0
 31 33  1  0  0  0  0
M  END
>  <MolRegNo>
37196

>  <m>
=

>  <Value>
36820

>  <Unit>
nM

>  <Type>
IC50

>  <pValue>
4.43

>  <Ligand Efficiency>
0

>  <Binding Efficiency>
0

>  <Surface Efficiency>
0

>  <Assay Index>
51975

>  <Assay Category>


>  <Assay Organism>


>  <Target ID>
17045

>  <Target Name>
Cytochrome P450 3A4

>  <Target Organism>
Homo sapiens

>  <Target Description>
Target is a single protein chain

>  <Sequence Accession>
P08684

>  <Reference>
J Med Chem 47 (6), 1339-1350 (2004)

>  <Pubmed ID>
14998324

>  <DOI>
10.1021/jm0310129

$$$$
36935
Actelion Java MolfileCreator 1.0

 31 35  0  0  0  0  0  0  0  0999 V2000
    0.0000   -0.0000   -0.0000 F   0  0  0  0  0  0  0  0  0  0  0  0
   -1.4219   -0.4348   -0.0000 C   0  0  0  0  0  0  0  0  0  0  0  0
   -1.7509   -1.9036   -0.0000 C   0  0  0  0  0  0  0  0  0  0  0  0
   -2.5382    0.5523   -0.0000 C   0  0  0  0  0  0  0  0  0  0  0  0
   -0.6580   -2.8907   -0.0000 F   0  0  0  0  0  0  0  0  0  0  0  0
   -3.1845   -2.3384   -0.0000 C   0  0  0  0  0  0  0  0  0  0  0  0
   -3.9718    0.1058   -0.0000 C   0  0  0  0  0  0  0  0  0  0  0  0
   -4.3008   -1.3161   -0.0000 C   0  0  0  0  0  0  0  0  0  0  0  0
   -5.0881    1.1163   -0.0000 C   0  0  0  0  0  0  0  0  0  0  0  0
   -4.7826    2.5852   -0.0000 C   0  0  0  0  0  0  0  0  0  0  0  0
   -5.8872    3.5958   -0.0000 N   0  0  0  0  0  0  0  0  0  0  0  0
   -5.5934    5.0764   -0.0000 C   0  0  0  0  0  0  0  0  0  0  0  0
   -7.3208    3.1610   -0.0000 C   0  0  0  0  0  0  0  0  0  0  0  0
   -6.6980    6.0869   -0.0000 C   0  0  0  0  0  0  0  0  0  0  0  0
   -8.4371    4.1598   -0.0000 C   0  0  0  0  0  0  0  0  0  0  0  0
   -8.1316    5.6404   -0.0000 N   0  0  0  0  0  0  0  0  0  0  0  0
   -9.2479    6.6510   -0.0000 C   0  0  0  0  0  0  0  0  0  0  0  0
   -8.8954    8.1081   -0.0000 N   0  0  0  0  0  0  0  0  0  0  0  0
  -10.7050    6.2397   -0.0000 C   0  0  0  0  0  0  0  0  0  0  0  0
  -10.0000    9.1657   -0.0000 C   0  0  0  0  0  0  0  0  0  0  0  0
  -11.3631    4.9119   -0.0000 N   0  0  0  0  0  0  0  0  0  0  0  0
  -11.7861    7.2973   -0.0000 C   0  0  0  0  0  0  0  0  0  0  0  0
  -11.4571    8.7544   -0.0000 N   0  0  0  0  0  0  0  0  0  0  0  0
  -12.8672    5.1234   -0.0000 C   0  0  0  0  0  0  0  0  0  0  0  0
  -13.1257    6.6040   -0.0000 C   0  0  0  0  0  0  0  0  0  0  0  0
  -14.0305    4.1715   -0.0000 C   0  0  0  0  0  0  0  0  0  0  0  0
  -14.5358    7.1328   -0.0000 C   0  0  0  0  0  0  0  0  0  0  0  0
  -15.4406    4.7003   -0.0000 C   0  0  0  0  0  0  0  0  0  0  0  0
  -15.6874    6.1809   -0.0000 C   0  0  0  0  0  0  0  0  0  0  0  0
  -16.5922    3.7603   -0.0000 O   0  0  0  0  0  0  0  0  0  0  0  0
  -16.3572    2.3032   -0.0000 C   0  0  0  0  0  0  0  0  0  0  0  0
  1  2  1  0  0  0  0
  2  3  2  0  0  0  0
  2  4  1  0  0  0  0
  3  5  1  0  0  0  0
  3  6  1  0  0  0  0
  4  7  2  0  0  0  0
  6  8  2  0  0  0  0
  7  9  1  0  0  0  0
  9 10  1  0  0  0  0
 10 11  1  0  0  0  0
 11 12  1  0  0  0  0
 11 13  1  0  0  0  0
 12 14  1  0  0  0  0
 13 15  1  0  0  0  0
 14 16  1  0  0  0  0
 16 17  1  0  0  0  0
 17 18  2  0  0  0  0
 17 19  1  0  0  0  0
 18 20  1  0  0  0  0
 19 21  1  0  0  0  0
 19 22  2  0  0  0  0
 20 23  2  0  0  0  0
 21 24  1  0  0  0  0
 22 25  1  0  0  0  0
 24 26  1  0  0  0  0
 25 27  1  0  0  0  0
 26 28  2  0  0  0  0
 27 29  2  0  0  0  0
 28 30  1  0  0  0  0
 30 31  1  0  0  0  0
  7  8  1  0  0  0  0
 15 16  1  0  0  0  0
 22 23  1  0  0  0  0
 24 25  2  0  0  0  0
 28 29  1  0  0  0  0
M  END
>  <MolRegNo>
36935

>  <m>
=

>  <Value>
1530

>  <Unit>
nM

>  <Type>
IC50

>  <pValue>
5.82

>  <Ligand Efficiency>
0

>  <Binding Efficiency>
0

>  <Surface Efficiency>
0

>  <Assay Index>
51975

>  <Assay Category>


>  <Assay Organism>


>  <Target ID>
17045

>  <Target Name>
Cytochrome P450 3A4

>  <Target Organism>
Homo sapiens

>  <Target Description>
Target is a single protein chain

>  <Sequence Accession>
P08684

>  <Reference>
J Med Chem 47 (6), 1339-1350 (2004)

>  <Pubmed ID>
14998324

>  <DOI>
10.1021/jm0310129

$$$$
37628
Actelion Java MolfileCreator 1.0

 39 44  0  0  0  0  0  0  0  0999 V2000
    0.0000   -0.0000   -0.0000 F   0  0  0  0  0  0  0  0  0  0  0  0
   -1.4293   -0.4407   -0.0000 C   0  0  0  0  0  0  0  0  0  0  0  0
   -1.7628   -1.8938   -0.0000 C   0  0  0  0  0  0  0  0  0  0  0  0
   -2.5489    0.5598   -0.0000 C   0  0  0  0  0  0  0  0  0  0  0  0
   -0.6670   -2.8943   -0.0000 F   0  0  0  0  0  0  0  0  0  0  0  0
   -3.1920   -2.3345   -0.0000 C   0  0  0  0  0  0  0  0  0  0  0  0
   -3.9662    0.1072   -0.0000 C   0  0  0  0  0  0  0  0  0  0  0  0
   -4.3116   -1.3340   -0.0000 C   0  0  0  0  0  0  0  0  0  0  0  0
   -5.0858    1.1315   -0.0000 C   0  0  0  0  0  0  0  0  0  0  0  0
   -4.7762    2.5846   -0.0000 C   0  0  0  0  0  0  0  0  0  0  0  0
   -5.8838    3.5970   -0.0000 N   0  0  0  0  0  0  0  0  0  0  0  0
   -5.5861    5.0739   -0.0000 C   0  0  0  0  0  0  0  0  0  0  0  0
   -7.3131    3.1682   -0.0000 C   0  0  0  0  0  0  0  0  0  0  0  0
   -6.6938    6.0982   -0.0000 C   0  0  0  0  0  0  0  0  0  0  0  0
   -8.4208    4.1568   -0.0000 C   0  0  0  0  0  0  0  0  0  0  0  0
   -8.1230    5.6337   -0.0000 N   0  0  0  0  0  0  0  0  0  0  0  0
   -9.2426    6.6342   -0.0000 C   0  0  0  0  0  0  0  0  0  0  0  0
   -8.8972    8.0992   -0.0000 N   0  0  0  0  0  0  0  0  0  0  0  0
  -10.6838    6.2412   -0.0000 C   0  0  0  0  0  0  0  0  0  0  0  0
   -9.9930    9.1473   -0.0000 C   0  0  0  0  0  0  0  0  0  0  0  0
  -11.3389    4.8953   -0.0000 N   0  0  0  0  0  0  0  0  0  0  0  0
  -11.7677    7.2893   -0.0000 C   0  0  0  0  0  0  0  0  0  0  0  0
  -11.4342    8.7424   -0.0000 N   0  0  0  0  0  0  0  0  0  0  0  0
  -12.8396    5.1097   -0.0000 C   0  0  0  0  0  0  0  0  0  0  0  0
  -10.6481    3.5970   -0.0000 C   0  0  0  0  0  0  0  0  0  0  0  0
  -13.1136    6.5985   -0.0000 C   0  0  0  0  0  0  0  0  0  0  0  0
  -14.0069    4.1687   -0.0000 C   0  0  0  0  0  0  0  0  0  0  0  0
  -11.4580    2.3345   -0.0000 C   0  0  0  0  0  0  0  0  0  0  0  0
  -14.5309    7.1106   -0.0000 C   0  0  0  0  0  0  0  0  0  0  0  0
  -15.4242    4.6809   -0.0000 C   0  0  0  0  0  0  0  0  0  0  0  0
  -10.7672    1.0243   -0.0000 C   0  0  0  0  0  0  0  0  0  0  0  0
  -12.9707    2.4179   -0.0000 C   0  0  0  0  0  0  0  0  0  0  0  0
  -14.7930    8.5995   -0.0000 N   0  0  0  0  0  0  0  0  0  0  0  0
  -15.6744    6.1697   -0.0000 C   0  0  0  0  0  0  0  0  0  0  0  0
  -11.5890   -0.2263   -0.0000 N   0  0  0  0  0  0  0  0  0  0  0  0
  -13.7925    1.1672   -0.0000 C   0  0  0  0  0  0  0  0  0  0  0  0
  -16.2103    9.1235   -0.0000 O   0  0  0  0  0  0  0  0  0  0  0  0
  -13.6615    9.5761   -0.0000 O   0  0  0  0  0  0  0  0  0  0  0  0
  -13.1136   -0.1667   -0.0000 C   0  0  0  0  0  0  0  0  0  0  0  0
  1  2  1  0  0  0  0
  2  3  2  0  0  0  0
  2  4  1  0  0  0  0
  3  5  1  0  0  0  0
  3  6  1  0  0  0  0
  4  7  2  0  0  0  0
  6  8  2  0  0  0  0
  7  9  1  0  0  0  0
  9 10  1  0  0  0  0
 10 11  1  0  0  0  0
 11 12  1  0  0  0  0
 11 13  1  0  0  0  0
 12 14  1  0  0  0  0
 13 15  1  0  0  0  0
 14 16  1  0  0  0  0
 16 17  1  0  0  0  0
 17 18  2  0  0  0  0
 17 19  1  0  0  0  0
 18 20  1  0  0  0  0
 19 21  1  0  0  0  0
 19 22  2  0  0  0  0
 20 23  2  0  0  0  0
 21 24  1  0  0  0  0
 21 25  1  0  0  0  0
 22 26  1  0  0  0  0
 24 27  1  0  0  0  0
 25 28  1  0  0  0  0
 26 29  1  0  0  0  0
 27 30  2  0  0  0  0
 28 31  2  0  0  0  0
 28 32  1  0  0  0  0
 29 33  1  0  0  0  0
 29 34  2  0  0  0  0
 31 35  1  0  0  0  0
 32 36  2  0  0  0  0
 33 37  2  0  0  0  0
 33 38  1  0  0  0  0
 35 39  2  0  0  0  0
  7  8  1  0  0  0  0
 15 16  1  0  0  0  0
 22 23  1  0  0  0  0
 24 26  2  0  0  0  0
 30 34  1  0  0  0  0
 36 39  1  0  0  0  0
M  CHG  2  33   1  38  -1
M  END
>  <MolRegNo>
37628

>  <m>
=

>  <Value>
8100

>  <Unit>
nM

>  <Type>
IC50

>  <pValue>
5.09

>  <Ligand Efficiency>
0

>  <Binding Efficiency>
0

>  <Surface Efficiency>
0

>  <Assay Index>
51975

>  <Assay Category>


>  <Assay Organism>


>  <Target ID>
17045

>  <Target Name>
Cytochrome P450 3A4

>  <Target Organism>
Homo sapiens

>  <Target Description>
Target is a single protein chain

>  <Sequence Accession>
P08684

>  <Reference>
J Med Chem 47 (6), 1339-1350 (2004)

>  <Pubmed ID>
14998324

>  <DOI>
10.1021/jm0310129

$$$$
37147
Actelion Java MolfileCreator 1.0

 40 45  0  0  0  0  0  0  0  0999 V2000
    0.0000   -0.0000   -0.0000 F   0  0  0  0  0  0  0  0  0  0  0  0
   -1.4346   -0.4586   -0.0000 C   0  0  0  0  0  0  0  0  0  0  0  0
   -1.7639   -1.9168   -0.0000 C   0  0  0  0  0  0  0  0  0  0  0  0
   -2.5518    0.5527   -0.0000 C   0  0  0  0  0  0  0  0  0  0  0  0
   -0.6703   -2.9046   -0.0000 F   0  0  0  0  0  0  0  0  0  0  0  0
   -3.1986   -2.3519   -0.0000 C   0  0  0  0  0  0  0  0  0  0  0  0
   -3.9747    0.1058   -0.0000 C   0  0  0  0  0  0  0  0  0  0  0  0
   -4.3157   -1.3288   -0.0000 C   0  0  0  0  0  0  0  0  0  0  0  0
   -5.0918    1.1171   -0.0000 C   0  0  0  0  0  0  0  0  0  0  0  0
   -4.7861    2.5871   -0.0000 C   0  0  0  0  0  0  0  0  0  0  0  0
   -5.9032    3.5984   -0.0000 N   0  0  0  0  0  0  0  0  0  0  0  0
   -5.6092    5.0801   -0.0000 C   0  0  0  0  0  0  0  0  0  0  0  0
   -7.3379    3.1633   -0.0000 C   0  0  0  0  0  0  0  0  0  0  0  0
   -6.7264    6.0914   -0.0000 C   0  0  0  0  0  0  0  0  0  0  0  0
   -8.4432    4.1628   -0.0000 C   0  0  0  0  0  0  0  0  0  0  0  0
   -8.1610    5.6445   -0.0000 N   0  0  0  0  0  0  0  0  0  0  0  0
   -9.2782    6.6558   -0.0000 C   0  0  0  0  0  0  0  0  0  0  0  0
   -8.9254    8.1140   -0.0000 N   0  0  0  0  0  0  0  0  0  0  0  0
  -10.7246    6.2442   -0.0000 C   0  0  0  0  0  0  0  0  0  0  0  0
  -10.0190    9.1723   -0.0000 C   0  0  0  0  0  0  0  0  0  0  0  0
  -11.3831    4.9154   -0.0000 N   0  0  0  0  0  0  0  0  0  0  0  0
  -11.8182    7.3026   -0.0000 C   0  0  0  0  0  0  0  0  0  0  0  0
  -11.4654    8.7607   -0.0000 N   0  0  0  0  0  0  0  0  0  0  0  0
   -9.6780   10.6422   -0.0000 C   0  0  0  0  0  0  0  0  0  0  0  0
  -12.8883    5.1271   -0.0000 C   0  0  0  0  0  0  0  0  0  0  0  0
  -10.6893    3.5984   -0.0000 C   0  0  0  0  0  0  0  0  0  0  0  0
  -13.1705    6.6088   -0.0000 C   0  0  0  0  0  0  0  0  0  0  0  0
   -8.2551   11.0773   -0.0000 N   0  0  0  0  0  0  0  0  0  0  0  0
  -14.0525    4.1746   -0.0000 N   0  0  0  0  0  0  0  0  0  0  0  0
  -14.5816    7.1379   -0.0000 C   0  0  0  0  0  0  0  0  0  0  0  0
   -7.1850   10.0425   -0.0000 C   0  0  0  0  0  0  0  0  0  0  0  0
   -7.9258   12.5355   -0.0000 C   0  0  0  0  0  0  0  0  0  0  0  0
  -15.4636    4.7038   -0.0000 C   0  0  0  0  0  0  0  0  0  0  0  0
  -14.8403    8.6196   -0.0000 C   0  0  0  0  0  0  0  0  0  0  0  0
  -15.7223    6.1854   -0.0000 C   0  0  0  0  0  0  0  0  0  0  0  0
   -5.7739   10.4658   -0.0000 C   0  0  0  0  0  0  0  0  0  0  0  0
   -6.4912   12.9588   -0.0000 C   0  0  0  0  0  0  0  0  0  0  0  0
  -13.7114    9.5839   -0.0000 O   0  0  0  0  0  0  0  0  0  0  0  0
  -16.2515    9.1253   -0.0000 N   0  0  0  0  0  0  0  0  0  0  0  0
   -5.4328   11.9358   -0.0000 O   0  0  0  0  0  0  0  0  0  0  0  0
  1  2  1  0  0  0  0
  2  3  2  0  0  0  0
  2  4  1  0  0  0  0
  3  5  1  0  0  0  0
  3  6  1  0  0  0  0
  4  7  2  0  0  0  0
  6  8  2  0  0  0  0
  7  9  1  0  0  0  0
  9 10  1  0  0  0  0
 10 11  1  0  0  0  0
 11 12  1  0  0  0  0
 11 13  1  0  0  0  0
 12 14  1  0  0  0  0
 13 15  1  0  0  0  0
 14 16  1  0  0  0  0
 16 17  1  0  0  0  0
 17 18  2  0  0  0  0
 17 19  1  0  0  0  0
 18 20  1  0  0  0  0
 19 21  1  0  0  0  0
 19 22  2  0  0  0  0
 20 23  2  0  0  0  0
 20 24  1  0  0  0  0
 21 25  1  0  0  0  0
 21 26  1  0  0  0  0
 22 27  1  0  0  0  0
 24 28  1  0  0  0  0
 25 29  1  0  0  0  0
 27 30  1  0  0  0  0
 28 31  1  0  0  0  0
 28 32  1  0  0  0  0
 29 33  2  0  0  0  0
 30 34  1  0  0  0  0
 30 35  2  0  0  0  0
 31 36  1  0  0  0  0
 32 37  1  0  0  0  0
 34 38  2  0  0  0  0
 34 39  1  0  0  0  0
 36 40  1  0  0  0  0
  7  8  1  0  0  0  0
 15 16  1  0  0  0  0
 22 23  1  0  0  0  0
 25 27  2  0  0  0  0
 33 35  1  0  0  0  0
 37 40  1  0  0  0  0
M  END
>  <MolRegNo>
37147

>  <m>
=

>  <Value>
33690

>  <Unit>
nM

>  <Type>
IC50

>  <pValue>
4.47

>  <Ligand Efficiency>
0

>  <Binding Efficiency>
0

>  <Surface Efficiency>
0

>  <Assay Index>
51975

>  <Assay Category>


>  <Assay Organism>


>  <Target ID>
17045

>  <Target Name>
Cytochrome P450 3A4

>  <Target Organism>
Homo sapiens

>  <Target Description>
Target is a single protein chain

>  <Sequence Accession>
P08684

>  <Reference>
J Med Chem 47 (6), 1339-1350 (2004)

>  <Pubmed ID>
14998324

>  <DOI>
10.1021/jm0310129

$$$$
37093
Actelion Java MolfileCreator 1.0

 32 36  0  0  0  0  0  0  0  0999 V2000
    0.0000   -0.0000   -0.0000 F   0  0  0  0  0  0  0  0  0  0  0  0
   -1.4205   -0.4579   -0.0000 C   0  0  0  0  0  0  0  0  0  0  0  0
   -1.7492   -1.9136   -0.0000 C   0  0  0  0  0  0  0  0  0  0  0  0
   -2.5358    0.5518   -0.0000 C   0  0  0  0  0  0  0  0  0  0  0  0
   -0.6574   -2.8997   -0.0000 F   0  0  0  0  0  0  0  0  0  0  0  0
   -3.1815   -2.3480   -0.0000 C   0  0  0  0  0  0  0  0  0  0  0  0
   -3.9681    0.1057   -0.0000 C   0  0  0  0  0  0  0  0  0  0  0  0
   -4.2968   -1.3266   -0.0000 C   0  0  0  0  0  0  0  0  0  0  0  0
   -5.0833    1.1153   -0.0000 C   0  0  0  0  0  0  0  0  0  0  0  0
   -4.7781    2.5828   -0.0000 C   0  0  0  0  0  0  0  0  0  0  0  0
   -5.8816    3.5924   -0.0000 N   0  0  0  0  0  0  0  0  0  0  0  0
   -7.3139    3.1580   -0.0000 C   0  0  0  0  0  0  0  0  0  0  0  0
   -5.5881    5.0716   -0.0000 C   0  0  0  0  0  0  0  0  0  0  0  0
   -8.4292    4.1559   -0.0000 C   0  0  0  0  0  0  0  0  0  0  0  0
   -6.6917    6.0812   -0.0000 C   0  0  0  0  0  0  0  0  0  0  0  0
   -8.1239    5.6351   -0.0000 N   0  0  0  0  0  0  0  0  0  0  0  0
   -9.2392    6.6447   -0.0000 C   0  0  0  0  0  0  0  0  0  0  0  0
   -8.8870    8.1005   -0.0000 N   0  0  0  0  0  0  0  0  0  0  0  0
  -10.6950    6.2338   -0.0000 C   0  0  0  0  0  0  0  0  0  0  0  0
   -9.9906    9.1570   -0.0000 C   0  0  0  0  0  0  0  0  0  0  0  0
  -11.3524    4.9072   -0.0000 N   0  0  0  0  0  0  0  0  0  0  0  0
  -11.7750    7.2904   -0.0000 C   0  0  0  0  0  0  0  0  0  0  0  0
  -11.4463    8.7462   -0.0000 N   0  0  0  0  0  0  0  0  0  0  0  0
  -12.8551    5.1186   -0.0000 C   0  0  0  0  0  0  0  0  0  0  0  0
  -13.1134    6.5978   -0.0000 C   0  0  0  0  0  0  0  0  0  0  0  0
  -14.0173    4.1676   -0.0000 C   0  0  0  0  0  0  0  0  0  0  0  0
  -14.5221    7.1261   -0.0000 C   0  0  0  0  0  0  0  0  0  0  0  0
  -15.4261    4.6959   -0.0000 C   0  0  0  0  0  0  0  0  0  0  0  0
  -14.7922    8.6053   -0.0000 N   0  0  0  0  0  0  0  0  0  0  0  0
  -15.6726    6.1751   -0.0000 C   0  0  0  0  0  0  0  0  0  0  0  0
  -16.2009    9.1218   -0.0000 O   0  0  0  0  0  0  0  0  0  0  0  0
  -13.6651    9.5679   -0.0000 O   0  0  0  0  0  0  0  0  0  0  0  0
  1  2  1  0  0  0  0
  2  3  2  0  0  0  0
  2  4  1  0  0  0  0
  3  5  1  0  0  0  0
  3  6  1  0  0  0  0
  4  7  2  0  0  0  0
  6  8  2  0  0  0  0
  7  9  1  0  0  0  0
  9 10  1  0  0  0  0
 10 11  1  0  0  0  0
 11 12  1  0  0  0  0
 11 13  1  0  0  0  0
 12 14  1  0  0  0  0
 13 15  1  0  0  0  0
 14 16  1  0  0  0  0
 16 17  1  0  0  0  0
 17 18  2  0  0  0  0
 17 19  1  0  0  0  0
 18 20  1  0  0  0  0
 19 21  1  0  0  0  0
 19 22  2  0  0  0  0
 20 23  2  0  0  0  0
 21 24  1  0  0  0  0
 22 25  1  0  0  0  0
 24 26  1  0  0  0  0
 25 27  1  0  0  0  0
 26 28  2  0  0  0  0
 27 29  1  0  0  0  0
 27 30  2  0  0  0  0
 29 31  2  0  0  0  0
 29 32  1  0  0  0  0
  7  8  1  0  0  0  0
 15 16  1  0  0  0  0
 22 23  1  0  0  0  0
 24 25  2  0  0  0  0
 28 30  1  0  0  0  0
M  CHG  2  29   1  32  -1
M  END
>  <MolRegNo>
37093

>  <m>
=

>  <Value>
6620

>  <Unit>
nM

>  <Type>
IC50

>  <pValue>
5.18

>  <Ligand Efficiency>
0

>  <Binding Efficiency>
0

>  <Surface Efficiency>
0

>  <Assay Index>
51975

>  <Assay Category>


>  <Assay Organism>


>  <Target ID>
17045

>  <Target Name>
Cytochrome P450 3A4

>  <Target Organism>
Homo sapiens

>  <Target Description>
Target is a single protein chain

>  <Sequence Accession>
P08684

>  <Reference>
J Med Chem 47 (6), 1339-1350 (2004)

>  <Pubmed ID>
14998324

>  <DOI>
10.1021/jm0310129

$$$$
36897
Actelion Java MolfileCreator 1.0

 34 38  0  0  0  0  0  0  0  0999 V2000
    0.0000   -0.0000   -0.0000 F   0  0  0  0  0  0  0  0  0  0  0  0
   -1.4228   -0.4351   -0.0000 C   0  0  0  0  0  0  0  0  0  0  0  0
   -1.7521   -1.9049   -0.0000 C   0  0  0  0  0  0  0  0  0  0  0  0
   -2.5399    0.5527   -0.0000 C   0  0  0  0  0  0  0  0  0  0  0  0
   -0.6585   -2.8927   -0.0000 F   0  0  0  0  0  0  0  0  0  0  0  0
   -3.1867   -2.3400   -0.0000 C   0  0  0  0  0  0  0  0  0  0  0  0
   -3.9745    0.1058   -0.0000 C   0  0  0  0  0  0  0  0  0  0  0  0
   -4.3038   -1.3170   -0.0000 C   0  0  0  0  0  0  0  0  0  0  0  0
   -5.0916    1.1171   -0.0000 C   0  0  0  0  0  0  0  0  0  0  0  0
   -4.7859    2.5870   -0.0000 C   0  0  0  0  0  0  0  0  0  0  0  0
   -5.8912    3.5982   -0.0000 N   0  0  0  0  0  0  0  0  0  0  0  0
   -7.3258    3.1631   -0.0000 C   0  0  0  0  0  0  0  0  0  0  0  0
   -5.5972    5.0798   -0.0000 C   0  0  0  0  0  0  0  0  0  0  0  0
   -8.4429    4.1627   -0.0000 C   0  0  0  0  0  0  0  0  0  0  0  0
   -6.7026    6.0911   -0.0000 C   0  0  0  0  0  0  0  0  0  0  0  0
   -8.1372    5.6443   -0.0000 N   0  0  0  0  0  0  0  0  0  0  0  0
   -9.2543    6.6555   -0.0000 C   0  0  0  0  0  0  0  0  0  0  0  0
   -8.9015    8.1136   -0.0000 N   0  0  0  0  0  0  0  0  0  0  0  0
  -10.7124    6.2440   -0.0000 C   0  0  0  0  0  0  0  0  0  0  0  0
  -10.0068    9.1719   -0.0000 C   0  0  0  0  0  0  0  0  0  0  0  0
  -11.3709    4.9152   -0.0000 N   0  0  0  0  0  0  0  0  0  0  0  0
  -11.7942    7.3023   -0.0000 C   0  0  0  0  0  0  0  0  0  0  0  0
  -11.4649    8.7604   -0.0000 N   0  0  0  0  0  0  0  0  0  0  0  0
  -12.8760    5.1269   -0.0000 C   0  0  0  0  0  0  0  0  0  0  0  0
  -13.1347    6.6085   -0.0000 C   0  0  0  0  0  0  0  0  0  0  0  0
  -14.0401    4.1744   -0.0000 C   0  0  0  0  0  0  0  0  0  0  0  0
  -14.5458    7.1377   -0.0000 C   0  0  0  0  0  0  0  0  0  0  0  0
  -13.7932    2.7045   -0.0000 N   0  0  0  0  0  0  0  0  0  0  0  0
  -15.4512    4.7036   -0.0000 C   0  0  0  0  0  0  0  0  0  0  0  0
  -15.6981    6.1852   -0.0000 C   0  0  0  0  0  0  0  0  0  0  0  0
  -12.4056    2.1989   -0.0000 O   0  0  0  0  0  0  0  0  0  0  0  0
  -14.9573    1.7638   -0.0000 O   0  0  0  0  0  0  0  0  0  0  0  0
  -16.6036    3.7628   -0.0000 O   0  0  0  0  0  0  0  0  0  0  0  0
  -16.3684    2.3047   -0.0000 C   0  0  0  0  0  0  0  0  0  0  0  0
  1  2  1  0  0  0  0
  2  3  2  0  0  0  0
  2  4  1  0  0  0  0
  3  5  1  0  0  0  0
  3  6  1  0  0  0  0
  4  7  2  0  0  0  0
  6  8  2  0  0  0  0
  7  9  1  0  0  0  0
  9 10  1  0  0  0  0
 10 11  1  0  0  0  0
 11 12  1  0  0  0  0
 11 13  1  0  0  0  0
 12 14  1  0  0  0  0
 13 15  1  0  0  0  0
 14 16  1  0  0  0  0
 16 17  1  0  0  0  0
 17 18  1  0  0  0  0
 17 19  2  0  0  0  0
 18 20  1  0  0  0  0
 19 21  1  0  0  0  0
 19 22  1  0  0  0  0
 20 23  2  0  0  0  0
 21 24  2  0  0  0  0
 22 25  2  0  0  0  0
 24 26  1  0  0  0  0
 25 27  1  0  0  0  0
 26 28  1  0  0  0  0
 26 29  2  0  0  0  0
 27 30  2  0  0  0  0
 28 31  2  0  0  0  0
 28 32  1  0  0  0  0
 29 33  1  0  0  0  0
 33 34  1  0  0  0  0
  7  8  1  0  0  0  0
 15 16  1  0  0  0  0
 22 23  1  0  0  0  0
 24 25  1  0  0  0  0
 29 30  1  0  0  0  0
M  CHG  2  28   1  32  -1
M  END
>  <MolRegNo>
36897

>  <m>
=

>  <Value>
1790

>  <Unit>
nM

>  <Type>
IC50

>  <pValue>
5.75

>  <Ligand Efficiency>
0

>  <Binding Efficiency>
0

>  <Surface Efficiency>
0

>  <Assay Index>
51975

>  <Assay Category>


>  <Assay Organism>


>  <Target ID>
17045

>  <Target Name>
Cytochrome P450 3A4

>  <Target Organism>
Homo sapiens

>  <Target Description>
Target is a single protein chain

>  <Sequence Accession>
P08684

>  <Reference>
J Med Chem 47 (6), 1339-1350 (2004)

>  <Pubmed ID>
14998324

>  <DOI>
10.1021/jm0310129

$$$$
36834
Actelion Java MolfileCreator 1.0

 34 38  0  0  0  0  0  0  0  0999 V2000
    0.0000   -0.0000   -0.0000 F   0  0  0  0  0  0  0  0  0  0  0  0
   -1.4330   -0.4581   -0.0000 C   0  0  0  0  0  0  0  0  0  0  0  0
   -1.7619   -1.9145   -0.0000 C   0  0  0  0  0  0  0  0  0  0  0  0
   -2.5488    0.5520   -0.0000 C   0  0  0  0  0  0  0  0  0  0  0  0
   -0.6695   -2.9012   -0.0000 F   0  0  0  0  0  0  0  0  0  0  0  0
   -3.1948   -2.3491   -0.0000 C   0  0  0  0  0  0  0  0  0  0  0  0
   -3.9700    0.1057   -0.0000 C   0  0  0  0  0  0  0  0  0  0  0  0
   -4.3107   -1.3273   -0.0000 C   0  0  0  0  0  0  0  0  0  0  0  0
   -5.0859    1.1158   -0.0000 C   0  0  0  0  0  0  0  0  0  0  0  0
   -4.7805    2.5841   -0.0000 C   0  0  0  0  0  0  0  0  0  0  0  0
   -5.8963    3.5942   -0.0000 N   0  0  0  0  0  0  0  0  0  0  0  0
   -5.6027    5.0741   -0.0000 C   0  0  0  0  0  0  0  0  0  0  0  0
   -7.3293    3.1596   -0.0000 C   0  0  0  0  0  0  0  0  0  0  0  0
   -6.7185    6.0843   -0.0000 C   0  0  0  0  0  0  0  0  0  0  0  0
   -8.4334    4.1580   -0.0000 C   0  0  0  0  0  0  0  0  0  0  0  0
   -8.1515    5.6379   -0.0000 N   0  0  0  0  0  0  0  0  0  0  0  0
   -9.2674    6.6481   -0.0000 C   0  0  0  0  0  0  0  0  0  0  0  0
   -8.9150    8.1045   -0.0000 N   0  0  0  0  0  0  0  0  0  0  0  0
  -10.7121    6.2370   -0.0000 C   0  0  0  0  0  0  0  0  0  0  0  0
  -10.0073    9.1616   -0.0000 C   0  0  0  0  0  0  0  0  0  0  0  0
  -11.3698    4.9097   -0.0000 N   0  0  0  0  0  0  0  0  0  0  0  0
  -11.8044    7.2941   -0.0000 C   0  0  0  0  0  0  0  0  0  0  0  0
  -11.4521    8.7505   -0.0000 N   0  0  0  0  0  0  0  0  0  0  0  0
  -12.8733    5.1211   -0.0000 C   0  0  0  0  0  0  0  0  0  0  0  0
  -10.6768    3.5942   -0.0000 C   0  0  0  0  0  0  0  0  0  0  0  0
  -13.1552    6.6011   -0.0000 C   0  0  0  0  0  0  0  0  0  0  0  0
  -14.0361    4.1697   -0.0000 N   0  0  0  0  0  0  0  0  0  0  0  0
  -14.5647    7.1296   -0.0000 C   0  0  0  0  0  0  0  0  0  0  0  0
  -15.4456    4.6983   -0.0000 C   0  0  0  0  0  0  0  0  0  0  0  0
  -14.8231    8.6096   -0.0000 C   0  0  0  0  0  0  0  0  0  0  0  0
  -15.7040    6.1782   -0.0000 C   0  0  0  0  0  0  0  0  0  0  0  0
  -16.6084    3.7586   -0.0000 C   0  0  0  0  0  0  0  0  0  0  0  0
  -13.6955    9.5727   -0.0000 O   0  0  0  0  0  0  0  0  0  0  0  0
  -16.2326    9.1147   -0.0000 N   0  0  0  0  0  0  0  0  0  0  0  0
  1  2  1  0  0  0  0
  2  3  2  0  0  0  0
  2  4  1  0  0  0  0
  3  5  1  0  0  0  0
  3  6  1  0  0  0  0
  4  7  2  0  0  0  0
  6  8  2  0  0  0  0
  7  9  1  0  0  0  0
  9 10  1  0  0  0  0
 10 11  1  0  0  0  0
 11 12  1  0  0  0  0
 11 13  1  0  0  0  0
 12 14  1  0  0  0  0
 13 15  1  0  0  0  0
 14 16  1  0  0  0  0
 16 17  1  0  0  0  0
 17 18  2  0  0  0  0
 17 19  1  0  0  0  0
 18 20  1  0  0  0  0
 19 21  1  0  0  0  0
 19 22  2  0  0  0  0
 20 23  2  0  0  0  0
 21 24  1  0  0  0  0
 21 25  1  0  0  0  0
 22 26  1  0  0  0  0
 24 27  1  0  0  0  0
 26 28  1  0  0  0  0
 27 29  2  0  0  0  0
 28 30  1  0  0  0  0
 28 31  2  0  0  0  0
 29 32  1  0  0  0  0
 30 33  2  0  0  0  0
 30 34  1  0  0  0  0
  7  8  1  0  0  0  0
 15 16  1  0  0  0  0
 22 23  1  0  0  0  0
 24 26  2  0  0  0  0
 29 31  1  0  0  0  0
M  END
>  <MolRegNo>
36834

>  <m>
=

>  <Value>
210

>  <Unit>
nM

>  <Type>
IC50

>  <pValue>
6.68

>  <Ligand Efficiency>
0

>  <Binding Efficiency>
0

>  <Surface Efficiency>
0

>  <Assay Index>
51975

>  <Assay Category>


>  <Assay Organism>


>  <Target ID>
17045

>  <Target Name>
Cytochrome P450 3A4

>  <Target Organism>
Homo sapiens

>  <Target Description>
Target is a single protein chain

>  <Sequence Accession>
P08684

>  <Reference>
J Med Chem 47 (6), 1339-1350 (2004)

>  <Pubmed ID>
14998324

>  <DOI>
10.1021/jm0310129

$$$$
37177
Actelion Java MolfileCreator 1.0

 30 34  0  0  0  0  0  0  0  0999 V2000
    0.0000   -0.0000   -0.0000 F   0  0  0  0  0  0  0  0  0  0  0  0
   -1.4328   -0.4580   -0.0000 C   0  0  0  0  0  0  0  0  0  0  0  0
   -1.7616   -1.9143   -0.0000 C   0  0  0  0  0  0  0  0  0  0  0  0
   -2.5484    0.5520   -0.0000 C   0  0  0  0  0  0  0  0  0  0  0  0
   -0.6694   -2.9007   -0.0000 F   0  0  0  0  0  0  0  0  0  0  0  0
   -3.1826   -2.3488   -0.0000 C   0  0  0  0  0  0  0  0  0  0  0  0
   -3.9577    0.1057   -0.0000 C   0  0  0  0  0  0  0  0  0  0  0  0
   -4.2983   -1.3271   -0.0000 C   0  0  0  0  0  0  0  0  0  0  0  0
   -5.0734    1.1157   -0.0000 C   0  0  0  0  0  0  0  0  0  0  0  0
   -4.7680    2.5837   -0.0000 C   0  0  0  0  0  0  0  0  0  0  0  0
   -5.8837    3.5936   -0.0000 N   0  0  0  0  0  0  0  0  0  0  0  0
   -7.3047    3.1591   -0.0000 C   0  0  0  0  0  0  0  0  0  0  0  0
   -5.5783    5.0734   -0.0000 C   0  0  0  0  0  0  0  0  0  0  0  0
   -8.4204    4.1573   -0.0000 C   0  0  0  0  0  0  0  0  0  0  0  0
   -6.6940    6.0833   -0.0000 C   0  0  0  0  0  0  0  0  0  0  0  0
   -8.1268    5.6371   -0.0000 N   0  0  0  0  0  0  0  0  0  0  0  0
   -9.2424    6.6470   -0.0000 C   0  0  0  0  0  0  0  0  0  0  0  0
   -8.8901    8.1033   -0.0000 N   0  0  0  0  0  0  0  0  0  0  0  0
  -10.6987    6.2360   -0.0000 C   0  0  0  0  0  0  0  0  0  0  0  0
  -10.0058    9.1602   -0.0000 C   0  0  0  0  0  0  0  0  0  0  0  0
  -11.3681    4.9089   -0.0000 N   0  0  0  0  0  0  0  0  0  0  0  0
  -11.7909    7.2929   -0.0000 C   0  0  0  0  0  0  0  0  0  0  0  0
  -11.4385    8.7492   -0.0000 N   0  0  0  0  0  0  0  0  0  0  0  0
  -12.8713    5.1203   -0.0000 C   0  0  0  0  0  0  0  0  0  0  0  0
  -10.6634    3.5936   -0.0000 C   0  0  0  0  0  0  0  0  0  0  0  0
  -13.1179    6.6001   -0.0000 C   0  0  0  0  0  0  0  0  0  0  0  0
  -14.0339    4.1691   -0.0000 C   0  0  0  0  0  0  0  0  0  0  0  0
  -14.5272    7.1285   -0.0000 C   0  0  0  0  0  0  0  0  0  0  0  0
  -15.4432    4.6976   -0.0000 C   0  0  0  0  0  0  0  0  0  0  0  0
  -15.6781    6.1773   -0.0000 N   0  0  0  0  0  0  0  0  0  0  0  0
  1  2  1  0  0  0  0
  2  3  2  0  0  0  0
  2  4  1  0  0  0  0
  3  5  1  0  0  0  0
  3  6  1  0  0  0  0
  4  7  2  0  0  0  0
  6  8  2  0  0  0  0
  7  9  1  0  0  0  0
  9 10  1  0  0  0  0
 10 11  1  0  0  0  0
 11 12  1  0  0  0  0
 11 13  1  0  0  0  0
 12 14  1  0  0  0  0
 13 15  1  0  0  0  0
 14 16  1  0  0  0  0
 16 17  1  0  0  0  0
 17 18  2  0  0  0  0
 17 19  1  0  0  0  0
 18 20  1  0  0  0  0
 19 21  1  0  0  0  0
 19 22  2  0  0  0  0
 20 23  2  0  0  0  0
 21 24  1  0  0  0  0
 21 25  1  0  0  0  0
 22 26  1  0  0  0  0
 24 27  1  0  0  0  0
 26 28  1  0  0  0  0
 27 29  2  0  0  0  0
 28 30  2  0  0  0  0
  7  8  1  0  0  0  0
 15 16  1  0  0  0  0
 22 23  1  0  0  0  0
 24 26  2  0  0  0  0
 29 30  1  0  0  0  0
M  END
>  <MolRegNo>
37177

>  <m>
=

>  <Value>
17850

>  <Unit>
nM

>  <Type>
IC50

>  <pValue>
4.75

>  <Ligand Efficiency>
0

>  <Binding Efficiency>
0

>  <Surface Efficiency>
0

>  <Assay Index>
51975

>  <Assay Category>


>  <Assay Organism>


>  <Target ID>
17045

>  <Target Name>
Cytochrome P450 3A4

>  <Target Organism>
Homo sapiens

>  <Target Description>
Target is a single protein chain

>  <Sequence Accession>
P08684

>  <Reference>
J Med Chem 47 (6), 1339-1350 (2004)

>  <Pubmed ID>
14998324

>  <DOI>
10.1021/jm0310129

$$$$
38517
Actelion Java MolfileCreator 1.0

 40 45  0  0  0  0  0  0  0  0999 V2000
    0.0000   -0.0000   -0.0000 F   0  0  0  0  0  0  0  0  0  0  0  0
   -1.4251   -0.4358   -0.0000 C   0  0  0  0  0  0  0  0  0  0  0  0
   -1.7549   -1.9080   -0.0000 C   0  0  0  0  0  0  0  0  0  0  0  0
   -2.5441    0.5536   -0.0000 C   0  0  0  0  0  0  0  0  0  0  0  0
   -0.6596   -2.8974   -0.0000 F   0  0  0  0  0  0  0  0  0  0  0  0
   -3.1919   -2.3438   -0.0000 C   0  0  0  0  0  0  0  0  0  0  0  0
   -3.9810    0.1060   -0.0000 C   0  0  0  0  0  0  0  0  0  0  0  0
   -4.3108   -1.3191   -0.0000 C   0  0  0  0  0  0  0  0  0  0  0  0
   -5.0999    1.1189   -0.0000 C   0  0  0  0  0  0  0  0  0  0  0  0
   -4.7937    2.5912   -0.0000 C   0  0  0  0  0  0  0  0  0  0  0  0
   -5.9008    3.6041   -0.0000 N   0  0  0  0  0  0  0  0  0  0  0  0
   -5.6064    5.0881   -0.0000 C   0  0  0  0  0  0  0  0  0  0  0  0
   -7.3377    3.1683   -0.0000 C   0  0  0  0  0  0  0  0  0  0  0  0
   -6.7135    6.1010   -0.0000 C   0  0  0  0  0  0  0  0  0  0  0  0
   -8.4567    4.1694   -0.0000 C   0  0  0  0  0  0  0  0  0  0  0  0
   -8.1504    5.6535   -0.0000 N   0  0  0  0  0  0  0  0  0  0  0  0
   -9.2693    6.6664   -0.0000 C   0  0  0  0  0  0  0  0  0  0  0  0
   -8.9160    8.1269   -0.0000 N   0  0  0  0  0  0  0  0  0  0  0  0
  -10.7298    6.2542   -0.0000 C   0  0  0  0  0  0  0  0  0  0  0  0
  -10.0231    9.1869   -0.0000 C   0  0  0  0  0  0  0  0  0  0  0  0
  -11.3894    4.9232   -0.0000 N   0  0  0  0  0  0  0  0  0  0  0  0
  -11.8134    7.3142   -0.0000 C   0  0  0  0  0  0  0  0  0  0  0  0
  -11.4836    8.7747   -0.0000 N   0  0  0  0  0  0  0  0  0  0  0  0
  -12.8970    5.1352   -0.0000 C   0  0  0  0  0  0  0  0  0  0  0  0
  -10.6945    3.6041   -0.0000 C   0  0  0  0  0  0  0  0  0  0  0  0
  -13.1561    6.6193   -0.0000 C   0  0  0  0  0  0  0  0  0  0  0  0
  -14.0630    4.1812   -0.0000 C   0  0  0  0  0  0  0  0  0  0  0  0
  -11.4954    2.3438   -0.0000 C   0  0  0  0  0  0  0  0  0  0  0  0
  -14.5695    7.1493   -0.0000 C   0  0  0  0  0  0  0  0  0  0  0  0
  -15.4764    4.7112   -0.0000 C   0  0  0  0  0  0  0  0  0  0  0  0
  -10.8005    1.0365   -0.0000 C   0  0  0  0  0  0  0  0  0  0  0  0
  -14.8404    8.6333   -0.0000 N   0  0  0  0  0  0  0  0  0  0  0  0
  -15.7237    6.1953   -0.0000 C   0  0  0  0  0  0  0  0  0  0  0  0
   -9.3282    1.0129   -0.0000 C   0  0  0  0  0  0  0  0  0  0  0  0
  -11.6014   -0.2120   -0.0000 C   0  0  0  0  0  0  0  0  0  0  0  0
  -16.2537    9.1516   -0.0000 O   0  0  0  0  0  0  0  0  0  0  0  0
  -13.7097    9.5991   -0.0000 O   0  0  0  0  0  0  0  0  0  0  0  0
   -8.6333   -0.2709   -0.0000 C   0  0  0  0  0  0  0  0  0  0  0  0
  -10.9065   -1.5194   -0.0000 C   0  0  0  0  0  0  0  0  0  0  0  0
   -9.4342   -1.5547   -0.0000 C   0  0  0  0  0  0  0  0  0  0  0  0
  1  2  1  0  0  0  0
  2  3  2  0  0  0  0
  2  4  1  0  0  0  0
  3  5  1  0  0  0  0
  3  6  1  0  0  0  0
  4  7  2  0  0  0  0
  6  8  2  0  0  0  0
  7  9  1  0  0  0  0
  9 10  1  0  0  0  0
 10 11  1  0  0  0  0
 11 12  1  0  0  0  0
 11 13  1  0  0  0  0
 12 14  1  0  0  0  0
 13 15  1  0  0  0  0
 14 16  1  0  0  0  0
 16 17  1  0  0  0  0
 17 18  2  0  0  0  0
 17 19  1  0  0  0  0
 18 20  1  0  0  0  0
 19 21  1  0  0  0  0
 19 22  2  0  0  0  0
 20 23  2  0  0  0  0
 21 24  1  0  0  0  0
 21 25  1  0  0  0  0
 22 26  1  0  0  0  0
 24 27  1  0  0  0  0
 25 28  1  0  0  0  0
 26 29  1  0  0  0  0
 27 30  2  0  0  0  0
 28 31  1  0  0  0  0
 29 32  1  0  0  0  0
 29 33  2  0  0  0  0
 31 34  2  0  0  0  0
 31 35  1  0  0  0  0
 32 36  2  0  0  0  0
 32 37  1  0  0  0  0
 34 38  1  0  0  0  0
 35 39  2  0  0  0  0
 38 40  2  0  0  0  0
  7  8  1  0  0  0  0
 15 16  1  0  0  0  0
 22 23  1  0  0  0  0
 24 26  2  0  0  0  0
 30 33  1  0  0  0  0
 39 40  1  0  0  0  0
M  CHG  2  32   1  37  -1
M  END
>  <MolRegNo>
38517

>  <m>
=

>  <Value>
11790

>  <Unit>
nM

>  <Type>
IC50

>  <pValue>
4.93

>  <Ligand Efficiency>
0

>  <Binding Efficiency>
0

>  <Surface Efficiency>
0

>  <Assay Index>
51975

>  <Assay Category>


>  <Assay Organism>


>  <Target ID>
17045

>  <Target Name>
Cytochrome P450 3A4

>  <Target Organism>
Homo sapiens

>  <Target Description>
Target is a single protein chain

>  <Sequence Accession>
P08684

>  <Reference>
J Med Chem 47 (6), 1339-1350 (2004)

>  <Pubmed ID>
14998324

>  <DOI>
10.1021/jm0310129

$$$$
186320
Actelion Java MolfileCreator 1.0

 16 17  0  0  0  0  0  0  0  0999 V2000
    0.0000   -0.0000   -0.0000 O   0  0  0  0  0  0  0  0  0  0  0  0
    1.2640    0.7797   -0.0000 C   0  0  0  0  0  0  0  0  0  0  0  0
   -1.3231    0.7442   -0.0000 C   0  0  0  0  0  0  0  0  0  0  0  0
    1.2286    2.2917   -0.0000 C   0  0  0  0  0  0  0  0  0  0  0  0
    2.5752    0.0591   -0.0000 C   0  0  0  0  0  0  0  0  0  0  0  0
   -2.6343   -0.0000   -0.0000 C   0  0  0  0  0  0  0  0  0  0  0  0
    2.5162    3.0714   -0.0000 C   0  0  0  0  0  0  0  0  0  0  0  0
    3.8510    0.8387   -0.0000 C   0  0  0  0  0  0  0  0  0  0  0  0
   -3.9456    0.7442   -0.0000 C   0  0  0  0  0  0  0  0  0  0  0  0
    3.8156    2.3508   -0.0000 C   0  0  0  0  0  0  0  0  0  0  0  0
   -5.2450   -0.0118   -0.0000 C   0  0  0  0  0  0  0  0  0  0  0  0
    5.0796    3.1186   -0.0000 N   0  0  0  0  0  0  0  0  0  0  0  0
    5.2095    4.6307   -0.0000 C   0  0  0  0  0  0  0  0  0  0  0  0
    6.4499    2.5398   -0.0000 C   0  0  0  0  0  0  0  0  0  0  0  0
    6.6625    4.9733   -0.0000 N   0  0  0  0  0  0  0  0  0  0  0  0
    7.4186    3.6857   -0.0000 C   0  0  0  0  0  0  0  0  0  0  0  0
  1  2  1  0  0  0  0
  1  3  1  0  0  0  0
  2  4  2  0  0  0  0
  2  5  1  0  0  0  0
  3  6  1  0  0  0  0
  4  7  1  0  0  0  0
  5  8  2  0  0  0  0
  6  9  1  0  0  0  0
  7 10  2  0  0  0  0
  9 11  1  0  0  0  0
 10 12  1  0  0  0  0
 12 13  1  0  0  0  0
 12 14  1  0  0  0  0
 13 15  2  0  0  0  0
 14 16  2  0  0  0  0
  8 10  1  0  0  0  0
 15 16  1  0  0  0  0
M  END
>  <MolRegNo>
186320

>  <m>
=

>  <Value>
348

>  <Unit>
nM

>  <Type>
IC50

>  <pValue>
6.46

>  <Ligand Efficiency>
0

>  <Binding Efficiency>
0

>  <Surface Efficiency>
0

>  <Assay Index>
51813

>  <Assay Category>


>  <Assay Organism>


>  <Target ID>
17045

>  <Target Name>
Cytochrome P450 3A4

>  <Target Organism>
Homo sapiens

>  <Target Description>
Target is a single protein chain

>  <Sequence Accession>
P08684

>  <Reference>
J Med Chem 46 (25), 5416-5427 (2003)

>  <Pubmed ID>
14640550

>  <DOI>
10.1021/jm020557k

$$$$
251741
Actelion Java MolfileCreator 1.0

 17 18  0  0  0  0  0  0  0  0999 V2000
    0.0000   -0.0000   -0.0000 O   0  0  0  0  0  0  0  0  0  0  0  0
    1.2954    0.7655   -0.0000 C   0  0  0  0  0  0  0  0  0  0  0  0
   -1.3072    0.7655   -0.0000 C   0  0  0  0  0  0  0  0  0  0  0  0
    2.5791    0.0236   -0.0000 C   0  0  0  0  0  0  0  0  0  0  0  0
    1.2719    2.2729   -0.0000 C   0  0  0  0  0  0  0  0  0  0  0  0
   -2.6144    0.0236   -0.0000 C   0  0  0  0  0  0  0  0  0  0  0  0
    3.8627    0.7890   -0.0000 C   0  0  0  0  0  0  0  0  0  0  0  0
    2.5555    3.0383   -0.0000 C   0  0  0  0  0  0  0  0  0  0  0  0
   -3.9216    0.7890   -0.0000 C   0  0  0  0  0  0  0  0  0  0  0  0
    3.8627    2.2964   -0.0000 C   0  0  0  0  0  0  0  0  0  0  0  0
   -5.2288    0.0471   -0.0000 C   0  0  0  0  0  0  0  0  0  0  0  0
    5.1463    3.0619   -0.0000 C   0  0  0  0  0  0  0  0  0  0  0  0
    5.1228    4.5693   -0.0000 C   0  0  0  0  0  0  0  0  0  0  0  0
    6.4300    2.3200   -0.0000 C   0  0  0  0  0  0  0  0  0  0  0  0
    6.4064    5.3347   -0.0000 N   0  0  0  0  0  0  0  0  0  0  0  0
    7.7136    3.0619   -0.0000 C   0  0  0  0  0  0  0  0  0  0  0  0
    7.6900    4.5811   -0.0000 C   0  0  0  0  0  0  0  0  0  0  0  0
  1  2  1  0  0  0  0
  1  3  1  0  0  0  0
  2  4  2  0  0  0  0
  2  5  1  0  0  0  0
  3  6  1  0  0  0  0
  4  7  1  0  0  0  0
  5  8  2  0  0  0  0
  6  9  1  0  0  0  0
  7 10  2  0  0  0  0
  9 11  1  0  0  0  0
 10 12  1  0  0  0  0
 12 13  2  0  0  0  0
 12 14  1  0  0  0  0
 13 15  1  0  0  0  0
 14 16  2  0  0  0  0
 15 17  2  0  0  0  0
  8 10  1  0  0  0  0
 16 17  1  0  0  0  0
M  END
>  <MolRegNo>
251741

>  <m>
=

>  <Value>
29300

>  <Unit>
nM

>  <Type>
IC50

>  <pValue>
4.53

>  <Ligand Efficiency>
0

>  <Binding Efficiency>
0

>  <Surface Efficiency>
0

>  <Assay Index>
51813

>  <Assay Category>


>  <Assay Organism>


>  <Target ID>
17045

>  <Target Name>
Cytochrome P450 3A4

>  <Target Organism>
Homo sapiens

>  <Target Description>
Target is a single protein chain

>  <Sequence Accession>
P08684

>  <Reference>
J Med Chem 46 (25), 5416-5427 (2003)

>  <Pubmed ID>
14640550

>  <DOI>
10.1021/jm020557k

$$$$
251478
Actelion Java MolfileCreator 1.0

 17 18  0  0  0  0  0  0  0  0999 V2000
    0.0000   -0.0000   -0.0000 O   0  0  0  0  0  0  0  0  0  0  0  0
    1.2902    0.7575   -0.0000 C   0  0  0  0  0  0  0  0  0  0  0  0
   -1.3138    0.7575   -0.0000 C   0  0  0  0  0  0  0  0  0  0  0  0
    1.2665    2.2726   -0.0000 C   0  0  0  0  0  0  0  0  0  0  0  0
    2.5803    0.0237   -0.0000 C   0  0  0  0  0  0  0  0  0  0  0  0
   -2.6395    0.0237   -0.0000 C   0  0  0  0  0  0  0  0  0  0  0  0
    2.5567    3.0301   -0.0000 C   0  0  0  0  0  0  0  0  0  0  0  0
    3.8705    0.7812   -0.0000 C   0  0  0  0  0  0  0  0  0  0  0  0
   -3.9533    0.7812   -0.0000 C   0  0  0  0  0  0  0  0  0  0  0  0
    3.8468    2.2963   -0.0000 C   0  0  0  0  0  0  0  0  0  0  0  0
   -5.2672    0.0473   -0.0000 C   0  0  0  0  0  0  0  0  0  0  0  0
    5.1370    3.0538   -0.0000 C   0  0  0  0  0  0  0  0  0  0  0  0
    5.2790    4.5570   -0.0000 N   0  0  0  0  0  0  0  0  0  0  0  0
    6.4863    2.4620   -0.0000 C   0  0  0  0  0  0  0  0  0  0  0  0
    6.7349    4.8884   -0.0000 N   0  0  0  0  0  0  0  0  0  0  0  0
    7.4806    3.6101   -0.0000 C   0  0  0  0  0  0  0  0  0  0  0  0
    6.7941    1.0061   -0.0000 C   0  0  0  0  0  0  0  0  0  0  0  0
  1  2  1  0  0  0  0
  1  3  1  0  0  0  0
  2  4  2  0  0  0  0
  2  5  1  0  0  0  0
  3  6  1  0  0  0  0
  4  7  1  0  0  0  0
  5  8  2  0  0  0  0
  6  9  1  0  0  0  0
  7 10  2  0  0  0  0
  9 11  1  0  0  0  0
 10 12  1  0  0  0  0
 12 13  1  0  0  0  0
 12 14  2  0  0  0  0
 13 15  1  0  0  0  0
 14 16  1  0  0  0  0
 14 17  1  0  0  0  0
  8 10  1  0  0  0  0
 15 16  2  0  0  0  0
M  END
>  <MolRegNo>
251478

>  <m>
=

>  <Value>
26800

>  <Unit>
nM

>  <Type>
IC50

>  <pValue>
4.57

>  <Ligand Efficiency>
0

>  <Binding Efficiency>
0

>  <Surface Efficiency>
0

>  <Assay Index>
51813

>  <Assay Category>


>  <Assay Organism>


>  <Target ID>
17045

>  <Target Name>
Cytochrome P450 3A4

>  <Target Organism>
Homo sapiens

>  <Target Description>
Target is a single protein chain

>  <Sequence Accession>
P08684

>  <Reference>
J Med Chem 46 (25), 5416-5427 (2003)

>  <Pubmed ID>
14640550

>  <DOI>
10.1021/jm020557k

$$$$
251955
Actelion Java MolfileCreator 1.0

 16 17  0  0  0  0  0  0  0  0999 V2000
    0.0000   -0.0000   -0.0000 O   0  0  0  0  0  0  0  0  0  0  0  0
    1.2879    0.7562   -0.0000 C   0  0  0  0  0  0  0  0  0  0  0  0
   -1.3115    0.7562   -0.0000 C   0  0  0  0  0  0  0  0  0  0  0  0
    1.2642    2.2685   -0.0000 C   0  0  0  0  0  0  0  0  0  0  0  0
    2.5757    0.0236   -0.0000 C   0  0  0  0  0  0  0  0  0  0  0  0
   -2.6230    0.0236   -0.0000 C   0  0  0  0  0  0  0  0  0  0  0  0
    2.5521    3.0247   -0.0000 C   0  0  0  0  0  0  0  0  0  0  0  0
    3.8636    0.7798   -0.0000 C   0  0  0  0  0  0  0  0  0  0  0  0
   -3.9463    0.7798   -0.0000 C   0  0  0  0  0  0  0  0  0  0  0  0
    3.8399    2.2922   -0.0000 C   0  0  0  0  0  0  0  0  0  0  0  0
   -5.2578    0.0473   -0.0000 C   0  0  0  0  0  0  0  0  0  0  0  0
    5.1278    3.0483   -0.0000 C   0  0  0  0  0  0  0  0  0  0  0  0
    5.2696    4.5607   -0.0000 C   0  0  0  0  0  0  0  0  0  0  0  0
    6.4747    2.4458   -0.0000 C   0  0  0  0  0  0  0  0  0  0  0  0
    6.7110    4.8797   -0.0000 N   0  0  0  0  0  0  0  0  0  0  0  0
    7.4790    3.5800   -0.0000 C   0  0  0  0  0  0  0  0  0  0  0  0
  1  2  1  0  0  0  0
  1  3  1  0  0  0  0
  2  4  2  0  0  0  0
  2  5  1  0  0  0  0
  3  6  1  0  0  0  0
  4  7  1  0  0  0  0
  5  8  2  0  0  0  0
  6  9  1  0  0  0  0
  7 10  2  0  0  0  0
  9 11  1  0  0  0  0
 10 12  1  0  0  0  0
 12 13  2  0  0  0  0
 12 14  1  0  0  0  0
 13 15  1  0  0  0  0
 14 16  2  0  0  0  0
  8 10  1  0  0  0  0
 15 16  1  0  0  0  0
M  END
>  <MolRegNo>
251955

>  <m>
=

>  <Value>
7520

>  <Unit>
nM

>  <Type>
IC50

>  <pValue>
5.12

>  <Ligand Efficiency>
0

>  <Binding Efficiency>
0

>  <Surface Efficiency>
0

>  <Assay Index>
51813

>  <Assay Category>


>  <Assay Organism>


>  <Target ID>
17045

>  <Target Name>
Cytochrome P450 3A4

>  <Target Organism>
Homo sapiens

>  <Target Description>
Target is a single protein chain

>  <Sequence Accession>
P08684

>  <Reference>
J Med Chem 46 (25), 5416-5427 (2003)

>  <Pubmed ID>
14640550

>  <DOI>
10.1021/jm020557k

$$$$
251252
Actelion Java MolfileCreator 1.0

 17 18  0  0  0  0  0  0  0  0999 V2000
    0.0000   -0.0000   -0.0000 O   0  0  0  0  0  0  0  0  0  0  0  0
    1.2952    0.7654   -0.0000 C   0  0  0  0  0  0  0  0  0  0  0  0
   -1.3070    0.7654   -0.0000 C   0  0  0  0  0  0  0  0  0  0  0  0
    2.5786    0.0235   -0.0000 C   0  0  0  0  0  0  0  0  0  0  0  0
    1.2717    2.2725   -0.0000 C   0  0  0  0  0  0  0  0  0  0  0  0
   -2.6140    0.0235   -0.0000 C   0  0  0  0  0  0  0  0  0  0  0  0
    3.8621    0.7889   -0.0000 C   0  0  0  0  0  0  0  0  0  0  0  0
    2.5551    3.0379   -0.0000 C   0  0  0  0  0  0  0  0  0  0  0  0
   -3.9210    0.7889   -0.0000 C   0  0  0  0  0  0  0  0  0  0  0  0
    3.8621    2.2961   -0.0000 C   0  0  0  0  0  0  0  0  0  0  0  0
   -5.2279    0.0471   -0.0000 C   0  0  0  0  0  0  0  0  0  0  0  0
    5.1455    3.0614   -0.0000 C   0  0  0  0  0  0  0  0  0  0  0  0
    6.4290    2.3196   -0.0000 C   0  0  0  0  0  0  0  0  0  0  0  0
    5.1220    4.5686   -0.0000 C   0  0  0  0  0  0  0  0  0  0  0  0
    7.7124    3.0614   -0.0000 C   0  0  0  0  0  0  0  0  0  0  0  0
    6.4054    5.3339   -0.0000 C   0  0  0  0  0  0  0  0  0  0  0  0
    7.7006    4.5686   -0.0000 N   0  0  0  0  0  0  0  0  0  0  0  0
  1  2  1  0  0  0  0
  1  3  1  0  0  0  0
  2  4  2  0  0  0  0
  2  5  1  0  0  0  0
  3  6  1  0  0  0  0
  4  7  1  0  0  0  0
  5  8  2  0  0  0  0
  6  9  1  0  0  0  0
  7 10  2  0  0  0  0
  9 11  1  0  0  0  0
 10 12  1  0  0  0  0
 12 13  2  0  0  0  0
 12 14  1  0  0  0  0
 13 15  1  0  0  0  0
 14 16  2  0  0  0  0
 15 17  2  0  0  0  0
  8 10  1  0  0  0  0
 16 17  1  0  0  0  0
M  END
>  <MolRegNo>
251252

>  <m>
=

>  <Value>
51100

>  <Unit>
nM

>  <Type>
IC50

>  <pValue>
4.29

>  <Ligand Efficiency>
0

>  <Binding Efficiency>
0

>  <Surface Efficiency>
0

>  <Assay Index>
51813

>  <Assay Category>


>  <Assay Organism>


>  <Target ID>
17045

>  <Target Name>
Cytochrome P450 3A4

>  <Target Organism>
Homo sapiens

>  <Target Description>
Target is a single protein chain

>  <Sequence Accession>
P08684

>  <Reference>
J Med Chem 46 (25), 5416-5427 (2003)

>  <Pubmed ID>
14640550

>  <DOI>
10.1021/jm020557k

$$$$
251526
Actelion Java MolfileCreator 1.0

 17 18  0  0  0  0  0  0  0  0999 V2000
    0.0000   -0.0000   -0.0000 O   0  0  0  0  0  0  0  0  0  0  0  0
    1.2857    0.7597   -0.0000 C   0  0  0  0  0  0  0  0  0  0  0  0
   -1.3091    0.7597   -0.0000 C   0  0  0  0  0  0  0  0  0  0  0  0
    1.2740    2.2558   -0.0000 C   0  0  0  0  0  0  0  0  0  0  0  0
    2.5714    0.0117   -0.0000 C   0  0  0  0  0  0  0  0  0  0  0  0
   -2.6181    0.0234   -0.0000 C   0  0  0  0  0  0  0  0  0  0  0  0
    2.5597    3.0155   -0.0000 C   0  0  0  0  0  0  0  0  0  0  0  0
    3.8571    0.7714   -0.0000 C   0  0  0  0  0  0  0  0  0  0  0  0
   -3.9272    0.7831   -0.0000 C   0  0  0  0  0  0  0  0  0  0  0  0
    3.8571    2.2792   -0.0000 C   0  0  0  0  0  0  0  0  0  0  0  0
   -5.2479    0.0468   -0.0000 C   0  0  0  0  0  0  0  0  0  0  0  0
    5.1427    3.0506   -0.0000 N   0  0  0  0  0  0  0  0  0  0  0  0
    5.2713    4.5466   -0.0000 C   0  0  0  0  0  0  0  0  0  0  0  0
    6.4986    2.4545   -0.0000 C   0  0  0  0  0  0  0  0  0  0  0  0
    6.7323    4.8739   -0.0000 N   0  0  0  0  0  0  0  0  0  0  0  0
    4.1493    5.5635   -0.0000 C   0  0  0  0  0  0  0  0  0  0  0  0
    7.4920    3.5765   -0.0000 C   0  0  0  0  0  0  0  0  0  0  0  0
  1  2  1  0  0  0  0
  1  3  1  0  0  0  0
  2  4  2  0  0  0  0
  2  5  1  0  0  0  0
  3  6  1  0  0  0  0
  4  7  1  0  0  0  0
  5  8  2  0  0  0  0
  6  9  1  0  0  0  0
  7 10  2  0  0  0  0
  9 11  1  0  0  0  0
 10 12  1  0  0  0  0
 12 13  1  0  0  0  0
 12 14  1  0  0  0  0
 13 15  2  0  0  0  0
 13 16  1  0  0  0  0
 14 17  2  0  0  0  0
  8 10  1  0  0  0  0
 15 17  1  0  0  0  0
M  END
>  <MolRegNo>
251526

>  <m>
=

>  <Value>
50900

>  <Unit>
nM

>  <Type>
IC50

>  <pValue>
4.29

>  <Ligand Efficiency>
0

>  <Binding Efficiency>
0

>  <Surface Efficiency>
0

>  <Assay Index>
51813

>  <Assay Category>


>  <Assay Organism>


>  <Target ID>
17045

>  <Target Name>
Cytochrome P450 3A4

>  <Target Organism>
Homo sapiens

>  <Target Description>
Target is a single protein chain

>  <Sequence Accession>
P08684

>  <Reference>
J Med Chem 46 (25), 5416-5427 (2003)

>  <Pubmed ID>
14640550

>  <DOI>
10.1021/jm020557k

$$$$
251142
Actelion Java MolfileCreator 1.0

 17 18  0  0  0  0  0  0  0  0999 V2000
    0.0000   -0.0000   -0.0000 O   0  0  0  0  0  0  0  0  0  0  0  0
    1.2864    0.7553   -0.0000 C   0  0  0  0  0  0  0  0  0  0  0  0
   -1.3100    0.7671   -0.0000 C   0  0  0  0  0  0  0  0  0  0  0  0
    1.2628    2.2660   -0.0000 C   0  0  0  0  0  0  0  0  0  0  0  0
    2.5728    0.0118   -0.0000 C   0  0  0  0  0  0  0  0  0  0  0  0
   -2.6319    0.0236   -0.0000 C   0  0  0  0  0  0  0  0  0  0  0  0
    2.5492    3.0213   -0.0000 C   0  0  0  0  0  0  0  0  0  0  0  0
    3.8593    0.7789   -0.0000 C   0  0  0  0  0  0  0  0  0  0  0  0
   -3.9419    0.7907   -0.0000 C   0  0  0  0  0  0  0  0  0  0  0  0
    3.8357    2.2778   -0.0000 C   0  0  0  0  0  0  0  0  0  0  0  0
   -5.2519    0.0472   -0.0000 C   0  0  0  0  0  0  0  0  0  0  0  0
    5.1221    3.0331   -0.0000 C   0  0  0  0  0  0  0  0  0  0  0  0
    5.2637    4.5320   -0.0000 N   0  0  0  0  0  0  0  0  0  0  0  0
    6.4675    2.4430   -0.0000 C   0  0  0  0  0  0  0  0  0  0  0  0
    6.7154    4.8624   -0.0000 N   0  0  0  0  0  0  0  0  0  0  0  0
    4.1189    5.5470   -0.0000 C   0  0  0  0  0  0  0  0  0  0  0  0
    7.4589    3.5642   -0.0000 C   0  0  0  0  0  0  0  0  0  0  0  0
  1  2  1  0  0  0  0
  1  3  1  0  0  0  0
  2  4  2  0  0  0  0
  2  5  1  0  0  0  0
  3  6  1  0  0  0  0
  4  7  1  0  0  0  0
  5  8  2  0  0  0  0
  6  9  1  0  0  0  0
  7 10  2  0  0  0  0
  9 11  1  0  0  0  0
 10 12  1  0  0  0  0
 12 13  1  0  0  0  0
 12 14  2  0  0  0  0
 13 15  1  0  0  0  0
 13 16  1  0  0  0  0
 14 17  1  0  0  0  0
  8 10  1  0  0  0  0
 15 17  2  0  0  0  0
M  END
>  <MolRegNo>
251142

>  <m>
=

>  <Value>
93800

>  <Unit>
nM

>  <Type>
IC50

>  <pValue>
4.03

>  <Ligand Efficiency>
0

>  <Binding Efficiency>
0

>  <Surface Efficiency>
0

>  <Assay Index>
51813

>  <Assay Category>


>  <Assay Organism>


>  <Target ID>
17045

>  <Target Name>
Cytochrome P450 3A4

>  <Target Organism>
Homo sapiens

>  <Target Description>
Target is a single protein chain

>  <Sequence Accession>
P08684

>  <Reference>
J Med Chem 46 (25), 5416-5427 (2003)

>  <Pubmed ID>
14640550

>  <DOI>
10.1021/jm020557k

$$$$
250610
Actelion Java MolfileCreator 1.0

 16 17  0  0  0  0  0  0  0  0999 V2000
    0.0000   -0.0000   -0.0000 S   0  0  0  0  0  0  0  0  0  0  0  0
    1.4535    0.3309   -0.0000 N   0  0  0  0  0  0  0  0  0  0  0  0
   -0.1654   -1.4772   -0.0000 C   0  0  0  0  0  0  0  0  0  0  0  0
    2.1980   -0.9572   -0.0000 C   0  0  0  0  0  0  0  0  0  0  0  0
   -1.4535   -2.2216   -0.0000 C   0  0  0  0  0  0  0  0  0  0  0  0
    1.2054   -2.0798   -0.0000 C   0  0  0  0  0  0  0  0  0  0  0  0
   -2.7771   -1.4653   -0.0000 C   0  0  0  0  0  0  0  0  0  0  0  0
   -1.4772   -3.7106   -0.0000 C   0  0  0  0  0  0  0  0  0  0  0  0
   -4.0888   -2.1980   -0.0000 C   0  0  0  0  0  0  0  0  0  0  0  0
   -2.7889   -4.4433   -0.0000 C   0  0  0  0  0  0  0  0  0  0  0  0
   -4.1006   -3.6752   -0.0000 C   0  0  0  0  0  0  0  0  0  0  0  0
   -5.4123   -4.4078   -0.0000 O   0  0  0  0  0  0  0  0  0  0  0  0
   -6.7240   -3.6515   -0.0000 C   0  0  0  0  0  0  0  0  0  0  0  0
   -8.0357   -4.3842   -0.0000 C   0  0  0  0  0  0  0  0  0  0  0  0
   -9.3474   -3.6279   -0.0000 C   0  0  0  0  0  0  0  0  0  0  0  0
  -10.6592   -4.3606   -0.0000 C   0  0  0  0  0  0  0  0  0  0  0  0
  1  2  1  0  0  0  0
  1  3  1  0  0  0  0
  2  4  2  0  0  0  0
  3  5  1  0  0  0  0
  3  6  2  0  0  0  0
  5  7  2  0  0  0  0
  5  8  1  0  0  0  0
  7  9  1  0  0  0  0
  8 10  2  0  0  0  0
  9 11  2  0  0  0  0
 11 12  1  0  0  0  0
 12 13  1  0  0  0  0
 13 14  1  0  0  0  0
 14 15  1  0  0  0  0
 15 16  1  0  0  0  0
  4  6  1  0  0  0  0
 10 11  1  0  0  0  0
M  END
>  <MolRegNo>
250610

>  <m>
=

>  <Value>
22900

>  <Unit>
nM

>  <Type>
IC50

>  <pValue>
4.64

>  <Ligand Efficiency>
0

>  <Binding Efficiency>
0

>  <Surface Efficiency>
0

>  <Assay Index>
51813

>  <Assay Category>


>  <Assay Organism>


>  <Target ID>
17045

>  <Target Name>
Cytochrome P450 3A4

>  <Target Organism>
Homo sapiens

>  <Target Description>
Target is a single protein chain

>  <Sequence Accession>
P08684

>  <Reference>
J Med Chem 46 (25), 5416-5427 (2003)

>  <Pubmed ID>
14640550

>  <DOI>
10.1021/jm020557k

$$$$
214744
Actelion Java MolfileCreator 1.0

 52 57  0  0  1  0  0  0  0  0999 V2000
    0.0000   -0.0000   -0.0000 F   0  0  0  0  0  0  0  0  0  0  0  0
    1.3097    0.7552   -0.0000 C   0  0  0  0  0  0  0  0  0  0  0  0
    2.0531   -0.5310   -0.0000 F   0  0  0  0  0  0  0  0  0  0  0  0
    0.5664    2.0649   -0.0000 F   0  0  0  0  0  0  0  0  0  0  0  0
    2.5959    1.5221   -0.0000 C   0  0  0  0  0  0  0  0  0  0  0  0
    2.5841    3.0325   -0.0000 N   0  0  0  0  0  0  0  0  0  0  0  0
    1.2743    3.7876   -0.0000 C   0  0  0  0  0  0  0  0  0  0  0  0
   -0.0354    3.0443   -0.0000 O   0  0  0  0  0  0  0  0  0  0  0  0
    1.2625    5.2980   -0.0000 C   0  0  0  0  0  0  0  0  0  0  0  0
    2.5487    6.0532   -0.0000 N   0  0  0  0  0  0  0  0  0  0  0  0
   -0.0472    6.0532   -0.0000 C   0  0  0  0  0  0  0  0  0  0  0  0
    2.5369    7.5635   -0.0000 C   0  0  0  0  0  0  0  0  0  0  0  0
    3.8348    5.3098   -0.0000 C   0  0  0  0  0  0  0  0  0  0  0  0
   -0.0590    7.5635   -0.0000 N   0  0  0  0  0  0  0  0  0  0  0  0
    1.2271    8.3187   -0.0000 C   0  0  0  0  0  0  0  0  0  0  0  0
    5.1210    6.0650   -0.0000 C   0  0  0  0  0  0  0  0  0  0  0  0
   -1.3923    8.3187   -0.0000 C   0  0  0  0  0  0  0  0  0  0  0  0
    5.1092    7.5753   -0.0000 O   0  0  0  0  0  0  0  0  0  0  0  0
    6.4071    5.3216   -0.0000 C   0  0  0  0  0  0  0  0  0  0  0  0
   -2.7021    7.5871   -0.0000 C   0  0  0  0  0  0  0  0  0  0  0  0
    7.6933    6.0768   -0.0000 C   0  0  0  0  0  0  0  0  0  0  0  0
   -3.3275    6.2419   -0.0000 C   0  0  0  0  0  0  0  0  0  0  0  0
   -3.7994    8.6018   -0.0000 C   0  0  0  0  0  0  0  0  0  0  0  0
    9.0030    5.3334   -0.0000 C   0  0  0  0  0  0  0  0  0  0  0  0
    7.6815    7.5871   -0.0000 C   0  0  0  0  0  0  0  0  0  0  0  0
   -4.8142    6.4307   -0.0000 N   0  0  0  0  0  0  0  0  0  0  0  0
   -5.1092    7.9057   -0.0000 C   0  0  0  0  0  0  0  0  0  0  0  0
    8.9912    3.8466   -0.0000 O   0  0  0  0  0  0  0  0  0  0  0  0
   10.2892    6.0886   -0.0000 N   0  0  0  0  0  0  0  0  0  0  0  0
    6.9145    8.8968   -0.0000 C   0  0  0  0  0  0  0  0  0  0  0  0
   -5.8526    5.3570   -0.0000 C   0  0  0  0  0  0  0  0  0  0  0  0
   11.5753    5.3452   -0.0000 C   0  0  0  0  0  0  0  0  0  0  0  0
    7.6579   10.2302   -0.0000 C   0  0  0  0  0  0  0  0  0  0  0  0
    5.4042    8.9086   -0.0000 C   0  0  0  0  0  0  0  0  0  0  0  0
   -7.3157    5.6874   -0.0000 C   0  0  0  0  0  0  0  0  0  0  0  0
   -5.4160    3.9410   -0.0000 C   0  0  0  0  0  0  0  0  0  0  0  0
   11.5635    3.8584   -0.0000 C   0  0  0  0  0  0  0  0  0  0  0  0
   12.8615    6.1004   -0.0000 C   0  0  0  0  0  0  0  0  0  0  0  0
    6.8791   11.5399   -0.0000 N   0  0  0  0  0  0  0  0  0  0  0  0
    4.6490   10.2184   -0.0000 C   0  0  0  0  0  0  0  0  0  0  0  0
   -8.3541    4.6136   -0.0000 C   0  0  0  0  0  0  0  0  0  0  0  0
   -6.4543    2.8437   -0.0000 C   0  0  0  0  0  0  0  0  0  0  0  0
   12.8497    3.1151   -0.0000 C   0  0  0  0  0  0  0  0  0  0  0  0
   10.2538    3.1151   -0.0000 C   0  0  0  0  0  0  0  0  0  0  0  0
   12.8497    7.6107   -0.0000 O   0  0  0  0  0  0  0  0  0  0  0  0
   14.1476    5.3570   -0.0000 C   0  0  0  0  0  0  0  0  0  0  0  0
    5.3688   11.5517   -0.0000 C   0  0  0  0  0  0  0  0  0  0  0  0
   -7.9175    3.1977   -0.0000 C   0  0  0  0  0  0  0  0  0  0  0  0
   14.1358    3.8702   -0.0000 O   0  0  0  0  0  0  0  0  0  0  0  0
   12.8379    1.6283   -0.0000 C   0  0  0  0  0  0  0  0  0  0  0  0
   10.2420    1.6283   -0.0000 C   0  0  0  0  0  0  0  0  0  0  0  0
   11.5281    0.8850   -0.0000 C   0  0  0  0  0  0  0  0  0  0  0  0
  1  2  1  0  0  0  0
  2  3  1  0  0  0  0
  2  4  1  0  0  0  0
  2  5  1  0  0  0  0
  5  6  1  0  0  0  0
  6  7  1  0  0  0  0
  7  8  2  0  0  0  0
  9  7  1  6  0  0  0
  9 10  1  0  0  0  0
  9 11  1  0  0  0  0
 10 12  1  0  0  0  0
 10 13  1  0  0  0  0
 11 14  1  0  0  0  0
 12 15  1  0  0  0  0
 13 16  1  0  0  0  0
 14 17  1  0  0  0  0
 16 18  1  1  0  0  0
 16 19  1  0  0  0  0
 17 20  1  0  0  0  0
 21 19  1  1  0  0  0
 20 22  2  0  0  0  0
 20 23  1  0  0  0  0
 21 24  1  0  0  0  0
 21 25  1  0  0  0  0
 22 26  1  0  0  0  0
 23 27  2  0  0  0  0
 24 28  2  0  0  0  0
 24 29  1  0  0  0  0
 25 30  1  0  0  0  0
 26 31  1  0  0  0  0
 32 29  1  6  0  0  0
 30 33  2  0  0  0  0
 30 34  1  0  0  0  0
 31 35  2  0  0  0  0
 31 36  1  0  0  0  0
 32 37  1  0  0  0  0
 32 38  1  0  0  0  0
 33 39  1  0  0  0  0
 34 40  2  0  0  0  0
 35 41  1  0  0  0  0
 36 42  2  0  0  0  0
 37 43  2  0  0  0  0
 37 44  1  0  0  0  0
 38 45  1  6  0  0  0
 38 46  1  0  0  0  0
 39 47  2  0  0  0  0
 41 48  2  0  0  0  0
 43 49  1  0  0  0  0
 43 50  1  0  0  0  0
 44 51  2  0  0  0  0
 50 52  2  0  0  0  0
 14 15  1  0  0  0  0
 26 27  1  0  0  0  0
 40 47  1  0  0  0  0
 42 48  1  0  0  0  0
 46 49  1  0  0  0  0
 51 52  1  0  0  0  0
M  END
>  <MolRegNo>
214744

>  <m>
=

>  <Value>
400

>  <Unit>
nM

>  <Type>
IC50

>  <pValue>
6.4

>  <Ligand Efficiency>
0

>  <Binding Efficiency>
0

>  <Surface Efficiency>
0

>  <Assay Index>
51973

>  <Assay Category>


>  <Assay Organism>
Homo sapiens

>  <Target ID>
17045

>  <Target Name>
Cytochrome P450 3A4

>  <Target Organism>
Homo sapiens

>  <Target Description>
Target is a single protein chain

>  <Sequence Accession>
P08684

>  <Reference>
Bioorg Med Chem Lett 13 (22), 4027-4030 (2003)

>  <Pubmed ID>
14592500

>  <DOI>
10.1016/j.bmcl.2003.08.049

$$$$
214743
Actelion Java MolfileCreator 1.0

 53 58  0  0  1  0  0  0  0  0999 V2000
    0.0000   -0.0000   -0.0000 Cl  0  0  0  0  0  0  0  0  0  0  0  0
   -0.4611    1.4423   -0.0000 C   0  0  0  0  0  0  0  0  0  0  0  0
    0.5556    2.5654   -0.0000 C   0  0  0  0  0  0  0  0  0  0  0  0
   -1.9270    1.7969   -0.0000 C   0  0  0  0  0  0  0  0  0  0  0  0
    0.0946    4.0076   -0.0000 C   0  0  0  0  0  0  0  0  0  0  0  0
   -2.3880    3.2392   -0.0000 C   0  0  0  0  0  0  0  0  0  0  0  0
    1.1113    5.1071   -0.0000 N   0  0  0  0  0  0  0  0  0  0  0  0
   -1.3713    4.3386   -0.0000 C   0  0  0  0  0  0  0  0  0  0  0  0
    2.5772    4.9652   -0.0000 C   0  0  0  0  0  0  0  0  0  0  0  0
    0.8039    6.5966   -0.0000 C   0  0  0  0  0  0  0  0  0  0  0  0
    3.1801    6.3247   -0.0000 C   0  0  0  0  0  0  0  0  0  0  0  0
    2.0925    7.3414   -0.0000 C   0  0  0  0  0  0  0  0  0  0  0  0
    4.4687    7.0813   -0.0000 C   0  0  0  0  0  0  0  0  0  0  0  0
    5.7809    6.3365   -0.0000 N   0  0  0  0  0  0  0  0  0  0  0  0
    5.7691    4.8470   -0.0000 C   0  0  0  0  0  0  0  0  0  0  0  0
    7.0695    7.0931   -0.0000 C   0  0  0  0  0  0  0  0  0  0  0  0
    7.0577    4.1022   -0.0000 C   0  0  0  0  0  0  0  0  0  0  0  0
    8.3581    6.3484   -0.0000 C   0  0  0  0  0  0  0  0  0  0  0  0
    8.3463    4.8706   -0.0000 N   0  0  0  0  0  0  0  0  0  0  0  0
    7.0459    2.6126   -0.0000 C   0  0  0  0  0  0  0  0  0  0  0  0
    9.6348    4.1258   -0.0000 C   0  0  0  0  0  0  0  0  0  0  0  0
    5.7336    1.8797   -0.0000 O   0  0  0  0  0  0  0  0  0  0  0  0
    8.3344    1.8797   -0.0000 N   0  0  0  0  0  0  0  0  0  0  0  0
   10.9234    4.8943   -0.0000 C   0  0  0  0  0  0  0  0  0  0  0  0
    8.3226    0.3901   -0.0000 C   0  0  0  0  0  0  0  0  0  0  0  0
   10.9116    6.4075   -0.0000 O   0  0  0  0  0  0  0  0  0  0  0  0
   12.2120    4.1495   -0.0000 C   0  0  0  0  0  0  0  0  0  0  0  0
    7.0104   -0.3547   -0.0000 C   0  0  0  0  0  0  0  0  0  0  0  0
   13.5006    4.9179   -0.0000 C   0  0  0  0  0  0  0  0  0  0  0  0
    5.6745   -1.0758   -0.0000 F   0  0  0  0  0  0  0  0  0  0  0  0
    7.7315   -1.6432   -0.0000 F   0  0  0  0  0  0  0  0  0  0  0  0
    6.2538    0.9694   -0.0000 F   0  0  0  0  0  0  0  0  0  0  0  0
   14.8128    4.1731   -0.0000 C   0  0  0  0  0  0  0  0  0  0  0  0
   13.4888    6.4311   -0.0000 C   0  0  0  0  0  0  0  0  0  0  0  0
   14.8010    2.6836   -0.0000 O   0  0  0  0  0  0  0  0  0  0  0  0
   16.1014    4.9416   -0.0000 N   0  0  0  0  0  0  0  0  0  0  0  0
   12.7204    7.7670   -0.0000 C   0  0  0  0  0  0  0  0  0  0  0  0
   17.3900    4.1968   -0.0000 C   0  0  0  0  0  0  0  0  0  0  0  0
   13.4651    9.0792   -0.0000 C   0  0  0  0  0  0  0  0  0  0  0  0
   11.2072    7.7788   -0.0000 C   0  0  0  0  0  0  0  0  0  0  0  0
   17.3782    2.7072   -0.0000 C   0  0  0  0  0  0  0  0  0  0  0  0
   18.6786    4.9652   -0.0000 C   0  0  0  0  0  0  0  0  0  0  0  0
   12.6849   10.3914   -0.0000 N   0  0  0  0  0  0  0  0  0  0  0  0
   10.4506    9.0910   -0.0000 C   0  0  0  0  0  0  0  0  0  0  0  0
   18.6668    1.9743   -0.0000 C   0  0  0  0  0  0  0  0  0  0  0  0
   16.0660    1.9743   -0.0000 C   0  0  0  0  0  0  0  0  0  0  0  0
   18.6668    6.4784   -0.0000 O   0  0  0  0  0  0  0  0  0  0  0  0
   19.9672    4.2204   -0.0000 C   0  0  0  0  0  0  0  0  0  0  0  0
   11.1717   10.4033   -0.0000 C   0  0  0  0  0  0  0  0  0  0  0  0
   19.9554    2.7309   -0.0000 O   0  0  0  0  0  0  0  0  0  0  0  0
   18.6550    0.4847   -0.0000 C   0  0  0  0  0  0  0  0  0  0  0  0
   16.0541    0.4847   -0.0000 C   0  0  0  0  0  0  0  0  0  0  0  0
   17.3427   -0.2601   -0.0000 C   0  0  0  0  0  0  0  0  0  0  0  0
  1  2  1  0  0  0  0
  2  3  2  0  0  0  0
  2  4  1  0  0  0  0
  3  5  1  0  0  0  0
  4  6  2  0  0  0  0
  5  7  1  0  0  0  0
  5  8  2  0  0  0  0
  7  9  1  0  0  0  0
  7 10  1  0  0  0  0
  9 11  2  0  0  0  0
 10 12  2  0  0  0  0
 11 13  1  0  0  0  0
 13 14  1  0  0  0  0
 14 15  1  0  0  0  0
 14 16  1  0  0  0  0
 15 17  1  0  0  0  0
 16 18  1  0  0  0  0
 17 19  1  0  0  0  0
 17 20  1  6  0  0  0
 19 21  1  0  0  0  0
 20 22  2  0  0  0  0
 20 23  1  0  0  0  0
 21 24  1  0  0  0  0
 23 25  1  0  0  0  0
 24 26  1  1  0  0  0
 24 27  1  0  0  0  0
 25 28  1  0  0  0  0
 29 27  1  1  0  0  0
 28 30  1  0  0  0  0
 28 31  1  0  0  0  0
 28 32  1  0  0  0  0
 29 33  1  0  0  0  0
 29 34  1  0  0  0  0
 33 35  2  0  0  0  0
 33 36  1  0  0  0  0
 34 37  1  0  0  0  0
 38 36  1  6  0  0  0
 37 39  2  0  0  0  0
 37 40  1  0  0  0  0
 38 41  1  0  0  0  0
 38 42  1  0  0  0  0
 39 43  1  0  0  0  0
 40 44  2  0  0  0  0
 41 45  2  0  0  0  0
 41 46  1  0  0  0  0
 42 47  1  6  0  0  0
 42 48  1  0  0  0  0
 43 49  2  0  0  0  0
 45 50  1  0  0  0  0
 45 51  1  0  0  0  0
 46 52  2  0  0  0  0
 51 53  2  0  0  0  0
  6  8  1  0  0  0  0
 11 12  1  0  0  0  0
 18 19  1  0  0  0  0
 44 49  1  0  0  0  0
 48 50  1  0  0  0  0
 52 53  1  0  0  0  0
M  END
>  <MolRegNo>
214743

>  <m>
=

>  <Value>
80

>  <Unit>
nM

>  <Type>
IC50

>  <pValue>
7.1

>  <Ligand Efficiency>
0

>  <Binding Efficiency>
0

>  <Surface Efficiency>
0

>  <Assay Index>
51818

>  <Assay Category>


>  <Assay Organism>
Homo sapiens

>  <Target ID>
17045

>  <Target Name>
Cytochrome P450 3A4

>  <Target Organism>
Homo sapiens

>  <Target Description>
Target is a single protein chain

>  <Sequence Accession>
P08684

>  <Reference>
Bioorg Med Chem Lett 13 (22), 4027-4030 (2003)

>  <Pubmed ID>
14592500

>  <DOI>
10.1016/j.bmcl.2003.08.049

$$$$
214664
Actelion Java MolfileCreator 1.0

 55 60  0  0  1  0  0  0  0  0999 V2000
    0.0000   -0.0000   -0.0000 F   0  0  0  0  0  0  0  0  0  0  0  0
    1.4562   -0.3197   -0.0000 C   0  0  0  0  0  0  0  0  0  0  0  0
    2.4744    0.7814   -0.0000 C   0  0  0  0  0  0  0  0  0  0  0  0
    1.8943   -1.7403   -0.0000 C   0  0  0  0  0  0  0  0  0  0  0  0
    2.0126    2.2257   -0.0000 F   0  0  0  0  0  0  0  0  0  0  0  0
    3.9187    0.4736   -0.0000 C   0  0  0  0  0  0  0  0  0  0  0  0
    0.8169   -2.7822   -0.0000 F   0  0  0  0  0  0  0  0  0  0  0  0
    3.3386   -2.0718   -0.0000 C   0  0  0  0  0  0  0  0  0  0  0  0
    4.9369    1.5746   -0.0000 N   0  0  0  0  0  0  0  0  0  0  0  0
    4.3568   -0.9471   -0.0000 C   0  0  0  0  0  0  0  0  0  0  0  0
    6.4049    1.4325   -0.0000 C   0  0  0  0  0  0  0  0  0  0  0  0
    4.6291    3.0663   -0.0000 C   0  0  0  0  0  0  0  0  0  0  0  0
    7.0087    2.7940   -0.0000 C   0  0  0  0  0  0  0  0  0  0  0  0
    5.9195    3.8122   -0.0000 C   0  0  0  0  0  0  0  0  0  0  0  0
    8.2992    3.5517   -0.0000 C   0  0  0  0  0  0  0  0  0  0  0  0
    9.6133    2.8059   -0.0000 N   0  0  0  0  0  0  0  0  0  0  0  0
    9.6015    1.3141   -0.0000 C   0  0  0  0  0  0  0  0  0  0  0  0
   10.9038    3.5636   -0.0000 C   0  0  0  0  0  0  0  0  0  0  0  0
   10.8920    0.5683   -0.0000 C   0  0  0  0  0  0  0  0  0  0  0  0
   12.1943    2.8177   -0.0000 C   0  0  0  0  0  0  0  0  0  0  0  0
   12.1824    1.3378   -0.0000 N   0  0  0  0  0  0  0  0  0  0  0  0
   10.8801   -0.9234   -0.0000 C   0  0  0  0  0  0  0  0  0  0  0  0
   13.4729    0.5920   -0.0000 C   0  0  0  0  0  0  0  0  0  0  0  0
    9.5660   -1.6575   -0.0000 O   0  0  0  0  0  0  0  0  0  0  0  0
   12.1706   -1.6575   -0.0000 N   0  0  0  0  0  0  0  0  0  0  0  0
   14.7633    1.3615   -0.0000 C   0  0  0  0  0  0  0  0  0  0  0  0
   12.1587   -3.1492   -0.0000 C   0  0  0  0  0  0  0  0  0  0  0  0
   14.7515    2.8769   -0.0000 O   0  0  0  0  0  0  0  0  0  0  0  0
   16.0538    0.6156   -0.0000 C   0  0  0  0  0  0  0  0  0  0  0  0
   10.8446   -3.8951   -0.0000 C   0  0  0  0  0  0  0  0  0  0  0  0
   17.3443    1.3852   -0.0000 C   0  0  0  0  0  0  0  0  0  0  0  0
   10.0869   -2.5691   -0.0000 F   0  0  0  0  0  0  0  0  0  0  0  0
    9.5068   -4.6172   -0.0000 F   0  0  0  0  0  0  0  0  0  0  0  0
   11.5668   -5.1855   -0.0000 F   0  0  0  0  0  0  0  0  0  0  0  0
   18.6584    0.6393   -0.0000 C   0  0  0  0  0  0  0  0  0  0  0  0
   17.3324    2.9006   -0.0000 C   0  0  0  0  0  0  0  0  0  0  0  0
   18.6466   -0.8524   -0.0000 O   0  0  0  0  0  0  0  0  0  0  0  0
   19.9489    1.4089   -0.0000 N   0  0  0  0  0  0  0  0  0  0  0  0
   16.5629    4.2384   -0.0000 C   0  0  0  0  0  0  0  0  0  0  0  0
   21.2393    0.6630   -0.0000 C   0  0  0  0  0  0  0  0  0  0  0  0
   17.3087    5.5525   -0.0000 C   0  0  0  0  0  0  0  0  0  0  0  0
   15.0475    4.2502   -0.0000 C   0  0  0  0  0  0  0  0  0  0  0  0
   21.2275   -0.8287   -0.0000 C   0  0  0  0  0  0  0  0  0  0  0  0
   22.5298    1.4325   -0.0000 C   0  0  0  0  0  0  0  0  0  0  0  0
   16.5274    6.8667   -0.0000 N   0  0  0  0  0  0  0  0  0  0  0  0
   14.2898    5.5644   -0.0000 C   0  0  0  0  0  0  0  0  0  0  0  0
   22.5179   -1.5628   -0.0000 C   0  0  0  0  0  0  0  0  0  0  0  0
   19.9133   -1.5628   -0.0000 C   0  0  0  0  0  0  0  0  0  0  0  0
   22.5179    2.9479   -0.0000 O   0  0  0  0  0  0  0  0  0  0  0  0
   23.8202    0.6867   -0.0000 C   0  0  0  0  0  0  0  0  0  0  0  0
   15.0120    6.8785   -0.0000 C   0  0  0  0  0  0  0  0  0  0  0  0
   23.8084   -0.8051   -0.0000 O   0  0  0  0  0  0  0  0  0  0  0  0
   22.5061   -3.0545   -0.0000 C   0  0  0  0  0  0  0  0  0  0  0  0
   19.9015   -3.0545   -0.0000 C   0  0  0  0  0  0  0  0  0  0  0  0
   21.1920   -3.8003   -0.0000 C   0  0  0  0  0  0  0  0  0  0  0  0
  1  2  1  0  0  0  0
  2  3  2  0  0  0  0
  2  4  1  0  0  0  0
  3  5  1  0  0  0  0
  3  6  1  0  0  0  0
  4  7  1  0  0  0  0
  4  8  2  0  0  0  0
  6  9  1  0  0  0  0
  6 10  2  0  0  0  0
  9 11  1  0  0  0  0
  9 12  1  0  0  0  0
 11 13  2  0  0  0  0
 12 14  2  0  0  0  0
 13 15  1  0  0  0  0
 15 16  1  0  0  0  0
 16 17  1  0  0  0  0
 16 18  1  0  0  0  0
 17 19  1  0  0  0  0
 18 20  1  0  0  0  0
 19 21  1  0  0  0  0
 19 22  1  6  0  0  0
 21 23  1  0  0  0  0
 22 24  2  0  0  0  0
 22 25  1  0  0  0  0
 23 26  1  0  0  0  0
 25 27  1  0  0  0  0
 26 28  1  1  0  0  0
 26 29  1  0  0  0  0
 27 30  1  0  0  0  0
 31 29  1  1  0  0  0
 30 32  1  0  0  0  0
 30 33  1  0  0  0  0
 30 34  1  0  0  0  0
 31 35  1  0  0  0  0
 31 36  1  0  0  0  0
 35 37  2  0  0  0  0
 35 38  1  0  0  0  0
 36 39  1  0  0  0  0
 40 38  1  6  0  0  0
 39 41  2  0  0  0  0
 39 42  1  0  0  0  0
 40 43  1  0  0  0  0
 40 44  1  0  0  0  0
 41 45  1  0  0  0  0
 42 46  2  0  0  0  0
 43 47  2  0  0  0  0
 43 48  1  0  0  0  0
 44 49  1  6  0  0  0
 44 50  1  0  0  0  0
 45 51  2  0  0  0  0
 47 52  1  0  0  0  0
 47 53  1  0  0  0  0
 48 54  2  0  0  0  0
 53 55  2  0  0  0  0
  8 10  1  0  0  0  0
 13 14  1  0  0  0  0
 20 21  1  0  0  0  0
 46 51  1  0  0  0  0
 50 52  1  0  0  0  0
 54 55  1  0  0  0  0
M  END
>  <MolRegNo>
214664

>  <m>
=

>  <Value>
50

>  <Unit>
nM

>  <Type>
IC50

>  <pValue>
7.3

>  <Ligand Efficiency>
0

>  <Binding Efficiency>
0

>  <Surface Efficiency>
0

>  <Assay Index>
51818

>  <Assay Category>


>  <Assay Organism>
Homo sapiens

>  <Target ID>
17045

>  <Target Name>
Cytochrome P450 3A4

>  <Target Organism>
Homo sapiens

>  <Target Description>
Target is a single protein chain

>  <Sequence Accession>
P08684

>  <Reference>
Bioorg Med Chem Lett 13 (22), 4027-4030 (2003)

>  <Pubmed ID>
14592500

>  <DOI>
10.1016/j.bmcl.2003.08.049

$$$$
251193
Actelion Java MolfileCreator 1.0

 16 17  0  0  0  0  0  0  0  0999 V2000
    0.0000   -0.0000   -0.0000 O   0  0  0  0  0  0  0  0  0  0  0  0
   -1.3648    0.6236   -0.0000 C   0  0  0  0  0  0  0  0  0  0  0  0
    0.9883    1.1413   -0.0000 C   0  0  0  0  0  0  0  0  0  0  0  0
   -2.6708   -0.1177   -0.0000 C   0  0  0  0  0  0  0  0  0  0  0  0
   -1.2354    2.1178   -0.0000 C   0  0  0  0  0  0  0  0  0  0  0  0
    0.2235    2.4473   -0.0000 N   0  0  0  0  0  0  0  0  0  0  0  0
   -3.9886    0.6353   -0.0000 C   0  0  0  0  0  0  0  0  0  0  0  0
   -2.6943   -1.6001   -0.0000 C   0  0  0  0  0  0  0  0  0  0  0  0
   -5.2945   -0.0941   -0.0000 C   0  0  0  0  0  0  0  0  0  0  0  0
   -4.0003   -2.3296   -0.0000 C   0  0  0  0  0  0  0  0  0  0  0  0
   -5.3063   -1.5648   -0.0000 C   0  0  0  0  0  0  0  0  0  0  0  0
   -6.6123   -2.2943   -0.0000 O   0  0  0  0  0  0  0  0  0  0  0  0
   -7.9183   -1.5413   -0.0000 C   0  0  0  0  0  0  0  0  0  0  0  0
   -9.2243   -2.2708   -0.0000 C   0  0  0  0  0  0  0  0  0  0  0  0
  -10.5303   -1.5178   -0.0000 C   0  0  0  0  0  0  0  0  0  0  0  0
  -11.8363   -2.2472   -0.0000 C   0  0  0  0  0  0  0  0  0  0  0  0
  1  2  1  0  0  0  0
  1  3  1  0  0  0  0
  2  4  1  0  0  0  0
  2  5  2  0  0  0  0
  3  6  2  0  0  0  0
  4  7  2  0  0  0  0
  4  8  1  0  0  0  0
  7  9  1  0  0  0  0
  8 10  2  0  0  0  0
  9 11  2  0  0  0  0
 11 12  1  0  0  0  0
 12 13  1  0  0  0  0
 13 14  1  0  0  0  0
 14 15  1  0  0  0  0
 15 16  1  0  0  0  0
  5  6  1  0  0  0  0
 10 11  1  0  0  0  0
M  END
>  <MolRegNo>
251193

>  <m>
=

>  <Value>
58100

>  <Unit>
nM

>  <Type>
IC50

>  <pValue>
4.24

>  <Ligand Efficiency>
0

>  <Binding Efficiency>
0

>  <Surface Efficiency>
0

>  <Assay Index>
51813

>  <Assay Category>


>  <Assay Organism>


>  <Target ID>
17045

>  <Target Name>
Cytochrome P450 3A4

>  <Target Organism>
Homo sapiens

>  <Target Description>
Target is a single protein chain

>  <Sequence Accession>
P08684

>  <Reference>
J Med Chem 46 (25), 5416-5427 (2003)

>  <Pubmed ID>
14640550

>  <DOI>
10.1021/jm020557k

$$$$
214798
Actelion Java MolfileCreator 1.0

 53 58  0  0  1  0  0  0  0  0999 V2000
    0.0000   -0.0000   -0.0000 Cl  0  0  0  0  0  0  0  0  0  0  0  0
    1.0530    1.0649   -0.0000 C   0  0  0  0  0  0  0  0  0  0  0  0
    0.5916    2.5084   -0.0000 C   0  0  0  0  0  0  0  0  0  0  0  0
    2.4966    0.7336   -0.0000 C   0  0  0  0  0  0  0  0  0  0  0  0
    1.6092    3.6088   -0.0000 C   0  0  0  0  0  0  0  0  0  0  0  0
    3.5141    1.8576   -0.0000 C   0  0  0  0  0  0  0  0  0  0  0  0
    3.0527    3.3011   -0.0000 C   0  0  0  0  0  0  0  0  0  0  0  0
    4.0702    4.4015   -0.0000 N   0  0  0  0  0  0  0  0  0  0  0  0
    5.5374    4.2595   -0.0000 C   0  0  0  0  0  0  0  0  0  0  0  0
    3.7626    5.8923   -0.0000 C   0  0  0  0  0  0  0  0  0  0  0  0
    6.1408    5.6202   -0.0000 C   0  0  0  0  0  0  0  0  0  0  0  0
    5.0523    6.6378   -0.0000 C   0  0  0  0  0  0  0  0  0  0  0  0
    7.4305    6.3775   -0.0000 C   0  0  0  0  0  0  0  0  0  0  0  0
    8.7439    5.6320   -0.0000 N   0  0  0  0  0  0  0  0  0  0  0  0
    8.7320    4.1412   -0.0000 C   0  0  0  0  0  0  0  0  0  0  0  0
   10.0336    6.3893   -0.0000 C   0  0  0  0  0  0  0  0  0  0  0  0
   10.0217    3.3958   -0.0000 C   0  0  0  0  0  0  0  0  0  0  0  0
   11.3232    5.6439   -0.0000 C   0  0  0  0  0  0  0  0  0  0  0  0
   11.3114    4.1649   -0.0000 N   0  0  0  0  0  0  0  0  0  0  0  0
   10.0099    1.9050   -0.0000 C   0  0  0  0  0  0  0  0  0  0  0  0
   12.6011    3.4195   -0.0000 C   0  0  0  0  0  0  0  0  0  0  0  0
    8.6965    1.1714   -0.0000 O   0  0  0  0  0  0  0  0  0  0  0  0
   11.2996    1.1714   -0.0000 N   0  0  0  0  0  0  0  0  0  0  0  0
   13.8908    4.1885   -0.0000 C   0  0  0  0  0  0  0  0  0  0  0  0
   11.2877   -0.3195   -0.0000 C   0  0  0  0  0  0  0  0  0  0  0  0
   13.8790    5.7030   -0.0000 O   0  0  0  0  0  0  0  0  0  0  0  0
   15.1805    3.4431   -0.0000 C   0  0  0  0  0  0  0  0  0  0  0  0
    9.9744   -1.0649   -0.0000 C   0  0  0  0  0  0  0  0  0  0  0  0
   16.4702    4.2122   -0.0000 C   0  0  0  0  0  0  0  0  0  0  0  0
    8.6374   -1.7866   -0.0000 F   0  0  0  0  0  0  0  0  0  0  0  0
   10.6961   -2.3546   -0.0000 F   0  0  0  0  0  0  0  0  0  0  0  0
    9.2171    0.2603   -0.0000 F   0  0  0  0  0  0  0  0  0  0  0  0
   17.7835    3.4668   -0.0000 C   0  0  0  0  0  0  0  0  0  0  0  0
   16.4583    5.7267   -0.0000 C   0  0  0  0  0  0  0  0  0  0  0  0
   17.7717    1.9759   -0.0000 O   0  0  0  0  0  0  0  0  0  0  0  0
   19.0732    4.2359   -0.0000 N   0  0  0  0  0  0  0  0  0  0  0  0
   15.6893    7.0637   -0.0000 C   0  0  0  0  0  0  0  0  0  0  0  0
   20.3629    3.4904   -0.0000 C   0  0  0  0  0  0  0  0  0  0  0  0
   16.4347    8.3771   -0.0000 C   0  0  0  0  0  0  0  0  0  0  0  0
   14.1748    7.0755   -0.0000 C   0  0  0  0  0  0  0  0  0  0  0  0
   20.3511    1.9996   -0.0000 C   0  0  0  0  0  0  0  0  0  0  0  0
   21.6526    4.2595   -0.0000 C   0  0  0  0  0  0  0  0  0  0  0  0
   15.6538    9.6904   -0.0000 N   0  0  0  0  0  0  0  0  0  0  0  0
   13.4175    8.3889   -0.0000 C   0  0  0  0  0  0  0  0  0  0  0  0
   21.6408    1.2660   -0.0000 C   0  0  0  0  0  0  0  0  0  0  0  0
   19.0377    1.2660   -0.0000 C   0  0  0  0  0  0  0  0  0  0  0  0
   21.6408    5.7740   -0.0000 O   0  0  0  0  0  0  0  0  0  0  0  0
   22.9423    3.5141   -0.0000 C   0  0  0  0  0  0  0  0  0  0  0  0
   14.1393    9.7023   -0.0000 C   0  0  0  0  0  0  0  0  0  0  0  0
   22.9305    2.0233   -0.0000 O   0  0  0  0  0  0  0  0  0  0  0  0
   21.6289   -0.2248   -0.0000 C   0  0  0  0  0  0  0  0  0  0  0  0
   19.0259   -0.2248   -0.0000 C   0  0  0  0  0  0  0  0  0  0  0  0
   20.3156   -0.9702   -0.0000 C   0  0  0  0  0  0  0  0  0  0  0  0
  1  2  1  0  0  0  0
  2  3  2  0  0  0  0
  2  4  1  0  0  0  0
  3  5  1  0  0  0  0
  4  6  2  0  0  0  0
  5  7  2  0  0  0  0
  7  8  1  0  0  0  0
  8  9  1  0  0  0  0
  8 10  1  0  0  0  0
  9 11  2  0  0  0  0
 10 12  2  0  0  0  0
 11 13  1  0  0  0  0
 13 14  1  0  0  0  0
 14 15  1  0  0  0  0
 14 16  1  0  0  0  0
 15 17  1  0  0  0  0
 16 18  1  0  0  0  0
 17 19  1  0  0  0  0
 17 20  1  6  0  0  0
 19 21  1  0  0  0  0
 20 22  2  0  0  0  0
 20 23  1  0  0  0  0
 21 24  1  0  0  0  0
 23 25  1  0  0  0  0
 24 26  1  1  0  0  0
 24 27  1  0  0  0  0
 25 28  1  0  0  0  0
 29 27  1  1  0  0  0
 28 30  1  0  0  0  0
 28 31  1  0  0  0  0
 28 32  1  0  0  0  0
 29 33  1  0  0  0  0
 29 34  1  0  0  0  0
 33 35  2  0  0  0  0
 33 36  1  0  0  0  0
 34 37  1  0  0  0  0
 38 36  1  6  0  0  0
 37 39  2  0  0  0  0
 37 40  1  0  0  0  0
 38 41  1  0  0  0  0
 38 42  1  0  0  0  0
 39 43  1  0  0  0  0
 40 44  2  0  0  0  0
 41 45  2  0  0  0  0
 41 46  1  0  0  0  0
 42 47  1  6  0  0  0
 42 48  1  0  0  0  0
 43 49  2  0  0  0  0
 45 50  1  0  0  0  0
 45 51  1  0  0  0  0
 46 52  2  0  0  0  0
 51 53  2  0  0  0  0
  6  7  1  0  0  0  0
 11 12  1  0  0  0  0
 18 19  1  0  0  0  0
 44 49  1  0  0  0  0
 48 50  1  0  0  0  0
 52 53  1  0  0  0  0
M  END
>  <MolRegNo>
214798

>  <m>
=

>  <Value>
50

>  <Unit>
nM

>  <Type>
IC50

>  <pValue>
7.3

>  <Ligand Efficiency>
0

>  <Binding Efficiency>
0

>  <Surface Efficiency>
0

>  <Assay Index>
51818

>  <Assay Category>


>  <Assay Organism>
Homo sapiens

>  <Target ID>
17045

>  <Target Name>
Cytochrome P450 3A4

>  <Target Organism>
Homo sapiens

>  <Target Description>
Target is a single protein chain

>  <Sequence Accession>
P08684

>  <Reference>
Bioorg Med Chem Lett 13 (22), 4027-4030 (2003)

>  <Pubmed ID>
14592500

>  <DOI>
10.1016/j.bmcl.2003.08.049

$$$$
251875
Actelion Java MolfileCreator 1.0

 16 17  0  0  0  0  0  0  0  0999 V2000
    0.0000   -0.0000   -0.0000 O   0  0  0  0  0  0  0  0  0  0  0  0
    1.2879    0.7562   -0.0000 C   0  0  0  0  0  0  0  0  0  0  0  0
   -1.3115    0.7562   -0.0000 C   0  0  0  0  0  0  0  0  0  0  0  0
    1.2642    2.2685   -0.0000 C   0  0  0  0  0  0  0  0  0  0  0  0
    2.5757    0.0236   -0.0000 C   0  0  0  0  0  0  0  0  0  0  0  0
   -2.6230    0.0236   -0.0000 C   0  0  0  0  0  0  0  0  0  0  0  0
    2.5521    3.0247   -0.0000 C   0  0  0  0  0  0  0  0  0  0  0  0
    3.8636    0.7798   -0.0000 C   0  0  0  0  0  0  0  0  0  0  0  0
   -3.9463    0.7798   -0.0000 C   0  0  0  0  0  0  0  0  0  0  0  0
    3.8399    2.2922   -0.0000 C   0  0  0  0  0  0  0  0  0  0  0  0
   -5.2578    0.0473   -0.0000 C   0  0  0  0  0  0  0  0  0  0  0  0
    5.1278    3.0483   -0.0000 C   0  0  0  0  0  0  0  0  0  0  0  0
    5.2696    4.5607   -0.0000 N   0  0  0  0  0  0  0  0  0  0  0  0
    6.4747    2.4458   -0.0000 C   0  0  0  0  0  0  0  0  0  0  0  0
    6.7110    4.8797   -0.0000 N   0  0  0  0  0  0  0  0  0  0  0  0
    7.4790    3.5800   -0.0000 C   0  0  0  0  0  0  0  0  0  0  0  0
  1  2  1  0  0  0  0
  1  3  1  0  0  0  0
  2  4  2  0  0  0  0
  2  5  1  0  0  0  0
  3  6  1  0  0  0  0
  4  7  1  0  0  0  0
  5  8  2  0  0  0  0
  6  9  1  0  0  0  0
  7 10  2  0  0  0  0
  9 11  1  0  0  0  0
 10 12  1  0  0  0  0
 12 13  2  0  0  0  0
 12 14  1  0  0  0  0
 13 15  1  0  0  0  0
 14 16  2  0  0  0  0
  8 10  1  0  0  0  0
 15 16  1  0  0  0  0
M  END
>  <MolRegNo>
251875

>  <m>
=

>  <Value>
70600

>  <Unit>
nM

>  <Type>
IC50

>  <pValue>
4.15

>  <Ligand Efficiency>
0

>  <Binding Efficiency>
0

>  <Surface Efficiency>
0

>  <Assay Index>
51813

>  <Assay Category>


>  <Assay Organism>


>  <Target ID>
17045

>  <Target Name>
Cytochrome P450 3A4

>  <Target Organism>
Homo sapiens

>  <Target Description>
Target is a single protein chain

>  <Sequence Accession>
P08684

>  <Reference>
J Med Chem 46 (25), 5416-5427 (2003)

>  <Pubmed ID>
14640550

>  <DOI>
10.1021/jm020557k

$$$$
251508
Actelion Java MolfileCreator 1.0

 17 18  0  0  0  0  0  0  0  0999 V2000
    0.0000   -0.0000   -0.0000 O   0  0  0  0  0  0  0  0  0  0  0  0
    1.2867    0.7603   -0.0000 C   0  0  0  0  0  0  0  0  0  0  0  0
   -1.3101    0.7603   -0.0000 C   0  0  0  0  0  0  0  0  0  0  0  0
    1.2750    2.2576   -0.0000 C   0  0  0  0  0  0  0  0  0  0  0  0
    2.5735    0.0117   -0.0000 C   0  0  0  0  0  0  0  0  0  0  0  0
   -2.6203    0.0234   -0.0000 C   0  0  0  0  0  0  0  0  0  0  0  0
    2.5618    3.0180   -0.0000 C   0  0  0  0  0  0  0  0  0  0  0  0
    3.8602    0.7720   -0.0000 C   0  0  0  0  0  0  0  0  0  0  0  0
   -3.9304    0.7837   -0.0000 C   0  0  0  0  0  0  0  0  0  0  0  0
    3.8602    2.2810   -0.0000 C   0  0  0  0  0  0  0  0  0  0  0  0
   -5.2522    0.0468   -0.0000 C   0  0  0  0  0  0  0  0  0  0  0  0
    5.1469    3.0531   -0.0000 N   0  0  0  0  0  0  0  0  0  0  0  0
    6.5038    2.4565   -0.0000 C   0  0  0  0  0  0  0  0  0  0  0  0
    5.2756    4.5504   -0.0000 C   0  0  0  0  0  0  0  0  0  0  0  0
    7.4981    3.5795   -0.0000 C   0  0  0  0  0  0  0  0  0  0  0  0
    6.8080    0.9943   -0.0000 C   0  0  0  0  0  0  0  0  0  0  0  0
    6.7378    4.8779   -0.0000 N   0  0  0  0  0  0  0  0  0  0  0  0
  1  2  1  0  0  0  0
  1  3  1  0  0  0  0
  2  4  2  0  0  0  0
  2  5  1  0  0  0  0
  3  6  1  0  0  0  0
  4  7  1  0  0  0  0
  5  8  2  0  0  0  0
  6  9  1  0  0  0  0
  7 10  2  0  0  0  0
  9 11  1  0  0  0  0
 10 12  1  0  0  0  0
 12 13  1  0  0  0  0
 12 14  1  0  0  0  0
 13 15  2  0  0  0  0
 13 16  1  0  0  0  0
 14 17  2  0  0  0  0
  8 10  1  0  0  0  0
 15 17  1  0  0  0  0
M  END
>  <MolRegNo>
251508

>  <m>
=

>  <Value>
116

>  <Unit>
nM

>  <Type>
IC50

>  <pValue>
6.94

>  <Ligand Efficiency>
0

>  <Binding Efficiency>
0

>  <Surface Efficiency>
0

>  <Assay Index>
51813

>  <Assay Category>


>  <Assay Organism>


>  <Target ID>
17045

>  <Target Name>
Cytochrome P450 3A4

>  <Target Organism>
Homo sapiens

>  <Target Description>
Target is a single protein chain

>  <Sequence Accession>
P08684

>  <Reference>
J Med Chem 46 (25), 5416-5427 (2003)

>  <Pubmed ID>
14640550

>  <DOI>
10.1021/jm020557k

$$$$
186431
Actelion Java MolfileCreator 1.0

 15 15  0  0  0  0  0  0  0  0999 V2000
    0.0000   -0.0000   -0.0000 O   0  0  0  0  0  0  0  0  0  0  0  0
   -1.3065    0.7533   -0.0000 N   0  0  0  0  0  0  0  0  0  0  0  0
   -2.6129    0.0235   -0.0000 C   0  0  0  0  0  0  0  0  0  0  0  0
   -3.9312    0.7651   -0.0000 N   0  0  0  0  0  0  0  0  0  0  0  0
   -5.2377    0.0235   -0.0000 C   0  0  0  0  0  0  0  0  0  0  0  0
   -5.2494   -1.4595   -0.0000 C   0  0  0  0  0  0  0  0  0  0  0  0
   -6.5441    0.7768   -0.0000 C   0  0  0  0  0  0  0  0  0  0  0  0
   -6.5559   -2.1892   -0.0000 C   0  0  0  0  0  0  0  0  0  0  0  0
   -3.9547   -2.1892   -0.0000 C   0  0  0  0  0  0  0  0  0  0  0  0
   -7.8506    0.0471   -0.0000 C   0  0  0  0  0  0  0  0  0  0  0  0
   -7.8624   -1.4359   -0.0000 C   0  0  0  0  0  0  0  0  0  0  0  0
   -9.1688   -2.1657   -0.0000 C   0  0  0  0  0  0  0  0  0  0  0  0
  -10.4753   -1.4124   -0.0000 C   0  0  0  0  0  0  0  0  0  0  0  0
  -11.7935   -2.1421   -0.0000 C   0  0  0  0  0  0  0  0  0  0  0  0
  -13.1000   -1.3889   -0.0000 C   0  0  0  0  0  0  0  0  0  0  0  0
  1  2  1  0  0  0  0
  2  3  1  0  0  0  0
  3  4  2  0  0  0  0
  4  5  1  0  0  0  0
  5  6  2  0  0  0  0
  5  7  1  0  0  0  0
  6  8  1  0  0  0  0
  6  9  1  0  0  0  0
  7 10  2  0  0  0  0
  8 11  2  0  0  0  0
 11 12  1  0  0  0  0
 12 13  1  0  0  0  0
 13 14  1  0  0  0  0
 14 15  1  0  0  0  0
 10 11  1  0  0  0  0
M  END
>  <MolRegNo>
186431

>  <m>
=

>  <Value>
65400

>  <Unit>
nM

>  <Type>
IC50

>  <pValue>
4.18

>  <Ligand Efficiency>
0

>  <Binding Efficiency>
0

>  <Surface Efficiency>
0

>  <Assay Index>
51813

>  <Assay Category>


>  <Assay Organism>


>  <Target ID>
17045

>  <Target Name>
Cytochrome P450 3A4

>  <Target Organism>
Homo sapiens

>  <Target Description>
Target is a single protein chain

>  <Sequence Accession>
P08684

>  <Reference>
J Med Chem 46 (25), 5416-5427 (2003)

>  <Pubmed ID>
14640550

>  <DOI>
10.1021/jm020557k

$$$$
184691
Actelion Java MolfileCreator 1.0

 52 57  0  0  1  0  0  0  0  0999 V2000
    0.0000   -0.0000   -0.0000 F   0  0  0  0  0  0  0  0  0  0  0  0
    0.2336    1.5736   -0.0000 C   0  0  0  0  0  0  0  0  0  0  0  0
   -0.9589    0.8851   -0.0000 F   0  0  0  0  0  0  0  0  0  0  0  0
   -1.2293    2.1268   -0.0000 F   0  0  0  0  0  0  0  0  0  0  0  0
    1.5367    2.3357   -0.0000 C   0  0  0  0  0  0  0  0  0  0  0  0
    1.5244    3.8478   -0.0000 N   0  0  0  0  0  0  0  0  0  0  0  0
    0.1967    4.6100   -0.0000 C   0  0  0  0  0  0  0  0  0  0  0  0
   -1.1064    3.8724   -0.0000 O   0  0  0  0  0  0  0  0  0  0  0  0
    0.1844    6.1221   -0.0000 C   0  0  0  0  0  0  0  0  0  0  0  0
    1.4629    6.8720   -0.0000 N   0  0  0  0  0  0  0  0  0  0  0  0
   -1.1064    6.8720   -0.0000 C   0  0  0  0  0  0  0  0  0  0  0  0
    1.4506    8.3841   -0.0000 C   0  0  0  0  0  0  0  0  0  0  0  0
    2.7660    6.1467   -0.0000 C   0  0  0  0  0  0  0  0  0  0  0  0
   -1.1187    8.3841   -0.0000 N   0  0  0  0  0  0  0  0  0  0  0  0
    0.1475    9.1586   -0.0000 C   0  0  0  0  0  0  0  0  0  0  0  0
    4.0445    6.8966   -0.0000 C   0  0  0  0  0  0  0  0  0  0  0  0
   -2.4464    9.1463   -0.0000 C   0  0  0  0  0  0  0  0  0  0  0  0
    4.0322    8.4087   -0.0000 O   0  0  0  0  0  0  0  0  0  0  0  0
    5.3231    6.1713   -0.0000 C   0  0  0  0  0  0  0  0  0  0  0  0
   -3.7495    8.3964   -0.0000 C   0  0  0  0  0  0  0  0  0  0  0  0
    6.6016    6.9212   -0.0000 C   0  0  0  0  0  0  0  0  0  0  0  0
   -3.9216    6.9335   -0.0000 O   0  0  0  0  0  0  0  0  0  0  0  0
   -5.1264    9.0234   -0.0000 C   0  0  0  0  0  0  0  0  0  0  0  0
    7.8801    6.1713   -0.0000 C   0  0  0  0  0  0  0  0  0  0  0  0
    6.5893    8.4333   -0.0000 C   0  0  0  0  0  0  0  0  0  0  0  0
   -5.3845    6.6262   -0.0000 C   0  0  0  0  0  0  0  0  0  0  0  0
   -6.1590    7.9170   -0.0000 C   0  0  0  0  0  0  0  0  0  0  0  0
    7.8678    4.6838   -0.0000 O   0  0  0  0  0  0  0  0  0  0  0  0
    9.1586    6.9335   -0.0000 N   0  0  0  0  0  0  0  0  0  0  0  0
    5.5075    9.5151   -0.0000 C   0  0  0  0  0  0  0  0  0  0  0  0
   -6.0115    5.2739   -0.0000 C   0  0  0  0  0  0  0  0  0  0  0  0
   10.4371    6.1959   -0.0000 C   0  0  0  0  0  0  0  0  0  0  0  0
    5.8763   11.0026   -0.0000 C   0  0  0  0  0  0  0  0  0  0  0  0
    4.0445    9.1463   -0.0000 C   0  0  0  0  0  0  0  0  0  0  0  0
   -5.1386    4.0814   -0.0000 C   0  0  0  0  0  0  0  0  0  0  0  0
   -7.5236    5.1264   -0.0000 C   0  0  0  0  0  0  0  0  0  0  0  0
   10.4248    4.7084   -0.0000 C   0  0  0  0  0  0  0  0  0  0  0  0
   11.7156    6.9581   -0.0000 C   0  0  0  0  0  0  0  0  0  0  0  0
    4.7944   12.0844   -0.0000 N   0  0  0  0  0  0  0  0  0  0  0  0
    2.9381   10.2281   -0.0000 C   0  0  0  0  0  0  0  0  0  0  0  0
   -5.7410    2.7168   -0.0000 C   0  0  0  0  0  0  0  0  0  0  0  0
   -8.1260    3.7618   -0.0000 C   0  0  0  0  0  0  0  0  0  0  0  0
   11.7033    3.9708   -0.0000 C   0  0  0  0  0  0  0  0  0  0  0  0
    9.1217    3.9954   -0.0000 C   0  0  0  0  0  0  0  0  0  0  0  0
   11.7033    8.4702   -0.0000 O   0  0  0  0  0  0  0  0  0  0  0  0
   12.9941    6.2082   -0.0000 C   0  0  0  0  0  0  0  0  0  0  0  0
    3.3315   11.7279   -0.0000 C   0  0  0  0  0  0  0  0  0  0  0  0
   -7.2531    2.5570   -0.0000 C   0  0  0  0  0  0  0  0  0  0  0  0
   12.9819    4.7207   -0.0000 O   0  0  0  0  0  0  0  0  0  0  0  0
   11.6665    2.5079   -0.0000 C   0  0  0  0  0  0  0  0  0  0  0  0
    9.1094    2.5079   -0.0000 C   0  0  0  0  0  0  0  0  0  0  0  0
   10.3756    1.7703   -0.0000 C   0  0  0  0  0  0  0  0  0  0  0  0
  1  2  1  0  0  0  0
  2  3  1  0  0  0  0
  2  4  1  0  0  0  0
  2  5  1  0  0  0  0
  5  6  1  0  0  0  0
  6  7  1  0  0  0  0
  7  8  2  0  0  0  0
  9  7  1  6  0  0  0
  9 10  1  0  0  0  0
  9 11  1  0  0  0  0
 10 12  1  0  0  0  0
 10 13  1  0  0  0  0
 11 14  1  0  0  0  0
 12 15  1  0  0  0  0
 13 16  1  0  0  0  0
 14 17  1  0  0  0  0
 16 18  1  1  0  0  0
 16 19  1  0  0  0  0
 17 20  1  0  0  0  0
 21 19  1  1  0  0  0
 20 22  1  0  0  0  0
 20 23  2  0  0  0  0
 21 24  1  0  0  0  0
 21 25  1  0  0  0  0
 22 26  1  0  0  0  0
 23 27  1  0  0  0  0
 24 28  2  0  0  0  0
 24 29  1  0  0  0  0
 25 30  1  0  0  0  0
 26 31  1  0  0  0  0
 32 29  1  6  0  0  0
 30 33  2  0  0  0  0
 30 34  1  0  0  0  0
 31 35  2  0  0  0  0
 31 36  1  0  0  0  0
 32 37  1  0  0  0  0
 32 38  1  0  0  0  0
 33 39  1  0  0  0  0
 34 40  2  0  0  0  0
 35 41  1  0  0  0  0
 36 42  2  0  0  0  0
 37 43  2  0  0  0  0
 37 44  1  0  0  0  0
 38 45  1  6  0  0  0
 38 46  1  0  0  0  0
 39 47  2  0  0  0  0
 41 48  2  0  0  0  0
 43 49  1  0  0  0  0
 43 50  1  0  0  0  0
 44 51  2  0  0  0  0
 50 52  2  0  0  0  0
 14 15  1  0  0  0  0
 26 27  2  0  0  0  0
 40 47  1  0  0  0  0
 42 48  1  0  0  0  0
 46 49  1  0  0  0  0
 51 52  1  0  0  0  0
M  END
>  <MolRegNo>
184691

>  <m>
=

>  <Value>
430

>  <Unit>
nM

>  <Type>
IC50

>  <pValue>
6.37

>  <Ligand Efficiency>
0

>  <Binding Efficiency>
0

>  <Surface Efficiency>
0

>  <Assay Index>
51818

>  <Assay Category>


>  <Assay Organism>
Homo sapiens

>  <Target ID>
17045

>  <Target Name>
Cytochrome P450 3A4

>  <Target Organism>
Homo sapiens

>  <Target Description>
Target is a single protein chain

>  <Sequence Accession>
P08684

>  <Reference>
Bioorg Med Chem Lett 13 (22), 4027-4030 (2003)

>  <Pubmed ID>
14592500

>  <DOI>
10.1016/j.bmcl.2003.08.049

$$$$
251251
Actelion Java MolfileCreator 1.0

 16 17  0  0  0  0  0  0  0  0999 V2000
    0.0000   -0.0000   -0.0000 O   0  0  0  0  0  0  0  0  0  0  0  0
    1.3059    0.7647   -0.0000 C   0  0  0  0  0  0  0  0  0  0  0  0
   -1.3059    0.7647   -0.0000 C   0  0  0  0  0  0  0  0  0  0  0  0
    1.2823    2.2706   -0.0000 C   0  0  0  0  0  0  0  0  0  0  0  0
    2.5882    0.0235   -0.0000 C   0  0  0  0  0  0  0  0  0  0  0  0
   -2.6117    0.0235   -0.0000 C   0  0  0  0  0  0  0  0  0  0  0  0
    2.5647    3.0353   -0.0000 C   0  0  0  0  0  0  0  0  0  0  0  0
    3.8706    0.7882   -0.0000 C   0  0  0  0  0  0  0  0  0  0  0  0
   -3.9176    0.7882   -0.0000 C   0  0  0  0  0  0  0  0  0  0  0  0
    3.8706    2.2941   -0.0000 C   0  0  0  0  0  0  0  0  0  0  0  0
   -5.2235    0.0471   -0.0000 C   0  0  0  0  0  0  0  0  0  0  0  0
    5.1529    3.0588   -0.0000 C   0  0  0  0  0  0  0  0  0  0  0  0
    6.5058    2.4588   -0.0000 N   0  0  0  0  0  0  0  0  0  0  0  0
    5.2941    4.5647   -0.0000 C   0  0  0  0  0  0  0  0  0  0  0  0
    7.4940    3.6000   -0.0000 C   0  0  0  0  0  0  0  0  0  0  0  0
    6.7411    4.8941   -0.0000 N   0  0  0  0  0  0  0  0  0  0  0  0
  1  2  1  0  0  0  0
  1  3  1  0  0  0  0
  2  4  2  0  0  0  0
  2  5  1  0  0  0  0
  3  6  1  0  0  0  0
  4  7  1  0  0  0  0
  5  8  2  0  0  0  0
  6  9  1  0  0  0  0
  7 10  2  0  0  0  0
  9 11  1  0  0  0  0
 10 12  1  0  0  0  0
 12 13  1  0  0  0  0
 12 14  2  0  0  0  0
 13 15  2  0  0  0  0
 14 16  1  0  0  0  0
  8 10  1  0  0  0  0
 15 16  1  0  0  0  0
M  END
>  <MolRegNo>
251251

>  <m>
=

>  <Value>
883

>  <Unit>
nM

>  <Type>
IC50

>  <pValue>
6.05

>  <Ligand Efficiency>
0

>  <Binding Efficiency>
0

>  <Surface Efficiency>
0

>  <Assay Index>
51813

>  <Assay Category>


>  <Assay Organism>


>  <Target ID>
17045

>  <Target Name>
Cytochrome P450 3A4

>  <Target Organism>
Homo sapiens

>  <Target Description>
Target is a single protein chain

>  <Sequence Accession>
P08684

>  <Reference>
J Med Chem 46 (25), 5416-5427 (2003)

>  <Pubmed ID>
14640550

>  <DOI>
10.1021/jm020557k

$$$$
251215
Actelion Java MolfileCreator 1.0

 16 17  0  0  0  0  0  0  0  0999 V2000
    0.0000   -0.0000   -0.0000 O   0  0  0  0  0  0  0  0  0  0  0  0
    1.2882    0.7564   -0.0000 C   0  0  0  0  0  0  0  0  0  0  0  0
   -1.3118    0.7564   -0.0000 C   0  0  0  0  0  0  0  0  0  0  0  0
    1.2645    2.2691   -0.0000 C   0  0  0  0  0  0  0  0  0  0  0  0
    2.5763    0.0236   -0.0000 C   0  0  0  0  0  0  0  0  0  0  0  0
   -2.6236    0.0236   -0.0000 C   0  0  0  0  0  0  0  0  0  0  0  0
    2.5527    3.0254   -0.0000 C   0  0  0  0  0  0  0  0  0  0  0  0
    3.8645    0.7800   -0.0000 C   0  0  0  0  0  0  0  0  0  0  0  0
   -3.9472    0.7800   -0.0000 C   0  0  0  0  0  0  0  0  0  0  0  0
    3.8408    2.2809   -0.0000 C   0  0  0  0  0  0  0  0  0  0  0  0
   -5.2590    0.0473   -0.0000 C   0  0  0  0  0  0  0  0  0  0  0  0
    5.1290    3.0372   -0.0000 C   0  0  0  0  0  0  0  0  0  0  0  0
    5.2708    4.5499   -0.0000 N   0  0  0  0  0  0  0  0  0  0  0  0
    6.4763    2.4345   -0.0000 N   0  0  0  0  0  0  0  0  0  0  0  0
    6.7126    4.8690   -0.0000 C   0  0  0  0  0  0  0  0  0  0  0  0
    7.4808    3.5690   -0.0000 C   0  0  0  0  0  0  0  0  0  0  0  0
  1  2  1  0  0  0  0
  1  3  1  0  0  0  0
  2  4  2  0  0  0  0
  2  5  1  0  0  0  0
  3  6  1  0  0  0  0
  4  7  1  0  0  0  0
  5  8  2  0  0  0  0
  6  9  1  0  0  0  0
  7 10  2  0  0  0  0
  9 11  1  0  0  0  0
 10 12  1  0  0  0  0
 12 13  2  0  0  0  0
 12 14  1  0  0  0  0
 13 15  1  0  0  0  0
 14 16  1  0  0  0  0
  8 10  1  0  0  0  0
 15 16  2  0  0  0  0
M  END
>  <MolRegNo>
251215

>  <m>
=

>  <Value>
44300

>  <Unit>
nM

>  <Type>
IC50

>  <pValue>
4.35

>  <Ligand Efficiency>
0

>  <Binding Efficiency>
0

>  <Surface Efficiency>
0

>  <Assay Index>
51813

>  <Assay Category>


>  <Assay Organism>


>  <Target ID>
17045

>  <Target Name>
Cytochrome P450 3A4

>  <Target Organism>
Homo sapiens

>  <Target Description>
Target is a single protein chain

>  <Sequence Accession>
P08684

>  <Reference>
J Med Chem 46 (25), 5416-5427 (2003)

>  <Pubmed ID>
14640550

>  <DOI>
10.1021/jm020557k

$$$$
251080
Actelion Java MolfileCreator 1.0

 17 18  0  0  0  0  0  0  0  0999 V2000
    0.0000   -0.0000   -0.0000 O   0  0  0  0  0  0  0  0  0  0  0  0
    1.2827    0.7649   -0.0000 C   0  0  0  0  0  0  0  0  0  0  0  0
   -1.3063    0.7649   -0.0000 C   0  0  0  0  0  0  0  0  0  0  0  0
    1.2710    2.2595   -0.0000 C   0  0  0  0  0  0  0  0  0  0  0  0
    2.5655    0.0118   -0.0000 C   0  0  0  0  0  0  0  0  0  0  0  0
   -2.6125    0.0235   -0.0000 C   0  0  0  0  0  0  0  0  0  0  0  0
    2.5537    3.0244   -0.0000 C   0  0  0  0  0  0  0  0  0  0  0  0
    3.8482    0.7767   -0.0000 C   0  0  0  0  0  0  0  0  0  0  0  0
   -3.9306    0.7885   -0.0000 C   0  0  0  0  0  0  0  0  0  0  0  0
    3.8600    2.2830   -0.0000 C   0  0  0  0  0  0  0  0  0  0  0  0
   -5.2604    0.0471   -0.0000 C   0  0  0  0  0  0  0  0  0  0  0  0
    5.1427    3.0597   -0.0000 N   0  0  0  0  0  0  0  0  0  0  0  0
    5.2722    4.5543   -0.0000 C   0  0  0  0  0  0  0  0  0  0  0  0
    6.4961    2.4596   -0.0000 C   0  0  0  0  0  0  0  0  0  0  0  0
    6.7314    4.8721   -0.0000 N   0  0  0  0  0  0  0  0  0  0  0  0
    7.4964    3.5893   -0.0000 C   0  0  0  0  0  0  0  0  0  0  0  0
    8.9792    3.4363   -0.0000 C   0  0  0  0  0  0  0  0  0  0  0  0
  1  2  1  0  0  0  0
  1  3  1  0  0  0  0
  2  4  2  0  0  0  0
  2  5  1  0  0  0  0
  3  6  1  0  0  0  0
  4  7  1  0  0  0  0
  5  8  2  0  0  0  0
  6  9  1  0  0  0  0
  7 10  2  0  0  0  0
  9 11  1  0  0  0  0
 10 12  1  0  0  0  0
 12 13  1  0  0  0  0
 12 14  1  0  0  0  0
 13 15  2  0  0  0  0
 14 16  2  0  0  0  0
 16 17  1  0  0  0  0
  8 10  1  0  0  0  0
 15 16  1  0  0  0  0
M  END
>  <MolRegNo>
251080

>  <m>
=

>  <Value>
9170

>  <Unit>
nM

>  <Type>
IC50

>  <pValue>
5.04

>  <Ligand Efficiency>
0

>  <Binding Efficiency>
0

>  <Surface Efficiency>
0

>  <Assay Index>
51813

>  <Assay Category>


>  <Assay Organism>


>  <Target ID>
17045

>  <Target Name>
Cytochrome P450 3A4

>  <Target Organism>
Homo sapiens

>  <Target Description>
Target is a single protein chain

>  <Sequence Accession>
P08684

>  <Reference>
J Med Chem 46 (25), 5416-5427 (2003)

>  <Pubmed ID>
14640550

>  <DOI>
10.1021/jm020557k

$$$$
88100
Actelion Java MolfileCreator 1.0

 50 53  0  0  1  0  0  0  0  0999 V2000
    0.0000   -0.0000   -0.0000 S   0  0  0  0  0  0  0  0  0  0  0  0
    1.2150    0.8555   -0.0000 C   0  0  0  0  0  0  0  0  0  0  0  0
   -1.2274    0.9051   -0.0000 C   0  0  0  0  0  0  0  0  0  0  0  0
    0.7191    2.3308   -0.0000 C   0  0  0  0  0  0  0  0  0  0  0  0
    2.5292    0.1240   -0.0000 C   0  0  0  0  0  0  0  0  0  0  0  0
   -0.7315    2.3308   -0.0000 N   0  0  0  0  0  0  0  0  0  0  0  0
    3.8062    0.8307   -0.0000 O   0  0  0  0  0  0  0  0  0  0  0  0
    5.1328    0.1116   -0.0000 C   0  0  0  0  0  0  0  0  0  0  0  0
    5.1204   -1.3390   -0.0000 O   0  0  0  0  0  0  0  0  0  0  0  0
    6.4346    0.8555   -0.0000 N   0  0  0  0  0  0  0  0  0  0  0  0
    7.7984    0.0744   -0.0000 C   0  0  0  0  0  0  0  0  0  0  0  0
    9.0630    0.8803   -0.0000 C   0  0  0  0  0  0  0  0  0  0  0  0
    7.7860   -1.4878   -0.0000 C   0  0  0  0  0  0  0  0  0  0  0  0
    9.0506    2.2936   -0.0000 O   0  0  0  0  0  0  0  0  0  0  0  0
   10.3524    0.1612   -0.0000 C   0  0  0  0  0  0  0  0  0  0  0  0
    9.0506   -2.2441   -0.0000 C   0  0  0  0  0  0  0  0  0  0  0  0
   11.6914    0.9051   -0.0000 C   0  0  0  0  0  0  0  0  0  0  0  0
    9.0382   -3.7194   -0.0000 C   0  0  0  0  0  0  0  0  0  0  0  0
   10.2160   -1.4630   -0.0000 C   0  0  0  0  0  0  0  0  0  0  0  0
   13.0800    0.1860   -0.0000 N   0  0  0  0  0  0  0  0  0  0  0  0
   11.6790    2.4424   -0.0000 C   0  0  0  0  0  0  0  0  0  0  0  0
   10.2036   -4.4757   -0.0000 C   0  0  0  0  0  0  0  0  0  0  0  0
   11.4806   -2.2193   -0.0000 C   0  0  0  0  0  0  0  0  0  0  0  0
   14.3694    0.9299   -0.0000 C   0  0  0  0  0  0  0  0  0  0  0  0
   12.2989    3.7814   -0.0000 C   0  0  0  0  0  0  0  0  0  0  0  0
   11.4682   -3.6946   -0.0000 C   0  0  0  0  0  0  0  0  0  0  0  0
   14.3570    2.4548   -0.0000 O   0  0  0  0  0  0  0  0  0  0  0  0
   15.6712    0.2108   -0.0000 C   0  0  0  0  0  0  0  0  0  0  0  0
   11.4682    5.0460   -0.0000 C   0  0  0  0  0  0  0  0  0  0  0  0
   13.7867    3.8434   -0.0000 C   0  0  0  0  0  0  0  0  0  0  0  0
   17.0350    0.9547   -0.0000 N   0  0  0  0  0  0  0  0  0  0  0  0
   15.6588   -1.3018   -0.0000 C   0  0  0  0  0  0  0  0  0  0  0  0
   12.1130    6.4346   -0.0000 C   0  0  0  0  0  0  0  0  0  0  0  0
   14.4438    5.1948   -0.0000 C   0  0  0  0  0  0  0  0  0  0  0  0
   18.2996    0.2356   -0.0000 C   0  0  0  0  0  0  0  0  0  0  0  0
   14.4438   -1.9837   -0.0000 C   0  0  0  0  0  0  0  0  0  0  0  0
   16.9110   -1.9837   -0.0000 C   0  0  0  0  0  0  0  0  0  0  0  0
   13.6255    6.4470   -0.0000 C   0  0  0  0  0  0  0  0  0  0  0  0
   18.2872   -1.2522   -0.0000 O   0  0  0  0  0  0  0  0  0  0  0  0
   19.6634    0.9795   -0.0000 N   0  0  0  0  0  0  0  0  0  0  0  0
   20.9652    0.2604   -0.0000 C   0  0  0  0  0  0  0  0  0  0  0  0
   19.6510    2.5540   -0.0000 C   0  0  0  0  0  0  0  0  0  0  0  0
   22.3166    1.0414   -0.0000 C   0  0  0  0  0  0  0  0  0  0  0  0
   23.5936    0.1736   -0.0000 N   0  0  0  0  0  0  0  0  0  0  0  0
   22.8373    2.5168   -0.0000 C   0  0  0  0  0  0  0  0  0  0  0  0
   24.7838    1.0662   -0.0000 C   0  0  0  0  0  0  0  0  0  0  0  0
   24.3127    2.5292   -0.0000 S   0  0  0  0  0  0  0  0  0  0  0  0
   26.0732    0.3347   -0.0000 C   0  0  0  0  0  0  0  0  0  0  0  0
   26.0608   -1.1778   -0.0000 C   0  0  0  0  0  0  0  0  0  0  0  0
   27.4122    1.1902   -0.0000 C   0  0  0  0  0  0  0  0  0  0  0  0
  1  2  1  0  0  0  0
  1  3  1  0  0  0  0
  2  4  2  0  0  0  0
  2  5  1  0  0  0  0
  3  6  2  0  0  0  0
  5  7  1  0  0  0  0
  7  8  1  0  0  0  0
  8  9  2  0  0  0  0
  8 10  1  0  0  0  0
 11 10  1  6  0  0  0
 11 12  1  0  0  0  0
 11 13  1  0  0  0  0
 12 14  1  1  0  0  0
 12 15  1  0  0  0  0
 13 16  1  0  0  0  0
 15 17  1  0  0  0  0
 16 18  2  0  0  0  0
 16 19  1  0  0  0  0
 17 20  1  6  0  0  0
 17 21  1  0  0  0  0
 18 22  1  0  0  0  0
 19 23  2  0  0  0  0
 20 24  1  0  0  0  0
 21 25  1  0  0  0  0
 22 26  2  0  0  0  0
 24 27  2  0  0  0  0
 24 28  1  0  0  0  0
 25 29  2  0  0  0  0
 25 30  1  0  0  0  0
 28 31  1  1  0  0  0
 28 32  1  0  0  0  0
 29 33  1  0  0  0  0
 30 34  2  0  0  0  0
 31 35  1  0  0  0  0
 32 36  1  0  0  0  0
 32 37  1  0  0  0  0
 33 38  2  0  0  0  0
 35 39  2  0  0  0  0
 35 40  1  0  0  0  0
 40 41  1  0  0  0  0
 40 42  1  0  0  0  0
 41 43  1  0  0  0  0
 43 44  1  0  0  0  0
 43 45  2  0  0  0  0
 44 46  2  0  0  0  0
 45 47  1  0  0  0  0
 46 48  1  0  0  0  0
 48 49  1  0  0  0  0
 48 50  1  0  0  0  0
  4  6  1  0  0  0  0
 23 26  1  0  0  0  0
 34 38  1  0  0  0  0
 46 47  1  0  0  0  0
M  END
>  <MolRegNo>
88100

>  <m>
=

>  <Value>
250

>  <Unit>
nM

>  <Type>
IC50

>  <pValue>
6.6

>  <Ligand Efficiency>
0

>  <Binding Efficiency>
0

>  <Surface Efficiency>
0

>  <Assay Index>
51808

>  <Assay Category>


>  <Assay Organism>
Homo sapiens

>  <Target ID>
17045

>  <Target Name>
Cytochrome P450 3A4

>  <Target Organism>
Homo sapiens

>  <Target Description>
Target is a single protein chain

>  <Sequence Accession>
P08684

>  <Reference>
Bioorg Med Chem Lett 8 (24), 3531-3536 (1998)

>  <Pubmed ID>
9934466

>  <DOI>
10.1016/s0960-894x(98)00653-2

$$$$
194608
Actelion Java MolfileCreator 1.0

 53 56  0  0  1  0  0  0  0  0999 V2000
    0.0000   -0.0000   -0.0000 S   0  0  0  0  0  0  0  0  0  0  0  0
   -0.8108    1.1179   -0.0000 C   0  0  0  0  0  0  0  0  0  0  0  0
    1.2899    0.4422   -0.0000 C   0  0  0  0  0  0  0  0  0  0  0  0
   -0.0246    2.2603   -0.0000 N   0  0  0  0  0  0  0  0  0  0  0  0
   -2.1989    1.1302   -0.0000 C   0  0  0  0  0  0  0  0  0  0  0  0
    1.2776    1.8058   -0.0000 C   0  0  0  0  0  0  0  0  0  0  0  0
    2.3709    2.6411   -0.0000 C   0  0  0  0  0  0  0  0  0  0  0  0
    3.6116    2.0883   -0.0000 O   0  0  0  0  0  0  0  0  0  0  0  0
    4.7172    2.9237   -0.0000 C   0  0  0  0  0  0  0  0  0  0  0  0
    4.5575    4.2872   -0.0000 O   0  0  0  0  0  0  0  0  0  0  0  0
    5.9579    2.3709   -0.0000 N   0  0  0  0  0  0  0  0  0  0  0  0
    7.0512    3.1816   -0.0000 C   0  0  0  0  0  0  0  0  0  0  0  0
    8.1936    2.4200   -0.0000 C   0  0  0  0  0  0  0  0  0  0  0  0
    7.0389    4.6189   -0.0000 C   0  0  0  0  0  0  0  0  0  0  0  0
    8.1936    1.0196   -0.0000 O   0  0  0  0  0  0  0  0  0  0  0  0
    9.5326    3.2062   -0.0000 N   0  0  0  0  0  0  0  0  0  0  0  0
    8.2551    5.3314   -0.0000 C   0  0  0  0  0  0  0  0  0  0  0  0
    5.7982    5.3437   -0.0000 C   0  0  0  0  0  0  0  0  0  0  0  0
   10.8470    2.4446   -0.0000 C   0  0  0  0  0  0  0  0  0  0  0  0
   12.1860    3.2308   -0.0000 C   0  0  0  0  0  0  0  0  0  0  0  0
   10.8470    0.9213   -0.0000 C   0  0  0  0  0  0  0  0  0  0  0  0
   12.1615    4.7909   -0.0000 O   0  0  0  0  0  0  0  0  0  0  0  0
   13.5127    2.4691   -0.0000 C   0  0  0  0  0  0  0  0  0  0  0  0
   10.0486   -0.3931   -0.0000 C   0  0  0  0  0  0  0  0  0  0  0  0
   14.8517    3.2553   -0.0000 N   0  0  0  0  0  0  0  0  0  0  0  0
    8.5007   -0.3685   -0.0000 C   0  0  0  0  0  0  0  0  0  0  0  0
   10.7979   -1.7075   -0.0000 C   0  0  0  0  0  0  0  0  0  0  0  0
   16.1662    2.5060   -0.0000 C   0  0  0  0  0  0  0  0  0  0  0  0
   14.8394    4.8154   -0.0000 C   0  0  0  0  0  0  0  0  0  0  0  0
    7.7145   -1.6707   -0.0000 C   0  0  0  0  0  0  0  0  0  0  0  0
   10.0240   -3.0219   -0.0000 C   0  0  0  0  0  0  0  0  0  0  0  0
   16.1539    0.9705   -0.0000 C   0  0  0  0  0  0  0  0  0  0  0  0
   17.4806    3.2799   -0.0000 C   0  0  0  0  0  0  0  0  0  0  0  0
   16.1539    5.6016   -0.0000 C   0  0  0  0  0  0  0  0  0  0  0  0
    8.4516   -2.9851   -0.0000 C   0  0  0  0  0  0  0  0  0  0  0  0
   14.7903    0.2211   -0.0000 O   0  0  0  0  0  0  0  0  0  0  0  0
   17.4806    0.2211   -0.0000 N   0  0  0  0  0  0  0  0  0  0  0  0
   17.4683    4.8400   -0.0000 N   0  0  0  0  0  0  0  0  0  0  0  0
   18.7950    0.9950   -0.0000 C   0  0  0  0  0  0  0  0  0  0  0  0
   18.7950    5.6139   -0.0000 C   0  0  0  0  0  0  0  0  0  0  0  0
   20.1340    0.2457   -0.0000 C   0  0  0  0  0  0  0  0  0  0  0  0
   18.7827    2.5551   -0.0000 C   0  0  0  0  0  0  0  0  0  0  0  0
   19.1881   -0.4914   -0.0000 C   0  0  0  0  0  0  0  0  0  0  0  0
   20.1340    4.8646   -0.0000 C   0  0  0  0  0  0  0  0  0  0  0  0
   21.4607    5.6385   -0.0000 C   0  0  0  0  0  0  0  0  0  0  0  0
   20.1094    3.3168   -0.0000 C   0  0  0  0  0  0  0  0  0  0  0  0
   22.7751    4.8892   -0.0000 C   0  0  0  0  0  0  0  0  0  0  0  0
   21.4484    2.5674   -0.0000 C   0  0  0  0  0  0  0  0  0  0  0  0
   24.1141    5.6754   -0.0000 O   0  0  0  0  0  0  0  0  0  0  0  0
   22.7628    3.3413   -0.0000 C   0  0  0  0  0  0  0  0  0  0  0  0
   25.4531    4.1398   -0.0000 C   0  0  0  0  0  0  0  0  0  0  0  0
   24.1018    2.5674   -0.0000 O   0  0  0  0  0  0  0  0  0  0  0  0
   25.4408    3.3659   -0.0000 C   0  0  0  0  0  0  0  0  0  0  0  0
  1  2  1  0  0  0  0
  1  3  1  0  0  0  0
  2  4  2  0  0  0  0
  2  5  1  0  0  0  0
  3  6  2  0  0  0  0
  6  7  1  0  0  0  0
  7  8  1  0  0  0  0
  8  9  1  0  0  0  0
  9 10  2  0  0  0  0
  9 11  1  0  0  0  0
 12 11  1  1  0  0  0
 12 13  1  0  0  0  0
 12 14  1  0  0  0  0
 13 15  2  0  0  0  0
 13 16  1  0  0  0  0
 14 17  1  0  0  0  0
 14 18  1  0  0  0  0
 19 16  1  6  0  0  0
 19 20  1  0  0  0  0
 19 21  1  0  0  0  0
 20 22  1  6  0  0  0
 20 23  1  0  0  0  0
 21 24  1  0  0  0  0
 23 25  1  0  0  0  0
 24 26  2  0  0  0  0
 24 27  1  0  0  0  0
 25 28  1  0  0  0  0
 25 29  1  0  0  0  0
 26 30  1  0  0  0  0
 27 31  2  0  0  0  0
 28 32  1  1  0  0  0
 28 33  1  0  0  0  0
 29 34  1  0  0  0  0
 30 35  2  0  0  0  0
 32 36  2  0  0  0  0
 32 37  1  0  0  0  0
 33 38  1  0  0  0  0
 37 39  1  0  0  0  0
 38 40  1  0  0  0  0
 39 41  1  0  0  0  0
 39 42  1  0  0  0  0
 39 43  1  0  0  0  0
 40 44  1  0  0  0  0
 44 45  2  0  0  0  0
 44 46  1  0  0  0  0
 45 47  1  0  0  0  0
 46 48  2  0  0  0  0
 47 49  1  0  0  0  0
 47 50  2  0  0  0  0
 49 51  1  0  0  0  0
 50 52  1  0  0  0  0
 52 53  1  0  0  0  0
  4  6  1  0  0  0  0
 31 35  1  0  0  0  0
 34 38  1  0  0  0  0
 48 50  1  0  0  0  0
M  END
>  <MolRegNo>
194608

>  <m>
=

>  <Value>
120000

>  <Unit>
nM

>  <Type>
IC50

>  <pValue>
0

>  <Ligand Efficiency>
0

>  <Binding Efficiency>
0

>  <Surface Efficiency>
0

>  <Assay Index>
51808

>  <Assay Category>


>  <Assay Organism>
Homo sapiens

>  <Target ID>
17045

>  <Target Name>
Cytochrome P450 3A4

>  <Target Organism>
Homo sapiens

>  <Target Description>
Target is a single protein chain

>  <Sequence Accession>
P08684

>  <Reference>
Bioorg Med Chem Lett 8 (24), 3531-3536 (1998)

>  <Pubmed ID>
9934466

>  <DOI>
10.1016/s0960-894x(98)00653-2

$$$$
195135
Actelion Java MolfileCreator 1.0

 54 57  0  0  1  0  0  0  0  0999 V2000
    0.0000   -0.0000   -0.0000 S   0  0  0  0  0  0  0  0  0  0  0  0
   -1.2000   -0.7175   -0.0000 C   0  0  0  0  0  0  0  0  0  0  0  0
   -0.3464    1.3485   -0.0000 C   0  0  0  0  0  0  0  0  0  0  0  0
   -2.2640    0.1979   -0.0000 N   0  0  0  0  0  0  0  0  0  0  0  0
   -1.2990   -2.0908   -0.0000 C   0  0  0  0  0  0  0  0  0  0  0  0
   -1.7444    1.4598   -0.0000 C   0  0  0  0  0  0  0  0  0  0  0  0
    0.5196    2.4372   -0.0000 C   0  0  0  0  0  0  0  0  0  0  0  0
   -2.5609   -2.6846   -0.0000 C   0  0  0  0  0  0  0  0  0  0  0  0
    1.7691    1.8805   -0.0000 O   0  0  0  0  0  0  0  0  0  0  0  0
    2.8825    2.7217   -0.0000 C   0  0  0  0  0  0  0  0  0  0  0  0
    2.7217    4.0949   -0.0000 O   0  0  0  0  0  0  0  0  0  0  0  0
    4.1321    2.1650   -0.0000 N   0  0  0  0  0  0  0  0  0  0  0  0
    5.2331    2.9815   -0.0000 C   0  0  0  0  0  0  0  0  0  0  0  0
    6.3837    2.2145   -0.0000 C   0  0  0  0  0  0  0  0  0  0  0  0
    5.2207    4.4290   -0.0000 C   0  0  0  0  0  0  0  0  0  0  0  0
    6.3837    0.8041   -0.0000 O   0  0  0  0  0  0  0  0  0  0  0  0
    7.7321    2.9939   -0.0000 N   0  0  0  0  0  0  0  0  0  0  0  0
    6.4455    5.1465   -0.0000 C   0  0  0  0  0  0  0  0  0  0  0  0
    3.9712    5.1589   -0.0000 C   0  0  0  0  0  0  0  0  0  0  0  0
    9.0559    2.2392   -0.0000 C   0  0  0  0  0  0  0  0  0  0  0  0
   10.4044    3.0310   -0.0000 C   0  0  0  0  0  0  0  0  0  0  0  0
    9.0559    0.7052   -0.0000 C   0  0  0  0  0  0  0  0  0  0  0  0
   10.3796    4.6022   -0.0000 O   0  0  0  0  0  0  0  0  0  0  0  0
   11.7405    2.2640   -0.0000 C   0  0  0  0  0  0  0  0  0  0  0  0
    8.2517   -0.6186   -0.0000 C   0  0  0  0  0  0  0  0  0  0  0  0
   13.0890    3.0557   -0.0000 N   0  0  0  0  0  0  0  0  0  0  0  0
    6.6929   -0.5938   -0.0000 C   0  0  0  0  0  0  0  0  0  0  0  0
    9.0064   -1.9423   -0.0000 C   0  0  0  0  0  0  0  0  0  0  0  0
   14.4127    2.3011   -0.0000 C   0  0  0  0  0  0  0  0  0  0  0  0
   13.0766    4.6269   -0.0000 C   0  0  0  0  0  0  0  0  0  0  0  0
    5.9012   -1.9052   -0.0000 C   0  0  0  0  0  0  0  0  0  0  0  0
    8.2270   -3.2661   -0.0000 C   0  0  0  0  0  0  0  0  0  0  0  0
   14.4003    0.7547   -0.0000 C   0  0  0  0  0  0  0  0  0  0  0  0
   15.7365    3.0805   -0.0000 C   0  0  0  0  0  0  0  0  0  0  0  0
   14.4003    5.4187   -0.0000 C   0  0  0  0  0  0  0  0  0  0  0  0
    6.6435   -3.2289   -0.0000 C   0  0  0  0  0  0  0  0  0  0  0  0
   13.0271   -0.0000   -0.0000 O   0  0  0  0  0  0  0  0  0  0  0  0
   15.7365   -0.0000   -0.0000 N   0  0  0  0  0  0  0  0  0  0  0  0
   15.7241    4.6517   -0.0000 N   0  0  0  0  0  0  0  0  0  0  0  0
   17.0602    0.7794   -0.0000 C   0  0  0  0  0  0  0  0  0  0  0  0
   17.0602    5.4311   -0.0000 C   0  0  0  0  0  0  0  0  0  0  0  0
   18.4087    0.0247   -0.0000 C   0  0  0  0  0  0  0  0  0  0  0  0
   17.0478    2.3506   -0.0000 C   0  0  0  0  0  0  0  0  0  0  0  0
   17.4561   -0.7175   -0.0000 C   0  0  0  0  0  0  0  0  0  0  0  0
   18.4087    4.6764   -0.0000 C   0  0  0  0  0  0  0  0  0  0  0  0
   19.7448    5.4558   -0.0000 C   0  0  0  0  0  0  0  0  0  0  0  0
   18.3839    3.1176   -0.0000 C   0  0  0  0  0  0  0  0  0  0  0  0
   21.0685    4.7011   -0.0000 C   0  0  0  0  0  0  0  0  0  0  0  0
   19.7324    2.3629   -0.0000 C   0  0  0  0  0  0  0  0  0  0  0  0
   22.4170    5.4929   -0.0000 O   0  0  0  0  0  0  0  0  0  0  0  0
   21.0562    3.1423   -0.0000 C   0  0  0  0  0  0  0  0  0  0  0  0
   23.7655    4.7259   -0.0000 C   0  0  0  0  0  0  0  0  0  0  0  0
   22.4046    2.3629   -0.0000 O   0  0  0  0  0  0  0  0  0  0  0  0
   23.7531    3.1671   -0.0000 C   0  0  0  0  0  0  0  0  0  0  0  0
  1  2  1  0  0  0  0
  1  3  1  0  0  0  0
  2  4  2  0  0  0  0
  2  5  1  0  0  0  0
  3  6  2  0  0  0  0
  3  7  1  0  0  0  0
  5  8  1  0  0  0  0
  7  9  1  0  0  0  0
  9 10  1  0  0  0  0
 10 11  2  0  0  0  0
 10 12  1  0  0  0  0
 13 12  1  1  0  0  0
 13 14  1  0  0  0  0
 13 15  1  0  0  0  0
 14 16  2  0  0  0  0
 14 17  1  0  0  0  0
 15 18  1  0  0  0  0
 15 19  1  0  0  0  0
 20 17  1  6  0  0  0
 20 21  1  0  0  0  0
 20 22  1  0  0  0  0
 21 23  1  6  0  0  0
 21 24  1  0  0  0  0
 22 25  1  0  0  0  0
 24 26  1  0  0  0  0
 25 27  2  0  0  0  0
 25 28  1  0  0  0  0
 26 29  1  0  0  0  0
 26 30  1  0  0  0  0
 27 31  1  0  0  0  0
 28 32  2  0  0  0  0
 29 33  1  1  0  0  0
 29 34  1  0  0  0  0
 30 35  1  0  0  0  0
 31 36  2  0  0  0  0
 33 37  2  0  0  0  0
 33 38  1  0  0  0  0
 34 39  1  0  0  0  0
 38 40  1  0  0  0  0
 39 41  1  0  0  0  0
 40 42  1  0  0  0  0
 40 43  1  0  0  0  0
 40 44  1  0  0  0  0
 41 45  1  0  0  0  0
 45 46  2  0  0  0  0
 45 47  1  0  0  0  0
 46 48  1  0  0  0  0
 47 49  2  0  0  0  0
 48 50  1  0  0  0  0
 48 51  2  0  0  0  0
 50 52  1  0  0  0  0
 51 53  1  0  0  0  0
 53 54  1  0  0  0  0
  4  6  1  0  0  0  0
 32 36  1  0  0  0  0
 35 39  1  0  0  0  0
 49 51  1  0  0  0  0
M  END
>  <MolRegNo>
195135

>  <m>
=

>  <Value>
35000

>  <Unit>
nM

>  <Type>
IC50

>  <pValue>
4.46

>  <Ligand Efficiency>
0

>  <Binding Efficiency>
0

>  <Surface Efficiency>
0

>  <Assay Index>
51808

>  <Assay Category>


>  <Assay Organism>
Homo sapiens

>  <Target ID>
17045

>  <Target Name>
Cytochrome P450 3A4

>  <Target Organism>
Homo sapiens

>  <Target Description>
Target is a single protein chain

>  <Sequence Accession>
P08684

>  <Reference>
Bioorg Med Chem Lett 8 (24), 3531-3536 (1998)

>  <Pubmed ID>
9934466

>  <DOI>
10.1016/s0960-894x(98)00653-2

$$$$
194906
Actelion Java MolfileCreator 1.0

 51 54  0  0  1  0  0  0  0  0999 V2000
    0.0000   -0.0000   -0.0000 S   0  0  0  0  0  0  0  0  0  0  0  0
   -0.8198    1.1304   -0.0000 C   0  0  0  0  0  0  0  0  0  0  0  0
    1.3043    0.4472   -0.0000 C   0  0  0  0  0  0  0  0  0  0  0  0
   -0.0248    2.2732   -0.0000 N   0  0  0  0  0  0  0  0  0  0  0  0
   -2.2235    1.1428   -0.0000 C   0  0  0  0  0  0  0  0  0  0  0  0
    1.2919    1.8384   -0.0000 C   0  0  0  0  0  0  0  0  0  0  0  0
   -2.9316   -0.0373   -0.0000 C   0  0  0  0  0  0  0  0  0  0  0  0
   -2.9316    2.3602   -0.0000 C   0  0  0  0  0  0  0  0  0  0  0  0
    2.3974    2.6707   -0.0000 C   0  0  0  0  0  0  0  0  0  0  0  0
    3.6520    2.1241   -0.0000 O   0  0  0  0  0  0  0  0  0  0  0  0
    4.7700    2.9564   -0.0000 C   0  0  0  0  0  0  0  0  0  0  0  0
    4.6085    4.3476   -0.0000 O   0  0  0  0  0  0  0  0  0  0  0  0
    6.0246    2.4098   -0.0000 N   0  0  0  0  0  0  0  0  0  0  0  0
    7.1301    3.2421   -0.0000 C   0  0  0  0  0  0  0  0  0  0  0  0
    8.2854    2.4471   -0.0000 C   0  0  0  0  0  0  0  0  0  0  0  0
    7.1177    4.6830   -0.0000 C   0  0  0  0  0  0  0  0  0  0  0  0
    8.2854    1.0310   -0.0000 O   0  0  0  0  0  0  0  0  0  0  0  0
    9.6394    3.2421   -0.0000 N   0  0  0  0  0  0  0  0  0  0  0  0
    5.8631    5.4159   -0.0000 C   0  0  0  0  0  0  0  0  0  0  0  0
    8.3475    5.4159   -0.0000 C   0  0  0  0  0  0  0  0  0  0  0  0
   10.9685    2.4844   -0.0000 C   0  0  0  0  0  0  0  0  0  0  0  0
   12.3225    3.2918   -0.0000 C   0  0  0  0  0  0  0  0  0  0  0  0
   10.9685    0.9316   -0.0000 C   0  0  0  0  0  0  0  0  0  0  0  0
   12.2976    4.8569   -0.0000 O   0  0  0  0  0  0  0  0  0  0  0  0
   13.6640    2.5092   -0.0000 C   0  0  0  0  0  0  0  0  0  0  0  0
   10.1611   -0.3975   -0.0000 C   0  0  0  0  0  0  0  0  0  0  0  0
   15.0180    3.3166   -0.0000 N   0  0  0  0  0  0  0  0  0  0  0  0
   10.9188   -1.7266   -0.0000 C   0  0  0  0  0  0  0  0  0  0  0  0
    8.5959   -0.3602   -0.0000 C   0  0  0  0  0  0  0  0  0  0  0  0
   16.3472    2.5589   -0.0000 C   0  0  0  0  0  0  0  0  0  0  0  0
   15.0056    4.8818   -0.0000 C   0  0  0  0  0  0  0  0  0  0  0  0
   10.1362   -3.0434   -0.0000 C   0  0  0  0  0  0  0  0  0  0  0  0
    7.8009   -1.6894   -0.0000 C   0  0  0  0  0  0  0  0  0  0  0  0
   16.3347    0.9937   -0.0000 C   0  0  0  0  0  0  0  0  0  0  0  0
   17.6763    3.3415   -0.0000 C   0  0  0  0  0  0  0  0  0  0  0  0
   16.3347    5.7016   -0.0000 C   0  0  0  0  0  0  0  0  0  0  0  0
    8.5587   -3.0309   -0.0000 C   0  0  0  0  0  0  0  0  0  0  0  0
   14.9559    0.2360   -0.0000 O   0  0  0  0  0  0  0  0  0  0  0  0
   17.6763    0.2360   -0.0000 N   0  0  0  0  0  0  0  0  0  0  0  0
   17.6639    4.9066   -0.0000 N   0  0  0  0  0  0  0  0  0  0  0  0
   19.0054    1.0186   -0.0000 C   0  0  0  0  0  0  0  0  0  0  0  0
   19.0054    5.7016   -0.0000 C   0  0  0  0  0  0  0  0  0  0  0  0
   20.3594    0.2609   -0.0000 C   0  0  0  0  0  0  0  0  0  0  0  0
   18.9930    2.6086   -0.0000 C   0  0  0  0  0  0  0  0  0  0  0  0
   18.2229   -0.3105   -0.0000 C   0  0  0  0  0  0  0  0  0  0  0  0
   20.3594    4.9315   -0.0000 C   0  0  0  0  0  0  0  0  0  0  0  0
   21.7010    5.7265   -0.0000 C   0  0  0  0  0  0  0  0  0  0  0  0
   20.3346    3.3787   -0.0000 C   0  0  0  0  0  0  0  0  0  0  0  0
   23.0301    4.9563   -0.0000 N   0  0  0  0  0  0  0  0  0  0  0  0
   21.6886    2.6086   -0.0000 C   0  0  0  0  0  0  0  0  0  0  0  0
   23.0177    3.3912   -0.0000 C   0  0  0  0  0  0  0  0  0  0  0  0
  1  2  1  0  0  0  0
  1  3  1  0  0  0  0
  2  4  2  0  0  0  0
  2  5  1  0  0  0  0
  3  6  2  0  0  0  0
  5  7  1  0  0  0  0
  5  8  1  0  0  0  0
  6  9  1  0  0  0  0
  9 10  1  0  0  0  0
 10 11  1  0  0  0  0
 11 12  2  0  0  0  0
 11 13  1  0  0  0  0
 14 13  1  1  0  0  0
 14 15  1  0  0  0  0
 14 16  1  0  0  0  0
 15 17  2  0  0  0  0
 15 18  1  0  0  0  0
 16 19  1  0  0  0  0
 16 20  1  0  0  0  0
 21 18  1  6  0  0  0
 21 22  1  0  0  0  0
 21 23  1  0  0  0  0
 22 24  1  6  0  0  0
 22 25  1  0  0  0  0
 23 26  1  0  0  0  0
 25 27  1  0  0  0  0
 26 28  2  0  0  0  0
 26 29  1  0  0  0  0
 27 30  1  0  0  0  0
 27 31  1  0  0  0  0
 28 32  1  0  0  0  0
 29 33  2  0  0  0  0
 30 34  1  1  0  0  0
 30 35  1  0  0  0  0
 31 36  1  0  0  0  0
 32 37  2  0  0  0  0
 34 38  2  0  0  0  0
 34 39  1  0  0  0  0
 35 40  1  0  0  0  0
 39 41  1  0  0  0  0
 40 42  1  0  0  0  0
 41 43  1  0  0  0  0
 41 44  1  0  0  0  0
 41 45  1  0  0  0  0
 42 46  1  0  0  0  0
 46 47  2  0  0  0  0
 46 48  1  0  0  0  0
 47 49  1  0  0  0  0
 48 50  2  0  0  0  0
 49 51  2  0  0  0  0
  4  6  1  0  0  0  0
 33 37  1  0  0  0  0
 36 40  1  0  0  0  0
 50 51  1  0  0  0  0
M  END
>  <MolRegNo>
194906

>  <m>
=

>  <Value>
2300

>  <Unit>
nM

>  <Type>
IC50

>  <pValue>
5.64

>  <Ligand Efficiency>
0

>  <Binding Efficiency>
0

>  <Surface Efficiency>
0

>  <Assay Index>
51808

>  <Assay Category>


>  <Assay Organism>
Homo sapiens

>  <Target ID>
17045

>  <Target Name>
Cytochrome P450 3A4

>  <Target Organism>
Homo sapiens

>  <Target Description>
Target is a single protein chain

>  <Sequence Accession>
P08684

>  <Reference>
Bioorg Med Chem Lett 8 (24), 3531-3536 (1998)

>  <Pubmed ID>
9934466

>  <DOI>
10.1016/s0960-894x(98)00653-2

$$$$
195361
Actelion Java MolfileCreator 1.0

 54 58  0  0  1  0  0  0  0  0999 V2000
    0.0000   -0.0000   -0.0000 S   0  0  0  0  0  0  0  0  0  0  0  0
   -0.8330    1.1148   -0.0000 C   0  0  0  0  0  0  0  0  0  0  0  0
    1.2863    0.4410   -0.0000 C   0  0  0  0  0  0  0  0  0  0  0  0
   -0.0368    2.2540   -0.0000 N   0  0  0  0  0  0  0  0  0  0  0  0
   -2.2050    1.1270   -0.0000 C   0  0  0  0  0  0  0  0  0  0  0  0
    1.2618    1.8008   -0.0000 C   0  0  0  0  0  0  0  0  0  0  0  0
   -2.9033    2.3153   -0.0000 C   0  0  0  0  0  0  0  0  0  0  0  0
   -2.9033   -0.0490   -0.0000 C   0  0  0  0  0  0  0  0  0  0  0  0
    2.3520    2.6338   -0.0000 C   0  0  0  0  0  0  0  0  0  0  0  0
    3.5893    2.0825   -0.0000 O   0  0  0  0  0  0  0  0  0  0  0  0
    4.6796    2.9156   -0.0000 C   0  0  0  0  0  0  0  0  0  0  0  0
    4.5326    4.2753   -0.0000 O   0  0  0  0  0  0  0  0  0  0  0  0
    5.9169    2.3643   -0.0000 N   0  0  0  0  0  0  0  0  0  0  0  0
    7.0194    3.1728   -0.0000 C   0  0  0  0  0  0  0  0  0  0  0  0
    8.1586    2.4133   -0.0000 C   0  0  0  0  0  0  0  0  0  0  0  0
    7.0071    4.6061   -0.0000 C   0  0  0  0  0  0  0  0  0  0  0  0
    8.1464    1.0168   -0.0000 O   0  0  0  0  0  0  0  0  0  0  0  0
    9.4939    3.1973   -0.0000 N   0  0  0  0  0  0  0  0  0  0  0  0
    5.7821    5.3288   -0.0000 C   0  0  0  0  0  0  0  0  0  0  0  0
    8.2199    5.3166   -0.0000 C   0  0  0  0  0  0  0  0  0  0  0  0
   10.8169    2.4378   -0.0000 C   0  0  0  0  0  0  0  0  0  0  0  0
   12.1277    3.2218   -0.0000 C   0  0  0  0  0  0  0  0  0  0  0  0
   10.8047    0.9188   -0.0000 C   0  0  0  0  0  0  0  0  0  0  0  0
   12.1155    4.7776   -0.0000 O   0  0  0  0  0  0  0  0  0  0  0  0
   13.4630    2.4623   -0.0000 C   0  0  0  0  0  0  0  0  0  0  0  0
   10.0329   -0.3920   -0.0000 C   0  0  0  0  0  0  0  0  0  0  0  0
   14.7860    3.2463   -0.0000 N   0  0  0  0  0  0  0  0  0  0  0  0
    8.4772   -0.3675   -0.0000 C   0  0  0  0  0  0  0  0  0  0  0  0
   10.7557   -1.7028   -0.0000 C   0  0  0  0  0  0  0  0  0  0  0  0
   16.0968    2.4990   -0.0000 C   0  0  0  0  0  0  0  0  0  0  0  0
   14.7738    4.8021   -0.0000 C   0  0  0  0  0  0  0  0  0  0  0  0
    7.6809   -1.6660   -0.0000 C   0  0  0  0  0  0  0  0  0  0  0  0
    9.9839   -3.0136   -0.0000 C   0  0  0  0  0  0  0  0  0  0  0  0
   16.0845    0.9678   -0.0000 C   0  0  0  0  0  0  0  0  0  0  0  0
   17.4076    3.2708   -0.0000 C   0  0  0  0  0  0  0  0  0  0  0  0
   16.0845    5.5861   -0.0000 C   0  0  0  0  0  0  0  0  0  0  0  0
    8.4282   -2.9768   -0.0000 C   0  0  0  0  0  0  0  0  0  0  0  0
   14.7493    0.2205   -0.0000 O   0  0  0  0  0  0  0  0  0  0  0  0
   17.4198    0.2205   -0.0000 N   0  0  0  0  0  0  0  0  0  0  0  0
   17.3953    4.8266   -0.0000 N   0  0  0  0  0  0  0  0  0  0  0  0
   18.7428    0.9923   -0.0000 C   0  0  0  0  0  0  0  0  0  0  0  0
   18.7306    5.5984   -0.0000 C   0  0  0  0  0  0  0  0  0  0  0  0
   20.0536    0.2450   -0.0000 C   0  0  0  0  0  0  0  0  0  0  0  0
   18.7306    2.5480   -0.0000 C   0  0  0  0  0  0  0  0  0  0  0  0
   19.1348   -0.4900   -0.0000 C   0  0  0  0  0  0  0  0  0  0  0  0
   20.0414    4.8511   -0.0000 C   0  0  0  0  0  0  0  0  0  0  0  0
   21.3766    5.6229   -0.0000 C   0  0  0  0  0  0  0  0  0  0  0  0
   20.0291    3.3076   -0.0000 C   0  0  0  0  0  0  0  0  0  0  0  0
   22.6997    4.8756   -0.0000 C   0  0  0  0  0  0  0  0  0  0  0  0
   21.3399    2.5603   -0.0000 C   0  0  0  0  0  0  0  0  0  0  0  0
   24.0349    5.6596   -0.0000 O   0  0  0  0  0  0  0  0  0  0  0  0
   22.6874    3.3321   -0.0000 C   0  0  0  0  0  0  0  0  0  0  0  0
   25.3702    4.1283   -0.0000 C   0  0  0  0  0  0  0  0  0  0  0  0
   24.0227    2.5603   -0.0000 O   0  0  0  0  0  0  0  0  0  0  0  0
  1  2  1  0  0  0  0
  1  3  1  0  0  0  0
  2  4  2  0  0  0  0
  2  5  1  0  0  0  0
  3  6  2  0  0  0  0
  5  7  1  0  0  0  0
  5  8  1  0  0  0  0
  6  9  1  0  0  0  0
  9 10  1  0  0  0  0
 10 11  1  0  0  0  0
 11 12  2  0  0  0  0
 11 13  1  0  0  0  0
 14 13  1  1  0  0  0
 14 15  1  0  0  0  0
 14 16  1  0  0  0  0
 15 17  2  0  0  0  0
 15 18  1  0  0  0  0
 16 19  1  0  0  0  0
 16 20  1  0  0  0  0
 21 18  1  6  0  0  0
 21 22  1  0  0  0  0
 21 23  1  0  0  0  0
 22 24  1  6  0  0  0
 22 25  1  0  0  0  0
 23 26  1  0  0  0  0
 25 27  1  0  0  0  0
 26 28  2  0  0  0  0
 26 29  1  0  0  0  0
 27 30  1  0  0  0  0
 27 31  1  0  0  0  0
 28 32  1  0  0  0  0
 29 33  2  0  0  0  0
 30 34  1  1  0  0  0
 30 35  1  0  0  0  0
 31 36  1  0  0  0  0
 32 37  2  0  0  0  0
 34 38  2  0  0  0  0
 34 39  1  0  0  0  0
 35 40  1  0  0  0  0
 39 41  1  0  0  0  0
 40 42  1  0  0  0  0
 41 43  1  0  0  0  0
 41 44  1  0  0  0  0
 41 45  1  0  0  0  0
 42 46  1  0  0  0  0
 46 47  2  0  0  0  0
 46 48  1  0  0  0  0
 47 49  1  0  0  0  0
 48 50  2  0  0  0  0
 49 51  1  0  0  0  0
 49 52  2  0  0  0  0
 51 53  1  0  0  0  0
 52 54  1  0  0  0  0
  4  6  1  0  0  0  0
 33 37  1  0  0  0  0
 36 40  1  0  0  0  0
 50 52  1  0  0  0  0
 53 54  1  0  0  0  0
M  END
>  <MolRegNo>
195361

>  <m>
=

>  <Value>
9600

>  <Unit>
nM

>  <Type>
IC50

>  <pValue>
5.02

>  <Ligand Efficiency>
0

>  <Binding Efficiency>
0

>  <Surface Efficiency>
0

>  <Assay Index>
51808

>  <Assay Category>


>  <Assay Organism>
Homo sapiens

>  <Target ID>
17045

>  <Target Name>
Cytochrome P450 3A4

>  <Target Organism>
Homo sapiens

>  <Target Description>
Target is a single protein chain

>  <Sequence Accession>
P08684

>  <Reference>
Bioorg Med Chem Lett 8 (24), 3531-3536 (1998)

>  <Pubmed ID>
9934466

>  <DOI>
10.1016/s0960-894x(98)00653-2

$$$$
195172
Actelion Java MolfileCreator 1.0

 50 53  0  0  1  0  0  0  0  0999 V2000
    0.0000   -0.0000   -0.0000 S   0  0  0  0  0  0  0  0  0  0  0  0
   -1.4362   -0.6314   -0.0000 C   0  0  0  0  0  0  0  0  0  0  0  0
    1.0400   -1.1638   -0.0000 C   0  0  0  0  0  0  0  0  0  0  0  0
   -1.3000   -2.1790   -0.0000 C   0  0  0  0  0  0  0  0  0  0  0  0
   -2.8104    0.1609   -0.0000 C   0  0  0  0  0  0  0  0  0  0  0  0
    0.2352   -2.5009   -0.0000 N   0  0  0  0  0  0  0  0  0  0  0  0
   -4.1599   -0.6066   -0.0000 N   0  0  0  0  0  0  0  0  0  0  0  0
   -4.1723   -2.1418   -0.0000 C   0  0  0  0  0  0  0  0  0  0  0  0
   -5.5094    0.2105   -0.0000 C   0  0  0  0  0  0  0  0  0  0  0  0
   -5.5218   -2.8971   -0.0000 C   0  0  0  0  0  0  0  0  0  0  0  0
   -6.8712   -0.5819   -0.0000 C   0  0  0  0  0  0  0  0  0  0  0  0
   -6.8836   -2.1171   -0.0000 N   0  0  0  0  0  0  0  0  0  0  0  0
   -5.5341   -4.4570   -0.0000 C   0  0  0  0  0  0  0  0  0  0  0  0
   -8.2579   -2.8971   -0.0000 C   0  0  0  0  0  0  0  0  0  0  0  0
   -6.8960   -5.2122   -0.0000 O   0  0  0  0  0  0  0  0  0  0  0  0
   -4.2094   -5.2122   -0.0000 N   0  0  0  0  0  0  0  0  0  0  0  0
   -9.6074   -2.0923   -0.0000 C   0  0  0  0  0  0  0  0  0  0  0  0
   -2.8847   -4.4323   -0.0000 C   0  0  0  0  0  0  0  0  0  0  0  0
   -9.6321   -0.5324   -0.0000 O   0  0  0  0  0  0  0  0  0  0  0  0
  -10.9692   -2.8723   -0.0000 C   0  0  0  0  0  0  0  0  0  0  0  0
   -1.5352   -5.1875   -0.0000 C   0  0  0  0  0  0  0  0  0  0  0  0
   -2.8723   -2.8475   -0.0000 C   0  0  0  0  0  0  0  0  0  0  0  0
   -2.4885   -5.9179   -0.0000 C   0  0  0  0  0  0  0  0  0  0  0  0
  -12.3435   -2.0923   -0.0000 N   0  0  0  0  0  0  0  0  0  0  0  0
  -10.9692   -4.4199   -0.0000 C   0  0  0  0  0  0  0  0  0  0  0  0
  -13.7053   -2.8599   -0.0000 C   0  0  0  0  0  0  0  0  0  0  0  0
  -11.7616   -5.7446   -0.0000 C   0  0  0  0  0  0  0  0  0  0  0  0
  -13.7053   -4.2713   -0.0000 O   0  0  0  0  0  0  0  0  0  0  0  0
  -14.8939   -2.0428   -0.0000 C   0  0  0  0  0  0  0  0  0  0  0  0
  -11.0187   -7.0693   -0.0000 C   0  0  0  0  0  0  0  0  0  0  0  0
  -13.3339   -5.7075   -0.0000 C   0  0  0  0  0  0  0  0  0  0  0  0
  -16.0205   -2.8475   -0.0000 N   0  0  0  0  0  0  0  0  0  0  0  0
  -14.9063   -0.6066   -0.0000 C   0  0  0  0  0  0  0  0  0  0  0  0
  -11.7987   -8.3817   -0.0000 C   0  0  0  0  0  0  0  0  0  0  0  0
  -14.1139   -7.0322   -0.0000 C   0  0  0  0  0  0  0  0  0  0  0  0
  -17.2957   -2.2780   -0.0000 C   0  0  0  0  0  0  0  0  0  0  0  0
  -16.1443    0.1238   -0.0000 C   0  0  0  0  0  0  0  0  0  0  0  0
  -13.6806    0.1238   -0.0000 C   0  0  0  0  0  0  0  0  0  0  0  0
  -13.3711   -8.3693   -0.0000 C   0  0  0  0  0  0  0  0  0  0  0  0
  -17.4567   -0.8914   -0.0000 O   0  0  0  0  0  0  0  0  0  0  0  0
  -18.4223   -3.0828   -0.0000 O   0  0  0  0  0  0  0  0  0  0  0  0
  -19.6975   -2.5133   -0.0000 C   0  0  0  0  0  0  0  0  0  0  0  0
  -20.8366   -3.3180   -0.0000 C   0  0  0  0  0  0  0  0  0  0  0  0
  -22.1613   -2.8723   -0.0000 N   0  0  0  0  0  0  0  0  0  0  0  0
  -20.8366   -4.6799   -0.0000 C   0  0  0  0  0  0  0  0  0  0  0  0
  -22.9784   -3.9866   -0.0000 C   0  0  0  0  0  0  0  0  0  0  0  0
  -22.1613   -5.1008   -0.0000 S   0  0  0  0  0  0  0  0  0  0  0  0
  -24.3774   -3.9742   -0.0000 C   0  0  0  0  0  0  0  0  0  0  0  0
  -25.0831   -2.7609   -0.0000 C   0  0  0  0  0  0  0  0  0  0  0  0
  -25.0707   -5.1503   -0.0000 C   0  0  0  0  0  0  0  0  0  0  0  0
  1  2  1  0  0  0  0
  1  3  1  0  0  0  0
  2  4  2  0  0  0  0
  2  5  1  0  0  0  0
  3  6  2  0  0  0  0
  5  7  1  0  0  0  0
  7  8  1  0  0  0  0
  7  9  1  0  0  0  0
  8 10  1  0  0  0  0
  9 11  1  0  0  0  0
 10 12  1  0  0  0  0
 10 13  1  1  0  0  0
 12 14  1  0  0  0  0
 13 15  2  0  0  0  0
 13 16  1  0  0  0  0
 14 17  1  0  0  0  0
 16 18  1  0  0  0  0
 17 19  1  6  0  0  0
 17 20  1  0  0  0  0
 18 21  1  0  0  0  0
 18 22  1  0  0  0  0
 18 23  1  0  0  0  0
 20 24  1  6  0  0  0
 20 25  1  0  0  0  0
 24 26  1  0  0  0  0
 25 27  1  0  0  0  0
 26 28  2  0  0  0  0
 26 29  1  0  0  0  0
 27 30  2  0  0  0  0
 27 31  1  0  0  0  0
 29 32  1  1  0  0  0
 29 33  1  0  0  0  0
 30 34  1  0  0  0  0
 31 35  2  0  0  0  0
 32 36  1  0  0  0  0
 33 37  1  0  0  0  0
 33 38  1  0  0  0  0
 34 39  2  0  0  0  0
 36 40  2  0  0  0  0
 36 41  1  0  0  0  0
 41 42  1  0  0  0  0
 42 43  1  0  0  0  0
 43 44  1  0  0  0  0
 43 45  2  0  0  0  0
 44 46  2  0  0  0  0
 45 47  1  0  0  0  0
 46 48  1  0  0  0  0
 48 49  1  0  0  0  0
 48 50  1  0  0  0  0
  4  6  1  0  0  0  0
 11 12  1  0  0  0  0
 35 39  1  0  0  0  0
 46 47  1  0  0  0  0
M  END
>  <MolRegNo>
195172

>  <m>
=

>  <Value>
15000

>  <Unit>
nM

>  <Type>
IC50

>  <pValue>
4.82

>  <Ligand Efficiency>
0

>  <Binding Efficiency>
0

>  <Surface Efficiency>
0

>  <Assay Index>
51808

>  <Assay Category>


>  <Assay Organism>
Homo sapiens

>  <Target ID>
17045

>  <Target Name>
Cytochrome P450 3A4

>  <Target Organism>
Homo sapiens

>  <Target Description>
Target is a single protein chain

>  <Sequence Accession>
P08684

>  <Reference>
Bioorg Med Chem Lett 8 (24), 3531-3536 (1998)

>  <Pubmed ID>
9934466

>  <DOI>
10.1016/s0960-894x(98)00653-2

$$$$
2038717
Actelion Java MolfileCreator 1.0

 54 58  0  0  1  0  0  0  0  0999 V2000
    0.0000   -0.0000   -0.0000 S   0  0  0  0  0  0  0  0  0  0  0  0
   -0.7654    1.3072   -0.0000 C   0  0  0  0  0  0  0  0  0  0  0  0
   -1.0127   -1.0952   -0.0000 C   0  0  0  0  0  0  0  0  0  0  0  0
   -2.2375    1.0127   -0.0000 N   0  0  0  0  0  0  0  0  0  0  0  0
   -0.1649    2.6850   -0.0000 C   0  0  0  0  0  0  0  0  0  0  0  0
   -2.3906   -0.4710   -0.0000 C   0  0  0  0  0  0  0  0  0  0  0  0
    1.3072    2.8498   -0.0000 C   0  0  0  0  0  0  0  0  0  0  0  0
   -1.0599    3.9097   -0.0000 C   0  0  0  0  0  0  0  0  0  0  0  0
   -3.6977   -1.2129   -0.0000 C   0  0  0  0  0  0  0  0  0  0  0  0
   -5.0049   -0.4475   -0.0000 O   0  0  0  0  0  0  0  0  0  0  0  0
   -6.3120   -1.1894   -0.0000 C   0  0  0  0  0  0  0  0  0  0  0  0
   -6.3238   -2.6732   -0.0000 O   0  0  0  0  0  0  0  0  0  0  0  0
   -7.6192   -0.4239   -0.0000 N   0  0  0  0  0  0  0  0  0  0  0  0
   -8.9263   -1.1658   -0.0000 C   0  0  0  0  0  0  0  0  0  0  0  0
  -10.2335   -0.4004   -0.0000 C   0  0  0  0  0  0  0  0  0  0  0  0
   -8.9381   -2.6496   -0.0000 C   0  0  0  0  0  0  0  0  0  0  0  0
   -9.3620    0.8243   -0.0000 O   0  0  0  0  0  0  0  0  0  0  0  0
  -11.5406   -1.1423   -0.0000 N   0  0  0  0  0  0  0  0  0  0  0  0
   -7.6545   -3.3798   -0.0000 C   0  0  0  0  0  0  0  0  0  0  0  0
  -10.2453   -3.3798   -0.0000 C   0  0  0  0  0  0  0  0  0  0  0  0
  -12.8478   -0.3768   -0.0000 C   0  0  0  0  0  0  0  0  0  0  0  0
  -14.1549   -1.1187   -0.0000 C   0  0  0  0  0  0  0  0  0  0  0  0
  -12.8596    1.1305   -0.0000 C   0  0  0  0  0  0  0  0  0  0  0  0
  -14.1667   -2.6025   -0.0000 O   0  0  0  0  0  0  0  0  0  0  0  0
  -15.4621   -0.3533   -0.0000 C   0  0  0  0  0  0  0  0  0  0  0  0
  -11.5760    1.8842   -0.0000 C   0  0  0  0  0  0  0  0  0  0  0  0
  -15.4739    1.1541   -0.0000 N   0  0  0  0  0  0  0  0  0  0  0  0
  -11.5877    3.3915   -0.0000 C   0  0  0  0  0  0  0  0  0  0  0  0
  -10.2924    1.1541   -0.0000 C   0  0  0  0  0  0  0  0  0  0  0  0
  -16.7810    1.9077   -0.0000 C   0  0  0  0  0  0  0  0  0  0  0  0
  -14.1903    1.9077   -0.0000 C   0  0  0  0  0  0  0  0  0  0  0  0
  -10.3041    4.1452   -0.0000 C   0  0  0  0  0  0  0  0  0  0  0  0
   -9.0088    1.9077   -0.0000 C   0  0  0  0  0  0  0  0  0  0  0  0
  -18.0882    1.1776   -0.0000 C   0  0  0  0  0  0  0  0  0  0  0  0
  -16.7928    3.4151   -0.0000 C   0  0  0  0  0  0  0  0  0  0  0  0
  -14.2020    3.4151   -0.0000 C   0  0  0  0  0  0  0  0  0  0  0  0
   -9.0205    3.4033   -0.0000 C   0  0  0  0  0  0  0  0  0  0  0  0
  -18.0999   -0.3062   -0.0000 O   0  0  0  0  0  0  0  0  0  0  0  0
  -19.3953    1.9313   -0.0000 N   0  0  0  0  0  0  0  0  0  0  0  0
  -15.5092    4.1688   -0.0000 N   0  0  0  0  0  0  0  0  0  0  0  0
  -20.7025    1.2012   -0.0000 C   0  0  0  0  0  0  0  0  0  0  0  0
  -15.5210    5.6761   -0.0000 C   0  0  0  0  0  0  0  0  0  0  0  0
  -21.4561    2.5083   -0.0000 C   0  0  0  0  0  0  0  0  0  0  0  0
  -19.9606   -0.0824   -0.0000 C   0  0  0  0  0  0  0  0  0  0  0  0
  -22.0096    0.4593   -0.0000 C   0  0  0  0  0  0  0  0  0  0  0  0
  -16.8281    6.4298   -0.0000 C   0  0  0  0  0  0  0  0  0  0  0  0
  -16.8399    7.9371   -0.0000 C   0  0  0  0  0  0  0  0  0  0  0  0
  -18.1353    5.6997   -0.0000 C   0  0  0  0  0  0  0  0  0  0  0  0
  -18.1471    8.6908   -0.0000 C   0  0  0  0  0  0  0  0  0  0  0  0
  -15.7447    8.9499   -0.0000 C   0  0  0  0  0  0  0  0  0  0  0  0
  -19.4424    6.4533   -0.0000 C   0  0  0  0  0  0  0  0  0  0  0  0
  -19.4542    7.9489   -0.0000 C   0  0  0  0  0  0  0  0  0  0  0  0
  -17.8526   10.1628   -0.0000 C   0  0  0  0  0  0  0  0  0  0  0  0
  -16.3689   10.3277   -0.0000 O   0  0  0  0  0  0  0  0  0  0  0  0
  1  2  1  0  0  0  0
  1  3  1  0  0  0  0
  2  4  2  0  0  0  0
  2  5  1  0  0  0  0
  3  6  2  0  0  0  0
  5  7  1  0  0  0  0
  5  8  1  0  0  0  0
  6  9  1  0  0  0  0
  9 10  1  0  0  0  0
 10 11  1  0  0  0  0
 11 12  2  0  0  0  0
 11 13  1  0  0  0  0
 14 13  1  1  0  0  0
 14 15  1  0  0  0  0
 14 16  1  0  0  0  0
 15 17  2  0  0  0  0
 15 18  1  0  0  0  0
 16 19  1  0  0  0  0
 16 20  1  0  0  0  0
 21 18  1  6  0  0  0
 21 22  1  0  0  0  0
 21 23  1  0  0  0  0
 22 24  1  6  0  0  0
 22 25  1  0  0  0  0
 23 26  1  0  0  0  0
 25 27  1  0  0  0  0
 26 28  2  0  0  0  0
 26 29  1  0  0  0  0
 27 30  1  0  0  0  0
 27 31  1  0  0  0  0
 28 32  1  0  0  0  0
 29 33  2  0  0  0  0
 30 34  1  6  0  0  0
 30 35  1  0  0  0  0
 31 36  1  0  0  0  0
 32 37  2  0  0  0  0
 34 38  2  0  0  0  0
 34 39  1  0  0  0  0
 35 40  1  0  0  0  0
 39 41  1  0  0  0  0
 40 42  1  0  0  0  0
 41 43  1  0  0  0  0
 41 44  1  0  0  0  0
 41 45  1  0  0  0  0
 42 46  1  0  0  0  0
 46 47  2  0  0  0  0
 46 48  1  0  0  0  0
 47 49  1  0  0  0  0
 47 50  1  0  0  0  0
 48 51  2  0  0  0  0
 49 52  2  0  0  0  0
 49 53  1  0  0  0  0
 50 54  1  0  0  0  0
  4  6  1  0  0  0  0
 33 37  1  0  0  0  0
 36 40  1  0  0  0  0
 51 52  1  0  0  0  0
 53 54  1  0  0  0  0
M  END
>  <MolRegNo>
2038717

>  <m>
=

>  <Value>
12000

>  <Unit>
nM

>  <Type>
IC50

>  <pValue>
4.92

>  <Ligand Efficiency>
0

>  <Binding Efficiency>
0

>  <Surface Efficiency>
0

>  <Assay Index>
51808

>  <Assay Category>


>  <Assay Organism>
Homo sapiens

>  <Target ID>
17045

>  <Target Name>
Cytochrome P450 3A4

>  <Target Organism>
Homo sapiens

>  <Target Description>
Target is a single protein chain

>  <Sequence Accession>
P08684

>  <Reference>
Bioorg Med Chem Lett 8 (24), 3531-3536 (1998)

>  <Pubmed ID>
9934466

>  <DOI>
10.1016/s0960-894x(98)00653-2

$$$$
140211
Actelion Java MolfileCreator 1.0

 47 51  0  0  0  0  0  0  0  0999 V2000
    0.0000   -0.0000   -0.0000 Cl  0  0  0  0  0  0  0  0  0  0  0  0
   -1.3508   -0.6754   -0.0000 C   0  0  0  0  0  0  0  0  0  0  0  0
   -2.6186    0.0948   -0.0000 C   0  0  0  0  0  0  0  0  0  0  0  0
   -1.4337   -2.1565   -0.0000 C   0  0  0  0  0  0  0  0  0  0  0  0
   -3.9813   -0.5806   -0.0000 C   0  0  0  0  0  0  0  0  0  0  0  0
   -2.7727   -2.8319   -0.0000 C   0  0  0  0  0  0  0  0  0  0  0  0
   -4.0642   -2.0617   -0.0000 C   0  0  0  0  0  0  0  0  0  0  0  0
   -5.4031   -2.7490   -0.0000 C   0  0  0  0  0  0  0  0  0  0  0  0
   -6.6947   -1.9669   -0.0000 C   0  0  0  0  0  0  0  0  0  0  0  0
   -5.4861   -4.2182   -0.0000 C   0  0  0  0  0  0  0  0  0  0  0  0
   -8.0336   -2.6423   -0.0000 C   0  0  0  0  0  0  0  0  0  0  0  0
   -6.8487   -4.8936   -0.0000 C   0  0  0  0  0  0  0  0  0  0  0  0
   -8.1165   -4.1116   -0.0000 C   0  0  0  0  0  0  0  0  0  0  0  0
   -9.4555   -4.8225   -0.0000 C   0  0  0  0  0  0  0  0  0  0  0  0
  -10.7352   -3.9931   -0.0000 N   0  0  0  0  0  0  0  0  0  0  0  0
  -10.6759   -2.5001   -0.0000 C   0  0  0  0  0  0  0  0  0  0  0  0
  -12.0978   -4.6803   -0.0000 C   0  0  0  0  0  0  0  0  0  0  0  0
   -9.3488   -1.8010   -0.0000 O   0  0  0  0  0  0  0  0  0  0  0  0
  -11.9438   -1.7181   -0.0000 C   0  0  0  0  0  0  0  0  0  0  0  0
  -13.3656   -3.8509   -0.0000 C   0  0  0  0  0  0  0  0  0  0  0  0
  -11.8845   -0.2251   -0.0000 N   0  0  0  0  0  0  0  0  0  0  0  0
  -14.7164   -4.5382   -0.0000 C   0  0  0  0  0  0  0  0  0  0  0  0
  -13.1642    0.5688   -0.0000 C   0  0  0  0  0  0  0  0  0  0  0  0
  -10.5456    0.4740   -0.0000 C   0  0  0  0  0  0  0  0  0  0  0  0
  -15.9843   -3.7087   -0.0000 N   0  0  0  0  0  0  0  0  0  0  0  0
  -14.5031   -0.1066   -0.0000 S   0  0  0  0  0  0  0  0  0  0  0  0
  -13.1050    2.0617   -0.0000 N   0  0  0  0  0  0  0  0  0  0  0  0
  -10.5100    1.9669   -0.0000 C   0  0  0  0  0  0  0  0  0  0  0  0
  -15.9487   -2.1921   -0.0000 C   0  0  0  0  0  0  0  0  0  0  0  0
  -17.3350   -4.3841   -0.0000 C   0  0  0  0  0  0  0  0  0  0  0  0
  -15.7710    0.6754   -0.0000 C   0  0  0  0  0  0  0  0  0  0  0  0
  -11.7660    2.7727   -0.0000 C   0  0  0  0  0  0  0  0  0  0  0  0
   -9.1830    2.6897   -0.0000 C   0  0  0  0  0  0  0  0  0  0  0  0
  -17.1218   -0.0118   -0.0000 C   0  0  0  0  0  0  0  0  0  0  0  0
  -11.7068    4.2538   -0.0000 O   0  0  0  0  0  0  0  0  0  0  0  0
   -7.9151    1.9077   -0.0000 C   0  0  0  0  0  0  0  0  0  0  0  0
  -17.2047   -1.4930   -0.0000 C   0  0  0  0  0  0  0  0  0  0  0  0
  -18.3896    0.7702   -0.0000 C   0  0  0  0  0  0  0  0  0  0  0  0
   -6.6473    1.1375   -0.0000 C   0  0  0  0  0  0  0  0  0  0  0  0
   -7.5715    3.3770   -0.0000 C   0  0  0  0  0  0  0  0  0  0  0  0
  -18.5673   -2.1802   -0.0000 C   0  0  0  0  0  0  0  0  0  0  0  0
  -19.7285    0.0948   -0.0000 C   0  0  0  0  0  0  0  0  0  0  0  0
   -5.5098    2.1091   -0.0000 N   0  0  0  0  0  0  0  0  0  0  0  0
   -6.0785    3.4836   -0.0000 N   0  0  0  0  0  0  0  0  0  0  0  0
  -19.8352   -1.3745   -0.0000 C   0  0  0  0  0  0  0  0  0  0  0  0
   -5.3202    4.7514   -0.0000 C   0  0  0  0  0  0  0  0  0  0  0  0
  -21.1741   -2.0617   -0.0000 F   0  0  0  0  0  0  0  0  0  0  0  0
  1  2  1  0  0  0  0
  2  3  2  0  0  0  0
  2  4  1  0  0  0  0
  3  5  1  0  0  0  0
  4  6  2  0  0  0  0
  5  7  2  0  0  0  0
  7  8  1  0  0  0  0
  8  9  2  0  0  0  0
  8 10  1  0  0  0  0
  9 11  1  0  0  0  0
 10 12  2  0  0  0  0
 11 13  2  0  0  0  0
 13 14  1  0  0  0  0
 14 15  1  0  0  0  0
 15 16  1  0  0  0  0
 15 17  1  0  0  0  0
 16 18  2  0  0  0  0
 16 19  1  0  0  0  0
 17 20  1  0  0  0  0
 19 21  1  0  0  0  0
 20 22  1  0  0  0  0
 21 23  1  0  0  0  0
 21 24  1  0  0  0  0
 22 25  1  0  0  0  0
 23 26  1  0  0  0  0
 23 27  2  0  0  0  0
 24 28  2  0  0  0  0
 25 29  1  0  0  0  0
 25 30  1  0  0  0  0
 26 31  1  0  0  0  0
 27 32  1  0  0  0  0
 28 33  1  0  0  0  0
 31 34  1  0  0  0  0
 32 35  2  0  0  0  0
 33 36  1  0  0  0  0
 34 37  2  0  0  0  0
 34 38  1  0  0  0  0
 36 39  1  0  0  0  0
 36 40  2  0  0  0  0
 37 41  1  0  0  0  0
 38 42  2  0  0  0  0
 39 43  2  0  0  0  0
 40 44  1  0  0  0  0
 41 45  2  0  0  0  0
 44 46  1  0  0  0  0
 45 47  1  0  0  0  0
  6  7  1  0  0  0  0
 12 13  1  0  0  0  0
 28 32  1  0  0  0  0
 42 45  1  0  0  0  0
 43 44  1  0  0  0  0
M  END
>  <MolRegNo>
140211

>  <m>
=

>  <Value>
17000

>  <Unit>
nM

>  <Type>
IC50

>  <pValue>
4.77

>  <Ligand Efficiency>
0

>  <Binding Efficiency>
0

>  <Surface Efficiency>
0

>  <Assay Index>
44619

>  <Assay Category>


>  <Assay Organism>


>  <Target ID>
17045

>  <Target Name>
Cytochrome P450 3A4

>  <Target Organism>
Homo sapiens

>  <Target Description>
Target is a single protein chain

>  <Sequence Accession>
P08684

>  <Reference>
Bioorg Med Chem Lett 12 (18), 2603-2606 (2002)

>  <Pubmed ID>
12182870

>  <DOI>
10.1016/s0960-894x(02)00473-0

$$$$
140210
Actelion Java MolfileCreator 1.0

 49 53  0  0  0  0  0  0  0  0999 V2000
    0.0000   -0.0000   -0.0000 Cl  0  0  0  0  0  0  0  0  0  0  0  0
   -1.3388   -0.6872   -0.0000 C   0  0  0  0  0  0  0  0  0  0  0  0
   -2.6184    0.0948   -0.0000 C   0  0  0  0  0  0  0  0  0  0  0  0
   -1.4217   -2.1682   -0.0000 C   0  0  0  0  0  0  0  0  0  0  0  0
   -3.9572   -0.5805   -0.0000 C   0  0  0  0  0  0  0  0  0  0  0  0
   -2.7724   -2.8553   -0.0000 C   0  0  0  0  0  0  0  0  0  0  0  0
   -4.0401   -2.0497   -0.0000 C   0  0  0  0  0  0  0  0  0  0  0  0
   -5.3908   -2.7487   -0.0000 C   0  0  0  0  0  0  0  0  0  0  0  0
   -6.6585   -1.9668   -0.0000 C   0  0  0  0  0  0  0  0  0  0  0  0
   -5.4737   -4.2179   -0.0000 C   0  0  0  0  0  0  0  0  0  0  0  0
   -8.0092   -2.6421   -0.0000 C   0  0  0  0  0  0  0  0  0  0  0  0
   -6.8125   -4.9050   -0.0000 C   0  0  0  0  0  0  0  0  0  0  0  0
   -8.0921   -4.1112   -0.0000 C   0  0  0  0  0  0  0  0  0  0  0  0
   -9.4309   -4.8339   -0.0000 C   0  0  0  0  0  0  0  0  0  0  0  0
  -10.7224   -4.0164   -0.0000 N   0  0  0  0  0  0  0  0  0  0  0  0
  -10.6631   -2.5118   -0.0000 C   0  0  0  0  0  0  0  0  0  0  0  0
  -12.0612   -4.6918   -0.0000 C   0  0  0  0  0  0  0  0  0  0  0  0
   -9.3243   -1.8127   -0.0000 O   0  0  0  0  0  0  0  0  0  0  0  0
  -11.9308   -1.7298   -0.0000 C   0  0  0  0  0  0  0  0  0  0  0  0
  -13.3407   -3.8624   -0.0000 C   0  0  0  0  0  0  0  0  0  0  0  0
  -11.8716   -0.2488   -0.0000 N   0  0  0  0  0  0  0  0  0  0  0  0
  -14.7033   -4.5614   -0.0000 C   0  0  0  0  0  0  0  0  0  0  0  0
  -13.1393    0.5569   -0.0000 C   0  0  0  0  0  0  0  0  0  0  0  0
  -10.5328    0.4621   -0.0000 C   0  0  0  0  0  0  0  0  0  0  0  0
  -15.9710   -3.7321   -0.0000 N   0  0  0  0  0  0  0  0  0  0  0  0
  -14.4781   -0.1303   -0.0000 S   0  0  0  0  0  0  0  0  0  0  0  0
  -13.0801    2.0497   -0.0000 N   0  0  0  0  0  0  0  0  0  0  0  0
  -10.4854    1.9549   -0.0000 C   0  0  0  0  0  0  0  0  0  0  0  0
  -17.3335   -4.4193   -0.0000 C   0  0  0  0  0  0  0  0  0  0  0  0
  -15.9236   -2.2156   -0.0000 C   0  0  0  0  0  0  0  0  0  0  0  0
  -15.7577    0.6516   -0.0000 C   0  0  0  0  0  0  0  0  0  0  0  0
  -11.7650    2.7487   -0.0000 C   0  0  0  0  0  0  0  0  0  0  0  0
   -9.1703    2.6776   -0.0000 C   0  0  0  0  0  0  0  0  0  0  0  0
  -17.4164   -5.9121   -0.0000 C   0  0  0  0  0  0  0  0  0  0  0  0
  -14.6085   -1.5165   -0.0000 C   0  0  0  0  0  0  0  0  0  0  0  0
  -17.0965   -0.0237   -0.0000 C   0  0  0  0  0  0  0  0  0  0  0  0
  -11.7057    4.2297   -0.0000 O   0  0  0  0  0  0  0  0  0  0  0  0
   -7.9144    1.8957   -0.0000 C   0  0  0  0  0  0  0  0  0  0  0  0
  -17.1795   -1.4928   -0.0000 C   0  0  0  0  0  0  0  0  0  0  0  0
  -18.3761    0.7583   -0.0000 C   0  0  0  0  0  0  0  0  0  0  0  0
   -6.6467    1.1137   -0.0000 C   0  0  0  0  0  0  0  0  0  0  0  0
   -7.5708    3.3648   -0.0000 C   0  0  0  0  0  0  0  0  0  0  0  0
  -18.5301   -2.1919   -0.0000 C   0  0  0  0  0  0  0  0  0  0  0  0
  -19.7149    0.0829   -0.0000 C   0  0  0  0  0  0  0  0  0  0  0  0
   -5.5093    2.0852   -0.0000 N   0  0  0  0  0  0  0  0  0  0  0  0
   -6.0780    3.4714   -0.0000 N   0  0  0  0  0  0  0  0  0  0  0  0
  -19.7979   -1.3981   -0.0000 C   0  0  0  0  0  0  0  0  0  0  0  0
   -5.3197    4.7392   -0.0000 C   0  0  0  0  0  0  0  0  0  0  0  0
  -21.1485   -2.0734   -0.0000 F   0  0  0  0  0  0  0  0  0  0  0  0
  1  2  1  0  0  0  0
  2  3  2  0  0  0  0
  2  4  1  0  0  0  0
  3  5  1  0  0  0  0
  4  6  2  0  0  0  0
  5  7  2  0  0  0  0
  7  8  1  0  0  0  0
  8  9  2  0  0  0  0
  8 10  1  0  0  0  0
  9 11  1  0  0  0  0
 10 12  2  0  0  0  0
 11 13  2  0  0  0  0
 13 14  1  0  0  0  0
 14 15  1  0  0  0  0
 15 16  1  0  0  0  0
 15 17  1  0  0  0  0
 16 18  2  0  0  0  0
 16 19  1  0  0  0  0
 17 20  1  0  0  0  0
 19 21  1  0  0  0  0
 20 22  1  0  0  0  0
 21 23  1  0  0  0  0
 21 24  1  0  0  0  0
 22 25  1  0  0  0  0
 23 26  1  0  0  0  0
 23 27  2  0  0  0  0
 24 28  2  0  0  0  0
 25 29  1  0  0  0  0
 25 30  1  0  0  0  0
 26 31  1  0  0  0  0
 27 32  1  0  0  0  0
 28 33  1  0  0  0  0
 29 34  1  0  0  0  0
 30 35  1  0  0  0  0
 31 36  1  0  0  0  0
 32 37  2  0  0  0  0
 33 38  1  0  0  0  0
 36 39  2  0  0  0  0
 36 40  1  0  0  0  0
 38 41  1  0  0  0  0
 38 42  2  0  0  0  0
 39 43  1  0  0  0  0
 40 44  2  0  0  0  0
 41 45  2  0  0  0  0
 42 46  1  0  0  0  0
 43 47  2  0  0  0  0
 46 48  1  0  0  0  0
 47 49  1  0  0  0  0
  6  7  1  0  0  0  0
 12 13  1  0  0  0  0
 28 32  1  0  0  0  0
 44 47  1  0  0  0  0
 45 46  1  0  0  0  0
M  END
>  <MolRegNo>
140210

>  <m>
=

>  <Value>
2000

>  <Unit>
nM

>  <Type>
IC50

>  <pValue>
5.7

>  <Ligand Efficiency>
0

>  <Binding Efficiency>
0

>  <Surface Efficiency>
0

>  <Assay Index>
44619

>  <Assay Category>


>  <Assay Organism>


>  <Target ID>
17045

>  <Target Name>
Cytochrome P450 3A4

>  <Target Organism>
Homo sapiens

>  <Target Description>
Target is a single protein chain

>  <Sequence Accession>
P08684

>  <Reference>
Bioorg Med Chem Lett 12 (18), 2603-2606 (2002)

>  <Pubmed ID>
12182870

>  <DOI>
10.1016/s0960-894x(02)00473-0

$$$$
140912
Actelion Java MolfileCreator 1.0

 48 52  0  0  0  0  0  0  0  0999 V2000
    0.0000   -0.0000   -0.0000 S   0  0  0  0  0  0  0  0  0  0  0  0
    1.3211    0.7141   -0.0000 C   0  0  0  0  0  0  0  0  0  0  0  0
   -1.2735    0.7855   -0.0000 C   0  0  0  0  0  0  0  0  0  0  0  0
    1.3806    2.2138   -0.0000 N   0  0  0  0  0  0  0  0  0  0  0  0
    2.5827   -0.0714   -0.0000 N   0  0  0  0  0  0  0  0  0  0  0  0
   -2.6304    0.1071   -0.0000 C   0  0  0  0  0  0  0  0  0  0  0  0
    2.7256    2.9160   -0.0000 C   0  0  0  0  0  0  0  0  0  0  0  0
    3.9277    0.6427   -0.0000 C   0  0  0  0  0  0  0  0  0  0  0  0
    2.4994   -1.5354   -0.0000 C   0  0  0  0  0  0  0  0  0  0  0  0
   -3.9039    0.8927   -0.0000 C   0  0  0  0  0  0  0  0  0  0  0  0
   -2.7137   -1.3687   -0.0000 C   0  0  0  0  0  0  0  0  0  0  0  0
    2.7851    4.4038   -0.0000 O   0  0  0  0  0  0  0  0  0  0  0  0
    3.9753    2.1424   -0.0000 C   0  0  0  0  0  0  0  0  0  0  0  0
    3.7491   -2.3209   -0.0000 C   0  0  0  0  0  0  0  0  0  0  0  0
   -5.2726    0.2142   -0.0000 C   0  0  0  0  0  0  0  0  0  0  0  0
   -4.0586   -2.0710   -0.0000 C   0  0  0  0  0  0  0  0  0  0  0  0
    5.3083    2.8684   -0.0000 C   0  0  0  0  0  0  0  0  0  0  0  0
    5.0822   -1.6068   -0.0000 O   0  0  0  0  0  0  0  0  0  0  0  0
    3.6658   -3.7968   -0.0000 N   0  0  0  0  0  0  0  0  0  0  0  0
   -5.3559   -1.2735   -0.0000 C   0  0  0  0  0  0  0  0  0  0  0  0
    6.5818    2.0829   -0.0000 C   0  0  0  0  0  0  0  0  0  0  0  0
    4.9275   -4.5942   -0.0000 C   0  0  0  0  0  0  0  0  0  0  0  0
    2.2971   -4.4752   -0.0000 C   0  0  0  0  0  0  0  0  0  0  0  0
   -6.7009   -1.9519   -0.0000 F   0  0  0  0  0  0  0  0  0  0  0  0
    7.8316    1.2973   -0.0000 C   0  0  0  0  0  0  0  0  0  0  0  0
    6.9270    3.5587   -0.0000 C   0  0  0  0  0  0  0  0  0  0  0  0
    6.2486   -3.8444   -0.0000 C   0  0  0  0  0  0  0  0  0  0  0  0
    2.2138   -5.9748   -0.0000 C   0  0  0  0  0  0  0  0  0  0  0  0
    8.9861    2.2733   -0.0000 N   0  0  0  0  0  0  0  0  0  0  0  0
    8.4267    3.6658   -0.0000 N   0  0  0  0  0  0  0  0  0  0  0  0
    7.4983   -4.6299   -0.0000 C   0  0  0  0  0  0  0  0  0  0  0  0
    6.3081   -2.3447   -0.0000 C   0  0  0  0  0  0  0  0  0  0  0  0
    0.8689   -6.6533   -0.0000 O   0  0  0  0  0  0  0  0  0  0  0  0
    3.4873   -6.7604   -0.0000 O   0  0  0  0  0  0  0  0  0  0  0  0
    9.1884    4.9394   -0.0000 C   0  0  0  0  0  0  0  0  0  0  0  0
    8.8432   -3.9158   -0.0000 C   0  0  0  0  0  0  0  0  0  0  0  0
    7.6292   -1.6425   -0.0000 C   0  0  0  0  0  0  0  0  0  0  0  0
    8.9027   -2.4161   -0.0000 C   0  0  0  0  0  0  0  0  0  0  0  0
   10.2239   -1.6901   -0.0000 C   0  0  0  0  0  0  0  0  0  0  0  0
   11.4855   -2.4756   -0.0000 C   0  0  0  0  0  0  0  0  0  0  0  0
   10.2834   -0.1904   -0.0000 C   0  0  0  0  0  0  0  0  0  0  0  0
   12.8066   -1.7615   -0.0000 C   0  0  0  0  0  0  0  0  0  0  0  0
   11.6283    0.5118   -0.0000 C   0  0  0  0  0  0  0  0  0  0  0  0
   12.8661   -0.2499   -0.0000 C   0  0  0  0  0  0  0  0  0  0  0  0
   14.1992    0.4642   -0.0000 C   0  0  0  0  0  0  0  0  0  0  0  0
   15.4489   -0.3214   -0.0000 F   0  0  0  0  0  0  0  0  0  0  0  0
   14.2349    1.9876   -0.0000 F   0  0  0  0  0  0  0  0  0  0  0  0
   14.5205   -0.9998   -0.0000 F   0  0  0  0  0  0  0  0  0  0  0  0
  1  2  1  0  0  0  0
  1  3  1  0  0  0  0
  2  4  2  0  0  0  0
  2  5  1  0  0  0  0
  3  6  1  0  0  0  0
  4  7  1  0  0  0  0
  5  8  1  0  0  0  0
  5  9  1  0  0  0  0
  6 10  2  0  0  0  0
  6 11  1  0  0  0  0
  7 12  2  0  0  0  0
  7 13  1  0  0  0  0
  9 14  1  0  0  0  0
 10 15  1  0  0  0  0
 11 16  2  0  0  0  0
 13 17  1  0  0  0  0
 14 18  2  0  0  0  0
 14 19  1  0  0  0  0
 15 20  2  0  0  0  0
 17 21  1  0  0  0  0
 19 22  1  0  0  0  0
 19 23  1  0  0  0  0
 20 24  1  0  0  0  0
 21 25  1  0  0  0  0
 21 26  2  0  0  0  0
 22 27  1  0  0  0  0
 23 28  1  0  0  0  0
 25 29  2  0  0  0  0
 26 30  1  0  0  0  0
 27 31  2  0  0  0  0
 27 32  1  0  0  0  0
 28 33  2  0  0  0  0
 28 34  1  0  0  0  0
 30 35  1  0  0  0  0
 31 36  1  0  0  0  0
 32 37  2  0  0  0  0
 36 38  2  0  0  0  0
 38 39  1  0  0  0  0
 39 40  2  0  0  0  0
 39 41  1  0  0  0  0
 40 42  1  0  0  0  0
 41 43  2  0  0  0  0
 42 44  2  0  0  0  0
 44 45  1  0  0  0  0
 45 46  1  0  0  0  0
 45 47  1  0  0  0  0
 45 48  1  0  0  0  0
  8 13  2  0  0  0  0
 16 20  1  0  0  0  0
 29 30  1  0  0  0  0
 37 38  1  0  0  0  0
 43 44  1  0  0  0  0
M  END
>  <MolRegNo>
140912

>  <m>
=

>  <Value>
31000

>  <Unit>
nM

>  <Type>
IC50

>  <pValue>
4.51

>  <Ligand Efficiency>
0

>  <Binding Efficiency>
0

>  <Surface Efficiency>
0

>  <Assay Index>
44619

>  <Assay Category>


>  <Assay Organism>


>  <Target ID>
17045

>  <Target Name>
Cytochrome P450 3A4

>  <Target Organism>
Homo sapiens

>  <Target Description>
Target is a single protein chain

>  <Sequence Accession>
P08684

>  <Reference>
Bioorg Med Chem Lett 12 (18), 2603-2606 (2002)

>  <Pubmed ID>
12182870

>  <DOI>
10.1016/s0960-894x(02)00473-0

$$$$
140586
Actelion Java MolfileCreator 1.0

 44 48  0  0  0  0  0  0  0  0999 V2000
    0.0000   -0.0000   -0.0000 Cl  0  0  0  0  0  0  0  0  0  0  0  0
   -1.3530   -0.6765   -0.0000 C   0  0  0  0  0  0  0  0  0  0  0  0
   -2.6230    0.0950   -0.0000 C   0  0  0  0  0  0  0  0  0  0  0  0
   -1.4361   -2.1601   -0.0000 C   0  0  0  0  0  0  0  0  0  0  0  0
   -3.9879   -0.5816   -0.0000 C   0  0  0  0  0  0  0  0  0  0  0  0
   -2.7773   -2.8366   -0.0000 C   0  0  0  0  0  0  0  0  0  0  0  0
   -4.0710   -2.0652   -0.0000 C   0  0  0  0  0  0  0  0  0  0  0  0
   -5.4122   -2.7536   -0.0000 C   0  0  0  0  0  0  0  0  0  0  0  0
   -5.4952   -4.2253   -0.0000 C   0  0  0  0  0  0  0  0  0  0  0  0
   -6.7058   -1.9702   -0.0000 C   0  0  0  0  0  0  0  0  0  0  0  0
   -6.8601   -4.9018   -0.0000 C   0  0  0  0  0  0  0  0  0  0  0  0
   -8.0470   -2.6467   -0.0000 C   0  0  0  0  0  0  0  0  0  0  0  0
   -8.1301   -4.1185   -0.0000 C   0  0  0  0  0  0  0  0  0  0  0  0
   -9.4713   -4.8306   -0.0000 C   0  0  0  0  0  0  0  0  0  0  0  0
  -10.7531   -3.9998   -0.0000 N   0  0  0  0  0  0  0  0  0  0  0  0
  -10.6938   -2.5043   -0.0000 C   0  0  0  0  0  0  0  0  0  0  0  0
  -12.0943   -4.6882   -0.0000 C   0  0  0  0  0  0  0  0  0  0  0  0
   -9.3645   -1.8041   -0.0000 O   0  0  0  0  0  0  0  0  0  0  0  0
  -11.9637   -1.7210   -0.0000 C   0  0  0  0  0  0  0  0  0  0  0  0
  -12.1773   -6.1836   -0.0000 C   0  0  0  0  0  0  0  0  0  0  0  0
  -11.9044   -0.2255   -0.0000 N   0  0  0  0  0  0  0  0  0  0  0  0
  -10.9311   -6.9788   -0.0000 N   0  0  0  0  0  0  0  0  0  0  0  0
  -13.1862    0.5697   -0.0000 C   0  0  0  0  0  0  0  0  0  0  0  0
  -10.5632    0.4748   -0.0000 C   0  0  0  0  0  0  0  0  0  0  0  0
  -14.5274   -0.1068   -0.0000 S   0  0  0  0  0  0  0  0  0  0  0  0
  -13.1268    2.0652   -0.0000 N   0  0  0  0  0  0  0  0  0  0  0  0
  -10.5276    1.9702   -0.0000 C   0  0  0  0  0  0  0  0  0  0  0  0
  -15.7973    0.6765   -0.0000 C   0  0  0  0  0  0  0  0  0  0  0  0
  -11.7857    2.7773   -0.0000 C   0  0  0  0  0  0  0  0  0  0  0  0
   -9.1983    2.6942   -0.0000 C   0  0  0  0  0  0  0  0  0  0  0  0
  -17.1504   -0.0119   -0.0000 C   0  0  0  0  0  0  0  0  0  0  0  0
  -11.7263    4.2609   -0.0000 O   0  0  0  0  0  0  0  0  0  0  0  0
   -7.9283    1.9109   -0.0000 C   0  0  0  0  0  0  0  0  0  0  0  0
  -18.4203    0.7715   -0.0000 C   0  0  0  0  0  0  0  0  0  0  0  0
  -17.2334   -1.4955   -0.0000 C   0  0  0  0  0  0  0  0  0  0  0  0
   -6.6821    1.1394   -0.0000 C   0  0  0  0  0  0  0  0  0  0  0  0
   -7.5841    3.3826   -0.0000 C   0  0  0  0  0  0  0  0  0  0  0  0
  -19.7852    0.0950   -0.0000 C   0  0  0  0  0  0  0  0  0  0  0  0
  -18.5746   -2.1839   -0.0000 C   0  0  0  0  0  0  0  0  0  0  0  0
   -5.5308    2.1126   -0.0000 N   0  0  0  0  0  0  0  0  0  0  0  0
   -6.0887    3.4894   -0.0000 N   0  0  0  0  0  0  0  0  0  0  0  0
  -19.8683   -1.3768   -0.0000 C   0  0  0  0  0  0  0  0  0  0  0  0
   -5.3291    4.7594   -0.0000 C   0  0  0  0  0  0  0  0  0  0  0  0
  -21.2095   -2.0652   -0.0000 F   0  0  0  0  0  0  0  0  0  0  0  0
  1  2  1  0  0  0  0
  2  3  2  0  0  0  0
  2  4  1  0  0  0  0
  3  5  1  0  0  0  0
  4  6  2  0  0  0  0
  5  7  2  0  0  0  0
  7  8  1  0  0  0  0
  8  9  2  0  0  0  0
  8 10  1  0  0  0  0
  9 11  1  0  0  0  0
 10 12  2  0  0  0  0
 11 13  2  0  0  0  0
 13 14  1  0  0  0  0
 14 15  1  0  0  0  0
 15 16  1  0  0  0  0
 15 17  1  0  0  0  0
 16 18  2  0  0  0  0
 16 19  1  0  0  0  0
 17 20  1  0  0  0  0
 19 21  1  0  0  0  0
 20 22  1  0  0  0  0
 21 23  1  0  0  0  0
 21 24  1  0  0  0  0
 23 25  1  0  0  0  0
 23 26  2  0  0  0  0
 24 27  2  0  0  0  0
 25 28  1  0  0  0  0
 26 29  1  0  0  0  0
 27 30  1  0  0  0  0
 28 31  1  0  0  0  0
 29 32  2  0  0  0  0
 30 33  1  0  0  0  0
 31 34  2  0  0  0  0
 31 35  1  0  0  0  0
 33 36  1  0  0  0  0
 33 37  2  0  0  0  0
 34 38  1  0  0  0  0
 35 39  2  0  0  0  0
 36 40  2  0  0  0  0
 37 41  1  0  0  0  0
 38 42  2  0  0  0  0
 41 43  1  0  0  0  0
 42 44  1  0  0  0  0
  6  7  1  0  0  0  0
 12 13  1  0  0  0  0
 27 29  1  0  0  0  0
 39 42  1  0  0  0  0
 40 41  1  0  0  0  0
M  END
>  <MolRegNo>
140586

>  <m>
=

>  <Value>
15000

>  <Unit>
nM

>  <Type>
IC50

>  <pValue>
4.82

>  <Ligand Efficiency>
0

>  <Binding Efficiency>
0

>  <Surface Efficiency>
0

>  <Assay Index>
44619

>  <Assay Category>


>  <Assay Organism>


>  <Target ID>
17045

>  <Target Name>
Cytochrome P450 3A4

>  <Target Organism>
Homo sapiens

>  <Target Description>
Target is a single protein chain

>  <Sequence Accession>
P08684

>  <Reference>
Bioorg Med Chem Lett 12 (18), 2603-2606 (2002)

>  <Pubmed ID>
12182870

>  <DOI>
10.1016/s0960-894x(02)00473-0

$$$$
141798
Actelion Java MolfileCreator 1.0

 44 48  0  0  0  0  0  0  0  0999 V2000
    0.0000   -0.0000   -0.0000 Cl  0  0  0  0  0  0  0  0  0  0  0  0
   -1.3413   -0.6885   -0.0000 C   0  0  0  0  0  0  0  0  0  0  0  0
   -2.6115    0.0950   -0.0000 C   0  0  0  0  0  0  0  0  0  0  0  0
   -1.4244   -2.1723   -0.0000 C   0  0  0  0  0  0  0  0  0  0  0  0
   -3.9765   -0.5816   -0.0000 C   0  0  0  0  0  0  0  0  0  0  0  0
   -2.7658   -2.8607   -0.0000 C   0  0  0  0  0  0  0  0  0  0  0  0
   -4.0596   -2.0536   -0.0000 C   0  0  0  0  0  0  0  0  0  0  0  0
   -5.4010   -2.7539   -0.0000 C   0  0  0  0  0  0  0  0  0  0  0  0
   -5.4841   -4.2258   -0.0000 C   0  0  0  0  0  0  0  0  0  0  0  0
   -6.6948   -1.9705   -0.0000 C   0  0  0  0  0  0  0  0  0  0  0  0
   -6.8491   -4.9143   -0.0000 C   0  0  0  0  0  0  0  0  0  0  0  0
   -8.0362   -2.6471   -0.0000 C   0  0  0  0  0  0  0  0  0  0  0  0
   -8.1192   -4.1071   -0.0000 C   0  0  0  0  0  0  0  0  0  0  0  0
   -9.4725   -4.8074   -0.0000 C   0  0  0  0  0  0  0  0  0  0  0  0
  -10.7426   -4.0121   -0.0000 N   0  0  0  0  0  0  0  0  0  0  0  0
  -10.6832   -2.5165   -0.0000 C   0  0  0  0  0  0  0  0  0  0  0  0
  -12.0839   -4.6887   -0.0000 C   0  0  0  0  0  0  0  0  0  0  0  0
   -9.3537   -1.8043   -0.0000 O   0  0  0  0  0  0  0  0  0  0  0  0
  -11.9533   -1.7093   -0.0000 C   0  0  0  0  0  0  0  0  0  0  0  0
  -12.1670   -6.1844   -0.0000 C   0  0  0  0  0  0  0  0  0  0  0  0
  -11.8940   -0.2255   -0.0000 N   0  0  0  0  0  0  0  0  0  0  0  0
  -10.9206   -6.9678   -0.0000 O   0  0  0  0  0  0  0  0  0  0  0  0
  -13.1760    0.5816   -0.0000 C   0  0  0  0  0  0  0  0  0  0  0  0
  -10.5526    0.4867   -0.0000 C   0  0  0  0  0  0  0  0  0  0  0  0
  -14.5173   -0.1068   -0.0000 S   0  0  0  0  0  0  0  0  0  0  0  0
  -13.1166    2.0773   -0.0000 N   0  0  0  0  0  0  0  0  0  0  0  0
  -10.5170    1.9823   -0.0000 C   0  0  0  0  0  0  0  0  0  0  0  0
  -15.7874    0.6766   -0.0000 C   0  0  0  0  0  0  0  0  0  0  0  0
  -11.7753    2.7776   -0.0000 C   0  0  0  0  0  0  0  0  0  0  0  0
   -9.1876    2.7064   -0.0000 C   0  0  0  0  0  0  0  0  0  0  0  0
  -17.1406   -0.0000   -0.0000 C   0  0  0  0  0  0  0  0  0  0  0  0
  -11.7159    4.2614   -0.0000 O   0  0  0  0  0  0  0  0  0  0  0  0
   -7.9175    1.9230   -0.0000 C   0  0  0  0  0  0  0  0  0  0  0  0
  -17.2237   -1.4719   -0.0000 C   0  0  0  0  0  0  0  0  0  0  0  0
  -18.4107    0.7834   -0.0000 C   0  0  0  0  0  0  0  0  0  0  0  0
   -6.6473    1.1395   -0.0000 C   0  0  0  0  0  0  0  0  0  0  0  0
   -7.5732    3.3949   -0.0000 C   0  0  0  0  0  0  0  0  0  0  0  0
  -18.5651   -2.1723   -0.0000 C   0  0  0  0  0  0  0  0  0  0  0  0
  -19.7521    0.1068   -0.0000 C   0  0  0  0  0  0  0  0  0  0  0  0
   -5.5078    2.1129   -0.0000 N   0  0  0  0  0  0  0  0  0  0  0  0
   -6.0776    3.5017   -0.0000 N   0  0  0  0  0  0  0  0  0  0  0  0
  -19.8470   -1.3769   -0.0000 C   0  0  0  0  0  0  0  0  0  0  0  0
   -5.3179    4.7718   -0.0000 C   0  0  0  0  0  0  0  0  0  0  0  0
  -21.1884   -2.0536   -0.0000 F   0  0  0  0  0  0  0  0  0  0  0  0
  1  2  1  0  0  0  0
  2  3  2  0  0  0  0
  2  4  1  0  0  0  0
  3  5  1  0  0  0  0
  4  6  2  0  0  0  0
  5  7  2  0  0  0  0
  7  8  1  0  0  0  0
  8  9  2  0  0  0  0
  8 10  1  0  0  0  0
  9 11  1  0  0  0  0
 10 12  2  0  0  0  0
 11 13  2  0  0  0  0
 13 14  1  0  0  0  0
 14 15  1  0  0  0  0
 15 16  1  0  0  0  0
 15 17  1  0  0  0  0
 16 18  2  0  0  0  0
 16 19  1  0  0  0  0
 17 20  1  0  0  0  0
 19 21  1  0  0  0  0
 20 22  1  0  0  0  0
 21 23  1  0  0  0  0
 21 24  1  0  0  0  0
 23 25  1  0  0  0  0
 23 26  2  0  0  0  0
 24 27  2  0  0  0  0
 25 28  1  0  0  0  0
 26 29  1  0  0  0  0
 27 30  1  0  0  0  0
 28 31  1  0  0  0  0
 29 32  2  0  0  0  0
 30 33  1  0  0  0  0
 31 34  2  0  0  0  0
 31 35  1  0  0  0  0
 33 36  1  0  0  0  0
 33 37  2  0  0  0  0
 34 38  1  0  0  0  0
 35 39  2  0  0  0  0
 36 40  2  0  0  0  0
 37 41  1  0  0  0  0
 38 42  2  0  0  0  0
 41 43  1  0  0  0  0
 42 44  1  0  0  0  0
  6  7  1  0  0  0  0
 12 13  1  0  0  0  0
 27 29  1  0  0  0  0
 39 42  1  0  0  0  0
 40 41  1  0  0  0  0
M  END
>  <MolRegNo>
141798

>  <m>
=

>  <Value>
19000

>  <Unit>
nM

>  <Type>
IC50

>  <pValue>
4.72

>  <Ligand Efficiency>
0

>  <Binding Efficiency>
0

>  <Surface Efficiency>
0

>  <Assay Index>
44619

>  <Assay Category>


>  <Assay Organism>


>  <Target ID>
17045

>  <Target Name>
Cytochrome P450 3A4

>  <Target Organism>
Homo sapiens

>  <Target Description>
Target is a single protein chain

>  <Sequence Accession>
P08684

>  <Reference>
Bioorg Med Chem Lett 12 (18), 2603-2606 (2002)

>  <Pubmed ID>
12182870

>  <DOI>
10.1016/s0960-894x(02)00473-0

$$$$
141296
Actelion Java MolfileCreator 1.0

 46 50  0  0  0  0  0  0  0  0999 V2000
    0.0000   -0.0000   -0.0000 Cl  0  0  0  0  0  0  0  0  0  0  0  0
   -1.3524   -0.6881   -0.0000 C   0  0  0  0  0  0  0  0  0  0  0  0
   -2.6218    0.0949   -0.0000 C   0  0  0  0  0  0  0  0  0  0  0  0
   -1.4355   -2.1710   -0.0000 C   0  0  0  0  0  0  0  0  0  0  0  0
   -3.9862   -0.5813   -0.0000 C   0  0  0  0  0  0  0  0  0  0  0  0
   -2.7761   -2.8591   -0.0000 C   0  0  0  0  0  0  0  0  0  0  0  0
   -4.0692   -2.0524   -0.0000 C   0  0  0  0  0  0  0  0  0  0  0  0
   -5.4098   -2.7523   -0.0000 C   0  0  0  0  0  0  0  0  0  0  0  0
   -6.7029   -1.9694   -0.0000 C   0  0  0  0  0  0  0  0  0  0  0  0
   -5.4928   -4.2234   -0.0000 C   0  0  0  0  0  0  0  0  0  0  0  0
   -8.0435   -2.6456   -0.0000 C   0  0  0  0  0  0  0  0  0  0  0  0
   -6.8571   -4.9115   -0.0000 C   0  0  0  0  0  0  0  0  0  0  0  0
   -8.1265   -4.1167   -0.0000 C   0  0  0  0  0  0  0  0  0  0  0  0
   -9.4790   -4.8166   -0.0000 C   0  0  0  0  0  0  0  0  0  0  0  0
  -10.7484   -4.0217   -0.0000 N   0  0  0  0  0  0  0  0  0  0  0  0
  -10.6891   -2.5269   -0.0000 C   0  0  0  0  0  0  0  0  0  0  0  0
  -12.0890   -4.6980   -0.0000 C   0  0  0  0  0  0  0  0  0  0  0  0
   -9.3603   -1.8151   -0.0000 O   0  0  0  0  0  0  0  0  0  0  0  0
  -11.9585   -1.7202   -0.0000 C   0  0  0  0  0  0  0  0  0  0  0  0
  -12.1720   -6.1928   -0.0000 C   0  0  0  0  0  0  0  0  0  0  0  0
  -11.8991   -0.2373   -0.0000 N   0  0  0  0  0  0  0  0  0  0  0  0
  -10.9263   -6.9758   -0.0000 N   0  0  0  0  0  0  0  0  0  0  0  0
  -13.1804    0.5695   -0.0000 C   0  0  0  0  0  0  0  0  0  0  0  0
  -10.5586    0.4745   -0.0000 C   0  0  0  0  0  0  0  0  0  0  0  0
   -9.5858   -6.2758   -0.0000 C   0  0  0  0  0  0  0  0  0  0  0  0
  -11.0094   -8.4706   -0.0000 C   0  0  0  0  0  0  0  0  0  0  0  0
  -14.5210   -0.1186   -0.0000 S   0  0  0  0  0  0  0  0  0  0  0  0
  -13.1211    2.0643   -0.0000 N   0  0  0  0  0  0  0  0  0  0  0  0
  -10.5230    1.9694   -0.0000 C   0  0  0  0  0  0  0  0  0  0  0  0
  -15.7904    0.6644   -0.0000 C   0  0  0  0  0  0  0  0  0  0  0  0
  -11.7805    2.7642   -0.0000 C   0  0  0  0  0  0  0  0  0  0  0  0
   -9.1943    2.6930   -0.0000 C   0  0  0  0  0  0  0  0  0  0  0  0
  -17.1428   -0.0119   -0.0000 C   0  0  0  0  0  0  0  0  0  0  0  0
  -11.7212    4.2472   -0.0000 O   0  0  0  0  0  0  0  0  0  0  0  0
   -7.9249    1.9100   -0.0000 C   0  0  0  0  0  0  0  0  0  0  0  0
  -18.4122    0.7711   -0.0000 C   0  0  0  0  0  0  0  0  0  0  0  0
  -17.2259   -1.4829   -0.0000 C   0  0  0  0  0  0  0  0  0  0  0  0
   -6.6792    1.1270   -0.0000 C   0  0  0  0  0  0  0  0  0  0  0  0
   -7.5808    3.3811   -0.0000 C   0  0  0  0  0  0  0  0  0  0  0  0
  -19.7765    0.0949   -0.0000 C   0  0  0  0  0  0  0  0  0  0  0  0
  -18.5665   -2.1829   -0.0000 C   0  0  0  0  0  0  0  0  0  0  0  0
   -5.5284    2.0998   -0.0000 N   0  0  0  0  0  0  0  0  0  0  0  0
   -6.0860    3.4879   -0.0000 N   0  0  0  0  0  0  0  0  0  0  0  0
  -19.8596   -1.3880   -0.0000 C   0  0  0  0  0  0  0  0  0  0  0  0
   -5.3267    4.7573   -0.0000 C   0  0  0  0  0  0  0  0  0  0  0  0
  -21.2002   -2.0643   -0.0000 F   0  0  0  0  0  0  0  0  0  0  0  0
  1  2  1  0  0  0  0
  2  3  2  0  0  0  0
  2  4  1  0  0  0  0
  3  5  1  0  0  0  0
  4  6  2  0  0  0  0
  5  7  2  0  0  0  0
  7  8  1  0  0  0  0
  8  9  2  0  0  0  0
  8 10  1  0  0  0  0
  9 11  1  0  0  0  0
 10 12  2  0  0  0  0
 11 13  2  0  0  0  0
 13 14  1  0  0  0  0
 14 15  1  0  0  0  0
 15 16  1  0  0  0  0
 15 17  1  0  0  0  0
 16 18  2  0  0  0  0
 16 19  1  0  0  0  0
 17 20  1  0  0  0  0
 19 21  1  0  0  0  0
 20 22  1  0  0  0  0
 21 23  1  0  0  0  0
 21 24  1  0  0  0  0
 22 25  1  0  0  0  0
 22 26  1  0  0  0  0
 23 27  1  0  0  0  0
 23 28  2  0  0  0  0
 24 29  2  0  0  0  0
 27 30  1  0  0  0  0
 28 31  1  0  0  0  0
 29 32  1  0  0  0  0
 30 33  1  0  0  0  0
 31 34  2  0  0  0  0
 32 35  1  0  0  0  0
 33 36  2  0  0  0  0
 33 37  1  0  0  0  0
 35 38  1  0  0  0  0
 35 39  2  0  0  0  0
 36 40  1  0  0  0  0
 37 41  2  0  0  0  0
 38 42  2  0  0  0  0
 39 43  1  0  0  0  0
 40 44  2  0  0  0  0
 43 45  1  0  0  0  0
 44 46  1  0  0  0  0
  6  7  1  0  0  0  0
 12 13  1  0  0  0  0
 29 31  1  0  0  0  0
 41 44  1  0  0  0  0
 42 43  1  0  0  0  0
M  END
>  <MolRegNo>
141296

>  <m>
=

>  <Value>
8000

>  <Unit>
nM

>  <Type>
IC50

>  <pValue>
5.1

>  <Ligand Efficiency>
0

>  <Binding Efficiency>
0

>  <Surface Efficiency>
0

>  <Assay Index>
44619

>  <Assay Category>


>  <Assay Organism>


>  <Target ID>
17045

>  <Target Name>
Cytochrome P450 3A4

>  <Target Organism>
Homo sapiens

>  <Target Description>
Target is a single protein chain

>  <Sequence Accession>
P08684

>  <Reference>
Bioorg Med Chem Lett 12 (18), 2603-2606 (2002)

>  <Pubmed ID>
12182870

>  <DOI>
10.1016/s0960-894x(02)00473-0

$$$$
141018
Actelion Java MolfileCreator 1.0

 51 56  0  0  0  0  0  0  0  0999 V2000
    0.0000   -0.0000   -0.0000 Cl  0  0  0  0  0  0  0  0  0  0  0  0
   -1.3520   -0.6760   -0.0000 C   0  0  0  0  0  0  0  0  0  0  0  0
   -2.6210    0.0949   -0.0000 C   0  0  0  0  0  0  0  0  0  0  0  0
   -1.4350   -2.1585   -0.0000 C   0  0  0  0  0  0  0  0  0  0  0  0
   -3.9849   -0.5811   -0.0000 C   0  0  0  0  0  0  0  0  0  0  0  0
   -2.7752   -2.8345   -0.0000 C   0  0  0  0  0  0  0  0  0  0  0  0
   -4.0679   -2.0636   -0.0000 C   0  0  0  0  0  0  0  0  0  0  0  0
   -5.4081   -2.7515   -0.0000 C   0  0  0  0  0  0  0  0  0  0  0  0
   -6.7008   -1.9687   -0.0000 C   0  0  0  0  0  0  0  0  0  0  0  0
   -5.4911   -4.2221   -0.0000 C   0  0  0  0  0  0  0  0  0  0  0  0
   -8.0409   -2.6447   -0.0000 C   0  0  0  0  0  0  0  0  0  0  0  0
   -6.8550   -4.8981   -0.0000 C   0  0  0  0  0  0  0  0  0  0  0  0
   -8.1240   -4.1153   -0.0000 C   0  0  0  0  0  0  0  0  0  0  0  0
   -9.4641   -4.8269   -0.0000 C   0  0  0  0  0  0  0  0  0  0  0  0
  -10.7450   -3.9967   -0.0000 N   0  0  0  0  0  0  0  0  0  0  0  0
  -10.6857   -2.5024   -0.0000 C   0  0  0  0  0  0  0  0  0  0  0  0
  -12.1088   -4.6846   -0.0000 C   0  0  0  0  0  0  0  0  0  0  0  0
   -9.3574   -1.8027   -0.0000 O   0  0  0  0  0  0  0  0  0  0  0  0
  -11.9547   -1.7197   -0.0000 C   0  0  0  0  0  0  0  0  0  0  0  0
  -13.3778   -3.8544   -0.0000 C   0  0  0  0  0  0  0  0  0  0  0  0
  -11.8954   -0.2253   -0.0000 N   0  0  0  0  0  0  0  0  0  0  0  0
  -14.7299   -4.5423   -0.0000 C   0  0  0  0  0  0  0  0  0  0  0  0
  -13.1762    0.5693   -0.0000 C   0  0  0  0  0  0  0  0  0  0  0  0
  -10.5552    0.4744   -0.0000 C   0  0  0  0  0  0  0  0  0  0  0  0
  -14.8129   -6.0248   -0.0000 N   0  0  0  0  0  0  0  0  0  0  0  0
  -14.5164   -0.1067   -0.0000 S   0  0  0  0  0  0  0  0  0  0  0  0
  -13.1169    2.0636   -0.0000 N   0  0  0  0  0  0  0  0  0  0  0  0
  -10.5196    1.9687   -0.0000 C   0  0  0  0  0  0  0  0  0  0  0  0
  -13.5320   -6.7838   -0.0000 C   0  0  0  0  0  0  0  0  0  0  0  0
  -16.1530   -6.7601   -0.0000 C   0  0  0  0  0  0  0  0  0  0  0  0
  -15.7854    0.6760   -0.0000 C   0  0  0  0  0  0  0  0  0  0  0  0
  -11.7768    2.7752   -0.0000 C   0  0  0  0  0  0  0  0  0  0  0  0
   -9.1913    2.6922   -0.0000 C   0  0  0  0  0  0  0  0  0  0  0  0
  -13.5557   -8.2663   -0.0000 C   0  0  0  0  0  0  0  0  0  0  0  0
  -16.1768   -8.2544   -0.0000 C   0  0  0  0  0  0  0  0  0  0  0  0
  -17.1374   -0.0119   -0.0000 C   0  0  0  0  0  0  0  0  0  0  0  0
  -11.7175    4.2577   -0.0000 O   0  0  0  0  0  0  0  0  0  0  0  0
   -7.9223    1.9094   -0.0000 C   0  0  0  0  0  0  0  0  0  0  0  0
  -14.8959   -8.9897   -0.0000 N   0  0  0  0  0  0  0  0  0  0  0  0
  -18.4064    0.7709   -0.0000 C   0  0  0  0  0  0  0  0  0  0  0  0
  -17.2204   -1.4943   -0.0000 C   0  0  0  0  0  0  0  0  0  0  0  0
   -6.6771    1.1385   -0.0000 C   0  0  0  0  0  0  0  0  0  0  0  0
   -7.5784    3.3800   -0.0000 C   0  0  0  0  0  0  0  0  0  0  0  0
  -14.9078  -10.4841   -0.0000 C   0  0  0  0  0  0  0  0  0  0  0  0
  -19.7703    0.0949   -0.0000 C   0  0  0  0  0  0  0  0  0  0  0  0
  -18.5606   -2.1822   -0.0000 C   0  0  0  0  0  0  0  0  0  0  0  0
   -5.5267    2.1110   -0.0000 N   0  0  0  0  0  0  0  0  0  0  0  0
   -6.0841    3.4868   -0.0000 N   0  0  0  0  0  0  0  0  0  0  0  0
  -19.8533   -1.3757   -0.0000 C   0  0  0  0  0  0  0  0  0  0  0  0
   -5.3250    4.7558   -0.0000 C   0  0  0  0  0  0  0  0  0  0  0  0
  -21.1934   -2.0636   -0.0000 F   0  0  0  0  0  0  0  0  0  0  0  0
  1  2  1  0  0  0  0
  2  3  2  0  0  0  0
  2  4  1  0  0  0  0
  3  5  1  0  0  0  0
  4  6  2  0  0  0  0
  5  7  2  0  0  0  0
  7  8  1  0  0  0  0
  8  9  2  0  0  0  0
  8 10  1  0  0  0  0
  9 11  1  0  0  0  0
 10 12  2  0  0  0  0
 11 13  2  0  0  0  0
 13 14  1  0  0  0  0
 14 15  1  0  0  0  0
 15 16  1  0  0  0  0
 15 17  1  0  0  0  0
 16 18  2  0  0  0  0
 16 19  1  0  0  0  0
 17 20  1  0  0  0  0
 19 21  1  0  0  0  0
 20 22  1  0  0  0  0
 21 23  1  0  0  0  0
 21 24  1  0  0  0  0
 22 25  1  0  0  0  0
 23 26  1  0  0  0  0
 23 27  2  0  0  0  0
 24 28  2  0  0  0  0
 25 29  1  0  0  0  0
 25 30  1  0  0  0  0
 26 31  1  0  0  0  0
 27 32  1  0  0  0  0
 28 33  1  0  0  0  0
 29 34  1  0  0  0  0
 30 35  1  0  0  0  0
 31 36  1  0  0  0  0
 32 37  2  0  0  0  0
 33 38  1  0  0  0  0
 34 39  1  0  0  0  0
 36 40  2  0  0  0  0
 36 41  1  0  0  0  0
 38 42  1  0  0  0  0
 38 43  2  0  0  0  0
 39 44  1  0  0  0  0
 40 45  1  0  0  0  0
 41 46  2  0  0  0  0
 42 47  2  0  0  0  0
 43 48  1  0  0  0  0
 45 49  2  0  0  0  0
 48 50  1  0  0  0  0
 49 51  1  0  0  0  0
  6  7  1  0  0  0  0
 12 13  1  0  0  0  0
 28 32  1  0  0  0  0
 35 39  1  0  0  0  0
 46 49  1  0  0  0  0
 47 48  1  0  0  0  0
M  END
>  <MolRegNo>
141018

>  <m>
=

>  <Value>
10000

>  <Unit>
nM

>  <Type>
IC50

>  <pValue>
5

>  <Ligand Efficiency>
0

>  <Binding Efficiency>
0

>  <Surface Efficiency>
0

>  <Assay Index>
44619

>  <Assay Category>


>  <Assay Organism>


>  <Target ID>
17045

>  <Target Name>
Cytochrome P450 3A4

>  <Target Organism>
Homo sapiens

>  <Target Description>
Target is a single protein chain

>  <Sequence Accession>
P08684

>  <Reference>
Bioorg Med Chem Lett 12 (18), 2603-2606 (2002)

>  <Pubmed ID>
12182870

>  <DOI>
10.1016/s0960-894x(02)00473-0

$$$$
140588
Actelion Java MolfileCreator 1.0

 48 52  0  0  0  0  0  0  0  0999 V2000
    0.0000   -0.0000   -0.0000 Cl  0  0  0  0  0  0  0  0  0  0  0  0
   -1.3523   -0.6880   -0.0000 C   0  0  0  0  0  0  0  0  0  0  0  0
   -2.6216    0.0949   -0.0000 C   0  0  0  0  0  0  0  0  0  0  0  0
   -1.4354   -2.1708   -0.0000 C   0  0  0  0  0  0  0  0  0  0  0  0
   -3.9858   -0.5813   -0.0000 C   0  0  0  0  0  0  0  0  0  0  0  0
   -2.7758   -2.8589   -0.0000 C   0  0  0  0  0  0  0  0  0  0  0  0
   -4.0688   -2.0522   -0.0000 C   0  0  0  0  0  0  0  0  0  0  0  0
   -5.4093   -2.7521   -0.0000 C   0  0  0  0  0  0  0  0  0  0  0  0
   -6.7023   -1.9692   -0.0000 C   0  0  0  0  0  0  0  0  0  0  0  0
   -5.4923   -4.2230   -0.0000 C   0  0  0  0  0  0  0  0  0  0  0  0
   -8.0427   -2.6453   -0.0000 C   0  0  0  0  0  0  0  0  0  0  0  0
   -6.8565   -4.9111   -0.0000 C   0  0  0  0  0  0  0  0  0  0  0  0
   -8.1258   -4.1163   -0.0000 C   0  0  0  0  0  0  0  0  0  0  0  0
   -9.4662   -4.8399   -0.0000 C   0  0  0  0  0  0  0  0  0  0  0  0
  -10.7474   -4.0214   -0.0000 N   0  0  0  0  0  0  0  0  0  0  0  0
  -10.6881   -2.5267   -0.0000 C   0  0  0  0  0  0  0  0  0  0  0  0
  -12.0878   -4.6975   -0.0000 C   0  0  0  0  0  0  0  0  0  0  0  0
   -9.3595   -1.8150   -0.0000 O   0  0  0  0  0  0  0  0  0  0  0  0
  -11.9574   -1.7201   -0.0000 C   0  0  0  0  0  0  0  0  0  0  0  0
  -12.1709   -6.1922   -0.0000 C   0  0  0  0  0  0  0  0  0  0  0  0
  -11.8980   -0.2372   -0.0000 N   0  0  0  0  0  0  0  0  0  0  0  0
  -10.9253   -6.9751   -0.0000 N   0  0  0  0  0  0  0  0  0  0  0  0
  -13.1792    0.5694   -0.0000 C   0  0  0  0  0  0  0  0  0  0  0  0
  -10.5576    0.4745   -0.0000 C   0  0  0  0  0  0  0  0  0  0  0  0
   -9.5849   -6.2752   -0.0000 C   0  0  0  0  0  0  0  0  0  0  0  0
  -11.0084   -8.4698   -0.0000 C   0  0  0  0  0  0  0  0  0  0  0  0
  -14.5197   -0.1186   -0.0000 S   0  0  0  0  0  0  0  0  0  0  0  0
  -13.1199    2.0641   -0.0000 N   0  0  0  0  0  0  0  0  0  0  0  0
  -10.5220    1.9692   -0.0000 C   0  0  0  0  0  0  0  0  0  0  0  0
   -8.3274   -7.0700   -0.0000 C   0  0  0  0  0  0  0  0  0  0  0  0
  -12.3488   -9.1578   -0.0000 C   0  0  0  0  0  0  0  0  0  0  0  0
  -15.7889    0.6643   -0.0000 C   0  0  0  0  0  0  0  0  0  0  0  0
  -11.7794    2.7640   -0.0000 C   0  0  0  0  0  0  0  0  0  0  0  0
   -9.1934    2.6928   -0.0000 C   0  0  0  0  0  0  0  0  0  0  0  0
  -17.1413   -0.0119   -0.0000 C   0  0  0  0  0  0  0  0  0  0  0  0
  -11.7201    4.2468   -0.0000 O   0  0  0  0  0  0  0  0  0  0  0  0
   -7.9241    1.9099   -0.0000 C   0  0  0  0  0  0  0  0  0  0  0  0
  -18.4105    0.7711   -0.0000 C   0  0  0  0  0  0  0  0  0  0  0  0
  -17.2243   -1.4828   -0.0000 C   0  0  0  0  0  0  0  0  0  0  0  0
   -6.6786    1.1269   -0.0000 C   0  0  0  0  0  0  0  0  0  0  0  0
   -7.5801    3.3689   -0.0000 C   0  0  0  0  0  0  0  0  0  0  0  0
  -19.7747    0.0949   -0.0000 C   0  0  0  0  0  0  0  0  0  0  0  0
  -18.5648   -2.1827   -0.0000 C   0  0  0  0  0  0  0  0  0  0  0  0
   -5.5279    2.0997   -0.0000 N   0  0  0  0  0  0  0  0  0  0  0  0
   -6.0854    3.4876   -0.0000 N   0  0  0  0  0  0  0  0  0  0  0  0
  -19.8578   -1.3879   -0.0000 C   0  0  0  0  0  0  0  0  0  0  0  0
   -5.3262    4.7568   -0.0000 C   0  0  0  0  0  0  0  0  0  0  0  0
  -21.1982   -2.0641   -0.0000 F   0  0  0  0  0  0  0  0  0  0  0  0
  1  2  1  0  0  0  0
  2  3  2  0  0  0  0
  2  4  1  0  0  0  0
  3  5  1  0  0  0  0
  4  6  2  0  0  0  0
  5  7  2  0  0  0  0
  7  8  1  0  0  0  0
  8  9  2  0  0  0  0
  8 10  1  0  0  0  0
  9 11  1  0  0  0  0
 10 12  2  0  0  0  0
 11 13  2  0  0  0  0
 13 14  1  0  0  0  0
 14 15  1  0  0  0  0
 15 16  1  0  0  0  0
 15 17  1  0  0  0  0
 16 18  2  0  0  0  0
 16 19  1  0  0  0  0
 17 20  1  0  0  0  0
 19 21  1  0  0  0  0
 20 22  1  0  0  0  0
 21 23  1  0  0  0  0
 21 24  1  0  0  0  0
 22 25  1  0  0  0  0
 22 26  1  0  0  0  0
 23 27  1  0  0  0  0
 23 28  2  0  0  0  0
 24 29  2  0  0  0  0
 25 30  1  0  0  0  0
 26 31  1  0  0  0  0
 27 32  1  0  0  0  0
 28 33  1  0  0  0  0
 29 34  1  0  0  0  0
 32 35  1  0  0  0  0
 33 36  2  0  0  0  0
 34 37  1  0  0  0  0
 35 38  2  0  0  0  0
 35 39  1  0  0  0  0
 37 40  1  0  0  0  0
 37 41  2  0  0  0  0
 38 42  1  0  0  0  0
 39 43  2  0  0  0  0
 40 44  2  0  0  0  0
 41 45  1  0  0  0  0
 42 46  2  0  0  0  0
 45 47  1  0  0  0  0
 46 48  1  0  0  0  0
  6  7  1  0  0  0  0
 12 13  1  0  0  0  0
 29 33  1  0  0  0  0
 43 46  1  0  0  0  0
 44 45  1  0  0  0  0
M  END
>  <MolRegNo>
140588

>  <m>
=

>  <Value>
5000

>  <Unit>
nM

>  <Type>
IC50

>  <pValue>
5.3

>  <Ligand Efficiency>
0

>  <Binding Efficiency>
0

>  <Surface Efficiency>
0

>  <Assay Index>
44619

>  <Assay Category>


>  <Assay Organism>


>  <Target ID>
17045

>  <Target Name>
Cytochrome P450 3A4

>  <Target Organism>
Homo sapiens

>  <Target Description>
Target is a single protein chain

>  <Sequence Accession>
P08684

>  <Reference>
Bioorg Med Chem Lett 12 (18), 2603-2606 (2002)

>  <Pubmed ID>
12182870

>  <DOI>
10.1016/s0960-894x(02)00473-0

$$$$
127748
Actelion Java MolfileCreator 1.0

 51 56  0  0  1  0  0  0  0  0999 V2000
    0.0000   -0.0000   -0.0000 O   0  0  0  0  0  0  0  0  0  0  0  0
    1.2907    0.7578   -0.0000 C   0  0  0  0  0  0  0  0  0  0  0  0
    2.5814    0.0237   -0.0000 N   0  0  0  0  0  0  0  0  0  0  0  0
    1.2789    2.2735   -0.0000 C   0  0  0  0  0  0  0  0  0  0  0  0
    2.1788   -1.4210   -0.0000 C   0  0  0  0  0  0  0  0  0  0  0  0
    2.5696    3.0314   -0.0000 N   0  0  0  0  0  0  0  0  0  0  0  0
   -0.0355    3.0314   -0.0000 C   0  0  0  0  0  0  0  0  0  0  0  0
    0.8644   -0.6631   -0.0000 C   0  0  0  0  0  0  0  0  0  0  0  0
    0.7223   -1.7999   -0.0000 C   0  0  0  0  0  0  0  0  0  0  0  0
    3.2327   -2.4630   -0.0000 C   0  0  0  0  0  0  0  0  0  0  0  0
    2.5577    4.5471   -0.0000 C   0  0  0  0  0  0  0  0  0  0  0  0
    3.8721    2.2972   -0.0000 C   0  0  0  0  0  0  0  0  0  0  0  0
   -0.0474    4.5471   -0.0000 N   0  0  0  0  0  0  0  0  0  0  0  0
    1.2433    5.3049   -0.0000 C   0  0  0  0  0  0  0  0  0  0  0  0
    5.1629    3.0551   -0.0000 C   0  0  0  0  0  0  0  0  0  0  0  0
   -1.3618    5.2931   -0.0000 C   0  0  0  0  0  0  0  0  0  0  0  0
    5.1510    4.5708   -0.0000 O   0  0  0  0  0  0  0  0  0  0  0  0
    6.4536    2.3209   -0.0000 C   0  0  0  0  0  0  0  0  0  0  0  0
   -2.6762    4.5471   -0.0000 C   0  0  0  0  0  0  0  0  0  0  0  0
   -2.4393    6.3944   -0.0000 C   0  0  0  0  0  0  0  0  0  0  0  0
   -0.6394    6.6193   -0.0000 C   0  0  0  0  0  0  0  0  0  0  0  0
    7.7443    3.0788   -0.0000 C   0  0  0  0  0  0  0  0  0  0  0  0
   -2.8419    3.0551   -0.0000 O   0  0  0  0  0  0  0  0  0  0  0  0
   -4.0498    5.1510   -0.0000 C   0  0  0  0  0  0  0  0  0  0  0  0
    9.0350    2.3446   -0.0000 C   0  0  0  0  0  0  0  0  0  0  0  0
    7.7324    4.5945   -0.0000 C   0  0  0  0  0  0  0  0  0  0  0  0
   -4.3221    2.7472   -0.0000 C   0  0  0  0  0  0  0  0  0  0  0  0
   -5.0681    4.0498   -0.0000 C   0  0  0  0  0  0  0  0  0  0  0  0
    9.0232    0.8526   -0.0000 O   0  0  0  0  0  0  0  0  0  0  0  0
   10.3257    3.1024   -0.0000 N   0  0  0  0  0  0  0  0  0  0  0  0
    9.0232    5.3523   -0.0000 C   0  0  0  0  0  0  0  0  0  0  0  0
   -5.0681    1.4565   -0.0000 C   0  0  0  0  0  0  0  0  0  0  0  0
   -6.5838    4.0498   -0.0000 C   0  0  0  0  0  0  0  0  0  0  0  0
   11.6283    2.3683   -0.0000 C   0  0  0  0  0  0  0  0  0  0  0  0
    8.9995    6.8562   -0.0000 C   0  0  0  0  0  0  0  0  0  0  0  0
   10.3020    4.6063   -0.0000 C   0  0  0  0  0  0  0  0  0  0  0  0
   -6.5838    1.4565   -0.0000 C   0  0  0  0  0  0  0  0  0  0  0  0
   -7.3417    2.7472   -0.0000 N   0  0  0  0  0  0  0  0  0  0  0  0
   11.6164    0.8763   -0.0000 C   0  0  0  0  0  0  0  0  0  0  0  0
   12.8953    3.1261   -0.0000 C   0  0  0  0  0  0  0  0  0  0  0  0
   10.2902    7.6140   -0.0000 C   0  0  0  0  0  0  0  0  0  0  0  0
   11.5927    5.3642   -0.0000 C   0  0  0  0  0  0  0  0  0  0  0  0
   12.8834    0.1421   -0.0000 C   0  0  0  0  0  0  0  0  0  0  0  0
   10.3020    0.1421   -0.0000 C   0  0  0  0  0  0  0  0  0  0  0  0
   12.8834    4.6418   -0.0000 O   0  0  0  0  0  0  0  0  0  0  0  0
   14.2097    2.3920   -0.0000 C   0  0  0  0  0  0  0  0  0  0  0  0
   11.5809    6.8799   -0.0000 C   0  0  0  0  0  0  0  0  0  0  0  0
   14.1978    0.8999   -0.0000 O   0  0  0  0  0  0  0  0  0  0  0  0
   12.8716   -1.3262   -0.0000 C   0  0  0  0  0  0  0  0  0  0  0  0
   10.2902   -1.3262   -0.0000 C   0  0  0  0  0  0  0  0  0  0  0  0
   11.5809   -2.0604   -0.0000 C   0  0  0  0  0  0  0  0  0  0  0  0
  1  2  2  0  0  0  0
  2  3  1  0  0  0  0
  4  2  1  6  0  0  0
  3  5  1  0  0  0  0
  4  6  1  0  0  0  0
  4  7  1  0  0  0  0
  5  8  1  0  0  0  0
  5  9  1  0  0  0  0
  5 10  1  0  0  0  0
  6 11  1  0  0  0  0
  6 12  1  0  0  0  0
  7 13  1  0  0  0  0
 11 14  1  0  0  0  0
 12 15  1  0  0  0  0
 13 16  1  0  0  0  0
 15 17  1  1  0  0  0
 15 18  1  0  0  0  0
 16 19  1  0  0  0  0
 16 20  1  0  0  0  0
 16 21  1  0  0  0  0
 22 18  1  1  0  0  0
 19 23  1  0  0  0  0
 19 24  2  0  0  0  0
 22 25  1  0  0  0  0
 22 26  1  0  0  0  0
 23 27  1  0  0  0  0
 24 28  1  0  0  0  0
 25 29  2  0  0  0  0
 25 30  1  0  0  0  0
 26 31  1  0  0  0  0
 27 32  1  0  0  0  0
 28 33  1  0  0  0  0
 34 30  1  6  0  0  0
 31 35  2  0  0  0  0
 31 36  1  0  0  0  0
 32 37  2  0  0  0  0
 33 38  2  0  0  0  0
 34 39  1  0  0  0  0
 34 40  1  0  0  0  0
 35 41  1  0  0  0  0
 36 42  2  0  0  0  0
 39 43  2  0  0  0  0
 39 44  1  0  0  0  0
 40 45  1  6  0  0  0
 40 46  1  0  0  0  0
 41 47  2  0  0  0  0
 43 48  1  0  0  0  0
 43 49  1  0  0  0  0
 44 50  2  0  0  0  0
 49 51  2  0  0  0  0
 13 14  1  0  0  0  0
 27 28  2  0  0  0  0
 37 38  1  0  0  0  0
 42 47  1  0  0  0  0
 46 48  1  0  0  0  0
 50 51  1  0  0  0  0
M  END
>  <MolRegNo>
127748

>  <m>
=

>  <Value>
310

>  <Unit>
nM

>  <Type>
IC50

>  <pValue>
6.51

>  <Ligand Efficiency>
0

>  <Binding Efficiency>
0

>  <Surface Efficiency>
0

>  <Assay Index>
151288

>  <Assay Category>


>  <Assay Organism>


>  <Target ID>
17045

>  <Target Name>
Cytochrome P450 3A4

>  <Target Organism>
Homo sapiens

>  <Target Description>
Target is a single protein chain

>  <Sequence Accession>
P08684

>  <Reference>
Bioorg Med Chem Lett 12 (17), 2423-2426 (2002)

>  <Pubmed ID>
12161148

>  <DOI>
10.1016/s0960-894x(02)00425-0

$$$$
141799
Actelion Java MolfileCreator 1.0

 52 57  0  0  0  0  0  0  0  0999 V2000
    0.0000   -0.0000   -0.0000 S   0  0  0  0  0  0  0  0  0  0  0  0
    1.3213    0.7023   -0.0000 C   0  0  0  0  0  0  0  0  0  0  0  0
   -1.2855    0.7856   -0.0000 C   0  0  0  0  0  0  0  0  0  0  0  0
    1.3808    2.2021   -0.0000 N   0  0  0  0  0  0  0  0  0  0  0  0
    2.5711   -0.0714   -0.0000 N   0  0  0  0  0  0  0  0  0  0  0  0
   -2.6306    0.0952   -0.0000 C   0  0  0  0  0  0  0  0  0  0  0  0
    2.7020    2.9163   -0.0000 C   0  0  0  0  0  0  0  0  0  0  0  0
    3.9162    0.6309   -0.0000 C   0  0  0  0  0  0  0  0  0  0  0  0
    2.4878   -1.5474   -0.0000 C   0  0  0  0  0  0  0  0  0  0  0  0
   -3.9162    0.8808   -0.0000 C   0  0  0  0  0  0  0  0  0  0  0  0
   -2.7258   -1.3927   -0.0000 C   0  0  0  0  0  0  0  0  0  0  0  0
    2.7615    4.4042   -0.0000 O   0  0  0  0  0  0  0  0  0  0  0  0
    3.9638    2.1307   -0.0000 C   0  0  0  0  0  0  0  0  0  0  0  0
    3.7376   -2.3092   -0.0000 C   0  0  0  0  0  0  0  0  0  0  0  0
   -5.2612    0.2024   -0.0000 C   0  0  0  0  0  0  0  0  0  0  0  0
   -4.0709   -2.0831   -0.0000 C   0  0  0  0  0  0  0  0  0  0  0  0
    5.2850    2.8568   -0.0000 C   0  0  0  0  0  0  0  0  0  0  0  0
    5.0827   -1.6069   -0.0000 O   0  0  0  0  0  0  0  0  0  0  0  0
    3.6543   -3.7852   -0.0000 N   0  0  0  0  0  0  0  0  0  0  0  0
   -5.3684   -1.2736   -0.0000 C   0  0  0  0  0  0  0  0  0  0  0  0
    6.5587    2.0712   -0.0000 C   0  0  0  0  0  0  0  0  0  0  0  0
    4.9279   -4.5946   -0.0000 C   0  0  0  0  0  0  0  0  0  0  0  0
    2.3092   -4.4756   -0.0000 C   0  0  0  0  0  0  0  0  0  0  0  0
   -6.7015   -1.9640   -0.0000 F   0  0  0  0  0  0  0  0  0  0  0  0
    7.8323    1.2975   -0.0000 C   0  0  0  0  0  0  0  0  0  0  0  0
    6.9039    3.5472   -0.0000 C   0  0  0  0  0  0  0  0  0  0  0  0
    6.2492   -3.8566   -0.0000 C   0  0  0  0  0  0  0  0  0  0  0  0
    2.2259   -5.9754   -0.0000 C   0  0  0  0  0  0  0  0  0  0  0  0
    8.9631    2.2735   -0.0000 N   0  0  0  0  0  0  0  0  0  0  0  0
    8.3918    3.6543   -0.0000 N   0  0  0  0  0  0  0  0  0  0  0  0
    7.5109   -4.6185   -0.0000 C   0  0  0  0  0  0  0  0  0  0  0  0
    6.3087   -2.3568   -0.0000 C   0  0  0  0  0  0  0  0  0  0  0  0
    0.8689   -6.6539   -0.0000 N   0  0  0  0  0  0  0  0  0  0  0  0
    9.1774    4.9279   -0.0000 C   0  0  0  0  0  0  0  0  0  0  0  0
    8.8322   -3.9162   -0.0000 C   0  0  0  0  0  0  0  0  0  0  0  0
    7.6419   -1.6545   -0.0000 C   0  0  0  0  0  0  0  0  0  0  0  0
    0.8213   -8.1537   -0.0000 C   0  0  0  0  0  0  0  0  0  0  0  0
   -0.4285   -5.8564   -0.0000 C   0  0  0  0  0  0  0  0  0  0  0  0
    8.8917   -2.4164   -0.0000 C   0  0  0  0  0  0  0  0  0  0  0  0
   -0.5356   -8.8560   -0.0000 C   0  0  0  0  0  0  0  0  0  0  0  0
   -1.7736   -6.5587   -0.0000 C   0  0  0  0  0  0  0  0  0  0  0  0
   10.2249   -1.7022   -0.0000 C   0  0  0  0  0  0  0  0  0  0  0  0
   -1.8331   -8.0585   -0.0000 C   0  0  0  0  0  0  0  0  0  0  0  0
   11.4747   -2.4640   -0.0000 C   0  0  0  0  0  0  0  0  0  0  0  0
   10.2844   -0.1905   -0.0000 C   0  0  0  0  0  0  0  0  0  0  0  0
   12.8079   -1.7617   -0.0000 C   0  0  0  0  0  0  0  0  0  0  0  0
   11.6056    0.5118   -0.0000 C   0  0  0  0  0  0  0  0  0  0  0  0
   12.8674   -0.2500   -0.0000 C   0  0  0  0  0  0  0  0  0  0  0  0
   14.1886    0.4523   -0.0000 C   0  0  0  0  0  0  0  0  0  0  0  0
   14.5100   -1.0118   -0.0000 F   0  0  0  0  0  0  0  0  0  0  0  0
   15.4504   -0.3452   -0.0000 F   0  0  0  0  0  0  0  0  0  0  0  0
   14.2363    1.9640   -0.0000 F   0  0  0  0  0  0  0  0  0  0  0  0
  1  2  1  0  0  0  0
  1  3  1  0  0  0  0
  2  4  2  0  0  0  0
  2  5  1  0  0  0  0
  3  6  1  0  0  0  0
  4  7  1  0  0  0  0
  5  8  1  0  0  0  0
  5  9  1  0  0  0  0
  6 10  2  0  0  0  0
  6 11  1  0  0  0  0
  7 12  2  0  0  0  0
  7 13  1  0  0  0  0
  9 14  1  0  0  0  0
 10 15  1  0  0  0  0
 11 16  2  0  0  0  0
 13 17  1  0  0  0  0
 14 18  2  0  0  0  0
 14 19  1  0  0  0  0
 15 20  2  0  0  0  0
 17 21  1  0  0  0  0
 19 22  1  0  0  0  0
 19 23  1  0  0  0  0
 20 24  1  0  0  0  0
 21 25  1  0  0  0  0
 21 26  2  0  0  0  0
 22 27  1  0  0  0  0
 23 28  1  0  0  0  0
 25 29  2  0  0  0  0
 26 30  1  0  0  0  0
 27 31  2  0  0  0  0
 27 32  1  0  0  0  0
 28 33  1  0  0  0  0
 30 34  1  0  0  0  0
 31 35  1  0  0  0  0
 32 36  2  0  0  0  0
 33 37  1  0  0  0  0
 33 38  1  0  0  0  0
 35 39  2  0  0  0  0
 37 40  1  0  0  0  0
 38 41  1  0  0  0  0
 39 42  1  0  0  0  0
 40 43  1  0  0  0  0
 42 44  2  0  0  0  0
 42 45  1  0  0  0  0
 44 46  1  0  0  0  0
 45 47  2  0  0  0  0
 46 48  2  0  0  0  0
 48 49  1  0  0  0  0
 49 50  1  0  0  0  0
 49 51  1  0  0  0  0
 49 52  1  0  0  0  0
  8 13  2  0  0  0  0
 16 20  1  0  0  0  0
 29 30  1  0  0  0  0
 36 39  1  0  0  0  0
 41 43  1  0  0  0  0
 47 48  1  0  0  0  0
M  END
>  <MolRegNo>
141799

>  <m>
=

>  <Value>
10000

>  <Unit>
nM

>  <Type>
IC50

>  <pValue>
5

>  <Ligand Efficiency>
0

>  <Binding Efficiency>
0

>  <Surface Efficiency>
0

>  <Assay Index>
44619

>  <Assay Category>


>  <Assay Organism>


>  <Target ID>
17045

>  <Target Name>
Cytochrome P450 3A4

>  <Target Organism>
Homo sapiens

>  <Target Description>
Target is a single protein chain

>  <Sequence Accession>
P08684

>  <Reference>
Bioorg Med Chem Lett 12 (18), 2603-2606 (2002)

>  <Pubmed ID>
12182870

>  <DOI>
10.1016/s0960-894x(02)00473-0

$$$$
140557
Actelion Java MolfileCreator 1.0

 48 53  0  0  0  0  0  0  0  0999 V2000
    0.0000   -0.0000   -0.0000 Cl  0  0  0  0  0  0  0  0  0  0  0  0
   -1.3461   -0.6849   -0.0000 C   0  0  0  0  0  0  0  0  0  0  0  0
   -2.6332    0.0827   -0.0000 C   0  0  0  0  0  0  0  0  0  0  0  0
   -1.4288   -2.1727   -0.0000 C   0  0  0  0  0  0  0  0  0  0  0  0
   -3.9794   -0.5904   -0.0000 C   0  0  0  0  0  0  0  0  0  0  0  0
   -2.7749   -2.8576   -0.0000 C   0  0  0  0  0  0  0  0  0  0  0  0
   -4.0620   -2.0664   -0.0000 C   0  0  0  0  0  0  0  0  0  0  0  0
   -5.4082   -2.7513   -0.0000 C   0  0  0  0  0  0  0  0  0  0  0  0
   -6.6835   -1.9602   -0.0000 C   0  0  0  0  0  0  0  0  0  0  0  0
   -5.4908   -4.2274   -0.0000 C   0  0  0  0  0  0  0  0  0  0  0  0
   -8.0296   -2.6451   -0.0000 C   0  0  0  0  0  0  0  0  0  0  0  0
   -6.8370   -4.9122   -0.0000 C   0  0  0  0  0  0  0  0  0  0  0  0
   -8.1123   -4.1211   -0.0000 C   0  0  0  0  0  0  0  0  0  0  0  0
   -9.4466   -4.8296   -0.0000 C   0  0  0  0  0  0  0  0  0  0  0  0
  -10.7337   -4.0030   -0.0000 N   0  0  0  0  0  0  0  0  0  0  0  0
  -10.6747   -2.5034   -0.0000 C   0  0  0  0  0  0  0  0  0  0  0  0
  -12.0799   -4.6879   -0.0000 C   0  0  0  0  0  0  0  0  0  0  0  0
   -9.3403   -1.8067   -0.0000 O   0  0  0  0  0  0  0  0  0  0  0  0
  -11.9382   -1.7122   -0.0000 C   0  0  0  0  0  0  0  0  0  0  0  0
  -12.1625   -6.1639   -0.0000 C   0  0  0  0  0  0  0  0  0  0  0  0
  -11.8791   -0.2125   -0.0000 N   0  0  0  0  0  0  0  0  0  0  0  0
  -13.4496   -6.9669   -0.0000 N   0  0  0  0  0  0  0  0  0  0  0  0
  -13.1544    0.5786   -0.0000 C   0  0  0  0  0  0  0  0  0  0  0  0
  -10.5448    0.4959   -0.0000 C   0  0  0  0  0  0  0  0  0  0  0  0
  -14.8548   -6.4119   -0.0000 C   0  0  0  0  0  0  0  0  0  0  0  0
  -13.5559   -8.4429   -0.0000 C   0  0  0  0  0  0  0  0  0  0  0  0
  -14.4887   -0.1063   -0.0000 S   0  0  0  0  0  0  0  0  0  0  0  0
  -13.0954    2.0783   -0.0000 N   0  0  0  0  0  0  0  0  0  0  0  0
  -10.4975    1.9956   -0.0000 C   0  0  0  0  0  0  0  0  0  0  0  0
  -15.8349   -7.5691   -0.0000 C   0  0  0  0  0  0  0  0  0  0  0  0
  -15.0319   -8.8208   -0.0000 C   0  0  0  0  0  0  0  0  0  0  0  0
  -15.7758    0.6849   -0.0000 C   0  0  0  0  0  0  0  0  0  0  0  0
  -11.7728    2.7867   -0.0000 C   0  0  0  0  0  0  0  0  0  0  0  0
   -9.1750    2.7159   -0.0000 C   0  0  0  0  0  0  0  0  0  0  0  0
  -17.1220   -0.0000   -0.0000 C   0  0  0  0  0  0  0  0  0  0  0  0
  -11.7138    4.2628   -0.0000 O   0  0  0  0  0  0  0  0  0  0  0  0
   -7.9115    1.9247   -0.0000 C   0  0  0  0  0  0  0  0  0  0  0  0
  -18.4091    0.7912   -0.0000 C   0  0  0  0  0  0  0  0  0  0  0  0
  -17.2046   -1.4760   -0.0000 C   0  0  0  0  0  0  0  0  0  0  0  0
   -6.6481    1.1572   -0.0000 C   0  0  0  0  0  0  0  0  0  0  0  0
   -7.5691    3.3890   -0.0000 C   0  0  0  0  0  0  0  0  0  0  0  0
  -19.7434    0.1063   -0.0000 C   0  0  0  0  0  0  0  0  0  0  0  0
  -18.5508   -2.1609   -0.0000 C   0  0  0  0  0  0  0  0  0  0  0  0
   -5.5026    2.1255   -0.0000 N   0  0  0  0  0  0  0  0  0  0  0  0
   -6.0931    3.4952   -0.0000 N   0  0  0  0  0  0  0  0  0  0  0  0
  -19.8261   -1.3698   -0.0000 C   0  0  0  0  0  0  0  0  0  0  0  0
   -5.3137    4.7705   -0.0000 C   0  0  0  0  0  0  0  0  0  0  0  0
  -21.1722   -2.0546   -0.0000 F   0  0  0  0  0  0  0  0  0  0  0  0
  1  2  1  0  0  0  0
  2  3  2  0  0  0  0
  2  4  1  0  0  0  0
  3  5  1  0  0  0  0
  4  6  2  0  0  0  0
  5  7  2  0  0  0  0
  7  8  1  0  0  0  0
  8  9  2  0  0  0  0
  8 10  1  0  0  0  0
  9 11  1  0  0  0  0
 10 12  2  0  0  0  0
 11 13  2  0  0  0  0
 13 14  1  0  0  0  0
 14 15  1  0  0  0  0
 15 16  1  0  0  0  0
 15 17  1  0  0  0  0
 16 18  2  0  0  0  0
 16 19  1  0  0  0  0
 17 20  1  0  0  0  0
 19 21  1  0  0  0  0
 20 22  1  0  0  0  0
 21 23  1  0  0  0  0
 21 24  1  0  0  0  0
 22 25  1  0  0  0  0
 22 26  1  0  0  0  0
 23 27  1  0  0  0  0
 23 28  2  0  0  0  0
 24 29  2  0  0  0  0
 25 30  1  0  0  0  0
 26 31  1  0  0  0  0
 27 32  1  0  0  0  0
 28 33  1  0  0  0  0
 29 34  1  0  0  0  0
 32 35  1  0  0  0  0
 33 36  2  0  0  0  0
 34 37  1  0  0  0  0
 35 38  2  0  0  0  0
 35 39  1  0  0  0  0
 37 40  1  0  0  0  0
 37 41  2  0  0  0  0
 38 42  1  0  0  0  0
 39 43  2  0  0  0  0
 40 44  2  0  0  0  0
 41 45  1  0  0  0  0
 42 46  2  0  0  0  0
 45 47  1  0  0  0  0
 46 48  1  0  0  0  0
  6  7  1  0  0  0  0
 12 13  1  0  0  0  0
 29 33  1  0  0  0  0
 30 31  1  0  0  0  0
 43 46  1  0  0  0  0
 44 45  1  0  0  0  0
M  END
>  <MolRegNo>
140557

>  <m>
=

>  <Value>
6000

>  <Unit>
nM

>  <Type>
IC50

>  <pValue>
5.22

>  <Ligand Efficiency>
0

>  <Binding Efficiency>
0

>  <Surface Efficiency>
0

>  <Assay Index>
44619

>  <Assay Category>


>  <Assay Organism>


>  <Target ID>
17045

>  <Target Name>
Cytochrome P450 3A4

>  <Target Organism>
Homo sapiens

>  <Target Description>
Target is a single protein chain

>  <Sequence Accession>
P08684

>  <Reference>
Bioorg Med Chem Lett 12 (18), 2603-2606 (2002)

>  <Pubmed ID>
12182870

>  <DOI>
10.1016/s0960-894x(02)00473-0

$$$$
140868
Actelion Java MolfileCreator 1.0

 49 53  0  0  0  0  0  0  0  0999 V2000
    0.0000   -0.0000   -0.0000 S   0  0  0  0  0  0  0  0  0  0  0  0
    1.3206    0.7020   -0.0000 C   0  0  0  0  0  0  0  0  0  0  0  0
   -1.2968    0.7852   -0.0000 C   0  0  0  0  0  0  0  0  0  0  0  0
    1.3801    2.2010   -0.0000 N   0  0  0  0  0  0  0  0  0  0  0  0
    2.5699   -0.0714   -0.0000 N   0  0  0  0  0  0  0  0  0  0  0  0
   -2.6412    0.0952   -0.0000 C   0  0  0  0  0  0  0  0  0  0  0  0
    2.7126    2.9149   -0.0000 C   0  0  0  0  0  0  0  0  0  0  0  0
    3.9143    0.6306   -0.0000 C   0  0  0  0  0  0  0  0  0  0  0  0
    2.4866   -1.5467   -0.0000 C   0  0  0  0  0  0  0  0  0  0  0  0
   -3.9143    0.8804   -0.0000 C   0  0  0  0  0  0  0  0  0  0  0  0
   -2.7245   -1.3920   -0.0000 C   0  0  0  0  0  0  0  0  0  0  0  0
    2.7721    4.4021   -0.0000 O   0  0  0  0  0  0  0  0  0  0  0  0
    3.9619    2.1296   -0.0000 C   0  0  0  0  0  0  0  0  0  0  0  0
    3.7477   -2.3081   -0.0000 C   0  0  0  0  0  0  0  0  0  0  0  0
   -5.2706    0.2023   -0.0000 C   0  0  0  0  0  0  0  0  0  0  0  0
   -4.0927   -2.0821   -0.0000 C   0  0  0  0  0  0  0  0  0  0  0  0
    5.2825    2.8554   -0.0000 C   0  0  0  0  0  0  0  0  0  0  0  0
    5.0683   -1.6062   -0.0000 O   0  0  0  0  0  0  0  0  0  0  0  0
    3.6644   -3.7834   -0.0000 N   0  0  0  0  0  0  0  0  0  0  0  0
   -5.3539   -1.2730   -0.0000 C   0  0  0  0  0  0  0  0  0  0  0  0
    6.5555    2.0702   -0.0000 C   0  0  0  0  0  0  0  0  0  0  0  0
    4.9137   -4.5924   -0.0000 C   0  0  0  0  0  0  0  0  0  0  0  0
    2.3081   -4.4734   -0.0000 C   0  0  0  0  0  0  0  0  0  0  0  0
   -6.7221   -1.9631   -0.0000 F   0  0  0  0  0  0  0  0  0  0  0  0
    7.8285    1.2849   -0.0000 C   0  0  0  0  0  0  0  0  0  0  0  0
    6.9124    3.5454   -0.0000 C   0  0  0  0  0  0  0  0  0  0  0  0
    6.2343   -3.8548   -0.0000 C   0  0  0  0  0  0  0  0  0  0  0  0
    2.2248   -5.9725   -0.0000 C   0  0  0  0  0  0  0  0  0  0  0  0
    8.9826    2.2605   -0.0000 N   0  0  0  0  0  0  0  0  0  0  0  0
    8.3996    3.6525   -0.0000 N   0  0  0  0  0  0  0  0  0  0  0  0
    7.5073   -4.6162   -0.0000 C   0  0  0  0  0  0  0  0  0  0  0  0
    6.3057   -2.3557   -0.0000 C   0  0  0  0  0  0  0  0  0  0  0  0
    0.8566   -6.6507   -0.0000 N   0  0  0  0  0  0  0  0  0  0  0  0
    9.1729    4.9255   -0.0000 C   0  0  0  0  0  0  0  0  0  0  0  0
    8.8398   -3.9143   -0.0000 C   0  0  0  0  0  0  0  0  0  0  0  0
    7.6263   -1.6537   -0.0000 C   0  0  0  0  0  0  0  0  0  0  0  0
   -0.4164   -5.8179   -0.0000 C   0  0  0  0  0  0  0  0  0  0  0  0
    0.7971   -8.1498   -0.0000 C   0  0  0  0  0  0  0  0  0  0  0  0
    8.8993   -2.4152   -0.0000 C   0  0  0  0  0  0  0  0  0  0  0  0
   10.2199   -1.7013   -0.0000 C   0  0  0  0  0  0  0  0  0  0  0  0
   10.2794   -0.1904   -0.0000 C   0  0  0  0  0  0  0  0  0  0  0  0
   11.4692   -2.4628   -0.0000 C   0  0  0  0  0  0  0  0  0  0  0  0
   11.6119    0.5116   -0.0000 C   0  0  0  0  0  0  0  0  0  0  0  0
   12.8136   -1.7608   -0.0000 C   0  0  0  0  0  0  0  0  0  0  0  0
   12.8612   -0.2379   -0.0000 C   0  0  0  0  0  0  0  0  0  0  0  0
   14.1818    0.4640   -0.0000 C   0  0  0  0  0  0  0  0  0  0  0  0
   14.2413    1.9750   -0.0000 F   0  0  0  0  0  0  0  0  0  0  0  0
   14.5149   -0.9994   -0.0000 F   0  0  0  0  0  0  0  0  0  0  0  0
   15.4548   -0.3331   -0.0000 F   0  0  0  0  0  0  0  0  0  0  0  0
  1  2  1  0  0  0  0
  1  3  1  0  0  0  0
  2  4  2  0  0  0  0
  2  5  1  0  0  0  0
  3  6  1  0  0  0  0
  4  7  1  0  0  0  0
  5  8  1  0  0  0  0
  5  9  1  0  0  0  0
  6 10  2  0  0  0  0
  6 11  1  0  0  0  0
  7 12  2  0  0  0  0
  7 13  1  0  0  0  0
  9 14  1  0  0  0  0
 10 15  1  0  0  0  0
 11 16  2  0  0  0  0
 13 17  1  0  0  0  0
 14 18  2  0  0  0  0
 14 19  1  0  0  0  0
 15 20  2  0  0  0  0
 17 21  1  0  0  0  0
 19 22  1  0  0  0  0
 19 23  1  0  0  0  0
 20 24  1  0  0  0  0
 21 25  1  0  0  0  0
 21 26  2  0  0  0  0
 22 27  1  0  0  0  0
 23 28  1  0  0  0  0
 25 29  2  0  0  0  0
 26 30  1  0  0  0  0
 27 31  2  0  0  0  0
 27 32  1  0  0  0  0
 28 33  1  0  0  0  0
 30 34  1  0  0  0  0
 31 35  1  0  0  0  0
 32 36  2  0  0  0  0
 33 37  1  0  0  0  0
 33 38  1  0  0  0  0
 35 39  2  0  0  0  0
 39 40  1  0  0  0  0
 40 41  2  0  0  0  0
 40 42  1  0  0  0  0
 41 43  1  0  0  0  0
 42 44  2  0  0  0  0
 43 45  2  0  0  0  0
 45 46  1  0  0  0  0
 46 47  1  0  0  0  0
 46 48  1  0  0  0  0
 46 49  1  0  0  0  0
  8 13  2  0  0  0  0
 16 20  1  0  0  0  0
 29 30  1  0  0  0  0
 36 39  1  0  0  0  0
 44 45  1  0  0  0  0
M  END
>  <MolRegNo>
140868

>  <m>
=

>  <Value>
30000

>  <Unit>
nM

>  <Type>
IC50

>  <pValue>
4.52

>  <Ligand Efficiency>
0

>  <Binding Efficiency>
0

>  <Surface Efficiency>
0

>  <Assay Index>
44619

>  <Assay Category>


>  <Assay Organism>


>  <Target ID>
17045

>  <Target Name>
Cytochrome P450 3A4

>  <Target Organism>
Homo sapiens

>  <Target Description>
Target is a single protein chain

>  <Sequence Accession>
P08684

>  <Reference>
Bioorg Med Chem Lett 12 (18), 2603-2606 (2002)

>  <Pubmed ID>
12182870

>  <DOI>
10.1016/s0960-894x(02)00473-0

$$$$
2038628
Actelion Java MolfileCreator 1.0

 55 60  0  0  1  0  0  0  0  0999 V2000
    0.0000   -0.0000   -0.0000 Cl  0  0  0  0  0  0  0  0  0  0  0  0
   -1.5067   -0.1424   -0.0000 C   0  0  0  0  0  0  0  0  0  0  0  0
   -2.1355   -1.5067   -0.0000 C   0  0  0  0  0  0  0  0  0  0  0  0
   -2.4084    1.0915   -0.0000 C   0  0  0  0  0  0  0  0  0  0  0  0
   -1.2576   -2.7168   -0.0000 C   0  0  0  0  0  0  0  0  0  0  0  0
   -3.6422   -1.6491   -0.0000 C   0  0  0  0  0  0  0  0  0  0  0  0
   -3.9151    0.9491   -0.0000 C   0  0  0  0  0  0  0  0  0  0  0  0
   -1.7321   -4.1405   -0.0000 O   0  0  0  0  0  0  0  0  0  0  0  0
    0.2373   -2.7050   -0.0000 C   0  0  0  0  0  0  0  0  0  0  0  0
   -4.5439   -0.4152   -0.0000 N   0  0  0  0  0  0  0  0  0  0  0  0
   -0.5220   -5.0184   -0.0000 C   0  0  0  0  0  0  0  0  0  0  0  0
    0.6881   -4.1286   -0.0000 N   0  0  0  0  0  0  0  0  0  0  0  0
   -0.5339   -6.5133   -0.0000 C   0  0  0  0  0  0  0  0  0  0  0  0
   -0.5457   -8.0081   -0.0000 N   0  0  0  0  0  0  0  0  0  0  0  0
    0.9610   -6.5014   -0.0000 C   0  0  0  0  0  0  0  0  0  0  0  0
   -2.0524   -6.5014   -0.0000 C   0  0  0  0  0  0  0  0  0  0  0  0
   -1.8626   -8.7437   -0.0000 C   0  0  0  0  0  0  0  0  0  0  0  0
    0.7474   -8.7437   -0.0000 C   0  0  0  0  0  0  0  0  0  0  0  0
   -1.8745  -10.2385   -0.0000 C   0  0  0  0  0  0  0  0  0  0  0  0
    0.7356  -10.2385   -0.0000 C   0  0  0  0  0  0  0  0  0  0  0  0
   -0.5813  -10.9859   -0.0000 N   0  0  0  0  0  0  0  0  0  0  0  0
   -3.1914  -10.9859   -0.0000 C   0  0  0  0  0  0  0  0  0  0  0  0
   -0.5932  -12.4808   -0.0000 C   0  0  0  0  0  0  0  0  0  0  0  0
   -4.5083  -10.2266   -0.0000 O   0  0  0  0  0  0  0  0  0  0  0  0
   -3.2032  -12.4808   -0.0000 N   0  0  0  0  0  0  0  0  0  0  0  0
    0.7000  -13.2163   -0.0000 C   0  0  0  0  0  0  0  0  0  0  0  0
   -4.5201  -13.2163   -0.0000 C   0  0  0  0  0  0  0  0  0  0  0  0
    1.9931  -12.4570   -0.0000 O   0  0  0  0  0  0  0  0  0  0  0  0
    0.6881  -14.7112   -0.0000 C   0  0  0  0  0  0  0  0  0  0  0  0
   -4.5320  -14.7112   -0.0000 C   0  0  0  0  0  0  0  0  0  0  0  0
    1.9813  -15.4586   -0.0000 C   0  0  0  0  0  0  0  0  0  0  0  0
   -4.5439  -16.2060   -0.0000 F   0  0  0  0  0  0  0  0  0  0  0  0
   -6.0506  -14.6993   -0.0000 F   0  0  0  0  0  0  0  0  0  0  0  0
   -3.0371  -14.6993   -0.0000 F   0  0  0  0  0  0  0  0  0  0  0  0
    1.9694  -16.9535   -0.0000 C   0  0  0  0  0  0  0  0  0  0  0  0
    3.2744  -14.6993   -0.0000 C   0  0  0  0  0  0  0  0  0  0  0  0
    0.6525  -17.6890   -0.0000 O   0  0  0  0  0  0  0  0  0  0  0  0
    3.2626  -17.6890   -0.0000 N   0  0  0  0  0  0  0  0  0  0  0  0
    4.5676  -15.4467   -0.0000 C   0  0  0  0  0  0  0  0  0  0  0  0
    3.2507  -19.1839   -0.0000 C   0  0  0  0  0  0  0  0  0  0  0  0
    4.5557  -16.9416   -0.0000 C   0  0  0  0  0  0  0  0  0  0  0  0
    5.8607  -14.6875   -0.0000 C   0  0  0  0  0  0  0  0  0  0  0  0
    4.5439  -19.9194   -0.0000 C   0  0  0  0  0  0  0  0  0  0  0  0
    1.9338  -19.9194   -0.0000 C   0  0  0  0  0  0  0  0  0  0  0  0
    5.8489  -17.6771   -0.0000 C   0  0  0  0  0  0  0  0  0  0  0  0
    7.1539  -15.4349   -0.0000 C   0  0  0  0  0  0  0  0  0  0  0  0
    4.5320  -21.4143   -0.0000 C   0  0  0  0  0  0  0  0  0  0  0  0
    5.8370  -19.1601   -0.0000 C   0  0  0  0  0  0  0  0  0  0  0  0
    0.6169  -19.1601   -0.0000 O   0  0  0  0  0  0  0  0  0  0  0  0
    1.9219  -21.4143   -0.0000 C   0  0  0  0  0  0  0  0  0  0  0  0
    7.1420  -16.9179   -0.0000 C   0  0  0  0  0  0  0  0  0  0  0  0
    3.2151  -22.1498   -0.0000 O   0  0  0  0  0  0  0  0  0  0  0  0
    5.8252  -22.1498   -0.0000 C   0  0  0  0  0  0  0  0  0  0  0  0
    7.1302  -19.8957   -0.0000 C   0  0  0  0  0  0  0  0  0  0  0  0
    7.1183  -21.3905   -0.0000 C   0  0  0  0  0  0  0  0  0  0  0  0
  1  2  1  0  0  0  0
  2  3  2  0  0  0  0
  2  4  1  0  0  0  0
  3  5  1  0  0  0  0
  3  6  1  0  0  0  0
  4  7  2  0  0  0  0
  5  8  1  0  0  0  0
  5  9  2  0  0  0  0
  6 10  2  0  0  0  0
  8 11  1  0  0  0  0
  9 12  1  0  0  0  0
 11 13  1  0  0  0  0
 13 14  1  0  0  0  0
 13 15  1  0  0  0  0
 13 16  1  0  0  0  0
 14 17  1  0  0  0  0
 14 18  1  0  0  0  0
 17 19  1  0  0  0  0
 18 20  1  0  0  0  0
 19 21  1  0  0  0  0
 19 22  1  6  0  0  0
 21 23  1  0  0  0  0
 22 24  2  0  0  0  0
 22 25  1  0  0  0  0
 23 26  1  0  0  0  0
 25 27  1  0  0  0  0
 26 28  1  1  0  0  0
 26 29  1  0  0  0  0
 27 30  1  0  0  0  0
 31 29  1  1  0  0  0
 30 32  1  0  0  0  0
 30 33  1  0  0  0  0
 30 34  1  0  0  0  0
 31 35  1  0  0  0  0
 31 36  1  0  0  0  0
 35 37  2  0  0  0  0
 35 38  1  0  0  0  0
 36 39  1  0  0  0  0
 40 38  1  1  0  0  0
 39 41  2  0  0  0  0
 39 42  1  0  0  0  0
 40 43  1  0  0  0  0
 40 44  1  0  0  0  0
 41 45  1  0  0  0  0
 42 46  2  0  0  0  0
 43 47  2  0  0  0  0
 43 48  1  0  0  0  0
 44 49  1  1  0  0  0
 44 50  1  0  0  0  0
 45 51  2  0  0  0  0
 47 52  1  0  0  0  0
 47 53  1  0  0  0  0
 48 54  2  0  0  0  0
 53 55  2  0  0  0  0
  7 10  1  0  0  0  0
 11 12  2  0  0  0  0
 20 21  1  0  0  0  0
 46 51  1  0  0  0  0
 50 52  1  0  0  0  0
 54 55  1  0  0  0  0
M  END
>  <MolRegNo>
2038628

>  <m>
=

>  <Value>
40

>  <Unit>
nM

>  <Type>
IC50

>  <pValue>
7.4

>  <Ligand Efficiency>
0

>  <Binding Efficiency>
0

>  <Surface Efficiency>
0

>  <Assay Index>
51821

>  <Assay Category>


>  <Assay Organism>
Homo sapiens

>  <Target ID>
17045

>  <Target Name>
Cytochrome P450 3A4

>  <Target Organism>
Homo sapiens

>  <Target Description>
Target is a single protein chain

>  <Sequence Accession>
P08684

>  <Reference>
Bioorg Med Chem Lett 13 (15), 2573-2576 (2003)

>  <Pubmed ID>
12852969

>  <DOI>
10.1016/s0960-894x(03)00474-8

$$$$
2038621
Actelion Java MolfileCreator 1.0

 56 61  0  0  1  0  0  0  0  0999 V2000
    0.0000   -0.0000   -0.0000 F   0  0  0  0  0  0  0  0  0  0  0  0
   -0.0118    1.5131   -0.0000 C   0  0  0  0  0  0  0  0  0  0  0  0
   -1.5249    1.5249   -0.0000 F   0  0  0  0  0  0  0  0  0  0  0  0
    1.4776    1.5249   -0.0000 F   0  0  0  0  0  0  0  0  0  0  0  0
   -0.0236    3.0262   -0.0000 C   0  0  0  0  0  0  0  0  0  0  0  0
    1.2648    3.7827   -0.0000 N   0  0  0  0  0  0  0  0  0  0  0  0
    1.2530    5.2958   -0.0000 C   0  0  0  0  0  0  0  0  0  0  0  0
   -0.0591    6.0523   -0.0000 O   0  0  0  0  0  0  0  0  0  0  0  0
    2.5415    6.0523   -0.0000 C   0  0  0  0  0  0  0  0  0  0  0  0
    3.8300    5.3194   -0.0000 N   0  0  0  0  0  0  0  0  0  0  0  0
    2.5297    7.5654   -0.0000 C   0  0  0  0  0  0  0  0  0  0  0  0
    5.1185    6.0760   -0.0000 C   0  0  0  0  0  0  0  0  0  0  0  0
    3.8182    3.8300   -0.0000 C   0  0  0  0  0  0  0  0  0  0  0  0
    3.8182    8.3220   -0.0000 N   0  0  0  0  0  0  0  0  0  0  0  0
    5.1067    7.5891   -0.0000 C   0  0  0  0  0  0  0  0  0  0  0  0
    5.1067    3.0971   -0.0000 C   0  0  0  0  0  0  0  0  0  0  0  0
    3.8064    9.8350   -0.0000 C   0  0  0  0  0  0  0  0  0  0  0  0
    6.3951    3.8536   -0.0000 O   0  0  0  0  0  0  0  0  0  0  0  0
    5.0948    1.6077   -0.0000 C   0  0  0  0  0  0  0  0  0  0  0  0
    3.7945   11.3481   -0.0000 C   0  0  0  0  0  0  0  0  0  0  0  0
    5.2958    9.8469   -0.0000 C   0  0  0  0  0  0  0  0  0  0  0  0
    2.2933    9.8469   -0.0000 C   0  0  0  0  0  0  0  0  0  0  0  0
    6.3833    0.8748   -0.0000 C   0  0  0  0  0  0  0  0  0  0  0  0
    2.5651   12.2465   -0.0000 O   0  0  0  0  0  0  0  0  0  0  0  0
    5.0003   12.2465   -0.0000 N   0  0  0  0  0  0  0  0  0  0  0  0
    6.3715   -0.6147   -0.0000 C   0  0  0  0  0  0  0  0  0  0  0  0
    7.6718    1.6313   -0.0000 C   0  0  0  0  0  0  0  0  0  0  0  0
    3.0143   13.6887   -0.0000 C   0  0  0  0  0  0  0  0  0  0  0  0
    4.5274   13.6887   -0.0000 C   0  0  0  0  0  0  0  0  0  0  0  0
    5.0594   -1.3594   -0.0000 O   0  0  0  0  0  0  0  0  0  0  0  0
    7.6600   -1.3594   -0.0000 N   0  0  0  0  0  0  0  0  0  0  0  0
    8.9603    0.8984   -0.0000 C   0  0  0  0  0  0  0  0  0  0  0  0
    2.1160   14.9181   -0.0000 C   0  0  0  0  0  0  0  0  0  0  0  0
    7.6482   -2.8489   -0.0000 C   0  0  0  0  0  0  0  0  0  0  0  0
   10.2488    1.6549   -0.0000 C   0  0  0  0  0  0  0  0  0  0  0  0
    8.9485   -0.5910   -0.0000 C   0  0  0  0  0  0  0  0  0  0  0  0
    0.6147   14.7762   -0.0000 C   0  0  0  0  0  0  0  0  0  0  0  0
    2.7188   16.3011   -0.0000 C   0  0  0  0  0  0  0  0  0  0  0  0
    8.9366   -3.5936   -0.0000 C   0  0  0  0  0  0  0  0  0  0  0  0
    6.3360   -3.5936   -0.0000 C   0  0  0  0  0  0  0  0  0  0  0  0
   11.5373    0.9220   -0.0000 C   0  0  0  0  0  0  0  0  0  0  0  0
   10.2370   -1.3358   -0.0000 C   0  0  0  0  0  0  0  0  0  0  0  0
   -0.2837   16.0056   -0.0000 N   0  0  0  0  0  0  0  0  0  0  0  0
    1.8204   17.5305   -0.0000 C   0  0  0  0  0  0  0  0  0  0  0  0
    8.9248   -5.0830   -0.0000 C   0  0  0  0  0  0  0  0  0  0  0  0
   10.2251   -2.8370   -0.0000 C   0  0  0  0  0  0  0  0  0  0  0  0
    5.0239   -2.8370   -0.0000 O   0  0  0  0  0  0  0  0  0  0  0  0
    6.3242   -5.0830   -0.0000 C   0  0  0  0  0  0  0  0  0  0  0  0
   11.5254   -0.5674   -0.0000 C   0  0  0  0  0  0  0  0  0  0  0  0
    0.3192   17.3886   -0.0000 C   0  0  0  0  0  0  0  0  0  0  0  0
    2.4233   18.9135   -0.0000 O   0  0  0  0  0  0  0  0  0  0  0  0
    7.6127   -5.8159   -0.0000 O   0  0  0  0  0  0  0  0  0  0  0  0
   10.2133   -5.8159   -0.0000 C   0  0  0  0  0  0  0  0  0  0  0  0
   11.5136   -3.5818   -0.0000 C   0  0  0  0  0  0  0  0  0  0  0  0
    1.5249   20.1429   -0.0000 C   0  0  0  0  0  0  0  0  0  0  0  0
   11.5018   -5.0594   -0.0000 C   0  0  0  0  0  0  0  0  0  0  0  0
  1  2  1  0  0  0  0
  2  3  1  0  0  0  0
  2  4  1  0  0  0  0
  2  5  1  0  0  0  0
  5  6  1  0  0  0  0
  6  7  1  0  0  0  0
  7  8  2  0  0  0  0
  9  7  1  6  0  0  0
  9 10  1  0  0  0  0
  9 11  1  0  0  0  0
 10 12  1  0  0  0  0
 10 13  1  0  0  0  0
 11 14  1  0  0  0  0
 12 15  1  0  0  0  0
 13 16  1  0  0  0  0
 14 17  1  0  0  0  0
 16 18  1  1  0  0  0
 16 19  1  0  0  0  0
 17 20  1  0  0  0  0
 17 21  1  0  0  0  0
 17 22  1  0  0  0  0
 23 19  1  1  0  0  0
 20 24  1  0  0  0  0
 20 25  2  0  0  0  0
 23 26  1  0  0  0  0
 23 27  1  0  0  0  0
 24 28  1  0  0  0  0
 25 29  1  0  0  0  0
 26 30  2  0  0  0  0
 26 31  1  0  0  0  0
 27 32  1  0  0  0  0
 28 33  1  0  0  0  0
 34 31  1  1  0  0  0
 32 35  2  0  0  0  0
 32 36  1  0  0  0  0
 33 37  2  0  0  0  0
 33 38  1  0  0  0  0
 34 39  1  0  0  0  0
 34 40  1  0  0  0  0
 35 41  1  0  0  0  0
 36 42  2  0  0  0  0
 37 43  1  0  0  0  0
 38 44  2  0  0  0  0
 39 45  2  0  0  0  0
 39 46  1  0  0  0  0
 40 47  1  1  0  0  0
 40 48  1  0  0  0  0
 41 49  2  0  0  0  0
 43 50  2  0  0  0  0
 44 51  1  0  0  0  0
 45 52  1  0  0  0  0
 45 53  1  0  0  0  0
 46 54  2  0  0  0  0
 51 55  1  0  0  0  0
 53 56  2  0  0  0  0
 14 15  1  0  0  0  0
 28 29  2  0  0  0  0
 42 49  1  0  0  0  0
 44 50  1  0  0  0  0
 48 52  1  0  0  0  0
 54 56  1  0  0  0  0
M  END
>  <MolRegNo>
2038621

>  <m>
=

>  <Value>
40

>  <Unit>
nM

>  <Type>
IC50

>  <pValue>
7.4

>  <Ligand Efficiency>
0

>  <Binding Efficiency>
0

>  <Surface Efficiency>
0

>  <Assay Index>
51821

>  <Assay Category>


>  <Assay Organism>
Homo sapiens

>  <Target ID>
17045

>  <Target Name>
Cytochrome P450 3A4

>  <Target Organism>
Homo sapiens

>  <Target Description>
Target is a single protein chain

>  <Sequence Accession>
P08684

>  <Reference>
Bioorg Med Chem Lett 13 (15), 2573-2576 (2003)

>  <Pubmed ID>
12852969

>  <DOI>
10.1016/s0960-894x(03)00474-8

$$$$
2038627
Actelion Java MolfileCreator 1.0

 54 59  0  0  1  0  0  0  0  0999 V2000
    0.0000   -0.0000   -0.0000 F   0  0  0  0  0  0  0  0  0  0  0  0
   -0.0118    1.5141   -0.0000 C   0  0  0  0  0  0  0  0  0  0  0  0
   -1.5260    1.5260   -0.0000 F   0  0  0  0  0  0  0  0  0  0  0  0
    1.4786    1.5260   -0.0000 F   0  0  0  0  0  0  0  0  0  0  0  0
   -0.0237    3.0282   -0.0000 C   0  0  0  0  0  0  0  0  0  0  0  0
    1.2657    3.7853   -0.0000 N   0  0  0  0  0  0  0  0  0  0  0  0
    1.2539    5.2994   -0.0000 C   0  0  0  0  0  0  0  0  0  0  0  0
   -0.0591    6.0565   -0.0000 O   0  0  0  0  0  0  0  0  0  0  0  0
    2.5433    6.0565   -0.0000 C   0  0  0  0  0  0  0  0  0  0  0  0
    3.8326    5.3231   -0.0000 N   0  0  0  0  0  0  0  0  0  0  0  0
    2.5314    7.5706   -0.0000 C   0  0  0  0  0  0  0  0  0  0  0  0
    5.1220    6.0801   -0.0000 C   0  0  0  0  0  0  0  0  0  0  0  0
    3.8208    3.8326   -0.0000 C   0  0  0  0  0  0  0  0  0  0  0  0
    3.8208    8.3277   -0.0000 N   0  0  0  0  0  0  0  0  0  0  0  0
    5.1102    7.5943   -0.0000 C   0  0  0  0  0  0  0  0  0  0  0  0
    5.1102    3.0992   -0.0000 C   0  0  0  0  0  0  0  0  0  0  0  0
    3.8090    9.8418   -0.0000 C   0  0  0  0  0  0  0  0  0  0  0  0
    6.3995    3.8563   -0.0000 O   0  0  0  0  0  0  0  0  0  0  0  0
    5.0983    1.6088   -0.0000 C   0  0  0  0  0  0  0  0  0  0  0  0
    3.7971   11.3559   -0.0000 C   0  0  0  0  0  0  0  0  0  0  0  0
    5.2994    9.8536   -0.0000 C   0  0  0  0  0  0  0  0  0  0  0  0
    2.2948    9.8536   -0.0000 C   0  0  0  0  0  0  0  0  0  0  0  0
    6.3877    0.8754   -0.0000 C   0  0  0  0  0  0  0  0  0  0  0  0
    2.5669   12.2549   -0.0000 O   0  0  0  0  0  0  0  0  0  0  0  0
    5.0037   12.2549   -0.0000 N   0  0  0  0  0  0  0  0  0  0  0  0
    6.3759   -0.6151   -0.0000 C   0  0  0  0  0  0  0  0  0  0  0  0
    7.6771    1.6324   -0.0000 C   0  0  0  0  0  0  0  0  0  0  0  0
    3.0164   13.6981   -0.0000 C   0  0  0  0  0  0  0  0  0  0  0  0
    4.5305   13.6981   -0.0000 C   0  0  0  0  0  0  0  0  0  0  0  0
    5.0628   -1.3485   -0.0000 O   0  0  0  0  0  0  0  0  0  0  0  0
    7.6652   -1.3485   -0.0000 N   0  0  0  0  0  0  0  0  0  0  0  0
    8.9664    0.8990   -0.0000 C   0  0  0  0  0  0  0  0  0  0  0  0
    2.1174   14.9283   -0.0000 C   0  0  0  0  0  0  0  0  0  0  0  0
    7.6534   -2.8390   -0.0000 C   0  0  0  0  0  0  0  0  0  0  0  0
    8.9546   -0.5915   -0.0000 C   0  0  0  0  0  0  0  0  0  0  0  0
   10.2558    1.6561   -0.0000 C   0  0  0  0  0  0  0  0  0  0  0  0
    2.7207   16.3123   -0.0000 N   0  0  0  0  0  0  0  0  0  0  0  0
    0.6151   14.7863   -0.0000 C   0  0  0  0  0  0  0  0  0  0  0  0
    8.9428   -3.5724   -0.0000 C   0  0  0  0  0  0  0  0  0  0  0  0
    6.3404   -3.5724   -0.0000 C   0  0  0  0  0  0  0  0  0  0  0  0
   10.2440   -1.3249   -0.0000 C   0  0  0  0  0  0  0  0  0  0  0  0
   11.5452    0.9227   -0.0000 C   0  0  0  0  0  0  0  0  0  0  0  0
    1.8217   17.5425   -0.0000 C   0  0  0  0  0  0  0  0  0  0  0  0
   -0.2839   16.0166   -0.0000 C   0  0  0  0  0  0  0  0  0  0  0  0
    8.9310   -5.0628   -0.0000 C   0  0  0  0  0  0  0  0  0  0  0  0
   10.2322   -2.8153   -0.0000 C   0  0  0  0  0  0  0  0  0  0  0  0
    5.0274   -2.8153   -0.0000 O   0  0  0  0  0  0  0  0  0  0  0  0
    6.3286   -5.0628   -0.0000 C   0  0  0  0  0  0  0  0  0  0  0  0
   11.5334   -0.5678   -0.0000 C   0  0  0  0  0  0  0  0  0  0  0  0
    0.3194   17.4006   -0.0000 C   0  0  0  0  0  0  0  0  0  0  0  0
    7.6179   -5.7962   -0.0000 O   0  0  0  0  0  0  0  0  0  0  0  0
   10.2203   -5.7962   -0.0000 C   0  0  0  0  0  0  0  0  0  0  0  0
   11.5215   -3.5487   -0.0000 C   0  0  0  0  0  0  0  0  0  0  0  0
   11.5097   -5.0392   -0.0000 C   0  0  0  0  0  0  0  0  0  0  0  0
  1  2  1  0  0  0  0
  2  3  1  0  0  0  0
  2  4  1  0  0  0  0
  2  5  1  0  0  0  0
  5  6  1  0  0  0  0
  6  7  1  0  0  0  0
  7  8  2  0  0  0  0
  9  7  1  6  0  0  0
  9 10  1  0  0  0  0
  9 11  1  0  0  0  0
 10 12  1  0  0  0  0
 10 13  1  0  0  0  0
 11 14  1  0  0  0  0
 12 15  1  0  0  0  0
 13 16  1  0  0  0  0
 14 17  1  0  0  0  0
 16 18  1  1  0  0  0
 16 19  1  0  0  0  0
 17 20  1  0  0  0  0
 17 21  1  0  0  0  0
 17 22  1  0  0  0  0
 23 19  1  1  0  0  0
 20 24  1  0  0  0  0
 20 25  2  0  0  0  0
 23 26  1  0  0  0  0
 23 27  1  0  0  0  0
 24 28  1  0  0  0  0
 25 29  1  0  0  0  0
 26 30  2  0  0  0  0
 26 31  1  0  0  0  0
 27 32  1  0  0  0  0
 28 33  1  0  0  0  0
 34 31  1  1  0  0  0
 32 35  2  0  0  0  0
 32 36  1  0  0  0  0
 33 37  2  0  0  0  0
 33 38  1  0  0  0  0
 34 39  1  0  0  0  0
 34 40  1  0  0  0  0
 35 41  1  0  0  0  0
 36 42  2  0  0  0  0
 37 43  1  0  0  0  0
 38 44  2  0  0  0  0
 39 45  2  0  0  0  0
 39 46  1  0  0  0  0
 40 47  1  1  0  0  0
 40 48  1  0  0  0  0
 41 49  2  0  0  0  0
 43 50  2  0  0  0  0
 45 51  1  0  0  0  0
 45 52  1  0  0  0  0
 46 53  2  0  0  0  0
 52 54  2  0  0  0  0
 14 15  1  0  0  0  0
 28 29  2  0  0  0  0
 42 49  1  0  0  0  0
 44 50  1  0  0  0  0
 48 51  1  0  0  0  0
 53 54  1  0  0  0  0
M  END
>  <MolRegNo>
2038627

>  <m>
=

>  <Value>
5000

>  <Unit>
nM

>  <Type>
IC50

>  <pValue>
5.3

>  <Ligand Efficiency>
0

>  <Binding Efficiency>
0

>  <Surface Efficiency>
0

>  <Assay Index>
51821

>  <Assay Category>


>  <Assay Organism>
Homo sapiens

>  <Target ID>
17045

>  <Target Name>
Cytochrome P450 3A4

>  <Target Organism>
Homo sapiens

>  <Target Description>
Target is a single protein chain

>  <Sequence Accession>
P08684

>  <Reference>
Bioorg Med Chem Lett 13 (15), 2573-2576 (2003)

>  <Pubmed ID>
12852969

>  <DOI>
10.1016/s0960-894x(03)00474-8

$$$$
2038619
Actelion Java MolfileCreator 1.0

 54 59  0  0  1  0  0  0  0  0999 V2000
    0.0000   -0.0000   -0.0000 F   0  0  0  0  0  0  0  0  0  0  0  0
   -0.0118    1.5141   -0.0000 C   0  0  0  0  0  0  0  0  0  0  0  0
   -1.5260    1.5260   -0.0000 F   0  0  0  0  0  0  0  0  0  0  0  0
    1.4786    1.5260   -0.0000 F   0  0  0  0  0  0  0  0  0  0  0  0
   -0.0237    3.0282   -0.0000 C   0  0  0  0  0  0  0  0  0  0  0  0
    1.2657    3.7853   -0.0000 N   0  0  0  0  0  0  0  0  0  0  0  0
    1.2539    5.2994   -0.0000 C   0  0  0  0  0  0  0  0  0  0  0  0
   -0.0591    6.0565   -0.0000 O   0  0  0  0  0  0  0  0  0  0  0  0
    2.5433    6.0565   -0.0000 C   0  0  0  0  0  0  0  0  0  0  0  0
    3.8326    5.3231   -0.0000 N   0  0  0  0  0  0  0  0  0  0  0  0
    2.5314    7.5706   -0.0000 C   0  0  0  0  0  0  0  0  0  0  0  0
    5.1220    6.0801   -0.0000 C   0  0  0  0  0  0  0  0  0  0  0  0
    3.8208    3.8326   -0.0000 C   0  0  0  0  0  0  0  0  0  0  0  0
    3.8208    8.3277   -0.0000 N   0  0  0  0  0  0  0  0  0  0  0  0
    5.1102    7.5943   -0.0000 C   0  0  0  0  0  0  0  0  0  0  0  0
    5.1102    3.0992   -0.0000 C   0  0  0  0  0  0  0  0  0  0  0  0
    3.8090    9.8418   -0.0000 C   0  0  0  0  0  0  0  0  0  0  0  0
    6.3995    3.8563   -0.0000 O   0  0  0  0  0  0  0  0  0  0  0  0
    5.0983    1.6088   -0.0000 C   0  0  0  0  0  0  0  0  0  0  0  0
    3.7971   11.3559   -0.0000 C   0  0  0  0  0  0  0  0  0  0  0  0
    5.2994    9.8536   -0.0000 C   0  0  0  0  0  0  0  0  0  0  0  0
    2.2948    9.8536   -0.0000 C   0  0  0  0  0  0  0  0  0  0  0  0
    6.3877    0.8754   -0.0000 C   0  0  0  0  0  0  0  0  0  0  0  0
    2.5669   12.2549   -0.0000 O   0  0  0  0  0  0  0  0  0  0  0  0
    5.0037   12.2549   -0.0000 N   0  0  0  0  0  0  0  0  0  0  0  0
    6.3759   -0.6151   -0.0000 C   0  0  0  0  0  0  0  0  0  0  0  0
    7.6771    1.6324   -0.0000 C   0  0  0  0  0  0  0  0  0  0  0  0
    3.0164   13.6981   -0.0000 C   0  0  0  0  0  0  0  0  0  0  0  0
    4.5305   13.6981   -0.0000 C   0  0  0  0  0  0  0  0  0  0  0  0
    5.0628   -1.3485   -0.0000 O   0  0  0  0  0  0  0  0  0  0  0  0
    7.6652   -1.3485   -0.0000 N   0  0  0  0  0  0  0  0  0  0  0  0
    8.9664    0.8990   -0.0000 C   0  0  0  0  0  0  0  0  0  0  0  0
    2.1174   14.9283   -0.0000 C   0  0  0  0  0  0  0  0  0  0  0  0
    7.6534   -2.8390   -0.0000 C   0  0  0  0  0  0  0  0  0  0  0  0
   10.2558    1.6561   -0.0000 C   0  0  0  0  0  0  0  0  0  0  0  0
    8.9546   -0.5915   -0.0000 C   0  0  0  0  0  0  0  0  0  0  0  0
    0.6151   14.7863   -0.0000 C   0  0  0  0  0  0  0  0  0  0  0  0
    2.7207   16.3123   -0.0000 C   0  0  0  0  0  0  0  0  0  0  0  0
    8.9428   -3.5724   -0.0000 C   0  0  0  0  0  0  0  0  0  0  0  0
    6.3404   -3.5724   -0.0000 C   0  0  0  0  0  0  0  0  0  0  0  0
   11.5452    0.9227   -0.0000 C   0  0  0  0  0  0  0  0  0  0  0  0
   10.2440   -1.3249   -0.0000 C   0  0  0  0  0  0  0  0  0  0  0  0
   -0.2839   16.0166   -0.0000 N   0  0  0  0  0  0  0  0  0  0  0  0
    1.8217   17.5425   -0.0000 C   0  0  0  0  0  0  0  0  0  0  0  0
    8.9310   -5.0628   -0.0000 C   0  0  0  0  0  0  0  0  0  0  0  0
   10.2322   -2.8153   -0.0000 C   0  0  0  0  0  0  0  0  0  0  0  0
    5.0274   -2.8153   -0.0000 O   0  0  0  0  0  0  0  0  0  0  0  0
    6.3286   -5.0628   -0.0000 C   0  0  0  0  0  0  0  0  0  0  0  0
   11.5334   -0.5678   -0.0000 C   0  0  0  0  0  0  0  0  0  0  0  0
    0.3194   17.4006   -0.0000 C   0  0  0  0  0  0  0  0  0  0  0  0
    7.6179   -5.7962   -0.0000 O   0  0  0  0  0  0  0  0  0  0  0  0
   10.2203   -5.7962   -0.0000 C   0  0  0  0  0  0  0  0  0  0  0  0
   11.5215   -3.5487   -0.0000 C   0  0  0  0  0  0  0  0  0  0  0  0
   11.5097   -5.0392   -0.0000 C   0  0  0  0  0  0  0  0  0  0  0  0
  1  2  1  0  0  0  0
  2  3  1  0  0  0  0
  2  4  1  0  0  0  0
  2  5  1  0  0  0  0
  5  6  1  0  0  0  0
  6  7  1  0  0  0  0
  7  8  2  0  0  0  0
  9  7  1  6  0  0  0
  9 10  1  0  0  0  0
  9 11  1  0  0  0  0
 10 12  1  0  0  0  0
 10 13  1  0  0  0  0
 11 14  1  0  0  0  0
 12 15  1  0  0  0  0
 13 16  1  0  0  0  0
 14 17  1  0  0  0  0
 16 18  1  1  0  0  0
 16 19  1  0  0  0  0
 17 20  1  0  0  0  0
 17 21  1  0  0  0  0
 17 22  1  0  0  0  0
 23 19  1  1  0  0  0
 20 24  1  0  0  0  0
 20 25  2  0  0  0  0
 23 26  1  0  0  0  0
 23 27  1  0  0  0  0
 24 28  1  0  0  0  0
 25 29  1  0  0  0  0
 26 30  2  0  0  0  0
 26 31  1  0  0  0  0
 27 32  1  0  0  0  0
 28 33  1  0  0  0  0
 34 31  1  1  0  0  0
 32 35  2  0  0  0  0
 32 36  1  0  0  0  0
 33 37  2  0  0  0  0
 33 38  1  0  0  0  0
 34 39  1  0  0  0  0
 34 40  1  0  0  0  0
 35 41  1  0  0  0  0
 36 42  2  0  0  0  0
 37 43  1  0  0  0  0
 38 44  2  0  0  0  0
 39 45  2  0  0  0  0
 39 46  1  0  0  0  0
 40 47  1  1  0  0  0
 40 48  1  0  0  0  0
 41 49  2  0  0  0  0
 43 50  2  0  0  0  0
 45 51  1  0  0  0  0
 45 52  1  0  0  0  0
 46 53  2  0  0  0  0
 52 54  2  0  0  0  0
 14 15  1  0  0  0  0
 28 29  2  0  0  0  0
 42 49  1  0  0  0  0
 44 50  1  0  0  0  0
 48 51  1  0  0  0  0
 53 54  1  0  0  0  0
M  END
>  <MolRegNo>
2038619

>  <m>
=

>  <Value>
110

>  <Unit>
nM

>  <Type>
IC50

>  <pValue>
6.96

>  <Ligand Efficiency>
0

>  <Binding Efficiency>
0

>  <Surface Efficiency>
0

>  <Assay Index>
51821

>  <Assay Category>


>  <Assay Organism>
Homo sapiens

>  <Target ID>
17045

>  <Target Name>
Cytochrome P450 3A4

>  <Target Organism>
Homo sapiens

>  <Target Description>
Target is a single protein chain

>  <Sequence Accession>
P08684

>  <Reference>
Bioorg Med Chem Lett 13 (15), 2573-2576 (2003)

>  <Pubmed ID>
12852969

>  <DOI>
10.1016/s0960-894x(03)00474-8

$$$$
166049
Actelion Java MolfileCreator 1.0

 15 15  0  0  0  0  0  0  0  0999 V2000
    0.0000   -0.0000   -0.0000 O   0  0  0  0  0  0  0  0  0  0  0  0
   -1.3065    0.7533   -0.0000 N   0  0  0  0  0  0  0  0  0  0  0  0
   -2.6129    0.0235   -0.0000 C   0  0  0  0  0  0  0  0  0  0  0  0
   -3.9312    0.7651   -0.0000 N   0  0  0  0  0  0  0  0  0  0  0  0
   -5.2377    0.0235   -0.0000 C   0  0  0  0  0  0  0  0  0  0  0  0
   -5.2494   -1.4595   -0.0000 C   0  0  0  0  0  0  0  0  0  0  0  0
   -6.5441    0.7768   -0.0000 C   0  0  0  0  0  0  0  0  0  0  0  0
   -6.5559   -2.1892   -0.0000 C   0  0  0  0  0  0  0  0  0  0  0  0
   -3.9547   -2.1892   -0.0000 C   0  0  0  0  0  0  0  0  0  0  0  0
   -7.8506    0.0471   -0.0000 C   0  0  0  0  0  0  0  0  0  0  0  0
   -7.8624   -1.4359   -0.0000 C   0  0  0  0  0  0  0  0  0  0  0  0
   -9.1571    0.8004   -0.0000 C   0  0  0  0  0  0  0  0  0  0  0  0
  -10.4635    0.0706   -0.0000 C   0  0  0  0  0  0  0  0  0  0  0  0
  -11.7700    0.8239   -0.0000 C   0  0  0  0  0  0  0  0  0  0  0  0
  -13.0882    0.0942   -0.0000 C   0  0  0  0  0  0  0  0  0  0  0  0
  1  2  1  0  0  0  0
  2  3  2  0  0  0  0
  3  4  1  0  0  0  0
  4  5  1  0  0  0  0
  5  6  2  0  0  0  0
  5  7  1  0  0  0  0
  6  8  1  0  0  0  0
  6  9  1  0  0  0  0
  7 10  2  0  0  0  0
  8 11  2  0  0  0  0
 10 12  1  0  0  0  0
 12 13  1  0  0  0  0
 13 14  1  0  0  0  0
 14 15  1  0  0  0  0
 10 11  1  0  0  0  0
M  END
>  <MolRegNo>
166049

>  <m>
=

>  <Value>
94000

>  <Unit>
nM

>  <Type>
IC50

>  <pValue>
4.03

>  <Ligand Efficiency>
0

>  <Binding Efficiency>
0

>  <Surface Efficiency>
0

>  <Assay Index>
51840

>  <Assay Category>


>  <Assay Organism>
Homo sapiens

>  <Target ID>
17045

>  <Target Name>
Cytochrome P450 3A4

>  <Target Organism>
Homo sapiens

>  <Target Description>
Target is a single protein chain

>  <Sequence Accession>
P08684

>  <Reference>
Bioorg Med Chem Lett 11 (23), 2993-2995 (2001)

>  <Pubmed ID>
11714595

>  <DOI>
10.1016/s0960-894x(01)00614-x

$$$$
153977
Actelion Java MolfileCreator 1.0

 41 45  0  0  1  0  0  0  0  0999 V2000
    0.0000   -0.0000   -0.0000 F   0  0  0  0  0  0  0  0  0  0  0  0
    1.4646   -0.2977   -0.0000 C   0  0  0  0  0  0  0  0  0  0  0  0
    1.9171   -1.7028   -0.0000 C   0  0  0  0  0  0  0  0  0  0  0  0
    2.4530    0.8335   -0.0000 C   0  0  0  0  0  0  0  0  0  0  0  0
    3.3699   -2.0124   -0.0000 C   0  0  0  0  0  0  0  0  0  0  0  0
    0.8931   -2.7983   -0.0000 C   0  0  0  0  0  0  0  0  0  0  0  0
    3.9176    0.5358   -0.0000 C   0  0  0  0  0  0  0  0  0  0  0  0
    4.8226   -2.3934   -0.0000 F   0  0  0  0  0  0  0  0  0  0  0  0
    4.3820   -0.8812   -0.0000 C   0  0  0  0  0  0  0  0  0  0  0  0
    1.3337   -4.2272   -0.0000 N   0  0  0  0  0  0  0  0  0  0  0  0
    4.9059    1.6671   -0.0000 F   0  0  0  0  0  0  0  0  0  0  0  0
    2.7983   -4.5368   -0.0000 C   0  0  0  0  0  0  0  0  0  0  0  0
    0.1548   -5.1679   -0.0000 C   0  0  0  0  0  0  0  0  0  0  0  0
    3.7033   -3.3341   -0.0000 O   0  0  0  0  0  0  0  0  0  0  0  0
    3.4532   -5.8824   -0.0000 C   0  0  0  0  0  0  0  0  0  0  0  0
    0.1429   -6.6683   -0.0000 C   0  0  0  0  0  0  0  0  0  0  0  0
   -1.1669   -4.4058   -0.0000 C   0  0  0  0  0  0  0  0  0  0  0  0
    2.7983   -7.2398   -0.0000 N   0  0  0  0  0  0  0  0  0  0  0  0
   -1.1789   -7.4065   -0.0000 C   0  0  0  0  0  0  0  0  0  0  0  0
    1.3217   -7.5852   -0.0000 C   0  0  0  0  0  0  0  0  0  0  0  0
   -2.4768   -5.1441   -0.0000 C   0  0  0  0  0  0  0  0  0  0  0  0
   -2.4887   -6.6445   -0.0000 C   0  0  0  0  0  0  0  0  0  0  0  0
    0.2382   -8.6330   -0.0000 C   0  0  0  0  0  0  0  0  0  0  0  0
    2.0600   -8.8712   -0.0000 C   0  0  0  0  0  0  0  0  0  0  0  0
   -1.2384   -8.2163   -0.0000 C   0  0  0  0  0  0  0  0  0  0  0  0
    0.6192  -10.0619   -0.0000 C   0  0  0  0  0  0  0  0  0  0  0  0
    1.2860  -10.1572   -0.0000 O   0  0  0  0  0  0  0  0  0  0  0  0
    3.5008   -9.2522   -0.0000 C   0  0  0  0  0  0  0  0  0  0  0  0
   -2.3220   -9.2522   -0.0000 C   0  0  0  0  0  0  0  0  0  0  0  0
   -0.4882  -11.1098   -0.0000 C   0  0  0  0  0  0  0  0  0  0  0  0
    1.6671  -11.5980   -0.0000 C   0  0  0  0  0  0  0  0  0  0  0  0
    3.8819  -10.6931   -0.0000 O   0  0  0  0  0  0  0  0  0  0  0  0
    4.9298   -8.8474   -0.0000 O   0  0  0  0  0  0  0  0  0  0  0  0
   -1.9529  -10.7050   -0.0000 C   0  0  0  0  0  0  0  0  0  0  0  0
    0.5835  -12.6459   -0.0000 C   0  0  0  0  0  0  0  0  0  0  0  0
    3.0960  -11.9553   -0.0000 C   0  0  0  0  0  0  0  0  0  0  0  0
    0.9645  -14.0867   -0.0000 C   0  0  0  0  0  0  0  0  0  0  0  0
    3.4770  -13.3961   -0.0000 C   0  0  0  0  0  0  0  0  0  0  0  0
    2.3934  -14.4678   -0.0000 C   0  0  0  0  0  0  0  0  0  0  0  0
   -0.1072  -15.1346   -0.0000 C   0  0  0  0  0  0  0  0  0  0  0  0
    4.9179  -13.7771   -0.0000 C   0  0  0  0  0  0  0  0  0  0  0  0
  1  2  1  0  0  0  0
  2  3  2  0  0  0  0
  2  4  1  0  0  0  0
  3  5  1  0  0  0  0
  3  6  1  0  0  0  0
  4  7  2  0  0  0  0
  5  8  1  0  0  0  0
  5  9  2  0  0  0  0
  6 10  1  0  0  0  0
  7 11  1  0  0  0  0
 10 12  1  0  0  0  0
 10 13  1  0  0  0  0
 12 14  2  0  0  0  0
 12 15  1  0  0  0  0
 13 16  2  0  0  0  0
 13 17  1  0  0  0  0
 15 18  1  0  0  0  0
 16 19  1  0  0  0  0
 16 20  1  0  0  0  0
 17 21  2  0  0  0  0
 19 22  2  0  0  0  0
 20 23  1  1  0  0  0
 20 24  1  0  0  0  0
 23 25  2  0  0  0  0
 23 26  1  0  0  0  0
 24 27  1  1  0  0  0
 24 28  1  0  0  0  0
 25 29  1  0  0  0  0
 26 30  2  0  0  0  0
 27 31  1  0  0  0  0
 28 32  2  0  0  0  0
 28 33  1  0  0  0  0
 29 34  2  0  0  0  0
 31 35  2  0  0  0  0
 31 36  1  0  0  0  0
 35 37  1  0  0  0  0
 36 38  2  0  0  0  0
 37 39  2  0  0  0  0
 37 40  1  0  0  0  0
 38 41  1  0  0  0  0
  7  9  1  0  0  0  0
 18 20  1  0  0  0  0
 21 22  1  0  0  0  0
 30 34  1  0  0  0  0
 38 39  1  0  0  0  0
M  END
>  <MolRegNo>
153977

>  <m>
=

>  <Value>
14000

>  <Unit>
nM

>  <Type>
IC50

>  <pValue>
4.85

>  <Ligand Efficiency>
0

>  <Binding Efficiency>
0

>  <Surface Efficiency>
0

>  <Assay Index>
51833

>  <Assay Category>


>  <Assay Organism>
Homo sapiens

>  <Target ID>
17045

>  <Target Name>
Cytochrome P450 3A4

>  <Target Organism>
Homo sapiens

>  <Target Description>
Target is a single protein chain

>  <Sequence Accession>
P08684

>  <Reference>
J Med Chem 47 (11), 2776-2795 (2004)

>  <Pubmed ID>
15139756

>  <DOI>
10.1021/jm031115r

$$$$
166196
Actelion Java MolfileCreator 1.0

 16 16  0  0  0  0  0  0  0  0999 V2000
    0.0000   -0.0000   -0.0000 O   0  0  0  0  0  0  0  0  0  0  0  0
   -1.3080    0.7491   -0.0000 N   0  0  0  0  0  0  0  0  0  0  0  0
   -2.6160    0.0119   -0.0000 C   0  0  0  0  0  0  0  0  0  0  0  0
   -3.9360    0.7610   -0.0000 N   0  0  0  0  0  0  0  0  0  0  0  0
   -5.2440    0.0238   -0.0000 C   0  0  0  0  0  0  0  0  0  0  0  0
   -5.2559   -1.4745   -0.0000 C   0  0  0  0  0  0  0  0  0  0  0  0
   -6.5520    0.7848   -0.0000 C   0  0  0  0  0  0  0  0  0  0  0  0
   -6.5639   -2.2117   -0.0000 C   0  0  0  0  0  0  0  0  0  0  0  0
   -7.8600    0.0476   -0.0000 C   0  0  0  0  0  0  0  0  0  0  0  0
   -7.8719   -1.4507   -0.0000 C   0  0  0  0  0  0  0  0  0  0  0  0
   -9.1799   -2.1880   -0.0000 C   0  0  0  0  0  0  0  0  0  0  0  0
   -9.1799   -3.6506   -0.0000 C   0  0  0  0  0  0  0  0  0  0  0  0
  -10.4880   -4.3878   -0.0000 C   0  0  0  0  0  0  0  0  0  0  0  0
  -10.4998   -5.8742   -0.0000 C   0  0  0  0  0  0  0  0  0  0  0  0
  -11.8079   -6.6233   -0.0000 C   0  0  0  0  0  0  0  0  0  0  0  0
  -11.8079   -8.1097   -0.0000 C   0  0  0  0  0  0  0  0  0  0  0  0
  1  2  1  0  0  0  0
  2  3  2  0  0  0  0
  3  4  1  0  0  0  0
  4  5  1  0  0  0  0
  5  6  2  0  0  0  0
  5  7  1  0  0  0  0
  6  8  1  0  0  0  0
  7  9  2  0  0  0  0
  8 10  2  0  0  0  0
 10 11  1  0  0  0  0
 11 12  1  0  0  0  0
 12 13  1  0  0  0  0
 13 14  1  0  0  0  0
 14 15  1  0  0  0  0
 15 16  1  0  0  0  0
  9 10  1  0  0  0  0
M  END
>  <MolRegNo>
166196

>  <m>
=

>  <Value>
50000

>  <Unit>
nM

>  <Type>
IC50

>  <pValue>
4.3

>  <Ligand Efficiency>
0

>  <Binding Efficiency>
0

>  <Surface Efficiency>
0

>  <Assay Index>
51840

>  <Assay Category>


>  <Assay Organism>
Homo sapiens

>  <Target ID>
17045

>  <Target Name>
Cytochrome P450 3A4

>  <Target Organism>
Homo sapiens

>  <Target Description>
Target is a single protein chain

>  <Sequence Accession>
P08684

>  <Reference>
Bioorg Med Chem Lett 11 (23), 2993-2995 (2001)

>  <Pubmed ID>
11714595

>  <DOI>
10.1016/s0960-894x(01)00614-x

$$$$
166277
Actelion Java MolfileCreator 1.0

 10 11  0  0  0  0  0  0  0  0999 V2000
    0.0000   -0.0000   -0.0000 N   0  0  0  0  0  0  0  0  0  0  0  0
   -0.8944    1.2186   -0.0000 N   0  0  0  0  0  0  0  0  0  0  0  0
   -0.8944   -1.2075   -0.0000 N   0  0  0  0  0  0  0  0  0  0  0  0
   -2.3255    0.7714   -0.0000 C   0  0  0  0  0  0  0  0  0  0  0  0
   -0.4360   -2.6050   -0.0000 N   0  0  0  0  0  0  0  0  0  0  0  0
   -2.3255   -0.7379   -0.0000 C   0  0  0  0  0  0  0  0  0  0  0  0
   -3.6224    1.5317   -0.0000 C   0  0  0  0  0  0  0  0  0  0  0  0
   -3.6224   -1.4758   -0.0000 C   0  0  0  0  0  0  0  0  0  0  0  0
   -4.9193    0.7938   -0.0000 C   0  0  0  0  0  0  0  0  0  0  0  0
   -4.9193   -0.7155   -0.0000 C   0  0  0  0  0  0  0  0  0  0  0  0
  1  2  2  0  0  0  0
  1  3  1  0  0  0  0
  2  4  1  0  0  0  0
  3  5  1  0  0  0  0
  3  6  1  0  0  0  0
  4  7  1  0  0  0  0
  6  8  1  0  0  0  0
  7  9  2  0  0  0  0
  8 10  2  0  0  0  0
  4  6  2  0  0  0  0
  9 10  1  0  0  0  0
M  END
>  <MolRegNo>
166277

>  <m>
=

>  <Value>
450

>  <Unit>
nM

>  <Type>
IC50

>  <pValue>
6.35

>  <Ligand Efficiency>
0

>  <Binding Efficiency>
0

>  <Surface Efficiency>
0

>  <Assay Index>
51840

>  <Assay Category>


>  <Assay Organism>
Homo sapiens

>  <Target ID>
17045

>  <Target Name>
Cytochrome P450 3A4

>  <Target Organism>
Homo sapiens

>  <Target Description>
Target is a single protein chain

>  <Sequence Accession>
P08684

>  <Reference>
Bioorg Med Chem Lett 11 (23), 2993-2995 (2001)

>  <Pubmed ID>
11714595

>  <DOI>
10.1016/s0960-894x(01)00614-x

$$$$
153402
Actelion Java MolfileCreator 1.0

 45 49  0  0  1  0  0  0  0  0999 V2000
    0.0000   -0.0000   -0.0000 F   0  0  0  0  0  0  0  0  0  0  0  0
    1.4592   -0.2870   -0.0000 C   0  0  0  0  0  0  0  0  0  0  0  0
    1.9137   -1.6984   -0.0000 C   0  0  0  0  0  0  0  0  0  0  0  0
    2.4519    0.8372   -0.0000 C   0  0  0  0  0  0  0  0  0  0  0  0
    3.3609   -2.0093   -0.0000 C   0  0  0  0  0  0  0  0  0  0  0  0
    0.8970   -2.7868   -0.0000 C   0  0  0  0  0  0  0  0  0  0  0  0
    3.9230    0.5263   -0.0000 C   0  0  0  0  0  0  0  0  0  0  0  0
    4.8081   -2.3801   -0.0000 F   0  0  0  0  0  0  0  0  0  0  0  0
    4.3655   -0.8851   -0.0000 C   0  0  0  0  0  0  0  0  0  0  0  0
    1.3396   -4.2100   -0.0000 N   0  0  0  0  0  0  0  0  0  0  0  0
    4.9157    1.6505   -0.0000 F   0  0  0  0  0  0  0  0  0  0  0  0
    2.8107   -4.5330   -0.0000 C   0  0  0  0  0  0  0  0  0  0  0  0
    0.1674   -5.1549   -0.0000 C   0  0  0  0  0  0  0  0  0  0  0  0
    3.7197   -3.3369   -0.0000 O   0  0  0  0  0  0  0  0  0  0  0  0
    3.4685   -5.8725   -0.0000 C   0  0  0  0  0  0  0  0  0  0  0  0
    0.1555   -6.6619   -0.0000 C   0  0  0  0  0  0  0  0  0  0  0  0
   -1.1602   -4.3894   -0.0000 C   0  0  0  0  0  0  0  0  0  0  0  0
    2.8226   -7.2240   -0.0000 N   0  0  0  0  0  0  0  0  0  0  0  0
   -1.1721   -7.4034   -0.0000 C   0  0  0  0  0  0  0  0  0  0  0  0
    1.3396   -7.5828   -0.0000 C   0  0  0  0  0  0  0  0  0  0  0  0
   -2.4758   -5.1429   -0.0000 C   0  0  0  0  0  0  0  0  0  0  0  0
   -2.4877   -6.6380   -0.0000 C   0  0  0  0  0  0  0  0  0  0  0  0
    0.2512   -8.6234   -0.0000 C   0  0  0  0  0  0  0  0  0  0  0  0
    2.0811   -8.8746   -0.0000 C   0  0  0  0  0  0  0  0  0  0  0  0
    0.6219  -10.0706   -0.0000 C   0  0  0  0  0  0  0  0  0  0  0  0
   -1.2200   -8.2048   -0.0000 C   0  0  0  0  0  0  0  0  0  0  0  0
    1.3037  -10.1663   -0.0000 O   0  0  0  0  0  0  0  0  0  0  0  0
    3.5163   -9.2453   -0.0000 C   0  0  0  0  0  0  0  0  0  0  0  0
   -0.4784  -11.1111   -0.0000 C   0  0  0  0  0  0  0  0  0  0  0  0
   -2.3083   -9.2453   -0.0000 C   0  0  0  0  0  0  0  0  0  0  0  0
    1.6744  -11.6015   -0.0000 C   0  0  0  0  0  0  0  0  0  0  0  0
    3.8871  -10.6806   -0.0000 O   0  0  0  0  0  0  0  0  0  0  0  0
    4.9516   -8.8267   -0.0000 O   0  0  0  0  0  0  0  0  0  0  0  0
   -1.9376  -10.6925   -0.0000 C   0  0  0  0  0  0  0  0  0  0  0  0
   -0.4904  -12.6062   -0.0000 C   0  0  0  0  0  0  0  0  0  0  0  0
    0.5861  -12.6540   -0.0000 N   0  0  0  0  0  0  0  0  0  0  0  0
    3.0977  -11.9723   -0.0000 N   0  0  0  0  0  0  0  0  0  0  0  0
   -1.8180  -13.3358   -0.0000 C   0  0  0  0  0  0  0  0  0  0  0  0
    0.9568  -14.0893   -0.0000 C   0  0  0  0  0  0  0  0  0  0  0  0
    3.4805  -13.3956   -0.0000 C   0  0  0  0  0  0  0  0  0  0  0  0
   -1.8299  -14.8308   -0.0000 C   0  0  0  0  0  0  0  0  0  0  0  0
    2.3921  -14.4600   -0.0000 C   0  0  0  0  0  0  0  0  0  0  0  0
   -0.1196  -15.1537   -0.0000 C   0  0  0  0  0  0  0  0  0  0  0  0
    4.9157  -13.7663   -0.0000 C   0  0  0  0  0  0  0  0  0  0  0  0
   -3.1575  -15.5604   -0.0000 C   0  0  0  0  0  0  0  0  0  0  0  0
  1  2  1  0  0  0  0
  2  3  2  0  0  0  0
  2  4  1  0  0  0  0
  3  5  1  0  0  0  0
  3  6  1  0  0  0  0
  4  7  2  0  0  0  0
  5  8  1  0  0  0  0
  5  9  2  0  0  0  0
  6 10  1  0  0  0  0
  7 11  1  0  0  0  0
 10 12  1  0  0  0  0
 10 13  1  0  0  0  0
 12 14  2  0  0  0  0
 12 15  1  0  0  0  0
 13 16  2  0  0  0  0
 13 17  1  0  0  0  0
 15 18  1  0  0  0  0
 16 19  1  0  0  0  0
 16 20  1  0  0  0  0
 17 21  2  0  0  0  0
 19 22  2  0  0  0  0
 20 23  1  1  0  0  0
 20 24  1  0  0  0  0
 23 25  2  0  0  0  0
 23 26  1  0  0  0  0
 24 27  1  1  0  0  0
 24 28  1  0  0  0  0
 25 29  1  0  0  0  0
 26 30  2  0  0  0  0
 27 31  1  0  0  0  0
 28 32  2  0  0  0  0
 28 33  1  0  0  0  0
 29 34  2  0  0  0  0
 29 35  1  0  0  0  0
 31 36  2  0  0  0  0
 31 37  1  0  0  0  0
 35 38  1  0  0  0  0
 36 39  1  0  0  0  0
 37 40  2  0  0  0  0
 38 41  1  0  0  0  0
 39 42  2  0  0  0  0
 39 43  1  0  0  0  0
 40 44  1  0  0  0  0
 41 45  1  0  0  0  0
  7  9  1  0  0  0  0
 18 20  1  0  0  0  0
 21 22  1  0  0  0  0
 30 34  1  0  0  0  0
 40 42  1  0  0  0  0
M  END
>  <MolRegNo>
153402

>  <m>
=

>  <Value>
5000

>  <Unit>
nM

>  <Type>
IC50

>  <pValue>
5.3

>  <Ligand Efficiency>
0

>  <Binding Efficiency>
0

>  <Surface Efficiency>
0

>  <Assay Index>
51833

>  <Assay Category>


>  <Assay Organism>
Homo sapiens

>  <Target ID>
17045

>  <Target Name>
Cytochrome P450 3A4

>  <Target Organism>
Homo sapiens

>  <Target Description>
Target is a single protein chain

>  <Sequence Accession>
P08684

>  <Reference>
J Med Chem 47 (11), 2776-2795 (2004)

>  <Pubmed ID>
15139756

>  <DOI>
10.1021/jm031115r

$$$$
166306
Actelion Java MolfileCreator 1.0

 14 14  0  0  0  0  0  0  0  0999 V2000
    0.0000   -0.0000   -0.0000 O   0  0  0  0  0  0  0  0  0  0  0  0
   -1.3056    0.7528   -0.0000 N   0  0  0  0  0  0  0  0  0  0  0  0
   -2.6112    0.0235   -0.0000 C   0  0  0  0  0  0  0  0  0  0  0  0
   -3.9286    0.7645   -0.0000 N   0  0  0  0  0  0  0  0  0  0  0  0
   -5.2342    0.0235   -0.0000 C   0  0  0  0  0  0  0  0  0  0  0  0
   -5.2460   -1.4585   -0.0000 C   0  0  0  0  0  0  0  0  0  0  0  0
   -6.5398    0.7763   -0.0000 C   0  0  0  0  0  0  0  0  0  0  0  0
   -6.5516   -2.1878   -0.0000 C   0  0  0  0  0  0  0  0  0  0  0  0
   -7.8454    0.0470   -0.0000 C   0  0  0  0  0  0  0  0  0  0  0  0
   -7.8572   -1.4350   -0.0000 C   0  0  0  0  0  0  0  0  0  0  0  0
   -9.1628   -2.1643   -0.0000 C   0  0  0  0  0  0  0  0  0  0  0  0
  -10.4684   -1.4115   -0.0000 C   0  0  0  0  0  0  0  0  0  0  0  0
  -11.7858   -2.1407   -0.0000 C   0  0  0  0  0  0  0  0  0  0  0  0
  -13.0914   -1.3879   -0.0000 C   0  0  0  0  0  0  0  0  0  0  0  0
  1  2  1  0  0  0  0
  2  3  2  0  0  0  0
  3  4  1  0  0  0  0
  4  5  1  0  0  0  0
  5  6  2  0  0  0  0
  5  7  1  0  0  0  0
  6  8  1  0  0  0  0
  7  9  2  0  0  0  0
  8 10  2  0  0  0  0
 10 11  1  0  0  0  0
 11 12  1  0  0  0  0
 12 13  1  0  0  0  0
 13 14  1  0  0  0  0
  9 10  1  0  0  0  0
M  END
>  <MolRegNo>
166306

>  <m>
=

>  <Value>
65000

>  <Unit>
nM

>  <Type>
IC50

>  <pValue>
4.19

>  <Ligand Efficiency>
0

>  <Binding Efficiency>
0

>  <Surface Efficiency>
0

>  <Assay Index>
51840

>  <Assay Category>


>  <Assay Organism>
Homo sapiens

>  <Target ID>
17045

>  <Target Name>
Cytochrome P450 3A4

>  <Target Organism>
Homo sapiens

>  <Target Description>
Target is a single protein chain

>  <Sequence Accession>
P08684

>  <Reference>
Bioorg Med Chem Lett 11 (23), 2993-2995 (2001)

>  <Pubmed ID>
11714595

>  <DOI>
10.1016/s0960-894x(01)00614-x

$$$$
166168
Actelion Java MolfileCreator 1.0

 14 14  0  0  0  0  0  0  0  0999 V2000
    0.0000   -0.0000   -0.0000 O   0  0  0  0  0  0  0  0  0  0  0  0
   -1.3107    0.7557   -0.0000 N   0  0  0  0  0  0  0  0  0  0  0  0
   -2.6214    0.0236   -0.0000 C   0  0  0  0  0  0  0  0  0  0  0  0
   -3.9439    0.7675   -0.0000 N   0  0  0  0  0  0  0  0  0  0  0  0
   -5.2547    0.0236   -0.0000 C   0  0  0  0  0  0  0  0  0  0  0  0
   -5.2665   -1.4642   -0.0000 C   0  0  0  0  0  0  0  0  0  0  0  0
   -6.5654    0.7793   -0.0000 C   0  0  0  0  0  0  0  0  0  0  0  0
   -6.5772   -2.1963   -0.0000 C   0  0  0  0  0  0  0  0  0  0  0  0
   -3.9676   -2.1963   -0.0000 C   0  0  0  0  0  0  0  0  0  0  0  0
   -7.8761    0.0472   -0.0000 C   0  0  0  0  0  0  0  0  0  0  0  0
   -7.8879   -1.4406   -0.0000 C   0  0  0  0  0  0  0  0  0  0  0  0
   -2.6805   -1.4406   -0.0000 C   0  0  0  0  0  0  0  0  0  0  0  0
   -1.3934   -2.1727   -0.0000 C   0  0  0  0  0  0  0  0  0  0  0  0
   -0.1063   -1.4170   -0.0000 C   0  0  0  0  0  0  0  0  0  0  0  0
  1  2  1  0  0  0  0
  2  3  1  0  0  0  0
  3  4  2  0  0  0  0
  4  5  1  0  0  0  0
  5  6  2  0  0  0  0
  5  7  1  0  0  0  0
  6  8  1  0  0  0  0
  6  9  1  0  0  0  0
  7 10  2  0  0  0  0
  8 11  2  0  0  0  0
  9 12  1  0  0  0  0
 12 13  1  0  0  0  0
 13 14  1  0  0  0  0
 10 11  1  0  0  0  0
M  END
>  <MolRegNo>
166168

>  <m>
=

>  <Value>
51000

>  <Unit>
nM

>  <Type>
IC50

>  <pValue>
4.29

>  <Ligand Efficiency>
0

>  <Binding Efficiency>
0

>  <Surface Efficiency>
0

>  <Assay Index>
51840

>  <Assay Category>


>  <Assay Organism>
Homo sapiens

>  <Target ID>
17045

>  <Target Name>
Cytochrome P450 3A4

>  <Target Organism>
Homo sapiens

>  <Target Description>
Target is a single protein chain

>  <Sequence Accession>
P08684

>  <Reference>
Bioorg Med Chem Lett 11 (23), 2993-2995 (2001)

>  <Pubmed ID>
11714595

>  <DOI>
10.1016/s0960-894x(01)00614-x

$$$$
153766
Actelion Java MolfileCreator 1.0

 41 45  0  0  1  0  0  0  0  0999 V2000
    0.0000   -0.0000   -0.0000 F   0  0  0  0  0  0  0  0  0  0  0  0
    1.4820   -0.2915   -0.0000 C   0  0  0  0  0  0  0  0  0  0  0  0
    1.9436   -1.7250   -0.0000 C   0  0  0  0  0  0  0  0  0  0  0  0
    2.4903    0.8503   -0.0000 C   0  0  0  0  0  0  0  0  0  0  0  0
    3.4256   -2.0408   -0.0000 C   0  0  0  0  0  0  0  0  0  0  0  0
    0.8989   -2.8304   -0.0000 C   0  0  0  0  0  0  0  0  0  0  0  0
    3.9844    0.5345   -0.0000 C   0  0  0  0  0  0  0  0  0  0  0  0
    3.5350   -2.7940   -0.0000 F   0  0  0  0  0  0  0  0  0  0  0  0
    4.4339   -0.8989   -0.0000 C   0  0  0  0  0  0  0  0  0  0  0  0
    1.3484   -4.2760   -0.0000 N   0  0  0  0  0  0  0  0  0  0  0  0
    4.9927    1.6764   -0.0000 F   0  0  0  0  0  0  0  0  0  0  0  0
    2.8425   -4.6039   -0.0000 C   0  0  0  0  0  0  0  0  0  0  0  0
    0.1579   -5.2356   -0.0000 C   0  0  0  0  0  0  0  0  0  0  0  0
    3.8508   -3.8629   -0.0000 O   0  0  0  0  0  0  0  0  0  0  0  0
    3.5228   -5.9645   -0.0000 C   0  0  0  0  0  0  0  0  0  0  0  0
    0.1458   -6.7662   -0.0000 C   0  0  0  0  0  0  0  0  0  0  0  0
   -1.1783   -4.4582   -0.0000 C   0  0  0  0  0  0  0  0  0  0  0  0
    2.8547   -7.3372   -0.0000 N   0  0  0  0  0  0  0  0  0  0  0  0
   -1.1905   -7.5194   -0.0000 C   0  0  0  0  0  0  0  0  0  0  0  0
    1.3605   -7.7016   -0.0000 C   0  0  0  0  0  0  0  0  0  0  0  0
   -2.5146   -5.2235   -0.0000 C   0  0  0  0  0  0  0  0  0  0  0  0
   -2.5267   -6.7419   -0.0000 C   0  0  0  0  0  0  0  0  0  0  0  0
    0.2551   -8.7584   -0.0000 C   0  0  0  0  0  0  0  0  0  0  0  0
    2.1015   -9.0135   -0.0000 C   0  0  0  0  0  0  0  0  0  0  0  0
   -1.2269   -8.3333   -0.0000 C   0  0  0  0  0  0  0  0  0  0  0  0
    0.6317  -10.2283   -0.0000 C   0  0  0  0  0  0  0  0  0  0  0  0
    1.3119  -10.3255   -0.0000 O   0  0  0  0  0  0  0  0  0  0  0  0
    3.5593   -9.3901   -0.0000 C   0  0  0  0  0  0  0  0  0  0  0  0
   -2.3323   -9.3901   -0.0000 C   0  0  0  0  0  0  0  0  0  0  0  0
   -0.4859  -11.2851   -0.0000 C   0  0  0  0  0  0  0  0  0  0  0  0
    1.6885  -11.7832   -0.0000 C   0  0  0  0  0  0  0  0  0  0  0  0
    3.9358  -10.8478   -0.0000 O   0  0  0  0  0  0  0  0  0  0  0  0
    5.0170   -8.9649   -0.0000 O   0  0  0  0  0  0  0  0  0  0  0  0
   -1.9801  -10.8600   -0.0000 C   0  0  0  0  0  0  0  0  0  0  0  0
    0.5831  -12.8522   -0.0000 N   0  0  0  0  0  0  0  0  0  0  0  0
    3.1341  -12.1598   -0.0000 N   0  0  0  0  0  0  0  0  0  0  0  0
    0.9597  -14.3099   -0.0000 C   0  0  0  0  0  0  0  0  0  0  0  0
    3.5350  -13.6053   -0.0000 C   0  0  0  0  0  0  0  0  0  0  0  0
    2.4295  -14.6865   -0.0000 C   0  0  0  0  0  0  0  0  0  0  0  0
   -0.1215  -15.3910   -0.0000 C   0  0  0  0  0  0  0  0  0  0  0  0
    4.9927  -13.9819   -0.0000 C   0  0  0  0  0  0  0  0  0  0  0  0
  1  2  1  0  0  0  0
  2  3  2  0  0  0  0
  2  4  1  0  0  0  0
  3  5  1  0  0  0  0
  3  6  1  0  0  0  0
  4  7  2  0  0  0  0
  5  8  1  0  0  0  0
  5  9  2  0  0  0  0
  6 10  1  0  0  0  0
  7 11  1  0  0  0  0
 10 12  1  0  0  0  0
 10 13  1  0  0  0  0
 12 14  2  0  0  0  0
 12 15  1  0  0  0  0
 13 16  2  0  0  0  0
 13 17  1  0  0  0  0
 15 18  1  0  0  0  0
 16 19  1  0  0  0  0
 16 20  1  0  0  0  0
 17 21  2  0  0  0  0
 19 22  2  0  0  0  0
 20 23  1  1  0  0  0
 20 24  1  0  0  0  0
 23 25  2  0  0  0  0
 23 26  1  0  0  0  0
 24 27  1  1  0  0  0
 24 28  1  0  0  0  0
 25 29  1  0  0  0  0
 26 30  2  0  0  0  0
 27 31  1  0  0  0  0
 28 32  2  0  0  0  0
 28 33  1  0  0  0  0
 29 34  2  0  0  0  0
 31 35  2  0  0  0  0
 31 36  1  0  0  0  0
 35 37  1  0  0  0  0
 36 38  2  0  0  0  0
 37 39  2  0  0  0  0
 37 40  1  0  0  0  0
 38 41  1  0  0  0  0
  7  9  1  0  0  0  0
 18 20  1  0  0  0  0
 21 22  1  0  0  0  0
 30 34  1  0  0  0  0
 38 39  1  0  0  0  0
M  END
>  <MolRegNo>
153766

>  <m>
=

>  <Value>
41000

>  <Unit>
nM

>  <Type>
IC50

>  <pValue>
4.39

>  <Ligand Efficiency>
0

>  <Binding Efficiency>
0

>  <Surface Efficiency>
0

>  <Assay Index>
51833

>  <Assay Category>


>  <Assay Organism>
Homo sapiens

>  <Target ID>
17045

>  <Target Name>
Cytochrome P450 3A4

>  <Target Organism>
Homo sapiens

>  <Target Description>
Target is a single protein chain

>  <Sequence Accession>
P08684

>  <Reference>
J Med Chem 47 (11), 2776-2795 (2004)

>  <Pubmed ID>
15139756

>  <DOI>
10.1021/jm031115r

$$$$
154053
Actelion Java MolfileCreator 1.0

 47 52  0  0  1  0  0  0  0  0999 V2000
    0.0000   -0.0000   -0.0000 F   0  0  0  0  0  0  0  0  0  0  0  0
   -1.4737    0.4041   -0.0000 C   0  0  0  0  0  0  0  0  0  0  0  0
   -2.9473    0.7368   -0.0000 C   0  0  0  0  0  0  0  0  0  0  0  0
   -0.4635    1.5331   -0.0000 C   0  0  0  0  0  0  0  0  0  0  0  0
   -3.4227    2.1630   -0.0000 C   0  0  0  0  0  0  0  0  0  0  0  0
   -3.9694   -0.3565   -0.0000 C   0  0  0  0  0  0  0  0  0  0  0  0
   -0.9270    2.9830   -0.0000 C   0  0  0  0  0  0  0  0  0  0  0  0
   -4.9082    2.4838   -0.0000 F   0  0  0  0  0  0  0  0  0  0  0  0
   -2.4363    3.2920   -0.0000 C   0  0  0  0  0  0  0  0  0  0  0  0
   -3.5297   -1.7827   -0.0000 N   0  0  0  0  0  0  0  0  0  0  0  0
    0.0594    4.1120   -0.0000 F   0  0  0  0  0  0  0  0  0  0  0  0
   -2.0679   -2.0917   -0.0000 C   0  0  0  0  0  0  0  0  0  0  0  0
   -4.7062   -2.7215   -0.0000 C   0  0  0  0  0  0  0  0  0  0  0  0
   -1.1647   -0.8913   -0.0000 O   0  0  0  0  0  0  0  0  0  0  0  0
   -1.4142   -3.4346   -0.0000 C   0  0  0  0  0  0  0  0  0  0  0  0
   -4.7181   -4.2190   -0.0000 C   0  0  0  0  0  0  0  0  0  0  0  0
   -6.0254   -1.9609   -0.0000 C   0  0  0  0  0  0  0  0  0  0  0  0
   -2.0679   -4.7894   -0.0000 N   0  0  0  0  0  0  0  0  0  0  0  0
   -6.0373   -4.9558   -0.0000 C   0  0  0  0  0  0  0  0  0  0  0  0
   -3.5415   -5.1341   -0.0000 C   0  0  0  0  0  0  0  0  0  0  0  0
   -7.3327   -2.6978   -0.0000 C   0  0  0  0  0  0  0  0  0  0  0  0
   -7.3445   -4.1952   -0.0000 C   0  0  0  0  0  0  0  0  0  0  0  0
   -4.6230   -6.1799   -0.0000 C   0  0  0  0  0  0  0  0  0  0  0  0
   -2.8047   -6.4176   -0.0000 C   0  0  0  0  0  0  0  0  0  0  0  0
   -4.2427   -7.6060   -0.0000 C   0  0  0  0  0  0  0  0  0  0  0  0
   -6.0967   -5.7639   -0.0000 C   0  0  0  0  0  0  0  0  0  0  0  0
   -3.5772   -7.7011   -0.0000 O   0  0  0  0  0  0  0  0  0  0  0  0
   -1.3667   -6.7979   -0.0000 C   0  0  0  0  0  0  0  0  0  0  0  0
   -5.3480   -8.6518   -0.0000 C   0  0  0  0  0  0  0  0  0  0  0  0
   -7.1782   -6.7979   -0.0000 C   0  0  0  0  0  0  0  0  0  0  0  0
   -3.1969   -9.1391   -0.0000 C   0  0  0  0  0  0  0  0  0  0  0  0
   -0.9864   -8.2359   -0.0000 O   0  0  0  0  0  0  0  0  0  0  0  0
    0.0594   -6.3938   -0.0000 O   0  0  0  0  0  0  0  0  0  0  0  0
   -6.1086   -9.9353   -0.0000 C   0  0  0  0  0  0  0  0  0  0  0  0
   -6.7979   -8.2359   -0.0000 C   0  0  0  0  0  0  0  0  0  0  0  0
   -1.7708   -9.4956   -0.0000 N   0  0  0  0  0  0  0  0  0  0  0  0
   -4.2784  -10.1849   -0.0000 N   0  0  0  0  0  0  0  0  0  0  0  0
   -7.6298   -9.8997   -0.0000 C   0  0  0  0  0  0  0  0  0  0  0  0
   -5.3955  -11.2189   -0.0000 C   0  0  0  0  0  0  0  0  0  0  0  0
   -1.3905  -10.9336   -0.0000 C   0  0  0  0  0  0  0  0  0  0  0  0
   -3.8981  -11.6229   -0.0000 C   0  0  0  0  0  0  0  0  0  0  0  0
   -8.4023  -11.1713   -0.0000 C   0  0  0  0  0  0  0  0  0  0  0  0
   -6.1561  -12.4905   -0.0000 C   0  0  0  0  0  0  0  0  0  0  0  0
   -2.4720  -11.9913   -0.0000 C   0  0  0  0  0  0  0  0  0  0  0  0
    0.0475  -11.3139   -0.0000 C   0  0  0  0  0  0  0  0  0  0  0  0
   -4.9677  -12.6687   -0.0000 C   0  0  0  0  0  0  0  0  0  0  0  0
   -7.6654  -12.4786   -0.0000 C   0  0  0  0  0  0  0  0  0  0  0  0
  1  2  1  0  0  0  0
  2  3  2  0  0  0  0
  2  4  1  0  0  0  0
  3  5  1  0  0  0  0
  3  6  1  0  0  0  0
  4  7  2  0  0  0  0
  5  8  1  0  0  0  0
  5  9  2  0  0  0  0
  6 10  1  0  0  0  0
  7 11  1  0  0  0  0
 10 12  1  0  0  0  0
 10 13  1  0  0  0  0
 12 14  2  0  0  0  0
 12 15  1  0  0  0  0
 13 16  2  0  0  0  0
 13 17  1  0  0  0  0
 15 18  1  0  0  0  0
 16 19  1  0  0  0  0
 16 20  1  0  0  0  0
 17 21  2  0  0  0  0
 19 22  2  0  0  0  0
 20 23  1  1  0  0  0
 20 24  1  0  0  0  0
 23 25  2  0  0  0  0
 23 26  1  0  0  0  0
 24 27  1  1  0  0  0
 24 28  1  0  0  0  0
 25 29  1  0  0  0  0
 26 30  2  0  0  0  0
 27 31  1  0  0  0  0
 28 32  2  0  0  0  0
 28 33  1  0  0  0  0
 29 34  1  0  0  0  0
 29 35  2  0  0  0  0
 31 36  2  0  0  0  0
 31 37  1  0  0  0  0
 34 38  2  0  0  0  0
 34 39  1  0  0  0  0
 36 40  1  0  0  0  0
 37 41  2  0  0  0  0
 38 42  1  0  0  0  0
 39 43  2  0  0  0  0
 40 44  2  0  0  0  0
 40 45  1  0  0  0  0
 41 46  1  0  0  0  0
 42 47  2  0  0  0  0
  7  9  1  0  0  0  0
 18 20  1  0  0  0  0
 21 22  1  0  0  0  0
 30 35  1  0  0  0  0
 41 44  1  0  0  0  0
 43 47  1  0  0  0  0
M  END
>  <MolRegNo>
154053

>  <m>
=

>  <Value>
7000

>  <Unit>
nM

>  <Type>
IC50

>  <pValue>
5.16

>  <Ligand Efficiency>
0

>  <Binding Efficiency>
0

>  <Surface Efficiency>
0

>  <Assay Index>
51833

>  <Assay Category>


>  <Assay Organism>
Homo sapiens

>  <Target ID>
17045

>  <Target Name>
Cytochrome P450 3A4

>  <Target Organism>
Homo sapiens

>  <Target Description>
Target is a single protein chain

>  <Sequence Accession>
P08684

>  <Reference>
J Med Chem 47 (11), 2776-2795 (2004)

>  <Pubmed ID>
15139756

>  <DOI>
10.1021/jm031115r

$$$$
185983
Actelion Java MolfileCreator 1.0

 21 23  0  0  0  0  0  0  0  0999 V2000
    0.0000   -0.0000   -0.0000 O   0  0  0  0  0  0  0  0  0  0  0  0
    1.2632    0.7792   -0.0000 C   0  0  0  0  0  0  0  0  0  0  0  0
   -1.3223    0.7438   -0.0000 C   0  0  0  0  0  0  0  0  0  0  0  0
    2.5737    0.0472   -0.0000 C   0  0  0  0  0  0  0  0  0  0  0  0
    1.2278    2.2904   -0.0000 C   0  0  0  0  0  0  0  0  0  0  0  0
   -2.6327   -0.0118   -0.0000 C   0  0  0  0  0  0  0  0  0  0  0  0
    3.8487    0.8264   -0.0000 C   0  0  0  0  0  0  0  0  0  0  0  0
    2.5147    3.0577   -0.0000 C   0  0  0  0  0  0  0  0  0  0  0  0
   -3.9432    0.7320   -0.0000 C   0  0  0  0  0  0  0  0  0  0  0  0
    3.8133    2.3258   -0.0000 C   0  0  0  0  0  0  0  0  0  0  0  0
   -5.2537   -0.0236   -0.0000 C   0  0  0  0  0  0  0  0  0  0  0  0
    5.0766    3.1050   -0.0000 N   0  0  0  0  0  0  0  0  0  0  0  0
   -5.2419   -1.4994   -0.0000 C   0  0  0  0  0  0  0  0  0  0  0  0
   -6.5641    0.7320   -0.0000 C   0  0  0  0  0  0  0  0  0  0  0  0
    5.2064    4.6161   -0.0000 C   0  0  0  0  0  0  0  0  0  0  0  0
    6.4461    2.5265   -0.0000 C   0  0  0  0  0  0  0  0  0  0  0  0
   -6.5287   -2.2549   -0.0000 N   0  0  0  0  0  0  0  0  0  0  0  0
   -7.8628   -0.0236   -0.0000 C   0  0  0  0  0  0  0  0  0  0  0  0
    6.6586    4.9585   -0.0000 N   0  0  0  0  0  0  0  0  0  0  0  0
    7.4142    3.6599   -0.0000 C   0  0  0  0  0  0  0  0  0  0  0  0
   -7.8628   -1.5112   -0.0000 C   0  0  0  0  0  0  0  0  0  0  0  0
  1  2  1  0  0  0  0
  1  3  1  0  0  0  0
  2  4  2  0  0  0  0
  2  5  1  0  0  0  0
  3  6  1  0  0  0  0
  4  7  1  0  0  0  0
  5  8  2  0  0  0  0
  6  9  1  0  0  0  0
  7 10  2  0  0  0  0
  9 11  1  0  0  0  0
 10 12  1  0  0  0  0
 11 13  2  0  0  0  0
 11 14  1  0  0  0  0
 12 15  1  0  0  0  0
 12 16  1  0  0  0  0
 13 17  1  0  0  0  0
 14 18  2  0  0  0  0
 15 19  2  0  0  0  0
 16 20  2  0  0  0  0
 17 21  2  0  0  0  0
  8 10  1  0  0  0  0
 18 21  1  0  0  0  0
 19 20  1  0  0  0  0
M  END
>  <MolRegNo>
185983

>  <m>
=

>  <Value>
417

>  <Unit>
nM

>  <Type>
IC50

>  <pValue>
6.38

>  <Ligand Efficiency>
0

>  <Binding Efficiency>
0

>  <Surface Efficiency>
0

>  <Assay Index>
51826

>  <Assay Category>


>  <Assay Organism>
Homo sapiens

>  <Target ID>
17045

>  <Target Name>
Cytochrome P450 3A4

>  <Target Organism>
Homo sapiens

>  <Target Description>
Target is a single protein chain

>  <Sequence Accession>
P08684

>  <Reference>
Bioorg Med Chem Lett 14 (2), 333-336 (2004)

>  <Pubmed ID>
14698153

>  <DOI>
10.1016/j.bmcl.2003.11.005

$$$$
185949
Actelion Java MolfileCreator 1.0

 20 22  0  0  0  0  0  0  0  0999 V2000
    0.0000   -0.0000   -0.0000 O   0  0  0  0  0  0  0  0  0  0  0  0
    1.2924    0.7778   -0.0000 C   0  0  0  0  0  0  0  0  0  0  0  0
    0.0120   -1.4958   -0.0000 C   0  0  0  0  0  0  0  0  0  0  0  0
    2.5847    0.0598   -0.0000 C   0  0  0  0  0  0  0  0  0  0  0  0
    1.3043   -2.2257   -0.0000 C   0  0  0  0  0  0  0  0  0  0  0  0
    2.5967   -1.4479   -0.0000 N   0  0  0  0  0  0  0  0  0  0  0  0
    3.8890   -2.1778   -0.0000 C   0  0  0  0  0  0  0  0  0  0  0  0
    5.1814   -1.3881   -0.0000 C   0  0  0  0  0  0  0  0  0  0  0  0
    6.4857   -2.1061   -0.0000 O   0  0  0  0  0  0  0  0  0  0  0  0
    7.7541   -1.3163   -0.0000 C   0  0  0  0  0  0  0  0  0  0  0  0
    7.7182    0.2034   -0.0000 C   0  0  0  0  0  0  0  0  0  0  0  0
    9.0584   -2.0462   -0.0000 C   0  0  0  0  0  0  0  0  0  0  0  0
    9.0106    0.9812   -0.0000 C   0  0  0  0  0  0  0  0  0  0  0  0
   10.3388   -1.1966   -0.0000 C   0  0  0  0  0  0  0  0  0  0  0  0
   10.3149    0.2513   -0.0000 C   0  0  0  0  0  0  0  0  0  0  0  0
   11.5833    1.0411   -0.0000 N   0  0  0  0  0  0  0  0  0  0  0  0
   11.7030    2.5608   -0.0000 C   0  0  0  0  0  0  0  0  0  0  0  0
   12.9594    0.4547   -0.0000 C   0  0  0  0  0  0  0  0  0  0  0  0
   13.1628    2.8958   -0.0000 N   0  0  0  0  0  0  0  0  0  0  0  0
   13.9406    1.5915   -0.0000 C   0  0  0  0  0  0  0  0  0  0  0  0
  1  2  1  0  0  0  0
  1  3  1  0  0  0  0
  2  4  1  0  0  0  0
  3  5  1  0  0  0  0
  4  6  1  0  0  0  0
  6  7  1  0  0  0  0
  7  8  1  0  0  0  0
  8  9  1  0  0  0  0
  9 10  1  0  0  0  0
 10 11  2  0  0  0  0
 10 12  1  0  0  0  0
 11 13  1  0  0  0  0
 12 14  2  0  0  0  0
 13 15  2  0  0  0  0
 15 16  1  0  0  0  0
 16 17  1  0  0  0  0
 16 18  1  0  0  0  0
 17 19  2  0  0  0  0
 18 20  2  0  0  0  0
  5  6  1  0  0  0  0
 14 15  1  0  0  0  0
 19 20  1  0  0  0  0
M  END
>  <MolRegNo>
185949

>  <m>
=

>  <Value>
5670

>  <Unit>
nM

>  <Type>
IC50

>  <pValue>
5.25

>  <Ligand Efficiency>
0

>  <Binding Efficiency>
0

>  <Surface Efficiency>
0

>  <Assay Index>
51826

>  <Assay Category>


>  <Assay Organism>
Homo sapiens

>  <Target ID>
17045

>  <Target Name>
Cytochrome P450 3A4

>  <Target Organism>
Homo sapiens

>  <Target Description>
Target is a single protein chain

>  <Sequence Accession>
P08684

>  <Reference>
Bioorg Med Chem Lett 14 (2), 333-336 (2004)

>  <Pubmed ID>
14698153

>  <DOI>
10.1016/j.bmcl.2003.11.005

$$$$
185953
Actelion Java MolfileCreator 1.0

 21 23  0  0  0  0  0  0  0  0999 V2000
    0.0000   -0.0000   -0.0000 O   0  0  0  0  0  0  0  0  0  0  0  0
    1.2636    0.7794   -0.0000 C   0  0  0  0  0  0  0  0  0  0  0  0
   -1.3227    0.7440   -0.0000 C   0  0  0  0  0  0  0  0  0  0  0  0
    2.5745    0.0472   -0.0000 C   0  0  0  0  0  0  0  0  0  0  0  0
    1.2282    2.2910   -0.0000 C   0  0  0  0  0  0  0  0  0  0  0  0
   -2.6335   -0.0118   -0.0000 C   0  0  0  0  0  0  0  0  0  0  0  0
    3.8499    0.8267   -0.0000 C   0  0  0  0  0  0  0  0  0  0  0  0
    2.5154    3.0587   -0.0000 C   0  0  0  0  0  0  0  0  0  0  0  0
   -3.9444    0.7322   -0.0000 C   0  0  0  0  0  0  0  0  0  0  0  0
    3.8145    2.3265   -0.0000 C   0  0  0  0  0  0  0  0  0  0  0  0
   -5.2552   -0.0236   -0.0000 C   0  0  0  0  0  0  0  0  0  0  0  0
    5.0781    3.1059   -0.0000 N   0  0  0  0  0  0  0  0  0  0  0  0
   -6.5661    0.7322   -0.0000 C   0  0  0  0  0  0  0  0  0  0  0  0
   -5.2434   -1.4998   -0.0000 C   0  0  0  0  0  0  0  0  0  0  0  0
    5.2080    4.6175   -0.0000 C   0  0  0  0  0  0  0  0  0  0  0  0
    6.4480    2.5272   -0.0000 C   0  0  0  0  0  0  0  0  0  0  0  0
   -7.8651   -0.0236   -0.0000 C   0  0  0  0  0  0  0  0  0  0  0  0
   -6.5306   -2.2556   -0.0000 C   0  0  0  0  0  0  0  0  0  0  0  0
    6.6606    4.9600   -0.0000 N   0  0  0  0  0  0  0  0  0  0  0  0
    7.4164    3.6609   -0.0000 C   0  0  0  0  0  0  0  0  0  0  0  0
   -7.8533   -1.5116   -0.0000 N   0  0  0  0  0  0  0  0  0  0  0  0
  1  2  1  0  0  0  0
  1  3  1  0  0  0  0
  2  4  2  0  0  0  0
  2  5  1  0  0  0  0
  3  6  1  0  0  0  0
  4  7  1  0  0  0  0
  5  8  2  0  0  0  0
  6  9  1  0  0  0  0
  7 10  2  0  0  0  0
  9 11  1  0  0  0  0
 10 12  1  0  0  0  0
 11 13  2  0  0  0  0
 11 14  1  0  0  0  0
 12 15  1  0  0  0  0
 12 16  1  0  0  0  0
 13 17  1  0  0  0  0
 14 18  2  0  0  0  0
 15 19  2  0  0  0  0
 16 20  2  0  0  0  0
 17 21  2  0  0  0  0
  8 10  1  0  0  0  0
 18 21  1  0  0  0  0
 19 20  1  0  0  0  0
M  END
>  <MolRegNo>
185953

>  <m>
=

>  <Value>
344

>  <Unit>
nM

>  <Type>
IC50

>  <pValue>
6.46

>  <Ligand Efficiency>
0

>  <Binding Efficiency>
0

>  <Surface Efficiency>
0

>  <Assay Index>
51826

>  <Assay Category>


>  <Assay Organism>
Homo sapiens

>  <Target ID>
17045

>  <Target Name>
Cytochrome P450 3A4

>  <Target Organism>
Homo sapiens

>  <Target Description>
Target is a single protein chain

>  <Sequence Accession>
P08684

>  <Reference>
Bioorg Med Chem Lett 14 (2), 333-336 (2004)

>  <Pubmed ID>
14698153

>  <DOI>
10.1016/j.bmcl.2003.11.005

$$$$
186430
Actelion Java MolfileCreator 1.0

 18 19  0  0  0  0  0  0  0  0999 V2000
    0.0000   -0.0000   -0.0000 O   0  0  0  0  0  0  0  0  0  0  0  0
    1.2641    0.7797   -0.0000 C   0  0  0  0  0  0  0  0  0  0  0  0
   -1.3232    0.7443   -0.0000 C   0  0  0  0  0  0  0  0  0  0  0  0
    1.2287    2.2920   -0.0000 C   0  0  0  0  0  0  0  0  0  0  0  0
    2.5755    0.0473   -0.0000 C   0  0  0  0  0  0  0  0  0  0  0  0
   -2.6346   -0.0118   -0.0000 C   0  0  0  0  0  0  0  0  0  0  0  0
    2.5164    3.0599   -0.0000 C   0  0  0  0  0  0  0  0  0  0  0  0
    3.8515    0.8979   -0.0000 C   0  0  0  0  0  0  0  0  0  0  0  0
   -3.9460    0.7325   -0.0000 C   0  0  0  0  0  0  0  0  0  0  0  0
    3.8160    2.3392   -0.0000 C   0  0  0  0  0  0  0  0  0  0  0  0
   -5.2455   -0.0236   -0.0000 N   0  0  0  0  0  0  0  0  0  0  0  0
    5.0801    3.1190   -0.0000 N   0  0  0  0  0  0  0  0  0  0  0  0
   -6.5806    0.7207   -0.0000 C   0  0  0  0  0  0  0  0  0  0  0  0
   -5.2337   -1.5122   -0.0000 C   0  0  0  0  0  0  0  0  0  0  0  0
    5.2101    4.6312   -0.0000 C   0  0  0  0  0  0  0  0  0  0  0  0
    6.4506    2.5401   -0.0000 C   0  0  0  0  0  0  0  0  0  0  0  0
    6.6633    4.9738   -0.0000 N   0  0  0  0  0  0  0  0  0  0  0  0
    7.4194    3.6742   -0.0000 C   0  0  0  0  0  0  0  0  0  0  0  0
  1  2  1  0  0  0  0
  1  3  1  0  0  0  0
  2  4  2  0  0  0  0
  2  5  1  0  0  0  0
  3  6  1  0  0  0  0
  4  7  1  0  0  0  0
  5  8  2  0  0  0  0
  6  9  1  0  0  0  0
  7 10  2  0  0  0  0
  9 11  1  0  0  0  0
 10 12  1  0  0  0  0
 11 13  1  0  0  0  0
 11 14  1  0  0  0  0
 12 15  1  0  0  0  0
 12 16  1  0  0  0  0
 15 17  2  0  0  0  0
 16 18  2  0  0  0  0
  8 10  1  0  0  0  0
 17 18  1  0  0  0  0
M  END
>  <MolRegNo>
186430

>  <m>
=

>  <Value>
39000

>  <Unit>
nM

>  <Type>
IC50

>  <pValue>
4.41

>  <Ligand Efficiency>
0

>  <Binding Efficiency>
0

>  <Surface Efficiency>
0

>  <Assay Index>
51826

>  <Assay Category>


>  <Assay Organism>
Homo sapiens

>  <Target ID>
17045

>  <Target Name>
Cytochrome P450 3A4

>  <Target Organism>
Homo sapiens

>  <Target Description>
Target is a single protein chain

>  <Sequence Accession>
P08684

>  <Reference>
Bioorg Med Chem Lett 14 (2), 333-336 (2004)

>  <Pubmed ID>
14698153

>  <DOI>
10.1016/j.bmcl.2003.11.005

$$$$
185908
Actelion Java MolfileCreator 1.0

 21 23  0  0  0  0  0  0  0  0999 V2000
    0.0000   -0.0000   -0.0000 O   0  0  0  0  0  0  0  0  0  0  0  0
    1.2632    0.7792   -0.0000 C   0  0  0  0  0  0  0  0  0  0  0  0
   -1.3223    0.7438   -0.0000 C   0  0  0  0  0  0  0  0  0  0  0  0
    2.5737    0.0472   -0.0000 C   0  0  0  0  0  0  0  0  0  0  0  0
    1.2278    2.2904   -0.0000 C   0  0  0  0  0  0  0  0  0  0  0  0
   -2.6327   -0.0118   -0.0000 C   0  0  0  0  0  0  0  0  0  0  0  0
    3.8487    0.8264   -0.0000 C   0  0  0  0  0  0  0  0  0  0  0  0
    2.5147    3.0577   -0.0000 C   0  0  0  0  0  0  0  0  0  0  0  0
   -3.9432    0.7320   -0.0000 C   0  0  0  0  0  0  0  0  0  0  0  0
    3.8133    2.3258   -0.0000 C   0  0  0  0  0  0  0  0  0  0  0  0
   -5.2537   -0.0236   -0.0000 C   0  0  0  0  0  0  0  0  0  0  0  0
    5.0766    3.1050   -0.0000 N   0  0  0  0  0  0  0  0  0  0  0  0
   -5.2419   -1.4994   -0.0000 N   0  0  0  0  0  0  0  0  0  0  0  0
   -6.5641    0.7320   -0.0000 C   0  0  0  0  0  0  0  0  0  0  0  0
    5.2064    4.6161   -0.0000 C   0  0  0  0  0  0  0  0  0  0  0  0
    6.4461    2.5265   -0.0000 C   0  0  0  0  0  0  0  0  0  0  0  0
   -6.5287   -2.2549   -0.0000 C   0  0  0  0  0  0  0  0  0  0  0  0
   -7.8628   -0.0236   -0.0000 C   0  0  0  0  0  0  0  0  0  0  0  0
    6.6586    4.9585   -0.0000 N   0  0  0  0  0  0  0  0  0  0  0  0
    7.4142    3.6599   -0.0000 C   0  0  0  0  0  0  0  0  0  0  0  0
   -7.8628   -1.5112   -0.0000 C   0  0  0  0  0  0  0  0  0  0  0  0
  1  2  1  0  0  0  0
  1  3  1  0  0  0  0
  2  4  2  0  0  0  0
  2  5  1  0  0  0  0
  3  6  1  0  0  0  0
  4  7  1  0  0  0  0
  5  8  2  0  0  0  0
  6  9  1  0  0  0  0
  7 10  2  0  0  0  0
  9 11  1  0  0  0  0
 10 12  1  0  0  0  0
 11 13  2  0  0  0  0
 11 14  1  0  0  0  0
 12 15  1  0  0  0  0
 12 16  1  0  0  0  0
 13 17  1  0  0  0  0
 14 18  2  0  0  0  0
 15 19  2  0  0  0  0
 16 20  2  0  0  0  0
 17 21  2  0  0  0  0
  8 10  1  0  0  0  0
 18 21  1  0  0  0  0
 19 20  1  0  0  0  0
M  END
>  <MolRegNo>
185908

>  <m>
=

>  <Value>
252

>  <Unit>
nM

>  <Type>
IC50

>  <pValue>
6.6

>  <Ligand Efficiency>
0

>  <Binding Efficiency>
0

>  <Surface Efficiency>
0

>  <Assay Index>
51826

>  <Assay Category>


>  <Assay Organism>
Homo sapiens

>  <Target ID>
17045

>  <Target Name>
Cytochrome P450 3A4

>  <Target Organism>
Homo sapiens

>  <Target Description>
Target is a single protein chain

>  <Sequence Accession>
P08684

>  <Reference>
Bioorg Med Chem Lett 14 (2), 333-336 (2004)

>  <Pubmed ID>
14698153

>  <DOI>
10.1016/j.bmcl.2003.11.005

$$$$
186433
Actelion Java MolfileCreator 1.0

 21 22  0  0  0  0  0  0  0  0999 V2000
    0.0000   -0.0000   -0.0000 O   0  0  0  0  0  0  0  0  0  0  0  0
    1.2620    0.7784   -0.0000 C   0  0  0  0  0  0  0  0  0  0  0  0
   -1.3210    0.7431   -0.0000 C   0  0  0  0  0  0  0  0  0  0  0  0
    1.2266    2.2882   -0.0000 C   0  0  0  0  0  0  0  0  0  0  0  0
    2.5712    0.0472   -0.0000 C   0  0  0  0  0  0  0  0  0  0  0  0
   -2.6302   -0.0118   -0.0000 C   0  0  0  0  0  0  0  0  0  0  0  0
    2.5123    3.0548   -0.0000 C   0  0  0  0  0  0  0  0  0  0  0  0
    3.8450    0.8964   -0.0000 C   0  0  0  0  0  0  0  0  0  0  0  0
   -3.9394    0.7313   -0.0000 C   0  0  0  0  0  0  0  0  0  0  0  0
    3.8097    2.3353   -0.0000 C   0  0  0  0  0  0  0  0  0  0  0  0
   -5.2368   -0.0236   -0.0000 C   0  0  0  0  0  0  0  0  0  0  0  0
    5.0717    3.1138   -0.0000 N   0  0  0  0  0  0  0  0  0  0  0  0
   -6.5696    0.7195   -0.0000 C   0  0  0  0  0  0  0  0  0  0  0  0
    5.2014    4.6235   -0.0000 C   0  0  0  0  0  0  0  0  0  0  0  0
    6.4399    2.5358   -0.0000 C   0  0  0  0  0  0  0  0  0  0  0  0
   -7.8552   -0.0354   -0.0000 C   0  0  0  0  0  0  0  0  0  0  0  0
    6.6522    4.9655   -0.0000 N   0  0  0  0  0  0  0  0  0  0  0  0
    7.4070    3.6681   -0.0000 C   0  0  0  0  0  0  0  0  0  0  0  0
   -9.1762    0.7195   -0.0000 N   0  0  0  0  0  0  0  0  0  0  0  0
  -10.4854   -0.0354   -0.0000 C   0  0  0  0  0  0  0  0  0  0  0  0
   -9.2116    2.2292   -0.0000 C   0  0  0  0  0  0  0  0  0  0  0  0
  1  2  1  0  0  0  0
  1  3  1  0  0  0  0
  2  4  2  0  0  0  0
  2  5  1  0  0  0  0
  3  6  1  0  0  0  0
  4  7  1  0  0  0  0
  5  8  2  0  0  0  0
  6  9  1  0  0  0  0
  7 10  2  0  0  0  0
  9 11  1  0  0  0  0
 10 12  1  0  0  0  0
 11 13  1  0  0  0  0
 12 14  1  0  0  0  0
 12 15  1  0  0  0  0
 13 16  1  0  0  0  0
 14 17  2  0  0  0  0
 15 18  2  0  0  0  0
 16 19  1  0  0  0  0
 19 20  1  0  0  0  0
 19 21  1  0  0  0  0
  8 10  1  0  0  0  0
 17 18  1  0  0  0  0
M  END
>  <MolRegNo>
186433

>  <m>
=

>  <Value>
4460

>  <Unit>
nM

>  <Type>
IC50

>  <pValue>
5.35

>  <Ligand Efficiency>
0

>  <Binding Efficiency>
0

>  <Surface Efficiency>
0

>  <Assay Index>
51826

>  <Assay Category>


>  <Assay Organism>
Homo sapiens

>  <Target ID>
17045

>  <Target Name>
Cytochrome P450 3A4

>  <Target Organism>
Homo sapiens

>  <Target Description>
Target is a single protein chain

>  <Sequence Accession>
P08684

>  <Reference>
Bioorg Med Chem Lett 14 (2), 333-336 (2004)

>  <Pubmed ID>
14698153

>  <DOI>
10.1016/j.bmcl.2003.11.005

$$$$
186321
Actelion Java MolfileCreator 1.0

 19 21  0  0  0  0  0  0  0  0999 V2000
    0.0000   -0.0000   -0.0000 O   0  0  0  0  0  0  0  0  0  0  0  0
    1.2643    0.7799   -0.0000 C   0  0  0  0  0  0  0  0  0  0  0  0
   -1.3234    0.7444   -0.0000 C   0  0  0  0  0  0  0  0  0  0  0  0
    2.5759    0.0473   -0.0000 C   0  0  0  0  0  0  0  0  0  0  0  0
    1.2289    2.2923   -0.0000 C   0  0  0  0  0  0  0  0  0  0  0  0
   -2.6350   -0.0118   -0.0000 C   0  0  0  0  0  0  0  0  0  0  0  0
    3.8520    0.8271   -0.0000 C   0  0  0  0  0  0  0  0  0  0  0  0
    2.5168    3.0604   -0.0000 C   0  0  0  0  0  0  0  0  0  0  0  0
   -2.6232   -1.4888   -0.0000 N   0  0  0  0  0  0  0  0  0  0  0  0
   -3.9466    0.7326   -0.0000 C   0  0  0  0  0  0  0  0  0  0  0  0
    3.8166    2.3278   -0.0000 C   0  0  0  0  0  0  0  0  0  0  0  0
   -3.9111   -2.2451   -0.0000 C   0  0  0  0  0  0  0  0  0  0  0  0
   -5.2582   -0.0236   -0.0000 C   0  0  0  0  0  0  0  0  0  0  0  0
    5.0809    3.1076   -0.0000 N   0  0  0  0  0  0  0  0  0  0  0  0
   -5.2463   -1.5006   -0.0000 C   0  0  0  0  0  0  0  0  0  0  0  0
    5.2109    4.6201   -0.0000 C   0  0  0  0  0  0  0  0  0  0  0  0
    6.4516    2.5286   -0.0000 C   0  0  0  0  0  0  0  0  0  0  0  0
    6.6643    4.9628   -0.0000 N   0  0  0  0  0  0  0  0  0  0  0  0
    7.4205    3.6630   -0.0000 C   0  0  0  0  0  0  0  0  0  0  0  0
  1  2  1  0  0  0  0
  1  3  1  0  0  0  0
  2  4  2  0  0  0  0
  2  5  1  0  0  0  0
  3  6  1  0  0  0  0
  4  7  1  0  0  0  0
  5  8  2  0  0  0  0
  6  9  2  0  0  0  0
  6 10  1  0  0  0  0
  7 11  2  0  0  0  0
  9 12  1  0  0  0  0
 10 13  2  0  0  0  0
 11 14  1  0  0  0  0
 12 15  2  0  0  0  0
 14 16  1  0  0  0  0
 14 17  1  0  0  0  0
 16 18  2  0  0  0  0
 17 19  2  0  0  0  0
  8 11  1  0  0  0  0
 13 15  1  0  0  0  0
 18 19  1  0  0  0  0
M  END
>  <MolRegNo>
186321

>  <m>
=

>  <Value>
630

>  <Unit>
nM

>  <Type>
IC50

>  <pValue>
6.2

>  <Ligand Efficiency>
0

>  <Binding Efficiency>
0

>  <Surface Efficiency>
0

>  <Assay Index>
51826

>  <Assay Category>


>  <Assay Organism>
Homo sapiens

>  <Target ID>
17045

>  <Target Name>
Cytochrome P450 3A4

>  <Target Organism>
Homo sapiens

>  <Target Description>
Target is a single protein chain

>  <Sequence Accession>
P08684

>  <Reference>
Bioorg Med Chem Lett 14 (2), 333-336 (2004)

>  <Pubmed ID>
14698153

>  <DOI>
10.1016/j.bmcl.2003.11.005

$$$$
186356
Actelion Java MolfileCreator 1.0

 18 19  0  0  0  0  0  0  0  0999 V2000
    0.0000   -0.0000   -0.0000 O   0  0  0  0  0  0  0  0  0  0  0  0
    1.2663    0.7811   -0.0000 C   0  0  0  0  0  0  0  0  0  0  0  0
   -1.3255    0.7456   -0.0000 C   0  0  0  0  0  0  0  0  0  0  0  0
    2.5800    0.1065   -0.0000 N   0  0  0  0  0  0  0  0  0  0  0  0
    1.2308    2.2960   -0.0000 C   0  0  0  0  0  0  0  0  0  0  0  0
   -2.6392   -0.0118   -0.0000 C   0  0  0  0  0  0  0  0  0  0  0  0
    3.8582    0.8876   -0.0000 C   0  0  0  0  0  0  0  0  0  0  0  0
    2.5209    3.0653   -0.0000 C   0  0  0  0  0  0  0  0  0  0  0  0
   -3.9529    0.7338   -0.0000 C   0  0  0  0  0  0  0  0  0  0  0  0
    3.8227    2.3315   -0.0000 C   0  0  0  0  0  0  0  0  0  0  0  0
   -5.2666   -0.0237   -0.0000 C   0  0  0  0  0  0  0  0  0  0  0  0
    5.0891    3.1126   -0.0000 N   0  0  0  0  0  0  0  0  0  0  0  0
   -6.5803    0.7338   -0.0000 C   0  0  0  0  0  0  0  0  0  0  0  0
    5.2192    4.6275   -0.0000 C   0  0  0  0  0  0  0  0  0  0  0  0
    6.4619    2.5327   -0.0000 C   0  0  0  0  0  0  0  0  0  0  0  0
   -7.8821   -0.0237   -0.0000 C   0  0  0  0  0  0  0  0  0  0  0  0
    6.6749    4.9707   -0.0000 N   0  0  0  0  0  0  0  0  0  0  0  0
    7.4324    3.6689   -0.0000 C   0  0  0  0  0  0  0  0  0  0  0  0
  1  2  1  0  0  0  0
  1  3  1  0  0  0  0
  2  4  2  0  0  0  0
  2  5  1  0  0  0  0
  3  6  1  0  0  0  0
  4  7  1  0  0  0  0
  5  8  2  0  0  0  0
  6  9  1  0  0  0  0
  7 10  2  0  0  0  0
  9 11  1  0  0  0  0
 10 12  1  0  0  0  0
 11 13  1  0  0  0  0
 12 14  1  0  0  0  0
 12 15  1  0  0  0  0
 13 16  1  0  0  0  0
 14 17  2  0  0  0  0
 15 18  2  0  0  0  0
  8 10  1  0  0  0  0
 17 18  1  0  0  0  0
M  END
>  <MolRegNo>
186356

>  <m>
=

>  <Value>
76900

>  <Unit>
nM

>  <Type>
IC50

>  <pValue>
4.11

>  <Ligand Efficiency>
0

>  <Binding Efficiency>
0

>  <Surface Efficiency>
0

>  <Assay Index>
51826

>  <Assay Category>


>  <Assay Organism>
Homo sapiens

>  <Target ID>
17045

>  <Target Name>
Cytochrome P450 3A4

>  <Target Organism>
Homo sapiens

>  <Target Description>
Target is a single protein chain

>  <Sequence Accession>
P08684

>  <Reference>
Bioorg Med Chem Lett 14 (2), 333-336 (2004)

>  <Pubmed ID>
14698153

>  <DOI>
10.1016/j.bmcl.2003.11.005

$$$$
14075
Actelion Java MolfileCreator 1.0

 31 34  0  0  0  0  0  0  0  0999 V2000
    0.0000   -0.0000   -0.0000 F   0  0  0  0  0  0  0  0  0  0  0  0
    1.3126   -0.7778   -0.0000 C   0  0  0  0  0  0  0  0  0  0  0  0
    2.6252    0.0243   -0.0000 C   0  0  0  0  0  0  0  0  0  0  0  0
    1.3004   -2.2484   -0.0000 C   0  0  0  0  0  0  0  0  0  0  0  0
    3.9013   -0.7171   -0.0000 C   0  0  0  0  0  0  0  0  0  0  0  0
    2.6130   -2.9898   -0.0000 C   0  0  0  0  0  0  0  0  0  0  0  0
    5.2139    0.0486   -0.0000 N   0  0  0  0  0  0  0  0  0  0  0  0
    3.8892   -2.2120   -0.0000 C   0  0  0  0  0  0  0  0  0  0  0  0
    2.6009   -4.5211   -0.0000 C   0  0  0  0  0  0  0  0  0  0  0  0
    6.5265   -0.6928   -0.0000 C   0  0  0  0  0  0  0  0  0  0  0  0
    3.9135   -5.2625   -0.0000 C   0  0  0  0  0  0  0  0  0  0  0  0
    1.2640   -5.2625   -0.0000 C   0  0  0  0  0  0  0  0  0  0  0  0
    7.8026    0.0729   -0.0000 O   0  0  0  0  0  0  0  0  0  0  0  0
    6.5143   -2.1877   -0.0000 N   0  0  0  0  0  0  0  0  0  0  0  0
    3.9013   -6.7574   -0.0000 N   0  0  0  0  0  0  0  0  0  0  0  0
    1.2518   -6.7574   -0.0000 C   0  0  0  0  0  0  0  0  0  0  0  0
    7.7297   -3.0627   -0.0000 C   0  0  0  0  0  0  0  0  0  0  0  0
    5.3111   -3.0870   -0.0000 C   0  0  0  0  0  0  0  0  0  0  0  0
    2.5644   -7.4988   -0.0000 C   0  0  0  0  0  0  0  0  0  0  0  0
    7.2679   -4.4725   -0.0000 C   0  0  0  0  0  0  0  0  0  0  0  0
    9.2003   -2.7346   -0.0000 C   0  0  0  0  0  0  0  0  0  0  0  0
    5.7730   -4.4604   -0.0000 C   0  0  0  0  0  0  0  0  0  0  0  0
    8.2766   -5.5664   -0.0000 C   0  0  0  0  0  0  0  0  0  0  0  0
   10.1969   -3.8284   -0.0000 C   0  0  0  0  0  0  0  0  0  0  0  0
    9.7107   -5.2382   -0.0000 C   0  0  0  0  0  0  0  0  0  0  0  0
   11.6675   -3.5367   -0.0000 C   0  0  0  0  0  0  0  0  0  0  0  0
   10.7073   -6.3563   -0.0000 O   0  0  0  0  0  0  0  0  0  0  0  0
   11.9349   -5.0073   -0.0000 F   0  0  0  0  0  0  0  0  0  0  0  0
   11.3393   -2.0418   -0.0000 F   0  0  0  0  0  0  0  0  0  0  0  0
   13.1381   -3.2450   -0.0000 F   0  0  0  0  0  0  0  0  0  0  0  0
   10.2577   -7.7905   -0.0000 C   0  0  0  0  0  0  0  0  0  0  0  0
  1  2  1  0  0  0  0
  2  3  2  0  0  0  0
  2  4  1  0  0  0  0
  3  5  1  0  0  0  0
  4  6  2  0  0  0  0
  5  7  1  0  0  0  0
  5  8  2  0  0  0  0
  6  9  1  0  0  0  0
  7 10  1  0  0  0  0
  9 11  2  0  0  0  0
  9 12  1  0  0  0  0
 10 13  2  0  0  0  0
 10 14  1  0  0  0  0
 11 15  1  0  0  0  0
 12 16  2  0  0  0  0
 14 17  1  0  0  0  0
 14 18  1  0  0  0  0
 15 19  2  0  0  0  0
 17 20  2  0  0  0  0
 17 21  1  0  0  0  0
 18 22  1  0  0  0  0
 20 23  1  0  0  0  0
 21 24  2  0  0  0  0
 23 25  2  0  0  0  0
 24 26  1  0  0  0  0
 25 27  1  0  0  0  0
 26 28  1  0  0  0  0
 26 29  1  0  0  0  0
 26 30  1  0  0  0  0
 27 31  1  0  0  0  0
  6  8  1  0  0  0  0
 16 19  1  0  0  0  0
 20 22  1  0  0  0  0
 24 25  1  0  0  0  0
M  END
>  <MolRegNo>
14075

>  <m>
=

>  <Value>
9000

>  <Unit>
nM

>  <Type>
IC50

>  <pValue>
5.05

>  <Ligand Efficiency>
0

>  <Binding Efficiency>
0

>  <Surface Efficiency>
0

>  <Assay Index>
51810

>  <Assay Category>


>  <Assay Organism>
Homo sapiens

>  <Target ID>
17045

>  <Target Name>
Cytochrome P450 3A4

>  <Target Organism>
Homo sapiens

>  <Target Description>
Target is a single protein chain

>  <Sequence Accession>
P08684

>  <Reference>
J Med Chem 43 (6), 1123-1134 (2000)

>  <Pubmed ID>
10737744

>  <DOI>
10.1021/jm990388c

$$$$
197067
Actelion Java MolfileCreator 1.0

 23 24  0  0  0  0  0  0  0  0999 V2000
    0.0000   -0.0000   -0.0000 Cl  0  0  0  0  0  0  0  0  0  0  0  0
   -0.0119   -1.4844   -0.0000 C   0  0  0  0  0  0  0  0  0  0  0  0
   -1.3182   -2.2207   -0.0000 C   0  0  0  0  0  0  0  0  0  0  0  0
    1.2707   -2.2088   -0.0000 C   0  0  0  0  0  0  0  0  0  0  0  0
   -2.6244   -1.4607   -0.0000 C   0  0  0  0  0  0  0  0  0  0  0  0
   -1.3300   -3.7051   -0.0000 C   0  0  0  0  0  0  0  0  0  0  0  0
    1.2707   -3.7051   -0.0000 C   0  0  0  0  0  0  0  0  0  0  0  0
   -3.9426   -2.1969   -0.0000 N   0  0  0  0  0  0  0  0  0  0  0  0
   -2.6363    0.0594   -0.0000 C   0  0  0  0  0  0  0  0  0  0  0  0
   -0.0475   -4.4413   -0.0000 C   0  0  0  0  0  0  0  0  0  0  0  0
    2.5532   -4.4413   -0.0000 Cl  0  0  0  0  0  0  0  0  0  0  0  0
   -5.2489   -1.4369   -0.0000 C   0  0  0  0  0  0  0  0  0  0  0  0
   -3.9545    0.8075   -0.0000 C   0  0  0  0  0  0  0  0  0  0  0  0
   -1.3538    0.8313   -0.0000 C   0  0  0  0  0  0  0  0  0  0  0  0
   -5.2607    0.0713   -0.0000 N   0  0  0  0  0  0  0  0  0  0  0  0
   -6.5551   -2.1732   -0.0000 N   0  0  0  0  0  0  0  0  0  0  0  0
   -3.9782    2.3157   -0.0000 N   0  0  0  0  0  0  0  0  0  0  0  0
   -1.3775    2.3394   -0.0000 N   0  0  0  0  0  0  0  0  0  0  0  0
   -7.8614   -1.4132   -0.0000 C   0  0  0  0  0  0  0  0  0  0  0  0
   -6.5670   -3.6576   -0.0000 C   0  0  0  0  0  0  0  0  0  0  0  0
   -9.1677   -2.1494   -0.0000 C   0  0  0  0  0  0  0  0  0  0  0  0
  -10.4740   -1.3894   -0.0000 O   0  0  0  0  0  0  0  0  0  0  0  0
  -11.7802   -2.1257   -0.0000 C   0  0  0  0  0  0  0  0  0  0  0  0
  1  2  1  0  0  0  0
  2  3  2  0  0  0  0
  2  4  1  0  0  0  0
  3  5  1  0  0  0  0
  3  6  1  0  0  0  0
  4  7  2  0  0  0  0
  5  8  2  0  0  0  0
  5  9  1  0  0  0  0
  6 10  2  0  0  0  0
  7 11  1  0  0  0  0
  8 12  1  0  0  0  0
  9 13  2  0  0  0  0
  9 14  1  0  0  0  0
 12 15  2  0  0  0  0
 12 16  1  0  0  0  0
 13 17  1  0  0  0  0
 14 18  1  0  0  0  0
 16 19  1  0  0  0  0
 16 20  1  0  0  0  0
 19 21  1  0  0  0  0
 21 22  1  0  0  0  0
 22 23  1  0  0  0  0
  7 10  1  0  0  0  0
 13 15  1  0  0  0  0
M  END
>  <MolRegNo>
197067

>  <m>
=

>  <Value>
30000

>  <Unit>
nM

>  <Type>
IC50

>  <pValue>
4.52

>  <Ligand Efficiency>
0

>  <Binding Efficiency>
0

>  <Surface Efficiency>
0

>  <Assay Index>
51822

>  <Assay Category>


>  <Assay Organism>
Homo sapiens

>  <Target ID>
17045

>  <Target Name>
Cytochrome P450 3A4

>  <Target Organism>
Homo sapiens

>  <Target Description>
Target is a single protein chain

>  <Sequence Accession>
P08684

>  <Reference>
Bioorg Med Chem Lett 14 (13), 3575-3578 (2004)

>  <Pubmed ID>
15177477

>  <DOI>
10.1016/j.bmcl.2004.04.048

$$$$
51877
Actelion Java MolfileCreator 1.0

 23 25  0  0  0  0  0  0  0  0999 V2000
    0.0000   -0.0000   -0.0000 Cl  0  0  0  0  0  0  0  0  0  0  0  0
    1.2820    0.7597   -0.0000 C   0  0  0  0  0  0  0  0  0  0  0  0
    1.2701    2.2673   -0.0000 C   0  0  0  0  0  0  0  0  0  0  0  0
    2.5640    0.0237   -0.0000 C   0  0  0  0  0  0  0  0  0  0  0  0
   -0.0356    3.0270   -0.0000 C   0  0  0  0  0  0  0  0  0  0  0  0
    2.5522    3.0270   -0.0000 C   0  0  0  0  0  0  0  0  0  0  0  0
    3.8579    0.7953   -0.0000 C   0  0  0  0  0  0  0  0  0  0  0  0
   -1.3414    2.2910   -0.0000 N   0  0  0  0  0  0  0  0  0  0  0  0
   -0.0475    4.5345   -0.0000 C   0  0  0  0  0  0  0  0  0  0  0  0
    3.8342    2.3029   -0.0000 C   0  0  0  0  0  0  0  0  0  0  0  0
    5.1399    0.0712   -0.0000 Cl  0  0  0  0  0  0  0  0  0  0  0  0
   -2.6471    3.0507   -0.0000 C   0  0  0  0  0  0  0  0  0  0  0  0
   -1.3532    5.2942   -0.0000 C   0  0  0  0  0  0  0  0  0  0  0  0
    1.2345    5.3061   -0.0000 C   0  0  0  0  0  0  0  0  0  0  0  0
   -2.6590    4.5583   -0.0000 N   0  0  0  0  0  0  0  0  0  0  0  0
   -3.9529    2.3147   -0.0000 C   0  0  0  0  0  0  0  0  0  0  0  0
   -1.3770    6.8018   -0.0000 N   0  0  0  0  0  0  0  0  0  0  0  0
    1.2464    6.8255   -0.0000 N   0  0  0  0  0  0  0  0  0  0  0  0
   -5.2705    3.0745   -0.0000 C   0  0  0  0  0  0  0  0  0  0  0  0
   -3.9647    0.8309   -0.0000 C   0  0  0  0  0  0  0  0  0  0  0  0
   -6.5763    2.3385   -0.0000 C   0  0  0  0  0  0  0  0  0  0  0  0
   -5.2705    0.0950   -0.0000 C   0  0  0  0  0  0  0  0  0  0  0  0
   -6.5881    0.8547   -0.0000 C   0  0  0  0  0  0  0  0  0  0  0  0
  1  2  1  0  0  0  0
  2  3  2  0  0  0  0
  2  4  1  0  0  0  0
  3  5  1  0  0  0  0
  3  6  1  0  0  0  0
  4  7  2  0  0  0  0
  5  8  2  0  0  0  0
  5  9  1  0  0  0  0
  6 10  2  0  0  0  0
  7 11  1  0  0  0  0
  8 12  1  0  0  0  0
  9 13  2  0  0  0  0
  9 14  1  0  0  0  0
 12 15  2  0  0  0  0
 12 16  1  0  0  0  0
 13 17  1  0  0  0  0
 14 18  1  0  0  0  0
 16 19  2  0  0  0  0
 16 20  1  0  0  0  0
 19 21  1  0  0  0  0
 20 22  2  0  0  0  0
 21 23  2  0  0  0  0
  7 10  1  0  0  0  0
 13 15  1  0  0  0  0
 22 23  1  0  0  0  0
M  END
>  <MolRegNo>
51877

>  <m>
=

>  <Value>
10000

>  <Unit>
nM

>  <Type>
IC50

>  <pValue>
5

>  <Ligand Efficiency>
0

>  <Binding Efficiency>
0

>  <Surface Efficiency>
0

>  <Assay Index>
51820

>  <Assay Category>


>  <Assay Organism>
Homo sapiens

>  <Target ID>
17045

>  <Target Name>
Cytochrome P450 3A4

>  <Target Organism>
Homo sapiens

>  <Target Description>
Target is a single protein chain

>  <Sequence Accession>
P08684

>  <Reference>
Bioorg Med Chem Lett 14 (13), 3575-3578 (2004)

>  <Pubmed ID>
15177477

>  <DOI>
10.1016/j.bmcl.2004.04.048

$$$$
185014
Actelion Java MolfileCreator 1.0

 52 57  0  0  1  0  0  0  0  0999 V2000
    0.0000   -0.0000   -0.0000 F   0  0  0  0  0  0  0  0  0  0  0  0
    0.2336    1.5736   -0.0000 C   0  0  0  0  0  0  0  0  0  0  0  0
   -0.9589    0.8851   -0.0000 F   0  0  0  0  0  0  0  0  0  0  0  0
   -1.2293    2.1268   -0.0000 F   0  0  0  0  0  0  0  0  0  0  0  0
    1.5367    2.3357   -0.0000 C   0  0  0  0  0  0  0  0  0  0  0  0
    1.5244    3.8478   -0.0000 N   0  0  0  0  0  0  0  0  0  0  0  0
    0.1967    4.6100   -0.0000 C   0  0  0  0  0  0  0  0  0  0  0  0
   -1.1064    3.8724   -0.0000 O   0  0  0  0  0  0  0  0  0  0  0  0
    0.1844    6.1221   -0.0000 C   0  0  0  0  0  0  0  0  0  0  0  0
    1.4629    6.8720   -0.0000 N   0  0  0  0  0  0  0  0  0  0  0  0
   -1.1064    6.8720   -0.0000 C   0  0  0  0  0  0  0  0  0  0  0  0
    1.4506    8.3841   -0.0000 C   0  0  0  0  0  0  0  0  0  0  0  0
    2.7660    6.1467   -0.0000 C   0  0  0  0  0  0  0  0  0  0  0  0
   -1.1187    8.3841   -0.0000 N   0  0  0  0  0  0  0  0  0  0  0  0
    0.1475    9.1586   -0.0000 C   0  0  0  0  0  0  0  0  0  0  0  0
    4.0445    6.8966   -0.0000 C   0  0  0  0  0  0  0  0  0  0  0  0
   -2.4464    9.1463   -0.0000 C   0  0  0  0  0  0  0  0  0  0  0  0
    4.0322    8.4087   -0.0000 O   0  0  0  0  0  0  0  0  0  0  0  0
    5.3231    6.1713   -0.0000 C   0  0  0  0  0  0  0  0  0  0  0  0
   -3.7495    8.3964   -0.0000 C   0  0  0  0  0  0  0  0  0  0  0  0
    6.6016    6.9212   -0.0000 C   0  0  0  0  0  0  0  0  0  0  0  0
   -3.9216    6.9335   -0.0000 O   0  0  0  0  0  0  0  0  0  0  0  0
   -5.1264    9.0234   -0.0000 C   0  0  0  0  0  0  0  0  0  0  0  0
    7.8801    6.1713   -0.0000 C   0  0  0  0  0  0  0  0  0  0  0  0
    6.5893    8.4333   -0.0000 C   0  0  0  0  0  0  0  0  0  0  0  0
   -5.3845    6.6262   -0.0000 C   0  0  0  0  0  0  0  0  0  0  0  0
   -6.1590    7.9170   -0.0000 C   0  0  0  0  0  0  0  0  0  0  0  0
    7.8678    4.6838   -0.0000 O   0  0  0  0  0  0  0  0  0  0  0  0
    9.1586    6.9335   -0.0000 N   0  0  0  0  0  0  0  0  0  0  0  0
    5.5075    9.5151   -0.0000 C   0  0  0  0  0  0  0  0  0  0  0  0
   -6.0115    5.2739   -0.0000 C   0  0  0  0  0  0  0  0  0  0  0  0
   10.4371    6.1959   -0.0000 C   0  0  0  0  0  0  0  0  0  0  0  0
    4.0445    9.1463   -0.0000 C   0  0  0  0  0  0  0  0  0  0  0  0
    5.8763   11.0026   -0.0000 C   0  0  0  0  0  0  0  0  0  0  0  0
   -5.1386    4.0814   -0.0000 C   0  0  0  0  0  0  0  0  0  0  0  0
   -7.5236    5.1264   -0.0000 C   0  0  0  0  0  0  0  0  0  0  0  0
   10.4248    4.7084   -0.0000 C   0  0  0  0  0  0  0  0  0  0  0  0
   11.7156    6.9581   -0.0000 C   0  0  0  0  0  0  0  0  0  0  0  0
    2.9381   10.2281   -0.0000 C   0  0  0  0  0  0  0  0  0  0  0  0
    4.7944   12.0844   -0.0000 C   0  0  0  0  0  0  0  0  0  0  0  0
   -5.7410    2.7168   -0.0000 C   0  0  0  0  0  0  0  0  0  0  0  0
   -8.1260    3.7618   -0.0000 C   0  0  0  0  0  0  0  0  0  0  0  0
   11.7033    3.9708   -0.0000 C   0  0  0  0  0  0  0  0  0  0  0  0
    9.1217    3.9954   -0.0000 C   0  0  0  0  0  0  0  0  0  0  0  0
   11.7033    8.4702   -0.0000 O   0  0  0  0  0  0  0  0  0  0  0  0
   12.9941    6.2082   -0.0000 C   0  0  0  0  0  0  0  0  0  0  0  0
    3.3315   11.7279   -0.0000 N   0  0  0  0  0  0  0  0  0  0  0  0
   -7.2531    2.5570   -0.0000 C   0  0  0  0  0  0  0  0  0  0  0  0
   12.9819    4.7207   -0.0000 O   0  0  0  0  0  0  0  0  0  0  0  0
   11.6665    2.5079   -0.0000 C   0  0  0  0  0  0  0  0  0  0  0  0
    9.1094    2.5079   -0.0000 C   0  0  0  0  0  0  0  0  0  0  0  0
   10.3756    1.7703   -0.0000 C   0  0  0  0  0  0  0  0  0  0  0  0
  1  2  1  0  0  0  0
  2  3  1  0  0  0  0
  2  4  1  0  0  0  0
  2  5  1  0  0  0  0
  5  6  1  0  0  0  0
  6  7  1  0  0  0  0
  7  8  2  0  0  0  0
  9  7  1  6  0  0  0
  9 10  1  0  0  0  0
  9 11  1  0  0  0  0
 10 12  1  0  0  0  0
 10 13  1  0  0  0  0
 11 14  1  0  0  0  0
 12 15  1  0  0  0  0
 13 16  1  0  0  0  0
 14 17  1  0  0  0  0
 16 18  1  1  0  0  0
 16 19  1  0  0  0  0
 17 20  1  0  0  0  0
 21 19  1  1  0  0  0
 20 22  1  0  0  0  0
 20 23  2  0  0  0  0
 21 24  1  0  0  0  0
 21 25  1  0  0  0  0
 22 26  1  0  0  0  0
 23 27  1  0  0  0  0
 24 28  2  0  0  0  0
 24 29  1  0  0  0  0
 25 30  1  0  0  0  0
 26 31  1  0  0  0  0
 32 29  1  6  0  0  0
 30 33  2  0  0  0  0
 30 34  1  0  0  0  0
 31 35  2  0  0  0  0
 31 36  1  0  0  0  0
 32 37  1  0  0  0  0
 32 38  1  0  0  0  0
 33 39  1  0  0  0  0
 34 40  2  0  0  0  0
 35 41  1  0  0  0  0
 36 42  2  0  0  0  0
 37 43  2  0  0  0  0
 37 44  1  0  0  0  0
 38 45  1  6  0  0  0
 38 46  1  0  0  0  0
 39 47  2  0  0  0  0
 41 48  2  0  0  0  0
 43 49  1  0  0  0  0
 43 50  1  0  0  0  0
 44 51  2  0  0  0  0
 50 52  2  0  0  0  0
 14 15  1  0  0  0  0
 26 27  2  0  0  0  0
 40 47  1  0  0  0  0
 42 48  1  0  0  0  0
 46 49  1  0  0  0  0
 51 52  1  0  0  0  0
M  END
>  <MolRegNo>
185014

>  <m>
=

>  <Value>
1500

>  <Unit>
nM

>  <Type>
IC50

>  <pValue>
5.82

>  <Ligand Efficiency>
0

>  <Binding Efficiency>
0

>  <Surface Efficiency>
0

>  <Assay Index>
51825

>  <Assay Category>


>  <Assay Organism>
Homo sapiens

>  <Target ID>
17045

>  <Target Name>
Cytochrome P450 3A4

>  <Target Organism>
Homo sapiens

>  <Target Description>
Target is a single protein chain

>  <Sequence Accession>
P08684

>  <Reference>
Bioorg Med Chem Lett 13 (19), 3323-3326 (2003)

>  <Pubmed ID>
12951118

>  <DOI>
10.1016/s0960-894x(03)00680-2

$$$$
185016
Actelion Java MolfileCreator 1.0

 49 54  0  0  1  0  0  0  0  0999 V2000
    0.0000   -0.0000   -0.0000 S   0  0  0  0  0  0  0  0  0  0  0  0
    0.1477    1.4898   -0.0000 C   0  0  0  0  0  0  0  0  0  0  0  0
   -1.4775   -0.3078   -0.0000 C   0  0  0  0  0  0  0  0  0  0  0  0
   -1.2435    2.1177   -0.0000 C   0  0  0  0  0  0  0  0  0  0  0  0
    1.4282    2.2655   -0.0000 C   0  0  0  0  0  0  0  0  0  0  0  0
   -2.5117   -1.4159   -0.0000 S   0  0  0  0  0  0  0  0  0  0  0  0
   -2.2408    0.9973   -0.0000 C   0  0  0  0  0  0  0  0  0  0  0  0
    2.7333    1.5267   -0.0000 N   0  0  0  0  0  0  0  0  0  0  0  0
   -3.8907   -0.7880   -0.0000 C   0  0  0  0  0  0  0  0  0  0  0  0
   -3.7306    0.7018   -0.0000 C   0  0  0  0  0  0  0  0  0  0  0  0
    2.7210    0.0369   -0.0000 C   0  0  0  0  0  0  0  0  0  0  0  0
    4.0015    2.3024   -0.0000 C   0  0  0  0  0  0  0  0  0  0  0  0
    3.9892   -0.6895   -0.0000 C   0  0  0  0  0  0  0  0  0  0  0  0
    5.2820    1.5514   -0.0000 C   0  0  0  0  0  0  0  0  0  0  0  0
    5.2697    0.0616   -0.0000 N   0  0  0  0  0  0  0  0  0  0  0  0
    3.9769   -2.1793   -0.0000 C   0  0  0  0  0  0  0  0  0  0  0  0
    6.5748   -0.6649   -0.0000 C   0  0  0  0  0  0  0  0  0  0  0  0
    2.6718   -2.9180   -0.0000 O   0  0  0  0  0  0  0  0  0  0  0  0
    5.2820   -2.9180   -0.0000 N   0  0  0  0  0  0  0  0  0  0  0  0
    7.8553    0.0862   -0.0000 C   0  0  0  0  0  0  0  0  0  0  0  0
    5.2697   -4.4078   -0.0000 C   0  0  0  0  0  0  0  0  0  0  0  0
    7.8553    1.6006   -0.0000 O   0  0  0  0  0  0  0  0  0  0  0  0
    9.1481   -0.6402   -0.0000 C   0  0  0  0  0  0  0  0  0  0  0  0
    3.9399   -5.1466   -0.0000 C   0  0  0  0  0  0  0  0  0  0  0  0
   10.4285    0.1108   -0.0000 C   0  0  0  0  0  0  0  0  0  0  0  0
    2.4748   -4.5925   -0.0000 F   0  0  0  0  0  0  0  0  0  0  0  0
    3.6814   -6.6979   -0.0000 F   0  0  0  0  0  0  0  0  0  0  0  0
    2.7457   -5.8360   -0.0000 F   0  0  0  0  0  0  0  0  0  0  0  0
   11.7090   -0.6402   -0.0000 C   0  0  0  0  0  0  0  0  0  0  0  0
   10.4162    1.6252   -0.0000 C   0  0  0  0  0  0  0  0  0  0  0  0
   11.6967   -2.1300   -0.0000 O   0  0  0  0  0  0  0  0  0  0  0  0
   12.9895    0.1231   -0.0000 N   0  0  0  0  0  0  0  0  0  0  0  0
    9.3328    2.7087   -0.0000 C   0  0  0  0  0  0  0  0  0  0  0  0
   14.2700   -0.6156   -0.0000 C   0  0  0  0  0  0  0  0  0  0  0  0
    7.8553    2.3393   -0.0000 C   0  0  0  0  0  0  0  0  0  0  0  0
    9.7021    4.1985   -0.0000 C   0  0  0  0  0  0  0  0  0  0  0  0
   14.2577   -2.1054   -0.0000 C   0  0  0  0  0  0  0  0  0  0  0  0
   15.5505    0.1477   -0.0000 C   0  0  0  0  0  0  0  0  0  0  0  0
    6.7595    3.4228   -0.0000 C   0  0  0  0  0  0  0  0  0  0  0  0
    8.6186    5.2820   -0.0000 C   0  0  0  0  0  0  0  0  0  0  0  0
   15.5382   -2.8441   -0.0000 C   0  0  0  0  0  0  0  0  0  0  0  0
   12.9526   -2.8195   -0.0000 C   0  0  0  0  0  0  0  0  0  0  0  0
   15.5382    1.6622   -0.0000 O   0  0  0  0  0  0  0  0  0  0  0  0
   16.8310   -0.6033   -0.0000 C   0  0  0  0  0  0  0  0  0  0  0  0
    7.1535    4.9249   -0.0000 N   0  0  0  0  0  0  0  0  0  0  0  0
   16.8310   -2.0931   -0.0000 O   0  0  0  0  0  0  0  0  0  0  0  0
   15.5135   -4.3093   -0.0000 C   0  0  0  0  0  0  0  0  0  0  0  0
   12.9403   -4.3093   -0.0000 C   0  0  0  0  0  0  0  0  0  0  0  0
   14.2207   -5.0481   -0.0000 C   0  0  0  0  0  0  0  0  0  0  0  0
  1  2  1  0  0  0  0
  1  3  1  0  0  0  0
  2  4  2  0  0  0  0
  2  5  1  0  0  0  0
  3  6  1  0  0  0  0
  3  7  1  0  0  0  0
  5  8  1  0  0  0  0
  6  9  1  0  0  0  0
  7 10  1  0  0  0  0
  8 11  1  0  0  0  0
  8 12  1  0  0  0  0
 11 13  1  0  0  0  0
 12 14  1  0  0  0  0
 13 15  1  0  0  0  0
 13 16  1  6  0  0  0
 15 17  1  0  0  0  0
 16 18  2  0  0  0  0
 16 19  1  0  0  0  0
 17 20  1  0  0  0  0
 19 21  1  0  0  0  0
 20 22  1  1  0  0  0
 20 23  1  0  0  0  0
 21 24  1  0  0  0  0
 25 23  1  1  0  0  0
 24 26  1  0  0  0  0
 24 27  1  0  0  0  0
 24 28  1  0  0  0  0
 25 29  1  0  0  0  0
 25 30  1  0  0  0  0
 29 31  2  0  0  0  0
 29 32  1  0  0  0  0
 30 33  1  0  0  0  0
 34 32  1  6  0  0  0
 33 35  2  0  0  0  0
 33 36  1  0  0  0  0
 34 37  1  0  0  0  0
 34 38  1  0  0  0  0
 35 39  1  0  0  0  0
 36 40  2  0  0  0  0
 37 41  2  0  0  0  0
 37 42  1  0  0  0  0
 38 43  1  6  0  0  0
 38 44  1  0  0  0  0
 39 45  2  0  0  0  0
 41 46  1  0  0  0  0
 41 47  1  0  0  0  0
 42 48  2  0  0  0  0
 47 49  2  0  0  0  0
  4  7  1  0  0  0  0
  9 10  2  0  0  0  0
 14 15  1  0  0  0  0
 40 45  1  0  0  0  0
 44 46  1  0  0  0  0
 48 49  1  0  0  0  0
M  END
>  <MolRegNo>
185016

>  <m>
=

>  <Value>
470

>  <Unit>
nM

>  <Type>
IC50

>  <pValue>
6.33

>  <Ligand Efficiency>
0

>  <Binding Efficiency>
0

>  <Surface Efficiency>
0

>  <Assay Index>
51825

>  <Assay Category>


>  <Assay Organism>
Homo sapiens

>  <Target ID>
17045

>  <Target Name>
Cytochrome P450 3A4

>  <Target Organism>
Homo sapiens

>  <Target Description>
Target is a single protein chain

>  <Sequence Accession>
P08684

>  <Reference>
Bioorg Med Chem Lett 13 (19), 3323-3326 (2003)

>  <Pubmed ID>
12951118

>  <DOI>
10.1016/s0960-894x(03)00680-2

$$$$
185228
Actelion Java MolfileCreator 1.0

 50 55  0  0  1  0  0  0  0  0999 V2000
    0.0000   -0.0000   -0.0000 F   0  0  0  0  0  0  0  0  0  0  0  0
    1.4379   -0.5285   -0.0000 C   0  0  0  0  0  0  0  0  0  0  0  0
    1.1798   -2.0770   -0.0000 F   0  0  0  0  0  0  0  0  0  0  0  0
    0.2458   -1.2167   -0.0000 F   0  0  0  0  0  0  0  0  0  0  0  0
    2.7284    0.2335   -0.0000 C   0  0  0  0  0  0  0  0  0  0  0  0
    2.7161    1.7452   -0.0000 N   0  0  0  0  0  0  0  0  0  0  0  0
    1.4011    2.5072   -0.0000 C   0  0  0  0  0  0  0  0  0  0  0  0
    0.0983    1.7698   -0.0000 O   0  0  0  0  0  0  0  0  0  0  0  0
    1.3888    4.0188   -0.0000 C   0  0  0  0  0  0  0  0  0  0  0  0
    2.6669    4.7685   -0.0000 N   0  0  0  0  0  0  0  0  0  0  0  0
    0.0860    4.7685   -0.0000 C   0  0  0  0  0  0  0  0  0  0  0  0
    2.6546    6.2802   -0.0000 C   0  0  0  0  0  0  0  0  0  0  0  0
    3.9574    4.0434   -0.0000 C   0  0  0  0  0  0  0  0  0  0  0  0
    0.0737    6.2802   -0.0000 N   0  0  0  0  0  0  0  0  0  0  0  0
    1.3519    7.0544   -0.0000 C   0  0  0  0  0  0  0  0  0  0  0  0
    5.2355    4.7931   -0.0000 C   0  0  0  0  0  0  0  0  0  0  0  0
   -1.2413    7.0422   -0.0000 C   0  0  0  0  0  0  0  0  0  0  0  0
    5.2355    6.3048   -0.0000 O   0  0  0  0  0  0  0  0  0  0  0  0
    6.5383    4.0680   -0.0000 C   0  0  0  0  0  0  0  0  0  0  0  0
   -2.5440    6.2925   -0.0000 C   0  0  0  0  0  0  0  0  0  0  0  0
    7.8164    4.8177   -0.0000 C   0  0  0  0  0  0  0  0  0  0  0  0
   -2.7161    4.8300   -0.0000 O   0  0  0  0  0  0  0  0  0  0  0  0
   -3.9328    6.9193   -0.0000 C   0  0  0  0  0  0  0  0  0  0  0  0
    9.0946    4.0680   -0.0000 C   0  0  0  0  0  0  0  0  0  0  0  0
    7.8041    6.3293   -0.0000 C   0  0  0  0  0  0  0  0  0  0  0  0
   -4.1786    4.5227   -0.0000 C   0  0  0  0  0  0  0  0  0  0  0  0
   -4.9406    5.8132   -0.0000 C   0  0  0  0  0  0  0  0  0  0  0  0
    9.0823    2.5809   -0.0000 O   0  0  0  0  0  0  0  0  0  0  0  0
   10.3727    4.8300   -0.0000 N   0  0  0  0  0  0  0  0  0  0  0  0
    6.7226    7.4109   -0.0000 C   0  0  0  0  0  0  0  0  0  0  0  0
   -4.9406    3.2446   -0.0000 C   0  0  0  0  0  0  0  0  0  0  0  0
   -6.4522    5.8254   -0.0000 C   0  0  0  0  0  0  0  0  0  0  0  0
   11.6509    4.0926   -0.0000 C   0  0  0  0  0  0  0  0  0  0  0  0
    7.0913    8.8979   -0.0000 C   0  0  0  0  0  0  0  0  0  0  0  0
    5.2355    7.0422   -0.0000 C   0  0  0  0  0  0  0  0  0  0  0  0
   -6.4522    3.2323   -0.0000 C   0  0  0  0  0  0  0  0  0  0  0  0
   -7.2019    4.5227   -0.0000 C   0  0  0  0  0  0  0  0  0  0  0  0
   11.6386    2.6055   -0.0000 C   0  0  0  0  0  0  0  0  0  0  0  0
   12.9168    4.8545   -0.0000 C   0  0  0  0  0  0  0  0  0  0  0  0
    6.0098    9.9795   -0.0000 C   0  0  0  0  0  0  0  0  0  0  0  0
    4.1417    8.1237   -0.0000 C   0  0  0  0  0  0  0  0  0  0  0  0
   12.9045    1.8681   -0.0000 C   0  0  0  0  0  0  0  0  0  0  0  0
   10.3359    1.8927   -0.0000 C   0  0  0  0  0  0  0  0  0  0  0  0
   12.9045    6.3662   -0.0000 O   0  0  0  0  0  0  0  0  0  0  0  0
   14.2195    4.1049   -0.0000 C   0  0  0  0  0  0  0  0  0  0  0  0
    4.5227    9.6230   -0.0000 N   0  0  0  0  0  0  0  0  0  0  0  0
   14.2072    2.6178   -0.0000 O   0  0  0  0  0  0  0  0  0  0  0  0
   12.8799    0.4056   -0.0000 C   0  0  0  0  0  0  0  0  0  0  0  0
   10.3236    0.4056   -0.0000 C   0  0  0  0  0  0  0  0  0  0  0  0
   11.5772   -0.3318   -0.0000 C   0  0  0  0  0  0  0  0  0  0  0  0
  1  2  1  0  0  0  0
  2  3  1  0  0  0  0
  2  4  1  0  0  0  0
  2  5  1  0  0  0  0
  5  6  1  0  0  0  0
  6  7  1  0  0  0  0
  7  8  2  0  0  0  0
  9  7  1  6  0  0  0
  9 10  1  0  0  0  0
  9 11  1  0  0  0  0
 10 12  1  0  0  0  0
 10 13  1  0  0  0  0
 11 14  1  0  0  0  0
 12 15  1  0  0  0  0
 13 16  1  0  0  0  0
 14 17  1  0  0  0  0
 16 18  1  1  0  0  0
 16 19  1  0  0  0  0
 17 20  1  0  0  0  0
 21 19  1  1  0  0  0
 20 22  1  0  0  0  0
 20 23  2  0  0  0  0
 21 24  1  0  0  0  0
 21 25  1  0  0  0  0
 22 26  1  0  0  0  0
 23 27  1  0  0  0  0
 24 28  2  0  0  0  0
 24 29  1  0  0  0  0
 25 30  1  0  0  0  0
 26 31  1  0  0  0  0
 27 32  1  0  0  0  0
 33 29  1  6  0  0  0
 30 34  2  0  0  0  0
 30 35  1  0  0  0  0
 31 36  2  0  0  0  0
 32 37  2  0  0  0  0
 33 38  1  0  0  0  0
 33 39  1  0  0  0  0
 34 40  1  0  0  0  0
 35 41  2  0  0  0  0
 38 42  2  0  0  0  0
 38 43  1  0  0  0  0
 39 44  1  6  0  0  0
 39 45  1  0  0  0  0
 40 46  2  0  0  0  0
 42 47  1  0  0  0  0
 42 48  1  0  0  0  0
 43 49  2  0  0  0  0
 48 50  2  0  0  0  0
 14 15  1  0  0  0  0
 26 27  2  0  0  0  0
 36 37  1  0  0  0  0
 41 46  1  0  0  0  0
 45 47  1  0  0  0  0
 49 50  1  0  0  0  0
M  END
>  <MolRegNo>
185228

>  <m>
=

>  <Value>
2200

>  <Unit>
nM

>  <Type>
IC50

>  <pValue>
5.66

>  <Ligand Efficiency>
0

>  <Binding Efficiency>
0

>  <Surface Efficiency>
0

>  <Assay Index>
51825

>  <Assay Category>


>  <Assay Organism>
Homo sapiens

>  <Target ID>
17045

>  <Target Name>
Cytochrome P450 3A4

>  <Target Organism>
Homo sapiens

>  <Target Description>
Target is a single protein chain

>  <Sequence Accession>
P08684

>  <Reference>
Bioorg Med Chem Lett 13 (19), 3323-3326 (2003)

>  <Pubmed ID>
12951118

>  <DOI>
10.1016/s0960-894x(03)00680-2

$$$$
185015
Actelion Java MolfileCreator 1.0

 49 54  0  0  1  0  0  0  0  0999 V2000
    0.0000   -0.0000   -0.0000 S   0  0  0  0  0  0  0  0  0  0  0  0
    0.1477    1.4896   -0.0000 C   0  0  0  0  0  0  0  0  0  0  0  0
   -1.4773   -0.3078   -0.0000 C   0  0  0  0  0  0  0  0  0  0  0  0
   -1.2434    2.1175   -0.0000 C   0  0  0  0  0  0  0  0  0  0  0  0
    1.4281    2.2652   -0.0000 C   0  0  0  0  0  0  0  0  0  0  0  0
   -2.5114   -1.4158   -0.0000 S   0  0  0  0  0  0  0  0  0  0  0  0
   -2.2406    0.9972   -0.0000 C   0  0  0  0  0  0  0  0  0  0  0  0
    2.7330    1.5266   -0.0000 N   0  0  0  0  0  0  0  0  0  0  0  0
   -3.8903   -0.7879   -0.0000 C   0  0  0  0  0  0  0  0  0  0  0  0
   -3.7302    0.7017   -0.0000 C   0  0  0  0  0  0  0  0  0  0  0  0
    2.7207    0.0369   -0.0000 C   0  0  0  0  0  0  0  0  0  0  0  0
    4.0011    2.3022   -0.0000 C   0  0  0  0  0  0  0  0  0  0  0  0
    3.9888   -0.6894   -0.0000 C   0  0  0  0  0  0  0  0  0  0  0  0
    5.2814    1.5512   -0.0000 C   0  0  0  0  0  0  0  0  0  0  0  0
    5.2691    0.0616   -0.0000 N   0  0  0  0  0  0  0  0  0  0  0  0
    3.9764   -2.1790   -0.0000 C   0  0  0  0  0  0  0  0  0  0  0  0
    6.5741   -0.6648   -0.0000 C   0  0  0  0  0  0  0  0  0  0  0  0
    2.6715   -2.9177   -0.0000 O   0  0  0  0  0  0  0  0  0  0  0  0
    5.2814   -2.9177   -0.0000 N   0  0  0  0  0  0  0  0  0  0  0  0
    7.8544    0.0862   -0.0000 C   0  0  0  0  0  0  0  0  0  0  0  0
    5.2691   -4.4073   -0.0000 C   0  0  0  0  0  0  0  0  0  0  0  0
    7.8544    1.6004   -0.0000 O   0  0  0  0  0  0  0  0  0  0  0  0
    9.1471   -0.6402   -0.0000 C   0  0  0  0  0  0  0  0  0  0  0  0
    3.9395   -5.1460   -0.0000 C   0  0  0  0  0  0  0  0  0  0  0  0
   10.4274    0.1108   -0.0000 C   0  0  0  0  0  0  0  0  0  0  0  0
    2.4745   -4.5920   -0.0000 F   0  0  0  0  0  0  0  0  0  0  0  0
    3.6810   -6.6972   -0.0000 F   0  0  0  0  0  0  0  0  0  0  0  0
    2.7453   -5.8354   -0.0000 F   0  0  0  0  0  0  0  0  0  0  0  0
   11.7077   -0.6402   -0.0000 C   0  0  0  0  0  0  0  0  0  0  0  0
   10.4151    1.6251   -0.0000 C   0  0  0  0  0  0  0  0  0  0  0  0
   11.6954   -2.1298   -0.0000 O   0  0  0  0  0  0  0  0  0  0  0  0
   12.9881    0.1231   -0.0000 N   0  0  0  0  0  0  0  0  0  0  0  0
    9.3317    2.7084   -0.0000 C   0  0  0  0  0  0  0  0  0  0  0  0
   14.2684   -0.6155   -0.0000 C   0  0  0  0  0  0  0  0  0  0  0  0
    9.7011    4.1980   -0.0000 C   0  0  0  0  0  0  0  0  0  0  0  0
    7.8544    2.3391   -0.0000 C   0  0  0  0  0  0  0  0  0  0  0  0
   14.2561   -2.1052   -0.0000 C   0  0  0  0  0  0  0  0  0  0  0  0
   15.5488    0.1477   -0.0000 C   0  0  0  0  0  0  0  0  0  0  0  0
    8.6177    5.2814   -0.0000 N   0  0  0  0  0  0  0  0  0  0  0  0
    6.7587    3.4225   -0.0000 C   0  0  0  0  0  0  0  0  0  0  0  0
   15.5365   -2.8438   -0.0000 C   0  0  0  0  0  0  0  0  0  0  0  0
   12.9512   -2.8192   -0.0000 C   0  0  0  0  0  0  0  0  0  0  0  0
   15.5365    1.6620   -0.0000 O   0  0  0  0  0  0  0  0  0  0  0  0
   16.8291   -0.6032   -0.0000 C   0  0  0  0  0  0  0  0  0  0  0  0
    7.1404    4.9244   -0.0000 C   0  0  0  0  0  0  0  0  0  0  0  0
   16.8291   -2.0929   -0.0000 O   0  0  0  0  0  0  0  0  0  0  0  0
   15.5118   -4.3088   -0.0000 C   0  0  0  0  0  0  0  0  0  0  0  0
   12.9388   -4.3088   -0.0000 C   0  0  0  0  0  0  0  0  0  0  0  0
   14.2192   -5.0475   -0.0000 C   0  0  0  0  0  0  0  0  0  0  0  0
  1  2  1  0  0  0  0
  1  3  1  0  0  0  0
  2  4  2  0  0  0  0
  2  5  1  0  0  0  0
  3  6  1  0  0  0  0
  3  7  1  0  0  0  0
  5  8  1  0  0  0  0
  6  9  1  0  0  0  0
  7 10  1  0  0  0  0
  8 11  1  0  0  0  0
  8 12  1  0  0  0  0
 11 13  1  0  0  0  0
 12 14  1  0  0  0  0
 13 15  1  0  0  0  0
 13 16  1  6  0  0  0
 15 17  1  0  0  0  0
 16 18  2  0  0  0  0
 16 19  1  0  0  0  0
 17 20  1  0  0  0  0
 19 21  1  0  0  0  0
 20 22  1  1  0  0  0
 20 23  1  0  0  0  0
 21 24  1  0  0  0  0
 25 23  1  1  0  0  0
 24 26  1  0  0  0  0
 24 27  1  0  0  0  0
 24 28  1  0  0  0  0
 25 29  1  0  0  0  0
 25 30  1  0  0  0  0
 29 31  2  0  0  0  0
 29 32  1  0  0  0  0
 30 33  1  0  0  0  0
 34 32  1  6  0  0  0
 33 35  2  0  0  0  0
 33 36  1  0  0  0  0
 34 37  1  0  0  0  0
 34 38  1  0  0  0  0
 35 39  1  0  0  0  0
 36 40  2  0  0  0  0
 37 41  2  0  0  0  0
 37 42  1  0  0  0  0
 38 43  1  6  0  0  0
 38 44  1  0  0  0  0
 39 45  2  0  0  0  0
 41 46  1  0  0  0  0
 41 47  1  0  0  0  0
 42 48  2  0  0  0  0
 47 49  2  0  0  0  0
  4  7  1  0  0  0  0
  9 10  2  0  0  0  0
 14 15  1  0  0  0  0
 40 45  1  0  0  0  0
 44 46  1  0  0  0  0
 48 49  1  0  0  0  0
M  END
>  <MolRegNo>
185015

>  <m>
=

>  <Value>
310

>  <Unit>
nM

>  <Type>
IC50

>  <pValue>
6.51

>  <Ligand Efficiency>
0

>  <Binding Efficiency>
0

>  <Surface Efficiency>
0

>  <Assay Index>
51825

>  <Assay Category>


>  <Assay Organism>
Homo sapiens

>  <Target ID>
17045

>  <Target Name>
Cytochrome P450 3A4

>  <Target Organism>
Homo sapiens

>  <Target Description>
Target is a single protein chain

>  <Sequence Accession>
P08684

>  <Reference>
Bioorg Med Chem Lett 13 (19), 3323-3326 (2003)

>  <Pubmed ID>
12951118

>  <DOI>
10.1016/s0960-894x(03)00680-2

$$$$
185867
Actelion Java MolfileCreator 1.0

 50 55  0  0  1  0  0  0  0  0999 V2000
    0.0000   -0.0000   -0.0000 F   0  0  0  0  0  0  0  0  0  0  0  0
    1.4379   -0.5285   -0.0000 C   0  0  0  0  0  0  0  0  0  0  0  0
    1.1798   -2.0770   -0.0000 F   0  0  0  0  0  0  0  0  0  0  0  0
    0.2458   -1.2167   -0.0000 F   0  0  0  0  0  0  0  0  0  0  0  0
    2.7284    0.2335   -0.0000 C   0  0  0  0  0  0  0  0  0  0  0  0
    2.7161    1.7452   -0.0000 N   0  0  0  0  0  0  0  0  0  0  0  0
    1.4011    2.5072   -0.0000 C   0  0  0  0  0  0  0  0  0  0  0  0
    0.0983    1.7698   -0.0000 O   0  0  0  0  0  0  0  0  0  0  0  0
    1.3888    4.0188   -0.0000 C   0  0  0  0  0  0  0  0  0  0  0  0
    2.6669    4.7685   -0.0000 N   0  0  0  0  0  0  0  0  0  0  0  0
    0.0860    4.7685   -0.0000 C   0  0  0  0  0  0  0  0  0  0  0  0
    2.6546    6.2802   -0.0000 C   0  0  0  0  0  0  0  0  0  0  0  0
    3.9574    4.0434   -0.0000 C   0  0  0  0  0  0  0  0  0  0  0  0
    0.0737    6.2802   -0.0000 N   0  0  0  0  0  0  0  0  0  0  0  0
    1.3519    7.0544   -0.0000 C   0  0  0  0  0  0  0  0  0  0  0  0
    5.2355    4.7931   -0.0000 C   0  0  0  0  0  0  0  0  0  0  0  0
   -1.2413    7.0422   -0.0000 C   0  0  0  0  0  0  0  0  0  0  0  0
    5.2355    6.3048   -0.0000 O   0  0  0  0  0  0  0  0  0  0  0  0
    6.5383    4.0680   -0.0000 C   0  0  0  0  0  0  0  0  0  0  0  0
   -2.5440    6.2925   -0.0000 C   0  0  0  0  0  0  0  0  0  0  0  0
    7.8164    4.8177   -0.0000 C   0  0  0  0  0  0  0  0  0  0  0  0
   -2.7161    4.8300   -0.0000 O   0  0  0  0  0  0  0  0  0  0  0  0
   -3.9328    6.9193   -0.0000 C   0  0  0  0  0  0  0  0  0  0  0  0
    9.0946    4.0680   -0.0000 C   0  0  0  0  0  0  0  0  0  0  0  0
    7.8041    6.3293   -0.0000 C   0  0  0  0  0  0  0  0  0  0  0  0
   -4.1786    4.5227   -0.0000 C   0  0  0  0  0  0  0  0  0  0  0  0
   -4.9406    5.8132   -0.0000 C   0  0  0  0  0  0  0  0  0  0  0  0
    9.0823    2.5809   -0.0000 O   0  0  0  0  0  0  0  0  0  0  0  0
   10.3727    4.8300   -0.0000 N   0  0  0  0  0  0  0  0  0  0  0  0
    6.7226    7.4109   -0.0000 C   0  0  0  0  0  0  0  0  0  0  0  0
   -4.9406    3.2446   -0.0000 C   0  0  0  0  0  0  0  0  0  0  0  0
   -6.4522    5.8254   -0.0000 C   0  0  0  0  0  0  0  0  0  0  0  0
   11.6509    4.0926   -0.0000 C   0  0  0  0  0  0  0  0  0  0  0  0
    7.0913    8.8979   -0.0000 C   0  0  0  0  0  0  0  0  0  0  0  0
    5.2355    7.0422   -0.0000 C   0  0  0  0  0  0  0  0  0  0  0  0
   -6.4522    3.2323   -0.0000 C   0  0  0  0  0  0  0  0  0  0  0  0
   -7.2019    4.5227   -0.0000 C   0  0  0  0  0  0  0  0  0  0  0  0
   11.6386    2.6055   -0.0000 C   0  0  0  0  0  0  0  0  0  0  0  0
   12.9168    4.8545   -0.0000 C   0  0  0  0  0  0  0  0  0  0  0  0
    6.0098    9.9795   -0.0000 N   0  0  0  0  0  0  0  0  0  0  0  0
    4.1417    8.1237   -0.0000 C   0  0  0  0  0  0  0  0  0  0  0  0
   12.9045    1.8681   -0.0000 C   0  0  0  0  0  0  0  0  0  0  0  0
   10.3359    1.8927   -0.0000 C   0  0  0  0  0  0  0  0  0  0  0  0
   12.9045    6.3662   -0.0000 O   0  0  0  0  0  0  0  0  0  0  0  0
   14.2195    4.1049   -0.0000 C   0  0  0  0  0  0  0  0  0  0  0  0
    4.5227    9.6230   -0.0000 C   0  0  0  0  0  0  0  0  0  0  0  0
   14.2072    2.6178   -0.0000 O   0  0  0  0  0  0  0  0  0  0  0  0
   12.8799    0.4056   -0.0000 C   0  0  0  0  0  0  0  0  0  0  0  0
   10.3236    0.4056   -0.0000 C   0  0  0  0  0  0  0  0  0  0  0  0
   11.5772   -0.3318   -0.0000 C   0  0  0  0  0  0  0  0  0  0  0  0
  1  2  1  0  0  0  0
  2  3  1  0  0  0  0
  2  4  1  0  0  0  0
  2  5  1  0  0  0  0
  5  6  1  0  0  0  0
  6  7  1  0  0  0  0
  7  8  2  0  0  0  0
  9  7  1  6  0  0  0
  9 10  1  0  0  0  0
  9 11  1  0  0  0  0
 10 12  1  0  0  0  0
 10 13  1  0  0  0  0
 11 14  1  0  0  0  0
 12 15  1  0  0  0  0
 13 16  1  0  0  0  0
 14 17  1  0  0  0  0
 16 18  1  1  0  0  0
 16 19  1  0  0  0  0
 17 20  1  0  0  0  0
 21 19  1  1  0  0  0
 20 22  1  0  0  0  0
 20 23  2  0  0  0  0
 21 24  1  0  0  0  0
 21 25  1  0  0  0  0
 22 26  1  0  0  0  0
 23 27  1  0  0  0  0
 24 28  2  0  0  0  0
 24 29  1  0  0  0  0
 25 30  1  0  0  0  0
 26 31  1  0  0  0  0
 27 32  1  0  0  0  0
 33 29  1  6  0  0  0
 30 34  2  0  0  0  0
 30 35  1  0  0  0  0
 31 36  2  0  0  0  0
 32 37  2  0  0  0  0
 33 38  1  0  0  0  0
 33 39  1  0  0  0  0
 34 40  1  0  0  0  0
 35 41  2  0  0  0  0
 38 42  2  0  0  0  0
 38 43  1  0  0  0  0
 39 44  1  6  0  0  0
 39 45  1  0  0  0  0
 40 46  2  0  0  0  0
 42 47  1  0  0  0  0
 42 48  1  0  0  0  0
 43 49  2  0  0  0  0
 48 50  2  0  0  0  0
 14 15  1  0  0  0  0
 26 27  2  0  0  0  0
 36 37  1  0  0  0  0
 41 46  1  0  0  0  0
 45 47  1  0  0  0  0
 49 50  1  0  0  0  0
M  END
>  <MolRegNo>
185867

>  <m>
=

>  <Value>
480

>  <Unit>
nM

>  <Type>
IC50

>  <pValue>
6.32

>  <Ligand Efficiency>
0

>  <Binding Efficiency>
0

>  <Surface Efficiency>
0

>  <Assay Index>
51825

>  <Assay Category>


>  <Assay Organism>
Homo sapiens

>  <Target ID>
17045

>  <Target Name>
Cytochrome P450 3A4

>  <Target Organism>
Homo sapiens

>  <Target Description>
Target is a single protein chain

>  <Sequence Accession>
P08684

>  <Reference>
Bioorg Med Chem Lett 13 (19), 3323-3326 (2003)

>  <Pubmed ID>
12951118

>  <DOI>
10.1016/s0960-894x(03)00680-2

$$$$
185827
Actelion Java MolfileCreator 1.0

 51 56  0  0  1  0  0  0  0  0999 V2000
    0.0000   -0.0000   -0.0000 Cl  0  0  0  0  0  0  0  0  0  0  0  0
   -0.7799    1.3039   -0.0000 C   0  0  0  0  0  0  0  0  0  0  0  0
   -0.0487    2.6079   -0.0000 C   0  0  0  0  0  0  0  0  0  0  0  0
   -2.2910    1.3039   -0.0000 C   0  0  0  0  0  0  0  0  0  0  0  0
    1.4014    2.9369   -0.0000 O   0  0  0  0  0  0  0  0  0  0  0  0
   -0.8165    3.9362   -0.0000 C   0  0  0  0  0  0  0  0  0  0  0  0
   -3.0587    2.6200   -0.0000 C   0  0  0  0  0  0  0  0  0  0  0  0
    1.5598    4.4480   -0.0000 C   0  0  0  0  0  0  0  0  0  0  0  0
   -2.3276    3.9362   -0.0000 C   0  0  0  0  0  0  0  0  0  0  0  0
    0.1706    5.0695   -0.0000 C   0  0  0  0  0  0  0  0  0  0  0  0
    2.8394    5.2157   -0.0000 C   0  0  0  0  0  0  0  0  0  0  0  0
    4.1433    4.4724   -0.0000 N   0  0  0  0  0  0  0  0  0  0  0  0
    4.1311    2.9856   -0.0000 C   0  0  0  0  0  0  0  0  0  0  0  0
    5.4107    5.2401   -0.0000 C   0  0  0  0  0  0  0  0  0  0  0  0
    5.3985    2.2423   -0.0000 C   0  0  0  0  0  0  0  0  0  0  0  0
    6.6902    4.4967   -0.0000 C   0  0  0  0  0  0  0  0  0  0  0  0
    6.6781    3.0100   -0.0000 N   0  0  0  0  0  0  0  0  0  0  0  0
    5.3863    0.7555   -0.0000 C   0  0  0  0  0  0  0  0  0  0  0  0
    7.9820    2.2666   -0.0000 C   0  0  0  0  0  0  0  0  0  0  0  0
    4.0824    0.0122   -0.0000 O   0  0  0  0  0  0  0  0  0  0  0  0
    6.6902    0.0122   -0.0000 N   0  0  0  0  0  0  0  0  0  0  0  0
    9.2615    3.0344   -0.0000 C   0  0  0  0  0  0  0  0  0  0  0  0
    6.6781   -1.4745   -0.0000 C   0  0  0  0  0  0  0  0  0  0  0  0
    9.2494    4.5455   -0.0000 O   0  0  0  0  0  0  0  0  0  0  0  0
   10.5411    2.2910   -0.0000 C   0  0  0  0  0  0  0  0  0  0  0  0
    5.3498   -2.2179   -0.0000 C   0  0  0  0  0  0  0  0  0  0  0  0
   11.8207    3.0466   -0.0000 C   0  0  0  0  0  0  0  0  0  0  0  0
    5.0817   -3.7534   -0.0000 F   0  0  0  0  0  0  0  0  0  0  0  0
    4.1555   -2.8881   -0.0000 F   0  0  0  0  0  0  0  0  0  0  0  0
    3.8752   -1.6451   -0.0000 F   0  0  0  0  0  0  0  0  0  0  0  0
   13.1124    2.3032   -0.0000 C   0  0  0  0  0  0  0  0  0  0  0  0
   11.8085    4.5577   -0.0000 C   0  0  0  0  0  0  0  0  0  0  0  0
   13.0880    0.8165   -0.0000 O   0  0  0  0  0  0  0  0  0  0  0  0
   14.3920    3.0709   -0.0000 N   0  0  0  0  0  0  0  0  0  0  0  0
   10.7239    5.6422   -0.0000 C   0  0  0  0  0  0  0  0  0  0  0  0
   15.6715    2.3276   -0.0000 C   0  0  0  0  0  0  0  0  0  0  0  0
   11.1017    7.1290   -0.0000 C   0  0  0  0  0  0  0  0  0  0  0  0
    9.2494    5.2645   -0.0000 C   0  0  0  0  0  0  0  0  0  0  0  0
   15.6593    0.8409   -0.0000 C   0  0  0  0  0  0  0  0  0  0  0  0
   16.9511    3.0709   -0.0000 C   0  0  0  0  0  0  0  0  0  0  0  0
   10.0171    8.2135   -0.0000 N   0  0  0  0  0  0  0  0  0  0  0  0
    8.1526    6.3490   -0.0000 C   0  0  0  0  0  0  0  0  0  0  0  0
   16.9267    0.0853   -0.0000 C   0  0  0  0  0  0  0  0  0  0  0  0
   14.3554    0.1097   -0.0000 C   0  0  0  0  0  0  0  0  0  0  0  0
   16.9389    4.5820   -0.0000 O   0  0  0  0  0  0  0  0  0  0  0  0
   18.2306    2.3276   -0.0000 C   0  0  0  0  0  0  0  0  0  0  0  0
    8.5426    7.8358   -0.0000 C   0  0  0  0  0  0  0  0  0  0  0  0
   18.2306    0.8530   -0.0000 O   0  0  0  0  0  0  0  0  0  0  0  0
   16.9145   -1.3770   -0.0000 C   0  0  0  0  0  0  0  0  0  0  0  0
   14.3310   -1.3649   -0.0000 C   0  0  0  0  0  0  0  0  0  0  0  0
   15.6228   -2.0960   -0.0000 C   0  0  0  0  0  0  0  0  0  0  0  0
  1  2  1  0  0  0  0
  2  3  2  0  0  0  0
  2  4  1  0  0  0  0
  3  5  1  0  0  0  0
  3  6  1  0  0  0  0
  4  7  2  0  0  0  0
  5  8  1  0  0  0  0
  6  9  2  0  0  0  0
  6 10  1  0  0  0  0
  8 11  1  0  0  0  0
 11 12  1  0  0  0  0
 12 13  1  0  0  0  0
 12 14  1  0  0  0  0
 13 15  1  0  0  0  0
 14 16  1  0  0  0  0
 15 17  1  0  0  0  0
 15 18  1  6  0  0  0
 17 19  1  0  0  0  0
 18 20  2  0  0  0  0
 18 21  1  0  0  0  0
 19 22  1  0  0  0  0
 21 23  1  0  0  0  0
 22 24  1  1  0  0  0
 22 25  1  0  0  0  0
 23 26  1  0  0  0  0
 27 25  1  1  0  0  0
 26 28  1  0  0  0  0
 26 29  1  0  0  0  0
 26 30  1  0  0  0  0
 27 31  1  0  0  0  0
 27 32  1  0  0  0  0
 31 33  2  0  0  0  0
 31 34  1  0  0  0  0
 32 35  1  0  0  0  0
 36 34  1  6  0  0  0
 35 37  2  0  0  0  0
 35 38  1  0  0  0  0
 36 39  1  0  0  0  0
 36 40  1  0  0  0  0
 37 41  1  0  0  0  0
 38 42  2  0  0  0  0
 39 43  2  0  0  0  0
 39 44  1  0  0  0  0
 40 45  1  6  0  0  0
 40 46  1  0  0  0  0
 41 47  2  0  0  0  0
 43 48  1  0  0  0  0
 43 49  1  0  0  0  0
 44 50  2  0  0  0  0
 49 51  2  0  0  0  0
  7  9  1  0  0  0  0
  8 10  2  0  0  0  0
 16 17  1  0  0  0  0
 42 47  1  0  0  0  0
 46 48  1  0  0  0  0
 50 51  1  0  0  0  0
M  END
>  <MolRegNo>
185827

>  <m>
=

>  <Value>
500

>  <Unit>
nM

>  <Type>
IC50

>  <pValue>
6.3

>  <Ligand Efficiency>
0

>  <Binding Efficiency>
0

>  <Surface Efficiency>
0

>  <Assay Index>
51824

>  <Assay Category>


>  <Assay Organism>
Homo sapiens

>  <Target ID>
17045

>  <Target Name>
Cytochrome P450 3A4

>  <Target Organism>
Homo sapiens

>  <Target Description>
Target is a single protein chain

>  <Sequence Accession>
P08684

>  <Reference>
Bioorg Med Chem Lett 13 (19), 3323-3326 (2003)

>  <Pubmed ID>
12951118

>  <DOI>
10.1016/s0960-894x(03)00680-2

$$$$
127311
Actelion Java MolfileCreator 1.0

 30 33  0  0  0  0  0  0  0  0999 V2000
    0.0000   -0.0000   -0.0000 Cl  0  0  0  0  0  0  0  0  0  0  0  0
    1.4197   -0.4496   -0.0000 C   0  0  0  0  0  0  0  0  0  0  0  0
    2.5200    0.5679   -0.0000 C   0  0  0  0  0  0  0  0  0  0  0  0
    1.7155   -1.9048   -0.0000 C   0  0  0  0  0  0  0  0  0  0  0  0
    3.9397    0.1183   -0.0000 C   0  0  0  0  0  0  0  0  0  0  0  0
    3.1352   -2.3543   -0.0000 C   0  0  0  0  0  0  0  0  0  0  0  0
    4.2355   -1.3369   -0.0000 C   0  0  0  0  0  0  0  0  0  0  0  0
    5.0400    1.1358   -0.0000 C   0  0  0  0  0  0  0  0  0  0  0  0
    6.4597    0.6862   -0.0000 N   0  0  0  0  0  0  0  0  0  0  0  0
    7.6664    1.5853   -0.0000 C   0  0  0  0  0  0  0  0  0  0  0  0
    6.9092   -0.7335   -0.0000 C   0  0  0  0  0  0  0  0  0  0  0  0
    7.6546    3.0997   -0.0000 O   0  0  0  0  0  0  0  0  0  0  0  0
    8.8732    0.7099   -0.0000 C   0  0  0  0  0  0  0  0  0  0  0  0
    8.3999   -0.7217   -0.0000 C   0  0  0  0  0  0  0  0  0  0  0  0
   10.2929    1.1831   -0.0000 N   0  0  0  0  0  0  0  0  0  0  0  0
   11.3931    0.1893   -0.0000 C   0  0  0  0  0  0  0  0  0  0  0  0
   12.8129    0.6625   -0.0000 C   0  0  0  0  0  0  0  0  0  0  0  0
   13.2624    2.1059   -0.0000 N   0  0  0  0  0  0  0  0  0  0  0  0
   14.0196   -0.2130   -0.0000 C   0  0  0  0  0  0  0  0  0  0  0  0
   14.7531    2.1177   -0.0000 C   0  0  0  0  0  0  0  0  0  0  0  0
   12.3633    3.3363   -0.0000 C   0  0  0  0  0  0  0  0  0  0  0  0
   15.2264    0.6862   -0.0000 N   0  0  0  0  0  0  0  0  0  0  0  0
   12.9667    4.7205   -0.0000 C   0  0  0  0  0  0  0  0  0  0  0  0
   12.0675    5.9509   -0.0000 C   0  0  0  0  0  0  0  0  0  0  0  0
   14.4455    4.8862   -0.0000 C   0  0  0  0  0  0  0  0  0  0  0  0
   12.6709    7.3351   -0.0000 C   0  0  0  0  0  0  0  0  0  0  0  0
   15.0489    6.2704   -0.0000 C   0  0  0  0  0  0  0  0  0  0  0  0
   14.1497    7.5008   -0.0000 C   0  0  0  0  0  0  0  0  0  0  0  0
   14.7531    8.8850   -0.0000 C   0  0  0  0  0  0  0  0  0  0  0  0
   15.3565   10.2692   -0.0000 N   0  0  0  0  0  0  0  0  0  0  0  0
  1  2  1  0  0  0  0
  2  3  2  0  0  0  0
  2  4  1  0  0  0  0
  3  5  1  0  0  0  0
  4  6  2  0  0  0  0
  5  7  2  0  0  0  0
  5  8  1  0  0  0  0
  8  9  1  0  0  0  0
  9 10  1  0  0  0  0
  9 11  1  0  0  0  0
 10 12  2  0  0  0  0
 10 13  1  0  0  0  0
 11 14  1  0  0  0  0
 13 15  1  1  0  0  0
 15 16  1  0  0  0  0
 16 17  1  0  0  0  0
 17 18  1  0  0  0  0
 17 19  2  0  0  0  0
 18 20  1  0  0  0  0
 18 21  1  0  0  0  0
 19 22  1  0  0  0  0
 21 23  1  0  0  0  0
 23 24  2  0  0  0  0
 23 25  1  0  0  0  0
 24 26  1  0  0  0  0
 25 27  2  0  0  0  0
 26 28  2  0  0  0  0
 28 29  1  0  0  0  0
 29 30  3  0  0  0  0
  6  7  1  0  0  0  0
 13 14  1  0  0  0  0
 20 22  2  0  0  0  0
 27 28  1  0  0  0  0
M  END
>  <MolRegNo>
127311

>  <m>
=

>  <Value>
1000

>  <Unit>
nM

>  <Type>
IC50

>  <pValue>
6

>  <Ligand Efficiency>
0

>  <Binding Efficiency>
0

>  <Surface Efficiency>
0

>  <Assay Index>
51819

>  <Assay Category>


>  <Assay Organism>
Homo sapiens

>  <Target ID>
17045

>  <Target Name>
Cytochrome P450 3A4

>  <Target Organism>
Homo sapiens

>  <Target Description>
Target is a single protein chain

>  <Sequence Accession>
P08684

>  <Reference>
J Med Chem 45 (12), 2388-2409 (2002)

>  <Pubmed ID>
12036349

>  <DOI>
10.1021/jm010531d

$$$$
522675
Actelion Java MolfileCreator 1.0

 30 34  0  0  0  0  0  0  0  0999 V2000
    0.0000   -0.0000   -0.0000 O   0  0  0  0  0  0  0  0  0  0  0  0
    0.8108    1.2877   -0.0000 C   0  0  0  0  0  0  0  0  0  0  0  0
    0.2504    2.7185   -0.0000 N   0  0  0  0  0  0  0  0  0  0  0  0
    2.3131    1.3831   -0.0000 C   0  0  0  0  0  0  0  0  0  0  0  0
   -1.2281    3.1239   -0.0000 C   0  0  0  0  0  0  0  0  0  0  0  0
    1.4189    3.6843   -0.0000 C   0  0  0  0  0  0  0  0  0  0  0  0
    2.8020    0.0358   -0.0000 N   0  0  0  0  0  0  0  0  0  0  0  0
    2.6947    2.8616   -0.0000 C   0  0  0  0  0  0  0  0  0  0  0  0
   -2.5516    2.3847   -0.0000 C   0  0  0  0  0  0  0  0  0  0  0  0
    4.1374   -0.3458   -0.0000 C   0  0  0  0  0  0  0  0  0  0  0  0
   -2.5635    0.8823   -0.0000 C   0  0  0  0  0  0  0  0  0  0  0  0
   -3.8751    3.1478   -0.0000 C   0  0  0  0  0  0  0  0  0  0  0  0
    4.0778   -1.5500   -0.0000 C   0  0  0  0  0  0  0  0  0  0  0  0
   -3.8870    0.1431   -0.0000 C   0  0  0  0  0  0  0  0  0  0  0  0
   -5.1986    2.4085   -0.0000 C   0  0  0  0  0  0  0  0  0  0  0  0
    2.6828   -2.1581   -0.0000 N   0  0  0  0  0  0  0  0  0  0  0  0
    5.0794   -2.6589   -0.0000 C   0  0  0  0  0  0  0  0  0  0  0  0
   -3.8990   -1.3593   -0.0000 O   0  0  0  0  0  0  0  0  0  0  0  0
   -5.2105    0.9062   -0.0000 C   0  0  0  0  0  0  0  0  0  0  0  0
    2.8258   -3.6486   -0.0000 C   0  0  0  0  0  0  0  0  0  0  0  0
    1.3593   -1.3950   -0.0000 C   0  0  0  0  0  0  0  0  0  0  0  0
    4.3043   -3.9586   -0.0000 N   0  0  0  0  0  0  0  0  0  0  0  0
   -2.5993   -2.0985   -0.0000 C   0  0  0  0  0  0  0  0  0  0  0  0
    0.0358   -2.1343   -0.0000 C   0  0  0  0  0  0  0  0  0  0  0  0
   -2.6112   -3.6009   -0.0000 C   0  0  0  0  0  0  0  0  0  0  0  0
   -1.2997   -1.3354   -0.0000 C   0  0  0  0  0  0  0  0  0  0  0  0
    0.0238   -3.6366   -0.0000 C   0  0  0  0  0  0  0  0  0  0  0  0
   -3.9347   -4.3520   -0.0000 C   0  0  0  0  0  0  0  0  0  0  0  0
   -1.3116   -4.3520   -0.0000 C   0  0  0  0  0  0  0  0  0  0  0  0
   -5.2582   -5.1032   -0.0000 N   0  0  0  0  0  0  0  0  0  0  0  0
  1  2  2  0  0  0  0
  2  3  1  0  0  0  0
  2  4  1  0  0  0  0
  3  5  1  0  0  0  0
  3  6  1  0  0  0  0
  4  7  1  6  0  0  0
  4  8  1  0  0  0  0
  5  9  1  0  0  0  0
  7 10  1  0  0  0  0
  9 11  2  0  0  0  0
  9 12  1  0  0  0  0
 10 13  1  0  0  0  0
 11 14  1  0  0  0  0
 12 15  2  0  0  0  0
 13 16  1  0  0  0  0
 13 17  2  0  0  0  0
 14 18  1  0  0  0  0
 14 19  2  0  0  0  0
 16 20  1  0  0  0  0
 16 21  1  0  0  0  0
 17 22  1  0  0  0  0
 18 23  1  0  0  0  0
 21 24  1  0  0  0  0
 23 25  2  0  0  0  0
 23 26  1  0  0  0  0
 24 27  1  0  0  0  0
 25 28  1  0  0  0  0
 25 29  1  0  0  0  0
 28 30  3  0  0  0  0
  6  8  1  0  0  0  0
 15 19  1  0  0  0  0
 20 22  2  0  0  0  0
 24 26  2  0  0  0  0
 27 29  2  0  0  0  0
M  END
>  <MolRegNo>
522675

>  <m>
=

>  <Value>
8900

>  <Unit>
nM

>  <Type>
IC50

>  <pValue>
5.05

>  <Ligand Efficiency>
0

>  <Binding Efficiency>
0

>  <Surface Efficiency>
0

>  <Assay Index>
51819

>  <Assay Category>


>  <Assay Organism>
Homo sapiens

>  <Target ID>
17045

>  <Target Name>
Cytochrome P450 3A4

>  <Target Organism>
Homo sapiens

>  <Target Description>
Target is a single protein chain

>  <Sequence Accession>
P08684

>  <Reference>
J Med Chem 45 (12), 2388-2409 (2002)

>  <Pubmed ID>
12036349

>  <DOI>
10.1021/jm010531d

$$$$
126861
Actelion Java MolfileCreator 1.0

 34 39  0  0  0  0  0  0  0  0999 V2000
    0.0000   -0.0000   -0.0000 O   0  0  0  0  0  0  0  0  0  0  0  0
    0.0000   -1.4779   -0.0000 C   0  0  0  0  0  0  0  0  0  0  0  0
   -1.2605   -2.2748   -0.0000 N   0  0  0  0  0  0  0  0  0  0  0  0
    1.1446   -2.4197   -0.0000 C   0  0  0  0  0  0  0  0  0  0  0  0
   -2.7674   -2.2603   -0.0000 C   0  0  0  0  0  0  0  0  0  0  0  0
   -0.8983   -3.7092   -0.0000 C   0  0  0  0  0  0  0  0  0  0  0  0
    2.4341   -1.6373   -0.0000 N   0  0  0  0  0  0  0  0  0  0  0  0
    0.5940   -3.7816   -0.0000 C   0  0  0  0  0  0  0  0  0  0  0  0
   -3.5353   -3.5498   -0.0000 C   0  0  0  0  0  0  0  0  0  0  0  0
   -3.5353   -0.9708   -0.0000 C   0  0  0  0  0  0  0  0  0  0  0  0
    3.7671   -2.4197   -0.0000 C   0  0  0  0  0  0  0  0  0  0  0  0
    2.4052   -0.1304   -0.0000 C   0  0  0  0  0  0  0  0  0  0  0  0
   -5.0566   -3.5208   -0.0000 C   0  0  0  0  0  0  0  0  0  0  0  0
   -2.7964   -4.8248   -0.0000 C   0  0  0  0  0  0  0  0  0  0  0  0
   -5.0422   -0.9273   -0.0000 C   0  0  0  0  0  0  0  0  0  0  0  0
    4.0859   -3.7816   -0.0000 C   0  0  0  0  0  0  0  0  0  0  0  0
   -5.8246   -4.8103   -0.0000 C   0  0  0  0  0  0  0  0  0  0  0  0
   -5.8246   -2.2313   -0.0000 C   0  0  0  0  0  0  0  0  0  0  0  0
   -3.5643   -6.1143   -0.0000 C   0  0  0  0  0  0  0  0  0  0  0  0
    3.3180   -5.0711   -0.0000 N   0  0  0  0  0  0  0  0  0  0  0  0
    5.5348   -4.0859   -0.0000 C   0  0  0  0  0  0  0  0  0  0  0  0
   -5.1146   -6.0999   -0.0000 C   0  0  0  0  0  0  0  0  0  0  0  0
   -3.1151   -7.4473   -0.0000 O   0  0  0  0  0  0  0  0  0  0  0  0
    4.3032   -6.1578   -0.0000 C   0  0  0  0  0  0  0  0  0  0  0  0
    1.4634   -4.9987   -0.0000 C   0  0  0  0  0  0  0  0  0  0  0  0
    5.6797   -5.5638   -0.0000 N   0  0  0  0  0  0  0  0  0  0  0  0
   -1.4199   -7.3604   -0.0000 C   0  0  0  0  0  0  0  0  0  0  0  0
    0.8404   -6.0709   -0.0000 C   0  0  0  0  0  0  0  0  0  0  0  0
   -0.6955   -8.6354   -0.0000 C   0  0  0  0  0  0  0  0  0  0  0  0
   -0.6665   -6.0419   -0.0000 C   0  0  0  0  0  0  0  0  0  0  0  0
    1.5793   -7.3604   -0.0000 C   0  0  0  0  0  0  0  0  0  0  0  0
   -1.4779   -9.9249   -0.0000 C   0  0  0  0  0  0  0  0  0  0  0  0
    0.7824   -8.6354   -0.0000 C   0  0  0  0  0  0  0  0  0  0  0  0
   -2.2458  -11.2000   -0.0000 N   0  0  0  0  0  0  0  0  0  0  0  0
  1  2  2  0  0  0  0
  2  3  1  0  0  0  0
  2  4  1  0  0  0  0
  3  5  1  0  0  0  0
  3  6  1  0  0  0  0
  4  7  1  0  0  0  0
  4  8  1  0  0  0  0
  5  9  1  0  0  0  0
  5 10  2  0  0  0  0
  7 11  1  0  0  0  0
  7 12  1  0  0  0  0
  9 13  1  0  0  0  0
  9 14  2  0  0  0  0
 10 15  1  0  0  0  0
 11 16  1  0  0  0  0
 13 17  2  0  0  0  0
 13 18  1  0  0  0  0
 14 19  1  0  0  0  0
 16 20  1  0  0  0  0
 16 21  2  0  0  0  0
 17 22  1  0  0  0  0
 19 23  1  0  0  0  0
 20 24  1  0  0  0  0
 20 25  1  0  0  0  0
 21 26  1  0  0  0  0
 23 27  1  0  0  0  0
 25 28  1  0  0  0  0
 27 29  2  0  0  0  0
 27 30  1  0  0  0  0
 28 31  1  0  0  0  0
 29 32  1  0  0  0  0
 29 33  1  0  0  0  0
 32 34  3  0  0  0  0
  6  8  1  0  0  0  0
 15 18  2  0  0  0  0
 19 22  2  0  0  0  0
 24 26  2  0  0  0  0
 28 30  2  0  0  0  0
 31 33  2  0  0  0  0
M  END
>  <MolRegNo>
126861

>  <m>
=

>  <Value>
5000

>  <Unit>
nM

>  <Type>
IC50

>  <pValue>
5.3

>  <Ligand Efficiency>
0

>  <Binding Efficiency>
0

>  <Surface Efficiency>
0

>  <Assay Index>
51819

>  <Assay Category>


>  <Assay Organism>
Homo sapiens

>  <Target ID>
17045

>  <Target Name>
Cytochrome P450 3A4

>  <Target Organism>
Homo sapiens

>  <Target Description>
Target is a single protein chain

>  <Sequence Accession>
P08684

>  <Reference>
J Med Chem 45 (12), 2388-2409 (2002)

>  <Pubmed ID>
12036349

>  <DOI>
10.1021/jm010531d

$$$$
523035
Actelion Java MolfileCreator 1.0

 32 37  0  0  0  0  0  0  0  0999 V2000
    0.0000   -0.0000   -0.0000 O   0  0  0  0  0  0  0  0  0  0  0  0
   -0.1818   -1.4314   -0.0000 C   0  0  0  0  0  0  0  0  0  0  0  0
   -1.4768   -2.1357   -0.0000 N   0  0  0  0  0  0  0  0  0  0  0  0
    0.8861   -2.3857   -0.0000 C   0  0  0  0  0  0  0  0  0  0  0  0
   -2.8401   -1.5223   -0.0000 C   0  0  0  0  0  0  0  0  0  0  0  0
   -1.2042   -3.5444   -0.0000 C   0  0  0  0  0  0  0  0  0  0  0  0
    2.2948   -2.0676   -0.0000 N   0  0  0  0  0  0  0  0  0  0  0  0
    0.2726   -3.7034   -0.0000 C   0  0  0  0  0  0  0  0  0  0  0  0
   -4.1351   -2.2266   -0.0000 C   0  0  0  0  0  0  0  0  0  0  0  0
   -3.1582   -0.0682   -0.0000 C   0  0  0  0  0  0  0  0  0  0  0  0
    2.2266   -4.9304   -0.0000 C   0  0  0  0  0  0  0  0  0  0  0  0
   -5.2484   -1.2269   -0.0000 C   0  0  0  0  0  0  0  0  0  0  0  0
   -4.4532   -3.6353   -0.0000 C   0  0  0  0  0  0  0  0  0  0  0  0
   -4.6350    0.1136   -0.0000 C   0  0  0  0  0  0  0  0  0  0  0  0
    0.9315   -5.6347   -0.0000 C   0  0  0  0  0  0  0  0  0  0  0  0
   -6.6571   -1.6586   -0.0000 C   0  0  0  0  0  0  0  0  0  0  0  0
   -5.8619   -4.0670   -0.0000 C   0  0  0  0  0  0  0  0  0  0  0  0
   -0.2272   -6.5208   -0.0000 N   0  0  0  0  0  0  0  0  0  0  0  0
    2.1357   -6.4072   -0.0000 C   0  0  0  0  0  0  0  0  0  0  0  0
   -6.9752   -3.0673   -0.0000 C   0  0  0  0  0  0  0  0  0  0  0  0
   -6.1800   -5.4757   -0.0000 O   0  0  0  0  0  0  0  0  0  0  0  0
    0.2726   -7.8613   -0.0000 C   0  0  0  0  0  0  0  0  0  0  0  0
   -1.6586   -6.1118   -0.0000 C   0  0  0  0  0  0  0  0  0  0  0  0
    1.7268   -7.7931   -0.0000 N   0  0  0  0  0  0  0  0  0  0  0  0
   -5.1803   -6.4754   -0.0000 C   0  0  0  0  0  0  0  0  0  0  0  0
   -2.7037   -7.1115   -0.0000 C   0  0  0  0  0  0  0  0  0  0  0  0
   -5.5893   -7.8613   -0.0000 C   0  0  0  0  0  0  0  0  0  0  0  0
   -3.7943   -6.0664   -0.0000 C   0  0  0  0  0  0  0  0  0  0  0  0
   -3.1127   -8.4975   -0.0000 C   0  0  0  0  0  0  0  0  0  0  0  0
   -7.0207   -8.2248   -0.0000 C   0  0  0  0  0  0  0  0  0  0  0  0
   -4.5896   -8.8610   -0.0000 C   0  0  0  0  0  0  0  0  0  0  0  0
   -8.4520   -8.5884   -0.0000 N   0  0  0  0  0  0  0  0  0  0  0  0
  1  2  2  0  0  0  0
  2  3  1  0  0  0  0
  2  4  1  0  0  0  0
  5  3  1  6  0  0  0
  3  6  1  0  0  0  0
  4  7  1  1  0  0  0
  4  8  1  0  0  0  0
  5  9  1  0  0  0  0
  5 10  1  0  0  0  0
  7 11  1  0  0  0  0
  9 12  2  0  0  0  0
  9 13  1  0  0  0  0
 10 14  1  0  0  0  0
 11 15  1  0  0  0  0
 12 16  1  0  0  0  0
 13 17  2  0  0  0  0
 15 18  1  0  0  0  0
 15 19  2  0  0  0  0
 16 20  2  0  0  0  0
 17 21  1  0  0  0  0
 18 22  1  0  0  0  0
 18 23  1  0  0  0  0
 19 24  1  0  0  0  0
 21 25  1  0  0  0  0
 23 26  1  0  0  0  0
 25 27  2  0  0  0  0
 25 28  1  0  0  0  0
 26 29  1  0  0  0  0
 27 30  1  0  0  0  0
 27 31  1  0  0  0  0
 30 32  3  0  0  0  0
  6  8  1  0  0  0  0
 12 14  1  0  0  0  0
 17 20  1  0  0  0  0
 22 24  2  0  0  0  0
 26 28  2  0  0  0  0
 29 31  2  0  0  0  0
M  END
>  <MolRegNo>
523035

>  <m>
=

>  <Value>
6600

>  <Unit>
nM

>  <Type>
IC50

>  <pValue>
5.18

>  <Ligand Efficiency>
0

>  <Binding Efficiency>
0

>  <Surface Efficiency>
0

>  <Assay Index>
51819

>  <Assay Category>


>  <Assay Organism>
Homo sapiens

>  <Target ID>
17045

>  <Target Name>
Cytochrome P450 3A4

>  <Target Organism>
Homo sapiens

>  <Target Description>
Target is a single protein chain

>  <Sequence Accession>
P08684

>  <Reference>
J Med Chem 45 (12), 2388-2409 (2002)

>  <Pubmed ID>
12036349

>  <DOI>
10.1021/jm010531d

$$$$
523037
Actelion Java MolfileCreator 1.0

 32 37  0  0  0  0  0  0  0  0999 V2000
    0.0000   -0.0000   -0.0000 O   0  0  0  0  0  0  0  0  0  0  0  0
   -0.1818   -1.4314   -0.0000 C   0  0  0  0  0  0  0  0  0  0  0  0
   -1.4768   -2.1357   -0.0000 N   0  0  0  0  0  0  0  0  0  0  0  0
    0.8861   -2.3857   -0.0000 C   0  0  0  0  0  0  0  0  0  0  0  0
   -2.8401   -1.5223   -0.0000 C   0  0  0  0  0  0  0  0  0  0  0  0
   -1.2042   -3.5444   -0.0000 C   0  0  0  0  0  0  0  0  0  0  0  0
    2.2948   -2.0676   -0.0000 N   0  0  0  0  0  0  0  0  0  0  0  0
    0.2726   -3.7034   -0.0000 C   0  0  0  0  0  0  0  0  0  0  0  0
   -4.1351   -2.2266   -0.0000 C   0  0  0  0  0  0  0  0  0  0  0  0
   -3.1582   -0.0682   -0.0000 C   0  0  0  0  0  0  0  0  0  0  0  0
    2.2266   -4.9304   -0.0000 C   0  0  0  0  0  0  0  0  0  0  0  0
   -5.2484   -1.2269   -0.0000 C   0  0  0  0  0  0  0  0  0  0  0  0
   -4.4532   -3.6353   -0.0000 C   0  0  0  0  0  0  0  0  0  0  0  0
   -4.6350    0.1136   -0.0000 C   0  0  0  0  0  0  0  0  0  0  0  0
    0.9315   -5.6347   -0.0000 C   0  0  0  0  0  0  0  0  0  0  0  0
   -6.6571   -1.6586   -0.0000 C   0  0  0  0  0  0  0  0  0  0  0  0
   -5.8619   -4.0670   -0.0000 C   0  0  0  0  0  0  0  0  0  0  0  0
   -0.2272   -6.5208   -0.0000 N   0  0  0  0  0  0  0  0  0  0  0  0
    2.1357   -6.4072   -0.0000 C   0  0  0  0  0  0  0  0  0  0  0  0
   -6.9752   -3.0673   -0.0000 C   0  0  0  0  0  0  0  0  0  0  0  0
   -6.1800   -5.4757   -0.0000 O   0  0  0  0  0  0  0  0  0  0  0  0
    0.2726   -7.8613   -0.0000 C   0  0  0  0  0  0  0  0  0  0  0  0
   -1.6586   -6.1118   -0.0000 C   0  0  0  0  0  0  0  0  0  0  0  0
    1.7268   -7.7931   -0.0000 N   0  0  0  0  0  0  0  0  0  0  0  0
   -5.1803   -6.4754   -0.0000 C   0  0  0  0  0  0  0  0  0  0  0  0
   -2.7037   -7.1115   -0.0000 C   0  0  0  0  0  0  0  0  0  0  0  0
   -5.5893   -7.8613   -0.0000 C   0  0  0  0  0  0  0  0  0  0  0  0
   -3.7943   -6.0664   -0.0000 C   0  0  0  0  0  0  0  0  0  0  0  0
   -3.1127   -8.4975   -0.0000 C   0  0  0  0  0  0  0  0  0  0  0  0
   -7.0207   -8.2248   -0.0000 C   0  0  0  0  0  0  0  0  0  0  0  0
   -4.5896   -8.8610   -0.0000 C   0  0  0  0  0  0  0  0  0  0  0  0
   -8.4520   -8.5884   -0.0000 N   0  0  0  0  0  0  0  0  0  0  0  0
  1  2  2  0  0  0  0
  2  3  1  0  0  0  0
  2  4  1  0  0  0  0
  5  3  1  6  0  0  0
  3  6  1  0  0  0  0
  4  7  1  6  0  0  0
  4  8  1  0  0  0  0
  5  9  1  0  0  0  0
  5 10  1  0  0  0  0
  7 11  1  0  0  0  0
  9 12  2  0  0  0  0
  9 13  1  0  0  0  0
 10 14  1  0  0  0  0
 11 15  1  0  0  0  0
 12 16  1  0  0  0  0
 13 17  2  0  0  0  0
 15 18  1  0  0  0  0
 15 19  2  0  0  0  0
 16 20  2  0  0  0  0
 17 21  1  0  0  0  0
 18 22  1  0  0  0  0
 18 23  1  0  0  0  0
 19 24  1  0  0  0  0
 21 25  1  0  0  0  0
 23 26  1  0  0  0  0
 25 27  2  0  0  0  0
 25 28  1  0  0  0  0
 26 29  1  0  0  0  0
 27 30  1  0  0  0  0
 27 31  1  0  0  0  0
 30 32  3  0  0  0  0
  6  8  1  0  0  0  0
 12 14  1  0  0  0  0
 17 20  1  0  0  0  0
 22 24  2  0  0  0  0
 26 28  2  0  0  0  0
 29 31  2  0  0  0  0
M  END
>  <MolRegNo>
523037

>  <m>
=

>  <Value>
2800

>  <Unit>
nM

>  <Type>
IC50

>  <pValue>
5.55

>  <Ligand Efficiency>
0

>  <Binding Efficiency>
0

>  <Surface Efficiency>
0

>  <Assay Index>
51819

>  <Assay Category>


>  <Assay Organism>
Homo sapiens

>  <Target ID>
17045

>  <Target Name>
Cytochrome P450 3A4

>  <Target Organism>
Homo sapiens

>  <Target Description>
Target is a single protein chain

>  <Sequence Accession>
P08684

>  <Reference>
J Med Chem 45 (12), 2388-2409 (2002)

>  <Pubmed ID>
12036349

>  <DOI>
10.1021/jm010531d

$$$$
126486
Actelion Java MolfileCreator 1.0

 34 39  0  0  0  0  0  0  0  0999 V2000
    0.0000   -0.0000   -0.0000 O   0  0  0  0  0  0  0  0  0  0  0  0
    0.0000   -1.5205   -0.0000 C   0  0  0  0  0  0  0  0  0  0  0  0
   -1.2740   -2.3287   -0.0000 N   0  0  0  0  0  0  0  0  0  0  0  0
    1.1507   -2.4657   -0.0000 C   0  0  0  0  0  0  0  0  0  0  0  0
   -2.8082   -2.3150   -0.0000 C   0  0  0  0  0  0  0  0  0  0  0  0
   -0.9041   -3.7808   -0.0000 C   0  0  0  0  0  0  0  0  0  0  0  0
    2.4520   -1.6575   -0.0000 N   0  0  0  0  0  0  0  0  0  0  0  0
    0.6027   -3.8630   -0.0000 C   0  0  0  0  0  0  0  0  0  0  0  0
   -3.5753   -3.6027   -0.0000 C   0  0  0  0  0  0  0  0  0  0  0  0
   -3.5753   -0.9863   -0.0000 C   0  0  0  0  0  0  0  0  0  0  0  0
    3.9589   -1.6438   -0.0000 C   0  0  0  0  0  0  0  0  0  0  0  0
   -5.1232   -3.5753   -0.0000 C   0  0  0  0  0  0  0  0  0  0  0  0
   -2.8356   -4.9041   -0.0000 C   0  0  0  0  0  0  0  0  0  0  0  0
   -5.1095   -0.9589   -0.0000 C   0  0  0  0  0  0  0  0  0  0  0  0
    4.7397   -2.8904   -0.0000 C   0  0  0  0  0  0  0  0  0  0  0  0
   -5.8904   -4.8630   -0.0000 C   0  0  0  0  0  0  0  0  0  0  0  0
   -5.8904   -2.2466   -0.0000 C   0  0  0  0  0  0  0  0  0  0  0  0
   -3.6027   -6.1917   -0.0000 C   0  0  0  0  0  0  0  0  0  0  0  0
    3.9726   -4.1780   -0.0000 C   0  0  0  0  0  0  0  0  0  0  0  0
   -5.1643   -6.1780   -0.0000 C   0  0  0  0  0  0  0  0  0  0  0  0
   -3.1370   -7.5342   -0.0000 O   0  0  0  0  0  0  0  0  0  0  0  0
    2.7260   -5.0685   -0.0000 N   0  0  0  0  0  0  0  0  0  0  0  0
    5.1917   -5.0685   -0.0000 C   0  0  0  0  0  0  0  0  0  0  0  0
   -1.4109   -7.4520   -0.0000 C   0  0  0  0  0  0  0  0  0  0  0  0
    3.1918   -6.4931   -0.0000 C   0  0  0  0  0  0  0  0  0  0  0  0
    1.4657   -5.0822   -0.0000 C   0  0  0  0  0  0  0  0  0  0  0  0
    4.6986   -6.4931   -0.0000 N   0  0  0  0  0  0  0  0  0  0  0  0
   -0.6712   -8.7534   -0.0000 C   0  0  0  0  0  0  0  0  0  0  0  0
   -0.6438   -6.1369   -0.0000 C   0  0  0  0  0  0  0  0  0  0  0  0
    0.8356   -6.1506   -0.0000 C   0  0  0  0  0  0  0  0  0  0  0  0
   -1.4657  -10.0410   -0.0000 C   0  0  0  0  0  0  0  0  0  0  0  0
    0.8356   -8.7534   -0.0000 C   0  0  0  0  0  0  0  0  0  0  0  0
    1.5753   -7.4657   -0.0000 C   0  0  0  0  0  0  0  0  0  0  0  0
   -2.2329  -11.3287   -0.0000 N   0  0  0  0  0  0  0  0  0  0  0  0
  1  2  2  0  0  0  0
  2  3  1  0  0  0  0
  2  4  1  0  0  0  0
  3  5  1  0  0  0  0
  3  6  1  0  0  0  0
  4  7  1  0  0  0  0
  4  8  1  0  0  0  0
  5  9  1  0  0  0  0
  5 10  2  0  0  0  0
  7 11  1  0  0  0  0
  9 12  1  0  0  0  0
  9 13  2  0  0  0  0
 10 14  1  0  0  0  0
 11 15  1  0  0  0  0
 12 16  2  0  0  0  0
 12 17  1  0  0  0  0
 13 18  1  0  0  0  0
 15 19  1  0  0  0  0
 16 20  1  0  0  0  0
 18 21  1  0  0  0  0
 19 22  1  0  0  0  0
 19 23  2  0  0  0  0
 21 24  1  0  0  0  0
 22 25  1  0  0  0  0
 22 26  1  0  0  0  0
 23 27  1  0  0  0  0
 24 28  2  0  0  0  0
 24 29  1  0  0  0  0
 26 30  1  0  0  0  0
 28 31  1  0  0  0  0
 28 32  1  0  0  0  0
 30 33  1  0  0  0  0
 31 34  3  0  0  0  0
  6  8  1  0  0  0  0
 14 17  2  0  0  0  0
 18 20  2  0  0  0  0
 25 27  2  0  0  0  0
 29 30  2  0  0  0  0
 32 33  2  0  0  0  0
M  END
>  <MolRegNo>
126486

>  <m>
=

>  <Value>
6000

>  <Unit>
nM

>  <Type>
IC50

>  <pValue>
5.22

>  <Ligand Efficiency>
0

>  <Binding Efficiency>
0

>  <Surface Efficiency>
0

>  <Assay Index>
51819

>  <Assay Category>


>  <Assay Organism>
Homo sapiens

>  <Target ID>
17045

>  <Target Name>
Cytochrome P450 3A4

>  <Target Organism>
Homo sapiens

>  <Target Description>
Target is a single protein chain

>  <Sequence Accession>
P08684

>  <Reference>
J Med Chem 45 (12), 2388-2409 (2002)

>  <Pubmed ID>
12036349

>  <DOI>
10.1021/jm010531d

$$$$
80649
Actelion Java MolfileCreator 1.0

 33 38  0  0  0  0  0  0  0  0999 V2000
    0.0000   -0.0000   -0.0000 O   0  0  0  0  0  0  0  0  0  0  0  0
    0.4981   -1.3735   -0.0000 C   0  0  0  0  0  0  0  0  0  0  0  0
   -0.3320   -2.5960   -0.0000 N   0  0  0  0  0  0  0  0  0  0  0  0
    1.9168   -1.7508   -0.0000 C   0  0  0  0  0  0  0  0  0  0  0  0
   -1.1622   -4.0751   -0.0000 C   0  0  0  0  0  0  0  0  0  0  0  0
    0.5735   -3.7431   -0.0000 C   0  0  0  0  0  0  0  0  0  0  0  0
    3.8185   -1.9017   -0.0000 N   0  0  0  0  0  0  0  0  0  0  0  0
    1.9621   -3.2148   -0.0000 C   0  0  0  0  0  0  0  0  0  0  0  0
   -1.4338   -5.5240   -0.0000 C   0  0  0  0  0  0  0  0  0  0  0  0
   -2.3092   -3.1092   -0.0000 C   0  0  0  0  0  0  0  0  0  0  0  0
    5.0109   -2.7469   -0.0000 C   0  0  0  0  0  0  0  0  0  0  0  0
   -2.8375   -6.0221   -0.0000 C   0  0  0  0  0  0  0  0  0  0  0  0
   -0.3170   -6.4598   -0.0000 C   0  0  0  0  0  0  0  0  0  0  0  0
   -3.7129   -3.6072   -0.0000 C   0  0  0  0  0  0  0  0  0  0  0  0
    5.7806   -3.9845   -0.0000 C   0  0  0  0  0  0  0  0  0  0  0  0
   -3.1092   -7.4710   -0.0000 C   0  0  0  0  0  0  0  0  0  0  0  0
   -3.9845   -5.0561   -0.0000 C   0  0  0  0  0  0  0  0  0  0  0  0
   -0.5886   -7.9087   -0.0000 C   0  0  0  0  0  0  0  0  0  0  0  0
    6.0070   -5.4335   -0.0000 N   0  0  0  0  0  0  0  0  0  0  0  0
    7.0786   -3.2903   -0.0000 C   0  0  0  0  0  0  0  0  0  0  0  0
   -1.9923   -8.4068   -0.0000 C   0  0  0  0  0  0  0  0  0  0  0  0
    0.6037   -8.7539   -0.0000 O   0  0  0  0  0  0  0  0  0  0  0  0
    7.4559   -5.6448   -0.0000 C   0  0  0  0  0  0  0  0  0  0  0  0
    5.6599   -6.8522   -0.0000 C   0  0  0  0  0  0  0  0  0  0  0  0
    8.1200   -4.3166   -0.0000 N   0  0  0  0  0  0  0  0  0  0  0  0
    2.3545   -8.9652   -0.0000 C   0  0  0  0  0  0  0  0  0  0  0  0
    4.7845   -8.0446   -0.0000 C   0  0  0  0  0  0  0  0  0  0  0  0
    2.8526  -10.3387   -0.0000 C   0  0  0  0  0  0  0  0  0  0  0  0
    3.2752   -7.8031   -0.0000 C   0  0  0  0  0  0  0  0  0  0  0  0
    5.2825   -9.4180   -0.0000 C   0  0  0  0  0  0  0  0  0  0  0  0
    1.9017  -11.4707   -0.0000 C   0  0  0  0  0  0  0  0  0  0  0  0
    4.3015  -10.5651   -0.0000 C   0  0  0  0  0  0  0  0  0  0  0  0
    0.9509  -12.6026   -0.0000 N   0  0  0  0  0  0  0  0  0  0  0  0
  1  2  2  0  0  0  0
  2  3  1  0  0  0  0
  2  4  1  0  0  0  0
  3  5  1  0  0  0  0
  3  6  1  0  0  0  0
  4  7  1  1  0  0  0
  4  8  1  0  0  0  0
  5  9  1  0  0  0  0
  5 10  2  0  0  0  0
  7 11  1  0  0  0  0
  9 12  1  0  0  0  0
  9 13  2  0  0  0  0
 10 14  1  0  0  0  0
 11 15  1  0  0  0  0
 12 16  2  0  0  0  0
 12 17  1  0  0  0  0
 13 18  1  0  0  0  0
 15 19  1  0  0  0  0
 15 20  2  0  0  0  0
 16 21  1  0  0  0  0
 18 22  1  0  0  0  0
 19 23  1  0  0  0  0
 19 24  1  0  0  0  0
 20 25  1  0  0  0  0
 22 26  1  0  0  0  0
 24 27  1  0  0  0  0
 26 28  2  0  0  0  0
 26 29  1  0  0  0  0
 27 30  1  0  0  0  0
 28 31  1  0  0  0  0
 28 32  1  0  0  0  0
 31 33  3  0  0  0  0
  6  8  1  0  0  0  0
 14 17  2  0  0  0  0
 18 21  2  0  0  0  0
 23 25  2  0  0  0  0
 27 29  2  0  0  0  0
 30 32  2  0  0  0  0
M  END
>  <MolRegNo>
80649

>  <m>
=

>  <Value>
8000

>  <Unit>
nM

>  <Type>
IC50

>  <pValue>
5.1

>  <Ligand Efficiency>
0

>  <Binding Efficiency>
0

>  <Surface Efficiency>
0

>  <Assay Index>
51819

>  <Assay Category>


>  <Assay Organism>
Homo sapiens

>  <Target ID>
17045

>  <Target Name>
Cytochrome P450 3A4

>  <Target Organism>
Homo sapiens

>  <Target Description>
Target is a single protein chain

>  <Sequence Accession>
P08684

>  <Reference>
J Med Chem 45 (12), 2388-2409 (2002)

>  <Pubmed ID>
12036349

>  <DOI>
10.1021/jm010531d

$$$$
126905
Actelion Java MolfileCreator 1.0

 31 35  0  0  0  0  0  0  0  0999 V2000
    0.0000   -0.0000   -0.0000 O   0  0  0  0  0  0  0  0  0  0  0  0
    0.0000   -1.4812   -0.0000 C   0  0  0  0  0  0  0  0  0  0  0  0
   -1.2603   -2.2737   -0.0000 N   0  0  0  0  0  0  0  0  0  0  0  0
    1.1434   -2.4037   -0.0000 C   0  0  0  0  0  0  0  0  0  0  0  0
   -2.7675   -2.2608   -0.0000 C   0  0  0  0  0  0  0  0  0  0  0  0
   -0.8965   -3.6900   -0.0000 C   0  0  0  0  0  0  0  0  0  0  0  0
    2.4297   -1.6371   -0.0000 N   0  0  0  0  0  0  0  0  0  0  0  0
    0.5977   -3.7939   -0.0000 C   0  0  0  0  0  0  0  0  0  0  0  0
   -3.5340   -3.5470   -0.0000 C   0  0  0  0  0  0  0  0  0  0  0  0
    3.7030   -2.3387   -0.0000 C   0  0  0  0  0  0  0  0  0  0  0  0
   -2.8064   -4.8203   -0.0000 C   0  0  0  0  0  0  0  0  0  0  0  0
   -5.0542   -3.5081   -0.0000 C   0  0  0  0  0  0  0  0  0  0  0  0
    4.0797   -3.7939   -0.0000 C   0  0  0  0  0  0  0  0  0  0  0  0
   -3.5730   -6.0806   -0.0000 C   0  0  0  0  0  0  0  0  0  0  0  0
   -5.8338   -4.7944   -0.0000 C   0  0  0  0  0  0  0  0  0  0  0  0
    3.3132   -5.0542   -0.0000 N   0  0  0  0  0  0  0  0  0  0  0  0
    5.5349   -4.0927   -0.0000 C   0  0  0  0  0  0  0  0  0  0  0  0
   -2.8584   -7.7047   -0.0000 O   0  0  0  0  0  0  0  0  0  0  0  0
   -5.1062   -6.0676   -0.0000 C   0  0  0  0  0  0  0  0  0  0  0  0
    4.3006   -6.1586   -0.0000 C   0  0  0  0  0  0  0  0  0  0  0  0
    1.7800   -5.0412   -0.0000 C   0  0  0  0  0  0  0  0  0  0  0  0
    5.6519   -5.5609   -0.0000 N   0  0  0  0  0  0  0  0  0  0  0  0
   -1.2213   -7.5748   -0.0000 C   0  0  0  0  0  0  0  0  0  0  0  0
    1.0134   -6.3275   -0.0000 C   0  0  0  0  0  0  0  0  0  0  0  0
    2.5206   -6.3015   -0.0000 C   0  0  0  0  0  0  0  0  0  0  0  0
   -0.4807   -8.8741   -0.0000 C   0  0  0  0  0  0  0  0  0  0  0  0
   -0.4807   -6.2885   -0.0000 C   0  0  0  0  0  0  0  0  0  0  0  0
    1.7540   -7.5878   -0.0000 C   0  0  0  0  0  0  0  0  0  0  0  0
   -1.2473  -10.1344   -0.0000 C   0  0  0  0  0  0  0  0  0  0  0  0
    1.0004   -8.8611   -0.0000 C   0  0  0  0  0  0  0  0  0  0  0  0
   -2.0139  -11.4337   -0.0000 N   0  0  0  0  0  0  0  0  0  0  0  0
  1  2  2  0  0  0  0
  2  3  1  0  0  0  0
  2  4  1  0  0  0  0
  3  5  1  0  0  0  0
  3  6  1  0  0  0  0
  4  7  1  0  0  0  0
  4  8  1  0  0  0  0
  5  9  1  0  0  0  0
  7 10  1  0  0  0  0
  9 11  2  0  0  0  0
  9 12  1  0  0  0  0
 10 13  1  0  0  0  0
 11 14  1  0  0  0  0
 12 15  2  0  0  0  0
 13 16  1  0  0  0  0
 13 17  2  0  0  0  0
 14 18  1  0  0  0  0
 14 19  2  0  0  0  0
 16 20  1  0  0  0  0
 16 21  1  0  0  0  0
 17 22  1  0  0  0  0
 18 23  1  0  0  0  0
 21 24  1  0  0  0  0
 21 25  1  0  0  0  0
 23 26  2  0  0  0  0
 23 27  1  0  0  0  0
 24 28  1  0  0  0  0
 26 29  1  0  0  0  0
 26 30  1  0  0  0  0
 29 31  3  0  0  0  0
  6  8  1  0  0  0  0
 15 19  1  0  0  0  0
 20 22  2  0  0  0  0
 24 27  2  0  0  0  0
 28 30  2  0  0  0  0
M  END
>  <MolRegNo>
126905

>  <m>
=

>  <Value>
6100

>  <Unit>
nM

>  <Type>
IC50

>  <pValue>
5.21

>  <Ligand Efficiency>
0

>  <Binding Efficiency>
0

>  <Surface Efficiency>
0

>  <Assay Index>
51660

>  <Assay Category>


>  <Assay Organism>
Canis lupus familiaris

>  <Target ID>
17045

>  <Target Name>
Cytochrome P450 3A4

>  <Target Organism>
Homo sapiens

>  <Target Description>
Target is a single protein chain

>  <Sequence Accession>
P08684

>  <Reference>
J Med Chem 45 (12), 2388-2409 (2002)

>  <Pubmed ID>
12036349

>  <DOI>
10.1021/jm010531d

$$$$
126902
Actelion Java MolfileCreator 1.0

 31 35  0  0  0  0  0  0  0  0999 V2000
    0.0000   -0.0000   -0.0000 Br  0  0  0  0  0  0  0  0  0  0  0  0
    0.7546   -1.3010   -0.0000 C   0  0  0  0  0  0  0  0  0  0  0  0
    2.2506   -1.3140   -0.0000 C   0  0  0  0  0  0  0  0  0  0  0  0
   -0.0260   -2.5889   -0.0000 C   0  0  0  0  0  0  0  0  0  0  0  0
    2.9792   -2.5889   -0.0000 C   0  0  0  0  0  0  0  0  0  0  0  0
    2.9922   -0.0000   -0.0000 C   0  0  0  0  0  0  0  0  0  0  0  0
    0.7155   -3.8638   -0.0000 C   0  0  0  0  0  0  0  0  0  0  0  0
    2.2116   -3.8508   -0.0000 C   0  0  0  0  0  0  0  0  0  0  0  0
    4.4753    0.0130   -0.0000 N   0  0  0  0  0  0  0  0  0  0  0  0
    2.9271   -5.4770   -0.0000 O   0  0  0  0  0  0  0  0  0  0  0  0
    5.7112    0.8326   -0.0000 C   0  0  0  0  0  0  0  0  0  0  0  0
    4.8395   -1.4050   -0.0000 C   0  0  0  0  0  0  0  0  0  0  0  0
    4.5663   -5.3469   -0.0000 C   0  0  0  0  0  0  0  0  0  0  0  0
    5.6852    2.3417   -0.0000 O   0  0  0  0  0  0  0  0  0  0  0  0
    6.8560   -0.0911   -0.0000 C   0  0  0  0  0  0  0  0  0  0  0  0
    6.3226   -1.4831   -0.0000 C   0  0  0  0  0  0  0  0  0  0  0  0
    5.3079   -6.6479   -0.0000 C   0  0  0  0  0  0  0  0  0  0  0  0
    5.3079   -4.0590   -0.0000 C   0  0  0  0  0  0  0  0  0  0  0  0
    8.1440    0.6765   -0.0000 N   0  0  0  0  0  0  0  0  0  0  0  0
    4.5403   -7.9098   -0.0000 C   0  0  0  0  0  0  0  0  0  0  0  0
    6.7910   -6.6349   -0.0000 C   0  0  0  0  0  0  0  0  0  0  0  0
    6.7910   -4.0720   -0.0000 C   0  0  0  0  0  0  0  0  0  0  0  0
    9.4189   -0.0260   -0.0000 C   0  0  0  0  0  0  0  0  0  0  0  0
    3.7728   -9.2107   -0.0000 N   0  0  0  0  0  0  0  0  0  0  0  0
    7.5325   -5.3339   -0.0000 C   0  0  0  0  0  0  0  0  0  0  0  0
    7.5325   -2.7580   -0.0000 C   0  0  0  0  0  0  0  0  0  0  0  0
    9.7962   -1.4701   -0.0000 C   0  0  0  0  0  0  0  0  0  0  0  0
    9.0416   -2.7450   -0.0000 N   0  0  0  0  0  0  0  0  0  0  0  0
   11.2532   -1.7823   -0.0000 C   0  0  0  0  0  0  0  0  0  0  0  0
   10.0303   -3.8508   -0.0000 C   0  0  0  0  0  0  0  0  0  0  0  0
   11.3703   -3.2524   -0.0000 N   0  0  0  0  0  0  0  0  0  0  0  0
  1  2  1  0  0  0  0
  2  3  2  0  0  0  0
  2  4  1  0  0  0  0
  3  5  1  0  0  0  0
  3  6  1  0  0  0  0
  4  7  2  0  0  0  0
  5  8  2  0  0  0  0
  6  9  1  0  0  0  0
  8 10  1  0  0  0  0
  9 11  1  0  0  0  0
  9 12  1  0  0  0  0
 10 13  1  0  0  0  0
 11 14  2  0  0  0  0
 11 15  1  0  0  0  0
 12 16  1  0  0  0  0
 13 17  2  0  0  0  0
 13 18  1  0  0  0  0
 15 19  1  0  0  0  0
 17 20  1  0  0  0  0
 17 21  1  0  0  0  0
 18 22  2  0  0  0  0
 19 23  1  0  0  0  0
 20 24  3  0  0  0  0
 21 25  2  0  0  0  0
 22 26  1  0  0  0  0
 23 27  1  0  0  0  0
 26 28  1  0  0  0  0
 27 29  2  0  0  0  0
 28 30  1  0  0  0  0
 29 31  1  0  0  0  0
  7  8  1  0  0  0  0
 15 16  1  0  0  0  0
 22 25  1  0  0  0  0
 27 28  1  0  0  0  0
 30 31  2  0  0  0  0
M  END
>  <MolRegNo>
126902

>  <m>
=

>  <Value>
6100

>  <Unit>
nM

>  <Type>
IC50

>  <pValue>
5.21

>  <Ligand Efficiency>
0

>  <Binding Efficiency>
0

>  <Surface Efficiency>
0

>  <Assay Index>
51819

>  <Assay Category>


>  <Assay Organism>
Homo sapiens

>  <Target ID>
17045

>  <Target Name>
Cytochrome P450 3A4

>  <Target Organism>
Homo sapiens

>  <Target Description>
Target is a single protein chain

>  <Sequence Accession>
P08684

>  <Reference>
J Med Chem 45 (12), 2388-2409 (2002)

>  <Pubmed ID>
12036349

>  <DOI>
10.1021/jm010531d

$$$$
271845
Actelion Java MolfileCreator 1.0

 29 32  0  0  0  0  0  0  0  0999 V2000
    0.0000   -0.0000   -0.0000 S   0  0  0  0  0  0  0  0  0  0  0  0
    1.4769    0.0123   -0.0000 C   0  0  0  0  0  0  0  0  0  0  0  0
   -0.8738    1.2554   -0.0000 C   0  0  0  0  0  0  0  0  0  0  0  0
    2.2030   -1.2677   -0.0000 C   0  0  0  0  0  0  0  0  0  0  0  0
    2.1907    1.3169   -0.0000 C   0  0  0  0  0  0  0  0  0  0  0  0
   -2.3630    1.1446   -0.0000 C   0  0  0  0  0  0  0  0  0  0  0  0
    3.6799   -1.2554   -0.0000 C   0  0  0  0  0  0  0  0  0  0  0  0
    3.6676    1.3415   -0.0000 C   0  0  0  0  0  0  0  0  0  0  0  0
   -3.0522   -0.2585   -0.0000 C   0  0  0  0  0  0  0  0  0  0  0  0
   -3.2615    2.4369   -0.0000 C   0  0  0  0  0  0  0  0  0  0  0  0
    4.4184    0.0615   -0.0000 N   0  0  0  0  0  0  0  0  0  0  0  0
    4.4184   -2.5353   -0.0000 C   0  0  0  0  0  0  0  0  0  0  0  0
    4.4061    2.6461   -0.0000 C   0  0  0  0  0  0  0  0  0  0  0  0
   -4.6276   -0.3569   -0.0000 N   0  0  0  0  0  0  0  0  0  0  0  0
   -4.8245    2.3261   -0.0000 C   0  0  0  0  0  0  0  0  0  0  0  0
   -5.5260    0.9354   -0.0000 C   0  0  0  0  0  0  0  0  0  0  0  0
   -5.4768    3.6799   -0.0000 C   0  0  0  0  0  0  0  0  0  0  0  0
   -6.9168    0.6277   -0.0000 N   0  0  0  0  0  0  0  0  0  0  0  0
   -4.5784    4.8737   -0.0000 O   0  0  0  0  0  0  0  0  0  0  0  0
   -6.9660    3.9999   -0.0000 N   0  0  0  0  0  0  0  0  0  0  0  0
   -8.0860    1.5630   -0.0000 C   0  0  0  0  0  0  0  0  0  0  0  0
   -7.2737   -0.8123   -0.0000 C   0  0  0  0  0  0  0  0  0  0  0  0
   -8.1475    3.0030   -0.0000 C   0  0  0  0  0  0  0  0  0  0  0  0
   -9.3044    0.7877   -0.0000 N   0  0  0  0  0  0  0  0  0  0  0  0
   -8.7136   -1.2430   -0.0000 C   0  0  0  0  0  0  0  0  0  0  0  0
   -9.4521    3.6922   -0.0000 C   0  0  0  0  0  0  0  0  0  0  0  0
  -10.5967    1.4523   -0.0000 C   0  0  0  0  0  0  0  0  0  0  0  0
  -10.6705    2.9169   -0.0000 C   0  0  0  0  0  0  0  0  0  0  0  0
   -9.5382    5.1937   -0.0000 C   0  0  0  0  0  0  0  0  0  0  0  0
  1  2  1  0  0  0  0
  1  3  1  0  0  0  0
  2  4  2  0  0  0  0
  2  5  1  0  0  0  0
  3  6  1  0  0  0  0
  4  7  1  0  0  0  0
  5  8  2  0  0  0  0
  6  9  2  0  0  0  0
  6 10  1  0  0  0  0
  7 11  2  0  0  0  0
  7 12  1  0  0  0  0
  8 13  1  0  0  0  0
  9 14  1  0  0  0  0
 10 15  2  0  0  0  0
 14 16  2  0  0  0  0
 15 17  1  0  0  0  0
 16 18  1  0  0  0  0
 17 19  2  0  0  0  0
 17 20  1  0  0  0  0
 18 21  1  0  0  0  0
 18 22  1  0  0  0  0
 20 23  1  0  0  0  0
 21 24  1  0  0  0  0
 22 25  1  0  0  0  0
 23 26  1  0  0  0  0
 24 27  2  0  0  0  0
 26 28  2  0  0  0  0
 26 29  1  0  0  0  0
  8 11  1  0  0  0  0
 15 16  1  0  0  0  0
 21 23  2  0  0  0  0
 27 28  1  0  0  0  0
M  END
>  <MolRegNo>
271845

>  <m>
=

>  <Value>
1600

>  <Unit>
nM

>  <Type>
IC50

>  <pValue>
5.8

>  <Ligand Efficiency>
0

>  <Binding Efficiency>
0

>  <Surface Efficiency>
0

>  <Assay Index>
52000

>  <Assay Category>


>  <Assay Organism>


>  <Target ID>
17045

>  <Target Name>
Cytochrome P450 3A4

>  <Target Organism>
Homo sapiens

>  <Target Description>
Target is a single protein chain

>  <Sequence Accession>
P08684

>  <Reference>
Bioorg Med Chem Lett 14 (3), 739-742 (2004)

>  <Pubmed ID>
14741280

>  <DOI>
10.1016/j.bmcl.2003.11.049

$$$$
36648
Actelion Java MolfileCreator 1.0

 39 44  0  0  0  0  0  0  0  0999 V2000
    0.0000   -0.0000   -0.0000 F   0  0  0  0  0  0  0  0  0  0  0  0
   -1.5088    0.1901   -0.0000 C   0  0  0  0  0  0  0  0  0  0  0  0
   -2.3998   -0.9979   -0.0000 C   0  0  0  0  0  0  0  0  0  0  0  0
   -2.1147    1.5563   -0.0000 C   0  0  0  0  0  0  0  0  0  0  0  0
   -1.8177   -2.3642   -0.0000 F   0  0  0  0  0  0  0  0  0  0  0  0
   -3.8849   -0.8316   -0.0000 C   0  0  0  0  0  0  0  0  0  0  0  0
   -3.6235    1.7345   -0.0000 C   0  0  0  0  0  0  0  0  0  0  0  0
   -4.4907    0.5346   -0.0000 C   0  0  0  0  0  0  0  0  0  0  0  0
   -4.2294    3.1008   -0.0000 C   0  0  0  0  0  0  0  0  0  0  0  0
   -5.7263    3.2671   -0.0000 C   0  0  0  0  0  0  0  0  0  0  0  0
   -6.3441    4.6452   -0.0000 N   0  0  0  0  0  0  0  0  0  0  0  0
   -5.4768    5.8689   -0.0000 C   0  0  0  0  0  0  0  0  0  0  0  0
   -7.8291    4.8115   -0.0000 C   0  0  0  0  0  0  0  0  0  0  0  0
   -6.1183    7.2351   -0.0000 C   0  0  0  0  0  0  0  0  0  0  0  0
   -8.4706    6.1777   -0.0000 C   0  0  0  0  0  0  0  0  0  0  0  0
   -7.6034    7.3895   -0.0000 N   0  0  0  0  0  0  0  0  0  0  0  0
   -8.2212    8.7795   -0.0000 C   0  0  0  0  0  0  0  0  0  0  0  0
   -7.3777    9.9913   -0.0000 N   0  0  0  0  0  0  0  0  0  0  0  0
   -9.7299    8.9221   -0.0000 C   0  0  0  0  0  0  0  0  0  0  0  0
   -8.0192   11.3575   -0.0000 C   0  0  0  0  0  0  0  0  0  0  0  0
  -10.8467    7.9360   -0.0000 N   0  0  0  0  0  0  0  0  0  0  0  0
  -10.3477   10.2883   -0.0000 C   0  0  0  0  0  0  0  0  0  0  0  0
   -9.5042   11.5239   -0.0000 N   0  0  0  0  0  0  0  0  0  0  0  0
  -12.1535    8.6726   -0.0000 C   0  0  0  0  0  0  0  0  0  0  0  0
  -10.8586    6.4391   -0.0000 C   0  0  0  0  0  0  0  0  0  0  0  0
  -11.8328   10.1458   -0.0000 C   0  0  0  0  0  0  0  0  0  0  0  0
  -13.4604    7.9360   -0.0000 C   0  0  0  0  0  0  0  0  0  0  0  0
  -12.1416    5.6907   -0.0000 C   0  0  0  0  0  0  0  0  0  0  0  0
  -12.8545   11.2506   -0.0000 C   0  0  0  0  0  0  0  0  0  0  0  0
  -13.4722    6.4510   -0.0000 C   0  0  0  0  0  0  0  0  0  0  0  0
  -12.4149   12.7000   -0.0000 O   0  0  0  0  0  0  0  0  0  0  0  0
  -14.3276   10.9417   -0.0000 N   0  0  0  0  0  0  0  0  0  0  0  0
  -14.7909    9.5280   -0.0000 C   0  0  0  0  0  0  0  0  0  0  0  0
  -16.2641    9.2191   -0.0000 C   0  0  0  0  0  0  0  0  0  0  0  0
  -16.7037    7.8053   -0.0000 N   0  0  0  0  0  0  0  0  0  0  0  0
  -17.2739   10.3358   -0.0000 C   0  0  0  0  0  0  0  0  0  0  0  0
  -18.1768    7.4965   -0.0000 C   0  0  0  0  0  0  0  0  0  0  0  0
  -18.7471   10.0151   -0.0000 C   0  0  0  0  0  0  0  0  0  0  0  0
  -19.2104    8.6013   -0.0000 C   0  0  0  0  0  0  0  0  0  0  0  0
  1  2  1  0  0  0  0
  2  3  2  0  0  0  0
  2  4  1  0  0  0  0
  3  5  1  0  0  0  0
  3  6  1  0  0  0  0
  4  7  2  0  0  0  0
  6  8  2  0  0  0  0
  7  9  1  0  0  0  0
  9 10  1  0  0  0  0
 10 11  1  0  0  0  0
 11 12  1  0  0  0  0
 11 13  1  0  0  0  0
 12 14  1  0  0  0  0
 13 15  1  0  0  0  0
 14 16  1  0  0  0  0
 16 17  1  0  0  0  0
 17 18  2  0  0  0  0
 17 19  1  0  0  0  0
 18 20  1  0  0  0  0
 19 21  1  0  0  0  0
 19 22  2  0  0  0  0
 20 23  2  0  0  0  0
 21 24  1  0  0  0  0
 21 25  1  0  0  0  0
 22 26  1  0  0  0  0
 24 27  1  0  0  0  0
 25 28  1  0  0  0  0
 26 29  1  0  0  0  0
 27 30  1  0  0  0  0
 29 31  2  0  0  0  0
 29 32  1  0  0  0  0
 32 33  1  0  0  0  0
 33 34  1  0  0  0  0
 34 35  2  0  0  0  0
 34 36  1  0  0  0  0
 35 37  1  0  0  0  0
 36 38  2  0  0  0  0
 37 39  2  0  0  0  0
  7  8  1  0  0  0  0
 15 16  1  0  0  0  0
 22 23  1  0  0  0  0
 24 26  2  0  0  0  0
 28 30  1  0  0  0  0
 38 39  1  0  0  0  0
M  END
>  <MolRegNo>
36648

>  <m>
=

>  <Value>
30150

>  <Unit>
nM

>  <Type>
IC50

>  <pValue>
4.52

>  <Ligand Efficiency>
0.16

>  <Binding Efficiency>
8.5

>  <Surface Efficiency>
5.71

>  <Assay Index>
103581

>  <Assay Category>


>  <Assay Organism>


>  <Target ID>
17045

>  <Target Name>
Cytochrome P450 3A4

>  <Target Organism>
Homo sapiens

>  <Target Description>
Target is a single protein chain

>  <Sequence Accession>
P08684

>  <Reference>
J Med Chem 47 (6), 1329-1338 (2004)

>  <Pubmed ID>
14998323

>  <DOI>
10.1021/jm031011g

$$$$
272488
Actelion Java MolfileCreator 1.0

 30 33  0  0  0  0  0  0  0  0999 V2000
    0.0000   -0.0000   -0.0000 Cl  0  0  0  0  0  0  0  0  0  0  0  0
    1.2377    0.8333   -0.0000 C   0  0  0  0  0  0  0  0  0  0  0  0
    2.5245    0.1838   -0.0000 N   0  0  0  0  0  0  0  0  0  0  0  0
    1.1520    2.3039   -0.0000 C   0  0  0  0  0  0  0  0  0  0  0  0
    3.7132    0.9926   -0.0000 C   0  0  0  0  0  0  0  0  0  0  0  0
    2.3652    3.1127   -0.0000 C   0  0  0  0  0  0  0  0  0  0  0  0
    4.8652    0.0735   -0.0000 N   0  0  0  0  0  0  0  0  0  0  0  0
    3.6274    2.4510   -0.0000 C   0  0  0  0  0  0  0  0  0  0  0  0
    2.2794    4.6324   -0.0000 C   0  0  0  0  0  0  0  0  0  0  0  0
    6.2623    0.4044   -0.0000 C   0  0  0  0  0  0  0  0  0  0  0  0
    4.5221   -1.3848   -0.0000 C   0  0  0  0  0  0  0  0  0  0  0  0
    4.8039    3.4804   -0.0000 N   0  0  0  0  0  0  0  0  0  0  0  0
    7.1324   -0.8701   -0.0000 N   0  0  0  0  0  0  0  0  0  0  0  0
    6.9363    1.8260   -0.0000 C   0  0  0  0  0  0  0  0  0  0  0  0
    3.0760   -1.8260   -0.0000 C   0  0  0  0  0  0  0  0  0  0  0  0
    6.2745    3.1863   -0.0000 C   0  0  0  0  0  0  0  0  0  0  0  0
    8.6765   -0.7475   -0.0000 C   0  0  0  0  0  0  0  0  0  0  0  0
    8.4804    1.9730   -0.0000 C   0  0  0  0  0  0  0  0  0  0  0  0
    7.1936    4.3873   -0.0000 O   0  0  0  0  0  0  0  0  0  0  0  0
    9.3505    0.6863   -0.0000 C   0  0  0  0  0  0  0  0  0  0  0  0
   10.8333    0.8333   -0.0000 C   0  0  0  0  0  0  0  0  0  0  0  0
   11.6667   -0.4044   -0.0000 S   0  0  0  0  0  0  0  0  0  0  0  0
   13.1618   -0.2574   -0.0000 C   0  0  0  0  0  0  0  0  0  0  0  0
   13.9951   -1.4951   -0.0000 C   0  0  0  0  0  0  0  0  0  0  0  0
   13.7745    1.1029   -0.0000 C   0  0  0  0  0  0  0  0  0  0  0  0
   15.4902   -1.3480   -0.0000 C   0  0  0  0  0  0  0  0  0  0  0  0
   15.2451    1.2500   -0.0000 C   0  0  0  0  0  0  0  0  0  0  0  0
   16.1152    0.0123   -0.0000 N   0  0  0  0  0  0  0  0  0  0  0  0
   16.3235   -2.5613   -0.0000 C   0  0  0  0  0  0  0  0  0  0  0  0
   15.8701    2.6103   -0.0000 C   0  0  0  0  0  0  0  0  0  0  0  0
  1  2  1  0  0  0  0
  2  3  2  0  0  0  0
  2  4  1  0  0  0  0
  3  5  1  0  0  0  0
  4  6  2  0  0  0  0
  5  7  1  0  0  0  0
  5  8  2  0  0  0  0
  6  9  1  0  0  0  0
  7 10  1  0  0  0  0
  7 11  1  0  0  0  0
  8 12  1  0  0  0  0
 10 13  2  0  0  0  0
 10 14  1  0  0  0  0
 11 15  1  0  0  0  0
 12 16  1  0  0  0  0
 13 17  1  0  0  0  0
 14 18  2  0  0  0  0
 16 19  2  0  0  0  0
 17 20  2  0  0  0  0
 20 21  1  0  0  0  0
 21 22  1  0  0  0  0
 22 23  1  0  0  0  0
 23 24  2  0  0  0  0
 23 25  1  0  0  0  0
 24 26  1  0  0  0  0
 25 27  2  0  0  0  0
 26 28  2  0  0  0  0
 26 29  1  0  0  0  0
 27 30  1  0  0  0  0
  6  8  1  0  0  0  0
 14 16  1  0  0  0  0
 18 20  1  0  0  0  0
 27 28  1  0  0  0  0
M  END
>  <MolRegNo>
272488

>  <m>
=

>  <Value>
2300

>  <Unit>
nM

>  <Type>
IC50

>  <pValue>
5.64

>  <Ligand Efficiency>
0

>  <Binding Efficiency>
0

>  <Surface Efficiency>
0

>  <Assay Index>
52000

>  <Assay Category>


>  <Assay Organism>


>  <Target ID>
17045

>  <Target Name>
Cytochrome P450 3A4

>  <Target Organism>
Homo sapiens

>  <Target Description>
Target is a single protein chain

>  <Sequence Accession>
P08684

>  <Reference>
Bioorg Med Chem Lett 14 (3), 739-742 (2004)

>  <Pubmed ID>
14741280

>  <DOI>
10.1016/j.bmcl.2003.11.049

$$$$
271877
Actelion Java MolfileCreator 1.0

 30 33  0  0  0  0  0  0  0  0999 V2000
    0.0000   -0.0000   -0.0000 S   0  0  0  0  0  0  0  0  0  0  0  0
    1.4769    0.0123   -0.0000 C   0  0  0  0  0  0  0  0  0  0  0  0
   -0.8738    1.2554   -0.0000 C   0  0  0  0  0  0  0  0  0  0  0  0
    2.1908    1.3169   -0.0000 C   0  0  0  0  0  0  0  0  0  0  0  0
    2.2031   -1.2677   -0.0000 C   0  0  0  0  0  0  0  0  0  0  0  0
   -2.3631    1.1446   -0.0000 C   0  0  0  0  0  0  0  0  0  0  0  0
    3.6677    1.3415   -0.0000 C   0  0  0  0  0  0  0  0  0  0  0  0
    3.6800   -1.2554   -0.0000 C   0  0  0  0  0  0  0  0  0  0  0  0
   -3.0523   -0.2585   -0.0000 C   0  0  0  0  0  0  0  0  0  0  0  0
   -3.2615    2.4369   -0.0000 C   0  0  0  0  0  0  0  0  0  0  0  0
    4.4185    0.0615   -0.0000 N   0  0  0  0  0  0  0  0  0  0  0  0
    4.4061    2.6461   -0.0000 C   0  0  0  0  0  0  0  0  0  0  0  0
    4.4185   -2.5354   -0.0000 C   0  0  0  0  0  0  0  0  0  0  0  0
   -4.6277   -0.3569   -0.0000 N   0  0  0  0  0  0  0  0  0  0  0  0
   -4.8246    2.3261   -0.0000 C   0  0  0  0  0  0  0  0  0  0  0  0
   -5.5261    0.9354   -0.0000 C   0  0  0  0  0  0  0  0  0  0  0  0
   -5.4769    3.6800   -0.0000 C   0  0  0  0  0  0  0  0  0  0  0  0
   -6.9169    0.6277   -0.0000 N   0  0  0  0  0  0  0  0  0  0  0  0
   -4.5784    4.8738   -0.0000 O   0  0  0  0  0  0  0  0  0  0  0  0
   -6.9661    4.0000   -0.0000 N   0  0  0  0  0  0  0  0  0  0  0  0
   -8.0861    1.5631   -0.0000 C   0  0  0  0  0  0  0  0  0  0  0  0
   -7.2738   -0.8123   -0.0000 C   0  0  0  0  0  0  0  0  0  0  0  0
   -8.1477    3.0031   -0.0000 C   0  0  0  0  0  0  0  0  0  0  0  0
   -9.3046    0.7877   -0.0000 N   0  0  0  0  0  0  0  0  0  0  0  0
   -8.7138   -1.2431   -0.0000 C   0  0  0  0  0  0  0  0  0  0  0  0
   -9.4523    3.6923   -0.0000 C   0  0  0  0  0  0  0  0  0  0  0  0
  -10.5969    1.4523   -0.0000 C   0  0  0  0  0  0  0  0  0  0  0  0
  -10.6707    2.9169   -0.0000 C   0  0  0  0  0  0  0  0  0  0  0  0
   -9.5384    5.1938   -0.0000 C   0  0  0  0  0  0  0  0  0  0  0  0
  -11.8646    0.6523   -0.0000 F   0  0  0  0  0  0  0  0  0  0  0  0
  1  2  1  0  0  0  0
  1  3  1  0  0  0  0
  2  4  2  0  0  0  0
  2  5  1  0  0  0  0
  3  6  1  0  0  0  0
  4  7  1  0  0  0  0
  5  8  2  0  0  0  0
  6  9  2  0  0  0  0
  6 10  1  0  0  0  0
  7 11  2  0  0  0  0
  7 12  1  0  0  0  0
  8 13  1  0  0  0  0
  9 14  1  0  0  0  0
 10 15  2  0  0  0  0
 14 16  2  0  0  0  0
 15 17  1  0  0  0  0
 16 18  1  0  0  0  0
 17 19  2  0  0  0  0
 17 20  1  0  0  0  0
 18 21  1  0  0  0  0
 18 22  1  0  0  0  0
 20 23  1  0  0  0  0
 21 24  1  0  0  0  0
 22 25  1  0  0  0  0
 23 26  1  0  0  0  0
 24 27  2  0  0  0  0
 26 28  2  0  0  0  0
 26 29  1  0  0  0  0
 27 30  1  0  0  0  0
  8 11  1  0  0  0  0
 15 16  1  0  0  0  0
 21 23  2  0  0  0  0
 27 28  1  0  0  0  0
M  END
>  <MolRegNo>
271877

>  <m>
=

>  <Value>
2500

>  <Unit>
nM

>  <Type>
IC50

>  <pValue>
5.6

>  <Ligand Efficiency>
0

>  <Binding Efficiency>
0

>  <Surface Efficiency>
0

>  <Assay Index>
52000

>  <Assay Category>


>  <Assay Organism>


>  <Target ID>
17045

>  <Target Name>
Cytochrome P450 3A4

>  <Target Organism>
Homo sapiens

>  <Target Description>
Target is a single protein chain

>  <Sequence Accession>
P08684

>  <Reference>
Bioorg Med Chem Lett 14 (3), 739-742 (2004)

>  <Pubmed ID>
14741280

>  <DOI>
10.1016/j.bmcl.2003.11.049

$$$$
35894
Actelion Java MolfileCreator 1.0

 43 48  0  0  0  0  0  0  0  0999 V2000
    0.0000   -0.0000   -0.0000 F   0  0  0  0  0  0  0  0  0  0  0  0
   -1.5049    0.1646   -0.0000 C   0  0  0  0  0  0  0  0  0  0  0  0
   -2.3984   -1.0228   -0.0000 C   0  0  0  0  0  0  0  0  0  0  0  0
   -2.1045    1.5401   -0.0000 C   0  0  0  0  0  0  0  0  0  0  0  0
   -1.8223   -2.3866   -0.0000 F   0  0  0  0  0  0  0  0  0  0  0  0
   -3.8915   -0.8465   -0.0000 C   0  0  0  0  0  0  0  0  0  0  0  0
   -3.6093    1.7283   -0.0000 C   0  0  0  0  0  0  0  0  0  0  0  0
   -4.4911    0.5173   -0.0000 C   0  0  0  0  0  0  0  0  0  0  0  0
   -4.2207    3.0803   -0.0000 C   0  0  0  0  0  0  0  0  0  0  0  0
   -5.7138    3.2449   -0.0000 C   0  0  0  0  0  0  0  0  0  0  0  0
   -6.3369    4.6322   -0.0000 N   0  0  0  0  0  0  0  0  0  0  0  0
   -7.8300    4.7850   -0.0000 C   0  0  0  0  0  0  0  0  0  0  0  0
   -5.4787    5.8549   -0.0000 C   0  0  0  0  0  0  0  0  0  0  0  0
   -8.4649    6.1488   -0.0000 C   0  0  0  0  0  0  0  0  0  0  0  0
   -6.1135    7.2187   -0.0000 C   0  0  0  0  0  0  0  0  0  0  0  0
   -7.6067    7.3715   -0.0000 N   0  0  0  0  0  0  0  0  0  0  0  0
   -8.2298    8.7353   -0.0000 C   0  0  0  0  0  0  0  0  0  0  0  0
   -7.3833    9.9580   -0.0000 N   0  0  0  0  0  0  0  0  0  0  0  0
   -9.7346    8.8881   -0.0000 C   0  0  0  0  0  0  0  0  0  0  0  0
   -8.0181   11.3453   -0.0000 C   0  0  0  0  0  0  0  0  0  0  0  0
  -10.8515    7.9006   -0.0000 N   0  0  0  0  0  0  0  0  0  0  0  0
  -10.3577   10.2519   -0.0000 C   0  0  0  0  0  0  0  0  0  0  0  0
   -9.4995   11.4982   -0.0000 N   0  0  0  0  0  0  0  0  0  0  0  0
  -12.1565    8.6413   -0.0000 C   0  0  0  0  0  0  0  0  0  0  0  0
  -10.8633    6.4192   -0.0000 C   0  0  0  0  0  0  0  0  0  0  0  0
  -11.8391   10.0991   -0.0000 C   0  0  0  0  0  0  0  0  0  0  0  0
  -13.4615    7.9006   -0.0000 C   0  0  0  0  0  0  0  0  0  0  0  0
  -12.1448    5.6668   -0.0000 C   0  0  0  0  0  0  0  0  0  0  0  0
  -12.8619   11.2160   -0.0000 C   0  0  0  0  0  0  0  0  0  0  0  0
  -13.4733    6.4192   -0.0000 C   0  0  0  0  0  0  0  0  0  0  0  0
  -12.4269   12.6503   -0.0000 O   0  0  0  0  0  0  0  0  0  0  0  0
  -14.3315   10.9103   -0.0000 N   0  0  0  0  0  0  0  0  0  0  0  0
  -14.7901    9.4760   -0.0000 C   0  0  0  0  0  0  0  0  0  0  0  0
  -16.2597    9.1703   -0.0000 C   0  0  0  0  0  0  0  0  0  0  0  0
  -17.2708   10.2872   -0.0000 C   0  0  0  0  0  0  0  0  0  0  0  0
  -16.7064    7.7595   -0.0000 C   0  0  0  0  0  0  0  0  0  0  0  0
  -16.8357   11.7215   -0.0000 O   0  0  0  0  0  0  0  0  0  0  0  0
  -18.7404    9.9815   -0.0000 C   0  0  0  0  0  0  0  0  0  0  0  0
  -18.1760    7.4421   -0.0000 C   0  0  0  0  0  0  0  0  0  0  0  0
  -17.8468   12.8384   -0.0000 C   0  0  0  0  0  0  0  0  0  0  0  0
  -19.7632   11.0984   -0.0000 O   0  0  0  0  0  0  0  0  0  0  0  0
  -19.1989    8.5707   -0.0000 C   0  0  0  0  0  0  0  0  0  0  0  0
  -21.2210   10.7810   -0.0000 C   0  0  0  0  0  0  0  0  0  0  0  0
  1  2  1  0  0  0  0
  2  3  2  0  0  0  0
  2  4  1  0  0  0  0
  3  5  1  0  0  0  0
  3  6  1  0  0  0  0
  4  7  2  0  0  0  0
  6  8  2  0  0  0  0
  7  9  1  0  0  0  0
  9 10  1  0  0  0  0
 10 11  1  0  0  0  0
 11 12  1  0  0  0  0
 11 13  1  0  0  0  0
 12 14  1  0  0  0  0
 13 15  1  0  0  0  0
 14 16  1  0  0  0  0
 16 17  1  0  0  0  0
 17 18  2  0  0  0  0
 17 19  1  0  0  0  0
 18 20  1  0  0  0  0
 19 21  1  0  0  0  0
 19 22  2  0  0  0  0
 20 23  2  0  0  0  0
 21 24  1  0  0  0  0
 21 25  1  0  0  0  0
 22 26  1  0  0  0  0
 24 27  1  0  0  0  0
 25 28  1  0  0  0  0
 26 29  1  0  0  0  0
 27 30  1  0  0  0  0
 29 31  2  0  0  0  0
 29 32  1  0  0  0  0
 32 33  1  0  0  0  0
 33 34  1  0  0  0  0
 34 35  2  0  0  0  0
 34 36  1  0  0  0  0
 35 37  1  0  0  0  0
 35 38  1  0  0  0  0
 36 39  2  0  0  0  0
 37 40  1  0  0  0  0
 38 41  1  0  0  0  0
 38 42  2  0  0  0  0
 41 43  1  0  0  0  0
  7  8  1  0  0  0  0
 15 16  1  0  0  0  0
 22 23  1  0  0  0  0
 24 26  2  0  0  0  0
 28 30  1  0  0  0  0
 39 42  1  0  0  0  0
M  END
>  <MolRegNo>
35894

>  <m>
=

>  <Value>
2440

>  <Unit>
nM

>  <Type>
IC50

>  <pValue>
5.61

>  <Ligand Efficiency>
0.18

>  <Binding Efficiency>
9.5

>  <Surface Efficiency>
6.62

>  <Assay Index>
103581

>  <Assay Category>


>  <Assay Organism>


>  <Target ID>
17045

>  <Target Name>
Cytochrome P450 3A4

>  <Target Organism>
Homo sapiens

>  <Target Description>
Target is a single protein chain

>  <Sequence Accession>
P08684

>  <Reference>
J Med Chem 47 (6), 1329-1338 (2004)

>  <Pubmed ID>
14998323

>  <DOI>
10.1021/jm031011g

$$$$
36037
Actelion Java MolfileCreator 1.0

 32 36  0  0  0  0  0  0  0  0999 V2000
    0.0000   -0.0000   -0.0000 F   0  0  0  0  0  0  0  0  0  0  0  0
   -1.4908    0.1775   -0.0000 C   0  0  0  0  0  0  0  0  0  0  0  0
   -2.4019   -1.0176   -0.0000 C   0  0  0  0  0  0  0  0  0  0  0  0
   -2.1061    1.5618   -0.0000 C   0  0  0  0  0  0  0  0  0  0  0  0
   -1.8103   -2.3664   -0.0000 F   0  0  0  0  0  0  0  0  0  0  0  0
   -3.8809   -0.8282   -0.0000 C   0  0  0  0  0  0  0  0  0  0  0  0
   -3.5970    1.7275   -0.0000 C   0  0  0  0  0  0  0  0  0  0  0  0
   -4.4844    0.5443   -0.0000 C   0  0  0  0  0  0  0  0  0  0  0  0
   -4.2122    3.1000   -0.0000 C   0  0  0  0  0  0  0  0  0  0  0  0
   -5.7031    3.2657   -0.0000 C   0  0  0  0  0  0  0  0  0  0  0  0
   -6.3420    4.6382   -0.0000 N   0  0  0  0  0  0  0  0  0  0  0  0
   -7.8210    4.8038   -0.0000 C   0  0  0  0  0  0  0  0  0  0  0  0
   -5.4664    5.8569   -0.0000 C   0  0  0  0  0  0  0  0  0  0  0  0
   -8.4481    6.1764   -0.0000 C   0  0  0  0  0  0  0  0  0  0  0  0
   -6.0935    7.2412   -0.0000 C   0  0  0  0  0  0  0  0  0  0  0  0
   -7.5962    7.3951   -0.0000 N   0  0  0  0  0  0  0  0  0  0  0  0
   -8.2233    8.7676   -0.0000 C   0  0  0  0  0  0  0  0  0  0  0  0
   -7.3714    9.9981   -0.0000 N   0  0  0  0  0  0  0  0  0  0  0  0
   -9.7260    8.9332   -0.0000 C   0  0  0  0  0  0  0  0  0  0  0  0
   -7.9985   11.3706   -0.0000 C   0  0  0  0  0  0  0  0  0  0  0  0
  -10.8500    7.9275   -0.0000 N   0  0  0  0  0  0  0  0  0  0  0  0
  -10.3531   10.3057   -0.0000 C   0  0  0  0  0  0  0  0  0  0  0  0
   -9.4775   11.5245   -0.0000 N   0  0  0  0  0  0  0  0  0  0  0  0
  -12.1397    8.6848   -0.0000 C   0  0  0  0  0  0  0  0  0  0  0  0
  -10.8500    6.4367   -0.0000 C   0  0  0  0  0  0  0  0  0  0  0  0
  -11.8321   10.1401   -0.0000 C   0  0  0  0  0  0  0  0  0  0  0  0
  -13.4531    7.9393   -0.0000 C   0  0  0  0  0  0  0  0  0  0  0  0
  -12.1397    5.7031   -0.0000 C   0  0  0  0  0  0  0  0  0  0  0  0
  -12.8615   11.2523   -0.0000 C   0  0  0  0  0  0  0  0  0  0  0  0
  -13.4531    6.4603   -0.0000 C   0  0  0  0  0  0  0  0  0  0  0  0
  -12.4237   12.6958   -0.0000 O   0  0  0  0  0  0  0  0  0  0  0  0
  -14.3287   10.9447   -0.0000 N   0  0  0  0  0  0  0  0  0  0  0  0
  1  2  1  0  0  0  0
  2  3  2  0  0  0  0
  2  4  1  0  0  0  0
  3  5  1  0  0  0  0
  3  6  1  0  0  0  0
  4  7  2  0  0  0  0
  6  8  2  0  0  0  0
  7  9  1  0  0  0  0
  9 10  1  0  0  0  0
 10 11  1  0  0  0  0
 11 12  1  0  0  0  0
 11 13  1  0  0  0  0
 12 14  1  0  0  0  0
 13 15  1  0  0  0  0
 14 16  1  0  0  0  0
 16 17  1  0  0  0  0
 17 18  2  0  0  0  0
 17 19  1  0  0  0  0
 18 20  1  0  0  0  0
 19 21  1  0  0  0  0
 19 22  2  0  0  0  0
 20 23  2  0  0  0  0
 21 24  1  0  0  0  0
 21 25  1  0  0  0  0
 22 26  1  0  0  0  0
 24 27  1  0  0  0  0
 25 28  1  0  0  0  0
 26 29  1  0  0  0  0
 27 30  1  0  0  0  0
 29 31  2  0  0  0  0
 29 32  1  0  0  0  0
  7  8  1  0  0  0  0
 15 16  1  0  0  0  0
 22 23  1  0  0  0  0
 24 26  2  0  0  0  0
 28 30  1  0  0  0  0
M  END
>  <MolRegNo>
36037

>  <m>
=

>  <Value>
45800

>  <Unit>
nM

>  <Type>
IC50

>  <pValue>
4.34

>  <Ligand Efficiency>
0.19

>  <Binding Efficiency>
9.85

>  <Surface Efficiency>
5.41

>  <Assay Index>
103581

>  <Assay Category>


>  <Assay Organism>


>  <Target ID>
17045

>  <Target Name>
Cytochrome P450 3A4

>  <Target Organism>
Homo sapiens

>  <Target Description>
Target is a single protein chain

>  <Sequence Accession>
P08684

>  <Reference>
J Med Chem 47 (6), 1329-1338 (2004)

>  <Pubmed ID>
14998323

>  <DOI>
10.1021/jm031011g

$$$$
35907
Actelion Java MolfileCreator 1.0

 38 43  0  0  0  0  0  0  0  0999 V2000
    0.0000   -0.0000   -0.0000 F   0  0  0  0  0  0  0  0  0  0  0  0
   -1.5117    0.1904   -0.0000 C   0  0  0  0  0  0  0  0  0  0  0  0
   -2.4044   -1.0117   -0.0000 C   0  0  0  0  0  0  0  0  0  0  0  0
   -2.1187    1.5593   -0.0000 C   0  0  0  0  0  0  0  0  0  0  0  0
   -1.8211   -2.3687   -0.0000 F   0  0  0  0  0  0  0  0  0  0  0  0
   -3.8922   -0.8213   -0.0000 C   0  0  0  0  0  0  0  0  0  0  0  0
   -3.6304    1.7378   -0.0000 C   0  0  0  0  0  0  0  0  0  0  0  0
   -4.4993    0.5475   -0.0000 C   0  0  0  0  0  0  0  0  0  0  0  0
   -4.2374    3.1066   -0.0000 C   0  0  0  0  0  0  0  0  0  0  0  0
   -5.7372    3.2733   -0.0000 C   0  0  0  0  0  0  0  0  0  0  0  0
   -6.3561    4.6540   -0.0000 N   0  0  0  0  0  0  0  0  0  0  0  0
   -5.4872    5.8800   -0.0000 C   0  0  0  0  0  0  0  0  0  0  0  0
   -7.8440    4.8207   -0.0000 C   0  0  0  0  0  0  0  0  0  0  0  0
   -6.1300    7.2488   -0.0000 C   0  0  0  0  0  0  0  0  0  0  0  0
   -8.4867    6.1895   -0.0000 C   0  0  0  0  0  0  0  0  0  0  0  0
   -7.6178    7.4036   -0.0000 N   0  0  0  0  0  0  0  0  0  0  0  0
   -8.2368    8.7962   -0.0000 C   0  0  0  0  0  0  0  0  0  0  0  0
   -7.3917   10.0103   -0.0000 N   0  0  0  0  0  0  0  0  0  0  0  0
   -9.7484    8.9390   -0.0000 C   0  0  0  0  0  0  0  0  0  0  0  0
   -8.0344   11.3791   -0.0000 C   0  0  0  0  0  0  0  0  0  0  0  0
  -10.8673    7.9511   -0.0000 N   0  0  0  0  0  0  0  0  0  0  0  0
  -10.3674   10.3079   -0.0000 C   0  0  0  0  0  0  0  0  0  0  0  0
   -9.5223   11.5458   -0.0000 N   0  0  0  0  0  0  0  0  0  0  0  0
  -12.1766    8.6891   -0.0000 C   0  0  0  0  0  0  0  0  0  0  0  0
  -10.8792    6.4513   -0.0000 C   0  0  0  0  0  0  0  0  0  0  0  0
  -11.8552   10.1650   -0.0000 C   0  0  0  0  0  0  0  0  0  0  0  0
  -13.4859    7.9511   -0.0000 C   0  0  0  0  0  0  0  0  0  0  0  0
  -12.1647    5.7015   -0.0000 C   0  0  0  0  0  0  0  0  0  0  0  0
  -12.8789   11.2720   -0.0000 C   0  0  0  0  0  0  0  0  0  0  0  0
  -13.4978    6.4633   -0.0000 C   0  0  0  0  0  0  0  0  0  0  0  0
  -12.4385   12.7123   -0.0000 O   0  0  0  0  0  0  0  0  0  0  0  0
  -14.3548   10.9625   -0.0000 N   0  0  0  0  0  0  0  0  0  0  0  0
  -14.8191    9.5461   -0.0000 C   0  0  0  0  0  0  0  0  0  0  0  0
  -16.2950    9.2485   -0.0000 C   0  0  0  0  0  0  0  0  0  0  0  0
  -13.8311    8.4748   -0.0000 C   0  0  0  0  0  0  0  0  0  0  0  0
  -16.7592    7.8321   -0.0000 N   0  0  0  0  0  0  0  0  0  0  0  0
  -14.2834    7.0584   -0.0000 C   0  0  0  0  0  0  0  0  0  0  0  0
  -15.7475    6.7489   -0.0000 C   0  0  0  0  0  0  0  0  0  0  0  0
  1  2  1  0  0  0  0
  2  3  2  0  0  0  0
  2  4  1  0  0  0  0
  3  5  1  0  0  0  0
  3  6  1  0  0  0  0
  4  7  2  0  0  0  0
  6  8  2  0  0  0  0
  7  9  1  0  0  0  0
  9 10  1  0  0  0  0
 10 11  1  0  0  0  0
 11 12  1  0  0  0  0
 11 13  1  0  0  0  0
 12 14  1  0  0  0  0
 13 15  1  0  0  0  0
 14 16  1  0  0  0  0
 16 17  1  0  0  0  0
 17 18  2  0  0  0  0
 17 19  1  0  0  0  0
 18 20  1  0  0  0  0
 19 21  1  0  0  0  0
 19 22  2  0  0  0  0
 20 23  2  0  0  0  0
 21 24  1  0  0  0  0
 21 25  1  0  0  0  0
 22 26  1  0  0  0  0
 24 27  1  0  0  0  0
 25 28  1  0  0  0  0
 26 29  1  0  0  0  0
 27 30  1  0  0  0  0
 29 31  2  0  0  0  0
 29 32  1  0  0  0  0
 32 33  1  0  0  0  0
 33 34  2  0  0  0  0
 33 35  1  0  0  0  0
 34 36  1  0  0  0  0
 35 37  2  0  0  0  0
 36 38  2  0  0  0  0
  7  8  1  0  0  0  0
 15 16  1  0  0  0  0
 22 23  1  0  0  0  0
 24 26  2  0  0  0  0
 28 30  1  0  0  0  0
 37 38  1  0  0  0  0
M  END
>  <MolRegNo>
35907

>  <m>
=

>  <Value>
9730

>  <Unit>
nM

>  <Type>
IC50

>  <pValue>
5.01

>  <Ligand Efficiency>
0.18

>  <Binding Efficiency>
9.68

>  <Surface Efficiency>
6.33

>  <Assay Index>
103581

>  <Assay Category>


>  <Assay Organism>


>  <Target ID>
17045

>  <Target Name>
Cytochrome P450 3A4

>  <Target Organism>
Homo sapiens

>  <Target Description>
Target is a single protein chain

>  <Sequence Accession>
P08684

>  <Reference>
J Med Chem 47 (6), 1329-1338 (2004)

>  <Pubmed ID>
14998323

>  <DOI>
10.1021/jm031011g

$$$$
65605
Actelion Java MolfileCreator 1.0

 34 38  0  0  0  0  0  0  0  0999 V2000
    0.0000   -0.0000   -0.0000 F   0  0  0  0  0  0  0  0  0  0  0  0
    0.9318    1.1588   -0.0000 C   0  0  0  0  0  0  0  0  0  0  0  0
    0.4181    2.5446   -0.0000 C   0  0  0  0  0  0  0  0  0  0  0  0
    2.4370    0.9079   -0.0000 C   0  0  0  0  0  0  0  0  0  0  0  0
    1.3738    3.7392   -0.0000 C   0  0  0  0  0  0  0  0  0  0  0  0
    3.3927    2.0428   -0.0000 C   0  0  0  0  0  0  0  0  0  0  0  0
    2.8552    3.5003   -0.0000 C   0  0  0  0  0  0  0  0  0  0  0  0
    3.7511    4.6352   -0.0000 C   0  0  0  0  0  0  0  0  0  0  0  0
    3.1777    6.0807   -0.0000 N   0  0  0  0  0  0  0  0  0  0  0  0
    4.0140    7.3350   -0.0000 C   0  0  0  0  0  0  0  0  0  0  0  0
    1.6964    6.5346   -0.0000 C   0  0  0  0  0  0  0  0  0  0  0  0
    3.1180    8.5416   -0.0000 N   0  0  0  0  0  0  0  0  0  0  0  0
    5.4953    7.3709   -0.0000 N   0  0  0  0  0  0  0  0  0  0  0  0
    1.6844    8.0160   -0.0000 C   0  0  0  0  0  0  0  0  0  0  0  0
    0.3703    5.7701   -0.0000 C   0  0  0  0  0  0  0  0  0  0  0  0
    6.2599    6.1165   -0.0000 C   0  0  0  0  0  0  0  0  0  0  0  0
    0.3464    8.8044   -0.0000 C   0  0  0  0  0  0  0  0  0  0  0  0
   -0.8960    6.4749   -0.0000 C   0  0  0  0  0  0  0  0  0  0  0  0
    5.5789    4.8382   -0.0000 C   0  0  0  0  0  0  0  0  0  0  0  0
    7.7651    6.1762   -0.0000 C   0  0  0  0  0  0  0  0  0  0  0  0
   -0.9557    8.0399   -0.0000 C   0  0  0  0  0  0  0  0  0  0  0  0
    6.3674    3.5480   -0.0000 C   0  0  0  0  0  0  0  0  0  0  0  0
    8.4938    4.8980   -0.0000 C   0  0  0  0  0  0  0  0  0  0  0  0
    7.8009    3.6317   -0.0000 N   0  0  0  0  0  0  0  0  0  0  0  0
    8.5894    2.3534   -0.0000 C   0  0  0  0  0  0  0  0  0  0  0  0
    7.8726    1.0513   -0.0000 C   0  0  0  0  0  0  0  0  0  0  0  0
    8.7088   -0.2509   -0.0000 C   0  0  0  0  0  0  0  0  0  0  0  0
    7.8965   -1.6127   -0.0000 C   0  0  0  0  0  0  0  0  0  0  0  0
   10.1066   -0.1911   -0.0000 C   0  0  0  0  0  0  0  0  0  0  0  0
    8.6850   -2.8313   -0.0000 C   0  0  0  0  0  0  0  0  0  0  0  0
   10.9189   -1.4933   -0.0000 C   0  0  0  0  0  0  0  0  0  0  0  0
   10.1185   -2.7835   -0.0000 C   0  0  0  0  0  0  0  0  0  0  0  0
   10.9667   -4.0856   -0.0000 O   0  0  0  0  0  0  0  0  0  0  0  0
   10.2380   -5.3758   -0.0000 C   0  0  0  0  0  0  0  0  0  0  0  0
  1  2  1  0  0  0  0
  2  3  2  0  0  0  0
  2  4  1  0  0  0  0
  3  5  1  0  0  0  0
  4  6  2  0  0  0  0
  5  7  2  0  0  0  0
  7  8  1  0  0  0  0
  8  9  1  0  0  0  0
  9 10  1  0  0  0  0
  9 11  1  0  0  0  0
 10 12  2  0  0  0  0
 10 13  1  0  0  0  0
 11 14  2  0  0  0  0
 11 15  1  0  0  0  0
 13 16  1  0  0  0  0
 14 17  1  0  0  0  0
 15 18  2  0  0  0  0
 16 19  1  0  0  0  0
 16 20  1  0  0  0  0
 17 21  2  0  0  0  0
 19 22  1  0  0  0  0
 20 23  1  0  0  0  0
 22 24  1  0  0  0  0
 24 25  1  0  0  0  0
 25 26  1  0  0  0  0
 26 27  1  0  0  0  0
 27 28  2  0  0  0  0
 27 29  1  0  0  0  0
 28 30  1  0  0  0  0
 29 31  2  0  0  0  0
 30 32  2  0  0  0  0
 32 33  1  0  0  0  0
 33 34  1  0  0  0  0
  6  7  1  0  0  0  0
 12 14  1  0  0  0  0
 18 21  1  0  0  0  0
 23 24  1  0  0  0  0
 31 32  1  0  0  0  0
M  END
>  <MolRegNo>
65605

>  <m>
=

>  <Value>
3300

>  <Unit>
nM

>  <Type>
IC50

>  <pValue>
5.48

>  <Ligand Efficiency>
0

>  <Binding Efficiency>
0

>  <Surface Efficiency>
0

>  <Assay Index>
51979

>  <Assay Category>


>  <Assay Organism>


>  <Target ID>
17045

>  <Target Name>
Cytochrome P450 3A4

>  <Target Organism>
Homo sapiens

>  <Target Description>
Target is a single protein chain

>  <Sequence Accession>
P08684

>  <Reference>
J Med Chem 46 (9), 1716-1725 (2003)

>  <Pubmed ID>
12699389

>  <DOI>
10.1021/jm021012t

$$$$
255904
Actelion Java MolfileCreator 1.0

 36 40  0  0  0  0  0  0  0  0999 V2000
    0.0000   -0.0000   -0.0000 Cl  0  0  0  0  0  0  0  0  0  0  0  0
    0.6031    1.3836   -0.0000 C   0  0  0  0  0  0  0  0  0  0  0  0
    2.0812    1.5491   -0.0000 C   0  0  0  0  0  0  0  0  0  0  0  0
   -0.2956    2.6134   -0.0000 C   0  0  0  0  0  0  0  0  0  0  0  0
    2.6843    2.9327   -0.0000 C   0  0  0  0  0  0  0  0  0  0  0  0
    2.9563    0.3429   -0.0000 C   0  0  0  0  0  0  0  0  0  0  0  0
    0.3075    3.9969   -0.0000 C   0  0  0  0  0  0  0  0  0  0  0  0
    1.7856    4.1625   -0.0000 C   0  0  0  0  0  0  0  0  0  0  0  0
    4.0561    1.3599   -0.0000 O   0  0  0  0  0  0  0  0  0  0  0  0
    3.5594   -1.0170   -0.0000 O   0  0  0  0  0  0  0  0  0  0  0  0
    1.6437   -0.4021   -0.0000 C   0  0  0  0  0  0  0  0  0  0  0  0
   -0.5913    5.2268   -0.0000 Cl  0  0  0  0  0  0  0  0  0  0  0  0
    5.3450    0.6149   -0.0000 C   0  0  0  0  0  0  0  0  0  0  0  0
    5.0376   -0.8514   -0.0000 C   0  0  0  0  0  0  0  0  0  0  0  0
    1.6319   -1.8920   -0.0000 N   0  0  0  0  0  0  0  0  0  0  0  0
    6.7049    1.2417   -0.0000 C   0  0  0  0  0  0  0  0  0  0  0  0
    0.4021   -2.7671   -0.0000 C   0  0  0  0  0  0  0  0  0  0  0  0
    2.8381   -2.7671   -0.0000 C   0  0  0  0  0  0  0  0  0  0  0  0
    6.8468    2.7435   -0.0000 O   0  0  0  0  0  0  0  0  0  0  0  0
    0.8514   -4.1861   -0.0000 N   0  0  0  0  0  0  0  0  0  0  0  0
    2.3651   -4.1861   -0.0000 C   0  0  0  0  0  0  0  0  0  0  0  0
    8.2067    3.3702   -0.0000 C   0  0  0  0  0  0  0  0  0  0  0  0
    8.3486    4.8720   -0.0000 C   0  0  0  0  0  0  0  0  0  0  0  0
    9.4129    2.4951   -0.0000 C   0  0  0  0  0  0  0  0  0  0  0  0
    9.7085    5.4987   -0.0000 C   0  0  0  0  0  0  0  0  0  0  0  0
   10.7728    3.1219   -0.0000 C   0  0  0  0  0  0  0  0  0  0  0  0
   10.9147    4.6237   -0.0000 C   0  0  0  0  0  0  0  0  0  0  0  0
   12.2746    5.2504   -0.0000 N   0  0  0  0  0  0  0  0  0  0  0  0
   13.4808    4.3753   -0.0000 C   0  0  0  0  0  0  0  0  0  0  0  0
   12.4165    6.7522   -0.0000 C   0  0  0  0  0  0  0  0  0  0  0  0
   14.8407    5.0021   -0.0000 C   0  0  0  0  0  0  0  0  0  0  0  0
   13.7764    7.3790   -0.0000 C   0  0  0  0  0  0  0  0  0  0  0  0
   14.9826    6.5039   -0.0000 N   0  0  0  0  0  0  0  0  0  0  0  0
   16.3425    7.1306   -0.0000 C   0  0  0  0  0  0  0  0  0  0  0  0
   16.4844    8.6324   -0.0000 O   0  0  0  0  0  0  0  0  0  0  0  0
   17.5487    6.2556   -0.0000 C   0  0  0  0  0  0  0  0  0  0  0  0
  1  2  1  0  0  0  0
  2  3  2  0  0  0  0
  2  4  1  0  0  0  0
  3  5  1  0  0  0  0
  3  6  1  0  0  0  0
  4  7  2  0  0  0  0
  5  8  2  0  0  0  0
  6  9  1  0  0  0  0
  6 10  1  0  0  0  0
  6 11  1  0  0  0  0
  7 12  1  0  0  0  0
  9 13  1  0  0  0  0
 10 14  1  0  0  0  0
 11 15  1  0  0  0  0
 13 16  1  0  0  0  0
 15 17  1  0  0  0  0
 15 18  1  0  0  0  0
 16 19  1  0  0  0  0
 17 20  2  0  0  0  0
 18 21  2  0  0  0  0
 19 22  1  0  0  0  0
 22 23  2  0  0  0  0
 22 24  1  0  0  0  0
 23 25  1  0  0  0  0
 24 26  2  0  0  0  0
 25 27  2  0  0  0  0
 27 28  1  0  0  0  0
 28 29  1  0  0  0  0
 28 30  1  0  0  0  0
 29 31  1  0  0  0  0
 30 32  1  0  0  0  0
 31 33  1  0  0  0  0
 33 34  1  0  0  0  0
 34 35  2  0  0  0  0
 34 36  1  0  0  0  0
  7  8  1  0  0  0  0
 13 14  1  0  0  0  0
 20 21  1  0  0  0  0
 26 27  1  0  0  0  0
 32 33  1  0  0  0  0
M  END
>  <MolRegNo>
255904

>  <m>
=

>  <Value>
50

>  <Unit>
nM

>  <Type>
IC50

>  <pValue>
7.3

>  <Ligand Efficiency>
0

>  <Binding Efficiency>
0

>  <Surface Efficiency>
0

>  <Assay Index>
51979

>  <Assay Category>


>  <Assay Organism>


>  <Target ID>
17045

>  <Target Name>
Cytochrome P450 3A4

>  <Target Organism>
Homo sapiens

>  <Target Description>
Target is a single protein chain

>  <Sequence Accession>
P08684

>  <Reference>
J Med Chem 46 (9), 1716-1725 (2003)

>  <Pubmed ID>
12699389

>  <DOI>
10.1021/jm021012t

$$$$
1219
Actelion Java MolfileCreator 1.0

 33 34  0  0  0  0  0  0  0  0999 V2000
    0.0000   -0.0000   -0.0000 O   0  0  0  0  0  0  0  0  0  0  0  0
    1.2468    0.7823   -0.0000 C   0  0  0  0  0  0  0  0  0  0  0  0
   -1.3445    0.7334   -0.0000 C   0  0  0  0  0  0  0  0  0  0  0  0
    1.2101    2.2857   -0.0000 C   0  0  0  0  0  0  0  0  0  0  0  0
    2.5424    0.0733   -0.0000 C   0  0  0  0  0  0  0  0  0  0  0  0
   -0.0856    3.0436   -0.0000 O   0  0  0  0  0  0  0  0  0  0  0  0
    2.5057    3.0558   -0.0000 C   0  0  0  0  0  0  0  0  0  0  0  0
    3.7892    0.8434   -0.0000 C   0  0  0  0  0  0  0  0  0  0  0  0
   -1.3812    2.3102   -0.0000 C   0  0  0  0  0  0  0  0  0  0  0  0
    3.7769    2.3224   -0.0000 C   0  0  0  0  0  0  0  0  0  0  0  0
    5.1215    0.0856   -0.0000 C   0  0  0  0  0  0  0  0  0  0  0  0
    4.0092   -0.9901   -0.0000 C   0  0  0  0  0  0  0  0  0  0  0  0
    6.1971   -0.9901   -0.0000 C   0  0  0  0  0  0  0  0  0  0  0  0
    6.3927    0.8678   -0.0000 C   0  0  0  0  0  0  0  0  0  0  0  0
    2.8969   -2.0779   -0.0000 N   0  0  0  0  0  0  0  0  0  0  0  0
    7.6761   -0.5867   -0.0000 C   0  0  0  0  0  0  0  0  0  0  0  0
    5.7938   -2.4691   -0.0000 C   0  0  0  0  0  0  0  0  0  0  0  0
    7.8228    0.0856   -0.0000 C   0  0  0  0  0  0  0  0  0  0  0  0
    8.9595    0.9534   -0.0000 C   0  0  0  0  0  0  0  0  0  0  0  0
   10.2430    0.2811   -0.0000 N   0  0  0  0  0  0  0  0  0  0  0  0
   11.5142    1.0512   -0.0000 C   0  0  0  0  0  0  0  0  0  0  0  0
   10.2307   -1.2590   -0.0000 C   0  0  0  0  0  0  0  0  0  0  0  0
   12.8098    0.3178   -0.0000 C   0  0  0  0  0  0  0  0  0  0  0  0
   14.1055    1.1245   -0.0000 C   0  0  0  0  0  0  0  0  0  0  0  0
   15.3889    0.4278   -0.0000 C   0  0  0  0  0  0  0  0  0  0  0  0
   14.0932    2.6402   -0.0000 C   0  0  0  0  0  0  0  0  0  0  0  0
   16.6601    1.2345   -0.0000 C   0  0  0  0  0  0  0  0  0  0  0  0
   15.3400    3.4225   -0.0000 C   0  0  0  0  0  0  0  0  0  0  0  0
   17.9802    0.5256   -0.0000 O   0  0  0  0  0  0  0  0  0  0  0  0
   16.6234    2.7135   -0.0000 C   0  0  0  0  0  0  0  0  0  0  0  0
   19.2269    1.3445   -0.0000 C   0  0  0  0  0  0  0  0  0  0  0  0
   17.8946    3.5447   -0.0000 O   0  0  0  0  0  0  0  0  0  0  0  0
   19.1658    2.8847   -0.0000 C   0  0  0  0  0  0  0  0  0  0  0  0
  1  2  1  0  0  0  0
  1  3  1  0  0  0  0
  2  4  2  0  0  0  0
  2  5  1  0  0  0  0
  4  6  1  0  0  0  0
  4  7  1  0  0  0  0
  5  8  2  0  0  0  0
  6  9  1  0  0  0  0
  7 10  2  0  0  0  0
  8 11  1  0  0  0  0
 11 12  1  0  0  0  0
 11 13  1  0  0  0  0
 11 14  1  0  0  0  0
 12 15  3  0  0  0  0
 13 16  1  0  0  0  0
 13 17  1  0  0  0  0
 14 18  1  0  0  0  0
 18 19  1  0  0  0  0
 19 20  1  0  0  0  0
 20 21  1  0  0  0  0
 20 22  1  0  0  0  0
 21 23  1  0  0  0  0
 23 24  1  0  0  0  0
 24 25  2  0  0  0  0
 24 26  1  0  0  0  0
 25 27  1  0  0  0  0
 26 28  2  0  0  0  0
 27 29  1  0  0  0  0
 27 30  2  0  0  0  0
 29 31  1  0  0  0  0
 30 32  1  0  0  0  0
 32 33  1  0  0  0  0
  8 10  1  0  0  0  0
 28 30  1  0  0  0  0
M  END
>  <MolRegNo>
1219

>  <m>
=

>  <Value>
4700

>  <Unit>
nM

>  <Type>
IC50

>  <pValue>
5.33

>  <Ligand Efficiency>
0

>  <Binding Efficiency>
0

>  <Surface Efficiency>
0

>  <Assay Index>
51979

>  <Assay Category>


>  <Assay Organism>


>  <Target ID>
17045

>  <Target Name>
Cytochrome P450 3A4

>  <Target Organism>
Homo sapiens

>  <Target Description>
Target is a single protein chain

>  <Sequence Accession>
P08684

>  <Reference>
J Med Chem 46 (9), 1716-1725 (2003)

>  <Pubmed ID>
12699389

>  <DOI>
10.1021/jm021012t

$$$$
407549
Actelion Java MolfileCreator 1.0

 35 37  0  0  0  0  0  0  0  0999 V2000
    0.0000   -0.0000   -0.0000 O   0  0  0  0  0  0  0  0  0  0  0  0
   -1.0376   -0.5671   -0.0000 N   0  0  0  0  0  0  0  0  0  0  0  0
   -1.0738   -2.0874   -0.0000 O   0  0  0  0  0  0  0  0  0  0  0  0
   -2.4493    0.2172   -0.0000 C   0  0  0  0  0  0  0  0  0  0  0  0
   -2.4373    1.7495   -0.0000 C   0  0  0  0  0  0  0  0  0  0  0  0
   -3.7283   -0.5430   -0.0000 C   0  0  0  0  0  0  0  0  0  0  0  0
   -3.7404    2.4855   -0.0000 C   0  0  0  0  0  0  0  0  0  0  0  0
   -5.0435    0.2413   -0.0000 C   0  0  0  0  0  0  0  0  0  0  0  0
   -5.0555    1.7616   -0.0000 C   0  0  0  0  0  0  0  0  0  0  0  0
   -3.7524    3.9937   -0.0000 C   0  0  0  0  0  0  0  0  0  0  0  0
   -2.4735    4.7780   -0.0000 C   0  0  0  0  0  0  0  0  0  0  0  0
   -5.0676    4.7418   -0.0000 C   0  0  0  0  0  0  0  0  0  0  0  0
   -2.4855    6.2983   -0.0000 C   0  0  0  0  0  0  0  0  0  0  0  0
   -1.1100    4.0179   -0.0000 C   0  0  0  0  0  0  0  0  0  0  0  0
   -5.0797    6.2862   -0.0000 C   0  0  0  0  0  0  0  0  0  0  0  0
   -6.3707    3.9937   -0.0000 C   0  0  0  0  0  0  0  0  0  0  0  0
   -3.7886    7.0705   -0.0000 N   0  0  0  0  0  0  0  0  0  0  0  0
   -1.1824    7.1067   -0.0000 C   0  0  0  0  0  0  0  0  0  0  0  0
   -1.1462    2.5338   -0.0000 O   0  0  0  0  0  0  0  0  0  0  0  0
    0.1207    4.8263   -0.0000 O   0  0  0  0  0  0  0  0  0  0  0  0
   -6.4431    7.0946   -0.0000 C   0  0  0  0  0  0  0  0  0  0  0  0
   -6.4069    2.4976   -0.0000 O   0  0  0  0  0  0  0  0  0  0  0  0
   -7.6858    4.7418   -0.0000 O   0  0  0  0  0  0  0  0  0  0  0  0
    1.4599    4.1265   -0.0000 C   0  0  0  0  0  0  0  0  0  0  0  0
   -8.9889    4.0420   -0.0000 C   0  0  0  0  0  0  0  0  0  0  0  0
    2.7389    4.9107   -0.0000 C   0  0  0  0  0  0  0  0  0  0  0  0
    4.0420    4.2109   -0.0000 N   0  0  0  0  0  0  0  0  0  0  0  0
    5.3330    5.0314   -0.0000 C   0  0  0  0  0  0  0  0  0  0  0  0
    4.0299    2.7389   -0.0000 C   0  0  0  0  0  0  0  0  0  0  0  0
    6.6361    4.3437   -0.0000 C   0  0  0  0  0  0  0  0  0  0  0  0
    6.6482    2.8354   -0.0000 C   0  0  0  0  0  0  0  0  0  0  0  0
    7.9030    5.1159   -0.0000 C   0  0  0  0  0  0  0  0  0  0  0  0
    7.9151    2.1115   -0.0000 C   0  0  0  0  0  0  0  0  0  0  0  0
    9.1820    4.4160   -0.0000 C   0  0  0  0  0  0  0  0  0  0  0  0
    9.1941    2.9440   -0.0000 C   0  0  0  0  0  0  0  0  0  0  0  0
  1  2  2  0  0  0  0
  2  3  1  0  0  0  0
  2  4  1  0  0  0  0
  4  5  2  0  0  0  0
  4  6  1  0  0  0  0
  5  7  1  0  0  0  0
  6  8  2  0  0  0  0
  7  9  2  0  0  0  0
  7 10  1  0  0  0  0
 10 11  1  0  0  0  0
 10 12  1  0  0  0  0
 11 13  2  0  0  0  0
 11 14  1  0  0  0  0
 12 15  2  0  0  0  0
 12 16  1  0  0  0  0
 13 17  1  0  0  0  0
 13 18  1  0  0  0  0
 14 19  2  0  0  0  0
 14 20  1  0  0  0  0
 15 21  1  0  0  0  0
 16 22  2  0  0  0  0
 16 23  1  0  0  0  0
 20 24  1  0  0  0  0
 23 25  1  0  0  0  0
 24 26  1  0  0  0  0
 26 27  1  0  0  0  0
 27 28  1  0  0  0  0
 27 29  1  0  0  0  0
 28 30  1  0  0  0  0
 30 31  2  0  0  0  0
 30 32  1  0  0  0  0
 31 33  1  0  0  0  0
 32 34  2  0  0  0  0
 33 35  2  0  0  0  0
  8  9  1  0  0  0  0
 15 17  1  0  0  0  0
 34 35  1  0  0  0  0
M  CHG  2   2   1   3  -1
M  END
>  <MolRegNo>
407549

>  <m>
=

>  <Value>
420

>  <Unit>
nM

>  <Type>
IC50

>  <pValue>
6.38

>  <Ligand Efficiency>
0

>  <Binding Efficiency>
0

>  <Surface Efficiency>
0

>  <Assay Index>
51979

>  <Assay Category>


>  <Assay Organism>


>  <Target ID>
17045

>  <Target Name>
Cytochrome P450 3A4

>  <Target Organism>
Homo sapiens

>  <Target Description>
Target is a single protein chain

>  <Sequence Accession>
P08684

>  <Reference>
J Med Chem 46 (9), 1716-1725 (2003)

>  <Pubmed ID>
12699389

>  <DOI>
10.1021/jm021012t

$$$$
160276
Actelion Java MolfileCreator 1.0

 25 27  0  0  1  0  0  0  0  0999 V2000
    0.0000   -0.0000   -0.0000 O   0  0  0  0  0  0  0  0  0  0  0  0
    0.0000   -1.4909   -0.0000 C   0  0  0  0  0  0  0  0  0  0  0  0
    1.2881   -2.2184   -0.0000 N   0  0  0  0  0  0  0  0  0  0  0  0
   -1.3120   -2.2304   -0.0000 C   0  0  0  0  0  0  0  0  0  0  0  0
    2.5762   -1.4551   -0.0000 C   0  0  0  0  0  0  0  0  0  0  0  0
   -2.6359   -1.4790   -0.0000 C   0  0  0  0  0  0  0  0  0  0  0  0
    3.8644   -2.1946   -0.0000 C   0  0  0  0  0  0  0  0  0  0  0  0
    2.5524    0.0596   -0.0000 C   0  0  0  0  0  0  0  0  0  0  0  0
   -3.9478   -2.2184   -0.0000 C   0  0  0  0  0  0  0  0  0  0  0  0
    5.1406   -1.4193   -0.0000 C   0  0  0  0  0  0  0  0  0  0  0  0
    3.8524   -3.6855   -0.0000 C   0  0  0  0  0  0  0  0  0  0  0  0
   -5.2598   -1.4551   -0.0000 C   0  0  0  0  0  0  0  0  0  0  0  0
   -3.9598   -3.7212   -0.0000 C   0  0  0  0  0  0  0  0  0  0  0  0
    6.4287   -2.1469   -0.0000 C   0  0  0  0  0  0  0  0  0  0  0  0
    5.1406   -4.4130   -0.0000 C   0  0  0  0  0  0  0  0  0  0  0  0
   -6.5718   -2.2065   -0.0000 C   0  0  0  0  0  0  0  0  0  0  0  0
   -5.2717   -4.4607   -0.0000 C   0  0  0  0  0  0  0  0  0  0  0  0
    7.7168   -1.3835   -0.0000 N   0  0  0  0  0  0  0  0  0  0  0  0
    6.4287   -3.6377   -0.0000 C   0  0  0  0  0  0  0  0  0  0  0  0
   -6.5837   -3.6974   -0.0000 C   0  0  0  0  0  0  0  0  0  0  0  0
    9.0049   -2.1111   -0.0000 C   0  0  0  0  0  0  0  0  0  0  0  0
    7.6810    0.1312   -0.0000 C   0  0  0  0  0  0  0  0  0  0  0  0
   10.2930   -1.3478   -0.0000 C   0  0  0  0  0  0  0  0  0  0  0  0
    8.9811    0.9065   -0.0000 C   0  0  0  0  0  0  0  0  0  0  0  0
   10.2811    0.1670   -0.0000 O   0  0  0  0  0  0  0  0  0  0  0  0
  1  2  2  0  0  0  0
  2  3  1  0  0  0  0
  2  4  1  0  0  0  0
  5  3  1  1  0  0  0
  4  6  2  0  0  0  0
  5  7  1  0  0  0  0
  5  8  1  0  0  0  0
  6  9  1  0  0  0  0
  7 10  2  0  0  0  0
  7 11  1  0  0  0  0
  9 12  2  0  0  0  0
  9 13  1  0  0  0  0
 10 14  1  0  0  0  0
 11 15  2  0  0  0  0
 12 16  1  0  0  0  0
 13 17  2  0  0  0  0
 14 18  1  0  0  0  0
 14 19  2  0  0  0  0
 16 20  2  0  0  0  0
 18 21  1  0  0  0  0
 18 22  1  0  0  0  0
 21 23  1  0  0  0  0
 22 24  1  0  0  0  0
 23 25  1  0  0  0  0
 15 19  1  0  0  0  0
 17 20  1  0  0  0  0
 24 25  1  0  0  0  0
M  END
>  <MolRegNo>
160276

>  <m>
=

>  <Value>
27000

>  <Unit>
nM

>  <Type>
IC50

>  <pValue>
4.57

>  <Ligand Efficiency>
0

>  <Binding Efficiency>
0

>  <Surface Efficiency>
0

>  <Assay Index>
51834

>  <Assay Category>


>  <Assay Organism>
Homo sapiens

>  <Target ID>
17045

>  <Target Name>
Cytochrome P450 3A4

>  <Target Organism>
Homo sapiens

>  <Target Description>
Target is a single protein chain

>  <Sequence Accession>
P08684

>  <Reference>
J Med Chem 46 (18), 3778-3781 (2003)

>  <Pubmed ID>
12930139

>  <DOI>
10.1021/jm034111v

$$$$
17224
Actelion Java MolfileCreator 1.0

 40 43  0  0  1  0  0  0  0  0999 V2000
    0.0000   -0.0000   -0.0000 S   0  0  0  0  0  0  0  0  0  0  0  0
   -0.0127    1.4954   -0.0000 C   0  0  0  0  0  0  0  0  0  0  0  0
   -1.2547   -0.7604   -0.0000 C   0  0  0  0  0  0  0  0  0  0  0  0
    1.1913    2.2812   -0.0000 C   0  0  0  0  0  0  0  0  0  0  0  0
   -1.2800    2.2812   -0.0000 C   0  0  0  0  0  0  0  0  0  0  0  0
   -1.2673   -2.2178   -0.0000 C   0  0  0  0  0  0  0  0  0  0  0  0
    1.1786    3.7006   -0.0000 C   0  0  0  0  0  0  0  0  0  0  0  0
   -1.2927    3.7006   -0.0000 C   0  0  0  0  0  0  0  0  0  0  0  0
   -2.6107   -2.9402   -0.0000 N   0  0  0  0  0  0  0  0  0  0  0  0
    0.0380   -2.9402   -0.0000 C   0  0  0  0  0  0  0  0  0  0  0  0
   -0.0507    4.4610   -0.0000 C   0  0  0  0  0  0  0  0  0  0  0  0
   -3.9794   -2.1925   -0.0000 C   0  0  0  0  0  0  0  0  0  0  0  0
    0.0253   -4.4483   -0.0000 O   0  0  0  0  0  0  0  0  0  0  0  0
    1.2800   -2.1925   -0.0000 C   0  0  0  0  0  0  0  0  0  0  0  0
   -3.9921   -0.6717   -0.0000 O   0  0  0  0  0  0  0  0  0  0  0  0
   -5.3735   -2.9402   -0.0000 C   0  0  0  0  0  0  0  0  0  0  0  0
    2.5093   -2.9149   -0.0000 N   0  0  0  0  0  0  0  0  0  0  0  0
   -6.7422   -2.1671   -0.0000 C   0  0  0  0  0  0  0  0  0  0  0  0
   -5.3862   -4.4737   -0.0000 C   0  0  0  0  0  0  0  0  0  0  0  0
    3.8527   -2.1038   -0.0000 C   0  0  0  0  0  0  0  0  0  0  0  0
    2.4713   -4.3723   -0.0000 C   0  0  0  0  0  0  0  0  0  0  0  0
   -8.0856   -2.9149   -0.0000 C   0  0  0  0  0  0  0  0  0  0  0  0
   -6.7549   -0.6844   -0.0000 C   0  0  0  0  0  0  0  0  0  0  0  0
   -6.7549   -5.2721   -0.0000 C   0  0  0  0  0  0  0  0  0  0  0  0
    3.8400   -0.4816   -0.0000 C   0  0  0  0  0  0  0  0  0  0  0  0
    5.0820   -2.8895   -0.0000 C   0  0  0  0  0  0  0  0  0  0  0  0
    3.8147   -5.1580   -0.0000 C   0  0  0  0  0  0  0  0  0  0  0  0
   -9.4416   -2.1418   -0.0000 O   0  0  0  0  0  0  0  0  0  0  0  0
   -8.0982   -4.4483   -0.0000 C   0  0  0  0  0  0  0  0  0  0  0  0
    2.5220    0.2788   -0.0000 O   0  0  0  0  0  0  0  0  0  0  0  0
    5.0440    0.2788   -0.0000 N   0  0  0  0  0  0  0  0  0  0  0  0
    5.0693   -4.3723   -0.0000 C   0  0  0  0  0  0  0  0  0  0  0  0
    3.8020   -6.6535   -0.0000 C   0  0  0  0  0  0  0  0  0  0  0  0
    6.2733   -0.3929   -0.0000 C   0  0  0  0  0  0  0  0  0  0  0  0
    6.4000   -5.0820   -0.0000 C   0  0  0  0  0  0  0  0  0  0  0  0
    5.1073   -7.3885   -0.0000 C   0  0  0  0  0  0  0  0  0  0  0  0
    7.0083   -1.6855   -0.0000 C   0  0  0  0  0  0  0  0  0  0  0  0
    7.5660    0.3042   -0.0000 C   0  0  0  0  0  0  0  0  0  0  0  0
    5.5129   -1.6855   -0.0000 C   0  0  0  0  0  0  0  0  0  0  0  0
    6.3873   -6.6281   -0.0000 C   0  0  0  0  0  0  0  0  0  0  0  0
  1  2  1  0  0  0  0
  1  3  1  0  0  0  0
  2  4  2  0  0  0  0
  2  5  1  0  0  0  0
  3  6  1  0  0  0  0
  4  7  1  0  0  0  0
  5  8  2  0  0  0  0
  6  9  1  1  0  0  0
  6 10  1  0  0  0  0
  7 11  2  0  0  0  0
  9 12  1  0  0  0  0
 10 13  1  1  0  0  0
 10 14  1  0  0  0  0
 12 15  2  0  0  0  0
 12 16  1  0  0  0  0
 14 17  1  0  0  0  0
 16 18  2  0  0  0  0
 16 19  1  0  0  0  0
 17 20  1  0  0  0  0
 17 21  1  0  0  0  0
 18 22  1  0  0  0  0
 18 23  1  0  0  0  0
 19 24  2  0  0  0  0
 20 25  1  6  0  0  0
 20 26  1  0  0  0  0
 27 21  1  6  0  0  0
 22 28  1  0  0  0  0
 22 29  2  0  0  0  0
 25 30  2  0  0  0  0
 25 31  1  0  0  0  0
 32 26  1  6  0  0  0
 27 33  1  0  0  0  0
 31 34  1  0  0  0  0
 32 35  1  0  0  0  0
 33 36  1  0  0  0  0
 34 37  1  0  0  0  0
 34 38  1  0  0  0  0
 34 39  1  0  0  0  0
 35 40  1  0  0  0  0
  8 11  1  0  0  0  0
 24 29  1  0  0  0  0
 27 32  1  0  0  0  0
 36 40  1  0  0  0  0
M  END
>  <MolRegNo>
17224

>  <m>
=

>  <Value>
550

>  <Unit>
nM

>  <Type>
IC50

>  <pValue>
6.26

>  <Ligand Efficiency>
0

>  <Binding Efficiency>
0

>  <Surface Efficiency>
0

>  <Assay Index>
51979

>  <Assay Category>


>  <Assay Organism>


>  <Target ID>
17045

>  <Target Name>
Cytochrome P450 3A4

>  <Target Organism>
Homo sapiens

>  <Target Description>
Target is a single protein chain

>  <Sequence Accession>
P08684

>  <Reference>
J Med Chem 46 (9), 1716-1725 (2003)

>  <Pubmed ID>
12699389

>  <DOI>
10.1021/jm021012t

$$$$
1620
Actelion Java MolfileCreator 1.0

 17 17  0  0  0  0  0  0  0  0999 V2000
    0.0000   -0.0000   -0.0000 S   0  0  0  0  0  0  0  0  0  0  0  0
    1.2356   -0.6598   -0.0000 C   0  0  0  0  0  0  0  0  0  0  0  0
   -1.3556   -0.6478   -0.0000 C   0  0  0  0  0  0  0  0  0  0  0  0
    2.5672   -0.0360   -0.0000 C   0  0  0  0  0  0  0  0  0  0  0  0
   -2.7112    0.1080   -0.0000 C   0  0  0  0  0  0  0  0  0  0  0  0
    3.8029   -0.8997   -0.0000 N   0  0  0  0  0  0  0  0  0  0  0  0
    3.0351    1.4156   -0.0000 C   0  0  0  0  0  0  0  0  0  0  0  0
   -4.0188   -0.6238   -0.0000 N   0  0  0  0  0  0  0  0  0  0  0  0
    4.9545   -0.0120   -0.0000 C   0  0  0  0  0  0  0  0  0  0  0  0
    4.4747    1.4276   -0.0000 N   0  0  0  0  0  0  0  0  0  0  0  0
    2.1834    2.6632   -0.0000 C   0  0  0  0  0  0  0  0  0  0  0  0
   -5.3024    0.2639   -0.0000 C   0  0  0  0  0  0  0  0  0  0  0  0
   -6.6340   -0.3719   -0.0000 N   0  0  0  0  0  0  0  0  0  0  0  0
   -5.3144    1.7995   -0.0000 N   0  0  0  0  0  0  0  0  0  0  0  0
   -7.9176    0.5158   -0.0000 C   0  0  0  0  0  0  0  0  0  0  0  0
   -4.0188    2.5312   -0.0000 C   0  0  0  0  0  0  0  0  0  0  0  0
   -9.1533    1.3676   -0.0000 N   0  0  0  0  0  0  0  0  0  0  0  0
  1  2  1  0  0  0  0
  1  3  1  0  0  0  0
  2  4  1  0  0  0  0
  3  5  1  0  0  0  0
  4  6  1  0  0  0  0
  4  7  2  0  0  0  0
  5  8  1  0  0  0  0
  6  9  2  0  0  0  0
  7 10  1  0  0  0  0
  7 11  1  0  0  0  0
  8 12  2  0  0  0  0
 12 13  1  0  0  0  0
 12 14  1  0  0  0  0
 13 15  1  0  0  0  0
 14 16  1  0  0  0  0
 15 17  3  0  0  0  0
  9 10  1  0  0  0  0
M  END
>  <MolRegNo>
1620

>  <m>
=

>  <Value>
15000

>  <Unit>
nM

>  <Type>
IC50

>  <pValue>
4.82

>  <Ligand Efficiency>
0

>  <Binding Efficiency>
0

>  <Surface Efficiency>
0

>  <Assay Index>
51979

>  <Assay Category>


>  <Assay Organism>


>  <Target ID>
17045

>  <Target Name>
Cytochrome P450 3A4

>  <Target Organism>
Homo sapiens

>  <Target Description>
Target is a single protein chain

>  <Sequence Accession>
P08684

>  <Reference>
J Med Chem 46 (9), 1716-1725 (2003)

>  <Pubmed ID>
12699389

>  <DOI>
10.1021/jm021012t

$$$$
160699
Actelion Java MolfileCreator 1.0

 27 29  0  0  1  0  0  0  0  0999 V2000
    0.0000   -0.0000   -0.0000 F   0  0  0  0  0  0  0  0  0  0  0  0
   -1.3052    0.7594   -0.0000 C   0  0  0  0  0  0  0  0  0  0  0  0
   -1.3290    2.2663   -0.0000 C   0  0  0  0  0  0  0  0  0  0  0  0
   -2.6104    0.0119   -0.0000 C   0  0  0  0  0  0  0  0  0  0  0  0
   -0.0475    3.0257   -0.0000 N   0  0  0  0  0  0  0  0  0  0  0  0
   -2.6460    3.0139   -0.0000 C   0  0  0  0  0  0  0  0  0  0  0  0
   -3.9157    0.7594   -0.0000 C   0  0  0  0  0  0  0  0  0  0  0  0
    1.2340    2.3019   -0.0000 C   0  0  0  0  0  0  0  0  0  0  0  0
   -0.0712    4.5327   -0.0000 C   0  0  0  0  0  0  0  0  0  0  0  0
   -3.9275    2.2663   -0.0000 C   0  0  0  0  0  0  0  0  0  0  0  0
    2.5037    3.0613   -0.0000 C   0  0  0  0  0  0  0  0  0  0  0  0
    1.2103    5.3039   -0.0000 C   0  0  0  0  0  0  0  0  0  0  0  0
   -5.2328    3.0257   -0.0000 C   0  0  0  0  0  0  0  0  0  0  0  0
    2.4918    4.5683   -0.0000 O   0  0  0  0  0  0  0  0  0  0  0  0
   -6.5380    2.2901   -0.0000 N   0  0  0  0  0  0  0  0  0  0  0  0
   -5.2565    4.5327   -0.0000 C   0  0  0  0  0  0  0  0  0  0  0  0
   -7.8551    3.0376   -0.0000 C   0  0  0  0  0  0  0  0  0  0  0  0
   -7.8669    4.5445   -0.0000 O   0  0  0  0  0  0  0  0  0  0  0  0
   -9.1603    2.3019   -0.0000 C   0  0  0  0  0  0  0  0  0  0  0  0
  -10.4655    3.0495   -0.0000 C   0  0  0  0  0  0  0  0  0  0  0  0
  -11.7707    2.3138   -0.0000 C   0  0  0  0  0  0  0  0  0  0  0  0
  -11.7826    0.8187   -0.0000 C   0  0  0  0  0  0  0  0  0  0  0  0
  -13.0759    3.0732   -0.0000 C   0  0  0  0  0  0  0  0  0  0  0  0
  -13.0878    0.0831   -0.0000 C   0  0  0  0  0  0  0  0  0  0  0  0
  -14.3812    2.3257   -0.0000 C   0  0  0  0  0  0  0  0  0  0  0  0
  -14.3930    0.8425   -0.0000 C   0  0  0  0  0  0  0  0  0  0  0  0
  -15.7101    0.1187   -0.0000 F   0  0  0  0  0  0  0  0  0  0  0  0
  1  2  1  0  0  0  0
  2  3  2  0  0  0  0
  2  4  1  0  0  0  0
  3  5  1  0  0  0  0
  3  6  1  0  0  0  0
  4  7  2  0  0  0  0
  5  8  1  0  0  0  0
  5  9  1  0  0  0  0
  6 10  2  0  0  0  0
  8 11  1  0  0  0  0
  9 12  1  0  0  0  0
 10 13  1  0  0  0  0
 11 14  1  0  0  0  0
 13 15  1  1  0  0  0
 13 16  1  0  0  0  0
 15 17  1  0  0  0  0
 17 18  2  0  0  0  0
 17 19  1  0  0  0  0
 19 20  2  0  0  0  0
 20 21  1  0  0  0  0
 21 22  2  0  0  0  0
 21 23  1  0  0  0  0
 22 24  1  0  0  0  0
 23 25  2  0  0  0  0
 24 26  2  0  0  0  0
 26 27  1  0  0  0  0
  7 10  1  0  0  0  0
 12 14  1  0  0  0  0
 25 26  1  0  0  0  0
M  END
>  <MolRegNo>
160699

>  <m>
=

>  <Value>
18000

>  <Unit>
nM

>  <Type>
IC50

>  <pValue>
4.75

>  <Ligand Efficiency>
0

>  <Binding Efficiency>
0

>  <Surface Efficiency>
0

>  <Assay Index>
51839

>  <Assay Category>


>  <Assay Organism>
Homo sapiens

>  <Target ID>
17045

>  <Target Name>
Cytochrome P450 3A4

>  <Target Organism>
Homo sapiens

>  <Target Description>
Target is a single protein chain

>  <Sequence Accession>
P08684

>  <Reference>
J Med Chem 46 (18), 3778-3781 (2003)

>  <Pubmed ID>
12930139

>  <DOI>
10.1021/jm034111v

$$$$
559106
Actelion Java MolfileCreator 1.0

 57 60  0  0  1  0  0  0  0  0999 V2000
    0.0000   -0.0000   -0.0000 O   0  0  0  0  0  0  0  0  0  0  0  0
   -0.0142   -1.4904   -0.0000 C   0  0  0  0  0  0  0  0  0  0  0  0
   -1.3201   -2.2285   -0.0000 O   0  0  0  0  0  0  0  0  0  0  0  0
    1.2633   -2.2285   -0.0000 C   0  0  0  0  0  0  0  0  0  0  0  0
   -1.3343   -3.7190   -0.0000 C   0  0  0  0  0  0  0  0  0  0  0  0
    2.5408   -1.4620   -0.0000 C   0  0  0  0  0  0  0  0  0  0  0  0
    0.1845   -3.2789   -0.0000 C   0  0  0  0  0  0  0  0  0  0  0  0
   -2.6402   -4.4571   -0.0000 C   0  0  0  0  0  0  0  0  0  0  0  0
   -1.2775   -5.5075   -0.0000 C   0  0  0  0  0  0  0  0  0  0  0  0
    2.5266    0.0568   -0.0000 O   0  0  0  0  0  0  0  0  0  0  0  0
    3.8183   -2.2002   -0.0000 C   0  0  0  0  0  0  0  0  0  0  0  0
   -2.6544   -5.9475   -0.0000 C   0  0  0  0  0  0  0  0  0  0  0  0
   -3.9461   -3.6906   -0.0000 C   0  0  0  0  0  0  0  0  0  0  0  0
    3.8041    0.8233   -0.0000 C   0  0  0  0  0  0  0  0  0  0  0  0
    3.8041   -3.6906   -0.0000 C   0  0  0  0  0  0  0  0  0  0  0  0
    5.0958   -1.4336   -0.0000 C   0  0  0  0  0  0  0  0  0  0  0  0
   -3.9603   -6.6856   -0.0000 O   0  0  0  0  0  0  0  0  0  0  0  0
   -1.3769   -6.6856   -0.0000 C   0  0  0  0  0  0  0  0  0  0  0  0
    3.7899    2.3421   -0.0000 O   0  0  0  0  0  0  0  0  0  0  0  0
    5.0816    0.0852   -0.0000 C   0  0  0  0  0  0  0  0  0  0  0  0
    5.0816   -4.4287   -0.0000 O   0  0  0  0  0  0  0  0  0  0  0  0
    2.4982   -4.4287   -0.0000 C   0  0  0  0  0  0  0  0  0  0  0  0
   -5.2662   -5.9191   -0.0000 C   0  0  0  0  0  0  0  0  0  0  0  0
   -0.0994   -5.9191   -0.0000 C   0  0  0  0  0  0  0  0  0  0  0  0
   -1.3911   -8.1761   -0.0000 C   0  0  0  0  0  0  0  0  0  0  0  0
    5.0674    3.1086   -0.0000 C   0  0  0  0  0  0  0  0  0  0  0  0
    6.3592    0.8517   -0.0000 C   0  0  0  0  0  0  0  0  0  0  0  0
    5.0674   -5.9191   -0.0000 C   0  0  0  0  0  0  0  0  0  0  0  0
    2.4840   -5.9191   -0.0000 C   0  0  0  0  0  0  0  0  0  0  0  0
    1.7317   -3.1228   -0.0000 C   0  0  0  0  0  0  0  0  0  0  0  0
   -5.2804   -4.4003   -0.0000 O   0  0  0  0  0  0  0  0  0  0  0  0
   -6.5721   -6.6572   -0.0000 C   0  0  0  0  0  0  0  0  0  0  0  0
   -0.1136   -4.4003   -0.0000 O   0  0  0  0  0  0  0  0  0  0  0  0
    1.1781   -6.6572   -0.0000 C   0  0  0  0  0  0  0  0  0  0  0  0
    6.3450    2.3705   -0.0000 C   0  0  0  0  0  0  0  0  0  0  0  0
    5.0533    4.6274   -0.0000 C   0  0  0  0  0  0  0  0  0  0  0  0
    7.6367    0.1136   -0.0000 O   0  0  0  0  0  0  0  0  0  0  0  0
    3.7616   -6.6572   -0.0000 O   0  0  0  0  0  0  0  0  0  0  0  0
    6.3450   -6.6572   -0.0000 C   0  0  0  0  0  0  0  0  0  0  0  0
    1.9163   -7.9347   -0.0000 O   0  0  0  0  0  0  0  0  0  0  0  0
    0.4116   -7.9347   -0.0000 C   0  0  0  0  0  0  0  0  0  0  0  0
    7.6225    3.1370   -0.0000 O   0  0  0  0  0  0  0  0  0  0  0  0
    8.9142    0.8801   -0.0000 C   0  0  0  0  0  0  0  0  0  0  0  0
    3.7474   -8.1477   -0.0000 C   0  0  0  0  0  0  0  0  0  0  0  0
    7.6225   -5.8907   -0.0000 O   0  0  0  0  0  0  0  0  0  0  0  0
    6.3308   -8.1477   -0.0000 C   0  0  0  0  0  0  0  0  0  0  0  0
    7.6083    4.6558   -0.0000 C   0  0  0  0  0  0  0  0  0  0  0  0
    5.0249   -8.8858   -0.0000 C   0  0  0  0  0  0  0  0  0  0  0  0
    2.4415   -8.8858   -0.0000 C   0  0  0  0  0  0  0  0  0  0  0  0
    7.6083   -4.3719   -0.0000 C   0  0  0  0  0  0  0  0  0  0  0  0
    7.6083   -8.8858   -0.0000 N   0  0  0  0  0  0  0  0  0  0  0  0
    6.3024    5.4223   -0.0000 O   0  0  0  0  0  0  0  0  0  0  0  0
    8.8858    5.4223   -0.0000 C   0  0  0  0  0  0  0  0  0  0  0  0
    6.3024   -3.6054   -0.0000 O   0  0  0  0  0  0  0  0  0  0  0  0
    8.8858   -3.6054   -0.0000 C   0  0  0  0  0  0  0  0  0  0  0  0
    8.8858   -8.1193   -0.0000 C   0  0  0  0  0  0  0  0  0  0  0  0
    7.5941  -10.3762   -0.0000 C   0  0  0  0  0  0  0  0  0  0  0  0
  1  2  2  0  0  0  0
  2  3  1  0  0  0  0
  2  4  1  0  0  0  0
  3  5  1  0  0  0  0
  4  6  1  0  0  0  0
  4  7  1  1  0  0  0
  5  8  1  0  0  0  0
  5  9  1  6  0  0  0
  6 10  1  1  0  0  0
  6 11  1  0  0  0  0
  8 12  1  0  0  0  0
  8 13  1  1  0  0  0
 14 10  1  6  0  0  0
 11 15  1  0  0  0  0
 11 16  1  6  0  0  0
 12 17  1  1  0  0  0
 12 18  1  0  0  0  0
 14 19  1  0  0  0  0
 14 20  1  0  0  0  0
 15 21  1  1  0  0  0
 15 22  1  0  0  0  0
 17 23  1  0  0  0  0
 18 24  1  0  0  0  0
 18 25  1  6  0  0  0
 19 26  1  0  0  0  0
 20 27  1  0  0  0  0
 28 21  1  1  0  0  0
 22 29  1  0  0  0  0
 22 30  1  6  0  0  0
 23 31  2  0  0  0  0
 23 32  1  0  0  0  0
 24 33  2  0  0  0  0
 24 34  1  0  0  0  0
 26 35  1  0  0  0  0
 26 36  1  1  0  0  0
 27 37  1  1  0  0  0
 28 38  1  0  0  0  0
 28 39  1  0  0  0  0
 34 40  1  6  0  0  0
 34 41  1  0  0  0  0
 35 42  1  6  0  0  0
 37 43  1  0  0  0  0
 38 44  1  0  0  0  0
 39 45  1  6  0  0  0
 39 46  1  0  0  0  0
 42 47  1  0  0  0  0
 44 48  1  0  0  0  0
 44 49  1  1  0  0  0
 45 50  1  0  0  0  0
 46 51  1  1  0  0  0
 47 52  2  0  0  0  0
 47 53  1  0  0  0  0
 50 54  2  0  0  0  0
 50 55  1  0  0  0  0
 51 56  1  0  0  0  0
 51 57  1  0  0  0  0
 27 35  1  0  0  0  0
 29 34  1  0  0  0  0
 40 41  1  0  0  0  0
 46 48  1  0  0  0  0
M  END
>  <MolRegNo>
559106

>  <m>
=

>  <Value>
61000

>  <Unit>
nM

>  <Type>
IC50

>  <pValue>
4.21

>  <Ligand Efficiency>
0

>  <Binding Efficiency>
0

>  <Surface Efficiency>
0

>  <Assay Index>
51839

>  <Assay Category>


>  <Assay Organism>
Homo sapiens

>  <Target ID>
17045

>  <Target Name>
Cytochrome P450 3A4

>  <Target Organism>
Homo sapiens

>  <Target Description>
Target is a single protein chain

>  <Sequence Accession>
P08684

>  <Reference>
J Med Chem 46 (18), 3778-3781 (2003)

>  <Pubmed ID>
12930139

>  <DOI>
10.1021/jm034111v

$$$$
72035
Actelion Java MolfileCreator 1.0

 36 39  0  0  0  0  0  0  0  0999 V2000
    0.0000   -0.0000   -0.0000 F   0  0  0  0  0  0  0  0  0  0  0  0
    1.2970    0.7615   -0.0000 C   0  0  0  0  0  0  0  0  0  0  0  0
    2.5940    0.0238   -0.0000 C   0  0  0  0  0  0  0  0  0  0  0  0
    1.2851    2.2846   -0.0000 C   0  0  0  0  0  0  0  0  0  0  0  0
    3.8791    0.7972   -0.0000 C   0  0  0  0  0  0  0  0  0  0  0  0
    2.5702    3.0462   -0.0000 C   0  0  0  0  0  0  0  0  0  0  0  0
    3.8672    2.3203   -0.0000 C   0  0  0  0  0  0  0  0  0  0  0  0
    5.1642    0.0595   -0.0000 C   0  0  0  0  0  0  0  0  0  0  0  0
    5.1523    3.0938   -0.0000 C   0  0  0  0  0  0  0  0  0  0  0  0
    6.4612    0.8210   -0.0000 C   0  0  0  0  0  0  0  0  0  0  0  0
    6.4493    2.3441   -0.0000 C   0  0  0  0  0  0  0  0  0  0  0  0
    5.1404    4.6049   -0.0000 C   0  0  0  0  0  0  0  0  0  0  0  0
    6.0566    3.8077   -0.0000 O   0  0  0  0  0  0  0  0  0  0  0  0
    7.7463    3.1057   -0.0000 C   0  0  0  0  0  0  0  0  0  0  0  0
    6.4374    5.3665   -0.0000 C   0  0  0  0  0  0  0  0  0  0  0  0
    3.8196    5.3665   -0.0000 C   0  0  0  0  0  0  0  0  0  0  0  0
    7.3417    4.5811   -0.0000 C   0  0  0  0  0  0  0  0  0  0  0  0
    8.4721    1.8206   -0.0000 C   0  0  0  0  0  0  0  0  0  0  0  0
    8.6387    3.8434   -0.0000 O   0  0  0  0  0  0  0  0  0  0  0  0
    7.3179    6.0923   -0.0000 C   0  0  0  0  0  0  0  0  0  0  0  0
    9.9595    1.8206   -0.0000 N   0  0  0  0  0  0  0  0  0  0  0  0
    8.6030    6.8658   -0.0000 O   0  0  0  0  0  0  0  0  0  0  0  0
   11.0066    2.9034   -0.0000 C   0  0  0  0  0  0  0  0  0  0  0  0
   10.5307    0.4403   -0.0000 C   0  0  0  0  0  0  0  0  0  0  0  0
    8.5792    8.3769   -0.0000 C   0  0  0  0  0  0  0  0  0  0  0  0
   12.4464    2.5345   -0.0000 C   0  0  0  0  0  0  0  0  0  0  0  0
   13.4935    3.6173   -0.0000 C   0  0  0  0  0  0  0  0  0  0  0  0
   14.9333    3.2484   -0.0000 C   0  0  0  0  0  0  0  0  0  0  0  0
   16.0875    4.2242   -0.0000 N   0  0  0  0  0  0  0  0  0  0  0  0
   15.4807    1.8682   -0.0000 N   0  0  0  0  0  0  0  0  0  0  0  0
   17.3488    3.4269   -0.0000 C   0  0  0  0  0  0  0  0  0  0  0  0
   16.9681    1.9752   -0.0000 C   0  0  0  0  0  0  0  0  0  0  0  0
   18.7767    3.8434   -0.0000 C   0  0  0  0  0  0  0  0  0  0  0  0
   18.0271    0.9281   -0.0000 C   0  0  0  0  0  0  0  0  0  0  0  0
   19.8357    2.8082   -0.0000 C   0  0  0  0  0  0  0  0  0  0  0  0
   19.4669    1.3327   -0.0000 C   0  0  0  0  0  0  0  0  0  0  0  0
  1  2  1  0  0  0  0
  2  3  2  0  0  0  0
  2  4  1  0  0  0  0
  3  5  1  0  0  0  0
  4  6  2  0  0  0  0
  5  7  2  0  0  0  0
  5  8  1  0  0  0  0
  7  9  1  0  0  0  0
  8 10  1  0  0  0  0
  9 11  1  0  0  0  0
  9 12  1  1  0  0  0
 11 13  1  1  0  0  0
 11 14  1  0  0  0  0
 12 15  1  0  0  0  0
 12 16  1  0  0  0  0
 13 17  1  0  0  0  0
 14 18  1  0  0  0  0
 17 19  2  0  0  0  0
 17 20  1  0  0  0  0
 18 21  1  0  0  0  0
 20 22  1  0  0  0  0
 21 23  1  0  0  0  0
 21 24  1  0  0  0  0
 22 25  1  0  0  0  0
 23 26  1  0  0  0  0
 26 27  1  0  0  0  0
 27 28  1  0  0  0  0
 28 29  2  0  0  0  0
 28 30  1  0  0  0  0
 29 31  1  0  0  0  0
 30 32  1  0  0  0  0
 31 33  1  0  0  0  0
 32 34  1  0  0  0  0
 33 35  2  0  0  0  0
 34 36  2  0  0  0  0
  6  7  1  0  0  0  0
 10 11  1  0  0  0  0
 31 32  2  0  0  0  0
 35 36  1  0  0  0  0
M  END
>  <MolRegNo>
72035

>  <m>
=

>  <Value>
130

>  <Unit>
nM

>  <Type>
IC50

>  <pValue>
6.89

>  <Ligand Efficiency>
0

>  <Binding Efficiency>
0

>  <Surface Efficiency>
0

>  <Assay Index>
51979

>  <Assay Category>


>  <Assay Organism>


>  <Target ID>
17045

>  <Target Name>
Cytochrome P450 3A4

>  <Target Organism>
Homo sapiens

>  <Target Description>
Target is a single protein chain

>  <Sequence Accession>
P08684

>  <Reference>
J Med Chem 46 (9), 1716-1725 (2003)

>  <Pubmed ID>
12699389

>  <DOI>
10.1021/jm021012t

$$$$
27611
Actelion Java MolfileCreator 1.0

 23 26  0  0  0  0  0  0  0  0999 V2000
    0.0000   -0.0000   -0.0000 Cl  0  0  0  0  0  0  0  0  0  0  0  0
    1.2709    0.7699   -0.0000 C   0  0  0  0  0  0  0  0  0  0  0  0
    2.5662    0.0244   -0.0000 C   0  0  0  0  0  0  0  0  0  0  0  0
    1.2587    2.2974   -0.0000 C   0  0  0  0  0  0  0  0  0  0  0  0
    3.8371    0.8065   -0.0000 C   0  0  0  0  0  0  0  0  0  0  0  0
    2.5418    3.0428   -0.0000 C   0  0  0  0  0  0  0  0  0  0  0  0
    5.0469   -0.1344   -0.0000 C   0  0  0  0  0  0  0  0  0  0  0  0
    3.8249    2.3463   -0.0000 C   0  0  0  0  0  0  0  0  0  0  0  0
    6.4889    0.2444   -0.0000 N   0  0  0  0  0  0  0  0  0  0  0  0
    4.2893   -1.4053   -0.0000 C   0  0  0  0  0  0  0  0  0  0  0  0
    5.0103    3.2872   -0.0000 N   0  0  0  0  0  0  0  0  0  0  0  0
    7.0999    1.5764   -0.0000 C   0  0  0  0  0  0  0  0  0  0  0  0
    4.9980   -2.7129   -0.0000 C   0  0  0  0  0  0  0  0  0  0  0  0
    2.7251   -1.3931   -0.0000 C   0  0  0  0  0  0  0  0  0  0  0  0
    6.4522    2.9817   -0.0000 C   0  0  0  0  0  0  0  0  0  0  0  0
    4.8392    4.7781   -0.0000 C   0  0  0  0  0  0  0  0  0  0  0  0
    6.5133   -2.7251   -0.0000 F   0  0  0  0  0  0  0  0  0  0  0  0
    4.2404   -3.9715   -0.0000 C   0  0  0  0  0  0  0  0  0  0  0  0
    1.9674   -2.6762   -0.0000 C   0  0  0  0  0  0  0  0  0  0  0  0
    7.1854    4.2648   -0.0000 C   0  0  0  0  0  0  0  0  0  0  0  0
    6.2323    5.3769   -0.0000 N   0  0  0  0  0  0  0  0  0  0  0  0
    3.5316    5.5357   -0.0000 C   0  0  0  0  0  0  0  0  0  0  0  0
    2.7251   -3.9715   -0.0000 C   0  0  0  0  0  0  0  0  0  0  0  0
  1  2  1  0  0  0  0
  2  3  2  0  0  0  0
  2  4  1  0  0  0  0
  3  5  1  0  0  0  0
  4  6  2  0  0  0  0
  5  7  1  0  0  0  0
  5  8  2  0  0  0  0
  7  9  2  0  0  0  0
  7 10  1  0  0  0  0
  8 11  1  0  0  0  0
  9 12  1  0  0  0  0
 10 13  2  0  0  0  0
 10 14  1  0  0  0  0
 11 15  1  0  0  0  0
 11 16  1  0  0  0  0
 13 17  1  0  0  0  0
 13 18  1  0  0  0  0
 14 19  2  0  0  0  0
 15 20  2  0  0  0  0
 16 21  2  0  0  0  0
 16 22  1  0  0  0  0
 18 23  2  0  0  0  0
  6  8  1  0  0  0  0
 12 15  1  0  0  0  0
 19 23  1  0  0  0  0
 20 21  1  0  0  0  0
M  END
>  <MolRegNo>
27611

>  <m>
=

>  <Value>
8100

>  <Unit>
nM

>  <Type>
IC50

>  <pValue>
5.09

>  <Ligand Efficiency>
0

>  <Binding Efficiency>
0

>  <Surface Efficiency>
0

>  <Assay Index>
51979

>  <Assay Category>


>  <Assay Organism>


>  <Target ID>
17045

>  <Target Name>
Cytochrome P450 3A4

>  <Target Organism>
Homo sapiens

>  <Target Description>
Target is a single protein chain

>  <Sequence Accession>
P08684

>  <Reference>
J Med Chem 46 (9), 1716-1725 (2003)

>  <Pubmed ID>
12699389

>  <DOI>
10.1021/jm021012t

$$$$
19569
Actelion Java MolfileCreator 1.0

 35 38  0  0  0  0  0  0  0  0999 V2000
    0.0000   -0.0000   -0.0000 O   0  0  0  0  0  0  0  0  0  0  0  0
   -0.3420   -1.4413   -0.0000 C   0  0  0  0  0  0  0  0  0  0  0  0
   -1.6368   -0.7084   -0.0000 C   0  0  0  0  0  0  0  0  0  0  0  0
    0.9039   -0.6840   -0.0000 C   0  0  0  0  0  0  0  0  0  0  0  0
   -0.3420   -2.9804   -0.0000 C   0  0  0  0  0  0  0  0  0  0  0  0
   -1.6612    0.7695   -0.0000 C   0  0  0  0  0  0  0  0  0  0  0  0
   -2.9071   -1.4413   -0.0000 C   0  0  0  0  0  0  0  0  0  0  0  0
    2.1742   -1.3925   -0.0000 C   0  0  0  0  0  0  0  0  0  0  0  0
    0.8672    0.7939   -0.0000 C   0  0  0  0  0  0  0  0  0  0  0  0
   -1.6734   -3.7865   -0.0000 C   0  0  0  0  0  0  0  0  0  0  0  0
    0.9283   -3.7499   -0.0000 C   0  0  0  0  0  0  0  0  0  0  0  0
   -2.9437    1.5024   -0.0000 C   0  0  0  0  0  0  0  0  0  0  0  0
   -4.1896   -0.7207   -0.0000 C   0  0  0  0  0  0  0  0  0  0  0  0
    3.4201   -0.6474   -0.0000 C   0  0  0  0  0  0  0  0  0  0  0  0
    2.1131    1.5513   -0.0000 C   0  0  0  0  0  0  0  0  0  0  0  0
   -1.6856   -5.2523   -0.0000 C   0  0  0  0  0  0  0  0  0  0  0  0
    0.9405   -5.2278   -0.0000 C   0  0  0  0  0  0  0  0  0  0  0  0
   -4.2262    0.7695   -0.0000 C   0  0  0  0  0  0  0  0  0  0  0  0
    3.3957    0.8428   -0.0000 C   0  0  0  0  0  0  0  0  0  0  0  0
   -0.3664   -6.0340   -0.0000 N   0  0  0  0  0  0  0  0  0  0  0  0
   -0.4153   -7.4753   -0.0000 C   0  0  0  0  0  0  0  0  0  0  0  0
   -1.7345   -8.2448   -0.0000 C   0  0  0  0  0  0  0  0  0  0  0  0
   -3.0659   -7.5120   -0.0000 C   0  0  0  0  0  0  0  0  0  0  0  0
   -4.3728   -8.3303   -0.0000 C   0  0  0  0  0  0  0  0  0  0  0  0
   -4.3606   -9.8450   -0.0000 O   0  0  0  0  0  0  0  0  0  0  0  0
   -5.7897   -7.6097   -0.0000 C   0  0  0  0  0  0  0  0  0  0  0  0
   -7.0600   -8.3914   -0.0000 C   0  0  0  0  0  0  0  0  0  0  0  0
   -5.8264   -6.0462   -0.0000 C   0  0  0  0  0  0  0  0  0  0  0  0
   -8.4769   -7.6585   -0.0000 C   0  0  0  0  0  0  0  0  0  0  0  0
   -7.2921   -5.3500   -0.0000 C   0  0  0  0  0  0  0  0  0  0  0  0
   -8.5258   -6.1317   -0.0000 C   0  0  0  0  0  0  0  0  0  0  0  0
   -9.8450   -5.4355   -0.0000 C   0  0  0  0  0  0  0  0  0  0  0  0
   -9.9182   -3.9575   -0.0000 C   0  0  0  0  0  0  0  0  0  0  0  0
  -11.0908   -6.2172   -0.0000 C   0  0  0  0  0  0  0  0  0  0  0  0
  -10.6267   -4.1774   -0.0000 C   0  0  0  0  0  0  0  0  0  0  0  0
  1  2  1  0  0  0  0
  2  3  1  0  0  0  0
  2  4  1  0  0  0  0
  2  5  1  0  0  0  0
  3  6  2  0  0  0  0
  3  7  1  0  0  0  0
  4  8  2  0  0  0  0
  4  9  1  0  0  0  0
  5 10  1  0  0  0  0
  5 11  1  0  0  0  0
  6 12  1  0  0  0  0
  7 13  2  0  0  0  0
  8 14  1  0  0  0  0
  9 15  2  0  0  0  0
 10 16  1  0  0  0  0
 11 17  1  0  0  0  0
 12 18  2  0  0  0  0
 14 19  2  0  0  0  0
 16 20  1  0  0  0  0
 20 21  1  0  0  0  0
 21 22  1  0  0  0  0
 22 23  1  0  0  0  0
 23 24  1  0  0  0  0
 24 25  1  0  0  0  0
 24 26  1  0  0  0  0
 26 27  2  0  0  0  0
 26 28  1  0  0  0  0
 27 29  1  0  0  0  0
 28 30  2  0  0  0  0
 29 31  2  0  0  0  0
 31 32  1  0  0  0  0
 32 33  1  0  0  0  0
 32 34  1  0  0  0  0
 32 35  1  0  0  0  0
 13 18  1  0  0  0  0
 15 19  1  0  0  0  0
 17 20  1  0  0  0  0
 30 31  1  0  0  0  0
M  END
>  <MolRegNo>
19569

>  <m>
=

>  <Value>
320

>  <Unit>
nM

>  <Type>
IC50

>  <pValue>
6.5

>  <Ligand Efficiency>
0

>  <Binding Efficiency>
0

>  <Surface Efficiency>
0

>  <Assay Index>
51979

>  <Assay Category>


>  <Assay Organism>


>  <Target ID>
17045

>  <Target Name>
Cytochrome P450 3A4

>  <Target Organism>
Homo sapiens

>  <Target Description>
Target is a single protein chain

>  <Sequence Accession>
P08684

>  <Reference>
J Med Chem 46 (9), 1716-1725 (2003)

>  <Pubmed ID>
12699389

>  <DOI>
10.1021/jm021012t

$$$$
17169
Actelion Java MolfileCreator 1.0

 49 53  0  0  1  0  0  0  0  0999 V2000
    0.0000   -0.0000   -0.0000 O   0  0  0  0  0  0  0  0  0  0  0  0
   -0.0132    1.5255   -0.0000 C   0  0  0  0  0  0  0  0  0  0  0  0
    1.3940    2.3014   -0.0000 N   0  0  0  0  0  0  0  0  0  0  0  0
   -1.3020    2.3014   -0.0000 C   0  0  0  0  0  0  0  0  0  0  0  0
    2.6171    1.5781   -0.0000 C   0  0  0  0  0  0  0  0  0  0  0  0
   -2.6171    1.5781   -0.0000 N   0  0  0  0  0  0  0  0  0  0  0  0
   -1.3151    3.9059   -0.0000 C   0  0  0  0  0  0  0  0  0  0  0  0
    3.9585    2.3277   -0.0000 C   0  0  0  0  0  0  0  0  0  0  0  0
    2.6039    0.1052   -0.0000 C   0  0  0  0  0  0  0  0  0  0  0  0
   -3.9322    2.3277   -0.0000 C   0  0  0  0  0  0  0  0  0  0  0  0
   -2.6302    4.6818   -0.0000 C   0  0  0  0  0  0  0  0  0  0  0  0
    3.9453    3.8796   -0.0000 O   0  0  0  0  0  0  0  0  0  0  0  0
    5.2999    1.6044   -0.0000 N   0  0  0  0  0  0  0  0  0  0  0  0
    3.8664   -0.6707   -0.0000 C   0  0  0  0  0  0  0  0  0  0  0  0
   -3.9453    3.9322   -0.0000 C   0  0  0  0  0  0  0  0  0  0  0  0
   -5.2736    1.6044   -0.0000 C   0  0  0  0  0  0  0  0  0  0  0  0
    6.5493    2.3540   -0.0000 C   0  0  0  0  0  0  0  0  0  0  0  0
    3.8533   -2.0910   -0.0000 O   0  0  0  0  0  0  0  0  0  0  0  0
    5.1026    0.0526   -0.0000 N   0  0  0  0  0  0  0  0  0  0  0  0
   -5.2867    4.7081   -0.0000 C   0  0  0  0  0  0  0  0  0  0  0  0
   -6.6282    2.3540   -0.0000 C   0  0  0  0  0  0  0  0  0  0  0  0
    7.9696    1.6570   -0.0000 C   0  0  0  0  0  0  0  0  0  0  0  0
    6.5230    4.0374   -0.0000 C   0  0  0  0  0  0  0  0  0  0  0  0
   -6.6413    3.9585   -0.0000 C   0  0  0  0  0  0  0  0  0  0  0  0
    7.9564    0.2367   -0.0000 O   0  0  0  0  0  0  0  0  0  0  0  0
    9.4162    2.3804   -0.0000 C   0  0  0  0  0  0  0  0  0  0  0  0
    7.1542    5.2736   -0.0000 C   0  0  0  0  0  0  0  0  0  0  0  0
   10.9286    1.6307   -0.0000 N   0  0  0  0  0  0  0  0  0  0  0  0
    6.3914    6.4835   -0.0000 C   0  0  0  0  0  0  0  0  0  0  0  0
    8.6271    5.3130   -0.0000 C   0  0  0  0  0  0  0  0  0  0  0  0
   12.1911    2.4067   -0.0000 C   0  0  0  0  0  0  0  0  0  0  0  0
   10.9154    0.1841   -0.0000 C   0  0  0  0  0  0  0  0  0  0  0  0
    7.0490    7.7986   -0.0000 C   0  0  0  0  0  0  0  0  0  0  0  0
    9.2189    6.6282   -0.0000 C   0  0  0  0  0  0  0  0  0  0  0  0
   12.1779    3.9585   -0.0000 C   0  0  0  0  0  0  0  0  0  0  0  0
   13.4667    1.6570   -0.0000 C   0  0  0  0  0  0  0  0  0  0  0  0
   12.1779   -0.5392   -0.0000 C   0  0  0  0  0  0  0  0  0  0  0  0
    8.4430    7.8381   -0.0000 C   0  0  0  0  0  0  0  0  0  0  0  0
   10.8102    4.6029   -0.0000 O   0  0  0  0  0  0  0  0  0  0  0  0
   13.4536    4.6818   -0.0000 N   0  0  0  0  0  0  0  0  0  0  0  0
   13.4536    0.2104   -0.0000 C   0  0  0  0  0  0  0  0  0  0  0  0
   12.1648   -1.9858   -0.0000 C   0  0  0  0  0  0  0  0  0  0  0  0
   14.6372    3.9848   -0.0000 C   0  0  0  0  0  0  0  0  0  0  0  0
   14.7424   -0.5129   -0.0000 C   0  0  0  0  0  0  0  0  0  0  0  0
   13.4799   -2.7091   -0.0000 C   0  0  0  0  0  0  0  0  0  0  0  0
   15.9523    4.7081   -0.0000 C   0  0  0  0  0  0  0  0  0  0  0  0
   13.8744    2.6960   -0.0000 C   0  0  0  0  0  0  0  0  0  0  0  0
   15.3605    2.6960   -0.0000 C   0  0  0  0  0  0  0  0  0  0  0  0
   14.7292   -1.9595   -0.0000 C   0  0  0  0  0  0  0  0  0  0  0  0
  1  2  2  0  0  0  0
  2  3  1  0  0  0  0
  2  4  1  0  0  0  0
  5  3  1  6  0  0  0
  4  6  2  0  0  0  0
  4  7  1  0  0  0  0
  5  8  1  0  0  0  0
  5  9  1  0  0  0  0
  6 10  1  0  0  0  0
  7 11  2  0  0  0  0
  8 12  2  0  0  0  0
  8 13  1  0  0  0  0
  9 14  1  0  0  0  0
 10 15  1  0  0  0  0
 10 16  2  0  0  0  0
 17 13  1  1  0  0  0
 14 18  2  0  0  0  0
 14 19  1  0  0  0  0
 15 20  2  0  0  0  0
 16 21  1  0  0  0  0
 17 22  1  0  0  0  0
 17 23  1  0  0  0  0
 20 24  1  0  0  0  0
 22 25  1  1  0  0  0
 22 26  1  0  0  0  0
 23 27  1  0  0  0  0
 26 28  1  0  0  0  0
 27 29  2  0  0  0  0
 27 30  1  0  0  0  0
 28 31  1  0  0  0  0
 28 32  1  0  0  0  0
 29 33  1  0  0  0  0
 30 34  2  0  0  0  0
 31 35  1  6  0  0  0
 31 36  1  0  0  0  0
 37 32  1  6  0  0  0
 33 38  2  0  0  0  0
 35 39  2  0  0  0  0
 35 40  1  0  0  0  0
 41 36  1  6  0  0  0
 37 42  1  0  0  0  0
 40 43  1  0  0  0  0
 41 44  1  0  0  0  0
 42 45  1  0  0  0  0
 43 46  1  0  0  0  0
 43 47  1  0  0  0  0
 43 48  1  0  0  0  0
 44 49  1  0  0  0  0
 11 15  1  0  0  0  0
 21 24  2  0  0  0  0
 34 38  1  0  0  0  0
 37 41  1  0  0  0  0
 45 49  1  0  0  0  0
M  END
>  <MolRegNo>
17169

>  <m>
=

>  <Value>
1500

>  <Unit>
nM

>  <Type>
IC50

>  <pValue>
5.82

>  <Ligand Efficiency>
0

>  <Binding Efficiency>
0

>  <Surface Efficiency>
0

>  <Assay Index>
51979

>  <Assay Category>


>  <Assay Organism>


>  <Target ID>
17045

>  <Target Name>
Cytochrome P450 3A4

>  <Target Organism>
Homo sapiens

>  <Target Description>
Target is a single protein chain

>  <Sequence Accession>
P08684

>  <Reference>
J Med Chem 46 (9), 1716-1725 (2003)

>  <Pubmed ID>
12699389

>  <DOI>
10.1021/jm021012t

$$$$
13494
Actelion Java MolfileCreator 1.0

 25 28  0  0  0  0  0  0  0  0999 V2000
    0.0000   -0.0000   -0.0000 Cl  0  0  0  0  0  0  0  0  0  0  0  0
    0.6956    1.2814   -0.0000 C   0  0  0  0  0  0  0  0  0  0  0  0
    2.1418    1.2997   -0.0000 C   0  0  0  0  0  0  0  0  0  0  0  0
   -0.0366    2.5629   -0.0000 C   0  0  0  0  0  0  0  0  0  0  0  0
    2.8375    2.5812   -0.0000 C   0  0  0  0  0  0  0  0  0  0  0  0
    3.4782   -1.0068   -0.0000 C   0  0  0  0  0  0  0  0  0  0  0  0
    0.6590    3.8443   -0.0000 C   0  0  0  0  0  0  0  0  0  0  0  0
    2.1052    3.8626   -0.0000 C   0  0  0  0  0  0  0  0  0  0  0  0
    2.1967   -1.7208   -0.0000 N   0  0  0  0  0  0  0  0  0  0  0  0
    4.1738    0.2929   -0.0000 C   0  0  0  0  0  0  0  0  0  0  0  0
    4.7230   -1.7208   -0.0000 C   0  0  0  0  0  0  0  0  0  0  0  0
    1.7208   -3.0754   -0.0000 C   0  0  0  0  0  0  0  0  0  0  0  0
    1.0068   -0.8238   -0.0000 C   0  0  0  0  0  0  0  0  0  0  0  0
    5.6200    0.3295   -0.0000 C   0  0  0  0  0  0  0  0  0  0  0  0
    3.4049    1.5743   -0.0000 C   0  0  0  0  0  0  0  0  0  0  0  0
    5.9495   -0.9702   -0.0000 C   0  0  0  0  0  0  0  0  0  0  0  0
    4.6864   -3.1487   -0.0000 C   0  0  0  0  0  0  0  0  0  0  0  0
    0.2380   -3.0571   -0.0000 N   0  0  0  0  0  0  0  0  0  0  0  0
   -0.1831   -1.6842   -0.0000 C   0  0  0  0  0  0  0  0  0  0  0  0
    6.3156    1.6109   -0.0000 C   0  0  0  0  0  0  0  0  0  0  0  0
    4.0823    2.8558   -0.0000 C   0  0  0  0  0  0  0  0  0  0  0  0
    7.1943   -1.6659   -0.0000 C   0  0  0  0  0  0  0  0  0  0  0  0
    5.9312   -3.8626   -0.0000 C   0  0  0  0  0  0  0  0  0  0  0  0
    5.5285    2.8924   -0.0000 C   0  0  0  0  0  0  0  0  0  0  0  0
    7.1760   -3.1120   -0.0000 C   0  0  0  0  0  0  0  0  0  0  0  0
  1  2  1  0  0  0  0
  2  3  2  0  0  0  0
  2  4  1  0  0  0  0
  3  5  1  0  0  0  0
  3  6  1  0  0  0  0
  4  7  2  0  0  0  0
  5  8  2  0  0  0  0
  6  9  1  0  0  0  0
  6 10  1  0  0  0  0
  6 11  1  0  0  0  0
  9 12  1  0  0  0  0
  9 13  1  0  0  0  0
 10 14  2  0  0  0  0
 10 15  1  0  0  0  0
 11 16  2  0  0  0  0
 11 17  1  0  0  0  0
 12 18  2  0  0  0  0
 13 19  2  0  0  0  0
 14 20  1  0  0  0  0
 15 21  2  0  0  0  0
 16 22  1  0  0  0  0
 17 23  2  0  0  0  0
 20 24  2  0  0  0  0
 22 25  2  0  0  0  0
  7  8  1  0  0  0  0
 18 19  1  0  0  0  0
 21 24  1  0  0  0  0
 23 25  1  0  0  0  0
M  END
>  <MolRegNo>
13494

>  <m>
=

>  <Value>
20

>  <Unit>
nM

>  <Type>
IC50

>  <pValue>
7.7

>  <Ligand Efficiency>
0

>  <Binding Efficiency>
0

>  <Surface Efficiency>
0

>  <Assay Index>
51979

>  <Assay Category>


>  <Assay Organism>


>  <Target ID>
17045

>  <Target Name>
Cytochrome P450 3A4

>  <Target Organism>
Homo sapiens

>  <Target Description>
Target is a single protein chain

>  <Sequence Accession>
P08684

>  <Reference>
J Med Chem 46 (9), 1716-1725 (2003)

>  <Pubmed ID>
12699389

>  <DOI>
10.1021/jm021012t

$$$$
97867
Actelion Java MolfileCreator 1.0

 49 55  0  0  0  0  0  0  0  0999 V2000
    0.0000   -0.0000   -0.0000 Cl  0  0  0  0  0  0  0  0  0  0  0  0
    1.4934   -0.0119   -0.0000 C   0  0  0  0  0  0  0  0  0  0  0  0
    2.2102   -1.3022   -0.0000 C   0  0  0  0  0  0  0  0  0  0  0  0
    2.2580    1.3022   -0.0000 C   0  0  0  0  0  0  0  0  0  0  0  0
    3.7035   -1.3380   -0.0000 C   0  0  0  0  0  0  0  0  0  0  0  0
    1.4217   -2.5686   -0.0000 C   0  0  0  0  0  0  0  0  0  0  0  0
    3.7633    1.2903   -0.0000 C   0  0  0  0  0  0  0  0  0  0  0  0
    4.4681   -0.0239   -0.0000 C   0  0  0  0  0  0  0  0  0  0  0  0
    2.8792   -2.8792   -0.0000 O   0  0  0  0  0  0  0  0  0  0  0  0
    0.6571   -3.8827   -0.0000 O   0  0  0  0  0  0  0  0  0  0  0  0
   -0.0597   -2.1624   -0.0000 C   0  0  0  0  0  0  0  0  0  0  0  0
    4.5278    2.5805   -0.0000 Cl  0  0  0  0  0  0  0  0  0  0  0  0
    3.0225   -4.3725   -0.0000 C   0  0  0  0  0  0  0  0  0  0  0  0
    1.6487   -4.9938   -0.0000 C   0  0  0  0  0  0  0  0  0  0  0  0
   -1.1349   -3.2256   -0.0000 N   0  0  0  0  0  0  0  0  0  0  0  0
    4.3248   -5.1132   -0.0000 C   0  0  0  0  0  0  0  0  0  0  0  0
   -0.9199   -4.6951   -0.0000 N   0  0  0  0  0  0  0  0  0  0  0  0
   -2.6283   -2.9628   -0.0000 C   0  0  0  0  0  0  0  0  0  0  0  0
    5.6150   -4.3486   -0.0000 O   0  0  0  0  0  0  0  0  0  0  0  0
   -2.2699   -5.3641   -0.0000 C   0  0  0  0  0  0  0  0  0  0  0  0
   -3.3212   -4.3009   -0.0000 N   0  0  0  0  0  0  0  0  0  0  0  0
    6.9053   -5.0893   -0.0000 C   0  0  0  0  0  0  0  0  0  0  0  0
    6.8933   -6.5827   -0.0000 C   0  0  0  0  0  0  0  0  0  0  0  0
    8.1955   -4.3248   -0.0000 C   0  0  0  0  0  0  0  0  0  0  0  0
    8.1836   -7.3234   -0.0000 C   0  0  0  0  0  0  0  0  0  0  0  0
    9.4977   -5.0416   -0.0000 C   0  0  0  0  0  0  0  0  0  0  0  0
    9.4858   -6.5588   -0.0000 C   0  0  0  0  0  0  0  0  0  0  0  0
   10.7880   -7.2995   -0.0000 N   0  0  0  0  0  0  0  0  0  0  0  0
   10.7760   -8.7929   -0.0000 C   0  0  0  0  0  0  0  0  0  0  0  0
   12.0782   -6.5110   -0.0000 C   0  0  0  0  0  0  0  0  0  0  0  0
   12.0543   -9.5336   -0.0000 C   0  0  0  0  0  0  0  0  0  0  0  0
   13.3685   -7.2756   -0.0000 C   0  0  0  0  0  0  0  0  0  0  0  0
   13.3566   -8.7690   -0.0000 N   0  0  0  0  0  0  0  0  0  0  0  0
   14.6468   -9.5097   -0.0000 C   0  0  0  0  0  0  0  0  0  0  0  0
   14.6349  -11.0030   -0.0000 C   0  0  0  0  0  0  0  0  0  0  0  0
   15.9251   -8.7451   -0.0000 C   0  0  0  0  0  0  0  0  0  0  0  0
   15.9132  -11.7437   -0.0000 C   0  0  0  0  0  0  0  0  0  0  0  0
   17.2393   -9.4858   -0.0000 C   0  0  0  0  0  0  0  0  0  0  0  0
   17.2273  -10.9791   -0.0000 C   0  0  0  0  0  0  0  0  0  0  0  0
   18.5176  -11.7198   -0.0000 N   0  0  0  0  0  0  0  0  0  0  0  0
   18.6609  -13.2012   -0.0000 C   0  0  0  0  0  0  0  0  0  0  0  0
   19.8795  -11.0986   -0.0000 C   0  0  0  0  0  0  0  0  0  0  0  0
   17.5260  -14.2167   -0.0000 O   0  0  0  0  0  0  0  0  0  0  0  0
   20.1304  -13.4999   -0.0000 N   0  0  0  0  0  0  0  0  0  0  0  0
   20.8950  -12.1977   -0.0000 N   0  0  0  0  0  0  0  0  0  0  0  0
   20.7397  -14.8738   -0.0000 C   0  0  0  0  0  0  0  0  0  0  0  0
   22.2092  -15.0172   -0.0000 C   0  0  0  0  0  0  0  0  0  0  0  0
   19.8317  -16.0924   -0.0000 C   0  0  0  0  0  0  0  0  0  0  0  0
   23.0932  -13.7986   -0.0000 C   0  0  0  0  0  0  0  0  0  0  0  0
  1  2  1  0  0  0  0
  2  3  2  0  0  0  0
  2  4  1  0  0  0  0
  3  5  1  0  0  0  0
  3  6  1  0  0  0  0
  4  7  2  0  0  0  0
  5  8  2  0  0  0  0
  6  9  1  0  0  0  0
  6 10  1  0  0  0  0
  6 11  1  0  0  0  0
  7 12  1  0  0  0  0
  9 13  1  0  0  0  0
 10 14  1  0  0  0  0
 11 15  1  0  0  0  0
 13 16  1  0  0  0  0
 15 17  1  0  0  0  0
 15 18  1  0  0  0  0
 16 19  1  0  0  0  0
 17 20  2  0  0  0  0
 18 21  2  0  0  0  0
 19 22  1  0  0  0  0
 22 23  2  0  0  0  0
 22 24  1  0  0  0  0
 23 25  1  0  0  0  0
 24 26  2  0  0  0  0
 25 27  2  0  0  0  0
 27 28  1  0  0  0  0
 28 29  1  0  0  0  0
 28 30  1  0  0  0  0
 29 31  1  0  0  0  0
 30 32  1  0  0  0  0
 31 33  1  0  0  0  0
 33 34  1  0  0  0  0
 34 35  2  0  0  0  0
 34 36  1  0  0  0  0
 35 37  1  0  0  0  0
 36 38  2  0  0  0  0
 37 39  2  0  0  0  0
 39 40  1  0  0  0  0
 40 41  1  0  0  0  0
 40 42  1  0  0  0  0
 41 43  2  0  0  0  0
 41 44  1  0  0  0  0
 42 45  2  0  0  0  0
 44 46  1  0  0  0  0
 46 47  1  0  0  0  0
 46 48  1  0  0  0  0
 47 49  1  0  0  0  0
  7  8  1  0  0  0  0
 13 14  1  0  0  0  0
 20 21  1  0  0  0  0
 26 27  1  0  0  0  0
 32 33  1  0  0  0  0
 38 39  1  0  0  0  0
 44 45  1  0  0  0  0
M  END
>  <MolRegNo>
97867

>  <m>
=

>  <Value>
700

>  <Unit>
nM

>  <Type>
IC50

>  <pValue>
6.16

>  <Ligand Efficiency>
0

>  <Binding Efficiency>
0

>  <Surface Efficiency>
0

>  <Assay Index>
51979

>  <Assay Category>


>  <Assay Organism>


>  <Target ID>
17045

>  <Target Name>
Cytochrome P450 3A4

>  <Target Organism>
Homo sapiens

>  <Target Description>
Target is a single protein chain

>  <Sequence Accession>
P08684

>  <Reference>
J Med Chem 46 (9), 1716-1725 (2003)

>  <Pubmed ID>
12699389

>  <DOI>
10.1021/jm021012t

$$$$
364141
Actelion Java MolfileCreator 1.0

 34 38  0  0  0  0  0  0  0  0999 V2000
    0.0000   -0.0000   -0.0000 F   0  0  0  0  0  0  0  0  0  0  0  0
    1.3004    0.7586   -0.0000 C   0  0  0  0  0  0  0  0  0  0  0  0
    1.3004    2.2757   -0.0000 C   0  0  0  0  0  0  0  0  0  0  0  0
    2.5767    0.0241   -0.0000 C   0  0  0  0  0  0  0  0  0  0  0  0
    2.5767    3.0222   -0.0000 C   0  0  0  0  0  0  0  0  0  0  0  0
    3.8770    0.7706   -0.0000 C   0  0  0  0  0  0  0  0  0  0  0  0
    3.8650    2.2877   -0.0000 C   0  0  0  0  0  0  0  0  0  0  0  0
    5.1654    3.0342   -0.0000 C   0  0  0  0  0  0  0  0  0  0  0  0
    5.1533    4.5513   -0.0000 C   0  0  0  0  0  0  0  0  0  0  0  0
    6.4537    2.2877   -0.0000 C   0  0  0  0  0  0  0  0  0  0  0  0
    6.4537    5.2978   -0.0000 C   0  0  0  0  0  0  0  0  0  0  0  0
    3.8530    5.2978   -0.0000 C   0  0  0  0  0  0  0  0  0  0  0  0
    7.7300    3.0583   -0.0000 C   0  0  0  0  0  0  0  0  0  0  0  0
    6.4537    6.8149   -0.0000 C   0  0  0  0  0  0  0  0  0  0  0  0
    3.8530    6.8270   -0.0000 C   0  0  0  0  0  0  0  0  0  0  0  0
    9.0304    2.2997   -0.0000 C   0  0  0  0  0  0  0  0  0  0  0  0
    5.1413    7.5614   -0.0000 C   0  0  0  0  0  0  0  0  0  0  0  0
   10.2826    3.0462   -0.0000 N   0  0  0  0  0  0  0  0  0  0  0  0
    5.1413    9.0785   -0.0000 F   0  0  0  0  0  0  0  0  0  0  0  0
   11.5589    2.2877   -0.0000 C   0  0  0  0  0  0  0  0  0  0  0  0
   10.2705    4.5634   -0.0000 C   0  0  0  0  0  0  0  0  0  0  0  0
   12.8593    3.0703   -0.0000 C   0  0  0  0  0  0  0  0  0  0  0  0
   11.5709    5.3099   -0.0000 C   0  0  0  0  0  0  0  0  0  0  0  0
   12.8472    4.5874   -0.0000 C   0  0  0  0  0  0  0  0  0  0  0  0
   14.1476    5.3339   -0.0000 N   0  0  0  0  0  0  0  0  0  0  0  0
   13.9911    6.8270   -0.0000 C   0  0  0  0  0  0  0  0  0  0  0  0
   15.6165    5.0329   -0.0000 C   0  0  0  0  0  0  0  0  0  0  0  0
   12.6907    7.6096   -0.0000 O   0  0  0  0  0  0  0  0  0  0  0  0
   15.3757    7.4410   -0.0000 N   0  0  0  0  0  0  0  0  0  0  0  0
   16.3510    6.3333   -0.0000 C   0  0  0  0  0  0  0  0  0  0  0  0
   16.3269    3.7326   -0.0000 C   0  0  0  0  0  0  0  0  0  0  0  0
   17.8681    6.3453   -0.0000 C   0  0  0  0  0  0  0  0  0  0  0  0
   17.8320    3.7326   -0.0000 C   0  0  0  0  0  0  0  0  0  0  0  0
   18.5905    5.0450   -0.0000 C   0  0  0  0  0  0  0  0  0  0  0  0
  1  2  1  0  0  0  0
  2  3  2  0  0  0  0
  2  4  1  0  0  0  0
  3  5  1  0  0  0  0
  4  6  2  0  0  0  0
  5  7  2  0  0  0  0
  7  8  1  0  0  0  0
  8  9  1  0  0  0  0
  8 10  1  0  0  0  0
  9 11  2  0  0  0  0
  9 12  1  0  0  0  0
 10 13  1  0  0  0  0
 11 14  1  0  0  0  0
 12 15  2  0  0  0  0
 13 16  1  0  0  0  0
 14 17  2  0  0  0  0
 16 18  1  0  0  0  0
 17 19  1  0  0  0  0
 18 20  1  0  0  0  0
 18 21  1  0  0  0  0
 20 22  1  0  0  0  0
 21 23  1  0  0  0  0
 22 24  1  0  0  0  0
 24 25  1  0  0  0  0
 25 26  1  0  0  0  0
 25 27  1  0  0  0  0
 26 28  2  0  0  0  0
 26 29  1  0  0  0  0
 27 30  2  0  0  0  0
 27 31  1  0  0  0  0
 30 32  1  0  0  0  0
 31 33  2  0  0  0  0
 32 34  2  0  0  0  0
  6  7  1  0  0  0  0
 15 17  1  0  0  0  0
 23 24  1  0  0  0  0
 29 30  1  0  0  0  0
 33 34  1  0  0  0  0
M  END
>  <MolRegNo>
364141

>  <m>
=

>  <Value>
9700

>  <Unit>
nM

>  <Type>
IC50

>  <pValue>
5.01

>  <Ligand Efficiency>
0

>  <Binding Efficiency>
0

>  <Surface Efficiency>
0

>  <Assay Index>
51979

>  <Assay Category>


>  <Assay Organism>


>  <Target ID>
17045

>  <Target Name>
Cytochrome P450 3A4

>  <Target Organism>
Homo sapiens

>  <Target Description>
Target is a single protein chain

>  <Sequence Accession>
P08684

>  <Reference>
J Med Chem 46 (9), 1716-1725 (2003)

>  <Pubmed ID>
12699389

>  <DOI>
10.1021/jm021012t

$$$$
8917
Actelion Java MolfileCreator 1.0

 25 27  0  0  0  0  0  0  0  0999 V2000
    0.0000   -0.0000   -0.0000 Cl  0  0  0  0  0  0  0  0  0  0  0  0
   -1.3114    0.7820   -0.0000 C   0  0  0  0  0  0  0  0  0  0  0  0
   -1.3234    2.2859   -0.0000 C   0  0  0  0  0  0  0  0  0  0  0  0
   -2.6348    0.0481   -0.0000 C   0  0  0  0  0  0  0  0  0  0  0  0
   -2.6468    3.0679   -0.0000 C   0  0  0  0  0  0  0  0  0  0  0  0
   -0.0361    3.0559   -0.0000 C   0  0  0  0  0  0  0  0  0  0  0  0
   -3.9341    0.8301   -0.0000 C   0  0  0  0  0  0  0  0  0  0  0  0
   -3.9462    2.3340   -0.0000 C   0  0  0  0  0  0  0  0  0  0  0  0
    1.2392    2.3099   -0.0000 O   0  0  0  0  0  0  0  0  0  0  0  0
   -0.0361    4.5838   -0.0000 C   0  0  0  0  0  0  0  0  0  0  0  0
   -5.2575    0.1083   -0.0000 Cl  0  0  0  0  0  0  0  0  0  0  0  0
    2.5265    3.0679   -0.0000 C   0  0  0  0  0  0  0  0  0  0  0  0
    1.2392    5.2936   -0.0000 N   0  0  0  0  0  0  0  0  0  0  0  0
    3.8018    2.3340   -0.0000 C   0  0  0  0  0  0  0  0  0  0  0  0
    1.6964    6.7373   -0.0000 C   0  0  0  0  0  0  0  0  0  0  0  0
    2.4423    4.4394   -0.0000 C   0  0  0  0  0  0  0  0  0  0  0  0
    5.1252    3.0799   -0.0000 C   0  0  0  0  0  0  0  0  0  0  0  0
    3.7898    0.8181   -0.0000 C   0  0  0  0  0  0  0  0  0  0  0  0
    3.2002    6.7373   -0.0000 N   0  0  0  0  0  0  0  0  0  0  0  0
    3.6454    5.3057   -0.0000 C   0  0  0  0  0  0  0  0  0  0  0  0
    5.1252    4.5958   -0.0000 Cl  0  0  0  0  0  0  0  0  0  0  0  0
    6.4005    2.3340   -0.0000 C   0  0  0  0  0  0  0  0  0  0  0  0
    5.0891    0.0962   -0.0000 C   0  0  0  0  0  0  0  0  0  0  0  0
    6.3764    0.8422   -0.0000 C   0  0  0  0  0  0  0  0  0  0  0  0
    7.6758    0.0962   -0.0000 Cl  0  0  0  0  0  0  0  0  0  0  0  0
  1  2  1  0  0  0  0
  2  3  2  0  0  0  0
  2  4  1  0  0  0  0
  3  5  1  0  0  0  0
  3  6  1  0  0  0  0
  4  7  2  0  0  0  0
  5  8  2  0  0  0  0
  6  9  1  0  0  0  0
  6 10  1  0  0  0  0
  7 11  1  0  0  0  0
  9 12  1  0  0  0  0
 10 13  1  0  0  0  0
 12 14  1  0  0  0  0
 13 15  1  0  0  0  0
 13 16  1  0  0  0  0
 14 17  2  0  0  0  0
 14 18  1  0  0  0  0
 15 19  2  0  0  0  0
 16 20  2  0  0  0  0
 17 21  1  0  0  0  0
 17 22  1  0  0  0  0
 18 23  2  0  0  0  0
 22 24  2  0  0  0  0
 24 25  1  0  0  0  0
  7  8  1  0  0  0  0
 19 20  1  0  0  0  0
 23 24  1  0  0  0  0
M  END
>  <MolRegNo>
8917

>  <m>
=

>  <Value>
180

>  <Unit>
nM

>  <Type>
IC50

>  <pValue>
6.75

>  <Ligand Efficiency>
0

>  <Binding Efficiency>
0

>  <Surface Efficiency>
0

>  <Assay Index>
51979

>  <Assay Category>


>  <Assay Organism>


>  <Target ID>
17045

>  <Target Name>
Cytochrome P450 3A4

>  <Target Organism>
Homo sapiens

>  <Target Description>
Target is a single protein chain

>  <Sequence Accession>
P08684

>  <Reference>
J Med Chem 46 (9), 1716-1725 (2003)

>  <Pubmed ID>
12699389

>  <DOI>
10.1021/jm021012t

$$$$
72873
Actelion Java MolfileCreator 1.0

 85 85  0  0  0  0  0  0  0  0999 V2000
    0.0000   -0.0000   -0.0000 O   0  0  0  0  0  0  0  0  0  0  0  0
   -0.0905    1.5120   -0.0000 C   0  0  0  0  0  0  0  0  0  0  0  0
    1.0339    2.5071   -0.0000 N   0  0  0  0  0  0  0  0  0  0  0  0
   -1.7446    1.4862   -0.0000 C   0  0  0  0  0  0  0  0  0  0  0  0
    2.3003    1.7446   -0.0000 C   0  0  0  0  0  0  0  0  0  0  0  0
    0.8917    4.0191   -0.0000 C   0  0  0  0  0  0  0  0  0  0  0  0
   -2.5330    0.2197   -0.0000 N   0  0  0  0  0  0  0  0  0  0  0  0
   -2.5071    2.7914   -0.0000 C   0  0  0  0  0  0  0  0  0  0  0  0
    1.9514    0.2972   -0.0000 C   0  0  0  0  0  0  0  0  0  0  0  0
    3.6702    2.3391   -0.0000 C   0  0  0  0  0  0  0  0  0  0  0  0
   -1.8222   -1.0856   -0.0000 C   0  0  0  0  0  0  0  0  0  0  0  0
   -3.7348    1.1373   -0.0000 C   0  0  0  0  0  0  0  0  0  0  0  0
   -1.7705    4.1096   -0.0000 C   0  0  0  0  0  0  0  0  0  0  0  0
   -4.0191    2.8044   -0.0000 C   0  0  0  0  0  0  0  0  0  0  0  0
    0.4523    0.1422   -0.0000 O   0  0  0  0  0  0  0  0  0  0  0  0
    2.6622   -1.1631   -0.0000 N   0  0  0  0  0  0  0  0  0  0  0  0
    4.8462    1.4474   -0.0000 O   0  0  0  0  0  0  0  0  0  0  0  0
    3.8511    3.8382   -0.0000 C   0  0  0  0  0  0  0  0  0  0  0  0
   -0.3360   -1.0985   -0.0000 O   0  0  0  0  0  0  0  0  0  0  0  0
   -2.6105   -2.3520   -0.0000 C   0  0  0  0  0  0  0  0  0  0  0  0
    1.8739   -2.4296   -0.0000 C   0  0  0  0  0  0  0  0  0  0  0  0
    5.2210    4.4327   -0.0000 C   0  0  0  0  0  0  0  0  0  0  0  0
    2.6493    4.7558   -0.0000 C   0  0  0  0  0  0  0  0  0  0  0  0
   -1.8997   -3.6573   -0.0000 N   0  0  0  0  0  0  0  0  0  0  0  0
   -4.1225   -2.3133   -0.0000 C   0  0  0  0  0  0  0  0  0  0  0  0
    2.5847   -3.7348   -0.0000 C   0  0  0  0  0  0  0  0  0  0  0  0
    3.3601   -2.4425   -0.0000 C   0  0  0  0  0  0  0  0  0  0  0  0
    5.4019    5.9318   -0.0000 C   0  0  0  0  0  0  0  0  0  0  0  0
   -2.6880   -4.9238   -0.0000 C   0  0  0  0  0  0  0  0  0  0  0  0
   -0.4135   -3.6702   -0.0000 C   0  0  0  0  0  0  0  0  0  0  0  0
   -4.8592   -0.9822   -0.0000 C   0  0  0  0  0  0  0  0  0  0  0  0
    4.0708   -3.7478   -0.0000 O   0  0  0  0  0  0  0  0  0  0  0  0
    1.7963   -5.0013   -0.0000 N   0  0  0  0  0  0  0  0  0  0  0  0
    4.1225   -1.1502   -0.0000 C   0  0  0  0  0  0  0  0  0  0  0  0
    6.7718    6.5263   -0.0000 C   0  0  0  0  0  0  0  0  0  0  0  0
   -4.2001   -4.8850   -0.0000 O   0  0  0  0  0  0  0  0  0  0  0  0
   -1.9773   -6.2290   -0.0000 C   0  0  0  0  0  0  0  0  0  0  0  0
   -6.3712   -0.9434   -0.0000 C   0  0  0  0  0  0  0  0  0  0  0  0
   -4.0967    0.3102   -0.0000 C   0  0  0  0  0  0  0  0  0  0  0  0
    2.5071   -6.3066   -0.0000 C   0  0  0  0  0  0  0  0  0  0  0  0
    0.2843   -4.9625   -0.0000 C   0  0  0  0  0  0  0  0  0  0  0  0
    6.9527    8.0254   -0.0000 C   0  0  0  0  0  0  0  0  0  0  0  0
   -2.7656   -7.4955   -0.0000 N   0  0  0  0  0  0  0  0  0  0  0  0
   -3.4893   -6.1903   -0.0000 C   0  0  0  0  0  0  0  0  0  0  0  0
    1.7188   -7.5731   -0.0000 C   0  0  0  0  0  0  0  0  0  0  0  0
   -2.0548   -8.8008   -0.0000 C   0  0  0  0  0  0  0  0  0  0  0  0
   -4.0062   -8.3355   -0.0000 C   0  0  0  0  0  0  0  0  0  0  0  0
   -4.2776   -7.4567   -0.0000 C   0  0  0  0  0  0  0  0  0  0  0  0
    0.2068   -7.5343   -0.0000 O   0  0  0  0  0  0  0  0  0  0  0  0
    2.4296   -8.8783   -0.0000 N   0  0  0  0  0  0  0  0  0  0  0  0
   -0.5686   -8.8137   -0.0000 O   0  0  0  0  0  0  0  0  0  0  0  0
   -2.8431  -10.0673   -0.0000 C   0  0  0  0  0  0  0  0  0  0  0  0
   -4.4844   -8.9300   -0.0000 C   0  0  0  0  0  0  0  0  0  0  0  0
   -5.7896   -7.4180   -0.0000 C   0  0  0  0  0  0  0  0  0  0  0  0
    1.6413  -10.1448   -0.0000 C   0  0  0  0  0  0  0  0  0  0  0  0
    3.6444   -8.0124   -0.0000 C   0  0  0  0  0  0  0  0  0  0  0  0
   -2.1323  -11.3725   -0.0000 N   0  0  0  0  0  0  0  0  0  0  0  0
   -4.3552  -10.0285   -0.0000 C   0  0  0  0  0  0  0  0  0  0  0  0
    2.3520  -11.4500   -0.0000 C   0  0  0  0  0  0  0  0  0  0  0  0
    3.1274  -10.1577   -0.0000 C   0  0  0  0  0  0  0  0  0  0  0  0
   -2.9207  -12.6390   -0.0000 C   0  0  0  0  0  0  0  0  0  0  0  0
    3.8382  -11.4630   -0.0000 O   0  0  0  0  0  0  0  0  0  0  0  0
    1.5637  -12.7165   -0.0000 N   0  0  0  0  0  0  0  0  0  0  0  0
    3.8899   -8.8654   -0.0000 C   0  0  0  0  0  0  0  0  0  0  0  0
   -4.4327  -12.6002   -0.0000 O   0  0  0  0  0  0  0  0  0  0  0  0
   -2.2099  -13.9442   -0.0000 C   0  0  0  0  0  0  0  0  0  0  0  0
    2.2745  -14.0218   -0.0000 C   0  0  0  0  0  0  0  0  0  0  0  0
    4.0708   -7.3663   -0.0000 C   0  0  0  0  0  0  0  0  0  0  0  0
    5.3761   -8.8783   -0.0000 C   0  0  0  0  0  0  0  0  0  0  0  0
   -2.9982  -15.2107   -0.0000 N   0  0  0  0  0  0  0  0  0  0  0  0
   -0.9951  -13.0784   -0.0000 C   0  0  0  0  0  0  0  0  0  0  0  0
    1.4862  -15.2883   -0.0000 C   0  0  0  0  0  0  0  0  0  0  0  0
    3.7607  -14.0347   -0.0000 C   0  0  0  0  0  0  0  0  0  0  0  0
   -2.2874  -16.5160   -0.0000 C   0  0  0  0  0  0  0  0  0  0  0  0
    2.1970  -16.5935   -0.0000 O   0  0  0  0  0  0  0  0  0  0  0  0
   -0.0258  -15.2495   -0.0000 N   0  0  0  0  0  0  0  0  0  0  0  0
    4.4715  -15.3400   -0.0000 C   0  0  0  0  0  0  0  0  0  0  0  0
    4.5232  -12.7424   -0.0000 C   0  0  0  0  0  0  0  0  0  0  0  0
   -3.0757  -17.7825   -0.0000 O   0  0  0  0  0  0  0  0  0  0  0  0
   -0.8012  -16.5289   -0.0000 C   0  0  0  0  0  0  0  0  0  0  0  0
   -0.7625  -13.9184   -0.0000 C   0  0  0  0  0  0  0  0  0  0  0  0
   -0.0905  -17.8342   -0.0000 C   0  0  0  0  0  0  0  0  0  0  0  0
   -0.8788  -19.1006   -0.0000 C   0  0  0  0  0  0  0  0  0  0  0  0
   -0.1680  -20.4059   -0.0000 C   0  0  0  0  0  0  0  0  0  0  0  0
   -2.3908  -19.0619   -0.0000 C   0  0  0  0  0  0  0  0  0  0  0  0
  1  2  2  0  0  0  0
  2  3  1  0  0  0  0
  2  4  1  0  0  0  0
  5  3  1  1  0  0  0
  3  6  1  0  0  0  0
  4  7  1  0  0  0  0
  4  8  1  1  0  0  0
  5  9  1  0  0  0  0
  5 10  1  0  0  0  0
  7 11  1  0  0  0  0
  7 12  1  0  0  0  0
  8 13  1  0  0  0  0
  8 14  1  0  0  0  0
  9 15  2  0  0  0  0
  9 16  1  0  0  0  0
 10 17  1  1  0  0  0
 10 18  1  0  0  0  0
 11 19  2  0  0  0  0
 11 20  1  0  0  0  0
 16 21  1  0  0  0  0
 18 22  1  0  0  0  0
 18 23  1  6  0  0  0
 20 24  1  0  0  0  0
 20 25  1  1  0  0  0
 21 26  1  0  0  0  0
 21 27  1  6  0  0  0
 22 28  1  0  0  0  0
 24 29  1  0  0  0  0
 24 30  1  0  0  0  0
 25 31  1  0  0  0  0
 26 32  2  0  0  0  0
 26 33  1  0  0  0  0
 27 34  1  0  0  0  0
 28 35  2  0  0  0  0
 29 36  2  0  0  0  0
 29 37  1  0  0  0  0
 31 38  1  0  0  0  0
 31 39  1  0  0  0  0
 33 40  1  0  0  0  0
 33 41  1  0  0  0  0
 35 42  1  0  0  0  0
 37 43  1  0  0  0  0
 37 44  1  6  0  0  0
 40 45  1  0  0  0  0
 43 46  1  0  0  0  0
 43 47  1  0  0  0  0
 44 48  1  0  0  0  0
 45 49  2  0  0  0  0
 45 50  1  0  0  0  0
 46 51  2  0  0  0  0
 46 52  1  0  0  0  0
 48 53  1  0  0  0  0
 48 54  1  0  0  0  0
 50 55  1  0  0  0  0
 50 56  1  0  0  0  0
 52 57  1  0  0  0  0
 52 58  1  6  0  0  0
 55 59  1  0  0  0  0
 55 60  1  6  0  0  0
 57 61  1  0  0  0  0
 59 62  2  0  0  0  0
 59 63  1  0  0  0  0
 60 64  1  0  0  0  0
 61 65  2  0  0  0  0
 61 66  1  0  0  0  0
 63 67  1  0  0  0  0
 64 68  1  0  0  0  0
 64 69  1  0  0  0  0
 66 70  1  0  0  0  0
 66 71  1  6  0  0  0
 67 72  1  0  0  0  0
 67 73  1  1  0  0  0
 70 74  1  0  0  0  0
 72 75  2  0  0  0  0
 72 76  1  0  0  0  0
 73 77  1  0  0  0  0
 73 78  1  0  0  0  0
 74 79  2  0  0  0  0
 74 80  1  0  0  0  0
 76 81  1  0  0  0  0
 80 82  1  1  0  0  0
 82 83  1  0  0  0  0
 83 84  1  0  0  0  0
 83 85  1  0  0  0  0
 76 80  1  0  0  0  0
M  END
>  <MolRegNo>
72873

>  <m>
=

>  <Value>
6500

>  <Unit>
nM

>  <Type>
IC50

>  <pValue>
5.19

>  <Ligand Efficiency>
0

>  <Binding Efficiency>
0

>  <Surface Efficiency>
0

>  <Assay Index>
51979

>  <Assay Category>


>  <Assay Organism>


>  <Target ID>
17045

>  <Target Name>
Cytochrome P450 3A4

>  <Target Organism>
Homo sapiens

>  <Target Description>
Target is a single protein chain

>  <Sequence Accession>
P08684

>  <Reference>
J Med Chem 46 (9), 1716-1725 (2003)

>  <Pubmed ID>
12699389

>  <DOI>
10.1021/jm021012t

$$$$
12506
Actelion Java MolfileCreator 1.0

 51 53  0  0  1  0  0  0  0  0999 V2000
    0.0000   -0.0000   -0.0000 O   0  0  0  0  0  0  0  0  0  0  0  0
    1.1702    0.7151   -0.0000 C   0  0  0  0  0  0  0  0  0  0  0  0
    1.1377    2.1128   -0.0000 O   0  0  0  0  0  0  0  0  0  0  0  0
    2.3404    0.0650   -0.0000 C   0  0  0  0  0  0  0  0  0  0  0  0
   -0.0975    2.8279   -0.0000 C   0  0  0  0  0  0  0  0  0  0  0  0
    3.4780    0.7801   -0.0000 C   0  0  0  0  0  0  0  0  0  0  0  0
    2.3079   -1.2677   -0.0000 C   0  0  0  0  0  0  0  0  0  0  0  0
   -0.1300    4.2256   -0.0000 C   0  0  0  0  0  0  0  0  0  0  0  0
   -1.3327    2.1778   -0.0000 C   0  0  0  0  0  0  0  0  0  0  0  0
    4.6482    0.1300   -0.0000 O   0  0  0  0  0  0  0  0  0  0  0  0
    3.4455    2.1778   -0.0000 C   0  0  0  0  0  0  0  0  0  0  0  0
   -0.8776    5.4608   -0.0000 O   0  0  0  0  0  0  0  0  0  0  0  0
    1.0402    4.9408   -0.0000 C   0  0  0  0  0  0  0  0  0  0  0  0
   -1.5602    4.2581   -0.0000 C   0  0  0  0  0  0  0  0  0  0  0  0
   -2.5679    2.8929   -0.0000 C   0  0  0  0  0  0  0  0  0  0  0  0
    2.7954   -3.9656   -0.0000 C   0  0  0  0  0  0  0  0  0  0  0  0
    4.6157    2.8929   -0.0000 C   0  0  0  0  0  0  0  0  0  0  0  0
    2.2103    2.8929   -0.0000 C   0  0  0  0  0  0  0  0  0  0  0  0
    2.1778    4.2907   -0.0000 O   0  0  0  0  0  0  0  0  0  0  0  0
    1.0077    6.3385   -0.0000 C   0  0  0  0  0  0  0  0  0  0  0  0
    2.0803   -2.7304   -0.0000 O   0  0  0  0  0  0  0  0  0  0  0  0
    2.0803   -5.1033   -0.0000 C   0  0  0  0  0  0  0  0  0  0  0  0
    7.7687    0.5526   -0.0000 O   0  0  0  0  0  0  0  0  0  0  0  0
    4.5832    4.2907   -0.0000 C   0  0  0  0  0  0  0  0  0  0  0  0
    2.1453    7.0536   -0.0000 C   0  0  0  0  0  0  0  0  0  0  0  0
   -0.2275    7.0536   -0.0000 C   0  0  0  0  0  0  0  0  0  0  0  0
    0.6826   -2.6979   -0.0000 C   0  0  0  0  0  0  0  0  0  0  0  0
    0.6826   -5.0708   -0.0000 C   0  0  0  0  0  0  0  0  0  0  0  0
    7.7362   -1.2352   -0.0000 C   0  0  0  0  0  0  0  0  0  0  0  0
    5.2333    5.5258   -0.0000 O   0  0  0  0  0  0  0  0  0  0  0  0
    3.3480    5.0058   -0.0000 C   0  0  0  0  0  0  0  0  0  0  0  0
    5.9159    4.3232   -0.0000 C   0  0  0  0  0  0  0  0  0  0  0  0
    2.1128    8.4513   -0.0000 O   0  0  0  0  0  0  0  0  0  0  0  0
    3.3155    6.4035   -0.0000 C   0  0  0  0  0  0  0  0  0  0  0  0
   -0.0325   -3.8681   -0.0000 C   0  0  0  0  0  0  0  0  0  0  0  0
   -0.0325   -1.4627   -0.0000 C   0  0  0  0  0  0  0  0  0  0  0  0
   -0.5526   -5.7209   -0.0000 O   0  0  0  0  0  0  0  0  0  0  0  0
    0.6501   -6.4360   -0.0000 C   0  0  0  0  0  0  0  0  0  0  0  0
    7.0211   -0.0000   -0.0000 O   0  0  0  0  0  0  0  0  0  0  0  0
    7.0211   -2.3729   -0.0000 C   0  0  0  0  0  0  0  0  0  0  0  0
    4.4857    7.1186   -0.0000 C   0  0  0  0  0  0  0  0  0  0  0  0
   -1.4302   -3.8356   -0.0000 O   0  0  0  0  0  0  0  0  0  0  0  0
   -1.7553   -5.0058   -0.0000 C   0  0  0  0  0  0  0  0  0  0  0  0
    5.6234    0.0325   -0.0000 C   0  0  0  0  0  0  0  0  0  0  0  0
    7.6712   -3.5430   -0.0000 O   0  0  0  0  0  0  0  0  0  0  0  0
    5.6234   -2.3404   -0.0000 C   0  0  0  0  0  0  0  0  0  0  0  0
    4.9082   -1.1377   -0.0000 C   0  0  0  0  0  0  0  0  0  0  0  0
    4.9082    1.2677   -0.0000 C   0  0  0  0  0  0  0  0  0  0  0  0
    4.9082   -3.5105   -0.0000 N   0  0  0  0  0  0  0  0  0  0  0  0
    5.5583   -4.6807   -0.0000 C   0  0  0  0  0  0  0  0  0  0  0  0
    3.5105   -3.4780   -0.0000 C   0  0  0  0  0  0  0  0  0  0  0  0
  1  2  2  0  0  0  0
  2  3  1  0  0  0  0
  2  4  1  0  0  0  0
  3  5  1  0  0  0  0
  4  6  1  0  0  0  0
  4  7  1  1  0  0  0
  5  8  1  0  0  0  0
  5  9  1  6  0  0  0
  6 10  1  6  0  0  0
  6 11  1  0  0  0  0
  8 12  1  1  0  0  0
  8 13  1  0  0  0  0
  8 14  1  0  0  0  0
  9 15  1  0  0  0  0
 16 10  1  1  0  0  0
 11 17  1  0  0  0  0
 11 18  1  6  0  0  0
 13 19  1  1  0  0  0
 13 20  1  0  0  0  0
 16 21  1  0  0  0  0
 16 22  1  0  0  0  0
 17 23  1  6  0  0  0
 17 24  1  0  0  0  0
 20 25  1  0  0  0  0
 20 26  1  1  0  0  0
 21 27  1  0  0  0  0
 22 28  1  0  0  0  0
 29 23  1  1  0  0  0
 24 30  1  1  0  0  0
 24 31  1  0  0  0  0
 24 32  1  0  0  0  0
 25 33  2  0  0  0  0
 25 34  1  0  0  0  0
 27 35  1  0  0  0  0
 27 36  1  6  0  0  0
 28 37  1  1  0  0  0
 28 38  1  0  0  0  0
 29 39  1  0  0  0  0
 29 40  1  0  0  0  0
 34 41  1  6  0  0  0
 35 42  1  1  0  0  0
 37 43  1  0  0  0  0
 39 44  1  0  0  0  0
 40 45  1  6  0  0  0
 40 46  1  0  0  0  0
 44 47  1  0  0  0  0
 44 48  1  1  0  0  0
 46 49  1  1  0  0  0
 49 50  1  0  0  0  0
 49 51  1  0  0  0  0
 28 35  1  0  0  0  0
 31 34  1  0  0  0  0
 46 47  1  0  0  0  0
M  END
>  <MolRegNo>
12506

>  <m>
=

>  <Value>
33000

>  <Unit>
nM

>  <Type>
IC50

>  <pValue>
4.48

>  <Ligand Efficiency>
0

>  <Binding Efficiency>
0

>  <Surface Efficiency>
0

>  <Assay Index>
51979

>  <Assay Category>


>  <Assay Organism>


>  <Target ID>
17045

>  <Target Name>
Cytochrome P450 3A4

>  <Target Organism>
Homo sapiens

>  <Target Description>
Target is a single protein chain

>  <Sequence Accession>
P08684

>  <Reference>
J Med Chem 46 (9), 1716-1725 (2003)

>  <Pubmed ID>
12699389

>  <DOI>
10.1021/jm021012t

$$$$
71516
Actelion Java MolfileCreator 1.0

 59 67  0  0  0  0  0  0  0  0999 V2000
    0.0000   -0.0000   -0.0000 O   0  0  0  0  0  0  0  0  0  0  0  0
   -0.3844    1.4502   -0.0000 C   0  0  0  0  0  0  0  0  0  0  0  0
   -1.8346    1.8695   -0.0000 O   0  0  0  0  0  0  0  0  0  0  0  0
    0.6639    2.4810   -0.0000 C   0  0  0  0  0  0  0  0  0  0  0  0
   -2.9178    0.8561   -0.0000 C   0  0  0  0  0  0  0  0  0  0  0  0
    1.9219    1.7821   -0.0000 C   0  0  0  0  0  0  0  0  0  0  0  0
   -0.6115    3.2498   -0.0000 C   0  0  0  0  0  0  0  0  0  0  0  0
    1.9219    3.2323   -0.0000 C   0  0  0  0  0  0  0  0  0  0  0  0
    1.9569    0.3145   -0.0000 C   0  0  0  0  0  0  0  0  0  0  0  0
    3.1450    2.5859   -0.0000 C   0  0  0  0  0  0  0  0  0  0  0  0
   -2.0442    2.7955   -0.0000 N   0  0  0  0  0  0  0  0  0  0  0  0
   -0.6290    4.7349   -0.0000 C   0  0  0  0  0  0  0  0  0  0  0  0
    1.9045    4.7524   -0.0000 C   0  0  0  0  0  0  0  0  0  0  0  0
    0.6814   -0.4543   -0.0000 O   0  0  0  0  0  0  0  0  0  0  0  0
    3.2498   -0.3669   -0.0000 C   0  0  0  0  0  0  0  0  0  0  0  0
    4.4379    1.9394   -0.0000 C   0  0  0  0  0  0  0  0  0  0  0  0
   -2.9353    4.0011   -0.0000 C   0  0  0  0  0  0  0  0  0  0  0  0
   -2.0617    5.2241   -0.0000 C   0  0  0  0  0  0  0  0  0  0  0  0
   -1.9394    6.9713   -0.0000 C   0  0  0  0  0  0  0  0  0  0  0  0
    0.6115    5.4862   -0.0000 C   0  0  0  0  0  0  0  0  0  0  0  0
    3.1624    5.4862   -0.0000 C   0  0  0  0  0  0  0  0  0  0  0  0
    0.7164   -1.9219   -0.0000 C   0  0  0  0  0  0  0  0  0  0  0  0
    4.5078    0.4543   -0.0000 C   0  0  0  0  0  0  0  0  0  0  0  0
    5.8182    2.4810   -0.0000 C   0  0  0  0  0  0  0  0  0  0  0  0
   -4.4379    4.1758   -0.0000 C   0  0  0  0  0  0  0  0  0  0  0  0
   -2.6907    6.6044   -0.0000 C   0  0  0  0  0  0  0  0  0  0  0  0
   -0.6814    7.7226   -0.0000 C   0  0  0  0  0  0  0  0  0  0  0  0
    0.5940    7.0063   -0.0000 N   0  0  0  0  0  0  0  0  0  0  0  0
    3.1450    7.0063   -0.0000 C   0  0  0  0  0  0  0  0  0  0  0  0
    5.9056    0.0699   -0.0000 N   0  0  0  0  0  0  0  0  0  0  0  0
    6.7267    1.3453   -0.0000 C   0  0  0  0  0  0  0  0  0  0  0  0
    6.3424    3.8788   -0.0000 C   0  0  0  0  0  0  0  0  0  0  0  0
    4.3156    2.9353   -0.0000 C   0  0  0  0  0  0  0  0  0  0  0  0
   -5.0669    5.5561   -0.0000 C   0  0  0  0  0  0  0  0  0  0  0  0
   -4.1758    6.7792   -0.0000 C   0  0  0  0  0  0  0  0  0  0  0  0
    1.8520    7.7576   -0.0000 C   0  0  0  0  0  0  0  0  0  0  0  0
    3.1275    8.5089   -0.0000 O   0  0  0  0  0  0  0  0  0  0  0  0
    4.4204    6.2725   -0.0000 C   0  0  0  0  0  0  0  0  0  0  0  0
    6.4122   -1.3104   -0.0000 C   0  0  0  0  0  0  0  0  0  0  0  0
    8.1594    1.5900   -0.0000 C   0  0  0  0  0  0  0  0  0  0  0  0
    5.3989    5.0320   -0.0000 N   0  0  0  0  0  0  0  0  0  0  0  0
    7.7751    4.1059   -0.0000 C   0  0  0  0  0  0  0  0  0  0  0  0
    4.0360    4.4030   -0.0000 C   0  0  0  0  0  0  0  0  0  0  0  0
    5.6959    7.0238   -0.0000 C   0  0  0  0  0  0  0  0  0  0  0  0
    9.5922    1.8520   -0.0000 O   0  0  0  0  0  0  0  0  0  0  0  0
    8.3866    0.1398   -0.0000 C   0  0  0  0  0  0  0  0  0  0  0  0
    8.7011    2.9702   -0.0000 C   0  0  0  0  0  0  0  0  0  0  0  0
    5.9230    6.4472   -0.0000 C   0  0  0  0  0  0  0  0  0  0  0  0
    8.2992    5.5037   -0.0000 C   0  0  0  0  0  0  0  0  0  0  0  0
    9.1903    4.5253   -0.0000 C   0  0  0  0  0  0  0  0  0  0  0  0
    7.2334   -0.7862   -0.0000 O   0  0  0  0  0  0  0  0  0  0  0  0
    9.7669   -0.3669   -0.0000 O   0  0  0  0  0  0  0  0  0  0  0  0
   10.1338    3.2149   -0.0000 O   0  0  0  0  0  0  0  0  0  0  0  0
    7.3557    6.6743   -0.0000 C   0  0  0  0  0  0  0  0  0  0  0  0
    9.5397    5.9754   -0.0000 C   0  0  0  0  0  0  0  0  0  0  0  0
    9.9940   -1.8171   -0.0000 C   0  0  0  0  0  0  0  0  0  0  0  0
   11.0423    2.0966   -0.0000 C   0  0  0  0  0  0  0  0  0  0  0  0
   10.4832    0.7338   -0.0000 O   0  0  0  0  0  0  0  0  0  0  0  0
   12.4750    2.3413   -0.0000 C   0  0  0  0  0  0  0  0  0  0  0  0
  1  2  2  0  0  0  0
  2  3  1  0  0  0  0
  2  4  1  0  0  0  0
  3  5  1  0  0  0  0
  4  6  1  1  0  0  0
  4  7  1  0  0  0  0
  4  8  1  0  0  0  0
  6  9  2  0  0  0  0
  6 10  1  0  0  0  0
  7 11  1  0  0  0  0
  7 12  2  0  0  0  0
 13  8  1  6  0  0  0
  9 14  1  0  0  0  0
  9 15  1  0  0  0  0
 10 16  2  0  0  0  0
 11 17  1  0  0  0  0
 12 18  1  0  0  0  0
 12 19  1  0  0  0  0
 13 20  1  0  0  0  0
 13 21  1  0  0  0  0
 14 22  1  0  0  0  0
 15 23  2  0  0  0  0
 16 24  1  0  0  0  0
 17 25  1  0  0  0  0
 18 26  1  0  0  0  0
 19 27  1  0  0  0  0
 20 28  1  0  0  0  0
 21 29  1  0  0  0  0
 23 30  1  0  0  0  0
 24 31  1  0  0  0  0
 24 32  1  0  0  0  0
 24 33  1  6  0  0  0
 25 34  2  0  0  0  0
 26 35  2  0  0  0  0
 28 36  1  0  0  0  0
 29 37  1  6  0  0  0
 29 38  1  0  0  0  0
 30 39  1  0  0  0  0
 31 40  1  0  0  0  0
 32 41  1  6  0  0  0
 32 42  1  0  0  0  0
 33 43  1  0  0  0  0
 38 44  1  0  0  0  0
 40 45  1  6  0  0  0
 40 46  1  0  0  0  0
 40 47  1  0  0  0  0
 41 48  1  0  0  0  0
 42 49  1  0  0  0  0
 42 50  1  1  0  0  0
 46 51  2  0  0  0  0
 46 52  1  0  0  0  0
 47 53  1  6  0  0  0
 48 54  1  0  0  0  0
 50 55  1  0  0  0  0
 52 56  1  0  0  0  0
 53 57  1  0  0  0  0
 57 58  2  0  0  0  0
 57 59  1  0  0  0  0
 16 23  1  0  0  0  0
 17 18  2  0  0  0  0
 27 28  1  0  0  0  0
 29 36  1  0  0  0  0
 31 30  1  1  0  0  0
 34 35  1  0  0  0  0
 41 43  1  0  0  0  0
 42 47  1  0  0  0  0
 49 54  2  0  0  0  0
M  END
>  <MolRegNo>
71516

>  <m>
=

>  <Value>
26000

>  <Unit>
nM

>  <Type>
IC50

>  <pValue>
4.58

>  <Ligand Efficiency>
0

>  <Binding Efficiency>
0

>  <Surface Efficiency>
0

>  <Assay Index>
51979

>  <Assay Category>


>  <Assay Organism>


>  <Target ID>
17045

>  <Target Name>
Cytochrome P450 3A4

>  <Target Organism>
Homo sapiens

>  <Target Description>
Target is a single protein chain

>  <Sequence Accession>
P08684

>  <Reference>
J Med Chem 46 (9), 1716-1725 (2003)

>  <Pubmed ID>
12699389

>  <DOI>
10.1021/jm021012t

$$$$
156650
Actelion Java MolfileCreator 1.0

 36 40  0  0  1  0  0  0  0  0999 V2000
    0.0000   -0.0000   -0.0000 Cl  0  0  0  0  0  0  0  0  0  0  0  0
   -0.7518    1.3023   -0.0000 C   0  0  0  0  0  0  0  0  0  0  0  0
   -0.0269    2.6046   -0.0000 C   0  0  0  0  0  0  0  0  0  0  0  0
   -2.2421    1.3157   -0.0000 C   0  0  0  0  0  0  0  0  0  0  0  0
   -0.7787    3.9069   -0.0000 C   0  0  0  0  0  0  0  0  0  0  0  0
    1.6648    3.3699   -0.0000 C   0  0  0  0  0  0  0  0  0  0  0  0
   -2.9939    2.6180   -0.0000 C   0  0  0  0  0  0  0  0  0  0  0  0
   -2.2689    3.9203   -0.0000 C   0  0  0  0  0  0  0  0  0  0  0  0
    2.9402    4.1217   -0.0000 O   0  0  0  0  0  0  0  0  0  0  0  0
    0.5370    4.3768   -0.0000 O   0  0  0  0  0  0  0  0  0  0  0  0
    2.9000    2.5643   -0.0000 C   0  0  0  0  0  0  0  0  0  0  0  0
   -4.4976    2.6314   -0.0000 Cl  0  0  0  0  0  0  0  0  0  0  0  0
    2.6046    5.5851   -0.0000 C   0  0  0  0  0  0  0  0  0  0  0  0
    1.1143    5.7462   -0.0000 C   0  0  0  0  0  0  0  0  0  0  0  0
    4.2157    3.2625   -0.0000 N   0  0  0  0  0  0  0  0  0  0  0  0
    3.5847    6.7129   -0.0000 C   0  0  0  0  0  0  0  0  0  0  0  0
    4.4305    4.7527   -0.0000 C   0  0  0  0  0  0  0  0  0  0  0  0
    5.5314    2.6180   -0.0000 C   0  0  0  0  0  0  0  0  0  0  0  0
    3.1148    8.1360   -0.0000 O   0  0  0  0  0  0  0  0  0  0  0  0
    5.8939    4.9944   -0.0000 N   0  0  0  0  0  0  0  0  0  0  0  0
    6.5652    3.6652   -0.0000 C   0  0  0  0  0  0  0  0  0  0  0  0
    4.0948    9.2637   -0.0000 C   0  0  0  0  0  0  0  0  0  0  0  0
    5.5314    8.9684   -0.0000 C   0  0  0  0  0  0  0  0  0  0  0  0
    3.5981   10.6869   -0.0000 C   0  0  0  0  0  0  0  0  0  0  0  0
    6.5115   10.0961   -0.0000 C   0  0  0  0  0  0  0  0  0  0  0  0
    4.5782   11.8012   -0.0000 C   0  0  0  0  0  0  0  0  0  0  0  0
    6.0147   11.5327   -0.0000 C   0  0  0  0  0  0  0  0  0  0  0  0
    6.9948   12.6605   -0.0000 N   0  0  0  0  0  0  0  0  0  0  0  0
    6.5249   14.0836   -0.0000 C   0  0  0  0  0  0  0  0  0  0  0  0
    8.4582   12.3651   -0.0000 C   0  0  0  0  0  0  0  0  0  0  0  0
    7.5184   15.2113   -0.0000 C   0  0  0  0  0  0  0  0  0  0  0  0
    9.4249   13.4928   -0.0000 C   0  0  0  0  0  0  0  0  0  0  0  0
    8.9550   14.9025   -0.0000 N   0  0  0  0  0  0  0  0  0  0  0  0
    9.9350   16.0303   -0.0000 C   0  0  0  0  0  0  0  0  0  0  0  0
    9.4651   17.4534   -0.0000 O   0  0  0  0  0  0  0  0  0  0  0  0
   11.3716   15.7349   -0.0000 C   0  0  0  0  0  0  0  0  0  0  0  0
  1  2  1  0  0  0  0
  2  3  2  0  0  0  0
  2  4  1  0  0  0  0
  3  5  1  0  0  0  0
  3  6  1  0  0  0  0
  4  7  2  0  0  0  0
  5  8  2  0  0  0  0
  6  9  1  0  0  0  0
  6 10  1  0  0  0  0
  6 11  1  6  0  0  0
  7 12  1  0  0  0  0
  9 13  1  0  0  0  0
 10 14  1  0  0  0  0
 11 15  1  0  0  0  0
 13 16  1  1  0  0  0
 15 17  1  0  0  0  0
 15 18  1  0  0  0  0
 16 19  1  0  0  0  0
 17 20  2  0  0  0  0
 18 21  2  0  0  0  0
 19 22  1  0  0  0  0
 22 23  2  0  0  0  0
 22 24  1  0  0  0  0
 23 25  1  0  0  0  0
 24 26  2  0  0  0  0
 25 27  2  0  0  0  0
 27 28  1  0  0  0  0
 28 29  1  0  0  0  0
 28 30  1  0  0  0  0
 29 31  1  0  0  0  0
 30 32  1  0  0  0  0
 31 33  1  0  0  0  0
 33 34  1  0  0  0  0
 34 35  2  0  0  0  0
 34 36  1  0  0  0  0
  7  8  1  0  0  0  0
 13 14  1  0  0  0  0
 20 21  1  0  0  0  0
 26 27  1  0  0  0  0
 32 33  1  0  0  0  0
M  END
>  <MolRegNo>
156650

>  <m>
=

>  <Value>
897

>  <Unit>
nM

>  <Type>
IC50

>  <pValue>
6.05

>  <Ligand Efficiency>
0

>  <Binding Efficiency>
0

>  <Surface Efficiency>
0

>  <Assay Index>
4331

>  <Assay Category>


>  <Assay Organism>
Rattus norvegicus

>  <Target ID>
17045

>  <Target Name>
Cytochrome P450 3A4

>  <Target Organism>
Homo sapiens

>  <Target Description>
Target is a single protein chain

>  <Sequence Accession>
P08684

>  <Reference>
J Med Chem 35 (15), 2818-2825 (1992)

>  <Pubmed ID>
1495014

>  <DOI>
10.1021/jm00093a015

$$$$
156572
Actelion Java MolfileCreator 1.0

 36 40  0  0  0  0  0  0  0  0999 V2000
    0.0000   -0.0000   -0.0000 Cl  0  0  0  0  0  0  0  0  0  0  0  0
    0.6031    1.3836   -0.0000 C   0  0  0  0  0  0  0  0  0  0  0  0
    2.0812    1.5491   -0.0000 C   0  0  0  0  0  0  0  0  0  0  0  0
   -0.2956    2.6134   -0.0000 C   0  0  0  0  0  0  0  0  0  0  0  0
    2.6843    2.9327   -0.0000 C   0  0  0  0  0  0  0  0  0  0  0  0
    2.9563    0.3429   -0.0000 C   0  0  0  0  0  0  0  0  0  0  0  0
    0.3075    3.9969   -0.0000 C   0  0  0  0  0  0  0  0  0  0  0  0
    1.7856    4.1625   -0.0000 C   0  0  0  0  0  0  0  0  0  0  0  0
    4.0561    1.3599   -0.0000 O   0  0  0  0  0  0  0  0  0  0  0  0
    3.5594   -1.0170   -0.0000 O   0  0  0  0  0  0  0  0  0  0  0  0
    1.6437   -0.4021   -0.0000 C   0  0  0  0  0  0  0  0  0  0  0  0
   -0.5913    5.2268   -0.0000 Cl  0  0  0  0  0  0  0  0  0  0  0  0
    5.3450    0.6149   -0.0000 C   0  0  0  0  0  0  0  0  0  0  0  0
    5.0376   -0.8514   -0.0000 C   0  0  0  0  0  0  0  0  0  0  0  0
    1.6319   -1.8920   -0.0000 N   0  0  0  0  0  0  0  0  0  0  0  0
    6.7049    1.2417   -0.0000 C   0  0  0  0  0  0  0  0  0  0  0  0
    0.4021   -2.7671   -0.0000 C   0  0  0  0  0  0  0  0  0  0  0  0
    2.8381   -2.7671   -0.0000 C   0  0  0  0  0  0  0  0  0  0  0  0
    6.8468    2.7435   -0.0000 O   0  0  0  0  0  0  0  0  0  0  0  0
    0.8514   -4.1861   -0.0000 N   0  0  0  0  0  0  0  0  0  0  0  0
    2.3651   -4.1861   -0.0000 C   0  0  0  0  0  0  0  0  0  0  0  0
    8.2067    3.3702   -0.0000 C   0  0  0  0  0  0  0  0  0  0  0  0
    8.3486    4.8720   -0.0000 C   0  0  0  0  0  0  0  0  0  0  0  0
    9.4129    2.4951   -0.0000 C   0  0  0  0  0  0  0  0  0  0  0  0
    9.7085    5.4987   -0.0000 C   0  0  0  0  0  0  0  0  0  0  0  0
   10.7728    3.1219   -0.0000 C   0  0  0  0  0  0  0  0  0  0  0  0
   10.9147    4.6237   -0.0000 C   0  0  0  0  0  0  0  0  0  0  0  0
   12.2746    5.2504   -0.0000 N   0  0  0  0  0  0  0  0  0  0  0  0
   13.4808    4.3753   -0.0000 C   0  0  0  0  0  0  0  0  0  0  0  0
   12.4165    6.7522   -0.0000 C   0  0  0  0  0  0  0  0  0  0  0  0
   14.8407    5.0021   -0.0000 C   0  0  0  0  0  0  0  0  0  0  0  0
   13.7764    7.3790   -0.0000 C   0  0  0  0  0  0  0  0  0  0  0  0
   14.9826    6.5039   -0.0000 N   0  0  0  0  0  0  0  0  0  0  0  0
   16.3425    7.1306   -0.0000 C   0  0  0  0  0  0  0  0  0  0  0  0
   16.4844    8.6324   -0.0000 O   0  0  0  0  0  0  0  0  0  0  0  0
   17.5487    6.2556   -0.0000 C   0  0  0  0  0  0  0  0  0  0  0  0
  1  2  1  0  0  0  0
  2  3  2  0  0  0  0
  2  4  1  0  0  0  0
  3  5  1  0  0  0  0
  3  6  1  0  0  0  0
  4  7  2  0  0  0  0
  5  8  2  0  0  0  0
  6  9  1  0  0  0  0
  6 10  1  0  0  0  0
  6 11  1  1  0  0  0
  7 12  1  0  0  0  0
  9 13  1  0  0  0  0
 10 14  1  0  0  0  0
 11 15  1  0  0  0  0
 13 16  1  6  0  0  0
 15 17  1  0  0  0  0
 15 18  1  0  0  0  0
 16 19  1  0  0  0  0
 17 20  2  0  0  0  0
 18 21  2  0  0  0  0
 19 22  1  0  0  0  0
 22 23  2  0  0  0  0
 22 24  1  0  0  0  0
 23 25  1  0  0  0  0
 24 26  2  0  0  0  0
 25 27  2  0  0  0  0
 27 28  1  0  0  0  0
 28 29  1  0  0  0  0
 28 30  1  0  0  0  0
 29 31  1  0  0  0  0
 30 32  1  0  0  0  0
 31 33  1  0  0  0  0
 33 34  1  0  0  0  0
 34 35  2  0  0  0  0
 34 36  1  0  0  0  0
  7  8  1  0  0  0  0
 13 14  1  0  0  0  0
 20 21  1  0  0  0  0
 26 27  1  0  0  0  0
 32 33  1  0  0  0  0
M  END
>  <MolRegNo>
156572

>  <m>
=

>  <Value>
570

>  <Unit>
nM

>  <Type>
IC50

>  <pValue>
6.24

>  <Ligand Efficiency>
0

>  <Binding Efficiency>
0

>  <Surface Efficiency>
0

>  <Assay Index>
4332

>  <Assay Category>


>  <Assay Organism>
Rattus norvegicus

>  <Target ID>
17045

>  <Target Name>
Cytochrome P450 3A4

>  <Target Organism>
Homo sapiens

>  <Target Description>
Target is a single protein chain

>  <Sequence Accession>
P08684

>  <Reference>
J Med Chem 35 (15), 2818-2825 (1992)

>  <Pubmed ID>
1495014

>  <DOI>
10.1021/jm00093a015

$$$$
299725
Actelion Java MolfileCreator 1.0

 13 14  0  0  0  0  0  0  0  0999 V2000
    0.0000   -0.0000   -0.0000 S   0  0  0  0  0  0  0  0  0  0  0  0
    1.5359    0.3496   -0.0000 C   0  0  0  0  0  0  0  0  0  0  0  0
   -0.1623   -1.5609   -0.0000 C   0  0  0  0  0  0  0  0  0  0  0  0
    2.1603    1.8231   -0.0000 N   0  0  0  0  0  0  0  0  0  0  0  0
    2.3226   -1.0115   -0.0000 C   0  0  0  0  0  0  0  0  0  0  0  0
   -1.5484   -2.3601   -0.0000 C   0  0  0  0  0  0  0  0  0  0  0  0
    1.2612   -2.1978   -0.0000 C   0  0  0  0  0  0  0  0  0  0  0  0
    1.7857    1.8481   -0.0000 C   0  0  0  0  0  0  0  0  0  0  0  0
   -1.5609   -3.9335   -0.0000 C   0  0  0  0  0  0  0  0  0  0  0  0
   -2.9470   -1.5609   -0.0000 C   0  0  0  0  0  0  0  0  0  0  0  0
   -2.9595   -4.7202   -0.0000 N   0  0  0  0  0  0  0  0  0  0  0  0
   -4.3331   -2.3351   -0.0000 C   0  0  0  0  0  0  0  0  0  0  0  0
   -4.3456   -3.9085   -0.0000 C   0  0  0  0  0  0  0  0  0  0  0  0
  1  2  1  0  0  0  0
  1  3  1  0  0  0  0
  2  4  1  0  0  0  0
  2  5  2  0  0  0  0
  3  6  1  0  0  0  0
  3  7  2  0  0  0  0
  4  8  1  0  0  0  0
  6  9  2  0  0  0  0
  6 10  1  0  0  0  0
  9 11  1  0  0  0  0
 10 12  2  0  0  0  0
 11 13  2  0  0  0  0
  5  7  1  0  0  0  0
 12 13  1  0  0  0  0
M  END
>  <MolRegNo>
299725

>  <m>
=

>  <Value>
6300

>  <Unit>
nM

>  <Type>
IC50

>  <pValue>
5.2

>  <Ligand Efficiency>
0

>  <Binding Efficiency>
0

>  <Surface Efficiency>
0

>  <Assay Index>
238572

>  <Assay Category>


>  <Assay Organism>
Homo sapiens

>  <Target ID>
17045

>  <Target Name>
Cytochrome P450 3A4

>  <Target Organism>
Homo sapiens

>  <Target Description>
Target is a single protein chain

>  <Sequence Accession>
P08684

>  <Reference>
J Med Chem 48 (1), 224-239 (2005)

>  <Pubmed ID>
15634016

>  <DOI>
10.1021/jm049696n

$$$$
299737
Actelion Java MolfileCreator 1.0

 12 13  0  0  0  0  0  0  0  0999 V2000
    0.0000   -0.0000   -0.0000 N   0  0  0  0  0  0  0  0  0  0  0  0
    1.3156   -0.7604   -0.0000 C   0  0  0  0  0  0  0  0  0  0  0  0
   -0.0121    1.5449   -0.0000 C   0  0  0  0  0  0  0  0  0  0  0  0
    2.6312    0.0121   -0.0000 C   0  0  0  0  0  0  0  0  0  0  0  0
    1.3035    2.3174   -0.0000 C   0  0  0  0  0  0  0  0  0  0  0  0
    3.9468   -0.7483   -0.0000 C   0  0  0  0  0  0  0  0  0  0  0  0
    2.6191    1.5570   -0.0000 C   0  0  0  0  0  0  0  0  0  0  0  0
    5.3227   -0.1086   -0.0000 N   0  0  0  0  0  0  0  0  0  0  0  0
    4.0675   -2.2449   -0.0000 C   0  0  0  0  0  0  0  0  0  0  0  0
    6.3365   -1.2432   -0.0000 C   0  0  0  0  0  0  0  0  0  0  0  0
    5.5520   -2.5588   -0.0000 N   0  0  0  0  0  0  0  0  0  0  0  0
    6.0348   -3.6692   -0.0000 C   0  0  0  0  0  0  0  0  0  0  0  0
  1  2  2  0  0  0  0
  1  3  1  0  0  0  0
  2  4  1  0  0  0  0
  3  5  2  0  0  0  0
  4  6  1  0  0  0  0
  4  7  2  0  0  0  0
  6  8  1  0  0  0  0
  6  9  2  0  0  0  0
  8 10  2  0  0  0  0
  9 11  1  0  0  0  0
 11 12  1  0  0  0  0
  5  7  1  0  0  0  0
 10 11  1  0  0  0  0
M  END
>  <MolRegNo>
299737

>  <m>
=

>  <Value>
262000

>  <Unit>
nM

>  <Type>
IC50

>  <pValue>
0

>  <Ligand Efficiency>
0

>  <Binding Efficiency>
0

>  <Surface Efficiency>
0

>  <Assay Index>
238572

>  <Assay Category>


>  <Assay Organism>
Homo sapiens

>  <Target ID>
17045

>  <Target Name>
Cytochrome P450 3A4

>  <Target Organism>
Homo sapiens

>  <Target Description>
Target is a single protein chain

>  <Sequence Accession>
P08684

>  <Reference>
J Med Chem 48 (1), 224-239 (2005)

>  <Pubmed ID>
15634016

>  <DOI>
10.1021/jm049696n

$$$$
299558
Actelion Java MolfileCreator 1.0

 13 14  0  0  0  0  0  0  0  0999 V2000
    0.0000   -0.0000   -0.0000 N   0  0  0  0  0  0  0  0  0  0  0  0
    1.3139   -0.7594   -0.0000 C   0  0  0  0  0  0  0  0  0  0  0  0
   -0.0121    1.5430   -0.0000 C   0  0  0  0  0  0  0  0  0  0  0  0
    2.6278    0.0121   -0.0000 C   0  0  0  0  0  0  0  0  0  0  0  0
    1.3019    2.3144   -0.0000 C   0  0  0  0  0  0  0  0  0  0  0  0
    3.9418   -0.7474   -0.0000 C   0  0  0  0  0  0  0  0  0  0  0  0
    2.6158    1.5550   -0.0000 C   0  0  0  0  0  0  0  0  0  0  0  0
    5.3160   -0.1085   -0.0000 N   0  0  0  0  0  0  0  0  0  0  0  0
    4.0623   -2.2421   -0.0000 C   0  0  0  0  0  0  0  0  0  0  0  0
    6.3285   -1.2416   -0.0000 C   0  0  0  0  0  0  0  0  0  0  0  0
    5.5450   -2.5555   -0.0000 N   0  0  0  0  0  0  0  0  0  0  0  0
    6.1477   -3.9418   -0.0000 C   0  0  0  0  0  0  0  0  0  0  0  0
    5.4124   -4.9182   -0.0000 C   0  0  0  0  0  0  0  0  0  0  0  0
  1  2  2  0  0  0  0
  1  3  1  0  0  0  0
  2  4  1  0  0  0  0
  3  5  2  0  0  0  0
  4  6  1  0  0  0  0
  4  7  2  0  0  0  0
  6  8  1  0  0  0  0
  6  9  2  0  0  0  0
  8 10  2  0  0  0  0
  9 11  1  0  0  0  0
 11 12  1  0  0  0  0
 12 13  1  0  0  0  0
  5  7  1  0  0  0  0
 10 11  1  0  0  0  0
M  END
>  <MolRegNo>
299558

>  <m>
=

>  <Value>
79200

>  <Unit>
nM

>  <Type>
IC50

>  <pValue>
4.1

>  <Ligand Efficiency>
0

>  <Binding Efficiency>
0

>  <Surface Efficiency>
0

>  <Assay Index>
238572

>  <Assay Category>


>  <Assay Organism>
Homo sapiens

>  <Target ID>
17045

>  <Target Name>
Cytochrome P450 3A4

>  <Target Organism>
Homo sapiens

>  <Target Description>
Target is a single protein chain

>  <Sequence Accession>
P08684

>  <Reference>
J Med Chem 48 (1), 224-239 (2005)

>  <Pubmed ID>
15634016

>  <DOI>
10.1021/jm049696n

$$$$
299559
Actelion Java MolfileCreator 1.0

 18 20  0  0  0  0  0  0  0  0999 V2000
    0.0000   -0.0000   -0.0000 N   0  0  0  0  0  0  0  0  0  0  0  0
    0.9570    1.1460   -0.0000 C   0  0  0  0  0  0  0  0  0  0  0  0
    0.4844   -1.4060   -0.0000 C   0  0  0  0  0  0  0  0  0  0  0  0
    2.4221    0.8743   -0.0000 C   0  0  0  0  0  0  0  0  0  0  0  0
    1.9495   -1.6659   -0.0000 C   0  0  0  0  0  0  0  0  0  0  0  0
    3.2964    2.0912   -0.0000 C   0  0  0  0  0  0  0  0  0  0  0  0
    2.9065   -0.5199   -0.0000 C   0  0  0  0  0  0  0  0  0  0  0  0
    4.7850    2.1030   -0.0000 N   0  0  0  0  0  0  0  0  0  0  0  0
    2.8238    3.5327   -0.0000 C   0  0  0  0  0  0  0  0  0  0  0  0
    5.2458    3.5445   -0.0000 C   0  0  0  0  0  0  0  0  0  0  0  0
    4.0289    4.3951   -0.0000 N   0  0  0  0  0  0  0  0  0  0  0  0
    4.0171    5.9074   -0.0000 C   0  0  0  0  0  0  0  0  0  0  0  0
    2.7056    6.6754   -0.0000 C   0  0  0  0  0  0  0  0  0  0  0  0
    2.6938    8.1877   -0.0000 C   0  0  0  0  0  0  0  0  0  0  0  0
    1.3942    5.9429   -0.0000 C   0  0  0  0  0  0  0  0  0  0  0  0
    1.3823    8.9439   -0.0000 C   0  0  0  0  0  0  0  0  0  0  0  0
    0.0827    6.6990   -0.0000 C   0  0  0  0  0  0  0  0  0  0  0  0
    0.0709    8.2113   -0.0000 C   0  0  0  0  0  0  0  0  0  0  0  0
  1  2  2  0  0  0  0
  1  3  1  0  0  0  0
  2  4  1  0  0  0  0
  3  5  2  0  0  0  0
  4  6  1  0  0  0  0
  4  7  2  0  0  0  0
  6  8  1  0  0  0  0
  6  9  2  0  0  0  0
  8 10  2  0  0  0  0
  9 11  1  0  0  0  0
 11 12  1  0  0  0  0
 12 13  1  0  0  0  0
 13 14  2  0  0  0  0
 13 15  1  0  0  0  0
 14 16  1  0  0  0  0
 15 17  2  0  0  0  0
 16 18  2  0  0  0  0
  5  7  1  0  0  0  0
 10 11  1  0  0  0  0
 17 18  1  0  0  0  0
M  END
>  <MolRegNo>
299559

>  <m>
=

>  <Value>
75100

>  <Unit>
nM

>  <Type>
IC50

>  <pValue>
4.12

>  <Ligand Efficiency>
0

>  <Binding Efficiency>
0

>  <Surface Efficiency>
0

>  <Assay Index>
238572

>  <Assay Category>


>  <Assay Organism>
Homo sapiens

>  <Target ID>
17045

>  <Target Name>
Cytochrome P450 3A4

>  <Target Organism>
Homo sapiens

>  <Target Description>
Target is a single protein chain

>  <Sequence Accession>
P08684

>  <Reference>
J Med Chem 48 (1), 224-239 (2005)

>  <Pubmed ID>
15634016

>  <DOI>
10.1021/jm049696n

$$$$
299560
Actelion Java MolfileCreator 1.0

 12 13  0  0  0  0  0  0  0  0999 V2000
    0.0000   -0.0000   -0.0000 N   0  0  0  0  0  0  0  0  0  0  0  0
    1.2834    0.7605   -0.0000 C   0  0  0  0  0  0  0  0  0  0  0  0
   -1.2953    0.7605   -0.0000 C   0  0  0  0  0  0  0  0  0  0  0  0
    1.2715    2.2815   -0.0000 C   0  0  0  0  0  0  0  0  0  0  0  0
   -1.3071    2.2815   -0.0000 C   0  0  0  0  0  0  0  0  0  0  0  0
    2.5549    3.0421   -0.0000 N   0  0  0  0  0  0  0  0  0  0  0  0
   -0.0356    3.0421   -0.0000 C   0  0  0  0  0  0  0  0  0  0  0  0
    3.9214    2.4598   -0.0000 C   0  0  0  0  0  0  0  0  0  0  0  0
    2.6975    4.5512   -0.0000 C   0  0  0  0  0  0  0  0  0  0  0  0
    4.8958    3.5768   -0.0000 N   0  0  0  0  0  0  0  0  0  0  0  0
    4.1472    4.8839   -0.0000 C   0  0  0  0  0  0  0  0  0  0  0  0
    4.7413    6.2624   -0.0000 C   0  0  0  0  0  0  0  0  0  0  0  0
  1  2  2  0  0  0  0
  1  3  1  0  0  0  0
  2  4  1  0  0  0  0
  3  5  2  0  0  0  0
  4  6  1  0  0  0  0
  4  7  2  0  0  0  0
  6  8  1  0  0  0  0
  6  9  1  0  0  0  0
  8 10  2  0  0  0  0
  9 11  2  0  0  0  0
 11 12  1  0  0  0  0
  5  7  1  0  0  0  0
 10 11  1  0  0  0  0
M  END
>  <MolRegNo>
299560

>  <m>
=

>  <Value>
109000

>  <Unit>
nM

>  <Type>
IC50

>  <pValue>
0

>  <Ligand Efficiency>
0

>  <Binding Efficiency>
0

>  <Surface Efficiency>
0

>  <Assay Index>
238572

>  <Assay Category>


>  <Assay Organism>
Homo sapiens

>  <Target ID>
17045

>  <Target Name>
Cytochrome P450 3A4

>  <Target Organism>
Homo sapiens

>  <Target Description>
Target is a single protein chain

>  <Sequence Accession>
P08684

>  <Reference>
J Med Chem 48 (1), 224-239 (2005)

>  <Pubmed ID>
15634016

>  <DOI>
10.1021/jm049696n

$$$$
299716
Actelion Java MolfileCreator 1.0

 11 12  0  0  0  0  0  0  0  0999 V2000
    0.0000   -0.0000   -0.0000 S   0  0  0  0  0  0  0  0  0  0  0  0
    0.1181    1.4884   -0.0000 C   0  0  0  0  0  0  0  0  0  0  0  0
   -1.4766   -0.3071   -0.0000 C   0  0  0  0  0  0  0  0  0  0  0  0
    1.4057    2.2562   -0.0000 C   0  0  0  0  0  0  0  0  0  0  0  0
   -1.2521    2.1144   -0.0000 C   0  0  0  0  0  0  0  0  0  0  0  0
   -2.2444    1.0041   -0.0000 C   0  0  0  0  0  0  0  0  0  0  0  0
    1.3939    3.7682   -0.0000 C   0  0  0  0  0  0  0  0  0  0  0  0
    2.6932    1.5120   -0.0000 C   0  0  0  0  0  0  0  0  0  0  0  0
    2.6814    4.5242   -0.0000 N   0  0  0  0  0  0  0  0  0  0  0  0
    3.9808    2.2680   -0.0000 C   0  0  0  0  0  0  0  0  0  0  0  0
    3.9690    3.7800   -0.0000 C   0  0  0  0  0  0  0  0  0  0  0  0
  1  2  1  0  0  0  0
  1  3  1  0  0  0  0
  2  4  1  0  0  0  0
  2  5  2  0  0  0  0
  3  6  2  0  0  0  0
  4  7  2  0  0  0  0
  4  8  1  0  0  0  0
  7  9  1  0  0  0  0
  8 10  2  0  0  0  0
  9 11  2  0  0  0  0
  5  6  1  0  0  0  0
 10 11  1  0  0  0  0
M  END
>  <MolRegNo>
299716

>  <m>
=

>  <Value>
57000

>  <Unit>
nM

>  <Type>
IC50

>  <pValue>
4.24

>  <Ligand Efficiency>
0

>  <Binding Efficiency>
0

>  <Surface Efficiency>
0

>  <Assay Index>
238572

>  <Assay Category>


>  <Assay Organism>
Homo sapiens

>  <Target ID>
17045

>  <Target Name>
Cytochrome P450 3A4

>  <Target Organism>
Homo sapiens

>  <Target Description>
Target is a single protein chain

>  <Sequence Accession>
P08684

>  <Reference>
J Med Chem 48 (1), 224-239 (2005)

>  <Pubmed ID>
15634016

>  <DOI>
10.1021/jm049696n

$$$$
299718
Actelion Java MolfileCreator 1.0

 12 13  0  0  0  0  0  0  0  0999 V2000
    0.0000   -0.0000   -0.0000 S   0  0  0  0  0  0  0  0  0  0  0  0
   -0.1436    1.5075   -0.0000 C   0  0  0  0  0  0  0  0  0  0  0  0
    1.4716   -0.3111   -0.0000 C   0  0  0  0  0  0  0  0  0  0  0  0
   -1.4716    2.2852   -0.0000 C   0  0  0  0  0  0  0  0  0  0  0  0
    1.2204    2.1416   -0.0000 C   0  0  0  0  0  0  0  0  0  0  0  0
    2.2254    1.0170   -0.0000 C   0  0  0  0  0  0  0  0  0  0  0  0
   -2.7997    1.5314   -0.0000 C   0  0  0  0  0  0  0  0  0  0  0  0
   -1.4836    3.8166   -0.0000 C   0  0  0  0  0  0  0  0  0  0  0  0
    1.4596    3.3381   -0.0000 C   0  0  0  0  0  0  0  0  0  0  0  0
   -4.1277    2.2972   -0.0000 N   0  0  0  0  0  0  0  0  0  0  0  0
   -2.8116    4.5823   -0.0000 C   0  0  0  0  0  0  0  0  0  0  0  0
   -4.1397    3.8286   -0.0000 C   0  0  0  0  0  0  0  0  0  0  0  0
  1  2  1  0  0  0  0
  1  3  1  0  0  0  0
  2  4  1  0  0  0  0
  2  5  2  0  0  0  0
  3  6  2  0  0  0  0
  4  7  2  0  0  0  0
  4  8  1  0  0  0  0
  5  9  1  0  0  0  0
  7 10  1  0  0  0  0
  8 11  2  0  0  0  0
 10 12  2  0  0  0  0
  5  6  1  0  0  0  0
 11 12  1  0  0  0  0
M  END
>  <MolRegNo>
299718

>  <m>
=

>  <Value>
6000

>  <Unit>
nM

>  <Type>
IC50

>  <pValue>
5.22

>  <Ligand Efficiency>
0

>  <Binding Efficiency>
0

>  <Surface Efficiency>
0

>  <Assay Index>
238572

>  <Assay Category>


>  <Assay Organism>
Homo sapiens

>  <Target ID>
17045

>  <Target Name>
Cytochrome P450 3A4

>  <Target Organism>
Homo sapiens

>  <Target Description>
Target is a single protein chain

>  <Sequence Accession>
P08684

>  <Reference>
J Med Chem 48 (1), 224-239 (2005)

>  <Pubmed ID>
15634016

>  <DOI>
10.1021/jm049696n

$$$$
299577
Actelion Java MolfileCreator 1.0

 13 14  0  0  0  0  0  0  0  0999 V2000
    0.0000   -0.0000   -0.0000 S   0  0  0  0  0  0  0  0  0  0  0  0
   -0.1436    1.5080   -0.0000 C   0  0  0  0  0  0  0  0  0  0  0  0
    1.4721   -0.3112   -0.0000 C   0  0  0  0  0  0  0  0  0  0  0  0
   -1.4721    2.2859   -0.0000 C   0  0  0  0  0  0  0  0  0  0  0  0
    1.2207    2.1423   -0.0000 C   0  0  0  0  0  0  0  0  0  0  0  0
    2.2261    1.0173   -0.0000 C   0  0  0  0  0  0  0  0  0  0  0  0
    2.0705   -1.6875   -0.0000 C   0  0  0  0  0  0  0  0  0  0  0  0
   -2.8005    1.5319   -0.0000 C   0  0  0  0  0  0  0  0  0  0  0  0
   -1.4840    3.8178   -0.0000 C   0  0  0  0  0  0  0  0  0  0  0  0
    1.3404   -2.6569   -0.0000 O   0  0  0  0  0  0  0  0  0  0  0  0
   -4.1290    2.2979   -0.0000 N   0  0  0  0  0  0  0  0  0  0  0  0
   -2.8125    4.5838   -0.0000 C   0  0  0  0  0  0  0  0  0  0  0  0
   -4.1410    3.8298   -0.0000 C   0  0  0  0  0  0  0  0  0  0  0  0
  1  2  1  0  0  0  0
  1  3  1  0  0  0  0
  2  4  1  0  0  0  0
  2  5  2  0  0  0  0
  3  6  2  0  0  0  0
  3  7  1  0  0  0  0
  4  8  2  0  0  0  0
  4  9  1  0  0  0  0
  7 10  2  0  0  0  0
  8 11  1  0  0  0  0
  9 12  2  0  0  0  0
 11 13  2  0  0  0  0
  5  6  1  0  0  0  0
 12 13  1  0  0  0  0
M  END
>  <MolRegNo>
299577

>  <m>
=

>  <Value>
23900

>  <Unit>
nM

>  <Type>
IC50

>  <pValue>
4.62

>  <Ligand Efficiency>
0

>  <Binding Efficiency>
0

>  <Surface Efficiency>
0

>  <Assay Index>
238572

>  <Assay Category>


>  <Assay Organism>
Homo sapiens

>  <Target ID>
17045

>  <Target Name>
Cytochrome P450 3A4

>  <Target Organism>
Homo sapiens

>  <Target Description>
Target is a single protein chain

>  <Sequence Accession>
P08684

>  <Reference>
J Med Chem 48 (1), 224-239 (2005)

>  <Pubmed ID>
15634016

>  <DOI>
10.1021/jm049696n

$$$$
299620
Actelion Java MolfileCreator 1.0

 14 15  0  0  0  0  0  0  0  0999 V2000
    0.0000   -0.0000   -0.0000 S   0  0  0  0  0  0  0  0  0  0  0  0
   -0.1455    1.5282   -0.0000 C   0  0  0  0  0  0  0  0  0  0  0  0
    1.4918   -0.3153   -0.0000 C   0  0  0  0  0  0  0  0  0  0  0  0
   -1.4918    2.3165   -0.0000 C   0  0  0  0  0  0  0  0  0  0  0  0
    1.2371    2.1710   -0.0000 C   0  0  0  0  0  0  0  0  0  0  0  0
    2.0982   -1.7101   -0.0000 C   0  0  0  0  0  0  0  0  0  0  0  0
    2.2559    1.0309   -0.0000 C   0  0  0  0  0  0  0  0  0  0  0  0
   -2.8380    1.5524   -0.0000 C   0  0  0  0  0  0  0  0  0  0  0  0
   -1.5039    3.8689   -0.0000 C   0  0  0  0  0  0  0  0  0  0  0  0
    1.3584   -2.6925   -0.0000 O   0  0  0  0  0  0  0  0  0  0  0  0
    3.3110   -1.8314   -0.0000 C   0  0  0  0  0  0  0  0  0  0  0  0
   -4.1843    2.3286   -0.0000 N   0  0  0  0  0  0  0  0  0  0  0  0
   -2.8502    4.6451   -0.0000 C   0  0  0  0  0  0  0  0  0  0  0  0
   -4.1964    3.8811   -0.0000 C   0  0  0  0  0  0  0  0  0  0  0  0
  1  2  1  0  0  0  0
  1  3  1  0  0  0  0
  2  4  1  0  0  0  0
  2  5  2  0  0  0  0
  3  6  1  0  0  0  0
  3  7  2  0  0  0  0
  4  8  2  0  0  0  0
  4  9  1  0  0  0  0
  6 10  2  0  0  0  0
  6 11  1  0  0  0  0
  8 12  1  0  0  0  0
  9 13  2  0  0  0  0
 12 14  2  0  0  0  0
  5  7  1  0  0  0  0
 13 14  1  0  0  0  0
M  END
>  <MolRegNo>
299620

>  <m>
=

>  <Value>
27000

>  <Unit>
nM

>  <Type>
IC50

>  <pValue>
4.57

>  <Ligand Efficiency>
0

>  <Binding Efficiency>
0

>  <Surface Efficiency>
0

>  <Assay Index>
238572

>  <Assay Category>


>  <Assay Organism>
Homo sapiens

>  <Target ID>
17045

>  <Target Name>
Cytochrome P450 3A4

>  <Target Organism>
Homo sapiens

>  <Target Description>
Target is a single protein chain

>  <Sequence Accession>
P08684

>  <Reference>
J Med Chem 48 (1), 224-239 (2005)

>  <Pubmed ID>
15634016

>  <DOI>
10.1021/jm049696n

$$$$
299430
Actelion Java MolfileCreator 1.0

 11 12  0  0  0  0  0  0  0  0999 V2000
    0.0000   -0.0000   -0.0000 S   0  0  0  0  0  0  0  0  0  0  0  0
    1.4547    0.3312   -0.0000 C   0  0  0  0  0  0  0  0  0  0  0  0
   -0.7687    1.3128   -0.0000 C   0  0  0  0  0  0  0  0  0  0  0  0
    1.5730    1.8213   -0.0000 C   0  0  0  0  0  0  0  0  0  0  0  0
    0.2247    2.4482   -0.0000 C   0  0  0  0  0  0  0  0  0  0  0  0
    2.8621    2.5901   -0.0000 C   0  0  0  0  0  0  0  0  0  0  0  0
    2.8503    4.1039   -0.0000 C   0  0  0  0  0  0  0  0  0  0  0  0
    4.1512    1.8450   -0.0000 C   0  0  0  0  0  0  0  0  0  0  0  0
    4.1394    4.8608   -0.0000 N   0  0  0  0  0  0  0  0  0  0  0  0
    5.4403    2.6019   -0.0000 C   0  0  0  0  0  0  0  0  0  0  0  0
    5.4285    4.1157   -0.0000 C   0  0  0  0  0  0  0  0  0  0  0  0
  1  2  1  0  0  0  0
  1  3  1  0  0  0  0
  2  4  2  0  0  0  0
  3  5  2  0  0  0  0
  4  6  1  0  0  0  0
  6  7  2  0  0  0  0
  6  8  1  0  0  0  0
  7  9  1  0  0  0  0
  8 10  2  0  0  0  0
  9 11  2  0  0  0  0
  4  5  1  0  0  0  0
 10 11  1  0  0  0  0
M  END
>  <MolRegNo>
299430

>  <m>
=

>  <Value>
56900

>  <Unit>
nM

>  <Type>
IC50

>  <pValue>
4.25

>  <Ligand Efficiency>
0

>  <Binding Efficiency>
0

>  <Surface Efficiency>
0

>  <Assay Index>
238572

>  <Assay Category>


>  <Assay Organism>
Homo sapiens

>  <Target ID>
17045

>  <Target Name>
Cytochrome P450 3A4

>  <Target Organism>
Homo sapiens

>  <Target Description>
Target is a single protein chain

>  <Sequence Accession>
P08684

>  <Reference>
J Med Chem 48 (1), 224-239 (2005)

>  <Pubmed ID>
15634016

>  <DOI>
10.1021/jm049696n

$$$$
299438
Actelion Java MolfileCreator 1.0

 12 13  0  0  0  0  0  0  0  0999 V2000
    0.0000   -0.0000   -0.0000 S   0  0  0  0  0  0  0  0  0  0  0  0
    1.0164   -1.1253   -0.0000 C   0  0  0  0  0  0  0  0  0  0  0  0
    0.7502    1.3430   -0.0000 C   0  0  0  0  0  0  0  0  0  0  0  0
    2.3836   -0.4719   -0.0000 C   0  0  0  0  0  0  0  0  0  0  0  0
    2.2384    1.0406   -0.0000 C   0  0  0  0  0  0  0  0  0  0  0  0
    3.7025   -1.2342   -0.0000 C   0  0  0  0  0  0  0  0  0  0  0  0
    3.6904   -2.7587   -0.0000 C   0  0  0  0  0  0  0  0  0  0  0  0
    5.0213   -0.4598   -0.0000 C   0  0  0  0  0  0  0  0  0  0  0  0
    5.0092   -3.5210   -0.0000 N   0  0  0  0  0  0  0  0  0  0  0  0
    6.3402   -1.2221   -0.0000 C   0  0  0  0  0  0  0  0  0  0  0  0
    6.3281   -2.7466   -0.0000 C   0  0  0  0  0  0  0  0  0  0  0  0
    7.3807   -3.3516   -0.0000 F   0  0  0  0  0  0  0  0  0  0  0  0
  1  2  1  0  0  0  0
  1  3  1  0  0  0  0
  2  4  2  0  0  0  0
  3  5  2  0  0  0  0
  4  6  1  0  0  0  0
  6  7  2  0  0  0  0
  6  8  1  0  0  0  0
  7  9  1  0  0  0  0
  8 10  2  0  0  0  0
  9 11  2  0  0  0  0
 11 12  1  0  0  0  0
  4  5  1  0  0  0  0
 10 11  1  0  0  0  0
M  END
>  <MolRegNo>
299438

>  <m>
=

>  <Value>
114000

>  <Unit>
nM

>  <Type>
IC50

>  <pValue>
0

>  <Ligand Efficiency>
0

>  <Binding Efficiency>
0

>  <Surface Efficiency>
0

>  <Assay Index>
238572

>  <Assay Category>


>  <Assay Organism>
Homo sapiens

>  <Target ID>
17045

>  <Target Name>
Cytochrome P450 3A4

>  <Target Organism>
Homo sapiens

>  <Target Description>
Target is a single protein chain

>  <Sequence Accession>
P08684

>  <Reference>
J Med Chem 48 (1), 224-239 (2005)

>  <Pubmed ID>
15634016

>  <DOI>
10.1021/jm049696n

$$$$
299460
Actelion Java MolfileCreator 1.0

 12 13  0  0  0  0  0  0  0  0999 V2000
    0.0000   -0.0000   -0.0000 S   0  0  0  0  0  0  0  0  0  0  0  0
   -1.4908    0.3339   -0.0000 C   0  0  0  0  0  0  0  0  0  0  0  0
    0.7514    1.3238   -0.0000 C   0  0  0  0  0  0  0  0  0  0  0  0
   -1.6339    1.8366   -0.0000 C   0  0  0  0  0  0  0  0  0  0  0  0
   -0.2743    2.4687   -0.0000 C   0  0  0  0  0  0  0  0  0  0  0  0
   -2.9577    2.6119   -0.0000 C   0  0  0  0  0  0  0  0  0  0  0  0
   -0.0358    3.6614   -0.0000 C   0  0  0  0  0  0  0  0  0  0  0  0
   -4.2815    1.8605   -0.0000 C   0  0  0  0  0  0  0  0  0  0  0  0
   -2.9696    4.1384   -0.0000 C   0  0  0  0  0  0  0  0  0  0  0  0
   -5.6053    2.6238   -0.0000 N   0  0  0  0  0  0  0  0  0  0  0  0
   -4.2935    4.9017   -0.0000 C   0  0  0  0  0  0  0  0  0  0  0  0
   -5.6173    4.1503   -0.0000 C   0  0  0  0  0  0  0  0  0  0  0  0
  1  2  1  0  0  0  0
  1  3  1  0  0  0  0
  2  4  2  0  0  0  0
  3  5  2  0  0  0  0
  4  6  1  0  0  0  0
  5  7  1  0  0  0  0
  6  8  2  0  0  0  0
  6  9  1  0  0  0  0
  8 10  1  0  0  0  0
  9 11  2  0  0  0  0
 10 12  2  0  0  0  0
  4  5  1  0  0  0  0
 11 12  1  0  0  0  0
M  END
>  <MolRegNo>
299460

>  <m>
=

>  <Value>
80900

>  <Unit>
nM

>  <Type>
IC50

>  <pValue>
4.09

>  <Ligand Efficiency>
0

>  <Binding Efficiency>
0

>  <Surface Efficiency>
0

>  <Assay Index>
238572

>  <Assay Category>


>  <Assay Organism>
Homo sapiens

>  <Target ID>
17045

>  <Target Name>
Cytochrome P450 3A4

>  <Target Organism>
Homo sapiens

>  <Target Description>
Target is a single protein chain

>  <Sequence Accession>
P08684

>  <Reference>
J Med Chem 48 (1), 224-239 (2005)

>  <Pubmed ID>
15634016

>  <DOI>
10.1021/jm049696n

$$$$
299461
Actelion Java MolfileCreator 1.0

 13 14  0  0  0  0  0  0  0  0999 V2000
    0.0000   -0.0000   -0.0000 S   0  0  0  0  0  0  0  0  0  0  0  0
   -1.5102    0.3383   -0.0000 C   0  0  0  0  0  0  0  0  0  0  0  0
    0.7612    1.3411   -0.0000 C   0  0  0  0  0  0  0  0  0  0  0  0
   -1.6552    1.8606   -0.0000 C   0  0  0  0  0  0  0  0  0  0  0  0
   -0.2779    2.5010   -0.0000 C   0  0  0  0  0  0  0  0  0  0  0  0
   -2.9963    2.6460   -0.0000 C   0  0  0  0  0  0  0  0  0  0  0  0
   -0.0362    3.7092   -0.0000 C   0  0  0  0  0  0  0  0  0  0  0  0
   -4.3374    1.8848   -0.0000 C   0  0  0  0  0  0  0  0  0  0  0  0
   -3.0084    4.1924   -0.0000 C   0  0  0  0  0  0  0  0  0  0  0  0
   -5.6785    2.6580   -0.0000 N   0  0  0  0  0  0  0  0  0  0  0  0
   -4.3495    4.9657   -0.0000 C   0  0  0  0  0  0  0  0  0  0  0  0
   -5.6906    4.2045   -0.0000 C   0  0  0  0  0  0  0  0  0  0  0  0
   -6.7659    4.8328   -0.0000 F   0  0  0  0  0  0  0  0  0  0  0  0
  1  2  1  0  0  0  0
  1  3  1  0  0  0  0
  2  4  2  0  0  0  0
  3  5  2  0  0  0  0
  4  6  1  0  0  0  0
  5  7  1  0  0  0  0
  6  8  2  0  0  0  0
  6  9  1  0  0  0  0
  8 10  1  0  0  0  0
  9 11  2  0  0  0  0
 10 12  2  0  0  0  0
 12 13  1  0  0  0  0
  4  5  1  0  0  0  0
 11 12  1  0  0  0  0
M  END
>  <MolRegNo>
299461

>  <m>
=

>  <Value>
39100

>  <Unit>
nM

>  <Type>
IC50

>  <pValue>
4.41

>  <Ligand Efficiency>
0

>  <Binding Efficiency>
0

>  <Surface Efficiency>
0

>  <Assay Index>
238572

>  <Assay Category>


>  <Assay Organism>
Homo sapiens

>  <Target ID>
17045

>  <Target Name>
Cytochrome P450 3A4

>  <Target Organism>
Homo sapiens

>  <Target Description>
Target is a single protein chain

>  <Sequence Accession>
P08684

>  <Reference>
J Med Chem 48 (1), 224-239 (2005)

>  <Pubmed ID>
15634016

>  <DOI>
10.1021/jm049696n

$$$$
299523
Actelion Java MolfileCreator 1.0

 12 13  0  0  0  0  0  0  0  0999 V2000
    0.0000   -0.0000   -0.0000 N   0  0  0  0  0  0  0  0  0  0  0  0
   -1.3132   -0.7335   -0.0000 C   0  0  0  0  0  0  0  0  0  0  0  0
    1.2895   -0.7335   -0.0000 C   0  0  0  0  0  0  0  0  0  0  0  0
   -1.3250   -2.2242   -0.0000 C   0  0  0  0  0  0  0  0  0  0  0  0
    1.2777   -2.2242   -0.0000 C   0  0  0  0  0  0  0  0  0  0  0  0
   -2.6382   -2.9695   -0.0000 C   0  0  0  0  0  0  0  0  0  0  0  0
   -0.0355   -2.9577   -0.0000 C   0  0  0  0  0  0  0  0  0  0  0  0
   -2.6501   -4.4602   -0.0000 C   0  0  0  0  0  0  0  0  0  0  0  0
   -3.9515   -2.2123   -0.0000 C   0  0  0  0  0  0  0  0  0  0  0  0
   -3.9633   -5.2055   -0.0000 N   0  0  0  0  0  0  0  0  0  0  0  0
   -5.2647   -2.9577   -0.0000 C   0  0  0  0  0  0  0  0  0  0  0  0
   -5.2765   -4.4483   -0.0000 C   0  0  0  0  0  0  0  0  0  0  0  0
  1  2  2  0  0  0  0
  1  3  1  0  0  0  0
  2  4  1  0  0  0  0
  3  5  2  0  0  0  0
  4  6  1  0  0  0  0
  4  7  2  0  0  0  0
  6  8  2  0  0  0  0
  6  9  1  0  0  0  0
  8 10  1  0  0  0  0
  9 11  2  0  0  0  0
 10 12  2  0  0  0  0
  5  7  1  0  0  0  0
 11 12  1  0  0  0  0
M  END
>  <MolRegNo>
299523

>  <m>
=

>  <Value>
64700

>  <Unit>
nM

>  <Type>
IC50

>  <pValue>
4.19

>  <Ligand Efficiency>
0

>  <Binding Efficiency>
0

>  <Surface Efficiency>
0

>  <Assay Index>
238572

>  <Assay Category>


>  <Assay Organism>
Homo sapiens

>  <Target ID>
17045

>  <Target Name>
Cytochrome P450 3A4

>  <Target Organism>
Homo sapiens

>  <Target Description>
Target is a single protein chain

>  <Sequence Accession>
P08684

>  <Reference>
J Med Chem 48 (1), 224-239 (2005)

>  <Pubmed ID>
15634016

>  <DOI>
10.1021/jm049696n

$$$$
299431
Actelion Java MolfileCreator 1.0

 11 12  0  0  0  0  0  0  0  0999 V2000
    0.0000   -0.0000   -0.0000 N   0  0  0  0  0  0  0  0  0  0  0  0
   -1.3138   -0.7457   -0.0000 C   0  0  0  0  0  0  0  0  0  0  0  0
    1.2901   -0.7457   -0.0000 C   0  0  0  0  0  0  0  0  0  0  0  0
   -1.3256   -2.2370   -0.0000 C   0  0  0  0  0  0  0  0  0  0  0  0
    1.2783   -2.2370   -0.0000 C   0  0  0  0  0  0  0  0  0  0  0  0
   -2.6394   -2.9826   -0.0000 C   0  0  0  0  0  0  0  0  0  0  0  0
   -0.0355   -2.9826   -0.0000 C   0  0  0  0  0  0  0  0  0  0  0  0
   -2.7814   -4.4503   -0.0000 N   0  0  0  0  0  0  0  0  0  0  0  0
   -4.0124   -2.3553   -0.0000 C   0  0  0  0  0  0  0  0  0  0  0  0
   -4.2609   -4.7580   -0.0000 C   0  0  0  0  0  0  0  0  0  0  0  0
   -5.0302   -3.4679   -0.0000 N   0  0  0  0  0  0  0  0  0  0  0  0
  1  2  2  0  0  0  0
  1  3  1  0  0  0  0
  2  4  1  0  0  0  0
  3  5  2  0  0  0  0
  4  6  1  0  0  0  0
  4  7  2  0  0  0  0
  6  8  1  0  0  0  0
  6  9  2  0  0  0  0
  8 10  2  0  0  0  0
  9 11  1  0  0  0  0
  5  7  1  0  0  0  0
 10 11  1  0  0  0  0
M  END
>  <MolRegNo>
299431

>  <m>
=

>  <Value>
139900

>  <Unit>
nM

>  <Type>
IC50

>  <pValue>
0

>  <Ligand Efficiency>
0

>  <Binding Efficiency>
0

>  <Surface Efficiency>
0

>  <Assay Index>
238572

>  <Assay Category>


>  <Assay Organism>
Homo sapiens

>  <Target ID>
17045

>  <Target Name>
Cytochrome P450 3A4

>  <Target Organism>
Homo sapiens

>  <Target Description>
Target is a single protein chain

>  <Sequence Accession>
P08684

>  <Reference>
J Med Chem 48 (1), 224-239 (2005)

>  <Pubmed ID>
15634016

>  <DOI>
10.1021/jm049696n

$$$$
299452
Actelion Java MolfileCreator 1.0

 14 15  0  0  0  0  0  0  0  0999 V2000
    0.0000   -0.0000   -0.0000 S   0  0  0  0  0  0  0  0  0  0  0  0
   -0.2168   -1.4695   -0.0000 C   0  0  0  0  0  0  0  0  0  0  0  0
    1.4695    0.2891   -0.0000 C   0  0  0  0  0  0  0  0  0  0  0  0
   -1.5538   -2.1801   -0.0000 C   0  0  0  0  0  0  0  0  0  0  0  0
    1.1443   -2.1079   -0.0000 C   0  0  0  0  0  0  0  0  0  0  0  0
    2.1560   -1.0238   -0.0000 C   0  0  0  0  0  0  0  0  0  0  0  0
    2.1079    1.6863   -0.0000 C   0  0  0  0  0  0  0  0  0  0  0  0
   -1.5658   -3.6014   -0.0000 C   0  0  0  0  0  0  0  0  0  0  0  0
   -2.8908   -1.4454   -0.0000 C   0  0  0  0  0  0  0  0  0  0  0  0
    3.6255    1.8188   -0.0000 N   0  0  0  0  0  0  0  0  0  0  0  0
   -2.9028   -4.3362   -0.0000 N   0  0  0  0  0  0  0  0  0  0  0  0
   -4.2278   -2.1560   -0.0000 C   0  0  0  0  0  0  0  0  0  0  0  0
    4.2759    3.2039   -0.0000 O   0  0  0  0  0  0  0  0  0  0  0  0
   -4.2398   -3.5773   -0.0000 C   0  0  0  0  0  0  0  0  0  0  0  0
  1  2  1  0  0  0  0
  1  3  1  0  0  0  0
  2  4  1  0  0  0  0
  2  5  2  0  0  0  0
  3  6  2  0  0  0  0
  3  7  1  0  0  0  0
  4  8  2  0  0  0  0
  4  9  1  0  0  0  0
  7 10  2  0  0  0  0
  8 11  1  0  0  0  0
  9 12  2  0  0  0  0
 10 13  1  0  0  0  0
 11 14  2  0  0  0  0
  5  6  1  0  0  0  0
 12 14  1  0  0  0  0
M  END
>  <MolRegNo>
299452

>  <m>
=

>  <Value>
13000

>  <Unit>
nM

>  <Type>
IC50

>  <pValue>
4.89

>  <Ligand Efficiency>
0

>  <Binding Efficiency>
0

>  <Surface Efficiency>
0

>  <Assay Index>
238572

>  <Assay Category>


>  <Assay Organism>
Homo sapiens

>  <Target ID>
17045

>  <Target Name>
Cytochrome P450 3A4

>  <Target Organism>
Homo sapiens

>  <Target Description>
Target is a single protein chain

>  <Sequence Accession>
P08684

>  <Reference>
J Med Chem 48 (1), 224-239 (2005)

>  <Pubmed ID>
15634016

>  <DOI>
10.1021/jm049696n

$$$$
299633
Actelion Java MolfileCreator 1.0

 13 14  0  0  0  0  0  0  0  0999 V2000
    0.0000   -0.0000   -0.0000 S   0  0  0  0  0  0  0  0  0  0  0  0
   -0.1436    1.5080   -0.0000 C   0  0  0  0  0  0  0  0  0  0  0  0
    1.4721   -0.3112   -0.0000 C   0  0  0  0  0  0  0  0  0  0  0  0
   -1.4721    2.2859   -0.0000 C   0  0  0  0  0  0  0  0  0  0  0  0
    1.2207    2.1423   -0.0000 C   0  0  0  0  0  0  0  0  0  0  0  0
    2.2261    1.0173   -0.0000 C   0  0  0  0  0  0  0  0  0  0  0  0
    2.0705   -1.6875   -0.0000 C   0  0  0  0  0  0  0  0  0  0  0  0
   -2.8005    1.5319   -0.0000 C   0  0  0  0  0  0  0  0  0  0  0  0
   -1.4840    3.8178   -0.0000 C   0  0  0  0  0  0  0  0  0  0  0  0
    1.3404   -2.6569   -0.0000 N   0  0  0  0  0  0  0  0  0  0  0  0
   -4.1290    2.2979   -0.0000 N   0  0  0  0  0  0  0  0  0  0  0  0
   -2.8125    4.5838   -0.0000 C   0  0  0  0  0  0  0  0  0  0  0  0
   -4.1410    3.8298   -0.0000 C   0  0  0  0  0  0  0  0  0  0  0  0
  1  2  1  0  0  0  0
  1  3  1  0  0  0  0
  2  4  1  0  0  0  0
  2  5  2  0  0  0  0
  3  6  2  0  0  0  0
  3  7  1  0  0  0  0
  4  8  2  0  0  0  0
  4  9  1  0  0  0  0
  7 10  1  0  0  0  0
  8 11  1  0  0  0  0
  9 12  2  0  0  0  0
 11 13  2  0  0  0  0
  5  6  1  0  0  0  0
 12 13  1  0  0  0  0
M  END
>  <MolRegNo>
299633

>  <m>
=

>  <Value>
58700

>  <Unit>
nM

>  <Type>
IC50

>  <pValue>
4.23

>  <Ligand Efficiency>
0

>  <Binding Efficiency>
0

>  <Surface Efficiency>
0

>  <Assay Index>
238572

>  <Assay Category>


>  <Assay Organism>
Homo sapiens

>  <Target ID>
17045

>  <Target Name>
Cytochrome P450 3A4

>  <Target Organism>
Homo sapiens

>  <Target Description>
Target is a single protein chain

>  <Sequence Accession>
P08684

>  <Reference>
J Med Chem 48 (1), 224-239 (2005)

>  <Pubmed ID>
15634016

>  <DOI>
10.1021/jm049696n

$$$$
299641
Actelion Java MolfileCreator 1.0

 13 14  0  0  0  0  0  0  0  0999 V2000
    0.0000   -0.0000   -0.0000 O   0  0  0  0  0  0  0  0  0  0  0  0
   -1.3890   -0.6107   -0.0000 C   0  0  0  0  0  0  0  0  0  0  0  0
    1.0058   -1.1256   -0.0000 C   0  0  0  0  0  0  0  0  0  0  0  0
   -2.7182    0.1676   -0.0000 C   0  0  0  0  0  0  0  0  0  0  0  0
   -1.2693   -2.0955   -0.0000 C   0  0  0  0  0  0  0  0  0  0  0  0
    0.2275   -2.4308   -0.0000 C   0  0  0  0  0  0  0  0  0  0  0  0
    2.5026   -0.9579   -0.0000 C   0  0  0  0  0  0  0  0  0  0  0  0
   -4.0473   -0.5867   -0.0000 C   0  0  0  0  0  0  0  0  0  0  0  0
   -2.7301    1.7004   -0.0000 C   0  0  0  0  0  0  0  0  0  0  0  0
    3.1971   -1.9279   -0.0000 N   0  0  0  0  0  0  0  0  0  0  0  0
   -5.3765    0.1796   -0.0000 N   0  0  0  0  0  0  0  0  0  0  0  0
   -4.0593    2.4667   -0.0000 C   0  0  0  0  0  0  0  0  0  0  0  0
   -5.3884    1.7123   -0.0000 C   0  0  0  0  0  0  0  0  0  0  0  0
  1  2  1  0  0  0  0
  1  3  1  0  0  0  0
  2  4  1  0  0  0  0
  2  5  2  0  0  0  0
  3  6  2  0  0  0  0
  3  7  1  0  0  0  0
  4  8  2  0  0  0  0
  4  9  1  0  0  0  0
  7 10  1  0  0  0  0
  8 11  1  0  0  0  0
  9 12  2  0  0  0  0
 11 13  2  0  0  0  0
  5  6  1  0  0  0  0
 12 13  1  0  0  0  0
M  END
>  <MolRegNo>
299641

>  <m>
=

>  <Value>
47100

>  <Unit>
nM

>  <Type>
IC50

>  <pValue>
4.33

>  <Ligand Efficiency>
0

>  <Binding Efficiency>
0

>  <Surface Efficiency>
0

>  <Assay Index>
238572

>  <Assay Category>


>  <Assay Organism>
Homo sapiens

>  <Target ID>
17045

>  <Target Name>
Cytochrome P450 3A4

>  <Target Organism>
Homo sapiens

>  <Target Description>
Target is a single protein chain

>  <Sequence Accession>
P08684

>  <Reference>
J Med Chem 48 (1), 224-239 (2005)

>  <Pubmed ID>
15634016

>  <DOI>
10.1021/jm049696n

$$$$
299549
Actelion Java MolfileCreator 1.0

 12 13  0  0  0  0  0  0  0  0999 V2000
    0.0000   -0.0000   -0.0000 N   0  0  0  0  0  0  0  0  0  0  0  0
   -0.1681   -1.4893   -0.0000 C   0  0  0  0  0  0  0  0  0  0  0  0
    1.4412    0.3123   -0.0000 C   0  0  0  0  0  0  0  0  0  0  0  0
   -1.1410    0.9969   -0.0000 C   0  0  0  0  0  0  0  0  0  0  0  0
   -1.4773   -2.2339   -0.0000 C   0  0  0  0  0  0  0  0  0  0  0  0
    1.1890   -2.0898   -0.0000 C   0  0  0  0  0  0  0  0  0  0  0  0
    2.1859   -0.9728   -0.0000 N   0  0  0  0  0  0  0  0  0  0  0  0
   -1.4893   -3.7472   -0.0000 C   0  0  0  0  0  0  0  0  0  0  0  0
   -2.7744   -1.4893   -0.0000 C   0  0  0  0  0  0  0  0  0  0  0  0
   -2.7864   -4.4918   -0.0000 N   0  0  0  0  0  0  0  0  0  0  0  0
   -4.0955   -2.2339   -0.0000 C   0  0  0  0  0  0  0  0  0  0  0  0
   -4.1075   -3.7232   -0.0000 C   0  0  0  0  0  0  0  0  0  0  0  0
  1  2  1  0  0  0  0
  1  3  2  0  0  0  0
  1  4  1  0  0  0  0
  2  5  1  0  0  0  0
  2  6  2  0  0  0  0
  3  7  1  0  0  0  0
  5  8  2  0  0  0  0
  5  9  1  0  0  0  0
  8 10  1  0  0  0  0
  9 11  2  0  0  0  0
 10 12  2  0  0  0  0
  6  7  1  0  0  0  0
 11 12  1  0  0  0  0
M  CHG  1   1   1
M  END
>  <MolRegNo>
299549

>  <m>
=

>  <Value>
262000

>  <Unit>
nM

>  <Type>
IC50

>  <pValue>
0

>  <Ligand Efficiency>
0

>  <Binding Efficiency>
0

>  <Surface Efficiency>
0

>  <Assay Index>
238572

>  <Assay Category>


>  <Assay Organism>
Homo sapiens

>  <Target ID>
17045

>  <Target Name>
Cytochrome P450 3A4

>  <Target Organism>
Homo sapiens

>  <Target Description>
Target is a single protein chain

>  <Sequence Accession>
P08684

>  <Reference>
J Med Chem 48 (1), 224-239 (2005)

>  <Pubmed ID>
15634016

>  <DOI>
10.1021/jm049696n

$$$$
1158370
Actelion Java MolfileCreator 1.0

 28 30  0  0  0  0  0  0  0  0999 V2000
    0.0000   -0.0000   -0.0000 O   0  0  0  0  0  0  0  0  0  0  0  0
   -0.2169   -1.4702   -0.0000 C   0  0  0  0  0  0  0  0  0  0  0  0
    1.4702    0.2892   -0.0000 C   0  0  0  0  0  0  0  0  0  0  0  0
   -1.5546   -2.1812   -0.0000 C   0  0  0  0  0  0  0  0  0  0  0  0
    1.1448   -2.1089   -0.0000 C   0  0  0  0  0  0  0  0  0  0  0  0
    2.1571   -1.0243   -0.0000 C   0  0  0  0  0  0  0  0  0  0  0  0
    2.1089    1.6871   -0.0000 C   0  0  0  0  0  0  0  0  0  0  0  0
   -1.5666   -3.6273   -0.0000 C   0  0  0  0  0  0  0  0  0  0  0  0
   -2.8922   -1.4461   -0.0000 C   0  0  0  0  0  0  0  0  0  0  0  0
    3.6273    1.8197   -0.0000 N   0  0  0  0  0  0  0  0  0  0  0  0
   -2.9043   -4.3383   -0.0000 N   0  0  0  0  0  0  0  0  0  0  0  0
   -4.2299   -2.1692   -0.0000 C   0  0  0  0  0  0  0  0  0  0  0  0
    4.6758    0.7713   -0.0000 O   0  0  0  0  0  0  0  0  0  0  0  0
   -4.2419   -3.6032   -0.0000 C   0  0  0  0  0  0  0  0  0  0  0  0
   -7.2306    5.2060   -0.0000 O   0  0  0  0  0  0  0  0  0  0  0  0
   -7.7126    3.7840   -0.0000 C   0  0  0  0  0  0  0  0  0  0  0  0
   -8.4598    6.0978   -0.0000 C   0  0  0  0  0  0  0  0  0  0  0  0
   -6.8449    2.5789   -0.0000 C   0  0  0  0  0  0  0  0  0  0  0  0
   -9.2310    3.7960   -0.0000 C   0  0  0  0  0  0  0  0  0  0  0  0
   -9.6889    5.2301   -0.0000 C   0  0  0  0  0  0  0  0  0  0  0  0
   -8.4718    7.6162   -0.0000 C   0  0  0  0  0  0  0  0  0  0  0  0
   -5.3627    2.7476   -0.0000 C   0  0  0  0  0  0  0  0  0  0  0  0
   -7.4716    1.2171   -0.0000 C   0  0  0  0  0  0  0  0  0  0  0  0
   -7.1824    8.3754   -0.0000 N   0  0  0  0  0  0  0  0  0  0  0  0
   -4.4950    1.5425   -0.0000 N   0  0  0  0  0  0  0  0  0  0  0  0
   -6.6039    0.0121   -0.0000 C   0  0  0  0  0  0  0  0  0  0  0  0
   -7.1944    9.8938   -0.0000 O   0  0  0  0  0  0  0  0  0  0  0  0
   -5.1216    0.1808   -0.0000 C   0  0  0  0  0  0  0  0  0  0  0  0
  1  2  1  0  0  0  0
  1  3  1  0  0  0  0
  2  4  1  0  0  0  0
  2  5  2  0  0  0  0
  3  6  2  0  0  0  0
  3  7  1  0  0  0  0
  4  8  2  0  0  0  0
  4  9  1  0  0  0  0
  7 10  2  0  0  0  0
  8 11  1  0  0  0  0
  9 12  2  0  0  0  0
 10 13  1  0  0  0  0
 11 14  2  0  0  0  0
 15 16  1  0  0  0  0
 15 17  1  0  0  0  0
 16 18  1  0  0  0  0
 16 19  2  0  0  0  0
 17 20  2  0  0  0  0
 17 21  1  0  0  0  0
 18 22  2  0  0  0  0
 18 23  1  0  0  0  0
 21 24  2  0  0  0  0
 22 25  1  0  0  0  0
 23 26  2  0  0  0  0
 24 27  1  0  0  0  0
 25 28  2  0  0  0  0
  5  6  1  0  0  0  0
 12 14  1  0  0  0  0
 19 20  1  0  0  0  0
 26 28  1  0  0  0  0
M  END
>  <MolRegNo>
1158370

>  <m>
=

>  <Value>
51900

>  <Unit>
nM

>  <Type>
IC50

>  <pValue>
4.29

>  <Ligand Efficiency>
0

>  <Binding Efficiency>
0

>  <Surface Efficiency>
0

>  <Assay Index>
238572

>  <Assay Category>


>  <Assay Organism>
Homo sapiens

>  <Target ID>
17045

>  <Target Name>
Cytochrome P450 3A4

>  <Target Organism>
Homo sapiens

>  <Target Description>
Target is a single protein chain

>  <Sequence Accession>
P08684

>  <Reference>
J Med Chem 48 (1), 224-239 (2005)

>  <Pubmed ID>
15634016

>  <DOI>
10.1021/jm049696n

$$$$
299621
Actelion Java MolfileCreator 1.0

 39 42  0  0  0  0  0  0  0  0999 V2000
    0.0000   -0.0000   -0.0000 S   0  0  0  0  0  0  0  0  0  0  0  0
   -0.1846   -1.4398   -0.0000 C   0  0  0  0  0  0  0  0  0  0  0  0
    1.4398    0.2769   -0.0000 C   0  0  0  0  0  0  0  0  0  0  0  0
   -1.4952   -2.1228   -0.0000 C   0  0  0  0  0  0  0  0  0  0  0  0
    1.1076   -2.0674   -0.0000 C   0  0  0  0  0  0  0  0  0  0  0  0
    2.1228   -0.9783   -0.0000 C   0  0  0  0  0  0  0  0  0  0  0  0
    2.0674    1.6429   -0.0000 C   0  0  0  0  0  0  0  0  0  0  0  0
   -1.5137   -3.5073   -0.0000 C   0  0  0  0  0  0  0  0  0  0  0  0
   -2.8058   -1.4029   -0.0000 C   0  0  0  0  0  0  0  0  0  0  0  0
    4.3933    1.7721   -0.0000 N   0  0  0  0  0  0  0  0  0  0  0  0
   -2.8243   -4.1903   -0.0000 N   0  0  0  0  0  0  0  0  0  0  0  0
   -4.1164   -2.0859   -0.0000 C   0  0  0  0  0  0  0  0  0  0  0  0
   -4.1349   -3.4703   -0.0000 C   0  0  0  0  0  0  0  0  0  0  0  0
   -8.1221    0.1477   -0.0000 S   0  0  0  0  0  0  0  0  0  0  0  0
   -8.3251   -1.2921   -0.0000 C   0  0  0  0  0  0  0  0  0  0  0  0
   -6.7007    0.4246   -0.0000 C   0  0  0  0  0  0  0  0  0  0  0  0
   -9.6357   -1.9751   -0.0000 C   0  0  0  0  0  0  0  0  0  0  0  0
   -7.0330   -1.9013   -0.0000 C   0  0  0  0  0  0  0  0  0  0  0  0
   -6.0177   -0.8491   -0.0000 C   0  0  0  0  0  0  0  0  0  0  0  0
   -6.0731    1.7905   -0.0000 C   0  0  0  0  0  0  0  0  0  0  0  0
   -9.6542   -3.3596   -0.0000 C   0  0  0  0  0  0  0  0  0  0  0  0
  -10.9648   -1.2552   -0.0000 C   0  0  0  0  0  0  0  0  0  0  0  0
   -3.7472    1.9198   -0.0000 N   0  0  0  0  0  0  0  0  0  0  0  0
  -10.9833   -4.0426   -0.0000 N   0  0  0  0  0  0  0  0  0  0  0  0
  -12.2754   -1.9382   -0.0000 C   0  0  0  0  0  0  0  0  0  0  0  0
  -12.2939   -3.3227   -0.0000 C   0  0  0  0  0  0  0  0  0  0  0  0
  -18.1639    0.1477   -0.0000 S   0  0  0  0  0  0  0  0  0  0  0  0
  -18.3854   -1.2921   -0.0000 C   0  0  0  0  0  0  0  0  0  0  0  0
  -16.7426    0.4061   -0.0000 C   0  0  0  0  0  0  0  0  0  0  0  0
  -19.6776   -1.9751   -0.0000 C   0  0  0  0  0  0  0  0  0  0  0  0
  -17.0748   -1.9198   -0.0000 C   0  0  0  0  0  0  0  0  0  0  0  0
  -16.0780   -0.8676   -0.0000 C   0  0  0  0  0  0  0  0  0  0  0  0
  -16.1149    1.7721   -0.0000 C   0  0  0  0  0  0  0  0  0  0  0  0
  -19.6960   -3.3780   -0.0000 C   0  0  0  0  0  0  0  0  0  0  0  0
  -21.0067   -1.2552   -0.0000 C   0  0  0  0  0  0  0  0  0  0  0  0
  -14.6567    1.9013   -0.0000 N   0  0  0  0  0  0  0  0  0  0  0  0
  -21.0251   -4.0426   -0.0000 N   0  0  0  0  0  0  0  0  0  0  0  0
  -22.2988   -1.9382   -0.0000 C   0  0  0  0  0  0  0  0  0  0  0  0
  -22.3173   -3.3411   -0.0000 C   0  0  0  0  0  0  0  0  0  0  0  0
  1  2  1  0  0  0  0
  1  3  1  0  0  0  0
  2  4  1  0  0  0  0
  2  5  2  0  0  0  0
  3  6  2  0  0  0  0
  3  7  1  0  0  0  0
  4  8  2  0  0  0  0
  4  9  1  0  0  0  0
  7 10  2  0  0  0  0
  8 11  1  0  0  0  0
  9 12  2  0  0  0  0
 11 13  2  0  0  0  0
 14 15  1  0  0  0  0
 14 16  1  0  0  0  0
 15 17  1  0  0  0  0
 15 18  2  0  0  0  0
 16 19  2  0  0  0  0
 16 20  1  0  0  0  0
 17 21  2  0  0  0  0
 17 22  1  0  0  0  0
 20 23  2  0  0  0  0
 21 24  1  0  0  0  0
 22 25  2  0  0  0  0
 24 26  2  0  0  0  0
 27 28  1  0  0  0  0
 27 29  1  0  0  0  0
 28 30  1  0  0  0  0
 28 31  2  0  0  0  0
 29 32  2  0  0  0  0
 29 33  1  0  0  0  0
 30 34  2  0  0  0  0
 30 35  1  0  0  0  0
 33 36  1  0  0  0  0
 34 37  1  0  0  0  0
 35 38  2  0  0  0  0
 37 39  2  0  0  0  0
  5  6  1  0  0  0  0
 12 13  1  0  0  0  0
 18 19  1  0  0  0  0
 25 26  1  0  0  0  0
 31 32  1  0  0  0  0
 38 39  1  0  0  0  0
M  END
>  <MolRegNo>
299621

>  <m>
=

>  <Value>
77500

>  <Unit>
nM

>  <Type>
IC50

>  <pValue>
4.11

>  <Ligand Efficiency>
0

>  <Binding Efficiency>
0

>  <Surface Efficiency>
0

>  <Assay Index>
238572

>  <Assay Category>


>  <Assay Organism>
Homo sapiens

>  <Target ID>
17045

>  <Target Name>
Cytochrome P450 3A4

>  <Target Organism>
Homo sapiens

>  <Target Description>
Target is a single protein chain

>  <Sequence Accession>
P08684

>  <Reference>
J Med Chem 48 (1), 224-239 (2005)

>  <Pubmed ID>
15634016

>  <DOI>
10.1021/jm049696n

$$$$
299573
Actelion Java MolfileCreator 1.0

 12 13  0  0  0  0  0  0  0  0999 V2000
    0.0000   -0.0000   -0.0000 N   0  0  0  0  0  0  0  0  0  0  0  0
    1.3142   -0.7596   -0.0000 C   0  0  0  0  0  0  0  0  0  0  0  0
   -0.0121    1.5433   -0.0000 C   0  0  0  0  0  0  0  0  0  0  0  0
    2.6285    0.0121   -0.0000 C   0  0  0  0  0  0  0  0  0  0  0  0
    1.3022    2.3150   -0.0000 C   0  0  0  0  0  0  0  0  0  0  0  0
    3.9427   -0.7475   -0.0000 N   0  0  0  0  0  0  0  0  0  0  0  0
    2.6164    1.5554   -0.0000 C   0  0  0  0  0  0  0  0  0  0  0  0
    5.3172   -0.1085   -0.0000 C   0  0  0  0  0  0  0  0  0  0  0  0
    4.0633   -2.2426   -0.0000 C   0  0  0  0  0  0  0  0  0  0  0  0
    6.3300   -1.2419   -0.0000 N   0  0  0  0  0  0  0  0  0  0  0  0
    5.5584    1.0972   -0.0000 C   0  0  0  0  0  0  0  0  0  0  0  0
    5.5463   -2.5561   -0.0000 C   0  0  0  0  0  0  0  0  0  0  0  0
  1  2  2  0  0  0  0
  1  3  1  0  0  0  0
  2  4  1  0  0  0  0
  3  5  2  0  0  0  0
  4  6  1  0  0  0  0
  4  7  2  0  0  0  0
  6  8  1  0  0  0  0
  6  9  1  0  0  0  0
  8 10  2  0  0  0  0
  8 11  1  0  0  0  0
  9 12  2  0  0  0  0
  5  7  1  0  0  0  0
 10 12  1  0  0  0  0
M  END
>  <MolRegNo>
299573

>  <m>
=

>  <Value>
152000

>  <Unit>
nM

>  <Type>
IC50

>  <pValue>
0

>  <Ligand Efficiency>
0

>  <Binding Efficiency>
0

>  <Surface Efficiency>
0

>  <Assay Index>
238572

>  <Assay Category>


>  <Assay Organism>
Homo sapiens

>  <Target ID>
17045

>  <Target Name>
Cytochrome P450 3A4

>  <Target Organism>
Homo sapiens

>  <Target Description>
Target is a single protein chain

>  <Sequence Accession>
P08684

>  <Reference>
J Med Chem 48 (1), 224-239 (2005)

>  <Pubmed ID>
15634016

>  <DOI>
10.1021/jm049696n

$$$$
301989
Actelion Java MolfileCreator 1.0

 34 37  0  0  0  0  0  0  0  0999 V2000
    0.0000   -0.0000   -0.0000 O   0  0  0  0  0  0  0  0  0  0  0  0
    1.1814    0.8978   -0.0000 C   0  0  0  0  0  0  0  0  0  0  0  0
   -1.2050   -0.9215   -0.0000 C   0  0  0  0  0  0  0  0  0  0  0  0
    2.5518    0.3308   -0.0000 C   0  0  0  0  0  0  0  0  0  0  0  0
    0.9924    2.4100   -0.0000 C   0  0  0  0  0  0  0  0  0  0  0  0
   -2.4100   -1.7957   -0.0000 C   0  0  0  0  0  0  0  0  0  0  0  0
   -0.3072   -2.1147   -0.0000 C   0  0  0  0  0  0  0  0  0  0  0  0
   -2.1028    0.2953   -0.0000 C   0  0  0  0  0  0  0  0  0  0  0  0
    3.7449    1.2523   -0.0000 C   0  0  0  0  0  0  0  0  0  0  0  0
    2.1855    3.3315   -0.0000 C   0  0  0  0  0  0  0  0  0  0  0  0
    3.5441    2.7290   -0.0000 C   0  0  0  0  0  0  0  0  0  0  0  0
    4.8318    3.4850   -0.0000 C   0  0  0  0  0  0  0  0  0  0  0  0
    6.1195    2.7526   -0.0000 O   0  0  0  0  0  0  0  0  0  0  0  0
    7.4072    3.5087   -0.0000 C   0  0  0  0  0  0  0  0  0  0  0  0
    8.6949    2.7762   -0.0000 C   0  0  0  0  0  0  0  0  0  0  0  0
    7.3954    5.0208   -0.0000 C   0  0  0  0  0  0  0  0  0  0  0  0
   10.0062    3.5323   -0.0000 C   0  0  0  0  0  0  0  0  0  0  0  0
    8.6831    5.7769   -0.0000 C   0  0  0  0  0  0  0  0  0  0  0  0
    9.9944    5.0445   -0.0000 C   0  0  0  0  0  0  0  0  0  0  0  0
   11.2939    2.7999   -0.0000 C   0  0  0  0  0  0  0  0  0  0  0  0
   11.2585    5.8123   -0.0000 C   0  0  0  0  0  0  0  0  0  0  0  0
   12.5816    3.5559   -0.0000 C   0  0  0  0  0  0  0  0  0  0  0  0
   12.5698    5.0917   -0.0000 C   0  0  0  0  0  0  0  0  0  0  0  0
   13.8575    5.8478   -0.0000 C   0  0  0  0  0  0  0  0  0  0  0  0
   13.8221    7.3599   -0.0000 N   0  0  0  0  0  0  0  0  0  0  0  0
   15.1452    5.1153   -0.0000 C   0  0  0  0  0  0  0  0  0  0  0  0
   12.6052    8.2460   -0.0000 C   0  0  0  0  0  0  0  0  0  0  0  0
   15.0152    8.2578   -0.0000 C   0  0  0  0  0  0  0  0  0  0  0  0
   15.1334    3.6268   -0.0000 N   0  0  0  0  0  0  0  0  0  0  0  0
   16.4329    5.8950   -0.0000 C   0  0  0  0  0  0  0  0  0  0  0  0
   13.0423    9.7109   -0.0000 N   0  0  0  0  0  0  0  0  0  0  0  0
   14.5545    9.6991   -0.0000 C   0  0  0  0  0  0  0  0  0  0  0  0
   16.4447    2.9062   -0.0000 C   0  0  0  0  0  0  0  0  0  0  0  0
   13.8221    2.8825   -0.0000 C   0  0  0  0  0  0  0  0  0  0  0  0
  1  2  1  0  0  0  0
  1  3  1  0  0  0  0
  2  4  2  0  0  0  0
  2  5  1  0  0  0  0
  3  6  1  0  0  0  0
  3  7  1  0  0  0  0
  3  8  1  0  0  0  0
  4  9  1  0  0  0  0
  5 10  2  0  0  0  0
  9 11  2  0  0  0  0
 11 12  1  0  0  0  0
 12 13  1  0  0  0  0
 13 14  1  0  0  0  0
 14 15  2  0  0  0  0
 14 16  1  0  0  0  0
 15 17  1  0  0  0  0
 16 18  2  0  0  0  0
 17 19  1  0  0  0  0
 17 20  2  0  0  0  0
 19 21  2  0  0  0  0
 20 22  1  0  0  0  0
 21 23  1  0  0  0  0
 23 24  1  0  0  0  0
 24 25  1  0  0  0  0
 24 26  1  0  0  0  0
 25 27  1  0  0  0  0
 25 28  1  0  0  0  0
 26 29  1  0  0  0  0
 26 30  1  0  0  0  0
 27 31  2  0  0  0  0
 28 32  2  0  0  0  0
 29 33  1  0  0  0  0
 29 34  1  0  0  0  0
 10 11  1  0  0  0  0
 18 19  1  0  0  0  0
 22 23  2  0  0  0  0
 31 32  1  0  0  0  0
M  END
>  <MolRegNo>
301989

>  <m>
=

>  <Value>
580

>  <Unit>
nM

>  <Type>
IC50

>  <pValue>
6.24

>  <Ligand Efficiency>
0

>  <Binding Efficiency>
0

>  <Surface Efficiency>
0

>  <Assay Index>
238260

>  <Assay Category>


>  <Assay Organism>


>  <Target ID>
17045

>  <Target Name>
Cytochrome P450 3A4

>  <Target Organism>
Homo sapiens

>  <Target Description>
Target is a single protein chain

>  <Sequence Accession>
P08684

>  <Reference>
Bioorg Med Chem Lett 15 (6), 1669-1673 (2005)

>  <Pubmed ID>
15745819

>  <DOI>
10.1016/j.bmcl.2005.01.044

$$$$
302006
Actelion Java MolfileCreator 1.0

 29 32  0  0  0  0  0  0  0  0999 V2000
    0.0000   -0.0000   -0.0000 O   0  0  0  0  0  0  0  0  0  0  0  0
    1.2866    0.7554   -0.0000 C   0  0  0  0  0  0  0  0  0  0  0  0
   -1.3102    0.7790   -0.0000 C   0  0  0  0  0  0  0  0  0  0  0  0
    2.5732    0.0118   -0.0000 C   0  0  0  0  0  0  0  0  0  0  0  0
    1.2748    2.2663   -0.0000 C   0  0  0  0  0  0  0  0  0  0  0  0
   -2.6204    0.0472   -0.0000 C   0  0  0  0  0  0  0  0  0  0  0  0
    3.8716    0.7908   -0.0000 C   0  0  0  0  0  0  0  0  0  0  0  0
    2.5614    3.0453   -0.0000 C   0  0  0  0  0  0  0  0  0  0  0  0
   -3.9424    0.7908   -0.0000 C   0  0  0  0  0  0  0  0  0  0  0  0
   -2.6204   -1.4400   -0.0000 C   0  0  0  0  0  0  0  0  0  0  0  0
    3.8598    2.3017   -0.0000 C   0  0  0  0  0  0  0  0  0  0  0  0
    5.1581    0.0590   -0.0000 C   0  0  0  0  0  0  0  0  0  0  0  0
   -5.2526    0.0236   -0.0000 C   0  0  0  0  0  0  0  0  0  0  0  0
   -3.9070   -2.1955   -0.0000 C   0  0  0  0  0  0  0  0  0  0  0  0
    5.1227    3.0571   -0.0000 C   0  0  0  0  0  0  0  0  0  0  0  0
    6.4447    0.8144   -0.0000 C   0  0  0  0  0  0  0  0  0  0  0  0
   -5.2408   -1.4636   -0.0000 C   0  0  0  0  0  0  0  0  0  0  0  0
    6.4211    2.3253   -0.0000 C   0  0  0  0  0  0  0  0  0  0  0  0
    7.7077    3.1043   -0.0000 C   0  0  0  0  0  0  0  0  0  0  0  0
    7.6841    4.6152   -0.0000 N   0  0  0  0  0  0  0  0  0  0  0  0
    8.9943    2.3725   -0.0000 C   0  0  0  0  0  0  0  0  0  0  0  0
    6.4565    5.4886   -0.0000 C   0  0  0  0  0  0  0  0  0  0  0  0
    8.8763    5.5123   -0.0000 C   0  0  0  0  0  0  0  0  0  0  0  0
    8.9825    0.8853   -0.0000 N   0  0  0  0  0  0  0  0  0  0  0  0
   10.2809    3.1397   -0.0000 C   0  0  0  0  0  0  0  0  0  0  0  0
    6.9051    6.9287   -0.0000 N   0  0  0  0  0  0  0  0  0  0  0  0
    8.4041    6.9287   -0.0000 C   0  0  0  0  0  0  0  0  0  0  0  0
    7.6723    0.1416   -0.0000 C   0  0  0  0  0  0  0  0  0  0  0  0
   10.2927    0.1416   -0.0000 C   0  0  0  0  0  0  0  0  0  0  0  0
  1  2  1  0  0  0  0
  1  3  1  0  0  0  0
  2  4  2  0  0  0  0
  2  5  1  0  0  0  0
  3  6  1  0  0  0  0
  4  7  1  0  0  0  0
  5  8  2  0  0  0  0
  6  9  2  0  0  0  0
  6 10  1  0  0  0  0
  7 11  1  0  0  0  0
  7 12  2  0  0  0  0
  9 13  1  0  0  0  0
 10 14  2  0  0  0  0
 11 15  2  0  0  0  0
 12 16  1  0  0  0  0
 13 17  2  0  0  0  0
 15 18  1  0  0  0  0
 18 19  1  0  0  0  0
 19 20  1  0  0  0  0
 19 21  1  0  0  0  0
 20 22  1  0  0  0  0
 20 23  1  0  0  0  0
 21 24  1  0  0  0  0
 21 25  1  0  0  0  0
 22 26  2  0  0  0  0
 23 27  2  0  0  0  0
 24 28  1  0  0  0  0
 24 29  1  0  0  0  0
  8 11  1  0  0  0  0
 14 17  1  0  0  0  0
 16 18  2  0  0  0  0
 26 27  1  0  0  0  0
M  END
>  <MolRegNo>
302006

>  <m>
=

>  <Value>
200

>  <Unit>
nM

>  <Type>
IC50

>  <pValue>
6.7

>  <Ligand Efficiency>
0

>  <Binding Efficiency>
0

>  <Surface Efficiency>
0

>  <Assay Index>
238260

>  <Assay Category>


>  <Assay Organism>


>  <Target ID>
17045

>  <Target Name>
Cytochrome P450 3A4

>  <Target Organism>
Homo sapiens

>  <Target Description>
Target is a single protein chain

>  <Sequence Accession>
P08684

>  <Reference>
Bioorg Med Chem Lett 15 (6), 1669-1673 (2005)

>  <Pubmed ID>
15745819

>  <DOI>
10.1016/j.bmcl.2005.01.044

$$$$
302023
Actelion Java MolfileCreator 1.0

 34 37  0  0  0  0  0  0  0  0999 V2000
    0.0000   -0.0000   -0.0000 O   0  0  0  0  0  0  0  0  0  0  0  0
    1.2901    0.7764   -0.0000 C   0  0  0  0  0  0  0  0  0  0  0  0
    1.2423    2.2934   -0.0000 O   0  0  0  0  0  0  0  0  0  0  0  0
    2.5801    0.0597   -0.0000 C   0  0  0  0  0  0  0  0  0  0  0  0
   -0.0836    3.0340   -0.0000 C   0  0  0  0  0  0  0  0  0  0  0  0
    3.8463    0.8481   -0.0000 C   0  0  0  0  0  0  0  0  0  0  0  0
    5.1483    0.1314   -0.0000 C   0  0  0  0  0  0  0  0  0  0  0  0
    3.8105    2.3771   -0.0000 C   0  0  0  0  0  0  0  0  0  0  0  0
    6.4145    0.9198   -0.0000 C   0  0  0  0  0  0  0  0  0  0  0  0
    5.1005    3.1535   -0.0000 C   0  0  0  0  0  0  0  0  0  0  0  0
    6.4025    2.4368   -0.0000 C   0  0  0  0  0  0  0  0  0  0  0  0
    7.6806    3.2013   -0.0000 C   0  0  0  0  0  0  0  0  0  0  0  0
    8.9707    2.4487   -0.0000 O   0  0  0  0  0  0  0  0  0  0  0  0
   10.2608    3.2013   -0.0000 C   0  0  0  0  0  0  0  0  0  0  0  0
   11.5628    2.4726   -0.0000 C   0  0  0  0  0  0  0  0  0  0  0  0
   10.2488    4.7302   -0.0000 C   0  0  0  0  0  0  0  0  0  0  0  0
   12.8528    3.2490   -0.0000 C   0  0  0  0  0  0  0  0  0  0  0  0
   11.5508    5.5066   -0.0000 C   0  0  0  0  0  0  0  0  0  0  0  0
   12.8409    4.7661   -0.0000 C   0  0  0  0  0  0  0  0  0  0  0  0
   14.1309    2.5085   -0.0000 C   0  0  0  0  0  0  0  0  0  0  0  0
   14.1071    5.5305   -0.0000 C   0  0  0  0  0  0  0  0  0  0  0  0
   15.4210    3.2729   -0.0000 C   0  0  0  0  0  0  0  0  0  0  0  0
   15.4091    4.8019   -0.0000 C   0  0  0  0  0  0  0  0  0  0  0  0
   16.6872    5.5783   -0.0000 C   0  0  0  0  0  0  0  0  0  0  0  0
   16.6633    7.0834   -0.0000 N   0  0  0  0  0  0  0  0  0  0  0  0
   17.9772    4.8377   -0.0000 C   0  0  0  0  0  0  0  0  0  0  0  0
   15.4449    7.9793   -0.0000 C   0  0  0  0  0  0  0  0  0  0  0  0
   17.8578    7.9912   -0.0000 C   0  0  0  0  0  0  0  0  0  0  0  0
   17.9772    3.3446   -0.0000 N   0  0  0  0  0  0  0  0  0  0  0  0
   19.2673    5.6022   -0.0000 C   0  0  0  0  0  0  0  0  0  0  0  0
   15.8749    9.4127   -0.0000 N   0  0  0  0  0  0  0  0  0  0  0  0
   17.3800    9.4246   -0.0000 C   0  0  0  0  0  0  0  0  0  0  0  0
   19.2792    2.6279   -0.0000 C   0  0  0  0  0  0  0  0  0  0  0  0
   16.6872    2.6160   -0.0000 C   0  0  0  0  0  0  0  0  0  0  0  0
  1  2  2  0  0  0  0
  2  3  1  0  0  0  0
  2  4  1  0  0  0  0
  3  5  1  0  0  0  0
  4  6  1  0  0  0  0
  6  7  2  0  0  0  0
  6  8  1  0  0  0  0
  7  9  1  0  0  0  0
  8 10  2  0  0  0  0
  9 11  2  0  0  0  0
 11 12  1  0  0  0  0
 12 13  1  0  0  0  0
 13 14  1  0  0  0  0
 14 15  2  0  0  0  0
 14 16  1  0  0  0  0
 15 17  1  0  0  0  0
 16 18  2  0  0  0  0
 17 19  1  0  0  0  0
 17 20  2  0  0  0  0
 19 21  2  0  0  0  0
 20 22  1  0  0  0  0
 21 23  1  0  0  0  0
 23 24  1  0  0  0  0
 24 25  1  0  0  0  0
 24 26  1  0  0  0  0
 25 27  1  0  0  0  0
 25 28  1  0  0  0  0
 26 29  1  0  0  0  0
 26 30  1  0  0  0  0
 27 31  2  0  0  0  0
 28 32  2  0  0  0  0
 29 33  1  0  0  0  0
 29 34  1  0  0  0  0
 10 11  1  0  0  0  0
 18 19  1  0  0  0  0
 22 23  2  0  0  0  0
 31 32  1  0  0  0  0
M  END
>  <MolRegNo>
302023

>  <m>
=

>  <Value>
4

>  <Unit>
nM

>  <Type>
IC50

>  <pValue>
8.4

>  <Ligand Efficiency>
0

>  <Binding Efficiency>
0

>  <Surface Efficiency>
0

>  <Assay Index>
238260

>  <Assay Category>


>  <Assay Organism>


>  <Target ID>
17045

>  <Target Name>
Cytochrome P450 3A4

>  <Target Organism>
Homo sapiens

>  <Target Description>
Target is a single protein chain

>  <Sequence Accession>
P08684

>  <Reference>
Bioorg Med Chem Lett 15 (6), 1669-1673 (2005)

>  <Pubmed ID>
15745819

>  <DOI>
10.1016/j.bmcl.2005.01.044

$$$$
302047
Actelion Java MolfileCreator 1.0

 35 38  0  0  0  0  0  0  0  0999 V2000
    0.0000   -0.0000   -0.0000 O   0  0  0  0  0  0  0  0  0  0  0  0
    1.2654   -0.7805   -0.0000 C   0  0  0  0  0  0  0  0  0  0  0  0
    2.5899   -0.0355   -0.0000 O   0  0  0  0  0  0  0  0  0  0  0  0
    1.2299   -2.2587   -0.0000 C   0  0  0  0  0  0  0  0  0  0  0  0
    3.8552   -0.7923   -0.0000 C   0  0  0  0  0  0  0  0  0  0  0  0
   -0.1064   -2.9801   -0.0000 O   0  0  0  0  0  0  0  0  0  0  0  0
   -0.1656   -4.4583   -0.0000 C   0  0  0  0  0  0  0  0  0  0  0  0
   -1.4782   -5.1797   -0.0000 C   0  0  0  0  0  0  0  0  0  0  0  0
    1.1235   -5.2389   -0.0000 C   0  0  0  0  0  0  0  0  0  0  0  0
   -1.5255   -6.6580   -0.0000 C   0  0  0  0  0  0  0  0  0  0  0  0
    1.0762   -6.7289   -0.0000 C   0  0  0  0  0  0  0  0  0  0  0  0
   -0.2602   -7.4385   -0.0000 C   0  0  0  0  0  0  0  0  0  0  0  0
   -0.3075   -8.9285   -0.0000 C   0  0  0  0  0  0  0  0  0  0  0  0
    0.9815   -9.6735   -0.0000 O   0  0  0  0  0  0  0  0  0  0  0  0
    2.2706   -8.9049   -0.0000 C   0  0  0  0  0  0  0  0  0  0  0  0
    3.5596   -9.6499   -0.0000 C   0  0  0  0  0  0  0  0  0  0  0  0
    2.2587   -7.3912   -0.0000 C   0  0  0  0  0  0  0  0  0  0  0  0
    4.8486   -8.8812   -0.0000 C   0  0  0  0  0  0  0  0  0  0  0  0
    3.5478   -6.6107   -0.0000 C   0  0  0  0  0  0  0  0  0  0  0  0
    4.8368   -7.3675   -0.0000 C   0  0  0  0  0  0  0  0  0  0  0  0
    6.1494   -9.6262   -0.0000 C   0  0  0  0  0  0  0  0  0  0  0  0
    6.1258   -6.5870   -0.0000 C   0  0  0  0  0  0  0  0  0  0  0  0
    7.4385   -8.8457   -0.0000 C   0  0  0  0  0  0  0  0  0  0  0  0
    7.4266   -7.3202   -0.0000 C   0  0  0  0  0  0  0  0  0  0  0  0
    8.7157   -6.5397   -0.0000 C   0  0  0  0  0  0  0  0  0  0  0  0
    8.6920   -5.0260   -0.0000 N   0  0  0  0  0  0  0  0  0  0  0  0
   10.0047   -7.2729   -0.0000 C   0  0  0  0  0  0  0  0  0  0  0  0
    7.4503   -4.1390   -0.0000 C   0  0  0  0  0  0  0  0  0  0  0  0
    9.8864   -4.1390   -0.0000 C   0  0  0  0  0  0  0  0  0  0  0  0
   10.0047   -8.7630   -0.0000 N   0  0  0  0  0  0  0  0  0  0  0  0
   11.2700   -6.5042   -0.0000 C   0  0  0  0  0  0  0  0  0  0  0  0
    7.9115   -2.6963   -0.0000 N   0  0  0  0  0  0  0  0  0  0  0  0
    9.4134   -2.6963   -0.0000 C   0  0  0  0  0  0  0  0  0  0  0  0
   11.3055   -9.5080   -0.0000 C   0  0  0  0  0  0  0  0  0  0  0  0
    8.6920   -9.5198   -0.0000 C   0  0  0  0  0  0  0  0  0  0  0  0
  1  2  2  0  0  0  0
  2  3  1  0  0  0  0
  2  4  1  0  0  0  0
  3  5  1  0  0  0  0
  4  6  1  0  0  0  0
  6  7  1  0  0  0  0
  7  8  2  0  0  0  0
  7  9  1  0  0  0  0
  8 10  1  0  0  0  0
  9 11  2  0  0  0  0
 10 12  2  0  0  0  0
 12 13  1  0  0  0  0
 13 14  1  0  0  0  0
 14 15  1  0  0  0  0
 15 16  2  0  0  0  0
 15 17  1  0  0  0  0
 16 18  1  0  0  0  0
 17 19  2  0  0  0  0
 18 20  1  0  0  0  0
 18 21  2  0  0  0  0
 20 22  2  0  0  0  0
 21 23  1  0  0  0  0
 22 24  1  0  0  0  0
 24 25  1  0  0  0  0
 25 26  1  0  0  0  0
 25 27  1  0  0  0  0
 26 28  1  0  0  0  0
 26 29  1  0  0  0  0
 27 30  1  0  0  0  0
 27 31  1  0  0  0  0
 28 32  2  0  0  0  0
 29 33  2  0  0  0  0
 30 34  1  0  0  0  0
 30 35  1  0  0  0  0
 11 12  1  0  0  0  0
 19 20  1  0  0  0  0
 23 24  2  0  0  0  0
 32 33  1  0  0  0  0
M  END
>  <MolRegNo>
302047

>  <m>
=

>  <Value>
220

>  <Unit>
nM

>  <Type>
IC50

>  <pValue>
6.66

>  <Ligand Efficiency>
0

>  <Binding Efficiency>
0

>  <Surface Efficiency>
0

>  <Assay Index>
238260

>  <Assay Category>


>  <Assay Organism>


>  <Target ID>
17045

>  <Target Name>
Cytochrome P450 3A4

>  <Target Organism>
Homo sapiens

>  <Target Description>
Target is a single protein chain

>  <Sequence Accession>
P08684

>  <Reference>
Bioorg Med Chem Lett 15 (6), 1669-1673 (2005)

>  <Pubmed ID>
15745819

>  <DOI>
10.1016/j.bmcl.2005.01.044

$$$$
302078
Actelion Java MolfileCreator 1.0

 33 36  0  0  0  0  0  0  0  0999 V2000
    0.0000   -0.0000   -0.0000 O   0  0  0  0  0  0  0  0  0  0  0  0
    1.3108    0.7388   -0.0000 C   0  0  0  0  0  0  0  0  0  0  0  0
    1.3228    2.2523   -0.0000 O   0  0  0  0  0  0  0  0  0  0  0  0
    2.5740   -0.0238   -0.0000 C   0  0  0  0  0  0  0  0  0  0  0  0
    2.6336    2.9911   -0.0000 C   0  0  0  0  0  0  0  0  0  0  0  0
    2.5383   -1.5134   -0.0000 C   0  0  0  0  0  0  0  0  0  0  0  0
    3.8849    0.6912   -0.0000 C   0  0  0  0  0  0  0  0  0  0  0  0
    3.8014   -2.2999   -0.0000 C   0  0  0  0  0  0  0  0  0  0  0  0
    5.1599   -0.0715   -0.0000 C   0  0  0  0  0  0  0  0  0  0  0  0
    5.1123   -1.5611   -0.0000 C   0  0  0  0  0  0  0  0  0  0  0  0
    3.7419   -3.7895   -0.0000 C   0  0  0  0  0  0  0  0  0  0  0  0
    5.0289   -4.5403   -0.0000 O   0  0  0  0  0  0  0  0  0  0  0  0
    6.3397   -3.7776   -0.0000 C   0  0  0  0  0  0  0  0  0  0  0  0
    7.6267   -4.5164   -0.0000 C   0  0  0  0  0  0  0  0  0  0  0  0
    6.3278   -2.2523   -0.0000 C   0  0  0  0  0  0  0  0  0  0  0  0
    8.9137   -3.7419   -0.0000 C   0  0  0  0  0  0  0  0  0  0  0  0
    7.6148   -1.4777   -0.0000 C   0  0  0  0  0  0  0  0  0  0  0  0
    8.9018   -2.2284   -0.0000 C   0  0  0  0  0  0  0  0  0  0  0  0
   10.2007   -4.4926   -0.0000 C   0  0  0  0  0  0  0  0  0  0  0  0
   10.1769   -1.4538   -0.0000 C   0  0  0  0  0  0  0  0  0  0  0  0
   11.4877   -3.7061   -0.0000 C   0  0  0  0  0  0  0  0  0  0  0  0
   11.4758   -2.1927   -0.0000 C   0  0  0  0  0  0  0  0  0  0  0  0
   12.7628   -1.4300   -0.0000 C   0  0  0  0  0  0  0  0  0  0  0  0
   12.7509    0.0834   -0.0000 N   0  0  0  0  0  0  0  0  0  0  0  0
   14.0498   -2.1450   -0.0000 C   0  0  0  0  0  0  0  0  0  0  0  0
   11.5116    0.9891   -0.0000 C   0  0  0  0  0  0  0  0  0  0  0  0
   13.9426    0.9891   -0.0000 C   0  0  0  0  0  0  0  0  0  0  0  0
   14.0617   -3.6346   -0.0000 N   0  0  0  0  0  0  0  0  0  0  0  0
   15.3368   -1.3823   -0.0000 C   0  0  0  0  0  0  0  0  0  0  0  0
   11.9525    2.4429   -0.0000 N   0  0  0  0  0  0  0  0  0  0  0  0
   13.4540    2.4310   -0.0000 C   0  0  0  0  0  0  0  0  0  0  0  0
   15.3488   -4.3734   -0.0000 C   0  0  0  0  0  0  0  0  0  0  0  0
   12.7509   -4.3854   -0.0000 C   0  0  0  0  0  0  0  0  0  0  0  0
  1  2  2  0  0  0  0
  2  3  1  0  0  0  0
  2  4  1  0  0  0  0
  3  5  1  0  0  0  0
  4  6  2  0  0  0  0
  4  7  1  0  0  0  0
  6  8  1  0  0  0  0
  7  9  2  0  0  0  0
  8 10  2  0  0  0  0
  8 11  1  0  0  0  0
 11 12  1  0  0  0  0
 12 13  1  0  0  0  0
 13 14  2  0  0  0  0
 13 15  1  0  0  0  0
 14 16  1  0  0  0  0
 15 17  2  0  0  0  0
 16 18  1  0  0  0  0
 16 19  2  0  0  0  0
 18 20  2  0  0  0  0
 19 21  1  0  0  0  0
 20 22  1  0  0  0  0
 22 23  1  0  0  0  0
 23 24  1  0  0  0  0
 23 25  1  0  0  0  0
 24 26  1  0  0  0  0
 24 27  1  0  0  0  0
 25 28  1  0  0  0  0
 25 29  1  0  0  0  0
 26 30  2  0  0  0  0
 27 31  2  0  0  0  0
 28 32  1  0  0  0  0
 28 33  1  0  0  0  0
  9 10  1  0  0  0  0
 17 18  1  0  0  0  0
 21 22  2  0  0  0  0
 30 31  1  0  0  0  0
M  END
>  <MolRegNo>
302078

>  <m>
=

>  <Value>
210

>  <Unit>
nM

>  <Type>
IC50

>  <pValue>
6.68

>  <Ligand Efficiency>
0

>  <Binding Efficiency>
0

>  <Surface Efficiency>
0

>  <Assay Index>
238260

>  <Assay Category>


>  <Assay Organism>


>  <Target ID>
17045

>  <Target Name>
Cytochrome P450 3A4

>  <Target Organism>
Homo sapiens

>  <Target Description>
Target is a single protein chain

>  <Sequence Accession>
P08684

>  <Reference>
Bioorg Med Chem Lett 15 (6), 1669-1673 (2005)

>  <Pubmed ID>
15745819

>  <DOI>
10.1016/j.bmcl.2005.01.044

$$$$
301985
Actelion Java MolfileCreator 1.0

 27 29  0  0  0  0  0  0  0  0999 V2000
    0.0000   -0.0000   -0.0000 O   0  0  0  0  0  0  0  0  0  0  0  0
    1.2997    0.7562   -0.0000 C   0  0  0  0  0  0  0  0  0  0  0  0
   -1.3115    0.7798   -0.0000 C   0  0  0  0  0  0  0  0  0  0  0  0
    2.5875    0.0236   -0.0000 C   0  0  0  0  0  0  0  0  0  0  0  0
    1.2878    2.2685   -0.0000 C   0  0  0  0  0  0  0  0  0  0  0  0
   -1.3233    2.2921   -0.0000 C   0  0  0  0  0  0  0  0  0  0  0  0
    3.8753    0.8034   -0.0000 C   0  0  0  0  0  0  0  0  0  0  0  0
    2.5757    3.0483   -0.0000 C   0  0  0  0  0  0  0  0  0  0  0  0
    0.1654    2.3039   -0.0000 C   0  0  0  0  0  0  0  0  0  0  0  0
   -2.8356    2.3039   -0.0000 C   0  0  0  0  0  0  0  0  0  0  0  0
   -1.3351    3.8044   -0.0000 C   0  0  0  0  0  0  0  0  0  0  0  0
    3.8635    2.3157   -0.0000 C   0  0  0  0  0  0  0  0  0  0  0  0
    5.1632    0.0709   -0.0000 C   0  0  0  0  0  0  0  0  0  0  0  0
    5.1395    3.0719   -0.0000 C   0  0  0  0  0  0  0  0  0  0  0  0
    6.4510    0.8271   -0.0000 C   0  0  0  0  0  0  0  0  0  0  0  0
    6.4274    2.3394   -0.0000 C   0  0  0  0  0  0  0  0  0  0  0  0
    7.7152    3.1192   -0.0000 C   0  0  0  0  0  0  0  0  0  0  0  0
    7.6916    4.6315   -0.0000 N   0  0  0  0  0  0  0  0  0  0  0  0
    9.0031    2.3866   -0.0000 C   0  0  0  0  0  0  0  0  0  0  0  0
    6.4628    5.5058   -0.0000 C   0  0  0  0  0  0  0  0  0  0  0  0
    8.8967    5.5294   -0.0000 C   0  0  0  0  0  0  0  0  0  0  0  0
    9.0031    0.8979   -0.0000 N   0  0  0  0  0  0  0  0  0  0  0  0
   10.2909    3.1428   -0.0000 C   0  0  0  0  0  0  0  0  0  0  0  0
    6.9000    6.9472   -0.0000 N   0  0  0  0  0  0  0  0  0  0  0  0
    8.4123    6.9472   -0.0000 C   0  0  0  0  0  0  0  0  0  0  0  0
   10.2909    0.1654   -0.0000 C   0  0  0  0  0  0  0  0  0  0  0  0
    7.6916    0.1654   -0.0000 C   0  0  0  0  0  0  0  0  0  0  0  0
  1  2  1  0  0  0  0
  1  3  1  0  0  0  0
  2  4  2  0  0  0  0
  2  5  1  0  0  0  0
  3  6  1  0  0  0  0
  4  7  1  0  0  0  0
  5  8  2  0  0  0  0
  6  9  1  0  0  0  0
  6 10  1  0  0  0  0
  6 11  1  0  0  0  0
  7 12  1  0  0  0  0
  7 13  2  0  0  0  0
 12 14  2  0  0  0  0
 13 15  1  0  0  0  0
 14 16  1  0  0  0  0
 16 17  1  0  0  0  0
 17 18  1  0  0  0  0
 17 19  1  0  0  0  0
 18 20  1  0  0  0  0
 18 21  1  0  0  0  0
 19 22  1  0  0  0  0
 19 23  1  0  0  0  0
 20 24  2  0  0  0  0
 21 25  2  0  0  0  0
 22 26  1  0  0  0  0
 22 27  1  0  0  0  0
  8 12  1  0  0  0  0
 15 16  2  0  0  0  0
 24 25  1  0  0  0  0
M  END
>  <MolRegNo>
301985

>  <m>
=

>  <Value>
700

>  <Unit>
nM

>  <Type>
IC50

>  <pValue>
6.16

>  <Ligand Efficiency>
0

>  <Binding Efficiency>
0

>  <Surface Efficiency>
0

>  <Assay Index>
238260

>  <Assay Category>


>  <Assay Organism>


>  <Target ID>
17045

>  <Target Name>
Cytochrome P450 3A4

>  <Target Organism>
Homo sapiens

>  <Target Description>
Target is a single protein chain

>  <Sequence Accession>
P08684

>  <Reference>
Bioorg Med Chem Lett 15 (6), 1669-1673 (2005)

>  <Pubmed ID>
15745819

>  <DOI>
10.1016/j.bmcl.2005.01.044

$$$$
302008
Actelion Java MolfileCreator 1.0

 33 36  0  0  0  0  0  0  0  0999 V2000
    0.0000   -0.0000   -0.0000 O   0  0  0  0  0  0  0  0  0  0  0  0
    1.2672   -0.7579   -0.0000 C   0  0  0  0  0  0  0  0  0  0  0  0
    2.5817   -0.0355   -0.0000 O   0  0  0  0  0  0  0  0  0  0  0  0
    1.2317   -2.2501   -0.0000 C   0  0  0  0  0  0  0  0  0  0  0  0
    3.8608   -0.7935   -0.0000 C   0  0  0  0  0  0  0  0  0  0  0  0
   -0.1066   -2.9726   -0.0000 C   0  0  0  0  0  0  0  0  0  0  0  0
    2.4988   -3.0318   -0.0000 C   0  0  0  0  0  0  0  0  0  0  0  0
   -0.1421   -4.4411   -0.0000 C   0  0  0  0  0  0  0  0  0  0  0  0
    2.4515   -4.5240   -0.0000 C   0  0  0  0  0  0  0  0  0  0  0  0
    1.1251   -5.2227   -0.0000 C   0  0  0  0  0  0  0  0  0  0  0  0
    1.0659   -6.7149   -0.0000 C   0  0  0  0  0  0  0  0  0  0  0  0
    2.3449   -7.4728   -0.0000 O   0  0  0  0  0  0  0  0  0  0  0  0
    3.6358   -6.7030   -0.0000 C   0  0  0  0  0  0  0  0  0  0  0  0
    4.9266   -7.4491   -0.0000 C   0  0  0  0  0  0  0  0  0  0  0  0
    3.6239   -5.1990   -0.0000 C   0  0  0  0  0  0  0  0  0  0  0  0
    6.2412   -6.6675   -0.0000 C   0  0  0  0  0  0  0  0  0  0  0  0
    4.9148   -4.4174   -0.0000 C   0  0  0  0  0  0  0  0  0  0  0  0
    6.2293   -5.1516   -0.0000 C   0  0  0  0  0  0  0  0  0  0  0  0
    7.5320   -7.4136   -0.0000 C   0  0  0  0  0  0  0  0  0  0  0  0
    7.4965   -4.3937   -0.0000 C   0  0  0  0  0  0  0  0  0  0  0  0
    8.8229   -6.6557   -0.0000 C   0  0  0  0  0  0  0  0  0  0  0  0
    8.7992   -5.1279   -0.0000 C   0  0  0  0  0  0  0  0  0  0  0  0
   10.0901   -4.3463   -0.0000 C   0  0  0  0  0  0  0  0  0  0  0  0
   10.0546   -2.8304   -0.0000 N   0  0  0  0  0  0  0  0  0  0  0  0
   11.3810   -5.0806   -0.0000 C   0  0  0  0  0  0  0  0  0  0  0  0
    8.8348   -1.9541   -0.0000 C   0  0  0  0  0  0  0  0  0  0  0  0
   11.2507   -1.9304   -0.0000 C   0  0  0  0  0  0  0  0  0  0  0  0
   11.3691   -6.5728   -0.0000 N   0  0  0  0  0  0  0  0  0  0  0  0
   12.6718   -4.3226   -0.0000 C   0  0  0  0  0  0  0  0  0  0  0  0
    9.2729   -0.5092   -0.0000 N   0  0  0  0  0  0  0  0  0  0  0  0
   10.7888   -0.4856   -0.0000 C   0  0  0  0  0  0  0  0  0  0  0  0
   10.0546   -7.3189   -0.0000 C   0  0  0  0  0  0  0  0  0  0  0  0
   12.6837   -7.3070   -0.0000 C   0  0  0  0  0  0  0  0  0  0  0  0
  1  2  2  0  0  0  0
  2  3  1  0  0  0  0
  2  4  1  0  0  0  0
  3  5  1  0  0  0  0
  4  6  2  0  0  0  0
  4  7  1  0  0  0  0
  6  8  1  0  0  0  0
  7  9  2  0  0  0  0
  8 10  2  0  0  0  0
 10 11  1  0  0  0  0
 11 12  1  0  0  0  0
 12 13  1  0  0  0  0
 13 14  2  0  0  0  0
 13 15  1  0  0  0  0
 14 16  1  0  0  0  0
 15 17  2  0  0  0  0
 16 18  1  0  0  0  0
 16 19  2  0  0  0  0
 18 20  2  0  0  0  0
 19 21  1  0  0  0  0
 20 22  1  0  0  0  0
 22 23  1  0  0  0  0
 23 24  1  0  0  0  0
 23 25  1  0  0  0  0
 24 26  1  0  0  0  0
 24 27  1  0  0  0  0
 25 28  1  0  0  0  0
 25 29  1  0  0  0  0
 26 30  2  0  0  0  0
 27 31  2  0  0  0  0
 28 32  1  0  0  0  0
 28 33  1  0  0  0  0
  9 10  1  0  0  0  0
 17 18  1  0  0  0  0
 21 22  2  0  0  0  0
 30 31  1  0  0  0  0
M  END
>  <MolRegNo>
302008

>  <m>
=

>  <Value>
40

>  <Unit>
nM

>  <Type>
IC50

>  <pValue>
7.4

>  <Ligand Efficiency>
0

>  <Binding Efficiency>
0

>  <Surface Efficiency>
0

>  <Assay Index>
238260

>  <Assay Category>


>  <Assay Organism>


>  <Target ID>
17045

>  <Target Name>
Cytochrome P450 3A4

>  <Target Organism>
Homo sapiens

>  <Target Description>
Target is a single protein chain

>  <Sequence Accession>
P08684

>  <Reference>
Bioorg Med Chem Lett 15 (6), 1669-1673 (2005)

>  <Pubmed ID>
15745819

>  <DOI>
10.1016/j.bmcl.2005.01.044

$$$$
302168
Actelion Java MolfileCreator 1.0

 31 34  0  0  0  0  0  0  0  0999 V2000
    0.0000   -0.0000   -0.0000 O   0  0  0  0  0  0  0  0  0  0  0  0
    1.2852    0.7546   -0.0000 C   0  0  0  0  0  0  0  0  0  0  0  0
   -1.3088    0.7782   -0.0000 C   0  0  0  0  0  0  0  0  0  0  0  0
    2.5705    0.0118   -0.0000 C   0  0  0  0  0  0  0  0  0  0  0  0
    1.2734    2.2639   -0.0000 C   0  0  0  0  0  0  0  0  0  0  0  0
   -1.2734    2.2875   -0.0000 C   0  0  0  0  0  0  0  0  0  0  0  0
    3.8675    0.7900   -0.0000 C   0  0  0  0  0  0  0  0  0  0  0  0
    2.5587    3.0421   -0.0000 C   0  0  0  0  0  0  0  0  0  0  0  0
   -2.5587    3.0893   -0.0000 C   0  0  0  0  0  0  0  0  0  0  0  0
    0.0354    3.0068   -0.0000 C   0  0  0  0  0  0  0  0  0  0  0  0
    3.8557    2.2993   -0.0000 C   0  0  0  0  0  0  0  0  0  0  0  0
    5.1528    0.0472   -0.0000 C   0  0  0  0  0  0  0  0  0  0  0  0
   -2.5469    4.5750   -0.0000 C   0  0  0  0  0  0  0  0  0  0  0  0
    0.0472    4.5160   -0.0000 C   0  0  0  0  0  0  0  0  0  0  0  0
    5.1174    3.0539   -0.0000 C   0  0  0  0  0  0  0  0  0  0  0  0
    6.4380    0.8018   -0.0000 C   0  0  0  0  0  0  0  0  0  0  0  0
   -1.2499    5.3178   -0.0000 C   0  0  0  0  0  0  0  0  0  0  0  0
    6.4262    2.3229   -0.0000 C   0  0  0  0  0  0  0  0  0  0  0  0
   -1.2263    6.8271   -0.0000 C   0  0  0  0  0  0  0  0  0  0  0  0
    7.6996    3.1011   -0.0000 C   0  0  0  0  0  0  0  0  0  0  0  0
   -1.1909    8.3364   -0.0000 N   0  0  0  0  0  0  0  0  0  0  0  0
    7.6761    4.6104   -0.0000 N   0  0  0  0  0  0  0  0  0  0  0  0
    8.9849    2.3700   -0.0000 C   0  0  0  0  0  0  0  0  0  0  0  0
    6.4616    5.4829   -0.0000 C   0  0  0  0  0  0  0  0  0  0  0  0
    8.8670    5.5065   -0.0000 C   0  0  0  0  0  0  0  0  0  0  0  0
    8.9731    0.8843   -0.0000 N   0  0  0  0  0  0  0  0  0  0  0  0
   10.2701    3.1365   -0.0000 C   0  0  0  0  0  0  0  0  0  0  0  0
    6.8978    6.9214   -0.0000 N   0  0  0  0  0  0  0  0  0  0  0  0
    8.3953    6.9450   -0.0000 C   0  0  0  0  0  0  0  0  0  0  0  0
    7.6643    0.1415   -0.0000 C   0  0  0  0  0  0  0  0  0  0  0  0
   10.2701    0.1533   -0.0000 C   0  0  0  0  0  0  0  0  0  0  0  0
  1  2  1  0  0  0  0
  1  3  1  0  0  0  0
  2  4  2  0  0  0  0
  2  5  1  0  0  0  0
  3  6  1  0  0  0  0
  4  7  1  0  0  0  0
  5  8  2  0  0  0  0
  6  9  2  0  0  0  0
  6 10  1  0  0  0  0
  7 11  1  0  0  0  0
  7 12  2  0  0  0  0
  9 13  1  0  0  0  0
 10 14  2  0  0  0  0
 11 15  2  0  0  0  0
 12 16  1  0  0  0  0
 13 17  2  0  0  0  0
 15 18  1  0  0  0  0
 17 19  1  0  0  0  0
 18 20  1  0  0  0  0
 19 21  3  0  0  0  0
 20 22  1  0  0  0  0
 20 23  1  0  0  0  0
 22 24  1  0  0  0  0
 22 25  1  0  0  0  0
 23 26  1  0  0  0  0
 23 27  1  0  0  0  0
 24 28  2  0  0  0  0
 25 29  2  0  0  0  0
 26 30  1  0  0  0  0
 26 31  1  0  0  0  0
  8 11  1  0  0  0  0
 14 17  1  0  0  0  0
 16 18  2  0  0  0  0
 28 29  1  0  0  0  0
M  END
>  <MolRegNo>
302168

>  <m>
=

>  <Value>
320

>  <Unit>
nM

>  <Type>
IC50

>  <pValue>
6.5

>  <Ligand Efficiency>
0

>  <Binding Efficiency>
0

>  <Surface Efficiency>
0

>  <Assay Index>
238260

>  <Assay Category>


>  <Assay Organism>


>  <Target ID>
17045

>  <Target Name>
Cytochrome P450 3A4

>  <Target Organism>
Homo sapiens

>  <Target Description>
Target is a single protein chain

>  <Sequence Accession>
P08684

>  <Reference>
Bioorg Med Chem Lett 15 (6), 1669-1673 (2005)

>  <Pubmed ID>
15745819

>  <DOI>
10.1016/j.bmcl.2005.01.044

$$$$
302203
Actelion Java MolfileCreator 1.0

 32 35  0  0  0  0  0  0  0  0999 V2000
    0.0000   -0.0000   -0.0000 O   0  0  0  0  0  0  0  0  0  0  0  0
    1.2897   -0.7642   -0.0000 N   0  0  0  0  0  0  0  0  0  0  0  0
    2.5793   -0.0358   -0.0000 O   0  0  0  0  0  0  0  0  0  0  0  0
    1.2419   -2.2689   -0.0000 C   0  0  0  0  0  0  0  0  0  0  0  0
   -0.0955   -2.9734   -0.0000 C   0  0  0  0  0  0  0  0  0  0  0  0
    2.5077   -3.0331   -0.0000 C   0  0  0  0  0  0  0  0  0  0  0  0
   -0.1314   -4.4541   -0.0000 C   0  0  0  0  0  0  0  0  0  0  0  0
    2.4599   -4.5258   -0.0000 C   0  0  0  0  0  0  0  0  0  0  0  0
    1.1344   -5.2423   -0.0000 C   0  0  0  0  0  0  0  0  0  0  0  0
    1.0747   -6.7349   -0.0000 C   0  0  0  0  0  0  0  0  0  0  0  0
    2.3644   -7.4873   -0.0000 O   0  0  0  0  0  0  0  0  0  0  0  0
    3.6541   -6.7230   -0.0000 C   0  0  0  0  0  0  0  0  0  0  0  0
    4.9437   -7.4634   -0.0000 C   0  0  0  0  0  0  0  0  0  0  0  0
    3.6421   -5.2064   -0.0000 C   0  0  0  0  0  0  0  0  0  0  0  0
    6.2453   -6.6872   -0.0000 C   0  0  0  0  0  0  0  0  0  0  0  0
    4.9318   -4.4303   -0.0000 C   0  0  0  0  0  0  0  0  0  0  0  0
    6.2334   -5.1706   -0.0000 C   0  0  0  0  0  0  0  0  0  0  0  0
    7.5231   -7.4275   -0.0000 C   0  0  0  0  0  0  0  0  0  0  0  0
    7.4992   -4.3944   -0.0000 C   0  0  0  0  0  0  0  0  0  0  0  0
    8.8127   -6.6514   -0.0000 C   0  0  0  0  0  0  0  0  0  0  0  0
    8.8008   -5.1348   -0.0000 C   0  0  0  0  0  0  0  0  0  0  0  0
   10.0905   -4.3586   -0.0000 C   0  0  0  0  0  0  0  0  0  0  0  0
   10.0666   -2.8421   -0.0000 N   0  0  0  0  0  0  0  0  0  0  0  0
   11.3801   -5.0870   -0.0000 C   0  0  0  0  0  0  0  0  0  0  0  0
    8.8366   -1.9464   -0.0000 C   0  0  0  0  0  0  0  0  0  0  0  0
   11.2607   -1.9464   -0.0000 C   0  0  0  0  0  0  0  0  0  0  0  0
   11.3801   -6.5797   -0.0000 N   0  0  0  0  0  0  0  0  0  0  0  0
   12.6698   -4.3228   -0.0000 C   0  0  0  0  0  0  0  0  0  0  0  0
    9.2785   -0.5015   -0.0000 N   0  0  0  0  0  0  0  0  0  0  0  0
   10.7831   -0.5135   -0.0000 C   0  0  0  0  0  0  0  0  0  0  0  0
   10.0666   -7.3320   -0.0000 C   0  0  0  0  0  0  0  0  0  0  0  0
   12.6818   -7.3201   -0.0000 C   0  0  0  0  0  0  0  0  0  0  0  0
  1  2  2  0  0  0  0
  2  3  1  0  0  0  0
  2  4  1  0  0  0  0
  4  5  2  0  0  0  0
  4  6  1  0  0  0  0
  5  7  1  0  0  0  0
  6  8  2  0  0  0  0
  7  9  2  0  0  0  0
  9 10  1  0  0  0  0
 10 11  1  0  0  0  0
 11 12  1  0  0  0  0
 12 13  2  0  0  0  0
 12 14  1  0  0  0  0
 13 15  1  0  0  0  0
 14 16  2  0  0  0  0
 15 17  1  0  0  0  0
 15 18  2  0  0  0  0
 17 19  2  0  0  0  0
 18 20  1  0  0  0  0
 19 21  1  0  0  0  0
 21 22  1  0  0  0  0
 22 23  1  0  0  0  0
 22 24  1  0  0  0  0
 23 25  1  0  0  0  0
 23 26  1  0  0  0  0
 24 27  1  0  0  0  0
 24 28  1  0  0  0  0
 25 29  2  0  0  0  0
 26 30  2  0  0  0  0
 27 31  1  0  0  0  0
 27 32  1  0  0  0  0
  8  9  1  0  0  0  0
 16 17  1  0  0  0  0
 20 21  2  0  0  0  0
 29 30  1  0  0  0  0
M  CHG  2   2   1   3  -1
M  END
>  <MolRegNo>
302203

>  <m>
=

>  <Value>
344

>  <Unit>
nM

>  <Type>
IC50

>  <pValue>
6.46

>  <Ligand Efficiency>
0

>  <Binding Efficiency>
0

>  <Surface Efficiency>
0

>  <Assay Index>
238260

>  <Assay Category>


>  <Assay Organism>


>  <Target ID>
17045

>  <Target Name>
Cytochrome P450 3A4

>  <Target Organism>
Homo sapiens

>  <Target Description>
Target is a single protein chain

>  <Sequence Accession>
P08684

>  <Reference>
Bioorg Med Chem Lett 15 (6), 1669-1673 (2005)

>  <Pubmed ID>
15745819

>  <DOI>
10.1016/j.bmcl.2005.01.044

$$$$
302220
Actelion Java MolfileCreator 1.0

 26 28  0  0  0  0  0  0  0  0999 V2000
    0.0000   -0.0000   -0.0000 O   0  0  0  0  0  0  0  0  0  0  0  0
   -0.0119    1.5271   -0.0000 C   0  0  0  0  0  0  0  0  0  0  0  0
   -1.3005    2.2907   -0.0000 O   0  0  0  0  0  0  0  0  0  0  0  0
    1.2885    2.2788   -0.0000 C   0  0  0  0  0  0  0  0  0  0  0  0
    2.5770    1.5271   -0.0000 O   0  0  0  0  0  0  0  0  0  0  0  0
    3.8775    2.2907   -0.0000 C   0  0  0  0  0  0  0  0  0  0  0  0
    5.1422    1.5510   -0.0000 C   0  0  0  0  0  0  0  0  0  0  0  0
    3.8656    3.8059   -0.0000 C   0  0  0  0  0  0  0  0  0  0  0  0
    6.4426    2.3265   -0.0000 C   0  0  0  0  0  0  0  0  0  0  0  0
    5.1302    4.5695   -0.0000 C   0  0  0  0  0  0  0  0  0  0  0  0
    6.4307    3.8417   -0.0000 C   0  0  0  0  0  0  0  0  0  0  0  0
    7.7311    1.5868   -0.0000 C   0  0  0  0  0  0  0  0  0  0  0  0
    7.7192    4.6172   -0.0000 C   0  0  0  0  0  0  0  0  0  0  0  0
    9.0077    2.3623   -0.0000 C   0  0  0  0  0  0  0  0  0  0  0  0
    9.0077    3.8775   -0.0000 C   0  0  0  0  0  0  0  0  0  0  0  0
   10.2962    4.6530   -0.0000 C   0  0  0  0  0  0  0  0  0  0  0  0
   10.2843    6.1682   -0.0000 N   0  0  0  0  0  0  0  0  0  0  0  0
   11.5848    3.9252   -0.0000 C   0  0  0  0  0  0  0  0  0  0  0  0
    9.0435    7.0630   -0.0000 C   0  0  0  0  0  0  0  0  0  0  0  0
   11.4655    7.0630   -0.0000 C   0  0  0  0  0  0  0  0  0  0  0  0
   11.5728    2.4339   -0.0000 N   0  0  0  0  0  0  0  0  0  0  0  0
   12.8614    4.6888   -0.0000 C   0  0  0  0  0  0  0  0  0  0  0  0
    9.4969    8.5066   -0.0000 N   0  0  0  0  0  0  0  0  0  0  0  0
   10.9882    8.4947   -0.0000 C   0  0  0  0  0  0  0  0  0  0  0  0
   12.8733    1.6942   -0.0000 C   0  0  0  0  0  0  0  0  0  0  0  0
   10.2604    1.6822   -0.0000 C   0  0  0  0  0  0  0  0  0  0  0  0
  1  2  2  0  0  0  0
  2  3  1  0  0  0  0
  2  4  1  0  0  0  0
  4  5  1  0  0  0  0
  5  6  1  0  0  0  0
  6  7  2  0  0  0  0
  6  8  1  0  0  0  0
  7  9  1  0  0  0  0
  8 10  2  0  0  0  0
  9 11  1  0  0  0  0
  9 12  2  0  0  0  0
 11 13  2  0  0  0  0
 12 14  1  0  0  0  0
 13 15  1  0  0  0  0
 15 16  1  0  0  0  0
 16 17  1  0  0  0  0
 16 18  1  0  0  0  0
 17 19  1  0  0  0  0
 17 20  1  0  0  0  0
 18 21  1  0  0  0  0
 18 22  1  0  0  0  0
 19 23  2  0  0  0  0
 20 24  2  0  0  0  0
 21 25  1  0  0  0  0
 21 26  1  0  0  0  0
 10 11  1  0  0  0  0
 14 15  2  0  0  0  0
 23 24  1  0  0  0  0
M  END
>  <MolRegNo>
302220

>  <m>
=

>  <Value>
2200

>  <Unit>
nM

>  <Type>
IC50

>  <pValue>
5.66

>  <Ligand Efficiency>
0

>  <Binding Efficiency>
0

>  <Surface Efficiency>
0

>  <Assay Index>
238260

>  <Assay Category>


>  <Assay Organism>


>  <Target ID>
17045

>  <Target Name>
Cytochrome P450 3A4

>  <Target Organism>
Homo sapiens

>  <Target Description>
Target is a single protein chain

>  <Sequence Accession>
P08684

>  <Reference>
Bioorg Med Chem Lett 15 (6), 1669-1673 (2005)

>  <Pubmed ID>
15745819

>  <DOI>
10.1016/j.bmcl.2005.01.044

$$$$
302130
Actelion Java MolfileCreator 1.0

 33 36  0  0  0  0  0  0  0  0999 V2000
    0.0000   -0.0000   -0.0000 O   0  0  0  0  0  0  0  0  0  0  0  0
    1.1457    0.9685   -0.0000 C   0  0  0  0  0  0  0  0  0  0  0  0
    0.8622    2.4803   -0.0000 O   0  0  0  0  0  0  0  0  0  0  0  0
    2.5393    0.4842   -0.0000 C   0  0  0  0  0  0  0  0  0  0  0  0
    3.8267    1.2401   -0.0000 C   0  0  0  0  0  0  0  0  0  0  0  0
    5.1377    0.4842   -0.0000 C   0  0  0  0  0  0  0  0  0  0  0  0
    3.8149    2.7519   -0.0000 C   0  0  0  0  0  0  0  0  0  0  0  0
    6.4133    1.2401   -0.0000 C   0  0  0  0  0  0  0  0  0  0  0  0
    5.1259    3.4960   -0.0000 C   0  0  0  0  0  0  0  0  0  0  0  0
    6.4015    2.7519   -0.0000 C   0  0  0  0  0  0  0  0  0  0  0  0
    7.6889    3.5078   -0.0000 C   0  0  0  0  0  0  0  0  0  0  0  0
    8.9527    2.7519   -0.0000 O   0  0  0  0  0  0  0  0  0  0  0  0
   10.2637    3.5197   -0.0000 C   0  0  0  0  0  0  0  0  0  0  0  0
   11.5511    2.7756   -0.0000 C   0  0  0  0  0  0  0  0  0  0  0  0
   10.2519    5.0196   -0.0000 C   0  0  0  0  0  0  0  0  0  0  0  0
   12.8621    3.5551   -0.0000 C   0  0  0  0  0  0  0  0  0  0  0  0
   11.5393    5.7992   -0.0000 C   0  0  0  0  0  0  0  0  0  0  0  0
   12.8503    5.0669   -0.0000 C   0  0  0  0  0  0  0  0  0  0  0  0
   14.1495    2.8110   -0.0000 C   0  0  0  0  0  0  0  0  0  0  0  0
   14.1140    5.8228   -0.0000 C   0  0  0  0  0  0  0  0  0  0  0  0
   15.4369    3.5669   -0.0000 C   0  0  0  0  0  0  0  0  0  0  0  0
   15.4132    5.0905   -0.0000 C   0  0  0  0  0  0  0  0  0  0  0  0
   16.7006    5.8700   -0.0000 C   0  0  0  0  0  0  0  0  0  0  0  0
   16.6652    7.3818   -0.0000 N   0  0  0  0  0  0  0  0  0  0  0  0
   17.9880    5.1259   -0.0000 C   0  0  0  0  0  0  0  0  0  0  0  0
   15.4369    8.2558   -0.0000 C   0  0  0  0  0  0  0  0  0  0  0  0
   17.8581    8.2795   -0.0000 C   0  0  0  0  0  0  0  0  0  0  0  0
   17.9762    3.6378   -0.0000 N   0  0  0  0  0  0  0  0  0  0  0  0
   19.2754    5.8936   -0.0000 C   0  0  0  0  0  0  0  0  0  0  0  0
   15.8857    9.6968   -0.0000 N   0  0  0  0  0  0  0  0  0  0  0  0
   17.3975    9.6968   -0.0000 C   0  0  0  0  0  0  0  0  0  0  0  0
   19.2872    2.9055   -0.0000 C   0  0  0  0  0  0  0  0  0  0  0  0
   16.6652    2.9055   -0.0000 C   0  0  0  0  0  0  0  0  0  0  0  0
  1  2  2  0  0  0  0
  2  3  1  0  0  0  0
  2  4  1  0  0  0  0
  4  5  1  0  0  0  0
  5  6  2  0  0  0  0
  5  7  1  0  0  0  0
  6  8  1  0  0  0  0
  7  9  2  0  0  0  0
  8 10  2  0  0  0  0
 10 11  1  0  0  0  0
 11 12  1  0  0  0  0
 12 13  1  0  0  0  0
 13 14  2  0  0  0  0
 13 15  1  0  0  0  0
 14 16  1  0  0  0  0
 15 17  2  0  0  0  0
 16 18  1  0  0  0  0
 16 19  2  0  0  0  0
 18 20  2  0  0  0  0
 19 21  1  0  0  0  0
 20 22  1  0  0  0  0
 22 23  1  0  0  0  0
 23 24  1  0  0  0  0
 23 25  1  0  0  0  0
 24 26  1  0  0  0  0
 24 27  1  0  0  0  0
 25 28  1  0  0  0  0
 25 29  1  0  0  0  0
 26 30  2  0  0  0  0
 27 31  2  0  0  0  0
 28 32  1  0  0  0  0
 28 33  1  0  0  0  0
  9 10  1  0  0  0  0
 17 18  1  0  0  0  0
 21 22  2  0  0  0  0
 30 31  1  0  0  0  0
M  END
>  <MolRegNo>
302130

>  <m>
=

>  <Value>
4

>  <Unit>
nM

>  <Type>
IC50

>  <pValue>
8.4

>  <Ligand Efficiency>
0

>  <Binding Efficiency>
0

>  <Surface Efficiency>
0

>  <Assay Index>
238260

>  <Assay Category>


>  <Assay Organism>


>  <Target ID>
17045

>  <Target Name>
Cytochrome P450 3A4

>  <Target Organism>
Homo sapiens

>  <Target Description>
Target is a single protein chain

>  <Sequence Accession>
P08684

>  <Reference>
Bioorg Med Chem Lett 15 (6), 1669-1673 (2005)

>  <Pubmed ID>
15745819

>  <DOI>
10.1016/j.bmcl.2005.01.044

$$$$
302149
Actelion Java MolfileCreator 1.0

 34 37  0  0  0  0  0  0  0  0999 V2000
    0.0000   -0.0000   -0.0000 O   0  0  0  0  0  0  0  0  0  0  0  0
    1.2434   -0.8010   -0.0000 C   0  0  0  0  0  0  0  0  0  0  0  0
    2.5705   -0.0598   -0.0000 O   0  0  0  0  0  0  0  0  0  0  0  0
    1.2075   -2.2716   -0.0000 C   0  0  0  0  0  0  0  0  0  0  0  0
   -0.1196   -2.9770   -0.0000 O   0  0  0  0  0  0  0  0  0  0  0  0
   -0.1674   -4.4715   -0.0000 C   0  0  0  0  0  0  0  0  0  0  0  0
   -1.5184   -5.1889   -0.0000 C   0  0  0  0  0  0  0  0  0  0  0  0
    1.0760   -5.2606   -0.0000 C   0  0  0  0  0  0  0  0  0  0  0  0
   -1.5662   -6.6594   -0.0000 C   0  0  0  0  0  0  0  0  0  0  0  0
    1.0402   -6.7551   -0.0000 C   0  0  0  0  0  0  0  0  0  0  0  0
   -0.2989   -7.4246   -0.0000 C   0  0  0  0  0  0  0  0  0  0  0  0
   -0.3228   -8.9310   -0.0000 C   0  0  0  0  0  0  0  0  0  0  0  0
    0.9684   -9.6603   -0.0000 O   0  0  0  0  0  0  0  0  0  0  0  0
    2.2716   -8.9071   -0.0000 C   0  0  0  0  0  0  0  0  0  0  0  0
    3.5629   -9.6364   -0.0000 C   0  0  0  0  0  0  0  0  0  0  0  0
    2.2597   -7.3768   -0.0000 C   0  0  0  0  0  0  0  0  0  0  0  0
    4.8541   -8.8832   -0.0000 C   0  0  0  0  0  0  0  0  0  0  0  0
    3.5509   -6.6236   -0.0000 C   0  0  0  0  0  0  0  0  0  0  0  0
    4.8421   -7.3529   -0.0000 C   0  0  0  0  0  0  0  0  0  0  0  0
    6.1453   -9.6125   -0.0000 C   0  0  0  0  0  0  0  0  0  0  0  0
    6.1334   -6.5877   -0.0000 C   0  0  0  0  0  0  0  0  0  0  0  0
    7.4366   -8.8473   -0.0000 C   0  0  0  0  0  0  0  0  0  0  0  0
    7.4246   -7.3170   -0.0000 C   0  0  0  0  0  0  0  0  0  0  0  0
    8.7158   -6.5399   -0.0000 C   0  0  0  0  0  0  0  0  0  0  0  0
    8.7039   -5.0454   -0.0000 N   0  0  0  0  0  0  0  0  0  0  0  0
   10.0071   -7.2811   -0.0000 C   0  0  0  0  0  0  0  0  0  0  0  0
    7.4605   -4.1487   -0.0000 C   0  0  0  0  0  0  0  0  0  0  0  0
    9.8995   -4.1487   -0.0000 C   0  0  0  0  0  0  0  0  0  0  0  0
   10.0071   -8.7756   -0.0000 N   0  0  0  0  0  0  0  0  0  0  0  0
   11.2983   -6.5040   -0.0000 C   0  0  0  0  0  0  0  0  0  0  0  0
    7.9028   -2.7020   -0.0000 N   0  0  0  0  0  0  0  0  0  0  0  0
    9.4093   -2.6901   -0.0000 C   0  0  0  0  0  0  0  0  0  0  0  0
    8.6919   -9.5288   -0.0000 C   0  0  0  0  0  0  0  0  0  0  0  0
   11.2983   -9.5049   -0.0000 C   0  0  0  0  0  0  0  0  0  0  0  0
  1  2  2  0  0  0  0
  2  3  1  0  0  0  0
  2  4  1  0  0  0  0
  4  5  1  0  0  0  0
  5  6  1  0  0  0  0
  6  7  2  0  0  0  0
  6  8  1  0  0  0  0
  7  9  1  0  0  0  0
  8 10  2  0  0  0  0
  9 11  2  0  0  0  0
 11 12  1  0  0  0  0
 12 13  1  0  0  0  0
 13 14  1  0  0  0  0
 14 15  2  0  0  0  0
 14 16  1  0  0  0  0
 15 17  1  0  0  0  0
 16 18  2  0  0  0  0
 17 19  1  0  0  0  0
 17 20  2  0  0  0  0
 19 21  2  0  0  0  0
 20 22  1  0  0  0  0
 21 23  1  0  0  0  0
 23 24  1  0  0  0  0
 24 25  1  0  0  0  0
 24 26  1  0  0  0  0
 25 27  1  0  0  0  0
 25 28  1  0  0  0  0
 26 29  1  0  0  0  0
 26 30  1  0  0  0  0
 27 31  2  0  0  0  0
 28 32  2  0  0  0  0
 29 33  1  0  0  0  0
 29 34  1  0  0  0  0
 10 11  1  0  0  0  0
 18 19  1  0  0  0  0
 22 23  2  0  0  0  0
 31 32  1  0  0  0  0
M  END
>  <MolRegNo>
302149

>  <m>
=

>  <Value>
750

>  <Unit>
nM

>  <Type>
IC50

>  <pValue>
6.12

>  <Ligand Efficiency>
0

>  <Binding Efficiency>
0

>  <Surface Efficiency>
0

>  <Assay Index>
238260

>  <Assay Category>


>  <Assay Organism>


>  <Target ID>
17045

>  <Target Name>
Cytochrome P450 3A4

>  <Target Organism>
Homo sapiens

>  <Target Description>
Target is a single protein chain

>  <Sequence Accession>
P08684

>  <Reference>
Bioorg Med Chem Lett 15 (6), 1669-1673 (2005)

>  <Pubmed ID>
15745819

>  <DOI>
10.1016/j.bmcl.2005.01.044

$$$$
301990
Actelion Java MolfileCreator 1.0

 32 35  0  0  0  0  0  0  0  0999 V2000
    0.0000   -0.0000   -0.0000 O   0  0  0  0  0  0  0  0  0  0  0  0
    1.3113    0.7459   -0.0000 C   0  0  0  0  0  0  0  0  0  0  0  0
    1.3234    2.2617   -0.0000 O   0  0  0  0  0  0  0  0  0  0  0  0
    2.5745   -0.0361   -0.0000 C   0  0  0  0  0  0  0  0  0  0  0  0
    2.5385   -1.5159   -0.0000 C   0  0  0  0  0  0  0  0  0  0  0  0
    3.8859    0.7098   -0.0000 C   0  0  0  0  0  0  0  0  0  0  0  0
    3.8017   -2.2617   -0.0000 C   0  0  0  0  0  0  0  0  0  0  0  0
    5.1731   -0.0722   -0.0000 C   0  0  0  0  0  0  0  0  0  0  0  0
    5.1130   -1.5519   -0.0000 C   0  0  0  0  0  0  0  0  0  0  0  0
    3.7896   -3.7535   -0.0000 C   0  0  0  0  0  0  0  0  0  0  0  0
    5.0769   -4.5115   -0.0000 O   0  0  0  0  0  0  0  0  0  0  0  0
    6.3642   -3.7535   -0.0000 C   0  0  0  0  0  0  0  0  0  0  0  0
    7.6514   -4.4874   -0.0000 C   0  0  0  0  0  0  0  0  0  0  0  0
    6.3521   -2.2136   -0.0000 C   0  0  0  0  0  0  0  0  0  0  0  0
    8.9508   -3.7054   -0.0000 C   0  0  0  0  0  0  0  0  0  0  0  0
    7.6394   -1.4677   -0.0000 C   0  0  0  0  0  0  0  0  0  0  0  0
    8.9387   -2.1896   -0.0000 C   0  0  0  0  0  0  0  0  0  0  0  0
   10.2501   -4.4633   -0.0000 C   0  0  0  0  0  0  0  0  0  0  0  0
   10.2140   -1.4196   -0.0000 C   0  0  0  0  0  0  0  0  0  0  0  0
   11.5373   -3.6814   -0.0000 C   0  0  0  0  0  0  0  0  0  0  0  0
   11.5253   -2.1655   -0.0000 C   0  0  0  0  0  0  0  0  0  0  0  0
   12.8126   -1.3955   -0.0000 C   0  0  0  0  0  0  0  0  0  0  0  0
   12.7765    0.1203   -0.0000 N   0  0  0  0  0  0  0  0  0  0  0  0
   14.0998   -2.1174   -0.0000 C   0  0  0  0  0  0  0  0  0  0  0  0
   11.5614    1.0106   -0.0000 C   0  0  0  0  0  0  0  0  0  0  0  0
   13.9675    1.0346   -0.0000 C   0  0  0  0  0  0  0  0  0  0  0  0
   14.0878   -3.6092   -0.0000 N   0  0  0  0  0  0  0  0  0  0  0  0
   15.3871   -1.3595   -0.0000 C   0  0  0  0  0  0  0  0  0  0  0  0
   12.0065    2.4663   -0.0000 N   0  0  0  0  0  0  0  0  0  0  0  0
   13.4983    2.4663   -0.0000 C   0  0  0  0  0  0  0  0  0  0  0  0
   12.7765   -4.3551   -0.0000 C   0  0  0  0  0  0  0  0  0  0  0  0
   15.3991   -4.3551   -0.0000 C   0  0  0  0  0  0  0  0  0  0  0  0
  1  2  2  0  0  0  0
  2  3  1  0  0  0  0
  2  4  1  0  0  0  0
  4  5  2  0  0  0  0
  4  6  1  0  0  0  0
  5  7  1  0  0  0  0
  6  8  2  0  0  0  0
  7  9  2  0  0  0  0
  7 10  1  0  0  0  0
 10 11  1  0  0  0  0
 11 12  1  0  0  0  0
 12 13  2  0  0  0  0
 12 14  1  0  0  0  0
 13 15  1  0  0  0  0
 14 16  2  0  0  0  0
 15 17  1  0  0  0  0
 15 18  2  0  0  0  0
 17 19  2  0  0  0  0
 18 20  1  0  0  0  0
 19 21  1  0  0  0  0
 21 22  1  0  0  0  0
 22 23  1  0  0  0  0
 22 24  1  0  0  0  0
 23 25  1  0  0  0  0
 23 26  1  0  0  0  0
 24 27  1  0  0  0  0
 24 28  1  0  0  0  0
 25 29  2  0  0  0  0
 26 30  2  0  0  0  0
 27 31  1  0  0  0  0
 27 32  1  0  0  0  0
  8  9  1  0  0  0  0
 16 17  1  0  0  0  0
 20 21  2  0  0  0  0
 29 30  1  0  0  0  0
M  END
>  <MolRegNo>
301990

>  <m>
=

>  <Value>
3790

>  <Unit>
nM

>  <Type>
IC50

>  <pValue>
5.42

>  <Ligand Efficiency>
0

>  <Binding Efficiency>
0

>  <Surface Efficiency>
0

>  <Assay Index>
238260

>  <Assay Category>


>  <Assay Organism>


>  <Target ID>
17045

>  <Target Name>
Cytochrome P450 3A4

>  <Target Organism>
Homo sapiens

>  <Target Description>
Target is a single protein chain

>  <Sequence Accession>
P08684

>  <Reference>
Bioorg Med Chem Lett 15 (6), 1669-1673 (2005)

>  <Pubmed ID>
15745819

>  <DOI>
10.1016/j.bmcl.2005.01.044

$$$$
302031
Actelion Java MolfileCreator 1.0

 32 35  0  0  0  0  0  0  0  0999 V2000
    0.0000   -0.0000   -0.0000 O   0  0  0  0  0  0  0  0  0  0  0  0
    1.3345   -0.6911   -0.0000 C   0  0  0  0  0  0  0  0  0  0  0  0
    2.5737    0.1311   -0.0000 O   0  0  0  0  0  0  0  0  0  0  0  0
    1.3702   -2.1805   -0.0000 C   0  0  0  0  0  0  0  0  0  0  0  0
    2.7047   -2.8716   -0.0000 C   0  0  0  0  0  0  0  0  0  0  0  0
    0.0834   -2.9669   -0.0000 C   0  0  0  0  0  0  0  0  0  0  0  0
    2.7405   -4.3610   -0.0000 C   0  0  0  0  0  0  0  0  0  0  0  0
    0.1430   -4.4444   -0.0000 C   0  0  0  0  0  0  0  0  0  0  0  0
    1.4537   -5.1474   -0.0000 C   0  0  0  0  0  0  0  0  0  0  0  0
    1.4179   -6.6368   -0.0000 C   0  0  0  0  0  0  0  0  0  0  0  0
    2.7047   -7.3874   -0.0000 O   0  0  0  0  0  0  0  0  0  0  0  0
    3.9916   -6.6248   -0.0000 C   0  0  0  0  0  0  0  0  0  0  0  0
    5.2784   -7.3636   -0.0000 C   0  0  0  0  0  0  0  0  0  0  0  0
    3.9797   -5.0997   -0.0000 C   0  0  0  0  0  0  0  0  0  0  0  0
    6.5891   -6.5891   -0.0000 C   0  0  0  0  0  0  0  0  0  0  0  0
    5.2665   -4.3252   -0.0000 C   0  0  0  0  0  0  0  0  0  0  0  0
    6.5772   -5.0759   -0.0000 C   0  0  0  0  0  0  0  0  0  0  0  0
    7.8759   -7.3278   -0.0000 C   0  0  0  0  0  0  0  0  0  0  0  0
    7.8402   -4.3014   -0.0000 C   0  0  0  0  0  0  0  0  0  0  0  0
    9.1628   -6.5534   -0.0000 C   0  0  0  0  0  0  0  0  0  0  0  0
    9.1509   -5.0401   -0.0000 C   0  0  0  0  0  0  0  0  0  0  0  0
   10.4377   -4.2776   -0.0000 C   0  0  0  0  0  0  0  0  0  0  0  0
   10.4020   -2.7643   -0.0000 N   0  0  0  0  0  0  0  0  0  0  0  0
   11.7246   -5.0044   -0.0000 C   0  0  0  0  0  0  0  0  0  0  0  0
    9.1866   -1.8707   -0.0000 C   0  0  0  0  0  0  0  0  0  0  0  0
   11.5935   -1.8588   -0.0000 C   0  0  0  0  0  0  0  0  0  0  0  0
   11.7126   -6.4938   -0.0000 N   0  0  0  0  0  0  0  0  0  0  0  0
   13.0114   -4.2418   -0.0000 C   0  0  0  0  0  0  0  0  0  0  0  0
    9.6275   -0.4170   -0.0000 N   0  0  0  0  0  0  0  0  0  0  0  0
   11.1288   -0.4170   -0.0000 C   0  0  0  0  0  0  0  0  0  0  0  0
   13.0233   -7.2325   -0.0000 C   0  0  0  0  0  0  0  0  0  0  0  0
   10.4020   -7.2444   -0.0000 C   0  0  0  0  0  0  0  0  0  0  0  0
  1  2  2  0  0  0  0
  2  3  1  0  0  0  0
  2  4  1  0  0  0  0
  4  5  2  0  0  0  0
  4  6  1  0  0  0  0
  5  7  1  0  0  0  0
  6  8  2  0  0  0  0
  7  9  2  0  0  0  0
  9 10  1  0  0  0  0
 10 11  1  0  0  0  0
 11 12  1  0  0  0  0
 12 13  2  0  0  0  0
 12 14  1  0  0  0  0
 13 15  1  0  0  0  0
 14 16  2  0  0  0  0
 15 17  1  0  0  0  0
 15 18  2  0  0  0  0
 17 19  2  0  0  0  0
 18 20  1  0  0  0  0
 19 21  1  0  0  0  0
 21 22  1  0  0  0  0
 22 23  1  0  0  0  0
 22 24  1  0  0  0  0
 23 25  1  0  0  0  0
 23 26  1  0  0  0  0
 24 27  1  0  0  0  0
 24 28  1  0  0  0  0
 25 29  2  0  0  0  0
 26 30  2  0  0  0  0
 27 31  1  0  0  0  0
 27 32  1  0  0  0  0
  8  9  1  0  0  0  0
 16 17  1  0  0  0  0
 20 21  2  0  0  0  0
 29 30  1  0  0  0  0
M  END
>  <MolRegNo>
302031

>  <m>
=

>  <Value>
640

>  <Unit>
nM

>  <Type>
IC50

>  <pValue>
6.19

>  <Ligand Efficiency>
0

>  <Binding Efficiency>
0

>  <Surface Efficiency>
0

>  <Assay Index>
238260

>  <Assay Category>


>  <Assay Organism>


>  <Target ID>
17045

>  <Target Name>
Cytochrome P450 3A4

>  <Target Organism>
Homo sapiens

>  <Target Description>
Target is a single protein chain

>  <Sequence Accession>
P08684

>  <Reference>
Bioorg Med Chem Lett 15 (6), 1669-1673 (2005)

>  <Pubmed ID>
15745819

>  <DOI>
10.1016/j.bmcl.2005.01.044

$$$$
302062
Actelion Java MolfileCreator 1.0

 29 31  0  0  0  0  0  0  0  0999 V2000
    0.0000   -0.0000   -0.0000 O   0  0  0  0  0  0  0  0  0  0  0  0
   -0.0119   -1.4953   -0.0000 C   0  0  0  0  0  0  0  0  0  0  0  0
   -1.3292   -2.2312   -0.0000 O   0  0  0  0  0  0  0  0  0  0  0  0
    1.2817   -2.2312   -0.0000 C   0  0  0  0  0  0  0  0  0  0  0  0
    2.5753   -1.4716   -0.0000 C   0  0  0  0  0  0  0  0  0  0  0  0
    0.1899   -3.2755   -0.0000 C   0  0  0  0  0  0  0  0  0  0  0  0
    2.5635   -2.9670   -0.0000 C   0  0  0  0  0  0  0  0  0  0  0  0
    3.8689   -2.2074   -0.0000 O   0  0  0  0  0  0  0  0  0  0  0  0
    5.1625   -1.4479   -0.0000 C   0  0  0  0  0  0  0  0  0  0  0  0
    6.4561   -2.1837   -0.0000 C   0  0  0  0  0  0  0  0  0  0  0  0
    5.1506    0.0712   -0.0000 C   0  0  0  0  0  0  0  0  0  0  0  0
    7.7497   -1.4123   -0.0000 C   0  0  0  0  0  0  0  0  0  0  0  0
    6.4324    0.8307   -0.0000 C   0  0  0  0  0  0  0  0  0  0  0  0
    7.7378    0.1068   -0.0000 C   0  0  0  0  0  0  0  0  0  0  0  0
    9.0433   -2.1481   -0.0000 C   0  0  0  0  0  0  0  0  0  0  0  0
    9.0196    0.8782   -0.0000 C   0  0  0  0  0  0  0  0  0  0  0  0
   10.3369   -1.3767   -0.0000 C   0  0  0  0  0  0  0  0  0  0  0  0
   10.3131    0.1424   -0.0000 C   0  0  0  0  0  0  0  0  0  0  0  0
   11.5949    0.9138   -0.0000 C   0  0  0  0  0  0  0  0  0  0  0  0
   11.5711    2.4329   -0.0000 N   0  0  0  0  0  0  0  0  0  0  0  0
   12.8885    0.1780   -0.0000 C   0  0  0  0  0  0  0  0  0  0  0  0
   10.3487    3.3111   -0.0000 C   0  0  0  0  0  0  0  0  0  0  0  0
   12.7698    3.3349   -0.0000 C   0  0  0  0  0  0  0  0  0  0  0  0
   12.8885   -1.3173   -0.0000 N   0  0  0  0  0  0  0  0  0  0  0  0
   14.1702    0.9494   -0.0000 C   0  0  0  0  0  0  0  0  0  0  0  0
   10.7879    4.7590   -0.0000 N   0  0  0  0  0  0  0  0  0  0  0  0
   12.2832    4.7709   -0.0000 C   0  0  0  0  0  0  0  0  0  0  0  0
   11.5830   -2.0650   -0.0000 C   0  0  0  0  0  0  0  0  0  0  0  0
   14.1821   -2.0531   -0.0000 C   0  0  0  0  0  0  0  0  0  0  0  0
  1  2  2  0  0  0  0
  2  3  1  0  0  0  0
  2  4  1  0  0  0  0
  4  5  1  0  0  0  0
  4  6  1  0  0  0  0
  4  7  1  0  0  0  0
  5  8  1  0  0  0  0
  8  9  1  0  0  0  0
  9 10  2  0  0  0  0
  9 11  1  0  0  0  0
 10 12  1  0  0  0  0
 11 13  2  0  0  0  0
 12 14  1  0  0  0  0
 12 15  2  0  0  0  0
 14 16  2  0  0  0  0
 15 17  1  0  0  0  0
 16 18  1  0  0  0  0
 18 19  1  0  0  0  0
 19 20  1  0  0  0  0
 19 21  1  0  0  0  0
 20 22  1  0  0  0  0
 20 23  1  0  0  0  0
 21 24  1  0  0  0  0
 21 25  1  0  0  0  0
 22 26  2  0  0  0  0
 23 27  2  0  0  0  0
 24 28  1  0  0  0  0
 24 29  1  0  0  0  0
 13 14  1  0  0  0  0
 17 18  2  0  0  0  0
 26 27  1  0  0  0  0
M  END
>  <MolRegNo>
302062

>  <m>
=

>  <Value>
6300

>  <Unit>
nM

>  <Type>
IC50

>  <pValue>
5.2

>  <Ligand Efficiency>
0

>  <Binding Efficiency>
0

>  <Surface Efficiency>
0

>  <Assay Index>
238260

>  <Assay Category>


>  <Assay Organism>


>  <Target ID>
17045

>  <Target Name>
Cytochrome P450 3A4

>  <Target Organism>
Homo sapiens

>  <Target Description>
Target is a single protein chain

>  <Sequence Accession>
P08684

>  <Reference>
Bioorg Med Chem Lett 15 (6), 1669-1673 (2005)

>  <Pubmed ID>
15745819

>  <DOI>
10.1016/j.bmcl.2005.01.044

$$$$
302105
Actelion Java MolfileCreator 1.0

 32 35  0  0  0  0  0  0  0  0999 V2000
    0.0000   -0.0000   -0.0000 O   0  0  0  0  0  0  0  0  0  0  0  0
   -1.5000   -0.0118   -0.0000 C   0  0  0  0  0  0  0  0  0  0  0  0
   -2.3031    1.2756   -0.0000 N   0  0  0  0  0  0  0  0  0  0  0  0
   -2.8110   -0.7323   -0.0000 C   0  0  0  0  0  0  0  0  0  0  0  0
   -2.8228   -2.2204   -0.0000 C   0  0  0  0  0  0  0  0  0  0  0  0
   -4.1338    0.0354   -0.0000 C   0  0  0  0  0  0  0  0  0  0  0  0
   -4.1456   -2.9527   -0.0000 C   0  0  0  0  0  0  0  0  0  0  0  0
   -5.4448   -0.7087   -0.0000 C   0  0  0  0  0  0  0  0  0  0  0  0
   -5.4330   -2.2086   -0.0000 C   0  0  0  0  0  0  0  0  0  0  0  0
   -4.1574   -4.4409   -0.0000 C   0  0  0  0  0  0  0  0  0  0  0  0
   -2.8582   -5.1850   -0.0000 O   0  0  0  0  0  0  0  0  0  0  0  0
   -1.5708   -4.4173   -0.0000 C   0  0  0  0  0  0  0  0  0  0  0  0
   -0.2835   -5.1613   -0.0000 C   0  0  0  0  0  0  0  0  0  0  0  0
   -1.5827   -2.9055   -0.0000 C   0  0  0  0  0  0  0  0  0  0  0  0
    0.9921   -4.3936   -0.0000 C   0  0  0  0  0  0  0  0  0  0  0  0
   -0.2953   -2.1378   -0.0000 C   0  0  0  0  0  0  0  0  0  0  0  0
    0.9803   -2.8818   -0.0000 C   0  0  0  0  0  0  0  0  0  0  0  0
    2.2795   -5.1377   -0.0000 C   0  0  0  0  0  0  0  0  0  0  0  0
    2.2677   -2.1141   -0.0000 C   0  0  0  0  0  0  0  0  0  0  0  0
    3.5787   -4.3700   -0.0000 C   0  0  0  0  0  0  0  0  0  0  0  0
    3.5433   -2.8346   -0.0000 C   0  0  0  0  0  0  0  0  0  0  0  0
    4.8306   -2.0669   -0.0000 C   0  0  0  0  0  0  0  0  0  0  0  0
    4.8188   -0.5551   -0.0000 N   0  0  0  0  0  0  0  0  0  0  0  0
    6.1298   -2.7992   -0.0000 C   0  0  0  0  0  0  0  0  0  0  0  0
    3.5669    0.3189   -0.0000 C   0  0  0  0  0  0  0  0  0  0  0  0
    5.9999    0.3425   -0.0000 C   0  0  0  0  0  0  0  0  0  0  0  0
    6.1180   -4.2873   -0.0000 N   0  0  0  0  0  0  0  0  0  0  0  0
    7.4172   -2.0197   -0.0000 C   0  0  0  0  0  0  0  0  0  0  0  0
    4.0157    1.7598   -0.0000 N   0  0  0  0  0  0  0  0  0  0  0  0
    5.5157    1.7834   -0.0000 C   0  0  0  0  0  0  0  0  0  0  0  0
    4.8188   -5.0314   -0.0000 C   0  0  0  0  0  0  0  0  0  0  0  0
    7.4054   -5.0078   -0.0000 C   0  0  0  0  0  0  0  0  0  0  0  0
  1  2  2  0  0  0  0
  2  3  1  0  0  0  0
  2  4  1  0  0  0  0
  4  5  2  0  0  0  0
  4  6  1  0  0  0  0
  5  7  1  0  0  0  0
  6  8  2  0  0  0  0
  7  9  2  0  0  0  0
  7 10  1  0  0  0  0
 10 11  1  0  0  0  0
 11 12  1  0  0  0  0
 12 13  2  0  0  0  0
 12 14  1  0  0  0  0
 13 15  1  0  0  0  0
 14 16  2  0  0  0  0
 15 17  1  0  0  0  0
 15 18  2  0  0  0  0
 17 19  2  0  0  0  0
 18 20  1  0  0  0  0
 19 21  1  0  0  0  0
 21 22  1  0  0  0  0
 22 23  1  0  0  0  0
 22 24  1  0  0  0  0
 23 25  1  0  0  0  0
 23 26  1  0  0  0  0
 24 27  1  0  0  0  0
 24 28  1  0  0  0  0
 25 29  2  0  0  0  0
 26 30  2  0  0  0  0
 27 31  1  0  0  0  0
 27 32  1  0  0  0  0
  8  9  1  0  0  0  0
 16 17  1  0  0  0  0
 20 21  2  0  0  0  0
 29 30  1  0  0  0  0
M  END
>  <MolRegNo>
302105

>  <m>
=

>  <Value>
481

>  <Unit>
nM

>  <Type>
IC50

>  <pValue>
6.32

>  <Ligand Efficiency>
0

>  <Binding Efficiency>
0

>  <Surface Efficiency>
0

>  <Assay Index>
238260

>  <Assay Category>


>  <Assay Organism>


>  <Target ID>
17045

>  <Target Name>
Cytochrome P450 3A4

>  <Target Organism>
Homo sapiens

>  <Target Description>
Target is a single protein chain

>  <Sequence Accession>
P08684

>  <Reference>
Bioorg Med Chem Lett 15 (6), 1669-1673 (2005)

>  <Pubmed ID>
15745819

>  <DOI>
10.1016/j.bmcl.2005.01.044

$$$$
301991
Actelion Java MolfileCreator 1.0

 33 36  0  0  0  0  0  0  0  0999 V2000
    0.0000   -0.0000   -0.0000 O   0  0  0  0  0  0  0  0  0  0  0  0
   -1.5002   -0.0118   -0.0000 C   0  0  0  0  0  0  0  0  0  0  0  0
   -2.3034    1.2757   -0.0000 N   0  0  0  0  0  0  0  0  0  0  0  0
   -2.8232   -0.7560   -0.0000 C   0  0  0  0  0  0  0  0  0  0  0  0
   -3.8154    1.2403   -0.0000 C   0  0  0  0  0  0  0  0  0  0  0  0
   -2.8350   -2.2444   -0.0000 C   0  0  0  0  0  0  0  0  0  0  0  0
   -4.1344   -0.0000   -0.0000 C   0  0  0  0  0  0  0  0  0  0  0  0
   -4.1462   -2.9767   -0.0000 C   0  0  0  0  0  0  0  0  0  0  0  0
   -5.4456   -0.7442   -0.0000 C   0  0  0  0  0  0  0  0  0  0  0  0
   -5.4574   -2.2207   -0.0000 C   0  0  0  0  0  0  0  0  0  0  0  0
   -4.1580   -4.4651   -0.0000 C   0  0  0  0  0  0  0  0  0  0  0  0
   -2.8704   -5.2093   -0.0000 O   0  0  0  0  0  0  0  0  0  0  0  0
   -1.5711   -4.4533   -0.0000 C   0  0  0  0  0  0  0  0  0  0  0  0
   -0.2835   -5.1975   -0.0000 C   0  0  0  0  0  0  0  0  0  0  0  0
   -1.5829   -2.9413   -0.0000 C   0  0  0  0  0  0  0  0  0  0  0  0
    0.9804   -4.4179   -0.0000 C   0  0  0  0  0  0  0  0  0  0  0  0
   -0.2953   -2.1617   -0.0000 C   0  0  0  0  0  0  0  0  0  0  0  0
    0.9686   -2.9059   -0.0000 C   0  0  0  0  0  0  0  0  0  0  0  0
    2.2916   -5.1502   -0.0000 C   0  0  0  0  0  0  0  0  0  0  0  0
    2.2680   -2.1499   -0.0000 C   0  0  0  0  0  0  0  0  0  0  0  0
    3.5792   -4.3942   -0.0000 C   0  0  0  0  0  0  0  0  0  0  0  0
    3.5556   -2.8822   -0.0000 C   0  0  0  0  0  0  0  0  0  0  0  0
    4.8195   -2.1026   -0.0000 C   0  0  0  0  0  0  0  0  0  0  0  0
    4.8077   -0.5906   -0.0000 N   0  0  0  0  0  0  0  0  0  0  0  0
    6.1307   -2.8350   -0.0000 C   0  0  0  0  0  0  0  0  0  0  0  0
    3.5674    0.2835   -0.0000 C   0  0  0  0  0  0  0  0  0  0  0  0
    6.0007    0.3071   -0.0000 C   0  0  0  0  0  0  0  0  0  0  0  0
    6.1189   -4.3234   -0.0000 N   0  0  0  0  0  0  0  0  0  0  0  0
    7.4301   -2.0790   -0.0000 C   0  0  0  0  0  0  0  0  0  0  0  0
    4.0281    1.7246   -0.0000 N   0  0  0  0  0  0  0  0  0  0  0  0
    5.5401    1.7246   -0.0000 C   0  0  0  0  0  0  0  0  0  0  0  0
    4.8313   -5.0676   -0.0000 C   0  0  0  0  0  0  0  0  0  0  0  0
    7.4301   -5.0676   -0.0000 C   0  0  0  0  0  0  0  0  0  0  0  0
  1  2  2  0  0  0  0
  2  3  1  0  0  0  0
  2  4  1  0  0  0  0
  3  5  1  0  0  0  0
  4  6  2  0  0  0  0
  4  7  1  0  0  0  0
  6  8  1  0  0  0  0
  7  9  2  0  0  0  0
  8 10  2  0  0  0  0
  8 11  1  0  0  0  0
 11 12  1  0  0  0  0
 12 13  1  0  0  0  0
 13 14  2  0  0  0  0
 13 15  1  0  0  0  0
 14 16  1  0  0  0  0
 15 17  2  0  0  0  0
 16 18  1  0  0  0  0
 16 19  2  0  0  0  0
 18 20  2  0  0  0  0
 19 21  1  0  0  0  0
 20 22  1  0  0  0  0
 22 23  1  0  0  0  0
 23 24  1  0  0  0  0
 23 25  1  0  0  0  0
 24 26  1  0  0  0  0
 24 27  1  0  0  0  0
 25 28  1  0  0  0  0
 25 29  1  0  0  0  0
 26 30  2  0  0  0  0
 27 31  2  0  0  0  0
 28 32  1  0  0  0  0
 28 33  1  0  0  0  0
  9 10  1  0  0  0  0
 17 18  1  0  0  0  0
 21 22  2  0  0  0  0
 30 31  1  0  0  0  0
M  END
>  <MolRegNo>
301991

>  <m>
=

>  <Value>
397

>  <Unit>
nM

>  <Type>
IC50

>  <pValue>
6.4

>  <Ligand Efficiency>
0

>  <Binding Efficiency>
0

>  <Surface Efficiency>
0

>  <Assay Index>
238260

>  <Assay Category>


>  <Assay Organism>


>  <Target ID>
17045

>  <Target Name>
Cytochrome P450 3A4

>  <Target Organism>
Homo sapiens

>  <Target Description>
Target is a single protein chain

>  <Sequence Accession>
P08684

>  <Reference>
Bioorg Med Chem Lett 15 (6), 1669-1673 (2005)

>  <Pubmed ID>
15745819

>  <DOI>
10.1016/j.bmcl.2005.01.044

$$$$
302018
Actelion Java MolfileCreator 1.0

 34 37  0  0  0  0  0  0  0  0999 V2000
    0.0000   -0.0000   -0.0000 O   0  0  0  0  0  0  0  0  0  0  0  0
   -1.5229   -0.0000   -0.0000 C   0  0  0  0  0  0  0  0  0  0  0  0
   -2.3081    1.2849   -0.0000 N   0  0  0  0  0  0  0  0  0  0  0  0
   -2.8197   -0.7376   -0.0000 C   0  0  0  0  0  0  0  0  0  0  0  0
   -1.6181    2.6056   -0.0000 C   0  0  0  0  0  0  0  0  0  0  0  0
   -3.8191    1.2492   -0.0000 C   0  0  0  0  0  0  0  0  0  0  0  0
   -2.8554   -2.2248   -0.0000 C   0  0  0  0  0  0  0  0  0  0  0  0
   -4.1403    0.0238   -0.0000 C   0  0  0  0  0  0  0  0  0  0  0  0
   -4.1522   -2.9625   -0.0000 C   0  0  0  0  0  0  0  0  0  0  0  0
   -5.4609   -0.7138   -0.0000 C   0  0  0  0  0  0  0  0  0  0  0  0
   -5.4609   -2.2010   -0.0000 C   0  0  0  0  0  0  0  0  0  0  0  0
   -4.1641   -4.4497   -0.0000 C   0  0  0  0  0  0  0  0  0  0  0  0
   -2.8673   -5.1873   -0.0000 O   0  0  0  0  0  0  0  0  0  0  0  0
   -1.5943   -4.4259   -0.0000 C   0  0  0  0  0  0  0  0  0  0  0  0
   -0.2974   -5.1635   -0.0000 C   0  0  0  0  0  0  0  0  0  0  0  0
   -1.6062   -2.9149   -0.0000 C   0  0  0  0  0  0  0  0  0  0  0  0
    0.9875   -4.3783   -0.0000 C   0  0  0  0  0  0  0  0  0  0  0  0
   -0.3093   -2.1415   -0.0000 C   0  0  0  0  0  0  0  0  0  0  0  0
    0.9756   -2.8792   -0.0000 C   0  0  0  0  0  0  0  0  0  0  0  0
    2.2843   -5.1278   -0.0000 C   0  0  0  0  0  0  0  0  0  0  0  0
    2.2605   -2.1178   -0.0000 C   0  0  0  0  0  0  0  0  0  0  0  0
    3.5692   -4.3545   -0.0000 C   0  0  0  0  0  0  0  0  0  0  0  0
    3.5455   -2.8435   -0.0000 C   0  0  0  0  0  0  0  0  0  0  0  0
    4.8066   -2.0702   -0.0000 C   0  0  0  0  0  0  0  0  0  0  0  0
    4.7947   -0.5592   -0.0000 N   0  0  0  0  0  0  0  0  0  0  0  0
    6.1391   -2.8078   -0.0000 C   0  0  0  0  0  0  0  0  0  0  0  0
    3.5811    0.3212   -0.0000 C   0  0  0  0  0  0  0  0  0  0  0  0
    6.0082    0.3569   -0.0000 C   0  0  0  0  0  0  0  0  0  0  0  0
    6.1272   -4.2950   -0.0000 N   0  0  0  0  0  0  0  0  0  0  0  0
    7.4121   -2.0345   -0.0000 C   0  0  0  0  0  0  0  0  0  0  0  0
    4.0451    1.7846   -0.0000 N   0  0  0  0  0  0  0  0  0  0  0  0
    5.5323    1.7846   -0.0000 C   0  0  0  0  0  0  0  0  0  0  0  0
    4.8185   -5.0207   -0.0000 C   0  0  0  0  0  0  0  0  0  0  0  0
    7.4240   -5.0207   -0.0000 C   0  0  0  0  0  0  0  0  0  0  0  0
  1  2  2  0  0  0  0
  2  3  1  0  0  0  0
  2  4  1  0  0  0  0
  3  5  1  0  0  0  0
  3  6  1  0  0  0  0
  4  7  2  0  0  0  0
  4  8  1  0  0  0  0
  7  9  1  0  0  0  0
  8 10  2  0  0  0  0
  9 11  2  0  0  0  0
  9 12  1  0  0  0  0
 12 13  1  0  0  0  0
 13 14  1  0  0  0  0
 14 15  2  0  0  0  0
 14 16  1  0  0  0  0
 15 17  1  0  0  0  0
 16 18  2  0  0  0  0
 17 19  1  0  0  0  0
 17 20  2  0  0  0  0
 19 21  2  0  0  0  0
 20 22  1  0  0  0  0
 21 23  1  0  0  0  0
 23 24  1  0  0  0  0
 24 25  1  0  0  0  0
 24 26  1  0  0  0  0
 25 27  1  0  0  0  0
 25 28  1  0  0  0  0
 26 29  1  0  0  0  0
 26 30  1  0  0  0  0
 27 31  2  0  0  0  0
 28 32  2  0  0  0  0
 29 33  1  0  0  0  0
 29 34  1  0  0  0  0
 10 11  1  0  0  0  0
 18 19  1  0  0  0  0
 22 23  2  0  0  0  0
 31 32  1  0  0  0  0
M  END
>  <MolRegNo>
302018

>  <m>
=

>  <Value>
357

>  <Unit>
nM

>  <Type>
IC50

>  <pValue>
6.45

>  <Ligand Efficiency>
0

>  <Binding Efficiency>
0

>  <Surface Efficiency>
0

>  <Assay Index>
238260

>  <Assay Category>


>  <Assay Organism>


>  <Target ID>
17045

>  <Target Name>
Cytochrome P450 3A4

>  <Target Organism>
Homo sapiens

>  <Target Description>
Target is a single protein chain

>  <Sequence Accession>
P08684

>  <Reference>
Bioorg Med Chem Lett 15 (6), 1669-1673 (2005)

>  <Pubmed ID>
15745819

>  <DOI>
10.1016/j.bmcl.2005.01.044

$$$$
302155
Actelion Java MolfileCreator 1.0

 29 31  0  0  0  0  0  0  0  0999 V2000
    0.0000   -0.0000   -0.0000 O   0  0  0  0  0  0  0  0  0  0  0  0
   -1.2971   -0.7446   -0.0000 C   0  0  0  0  0  0  0  0  0  0  0  0
   -2.6303   -0.0000   -0.0000 N   0  0  0  0  0  0  0  0  0  0  0  0
   -1.3091   -2.2339   -0.0000 C   0  0  0  0  0  0  0  0  0  0  0  0
   -1.3211   -3.7352   -0.0000 C   0  0  0  0  0  0  0  0  0  0  0  0
   -0.0240   -1.4893   -0.0000 C   0  0  0  0  0  0  0  0  0  0  0  0
   -2.6182   -1.4893   -0.0000 C   0  0  0  0  0  0  0  0  0  0  0  0
   -0.0240   -4.4558   -0.0000 O   0  0  0  0  0  0  0  0  0  0  0  0
    1.2731   -3.7112   -0.0000 C   0  0  0  0  0  0  0  0  0  0  0  0
    2.5582   -4.4318   -0.0000 C   0  0  0  0  0  0  0  0  0  0  0  0
    1.2611   -2.1859   -0.0000 C   0  0  0  0  0  0  0  0  0  0  0  0
    3.8433   -3.6631   -0.0000 C   0  0  0  0  0  0  0  0  0  0  0  0
    2.5462   -1.4172   -0.0000 C   0  0  0  0  0  0  0  0  0  0  0  0
    3.8313   -2.1619   -0.0000 C   0  0  0  0  0  0  0  0  0  0  0  0
    5.1284   -4.4078   -0.0000 C   0  0  0  0  0  0  0  0  0  0  0  0
    5.1044   -1.3932   -0.0000 C   0  0  0  0  0  0  0  0  0  0  0  0
    6.4135   -3.6391   -0.0000 C   0  0  0  0  0  0  0  0  0  0  0  0
    6.4015   -2.1378   -0.0000 C   0  0  0  0  0  0  0  0  0  0  0  0
    7.6866   -1.3572   -0.0000 C   0  0  0  0  0  0  0  0  0  0  0  0
    7.6626    0.1561   -0.0000 N   0  0  0  0  0  0  0  0  0  0  0  0
    8.9837   -2.0778   -0.0000 C   0  0  0  0  0  0  0  0  0  0  0  0
    6.4255    1.0329   -0.0000 C   0  0  0  0  0  0  0  0  0  0  0  0
    8.8636    1.0689   -0.0000 C   0  0  0  0  0  0  0  0  0  0  0  0
    8.9837   -3.5911   -0.0000 N   0  0  0  0  0  0  0  0  0  0  0  0
   10.2808   -1.3331   -0.0000 C   0  0  0  0  0  0  0  0  0  0  0  0
    6.8699    2.4861   -0.0000 N   0  0  0  0  0  0  0  0  0  0  0  0
    8.3712    2.5102   -0.0000 C   0  0  0  0  0  0  0  0  0  0  0  0
    7.6626   -4.3237   -0.0000 C   0  0  0  0  0  0  0  0  0  0  0  0
   10.2688   -4.3237   -0.0000 C   0  0  0  0  0  0  0  0  0  0  0  0
  1  2  2  0  0  0  0
  2  3  1  0  0  0  0
  2  4  1  0  0  0  0
  4  5  1  0  0  0  0
  4  6  1  0  0  0  0
  4  7  1  0  0  0  0
  5  8  1  0  0  0  0
  8  9  1  0  0  0  0
  9 10  2  0  0  0  0
  9 11  1  0  0  0  0
 10 12  1  0  0  0  0
 11 13  2  0  0  0  0
 12 14  1  0  0  0  0
 12 15  2  0  0  0  0
 14 16  2  0  0  0  0
 15 17  1  0  0  0  0
 16 18  1  0  0  0  0
 18 19  1  0  0  0  0
 19 20  1  0  0  0  0
 19 21  1  0  0  0  0
 20 22  1  0  0  0  0
 20 23  1  0  0  0  0
 21 24  1  0  0  0  0
 21 25  1  0  0  0  0
 22 26  2  0  0  0  0
 23 27  2  0  0  0  0
 24 28  1  0  0  0  0
 24 29  1  0  0  0  0
 13 14  1  0  0  0  0
 17 18  2  0  0  0  0
 26 27  1  0  0  0  0
M  END
>  <MolRegNo>
302155

>  <m>
=

>  <Value>
1835

>  <Unit>
nM

>  <Type>
IC50

>  <pValue>
5.74

>  <Ligand Efficiency>
0

>  <Binding Efficiency>
0

>  <Surface Efficiency>
0

>  <Assay Index>
238260

>  <Assay Category>


>  <Assay Organism>


>  <Target ID>
17045

>  <Target Name>
Cytochrome P450 3A4

>  <Target Organism>
Homo sapiens

>  <Target Description>
Target is a single protein chain

>  <Sequence Accession>
P08684

>  <Reference>
Bioorg Med Chem Lett 15 (6), 1669-1673 (2005)

>  <Pubmed ID>
15745819

>  <DOI>
10.1016/j.bmcl.2005.01.044

$$$$
302169
Actelion Java MolfileCreator 1.0

 30 32  0  0  0  0  0  0  0  0999 V2000
    0.0000   -0.0000   -0.0000 O   0  0  0  0  0  0  0  0  0  0  0  0
   -1.3110   -0.7508   -0.0000 C   0  0  0  0  0  0  0  0  0  0  0  0
   -2.6339   -0.0000   -0.0000 N   0  0  0  0  0  0  0  0  0  0  0  0
   -1.3229   -2.2525   -0.0000 C   0  0  0  0  0  0  0  0  0  0  0  0
   -2.6458    1.5255   -0.0000 C   0  0  0  0  0  0  0  0  0  0  0  0
   -1.3348   -3.7423   -0.0000 C   0  0  0  0  0  0  0  0  0  0  0  0
   -0.0358   -1.4898   -0.0000 C   0  0  0  0  0  0  0  0  0  0  0  0
   -2.6339   -1.4898   -0.0000 C   0  0  0  0  0  0  0  0  0  0  0  0
   -0.0358   -4.4693   -0.0000 O   0  0  0  0  0  0  0  0  0  0  0  0
    1.2514   -3.7184   -0.0000 C   0  0  0  0  0  0  0  0  0  0  0  0
    2.5386   -4.4454   -0.0000 C   0  0  0  0  0  0  0  0  0  0  0  0
    1.2395   -2.2048   -0.0000 C   0  0  0  0  0  0  0  0  0  0  0  0
    3.8257   -3.6708   -0.0000 C   0  0  0  0  0  0  0  0  0  0  0  0
    2.5266   -1.4302   -0.0000 C   0  0  0  0  0  0  0  0  0  0  0  0
    3.8138   -2.1572   -0.0000 C   0  0  0  0  0  0  0  0  0  0  0  0
    5.1129   -4.4216   -0.0000 C   0  0  0  0  0  0  0  0  0  0  0  0
    5.0890   -1.4063   -0.0000 C   0  0  0  0  0  0  0  0  0  0  0  0
    6.4000   -3.6469   -0.0000 C   0  0  0  0  0  0  0  0  0  0  0  0
    6.3762   -2.1333   -0.0000 C   0  0  0  0  0  0  0  0  0  0  0  0
    7.6633   -1.3587   -0.0000 C   0  0  0  0  0  0  0  0  0  0  0  0
    7.6395    0.1549   -0.0000 N   0  0  0  0  0  0  0  0  0  0  0  0
    8.9624   -2.0976   -0.0000 C   0  0  0  0  0  0  0  0  0  0  0  0
    6.4119    1.0250   -0.0000 C   0  0  0  0  0  0  0  0  0  0  0  0
    8.8432    1.0607   -0.0000 C   0  0  0  0  0  0  0  0  0  0  0  0
    8.9624   -3.5873   -0.0000 N   0  0  0  0  0  0  0  0  0  0  0  0
   10.2496   -1.3229   -0.0000 C   0  0  0  0  0  0  0  0  0  0  0  0
    6.8529    2.4670   -0.0000 N   0  0  0  0  0  0  0  0  0  0  0  0
    8.3546    2.4909   -0.0000 C   0  0  0  0  0  0  0  0  0  0  0  0
    7.6514   -4.3144   -0.0000 C   0  0  0  0  0  0  0  0  0  0  0  0
   10.2496   -4.3024   -0.0000 C   0  0  0  0  0  0  0  0  0  0  0  0
  1  2  2  0  0  0  0
  2  3  1  0  0  0  0
  2  4  1  0  0  0  0
  3  5  1  0  0  0  0
  4  6  1  0  0  0  0
  4  7  1  0  0  0  0
  4  8  1  0  0  0  0
  6  9  1  0  0  0  0
  9 10  1  0  0  0  0
 10 11  2  0  0  0  0
 10 12  1  0  0  0  0
 11 13  1  0  0  0  0
 12 14  2  0  0  0  0
 13 15  1  0  0  0  0
 13 16  2  0  0  0  0
 15 17  2  0  0  0  0
 16 18  1  0  0  0  0
 17 19  1  0  0  0  0
 19 20  1  0  0  0  0
 20 21  1  0  0  0  0
 20 22  1  0  0  0  0
 21 23  1  0  0  0  0
 21 24  1  0  0  0  0
 22 25  1  0  0  0  0
 22 26  1  0  0  0  0
 23 27  2  0  0  0  0
 24 28  2  0  0  0  0
 25 29  1  0  0  0  0
 25 30  1  0  0  0  0
 14 15  1  0  0  0  0
 18 19  2  0  0  0  0
 27 28  1  0  0  0  0
M  END
>  <MolRegNo>
302169

>  <m>
=

>  <Value>
2010

>  <Unit>
nM

>  <Type>
IC50

>  <pValue>
5.7

>  <Ligand Efficiency>
0

>  <Binding Efficiency>
0

>  <Surface Efficiency>
0

>  <Assay Index>
238260

>  <Assay Category>


>  <Assay Organism>


>  <Target ID>
17045

>  <Target Name>
Cytochrome P450 3A4

>  <Target Organism>
Homo sapiens

>  <Target Description>
Target is a single protein chain

>  <Sequence Accession>
P08684

>  <Reference>
Bioorg Med Chem Lett 15 (6), 1669-1673 (2005)

>  <Pubmed ID>
15745819

>  <DOI>
10.1016/j.bmcl.2005.01.044

$$$$
302189
Actelion Java MolfileCreator 1.0

 31 33  0  0  0  0  0  0  0  0999 V2000
    0.0000   -0.0000   -0.0000 O   0  0  0  0  0  0  0  0  0  0  0  0
   -1.3103   -0.7555   -0.0000 C   0  0  0  0  0  0  0  0  0  0  0  0
   -2.6443   -0.0000   -0.0000 N   0  0  0  0  0  0  0  0  0  0  0  0
   -1.3221   -2.2429   -0.0000 C   0  0  0  0  0  0  0  0  0  0  0  0
   -3.9310   -0.7319   -0.0000 C   0  0  0  0  0  0  0  0  0  0  0  0
   -2.6561    1.5110   -0.0000 C   0  0  0  0  0  0  0  0  0  0  0  0
   -1.3339   -3.7303   -0.0000 C   0  0  0  0  0  0  0  0  0  0  0  0
   -0.0354   -1.4874   -0.0000 C   0  0  0  0  0  0  0  0  0  0  0  0
   -2.6089   -1.4874   -0.0000 C   0  0  0  0  0  0  0  0  0  0  0  0
   -0.0236   -4.4740   -0.0000 O   0  0  0  0  0  0  0  0  0  0  0  0
    1.2631   -3.7067   -0.0000 C   0  0  0  0  0  0  0  0  0  0  0  0
    2.5498   -4.4504   -0.0000 C   0  0  0  0  0  0  0  0  0  0  0  0
    1.2513   -2.1957   -0.0000 C   0  0  0  0  0  0  0  0  0  0  0  0
    3.8366   -3.6713   -0.0000 C   0  0  0  0  0  0  0  0  0  0  0  0
    2.5380   -1.4166   -0.0000 C   0  0  0  0  0  0  0  0  0  0  0  0
    3.8248   -2.1603   -0.0000 C   0  0  0  0  0  0  0  0  0  0  0  0
    5.1233   -4.4150   -0.0000 C   0  0  0  0  0  0  0  0  0  0  0  0
    5.1115   -1.3930   -0.0000 C   0  0  0  0  0  0  0  0  0  0  0  0
    6.4218   -3.6477   -0.0000 C   0  0  0  0  0  0  0  0  0  0  0  0
    6.4100   -2.1249   -0.0000 C   0  0  0  0  0  0  0  0  0  0  0  0
    7.6731   -1.3458   -0.0000 C   0  0  0  0  0  0  0  0  0  0  0  0
    7.6613    0.1653   -0.0000 N   0  0  0  0  0  0  0  0  0  0  0  0
    8.9835   -2.0777   -0.0000 C   0  0  0  0  0  0  0  0  0  0  0  0
    6.4218    1.0388   -0.0000 C   0  0  0  0  0  0  0  0  0  0  0  0
    8.8536    1.0624   -0.0000 C   0  0  0  0  0  0  0  0  0  0  0  0
    8.9717   -3.5651   -0.0000 N   0  0  0  0  0  0  0  0  0  0  0  0
   10.2702   -1.3221   -0.0000 C   0  0  0  0  0  0  0  0  0  0  0  0
    6.8586    2.4790   -0.0000 N   0  0  0  0  0  0  0  0  0  0  0  0
    8.3696    2.4790   -0.0000 C   0  0  0  0  0  0  0  0  0  0  0  0
    7.6613   -4.3088   -0.0000 C   0  0  0  0  0  0  0  0  0  0  0  0
   10.2584   -4.3088   -0.0000 C   0  0  0  0  0  0  0  0  0  0  0  0
  1  2  2  0  0  0  0
  2  3  1  0  0  0  0
  2  4  1  0  0  0  0
  3  5  1  0  0  0  0
  3  6  1  0  0  0  0
  4  7  1  0  0  0  0
  4  8  1  0  0  0  0
  4  9  1  0  0  0  0
  7 10  1  0  0  0  0
 10 11  1  0  0  0  0
 11 12  2  0  0  0  0
 11 13  1  0  0  0  0
 12 14  1  0  0  0  0
 13 15  2  0  0  0  0
 14 16  1  0  0  0  0
 14 17  2  0  0  0  0
 16 18  2  0  0  0  0
 17 19  1  0  0  0  0
 18 20  1  0  0  0  0
 20 21  1  0  0  0  0
 21 22  1  0  0  0  0
 21 23  1  0  0  0  0
 22 24  1  0  0  0  0
 22 25  1  0  0  0  0
 23 26  1  0  0  0  0
 23 27  1  0  0  0  0
 24 28  2  0  0  0  0
 25 29  2  0  0  0  0
 26 30  1  0  0  0  0
 26 31  1  0  0  0  0
 15 16  1  0  0  0  0
 19 20  2  0  0  0  0
 28 29  1  0  0  0  0
M  END
>  <MolRegNo>
302189

>  <m>
=

>  <Value>
2032

>  <Unit>
nM

>  <Type>
IC50

>  <pValue>
5.69

>  <Ligand Efficiency>
0

>  <Binding Efficiency>
0

>  <Surface Efficiency>
0

>  <Assay Index>
238260

>  <Assay Category>


>  <Assay Organism>


>  <Target ID>
17045

>  <Target Name>
Cytochrome P450 3A4

>  <Target Organism>
Homo sapiens

>  <Target Description>
Target is a single protein chain

>  <Sequence Accession>
P08684

>  <Reference>
Bioorg Med Chem Lett 15 (6), 1669-1673 (2005)

>  <Pubmed ID>
15745819

>  <DOI>
10.1016/j.bmcl.2005.01.044

$$$$
304675
Actelion Java MolfileCreator 1.0

 35 38  0  0  0  0  0  0  0  0999 V2000
    0.0000   -0.0000   -0.0000 S   0  0  0  0  0  0  0  0  0  0  0  0
   -0.0119   -1.5026   -0.0000 C   0  0  0  0  0  0  0  0  0  0  0  0
    1.4072    0.4651   -0.0000 C   0  0  0  0  0  0  0  0  0  0  0  0
    1.3953   -1.9439   -0.0000 N   0  0  0  0  0  0  0  0  0  0  0  0
   -1.3118   -2.2420   -0.0000 N   0  0  0  0  0  0  0  0  0  0  0  0
    1.8485    1.8962   -0.0000 C   0  0  0  0  0  0  0  0  0  0  0  0
    2.2778   -0.7155   -0.0000 C   0  0  0  0  0  0  0  0  0  0  0  0
   -2.6117   -1.4788   -0.0000 C   0  0  0  0  0  0  0  0  0  0  0  0
   -1.3237   -3.7208   -0.0000 C   0  0  0  0  0  0  0  0  0  0  0  0
    0.8467    3.0052   -0.0000 O   0  0  0  0  0  0  0  0  0  0  0  0
    3.2795    2.2301   -0.0000 O   0  0  0  0  0  0  0  0  0  0  0  0
   -2.6475    0.0239   -0.0000 O   0  0  0  0  0  0  0  0  0  0  0  0
   -3.9354   -2.2182   -0.0000 C   0  0  0  0  0  0  0  0  0  0  0  0
   -0.0239   -4.4602   -0.0000 C   0  0  0  0  0  0  0  0  0  0  0  0
   -2.6236   -4.4602   -0.0000 C   0  0  0  0  0  0  0  0  0  0  0  0
   -5.2353   -1.4549   -0.0000 C   0  0  0  0  0  0  0  0  0  0  0  0
   -3.9474   -3.7208   -0.0000 C   0  0  0  0  0  0  0  0  0  0  0  0
   -0.0358   -5.9389   -0.0000 C   0  0  0  0  0  0  0  0  0  0  0  0
   -2.6356   -5.9389   -0.0000 C   0  0  0  0  0  0  0  0  0  0  0  0
   -6.5352   -2.1943   -0.0000 C   0  0  0  0  0  0  0  0  0  0  0  0
   -5.2473   -4.4602   -0.0000 C   0  0  0  0  0  0  0  0  0  0  0  0
   -1.3357   -6.6783   -0.0000 C   0  0  0  0  0  0  0  0  0  0  0  0
   -6.5471   -3.6969   -0.0000 C   0  0  0  0  0  0  0  0  0  0  0  0
   -7.8709   -4.4482   -0.0000 O   0  0  0  0  0  0  0  0  0  0  0  0
   -9.1946   -3.6850   -0.0000 C   0  0  0  0  0  0  0  0  0  0  0  0
  -10.4945   -4.4363   -0.0000 C   0  0  0  0  0  0  0  0  0  0  0  0
  -11.7944   -3.6731   -0.0000 C   0  0  0  0  0  0  0  0  0  0  0  0
  -10.4826   -5.9151   -0.0000 C   0  0  0  0  0  0  0  0  0  0  0  0
  -13.0943   -4.4125   -0.0000 C   0  0  0  0  0  0  0  0  0  0  0  0
  -11.8063   -6.6545   -0.0000 C   0  0  0  0  0  0  0  0  0  0  0  0
  -13.1062   -5.8912   -0.0000 C   0  0  0  0  0  0  0  0  0  0  0  0
  -14.4180   -3.6373   -0.0000 C   0  0  0  0  0  0  0  0  0  0  0  0
  -15.7656   -2.8741   -0.0000 F   0  0  0  0  0  0  0  0  0  0  0  0
  -15.1932   -4.9372   -0.0000 F   0  0  0  0  0  0  0  0  0  0  0  0
  -13.6786   -2.3136   -0.0000 F   0  0  0  0  0  0  0  0  0  0  0  0
  1  2  1  0  0  0  0
  1  3  1  0  0  0  0
  2  4  2  0  0  0  0
  2  5  1  0  0  0  0
  3  6  1  0  0  0  0
  3  7  2  0  0  0  0
  5  8  1  0  0  0  0
  5  9  1  0  0  0  0
  6 10  2  0  0  0  0
  6 11  1  0  0  0  0
  8 12  2  0  0  0  0
  8 13  1  0  0  0  0
  9 14  1  0  0  0  0
  9 15  1  0  0  0  0
 13 16  2  0  0  0  0
 13 17  1  0  0  0  0
 14 18  1  0  0  0  0
 15 19  1  0  0  0  0
 16 20  1  0  0  0  0
 17 21  2  0  0  0  0
 18 22  1  0  0  0  0
 20 23  2  0  0  0  0
 23 24  1  0  0  0  0
 24 25  1  0  0  0  0
 25 26  1  0  0  0  0
 26 27  2  0  0  0  0
 26 28  1  0  0  0  0
 27 29  1  0  0  0  0
 28 30  2  0  0  0  0
 29 31  2  0  0  0  0
 29 32  1  0  0  0  0
 32 33  1  0  0  0  0
 32 34  1  0  0  0  0
 32 35  1  0  0  0  0
  4  7  1  0  0  0  0
 19 22  1  0  0  0  0
 21 23  1  0  0  0  0
 30 31  1  0  0  0  0
M  END
>  <MolRegNo>
304675

>  <m>
=

>  <Value>
30000

>  <Unit>
nM

>  <Type>
IC50

>  <pValue>
4.52

>  <Ligand Efficiency>
0

>  <Binding Efficiency>
0

>  <Surface Efficiency>
0

>  <Assay Index>
237676

>  <Assay Category>


>  <Assay Organism>
Homo sapiens

>  <Target ID>
17045

>  <Target Name>
Cytochrome P450 3A4

>  <Target Organism>
Homo sapiens

>  <Target Description>
Target is a single protein chain

>  <Sequence Accession>
P08684

>  <Reference>
Bioorg Med Chem Lett 15 (1), 115-119 (2005)

>  <Pubmed ID>
15582422

>  <DOI>
10.1016/j.bmcl.2004.10.024

$$$$
1799542
Actelion Java MolfileCreator 1.0

 22 26  0  0  1  0  0  0  0  0999 V2000
    0.0000   -0.0000   -0.0000 O   0  0  0  0  0  0  0  0  0  0  0  0
   -0.0132    1.5023   -0.0000 C   0  0  0  0  0  0  0  0  0  0  0  0
    1.2782    2.2666   -0.0000 N   0  0  0  0  0  0  0  0  0  0  0  0
   -1.3178    2.2666   -0.0000 C   0  0  0  0  0  0  0  0  0  0  0  0
    2.4379    1.3705   -0.0000 C   0  0  0  0  0  0  0  0  0  0  0  0
    1.7658    3.6898   -0.0000 C   0  0  0  0  0  0  0  0  0  0  0  0
   -2.6224    1.5286   -0.0000 N   0  0  0  0  0  0  0  0  0  0  0  0
   -1.3309    3.7952   -0.0000 C   0  0  0  0  0  0  0  0  0  0  0  0
    2.3588   -0.1054   -0.0000 C   0  0  0  0  0  0  0  0  0  0  0  0
    3.6502    2.2139   -0.0000 C   0  0  0  0  0  0  0  0  0  0  0  0
    3.2417    3.6502   -0.0000 C   0  0  0  0  0  0  0  0  0  0  0  0
    2.5433    4.9680   -0.0000 C   0  0  0  0  0  0  0  0  0  0  0  0
   -2.4774    3.3998   -0.0000 C   0  0  0  0  0  0  0  0  0  0  0  0
   -0.9883    5.4556   -0.0000 C   0  0  0  0  0  0  0  0  0  0  0  0
    0.3294    3.2154   -0.0000 C   0  0  0  0  0  0  0  0  0  0  0  0
    2.2929   -1.4100   -0.0000 N   0  0  0  0  0  0  0  0  0  0  0  0
   -1.7658    4.7308   -0.0000 C   0  0  0  0  0  0  0  0  0  0  0  0
   -0.2504    6.7602   -0.0000 C   0  0  0  0  0  0  0  0  0  0  0  0
    1.0674    4.5200   -0.0000 C   0  0  0  0  0  0  0  0  0  0  0  0
   -1.7790    6.2331   -0.0000 C   0  0  0  0  0  0  0  0  0  0  0  0
   -0.1713    4.1378   -0.0000 C   0  0  0  0  0  0  0  0  0  0  0  0
    1.0279    6.0222   -0.0000 C   0  0  0  0  0  0  0  0  0  0  0  0
  1  2  2  0  0  0  0
  2  3  1  0  0  0  0
  2  4  1  0  0  0  0
  3  5  1  0  0  0  0
  6  3  1  1  0  0  0
  4  7  1  1  0  0  0
  4  8  1  0  0  0  0
  5  9  1  1  0  0  0
  5 10  1  0  0  0  0
  6 11  1  0  0  0  0
  6 12  1  0  0  0  0
  8 13  1  0  0  0  0
  8 14  1  0  0  0  0
  8 15  1  0  0  0  0
  9 16  3  0  0  0  0
 13 17  1  0  0  0  0
 14 18  1  0  0  0  0
 15 19  1  0  0  0  0
 17 20  1  0  0  0  0
 17 21  1  0  0  0  0
 18 22  1  0  0  0  0
 11 10  1  1  0  0  0
 11 12  1  0  0  0  0
 18 20  1  0  0  0  0
 19 21  1  0  0  0  0
 19 22  1  0  0  0  0
M  END
>  <MolRegNo>
1799542

>  <m>
=

>  <Value>
20000

>  <Unit>
nM

>  <Type>
IC50

>  <pValue>
4.7

>  <Ligand Efficiency>
0

>  <Binding Efficiency>
0

>  <Surface Efficiency>
0

>  <Assay Index>
237661

>  <Assay Category>


>  <Assay Organism>
Homo sapiens

>  <Target ID>
17045

>  <Target Name>
Cytochrome P450 3A4

>  <Target Organism>
Homo sapiens

>  <Target Description>
Target is a single protein chain

>  <Sequence Accession>
P08684

>  <Reference>
J Med Chem 48 (15), 5025-5037 (2005)

>  <Pubmed ID>
16033281

>  <DOI>
10.1021/jm050261p

$$$$
360723
Actelion Java MolfileCreator 1.0

 23 27  0  0  0  0  0  0  0  0999 V2000
    0.0000   -0.0000   -0.0000 O   0  0  0  0  0  0  0  0  0  0  0  0
   -0.3195   -1.1466   -0.0000 C   0  0  0  0  0  0  0  0  0  0  0  0
    1.1090   -1.9924   -0.0000 N   0  0  0  0  0  0  0  0  0  0  0  0
   -1.5225   -1.4473   -0.0000 C   0  0  0  0  0  0  0  0  0  0  0  0
    2.5563   -1.3721   -0.0000 C   0  0  0  0  0  0  0  0  0  0  0  0
    0.9210   -3.6653   -0.0000 C   0  0  0  0  0  0  0  0  0  0  0  0
   -2.3871   -0.5639   -0.0000 N   0  0  0  0  0  0  0  0  0  0  0  0
   -2.0864   -3.8156   -0.0000 C   0  0  0  0  0  0  0  0  0  0  0  0
    3.1390   -0.3007   -0.0000 C   0  0  0  0  0  0  0  0  0  0  0  0
    3.1390   -2.8194   -0.0000 C   0  0  0  0  0  0  0  0  0  0  0  0
    2.3871   -4.2292   -0.0000 C   0  0  0  0  0  0  0  0  0  0  0  0
    1.1278   -5.1690   -0.0000 C   0  0  0  0  0  0  0  0  0  0  0  0
   -2.4247   -4.5863   -0.0000 C   0  0  0  0  0  0  0  0  0  0  0  0
   -2.7067   -2.7818   -0.0000 C   0  0  0  0  0  0  0  0  0  0  0  0
   -1.4849   -3.2705   -0.0000 C   0  0  0  0  0  0  0  0  0  0  0  0
    3.9096    1.0714   -0.0000 N   0  0  0  0  0  0  0  0  0  0  0  0
   -3.3081   -5.4133   -0.0000 C   0  0  0  0  0  0  0  0  0  0  0  0
   -3.8156   -2.4999   -0.0000 C   0  0  0  0  0  0  0  0  0  0  0  0
   -0.5639   -3.7217   -0.0000 C   0  0  0  0  0  0  0  0  0  0  0  0
   -4.0412   -6.3719   -0.0000 O   0  0  0  0  0  0  0  0  0  0  0  0
   -4.6239   -4.0976   -0.0000 C   0  0  0  0  0  0  0  0  0  0  0  0
   -1.5413   -5.3005   -0.0000 C   0  0  0  0  0  0  0  0  0  0  0  0
   -2.0864   -1.9548   -0.0000 C   0  0  0  0  0  0  0  0  0  0  0  0
  1  2  2  0  0  0  0
  2  3  1  0  0  0  0
  2  4  1  0  0  0  0
  3  5  1  0  0  0  0
  6  3  1  6  0  0  0
  4  7  1  6  0  0  0
  4  8  1  0  0  0  0
  5  9  1  6  0  0  0
  5 10  1  0  0  0  0
  6 11  1  0  0  0  0
  6 12  1  0  0  0  0
  8 13  1  0  0  0  0
  8 14  1  0  0  0  0
  8 15  1  0  0  0  0
  9 16  3  0  0  0  0
 13 17  1  0  0  0  0
 14 18  1  0  0  0  0
 15 19  1  0  0  0  0
 17 20  1  0  0  0  0
 17 21  1  0  0  0  0
 17 22  1  0  0  0  0
 18 23  1  0  0  0  0
 11 10  1  6  0  0  0
 11 12  1  0  0  0  0
 18 21  1  0  0  0  0
 19 22  1  0  0  0  0
 19 23  1  0  0  0  0
M  END
>  <MolRegNo>
360723

>  <m>
=

>  <Value>
1.0e5

>  <Unit>
nM

>  <Type>
IC50

>  <pValue>
4

>  <Ligand Efficiency>
0

>  <Binding Efficiency>
0

>  <Surface Efficiency>
0

>  <Assay Index>
237662

>  <Assay Category>


>  <Assay Organism>


>  <Target ID>
17045

>  <Target Name>
Cytochrome P450 3A4

>  <Target Organism>
Homo sapiens

>  <Target Description>
Target is a single protein chain

>  <Sequence Accession>
P08684

>  <Reference>
J Med Chem 48 (15), 5025-5037 (2005)

>  <Pubmed ID>
16033281

>  <DOI>
10.1021/jm050261p

$$$$
318767
Actelion Java MolfileCreator 1.0

 32 35  0  0  0  0  0  0  0  0999 V2000
    0.0000   -0.0000   -0.0000 O   0  0  0  0  0  0  0  0  0  0  0  0
   -0.7225   -1.3125   -0.0000 C   0  0  0  0  0  0  0  0  0  0  0  0
   -2.2396   -1.2523   -0.0000 N   0  0  0  0  0  0  0  0  0  0  0  0
    0.1565   -2.5166   -0.0000 C   0  0  0  0  0  0  0  0  0  0  0  0
   -3.2391   -2.3721   -0.0000 C   0  0  0  0  0  0  0  0  0  0  0  0
   -2.8658    0.1565   -0.0000 C   0  0  0  0  0  0  0  0  0  0  0  0
   -0.2408   -3.9374   -0.0000 C   0  0  0  0  0  0  0  0  0  0  0  0
    1.6015   -2.0952   -0.0000 C   0  0  0  0  0  0  0  0  0  0  0  0
   -2.9501   -3.8170   -0.0000 C   0  0  0  0  0  0  0  0  0  0  0  0
   -4.6840   -1.8784   -0.0000 C   0  0  0  0  0  0  0  0  0  0  0  0
    0.8188   -4.9971   -0.0000 N   0  0  0  0  0  0  0  0  0  0  0  0
   -1.6256   -4.5154   -0.0000 N   0  0  0  0  0  0  0  0  0  0  0  0
    2.6490   -3.1548   -0.0000 C   0  0  0  0  0  0  0  0  0  0  0  0
   -4.1060   -4.8044   -0.0000 N   0  0  0  0  0  0  0  0  0  0  0  0
   -5.8399   -2.8658   -0.0000 C   0  0  0  0  0  0  0  0  0  0  0  0
    2.2396   -4.5997   -0.0000 C   0  0  0  0  0  0  0  0  0  0  0  0
   -1.7098   -6.0326   -0.0000 C   0  0  0  0  0  0  0  0  0  0  0  0
    4.0940   -2.7574   -0.0000 C   0  0  0  0  0  0  0  0  0  0  0  0
   -5.5510   -4.3107   -0.0000 C   0  0  0  0  0  0  0  0  0  0  0  0
   -3.0705   -6.7069   -0.0000 C   0  0  0  0  0  0  0  0  0  0  0  0
    4.4552   -1.3004   -0.0000 C   0  0  0  0  0  0  0  0  0  0  0  0
    5.9001   -0.9031   -0.0000 O   0  0  0  0  0  0  0  0  0  0  0  0
    7.3330   -1.2764   -0.0000 C   0  0  0  0  0  0  0  0  0  0  0  0
    8.5733   -0.4696   -0.0000 C   0  0  0  0  0  0  0  0  0  0  0  0
    7.3812   -2.7695   -0.0000 C   0  0  0  0  0  0  0  0  0  0  0  0
    9.8858   -1.1559   -0.0000 C   0  0  0  0  0  0  0  0  0  0  0  0
    8.4890    1.0596   -0.0000 C   0  0  0  0  0  0  0  0  0  0  0  0
    8.6937   -3.4558   -0.0000 C   0  0  0  0  0  0  0  0  0  0  0  0
    9.9580   -2.6490   -0.0000 C   0  0  0  0  0  0  0  0  0  0  0  0
   11.2825   -3.3354   -0.0000 C   0  0  0  0  0  0  0  0  0  0  0  0
   10.5601   -4.6599   -0.0000 O   0  0  0  0  0  0  0  0  0  0  0  0
   12.7636   -3.2270   -0.0000 O   0  0  0  0  0  0  0  0  0  0  0  0
  1  2  2  0  0  0  0
  2  3  1  0  0  0  0
  2  4  1  0  0  0  0
  3  5  1  0  0  0  0
  3  6  1  0  0  0  0
  4  7  2  0  0  0  0
  4  8  1  0  0  0  0
  5  9  2  0  0  0  0
  5 10  1  0  0  0  0
  7 11  1  0  0  0  0
  7 12  1  0  0  0  0
  8 13  2  0  0  0  0
  9 14  1  0  0  0  0
 10 15  2  0  0  0  0
 11 16  2  0  0  0  0
 12 17  1  0  0  0  0
 13 18  1  0  0  0  0
 14 19  2  0  0  0  0
 17 20  1  0  0  0  0
 18 21  1  0  0  0  0
 21 22  1  0  0  0  0
 22 23  1  0  0  0  0
 23 24  2  0  0  0  0
 23 25  1  0  0  0  0
 24 26  1  0  0  0  0
 24 27  1  0  0  0  0
 25 28  2  0  0  0  0
 26 29  2  0  0  0  0
 29 30  1  0  0  0  0
 30 31  2  0  0  0  0
 30 32  1  0  0  0  0
  9 12  1  0  0  0  0
 13 16  1  0  0  0  0
 15 19  1  0  0  0  0
 28 29  1  0  0  0  0
M  END
>  <MolRegNo>
318767

>  <m>
=

>  <Value>
24000

>  <Unit>
nM

>  <Type>
IC50

>  <pValue>
4.62

>  <Ligand Efficiency>
0

>  <Binding Efficiency>
0

>  <Surface Efficiency>
0

>  <Assay Index>
239728

>  <Assay Category>


>  <Assay Organism>
Homo sapiens

>  <Target ID>
17045

>  <Target Name>
Cytochrome P450 3A4

>  <Target Organism>
Homo sapiens

>  <Target Description>
Target is a single protein chain

>  <Sequence Accession>
P08684

>  <Reference>
J Med Chem 48 (17), 5580-5588 (2005)

>  <Pubmed ID>
16107158

>  <DOI>
10.1021/jm050255t

$$$$
318810
Actelion Java MolfileCreator 1.0

 33 36  0  0  0  0  0  0  0  0999 V2000
    0.0000   -0.0000   -0.0000 F   0  0  0  0  0  0  0  0  0  0  0  0
    1.1203    0.9998   -0.0000 C   0  0  0  0  0  0  0  0  0  0  0  0
    2.5417    0.5300   -0.0000 N   0  0  0  0  0  0  0  0  0  0  0  0
    0.8191    2.4694   -0.0000 C   0  0  0  0  0  0  0  0  0  0  0  0
    3.6740    1.5419   -0.0000 C   0  0  0  0  0  0  0  0  0  0  0  0
    1.9514    3.4813   -0.0000 C   0  0  0  0  0  0  0  0  0  0  0  0
    4.9749    0.8432   -0.0000 N   0  0  0  0  0  0  0  0  0  0  0  0
    3.3608    3.0115   -0.0000 C   0  0  0  0  0  0  0  0  0  0  0  0
    6.3482    1.4455   -0.0000 C   0  0  0  0  0  0  0  0  0  0  0  0
    4.8906   -0.6746   -0.0000 C   0  0  0  0  0  0  0  0  0  0  0  0
    4.3365    4.1558   -0.0000 N   0  0  0  0  0  0  0  0  0  0  0  0
    7.4202    0.3855   -0.0000 N   0  0  0  0  0  0  0  0  0  0  0  0
    6.7095    2.8910   -0.0000 C   0  0  0  0  0  0  0  0  0  0  0  0
    3.5294   -1.3491   -0.0000 C   0  0  0  0  0  0  0  0  0  0  0  0
    5.8181    4.1197   -0.0000 C   0  0  0  0  0  0  0  0  0  0  0  0
    3.7101    5.5652   -0.0000 C   0  0  0  0  0  0  0  0  0  0  0  0
    8.8417    0.7830   -0.0000 C   0  0  0  0  0  0  0  0  0  0  0  0
    8.1791    3.3126   -0.0000 C   0  0  0  0  0  0  0  0  0  0  0  0
    6.5168    5.4568   -0.0000 O   0  0  0  0  0  0  0  0  0  0  0  0
    9.2151    2.2526   -0.0000 C   0  0  0  0  0  0  0  0  0  0  0  0
   10.6485    2.6501   -0.0000 C   0  0  0  0  0  0  0  0  0  0  0  0
   11.0220    4.1076   -0.0000 C   0  0  0  0  0  0  0  0  0  0  0  0
   12.4434    4.5051   -0.0000 O   0  0  0  0  0  0  0  0  0  0  0  0
   13.8889    4.1317   -0.0000 C   0  0  0  0  0  0  0  0  0  0  0  0
   15.1296    4.9388   -0.0000 C   0  0  0  0  0  0  0  0  0  0  0  0
   13.9250    2.6380   -0.0000 C   0  0  0  0  0  0  0  0  0  0  0  0
   16.4426    4.2522   -0.0000 C   0  0  0  0  0  0  0  0  0  0  0  0
   15.0694    6.4566   -0.0000 C   0  0  0  0  0  0  0  0  0  0  0  0
   15.2380    1.9514   -0.0000 C   0  0  0  0  0  0  0  0  0  0  0  0
   16.5028    2.7585   -0.0000 C   0  0  0  0  0  0  0  0  0  0  0  0
   17.9242    2.2887   -0.0000 C   0  0  0  0  0  0  0  0  0  0  0  0
   19.0445    3.2885   -0.0000 O   0  0  0  0  0  0  0  0  0  0  0  0
   18.1892    0.8191   -0.0000 O   0  0  0  0  0  0  0  0  0  0  0  0
  1  2  1  0  0  0  0
  2  3  2  0  0  0  0
  2  4  1  0  0  0  0
  3  5  1  0  0  0  0
  4  6  2  0  0  0  0
  5  7  1  0  0  0  0
  5  8  2  0  0  0  0
  7  9  1  0  0  0  0
  7 10  1  0  0  0  0
  8 11  1  0  0  0  0
  9 12  2  0  0  0  0
  9 13  1  0  0  0  0
 10 14  1  0  0  0  0
 11 15  1  0  0  0  0
 11 16  1  0  0  0  0
 12 17  1  0  0  0  0
 13 18  2  0  0  0  0
 15 19  2  0  0  0  0
 17 20  2  0  0  0  0
 20 21  1  0  0  0  0
 21 22  1  0  0  0  0
 22 23  1  0  0  0  0
 23 24  1  0  0  0  0
 24 25  2  0  0  0  0
 24 26  1  0  0  0  0
 25 27  1  0  0  0  0
 25 28  1  0  0  0  0
 26 29  2  0  0  0  0
 27 30  2  0  0  0  0
 30 31  1  0  0  0  0
 31 32  2  0  0  0  0
 31 33  1  0  0  0  0
  6  8  1  0  0  0  0
 13 15  1  0  0  0  0
 18 20  1  0  0  0  0
 29 30  1  0  0  0  0
M  END
>  <MolRegNo>
318810

>  <m>
=

>  <Value>
10000

>  <Unit>
nM

>  <Type>
IC50

>  <pValue>
5

>  <Ligand Efficiency>
0

>  <Binding Efficiency>
0

>  <Surface Efficiency>
0

>  <Assay Index>
239728

>  <Assay Category>


>  <Assay Organism>
Homo sapiens

>  <Target ID>
17045

>  <Target Name>
Cytochrome P450 3A4

>  <Target Organism>
Homo sapiens

>  <Target Description>
Target is a single protein chain

>  <Sequence Accession>
P08684

>  <Reference>
J Med Chem 48 (17), 5580-5588 (2005)

>  <Pubmed ID>
16107158

>  <DOI>
10.1021/jm050255t

$$$$
319852
Actelion Java MolfileCreator 1.0

 35 39  0  0  0  0  0  0  0  0999 V2000
    0.0000   -0.0000   -0.0000 S   0  0  0  0  0  0  0  0  0  0  0  0
    1.0388   -1.0506   -0.0000 O   0  0  0  0  0  0  0  0  0  0  0  0
   -1.0742    1.0742   -0.0000 O   0  0  0  0  0  0  0  0  0  0  0  0
   -1.0742   -1.0506   -0.0000 N   0  0  0  0  0  0  0  0  0  0  0  0
    1.0388    1.0742   -0.0000 C   0  0  0  0  0  0  0  0  0  0  0  0
   -0.7909   -2.5026   -0.0000 C   0  0  0  0  0  0  0  0  0  0  0  0
   -2.5734   -0.8854   -0.0000 C   0  0  0  0  0  0  0  0  0  0  0  0
    2.4790    0.6965   -0.0000 C   0  0  0  0  0  0  0  0  0  0  0  0
    0.6375    2.5380   -0.0000 C   0  0  0  0  0  0  0  0  0  0  0  0
   -2.1012   -3.2227   -0.0000 N   0  0  0  0  0  0  0  0  0  0  0  0
    0.4958   -3.2345   -0.0000 N   0  0  0  0  0  0  0  0  0  0  0  0
   -3.1991   -2.2311   -0.0000 C   0  0  0  0  0  0  0  0  0  0  0  0
   -3.4588    0.3423   -0.0000 C   0  0  0  0  0  0  0  0  0  0  0  0
   -4.7101   -2.3728   -0.0000 C   0  0  0  0  0  0  0  0  0  0  0  0
   -4.9580    0.2125   -0.0000 C   0  0  0  0  0  0  0  0  0  0  0  0
   -5.5954   -1.1451   -0.0000 C   0  0  0  0  0  0  0  0  0  0  0  0
   -5.8552    1.4284   -0.0000 C   0  0  0  0  0  0  0  0  0  0  0  0
   -5.4066    2.8686   -0.0000 N   0  0  0  0  0  0  0  0  0  0  0  0
   -7.3662    1.4402   -0.0000 C   0  0  0  0  0  0  0  0  0  0  0  0
   -6.6343    3.7657   -0.0000 C   0  0  0  0  0  0  0  0  0  0  0  0
   -7.8265    2.8804   -0.0000 N   0  0  0  0  0  0  0  0  0  0  0  0
   -8.2515    0.2479   -0.0000 C   0  0  0  0  0  0  0  0  0  0  0  0
   -6.6461    5.2767   -0.0000 C   0  0  0  0  0  0  0  0  0  0  0  0
   -9.7625    0.4132   -0.0000 C   0  0  0  0  0  0  0  0  0  0  0  0
   -7.6613   -1.0978   -0.0000 C   0  0  0  0  0  0  0  0  0  0  0  0
   -7.9446    6.0322   -0.0000 C   0  0  0  0  0  0  0  0  0  0  0  0
   -5.3594    6.0322   -0.0000 C   0  0  0  0  0  0  0  0  0  0  0  0
  -10.6597   -0.7791   -0.0000 C   0  0  0  0  0  0  0  0  0  0  0  0
   -8.5702   -2.3019   -0.0000 C   0  0  0  0  0  0  0  0  0  0  0  0
   -9.2549    5.2885   -0.0000 F   0  0  0  0  0  0  0  0  0  0  0  0
   -7.9564    7.5432   -0.0000 C   0  0  0  0  0  0  0  0  0  0  0  0
   -4.0726    5.2885   -0.0000 F   0  0  0  0  0  0  0  0  0  0  0  0
   -5.3712    7.5314   -0.0000 C   0  0  0  0  0  0  0  0  0  0  0  0
  -10.0694   -2.1249   -0.0000 C   0  0  0  0  0  0  0  0  0  0  0  0
   -6.6697    8.3105   -0.0000 C   0  0  0  0  0  0  0  0  0  0  0  0
  1  2  2  0  0  0  0
  1  3  2  0  0  0  0
  1  4  1  0  0  0  0
  1  5  1  0  0  0  0
  4  6  1  0  0  0  0
  4  7  1  0  0  0  0
  5  8  1  0  0  0  0
  5  9  1  0  0  0  0
  6 10  2  0  0  0  0
  6 11  1  0  0  0  0
  7 12  2  0  0  0  0
  7 13  1  0  0  0  0
 12 14  1  0  0  0  0
 13 15  2  0  0  0  0
 14 16  2  0  0  0  0
 15 17  1  0  0  0  0
 17 18  1  0  0  0  0
 17 19  2  0  0  0  0
 18 20  1  0  0  0  0
 19 21  1  0  0  0  0
 19 22  1  0  0  0  0
 20 23  1  0  0  0  0
 22 24  2  0  0  0  0
 22 25  1  0  0  0  0
 23 26  2  0  0  0  0
 23 27  1  0  0  0  0
 24 28  1  0  0  0  0
 25 29  2  0  0  0  0
 26 30  1  0  0  0  0
 26 31  1  0  0  0  0
 27 32  1  0  0  0  0
 27 33  2  0  0  0  0
 28 34  2  0  0  0  0
 31 35  2  0  0  0  0
 10 12  1  0  0  0  0
 15 16  1  0  0  0  0
 20 21  2  0  0  0  0
 29 34  1  0  0  0  0
 33 35  1  0  0  0  0
M  END
>  <MolRegNo>
319852

>  <m>
=

>  <Value>
6.3

>  <Unit>
nM

>  <Type>
IC50

>  <pValue>
8.2

>  <Ligand Efficiency>
0

>  <Binding Efficiency>
0

>  <Surface Efficiency>
0

>  <Assay Index>
237540

>  <Assay Category>


>  <Assay Organism>
Homo sapiens

>  <Target ID>
17045

>  <Target Name>
Cytochrome P450 3A4

>  <Target Organism>
Homo sapiens

>  <Target Description>
Target is a single protein chain

>  <Sequence Accession>
P08684

>  <Reference>
J Med Chem 48 (7), 2270-2273 (2005)

>  <Pubmed ID>
15801819

>  <DOI>
10.1021/jm048978k

$$$$
320141
Actelion Java MolfileCreator 1.0

 27 30  0  0  0  0  0  0  0  0999 V2000
    0.0000   -0.0000   -0.0000 S   0  0  0  0  0  0  0  0  0  0  0  0
    1.3448    0.6724   -0.0000 O   0  0  0  0  0  0  0  0  0  0  0  0
   -1.3566   -0.6724   -0.0000 O   0  0  0  0  0  0  0  0  0  0  0  0
    0.6724   -1.3448   -0.0000 N   0  0  0  0  0  0  0  0  0  0  0  0
   -0.6960    1.3566   -0.0000 C   0  0  0  0  0  0  0  0  0  0  0  0
    2.1587   -1.4981   -0.0000 C   0  0  0  0  0  0  0  0  0  0  0  0
    0.0472   -2.6895   -0.0000 C   0  0  0  0  0  0  0  0  0  0  0  0
    0.1298    2.6188   -0.0000 C   0  0  0  0  0  0  0  0  0  0  0  0
   -2.2059    1.4627   -0.0000 C   0  0  0  0  0  0  0  0  0  0  0  0
    2.4418   -2.9491   -0.0000 N   0  0  0  0  0  0  0  0  0  0  0  0
    3.2558   -0.4836   -0.0000 N   0  0  0  0  0  0  0  0  0  0  0  0
    1.1442   -3.6804   -0.0000 C   0  0  0  0  0  0  0  0  0  0  0  0
   -1.4037   -3.1378   -0.0000 C   0  0  0  0  0  0  0  0  0  0  0  0
    0.8021   -5.1549   -0.0000 C   0  0  0  0  0  0  0  0  0  0  0  0
   -1.7340   -4.5769   -0.0000 C   0  0  0  0  0  0  0  0  0  0  0  0
   -0.6370   -5.5796   -0.0000 C   0  0  0  0  0  0  0  0  0  0  0  0
   -3.1968   -5.0134   -0.0000 C   0  0  0  0  0  0  0  0  0  0  0  0
   -4.4118   -4.1169   -0.0000 N   0  0  0  0  0  0  0  0  0  0  0  0
   -3.6804   -6.4289   -0.0000 C   0  0  0  0  0  0  0  0  0  0  0  0
   -5.6622   -4.9780   -0.0000 C   0  0  0  0  0  0  0  0  0  0  0  0
   -5.1903   -6.4171   -0.0000 N   0  0  0  0  0  0  0  0  0  0  0  0
   -2.8075   -7.6439   -0.0000 C   0  0  0  0  0  0  0  0  0  0  0  0
   -3.4563   -9.0123   -0.0000 C   0  0  0  0  0  0  0  0  0  0  0  0
   -1.3330   -7.4906   -0.0000 C   0  0  0  0  0  0  0  0  0  0  0  0
   -2.5952  -10.2155   -0.0000 C   0  0  0  0  0  0  0  0  0  0  0  0
   -0.4718   -8.7174   -0.0000 C   0  0  0  0  0  0  0  0  0  0  0  0
   -1.1088  -10.0504   -0.0000 C   0  0  0  0  0  0  0  0  0  0  0  0
  1  2  2  0  0  0  0
  1  3  2  0  0  0  0
  1  4  1  0  0  0  0
  1  5  1  0  0  0  0
  4  6  1  0  0  0  0
  4  7  1  0  0  0  0
  5  8  1  0  0  0  0
  5  9  1  0  0  0  0
  6 10  2  0  0  0  0
  6 11  1  0  0  0  0
  7 12  2  0  0  0  0
  7 13  1  0  0  0  0
 12 14  1  0  0  0  0
 13 15  2  0  0  0  0
 14 16  2  0  0  0  0
 15 17  1  0  0  0  0
 17 18  1  0  0  0  0
 17 19  2  0  0  0  0
 18 20  1  0  0  0  0
 19 21  1  0  0  0  0
 19 22  1  0  0  0  0
 22 23  2  0  0  0  0
 22 24  1  0  0  0  0
 23 25  1  0  0  0  0
 24 26  2  0  0  0  0
 25 27  2  0  0  0  0
 10 12  1  0  0  0  0
 15 16  1  0  0  0  0
 20 21  2  0  0  0  0
 26 27  1  0  0  0  0
M  END
>  <MolRegNo>
320141

>  <m>
=

>  <Value>
1600

>  <Unit>
nM

>  <Type>
IC50

>  <pValue>
5.8

>  <Ligand Efficiency>
0

>  <Binding Efficiency>
0

>  <Surface Efficiency>
0

>  <Assay Index>
237540

>  <Assay Category>


>  <Assay Organism>
Homo sapiens

>  <Target ID>
17045

>  <Target Name>
Cytochrome P450 3A4

>  <Target Organism>
Homo sapiens

>  <Target Description>
Target is a single protein chain

>  <Sequence Accession>
P08684

>  <Reference>
J Med Chem 48 (7), 2270-2273 (2005)

>  <Pubmed ID>
15801819

>  <DOI>
10.1021/jm048978k

$$$$
320142
Actelion Java MolfileCreator 1.0

 38 39  0  0  0  0  0  0  0  0999 V2000
    0.0000   -0.0000   -0.0000 S   0  0  0  0  0  0  0  0  0  0  0  0
   -1.3410   -0.7120   -0.0000 O   0  0  0  0  0  0  0  0  0  0  0  0
    1.3291    0.7120   -0.0000 O   0  0  0  0  0  0  0  0  0  0  0  0
    0.7120   -1.3291   -0.0000 N   0  0  0  0  0  0  0  0  0  0  0  0
   -0.7120    1.3291   -0.0000 C   0  0  0  0  0  0  0  0  0  0  0  0
    2.2073   -1.4478   -0.0000 C   0  0  0  0  0  0  0  0  0  0  0  0
    0.1187   -2.7057   -0.0000 C   0  0  0  0  0  0  0  0  0  0  0  0
    0.0949    2.6108   -0.0000 C   0  0  0  0  0  0  0  0  0  0  0  0
   -2.2192    1.3885   -0.0000 C   0  0  0  0  0  0  0  0  0  0  0  0
    2.5159   -2.9075   -0.0000 N   0  0  0  0  0  0  0  0  0  0  0  0
    3.2872   -0.4154   -0.0000 N   0  0  0  0  0  0  0  0  0  0  0  0
    1.2342   -3.6670   -0.0000 C   0  0  0  0  0  0  0  0  0  0  0  0
   -1.3291   -3.1804   -0.0000 C   0  0  0  0  0  0  0  0  0  0  0  0
    0.9138   -5.1504   -0.0000 C   0  0  0  0  0  0  0  0  0  0  0  0
   -1.6258   -4.6283   -0.0000 C   0  0  0  0  0  0  0  0  0  0  0  0
   -0.5103   -5.6132   -0.0000 C   0  0  0  0  0  0  0  0  0  0  0  0
   -3.0855   -5.0911   -0.0000 C   0  0  0  0  0  0  0  0  0  0  0  0
   -4.3078   -4.2366   -0.0000 N   0  0  0  0  0  0  0  0  0  0  0  0
   -3.5365   -6.5389   -0.0000 C   0  0  0  0  0  0  0  0  0  0  0  0
   -5.5420   -5.1386   -0.0000 C   0  0  0  0  0  0  0  0  0  0  0  0
   -5.0436   -6.5508   -0.0000 N   0  0  0  0  0  0  0  0  0  0  0  0
   -2.6345   -7.7256   -0.0000 C   0  0  0  0  0  0  0  0  0  0  0  0
   -3.2635   -9.1141   -0.0000 C   0  0  0  0  0  0  0  0  0  0  0  0
   -1.1511   -7.5357   -0.0000 C   0  0  0  0  0  0  0  0  0  0  0  0
   -2.3616  -10.2890   -0.0000 C   0  0  0  0  0  0  0  0  0  0  0  0
   -0.2729   -8.7462   -0.0000 C   0  0  0  0  0  0  0  0  0  0  0  0
   -0.8782  -10.0991   -0.0000 C   0  0  0  0  0  0  0  0  0  0  0  0
    0.0119  -11.2858   -0.0000 F   0  0  0  0  0  0  0  0  0  0  0  0
   -8.4495    0.9494   -0.0000 S   0  0  0  0  0  0  0  0  0  0  0  0
   -8.4614   -0.5340   -0.0000 O   0  0  0  0  0  0  0  0  0  0  0  0
   -8.4614    2.4565   -0.0000 O   0  0  0  0  0  0  0  0  0  0  0  0
   -6.9661    0.9613   -0.0000 O   0  0  0  0  0  0  0  0  0  0  0  0
   -9.9567    0.9613   -0.0000 C   0  0  0  0  0  0  0  0  0  0  0  0
    6.0761   -8.4495   -0.0000 S   0  0  0  0  0  0  0  0  0  0  0  0
    6.0642   -9.9329   -0.0000 O   0  0  0  0  0  0  0  0  0  0  0  0
    6.0642   -6.9424   -0.0000 O   0  0  0  0  0  0  0  0  0  0  0  0
    7.5595   -8.4377   -0.0000 O   0  0  0  0  0  0  0  0  0  0  0  0
    4.5689   -8.4377   -0.0000 C   0  0  0  0  0  0  0  0  0  0  0  0
  1  2  2  0  0  0  0
  1  3  2  0  0  0  0
  1  4  1  0  0  0  0
  1  5  1  0  0  0  0
  4  6  1  0  0  0  0
  4  7  1  0  0  0  0
  5  8  1  0  0  0  0
  5  9  1  0  0  0  0
  6 10  2  0  0  0  0
  6 11  1  0  0  0  0
  7 12  2  0  0  0  0
  7 13  1  0  0  0  0
 12 14  1  0  0  0  0
 13 15  2  0  0  0  0
 14 16  2  0  0  0  0
 15 17  1  0  0  0  0
 17 18  1  0  0  0  0
 17 19  2  0  0  0  0
 18 20  1  0  0  0  0
 19 21  1  0  0  0  0
 19 22  1  0  0  0  0
 22 23  2  0  0  0  0
 22 24  1  0  0  0  0
 23 25  1  0  0  0  0
 24 26  2  0  0  0  0
 25 27  2  0  0  0  0
 27 28  1  0  0  0  0
 29 30  2  0  0  0  0
 29 31  2  0  0  0  0
 29 32  1  0  0  0  0
 29 33  1  0  0  0  0
 34 35  2  0  0  0  0
 34 36  2  0  0  0  0
 34 37  1  0  0  0  0
 34 38  1  0  0  0  0
 10 12  1  0  0  0  0
 15 16  1  0  0  0  0
 20 21  2  0  0  0  0
 26 27  1  0  0  0  0
M  END
>  <MolRegNo>
320142

>  <m>
=

>  <Value>
800

>  <Unit>
nM

>  <Type>
IC50

>  <pValue>
6.1

>  <Ligand Efficiency>
0

>  <Binding Efficiency>
0

>  <Surface Efficiency>
0

>  <Assay Index>
237540

>  <Assay Category>


>  <Assay Organism>
Homo sapiens

>  <Target ID>
17045

>  <Target Name>
Cytochrome P450 3A4

>  <Target Organism>
Homo sapiens

>  <Target Description>
Target is a single protein chain

>  <Sequence Accession>
P08684

>  <Reference>
J Med Chem 48 (7), 2270-2273 (2005)

>  <Pubmed ID>
15801819

>  <DOI>
10.1021/jm048978k

$$$$
319970
Actelion Java MolfileCreator 1.0

 35 37  0  0  0  0  0  0  0  0999 V2000
    0.0000   -0.0000   -0.0000 S   0  0  0  0  0  0  0  0  0  0  0  0
    1.3446    0.6723   -0.0000 O   0  0  0  0  0  0  0  0  0  0  0  0
   -1.3564   -0.6723   -0.0000 O   0  0  0  0  0  0  0  0  0  0  0  0
    0.6723   -1.3446   -0.0000 N   0  0  0  0  0  0  0  0  0  0  0  0
   -0.6959    1.3564   -0.0000 C   0  0  0  0  0  0  0  0  0  0  0  0
    2.1584   -1.4979   -0.0000 C   0  0  0  0  0  0  0  0  0  0  0  0
    0.0472   -2.6891   -0.0000 C   0  0  0  0  0  0  0  0  0  0  0  0
    0.1297    2.6184   -0.0000 C   0  0  0  0  0  0  0  0  0  0  0  0
   -2.2055    1.4625   -0.0000 C   0  0  0  0  0  0  0  0  0  0  0  0
    2.4414   -2.9486   -0.0000 N   0  0  0  0  0  0  0  0  0  0  0  0
    3.2552   -0.4836   -0.0000 N   0  0  0  0  0  0  0  0  0  0  0  0
    1.1441   -3.6798   -0.0000 C   0  0  0  0  0  0  0  0  0  0  0  0
   -1.4035   -3.1373   -0.0000 C   0  0  0  0  0  0  0  0  0  0  0  0
    0.8020   -5.1541   -0.0000 C   0  0  0  0  0  0  0  0  0  0  0  0
   -1.7338   -4.5762   -0.0000 C   0  0  0  0  0  0  0  0  0  0  0  0
   -0.6369   -5.5787   -0.0000 C   0  0  0  0  0  0  0  0  0  0  0  0
   -3.1963   -5.0126   -0.0000 C   0  0  0  0  0  0  0  0  0  0  0  0
   -4.4111   -4.1162   -0.0000 N   0  0  0  0  0  0  0  0  0  0  0  0
   -3.6798   -6.4279   -0.0000 C   0  0  0  0  0  0  0  0  0  0  0  0
   -5.6613   -4.9772   -0.0000 C   0  0  0  0  0  0  0  0  0  0  0  0
   -5.1895   -6.4161   -0.0000 N   0  0  0  0  0  0  0  0  0  0  0  0
   -2.8071   -7.6428   -0.0000 C   0  0  0  0  0  0  0  0  0  0  0  0
   -7.1002   -4.4937   -0.0000 C   0  0  0  0  0  0  0  0  0  0  0  0
   -3.4558   -9.0109   -0.0000 C   0  0  0  0  0  0  0  0  0  0  0  0
   -1.3328   -7.4894   -0.0000 C   0  0  0  0  0  0  0  0  0  0  0  0
   -7.4187   -3.0194   -0.0000 C   0  0  0  0  0  0  0  0  0  0  0  0
   -2.5948  -10.2139   -0.0000 C   0  0  0  0  0  0  0  0  0  0  0  0
   -0.4718   -8.7160   -0.0000 C   0  0  0  0  0  0  0  0  0  0  0  0
   -1.1087  -10.0488   -0.0000 C   0  0  0  0  0  0  0  0  0  0  0  0
   -0.2477  -11.2636   -0.0000 F   0  0  0  0  0  0  0  0  0  0  0  0
    7.1710   -7.6428   -0.0000 S   0  0  0  0  0  0  0  0  0  0  0  0
    7.1592   -9.1288   -0.0000 O   0  0  0  0  0  0  0  0  0  0  0  0
    7.1592   -6.1331   -0.0000 O   0  0  0  0  0  0  0  0  0  0  0  0
    8.6571   -7.6310   -0.0000 O   0  0  0  0  0  0  0  0  0  0  0  0
    5.6613   -7.6310   -0.0000 C   0  0  0  0  0  0  0  0  0  0  0  0
  1  2  2  0  0  0  0
  1  3  2  0  0  0  0
  1  4  1  0  0  0  0
  1  5  1  0  0  0  0
  4  6  1  0  0  0  0
  4  7  1  0  0  0  0
  5  8  1  0  0  0  0
  5  9  1  0  0  0  0
  6 10  2  0  0  0  0
  6 11  1  0  0  0  0
  7 12  2  0  0  0  0
  7 13  1  0  0  0  0
 12 14  1  0  0  0  0
 13 15  2  0  0  0  0
 14 16  2  0  0  0  0
 15 17  1  0  0  0  0
 17 18  1  0  0  0  0
 17 19  2  0  0  0  0
 18 20  1  0  0  0  0
 19 21  1  0  0  0  0
 19 22  1  0  0  0  0
 20 23  1  0  0  0  0
 22 24  2  0  0  0  0
 22 25  1  0  0  0  0
 23 26  1  0  0  0  0
 24 27  1  0  0  0  0
 25 28  2  0  0  0  0
 27 29  2  0  0  0  0
 29 30  1  0  0  0  0
 31 32  2  0  0  0  0
 31 33  2  0  0  0  0
 31 34  1  0  0  0  0
 31 35  1  0  0  0  0
 10 12  1  0  0  0  0
 15 16  1  0  0  0  0
 20 21  2  0  0  0  0
 28 29  1  0  0  0  0
M  END
>  <MolRegNo>
319970

>  <m>
=

>  <Value>
4400

>  <Unit>
nM

>  <Type>
IC50

>  <pValue>
5.36

>  <Ligand Efficiency>
0

>  <Binding Efficiency>
0

>  <Surface Efficiency>
0

>  <Assay Index>
237540

>  <Assay Category>


>  <Assay Organism>
Homo sapiens

>  <Target ID>
17045

>  <Target Name>
Cytochrome P450 3A4

>  <Target Organism>
Homo sapiens

>  <Target Description>
Target is a single protein chain

>  <Sequence Accession>
P08684

>  <Reference>
J Med Chem 48 (7), 2270-2273 (2005)

>  <Pubmed ID>
15801819

>  <DOI>
10.1021/jm048978k

$$$$
319827
Actelion Java MolfileCreator 1.0

 36 38  0  0  0  0  0  0  0  0999 V2000
    0.0000   -0.0000   -0.0000 S   0  0  0  0  0  0  0  0  0  0  0  0
    1.3449    0.6725   -0.0000 O   0  0  0  0  0  0  0  0  0  0  0  0
   -1.3567   -0.6725   -0.0000 O   0  0  0  0  0  0  0  0  0  0  0  0
    0.6725   -1.3449   -0.0000 N   0  0  0  0  0  0  0  0  0  0  0  0
   -0.6961    1.3567   -0.0000 C   0  0  0  0  0  0  0  0  0  0  0  0
    2.1590   -1.4865   -0.0000 C   0  0  0  0  0  0  0  0  0  0  0  0
    0.0472   -2.6898   -0.0000 C   0  0  0  0  0  0  0  0  0  0  0  0
    0.1298    2.6191   -0.0000 C   0  0  0  0  0  0  0  0  0  0  0  0
   -2.2061    1.4629   -0.0000 C   0  0  0  0  0  0  0  0  0  0  0  0
    2.4421   -2.9494   -0.0000 N   0  0  0  0  0  0  0  0  0  0  0  0
    3.2561   -0.4719   -0.0000 N   0  0  0  0  0  0  0  0  0  0  0  0
    1.1444   -3.6808   -0.0000 C   0  0  0  0  0  0  0  0  0  0  0  0
   -1.3921   -3.1264   -0.0000 C   0  0  0  0  0  0  0  0  0  0  0  0
    0.7904   -5.1673   -0.0000 C   0  0  0  0  0  0  0  0  0  0  0  0
   -1.7224   -4.5657   -0.0000 C   0  0  0  0  0  0  0  0  0  0  0  0
   -0.6489   -5.5920   -0.0000 C   0  0  0  0  0  0  0  0  0  0  0  0
   -3.1853   -5.0022   -0.0000 C   0  0  0  0  0  0  0  0  0  0  0  0
   -4.4005   -4.1056   -0.0000 N   0  0  0  0  0  0  0  0  0  0  0  0
   -3.6690   -6.4179   -0.0000 C   0  0  0  0  0  0  0  0  0  0  0  0
   -5.6392   -4.9786   -0.0000 C   0  0  0  0  0  0  0  0  0  0  0  0
   -5.1791   -6.4061   -0.0000 N   0  0  0  0  0  0  0  0  0  0  0  0
   -2.7960   -7.6330   -0.0000 C   0  0  0  0  0  0  0  0  0  0  0  0
   -7.0785   -4.4949   -0.0000 C   0  0  0  0  0  0  0  0  0  0  0  0
   -1.3095   -7.4797   -0.0000 C   0  0  0  0  0  0  0  0  0  0  0  0
   -3.4449   -9.0015   -0.0000 C   0  0  0  0  0  0  0  0  0  0  0  0
   -7.3853   -3.0320   -0.0000 C   0  0  0  0  0  0  0  0  0  0  0  0
   -8.1993   -5.4859   -0.0000 C   0  0  0  0  0  0  0  0  0  0  0  0
   -0.4601   -8.6948   -0.0000 C   0  0  0  0  0  0  0  0  0  0  0  0
   -2.5719  -10.2167   -0.0000 C   0  0  0  0  0  0  0  0  0  0  0  0
   -1.0854  -10.0397   -0.0000 C   0  0  0  0  0  0  0  0  0  0  0  0
   -0.2360  -11.2549   -0.0000 F   0  0  0  0  0  0  0  0  0  0  0  0
    7.8336   -8.9662   -0.0000 S   0  0  0  0  0  0  0  0  0  0  0  0
    7.8218  -10.4526   -0.0000 O   0  0  0  0  0  0  0  0  0  0  0  0
    7.8218   -7.4561   -0.0000 O   0  0  0  0  0  0  0  0  0  0  0  0
    9.3201   -8.9544   -0.0000 O   0  0  0  0  0  0  0  0  0  0  0  0
    6.3235   -8.9544   -0.0000 C   0  0  0  0  0  0  0  0  0  0  0  0
  1  2  2  0  0  0  0
  1  3  2  0  0  0  0
  1  4  1  0  0  0  0
  1  5  1  0  0  0  0
  4  6  1  0  0  0  0
  4  7  1  0  0  0  0
  5  8  1  0  0  0  0
  5  9  1  0  0  0  0
  6 10  2  0  0  0  0
  6 11  1  0  0  0  0
  7 12  2  0  0  0  0
  7 13  1  0  0  0  0
 12 14  1  0  0  0  0
 13 15  2  0  0  0  0
 14 16  2  0  0  0  0
 15 17  1  0  0  0  0
 17 18  1  0  0  0  0
 17 19  2  0  0  0  0
 18 20  1  0  0  0  0
 19 21  1  0  0  0  0
 19 22  1  0  0  0  0
 20 23  1  0  0  0  0
 22 24  2  0  0  0  0
 22 25  1  0  0  0  0
 23 26  1  0  0  0  0
 23 27  1  0  0  0  0
 24 28  1  0  0  0  0
 25 29  2  0  0  0  0
 28 30  2  0  0  0  0
 30 31  1  0  0  0  0
 32 33  2  0  0  0  0
 32 34  2  0  0  0  0
 32 35  1  0  0  0  0
 32 36  1  0  0  0  0
 10 12  1  0  0  0  0
 15 16  1  0  0  0  0
 20 21  2  0  0  0  0
 29 30  1  0  0  0  0
M  END
>  <MolRegNo>
319827

>  <m>
=

>  <Value>
6100

>  <Unit>
nM

>  <Type>
IC50

>  <pValue>
5.21

>  <Ligand Efficiency>
0

>  <Binding Efficiency>
0

>  <Surface Efficiency>
0

>  <Assay Index>
237540

>  <Assay Category>


>  <Assay Organism>
Homo sapiens

>  <Target ID>
17045

>  <Target Name>
Cytochrome P450 3A4

>  <Target Organism>
Homo sapiens

>  <Target Description>
Target is a single protein chain

>  <Sequence Accession>
P08684

>  <Reference>
J Med Chem 48 (7), 2270-2273 (2005)

>  <Pubmed ID>
15801819

>  <DOI>
10.1021/jm048978k

$$$$
320143
Actelion Java MolfileCreator 1.0

 42 43  0  0  0  0  0  0  0  0999 V2000
    0.0000   -0.0000   -0.0000 S   0  0  0  0  0  0  0  0  0  0  0  0
    1.3366    0.6979   -0.0000 O   0  0  0  0  0  0  0  0  0  0  0  0
   -1.3721   -0.6979   -0.0000 O   0  0  0  0  0  0  0  0  0  0  0  0
    0.6742   -1.3484   -0.0000 N   0  0  0  0  0  0  0  0  0  0  0  0
   -0.7215    1.3602   -0.0000 C   0  0  0  0  0  0  0  0  0  0  0  0
    2.1645   -1.5613   -0.0000 C   0  0  0  0  0  0  0  0  0  0  0  0
   -0.0237   -2.6613   -0.0000 C   0  0  0  0  0  0  0  0  0  0  0  0
   -2.2355    1.4430   -0.0000 C   0  0  0  0  0  0  0  0  0  0  0  0
    0.0828    2.6495   -0.0000 C   0  0  0  0  0  0  0  0  0  0  0  0
    2.3538   -3.0043   -0.0000 N   0  0  0  0  0  0  0  0  0  0  0  0
    3.2172   -0.5204   -0.0000 N   0  0  0  0  0  0  0  0  0  0  0  0
    1.0290   -3.7022   -0.0000 C   0  0  0  0  0  0  0  0  0  0  0  0
   -1.4667   -3.0398   -0.0000 C   0  0  0  0  0  0  0  0  0  0  0  0
    0.6269   -5.1216   -0.0000 C   0  0  0  0  0  0  0  0  0  0  0  0
   -1.8688   -4.4828   -0.0000 C   0  0  0  0  0  0  0  0  0  0  0  0
   -0.8398   -5.5000   -0.0000 C   0  0  0  0  0  0  0  0  0  0  0  0
   -3.3119   -4.8613   -0.0000 C   0  0  0  0  0  0  0  0  0  0  0  0
   -4.5301   -3.9624   -0.0000 N   0  0  0  0  0  0  0  0  0  0  0  0
   -3.7968   -6.2807   -0.0000 C   0  0  0  0  0  0  0  0  0  0  0  0
   -5.7721   -4.8377   -0.0000 C   0  0  0  0  0  0  0  0  0  0  0  0
   -5.3108   -6.2452   -0.0000 N   0  0  0  0  0  0  0  0  0  0  0  0
   -2.9925   -7.5226   -0.0000 C   0  0  0  0  0  0  0  0  0  0  0  0
   -7.2151   -4.3527   -0.0000 C   0  0  0  0  0  0  0  0  0  0  0  0
   -1.5022   -7.4162   -0.0000 C   0  0  0  0  0  0  0  0  0  0  0  0
   -3.6904   -8.8592   -0.0000 C   0  0  0  0  0  0  0  0  0  0  0  0
   -7.6764   -5.7721   -0.0000 C   0  0  0  0  0  0  0  0  0  0  0  0
   -6.7775   -2.9097   -0.0000 C   0  0  0  0  0  0  0  0  0  0  0  0
   -8.6581   -3.8914   -0.0000 C   0  0  0  0  0  0  0  0  0  0  0  0
   -0.6979   -8.6818   -0.0000 C   0  0  0  0  0  0  0  0  0  0  0  0
   -2.8860  -10.1012   -0.0000 C   0  0  0  0  0  0  0  0  0  0  0  0
   -1.3957  -10.0184   -0.0000 C   0  0  0  0  0  0  0  0  0  0  0  0
   -0.5914  -11.2840   -0.0000 F   0  0  0  0  0  0  0  0  0  0  0  0
   -9.9356    3.2172   -0.0000 S   0  0  0  0  0  0  0  0  0  0  0  0
   -9.9474    1.7269   -0.0000 O   0  0  0  0  0  0  0  0  0  0  0  0
   -9.9474    4.7312   -0.0000 O   0  0  0  0  0  0  0  0  0  0  0  0
   -8.4452    3.2291   -0.0000 O   0  0  0  0  0  0  0  0  0  0  0  0
  -11.4496    3.2291   -0.0000 C   0  0  0  0  0  0  0  0  0  0  0  0
    6.7183   -7.1915   -0.0000 S   0  0  0  0  0  0  0  0  0  0  0  0
    6.6947   -8.6818   -0.0000 O   0  0  0  0  0  0  0  0  0  0  0  0
    6.6947   -5.6775   -0.0000 O   0  0  0  0  0  0  0  0  0  0  0  0
    8.2087   -7.1796   -0.0000 O   0  0  0  0  0  0  0  0  0  0  0  0
    5.2043   -7.1796   -0.0000 C   0  0  0  0  0  0  0  0  0  0  0  0
  1  2  2  0  0  0  0
  1  3  2  0  0  0  0
  1  4  1  0  0  0  0
  1  5  1  0  0  0  0
  4  6  1  0  0  0  0
  4  7  1  0  0  0  0
  5  8  1  0  0  0  0
  5  9  1  0  0  0  0
  6 10  2  0  0  0  0
  6 11  1  0  0  0  0
  7 12  2  0  0  0  0
  7 13  1  0  0  0  0
 12 14  1  0  0  0  0
 13 15  2  0  0  0  0
 14 16  2  0  0  0  0
 15 17  1  0  0  0  0
 17 18  1  0  0  0  0
 17 19  2  0  0  0  0
 18 20  1  0  0  0  0
 19 21  1  0  0  0  0
 19 22  1  0  0  0  0
 20 23  1  0  0  0  0
 22 24  2  0  0  0  0
 22 25  1  0  0  0  0
 23 26  1  0  0  0  0
 23 27  1  0  0  0  0
 23 28  1  0  0  0  0
 24 29  1  0  0  0  0
 25 30  2  0  0  0  0
 29 31  2  0  0  0  0
 31 32  1  0  0  0  0
 33 34  2  0  0  0  0
 33 35  2  0  0  0  0
 33 36  1  0  0  0  0
 33 37  1  0  0  0  0
 38 39  2  0  0  0  0
 38 40  2  0  0  0  0
 38 41  1  0  0  0  0
 38 42  1  0  0  0  0
 10 12  1  0  0  0  0
 15 16  1  0  0  0  0
 20 21  2  0  0  0  0
 30 31  1  0  0  0  0
M  END
>  <MolRegNo>
320143

>  <m>
=

>  <Value>
31800

>  <Unit>
nM

>  <Type>
IC50

>  <pValue>
4.5

>  <Ligand Efficiency>
0

>  <Binding Efficiency>
0

>  <Surface Efficiency>
0

>  <Assay Index>
237540

>  <Assay Category>


>  <Assay Organism>
Homo sapiens

>  <Target ID>
17045

>  <Target Name>
Cytochrome P450 3A4

>  <Target Organism>
Homo sapiens

>  <Target Description>
Target is a single protein chain

>  <Sequence Accession>
P08684

>  <Reference>
J Med Chem 48 (7), 2270-2273 (2005)

>  <Pubmed ID>
15801819

>  <DOI>
10.1021/jm048978k

$$$$
319260
Actelion Java MolfileCreator 1.0

 37 41  0  0  0  0  0  0  0  0999 V2000
    0.0000   -0.0000   -0.0000 S   0  0  0  0  0  0  0  0  0  0  0  0
    1.3404    0.6999   -0.0000 O   0  0  0  0  0  0  0  0  0  0  0  0
   -1.3641   -0.6880   -0.0000 O   0  0  0  0  0  0  0  0  0  0  0  0
    0.6761   -1.3404   -0.0000 N   0  0  0  0  0  0  0  0  0  0  0  0
   -0.7117    1.3523   -0.0000 C   0  0  0  0  0  0  0  0  0  0  0  0
    2.1589   -1.5658   -0.0000 C   0  0  0  0  0  0  0  0  0  0  0  0
   -0.0119   -2.6452   -0.0000 C   0  0  0  0  0  0  0  0  0  0  0  0
    0.0949    2.6334   -0.0000 C   0  0  0  0  0  0  0  0  0  0  0  0
   -2.2300    1.4353   -0.0000 C   0  0  0  0  0  0  0  0  0  0  0  0
    2.3487   -3.0129   -0.0000 N   0  0  0  0  0  0  0  0  0  0  0  0
    3.2264   -0.5338   -0.0000 N   0  0  0  0  0  0  0  0  0  0  0  0
    1.0320   -3.6891   -0.0000 C   0  0  0  0  0  0  0  0  0  0  0  0
   -1.4590   -3.0248   -0.0000 C   0  0  0  0  0  0  0  0  0  0  0  0
    0.6287   -5.1125   -0.0000 C   0  0  0  0  0  0  0  0  0  0  0  0
   -1.8623   -4.4720   -0.0000 C   0  0  0  0  0  0  0  0  0  0  0  0
   -0.8422   -5.4921   -0.0000 C   0  0  0  0  0  0  0  0  0  0  0  0
   -3.3095   -4.8515   -0.0000 C   0  0  0  0  0  0  0  0  0  0  0  0
   -4.5194   -3.9500   -0.0000 N   0  0  0  0  0  0  0  0  0  0  0  0
   -3.7958   -6.2631   -0.0000 C   0  0  0  0  0  0  0  0  0  0  0  0
   -5.7530   -4.8159   -0.0000 C   0  0  0  0  0  0  0  0  0  0  0  0
   -5.3023   -6.2394   -0.0000 N   0  0  0  0  0  0  0  0  0  0  0  0
   -2.9892   -7.5086   -0.0000 C   0  0  0  0  0  0  0  0  0  0  0  0
   -7.1528   -4.2703   -0.0000 C   0  0  0  0  0  0  0  0  0  0  0  0
   -3.6772   -8.8253   -0.0000 C   0  0  0  0  0  0  0  0  0  0  0  0
   -1.5065   -7.4019   -0.0000 C   0  0  0  0  0  0  0  0  0  0  0  0
   -7.4019   -2.7757   -0.0000 C   0  0  0  0  0  0  0  0  0  0  0  0
   -8.3389   -5.2074   -0.0000 C   0  0  0  0  0  0  0  0  0  0  0  0
   -2.8587  -10.0708   -0.0000 C   0  0  0  0  0  0  0  0  0  0  0  0
   -0.6999   -8.6592   -0.0000 C   0  0  0  0  0  0  0  0  0  0  0  0
   -8.8016   -2.2182   -0.0000 C   0  0  0  0  0  0  0  0  0  0  0  0
   -9.7624   -4.6499   -0.0000 C   0  0  0  0  0  0  0  0  0  0  0  0
   -1.3760   -9.9878   -0.0000 C   0  0  0  0  0  0  0  0  0  0  0  0
   -9.9996   -3.1434   -0.0000 N   0  0  0  0  0  0  0  0  0  0  0  0
  -11.4231   -2.6096   -0.0000 C   0  0  0  0  0  0  0  0  0  0  0  0
  -11.6840   -1.1150   -0.0000 C   0  0  0  0  0  0  0  0  0  0  0  0
  -13.1074   -0.5812   -0.0000 C   0  0  0  0  0  0  0  0  0  0  0  0
  -10.5334   -0.1542   -0.0000 C   0  0  0  0  0  0  0  0  0  0  0  0
  1  2  2  0  0  0  0
  1  3  2  0  0  0  0
  1  4  1  0  0  0  0
  1  5  1  0  0  0  0
  4  6  1  0  0  0  0
  4  7  1  0  0  0  0
  5  8  1  0  0  0  0
  5  9  1  0  0  0  0
  6 10  2  0  0  0  0
  6 11  1  0  0  0  0
  7 12  2  0  0  0  0
  7 13  1  0  0  0  0
 12 14  1  0  0  0  0
 13 15  2  0  0  0  0
 14 16  2  0  0  0  0
 15 17  1  0  0  0  0
 17 18  1  0  0  0  0
 17 19  2  0  0  0  0
 18 20  2  0  0  0  0
 19 21  1  0  0  0  0
 19 22  1  0  0  0  0
 20 23  1  0  0  0  0
 22 24  2  0  0  0  0
 22 25  1  0  0  0  0
 23 26  1  0  0  0  0
 23 27  1  0  0  0  0
 24 28  1  0  0  0  0
 25 29  2  0  0  0  0
 26 30  1  0  0  0  0
 27 31  1  0  0  0  0
 28 32  2  0  0  0  0
 30 33  1  0  0  0  0
 33 34  1  0  0  0  0
 34 35  1  0  0  0  0
 35 36  1  0  0  0  0
 35 37  1  0  0  0  0
 10 12  1  0  0  0  0
 15 16  1  0  0  0  0
 20 21  1  0  0  0  0
 29 32  1  0  0  0  0
 31 33  1  0  0  0  0
M  END
>  <MolRegNo>
319260

>  <m>
=

>  <Value>
5300

>  <Unit>
nM

>  <Type>
IC50

>  <pValue>
5.28

>  <Ligand Efficiency>
0

>  <Binding Efficiency>
0

>  <Surface Efficiency>
0

>  <Assay Index>
237540

>  <Assay Category>


>  <Assay Organism>
Homo sapiens

>  <Target ID>
17045

>  <Target Name>
Cytochrome P450 3A4

>  <Target Organism>
Homo sapiens

>  <Target Description>
Target is a single protein chain

>  <Sequence Accession>
P08684

>  <Reference>
J Med Chem 48 (7), 2270-2273 (2005)

>  <Pubmed ID>
15801819

>  <DOI>
10.1021/jm048978k

$$$$
319604
Actelion Java MolfileCreator 1.0

 47 50  0  0  0  0  0  0  0  0999 V2000
    0.0000   -0.0000   -0.0000 S   0  0  0  0  0  0  0  0  0  0  0  0
   -1.3669   -0.6895   -0.0000 O   0  0  0  0  0  0  0  0  0  0  0  0
    1.3306    0.7016   -0.0000 O   0  0  0  0  0  0  0  0  0  0  0  0
    0.6774   -1.3427   -0.0000 N   0  0  0  0  0  0  0  0  0  0  0  0
   -0.6895    1.3306   -0.0000 C   0  0  0  0  0  0  0  0  0  0  0  0
    2.1652   -1.5846   -0.0000 C   0  0  0  0  0  0  0  0  0  0  0  0
   -0.0121   -2.6491   -0.0000 C   0  0  0  0  0  0  0  0  0  0  0  0
   -2.1894    1.5846   -0.0000 C   0  0  0  0  0  0  0  0  0  0  0  0
   -0.0242    2.6854   -0.0000 C   0  0  0  0  0  0  0  0  0  0  0  0
    2.3588   -3.0241   -0.0000 N   0  0  0  0  0  0  0  0  0  0  0  0
    3.2418   -0.5564   -0.0000 N   0  0  0  0  0  0  0  0  0  0  0  0
    1.0403   -3.7014   -0.0000 C   0  0  0  0  0  0  0  0  0  0  0  0
   -1.4515   -3.0362   -0.0000 C   0  0  0  0  0  0  0  0  0  0  0  0
   -2.4313    3.0845   -0.0000 C   0  0  0  0  0  0  0  0  0  0  0  0
   -1.1008    3.7619   -0.0000 C   0  0  0  0  0  0  0  0  0  0  0  0
    0.6411   -5.1288   -0.0000 C   0  0  0  0  0  0  0  0  0  0  0  0
   -1.8507   -4.4756   -0.0000 C   0  0  0  0  0  0  0  0  0  0  0  0
   -0.8346   -5.5038   -0.0000 C   0  0  0  0  0  0  0  0  0  0  0  0
   -3.3144   -4.8627   -0.0000 C   0  0  0  0  0  0  0  0  0  0  0  0
   -4.5361   -3.9555   -0.0000 N   0  0  0  0  0  0  0  0  0  0  0  0
   -3.8103   -6.2779   -0.0000 C   0  0  0  0  0  0  0  0  0  0  0  0
   -5.7699   -4.8143   -0.0000 C   0  0  0  0  0  0  0  0  0  0  0  0
   -5.3223   -6.2537   -0.0000 N   0  0  0  0  0  0  0  0  0  0  0  0
   -2.9999   -7.5238   -0.0000 C   0  0  0  0  0  0  0  0  0  0  0  0
   -7.2093   -4.3667   -0.0000 C   0  0  0  0  0  0  0  0  0  0  0  0
   -3.7014   -8.8544   -0.0000 C   0  0  0  0  0  0  0  0  0  0  0  0
   -1.5120   -7.4150   -0.0000 C   0  0  0  0  0  0  0  0  0  0  0  0
   -8.3343   -5.3344   -0.0000 C   0  0  0  0  0  0  0  0  0  0  0  0
   -7.5238   -2.8789   -0.0000 C   0  0  0  0  0  0  0  0  0  0  0  0
   -2.8910  -10.1124   -0.0000 C   0  0  0  0  0  0  0  0  0  0  0  0
   -0.7016   -8.6730   -0.0000 C   0  0  0  0  0  0  0  0  0  0  0  0
   -8.0319   -6.7860   -0.0000 F   0  0  0  0  0  0  0  0  0  0  0  0
   -9.7737   -4.8627   -0.0000 C   0  0  0  0  0  0  0  0  0  0  0  0
   -6.4110   -1.8628   -0.0000 F   0  0  0  0  0  0  0  0  0  0  0  0
   -8.9633   -2.3951   -0.0000 C   0  0  0  0  0  0  0  0  0  0  0  0
   -1.4032  -10.0036   -0.0000 C   0  0  0  0  0  0  0  0  0  0  0  0
  -10.0761   -3.3748   -0.0000 C   0  0  0  0  0  0  0  0  0  0  0  0
  -12.3865    3.3869   -0.0000 S   0  0  0  0  0  0  0  0  0  0  0  0
  -12.4107    1.8991   -0.0000 O   0  0  0  0  0  0  0  0  0  0  0  0
  -12.4107    4.8990   -0.0000 O   0  0  0  0  0  0  0  0  0  0  0  0
  -10.8987    3.3990   -0.0000 O   0  0  0  0  0  0  0  0  0  0  0  0
  -13.8986    3.3990   -0.0000 C   0  0  0  0  0  0  0  0  0  0  0  0
    7.2577   -7.8383   -0.0000 S   0  0  0  0  0  0  0  0  0  0  0  0
    7.2335   -9.3262   -0.0000 O   0  0  0  0  0  0  0  0  0  0  0  0
    7.2335   -6.3263   -0.0000 O   0  0  0  0  0  0  0  0  0  0  0  0
    8.7456   -7.8263   -0.0000 O   0  0  0  0  0  0  0  0  0  0  0  0
    5.7457   -7.8263   -0.0000 C   0  0  0  0  0  0  0  0  0  0  0  0
  1  2  2  0  0  0  0
  1  3  2  0  0  0  0
  1  4  1  0  0  0  0
  1  5  1  0  0  0  0
  4  6  1  0  0  0  0
  4  7  1  0  0  0  0
  5  8  1  0  0  0  0
  5  9  1  0  0  0  0
  6 10  2  0  0  0  0
  6 11  1  0  0  0  0
  7 12  2  0  0  0  0
  7 13  1  0  0  0  0
  8 14  1  0  0  0  0
  9 15  1  0  0  0  0
 12 16  1  0  0  0  0
 13 17  2  0  0  0  0
 16 18  2  0  0  0  0
 17 19  1  0  0  0  0
 19 20  1  0  0  0  0
 19 21  2  0  0  0  0
 20 22  1  0  0  0  0
 21 23  1  0  0  0  0
 21 24  1  0  0  0  0
 22 25  1  0  0  0  0
 24 26  2  0  0  0  0
 24 27  1  0  0  0  0
 25 28  2  0  0  0  0
 25 29  1  0  0  0  0
 26 30  1  0  0  0  0
 27 31  2  0  0  0  0
 28 32  1  0  0  0  0
 28 33  1  0  0  0  0
 29 34  1  0  0  0  0
 29 35  2  0  0  0  0
 30 36  2  0  0  0  0
 33 37  2  0  0  0  0
 38 39  2  0  0  0  0
 38 40  2  0  0  0  0
 38 41  1  0  0  0  0
 38 42  1  0  0  0  0
 43 44  2  0  0  0  0
 43 45  2  0  0  0  0
 43 46  1  0  0  0  0
 43 47  1  0  0  0  0
 10 12  1  0  0  0  0
 14 15  1  0  0  0  0
 17 18  1  0  0  0  0
 22 23  2  0  0  0  0
 31 36  1  0  0  0  0
 35 37  1  0  0  0  0
M  END
>  <MolRegNo>
319604

>  <m>
=

>  <Value>
13000

>  <Unit>
nM

>  <Type>
IC50

>  <pValue>
4.89

>  <Ligand Efficiency>
0

>  <Binding Efficiency>
0

>  <Surface Efficiency>
0

>  <Assay Index>
237540

>  <Assay Category>


>  <Assay Organism>
Homo sapiens

>  <Target ID>
17045

>  <Target Name>
Cytochrome P450 3A4

>  <Target Organism>
Homo sapiens

>  <Target Description>
Target is a single protein chain

>  <Sequence Accession>
P08684

>  <Reference>
J Med Chem 48 (7), 2270-2273 (2005)

>  <Pubmed ID>
15801819

>  <DOI>
10.1021/jm048978k

$$$$
322912
Actelion Java MolfileCreator 1.0

 32 35  0  0  0  0  0  0  0  0999 V2000
    0.0000   -0.0000   -0.0000 F   0  0  0  0  0  0  0  0  0  0  0  0
    1.2859   -0.7501   -0.0000 C   0  0  0  0  0  0  0  0  0  0  0  0
    1.2859   -2.2384   -0.0000 C   0  0  0  0  0  0  0  0  0  0  0  0
    2.5837    0.0119   -0.0000 C   0  0  0  0  0  0  0  0  0  0  0  0
   -0.0238   -2.9766   -0.0000 N   0  0  0  0  0  0  0  0  0  0  0  0
    2.5837   -2.9766   -0.0000 C   0  0  0  0  0  0  0  0  0  0  0  0
    3.8815   -0.7263   -0.0000 C   0  0  0  0  0  0  0  0  0  0  0  0
   -0.0238   -4.4649   -0.0000 C   0  0  0  0  0  0  0  0  0  0  0  0
    3.8696   -2.2146   -0.0000 C   0  0  0  0  0  0  0  0  0  0  0  0
    5.1674    0.0357   -0.0000 F   0  0  0  0  0  0  0  0  0  0  0  0
    1.2621   -5.2031   -0.0000 N   0  0  0  0  0  0  0  0  0  0  0  0
   -1.3335   -5.2150   -0.0000 C   0  0  0  0  0  0  0  0  0  0  0  0
    5.1555   -2.9528   -0.0000 C   0  0  0  0  0  0  0  0  0  0  0  0
    1.2502   -6.7033   -0.0000 C   0  0  0  0  0  0  0  0  0  0  0  0
   -1.3454   -6.7033   -0.0000 N   0  0  0  0  0  0  0  0  0  0  0  0
   -2.7861   -4.7387   -0.0000 C   0  0  0  0  0  0  0  0  0  0  0  0
    5.1436   -4.4411   -0.0000 O   0  0  0  0  0  0  0  0  0  0  0  0
    6.4414   -2.1908   -0.0000 N   0  0  0  0  0  0  0  0  0  0  0  0
   -0.0595   -7.4415   -0.0000 N   0  0  0  0  0  0  0  0  0  0  0  0
   -2.7980   -7.1438   -0.0000 C   0  0  0  0  0  0  0  0  0  0  0  0
   -3.6672   -5.9413   -0.0000 C   0  0  0  0  0  0  0  0  0  0  0  0
   -3.2504   -3.2862   -0.0000 C   0  0  0  0  0  0  0  0  0  0  0  0
    7.7392   -2.9290   -0.0000 O   0  0  0  0  0  0  0  0  0  0  0  0
   -5.1793   -5.9175   -0.0000 C   0  0  0  0  0  0  0  0  0  0  0  0
   -2.2622   -2.1551   -0.0000 C   0  0  0  0  0  0  0  0  0  0  0  0
   -4.7268   -2.9647   -0.0000 C   0  0  0  0  0  0  0  0  0  0  0  0
    9.0250   -2.1670   -0.0000 C   0  0  0  0  0  0  0  0  0  0  0  0
   -6.0961   -7.1200   -0.0000 O   0  0  0  0  0  0  0  0  0  0  0  0
   -6.0961   -4.6792   -0.0000 N   0  0  0  0  0  0  0  0  0  0  0  0
   -7.5486   -6.6438   -0.0000 C   0  0  0  0  0  0  0  0  0  0  0  0
   -7.5248   -5.1436   -0.0000 C   0  0  0  0  0  0  0  0  0  0  0  0
   -8.7631   -7.5010   -0.0000 C   0  0  0  0  0  0  0  0  0  0  0  0
  1  2  1  0  0  0  0
  2  3  2  0  0  0  0
  2  4  1  0  0  0  0
  3  5  1  0  0  0  0
  3  6  1  0  0  0  0
  4  7  2  0  0  0  0
  5  8  1  0  0  0  0
  6  9  2  0  0  0  0
  7 10  1  0  0  0  0
  8 11  2  0  0  0  0
  8 12  1  0  0  0  0
  9 13  1  0  0  0  0
 11 14  1  0  0  0  0
 12 15  1  0  0  0  0
 12 16  2  0  0  0  0
 13 17  2  0  0  0  0
 13 18  1  0  0  0  0
 14 19  2  0  0  0  0
 15 20  1  0  0  0  0
 16 21  1  0  0  0  0
 16 22  1  0  0  0  0
 18 23  1  0  0  0  0
 21 24  1  0  0  0  0
 22 25  1  0  0  0  0
 22 26  1  0  0  0  0
 23 27  1  0  0  0  0
 24 28  1  0  0  0  0
 24 29  2  0  0  0  0
 28 30  1  0  0  0  0
 29 31  1  0  0  0  0
 30 32  1  0  0  0  0
  7  9  1  0  0  0  0
 15 19  1  0  0  0  0
 20 21  2  0  0  0  0
 30 31  2  0  0  0  0
M  END
>  <MolRegNo>
322912

>  <m>
=

>  <Value>
5100

>  <Unit>
nM

>  <Type>
IC50

>  <pValue>
5.29

>  <Ligand Efficiency>
0

>  <Binding Efficiency>
0

>  <Surface Efficiency>
0

>  <Assay Index>
244452

>  <Assay Category>


>  <Assay Organism>
Homo sapiens

>  <Target ID>
17045

>  <Target Name>
Cytochrome P450 3A4

>  <Target Organism>
Homo sapiens

>  <Target Description>
Target is a single protein chain

>  <Sequence Accession>
P08684

>  <Reference>
J Med Chem 48 (12), 3991-4008 (2005)

>  <Pubmed ID>
15943473

>  <DOI>
10.1021/jm0501275

$$$$
369710
Actelion Java MolfileCreator 1.0

 26 28  0  0  0  0  0  0  0  0999 V2000
    0.0000   -0.0000   -0.0000 Cl  0  0  0  0  0  0  0  0  0  0  0  0
    1.2811    0.7592   -0.0000 C   0  0  0  0  0  0  0  0  0  0  0  0
    1.2692    2.2657   -0.0000 C   0  0  0  0  0  0  0  0  0  0  0  0
    2.5741    0.0237   -0.0000 C   0  0  0  0  0  0  0  0  0  0  0  0
    2.5503    3.0248   -0.0000 C   0  0  0  0  0  0  0  0  0  0  0  0
    3.8670    0.7948   -0.0000 C   0  0  0  0  0  0  0  0  0  0  0  0
    2.5385    4.5313   -0.0000 C   0  0  0  0  0  0  0  0  0  0  0  0
    3.8314    2.3012   -0.0000 C   0  0  0  0  0  0  0  0  0  0  0  0
    1.2337    5.2905   -0.0000 C   0  0  0  0  0  0  0  0  0  0  0  0
    3.8196    5.2905   -0.0000 C   0  0  0  0  0  0  0  0  0  0  0  0
    5.1125    3.0723   -0.0000 O   0  0  0  0  0  0  0  0  0  0  0  0
    1.2218    6.8088   -0.0000 C   0  0  0  0  0  0  0  0  0  0  0  0
   -0.0712    4.5432   -0.0000 C   0  0  0  0  0  0  0  0  0  0  0  0
    3.7959    6.8088   -0.0000 C   0  0  0  0  0  0  0  0  0  0  0  0
    5.1125    4.5550   -0.0000 C   0  0  0  0  0  0  0  0  0  0  0  0
    2.5029    7.5680   -0.0000 N   0  0  0  0  0  0  0  0  0  0  0  0
   -0.0830    7.5680   -0.0000 C   0  0  0  0  0  0  0  0  0  0  0  0
   -1.3760    5.3023   -0.0000 C   0  0  0  0  0  0  0  0  0  0  0  0
    5.0770    7.5799   -0.0000 O   0  0  0  0  0  0  0  0  0  0  0  0
    6.3936    5.3261   -0.0000 C   0  0  0  0  0  0  0  0  0  0  0  0
   -1.3879    6.8325   -0.0000 C   0  0  0  0  0  0  0  0  0  0  0  0
   -2.6808    4.5669   -0.0000 C   0  0  0  0  0  0  0  0  0  0  0  0
    7.6866    4.5906   -0.0000 O   0  0  0  0  0  0  0  0  0  0  0  0
   -3.9975    3.8433   -0.0000 F   0  0  0  0  0  0  0  0  0  0  0  0
   -1.9454    3.2739   -0.0000 F   0  0  0  0  0  0  0  0  0  0  0  0
   -3.4281    5.8836   -0.0000 F   0  0  0  0  0  0  0  0  0  0  0  0
  1  2  1  0  0  0  0
  2  3  2  0  0  0  0
  2  4  1  0  0  0  0
  3  5  1  0  0  0  0
  4  6  2  0  0  0  0
  5  7  1  0  0  0  0
  5  8  2  0  0  0  0
  7  9  1  0  0  0  0
  7 10  2  0  0  0  0
  8 11  1  0  0  0  0
  9 12  2  0  0  0  0
  9 13  1  0  0  0  0
 10 14  1  0  0  0  0
 10 15  1  0  0  0  0
 12 16  1  0  0  0  0
 12 17  1  0  0  0  0
 13 18  2  0  0  0  0
 14 19  2  0  0  0  0
 15 20  1  0  0  0  0
 17 21  2  0  0  0  0
 18 22  1  0  0  0  0
 20 23  1  0  0  0  0
 22 24  1  0  0  0  0
 22 25  1  0  0  0  0
 22 26  1  0  0  0  0
  6  8  1  0  0  0  0
 14 16  1  0  0  0  0
 18 21  1  0  0  0  0
M  END
>  <MolRegNo>
369710

>  <m>
=

>  <Value>
8100

>  <Unit>
nM

>  <Type>
IC50

>  <pValue>
5.09

>  <Ligand Efficiency>
0

>  <Binding Efficiency>
0

>  <Surface Efficiency>
0

>  <Assay Index>
251933

>  <Assay Category>


>  <Assay Organism>
Homo sapiens

>  <Target ID>
17045

>  <Target Name>
Cytochrome P450 3A4

>  <Target Organism>
Homo sapiens

>  <Target Description>
Target is a single protein chain

>  <Sequence Accession>
P08684

>  <Reference>
Bioorg Med Chem Lett 15 (19), 4286-4290 (2005)

>  <Pubmed ID>
16061379

>  <DOI>
10.1016/j.bmcl.2005.06.056

$$$$
327431
Actelion Java MolfileCreator 1.0

 29 31  0  0  0  0  0  0  0  0999 V2000
    0.0000   -0.0000   -0.0000 Cl  0  0  0  0  0  0  0  0  0  0  0  0
    1.2895    0.7808   -0.0000 C   0  0  0  0  0  0  0  0  0  0  0  0
    1.2777    2.2832   -0.0000 C   0  0  0  0  0  0  0  0  0  0  0  0
    2.5790    0.0473   -0.0000 C   0  0  0  0  0  0  0  0  0  0  0  0
    2.5672    3.0404   -0.0000 C   0  0  0  0  0  0  0  0  0  0  0  0
    3.8567    0.8045   -0.0000 C   0  0  0  0  0  0  0  0  0  0  0  0
    2.5553    4.5546   -0.0000 C   0  0  0  0  0  0  0  0  0  0  0  0
    3.8448    2.3069   -0.0000 C   0  0  0  0  0  0  0  0  0  0  0  0
    1.2540    5.3118   -0.0000 C   0  0  0  0  0  0  0  0  0  0  0  0
    3.8448    5.3118   -0.0000 C   0  0  0  0  0  0  0  0  0  0  0  0
    5.1343    3.0877   -0.0000 O   0  0  0  0  0  0  0  0  0  0  0  0
    1.2422    6.8142   -0.0000 C   0  0  0  0  0  0  0  0  0  0  0  0
   -0.0473    4.5783   -0.0000 C   0  0  0  0  0  0  0  0  0  0  0  0
    3.8212    6.8142   -0.0000 C   0  0  0  0  0  0  0  0  0  0  0  0
    5.1343    4.5901   -0.0000 C   0  0  0  0  0  0  0  0  0  0  0  0
    2.5198    7.5713   -0.0000 N   0  0  0  0  0  0  0  0  0  0  0  0
   -0.0592    7.5713   -0.0000 C   0  0  0  0  0  0  0  0  0  0  0  0
   -1.3605    5.3354   -0.0000 C   0  0  0  0  0  0  0  0  0  0  0  0
    5.1225    7.5713   -0.0000 O   0  0  0  0  0  0  0  0  0  0  0  0
    6.3647    5.4301   -0.0000 C   0  0  0  0  0  0  0  0  0  0  0  0
    2.5080    9.0738   -0.0000 C   0  0  0  0  0  0  0  0  0  0  0  0
   -1.3723    6.8379   -0.0000 C   0  0  0  0  0  0  0  0  0  0  0  0
   -2.6736    4.5901   -0.0000 C   0  0  0  0  0  0  0  0  0  0  0  0
    7.6896    4.7794   -0.0000 O   0  0  0  0  0  0  0  0  0  0  0  0
    3.5491   10.1503   -0.0000 C   0  0  0  0  0  0  0  0  0  0  0  0
   -1.9283    3.2888   -0.0000 F   0  0  0  0  0  0  0  0  0  0  0  0
   -3.9986    3.8330   -0.0000 F   0  0  0  0  0  0  0  0  0  0  0  0
   -3.4544    5.9033   -0.0000 F   0  0  0  0  0  0  0  0  0  0  0  0
    4.5901   11.2269   -0.0000 N   0  0  0  0  0  0  0  0  0  0  0  0
  1  2  1  0  0  0  0
  2  3  2  0  0  0  0
  2  4  1  0  0  0  0
  3  5  1  0  0  0  0
  4  6  2  0  0  0  0
  5  7  1  0  0  0  0
  5  8  2  0  0  0  0
  7  9  1  0  0  0  0
  7 10  2  0  0  0  0
  8 11  1  0  0  0  0
  9 12  2  0  0  0  0
  9 13  1  0  0  0  0
 10 14  1  0  0  0  0
 10 15  1  0  0  0  0
 12 16  1  0  0  0  0
 12 17  1  0  0  0  0
 13 18  2  0  0  0  0
 14 19  2  0  0  0  0
 15 20  1  0  0  0  0
 16 21  1  0  0  0  0
 17 22  2  0  0  0  0
 18 23  1  0  0  0  0
 20 24  1  0  0  0  0
 21 25  1  0  0  0  0
 23 26  1  0  0  0  0
 23 27  1  0  0  0  0
 23 28  1  0  0  0  0
 25 29  3  0  0  0  0
  6  8  1  0  0  0  0
 14 16  1  0  0  0  0
 18 22  1  0  0  0  0
M  END
>  <MolRegNo>
327431

>  <m>
=

>  <Value>
13000

>  <Unit>
nM

>  <Type>
IC50

>  <pValue>
4.89

>  <Ligand Efficiency>
0

>  <Binding Efficiency>
0

>  <Surface Efficiency>
0

>  <Assay Index>
251940

>  <Assay Category>


>  <Assay Organism>
Homo sapiens

>  <Target ID>
17045

>  <Target Name>
Cytochrome P450 3A4

>  <Target Organism>
Homo sapiens

>  <Target Description>
Target is a single protein chain

>  <Sequence Accession>
P08684

>  <Reference>
Bioorg Med Chem Lett 15 (19), 4286-4290 (2005)

>  <Pubmed ID>
16061379

>  <DOI>
10.1016/j.bmcl.2005.06.056

$$$$
327436
Actelion Java MolfileCreator 1.0

 30 32  0  0  0  0  0  0  0  0999 V2000
    0.0000   -0.0000   -0.0000 Cl  0  0  0  0  0  0  0  0  0  0  0  0
    1.2983    0.7742   -0.0000 C   0  0  0  0  0  0  0  0  0  0  0  0
    1.2864    2.2869   -0.0000 C   0  0  0  0  0  0  0  0  0  0  0  0
    2.5846    0.0357   -0.0000 C   0  0  0  0  0  0  0  0  0  0  0  0
    2.5727    3.0492   -0.0000 C   0  0  0  0  0  0  0  0  0  0  0  0
    3.8710    0.7980   -0.0000 C   0  0  0  0  0  0  0  0  0  0  0  0
    2.5608    4.5737   -0.0000 C   0  0  0  0  0  0  0  0  0  0  0  0
    3.8591    2.3107   -0.0000 C   0  0  0  0  0  0  0  0  0  0  0  0
    1.2506    5.3360   -0.0000 C   0  0  0  0  0  0  0  0  0  0  0  0
    3.8591    5.3360   -0.0000 C   0  0  0  0  0  0  0  0  0  0  0  0
    5.1097    2.8229   -0.0000 O   0  0  0  0  0  0  0  0  0  0  0  0
    1.2387    6.8487   -0.0000 C   0  0  0  0  0  0  0  0  0  0  0  0
   -0.0596    4.5976   -0.0000 C   0  0  0  0  0  0  0  0  0  0  0  0
    3.8353    6.8487   -0.0000 C   0  0  0  0  0  0  0  0  0  0  0  0
    5.2884    4.9668   -0.0000 C   0  0  0  0  0  0  0  0  0  0  0  0
    2.5251    7.6110   -0.0000 N   0  0  0  0  0  0  0  0  0  0  0  0
   -0.0715    7.6110   -0.0000 C   0  0  0  0  0  0  0  0  0  0  0  0
   -1.3697    5.3599   -0.0000 C   0  0  0  0  0  0  0  0  0  0  0  0
    5.1216    7.6110   -0.0000 O   0  0  0  0  0  0  0  0  0  0  0  0
    6.6700    5.4909   -0.0000 C   0  0  0  0  0  0  0  0  0  0  0  0
    2.5132    9.1237   -0.0000 C   0  0  0  0  0  0  0  0  0  0  0  0
   -1.3817    6.8606   -0.0000 C   0  0  0  0  0  0  0  0  0  0  0  0
   -2.6918    4.5976   -0.0000 C   0  0  0  0  0  0  0  0  0  0  0  0
    7.8135    4.5380   -0.0000 O   0  0  0  0  0  0  0  0  0  0  0  0
    3.3588   10.3624   -0.0000 C   0  0  0  0  0  0  0  0  0  0  0  0
   -4.0020    3.8472   -0.0000 F   0  0  0  0  0  0  0  0  0  0  0  0
   -3.4660    5.9197   -0.0000 F   0  0  0  0  0  0  0  0  0  0  0  0
   -1.9295    3.2993   -0.0000 F   0  0  0  0  0  0  0  0  0  0  0  0
    2.7276   11.7321   -0.0000 O   0  0  0  0  0  0  0  0  0  0  0  0
    4.8477   10.2433   -0.0000 N   0  0  0  0  0  0  0  0  0  0  0  0
  1  2  1  0  0  0  0
  2  3  2  0  0  0  0
  2  4  1  0  0  0  0
  3  5  1  0  0  0  0
  4  6  2  0  0  0  0
  5  7  1  0  0  0  0
  5  8  2  0  0  0  0
  7  9  1  0  0  0  0
  7 10  2  0  0  0  0
  8 11  1  0  0  0  0
  9 12  2  0  0  0  0
  9 13  1  0  0  0  0
 10 14  1  0  0  0  0
 10 15  1  0  0  0  0
 12 16  1  0  0  0  0
 12 17  1  0  0  0  0
 13 18  2  0  0  0  0
 14 19  2  0  0  0  0
 15 20  1  0  0  0  0
 16 21  1  0  0  0  0
 17 22  2  0  0  0  0
 18 23  1  0  0  0  0
 20 24  1  0  0  0  0
 21 25  1  0  0  0  0
 23 26  1  0  0  0  0
 23 27  1  0  0  0  0
 23 28  1  0  0  0  0
 25 29  2  0  0  0  0
 25 30  1  0  0  0  0
  6  8  1  0  0  0  0
 14 16  1  0  0  0  0
 18 22  1  0  0  0  0
M  END
>  <MolRegNo>
327436

>  <m>
=

>  <Value>
26000

>  <Unit>
nM

>  <Type>
IC50

>  <pValue>
4.58

>  <Ligand Efficiency>
0

>  <Binding Efficiency>
0

>  <Surface Efficiency>
0

>  <Assay Index>
251940

>  <Assay Category>


>  <Assay Organism>
Homo sapiens

>  <Target ID>
17045

>  <Target Name>
Cytochrome P450 3A4

>  <Target Organism>
Homo sapiens

>  <Target Description>
Target is a single protein chain

>  <Sequence Accession>
P08684

>  <Reference>
Bioorg Med Chem Lett 15 (19), 4286-4290 (2005)

>  <Pubmed ID>
16061379

>  <DOI>
10.1016/j.bmcl.2005.06.056

$$$$
327441
Actelion Java MolfileCreator 1.0

 32 35  0  0  0  0  0  0  0  0999 V2000
    0.0000   -0.0000   -0.0000 Cl  0  0  0  0  0  0  0  0  0  0  0  0
    1.2990    0.7746   -0.0000 C   0  0  0  0  0  0  0  0  0  0  0  0
    1.2871    2.3001   -0.0000 C   0  0  0  0  0  0  0  0  0  0  0  0
    2.5861    0.0358   -0.0000 C   0  0  0  0  0  0  0  0  0  0  0  0
    2.5742    3.0628   -0.0000 C   0  0  0  0  0  0  0  0  0  0  0  0
    3.8732    0.7985   -0.0000 C   0  0  0  0  0  0  0  0  0  0  0  0
    2.5623    4.5764   -0.0000 C   0  0  0  0  0  0  0  0  0  0  0  0
    3.8613    2.3239   -0.0000 C   0  0  0  0  0  0  0  0  0  0  0  0
    1.2513    5.3391   -0.0000 C   0  0  0  0  0  0  0  0  0  0  0  0
    3.8613    5.3391   -0.0000 C   0  0  0  0  0  0  0  0  0  0  0  0
    5.1127    2.8364   -0.0000 O   0  0  0  0  0  0  0  0  0  0  0  0
    1.2394    6.8526   -0.0000 C   0  0  0  0  0  0  0  0  0  0  0  0
   -0.0596    4.6002   -0.0000 C   0  0  0  0  0  0  0  0  0  0  0  0
    3.8375    6.8526   -0.0000 C   0  0  0  0  0  0  0  0  0  0  0  0
    5.2914    4.9696   -0.0000 C   0  0  0  0  0  0  0  0  0  0  0  0
    2.5265    7.6153   -0.0000 N   0  0  0  0  0  0  0  0  0  0  0  0
   -0.0715    7.6153   -0.0000 C   0  0  0  0  0  0  0  0  0  0  0  0
   -1.3705    5.3629   -0.0000 C   0  0  0  0  0  0  0  0  0  0  0  0
    5.1246    7.6153   -0.0000 O   0  0  0  0  0  0  0  0  0  0  0  0
    6.6858    5.5059   -0.0000 C   0  0  0  0  0  0  0  0  0  0  0  0
    2.5384    9.1289   -0.0000 C   0  0  0  0  0  0  0  0  0  0  0  0
   -1.3824    6.8765   -0.0000 C   0  0  0  0  0  0  0  0  0  0  0  0
   -2.6934    4.6121   -0.0000 C   0  0  0  0  0  0  0  0  0  0  0  0
    7.8060    4.5406   -0.0000 O   0  0  0  0  0  0  0  0  0  0  0  0
    3.8375    9.8916   -0.0000 C   0  0  0  0  0  0  0  0  0  0  0  0
   -4.0043    3.8613   -0.0000 F   0  0  0  0  0  0  0  0  0  0  0  0
   -3.4680    5.9350   -0.0000 F   0  0  0  0  0  0  0  0  0  0  0  0
   -1.9307    3.3250   -0.0000 F   0  0  0  0  0  0  0  0  0  0  0  0
    3.9924   11.4051   -0.0000 N   0  0  0  0  0  0  0  0  0  0  0  0
    5.1842    9.2957   -0.0000 N   0  0  0  0  0  0  0  0  0  0  0  0
    5.4463   11.7150   -0.0000 N   0  0  0  0  0  0  0  0  0  0  0  0
    6.1733   10.4160   -0.0000 N   0  0  0  0  0  0  0  0  0  0  0  0
  1  2  1  0  0  0  0
  2  3  2  0  0  0  0
  2  4  1  0  0  0  0
  3  5  1  0  0  0  0
  4  6  2  0  0  0  0
  5  7  1  0  0  0  0
  5  8  2  0  0  0  0
  7  9  1  0  0  0  0
  7 10  2  0  0  0  0
  8 11  1  0  0  0  0
  9 12  2  0  0  0  0
  9 13  1  0  0  0  0
 10 14  1  0  0  0  0
 10 15  1  0  0  0  0
 12 16  1  0  0  0  0
 12 17  1  0  0  0  0
 13 18  2  0  0  0  0
 14 19  2  0  0  0  0
 15 20  1  0  0  0  0
 16 21  1  0  0  0  0
 17 22  2  0  0  0  0
 18 23  1  0  0  0  0
 20 24  1  0  0  0  0
 21 25  1  0  0  0  0
 23 26  1  0  0  0  0
 23 27  1  0  0  0  0
 23 28  1  0  0  0  0
 25 29  1  0  0  0  0
 25 30  2  0  0  0  0
 29 31  2  0  0  0  0
 30 32  1  0  0  0  0
  6  8  1  0  0  0  0
 14 16  1  0  0  0  0
 18 22  1  0  0  0  0
 31 32  1  0  0  0  0
M  END
>  <MolRegNo>
327441

>  <m>
=

>  <Value>
30000

>  <Unit>
nM

>  <Type>
IC50

>  <pValue>
4.52

>  <Ligand Efficiency>
0

>  <Binding Efficiency>
0

>  <Surface Efficiency>
0

>  <Assay Index>
251940

>  <Assay Category>


>  <Assay Organism>
Homo sapiens

>  <Target ID>
17045

>  <Target Name>
Cytochrome P450 3A4

>  <Target Organism>
Homo sapiens

>  <Target Description>
Target is a single protein chain

>  <Sequence Accession>
P08684

>  <Reference>
Bioorg Med Chem Lett 15 (19), 4286-4290 (2005)

>  <Pubmed ID>
16061379

>  <DOI>
10.1016/j.bmcl.2005.06.056

$$$$
424433
Actelion Java MolfileCreator 1.0

 34 38  0  0  0  0  0  0  0  0999 V2000
    0.0000   -0.0000   -0.0000 Cl  0  0  0  0  0  0  0  0  0  0  0  0
   -1.3081   -0.7425   -0.0000 C   0  0  0  0  0  0  0  0  0  0  0  0
   -2.6163    0.0236   -0.0000 C   0  0  0  0  0  0  0  0  0  0  0  0
   -1.3199   -2.2156   -0.0000 C   0  0  0  0  0  0  0  0  0  0  0  0
   -3.9244   -0.7189   -0.0000 C   0  0  0  0  0  0  0  0  0  0  0  0
   -2.6281   -2.9580   -0.0000 C   0  0  0  0  0  0  0  0  0  0  0  0
   -3.9362   -2.1920   -0.0000 C   0  0  0  0  0  0  0  0  0  0  0  0
   -5.2326    0.0471   -0.0000 C   0  0  0  0  0  0  0  0  0  0  0  0
   -6.5407   -0.6953   -0.0000 O   0  0  0  0  0  0  0  0  0  0  0  0
   -5.2444    1.5556   -0.0000 C   0  0  0  0  0  0  0  0  0  0  0  0
   -6.5407    2.3099   -0.0000 N   0  0  0  0  0  0  0  0  0  0  0  0
   -6.5525    3.8066   -0.0000 C   0  0  0  0  0  0  0  0  0  0  0  0
   -7.8606    4.5726   -0.0000 C   0  0  0  0  0  0  0  0  0  0  0  0
   -5.2679    4.5726   -0.0000 C   0  0  0  0  0  0  0  0  0  0  0  0
   -7.8724    6.0693   -0.0000 C   0  0  0  0  0  0  0  0  0  0  0  0
   -9.1688    3.8301   -0.0000 C   0  0  0  0  0  0  0  0  0  0  0  0
   -5.2797    6.0693   -0.0000 C   0  0  0  0  0  0  0  0  0  0  0  0
   -9.1806    6.8353   -0.0000 O   0  0  0  0  0  0  0  0  0  0  0  0
   -6.5878    6.8353   -0.0000 N   0  0  0  0  0  0  0  0  0  0  0  0
   -9.3338    2.3570   -0.0000 N   0  0  0  0  0  0  0  0  0  0  0  0
  -10.5476    4.4430   -0.0000 N   0  0  0  0  0  0  0  0  0  0  0  0
  -10.8069    2.0624   -0.0000 C   0  0  0  0  0  0  0  0  0  0  0  0
  -11.5611    3.3470   -0.0000 C   0  0  0  0  0  0  0  0  0  0  0  0
  -11.5729    0.7778   -0.0000 C   0  0  0  0  0  0  0  0  0  0  0  0
  -13.0578    3.3587   -0.0000 C   0  0  0  0  0  0  0  0  0  0  0  0
  -13.0696    0.7896   -0.0000 C   0  0  0  0  0  0  0  0  0  0  0  0
  -10.8305   -0.5068   -0.0000 C   0  0  0  0  0  0  0  0  0  0  0  0
  -13.8239    2.0742   -0.0000 C   0  0  0  0  0  0  0  0  0  0  0  0
  -15.3206    2.0860   -0.0000 N   0  0  0  0  0  0  0  0  0  0  0  0
  -16.0866    0.8014   -0.0000 C   0  0  0  0  0  0  0  0  0  0  0  0
  -16.0866    3.3941   -0.0000 C   0  0  0  0  0  0  0  0  0  0  0  0
  -17.5833    0.8132   -0.0000 C   0  0  0  0  0  0  0  0  0  0  0  0
  -17.5833    3.4059   -0.0000 C   0  0  0  0  0  0  0  0  0  0  0  0
  -18.3493    2.1213   -0.0000 O   0  0  0  0  0  0  0  0  0  0  0  0
  1  2  1  0  0  0  0
  2  3  2  0  0  0  0
  2  4  1  0  0  0  0
  3  5  1  0  0  0  0
  4  6  2  0  0  0  0
  5  7  2  0  0  0  0
  5  8  1  0  0  0  0
  8  9  1  1  0  0  0
  8 10  1  0  0  0  0
 10 11  1  0  0  0  0
 11 12  1  0  0  0  0
 12 13  2  0  0  0  0
 12 14  1  0  0  0  0
 13 15  1  0  0  0  0
 13 16  1  0  0  0  0
 14 17  2  0  0  0  0
 15 18  2  0  0  0  0
 15 19  1  0  0  0  0
 16 20  2  0  0  0  0
 16 21  1  0  0  0  0
 20 22  1  0  0  0  0
 21 23  1  0  0  0  0
 22 24  1  0  0  0  0
 23 25  1  0  0  0  0
 24 26  2  0  0  0  0
 24 27  1  0  0  0  0
 25 28  2  0  0  0  0
 28 29  1  0  0  0  0
 29 30  1  0  0  0  0
 29 31  1  0  0  0  0
 30 32  1  0  0  0  0
 31 33  1  0  0  0  0
 32 34  1  0  0  0  0
  6  7  1  0  0  0  0
 17 19  1  0  0  0  0
 22 23  2  0  0  0  0
 26 28  1  0  0  0  0
 33 34  1  0  0  0  0
M  END
>  <MolRegNo>
424433

>  <m>
=

>  <Value>
500

>  <Unit>
nM

>  <Type>
IC50

>  <pValue>
6.3

>  <Ligand Efficiency>
0

>  <Binding Efficiency>
0

>  <Surface Efficiency>
0

>  <Assay Index>
251860

>  <Assay Category>


>  <Assay Organism>
Homo sapiens

>  <Target ID>
17045

>  <Target Name>
Cytochrome P450 3A4

>  <Target Organism>
Homo sapiens

>  <Target Description>
Target is a single protein chain

>  <Sequence Accession>
P08684

>  <Reference>
J Med Chem 48 (18), 5639-5643 (2005)

>  <Pubmed ID>
16134929

>  <DOI>
10.1021/jm050392q

$$$$
328293
Actelion Java MolfileCreator 1.0

 25 27  0  0  0  0  0  0  0  0999 V2000
    0.0000   -0.0000   -0.0000 F   0  0  0  0  0  0  0  0  0  0  0  0
   -1.3203    0.7613   -0.0000 C   0  0  0  0  0  0  0  0  0  0  0  0
   -2.6287    0.0238   -0.0000 C   0  0  0  0  0  0  0  0  0  0  0  0
   -1.3322    2.2838   -0.0000 C   0  0  0  0  0  0  0  0  0  0  0  0
   -2.6287   -1.4630   -0.0000 C   0  0  0  0  0  0  0  0  0  0  0  0
   -3.9490    0.7850   -0.0000 C   0  0  0  0  0  0  0  0  0  0  0  0
   -2.6644    3.0450   -0.0000 C   0  0  0  0  0  0  0  0  0  0  0  0
   -3.9371   -2.2005   -0.0000 C   0  0  0  0  0  0  0  0  0  0  0  0
   -1.3322   -2.2005   -0.0000 C   0  0  0  0  0  0  0  0  0  0  0  0
   -3.9728    2.2838   -0.0000 C   0  0  0  0  0  0  0  0  0  0  0  0
   -2.7001    4.5556   -0.0000 C   0  0  0  0  0  0  0  0  0  0  0  0
   -3.9371   -3.6873   -0.0000 C   0  0  0  0  0  0  0  0  0  0  0  0
   -1.3441   -3.6754   -0.0000 C   0  0  0  0  0  0  0  0  0  0  0  0
   -1.4155    5.3288   -0.0000 C   0  0  0  0  0  0  0  0  0  0  0  0
   -4.0085    5.3050   -0.0000 C   0  0  0  0  0  0  0  0  0  0  0  0
   -2.6525   -4.4248   -0.0000 C   0  0  0  0  0  0  0  0  0  0  0  0
   -0.1189    4.6032   -0.0000 O   0  0  0  0  0  0  0  0  0  0  0  0
   -1.4392    6.8394   -0.0000 O   0  0  0  0  0  0  0  0  0  0  0  0
   -2.6525   -5.9116   -0.0000 C   0  0  0  0  0  0  0  0  0  0  0  0
   -3.9490   -6.6491   -0.0000 C   0  0  0  0  0  0  0  0  0  0  0  0
   -1.3560   -6.6253   -0.0000 C   0  0  0  0  0  0  0  0  0  0  0  0
   -3.9609   -8.1359   -0.0000 C   0  0  0  0  0  0  0  0  0  0  0  0
   -1.3441   -8.1121   -0.0000 C   0  0  0  0  0  0  0  0  0  0  0  0
   -2.6644   -8.8734   -0.0000 C   0  0  0  0  0  0  0  0  0  0  0  0
   -2.6644  -10.3602   -0.0000 O   0  0  0  0  0  0  0  0  0  0  0  0
  1  2  1  0  0  0  0
  2  3  2  0  0  0  0
  2  4  1  0  0  0  0
  3  5  1  0  0  0  0
  3  6  1  0  0  0  0
  4  7  2  0  0  0  0
  5  8  2  0  0  0  0
  5  9  1  0  0  0  0
  6 10  2  0  0  0  0
  7 11  1  0  0  0  0
  8 12  1  0  0  0  0
  9 13  2  0  0  0  0
 11 14  1  0  0  0  0
 11 15  1  0  0  0  0
 12 16  2  0  0  0  0
 14 17  2  0  0  0  0
 14 18  1  0  0  0  0
 16 19  1  0  0  0  0
 19 20  2  0  0  0  0
 19 21  1  0  0  0  0
 20 22  1  0  0  0  0
 21 23  2  0  0  0  0
 22 24  2  0  0  0  0
 24 25  1  0  0  0  0
  7 10  1  0  0  0  0
 13 16  1  0  0  0  0
 23 24  1  0  0  0  0
M  END
>  <MolRegNo>
328293

>  <m>
=

>  <Value>
74000

>  <Unit>
nM

>  <Type>
IC50

>  <pValue>
4.13

>  <Ligand Efficiency>
0

>  <Binding Efficiency>
0

>  <Surface Efficiency>
0

>  <Assay Index>
252852

>  <Assay Category>


>  <Assay Organism>
Homo sapiens

>  <Target ID>
17045

>  <Target Name>
Cytochrome P450 3A4

>  <Target Organism>
Homo sapiens

>  <Target Description>
Target is a single protein chain

>  <Sequence Accession>
P08684

>  <Reference>
J Med Chem 48 (18), 5705-5720 (2005)

>  <Pubmed ID>
16134939

>  <DOI>
10.1021/jm0502541

$$$$
328307
Actelion Java MolfileCreator 1.0

 21 23  0  0  0  0  0  0  0  0999 V2000
    0.0000   -0.0000   -0.0000 Cl  0  0  0  0  0  0  0  0  0  0  0  0
   -0.0242    1.5389   -0.0000 C   0  0  0  0  0  0  0  0  0  0  0  0
   -1.3692    2.3144   -0.0000 C   0  0  0  0  0  0  0  0  0  0  0  0
    1.2844    2.3144   -0.0000 C   0  0  0  0  0  0  0  0  0  0  0  0
   -2.7021    1.5631   -0.0000 Cl  0  0  0  0  0  0  0  0  0  0  0  0
   -1.3814    3.8532   -0.0000 C   0  0  0  0  0  0  0  0  0  0  0  0
    1.2602    3.8290   -0.0000 C   0  0  0  0  0  0  0  0  0  0  0  0
   -0.0727    4.6287   -0.0000 C   0  0  0  0  0  0  0  0  0  0  0  0
    2.5688    4.6045   -0.0000 C   0  0  0  0  0  0  0  0  0  0  0  0
    3.8896    3.8532   -0.0000 C   0  0  0  0  0  0  0  0  0  0  0  0
    2.5567    6.1434   -0.0000 C   0  0  0  0  0  0  0  0  0  0  0  0
    3.8775    2.3386   -0.0000 F   0  0  0  0  0  0  0  0  0  0  0  0
    5.1983    4.6287   -0.0000 C   0  0  0  0  0  0  0  0  0  0  0  0
    3.8775    6.9310   -0.0000 C   0  0  0  0  0  0  0  0  0  0  0  0
    5.1861    6.1797   -0.0000 C   0  0  0  0  0  0  0  0  0  0  0  0
    6.4948    6.9552   -0.0000 C   0  0  0  0  0  0  0  0  0  0  0  0
    7.8034    6.2161   -0.0000 C   0  0  0  0  0  0  0  0  0  0  0  0
    6.4342    7.9367   -0.0000 C   0  0  0  0  0  0  0  0  0  0  0  0
    5.0650    7.5490   -0.0000 C   0  0  0  0  0  0  0  0  0  0  0  0
    7.7913    4.7014   -0.0000 O   0  0  0  0  0  0  0  0  0  0  0  0
    9.1121    6.9916   -0.0000 O   0  0  0  0  0  0  0  0  0  0  0  0
  1  2  1  0  0  0  0
  2  3  2  0  0  0  0
  2  4  1  0  0  0  0
  3  5  1  0  0  0  0
  3  6  1  0  0  0  0
  4  7  2  0  0  0  0
  6  8  2  0  0  0  0
  7  9  1  0  0  0  0
  9 10  2  0  0  0  0
  9 11  1  0  0  0  0
 10 12  1  0  0  0  0
 10 13  1  0  0  0  0
 11 14  2  0  0  0  0
 13 15  2  0  0  0  0
 15 16  1  0  0  0  0
 16 17  1  0  0  0  0
 16 18  1  0  0  0  0
 16 19  1  0  0  0  0
 17 20  2  0  0  0  0
 17 21  1  0  0  0  0
  7  8  1  0  0  0  0
 14 15  1  0  0  0  0
 18 19  1  0  0  0  0
M  END
>  <MolRegNo>
328307

>  <m>
=

>  <Value>
48000

>  <Unit>
nM

>  <Type>
IC50

>  <pValue>
4.32

>  <Ligand Efficiency>
0

>  <Binding Efficiency>
0

>  <Surface Efficiency>
0

>  <Assay Index>
252852

>  <Assay Category>


>  <Assay Organism>
Homo sapiens

>  <Target ID>
17045

>  <Target Name>
Cytochrome P450 3A4

>  <Target Organism>
Homo sapiens

>  <Target Description>
Target is a single protein chain

>  <Sequence Accession>
P08684

>  <Reference>
J Med Chem 48 (18), 5705-5720 (2005)

>  <Pubmed ID>
16134939

>  <DOI>
10.1021/jm0502541

$$$$
328312
Actelion Java MolfileCreator 1.0

 27 30  0  0  0  0  0  0  0  0999 V2000
    0.0000   -0.0000   -0.0000 F   0  0  0  0  0  0  0  0  0  0  0  0
   -0.0120    1.5313   -0.0000 C   0  0  0  0  0  0  0  0  0  0  0  0
   -1.3399    2.2969   -0.0000 C   0  0  0  0  0  0  0  0  0  0  0  0
    1.2920    2.2969   -0.0000 C   0  0  0  0  0  0  0  0  0  0  0  0
   -2.6797    1.5552   -0.0000 C   0  0  0  0  0  0  0  0  0  0  0  0
   -1.3518    3.8282   -0.0000 C   0  0  0  0  0  0  0  0  0  0  0  0
    1.2801    3.8282   -0.0000 C   0  0  0  0  0  0  0  0  0  0  0  0
   -2.6797    0.0479   -0.0000 C   0  0  0  0  0  0  0  0  0  0  0  0
   -4.0076    2.3208   -0.0000 C   0  0  0  0  0  0  0  0  0  0  0  0
   -0.0479    4.5938   -0.0000 C   0  0  0  0  0  0  0  0  0  0  0  0
    2.5840    4.6058   -0.0000 C   0  0  0  0  0  0  0  0  0  0  0  0
   -4.0076   -0.6939   -0.0000 C   0  0  0  0  0  0  0  0  0  0  0  0
   -5.3355    1.5791   -0.0000 C   0  0  0  0  0  0  0  0  0  0  0  0
    3.8880    3.8760   -0.0000 C   0  0  0  0  0  0  0  0  0  0  0  0
    2.5242    5.5748   -0.0000 C   0  0  0  0  0  0  0  0  0  0  0  0
    1.1604    5.1800   -0.0000 C   0  0  0  0  0  0  0  0  0  0  0  0
   -5.3475    0.0718   -0.0000 C   0  0  0  0  0  0  0  0  0  0  0  0
    3.8760    2.3687   -0.0000 O   0  0  0  0  0  0  0  0  0  0  0  0
    5.1920    4.6417   -0.0000 O   0  0  0  0  0  0  0  0  0  0  0  0
   -6.6754   -0.6699   -0.0000 C   0  0  0  0  0  0  0  0  0  0  0  0
   -8.0033    0.0957   -0.0000 C   0  0  0  0  0  0  0  0  0  0  0  0
   -6.6754   -2.1773   -0.0000 C   0  0  0  0  0  0  0  0  0  0  0  0
   -9.3312   -0.6460   -0.0000 C   0  0  0  0  0  0  0  0  0  0  0  0
   -8.0153   -2.9310   -0.0000 C   0  0  0  0  0  0  0  0  0  0  0  0
   -9.3432   -2.1534   -0.0000 C   0  0  0  0  0  0  0  0  0  0  0  0
  -10.6711   -2.8951   -0.0000 C   0  0  0  0  0  0  0  0  0  0  0  0
   -9.3551   -3.6607   -0.0000 C   0  0  0  0  0  0  0  0  0  0  0  0
  1  2  1  0  0  0  0
  2  3  2  0  0  0  0
  2  4  1  0  0  0  0
  3  5  1  0  0  0  0
  3  6  1  0  0  0  0
  4  7  2  0  0  0  0
  5  8  2  0  0  0  0
  5  9  1  0  0  0  0
  6 10  2  0  0  0  0
  7 11  1  0  0  0  0
  8 12  1  0  0  0  0
  9 13  2  0  0  0  0
 11 14  1  0  0  0  0
 11 15  1  0  0  0  0
 11 16  1  0  0  0  0
 12 17  2  0  0  0  0
 14 18  2  0  0  0  0
 14 19  1  0  0  0  0
 17 20  1  0  0  0  0
 20 21  1  0  0  0  0
 20 22  1  0  0  0  0
 21 23  1  0  0  0  0
 22 24  1  0  0  0  0
 23 25  1  0  0  0  0
 25 26  1  0  0  0  0
 25 27  1  0  0  0  0
  7 10  1  0  0  0  0
 13 17  1  0  0  0  0
 15 16  1  0  0  0  0
 24 25  1  0  0  0  0
M  END
>  <MolRegNo>
328312

>  <m>
=

>  <Value>
84000

>  <Unit>
nM

>  <Type>
IC50

>  <pValue>
4.08

>  <Ligand Efficiency>
0

>  <Binding Efficiency>
0

>  <Surface Efficiency>
0

>  <Assay Index>
252852

>  <Assay Category>


>  <Assay Organism>
Homo sapiens

>  <Target ID>
17045

>  <Target Name>
Cytochrome P450 3A4

>  <Target Organism>
Homo sapiens

>  <Target Description>
Target is a single protein chain

>  <Sequence Accession>
P08684

>  <Reference>
J Med Chem 48 (18), 5705-5720 (2005)

>  <Pubmed ID>
16134939

>  <DOI>
10.1021/jm0502541

$$$$
328319
Actelion Java MolfileCreator 1.0

 25 27  0  0  0  0  0  0  0  0999 V2000
    0.0000   -0.0000   -0.0000 F   0  0  0  0  0  0  0  0  0  0  0  0
   -0.0119    1.5067   -0.0000 C   0  0  0  0  0  0  0  0  0  0  0  0
   -1.3169    2.2660   -0.0000 C   0  0  0  0  0  0  0  0  0  0  0  0
    1.2813    2.2660   -0.0000 C   0  0  0  0  0  0  0  0  0  0  0  0
   -2.6220    1.5305   -0.0000 C   0  0  0  0  0  0  0  0  0  0  0  0
   -1.3288    3.7728   -0.0000 C   0  0  0  0  0  0  0  0  0  0  0  0
    1.2695    3.7728   -0.0000 C   0  0  0  0  0  0  0  0  0  0  0  0
   -2.6338    0.0475   -0.0000 C   0  0  0  0  0  0  0  0  0  0  0  0
   -3.9270    2.2898   -0.0000 C   0  0  0  0  0  0  0  0  0  0  0  0
   -0.0475    4.5321   -0.0000 C   0  0  0  0  0  0  0  0  0  0  0  0
    2.5508    4.5439   -0.0000 C   0  0  0  0  0  0  0  0  0  0  0  0
   -3.9389   -0.6881   -0.0000 C   0  0  0  0  0  0  0  0  0  0  0  0
   -5.2321    1.5542   -0.0000 C   0  0  0  0  0  0  0  0  0  0  0  0
    3.8321    3.8202   -0.0000 C   0  0  0  0  0  0  0  0  0  0  0  0
    2.9186    6.0032   -0.0000 C   0  0  0  0  0  0  0  0  0  0  0  0
    1.1508    5.1134   -0.0000 C   0  0  0  0  0  0  0  0  0  0  0  0
   -5.2439    0.0712   -0.0000 C   0  0  0  0  0  0  0  0  0  0  0  0
    3.8202    2.3372   -0.0000 O   0  0  0  0  0  0  0  0  0  0  0  0
    5.1134    4.5795   -0.0000 O   0  0  0  0  0  0  0  0  0  0  0  0
   -6.5608   -0.6644   -0.0000 C   0  0  0  0  0  0  0  0  0  0  0  0
   -6.5727   -2.1593   -0.0000 C   0  0  0  0  0  0  0  0  0  0  0  0
   -7.8659    0.0949   -0.0000 C   0  0  0  0  0  0  0  0  0  0  0  0
   -7.8778   -2.8948   -0.0000 C   0  0  0  0  0  0  0  0  0  0  0  0
   -9.1709   -0.6288   -0.0000 C   0  0  0  0  0  0  0  0  0  0  0  0
   -9.1947   -2.1237   -0.0000 C   0  0  0  0  0  0  0  0  0  0  0  0
  1  2  1  0  0  0  0
  2  3  2  0  0  0  0
  2  4  1  0  0  0  0
  3  5  1  0  0  0  0
  3  6  1  0  0  0  0
  4  7  2  0  0  0  0
  5  8  2  0  0  0  0
  5  9  1  0  0  0  0
  6 10  2  0  0  0  0
  7 11  1  0  0  0  0
  8 12  1  0  0  0  0
  9 13  2  0  0  0  0
 11 14  1  0  0  0  0
 11 15  1  0  0  0  0
 11 16  1  0  0  0  0
 12 17  2  0  0  0  0
 14 18  2  0  0  0  0
 14 19  1  0  0  0  0
 17 20  1  0  0  0  0
 20 21  1  0  0  0  0
 20 22  1  0  0  0  0
 21 23  1  0  0  0  0
 22 24  1  0  0  0  0
 23 25  1  0  0  0  0
  7 10  1  0  0  0  0
 13 17  1  0  0  0  0
 24 25  1  0  0  0  0
M  END
>  <MolRegNo>
328319

>  <m>
=

>  <Value>
59000

>  <Unit>
nM

>  <Type>
IC50

>  <pValue>
4.23

>  <Ligand Efficiency>
0

>  <Binding Efficiency>
0

>  <Surface Efficiency>
0

>  <Assay Index>
252852

>  <Assay Category>


>  <Assay Organism>
Homo sapiens

>  <Target ID>
17045

>  <Target Name>
Cytochrome P450 3A4

>  <Target Organism>
Homo sapiens

>  <Target Description>
Target is a single protein chain

>  <Sequence Accession>
P08684

>  <Reference>
J Med Chem 48 (18), 5705-5720 (2005)

>  <Pubmed ID>
16134939

>  <DOI>
10.1021/jm0502541

$$$$
328326
Actelion Java MolfileCreator 1.0

 25 28  0  0  0  0  0  0  0  0999 V2000
    0.0000   -0.0000   -0.0000 F   0  0  0  0  0  0  0  0  0  0  0  0
   -0.0127    1.5038   -0.0000 C   0  0  0  0  0  0  0  0  0  0  0  0
   -1.3127    2.2557   -0.0000 C   0  0  0  0  0  0  0  0  0  0  0  0
    1.2617    2.2557   -0.0000 C   0  0  0  0  0  0  0  0  0  0  0  0
   -2.6253    1.5293   -0.0000 C   0  0  0  0  0  0  0  0  0  0  0  0
   -1.3254    3.7596   -0.0000 C   0  0  0  0  0  0  0  0  0  0  0  0
    1.2489    3.7596   -0.0000 C   0  0  0  0  0  0  0  0  0  0  0  0
   -3.9253    2.2812   -0.0000 C   0  0  0  0  0  0  0  0  0  0  0  0
   -2.6253    0.0510   -0.0000 C   0  0  0  0  0  0  0  0  0  0  0  0
   -0.0510    4.5115   -0.0000 C   0  0  0  0  0  0  0  0  0  0  0  0
    2.5234    4.5242   -0.0000 C   0  0  0  0  0  0  0  0  0  0  0  0
   -5.2252    1.5548   -0.0000 C   0  0  0  0  0  0  0  0  0  0  0  0
   -3.9253   -0.6755   -0.0000 C   0  0  0  0  0  0  0  0  0  0  0  0
    3.8106    3.8106   -0.0000 C   0  0  0  0  0  0  0  0  0  0  0  0
    1.1342    5.0977   -0.0000 C   0  0  0  0  0  0  0  0  0  0  0  0
    2.1920    6.1555   -0.0000 C   0  0  0  0  0  0  0  0  0  0  0  0
   -5.2379    0.0765   -0.0000 C   0  0  0  0  0  0  0  0  0  0  0  0
    3.7978    2.3322   -0.0000 O   0  0  0  0  0  0  0  0  0  0  0  0
    5.0850    4.5625   -0.0000 O   0  0  0  0  0  0  0  0  0  0  0  0
   -6.5506   -0.6500   -0.0000 C   0  0  0  0  0  0  0  0  0  0  0  0
   -6.5633   -2.1411   -0.0000 C   0  0  0  0  0  0  0  0  0  0  0  0
   -7.8633    0.1020   -0.0000 C   0  0  0  0  0  0  0  0  0  0  0  0
   -7.8888   -2.8675   -0.0000 C   0  0  0  0  0  0  0  0  0  0  0  0
   -9.1759   -0.6245   -0.0000 C   0  0  0  0  0  0  0  0  0  0  0  0
   -9.1887   -2.0901   -0.0000 C   0  0  0  0  0  0  0  0  0  0  0  0
  1  2  1  0  0  0  0
  2  3  2  0  0  0  0
  2  4  1  0  0  0  0
  3  5  1  0  0  0  0
  3  6  1  0  0  0  0
  4  7  2  0  0  0  0
  5  8  2  0  0  0  0
  5  9  1  0  0  0  0
  6 10  2  0  0  0  0
  7 11  1  0  0  0  0
  8 12  1  0  0  0  0
  9 13  2  0  0  0  0
 11 14  1  0  0  0  0
 11 15  1  0  0  0  0
 11 16  1  0  0  0  0
 12 17  2  0  0  0  0
 14 18  2  0  0  0  0
 14 19  1  0  0  0  0
 17 20  1  0  0  0  0
 20 21  1  0  0  0  0
 20 22  1  0  0  0  0
 21 23  1  0  0  0  0
 22 24  1  0  0  0  0
 23 25  1  0  0  0  0
  7 10  1  0  0  0  0
 13 17  1  0  0  0  0
 15 16  1  0  0  0  0
 24 25  1  0  0  0  0
M  END
>  <MolRegNo>
328326

>  <m>
=

>  <Value>
59000

>  <Unit>
nM

>  <Type>
IC50

>  <pValue>
4.23

>  <Ligand Efficiency>
0

>  <Binding Efficiency>
0

>  <Surface Efficiency>
0

>  <Assay Index>
252815

>  <Assay Category>


>  <Assay Organism>
Homo sapiens

>  <Target ID>
17045

>  <Target Name>
Cytochrome P450 3A4

>  <Target Organism>
Homo sapiens

>  <Target Description>
Target is a single protein chain

>  <Sequence Accession>
P08684

>  <Reference>
J Med Chem 48 (18), 5705-5720 (2005)

>  <Pubmed ID>
16134939

>  <DOI>
10.1021/jm0502541

$$$$
328335
Actelion Java MolfileCreator 1.0

 27 30  0  0  0  0  0  0  0  0999 V2000
    0.0000   -0.0000   -0.0000 F   0  0  0  0  0  0  0  0  0  0  0  0
   -0.0127    1.5093   -0.0000 C   0  0  0  0  0  0  0  0  0  0  0  0
   -1.3190    2.2702   -0.0000 C   0  0  0  0  0  0  0  0  0  0  0  0
    1.2556    2.2702   -0.0000 C   0  0  0  0  0  0  0  0  0  0  0  0
   -2.6380    1.5346   -0.0000 C   0  0  0  0  0  0  0  0  0  0  0  0
   -1.3317    3.7795   -0.0000 C   0  0  0  0  0  0  0  0  0  0  0  0
    1.2302    3.7668   -0.0000 C   0  0  0  0  0  0  0  0  0  0  0  0
   -3.9444    2.2956   -0.0000 C   0  0  0  0  0  0  0  0  0  0  0  0
   -2.6507    0.0507   -0.0000 C   0  0  0  0  0  0  0  0  0  0  0  0
   -0.0634    4.5405   -0.0000 C   0  0  0  0  0  0  0  0  0  0  0  0
    2.5112    4.5278   -0.0000 C   0  0  0  0  0  0  0  0  0  0  0  0
   -5.2634    1.5727   -0.0000 C   0  0  0  0  0  0  0  0  0  0  0  0
   -3.9697   -0.6849   -0.0000 C   0  0  0  0  0  0  0  0  0  0  0  0
    3.7795    3.7922   -0.0000 C   0  0  0  0  0  0  0  0  0  0  0  0
    2.4985    6.0370   -0.0000 C   0  0  0  0  0  0  0  0  0  0  0  0
   -5.2761    0.0761   -0.0000 C   0  0  0  0  0  0  0  0  0  0  0  0
    3.7668    2.3083   -0.0000 F   0  0  0  0  0  0  0  0  0  0  0  0
    5.0478    4.5531   -0.0000 C   0  0  0  0  0  0  0  0  0  0  0  0
    3.7668    6.7980   -0.0000 C   0  0  0  0  0  0  0  0  0  0  0  0
   -6.5824   -0.6595   -0.0000 O   0  0  0  0  0  0  0  0  0  0  0  0
    5.0351    6.0624   -0.0000 C   0  0  0  0  0  0  0  0  0  0  0  0
    6.3034    6.8361   -0.0000 C   0  0  0  0  0  0  0  0  0  0  0  0
    7.5970    6.1005   -0.0000 C   0  0  0  0  0  0  0  0  0  0  0  0
    4.9083    7.3941   -0.0000 C   0  0  0  0  0  0  0  0  0  0  0  0
    5.9609    8.4595   -0.0000 C   0  0  0  0  0  0  0  0  0  0  0  0
    7.5843    4.6166   -0.0000 O   0  0  0  0  0  0  0  0  0  0  0  0
    8.8653    6.8614   -0.0000 O   0  0  0  0  0  0  0  0  0  0  0  0
  1  2  1  0  0  0  0
  2  3  2  0  0  0  0
  2  4  1  0  0  0  0
  3  5  1  0  0  0  0
  3  6  1  0  0  0  0
  4  7  2  0  0  0  0
  5  8  2  0  0  0  0
  5  9  1  0  0  0  0
  6 10  2  0  0  0  0
  7 11  1  0  0  0  0
  8 12  1  0  0  0  0
  9 13  2  0  0  0  0
 11 14  2  0  0  0  0
 11 15  1  0  0  0  0
 12 16  2  0  0  0  0
 14 17  1  0  0  0  0
 14 18  1  0  0  0  0
 15 19  2  0  0  0  0
 16 20  1  0  0  0  0
 18 21  2  0  0  0  0
 21 22  1  0  0  0  0
 22 23  1  0  0  0  0
 22 24  1  0  0  0  0
 22 25  1  0  0  0  0
 23 26  2  0  0  0  0
 23 27  1  0  0  0  0
  7 10  1  0  0  0  0
 13 16  1  0  0  0  0
 19 21  1  0  0  0  0
 24 25  1  0  0  0  0
M  END
>  <MolRegNo>
328335

>  <m>
=

>  <Value>
58000

>  <Unit>
nM

>  <Type>
IC50

>  <pValue>
4.24

>  <Ligand Efficiency>
0

>  <Binding Efficiency>
0

>  <Surface Efficiency>
0

>  <Assay Index>
252852

>  <Assay Category>


>  <Assay Organism>
Homo sapiens

>  <Target ID>
17045

>  <Target Name>
Cytochrome P450 3A4

>  <Target Organism>
Homo sapiens

>  <Target Description>
Target is a single protein chain

>  <Sequence Accession>
P08684

>  <Reference>
J Med Chem 48 (18), 5705-5720 (2005)

>  <Pubmed ID>
16134939

>  <DOI>
10.1021/jm0502541

$$$$
328342
Actelion Java MolfileCreator 1.0

 27 30  0  0  0  0  0  0  0  0999 V2000
    0.0000   -0.0000   -0.0000 F   0  0  0  0  0  0  0  0  0  0  0  0
   -0.0127    1.5093   -0.0000 C   0  0  0  0  0  0  0  0  0  0  0  0
   -1.3190    2.2702   -0.0000 C   0  0  0  0  0  0  0  0  0  0  0  0
    1.2556    2.2702   -0.0000 C   0  0  0  0  0  0  0  0  0  0  0  0
   -2.6380    1.5346   -0.0000 C   0  0  0  0  0  0  0  0  0  0  0  0
   -1.3317    3.7795   -0.0000 C   0  0  0  0  0  0  0  0  0  0  0  0
    1.2302    3.7668   -0.0000 C   0  0  0  0  0  0  0  0  0  0  0  0
   -3.9444    2.2956   -0.0000 C   0  0  0  0  0  0  0  0  0  0  0  0
   -2.6507    0.0507   -0.0000 C   0  0  0  0  0  0  0  0  0  0  0  0
   -0.0634    4.5405   -0.0000 C   0  0  0  0  0  0  0  0  0  0  0  0
    2.5112    4.5278   -0.0000 C   0  0  0  0  0  0  0  0  0  0  0  0
   -5.2634    1.5727   -0.0000 C   0  0  0  0  0  0  0  0  0  0  0  0
   -3.9697   -0.6849   -0.0000 C   0  0  0  0  0  0  0  0  0  0  0  0
    3.7795    3.7922   -0.0000 C   0  0  0  0  0  0  0  0  0  0  0  0
    2.4985    6.0370   -0.0000 C   0  0  0  0  0  0  0  0  0  0  0  0
   -5.2761    0.0761   -0.0000 C   0  0  0  0  0  0  0  0  0  0  0  0
    3.7668    2.3083   -0.0000 F   0  0  0  0  0  0  0  0  0  0  0  0
    5.0478    4.5531   -0.0000 C   0  0  0  0  0  0  0  0  0  0  0  0
    3.7668    6.7980   -0.0000 C   0  0  0  0  0  0  0  0  0  0  0  0
   -6.5824   -0.6595   -0.0000 F   0  0  0  0  0  0  0  0  0  0  0  0
    5.0351    6.0624   -0.0000 C   0  0  0  0  0  0  0  0  0  0  0  0
    6.3034    6.8361   -0.0000 C   0  0  0  0  0  0  0  0  0  0  0  0
    7.5970    6.1005   -0.0000 C   0  0  0  0  0  0  0  0  0  0  0  0
    4.9083    7.3941   -0.0000 C   0  0  0  0  0  0  0  0  0  0  0  0
    5.9609    8.4595   -0.0000 C   0  0  0  0  0  0  0  0  0  0  0  0
    7.5843    4.6166   -0.0000 O   0  0  0  0  0  0  0  0  0  0  0  0
    8.8653    6.8614   -0.0000 O   0  0  0  0  0  0  0  0  0  0  0  0
  1  2  1  0  0  0  0
  2  3  2  0  0  0  0
  2  4  1  0  0  0  0
  3  5  1  0  0  0  0
  3  6  1  0  0  0  0
  4  7  2  0  0  0  0
  5  8  2  0  0  0  0
  5  9  1  0  0  0  0
  6 10  2  0  0  0  0
  7 11  1  0  0  0  0
  8 12  1  0  0  0  0
  9 13  2  0  0  0  0
 11 14  2  0  0  0  0
 11 15  1  0  0  0  0
 12 16  2  0  0  0  0
 14 17  1  0  0  0  0
 14 18  1  0  0  0  0
 15 19  2  0  0  0  0
 16 20  1  0  0  0  0
 18 21  2  0  0  0  0
 21 22  1  0  0  0  0
 22 23  1  0  0  0  0
 22 24  1  0  0  0  0
 22 25  1  0  0  0  0
 23 26  2  0  0  0  0
 23 27  1  0  0  0  0
  7 10  1  0  0  0  0
 13 16  1  0  0  0  0
 19 21  1  0  0  0  0
 24 25  1  0  0  0  0
M  END
>  <MolRegNo>
328342

>  <m>
=

>  <Value>
38000

>  <Unit>
nM

>  <Type>
IC50

>  <pValue>
4.42

>  <Ligand Efficiency>
0

>  <Binding Efficiency>
0

>  <Surface Efficiency>
0

>  <Assay Index>
252852

>  <Assay Category>


>  <Assay Organism>
Homo sapiens

>  <Target ID>
17045

>  <Target Name>
Cytochrome P450 3A4

>  <Target Organism>
Homo sapiens

>  <Target Description>
Target is a single protein chain

>  <Sequence Accession>
P08684

>  <Reference>
J Med Chem 48 (18), 5705-5720 (2005)

>  <Pubmed ID>
16134939

>  <DOI>
10.1021/jm0502541

$$$$
328343
Actelion Java MolfileCreator 1.0

 30 33  0  0  0  0  0  0  0  0999 V2000
    0.0000   -0.0000   -0.0000 F   0  0  0  0  0  0  0  0  0  0  0  0
   -0.0128    1.4934   -0.0000 C   0  0  0  0  0  0  0  0  0  0  0  0
   -1.3147    2.2465   -0.0000 C   0  0  0  0  0  0  0  0  0  0  0  0
    1.2764    2.2465   -0.0000 C   0  0  0  0  0  0  0  0  0  0  0  0
   -2.6167    1.5189   -0.0000 C   0  0  0  0  0  0  0  0  0  0  0  0
   -1.3275    3.7399   -0.0000 C   0  0  0  0  0  0  0  0  0  0  0  0
    1.2637    3.7654   -0.0000 C   0  0  0  0  0  0  0  0  0  0  0  0
   -3.9186    2.2848   -0.0000 C   0  0  0  0  0  0  0  0  0  0  0  0
   -2.6294    0.0638   -0.0000 C   0  0  0  0  0  0  0  0  0  0  0  0
   -0.0511    4.5057   -0.0000 C   0  0  0  0  0  0  0  0  0  0  0  0
    2.5401    4.5185   -0.0000 C   0  0  0  0  0  0  0  0  0  0  0  0
   -5.2205    1.5572   -0.0000 C   0  0  0  0  0  0  0  0  0  0  0  0
   -3.9314   -0.6637   -0.0000 C   0  0  0  0  0  0  0  0  0  0  0  0
    3.8165    3.7910   -0.0000 C   0  0  0  0  0  0  0  0  0  0  0  0
    1.1360    5.0929   -0.0000 C   0  0  0  0  0  0  0  0  0  0  0  0
    2.1954    6.1523   -0.0000 C   0  0  0  0  0  0  0  0  0  0  0  0
   -5.2333    0.0893   -0.0000 C   0  0  0  0  0  0  0  0  0  0  0  0
    3.8037    2.3231   -0.0000 O   0  0  0  0  0  0  0  0  0  0  0  0
    5.0929    4.5440   -0.0000 O   0  0  0  0  0  0  0  0  0  0  0  0
   -6.5352   -0.6382   -0.0000 O   0  0  0  0  0  0  0  0  0  0  0  0
   -7.8500    0.1021   -0.0000 C   0  0  0  0  0  0  0  0  0  0  0  0
   -9.1519   -0.6254   -0.0000 C   0  0  0  0  0  0  0  0  0  0  0  0
   -7.8627    1.6210   -0.0000 C   0  0  0  0  0  0  0  0  0  0  0  0
  -10.4538    0.1404   -0.0000 C   0  0  0  0  0  0  0  0  0  0  0  0
   -9.1391    2.3741   -0.0000 C   0  0  0  0  0  0  0  0  0  0  0  0
  -10.4666    1.6338   -0.0000 C   0  0  0  0  0  0  0  0  0  0  0  0
  -11.8962    0.5361   -0.0000 C   0  0  0  0  0  0  0  0  0  0  0  0
  -11.5133   -0.9063   -0.0000 C   0  0  0  0  0  0  0  0  0  0  0  0
   -9.9050    3.6761   -0.0000 C   0  0  0  0  0  0  0  0  0  0  0  0
   -8.1052    3.4463   -0.0000 C   0  0  0  0  0  0  0  0  0  0  0  0
  1  2  1  0  0  0  0
  2  3  2  0  0  0  0
  2  4  1  0  0  0  0
  3  5  1  0  0  0  0
  3  6  1  0  0  0  0
  4  7  2  0  0  0  0
  5  8  2  0  0  0  0
  5  9  1  0  0  0  0
  6 10  2  0  0  0  0
  7 11  1  0  0  0  0
  8 12  1  0  0  0  0
  9 13  2  0  0  0  0
 11 14  1  0  0  0  0
 11 15  1  0  0  0  0
 11 16  1  0  0  0  0
 12 17  2  0  0  0  0
 14 18  2  0  0  0  0
 14 19  1  0  0  0  0
 17 20  1  0  0  0  0
 20 21  1  0  0  0  0
 21 22  1  0  0  0  0
 21 23  1  0  0  0  0
 22 24  1  0  0  0  0
 23 25  1  0  0  0  0
 24 26  1  0  0  0  0
 24 27  1  0  0  0  0
 24 28  1  0  0  0  0
 25 29  1  0  0  0  0
 25 30  1  0  0  0  0
  7 10  1  0  0  0  0
 13 17  1  0  0  0  0
 15 16  1  0  0  0  0
 25 26  1  0  0  0  0
M  END
>  <MolRegNo>
328343

>  <m>
=

>  <Value>
27000

>  <Unit>
nM

>  <Type>
IC50

>  <pValue>
4.57

>  <Ligand Efficiency>
0

>  <Binding Efficiency>
0

>  <Surface Efficiency>
0

>  <Assay Index>
252852

>  <Assay Category>


>  <Assay Organism>
Homo sapiens

>  <Target ID>
17045

>  <Target Name>
Cytochrome P450 3A4

>  <Target Organism>
Homo sapiens

>  <Target Description>
Target is a single protein chain

>  <Sequence Accession>
P08684

>  <Reference>
J Med Chem 48 (18), 5705-5720 (2005)

>  <Pubmed ID>
16134939

>  <DOI>
10.1021/jm0502541

$$$$
1385428
Actelion Java MolfileCreator 1.0

 41 45  0  0  0  0  0  0  0  0999 V2000
    0.0000   -0.0000   -0.0000 Cl  0  0  0  0  0  0  0  0  0  0  0  0
    1.3166   -0.6998   -0.0000 C   0  0  0  0  0  0  0  0  0  0  0  0
    1.3403   -2.1944   -0.0000 C   0  0  0  0  0  0  0  0  0  0  0  0
    2.5976    0.0949   -0.0000 C   0  0  0  0  0  0  0  0  0  0  0  0
    2.6451   -2.9060   -0.0000 C   0  0  0  0  0  0  0  0  0  0  0  0
    3.9143   -0.6168   -0.0000 C   0  0  0  0  0  0  0  0  0  0  0  0
    3.9261   -2.1113   -0.0000 C   0  0  0  0  0  0  0  0  0  0  0  0
    5.2072   -2.8823   -0.0000 N   0  0  0  0  0  0  0  0  0  0  0  0
    5.1834   -4.3769   -0.0000 S   0  0  0  0  0  0  0  0  0  0  0  0
    6.5119   -2.1469   -0.0000 C   0  0  0  0  0  0  0  0  0  0  0  0
    3.6652   -4.3531   -0.0000 O   0  0  0  0  0  0  0  0  0  0  0  0
    6.6661   -4.3769   -0.0000 O   0  0  0  0  0  0  0  0  0  0  0  0
    5.1597   -5.8595   -0.0000 C   0  0  0  0  0  0  0  0  0  0  0  0
    7.7929   -2.9060   -0.0000 C   0  0  0  0  0  0  0  0  0  0  0  0
    3.8431   -6.5831   -0.0000 C   0  0  0  0  0  0  0  0  0  0  0  0
    6.4407   -6.5949   -0.0000 C   0  0  0  0  0  0  0  0  0  0  0  0
    7.7692   -4.3887   -0.0000 O   0  0  0  0  0  0  0  0  0  0  0  0
    9.0977   -2.1469   -0.0000 N   0  0  0  0  0  0  0  0  0  0  0  0
    3.8194   -8.0658   -0.0000 C   0  0  0  0  0  0  0  0  0  0  0  0
    6.4289   -8.0776   -0.0000 C   0  0  0  0  0  0  0  0  0  0  0  0
   10.3787   -2.9060   -0.0000 N   0  0  0  0  0  0  0  0  0  0  0  0
    5.1004   -8.8130   -0.0000 C   0  0  0  0  0  0  0  0  0  0  0  0
   11.2328   -1.6606   -0.0000 C   0  0  0  0  0  0  0  0  0  0  0  0
    5.0767  -10.3076   -0.0000 N   0  0  0  0  0  0  0  0  0  0  0  0
   10.7227   -0.2254   -0.0000 C   0  0  0  0  0  0  0  0  0  0  0  0
   12.7273   -1.6250   -0.0000 C   0  0  0  0  0  0  0  0  0  0  0  0
    3.7601  -11.0430   -0.0000 C   0  0  0  0  0  0  0  0  0  0  0  0
    9.2756    0.2254   -0.0000 O   0  0  0  0  0  0  0  0  0  0  0  0
   11.9207    0.6880   -0.0000 N   0  0  0  0  0  0  0  0  0  0  0  0
   13.1543   -0.1779   -0.0000 C   0  0  0  0  0  0  0  0  0  0  0  0
   13.7355   -2.7163   -0.0000 C   0  0  0  0  0  0  0  0  0  0  0  0
    2.4435  -10.2720   -0.0000 C   0  0  0  0  0  0  0  0  0  0  0  0
   14.6014    0.1779   -0.0000 C   0  0  0  0  0  0  0  0  0  0  0  0
   15.1945   -2.3604   -0.0000 C   0  0  0  0  0  0  0  0  0  0  0  0
    1.1268  -11.0074   -0.0000 N   0  0  0  0  0  0  0  0  0  0  0  0
   15.6215   -0.9015   -0.0000 C   0  0  0  0  0  0  0  0  0  0  0  0
   -0.1779  -10.2364   -0.0000 C   0  0  0  0  0  0  0  0  0  0  0  0
    1.1150  -12.5019   -0.0000 C   0  0  0  0  0  0  0  0  0  0  0  0
   -1.4945  -10.9599   -0.0000 C   0  0  0  0  0  0  0  0  0  0  0  0
   -0.2135  -13.2373   -0.0000 C   0  0  0  0  0  0  0  0  0  0  0  0
   -1.5183  -12.4545   -0.0000 O   0  0  0  0  0  0  0  0  0  0  0  0
  1  2  1  0  0  0  0
  2  3  2  0  0  0  0
  2  4  1  0  0  0  0
  3  5  1  0  0  0  0
  4  6  2  0  0  0  0
  5  7  2  0  0  0  0
  7  8  1  0  0  0  0
  8  9  1  0  0  0  0
  8 10  1  0  0  0  0
  9 11  2  0  0  0  0
  9 12  2  0  0  0  0
  9 13  1  0  0  0  0
 10 14  1  0  0  0  0
 13 15  2  0  0  0  0
 13 16  1  0  0  0  0
 14 17  2  0  0  0  0
 14 18  1  0  0  0  0
 15 19  1  0  0  0  0
 16 20  2  0  0  0  0
 18 21  1  0  0  0  0
 19 22  2  0  0  0  0
 21 23  2  0  0  0  0
 22 24  1  0  0  0  0
 23 25  1  0  0  0  0
 23 26  1  0  0  0  0
 24 27  1  0  0  0  0
 25 28  2  0  0  0  0
 25 29  1  0  0  0  0
 26 30  2  0  0  0  0
 26 31  1  0  0  0  0
 27 32  1  0  0  0  0
 30 33  1  0  0  0  0
 31 34  2  0  0  0  0
 32 35  1  0  0  0  0
 33 36  2  0  0  0  0
 35 37  1  0  0  0  0
 35 38  1  0  0  0  0
 37 39  1  0  0  0  0
 38 40  1  0  0  0  0
 39 41  1  0  0  0  0
  6  7  1  0  0  0  0
 20 22  1  0  0  0  0
 29 30  1  0  0  0  0
 34 36  1  0  0  0  0
 40 41  1  0  0  0  0
M  END
>  <MolRegNo>
1385428

>  <m>
=

>  <Value>
310

>  <Unit>
nM

>  <Type>
IC50

>  <pValue>
6.51

>  <Ligand Efficiency>
0

>  <Binding Efficiency>
0

>  <Surface Efficiency>
0

>  <Assay Index>
254145

>  <Assay Category>


>  <Assay Organism>
Homo sapiens

>  <Target ID>
17045

>  <Target Name>
Cytochrome P450 3A4

>  <Target Organism>
Homo sapiens

>  <Target Description>
Target is a single protein chain

>  <Sequence Accession>
P08684

>  <Reference>
J Med Chem 48 (24), 7882-7905 (2005)

>  <Pubmed ID>
16302826

>  <DOI>
10.1021/jm050645f

$$$$
340673
Actelion Java MolfileCreator 1.0

 27 29  0  0  0  0  0  0  0  0999 V2000
    0.0000   -0.0000   -0.0000 F   0  0  0  0  0  0  0  0  0  0  0  0
    1.4806   -0.1421   -0.0000 C   0  0  0  0  0  0  0  0  0  0  0  0
    2.0847   -1.5043   -0.0000 C   0  0  0  0  0  0  0  0  0  0  0  0
    2.3571    1.0897   -0.0000 C   0  0  0  0  0  0  0  0  0  0  0  0
    3.5652   -1.6464   -0.0000 C   0  0  0  0  0  0  0  0  0  0  0  0
    3.8377    0.9476   -0.0000 C   0  0  0  0  0  0  0  0  0  0  0  0
    4.4418   -0.4146   -0.0000 C   0  0  0  0  0  0  0  0  0  0  0  0
    5.9223   -0.5567   -0.0000 N   0  0  0  0  0  0  0  0  0  0  0  0
    6.6686   -1.8478   -0.0000 N   0  0  0  0  0  0  0  0  0  0  0  0
    6.9173    0.5685   -0.0000 C   0  0  0  0  0  0  0  0  0  0  0  0
    8.1254   -1.5280   -0.0000 C   0  0  0  0  0  0  0  0  0  0  0  0
    6.5975    2.0491   -0.0000 N   0  0  0  0  0  0  0  0  0  0  0  0
    8.2794   -0.0355   -0.0000 C   0  0  0  0  0  0  0  0  0  0  0  0
    9.5705    0.7225   -0.0000 C   0  0  0  0  0  0  0  0  0  0  0  0
   10.8616   -0.0237   -0.0000 O   0  0  0  0  0  0  0  0  0  0  0  0
    9.5587    2.2386   -0.0000 C   0  0  0  0  0  0  0  0  0  0  0  0
   10.8497    2.9967   -0.0000 C   0  0  0  0  0  0  0  0  0  0  0  0
    8.2439    2.9967   -0.0000 C   0  0  0  0  0  0  0  0  0  0  0  0
   10.8379    4.5128   -0.0000 C   0  0  0  0  0  0  0  0  0  0  0  0
    8.2321    4.5128   -0.0000 C   0  0  0  0  0  0  0  0  0  0  0  0
   12.1289    5.2709   -0.0000 O   0  0  0  0  0  0  0  0  0  0  0  0
    9.5231    5.2709   -0.0000 C   0  0  0  0  0  0  0  0  0  0  0  0
   13.4200    4.5247   -0.0000 C   0  0  0  0  0  0  0  0  0  0  0  0
   14.7111    5.2827   -0.0000 C   0  0  0  0  0  0  0  0  0  0  0  0
   14.6992    6.7988   -0.0000 O   0  0  0  0  0  0  0  0  0  0  0  0
   16.0022    4.5365   -0.0000 C   0  0  0  0  0  0  0  0  0  0  0  0
   17.2932    5.2946   -0.0000 O   0  0  0  0  0  0  0  0  0  0  0  0
  1  2  1  0  0  0  0
  2  3  2  0  0  0  0
  2  4  1  0  0  0  0
  3  5  1  0  0  0  0
  4  6  2  0  0  0  0
  5  7  2  0  0  0  0
  7  8  1  0  0  0  0
  8  9  1  0  0  0  0
  8 10  1  0  0  0  0
  9 11  2  0  0  0  0
 10 12  1  0  0  0  0
 10 13  2  0  0  0  0
 13 14  1  0  0  0  0
 14 15  2  0  0  0  0
 14 16  1  0  0  0  0
 16 17  2  0  0  0  0
 16 18  1  0  0  0  0
 17 19  1  0  0  0  0
 18 20  2  0  0  0  0
 19 21  1  0  0  0  0
 19 22  2  0  0  0  0
 21 23  1  0  0  0  0
 23 24  1  0  0  0  0
 24 25  1  1  0  0  0
 24 26  1  0  0  0  0
 26 27  1  0  0  0  0
  6  7  1  0  0  0  0
 11 13  1  0  0  0  0
 20 22  1  0  0  0  0
M  END
>  <MolRegNo>
340673

>  <m>
=

>  <Value>
25000

>  <Unit>
nM

>  <Type>
IC50

>  <pValue>
4.6

>  <Ligand Efficiency>
0

>  <Binding Efficiency>
0

>  <Surface Efficiency>
0

>  <Assay Index>
258219

>  <Assay Category>


>  <Assay Organism>
Homo sapiens

>  <Target ID>
17045

>  <Target Name>
Cytochrome P450 3A4

>  <Target Organism>
Homo sapiens

>  <Target Description>
Target is a single protein chain

>  <Sequence Accession>
P08684

>  <Reference>
J Med Chem 49 (5), 1562-1575 (2006)

>  <Pubmed ID>
16509574

>  <DOI>
10.1021/jm050736c

$$$$
343457
Actelion Java MolfileCreator 1.0

 32 36  0  0  0  0  0  0  0  0999 V2000
    0.0000   -0.0000   -0.0000 F   0  0  0  0  0  0  0  0  0  0  0  0
   -0.0118    1.5048   -0.0000 C   0  0  0  0  0  0  0  0  0  0  0  0
   -1.3153    2.2750   -0.0000 C   0  0  0  0  0  0  0  0  0  0  0  0
    1.2560    2.2632   -0.0000 C   0  0  0  0  0  0  0  0  0  0  0  0
   -2.6187    1.5404   -0.0000 O   0  0  0  0  0  0  0  0  0  0  0  0
   -1.3271    3.7680   -0.0000 C   0  0  0  0  0  0  0  0  0  0  0  0
    1.2442    3.7799   -0.0000 C   0  0  0  0  0  0  0  0  0  0  0  0
    2.6660    1.8011   -0.0000 C   0  0  0  0  0  0  0  0  0  0  0  0
   -2.6305    0.0592   -0.0000 C   0  0  0  0  0  0  0  0  0  0  0  0
   -0.0474    4.5264   -0.0000 C   0  0  0  0  0  0  0  0  0  0  0  0
    2.6660    4.2538   -0.0000 N   0  0  0  0  0  0  0  0  0  0  0  0
    3.5429    3.0215   -0.0000 C   0  0  0  0  0  0  0  0  0  0  0  0
   -1.3508   -0.6754   -0.0000 N   0  0  0  0  0  0  0  0  0  0  0  0
   -3.9339   -0.6754   -0.0000 C   0  0  0  0  0  0  0  0  0  0  0  0
    5.0240    3.0334   -0.0000 C   0  0  0  0  0  0  0  0  0  0  0  0
   -1.3626   -2.1684   -0.0000 C   0  0  0  0  0  0  0  0  0  0  0  0
   -3.9458   -2.1684   -0.0000 N   0  0  0  0  0  0  0  0  0  0  0  0
   -5.3795   -0.2014   -0.0000 C   0  0  0  0  0  0  0  0  0  0  0  0
   -2.6779   -2.9030   -0.0000 N   0  0  0  0  0  0  0  0  0  0  0  0
   -5.3913   -2.6187   -0.0000 C   0  0  0  0  0  0  0  0  0  0  0  0
   -6.2800   -1.3982   -0.0000 C   0  0  0  0  0  0  0  0  0  0  0  0
   -5.8535    1.2323   -0.0000 C   0  0  0  0  0  0  0  0  0  0  0  0
   -7.7849   -1.4219   -0.0000 O   0  0  0  0  0  0  0  0  0  0  0  0
   -8.5788   -0.1303   -0.0000 C   0  0  0  0  0  0  0  0  0  0  0  0
  -10.0836   -0.1540   -0.0000 C   0  0  0  0  0  0  0  0  0  0  0  0
  -10.8775    1.1375   -0.0000 C   0  0  0  0  0  0  0  0  0  0  0  0
  -12.3823    1.1138   -0.0000 N   0  0  0  0  0  0  0  0  0  0  0  0
  -13.1644    2.4054   -0.0000 C   0  0  0  0  0  0  0  0  0  0  0  0
  -13.0933   -0.1896   -0.0000 C   0  0  0  0  0  0  0  0  0  0  0  0
  -14.6692    2.3817   -0.0000 C   0  0  0  0  0  0  0  0  0  0  0  0
  -14.6099   -0.2133   -0.0000 C   0  0  0  0  0  0  0  0  0  0  0  0
  -15.4038    1.0783   -0.0000 C   0  0  0  0  0  0  0  0  0  0  0  0
  1  2  1  0  0  0  0
  2  3  2  0  0  0  0
  2  4  1  0  0  0  0
  3  5  1  0  0  0  0
  3  6  1  0  0  0  0
  4  7  2  0  0  0  0
  4  8  1  0  0  0  0
  5  9  1  0  0  0  0
  6 10  2  0  0  0  0
  7 11  1  0  0  0  0
  8 12  2  0  0  0  0
  9 13  2  0  0  0  0
  9 14  1  0  0  0  0
 12 15  1  0  0  0  0
 13 16  1  0  0  0  0
 14 17  1  0  0  0  0
 14 18  2  0  0  0  0
 16 19  2  0  0  0  0
 17 20  1  0  0  0  0
 18 21  1  0  0  0  0
 18 22  1  0  0  0  0
 21 23  1  0  0  0  0
 23 24  1  0  0  0  0
 24 25  1  0  0  0  0
 25 26  1  0  0  0  0
 26 27  1  0  0  0  0
 27 28  1  0  0  0  0
 27 29  1  0  0  0  0
 28 30  1  0  0  0  0
 29 31  1  0  0  0  0
 30 32  1  0  0  0  0
  7 10  1  0  0  0  0
 11 12  1  0  0  0  0
 17 19  1  0  0  0  0
 20 21  2  0  0  0  0
 31 32  1  0  0  0  0
M  END
>  <MolRegNo>
343457

>  <m>
=

>  <Value>
1000

>  <Unit>
nM

>  <Type>
IC50

>  <pValue>
6

>  <Ligand Efficiency>
0

>  <Binding Efficiency>
0

>  <Surface Efficiency>
0

>  <Assay Index>
259638

>  <Assay Category>


>  <Assay Organism>
Homo sapiens

>  <Target ID>
17045

>  <Target Name>
Cytochrome P450 3A4

>  <Target Organism>
Homo sapiens

>  <Target Description>
Target is a single protein chain

>  <Sequence Accession>
P08684

>  <Reference>
J Med Chem 49 (7), 2143-2146 (2006)

>  <Pubmed ID>
16570908

>  <DOI>
10.1021/jm051106d

$$$$
343256
Actelion Java MolfileCreator 1.0

 31 34  0  0  0  0  0  0  0  0999 V2000
    0.0000   -0.0000   -0.0000 S   0  0  0  0  0  0  0  0  0  0  0  0
    1.2971    0.7497   -0.0000 O   0  0  0  0  0  0  0  0  0  0  0  0
   -1.3208   -0.7259   -0.0000 O   0  0  0  0  0  0  0  0  0  0  0  0
    0.7140   -1.2971   -0.0000 N   0  0  0  0  0  0  0  0  0  0  0  0
   -0.7616    1.3208   -0.0000 C   0  0  0  0  0  0  0  0  0  0  0  0
    2.2014   -1.3089   -0.0000 C   0  0  0  0  0  0  0  0  0  0  0  0
    2.9154   -2.6060   -0.0000 C   0  0  0  0  0  0  0  0  0  0  0  0
    4.4028   -2.6179   -0.0000 C   0  0  0  0  0  0  0  0  0  0  0  0
    5.1168   -3.9149   -0.0000 O   0  0  0  0  0  0  0  0  0  0  0  0
    6.6042   -3.9268   -0.0000 C   0  0  0  0  0  0  0  0  0  0  0  0
    7.4848   -2.6893   -0.0000 C   0  0  0  0  0  0  0  0  0  0  0  0
    7.4729   -5.1406   -0.0000 C   0  0  0  0  0  0  0  0  0  0  0  0
    8.9128   -3.1415   -0.0000 C   0  0  0  0  0  0  0  0  0  0  0  0
    7.0088   -1.2495   -0.0000 C   0  0  0  0  0  0  0  0  0  0  0  0
    8.9009   -4.6646   -0.0000 N   0  0  0  0  0  0  0  0  0  0  0  0
   10.1979   -2.3799   -0.0000 C   0  0  0  0  0  0  0  0  0  0  0  0
   10.1860   -5.4024   -0.0000 N   0  0  0  0  0  0  0  0  0  0  0  0
   10.1860   -0.8687   -0.0000 O   0  0  0  0  0  0  0  0  0  0  0  0
   11.4950   -3.1177   -0.0000 N   0  0  0  0  0  0  0  0  0  0  0  0
   11.4831   -4.6408   -0.0000 C   0  0  0  0  0  0  0  0  0  0  0  0
   11.4712   -0.1071   -0.0000 C   0  0  0  0  0  0  0  0  0  0  0  0
   12.7682   -0.8568   -0.0000 C   0  0  0  0  0  0  0  0  0  0  0  0
   11.4593    1.3922   -0.0000 C   0  0  0  0  0  0  0  0  0  0  0  0
   12.7563   -2.3442   -0.0000 F   0  0  0  0  0  0  0  0  0  0  0  0
   14.0534   -0.0952   -0.0000 C   0  0  0  0  0  0  0  0  0  0  0  0
   12.7444    2.1538   -0.0000 C   0  0  0  0  0  0  0  0  0  0  0  0
   14.0415    1.4279   -0.0000 C   0  0  0  0  0  0  0  0  0  0  0  0
   15.4813   -0.5593   -0.0000 C   0  0  0  0  0  0  0  0  0  0  0  0
   15.4694    1.9039   -0.0000 N   0  0  0  0  0  0  0  0  0  0  0  0
   16.3619    0.6783   -0.0000 C   0  0  0  0  0  0  0  0  0  0  0  0
   17.8493    0.6902   -0.0000 C   0  0  0  0  0  0  0  0  0  0  0  0
  1  2  2  0  0  0  0
  1  3  2  0  0  0  0
  1  4  1  0  0  0  0
  1  5  1  0  0  0  0
  4  6  1  0  0  0  0
  6  7  1  0  0  0  0
  7  8  1  0  0  0  0
  8  9  1  0  0  0  0
  9 10  1  0  0  0  0
 10 11  1  0  0  0  0
 10 12  2  0  0  0  0
 11 13  2  0  0  0  0
 11 14  1  0  0  0  0
 12 15  1  0  0  0  0
 13 16  1  0  0  0  0
 15 17  1  0  0  0  0
 16 18  1  0  0  0  0
 16 19  2  0  0  0  0
 17 20  2  0  0  0  0
 18 21  1  0  0  0  0
 21 22  2  0  0  0  0
 21 23  1  0  0  0  0
 22 24  1  0  0  0  0
 22 25  1  0  0  0  0
 23 26  2  0  0  0  0
 25 27  2  0  0  0  0
 25 28  1  0  0  0  0
 27 29  1  0  0  0  0
 28 30  2  0  0  0  0
 30 31  1  0  0  0  0
 13 15  1  0  0  0  0
 19 20  1  0  0  0  0
 26 27  1  0  0  0  0
 29 30  1  0  0  0  0
M  END
>  <MolRegNo>
343256

>  <m>
=

>  <Value>
1000

>  <Unit>
nM

>  <Type>
IC50

>  <pValue>
6

>  <Ligand Efficiency>
0

>  <Binding Efficiency>
0

>  <Surface Efficiency>
0

>  <Assay Index>
259638

>  <Assay Category>


>  <Assay Organism>
Homo sapiens

>  <Target ID>
17045

>  <Target Name>
Cytochrome P450 3A4

>  <Target Organism>
Homo sapiens

>  <Target Description>
Target is a single protein chain

>  <Sequence Accession>
P08684

>  <Reference>
J Med Chem 49 (7), 2143-2146 (2006)

>  <Pubmed ID>
16570908

>  <DOI>
10.1021/jm051106d

$$$$
343030
Actelion Java MolfileCreator 1.0

 30 33  0  0  0  0  0  0  0  0999 V2000
    0.0000   -0.0000   -0.0000 S   0  0  0  0  0  0  0  0  0  0  0  0
   -0.0119    1.5144   -0.0000 O   0  0  0  0  0  0  0  0  0  0  0  0
    0.0000   -1.4905   -0.0000 O   0  0  0  0  0  0  0  0  0  0  0  0
    1.4905   -0.0000   -0.0000 C   0  0  0  0  0  0  0  0  0  0  0  0
   -1.5263    0.0119   -0.0000 C   0  0  0  0  0  0  0  0  0  0  0  0
    2.2179   -1.2997   -0.0000 C   0  0  0  0  0  0  0  0  0  0  0  0
    3.7084   -1.2997   -0.0000 C   0  0  0  0  0  0  0  0  0  0  0  0
    4.4358   -2.5995   -0.0000 O   0  0  0  0  0  0  0  0  0  0  0  0
    5.9263   -2.5995   -0.0000 C   0  0  0  0  0  0  0  0  0  0  0  0
    6.8087   -1.3713   -0.0000 C   0  0  0  0  0  0  0  0  0  0  0  0
    6.7968   -3.8157   -0.0000 C   0  0  0  0  0  0  0  0  0  0  0  0
    8.2277   -1.8244   -0.0000 C   0  0  0  0  0  0  0  0  0  0  0  0
    6.3317    0.0715   -0.0000 C   0  0  0  0  0  0  0  0  0  0  0  0
    8.2277   -3.3388   -0.0000 N   0  0  0  0  0  0  0  0  0  0  0  0
    9.5155   -1.0613   -0.0000 C   0  0  0  0  0  0  0  0  0  0  0  0
    9.5155   -4.0781   -0.0000 N   0  0  0  0  0  0  0  0  0  0  0  0
    9.5036    0.4531   -0.0000 O   0  0  0  0  0  0  0  0  0  0  0  0
   10.8033   -1.8005   -0.0000 N   0  0  0  0  0  0  0  0  0  0  0  0
   10.8033   -3.3149   -0.0000 C   0  0  0  0  0  0  0  0  0  0  0  0
   10.7914    1.2163   -0.0000 C   0  0  0  0  0  0  0  0  0  0  0  0
   12.0792    0.4650   -0.0000 C   0  0  0  0  0  0  0  0  0  0  0  0
   10.7794    2.7187   -0.0000 C   0  0  0  0  0  0  0  0  0  0  0  0
   12.0673   -1.0255   -0.0000 F   0  0  0  0  0  0  0  0  0  0  0  0
   13.3551    1.2282   -0.0000 C   0  0  0  0  0  0  0  0  0  0  0  0
   12.0673    3.4819   -0.0000 C   0  0  0  0  0  0  0  0  0  0  0  0
   13.3431    2.7545   -0.0000 C   0  0  0  0  0  0  0  0  0  0  0  0
   14.7740    0.7631   -0.0000 C   0  0  0  0  0  0  0  0  0  0  0  0
   14.7740    3.2314   -0.0000 N   0  0  0  0  0  0  0  0  0  0  0  0
   15.6564    1.9913   -0.0000 C   0  0  0  0  0  0  0  0  0  0  0  0
   17.1469    2.0033   -0.0000 C   0  0  0  0  0  0  0  0  0  0  0  0
  1  2  2  0  0  0  0
  1  3  2  0  0  0  0
  1  4  1  0  0  0  0
  1  5  1  0  0  0  0
  4  6  1  0  0  0  0
  6  7  1  0  0  0  0
  7  8  1  0  0  0  0
  8  9  1  0  0  0  0
  9 10  1  0  0  0  0
  9 11  2  0  0  0  0
 10 12  2  0  0  0  0
 10 13  1  0  0  0  0
 11 14  1  0  0  0  0
 12 15  1  0  0  0  0
 14 16  1  0  0  0  0
 15 17  1  0  0  0  0
 15 18  2  0  0  0  0
 16 19  2  0  0  0  0
 17 20  1  0  0  0  0
 20 21  2  0  0  0  0
 20 22  1  0  0  0  0
 21 23  1  0  0  0  0
 21 24  1  0  0  0  0
 22 25  2  0  0  0  0
 24 26  2  0  0  0  0
 24 27  1  0  0  0  0
 26 28  1  0  0  0  0
 27 29  2  0  0  0  0
 29 30  1  0  0  0  0
 12 14  1  0  0  0  0
 18 19  1  0  0  0  0
 25 26  1  0  0  0  0
 28 29  1  0  0  0  0
M  END
>  <MolRegNo>
343030

>  <m>
=

>  <Value>
17000

>  <Unit>
nM

>  <Type>
IC50

>  <pValue>
4.77

>  <Ligand Efficiency>
0

>  <Binding Efficiency>
0

>  <Surface Efficiency>
0

>  <Assay Index>
259638

>  <Assay Category>


>  <Assay Organism>
Homo sapiens

>  <Target ID>
17045

>  <Target Name>
Cytochrome P450 3A4

>  <Target Organism>
Homo sapiens

>  <Target Description>
Target is a single protein chain

>  <Sequence Accession>
P08684

>  <Reference>
J Med Chem 49 (7), 2143-2146 (2006)

>  <Pubmed ID>
16570908

>  <DOI>
10.1021/jm051106d

$$$$
343049
Actelion Java MolfileCreator 1.0

 29 32  0  0  1  0  0  0  0  0999 V2000
    0.0000   -0.0000   -0.0000 F   0  0  0  0  0  0  0  0  0  0  0  0
   -0.0119    1.5064   -0.0000 C   0  0  0  0  0  0  0  0  0  0  0  0
   -1.3166    2.2774   -0.0000 C   0  0  0  0  0  0  0  0  0  0  0  0
    1.2573    2.2655   -0.0000 C   0  0  0  0  0  0  0  0  0  0  0  0
   -2.6214    1.5420   -0.0000 O   0  0  0  0  0  0  0  0  0  0  0  0
   -1.3285    3.7719   -0.0000 C   0  0  0  0  0  0  0  0  0  0  0  0
    1.2454    3.7838   -0.0000 C   0  0  0  0  0  0  0  0  0  0  0  0
    2.6688    1.8029   -0.0000 C   0  0  0  0  0  0  0  0  0  0  0  0
   -2.6332    0.0593   -0.0000 C   0  0  0  0  0  0  0  0  0  0  0  0
   -0.0474    4.5311   -0.0000 C   0  0  0  0  0  0  0  0  0  0  0  0
    2.6688    4.2583   -0.0000 N   0  0  0  0  0  0  0  0  0  0  0  0
    3.5466    3.0247   -0.0000 C   0  0  0  0  0  0  0  0  0  0  0  0
   -1.3522   -0.6761   -0.0000 N   0  0  0  0  0  0  0  0  0  0  0  0
   -3.9380   -0.6761   -0.0000 C   0  0  0  0  0  0  0  0  0  0  0  0
    5.0292    3.0365   -0.0000 C   0  0  0  0  0  0  0  0  0  0  0  0
   -1.3641   -2.1706   -0.0000 C   0  0  0  0  0  0  0  0  0  0  0  0
   -3.9499   -2.1706   -0.0000 N   0  0  0  0  0  0  0  0  0  0  0  0
   -5.3851   -0.2016   -0.0000 C   0  0  0  0  0  0  0  0  0  0  0  0
   -2.6807   -2.9060   -0.0000 N   0  0  0  0  0  0  0  0  0  0  0  0
   -5.3969   -2.6214   -0.0000 C   0  0  0  0  0  0  0  0  0  0  0  0
   -6.2866   -1.3996   -0.0000 C   0  0  0  0  0  0  0  0  0  0  0  0
   -5.8595    1.2336   -0.0000 C   0  0  0  0  0  0  0  0  0  0  0  0
   -7.7930   -1.3996   -0.0000 O   0  0  0  0  0  0  0  0  0  0  0  0
   -8.5639   -0.0949   -0.0000 C   0  0  0  0  0  0  0  0  0  0  0  0
  -10.0704   -0.0949   -0.0000 C   0  0  0  0  0  0  0  0  0  0  0  0
  -10.8413    1.2099   -0.0000 O   0  0  0  0  0  0  0  0  0  0  0  0
  -10.8176   -1.3878   -0.0000 C   0  0  0  0  0  0  0  0  0  0  0  0
  -12.3240   -1.3878   -0.0000 O   0  0  0  0  0  0  0  0  0  0  0  0
  -13.0713   -2.6807   -0.0000 C   0  0  0  0  0  0  0  0  0  0  0  0
  1  2  1  0  0  0  0
  2  3  2  0  0  0  0
  2  4  1  0  0  0  0
  3  5  1  0  0  0  0
  3  6  1  0  0  0  0
  4  7  2  0  0  0  0
  4  8  1  0  0  0  0
  5  9  1  0  0  0  0
  6 10  2  0  0  0  0
  7 11  1  0  0  0  0
  8 12  2  0  0  0  0
  9 13  2  0  0  0  0
  9 14  1  0  0  0  0
 12 15  1  0  0  0  0
 13 16  1  0  0  0  0
 14 17  1  0  0  0  0
 14 18  2  0  0  0  0
 16 19  2  0  0  0  0
 17 20  1  0  0  0  0
 18 21  1  0  0  0  0
 18 22  1  0  0  0  0
 21 23  1  0  0  0  0
 23 24  1  0  0  0  0
 24 25  1  0  0  0  0
 25 26  1  1  0  0  0
 25 27  1  0  0  0  0
 27 28  1  0  0  0  0
 28 29  1  0  0  0  0
  7 10  1  0  0  0  0
 11 12  1  0  0  0  0
 17 19  1  0  0  0  0
 20 21  2  0  0  0  0
M  END
>  <MolRegNo>
343049

>  <m>
=

>  <Value>
1000

>  <Unit>
nM

>  <Type>
IC50

>  <pValue>
6

>  <Ligand Efficiency>
0

>  <Binding Efficiency>
0

>  <Surface Efficiency>
0

>  <Assay Index>
259638

>  <Assay Category>


>  <Assay Organism>
Homo sapiens

>  <Target ID>
17045

>  <Target Name>
Cytochrome P450 3A4

>  <Target Organism>
Homo sapiens

>  <Target Description>
Target is a single protein chain

>  <Sequence Accession>
P08684

>  <Reference>
J Med Chem 49 (7), 2143-2146 (2006)

>  <Pubmed ID>
16570908

>  <DOI>
10.1021/jm051106d

$$$$
343042
Actelion Java MolfileCreator 1.0

 27 30  0  0  1  0  0  0  0  0999 V2000
    0.0000   -0.0000   -0.0000 F   0  0  0  0  0  0  0  0  0  0  0  0
   -0.0119    1.5065   -0.0000 C   0  0  0  0  0  0  0  0  0  0  0  0
   -1.3167    2.2775   -0.0000 C   0  0  0  0  0  0  0  0  0  0  0  0
    1.2574    2.2657   -0.0000 C   0  0  0  0  0  0  0  0  0  0  0  0
   -2.6215    1.5421   -0.0000 O   0  0  0  0  0  0  0  0  0  0  0  0
   -1.3286    3.7722   -0.0000 C   0  0  0  0  0  0  0  0  0  0  0  0
    1.2455    3.7840   -0.0000 C   0  0  0  0  0  0  0  0  0  0  0  0
    2.6690    1.8031   -0.0000 C   0  0  0  0  0  0  0  0  0  0  0  0
   -2.6334    0.0593   -0.0000 C   0  0  0  0  0  0  0  0  0  0  0  0
   -0.0474    4.5314   -0.0000 C   0  0  0  0  0  0  0  0  0  0  0  0
    2.6690    4.2585   -0.0000 N   0  0  0  0  0  0  0  0  0  0  0  0
    3.5468    3.0249   -0.0000 C   0  0  0  0  0  0  0  0  0  0  0  0
   -1.3523   -0.6761   -0.0000 N   0  0  0  0  0  0  0  0  0  0  0  0
   -3.9382   -0.6761   -0.0000 C   0  0  0  0  0  0  0  0  0  0  0  0
    5.0296    3.0367   -0.0000 C   0  0  0  0  0  0  0  0  0  0  0  0
   -1.3642   -2.1708   -0.0000 C   0  0  0  0  0  0  0  0  0  0  0  0
   -3.9501   -2.1708   -0.0000 N   0  0  0  0  0  0  0  0  0  0  0  0
   -5.3736   -0.2017   -0.0000 C   0  0  0  0  0  0  0  0  0  0  0  0
   -2.6809   -2.9062   -0.0000 N   0  0  0  0  0  0  0  0  0  0  0  0
   -5.3973   -2.6215   -0.0000 C   0  0  0  0  0  0  0  0  0  0  0  0
   -6.2751   -1.3997   -0.0000 C   0  0  0  0  0  0  0  0  0  0  0  0
   -5.8481    1.2337   -0.0000 C   0  0  0  0  0  0  0  0  0  0  0  0
   -7.7935   -1.4235   -0.0000 O   0  0  0  0  0  0  0  0  0  0  0  0
   -8.5882   -0.1305   -0.0000 C   0  0  0  0  0  0  0  0  0  0  0  0
  -10.0947   -0.1542   -0.0000 C   0  0  0  0  0  0  0  0  0  0  0  0
  -10.8895    1.1388   -0.0000 O   0  0  0  0  0  0  0  0  0  0  0  0
  -10.8183   -1.4590   -0.0000 C   0  0  0  0  0  0  0  0  0  0  0  0
  1  2  1  0  0  0  0
  2  3  2  0  0  0  0
  2  4  1  0  0  0  0
  3  5  1  0  0  0  0
  3  6  1  0  0  0  0
  4  7  2  0  0  0  0
  4  8  1  0  0  0  0
  5  9  1  0  0  0  0
  6 10  2  0  0  0  0
  7 11  1  0  0  0  0
  8 12  2  0  0  0  0
  9 13  2  0  0  0  0
  9 14  1  0  0  0  0
 12 15  1  0  0  0  0
 13 16  1  0  0  0  0
 14 17  1  0  0  0  0
 14 18  2  0  0  0  0
 16 19  2  0  0  0  0
 17 20  1  0  0  0  0
 18 21  1  0  0  0  0
 18 22  1  0  0  0  0
 21 23  1  0  0  0  0
 23 24  1  0  0  0  0
 24 25  1  0  0  0  0
 25 26  1  6  0  0  0
 25 27  1  0  0  0  0
  7 10  1  0  0  0  0
 11 12  1  0  0  0  0
 17 19  1  0  0  0  0
 20 21  2  0  0  0  0
M  END
>  <MolRegNo>
343042

>  <m>
=

>  <Value>
4000

>  <Unit>
nM

>  <Type>
IC50

>  <pValue>
5.4

>  <Ligand Efficiency>
0

>  <Binding Efficiency>
0

>  <Surface Efficiency>
0

>  <Assay Index>
259638

>  <Assay Category>


>  <Assay Organism>
Homo sapiens

>  <Target ID>
17045

>  <Target Name>
Cytochrome P450 3A4

>  <Target Organism>
Homo sapiens

>  <Target Description>
Target is a single protein chain

>  <Sequence Accession>
P08684

>  <Reference>
J Med Chem 49 (7), 2143-2146 (2006)

>  <Pubmed ID>
16570908

>  <DOI>
10.1021/jm051106d

$$$$
343041
Actelion Java MolfileCreator 1.0

 27 30  0  0  0  0  0  0  0  0999 V2000
    0.0000   -0.0000   -0.0000 F   0  0  0  0  0  0  0  0  0  0  0  0
    0.7430    1.3091   -0.0000 C   0  0  0  0  0  0  0  0  0  0  0  0
   -0.0236    2.6182   -0.0000 C   0  0  0  0  0  0  0  0  0  0  0  0
    2.2290    1.3209   -0.0000 C   0  0  0  0  0  0  0  0  0  0  0  0
   -1.5332    2.6299   -0.0000 O   0  0  0  0  0  0  0  0  0  0  0  0
    0.7194    3.9272   -0.0000 C   0  0  0  0  0  0  0  0  0  0  0  0
    2.9720    2.6299   -0.0000 C   0  0  0  0  0  0  0  0  0  0  0  0
    3.2196    0.2241   -0.0000 C   0  0  0  0  0  0  0  0  0  0  0  0
   -2.2879    3.9390   -0.0000 C   0  0  0  0  0  0  0  0  0  0  0  0
    2.2054    3.9390   -0.0000 C   0  0  0  0  0  0  0  0  0  0  0  0
    4.4226    2.3351   -0.0000 N   0  0  0  0  0  0  0  0  0  0  0  0
    4.5759    0.8491   -0.0000 C   0  0  0  0  0  0  0  0  0  0  0  0
   -1.5567    5.2481   -0.0000 N   0  0  0  0  0  0  0  0  0  0  0  0
   -3.7975    3.9508   -0.0000 C   0  0  0  0  0  0  0  0  0  0  0  0
    5.8614    0.1179   -0.0000 C   0  0  0  0  0  0  0  0  0  0  0  0
   -2.3115    6.5572   -0.0000 C   0  0  0  0  0  0  0  0  0  0  0  0
   -4.5523    5.2599   -0.0000 N   0  0  0  0  0  0  0  0  0  0  0  0
   -4.8117    2.8540   -0.0000 C   0  0  0  0  0  0  0  0  0  0  0  0
   -3.8211    6.5690   -0.0000 N   0  0  0  0  0  0  0  0  0  0  0  0
   -6.0265    4.9651   -0.0000 C   0  0  0  0  0  0  0  0  0  0  0  0
   -6.1916    3.4791   -0.0000 C   0  0  0  0  0  0  0  0  0  0  0  0
   -4.5169    1.4034   -0.0000 C   0  0  0  0  0  0  0  0  0  0  0  0
   -7.5007    2.7479   -0.0000 O   0  0  0  0  0  0  0  0  0  0  0  0
   -8.8097    3.5027   -0.0000 C   0  0  0  0  0  0  0  0  0  0  0  0
  -10.1188    2.7715   -0.0000 C   0  0  0  0  0  0  0  0  0  0  0  0
  -11.4279    3.5263   -0.0000 O   0  0  0  0  0  0  0  0  0  0  0  0
   -9.0692    1.7219   -0.0000 C   0  0  0  0  0  0  0  0  0  0  0  0
  1  2  1  0  0  0  0
  2  3  2  0  0  0  0
  2  4  1  0  0  0  0
  3  5  1  0  0  0  0
  3  6  1  0  0  0  0
  4  7  2  0  0  0  0
  4  8  1  0  0  0  0
  5  9  1  0  0  0  0
  6 10  2  0  0  0  0
  7 11  1  0  0  0  0
  8 12  2  0  0  0  0
  9 13  2  0  0  0  0
  9 14  1  0  0  0  0
 12 15  1  0  0  0  0
 13 16  1  0  0  0  0
 14 17  1  0  0  0  0
 14 18  2  0  0  0  0
 16 19  2  0  0  0  0
 17 20  1  0  0  0  0
 18 21  1  0  0  0  0
 18 22  1  0  0  0  0
 21 23  1  0  0  0  0
 23 24  1  0  0  0  0
 24 25  1  0  0  0  0
 25 26  1  6  0  0  0
 25 27  1  0  0  0  0
  7 10  1  0  0  0  0
 11 12  1  0  0  0  0
 17 19  1  0  0  0  0
 20 21  2  0  0  0  0
M  END
>  <MolRegNo>
343041

>  <m>
=

>  <Value>
18000

>  <Unit>
nM

>  <Type>
IC50

>  <pValue>
4.75

>  <Ligand Efficiency>
0

>  <Binding Efficiency>
0

>  <Surface Efficiency>
0

>  <Assay Index>
259638

>  <Assay Category>


>  <Assay Organism>
Homo sapiens

>  <Target ID>
17045

>  <Target Name>
Cytochrome P450 3A4

>  <Target Organism>
Homo sapiens

>  <Target Description>
Target is a single protein chain

>  <Sequence Accession>
P08684

>  <Reference>
J Med Chem 49 (7), 2143-2146 (2006)

>  <Pubmed ID>
16570908

>  <DOI>
10.1021/jm051106d

$$$$
343034
Actelion Java MolfileCreator 1.0

 31 35  0  0  1  0  0  0  0  0999 V2000
    0.0000   -0.0000   -0.0000 F   0  0  0  0  0  0  0  0  0  0  0  0
   -0.0119    1.5050   -0.0000 C   0  0  0  0  0  0  0  0  0  0  0  0
   -1.3154    2.2752   -0.0000 C   0  0  0  0  0  0  0  0  0  0  0  0
    1.2561    2.2634   -0.0000 C   0  0  0  0  0  0  0  0  0  0  0  0
   -2.6189    1.5405   -0.0000 O   0  0  0  0  0  0  0  0  0  0  0  0
   -1.3272    3.7684   -0.0000 C   0  0  0  0  0  0  0  0  0  0  0  0
    1.2443    3.7802   -0.0000 C   0  0  0  0  0  0  0  0  0  0  0  0
    2.6663    1.8012   -0.0000 C   0  0  0  0  0  0  0  0  0  0  0  0
   -2.6307    0.0593   -0.0000 C   0  0  0  0  0  0  0  0  0  0  0  0
   -0.0474    4.5268   -0.0000 C   0  0  0  0  0  0  0  0  0  0  0  0
    2.6663    4.2542   -0.0000 N   0  0  0  0  0  0  0  0  0  0  0  0
    3.5432    3.0218   -0.0000 C   0  0  0  0  0  0  0  0  0  0  0  0
   -1.3509   -0.6755   -0.0000 N   0  0  0  0  0  0  0  0  0  0  0  0
   -3.9343   -0.6755   -0.0000 C   0  0  0  0  0  0  0  0  0  0  0  0
    5.0245    3.0336   -0.0000 C   0  0  0  0  0  0  0  0  0  0  0  0
   -1.3628   -2.1686   -0.0000 C   0  0  0  0  0  0  0  0  0  0  0  0
   -3.9461   -2.1686   -0.0000 N   0  0  0  0  0  0  0  0  0  0  0  0
   -5.3800   -0.2015   -0.0000 C   0  0  0  0  0  0  0  0  0  0  0  0
   -2.6781   -2.9033   -0.0000 N   0  0  0  0  0  0  0  0  0  0  0  0
   -5.3918   -2.6189   -0.0000 C   0  0  0  0  0  0  0  0  0  0  0  0
   -6.2806   -1.3983   -0.0000 C   0  0  0  0  0  0  0  0  0  0  0  0
   -5.8540    1.2324   -0.0000 C   0  0  0  0  0  0  0  0  0  0  0  0
   -7.7974   -1.3746   -0.0000 O   0  0  0  0  0  0  0  0  0  0  0  0
   -8.5440   -0.0593   -0.0000 C   0  0  0  0  0  0  0  0  0  0  0  0
  -10.0489   -0.0356   -0.0000 C   0  0  0  0  0  0  0  0  0  0  0  0
  -10.7955    1.2798   -0.0000 N   0  0  0  0  0  0  0  0  0  0  0  0
  -12.2886    1.4576   -0.0000 C   0  0  0  0  0  0  0  0  0  0  0  0
  -10.1911    2.6544   -0.0000 C   0  0  0  0  0  0  0  0  0  0  0  0
  -12.5967    2.9388   -0.0000 C   0  0  0  0  0  0  0  0  0  0  0  0
  -11.3051    3.6736   -0.0000 C   0  0  0  0  0  0  0  0  0  0  0  0
  -13.9714    3.5669   -0.0000 O   0  0  0  0  0  0  0  0  0  0  0  0
  1  2  1  0  0  0  0
  2  3  2  0  0  0  0
  2  4  1  0  0  0  0
  3  5  1  0  0  0  0
  3  6  1  0  0  0  0
  4  7  2  0  0  0  0
  4  8  1  0  0  0  0
  5  9  1  0  0  0  0
  6 10  2  0  0  0  0
  7 11  1  0  0  0  0
  8 12  2  0  0  0  0
  9 13  2  0  0  0  0
  9 14  1  0  0  0  0
 12 15  1  0  0  0  0
 13 16  1  0  0  0  0
 14 17  1  0  0  0  0
 14 18  2  0  0  0  0
 16 19  2  0  0  0  0
 17 20  1  0  0  0  0
 18 21  1  0  0  0  0
 18 22  1  0  0  0  0
 21 23  1  0  0  0  0
 23 24  1  0  0  0  0
 24 25  1  0  0  0  0
 25 26  1  0  0  0  0
 26 27  1  0  0  0  0
 26 28  1  0  0  0  0
 27 29  1  0  0  0  0
 28 30  1  0  0  0  0
 29 31  1  1  0  0  0
  7 10  1  0  0  0  0
 11 12  1  0  0  0  0
 17 19  1  0  0  0  0
 20 21  2  0  0  0  0
 29 30  1  0  0  0  0
M  END
>  <MolRegNo>
343034

>  <m>
=

>  <Value>
10000

>  <Unit>
nM

>  <Type>
IC50

>  <pValue>
5

>  <Ligand Efficiency>
0

>  <Binding Efficiency>
0

>  <Surface Efficiency>
0

>  <Assay Index>
259638

>  <Assay Category>


>  <Assay Organism>
Homo sapiens

>  <Target ID>
17045

>  <Target Name>
Cytochrome P450 3A4

>  <Target Organism>
Homo sapiens

>  <Target Description>
Target is a single protein chain

>  <Sequence Accession>
P08684

>  <Reference>
J Med Chem 49 (7), 2143-2146 (2006)

>  <Pubmed ID>
16570908

>  <DOI>
10.1021/jm051106d

$$$$
342970
Actelion Java MolfileCreator 1.0

 31 35  0  0  0  0  0  0  0  0999 V2000
    0.0000   -0.0000   -0.0000 F   0  0  0  0  0  0  0  0  0  0  0  0
   -0.0119    1.5058   -0.0000 C   0  0  0  0  0  0  0  0  0  0  0  0
   -1.3161    2.2765   -0.0000 C   0  0  0  0  0  0  0  0  0  0  0  0
    1.2568    2.2647   -0.0000 C   0  0  0  0  0  0  0  0  0  0  0  0
   -2.6204    1.5414   -0.0000 O   0  0  0  0  0  0  0  0  0  0  0  0
   -1.3280    3.7705   -0.0000 C   0  0  0  0  0  0  0  0  0  0  0  0
    1.2450    3.7823   -0.0000 C   0  0  0  0  0  0  0  0  0  0  0  0
    2.6678    1.8022   -0.0000 C   0  0  0  0  0  0  0  0  0  0  0  0
   -2.6322    0.0593   -0.0000 C   0  0  0  0  0  0  0  0  0  0  0  0
   -0.0474    4.5293   -0.0000 C   0  0  0  0  0  0  0  0  0  0  0  0
    2.6678    4.2566   -0.0000 N   0  0  0  0  0  0  0  0  0  0  0  0
    3.5452    3.0235   -0.0000 C   0  0  0  0  0  0  0  0  0  0  0  0
   -1.3517   -0.6758   -0.0000 N   0  0  0  0  0  0  0  0  0  0  0  0
   -3.9365   -0.6758   -0.0000 C   0  0  0  0  0  0  0  0  0  0  0  0
    5.0273    3.0354   -0.0000 C   0  0  0  0  0  0  0  0  0  0  0  0
   -1.3635   -2.1698   -0.0000 C   0  0  0  0  0  0  0  0  0  0  0  0
   -3.9483   -2.1698   -0.0000 N   0  0  0  0  0  0  0  0  0  0  0  0
   -5.3830   -0.2016   -0.0000 C   0  0  0  0  0  0  0  0  0  0  0  0
   -2.6796   -2.9049   -0.0000 N   0  0  0  0  0  0  0  0  0  0  0  0
   -5.3949   -2.6204   -0.0000 C   0  0  0  0  0  0  0  0  0  0  0  0
   -6.2841   -1.3991   -0.0000 C   0  0  0  0  0  0  0  0  0  0  0  0
   -5.8573    1.2331   -0.0000 C   0  0  0  0  0  0  0  0  0  0  0  0
   -7.7899   -1.3991   -0.0000 O   0  0  0  0  0  0  0  0  0  0  0  0
   -8.5606   -0.0949   -0.0000 C   0  0  0  0  0  0  0  0  0  0  0  0
  -10.0665   -0.0949   -0.0000 C   0  0  0  0  0  0  0  0  0  0  0  0
  -10.8372    1.2094   -0.0000 C   0  0  0  0  0  0  0  0  0  0  0  0
  -12.3430    1.2094   -0.0000 N   0  0  0  0  0  0  0  0  0  0  0  0
  -13.2322    2.4188   -0.0000 C   0  0  0  0  0  0  0  0  0  0  0  0
  -13.2204   -0.0000   -0.0000 C   0  0  0  0  0  0  0  0  0  0  0  0
  -14.6669    1.9564   -0.0000 C   0  0  0  0  0  0  0  0  0  0  0  0
  -14.6551    0.4624   -0.0000 C   0  0  0  0  0  0  0  0  0  0  0  0
  1  2  1  0  0  0  0
  2  3  2  0  0  0  0
  2  4  1  0  0  0  0
  3  5  1  0  0  0  0
  3  6  1  0  0  0  0
  4  7  2  0  0  0  0
  4  8  1  0  0  0  0
  5  9  1  0  0  0  0
  6 10  2  0  0  0  0
  7 11  1  0  0  0  0
  8 12  2  0  0  0  0
  9 13  2  0  0  0  0
  9 14  1  0  0  0  0
 12 15  1  0  0  0  0
 13 16  1  0  0  0  0
 14 17  1  0  0  0  0
 14 18  2  0  0  0  0
 16 19  2  0  0  0  0
 17 20  1  0  0  0  0
 18 21  1  0  0  0  0
 18 22  1  0  0  0  0
 21 23  1  0  0  0  0
 23 24  1  0  0  0  0
 24 25  1  0  0  0  0
 25 26  1  0  0  0  0
 26 27  1  0  0  0  0
 27 28  1  0  0  0  0
 27 29  1  0  0  0  0
 28 30  1  0  0  0  0
 29 31  1  0  0  0  0
  7 10  1  0  0  0  0
 11 12  1  0  0  0  0
 17 19  1  0  0  0  0
 20 21  2  0  0  0  0
 30 31  1  0  0  0  0
M  END
>  <MolRegNo>
342970

>  <m>
=

>  <Value>
3400

>  <Unit>
nM

>  <Type>
IC50

>  <pValue>
5.47

>  <Ligand Efficiency>
0

>  <Binding Efficiency>
0

>  <Surface Efficiency>
0

>  <Assay Index>
259638

>  <Assay Category>


>  <Assay Organism>
Homo sapiens

>  <Target ID>
17045

>  <Target Name>
Cytochrome P450 3A4

>  <Target Organism>
Homo sapiens

>  <Target Description>
Target is a single protein chain

>  <Sequence Accession>
P08684

>  <Reference>
J Med Chem 49 (7), 2143-2146 (2006)

>  <Pubmed ID>
16570908

>  <DOI>
10.1021/jm051106d

$$$$
342969
Actelion Java MolfileCreator 1.0

 32 36  0  0  0  0  0  0  0  0999 V2000
    0.0000   -0.0000   -0.0000 F   0  0  0  0  0  0  0  0  0  0  0  0
   -0.0118    1.5049   -0.0000 C   0  0  0  0  0  0  0  0  0  0  0  0
   -1.3153    2.2752   -0.0000 C   0  0  0  0  0  0  0  0  0  0  0  0
    1.2561    2.2633   -0.0000 C   0  0  0  0  0  0  0  0  0  0  0  0
   -2.6188    1.5405   -0.0000 O   0  0  0  0  0  0  0  0  0  0  0  0
   -1.3272    3.7683   -0.0000 C   0  0  0  0  0  0  0  0  0  0  0  0
    1.2442    3.7801   -0.0000 C   0  0  0  0  0  0  0  0  0  0  0  0
    2.6662    1.8012   -0.0000 C   0  0  0  0  0  0  0  0  0  0  0  0
   -2.6307    0.0592   -0.0000 C   0  0  0  0  0  0  0  0  0  0  0  0
   -0.0474    4.5266   -0.0000 C   0  0  0  0  0  0  0  0  0  0  0  0
    2.6662    4.2541   -0.0000 N   0  0  0  0  0  0  0  0  0  0  0  0
    3.5431    3.0217   -0.0000 C   0  0  0  0  0  0  0  0  0  0  0  0
   -1.3509   -0.6754   -0.0000 N   0  0  0  0  0  0  0  0  0  0  0  0
   -3.9342   -0.6754   -0.0000 C   0  0  0  0  0  0  0  0  0  0  0  0
    5.0243    3.0336   -0.0000 C   0  0  0  0  0  0  0  0  0  0  0  0
   -1.3627   -2.1685   -0.0000 C   0  0  0  0  0  0  0  0  0  0  0  0
   -3.9460   -2.1685   -0.0000 N   0  0  0  0  0  0  0  0  0  0  0  0
   -5.3798   -0.2014   -0.0000 C   0  0  0  0  0  0  0  0  0  0  0  0
   -2.6781   -2.9032   -0.0000 N   0  0  0  0  0  0  0  0  0  0  0  0
   -5.3917   -2.6188   -0.0000 C   0  0  0  0  0  0  0  0  0  0  0  0
   -6.2804   -1.3983   -0.0000 C   0  0  0  0  0  0  0  0  0  0  0  0
   -5.8538    1.2324   -0.0000 C   0  0  0  0  0  0  0  0  0  0  0  0
   -7.7854   -1.3864   -0.0000 O   0  0  0  0  0  0  0  0  0  0  0  0
   -8.5438   -0.0829   -0.0000 C   0  0  0  0  0  0  0  0  0  0  0  0
  -10.0487   -0.0711   -0.0000 C   0  0  0  0  0  0  0  0  0  0  0  0
  -10.8071    1.2324   -0.0000 C   0  0  0  0  0  0  0  0  0  0  0  0
  -10.0724    2.5359   -0.0000 C   0  0  0  0  0  0  0  0  0  0  0  0
  -12.3239    1.2442   -0.0000 C   0  0  0  0  0  0  0  0  0  0  0  0
  -10.8189    3.8394   -0.0000 C   0  0  0  0  0  0  0  0  0  0  0  0
  -13.0704    2.5596   -0.0000 C   0  0  0  0  0  0  0  0  0  0  0  0
  -12.3239    3.8631   -0.0000 N   0  0  0  0  0  0  0  0  0  0  0  0
  -13.0704    5.1784   -0.0000 C   0  0  0  0  0  0  0  0  0  0  0  0
  1  2  1  0  0  0  0
  2  3  2  0  0  0  0
  2  4  1  0  0  0  0
  3  5  1  0  0  0  0
  3  6  1  0  0  0  0
  4  7  2  0  0  0  0
  4  8  1  0  0  0  0
  5  9  1  0  0  0  0
  6 10  2  0  0  0  0
  7 11  1  0  0  0  0
  8 12  2  0  0  0  0
  9 13  2  0  0  0  0
  9 14  1  0  0  0  0
 12 15  1  0  0  0  0
 13 16  1  0  0  0  0
 14 17  1  0  0  0  0
 14 18  2  0  0  0  0
 16 19  2  0  0  0  0
 17 20  1  0  0  0  0
 18 21  1  0  0  0  0
 18 22  1  0  0  0  0
 21 23  1  0  0  0  0
 23 24  1  0  0  0  0
 24 25  1  0  0  0  0
 25 26  1  0  0  0  0
 26 27  1  0  0  0  0
 26 28  1  0  0  0  0
 27 29  1  0  0  0  0
 28 30  1  0  0  0  0
 29 31  1  0  0  0  0
 31 32  1  0  0  0  0
  7 10  1  0  0  0  0
 11 12  1  0  0  0  0
 17 19  1  0  0  0  0
 20 21  2  0  0  0  0
 30 31  1  0  0  0  0
M  END
>  <MolRegNo>
342969

>  <m>
=

>  <Value>
700

>  <Unit>
nM

>  <Type>
IC50

>  <pValue>
6.16

>  <Ligand Efficiency>
0

>  <Binding Efficiency>
0

>  <Surface Efficiency>
0

>  <Assay Index>
259638

>  <Assay Category>


>  <Assay Organism>
Homo sapiens

>  <Target ID>
17045

>  <Target Name>
Cytochrome P450 3A4

>  <Target Organism>
Homo sapiens

>  <Target Description>
Target is a single protein chain

>  <Sequence Accession>
P08684

>  <Reference>
J Med Chem 49 (7), 2143-2146 (2006)

>  <Pubmed ID>
16570908

>  <DOI>
10.1021/jm051106d

$$$$
345302
Actelion Java MolfileCreator 1.0

 35 39  0  0  1  0  0  0  0  0999 V2000
    0.0000   -0.0000   -0.0000 S   0  0  0  0  0  0  0  0  0  0  0  0
   -1.4449    0.4738   -0.0000 C   0  0  0  0  0  0  0  0  0  0  0  0
    0.8646    1.2318   -0.0000 C   0  0  0  0  0  0  0  0  0  0  0  0
   -2.7478   -0.2606   -0.0000 N   0  0  0  0  0  0  0  0  0  0  0  0
   -1.4449    1.9898   -0.0000 C   0  0  0  0  0  0  0  0  0  0  0  0
   -0.0237    2.4517   -0.0000 C   0  0  0  0  0  0  0  0  0  0  0  0
    2.3569    1.2436   -0.0000 C   0  0  0  0  0  0  0  0  0  0  0  0
   -4.0624    0.4974   -0.0000 C   0  0  0  0  0  0  0  0  0  0  0  0
   -2.7596   -1.7529   -0.0000 C   0  0  0  0  0  0  0  0  0  0  0  0
   -2.7596    2.7596   -0.0000 C   0  0  0  0  0  0  0  0  0  0  0  0
    0.4264    3.8848   -0.0000 C   0  0  0  0  0  0  0  0  0  0  0  0
    3.1031   -0.0474   -0.0000 C   0  0  0  0  0  0  0  0  0  0  0  0
   -5.3771   -0.2369   -0.0000 O   0  0  0  0  0  0  0  0  0  0  0  0
   -4.0743    2.0134   -0.0000 N   0  0  0  0  0  0  0  0  0  0  0  0
   -4.0743   -2.4990   -0.0000 C   0  0  0  0  0  0  0  0  0  0  0  0
   -2.7714    4.2756   -0.0000 O   0  0  0  0  0  0  0  0  0  0  0  0
   -0.5803    5.0099   -0.0000 O   0  0  0  0  0  0  0  0  0  0  0  0
    1.8832    4.2045   -0.0000 N   0  0  0  0  0  0  0  0  0  0  0  0
    4.5835   -0.0355   -0.0000 C   0  0  0  0  0  0  0  0  0  0  0  0
    2.3332   -1.3383   -0.0000 C   0  0  0  0  0  0  0  0  0  0  0  0
   -5.3889    2.7714   -0.0000 C   0  0  0  0  0  0  0  0  0  0  0  0
   -4.0861   -3.9914   -0.0000 C   0  0  0  0  0  0  0  0  0  0  0  0
   -5.3889   -1.7292   -0.0000 C   0  0  0  0  0  0  0  0  0  0  0  0
    2.4754    5.5784   -0.0000 C   0  0  0  0  0  0  0  0  0  0  0  0
    2.9728    3.2097   -0.0000 C   0  0  0  0  0  0  0  0  0  0  0  0
    5.3179   -1.3265   -0.0000 C   0  0  0  0  0  0  0  0  0  0  0  0
    5.3179    1.2673   -0.0000 C   0  0  0  0  0  0  0  0  0  0  0  0
    3.0794   -2.6293   -0.0000 C   0  0  0  0  0  0  0  0  0  0  0  0
    3.9558    5.4245   -0.0000 C   0  0  0  0  0  0  0  0  0  0  0  0
    4.2638    3.9677   -0.0000 C   0  0  0  0  0  0  0  0  0  0  0  0
    4.5599   -2.6293   -0.0000 N   0  0  0  0  0  0  0  0  0  0  0  0
    6.7983   -1.3147   -0.0000 C   0  0  0  0  0  0  0  0  0  0  0  0
    6.7983    1.2791   -0.0000 C   0  0  0  0  0  0  0  0  0  0  0  0
    4.9507    6.5496   -0.0000 O   0  0  0  0  0  0  0  0  0  0  0  0
    7.5445   -0.0118   -0.0000 C   0  0  0  0  0  0  0  0  0  0  0  0
  1  2  1  0  0  0  0
  1  3  1  0  0  0  0
  2  4  1  0  0  0  0
  2  5  2  0  0  0  0
  3  6  2  0  0  0  0
  3  7  1  0  0  0  0
  4  8  1  0  0  0  0
  4  9  1  0  0  0  0
  5 10  1  0  0  0  0
  6 11  1  0  0  0  0
  7 12  1  0  0  0  0
  8 13  2  0  0  0  0
  8 14  1  0  0  0  0
  9 15  1  0  0  0  0
 10 16  2  0  0  0  0
 11 17  2  0  0  0  0
 11 18  1  0  0  0  0
 12 19  1  0  0  0  0
 12 20  2  0  0  0  0
 14 21  1  0  0  0  0
 15 22  1  0  0  0  0
 15 23  1  0  0  0  0
 18 24  1  0  0  0  0
 18 25  1  0  0  0  0
 19 26  1  0  0  0  0
 19 27  2  0  0  0  0
 20 28  1  0  0  0  0
 24 29  1  0  0  0  0
 25 30  1  0  0  0  0
 26 31  1  0  0  0  0
 26 32  2  0  0  0  0
 27 33  1  0  0  0  0
 29 34  1  6  0  0  0
 32 35  1  0  0  0  0
  5  6  1  0  0  0  0
 10 14  1  0  0  0  0
 28 31  2  0  0  0  0
 29 30  1  0  0  0  0
 33 35  2  0  0  0  0
M  END
>  <MolRegNo>
345302

>  <m>
=

>  <Value>
16000

>  <Unit>
nM

>  <Type>
IC50

>  <pValue>
4.8

>  <Ligand Efficiency>
0

>  <Binding Efficiency>
0

>  <Surface Efficiency>
0

>  <Assay Index>
260686

>  <Assay Category>


>  <Assay Organism>
Homo sapiens

>  <Target ID>
17045

>  <Target Name>
Cytochrome P450 3A4

>  <Target Organism>
Homo sapiens

>  <Target Description>
Target is a single protein chain

>  <Sequence Accession>
P08684

>  <Reference>
Bioorg Med Chem Lett 16 (8), 2260-2265 (2006)

>  <Pubmed ID>
16455256

>  <DOI>
10.1016/j.bmcl.2006.01.024

$$$$
345260
Actelion Java MolfileCreator 1.0

 34 38  0  0  1  0  0  0  0  0999 V2000
    0.0000   -0.0000   -0.0000 S   0  0  0  0  0  0  0  0  0  0  0  0
   -1.4334    0.4738   -0.0000 C   0  0  0  0  0  0  0  0  0  0  0  0
    0.8648    1.2320   -0.0000 C   0  0  0  0  0  0  0  0  0  0  0  0
   -2.7365   -0.2606   -0.0000 N   0  0  0  0  0  0  0  0  0  0  0  0
   -1.4334    1.9902   -0.0000 C   0  0  0  0  0  0  0  0  0  0  0  0
   -0.0118    2.4522   -0.0000 C   0  0  0  0  0  0  0  0  0  0  0  0
    2.3574    1.2438   -0.0000 C   0  0  0  0  0  0  0  0  0  0  0  0
   -4.0514    0.4857   -0.0000 C   0  0  0  0  0  0  0  0  0  0  0  0
   -2.7483   -1.7532   -0.0000 C   0  0  0  0  0  0  0  0  0  0  0  0
   -2.7483    2.7601   -0.0000 C   0  0  0  0  0  0  0  0  0  0  0  0
    0.4383    3.8855   -0.0000 C   0  0  0  0  0  0  0  0  0  0  0  0
    3.0918   -0.0355   -0.0000 C   0  0  0  0  0  0  0  0  0  0  0  0
   -5.3663   -0.2488   -0.0000 O   0  0  0  0  0  0  0  0  0  0  0  0
   -4.0632    2.0020   -0.0000 N   0  0  0  0  0  0  0  0  0  0  0  0
   -4.0632   -2.4995   -0.0000 C   0  0  0  0  0  0  0  0  0  0  0  0
   -2.7601    4.2765   -0.0000 O   0  0  0  0  0  0  0  0  0  0  0  0
   -0.5686    5.0109   -0.0000 O   0  0  0  0  0  0  0  0  0  0  0  0
    1.8954    4.2054   -0.0000 N   0  0  0  0  0  0  0  0  0  0  0  0
    4.4897   -0.4975   -0.0000 C   0  0  0  0  0  0  0  0  0  0  0  0
    2.1797   -1.2438   -0.0000 C   0  0  0  0  0  0  0  0  0  0  0  0
   -5.3781    2.7601   -0.0000 C   0  0  0  0  0  0  0  0  0  0  0  0
   -4.0751   -3.9921   -0.0000 C   0  0  0  0  0  0  0  0  0  0  0  0
   -5.3781   -1.7295   -0.0000 C   0  0  0  0  0  0  0  0  0  0  0  0
    2.4877    5.5795   -0.0000 C   0  0  0  0  0  0  0  0  0  0  0  0
    2.9852    3.2103   -0.0000 C   0  0  0  0  0  0  0  0  0  0  0  0
    4.4778   -1.9902   -0.0000 C   0  0  0  0  0  0  0  0  0  0  0  0
    5.7809    0.2606   -0.0000 C   0  0  0  0  0  0  0  0  0  0  0  0
    3.0445   -2.4522   -0.0000 N   0  0  0  0  0  0  0  0  0  0  0  0
    3.9566    5.4255   -0.0000 C   0  0  0  0  0  0  0  0  0  0  0  0
    4.2765    3.9685   -0.0000 C   0  0  0  0  0  0  0  0  0  0  0  0
    5.7691   -2.7365   -0.0000 N   0  0  0  0  0  0  0  0  0  0  0  0
    7.0721   -0.4857   -0.0000 C   0  0  0  0  0  0  0  0  0  0  0  0
    4.9517    6.5391   -0.0000 O   0  0  0  0  0  0  0  0  0  0  0  0
    7.0603   -1.9783   -0.0000 C   0  0  0  0  0  0  0  0  0  0  0  0
  1  2  1  0  0  0  0
  1  3  1  0  0  0  0
  2  4  1  0  0  0  0
  2  5  2  0  0  0  0
  3  6  2  0  0  0  0
  3  7  1  0  0  0  0
  4  8  1  0  0  0  0
  4  9  1  0  0  0  0
  5 10  1  0  0  0  0
  6 11  1  0  0  0  0
  7 12  1  0  0  0  0
  8 13  2  0  0  0  0
  8 14  1  0  0  0  0
  9 15  1  0  0  0  0
 10 16  2  0  0  0  0
 11 17  2  0  0  0  0
 11 18  1  0  0  0  0
 12 19  1  0  0  0  0
 12 20  2  0  0  0  0
 14 21  1  0  0  0  0
 15 22  1  0  0  0  0
 15 23  1  0  0  0  0
 18 24  1  0  0  0  0
 18 25  1  0  0  0  0
 19 26  2  0  0  0  0
 19 27  1  0  0  0  0
 20 28  1  0  0  0  0
 24 29  1  0  0  0  0
 25 30  1  0  0  0  0
 26 31  1  0  0  0  0
 27 32  2  0  0  0  0
 29 33  1  6  0  0  0
 31 34  2  0  0  0  0
  5  6  1  0  0  0  0
 10 14  1  0  0  0  0
 26 28  1  0  0  0  0
 29 30  1  0  0  0  0
 32 34  1  0  0  0  0
M  END
>  <MolRegNo>
345260

>  <m>
=

>  <Value>
6700

>  <Unit>
nM

>  <Type>
IC50

>  <pValue>
5.17

>  <Ligand Efficiency>
0

>  <Binding Efficiency>
0

>  <Surface Efficiency>
0

>  <Assay Index>
260686

>  <Assay Category>


>  <Assay Organism>
Homo sapiens

>  <Target ID>
17045

>  <Target Name>
Cytochrome P450 3A4

>  <Target Organism>
Homo sapiens

>  <Target Description>
Target is a single protein chain

>  <Sequence Accession>
P08684

>  <Reference>
Bioorg Med Chem Lett 16 (8), 2260-2265 (2006)

>  <Pubmed ID>
16455256

>  <DOI>
10.1016/j.bmcl.2006.01.024

$$$$
345131
Actelion Java MolfileCreator 1.0

 34 38  0  0  1  0  0  0  0  0999 V2000
    0.0000   -0.0000   -0.0000 S   0  0  0  0  0  0  0  0  0  0  0  0
   -1.4334    0.4738   -0.0000 C   0  0  0  0  0  0  0  0  0  0  0  0
    0.8648    1.2320   -0.0000 C   0  0  0  0  0  0  0  0  0  0  0  0
   -2.7365   -0.2606   -0.0000 N   0  0  0  0  0  0  0  0  0  0  0  0
   -1.4334    1.9902   -0.0000 C   0  0  0  0  0  0  0  0  0  0  0  0
   -0.0118    2.4522   -0.0000 C   0  0  0  0  0  0  0  0  0  0  0  0
    2.3574    1.2438   -0.0000 C   0  0  0  0  0  0  0  0  0  0  0  0
   -4.0514    0.4857   -0.0000 C   0  0  0  0  0  0  0  0  0  0  0  0
   -2.7483   -1.7532   -0.0000 C   0  0  0  0  0  0  0  0  0  0  0  0
   -2.7483    2.7601   -0.0000 C   0  0  0  0  0  0  0  0  0  0  0  0
    0.4383    3.8855   -0.0000 C   0  0  0  0  0  0  0  0  0  0  0  0
    3.0918   -0.0355   -0.0000 C   0  0  0  0  0  0  0  0  0  0  0  0
   -5.3663   -0.2488   -0.0000 O   0  0  0  0  0  0  0  0  0  0  0  0
   -4.0632    2.0020   -0.0000 N   0  0  0  0  0  0  0  0  0  0  0  0
   -4.0632   -2.4995   -0.0000 C   0  0  0  0  0  0  0  0  0  0  0  0
   -2.7601    4.2765   -0.0000 O   0  0  0  0  0  0  0  0  0  0  0  0
   -0.5686    5.0109   -0.0000 O   0  0  0  0  0  0  0  0  0  0  0  0
    1.8954    4.2054   -0.0000 N   0  0  0  0  0  0  0  0  0  0  0  0
    4.4897   -0.4975   -0.0000 C   0  0  0  0  0  0  0  0  0  0  0  0
    2.1797   -1.2438   -0.0000 C   0  0  0  0  0  0  0  0  0  0  0  0
   -5.3781    2.7601   -0.0000 C   0  0  0  0  0  0  0  0  0  0  0  0
   -4.0751   -3.9921   -0.0000 C   0  0  0  0  0  0  0  0  0  0  0  0
   -5.3781   -1.7295   -0.0000 C   0  0  0  0  0  0  0  0  0  0  0  0
    2.4877    5.5795   -0.0000 C   0  0  0  0  0  0  0  0  0  0  0  0
    2.9852    3.2103   -0.0000 C   0  0  0  0  0  0  0  0  0  0  0  0
    4.4778   -1.9902   -0.0000 C   0  0  0  0  0  0  0  0  0  0  0  0
    5.7809    0.2606   -0.0000 C   0  0  0  0  0  0  0  0  0  0  0  0
    3.0445   -2.4522   -0.0000 N   0  0  0  0  0  0  0  0  0  0  0  0
    3.9566    5.4255   -0.0000 C   0  0  0  0  0  0  0  0  0  0  0  0
    4.2765    3.9685   -0.0000 C   0  0  0  0  0  0  0  0  0  0  0  0
    5.7691   -2.7365   -0.0000 C   0  0  0  0  0  0  0  0  0  0  0  0
    7.0721   -0.4857   -0.0000 C   0  0  0  0  0  0  0  0  0  0  0  0
    4.9517    6.5391   -0.0000 O   0  0  0  0  0  0  0  0  0  0  0  0
    7.0603   -1.9783   -0.0000 C   0  0  0  0  0  0  0  0  0  0  0  0
  1  2  1  0  0  0  0
  1  3  1  0  0  0  0
  2  4  1  0  0  0  0
  2  5  2  0  0  0  0
  3  6  2  0  0  0  0
  3  7  1  0  0  0  0
  4  8  1  0  0  0  0
  4  9  1  0  0  0  0
  5 10  1  0  0  0  0
  6 11  1  0  0  0  0
  7 12  1  0  0  0  0
  8 13  2  0  0  0  0
  8 14  1  0  0  0  0
  9 15  1  0  0  0  0
 10 16  2  0  0  0  0
 11 17  2  0  0  0  0
 11 18  1  0  0  0  0
 12 19  1  0  0  0  0
 12 20  2  0  0  0  0
 14 21  1  0  0  0  0
 15 22  1  0  0  0  0
 15 23  1  0  0  0  0
 18 24  1  0  0  0  0
 18 25  1  0  0  0  0
 19 26  2  0  0  0  0
 19 27  1  0  0  0  0
 20 28  1  0  0  0  0
 24 29  1  0  0  0  0
 25 30  1  0  0  0  0
 26 31  1  0  0  0  0
 27 32  2  0  0  0  0
 29 33  1  6  0  0  0
 31 34  2  0  0  0  0
  5  6  1  0  0  0  0
 10 14  1  0  0  0  0
 26 28  1  0  0  0  0
 29 30  1  0  0  0  0
 32 34  1  0  0  0  0
M  END
>  <MolRegNo>
345131

>  <m>
=

>  <Value>
1000

>  <Unit>
nM

>  <Type>
IC50

>  <pValue>
6

>  <Ligand Efficiency>
0

>  <Binding Efficiency>
0

>  <Surface Efficiency>
0

>  <Assay Index>
260686

>  <Assay Category>


>  <Assay Organism>
Homo sapiens

>  <Target ID>
17045

>  <Target Name>
Cytochrome P450 3A4

>  <Target Organism>
Homo sapiens

>  <Target Description>
Target is a single protein chain

>  <Sequence Accession>
P08684

>  <Reference>
Bioorg Med Chem Lett 16 (8), 2260-2265 (2006)

>  <Pubmed ID>
16455256

>  <DOI>
10.1016/j.bmcl.2006.01.024

$$$$
345310
Actelion Java MolfileCreator 1.0

 35 39  0  0  1  0  0  0  0  0999 V2000
    0.0000   -0.0000   -0.0000 S   0  0  0  0  0  0  0  0  0  0  0  0
   -1.4449    0.4738   -0.0000 C   0  0  0  0  0  0  0  0  0  0  0  0
    0.8646    1.2318   -0.0000 C   0  0  0  0  0  0  0  0  0  0  0  0
   -2.7478   -0.2606   -0.0000 N   0  0  0  0  0  0  0  0  0  0  0  0
   -1.4449    1.9898   -0.0000 C   0  0  0  0  0  0  0  0  0  0  0  0
   -0.0237    2.4517   -0.0000 C   0  0  0  0  0  0  0  0  0  0  0  0
    2.3569    1.2436   -0.0000 C   0  0  0  0  0  0  0  0  0  0  0  0
   -4.0624    0.4974   -0.0000 C   0  0  0  0  0  0  0  0  0  0  0  0
   -2.7596   -1.7529   -0.0000 C   0  0  0  0  0  0  0  0  0  0  0  0
   -2.7596    2.7596   -0.0000 C   0  0  0  0  0  0  0  0  0  0  0  0
    0.4264    3.8848   -0.0000 C   0  0  0  0  0  0  0  0  0  0  0  0
    3.1031   -0.0474   -0.0000 C   0  0  0  0  0  0  0  0  0  0  0  0
   -5.3771   -0.2369   -0.0000 O   0  0  0  0  0  0  0  0  0  0  0  0
   -4.0743    2.0134   -0.0000 N   0  0  0  0  0  0  0  0  0  0  0  0
   -4.0743   -2.4990   -0.0000 C   0  0  0  0  0  0  0  0  0  0  0  0
   -2.7714    4.2756   -0.0000 O   0  0  0  0  0  0  0  0  0  0  0  0
   -0.5803    5.0099   -0.0000 O   0  0  0  0  0  0  0  0  0  0  0  0
    1.8832    4.2045   -0.0000 N   0  0  0  0  0  0  0  0  0  0  0  0
    4.5835   -0.0355   -0.0000 C   0  0  0  0  0  0  0  0  0  0  0  0
    2.3332   -1.3383   -0.0000 C   0  0  0  0  0  0  0  0  0  0  0  0
   -5.3889    2.7714   -0.0000 C   0  0  0  0  0  0  0  0  0  0  0  0
   -4.0861   -3.9914   -0.0000 C   0  0  0  0  0  0  0  0  0  0  0  0
   -5.3889   -1.7292   -0.0000 C   0  0  0  0  0  0  0  0  0  0  0  0
    2.4754    5.5784   -0.0000 C   0  0  0  0  0  0  0  0  0  0  0  0
    2.9728    3.2097   -0.0000 C   0  0  0  0  0  0  0  0  0  0  0  0
    5.3179   -1.3265   -0.0000 C   0  0  0  0  0  0  0  0  0  0  0  0
    5.3179    1.2673   -0.0000 C   0  0  0  0  0  0  0  0  0  0  0  0
    3.0794   -2.6293   -0.0000 C   0  0  0  0  0  0  0  0  0  0  0  0
    3.9558    5.4245   -0.0000 C   0  0  0  0  0  0  0  0  0  0  0  0
    4.2638    3.9677   -0.0000 C   0  0  0  0  0  0  0  0  0  0  0  0
    6.7983   -1.3147   -0.0000 N   0  0  0  0  0  0  0  0  0  0  0  0
    4.5599   -2.6293   -0.0000 C   0  0  0  0  0  0  0  0  0  0  0  0
    6.7983    1.2791   -0.0000 C   0  0  0  0  0  0  0  0  0  0  0  0
    4.9507    6.5496   -0.0000 O   0  0  0  0  0  0  0  0  0  0  0  0
    7.5445   -0.0118   -0.0000 C   0  0  0  0  0  0  0  0  0  0  0  0
  1  2  1  0  0  0  0
  1  3  1  0  0  0  0
  2  4  1  0  0  0  0
  2  5  2  0  0  0  0
  3  6  2  0  0  0  0
  3  7  1  0  0  0  0
  4  8  1  0  0  0  0
  4  9  1  0  0  0  0
  5 10  1  0  0  0  0
  6 11  1  0  0  0  0
  7 12  1  0  0  0  0
  8 13  2  0  0  0  0
  8 14  1  0  0  0  0
  9 15  1  0  0  0  0
 10 16  2  0  0  0  0
 11 17  2  0  0  0  0
 11 18  1  0  0  0  0
 12 19  1  0  0  0  0
 12 20  2  0  0  0  0
 14 21  1  0  0  0  0
 15 22  1  0  0  0  0
 15 23  1  0  0  0  0
 18 24  1  0  0  0  0
 18 25  1  0  0  0  0
 19 26  1  0  0  0  0
 19 27  2  0  0  0  0
 20 28  1  0  0  0  0
 24 29  1  0  0  0  0
 25 30  1  0  0  0  0
 26 31  2  0  0  0  0
 26 32  1  0  0  0  0
 27 33  1  0  0  0  0
 29 34  1  6  0  0  0
 31 35  1  0  0  0  0
  5  6  1  0  0  0  0
 10 14  1  0  0  0  0
 28 32  2  0  0  0  0
 29 30  1  0  0  0  0
 33 35  2  0  0  0  0
M  END
>  <MolRegNo>
345310

>  <m>
=

>  <Value>
20000

>  <Unit>
nM

>  <Type>
IC50

>  <pValue>
4.7

>  <Ligand Efficiency>
0

>  <Binding Efficiency>
0

>  <Surface Efficiency>
0

>  <Assay Index>
260686

>  <Assay Category>


>  <Assay Organism>
Homo sapiens

>  <Target ID>
17045

>  <Target Name>
Cytochrome P450 3A4

>  <Target Organism>
Homo sapiens

>  <Target Description>
Target is a single protein chain

>  <Sequence Accession>
P08684

>  <Reference>
Bioorg Med Chem Lett 16 (8), 2260-2265 (2006)

>  <Pubmed ID>
16455256

>  <DOI>
10.1016/j.bmcl.2006.01.024

$$$$
330285
Actelion Java MolfileCreator 1.0

 45 49  0  0  1  0  0  0  0  0999 V2000
    0.0000   -0.0000   -0.0000 O   0  0  0  0  0  0  0  0  0  0  0  0
    1.3034    0.7653   -0.0000 C   0  0  0  0  0  0  0  0  0  0  0  0
    2.5710   -0.0120   -0.0000 N   0  0  0  0  0  0  0  0  0  0  0  0
    1.3154    2.2601   -0.0000 C   0  0  0  0  0  0  0  0  0  0  0  0
    2.5112   -1.5067   -0.0000 C   0  0  0  0  0  0  0  0  0  0  0  0
    3.8744    0.7294   -0.0000 C   0  0  0  0  0  0  0  0  0  0  0  0
    2.6188    3.0134   -0.0000 N   0  0  0  0  0  0  0  0  0  0  0  0
    1.1839   -2.1883   -0.0000 C   0  0  0  0  0  0  0  0  0  0  0  0
    3.7788   -2.2720   -0.0000 C   0  0  0  0  0  0  0  0  0  0  0  0
    3.8983    2.2362   -0.0000 C   0  0  0  0  0  0  0  0  0  0  0  0
    5.1420   -0.0598   -0.0000 C   0  0  0  0  0  0  0  0  0  0  0  0
    1.1241   -3.6831   -0.0000 C   0  0  0  0  0  0  0  0  0  0  0  0
    3.7190   -3.7668   -0.0000 C   0  0  0  0  0  0  0  0  0  0  0  0
    6.4454    0.6936   -0.0000 O   0  0  0  0  0  0  0  0  0  0  0  0
    2.3916   -4.4843   -0.0000 C   0  0  0  0  0  0  0  0  0  0  0  0
    7.7369   -0.0717   -0.0000 C   0  0  0  0  0  0  0  0  0  0  0  0
    2.3318   -5.9551   -0.0000 O   0  0  0  0  0  0  0  0  0  0  0  0
    9.0284    0.6936   -0.0000 C   0  0  0  0  0  0  0  0  0  0  0  0
    7.7010   -1.5665   -0.0000 C   0  0  0  0  0  0  0  0  0  0  0  0
    3.6113   -6.7324   -0.0000 C   0  0  0  0  0  0  0  0  0  0  0  0
   10.3198   -0.0717   -0.0000 C   0  0  0  0  0  0  0  0  0  0  0  0
    8.9925   -2.3318   -0.0000 C   0  0  0  0  0  0  0  0  0  0  0  0
    4.9028   -5.9910   -0.0000 C   0  0  0  0  0  0  0  0  0  0  0  0
   11.6233    0.6936   -0.0000 N   0  0  0  0  0  0  0  0  0  0  0  0
   10.2840   -1.5665   -0.0000 C   0  0  0  0  0  0  0  0  0  0  0  0
    6.1823   -6.7563   -0.0000 C   0  0  0  0  0  0  0  0  0  0  0  0
   12.9147   -0.0717   -0.0000 C   0  0  0  0  0  0  0  0  0  0  0  0
   11.6233    2.2122   -0.0000 C   0  0  0  0  0  0  0  0  0  0  0  0
   11.5754   -2.3318   -0.0000 C   0  0  0  0  0  0  0  0  0  0  0  0
    7.4738   -6.0030   -0.0000 O   0  0  0  0  0  0  0  0  0  0  0  0
   12.8789   -1.5785   -0.0000 C   0  0  0  0  0  0  0  0  0  0  0  0
   12.9267    2.9656   -0.0000 C   0  0  0  0  0  0  0  0  0  0  0  0
    8.7533   -6.7683   -0.0000 C   0  0  0  0  0  0  0  0  0  0  0  0
   12.9147    4.4843   -0.0000 N   0  0  0  0  0  0  0  0  0  0  0  0
   10.0448   -6.0269   -0.0000 C   0  0  0  0  0  0  0  0  0  0  0  0
   14.2182    5.2376   -0.0000 C   0  0  0  0  0  0  0  0  0  0  0  0
   11.3243   -6.8042   -0.0000 C   0  0  0  0  0  0  0  0  0  0  0  0
   10.0687   -4.5082   -0.0000 C   0  0  0  0  0  0  0  0  0  0  0  0
   14.2182    6.7563   -0.0000 O   0  0  0  0  0  0  0  0  0  0  0  0
   15.4977    4.4843   -0.0000 C   0  0  0  0  0  0  0  0  0  0  0  0
   11.2765   -8.2989   -0.0000 O   0  0  0  0  0  0  0  0  0  0  0  0
   12.6278   -6.0628   -0.0000 C   0  0  0  0  0  0  0  0  0  0  0  0
   11.3602   -3.7668   -0.0000 C   0  0  0  0  0  0  0  0  0  0  0  0
    9.9491   -9.0164   -0.0000 C   0  0  0  0  0  0  0  0  0  0  0  0
   12.6397   -4.5321   -0.0000 C   0  0  0  0  0  0  0  0  0  0  0  0
  1  2  2  0  0  0  0
  2  3  1  0  0  0  0
  2  4  1  0  0  0  0
  3  5  1  0  0  0  0
  3  6  1  0  0  0  0
  4  7  1  0  0  0  0
  5  8  2  0  0  0  0
  5  9  1  0  0  0  0
  6 10  1  0  0  0  0
  6 11  1  6  0  0  0
  8 12  1  0  0  0  0
  9 13  2  0  0  0  0
 11 14  1  0  0  0  0
 12 15  2  0  0  0  0
 14 16  1  0  0  0  0
 15 17  1  0  0  0  0
 16 18  2  0  0  0  0
 16 19  1  0  0  0  0
 17 20  1  0  0  0  0
 18 21  1  0  0  0  0
 19 22  2  0  0  0  0
 20 23  1  0  0  0  0
 21 24  1  0  0  0  0
 21 25  2  0  0  0  0
 23 26  1  0  0  0  0
 24 27  1  0  0  0  0
 24 28  1  0  0  0  0
 25 29  1  0  0  0  0
 26 30  1  0  0  0  0
 27 31  1  0  0  0  0
 28 32  1  0  0  0  0
 30 33  1  0  0  0  0
 32 34  1  0  0  0  0
 33 35  1  0  0  0  0
 34 36  1  0  0  0  0
 35 37  2  0  0  0  0
 35 38  1  0  0  0  0
 36 39  2  0  0  0  0
 36 40  1  0  0  0  0
 37 41  1  0  0  0  0
 37 42  1  0  0  0  0
 38 43  2  0  0  0  0
 41 44  1  0  0  0  0
 42 45  2  0  0  0  0
  7 10  1  0  0  0  0
 13 15  1  0  0  0  0
 22 25  1  0  0  0  0
 29 31  1  0  0  0  0
 43 45  1  0  0  0  0
M  END
>  <MolRegNo>
330285

>  <m>
=

>  <Value>
82

>  <Unit>
nM

>  <Type>
IC50

>  <pValue>
7.09

>  <Ligand Efficiency>
0

>  <Binding Efficiency>
0

>  <Surface Efficiency>
0

>  <Assay Index>
260798

>  <Assay Category>


>  <Assay Organism>
Homo sapiens

>  <Target ID>
17045

>  <Target Name>
Cytochrome P450 3A4

>  <Target Organism>
Homo sapiens

>  <Target Description>
Target is a single protein chain

>  <Sequence Accession>
P08684

>  <Reference>
Bioorg Med Chem Lett 16 (9), 2500-2504 (2006)

>  <Pubmed ID>
16480874

>  <DOI>
10.1016/j.bmcl.2006.01.084

$$$$
345887
Actelion Java MolfileCreator 1.0

 44 48  0  0  1  0  0  0  0  0999 V2000
    0.0000   -0.0000   -0.0000 S   0  0  0  0  0  0  0  0  0  0  0  0
    1.2877   -0.7392   -0.0000 C   0  0  0  0  0  0  0  0  0  0  0  0
   -1.3115   -0.7392   -0.0000 C   0  0  0  0  0  0  0  0  0  0  0  0
    2.5754    0.0238   -0.0000 C   0  0  0  0  0  0  0  0  0  0  0  0
    1.2638   -2.2296   -0.0000 C   0  0  0  0  0  0  0  0  0  0  0  0
   -2.6230    0.0238   -0.0000 C   0  0  0  0  0  0  0  0  0  0  0  0
    3.8630   -0.7154   -0.0000 C   0  0  0  0  0  0  0  0  0  0  0  0
    2.5515   -2.9688   -0.0000 C   0  0  0  0  0  0  0  0  0  0  0  0
   -3.9346   -0.7035   -0.0000 N   0  0  0  0  0  0  0  0  0  0  0  0
   -2.6350    1.5381   -0.0000 C   0  0  0  0  0  0  0  0  0  0  0  0
    5.1507    0.0596   -0.0000 N   0  0  0  0  0  0  0  0  0  0  0  0
    3.8511   -2.2177   -0.0000 C   0  0  0  0  0  0  0  0  0  0  0  0
   -3.9465   -2.1938   -0.0000 C   0  0  0  0  0  0  0  0  0  0  0  0
   -5.2461    0.0477   -0.0000 C   0  0  0  0  0  0  0  0  0  0  0  0
   -3.9465    2.3130   -0.0000 N   0  0  0  0  0  0  0  0  0  0  0  0
    6.4503   -0.6915   -0.0000 C   0  0  0  0  0  0  0  0  0  0  0  0
    5.1388    1.5738   -0.0000 C   0  0  0  0  0  0  0  0  0  0  0  0
    5.1388   -2.9569   -0.0000 O   0  0  0  0  0  0  0  0  0  0  0  0
   -5.2580   -2.9330   -0.0000 C   0  0  0  0  0  0  0  0  0  0  0  0
   -2.6588   -2.9330   -0.0000 C   0  0  0  0  0  0  0  0  0  0  0  0
   -6.5576   -0.6915   -0.0000 O   0  0  0  0  0  0  0  0  0  0  0  0
   -5.2580    1.5619   -0.0000 C   0  0  0  0  0  0  0  0  0  0  0  0
    7.7380    0.0715   -0.0000 O   0  0  0  0  0  0  0  0  0  0  0  0
    6.4384   -2.1938   -0.0000 C   0  0  0  0  0  0  0  0  0  0  0  0
    3.8273    2.3369   -0.0000 C   0  0  0  0  0  0  0  0  0  0  0  0
   -5.2699   -4.4234   -0.0000 C   0  0  0  0  0  0  0  0  0  0  0  0
   -2.6707   -4.4234   -0.0000 C   0  0  0  0  0  0  0  0  0  0  0  0
    3.8153    3.8511   -0.0000 O   0  0  0  0  0  0  0  0  0  0  0  0
    2.5157    1.5977   -0.0000 O   0  0  0  0  0  0  0  0  0  0  0  0
   -3.9823   -5.1626   -0.0000 C   0  0  0  0  0  0  0  0  0  0  0  0
   -3.9942   -6.6530   -0.0000 O   0  0  0  0  0  0  0  0  0  0  0  0
   -2.7065   -7.3922   -0.0000 C   0  0  0  0  0  0  0  0  0  0  0  0
   -1.4188   -6.6291   -0.0000 C   0  0  0  0  0  0  0  0  0  0  0  0
   -0.1312   -7.3684   -0.0000 C   0  0  0  0  0  0  0  0  0  0  0  0
    1.1565   -6.6053   -0.0000 O   0  0  0  0  0  0  0  0  0  0  0  0
    2.4442   -7.3445   -0.0000 C   0  0  0  0  0  0  0  0  0  0  0  0
    3.7319   -6.5815   -0.0000 C   0  0  0  0  0  0  0  0  0  0  0  0
    3.7080   -5.0792   -0.0000 C   0  0  0  0  0  0  0  0  0  0  0  0
    5.0196   -7.3326   -0.0000 C   0  0  0  0  0  0  0  0  0  0  0  0
    2.3965   -4.3280   -0.0000 O   0  0  0  0  0  0  0  0  0  0  0  0
    4.9957   -4.3161   -0.0000 C   0  0  0  0  0  0  0  0  0  0  0  0
    6.3072   -6.5695   -0.0000 C   0  0  0  0  0  0  0  0  0  0  0  0
    1.0850   -5.0792   -0.0000 C   0  0  0  0  0  0  0  0  0  0  0  0
    6.2953   -5.0553   -0.0000 C   0  0  0  0  0  0  0  0  0  0  0  0
  1  2  1  0  0  0  0
  1  3  1  0  0  0  0
  2  4  2  0  0  0  0
  2  5  1  0  0  0  0
  6  3  1  6  0  0  0
  4  7  1  0  0  0  0
  5  8  2  0  0  0  0
  6  9  1  0  0  0  0
  6 10  1  0  0  0  0
  7 11  1  0  0  0  0
  7 12  2  0  0  0  0
  9 13  1  0  0  0  0
  9 14  1  0  0  0  0
 10 15  1  0  0  0  0
 11 16  1  0  0  0  0
 11 17  1  0  0  0  0
 12 18  1  0  0  0  0
 13 19  2  0  0  0  0
 13 20  1  0  0  0  0
 14 21  2  0  0  0  0
 14 22  1  0  0  0  0
 16 23  2  0  0  0  0
 16 24  1  0  0  0  0
 17 25  1  0  0  0  0
 19 26  1  0  0  0  0
 20 27  2  0  0  0  0
 25 28  2  0  0  0  0
 25 29  1  0  0  0  0
 26 30  2  0  0  0  0
 30 31  1  0  0  0  0
 31 32  1  0  0  0  0
 32 33  1  0  0  0  0
 33 34  1  0  0  0  0
 34 35  1  0  0  0  0
 35 36  1  0  0  0  0
 36 37  1  0  0  0  0
 37 38  2  0  0  0  0
 37 39  1  0  0  0  0
 38 40  1  0  0  0  0
 38 41  1  0  0  0  0
 39 42  2  0  0  0  0
 40 43  1  0  0  0  0
 41 44  2  0  0  0  0
  8 12  1  0  0  0  0
 15 22  1  0  0  0  0
 18 24  1  0  0  0  0
 27 30  1  0  0  0  0
 42 44  1  0  0  0  0
M  END
>  <MolRegNo>
345887

>  <m>
=

>  <Value>
15000

>  <Unit>
nM

>  <Type>
IC50

>  <pValue>
4.82

>  <Ligand Efficiency>
0

>  <Binding Efficiency>
0

>  <Surface Efficiency>
0

>  <Assay Index>
260798

>  <Assay Category>


>  <Assay Organism>
Homo sapiens

>  <Target ID>
17045

>  <Target Name>
Cytochrome P450 3A4

>  <Target Organism>
Homo sapiens

>  <Target Description>
Target is a single protein chain

>  <Sequence Accession>
P08684

>  <Reference>
Bioorg Med Chem Lett 16 (9), 2500-2504 (2006)

>  <Pubmed ID>
16480874

>  <DOI>
10.1016/j.bmcl.2006.01.084

$$$$
346016
Actelion Java MolfileCreator 1.0

 44 48  0  0  1  0  0  0  0  0999 V2000
    0.0000   -0.0000   -0.0000 O   0  0  0  0  0  0  0  0  0  0  0  0
   -1.3073   -0.7368   -0.0000 C   0  0  0  0  0  0  0  0  0  0  0  0
   -2.6264    0.0357   -0.0000 N   0  0  0  0  0  0  0  0  0  0  0  0
   -1.3191   -2.2342   -0.0000 C   0  0  0  0  0  0  0  0  0  0  0  0
   -3.9337   -0.7131   -0.0000 C   0  0  0  0  0  0  0  0  0  0  0  0
   -2.6383    1.5449   -0.0000 C   0  0  0  0  0  0  0  0  0  0  0  0
   -2.6383   -2.9710   -0.0000 O   0  0  0  0  0  0  0  0  0  0  0  0
   -3.9456   -2.2105   -0.0000 C   0  0  0  0  0  0  0  0  0  0  0  0
   -5.2409    0.0475   -0.0000 C   0  0  0  0  0  0  0  0  0  0  0  0
   -3.9456    2.3055   -0.0000 C   0  0  0  0  0  0  0  0  0  0  0  0
   -5.2528   -2.9473   -0.0000 C   0  0  0  0  0  0  0  0  0  0  0  0
   -6.5482   -0.6893   -0.0000 C   0  0  0  0  0  0  0  0  0  0  0  0
   -3.9574    3.8148   -0.0000 O   0  0  0  0  0  0  0  0  0  0  0  0
   -5.2528    1.5687   -0.0000 O   0  0  0  0  0  0  0  0  0  0  0  0
   -6.5601   -2.1867   -0.0000 C   0  0  0  0  0  0  0  0  0  0  0  0
   -7.8555    0.0713   -0.0000 O   0  0  0  0  0  0  0  0  0  0  0  0
   -9.1627   -0.6655   -0.0000 C   0  0  0  0  0  0  0  0  0  0  0  0
  -10.4700    0.0951   -0.0000 C   0  0  0  0  0  0  0  0  0  0  0  0
  -11.7772   -0.6299   -0.0000 N   0  0  0  0  0  0  0  0  0  0  0  0
  -10.4819    1.6044   -0.0000 C   0  0  0  0  0  0  0  0  0  0  0  0
  -11.7891   -2.1154   -0.0000 C   0  0  0  0  0  0  0  0  0  0  0  0
  -13.0845    0.1188   -0.0000 C   0  0  0  0  0  0  0  0  0  0  0  0
  -11.7891    2.3768   -0.0000 N   0  0  0  0  0  0  0  0  0  0  0  0
  -13.1083   -2.8522   -0.0000 C   0  0  0  0  0  0  0  0  0  0  0  0
  -10.5056   -2.8522   -0.0000 C   0  0  0  0  0  0  0  0  0  0  0  0
  -14.3918   -0.6180   -0.0000 O   0  0  0  0  0  0  0  0  0  0  0  0
  -13.0964    1.6281   -0.0000 C   0  0  0  0  0  0  0  0  0  0  0  0
  -13.1201   -4.3377   -0.0000 C   0  0  0  0  0  0  0  0  0  0  0  0
  -10.5175   -4.3377   -0.0000 C   0  0  0  0  0  0  0  0  0  0  0  0
  -11.8367   -5.0746   -0.0000 C   0  0  0  0  0  0  0  0  0  0  0  0
  -11.8485   -6.5601   -0.0000 O   0  0  0  0  0  0  0  0  0  0  0  0
  -10.5650   -7.2969   -0.0000 C   0  0  0  0  0  0  0  0  0  0  0  0
   -9.2816   -6.5363   -0.0000 C   0  0  0  0  0  0  0  0  0  0  0  0
   -7.9981   -7.2731   -0.0000 C   0  0  0  0  0  0  0  0  0  0  0  0
   -6.7146   -6.5125   -0.0000 O   0  0  0  0  0  0  0  0  0  0  0  0
   -5.4311   -7.2494   -0.0000 C   0  0  0  0  0  0  0  0  0  0  0  0
   -4.1476   -6.4888   -0.0000 C   0  0  0  0  0  0  0  0  0  0  0  0
   -4.1714   -4.9914   -0.0000 C   0  0  0  0  0  0  0  0  0  0  0  0
   -2.8641   -7.2375   -0.0000 C   0  0  0  0  0  0  0  0  0  0  0  0
   -5.4786   -4.2427   -0.0000 O   0  0  0  0  0  0  0  0  0  0  0  0
   -2.8879   -4.2308   -0.0000 C   0  0  0  0  0  0  0  0  0  0  0  0
   -1.5806   -6.4769   -0.0000 C   0  0  0  0  0  0  0  0  0  0  0  0
   -6.7859   -4.9914   -0.0000 C   0  0  0  0  0  0  0  0  0  0  0  0
   -1.5925   -4.9676   -0.0000 C   0  0  0  0  0  0  0  0  0  0  0  0
  1  2  2  0  0  0  0
  2  3  1  0  0  0  0
  2  4  1  0  0  0  0
  3  5  1  0  0  0  0
  3  6  1  0  0  0  0
  4  7  1  0  0  0  0
  5  8  2  0  0  0  0
  5  9  1  0  0  0  0
  6 10  1  0  0  0  0
  8 11  1  0  0  0  0
  9 12  2  0  0  0  0
 10 13  2  0  0  0  0
 10 14  1  0  0  0  0
 11 15  2  0  0  0  0
 12 16  1  0  0  0  0
 16 17  1  0  0  0  0
 18 17  1  6  0  0  0
 18 19  1  0  0  0  0
 18 20  1  0  0  0  0
 19 21  1  0  0  0  0
 19 22  1  0  0  0  0
 20 23  1  0  0  0  0
 21 24  2  0  0  0  0
 21 25  1  0  0  0  0
 22 26  2  0  0  0  0
 22 27  1  0  0  0  0
 24 28  1  0  0  0  0
 25 29  2  0  0  0  0
 28 30  2  0  0  0  0
 30 31  1  0  0  0  0
 31 32  1  0  0  0  0
 32 33  1  0  0  0  0
 33 34  1  0  0  0  0
 34 35  1  0  0  0  0
 35 36  1  0  0  0  0
 36 37  1  0  0  0  0
 37 38  2  0  0  0  0
 37 39  1  0  0  0  0
 38 40  1  0  0  0  0
 38 41  1  0  0  0  0
 39 42  2  0  0  0  0
 40 43  1  0  0  0  0
 41 44  2  0  0  0  0
  7  8  1  0  0  0  0
 12 15  1  0  0  0  0
 23 27  1  0  0  0  0
 29 30  1  0  0  0  0
 42 44  1  0  0  0  0
M  END
>  <MolRegNo>
346016

>  <m>
=

>  <Value>
25000

>  <Unit>
nM

>  <Type>
IC50

>  <pValue>
4.6

>  <Ligand Efficiency>
0

>  <Binding Efficiency>
0

>  <Surface Efficiency>
0

>  <Assay Index>
260798

>  <Assay Category>


>  <Assay Organism>
Homo sapiens

>  <Target ID>
17045

>  <Target Name>
Cytochrome P450 3A4

>  <Target Organism>
Homo sapiens

>  <Target Description>
Target is a single protein chain

>  <Sequence Accession>
P08684

>  <Reference>
Bioorg Med Chem Lett 16 (9), 2500-2504 (2006)

>  <Pubmed ID>
16480874

>  <DOI>
10.1016/j.bmcl.2006.01.084

$$$$
346015
Actelion Java MolfileCreator 1.0

 45 49  0  0  1  0  0  0  0  0999 V2000
    0.0000   -0.0000   -0.0000 S   0  0  0  0  0  0  0  0  0  0  0  0
    1.2872   -0.7390   -0.0000 C   0  0  0  0  0  0  0  0  0  0  0  0
   -1.3111   -0.7390   -0.0000 C   0  0  0  0  0  0  0  0  0  0  0  0
    2.5744    0.0238   -0.0000 C   0  0  0  0  0  0  0  0  0  0  0  0
    1.2634   -2.2288   -0.0000 C   0  0  0  0  0  0  0  0  0  0  0  0
   -2.6221    0.0238   -0.0000 C   0  0  0  0  0  0  0  0  0  0  0  0
    3.8617   -0.7151   -0.0000 C   0  0  0  0  0  0  0  0  0  0  0  0
    2.5506   -2.9678   -0.0000 C   0  0  0  0  0  0  0  0  0  0  0  0
   -3.9332   -0.7032   -0.0000 N   0  0  0  0  0  0  0  0  0  0  0  0
   -2.6340    1.5375   -0.0000 C   0  0  0  0  0  0  0  0  0  0  0  0
    5.1489    0.0596   -0.0000 N   0  0  0  0  0  0  0  0  0  0  0  0
    3.8497   -2.2169   -0.0000 C   0  0  0  0  0  0  0  0  0  0  0  0
   -3.9451   -2.1930   -0.0000 C   0  0  0  0  0  0  0  0  0  0  0  0
   -5.2442    0.0477   -0.0000 C   0  0  0  0  0  0  0  0  0  0  0  0
   -3.9451    2.3122   -0.0000 N   0  0  0  0  0  0  0  0  0  0  0  0
    6.4480   -0.6913   -0.0000 C   0  0  0  0  0  0  0  0  0  0  0  0
    5.1370    1.5733   -0.0000 C   0  0  0  0  0  0  0  0  0  0  0  0
    5.1370   -2.9558   -0.0000 O   0  0  0  0  0  0  0  0  0  0  0  0
   -5.2561   -2.9320   -0.0000 C   0  0  0  0  0  0  0  0  0  0  0  0
   -2.6579   -2.9320   -0.0000 C   0  0  0  0  0  0  0  0  0  0  0  0
   -6.5553   -0.6913   -0.0000 O   0  0  0  0  0  0  0  0  0  0  0  0
   -5.2561    1.5613   -0.0000 C   0  0  0  0  0  0  0  0  0  0  0  0
    7.7352    0.0715   -0.0000 O   0  0  0  0  0  0  0  0  0  0  0  0
    6.4361   -2.1930   -0.0000 C   0  0  0  0  0  0  0  0  0  0  0  0
    3.8259    2.3361   -0.0000 C   0  0  0  0  0  0  0  0  0  0  0  0
   -5.2681   -4.4218   -0.0000 C   0  0  0  0  0  0  0  0  0  0  0  0
   -2.6698   -4.4218   -0.0000 C   0  0  0  0  0  0  0  0  0  0  0  0
    3.8140    3.8497   -0.0000 C   0  0  0  0  0  0  0  0  0  0  0  0
   -3.9808   -5.1608   -0.0000 C   0  0  0  0  0  0  0  0  0  0  0  0
    2.5029    4.6125   -0.0000 O   0  0  0  0  0  0  0  0  0  0  0  0
   -3.9928   -6.6506   -0.0000 O   0  0  0  0  0  0  0  0  0  0  0  0
    2.4910    6.1262   -0.0000 C   0  0  0  0  0  0  0  0  0  0  0  0
   -2.7055   -7.3896   -0.0000 C   0  0  0  0  0  0  0  0  0  0  0  0
   -1.4183   -6.6268   -0.0000 C   0  0  0  0  0  0  0  0  0  0  0  0
   -0.1311   -7.3658   -0.0000 C   0  0  0  0  0  0  0  0  0  0  0  0
    1.1561   -6.6030   -0.0000 O   0  0  0  0  0  0  0  0  0  0  0  0
    2.4433   -7.3419   -0.0000 C   0  0  0  0  0  0  0  0  0  0  0  0
    3.7306   -6.5791   -0.0000 C   0  0  0  0  0  0  0  0  0  0  0  0
    3.7067   -5.0774   -0.0000 C   0  0  0  0  0  0  0  0  0  0  0  0
    5.0178   -7.3300   -0.0000 C   0  0  0  0  0  0  0  0  0  0  0  0
    2.3957   -4.3265   -0.0000 O   0  0  0  0  0  0  0  0  0  0  0  0
    4.9939   -4.3146   -0.0000 C   0  0  0  0  0  0  0  0  0  0  0  0
    6.3050   -6.5672   -0.0000 C   0  0  0  0  0  0  0  0  0  0  0  0
    1.0846   -5.0774   -0.0000 C   0  0  0  0  0  0  0  0  0  0  0  0
    6.2931   -5.0535   -0.0000 C   0  0  0  0  0  0  0  0  0  0  0  0
  1  2  1  0  0  0  0
  1  3  1  0  0  0  0
  2  4  2  0  0  0  0
  2  5  1  0  0  0  0
  6  3  1  6  0  0  0
  4  7  1  0  0  0  0
  5  8  2  0  0  0  0
  6  9  1  0  0  0  0
  6 10  1  0  0  0  0
  7 11  1  0  0  0  0
  7 12  2  0  0  0  0
  9 13  1  0  0  0  0
  9 14  1  0  0  0  0
 10 15  1  0  0  0  0
 11 16  1  0  0  0  0
 11 17  1  0  0  0  0
 12 18  1  0  0  0  0
 13 19  2  0  0  0  0
 13 20  1  0  0  0  0
 14 21  2  0  0  0  0
 14 22  1  0  0  0  0
 16 23  2  0  0  0  0
 16 24  1  0  0  0  0
 17 25  1  0  0  0  0
 19 26  1  0  0  0  0
 20 27  2  0  0  0  0
 25 28  1  0  0  0  0
 26 29  2  0  0  0  0
 28 30  1  0  0  0  0
 29 31  1  0  0  0  0
 30 32  1  0  0  0  0
 31 33  1  0  0  0  0
 33 34  1  0  0  0  0
 34 35  1  0  0  0  0
 35 36  1  0  0  0  0
 36 37  1  0  0  0  0
 37 38  1  0  0  0  0
 38 39  2  0  0  0  0
 38 40  1  0  0  0  0
 39 41  1  0  0  0  0
 39 42  1  0  0  0  0
 40 43  2  0  0  0  0
 41 44  1  0  0  0  0
 42 45  2  0  0  0  0
  8 12  1  0  0  0  0
 15 22  1  0  0  0  0
 18 24  1  0  0  0  0
 27 29  1  0  0  0  0
 43 45  1  0  0  0  0
M  END
>  <MolRegNo>
346015

>  <m>
=

>  <Value>
14

>  <Unit>
nM

>  <Type>
IC50

>  <pValue>
7.85

>  <Ligand Efficiency>
0

>  <Binding Efficiency>
0

>  <Surface Efficiency>
0

>  <Assay Index>
260798

>  <Assay Category>


>  <Assay Organism>
Homo sapiens

>  <Target ID>
17045

>  <Target Name>
Cytochrome P450 3A4

>  <Target Organism>
Homo sapiens

>  <Target Description>
Target is a single protein chain

>  <Sequence Accession>
P08684

>  <Reference>
Bioorg Med Chem Lett 16 (9), 2500-2504 (2006)

>  <Pubmed ID>
16480874

>  <DOI>
10.1016/j.bmcl.2006.01.084

$$$$
324902
Actelion Java MolfileCreator 1.0

 45 49  0  0  1  0  0  0  0  0999 V2000
    0.0000   -0.0000   -0.0000 O   0  0  0  0  0  0  0  0  0  0  0  0
    1.3049    0.7662   -0.0000 C   0  0  0  0  0  0  0  0  0  0  0  0
    2.5739    0.0239   -0.0000 N   0  0  0  0  0  0  0  0  0  0  0  0
    1.2929    2.2866   -0.0000 C   0  0  0  0  0  0  0  0  0  0  0  0
    2.5619   -1.4605   -0.0000 C   0  0  0  0  0  0  0  0  0  0  0  0
    3.8668    0.7901   -0.0000 C   0  0  0  0  0  0  0  0  0  0  0  0
    2.5619    3.0527   -0.0000 N   0  0  0  0  0  0  0  0  0  0  0  0
    3.8548   -2.2028   -0.0000 C   0  0  0  0  0  0  0  0  0  0  0  0
    1.2450   -2.2028   -0.0000 C   0  0  0  0  0  0  0  0  0  0  0  0
    3.8548    2.3105   -0.0000 C   0  0  0  0  0  0  0  0  0  0  0  0
    5.1717    0.0479   -0.0000 C   0  0  0  0  0  0  0  0  0  0  0  0
    3.8548   -3.6752   -0.0000 C   0  0  0  0  0  0  0  0  0  0  0  0
    1.2331   -3.6992   -0.0000 C   0  0  0  0  0  0  0  0  0  0  0  0
    6.4646    0.8141   -0.0000 O   0  0  0  0  0  0  0  0  0  0  0  0
    2.5260   -4.4295   -0.0000 C   0  0  0  0  0  0  0  0  0  0  0  0
    7.7575    0.0718   -0.0000 C   0  0  0  0  0  0  0  0  0  0  0  0
    2.5140   -5.9259   -0.0000 O   0  0  0  0  0  0  0  0  0  0  0  0
    9.0385    0.8380   -0.0000 C   0  0  0  0  0  0  0  0  0  0  0  0
    7.7336   -1.4246   -0.0000 C   0  0  0  0  0  0  0  0  0  0  0  0
    3.8189   -6.6681   -0.0000 C   0  0  0  0  0  0  0  0  0  0  0  0
   10.3314    0.0958   -0.0000 C   0  0  0  0  0  0  0  0  0  0  0  0
    9.0265   -2.1668   -0.0000 C   0  0  0  0  0  0  0  0  0  0  0  0
    5.1118   -5.9019   -0.0000 C   0  0  0  0  0  0  0  0  0  0  0  0
   11.6243    0.8619   -0.0000 N   0  0  0  0  0  0  0  0  0  0  0  0
   10.3194   -1.4007   -0.0000 C   0  0  0  0  0  0  0  0  0  0  0  0
    6.4047   -6.6322   -0.0000 C   0  0  0  0  0  0  0  0  0  0  0  0
   12.9172    0.1317   -0.0000 C   0  0  0  0  0  0  0  0  0  0  0  0
   11.6123    2.3823   -0.0000 C   0  0  0  0  0  0  0  0  0  0  0  0
   11.6123   -2.1429   -0.0000 C   0  0  0  0  0  0  0  0  0  0  0  0
    7.6977   -5.8660   -0.0000 O   0  0  0  0  0  0  0  0  0  0  0  0
   14.2102    0.8979   -0.0000 O   0  0  0  0  0  0  0  0  0  0  0  0
   12.9053   -1.3647   -0.0000 C   0  0  0  0  0  0  0  0  0  0  0  0
   12.9053    3.1485   -0.0000 C   0  0  0  0  0  0  0  0  0  0  0  0
    8.9906   -6.6083   -0.0000 C   0  0  0  0  0  0  0  0  0  0  0  0
   12.8813    4.6689   -0.0000 C   0  0  0  0  0  0  0  0  0  0  0  0
   10.2835   -5.8421   -0.0000 C   0  0  0  0  0  0  0  0  0  0  0  0
   14.1862    5.4470   -0.0000 O   0  0  0  0  0  0  0  0  0  0  0  0
   11.5764   -6.5963   -0.0000 C   0  0  0  0  0  0  0  0  0  0  0  0
   10.2715   -4.3457   -0.0000 C   0  0  0  0  0  0  0  0  0  0  0  0
   14.1623    6.9674   -0.0000 C   0  0  0  0  0  0  0  0  0  0  0  0
   11.5645   -8.0927   -0.0000 O   0  0  0  0  0  0  0  0  0  0  0  0
   12.8694   -5.8301   -0.0000 C   0  0  0  0  0  0  0  0  0  0  0  0
   11.5525   -3.5795   -0.0000 C   0  0  0  0  0  0  0  0  0  0  0  0
   10.2476   -8.8230   -0.0000 C   0  0  0  0  0  0  0  0  0  0  0  0
   12.8574   -4.2978   -0.0000 C   0  0  0  0  0  0  0  0  0  0  0  0
  1  2  2  0  0  0  0
  2  3  1  0  0  0  0
  2  4  1  0  0  0  0
  3  5  1  0  0  0  0
  3  6  1  0  0  0  0
  4  7  1  0  0  0  0
  5  8  2  0  0  0  0
  5  9  1  0  0  0  0
  6 10  1  0  0  0  0
  6 11  1  6  0  0  0
  8 12  1  0  0  0  0
  9 13  2  0  0  0  0
 11 14  1  0  0  0  0
 12 15  2  0  0  0  0
 14 16  1  0  0  0  0
 15 17  1  0  0  0  0
 16 18  2  0  0  0  0
 16 19  1  0  0  0  0
 17 20  1  0  0  0  0
 18 21  1  0  0  0  0
 19 22  2  0  0  0  0
 20 23  1  0  0  0  0
 21 24  1  0  0  0  0
 21 25  2  0  0  0  0
 23 26  1  0  0  0  0
 24 27  1  0  0  0  0
 24 28  1  0  0  0  0
 25 29  1  0  0  0  0
 26 30  1  0  0  0  0
 27 31  2  0  0  0  0
 27 32  1  0  0  0  0
 28 33  1  0  0  0  0
 30 34  1  0  0  0  0
 33 35  1  0  0  0  0
 34 36  1  0  0  0  0
 35 37  1  0  0  0  0
 36 38  2  0  0  0  0
 36 39  1  0  0  0  0
 37 40  1  0  0  0  0
 38 41  1  0  0  0  0
 38 42  1  0  0  0  0
 39 43  2  0  0  0  0
 41 44  1  0  0  0  0
 42 45  2  0  0  0  0
  7 10  1  0  0  0  0
 13 15  1  0  0  0  0
 22 25  1  0  0  0  0
 29 32  1  0  0  0  0
 43 45  1  0  0  0  0
M  END
>  <MolRegNo>
324902

>  <m>
=

>  <Value>
35

>  <Unit>
nM

>  <Type>
IC50

>  <pValue>
7.46

>  <Ligand Efficiency>
0

>  <Binding Efficiency>
0

>  <Surface Efficiency>
0

>  <Assay Index>
260798

>  <Assay Category>


>  <Assay Organism>
Homo sapiens

>  <Target ID>
17045

>  <Target Name>
Cytochrome P450 3A4

>  <Target Organism>
Homo sapiens

>  <Target Description>
Target is a single protein chain

>  <Sequence Accession>
P08684

>  <Reference>
Bioorg Med Chem Lett 16 (9), 2500-2504 (2006)

>  <Pubmed ID>
16480874

>  <DOI>
10.1016/j.bmcl.2006.01.084

$$$$
345580
Actelion Java MolfileCreator 1.0

 44 48  0  0  1  0  0  0  0  0999 V2000
    0.0000   -0.0000   -0.0000 O   0  0  0  0  0  0  0  0  0  0  0  0
    1.2902    0.7646   -0.0000 C   0  0  0  0  0  0  0  0  0  0  0  0
    2.5804    0.0358   -0.0000 N   0  0  0  0  0  0  0  0  0  0  0  0
    1.2783    2.2818   -0.0000 C   0  0  0  0  0  0  0  0  0  0  0  0
    2.5685   -1.4575   -0.0000 C   0  0  0  0  0  0  0  0  0  0  0  0
    3.8706    0.7885   -0.0000 C   0  0  0  0  0  0  0  0  0  0  0  0
    2.5685    3.0583   -0.0000 N   0  0  0  0  0  0  0  0  0  0  0  0
    1.2544   -2.1981   -0.0000 C   0  0  0  0  0  0  0  0  0  0  0  0
    3.8587   -2.1981   -0.0000 C   0  0  0  0  0  0  0  0  0  0  0  0
    3.8587    2.3057   -0.0000 C   0  0  0  0  0  0  0  0  0  0  0  0
    5.1608    0.0478   -0.0000 C   0  0  0  0  0  0  0  0  0  0  0  0
    1.2424   -3.6914   -0.0000 C   0  0  0  0  0  0  0  0  0  0  0  0
    3.8467   -3.6914   -0.0000 C   0  0  0  0  0  0  0  0  0  0  0  0
    6.4510    0.8124   -0.0000 O   0  0  0  0  0  0  0  0  0  0  0  0
    2.5326   -4.4321   -0.0000 C   0  0  0  0  0  0  0  0  0  0  0  0
    7.7413    0.0717   -0.0000 C   0  0  0  0  0  0  0  0  0  0  0  0
    2.5207   -5.9254   -0.0000 O   0  0  0  0  0  0  0  0  0  0  0  0
    9.0315    0.8362   -0.0000 C   0  0  0  0  0  0  0  0  0  0  0  0
    7.7174   -1.4216   -0.0000 C   0  0  0  0  0  0  0  0  0  0  0  0
    3.8109   -6.6661   -0.0000 C   0  0  0  0  0  0  0  0  0  0  0  0
   10.3217    0.0956   -0.0000 C   0  0  0  0  0  0  0  0  0  0  0  0
    9.0076   -2.1623   -0.0000 C   0  0  0  0  0  0  0  0  0  0  0  0
    5.1011   -5.9015   -0.0000 C   0  0  0  0  0  0  0  0  0  0  0  0
   11.6119    0.8721   -0.0000 N   0  0  0  0  0  0  0  0  0  0  0  0
   10.3097   -1.4097   -0.0000 C   0  0  0  0  0  0  0  0  0  0  0  0
    6.3913   -6.6422   -0.0000 C   0  0  0  0  0  0  0  0  0  0  0  0
   12.9140    0.1195   -0.0000 C   0  0  0  0  0  0  0  0  0  0  0  0
   11.5999    2.3893   -0.0000 C   0  0  0  0  0  0  0  0  0  0  0  0
   11.5999   -2.1503   -0.0000 C   0  0  0  0  0  0  0  0  0  0  0  0
    7.6815   -5.8776   -0.0000 O   0  0  0  0  0  0  0  0  0  0  0  0
   12.9021   -1.3858   -0.0000 C   0  0  0  0  0  0  0  0  0  0  0  0
   12.8901    3.1538   -0.0000 C   0  0  0  0  0  0  0  0  0  0  0  0
    8.9717   -6.6183   -0.0000 C   0  0  0  0  0  0  0  0  0  0  0  0
   12.8782    4.6710   -0.0000 C   0  0  0  0  0  0  0  0  0  0  0  0
   10.2619   -5.8537   -0.0000 C   0  0  0  0  0  0  0  0  0  0  0  0
   11.5641    5.4356   -0.0000 O   0  0  0  0  0  0  0  0  0  0  0  0
   14.1684    5.4356   -0.0000 O   0  0  0  0  0  0  0  0  0  0  0  0
   10.2380   -4.3485   -0.0000 C   0  0  0  0  0  0  0  0  0  0  0  0
   11.5521   -6.6063   -0.0000 C   0  0  0  0  0  0  0  0  0  0  0  0
    8.9239   -3.5959   -0.0000 O   0  0  0  0  0  0  0  0  0  0  0  0
   11.5283   -3.5839   -0.0000 C   0  0  0  0  0  0  0  0  0  0  0  0
   12.8424   -5.8418   -0.0000 C   0  0  0  0  0  0  0  0  0  0  0  0
    7.6098   -4.3485   -0.0000 C   0  0  0  0  0  0  0  0  0  0  0  0
   12.8304   -4.3246   -0.0000 C   0  0  0  0  0  0  0  0  0  0  0  0
  1  2  2  0  0  0  0
  2  3  1  0  0  0  0
  2  4  1  0  0  0  0
  3  5  1  0  0  0  0
  3  6  1  0  0  0  0
  4  7  1  0  0  0  0
  5  8  2  0  0  0  0
  5  9  1  0  0  0  0
  6 10  1  0  0  0  0
  6 11  1  6  0  0  0
  8 12  1  0  0  0  0
  9 13  2  0  0  0  0
 11 14  1  0  0  0  0
 12 15  2  0  0  0  0
 14 16  1  0  0  0  0
 15 17  1  0  0  0  0
 16 18  2  0  0  0  0
 16 19  1  0  0  0  0
 17 20  1  0  0  0  0
 18 21  1  0  0  0  0
 19 22  2  0  0  0  0
 20 23  1  0  0  0  0
 21 24  1  0  0  0  0
 21 25  2  0  0  0  0
 23 26  1  0  0  0  0
 24 27  1  0  0  0  0
 24 28  1  0  0  0  0
 25 29  1  0  0  0  0
 26 30  1  0  0  0  0
 27 31  1  0  0  0  0
 28 32  1  0  0  0  0
 30 33  1  0  0  0  0
 32 34  1  0  0  0  0
 33 35  1  0  0  0  0
 34 36  2  0  0  0  0
 34 37  1  0  0  0  0
 35 38  2  0  0  0  0
 35 39  1  0  0  0  0
 38 40  1  0  0  0  0
 38 41  1  0  0  0  0
 39 42  2  0  0  0  0
 40 43  1  0  0  0  0
 41 44  2  0  0  0  0
  7 10  1  0  0  0  0
 13 15  1  0  0  0  0
 22 25  1  0  0  0  0
 29 31  1  0  0  0  0
 42 44  1  0  0  0  0
M  END
>  <MolRegNo>
345580

>  <m>
=

>  <Value>
10000

>  <Unit>
nM

>  <Type>
IC50

>  <pValue>
5

>  <Ligand Efficiency>
0

>  <Binding Efficiency>
0

>  <Surface Efficiency>
0

>  <Assay Index>
260798

>  <Assay Category>


>  <Assay Organism>
Homo sapiens

>  <Target ID>
17045

>  <Target Name>
Cytochrome P450 3A4

>  <Target Organism>
Homo sapiens

>  <Target Description>
Target is a single protein chain

>  <Sequence Accession>
P08684

>  <Reference>
Bioorg Med Chem Lett 16 (9), 2500-2504 (2006)

>  <Pubmed ID>
16480874

>  <DOI>
10.1016/j.bmcl.2006.01.084

$$$$
324900
Actelion Java MolfileCreator 1.0

 43 47  0  0  1  0  0  0  0  0999 V2000
    0.0000   -0.0000   -0.0000 O   0  0  0  0  0  0  0  0  0  0  0  0
    1.2922    0.7657   -0.0000 C   0  0  0  0  0  0  0  0  0  0  0  0
    2.5724    0.0239   -0.0000 N   0  0  0  0  0  0  0  0  0  0  0  0
    1.2802    2.2853   -0.0000 C   0  0  0  0  0  0  0  0  0  0  0  0
    2.5604   -1.4597   -0.0000 C   0  0  0  0  0  0  0  0  0  0  0  0
    3.8646    0.7897   -0.0000 C   0  0  0  0  0  0  0  0  0  0  0  0
    2.5604    3.0510   -0.0000 N   0  0  0  0  0  0  0  0  0  0  0  0
    1.2324   -2.2015   -0.0000 C   0  0  0  0  0  0  0  0  0  0  0  0
    3.8526   -2.2015   -0.0000 C   0  0  0  0  0  0  0  0  0  0  0  0
    3.8526    2.3092   -0.0000 C   0  0  0  0  0  0  0  0  0  0  0  0
    5.1568    0.0479   -0.0000 C   0  0  0  0  0  0  0  0  0  0  0  0
    1.2204   -3.6971   -0.0000 C   0  0  0  0  0  0  0  0  0  0  0  0
    3.8526   -3.6732   -0.0000 C   0  0  0  0  0  0  0  0  0  0  0  0
    6.4490    0.8136   -0.0000 O   0  0  0  0  0  0  0  0  0  0  0  0
    2.5245   -4.4389   -0.0000 C   0  0  0  0  0  0  0  0  0  0  0  0
    7.7411    0.0718   -0.0000 C   0  0  0  0  0  0  0  0  0  0  0  0
    2.5126   -5.9345   -0.0000 O   0  0  0  0  0  0  0  0  0  0  0  0
    9.0333    0.8375   -0.0000 C   0  0  0  0  0  0  0  0  0  0  0  0
    7.7292   -1.4238   -0.0000 C   0  0  0  0  0  0  0  0  0  0  0  0
    3.8048   -6.6763   -0.0000 C   0  0  0  0  0  0  0  0  0  0  0  0
   10.3255    0.0957   -0.0000 C   0  0  0  0  0  0  0  0  0  0  0  0
    9.0214   -2.1656   -0.0000 C   0  0  0  0  0  0  0  0  0  0  0  0
    5.0970   -5.9105   -0.0000 C   0  0  0  0  0  0  0  0  0  0  0  0
   11.6177    0.8615   -0.0000 N   0  0  0  0  0  0  0  0  0  0  0  0
   10.3136   -1.3999   -0.0000 C   0  0  0  0  0  0  0  0  0  0  0  0
    6.3891   -6.6404   -0.0000 C   0  0  0  0  0  0  0  0  0  0  0  0
   12.9099    0.1316   -0.0000 C   0  0  0  0  0  0  0  0  0  0  0  0
   11.6057    2.3810   -0.0000 C   0  0  0  0  0  0  0  0  0  0  0  0
   11.6057   -2.1417   -0.0000 C   0  0  0  0  0  0  0  0  0  0  0  0
    7.6813   -5.8747   -0.0000 O   0  0  0  0  0  0  0  0  0  0  0  0
   12.9099   -1.3640   -0.0000 C   0  0  0  0  0  0  0  0  0  0  0  0
   12.8979    3.1467   -0.0000 C   0  0  0  0  0  0  0  0  0  0  0  0
    8.9855   -6.6165   -0.0000 C   0  0  0  0  0  0  0  0  0  0  0  0
   12.8740    4.6662   -0.0000 C   0  0  0  0  0  0  0  0  0  0  0  0
   10.2777   -5.8507   -0.0000 C   0  0  0  0  0  0  0  0  0  0  0  0
   14.1662    5.4439   -0.0000 O   0  0  0  0  0  0  0  0  0  0  0  0
   11.5698   -6.6045   -0.0000 C   0  0  0  0  0  0  0  0  0  0  0  0
   10.2537   -4.3551   -0.0000 C   0  0  0  0  0  0  0  0  0  0  0  0
   11.5579   -8.1001   -0.0000 O   0  0  0  0  0  0  0  0  0  0  0  0
   12.8620   -5.8388   -0.0000 C   0  0  0  0  0  0  0  0  0  0  0  0
   11.5459   -3.5894   -0.0000 C   0  0  0  0  0  0  0  0  0  0  0  0
   10.2298   -8.8299   -0.0000 C   0  0  0  0  0  0  0  0  0  0  0  0
   12.8501   -4.3073   -0.0000 C   0  0  0  0  0  0  0  0  0  0  0  0
  1  2  2  0  0  0  0
  2  3  1  0  0  0  0
  2  4  1  0  0  0  0
  3  5  1  0  0  0  0
  3  6  1  0  0  0  0
  4  7  1  0  0  0  0
  5  8  2  0  0  0  0
  5  9  1  0  0  0  0
  6 10  1  0  0  0  0
  6 11  1  6  0  0  0
  8 12  1  0  0  0  0
  9 13  2  0  0  0  0
 11 14  1  0  0  0  0
 12 15  2  0  0  0  0
 14 16  1  0  0  0  0
 15 17  1  0  0  0  0
 16 18  2  0  0  0  0
 16 19  1  0  0  0  0
 17 20  1  0  0  0  0
 18 21  1  0  0  0  0
 19 22  2  0  0  0  0
 20 23  1  0  0  0  0
 21 24  1  0  0  0  0
 21 25  2  0  0  0  0
 23 26  1  0  0  0  0
 24 27  1  0  0  0  0
 24 28  1  0  0  0  0
 25 29  1  0  0  0  0
 26 30  1  0  0  0  0
 27 31  1  0  0  0  0
 28 32  1  0  0  0  0
 30 33  1  0  0  0  0
 32 34  1  0  0  0  0
 33 35  1  0  0  0  0
 34 36  1  0  0  0  0
 35 37  2  0  0  0  0
 35 38  1  0  0  0  0
 37 39  1  0  0  0  0
 37 40  1  0  0  0  0
 38 41  2  0  0  0  0
 39 42  1  0  0  0  0
 40 43  2  0  0  0  0
  7 10  1  0  0  0  0
 13 15  1  0  0  0  0
 22 25  1  0  0  0  0
 29 31  1  0  0  0  0
 41 43  1  0  0  0  0
M  END
>  <MolRegNo>
324900

>  <m>
=

>  <Value>
455

>  <Unit>
nM

>  <Type>
IC50

>  <pValue>
6.34

>  <Ligand Efficiency>
0

>  <Binding Efficiency>
0

>  <Surface Efficiency>
0

>  <Assay Index>
260798

>  <Assay Category>


>  <Assay Organism>
Homo sapiens

>  <Target ID>
17045

>  <Target Name>
Cytochrome P450 3A4

>  <Target Organism>
Homo sapiens

>  <Target Description>
Target is a single protein chain

>  <Sequence Accession>
P08684

>  <Reference>
Bioorg Med Chem Lett 16 (9), 2500-2504 (2006)

>  <Pubmed ID>
16480874

>  <DOI>
10.1016/j.bmcl.2006.01.084

$$$$
345530
Actelion Java MolfileCreator 1.0

 44 48  0  0  1  0  0  0  0  0999 V2000
    0.0000   -0.0000   -0.0000 O   0  0  0  0  0  0  0  0  0  0  0  0
    1.2899    0.7644   -0.0000 C   0  0  0  0  0  0  0  0  0  0  0  0
    2.5798    0.0358   -0.0000 N   0  0  0  0  0  0  0  0  0  0  0  0
    1.2779    2.2812   -0.0000 C   0  0  0  0  0  0  0  0  0  0  0  0
    2.5678   -1.4571   -0.0000 C   0  0  0  0  0  0  0  0  0  0  0  0
    3.8697    0.7883   -0.0000 C   0  0  0  0  0  0  0  0  0  0  0  0
    2.5678    3.0575   -0.0000 N   0  0  0  0  0  0  0  0  0  0  0  0
    1.2421   -2.1976   -0.0000 C   0  0  0  0  0  0  0  0  0  0  0  0
    3.8577   -2.1976   -0.0000 C   0  0  0  0  0  0  0  0  0  0  0  0
    3.8577    2.3051   -0.0000 C   0  0  0  0  0  0  0  0  0  0  0  0
    5.1596    0.0478   -0.0000 C   0  0  0  0  0  0  0  0  0  0  0  0
    1.2302   -3.6905   -0.0000 C   0  0  0  0  0  0  0  0  0  0  0  0
    3.8458   -3.6905   -0.0000 C   0  0  0  0  0  0  0  0  0  0  0  0
    6.4495    0.8122   -0.0000 O   0  0  0  0  0  0  0  0  0  0  0  0
    2.5201   -4.4310   -0.0000 C   0  0  0  0  0  0  0  0  0  0  0  0
    7.7393    0.0717   -0.0000 C   0  0  0  0  0  0  0  0  0  0  0  0
    2.5081   -5.9239   -0.0000 O   0  0  0  0  0  0  0  0  0  0  0  0
    9.0292    0.8360   -0.0000 C   0  0  0  0  0  0  0  0  0  0  0  0
    7.7155   -1.4213   -0.0000 C   0  0  0  0  0  0  0  0  0  0  0  0
    3.7980   -6.6644   -0.0000 C   0  0  0  0  0  0  0  0  0  0  0  0
   10.3191    0.0955   -0.0000 C   0  0  0  0  0  0  0  0  0  0  0  0
    9.0053   -2.1618   -0.0000 C   0  0  0  0  0  0  0  0  0  0  0  0
    5.0879   -5.9001   -0.0000 C   0  0  0  0  0  0  0  0  0  0  0  0
   11.6090    0.8719   -0.0000 N   0  0  0  0  0  0  0  0  0  0  0  0
   10.3072   -1.4093   -0.0000 C   0  0  0  0  0  0  0  0  0  0  0  0
    6.3778   -6.6405   -0.0000 C   0  0  0  0  0  0  0  0  0  0  0  0
   12.9108    0.1194   -0.0000 C   0  0  0  0  0  0  0  0  0  0  0  0
   11.5971    2.3887   -0.0000 C   0  0  0  0  0  0  0  0  0  0  0  0
   11.5971   -2.1498   -0.0000 C   0  0  0  0  0  0  0  0  0  0  0  0
    7.6677   -5.8762   -0.0000 O   0  0  0  0  0  0  0  0  0  0  0  0
   12.8989   -1.3854   -0.0000 C   0  0  0  0  0  0  0  0  0  0  0  0
   12.8870    3.1531   -0.0000 C   0  0  0  0  0  0  0  0  0  0  0  0
    8.9576   -6.6167   -0.0000 C   0  0  0  0  0  0  0  0  0  0  0  0
   12.8750    4.6699   -0.0000 C   0  0  0  0  0  0  0  0  0  0  0  0
   10.2475   -5.8523   -0.0000 C   0  0  0  0  0  0  0  0  0  0  0  0
   14.1649    5.4343   -0.0000 O   0  0  0  0  0  0  0  0  0  0  0  0
   10.2236   -4.3474   -0.0000 C   0  0  0  0  0  0  0  0  0  0  0  0
   11.5374   -6.6047   -0.0000 C   0  0  0  0  0  0  0  0  0  0  0  0
   14.1530    6.9511   -0.0000 C   0  0  0  0  0  0  0  0  0  0  0  0
    8.9098   -3.5950   -0.0000 O   0  0  0  0  0  0  0  0  0  0  0  0
   11.5135   -3.5830   -0.0000 C   0  0  0  0  0  0  0  0  0  0  0  0
   12.8272   -5.8403   -0.0000 C   0  0  0  0  0  0  0  0  0  0  0  0
    7.5960   -4.3474   -0.0000 C   0  0  0  0  0  0  0  0  0  0  0  0
   12.8153   -4.3235   -0.0000 C   0  0  0  0  0  0  0  0  0  0  0  0
  1  2  2  0  0  0  0
  2  3  1  0  0  0  0
  2  4  1  0  0  0  0
  3  5  1  0  0  0  0
  3  6  1  0  0  0  0
  4  7  1  0  0  0  0
  5  8  2  0  0  0  0
  5  9  1  0  0  0  0
  6 10  1  0  0  0  0
  6 11  1  6  0  0  0
  8 12  1  0  0  0  0
  9 13  2  0  0  0  0
 11 14  1  0  0  0  0
 12 15  2  0  0  0  0
 14 16  1  0  0  0  0
 15 17  1  0  0  0  0
 16 18  2  0  0  0  0
 16 19  1  0  0  0  0
 17 20  1  0  0  0  0
 18 21  1  0  0  0  0
 19 22  2  0  0  0  0
 20 23  1  0  0  0  0
 21 24  1  0  0  0  0
 21 25  2  0  0  0  0
 23 26  1  0  0  0  0
 24 27  1  0  0  0  0
 24 28  1  0  0  0  0
 25 29  1  0  0  0  0
 26 30  1  0  0  0  0
 27 31  1  0  0  0  0
 28 32  1  0  0  0  0
 30 33  1  0  0  0  0
 32 34  1  0  0  0  0
 33 35  1  0  0  0  0
 34 36  1  0  0  0  0
 35 37  2  0  0  0  0
 35 38  1  0  0  0  0
 36 39  1  0  0  0  0
 37 40  1  0  0  0  0
 37 41  1  0  0  0  0
 38 42  2  0  0  0  0
 40 43  1  0  0  0  0
 41 44  2  0  0  0  0
  7 10  1  0  0  0  0
 13 15  1  0  0  0  0
 22 25  1  0  0  0  0
 29 31  1  0  0  0  0
 42 44  1  0  0  0  0
M  END
>  <MolRegNo>
345530

>  <m>
=

>  <Value>
12

>  <Unit>
nM

>  <Type>
IC50

>  <pValue>
7.92

>  <Ligand Efficiency>
0

>  <Binding Efficiency>
0

>  <Surface Efficiency>
0

>  <Assay Index>
260798

>  <Assay Category>


>  <Assay Organism>
Homo sapiens

>  <Target ID>
17045

>  <Target Name>
Cytochrome P450 3A4

>  <Target Organism>
Homo sapiens

>  <Target Description>
Target is a single protein chain

>  <Sequence Accession>
P08684

>  <Reference>
Bioorg Med Chem Lett 16 (9), 2500-2504 (2006)

>  <Pubmed ID>
16480874

>  <DOI>
10.1016/j.bmcl.2006.01.084

$$$$
345529
Actelion Java MolfileCreator 1.0

 47 51  0  0  1  0  0  0  0  0999 V2000
    0.0000   -0.0000   -0.0000 O   0  0  0  0  0  0  0  0  0  0  0  0
    1.2906    0.7648   -0.0000 C   0  0  0  0  0  0  0  0  0  0  0  0
    2.5812    0.0358   -0.0000 N   0  0  0  0  0  0  0  0  0  0  0  0
    1.2786    2.2824   -0.0000 C   0  0  0  0  0  0  0  0  0  0  0  0
    2.5692   -1.4579   -0.0000 C   0  0  0  0  0  0  0  0  0  0  0  0
    3.8718    0.7887   -0.0000 C   0  0  0  0  0  0  0  0  0  0  0  0
    2.5692    3.0592   -0.0000 N   0  0  0  0  0  0  0  0  0  0  0  0
    1.2547   -2.1988   -0.0000 C   0  0  0  0  0  0  0  0  0  0  0  0
    3.8598   -2.1988   -0.0000 C   0  0  0  0  0  0  0  0  0  0  0  0
    3.8598    2.3063   -0.0000 C   0  0  0  0  0  0  0  0  0  0  0  0
    5.1623    0.0478   -0.0000 C   0  0  0  0  0  0  0  0  0  0  0  0
    1.2428   -3.6925   -0.0000 C   0  0  0  0  0  0  0  0  0  0  0  0
    3.8479   -3.6925   -0.0000 C   0  0  0  0  0  0  0  0  0  0  0  0
    6.4529    0.8126   -0.0000 O   0  0  0  0  0  0  0  0  0  0  0  0
    2.5334   -4.4334   -0.0000 C   0  0  0  0  0  0  0  0  0  0  0  0
    7.7435    0.0717   -0.0000 C   0  0  0  0  0  0  0  0  0  0  0  0
    2.5214   -5.9271   -0.0000 O   0  0  0  0  0  0  0  0  0  0  0  0
    9.0341    0.8365   -0.0000 C   0  0  0  0  0  0  0  0  0  0  0  0
    7.7196   -1.4220   -0.0000 C   0  0  0  0  0  0  0  0  0  0  0  0
    3.8120   -6.6680   -0.0000 C   0  0  0  0  0  0  0  0  0  0  0  0
   10.3247    0.0956   -0.0000 C   0  0  0  0  0  0  0  0  0  0  0  0
    9.0102   -2.1629   -0.0000 C   0  0  0  0  0  0  0  0  0  0  0  0
    5.1026   -5.9032   -0.0000 C   0  0  0  0  0  0  0  0  0  0  0  0
   11.6153    0.8723   -0.0000 N   0  0  0  0  0  0  0  0  0  0  0  0
   10.3127   -1.4101   -0.0000 C   0  0  0  0  0  0  0  0  0  0  0  0
    6.3932   -6.6441   -0.0000 C   0  0  0  0  0  0  0  0  0  0  0  0
   12.9178    0.1195   -0.0000 C   0  0  0  0  0  0  0  0  0  0  0  0
   11.6033    2.3900   -0.0000 C   0  0  0  0  0  0  0  0  0  0  0  0
   11.6033   -2.1510   -0.0000 C   0  0  0  0  0  0  0  0  0  0  0  0
    7.6838   -5.8793   -0.0000 O   0  0  0  0  0  0  0  0  0  0  0  0
   12.9059   -1.3862   -0.0000 C   0  0  0  0  0  0  0  0  0  0  0  0
   12.8939    3.1548   -0.0000 C   0  0  0  0  0  0  0  0  0  0  0  0
    8.9743   -6.6202   -0.0000 C   0  0  0  0  0  0  0  0  0  0  0  0
   12.8820    4.6724   -0.0000 O   0  0  0  0  0  0  0  0  0  0  0  0
   10.2649   -5.8554   -0.0000 C   0  0  0  0  0  0  0  0  0  0  0  0
   14.1725    5.4372   -0.0000 C   0  0  0  0  0  0  0  0  0  0  0  0
   10.2410   -4.3497   -0.0000 C   0  0  0  0  0  0  0  0  0  0  0  0
   11.5555   -6.6083   -0.0000 C   0  0  0  0  0  0  0  0  0  0  0  0
   14.1606    6.9548   -0.0000 O   0  0  0  0  0  0  0  0  0  0  0  0
   15.4631    4.6963   -0.0000 C   0  0  0  0  0  0  0  0  0  0  0  0
    8.9265   -3.5969   -0.0000 O   0  0  0  0  0  0  0  0  0  0  0  0
   11.5316   -3.5850   -0.0000 C   0  0  0  0  0  0  0  0  0  0  0  0
   12.8461   -5.8435   -0.0000 C   0  0  0  0  0  0  0  0  0  0  0  0
   15.4512    3.2026   -0.0000 C   0  0  0  0  0  0  0  0  0  0  0  0
   16.7537    5.4611   -0.0000 C   0  0  0  0  0  0  0  0  0  0  0  0
    7.6121   -4.3497   -0.0000 C   0  0  0  0  0  0  0  0  0  0  0  0
   12.8342   -4.3258   -0.0000 C   0  0  0  0  0  0  0  0  0  0  0  0
  1  2  2  0  0  0  0
  2  3  1  0  0  0  0
  2  4  1  0  0  0  0
  3  5  1  0  0  0  0
  3  6  1  0  0  0  0
  4  7  1  0  0  0  0
  5  8  2  0  0  0  0
  5  9  1  0  0  0  0
  6 10  1  0  0  0  0
  6 11  1  6  0  0  0
  8 12  1  0  0  0  0
  9 13  2  0  0  0  0
 11 14  1  0  0  0  0
 12 15  2  0  0  0  0
 14 16  1  0  0  0  0
 15 17  1  0  0  0  0
 16 18  2  0  0  0  0
 16 19  1  0  0  0  0
 17 20  1  0  0  0  0
 18 21  1  0  0  0  0
 19 22  2  0  0  0  0
 20 23  1  0  0  0  0
 21 24  1  0  0  0  0
 21 25  2  0  0  0  0
 23 26  1  0  0  0  0
 24 27  1  0  0  0  0
 24 28  1  0  0  0  0
 25 29  1  0  0  0  0
 26 30  1  0  0  0  0
 27 31  1  0  0  0  0
 28 32  1  0  0  0  0
 30 33  1  0  0  0  0
 32 34  1  0  0  0  0
 33 35  1  0  0  0  0
 34 36  1  0  0  0  0
 35 37  2  0  0  0  0
 35 38  1  0  0  0  0
 36 39  2  0  0  0  0
 36 40  1  0  0  0  0
 37 41  1  0  0  0  0
 37 42  1  0  0  0  0
 38 43  2  0  0  0  0
 40 44  1  0  0  0  0
 40 45  1  0  0  0  0
 41 46  1  0  0  0  0
 42 47  2  0  0  0  0
  7 10  1  0  0  0  0
 13 15  1  0  0  0  0
 22 25  1  0  0  0  0
 29 31  1  0  0  0  0
 43 47  1  0  0  0  0
M  END
>  <MolRegNo>
345529

>  <m>
=

>  <Value>
54

>  <Unit>
nM

>  <Type>
IC50

>  <pValue>
7.27

>  <Ligand Efficiency>
0

>  <Binding Efficiency>
0

>  <Surface Efficiency>
0

>  <Assay Index>
260798

>  <Assay Category>


>  <Assay Organism>
Homo sapiens

>  <Target ID>
17045

>  <Target Name>
Cytochrome P450 3A4

>  <Target Organism>
Homo sapiens

>  <Target Description>
Target is a single protein chain

>  <Sequence Accession>
P08684

>  <Reference>
Bioorg Med Chem Lett 16 (9), 2500-2504 (2006)

>  <Pubmed ID>
16480874

>  <DOI>
10.1016/j.bmcl.2006.01.084

$$$$
346004
Actelion Java MolfileCreator 1.0

 47 52  0  0  1  0  0  0  0  0999 V2000
    0.0000   -0.0000   -0.0000 O   0  0  0  0  0  0  0  0  0  0  0  0
    1.2895    0.7641   -0.0000 C   0  0  0  0  0  0  0  0  0  0  0  0
    2.5790    0.0358   -0.0000 N   0  0  0  0  0  0  0  0  0  0  0  0
    1.2775    2.2805   -0.0000 C   0  0  0  0  0  0  0  0  0  0  0  0
    2.5670   -1.4566   -0.0000 C   0  0  0  0  0  0  0  0  0  0  0  0
    3.8685    0.7880   -0.0000 C   0  0  0  0  0  0  0  0  0  0  0  0
    2.5670    3.0566   -0.0000 N   0  0  0  0  0  0  0  0  0  0  0  0
    1.2537   -2.1969   -0.0000 C   0  0  0  0  0  0  0  0  0  0  0  0
    3.8565   -2.1969   -0.0000 C   0  0  0  0  0  0  0  0  0  0  0  0
    3.8565    2.3044   -0.0000 C   0  0  0  0  0  0  0  0  0  0  0  0
    5.1579    0.0478   -0.0000 C   0  0  0  0  0  0  0  0  0  0  0  0
    1.2417   -3.6894   -0.0000 C   0  0  0  0  0  0  0  0  0  0  0  0
    3.8446   -3.6894   -0.0000 C   0  0  0  0  0  0  0  0  0  0  0  0
    6.4474    0.8119   -0.0000 O   0  0  0  0  0  0  0  0  0  0  0  0
    2.5312   -4.4296   -0.0000 C   0  0  0  0  0  0  0  0  0  0  0  0
    7.7369    0.0716   -0.0000 C   0  0  0  0  0  0  0  0  0  0  0  0
    2.5193   -5.9221   -0.0000 O   0  0  0  0  0  0  0  0  0  0  0  0
    9.0264    0.8358   -0.0000 C   0  0  0  0  0  0  0  0  0  0  0  0
    7.7130   -1.4208   -0.0000 C   0  0  0  0  0  0  0  0  0  0  0  0
    3.8088   -6.6623   -0.0000 C   0  0  0  0  0  0  0  0  0  0  0  0
   10.3159    0.0955   -0.0000 C   0  0  0  0  0  0  0  0  0  0  0  0
    9.0025   -2.1611   -0.0000 C   0  0  0  0  0  0  0  0  0  0  0  0
    5.0982   -5.8982   -0.0000 C   0  0  0  0  0  0  0  0  0  0  0  0
   11.6054    0.8716   -0.0000 N   0  0  0  0  0  0  0  0  0  0  0  0
   10.3039   -1.4089   -0.0000 C   0  0  0  0  0  0  0  0  0  0  0  0
    6.3877   -6.6385   -0.0000 C   0  0  0  0  0  0  0  0  0  0  0  0
   12.9068    0.1194   -0.0000 C   0  0  0  0  0  0  0  0  0  0  0  0
   11.5934    2.3879   -0.0000 C   0  0  0  0  0  0  0  0  0  0  0  0
   11.5934   -2.1491   -0.0000 C   0  0  0  0  0  0  0  0  0  0  0  0
    7.6772   -5.8743   -0.0000 O   0  0  0  0  0  0  0  0  0  0  0  0
   12.8948   -1.3850   -0.0000 C   0  0  0  0  0  0  0  0  0  0  0  0
   12.8829    3.1521   -0.0000 C   0  0  0  0  0  0  0  0  0  0  0  0
    8.9667   -6.6146   -0.0000 C   0  0  0  0  0  0  0  0  0  0  0  0
   12.8710    4.6684   -0.0000 N   0  0  0  0  0  0  0  0  0  0  0  0
   10.2562   -5.8504   -0.0000 C   0  0  0  0  0  0  0  0  0  0  0  0
   14.0649    5.5758   -0.0000 C   0  0  0  0  0  0  0  0  0  0  0  0
   11.6292    5.5639   -0.0000 C   0  0  0  0  0  0  0  0  0  0  0  0
   10.2323   -4.3460   -0.0000 C   0  0  0  0  0  0  0  0  0  0  0  0
   11.5457   -6.6026   -0.0000 C   0  0  0  0  0  0  0  0  0  0  0  0
   15.4857    5.1341   -0.0000 O   0  0  0  0  0  0  0  0  0  0  0  0
   13.5873    7.0205   -0.0000 O   0  0  0  0  0  0  0  0  0  0  0  0
   12.0829    7.0086   -0.0000 C   0  0  0  0  0  0  0  0  0  0  0  0
    8.9189   -3.5938   -0.0000 O   0  0  0  0  0  0  0  0  0  0  0  0
   11.5218   -3.5819   -0.0000 C   0  0  0  0  0  0  0  0  0  0  0  0
   12.8351   -5.8385   -0.0000 C   0  0  0  0  0  0  0  0  0  0  0  0
    7.6056   -4.3460   -0.0000 C   0  0  0  0  0  0  0  0  0  0  0  0
   12.8232   -4.3222   -0.0000 C   0  0  0  0  0  0  0  0  0  0  0  0
  1  2  2  0  0  0  0
  2  3  1  0  0  0  0
  2  4  1  0  0  0  0
  3  5  1  0  0  0  0
  3  6  1  0  0  0  0
  4  7  1  0  0  0  0
  5  8  2  0  0  0  0
  5  9  1  0  0  0  0
  6 10  1  0  0  0  0
  6 11  1  6  0  0  0
  8 12  1  0  0  0  0
  9 13  2  0  0  0  0
 11 14  1  0  0  0  0
 12 15  2  0  0  0  0
 14 16  1  0  0  0  0
 15 17  1  0  0  0  0
 16 18  2  0  0  0  0
 16 19  1  0  0  0  0
 17 20  1  0  0  0  0
 18 21  1  0  0  0  0
 19 22  2  0  0  0  0
 20 23  1  0  0  0  0
 21 24  1  0  0  0  0
 21 25  2  0  0  0  0
 23 26  1  0  0  0  0
 24 27  1  0  0  0  0
 24 28  1  0  0  0  0
 25 29  1  0  0  0  0
 26 30  1  0  0  0  0
 27 31  1  0  0  0  0
 28 32  1  0  0  0  0
 30 33  1  0  0  0  0
 32 34  1  0  0  0  0
 33 35  1  0  0  0  0
 34 36  1  0  0  0  0
 34 37  1  0  0  0  0
 35 38  2  0  0  0  0
 35 39  1  0  0  0  0
 36 40  2  0  0  0  0
 36 41  1  0  0  0  0
 37 42  1  0  0  0  0
 38 43  1  0  0  0  0
 38 44  1  0  0  0  0
 39 45  2  0  0  0  0
 43 46  1  0  0  0  0
 44 47  2  0  0  0  0
  7 10  1  0  0  0  0
 13 15  1  0  0  0  0
 22 25  1  0  0  0  0
 29 31  1  0  0  0  0
 41 42  1  0  0  0  0
 45 47  1  0  0  0  0
M  END
>  <MolRegNo>
346004

>  <m>
=

>  <Value>
3790

>  <Unit>
nM

>  <Type>
IC50

>  <pValue>
5.42

>  <Ligand Efficiency>
0

>  <Binding Efficiency>
0

>  <Surface Efficiency>
0

>  <Assay Index>
260798

>  <Assay Category>


>  <Assay Organism>
Homo sapiens

>  <Target ID>
17045

>  <Target Name>
Cytochrome P450 3A4

>  <Target Organism>
Homo sapiens

>  <Target Description>
Target is a single protein chain

>  <Sequence Accession>
P08684

>  <Reference>
Bioorg Med Chem Lett 16 (9), 2500-2504 (2006)

>  <Pubmed ID>
16480874

>  <DOI>
10.1016/j.bmcl.2006.01.084

$$$$
345829
Actelion Java MolfileCreator 1.0

 47 52  0  0  1  0  0  0  0  0999 V2000
    0.0000   -0.0000   -0.0000 O   0  0  0  0  0  0  0  0  0  0  0  0
    1.2891    0.7639   -0.0000 C   0  0  0  0  0  0  0  0  0  0  0  0
    2.5783    0.0358   -0.0000 N   0  0  0  0  0  0  0  0  0  0  0  0
    1.2772    2.2799   -0.0000 C   0  0  0  0  0  0  0  0  0  0  0  0
    2.5663   -1.4563   -0.0000 C   0  0  0  0  0  0  0  0  0  0  0  0
    3.8674    0.7878   -0.0000 C   0  0  0  0  0  0  0  0  0  0  0  0
    2.5663    3.0557   -0.0000 N   0  0  0  0  0  0  0  0  0  0  0  0
    1.2414   -2.1963   -0.0000 C   0  0  0  0  0  0  0  0  0  0  0  0
    3.8555   -2.1963   -0.0000 C   0  0  0  0  0  0  0  0  0  0  0  0
    3.8555    2.3037   -0.0000 C   0  0  0  0  0  0  0  0  0  0  0  0
    5.1566    0.0477   -0.0000 C   0  0  0  0  0  0  0  0  0  0  0  0
    1.2295   -3.6884   -0.0000 C   0  0  0  0  0  0  0  0  0  0  0  0
    3.8435   -3.6884   -0.0000 C   0  0  0  0  0  0  0  0  0  0  0  0
    6.4457    0.8117   -0.0000 O   0  0  0  0  0  0  0  0  0  0  0  0
    2.5186   -4.4284   -0.0000 C   0  0  0  0  0  0  0  0  0  0  0  0
    7.7348    0.0716   -0.0000 C   0  0  0  0  0  0  0  0  0  0  0  0
    2.5067   -5.9205   -0.0000 O   0  0  0  0  0  0  0  0  0  0  0  0
    9.0240    0.8356   -0.0000 C   0  0  0  0  0  0  0  0  0  0  0  0
    7.7110   -1.4204   -0.0000 C   0  0  0  0  0  0  0  0  0  0  0  0
    3.7958   -6.6606   -0.0000 C   0  0  0  0  0  0  0  0  0  0  0  0
   10.3131    0.0955   -0.0000 C   0  0  0  0  0  0  0  0  0  0  0  0
    9.0001   -2.1605   -0.0000 C   0  0  0  0  0  0  0  0  0  0  0  0
    5.0849   -5.8966   -0.0000 C   0  0  0  0  0  0  0  0  0  0  0  0
   11.6023    0.8714   -0.0000 N   0  0  0  0  0  0  0  0  0  0  0  0
   10.3012   -1.4085   -0.0000 C   0  0  0  0  0  0  0  0  0  0  0  0
    6.3741   -6.6367   -0.0000 C   0  0  0  0  0  0  0  0  0  0  0  0
   12.9033    0.1194   -0.0000 C   0  0  0  0  0  0  0  0  0  0  0  0
   11.5903    2.3873   -0.0000 C   0  0  0  0  0  0  0  0  0  0  0  0
   11.5903   -2.1486   -0.0000 C   0  0  0  0  0  0  0  0  0  0  0  0
    7.6632   -5.8727   -0.0000 O   0  0  0  0  0  0  0  0  0  0  0  0
   12.8914   -1.3846   -0.0000 C   0  0  0  0  0  0  0  0  0  0  0  0
   12.8795    3.1512   -0.0000 C   0  0  0  0  0  0  0  0  0  0  0  0
    8.9524   -6.6128   -0.0000 C   0  0  0  0  0  0  0  0  0  0  0  0
   12.8675    4.6672   -0.0000 N   0  0  0  0  0  0  0  0  0  0  0  0
   10.2415   -5.8489   -0.0000 C   0  0  0  0  0  0  0  0  0  0  0  0
   14.0612    5.5743   -0.0000 C   0  0  0  0  0  0  0  0  0  0  0  0
   11.6261    5.5624   -0.0000 C   0  0  0  0  0  0  0  0  0  0  0  0
   10.2176   -4.3449   -0.0000 C   0  0  0  0  0  0  0  0  0  0  0  0
   11.5306   -6.6009   -0.0000 C   0  0  0  0  0  0  0  0  0  0  0  0
   15.4816    5.1327   -0.0000 O   0  0  0  0  0  0  0  0  0  0  0  0
   13.5837    7.0186   -0.0000 C   0  0  0  0  0  0  0  0  0  0  0  0
   12.0797    7.0067   -0.0000 C   0  0  0  0  0  0  0  0  0  0  0  0
    8.9046   -3.5929   -0.0000 O   0  0  0  0  0  0  0  0  0  0  0  0
   11.5068   -3.5809   -0.0000 C   0  0  0  0  0  0  0  0  0  0  0  0
   12.8198   -5.8369   -0.0000 C   0  0  0  0  0  0  0  0  0  0  0  0
    7.5916   -4.3449   -0.0000 C   0  0  0  0  0  0  0  0  0  0  0  0
   12.8078   -4.3210   -0.0000 C   0  0  0  0  0  0  0  0  0  0  0  0
  1  2  2  0  0  0  0
  2  3  1  0  0  0  0
  2  4  1  0  0  0  0
  3  5  1  0  0  0  0
  3  6  1  0  0  0  0
  4  7  1  0  0  0  0
  5  8  2  0  0  0  0
  5  9  1  0  0  0  0
  6 10  1  0  0  0  0
  6 11  1  6  0  0  0
  8 12  1  0  0  0  0
  9 13  2  0  0  0  0
 11 14  1  0  0  0  0
 12 15  2  0  0  0  0
 14 16  1  0  0  0  0
 15 17  1  0  0  0  0
 16 18  2  0  0  0  0
 16 19  1  0  0  0  0
 17 20  1  0  0  0  0
 18 21  1  0  0  0  0
 19 22  2  0  0  0  0
 20 23  1  0  0  0  0
 21 24  1  0  0  0  0
 21 25  2  0  0  0  0
 23 26  1  0  0  0  0
 24 27  1  0  0  0  0
 24 28  1  0  0  0  0
 25 29  1  0  0  0  0
 26 30  1  0  0  0  0
 27 31  1  0  0  0  0
 28 32  1  0  0  0  0
 30 33  1  0  0  0  0
 32 34  1  0  0  0  0
 33 35  1  0  0  0  0
 34 36  1  0  0  0  0
 34 37  1  0  0  0  0
 35 38  2  0  0  0  0
 35 39  1  0  0  0  0
 36 40  2  0  0  0  0
 36 41  1  0  0  0  0
 37 42  1  0  0  0  0
 38 43  1  0  0  0  0
 38 44  1  0  0  0  0
 39 45  2  0  0  0  0
 43 46  1  0  0  0  0
 44 47  2  0  0  0  0
  7 10  1  0  0  0  0
 13 15  1  0  0  0  0
 22 25  1  0  0  0  0
 29 31  1  0  0  0  0
 41 42  1  0  0  0  0
 45 47  1  0  0  0  0
M  END
>  <MolRegNo>
345829

>  <m>
=

>  <Value>
42

>  <Unit>
nM

>  <Type>
IC50

>  <pValue>
7.38

>  <Ligand Efficiency>
0

>  <Binding Efficiency>
0

>  <Surface Efficiency>
0

>  <Assay Index>
260798

>  <Assay Category>


>  <Assay Organism>
Homo sapiens

>  <Target ID>
17045

>  <Target Name>
Cytochrome P450 3A4

>  <Target Organism>
Homo sapiens

>  <Target Description>
Target is a single protein chain

>  <Sequence Accession>
P08684

>  <Reference>
Bioorg Med Chem Lett 16 (9), 2500-2504 (2006)

>  <Pubmed ID>
16480874

>  <DOI>
10.1016/j.bmcl.2006.01.084

$$$$
345828
Actelion Java MolfileCreator 1.0

 46 50  0  0  1  0  0  0  0  0999 V2000
    0.0000   -0.0000   -0.0000 O   0  0  0  0  0  0  0  0  0  0  0  0
    1.2898    0.7643   -0.0000 C   0  0  0  0  0  0  0  0  0  0  0  0
    2.5795    0.0358   -0.0000 N   0  0  0  0  0  0  0  0  0  0  0  0
    1.2778    2.2810   -0.0000 C   0  0  0  0  0  0  0  0  0  0  0  0
    2.5676   -1.4570   -0.0000 C   0  0  0  0  0  0  0  0  0  0  0  0
    3.8693    0.7882   -0.0000 C   0  0  0  0  0  0  0  0  0  0  0  0
    2.5676    3.0572   -0.0000 N   0  0  0  0  0  0  0  0  0  0  0  0
    1.2420   -2.1974   -0.0000 C   0  0  0  0  0  0  0  0  0  0  0  0
    3.8574   -2.1974   -0.0000 C   0  0  0  0  0  0  0  0  0  0  0  0
    3.8574    2.3049   -0.0000 C   0  0  0  0  0  0  0  0  0  0  0  0
    5.1591    0.0478   -0.0000 C   0  0  0  0  0  0  0  0  0  0  0  0
    1.2301   -3.6902   -0.0000 C   0  0  0  0  0  0  0  0  0  0  0  0
    3.8454   -3.6902   -0.0000 C   0  0  0  0  0  0  0  0  0  0  0  0
    6.4488    0.8121   -0.0000 O   0  0  0  0  0  0  0  0  0  0  0  0
    2.5198   -4.4306   -0.0000 C   0  0  0  0  0  0  0  0  0  0  0  0
    7.7386    0.0717   -0.0000 C   0  0  0  0  0  0  0  0  0  0  0  0
    2.5079   -5.9234   -0.0000 O   0  0  0  0  0  0  0  0  0  0  0  0
    9.0284    0.8360   -0.0000 C   0  0  0  0  0  0  0  0  0  0  0  0
    7.7147   -1.4211   -0.0000 C   0  0  0  0  0  0  0  0  0  0  0  0
    3.7976   -6.6638   -0.0000 C   0  0  0  0  0  0  0  0  0  0  0  0
   10.3181    0.0955   -0.0000 C   0  0  0  0  0  0  0  0  0  0  0  0
    9.0045   -2.1616   -0.0000 C   0  0  0  0  0  0  0  0  0  0  0  0
    5.0874   -5.8995   -0.0000 C   0  0  0  0  0  0  0  0  0  0  0  0
   11.6079    0.8718   -0.0000 N   0  0  0  0  0  0  0  0  0  0  0  0
   10.3062   -1.4092   -0.0000 C   0  0  0  0  0  0  0  0  0  0  0  0
    6.3772   -6.6399   -0.0000 C   0  0  0  0  0  0  0  0  0  0  0  0
   12.9096    0.1194   -0.0000 C   0  0  0  0  0  0  0  0  0  0  0  0
   11.5959    2.3885   -0.0000 C   0  0  0  0  0  0  0  0  0  0  0  0
   11.5959   -2.1496   -0.0000 C   0  0  0  0  0  0  0  0  0  0  0  0
    7.6669   -5.8756   -0.0000 O   0  0  0  0  0  0  0  0  0  0  0  0
   12.8977   -1.3853   -0.0000 C   0  0  0  0  0  0  0  0  0  0  0  0
   12.8857    3.1528   -0.0000 C   0  0  0  0  0  0  0  0  0  0  0  0
    8.9567   -6.6160   -0.0000 C   0  0  0  0  0  0  0  0  0  0  0  0
   12.8738    4.6694   -0.0000 N   0  0  0  0  0  0  0  0  0  0  0  0
   10.2465   -5.8517   -0.0000 C   0  0  0  0  0  0  0  0  0  0  0  0
   14.1635    5.4337   -0.0000 C   0  0  0  0  0  0  0  0  0  0  0  0
   11.5601    5.4337   -0.0000 C   0  0  0  0  0  0  0  0  0  0  0  0
   10.2226   -4.3470   -0.0000 C   0  0  0  0  0  0  0  0  0  0  0  0
   11.5362   -6.6041   -0.0000 C   0  0  0  0  0  0  0  0  0  0  0  0
   14.1516    6.9504   -0.0000 O   0  0  0  0  0  0  0  0  0  0  0  0
   15.4533    4.6933   -0.0000 C   0  0  0  0  0  0  0  0  0  0  0  0
    8.9089   -3.5946   -0.0000 O   0  0  0  0  0  0  0  0  0  0  0  0
   11.5123   -3.5827   -0.0000 C   0  0  0  0  0  0  0  0  0  0  0  0
   12.8260   -5.8398   -0.0000 C   0  0  0  0  0  0  0  0  0  0  0  0
    7.5953   -4.3470   -0.0000 C   0  0  0  0  0  0  0  0  0  0  0  0
   12.8141   -4.3231   -0.0000 C   0  0  0  0  0  0  0  0  0  0  0  0
  1  2  2  0  0  0  0
  2  3  1  0  0  0  0
  2  4  1  0  0  0  0
  3  5  1  0  0  0  0
  3  6  1  0  0  0  0
  4  7  1  0  0  0  0
  5  8  2  0  0  0  0
  5  9  1  0  0  0  0
  6 10  1  0  0  0  0
  6 11  1  6  0  0  0
  8 12  1  0  0  0  0
  9 13  2  0  0  0  0
 11 14  1  0  0  0  0
 12 15  2  0  0  0  0
 14 16  1  0  0  0  0
 15 17  1  0  0  0  0
 16 18  2  0  0  0  0
 16 19  1  0  0  0  0
 17 20  1  0  0  0  0
 18 21  1  0  0  0  0
 19 22  2  0  0  0  0
 20 23  1  0  0  0  0
 21 24  1  0  0  0  0
 21 25  2  0  0  0  0
 23 26  1  0  0  0  0
 24 27  1  0  0  0  0
 24 28  1  0  0  0  0
 25 29  1  0  0  0  0
 26 30  1  0  0  0  0
 27 31  1  0  0  0  0
 28 32  1  0  0  0  0
 30 33  1  0  0  0  0
 32 34  1  0  0  0  0
 33 35  1  0  0  0  0
 34 36  1  0  0  0  0
 34 37  1  0  0  0  0
 35 38  2  0  0  0  0
 35 39  1  0  0  0  0
 36 40  2  0  0  0  0
 36 41  1  0  0  0  0
 38 42  1  0  0  0  0
 38 43  1  0  0  0  0
 39 44  2  0  0  0  0
 42 45  1  0  0  0  0
 43 46  2  0  0  0  0
  7 10  1  0  0  0  0
 13 15  1  0  0  0  0
 22 25  1  0  0  0  0
 29 31  1  0  0  0  0
 44 46  1  0  0  0  0
M  END
>  <MolRegNo>
345828

>  <m>
=

>  <Value>
18

>  <Unit>
nM

>  <Type>
IC50

>  <pValue>
7.75

>  <Ligand Efficiency>
0

>  <Binding Efficiency>
0

>  <Surface Efficiency>
0

>  <Assay Index>
260798

>  <Assay Category>


>  <Assay Organism>
Homo sapiens

>  <Target ID>
17045

>  <Target Name>
Cytochrome P450 3A4

>  <Target Organism>
Homo sapiens

>  <Target Description>
Target is a single protein chain

>  <Sequence Accession>
P08684

>  <Reference>
Bioorg Med Chem Lett 16 (9), 2500-2504 (2006)

>  <Pubmed ID>
16480874

>  <DOI>
10.1016/j.bmcl.2006.01.084

$$$$
346294
Actelion Java MolfileCreator 1.0

 16 17  0  0  0  0  0  0  0  0999 V2000
    0.0000   -0.0000   -0.0000 S   0  0  0  0  0  0  0  0  0  0  0  0
    1.1929    0.9150   -0.0000 C   0  0  0  0  0  0  0  0  0  0  0  0
   -1.2392    0.8686   -0.0000 C   0  0  0  0  0  0  0  0  0  0  0  0
    0.6949    2.3511   -0.0000 C   0  0  0  0  0  0  0  0  0  0  0  0
    2.6175    0.4864   -0.0000 C   0  0  0  0  0  0  0  0  0  0  0  0
   -2.6638    0.3938   -0.0000 C   0  0  0  0  0  0  0  0  0  0  0  0
   -0.8107    2.3047   -0.0000 C   0  0  0  0  0  0  0  0  0  0  0  0
    1.5404    3.5903   -0.0000 N   0  0  0  0  0  0  0  0  0  0  0  0
    3.7061    1.5172   -0.0000 O   0  0  0  0  0  0  0  0  0  0  0  0
    2.9417   -0.9613   -0.0000 N   0  0  0  0  0  0  0  0  0  0  0  0
   -3.7988    1.3898   -0.0000 C   0  0  0  0  0  0  0  0  0  0  0  0
   -2.9649   -1.0539   -0.0000 C   0  0  0  0  0  0  0  0  0  0  0  0
   -5.2233    0.9150   -0.0000 C   0  0  0  0  0  0  0  0  0  0  0  0
   -4.3894   -1.5288   -0.0000 C   0  0  0  0  0  0  0  0  0  0  0  0
   -5.5244   -0.5443   -0.0000 C   0  0  0  0  0  0  0  0  0  0  0  0
   -6.9490   -1.0192   -0.0000 F   0  0  0  0  0  0  0  0  0  0  0  0
  1  2  1  0  0  0  0
  1  3  1  0  0  0  0
  2  4  2  0  0  0  0
  2  5  1  0  0  0  0
  3  6  1  0  0  0  0
  3  7  2  0  0  0  0
  4  8  1  0  0  0  0
  5  9  2  0  0  0  0
  5 10  1  0  0  0  0
  6 11  2  0  0  0  0
  6 12  1  0  0  0  0
 11 13  1  0  0  0  0
 12 14  2  0  0  0  0
 13 15  2  0  0  0  0
 15 16  1  0  0  0  0
  4  7  1  0  0  0  0
 14 15  1  0  0  0  0
M  END
>  <MolRegNo>
346294

>  <m>
=

>  <Value>
2000

>  <Unit>
nM

>  <Type>
IC50

>  <pValue>
5.7

>  <Ligand Efficiency>
0

>  <Binding Efficiency>
0

>  <Surface Efficiency>
0

>  <Assay Index>
261444

>  <Assay Category>


>  <Assay Organism>
Homo sapiens

>  <Target ID>
17045

>  <Target Name>
Cytochrome P450 3A4

>  <Target Organism>
Homo sapiens

>  <Target Description>
Target is a single protein chain

>  <Sequence Accession>
P08684

>  <Reference>
J Med Chem 49 (10), 2898-2908 (2006)

>  <Pubmed ID>
16686533

>  <DOI>
10.1021/jm0510979

$$$$
346301
Actelion Java MolfileCreator 1.0

 15 16  0  0  0  0  0  0  0  0999 V2000
    0.0000   -0.0000   -0.0000 S   0  0  0  0  0  0  0  0  0  0  0  0
    1.2021    0.8900   -0.0000 C   0  0  0  0  0  0  0  0  0  0  0  0
   -1.2252    0.8900   -0.0000 C   0  0  0  0  0  0  0  0  0  0  0  0
    0.7282    2.3348   -0.0000 C   0  0  0  0  0  0  0  0  0  0  0  0
    2.6122    0.4392   -0.0000 C   0  0  0  0  0  0  0  0  0  0  0  0
   -2.6584    0.4392   -0.0000 C   0  0  0  0  0  0  0  0  0  0  0  0
   -0.7744    2.3232   -0.0000 C   0  0  0  0  0  0  0  0  0  0  0  0
    1.5950    3.5599   -0.0000 N   0  0  0  0  0  0  0  0  0  0  0  0
    3.7102    1.4563   -0.0000 O   0  0  0  0  0  0  0  0  0  0  0  0
    2.9127   -1.0171   -0.0000 N   0  0  0  0  0  0  0  0  0  0  0  0
   -3.7795    1.4563   -0.0000 C   0  0  0  0  0  0  0  0  0  0  0  0
   -2.9820   -1.0056   -0.0000 C   0  0  0  0  0  0  0  0  0  0  0  0
   -5.2127    1.0056   -0.0000 C   0  0  0  0  0  0  0  0  0  0  0  0
   -4.4152   -1.4563   -0.0000 C   0  0  0  0  0  0  0  0  0  0  0  0
   -5.5364   -0.4508   -0.0000 C   0  0  0  0  0  0  0  0  0  0  0  0
  1  2  1  0  0  0  0
  1  3  1  0  0  0  0
  2  4  2  0  0  0  0
  2  5  1  0  0  0  0
  3  6  1  0  0  0  0
  3  7  2  0  0  0  0
  4  8  1  0  0  0  0
  5  9  2  0  0  0  0
  5 10  1  0  0  0  0
  6 11  2  0  0  0  0
  6 12  1  0  0  0  0
 11 13  1  0  0  0  0
 12 14  2  0  0  0  0
 13 15  2  0  0  0  0
  4  7  1  0  0  0  0
 14 15  1  0  0  0  0
M  END
>  <MolRegNo>
346301

>  <m>
=

>  <Value>
3500

>  <Unit>
nM

>  <Type>
IC50

>  <pValue>
5.46

>  <Ligand Efficiency>
0

>  <Binding Efficiency>
0

>  <Surface Efficiency>
0

>  <Assay Index>
261444

>  <Assay Category>


>  <Assay Organism>
Homo sapiens

>  <Target ID>
17045

>  <Target Name>
Cytochrome P450 3A4

>  <Target Organism>
Homo sapiens

>  <Target Description>
Target is a single protein chain

>  <Sequence Accession>
P08684

>  <Reference>
J Med Chem 49 (10), 2898-2908 (2006)

>  <Pubmed ID>
16686533

>  <DOI>
10.1021/jm0510979

$$$$
346624
Actelion Java MolfileCreator 1.0

 30 33  0  0  0  0  0  0  0  0999 V2000
    0.0000   -0.0000   -0.0000 Cl  0  0  0  0  0  0  0  0  0  0  0  0
    1.3014   -0.7283   -0.0000 C   0  0  0  0  0  0  0  0  0  0  0  0
    2.5908    0.0478   -0.0000 C   0  0  0  0  0  0  0  0  0  0  0  0
    1.3014   -2.2207   -0.0000 C   0  0  0  0  0  0  0  0  0  0  0  0
    3.8922   -0.6805   -0.0000 C   0  0  0  0  0  0  0  0  0  0  0  0
    2.6147   -2.9490   -0.0000 C   0  0  0  0  0  0  0  0  0  0  0  0
    3.8922   -2.1729   -0.0000 C   0  0  0  0  0  0  0  0  0  0  0  0
    5.1816    0.0955   -0.0000 C   0  0  0  0  0  0  0  0  0  0  0  0
    5.1936   -2.9012   -0.0000 O   0  0  0  0  0  0  0  0  0  0  0  0
    6.6860    0.1433   -0.0000 C   0  0  0  0  0  0  0  0  0  0  0  0
    4.3936    1.3969   -0.0000 C   0  0  0  0  0  0  0  0  0  0  0  0
    5.2055   -4.3936   -0.0000 C   0  0  0  0  0  0  0  0  0  0  0  0
    7.9754   -0.5970   -0.0000 C   0  0  0  0  0  0  0  0  0  0  0  0
    7.4023    1.4685   -0.0000 C   0  0  0  0  0  0  0  0  0  0  0  0
    5.1100    2.7221   -0.0000 N   0  0  0  0  0  0  0  0  0  0  0  0
    3.8922   -5.1458   -0.0000 C   0  0  0  0  0  0  0  0  0  0  0  0
    9.2529    0.1671   -0.0000 C   0  0  0  0  0  0  0  0  0  0  0  0
    7.9515   -2.0894   -0.0000 C   0  0  0  0  0  0  0  0  0  0  0  0
    6.6143    2.7699   -0.0000 C   0  0  0  0  0  0  0  0  0  0  0  0
    2.5789   -4.3936   -0.0000 C   0  0  0  0  0  0  0  0  0  0  0  0
    3.9041   -6.6263   -0.0000 C   0  0  0  0  0  0  0  0  0  0  0  0
   10.5423   -0.5731   -0.0000 C   0  0  0  0  0  0  0  0  0  0  0  0
    9.2410   -2.8296   -0.0000 C   0  0  0  0  0  0  0  0  0  0  0  0
    1.2775   -5.1458   -0.0000 C   0  0  0  0  0  0  0  0  0  0  0  0
    2.6027   -7.3904   -0.0000 C   0  0  0  0  0  0  0  0  0  0  0  0
   11.8318    0.1910   -0.0000 C   0  0  0  0  0  0  0  0  0  0  0  0
   10.5304   -2.0774   -0.0000 C   0  0  0  0  0  0  0  0  0  0  0  0
    1.2775   -6.6382   -0.0000 C   0  0  0  0  0  0  0  0  0  0  0  0
   11.8198    1.7073   -0.0000 O   0  0  0  0  0  0  0  0  0  0  0  0
   13.1212   -0.5492   -0.0000 O   0  0  0  0  0  0  0  0  0  0  0  0
  1  2  1  0  0  0  0
  2  3  2  0  0  0  0
  2  4  1  0  0  0  0
  3  5  1  0  0  0  0
  4  6  2  0  0  0  0
  5  7  2  0  0  0  0
  5  8  1  0  0  0  0
  7  9  1  0  0  0  0
  8 10  2  0  0  0  0
  8 11  1  0  0  0  0
  9 12  1  0  0  0  0
 10 13  1  0  0  0  0
 10 14  1  0  0  0  0
 11 15  2  0  0  0  0
 12 16  1  0  0  0  0
 13 17  2  0  0  0  0
 13 18  1  0  0  0  0
 14 19  2  0  0  0  0
 16 20  2  0  0  0  0
 16 21  1  0  0  0  0
 17 22  1  0  0  0  0
 18 23  2  0  0  0  0
 20 24  1  0  0  0  0
 21 25  2  0  0  0  0
 22 26  1  0  0  0  0
 22 27  2  0  0  0  0
 24 28  2  0  0  0  0
 26 29  2  0  0  0  0
 26 30  1  0  0  0  0
  6  7  1  0  0  0  0
 15 19  1  0  0  0  0
 23 27  1  0  0  0  0
 25 28  1  0  0  0  0
M  END
>  <MolRegNo>
346624

>  <m>
=

>  <Value>
1400

>  <Unit>
nM

>  <Type>
IC50

>  <pValue>
5.85

>  <Ligand Efficiency>
0

>  <Binding Efficiency>
0

>  <Surface Efficiency>
0

>  <Assay Index>
261716

>  <Assay Category>


>  <Assay Organism>
Homo sapiens

>  <Target ID>
17045

>  <Target Name>
Cytochrome P450 3A4

>  <Target Organism>
Homo sapiens

>  <Target Description>
Target is a single protein chain

>  <Sequence Accession>
P08684

>  <Reference>
Bioorg Med Chem Lett 16 (10), 2666-2671 (2006)

>  <Pubmed ID>
16503138

>  <DOI>
10.1016/j.bmcl.2006.02.014

$$$$
346148
Actelion Java MolfileCreator 1.0

 29 31  0  0  1  0  0  0  0  0999 V2000
    0.0000   -0.0000   -0.0000 O   0  0  0  0  0  0  0  0  0  0  0  0
    1.4940   -0.0000   -0.0000 C   0  0  0  0  0  0  0  0  0  0  0  0
    2.2409    1.3042   -0.0000 O   0  0  0  0  0  0  0  0  0  0  0  0
    2.2291   -1.2924   -0.0000 C   0  0  0  0  0  0  0  0  0  0  0  0
    3.5215   -0.5336   -0.0000 C   0  0  0  0  0  0  0  0  0  0  0  0
    0.9011   -2.0157   -0.0000 C   0  0  0  0  0  0  0  0  0  0  0  0
    2.9642   -2.5848   -0.0000 C   0  0  0  0  0  0  0  0  0  0  0  0
    4.8138   -1.2687   -0.0000 O   0  0  0  0  0  0  0  0  0  0  0  0
    6.1062   -0.5098   -0.0000 C   0  0  0  0  0  0  0  0  0  0  0  0
    7.3986   -1.2568   -0.0000 C   0  0  0  0  0  0  0  0  0  0  0  0
    6.0944    0.9960   -0.0000 C   0  0  0  0  0  0  0  0  0  0  0  0
    8.6910   -0.4861   -0.0000 C   0  0  0  0  0  0  0  0  0  0  0  0
    7.3749    1.7667   -0.0000 C   0  0  0  0  0  0  0  0  0  0  0  0
    8.6792    1.0315   -0.0000 C   0  0  0  0  0  0  0  0  0  0  0  0
    9.9715   -1.2212   -0.0000 C   0  0  0  0  0  0  0  0  0  0  0  0
    9.9597    1.7904   -0.0000 C   0  0  0  0  0  0  0  0  0  0  0  0
   11.2639   -0.4624   -0.0000 C   0  0  0  0  0  0  0  0  0  0  0  0
   11.2402    1.0553   -0.0000 C   0  0  0  0  0  0  0  0  0  0  0  0
   12.5326    1.8259   -0.0000 C   0  0  0  0  0  0  0  0  0  0  0  0
   12.5208    3.3436   -0.0000 N   0  0  0  0  0  0  0  0  0  0  0  0
   13.8250    1.0908   -0.0000 C   0  0  0  0  0  0  0  0  0  0  0  0
   11.2995    4.2329   -0.0000 C   0  0  0  0  0  0  0  0  0  0  0  0
   13.7301    4.2447   -0.0000 C   0  0  0  0  0  0  0  0  0  0  0  0
   13.8131   -0.4031   -0.0000 N   0  0  0  0  0  0  0  0  0  0  0  0
   15.1174    1.8615   -0.0000 C   0  0  0  0  0  0  0  0  0  0  0  0
   11.7501    5.6794   -0.0000 N   0  0  0  0  0  0  0  0  0  0  0  0
   13.2440    5.6913   -0.0000 C   0  0  0  0  0  0  0  0  0  0  0  0
   12.4970   -1.1501   -0.0000 C   0  0  0  0  0  0  0  0  0  0  0  0
   15.1055   -1.1383   -0.0000 C   0  0  0  0  0  0  0  0  0  0  0  0
  1  2  2  0  0  0  0
  2  3  1  0  0  0  0
  2  4  1  0  0  0  0
  4  5  1  0  0  0  0
  4  6  1  0  0  0  0
  4  7  1  0  0  0  0
  5  8  1  0  0  0  0
  8  9  1  0  0  0  0
  9 10  2  0  0  0  0
  9 11  1  0  0  0  0
 10 12  1  0  0  0  0
 11 13  2  0  0  0  0
 12 14  1  0  0  0  0
 12 15  2  0  0  0  0
 14 16  2  0  0  0  0
 15 17  1  0  0  0  0
 16 18  1  0  0  0  0
 18 19  1  0  0  0  0
 19 20  1  1  0  0  0
 19 21  1  0  0  0  0
 20 22  1  0  0  0  0
 20 23  1  0  0  0  0
 21 24  1  1  0  0  0
 21 25  1  0  0  0  0
 22 26  2  0  0  0  0
 23 27  2  0  0  0  0
 24 28  1  0  0  0  0
 24 29  1  0  0  0  0
 13 14  1  0  0  0  0
 17 18  2  0  0  0  0
 26 27  1  0  0  0  0
M  END
>  <MolRegNo>
346148

>  <m>
=

>  <Value>
6300

>  <Unit>
nM

>  <Type>
IC50

>  <pValue>
5.2

>  <Ligand Efficiency>
0

>  <Binding Efficiency>
0

>  <Surface Efficiency>
0

>  <Assay Index>
261787

>  <Assay Category>


>  <Assay Organism>
Homo sapiens

>  <Target ID>
17045

>  <Target Name>
Cytochrome P450 3A4

>  <Target Organism>
Homo sapiens

>  <Target Description>
Target is a single protein chain

>  <Sequence Accession>
P08684

>  <Reference>
Bioorg Med Chem Lett 16 (10), 2729-2733 (2006)

>  <Pubmed ID>
16504501

>  <DOI>
10.1016/j.bmcl.2006.02.020

$$$$
346914
Actelion Java MolfileCreator 1.0

 30 32  0  0  1  0  0  0  0  0999 V2000
    0.0000   -0.0000   -0.0000 O   0  0  0  0  0  0  0  0  0  0  0  0
    1.4928    0.0118   -0.0000 C   0  0  0  0  0  0  0  0  0  0  0  0
    2.2393    1.3270   -0.0000 O   0  0  0  0  0  0  0  0  0  0  0  0
    2.2393   -1.2796   -0.0000 C   0  0  0  0  0  0  0  0  0  0  0  0
    3.5425   -0.5095   -0.0000 C   0  0  0  0  0  0  0  0  0  0  0  0
    0.9123   -2.0023   -0.0000 C   0  0  0  0  0  0  0  0  0  0  0  0
    2.9738   -2.5710   -0.0000 C   0  0  0  0  0  0  0  0  0  0  0  0
    4.8339   -1.2559   -0.0000 O   0  0  0  0  0  0  0  0  0  0  0  0
    6.1254   -0.4858   -0.0000 C   0  0  0  0  0  0  0  0  0  0  0  0
    7.4049   -1.2322   -0.0000 C   0  0  0  0  0  0  0  0  0  0  0  0
    6.1135    1.0189   -0.0000 C   0  0  0  0  0  0  0  0  0  0  0  0
    8.6964   -0.4621   -0.0000 C   0  0  0  0  0  0  0  0  0  0  0  0
    7.3931    1.7772   -0.0000 C   0  0  0  0  0  0  0  0  0  0  0  0
    8.6845    1.0545   -0.0000 C   0  0  0  0  0  0  0  0  0  0  0  0
    9.9759   -1.2085   -0.0000 C   0  0  0  0  0  0  0  0  0  0  0  0
    9.9641    1.8127   -0.0000 C   0  0  0  0  0  0  0  0  0  0  0  0
   11.2674   -0.4502   -0.0000 C   0  0  0  0  0  0  0  0  0  0  0  0
   11.2555    1.0782   -0.0000 C   0  0  0  0  0  0  0  0  0  0  0  0
   12.5469    1.8364   -0.0000 C   0  0  0  0  0  0  0  0  0  0  0  0
   12.5351    3.3530   -0.0000 N   0  0  0  0  0  0  0  0  0  0  0  0
   13.8384    1.1019   -0.0000 C   0  0  0  0  0  0  0  0  0  0  0  0
   11.3148    4.2534   -0.0000 C   0  0  0  0  0  0  0  0  0  0  0  0
   13.7436    4.2534   -0.0000 C   0  0  0  0  0  0  0  0  0  0  0  0
   13.8265   -0.3910   -0.0000 N   0  0  0  0  0  0  0  0  0  0  0  0
   15.1298    1.8601   -0.0000 C   0  0  0  0  0  0  0  0  0  0  0  0
   11.7531    5.6988   -0.0000 N   0  0  0  0  0  0  0  0  0  0  0  0
   13.2578    5.6988   -0.0000 C   0  0  0  0  0  0  0  0  0  0  0  0
   12.5114   -1.1374   -0.0000 C   0  0  0  0  0  0  0  0  0  0  0  0
   15.1179   -1.1374   -0.0000 C   0  0  0  0  0  0  0  0  0  0  0  0
   16.4212    1.1256   -0.0000 C   0  0  0  0  0  0  0  0  0  0  0  0
  1  2  2  0  0  0  0
  2  3  1  0  0  0  0
  2  4  1  0  0  0  0
  4  5  1  0  0  0  0
  4  6  1  0  0  0  0
  4  7  1  0  0  0  0
  5  8  1  0  0  0  0
  8  9  1  0  0  0  0
  9 10  2  0  0  0  0
  9 11  1  0  0  0  0
 10 12  1  0  0  0  0
 11 13  2  0  0  0  0
 12 14  1  0  0  0  0
 12 15  2  0  0  0  0
 14 16  2  0  0  0  0
 15 17  1  0  0  0  0
 16 18  1  0  0  0  0
 18 19  1  0  0  0  0
 19 20  1  1  0  0  0
 19 21  1  0  0  0  0
 20 22  1  0  0  0  0
 20 23  1  0  0  0  0
 21 24  1  1  0  0  0
 21 25  1  0  0  0  0
 22 26  2  0  0  0  0
 23 27  2  0  0  0  0
 24 28  1  0  0  0  0
 24 29  1  0  0  0  0
 25 30  1  0  0  0  0
 13 14  1  0  0  0  0
 17 18  2  0  0  0  0
 26 27  1  0  0  0  0
M  END
>  <MolRegNo>
346914

>  <m>
=

>  <Value>
3300

>  <Unit>
nM

>  <Type>
IC50

>  <pValue>
5.48

>  <Ligand Efficiency>
0

>  <Binding Efficiency>
0

>  <Surface Efficiency>
0

>  <Assay Index>
261787

>  <Assay Category>


>  <Assay Organism>
Homo sapiens

>  <Target ID>
17045

>  <Target Name>
Cytochrome P450 3A4

>  <Target Organism>
Homo sapiens

>  <Target Description>
Target is a single protein chain

>  <Sequence Accession>
P08684

>  <Reference>
Bioorg Med Chem Lett 16 (10), 2729-2733 (2006)

>  <Pubmed ID>
16504501

>  <DOI>
10.1016/j.bmcl.2006.02.020

$$$$
346985
Actelion Java MolfileCreator 1.0

 30 32  0  0  1  0  0  0  0  0999 V2000
    0.0000   -0.0000   -0.0000 O   0  0  0  0  0  0  0  0  0  0  0  0
    1.4928   -0.0000   -0.0000 C   0  0  0  0  0  0  0  0  0  0  0  0
    2.2511    1.3151   -0.0000 O   0  0  0  0  0  0  0  0  0  0  0  0
    2.2274   -1.3033   -0.0000 C   0  0  0  0  0  0  0  0  0  0  0  0
    3.5188   -0.5332   -0.0000 C   0  0  0  0  0  0  0  0  0  0  0  0
    0.9004   -2.0378   -0.0000 C   0  0  0  0  0  0  0  0  0  0  0  0
    2.9620   -2.5947   -0.0000 C   0  0  0  0  0  0  0  0  0  0  0  0
    4.8102   -1.2796   -0.0000 O   0  0  0  0  0  0  0  0  0  0  0  0
    6.1017   -0.5095   -0.0000 C   0  0  0  0  0  0  0  0  0  0  0  0
    7.3812   -1.2559   -0.0000 C   0  0  0  0  0  0  0  0  0  0  0  0
    6.0898    0.9952   -0.0000 C   0  0  0  0  0  0  0  0  0  0  0  0
    8.6727   -0.4858   -0.0000 C   0  0  0  0  0  0  0  0  0  0  0  0
    7.3694    1.7535   -0.0000 C   0  0  0  0  0  0  0  0  0  0  0  0
    8.6608    1.0308   -0.0000 C   0  0  0  0  0  0  0  0  0  0  0  0
    9.9522   -1.2322   -0.0000 C   0  0  0  0  0  0  0  0  0  0  0  0
    9.9404    1.7890   -0.0000 C   0  0  0  0  0  0  0  0  0  0  0  0
   11.2436   -0.4739   -0.0000 C   0  0  0  0  0  0  0  0  0  0  0  0
   11.2318    1.0545   -0.0000 C   0  0  0  0  0  0  0  0  0  0  0  0
   12.5232    1.8127   -0.0000 C   0  0  0  0  0  0  0  0  0  0  0  0
   12.5114    3.3293   -0.0000 N   0  0  0  0  0  0  0  0  0  0  0  0
   13.8146    1.0782   -0.0000 C   0  0  0  0  0  0  0  0  0  0  0  0
   11.2910    4.2297   -0.0000 C   0  0  0  0  0  0  0  0  0  0  0  0
   13.7198    4.2297   -0.0000 C   0  0  0  0  0  0  0  0  0  0  0  0
   15.0942    0.3317   -0.0000 N   0  0  0  0  0  0  0  0  0  0  0  0
   14.5374    2.3933   -0.0000 C   0  0  0  0  0  0  0  0  0  0  0  0
   13.0682   -0.2251   -0.0000 C   0  0  0  0  0  0  0  0  0  0  0  0
   11.7294    5.6751   -0.0000 N   0  0  0  0  0  0  0  0  0  0  0  0
   13.2341    5.6751   -0.0000 C   0  0  0  0  0  0  0  0  0  0  0  0
   15.0824   -1.1611   -0.0000 C   0  0  0  0  0  0  0  0  0  0  0  0
   16.3856    1.0900   -0.0000 C   0  0  0  0  0  0  0  0  0  0  0  0
  1  2  2  0  0  0  0
  2  3  1  0  0  0  0
  2  4  1  0  0  0  0
  4  5  1  0  0  0  0
  4  6  1  0  0  0  0
  4  7  1  0  0  0  0
  5  8  1  0  0  0  0
  8  9  1  0  0  0  0
  9 10  2  0  0  0  0
  9 11  1  0  0  0  0
 10 12  1  0  0  0  0
 11 13  2  0  0  0  0
 12 14  1  0  0  0  0
 12 15  2  0  0  0  0
 14 16  2  0  0  0  0
 15 17  1  0  0  0  0
 16 18  1  0  0  0  0
 18 19  1  0  0  0  0
 19 20  1  1  0  0  0
 19 21  1  0  0  0  0
 20 22  1  0  0  0  0
 20 23  1  0  0  0  0
 21 24  1  0  0  0  0
 21 25  1  0  0  0  0
 21 26  1  0  0  0  0
 22 27  2  0  0  0  0
 23 28  2  0  0  0  0
 24 29  1  0  0  0  0
 24 30  1  0  0  0  0
 13 14  1  0  0  0  0
 17 18  2  0  0  0  0
 27 28  1  0  0  0  0
M  END
>  <MolRegNo>
346985

>  <m>
=

>  <Value>
2100

>  <Unit>
nM

>  <Type>
IC50

>  <pValue>
5.68

>  <Ligand Efficiency>
0

>  <Binding Efficiency>
0

>  <Surface Efficiency>
0

>  <Assay Index>
261787

>  <Assay Category>


>  <Assay Organism>
Homo sapiens

>  <Target ID>
17045

>  <Target Name>
Cytochrome P450 3A4

>  <Target Organism>
Homo sapiens

>  <Target Description>
Target is a single protein chain

>  <Sequence Accession>
P08684

>  <Reference>
Bioorg Med Chem Lett 16 (10), 2729-2733 (2006)

>  <Pubmed ID>
16504501

>  <DOI>
10.1016/j.bmcl.2006.02.020

$$$$
346977
Actelion Java MolfileCreator 1.0

 33 36  0  0  1  0  0  0  0  0999 V2000
    0.0000   -0.0000   -0.0000 O   0  0  0  0  0  0  0  0  0  0  0  0
   -0.0119   -1.4932   -0.0000 C   0  0  0  0  0  0  0  0  0  0  0  0
   -1.3273   -2.2398   -0.0000 O   0  0  0  0  0  0  0  0  0  0  0  0
    1.2799   -2.2398   -0.0000 C   0  0  0  0  0  0  0  0  0  0  0  0
    0.2015   -3.2945   -0.0000 C   0  0  0  0  0  0  0  0  0  0  0  0
    2.6072   -2.9153   -0.0000 C   0  0  0  0  0  0  0  0  0  0  0  0
    2.5716   -1.4695   -0.0000 C   0  0  0  0  0  0  0  0  0  0  0  0
    0.8651   -4.6337   -0.0000 C   0  0  0  0  0  0  0  0  0  0  0  0
    2.3583   -4.3966   -0.0000 C   0  0  0  0  0  0  0  0  0  0  0  0
    3.8634   -2.2161   -0.0000 O   0  0  0  0  0  0  0  0  0  0  0  0
    5.1551   -1.4576   -0.0000 C   0  0  0  0  0  0  0  0  0  0  0  0
    6.4468   -2.2042   -0.0000 C   0  0  0  0  0  0  0  0  0  0  0  0
    5.1432    0.0474   -0.0000 C   0  0  0  0  0  0  0  0  0  0  0  0
    7.7386   -1.4339   -0.0000 C   0  0  0  0  0  0  0  0  0  0  0  0
    6.4231    0.8177   -0.0000 C   0  0  0  0  0  0  0  0  0  0  0  0
    7.7267    0.0830   -0.0000 C   0  0  0  0  0  0  0  0  0  0  0  0
    9.0184   -2.1687   -0.0000 C   0  0  0  0  0  0  0  0  0  0  0  0
    9.0066    0.8414   -0.0000 C   0  0  0  0  0  0  0  0  0  0  0  0
   10.3102   -1.4102   -0.0000 C   0  0  0  0  0  0  0  0  0  0  0  0
   10.2865    0.1067   -0.0000 C   0  0  0  0  0  0  0  0  0  0  0  0
   11.5782    0.8770   -0.0000 C   0  0  0  0  0  0  0  0  0  0  0  0
   11.5664    2.3939   -0.0000 N   0  0  0  0  0  0  0  0  0  0  0  0
   12.8699    0.1422   -0.0000 C   0  0  0  0  0  0  0  0  0  0  0  0
   10.3457    3.2827   -0.0000 C   0  0  0  0  0  0  0  0  0  0  0  0
   12.7751    3.2945   -0.0000 C   0  0  0  0  0  0  0  0  0  0  0  0
   12.8581   -1.3510   -0.0000 N   0  0  0  0  0  0  0  0  0  0  0  0
   14.1617    0.9125   -0.0000 C   0  0  0  0  0  0  0  0  0  0  0  0
   10.7961    4.7285   -0.0000 N   0  0  0  0  0  0  0  0  0  0  0  0
   12.2893    4.7403   -0.0000 C   0  0  0  0  0  0  0  0  0  0  0  0
   14.1498   -2.0857   -0.0000 C   0  0  0  0  0  0  0  0  0  0  0  0
   11.5427   -2.0976   -0.0000 C   0  0  0  0  0  0  0  0  0  0  0  0
   14.1380   -3.5789   -0.0000 C   0  0  0  0  0  0  0  0  0  0  0  0
   11.5308   -3.5908   -0.0000 C   0  0  0  0  0  0  0  0  0  0  0  0
  1  2  2  0  0  0  0
  2  3  1  0  0  0  0
  2  4  1  0  0  0  0
  4  5  1  0  0  0  0
  4  6  1  0  0  0  0
  4  7  1  0  0  0  0
  5  8  1  0  0  0  0
  6  9  1  0  0  0  0
  7 10  1  0  0  0  0
 10 11  1  0  0  0  0
 11 12  2  0  0  0  0
 11 13  1  0  0  0  0
 12 14  1  0  0  0  0
 13 15  2  0  0  0  0
 14 16  1  0  0  0  0
 14 17  2  0  0  0  0
 16 18  2  0  0  0  0
 17 19  1  0  0  0  0
 18 20  1  0  0  0  0
 20 21  1  0  0  0  0
 21 22  1  1  0  0  0
 21 23  1  0  0  0  0
 22 24  1  0  0  0  0
 22 25  1  0  0  0  0
 23 26  1  1  0  0  0
 23 27  1  0  0  0  0
 24 28  2  0  0  0  0
 25 29  2  0  0  0  0
 26 30  1  0  0  0  0
 26 31  1  0  0  0  0
 30 32  1  0  0  0  0
 31 33  1  0  0  0  0
  8  9  1  0  0  0  0
 15 16  1  0  0  0  0
 19 20  2  0  0  0  0
 28 29  1  0  0  0  0
M  END
>  <MolRegNo>
346977

>  <m>
=

>  <Value>
1010

>  <Unit>
nM

>  <Type>
IC50

>  <pValue>
6

>  <Ligand Efficiency>
0

>  <Binding Efficiency>
0

>  <Surface Efficiency>
0

>  <Assay Index>
261787

>  <Assay Category>


>  <Assay Organism>
Homo sapiens

>  <Target ID>
17045

>  <Target Name>
Cytochrome P450 3A4

>  <Target Organism>
Homo sapiens

>  <Target Description>
Target is a single protein chain

>  <Sequence Accession>
P08684

>  <Reference>
Bioorg Med Chem Lett 16 (10), 2729-2733 (2006)

>  <Pubmed ID>
16504501

>  <DOI>
10.1016/j.bmcl.2006.02.020

$$$$
346175
Actelion Java MolfileCreator 1.0

 33 36  0  0  1  0  0  0  0  0999 V2000
    0.0000   -0.0000   -0.0000 O   0  0  0  0  0  0  0  0  0  0  0  0
   -0.0118   -1.4927   -0.0000 C   0  0  0  0  0  0  0  0  0  0  0  0
   -1.3269   -2.2391   -0.0000 O   0  0  0  0  0  0  0  0  0  0  0  0
    1.2795   -2.2391   -0.0000 C   0  0  0  0  0  0  0  0  0  0  0  0
    0.2014   -3.2935   -0.0000 C   0  0  0  0  0  0  0  0  0  0  0  0
    2.6064   -2.9144   -0.0000 C   0  0  0  0  0  0  0  0  0  0  0  0
    2.5708   -1.4690   -0.0000 C   0  0  0  0  0  0  0  0  0  0  0  0
    0.8648   -4.6322   -0.0000 C   0  0  0  0  0  0  0  0  0  0  0  0
    2.3576   -4.3953   -0.0000 C   0  0  0  0  0  0  0  0  0  0  0  0
    3.8622   -2.2154   -0.0000 O   0  0  0  0  0  0  0  0  0  0  0  0
    5.1535   -1.4453   -0.0000 C   0  0  0  0  0  0  0  0  0  0  0  0
    6.4448   -2.1917   -0.0000 C   0  0  0  0  0  0  0  0  0  0  0  0
    5.1416    0.0592   -0.0000 C   0  0  0  0  0  0  0  0  0  0  0  0
    7.7362   -1.4217   -0.0000 C   0  0  0  0  0  0  0  0  0  0  0  0
    6.4211    0.8293   -0.0000 C   0  0  0  0  0  0  0  0  0  0  0  0
    7.7243    0.0948   -0.0000 C   0  0  0  0  0  0  0  0  0  0  0  0
    9.0156   -2.1562   -0.0000 C   0  0  0  0  0  0  0  0  0  0  0  0
    9.0038    0.8530   -0.0000 C   0  0  0  0  0  0  0  0  0  0  0  0
   10.3070   -1.3980   -0.0000 C   0  0  0  0  0  0  0  0  0  0  0  0
   10.2833    0.1185   -0.0000 C   0  0  0  0  0  0  0  0  0  0  0  0
   11.5746    0.8885   -0.0000 C   0  0  0  0  0  0  0  0  0  0  0  0
   11.5628    2.4050   -0.0000 N   0  0  0  0  0  0  0  0  0  0  0  0
   12.8660    0.1540   -0.0000 C   0  0  0  0  0  0  0  0  0  0  0  0
   10.3425    3.2935   -0.0000 C   0  0  0  0  0  0  0  0  0  0  0  0
   12.7712    3.3053   -0.0000 C   0  0  0  0  0  0  0  0  0  0  0  0
   12.8541   -1.3387   -0.0000 N   0  0  0  0  0  0  0  0  0  0  0  0
   14.1573    0.9241   -0.0000 C   0  0  0  0  0  0  0  0  0  0  0  0
   10.7927    4.7388   -0.0000 N   0  0  0  0  0  0  0  0  0  0  0  0
   12.2854    4.7507   -0.0000 C   0  0  0  0  0  0  0  0  0  0  0  0
   14.1454   -2.0732   -0.0000 C   0  0  0  0  0  0  0  0  0  0  0  0
   11.5391   -2.0851   -0.0000 C   0  0  0  0  0  0  0  0  0  0  0  0
   14.1336   -3.5660   -0.0000 C   0  0  0  0  0  0  0  0  0  0  0  0
   15.4368   -1.3032   -0.0000 C   0  0  0  0  0  0  0  0  0  0  0  0
  1  2  2  0  0  0  0
  2  3  1  0  0  0  0
  2  4  1  0  0  0  0
  4  5  1  0  0  0  0
  4  6  1  0  0  0  0
  4  7  1  0  0  0  0
  5  8  1  0  0  0  0
  6  9  1  0  0  0  0
  7 10  1  0  0  0  0
 10 11  1  0  0  0  0
 11 12  2  0  0  0  0
 11 13  1  0  0  0  0
 12 14  1  0  0  0  0
 13 15  2  0  0  0  0
 14 16  1  0  0  0  0
 14 17  2  0  0  0  0
 16 18  2  0  0  0  0
 17 19  1  0  0  0  0
 18 20  1  0  0  0  0
 20 21  1  0  0  0  0
 21 22  1  1  0  0  0
 21 23  1  0  0  0  0
 22 24  1  0  0  0  0
 22 25  1  0  0  0  0
 23 26  1  1  0  0  0
 23 27  1  0  0  0  0
 24 28  2  0  0  0  0
 25 29  2  0  0  0  0
 26 30  1  0  0  0  0
 26 31  1  0  0  0  0
 30 32  1  0  0  0  0
 30 33  1  0  0  0  0
  8  9  1  0  0  0  0
 15 16  1  0  0  0  0
 19 20  2  0  0  0  0
 28 29  1  0  0  0  0
M  END
>  <MolRegNo>
346175

>  <m>
=

>  <Value>
800

>  <Unit>
nM

>  <Type>
IC50

>  <pValue>
6.1

>  <Ligand Efficiency>
0

>  <Binding Efficiency>
0

>  <Surface Efficiency>
0

>  <Assay Index>
261787

>  <Assay Category>


>  <Assay Organism>
Homo sapiens

>  <Target ID>
17045

>  <Target Name>
Cytochrome P450 3A4

>  <Target Organism>
Homo sapiens

>  <Target Description>
Target is a single protein chain

>  <Sequence Accession>
P08684

>  <Reference>
Bioorg Med Chem Lett 16 (10), 2729-2733 (2006)

>  <Pubmed ID>
16504501

>  <DOI>
10.1016/j.bmcl.2006.02.020

$$$$
346168
Actelion Java MolfileCreator 1.0

 32 35  0  0  1  0  0  0  0  0999 V2000
    0.0000   -0.0000   -0.0000 O   0  0  0  0  0  0  0  0  0  0  0  0
   -0.0119   -1.4933   -0.0000 C   0  0  0  0  0  0  0  0  0  0  0  0
   -1.3274   -2.2282   -0.0000 O   0  0  0  0  0  0  0  0  0  0  0  0
    1.2800   -2.2400   -0.0000 C   0  0  0  0  0  0  0  0  0  0  0  0
    0.2015   -3.2948   -0.0000 C   0  0  0  0  0  0  0  0  0  0  0  0
    2.6074   -2.9156   -0.0000 C   0  0  0  0  0  0  0  0  0  0  0  0
    2.5719   -1.4696   -0.0000 C   0  0  0  0  0  0  0  0  0  0  0  0
    0.8652   -4.6341   -0.0000 C   0  0  0  0  0  0  0  0  0  0  0  0
    2.3585   -4.3971   -0.0000 C   0  0  0  0  0  0  0  0  0  0  0  0
    3.8637   -2.2045   -0.0000 O   0  0  0  0  0  0  0  0  0  0  0  0
    5.1556   -1.4459   -0.0000 C   0  0  0  0  0  0  0  0  0  0  0  0
    6.4474   -2.1926   -0.0000 C   0  0  0  0  0  0  0  0  0  0  0  0
    5.1437    0.0593   -0.0000 C   0  0  0  0  0  0  0  0  0  0  0  0
    7.7393   -1.4222   -0.0000 C   0  0  0  0  0  0  0  0  0  0  0  0
    6.4237    0.8296   -0.0000 C   0  0  0  0  0  0  0  0  0  0  0  0
    7.7274    0.0948   -0.0000 C   0  0  0  0  0  0  0  0  0  0  0  0
    9.0193   -2.1570   -0.0000 C   0  0  0  0  0  0  0  0  0  0  0  0
    9.0074    0.8533   -0.0000 C   0  0  0  0  0  0  0  0  0  0  0  0
   10.3112   -1.3985   -0.0000 C   0  0  0  0  0  0  0  0  0  0  0  0
   10.2874    0.1185   -0.0000 C   0  0  0  0  0  0  0  0  0  0  0  0
   11.5793    0.8889   -0.0000 C   0  0  0  0  0  0  0  0  0  0  0  0
   11.5675    2.4059   -0.0000 N   0  0  0  0  0  0  0  0  0  0  0  0
   12.8712    0.1541   -0.0000 C   0  0  0  0  0  0  0  0  0  0  0  0
   10.3467    3.2948   -0.0000 C   0  0  0  0  0  0  0  0  0  0  0  0
   12.7763    3.3067   -0.0000 C   0  0  0  0  0  0  0  0  0  0  0  0
   12.8593   -1.3393   -0.0000 N   0  0  0  0  0  0  0  0  0  0  0  0
   14.1630    0.9244   -0.0000 C   0  0  0  0  0  0  0  0  0  0  0  0
   10.7971    4.7408   -0.0000 N   0  0  0  0  0  0  0  0  0  0  0  0
   12.2904    4.7526   -0.0000 C   0  0  0  0  0  0  0  0  0  0  0  0
   14.1512   -2.0741   -0.0000 C   0  0  0  0  0  0  0  0  0  0  0  0
   11.5437   -2.0859   -0.0000 C   0  0  0  0  0  0  0  0  0  0  0  0
   14.1393   -3.5674   -0.0000 C   0  0  0  0  0  0  0  0  0  0  0  0
  1  2  2  0  0  0  0
  2  3  1  0  0  0  0
  2  4  1  0  0  0  0
  4  5  1  0  0  0  0
  4  6  1  0  0  0  0
  4  7  1  0  0  0  0
  5  8  1  0  0  0  0
  6  9  1  0  0  0  0
  7 10  1  0  0  0  0
 10 11  1  0  0  0  0
 11 12  2  0  0  0  0
 11 13  1  0  0  0  0
 12 14  1  0  0  0  0
 13 15  2  0  0  0  0
 14 16  1  0  0  0  0
 14 17  2  0  0  0  0
 16 18  2  0  0  0  0
 17 19  1  0  0  0  0
 18 20  1  0  0  0  0
 20 21  1  0  0  0  0
 21 22  1  1  0  0  0
 21 23  1  0  0  0  0
 22 24  1  0  0  0  0
 22 25  1  0  0  0  0
 23 26  1  1  0  0  0
 23 27  1  0  0  0  0
 24 28  2  0  0  0  0
 25 29  2  0  0  0  0
 26 30  1  0  0  0  0
 26 31  1  0  0  0  0
 30 32  1  0  0  0  0
  8  9  1  0  0  0  0
 15 16  1  0  0  0  0
 19 20  2  0  0  0  0
 28 29  1  0  0  0  0
M  END
>  <MolRegNo>
346168

>  <m>
=

>  <Value>
2300

>  <Unit>
nM

>  <Type>
IC50

>  <pValue>
5.64

>  <Ligand Efficiency>
0

>  <Binding Efficiency>
0

>  <Surface Efficiency>
0

>  <Assay Index>
261787

>  <Assay Category>


>  <Assay Organism>
Homo sapiens

>  <Target ID>
17045

>  <Target Name>
Cytochrome P450 3A4

>  <Target Organism>
Homo sapiens

>  <Target Description>
Target is a single protein chain

>  <Sequence Accession>
P08684

>  <Reference>
Bioorg Med Chem Lett 16 (10), 2729-2733 (2006)

>  <Pubmed ID>
16504501

>  <DOI>
10.1016/j.bmcl.2006.02.020

$$$$
346875
Actelion Java MolfileCreator 1.0

 32 35  0  0  1  0  0  0  0  0999 V2000
    0.0000   -0.0000   -0.0000 O   0  0  0  0  0  0  0  0  0  0  0  0
    1.4965   -0.0000   -0.0000 C   0  0  0  0  0  0  0  0  0  0  0  0
    2.2447    1.3065   -0.0000 O   0  0  0  0  0  0  0  0  0  0  0  0
    2.2210   -1.2946   -0.0000 C   0  0  0  0  0  0  0  0  0  0  0  0
    3.5156   -0.5345   -0.0000 C   0  0  0  0  0  0  0  0  0  0  0  0
    0.9026   -2.0191   -0.0000 C   0  0  0  0  0  0  0  0  0  0  0  0
    2.9574   -2.5892   -0.0000 C   0  0  0  0  0  0  0  0  0  0  0  0
    4.8102   -1.2708   -0.0000 O   0  0  0  0  0  0  0  0  0  0  0  0
    6.1047   -0.5107   -0.0000 C   0  0  0  0  0  0  0  0  0  0  0  0
    7.3993   -1.2590   -0.0000 C   0  0  0  0  0  0  0  0  0  0  0  0
    6.0929    0.9977   -0.0000 C   0  0  0  0  0  0  0  0  0  0  0  0
    8.6820   -0.4988   -0.0000 C   0  0  0  0  0  0  0  0  0  0  0  0
    7.3756    1.7697   -0.0000 C   0  0  0  0  0  0  0  0  0  0  0  0
    8.6701    1.0095   -0.0000 C   0  0  0  0  0  0  0  0  0  0  0  0
    9.9647   -1.2352   -0.0000 C   0  0  0  0  0  0  0  0  0  0  0  0
    9.9529    1.7697   -0.0000 C   0  0  0  0  0  0  0  0  0  0  0  0
   11.2593   -0.4751   -0.0000 C   0  0  0  0  0  0  0  0  0  0  0  0
   11.2356    1.0333   -0.0000 C   0  0  0  0  0  0  0  0  0  0  0  0
   12.5301    1.8053   -0.0000 C   0  0  0  0  0  0  0  0  0  0  0  0
   12.5183    3.3255   -0.0000 N   0  0  0  0  0  0  0  0  0  0  0  0
   13.8247    1.0689   -0.0000 C   0  0  0  0  0  0  0  0  0  0  0  0
   11.3068    4.2163   -0.0000 C   0  0  0  0  0  0  0  0  0  0  0  0
   13.7297    4.2282   -0.0000 C   0  0  0  0  0  0  0  0  0  0  0  0
   13.8129   -0.4276   -0.0000 N   0  0  0  0  0  0  0  0  0  0  0  0
   15.1193    1.8409   -0.0000 C   0  0  0  0  0  0  0  0  0  0  0  0
   11.7463    5.6653   -0.0000 N   0  0  0  0  0  0  0  0  0  0  0  0
   13.2546    5.6772   -0.0000 C   0  0  0  0  0  0  0  0  0  0  0  0
   12.4945   -1.1639   -0.0000 C   0  0  0  0  0  0  0  0  0  0  0  0
   15.1074   -1.1521   -0.0000 C   0  0  0  0  0  0  0  0  0  0  0  0
   12.4826   -2.6486   -0.0000 C   0  0  0  0  0  0  0  0  0  0  0  0
   15.0956   -2.6486   -0.0000 C   0  0  0  0  0  0  0  0  0  0  0  0
   13.7772   -3.3968   -0.0000 O   0  0  0  0  0  0  0  0  0  0  0  0
  1  2  2  0  0  0  0
  2  3  1  0  0  0  0
  2  4  1  0  0  0  0
  4  5  1  0  0  0  0
  4  6  1  0  0  0  0
  4  7  1  0  0  0  0
  5  8  1  0  0  0  0
  8  9  1  0  0  0  0
  9 10  2  0  0  0  0
  9 11  1  0  0  0  0
 10 12  1  0  0  0  0
 11 13  2  0  0  0  0
 12 14  1  0  0  0  0
 12 15  2  0  0  0  0
 14 16  2  0  0  0  0
 15 17  1  0  0  0  0
 16 18  1  0  0  0  0
 18 19  1  0  0  0  0
 19 20  1  1  0  0  0
 19 21  1  0  0  0  0
 20 22  1  0  0  0  0
 20 23  1  0  0  0  0
 21 24  1  1  0  0  0
 21 25  1  0  0  0  0
 22 26  2  0  0  0  0
 23 27  2  0  0  0  0
 24 28  1  0  0  0  0
 24 29  1  0  0  0  0
 28 30  1  0  0  0  0
 29 31  1  0  0  0  0
 30 32  1  0  0  0  0
 13 14  1  0  0  0  0
 17 18  2  0  0  0  0
 26 27  1  0  0  0  0
 31 32  1  0  0  0  0
M  END
>  <MolRegNo>
346875

>  <m>
=

>  <Value>
2150

>  <Unit>
nM

>  <Type>
IC50

>  <pValue>
5.67

>  <Ligand Efficiency>
0

>  <Binding Efficiency>
0

>  <Surface Efficiency>
0

>  <Assay Index>
261787

>  <Assay Category>


>  <Assay Organism>
Homo sapiens

>  <Target ID>
17045

>  <Target Name>
Cytochrome P450 3A4

>  <Target Organism>
Homo sapiens

>  <Target Description>
Target is a single protein chain

>  <Sequence Accession>
P08684

>  <Reference>
Bioorg Med Chem Lett 16 (10), 2729-2733 (2006)

>  <Pubmed ID>
16504501

>  <DOI>
10.1016/j.bmcl.2006.02.020

$$$$
346869
Actelion Java MolfileCreator 1.0

 32 34  0  0  1  0  0  0  0  0999 V2000
    0.0000   -0.0000   -0.0000 O   0  0  0  0  0  0  0  0  0  0  0  0
    1.4928   -0.0000   -0.0000 C   0  0  0  0  0  0  0  0  0  0  0  0
    2.2511    1.3151   -0.0000 O   0  0  0  0  0  0  0  0  0  0  0  0
    2.2274   -1.3033   -0.0000 C   0  0  0  0  0  0  0  0  0  0  0  0
    3.5069   -0.5332   -0.0000 C   0  0  0  0  0  0  0  0  0  0  0  0
    0.9004   -2.0260   -0.0000 C   0  0  0  0  0  0  0  0  0  0  0  0
    2.9619   -2.5947   -0.0000 C   0  0  0  0  0  0  0  0  0  0  0  0
    4.7984   -1.2796   -0.0000 O   0  0  0  0  0  0  0  0  0  0  0  0
    6.0898   -0.5095   -0.0000 C   0  0  0  0  0  0  0  0  0  0  0  0
    7.3812   -1.2559   -0.0000 C   0  0  0  0  0  0  0  0  0  0  0  0
    6.0779    0.9952   -0.0000 C   0  0  0  0  0  0  0  0  0  0  0  0
    8.6726   -0.4858   -0.0000 C   0  0  0  0  0  0  0  0  0  0  0  0
    7.3693    1.7535   -0.0000 C   0  0  0  0  0  0  0  0  0  0  0  0
    8.6607    1.0308   -0.0000 C   0  0  0  0  0  0  0  0  0  0  0  0
    9.9521   -1.2322   -0.0000 C   0  0  0  0  0  0  0  0  0  0  0  0
    9.9403    1.7890   -0.0000 C   0  0  0  0  0  0  0  0  0  0  0  0
   11.2436   -0.4739   -0.0000 C   0  0  0  0  0  0  0  0  0  0  0  0
   11.2317    1.0545   -0.0000 C   0  0  0  0  0  0  0  0  0  0  0  0
   12.5231    1.8127   -0.0000 C   0  0  0  0  0  0  0  0  0  0  0  0
   12.4994    3.3292   -0.0000 N   0  0  0  0  0  0  0  0  0  0  0  0
   13.8145    1.0781   -0.0000 C   0  0  0  0  0  0  0  0  0  0  0  0
   11.2791    4.2297   -0.0000 C   0  0  0  0  0  0  0  0  0  0  0  0
   13.7079    4.2297   -0.0000 C   0  0  0  0  0  0  0  0  0  0  0  0
   13.8027   -0.4147   -0.0000 N   0  0  0  0  0  0  0  0  0  0  0  0
   15.1059    1.8364   -0.0000 C   0  0  0  0  0  0  0  0  0  0  0  0
   11.7175    5.6751   -0.0000 N   0  0  0  0  0  0  0  0  0  0  0  0
   13.2340    5.6751   -0.0000 C   0  0  0  0  0  0  0  0  0  0  0  0
   15.0941   -1.1611   -0.0000 C   0  0  0  0  0  0  0  0  0  0  0  0
   12.4994   -1.1611   -0.0000 C   0  0  0  0  0  0  0  0  0  0  0  0
   16.3736   -0.3910   -0.0000 C   0  0  0  0  0  0  0  0  0  0  0  0
   17.6651   -1.1374   -0.0000 C   0  0  0  0  0  0  0  0  0  0  0  0
   17.6532   -2.6302   -0.0000 C   0  0  0  0  0  0  0  0  0  0  0  0
  1  2  2  0  0  0  0
  2  3  1  0  0  0  0
  2  4  1  0  0  0  0
  4  5  1  0  0  0  0
  4  6  1  0  0  0  0
  4  7  1  0  0  0  0
  5  8  1  0  0  0  0
  8  9  1  0  0  0  0
  9 10  2  0  0  0  0
  9 11  1  0  0  0  0
 10 12  1  0  0  0  0
 11 13  2  0  0  0  0
 12 14  1  0  0  0  0
 12 15  2  0  0  0  0
 14 16  2  0  0  0  0
 15 17  1  0  0  0  0
 16 18  1  0  0  0  0
 18 19  1  0  0  0  0
 19 20  1  1  0  0  0
 19 21  1  0  0  0  0
 20 22  1  0  0  0  0
 20 23  1  0  0  0  0
 21 24  1  1  0  0  0
 21 25  1  0  0  0  0
 22 26  2  0  0  0  0
 23 27  2  0  0  0  0
 24 28  1  0  0  0  0
 24 29  1  0  0  0  0
 28 30  1  0  0  0  0
 30 31  1  0  0  0  0
 31 32  1  0  0  0  0
 13 14  1  0  0  0  0
 17 18  2  0  0  0  0
 26 27  1  0  0  0  0
M  END
>  <MolRegNo>
346869

>  <m>
=

>  <Value>
2270

>  <Unit>
nM

>  <Type>
IC50

>  <pValue>
5.64

>  <Ligand Efficiency>
0

>  <Binding Efficiency>
0

>  <Surface Efficiency>
0

>  <Assay Index>
261787

>  <Assay Category>


>  <Assay Organism>
Homo sapiens

>  <Target ID>
17045

>  <Target Name>
Cytochrome P450 3A4

>  <Target Organism>
Homo sapiens

>  <Target Description>
Target is a single protein chain

>  <Sequence Accession>
P08684

>  <Reference>
Bioorg Med Chem Lett 16 (10), 2729-2733 (2006)

>  <Pubmed ID>
16504501

>  <DOI>
10.1016/j.bmcl.2006.02.020

$$$$
346028
Actelion Java MolfileCreator 1.0

 34 37  0  0  1  0  0  0  0  0999 V2000
    0.0000   -0.0000   -0.0000 O   0  0  0  0  0  0  0  0  0  0  0  0
    1.4970   -0.0000   -0.0000 C   0  0  0  0  0  0  0  0  0  0  0  0
    2.2454    1.3069   -0.0000 O   0  0  0  0  0  0  0  0  0  0  0  0
    2.2335   -1.2950   -0.0000 C   0  0  0  0  0  0  0  0  0  0  0  0
    3.5166   -0.5227   -0.0000 C   0  0  0  0  0  0  0  0  0  0  0  0
    0.9029   -2.0197   -0.0000 C   0  0  0  0  0  0  0  0  0  0  0  0
    2.9583   -2.5900   -0.0000 C   0  0  0  0  0  0  0  0  0  0  0  0
    4.8116   -1.2712   -0.0000 O   0  0  0  0  0  0  0  0  0  0  0  0
    6.1066   -0.4990   -0.0000 C   0  0  0  0  0  0  0  0  0  0  0  0
    7.4016   -1.2475   -0.0000 C   0  0  0  0  0  0  0  0  0  0  0  0
    6.0947    1.0098   -0.0000 C   0  0  0  0  0  0  0  0  0  0  0  0
    8.6847   -0.4752   -0.0000 C   0  0  0  0  0  0  0  0  0  0  0  0
    7.3778    1.7702   -0.0000 C   0  0  0  0  0  0  0  0  0  0  0  0
    8.6728    1.0336   -0.0000 C   0  0  0  0  0  0  0  0  0  0  0  0
    9.9678   -1.2237   -0.0000 C   0  0  0  0  0  0  0  0  0  0  0  0
    9.9559    1.7940   -0.0000 C   0  0  0  0  0  0  0  0  0  0  0  0
   11.2628   -0.4633   -0.0000 C   0  0  0  0  0  0  0  0  0  0  0  0
   11.2390    1.0693   -0.0000 C   0  0  0  0  0  0  0  0  0  0  0  0
   12.5340    1.8296   -0.0000 C   0  0  0  0  0  0  0  0  0  0  0  0
   12.5102    3.3503   -0.0000 N   0  0  0  0  0  0  0  0  0  0  0  0
   13.8171    1.0930   -0.0000 C   0  0  0  0  0  0  0  0  0  0  0  0
   11.2984    4.2414   -0.0000 C   0  0  0  0  0  0  0  0  0  0  0  0
   13.7221    4.2532   -0.0000 C   0  0  0  0  0  0  0  0  0  0  0  0
   13.8052   -0.4039   -0.0000 N   0  0  0  0  0  0  0  0  0  0  0  0
   15.1121    1.8534   -0.0000 C   0  0  0  0  0  0  0  0  0  0  0  0
   11.7380    5.6908   -0.0000 N   0  0  0  0  0  0  0  0  0  0  0  0
   13.2468    5.7027   -0.0000 C   0  0  0  0  0  0  0  0  0  0  0  0
   15.1002   -1.1405   -0.0000 C   0  0  0  0  0  0  0  0  0  0  0  0
   12.4984   -1.1524   -0.0000 C   0  0  0  0  0  0  0  0  0  0  0  0
   15.0764   -2.6375   -0.0000 C   0  0  0  0  0  0  0  0  0  0  0  0
   16.3833   -0.3683   -0.0000 C   0  0  0  0  0  0  0  0  0  0  0  0
   16.3595   -3.3741   -0.0000 C   0  0  0  0  0  0  0  0  0  0  0  0
   17.6783   -1.1168   -0.0000 C   0  0  0  0  0  0  0  0  0  0  0  0
   17.6545   -2.6137   -0.0000 C   0  0  0  0  0  0  0  0  0  0  0  0
  1  2  2  0  0  0  0
  2  3  1  0  0  0  0
  2  4  1  0  0  0  0
  4  5  1  0  0  0  0
  4  6  1  0  0  0  0
  4  7  1  0  0  0  0
  5  8  1  0  0  0  0
  8  9  1  0  0  0  0
  9 10  2  0  0  0  0
  9 11  1  0  0  0  0
 10 12  1  0  0  0  0
 11 13  2  0  0  0  0
 12 14  1  0  0  0  0
 12 15  2  0  0  0  0
 14 16  2  0  0  0  0
 15 17  1  0  0  0  0
 16 18  1  0  0  0  0
 18 19  1  0  0  0  0
 19 20  1  1  0  0  0
 19 21  1  0  0  0  0
 20 22  1  0  0  0  0
 20 23  1  0  0  0  0
 21 24  1  1  0  0  0
 21 25  1  0  0  0  0
 22 26  2  0  0  0  0
 23 27  2  0  0  0  0
 24 28  1  0  0  0  0
 24 29  1  0  0  0  0
 28 30  1  0  0  0  0
 28 31  1  0  0  0  0
 30 32  1  0  0  0  0
 31 33  1  0  0  0  0
 32 34  1  0  0  0  0
 13 14  1  0  0  0  0
 17 18  2  0  0  0  0
 26 27  1  0  0  0  0
 33 34  1  0  0  0  0
M  END
>  <MolRegNo>
346028

>  <m>
=

>  <Value>
448

>  <Unit>
nM

>  <Type>
IC50

>  <pValue>
6.35

>  <Ligand Efficiency>
0

>  <Binding Efficiency>
0

>  <Surface Efficiency>
0

>  <Assay Index>
261787

>  <Assay Category>


>  <Assay Organism>
Homo sapiens

>  <Target ID>
17045

>  <Target Name>
Cytochrome P450 3A4

>  <Target Organism>
Homo sapiens

>  <Target Description>
Target is a single protein chain

>  <Sequence Accession>
P08684

>  <Reference>
Bioorg Med Chem Lett 16 (10), 2729-2733 (2006)

>  <Pubmed ID>
16504501

>  <DOI>
10.1016/j.bmcl.2006.02.020

$$$$
346408
Actelion Java MolfileCreator 1.0

 31 33  0  0  1  0  0  0  0  0999 V2000
    0.0000   -0.0000   -0.0000 O   0  0  0  0  0  0  0  0  0  0  0  0
    1.4936   -0.0000   -0.0000 C   0  0  0  0  0  0  0  0  0  0  0  0
    2.2405    1.3040   -0.0000 O   0  0  0  0  0  0  0  0  0  0  0  0
    2.2286   -1.2921   -0.0000 C   0  0  0  0  0  0  0  0  0  0  0  0
    3.5207   -0.5334   -0.0000 C   0  0  0  0  0  0  0  0  0  0  0  0
    0.9009   -2.0271   -0.0000 C   0  0  0  0  0  0  0  0  0  0  0  0
    2.9636   -2.5842   -0.0000 C   0  0  0  0  0  0  0  0  0  0  0  0
    4.8128   -1.2803   -0.0000 O   0  0  0  0  0  0  0  0  0  0  0  0
    6.1050   -0.5216   -0.0000 C   0  0  0  0  0  0  0  0  0  0  0  0
    7.3971   -1.2684   -0.0000 C   0  0  0  0  0  0  0  0  0  0  0  0
    6.0931    0.9839   -0.0000 C   0  0  0  0  0  0  0  0  0  0  0  0
    8.6892   -0.4979   -0.0000 C   0  0  0  0  0  0  0  0  0  0  0  0
    7.3734    1.7544   -0.0000 C   0  0  0  0  0  0  0  0  0  0  0  0
    8.6773    1.0195   -0.0000 C   0  0  0  0  0  0  0  0  0  0  0  0
    9.9695   -1.2328   -0.0000 C   0  0  0  0  0  0  0  0  0  0  0  0
    9.9576    1.7781   -0.0000 C   0  0  0  0  0  0  0  0  0  0  0  0
   11.2616   -0.4742   -0.0000 C   0  0  0  0  0  0  0  0  0  0  0  0
   11.2379    1.0432   -0.0000 C   0  0  0  0  0  0  0  0  0  0  0  0
   12.5300    1.8137   -0.0000 C   0  0  0  0  0  0  0  0  0  0  0  0
   12.5181    3.3311   -0.0000 N   0  0  0  0  0  0  0  0  0  0  0  0
   13.8221    1.0787   -0.0000 C   0  0  0  0  0  0  0  0  0  0  0  0
   11.2971    4.2201   -0.0000 C   0  0  0  0  0  0  0  0  0  0  0  0
   13.7273    4.2320   -0.0000 C   0  0  0  0  0  0  0  0  0  0  0  0
   13.8103   -0.4149   -0.0000 N   0  0  0  0  0  0  0  0  0  0  0  0
   15.1142    1.8493   -0.0000 C   0  0  0  0  0  0  0  0  0  0  0  0
   11.7476    5.6664   -0.0000 N   0  0  0  0  0  0  0  0  0  0  0  0
   13.2412    5.6782   -0.0000 C   0  0  0  0  0  0  0  0  0  0  0  0
   15.1024   -1.1499   -0.0000 C   0  0  0  0  0  0  0  0  0  0  0  0
   12.4944   -1.1617   -0.0000 C   0  0  0  0  0  0  0  0  0  0  0  0
   15.0905   -2.6435   -0.0000 C   0  0  0  0  0  0  0  0  0  0  0  0
   16.3945   -0.3793   -0.0000 C   0  0  0  0  0  0  0  0  0  0  0  0
  1  2  2  0  0  0  0
  2  3  1  0  0  0  0
  2  4  1  0  0  0  0
  4  5  1  0  0  0  0
  4  6  1  0  0  0  0
  4  7  1  0  0  0  0
  5  8  1  0  0  0  0
  8  9  1  0  0  0  0
  9 10  2  0  0  0  0
  9 11  1  0  0  0  0
 10 12  1  0  0  0  0
 11 13  2  0  0  0  0
 12 14  1  0  0  0  0
 12 15  2  0  0  0  0
 14 16  2  0  0  0  0
 15 17  1  0  0  0  0
 16 18  1  0  0  0  0
 18 19  1  0  0  0  0
 19 20  1  1  0  0  0
 19 21  1  0  0  0  0
 20 22  1  0  0  0  0
 20 23  1  0  0  0  0
 21 24  1  1  0  0  0
 21 25  1  0  0  0  0
 22 26  2  0  0  0  0
 23 27  2  0  0  0  0
 24 28  1  0  0  0  0
 24 29  1  0  0  0  0
 28 30  1  0  0  0  0
 28 31  1  0  0  0  0
 13 14  1  0  0  0  0
 17 18  2  0  0  0  0
 26 27  1  0  0  0  0
M  END
>  <MolRegNo>
346408

>  <m>
=

>  <Value>
400

>  <Unit>
nM

>  <Type>
IC50

>  <pValue>
6.4

>  <Ligand Efficiency>
0

>  <Binding Efficiency>
0

>  <Surface Efficiency>
0

>  <Assay Index>
261787

>  <Assay Category>


>  <Assay Organism>
Homo sapiens

>  <Target ID>
17045

>  <Target Name>
Cytochrome P450 3A4

>  <Target Organism>
Homo sapiens

>  <Target Description>
Target is a single protein chain

>  <Sequence Accession>
P08684

>  <Reference>
Bioorg Med Chem Lett 16 (10), 2729-2733 (2006)

>  <Pubmed ID>
16504501

>  <DOI>
10.1016/j.bmcl.2006.02.020

$$$$
346396
Actelion Java MolfileCreator 1.0

 31 33  0  0  1  0  0  0  0  0999 V2000
    0.0000   -0.0000   -0.0000 O   0  0  0  0  0  0  0  0  0  0  0  0
    1.4940   -0.0000   -0.0000 C   0  0  0  0  0  0  0  0  0  0  0  0
    2.2409    1.3043   -0.0000 O   0  0  0  0  0  0  0  0  0  0  0  0
    2.2291   -1.2924   -0.0000 C   0  0  0  0  0  0  0  0  0  0  0  0
    3.5215   -0.5336   -0.0000 C   0  0  0  0  0  0  0  0  0  0  0  0
    0.9011   -2.0275   -0.0000 C   0  0  0  0  0  0  0  0  0  0  0  0
    2.9642   -2.5848   -0.0000 C   0  0  0  0  0  0  0  0  0  0  0  0
    4.8139   -1.2805   -0.0000 O   0  0  0  0  0  0  0  0  0  0  0  0
    6.1063   -0.5217   -0.0000 C   0  0  0  0  0  0  0  0  0  0  0  0
    7.3987   -1.2687   -0.0000 C   0  0  0  0  0  0  0  0  0  0  0  0
    6.0944    0.9841   -0.0000 C   0  0  0  0  0  0  0  0  0  0  0  0
    8.6911   -0.4980   -0.0000 C   0  0  0  0  0  0  0  0  0  0  0  0
    7.3750    1.7548   -0.0000 C   0  0  0  0  0  0  0  0  0  0  0  0
    8.6792    1.0197   -0.0000 C   0  0  0  0  0  0  0  0  0  0  0  0
    9.9716   -1.2331   -0.0000 C   0  0  0  0  0  0  0  0  0  0  0  0
    9.9598    1.7785   -0.0000 C   0  0  0  0  0  0  0  0  0  0  0  0
   11.2640   -0.4743   -0.0000 C   0  0  0  0  0  0  0  0  0  0  0  0
   11.2403    1.0434   -0.0000 C   0  0  0  0  0  0  0  0  0  0  0  0
   12.5327    1.8141   -0.0000 C   0  0  0  0  0  0  0  0  0  0  0  0
   12.5209    3.3318   -0.0000 N   0  0  0  0  0  0  0  0  0  0  0  0
   13.8251    1.0790   -0.0000 C   0  0  0  0  0  0  0  0  0  0  0  0
   11.2996    4.2210   -0.0000 C   0  0  0  0  0  0  0  0  0  0  0  0
   13.7303    4.2329   -0.0000 C   0  0  0  0  0  0  0  0  0  0  0  0
   13.8132   -0.4150   -0.0000 N   0  0  0  0  0  0  0  0  0  0  0  0
   15.1175    1.8497   -0.0000 C   0  0  0  0  0  0  0  0  0  0  0  0
   11.7502    5.6676   -0.0000 N   0  0  0  0  0  0  0  0  0  0  0  0
   13.2441    5.6794   -0.0000 C   0  0  0  0  0  0  0  0  0  0  0  0
   15.1056   -1.1501   -0.0000 C   0  0  0  0  0  0  0  0  0  0  0  0
   12.4971   -1.1620   -0.0000 C   0  0  0  0  0  0  0  0  0  0  0  0
   15.0938   -2.6441   -0.0000 C   0  0  0  0  0  0  0  0  0  0  0  0
   12.4853   -2.6559   -0.0000 C   0  0  0  0  0  0  0  0  0  0  0  0
  1  2  2  0  0  0  0
  2  3  1  0  0  0  0
  2  4  1  0  0  0  0
  4  5  1  0  0  0  0
  4  6  1  0  0  0  0
  4  7  1  0  0  0  0
  5  8  1  0  0  0  0
  8  9  1  0  0  0  0
  9 10  2  0  0  0  0
  9 11  1  0  0  0  0
 10 12  1  0  0  0  0
 11 13  2  0  0  0  0
 12 14  1  0  0  0  0
 12 15  2  0  0  0  0
 14 16  2  0  0  0  0
 15 17  1  0  0  0  0
 16 18  1  0  0  0  0
 18 19  1  0  0  0  0
 19 20  1  1  0  0  0
 19 21  1  0  0  0  0
 20 22  1  0  0  0  0
 20 23  1  0  0  0  0
 21 24  1  1  0  0  0
 21 25  1  0  0  0  0
 22 26  2  0  0  0  0
 23 27  2  0  0  0  0
 24 28  1  0  0  0  0
 24 29  1  0  0  0  0
 28 30  1  0  0  0  0
 29 31  1  0  0  0  0
 13 14  1  0  0  0  0
 17 18  2  0  0  0  0
 26 27  1  0  0  0  0
M  END
>  <MolRegNo>
346396

>  <m>
=

>  <Value>
580

>  <Unit>
nM

>  <Type>
IC50

>  <pValue>
6.24

>  <Ligand Efficiency>
0

>  <Binding Efficiency>
0

>  <Surface Efficiency>
0

>  <Assay Index>
261787

>  <Assay Category>


>  <Assay Organism>
Homo sapiens

>  <Target ID>
17045

>  <Target Name>
Cytochrome P450 3A4

>  <Target Organism>
Homo sapiens

>  <Target Description>
Target is a single protein chain

>  <Sequence Accession>
P08684

>  <Reference>
Bioorg Med Chem Lett 16 (10), 2729-2733 (2006)

>  <Pubmed ID>
16504501

>  <DOI>
10.1016/j.bmcl.2006.02.020

$$$$
346387
Actelion Java MolfileCreator 1.0

 30 32  0  0  1  0  0  0  0  0999 V2000
    0.0000   -0.0000   -0.0000 O   0  0  0  0  0  0  0  0  0  0  0  0
    1.4938   -0.0000   -0.0000 C   0  0  0  0  0  0  0  0  0  0  0  0
    2.2407    1.3041   -0.0000 O   0  0  0  0  0  0  0  0  0  0  0  0
    2.2288   -1.2922   -0.0000 C   0  0  0  0  0  0  0  0  0  0  0  0
    3.5211   -0.5335   -0.0000 C   0  0  0  0  0  0  0  0  0  0  0  0
    0.9010   -2.0273   -0.0000 C   0  0  0  0  0  0  0  0  0  0  0  0
    2.9638   -2.5845   -0.0000 C   0  0  0  0  0  0  0  0  0  0  0  0
    4.8133   -1.2804   -0.0000 O   0  0  0  0  0  0  0  0  0  0  0  0
    6.1055   -0.5216   -0.0000 C   0  0  0  0  0  0  0  0  0  0  0  0
    7.3978   -1.2685   -0.0000 C   0  0  0  0  0  0  0  0  0  0  0  0
    6.0937    0.9840   -0.0000 C   0  0  0  0  0  0  0  0  0  0  0  0
    8.6900   -0.4979   -0.0000 C   0  0  0  0  0  0  0  0  0  0  0  0
    7.3741    1.7546   -0.0000 C   0  0  0  0  0  0  0  0  0  0  0  0
    8.6781    1.0196   -0.0000 C   0  0  0  0  0  0  0  0  0  0  0  0
    9.9704   -1.2330   -0.0000 C   0  0  0  0  0  0  0  0  0  0  0  0
    9.9585    1.7783   -0.0000 C   0  0  0  0  0  0  0  0  0  0  0  0
   11.2626   -0.4742   -0.0000 C   0  0  0  0  0  0  0  0  0  0  0  0
   11.2389    1.0433   -0.0000 C   0  0  0  0  0  0  0  0  0  0  0  0
   12.5311    1.8139   -0.0000 C   0  0  0  0  0  0  0  0  0  0  0  0
   12.5193    3.3314   -0.0000 N   0  0  0  0  0  0  0  0  0  0  0  0
   13.8234    1.0788   -0.0000 C   0  0  0  0  0  0  0  0  0  0  0  0
   11.2982    4.2205   -0.0000 C   0  0  0  0  0  0  0  0  0  0  0  0
   13.7285    4.2324   -0.0000 C   0  0  0  0  0  0  0  0  0  0  0  0
   13.8115   -0.4149   -0.0000 N   0  0  0  0  0  0  0  0  0  0  0  0
   15.1156    1.8494   -0.0000 C   0  0  0  0  0  0  0  0  0  0  0  0
   11.7487    5.6669   -0.0000 N   0  0  0  0  0  0  0  0  0  0  0  0
   13.2425    5.6787   -0.0000 C   0  0  0  0  0  0  0  0  0  0  0  0
   15.1038   -1.1500   -0.0000 C   0  0  0  0  0  0  0  0  0  0  0  0
   12.4956   -1.1618   -0.0000 C   0  0  0  0  0  0  0  0  0  0  0  0
   15.0919   -2.6438   -0.0000 C   0  0  0  0  0  0  0  0  0  0  0  0
  1  2  2  0  0  0  0
  2  3  1  0  0  0  0
  2  4  1  0  0  0  0
  4  5  1  0  0  0  0
  4  6  1  0  0  0  0
  4  7  1  0  0  0  0
  5  8  1  0  0  0  0
  8  9  1  0  0  0  0
  9 10  2  0  0  0  0
  9 11  1  0  0  0  0
 10 12  1  0  0  0  0
 11 13  2  0  0  0  0
 12 14  1  0  0  0  0
 12 15  2  0  0  0  0
 14 16  2  0  0  0  0
 15 17  1  0  0  0  0
 16 18  1  0  0  0  0
 18 19  1  0  0  0  0
 19 20  1  1  0  0  0
 19 21  1  0  0  0  0
 20 22  1  0  0  0  0
 20 23  1  0  0  0  0
 21 24  1  1  0  0  0
 21 25  1  0  0  0  0
 22 26  2  0  0  0  0
 23 27  2  0  0  0  0
 24 28  1  0  0  0  0
 24 29  1  0  0  0  0
 28 30  1  0  0  0  0
 13 14  1  0  0  0  0
 17 18  2  0  0  0  0
 26 27  1  0  0  0  0
M  END
>  <MolRegNo>
346387

>  <m>
=

>  <Value>
1700

>  <Unit>
nM

>  <Type>
IC50

>  <pValue>
5.77

>  <Ligand Efficiency>
0

>  <Binding Efficiency>
0

>  <Surface Efficiency>
0

>  <Assay Index>
261787

>  <Assay Category>


>  <Assay Organism>
Homo sapiens

>  <Target ID>
17045

>  <Target Name>
Cytochrome P450 3A4

>  <Target Organism>
Homo sapiens

>  <Target Description>
Target is a single protein chain

>  <Sequence Accession>
P08684

>  <Reference>
Bioorg Med Chem Lett 16 (10), 2729-2733 (2006)

>  <Pubmed ID>
16504501

>  <DOI>
10.1016/j.bmcl.2006.02.020

$$$$
346324
Actelion Java MolfileCreator 1.0

 32 35  0  0  1  0  0  0  0  0999 V2000
    0.0000   -0.0000   -0.0000 O   0  0  0  0  0  0  0  0  0  0  0  0
   -0.0119   -1.4952   -0.0000 C   0  0  0  0  0  0  0  0  0  0  0  0
   -1.3291   -2.2310   -0.0000 O   0  0  0  0  0  0  0  0  0  0  0  0
    1.2698   -2.2428   -0.0000 C   0  0  0  0  0  0  0  0  0  0  0  0
   -0.0475   -2.9786   -0.0000 C   0  0  0  0  0  0  0  0  0  0  0  0
    2.5514   -2.9786   -0.0000 C   0  0  0  0  0  0  0  0  0  0  0  0
    2.5751   -1.4715   -0.0000 C   0  0  0  0  0  0  0  0  0  0  0  0
   -0.0712   -4.4619   -0.0000 C   0  0  0  0  0  0  0  0  0  0  0  0
    2.5276   -4.4738   -0.0000 C   0  0  0  0  0  0  0  0  0  0  0  0
    3.8686   -2.2072   -0.0000 O   0  0  0  0  0  0  0  0  0  0  0  0
    1.2104   -5.2095   -0.0000 C   0  0  0  0  0  0  0  0  0  0  0  0
    5.1621   -1.4478   -0.0000 C   0  0  0  0  0  0  0  0  0  0  0  0
    6.4556   -2.1954   -0.0000 C   0  0  0  0  0  0  0  0  0  0  0  0
    5.1502    0.0593   -0.0000 C   0  0  0  0  0  0  0  0  0  0  0  0
    7.7372   -1.4240   -0.0000 C   0  0  0  0  0  0  0  0  0  0  0  0
    6.4318    0.8307   -0.0000 C   0  0  0  0  0  0  0  0  0  0  0  0
    7.7253    0.0949   -0.0000 C   0  0  0  0  0  0  0  0  0  0  0  0
    9.0188   -2.1598   -0.0000 C   0  0  0  0  0  0  0  0  0  0  0  0
    9.0069    0.8544   -0.0000 C   0  0  0  0  0  0  0  0  0  0  0  0
   10.3123   -1.4003   -0.0000 C   0  0  0  0  0  0  0  0  0  0  0  0
   10.2885    0.1187   -0.0000 C   0  0  0  0  0  0  0  0  0  0  0  0
   11.5820    0.8900   -0.0000 C   0  0  0  0  0  0  0  0  0  0  0  0
   11.5702    2.4090   -0.0000 N   0  0  0  0  0  0  0  0  0  0  0  0
   12.8755    0.1543   -0.0000 C   0  0  0  0  0  0  0  0  0  0  0  0
   10.3479    3.2990   -0.0000 C   0  0  0  0  0  0  0  0  0  0  0  0
   12.7806    3.3108   -0.0000 C   0  0  0  0  0  0  0  0  0  0  0  0
   12.8636   -1.3410   -0.0000 N   0  0  0  0  0  0  0  0  0  0  0  0
   14.1690    0.9256   -0.0000 C   0  0  0  0  0  0  0  0  0  0  0  0
   10.7988    4.7467   -0.0000 N   0  0  0  0  0  0  0  0  0  0  0  0
   12.3059    4.7586   -0.0000 C   0  0  0  0  0  0  0  0  0  0  0  0
   11.5464   -2.0886   -0.0000 C   0  0  0  0  0  0  0  0  0  0  0  0
   14.1571   -2.0767   -0.0000 C   0  0  0  0  0  0  0  0  0  0  0  0
  1  2  2  0  0  0  0
  2  3  1  0  0  0  0
  2  4  1  0  0  0  0
  4  5  1  0  0  0  0
  4  6  1  0  0  0  0
  4  7  1  0  0  0  0
  5  8  1  0  0  0  0
  6  9  1  0  0  0  0
  7 10  1  0  0  0  0
  8 11  1  0  0  0  0
 10 12  1  0  0  0  0
 12 13  2  0  0  0  0
 12 14  1  0  0  0  0
 13 15  1  0  0  0  0
 14 16  2  0  0  0  0
 15 17  1  0  0  0  0
 15 18  2  0  0  0  0
 17 19  2  0  0  0  0
 18 20  1  0  0  0  0
 19 21  1  0  0  0  0
 21 22  1  0  0  0  0
 22 23  1  1  0  0  0
 22 24  1  0  0  0  0
 23 25  1  0  0  0  0
 23 26  1  0  0  0  0
 24 27  1  1  0  0  0
 24 28  1  0  0  0  0
 25 29  2  0  0  0  0
 26 30  2  0  0  0  0
 27 31  1  0  0  0  0
 27 32  1  0  0  0  0
  9 11  1  0  0  0  0
 16 17  1  0  0  0  0
 20 21  2  0  0  0  0
 29 30  1  0  0  0  0
M  END
>  <MolRegNo>
346324

>  <m>
=

>  <Value>
8000

>  <Unit>
nM

>  <Type>
IC50

>  <pValue>
5.1

>  <Ligand Efficiency>
0

>  <Binding Efficiency>
0

>  <Surface Efficiency>
0

>  <Assay Index>
261787

>  <Assay Category>


>  <Assay Organism>
Homo sapiens

>  <Target ID>
17045

>  <Target Name>
Cytochrome P450 3A4

>  <Target Organism>
Homo sapiens

>  <Target Description>
Target is a single protein chain

>  <Sequence Accession>
P08684

>  <Reference>
Bioorg Med Chem Lett 16 (10), 2729-2733 (2006)

>  <Pubmed ID>
16504501

>  <DOI>
10.1016/j.bmcl.2006.02.020

$$$$
346323
Actelion Java MolfileCreator 1.0

 31 34  0  0  1  0  0  0  0  0999 V2000
    0.0000   -0.0000   -0.0000 O   0  0  0  0  0  0  0  0  0  0  0  0
   -0.0119   -1.4936   -0.0000 C   0  0  0  0  0  0  0  0  0  0  0  0
   -1.3276   -2.2285   -0.0000 O   0  0  0  0  0  0  0  0  0  0  0  0
    1.2684   -2.2404   -0.0000 C   0  0  0  0  0  0  0  0  0  0  0  0
   -0.0474   -2.9753   -0.0000 C   0  0  0  0  0  0  0  0  0  0  0  0
    2.3708   -3.2479   -0.0000 C   0  0  0  0  0  0  0  0  0  0  0  0
    2.5723   -1.4699   -0.0000 C   0  0  0  0  0  0  0  0  0  0  0  0
    0.2489   -4.4333   -0.0000 C   0  0  0  0  0  0  0  0  0  0  0  0
    1.7425   -4.6111   -0.0000 C   0  0  0  0  0  0  0  0  0  0  0  0
    3.8643   -2.2048   -0.0000 O   0  0  0  0  0  0  0  0  0  0  0  0
    5.1564   -1.4462   -0.0000 C   0  0  0  0  0  0  0  0  0  0  0  0
    6.4485   -2.1930   -0.0000 C   0  0  0  0  0  0  0  0  0  0  0  0
    5.1445    0.0593   -0.0000 C   0  0  0  0  0  0  0  0  0  0  0  0
    7.7405   -1.4225   -0.0000 C   0  0  0  0  0  0  0  0  0  0  0  0
    6.4248    0.8298   -0.0000 C   0  0  0  0  0  0  0  0  0  0  0  0
    7.7287    0.0948   -0.0000 C   0  0  0  0  0  0  0  0  0  0  0  0
    9.0207   -2.1574   -0.0000 C   0  0  0  0  0  0  0  0  0  0  0  0
    9.0089    0.8535   -0.0000 C   0  0  0  0  0  0  0  0  0  0  0  0
   10.3128   -1.3987   -0.0000 C   0  0  0  0  0  0  0  0  0  0  0  0
   10.2891    0.1185   -0.0000 C   0  0  0  0  0  0  0  0  0  0  0  0
   11.5811    0.8890   -0.0000 C   0  0  0  0  0  0  0  0  0  0  0  0
   11.5693    2.4063   -0.0000 N   0  0  0  0  0  0  0  0  0  0  0  0
   12.8732    0.1541   -0.0000 C   0  0  0  0  0  0  0  0  0  0  0  0
   10.3484    3.2954   -0.0000 C   0  0  0  0  0  0  0  0  0  0  0  0
   12.7784    3.3072   -0.0000 C   0  0  0  0  0  0  0  0  0  0  0  0
   12.8614   -1.3395   -0.0000 N   0  0  0  0  0  0  0  0  0  0  0  0
   14.1653    0.9246   -0.0000 C   0  0  0  0  0  0  0  0  0  0  0  0
   10.7988    4.7415   -0.0000 N   0  0  0  0  0  0  0  0  0  0  0  0
   12.2924    4.7534   -0.0000 C   0  0  0  0  0  0  0  0  0  0  0  0
   11.5456   -2.0863   -0.0000 C   0  0  0  0  0  0  0  0  0  0  0  0
   14.1534   -2.0744   -0.0000 C   0  0  0  0  0  0  0  0  0  0  0  0
  1  2  2  0  0  0  0
  2  3  1  0  0  0  0
  2  4  1  0  0  0  0
  4  5  1  0  0  0  0
  4  6  1  0  0  0  0
  4  7  1  0  0  0  0
  5  8  1  0  0  0  0
  6  9  1  0  0  0  0
  7 10  1  0  0  0  0
 10 11  1  0  0  0  0
 11 12  2  0  0  0  0
 11 13  1  0  0  0  0
 12 14  1  0  0  0  0
 13 15  2  0  0  0  0
 14 16  1  0  0  0  0
 14 17  2  0  0  0  0
 16 18  2  0  0  0  0
 17 19  1  0  0  0  0
 18 20  1  0  0  0  0
 20 21  1  0  0  0  0
 21 22  1  1  0  0  0
 21 23  1  0  0  0  0
 22 24  1  0  0  0  0
 22 25  1  0  0  0  0
 23 26  1  1  0  0  0
 23 27  1  0  0  0  0
 24 28  2  0  0  0  0
 25 29  2  0  0  0  0
 26 30  1  0  0  0  0
 26 31  1  0  0  0  0
  8  9  1  0  0  0  0
 15 16  1  0  0  0  0
 19 20  2  0  0  0  0
 28 29  1  0  0  0  0
M  END
>  <MolRegNo>
346323

>  <m>
=

>  <Value>
8200

>  <Unit>
nM

>  <Type>
IC50

>  <pValue>
5.09

>  <Ligand Efficiency>
0

>  <Binding Efficiency>
0

>  <Surface Efficiency>
0

>  <Assay Index>
261787

>  <Assay Category>


>  <Assay Organism>
Homo sapiens

>  <Target ID>
17045

>  <Target Name>
Cytochrome P450 3A4

>  <Target Organism>
Homo sapiens

>  <Target Description>
Target is a single protein chain

>  <Sequence Accession>
P08684

>  <Reference>
Bioorg Med Chem Lett 16 (10), 2729-2733 (2006)

>  <Pubmed ID>
16504501

>  <DOI>
10.1016/j.bmcl.2006.02.020

$$$$
346457
Actelion Java MolfileCreator 1.0

 30 33  0  0  1  0  0  0  0  0999 V2000
    0.0000   -0.0000   -0.0000 O   0  0  0  0  0  0  0  0  0  0  0  0
   -0.0118   -1.4930   -0.0000 C   0  0  0  0  0  0  0  0  0  0  0  0
   -1.3272   -2.2396   -0.0000 O   0  0  0  0  0  0  0  0  0  0  0  0
    1.2679   -2.2396   -0.0000 C   0  0  0  0  0  0  0  0  0  0  0  0
    0.4977   -3.5312   -0.0000 C   0  0  0  0  0  0  0  0  0  0  0  0
    2.5595   -2.9861   -0.0000 C   0  0  0  0  0  0  0  0  0  0  0  0
    2.5714   -1.4693   -0.0000 C   0  0  0  0  0  0  0  0  0  0  0  0
    1.7893   -4.2777   -0.0000 C   0  0  0  0  0  0  0  0  0  0  0  0
    3.8630   -2.2159   -0.0000 O   0  0  0  0  0  0  0  0  0  0  0  0
    5.1546   -1.4456   -0.0000 C   0  0  0  0  0  0  0  0  0  0  0  0
    6.4462   -2.1922   -0.0000 C   0  0  0  0  0  0  0  0  0  0  0  0
    5.1427    0.0592   -0.0000 C   0  0  0  0  0  0  0  0  0  0  0  0
    7.7378   -1.4219   -0.0000 C   0  0  0  0  0  0  0  0  0  0  0  0
    6.4225    0.8295   -0.0000 C   0  0  0  0  0  0  0  0  0  0  0  0
    7.7259    0.0948   -0.0000 C   0  0  0  0  0  0  0  0  0  0  0  0
    9.0175   -2.1566   -0.0000 C   0  0  0  0  0  0  0  0  0  0  0  0
    9.0057    0.8532   -0.0000 C   0  0  0  0  0  0  0  0  0  0  0  0
   10.3091   -1.3982   -0.0000 C   0  0  0  0  0  0  0  0  0  0  0  0
   10.2854    0.1185   -0.0000 C   0  0  0  0  0  0  0  0  0  0  0  0
   11.5770    0.8887   -0.0000 C   0  0  0  0  0  0  0  0  0  0  0  0
   11.5652    2.4055   -0.0000 N   0  0  0  0  0  0  0  0  0  0  0  0
   12.8686    0.1540   -0.0000 C   0  0  0  0  0  0  0  0  0  0  0  0
   10.3447    3.2942   -0.0000 C   0  0  0  0  0  0  0  0  0  0  0  0
   12.7738    3.3060   -0.0000 C   0  0  0  0  0  0  0  0  0  0  0  0
   12.8568   -1.3390   -0.0000 N   0  0  0  0  0  0  0  0  0  0  0  0
   14.1602    0.9243   -0.0000 C   0  0  0  0  0  0  0  0  0  0  0  0
   10.7950    4.7398   -0.0000 N   0  0  0  0  0  0  0  0  0  0  0  0
   12.2880    4.7517   -0.0000 C   0  0  0  0  0  0  0  0  0  0  0  0
   11.5415   -2.0855   -0.0000 C   0  0  0  0  0  0  0  0  0  0  0  0
   14.1484   -2.0737   -0.0000 C   0  0  0  0  0  0  0  0  0  0  0  0
  1  2  2  0  0  0  0
  2  3  1  0  0  0  0
  2  4  1  0  0  0  0
  4  5  1  0  0  0  0
  4  6  1  0  0  0  0
  4  7  1  0  0  0  0
  5  8  1  0  0  0  0
  7  9  1  0  0  0  0
  9 10  1  0  0  0  0
 10 11  2  0  0  0  0
 10 12  1  0  0  0  0
 11 13  1  0  0  0  0
 12 14  2  0  0  0  0
 13 15  1  0  0  0  0
 13 16  2  0  0  0  0
 15 17  2  0  0  0  0
 16 18  1  0  0  0  0
 17 19  1  0  0  0  0
 19 20  1  0  0  0  0
 20 21  1  1  0  0  0
 20 22  1  0  0  0  0
 21 23  1  0  0  0  0
 21 24  1  0  0  0  0
 22 25  1  1  0  0  0
 22 26  1  0  0  0  0
 23 27  2  0  0  0  0
 24 28  2  0  0  0  0
 25 29  1  0  0  0  0
 25 30  1  0  0  0  0
  6  8  1  0  0  0  0
 14 15  1  0  0  0  0
 18 19  2  0  0  0  0
 27 28  1  0  0  0  0
M  END
>  <MolRegNo>
346457

>  <m>
=

>  <Value>
7000

>  <Unit>
nM

>  <Type>
IC50

>  <pValue>
5.16

>  <Ligand Efficiency>
0

>  <Binding Efficiency>
0

>  <Surface Efficiency>
0

>  <Assay Index>
261787

>  <Assay Category>


>  <Assay Organism>
Homo sapiens

>  <Target ID>
17045

>  <Target Name>
Cytochrome P450 3A4

>  <Target Organism>
Homo sapiens

>  <Target Description>
Target is a single protein chain

>  <Sequence Accession>
P08684

>  <Reference>
Bioorg Med Chem Lett 16 (10), 2729-2733 (2006)

>  <Pubmed ID>
16504501

>  <DOI>
10.1016/j.bmcl.2006.02.020

$$$$
346159
Actelion Java MolfileCreator 1.0

 29 32  0  0  1  0  0  0  0  0999 V2000
    0.0000   -0.0000   -0.0000 O   0  0  0  0  0  0  0  0  0  0  0  0
   -0.0119   -1.4936   -0.0000 C   0  0  0  0  0  0  0  0  0  0  0  0
   -1.3276   -2.2285   -0.0000 O   0  0  0  0  0  0  0  0  0  0  0  0
    1.2683   -2.2403   -0.0000 C   0  0  0  0  0  0  0  0  0  0  0  0
    2.0033   -3.5324   -0.0000 C   0  0  0  0  0  0  0  0  0  0  0  0
    0.4979   -3.5205   -0.0000 C   0  0  0  0  0  0  0  0  0  0  0  0
    2.5722   -1.4698   -0.0000 C   0  0  0  0  0  0  0  0  0  0  0  0
    3.8643   -2.2048   -0.0000 O   0  0  0  0  0  0  0  0  0  0  0  0
    5.1563   -1.4461   -0.0000 C   0  0  0  0  0  0  0  0  0  0  0  0
    6.4484   -2.1929   -0.0000 C   0  0  0  0  0  0  0  0  0  0  0  0
    5.1445    0.0593   -0.0000 C   0  0  0  0  0  0  0  0  0  0  0  0
    7.7404   -1.4224   -0.0000 C   0  0  0  0  0  0  0  0  0  0  0  0
    6.4247    0.8298   -0.0000 C   0  0  0  0  0  0  0  0  0  0  0  0
    7.7286    0.0948   -0.0000 C   0  0  0  0  0  0  0  0  0  0  0  0
    9.0206   -2.1574   -0.0000 C   0  0  0  0  0  0  0  0  0  0  0  0
    9.0087    0.8535   -0.0000 C   0  0  0  0  0  0  0  0  0  0  0  0
   10.3126   -1.3987   -0.0000 C   0  0  0  0  0  0  0  0  0  0  0  0
   10.2889    0.1185   -0.0000 C   0  0  0  0  0  0  0  0  0  0  0  0
   11.5810    0.8890   -0.0000 C   0  0  0  0  0  0  0  0  0  0  0  0
   11.5691    2.4063   -0.0000 N   0  0  0  0  0  0  0  0  0  0  0  0
   12.8730    0.1541   -0.0000 C   0  0  0  0  0  0  0  0  0  0  0  0
   10.3482    3.2953   -0.0000 C   0  0  0  0  0  0  0  0  0  0  0  0
   12.7782    3.3072   -0.0000 C   0  0  0  0  0  0  0  0  0  0  0  0
   12.8612   -1.3395   -0.0000 N   0  0  0  0  0  0  0  0  0  0  0  0
   14.1651    0.9246   -0.0000 C   0  0  0  0  0  0  0  0  0  0  0  0
   10.7986    4.7414   -0.0000 N   0  0  0  0  0  0  0  0  0  0  0  0
   12.3040    4.7533   -0.0000 C   0  0  0  0  0  0  0  0  0  0  0  0
   11.5454   -2.0862   -0.0000 C   0  0  0  0  0  0  0  0  0  0  0  0
   14.1532   -2.0744   -0.0000 C   0  0  0  0  0  0  0  0  0  0  0  0
  1  2  2  0  0  0  0
  2  3  1  0  0  0  0
  2  4  1  0  0  0  0
  4  5  1  0  0  0  0
  4  6  1  0  0  0  0
  4  7  1  0  0  0  0
  7  8  1  0  0  0  0
  8  9  1  0  0  0  0
  9 10  2  0  0  0  0
  9 11  1  0  0  0  0
 10 12  1  0  0  0  0
 11 13  2  0  0  0  0
 12 14  1  0  0  0  0
 12 15  2  0  0  0  0
 14 16  2  0  0  0  0
 15 17  1  0  0  0  0
 16 18  1  0  0  0  0
 18 19  1  0  0  0  0
 19 20  1  1  0  0  0
 19 21  1  0  0  0  0
 20 22  1  0  0  0  0
 20 23  1  0  0  0  0
 21 24  1  1  0  0  0
 21 25  1  0  0  0  0
 22 26  2  0  0  0  0
 23 27  2  0  0  0  0
 24 28  1  0  0  0  0
 24 29  1  0  0  0  0
  5  6  1  0  0  0  0
 13 14  1  0  0  0  0
 17 18  2  0  0  0  0
 26 27  1  0  0  0  0
M  END
>  <MolRegNo>
346159

>  <m>
=

>  <Value>
7500

>  <Unit>
nM

>  <Type>
IC50

>  <pValue>
5.12

>  <Ligand Efficiency>
0

>  <Binding Efficiency>
0

>  <Surface Efficiency>
0

>  <Assay Index>
261787

>  <Assay Category>


>  <Assay Organism>
Homo sapiens

>  <Target ID>
17045

>  <Target Name>
Cytochrome P450 3A4

>  <Target Organism>
Homo sapiens

>  <Target Description>
Target is a single protein chain

>  <Sequence Accession>
P08684

>  <Reference>
Bioorg Med Chem Lett 16 (10), 2729-2733 (2006)

>  <Pubmed ID>
16504501

>  <DOI>
10.1016/j.bmcl.2006.02.020

$$$$
346158
Actelion Java MolfileCreator 1.0

 31 33  0  0  1  0  0  0  0  0999 V2000
    0.0000   -0.0000   -0.0000 O   0  0  0  0  0  0  0  0  0  0  0  0
    1.4943   -0.0000   -0.0000 C   0  0  0  0  0  0  0  0  0  0  0  0
    2.2415    1.3046   -0.0000 O   0  0  0  0  0  0  0  0  0  0  0  0
    2.2296   -1.2927   -0.0000 C   0  0  0  0  0  0  0  0  0  0  0  0
    3.5223   -0.5337   -0.0000 C   0  0  0  0  0  0  0  0  0  0  0  0
    0.9013   -2.0161   -0.0000 C   0  0  0  0  0  0  0  0  0  0  0  0
    2.9649   -2.5854   -0.0000 C   0  0  0  0  0  0  0  0  0  0  0  0
    4.8150   -1.2690   -0.0000 O   0  0  0  0  0  0  0  0  0  0  0  0
    0.8657   -3.5104   -0.0000 C   0  0  0  0  0  0  0  0  0  0  0  0
    4.4592   -2.5854   -0.0000 C   0  0  0  0  0  0  0  0  0  0  0  0
    6.1077   -0.5100   -0.0000 C   0  0  0  0  0  0  0  0  0  0  0  0
    7.4004   -1.2571   -0.0000 C   0  0  0  0  0  0  0  0  0  0  0  0
    6.0958    0.9962   -0.0000 C   0  0  0  0  0  0  0  0  0  0  0  0
    8.6931   -0.4862   -0.0000 C   0  0  0  0  0  0  0  0  0  0  0  0
    7.3767    1.7671   -0.0000 C   0  0  0  0  0  0  0  0  0  0  0  0
    8.6812    1.0318   -0.0000 C   0  0  0  0  0  0  0  0  0  0  0  0
    9.9739   -1.2215   -0.0000 C   0  0  0  0  0  0  0  0  0  0  0  0
    9.9620    1.7908   -0.0000 C   0  0  0  0  0  0  0  0  0  0  0  0
   11.2666   -0.4625   -0.0000 C   0  0  0  0  0  0  0  0  0  0  0  0
   11.2429    1.0555   -0.0000 C   0  0  0  0  0  0  0  0  0  0  0  0
   12.5356    1.8264   -0.0000 C   0  0  0  0  0  0  0  0  0  0  0  0
   12.5237    3.3444   -0.0000 N   0  0  0  0  0  0  0  0  0  0  0  0
   13.8283    1.0911   -0.0000 C   0  0  0  0  0  0  0  0  0  0  0  0
   11.3022    4.2339   -0.0000 C   0  0  0  0  0  0  0  0  0  0  0  0
   13.7334    4.2457   -0.0000 C   0  0  0  0  0  0  0  0  0  0  0  0
   13.8164   -0.4032   -0.0000 N   0  0  0  0  0  0  0  0  0  0  0  0
   15.1209    1.8620   -0.0000 C   0  0  0  0  0  0  0  0  0  0  0  0
   11.7528    5.6807   -0.0000 N   0  0  0  0  0  0  0  0  0  0  0  0
   13.2471    5.6926   -0.0000 C   0  0  0  0  0  0  0  0  0  0  0  0
   12.5000   -1.1504   -0.0000 C   0  0  0  0  0  0  0  0  0  0  0  0
   15.1091   -1.1385   -0.0000 C   0  0  0  0  0  0  0  0  0  0  0  0
  1  2  2  0  0  0  0
  2  3  1  0  0  0  0
  2  4  1  0  0  0  0
  4  5  1  0  0  0  0
  4  6  1  0  0  0  0
  4  7  1  0  0  0  0
  5  8  1  0  0  0  0
  6  9  1  0  0  0  0
  7 10  1  0  0  0  0
  8 11  1  0  0  0  0
 11 12  2  0  0  0  0
 11 13  1  0  0  0  0
 12 14  1  0  0  0  0
 13 15  2  0  0  0  0
 14 16  1  0  0  0  0
 14 17  2  0  0  0  0
 16 18  2  0  0  0  0
 17 19  1  0  0  0  0
 18 20  1  0  0  0  0
 20 21  1  0  0  0  0
 21 22  1  1  0  0  0
 21 23  1  0  0  0  0
 22 24  1  0  0  0  0
 22 25  1  0  0  0  0
 23 26  1  1  0  0  0
 23 27  1  0  0  0  0
 24 28  2  0  0  0  0
 25 29  2  0  0  0  0
 26 30  1  0  0  0  0
 26 31  1  0  0  0  0
 15 16  1  0  0  0  0
 19 20  2  0  0  0  0
 28 29  1  0  0  0  0
M  END
>  <MolRegNo>
346158

>  <m>
=

>  <Value>
5300

>  <Unit>
nM

>  <Type>
IC50

>  <pValue>
5.28

>  <Ligand Efficiency>
0

>  <Binding Efficiency>
0

>  <Surface Efficiency>
0

>  <Assay Index>
261787

>  <Assay Category>


>  <Assay Organism>
Homo sapiens

>  <Target ID>
17045

>  <Target Name>
Cytochrome P450 3A4

>  <Target Organism>
Homo sapiens

>  <Target Description>
Target is a single protein chain

>  <Sequence Accession>
P08684

>  <Reference>
Bioorg Med Chem Lett 16 (10), 2729-2733 (2006)

>  <Pubmed ID>
16504501

>  <DOI>
10.1016/j.bmcl.2006.02.020

$$$$
347013
Actelion Java MolfileCreator 1.0

 34 37  0  0  0  0  0  0  0  0999 V2000
    0.0000   -0.0000   -0.0000 O   0  0  0  0  0  0  0  0  0  0  0  0
    0.7454    1.3016   -0.0000 C   0  0  0  0  0  0  0  0  0  0  0  0
    2.2363    1.3134   -0.0000 C   0  0  0  0  0  0  0  0  0  0  0  0
   -0.0118    2.6149   -0.0000 C   0  0  0  0  0  0  0  0  0  0  0  0
    2.9581    0.0237   -0.0000 C   0  0  0  0  0  0  0  0  0  0  0  0
    2.9699    2.6149   -0.0000 C   0  0  0  0  0  0  0  0  0  0  0  0
   -1.5264    2.6268   -0.0000 C   0  0  0  0  0  0  0  0  0  0  0  0
    4.4371    0.0237   -0.0000 C   0  0  0  0  0  0  0  0  0  0  0  0
    4.4489    2.6268   -0.0000 C   0  0  0  0  0  0  0  0  0  0  0  0
   -2.2836    3.9402   -0.0000 C   0  0  0  0  0  0  0  0  0  0  0  0
    5.1825    1.3252   -0.0000 C   0  0  0  0  0  0  0  0  0  0  0  0
   -3.7982    3.9520   -0.0000 N   0  0  0  0  0  0  0  0  0  0  0  0
    6.6734    1.3370   -0.0000 C   0  0  0  0  0  0  0  0  0  0  0  0
   -4.5673    2.6741   -0.0000 C   0  0  0  0  0  0  0  0  0  0  0  0
   -4.5554    5.2654   -0.0000 C   0  0  0  0  0  0  0  0  0  0  0  0
    7.4070    0.0473   -0.0000 C   0  0  0  0  0  0  0  0  0  0  0  0
   -6.0700    2.6859   -0.0000 C   0  0  0  0  0  0  0  0  0  0  0  0
   -6.0700    5.2890   -0.0000 C   0  0  0  0  0  0  0  0  0  0  0  0
    8.8979    0.0592   -0.0000 C   0  0  0  0  0  0  0  0  0  0  0  0
   -6.8272    3.9993   -0.0000 C   0  0  0  0  0  0  0  0  0  0  0  0
   -8.3418    4.0111   -0.0000 C   0  0  0  0  0  0  0  0  0  0  0  0
   -9.8563    4.0230   -0.0000 O   0  0  0  0  0  0  0  0  0  0  0  0
   -8.3536    5.5257   -0.0000 C   0  0  0  0  0  0  0  0  0  0  0  0
   -8.3536    2.5203   -0.0000 C   0  0  0  0  0  0  0  0  0  0  0  0
   -7.0639    6.2948   -0.0000 C   0  0  0  0  0  0  0  0  0  0  0  0
   -9.6670    6.2829   -0.0000 C   0  0  0  0  0  0  0  0  0  0  0  0
   -9.6670    1.7748   -0.0000 C   0  0  0  0  0  0  0  0  0  0  0  0
   -7.0639    1.7867   -0.0000 C   0  0  0  0  0  0  0  0  0  0  0  0
   -7.0757    7.7975   -0.0000 C   0  0  0  0  0  0  0  0  0  0  0  0
   -9.6788    7.7856   -0.0000 C   0  0  0  0  0  0  0  0  0  0  0  0
   -9.6788    0.2958   -0.0000 C   0  0  0  0  0  0  0  0  0  0  0  0
   -7.0757    0.3076   -0.0000 C   0  0  0  0  0  0  0  0  0  0  0  0
   -8.3891    8.5547   -0.0000 C   0  0  0  0  0  0  0  0  0  0  0  0
   -8.3891   -0.4378   -0.0000 C   0  0  0  0  0  0  0  0  0  0  0  0
  1  2  2  0  0  0  0
  2  3  1  0  0  0  0
  2  4  1  0  0  0  0
  3  5  2  0  0  0  0
  3  6  1  0  0  0  0
  4  7  1  0  0  0  0
  5  8  1  0  0  0  0
  6  9  2  0  0  0  0
  7 10  1  0  0  0  0
  8 11  2  0  0  0  0
 10 12  1  0  0  0  0
 11 13  1  0  0  0  0
 12 14  1  0  0  0  0
 12 15  1  0  0  0  0
 13 16  1  0  0  0  0
 14 17  1  0  0  0  0
 15 18  1  0  0  0  0
 16 19  1  0  0  0  0
 17 20  1  0  0  0  0
 20 21  1  0  0  0  0
 21 22  1  0  0  0  0
 21 23  1  0  0  0  0
 21 24  1  0  0  0  0
 23 25  2  0  0  0  0
 23 26  1  0  0  0  0
 24 27  2  0  0  0  0
 24 28  1  0  0  0  0
 25 29  1  0  0  0  0
 26 30  2  0  0  0  0
 27 31  1  0  0  0  0
 28 32  2  0  0  0  0
 29 33  2  0  0  0  0
 31 34  2  0  0  0  0
  9 11  1  0  0  0  0
 18 20  1  0  0  0  0
 30 33  1  0  0  0  0
 32 34  1  0  0  0  0
M  END
>  <MolRegNo>
347013

>  <m>
=

>  <Value>
7900

>  <Unit>
nM

>  <Type>
IC50

>  <pValue>
5.1

>  <Ligand Efficiency>
0

>  <Binding Efficiency>
0

>  <Surface Efficiency>
0

>  <Assay Index>
260955

>  <Assay Category>


>  <Assay Organism>
Homo sapiens

>  <Target ID>
17045

>  <Target Name>
Cytochrome P450 3A4

>  <Target Organism>
Homo sapiens

>  <Target Description>
Target is a single protein chain

>  <Sequence Accession>
P08684

>  <Reference>
Bioorg Med Chem Lett 16 (10), 2777-2780 (2006)

>  <Pubmed ID>
16495056

>  <DOI>
10.1016/j.bmcl.2006.02.004

$$$$
347092
Actelion Java MolfileCreator 1.0

 34 37  0  0  0  0  0  0  0  0999 V2000
    0.0000   -0.0000   -0.0000 O   0  0  0  0  0  0  0  0  0  0  0  0
    0.7454    1.3016   -0.0000 C   0  0  0  0  0  0  0  0  0  0  0  0
    2.2363    1.3134   -0.0000 C   0  0  0  0  0  0  0  0  0  0  0  0
   -0.0118    2.6149   -0.0000 C   0  0  0  0  0  0  0  0  0  0  0  0
    2.9581    0.0237   -0.0000 C   0  0  0  0  0  0  0  0  0  0  0  0
    2.9699    2.6149   -0.0000 C   0  0  0  0  0  0  0  0  0  0  0  0
   -1.5264    2.6268   -0.0000 C   0  0  0  0  0  0  0  0  0  0  0  0
    4.4371    0.0237   -0.0000 C   0  0  0  0  0  0  0  0  0  0  0  0
    4.4489    2.6268   -0.0000 C   0  0  0  0  0  0  0  0  0  0  0  0
   -2.2836    3.9402   -0.0000 C   0  0  0  0  0  0  0  0  0  0  0  0
    5.1825    1.3252   -0.0000 C   0  0  0  0  0  0  0  0  0  0  0  0
   -3.7982    3.9520   -0.0000 N   0  0  0  0  0  0  0  0  0  0  0  0
    6.6734    1.3370   -0.0000 C   0  0  0  0  0  0  0  0  0  0  0  0
   -4.5673    2.6741   -0.0000 C   0  0  0  0  0  0  0  0  0  0  0  0
   -4.5554    5.2654   -0.0000 C   0  0  0  0  0  0  0  0  0  0  0  0
    7.4070    0.0473   -0.0000 C   0  0  0  0  0  0  0  0  0  0  0  0
   -6.0700    2.6859   -0.0000 C   0  0  0  0  0  0  0  0  0  0  0  0
   -6.0700    5.2890   -0.0000 C   0  0  0  0  0  0  0  0  0  0  0  0
    8.8979    0.0592   -0.0000 C   0  0  0  0  0  0  0  0  0  0  0  0
   -6.8272    3.9993   -0.0000 C   0  0  0  0  0  0  0  0  0  0  0  0
   -8.3418    4.0111   -0.0000 C   0  0  0  0  0  0  0  0  0  0  0  0
   -9.8563    4.0230   -0.0000 O   0  0  0  0  0  0  0  0  0  0  0  0
   -8.3536    5.5257   -0.0000 C   0  0  0  0  0  0  0  0  0  0  0  0
   -8.3536    2.5203   -0.0000 C   0  0  0  0  0  0  0  0  0  0  0  0
   -7.0639    6.2948   -0.0000 C   0  0  0  0  0  0  0  0  0  0  0  0
   -9.6670    6.2829   -0.0000 C   0  0  0  0  0  0  0  0  0  0  0  0
   -9.6670    1.7748   -0.0000 C   0  0  0  0  0  0  0  0  0  0  0  0
   -7.0639    1.7867   -0.0000 C   0  0  0  0  0  0  0  0  0  0  0  0
   -7.0757    7.7975   -0.0000 C   0  0  0  0  0  0  0  0  0  0  0  0
   -9.6788    7.7856   -0.0000 C   0  0  0  0  0  0  0  0  0  0  0  0
   -9.6788    0.2958   -0.0000 C   0  0  0  0  0  0  0  0  0  0  0  0
   -7.0757    0.3076   -0.0000 C   0  0  0  0  0  0  0  0  0  0  0  0
   -8.3891    8.5547   -0.0000 C   0  0  0  0  0  0  0  0  0  0  0  0
   -8.3891   -0.4378   -0.0000 C   0  0  0  0  0  0  0  0  0  0  0  0
  1  2  2  0  0  0  0
  2  3  1  0  0  0  0
  2  4  1  0  0  0  0
  3  5  2  0  0  0  0
  3  6  1  0  0  0  0
  4  7  1  0  0  0  0
  5  8  1  0  0  0  0
  6  9  2  0  0  0  0
  7 10  1  0  0  0  0
  8 11  2  0  0  0  0
 10 12  1  0  0  0  0
 11 13  1  0  0  0  0
 12 14  1  0  0  0  0
 12 15  1  0  0  0  0
 13 16  1  0  0  0  0
 14 17  1  0  0  0  0
 15 18  1  0  0  0  0
 16 19  2  0  0  0  0
 17 20  1  0  0  0  0
 20 21  1  0  0  0  0
 21 22  1  0  0  0  0
 21 23  1  0  0  0  0
 21 24  1  0  0  0  0
 23 25  2  0  0  0  0
 23 26  1  0  0  0  0
 24 27  2  0  0  0  0
 24 28  1  0  0  0  0
 25 29  1  0  0  0  0
 26 30  2  0  0  0  0
 27 31  1  0  0  0  0
 28 32  2  0  0  0  0
 29 33  2  0  0  0  0
 31 34  2  0  0  0  0
  9 11  1  0  0  0  0
 18 20  1  0  0  0  0
 30 33  1  0  0  0  0
 32 34  1  0  0  0  0
M  END
>  <MolRegNo>
347092

>  <m>
=

>  <Value>
5500

>  <Unit>
nM

>  <Type>
IC50

>  <pValue>
5.26

>  <Ligand Efficiency>
0

>  <Binding Efficiency>
0

>  <Surface Efficiency>
0

>  <Assay Index>
260955

>  <Assay Category>


>  <Assay Organism>
Homo sapiens

>  <Target ID>
17045

>  <Target Name>
Cytochrome P450 3A4

>  <Target Organism>
Homo sapiens

>  <Target Description>
Target is a single protein chain

>  <Sequence Accession>
P08684

>  <Reference>
Bioorg Med Chem Lett 16 (10), 2777-2780 (2006)

>  <Pubmed ID>
16495056

>  <DOI>
10.1016/j.bmcl.2006.02.004

$$$$
351878
Actelion Java MolfileCreator 1.0

 37 41  0  0  1  0  0  0  0  0999 V2000
    0.0000   -0.0000   -0.0000 O   0  0  0  0  0  0  0  0  0  0  0  0
   -0.0119   -1.4790   -0.0000 C   0  0  0  0  0  0  0  0  0  0  0  0
    1.2882   -2.2662   -0.0000 N   0  0  0  0  0  0  0  0  0  0  0  0
   -1.3240   -2.2305   -0.0000 C   0  0  0  0  0  0  0  0  0  0  0  0
    1.2405   -3.7214   -0.0000 C   0  0  0  0  0  0  0  0  0  0  0  0
    2.6002   -1.5267   -0.0000 C   0  0  0  0  0  0  0  0  0  0  0  0
   -1.3240   -3.6856   -0.0000 N   0  0  0  0  0  0  0  0  0  0  0  0
   -2.6241   -1.4671   -0.0000 C   0  0  0  0  0  0  0  0  0  0  0  0
   -0.0596   -4.4251   -0.0000 C   0  0  0  0  0  0  0  0  0  0  0  0
    2.5167   -4.4609   -0.0000 C   0  0  0  0  0  0  0  0  0  0  0  0
    2.6241   -0.0000   -0.0000 C   0  0  0  0  0  0  0  0  0  0  0  0
    3.8884   -2.3020   -0.0000 C   0  0  0  0  0  0  0  0  0  0  0  0
   -2.8030    0.0119   -0.0000 C   0  0  0  0  0  0  0  0  0  0  0  0
   -4.0077   -2.0873   -0.0000 C   0  0  0  0  0  0  0  0  0  0  0  0
   -0.0716   -5.9042   -0.0000 O   0  0  0  0  0  0  0  0  0  0  0  0
    2.5048   -5.9638   -0.0000 C   0  0  0  0  0  0  0  0  0  0  0  0
    3.9480    0.7395   -0.0000 C   0  0  0  0  0  0  0  0  0  0  0  0
    1.3240    0.7991   -0.0000 C   0  0  0  0  0  0  0  0  0  0  0  0
    3.8407   -3.7810   -0.0000 O   0  0  0  0  0  0  0  0  0  0  0  0
    5.1885   -1.5744   -0.0000 N   0  0  0  0  0  0  0  0  0  0  0  0
   -4.2701    0.3220   -0.0000 C   0  0  0  0  0  0  0  0  0  0  0  0
   -5.0215   -0.9781   -0.0000 C   0  0  0  0  0  0  0  0  0  0  0  0
    3.8049   -6.7033   -0.0000 C   0  0  0  0  0  0  0  0  0  0  0  0
    1.1808   -6.7033   -0.0000 C   0  0  0  0  0  0  0  0  0  0  0  0
    3.9719    2.2662   -0.0000 C   0  0  0  0  0  0  0  0  0  0  0  0
    1.3478    2.3259   -0.0000 C   0  0  0  0  0  0  0  0  0  0  0  0
    6.4528   -2.3378   -0.0000 C   0  0  0  0  0  0  0  0  0  0  0  0
   -5.0334    1.6102   -0.0000 C   0  0  0  0  0  0  0  0  0  0  0  0
   -6.5125   -0.9661   -0.0000 C   0  0  0  0  0  0  0  0  0  0  0  0
    2.6599    3.0654   -0.0000 C   0  0  0  0  0  0  0  0  0  0  0  0
    5.1050    3.2682   -0.0000 C   0  0  0  0  0  0  0  0  0  0  0  0
    7.7529   -1.6102   -0.0000 C   0  0  0  0  0  0  0  0  0  0  0  0
    6.4051   -3.8168   -0.0000 C   0  0  0  0  0  0  0  0  0  0  0  0
   -6.5244    1.6102   -0.0000 C   0  0  0  0  0  0  0  0  0  0  0  0
   -7.2758    0.3220   -0.0000 C   0  0  0  0  0  0  0  0  0  0  0  0
    2.9938    4.5563   -0.0000 O   0  0  0  0  0  0  0  0  0  0  0  0
    4.5086    4.6756   -0.0000 C   0  0  0  0  0  0  0  0  0  0  0  0
  1  2  2  0  0  0  0
  2  3  1  0  0  0  0
  2  4  1  0  0  0  0
  3  5  1  0  0  0  0
  6  3  1  6  0  0  0
  4  7  1  0  0  0  0
  4  8  1  6  0  0  0
  5  9  1  0  0  0  0
  5 10  1  6  0  0  0
  6 11  1  0  0  0  0
  6 12  1  0  0  0  0
  8 13  1  0  0  0  0
  8 14  1  0  0  0  0
  9 15  2  0  0  0  0
 10 16  1  0  0  0  0
 11 17  2  0  0  0  0
 11 18  1  0  0  0  0
 12 19  2  0  0  0  0
 12 20  1  0  0  0  0
 13 21  1  0  0  0  0
 14 22  1  0  0  0  0
 16 23  1  0  0  0  0
 16 24  1  0  0  0  0
 17 25  1  0  0  0  0
 18 26  2  0  0  0  0
 20 27  1  0  0  0  0
 21 28  1  0  0  0  0
 22 29  1  0  0  0  0
 25 30  2  0  0  0  0
 25 31  1  0  0  0  0
 27 32  1  0  0  0  0
 27 33  1  0  0  0  0
 28 34  2  0  0  0  0
 29 35  2  0  0  0  0
 30 36  1  0  0  0  0
 31 37  2  0  0  0  0
  7  9  1  0  0  0  0
 21 22  2  0  0  0  0
 26 30  1  0  0  0  0
 34 35  1  0  0  0  0
 36 37  1  0  0  0  0
M  END
>  <MolRegNo>
351878

>  <m>
=

>  <Value>
4300

>  <Unit>
nM

>  <Type>
IC50

>  <pValue>
5.37

>  <Ligand Efficiency>
0

>  <Binding Efficiency>
0

>  <Surface Efficiency>
0

>  <Assay Index>
264844

>  <Assay Category>


>  <Assay Organism>
Homo sapiens

>  <Target ID>
17045

>  <Target Name>
Cytochrome P450 3A4

>  <Target Organism>
Homo sapiens

>  <Target Description>
Target is a single protein chain

>  <Sequence Accession>
P08684

>  <Reference>
J Med Chem 49 (14), 4159-4170 (2006)

>  <Pubmed ID>
16821776

>  <DOI>
10.1021/jm060073e

$$$$
352369
Actelion Java MolfileCreator 1.0

 35 38  0  0  1  0  0  0  0  0999 V2000
    0.0000   -0.0000   -0.0000 F   0  0  0  0  0  0  0  0  0  0  0  0
   -1.3084    0.7610   -0.0000 C   0  0  0  0  0  0  0  0  0  0  0  0
   -2.6168    0.0267   -0.0000 C   0  0  0  0  0  0  0  0  0  0  0  0
   -1.3218    2.2830   -0.0000 C   0  0  0  0  0  0  0  0  0  0  0  0
   -3.9252    0.7877   -0.0000 C   0  0  0  0  0  0  0  0  0  0  0  0
   -2.6302   -1.5621   -0.0000 C   0  0  0  0  0  0  0  0  0  0  0  0
   -2.6302    3.0440   -0.0000 C   0  0  0  0  0  0  0  0  0  0  0  0
   -3.9386    2.3097   -0.0000 C   0  0  0  0  0  0  0  0  0  0  0  0
   -3.9386   -2.2964   -0.0000 N   0  0  0  0  0  0  0  0  0  0  0  0
   -0.9479   -2.5234   -0.0000 C   0  0  0  0  0  0  0  0  0  0  0  0
   -2.6435    4.5527   -0.0000 F   0  0  0  0  0  0  0  0  0  0  0  0
   -5.2737   -1.5087   -0.0000 C   0  0  0  0  0  0  0  0  0  0  0  0
   -3.9920   -3.7250   -0.0000 C   0  0  0  0  0  0  0  0  0  0  0  0
   -0.9613   -4.0053   -0.0000 O   0  0  0  0  0  0  0  0  0  0  0  0
    0.3204   -1.7757   -0.0000 N   0  0  0  0  0  0  0  0  0  0  0  0
   -5.2870   -0.0000   -0.0000 O   0  0  0  0  0  0  0  0  0  0  0  0
   -6.5821   -2.2430   -0.0000 C   0  0  0  0  0  0  0  0  0  0  0  0
   -5.3271   -4.4059   -0.0000 C   0  0  0  0  0  0  0  0  0  0  0  0
   -2.8171   -4.4593   -0.0000 C   0  0  0  0  0  0  0  0  0  0  0  0
    1.6021   -2.5100   -0.0000 C   0  0  0  0  0  0  0  0  0  0  0  0
    0.3071   -0.2804   -0.0000 C   0  0  0  0  0  0  0  0  0  0  0  0
   -6.5954   -3.6715   -0.0000 N   0  0  0  0  0  0  0  0  0  0  0  0
   -7.8905   -1.4820   -0.0000 C   0  0  0  0  0  0  0  0  0  0  0  0
   -5.3404   -5.8745   -0.0000 O   0  0  0  0  0  0  0  0  0  0  0  0
   -2.8304   -5.9679   -0.0000 C   0  0  0  0  0  0  0  0  0  0  0  0
   -8.0641   -0.0401   -0.0000 C   0  0  0  0  0  0  0  0  0  0  0  0
   -9.2790   -2.0828   -0.0000 C   0  0  0  0  0  0  0  0  0  0  0  0
   -1.5621   -6.6889   -0.0000 C   0  0  0  0  0  0  0  0  0  0  0  0
   -4.1388   -6.7022   -0.0000 C   0  0  0  0  0  0  0  0  0  0  0  0
   -9.5193    0.2937   -0.0000 C   0  0  0  0  0  0  0  0  0  0  0  0
  -10.2536   -0.9746   -0.0000 C   0  0  0  0  0  0  0  0  0  0  0  0
  -10.2670    1.5754   -0.0000 C   0  0  0  0  0  0  0  0  0  0  0  0
  -11.7223   -0.9346   -0.0000 C   0  0  0  0  0  0  0  0  0  0  0  0
  -11.7356    1.5888   -0.0000 C   0  0  0  0  0  0  0  0  0  0  0  0
  -12.4566    0.3338   -0.0000 C   0  0  0  0  0  0  0  0  0  0  0  0
  1  2  1  0  0  0  0
  2  3  2  0  0  0  0
  2  4  1  0  0  0  0
  3  5  1  0  0  0  0
  3  6  1  0  0  0  0
  4  7  2  0  0  0  0
  5  8  2  0  0  0  0
  6  9  1  6  0  0  0
  6 10  1  0  0  0  0
  7 11  1  0  0  0  0
  9 12  1  0  0  0  0
  9 13  1  0  0  0  0
 10 14  2  0  0  0  0
 10 15  1  0  0  0  0
 12 16  2  0  0  0  0
 12 17  1  0  0  0  0
 13 18  1  0  0  0  0
 13 19  1  6  0  0  0
 15 20  1  0  0  0  0
 15 21  1  0  0  0  0
 17 22  1  0  0  0  0
 17 23  1  6  0  0  0
 18 24  2  0  0  0  0
 19 25  1  0  0  0  0
 23 26  1  0  0  0  0
 23 27  1  0  0  0  0
 25 28  1  0  0  0  0
 25 29  1  0  0  0  0
 26 30  1  0  0  0  0
 27 31  1  0  0  0  0
 30 32  1  0  0  0  0
 31 33  1  0  0  0  0
 32 34  2  0  0  0  0
 33 35  2  0  0  0  0
  7  8  1  0  0  0  0
 18 22  1  0  0  0  0
 30 31  2  0  0  0  0
 34 35  1  0  0  0  0
M  END
>  <MolRegNo>
352369

>  <m>
=

>  <Value>
89000

>  <Unit>
nM

>  <Type>
IC50

>  <pValue>
4.05

>  <Ligand Efficiency>
0

>  <Binding Efficiency>
0

>  <Surface Efficiency>
0

>  <Assay Index>
264843

>  <Assay Category>


>  <Assay Organism>
Homo sapiens

>  <Target ID>
17045

>  <Target Name>
Cytochrome P450 3A4

>  <Target Organism>
Homo sapiens

>  <Target Description>
Target is a single protein chain

>  <Sequence Accession>
P08684

>  <Reference>
J Med Chem 49 (14), 4159-4170 (2006)

>  <Pubmed ID>
16821776

>  <DOI>
10.1021/jm060073e

$$$$
352129
Actelion Java MolfileCreator 1.0

 23 24  0  0  0  0  0  0  0  0999 V2000
    0.0000   -0.0000   -0.0000 O   0  0  0  0  0  0  0  0  0  0  0  0
   -0.0119    1.5219   -0.0000 C   0  0  0  0  0  0  0  0  0  0  0  0
    1.2841    2.2829   -0.0000 N   0  0  0  0  0  0  0  0  0  0  0  0
   -1.3317    2.2829   -0.0000 C   0  0  0  0  0  0  0  0  0  0  0  0
    2.5802    1.5457   -0.0000 C   0  0  0  0  0  0  0  0  0  0  0  0
   -2.6515    1.5457   -0.0000 N   0  0  0  0  0  0  0  0  0  0  0  0
   -1.3436    3.8048   -0.0000 C   0  0  0  0  0  0  0  0  0  0  0  0
    3.8762    2.3067   -0.0000 C   0  0  0  0  0  0  0  0  0  0  0  0
    2.5683    0.0476   -0.0000 C   0  0  0  0  0  0  0  0  0  0  0  0
   -0.0476    4.5658   -0.0000 C   0  0  0  0  0  0  0  0  0  0  0  0
    5.1603    3.0795   -0.0000 N   0  0  0  0  0  0  0  0  0  0  0  0
    3.8643   -0.6896   -0.0000 C   0  0  0  0  0  0  0  0  0  0  0  0
    3.8524   -2.1878   -0.0000 C   0  0  0  0  0  0  0  0  0  0  0  0
    5.1484    0.0713   -0.0000 C   0  0  0  0  0  0  0  0  0  0  0  0
    5.1484   -2.9250   -0.0000 C   0  0  0  0  0  0  0  0  0  0  0  0
    6.4444   -0.6658   -0.0000 C   0  0  0  0  0  0  0  0  0  0  0  0
    6.4444   -2.1640   -0.0000 C   0  0  0  0  0  0  0  0  0  0  0  0
    7.7405   -2.9012   -0.0000 C   0  0  0  0  0  0  0  0  0  0  0  0
    7.7286   -4.3993   -0.0000 C   0  0  0  0  0  0  0  0  0  0  0  0
    9.0246   -2.1402   -0.0000 C   0  0  0  0  0  0  0  0  0  0  0  0
    9.0246   -5.1365   -0.0000 C   0  0  0  0  0  0  0  0  0  0  0  0
   10.3206   -2.8774   -0.0000 C   0  0  0  0  0  0  0  0  0  0  0  0
   10.3206   -4.3637   -0.0000 C   0  0  0  0  0  0  0  0  0  0  0  0
  1  2  2  0  0  0  0
  2  3  1  0  0  0  0
  2  4  1  0  0  0  0
  5  3  1  6  0  0  0
  4  6  1  1  0  0  0
  4  7  1  0  0  0  0
  5  8  1  0  0  0  0
  5  9  1  0  0  0  0
  7 10  1  0  0  0  0
  8 11  3  0  0  0  0
  9 12  1  0  0  0  0
 12 13  2  0  0  0  0
 12 14  1  0  0  0  0
 13 15  1  0  0  0  0
 14 16  2  0  0  0  0
 15 17  2  0  0  0  0
 17 18  1  0  0  0  0
 18 19  2  0  0  0  0
 18 20  1  0  0  0  0
 19 21  1  0  0  0  0
 20 22  2  0  0  0  0
 21 23  2  0  0  0  0
 16 17  1  0  0  0  0
 22 23  1  0  0  0  0
M  END
>  <MolRegNo>
352129

>  <m>
=

>  <Value>
3604

>  <Unit>
nM

>  <Type>
IC50

>  <pValue>
5.44

>  <Ligand Efficiency>
0

>  <Binding Efficiency>
0

>  <Surface Efficiency>
0

>  <Assay Index>
264998

>  <Assay Category>


>  <Assay Organism>
Homo sapiens

>  <Target ID>
17045

>  <Target Name>
Cytochrome P450 3A4

>  <Target Organism>
Homo sapiens

>  <Target Description>
Target is a single protein chain

>  <Sequence Accession>
P08684

>  <Reference>
Bioorg Med Chem Lett 16 (13), 3614-3617 (2006)

>  <Pubmed ID>
16647256

>  <DOI>
10.1016/j.bmcl.2006.01.102

$$$$
553098
Actelion Java MolfileCreator 1.0

 24 25  0  0  0  0  0  0  0  0999 V2000
    0.0000   -0.0000   -0.0000 Cl  0  0  0  0  0  0  0  0  0  0  0  0
   -3.9072    2.3825   -0.0000 O   0  0  0  0  0  0  0  0  0  0  0  0
   -3.9191    0.8815   -0.0000 C   0  0  0  0  0  0  0  0  0  0  0  0
   -2.6088    3.1448   -0.0000 C   0  0  0  0  0  0  0  0  0  0  0  0
   -5.2414    0.1429   -0.0000 C   0  0  0  0  0  0  0  0  0  0  0  0
   -2.6207    0.1310   -0.0000 C   0  0  0  0  0  0  0  0  0  0  0  0
   -2.6207    4.3718   -0.0000 C   0  0  0  0  0  0  0  0  0  0  0  0
   -5.2533   -1.3580   -0.0000 C   0  0  0  0  0  0  0  0  0  0  0  0
   -6.5637    0.9053   -0.0000 C   0  0  0  0  0  0  0  0  0  0  0  0
   -2.6326   -1.3699   -0.0000 C   0  0  0  0  0  0  0  0  0  0  0  0
   -3.9549   -2.1085   -0.0000 C   0  0  0  0  0  0  0  0  0  0  0  0
   -7.8859    0.1549   -0.0000 C   0  0  0  0  0  0  0  0  0  0  0  0
   -7.8979   -1.3461   -0.0000 N   0  0  0  0  0  0  0  0  0  0  0  0
   -9.2082    0.9172   -0.0000 C   0  0  0  0  0  0  0  0  0  0  0  0
   -6.5994   -2.0847   -0.0000 C   0  0  0  0  0  0  0  0  0  0  0  0
   -9.2201   -2.0847   -0.0000 C   0  0  0  0  0  0  0  0  0  0  0  0
   -9.2201    2.4420   -0.0000 C   0  0  0  0  0  0  0  0  0  0  0  0
  -10.5305    0.1668   -0.0000 C   0  0  0  0  0  0  0  0  0  0  0  0
   -6.6113   -3.5856   -0.0000 C   0  0  0  0  0  0  0  0  0  0  0  0
   -9.2320   -3.5856   -0.0000 C   0  0  0  0  0  0  0  0  0  0  0  0
  -10.5424    3.2044   -0.0000 C   0  0  0  0  0  0  0  0  0  0  0  0
  -11.8527    0.9292   -0.0000 C   0  0  0  0  0  0  0  0  0  0  0  0
   -7.9336   -4.3242   -0.0000 N   0  0  0  0  0  0  0  0  0  0  0  0
  -11.8646    2.4539   -0.0000 C   0  0  0  0  0  0  0  0  0  0  0  0
  2  3  1  0  0  0  0
  2  4  1  0  0  0  0
  3  5  2  0  0  0  0
  3  6  1  0  0  0  0
  4  7  1  0  0  0  0
  5  8  1  0  0  0  0
  5  9  1  0  0  0  0
  6 10  2  0  0  0  0
  8 11  2  0  0  0  0
  9 12  1  0  0  0  0
 12 13  1  6  0  0  0
 12 14  1  0  0  0  0
 13 15  1  0  0  0  0
 13 16  1  0  0  0  0
 14 17  2  0  0  0  0
 14 18  1  0  0  0  0
 15 19  1  0  0  0  0
 16 20  1  0  0  0  0
 17 21  1  0  0  0  0
 18 22  2  0  0  0  0
 19 23  1  0  0  0  0
 21 24  2  0  0  0  0
 10 11  1  0  0  0  0
 20 23  1  0  0  0  0
 22 24  1  0  0  0  0
M  END
>  <MolRegNo>
553098

>  <m>
=

>  <Value>
10000

>  <Unit>
nM

>  <Type>
IC50

>  <pValue>
5

>  <Ligand Efficiency>
0

>  <Binding Efficiency>
0

>  <Surface Efficiency>
0

>  <Assay Index>
265642

>  <Assay Category>


>  <Assay Organism>


>  <Target ID>
17045

>  <Target Name>
Cytochrome P450 3A4

>  <Target Organism>
Homo sapiens

>  <Target Description>
Target is a single protein chain

>  <Sequence Accession>
P08684

>  <Reference>
Bioorg Med Chem Lett 16 (16), 4349-4353 (2006)

>  <Pubmed ID>
16750363

>  <DOI>
10.1016/j.bmcl.2006.05.049

$$$$
354493
Actelion Java MolfileCreator 1.0

 23 27  0  0  0  0  0  0  0  0999 V2000
    0.0000   -0.0000   -0.0000 S   0  0  0  0  0  0  0  0  0  0  0  0
   -1.4298    0.4805   -0.0000 C   0  0  0  0  0  0  0  0  0  0  0  0
    0.8672    1.2188   -0.0000 C   0  0  0  0  0  0  0  0  0  0  0  0
   -1.4298    1.9806   -0.0000 C   0  0  0  0  0  0  0  0  0  0  0  0
   -0.0117    2.4377   -0.0000 C   0  0  0  0  0  0  0  0  0  0  0  0
   -2.6486    2.8713   -0.0000 C   0  0  0  0  0  0  0  0  0  0  0  0
   -2.6486    4.3714   -0.0000 N   0  0  0  0  0  0  0  0  0  0  0  0
   -4.0784    2.4259   -0.0000 C   0  0  0  0  0  0  0  0  0  0  0  0
   -4.0784    4.8519   -0.0000 N   0  0  0  0  0  0  0  0  0  0  0  0
   -4.9574    3.6448   -0.0000 C   0  0  0  0  0  0  0  0  0  0  0  0
   -4.9574    1.2188   -0.0000 C   0  0  0  0  0  0  0  0  0  0  0  0
   -6.3872    3.1877   -0.0000 C   0  0  0  0  0  0  0  0  0  0  0  0
   -6.3872    1.6876   -0.0000 C   0  0  0  0  0  0  0  0  0  0  0  0
   -7.6997    3.9378   -0.0000 C   0  0  0  0  0  0  0  0  0  0  0  0
   -7.6997    0.9493   -0.0000 C   0  0  0  0  0  0  0  0  0  0  0  0
   -9.0006    3.1994   -0.0000 C   0  0  0  0  0  0  0  0  0  0  0  0
   -9.0006    1.7111   -0.0000 C   0  0  0  0  0  0  0  0  0  0  0  0
  -10.3015    3.9612   -0.0000 C   0  0  0  0  0  0  0  0  0  0  0  0
  -11.6024    3.2229   -0.0000 N   0  0  0  0  0  0  0  0  0  0  0  0
  -11.5906    1.7462   -0.0000 C   0  0  0  0  0  0  0  0  0  0  0  0
  -13.0439    3.6799   -0.0000 C   0  0  0  0  0  0  0  0  0  0  0  0
  -13.0087    1.2657   -0.0000 N   0  0  0  0  0  0  0  0  0  0  0  0
  -13.9111    2.4728   -0.0000 C   0  0  0  0  0  0  0  0  0  0  0  0
  1  2  1  0  0  0  0
  1  3  1  0  0  0  0
  2  4  2  0  0  0  0
  3  5  2  0  0  0  0
  4  6  1  0  0  0  0
  6  7  2  0  0  0  0
  6  8  1  0  0  0  0
  7  9  1  0  0  0  0
  8 10  2  0  0  0  0
  8 11  1  0  0  0  0
 10 12  1  0  0  0  0
 11 13  1  0  0  0  0
 12 14  1  0  0  0  0
 13 15  1  0  0  0  0
 14 16  2  0  0  0  0
 15 17  2  0  0  0  0
 16 18  1  0  0  0  0
 18 19  1  0  0  0  0
 19 20  1  0  0  0  0
 19 21  1  0  0  0  0
 20 22  2  0  0  0  0
 21 23  2  0  0  0  0
  4  5  1  0  0  0  0
  9 10  1  0  0  0  0
 12 13  2  0  0  0  0
 16 17  1  0  0  0  0
 22 23  1  0  0  0  0
M  END
>  <MolRegNo>
354493

>  <m>
=

>  <Value>
254

>  <Unit>
nM

>  <Type>
IC50

>  <pValue>
6.59

>  <Ligand Efficiency>
0

>  <Binding Efficiency>
0

>  <Surface Efficiency>
0

>  <Assay Index>
266886

>  <Assay Category>


>  <Assay Organism>
Homo sapiens

>  <Target ID>
17045

>  <Target Name>
Cytochrome P450 3A4

>  <Target Organism>
Homo sapiens

>  <Target Description>
Target is a single protein chain

>  <Sequence Accession>
P08684

>  <Reference>
Bioorg Med Chem Lett 16 (16), 4266-4271 (2006)

>  <Pubmed ID>
16759855

>  <DOI>
10.1016/j.bmcl.2006.05.066

$$$$
361128
Actelion Java MolfileCreator 1.0

 31 35  0  0  0  0  0  0  0  0999 V2000
    0.0000   -0.0000   -0.0000 F   0  0  0  0  0  0  0  0  0  0  0  0
    1.2938   -0.7427   -0.0000 C   0  0  0  0  0  0  0  0  0  0  0  0
    2.5875    0.0240   -0.0000 C   0  0  0  0  0  0  0  0  0  0  0  0
    1.2818   -2.2401   -0.0000 C   0  0  0  0  0  0  0  0  0  0  0  0
    3.8813   -0.7068   -0.0000 C   0  0  0  0  0  0  0  0  0  0  0  0
    2.5755   -2.9828   -0.0000 C   0  0  0  0  0  0  0  0  0  0  0  0
    5.1750    0.0719   -0.0000 O   0  0  0  0  0  0  0  0  0  0  0  0
    3.8813   -2.2162   -0.0000 C   0  0  0  0  0  0  0  0  0  0  0  0
    6.4808   -0.6708   -0.0000 C   0  0  0  0  0  0  0  0  0  0  0  0
    5.1870   -2.9589   -0.0000 C   0  0  0  0  0  0  0  0  0  0  0  0
    7.7745    0.0958   -0.0000 C   0  0  0  0  0  0  0  0  0  0  0  0
    6.4808   -2.1802   -0.0000 C   0  0  0  0  0  0  0  0  0  0  0  0
    5.1750   -4.4563   -0.0000 O   0  0  0  0  0  0  0  0  0  0  0  0
    7.7625    1.6172   -0.0000 O   0  0  0  0  0  0  0  0  0  0  0  0
    9.0683   -0.6469   -0.0000 N   0  0  0  0  0  0  0  0  0  0  0  0
   10.3620    0.1198   -0.0000 C   0  0  0  0  0  0  0  0  0  0  0  0
   11.6558   -0.6349   -0.0000 C   0  0  0  0  0  0  0  0  0  0  0  0
   10.3501    1.6292   -0.0000 C   0  0  0  0  0  0  0  0  0  0  0  0
   12.9376    0.1318   -0.0000 C   0  0  0  0  0  0  0  0  0  0  0  0
   11.6438    2.3958   -0.0000 C   0  0  0  0  0  0  0  0  0  0  0  0
   12.9256    1.6531   -0.0000 N   0  0  0  0  0  0  0  0  0  0  0  0
   14.2193    2.4198   -0.0000 C   0  0  0  0  0  0  0  0  0  0  0  0
   15.5131    1.6771   -0.0000 C   0  0  0  0  0  0  0  0  0  0  0  0
   16.7949    2.4438   -0.0000 C   0  0  0  0  0  0  0  0  0  0  0  0
   15.5011    0.1917   -0.0000 C   0  0  0  0  0  0  0  0  0  0  0  0
   18.0886    1.7130   -0.0000 C   0  0  0  0  0  0  0  0  0  0  0  0
   16.7949   -0.5510   -0.0000 C   0  0  0  0  0  0  0  0  0  0  0  0
   19.5142    2.1922   -0.0000 O   0  0  0  0  0  0  0  0  0  0  0  0
   18.0767    0.2156   -0.0000 C   0  0  0  0  0  0  0  0  0  0  0  0
   20.3886    0.9823   -0.0000 C   0  0  0  0  0  0  0  0  0  0  0  0
   19.5022   -0.2396   -0.0000 O   0  0  0  0  0  0  0  0  0  0  0  0
  1  2  1  0  0  0  0
  2  3  2  0  0  0  0
  2  4  1  0  0  0  0
  3  5  1  0  0  0  0
  4  6  2  0  0  0  0
  5  7  1  0  0  0  0
  5  8  2  0  0  0  0
  7  9  1  0  0  0  0
  8 10  1  0  0  0  0
  9 11  1  0  0  0  0
  9 12  2  0  0  0  0
 10 13  2  0  0  0  0
 11 14  2  0  0  0  0
 11 15  1  0  0  0  0
 15 16  1  0  0  0  0
 16 17  1  0  0  0  0
 16 18  1  0  0  0  0
 17 19  1  0  0  0  0
 18 20  1  0  0  0  0
 19 21  1  0  0  0  0
 21 22  1  0  0  0  0
 22 23  1  0  0  0  0
 23 24  2  0  0  0  0
 23 25  1  0  0  0  0
 24 26  1  0  0  0  0
 25 27  2  0  0  0  0
 26 28  1  0  0  0  0
 26 29  2  0  0  0  0
 28 30  1  0  0  0  0
 29 31  1  0  0  0  0
  6  8  1  0  0  0  0
 10 12  1  0  0  0  0
 20 21  1  0  0  0  0
 27 29  1  0  0  0  0
 30 31  1  0  0  0  0
M  END
>  <MolRegNo>
361128

>  <m>
=

>  <Value>
23500

>  <Unit>
nM

>  <Type>
IC50

>  <pValue>
4.63

>  <Ligand Efficiency>
0

>  <Binding Efficiency>
0

>  <Surface Efficiency>
0

>  <Assay Index>
270852

>  <Assay Category>


>  <Assay Organism>
Homo sapiens

>  <Target ID>
17045

>  <Target Name>
Cytochrome P450 3A4

>  <Target Organism>
Homo sapiens

>  <Target Description>
Target is a single protein chain

>  <Sequence Accession>
P08684

>  <Reference>
Bioorg Med Chem Lett 17 (4), 874-878 (2007)

>  <Pubmed ID>
17234405

>  <DOI>
10.1016/j.bmcl.2006.11.065

$$$$
363582
Actelion Java MolfileCreator 1.0

 24 26  0  0  0  0  0  0  0  0999 V2000
    0.0000   -0.0000   -0.0000 S   0  0  0  0  0  0  0  0  0  0  0  0
   -1.2227   -0.8733   -0.0000 C   0  0  0  0  0  0  0  0  0  0  0  0
    1.1994   -0.8733   -0.0000 C   0  0  0  0  0  0  0  0  0  0  0  0
   -2.6549   -0.3959   -0.0000 C   0  0  0  0  0  0  0  0  0  0  0  0
   -0.7685   -2.2940   -0.0000 C   0  0  0  0  0  0  0  0  0  0  0  0
    2.6200   -0.3959   -0.0000 C   0  0  0  0  0  0  0  0  0  0  0  0
    0.7220   -2.2940   -0.0000 C   0  0  0  0  0  0  0  0  0  0  0  0
   -3.7728   -1.3973   -0.0000 N   0  0  0  0  0  0  0  0  0  0  0  0
   -2.9810    1.0829   -0.0000 C   0  0  0  0  0  0  0  0  0  0  0  0
    2.9228    1.0829   -0.0000 O   0  0  0  0  0  0  0  0  0  0  0  0
    3.7146   -1.3973   -0.0000 N   0  0  0  0  0  0  0  0  0  0  0  0
   -5.2051   -0.9316   -0.0000 C   0  0  0  0  0  0  0  0  0  0  0  0
   -4.4132    1.5604   -0.0000 C   0  0  0  0  0  0  0  0  0  0  0  0
    5.1352   -0.9199   -0.0000 O   0  0  0  0  0  0  0  0  0  0  0  0
   -5.5311    0.5589   -0.0000 C   0  0  0  0  0  0  0  0  0  0  0  0
   -6.9750    1.0247   -0.0000 C   0  0  0  0  0  0  0  0  0  0  0  0
   -8.1045    0.0349   -0.0000 N   0  0  0  0  0  0  0  0  0  0  0  0
   -9.5368    0.5124   -0.0000 C   0  0  0  0  0  0  0  0  0  0  0  0
  -10.6430   -0.4891   -0.0000 C   0  0  0  0  0  0  0  0  0  0  0  0
  -10.3286   -1.9213   -0.0000 C   0  0  0  0  0  0  0  0  0  0  0  0
  -12.0753   -0.0233   -0.0000 C   0  0  0  0  0  0  0  0  0  0  0  0
  -11.4348   -2.9228   -0.0000 C   0  0  0  0  0  0  0  0  0  0  0  0
  -13.1815   -1.0247   -0.0000 C   0  0  0  0  0  0  0  0  0  0  0  0
  -12.8904   -2.4686   -0.0000 C   0  0  0  0  0  0  0  0  0  0  0  0
  1  2  1  0  0  0  0
  1  3  1  0  0  0  0
  2  4  1  0  0  0  0
  2  5  2  0  0  0  0
  3  6  1  0  0  0  0
  3  7  2  0  0  0  0
  4  8  2  0  0  0  0
  4  9  1  0  0  0  0
  6 10  2  0  0  0  0
  6 11  1  0  0  0  0
  8 12  1  0  0  0  0
  9 13  2  0  0  0  0
 11 14  1  0  0  0  0
 12 15  2  0  0  0  0
 15 16  1  0  0  0  0
 16 17  1  0  0  0  0
 17 18  1  0  0  0  0
 18 19  1  0  0  0  0
 19 20  2  0  0  0  0
 19 21  1  0  0  0  0
 20 22  1  0  0  0  0
 21 23  2  0  0  0  0
 22 24  2  0  0  0  0
  5  7  1  0  0  0  0
 13 15  1  0  0  0  0
 23 24  1  0  0  0  0
M  END
>  <MolRegNo>
363582

>  <m>
=

>  <Value>
26000

>  <Unit>
nM

>  <Type>
IC50

>  <pValue>
4.58

>  <Ligand Efficiency>
0

>  <Binding Efficiency>
0

>  <Surface Efficiency>
0

>  <Assay Index>
270927

>  <Assay Category>


>  <Assay Organism>
Homo sapiens

>  <Target ID>
17045

>  <Target Name>
Cytochrome P450 3A4

>  <Target Organism>
Homo sapiens

>  <Target Description>
Target is a single protein chain

>  <Sequence Accession>
P08684

>  <Reference>
Bioorg Med Chem Lett 17 (2), 363-369 (2007)

>  <Pubmed ID>
17107790

>  <DOI>
10.1016/j.bmcl.2006.10.045

$$$$
363613
Actelion Java MolfileCreator 1.0

 27 30  0  0  0  0  0  0  0  0999 V2000
    0.0000   -0.0000   -0.0000 S   0  0  0  0  0  0  0  0  0  0  0  0
   -1.2132   -0.8716   -0.0000 C   0  0  0  0  0  0  0  0  0  0  0  0
    1.2014   -0.8716   -0.0000 C   0  0  0  0  0  0  0  0  0  0  0  0
   -2.6501   -0.4005   -0.0000 C   0  0  0  0  0  0  0  0  0  0  0  0
   -0.7774   -2.2850   -0.0000 C   0  0  0  0  0  0  0  0  0  0  0  0
    2.6148   -0.4005   -0.0000 C   0  0  0  0  0  0  0  0  0  0  0  0
    0.7185   -2.2850   -0.0000 C   0  0  0  0  0  0  0  0  0  0  0  0
   -3.8751   -1.2721   -0.0000 N   0  0  0  0  0  0  0  0  0  0  0  0
   -3.1213    1.0365   -0.0000 C   0  0  0  0  0  0  0  0  0  0  0  0
    2.9093    1.0718   -0.0000 O   0  0  0  0  0  0  0  0  0  0  0  0
    3.7102   -1.3898   -0.0000 N   0  0  0  0  0  0  0  0  0  0  0  0
   -5.1000   -0.3769   -0.0000 N   0  0  0  0  0  0  0  0  0  0  0  0
   -4.6289    1.0483   -0.0000 C   0  0  0  0  0  0  0  0  0  0  0  0
    5.1236   -0.9187   -0.0000 O   0  0  0  0  0  0  0  0  0  0  0  0
   -6.5370   -0.8363   -0.0000 C   0  0  0  0  0  0  0  0  0  0  0  0
   -7.6559    0.1767   -0.0000 C   0  0  0  0  0  0  0  0  0  0  0  0
   -9.0929   -0.2827   -0.0000 N   0  0  0  0  0  0  0  0  0  0  0  0
  -10.2118    0.7303   -0.0000 C   0  0  0  0  0  0  0  0  0  0  0  0
  -11.6488    0.2709   -0.0000 C   0  0  0  0  0  0  0  0  0  0  0  0
  -12.7678    1.2721   -0.0000 C   0  0  0  0  0  0  0  0  0  0  0  0
  -11.9550   -1.1778   -0.0000 C   0  0  0  0  0  0  0  0  0  0  0  0
  -14.1929    0.8245   -0.0000 C   0  0  0  0  0  0  0  0  0  0  0  0
  -13.3684   -1.6372   -0.0000 C   0  0  0  0  0  0  0  0  0  0  0  0
  -15.5121    1.5783   -0.0000 O   0  0  0  0  0  0  0  0  0  0  0  0
  -14.5109   -0.6243   -0.0000 C   0  0  0  0  0  0  0  0  0  0  0  0
  -16.6311    0.5889   -0.0000 C   0  0  0  0  0  0  0  0  0  0  0  0
  -16.0186   -0.7774   -0.0000 O   0  0  0  0  0  0  0  0  0  0  0  0
  1  2  1  0  0  0  0
  1  3  1  0  0  0  0
  2  4  1  0  0  0  0
  2  5  2  0  0  0  0
  3  6  1  0  0  0  0
  3  7  2  0  0  0  0
  4  8  2  0  0  0  0
  4  9  1  0  0  0  0
  6 10  2  0  0  0  0
  6 11  1  0  0  0  0
  8 12  1  0  0  0  0
  9 13  2  0  0  0  0
 11 14  1  0  0  0  0
 12 15  1  0  0  0  0
 15 16  1  0  0  0  0
 16 17  1  0  0  0  0
 17 18  1  0  0  0  0
 18 19  1  0  0  0  0
 19 20  2  0  0  0  0
 19 21  1  0  0  0  0
 20 22  1  0  0  0  0
 21 23  2  0  0  0  0
 22 24  1  0  0  0  0
 22 25  2  0  0  0  0
 24 26  1  0  0  0  0
 25 27  1  0  0  0  0
  5  7  1  0  0  0  0
 12 13  1  0  0  0  0
 23 25  1  0  0  0  0
 26 27  1  0  0  0  0
M  END
>  <MolRegNo>
363613

>  <m>
=

>  <Value>
53000

>  <Unit>
nM

>  <Type>
IC50

>  <pValue>
4.28

>  <Ligand Efficiency>
0

>  <Binding Efficiency>
0

>  <Surface Efficiency>
0

>  <Assay Index>
270927

>  <Assay Category>


>  <Assay Organism>
Homo sapiens

>  <Target ID>
17045

>  <Target Name>
Cytochrome P450 3A4

>  <Target Organism>
Homo sapiens

>  <Target Description>
Target is a single protein chain

>  <Sequence Accession>
P08684

>  <Reference>
Bioorg Med Chem Lett 17 (2), 363-369 (2007)

>  <Pubmed ID>
17107790

>  <DOI>
10.1016/j.bmcl.2006.10.045

$$$$
11305
Actelion Java MolfileCreator 1.0

 19 19  0  0  0  0  0  0  0  0999 V2000
    0.0000   -0.0000   -0.0000 O   0  0  0  0  0  0  0  0  0  0  0  0
   -0.0119   -1.4984   -0.0000 C   0  0  0  0  0  0  0  0  0  0  0  0
   -1.3319   -2.2358   -0.0000 N   0  0  0  0  0  0  0  0  0  0  0  0
    1.2844   -2.2358   -0.0000 C   0  0  0  0  0  0  0  0  0  0  0  0
   -2.6520   -1.4747   -0.0000 O   0  0  0  0  0  0  0  0  0  0  0  0
    2.5806   -1.4747   -0.0000 C   0  0  0  0  0  0  0  0  0  0  0  0
    3.8769   -2.2120   -0.0000 C   0  0  0  0  0  0  0  0  0  0  0  0
    5.1732   -1.4509   -0.0000 C   0  0  0  0  0  0  0  0  0  0  0  0
    6.4695   -2.1882   -0.0000 C   0  0  0  0  0  0  0  0  0  0  0  0
    7.7657   -1.4271   -0.0000 C   0  0  0  0  0  0  0  0  0  0  0  0
    9.0620   -2.1644   -0.0000 C   0  0  0  0  0  0  0  0  0  0  0  0
    9.0501   -3.6629   -0.0000 O   0  0  0  0  0  0  0  0  0  0  0  0
   10.3583   -1.4033   -0.0000 N   0  0  0  0  0  0  0  0  0  0  0  0
   11.6545   -2.1406   -0.0000 C   0  0  0  0  0  0  0  0  0  0  0  0
   12.9508   -1.3795   -0.0000 C   0  0  0  0  0  0  0  0  0  0  0  0
   11.6427   -3.6391   -0.0000 C   0  0  0  0  0  0  0  0  0  0  0  0
   14.2471   -2.1168   -0.0000 C   0  0  0  0  0  0  0  0  0  0  0  0
   12.9389   -4.3883   -0.0000 C   0  0  0  0  0  0  0  0  0  0  0  0
   14.2352   -3.6153   -0.0000 C   0  0  0  0  0  0  0  0  0  0  0  0
  1  2  2  0  0  0  0
  2  3  1  0  0  0  0
  2  4  1  0  0  0  0
  3  5  1  0  0  0  0
  4  6  1  0  0  0  0
  6  7  1  0  0  0  0
  7  8  1  0  0  0  0
  8  9  1  0  0  0  0
  9 10  1  0  0  0  0
 10 11  1  0  0  0  0
 11 12  2  0  0  0  0
 11 13  1  0  0  0  0
 13 14  1  0  0  0  0
 14 15  2  0  0  0  0
 14 16  1  0  0  0  0
 15 17  1  0  0  0  0
 16 18  2  0  0  0  0
 17 19  2  0  0  0  0
 18 19  1  0  0  0  0
M  END
>  <MolRegNo>
11305

>  <m>
=

>  <Value>
12000

>  <Unit>
nM

>  <Type>
IC50

>  <pValue>
4.92

>  <Ligand Efficiency>
0

>  <Binding Efficiency>
0

>  <Surface Efficiency>
0

>  <Assay Index>
270927

>  <Assay Category>


>  <Assay Organism>
Homo sapiens

>  <Target ID>
17045

>  <Target Name>
Cytochrome P450 3A4

>  <Target Organism>
Homo sapiens

>  <Target Description>
Target is a single protein chain

>  <Sequence Accession>
P08684

>  <Reference>
Bioorg Med Chem Lett 17 (2), 363-369 (2007)

>  <Pubmed ID>
17107790

>  <DOI>
10.1016/j.bmcl.2006.10.045

$$$$
365553
Actelion Java MolfileCreator 1.0

 27 30  0  0  0  0  0  0  0  0999 V2000
    0.0000   -0.0000   -0.0000 Cl  0  0  0  0  0  0  0  0  0  0  0  0
   -1.3137    0.7575   -0.0000 C   0  0  0  0  0  0  0  0  0  0  0  0
   -2.6156    0.0118   -0.0000 C   0  0  0  0  0  0  0  0  0  0  0  0
   -1.3374    2.2724   -0.0000 C   0  0  0  0  0  0  0  0  0  0  0  0
   -3.9174    0.7693   -0.0000 C   0  0  0  0  0  0  0  0  0  0  0  0
   -2.6511    3.0180   -0.0000 C   0  0  0  0  0  0  0  0  0  0  0  0
   -3.9293    2.2724   -0.0000 C   0  0  0  0  0  0  0  0  0  0  0  0
   -5.2430    3.0298   -0.0000 C   0  0  0  0  0  0  0  0  0  0  0  0
   -6.5449    2.2960   -0.0000 N   0  0  0  0  0  0  0  0  0  0  0  0
   -5.2667    4.5447   -0.0000 C   0  0  0  0  0  0  0  0  0  0  0  0
   -7.8467    3.0535   -0.0000 C   0  0  0  0  0  0  0  0  0  0  0  0
   -3.9885    5.3140   -0.0000 O   0  0  0  0  0  0  0  0  0  0  0  0
   -6.5804    5.2903   -0.0000 C   0  0  0  0  0  0  0  0  0  0  0  0
   -7.8586    4.5684   -0.0000 C   0  0  0  0  0  0  0  0  0  0  0  0
   -9.1486    2.3079   -0.0000 C   0  0  0  0  0  0  0  0  0  0  0  0
   -6.6040    6.7934   -0.0000 C   0  0  0  0  0  0  0  0  0  0  0  0
   -9.1604    5.3258   -0.0000 C   0  0  0  0  0  0  0  0  0  0  0  0
   -9.1604    0.8285   -0.0000 C   0  0  0  0  0  0  0  0  0  0  0  0
  -10.4505    3.0653   -0.0000 C   0  0  0  0  0  0  0  0  0  0  0  0
   -7.9177    7.5509   -0.0000 O   0  0  0  0  0  0  0  0  0  0  0  0
   -5.3258    7.5627   -0.0000 O   0  0  0  0  0  0  0  0  0  0  0  0
  -10.4623    4.5921   -0.0000 C   0  0  0  0  0  0  0  0  0  0  0  0
  -10.4623    0.0947   -0.0000 C   0  0  0  0  0  0  0  0  0  0  0  0
   -7.8704    0.1065   -0.0000 C   0  0  0  0  0  0  0  0  0  0  0  0
  -10.4741   -1.3847   -0.0000 C   0  0  0  0  0  0  0  0  0  0  0  0
   -7.8704   -1.3729   -0.0000 C   0  0  0  0  0  0  0  0  0  0  0  0
   -9.1841   -2.1185   -0.0000 C   0  0  0  0  0  0  0  0  0  0  0  0
  1  2  1  0  0  0  0
  2  3  2  0  0  0  0
  2  4  1  0  0  0  0
  3  5  1  0  0  0  0
  4  6  2  0  0  0  0
  5  7  2  0  0  0  0
  7  8  1  0  0  0  0
  8  9  2  0  0  0  0
  8 10  1  0  0  0  0
  9 11  1  0  0  0  0
 10 12  1  0  0  0  0
 10 13  2  0  0  0  0
 11 14  1  0  0  0  0
 11 15  2  0  0  0  0
 13 16  1  0  0  0  0
 14 17  2  0  0  0  0
 15 18  1  0  0  0  0
 15 19  1  0  0  0  0
 16 20  2  0  0  0  0
 16 21  1  0  0  0  0
 17 22  1  0  0  0  0
 18 23  2  0  0  0  0
 18 24  1  0  0  0  0
 23 25  1  0  0  0  0
 24 26  2  0  0  0  0
 25 27  2  0  0  0  0
  6  7  1  0  0  0  0
 13 14  1  0  0  0  0
 19 22  2  0  0  0  0
 26 27  1  0  0  0  0
M  END
>  <MolRegNo>
365553

>  <m>
=

>  <Value>
55000

>  <Unit>
nM

>  <Type>
IC50

>  <pValue>
4.26

>  <Ligand Efficiency>
0

>  <Binding Efficiency>
0

>  <Surface Efficiency>
0

>  <Assay Index>
272191

>  <Assay Category>


>  <Assay Organism>
Homo sapiens

>  <Target ID>
17045

>  <Target Name>
Cytochrome P450 3A4

>  <Target Organism>
Homo sapiens

>  <Target Description>
Target is a single protein chain

>  <Sequence Accession>
P08684

>  <Reference>
J Med Chem 50 (1), 21-39 (2007)

>  <Pubmed ID>
17201408

>  <DOI>
10.1021/jm0602256

$$$$
365556
Actelion Java MolfileCreator 1.0

 23 25  0  0  0  0  0  0  0  0999 V2000
    0.0000   -0.0000   -0.0000 Cl  0  0  0  0  0  0  0  0  0  0  0  0
   -1.3113    0.7561   -0.0000 C   0  0  0  0  0  0  0  0  0  0  0  0
   -2.6108    0.0118   -0.0000 C   0  0  0  0  0  0  0  0  0  0  0  0
   -1.3350    2.2682   -0.0000 C   0  0  0  0  0  0  0  0  0  0  0  0
   -3.9103    0.7679   -0.0000 C   0  0  0  0  0  0  0  0  0  0  0  0
   -2.6463    3.0125   -0.0000 C   0  0  0  0  0  0  0  0  0  0  0  0
   -3.9222    2.2682   -0.0000 C   0  0  0  0  0  0  0  0  0  0  0  0
   -5.2335    3.0243   -0.0000 C   0  0  0  0  0  0  0  0  0  0  0  0
   -6.5330    2.2919   -0.0000 N   0  0  0  0  0  0  0  0  0  0  0  0
   -5.2571    4.5365   -0.0000 C   0  0  0  0  0  0  0  0  0  0  0  0
   -7.8325    3.0479   -0.0000 C   0  0  0  0  0  0  0  0  0  0  0  0
   -3.9812    5.3044   -0.0000 O   0  0  0  0  0  0  0  0  0  0  0  0
   -6.5684    5.2807   -0.0000 C   0  0  0  0  0  0  0  0  0  0  0  0
   -7.8443    4.5601   -0.0000 C   0  0  0  0  0  0  0  0  0  0  0  0
   -9.1320    2.3037   -0.0000 C   0  0  0  0  0  0  0  0  0  0  0  0
   -6.5921    6.7811   -0.0000 C   0  0  0  0  0  0  0  0  0  0  0  0
   -9.1438    5.3162   -0.0000 C   0  0  0  0  0  0  0  0  0  0  0  0
  -10.4315    3.0598   -0.0000 C   0  0  0  0  0  0  0  0  0  0  0  0
   -9.1438    0.8270   -0.0000 C   0  0  0  0  0  0  0  0  0  0  0  0
   -7.9034    7.5372   -0.0000 O   0  0  0  0  0  0  0  0  0  0  0  0
   -5.3162    7.5490   -0.0000 O   0  0  0  0  0  0  0  0  0  0  0  0
  -10.4433    4.5837   -0.0000 C   0  0  0  0  0  0  0  0  0  0  0  0
  -11.7310    2.3273   -0.0000 C   0  0  0  0  0  0  0  0  0  0  0  0
  1  2  1  0  0  0  0
  2  3  2  0  0  0  0
  2  4  1  0  0  0  0
  3  5  1  0  0  0  0
  4  6  2  0  0  0  0
  5  7  2  0  0  0  0
  7  8  1  0  0  0  0
  8  9  2  0  0  0  0
  8 10  1  0  0  0  0
  9 11  1  0  0  0  0
 10 12  1  0  0  0  0
 10 13  2  0  0  0  0
 11 14  1  0  0  0  0
 11 15  2  0  0  0  0
 13 16  1  0  0  0  0
 14 17  2  0  0  0  0
 15 18  1  0  0  0  0
 15 19  1  0  0  0  0
 16 20  2  0  0  0  0
 16 21  1  0  0  0  0
 17 22  1  0  0  0  0
 18 23  1  0  0  0  0
  6  7  1  0  0  0  0
 13 14  1  0  0  0  0
 18 22  2  0  0  0  0
M  END
>  <MolRegNo>
365556

>  <m>
=

>  <Value>
7000

>  <Unit>
nM

>  <Type>
IC50

>  <pValue>
5.16

>  <Ligand Efficiency>
0

>  <Binding Efficiency>
0

>  <Surface Efficiency>
0

>  <Assay Index>
272191

>  <Assay Category>


>  <Assay Organism>
Homo sapiens

>  <Target ID>
17045

>  <Target Name>
Cytochrome P450 3A4

>  <Target Organism>
Homo sapiens

>  <Target Description>
Target is a single protein chain

>  <Sequence Accession>
P08684

>  <Reference>
J Med Chem 50 (1), 21-39 (2007)

>  <Pubmed ID>
17201408

>  <DOI>
10.1021/jm0602256

$$$$
365766
Actelion Java MolfileCreator 1.0

 32 35  0  0  0  0  0  0  0  0999 V2000
    0.0000   -0.0000   -0.0000 S   0  0  0  0  0  0  0  0  0  0  0  0
   -1.4406    0.4723   -0.0000 C   0  0  0  0  0  0  0  0  0  0  0  0
    0.8620    1.2281   -0.0000 C   0  0  0  0  0  0  0  0  0  0  0  0
   -2.7513   -0.2598   -0.0000 N   0  0  0  0  0  0  0  0  0  0  0  0
   -1.4524    1.9838   -0.0000 C   0  0  0  0  0  0  0  0  0  0  0  0
   -0.0354    2.4443   -0.0000 C   0  0  0  0  0  0  0  0  0  0  0  0
    2.3499    1.2399   -0.0000 C   0  0  0  0  0  0  0  0  0  0  0  0
   -4.0621    0.4960   -0.0000 C   0  0  0  0  0  0  0  0  0  0  0  0
   -2.7750   -1.7358   -0.0000 C   0  0  0  0  0  0  0  0  0  0  0  0
   -2.7632    2.7513   -0.0000 C   0  0  0  0  0  0  0  0  0  0  0  0
    0.4133    3.8849   -0.0000 C   0  0  0  0  0  0  0  0  0  0  0  0
    3.0938   -0.0472   -0.0000 C   0  0  0  0  0  0  0  0  0  0  0  0
   -5.3728   -0.2480   -0.0000 O   0  0  0  0  0  0  0  0  0  0  0  0
   -4.0739    2.0074   -0.0000 N   0  0  0  0  0  0  0  0  0  0  0  0
   -4.0975   -2.4561   -0.0000 C   0  0  0  0  0  0  0  0  0  0  0  0
   -2.7750    4.2628   -0.0000 O   0  0  0  0  0  0  0  0  0  0  0  0
   -0.6022    5.0067   -0.0000 O   0  0  0  0  0  0  0  0  0  0  0  0
    1.8657    4.2156   -0.0000 N   0  0  0  0  0  0  0  0  0  0  0  0
    4.5698   -0.0590   -0.0000 C   0  0  0  0  0  0  0  0  0  0  0  0
    2.5860   -1.4524   -0.0000 C   0  0  0  0  0  0  0  0  0  0  0  0
   -5.3846    2.7632   -0.0000 C   0  0  0  0  0  0  0  0  0  0  0  0
   -5.3964   -1.6768   -0.0000 C   0  0  0  0  0  0  0  0  0  0  0  0
   -4.1329   -3.9440   -0.0000 C   0  0  0  0  0  0  0  0  0  0  0  0
    3.0702    3.3418   -0.0000 O   0  0  0  0  0  0  0  0  0  0  0  0
    2.3026    5.6444   -0.0000 C   0  0  0  0  0  0  0  0  0  0  0  0
    5.0067   -1.4760   -0.0000 N   0  0  0  0  0  0  0  0  0  0  0  0
    5.6090    1.0273   -0.0000 C   0  0  0  0  0  0  0  0  0  0  0  0
    3.7787   -2.3381   -0.0000 N   0  0  0  0  0  0  0  0  0  0  0  0
    1.0864   -1.5823   -0.0000 C   0  0  0  0  0  0  0  0  0  0  0  0
    4.2628    4.2392   -0.0000 C   0  0  0  0  0  0  0  0  0  0  0  0
    3.7905    5.6680   -0.0000 C   0  0  0  0  0  0  0  0  0  0  0  0
    4.6525    6.8961   -0.0000 O   0  0  0  0  0  0  0  0  0  0  0  0
  1  2  1  0  0  0  0
  1  3  1  0  0  0  0
  2  4  1  0  0  0  0
  2  5  2  0  0  0  0
  3  6  2  0  0  0  0
  3  7  1  0  0  0  0
  4  8  1  0  0  0  0
  4  9  1  0  0  0  0
  5 10  1  0  0  0  0
  6 11  1  0  0  0  0
  7 12  1  0  0  0  0
  8 13  2  0  0  0  0
  8 14  1  0  0  0  0
  9 15  1  0  0  0  0
 10 16  2  0  0  0  0
 11 17  2  0  0  0  0
 11 18  1  0  0  0  0
 12 19  1  0  0  0  0
 12 20  2  0  0  0  0
 14 21  1  0  0  0  0
 15 22  1  0  0  0  0
 15 23  1  0  0  0  0
 18 24  1  0  0  0  0
 18 25  1  0  0  0  0
 19 26  2  0  0  0  0
 19 27  1  0  0  0  0
 20 28  1  0  0  0  0
 20 29  1  0  0  0  0
 24 30  1  0  0  0  0
 25 31  1  0  0  0  0
 31 32  1  6  0  0  0
  5  6  1  0  0  0  0
 10 14  1  0  0  0  0
 26 28  1  0  0  0  0
 30 31  1  0  0  0  0
M  END
>  <MolRegNo>
365766

>  <m>
=

>  <Value>
1.0e5

>  <Unit>
nM

>  <Type>
IC50

>  <pValue>
4

>  <Ligand Efficiency>
0

>  <Binding Efficiency>
0

>  <Surface Efficiency>
0

>  <Assay Index>
272395

>  <Assay Category>


>  <Assay Organism>


>  <Target ID>
17045

>  <Target Name>
Cytochrome P450 3A4

>  <Target Organism>
Homo sapiens

>  <Target Description>
Target is a single protein chain

>  <Sequence Accession>
P08684

>  <Reference>
J Med Chem 50 (2), 254-263 (2007)

>  <Pubmed ID>
17228867

>  <DOI>
10.1021/jm060995h

$$$$
365757
Actelion Java MolfileCreator 1.0

 36 40  0  0  0  0  0  0  0  0999 V2000
    0.0000   -0.0000   -0.0000 S   0  0  0  0  0  0  0  0  0  0  0  0
   -1.4430    0.4731   -0.0000 C   0  0  0  0  0  0  0  0  0  0  0  0
    0.8635    1.2301   -0.0000 C   0  0  0  0  0  0  0  0  0  0  0  0
   -2.7560   -0.2602   -0.0000 N   0  0  0  0  0  0  0  0  0  0  0  0
   -1.4549    1.9871   -0.0000 C   0  0  0  0  0  0  0  0  0  0  0  0
   -0.0355    2.4484   -0.0000 C   0  0  0  0  0  0  0  0  0  0  0  0
    2.3538    1.2420   -0.0000 C   0  0  0  0  0  0  0  0  0  0  0  0
   -4.0689    0.4968   -0.0000 C   0  0  0  0  0  0  0  0  0  0  0  0
   -2.7796   -1.7387   -0.0000 C   0  0  0  0  0  0  0  0  0  0  0  0
   -2.7678    2.7560   -0.0000 C   0  0  0  0  0  0  0  0  0  0  0  0
    0.4140    3.8915   -0.0000 C   0  0  0  0  0  0  0  0  0  0  0  0
    3.0990   -0.0473   -0.0000 N   0  0  0  0  0  0  0  0  0  0  0  0
   -5.3818   -0.2484   -0.0000 O   0  0  0  0  0  0  0  0  0  0  0  0
   -4.0807    2.0108   -0.0000 N   0  0  0  0  0  0  0  0  0  0  0  0
   -4.0926   -2.4721   -0.0000 C   0  0  0  0  0  0  0  0  0  0  0  0
   -2.7796    4.2700   -0.0000 O   0  0  0  0  0  0  0  0  0  0  0  0
   -0.6032    5.0152   -0.0000 O   0  0  0  0  0  0  0  0  0  0  0  0
    1.8689    4.2227   -0.0000 N   0  0  0  0  0  0  0  0  0  0  0  0
    2.4721   -1.4076   -0.0000 C   0  0  0  0  0  0  0  0  0  0  0  0
    4.5657   -0.1893   -0.0000 C   0  0  0  0  0  0  0  0  0  0  0  0
   -5.3937    2.7678   -0.0000 C   0  0  0  0  0  0  0  0  0  0  0  0
   -5.4055   -1.7033   -0.0000 C   0  0  0  0  0  0  0  0  0  0  0  0
   -4.1044   -3.9624   -0.0000 C   0  0  0  0  0  0  0  0  0  0  0  0
    2.9689    3.2173   -0.0000 O   0  0  0  0  0  0  0  0  0  0  0  0
    2.4603    5.5947   -0.0000 C   0  0  0  0  0  0  0  0  0  0  0  0
    3.5839   -2.4011   -0.0000 N   0  0  0  0  0  0  0  0  0  0  0  0
    1.1592   -2.1527   -0.0000 N   0  0  0  0  0  0  0  0  0  0  0  0
    4.8732   -1.6441   -0.0000 C   0  0  0  0  0  0  0  0  0  0  0  0
    5.6539    0.8280   -0.0000 C   0  0  0  0  0  0  0  0  0  0  0  0
    4.2582    3.9861   -0.0000 C   0  0  0  0  0  0  0  0  0  0  0  0
    3.9388    5.4528   -0.0000 C   0  0  0  0  0  0  0  0  0  0  0  0
    1.1592   -3.6431   -0.0000 C   0  0  0  0  0  0  0  0  0  0  0  0
    6.2926   -2.0818   -0.0000 C   0  0  0  0  0  0  0  0  0  0  0  0
    7.0733    0.3903   -0.0000 C   0  0  0  0  0  0  0  0  0  0  0  0
    4.9324    6.5765   -0.0000 O   0  0  0  0  0  0  0  0  0  0  0  0
    7.3926   -1.0527   -0.0000 C   0  0  0  0  0  0  0  0  0  0  0  0
  1  2  1  0  0  0  0
  1  3  1  0  0  0  0
  2  4  1  0  0  0  0
  2  5  2  0  0  0  0
  3  6  2  0  0  0  0
  3  7  1  0  0  0  0
  4  8  1  0  0  0  0
  4  9  1  0  0  0  0
  5 10  1  0  0  0  0
  6 11  1  0  0  0  0
  7 12  1  0  0  0  0
  8 13  2  0  0  0  0
  8 14  1  0  0  0  0
  9 15  1  0  0  0  0
 10 16  2  0  0  0  0
 11 17  2  0  0  0  0
 11 18  1  0  0  0  0
 12 19  1  0  0  0  0
 12 20  1  0  0  0  0
 14 21  1  0  0  0  0
 15 22  1  0  0  0  0
 15 23  1  0  0  0  0
 18 24  1  0  0  0  0
 18 25  1  0  0  0  0
 19 26  2  0  0  0  0
 19 27  1  0  0  0  0
 20 28  2  0  0  0  0
 20 29  1  0  0  0  0
 24 30  1  0  0  0  0
 25 31  1  0  0  0  0
 27 32  1  0  0  0  0
 28 33  1  0  0  0  0
 29 34  2  0  0  0  0
 31 35  1  6  0  0  0
 33 36  2  0  0  0  0
  5  6  1  0  0  0  0
 10 14  1  0  0  0  0
 26 28  1  0  0  0  0
 30 31  1  0  0  0  0
 34 36  1  0  0  0  0
M  END
>  <MolRegNo>
365757

>  <m>
=

>  <Value>
22000

>  <Unit>
nM

>  <Type>
IC50

>  <pValue>
4.66

>  <Ligand Efficiency>
0

>  <Binding Efficiency>
0

>  <Surface Efficiency>
0

>  <Assay Index>
272395

>  <Assay Category>


>  <Assay Organism>


>  <Target ID>
17045

>  <Target Name>
Cytochrome P450 3A4

>  <Target Organism>
Homo sapiens

>  <Target Description>
Target is a single protein chain

>  <Sequence Accession>
P08684

>  <Reference>
J Med Chem 50 (2), 254-263 (2007)

>  <Pubmed ID>
17228867

>  <DOI>
10.1021/jm060995h

$$$$
365756
Actelion Java MolfileCreator 1.0

 34 38  0  0  0  0  0  0  0  0999 V2000
    0.0000   -0.0000   -0.0000 S   0  0  0  0  0  0  0  0  0  0  0  0
   -1.4438    0.4734   -0.0000 C   0  0  0  0  0  0  0  0  0  0  0  0
    0.8639    1.2308   -0.0000 C   0  0  0  0  0  0  0  0  0  0  0  0
   -2.7574   -0.2604   -0.0000 N   0  0  0  0  0  0  0  0  0  0  0  0
   -1.4556    1.9882   -0.0000 C   0  0  0  0  0  0  0  0  0  0  0  0
   -0.0355    2.4497   -0.0000 C   0  0  0  0  0  0  0  0  0  0  0  0
    2.3550    1.2426   -0.0000 C   0  0  0  0  0  0  0  0  0  0  0  0
   -4.0710    0.4970   -0.0000 C   0  0  0  0  0  0  0  0  0  0  0  0
   -2.7692   -1.7515   -0.0000 C   0  0  0  0  0  0  0  0  0  0  0  0
   -2.7692    2.7574   -0.0000 C   0  0  0  0  0  0  0  0  0  0  0  0
    0.4142    3.8935   -0.0000 C   0  0  0  0  0  0  0  0  0  0  0  0
    3.1006   -0.0473   -0.0000 C   0  0  0  0  0  0  0  0  0  0  0  0
   -5.3846   -0.2485   -0.0000 O   0  0  0  0  0  0  0  0  0  0  0  0
   -4.0828    2.0118   -0.0000 N   0  0  0  0  0  0  0  0  0  0  0  0
   -1.4793   -2.4970   -0.0000 C   0  0  0  0  0  0  0  0  0  0  0  0
   -2.7811    4.2722   -0.0000 O   0  0  0  0  0  0  0  0  0  0  0  0
   -0.6035    5.0177   -0.0000 O   0  0  0  0  0  0  0  0  0  0  0  0
    1.8698    4.2248   -0.0000 N   0  0  0  0  0  0  0  0  0  0  0  0
    4.5680   -0.1893   -0.0000 C   0  0  0  0  0  0  0  0  0  0  0  0
    2.4734   -1.4083   -0.0000 C   0  0  0  0  0  0  0  0  0  0  0  0
   -5.3964    2.7692   -0.0000 C   0  0  0  0  0  0  0  0  0  0  0  0
   -1.4911   -3.9882   -0.0000 C   0  0  0  0  0  0  0  0  0  0  0  0
   -0.1893   -1.7396   -0.0000 C   0  0  0  0  0  0  0  0  0  0  0  0
    2.9704    3.2189   -0.0000 O   0  0  0  0  0  0  0  0  0  0  0  0
    2.4615    5.5976   -0.0000 C   0  0  0  0  0  0  0  0  0  0  0  0
    4.8757   -1.6450   -0.0000 C   0  0  0  0  0  0  0  0  0  0  0  0
    5.6568    0.8284   -0.0000 C   0  0  0  0  0  0  0  0  0  0  0  0
    3.5858   -2.4024   -0.0000 N   0  0  0  0  0  0  0  0  0  0  0  0
    4.2604    3.9882   -0.0000 C   0  0  0  0  0  0  0  0  0  0  0  0
    3.9408    5.4556   -0.0000 C   0  0  0  0  0  0  0  0  0  0  0  0
    6.2959   -2.0828   -0.0000 N   0  0  0  0  0  0  0  0  0  0  0  0
    7.0769    0.3905   -0.0000 C   0  0  0  0  0  0  0  0  0  0  0  0
    4.9349    6.5799   -0.0000 O   0  0  0  0  0  0  0  0  0  0  0  0
    7.3964   -1.0533   -0.0000 C   0  0  0  0  0  0  0  0  0  0  0  0
  1  2  1  0  0  0  0
  1  3  1  0  0  0  0
  2  4  1  0  0  0  0
  2  5  2  0  0  0  0
  3  6  2  0  0  0  0
  3  7  1  0  0  0  0
  4  8  1  0  0  0  0
  4  9  1  0  0  0  0
  5 10  1  0  0  0  0
  6 11  1  0  0  0  0
  7 12  1  0  0  0  0
  8 13  2  0  0  0  0
  8 14  1  0  0  0  0
  9 15  1  0  0  0  0
 10 16  2  0  0  0  0
 11 17  2  0  0  0  0
 11 18  1  0  0  0  0
 12 19  1  0  0  0  0
 12 20  2  0  0  0  0
 14 21  1  0  0  0  0
 15 22  1  0  0  0  0
 15 23  1  0  0  0  0
 18 24  1  0  0  0  0
 18 25  1  0  0  0  0
 19 26  2  0  0  0  0
 19 27  1  0  0  0  0
 20 28  1  0  0  0  0
 24 29  1  0  0  0  0
 25 30  1  0  0  0  0
 26 31  1  0  0  0  0
 27 32  2  0  0  0  0
 30 33  1  6  0  0  0
 31 34  2  0  0  0  0
  5  6  1  0  0  0  0
 10 14  1  0  0  0  0
 26 28  1  0  0  0  0
 29 30  1  0  0  0  0
 32 34  1  0  0  0  0
M  END
>  <MolRegNo>
365756

>  <m>
=

>  <Value>
15000

>  <Unit>
nM

>  <Type>
IC50

>  <pValue>
4.82

>  <Ligand Efficiency>
0

>  <Binding Efficiency>
0

>  <Surface Efficiency>
0

>  <Assay Index>
272395

>  <Assay Category>


>  <Assay Organism>


>  <Target ID>
17045

>  <Target Name>
Cytochrome P450 3A4

>  <Target Organism>
Homo sapiens

>  <Target Description>
Target is a single protein chain

>  <Sequence Accession>
P08684

>  <Reference>
J Med Chem 50 (2), 254-263 (2007)

>  <Pubmed ID>
17228867

>  <DOI>
10.1021/jm060995h

$$$$
365748
Actelion Java MolfileCreator 1.0

 35 38  0  0  0  0  0  0  0  0999 V2000
    0.0000   -0.0000   -0.0000 S   0  0  0  0  0  0  0  0  0  0  0  0
   -1.4423    0.4729   -0.0000 C   0  0  0  0  0  0  0  0  0  0  0  0
    0.8630    1.2295   -0.0000 C   0  0  0  0  0  0  0  0  0  0  0  0
   -2.7546   -0.2601   -0.0000 N   0  0  0  0  0  0  0  0  0  0  0  0
   -1.4542    1.9862   -0.0000 C   0  0  0  0  0  0  0  0  0  0  0  0
   -0.0355    2.4473   -0.0000 C   0  0  0  0  0  0  0  0  0  0  0  0
    2.3527    1.2414   -0.0000 C   0  0  0  0  0  0  0  0  0  0  0  0
   -4.0669    0.4965   -0.0000 C   0  0  0  0  0  0  0  0  0  0  0  0
   -2.7665   -1.7497   -0.0000 C   0  0  0  0  0  0  0  0  0  0  0  0
   -2.7665    2.7546   -0.0000 C   0  0  0  0  0  0  0  0  0  0  0  0
    0.4138    3.8896   -0.0000 C   0  0  0  0  0  0  0  0  0  0  0  0
    3.0975   -0.0473   -0.0000 C   0  0  0  0  0  0  0  0  0  0  0  0
   -5.3792   -0.2483   -0.0000 O   0  0  0  0  0  0  0  0  0  0  0  0
   -4.0788    2.0098   -0.0000 N   0  0  0  0  0  0  0  0  0  0  0  0
   -1.4778   -2.4945   -0.0000 C   0  0  0  0  0  0  0  0  0  0  0  0
   -2.7783    4.2679   -0.0000 O   0  0  0  0  0  0  0  0  0  0  0  0
   -0.6029    5.0127   -0.0000 O   0  0  0  0  0  0  0  0  0  0  0  0
    1.8680    4.2206   -0.0000 N   0  0  0  0  0  0  0  0  0  0  0  0
    4.5753   -0.0236   -0.0000 C   0  0  0  0  0  0  0  0  0  0  0  0
    2.3409   -1.3359   -0.0000 C   0  0  0  0  0  0  0  0  0  0  0  0
   -5.3911    2.7665   -0.0000 C   0  0  0  0  0  0  0  0  0  0  0  0
   -1.4896   -3.9842   -0.0000 C   0  0  0  0  0  0  0  0  0  0  0  0
   -0.1892   -1.7379   -0.0000 C   0  0  0  0  0  0  0  0  0  0  0  0
    2.9674    3.2157   -0.0000 O   0  0  0  0  0  0  0  0  0  0  0  0
    2.4591    5.5920   -0.0000 C   0  0  0  0  0  0  0  0  0  0  0  0
    5.3201   -1.3005   -0.0000 C   0  0  0  0  0  0  0  0  0  0  0  0
    5.3083    1.2887   -0.0000 C   0  0  0  0  0  0  0  0  0  0  0  0
    3.0857   -2.6246   -0.0000 C   0  0  0  0  0  0  0  0  0  0  0  0
    4.2561    3.9842   -0.0000 C   0  0  0  0  0  0  0  0  0  0  0  0
    3.9369    5.4502   -0.0000 C   0  0  0  0  0  0  0  0  0  0  0  0
    4.5635   -2.6010   -0.0000 C   0  0  0  0  0  0  0  0  0  0  0  0
    6.0295    2.6128   -0.0000 F   0  0  0  0  0  0  0  0  0  0  0  0
    6.6088    0.5675   -0.0000 F   0  0  0  0  0  0  0  0  0  0  0  0
    3.9842    2.0335   -0.0000 F   0  0  0  0  0  0  0  0  0  0  0  0
    4.9300    6.5733   -0.0000 O   0  0  0  0  0  0  0  0  0  0  0  0
  1  2  1  0  0  0  0
  1  3  1  0  0  0  0
  2  4  1  0  0  0  0
  2  5  2  0  0  0  0
  3  6  2  0  0  0  0
  3  7  1  0  0  0  0
  4  8  1  0  0  0  0
  4  9  1  0  0  0  0
  5 10  1  0  0  0  0
  6 11  1  0  0  0  0
  7 12  1  0  0  0  0
  8 13  2  0  0  0  0
  8 14  1  0  0  0  0
  9 15  1  0  0  0  0
 10 16  2  0  0  0  0
 11 17  2  0  0  0  0
 11 18  1  0  0  0  0
 12 19  2  0  0  0  0
 12 20  1  0  0  0  0
 14 21  1  0  0  0  0
 15 22  1  0  0  0  0
 15 23  1  0  0  0  0
 18 24  1  0  0  0  0
 18 25  1  0  0  0  0
 19 26  1  0  0  0  0
 19 27  1  0  0  0  0
 20 28  2  0  0  0  0
 24 29  1  0  0  0  0
 25 30  1  0  0  0  0
 26 31  2  0  0  0  0
 27 32  1  0  0  0  0
 27 33  1  0  0  0  0
 27 34  1  0  0  0  0
 30 35  1  6  0  0  0
  5  6  1  0  0  0  0
 10 14  1  0  0  0  0
 28 31  1  0  0  0  0
 29 30  1  0  0  0  0
M  END
>  <MolRegNo>
365748

>  <m>
=

>  <Value>
8300

>  <Unit>
nM

>  <Type>
IC50

>  <pValue>
5.08

>  <Ligand Efficiency>
0

>  <Binding Efficiency>
0

>  <Surface Efficiency>
0

>  <Assay Index>
272395

>  <Assay Category>


>  <Assay Organism>


>  <Target ID>
17045

>  <Target Name>
Cytochrome P450 3A4

>  <Target Organism>
Homo sapiens

>  <Target Description>
Target is a single protein chain

>  <Sequence Accession>
P08684

>  <Reference>
J Med Chem 50 (2), 254-263 (2007)

>  <Pubmed ID>
17228867

>  <DOI>
10.1021/jm060995h

$$$$
365739
Actelion Java MolfileCreator 1.0

 35 39  0  0  0  0  0  0  0  0999 V2000
    0.0000   -0.0000   -0.0000 S   0  0  0  0  0  0  0  0  0  0  0  0
   -1.4446    0.4736   -0.0000 C   0  0  0  0  0  0  0  0  0  0  0  0
    0.8644    1.2315   -0.0000 C   0  0  0  0  0  0  0  0  0  0  0  0
   -2.7589   -0.2605   -0.0000 N   0  0  0  0  0  0  0  0  0  0  0  0
   -1.4564    1.9893   -0.0000 C   0  0  0  0  0  0  0  0  0  0  0  0
   -0.0355    2.4511   -0.0000 C   0  0  0  0  0  0  0  0  0  0  0  0
    2.3563    1.2433   -0.0000 C   0  0  0  0  0  0  0  0  0  0  0  0
   -4.0733    0.4973   -0.0000 C   0  0  0  0  0  0  0  0  0  0  0  0
   -2.7708   -1.7525   -0.0000 C   0  0  0  0  0  0  0  0  0  0  0  0
   -2.7708    2.7589   -0.0000 C   0  0  0  0  0  0  0  0  0  0  0  0
    0.4144    3.8957   -0.0000 C   0  0  0  0  0  0  0  0  0  0  0  0
    3.1023   -0.0474   -0.0000 C   0  0  0  0  0  0  0  0  0  0  0  0
   -5.3876   -0.2487   -0.0000 O   0  0  0  0  0  0  0  0  0  0  0  0
   -4.0851    2.0130   -0.0000 N   0  0  0  0  0  0  0  0  0  0  0  0
   -1.4801   -2.4984   -0.0000 C   0  0  0  0  0  0  0  0  0  0  0  0
   -2.7826    4.2746   -0.0000 O   0  0  0  0  0  0  0  0  0  0  0  0
   -0.6039    5.0206   -0.0000 O   0  0  0  0  0  0  0  0  0  0  0  0
    1.8709    4.2272   -0.0000 N   0  0  0  0  0  0  0  0  0  0  0  0
    4.5824   -0.0237   -0.0000 C   0  0  0  0  0  0  0  0  0  0  0  0
    2.3445   -1.3380   -0.0000 C   0  0  0  0  0  0  0  0  0  0  0  0
   -5.3995    2.7708   -0.0000 C   0  0  0  0  0  0  0  0  0  0  0  0
   -1.4920   -3.9904   -0.0000 C   0  0  0  0  0  0  0  0  0  0  0  0
   -0.1895   -1.7406   -0.0000 C   0  0  0  0  0  0  0  0  0  0  0  0
    2.9721    3.2207   -0.0000 O   0  0  0  0  0  0  0  0  0  0  0  0
    2.4629    5.6008   -0.0000 C   0  0  0  0  0  0  0  0  0  0  0  0
    5.3284   -1.3025   -0.0000 C   0  0  0  0  0  0  0  0  0  0  0  0
    5.3047    1.2788   -0.0000 C   0  0  0  0  0  0  0  0  0  0  0  0
    3.0905   -2.6287   -0.0000 C   0  0  0  0  0  0  0  0  0  0  0  0
    4.2627    3.9904   -0.0000 C   0  0  0  0  0  0  0  0  0  0  0  0
    3.9430    5.4587   -0.0000 C   0  0  0  0  0  0  0  0  0  0  0  0
    4.5824   -2.6050   -0.0000 N   0  0  0  0  0  0  0  0  0  0  0  0
    6.8085   -1.2788   -0.0000 C   0  0  0  0  0  0  0  0  0  0  0  0
    6.7849    1.3025   -0.0000 C   0  0  0  0  0  0  0  0  0  0  0  0
    4.9377    6.5836   -0.0000 O   0  0  0  0  0  0  0  0  0  0  0  0
    7.5427    0.0355   -0.0000 C   0  0  0  0  0  0  0  0  0  0  0  0
  1  2  1  0  0  0  0
  1  3  1  0  0  0  0
  2  4  1  0  0  0  0
  2  5  2  0  0  0  0
  3  6  2  0  0  0  0
  3  7  1  0  0  0  0
  4  8  1  0  0  0  0
  4  9  1  0  0  0  0
  5 10  1  0  0  0  0
  6 11  1  0  0  0  0
  7 12  1  0  0  0  0
  8 13  2  0  0  0  0
  8 14  1  0  0  0  0
  9 15  1  0  0  0  0
 10 16  2  0  0  0  0
 11 17  2  0  0  0  0
 11 18  1  0  0  0  0
 12 19  1  0  0  0  0
 12 20  2  0  0  0  0
 14 21  1  0  0  0  0
 15 22  1  0  0  0  0
 15 23  1  0  0  0  0
 18 24  1  0  0  0  0
 18 25  1  0  0  0  0
 19 26  1  0  0  0  0
 19 27  2  0  0  0  0
 20 28  1  0  0  0  0
 24 29  1  0  0  0  0
 25 30  1  0  0  0  0
 26 31  1  0  0  0  0
 26 32  2  0  0  0  0
 27 33  1  0  0  0  0
 30 34  1  6  0  0  0
 32 35  1  0  0  0  0
  5  6  1  0  0  0  0
 10 14  1  0  0  0  0
 28 31  2  0  0  0  0
 29 30  1  0  0  0  0
 33 35  2  0  0  0  0
M  END
>  <MolRegNo>
365739

>  <m>
=

>  <Value>
46000

>  <Unit>
nM

>  <Type>
IC50

>  <pValue>
4.34

>  <Ligand Efficiency>
0

>  <Binding Efficiency>
0

>  <Surface Efficiency>
0

>  <Assay Index>
272395

>  <Assay Category>


>  <Assay Organism>


>  <Target ID>
17045

>  <Target Name>
Cytochrome P450 3A4

>  <Target Organism>
Homo sapiens

>  <Target Description>
Target is a single protein chain

>  <Sequence Accession>
P08684

>  <Reference>
J Med Chem 50 (2), 254-263 (2007)

>  <Pubmed ID>
17228867

>  <DOI>
10.1021/jm060995h

$$$$
365729
Actelion Java MolfileCreator 1.0

 31 33  0  0  0  0  0  0  0  0999 V2000
    0.0000   -0.0000   -0.0000 Cl  0  0  0  0  0  0  0  0  0  0  0  0
   -1.3881    0.6000   -0.0000 C   0  0  0  0  0  0  0  0  0  0  0  0
   -2.5998   -0.2823   -0.0000 N   0  0  0  0  0  0  0  0  0  0  0  0
   -1.8822    2.0234   -0.0000 C   0  0  0  0  0  0  0  0  0  0  0  0
   -3.8351    0.6000   -0.0000 C   0  0  0  0  0  0  0  0  0  0  0  0
   -1.0588    3.2821   -0.0000 Cl  0  0  0  0  0  0  0  0  0  0  0  0
   -3.3763    2.0234   -0.0000 N   0  0  0  0  0  0  0  0  0  0  0  0
   -5.2938    0.2353   -0.0000 C   0  0  0  0  0  0  0  0  0  0  0  0
   -4.1409    3.3292   -0.0000 C   0  0  0  0  0  0  0  0  0  0  0  0
   -5.6467    3.3410   -0.0000 C   0  0  0  0  0  0  0  0  0  0  0  0
   -6.5290    2.1410   -0.0000 S   0  0  0  0  0  0  0  0  0  0  0  0
   -6.5408    4.5527   -0.0000 C   0  0  0  0  0  0  0  0  0  0  0  0
   -7.9642    2.6116   -0.0000 C   0  0  0  0  0  0  0  0  0  0  0  0
   -7.9760    4.1056   -0.0000 C   0  0  0  0  0  0  0  0  0  0  0  0
   -6.0937    5.9879   -0.0000 C   0  0  0  0  0  0  0  0  0  0  0  0
   -9.2700    1.8822   -0.0000 N   0  0  0  0  0  0  0  0  0  0  0  0
   -9.2818    4.8703   -0.0000 C   0  0  0  0  0  0  0  0  0  0  0  0
   -7.1054    7.1054   -0.0000 O   0  0  0  0  0  0  0  0  0  0  0  0
   -4.6468    6.3173   -0.0000 N   0  0  0  0  0  0  0  0  0  0  0  0
  -10.5758    2.6351   -0.0000 C   0  0  0  0  0  0  0  0  0  0  0  0
   -9.2465    0.4117   -0.0000 C   0  0  0  0  0  0  0  0  0  0  0  0
   -9.2935    6.3761   -0.0000 O   0  0  0  0  0  0  0  0  0  0  0  0
  -10.5876    4.1292   -0.0000 N   0  0  0  0  0  0  0  0  0  0  0  0
   -3.6586    5.2232   -0.0000 O   0  0  0  0  0  0  0  0  0  0  0  0
   -4.1997    7.7525   -0.0000 C   0  0  0  0  0  0  0  0  0  0  0  0
  -11.8816    1.8940   -0.0000 O   0  0  0  0  0  0  0  0  0  0  0  0
  -10.5288   -0.3529   -0.0000 C   0  0  0  0  0  0  0  0  0  0  0  0
  -11.8934    4.8820   -0.0000 C   0  0  0  0  0  0  0  0  0  0  0  0
   -2.2116    5.5526   -0.0000 C   0  0  0  0  0  0  0  0  0  0  0  0
  -11.8581    0.3764   -0.0000 C   0  0  0  0  0  0  0  0  0  0  0  0
  -10.5052   -1.8352   -0.0000 C   0  0  0  0  0  0  0  0  0  0  0  0
  1  2  1  0  0  0  0
  2  3  1  0  0  0  0
  2  4  2  0  0  0  0
  3  5  2  0  0  0  0
  4  6  1  0  0  0  0
  4  7  1  0  0  0  0
  5  8  1  0  0  0  0
  7  9  1  0  0  0  0
  9 10  1  0  0  0  0
 10 11  1  0  0  0  0
 10 12  2  0  0  0  0
 11 13  1  0  0  0  0
 12 14  1  0  0  0  0
 12 15  1  0  0  0  0
 13 16  1  0  0  0  0
 14 17  1  0  0  0  0
 15 18  2  0  0  0  0
 15 19  1  0  0  0  0
 16 20  1  0  0  0  0
 16 21  1  0  0  0  0
 17 22  2  0  0  0  0
 17 23  1  0  0  0  0
 19 24  1  0  0  0  0
 19 25  1  0  0  0  0
 20 26  2  0  0  0  0
 21 27  1  0  0  0  0
 23 28  1  0  0  0  0
 24 29  1  0  0  0  0
 27 30  1  0  0  0  0
 27 31  1  0  0  0  0
  5  7  1  0  0  0  0
 13 14  2  0  0  0  0
 20 23  1  0  0  0  0
M  END
>  <MolRegNo>
365729

>  <m>
=

>  <Value>
44000

>  <Unit>
nM

>  <Type>
IC50

>  <pValue>
4.36

>  <Ligand Efficiency>
0

>  <Binding Efficiency>
0

>  <Surface Efficiency>
0

>  <Assay Index>
272395

>  <Assay Category>


>  <Assay Organism>


>  <Target ID>
17045

>  <Target Name>
Cytochrome P450 3A4

>  <Target Organism>
Homo sapiens

>  <Target Description>
Target is a single protein chain

>  <Sequence Accession>
P08684

>  <Reference>
J Med Chem 50 (2), 254-263 (2007)

>  <Pubmed ID>
17228867

>  <DOI>
10.1021/jm060995h

$$$$
365728
Actelion Java MolfileCreator 1.0

 35 39  0  0  0  0  0  0  0  0999 V2000
    0.0000   -0.0000   -0.0000 S   0  0  0  0  0  0  0  0  0  0  0  0
    0.8644    1.2315   -0.0000 C   0  0  0  0  0  0  0  0  0  0  0  0
   -1.4446    0.4736   -0.0000 C   0  0  0  0  0  0  0  0  0  0  0  0
    2.3563    1.2433   -0.0000 O   0  0  0  0  0  0  0  0  0  0  0  0
   -0.0355    2.4511   -0.0000 C   0  0  0  0  0  0  0  0  0  0  0  0
   -2.7589   -0.2605   -0.0000 N   0  0  0  0  0  0  0  0  0  0  0  0
   -1.4564    1.9893   -0.0000 C   0  0  0  0  0  0  0  0  0  0  0  0
    3.1023   -0.0474   -0.0000 C   0  0  0  0  0  0  0  0  0  0  0  0
    0.4144    3.8957   -0.0000 C   0  0  0  0  0  0  0  0  0  0  0  0
   -4.0733    0.4973   -0.0000 C   0  0  0  0  0  0  0  0  0  0  0  0
   -2.7708   -1.7525   -0.0000 C   0  0  0  0  0  0  0  0  0  0  0  0
   -2.7708    2.7589   -0.0000 C   0  0  0  0  0  0  0  0  0  0  0  0
    4.5824   -0.0237   -0.0000 C   0  0  0  0  0  0  0  0  0  0  0  0
    2.3445   -1.3380   -0.0000 C   0  0  0  0  0  0  0  0  0  0  0  0
   -0.6039    5.0206   -0.0000 O   0  0  0  0  0  0  0  0  0  0  0  0
    1.8709    4.2272   -0.0000 N   0  0  0  0  0  0  0  0  0  0  0  0
   -5.3876   -0.2487   -0.0000 O   0  0  0  0  0  0  0  0  0  0  0  0
   -4.0851    2.0130   -0.0000 N   0  0  0  0  0  0  0  0  0  0  0  0
   -1.4801   -2.4984   -0.0000 C   0  0  0  0  0  0  0  0  0  0  0  0
   -2.7826    4.2746   -0.0000 O   0  0  0  0  0  0  0  0  0  0  0  0
    5.3284   -1.3025   -0.0000 C   0  0  0  0  0  0  0  0  0  0  0  0
    5.3047    1.2788   -0.0000 C   0  0  0  0  0  0  0  0  0  0  0  0
    3.0905   -2.6287   -0.0000 C   0  0  0  0  0  0  0  0  0  0  0  0
    2.4629    5.6008   -0.0000 C   0  0  0  0  0  0  0  0  0  0  0  0
    2.9721    3.2207   -0.0000 C   0  0  0  0  0  0  0  0  0  0  0  0
   -5.3995    2.7708   -0.0000 C   0  0  0  0  0  0  0  0  0  0  0  0
   -1.4920   -3.9904   -0.0000 C   0  0  0  0  0  0  0  0  0  0  0  0
   -0.1895   -1.7406   -0.0000 C   0  0  0  0  0  0  0  0  0  0  0  0
    4.5824   -2.6050   -0.0000 C   0  0  0  0  0  0  0  0  0  0  0  0
    6.8085   -1.2788   -0.0000 C   0  0  0  0  0  0  0  0  0  0  0  0
    6.7849    1.3025   -0.0000 C   0  0  0  0  0  0  0  0  0  0  0  0
    3.9430    5.4587   -0.0000 C   0  0  0  0  0  0  0  0  0  0  0  0
    4.2627    3.9904   -0.0000 C   0  0  0  0  0  0  0  0  0  0  0  0
    7.5427    0.0355   -0.0000 C   0  0  0  0  0  0  0  0  0  0  0  0
    4.9377    6.5836   -0.0000 O   0  0  0  0  0  0  0  0  0  0  0  0
  1  2  1  0  0  0  0
  1  3  1  0  0  0  0
  2  4  1  0  0  0  0
  2  5  2  0  0  0  0
  3  6  1  0  0  0  0
  3  7  2  0  0  0  0
  4  8  1  0  0  0  0
  5  9  1  0  0  0  0
  6 10  1  0  0  0  0
  6 11  1  0  0  0  0
  7 12  1  0  0  0  0
  8 13  1  0  0  0  0
  8 14  2  0  0  0  0
  9 15  2  0  0  0  0
  9 16  1  0  0  0  0
 10 17  2  0  0  0  0
 10 18  1  0  0  0  0
 11 19  1  0  0  0  0
 12 20  2  0  0  0  0
 13 21  1  0  0  0  0
 13 22  2  0  0  0  0
 14 23  1  0  0  0  0
 16 24  1  0  0  0  0
 16 25  1  0  0  0  0
 18 26  1  0  0  0  0
 19 27  1  0  0  0  0
 19 28  1  0  0  0  0
 21 29  1  0  0  0  0
 21 30  2  0  0  0  0
 22 31  1  0  0  0  0
 24 32  1  0  0  0  0
 25 33  1  0  0  0  0
 30 34  1  0  0  0  0
 32 35  1  1  0  0  0
  5  7  1  0  0  0  0
 12 18  1  0  0  0  0
 23 29  2  0  0  0  0
 31 34  2  0  0  0  0
 32 33  1  0  0  0  0
M  END
>  <MolRegNo>
365728

>  <m>
=

>  <Value>
7200

>  <Unit>
nM

>  <Type>
IC50

>  <pValue>
5.14

>  <Ligand Efficiency>
0

>  <Binding Efficiency>
0

>  <Surface Efficiency>
0

>  <Assay Index>
272395

>  <Assay Category>


>  <Assay Organism>


>  <Target ID>
17045

>  <Target Name>
Cytochrome P450 3A4

>  <Target Organism>
Homo sapiens

>  <Target Description>
Target is a single protein chain

>  <Sequence Accession>
P08684

>  <Reference>
J Med Chem 50 (2), 254-263 (2007)

>  <Pubmed ID>
17228867

>  <DOI>
10.1021/jm060995h

$$$$
365719
Actelion Java MolfileCreator 1.0

 34 38  0  0  0  0  0  0  0  0999 V2000
    0.0000   -0.0000   -0.0000 S   0  0  0  0  0  0  0  0  0  0  0  0
   -1.4453    0.4739   -0.0000 C   0  0  0  0  0  0  0  0  0  0  0  0
    0.8648    1.2321   -0.0000 C   0  0  0  0  0  0  0  0  0  0  0  0
   -2.7485   -0.2606   -0.0000 N   0  0  0  0  0  0  0  0  0  0  0  0
   -1.4572    1.9903   -0.0000 C   0  0  0  0  0  0  0  0  0  0  0  0
   -0.0237    2.4523   -0.0000 C   0  0  0  0  0  0  0  0  0  0  0  0
    2.3575    1.2439   -0.0000 C   0  0  0  0  0  0  0  0  0  0  0  0
   -4.0517    0.4976   -0.0000 C   0  0  0  0  0  0  0  0  0  0  0  0
   -2.7722   -1.7534   -0.0000 C   0  0  0  0  0  0  0  0  0  0  0  0
   -2.7603    2.7603   -0.0000 C   0  0  0  0  0  0  0  0  0  0  0  0
    0.4265    3.8858   -0.0000 C   0  0  0  0  0  0  0  0  0  0  0  0
    3.1039   -0.0355   -0.0000 N   0  0  0  0  0  0  0  0  0  0  0  0
   -5.3667   -0.2369   -0.0000 O   0  0  0  0  0  0  0  0  0  0  0  0
   -4.0635    2.0140   -0.0000 N   0  0  0  0  0  0  0  0  0  0  0  0
   -4.1109   -2.4523   -0.0000 C   0  0  0  0  0  0  0  0  0  0  0  0
   -2.7722    4.2768   -0.0000 O   0  0  0  0  0  0  0  0  0  0  0  0
   -0.5923    5.0113   -0.0000 O   0  0  0  0  0  0  0  0  0  0  0  0
    1.8837    4.2057   -0.0000 N   0  0  0  0  0  0  0  0  0  0  0  0
    2.4760   -1.3979   -0.0000 C   0  0  0  0  0  0  0  0  0  0  0  0
    4.5729   -0.1777   -0.0000 C   0  0  0  0  0  0  0  0  0  0  0  0
   -5.3785    2.7722   -0.0000 C   0  0  0  0  0  0  0  0  0  0  0  0
   -5.4022   -1.6467   -0.0000 C   0  0  0  0  0  0  0  0  0  0  0  0
   -4.1701   -3.9450   -0.0000 C   0  0  0  0  0  0  0  0  0  0  0  0
    3.1276    3.4001   -0.0000 C   0  0  0  0  0  0  0  0  0  0  0  0
    2.6893    5.4733   -0.0000 C   0  0  0  0  0  0  0  0  0  0  0  0
    3.5896   -2.3812   -0.0000 N   0  0  0  0  0  0  0  0  0  0  0  0
    0.9596   -1.4098   -0.0000 N   0  0  0  0  0  0  0  0  0  0  0  0
    4.8810   -1.6349   -0.0000 C   0  0  0  0  0  0  0  0  0  0  0  0
    5.6629    0.8411   -0.0000 C   0  0  0  0  0  0  0  0  0  0  0  0
    3.9332    4.6677   -0.0000 C   0  0  0  0  0  0  0  0  0  0  0  0
    0.2251   -2.7130   -0.0000 C   0  0  0  0  0  0  0  0  0  0  0  0
    6.2907   -2.0732   -0.0000 C   0  0  0  0  0  0  0  0  0  0  0  0
    7.0726    0.4028   -0.0000 C   0  0  0  0  0  0  0  0  0  0  0  0
    7.3925   -1.0544   -0.0000 C   0  0  0  0  0  0  0  0  0  0  0  0
  1  2  1  0  0  0  0
  1  3  1  0  0  0  0
  2  4  1  0  0  0  0
  2  5  2  0  0  0  0
  3  6  2  0  0  0  0
  3  7  1  0  0  0  0
  4  8  1  0  0  0  0
  4  9  1  0  0  0  0
  5 10  1  0  0  0  0
  6 11  1  0  0  0  0
  7 12  1  0  0  0  0
  8 13  2  0  0  0  0
  8 14  1  0  0  0  0
  9 15  1  0  0  0  0
 10 16  2  0  0  0  0
 11 17  2  0  0  0  0
 11 18  1  0  0  0  0
 12 19  1  0  0  0  0
 12 20  1  0  0  0  0
 14 21  1  0  0  0  0
 15 22  1  0  0  0  0
 15 23  1  0  0  0  0
 18 24  1  0  0  0  0
 18 25  1  0  0  0  0
 19 26  2  0  0  0  0
 19 27  1  0  0  0  0
 20 28  2  0  0  0  0
 20 29  1  0  0  0  0
 24 30  1  0  0  0  0
 27 31  1  0  0  0  0
 28 32  1  0  0  0  0
 29 33  2  0  0  0  0
 32 34  2  0  0  0  0
  5  6  1  0  0  0  0
 10 14  1  0  0  0  0
 25 30  1  0  0  0  0
 26 28  1  0  0  0  0
 33 34  1  0  0  0  0
M  END
>  <MolRegNo>
365719

>  <m>
=

>  <Value>
1000

>  <Unit>
nM

>  <Type>
IC50

>  <pValue>
6

>  <Ligand Efficiency>
0

>  <Binding Efficiency>
0

>  <Surface Efficiency>
0

>  <Assay Index>
272395

>  <Assay Category>


>  <Assay Organism>


>  <Target ID>
17045

>  <Target Name>
Cytochrome P450 3A4

>  <Target Organism>
Homo sapiens

>  <Target Description>
Target is a single protein chain

>  <Sequence Accession>
P08684

>  <Reference>
J Med Chem 50 (2), 254-263 (2007)

>  <Pubmed ID>
17228867

>  <DOI>
10.1021/jm060995h

$$$$
368221
Actelion Java MolfileCreator 1.0

 32 35  0  0  0  0  0  0  0  0999 V2000
    0.0000   -0.0000   -0.0000 O   0  0  0  0  0  0  0  0  0  0  0  0
    0.0000   -1.4860   -0.0000 C   0  0  0  0  0  0  0  0  0  0  0  0
    1.2958   -2.2231   -0.0000 O   0  0  0  0  0  0  0  0  0  0  0  0
   -1.3077   -2.2350   -0.0000 N   0  0  0  0  0  0  0  0  0  0  0  0
    1.2958   -3.7092   -0.0000 C   0  0  0  0  0  0  0  0  0  0  0  0
   -1.3077   -3.7210   -0.0000 N   0  0  0  0  0  0  0  0  0  0  0  0
   -2.6273   -1.4742   -0.0000 C   0  0  0  0  0  0  0  0  0  0  0  0
   -2.6154   -4.4700   -0.0000 C   0  0  0  0  0  0  0  0  0  0  0  0
   -2.6392    0.0476   -0.0000 C   0  0  0  0  0  0  0  0  0  0  0  0
   -3.9231   -2.2112   -0.0000 C   0  0  0  0  0  0  0  0  0  0  0  0
   -3.9350   -3.7092   -0.0000 O   0  0  0  0  0  0  0  0  0  0  0  0
   -2.6154   -5.9560   -0.0000 C   0  0  0  0  0  0  0  0  0  0  0  0
   -3.9469    0.8084   -0.0000 C   0  0  0  0  0  0  0  0  0  0  0  0
   -5.2427   -1.4623   -0.0000 C   0  0  0  0  0  0  0  0  0  0  0  0
   -1.3196   -6.6812   -0.0000 C   0  0  0  0  0  0  0  0  0  0  0  0
   -3.9231   -6.6931   -0.0000 C   0  0  0  0  0  0  0  0  0  0  0  0
   -5.2546    0.0594   -0.0000 C   0  0  0  0  0  0  0  0  0  0  0  0
   -0.0357   -5.9085   -0.0000 O   0  0  0  0  0  0  0  0  0  0  0  0
   -1.3196   -8.1792   -0.0000 C   0  0  0  0  0  0  0  0  0  0  0  0
   -3.9350   -8.1910   -0.0000 C   0  0  0  0  0  0  0  0  0  0  0  0
   -5.2309   -5.9323   -0.0000 C   0  0  0  0  0  0  0  0  0  0  0  0
    1.2602   -6.6337   -0.0000 C   0  0  0  0  0  0  0  0  0  0  0  0
   -2.6273   -8.9162   -0.0000 N   0  0  0  0  0  0  0  0  0  0  0  0
   -0.0238   -8.9162   -0.0000 C   0  0  0  0  0  0  0  0  0  0  0  0
   -5.2427   -8.9400   -0.0000 C   0  0  0  0  0  0  0  0  0  0  0  0
   -6.5386   -6.6693   -0.0000 C   0  0  0  0  0  0  0  0  0  0  0  0
   -0.0357  -10.4023   -0.0000 C   0  0  0  0  0  0  0  0  0  0  0  0
    1.2483   -8.1435   -0.0000 C   0  0  0  0  0  0  0  0  0  0  0  0
   -6.5505   -8.1792   -0.0000 C   0  0  0  0  0  0  0  0  0  0  0  0
    1.2483  -11.1394   -0.0000 C   0  0  0  0  0  0  0  0  0  0  0  0
    2.5441   -8.8687   -0.0000 C   0  0  0  0  0  0  0  0  0  0  0  0
    2.5322  -10.3666   -0.0000 C   0  0  0  0  0  0  0  0  0  0  0  0
  1  2  2  0  0  0  0
  2  3  1  0  0  0  0
  2  4  1  0  0  0  0
  3  5  1  0  0  0  0
  4  6  1  0  0  0  0
  4  7  1  0  0  0  0
  6  8  1  0  0  0  0
  7  9  2  0  0  0  0
  7 10  1  0  0  0  0
  8 11  2  0  0  0  0
  8 12  1  0  0  0  0
  9 13  1  0  0  0  0
 10 14  2  0  0  0  0
 12 15  2  0  0  0  0
 12 16  1  0  0  0  0
 13 17  2  0  0  0  0
 15 18  1  0  0  0  0
 15 19  1  0  0  0  0
 16 20  1  0  0  0  0
 16 21  2  0  0  0  0
 18 22  1  0  0  0  0
 19 23  2  0  0  0  0
 19 24  1  0  0  0  0
 20 25  2  0  0  0  0
 21 26  1  0  0  0  0
 24 27  2  0  0  0  0
 24 28  1  0  0  0  0
 25 29  1  0  0  0  0
 27 30  1  0  0  0  0
 28 31  2  0  0  0  0
 30 32  2  0  0  0  0
 14 17  1  0  0  0  0
 20 23  1  0  0  0  0
 26 29  2  0  0  0  0
 31 32  1  0  0  0  0
M  END
>  <MolRegNo>
368221

>  <m>
=

>  <Value>
12000

>  <Unit>
nM

>  <Type>
IC50

>  <pValue>
4.92

>  <Ligand Efficiency>
0

>  <Binding Efficiency>
0

>  <Surface Efficiency>
0

>  <Assay Index>
273359

>  <Assay Category>


>  <Assay Organism>
Homo sapiens

>  <Target ID>
17045

>  <Target Name>
Cytochrome P450 3A4

>  <Target Organism>
Homo sapiens

>  <Target Description>
Target is a single protein chain

>  <Sequence Accession>
P08684

>  <Reference>
Bioorg Med Chem Lett 16 (22), 5748-5751 (2006)

>  <Pubmed ID>
16950620

>  <DOI>
10.1016/j.bmcl.2006.08.086

$$$$
367457
Actelion Java MolfileCreator 1.0

 24 26  0  0  0  0  0  0  0  0999 V2000
    0.0000   -0.0000   -0.0000 O   0  0  0  0  0  0  0  0  0  0  0  0
   -0.0119    1.5083   -0.0000 C   0  0  0  0  0  0  0  0  0  0  0  0
   -1.3182    2.2683   -0.0000 O   0  0  0  0  0  0  0  0  0  0  0  0
    1.2707    2.2683   -0.0000 N   0  0  0  0  0  0  0  0  0  0  0  0
   -2.6246    1.5320   -0.0000 C   0  0  0  0  0  0  0  0  0  0  0  0
    2.5533    1.5201   -0.0000 C   0  0  0  0  0  0  0  0  0  0  0  0
    1.2470    3.7766   -0.0000 C   0  0  0  0  0  0  0  0  0  0  0  0
   -3.9310    2.2921   -0.0000 C   0  0  0  0  0  0  0  0  0  0  0  0
    3.8359    2.2802   -0.0000 C   0  0  0  0  0  0  0  0  0  0  0  0
    2.5415    4.5366   -0.0000 C   0  0  0  0  0  0  0  0  0  0  0  0
   -5.2492    1.5558   -0.0000 C   0  0  0  0  0  0  0  0  0  0  0  0
   -3.9428    3.8122   -0.0000 C   0  0  0  0  0  0  0  0  0  0  0  0
    3.8241    3.7884   -0.0000 C   0  0  0  0  0  0  0  0  0  0  0  0
   -6.5555    2.3158   -0.0000 C   0  0  0  0  0  0  0  0  0  0  0  0
   -5.2492    4.5723   -0.0000 C   0  0  0  0  0  0  0  0  0  0  0  0
    5.1067    4.5485   -0.0000 C   0  0  0  0  0  0  0  0  0  0  0  0
   -6.5674    3.8359   -0.0000 C   0  0  0  0  0  0  0  0  0  0  0  0
    6.3893    3.8122   -0.0000 N   0  0  0  0  0  0  0  0  0  0  0  0
    7.6719    4.5723   -0.0000 C   0  0  0  0  0  0  0  0  0  0  0  0
    8.9545    3.8359   -0.0000 N   0  0  0  0  0  0  0  0  0  0  0  0
    7.6600    6.0805   -0.0000 C   0  0  0  0  0  0  0  0  0  0  0  0
   10.2371    4.5960   -0.0000 C   0  0  0  0  0  0  0  0  0  0  0  0
    8.9426    6.8406   -0.0000 C   0  0  0  0  0  0  0  0  0  0  0  0
   10.2252    6.1043   -0.0000 N   0  0  0  0  0  0  0  0  0  0  0  0
  1  2  2  0  0  0  0
  2  3  1  0  0  0  0
  2  4  1  0  0  0  0
  3  5  1  0  0  0  0
  4  6  1  0  0  0  0
  4  7  1  0  0  0  0
  5  8  1  0  0  0  0
  6  9  1  0  0  0  0
  7 10  1  0  0  0  0
  8 11  2  0  0  0  0
  8 12  1  0  0  0  0
  9 13  1  0  0  0  0
 11 14  1  0  0  0  0
 12 15  2  0  0  0  0
 13 16  1  0  0  0  0
 14 17  2  0  0  0  0
 16 18  1  0  0  0  0
 18 19  1  0  0  0  0
 19 20  2  0  0  0  0
 19 21  1  0  0  0  0
 20 22  1  0  0  0  0
 21 23  2  0  0  0  0
 22 24  2  0  0  0  0
 10 13  1  0  0  0  0
 15 17  1  0  0  0  0
 23 24  1  0  0  0  0
M  END
>  <MolRegNo>
367457

>  <m>
=

>  <Value>
5100

>  <Unit>
nM

>  <Type>
IC50

>  <pValue>
5.29

>  <Ligand Efficiency>
0

>  <Binding Efficiency>
0

>  <Surface Efficiency>
0

>  <Assay Index>
274144

>  <Assay Category>


>  <Assay Organism>
Homo sapiens

>  <Target ID>
17045

>  <Target Name>
Cytochrome P450 3A4

>  <Target Organism>
Homo sapiens

>  <Target Description>
Target is a single protein chain

>  <Sequence Accession>
P08684

>  <Reference>
J Med Chem 50 (4), 807-819 (2007)

>  <Pubmed ID>
17249648

>  <DOI>
10.1021/jm060983w

$$$$
367443
Actelion Java MolfileCreator 1.0

 24 26  0  0  0  0  0  0  0  0999 V2000
    0.0000   -0.0000   -0.0000 O   0  0  0  0  0  0  0  0  0  0  0  0
   -0.0119    1.5079   -0.0000 C   0  0  0  0  0  0  0  0  0  0  0  0
   -1.3179    2.2677   -0.0000 O   0  0  0  0  0  0  0  0  0  0  0  0
    1.2704    2.2677   -0.0000 N   0  0  0  0  0  0  0  0  0  0  0  0
   -2.6239    1.5316   -0.0000 C   0  0  0  0  0  0  0  0  0  0  0  0
    2.5527    1.5197   -0.0000 C   0  0  0  0  0  0  0  0  0  0  0  0
    1.2467    3.7756   -0.0000 C   0  0  0  0  0  0  0  0  0  0  0  0
   -3.9299    2.2915   -0.0000 C   0  0  0  0  0  0  0  0  0  0  0  0
    3.8349    2.2796   -0.0000 C   0  0  0  0  0  0  0  0  0  0  0  0
    2.5408    4.5354   -0.0000 C   0  0  0  0  0  0  0  0  0  0  0  0
   -5.2478    1.5553   -0.0000 C   0  0  0  0  0  0  0  0  0  0  0  0
   -3.9418    3.8112   -0.0000 C   0  0  0  0  0  0  0  0  0  0  0  0
    3.8231    3.7874   -0.0000 C   0  0  0  0  0  0  0  0  0  0  0  0
   -6.5538    2.3152   -0.0000 C   0  0  0  0  0  0  0  0  0  0  0  0
   -5.2478    4.5711   -0.0000 C   0  0  0  0  0  0  0  0  0  0  0  0
    5.1053    4.5473   -0.0000 C   0  0  0  0  0  0  0  0  0  0  0  0
   -6.5657    3.8349   -0.0000 C   0  0  0  0  0  0  0  0  0  0  0  0
    6.3876    3.8112   -0.0000 N   0  0  0  0  0  0  0  0  0  0  0  0
    7.6699    4.5711   -0.0000 C   0  0  0  0  0  0  0  0  0  0  0  0
    7.6580    6.0789   -0.0000 N   0  0  0  0  0  0  0  0  0  0  0  0
    8.9521    3.8349   -0.0000 C   0  0  0  0  0  0  0  0  0  0  0  0
    8.9403    6.8388   -0.0000 C   0  0  0  0  0  0  0  0  0  0  0  0
   10.2344    4.5948   -0.0000 N   0  0  0  0  0  0  0  0  0  0  0  0
   10.2344    6.1027   -0.0000 C   0  0  0  0  0  0  0  0  0  0  0  0
  1  2  2  0  0  0  0
  2  3  1  0  0  0  0
  2  4  1  0  0  0  0
  3  5  1  0  0  0  0
  4  6  1  0  0  0  0
  4  7  1  0  0  0  0
  5  8  1  0  0  0  0
  6  9  1  0  0  0  0
  7 10  1  0  0  0  0
  8 11  2  0  0  0  0
  8 12  1  0  0  0  0
  9 13  1  0  0  0  0
 11 14  1  0  0  0  0
 12 15  2  0  0  0  0
 13 16  1  0  0  0  0
 14 17  2  0  0  0  0
 16 18  1  0  0  0  0
 18 19  1  0  0  0  0
 19 20  2  0  0  0  0
 19 21  1  0  0  0  0
 20 22  1  0  0  0  0
 21 23  2  0  0  0  0
 22 24  2  0  0  0  0
 10 13  1  0  0  0  0
 15 17  1  0  0  0  0
 23 24  1  0  0  0  0
M  END
>  <MolRegNo>
367443

>  <m>
=

>  <Value>
22000

>  <Unit>
nM

>  <Type>
IC50

>  <pValue>
4.66

>  <Ligand Efficiency>
0

>  <Binding Efficiency>
0

>  <Surface Efficiency>
0

>  <Assay Index>
274144

>  <Assay Category>


>  <Assay Organism>
Homo sapiens

>  <Target ID>
17045

>  <Target Name>
Cytochrome P450 3A4

>  <Target Organism>
Homo sapiens

>  <Target Description>
Target is a single protein chain

>  <Sequence Accession>
P08684

>  <Reference>
J Med Chem 50 (4), 807-819 (2007)

>  <Pubmed ID>
17249648

>  <DOI>
10.1021/jm060983w

$$$$
367434
Actelion Java MolfileCreator 1.0

 24 26  0  0  0  0  0  0  0  0999 V2000
    0.0000   -0.0000   -0.0000 O   0  0  0  0  0  0  0  0  0  0  0  0
   -0.0119    1.5083   -0.0000 C   0  0  0  0  0  0  0  0  0  0  0  0
   -1.3182    2.2683   -0.0000 O   0  0  0  0  0  0  0  0  0  0  0  0
    1.2707    2.2683   -0.0000 N   0  0  0  0  0  0  0  0  0  0  0  0
   -2.6246    1.5320   -0.0000 C   0  0  0  0  0  0  0  0  0  0  0  0
    2.5533    1.5201   -0.0000 C   0  0  0  0  0  0  0  0  0  0  0  0
    1.2470    3.7766   -0.0000 C   0  0  0  0  0  0  0  0  0  0  0  0
   -3.9310    2.2921   -0.0000 C   0  0  0  0  0  0  0  0  0  0  0  0
    3.8359    2.2802   -0.0000 C   0  0  0  0  0  0  0  0  0  0  0  0
    2.5415    4.5366   -0.0000 C   0  0  0  0  0  0  0  0  0  0  0  0
   -5.2492    1.5558   -0.0000 C   0  0  0  0  0  0  0  0  0  0  0  0
   -3.9428    3.8122   -0.0000 C   0  0  0  0  0  0  0  0  0  0  0  0
    3.8241    3.7884   -0.0000 C   0  0  0  0  0  0  0  0  0  0  0  0
   -6.5555    2.3158   -0.0000 C   0  0  0  0  0  0  0  0  0  0  0  0
   -5.2492    4.5723   -0.0000 C   0  0  0  0  0  0  0  0  0  0  0  0
    5.1067    4.5485   -0.0000 C   0  0  0  0  0  0  0  0  0  0  0  0
   -6.5674    3.8359   -0.0000 C   0  0  0  0  0  0  0  0  0  0  0  0
    6.3893    3.8122   -0.0000 N   0  0  0  0  0  0  0  0  0  0  0  0
    7.6719    4.5723   -0.0000 C   0  0  0  0  0  0  0  0  0  0  0  0
    8.9545    3.8359   -0.0000 C   0  0  0  0  0  0  0  0  0  0  0  0
    7.6600    6.0805   -0.0000 C   0  0  0  0  0  0  0  0  0  0  0  0
   10.2371    4.5960   -0.0000 N   0  0  0  0  0  0  0  0  0  0  0  0
    8.9426    6.8406   -0.0000 C   0  0  0  0  0  0  0  0  0  0  0  0
   10.2252    6.1043   -0.0000 C   0  0  0  0  0  0  0  0  0  0  0  0
  1  2  2  0  0  0  0
  2  3  1  0  0  0  0
  2  4  1  0  0  0  0
  3  5  1  0  0  0  0
  4  6  1  0  0  0  0
  4  7  1  0  0  0  0
  5  8  1  0  0  0  0
  6  9  1  0  0  0  0
  7 10  1  0  0  0  0
  8 11  2  0  0  0  0
  8 12  1  0  0  0  0
  9 13  1  0  0  0  0
 11 14  1  0  0  0  0
 12 15  2  0  0  0  0
 13 16  1  0  0  0  0
 14 17  2  0  0  0  0
 16 18  1  0  0  0  0
 18 19  1  0  0  0  0
 19 20  2  0  0  0  0
 19 21  1  0  0  0  0
 20 22  1  0  0  0  0
 21 23  2  0  0  0  0
 22 24  2  0  0  0  0
 10 13  1  0  0  0  0
 15 17  1  0  0  0  0
 23 24  1  0  0  0  0
M  END
>  <MolRegNo>
367434

>  <m>
=

>  <Value>
9100

>  <Unit>
nM

>  <Type>
IC50

>  <pValue>
5.04

>  <Ligand Efficiency>
0

>  <Binding Efficiency>
0

>  <Surface Efficiency>
0

>  <Assay Index>
274144

>  <Assay Category>


>  <Assay Organism>
Homo sapiens

>  <Target ID>
17045

>  <Target Name>
Cytochrome P450 3A4

>  <Target Organism>
Homo sapiens

>  <Target Description>
Target is a single protein chain

>  <Sequence Accession>
P08684

>  <Reference>
J Med Chem 50 (4), 807-819 (2007)

>  <Pubmed ID>
17249648

>  <DOI>
10.1021/jm060983w

$$$$
370529
Actelion Java MolfileCreator 1.0

 20 22  0  0  1  0  0  0  0  0999 V2000
    0.0000   -0.0000   -0.0000 F   0  0  0  0  0  0  0  0  0  0  0  0
    0.0000    1.4915   -0.0000 C   0  0  0  0  0  0  0  0  0  0  0  0
    1.4796    1.4915   -0.0000 F   0  0  0  0  0  0  0  0  0  0  0  0
   -1.5033    1.5033   -0.0000 F   0  0  0  0  0  0  0  0  0  0  0  0
   -0.0118    2.9948   -0.0000 C   0  0  0  0  0  0  0  0  0  0  0  0
    1.2784    3.7524   -0.0000 C   0  0  0  0  0  0  0  0  0  0  0  0
   -1.3139    3.7524   -0.0000 C   0  0  0  0  0  0  0  0  0  0  0  0
    2.6989    3.3144   -0.0000 C   0  0  0  0  0  0  0  0  0  0  0  0
    1.2547    5.2675   -0.0000 C   0  0  0  0  0  0  0  0  0  0  0  0
   -1.3258    5.2557   -0.0000 C   0  0  0  0  0  0  0  0  0  0  0  0
    3.1487    1.9058   -0.0000 O   0  0  0  0  0  0  0  0  0  0  0  0
    3.5748    4.5455   -0.0000 N   0  0  0  0  0  0  0  0  0  0  0  0
   -0.0473    6.0133   -0.0000 C   0  0  0  0  0  0  0  0  0  0  0  0
    2.6634    5.7528   -0.0000 C   0  0  0  0  0  0  0  0  0  0  0  0
   -2.6278    6.0133   -0.0000 C   0  0  0  0  0  0  0  0  0  0  0  0
    5.0545    4.7230   -0.0000 C   0  0  0  0  0  0  0  0  0  0  0  0
    3.2434    7.1496   -0.0000 C   0  0  0  0  0  0  0  0  0  0  0  0
   -3.9299    5.2794   -0.0000 C   0  0  0  0  0  0  0  0  0  0  0  0
    5.6463    6.1198   -0.0000 C   0  0  0  0  0  0  0  0  0  0  0  0
    4.7348    7.3272   -0.0000 N   0  0  0  0  0  0  0  0  0  0  0  0
  1  2  1  0  0  0  0
  2  3  1  0  0  0  0
  2  4  1  0  0  0  0
  2  5  1  0  0  0  0
  5  6  2  0  0  0  0
  5  7  1  0  0  0  0
  6  8  1  0  0  0  0
  6  9  1  0  0  0  0
  7 10  2  0  0  0  0
  8 11  2  0  0  0  0
  8 12  1  0  0  0  0
  9 13  2  0  0  0  0
  9 14  1  0  0  0  0
 10 15  1  0  0  0  0
 12 16  1  0  0  0  0
 14 17  1  0  0  0  0
 15 18  1  0  0  0  0
 16 19  1  0  0  0  0
 17 20  1  0  0  0  0
 10 13  1  0  0  0  0
 14 12  1  6  0  0  0
 19 20  1  0  0  0  0
M  END
>  <MolRegNo>
370529

>  <m>
=

>  <Value>
8700

>  <Unit>
nM

>  <Type>
IC50

>  <pValue>
5.06

>  <Ligand Efficiency>
0

>  <Binding Efficiency>
0

>  <Surface Efficiency>
0

>  <Assay Index>
277359

>  <Assay Category>


>  <Assay Organism>
Homo sapiens

>  <Target ID>
17045

>  <Target Name>
Cytochrome P450 3A4

>  <Target Organism>
Homo sapiens

>  <Target Description>
Target is a single protein chain

>  <Sequence Accession>
P08684

>  <Reference>
J Med Chem 50 (6), 1365-1379 (2007)

>  <Pubmed ID>
17315987

>  <DOI>
10.1021/jm0612968

$$$$
371460
Actelion Java MolfileCreator 1.0

 33 37  0  0  0  0  0  0  0  0999 V2000
    0.0000   -0.0000   -0.0000 F   0  0  0  0  0  0  0  0  0  0  0  0
   -0.2965    1.4823   -0.0000 C   0  0  0  0  0  0  0  0  0  0  0  0
   -1.7195    1.9804   -0.0000 C   0  0  0  0  0  0  0  0  0  0  0  0
    0.8182    2.4784   -0.0000 C   0  0  0  0  0  0  0  0  0  0  0  0
   -2.0159    3.4627   -0.0000 C   0  0  0  0  0  0  0  0  0  0  0  0
    0.5099    3.9489   -0.0000 C   0  0  0  0  0  0  0  0  0  0  0  0
   -0.9012    4.4469   -0.0000 C   0  0  0  0  0  0  0  0  0  0  0  0
   -1.1977    5.9292   -0.0000 C   0  0  0  0  0  0  0  0  0  0  0  0
   -1.6720    7.3641   -0.0000 N   0  0  0  0  0  0  0  0  0  0  0  0
   -2.7156    5.9529   -0.0000 C   0  0  0  0  0  0  0  0  0  0  0  0
    0.2846    5.9411   -0.0000 C   0  0  0  0  0  0  0  0  0  0  0  0
   -0.4743    8.2653   -0.0000 C   0  0  0  0  0  0  0  0  0  0  0  0
   -3.4745    7.2811   -0.0000 C   0  0  0  0  0  0  0  0  0  0  0  0
   -3.4745    4.6722   -0.0000 C   0  0  0  0  0  0  0  0  0  0  0  0
    0.7352    7.3759   -0.0000 N   0  0  0  0  0  0  0  0  0  0  0  0
   -0.4862    9.7713   -0.0000 O   0  0  0  0  0  0  0  0  0  0  0  0
   -4.9924    7.3048   -0.0000 C   0  0  0  0  0  0  0  0  0  0  0  0
   -4.9924    4.6841   -0.0000 C   0  0  0  0  0  0  0  0  0  0  0  0
    2.1582    7.8503   -0.0000 C   0  0  0  0  0  0  0  0  0  0  0  0
   -5.7632    6.0122   -0.0000 C   0  0  0  0  0  0  0  0  0  0  0  0
    3.2611    6.8542   -0.0000 C   0  0  0  0  0  0  0  0  0  0  0  0
    2.4547    9.3207   -0.0000 C   0  0  0  0  0  0  0  0  0  0  0  0
   -7.2692    6.0241   -0.0000 F   0  0  0  0  0  0  0  0  0  0  0  0
    4.6722    7.3166   -0.0000 C   0  0  0  0  0  0  0  0  0  0  0  0
    3.8777    9.7950   -0.0000 C   0  0  0  0  0  0  0  0  0  0  0  0
    4.9805    8.7871   -0.0000 N   0  0  0  0  0  0  0  0  0  0  0  0
    6.3917    9.2496   -0.0000 C   0  0  0  0  0  0  0  0  0  0  0  0
    7.4827    8.2535   -0.0000 C   0  0  0  0  0  0  0  0  0  0  0  0
    7.1388    6.8067   -0.0000 C   0  0  0  0  0  0  0  0  0  0  0  0
    8.8819    8.7278   -0.0000 C   0  0  0  0  0  0  0  0  0  0  0  0
    8.2297    5.8106   -0.0000 C   0  0  0  0  0  0  0  0  0  0  0  0
    9.9848    7.7435   -0.0000 C   0  0  0  0  0  0  0  0  0  0  0  0
    9.6527    6.2731   -0.0000 C   0  0  0  0  0  0  0  0  0  0  0  0
  1  2  1  0  0  0  0
  2  3  2  0  0  0  0
  2  4  1  0  0  0  0
  3  5  1  0  0  0  0
  4  6  2  0  0  0  0
  5  7  2  0  0  0  0
  7  8  1  0  0  0  0
  8  9  1  0  0  0  0
  8 10  1  0  0  0  0
  8 11  1  0  0  0  0
  9 12  1  0  0  0  0
 10 13  2  0  0  0  0
 10 14  1  0  0  0  0
 11 15  1  0  0  0  0
 12 16  2  0  0  0  0
 13 17  1  0  0  0  0
 14 18  2  0  0  0  0
 15 19  1  0  0  0  0
 17 20  2  0  0  0  0
 19 21  1  0  0  0  0
 19 22  1  0  0  0  0
 20 23  1  0  0  0  0
 21 24  1  0  0  0  0
 22 25  1  0  0  0  0
 24 26  1  0  0  0  0
 26 27  1  0  0  0  0
 27 28  1  0  0  0  0
 28 29  2  0  0  0  0
 28 30  1  0  0  0  0
 29 31  1  0  0  0  0
 30 32  2  0  0  0  0
 31 33  2  0  0  0  0
  6  7  1  0  0  0  0
 12 15  1  0  0  0  0
 18 20  1  0  0  0  0
 25 26  1  0  0  0  0
 32 33  1  0  0  0  0
M  END
>  <MolRegNo>
371460

>  <m>
=

>  <Value>
91900

>  <Unit>
nM

>  <Type>
IC50

>  <pValue>
4.04

>  <Ligand Efficiency>
0

>  <Binding Efficiency>
0

>  <Surface Efficiency>
0

>  <Assay Index>
278052

>  <Assay Category>


>  <Assay Organism>
Homo sapiens

>  <Target ID>
17045

>  <Target Name>
Cytochrome P450 3A4

>  <Target Organism>
Homo sapiens

>  <Target Description>
Target is a single protein chain

>  <Sequence Accession>
P08684

>  <Reference>
J Med Chem 50 (7), 1571-1583 (2007)

>  <Pubmed ID>
17352462

>  <DOI>
10.1021/jm061159a

$$$$
377584
Actelion Java MolfileCreator 1.0

 28 32  0  0  0  0  0  0  0  0999 V2000
    0.0000   -0.0000   -0.0000 Cl  0  0  0  0  0  0  0  0  0  0  0  0
   -1.4876    0.2716   -0.0000 C   0  0  0  0  0  0  0  0  0  0  0  0
   -2.4676   -0.8619   -0.0000 C   0  0  0  0  0  0  0  0  0  0  0  0
   -2.0071    1.6883   -0.0000 C   0  0  0  0  0  0  0  0  0  0  0  0
   -3.9552   -0.5903   -0.0000 C   0  0  0  0  0  0  0  0  0  0  0  0
   -3.4948    1.9599   -0.0000 C   0  0  0  0  0  0  0  0  0  0  0  0
   -4.4747    0.8265   -0.0000 C   0  0  0  0  0  0  0  0  0  0  0  0
   -5.9623    1.0980   -0.0000 C   0  0  0  0  0  0  0  0  0  0  0  0
   -5.9741   -0.3896   -0.0000 C   0  0  0  0  0  0  0  0  0  0  0  0
   -7.4500    0.8501   -0.0000 C   0  0  0  0  0  0  0  0  0  0  0  0
   -5.4665    2.5148   -0.0000 C   0  0  0  0  0  0  0  0  0  0  0  0
   -4.6872   -1.1334   -0.0000 C   0  0  0  0  0  0  0  0  0  0  0  0
   -7.2847   -1.1334   -0.0000 C   0  0  0  0  0  0  0  0  0  0  0  0
   -8.4299    2.0071   -0.0000 C   0  0  0  0  0  0  0  0  0  0  0  0
   -6.4464    3.6719   -0.0000 C   0  0  0  0  0  0  0  0  0  0  0  0
   -4.6990   -2.6211   -0.0000 C   0  0  0  0  0  0  0  0  0  0  0  0
   -7.2965   -2.6211   -0.0000 C   0  0  0  0  0  0  0  0  0  0  0  0
   -7.9340    3.4239   -0.0000 N   0  0  0  0  0  0  0  0  0  0  0  0
   -6.0096   -3.3531   -0.0000 C   0  0  0  0  0  0  0  0  0  0  0  0
   -6.0214   -4.8407   -0.0000 C   0  0  0  0  0  0  0  0  0  0  0  0
   -4.7345   -5.5727   -0.0000 N   0  0  0  0  0  0  0  0  0  0  0  0
   -7.3319   -5.5727   -0.0000 C   0  0  0  0  0  0  0  0  0  0  0  0
   -4.7463   -7.0604   -0.0000 C   0  0  0  0  0  0  0  0  0  0  0  0
   -8.7723   -5.1005   -0.0000 N   0  0  0  0  0  0  0  0  0  0  0  0
   -7.3437   -7.0604   -0.0000 C   0  0  0  0  0  0  0  0  0  0  0  0
   -6.0568   -7.7924   -0.0000 N   0  0  0  0  0  0  0  0  0  0  0  0
   -9.6696   -6.3047   -0.0000 C   0  0  0  0  0  0  0  0  0  0  0  0
   -8.7841   -7.5090   -0.0000 N   0  0  0  0  0  0  0  0  0  0  0  0
  1  2  1  0  0  0  0
  2  3  2  0  0  0  0
  2  4  1  0  0  0  0
  3  5  1  0  0  0  0
  4  6  2  0  0  0  0
  5  7  2  0  0  0  0
  7  8  1  0  0  0  0
  8  9  1  0  0  0  0
  8 10  1  0  0  0  0
  8 11  1  0  0  0  0
  9 12  2  0  0  0  0
  9 13  1  0  0  0  0
 10 14  1  0  0  0  0
 11 15  1  0  0  0  0
 12 16  1  0  0  0  0
 13 17  2  0  0  0  0
 14 18  1  0  0  0  0
 16 19  2  0  0  0  0
 19 20  1  0  0  0  0
 20 21  2  0  0  0  0
 20 22  1  0  0  0  0
 21 23  1  0  0  0  0
 22 24  1  0  0  0  0
 22 25  2  0  0  0  0
 23 26  2  0  0  0  0
 24 27  2  0  0  0  0
 25 28  1  0  0  0  0
  6  7  1  0  0  0  0
 15 18  1  0  0  0  0
 17 19  1  0  0  0  0
 25 26  1  0  0  0  0
 27 28  1  0  0  0  0
M  END
>  <MolRegNo>
377584

>  <m>
=

>  <Value>
10000

>  <Unit>
nM

>  <Type>
IC50

>  <pValue>
5

>  <Ligand Efficiency>
0

>  <Binding Efficiency>
0

>  <Surface Efficiency>
0

>  <Assay Index>
283826

>  <Assay Category>


>  <Assay Organism>


>  <Target ID>
17045

>  <Target Name>
Cytochrome P450 3A4

>  <Target Organism>
Homo sapiens

>  <Target Description>
Target is a single protein chain

>  <Sequence Accession>
P08684

>  <Reference>
J Med Chem 50 (10), 2289-2292 (2007)

>  <Pubmed ID>
17451235

>  <DOI>
10.1021/jm0700924

$$$$
377789
Actelion Java MolfileCreator 1.0

 27 30  0  0  0  0  0  0  0  0999 V2000
    0.0000   -0.0000   -0.0000 O   0  0  0  0  0  0  0  0  0  0  0  0
   -0.0118   -1.4890   -0.0000 C   0  0  0  0  0  0  0  0  0  0  0  0
   -1.3235   -2.2335   -0.0000 N   0  0  0  0  0  0  0  0  0  0  0  0
    1.2763   -2.2335   -0.0000 C   0  0  0  0  0  0  0  0  0  0  0  0
   -1.3354   -3.7225   -0.0000 C   0  0  0  0  0  0  0  0  0  0  0  0
   -2.6353   -1.4772   -0.0000 C   0  0  0  0  0  0  0  0  0  0  0  0
    1.2645   -3.7225   -0.0000 C   0  0  0  0  0  0  0  0  0  0  0  0
    2.5644   -1.4772   -0.0000 C   0  0  0  0  0  0  0  0  0  0  0  0
   -0.0473   -4.4551   -0.0000 N   0  0  0  0  0  0  0  0  0  0  0  0
   -2.6471   -4.4551   -0.0000 N   0  0  0  0  0  0  0  0  0  0  0  0
   -2.6471    0.0355   -0.0000 C   0  0  0  0  0  0  0  0  0  0  0  0
    2.5525   -4.4551   -0.0000 C   0  0  0  0  0  0  0  0  0  0  0  0
    3.8524   -2.2217   -0.0000 C   0  0  0  0  0  0  0  0  0  0  0  0
   -3.9588   -3.6988   -0.0000 C   0  0  0  0  0  0  0  0  0  0  0  0
   -2.6589   -5.9441   -0.0000 C   0  0  0  0  0  0  0  0  0  0  0  0
   -3.9588    0.7918   -0.0000 C   0  0  0  0  0  0  0  0  0  0  0  0
   -1.3590    0.7918   -0.0000 C   0  0  0  0  0  0  0  0  0  0  0  0
    3.8406   -3.6988   -0.0000 C   0  0  0  0  0  0  0  0  0  0  0  0
   -5.2705   -4.4315   -0.0000 C   0  0  0  0  0  0  0  0  0  0  0  0
   -3.9706   -6.6886   -0.0000 C   0  0  0  0  0  0  0  0  0  0  0  0
   -5.2705    0.0591   -0.0000 C   0  0  0  0  0  0  0  0  0  0  0  0
   -3.9706    2.3044   -0.0000 C   0  0  0  0  0  0  0  0  0  0  0  0
   -1.3708    2.3044   -0.0000 C   0  0  0  0  0  0  0  0  0  0  0  0
   -6.5823   -3.6752   -0.0000 N   0  0  0  0  0  0  0  0  0  0  0  0
   -5.2823   -5.9205   -0.0000 C   0  0  0  0  0  0  0  0  0  0  0  0
   -6.5823   -0.6854   -0.0000 N   0  0  0  0  0  0  0  0  0  0  0  0
   -2.6825    3.0607   -0.0000 C   0  0  0  0  0  0  0  0  0  0  0  0
  1  2  2  0  0  0  0
  2  3  1  0  0  0  0
  2  4  1  0  0  0  0
  3  5  1  0  0  0  0
  3  6  1  0  0  0  0
  4  7  2  0  0  0  0
  4  8  1  0  0  0  0
  5  9  2  0  0  0  0
  5 10  1  0  0  0  0
  6 11  1  0  0  0  0
  7 12  1  0  0  0  0
  8 13  2  0  0  0  0
 10 14  1  0  0  0  0
 10 15  1  0  0  0  0
 11 16  2  0  0  0  0
 11 17  1  0  0  0  0
 12 18  2  0  0  0  0
 14 19  1  0  0  0  0
 15 20  1  0  0  0  0
 16 21  1  0  0  0  0
 16 22  1  0  0  0  0
 17 23  2  0  0  0  0
 19 24  1  6  0  0  0
 19 25  1  0  0  0  0
 21 26  3  0  0  0  0
 22 27  2  0  0  0  0
  7  9  1  0  0  0  0
 13 18  1  0  0  0  0
 20 25  1  0  0  0  0
 23 27  1  0  0  0  0
M  END
>  <MolRegNo>
377789

>  <m>
=

>  <Value>
2000

>  <Unit>
nM

>  <Type>
IC50

>  <pValue>
5.7

>  <Ligand Efficiency>
0

>  <Binding Efficiency>
0

>  <Surface Efficiency>
0

>  <Assay Index>
283578

>  <Assay Category>


>  <Assay Organism>
Homo sapiens

>  <Target ID>
17045

>  <Target Name>
Cytochrome P450 3A4

>  <Target Organism>
Homo sapiens

>  <Target Description>
Target is a single protein chain

>  <Sequence Accession>
P08684

>  <Reference>
J Med Chem 50 (10), 2297-2300 (2007)

>  <Pubmed ID>
17441705

>  <DOI>
10.1021/jm070104l

$$$$
377846
Actelion Java MolfileCreator 1.0

 34 38  0  0  1  0  0  0  0  0999 V2000
    0.0000   -0.0000   -0.0000 F   0  0  0  0  0  0  0  0  0  0  0  0
    1.2953   -0.7368   -0.0000 C   0  0  0  0  0  0  0  0  0  0  0  0
    1.2834   -2.2341   -0.0000 C   0  0  0  0  0  0  0  0  0  0  0  0
    2.5787    0.0238   -0.0000 C   0  0  0  0  0  0  0  0  0  0  0  0
   -0.0356   -2.9708   -0.0000 N   0  0  0  0  0  0  0  0  0  0  0  0
    2.5787   -2.9708   -0.0000 C   0  0  0  0  0  0  0  0  0  0  0  0
    3.8740   -0.7130   -0.0000 C   0  0  0  0  0  0  0  0  0  0  0  0
   -1.3428   -2.2103   -0.0000 C   0  0  0  0  0  0  0  0  0  0  0  0
   -0.0475   -4.4681   -0.0000 C   0  0  0  0  0  0  0  0  0  0  0  0
    3.8740   -2.1984   -0.0000 C   0  0  0  0  0  0  0  0  0  0  0  0
    5.1574    0.0594   -0.0000 C   0  0  0  0  0  0  0  0  0  0  0  0
   -2.6500   -2.9471   -0.0000 C   0  0  0  0  0  0  0  0  0  0  0  0
   -1.3666   -5.2049   -0.0000 C   0  0  0  0  0  0  0  0  0  0  0  0
    5.1692   -2.9352   -0.0000 N   0  0  0  0  0  0  0  0  0  0  0  0
    5.1336    1.5805   -0.0000 O   0  0  0  0  0  0  0  0  0  0  0  0
    6.4526   -0.6773   -0.0000 N   0  0  0  0  0  0  0  0  0  0  0  0
   -2.6737   -4.4444   -0.0000 O   0  0  0  0  0  0  0  0  0  0  0  0
    6.4645   -2.1628   -0.0000 C   0  0  0  0  0  0  0  0  0  0  0  0
    7.7360    0.0951   -0.0000 C   0  0  0  0  0  0  0  0  0  0  0  0
    7.7598   -2.8995   -0.0000 N   0  0  0  0  0  0  0  0  0  0  0  0
    7.7123    1.6161   -0.0000 C   0  0  0  0  0  0  0  0  0  0  0  0
    9.0432   -2.1152   -0.0000 C   0  0  0  0  0  0  0  0  0  0  0  0
    7.7479   -4.3849   -0.0000 C   0  0  0  0  0  0  0  0  0  0  0  0
    8.9957    2.3767   -0.0000 C   0  0  0  0  0  0  0  0  0  0  0  0
    6.3932    2.3648   -0.0000 C   0  0  0  0  0  0  0  0  0  0  0  0
   10.3385   -2.8639   -0.0000 C   0  0  0  0  0  0  0  0  0  0  0  0
    9.0313   -5.1217   -0.0000 C   0  0  0  0  0  0  0  0  0  0  0  0
   10.2910    1.6399   -0.0000 C   0  0  0  0  0  0  0  0  0  0  0  0
    8.9719    3.8977   -0.0000 C   0  0  0  0  0  0  0  0  0  0  0  0
    6.3695    3.8740   -0.0000 C   0  0  0  0  0  0  0  0  0  0  0  0
   11.6338   -2.1033   -0.0000 N   0  0  0  0  0  0  0  0  0  0  0  0
   10.3266   -4.3612   -0.0000 C   0  0  0  0  0  0  0  0  0  0  0  0
   11.5744    0.9031   -0.0000 N   0  0  0  0  0  0  0  0  0  0  0  0
    7.6529    4.6583   -0.0000 C   0  0  0  0  0  0  0  0  0  0  0  0
  1  2  1  0  0  0  0
  2  3  2  0  0  0  0
  2  4  1  0  0  0  0
  3  5  1  0  0  0  0
  3  6  1  0  0  0  0
  4  7  2  0  0  0  0
  5  8  1  0  0  0  0
  5  9  1  0  0  0  0
  6 10  2  0  0  0  0
  7 11  1  0  0  0  0
  8 12  1  0  0  0  0
  9 13  1  0  0  0  0
 10 14  1  0  0  0  0
 11 15  2  0  0  0  0
 11 16  1  0  0  0  0
 12 17  1  0  0  0  0
 14 18  2  0  0  0  0
 16 19  1  0  0  0  0
 18 20  1  0  0  0  0
 19 21  1  0  0  0  0
 20 22  1  0  0  0  0
 20 23  1  0  0  0  0
 21 24  2  0  0  0  0
 21 25  1  0  0  0  0
 22 26  1  0  0  0  0
 23 27  1  0  0  0  0
 24 28  1  0  0  0  0
 24 29  1  0  0  0  0
 25 30  2  0  0  0  0
 26 31  1  6  0  0  0
 26 32  1  0  0  0  0
 28 33  3  0  0  0  0
 29 34  2  0  0  0  0
  7 10  1  0  0  0  0
 13 17  1  0  0  0  0
 16 18  1  0  0  0  0
 27 32  1  0  0  0  0
 30 34  1  0  0  0  0
M  END
>  <MolRegNo>
377846

>  <m>
=

>  <Value>
790

>  <Unit>
nM

>  <Type>
IC50

>  <pValue>
6.1

>  <Ligand Efficiency>
0

>  <Binding Efficiency>
0

>  <Surface Efficiency>
0

>  <Assay Index>
283578

>  <Assay Category>


>  <Assay Organism>
Homo sapiens

>  <Target ID>
17045

>  <Target Name>
Cytochrome P450 3A4

>  <Target Organism>
Homo sapiens

>  <Target Description>
Target is a single protein chain

>  <Sequence Accession>
P08684

>  <Reference>
J Med Chem 50 (10), 2297-2300 (2007)

>  <Pubmed ID>
17441705

>  <DOI>
10.1021/jm070104l

$$$$
377842
Actelion Java MolfileCreator 1.0

 29 32  0  0  0  0  0  0  0  0999 V2000
    0.0000   -0.0000   -0.0000 O   0  0  0  0  0  0  0  0  0  0  0  0
    0.0000   -1.4885   -0.0000 C   0  0  0  0  0  0  0  0  0  0  0  0
    1.2980   -2.2149   -0.0000 N   0  0  0  0  0  0  0  0  0  0  0  0
   -1.3099   -2.2268   -0.0000 C   0  0  0  0  0  0  0  0  0  0  0  0
    1.2980   -3.7153   -0.0000 C   0  0  0  0  0  0  0  0  0  0  0  0
    2.5841   -1.4409   -0.0000 C   0  0  0  0  0  0  0  0  0  0  0  0
   -1.3218   -3.7273   -0.0000 C   0  0  0  0  0  0  0  0  0  0  0  0
   -2.6198   -1.4647   -0.0000 C   0  0  0  0  0  0  0  0  0  0  0  0
   -0.0119   -4.4537   -0.0000 N   0  0  0  0  0  0  0  0  0  0  0  0
    2.5960   -4.4537   -0.0000 N   0  0  0  0  0  0  0  0  0  0  0  0
    2.5603    0.0714   -0.0000 C   0  0  0  0  0  0  0  0  0  0  0  0
   -2.6317   -4.4775   -0.0000 C   0  0  0  0  0  0  0  0  0  0  0  0
   -3.9297   -2.2030   -0.0000 C   0  0  0  0  0  0  0  0  0  0  0  0
    3.8702   -3.6796   -0.0000 C   0  0  0  0  0  0  0  0  0  0  0  0
    2.5841   -5.9422   -0.0000 C   0  0  0  0  0  0  0  0  0  0  0  0
    3.8463    0.8336   -0.0000 C   0  0  0  0  0  0  0  0  0  0  0  0
    1.2504    0.8217   -0.0000 C   0  0  0  0  0  0  0  0  0  0  0  0
   -2.6436   -5.9660   -0.0000 O   0  0  0  0  0  0  0  0  0  0  0  0
   -3.9416   -3.7153   -0.0000 C   0  0  0  0  0  0  0  0  0  0  0  0
    5.1681   -4.4179   -0.0000 C   0  0  0  0  0  0  0  0  0  0  0  0
    3.8702   -6.6805   -0.0000 C   0  0  0  0  0  0  0  0  0  0  0  0
    5.1443    0.0953   -0.0000 C   0  0  0  0  0  0  0  0  0  0  0  0
    3.8225    2.3459   -0.0000 C   0  0  0  0  0  0  0  0  0  0  0  0
    1.2265    2.3340   -0.0000 C   0  0  0  0  0  0  0  0  0  0  0  0
   -3.9535   -6.7043   -0.0000 C   0  0  0  0  0  0  0  0  0  0  0  0
    6.4542   -3.6558   -0.0000 N   0  0  0  0  0  0  0  0  0  0  0  0
    5.1562   -5.9064   -0.0000 C   0  0  0  0  0  0  0  0  0  0  0  0
    6.4304   -0.6430   -0.0000 N   0  0  0  0  0  0  0  0  0  0  0  0
    2.5007    3.1080   -0.0000 C   0  0  0  0  0  0  0  0  0  0  0  0
  1  2  2  0  0  0  0
  2  3  1  0  0  0  0
  2  4  1  0  0  0  0
  3  5  1  0  0  0  0
  3  6  1  0  0  0  0
  4  7  2  0  0  0  0
  4  8  1  0  0  0  0
  5  9  2  0  0  0  0
  5 10  1  0  0  0  0
  6 11  1  0  0  0  0
  7 12  1  0  0  0  0
  8 13  2  0  0  0  0
 10 14  1  0  0  0  0
 10 15  1  0  0  0  0
 11 16  2  0  0  0  0
 11 17  1  0  0  0  0
 12 18  1  0  0  0  0
 12 19  2  0  0  0  0
 14 20  1  0  0  0  0
 15 21  1  0  0  0  0
 16 22  1  0  0  0  0
 16 23  1  0  0  0  0
 17 24  2  0  0  0  0
 18 25  1  0  0  0  0
 20 26  1  0  0  0  0
 20 27  1  0  0  0  0
 22 28  3  0  0  0  0
 23 29  2  0  0  0  0
  7  9  1  0  0  0  0
 13 19  1  0  0  0  0
 21 27  1  0  0  0  0
 24 29  1  0  0  0  0
M  END
>  <MolRegNo>
377842

>  <m>
=

>  <Value>
630

>  <Unit>
nM

>  <Type>
IC50

>  <pValue>
6.2

>  <Ligand Efficiency>
0

>  <Binding Efficiency>
0

>  <Surface Efficiency>
0

>  <Assay Index>
283578

>  <Assay Category>


>  <Assay Organism>
Homo sapiens

>  <Target ID>
17045

>  <Target Name>
Cytochrome P450 3A4

>  <Target Organism>
Homo sapiens

>  <Target Description>
Target is a single protein chain

>  <Sequence Accession>
P08684

>  <Reference>
J Med Chem 50 (10), 2297-2300 (2007)

>  <Pubmed ID>
17441705

>  <DOI>
10.1021/jm070104l

$$$$
377841
Actelion Java MolfileCreator 1.0

 31 34  0  0  1  0  0  0  0  0999 V2000
    0.0000   -0.0000   -0.0000 O   0  0  0  0  0  0  0  0  0  0  0  0
    0.0000   -1.4869   -0.0000 C   0  0  0  0  0  0  0  0  0  0  0  0
    1.2966   -2.2125   -0.0000 N   0  0  0  0  0  0  0  0  0  0  0  0
   -1.3085   -2.2244   -0.0000 C   0  0  0  0  0  0  0  0  0  0  0  0
    1.2966   -3.7114   -0.0000 C   0  0  0  0  0  0  0  0  0  0  0  0
    2.5813   -1.4393   -0.0000 C   0  0  0  0  0  0  0  0  0  0  0  0
   -1.3204   -3.7233   -0.0000 C   0  0  0  0  0  0  0  0  0  0  0  0
   -2.6170   -1.4631   -0.0000 C   0  0  0  0  0  0  0  0  0  0  0  0
   -0.0119   -4.4489   -0.0000 N   0  0  0  0  0  0  0  0  0  0  0  0
    2.5932   -4.4489   -0.0000 N   0  0  0  0  0  0  0  0  0  0  0  0
    2.5575    0.0714   -0.0000 C   0  0  0  0  0  0  0  0  0  0  0  0
   -2.6289   -4.4727   -0.0000 C   0  0  0  0  0  0  0  0  0  0  0  0
   -3.9255   -2.2006   -0.0000 C   0  0  0  0  0  0  0  0  0  0  0  0
    3.8660   -3.6757   -0.0000 C   0  0  0  0  0  0  0  0  0  0  0  0
    2.5813   -5.9358   -0.0000 C   0  0  0  0  0  0  0  0  0  0  0  0
    3.8422    0.8327   -0.0000 C   0  0  0  0  0  0  0  0  0  0  0  0
    1.2490    0.8208   -0.0000 C   0  0  0  0  0  0  0  0  0  0  0  0
   -3.9374   -3.7114   -0.0000 C   0  0  0  0  0  0  0  0  0  0  0  0
   -5.2340   -1.4393   -0.0000 O   0  0  0  0  0  0  0  0  0  0  0  0
    5.1626   -4.4132   -0.0000 C   0  0  0  0  0  0  0  0  0  0  0  0
    3.8660   -6.6733   -0.0000 C   0  0  0  0  0  0  0  0  0  0  0  0
    5.1388    0.0952   -0.0000 C   0  0  0  0  0  0  0  0  0  0  0  0
    3.8184    2.3434   -0.0000 C   0  0  0  0  0  0  0  0  0  0  0  0
    1.2252    2.3315   -0.0000 C   0  0  0  0  0  0  0  0  0  0  0  0
   -5.2459   -4.4489   -0.0000 O   0  0  0  0  0  0  0  0  0  0  0  0
   -5.2459    0.0714   -0.0000 C   0  0  0  0  0  0  0  0  0  0  0  0
    6.4473   -3.6519   -0.0000 N   0  0  0  0  0  0  0  0  0  0  0  0
    5.1507   -5.9001   -0.0000 C   0  0  0  0  0  0  0  0  0  0  0  0
    6.4235   -0.6424   -0.0000 N   0  0  0  0  0  0  0  0  0  0  0  0
    2.4980    3.1047   -0.0000 C   0  0  0  0  0  0  0  0  0  0  0  0
   -6.5544   -3.6876   -0.0000 C   0  0  0  0  0  0  0  0  0  0  0  0
  1  2  2  0  0  0  0
  2  3  1  0  0  0  0
  2  4  1  0  0  0  0
  3  5  1  0  0  0  0
  3  6  1  0  0  0  0
  4  7  2  0  0  0  0
  4  8  1  0  0  0  0
  5  9  2  0  0  0  0
  5 10  1  0  0  0  0
  6 11  1  0  0  0  0
  7 12  1  0  0  0  0
  8 13  2  0  0  0  0
 10 14  1  0  0  0  0
 10 15  1  0  0  0  0
 11 16  2  0  0  0  0
 11 17  1  0  0  0  0
 12 18  2  0  0  0  0
 13 19  1  0  0  0  0
 14 20  1  0  0  0  0
 15 21  1  0  0  0  0
 16 22  1  0  0  0  0
 16 23  1  0  0  0  0
 17 24  2  0  0  0  0
 18 25  1  0  0  0  0
 19 26  1  0  0  0  0
 20 27  1  6  0  0  0
 20 28  1  0  0  0  0
 22 29  3  0  0  0  0
 23 30  2  0  0  0  0
 25 31  1  0  0  0  0
  7  9  1  0  0  0  0
 13 18  1  0  0  0  0
 21 28  1  0  0  0  0
 24 30  1  0  0  0  0
M  END
>  <MolRegNo>
377841

>  <m>
=

>  <Value>
500

>  <Unit>
nM

>  <Type>
IC50

>  <pValue>
6.3

>  <Ligand Efficiency>
0

>  <Binding Efficiency>
0

>  <Surface Efficiency>
0

>  <Assay Index>
283578

>  <Assay Category>


>  <Assay Organism>
Homo sapiens

>  <Target ID>
17045

>  <Target Name>
Cytochrome P450 3A4

>  <Target Organism>
Homo sapiens

>  <Target Description>
Target is a single protein chain

>  <Sequence Accession>
P08684

>  <Reference>
J Med Chem 50 (10), 2297-2300 (2007)

>  <Pubmed ID>
17441705

>  <DOI>
10.1021/jm070104l

$$$$
377836
Actelion Java MolfileCreator 1.0

 30 33  0  0  1  0  0  0  0  0999 V2000
    0.0000   -0.0000   -0.0000 F   0  0  0  0  0  0  0  0  0  0  0  0
    1.2930    0.7592   -0.0000 C   0  0  0  0  0  0  0  0  0  0  0  0
    1.2812    2.2777   -0.0000 C   0  0  0  0  0  0  0  0  0  0  0  0
    2.5861    0.0237   -0.0000 C   0  0  0  0  0  0  0  0  0  0  0  0
   -0.0356    3.0369   -0.0000 O   0  0  0  0  0  0  0  0  0  0  0  0
    2.5624    3.0369   -0.0000 C   0  0  0  0  0  0  0  0  0  0  0  0
    3.8791    0.7948   -0.0000 C   0  0  0  0  0  0  0  0  0  0  0  0
   -0.0475    4.5553   -0.0000 C   0  0  0  0  0  0  0  0  0  0  0  0
    3.8554    2.3014   -0.0000 C   0  0  0  0  0  0  0  0  0  0  0  0
    5.1722    0.0593   -0.0000 N   0  0  0  0  0  0  0  0  0  0  0  0
    5.1366    3.0725   -0.0000 C   0  0  0  0  0  0  0  0  0  0  0  0
    6.4652    0.8304   -0.0000 C   0  0  0  0  0  0  0  0  0  0  0  0
    5.1129    4.5909   -0.0000 O   0  0  0  0  0  0  0  0  0  0  0  0
    6.4296    2.3370   -0.0000 N   0  0  0  0  0  0  0  0  0  0  0  0
    7.7583    0.0949   -0.0000 N   0  0  0  0  0  0  0  0  0  0  0  0
    7.7108    3.1080   -0.0000 C   0  0  0  0  0  0  0  0  0  0  0  0
    9.0394    0.8778   -0.0000 C   0  0  0  0  0  0  0  0  0  0  0  0
    7.7464   -1.3879   -0.0000 C   0  0  0  0  0  0  0  0  0  0  0  0
    7.6871    4.6265   -0.0000 C   0  0  0  0  0  0  0  0  0  0  0  0
   10.3325    0.1305   -0.0000 C   0  0  0  0  0  0  0  0  0  0  0  0
    9.0276   -2.1234   -0.0000 C   0  0  0  0  0  0  0  0  0  0  0  0
    8.9683    5.3857   -0.0000 C   0  0  0  0  0  0  0  0  0  0  0  0
    6.3703    5.3738   -0.0000 C   0  0  0  0  0  0  0  0  0  0  0  0
   11.6255    0.8897   -0.0000 N   0  0  0  0  0  0  0  0  0  0  0  0
   10.3206   -1.3642   -0.0000 C   0  0  0  0  0  0  0  0  0  0  0  0
   10.2613    4.6502   -0.0000 C   0  0  0  0  0  0  0  0  0  0  0  0
    8.9445    6.9041   -0.0000 C   0  0  0  0  0  0  0  0  0  0  0  0
    6.3466    6.8804   -0.0000 C   0  0  0  0  0  0  0  0  0  0  0  0
   11.5425    3.9147   -0.0000 N   0  0  0  0  0  0  0  0  0  0  0  0
    7.6278    7.6634   -0.0000 C   0  0  0  0  0  0  0  0  0  0  0  0
  1  2  1  0  0  0  0
  2  3  2  0  0  0  0
  2  4  1  0  0  0  0
  3  5  1  0  0  0  0
  3  6  1  0  0  0  0
  4  7  2  0  0  0  0
  5  8  1  0  0  0  0
  6  9  2  0  0  0  0
  7 10  1  0  0  0  0
  9 11  1  0  0  0  0
 10 12  2  0  0  0  0
 11 13  2  0  0  0  0
 11 14  1  0  0  0  0
 12 15  1  0  0  0  0
 14 16  1  0  0  0  0
 15 17  1  0  0  0  0
 15 18  1  0  0  0  0
 16 19  1  0  0  0  0
 17 20  1  0  0  0  0
 18 21  1  0  0  0  0
 19 22  2  0  0  0  0
 19 23  1  0  0  0  0
 20 24  1  6  0  0  0
 20 25  1  0  0  0  0
 22 26  1  0  0  0  0
 22 27  1  0  0  0  0
 23 28  2  0  0  0  0
 26 29  3  0  0  0  0
 27 30  2  0  0  0  0
  7  9  1  0  0  0  0
 12 14  1  0  0  0  0
 21 25  1  0  0  0  0
 28 30  1  0  0  0  0
M  END
>  <MolRegNo>
377836

>  <m>
=

>  <Value>
250

>  <Unit>
nM

>  <Type>
IC50

>  <pValue>
6.6

>  <Ligand Efficiency>
0

>  <Binding Efficiency>
0

>  <Surface Efficiency>
0

>  <Assay Index>
283578

>  <Assay Category>


>  <Assay Organism>
Homo sapiens

>  <Target ID>
17045

>  <Target Name>
Cytochrome P450 3A4

>  <Target Organism>
Homo sapiens

>  <Target Description>
Target is a single protein chain

>  <Sequence Accession>
P08684

>  <Reference>
J Med Chem 50 (10), 2297-2300 (2007)

>  <Pubmed ID>
17441705

>  <DOI>
10.1021/jm070104l

$$$$
377835
Actelion Java MolfileCreator 1.0

 29 32  0  0  1  0  0  0  0  0999 V2000
    0.0000   -0.0000   -0.0000 O   0  0  0  0  0  0  0  0  0  0  0  0
    0.0000   -1.4874   -0.0000 C   0  0  0  0  0  0  0  0  0  0  0  0
    1.2970   -2.2133   -0.0000 N   0  0  0  0  0  0  0  0  0  0  0  0
   -1.3089   -2.2252   -0.0000 C   0  0  0  0  0  0  0  0  0  0  0  0
    1.2970   -3.7126   -0.0000 C   0  0  0  0  0  0  0  0  0  0  0  0
    2.5822   -1.4398   -0.0000 C   0  0  0  0  0  0  0  0  0  0  0  0
   -1.3208   -3.7245   -0.0000 C   0  0  0  0  0  0  0  0  0  0  0  0
   -2.6178   -1.4636   -0.0000 C   0  0  0  0  0  0  0  0  0  0  0  0
   -0.0119   -4.4503   -0.0000 N   0  0  0  0  0  0  0  0  0  0  0  0
    2.5941   -4.4503   -0.0000 N   0  0  0  0  0  0  0  0  0  0  0  0
    2.5584    0.0714   -0.0000 C   0  0  0  0  0  0  0  0  0  0  0  0
   -2.6297   -4.4741   -0.0000 C   0  0  0  0  0  0  0  0  0  0  0  0
   -3.9268   -2.2014   -0.0000 C   0  0  0  0  0  0  0  0  0  0  0  0
    3.8673   -3.6769   -0.0000 C   0  0  0  0  0  0  0  0  0  0  0  0
    2.5822   -5.9378   -0.0000 C   0  0  0  0  0  0  0  0  0  0  0  0
    3.8435    0.8330   -0.0000 C   0  0  0  0  0  0  0  0  0  0  0  0
    1.2494    0.8211   -0.0000 C   0  0  0  0  0  0  0  0  0  0  0  0
   -3.9387   -3.7126   -0.0000 C   0  0  0  0  0  0  0  0  0  0  0  0
   -5.2357   -1.4398   -0.0000 O   0  0  0  0  0  0  0  0  0  0  0  0
    5.1643   -4.4146   -0.0000 C   0  0  0  0  0  0  0  0  0  0  0  0
    3.8673   -6.6755   -0.0000 C   0  0  0  0  0  0  0  0  0  0  0  0
    5.1405    0.0952   -0.0000 C   0  0  0  0  0  0  0  0  0  0  0  0
    3.8197    2.3442   -0.0000 C   0  0  0  0  0  0  0  0  0  0  0  0
    1.2256    2.3323   -0.0000 C   0  0  0  0  0  0  0  0  0  0  0  0
   -5.2476    0.0714   -0.0000 C   0  0  0  0  0  0  0  0  0  0  0  0
    6.4494   -3.6531   -0.0000 N   0  0  0  0  0  0  0  0  0  0  0  0
    5.1524   -5.9021   -0.0000 C   0  0  0  0  0  0  0  0  0  0  0  0
    6.4256   -0.6426   -0.0000 N   0  0  0  0  0  0  0  0  0  0  0  0
    2.4989    3.1057   -0.0000 C   0  0  0  0  0  0  0  0  0  0  0  0
  1  2  2  0  0  0  0
  2  3  1  0  0  0  0
  2  4  1  0  0  0  0
  3  5  1  0  0  0  0
  3  6  1  0  0  0  0
  4  7  2  0  0  0  0
  4  8  1  0  0  0  0
  5  9  2  0  0  0  0
  5 10  1  0  0  0  0
  6 11  1  0  0  0  0
  7 12  1  0  0  0  0
  8 13  2  0  0  0  0
 10 14  1  0  0  0  0
 10 15  1  0  0  0  0
 11 16  2  0  0  0  0
 11 17  1  0  0  0  0
 12 18  2  0  0  0  0
 13 19  1  0  0  0  0
 14 20  1  0  0  0  0
 15 21  1  0  0  0  0
 16 22  1  0  0  0  0
 16 23  1  0  0  0  0
 17 24  2  0  0  0  0
 19 25  1  0  0  0  0
 20 26  1  6  0  0  0
 20 27  1  0  0  0  0
 22 28  3  0  0  0  0
 23 29  2  0  0  0  0
  7  9  1  0  0  0  0
 13 18  1  0  0  0  0
 21 27  1  0  0  0  0
 24 29  1  0  0  0  0
M  END
>  <MolRegNo>
377835

>  <m>
=

>  <Value>
200

>  <Unit>
nM

>  <Type>
IC50

>  <pValue>
6.7

>  <Ligand Efficiency>
0

>  <Binding Efficiency>
0

>  <Surface Efficiency>
0

>  <Assay Index>
283578

>  <Assay Category>


>  <Assay Organism>
Homo sapiens

>  <Target ID>
17045

>  <Target Name>
Cytochrome P450 3A4

>  <Target Organism>
Homo sapiens

>  <Target Description>
Target is a single protein chain

>  <Sequence Accession>
P08684

>  <Reference>
J Med Chem 50 (10), 2297-2300 (2007)

>  <Pubmed ID>
17441705

>  <DOI>
10.1021/jm070104l

$$$$
377828
Actelion Java MolfileCreator 1.0

 28 31  0  0  1  0  0  0  0  0999 V2000
    0.0000   -0.0000   -0.0000 Br  0  0  0  0  0  0  0  0  0  0  0  0
    1.2886   -0.7398   -0.0000 C   0  0  0  0  0  0  0  0  0  0  0  0
    2.5772    0.0239   -0.0000 C   0  0  0  0  0  0  0  0  0  0  0  0
    1.2767   -2.2431   -0.0000 C   0  0  0  0  0  0  0  0  0  0  0  0
    3.8658   -0.7159   -0.0000 C   0  0  0  0  0  0  0  0  0  0  0  0
    2.5653   -2.9829   -0.0000 C   0  0  0  0  0  0  0  0  0  0  0  0
    5.1544    0.0477   -0.0000 C   0  0  0  0  0  0  0  0  0  0  0  0
    3.8539   -2.2193   -0.0000 C   0  0  0  0  0  0  0  0  0  0  0  0
    5.1306    1.5630   -0.0000 O   0  0  0  0  0  0  0  0  0  0  0  0
    6.4550   -0.6801   -0.0000 N   0  0  0  0  0  0  0  0  0  0  0  0
    5.1425   -2.9590   -0.0000 N   0  0  0  0  0  0  0  0  0  0  0  0
    6.4550   -2.1835   -0.0000 C   0  0  0  0  0  0  0  0  0  0  0  0
    7.7436    0.0955   -0.0000 C   0  0  0  0  0  0  0  0  0  0  0  0
    7.7555   -2.9232   -0.0000 N   0  0  0  0  0  0  0  0  0  0  0  0
    7.7197    1.6108   -0.0000 C   0  0  0  0  0  0  0  0  0  0  0  0
    9.0322   -2.1477   -0.0000 C   0  0  0  0  0  0  0  0  0  0  0  0
    7.7436   -4.4147   -0.0000 C   0  0  0  0  0  0  0  0  0  0  0  0
    9.0083    2.3744   -0.0000 C   0  0  0  0  0  0  0  0  0  0  0  0
    6.4073    2.3625   -0.0000 C   0  0  0  0  0  0  0  0  0  0  0  0
   10.3327   -2.8874   -0.0000 C   0  0  0  0  0  0  0  0  0  0  0  0
    9.0322   -5.1544   -0.0000 C   0  0  0  0  0  0  0  0  0  0  0  0
   10.3089    1.6346   -0.0000 C   0  0  0  0  0  0  0  0  0  0  0  0
    8.9845    3.8897   -0.0000 C   0  0  0  0  0  0  0  0  0  0  0  0
    6.3834    3.8778   -0.0000 C   0  0  0  0  0  0  0  0  0  0  0  0
   11.6214   -2.1238   -0.0000 N   0  0  0  0  0  0  0  0  0  0  0  0
   10.3208   -4.3789   -0.0000 C   0  0  0  0  0  0  0  0  0  0  0  0
   11.5975    0.8949   -0.0000 N   0  0  0  0  0  0  0  0  0  0  0  0
    7.6601    4.6533   -0.0000 C   0  0  0  0  0  0  0  0  0  0  0  0
  1  2  1  0  0  0  0
  2  3  2  0  0  0  0
  2  4  1  0  0  0  0
  3  5  1  0  0  0  0
  4  6  2  0  0  0  0
  5  7  1  0  0  0  0
  5  8  2  0  0  0  0
  7  9  2  0  0  0  0
  7 10  1  0  0  0  0
  8 11  1  0  0  0  0
 10 12  1  0  0  0  0
 10 13  1  0  0  0  0
 12 14  1  0  0  0  0
 13 15  1  0  0  0  0
 14 16  1  0  0  0  0
 14 17  1  0  0  0  0
 15 18  2  0  0  0  0
 15 19  1  0  0  0  0
 16 20  1  0  0  0  0
 17 21  1  0  0  0  0
 18 22  1  0  0  0  0
 18 23  1  0  0  0  0
 19 24  2  0  0  0  0
 20 25  1  6  0  0  0
 20 26  1  0  0  0  0
 22 27  3  0  0  0  0
 23 28  2  0  0  0  0
  6  8  1  0  0  0  0
 11 12  2  0  0  0  0
 21 26  1  0  0  0  0
 24 28  1  0  0  0  0
M  END
>  <MolRegNo>
377828

>  <m>
=

>  <Value>
250

>  <Unit>
nM

>  <Type>
IC50

>  <pValue>
6.6

>  <Ligand Efficiency>
0

>  <Binding Efficiency>
0

>  <Surface Efficiency>
0

>  <Assay Index>
283578

>  <Assay Category>


>  <Assay Organism>
Homo sapiens

>  <Target ID>
17045

>  <Target Name>
Cytochrome P450 3A4

>  <Target Organism>
Homo sapiens

>  <Target Description>
Target is a single protein chain

>  <Sequence Accession>
P08684

>  <Reference>
J Med Chem 50 (10), 2297-2300 (2007)

>  <Pubmed ID>
17441705

>  <DOI>
10.1021/jm070104l

$$$$
377827
Actelion Java MolfileCreator 1.0

 29 32  0  0  1  0  0  0  0  0999 V2000
    0.0000   -0.0000   -0.0000 Cl  0  0  0  0  0  0  0  0  0  0  0  0
   -0.0119    1.5104   -0.0000 C   0  0  0  0  0  0  0  0  0  0  0  0
    1.2725    2.2835   -0.0000 C   0  0  0  0  0  0  0  0  0  0  0  0
   -1.3201    2.2716   -0.0000 C   0  0  0  0  0  0  0  0  0  0  0  0
    2.5570    1.5461   -0.0000 N   0  0  0  0  0  0  0  0  0  0  0  0
    1.2607    3.8058   -0.0000 C   0  0  0  0  0  0  0  0  0  0  0  0
   -1.3320    3.7939   -0.0000 C   0  0  0  0  0  0  0  0  0  0  0  0
    3.8414    2.3072   -0.0000 C   0  0  0  0  0  0  0  0  0  0  0  0
    2.5451    4.5669   -0.0000 C   0  0  0  0  0  0  0  0  0  0  0  0
   -0.0476    4.5669   -0.0000 C   0  0  0  0  0  0  0  0  0  0  0  0
   -2.6402    4.5550   -0.0000 Cl  0  0  0  0  0  0  0  0  0  0  0  0
    5.1378    1.5699   -0.0000 N   0  0  0  0  0  0  0  0  0  0  0  0
    3.8176    3.8295   -0.0000 N   0  0  0  0  0  0  0  0  0  0  0  0
    2.5213    6.0773   -0.0000 O   0  0  0  0  0  0  0  0  0  0  0  0
    6.4103    2.3429   -0.0000 C   0  0  0  0  0  0  0  0  0  0  0  0
    5.1259    0.0833   -0.0000 C   0  0  0  0  0  0  0  0  0  0  0  0
    5.1021    4.6026   -0.0000 C   0  0  0  0  0  0  0  0  0  0  0  0
    7.7067    1.6056   -0.0000 C   0  0  0  0  0  0  0  0  0  0  0  0
    6.4103   -0.6541   -0.0000 C   0  0  0  0  0  0  0  0  0  0  0  0
    5.0783    6.1130   -0.0000 C   0  0  0  0  0  0  0  0  0  0  0  0
    8.9911    2.3667   -0.0000 N   0  0  0  0  0  0  0  0  0  0  0  0
    7.6948    0.1189   -0.0000 C   0  0  0  0  0  0  0  0  0  0  0  0
    6.3627    6.8741   -0.0000 C   0  0  0  0  0  0  0  0  0  0  0  0
    3.7701    6.8623   -0.0000 C   0  0  0  0  0  0  0  0  0  0  0  0
    7.6591    6.1368   -0.0000 C   0  0  0  0  0  0  0  0  0  0  0  0
    6.3390    8.3846   -0.0000 C   0  0  0  0  0  0  0  0  0  0  0  0
    3.7463    8.3727   -0.0000 C   0  0  0  0  0  0  0  0  0  0  0  0
    8.9435    5.3994   -0.0000 N   0  0  0  0  0  0  0  0  0  0  0  0
    5.0188    9.1457   -0.0000 C   0  0  0  0  0  0  0  0  0  0  0  0
  1  2  1  0  0  0  0
  2  3  2  0  0  0  0
  2  4  1  0  0  0  0
  3  5  1  0  0  0  0
  3  6  1  0  0  0  0
  4  7  2  0  0  0  0
  5  8  2  0  0  0  0
  6  9  1  0  0  0  0
  6 10  2  0  0  0  0
  7 11  1  0  0  0  0
  8 12  1  0  0  0  0
  8 13  1  0  0  0  0
  9 14  2  0  0  0  0
 12 15  1  0  0  0  0
 12 16  1  0  0  0  0
 13 17  1  0  0  0  0
 15 18  1  0  0  0  0
 16 19  1  0  0  0  0
 17 20  1  0  0  0  0
 18 21  1  6  0  0  0
 18 22  1  0  0  0  0
 20 23  2  0  0  0  0
 20 24  1  0  0  0  0
 23 25  1  0  0  0  0
 23 26  1  0  0  0  0
 24 27  2  0  0  0  0
 25 28  3  0  0  0  0
 26 29  2  0  0  0  0
  7 10  1  0  0  0  0
  9 13  1  0  0  0  0
 19 22  1  0  0  0  0
 27 29  1  0  0  0  0
M  END
>  <MolRegNo>
377827

>  <m>
=

>  <Value>
80

>  <Unit>
nM

>  <Type>
IC50

>  <pValue>
7.1

>  <Ligand Efficiency>
0

>  <Binding Efficiency>
0

>  <Surface Efficiency>
0

>  <Assay Index>
283578

>  <Assay Category>


>  <Assay Organism>
Homo sapiens

>  <Target ID>
17045

>  <Target Name>
Cytochrome P450 3A4

>  <Target Organism>
Homo sapiens

>  <Target Description>
Target is a single protein chain

>  <Sequence Accession>
P08684

>  <Reference>
J Med Chem 50 (10), 2297-2300 (2007)

>  <Pubmed ID>
17441705

>  <DOI>
10.1021/jm070104l

$$$$
377820
Actelion Java MolfileCreator 1.0

 28 31  0  0  0  0  0  0  0  0999 V2000
    0.0000   -0.0000   -0.0000 Cl  0  0  0  0  0  0  0  0  0  0  0  0
   -0.0119    1.5108   -0.0000 C   0  0  0  0  0  0  0  0  0  0  0  0
    1.2729    2.2841   -0.0000 C   0  0  0  0  0  0  0  0  0  0  0  0
   -1.3205    2.2722   -0.0000 C   0  0  0  0  0  0  0  0  0  0  0  0
    2.5577    1.5465   -0.0000 N   0  0  0  0  0  0  0  0  0  0  0  0
    1.2610    3.8069   -0.0000 C   0  0  0  0  0  0  0  0  0  0  0  0
   -1.3324    3.7950   -0.0000 C   0  0  0  0  0  0  0  0  0  0  0  0
    3.8426    2.3079   -0.0000 C   0  0  0  0  0  0  0  0  0  0  0  0
    2.5458    4.5682   -0.0000 C   0  0  0  0  0  0  0  0  0  0  0  0
   -0.0476    4.5682   -0.0000 C   0  0  0  0  0  0  0  0  0  0  0  0
    5.1393    1.5703   -0.0000 N   0  0  0  0  0  0  0  0  0  0  0  0
    3.8188    3.8307   -0.0000 N   0  0  0  0  0  0  0  0  0  0  0  0
    2.5220    6.0791   -0.0000 O   0  0  0  0  0  0  0  0  0  0  0  0
    6.4122    2.3436   -0.0000 C   0  0  0  0  0  0  0  0  0  0  0  0
    5.1274    0.0833   -0.0000 C   0  0  0  0  0  0  0  0  0  0  0  0
    5.1036    4.6039   -0.0000 C   0  0  0  0  0  0  0  0  0  0  0  0
    7.7089    1.6060   -0.0000 C   0  0  0  0  0  0  0  0  0  0  0  0
    6.4122   -0.6543   -0.0000 C   0  0  0  0  0  0  0  0  0  0  0  0
    5.0798    6.1148   -0.0000 C   0  0  0  0  0  0  0  0  0  0  0  0
    8.9937    2.3674   -0.0000 N   0  0  0  0  0  0  0  0  0  0  0  0
    7.6970    0.1190   -0.0000 C   0  0  0  0  0  0  0  0  0  0  0  0
    6.3646    6.8762   -0.0000 C   0  0  0  0  0  0  0  0  0  0  0  0
    3.7712    6.8643   -0.0000 C   0  0  0  0  0  0  0  0  0  0  0  0
    7.6613    6.1386   -0.0000 C   0  0  0  0  0  0  0  0  0  0  0  0
    6.3408    8.3870   -0.0000 C   0  0  0  0  0  0  0  0  0  0  0  0
    3.7474    8.3751   -0.0000 C   0  0  0  0  0  0  0  0  0  0  0  0
    8.9461    5.4010   -0.0000 N   0  0  0  0  0  0  0  0  0  0  0  0
    5.0203    9.1484   -0.0000 C   0  0  0  0  0  0  0  0  0  0  0  0
  1  2  1  0  0  0  0
  2  3  2  0  0  0  0
  2  4  1  0  0  0  0
  3  5  1  0  0  0  0
  3  6  1  0  0  0  0
  4  7  2  0  0  0  0
  5  8  2  0  0  0  0
  6  9  1  0  0  0  0
  6 10  2  0  0  0  0
  8 11  1  0  0  0  0
  8 12  1  0  0  0  0
  9 13  2  0  0  0  0
 11 14  1  0  0  0  0
 11 15  1  0  0  0  0
 12 16  1  0  0  0  0
 14 17  1  0  0  0  0
 15 18  1  0  0  0  0
 16 19  1  0  0  0  0
 17 20  1  0  0  0  0
 17 21  1  0  0  0  0
 19 22  2  0  0  0  0
 19 23  1  0  0  0  0
 22 24  1  0  0  0  0
 22 25  1  0  0  0  0
 23 26  2  0  0  0  0
 24 27  3  0  0  0  0
 25 28  2  0  0  0  0
  7 10  1  0  0  0  0
  9 12  1  0  0  0  0
 18 21  1  0  0  0  0
 26 28  1  0  0  0  0
M  END
>  <MolRegNo>
377820

>  <m>
=

>  <Value>
130

>  <Unit>
nM

>  <Type>
IC50

>  <pValue>
6.89

>  <Ligand Efficiency>
0

>  <Binding Efficiency>
0

>  <Surface Efficiency>
0

>  <Assay Index>
283578

>  <Assay Category>


>  <Assay Organism>
Homo sapiens

>  <Target ID>
17045

>  <Target Name>
Cytochrome P450 3A4

>  <Target Organism>
Homo sapiens

>  <Target Description>
Target is a single protein chain

>  <Sequence Accession>
P08684

>  <Reference>
J Med Chem 50 (10), 2297-2300 (2007)

>  <Pubmed ID>
17441705

>  <DOI>
10.1021/jm070104l

$$$$
377819
Actelion Java MolfileCreator 1.0

 28 31  0  0  1  0  0  0  0  0999 V2000
    0.0000   -0.0000   -0.0000 Cl  0  0  0  0  0  0  0  0  0  0  0  0
    1.2874    0.7629   -0.0000 C   0  0  0  0  0  0  0  0  0  0  0  0
    2.5749    0.0238   -0.0000 C   0  0  0  0  0  0  0  0  0  0  0  0
    1.2755    2.2888   -0.0000 C   0  0  0  0  0  0  0  0  0  0  0  0
    3.8623    0.7987   -0.0000 C   0  0  0  0  0  0  0  0  0  0  0  0
    2.5629    3.0517   -0.0000 C   0  0  0  0  0  0  0  0  0  0  0  0
    5.1497    0.0596   -0.0000 N   0  0  0  0  0  0  0  0  0  0  0  0
    3.8504    2.3245   -0.0000 C   0  0  0  0  0  0  0  0  0  0  0  0
    6.4372    0.8225   -0.0000 C   0  0  0  0  0  0  0  0  0  0  0  0
    5.1378    3.0875   -0.0000 C   0  0  0  0  0  0  0  0  0  0  0  0
    7.7365    0.0834   -0.0000 N   0  0  0  0  0  0  0  0  0  0  0  0
    6.4133    2.3484   -0.0000 N   0  0  0  0  0  0  0  0  0  0  0  0
    5.1140    4.6014   -0.0000 O   0  0  0  0  0  0  0  0  0  0  0  0
    9.0120    0.8583   -0.0000 C   0  0  0  0  0  0  0  0  0  0  0  0
    7.7246   -1.4066   -0.0000 C   0  0  0  0  0  0  0  0  0  0  0  0
    7.7007    3.1232   -0.0000 C   0  0  0  0  0  0  0  0  0  0  0  0
   10.3114    0.1192   -0.0000 C   0  0  0  0  0  0  0  0  0  0  0  0
    9.0120   -2.1457   -0.0000 C   0  0  0  0  0  0  0  0  0  0  0  0
    7.6769    4.6371   -0.0000 C   0  0  0  0  0  0  0  0  0  0  0  0
   11.5988    0.8821   -0.0000 N   0  0  0  0  0  0  0  0  0  0  0  0
   10.2995   -1.3709   -0.0000 C   0  0  0  0  0  0  0  0  0  0  0  0
    8.9643    5.4001   -0.0000 C   0  0  0  0  0  0  0  0  0  0  0  0
    6.3656    5.3881   -0.0000 C   0  0  0  0  0  0  0  0  0  0  0  0
   10.2637    4.6610   -0.0000 C   0  0  0  0  0  0  0  0  0  0  0  0
    8.9405    6.9140   -0.0000 C   0  0  0  0  0  0  0  0  0  0  0  0
    6.3418    6.9021   -0.0000 C   0  0  0  0  0  0  0  0  0  0  0  0
   11.5511    3.9219   -0.0000 N   0  0  0  0  0  0  0  0  0  0  0  0
    7.6173    7.6769   -0.0000 C   0  0  0  0  0  0  0  0  0  0  0  0
  1  2  1  0  0  0  0
  2  3  2  0  0  0  0
  2  4  1  0  0  0  0
  3  5  1  0  0  0  0
  4  6  2  0  0  0  0
  5  7  1  0  0  0  0
  5  8  2  0  0  0  0
  7  9  2  0  0  0  0
  8 10  1  0  0  0  0
  9 11  1  0  0  0  0
  9 12  1  0  0  0  0
 10 13  2  0  0  0  0
 11 14  1  0  0  0  0
 11 15  1  0  0  0  0
 12 16  1  0  0  0  0
 14 17  1  0  0  0  0
 15 18  1  0  0  0  0
 16 19  1  0  0  0  0
 17 20  1  6  0  0  0
 17 21  1  0  0  0  0
 19 22  2  0  0  0  0
 19 23  1  0  0  0  0
 22 24  1  0  0  0  0
 22 25  1  0  0  0  0
 23 26  2  0  0  0  0
 24 27  3  0  0  0  0
 25 28  2  0  0  0  0
  6  8  1  0  0  0  0
 10 12  1  0  0  0  0
 18 21  1  0  0  0  0
 26 28  1  0  0  0  0
M  END
>  <MolRegNo>
377819

>  <m>
=

>  <Value>
250

>  <Unit>
nM

>  <Type>
IC50

>  <pValue>
6.6

>  <Ligand Efficiency>
0

>  <Binding Efficiency>
0

>  <Surface Efficiency>
0

>  <Assay Index>
283578

>  <Assay Category>


>  <Assay Organism>
Homo sapiens

>  <Target ID>
17045

>  <Target Name>
Cytochrome P450 3A4

>  <Target Organism>
Homo sapiens

>  <Target Description>
Target is a single protein chain

>  <Sequence Accession>
P08684

>  <Reference>
J Med Chem 50 (10), 2297-2300 (2007)

>  <Pubmed ID>
17441705

>  <DOI>
10.1021/jm070104l

$$$$
377804
Actelion Java MolfileCreator 1.0

 28 31  0  0  1  0  0  0  0  0999 V2000
    0.0000   -0.0000   -0.0000 Cl  0  0  0  0  0  0  0  0  0  0  0  0
    1.2886   -0.7398   -0.0000 C   0  0  0  0  0  0  0  0  0  0  0  0
    2.5772    0.0239   -0.0000 C   0  0  0  0  0  0  0  0  0  0  0  0
    1.2767   -2.2431   -0.0000 C   0  0  0  0  0  0  0  0  0  0  0  0
    3.8658   -0.7159   -0.0000 C   0  0  0  0  0  0  0  0  0  0  0  0
    2.5653   -2.9829   -0.0000 C   0  0  0  0  0  0  0  0  0  0  0  0
    5.1544    0.0477   -0.0000 C   0  0  0  0  0  0  0  0  0  0  0  0
    3.8539   -2.2193   -0.0000 C   0  0  0  0  0  0  0  0  0  0  0  0
    5.1306    1.5630   -0.0000 O   0  0  0  0  0  0  0  0  0  0  0  0
    6.4550   -0.6801   -0.0000 N   0  0  0  0  0  0  0  0  0  0  0  0
    5.1425   -2.9590   -0.0000 N   0  0  0  0  0  0  0  0  0  0  0  0
    6.4550   -2.1835   -0.0000 C   0  0  0  0  0  0  0  0  0  0  0  0
    7.7436    0.0955   -0.0000 C   0  0  0  0  0  0  0  0  0  0  0  0
    7.7555   -2.9232   -0.0000 N   0  0  0  0  0  0  0  0  0  0  0  0
    7.7197    1.6108   -0.0000 C   0  0  0  0  0  0  0  0  0  0  0  0
    9.0322   -2.1477   -0.0000 C   0  0  0  0  0  0  0  0  0  0  0  0
    7.7436   -4.4147   -0.0000 C   0  0  0  0  0  0  0  0  0  0  0  0
    9.0083    2.3744   -0.0000 C   0  0  0  0  0  0  0  0  0  0  0  0
    6.4073    2.3625   -0.0000 C   0  0  0  0  0  0  0  0  0  0  0  0
   10.3327   -2.8874   -0.0000 C   0  0  0  0  0  0  0  0  0  0  0  0
    9.0322   -5.1544   -0.0000 C   0  0  0  0  0  0  0  0  0  0  0  0
   10.3089    1.6346   -0.0000 C   0  0  0  0  0  0  0  0  0  0  0  0
    8.9845    3.8897   -0.0000 C   0  0  0  0  0  0  0  0  0  0  0  0
    6.3834    3.8778   -0.0000 C   0  0  0  0  0  0  0  0  0  0  0  0
   11.6214   -2.1238   -0.0000 N   0  0  0  0  0  0  0  0  0  0  0  0
   10.3208   -4.3789   -0.0000 C   0  0  0  0  0  0  0  0  0  0  0  0
   11.5975    0.8949   -0.0000 N   0  0  0  0  0  0  0  0  0  0  0  0
    7.6601    4.6533   -0.0000 C   0  0  0  0  0  0  0  0  0  0  0  0
  1  2  1  0  0  0  0
  2  3  2  0  0  0  0
  2  4  1  0  0  0  0
  3  5  1  0  0  0  0
  4  6  2  0  0  0  0
  5  7  1  0  0  0  0
  5  8  2  0  0  0  0
  7  9  2  0  0  0  0
  7 10  1  0  0  0  0
  8 11  1  0  0  0  0
 10 12  1  0  0  0  0
 10 13  1  0  0  0  0
 12 14  1  0  0  0  0
 13 15  1  0  0  0  0
 14 16  1  0  0  0  0
 14 17  1  0  0  0  0
 15 18  2  0  0  0  0
 15 19  1  0  0  0  0
 16 20  1  0  0  0  0
 17 21  1  0  0  0  0
 18 22  1  0  0  0  0
 18 23  1  0  0  0  0
 19 24  2  0  0  0  0
 20 25  1  6  0  0  0
 20 26  1  0  0  0  0
 22 27  3  0  0  0  0
 23 28  2  0  0  0  0
  6  8  1  0  0  0  0
 11 12  2  0  0  0  0
 21 26  1  0  0  0  0
 24 28  1  0  0  0  0
M  END
>  <MolRegNo>
377804

>  <m>
=

>  <Value>
250

>  <Unit>
nM

>  <Type>
IC50

>  <pValue>
6.6

>  <Ligand Efficiency>
0

>  <Binding Efficiency>
0

>  <Surface Efficiency>
0

>  <Assay Index>
283578

>  <Assay Category>


>  <Assay Organism>
Homo sapiens

>  <Target ID>
17045

>  <Target Name>
Cytochrome P450 3A4

>  <Target Organism>
Homo sapiens

>  <Target Description>
Target is a single protein chain

>  <Sequence Accession>
P08684

>  <Reference>
J Med Chem 50 (10), 2297-2300 (2007)

>  <Pubmed ID>
17441705

>  <DOI>
10.1021/jm070104l

$$$$
377803
Actelion Java MolfileCreator 1.0

 28 31  0  0  1  0  0  0  0  0999 V2000
    0.0000   -0.0000   -0.0000 F   0  0  0  0  0  0  0  0  0  0  0  0
    1.2884   -0.7396   -0.0000 C   0  0  0  0  0  0  0  0  0  0  0  0
    2.5767    0.0239   -0.0000 C   0  0  0  0  0  0  0  0  0  0  0  0
    1.2764   -2.2427   -0.0000 C   0  0  0  0  0  0  0  0  0  0  0  0
    3.8770   -0.7038   -0.0000 C   0  0  0  0  0  0  0  0  0  0  0  0
    2.5648   -2.9823   -0.0000 C   0  0  0  0  0  0  0  0  0  0  0  0
    5.1653    0.0596   -0.0000 C   0  0  0  0  0  0  0  0  0  0  0  0
    3.8651   -2.2069   -0.0000 C   0  0  0  0  0  0  0  0  0  0  0  0
    5.1415    1.5747   -0.0000 O   0  0  0  0  0  0  0  0  0  0  0  0
    6.4537   -0.6680   -0.0000 N   0  0  0  0  0  0  0  0  0  0  0  0
    5.1653   -2.9465   -0.0000 N   0  0  0  0  0  0  0  0  0  0  0  0
    6.4537   -2.1711   -0.0000 C   0  0  0  0  0  0  0  0  0  0  0  0
    7.7421    0.0954   -0.0000 C   0  0  0  0  0  0  0  0  0  0  0  0
    7.7540   -2.9107   -0.0000 N   0  0  0  0  0  0  0  0  0  0  0  0
    7.7182    1.6104   -0.0000 C   0  0  0  0  0  0  0  0  0  0  0  0
    9.0304   -2.1234   -0.0000 C   0  0  0  0  0  0  0  0  0  0  0  0
    7.7421   -4.4019   -0.0000 C   0  0  0  0  0  0  0  0  0  0  0  0
    9.0066    2.3858   -0.0000 C   0  0  0  0  0  0  0  0  0  0  0  0
    6.3941    2.3620   -0.0000 C   0  0  0  0  0  0  0  0  0  0  0  0
   10.3307   -2.8749   -0.0000 C   0  0  0  0  0  0  0  0  0  0  0  0
    9.0304   -5.1296   -0.0000 C   0  0  0  0  0  0  0  0  0  0  0  0
   10.3068    1.6462   -0.0000 C   0  0  0  0  0  0  0  0  0  0  0  0
    8.9827    3.9009   -0.0000 C   0  0  0  0  0  0  0  0  0  0  0  0
    6.3702    3.8770   -0.0000 C   0  0  0  0  0  0  0  0  0  0  0  0
   11.6191   -2.1115   -0.0000 N   0  0  0  0  0  0  0  0  0  0  0  0
   10.3188   -4.3661   -0.0000 C   0  0  0  0  0  0  0  0  0  0  0  0
   11.5952    0.9185   -0.0000 N   0  0  0  0  0  0  0  0  0  0  0  0
    7.6586    4.6524   -0.0000 C   0  0  0  0  0  0  0  0  0  0  0  0
  1  2  1  0  0  0  0
  2  3  2  0  0  0  0
  2  4  1  0  0  0  0
  3  5  1  0  0  0  0
  4  6  2  0  0  0  0
  5  7  1  0  0  0  0
  5  8  2  0  0  0  0
  7  9  2  0  0  0  0
  7 10  1  0  0  0  0
  8 11  1  0  0  0  0
 10 12  1  0  0  0  0
 10 13  1  0  0  0  0
 12 14  1  0  0  0  0
 13 15  1  0  0  0  0
 14 16  1  0  0  0  0
 14 17  1  0  0  0  0
 15 18  2  0  0  0  0
 15 19  1  0  0  0  0
 16 20  1  0  0  0  0
 17 21  1  0  0  0  0
 18 22  1  0  0  0  0
 18 23  1  0  0  0  0
 19 24  2  0  0  0  0
 20 25  1  6  0  0  0
 20 26  1  0  0  0  0
 22 27  3  0  0  0  0
 23 28  2  0  0  0  0
  6  8  1  0  0  0  0
 11 12  2  0  0  0  0
 21 26  1  0  0  0  0
 24 28  1  0  0  0  0
M  END
>  <MolRegNo>
377803

>  <m>
=

>  <Value>
2500

>  <Unit>
nM

>  <Type>
IC50

>  <pValue>
5.6

>  <Ligand Efficiency>
0

>  <Binding Efficiency>
0

>  <Surface Efficiency>
0

>  <Assay Index>
283578

>  <Assay Category>


>  <Assay Organism>
Homo sapiens

>  <Target ID>
17045

>  <Target Name>
Cytochrome P450 3A4

>  <Target Organism>
Homo sapiens

>  <Target Description>
Target is a single protein chain

>  <Sequence Accession>
P08684

>  <Reference>
J Med Chem 50 (10), 2297-2300 (2007)

>  <Pubmed ID>
17441705

>  <DOI>
10.1021/jm070104l

$$$$
377797
Actelion Java MolfileCreator 1.0

 28 31  0  0  1  0  0  0  0  0999 V2000
    0.0000   -0.0000   -0.0000 F   0  0  0  0  0  0  0  0  0  0  0  0
   -0.0119   -1.4903   -0.0000 C   0  0  0  0  0  0  0  0  0  0  0  0
    1.2757   -2.2295   -0.0000 C   0  0  0  0  0  0  0  0  0  0  0  0
   -1.3234   -2.2295   -0.0000 C   0  0  0  0  0  0  0  0  0  0  0  0
    2.5634   -1.4665   -0.0000 C   0  0  0  0  0  0  0  0  0  0  0  0
    1.2638   -3.7318   -0.0000 C   0  0  0  0  0  0  0  0  0  0  0  0
   -1.3353   -3.7318   -0.0000 C   0  0  0  0  0  0  0  0  0  0  0  0
    2.5395    0.0477   -0.0000 O   0  0  0  0  0  0  0  0  0  0  0  0
    3.8629   -2.1938   -0.0000 N   0  0  0  0  0  0  0  0  0  0  0  0
    2.5514   -4.4710   -0.0000 N   0  0  0  0  0  0  0  0  0  0  0  0
   -0.0477   -4.4829   -0.0000 C   0  0  0  0  0  0  0  0  0  0  0  0
    3.8629   -3.6960   -0.0000 C   0  0  0  0  0  0  0  0  0  0  0  0
    5.1506   -1.4188   -0.0000 C   0  0  0  0  0  0  0  0  0  0  0  0
    5.1625   -4.4352   -0.0000 N   0  0  0  0  0  0  0  0  0  0  0  0
    5.1267    0.0954   -0.0000 C   0  0  0  0  0  0  0  0  0  0  0  0
    6.4382   -3.6602   -0.0000 C   0  0  0  0  0  0  0  0  0  0  0  0
    5.1506   -5.9255   -0.0000 C   0  0  0  0  0  0  0  0  0  0  0  0
    6.4144    0.8584   -0.0000 C   0  0  0  0  0  0  0  0  0  0  0  0
    3.8152    0.8465   -0.0000 C   0  0  0  0  0  0  0  0  0  0  0  0
    7.7378   -4.3994   -0.0000 C   0  0  0  0  0  0  0  0  0  0  0  0
    6.4382   -6.6647   -0.0000 C   0  0  0  0  0  0  0  0  0  0  0  0
    7.7139    0.1192   -0.0000 C   0  0  0  0  0  0  0  0  0  0  0  0
    6.3905    2.3726   -0.0000 C   0  0  0  0  0  0  0  0  0  0  0  0
    3.7914    2.3607   -0.0000 C   0  0  0  0  0  0  0  0  0  0  0  0
    9.0254   -3.6364   -0.0000 N   0  0  0  0  0  0  0  0  0  0  0  0
    7.7259   -5.8898   -0.0000 C   0  0  0  0  0  0  0  0  0  0  0  0
    9.0016   -0.6200   -0.0000 N   0  0  0  0  0  0  0  0  0  0  0  0
    5.0671    3.1356   -0.0000 C   0  0  0  0  0  0  0  0  0  0  0  0
  1  2  1  0  0  0  0
  2  3  2  0  0  0  0
  2  4  1  0  0  0  0
  3  5  1  0  0  0  0
  3  6  1  0  0  0  0
  4  7  2  0  0  0  0
  5  8  2  0  0  0  0
  5  9  1  0  0  0  0
  6 10  1  0  0  0  0
  6 11  2  0  0  0  0
  9 12  1  0  0  0  0
  9 13  1  0  0  0  0
 12 14  1  0  0  0  0
 13 15  1  0  0  0  0
 14 16  1  0  0  0  0
 14 17  1  0  0  0  0
 15 18  2  0  0  0  0
 15 19  1  0  0  0  0
 16 20  1  0  0  0  0
 17 21  1  0  0  0  0
 18 22  1  0  0  0  0
 18 23  1  0  0  0  0
 19 24  2  0  0  0  0
 20 25  1  6  0  0  0
 20 26  1  0  0  0  0
 22 27  3  0  0  0  0
 23 28  2  0  0  0  0
  7 11  1  0  0  0  0
 10 12  2  0  0  0  0
 21 26  1  0  0  0  0
 24 28  1  0  0  0  0
M  END
>  <MolRegNo>
377797

>  <m>
=

>  <Value>
500

>  <Unit>
nM

>  <Type>
IC50

>  <pValue>
6.3

>  <Ligand Efficiency>
0

>  <Binding Efficiency>
0

>  <Surface Efficiency>
0

>  <Assay Index>
283578

>  <Assay Category>


>  <Assay Organism>
Homo sapiens

>  <Target ID>
17045

>  <Target Name>
Cytochrome P450 3A4

>  <Target Organism>
Homo sapiens

>  <Target Description>
Target is a single protein chain

>  <Sequence Accession>
P08684

>  <Reference>
J Med Chem 50 (10), 2297-2300 (2007)

>  <Pubmed ID>
17441705

>  <DOI>
10.1021/jm070104l

$$$$
378604
Actelion Java MolfileCreator 1.0

 29 31  0  0  0  0  0  0  0  0999 V2000
    0.0000   -0.0000   -0.0000 Cl  0  0  0  0  0  0  0  0  0  0  0  0
    1.2877    0.7631   -0.0000 C   0  0  0  0  0  0  0  0  0  0  0  0
    2.5754    0.0238   -0.0000 C   0  0  0  0  0  0  0  0  0  0  0  0
    1.2758    2.2893   -0.0000 C   0  0  0  0  0  0  0  0  0  0  0  0
    3.8751    0.7869   -0.0000 C   0  0  0  0  0  0  0  0  0  0  0  0
    2.5635    3.0524   -0.0000 C   0  0  0  0  0  0  0  0  0  0  0  0
    5.1628    0.0477   -0.0000 N   0  0  0  0  0  0  0  0  0  0  0  0
    3.8631    2.3131   -0.0000 C   0  0  0  0  0  0  0  0  0  0  0  0
    6.4505    0.8108   -0.0000 C   0  0  0  0  0  0  0  0  0  0  0  0
    6.4267    2.3250   -0.0000 N   0  0  0  0  0  0  0  0  0  0  0  0
    7.7382    0.0715   -0.0000 N   0  0  0  0  0  0  0  0  0  0  0  0
    7.7144    3.1001   -0.0000 C   0  0  0  0  0  0  0  0  0  0  0  0
    9.0259    0.8346   -0.0000 C   0  0  0  0  0  0  0  0  0  0  0  0
    9.0140    2.3608   -0.0000 C   0  0  0  0  0  0  0  0  0  0  0  0
    7.6905    4.6143   -0.0000 C   0  0  0  0  0  0  0  0  0  0  0  0
   10.3017    3.1239   -0.0000 C   0  0  0  0  0  0  0  0  0  0  0  0
    6.1763    4.6024   -0.0000 F   0  0  0  0  0  0  0  0  0  0  0  0
    9.1809    4.6382   -0.0000 F   0  0  0  0  0  0  0  0  0  0  0  0
    7.6667    6.1286   -0.0000 F   0  0  0  0  0  0  0  0  0  0  0  0
   10.2898    4.6382   -0.0000 O   0  0  0  0  0  0  0  0  0  0  0  0
   11.5894    2.3847   -0.0000 N   0  0  0  0  0  0  0  0  0  0  0  0
   12.8772    3.1478   -0.0000 C   0  0  0  0  0  0  0  0  0  0  0  0
   14.1649    2.4085   -0.0000 C   0  0  0  0  0  0  0  0  0  0  0  0
   14.1530    0.9181   -0.0000 C   0  0  0  0  0  0  0  0  0  0  0  0
   15.4407    3.1835   -0.0000 C   0  0  0  0  0  0  0  0  0  0  0  0
   15.4407    0.1788   -0.0000 C   0  0  0  0  0  0  0  0  0  0  0  0
   16.7284    2.4562   -0.0000 C   0  0  0  0  0  0  0  0  0  0  0  0
   16.7284    0.9419   -0.0000 C   0  0  0  0  0  0  0  0  0  0  0  0
   18.0280    0.2027   -0.0000 F   0  0  0  0  0  0  0  0  0  0  0  0
  1  2  1  0  0  0  0
  2  3  2  0  0  0  0
  2  4  1  0  0  0  0
  3  5  1  0  0  0  0
  4  6  2  0  0  0  0
  5  7  1  0  0  0  0
  5  8  2  0  0  0  0
  7  9  1  0  0  0  0
  9 10  2  0  0  0  0
  9 11  1  0  0  0  0
 10 12  1  0  0  0  0
 11 13  2  0  0  0  0
 12 14  2  0  0  0  0
 12 15  1  0  0  0  0
 14 16  1  0  0  0  0
 15 17  1  0  0  0  0
 15 18  1  0  0  0  0
 15 19  1  0  0  0  0
 16 20  2  0  0  0  0
 16 21  1  0  0  0  0
 21 22  1  0  0  0  0
 22 23  1  0  0  0  0
 23 24  2  0  0  0  0
 23 25  1  0  0  0  0
 24 26  1  0  0  0  0
 25 27  2  0  0  0  0
 26 28  2  0  0  0  0
 28 29  1  0  0  0  0
  6  8  1  0  0  0  0
 13 14  1  0  0  0  0
 27 28  1  0  0  0  0
M  END
>  <MolRegNo>
378604

>  <m>
=

>  <Value>
5000

>  <Unit>
nM

>  <Type>
IC50

>  <pValue>
5.3

>  <Ligand Efficiency>
0

>  <Binding Efficiency>
0

>  <Surface Efficiency>
0

>  <Assay Index>
285320

>  <Assay Category>


>  <Assay Organism>
Homo sapiens

>  <Target ID>
17045

>  <Target Name>
Cytochrome P450 3A4

>  <Target Organism>
Homo sapiens

>  <Target Description>
Target is a single protein chain

>  <Sequence Accession>
P08684

>  <Reference>
J Med Chem 50 (11), 2597-2600 (2007)

>  <Pubmed ID>
17477516

>  <DOI>
10.1021/jm061195+

$$$$
378606
Actelion Java MolfileCreator 1.0

 28 30  0  0  0  0  0  0  0  0999 V2000
    0.0000   -0.0000   -0.0000 Cl  0  0  0  0  0  0  0  0  0  0  0  0
    1.2876    0.7630   -0.0000 C   0  0  0  0  0  0  0  0  0  0  0  0
    2.5752    0.0238   -0.0000 C   0  0  0  0  0  0  0  0  0  0  0  0
    1.2757    2.2890   -0.0000 C   0  0  0  0  0  0  0  0  0  0  0  0
    3.8747    0.7869   -0.0000 C   0  0  0  0  0  0  0  0  0  0  0  0
    2.5632    3.0520   -0.0000 C   0  0  0  0  0  0  0  0  0  0  0  0
    5.1622    0.0477   -0.0000 N   0  0  0  0  0  0  0  0  0  0  0  0
    3.8627    2.3129   -0.0000 C   0  0  0  0  0  0  0  0  0  0  0  0
    6.4498    0.8107   -0.0000 C   0  0  0  0  0  0  0  0  0  0  0  0
    6.4260    2.3248   -0.0000 N   0  0  0  0  0  0  0  0  0  0  0  0
    7.7374    0.0715   -0.0000 N   0  0  0  0  0  0  0  0  0  0  0  0
    7.7135    3.0997   -0.0000 C   0  0  0  0  0  0  0  0  0  0  0  0
    9.0250    0.8345   -0.0000 C   0  0  0  0  0  0  0  0  0  0  0  0
    9.0130    2.3606   -0.0000 C   0  0  0  0  0  0  0  0  0  0  0  0
    7.6897    4.6138   -0.0000 C   0  0  0  0  0  0  0  0  0  0  0  0
   10.3006    3.1236   -0.0000 C   0  0  0  0  0  0  0  0  0  0  0  0
    6.1756    4.6019   -0.0000 F   0  0  0  0  0  0  0  0  0  0  0  0
    9.1800    4.6377   -0.0000 F   0  0  0  0  0  0  0  0  0  0  0  0
    7.6659    6.1279   -0.0000 F   0  0  0  0  0  0  0  0  0  0  0  0
   10.2887    4.6377   -0.0000 O   0  0  0  0  0  0  0  0  0  0  0  0
   11.5882    2.3844   -0.0000 N   0  0  0  0  0  0  0  0  0  0  0  0
   12.8758    3.1474   -0.0000 C   0  0  0  0  0  0  0  0  0  0  0  0
   14.1634    2.4082   -0.0000 C   0  0  0  0  0  0  0  0  0  0  0  0
   14.1514    0.9180   -0.0000 C   0  0  0  0  0  0  0  0  0  0  0  0
   15.4390    3.1832   -0.0000 C   0  0  0  0  0  0  0  0  0  0  0  0
   15.4390    0.1788   -0.0000 C   0  0  0  0  0  0  0  0  0  0  0  0
   16.7266    2.4559   -0.0000 C   0  0  0  0  0  0  0  0  0  0  0  0
   16.7266    0.9418   -0.0000 C   0  0  0  0  0  0  0  0  0  0  0  0
  1  2  1  0  0  0  0
  2  3  2  0  0  0  0
  2  4  1  0  0  0  0
  3  5  1  0  0  0  0
  4  6  2  0  0  0  0
  5  7  1  0  0  0  0
  5  8  2  0  0  0  0
  7  9  1  0  0  0  0
  9 10  2  0  0  0  0
  9 11  1  0  0  0  0
 10 12  1  0  0  0  0
 11 13  2  0  0  0  0
 12 14  2  0  0  0  0
 12 15  1  0  0  0  0
 14 16  1  0  0  0  0
 15 17  1  0  0  0  0
 15 18  1  0  0  0  0
 15 19  1  0  0  0  0
 16 20  2  0  0  0  0
 16 21  1  0  0  0  0
 21 22  1  0  0  0  0
 22 23  1  0  0  0  0
 23 24  1  0  0  0  0
 23 25  1  0  0  0  0
 24 26  1  0  0  0  0
 25 27  1  0  0  0  0
 26 28  1  0  0  0  0
  6  8  1  0  0  0  0
 13 14  1  0  0  0  0
 27 28  1  0  0  0  0
M  END
>  <MolRegNo>
378606

>  <m>
=

>  <Value>
82000

>  <Unit>
nM

>  <Type>
IC50

>  <pValue>
4.09

>  <Ligand Efficiency>
0

>  <Binding Efficiency>
0

>  <Surface Efficiency>
0

>  <Assay Index>
285320

>  <Assay Category>


>  <Assay Organism>
Homo sapiens

>  <Target ID>
17045

>  <Target Name>
Cytochrome P450 3A4

>  <Target Organism>
Homo sapiens

>  <Target Description>
Target is a single protein chain

>  <Sequence Accession>
P08684

>  <Reference>
J Med Chem 50 (11), 2597-2600 (2007)

>  <Pubmed ID>
17477516

>  <DOI>
10.1021/jm061195+

$$$$
378622
Actelion Java MolfileCreator 1.0

 29 31  0  0  0  0  0  0  0  0999 V2000
    0.0000   -0.0000   -0.0000 Cl  0  0  0  0  0  0  0  0  0  0  0  0
   -0.0119   -1.4924   -0.0000 C   0  0  0  0  0  0  0  0  0  0  0  0
    1.2775   -2.2326   -0.0000 C   0  0  0  0  0  0  0  0  0  0  0  0
   -1.3253   -2.2326   -0.0000 C   0  0  0  0  0  0  0  0  0  0  0  0
    1.2656   -3.7370   -0.0000 C   0  0  0  0  0  0  0  0  0  0  0  0
   -1.3372   -3.7370   -0.0000 C   0  0  0  0  0  0  0  0  0  0  0  0
    2.5550   -4.4772   -0.0000 N   0  0  0  0  0  0  0  0  0  0  0  0
   -0.0597   -4.4772   -0.0000 C   0  0  0  0  0  0  0  0  0  0  0  0
    3.8444   -3.7131   -0.0000 C   0  0  0  0  0  0  0  0  0  0  0  0
   -0.0716   -5.9696   -0.0000 F   0  0  0  0  0  0  0  0  0  0  0  0
    3.8205   -2.1968   -0.0000 N   0  0  0  0  0  0  0  0  0  0  0  0
    5.1339   -4.4533   -0.0000 N   0  0  0  0  0  0  0  0  0  0  0  0
    5.1100   -1.4208   -0.0000 C   0  0  0  0  0  0  0  0  0  0  0  0
    6.4233   -3.6892   -0.0000 C   0  0  0  0  0  0  0  0  0  0  0  0
    6.4113   -2.1610   -0.0000 C   0  0  0  0  0  0  0  0  0  0  0  0
    5.0861    0.0955   -0.0000 C   0  0  0  0  0  0  0  0  0  0  0  0
    7.7008   -1.3969   -0.0000 C   0  0  0  0  0  0  0  0  0  0  0  0
    3.5698    0.0836   -0.0000 F   0  0  0  0  0  0  0  0  0  0  0  0
    6.5785    0.1194   -0.0000 F   0  0  0  0  0  0  0  0  0  0  0  0
    5.0622    1.6118   -0.0000 F   0  0  0  0  0  0  0  0  0  0  0  0
    7.6888    0.1194   -0.0000 O   0  0  0  0  0  0  0  0  0  0  0  0
    8.9902   -2.1371   -0.0000 N   0  0  0  0  0  0  0  0  0  0  0  0
   10.2796   -1.3730   -0.0000 C   0  0  0  0  0  0  0  0  0  0  0  0
   11.5691   -2.1132   -0.0000 C   0  0  0  0  0  0  0  0  0  0  0  0
   11.5571   -3.6056   -0.0000 C   0  0  0  0  0  0  0  0  0  0  0  0
   12.8466   -1.3372   -0.0000 C   0  0  0  0  0  0  0  0  0  0  0  0
   12.8466   -4.3459   -0.0000 C   0  0  0  0  0  0  0  0  0  0  0  0
   14.1360   -2.0655   -0.0000 C   0  0  0  0  0  0  0  0  0  0  0  0
   14.1360   -3.5818   -0.0000 O   0  0  0  0  0  0  0  0  0  0  0  0
  1  2  1  0  0  0  0
  2  3  2  0  0  0  0
  2  4  1  0  0  0  0
  3  5  1  0  0  0  0
  4  6  2  0  0  0  0
  5  7  1  0  0  0  0
  5  8  2  0  0  0  0
  7  9  1  0  0  0  0
  8 10  1  0  0  0  0
  9 11  2  0  0  0  0
  9 12  1  0  0  0  0
 11 13  1  0  0  0  0
 12 14  2  0  0  0  0
 13 15  2  0  0  0  0
 13 16  1  0  0  0  0
 15 17  1  0  0  0  0
 16 18  1  0  0  0  0
 16 19  1  0  0  0  0
 16 20  1  0  0  0  0
 17 21  2  0  0  0  0
 17 22  1  0  0  0  0
 22 23  1  0  0  0  0
 23 24  1  0  0  0  0
 24 25  1  0  0  0  0
 24 26  1  0  0  0  0
 25 27  1  0  0  0  0
 26 28  1  0  0  0  0
 27 29  1  0  0  0  0
  6  8  1  0  0  0  0
 14 15  1  0  0  0  0
 28 29  1  0  0  0  0
M  END
>  <MolRegNo>
378622

>  <m>
=

>  <Value>
68000

>  <Unit>
nM

>  <Type>
IC50

>  <pValue>
4.17

>  <Ligand Efficiency>
0

>  <Binding Efficiency>
0

>  <Surface Efficiency>
0

>  <Assay Index>
285320

>  <Assay Category>


>  <Assay Organism>
Homo sapiens

>  <Target ID>
17045

>  <Target Name>
Cytochrome P450 3A4

>  <Target Organism>
Homo sapiens

>  <Target Description>
Target is a single protein chain

>  <Sequence Accession>
P08684

>  <Reference>
J Med Chem 50 (11), 2597-2600 (2007)

>  <Pubmed ID>
17477516

>  <DOI>
10.1021/jm061195+

$$$$
378620
Actelion Java MolfileCreator 1.0

 29 31  0  0  0  0  0  0  0  0999 V2000
    0.0000   -0.0000   -0.0000 Cl  0  0  0  0  0  0  0  0  0  0  0  0
    1.2934    0.7594   -0.0000 C   0  0  0  0  0  0  0  0  0  0  0  0
    1.2815    2.2783   -0.0000 C   0  0  0  0  0  0  0  0  0  0  0  0
    2.5868    0.0237   -0.0000 C   0  0  0  0  0  0  0  0  0  0  0  0
    2.5631    3.0377   -0.0000 C   0  0  0  0  0  0  0  0  0  0  0  0
    3.8802    0.7832   -0.0000 C   0  0  0  0  0  0  0  0  0  0  0  0
    2.5512    4.5566   -0.0000 Cl  0  0  0  0  0  0  0  0  0  0  0  0
    3.8565    2.3020   -0.0000 C   0  0  0  0  0  0  0  0  0  0  0  0
    5.1736    0.0475   -0.0000 N   0  0  0  0  0  0  0  0  0  0  0  0
    6.4670    0.8069   -0.0000 C   0  0  0  0  0  0  0  0  0  0  0  0
    6.4433    2.3139   -0.0000 N   0  0  0  0  0  0  0  0  0  0  0  0
    7.7485    0.0712   -0.0000 N   0  0  0  0  0  0  0  0  0  0  0  0
    7.7248    3.0852   -0.0000 C   0  0  0  0  0  0  0  0  0  0  0  0
    9.0301    0.8306   -0.0000 C   0  0  0  0  0  0  0  0  0  0  0  0
    9.0301    2.3495   -0.0000 C   0  0  0  0  0  0  0  0  0  0  0  0
    7.7011    4.6040   -0.0000 C   0  0  0  0  0  0  0  0  0  0  0  0
   10.3116    3.1208   -0.0000 C   0  0  0  0  0  0  0  0  0  0  0  0
    6.1822    4.5922   -0.0000 F   0  0  0  0  0  0  0  0  0  0  0  0
    9.1962    4.6278   -0.0000 F   0  0  0  0  0  0  0  0  0  0  0  0
    7.6773    6.1229   -0.0000 F   0  0  0  0  0  0  0  0  0  0  0  0
   10.2997    4.6396   -0.0000 O   0  0  0  0  0  0  0  0  0  0  0  0
   11.6050    2.3851   -0.0000 N   0  0  0  0  0  0  0  0  0  0  0  0
   12.8865    3.1564   -0.0000 C   0  0  0  0  0  0  0  0  0  0  0  0
   14.1799    2.4207   -0.0000 C   0  0  0  0  0  0  0  0  0  0  0  0
   14.1681    0.9256   -0.0000 C   0  0  0  0  0  0  0  0  0  0  0  0
   15.4496    3.1920   -0.0000 C   0  0  0  0  0  0  0  0  0  0  0  0
   15.4615    0.1899   -0.0000 C   0  0  0  0  0  0  0  0  0  0  0  0
   16.7430    2.4681   -0.0000 C   0  0  0  0  0  0  0  0  0  0  0  0
   16.7549    0.9611   -0.0000 O   0  0  0  0  0  0  0  0  0  0  0  0
  1  2  1  0  0  0  0
  2  3  2  0  0  0  0
  2  4  1  0  0  0  0
  3  5  1  0  0  0  0
  4  6  2  0  0  0  0
  5  7  1  0  0  0  0
  5  8  2  0  0  0  0
  6  9  1  0  0  0  0
  9 10  1  0  0  0  0
 10 11  2  0  0  0  0
 10 12  1  0  0  0  0
 11 13  1  0  0  0  0
 12 14  2  0  0  0  0
 13 15  2  0  0  0  0
 13 16  1  0  0  0  0
 15 17  1  0  0  0  0
 16 18  1  0  0  0  0
 16 19  1  0  0  0  0
 16 20  1  0  0  0  0
 17 21  2  0  0  0  0
 17 22  1  0  0  0  0
 22 23  1  0  0  0  0
 23 24  1  0  0  0  0
 24 25  1  0  0  0  0
 24 26  1  0  0  0  0
 25 27  1  0  0  0  0
 26 28  1  0  0  0  0
 27 29  1  0  0  0  0
  6  8  1  0  0  0  0
 14 15  1  0  0  0  0
 28 29  1  0  0  0  0
M  END
>  <MolRegNo>
378620

>  <m>
=

>  <Value>
38000

>  <Unit>
nM

>  <Type>
IC50

>  <pValue>
4.42

>  <Ligand Efficiency>
0

>  <Binding Efficiency>
0

>  <Surface Efficiency>
0

>  <Assay Index>
285320

>  <Assay Category>


>  <Assay Organism>
Homo sapiens

>  <Target ID>
17045

>  <Target Name>
Cytochrome P450 3A4

>  <Target Organism>
Homo sapiens

>  <Target Description>
Target is a single protein chain

>  <Sequence Accession>
P08684

>  <Reference>
J Med Chem 50 (11), 2597-2600 (2007)

>  <Pubmed ID>
17477516

>  <DOI>
10.1021/jm061195+

$$$$
378613
Actelion Java MolfileCreator 1.0

 29 31  0  0  0  0  0  0  0  0999 V2000
    0.0000   -0.0000   -0.0000 Cl  0  0  0  0  0  0  0  0  0  0  0  0
    1.2877    0.7631   -0.0000 C   0  0  0  0  0  0  0  0  0  0  0  0
    2.5754    0.0238   -0.0000 C   0  0  0  0  0  0  0  0  0  0  0  0
    1.2758    2.2773   -0.0000 C   0  0  0  0  0  0  0  0  0  0  0  0
    3.8749    0.7869   -0.0000 C   0  0  0  0  0  0  0  0  0  0  0  0
    2.5634    3.0403   -0.0000 C   0  0  0  0  0  0  0  0  0  0  0  0
    5.1626    0.0477   -0.0000 N   0  0  0  0  0  0  0  0  0  0  0  0
    3.8630    2.3130   -0.0000 C   0  0  0  0  0  0  0  0  0  0  0  0
    6.4503    0.8108   -0.0000 C   0  0  0  0  0  0  0  0  0  0  0  0
    6.4265    2.3250   -0.0000 N   0  0  0  0  0  0  0  0  0  0  0  0
    7.7380    0.0715   -0.0000 N   0  0  0  0  0  0  0  0  0  0  0  0
    7.7141    3.1000   -0.0000 C   0  0  0  0  0  0  0  0  0  0  0  0
    9.0256    0.8346   -0.0000 C   0  0  0  0  0  0  0  0  0  0  0  0
    9.0137    2.3607   -0.0000 C   0  0  0  0  0  0  0  0  0  0  0  0
    7.6903    4.6142   -0.0000 C   0  0  0  0  0  0  0  0  0  0  0  0
   10.3014    3.1238   -0.0000 C   0  0  0  0  0  0  0  0  0  0  0  0
    6.1761    4.6022   -0.0000 F   0  0  0  0  0  0  0  0  0  0  0  0
    9.1806    4.6380   -0.0000 F   0  0  0  0  0  0  0  0  0  0  0  0
    7.6664    6.1284   -0.0000 F   0  0  0  0  0  0  0  0  0  0  0  0
   10.2895    4.6380   -0.0000 O   0  0  0  0  0  0  0  0  0  0  0  0
   11.5891    2.3846   -0.0000 N   0  0  0  0  0  0  0  0  0  0  0  0
   12.8768    3.1477   -0.0000 C   0  0  0  0  0  0  0  0  0  0  0  0
   14.1644    2.4084   -0.0000 C   0  0  0  0  0  0  0  0  0  0  0  0
   14.1406    3.9226   -0.0000 O   0  0  0  0  0  0  0  0  0  0  0  0
   14.1525    0.9181   -0.0000 C   0  0  0  0  0  0  0  0  0  0  0  0
   15.4402    3.1834   -0.0000 C   0  0  0  0  0  0  0  0  0  0  0  0
   15.4402    0.1788   -0.0000 C   0  0  0  0  0  0  0  0  0  0  0  0
   16.7279    2.4561   -0.0000 C   0  0  0  0  0  0  0  0  0  0  0  0
   16.7279    0.9419   -0.0000 C   0  0  0  0  0  0  0  0  0  0  0  0
  1  2  1  0  0  0  0
  2  3  2  0  0  0  0
  2  4  1  0  0  0  0
  3  5  1  0  0  0  0
  4  6  2  0  0  0  0
  5  7  1  0  0  0  0
  5  8  2  0  0  0  0
  7  9  1  0  0  0  0
  9 10  2  0  0  0  0
  9 11  1  0  0  0  0
 10 12  1  0  0  0  0
 11 13  2  0  0  0  0
 12 14  2  0  0  0  0
 12 15  1  0  0  0  0
 14 16  1  0  0  0  0
 15 17  1  0  0  0  0
 15 18  1  0  0  0  0
 15 19  1  0  0  0  0
 16 20  2  0  0  0  0
 16 21  1  0  0  0  0
 21 22  1  0  0  0  0
 22 23  1  0  0  0  0
 23 24  1  0  0  0  0
 23 25  1  0  0  0  0
 23 26  1  0  0  0  0
 25 27  1  0  0  0  0
 26 28  1  0  0  0  0
 27 29  1  0  0  0  0
  6  8  1  0  0  0  0
 13 14  1  0  0  0  0
 28 29  1  0  0  0  0
M  END
>  <MolRegNo>
378613

>  <m>
=

>  <Value>
10000

>  <Unit>
nM

>  <Type>
IC50

>  <pValue>
5

>  <Ligand Efficiency>
0

>  <Binding Efficiency>
0

>  <Surface Efficiency>
0

>  <Assay Index>
285320

>  <Assay Category>


>  <Assay Organism>
Homo sapiens

>  <Target ID>
17045

>  <Target Name>
Cytochrome P450 3A4

>  <Target Organism>
Homo sapiens

>  <Target Description>
Target is a single protein chain

>  <Sequence Accession>
P08684

>  <Reference>
J Med Chem 50 (11), 2597-2600 (2007)

>  <Pubmed ID>
17477516

>  <DOI>
10.1021/jm061195+

$$$$
378612
Actelion Java MolfileCreator 1.0

 26 28  0  0  0  0  0  0  0  0999 V2000
    0.0000   -0.0000   -0.0000 Cl  0  0  0  0  0  0  0  0  0  0  0  0
    1.2882    0.7634   -0.0000 C   0  0  0  0  0  0  0  0  0  0  0  0
    2.5764    0.0239   -0.0000 C   0  0  0  0  0  0  0  0  0  0  0  0
    1.2763    2.2782   -0.0000 C   0  0  0  0  0  0  0  0  0  0  0  0
    3.8765    0.7872   -0.0000 C   0  0  0  0  0  0  0  0  0  0  0  0
    2.5645    3.0416   -0.0000 C   0  0  0  0  0  0  0  0  0  0  0  0
    5.1647    0.0477   -0.0000 N   0  0  0  0  0  0  0  0  0  0  0  0
    3.8646    2.3140   -0.0000 C   0  0  0  0  0  0  0  0  0  0  0  0
    6.4529    0.8111   -0.0000 C   0  0  0  0  0  0  0  0  0  0  0  0
    6.4290    2.3259   -0.0000 N   0  0  0  0  0  0  0  0  0  0  0  0
    7.7411    0.0716   -0.0000 N   0  0  0  0  0  0  0  0  0  0  0  0
    7.7172    3.0893   -0.0000 C   0  0  0  0  0  0  0  0  0  0  0  0
    9.0293    0.8349   -0.0000 C   0  0  0  0  0  0  0  0  0  0  0  0
    9.0174    2.3498   -0.0000 C   0  0  0  0  0  0  0  0  0  0  0  0
    7.6934    4.6041   -0.0000 C   0  0  0  0  0  0  0  0  0  0  0  0
   10.3056    3.1131   -0.0000 C   0  0  0  0  0  0  0  0  0  0  0  0
    6.1786    4.5922   -0.0000 F   0  0  0  0  0  0  0  0  0  0  0  0
    9.1844    4.6280   -0.0000 F   0  0  0  0  0  0  0  0  0  0  0  0
    7.6695    6.1189   -0.0000 F   0  0  0  0  0  0  0  0  0  0  0  0
   10.2936    4.6280   -0.0000 O   0  0  0  0  0  0  0  0  0  0  0  0
   11.5938    2.3736   -0.0000 N   0  0  0  0  0  0  0  0  0  0  0  0
   12.8819    3.1370   -0.0000 C   0  0  0  0  0  0  0  0  0  0  0  0
   14.1701    2.3975   -0.0000 C   0  0  0  0  0  0  0  0  0  0  0  0
   14.5518    0.9542   -0.0000 C   0  0  0  0  0  0  0  0  0  0  0  0
   15.6015    2.8030   -0.0000 C   0  0  0  0  0  0  0  0  0  0  0  0
   15.9951    1.3598   -0.0000 C   0  0  0  0  0  0  0  0  0  0  0  0
  1  2  1  0  0  0  0
  2  3  2  0  0  0  0
  2  4  1  0  0  0  0
  3  5  1  0  0  0  0
  4  6  2  0  0  0  0
  5  7  1  0  0  0  0
  5  8  2  0  0  0  0
  7  9  1  0  0  0  0
  9 10  2  0  0  0  0
  9 11  1  0  0  0  0
 10 12  1  0  0  0  0
 11 13  2  0  0  0  0
 12 14  2  0  0  0  0
 12 15  1  0  0  0  0
 14 16  1  0  0  0  0
 15 17  1  0  0  0  0
 15 18  1  0  0  0  0
 15 19  1  0  0  0  0
 16 20  2  0  0  0  0
 16 21  1  0  0  0  0
 21 22  1  0  0  0  0
 22 23  1  0  0  0  0
 23 24  1  0  0  0  0
 23 25  1  0  0  0  0
 24 26  1  0  0  0  0
  6  8  1  0  0  0  0
 13 14  1  0  0  0  0
 25 26  1  0  0  0  0
M  END
>  <MolRegNo>
378612

>  <m>
=

>  <Value>
75000

>  <Unit>
nM

>  <Type>
IC50

>  <pValue>
4.12

>  <Ligand Efficiency>
0

>  <Binding Efficiency>
0

>  <Surface Efficiency>
0

>  <Assay Index>
285320

>  <Assay Category>


>  <Assay Organism>
Homo sapiens

>  <Target ID>
17045

>  <Target Name>
Cytochrome P450 3A4

>  <Target Organism>
Homo sapiens

>  <Target Description>
Target is a single protein chain

>  <Sequence Accession>
P08684

>  <Reference>
J Med Chem 50 (11), 2597-2600 (2007)

>  <Pubmed ID>
17477516

>  <DOI>
10.1021/jm061195+

$$$$
378611
Actelion Java MolfileCreator 1.0

 27 29  0  0  0  0  0  0  0  0999 V2000
    0.0000   -0.0000   -0.0000 Cl  0  0  0  0  0  0  0  0  0  0  0  0
    1.2873    0.7628   -0.0000 C   0  0  0  0  0  0  0  0  0  0  0  0
    2.5746    0.0238   -0.0000 C   0  0  0  0  0  0  0  0  0  0  0  0
    1.2754    2.2885   -0.0000 C   0  0  0  0  0  0  0  0  0  0  0  0
    3.8738    0.7867   -0.0000 C   0  0  0  0  0  0  0  0  0  0  0  0
    2.5627    3.0514   -0.0000 C   0  0  0  0  0  0  0  0  0  0  0  0
    5.1611    0.0477   -0.0000 N   0  0  0  0  0  0  0  0  0  0  0  0
    3.8619    2.3124   -0.0000 C   0  0  0  0  0  0  0  0  0  0  0  0
    6.4484    0.8105   -0.0000 C   0  0  0  0  0  0  0  0  0  0  0  0
    6.4246    2.3243   -0.0000 N   0  0  0  0  0  0  0  0  0  0  0  0
    7.7357    0.0715   -0.0000 N   0  0  0  0  0  0  0  0  0  0  0  0
    7.7119    3.0991   -0.0000 C   0  0  0  0  0  0  0  0  0  0  0  0
    9.0230    0.8344   -0.0000 C   0  0  0  0  0  0  0  0  0  0  0  0
    9.0111    2.3601   -0.0000 C   0  0  0  0  0  0  0  0  0  0  0  0
    7.6880    4.6128   -0.0000 C   0  0  0  0  0  0  0  0  0  0  0  0
   10.2984    3.1229   -0.0000 C   0  0  0  0  0  0  0  0  0  0  0  0
    6.1743    4.6009   -0.0000 F   0  0  0  0  0  0  0  0  0  0  0  0
    9.1780    4.6367   -0.0000 F   0  0  0  0  0  0  0  0  0  0  0  0
    7.6642    6.1266   -0.0000 F   0  0  0  0  0  0  0  0  0  0  0  0
   10.2865    4.6367   -0.0000 O   0  0  0  0  0  0  0  0  0  0  0  0
   11.5857    2.3839   -0.0000 N   0  0  0  0  0  0  0  0  0  0  0  0
   12.8730    3.1467   -0.0000 C   0  0  0  0  0  0  0  0  0  0  0  0
   14.1603    2.4077   -0.0000 C   0  0  0  0  0  0  0  0  0  0  0  0
   14.3153    0.9297   -0.0000 C   0  0  0  0  0  0  0  0  0  0  0  0
   15.5191    3.0395   -0.0000 C   0  0  0  0  0  0  0  0  0  0  0  0
   15.7694    0.6317   -0.0000 C   0  0  0  0  0  0  0  0  0  0  0  0
   16.5204    1.9429   -0.0000 C   0  0  0  0  0  0  0  0  0  0  0  0
  1  2  1  0  0  0  0
  2  3  2  0  0  0  0
  2  4  1  0  0  0  0
  3  5  1  0  0  0  0
  4  6  2  0  0  0  0
  5  7  1  0  0  0  0
  5  8  2  0  0  0  0
  7  9  1  0  0  0  0
  9 10  2  0  0  0  0
  9 11  1  0  0  0  0
 10 12  1  0  0  0  0
 11 13  2  0  0  0  0
 12 14  2  0  0  0  0
 12 15  1  0  0  0  0
 14 16  1  0  0  0  0
 15 17  1  0  0  0  0
 15 18  1  0  0  0  0
 15 19  1  0  0  0  0
 16 20  2  0  0  0  0
 16 21  1  0  0  0  0
 21 22  1  0  0  0  0
 22 23  1  0  0  0  0
 23 24  1  0  0  0  0
 23 25  1  0  0  0  0
 24 26  1  0  0  0  0
 25 27  1  0  0  0  0
  6  8  1  0  0  0  0
 13 14  1  0  0  0  0
 26 27  1  0  0  0  0
M  END
>  <MolRegNo>
378611

>  <m>
=

>  <Value>
65000

>  <Unit>
nM

>  <Type>
IC50

>  <pValue>
4.19

>  <Ligand Efficiency>
0

>  <Binding Efficiency>
0

>  <Surface Efficiency>
0

>  <Assay Index>
285320

>  <Assay Category>


>  <Assay Organism>
Homo sapiens

>  <Target ID>
17045

>  <Target Name>
Cytochrome P450 3A4

>  <Target Organism>
Homo sapiens

>  <Target Description>
Target is a single protein chain

>  <Sequence Accession>
P08684

>  <Reference>
J Med Chem 50 (11), 2597-2600 (2007)

>  <Pubmed ID>
17477516

>  <DOI>
10.1021/jm061195+

$$$$
378610
Actelion Java MolfileCreator 1.0

 28 30  0  0  0  0  0  0  0  0999 V2000
    0.0000   -0.0000   -0.0000 Cl  0  0  0  0  0  0  0  0  0  0  0  0
    1.2886    0.7636   -0.0000 C   0  0  0  0  0  0  0  0  0  0  0  0
    2.5772    0.0239   -0.0000 C   0  0  0  0  0  0  0  0  0  0  0  0
    1.2767    2.2789   -0.0000 C   0  0  0  0  0  0  0  0  0  0  0  0
    3.8777    0.7875   -0.0000 C   0  0  0  0  0  0  0  0  0  0  0  0
    2.5653    3.0425   -0.0000 C   0  0  0  0  0  0  0  0  0  0  0  0
    5.1663    0.0477   -0.0000 N   0  0  0  0  0  0  0  0  0  0  0  0
    3.8658    2.3147   -0.0000 C   0  0  0  0  0  0  0  0  0  0  0  0
    6.4550    0.8113   -0.0000 C   0  0  0  0  0  0  0  0  0  0  0  0
    6.4311    2.3266   -0.0000 N   0  0  0  0  0  0  0  0  0  0  0  0
    7.7436    0.0716   -0.0000 N   0  0  0  0  0  0  0  0  0  0  0  0
    7.7197    3.0903   -0.0000 C   0  0  0  0  0  0  0  0  0  0  0  0
    9.0322    0.8352   -0.0000 C   0  0  0  0  0  0  0  0  0  0  0  0
    9.0202    2.3505   -0.0000 C   0  0  0  0  0  0  0  0  0  0  0  0
    7.6958    4.6056   -0.0000 C   0  0  0  0  0  0  0  0  0  0  0  0
   10.3088    3.1141   -0.0000 C   0  0  0  0  0  0  0  0  0  0  0  0
    6.1805    4.5936   -0.0000 F   0  0  0  0  0  0  0  0  0  0  0  0
    9.1873    4.6294   -0.0000 F   0  0  0  0  0  0  0  0  0  0  0  0
    7.6720    6.1209   -0.0000 F   0  0  0  0  0  0  0  0  0  0  0  0
   10.2969    4.6294   -0.0000 O   0  0  0  0  0  0  0  0  0  0  0  0
   11.5974    2.3744   -0.0000 N   0  0  0  0  0  0  0  0  0  0  0  0
   12.8860    3.1380   -0.0000 C   0  0  0  0  0  0  0  0  0  0  0  0
   14.1746    2.3982   -0.0000 C   0  0  0  0  0  0  0  0  0  0  0  0
   14.1627    0.9068   -0.0000 C   0  0  0  0  0  0  0  0  0  0  0  0
   15.4513    3.1738   -0.0000 C   0  0  0  0  0  0  0  0  0  0  0  0
   15.4513    0.1670   -0.0000 C   0  0  0  0  0  0  0  0  0  0  0  0
   16.7399    2.4460   -0.0000 C   0  0  0  0  0  0  0  0  0  0  0  0
   16.7399    0.9307   -0.0000 O   0  0  0  0  0  0  0  0  0  0  0  0
  1  2  1  0  0  0  0
  2  3  2  0  0  0  0
  2  4  1  0  0  0  0
  3  5  1  0  0  0  0
  4  6  2  0  0  0  0
  5  7  1  0  0  0  0
  5  8  2  0  0  0  0
  7  9  1  0  0  0  0
  9 10  2  0  0  0  0
  9 11  1  0  0  0  0
 10 12  1  0  0  0  0
 11 13  2  0  0  0  0
 12 14  2  0  0  0  0
 12 15  1  0  0  0  0
 14 16  1  0  0  0  0
 15 17  1  0  0  0  0
 15 18  1  0  0  0  0
 15 19  1  0  0  0  0
 16 20  2  0  0  0  0
 16 21  1  0  0  0  0
 21 22  1  0  0  0  0
 22 23  1  0  0  0  0
 23 24  1  0  0  0  0
 23 25  1  0  0  0  0
 24 26  1  0  0  0  0
 25 27  1  0  0  0  0
 26 28  1  0  0  0  0
  6  8  1  0  0  0  0
 13 14  1  0  0  0  0
 27 28  1  0  0  0  0
M  END
>  <MolRegNo>
378610

>  <m>
=

>  <Value>
51000

>  <Unit>
nM

>  <Type>
IC50

>  <pValue>
4.29

>  <Ligand Efficiency>
0

>  <Binding Efficiency>
0

>  <Surface Efficiency>
0

>  <Assay Index>
285320

>  <Assay Category>


>  <Assay Organism>
Homo sapiens

>  <Target ID>
17045

>  <Target Name>
Cytochrome P450 3A4

>  <Target Organism>
Homo sapiens

>  <Target Description>
Target is a single protein chain

>  <Sequence Accession>
P08684

>  <Reference>
J Med Chem 50 (11), 2597-2600 (2007)

>  <Pubmed ID>
17477516

>  <DOI>
10.1021/jm061195+

$$$$
383964
Actelion Java MolfileCreator 1.0

 26 28  0  0  0  0  0  0  0  0999 V2000
    0.0000   -0.0000   -0.0000 S   0  0  0  0  0  0  0  0  0  0  0  0
    0.7325    1.3089   -0.0000 O   0  0  0  0  0  0  0  0  0  0  0  0
   -0.7565   -1.2849   -0.0000 O   0  0  0  0  0  0  0  0  0  0  0  0
    1.2969   -0.7325   -0.0000 N   0  0  0  0  0  0  0  0  0  0  0  0
   -1.3089    0.7565   -0.0000 C   0  0  0  0  0  0  0  0  0  0  0  0
    2.5818    0.0240   -0.0000 C   0  0  0  0  0  0  0  0  0  0  0  0
   -2.6058    0.0360   -0.0000 C   0  0  0  0  0  0  0  0  0  0  0  0
   -1.3209    2.2936   -0.0000 C   0  0  0  0  0  0  0  0  0  0  0  0
    3.8787   -0.7205   -0.0000 C   0  0  0  0  0  0  0  0  0  0  0  0
    2.5698    1.5251   -0.0000 C   0  0  0  0  0  0  0  0  0  0  0  0
   -3.9027    0.8166   -0.0000 C   0  0  0  0  0  0  0  0  0  0  0  0
   -2.6298    3.0501   -0.0000 C   0  0  0  0  0  0  0  0  0  0  0  0
    5.1516    0.0360   -0.0000 C   0  0  0  0  0  0  0  0  0  0  0  0
    3.8667    2.2936   -0.0000 C   0  0  0  0  0  0  0  0  0  0  0  0
   -3.9147    2.3296   -0.0000 C   0  0  0  0  0  0  0  0  0  0  0  0
    5.1516    1.5491   -0.0000 C   0  0  0  0  0  0  0  0  0  0  0  0
    6.3404   -0.8886   -0.0000 C   0  0  0  0  0  0  0  0  0  0  0  0
   -5.2356    3.0981   -0.0000 C   0  0  0  0  0  0  0  0  0  0  0  0
    6.3164    2.4977   -0.0000 C   0  0  0  0  0  0  0  0  0  0  0  0
    7.7934   -0.5284   -0.0000 C   0  0  0  0  0  0  0  0  0  0  0  0
   -6.5445    2.3536   -0.0000 C   0  0  0  0  0  0  0  0  0  0  0  0
    7.7573    2.1855   -0.0000 C   0  0  0  0  0  0  0  0  0  0  0  0
    8.4058    0.8526   -0.0000 N   0  0  0  0  0  0  0  0  0  0  0  0
   -7.8534    3.1222   -0.0000 C   0  0  0  0  0  0  0  0  0  0  0  0
    9.8828    0.8646   -0.0000 C   0  0  0  0  0  0  0  0  0  0  0  0
   -9.1623    2.3896   -0.0000 C   0  0  0  0  0  0  0  0  0  0  0  0
  1  2  2  0  0  0  0
  1  3  2  0  0  0  0
  1  4  1  0  0  0  0
  1  5  1  0  0  0  0
  4  6  1  0  0  0  0
  5  7  2  0  0  0  0
  5  8  1  0  0  0  0
  6  9  2  0  0  0  0
  6 10  1  0  0  0  0
  7 11  1  0  0  0  0
  8 12  2  0  0  0  0
  9 13  1  0  0  0  0
 10 14  2  0  0  0  0
 11 15  2  0  0  0  0
 13 16  2  0  0  0  0
 13 17  1  0  0  0  0
 15 18  1  0  0  0  0
 16 19  1  0  0  0  0
 17 20  1  0  0  0  0
 18 21  1  0  0  0  0
 19 22  1  0  0  0  0
 20 23  1  0  0  0  0
 21 24  1  0  0  0  0
 23 25  1  0  0  0  0
 24 26  1  0  0  0  0
 12 15  1  0  0  0  0
 14 16  1  0  0  0  0
 22 23  1  0  0  0  0
M  END
>  <MolRegNo>
383964

>  <m>
=

>  <Value>
12000

>  <Unit>
nM

>  <Type>
IC50

>  <pValue>
4.92

>  <Ligand Efficiency>
0

>  <Binding Efficiency>
0

>  <Surface Efficiency>
0

>  <Assay Index>
286490

>  <Assay Category>


>  <Assay Organism>


>  <Target ID>
17045

>  <Target Name>
Cytochrome P450 3A4

>  <Target Organism>
Homo sapiens

>  <Target Description>
Target is a single protein chain

>  <Sequence Accession>
P08684

>  <Reference>
Bioorg Med Chem Lett 17 (2), 400-405 (2007)

>  <Pubmed ID>
17084080

>  <DOI>
10.1016/j.bmcl.2006.10.036

$$$$
383965
Actelion Java MolfileCreator 1.0

 29 32  0  0  0  0  0  0  0  0999 V2000
    0.0000   -0.0000   -0.0000 Cl  0  0  0  0  0  0  0  0  0  0  0  0
    1.2890   -0.7400   -0.0000 C   0  0  0  0  0  0  0  0  0  0  0  0
    1.2770   -2.2437   -0.0000 C   0  0  0  0  0  0  0  0  0  0  0  0
    2.5899    0.0358   -0.0000 C   0  0  0  0  0  0  0  0  0  0  0  0
    2.5660   -2.9837   -0.0000 C   0  0  0  0  0  0  0  0  0  0  0  0
    3.8788   -0.7042   -0.0000 C   0  0  0  0  0  0  0  0  0  0  0  0
    3.8549   -2.2079   -0.0000 C   0  0  0  0  0  0  0  0  0  0  0  0
    5.1558   -2.9598   -0.0000 C   0  0  0  0  0  0  0  0  0  0  0  0
    5.1320   -4.4636   -0.0000 C   0  0  0  0  0  0  0  0  0  0  0  0
    6.4448   -2.2079   -0.0000 C   0  0  0  0  0  0  0  0  0  0  0  0
    6.4448   -5.2155   -0.0000 C   0  0  0  0  0  0  0  0  0  0  0  0
    7.7218   -2.9360   -0.0000 C   0  0  0  0  0  0  0  0  0  0  0  0
    7.7218   -4.4636   -0.0000 C   0  0  0  0  0  0  0  0  0  0  0  0
    9.0227   -5.2036   -0.0000 S   0  0  0  0  0  0  0  0  0  0  0  0
    9.7746   -3.8669   -0.0000 O   0  0  0  0  0  0  0  0  0  0  0  0
    8.2589   -6.4925   -0.0000 O   0  0  0  0  0  0  0  0  0  0  0  0
   10.3236   -5.9555   -0.0000 N   0  0  0  0  0  0  0  0  0  0  0  0
   11.6245   -5.1797   -0.0000 C   0  0  0  0  0  0  0  0  0  0  0  0
   12.9135   -5.9197   -0.0000 C   0  0  0  0  0  0  0  0  0  0  0  0
   11.6126   -3.6759   -0.0000 C   0  0  0  0  0  0  0  0  0  0  0  0
   14.2024   -5.1558   -0.0000 C   0  0  0  0  0  0  0  0  0  0  0  0
   12.9015   -2.9121   -0.0000 C   0  0  0  0  0  0  0  0  0  0  0  0
   14.1905   -3.6401   -0.0000 C   0  0  0  0  0  0  0  0  0  0  0  0
   15.3959   -6.0867   -0.0000 C   0  0  0  0  0  0  0  0  0  0  0  0
   15.3601   -2.6853   -0.0000 C   0  0  0  0  0  0  0  0  0  0  0  0
   16.8519   -5.7168   -0.0000 C   0  0  0  0  0  0  0  0  0  0  0  0
   16.8161   -3.0076   -0.0000 C   0  0  0  0  0  0  0  0  0  0  0  0
   17.4606   -4.3204   -0.0000 N   0  0  0  0  0  0  0  0  0  0  0  0
   18.9525   -4.3085   -0.0000 C   0  0  0  0  0  0  0  0  0  0  0  0
  1  2  1  0  0  0  0
  2  3  2  0  0  0  0
  2  4  1  0  0  0  0
  3  5  1  0  0  0  0
  4  6  2  0  0  0  0
  5  7  2  0  0  0  0
  7  8  1  0  0  0  0
  8  9  2  0  0  0  0
  8 10  1  0  0  0  0
  9 11  1  0  0  0  0
 10 12  2  0  0  0  0
 11 13  2  0  0  0  0
 13 14  1  0  0  0  0
 14 15  2  0  0  0  0
 14 16  2  0  0  0  0
 14 17  1  0  0  0  0
 17 18  1  0  0  0  0
 18 19  2  0  0  0  0
 18 20  1  0  0  0  0
 19 21  1  0  0  0  0
 20 22  2  0  0  0  0
 21 23  2  0  0  0  0
 21 24  1  0  0  0  0
 23 25  1  0  0  0  0
 24 26  1  0  0  0  0
 25 27  1  0  0  0  0
 26 28  1  0  0  0  0
 28 29  1  0  0  0  0
  6  7  1  0  0  0  0
 12 13  1  0  0  0  0
 22 23  1  0  0  0  0
 27 28  1  0  0  0  0
M  END
>  <MolRegNo>
383965

>  <m>
=

>  <Value>
58000

>  <Unit>
nM

>  <Type>
IC50

>  <pValue>
4.24

>  <Ligand Efficiency>
0

>  <Binding Efficiency>
0

>  <Surface Efficiency>
0

>  <Assay Index>
286490

>  <Assay Category>


>  <Assay Organism>


>  <Target ID>
17045

>  <Target Name>
Cytochrome P450 3A4

>  <Target Organism>
Homo sapiens

>  <Target Description>
Target is a single protein chain

>  <Sequence Accession>
P08684

>  <Reference>
Bioorg Med Chem Lett 17 (2), 400-405 (2007)

>  <Pubmed ID>
17084080

>  <DOI>
10.1016/j.bmcl.2006.10.036

$$$$
383987
Actelion Java MolfileCreator 1.0

 33 36  0  0  0  0  0  0  0  0999 V2000
    0.0000   -0.0000   -0.0000 Cl  0  0  0  0  0  0  0  0  0  0  0  0
    1.3246   -0.7587   -0.0000 C   0  0  0  0  0  0  0  0  0  0  0  0
    1.3126   -2.2278   -0.0000 C   0  0  0  0  0  0  0  0  0  0  0  0
    2.6011   -0.0000   -0.0000 C   0  0  0  0  0  0  0  0  0  0  0  0
    2.5770   -2.9624   -0.0000 C   0  0  0  0  0  0  0  0  0  0  0  0
    3.8776   -0.7225   -0.0000 C   0  0  0  0  0  0  0  0  0  0  0  0
    3.8896   -2.1796   -0.0000 C   0  0  0  0  0  0  0  0  0  0  0  0
    5.2022   -2.9383   -0.0000 C   0  0  0  0  0  0  0  0  0  0  0  0
    5.1901   -4.4195   -0.0000 C   0  0  0  0  0  0  0  0  0  0  0  0
    6.4787   -2.1796   -0.0000 C   0  0  0  0  0  0  0  0  0  0  0  0
    6.4787   -5.1540   -0.0000 C   0  0  0  0  0  0  0  0  0  0  0  0
    7.7792   -2.8901   -0.0000 C   0  0  0  0  0  0  0  0  0  0  0  0
    7.7792   -4.3833   -0.0000 C   0  0  0  0  0  0  0  0  0  0  0  0
    9.0677   -5.1299   -0.0000 S   0  0  0  0  0  0  0  0  0  0  0  0
    9.8143   -3.8173   -0.0000 O   0  0  0  0  0  0  0  0  0  0  0  0
    8.3091   -6.4184   -0.0000 O   0  0  0  0  0  0  0  0  0  0  0  0
   10.3683   -5.8765   -0.0000 N   0  0  0  0  0  0  0  0  0  0  0  0
   11.6688   -5.1059   -0.0000 C   0  0  0  0  0  0  0  0  0  0  0  0
   11.6327   -3.5645   -0.0000 C   0  0  0  0  0  0  0  0  0  0  0  0
   12.9573   -5.8525   -0.0000 C   0  0  0  0  0  0  0  0  0  0  0  0
   10.3321   -2.8058   -0.0000 N   0  0  0  0  0  0  0  0  0  0  0  0
   12.9453   -2.7938   -0.0000 C   0  0  0  0  0  0  0  0  0  0  0  0
   14.2579   -5.0818   -0.0000 C   0  0  0  0  0  0  0  0  0  0  0  0
   10.3201   -1.2885   -0.0000 C   0  0  0  0  0  0  0  0  0  0  0  0
   14.2458   -3.5404   -0.0000 C   0  0  0  0  0  0  0  0  0  0  0  0
   15.4380   -5.9849   -0.0000 C   0  0  0  0  0  0  0  0  0  0  0  0
    8.9955   -0.5178   -0.0000 C   0  0  0  0  0  0  0  0  0  0  0  0
   11.6086   -0.5299   -0.0000 C   0  0  0  0  0  0  0  0  0  0  0  0
   15.4019   -2.5891   -0.0000 C   0  0  0  0  0  0  0  0  0  0  0  0
   16.8951   -5.6237   -0.0000 C   0  0  0  0  0  0  0  0  0  0  0  0
   16.8589   -2.9021   -0.0000 C   0  0  0  0  0  0  0  0  0  0  0  0
   17.5333   -4.2388   -0.0000 N   0  0  0  0  0  0  0  0  0  0  0  0
   19.0265   -4.2268   -0.0000 C   0  0  0  0  0  0  0  0  0  0  0  0
  1  2  1  0  0  0  0
  2  3  2  0  0  0  0
  2  4  1  0  0  0  0
  3  5  1  0  0  0  0
  4  6  2  0  0  0  0
  5  7  2  0  0  0  0
  7  8  1  0  0  0  0
  8  9  2  0  0  0  0
  8 10  1  0  0  0  0
  9 11  1  0  0  0  0
 10 12  2  0  0  0  0
 11 13  2  0  0  0  0
 13 14  1  0  0  0  0
 14 15  2  0  0  0  0
 14 16  2  0  0  0  0
 14 17  1  0  0  0  0
 17 18  1  0  0  0  0
 18 19  2  0  0  0  0
 18 20  1  0  0  0  0
 19 21  1  0  0  0  0
 19 22  1  0  0  0  0
 20 23  2  0  0  0  0
 21 24  1  0  0  0  0
 22 25  2  0  0  0  0
 23 26  1  0  0  0  0
 24 27  1  0  0  0  0
 24 28  1  0  0  0  0
 25 29  1  0  0  0  0
 26 30  1  0  0  0  0
 29 31  1  0  0  0  0
 30 32  1  0  0  0  0
 32 33  1  0  0  0  0
  6  7  1  0  0  0  0
 12 13  1  0  0  0  0
 23 25  1  0  0  0  0
 31 32  1  0  0  0  0
M  END
>  <MolRegNo>
383987

>  <m>
=

>  <Value>
7500

>  <Unit>
nM

>  <Type>
IC50

>  <pValue>
5.12

>  <Ligand Efficiency>
0

>  <Binding Efficiency>
0

>  <Surface Efficiency>
0

>  <Assay Index>
286490

>  <Assay Category>


>  <Assay Organism>


>  <Target ID>
17045

>  <Target Name>
Cytochrome P450 3A4

>  <Target Organism>
Homo sapiens

>  <Target Description>
Target is a single protein chain

>  <Sequence Accession>
P08684

>  <Reference>
Bioorg Med Chem Lett 17 (2), 400-405 (2007)

>  <Pubmed ID>
17084080

>  <DOI>
10.1016/j.bmcl.2006.10.036

$$$$
367769
Actelion Java MolfileCreator 1.0

 34 38  0  0  0  0  0  0  0  0999 V2000
    0.0000   -0.0000   -0.0000 O   0  0  0  0  0  0  0  0  0  0  0  0
    1.3154    0.7844   -0.0000 C   0  0  0  0  0  0  0  0  0  0  0  0
    0.0000   -1.5206   -0.0000 C   0  0  0  0  0  0  0  0  0  0  0  0
    1.3034    2.3292   -0.0000 C   0  0  0  0  0  0  0  0  0  0  0  0
    2.6309    0.0362   -0.0000 C   0  0  0  0  0  0  0  0  0  0  0  0
   -1.3396   -2.2809   -0.0000 C   0  0  0  0  0  0  0  0  0  0  0  0
    2.6188    3.1136   -0.0000 C   0  0  0  0  0  0  0  0  0  0  0  0
    3.9463    0.8206   -0.0000 C   0  0  0  0  0  0  0  0  0  0  0  0
   -1.3396   -3.8015   -0.0000 N   0  0  0  0  0  0  0  0  0  0  0  0
    3.9343    2.3654   -0.0000 C   0  0  0  0  0  0  0  0  0  0  0  0
   -2.5826   -4.6704   -0.0000 C   0  0  0  0  0  0  0  0  0  0  0  0
   -0.1086   -4.6583   -0.0000 C   0  0  0  0  0  0  0  0  0  0  0  0
    5.2497    3.1498   -0.0000 N   0  0  0  0  0  0  0  0  0  0  0  0
   -2.1119   -6.1065   -0.0000 C   0  0  0  0  0  0  0  0  0  0  0  0
   -0.5793   -6.1065   -0.0000 C   0  0  0  0  0  0  0  0  0  0  0  0
    6.5651    2.4016   -0.0000 C   0  0  0  0  0  0  0  0  0  0  0  0
    6.5531    0.8810   -0.0000 N   0  0  0  0  0  0  0  0  0  0  0  0
    7.8806    3.1740   -0.0000 N   0  0  0  0  0  0  0  0  0  0  0  0
    7.8685    0.1328   -0.0000 N   0  0  0  0  0  0  0  0  0  0  0  0
    9.1960    2.4257   -0.0000 C   0  0  0  0  0  0  0  0  0  0  0  0
    9.1839    0.9051   -0.0000 C   0  0  0  0  0  0  0  0  0  0  0  0
   10.5115    3.1981   -0.0000 C   0  0  0  0  0  0  0  0  0  0  0  0
   10.4994    0.1569   -0.0000 C   0  0  0  0  0  0  0  0  0  0  0  0
   11.8269    2.4499   -0.0000 C   0  0  0  0  0  0  0  0  0  0  0  0
   10.4994    4.4411   -0.0000 C   0  0  0  0  0  0  0  0  0  0  0  0
   11.8148    0.9293   -0.0000 C   0  0  0  0  0  0  0  0  0  0  0  0
   13.1303    0.1810   -0.0000 C   0  0  0  0  0  0  0  0  0  0  0  0
   13.1182   -1.3396   -0.0000 C   0  0  0  0  0  0  0  0  0  0  0  0
   14.4457    0.9534   -0.0000 C   0  0  0  0  0  0  0  0  0  0  0  0
   14.4336   -2.0999   -0.0000 C   0  0  0  0  0  0  0  0  0  0  0  0
   12.0441   -1.9430   -0.0000 C   0  0  0  0  0  0  0  0  0  0  0  0
   15.7611    0.1931   -0.0000 C   0  0  0  0  0  0  0  0  0  0  0  0
   14.4336    2.1964   -0.0000 C   0  0  0  0  0  0  0  0  0  0  0  0
   15.7491   -1.3275   -0.0000 C   0  0  0  0  0  0  0  0  0  0  0  0
  1  2  1  0  0  0  0
  1  3  1  0  0  0  0
  2  4  2  0  0  0  0
  2  5  1  0  0  0  0
  3  6  1  0  0  0  0
  4  7  1  0  0  0  0
  5  8  2  0  0  0  0
  6  9  1  0  0  0  0
  7 10  2  0  0  0  0
  9 11  1  0  0  0  0
  9 12  1  0  0  0  0
 10 13  1  0  0  0  0
 11 14  1  0  0  0  0
 12 15  1  0  0  0  0
 13 16  1  0  0  0  0
 16 17  1  0  0  0  0
 16 18  2  0  0  0  0
 17 19  2  0  0  0  0
 18 20  1  0  0  0  0
 19 21  1  0  0  0  0
 20 22  2  0  0  0  0
 21 23  2  0  0  0  0
 22 24  1  0  0  0  0
 22 25  1  0  0  0  0
 23 26  1  0  0  0  0
 26 27  1  0  0  0  0
 27 28  2  0  0  0  0
 27 29  1  0  0  0  0
 28 30  1  0  0  0  0
 28 31  1  0  0  0  0
 29 32  2  0  0  0  0
 29 33  1  0  0  0  0
 30 34  2  0  0  0  0
  8 10  1  0  0  0  0
 14 15  1  0  0  0  0
 20 21  1  0  0  0  0
 24 26  2  0  0  0  0
 32 34  1  0  0  0  0
M  END
>  <MolRegNo>
367769

>  <m>
=

>  <Value>
42000

>  <Unit>
nM

>  <Type>
IC50

>  <pValue>
4.38

>  <Ligand Efficiency>
0

>  <Binding Efficiency>
0

>  <Surface Efficiency>
0

>  <Assay Index>
286637

>  <Assay Category>


>  <Assay Organism>


>  <Target ID>
17045

>  <Target Name>
Cytochrome P450 3A4

>  <Target Organism>
Homo sapiens

>  <Target Description>
Target is a single protein chain

>  <Sequence Accession>
P08684

>  <Reference>
Bioorg Med Chem Lett 17 (3), 602-608 (2007)

>  <Pubmed ID>
17113292

>  <DOI>
10.1016/j.bmcl.2006.11.006

$$$$
383187
Actelion Java MolfileCreator 1.0

 34 38  0  0  0  0  0  0  0  0999 V2000
    0.0000   -0.0000   -0.0000 Cl  0  0  0  0  0  0  0  0  0  0  0  0
   -1.0722    0.6265   -0.0000 C   0  0  0  0  0  0  0  0  0  0  0  0
   -2.4095   -0.1325   -0.0000 C   0  0  0  0  0  0  0  0  0  0  0  0
   -1.0843    2.1686   -0.0000 C   0  0  0  0  0  0  0  0  0  0  0  0
   -3.7468    0.6385   -0.0000 C   0  0  0  0  0  0  0  0  0  0  0  0
   -2.4216   -1.6505   -0.0000 C   0  0  0  0  0  0  0  0  0  0  0  0
   -2.4216    2.9396   -0.0000 C   0  0  0  0  0  0  0  0  0  0  0  0
   -4.8191    0.0361   -0.0000 Cl  0  0  0  0  0  0  0  0  0  0  0  0
   -3.7589    2.1806   -0.0000 C   0  0  0  0  0  0  0  0  0  0  0  0
   -3.7589   -2.3975   -0.0000 C   0  0  0  0  0  0  0  0  0  0  0  0
   -1.1084   -2.3975   -0.0000 C   0  0  0  0  0  0  0  0  0  0  0  0
   -3.7709   -3.9155   -0.0000 C   0  0  0  0  0  0  0  0  0  0  0  0
   -1.1204   -3.9155   -0.0000 C   0  0  0  0  0  0  0  0  0  0  0  0
   -5.1082   -4.6625   -0.0000 N   0  0  0  0  0  0  0  0  0  0  0  0
   -2.4577   -4.6625   -0.0000 C   0  0  0  0  0  0  0  0  0  0  0  0
   -0.0723   -4.5179   -0.0000 C   0  0  0  0  0  0  0  0  0  0  0  0
   -5.1203   -6.1805   -0.0000 N   0  0  0  0  0  0  0  0  0  0  0  0
   -2.4698   -6.1805   -0.0000 N   0  0  0  0  0  0  0  0  0  0  0  0
   -3.8071   -6.9274   -0.0000 C   0  0  0  0  0  0  0  0  0  0  0  0
   -3.8191   -8.4454   -0.0000 N   0  0  0  0  0  0  0  0  0  0  0  0
   -2.5059   -9.1924   -0.0000 C   0  0  0  0  0  0  0  0  0  0  0  0
   -2.5180  -10.7104   -0.0000 C   0  0  0  0  0  0  0  0  0  0  0  0
   -1.1927   -8.4093   -0.0000 C   0  0  0  0  0  0  0  0  0  0  0  0
   -1.2048  -11.4573   -0.0000 C   0  0  0  0  0  0  0  0  0  0  0  0
    0.1205   -9.1562   -0.0000 C   0  0  0  0  0  0  0  0  0  0  0  0
    0.1084  -10.6742   -0.0000 C   0  0  0  0  0  0  0  0  0  0  0  0
    1.4216  -11.4212   -0.0000 O   0  0  0  0  0  0  0  0  0  0  0  0
    2.7348  -10.6381   -0.0000 C   0  0  0  0  0  0  0  0  0  0  0  0
    4.0480  -11.3851   -0.0000 C   0  0  0  0  0  0  0  0  0  0  0  0
    5.3612  -10.6020   -0.0000 N   0  0  0  0  0  0  0  0  0  0  0  0
    6.7347  -11.2164   -0.0000 C   0  0  0  0  0  0  0  0  0  0  0  0
    5.4817   -9.0839   -0.0000 C   0  0  0  0  0  0  0  0  0  0  0  0
    7.7346  -10.0598   -0.0000 C   0  0  0  0  0  0  0  0  0  0  0  0
    6.9636   -8.7466   -0.0000 C   0  0  0  0  0  0  0  0  0  0  0  0
  1  2  1  0  0  0  0
  2  3  2  0  0  0  0
  2  4  1  0  0  0  0
  3  5  1  0  0  0  0
  3  6  1  0  0  0  0
  4  7  2  0  0  0  0
  5  8  1  0  0  0  0
  5  9  2  0  0  0  0
  6 10  2  0  0  0  0
  6 11  1  0  0  0  0
 10 12  1  0  0  0  0
 11 13  2  0  0  0  0
 12 14  2  0  0  0  0
 12 15  1  0  0  0  0
 13 16  1  0  0  0  0
 14 17  1  0  0  0  0
 15 18  2  0  0  0  0
 17 19  2  0  0  0  0
 19 20  1  0  0  0  0
 20 21  1  0  0  0  0
 21 22  2  0  0  0  0
 21 23  1  0  0  0  0
 22 24  1  0  0  0  0
 23 25  2  0  0  0  0
 24 26  2  0  0  0  0
 26 27  1  0  0  0  0
 27 28  1  0  0  0  0
 28 29  1  0  0  0  0
 29 30  1  0  0  0  0
 30 31  1  0  0  0  0
 30 32  1  0  0  0  0
 31 33  1  0  0  0  0
 32 34  1  0  0  0  0
  7  9  1  0  0  0  0
 13 15  1  0  0  0  0
 18 19  1  0  0  0  0
 25 26  1  0  0  0  0
 33 34  1  0  0  0  0
M  END
>  <MolRegNo>
383187

>  <m>
=

>  <Value>
62000

>  <Unit>
nM

>  <Type>
IC50

>  <pValue>
4.21

>  <Ligand Efficiency>
0

>  <Binding Efficiency>
0

>  <Surface Efficiency>
0

>  <Assay Index>
286637

>  <Assay Category>


>  <Assay Organism>


>  <Target ID>
17045

>  <Target Name>
Cytochrome P450 3A4

>  <Target Organism>
Homo sapiens

>  <Target Description>
Target is a single protein chain

>  <Sequence Accession>
P08684

>  <Reference>
Bioorg Med Chem Lett 17 (3), 602-608 (2007)

>  <Pubmed ID>
17113292

>  <DOI>
10.1016/j.bmcl.2006.11.006

$$$$
383808
Actelion Java MolfileCreator 1.0

 33 37  0  0  0  0  0  0  0  0999 V2000
    0.0000   -0.0000   -0.0000 S   0  0  0  0  0  0  0  0  0  0  0  0
   -0.0837    1.5181   -0.0000 C   0  0  0  0  0  0  0  0  0  0  0  0
    1.4224   -0.3825   -0.0000 C   0  0  0  0  0  0  0  0  0  0  0  0
   -1.2551    2.4743   -0.0000 C   0  0  0  0  0  0  0  0  0  0  0  0
    1.3149    2.0560   -0.0000 C   0  0  0  0  0  0  0  0  0  0  0  0
    2.2472    0.8845   -0.0000 C   0  0  0  0  0  0  0  0  0  0  0  0
   -2.6656    1.9484   -0.0000 C   0  0  0  0  0  0  0  0  0  0  0  0
   -1.0160    3.9804   -0.0000 C   0  0  0  0  0  0  0  0  0  0  0  0
    1.5420    3.5382   -0.0000 C   0  0  0  0  0  0  0  0  0  0  0  0
    3.7414    0.8845   -0.0000 C   0  0  0  0  0  0  0  0  0  0  0  0
   -2.6775    0.4662   -0.0000 C   0  0  0  0  0  0  0  0  0  0  0  0
   -3.9804    2.7253   -0.0000 C   0  0  0  0  0  0  0  0  0  0  0  0
    0.3825    4.5183   -0.0000 N   0  0  0  0  0  0  0  0  0  0  0  0
    2.9405    4.0761   -0.0000 N   0  0  0  0  0  0  0  0  0  0  0  0
    4.4825   -0.4064   -0.0000 C   0  0  0  0  0  0  0  0  0  0  0  0
    4.4944    2.1994   -0.0000 C   0  0  0  0  0  0  0  0  0  0  0  0
   -3.9804   -0.2749   -0.0000 N   0  0  0  0  0  0  0  0  0  0  0  0
   -5.2953    1.9842   -0.0000 C   0  0  0  0  0  0  0  0  0  0  0  0
    5.9647   -0.3945   -0.0000 C   0  0  0  0  0  0  0  0  0  0  0  0
    5.9886    2.2114   -0.0000 C   0  0  0  0  0  0  0  0  0  0  0  0
   -5.3073    0.4901   -0.0000 C   0  0  0  0  0  0  0  0  0  0  0  0
    6.7177    0.9204   -0.0000 C   0  0  0  0  0  0  0  0  0  0  0  0
    8.2239    0.9443   -0.0000 N   0  0  0  0  0  0  0  0  0  0  0  0
    8.9889   -0.3466   -0.0000 C   0  0  0  0  0  0  0  0  0  0  0  0
    8.2358   -1.6496   -0.0000 O   0  0  0  0  0  0  0  0  0  0  0  0
   10.4711   -0.3227   -0.0000 N   0  0  0  0  0  0  0  0  0  0  0  0
   11.2241   -1.5898   -0.0000 C   0  0  0  0  0  0  0  0  0  0  0  0
   12.7063   -1.5659   -0.0000 C   0  0  0  0  0  0  0  0  0  0  0  0
   10.4711   -2.8927   -0.0000 C   0  0  0  0  0  0  0  0  0  0  0  0
   13.4714   -2.8449   -0.0000 C   0  0  0  0  0  0  0  0  0  0  0  0
   11.2241   -4.1836   -0.0000 C   0  0  0  0  0  0  0  0  0  0  0  0
   12.7063   -4.1597   -0.0000 C   0  0  0  0  0  0  0  0  0  0  0  0
   14.9536   -2.8210   -0.0000 C   0  0  0  0  0  0  0  0  0  0  0  0
  1  2  1  0  0  0  0
  1  3  1  0  0  0  0
  2  4  2  0  0  0  0
  2  5  1  0  0  0  0
  3  6  2  0  0  0  0
  4  7  1  0  0  0  0
  4  8  1  0  0  0  0
  5  9  2  0  0  0  0
  6 10  1  0  0  0  0
  7 11  2  0  0  0  0
  7 12  1  0  0  0  0
  8 13  2  0  0  0  0
  9 14  1  0  0  0  0
 10 15  2  0  0  0  0
 10 16  1  0  0  0  0
 11 17  1  0  0  0  0
 12 18  2  0  0  0  0
 15 19  1  0  0  0  0
 16 20  2  0  0  0  0
 17 21  2  0  0  0  0
 19 22  2  0  0  0  0
 22 23  1  0  0  0  0
 23 24  1  0  0  0  0
 24 25  2  0  0  0  0
 24 26  1  0  0  0  0
 26 27  1  0  0  0  0
 27 28  2  0  0  0  0
 27 29  1  0  0  0  0
 28 30  1  0  0  0  0
 29 31  2  0  0  0  0
 30 32  2  0  0  0  0
 30 33  1  0  0  0  0
  5  6  1  0  0  0  0
  9 13  1  0  0  0  0
 18 21  1  0  0  0  0
 20 22  1  0  0  0  0
 31 32  1  0  0  0  0
M  END
>  <MolRegNo>
383808

>  <m>
=

>  <Value>
250

>  <Unit>
nM

>  <Type>
IC50

>  <pValue>
6.6

>  <Ligand Efficiency>
0

>  <Binding Efficiency>
0

>  <Surface Efficiency>
0

>  <Assay Index>
287026

>  <Assay Category>


>  <Assay Organism>


>  <Target ID>
17045

>  <Target Name>
Cytochrome P450 3A4

>  <Target Organism>
Homo sapiens

>  <Target Description>
Target is a single protein chain

>  <Sequence Accession>
P08684

>  <Reference>
Bioorg Med Chem Lett 17 (5), 1246-1249 (2007)

>  <Pubmed ID>
17188869

>  <DOI>
10.1016/j.bmcl.2006.12.015

$$$$
384077
Actelion Java MolfileCreator 1.0

 40 45  0  0  0  0  0  0  0  0999 V2000
    0.0000   -0.0000   -0.0000 F   0  0  0  0  0  0  0  0  0  0  0  0
    0.7690    1.2896   -0.0000 C   0  0  0  0  0  0  0  0  0  0  0  0
    0.0473    2.6146   -0.0000 C   0  0  0  0  0  0  0  0  0  0  0  0
    2.2479    1.2659   -0.0000 C   0  0  0  0  0  0  0  0  0  0  0  0
    0.8045    3.9042   -0.0000 C   0  0  0  0  0  0  0  0  0  0  0  0
   -1.4552    2.6620   -0.0000 C   0  0  0  0  0  0  0  0  0  0  0  0
    3.0169    2.5555   -0.0000 C   0  0  0  0  0  0  0  0  0  0  0  0
    2.2834    3.8806   -0.0000 C   0  0  0  0  0  0  0  0  0  0  0  0
   -2.1769    3.9870   -0.0000 N   0  0  0  0  0  0  0  0  0  0  0  0
   -1.3724    5.2530   -0.0000 C   0  0  0  0  0  0  0  0  0  0  0  0
   -3.6321    4.3775   -0.0000 C   0  0  0  0  0  0  0  0  0  0  0  0
    0.1065    5.3476   -0.0000 O   0  0  0  0  0  0  0  0  0  0  0  0
   -2.3189    6.4242   -0.0000 N   0  0  0  0  0  0  0  0  0  0  0  0
   -3.7268    5.8800   -0.0000 C   0  0  0  0  0  0  0  0  0  0  0  0
   -3.6558    2.8868   -0.0000 C   0  0  0  0  0  0  0  0  0  0  0  0
   -4.9453    5.1346   -0.0000 C   0  0  0  0  0  0  0  0  0  0  0  0
   -1.6445    7.7611   -0.0000 C   0  0  0  0  0  0  0  0  0  0  0  0
   -4.9927    6.7082   -0.0000 O   0  0  0  0  0  0  0  0  0  0  0  0
   -4.9572    2.1532   -0.0000 C   0  0  0  0  0  0  0  0  0  0  0  0
   -6.2586    4.4011   -0.0000 C   0  0  0  0  0  0  0  0  0  0  0  0
   -0.1538    7.8321   -0.0000 C   0  0  0  0  0  0  0  0  0  0  0  0
   -2.4490    9.0270   -0.0000 C   0  0  0  0  0  0  0  0  0  0  0  0
   -6.2468    2.9104   -0.0000 N   0  0  0  0  0  0  0  0  0  0  0  0
    0.5206    9.1690   -0.0000 C   0  0  0  0  0  0  0  0  0  0  0  0
   -1.7746   10.3639   -0.0000 C   0  0  0  0  0  0  0  0  0  0  0  0
   -7.5482    2.1769   -0.0000 C   0  0  0  0  0  0  0  0  0  0  0  0
    1.9994    9.2400   -0.0000 O   0  0  0  0  0  0  0  0  0  0  0  0
   -0.2958   10.4467   -0.0000 C   0  0  0  0  0  0  0  0  0  0  0  0
   -8.8496    2.9341   -0.0000 C   0  0  0  0  0  0  0  0  0  0  0  0
    2.7921    7.9977   -0.0000 C   0  0  0  0  0  0  0  0  0  0  0  0
  -10.1628    2.2006   -0.0000 C   0  0  0  0  0  0  0  0  0  0  0  0
   -8.8614    4.4484   -0.0000 C   0  0  0  0  0  0  0  0  0  0  0  0
  -11.4642    2.9577   -0.0000 C   0  0  0  0  0  0  0  0  0  0  0  0
  -10.1628    5.2056   -0.0000 C   0  0  0  0  0  0  0  0  0  0  0  0
  -11.4760    4.4721   -0.0000 C   0  0  0  0  0  0  0  0  0  0  0  0
  -12.7774    5.2293   -0.0000 N   0  0  0  0  0  0  0  0  0  0  0  0
  -12.9431    6.7318   -0.0000 C   0  0  0  0  0  0  0  0  0  0  0  0
  -14.1498    4.6377   -0.0000 C   0  0  0  0  0  0  0  0  0  0  0  0
  -14.4101    7.0513   -0.0000 N   0  0  0  0  0  0  0  0  0  0  0  0
  -15.1555    5.7617   -0.0000 C   0  0  0  0  0  0  0  0  0  0  0  0
  1  2  1  0  0  0  0
  2  3  2  0  0  0  0
  2  4  1  0  0  0  0
  3  5  1  0  0  0  0
  3  6  1  0  0  0  0
  4  7  2  0  0  0  0
  5  8  2  0  0  0  0
  6  9  1  0  0  0  0
  9 10  1  0  0  0  0
  9 11  1  0  0  0  0
 10 12  2  0  0  0  0
 10 13  1  0  0  0  0
 11 14  1  0  0  0  0
 11 15  1  0  0  0  0
 11 16  1  0  0  0  0
 13 17  1  0  0  0  0
 14 18  2  0  0  0  0
 15 19  1  0  0  0  0
 16 20  1  0  0  0  0
 17 21  2  0  0  0  0
 17 22  1  0  0  0  0
 19 23  1  0  0  0  0
 21 24  1  0  0  0  0
 22 25  2  0  0  0  0
 23 26  1  0  0  0  0
 24 27  1  0  0  0  0
 24 28  2  0  0  0  0
 26 29  1  0  0  0  0
 27 30  1  0  0  0  0
 29 31  2  0  0  0  0
 29 32  1  0  0  0  0
 31 33  1  0  0  0  0
 32 34  2  0  0  0  0
 33 35  2  0  0  0  0
 35 36  1  0  0  0  0
 36 37  1  0  0  0  0
 36 38  1  0  0  0  0
 37 39  2  0  0  0  0
 38 40  2  0  0  0  0
  7  8  1  0  0  0  0
 13 14  1  0  0  0  0
 20 23  1  0  0  0  0
 25 28  1  0  0  0  0
 34 35  1  0  0  0  0
 39 40  1  0  0  0  0
M  END
>  <MolRegNo>
384077

>  <m>
=

>  <Value>
35

>  <Unit>
nM

>  <Type>
IC50

>  <pValue>
7.46

>  <Ligand Efficiency>
0

>  <Binding Efficiency>
0

>  <Surface Efficiency>
0

>  <Assay Index>
287381

>  <Assay Category>


>  <Assay Organism>


>  <Target ID>
17045

>  <Target Name>
Cytochrome P450 3A4

>  <Target Organism>
Homo sapiens

>  <Target Description>
Target is a single protein chain

>  <Sequence Accession>
P08684

>  <Reference>
Bioorg Med Chem Lett 17 (8), 2171-2178 (2007)

>  <Pubmed ID>
17350839

>  <DOI>
10.1016/j.bmcl.2007.01.104

$$$$
384093
Actelion Java MolfileCreator 1.0

 41 46  0  0  0  0  0  0  0  0999 V2000
    0.0000   -0.0000   -0.0000 F   0  0  0  0  0  0  0  0  0  0  0  0
    0.7686    1.2890   -0.0000 C   0  0  0  0  0  0  0  0  0  0  0  0
    0.0473    2.6134   -0.0000 C   0  0  0  0  0  0  0  0  0  0  0  0
    2.2468    1.2653   -0.0000 C   0  0  0  0  0  0  0  0  0  0  0  0
    0.8041    3.9023   -0.0000 C   0  0  0  0  0  0  0  0  0  0  0  0
   -1.4545    2.6607   -0.0000 C   0  0  0  0  0  0  0  0  0  0  0  0
    3.0154    2.5543   -0.0000 C   0  0  0  0  0  0  0  0  0  0  0  0
    2.2823    3.8787   -0.0000 C   0  0  0  0  0  0  0  0  0  0  0  0
   -2.1759    3.9851   -0.0000 N   0  0  0  0  0  0  0  0  0  0  0  0
   -1.3717    5.2504   -0.0000 C   0  0  0  0  0  0  0  0  0  0  0  0
   -3.6304    4.3754   -0.0000 C   0  0  0  0  0  0  0  0  0  0  0  0
    0.1064    5.3450   -0.0000 O   0  0  0  0  0  0  0  0  0  0  0  0
   -2.3296    6.4211   -0.0000 N   0  0  0  0  0  0  0  0  0  0  0  0
   -3.7250    5.8772   -0.0000 C   0  0  0  0  0  0  0  0  0  0  0  0
   -3.6540    2.8854   -0.0000 C   0  0  0  0  0  0  0  0  0  0  0  0
   -4.9430    5.1322   -0.0000 C   0  0  0  0  0  0  0  0  0  0  0  0
   -1.6201    7.7337   -0.0000 C   0  0  0  0  0  0  0  0  0  0  0  0
   -4.9903    6.7049   -0.0000 O   0  0  0  0  0  0  0  0  0  0  0  0
   -4.9548    2.1522   -0.0000 C   0  0  0  0  0  0  0  0  0  0  0  0
   -6.2556    4.3990   -0.0000 C   0  0  0  0  0  0  0  0  0  0  0  0
   -2.3887    9.0227   -0.0000 C   0  0  0  0  0  0  0  0  0  0  0  0
   -0.1419    7.7574   -0.0000 C   0  0  0  0  0  0  0  0  0  0  0  0
   -6.2437    2.9090   -0.0000 N   0  0  0  0  0  0  0  0  0  0  0  0
   -1.6792   10.3353   -0.0000 C   0  0  0  0  0  0  0  0  0  0  0  0
    0.5794    9.0700   -0.0000 C   0  0  0  0  0  0  0  0  0  0  0  0
   -7.5445    2.1759   -0.0000 C   0  0  0  0  0  0  0  0  0  0  0  0
   -2.4597   11.6242   -0.0000 O   0  0  0  0  0  0  0  0  0  0  0  0
   -0.1892   10.3708   -0.0000 C   0  0  0  0  0  0  0  0  0  0  0  0
   -8.8453    2.9327   -0.0000 C   0  0  0  0  0  0  0  0  0  0  0  0
   -1.7501   12.9369   -0.0000 C   0  0  0  0  0  0  0  0  0  0  0  0
  -10.1579    2.1995   -0.0000 C   0  0  0  0  0  0  0  0  0  0  0  0
   -8.8571    4.4463   -0.0000 C   0  0  0  0  0  0  0  0  0  0  0  0
  -11.4587    2.9563   -0.0000 C   0  0  0  0  0  0  0  0  0  0  0  0
  -10.1579    5.2031   -0.0000 C   0  0  0  0  0  0  0  0  0  0  0  0
  -11.4705    4.4700   -0.0000 C   0  0  0  0  0  0  0  0  0  0  0  0
  -12.7713    5.2268   -0.0000 C   0  0  0  0  0  0  0  0  0  0  0  0
  -12.7831    6.7286   -0.0000 C   0  0  0  0  0  0  0  0  0  0  0  0
  -14.0721    4.4936   -0.0000 C   0  0  0  0  0  0  0  0  0  0  0  0
  -14.0839    7.4854   -0.0000 C   0  0  0  0  0  0  0  0  0  0  0  0
  -15.3729    5.2386   -0.0000 C   0  0  0  0  0  0  0  0  0  0  0  0
  -15.3847    6.7522   -0.0000 N   0  0  0  0  0  0  0  0  0  0  0  0
  1  2  1  0  0  0  0
  2  3  2  0  0  0  0
  2  4  1  0  0  0  0
  3  5  1  0  0  0  0
  3  6  1  0  0  0  0
  4  7  2  0  0  0  0
  5  8  2  0  0  0  0
  6  9  1  0  0  0  0
  9 10  1  0  0  0  0
  9 11  1  0  0  0  0
 10 12  2  0  0  0  0
 10 13  1  0  0  0  0
 11 14  1  0  0  0  0
 11 15  1  0  0  0  0
 11 16  1  0  0  0  0
 13 17  1  0  0  0  0
 14 18  2  0  0  0  0
 15 19  1  0  0  0  0
 16 20  1  0  0  0  0
 17 21  2  0  0  0  0
 17 22  1  0  0  0  0
 19 23  1  0  0  0  0
 21 24  1  0  0  0  0
 22 25  2  0  0  0  0
 23 26  1  0  0  0  0
 24 27  1  0  0  0  0
 24 28  2  0  0  0  0
 26 29  1  0  0  0  0
 27 30  1  0  0  0  0
 29 31  2  0  0  0  0
 29 32  1  0  0  0  0
 31 33  1  0  0  0  0
 32 34  2  0  0  0  0
 33 35  2  0  0  0  0
 35 36  1  0  0  0  0
 36 37  2  0  0  0  0
 36 38  1  0  0  0  0
 37 39  1  0  0  0  0
 38 40  2  0  0  0  0
 39 41  2  0  0  0  0
  7  8  1  0  0  0  0
 13 14  1  0  0  0  0
 20 23  1  0  0  0  0
 25 28  1  0  0  0  0
 34 35  1  0  0  0  0
 40 41  1  0  0  0  0
M  END
>  <MolRegNo>
384093

>  <m>
=

>  <Value>
300

>  <Unit>
nM

>  <Type>
IC50

>  <pValue>
6.52

>  <Ligand Efficiency>
0

>  <Binding Efficiency>
0

>  <Surface Efficiency>
0

>  <Assay Index>
287381

>  <Assay Category>


>  <Assay Organism>


>  <Target ID>
17045

>  <Target Name>
Cytochrome P450 3A4

>  <Target Organism>
Homo sapiens

>  <Target Description>
Target is a single protein chain

>  <Sequence Accession>
P08684

>  <Reference>
Bioorg Med Chem Lett 17 (8), 2171-2178 (2007)

>  <Pubmed ID>
17350839

>  <DOI>
10.1016/j.bmcl.2007.01.104

$$$$
384092
Actelion Java MolfileCreator 1.0

 41 46  0  0  0  0  0  0  0  0999 V2000
    0.0000   -0.0000   -0.0000 F   0  0  0  0  0  0  0  0  0  0  0  0
    0.7686    1.2890   -0.0000 C   0  0  0  0  0  0  0  0  0  0  0  0
    0.0473    2.6134   -0.0000 C   0  0  0  0  0  0  0  0  0  0  0  0
    2.2468    1.2653   -0.0000 C   0  0  0  0  0  0  0  0  0  0  0  0
    0.8041    3.9023   -0.0000 C   0  0  0  0  0  0  0  0  0  0  0  0
   -1.4545    2.6607   -0.0000 C   0  0  0  0  0  0  0  0  0  0  0  0
    3.0154    2.5543   -0.0000 C   0  0  0  0  0  0  0  0  0  0  0  0
    2.2823    3.8787   -0.0000 C   0  0  0  0  0  0  0  0  0  0  0  0
   -2.1759    3.9851   -0.0000 N   0  0  0  0  0  0  0  0  0  0  0  0
   -1.3717    5.2504   -0.0000 C   0  0  0  0  0  0  0  0  0  0  0  0
   -3.6304    4.3754   -0.0000 C   0  0  0  0  0  0  0  0  0  0  0  0
    0.1064    5.3450   -0.0000 O   0  0  0  0  0  0  0  0  0  0  0  0
   -2.3296    6.4211   -0.0000 N   0  0  0  0  0  0  0  0  0  0  0  0
   -3.7250    5.8772   -0.0000 C   0  0  0  0  0  0  0  0  0  0  0  0
   -3.6540    2.8854   -0.0000 C   0  0  0  0  0  0  0  0  0  0  0  0
   -4.9430    5.1322   -0.0000 C   0  0  0  0  0  0  0  0  0  0  0  0
   -1.6201    7.7337   -0.0000 C   0  0  0  0  0  0  0  0  0  0  0  0
   -4.9903    6.7049   -0.0000 O   0  0  0  0  0  0  0  0  0  0  0  0
   -4.9548    2.1522   -0.0000 C   0  0  0  0  0  0  0  0  0  0  0  0
   -6.2556    4.3990   -0.0000 C   0  0  0  0  0  0  0  0  0  0  0  0
   -2.3887    9.0227   -0.0000 C   0  0  0  0  0  0  0  0  0  0  0  0
   -0.1419    7.7574   -0.0000 C   0  0  0  0  0  0  0  0  0  0  0  0
   -6.2437    2.9090   -0.0000 N   0  0  0  0  0  0  0  0  0  0  0  0
   -1.6792   10.3353   -0.0000 C   0  0  0  0  0  0  0  0  0  0  0  0
    0.5794    9.0700   -0.0000 C   0  0  0  0  0  0  0  0  0  0  0  0
   -7.5445    2.1759   -0.0000 C   0  0  0  0  0  0  0  0  0  0  0  0
   -2.4597   11.6242   -0.0000 O   0  0  0  0  0  0  0  0  0  0  0  0
   -0.1892   10.3708   -0.0000 C   0  0  0  0  0  0  0  0  0  0  0  0
   -8.8453    2.9327   -0.0000 C   0  0  0  0  0  0  0  0  0  0  0  0
   -1.7501   12.9369   -0.0000 C   0  0  0  0  0  0  0  0  0  0  0  0
  -10.1579    2.1995   -0.0000 C   0  0  0  0  0  0  0  0  0  0  0  0
   -8.8571    4.4463   -0.0000 C   0  0  0  0  0  0  0  0  0  0  0  0
  -11.4587    2.9563   -0.0000 C   0  0  0  0  0  0  0  0  0  0  0  0
  -10.1579    5.2031   -0.0000 C   0  0  0  0  0  0  0  0  0  0  0  0
  -11.4705    4.4700   -0.0000 C   0  0  0  0  0  0  0  0  0  0  0  0
  -12.7713    5.2268   -0.0000 C   0  0  0  0  0  0  0  0  0  0  0  0
  -12.7831    6.7286   -0.0000 C   0  0  0  0  0  0  0  0  0  0  0  0
  -14.0721    4.4936   -0.0000 C   0  0  0  0  0  0  0  0  0  0  0  0
  -14.0839    7.4854   -0.0000 N   0  0  0  0  0  0  0  0  0  0  0  0
  -15.3729    5.2386   -0.0000 C   0  0  0  0  0  0  0  0  0  0  0  0
  -15.3847    6.7522   -0.0000 C   0  0  0  0  0  0  0  0  0  0  0  0
  1  2  1  0  0  0  0
  2  3  2  0  0  0  0
  2  4  1  0  0  0  0
  3  5  1  0  0  0  0
  3  6  1  0  0  0  0
  4  7  2  0  0  0  0
  5  8  2  0  0  0  0
  6  9  1  0  0  0  0
  9 10  1  0  0  0  0
  9 11  1  0  0  0  0
 10 12  2  0  0  0  0
 10 13  1  0  0  0  0
 11 14  1  0  0  0  0
 11 15  1  0  0  0  0
 11 16  1  0  0  0  0
 13 17  1  0  0  0  0
 14 18  2  0  0  0  0
 15 19  1  0  0  0  0
 16 20  1  0  0  0  0
 17 21  2  0  0  0  0
 17 22  1  0  0  0  0
 19 23  1  0  0  0  0
 21 24  1  0  0  0  0
 22 25  2  0  0  0  0
 23 26  1  0  0  0  0
 24 27  1  0  0  0  0
 24 28  2  0  0  0  0
 26 29  1  0  0  0  0
 27 30  1  0  0  0  0
 29 31  2  0  0  0  0
 29 32  1  0  0  0  0
 31 33  1  0  0  0  0
 32 34  2  0  0  0  0
 33 35  2  0  0  0  0
 35 36  1  0  0  0  0
 36 37  2  0  0  0  0
 36 38  1  0  0  0  0
 37 39  1  0  0  0  0
 38 40  2  0  0  0  0
 39 41  2  0  0  0  0
  7  8  1  0  0  0  0
 13 14  1  0  0  0  0
 20 23  1  0  0  0  0
 25 28  1  0  0  0  0
 34 35  1  0  0  0  0
 40 41  1  0  0  0  0
M  END
>  <MolRegNo>
384092

>  <m>
=

>  <Value>
1100

>  <Unit>
nM

>  <Type>
IC50

>  <pValue>
5.96

>  <Ligand Efficiency>
0

>  <Binding Efficiency>
0

>  <Surface Efficiency>
0

>  <Assay Index>
287381

>  <Assay Category>


>  <Assay Organism>


>  <Target ID>
17045

>  <Target Name>
Cytochrome P450 3A4

>  <Target Organism>
Homo sapiens

>  <Target Description>
Target is a single protein chain

>  <Sequence Accession>
P08684

>  <Reference>
Bioorg Med Chem Lett 17 (8), 2171-2178 (2007)

>  <Pubmed ID>
17350839

>  <DOI>
10.1016/j.bmcl.2007.01.104

$$$$
384099
Actelion Java MolfileCreator 1.0

 43 48  0  0  0  0  0  0  0  0999 V2000
    0.0000   -0.0000   -0.0000 F   0  0  0  0  0  0  0  0  0  0  0  0
    0.7686    1.2888   -0.0000 C   0  0  0  0  0  0  0  0  0  0  0  0
    0.0473    2.6131   -0.0000 C   0  0  0  0  0  0  0  0  0  0  0  0
    2.2465    1.2652   -0.0000 C   0  0  0  0  0  0  0  0  0  0  0  0
    0.8040    3.9019   -0.0000 C   0  0  0  0  0  0  0  0  0  0  0  0
   -1.4543    2.6604   -0.0000 C   0  0  0  0  0  0  0  0  0  0  0  0
    3.0151    2.5540   -0.0000 C   0  0  0  0  0  0  0  0  0  0  0  0
    2.2820    3.8782   -0.0000 C   0  0  0  0  0  0  0  0  0  0  0  0
   -2.1756    3.9847   -0.0000 N   0  0  0  0  0  0  0  0  0  0  0  0
   -1.3716    5.2498   -0.0000 C   0  0  0  0  0  0  0  0  0  0  0  0
   -3.6299    4.3748   -0.0000 C   0  0  0  0  0  0  0  0  0  0  0  0
    0.1064    5.3444   -0.0000 O   0  0  0  0  0  0  0  0  0  0  0  0
   -2.3293    6.4204   -0.0000 N   0  0  0  0  0  0  0  0  0  0  0  0
   -3.7245    5.8765   -0.0000 C   0  0  0  0  0  0  0  0  0  0  0  0
   -3.6536    2.8850   -0.0000 C   0  0  0  0  0  0  0  0  0  0  0  0
   -4.9424    5.1316   -0.0000 C   0  0  0  0  0  0  0  0  0  0  0  0
   -1.6199    7.7328   -0.0000 C   0  0  0  0  0  0  0  0  0  0  0  0
   -4.9897    6.7042   -0.0000 O   0  0  0  0  0  0  0  0  0  0  0  0
   -4.9542    2.1520   -0.0000 C   0  0  0  0  0  0  0  0  0  0  0  0
   -6.2548    4.3985   -0.0000 C   0  0  0  0  0  0  0  0  0  0  0  0
   -2.3884    9.0216   -0.0000 C   0  0  0  0  0  0  0  0  0  0  0  0
   -0.1419    7.7565   -0.0000 C   0  0  0  0  0  0  0  0  0  0  0  0
   -6.2430    2.9087   -0.0000 N   0  0  0  0  0  0  0  0  0  0  0  0
   -1.6790   10.3341   -0.0000 C   0  0  0  0  0  0  0  0  0  0  0  0
    0.5794    9.0689   -0.0000 C   0  0  0  0  0  0  0  0  0  0  0  0
   -7.5437    2.1756   -0.0000 C   0  0  0  0  0  0  0  0  0  0  0  0
   -2.4594   11.6229   -0.0000 O   0  0  0  0  0  0  0  0  0  0  0  0
   -0.1892   10.3696   -0.0000 C   0  0  0  0  0  0  0  0  0  0  0  0
   -8.8443    2.9323   -0.0000 C   0  0  0  0  0  0  0  0  0  0  0  0
   -1.7499   12.9354   -0.0000 C   0  0  0  0  0  0  0  0  0  0  0  0
  -10.1567    2.1992   -0.0000 C   0  0  0  0  0  0  0  0  0  0  0  0
   -8.8561    4.4458   -0.0000 C   0  0  0  0  0  0  0  0  0  0  0  0
  -11.4574    2.9560   -0.0000 C   0  0  0  0  0  0  0  0  0  0  0  0
  -10.1567    5.2025   -0.0000 C   0  0  0  0  0  0  0  0  0  0  0  0
  -11.4692    4.4694   -0.0000 C   0  0  0  0  0  0  0  0  0  0  0  0
  -12.7698    5.2262   -0.0000 C   0  0  0  0  0  0  0  0  0  0  0  0
  -12.7816    6.7278   -0.0000 C   0  0  0  0  0  0  0  0  0  0  0  0
  -14.0705    4.4931   -0.0000 C   0  0  0  0  0  0  0  0  0  0  0  0
  -14.0823    7.4845   -0.0000 N   0  0  0  0  0  0  0  0  0  0  0  0
  -15.3711    5.2380   -0.0000 C   0  0  0  0  0  0  0  0  0  0  0  0
  -15.3829    6.7515   -0.0000 C   0  0  0  0  0  0  0  0  0  0  0  0
  -16.6717    4.5049   -0.0000 O   0  0  0  0  0  0  0  0  0  0  0  0
  -17.9842    5.2616   -0.0000 C   0  0  0  0  0  0  0  0  0  0  0  0
  1  2  1  0  0  0  0
  2  3  2  0  0  0  0
  2  4  1  0  0  0  0
  3  5  1  0  0  0  0
  3  6  1  0  0  0  0
  4  7  2  0  0  0  0
  5  8  2  0  0  0  0
  6  9  1  0  0  0  0
  9 10  1  0  0  0  0
  9 11  1  0  0  0  0
 10 12  2  0  0  0  0
 10 13  1  0  0  0  0
 11 14  1  0  0  0  0
 11 15  1  0  0  0  0
 11 16  1  0  0  0  0
 13 17  1  0  0  0  0
 14 18  2  0  0  0  0
 15 19  1  0  0  0  0
 16 20  1  0  0  0  0
 17 21  2  0  0  0  0
 17 22  1  0  0  0  0
 19 23  1  0  0  0  0
 21 24  1  0  0  0  0
 22 25  2  0  0  0  0
 23 26  1  0  0  0  0
 24 27  1  0  0  0  0
 24 28  2  0  0  0  0
 26 29  1  0  0  0  0
 27 30  1  0  0  0  0
 29 31  2  0  0  0  0
 29 32  1  0  0  0  0
 31 33  1  0  0  0  0
 32 34  2  0  0  0  0
 33 35  2  0  0  0  0
 35 36  1  0  0  0  0
 36 37  2  0  0  0  0
 36 38  1  0  0  0  0
 37 39  1  0  0  0  0
 38 40  2  0  0  0  0
 39 41  2  0  0  0  0
 40 42  1  0  0  0  0
 42 43  1  0  0  0  0
  7  8  1  0  0  0  0
 13 14  1  0  0  0  0
 20 23  1  0  0  0  0
 25 28  1  0  0  0  0
 34 35  1  0  0  0  0
 40 41  1  0  0  0  0
M  END
>  <MolRegNo>
384099

>  <m>
=

>  <Value>
2000

>  <Unit>
nM

>  <Type>
IC50

>  <pValue>
5.7

>  <Ligand Efficiency>
0

>  <Binding Efficiency>
0

>  <Surface Efficiency>
0

>  <Assay Index>
287381

>  <Assay Category>


>  <Assay Organism>


>  <Target ID>
17045

>  <Target Name>
Cytochrome P450 3A4

>  <Target Organism>
Homo sapiens

>  <Target Description>
Target is a single protein chain

>  <Sequence Accession>
P08684

>  <Reference>
Bioorg Med Chem Lett 17 (8), 2171-2178 (2007)

>  <Pubmed ID>
17350839

>  <DOI>
10.1016/j.bmcl.2007.01.104

$$$$
384100
Actelion Java MolfileCreator 1.0

 43 48  0  0  0  0  0  0  0  0999 V2000
    0.0000   -0.0000   -0.0000 F   0  0  0  0  0  0  0  0  0  0  0  0
    0.7687    1.2891   -0.0000 C   0  0  0  0  0  0  0  0  0  0  0  0
    0.0473    2.6137   -0.0000 C   0  0  0  0  0  0  0  0  0  0  0  0
    2.2471    1.2655   -0.0000 C   0  0  0  0  0  0  0  0  0  0  0  0
    0.8042    3.9028   -0.0000 C   0  0  0  0  0  0  0  0  0  0  0  0
   -1.4547    2.6610   -0.0000 C   0  0  0  0  0  0  0  0  0  0  0  0
    3.0158    2.5546   -0.0000 C   0  0  0  0  0  0  0  0  0  0  0  0
    2.2826    3.8792   -0.0000 C   0  0  0  0  0  0  0  0  0  0  0  0
   -2.1761    3.9856   -0.0000 N   0  0  0  0  0  0  0  0  0  0  0  0
   -1.3719    5.2511   -0.0000 C   0  0  0  0  0  0  0  0  0  0  0  0
   -3.6308    4.3759   -0.0000 C   0  0  0  0  0  0  0  0  0  0  0  0
    0.1064    5.3457   -0.0000 O   0  0  0  0  0  0  0  0  0  0  0  0
   -2.3299    6.4219   -0.0000 N   0  0  0  0  0  0  0  0  0  0  0  0
   -3.7254    5.8779   -0.0000 C   0  0  0  0  0  0  0  0  0  0  0  0
   -3.6545    2.8857   -0.0000 C   0  0  0  0  0  0  0  0  0  0  0  0
   -4.9436    5.1328   -0.0000 C   0  0  0  0  0  0  0  0  0  0  0  0
   -1.6203    7.7347   -0.0000 C   0  0  0  0  0  0  0  0  0  0  0  0
   -4.9909    6.7058   -0.0000 O   0  0  0  0  0  0  0  0  0  0  0  0
   -4.9554    2.1525   -0.0000 C   0  0  0  0  0  0  0  0  0  0  0  0
   -6.2564    4.3996   -0.0000 C   0  0  0  0  0  0  0  0  0  0  0  0
   -2.3890    9.0238   -0.0000 C   0  0  0  0  0  0  0  0  0  0  0  0
   -0.1419    7.7584   -0.0000 C   0  0  0  0  0  0  0  0  0  0  0  0
   -6.2445    2.9094   -0.0000 N   0  0  0  0  0  0  0  0  0  0  0  0
   -1.6794   10.3366   -0.0000 C   0  0  0  0  0  0  0  0  0  0  0  0
    0.5795    9.0711   -0.0000 C   0  0  0  0  0  0  0  0  0  0  0  0
   -7.5455    2.1761   -0.0000 C   0  0  0  0  0  0  0  0  0  0  0  0
   -2.4600   11.6257   -0.0000 O   0  0  0  0  0  0  0  0  0  0  0  0
   -0.1892   10.3721   -0.0000 C   0  0  0  0  0  0  0  0  0  0  0  0
   -8.8464    2.9330   -0.0000 C   0  0  0  0  0  0  0  0  0  0  0  0
   -1.7504   12.9385   -0.0000 C   0  0  0  0  0  0  0  0  0  0  0  0
  -10.1592    2.1998   -0.0000 C   0  0  0  0  0  0  0  0  0  0  0  0
   -8.8583    4.4469   -0.0000 C   0  0  0  0  0  0  0  0  0  0  0  0
  -11.4601    2.9567   -0.0000 C   0  0  0  0  0  0  0  0  0  0  0  0
  -10.1592    5.2038   -0.0000 C   0  0  0  0  0  0  0  0  0  0  0  0
  -11.4720    4.4705   -0.0000 C   0  0  0  0  0  0  0  0  0  0  0  0
  -12.7729    5.2274   -0.0000 C   0  0  0  0  0  0  0  0  0  0  0  0
  -12.7847    6.7294   -0.0000 C   0  0  0  0  0  0  0  0  0  0  0  0
  -14.0739    4.4942   -0.0000 C   0  0  0  0  0  0  0  0  0  0  0  0
  -14.0857    7.4863   -0.0000 N   0  0  0  0  0  0  0  0  0  0  0  0
  -15.3748    5.2393   -0.0000 C   0  0  0  0  0  0  0  0  0  0  0  0
  -15.3866    6.7531   -0.0000 C   0  0  0  0  0  0  0  0  0  0  0  0
  -16.6757    4.5060   -0.0000 C   0  0  0  0  0  0  0  0  0  0  0  0
  -17.9885    3.7846   -0.0000 N   0  0  0  0  0  0  0  0  0  0  0  0
  1  2  1  0  0  0  0
  2  3  2  0  0  0  0
  2  4  1  0  0  0  0
  3  5  1  0  0  0  0
  3  6  1  0  0  0  0
  4  7  2  0  0  0  0
  5  8  2  0  0  0  0
  6  9  1  0  0  0  0
  9 10  1  0  0  0  0
  9 11  1  0  0  0  0
 10 12  2  0  0  0  0
 10 13  1  0  0  0  0
 11 14  1  0  0  0  0
 11 15  1  0  0  0  0
 11 16  1  0  0  0  0
 13 17  1  0  0  0  0
 14 18  2  0  0  0  0
 15 19  1  0  0  0  0
 16 20  1  0  0  0  0
 17 21  2  0  0  0  0
 17 22  1  0  0  0  0
 19 23  1  0  0  0  0
 21 24  1  0  0  0  0
 22 25  2  0  0  0  0
 23 26  1  0  0  0  0
 24 27  1  0  0  0  0
 24 28  2  0  0  0  0
 26 29  1  0  0  0  0
 27 30  1  0  0  0  0
 29 31  2  0  0  0  0
 29 32  1  0  0  0  0
 31 33  1  0  0  0  0
 32 34  2  0  0  0  0
 33 35  2  0  0  0  0
 35 36  1  0  0  0  0
 36 37  2  0  0  0  0
 36 38  1  0  0  0  0
 37 39  1  0  0  0  0
 38 40  2  0  0  0  0
 39 41  2  0  0  0  0
 40 42  1  0  0  0  0
 42 43  3  0  0  0  0
  7  8  1  0  0  0  0
 13 14  1  0  0  0  0
 20 23  1  0  0  0  0
 25 28  1  0  0  0  0
 34 35  1  0  0  0  0
 40 41  1  0  0  0  0
M  END
>  <MolRegNo>
384100

>  <m>
=

>  <Value>
6200

>  <Unit>
nM

>  <Type>
IC50

>  <pValue>
5.21

>  <Ligand Efficiency>
0

>  <Binding Efficiency>
0

>  <Surface Efficiency>
0

>  <Assay Index>
287381

>  <Assay Category>


>  <Assay Organism>


>  <Target ID>
17045

>  <Target Name>
Cytochrome P450 3A4

>  <Target Organism>
Homo sapiens

>  <Target Description>
Target is a single protein chain

>  <Sequence Accession>
P08684

>  <Reference>
Bioorg Med Chem Lett 17 (8), 2171-2178 (2007)

>  <Pubmed ID>
17350839

>  <DOI>
10.1016/j.bmcl.2007.01.104

$$$$
384101
Actelion Java MolfileCreator 1.0

 43 48  0  0  0  0  0  0  0  0999 V2000
    0.0000   -0.0000   -0.0000 F   0  0  0  0  0  0  0  0  0  0  0  0
    0.7692    1.2899   -0.0000 C   0  0  0  0  0  0  0  0  0  0  0  0
    0.0473    2.6153   -0.0000 C   0  0  0  0  0  0  0  0  0  0  0  0
    2.2484    1.2662   -0.0000 C   0  0  0  0  0  0  0  0  0  0  0  0
    0.8047    3.9052   -0.0000 C   0  0  0  0  0  0  0  0  0  0  0  0
   -1.4556    2.6626   -0.0000 C   0  0  0  0  0  0  0  0  0  0  0  0
    3.0176    2.5561   -0.0000 C   0  0  0  0  0  0  0  0  0  0  0  0
    2.2839    3.8815   -0.0000 C   0  0  0  0  0  0  0  0  0  0  0  0
   -2.1774    3.9880   -0.0000 N   0  0  0  0  0  0  0  0  0  0  0  0
   -1.3846    5.2542   -0.0000 C   0  0  0  0  0  0  0  0  0  0  0  0
   -3.6330    4.3785   -0.0000 C   0  0  0  0  0  0  0  0  0  0  0  0
    0.0947    5.3489   -0.0000 O   0  0  0  0  0  0  0  0  0  0  0  0
   -2.3431    6.4258   -0.0000 N   0  0  0  0  0  0  0  0  0  0  0  0
   -3.7277    5.8814   -0.0000 C   0  0  0  0  0  0  0  0  0  0  0  0
   -3.6567    2.8875   -0.0000 C   0  0  0  0  0  0  0  0  0  0  0  0
   -4.9465    5.1359   -0.0000 C   0  0  0  0  0  0  0  0  0  0  0  0
   -1.6331    7.7393   -0.0000 C   0  0  0  0  0  0  0  0  0  0  0  0
   -4.9939    6.7098   -0.0000 O   0  0  0  0  0  0  0  0  0  0  0  0
   -4.9584    2.1538   -0.0000 C   0  0  0  0  0  0  0  0  0  0  0  0
   -6.2601    4.4022   -0.0000 C   0  0  0  0  0  0  0  0  0  0  0  0
   -2.4023    9.0292   -0.0000 C   0  0  0  0  0  0  0  0  0  0  0  0
   -0.1538    7.7630   -0.0000 C   0  0  0  0  0  0  0  0  0  0  0  0
   -6.2483    2.9111   -0.0000 N   0  0  0  0  0  0  0  0  0  0  0  0
   -1.6922   10.3428   -0.0000 C   0  0  0  0  0  0  0  0  0  0  0  0
    0.5680    9.0765   -0.0000 C   0  0  0  0  0  0  0  0  0  0  0  0
   -7.5500    2.1774   -0.0000 C   0  0  0  0  0  0  0  0  0  0  0  0
   -2.4733   11.6326   -0.0000 O   0  0  0  0  0  0  0  0  0  0  0  0
   -0.2012   10.3783   -0.0000 C   0  0  0  0  0  0  0  0  0  0  0  0
   -8.8517    2.9348   -0.0000 C   0  0  0  0  0  0  0  0  0  0  0  0
   -1.7632   12.9462   -0.0000 C   0  0  0  0  0  0  0  0  0  0  0  0
  -10.1653    2.2011   -0.0000 C   0  0  0  0  0  0  0  0  0  0  0  0
   -8.8635    4.4495   -0.0000 C   0  0  0  0  0  0  0  0  0  0  0  0
  -11.4670    2.9585   -0.0000 C   0  0  0  0  0  0  0  0  0  0  0  0
  -10.1653    5.2069   -0.0000 C   0  0  0  0  0  0  0  0  0  0  0  0
  -11.4788    4.4614   -0.0000 C   0  0  0  0  0  0  0  0  0  0  0  0
  -12.7805    5.2187   -0.0000 C   0  0  0  0  0  0  0  0  0  0  0  0
  -14.0822    4.4850   -0.0000 C   0  0  0  0  0  0  0  0  0  0  0  0
  -12.7924    6.7216   -0.0000 C   0  0  0  0  0  0  0  0  0  0  0  0
  -14.0941    3.0058   -0.0000 O   0  0  0  0  0  0  0  0  0  0  0  0
  -15.3840    5.2305   -0.0000 C   0  0  0  0  0  0  0  0  0  0  0  0
  -14.0941    7.4790   -0.0000 N   0  0  0  0  0  0  0  0  0  0  0  0
  -15.3958    2.2721   -0.0000 C   0  0  0  0  0  0  0  0  0  0  0  0
  -15.3958    6.7453   -0.0000 C   0  0  0  0  0  0  0  0  0  0  0  0
  1  2  1  0  0  0  0
  2  3  2  0  0  0  0
  2  4  1  0  0  0  0
  3  5  1  0  0  0  0
  3  6  1  0  0  0  0
  4  7  2  0  0  0  0
  5  8  2  0  0  0  0
  6  9  1  0  0  0  0
  9 10  1  0  0  0  0
  9 11  1  0  0  0  0
 10 12  2  0  0  0  0
 10 13  1  0  0  0  0
 11 14  1  0  0  0  0
 11 15  1  0  0  0  0
 11 16  1  0  0  0  0
 13 17  1  0  0  0  0
 14 18  2  0  0  0  0
 15 19  1  0  0  0  0
 16 20  1  0  0  0  0
 17 21  2  0  0  0  0
 17 22  1  0  0  0  0
 19 23  1  0  0  0  0
 21 24  1  0  0  0  0
 22 25  2  0  0  0  0
 23 26  1  0  0  0  0
 24 27  1  0  0  0  0
 24 28  2  0  0  0  0
 26 29  1  0  0  0  0
 27 30  1  0  0  0  0
 29 31  2  0  0  0  0
 29 32  1  0  0  0  0
 31 33  1  0  0  0  0
 32 34  2  0  0  0  0
 33 35  2  0  0  0  0
 35 36  1  0  0  0  0
 36 37  2  0  0  0  0
 36 38  1  0  0  0  0
 37 39  1  0  0  0  0
 37 40  1  0  0  0  0
 38 41  2  0  0  0  0
 39 42  1  0  0  0  0
 40 43  2  0  0  0  0
  7  8  1  0  0  0  0
 13 14  1  0  0  0  0
 20 23  1  0  0  0  0
 25 28  1  0  0  0  0
 34 35  1  0  0  0  0
 41 43  1  0  0  0  0
M  END
>  <MolRegNo>
384101

>  <m>
=

>  <Value>
1700

>  <Unit>
nM

>  <Type>
IC50

>  <pValue>
5.77

>  <Ligand Efficiency>
0

>  <Binding Efficiency>
0

>  <Surface Efficiency>
0

>  <Assay Index>
287381

>  <Assay Category>


>  <Assay Organism>


>  <Target ID>
17045

>  <Target Name>
Cytochrome P450 3A4

>  <Target Organism>
Homo sapiens

>  <Target Description>
Target is a single protein chain

>  <Sequence Accession>
P08684

>  <Reference>
Bioorg Med Chem Lett 17 (8), 2171-2178 (2007)

>  <Pubmed ID>
17350839

>  <DOI>
10.1016/j.bmcl.2007.01.104

$$$$
383748
Actelion Java MolfileCreator 1.0

 32 35  0  0  0  0  0  0  0  0999 V2000
    0.0000   -0.0000   -0.0000 Cl  0  0  0  0  0  0  0  0  0  0  0  0
   -1.4997    0.0590   -0.0000 C   0  0  0  0  0  0  0  0  0  0  0  0
   -2.2083    1.3816   -0.0000 C   0  0  0  0  0  0  0  0  0  0  0  0
   -2.3027   -1.1927   -0.0000 C   0  0  0  0  0  0  0  0  0  0  0  0
   -3.7080    1.4525   -0.0000 C   0  0  0  0  0  0  0  0  0  0  0  0
   -3.8024   -1.1336   -0.0000 C   0  0  0  0  0  0  0  0  0  0  0  0
   -4.5228    0.2008   -0.0000 C   0  0  0  0  0  0  0  0  0  0  0  0
   -4.4165    2.7751   -0.0000 C   0  0  0  0  0  0  0  0  0  0  0  0
   -5.9280    2.8459   -0.0000 O   0  0  0  0  0  0  0  0  0  0  0  0
   -3.6253    4.0504   -0.0000 C   0  0  0  0  0  0  0  0  0  0  0  0
   -4.3338    5.3848   -0.0000 N   0  0  0  0  0  0  0  0  0  0  0  0
   -3.5427    6.6602   -0.0000 C   0  0  0  0  0  0  0  0  0  0  0  0
   -4.2394    8.0064   -0.0000 C   0  0  0  0  0  0  0  0  0  0  0  0
   -2.0665    6.6011   -0.0000 C   0  0  0  0  0  0  0  0  0  0  0  0
   -3.4482    9.2699   -0.0000 C   0  0  0  0  0  0  0  0  0  0  0  0
   -5.7391    8.0891   -0.0000 C   0  0  0  0  0  0  0  0  0  0  0  0
   -1.2635    7.9001   -0.0000 C   0  0  0  0  0  0  0  0  0  0  0  0
   -4.1685   10.6162   -0.0000 O   0  0  0  0  0  0  0  0  0  0  0  0
   -1.9721    9.2227   -0.0000 N   0  0  0  0  0  0  0  0  0  0  0  0
   -6.6130    6.9082   -0.0000 N   0  0  0  0  0  0  0  0  0  0  0  0
   -6.6130    9.3172   -0.0000 N   0  0  0  0  0  0  0  0  0  0  0  0
   -8.0418    7.3805   -0.0000 C   0  0  0  0  0  0  0  0  0  0  0  0
   -8.0418    8.8803   -0.0000 C   0  0  0  0  0  0  0  0  0  0  0  0
   -9.3408    6.6484   -0.0000 C   0  0  0  0  0  0  0  0  0  0  0  0
   -9.3408    9.6360   -0.0000 C   0  0  0  0  0  0  0  0  0  0  0  0
  -10.6516    7.4041   -0.0000 C   0  0  0  0  0  0  0  0  0  0  0  0
   -9.3526    5.1723   -0.0000 C   0  0  0  0  0  0  0  0  0  0  0  0
  -10.6516    8.9039   -0.0000 C   0  0  0  0  0  0  0  0  0  0  0  0
  -11.9506    9.6596   -0.0000 C   0  0  0  0  0  0  0  0  0  0  0  0
  -11.9624   11.1594   -0.0000 N   0  0  0  0  0  0  0  0  0  0  0  0
  -13.2495    8.9275   -0.0000 N   0  0  0  0  0  0  0  0  0  0  0  0
  -14.5485    9.6833   -0.0000 C   0  0  0  0  0  0  0  0  0  0  0  0
  1  2  1  0  0  0  0
  2  3  2  0  0  0  0
  2  4  1  0  0  0  0
  3  5  1  0  0  0  0
  4  6  2  0  0  0  0
  5  7  2  0  0  0  0
  5  8  1  0  0  0  0
  8  9  1  0  0  0  0
  8 10  1  0  0  0  0
 10 11  1  0  0  0  0
 11 12  1  0  0  0  0
 12 13  2  0  0  0  0
 12 14  1  0  0  0  0
 13 15  1  0  0  0  0
 13 16  1  0  0  0  0
 14 17  2  0  0  0  0
 15 18  2  0  0  0  0
 15 19  1  0  0  0  0
 16 20  2  0  0  0  0
 16 21  1  0  0  0  0
 20 22  1  0  0  0  0
 21 23  1  0  0  0  0
 22 24  1  0  0  0  0
 23 25  1  0  0  0  0
 24 26  2  0  0  0  0
 24 27  1  0  0  0  0
 25 28  2  0  0  0  0
 28 29  1  0  0  0  0
 29 30  2  0  0  0  0
 29 31  1  0  0  0  0
 31 32  1  0  0  0  0
  6  7  1  0  0  0  0
 17 19  1  0  0  0  0
 22 23  2  0  0  0  0
 26 28  1  0  0  0  0
M  END
>  <MolRegNo>
383748

>  <m>
=

>  <Value>
15000

>  <Unit>
nM

>  <Type>
IC50

>  <pValue>
4.82

>  <Ligand Efficiency>
0

>  <Binding Efficiency>
0

>  <Surface Efficiency>
0

>  <Assay Index>
287461

>  <Assay Category>


>  <Assay Organism>


>  <Target ID>
17045

>  <Target Name>
Cytochrome P450 3A4

>  <Target Organism>
Homo sapiens

>  <Target Description>
Target is a single protein chain

>  <Sequence Accession>
P08684

>  <Reference>
Bioorg Med Chem Lett 17 (11), 3072-3076 (2007)

>  <Pubmed ID>
17398093

>  <DOI>
10.1016/j.bmcl.2007.03.048

$$$$
383751
Actelion Java MolfileCreator 1.0

 34 38  0  0  0  0  0  0  0  0999 V2000
    0.0000   -0.0000   -0.0000 Cl  0  0  0  0  0  0  0  0  0  0  0  0
   -1.4997    0.0590   -0.0000 C   0  0  0  0  0  0  0  0  0  0  0  0
   -2.2083    1.3816   -0.0000 C   0  0  0  0  0  0  0  0  0  0  0  0
   -2.3027   -1.1927   -0.0000 C   0  0  0  0  0  0  0  0  0  0  0  0
   -3.7080    1.4525   -0.0000 C   0  0  0  0  0  0  0  0  0  0  0  0
   -3.8025   -1.1337   -0.0000 C   0  0  0  0  0  0  0  0  0  0  0  0
   -4.5228    0.2008   -0.0000 C   0  0  0  0  0  0  0  0  0  0  0  0
   -4.4166    2.7751   -0.0000 C   0  0  0  0  0  0  0  0  0  0  0  0
   -5.9281    2.8460   -0.0000 O   0  0  0  0  0  0  0  0  0  0  0  0
   -3.6254    4.0505   -0.0000 C   0  0  0  0  0  0  0  0  0  0  0  0
   -4.3339    5.3849   -0.0000 N   0  0  0  0  0  0  0  0  0  0  0  0
   -3.5427    6.6603   -0.0000 C   0  0  0  0  0  0  0  0  0  0  0  0
   -4.2394    8.0065   -0.0000 C   0  0  0  0  0  0  0  0  0  0  0  0
   -2.0666    6.6012   -0.0000 C   0  0  0  0  0  0  0  0  0  0  0  0
   -3.4482    9.2700   -0.0000 C   0  0  0  0  0  0  0  0  0  0  0  0
   -5.7392    8.0891   -0.0000 C   0  0  0  0  0  0  0  0  0  0  0  0
   -1.2636    7.9002   -0.0000 C   0  0  0  0  0  0  0  0  0  0  0  0
   -4.1686   10.6163   -0.0000 O   0  0  0  0  0  0  0  0  0  0  0  0
   -1.9721    9.2228   -0.0000 N   0  0  0  0  0  0  0  0  0  0  0  0
   -6.6130    6.9082   -0.0000 N   0  0  0  0  0  0  0  0  0  0  0  0
   -6.6130    9.3173   -0.0000 N   0  0  0  0  0  0  0  0  0  0  0  0
   -8.0419    7.3806   -0.0000 C   0  0  0  0  0  0  0  0  0  0  0  0
   -8.0419    8.8685   -0.0000 C   0  0  0  0  0  0  0  0  0  0  0  0
   -9.3409    6.6484   -0.0000 C   0  0  0  0  0  0  0  0  0  0  0  0
   -9.3409    9.6243   -0.0000 C   0  0  0  0  0  0  0  0  0  0  0  0
  -10.6517    7.4042   -0.0000 C   0  0  0  0  0  0  0  0  0  0  0  0
   -9.3527    5.1723   -0.0000 C   0  0  0  0  0  0  0  0  0  0  0  0
  -10.6517    8.8921   -0.0000 C   0  0  0  0  0  0  0  0  0  0  0  0
  -11.9507    9.6479   -0.0000 C   0  0  0  0  0  0  0  0  0  0  0  0
  -12.1750   11.1359   -0.0000 N   0  0  0  0  0  0  0  0  0  0  0  0
  -13.2969    9.0102   -0.0000 N   0  0  0  0  0  0  0  0  0  0  0  0
  -13.6512   11.4075   -0.0000 C   0  0  0  0  0  0  0  0  0  0  0  0
  -14.3597   10.1085   -0.0000 C   0  0  0  0  0  0  0  0  0  0  0  0
  -15.8594    9.9313   -0.0000 C   0  0  0  0  0  0  0  0  0  0  0  0
  1  2  1  0  0  0  0
  2  3  2  0  0  0  0
  2  4  1  0  0  0  0
  3  5  1  0  0  0  0
  4  6  2  0  0  0  0
  5  7  2  0  0  0  0
  5  8  1  0  0  0  0
  8  9  1  0  0  0  0
  8 10  1  0  0  0  0
 10 11  1  0  0  0  0
 11 12  1  0  0  0  0
 12 13  2  0  0  0  0
 12 14  1  0  0  0  0
 13 15  1  0  0  0  0
 13 16  1  0  0  0  0
 14 17  2  0  0  0  0
 15 18  2  0  0  0  0
 15 19  1  0  0  0  0
 16 20  2  0  0  0  0
 16 21  1  0  0  0  0
 20 22  1  0  0  0  0
 21 23  1  0  0  0  0
 22 24  1  0  0  0  0
 23 25  1  0  0  0  0
 24 26  2  0  0  0  0
 24 27  1  0  0  0  0
 25 28  2  0  0  0  0
 28 29  1  0  0  0  0
 29 30  2  0  0  0  0
 29 31  1  0  0  0  0
 30 32  1  0  0  0  0
 31 33  1  0  0  0  0
 33 34  1  0  0  0  0
  6  7  1  0  0  0  0
 17 19  1  0  0  0  0
 22 23  2  0  0  0  0
 26 28  1  0  0  0  0
 32 33  2  0  0  0  0
M  END
>  <MolRegNo>
383751

>  <m>
=

>  <Value>
360

>  <Unit>
nM

>  <Type>
IC50

>  <pValue>
6.44

>  <Ligand Efficiency>
0

>  <Binding Efficiency>
0

>  <Surface Efficiency>
0

>  <Assay Index>
287461

>  <Assay Category>


>  <Assay Organism>


>  <Target ID>
17045

>  <Target Name>
Cytochrome P450 3A4

>  <Target Organism>
Homo sapiens

>  <Target Description>
Target is a single protein chain

>  <Sequence Accession>
P08684

>  <Reference>
Bioorg Med Chem Lett 17 (11), 3072-3076 (2007)

>  <Pubmed ID>
17398093

>  <DOI>
10.1016/j.bmcl.2007.03.048

$$$$
383731
Actelion Java MolfileCreator 1.0

 30 34  0  0  0  0  0  0  0  0999 V2000
    0.0000   -0.0000   -0.0000 O   0  0  0  0  0  0  0  0  0  0  0  0
   -0.7669    1.3097   -0.0000 C   0  0  0  0  0  0  0  0  0  0  0  0
   -2.2772    1.3215   -0.0000 N   0  0  0  0  0  0  0  0  0  0  0  0
   -0.0236    2.6194   -0.0000 C   0  0  0  0  0  0  0  0  0  0  0  0
   -3.0441    2.6312   -0.0000 C   0  0  0  0  0  0  0  0  0  0  0  0
   -0.7905    3.9290   -0.0000 C   0  0  0  0  0  0  0  0  0  0  0  0
    1.4631    2.6312   -0.0000 C   0  0  0  0  0  0  0  0  0  0  0  0
   -2.3008    3.9408   -0.0000 C   0  0  0  0  0  0  0  0  0  0  0  0
   -0.0472    5.2387   -0.0000 N   0  0  0  0  0  0  0  0  0  0  0  0
    2.3362    1.4277   -0.0000 N   0  0  0  0  0  0  0  0  0  0  0  0
    2.3362    3.8582   -0.0000 N   0  0  0  0  0  0  0  0  0  0  0  0
   -0.8141    6.5484   -0.0000 C   0  0  0  0  0  0  0  0  0  0  0  0
    3.7520    1.8996   -0.0000 C   0  0  0  0  0  0  0  0  0  0  0  0
    3.7520    3.4099   -0.0000 C   0  0  0  0  0  0  0  0  0  0  0  0
   -0.0708    7.8581   -0.0000 C   0  0  0  0  0  0  0  0  0  0  0  0
    5.0381    1.1563   -0.0000 C   0  0  0  0  0  0  0  0  0  0  0  0
    5.0381    4.1768   -0.0000 C   0  0  0  0  0  0  0  0  0  0  0  0
    1.4159    7.8699   -0.0000 N   0  0  0  0  0  0  0  0  0  0  0  0
   -0.8377    9.1677   -0.0000 C   0  0  0  0  0  0  0  0  0  0  0  0
    6.3242    1.9232   -0.0000 C   0  0  0  0  0  0  0  0  0  0  0  0
    6.3242    3.4335   -0.0000 C   0  0  0  0  0  0  0  0  0  0  0  0
    5.0263    5.6871   -0.0000 C   0  0  0  0  0  0  0  0  0  0  0  0
    2.1474    9.1795   -0.0000 C   0  0  0  0  0  0  0  0  0  0  0  0
   -0.0944   10.4774   -0.0000 C   0  0  0  0  0  0  0  0  0  0  0  0
    7.6103    1.1799   -0.0000 N   0  0  0  0  0  0  0  0  0  0  0  0
    1.3923   10.4892   -0.0000 C   0  0  0  0  0  0  0  0  0  0  0  0
    8.9672    1.8052   -0.0000 C   0  0  0  0  0  0  0  0  0  0  0  0
    7.7519   -0.2950   -0.0000 C   0  0  0  0  0  0  0  0  0  0  0  0
    9.9583    0.7079   -0.0000 N   0  0  0  0  0  0  0  0  0  0  0  0
    9.2031   -0.5899   -0.0000 C   0  0  0  0  0  0  0  0  0  0  0  0
  1  2  2  0  0  0  0
  2  3  1  0  0  0  0
  2  4  1  0  0  0  0
  3  5  1  0  0  0  0
  4  6  2  0  0  0  0
  4  7  1  0  0  0  0
  5  8  2  0  0  0  0
  6  9  1  0  0  0  0
  7 10  2  0  0  0  0
  7 11  1  0  0  0  0
  9 12  1  0  0  0  0
 10 13  1  0  0  0  0
 11 14  1  0  0  0  0
 12 15  1  0  0  0  0
 13 16  1  0  0  0  0
 14 17  1  0  0  0  0
 15 18  2  0  0  0  0
 15 19  1  0  0  0  0
 16 20  2  0  0  0  0
 17 21  2  0  0  0  0
 17 22  1  0  0  0  0
 18 23  1  0  0  0  0
 19 24  2  0  0  0  0
 20 25  1  0  0  0  0
 23 26  2  0  0  0  0
 25 27  1  0  0  0  0
 25 28  1  0  0  0  0
 27 29  2  0  0  0  0
 28 30  2  0  0  0  0
  6  8  1  0  0  0  0
 13 14  2  0  0  0  0
 20 21  1  0  0  0  0
 24 26  1  0  0  0  0
 29 30  1  0  0  0  0
M  END
>  <MolRegNo>
383731

>  <m>
=

>  <Value>
80

>  <Unit>
nM

>  <Type>
IC50

>  <pValue>
7.1

>  <Ligand Efficiency>
0

>  <Binding Efficiency>
0

>  <Surface Efficiency>
0

>  <Assay Index>
287461

>  <Assay Category>


>  <Assay Organism>


>  <Target ID>
17045

>  <Target Name>
Cytochrome P450 3A4

>  <Target Organism>
Homo sapiens

>  <Target Description>
Target is a single protein chain

>  <Sequence Accession>
P08684

>  <Reference>
Bioorg Med Chem Lett 17 (11), 3072-3076 (2007)

>  <Pubmed ID>
17398093

>  <DOI>
10.1016/j.bmcl.2007.03.048

$$$$
383747
Actelion Java MolfileCreator 1.0

 34 38  0  0  0  0  0  0  0  0999 V2000
    0.0000   -0.0000   -0.0000 Cl  0  0  0  0  0  0  0  0  0  0  0  0
   -1.4991    0.0590   -0.0000 C   0  0  0  0  0  0  0  0  0  0  0  0
   -2.2074    1.3811   -0.0000 C   0  0  0  0  0  0  0  0  0  0  0  0
   -2.3018   -1.1922   -0.0000 C   0  0  0  0  0  0  0  0  0  0  0  0
   -3.7066    1.4519   -0.0000 C   0  0  0  0  0  0  0  0  0  0  0  0
   -3.8010   -1.1332   -0.0000 C   0  0  0  0  0  0  0  0  0  0  0  0
   -4.5211    0.2007   -0.0000 C   0  0  0  0  0  0  0  0  0  0  0  0
   -4.4148    2.7740   -0.0000 C   0  0  0  0  0  0  0  0  0  0  0  0
   -5.9258    2.8448   -0.0000 O   0  0  0  0  0  0  0  0  0  0  0  0
   -3.6239    4.0489   -0.0000 C   0  0  0  0  0  0  0  0  0  0  0  0
   -4.3322    5.3828   -0.0000 N   0  0  0  0  0  0  0  0  0  0  0  0
   -3.5413    6.6576   -0.0000 C   0  0  0  0  0  0  0  0  0  0  0  0
   -4.2378    8.0033   -0.0000 C   0  0  0  0  0  0  0  0  0  0  0  0
   -2.0658    6.5986   -0.0000 C   0  0  0  0  0  0  0  0  0  0  0  0
   -3.4469    9.2664   -0.0000 C   0  0  0  0  0  0  0  0  0  0  0  0
   -5.7369    8.0860   -0.0000 C   0  0  0  0  0  0  0  0  0  0  0  0
   -1.2631    7.8971   -0.0000 C   0  0  0  0  0  0  0  0  0  0  0  0
   -4.1669   10.6121   -0.0000 O   0  0  0  0  0  0  0  0  0  0  0  0
   -1.9713    9.2192   -0.0000 N   0  0  0  0  0  0  0  0  0  0  0  0
   -6.6104    6.9055   -0.0000 N   0  0  0  0  0  0  0  0  0  0  0  0
   -6.6104    9.3136   -0.0000 N   0  0  0  0  0  0  0  0  0  0  0  0
   -8.0387    7.3777   -0.0000 C   0  0  0  0  0  0  0  0  0  0  0  0
   -8.0387    8.8769   -0.0000 C   0  0  0  0  0  0  0  0  0  0  0  0
   -9.3372    6.6458   -0.0000 C   0  0  0  0  0  0  0  0  0  0  0  0
   -9.3372    9.6323   -0.0000 C   0  0  0  0  0  0  0  0  0  0  0  0
  -10.6475    7.4013   -0.0000 C   0  0  0  0  0  0  0  0  0  0  0  0
   -9.3490    5.1703   -0.0000 C   0  0  0  0  0  0  0  0  0  0  0  0
  -10.6475    8.9005   -0.0000 C   0  0  0  0  0  0  0  0  0  0  0  0
  -11.9460    9.6559   -0.0000 C   0  0  0  0  0  0  0  0  0  0  0  0
  -11.9460   11.1551   -0.0000 N   0  0  0  0  0  0  0  0  0  0  0  0
  -13.2445    8.9123   -0.0000 N   0  0  0  0  0  0  0  0  0  0  0  0
  -13.2445   11.9106   -0.0000 C   0  0  0  0  0  0  0  0  0  0  0  0
  -14.5429    9.6795   -0.0000 C   0  0  0  0  0  0  0  0  0  0  0  0
  -14.5547   11.1905   -0.0000 C   0  0  0  0  0  0  0  0  0  0  0  0
  1  2  1  0  0  0  0
  2  3  2  0  0  0  0
  2  4  1  0  0  0  0
  3  5  1  0  0  0  0
  4  6  2  0  0  0  0
  5  7  2  0  0  0  0
  5  8  1  0  0  0  0
  8  9  1  0  0  0  0
  8 10  1  0  0  0  0
 10 11  1  0  0  0  0
 11 12  1  0  0  0  0
 12 13  2  0  0  0  0
 12 14  1  0  0  0  0
 13 15  1  0  0  0  0
 13 16  1  0  0  0  0
 14 17  2  0  0  0  0
 15 18  2  0  0  0  0
 15 19  1  0  0  0  0
 16 20  2  0  0  0  0
 16 21  1  0  0  0  0
 20 22  1  0  0  0  0
 21 23  1  0  0  0  0
 22 24  1  0  0  0  0
 23 25  1  0  0  0  0
 24 26  2  0  0  0  0
 24 27  1  0  0  0  0
 25 28  2  0  0  0  0
 28 29  1  0  0  0  0
 29 30  2  0  0  0  0
 29 31  1  0  0  0  0
 30 32  1  0  0  0  0
 31 33  1  0  0  0  0
 32 34  1  0  0  0  0
  6  7  1  0  0  0  0
 17 19  1  0  0  0  0
 22 23  2  0  0  0  0
 26 28  1  0  0  0  0
 33 34  1  0  0  0  0
M  END
>  <MolRegNo>
383747

>  <m>
=

>  <Value>
16000

>  <Unit>
nM

>  <Type>
IC50

>  <pValue>
4.8

>  <Ligand Efficiency>
0

>  <Binding Efficiency>
0

>  <Surface Efficiency>
0

>  <Assay Index>
287461

>  <Assay Category>


>  <Assay Organism>


>  <Target ID>
17045

>  <Target Name>
Cytochrome P450 3A4

>  <Target Organism>
Homo sapiens

>  <Target Description>
Target is a single protein chain

>  <Sequence Accession>
P08684

>  <Reference>
Bioorg Med Chem Lett 17 (11), 3072-3076 (2007)

>  <Pubmed ID>
17398093

>  <DOI>
10.1016/j.bmcl.2007.03.048

$$$$
383746
Actelion Java MolfileCreator 1.0

 35 39  0  0  0  0  0  0  0  0999 V2000
    0.0000   -0.0000   -0.0000 Cl  0  0  0  0  0  0  0  0  0  0  0  0
   -1.4996    0.0590   -0.0000 C   0  0  0  0  0  0  0  0  0  0  0  0
   -2.2080    1.3815   -0.0000 C   0  0  0  0  0  0  0  0  0  0  0  0
   -2.3025   -1.1926   -0.0000 C   0  0  0  0  0  0  0  0  0  0  0  0
   -3.7076    1.4524   -0.0000 C   0  0  0  0  0  0  0  0  0  0  0  0
   -3.8021   -1.1335   -0.0000 C   0  0  0  0  0  0  0  0  0  0  0  0
   -4.5224    0.2007   -0.0000 C   0  0  0  0  0  0  0  0  0  0  0  0
   -4.4161    2.7748   -0.0000 C   0  0  0  0  0  0  0  0  0  0  0  0
   -5.9275    2.8457   -0.0000 O   0  0  0  0  0  0  0  0  0  0  0  0
   -3.6250    4.0500   -0.0000 C   0  0  0  0  0  0  0  0  0  0  0  0
   -4.3334    5.3843   -0.0000 N   0  0  0  0  0  0  0  0  0  0  0  0
   -3.5423    6.6596   -0.0000 C   0  0  0  0  0  0  0  0  0  0  0  0
   -4.2390    8.0056   -0.0000 C   0  0  0  0  0  0  0  0  0  0  0  0
   -2.0664    6.6005   -0.0000 C   0  0  0  0  0  0  0  0  0  0  0  0
   -3.4479    9.2691   -0.0000 C   0  0  0  0  0  0  0  0  0  0  0  0
   -5.7386    8.0883   -0.0000 C   0  0  0  0  0  0  0  0  0  0  0  0
   -1.2634    7.8994   -0.0000 C   0  0  0  0  0  0  0  0  0  0  0  0
   -4.1681   10.6151   -0.0000 O   0  0  0  0  0  0  0  0  0  0  0  0
   -1.9719    9.2218   -0.0000 N   0  0  0  0  0  0  0  0  0  0  0  0
   -6.6123    6.9075   -0.0000 N   0  0  0  0  0  0  0  0  0  0  0  0
   -6.6123    9.3163   -0.0000 N   0  0  0  0  0  0  0  0  0  0  0  0
   -8.0411    7.3798   -0.0000 C   0  0  0  0  0  0  0  0  0  0  0  0
   -8.0411    8.8676   -0.0000 C   0  0  0  0  0  0  0  0  0  0  0  0
   -9.3399    6.6477   -0.0000 C   0  0  0  0  0  0  0  0  0  0  0  0
   -9.3399    9.6233   -0.0000 C   0  0  0  0  0  0  0  0  0  0  0  0
  -10.6506    7.4034   -0.0000 C   0  0  0  0  0  0  0  0  0  0  0  0
   -9.3517    5.1718   -0.0000 C   0  0  0  0  0  0  0  0  0  0  0  0
  -10.6506    8.8912   -0.0000 C   0  0  0  0  0  0  0  0  0  0  0  0
  -11.9494    9.6469   -0.0000 C   0  0  0  0  0  0  0  0  0  0  0  0
  -12.1738   11.1347   -0.0000 N   0  0  0  0  0  0  0  0  0  0  0  0
  -13.2955    9.0093   -0.0000 N   0  0  0  0  0  0  0  0  0  0  0  0
  -13.6497   11.4063   -0.0000 C   0  0  0  0  0  0  0  0  0  0  0  0
  -14.3582   10.1074   -0.0000 C   0  0  0  0  0  0  0  0  0  0  0  0
  -15.1139   11.8077   -0.0000 C   0  0  0  0  0  0  0  0  0  0  0  0
  -13.2837   12.8586   -0.0000 C   0  0  0  0  0  0  0  0  0  0  0  0
  1  2  1  0  0  0  0
  2  3  2  0  0  0  0
  2  4  1  0  0  0  0
  3  5  1  0  0  0  0
  4  6  2  0  0  0  0
  5  7  2  0  0  0  0
  5  8  1  0  0  0  0
  8  9  1  0  0  0  0
  8 10  1  0  0  0  0
 10 11  1  0  0  0  0
 11 12  1  0  0  0  0
 12 13  2  0  0  0  0
 12 14  1  0  0  0  0
 13 15  1  0  0  0  0
 13 16  1  0  0  0  0
 14 17  2  0  0  0  0
 15 18  2  0  0  0  0
 15 19  1  0  0  0  0
 16 20  2  0  0  0  0
 16 21  1  0  0  0  0
 20 22  1  0  0  0  0
 21 23  1  0  0  0  0
 22 24  1  0  0  0  0
 23 25  1  0  0  0  0
 24 26  2  0  0  0  0
 24 27  1  0  0  0  0
 25 28  2  0  0  0  0
 28 29  1  0  0  0  0
 29 30  2  0  0  0  0
 29 31  1  0  0  0  0
 30 32  1  0  0  0  0
 31 33  1  0  0  0  0
 32 34  1  0  0  0  0
 32 35  1  0  0  0  0
  6  7  1  0  0  0  0
 17 19  1  0  0  0  0
 22 23  2  0  0  0  0
 26 28  1  0  0  0  0
 32 33  1  0  0  0  0
M  END
>  <MolRegNo>
383746

>  <m>
=

>  <Value>
13000

>  <Unit>
nM

>  <Type>
IC50

>  <pValue>
4.89

>  <Ligand Efficiency>
0

>  <Binding Efficiency>
0

>  <Surface Efficiency>
0

>  <Assay Index>
287461

>  <Assay Category>


>  <Assay Organism>


>  <Target ID>
17045

>  <Target Name>
Cytochrome P450 3A4

>  <Target Organism>
Homo sapiens

>  <Target Description>
Target is a single protein chain

>  <Sequence Accession>
P08684

>  <Reference>
Bioorg Med Chem Lett 17 (11), 3072-3076 (2007)

>  <Pubmed ID>
17398093

>  <DOI>
10.1016/j.bmcl.2007.03.048

$$$$
383745
Actelion Java MolfileCreator 1.0

 34 38  0  0  0  0  0  0  0  0999 V2000
    0.0000   -0.0000   -0.0000 Cl  0  0  0  0  0  0  0  0  0  0  0  0
   -1.5009   -0.0236   -0.0000 C   0  0  0  0  0  0  0  0  0  0  0  0
   -2.2927    1.2527   -0.0000 C   0  0  0  0  0  0  0  0  0  0  0  0
   -2.2218   -1.3236   -0.0000 C   0  0  0  0  0  0  0  0  0  0  0  0
   -3.7936    1.2291   -0.0000 C   0  0  0  0  0  0  0  0  0  0  0  0
   -3.7227   -1.3591   -0.0000 C   0  0  0  0  0  0  0  0  0  0  0  0
   -4.5263   -0.0709   -0.0000 C   0  0  0  0  0  0  0  0  0  0  0  0
   -4.5854    2.5054   -0.0000 C   0  0  0  0  0  0  0  0  0  0  0  0
   -6.0981    2.4936   -0.0000 O   0  0  0  0  0  0  0  0  0  0  0  0
   -3.8763    3.8172   -0.0000 C   0  0  0  0  0  0  0  0  0  0  0  0
   -4.6681    5.1054   -0.0000 N   0  0  0  0  0  0  0  0  0  0  0  0
   -3.9591    6.4290   -0.0000 C   0  0  0  0  0  0  0  0  0  0  0  0
   -4.7391    7.7290   -0.0000 C   0  0  0  0  0  0  0  0  0  0  0  0
   -2.4818    6.4527   -0.0000 C   0  0  0  0  0  0  0  0  0  0  0  0
   -4.0300    9.0408   -0.0000 C   0  0  0  0  0  0  0  0  0  0  0  0
   -6.2400    7.7290   -0.0000 C   0  0  0  0  0  0  0  0  0  0  0  0
   -1.7491    7.7999   -0.0000 C   0  0  0  0  0  0  0  0  0  0  0  0
   -4.8218   10.3408   -0.0000 O   0  0  0  0  0  0  0  0  0  0  0  0
   -2.5527    9.0881   -0.0000 N   0  0  0  0  0  0  0  0  0  0  0  0
   -7.1145    6.5472   -0.0000 N   0  0  0  0  0  0  0  0  0  0  0  0
   -7.1145    8.9581   -0.0000 N   0  0  0  0  0  0  0  0  0  0  0  0
   -8.5445    7.0199   -0.0000 C   0  0  0  0  0  0  0  0  0  0  0  0
   -8.5445    8.5090   -0.0000 C   0  0  0  0  0  0  0  0  0  0  0  0
   -9.8327    6.2754   -0.0000 C   0  0  0  0  0  0  0  0  0  0  0  0
   -9.8445    9.2654   -0.0000 C   0  0  0  0  0  0  0  0  0  0  0  0
  -11.1445    7.0318   -0.0000 C   0  0  0  0  0  0  0  0  0  0  0  0
   -9.8445    4.7981   -0.0000 C   0  0  0  0  0  0  0  0  0  0  0  0
  -11.1563    8.5208   -0.0000 C   0  0  0  0  0  0  0  0  0  0  0  0
  -12.4563    9.2654   -0.0000 C   0  0  0  0  0  0  0  0  0  0  0  0
  -12.6808   10.7545   -0.0000 N   0  0  0  0  0  0  0  0  0  0  0  0
  -13.7917    8.6272   -0.0000 N   0  0  0  0  0  0  0  0  0  0  0  0
  -14.1581   11.0145   -0.0000 C   0  0  0  0  0  0  0  0  0  0  0  0
  -14.8553    9.7145   -0.0000 C   0  0  0  0  0  0  0  0  0  0  0  0
  -14.8317   12.3617   -0.0000 C   0  0  0  0  0  0  0  0  0  0  0  0
  1  2  1  0  0  0  0
  2  3  2  0  0  0  0
  2  4  1  0  0  0  0
  3  5  1  0  0  0  0
  4  6  2  0  0  0  0
  5  7  2  0  0  0  0
  5  8  1  0  0  0  0
  8  9  1  0  0  0  0
  8 10  1  0  0  0  0
 10 11  1  0  0  0  0
 11 12  1  0  0  0  0
 12 13  2  0  0  0  0
 12 14  1  0  0  0  0
 13 15  1  0  0  0  0
 13 16  1  0  0  0  0
 14 17  2  0  0  0  0
 15 18  2  0  0  0  0
 15 19  1  0  0  0  0
 16 20  2  0  0  0  0
 16 21  1  0  0  0  0
 20 22  1  0  0  0  0
 21 23  1  0  0  0  0
 22 24  1  0  0  0  0
 23 25  1  0  0  0  0
 24 26  2  0  0  0  0
 24 27  1  0  0  0  0
 25 28  2  0  0  0  0
 28 29  1  0  0  0  0
 29 30  2  0  0  0  0
 29 31  1  0  0  0  0
 30 32  1  0  0  0  0
 31 33  1  0  0  0  0
 32 34  1  0  0  0  0
  6  7  1  0  0  0  0
 17 19  1  0  0  0  0
 22 23  2  0  0  0  0
 26 28  1  0  0  0  0
 32 33  1  0  0  0  0
M  END
>  <MolRegNo>
383745

>  <m>
=

>  <Value>
4300

>  <Unit>
nM

>  <Type>
IC50

>  <pValue>
5.37

>  <Ligand Efficiency>
0

>  <Binding Efficiency>
0

>  <Surface Efficiency>
0

>  <Assay Index>
287461

>  <Assay Category>


>  <Assay Organism>


>  <Target ID>
17045

>  <Target Name>
Cytochrome P450 3A4

>  <Target Organism>
Homo sapiens

>  <Target Description>
Target is a single protein chain

>  <Sequence Accession>
P08684

>  <Reference>
Bioorg Med Chem Lett 17 (11), 3072-3076 (2007)

>  <Pubmed ID>
17398093

>  <DOI>
10.1016/j.bmcl.2007.03.048

$$$$
383744
Actelion Java MolfileCreator 1.0

 34 38  0  0  0  0  0  0  0  0999 V2000
    0.0000   -0.0000   -0.0000 Cl  0  0  0  0  0  0  0  0  0  0  0  0
   -1.5004    0.0591   -0.0000 C   0  0  0  0  0  0  0  0  0  0  0  0
   -2.2093    1.3823   -0.0000 C   0  0  0  0  0  0  0  0  0  0  0  0
   -2.3038   -1.1933   -0.0000 C   0  0  0  0  0  0  0  0  0  0  0  0
   -3.7097    1.4532   -0.0000 C   0  0  0  0  0  0  0  0  0  0  0  0
   -3.8042   -1.1342   -0.0000 C   0  0  0  0  0  0  0  0  0  0  0  0
   -4.5249    0.2008   -0.0000 C   0  0  0  0  0  0  0  0  0  0  0  0
   -4.4186    2.7764   -0.0000 C   0  0  0  0  0  0  0  0  0  0  0  0
   -5.9308    2.8473   -0.0000 O   0  0  0  0  0  0  0  0  0  0  0  0
   -3.6270    4.0523   -0.0000 C   0  0  0  0  0  0  0  0  0  0  0  0
   -4.3359    5.3874   -0.0000 N   0  0  0  0  0  0  0  0  0  0  0  0
   -3.5443    6.6633   -0.0000 C   0  0  0  0  0  0  0  0  0  0  0  0
   -4.2414    8.0102   -0.0000 C   0  0  0  0  0  0  0  0  0  0  0  0
   -2.0675    6.6042   -0.0000 C   0  0  0  0  0  0  0  0  0  0  0  0
   -3.4498    9.2743   -0.0000 C   0  0  0  0  0  0  0  0  0  0  0  0
   -5.7418    8.0929   -0.0000 C   0  0  0  0  0  0  0  0  0  0  0  0
   -1.2641    7.9038   -0.0000 C   0  0  0  0  0  0  0  0  0  0  0  0
   -4.1705   10.6211   -0.0000 O   0  0  0  0  0  0  0  0  0  0  0  0
   -1.9730    9.2270   -0.0000 N   0  0  0  0  0  0  0  0  0  0  0  0
   -6.6161    6.9114   -0.0000 N   0  0  0  0  0  0  0  0  0  0  0  0
   -6.6161    9.3216   -0.0000 N   0  0  0  0  0  0  0  0  0  0  0  0
   -8.0456    7.3840   -0.0000 C   0  0  0  0  0  0  0  0  0  0  0  0
   -8.0456    8.8844   -0.0000 C   0  0  0  0  0  0  0  0  0  0  0  0
   -9.3452    6.6515   -0.0000 C   0  0  0  0  0  0  0  0  0  0  0  0
   -9.3452    9.6405   -0.0000 C   0  0  0  0  0  0  0  0  0  0  0  0
  -10.6566    7.4076   -0.0000 C   0  0  0  0  0  0  0  0  0  0  0  0
   -9.3570    5.1747   -0.0000 C   0  0  0  0  0  0  0  0  0  0  0  0
  -10.6566    8.9080   -0.0000 C   0  0  0  0  0  0  0  0  0  0  0  0
  -11.9562    9.6642   -0.0000 C   0  0  0  0  0  0  0  0  0  0  0  0
  -12.1806   11.1528   -0.0000 N   0  0  0  0  0  0  0  0  0  0  0  0
  -13.3030    9.0262   -0.0000 N   0  0  0  0  0  0  0  0  0  0  0  0
  -13.6574   11.4127   -0.0000 C   0  0  0  0  0  0  0  0  0  0  0  0
  -14.3663   10.1249   -0.0000 C   0  0  0  0  0  0  0  0  0  0  0  0
  -13.3266    7.5494   -0.0000 C   0  0  0  0  0  0  0  0  0  0  0  0
  1  2  1  0  0  0  0
  2  3  2  0  0  0  0
  2  4  1  0  0  0  0
  3  5  1  0  0  0  0
  4  6  2  0  0  0  0
  5  7  2  0  0  0  0
  5  8  1  0  0  0  0
  8  9  1  0  0  0  0
  8 10  1  0  0  0  0
 10 11  1  0  0  0  0
 11 12  1  0  0  0  0
 12 13  2  0  0  0  0
 12 14  1  0  0  0  0
 13 15  1  0  0  0  0
 13 16  1  0  0  0  0
 14 17  2  0  0  0  0
 15 18  2  0  0  0  0
 15 19  1  0  0  0  0
 16 20  2  0  0  0  0
 16 21  1  0  0  0  0
 20 22  1  0  0  0  0
 21 23  1  0  0  0  0
 22 24  1  0  0  0  0
 23 25  1  0  0  0  0
 24 26  2  0  0  0  0
 24 27  1  0  0  0  0
 25 28  2  0  0  0  0
 28 29  1  0  0  0  0
 29 30  2  0  0  0  0
 29 31  1  0  0  0  0
 30 32  1  0  0  0  0
 31 33  1  0  0  0  0
 31 34  1  0  0  0  0
  6  7  1  0  0  0  0
 17 19  1  0  0  0  0
 22 23  2  0  0  0  0
 26 28  1  0  0  0  0
 32 33  1  0  0  0  0
M  END
>  <MolRegNo>
383744

>  <m>
=

>  <Value>
35000

>  <Unit>
nM

>  <Type>
IC50

>  <pValue>
4.46

>  <Ligand Efficiency>
0

>  <Binding Efficiency>
0

>  <Surface Efficiency>
0

>  <Assay Index>
287461

>  <Assay Category>


>  <Assay Organism>


>  <Target ID>
17045

>  <Target Name>
Cytochrome P450 3A4

>  <Target Organism>
Homo sapiens

>  <Target Description>
Target is a single protein chain

>  <Sequence Accession>
P08684

>  <Reference>
Bioorg Med Chem Lett 17 (11), 3072-3076 (2007)

>  <Pubmed ID>
17398093

>  <DOI>
10.1016/j.bmcl.2007.03.048

$$$$
383743
Actelion Java MolfileCreator 1.0

 37 41  0  0  0  0  0  0  0  0999 V2000
    0.0000   -0.0000   -0.0000 Cl  0  0  0  0  0  0  0  0  0  0  0  0
   -1.5051    0.0118   -0.0000 C   0  0  0  0  0  0  0  0  0  0  0  0
   -2.2577    1.3170   -0.0000 C   0  0  0  0  0  0  0  0  0  0  0  0
   -2.2577   -1.2700   -0.0000 C   0  0  0  0  0  0  0  0  0  0  0  0
   -3.7628    1.3287   -0.0000 C   0  0  0  0  0  0  0  0  0  0  0  0
   -3.7628   -1.2582   -0.0000 C   0  0  0  0  0  0  0  0  0  0  0  0
   -4.5154    0.0470   -0.0000 C   0  0  0  0  0  0  0  0  0  0  0  0
   -4.5154    2.6340   -0.0000 C   0  0  0  0  0  0  0  0  0  0  0  0
   -6.0205    2.6575   -0.0000 O   0  0  0  0  0  0  0  0  0  0  0  0
   -3.7863    3.9392   -0.0000 C   0  0  0  0  0  0  0  0  0  0  0  0
   -4.5389    5.2444   -0.0000 N   0  0  0  0  0  0  0  0  0  0  0  0
   -3.8099    6.5497   -0.0000 C   0  0  0  0  0  0  0  0  0  0  0  0
   -4.5624    7.8549   -0.0000 C   0  0  0  0  0  0  0  0  0  0  0  0
   -2.3282    6.5614   -0.0000 C   0  0  0  0  0  0  0  0  0  0  0  0
   -3.8334    9.1601   -0.0000 C   0  0  0  0  0  0  0  0  0  0  0  0
   -6.0676    7.8667   -0.0000 C   0  0  0  0  0  0  0  0  0  0  0  0
   -1.5992    7.8667   -0.0000 C   0  0  0  0  0  0  0  0  0  0  0  0
   -4.5859   10.4654   -0.0000 O   0  0  0  0  0  0  0  0  0  0  0  0
   -2.3518    9.1719   -0.0000 N   0  0  0  0  0  0  0  0  0  0  0  0
   -6.9495    6.6673   -0.0000 N   0  0  0  0  0  0  0  0  0  0  0  0
   -6.9495    9.0896   -0.0000 N   0  0  0  0  0  0  0  0  0  0  0  0
   -8.3841    7.1376   -0.0000 C   0  0  0  0  0  0  0  0  0  0  0  0
   -8.3723    8.6427   -0.0000 C   0  0  0  0  0  0  0  0  0  0  0  0
   -9.6893    6.4086   -0.0000 C   0  0  0  0  0  0  0  0  0  0  0  0
   -9.6775    9.3953   -0.0000 C   0  0  0  0  0  0  0  0  0  0  0  0
  -10.9945    7.1611   -0.0000 C   0  0  0  0  0  0  0  0  0  0  0  0
   -9.7010    4.9270   -0.0000 C   0  0  0  0  0  0  0  0  0  0  0  0
  -10.9828    8.6663   -0.0000 C   0  0  0  0  0  0  0  0  0  0  0  0
  -12.2880    9.4188   -0.0000 C   0  0  0  0  0  0  0  0  0  0  0  0
  -12.2997   10.9240   -0.0000 O   0  0  0  0  0  0  0  0  0  0  0  0
  -13.5932    8.6898   -0.0000 N   0  0  0  0  0  0  0  0  0  0  0  0
  -14.8984    9.4423   -0.0000 C   0  0  0  0  0  0  0  0  0  0  0  0
  -14.8984   10.9475   -0.0000 C   0  0  0  0  0  0  0  0  0  0  0  0
  -16.1919    8.7015   -0.0000 C   0  0  0  0  0  0  0  0  0  0  0  0
  -16.1919   11.7000   -0.0000 C   0  0  0  0  0  0  0  0  0  0  0  0
  -17.4972    9.4659   -0.0000 C   0  0  0  0  0  0  0  0  0  0  0  0
  -17.4972   10.9710   -0.0000 C   0  0  0  0  0  0  0  0  0  0  0  0
  1  2  1  0  0  0  0
  2  3  2  0  0  0  0
  2  4  1  0  0  0  0
  3  5  1  0  0  0  0
  4  6  2  0  0  0  0
  5  7  2  0  0  0  0
  5  8  1  0  0  0  0
  8  9  1  0  0  0  0
  8 10  1  0  0  0  0
 10 11  1  0  0  0  0
 11 12  1  0  0  0  0
 12 13  2  0  0  0  0
 12 14  1  0  0  0  0
 13 15  1  0  0  0  0
 13 16  1  0  0  0  0
 14 17  2  0  0  0  0
 15 18  2  0  0  0  0
 15 19  1  0  0  0  0
 16 20  2  0  0  0  0
 16 21  1  0  0  0  0
 20 22  1  0  0  0  0
 21 23  1  0  0  0  0
 22 24  1  0  0  0  0
 23 25  1  0  0  0  0
 24 26  2  0  0  0  0
 24 27  1  0  0  0  0
 25 28  2  0  0  0  0
 28 29  1  0  0  0  0
 29 30  2  0  0  0  0
 29 31  1  0  0  0  0
 31 32  1  0  0  0  0
 32 33  1  0  0  0  0
 32 34  1  0  0  0  0
 33 35  1  0  0  0  0
 34 36  1  0  0  0  0
 35 37  1  0  0  0  0
  6  7  1  0  0  0  0
 17 19  1  0  0  0  0
 22 23  2  0  0  0  0
 26 28  1  0  0  0  0
 36 37  1  0  0  0  0
M  END
>  <MolRegNo>
383743

>  <m>
=

>  <Value>
11000

>  <Unit>
nM

>  <Type>
IC50

>  <pValue>
4.96

>  <Ligand Efficiency>
0

>  <Binding Efficiency>
0

>  <Surface Efficiency>
0

>  <Assay Index>
287461

>  <Assay Category>


>  <Assay Organism>


>  <Target ID>
17045

>  <Target Name>
Cytochrome P450 3A4

>  <Target Organism>
Homo sapiens

>  <Target Description>
Target is a single protein chain

>  <Sequence Accession>
P08684

>  <Reference>
Bioorg Med Chem Lett 17 (11), 3072-3076 (2007)

>  <Pubmed ID>
17398093

>  <DOI>
10.1016/j.bmcl.2007.03.048

$$$$
383742
Actelion Java MolfileCreator 1.0

 36 40  0  0  0  0  0  0  0  0999 V2000
    0.0000   -0.0000   -0.0000 Cl  0  0  0  0  0  0  0  0  0  0  0  0
   -1.5054    0.0118   -0.0000 C   0  0  0  0  0  0  0  0  0  0  0  0
   -2.2581    1.3172   -0.0000 C   0  0  0  0  0  0  0  0  0  0  0  0
   -2.2581   -1.2702   -0.0000 C   0  0  0  0  0  0  0  0  0  0  0  0
   -3.7634    1.3290   -0.0000 C   0  0  0  0  0  0  0  0  0  0  0  0
   -3.7634   -1.2584   -0.0000 C   0  0  0  0  0  0  0  0  0  0  0  0
   -4.5161    0.0470   -0.0000 C   0  0  0  0  0  0  0  0  0  0  0  0
   -4.5161    2.6344   -0.0000 C   0  0  0  0  0  0  0  0  0  0  0  0
   -6.0215    2.6579   -0.0000 O   0  0  0  0  0  0  0  0  0  0  0  0
   -3.7869    3.9398   -0.0000 C   0  0  0  0  0  0  0  0  0  0  0  0
   -4.5396    5.2453   -0.0000 N   0  0  0  0  0  0  0  0  0  0  0  0
   -3.8105    6.5507   -0.0000 C   0  0  0  0  0  0  0  0  0  0  0  0
   -4.5631    7.8561   -0.0000 C   0  0  0  0  0  0  0  0  0  0  0  0
   -2.3286    6.5625   -0.0000 C   0  0  0  0  0  0  0  0  0  0  0  0
   -3.8340    9.1616   -0.0000 C   0  0  0  0  0  0  0  0  0  0  0  0
   -6.0685    7.8679   -0.0000 C   0  0  0  0  0  0  0  0  0  0  0  0
   -1.5995    7.8679   -0.0000 C   0  0  0  0  0  0  0  0  0  0  0  0
   -4.5867   10.4670   -0.0000 O   0  0  0  0  0  0  0  0  0  0  0  0
   -2.3521    9.1733   -0.0000 N   0  0  0  0  0  0  0  0  0  0  0  0
   -6.9506    6.6683   -0.0000 N   0  0  0  0  0  0  0  0  0  0  0  0
   -6.9506    9.0910   -0.0000 N   0  0  0  0  0  0  0  0  0  0  0  0
   -8.3854    7.1387   -0.0000 C   0  0  0  0  0  0  0  0  0  0  0  0
   -8.3736    8.6441   -0.0000 C   0  0  0  0  0  0  0  0  0  0  0  0
   -9.6908    6.4096   -0.0000 C   0  0  0  0  0  0  0  0  0  0  0  0
   -9.6790    9.3968   -0.0000 C   0  0  0  0  0  0  0  0  0  0  0  0
  -10.9962    7.1623   -0.0000 C   0  0  0  0  0  0  0  0  0  0  0  0
   -9.7026    4.9277   -0.0000 C   0  0  0  0  0  0  0  0  0  0  0  0
  -10.9845    8.6676   -0.0000 C   0  0  0  0  0  0  0  0  0  0  0  0
  -12.2899    9.4203   -0.0000 C   0  0  0  0  0  0  0  0  0  0  0  0
  -12.3017   10.9257   -0.0000 O   0  0  0  0  0  0  0  0  0  0  0  0
  -13.5954    8.6911   -0.0000 N   0  0  0  0  0  0  0  0  0  0  0  0
  -14.9008    9.4438   -0.0000 C   0  0  0  0  0  0  0  0  0  0  0  0
  -15.0654   10.9374   -0.0000 C   0  0  0  0  0  0  0  0  0  0  0  0
  -16.2768    8.8558   -0.0000 C   0  0  0  0  0  0  0  0  0  0  0  0
  -16.5355   11.2550   -0.0000 C   0  0  0  0  0  0  0  0  0  0  0  0
  -17.2882    9.9731   -0.0000 C   0  0  0  0  0  0  0  0  0  0  0  0
  1  2  1  0  0  0  0
  2  3  2  0  0  0  0
  2  4  1  0  0  0  0
  3  5  1  0  0  0  0
  4  6  2  0  0  0  0
  5  7  2  0  0  0  0
  5  8  1  0  0  0  0
  8  9  1  0  0  0  0
  8 10  1  0  0  0  0
 10 11  1  0  0  0  0
 11 12  1  0  0  0  0
 12 13  2  0  0  0  0
 12 14  1  0  0  0  0
 13 15  1  0  0  0  0
 13 16  1  0  0  0  0
 14 17  2  0  0  0  0
 15 18  2  0  0  0  0
 15 19  1  0  0  0  0
 16 20  2  0  0  0  0
 16 21  1  0  0  0  0
 20 22  1  0  0  0  0
 21 23  1  0  0  0  0
 22 24  1  0  0  0  0
 23 25  1  0  0  0  0
 24 26  2  0  0  0  0
 24 27  1  0  0  0  0
 25 28  2  0  0  0  0
 28 29  1  0  0  0  0
 29 30  2  0  0  0  0
 29 31  1  0  0  0  0
 31 32  1  0  0  0  0
 32 33  1  0  0  0  0
 32 34  1  0  0  0  0
 33 35  1  0  0  0  0
 34 36  1  0  0  0  0
  6  7  1  0  0  0  0
 17 19  1  0  0  0  0
 22 23  2  0  0  0  0
 26 28  1  0  0  0  0
 35 36  1  0  0  0  0
M  END
>  <MolRegNo>
383742

>  <m>
=

>  <Value>
1600

>  <Unit>
nM

>  <Type>
IC50

>  <pValue>
5.8

>  <Ligand Efficiency>
0

>  <Binding Efficiency>
0

>  <Surface Efficiency>
0

>  <Assay Index>
287461

>  <Assay Category>


>  <Assay Organism>


>  <Target ID>
17045

>  <Target Name>
Cytochrome P450 3A4

>  <Target Organism>
Homo sapiens

>  <Target Description>
Target is a single protein chain

>  <Sequence Accession>
P08684

>  <Reference>
Bioorg Med Chem Lett 17 (11), 3072-3076 (2007)

>  <Pubmed ID>
17398093

>  <DOI>
10.1016/j.bmcl.2007.03.048

$$$$
383741
Actelion Java MolfileCreator 1.0

 34 38  0  0  0  0  0  0  0  0999 V2000
    0.0000   -0.0000   -0.0000 Cl  0  0  0  0  0  0  0  0  0  0  0  0
   -1.5056    0.0118   -0.0000 C   0  0  0  0  0  0  0  0  0  0  0  0
   -2.2584    1.3174   -0.0000 C   0  0  0  0  0  0  0  0  0  0  0  0
   -2.2584   -1.2703   -0.0000 C   0  0  0  0  0  0  0  0  0  0  0  0
   -3.7639    1.3291   -0.0000 C   0  0  0  0  0  0  0  0  0  0  0  0
   -3.7639   -1.2586   -0.0000 C   0  0  0  0  0  0  0  0  0  0  0  0
   -4.5167    0.0470   -0.0000 C   0  0  0  0  0  0  0  0  0  0  0  0
   -4.5167    2.6348   -0.0000 C   0  0  0  0  0  0  0  0  0  0  0  0
   -6.0223    2.6583   -0.0000 O   0  0  0  0  0  0  0  0  0  0  0  0
   -3.7875    3.9404   -0.0000 C   0  0  0  0  0  0  0  0  0  0  0  0
   -4.5403    5.2460   -0.0000 N   0  0  0  0  0  0  0  0  0  0  0  0
   -3.8110    6.5516   -0.0000 C   0  0  0  0  0  0  0  0  0  0  0  0
   -4.5638    7.8572   -0.0000 C   0  0  0  0  0  0  0  0  0  0  0  0
   -2.3289    6.5634   -0.0000 C   0  0  0  0  0  0  0  0  0  0  0  0
   -3.8345    9.1629   -0.0000 C   0  0  0  0  0  0  0  0  0  0  0  0
   -6.0694    7.8690   -0.0000 C   0  0  0  0  0  0  0  0  0  0  0  0
   -1.5997    7.8690   -0.0000 C   0  0  0  0  0  0  0  0  0  0  0  0
   -4.5873   10.4685   -0.0000 O   0  0  0  0  0  0  0  0  0  0  0  0
   -2.3525    9.1746   -0.0000 N   0  0  0  0  0  0  0  0  0  0  0  0
   -6.9515    6.6692   -0.0000 N   0  0  0  0  0  0  0  0  0  0  0  0
   -6.9515    9.0923   -0.0000 N   0  0  0  0  0  0  0  0  0  0  0  0
   -8.3865    7.1397   -0.0000 C   0  0  0  0  0  0  0  0  0  0  0  0
   -8.3748    8.6453   -0.0000 C   0  0  0  0  0  0  0  0  0  0  0  0
   -9.6922    6.4105   -0.0000 C   0  0  0  0  0  0  0  0  0  0  0  0
   -9.6804    9.3981   -0.0000 C   0  0  0  0  0  0  0  0  0  0  0  0
  -10.9978    7.1633   -0.0000 C   0  0  0  0  0  0  0  0  0  0  0  0
   -9.7039    4.9284   -0.0000 C   0  0  0  0  0  0  0  0  0  0  0  0
  -10.9860    8.6688   -0.0000 C   0  0  0  0  0  0  0  0  0  0  0  0
  -12.2916    9.4216   -0.0000 C   0  0  0  0  0  0  0  0  0  0  0  0
  -12.3034   10.9272   -0.0000 O   0  0  0  0  0  0  0  0  0  0  0  0
  -13.5973    8.6924   -0.0000 N   0  0  0  0  0  0  0  0  0  0  0  0
  -14.9029    9.4452   -0.0000 C   0  0  0  0  0  0  0  0  0  0  0  0
  -15.6557   10.7390   -0.0000 C   0  0  0  0  0  0  0  0  0  0  0  0
  -16.4085    9.4569   -0.0000 C   0  0  0  0  0  0  0  0  0  0  0  0
  1  2  1  0  0  0  0
  2  3  2  0  0  0  0
  2  4  1  0  0  0  0
  3  5  1  0  0  0  0
  4  6  2  0  0  0  0
  5  7  2  0  0  0  0
  5  8  1  0  0  0  0
  8  9  1  0  0  0  0
  8 10  1  0  0  0  0
 10 11  1  0  0  0  0
 11 12  1  0  0  0  0
 12 13  2  0  0  0  0
 12 14  1  0  0  0  0
 13 15  1  0  0  0  0
 13 16  1  0  0  0  0
 14 17  2  0  0  0  0
 15 18  2  0  0  0  0
 15 19  1  0  0  0  0
 16 20  2  0  0  0  0
 16 21  1  0  0  0  0
 20 22  1  0  0  0  0
 21 23  1  0  0  0  0
 22 24  1  0  0  0  0
 23 25  1  0  0  0  0
 24 26  2  0  0  0  0
 24 27  1  0  0  0  0
 25 28  2  0  0  0  0
 28 29  1  0  0  0  0
 29 30  2  0  0  0  0
 29 31  1  0  0  0  0
 31 32  1  0  0  0  0
 32 33  1  0  0  0  0
 32 34  1  0  0  0  0
  6  7  1  0  0  0  0
 17 19  1  0  0  0  0
 22 23  2  0  0  0  0
 26 28  1  0  0  0  0
 33 34  1  0  0  0  0
M  END
>  <MolRegNo>
383741

>  <m>
=

>  <Value>
10000

>  <Unit>
nM

>  <Type>
IC50

>  <pValue>
5

>  <Ligand Efficiency>
0

>  <Binding Efficiency>
0

>  <Surface Efficiency>
0

>  <Assay Index>
287461

>  <Assay Category>


>  <Assay Organism>


>  <Target ID>
17045

>  <Target Name>
Cytochrome P450 3A4

>  <Target Organism>
Homo sapiens

>  <Target Description>
Target is a single protein chain

>  <Sequence Accession>
P08684

>  <Reference>
Bioorg Med Chem Lett 17 (11), 3072-3076 (2007)

>  <Pubmed ID>
17398093

>  <DOI>
10.1016/j.bmcl.2007.03.048

$$$$
383740
Actelion Java MolfileCreator 1.0

 33 36  0  0  0  0  0  0  0  0999 V2000
    0.0000   -0.0000   -0.0000 Cl  0  0  0  0  0  0  0  0  0  0  0  0
   -1.5059    0.0118   -0.0000 C   0  0  0  0  0  0  0  0  0  0  0  0
   -2.2588    1.3177   -0.0000 C   0  0  0  0  0  0  0  0  0  0  0  0
   -2.2588   -1.2706   -0.0000 C   0  0  0  0  0  0  0  0  0  0  0  0
   -3.7647    1.3294   -0.0000 C   0  0  0  0  0  0  0  0  0  0  0  0
   -3.7647   -1.2588   -0.0000 C   0  0  0  0  0  0  0  0  0  0  0  0
   -4.5177    0.0471   -0.0000 C   0  0  0  0  0  0  0  0  0  0  0  0
   -4.5177    2.6353   -0.0000 C   0  0  0  0  0  0  0  0  0  0  0  0
   -6.0236    2.6588   -0.0000 O   0  0  0  0  0  0  0  0  0  0  0  0
   -3.7883    3.9412   -0.0000 C   0  0  0  0  0  0  0  0  0  0  0  0
   -4.5412    5.2471   -0.0000 N   0  0  0  0  0  0  0  0  0  0  0  0
   -3.8118    6.5530   -0.0000 C   0  0  0  0  0  0  0  0  0  0  0  0
   -4.5647    7.8589   -0.0000 C   0  0  0  0  0  0  0  0  0  0  0  0
   -2.3294    6.5648   -0.0000 C   0  0  0  0  0  0  0  0  0  0  0  0
   -3.8353    9.1648   -0.0000 C   0  0  0  0  0  0  0  0  0  0  0  0
   -6.0706    7.8706   -0.0000 C   0  0  0  0  0  0  0  0  0  0  0  0
   -1.6000    7.8706   -0.0000 C   0  0  0  0  0  0  0  0  0  0  0  0
   -4.5883   10.4707   -0.0000 O   0  0  0  0  0  0  0  0  0  0  0  0
   -2.3530    9.1765   -0.0000 N   0  0  0  0  0  0  0  0  0  0  0  0
   -6.9530    6.6706   -0.0000 N   0  0  0  0  0  0  0  0  0  0  0  0
   -6.9530    9.0942   -0.0000 N   0  0  0  0  0  0  0  0  0  0  0  0
   -8.3883    7.1412   -0.0000 C   0  0  0  0  0  0  0  0  0  0  0  0
   -8.3765    8.6471   -0.0000 C   0  0  0  0  0  0  0  0  0  0  0  0
   -9.6942    6.4118   -0.0000 C   0  0  0  0  0  0  0  0  0  0  0  0
   -9.6824    9.4001   -0.0000 C   0  0  0  0  0  0  0  0  0  0  0  0
  -11.0001    7.1648   -0.0000 C   0  0  0  0  0  0  0  0  0  0  0  0
   -9.7060    4.9294   -0.0000 C   0  0  0  0  0  0  0  0  0  0  0  0
  -10.9883    8.6707   -0.0000 C   0  0  0  0  0  0  0  0  0  0  0  0
  -12.2942    9.4236   -0.0000 C   0  0  0  0  0  0  0  0  0  0  0  0
  -12.3060   10.9295   -0.0000 O   0  0  0  0  0  0  0  0  0  0  0  0
  -13.6001    8.6942   -0.0000 N   0  0  0  0  0  0  0  0  0  0  0  0
  -13.6236    7.2118   -0.0000 C   0  0  0  0  0  0  0  0  0  0  0  0
  -14.8942    9.4589   -0.0000 C   0  0  0  0  0  0  0  0  0  0  0  0
  1  2  1  0  0  0  0
  2  3  2  0  0  0  0
  2  4  1  0  0  0  0
  3  5  1  0  0  0  0
  4  6  2  0  0  0  0
  5  7  2  0  0  0  0
  5  8  1  0  0  0  0
  8  9  1  0  0  0  0
  8 10  1  0  0  0  0
 10 11  1  0  0  0  0
 11 12  1  0  0  0  0
 12 13  2  0  0  0  0
 12 14  1  0  0  0  0
 13 15  1  0  0  0  0
 13 16  1  0  0  0  0
 14 17  2  0  0  0  0
 15 18  2  0  0  0  0
 15 19  1  0  0  0  0
 16 20  2  0  0  0  0
 16 21  1  0  0  0  0
 20 22  1  0  0  0  0
 21 23  1  0  0  0  0
 22 24  1  0  0  0  0
 23 25  1  0  0  0  0
 24 26  2  0  0  0  0
 24 27  1  0  0  0  0
 25 28  2  0  0  0  0
 28 29  1  0  0  0  0
 29 30  2  0  0  0  0
 29 31  1  0  0  0  0
 31 32  1  0  0  0  0
 31 33  1  0  0  0  0
  6  7  1  0  0  0  0
 17 19  1  0  0  0  0
 22 23  2  0  0  0  0
 26 28  1  0  0  0  0
M  END
>  <MolRegNo>
383740

>  <m>
=

>  <Value>
2200

>  <Unit>
nM

>  <Type>
IC50

>  <pValue>
5.66

>  <Ligand Efficiency>
0

>  <Binding Efficiency>
0

>  <Surface Efficiency>
0

>  <Assay Index>
287461

>  <Assay Category>


>  <Assay Organism>


>  <Target ID>
17045

>  <Target Name>
Cytochrome P450 3A4

>  <Target Organism>
Homo sapiens

>  <Target Description>
Target is a single protein chain

>  <Sequence Accession>
P08684

>  <Reference>
Bioorg Med Chem Lett 17 (11), 3072-3076 (2007)

>  <Pubmed ID>
17398093

>  <DOI>
10.1016/j.bmcl.2007.03.048

$$$$
383739
Actelion Java MolfileCreator 1.0

 32 35  0  0  0  0  0  0  0  0999 V2000
    0.0000   -0.0000   -0.0000 Cl  0  0  0  0  0  0  0  0  0  0  0  0
   -1.5053    0.0118   -0.0000 C   0  0  0  0  0  0  0  0  0  0  0  0
   -2.2579    1.3171   -0.0000 C   0  0  0  0  0  0  0  0  0  0  0  0
   -2.2579   -1.2701   -0.0000 C   0  0  0  0  0  0  0  0  0  0  0  0
   -3.7632    1.3289   -0.0000 C   0  0  0  0  0  0  0  0  0  0  0  0
   -3.7632   -1.2583   -0.0000 C   0  0  0  0  0  0  0  0  0  0  0  0
   -4.5158    0.0470   -0.0000 C   0  0  0  0  0  0  0  0  0  0  0  0
   -4.5158    2.6342   -0.0000 C   0  0  0  0  0  0  0  0  0  0  0  0
   -6.0211    2.6577   -0.0000 O   0  0  0  0  0  0  0  0  0  0  0  0
   -3.7867    3.9396   -0.0000 C   0  0  0  0  0  0  0  0  0  0  0  0
   -4.5393    5.2449   -0.0000 N   0  0  0  0  0  0  0  0  0  0  0  0
   -3.8102    6.5503   -0.0000 C   0  0  0  0  0  0  0  0  0  0  0  0
   -4.5629    7.8556   -0.0000 C   0  0  0  0  0  0  0  0  0  0  0  0
   -2.3285    6.5620   -0.0000 C   0  0  0  0  0  0  0  0  0  0  0  0
   -3.8337    9.1610   -0.0000 C   0  0  0  0  0  0  0  0  0  0  0  0
   -6.0681    7.8674   -0.0000 C   0  0  0  0  0  0  0  0  0  0  0  0
   -1.5994    7.8674   -0.0000 C   0  0  0  0  0  0  0  0  0  0  0  0
   -4.5864   10.4663   -0.0000 O   0  0  0  0  0  0  0  0  0  0  0  0
   -2.3520    9.1728   -0.0000 N   0  0  0  0  0  0  0  0  0  0  0  0
   -6.9501    6.6679   -0.0000 N   0  0  0  0  0  0  0  0  0  0  0  0
   -6.9501    9.0904   -0.0000 N   0  0  0  0  0  0  0  0  0  0  0  0
   -8.3848    7.1383   -0.0000 C   0  0  0  0  0  0  0  0  0  0  0  0
   -8.3731    8.6436   -0.0000 C   0  0  0  0  0  0  0  0  0  0  0  0
   -9.6902    6.4092   -0.0000 C   0  0  0  0  0  0  0  0  0  0  0  0
   -9.6784    9.3962   -0.0000 C   0  0  0  0  0  0  0  0  0  0  0  0
  -10.9955    7.1618   -0.0000 C   0  0  0  0  0  0  0  0  0  0  0  0
   -9.7019    4.9274   -0.0000 C   0  0  0  0  0  0  0  0  0  0  0  0
  -10.9838    8.6671   -0.0000 C   0  0  0  0  0  0  0  0  0  0  0  0
  -12.2891    9.4197   -0.0000 C   0  0  0  0  0  0  0  0  0  0  0  0
  -12.3009   10.9250   -0.0000 O   0  0  0  0  0  0  0  0  0  0  0  0
  -13.5945    8.6906   -0.0000 N   0  0  0  0  0  0  0  0  0  0  0  0
  -14.8998    9.4432   -0.0000 C   0  0  0  0  0  0  0  0  0  0  0  0
  1  2  1  0  0  0  0
  2  3  2  0  0  0  0
  2  4  1  0  0  0  0
  3  5  1  0  0  0  0
  4  6  2  0  0  0  0
  5  7  2  0  0  0  0
  5  8  1  0  0  0  0
  8  9  1  0  0  0  0
  8 10  1  0  0  0  0
 10 11  1  0  0  0  0
 11 12  1  0  0  0  0
 12 13  2  0  0  0  0
 12 14  1  0  0  0  0
 13 15  1  0  0  0  0
 13 16  1  0  0  0  0
 14 17  2  0  0  0  0
 15 18  2  0  0  0  0
 15 19  1  0  0  0  0
 16 20  2  0  0  0  0
 16 21  1  0  0  0  0
 20 22  1  0  0  0  0
 21 23  1  0  0  0  0
 22 24  1  0  0  0  0
 23 25  1  0  0  0  0
 24 26  2  0  0  0  0
 24 27  1  0  0  0  0
 25 28  2  0  0  0  0
 28 29  1  0  0  0  0
 29 30  2  0  0  0  0
 29 31  1  0  0  0  0
 31 32  1  0  0  0  0
  6  7  1  0  0  0  0
 17 19  1  0  0  0  0
 22 23  2  0  0  0  0
 26 28  1  0  0  0  0
M  END
>  <MolRegNo>
383739

>  <m>
=

>  <Value>
3700

>  <Unit>
nM

>  <Type>
IC50

>  <pValue>
5.43

>  <Ligand Efficiency>
0

>  <Binding Efficiency>
0

>  <Surface Efficiency>
0

>  <Assay Index>
287461

>  <Assay Category>


>  <Assay Organism>


>  <Target ID>
17045

>  <Target Name>
Cytochrome P450 3A4

>  <Target Organism>
Homo sapiens

>  <Target Description>
Target is a single protein chain

>  <Sequence Accession>
P08684

>  <Reference>
Bioorg Med Chem Lett 17 (11), 3072-3076 (2007)

>  <Pubmed ID>
17398093

>  <DOI>
10.1016/j.bmcl.2007.03.048

$$$$
383737
Actelion Java MolfileCreator 1.0

 28 31  0  0  0  0  0  0  0  0999 V2000
    0.0000   -0.0000   -0.0000 Cl  0  0  0  0  0  0  0  0  0  0  0  0
   -1.5044    0.0118   -0.0000 C   0  0  0  0  0  0  0  0  0  0  0  0
   -2.2566    1.3164   -0.0000 C   0  0  0  0  0  0  0  0  0  0  0  0
   -2.2566   -1.2694   -0.0000 C   0  0  0  0  0  0  0  0  0  0  0  0
   -3.7611    1.3281   -0.0000 C   0  0  0  0  0  0  0  0  0  0  0  0
   -3.7611   -1.2576   -0.0000 C   0  0  0  0  0  0  0  0  0  0  0  0
   -4.5133    0.0470   -0.0000 C   0  0  0  0  0  0  0  0  0  0  0  0
   -4.5133    2.6327   -0.0000 C   0  0  0  0  0  0  0  0  0  0  0  0
   -6.0177    2.6563   -0.0000 O   0  0  0  0  0  0  0  0  0  0  0  0
   -3.7846    3.9374   -0.0000 C   0  0  0  0  0  0  0  0  0  0  0  0
   -4.5368    5.2420   -0.0000 N   0  0  0  0  0  0  0  0  0  0  0  0
   -3.7963    6.5466   -0.0000 C   0  0  0  0  0  0  0  0  0  0  0  0
   -4.5485    7.8512   -0.0000 C   0  0  0  0  0  0  0  0  0  0  0  0
   -2.3154    6.5584   -0.0000 C   0  0  0  0  0  0  0  0  0  0  0  0
   -3.8198    9.1558   -0.0000 C   0  0  0  0  0  0  0  0  0  0  0  0
   -6.0530    7.8630   -0.0000 C   0  0  0  0  0  0  0  0  0  0  0  0
   -1.5749    7.8630   -0.0000 C   0  0  0  0  0  0  0  0  0  0  0  0
   -4.5720   10.4605   -0.0000 O   0  0  0  0  0  0  0  0  0  0  0  0
   -2.3389    9.1676   -0.0000 N   0  0  0  0  0  0  0  0  0  0  0  0
   -6.9345    6.6641   -0.0000 N   0  0  0  0  0  0  0  0  0  0  0  0
   -6.9345    9.0853   -0.0000 N   0  0  0  0  0  0  0  0  0  0  0  0
   -8.3684    7.1343   -0.0000 C   0  0  0  0  0  0  0  0  0  0  0  0
   -8.3684    8.6387   -0.0000 C   0  0  0  0  0  0  0  0  0  0  0  0
   -9.6730    6.4056   -0.0000 C   0  0  0  0  0  0  0  0  0  0  0  0
   -9.6730    9.4027   -0.0000 C   0  0  0  0  0  0  0  0  0  0  0  0
  -10.9776    7.1578   -0.0000 C   0  0  0  0  0  0  0  0  0  0  0  0
   -9.6847    4.9246   -0.0000 C   0  0  0  0  0  0  0  0  0  0  0  0
  -10.9776    8.6622   -0.0000 C   0  0  0  0  0  0  0  0  0  0  0  0
  1  2  1  0  0  0  0
  2  3  2  0  0  0  0
  2  4  1  0  0  0  0
  3  5  1  0  0  0  0
  4  6  2  0  0  0  0
  5  7  2  0  0  0  0
  5  8  1  0  0  0  0
  8  9  1  0  0  0  0
  8 10  1  0  0  0  0
 10 11  1  0  0  0  0
 11 12  1  0  0  0  0
 12 13  2  0  0  0  0
 12 14  1  0  0  0  0
 13 15  1  0  0  0  0
 13 16  1  0  0  0  0
 14 17  2  0  0  0  0
 15 18  2  0  0  0  0
 15 19  1  0  0  0  0
 16 20  2  0  0  0  0
 16 21  1  0  0  0  0
 20 22  1  0  0  0  0
 21 23  1  0  0  0  0
 22 24  1  0  0  0  0
 23 25  1  0  0  0  0
 24 26  2  0  0  0  0
 24 27  1  0  0  0  0
 25 28  2  0  0  0  0
  6  7  1  0  0  0  0
 17 19  1  0  0  0  0
 22 23  2  0  0  0  0
 26 28  1  0  0  0  0
M  END
>  <MolRegNo>
383737

>  <m>
=

>  <Value>
710

>  <Unit>
nM

>  <Type>
IC50

>  <pValue>
6.15

>  <Ligand Efficiency>
0

>  <Binding Efficiency>
0

>  <Surface Efficiency>
0

>  <Assay Index>
287461

>  <Assay Category>


>  <Assay Organism>


>  <Target ID>
17045

>  <Target Name>
Cytochrome P450 3A4

>  <Target Organism>
Homo sapiens

>  <Target Description>
Target is a single protein chain

>  <Sequence Accession>
P08684

>  <Reference>
Bioorg Med Chem Lett 17 (11), 3072-3076 (2007)

>  <Pubmed ID>
17398093

>  <DOI>
10.1016/j.bmcl.2007.03.048

$$$$
383736
Actelion Java MolfileCreator 1.0

 36 40  0  0  1  0  0  0  0  0999 V2000
    0.0000   -0.0000   -0.0000 O   0  0  0  0  0  0  0  0  0  0  0  0
    0.7479   -1.2822   -0.0000 C   0  0  0  0  0  0  0  0  0  0  0  0
    2.2319   -1.2822   -0.0000 N   0  0  0  0  0  0  0  0  0  0  0  0
   -0.0237   -2.5762   -0.0000 C   0  0  0  0  0  0  0  0  0  0  0  0
    2.9680   -2.5643   -0.0000 C   0  0  0  0  0  0  0  0  0  0  0  0
    0.7242   -3.8702   -0.0000 C   0  0  0  0  0  0  0  0  0  0  0  0
   -1.5315   -2.5643   -0.0000 C   0  0  0  0  0  0  0  0  0  0  0  0
    2.2082   -3.8584   -0.0000 C   0  0  0  0  0  0  0  0  0  0  0  0
   -0.0356   -5.1524   -0.0000 N   0  0  0  0  0  0  0  0  0  0  0  0
   -2.4337   -3.7634   -0.0000 N   0  0  0  0  0  0  0  0  0  0  0  0
   -2.4337   -1.3415   -0.0000 N   0  0  0  0  0  0  0  0  0  0  0  0
   -0.0594   -6.6364   -0.0000 C   0  0  0  0  0  0  0  0  0  0  0  0
   -3.8821   -3.2885   -0.0000 C   0  0  0  0  0  0  0  0  0  0  0  0
   -3.8702   -1.7808   -0.0000 C   0  0  0  0  0  0  0  0  0  0  0  0
    1.2228   -7.3843   -0.0000 C   0  0  0  0  0  0  0  0  0  0  0  0
   -1.3771   -7.3606   -0.0000 C   0  0  0  0  0  0  0  0  0  0  0  0
   -5.1880   -4.0246   -0.0000 C   0  0  0  0  0  0  0  0  0  0  0  0
   -5.1762   -1.0210   -0.0000 C   0  0  0  0  0  0  0  0  0  0  0  0
    2.5168   -6.6364   -0.0000 O   0  0  0  0  0  0  0  0  0  0  0  0
   -1.4009   -8.8446   -0.0000 C   0  0  0  0  0  0  0  0  0  0  0  0
   -6.5058   -3.2648   -0.0000 C   0  0  0  0  0  0  0  0  0  0  0  0
   -5.1999   -5.5204   -0.0000 C   0  0  0  0  0  0  0  0  0  0  0  0
   -6.4939   -1.7570   -0.0000 C   0  0  0  0  0  0  0  0  0  0  0  0
   -2.7187   -9.5688   -0.0000 C   0  0  0  0  0  0  0  0  0  0  0  0
   -0.1187   -9.5806   -0.0000 C   0  0  0  0  0  0  0  0  0  0  0  0
   -7.7999   -0.9972   -0.0000 C   0  0  0  0  0  0  0  0  0  0  0  0
   -2.7424  -11.0528   -0.0000 C   0  0  0  0  0  0  0  0  0  0  0  0
   -0.1425  -11.0646   -0.0000 C   0  0  0  0  0  0  0  0  0  0  0  0
   -7.7999    0.5105   -0.0000 C   0  0  0  0  0  0  0  0  0  0  0  0
   -9.1058   -1.7333   -0.0000 C   0  0  0  0  0  0  0  0  0  0  0  0
   -1.4602  -11.8007   -0.0000 C   0  0  0  0  0  0  0  0  0  0  0  0
   -9.1058    1.2703   -0.0000 C   0  0  0  0  0  0  0  0  0  0  0  0
  -10.4117   -0.9735   -0.0000 C   0  0  0  0  0  0  0  0  0  0  0  0
  -10.4235    0.5342   -0.0000 C   0  0  0  0  0  0  0  0  0  0  0  0
  -11.7295    1.2940   -0.0000 O   0  0  0  0  0  0  0  0  0  0  0  0
  -11.7413    2.8018   -0.0000 C   0  0  0  0  0  0  0  0  0  0  0  0
  1  2  2  0  0  0  0
  2  3  1  0  0  0  0
  2  4  1  0  0  0  0
  3  5  1  0  0  0  0
  4  6  2  0  0  0  0
  4  7  1  0  0  0  0
  5  8  2  0  0  0  0
  6  9  1  0  0  0  0
  7 10  2  0  0  0  0
  7 11  1  0  0  0  0
 12  9  1  6  0  0  0
 10 13  1  0  0  0  0
 11 14  1  0  0  0  0
 12 15  1  0  0  0  0
 12 16  1  0  0  0  0
 13 17  1  0  0  0  0
 14 18  1  0  0  0  0
 15 19  1  0  0  0  0
 16 20  1  0  0  0  0
 17 21  2  0  0  0  0
 17 22  1  0  0  0  0
 18 23  2  0  0  0  0
 20 24  2  0  0  0  0
 20 25  1  0  0  0  0
 23 26  1  0  0  0  0
 24 27  1  0  0  0  0
 25 28  2  0  0  0  0
 26 29  2  0  0  0  0
 26 30  1  0  0  0  0
 27 31  2  0  0  0  0
 29 32  1  0  0  0  0
 30 33  2  0  0  0  0
 32 34  2  0  0  0  0
 34 35  1  0  0  0  0
 35 36  1  0  0  0  0
  6  8  1  0  0  0  0
 13 14  2  0  0  0  0
 21 23  1  0  0  0  0
 28 31  1  0  0  0  0
 33 34  1  0  0  0  0
M  END
>  <MolRegNo>
383736

>  <m>
=

>  <Value>
6800

>  <Unit>
nM

>  <Type>
IC50

>  <pValue>
5.17

>  <Ligand Efficiency>
0

>  <Binding Efficiency>
0

>  <Surface Efficiency>
0

>  <Assay Index>
287461

>  <Assay Category>


>  <Assay Organism>


>  <Target ID>
17045

>  <Target Name>
Cytochrome P450 3A4

>  <Target Organism>
Homo sapiens

>  <Target Description>
Target is a single protein chain

>  <Sequence Accession>
P08684

>  <Reference>
Bioorg Med Chem Lett 17 (11), 3072-3076 (2007)

>  <Pubmed ID>
17398093

>  <DOI>
10.1016/j.bmcl.2007.03.048

$$$$
383735
Actelion Java MolfileCreator 1.0

 35 39  0  0  1  0  0  0  0  0999 V2000
    0.0000   -0.0000   -0.0000 F   0  0  0  0  0  0  0  0  0  0  0  0
    1.2894   -0.7402   -0.0000 C   0  0  0  0  0  0  0  0  0  0  0  0
    2.5908    0.0239   -0.0000 C   0  0  0  0  0  0  0  0  0  0  0  0
    1.2775   -2.2445   -0.0000 C   0  0  0  0  0  0  0  0  0  0  0  0
    3.8802   -0.7163   -0.0000 C   0  0  0  0  0  0  0  0  0  0  0  0
    2.5669   -2.9848   -0.0000 C   0  0  0  0  0  0  0  0  0  0  0  0
    3.8563   -2.2087   -0.0000 C   0  0  0  0  0  0  0  0  0  0  0  0
    5.1457   -2.9490   -0.0000 C   0  0  0  0  0  0  0  0  0  0  0  0
    5.1338   -4.4533   -0.0000 C   0  0  0  0  0  0  0  0  0  0  0  0
    6.4471   -2.1849   -0.0000 C   0  0  0  0  0  0  0  0  0  0  0  0
    6.4352   -5.1935   -0.0000 C   0  0  0  0  0  0  0  0  0  0  0  0
    7.7365   -2.9251   -0.0000 C   0  0  0  0  0  0  0  0  0  0  0  0
    7.7246   -4.4294   -0.0000 C   0  0  0  0  0  0  0  0  0  0  0  0
    6.4232   -6.6978   -0.0000 C   0  0  0  0  0  0  0  0  0  0  0  0
    9.1692   -2.4595   -0.0000 N   0  0  0  0  0  0  0  0  0  0  0  0
    9.1573   -4.8831   -0.0000 N   0  0  0  0  0  0  0  0  0  0  0  0
   10.0527   -3.6653   -0.0000 C   0  0  0  0  0  0  0  0  0  0  0  0
   11.5451   -3.6534   -0.0000 C   0  0  0  0  0  0  0  0  0  0  0  0
   12.2973   -2.3281   -0.0000 C   0  0  0  0  0  0  0  0  0  0  0  0
   12.2973   -4.9547   -0.0000 C   0  0  0  0  0  0  0  0  0  0  0  0
   11.5212   -1.0148   -0.0000 O   0  0  0  0  0  0  0  0  0  0  0  0
   13.7896   -2.3281   -0.0000 N   0  0  0  0  0  0  0  0  0  0  0  0
   11.5332   -6.2441   -0.0000 N   0  0  0  0  0  0  0  0  0  0  0  0
   13.7896   -4.9428   -0.0000 C   0  0  0  0  0  0  0  0  0  0  0  0
   14.5299   -3.6175   -0.0000 C   0  0  0  0  0  0  0  0  0  0  0  0
   11.5093   -7.7365   -0.0000 C   0  0  0  0  0  0  0  0  0  0  0  0
   12.7987   -8.4887   -0.0000 C   0  0  0  0  0  0  0  0  0  0  0  0
   10.1840   -8.4648   -0.0000 C   0  0  0  0  0  0  0  0  0  0  0  0
   14.1001   -7.7365   -0.0000 O   0  0  0  0  0  0  0  0  0  0  0  0
   10.1602   -9.9572   -0.0000 C   0  0  0  0  0  0  0  0  0  0  0  0
    8.8349  -10.6855   -0.0000 C   0  0  0  0  0  0  0  0  0  0  0  0
   11.4496  -10.6974   -0.0000 C   0  0  0  0  0  0  0  0  0  0  0  0
    8.8110  -12.1779   -0.0000 C   0  0  0  0  0  0  0  0  0  0  0  0
   11.4257  -12.1898   -0.0000 C   0  0  0  0  0  0  0  0  0  0  0  0
   10.1005  -12.9300   -0.0000 C   0  0  0  0  0  0  0  0  0  0  0  0
  1  2  1  0  0  0  0
  2  3  2  0  0  0  0
  2  4  1  0  0  0  0
  3  5  1  0  0  0  0
  4  6  2  0  0  0  0
  5  7  2  0  0  0  0
  7  8  1  0  0  0  0
  8  9  2  0  0  0  0
  8 10  1  0  0  0  0
  9 11  1  0  0  0  0
 10 12  2  0  0  0  0
 11 13  2  0  0  0  0
 11 14  1  0  0  0  0
 12 15  1  0  0  0  0
 13 16  1  0  0  0  0
 15 17  1  0  0  0  0
 17 18  1  0  0  0  0
 18 19  1  0  0  0  0
 18 20  2  0  0  0  0
 19 21  2  0  0  0  0
 19 22  1  0  0  0  0
 20 23  1  0  0  0  0
 20 24  1  0  0  0  0
 22 25  1  0  0  0  0
 26 23  1  6  0  0  0
 26 27  1  0  0  0  0
 26 28  1  0  0  0  0
 27 29  1  0  0  0  0
 28 30  1  0  0  0  0
 30 31  2  0  0  0  0
 30 32  1  0  0  0  0
 31 33  1  0  0  0  0
 32 34  2  0  0  0  0
 33 35  2  0  0  0  0
  6  7  1  0  0  0  0
 12 13  1  0  0  0  0
 16 17  2  0  0  0  0
 24 25  2  0  0  0  0
 34 35  1  0  0  0  0
M  END
>  <MolRegNo>
383735

>  <m>
=

>  <Value>
6300

>  <Unit>
nM

>  <Type>
IC50

>  <pValue>
5.2

>  <Ligand Efficiency>
0

>  <Binding Efficiency>
0

>  <Surface Efficiency>
0

>  <Assay Index>
287461

>  <Assay Category>


>  <Assay Organism>


>  <Target ID>
17045

>  <Target Name>
Cytochrome P450 3A4

>  <Target Organism>
Homo sapiens

>  <Target Description>
Target is a single protein chain

>  <Sequence Accession>
P08684

>  <Reference>
Bioorg Med Chem Lett 17 (11), 3072-3076 (2007)

>  <Pubmed ID>
17398093

>  <DOI>
10.1016/j.bmcl.2007.03.048

$$$$
383734
Actelion Java MolfileCreator 1.0

 34 38  0  0  1  0  0  0  0  0999 V2000
    0.0000   -0.0000   -0.0000 O   0  0  0  0  0  0  0  0  0  0  0  0
    0.7478   -1.2819   -0.0000 C   0  0  0  0  0  0  0  0  0  0  0  0
    2.2315   -1.2819   -0.0000 N   0  0  0  0  0  0  0  0  0  0  0  0
   -0.0237   -2.5757   -0.0000 C   0  0  0  0  0  0  0  0  0  0  0  0
    2.9674   -2.5639   -0.0000 C   0  0  0  0  0  0  0  0  0  0  0  0
    0.7241   -3.8695   -0.0000 C   0  0  0  0  0  0  0  0  0  0  0  0
   -1.5312   -2.5639   -0.0000 C   0  0  0  0  0  0  0  0  0  0  0  0
    2.2078   -3.8577   -0.0000 C   0  0  0  0  0  0  0  0  0  0  0  0
   -0.0356   -5.1515   -0.0000 N   0  0  0  0  0  0  0  0  0  0  0  0
   -2.4333   -3.7627   -0.0000 N   0  0  0  0  0  0  0  0  0  0  0  0
   -2.4333   -1.3413   -0.0000 N   0  0  0  0  0  0  0  0  0  0  0  0
   -0.0593   -6.6352   -0.0000 C   0  0  0  0  0  0  0  0  0  0  0  0
   -3.8814   -3.2879   -0.0000 C   0  0  0  0  0  0  0  0  0  0  0  0
   -3.8814   -1.7805   -0.0000 C   0  0  0  0  0  0  0  0  0  0  0  0
    1.2226   -7.3830   -0.0000 C   0  0  0  0  0  0  0  0  0  0  0  0
   -1.3769   -7.3593   -0.0000 C   0  0  0  0  0  0  0  0  0  0  0  0
   -5.1871   -4.0239   -0.0000 C   0  0  0  0  0  0  0  0  0  0  0  0
   -5.1871   -1.0208   -0.0000 C   0  0  0  0  0  0  0  0  0  0  0  0
    2.5164   -6.6352   -0.0000 O   0  0  0  0  0  0  0  0  0  0  0  0
   -1.4006   -8.8430   -0.0000 C   0  0  0  0  0  0  0  0  0  0  0  0
   -6.5046   -3.2642   -0.0000 C   0  0  0  0  0  0  0  0  0  0  0  0
   -5.1990   -5.5194   -0.0000 C   0  0  0  0  0  0  0  0  0  0  0  0
   -6.5046   -1.7567   -0.0000 C   0  0  0  0  0  0  0  0  0  0  0  0
   -2.7182   -9.5670   -0.0000 C   0  0  0  0  0  0  0  0  0  0  0  0
   -0.1187   -9.5789   -0.0000 C   0  0  0  0  0  0  0  0  0  0  0  0
   -7.8103   -0.9971   -0.0000 C   0  0  0  0  0  0  0  0  0  0  0  0
   -2.7419  -11.0508   -0.0000 C   0  0  0  0  0  0  0  0  0  0  0  0
   -0.1424  -11.0626   -0.0000 C   0  0  0  0  0  0  0  0  0  0  0  0
   -7.8103    0.5104   -0.0000 C   0  0  0  0  0  0  0  0  0  0  0  0
   -9.1160   -1.7449   -0.0000 C   0  0  0  0  0  0  0  0  0  0  0  0
   -1.4600  -11.7985   -0.0000 C   0  0  0  0  0  0  0  0  0  0  0  0
   -9.1160    1.2701   -0.0000 C   0  0  0  0  0  0  0  0  0  0  0  0
  -10.4217   -0.9852   -0.0000 C   0  0  0  0  0  0  0  0  0  0  0  0
  -10.4335    0.5341   -0.0000 C   0  0  0  0  0  0  0  0  0  0  0  0
  1  2  2  0  0  0  0
  2  3  1  0  0  0  0
  2  4  1  0  0  0  0
  3  5  1  0  0  0  0
  4  6  2  0  0  0  0
  4  7  1  0  0  0  0
  5  8  2  0  0  0  0
  6  9  1  0  0  0  0
  7 10  2  0  0  0  0
  7 11  1  0  0  0  0
 12  9  1  6  0  0  0
 10 13  1  0  0  0  0
 11 14  1  0  0  0  0
 12 15  1  0  0  0  0
 12 16  1  0  0  0  0
 13 17  1  0  0  0  0
 14 18  1  0  0  0  0
 15 19  1  0  0  0  0
 16 20  1  0  0  0  0
 17 21  2  0  0  0  0
 17 22  1  0  0  0  0
 18 23  2  0  0  0  0
 20 24  2  0  0  0  0
 20 25  1  0  0  0  0
 23 26  1  0  0  0  0
 24 27  1  0  0  0  0
 25 28  2  0  0  0  0
 26 29  2  0  0  0  0
 26 30  1  0  0  0  0
 27 31  2  0  0  0  0
 29 32  1  0  0  0  0
 30 33  2  0  0  0  0
 32 34  2  0  0  0  0
  6  8  1  0  0  0  0
 13 14  2  0  0  0  0
 21 23  1  0  0  0  0
 28 31  1  0  0  0  0
 33 34  1  0  0  0  0
M  END
>  <MolRegNo>
383734

>  <m>
=

>  <Value>
3600

>  <Unit>
nM

>  <Type>
IC50

>  <pValue>
5.44

>  <Ligand Efficiency>
0

>  <Binding Efficiency>
0

>  <Surface Efficiency>
0

>  <Assay Index>
287461

>  <Assay Category>


>  <Assay Organism>


>  <Target ID>
17045

>  <Target Name>
Cytochrome P450 3A4

>  <Target Organism>
Homo sapiens

>  <Target Description>
Target is a single protein chain

>  <Sequence Accession>
P08684

>  <Reference>
Bioorg Med Chem Lett 17 (11), 3072-3076 (2007)

>  <Pubmed ID>
17398093

>  <DOI>
10.1016/j.bmcl.2007.03.048

$$$$
383733
Actelion Java MolfileCreator 1.0

 29 32  0  0  1  0  0  0  0  0999 V2000
    0.0000   -0.0000   -0.0000 Br  0  0  0  0  0  0  0  0  0  0  0  0
    1.2887   -0.7398   -0.0000 C   0  0  0  0  0  0  0  0  0  0  0  0
    1.2767   -2.2432   -0.0000 C   0  0  0  0  0  0  0  0  0  0  0  0
    2.5892    0.0239   -0.0000 C   0  0  0  0  0  0  0  0  0  0  0  0
    2.5773   -2.9830   -0.0000 C   0  0  0  0  0  0  0  0  0  0  0  0
    3.8779   -0.7159   -0.0000 C   0  0  0  0  0  0  0  0  0  0  0  0
    3.8660   -2.2193   -0.0000 C   0  0  0  0  0  0  0  0  0  0  0  0
    2.5654   -4.4864   -0.0000 C   0  0  0  0  0  0  0  0  0  0  0  0
    5.3097   -0.2506   -0.0000 N   0  0  0  0  0  0  0  0  0  0  0  0
    5.2978   -2.6728   -0.0000 N   0  0  0  0  0  0  0  0  0  0  0  0
    6.1927   -1.4557   -0.0000 C   0  0  0  0  0  0  0  0  0  0  0  0
    7.6842   -1.4438   -0.0000 C   0  0  0  0  0  0  0  0  0  0  0  0
    8.4359   -0.1193   -0.0000 C   0  0  0  0  0  0  0  0  0  0  0  0
    8.4359   -2.7444   -0.0000 C   0  0  0  0  0  0  0  0  0  0  0  0
    7.6603    1.1932   -0.0000 O   0  0  0  0  0  0  0  0  0  0  0  0
    9.9274   -0.1193   -0.0000 N   0  0  0  0  0  0  0  0  0  0  0  0
    7.6723   -4.0330   -0.0000 N   0  0  0  0  0  0  0  0  0  0  0  0
    9.9274   -2.7324   -0.0000 C   0  0  0  0  0  0  0  0  0  0  0  0
   10.6672   -1.4080   -0.0000 C   0  0  0  0  0  0  0  0  0  0  0  0
    7.6484   -5.5245   -0.0000 C   0  0  0  0  0  0  0  0  0  0  0  0
    8.9370   -6.2762   -0.0000 C   0  0  0  0  0  0  0  0  0  0  0  0
    6.3239   -6.2524   -0.0000 C   0  0  0  0  0  0  0  0  0  0  0  0
   10.2376   -5.5245   -0.0000 O   0  0  0  0  0  0  0  0  0  0  0  0
    6.3001   -7.7438   -0.0000 C   0  0  0  0  0  0  0  0  0  0  0  0
    4.9756   -8.4717   -0.0000 C   0  0  0  0  0  0  0  0  0  0  0  0
    7.5887   -8.4836   -0.0000 C   0  0  0  0  0  0  0  0  0  0  0  0
    4.9518   -9.9632   -0.0000 C   0  0  0  0  0  0  0  0  0  0  0  0
    7.5649   -9.9751   -0.0000 C   0  0  0  0  0  0  0  0  0  0  0  0
    6.2404  -10.7149   -0.0000 C   0  0  0  0  0  0  0  0  0  0  0  0
  1  2  1  0  0  0  0
  2  3  2  0  0  0  0
  2  4  1  0  0  0  0
  3  5  1  0  0  0  0
  4  6  2  0  0  0  0
  5  7  2  0  0  0  0
  5  8  1  0  0  0  0
  6  9  1  0  0  0  0
  7 10  1  0  0  0  0
  9 11  1  0  0  0  0
 11 12  1  0  0  0  0
 12 13  1  0  0  0  0
 12 14  2  0  0  0  0
 13 15  2  0  0  0  0
 13 16  1  0  0  0  0
 14 17  1  0  0  0  0
 14 18  1  0  0  0  0
 16 19  1  0  0  0  0
 20 17  1  6  0  0  0
 20 21  1  0  0  0  0
 20 22  1  0  0  0  0
 21 23  1  0  0  0  0
 22 24  1  0  0  0  0
 24 25  2  0  0  0  0
 24 26  1  0  0  0  0
 25 27  1  0  0  0  0
 26 28  2  0  0  0  0
 27 29  2  0  0  0  0
  6  7  1  0  0  0  0
 10 11  2  0  0  0  0
 18 19  2  0  0  0  0
 28 29  1  0  0  0  0
M  END
>  <MolRegNo>
383733

>  <m>
=

>  <Value>
3100

>  <Unit>
nM

>  <Type>
IC50

>  <pValue>
5.51

>  <Ligand Efficiency>
0

>  <Binding Efficiency>
0

>  <Surface Efficiency>
0

>  <Assay Index>
287461

>  <Assay Category>


>  <Assay Organism>


>  <Target ID>
17045

>  <Target Name>
Cytochrome P450 3A4

>  <Target Organism>
Homo sapiens

>  <Target Description>
Target is a single protein chain

>  <Sequence Accession>
P08684

>  <Reference>
Bioorg Med Chem Lett 17 (11), 3072-3076 (2007)

>  <Pubmed ID>
17398093

>  <DOI>
10.1016/j.bmcl.2007.03.048

$$$$
383732
Actelion Java MolfileCreator 1.0

 33 37  0  0  1  0  0  0  0  0999 V2000
    0.0000   -0.0000   -0.0000 O   0  0  0  0  0  0  0  0  0  0  0  0
    0.7475   -1.2814   -0.0000 C   0  0  0  0  0  0  0  0  0  0  0  0
    2.2306   -1.2695   -0.0000 N   0  0  0  0  0  0  0  0  0  0  0  0
   -0.0237   -2.5746   -0.0000 C   0  0  0  0  0  0  0  0  0  0  0  0
    2.9662   -2.5628   -0.0000 C   0  0  0  0  0  0  0  0  0  0  0  0
    0.7237   -3.8679   -0.0000 C   0  0  0  0  0  0  0  0  0  0  0  0
   -1.5305   -2.5628   -0.0000 C   0  0  0  0  0  0  0  0  0  0  0  0
    2.2068   -3.8560   -0.0000 C   0  0  0  0  0  0  0  0  0  0  0  0
   -0.0356   -5.1493   -0.0000 N   0  0  0  0  0  0  0  0  0  0  0  0
   -2.4323   -3.7611   -0.0000 N   0  0  0  0  0  0  0  0  0  0  0  0
   -2.4323   -1.3407   -0.0000 N   0  0  0  0  0  0  0  0  0  0  0  0
   -0.0593   -6.6324   -0.0000 C   0  0  0  0  0  0  0  0  0  0  0  0
   -3.8798   -3.2865   -0.0000 C   0  0  0  0  0  0  0  0  0  0  0  0
   -3.8798   -1.7797   -0.0000 C   0  0  0  0  0  0  0  0  0  0  0  0
    1.2221   -7.3799   -0.0000 C   0  0  0  0  0  0  0  0  0  0  0  0
   -1.3763   -7.3561   -0.0000 C   0  0  0  0  0  0  0  0  0  0  0  0
   -5.1849   -4.0221   -0.0000 C   0  0  0  0  0  0  0  0  0  0  0  0
   -5.1849   -1.0204   -0.0000 C   0  0  0  0  0  0  0  0  0  0  0  0
    2.5153   -6.6324   -0.0000 O   0  0  0  0  0  0  0  0  0  0  0  0
   -1.4000   -8.8392   -0.0000 C   0  0  0  0  0  0  0  0  0  0  0  0
   -6.5019   -3.2628   -0.0000 C   0  0  0  0  0  0  0  0  0  0  0  0
   -5.1967   -5.5171   -0.0000 C   0  0  0  0  0  0  0  0  0  0  0  0
   -6.5019   -1.7560   -0.0000 C   0  0  0  0  0  0  0  0  0  0  0  0
   -2.7170   -9.5630   -0.0000 C   0  0  0  0  0  0  0  0  0  0  0  0
   -0.1186   -9.5748   -0.0000 C   0  0  0  0  0  0  0  0  0  0  0  0
   -7.8070   -0.9966   -0.0000 N   0  0  0  0  0  0  0  0  0  0  0  0
   -2.7407  -11.0461   -0.0000 C   0  0  0  0  0  0  0  0  0  0  0  0
   -0.1424  -11.0579   -0.0000 C   0  0  0  0  0  0  0  0  0  0  0  0
   -7.9850    0.5102   -0.0000 C   0  0  0  0  0  0  0  0  0  0  0  0
   -9.1952   -1.6017   -0.0000 C   0  0  0  0  0  0  0  0  0  0  0  0
   -1.4594  -11.7935   -0.0000 C   0  0  0  0  0  0  0  0  0  0  0  0
   -9.4680    0.8305   -0.0000 N   0  0  0  0  0  0  0  0  0  0  0  0
  -10.2155   -0.4627   -0.0000 C   0  0  0  0  0  0  0  0  0  0  0  0
  1  2  2  0  0  0  0
  2  3  1  0  0  0  0
  2  4  1  0  0  0  0
  3  5  1  0  0  0  0
  4  6  2  0  0  0  0
  4  7  1  0  0  0  0
  5  8  2  0  0  0  0
  6  9  1  0  0  0  0
  7 10  2  0  0  0  0
  7 11  1  0  0  0  0
 12  9  1  6  0  0  0
 10 13  1  0  0  0  0
 11 14  1  0  0  0  0
 12 15  1  0  0  0  0
 12 16  1  0  0  0  0
 13 17  1  0  0  0  0
 14 18  1  0  0  0  0
 15 19  1  0  0  0  0
 16 20  1  0  0  0  0
 17 21  2  0  0  0  0
 17 22  1  0  0  0  0
 18 23  2  0  0  0  0
 20 24  2  0  0  0  0
 20 25  1  0  0  0  0
 23 26  1  0  0  0  0
 24 27  1  0  0  0  0
 25 28  2  0  0  0  0
 26 29  1  0  0  0  0
 26 30  1  0  0  0  0
 27 31  2  0  0  0  0
 29 32  2  0  0  0  0
 30 33  2  0  0  0  0
  6  8  1  0  0  0  0
 13 14  2  0  0  0  0
 21 23  1  0  0  0  0
 28 31  1  0  0  0  0
 32 33  1  0  0  0  0
M  END
>  <MolRegNo>
383732

>  <m>
=

>  <Value>
60

>  <Unit>
nM

>  <Type>
IC50

>  <pValue>
7.22

>  <Ligand Efficiency>
0

>  <Binding Efficiency>
0

>  <Surface Efficiency>
0

>  <Assay Index>
287461

>  <Assay Category>


>  <Assay Organism>


>  <Target ID>
17045

>  <Target Name>
Cytochrome P450 3A4

>  <Target Organism>
Homo sapiens

>  <Target Description>
Target is a single protein chain

>  <Sequence Accession>
P08684

>  <Reference>
Bioorg Med Chem Lett 17 (11), 3072-3076 (2007)

>  <Pubmed ID>
17398093

>  <DOI>
10.1016/j.bmcl.2007.03.048

$$$$
384155
Actelion Java MolfileCreator 1.0

 26 28  0  0  0  0  0  0  0  0999 V2000
    0.0000   -0.0000   -0.0000 O   0  0  0  0  0  0  0  0  0  0  0  0
   -0.0118    1.5035   -0.0000 C   0  0  0  0  0  0  0  0  0  0  0  0
   -1.3141    2.2612   -0.0000 N   0  0  0  0  0  0  0  0  0  0  0  0
    1.2667    2.2612   -0.0000 C   0  0  0  0  0  0  0  0  0  0  0  0
   -2.6164    1.5272   -0.0000 C   0  0  0  0  0  0  0  0  0  0  0  0
   -3.9186    2.2849   -0.0000 C   0  0  0  0  0  0  0  0  0  0  0  0
   -5.2209    1.5509   -0.0000 N   0  0  0  0  0  0  0  0  0  0  0  0
   -6.5231    2.3085   -0.0000 C   0  0  0  0  0  0  0  0  0  0  0  0
   -5.2445    0.0592   -0.0000 C   0  0  0  0  0  0  0  0  0  0  0  0
   -7.8372    1.5745   -0.0000 C   0  0  0  0  0  0  0  0  0  0  0  0
   -6.5350    3.8121   -0.0000 C   0  0  0  0  0  0  0  0  0  0  0  0
   -6.5586   -0.6748   -0.0000 C   0  0  0  0  0  0  0  0  0  0  0  0
   -9.1395    2.3322   -0.0000 C   0  0  0  0  0  0  0  0  0  0  0  0
   -7.8491    0.0947   -0.0000 C   0  0  0  0  0  0  0  0  0  0  0  0
   -7.8372    4.5697   -0.0000 C   0  0  0  0  0  0  0  0  0  0  0  0
   -9.1513    3.8357   -0.0000 C   0  0  0  0  0  0  0  0  0  0  0  0
   -7.8491    6.0614   -0.0000 C   0  0  0  0  0  0  0  0  0  0  0  0
   -6.5586    6.8191   -0.0000 C   0  0  0  0  0  0  0  0  0  0  0  0
   -9.1513    6.8191   -0.0000 C   0  0  0  0  0  0  0  0  0  0  0  0
   -6.5705    8.3344   -0.0000 N   0  0  0  0  0  0  0  0  0  0  0  0
   -5.2801    6.0851   -0.0000 N   0  0  0  0  0  0  0  0  0  0  0  0
   -9.1632    8.3226   -0.0000 N   0  0  0  0  0  0  0  0  0  0  0  0
  -10.4536    6.0851   -0.0000 C   0  0  0  0  0  0  0  0  0  0  0  0
   -7.8846    9.0803   -0.0000 C   0  0  0  0  0  0  0  0  0  0  0  0
  -11.7558    6.8428   -0.0000 C   0  0  0  0  0  0  0  0  0  0  0  0
   -7.9082   10.5838   -0.0000 N   0  0  0  0  0  0  0  0  0  0  0  0
  1  2  2  0  0  0  0
  2  3  1  0  0  0  0
  2  4  1  0  0  0  0
  3  5  1  0  0  0  0
  5  6  1  0  0  0  0
  6  7  1  0  0  0  0
  7  8  1  0  0  0  0
  7  9  1  0  0  0  0
  8 10  2  0  0  0  0
  8 11  1  0  0  0  0
  9 12  1  0  0  0  0
 10 13  1  0  0  0  0
 10 14  1  0  0  0  0
 11 15  2  0  0  0  0
 13 16  2  0  0  0  0
 15 17  1  0  0  0  0
 17 18  2  0  0  0  0
 17 19  1  0  0  0  0
 18 20  1  0  0  0  0
 18 21  1  0  0  0  0
 19 22  2  0  0  0  0
 19 23  1  0  0  0  0
 20 24  2  0  0  0  0
 23 25  1  0  0  0  0
 24 26  1  0  0  0  0
 12 14  1  0  0  0  0
 15 16  1  0  0  0  0
 22 24  1  0  0  0  0
M  END
>  <MolRegNo>
384155

>  <m>
=

>  <Value>
8000

>  <Unit>
nM

>  <Type>
IC50

>  <pValue>
5.1

>  <Ligand Efficiency>
0

>  <Binding Efficiency>
0

>  <Surface Efficiency>
0

>  <Assay Index>
287654

>  <Assay Category>


>  <Assay Organism>


>  <Target ID>
17045

>  <Target Name>
Cytochrome P450 3A4

>  <Target Organism>
Homo sapiens

>  <Target Description>
Target is a single protein chain

>  <Sequence Accession>
P08684

>  <Reference>
Bioorg Med Chem Lett 17 (13), 3575-3580 (2007)

>  <Pubmed ID>
17482464

>  <DOI>
10.1016/j.bmcl.2007.04.052

$$$$
384154
Actelion Java MolfileCreator 1.0

 28 30  0  0  0  0  0  0  0  0999 V2000
    0.0000   -0.0000   -0.0000 O   0  0  0  0  0  0  0  0  0  0  0  0
   -0.0119   -1.4816   -0.0000 C   0  0  0  0  0  0  0  0  0  0  0  0
    1.2683   -2.2165   -0.0000 O   0  0  0  0  0  0  0  0  0  0  0  0
   -1.3157   -2.2165   -0.0000 C   0  0  0  0  0  0  0  0  0  0  0  0
    2.5484   -1.4579   -0.0000 C   0  0  0  0  0  0  0  0  0  0  0  0
   -2.6195   -1.4579   -0.0000 C   0  0  0  0  0  0  0  0  0  0  0  0
   -3.9234   -2.1928   -0.0000 C   0  0  0  0  0  0  0  0  0  0  0  0
   -5.2272   -1.4342   -0.0000 C   0  0  0  0  0  0  0  0  0  0  0  0
   -6.5310   -2.1691   -0.0000 N   0  0  0  0  0  0  0  0  0  0  0  0
   -7.8349   -1.4105   -0.0000 C   0  0  0  0  0  0  0  0  0  0  0  0
   -6.5547   -3.6626   -0.0000 C   0  0  0  0  0  0  0  0  0  0  0  0
   -9.1506   -2.1454   -0.0000 C   0  0  0  0  0  0  0  0  0  0  0  0
   -7.8467    0.0948   -0.0000 C   0  0  0  0  0  0  0  0  0  0  0  0
   -7.8704   -4.3975   -0.0000 C   0  0  0  0  0  0  0  0  0  0  0  0
  -10.4544   -1.3868   -0.0000 C   0  0  0  0  0  0  0  0  0  0  0  0
   -9.1624   -3.6270   -0.0000 C   0  0  0  0  0  0  0  0  0  0  0  0
   -9.1506    0.8534   -0.0000 C   0  0  0  0  0  0  0  0  0  0  0  0
  -10.4662    0.1185   -0.0000 C   0  0  0  0  0  0  0  0  0  0  0  0
   -9.1624    2.3469   -0.0000 C   0  0  0  0  0  0  0  0  0  0  0  0
   -7.8704    3.1055   -0.0000 C   0  0  0  0  0  0  0  0  0  0  0  0
  -10.4662    3.1055   -0.0000 C   0  0  0  0  0  0  0  0  0  0  0  0
   -7.8823    4.6227   -0.0000 N   0  0  0  0  0  0  0  0  0  0  0  0
   -6.5903    2.3706   -0.0000 N   0  0  0  0  0  0  0  0  0  0  0  0
  -10.4781    4.6108   -0.0000 N   0  0  0  0  0  0  0  0  0  0  0  0
  -11.7701    2.3706   -0.0000 C   0  0  0  0  0  0  0  0  0  0  0  0
   -9.1980    5.3694   -0.0000 C   0  0  0  0  0  0  0  0  0  0  0  0
  -13.0739    3.1292   -0.0000 C   0  0  0  0  0  0  0  0  0  0  0  0
   -9.2217    6.8748   -0.0000 N   0  0  0  0  0  0  0  0  0  0  0  0
  1  2  2  0  0  0  0
  2  3  1  0  0  0  0
  2  4  1  0  0  0  0
  3  5  1  0  0  0  0
  4  6  1  0  0  0  0
  6  7  1  0  0  0  0
  7  8  1  0  0  0  0
  8  9  1  0  0  0  0
  9 10  1  0  0  0  0
  9 11  1  0  0  0  0
 10 12  2  0  0  0  0
 10 13  1  0  0  0  0
 11 14  1  0  0  0  0
 12 15  1  0  0  0  0
 12 16  1  0  0  0  0
 13 17  2  0  0  0  0
 15 18  2  0  0  0  0
 17 19  1  0  0  0  0
 19 20  2  0  0  0  0
 19 21  1  0  0  0  0
 20 22  1  0  0  0  0
 20 23  1  0  0  0  0
 21 24  2  0  0  0  0
 21 25  1  0  0  0  0
 22 26  2  0  0  0  0
 25 27  1  0  0  0  0
 26 28  1  0  0  0  0
 14 16  1  0  0  0  0
 17 18  1  0  0  0  0
 24 26  1  0  0  0  0
M  END
>  <MolRegNo>
384154

>  <m>
=

>  <Value>
12000

>  <Unit>
nM

>  <Type>
IC50

>  <pValue>
4.92

>  <Ligand Efficiency>
0

>  <Binding Efficiency>
0

>  <Surface Efficiency>
0

>  <Assay Index>
287654

>  <Assay Category>


>  <Assay Organism>


>  <Target ID>
17045

>  <Target Name>
Cytochrome P450 3A4

>  <Target Organism>
Homo sapiens

>  <Target Description>
Target is a single protein chain

>  <Sequence Accession>
P08684

>  <Reference>
Bioorg Med Chem Lett 17 (13), 3575-3580 (2007)

>  <Pubmed ID>
17482464

>  <DOI>
10.1016/j.bmcl.2007.04.052

$$$$
384152
Actelion Java MolfileCreator 1.0

 26 28  0  0  0  0  0  0  0  0999 V2000
    0.0000   -0.0000   -0.0000 O   0  0  0  0  0  0  0  0  0  0  0  0
   -0.0119   -1.4818   -0.0000 C   0  0  0  0  0  0  0  0  0  0  0  0
    1.2684   -2.2168   -0.0000 O   0  0  0  0  0  0  0  0  0  0  0  0
   -1.3159   -2.2168   -0.0000 C   0  0  0  0  0  0  0  0  0  0  0  0
    2.5487   -1.4581   -0.0000 C   0  0  0  0  0  0  0  0  0  0  0  0
   -2.6198   -1.4581   -0.0000 C   0  0  0  0  0  0  0  0  0  0  0  0
   -3.9238   -2.1931   -0.0000 N   0  0  0  0  0  0  0  0  0  0  0  0
   -5.2278   -1.4344   -0.0000 C   0  0  0  0  0  0  0  0  0  0  0  0
   -3.9476   -3.6868   -0.0000 C   0  0  0  0  0  0  0  0  0  0  0  0
   -6.5437   -2.1694   -0.0000 C   0  0  0  0  0  0  0  0  0  0  0  0
   -5.2397    0.0711   -0.0000 C   0  0  0  0  0  0  0  0  0  0  0  0
   -5.2634   -4.4217   -0.0000 C   0  0  0  0  0  0  0  0  0  0  0  0
   -7.8477   -1.4107   -0.0000 C   0  0  0  0  0  0  0  0  0  0  0  0
   -6.5555   -3.6512   -0.0000 C   0  0  0  0  0  0  0  0  0  0  0  0
   -6.5437    0.8298   -0.0000 C   0  0  0  0  0  0  0  0  0  0  0  0
   -7.8595    0.0948   -0.0000 C   0  0  0  0  0  0  0  0  0  0  0  0
   -6.5555    2.3235   -0.0000 C   0  0  0  0  0  0  0  0  0  0  0  0
   -5.2634    3.0822   -0.0000 C   0  0  0  0  0  0  0  0  0  0  0  0
   -7.8595    3.0822   -0.0000 C   0  0  0  0  0  0  0  0  0  0  0  0
   -5.2753    4.5995   -0.0000 N   0  0  0  0  0  0  0  0  0  0  0  0
   -3.9831    2.3472   -0.0000 N   0  0  0  0  0  0  0  0  0  0  0  0
   -7.8714    4.5877   -0.0000 N   0  0  0  0  0  0  0  0  0  0  0  0
   -9.1635    2.3472   -0.0000 C   0  0  0  0  0  0  0  0  0  0  0  0
   -6.5911    5.3464   -0.0000 C   0  0  0  0  0  0  0  0  0  0  0  0
  -10.4675    3.1059   -0.0000 C   0  0  0  0  0  0  0  0  0  0  0  0
   -6.6148    6.8519   -0.0000 N   0  0  0  0  0  0  0  0  0  0  0  0
  1  2  2  0  0  0  0
  2  3  1  0  0  0  0
  2  4  1  0  0  0  0
  3  5  1  0  0  0  0
  4  6  1  0  0  0  0
  6  7  1  0  0  0  0
  7  8  1  0  0  0  0
  7  9  1  0  0  0  0
  8 10  2  0  0  0  0
  8 11  1  0  0  0  0
  9 12  1  0  0  0  0
 10 13  1  0  0  0  0
 10 14  1  0  0  0  0
 11 15  2  0  0  0  0
 13 16  2  0  0  0  0
 15 17  1  0  0  0  0
 17 18  2  0  0  0  0
 17 19  1  0  0  0  0
 18 20  1  0  0  0  0
 18 21  1  0  0  0  0
 19 22  2  0  0  0  0
 19 23  1  0  0  0  0
 20 24  2  0  0  0  0
 23 25  1  0  0  0  0
 24 26  1  0  0  0  0
 12 14  1  0  0  0  0
 15 16  1  0  0  0  0
 22 24  1  0  0  0  0
M  END
>  <MolRegNo>
384152

>  <m>
=

>  <Value>
10000

>  <Unit>
nM

>  <Type>
IC50

>  <pValue>
5

>  <Ligand Efficiency>
0

>  <Binding Efficiency>
0

>  <Surface Efficiency>
0

>  <Assay Index>
287654

>  <Assay Category>


>  <Assay Organism>


>  <Target ID>
17045

>  <Target Name>
Cytochrome P450 3A4

>  <Target Organism>
Homo sapiens

>  <Target Description>
Target is a single protein chain

>  <Sequence Accession>
P08684

>  <Reference>
Bioorg Med Chem Lett 17 (13), 3575-3580 (2007)

>  <Pubmed ID>
17482464

>  <DOI>
10.1016/j.bmcl.2007.04.052

$$$$
384151
Actelion Java MolfileCreator 1.0

 25 27  0  0  0  0  0  0  0  0999 V2000
    0.0000   -0.0000   -0.0000 O   0  0  0  0  0  0  0  0  0  0  0  0
   -1.3024    0.7577   -0.0000 C   0  0  0  0  0  0  0  0  0  0  0  0
    1.2787    0.7577   -0.0000 C   0  0  0  0  0  0  0  0  0  0  0  0
   -2.6047    0.0237   -0.0000 C   0  0  0  0  0  0  0  0  0  0  0  0
   -3.9071    0.7814   -0.0000 C   0  0  0  0  0  0  0  0  0  0  0  0
   -5.2095    0.0474   -0.0000 N   0  0  0  0  0  0  0  0  0  0  0  0
   -6.5119    0.8051   -0.0000 C   0  0  0  0  0  0  0  0  0  0  0  0
   -5.2332   -1.4444   -0.0000 C   0  0  0  0  0  0  0  0  0  0  0  0
   -7.8261    0.0710   -0.0000 C   0  0  0  0  0  0  0  0  0  0  0  0
   -6.5237    2.3087   -0.0000 C   0  0  0  0  0  0  0  0  0  0  0  0
   -6.5474   -2.1785   -0.0000 C   0  0  0  0  0  0  0  0  0  0  0  0
   -9.1284    0.8288   -0.0000 C   0  0  0  0  0  0  0  0  0  0  0  0
   -7.8379   -1.4089   -0.0000 C   0  0  0  0  0  0  0  0  0  0  0  0
   -7.8261    3.0665   -0.0000 C   0  0  0  0  0  0  0  0  0  0  0  0
   -9.1403    2.3324   -0.0000 C   0  0  0  0  0  0  0  0  0  0  0  0
   -7.8379    4.5583   -0.0000 C   0  0  0  0  0  0  0  0  0  0  0  0
   -6.5474    5.3160   -0.0000 C   0  0  0  0  0  0  0  0  0  0  0  0
   -9.1403    5.3160   -0.0000 C   0  0  0  0  0  0  0  0  0  0  0  0
   -6.5592    6.8315   -0.0000 N   0  0  0  0  0  0  0  0  0  0  0  0
   -5.2687    4.5820   -0.0000 N   0  0  0  0  0  0  0  0  0  0  0  0
   -9.1521    6.8197   -0.0000 N   0  0  0  0  0  0  0  0  0  0  0  0
  -10.4426    4.5820   -0.0000 C   0  0  0  0  0  0  0  0  0  0  0  0
   -7.8734    7.5774   -0.0000 C   0  0  0  0  0  0  0  0  0  0  0  0
  -11.7450    5.3397   -0.0000 C   0  0  0  0  0  0  0  0  0  0  0  0
   -7.8971    9.0811   -0.0000 N   0  0  0  0  0  0  0  0  0  0  0  0
  1  2  1  0  0  0  0
  1  3  1  0  0  0  0
  2  4  1  0  0  0  0
  4  5  1  0  0  0  0
  5  6  1  0  0  0  0
  6  7  1  0  0  0  0
  6  8  1  0  0  0  0
  7  9  2  0  0  0  0
  7 10  1  0  0  0  0
  8 11  1  0  0  0  0
  9 12  1  0  0  0  0
  9 13  1  0  0  0  0
 10 14  2  0  0  0  0
 12 15  2  0  0  0  0
 14 16  1  0  0  0  0
 16 17  2  0  0  0  0
 16 18  1  0  0  0  0
 17 19  1  0  0  0  0
 17 20  1  0  0  0  0
 18 21  2  0  0  0  0
 18 22  1  0  0  0  0
 19 23  2  0  0  0  0
 22 24  1  0  0  0  0
 23 25  1  0  0  0  0
 11 13  1  0  0  0  0
 14 15  1  0  0  0  0
 21 23  1  0  0  0  0
M  END
>  <MolRegNo>
384151

>  <m>
=

>  <Value>
2800

>  <Unit>
nM

>  <Type>
IC50

>  <pValue>
5.55

>  <Ligand Efficiency>
0

>  <Binding Efficiency>
0

>  <Surface Efficiency>
0

>  <Assay Index>
287654

>  <Assay Category>


>  <Assay Organism>


>  <Target ID>
17045

>  <Target Name>
Cytochrome P450 3A4

>  <Target Organism>
Homo sapiens

>  <Target Description>
Target is a single protein chain

>  <Sequence Accession>
P08684

>  <Reference>
Bioorg Med Chem Lett 17 (13), 3575-3580 (2007)

>  <Pubmed ID>
17482464

>  <DOI>
10.1016/j.bmcl.2007.04.052

$$$$
384610
Actelion Java MolfileCreator 1.0

 36 40  0  0  0  0  0  0  0  0999 V2000
    0.0000   -0.0000   -0.0000 F   0  0  0  0  0  0  0  0  0  0  0  0
   -1.3068   -0.7484   -0.0000 C   0  0  0  0  0  0  0  0  0  0  0  0
   -1.3187   -2.2453   -0.0000 C   0  0  0  0  0  0  0  0  0  0  0  0
   -2.6136    0.0119   -0.0000 C   0  0  0  0  0  0  0  0  0  0  0  0
   -0.0238   -2.9818   -0.0000 C   0  0  0  0  0  0  0  0  0  0  0  0
   -2.6373   -2.9818   -0.0000 C   0  0  0  0  0  0  0  0  0  0  0  0
   -3.9203   -0.7247   -0.0000 C   0  0  0  0  0  0  0  0  0  0  0  0
   -0.0356   -4.4787   -0.0000 O   0  0  0  0  0  0  0  0  0  0  0  0
    1.2711   -2.2215   -0.0000 N   0  0  0  0  0  0  0  0  0  0  0  0
   -3.9441   -2.2215   -0.0000 C   0  0  0  0  0  0  0  0  0  0  0  0
   -5.2390    0.0475   -0.0000 C   0  0  0  0  0  0  0  0  0  0  0  0
    2.5660   -2.9581   -0.0000 C   0  0  0  0  0  0  0  0  0  0  0  0
   -5.2628   -2.9700   -0.0000 N   0  0  0  0  0  0  0  0  0  0  0  0
   -5.2509    1.5681   -0.0000 O   0  0  0  0  0  0  0  0  0  0  0  0
   -6.5577   -0.7009   -0.0000 C   0  0  0  0  0  0  0  0  0  0  0  0
    3.8491   -3.6946   -0.0000 C   0  0  0  0  0  0  0  0  0  0  0  0
    3.3026   -1.6394   -0.0000 C   0  0  0  0  0  0  0  0  0  0  0  0
    1.8057   -4.2530   -0.0000 C   0  0  0  0  0  0  0  0  0  0  0  0
   -6.5695   -2.2096   -0.0000 C   0  0  0  0  0  0  0  0  0  0  0  0
   -7.8763    0.0594   -0.0000 C   0  0  0  0  0  0  0  0  0  0  0  0
    5.1202   -2.9343   -0.0000 C   0  0  0  0  0  0  0  0  0  0  0  0
    3.8253   -5.1796   -0.0000 C   0  0  0  0  0  0  0  0  0  0  0  0
   -7.8763   -2.9581   -0.0000 C   0  0  0  0  0  0  0  0  0  0  0  0
   -9.1831   -0.6772   -0.0000 C   0  0  0  0  0  0  0  0  0  0  0  0
    6.4032   -3.6709   -0.0000 N   0  0  0  0  0  0  0  0  0  0  0  0
    5.1083   -5.9162   -0.0000 C   0  0  0  0  0  0  0  0  0  0  0  0
   -9.1950   -2.1978   -0.0000 C   0  0  0  0  0  0  0  0  0  0  0  0
    6.3914   -5.1677   -0.0000 C   0  0  0  0  0  0  0  0  0  0  0  0
    7.6863   -5.9043   -0.0000 N   0  0  0  0  0  0  0  0  0  0  0  0
    7.6744   -7.3893   -0.0000 C   0  0  0  0  0  0  0  0  0  0  0  0
    8.9693   -5.1321   -0.0000 C   0  0  0  0  0  0  0  0  0  0  0  0
    8.9574   -8.1258   -0.0000 C   0  0  0  0  0  0  0  0  0  0  0  0
   10.2642   -5.8805   -0.0000 C   0  0  0  0  0  0  0  0  0  0  0  0
   10.2523   -7.3655   -0.0000 N   0  0  0  0  0  0  0  0  0  0  0  0
   11.5353   -8.1139   -0.0000 C   0  0  0  0  0  0  0  0  0  0  0  0
   11.5234   -9.6108   -0.0000 C   0  0  0  0  0  0  0  0  0  0  0  0
  1  2  1  0  0  0  0
  2  3  2  0  0  0  0
  2  4  1  0  0  0  0
  3  5  1  0  0  0  0
  3  6  1  0  0  0  0
  4  7  2  0  0  0  0
  5  8  2  0  0  0  0
  5  9  1  0  0  0  0
  6 10  2  0  0  0  0
  7 11  1  0  0  0  0
  9 12  1  0  0  0  0
 10 13  1  0  0  0  0
 11 14  2  0  0  0  0
 11 15  1  0  0  0  0
 12 16  1  0  0  0  0
 12 17  1  0  0  0  0
 12 18  1  0  0  0  0
 13 19  1  0  0  0  0
 15 20  1  0  0  0  0
 16 21  2  0  0  0  0
 16 22  1  0  0  0  0
 19 23  1  0  0  0  0
 20 24  2  0  0  0  0
 21 25  1  0  0  0  0
 22 26  2  0  0  0  0
 23 27  2  0  0  0  0
 25 28  2  0  0  0  0
 28 29  1  0  0  0  0
 29 30  1  0  0  0  0
 29 31  1  0  0  0  0
 30 32  1  0  0  0  0
 31 33  1  0  0  0  0
 32 34  1  0  0  0  0
 34 35  1  0  0  0  0
 35 36  1  0  0  0  0
  7 10  1  0  0  0  0
 15 19  2  0  0  0  0
 24 27  1  0  0  0  0
 26 28  1  0  0  0  0
 33 34  1  0  0  0  0
M  END
>  <MolRegNo>
384610

>  <m>
=

>  <Value>
13000

>  <Unit>
nM

>  <Type>
IC50

>  <pValue>
4.89

>  <Ligand Efficiency>
0

>  <Binding Efficiency>
0

>  <Surface Efficiency>
0

>  <Assay Index>
288928

>  <Assay Category>


>  <Assay Organism>


>  <Target ID>
17045

>  <Target Name>
Cytochrome P450 3A4

>  <Target Organism>
Homo sapiens

>  <Target Description>
Target is a single protein chain

>  <Sequence Accession>
P08684

>  <Reference>
J Med Chem 50 (15), 3730-3742 (2007)

>  <Pubmed ID>
17585753

>  <DOI>
10.1021/jm070299x

$$$$
388533
Actelion Java MolfileCreator 1.0

 25 28  0  0  1  0  0  0  0  0999 V2000
    0.0000   -0.0000   -0.0000 F   0  0  0  0  0  0  0  0  0  0  0  0
    0.7226   -1.3031   -0.0000 C   0  0  0  0  0  0  0  0  0  0  0  0
   -0.0592   -2.5706   -0.0000 C   0  0  0  0  0  0  0  0  0  0  0  0
    2.2152   -1.3149   -0.0000 C   0  0  0  0  0  0  0  0  0  0  0  0
   -1.5637   -2.5350   -0.0000 C   0  0  0  0  0  0  0  0  0  0  0  0
    0.6515   -3.8736   -0.0000 C   0  0  0  0  0  0  0  0  0  0  0  0
    2.9378   -2.6180   -0.0000 C   0  0  0  0  0  0  0  0  0  0  0  0
   -2.3574   -3.8144   -0.0000 C   0  0  0  0  0  0  0  0  0  0  0  0
   -2.3100   -1.1964   -0.0000 C   0  0  0  0  0  0  0  0  0  0  0  0
    2.1441   -3.8855   -0.0000 C   0  0  0  0  0  0  0  0  0  0  0  0
    4.4304   -2.6180   -0.0000 N   0  0  0  0  0  0  0  0  0  0  0  0
   -3.8736   -3.7789   -0.0000 N   0  0  0  0  0  0  0  0  0  0  0  0
   -3.8263   -1.1609   -0.0000 C   0  0  0  0  0  0  0  0  0  0  0  0
    5.3189   -1.4097   -0.0000 C   0  0  0  0  0  0  0  0  0  0  0  0
    5.2833   -3.8381   -0.0000 C   0  0  0  0  0  0  0  0  0  0  0  0
   -4.6081   -2.4521   -0.0000 C   0  0  0  0  0  0  0  0  0  0  0  0
    4.8687    0.0355   -0.0000 O   0  0  0  0  0  0  0  0  0  0  0  0
    6.7285   -1.8835   -0.0000 O   0  0  0  0  0  0  0  0  0  0  0  0
    6.7048   -3.3880   -0.0000 C   0  0  0  0  0  0  0  0  0  0  0  0
    7.8895   -4.2764   -0.0000 C   0  0  0  0  0  0  0  0  0  0  0  0
    9.2636   -3.6723   -0.0000 N   0  0  0  0  0  0  0  0  0  0  0  0
    9.5834   -2.1915   -0.0000 N   0  0  0  0  0  0  0  0  0  0  0  0
   10.5430   -4.4304   -0.0000 C   0  0  0  0  0  0  0  0  0  0  0  0
   11.0642   -2.0494   -0.0000 N   0  0  0  0  0  0  0  0  0  0  0  0
   11.6683   -3.4353   -0.0000 C   0  0  0  0  0  0  0  0  0  0  0  0
  1  2  1  0  0  0  0
  2  3  2  0  0  0  0
  2  4  1  0  0  0  0
  3  5  1  0  0  0  0
  3  6  1  0  0  0  0
  4  7  2  0  0  0  0
  5  8  2  0  0  0  0
  5  9  1  0  0  0  0
  6 10  2  0  0  0  0
  7 11  1  0  0  0  0
  8 12  1  0  0  0  0
  9 13  2  0  0  0  0
 11 14  1  0  0  0  0
 11 15  1  0  0  0  0
 12 16  2  0  0  0  0
 14 17  2  0  0  0  0
 14 18  1  0  0  0  0
 15 19  1  0  0  0  0
 19 20  1  1  0  0  0
 20 21  1  0  0  0  0
 21 22  1  0  0  0  0
 21 23  1  0  0  0  0
 22 24  2  0  0  0  0
 23 25  2  0  0  0  0
  7 10  1  0  0  0  0
 13 16  1  0  0  0  0
 18 19  1  0  0  0  0
 24 25  1  0  0  0  0
M  END
>  <MolRegNo>
388533

>  <m>
=

>  <Value>
6800

>  <Unit>
nM

>  <Type>
IC50

>  <pValue>
5.17

>  <Ligand Efficiency>
0

>  <Binding Efficiency>
0

>  <Surface Efficiency>
0

>  <Assay Index>
294826

>  <Assay Category>


>  <Assay Organism>
Homo sapiens

>  <Target ID>
17045

>  <Target Name>
Cytochrome P450 3A4

>  <Target Organism>
Homo sapiens

>  <Target Description>
Target is a single protein chain

>  <Sequence Accession>
P08684

>  <Reference>
J Med Chem 50 (20), 4868-4881 (2007)

>  <Pubmed ID>
17722903

>  <DOI>
10.1021/jm070428+

$$$$
388558
Actelion Java MolfileCreator 1.0

 35 39  0  0  1  0  0  0  0  0999 V2000
    0.0000   -0.0000   -0.0000 F   0  0  0  0  0  0  0  0  0  0  0  0
    0.7219   -1.3018   -0.0000 C   0  0  0  0  0  0  0  0  0  0  0  0
   -0.0592   -2.5682   -0.0000 C   0  0  0  0  0  0  0  0  0  0  0  0
    2.2013   -1.3137   -0.0000 C   0  0  0  0  0  0  0  0  0  0  0  0
   -1.5622   -2.5327   -0.0000 C   0  0  0  0  0  0  0  0  0  0  0  0
    0.6509   -3.8700   -0.0000 C   0  0  0  0  0  0  0  0  0  0  0  0
    2.9232   -2.6155   -0.0000 C   0  0  0  0  0  0  0  0  0  0  0  0
   -2.3551   -3.8108   -0.0000 C   0  0  0  0  0  0  0  0  0  0  0  0
   -2.3078   -1.1953   -0.0000 C   0  0  0  0  0  0  0  0  0  0  0  0
    2.1421   -3.8818   -0.0000 C   0  0  0  0  0  0  0  0  0  0  0  0
    4.4144   -2.6155   -0.0000 N   0  0  0  0  0  0  0  0  0  0  0  0
   -3.8700   -3.7753   -0.0000 N   0  0  0  0  0  0  0  0  0  0  0  0
   -3.8226   -1.1598   -0.0000 C   0  0  0  0  0  0  0  0  0  0  0  0
    5.3020   -1.4083   -0.0000 C   0  0  0  0  0  0  0  0  0  0  0  0
    5.2665   -3.8345   -0.0000 C   0  0  0  0  0  0  0  0  0  0  0  0
   -4.6037   -2.4498   -0.0000 C   0  0  0  0  0  0  0  0  0  0  0  0
    4.8523    0.0355   -0.0000 O   0  0  0  0  0  0  0  0  0  0  0  0
    6.7103   -1.8817   -0.0000 O   0  0  0  0  0  0  0  0  0  0  0  0
    6.6867   -3.3848   -0.0000 C   0  0  0  0  0  0  0  0  0  0  0  0
   -6.1186   -2.4143   -0.0000 C   0  0  0  0  0  0  0  0  0  0  0  0
    7.8702   -4.2724   -0.0000 C   0  0  0  0  0  0  0  0  0  0  0  0
   -6.8524   -1.0888   -0.0000 O   0  0  0  0  0  0  0  0  0  0  0  0
   -6.8997   -3.6925   -0.0000 C   0  0  0  0  0  0  0  0  0  0  0  0
    9.2430   -3.6688   -0.0000 N   0  0  0  0  0  0  0  0  0  0  0  0
   -8.4146   -3.6570   -0.0000 N   0  0  0  0  0  0  0  0  0  0  0  0
    9.5625   -2.1894   -0.0000 N   0  0  0  0  0  0  0  0  0  0  0  0
   10.5212   -4.4262   -0.0000 C   0  0  0  0  0  0  0  0  0  0  0  0
   -9.2903   -2.4143   -0.0000 C   0  0  0  0  0  0  0  0  0  0  0  0
   -9.3377   -4.8404   -0.0000 C   0  0  0  0  0  0  0  0  0  0  0  0
   11.0419   -2.0474   -0.0000 N   0  0  0  0  0  0  0  0  0  0  0  0
   11.6455   -3.4321   -0.0000 C   0  0  0  0  0  0  0  0  0  0  0  0
  -10.7223   -2.8404   -0.0000 N   0  0  0  0  0  0  0  0  0  0  0  0
   -8.8169   -0.9823   -0.0000 C   0  0  0  0  0  0  0  0  0  0  0  0
  -10.7579   -4.3434   -0.0000 C   0  0  0  0  0  0  0  0  0  0  0  0
   -8.9116   -6.2606   -0.0000 C   0  0  0  0  0  0  0  0  0  0  0  0
  1  2  1  0  0  0  0
  2  3  2  0  0  0  0
  2  4  1  0  0  0  0
  3  5  1  0  0  0  0
  3  6  1  0  0  0  0
  4  7  2  0  0  0  0
  5  8  2  0  0  0  0
  5  9  1  0  0  0  0
  6 10  2  0  0  0  0
  7 11  1  0  0  0  0
  8 12  1  0  0  0  0
  9 13  2  0  0  0  0
 11 14  1  0  0  0  0
 11 15  1  0  0  0  0
 12 16  2  0  0  0  0
 14 17  2  0  0  0  0
 14 18  1  0  0  0  0
 15 19  1  0  0  0  0
 16 20  1  0  0  0  0
 19 21  1  1  0  0  0
 20 22  2  0  0  0  0
 20 23  1  0  0  0  0
 21 24  1  0  0  0  0
 23 25  1  0  0  0  0
 24 26  1  0  0  0  0
 24 27  1  0  0  0  0
 25 28  1  0  0  0  0
 25 29  1  0  0  0  0
 26 30  2  0  0  0  0
 27 31  2  0  0  0  0
 28 32  2  0  0  0  0
 28 33  1  0  0  0  0
 29 34  2  0  0  0  0
 29 35  1  0  0  0  0
  7 10  1  0  0  0  0
 13 16  1  0  0  0  0
 18 19  1  0  0  0  0
 30 31  1  0  0  0  0
 32 34  1  0  0  0  0
M  END
>  <MolRegNo>
388558

>  <m>
=

>  <Value>
10700

>  <Unit>
nM

>  <Type>
IC50

>  <pValue>
4.97

>  <Ligand Efficiency>
0

>  <Binding Efficiency>
0

>  <Surface Efficiency>
0

>  <Assay Index>
294826

>  <Assay Category>


>  <Assay Organism>
Homo sapiens

>  <Target ID>
17045

>  <Target Name>
Cytochrome P450 3A4

>  <Target Organism>
Homo sapiens

>  <Target Description>
Target is a single protein chain

>  <Sequence Accession>
P08684

>  <Reference>
J Med Chem 50 (20), 4868-4881 (2007)

>  <Pubmed ID>
17722903

>  <DOI>
10.1021/jm070428+

$$$$
388553
Actelion Java MolfileCreator 1.0

 33 37  0  0  1  0  0  0  0  0999 V2000
    0.0000   -0.0000   -0.0000 F   0  0  0  0  0  0  0  0  0  0  0  0
    0.7218   -1.3016   -0.0000 C   0  0  0  0  0  0  0  0  0  0  0  0
   -0.0592   -2.5677   -0.0000 C   0  0  0  0  0  0  0  0  0  0  0  0
    2.2009   -1.3135   -0.0000 C   0  0  0  0  0  0  0  0  0  0  0  0
   -1.5619   -2.5322   -0.0000 C   0  0  0  0  0  0  0  0  0  0  0  0
    0.6508   -3.8694   -0.0000 C   0  0  0  0  0  0  0  0  0  0  0  0
    2.9227   -2.6151   -0.0000 C   0  0  0  0  0  0  0  0  0  0  0  0
   -2.3547   -3.8102   -0.0000 C   0  0  0  0  0  0  0  0  0  0  0  0
   -2.3074   -1.1951   -0.0000 C   0  0  0  0  0  0  0  0  0  0  0  0
    2.1418   -3.8812   -0.0000 C   0  0  0  0  0  0  0  0  0  0  0  0
    4.4137   -2.6151   -0.0000 N   0  0  0  0  0  0  0  0  0  0  0  0
   -3.8694   -3.7747   -0.0000 N   0  0  0  0  0  0  0  0  0  0  0  0
   -3.8220   -1.1596   -0.0000 C   0  0  0  0  0  0  0  0  0  0  0  0
    5.3011   -1.4081   -0.0000 C   0  0  0  0  0  0  0  0  0  0  0  0
    5.2656   -3.8339   -0.0000 C   0  0  0  0  0  0  0  0  0  0  0  0
   -4.6030   -2.4494   -0.0000 C   0  0  0  0  0  0  0  0  0  0  0  0
    4.8515    0.0355   -0.0000 O   0  0  0  0  0  0  0  0  0  0  0  0
    6.7092   -1.8814   -0.0000 O   0  0  0  0  0  0  0  0  0  0  0  0
    6.6856   -3.3842   -0.0000 C   0  0  0  0  0  0  0  0  0  0  0  0
   -6.1176   -2.4139   -0.0000 C   0  0  0  0  0  0  0  0  0  0  0  0
    7.8689   -4.2717   -0.0000 C   0  0  0  0  0  0  0  0  0  0  0  0
   -6.8512   -1.0886   -0.0000 O   0  0  0  0  0  0  0  0  0  0  0  0
   -6.8986   -3.6919   -0.0000 C   0  0  0  0  0  0  0  0  0  0  0  0
    9.2415   -3.6682   -0.0000 N   0  0  0  0  0  0  0  0  0  0  0  0
   -8.4132   -3.6564   -0.0000 N   0  0  0  0  0  0  0  0  0  0  0  0
    9.5610   -2.1891   -0.0000 N   0  0  0  0  0  0  0  0  0  0  0  0
   10.5194   -4.4255   -0.0000 C   0  0  0  0  0  0  0  0  0  0  0  0
   -9.2888   -2.4139   -0.0000 C   0  0  0  0  0  0  0  0  0  0  0  0
   -9.3362   -4.8397   -0.0000 C   0  0  0  0  0  0  0  0  0  0  0  0
   11.0401   -2.0471   -0.0000 N   0  0  0  0  0  0  0  0  0  0  0  0
   11.6436   -3.4315   -0.0000 C   0  0  0  0  0  0  0  0  0  0  0  0
  -10.7206   -2.8399   -0.0000 N   0  0  0  0  0  0  0  0  0  0  0  0
  -10.7561   -4.3427   -0.0000 C   0  0  0  0  0  0  0  0  0  0  0  0
  1  2  1  0  0  0  0
  2  3  2  0  0  0  0
  2  4  1  0  0  0  0
  3  5  1  0  0  0  0
  3  6  1  0  0  0  0
  4  7  2  0  0  0  0
  5  8  2  0  0  0  0
  5  9  1  0  0  0  0
  6 10  2  0  0  0  0
  7 11  1  0  0  0  0
  8 12  1  0  0  0  0
  9 13  2  0  0  0  0
 11 14  1  0  0  0  0
 11 15  1  0  0  0  0
 12 16  2  0  0  0  0
 14 17  2  0  0  0  0
 14 18  1  0  0  0  0
 15 19  1  0  0  0  0
 16 20  1  0  0  0  0
 19 21  1  1  0  0  0
 20 22  2  0  0  0  0
 20 23  1  0  0  0  0
 21 24  1  0  0  0  0
 23 25  1  0  0  0  0
 24 26  1  0  0  0  0
 24 27  1  0  0  0  0
 25 28  1  0  0  0  0
 25 29  1  0  0  0  0
 26 30  2  0  0  0  0
 27 31  2  0  0  0  0
 28 32  2  0  0  0  0
 29 33  2  0  0  0  0
  7 10  1  0  0  0  0
 13 16  1  0  0  0  0
 18 19  1  0  0  0  0
 30 31  1  0  0  0  0
 32 33  1  0  0  0  0
M  END
>  <MolRegNo>
388553

>  <m>
=

>  <Value>
300

>  <Unit>
nM

>  <Type>
IC50

>  <pValue>
6.52

>  <Ligand Efficiency>
0

>  <Binding Efficiency>
0

>  <Surface Efficiency>
0

>  <Assay Index>
294826

>  <Assay Category>


>  <Assay Organism>
Homo sapiens

>  <Target ID>
17045

>  <Target Name>
Cytochrome P450 3A4

>  <Target Organism>
Homo sapiens

>  <Target Description>
Target is a single protein chain

>  <Sequence Accession>
P08684

>  <Reference>
J Med Chem 50 (20), 4868-4881 (2007)

>  <Pubmed ID>
17722903

>  <DOI>
10.1021/jm070428+

$$$$
388505
Actelion Java MolfileCreator 1.0

 32 35  0  0  0  0  0  0  0  0999 V2000
    0.0000   -0.0000   -0.0000 Cl  0  0  0  0  0  0  0  0  0  0  0  0
   -0.0119    1.5069   -0.0000 C   0  0  0  0  0  0  0  0  0  0  0  0
    1.2814    2.2781   -0.0000 C   0  0  0  0  0  0  0  0  0  0  0  0
   -1.3170    2.2663   -0.0000 C   0  0  0  0  0  0  0  0  0  0  0  0
    2.5629    1.5425   -0.0000 N   0  0  0  0  0  0  0  0  0  0  0  0
    1.2696    3.7969   -0.0000 C   0  0  0  0  0  0  0  0  0  0  0  0
   -1.3289    3.7850   -0.0000 C   0  0  0  0  0  0  0  0  0  0  0  0
    3.8443    2.3137   -0.0000 C   0  0  0  0  0  0  0  0  0  0  0  0
    2.5510    4.5562   -0.0000 C   0  0  0  0  0  0  0  0  0  0  0  0
   -0.0475    4.5444   -0.0000 C   0  0  0  0  0  0  0  0  0  0  0  0
   -2.6341    4.5444   -0.0000 N   0  0  0  0  0  0  0  0  0  0  0  0
    3.8206    3.8325   -0.0000 C   0  0  0  0  0  0  0  0  0  0  0  0
    2.5273    6.0631   -0.0000 N   0  0  0  0  0  0  0  0  0  0  0  0
   -3.9392    3.8087   -0.0000 C   0  0  0  0  0  0  0  0  0  0  0  0
    5.1020    4.6037   -0.0000 C   0  0  0  0  0  0  0  0  0  0  0  0
    3.8087    6.8344   -0.0000 C   0  0  0  0  0  0  0  0  0  0  0  0
   -5.2444    4.5681   -0.0000 C   0  0  0  0  0  0  0  0  0  0  0  0
    6.3716    5.3749   -0.0000 N   0  0  0  0  0  0  0  0  0  0  0  0
    5.0902    6.0987   -0.0000 C   0  0  0  0  0  0  0  0  0  0  0  0
    3.7731    8.3294   -0.0000 C   0  0  0  0  0  0  0  0  0  0  0  0
   -6.6208    3.9748   -0.0000 N   0  0  0  0  0  0  0  0  0  0  0  0
   -5.4224    6.0750   -0.0000 C   0  0  0  0  0  0  0  0  0  0  0  0
    6.3716    6.8700   -0.0000 C   0  0  0  0  0  0  0  0  0  0  0  0
    5.0427    9.1006   -0.0000 C   0  0  0  0  0  0  0  0  0  0  0  0
   -7.6412    5.1020   -0.0000 C   0  0  0  0  0  0  0  0  0  0  0  0
   -6.9055    6.3953   -0.0000 N   0  0  0  0  0  0  0  0  0  0  0  0
   -4.3189    7.0954   -0.0000 C   0  0  0  0  0  0  0  0  0  0  0  0
    7.6649    6.1343   -0.0000 Cl  0  0  0  0  0  0  0  0  0  0  0  0
    6.3479    8.3768   -0.0000 C   0  0  0  0  0  0  0  0  0  0  0  0
   -4.6393    8.5667   -0.0000 C   0  0  0  0  0  0  0  0  0  0  0  0
    7.6293    9.1481   -0.0000 F   0  0  0  0  0  0  0  0  0  0  0  0
   -3.5358    9.5871   -0.0000 C   0  0  0  0  0  0  0  0  0  0  0  0
  1  2  1  0  0  0  0
  2  3  1  0  0  0  0
  2  4  2  0  0  0  0
  3  5  2  0  0  0  0
  3  6  1  0  0  0  0
  4  7  1  0  0  0  0
  5  8  1  0  0  0  0
  6  9  2  0  0  0  0
  6 10  1  0  0  0  0
  7 11  1  0  0  0  0
  8 12  2  0  0  0  0
  9 13  1  0  0  0  0
 11 14  1  0  0  0  0
 12 15  1  0  0  0  0
 13 16  1  0  0  0  0
 14 17  1  0  0  0  0
 15 18  3  0  0  0  0
 16 19  2  0  0  0  0
 16 20  1  0  0  0  0
 17 21  1  0  0  0  0
 17 22  2  0  0  0  0
 19 23  1  0  0  0  0
 20 24  2  0  0  0  0
 21 25  2  0  0  0  0
 22 26  1  0  0  0  0
 22 27  1  0  0  0  0
 23 28  1  0  0  0  0
 23 29  2  0  0  0  0
 27 30  1  0  0  0  0
 29 31  1  0  0  0  0
 30 32  1  0  0  0  0
  7 10  2  0  0  0  0
  9 12  1  0  0  0  0
 24 29  1  0  0  0  0
 25 26  1  0  0  0  0
M  END
>  <MolRegNo>
388505

>  <m>
=

>  <Value>
16000

>  <Unit>
nM

>  <Type>
IC50

>  <pValue>
4.8

>  <Ligand Efficiency>
0

>  <Binding Efficiency>
0

>  <Surface Efficiency>
0

>  <Assay Index>
294788

>  <Assay Category>


>  <Assay Organism>


>  <Target ID>
17045

>  <Target Name>
Cytochrome P450 3A4

>  <Target Organism>
Homo sapiens

>  <Target Description>
Target is a single protein chain

>  <Sequence Accession>
P08684

>  <Reference>
J Med Chem 50 (19), 4728-4745 (2007)

>  <Pubmed ID>
17715908

>  <DOI>
10.1021/jm070436q

$$$$
388445
Actelion Java MolfileCreator 1.0

 29 32  0  0  0  0  0  0  0  0999 V2000
    0.0000   -0.0000   -0.0000 Cl  0  0  0  0  0  0  0  0  0  0  0  0
   -0.0118    1.5020   -0.0000 C   0  0  0  0  0  0  0  0  0  0  0  0
    1.2655    2.2707   -0.0000 C   0  0  0  0  0  0  0  0  0  0  0  0
   -1.3128    2.2589   -0.0000 C   0  0  0  0  0  0  0  0  0  0  0  0
    2.5427    1.5375   -0.0000 N   0  0  0  0  0  0  0  0  0  0  0  0
    1.2536    3.7846   -0.0000 C   0  0  0  0  0  0  0  0  0  0  0  0
   -1.3246    3.7727   -0.0000 C   0  0  0  0  0  0  0  0  0  0  0  0
    3.8200    2.2944   -0.0000 C   0  0  0  0  0  0  0  0  0  0  0  0
    2.5309    4.5415   -0.0000 C   0  0  0  0  0  0  0  0  0  0  0  0
   -0.0473    4.5415   -0.0000 C   0  0  0  0  0  0  0  0  0  0  0  0
   -2.6255    4.5296   -0.0000 N   0  0  0  0  0  0  0  0  0  0  0  0
    3.7964    3.8082   -0.0000 C   0  0  0  0  0  0  0  0  0  0  0  0
    2.5073    6.0435   -0.0000 N   0  0  0  0  0  0  0  0  0  0  0  0
   -3.9265    3.7964   -0.0000 C   0  0  0  0  0  0  0  0  0  0  0  0
    5.0737    4.5769   -0.0000 C   0  0  0  0  0  0  0  0  0  0  0  0
    1.1945    6.8004   -0.0000 C   0  0  0  0  0  0  0  0  0  0  0  0
   -5.2274    4.5533   -0.0000 C   0  0  0  0  0  0  0  0  0  0  0  0
    6.3510    5.3457   -0.0000 N   0  0  0  0  0  0  0  0  0  0  0  0
    1.1827    8.3024   -0.0000 C   0  0  0  0  0  0  0  0  0  0  0  0
   -0.0946    6.0553   -0.0000 C   0  0  0  0  0  0  0  0  0  0  0  0
   -6.5993    3.9620   -0.0000 N   0  0  0  0  0  0  0  0  0  0  0  0
   -5.3930    6.0553   -0.0000 C   0  0  0  0  0  0  0  0  0  0  0  0
   -0.1301    9.0593   -0.0000 C   0  0  0  0  0  0  0  0  0  0  0  0
   -1.4074    6.8004   -0.0000 C   0  0  0  0  0  0  0  0  0  0  0  0
   -7.6164    5.0855   -0.0000 C   0  0  0  0  0  0  0  0  0  0  0  0
   -6.8595    6.3746   -0.0000 N   0  0  0  0  0  0  0  0  0  0  0  0
   -0.1537   10.5613   -0.0000 Cl  0  0  0  0  0  0  0  0  0  0  0  0
   -1.4310    8.3142   -0.0000 C   0  0  0  0  0  0  0  0  0  0  0  0
   -2.7438    9.0593   -0.0000 F   0  0  0  0  0  0  0  0  0  0  0  0
  1  2  1  0  0  0  0
  2  3  1  0  0  0  0
  2  4  2  0  0  0  0
  3  5  2  0  0  0  0
  3  6  1  0  0  0  0
  4  7  1  0  0  0  0
  5  8  1  0  0  0  0
  6  9  2  0  0  0  0
  6 10  1  0  0  0  0
  7 11  1  0  0  0  0
  8 12  2  0  0  0  0
  9 13  1  0  0  0  0
 11 14  1  0  0  0  0
 12 15  1  0  0  0  0
 13 16  1  0  0  0  0
 14 17  1  0  0  0  0
 15 18  3  0  0  0  0
 16 19  2  0  0  0  0
 16 20  1  0  0  0  0
 17 21  1  0  0  0  0
 17 22  2  0  0  0  0
 19 23  1  0  0  0  0
 20 24  2  0  0  0  0
 21 25  1  0  0  0  0
 22 26  1  0  0  0  0
 23 27  1  0  0  0  0
 23 28  2  0  0  0  0
 28 29  1  0  0  0  0
  7 10  2  0  0  0  0
  9 12  1  0  0  0  0
 24 28  1  0  0  0  0
 25 26  2  0  0  0  0
M  END
>  <MolRegNo>
388445

>  <m>
=

>  <Value>
9000

>  <Unit>
nM

>  <Type>
IC50

>  <pValue>
5.05

>  <Ligand Efficiency>
0

>  <Binding Efficiency>
0

>  <Surface Efficiency>
0

>  <Assay Index>
294788

>  <Assay Category>


>  <Assay Organism>


>  <Target ID>
17045

>  <Target Name>
Cytochrome P450 3A4

>  <Target Organism>
Homo sapiens

>  <Target Description>
Target is a single protein chain

>  <Sequence Accession>
P08684

>  <Reference>
J Med Chem 50 (19), 4728-4745 (2007)

>  <Pubmed ID>
17715908

>  <DOI>
10.1021/jm070436q

$$$$
388482
Actelion Java MolfileCreator 1.0

 31 34  0  0  0  0  0  0  0  0999 V2000
    0.0000   -0.0000   -0.0000 Cl  0  0  0  0  0  0  0  0  0  0  0  0
   -0.0119    1.5084   -0.0000 C   0  0  0  0  0  0  0  0  0  0  0  0
    1.2827    2.2804   -0.0000 C   0  0  0  0  0  0  0  0  0  0  0  0
   -1.3183    2.2685   -0.0000 C   0  0  0  0  0  0  0  0  0  0  0  0
    2.5654    1.5440   -0.0000 N   0  0  0  0  0  0  0  0  0  0  0  0
    1.2708    3.8006   -0.0000 C   0  0  0  0  0  0  0  0  0  0  0  0
   -1.3302    3.7887   -0.0000 C   0  0  0  0  0  0  0  0  0  0  0  0
    3.8481    2.3041   -0.0000 C   0  0  0  0  0  0  0  0  0  0  0  0
    2.5535    4.5607   -0.0000 C   0  0  0  0  0  0  0  0  0  0  0  0
   -0.0475    4.5489   -0.0000 C   0  0  0  0  0  0  0  0  0  0  0  0
   -2.6367    4.5489   -0.0000 N   0  0  0  0  0  0  0  0  0  0  0  0
    3.8244    3.8244   -0.0000 C   0  0  0  0  0  0  0  0  0  0  0  0
    2.5298    6.0691   -0.0000 N   0  0  0  0  0  0  0  0  0  0  0  0
   -3.9431    3.8125   -0.0000 C   0  0  0  0  0  0  0  0  0  0  0  0
    5.1071    4.5964   -0.0000 C   0  0  0  0  0  0  0  0  0  0  0  0
    3.8125    6.8411   -0.0000 C   0  0  0  0  0  0  0  0  0  0  0  0
   -5.2496    4.5726   -0.0000 C   0  0  0  0  0  0  0  0  0  0  0  0
    6.3779    5.3684   -0.0000 N   0  0  0  0  0  0  0  0  0  0  0  0
    5.0952    6.1047   -0.0000 C   0  0  0  0  0  0  0  0  0  0  0  0
    3.7769    8.3376   -0.0000 C   0  0  0  0  0  0  0  0  0  0  0  0
   -6.5442    3.8362   -0.0000 N   0  0  0  0  0  0  0  0  0  0  0  0
   -5.2615    6.0810   -0.0000 C   0  0  0  0  0  0  0  0  0  0  0  0
    6.3779    6.8767   -0.0000 C   0  0  0  0  0  0  0  0  0  0  0  0
    5.0477    9.1096   -0.0000 C   0  0  0  0  0  0  0  0  0  0  0  0
   -6.5442    2.3516   -0.0000 O   0  0  0  0  0  0  0  0  0  0  0  0
   -7.8506    4.5845   -0.0000 C   0  0  0  0  0  0  0  0  0  0  0  0
   -6.5679    6.8411   -0.0000 C   0  0  0  0  0  0  0  0  0  0  0  0
    7.6725    6.1522   -0.0000 Cl  0  0  0  0  0  0  0  0  0  0  0  0
    6.3542    8.3851   -0.0000 C   0  0  0  0  0  0  0  0  0  0  0  0
   -7.8744    6.1047   -0.0000 C   0  0  0  0  0  0  0  0  0  0  0  0
    7.6369    9.1571   -0.0000 F   0  0  0  0  0  0  0  0  0  0  0  0
  1  2  1  0  0  0  0
  2  3  1  0  0  0  0
  2  4  2  0  0  0  0
  3  5  2  0  0  0  0
  3  6  1  0  0  0  0
  4  7  1  0  0  0  0
  5  8  1  0  0  0  0
  6  9  2  0  0  0  0
  6 10  1  0  0  0  0
  7 11  1  0  0  0  0
  8 12  2  0  0  0  0
  9 13  1  0  0  0  0
 11 14  1  0  0  0  0
 12 15  1  0  0  0  0
 13 16  1  0  0  0  0
 14 17  1  0  0  0  0
 15 18  3  0  0  0  0
 16 19  2  0  0  0  0
 16 20  1  0  0  0  0
 17 21  2  0  0  0  0
 17 22  1  0  0  0  0
 19 23  1  0  0  0  0
 20 24  2  0  0  0  0
 21 25  1  0  0  0  0
 21 26  1  0  0  0  0
 22 27  2  0  0  0  0
 23 28  1  0  0  0  0
 23 29  2  0  0  0  0
 26 30  2  0  0  0  0
 29 31  1  0  0  0  0
  7 10  2  0  0  0  0
  9 12  1  0  0  0  0
 24 29  1  0  0  0  0
 27 30  1  0  0  0  0
M  CHG  2  21   1  25  -1
M  END
>  <MolRegNo>
388482

>  <m>
=

>  <Value>
18000

>  <Unit>
nM

>  <Type>
IC50

>  <pValue>
4.75

>  <Ligand Efficiency>
0

>  <Binding Efficiency>
0

>  <Surface Efficiency>
0

>  <Assay Index>
294788

>  <Assay Category>


>  <Assay Organism>


>  <Target ID>
17045

>  <Target Name>
Cytochrome P450 3A4

>  <Target Organism>
Homo sapiens

>  <Target Description>
Target is a single protein chain

>  <Sequence Accession>
P08684

>  <Reference>
J Med Chem 50 (19), 4728-4745 (2007)

>  <Pubmed ID>
17715908

>  <DOI>
10.1021/jm070436q

$$$$
388509
Actelion Java MolfileCreator 1.0

 30 33  0  0  0  0  0  0  0  0999 V2000
    0.0000   -0.0000   -0.0000 Br  0  0  0  0  0  0  0  0  0  0  0  0
   -0.0119    1.5056   -0.0000 C   0  0  0  0  0  0  0  0  0  0  0  0
    1.2685    2.2643   -0.0000 C   0  0  0  0  0  0  0  0  0  0  0  0
   -1.3159    2.2643   -0.0000 C   0  0  0  0  0  0  0  0  0  0  0  0
    2.5488    1.5293   -0.0000 N   0  0  0  0  0  0  0  0  0  0  0  0
    1.2566    3.7818   -0.0000 C   0  0  0  0  0  0  0  0  0  0  0  0
   -1.3159    3.7699   -0.0000 C   0  0  0  0  0  0  0  0  0  0  0  0
    3.8410    2.2880   -0.0000 C   0  0  0  0  0  0  0  0  0  0  0  0
    2.5370    4.5405   -0.0000 C   0  0  0  0  0  0  0  0  0  0  0  0
   -0.0474    4.5405   -0.0000 C   0  0  0  0  0  0  0  0  0  0  0  0
   -2.6200    4.5286   -0.0000 N   0  0  0  0  0  0  0  0  0  0  0  0
    3.8292    3.8055   -0.0000 C   0  0  0  0  0  0  0  0  0  0  0  0
    2.5251    6.0461   -0.0000 N   0  0  0  0  0  0  0  0  0  0  0  0
   -3.9359    3.7936   -0.0000 C   0  0  0  0  0  0  0  0  0  0  0  0
    5.1095    4.5761   -0.0000 C   0  0  0  0  0  0  0  0  0  0  0  0
    3.8055    6.8048   -0.0000 C   0  0  0  0  0  0  0  0  0  0  0  0
   -5.2399    4.5523   -0.0000 C   0  0  0  0  0  0  0  0  0  0  0  0
    6.4017    5.3348   -0.0000 N   0  0  0  0  0  0  0  0  0  0  0  0
    3.7818    8.3104   -0.0000 C   0  0  0  0  0  0  0  0  0  0  0  0
    5.0858    6.0698   -0.0000 C   0  0  0  0  0  0  0  0  0  0  0  0
   -6.6151    3.9596   -0.0000 N   0  0  0  0  0  0  0  0  0  0  0  0
   -5.3941    6.0461   -0.0000 C   0  0  0  0  0  0  0  0  0  0  0  0
    5.0621    9.0810   -0.0000 C   0  0  0  0  0  0  0  0  0  0  0  0
    6.3662    6.8285   -0.0000 C   0  0  0  0  0  0  0  0  0  0  0  0
   -7.6228    5.0858   -0.0000 C   0  0  0  0  0  0  0  0  0  0  0  0
   -6.8641    6.3780   -0.0000 N   0  0  0  0  0  0  0  0  0  0  0  0
    5.0384   10.5866   -0.0000 Cl  0  0  0  0  0  0  0  0  0  0  0  0
    6.3543    8.3460   -0.0000 C   0  0  0  0  0  0  0  0  0  0  0  0
   -7.4805    7.7651   -0.0000 C   0  0  0  0  0  0  0  0  0  0  0  0
    7.6347    9.1165   -0.0000 F   0  0  0  0  0  0  0  0  0  0  0  0
  1  2  1  0  0  0  0
  2  3  1  0  0  0  0
  2  4  2  0  0  0  0
  3  5  2  0  0  0  0
  3  6  1  0  0  0  0
  4  7  1  0  0  0  0
  5  8  1  0  0  0  0
  6  9  2  0  0  0  0
  6 10  1  0  0  0  0
  7 11  1  0  0  0  0
  8 12  2  0  0  0  0
  9 13  1  0  0  0  0
 11 14  1  0  0  0  0
 12 15  1  0  0  0  0
 13 16  1  0  0  0  0
 14 17  1  0  0  0  0
 15 18  3  0  0  0  0
 16 19  2  0  0  0  0
 16 20  1  0  0  0  0
 17 21  1  0  0  0  0
 17 22  2  0  0  0  0
 19 23  1  0  0  0  0
 20 24  2  0  0  0  0
 21 25  2  0  0  0  0
 22 26  1  0  0  0  0
 23 27  1  0  0  0  0
 23 28  2  0  0  0  0
 26 29  1  0  0  0  0
 28 30  1  0  0  0  0
  7 10  2  0  0  0  0
  9 12  1  0  0  0  0
 24 28  1  0  0  0  0
 25 26  1  0  0  0  0
M  END
>  <MolRegNo>
388509

>  <m>
=

>  <Value>
15000

>  <Unit>
nM

>  <Type>
IC50

>  <pValue>
4.82

>  <Ligand Efficiency>
0

>  <Binding Efficiency>
0

>  <Surface Efficiency>
0

>  <Assay Index>
294788

>  <Assay Category>


>  <Assay Organism>


>  <Target ID>
17045

>  <Target Name>
Cytochrome P450 3A4

>  <Target Organism>
Homo sapiens

>  <Target Description>
Target is a single protein chain

>  <Sequence Accession>
P08684

>  <Reference>
J Med Chem 50 (19), 4728-4745 (2007)

>  <Pubmed ID>
17715908

>  <DOI>
10.1021/jm070436q

$$$$
391713
Actelion Java MolfileCreator 1.0

 49 54  0  0  0  0  0  0  0  0999 V2000
    0.0000   -0.0000   -0.0000 O   0  0  0  0  0  0  0  0  0  0  0  0
   -0.0119   -1.4913   -0.0000 C   0  0  0  0  0  0  0  0  0  0  0  0
    1.2765   -2.2310   -0.0000 N   0  0  0  0  0  0  0  0  0  0  0  0
   -1.3243   -2.2310   -0.0000 C   0  0  0  0  0  0  0  0  0  0  0  0
    2.5650   -1.4674   -0.0000 C   0  0  0  0  0  0  0  0  0  0  0  0
   -1.3362   -3.7342   -0.0000 C   0  0  0  0  0  0  0  0  0  0  0  0
   -2.6366   -1.4674   -0.0000 C   0  0  0  0  0  0  0  0  0  0  0  0
    3.8535   -2.2071   -0.0000 C   0  0  0  0  0  0  0  0  0  0  0  0
    2.5412    0.0358   -0.0000 C   0  0  0  0  0  0  0  0  0  0  0  0
   -0.0477   -4.4739   -0.0000 N   0  0  0  0  0  0  0  0  0  0  0  0
   -2.6605   -4.4739   -0.0000 C   0  0  0  0  0  0  0  0  0  0  0  0
   -3.9489   -2.2071   -0.0000 C   0  0  0  0  0  0  0  0  0  0  0  0
    5.1420   -1.4436   -0.0000 C   0  0  0  0  0  0  0  0  0  0  0  0
    3.8177    0.8113   -0.0000 C   0  0  0  0  0  0  0  0  0  0  0  0
   -0.0597   -5.9652   -0.0000 C   0  0  0  0  0  0  0  0  0  0  0  0
   -3.9728   -3.7103   -0.0000 C   0  0  0  0  0  0  0  0  0  0  0  0
   -5.2613   -1.4436   -0.0000 O   0  0  0  0  0  0  0  0  0  0  0  0
    5.1301    0.0716   -0.0000 C   0  0  0  0  0  0  0  0  0  0  0  0
   -1.3720   -6.7049   -0.0000 O   0  0  0  0  0  0  0  0  0  0  0  0
    1.2288   -6.7049   -0.0000 C   0  0  0  0  0  0  0  0  0  0  0  0
   -5.2851   -4.4500   -0.0000 O   0  0  0  0  0  0  0  0  0  0  0  0
   -5.2732    0.0716   -0.0000 C   0  0  0  0  0  0  0  0  0  0  0  0
    6.4066    0.8471   -0.0000 N   0  0  0  0  0  0  0  0  0  0  0  0
    1.2050   -8.1962   -0.0000 C   0  0  0  0  0  0  0  0  0  0  0  0
    2.5054   -5.9294   -0.0000 C   0  0  0  0  0  0  0  0  0  0  0  0
   -6.5975   -3.6865   -0.0000 C   0  0  0  0  0  0  0  0  0  0  0  0
    7.7070    0.1074   -0.0000 C   0  0  0  0  0  0  0  0  0  0  0  0
    6.3827    2.3622   -0.0000 C   0  0  0  0  0  0  0  0  0  0  0  0
    2.4934   -8.9358   -0.0000 N   0  0  0  0  0  0  0  0  0  0  0  0
    3.7939   -6.6571   -0.0000 C   0  0  0  0  0  0  0  0  0  0  0  0
    8.9955    0.8709   -0.0000 C   0  0  0  0  0  0  0  0  0  0  0  0
    7.6832    3.1258   -0.0000 C   0  0  0  0  0  0  0  0  0  0  0  0
    3.7819   -8.1723   -0.0000 C   0  0  0  0  0  0  0  0  0  0  0  0
    5.0823   -5.8817   -0.0000 C   0  0  0  0  0  0  0  0  0  0  0  0
    8.9836    2.3861   -0.0000 N   0  0  0  0  0  0  0  0  0  0  0  0
    5.0823   -8.9120   -0.0000 C   0  0  0  0  0  0  0  0  0  0  0  0
    6.3827   -6.6094   -0.0000 C   0  0  0  0  0  0  0  0  0  0  0  0
   10.2720    3.1496   -0.0000 C   0  0  0  0  0  0  0  0  0  0  0  0
    6.3708   -8.1365   -0.0000 C   0  0  0  0  0  0  0  0  0  0  0  0
   11.5605    2.4099   -0.0000 C   0  0  0  0  0  0  0  0  0  0  0  0
   12.8371    3.1735   -0.0000 C   0  0  0  0  0  0  0  0  0  0  0  0
   11.5367    0.9186   -0.0000 C   0  0  0  0  0  0  0  0  0  0  0  0
   14.1255    2.4457   -0.0000 C   0  0  0  0  0  0  0  0  0  0  0  0
   12.8251    0.1790   -0.0000 C   0  0  0  0  0  0  0  0  0  0  0  0
   15.4140    3.2212   -0.0000 O   0  0  0  0  0  0  0  0  0  0  0  0
   14.1255    0.9425   -0.0000 C   0  0  0  0  0  0  0  0  0  0  0  0
   16.7144    2.4815   -0.0000 C   0  0  0  0  0  0  0  0  0  0  0  0
   15.4140    0.2028   -0.0000 O   0  0  0  0  0  0  0  0  0  0  0  0
   15.4021   -1.2885   -0.0000 C   0  0  0  0  0  0  0  0  0  0  0  0
  1  2  2  0  0  0  0
  2  3  1  0  0  0  0
  2  4  1  0  0  0  0
  3  5  1  0  0  0  0
  4  6  2  0  0  0  0
  4  7  1  0  0  0  0
  5  8  2  0  0  0  0
  5  9  1  0  0  0  0
  6 10  1  0  0  0  0
  6 11  1  0  0  0  0
  7 12  2  0  0  0  0
  8 13  1  0  0  0  0
  9 14  2  0  0  0  0
 10 15  1  0  0  0  0
 11 16  2  0  0  0  0
 12 17  1  0  0  0  0
 13 18  2  0  0  0  0
 15 19  2  0  0  0  0
 15 20  1  0  0  0  0
 16 21  1  0  0  0  0
 17 22  1  0  0  0  0
 18 23  1  0  0  0  0
 20 24  1  0  0  0  0
 20 25  2  0  0  0  0
 21 26  1  0  0  0  0
 23 27  1  0  0  0  0
 23 28  1  0  0  0  0
 24 29  2  0  0  0  0
 25 30  1  0  0  0  0
 27 31  1  0  0  0  0
 28 32  1  0  0  0  0
 29 33  1  0  0  0  0
 30 34  2  0  0  0  0
 31 35  1  0  0  0  0
 33 36  2  0  0  0  0
 34 37  1  0  0  0  0
 35 38  1  0  0  0  0
 36 39  1  0  0  0  0
 38 40  1  0  0  0  0
 40 41  2  0  0  0  0
 40 42  1  0  0  0  0
 41 43  1  0  0  0  0
 42 44  2  0  0  0  0
 43 45  1  0  0  0  0
 43 46  2  0  0  0  0
 45 47  1  0  0  0  0
 46 48  1  0  0  0  0
 48 49  1  0  0  0  0
 12 16  1  0  0  0  0
 14 18  1  0  0  0  0
 30 33  1  0  0  0  0
 32 35  1  0  0  0  0
 37 39  2  0  0  0  0
 44 46  1  0  0  0  0
M  END
>  <MolRegNo>
391713

>  <m>
=

>  <Value>
195

>  <Unit>
nM

>  <Type>
IC50

>  <pValue>
6.71

>  <Ligand Efficiency>
0

>  <Binding Efficiency>
0

>  <Surface Efficiency>
0

>  <Assay Index>
292412

>  <Assay Category>


>  <Assay Organism>
Homo sapiens

>  <Target ID>
17045

>  <Target Name>
Cytochrome P450 3A4

>  <Target Organism>
Homo sapiens

>  <Target Description>
Target is a single protein chain

>  <Sequence Accession>
P08684

>  <Reference>
Bioorg Med Chem 15 (11), 3854-3868 (2007)

>  <Pubmed ID>
17399990

>  <DOI>
10.1016/j.bmc.2007.03.014

$$$$
391711
Actelion Java MolfileCreator 1.0

 45 50  0  0  0  0  0  0  0  0999 V2000
    0.0000   -0.0000   -0.0000 O   0  0  0  0  0  0  0  0  0  0  0  0
   -0.0119   -1.4925   -0.0000 C   0  0  0  0  0  0  0  0  0  0  0  0
    1.2775   -2.2327   -0.0000 N   0  0  0  0  0  0  0  0  0  0  0  0
   -1.3253   -2.2327   -0.0000 C   0  0  0  0  0  0  0  0  0  0  0  0
    2.5670   -1.4686   -0.0000 C   0  0  0  0  0  0  0  0  0  0  0  0
   -1.3372   -3.7371   -0.0000 C   0  0  0  0  0  0  0  0  0  0  0  0
   -2.6387   -1.4686   -0.0000 C   0  0  0  0  0  0  0  0  0  0  0  0
    3.8565   -2.2088   -0.0000 C   0  0  0  0  0  0  0  0  0  0  0  0
    2.5431    0.0358   -0.0000 C   0  0  0  0  0  0  0  0  0  0  0  0
   -0.0478   -4.4774   -0.0000 N   0  0  0  0  0  0  0  0  0  0  0  0
   -2.6625   -4.4774   -0.0000 C   0  0  0  0  0  0  0  0  0  0  0  0
   -3.9520   -2.2088   -0.0000 C   0  0  0  0  0  0  0  0  0  0  0  0
    5.1460   -1.4447   -0.0000 C   0  0  0  0  0  0  0  0  0  0  0  0
    3.8207    0.8119   -0.0000 C   0  0  0  0  0  0  0  0  0  0  0  0
   -0.0597   -5.9698   -0.0000 C   0  0  0  0  0  0  0  0  0  0  0  0
   -3.9759   -3.7132   -0.0000 C   0  0  0  0  0  0  0  0  0  0  0  0
    5.1340    0.0716   -0.0000 C   0  0  0  0  0  0  0  0  0  0  0  0
   -1.3731   -6.7101   -0.0000 O   0  0  0  0  0  0  0  0  0  0  0  0
    1.2298   -6.7101   -0.0000 C   0  0  0  0  0  0  0  0  0  0  0  0
    6.4116    0.8477   -0.0000 N   0  0  0  0  0  0  0  0  0  0  0  0
    1.2059   -8.2025   -0.0000 C   0  0  0  0  0  0  0  0  0  0  0  0
    2.5073   -5.9340   -0.0000 C   0  0  0  0  0  0  0  0  0  0  0  0
    7.7130    0.1075   -0.0000 C   0  0  0  0  0  0  0  0  0  0  0  0
    6.3877    2.3640   -0.0000 C   0  0  0  0  0  0  0  0  0  0  0  0
    2.4954   -8.9428   -0.0000 N   0  0  0  0  0  0  0  0  0  0  0  0
    3.7968   -6.6623   -0.0000 C   0  0  0  0  0  0  0  0  0  0  0  0
    9.0025    0.8716   -0.0000 C   0  0  0  0  0  0  0  0  0  0  0  0
    7.6891    3.1282   -0.0000 C   0  0  0  0  0  0  0  0  0  0  0  0
    3.7849   -8.1786   -0.0000 C   0  0  0  0  0  0  0  0  0  0  0  0
    5.0863   -5.8862   -0.0000 C   0  0  0  0  0  0  0  0  0  0  0  0
    8.9905    2.3879   -0.0000 N   0  0  0  0  0  0  0  0  0  0  0  0
    5.0863   -8.9189   -0.0000 C   0  0  0  0  0  0  0  0  0  0  0  0
    6.3877   -6.6146   -0.0000 C   0  0  0  0  0  0  0  0  0  0  0  0
   10.2800    3.1521   -0.0000 C   0  0  0  0  0  0  0  0  0  0  0  0
    6.3758   -8.1428   -0.0000 C   0  0  0  0  0  0  0  0  0  0  0  0
   11.5695    2.4118   -0.0000 C   0  0  0  0  0  0  0  0  0  0  0  0
   12.8470    3.1759   -0.0000 C   0  0  0  0  0  0  0  0  0  0  0  0
   11.5456    0.9194   -0.0000 C   0  0  0  0  0  0  0  0  0  0  0  0
   14.1365    2.4476   -0.0000 C   0  0  0  0  0  0  0  0  0  0  0  0
   12.8351    0.1791   -0.0000 C   0  0  0  0  0  0  0  0  0  0  0  0
   15.4260    3.2237   -0.0000 O   0  0  0  0  0  0  0  0  0  0  0  0
   14.1365    0.9432   -0.0000 C   0  0  0  0  0  0  0  0  0  0  0  0
   16.7274    2.4834   -0.0000 C   0  0  0  0  0  0  0  0  0  0  0  0
   15.4260    0.2030   -0.0000 O   0  0  0  0  0  0  0  0  0  0  0  0
   15.4141   -1.2895   -0.0000 C   0  0  0  0  0  0  0  0  0  0  0  0
  1  2  2  0  0  0  0
  2  3  1  0  0  0  0
  2  4  1  0  0  0  0
  3  5  1  0  0  0  0
  4  6  2  0  0  0  0
  4  7  1  0  0  0  0
  5  8  2  0  0  0  0
  5  9  1  0  0  0  0
  6 10  1  0  0  0  0
  6 11  1  0  0  0  0
  7 12  2  0  0  0  0
  8 13  1  0  0  0  0
  9 14  2  0  0  0  0
 10 15  1  0  0  0  0
 11 16  2  0  0  0  0
 13 17  2  0  0  0  0
 15 18  2  0  0  0  0
 15 19  1  0  0  0  0
 17 20  1  0  0  0  0
 19 21  1  0  0  0  0
 19 22  2  0  0  0  0
 20 23  1  0  0  0  0
 20 24  1  0  0  0  0
 21 25  2  0  0  0  0
 22 26  1  0  0  0  0
 23 27  1  0  0  0  0
 24 28  1  0  0  0  0
 25 29  1  0  0  0  0
 26 30  2  0  0  0  0
 27 31  1  0  0  0  0
 29 32  2  0  0  0  0
 30 33  1  0  0  0  0
 31 34  1  0  0  0  0
 32 35  1  0  0  0  0
 34 36  1  0  0  0  0
 36 37  2  0  0  0  0
 36 38  1  0  0  0  0
 37 39  1  0  0  0  0
 38 40  2  0  0  0  0
 39 41  1  0  0  0  0
 39 42  2  0  0  0  0
 41 43  1  0  0  0  0
 42 44  1  0  0  0  0
 44 45  1  0  0  0  0
 12 16  1  0  0  0  0
 14 17  1  0  0  0  0
 26 29  1  0  0  0  0
 28 31  1  0  0  0  0
 33 35  2  0  0  0  0
 40 42  1  0  0  0  0
M  END
>  <MolRegNo>
391711

>  <m>
=

>  <Value>
20200

>  <Unit>
nM

>  <Type>
IC50

>  <pValue>
4.7

>  <Ligand Efficiency>
0

>  <Binding Efficiency>
0

>  <Surface Efficiency>
0

>  <Assay Index>
292412

>  <Assay Category>


>  <Assay Organism>
Homo sapiens

>  <Target ID>
17045

>  <Target Name>
Cytochrome P450 3A4

>  <Target Organism>
Homo sapiens

>  <Target Description>
Target is a single protein chain

>  <Sequence Accession>
P08684

>  <Reference>
Bioorg Med Chem 15 (11), 3854-3868 (2007)

>  <Pubmed ID>
17399990

>  <DOI>
10.1016/j.bmc.2007.03.014

$$$$
391704
Actelion Java MolfileCreator 1.0

 38 41  0  0  0  0  0  0  0  0999 V2000
    0.0000   -0.0000   -0.0000 O   0  0  0  0  0  0  0  0  0  0  0  0
   -0.0119   -1.4935   -0.0000 C   0  0  0  0  0  0  0  0  0  0  0  0
    1.2785   -2.2343   -0.0000 N   0  0  0  0  0  0  0  0  0  0  0  0
   -1.3262   -2.2343   -0.0000 C   0  0  0  0  0  0  0  0  0  0  0  0
    2.5689   -1.4696   -0.0000 C   0  0  0  0  0  0  0  0  0  0  0  0
   -1.3382   -3.7398   -0.0000 C   0  0  0  0  0  0  0  0  0  0  0  0
   -2.6405   -1.4696   -0.0000 C   0  0  0  0  0  0  0  0  0  0  0  0
    3.8593   -2.2104   -0.0000 C   0  0  0  0  0  0  0  0  0  0  0  0
   -0.0478   -4.4806   -0.0000 N   0  0  0  0  0  0  0  0  0  0  0  0
   -2.6644   -4.4806   -0.0000 C   0  0  0  0  0  0  0  0  0  0  0  0
   -3.9548   -2.2104   -0.0000 C   0  0  0  0  0  0  0  0  0  0  0  0
    5.1497   -1.4457   -0.0000 N   0  0  0  0  0  0  0  0  0  0  0  0
   -0.0597   -5.9741   -0.0000 C   0  0  0  0  0  0  0  0  0  0  0  0
   -3.9787   -3.7159   -0.0000 C   0  0  0  0  0  0  0  0  0  0  0  0
    5.1377    0.0717   -0.0000 C   0  0  0  0  0  0  0  0  0  0  0  0
    6.4401   -2.1865   -0.0000 C   0  0  0  0  0  0  0  0  0  0  0  0
   -1.3740   -6.7149   -0.0000 O   0  0  0  0  0  0  0  0  0  0  0  0
    1.2307   -6.7149   -0.0000 C   0  0  0  0  0  0  0  0  0  0  0  0
    6.4281    0.8364   -0.0000 C   0  0  0  0  0  0  0  0  0  0  0  0
    1.2068   -8.2084   -0.0000 C   0  0  0  0  0  0  0  0  0  0  0  0
    2.5091   -5.9382   -0.0000 C   0  0  0  0  0  0  0  0  0  0  0  0
    7.7185    0.0956   -0.0000 C   0  0  0  0  0  0  0  0  0  0  0  0
    2.4972   -8.9492   -0.0000 N   0  0  0  0  0  0  0  0  0  0  0  0
    3.7995   -6.6671   -0.0000 C   0  0  0  0  0  0  0  0  0  0  0  0
    8.9970    0.8722   -0.0000 C   0  0  0  0  0  0  0  0  0  0  0  0
    7.7066   -1.3979   -0.0000 C   0  0  0  0  0  0  0  0  0  0  0  0
    3.7876   -8.1845   -0.0000 C   0  0  0  0  0  0  0  0  0  0  0  0
    5.0899   -5.8905   -0.0000 C   0  0  0  0  0  0  0  0  0  0  0  0
   10.2874    0.1434   -0.0000 C   0  0  0  0  0  0  0  0  0  0  0  0
    8.9970   -2.1387   -0.0000 C   0  0  0  0  0  0  0  0  0  0  0  0
    5.0899   -8.9253   -0.0000 C   0  0  0  0  0  0  0  0  0  0  0  0
    6.3923   -6.6193   -0.0000 C   0  0  0  0  0  0  0  0  0  0  0  0
   11.5778    0.9200   -0.0000 O   0  0  0  0  0  0  0  0  0  0  0  0
   10.2874   -1.3621   -0.0000 C   0  0  0  0  0  0  0  0  0  0  0  0
    6.3803   -8.1487   -0.0000 C   0  0  0  0  0  0  0  0  0  0  0  0
   12.8801    0.1912   -0.0000 C   0  0  0  0  0  0  0  0  0  0  0  0
   11.5897   -2.1029   -0.0000 O   0  0  0  0  0  0  0  0  0  0  0  0
   11.5897   -3.5964   -0.0000 C   0  0  0  0  0  0  0  0  0  0  0  0
  1  2  2  0  0  0  0
  2  3  1  0  0  0  0
  2  4  1  0  0  0  0
  3  5  1  0  0  0  0
  4  6  2  0  0  0  0
  4  7  1  0  0  0  0
  5  8  1  0  0  0  0
  6  9  1  0  0  0  0
  6 10  1  0  0  0  0
  7 11  2  0  0  0  0
  8 12  1  0  0  0  0
  9 13  1  0  0  0  0
 10 14  2  0  0  0  0
 12 15  1  0  0  0  0
 12 16  1  0  0  0  0
 13 17  2  0  0  0  0
 13 18  1  0  0  0  0
 15 19  1  0  0  0  0
 18 20  1  0  0  0  0
 18 21  2  0  0  0  0
 19 22  1  0  0  0  0
 20 23  2  0  0  0  0
 21 24  1  0  0  0  0
 22 25  2  0  0  0  0
 22 26  1  0  0  0  0
 23 27  1  0  0  0  0
 24 28  2  0  0  0  0
 25 29  1  0  0  0  0
 26 30  2  0  0  0  0
 27 31  2  0  0  0  0
 28 32  1  0  0  0  0
 29 33  1  0  0  0  0
 29 34  2  0  0  0  0
 31 35  1  0  0  0  0
 33 36  1  0  0  0  0
 34 37  1  0  0  0  0
 37 38  1  0  0  0  0
 11 14  1  0  0  0  0
 24 27  1  0  0  0  0
 30 34  1  0  0  0  0
 32 35  2  0  0  0  0
M  END
>  <MolRegNo>
391704

>  <m>
=

>  <Value>
1620

>  <Unit>
nM

>  <Type>
IC50

>  <pValue>
5.79

>  <Ligand Efficiency>
0

>  <Binding Efficiency>
0

>  <Surface Efficiency>
0

>  <Assay Index>
292412

>  <Assay Category>


>  <Assay Organism>
Homo sapiens

>  <Target ID>
17045

>  <Target Name>
Cytochrome P450 3A4

>  <Target Organism>
Homo sapiens

>  <Target Description>
Target is a single protein chain

>  <Sequence Accession>
P08684

>  <Reference>
Bioorg Med Chem 15 (11), 3854-3868 (2007)

>  <Pubmed ID>
17399990

>  <DOI>
10.1016/j.bmc.2007.03.014

$$$$
392064
Actelion Java MolfileCreator 1.0

 15 17  0  0  0  0  0  0  0  0999 V2000
    0.0000   -0.0000   -0.0000 O   0  0  0  0  0  0  0  0  0  0  0  0
   -1.3098   -0.7316   -0.0000 C   0  0  0  0  0  0  0  0  0  0  0  0
   -2.6197    0.0354   -0.0000 O   0  0  0  0  0  0  0  0  0  0  0  0
   -1.3216   -2.2184   -0.0000 C   0  0  0  0  0  0  0  0  0  0  0  0
   -3.9177   -0.7080   -0.0000 C   0  0  0  0  0  0  0  0  0  0  0  0
   -2.6315   -2.9501   -0.0000 C   0  0  0  0  0  0  0  0  0  0  0  0
   -3.9295   -2.1948   -0.0000 C   0  0  0  0  0  0  0  0  0  0  0  0
   -5.2275    0.0472   -0.0000 C   0  0  0  0  0  0  0  0  0  0  0  0
   -5.2393   -2.9383   -0.0000 C   0  0  0  0  0  0  0  0  0  0  0  0
   -6.5255   -0.6844   -0.0000 C   0  0  0  0  0  0  0  0  0  0  0  0
   -5.2511   -4.4133   -0.0000 O   0  0  0  0  0  0  0  0  0  0  0  0
   -6.5373   -2.1830   -0.0000 C   0  0  0  0  0  0  0  0  0  0  0  0
   -7.9652   -0.2124   -0.0000 O   0  0  0  0  0  0  0  0  0  0  0  0
   -7.9770   -2.6433   -0.0000 C   0  0  0  0  0  0  0  0  0  0  0  0
   -8.8502   -1.4160   -0.0000 C   0  0  0  0  0  0  0  0  0  0  0  0
  1  2  2  0  0  0  0
  2  3  1  0  0  0  0
  2  4  1  0  0  0  0
  3  5  1  0  0  0  0
  4  6  2  0  0  0  0
  5  7  2  0  0  0  0
  5  8  1  0  0  0  0
  7  9  1  0  0  0  0
  8 10  2  0  0  0  0
  9 11  1  0  0  0  0
  9 12  2  0  0  0  0
 10 13  1  0  0  0  0
 12 14  1  0  0  0  0
 13 15  1  0  0  0  0
  6  7  1  0  0  0  0
 10 12  1  0  0  0  0
 14 15  2  0  0  0  0
M  END
>  <MolRegNo>
392064

>  <m>
=

>  <Value>
24920

>  <Unit>
nM

>  <Type>
IC50

>  <pValue>
4.6

>  <Ligand Efficiency>
0

>  <Binding Efficiency>
0

>  <Surface Efficiency>
0

>  <Assay Index>
292497

>  <Assay Category>


>  <Assay Organism>
Homo sapiens

>  <Target ID>
17045

>  <Target Name>
Cytochrome P450 3A4

>  <Target Organism>
Homo sapiens

>  <Target Description>
Target is a single protein chain

>  <Sequence Accession>
P08684

>  <Reference>
Bioorg Med Chem 15 (11), 3684-3691 (2007)

>  <Pubmed ID>
17400460

>  <DOI>
10.1016/j.bmc.2007.03.047

$$$$
392066
Actelion Java MolfileCreator 1.0

 22 23  0  0  0  0  0  0  0  0999 V2000
    0.0000   -0.0000   -0.0000 O   0  0  0  0  0  0  0  0  0  0  0  0
    1.2974   -0.7380   -0.0000 C   0  0  0  0  0  0  0  0  0  0  0  0
    2.5947    0.0357   -0.0000 O   0  0  0  0  0  0  0  0  0  0  0  0
    1.2855   -2.2377   -0.0000 C   0  0  0  0  0  0  0  0  0  0  0  0
    3.8921   -0.7142   -0.0000 C   0  0  0  0  0  0  0  0  0  0  0  0
    2.5828   -2.9756   -0.0000 C   0  0  0  0  0  0  0  0  0  0  0  0
    3.8683   -2.2139   -0.0000 C   0  0  0  0  0  0  0  0  0  0  0  0
    5.1895    0.0476   -0.0000 C   0  0  0  0  0  0  0  0  0  0  0  0
    5.1538   -2.9637   -0.0000 C   0  0  0  0  0  0  0  0  0  0  0  0
    6.4869   -0.7022   -0.0000 C   0  0  0  0  0  0  0  0  0  0  0  0
    6.4512   -2.2020   -0.0000 C   0  0  0  0  0  0  0  0  0  0  0  0
    7.7842    0.0595   -0.0000 O   0  0  0  0  0  0  0  0  0  0  0  0
    9.0816   -0.6903   -0.0000 C   0  0  0  0  0  0  0  0  0  0  0  0
   10.3790    0.0714   -0.0000 C   0  0  0  0  0  0  0  0  0  0  0  0
   11.6764   -0.6784   -0.0000 C   0  0  0  0  0  0  0  0  0  0  0  0
   12.9737    0.0833   -0.0000 C   0  0  0  0  0  0  0  0  0  0  0  0
   11.6526   -2.1782   -0.0000 C   0  0  0  0  0  0  0  0  0  0  0  0
   14.2711   -0.6665   -0.0000 C   0  0  0  0  0  0  0  0  0  0  0  0
   15.5685    0.0952   -0.0000 C   0  0  0  0  0  0  0  0  0  0  0  0
   16.8659   -0.6546   -0.0000 C   0  0  0  0  0  0  0  0  0  0  0  0
   18.1632    0.1071   -0.0000 C   0  0  0  0  0  0  0  0  0  0  0  0
   16.8421   -2.1544   -0.0000 C   0  0  0  0  0  0  0  0  0  0  0  0
  1  2  2  0  0  0  0
  2  3  1  0  0  0  0
  2  4  1  0  0  0  0
  3  5  1  0  0  0  0
  4  6  2  0  0  0  0
  5  7  2  0  0  0  0
  5  8  1  0  0  0  0
  7  9  1  0  0  0  0
  8 10  2  0  0  0  0
  9 11  2  0  0  0  0
 10 12  1  0  0  0  0
 12 13  1  0  0  0  0
 13 14  1  0  0  0  0
 14 15  2  0  0  0  0
 15 16  1  0  0  0  0
 15 17  1  0  0  0  0
 16 18  1  0  0  0  0
 18 19  2  0  0  0  0
 19 20  1  0  0  0  0
 20 21  1  0  0  0  0
 20 22  1  0  0  0  0
  6  7  1  0  0  0  0
 10 11  1  0  0  0  0
M  END
>  <MolRegNo>
392066

>  <m>
=

>  <Value>
42930

>  <Unit>
nM

>  <Type>
IC50

>  <pValue>
4.37

>  <Ligand Efficiency>
0

>  <Binding Efficiency>
0

>  <Surface Efficiency>
0

>  <Assay Index>
292497

>  <Assay Category>


>  <Assay Organism>
Homo sapiens

>  <Target ID>
17045

>  <Target Name>
Cytochrome P450 3A4

>  <Target Organism>
Homo sapiens

>  <Target Description>
Target is a single protein chain

>  <Sequence Accession>
P08684

>  <Reference>
Bioorg Med Chem 15 (11), 3684-3691 (2007)

>  <Pubmed ID>
17400460

>  <DOI>
10.1016/j.bmc.2007.03.047

$$$$
549472
Actelion Java MolfileCreator 1.0

 39 42  0  0  0  0  0  0  0  0999 V2000
    0.0000   -0.0000   -0.0000 Cl  0  0  0  0  0  0  0  0  0  0  0  0
   -5.2911   -7.7477   -0.0000 O   0  0  0  0  0  0  0  0  0  0  0  0
   -4.5706   -6.4367   -0.0000 C   0  0  0  0  0  0  0  0  0  0  0  0
   -3.0943   -6.4131   -0.0000 N   0  0  0  0  0  0  0  0  0  0  0  0
   -5.3383   -5.1376   -0.0000 C   0  0  0  0  0  0  0  0  0  0  0  0
   -2.3621   -5.1021   -0.0000 C   0  0  0  0  0  0  0  0  0  0  0  0
   -4.6179   -3.8266   -0.0000 N   0  0  0  0  0  0  0  0  0  0  0  0
   -6.1060   -3.8384   -0.0000 C   0  0  0  0  0  0  0  0  0  0  0  0
   -6.1060   -6.4249   -0.0000 C   0  0  0  0  0  0  0  0  0  0  0  0
   -3.1298   -3.8030   -0.0000 C   0  0  0  0  0  0  0  0  0  0  0  0
   -0.8740   -5.0785   -0.0000 C   0  0  0  0  0  0  0  0  0  0  0  0
   -5.3974   -2.5274   -0.0000 C   0  0  0  0  0  0  0  0  0  0  0  0
   -7.6177   -3.8384   -0.0000 C   0  0  0  0  0  0  0  0  0  0  0  0
   -7.6177   -6.4249   -0.0000 C   0  0  0  0  0  0  0  0  0  0  0  0
   -2.4093   -2.4920   -0.0000 O   0  0  0  0  0  0  0  0  0  0  0  0
   -0.1299   -6.3540   -0.0000 C   0  0  0  0  0  0  0  0  0  0  0  0
   -4.6769   -1.2165   -0.0000 C   0  0  0  0  0  0  0  0  0  0  0  0
   -8.3618   -5.1257   -0.0000 N   0  0  0  0  0  0  0  0  0  0  0  0
   -0.8858   -7.6414   -0.0000 C   0  0  0  0  0  0  0  0  0  0  0  0
    1.3464   -6.3186   -0.0000 C   0  0  0  0  0  0  0  0  0  0  0  0
   -5.4564    0.0827   -0.0000 C   0  0  0  0  0  0  0  0  0  0  0  0
   -9.8735   -5.1139   -0.0000 C   0  0  0  0  0  0  0  0  0  0  0  0
   -0.1417   -8.9169   -0.0000 C   0  0  0  0  0  0  0  0  0  0  0  0
    2.0905   -7.6059   -0.0000 C   0  0  0  0  0  0  0  0  0  0  0  0
   -4.7360    1.3936   -0.0000 C   0  0  0  0  0  0  0  0  0  0  0  0
  -10.6176   -3.8030   -0.0000 C   0  0  0  0  0  0  0  0  0  0  0  0
    1.3464   -8.9051   -0.0000 C   0  0  0  0  0  0  0  0  0  0  0  0
   -9.8617   -2.5038   -0.0000 C   0  0  0  0  0  0  0  0  0  0  0  0
  -12.1175   -3.7793   -0.0000 C   0  0  0  0  0  0  0  0  0  0  0  0
  -10.6058   -1.1929   -0.0000 C   0  0  0  0  0  0  0  0  0  0  0  0
  -12.8734   -2.4684   -0.0000 C   0  0  0  0  0  0  0  0  0  0  0  0
  -12.1175   -1.1692   -0.0000 C   0  0  0  0  0  0  0  0  0  0  0  0
  -12.8616    0.1535   -0.0000 O   0  0  0  0  0  0  0  0  0  0  0  0
  -14.3733    0.1653   -0.0000 C   0  0  0  0  0  0  0  0  0  0  0  0
  -15.1292    1.4763   -0.0000 C   0  0  0  0  0  0  0  0  0  0  0  0
  -15.1056   -1.1102   -0.0000 C   0  0  0  0  0  0  0  0  0  0  0  0
  -16.6291    1.4881   -0.0000 C   0  0  0  0  0  0  0  0  0  0  0  0
  -16.6173   -1.1102   -0.0000 C   0  0  0  0  0  0  0  0  0  0  0  0
  -17.3968    0.2008   -0.0000 C   0  0  0  0  0  0  0  0  0  0  0  0
  2  3  2  0  0  0  0
  3  4  1  0  0  0  0
  3  5  1  0  0  0  0
  4  6  1  0  0  0  0
  5  7  1  0  0  0  0
  5  8  1  0  0  0  0
  5  9  1  0  0  0  0
  6 10  1  0  0  0  0
  6 11  1  0  0  0  0
  7 12  1  0  0  0  0
  8 13  1  0  0  0  0
  9 14  1  0  0  0  0
 10 15  2  0  0  0  0
 11 16  1  0  0  0  0
 12 17  1  0  0  0  0
 13 18  1  0  0  0  0
 16 19  1  0  0  0  0
 16 20  1  0  0  0  0
 17 21  1  0  0  0  0
 18 22  1  0  0  0  0
 19 23  1  0  0  0  0
 20 24  1  0  0  0  0
 21 25  1  0  0  0  0
 22 26  1  0  0  0  0
 23 27  1  0  0  0  0
 26 28  2  0  0  0  0
 26 29  1  0  0  0  0
 28 30  1  0  0  0  0
 29 31  2  0  0  0  0
 30 32  2  0  0  0  0
 32 33  1  0  0  0  0
 33 34  1  0  0  0  0
 34 35  2  0  0  0  0
 34 36  1  0  0  0  0
 35 37  1  0  0  0  0
 36 38  2  0  0  0  0
 37 39  2  0  0  0  0
  7 10  1  0  0  0  0
 14 18  1  0  0  0  0
 24 27  1  0  0  0  0
 31 32  1  0  0  0  0
 38 39  1  0  0  0  0
M  END
>  <MolRegNo>
549472

>  <m>
=

>  <Value>
9300

>  <Unit>
nM

>  <Type>
IC50

>  <pValue>
5.03

>  <Ligand Efficiency>
0

>  <Binding Efficiency>
0

>  <Surface Efficiency>
0

>  <Assay Index>
289888

>  <Assay Category>


>  <Assay Organism>


>  <Target ID>
17045

>  <Target Name>
Cytochrome P450 3A4

>  <Target Organism>
Homo sapiens

>  <Target Description>
Target is a single protein chain

>  <Sequence Accession>
P08684

>  <Reference>
Bioorg Med Chem Lett 17 (3), 727-731 (2007)

>  <Pubmed ID>
17118654

>  <DOI>
10.1016/j.bmcl.2006.10.084

$$$$
405863
Actelion Java MolfileCreator 1.0

 37 40  0  0  1  0  0  0  0  0999 V2000
    0.0000   -0.0000   -0.0000 F   0  0  0  0  0  0  0  0  0  0  0  0
   -0.0118    1.5036   -0.0000 C   0  0  0  0  0  0  0  0  0  0  0  0
    1.2668    2.2732   -0.0000 C   0  0  0  0  0  0  0  0  0  0  0  0
   -1.3142    2.2732   -0.0000 C   0  0  0  0  0  0  0  0  0  0  0  0
    1.2550    3.7886   -0.0000 C   0  0  0  0  0  0  0  0  0  0  0  0
   -1.3260    3.7767   -0.0000 C   0  0  0  0  0  0  0  0  0  0  0  0
    2.5455    4.5463   -0.0000 F   0  0  0  0  0  0  0  0  0  0  0  0
   -0.0474    4.5345   -0.0000 C   0  0  0  0  0  0  0  0  0  0  0  0
   -2.6283    4.5226   -0.0000 C   0  0  0  0  0  0  0  0  0  0  0  0
   -3.9307    3.7886   -0.0000 O   0  0  0  0  0  0  0  0  0  0  0  0
   -2.6402    6.0262   -0.0000 C   0  0  0  0  0  0  0  0  0  0  0  0
   -2.6520    3.0427   -0.0000 C   0  0  0  0  0  0  0  0  0  0  0  0
   -5.2330    4.5345   -0.0000 C   0  0  0  0  0  0  0  0  0  0  0  0
   -1.3615    6.7839   -0.0000 O   0  0  0  0  0  0  0  0  0  0  0  0
   -3.9543    6.7839   -0.0000 N   0  0  0  0  0  0  0  0  0  0  0  0
   -5.2448    6.0381   -0.0000 C   0  0  0  0  0  0  0  0  0  0  0  0
   -6.5353    3.7886   -0.0000 C   0  0  0  0  0  0  0  0  0  0  0  0
   -3.9662    8.2875   -0.0000 C   0  0  0  0  0  0  0  0  0  0  0  0
   -6.5471    6.7958   -0.0000 C   0  0  0  0  0  0  0  0  0  0  0  0
   -7.8376    4.5463   -0.0000 C   0  0  0  0  0  0  0  0  0  0  0  0
   -2.6875    9.0571   -0.0000 C   0  0  0  0  0  0  0  0  0  0  0  0
   -7.8376    6.0499   -0.0000 C   0  0  0  0  0  0  0  0  0  0  0  0
   -2.6994   10.5607   -0.0000 C   0  0  0  0  0  0  0  0  0  0  0  0
   -9.1400    6.8076   -0.0000 C   0  0  0  0  0  0  0  0  0  0  0  0
   -1.4207   11.3184   -0.0000 C   0  0  0  0  0  0  0  0  0  0  0  0
   -9.1518    8.3230   -0.0000 C   0  0  0  0  0  0  0  0  0  0  0  0
  -10.4541    6.0617   -0.0000 C   0  0  0  0  0  0  0  0  0  0  0  0
   -0.1539   12.0879   -0.0000 F   0  0  0  0  0  0  0  0  0  0  0  0
   -0.6748   10.0397   -0.0000 F   0  0  0  0  0  0  0  0  0  0  0  0
   -2.1903   12.6207   -0.0000 F   0  0  0  0  0  0  0  0  0  0  0  0
  -10.4660    9.0808   -0.0000 N   0  0  0  0  0  0  0  0  0  0  0  0
   -7.8732    9.0926   -0.0000 N   0  0  0  0  0  0  0  0  0  0  0  0
  -11.7564    6.8313   -0.0000 N   0  0  0  0  0  0  0  0  0  0  0  0
  -10.4660    4.5818   -0.0000 C   0  0  0  0  0  0  0  0  0  0  0  0
  -11.7683    8.3349   -0.0000 C   0  0  0  0  0  0  0  0  0  0  0  0
  -11.7683    3.8478   -0.0000 C   0  0  0  0  0  0  0  0  0  0  0  0
  -13.0706    9.0926   -0.0000 N   0  0  0  0  0  0  0  0  0  0  0  0
  1  2  1  0  0  0  0
  2  3  2  0  0  0  0
  2  4  1  0  0  0  0
  3  5  1  0  0  0  0
  4  6  2  0  0  0  0
  5  7  1  0  0  0  0
  5  8  2  0  0  0  0
  6  9  1  0  0  0  0
  9 10  1  0  0  0  0
  9 11  1  0  0  0  0
  9 12  1  1  0  0  0
 10 13  1  0  0  0  0
 11 14  2  0  0  0  0
 11 15  1  0  0  0  0
 13 16  2  0  0  0  0
 13 17  1  0  0  0  0
 15 18  1  0  0  0  0
 16 19  1  0  0  0  0
 17 20  2  0  0  0  0
 18 21  1  0  0  0  0
 19 22  2  0  0  0  0
 21 23  1  0  0  0  0
 22 24  1  0  0  0  0
 23 25  1  0  0  0  0
 24 26  2  0  0  0  0
 24 27  1  0  0  0  0
 25 28  1  0  0  0  0
 25 29  1  0  0  0  0
 25 30  1  0  0  0  0
 26 31  1  0  0  0  0
 26 32  1  0  0  0  0
 27 33  2  0  0  0  0
 27 34  1  0  0  0  0
 31 35  2  0  0  0  0
 34 36  1  0  0  0  0
 35 37  1  0  0  0  0
  6  8  1  0  0  0  0
 15 16  1  0  0  0  0
 20 22  1  0  0  0  0
 33 35  1  0  0  0  0
M  END
>  <MolRegNo>
405863

>  <m>
=

>  <Value>
1700

>  <Unit>
nM

>  <Type>
IC50

>  <pValue>
5.77

>  <Ligand Efficiency>
0

>  <Binding Efficiency>
0

>  <Surface Efficiency>
0

>  <Assay Index>
297170

>  <Assay Category>


>  <Assay Organism>


>  <Target ID>
17045

>  <Target Name>
Cytochrome P450 3A4

>  <Target Organism>
Homo sapiens

>  <Target Description>
Target is a single protein chain

>  <Sequence Accession>
P08684

>  <Reference>
Bioorg Med Chem 15 (17), 5912-5949 (2007)

>  <Pubmed ID>
17574423

>  <DOI>
10.1016/j.bmc.2007.05.069

$$$$
405854
Actelion Java MolfileCreator 1.0

 36 39  0  0  0  0  0  0  0  0999 V2000
    0.0000   -0.0000   -0.0000 F   0  0  0  0  0  0  0  0  0  0  0  0
   -0.0118    1.5047   -0.0000 C   0  0  0  0  0  0  0  0  0  0  0  0
    1.2677    2.2630   -0.0000 C   0  0  0  0  0  0  0  0  0  0  0  0
   -1.3151    2.2630   -0.0000 C   0  0  0  0  0  0  0  0  0  0  0  0
    1.2559    3.7795   -0.0000 C   0  0  0  0  0  0  0  0  0  0  0  0
   -1.3270    3.7677   -0.0000 C   0  0  0  0  0  0  0  0  0  0  0  0
    2.5355    4.5378   -0.0000 F   0  0  0  0  0  0  0  0  0  0  0  0
   -0.0474    4.5378   -0.0000 C   0  0  0  0  0  0  0  0  0  0  0  0
   -2.6302    4.5259   -0.0000 C   0  0  0  0  0  0  0  0  0  0  0  0
   -3.9335    3.7913   -0.0000 O   0  0  0  0  0  0  0  0  0  0  0  0
   -2.6421    6.0306   -0.0000 C   0  0  0  0  0  0  0  0  0  0  0  0
   -2.6539    3.0449   -0.0000 C   0  0  0  0  0  0  0  0  0  0  0  0
   -5.2368    4.5496   -0.0000 C   0  0  0  0  0  0  0  0  0  0  0  0
   -1.3625    6.7889   -0.0000 O   0  0  0  0  0  0  0  0  0  0  0  0
   -3.9454    6.7889   -0.0000 N   0  0  0  0  0  0  0  0  0  0  0  0
   -5.2486    6.0543   -0.0000 C   0  0  0  0  0  0  0  0  0  0  0  0
   -6.5401    3.8032   -0.0000 C   0  0  0  0  0  0  0  0  0  0  0  0
   -3.9572    8.2936   -0.0000 C   0  0  0  0  0  0  0  0  0  0  0  0
   -6.5519    6.8007   -0.0000 C   0  0  0  0  0  0  0  0  0  0  0  0
   -7.8434    4.5615   -0.0000 C   0  0  0  0  0  0  0  0  0  0  0  0
   -2.6776    9.0518   -0.0000 C   0  0  0  0  0  0  0  0  0  0  0  0
   -7.8434    6.0662   -0.0000 C   0  0  0  0  0  0  0  0  0  0  0  0
   -2.6895   10.5565   -0.0000 C   0  0  0  0  0  0  0  0  0  0  0  0
   -9.1466    6.8126   -0.0000 C   0  0  0  0  0  0  0  0  0  0  0  0
   -1.4099   11.3267   -0.0000 O   0  0  0  0  0  0  0  0  0  0  0  0
   -9.1585    8.3291   -0.0000 C   0  0  0  0  0  0  0  0  0  0  0  0
  -10.4617    6.0780   -0.0000 C   0  0  0  0  0  0  0  0  0  0  0  0
   -1.4218   12.8195   -0.0000 C   0  0  0  0  0  0  0  0  0  0  0  0
  -10.4736    9.0755   -0.0000 N   0  0  0  0  0  0  0  0  0  0  0  0
   -7.8789    9.0874   -0.0000 N   0  0  0  0  0  0  0  0  0  0  0  0
  -11.7650    6.8363   -0.0000 N   0  0  0  0  0  0  0  0  0  0  0  0
  -10.4736    4.5970   -0.0000 C   0  0  0  0  0  0  0  0  0  0  0  0
   -0.1422   13.5896   -0.0000 C   0  0  0  0  0  0  0  0  0  0  0  0
  -11.7769    8.3410   -0.0000 C   0  0  0  0  0  0  0  0  0  0  0  0
  -11.7769    3.8624   -0.0000 C   0  0  0  0  0  0  0  0  0  0  0  0
  -13.0801    9.0992   -0.0000 N   0  0  0  0  0  0  0  0  0  0  0  0
  1  2  1  0  0  0  0
  2  3  2  0  0  0  0
  2  4  1  0  0  0  0
  3  5  1  0  0  0  0
  4  6  2  0  0  0  0
  5  7  1  0  0  0  0
  5  8  2  0  0  0  0
  6  9  1  0  0  0  0
  9 10  1  0  0  0  0
  9 11  1  0  0  0  0
  9 12  1  0  0  0  0
 10 13  1  0  0  0  0
 11 14  2  0  0  0  0
 11 15  1  0  0  0  0
 13 16  2  0  0  0  0
 13 17  1  0  0  0  0
 15 18  1  0  0  0  0
 16 19  1  0  0  0  0
 17 20  2  0  0  0  0
 18 21  1  0  0  0  0
 19 22  2  0  0  0  0
 21 23  1  0  0  0  0
 22 24  1  0  0  0  0
 23 25  1  0  0  0  0
 24 26  2  0  0  0  0
 24 27  1  0  0  0  0
 25 28  1  0  0  0  0
 26 29  1  0  0  0  0
 26 30  1  0  0  0  0
 27 31  2  0  0  0  0
 27 32  1  0  0  0  0
 28 33  1  0  0  0  0
 29 34  2  0  0  0  0
 32 35  1  0  0  0  0
 34 36  1  0  0  0  0
  6  8  1  0  0  0  0
 15 16  1  0  0  0  0
 20 22  1  0  0  0  0
 31 34  1  0  0  0  0
M  END
>  <MolRegNo>
405854

>  <m>
=

>  <Value>
1060

>  <Unit>
nM

>  <Type>
IC50

>  <pValue>
5.97

>  <Ligand Efficiency>
0

>  <Binding Efficiency>
0

>  <Surface Efficiency>
0

>  <Assay Index>
297170

>  <Assay Category>


>  <Assay Organism>


>  <Target ID>
17045

>  <Target Name>
Cytochrome P450 3A4

>  <Target Organism>
Homo sapiens

>  <Target Description>
Target is a single protein chain

>  <Sequence Accession>
P08684

>  <Reference>
Bioorg Med Chem 15 (17), 5912-5949 (2007)

>  <Pubmed ID>
17574423

>  <DOI>
10.1016/j.bmc.2007.05.069

$$$$
405851
Actelion Java MolfileCreator 1.0

 38 41  0  0  0  0  0  0  0  0999 V2000
    0.0000   -0.0000   -0.0000 F   0  0  0  0  0  0  0  0  0  0  0  0
   -0.0118    1.5034   -0.0000 C   0  0  0  0  0  0  0  0  0  0  0  0
    1.2667    2.2611   -0.0000 C   0  0  0  0  0  0  0  0  0  0  0  0
   -1.3140    2.2611   -0.0000 C   0  0  0  0  0  0  0  0  0  0  0  0
    1.2548    3.7764   -0.0000 C   0  0  0  0  0  0  0  0  0  0  0  0
   -1.3259    3.7645   -0.0000 C   0  0  0  0  0  0  0  0  0  0  0  0
    2.5334    4.5459   -0.0000 F   0  0  0  0  0  0  0  0  0  0  0  0
   -0.0474    4.5340   -0.0000 C   0  0  0  0  0  0  0  0  0  0  0  0
   -2.6281    4.5222   -0.0000 C   0  0  0  0  0  0  0  0  0  0  0  0
   -3.9303    3.7882   -0.0000 O   0  0  0  0  0  0  0  0  0  0  0  0
   -2.6399    6.0256   -0.0000 C   0  0  0  0  0  0  0  0  0  0  0  0
   -2.6517    3.0424   -0.0000 C   0  0  0  0  0  0  0  0  0  0  0  0
   -5.2325    4.5459   -0.0000 C   0  0  0  0  0  0  0  0  0  0  0  0
   -1.3614    6.7833   -0.0000 O   0  0  0  0  0  0  0  0  0  0  0  0
   -3.9421    6.7833   -0.0000 N   0  0  0  0  0  0  0  0  0  0  0  0
   -5.2443    6.0493   -0.0000 C   0  0  0  0  0  0  0  0  0  0  0  0
   -6.5347    3.8001   -0.0000 C   0  0  0  0  0  0  0  0  0  0  0  0
   -3.9539    8.2867   -0.0000 C   0  0  0  0  0  0  0  0  0  0  0  0
   -6.5465    6.7951   -0.0000 C   0  0  0  0  0  0  0  0  0  0  0  0
   -7.8369    4.5577   -0.0000 C   0  0  0  0  0  0  0  0  0  0  0  0
   -2.6754    9.0444   -0.0000 C   0  0  0  0  0  0  0  0  0  0  0  0
   -7.8369    6.0611   -0.0000 C   0  0  0  0  0  0  0  0  0  0  0  0
   -2.6873   10.5478   -0.0000 C   0  0  0  0  0  0  0  0  0  0  0  0
   -9.1391    6.8069   -0.0000 C   0  0  0  0  0  0  0  0  0  0  0  0
   -1.4087   11.3173   -0.0000 O   0  0  0  0  0  0  0  0  0  0  0  0
   -9.1509    8.3222   -0.0000 C   0  0  0  0  0  0  0  0  0  0  0  0
  -10.4531    6.0730   -0.0000 C   0  0  0  0  0  0  0  0  0  0  0  0
   -1.4206   12.8207   -0.0000 C   0  0  0  0  0  0  0  0  0  0  0  0
  -10.4649    9.0799   -0.0000 N   0  0  0  0  0  0  0  0  0  0  0  0
   -7.8724    9.0917   -0.0000 N   0  0  0  0  0  0  0  0  0  0  0  0
  -11.7553    6.8306   -0.0000 N   0  0  0  0  0  0  0  0  0  0  0  0
  -10.4649    4.5932   -0.0000 C   0  0  0  0  0  0  0  0  0  0  0  0
   -1.4443   14.3360   -0.0000 F   0  0  0  0  0  0  0  0  0  0  0  0
    0.0592   12.8444   -0.0000 F   0  0  0  0  0  0  0  0  0  0  0  0
   -2.9240   12.8207   -0.0000 F   0  0  0  0  0  0  0  0  0  0  0  0
  -11.7671    8.3459   -0.0000 C   0  0  0  0  0  0  0  0  0  0  0  0
  -11.7671    3.8592   -0.0000 C   0  0  0  0  0  0  0  0  0  0  0  0
  -13.0693    9.1036   -0.0000 N   0  0  0  0  0  0  0  0  0  0  0  0
  1  2  1  0  0  0  0
  2  3  2  0  0  0  0
  2  4  1  0  0  0  0
  3  5  1  0  0  0  0
  4  6  2  0  0  0  0
  5  7  1  0  0  0  0
  5  8  2  0  0  0  0
  6  9  1  0  0  0  0
  9 10  1  0  0  0  0
  9 11  1  0  0  0  0
  9 12  1  0  0  0  0
 10 13  1  0  0  0  0
 11 14  2  0  0  0  0
 11 15  1  0  0  0  0
 13 16  2  0  0  0  0
 13 17  1  0  0  0  0
 15 18  1  0  0  0  0
 16 19  1  0  0  0  0
 17 20  2  0  0  0  0
 18 21  1  0  0  0  0
 19 22  2  0  0  0  0
 21 23  1  0  0  0  0
 22 24  1  0  0  0  0
 23 25  1  0  0  0  0
 24 26  2  0  0  0  0
 24 27  1  0  0  0  0
 25 28  1  0  0  0  0
 26 29  1  0  0  0  0
 26 30  1  0  0  0  0
 27 31  2  0  0  0  0
 27 32  1  0  0  0  0
 28 33  1  0  0  0  0
 28 34  1  0  0  0  0
 28 35  1  0  0  0  0
 29 36  2  0  0  0  0
 32 37  1  0  0  0  0
 36 38  1  0  0  0  0
  6  8  1  0  0  0  0
 15 16  1  0  0  0  0
 20 22  1  0  0  0  0
 31 36  1  0  0  0  0
M  END
>  <MolRegNo>
405851

>  <m>
=

>  <Value>
270

>  <Unit>
nM

>  <Type>
IC50

>  <pValue>
6.57

>  <Ligand Efficiency>
0

>  <Binding Efficiency>
0

>  <Surface Efficiency>
0

>  <Assay Index>
297170

>  <Assay Category>


>  <Assay Organism>


>  <Target ID>
17045

>  <Target Name>
Cytochrome P450 3A4

>  <Target Organism>
Homo sapiens

>  <Target Description>
Target is a single protein chain

>  <Sequence Accession>
P08684

>  <Reference>
Bioorg Med Chem 15 (17), 5912-5949 (2007)

>  <Pubmed ID>
17574423

>  <DOI>
10.1016/j.bmc.2007.05.069

$$$$
405846
Actelion Java MolfileCreator 1.0

 37 40  0  0  0  0  0  0  0  0999 V2000
    0.0000   -0.0000   -0.0000 F   0  0  0  0  0  0  0  0  0  0  0  0
   -0.0119    1.5053   -0.0000 C   0  0  0  0  0  0  0  0  0  0  0  0
    1.2683    2.2639   -0.0000 C   0  0  0  0  0  0  0  0  0  0  0  0
   -1.3157    2.2639   -0.0000 C   0  0  0  0  0  0  0  0  0  0  0  0
    1.2564    3.7810   -0.0000 C   0  0  0  0  0  0  0  0  0  0  0  0
   -1.3275    3.7692   -0.0000 C   0  0  0  0  0  0  0  0  0  0  0  0
    2.5365    4.5396   -0.0000 F   0  0  0  0  0  0  0  0  0  0  0  0
   -0.0474    4.5396   -0.0000 C   0  0  0  0  0  0  0  0  0  0  0  0
   -2.6313    4.5278   -0.0000 C   0  0  0  0  0  0  0  0  0  0  0  0
   -3.9351    3.7929   -0.0000 O   0  0  0  0  0  0  0  0  0  0  0  0
   -2.6432    6.0331   -0.0000 C   0  0  0  0  0  0  0  0  0  0  0  0
   -2.6550    3.0462   -0.0000 C   0  0  0  0  0  0  0  0  0  0  0  0
   -5.2389    4.5515   -0.0000 C   0  0  0  0  0  0  0  0  0  0  0  0
   -1.3631    6.7917   -0.0000 O   0  0  0  0  0  0  0  0  0  0  0  0
   -3.9470    6.7917   -0.0000 N   0  0  0  0  0  0  0  0  0  0  0  0
   -5.2508    6.0568   -0.0000 C   0  0  0  0  0  0  0  0  0  0  0  0
   -6.5428    3.8048   -0.0000 C   0  0  0  0  0  0  0  0  0  0  0  0
   -3.9588    8.2970   -0.0000 C   0  0  0  0  0  0  0  0  0  0  0  0
   -6.5546    6.8035   -0.0000 C   0  0  0  0  0  0  0  0  0  0  0  0
   -7.8466    4.5633   -0.0000 C   0  0  0  0  0  0  0  0  0  0  0  0
   -2.6787    9.0555   -0.0000 C   0  0  0  0  0  0  0  0  0  0  0  0
   -7.8466    6.0686   -0.0000 C   0  0  0  0  0  0  0  0  0  0  0  0
   -2.6906   10.5609   -0.0000 N   0  0  0  0  0  0  0  0  0  0  0  0
   -9.1504    6.8154   -0.0000 C   0  0  0  0  0  0  0  0  0  0  0  0
   -1.4105   11.3313   -0.0000 C   0  0  0  0  0  0  0  0  0  0  0  0
   -9.1622    8.3325   -0.0000 C   0  0  0  0  0  0  0  0  0  0  0  0
  -10.4660    6.0805   -0.0000 C   0  0  0  0  0  0  0  0  0  0  0  0
   -0.1304   10.5964   -0.0000 O   0  0  0  0  0  0  0  0  0  0  0  0
   -1.4223   12.8247   -0.0000 O   0  0  0  0  0  0  0  0  0  0  0  0
  -10.4779    9.0793   -0.0000 N   0  0  0  0  0  0  0  0  0  0  0  0
   -7.8821    9.0911   -0.0000 N   0  0  0  0  0  0  0  0  0  0  0  0
  -11.7698    6.8391   -0.0000 N   0  0  0  0  0  0  0  0  0  0  0  0
  -10.4779    4.5989   -0.0000 C   0  0  0  0  0  0  0  0  0  0  0  0
   -0.1422   13.5952   -0.0000 C   0  0  0  0  0  0  0  0  0  0  0  0
  -11.7817    8.3444   -0.0000 C   0  0  0  0  0  0  0  0  0  0  0  0
  -11.7817    3.8640   -0.0000 C   0  0  0  0  0  0  0  0  0  0  0  0
  -13.0855    9.1030   -0.0000 N   0  0  0  0  0  0  0  0  0  0  0  0
  1  2  1  0  0  0  0
  2  3  2  0  0  0  0
  2  4  1  0  0  0  0
  3  5  1  0  0  0  0
  4  6  2  0  0  0  0
  5  7  1  0  0  0  0
  5  8  2  0  0  0  0
  6  9  1  0  0  0  0
  9 10  1  0  0  0  0
  9 11  1  0  0  0  0
  9 12  1  0  0  0  0
 10 13  1  0  0  0  0
 11 14  2  0  0  0  0
 11 15  1  0  0  0  0
 13 16  2  0  0  0  0
 13 17  1  0  0  0  0
 15 18  1  0  0  0  0
 16 19  1  0  0  0  0
 17 20  2  0  0  0  0
 18 21  1  0  0  0  0
 19 22  2  0  0  0  0
 21 23  1  0  0  0  0
 22 24  1  0  0  0  0
 23 25  1  0  0  0  0
 24 26  2  0  0  0  0
 24 27  1  0  0  0  0
 25 28  2  0  0  0  0
 25 29  1  0  0  0  0
 26 30  1  0  0  0  0
 26 31  1  0  0  0  0
 27 32  2  0  0  0  0
 27 33  1  0  0  0  0
 29 34  1  0  0  0  0
 30 35  2  0  0  0  0
 33 36  1  0  0  0  0
 35 37  1  0  0  0  0
  6  8  1  0  0  0  0
 15 16  1  0  0  0  0
 20 22  1  0  0  0  0
 32 35  1  0  0  0  0
M  END
>  <MolRegNo>
405846

>  <m>
=

>  <Value>
670

>  <Unit>
nM

>  <Type>
IC50

>  <pValue>
6.17

>  <Ligand Efficiency>
0

>  <Binding Efficiency>
0

>  <Surface Efficiency>
0

>  <Assay Index>
297170

>  <Assay Category>


>  <Assay Organism>


>  <Target ID>
17045

>  <Target Name>
Cytochrome P450 3A4

>  <Target Organism>
Homo sapiens

>  <Target Description>
Target is a single protein chain

>  <Sequence Accession>
P08684

>  <Reference>
Bioorg Med Chem 15 (17), 5912-5949 (2007)

>  <Pubmed ID>
17574423

>  <DOI>
10.1016/j.bmc.2007.05.069

$$$$
405844
Actelion Java MolfileCreator 1.0

 37 40  0  0  0  0  0  0  0  0999 V2000
    0.0000   -0.0000   -0.0000 S   0  0  0  0  0  0  0  0  0  0  0  0
    0.7465   -1.2797   -0.0000 O   0  0  0  0  0  0  0  0  0  0  0  0
   -0.7702    1.3034   -0.0000 O   0  0  0  0  0  0  0  0  0  0  0  0
   -1.3034   -0.7347   -0.0000 N   0  0  0  0  0  0  0  0  0  0  0  0
    1.2797    0.7702   -0.0000 C   0  0  0  0  0  0  0  0  0  0  0  0
   -1.3153   -2.2277   -0.0000 C   0  0  0  0  0  0  0  0  0  0  0  0
   -2.6187   -2.9742   -0.0000 C   0  0  0  0  0  0  0  0  0  0  0  0
   -2.6305   -4.4672   -0.0000 N   0  0  0  0  0  0  0  0  0  0  0  0
   -3.9458   -5.2137   -0.0000 C   0  0  0  0  0  0  0  0  0  0  0  0
   -1.3390   -5.2018   -0.0000 C   0  0  0  0  0  0  0  0  0  0  0  0
   -3.9576   -6.7067   -0.0000 C   0  0  0  0  0  0  0  0  0  0  0  0
   -5.2611   -4.4553   -0.0000 C   0  0  0  0  0  0  0  0  0  0  0  0
   -0.0474   -4.4435   -0.0000 O   0  0  0  0  0  0  0  0  0  0  0  0
   -1.3508   -6.6948   -0.0000 C   0  0  0  0  0  0  0  0  0  0  0  0
   -2.6661   -7.4413   -0.0000 O   0  0  0  0  0  0  0  0  0  0  0  0
   -5.2611   -7.4532   -0.0000 C   0  0  0  0  0  0  0  0  0  0  0  0
   -6.5645   -5.2018   -0.0000 C   0  0  0  0  0  0  0  0  0  0  0  0
   -0.0711   -7.4295   -0.0000 C   0  0  0  0  0  0  0  0  0  0  0  0
   -1.3745   -8.1760   -0.0000 C   0  0  0  0  0  0  0  0  0  0  0  0
   -6.5763   -6.6948   -0.0000 C   0  0  0  0  0  0  0  0  0  0  0  0
   -7.8679   -4.4435   -0.0000 C   0  0  0  0  0  0  0  0  0  0  0  0
   -0.0829   -8.9225   -0.0000 C   0  0  0  0  0  0  0  0  0  0  0  0
    1.2086   -6.6711   -0.0000 C   0  0  0  0  0  0  0  0  0  0  0  0
   -7.8797   -2.9268   -0.0000 C   0  0  0  0  0  0  0  0  0  0  0  0
   -9.1950   -5.1900   -0.0000 C   0  0  0  0  0  0  0  0  0  0  0  0
    1.1968   -9.6690   -0.0000 C   0  0  0  0  0  0  0  0  0  0  0  0
    2.5002   -7.3939   -0.0000 C   0  0  0  0  0  0  0  0  0  0  0  0
   -9.1950   -2.1684   -0.0000 N   0  0  0  0  0  0  0  0  0  0  0  0
   -6.6000   -2.1566   -0.0000 N   0  0  0  0  0  0  0  0  0  0  0  0
  -10.5103   -4.4198   -0.0000 N   0  0  0  0  0  0  0  0  0  0  0  0
   -9.2068   -6.6830   -0.0000 C   0  0  0  0  0  0  0  0  0  0  0  0
    1.1849  -11.1620   -0.0000 F   0  0  0  0  0  0  0  0  0  0  0  0
    2.4883   -8.8988   -0.0000 C   0  0  0  0  0  0  0  0  0  0  0  0
    3.7917   -6.6356   -0.0000 F   0  0  0  0  0  0  0  0  0  0  0  0
  -10.4984   -2.9149   -0.0000 C   0  0  0  0  0  0  0  0  0  0  0  0
  -10.5221   -7.4176   -0.0000 C   0  0  0  0  0  0  0  0  0  0  0  0
  -11.8137   -2.1447   -0.0000 N   0  0  0  0  0  0  0  0  0  0  0  0
  1  2  2  0  0  0  0
  1  3  2  0  0  0  0
  1  4  1  0  0  0  0
  1  5  1  0  0  0  0
  4  6  1  0  0  0  0
  6  7  1  0  0  0  0
  7  8  1  0  0  0  0
  8  9  1  0  0  0  0
  8 10  1  0  0  0  0
  9 11  2  0  0  0  0
  9 12  1  0  0  0  0
 10 13  2  0  0  0  0
 10 14  1  0  0  0  0
 11 15  1  0  0  0  0
 11 16  1  0  0  0  0
 12 17  2  0  0  0  0
 14 18  1  0  0  0  0
 14 19  1  0  0  0  0
 16 20  2  0  0  0  0
 17 21  1  0  0  0  0
 18 22  2  0  0  0  0
 18 23  1  0  0  0  0
 21 24  2  0  0  0  0
 21 25  1  0  0  0  0
 22 26  1  0  0  0  0
 23 27  2  0  0  0  0
 24 28  1  0  0  0  0
 24 29  1  0  0  0  0
 25 30  2  0  0  0  0
 25 31  1  0  0  0  0
 26 32  1  0  0  0  0
 26 33  2  0  0  0  0
 27 34  1  0  0  0  0
 28 35  2  0  0  0  0
 31 36  1  0  0  0  0
 35 37  1  0  0  0  0
 14 15  1  0  0  0  0
 17 20  1  0  0  0  0
 27 33  1  0  0  0  0
 30 35  1  0  0  0  0
M  END
>  <MolRegNo>
405844

>  <m>
=

>  <Value>
2180

>  <Unit>
nM

>  <Type>
IC50

>  <pValue>
5.66

>  <Ligand Efficiency>
0

>  <Binding Efficiency>
0

>  <Surface Efficiency>
0

>  <Assay Index>
297170

>  <Assay Category>


>  <Assay Organism>


>  <Target ID>
17045

>  <Target Name>
Cytochrome P450 3A4

>  <Target Organism>
Homo sapiens

>  <Target Description>
Target is a single protein chain

>  <Sequence Accession>
P08684

>  <Reference>
Bioorg Med Chem 15 (17), 5912-5949 (2007)

>  <Pubmed ID>
17574423

>  <DOI>
10.1016/j.bmc.2007.05.069

$$$$
405840
Actelion Java MolfileCreator 1.0

 36 39  0  0  0  0  0  0  0  0999 V2000
    0.0000   -0.0000   -0.0000 F   0  0  0  0  0  0  0  0  0  0  0  0
   -0.0118    1.4923   -0.0000 C   0  0  0  0  0  0  0  0  0  0  0  0
    1.2673    2.2503   -0.0000 C   0  0  0  0  0  0  0  0  0  0  0  0
   -1.3147    2.2503   -0.0000 C   0  0  0  0  0  0  0  0  0  0  0  0
    1.2555    3.7664   -0.0000 C   0  0  0  0  0  0  0  0  0  0  0  0
   -1.3265    3.7545   -0.0000 C   0  0  0  0  0  0  0  0  0  0  0  0
    2.5346    4.5244   -0.0000 F   0  0  0  0  0  0  0  0  0  0  0  0
   -0.0474    4.5125   -0.0000 C   0  0  0  0  0  0  0  0  0  0  0  0
   -2.6293    4.5007   -0.0000 C   0  0  0  0  0  0  0  0  0  0  0  0
   -3.9322    3.7664   -0.0000 O   0  0  0  0  0  0  0  0  0  0  0  0
   -2.6412    6.0049   -0.0000 C   0  0  0  0  0  0  0  0  0  0  0  0
   -2.6530    3.0202   -0.0000 C   0  0  0  0  0  0  0  0  0  0  0  0
   -5.2350    4.5125   -0.0000 C   0  0  0  0  0  0  0  0  0  0  0  0
   -1.3620    6.7629   -0.0000 O   0  0  0  0  0  0  0  0  0  0  0  0
   -3.9440    6.7747   -0.0000 N   0  0  0  0  0  0  0  0  0  0  0  0
   -5.2468    6.0167   -0.0000 C   0  0  0  0  0  0  0  0  0  0  0  0
   -6.5378    3.7782   -0.0000 C   0  0  0  0  0  0  0  0  0  0  0  0
   -3.9559    8.2670   -0.0000 C   0  0  0  0  0  0  0  0  0  0  0  0
   -6.5497    6.7747   -0.0000 C   0  0  0  0  0  0  0  0  0  0  0  0
   -7.8407    4.5244   -0.0000 C   0  0  0  0  0  0  0  0  0  0  0  0
   -2.6767    9.0369   -0.0000 C   0  0  0  0  0  0  0  0  0  0  0  0
   -7.8407    6.0404   -0.0000 C   0  0  0  0  0  0  0  0  0  0  0  0
   -2.6886   10.5411   -0.0000 C   0  0  0  0  0  0  0  0  0  0  0  0
   -9.1435    6.7984   -0.0000 C   0  0  0  0  0  0  0  0  0  0  0  0
   -3.9914   11.2872   -0.0000 O   0  0  0  0  0  0  0  0  0  0  0  0
   -1.4094   11.2991   -0.0000 N   0  0  0  0  0  0  0  0  0  0  0  0
   -9.1553    8.3144   -0.0000 C   0  0  0  0  0  0  0  0  0  0  0  0
  -10.4582    6.0522   -0.0000 C   0  0  0  0  0  0  0  0  0  0  0  0
   -1.4213   12.8032   -0.0000 C   0  0  0  0  0  0  0  0  0  0  0  0
  -10.4700    9.0606   -0.0000 N   0  0  0  0  0  0  0  0  0  0  0  0
   -7.8762    9.0724   -0.0000 N   0  0  0  0  0  0  0  0  0  0  0  0
  -11.7610    6.8102   -0.0000 N   0  0  0  0  0  0  0  0  0  0  0  0
  -10.4700    4.5717   -0.0000 C   0  0  0  0  0  0  0  0  0  0  0  0
  -11.7728    8.3263   -0.0000 C   0  0  0  0  0  0  0  0  0  0  0  0
  -11.7728    3.8374   -0.0000 C   0  0  0  0  0  0  0  0  0  0  0  0
  -13.0757    9.0843   -0.0000 N   0  0  0  0  0  0  0  0  0  0  0  0
  1  2  1  0  0  0  0
  2  3  2  0  0  0  0
  2  4  1  0  0  0  0
  3  5  1  0  0  0  0
  4  6  2  0  0  0  0
  5  7  1  0  0  0  0
  5  8  2  0  0  0  0
  6  9  1  0  0  0  0
  9 10  1  0  0  0  0
  9 11  1  0  0  0  0
  9 12  1  0  0  0  0
 10 13  1  0  0  0  0
 11 14  2  0  0  0  0
 11 15  1  0  0  0  0
 13 16  2  0  0  0  0
 13 17  1  0  0  0  0
 15 18  1  0  0  0  0
 16 19  1  0  0  0  0
 17 20  2  0  0  0  0
 18 21  1  0  0  0  0
 19 22  2  0  0  0  0
 21 23  1  0  0  0  0
 22 24  1  0  0  0  0
 23 25  2  0  0  0  0
 23 26  1  0  0  0  0
 24 27  2  0  0  0  0
 24 28  1  0  0  0  0
 26 29  1  0  0  0  0
 27 30  1  0  0  0  0
 27 31  1  0  0  0  0
 28 32  2  0  0  0  0
 28 33  1  0  0  0  0
 30 34  2  0  0  0  0
 33 35  1  0  0  0  0
 34 36  1  0  0  0  0
  6  8  1  0  0  0  0
 15 16  1  0  0  0  0
 20 22  1  0  0  0  0
 32 34  1  0  0  0  0
M  END
>  <MolRegNo>
405840

>  <m>
=

>  <Value>
160

>  <Unit>
nM

>  <Type>
IC50

>  <pValue>
6.8

>  <Ligand Efficiency>
0

>  <Binding Efficiency>
0

>  <Surface Efficiency>
0

>  <Assay Index>
297170

>  <Assay Category>


>  <Assay Organism>


>  <Target ID>
17045

>  <Target Name>
Cytochrome P450 3A4

>  <Target Organism>
Homo sapiens

>  <Target Description>
Target is a single protein chain

>  <Sequence Accession>
P08684

>  <Reference>
Bioorg Med Chem 15 (17), 5912-5949 (2007)

>  <Pubmed ID>
17574423

>  <DOI>
10.1016/j.bmc.2007.05.069

$$$$
405838
Actelion Java MolfileCreator 1.0

 37 40  0  0  0  0  0  0  0  0999 V2000
    0.0000   -0.0000   -0.0000 F   0  0  0  0  0  0  0  0  0  0  0  0
   -0.0119    1.5053   -0.0000 C   0  0  0  0  0  0  0  0  0  0  0  0
    1.2683    2.2639   -0.0000 C   0  0  0  0  0  0  0  0  0  0  0  0
   -1.3157    2.2639   -0.0000 C   0  0  0  0  0  0  0  0  0  0  0  0
    1.2564    3.7810   -0.0000 C   0  0  0  0  0  0  0  0  0  0  0  0
   -1.3275    3.7692   -0.0000 C   0  0  0  0  0  0  0  0  0  0  0  0
    2.5365    4.5396   -0.0000 F   0  0  0  0  0  0  0  0  0  0  0  0
   -0.0474    4.5396   -0.0000 C   0  0  0  0  0  0  0  0  0  0  0  0
   -2.6313    4.5278   -0.0000 C   0  0  0  0  0  0  0  0  0  0  0  0
   -3.9351    3.7929   -0.0000 O   0  0  0  0  0  0  0  0  0  0  0  0
   -2.6432    6.0331   -0.0000 C   0  0  0  0  0  0  0  0  0  0  0  0
   -2.6550    3.0462   -0.0000 C   0  0  0  0  0  0  0  0  0  0  0  0
   -5.2389    4.5515   -0.0000 C   0  0  0  0  0  0  0  0  0  0  0  0
   -1.3631    6.7917   -0.0000 O   0  0  0  0  0  0  0  0  0  0  0  0
   -3.9470    6.7917   -0.0000 N   0  0  0  0  0  0  0  0  0  0  0  0
   -5.2508    6.0568   -0.0000 C   0  0  0  0  0  0  0  0  0  0  0  0
   -6.5428    3.8048   -0.0000 C   0  0  0  0  0  0  0  0  0  0  0  0
   -3.9588    8.2970   -0.0000 C   0  0  0  0  0  0  0  0  0  0  0  0
   -6.5546    6.8035   -0.0000 C   0  0  0  0  0  0  0  0  0  0  0  0
   -7.8466    4.5633   -0.0000 C   0  0  0  0  0  0  0  0  0  0  0  0
   -2.6787    9.0555   -0.0000 C   0  0  0  0  0  0  0  0  0  0  0  0
   -7.8466    6.0686   -0.0000 C   0  0  0  0  0  0  0  0  0  0  0  0
   -2.6906   10.5609   -0.0000 N   0  0  0  0  0  0  0  0  0  0  0  0
   -9.1504    6.8154   -0.0000 C   0  0  0  0  0  0  0  0  0  0  0  0
   -1.4105   11.3313   -0.0000 C   0  0  0  0  0  0  0  0  0  0  0  0
   -9.1622    8.3325   -0.0000 C   0  0  0  0  0  0  0  0  0  0  0  0
  -10.4660    6.0805   -0.0000 C   0  0  0  0  0  0  0  0  0  0  0  0
   -0.1304   10.5964   -0.0000 O   0  0  0  0  0  0  0  0  0  0  0  0
   -1.4223   12.8247   -0.0000 C   0  0  0  0  0  0  0  0  0  0  0  0
  -10.4779    9.0793   -0.0000 N   0  0  0  0  0  0  0  0  0  0  0  0
   -7.8821    9.0911   -0.0000 N   0  0  0  0  0  0  0  0  0  0  0  0
  -11.7698    6.8391   -0.0000 N   0  0  0  0  0  0  0  0  0  0  0  0
  -10.4779    4.5989   -0.0000 C   0  0  0  0  0  0  0  0  0  0  0  0
   -0.1422   13.5952   -0.0000 O   0  0  0  0  0  0  0  0  0  0  0  0
  -11.7817    8.3444   -0.0000 C   0  0  0  0  0  0  0  0  0  0  0  0
  -11.7817    3.8640   -0.0000 C   0  0  0  0  0  0  0  0  0  0  0  0
  -13.0855    9.1030   -0.0000 N   0  0  0  0  0  0  0  0  0  0  0  0
  1  2  1  0  0  0  0
  2  3  2  0  0  0  0
  2  4  1  0  0  0  0
  3  5  1  0  0  0  0
  4  6  2  0  0  0  0
  5  7  1  0  0  0  0
  5  8  2  0  0  0  0
  6  9  1  0  0  0  0
  9 10  1  0  0  0  0
  9 11  1  0  0  0  0
  9 12  1  0  0  0  0
 10 13  1  0  0  0  0
 11 14  2  0  0  0  0
 11 15  1  0  0  0  0
 13 16  2  0  0  0  0
 13 17  1  0  0  0  0
 15 18  1  0  0  0  0
 16 19  1  0  0  0  0
 17 20  2  0  0  0  0
 18 21  1  0  0  0  0
 19 22  2  0  0  0  0
 21 23  1  0  0  0  0
 22 24  1  0  0  0  0
 23 25  1  0  0  0  0
 24 26  2  0  0  0  0
 24 27  1  0  0  0  0
 25 28  2  0  0  0  0
 25 29  1  0  0  0  0
 26 30  1  0  0  0  0
 26 31  1  0  0  0  0
 27 32  2  0  0  0  0
 27 33  1  0  0  0  0
 29 34  1  0  0  0  0
 30 35  2  0  0  0  0
 33 36  1  0  0  0  0
 35 37  1  0  0  0  0
  6  8  1  0  0  0  0
 15 16  1  0  0  0  0
 20 22  1  0  0  0  0
 32 35  1  0  0  0  0
M  END
>  <MolRegNo>
405838

>  <m>
=

>  <Value>
1670

>  <Unit>
nM

>  <Type>
IC50

>  <pValue>
5.78

>  <Ligand Efficiency>
0

>  <Binding Efficiency>
0

>  <Surface Efficiency>
0

>  <Assay Index>
297170

>  <Assay Category>


>  <Assay Organism>


>  <Target ID>
17045

>  <Target Name>
Cytochrome P450 3A4

>  <Target Organism>
Homo sapiens

>  <Target Description>
Target is a single protein chain

>  <Sequence Accession>
P08684

>  <Reference>
Bioorg Med Chem 15 (17), 5912-5949 (2007)

>  <Pubmed ID>
17574423

>  <DOI>
10.1016/j.bmc.2007.05.069

$$$$
405834
Actelion Java MolfileCreator 1.0

 35 38  0  0  0  0  0  0  0  0999 V2000
    0.0000   -0.0000   -0.0000 F   0  0  0  0  0  0  0  0  0  0  0  0
   -0.0118    1.4924   -0.0000 C   0  0  0  0  0  0  0  0  0  0  0  0
    1.2673    2.2504   -0.0000 C   0  0  0  0  0  0  0  0  0  0  0  0
   -1.3147    2.2504   -0.0000 C   0  0  0  0  0  0  0  0  0  0  0  0
    1.2555    3.7664   -0.0000 C   0  0  0  0  0  0  0  0  0  0  0  0
   -1.3265    3.7546   -0.0000 C   0  0  0  0  0  0  0  0  0  0  0  0
    2.5347    4.5245   -0.0000 F   0  0  0  0  0  0  0  0  0  0  0  0
   -0.0474    4.5126   -0.0000 C   0  0  0  0  0  0  0  0  0  0  0  0
   -2.6294    4.5008   -0.0000 C   0  0  0  0  0  0  0  0  0  0  0  0
   -3.9323    3.7664   -0.0000 O   0  0  0  0  0  0  0  0  0  0  0  0
   -2.6413    6.0050   -0.0000 C   0  0  0  0  0  0  0  0  0  0  0  0
   -2.6531    3.0203   -0.0000 C   0  0  0  0  0  0  0  0  0  0  0  0
   -5.2351    4.5126   -0.0000 C   0  0  0  0  0  0  0  0  0  0  0  0
   -1.3621    6.7630   -0.0000 O   0  0  0  0  0  0  0  0  0  0  0  0
   -3.9441    6.7749   -0.0000 N   0  0  0  0  0  0  0  0  0  0  0  0
   -5.2470    6.0168   -0.0000 C   0  0  0  0  0  0  0  0  0  0  0  0
   -6.5380    3.7783   -0.0000 C   0  0  0  0  0  0  0  0  0  0  0  0
   -3.9560    8.2672   -0.0000 C   0  0  0  0  0  0  0  0  0  0  0  0
   -6.5498    6.7749   -0.0000 C   0  0  0  0  0  0  0  0  0  0  0  0
   -7.8408    4.5245   -0.0000 C   0  0  0  0  0  0  0  0  0  0  0  0
   -2.6768    9.0371   -0.0000 C   0  0  0  0  0  0  0  0  0  0  0  0
   -7.8408    6.0405   -0.0000 C   0  0  0  0  0  0  0  0  0  0  0  0
   -2.6886   10.5413   -0.0000 C   0  0  0  0  0  0  0  0  0  0  0  0
   -9.1437    6.7986   -0.0000 C   0  0  0  0  0  0  0  0  0  0  0  0
   -1.4095   11.2993   -0.0000 C   0  0  0  0  0  0  0  0  0  0  0  0
   -9.1556    8.3146   -0.0000 C   0  0  0  0  0  0  0  0  0  0  0  0
  -10.4584    6.0524   -0.0000 C   0  0  0  0  0  0  0  0  0  0  0  0
   -1.4213   12.8036   -0.0000 O   0  0  0  0  0  0  0  0  0  0  0  0
  -10.4703    9.0608   -0.0000 N   0  0  0  0  0  0  0  0  0  0  0  0
   -7.8764    9.0726   -0.0000 N   0  0  0  0  0  0  0  0  0  0  0  0
  -11.7613    6.8104   -0.0000 N   0  0  0  0  0  0  0  0  0  0  0  0
  -10.4703    4.5719   -0.0000 C   0  0  0  0  0  0  0  0  0  0  0  0
  -11.7731    8.3265   -0.0000 C   0  0  0  0  0  0  0  0  0  0  0  0
  -11.7731    3.8375   -0.0000 C   0  0  0  0  0  0  0  0  0  0  0  0
  -13.0760    9.0845   -0.0000 N   0  0  0  0  0  0  0  0  0  0  0  0
  1  2  1  0  0  0  0
  2  3  2  0  0  0  0
  2  4  1  0  0  0  0
  3  5  1  0  0  0  0
  4  6  2  0  0  0  0
  5  7  1  0  0  0  0
  5  8  2  0  0  0  0
  6  9  1  0  0  0  0
  9 10  1  0  0  0  0
  9 11  1  0  0  0  0
  9 12  1  0  0  0  0
 10 13  1  0  0  0  0
 11 14  2  0  0  0  0
 11 15  1  0  0  0  0
 13 16  2  0  0  0  0
 13 17  1  0  0  0  0
 15 18  1  0  0  0  0
 16 19  1  0  0  0  0
 17 20  2  0  0  0  0
 18 21  1  0  0  0  0
 19 22  2  0  0  0  0
 21 23  1  0  0  0  0
 22 24  1  0  0  0  0
 23 25  1  0  0  0  0
 24 26  2  0  0  0  0
 24 27  1  0  0  0  0
 25 28  1  0  0  0  0
 26 29  1  0  0  0  0
 26 30  1  0  0  0  0
 27 31  2  0  0  0  0
 27 32  1  0  0  0  0
 29 33  2  0  0  0  0
 32 34  1  0  0  0  0
 33 35  1  0  0  0  0
  6  8  1  0  0  0  0
 15 16  1  0  0  0  0
 20 22  1  0  0  0  0
 31 33  1  0  0  0  0
M  END
>  <MolRegNo>
405834

>  <m>
=

>  <Value>
4790

>  <Unit>
nM

>  <Type>
IC50

>  <pValue>
5.32

>  <Ligand Efficiency>
0

>  <Binding Efficiency>
0

>  <Surface Efficiency>
0

>  <Assay Index>
297170

>  <Assay Category>


>  <Assay Organism>


>  <Target ID>
17045

>  <Target Name>
Cytochrome P450 3A4

>  <Target Organism>
Homo sapiens

>  <Target Description>
Target is a single protein chain

>  <Sequence Accession>
P08684

>  <Reference>
Bioorg Med Chem 15 (17), 5912-5949 (2007)

>  <Pubmed ID>
17574423

>  <DOI>
10.1016/j.bmc.2007.05.069

$$$$
405815
Actelion Java MolfileCreator 1.0

 34 37  0  0  0  0  0  0  0  0999 V2000
    0.0000   -0.0000   -0.0000 F   0  0  0  0  0  0  0  0  0  0  0  0
   -0.0118    1.5037   -0.0000 C   0  0  0  0  0  0  0  0  0  0  0  0
    1.2669    2.2614   -0.0000 C   0  0  0  0  0  0  0  0  0  0  0  0
   -1.3142    2.2614   -0.0000 C   0  0  0  0  0  0  0  0  0  0  0  0
    1.2550    3.7770   -0.0000 C   0  0  0  0  0  0  0  0  0  0  0  0
   -1.3261    3.7651   -0.0000 C   0  0  0  0  0  0  0  0  0  0  0  0
    2.5338    4.5465   -0.0000 F   0  0  0  0  0  0  0  0  0  0  0  0
   -0.0474    4.5347   -0.0000 C   0  0  0  0  0  0  0  0  0  0  0  0
   -2.6285    4.5229   -0.0000 C   0  0  0  0  0  0  0  0  0  0  0  0
   -3.9309    3.7888   -0.0000 O   0  0  0  0  0  0  0  0  0  0  0  0
   -2.6403    6.0265   -0.0000 C   0  0  0  0  0  0  0  0  0  0  0  0
   -2.6522    3.0429   -0.0000 C   0  0  0  0  0  0  0  0  0  0  0  0
   -5.2333    4.5465   -0.0000 C   0  0  0  0  0  0  0  0  0  0  0  0
   -1.3616    6.7843   -0.0000 O   0  0  0  0  0  0  0  0  0  0  0  0
   -3.9427    6.7843   -0.0000 N   0  0  0  0  0  0  0  0  0  0  0  0
   -5.2451    6.0502   -0.0000 C   0  0  0  0  0  0  0  0  0  0  0  0
   -6.5357    3.8006   -0.0000 C   0  0  0  0  0  0  0  0  0  0  0  0
   -3.9545    8.2880   -0.0000 C   0  0  0  0  0  0  0  0  0  0  0  0
   -6.5475    6.7961   -0.0000 C   0  0  0  0  0  0  0  0  0  0  0  0
   -7.8381    4.5584   -0.0000 C   0  0  0  0  0  0  0  0  0  0  0  0
   -2.6758    9.0457   -0.0000 C   0  0  0  0  0  0  0  0  0  0  0  0
   -7.8381    6.0621   -0.0000 C   0  0  0  0  0  0  0  0  0  0  0  0
   -2.6877   10.5494   -0.0000 C   0  0  0  0  0  0  0  0  0  0  0  0
   -9.1405    6.8080   -0.0000 C   0  0  0  0  0  0  0  0  0  0  0  0
   -1.4090   11.3190   -0.0000 O   0  0  0  0  0  0  0  0  0  0  0  0
   -9.1523    8.3235   -0.0000 C   0  0  0  0  0  0  0  0  0  0  0  0
  -10.4547    6.0739   -0.0000 C   0  0  0  0  0  0  0  0  0  0  0  0
  -10.4665    9.0813   -0.0000 N   0  0  0  0  0  0  0  0  0  0  0  0
   -7.8736    9.0813   -0.0000 N   0  0  0  0  0  0  0  0  0  0  0  0
  -11.7571    6.8317   -0.0000 N   0  0  0  0  0  0  0  0  0  0  0  0
  -10.4665    4.5939   -0.0000 C   0  0  0  0  0  0  0  0  0  0  0  0
  -11.7689    8.3472   -0.0000 C   0  0  0  0  0  0  0  0  0  0  0  0
  -11.7689    3.8598   -0.0000 C   0  0  0  0  0  0  0  0  0  0  0  0
  -13.0713    9.1049   -0.0000 N   0  0  0  0  0  0  0  0  0  0  0  0
  1  2  1  0  0  0  0
  2  3  2  0  0  0  0
  2  4  1  0  0  0  0
  3  5  1  0  0  0  0
  4  6  2  0  0  0  0
  5  7  1  0  0  0  0
  5  8  2  0  0  0  0
  6  9  1  0  0  0  0
  9 10  1  0  0  0  0
  9 11  1  0  0  0  0
  9 12  1  0  0  0  0
 10 13  1  0  0  0  0
 11 14  2  0  0  0  0
 11 15  1  0  0  0  0
 13 16  2  0  0  0  0
 13 17  1  0  0  0  0
 15 18  1  0  0  0  0
 16 19  1  0  0  0  0
 17 20  2  0  0  0  0
 18 21  1  0  0  0  0
 19 22  2  0  0  0  0
 21 23  1  0  0  0  0
 22 24  1  0  0  0  0
 23 25  1  0  0  0  0
 24 26  2  0  0  0  0
 24 27  1  0  0  0  0
 26 28  1  0  0  0  0
 26 29  1  0  0  0  0
 27 30  2  0  0  0  0
 27 31  1  0  0  0  0
 28 32  2  0  0  0  0
 31 33  1  0  0  0  0
 32 34  1  0  0  0  0
  6  8  1  0  0  0  0
 15 16  1  0  0  0  0
 20 22  1  0  0  0  0
 30 32  1  0  0  0  0
M  END
>  <MolRegNo>
405815

>  <m>
=

>  <Value>
30000

>  <Unit>
nM

>  <Type>
IC50

>  <pValue>
4.52

>  <Ligand Efficiency>
0

>  <Binding Efficiency>
0

>  <Surface Efficiency>
0

>  <Assay Index>
297170

>  <Assay Category>


>  <Assay Organism>


>  <Target ID>
17045

>  <Target Name>
Cytochrome P450 3A4

>  <Target Organism>
Homo sapiens

>  <Target Description>
Target is a single protein chain

>  <Sequence Accession>
P08684

>  <Reference>
Bioorg Med Chem 15 (17), 5912-5949 (2007)

>  <Pubmed ID>
17574423

>  <DOI>
10.1016/j.bmc.2007.05.069

$$$$
405790
Actelion Java MolfileCreator 1.0

 36 39  0  0  0  0  0  0  0  0999 V2000
    0.0000   -0.0000   -0.0000 F   0  0  0  0  0  0  0  0  0  0  0  0
   -0.7571    1.3013   -0.0000 C   0  0  0  0  0  0  0  0  0  0  0  0
   -0.0237    2.6144   -0.0000 C   0  0  0  0  0  0  0  0  0  0  0  0
   -2.2595    1.3131   -0.0000 C   0  0  0  0  0  0  0  0  0  0  0  0
   -0.7926    3.9156   -0.0000 C   0  0  0  0  0  0  0  0  0  0  0  0
   -3.0166    2.6144   -0.0000 C   0  0  0  0  0  0  0  0  0  0  0  0
   -0.0710    5.2287   -0.0000 F   0  0  0  0  0  0  0  0  0  0  0  0
   -2.2831    3.9156   -0.0000 C   0  0  0  0  0  0  0  0  0  0  0  0
   -4.5189    2.6262   -0.0000 C   0  0  0  0  0  0  0  0  0  0  0  0
   -5.8320    1.8927   -0.0000 O   0  0  0  0  0  0  0  0  0  0  0  0
   -4.5308    4.1404   -0.0000 C   0  0  0  0  0  0  0  0  0  0  0  0
   -4.5426    1.1475   -0.0000 C   0  0  0  0  0  0  0  0  0  0  0  0
   -7.1333    2.6498   -0.0000 C   0  0  0  0  0  0  0  0  0  0  0  0
   -3.2532    4.8975   -0.0000 O   0  0  0  0  0  0  0  0  0  0  0  0
   -5.8557    4.9093   -0.0000 N   0  0  0  0  0  0  0  0  0  0  0  0
   -7.1451    4.1640   -0.0000 C   0  0  0  0  0  0  0  0  0  0  0  0
   -8.4346    1.9164   -0.0000 C   0  0  0  0  0  0  0  0  0  0  0  0
   -5.8675    6.4117   -0.0000 C   0  0  0  0  0  0  0  0  0  0  0  0
   -8.4582    4.9093   -0.0000 C   0  0  0  0  0  0  0  0  0  0  0  0
   -9.7358    2.6735   -0.0000 C   0  0  0  0  0  0  0  0  0  0  0  0
   -4.5899    7.1688   -0.0000 C   0  0  0  0  0  0  0  0  0  0  0  0
   -9.7476    4.1759   -0.0000 C   0  0  0  0  0  0  0  0  0  0  0  0
   -4.6017    8.6711   -0.0000 N   0  0  0  0  0  0  0  0  0  0  0  0
  -11.0371    4.9330   -0.0000 C   0  0  0  0  0  0  0  0  0  0  0  0
   -3.3241    9.4282   -0.0000 C   0  0  0  0  0  0  0  0  0  0  0  0
  -12.3502    4.1995   -0.0000 C   0  0  0  0  0  0  0  0  0  0  0  0
  -11.0489    6.4472   -0.0000 C   0  0  0  0  0  0  0  0  0  0  0  0
   -3.3360   10.9306   -0.0000 O   0  0  0  0  0  0  0  0  0  0  0  0
   -2.0347    8.6948   -0.0000 C   0  0  0  0  0  0  0  0  0  0  0  0
  -13.6514    4.9566   -0.0000 N   0  0  0  0  0  0  0  0  0  0  0  0
  -12.3620    2.7208   -0.0000 N   0  0  0  0  0  0  0  0  0  0  0  0
  -12.3620    7.1924   -0.0000 N   0  0  0  0  0  0  0  0  0  0  0  0
   -9.7713    7.2043   -0.0000 C   0  0  0  0  0  0  0  0  0  0  0  0
  -13.6633    6.4590   -0.0000 C   0  0  0  0  0  0  0  0  0  0  0  0
   -9.7950    8.7066   -0.0000 C   0  0  0  0  0  0  0  0  0  0  0  0
  -14.9764    7.2161   -0.0000 N   0  0  0  0  0  0  0  0  0  0  0  0
  1  2  1  0  0  0  0
  2  3  2  0  0  0  0
  2  4  1  0  0  0  0
  3  5  1  0  0  0  0
  4  6  2  0  0  0  0
  5  7  1  0  0  0  0
  5  8  2  0  0  0  0
  6  9  1  0  0  0  0
  9 10  1  0  0  0  0
  9 11  1  0  0  0  0
  9 12  1  0  0  0  0
 10 13  1  0  0  0  0
 11 14  2  0  0  0  0
 11 15  1  0  0  0  0
 13 16  2  0  0  0  0
 13 17  1  0  0  0  0
 15 18  1  0  0  0  0
 16 19  1  0  0  0  0
 17 20  2  0  0  0  0
 18 21  1  0  0  0  0
 19 22  2  0  0  0  0
 21 23  1  0  0  0  0
 22 24  1  0  0  0  0
 23 25  1  0  0  0  0
 24 26  2  0  0  0  0
 24 27  1  0  0  0  0
 25 28  2  0  0  0  0
 25 29  1  0  0  0  0
 26 30  1  0  0  0  0
 26 31  1  0  0  0  0
 27 32  2  0  0  0  0
 27 33  1  0  0  0  0
 30 34  2  0  0  0  0
 33 35  1  0  0  0  0
 34 36  1  0  0  0  0
  6  8  1  0  0  0  0
 15 16  1  0  0  0  0
 20 22  1  0  0  0  0
 32 34  1  0  0  0  0
M  END
>  <MolRegNo>
405790

>  <m>
=

>  <Value>
860

>  <Unit>
nM

>  <Type>
IC50

>  <pValue>
6.07

>  <Ligand Efficiency>
0

>  <Binding Efficiency>
0

>  <Surface Efficiency>
0

>  <Assay Index>
297170

>  <Assay Category>


>  <Assay Organism>


>  <Target ID>
17045

>  <Target Name>
Cytochrome P450 3A4

>  <Target Organism>
Homo sapiens

>  <Target Description>
Target is a single protein chain

>  <Sequence Accession>
P08684

>  <Reference>
Bioorg Med Chem 15 (17), 5912-5949 (2007)

>  <Pubmed ID>
17574423

>  <DOI>
10.1016/j.bmc.2007.05.069

$$$$
405789
Actelion Java MolfileCreator 1.0

 35 38  0  0  0  0  0  0  0  0999 V2000
    0.0000   -0.0000   -0.0000 F   0  0  0  0  0  0  0  0  0  0  0  0
   -0.7573    1.3015   -0.0000 C   0  0  0  0  0  0  0  0  0  0  0  0
   -0.0237    2.6030   -0.0000 C   0  0  0  0  0  0  0  0  0  0  0  0
   -2.2599    1.3134   -0.0000 C   0  0  0  0  0  0  0  0  0  0  0  0
   -0.7927    3.9164   -0.0000 C   0  0  0  0  0  0  0  0  0  0  0  0
   -3.0172    2.6149   -0.0000 C   0  0  0  0  0  0  0  0  0  0  0  0
   -0.0710    5.2179   -0.0000 F   0  0  0  0  0  0  0  0  0  0  0  0
   -2.2836    3.9164   -0.0000 C   0  0  0  0  0  0  0  0  0  0  0  0
   -4.5198    2.6267   -0.0000 C   0  0  0  0  0  0  0  0  0  0  0  0
   -5.8332    1.8931   -0.0000 O   0  0  0  0  0  0  0  0  0  0  0  0
   -4.5317    4.1412   -0.0000 C   0  0  0  0  0  0  0  0  0  0  0  0
   -4.5435    1.1477   -0.0000 C   0  0  0  0  0  0  0  0  0  0  0  0
   -7.1347    2.6622   -0.0000 C   0  0  0  0  0  0  0  0  0  0  0  0
   -3.2538    4.8985   -0.0000 O   0  0  0  0  0  0  0  0  0  0  0  0
   -5.8569    4.9103   -0.0000 N   0  0  0  0  0  0  0  0  0  0  0  0
   -7.1466    4.1649   -0.0000 C   0  0  0  0  0  0  0  0  0  0  0  0
   -8.4362    1.9168   -0.0000 C   0  0  0  0  0  0  0  0  0  0  0  0
   -5.8687    6.4130   -0.0000 C   0  0  0  0  0  0  0  0  0  0  0  0
   -8.4599    4.9103   -0.0000 C   0  0  0  0  0  0  0  0  0  0  0  0
   -9.7378    2.6859   -0.0000 C   0  0  0  0  0  0  0  0  0  0  0  0
   -4.5908    7.1702   -0.0000 C   0  0  0  0  0  0  0  0  0  0  0  0
   -9.7496    4.1767   -0.0000 C   0  0  0  0  0  0  0  0  0  0  0  0
   -4.6027    8.6729   -0.0000 C   0  0  0  0  0  0  0  0  0  0  0  0
  -11.0393    4.9340   -0.0000 C   0  0  0  0  0  0  0  0  0  0  0  0
   -3.3248    9.4301   -0.0000 O   0  0  0  0  0  0  0  0  0  0  0  0
  -12.3527    4.2004   -0.0000 C   0  0  0  0  0  0  0  0  0  0  0  0
  -11.0511    6.4366   -0.0000 C   0  0  0  0  0  0  0  0  0  0  0  0
   -3.3366   10.9328   -0.0000 C   0  0  0  0  0  0  0  0  0  0  0  0
  -13.6542    4.9576   -0.0000 N   0  0  0  0  0  0  0  0  0  0  0  0
  -12.3645    2.7214   -0.0000 N   0  0  0  0  0  0  0  0  0  0  0  0
  -12.3645    7.1820   -0.0000 N   0  0  0  0  0  0  0  0  0  0  0  0
   -9.7733    7.1939   -0.0000 C   0  0  0  0  0  0  0  0  0  0  0  0
  -13.6660    6.4603   -0.0000 C   0  0  0  0  0  0  0  0  0  0  0  0
   -9.7969    8.6966   -0.0000 C   0  0  0  0  0  0  0  0  0  0  0  0
  -14.9794    7.2294   -0.0000 N   0  0  0  0  0  0  0  0  0  0  0  0
  1  2  1  0  0  0  0
  2  3  2  0  0  0  0
  2  4  1  0  0  0  0
  3  5  1  0  0  0  0
  4  6  2  0  0  0  0
  5  7  1  0  0  0  0
  5  8  2  0  0  0  0
  6  9  1  0  0  0  0
  9 10  1  0  0  0  0
  9 11  1  0  0  0  0
  9 12  1  0  0  0  0
 10 13  1  0  0  0  0
 11 14  2  0  0  0  0
 11 15  1  0  0  0  0
 13 16  2  0  0  0  0
 13 17  1  0  0  0  0
 15 18  1  0  0  0  0
 16 19  1  0  0  0  0
 17 20  2  0  0  0  0
 18 21  1  0  0  0  0
 19 22  2  0  0  0  0
 21 23  1  0  0  0  0
 22 24  1  0  0  0  0
 23 25  1  0  0  0  0
 24 26  2  0  0  0  0
 24 27  1  0  0  0  0
 25 28  1  0  0  0  0
 26 29  1  0  0  0  0
 26 30  1  0  0  0  0
 27 31  2  0  0  0  0
 27 32  1  0  0  0  0
 29 33  2  0  0  0  0
 32 34  1  0  0  0  0
 33 35  1  0  0  0  0
  6  8  1  0  0  0  0
 15 16  1  0  0  0  0
 20 22  1  0  0  0  0
 31 33  1  0  0  0  0
M  END
>  <MolRegNo>
405789

>  <m>
=

>  <Value>
1140

>  <Unit>
nM

>  <Type>
IC50

>  <pValue>
5.94

>  <Ligand Efficiency>
0

>  <Binding Efficiency>
0

>  <Surface Efficiency>
0

>  <Assay Index>
297170

>  <Assay Category>


>  <Assay Organism>


>  <Target ID>
17045

>  <Target Name>
Cytochrome P450 3A4

>  <Target Organism>
Homo sapiens

>  <Target Description>
Target is a single protein chain

>  <Sequence Accession>
P08684

>  <Reference>
Bioorg Med Chem 15 (17), 5912-5949 (2007)

>  <Pubmed ID>
17574423

>  <DOI>
10.1016/j.bmc.2007.05.069

$$$$
405808
Actelion Java MolfileCreator 1.0

 34 37  0  0  1  0  0  0  0  0999 V2000
    0.0000   -0.0000   -0.0000 O   0  0  0  0  0  0  0  0  0  0  0  0
   -1.3060   -0.7361   -0.0000 C   0  0  0  0  0  0  0  0  0  0  0  0
   -2.6358    0.0356   -0.0000 N   0  0  0  0  0  0  0  0  0  0  0  0
   -1.3179   -2.2321   -0.0000 C   0  0  0  0  0  0  0  0  0  0  0  0
   -3.9418   -0.7124   -0.0000 C   0  0  0  0  0  0  0  0  0  0  0  0
   -2.6476    1.5435   -0.0000 C   0  0  0  0  0  0  0  0  0  0  0  0
   -2.6358   -2.9682   -0.0000 O   0  0  0  0  0  0  0  0  0  0  0  0
    0.1662   -2.2202   -0.0000 C   0  0  0  0  0  0  0  0  0  0  0  0
   -1.3416   -3.7162   -0.0000 C   0  0  0  0  0  0  0  0  0  0  0  0
   -3.9536   -2.2083   -0.0000 C   0  0  0  0  0  0  0  0  0  0  0  0
   -5.2596    0.0356   -0.0000 C   0  0  0  0  0  0  0  0  0  0  0  0
   -1.3654    2.3033   -0.0000 C   0  0  0  0  0  0  0  0  0  0  0  0
    0.9023   -3.5025   -0.0000 C   0  0  0  0  0  0  0  0  0  0  0  0
    0.8905   -0.9261   -0.0000 C   0  0  0  0  0  0  0  0  0  0  0  0
   -5.2596   -2.9444   -0.0000 C   0  0  0  0  0  0  0  0  0  0  0  0
   -6.5538   -0.7005   -0.0000 C   0  0  0  0  0  0  0  0  0  0  0  0
   -1.3772    3.8112   -0.0000 N   0  0  0  0  0  0  0  0  0  0  0  0
    2.3864   -3.4906   -0.0000 C   0  0  0  0  0  0  0  0  0  0  0  0
    2.3627   -0.9023   -0.0000 C   0  0  0  0  0  0  0  0  0  0  0  0
   -6.5656   -2.1846   -0.0000 C   0  0  0  0  0  0  0  0  0  0  0  0
   -7.8479    0.0594   -0.0000 C   0  0  0  0  0  0  0  0  0  0  0  0
   -0.0950    4.5710   -0.0000 C   0  0  0  0  0  0  0  0  0  0  0  0
    3.1225   -2.1727   -0.0000 C   0  0  0  0  0  0  0  0  0  0  0  0
   -9.1658   -0.6767   -0.0000 C   0  0  0  0  0  0  0  0  0  0  0  0
   -7.8598    1.5791   -0.0000 C   0  0  0  0  0  0  0  0  0  0  0  0
   -0.1069    6.0789   -0.0000 O   0  0  0  0  0  0  0  0  0  0  0  0
    1.1991    3.8349   -0.0000 C   0  0  0  0  0  0  0  0  0  0  0  0
  -10.4718    0.0831   -0.0000 N   0  0  0  0  0  0  0  0  0  0  0  0
   -9.1776   -2.1608   -0.0000 N   0  0  0  0  0  0  0  0  0  0  0  0
   -9.1776    2.3271   -0.0000 N   0  0  0  0  0  0  0  0  0  0  0  0
   -6.5775    2.3389   -0.0000 C   0  0  0  0  0  0  0  0  0  0  0  0
  -10.4836    1.5909   -0.0000 C   0  0  0  0  0  0  0  0  0  0  0  0
   -6.6013    3.8468   -0.0000 C   0  0  0  0  0  0  0  0  0  0  0  0
  -11.8015    2.3508   -0.0000 N   0  0  0  0  0  0  0  0  0  0  0  0
  1  2  2  0  0  0  0
  2  3  1  0  0  0  0
  2  4  1  0  0  0  0
  3  5  1  0  0  0  0
  3  6  1  0  0  0  0
  4  7  1  0  0  0  0
  4  8  1  0  0  0  0
  4  9  1  6  0  0  0
  5 10  2  0  0  0  0
  5 11  1  0  0  0  0
  6 12  1  0  0  0  0
  8 13  2  0  0  0  0
  8 14  1  0  0  0  0
 10 15  1  0  0  0  0
 11 16  2  0  0  0  0
 12 17  1  0  0  0  0
 13 18  1  0  0  0  0
 14 19  2  0  0  0  0
 15 20  2  0  0  0  0
 16 21  1  0  0  0  0
 17 22  1  0  0  0  0
 18 23  2  0  0  0  0
 21 24  2  0  0  0  0
 21 25  1  0  0  0  0
 22 26  2  0  0  0  0
 22 27  1  0  0  0  0
 24 28  1  0  0  0  0
 24 29  1  0  0  0  0
 25 30  2  0  0  0  0
 25 31  1  0  0  0  0
 28 32  2  0  0  0  0
 31 33  1  0  0  0  0
 32 34  1  0  0  0  0
  7 10  1  0  0  0  0
 16 20  1  0  0  0  0
 19 23  1  0  0  0  0
 30 32  1  0  0  0  0
M  END
>  <MolRegNo>
405808

>  <m>
=

>  <Value>
530

>  <Unit>
nM

>  <Type>
IC50

>  <pValue>
6.28

>  <Ligand Efficiency>
0

>  <Binding Efficiency>
0

>  <Surface Efficiency>
0

>  <Assay Index>
297170

>  <Assay Category>


>  <Assay Organism>


>  <Target ID>
17045

>  <Target Name>
Cytochrome P450 3A4

>  <Target Organism>
Homo sapiens

>  <Target Description>
Target is a single protein chain

>  <Sequence Accession>
P08684

>  <Reference>
Bioorg Med Chem 15 (17), 5912-5949 (2007)

>  <Pubmed ID>
17574423

>  <DOI>
10.1016/j.bmc.2007.05.069

$$$$
405801
Actelion Java MolfileCreator 1.0

 36 39  0  0  0  0  0  0  0  0999 V2000
    0.0000   -0.0000   -0.0000 F   0  0  0  0  0  0  0  0  0  0  0  0
    0.7344    1.3030   -0.0000 C   0  0  0  0  0  0  0  0  0  0  0  0
   -0.0237    2.6061   -0.0000 C   0  0  0  0  0  0  0  0  0  0  0  0
    2.2151    1.3149   -0.0000 C   0  0  0  0  0  0  0  0  0  0  0  0
    0.6989    3.8972   -0.0000 C   0  0  0  0  0  0  0  0  0  0  0  0
   -1.5281    2.6179   -0.0000 C   0  0  0  0  0  0  0  0  0  0  0  0
    2.9496    2.6297   -0.0000 C   0  0  0  0  0  0  0  0  0  0  0  0
    2.1678    3.9209   -0.0000 C   0  0  0  0  0  0  0  0  0  0  0  0
   -2.8430    1.8835   -0.0000 O   0  0  0  0  0  0  0  0  0  0  0  0
   -1.5399    4.1341   -0.0000 C   0  0  0  0  0  0  0  0  0  0  0  0
   -1.5518    1.1372   -0.0000 C   0  0  0  0  0  0  0  0  0  0  0  0
    2.8903    5.2358   -0.0000 F   0  0  0  0  0  0  0  0  0  0  0  0
   -4.1460    2.6416   -0.0000 C   0  0  0  0  0  0  0  0  0  0  0  0
   -0.2606    4.8923   -0.0000 O   0  0  0  0  0  0  0  0  0  0  0  0
   -2.8667    4.9041   -0.0000 N   0  0  0  0  0  0  0  0  0  0  0  0
   -4.1578    4.1578   -0.0000 C   0  0  0  0  0  0  0  0  0  0  0  0
   -5.4490    1.9072   -0.0000 C   0  0  0  0  0  0  0  0  0  0  0  0
   -2.8785    6.4085   -0.0000 C   0  0  0  0  0  0  0  0  0  0  0  0
   -5.4727    4.9041   -0.0000 C   0  0  0  0  0  0  0  0  0  0  0  0
   -6.7520    2.6653   -0.0000 C   0  0  0  0  0  0  0  0  0  0  0  0
   -1.5992    7.1666   -0.0000 C   0  0  0  0  0  0  0  0  0  0  0  0
   -6.7639    4.1697   -0.0000 C   0  0  0  0  0  0  0  0  0  0  0  0
   -1.6110    8.6710   -0.0000 N   0  0  0  0  0  0  0  0  0  0  0  0
   -8.0551    4.9278   -0.0000 C   0  0  0  0  0  0  0  0  0  0  0  0
   -0.3317    9.4292   -0.0000 C   0  0  0  0  0  0  0  0  0  0  0  0
   -9.3699    4.1934   -0.0000 C   0  0  0  0  0  0  0  0  0  0  0  0
   -8.0669    6.4441   -0.0000 C   0  0  0  0  0  0  0  0  0  0  0  0
   -0.3435   10.9336   -0.0000 O   0  0  0  0  0  0  0  0  0  0  0  0
    0.9595    8.6947   -0.0000 C   0  0  0  0  0  0  0  0  0  0  0  0
  -10.6730    4.9515   -0.0000 N   0  0  0  0  0  0  0  0  0  0  0  0
   -9.3818    2.7127   -0.0000 N   0  0  0  0  0  0  0  0  0  0  0  0
   -9.3818    7.1903   -0.0000 N   0  0  0  0  0  0  0  0  0  0  0  0
   -6.7876    7.2022   -0.0000 C   0  0  0  0  0  0  0  0  0  0  0  0
  -10.6848    6.4559   -0.0000 C   0  0  0  0  0  0  0  0  0  0  0  0
   -6.8113    8.7066   -0.0000 C   0  0  0  0  0  0  0  0  0  0  0  0
  -11.9997    7.2140   -0.0000 N   0  0  0  0  0  0  0  0  0  0  0  0
  1  2  1  0  0  0  0
  2  3  2  0  0  0  0
  2  4  1  0  0  0  0
  3  5  1  0  0  0  0
  3  6  1  0  0  0  0
  4  7  2  0  0  0  0
  5  8  2  0  0  0  0
  6  9  1  0  0  0  0
  6 10  1  0  0  0  0
  6 11  1  0  0  0  0
  8 12  1  0  0  0  0
  9 13  1  0  0  0  0
 10 14  2  0  0  0  0
 10 15  1  0  0  0  0
 13 16  2  0  0  0  0
 13 17  1  0  0  0  0
 15 18  1  0  0  0  0
 16 19  1  0  0  0  0
 17 20  2  0  0  0  0
 18 21  1  0  0  0  0
 19 22  2  0  0  0  0
 21 23  1  0  0  0  0
 22 24  1  0  0  0  0
 23 25  1  0  0  0  0
 24 26  2  0  0  0  0
 24 27  1  0  0  0  0
 25 28  2  0  0  0  0
 25 29  1  0  0  0  0
 26 30  1  0  0  0  0
 26 31  1  0  0  0  0
 27 32  2  0  0  0  0
 27 33  1  0  0  0  0
 30 34  2  0  0  0  0
 33 35  1  0  0  0  0
 34 36  1  0  0  0  0
  7  8  1  0  0  0  0
 15 16  1  0  0  0  0
 20 22  1  0  0  0  0
 32 34  1  0  0  0  0
M  END
>  <MolRegNo>
405801

>  <m>
=

>  <Value>
1900

>  <Unit>
nM

>  <Type>
IC50

>  <pValue>
5.72

>  <Ligand Efficiency>
0

>  <Binding Efficiency>
0

>  <Surface Efficiency>
0

>  <Assay Index>
297170

>  <Assay Category>


>  <Assay Organism>


>  <Target ID>
17045

>  <Target Name>
Cytochrome P450 3A4

>  <Target Organism>
Homo sapiens

>  <Target Description>
Target is a single protein chain

>  <Sequence Accession>
P08684

>  <Reference>
Bioorg Med Chem 15 (17), 5912-5949 (2007)

>  <Pubmed ID>
17574423

>  <DOI>
10.1016/j.bmc.2007.05.069

$$$$
405796
Actelion Java MolfileCreator 1.0

 35 38  0  0  0  0  0  0  0  0999 V2000
    0.0000   -0.0000   -0.0000 Cl  0  0  0  0  0  0  0  0  0  0  0  0
   -1.5029   -0.0000   -0.0000 C   0  0  0  0  0  0  0  0  0  0  0  0
   -2.2602   -1.2899   -0.0000 C   0  0  0  0  0  0  0  0  0  0  0  0
   -2.2720    1.3017   -0.0000 C   0  0  0  0  0  0  0  0  0  0  0  0
   -3.7631   -1.2780   -0.0000 C   0  0  0  0  0  0  0  0  0  0  0  0
   -3.7631    1.3017   -0.0000 C   0  0  0  0  0  0  0  0  0  0  0  0
   -4.5204    0.0237   -0.0000 C   0  0  0  0  0  0  0  0  0  0  0  0
   -6.0233    0.0355   -0.0000 C   0  0  0  0  0  0  0  0  0  0  0  0
   -7.3368   -0.6982   -0.0000 O   0  0  0  0  0  0  0  0  0  0  0  0
   -6.0351    1.5502   -0.0000 C   0  0  0  0  0  0  0  0  0  0  0  0
   -6.0470   -1.4437   -0.0000 C   0  0  0  0  0  0  0  0  0  0  0  0
   -8.6503    0.0592   -0.0000 C   0  0  0  0  0  0  0  0  0  0  0  0
   -4.7571    2.3075   -0.0000 O   0  0  0  0  0  0  0  0  0  0  0  0
   -7.3487    2.3194   -0.0000 N   0  0  0  0  0  0  0  0  0  0  0  0
   -8.6622    1.5739   -0.0000 C   0  0  0  0  0  0  0  0  0  0  0  0
   -9.9402   -0.6745   -0.0000 C   0  0  0  0  0  0  0  0  0  0  0  0
   -7.3605    3.8222   -0.0000 C   0  0  0  0  0  0  0  0  0  0  0  0
   -9.9639    2.3194   -0.0000 C   0  0  0  0  0  0  0  0  0  0  0  0
  -11.2537    0.0828   -0.0000 C   0  0  0  0  0  0  0  0  0  0  0  0
   -6.0825    4.5796   -0.0000 C   0  0  0  0  0  0  0  0  0  0  0  0
  -11.2656    1.5857   -0.0000 C   0  0  0  0  0  0  0  0  0  0  0  0
   -6.0943    6.0825   -0.0000 N   0  0  0  0  0  0  0  0  0  0  0  0
  -12.5554    2.3430   -0.0000 C   0  0  0  0  0  0  0  0  0  0  0  0
   -4.8163    6.8398   -0.0000 C   0  0  0  0  0  0  0  0  0  0  0  0
  -13.8690    1.6094   -0.0000 C   0  0  0  0  0  0  0  0  0  0  0  0
  -12.5673    3.8577   -0.0000 C   0  0  0  0  0  0  0  0  0  0  0  0
   -4.8281    8.3427   -0.0000 O   0  0  0  0  0  0  0  0  0  0  0  0
   -3.5382    6.1061   -0.0000 C   0  0  0  0  0  0  0  0  0  0  0  0
  -15.1707    2.3667   -0.0000 N   0  0  0  0  0  0  0  0  0  0  0  0
  -13.8808    0.1302   -0.0000 N   0  0  0  0  0  0  0  0  0  0  0  0
  -13.8808    4.6033   -0.0000 N   0  0  0  0  0  0  0  0  0  0  0  0
  -11.2892    4.6151   -0.0000 C   0  0  0  0  0  0  0  0  0  0  0  0
  -15.1825    3.8696   -0.0000 C   0  0  0  0  0  0  0  0  0  0  0  0
  -11.3129    6.1180   -0.0000 C   0  0  0  0  0  0  0  0  0  0  0  0
  -16.4842    4.6269   -0.0000 N   0  0  0  0  0  0  0  0  0  0  0  0
  1  2  1  0  0  0  0
  2  3  2  0  0  0  0
  2  4  1  0  0  0  0
  3  5  1  0  0  0  0
  4  6  2  0  0  0  0
  5  7  2  0  0  0  0
  7  8  1  0  0  0  0
  8  9  1  0  0  0  0
  8 10  1  0  0  0  0
  8 11  1  0  0  0  0
  9 12  1  0  0  0  0
 10 13  2  0  0  0  0
 10 14  1  0  0  0  0
 12 15  2  0  0  0  0
 12 16  1  0  0  0  0
 14 17  1  0  0  0  0
 15 18  1  0  0  0  0
 16 19  2  0  0  0  0
 17 20  1  0  0  0  0
 18 21  2  0  0  0  0
 20 22  1  0  0  0  0
 21 23  1  0  0  0  0
 22 24  1  0  0  0  0
 23 25  2  0  0  0  0
 23 26  1  0  0  0  0
 24 27  2  0  0  0  0
 24 28  1  0  0  0  0
 25 29  1  0  0  0  0
 25 30  1  0  0  0  0
 26 31  2  0  0  0  0
 26 32  1  0  0  0  0
 29 33  2  0  0  0  0
 32 34  1  0  0  0  0
 33 35  1  0  0  0  0
  6  7  1  0  0  0  0
 14 15  1  0  0  0  0
 19 21  1  0  0  0  0
 31 33  1  0  0  0  0
M  END
>  <MolRegNo>
405796

>  <m>
=

>  <Value>
590

>  <Unit>
nM

>  <Type>
IC50

>  <pValue>
6.23

>  <Ligand Efficiency>
0

>  <Binding Efficiency>
0

>  <Surface Efficiency>
0

>  <Assay Index>
297170

>  <Assay Category>


>  <Assay Organism>


>  <Target ID>
17045

>  <Target Name>
Cytochrome P450 3A4

>  <Target Organism>
Homo sapiens

>  <Target Description>
Target is a single protein chain

>  <Sequence Accession>
P08684

>  <Reference>
Bioorg Med Chem 15 (17), 5912-5949 (2007)

>  <Pubmed ID>
17574423

>  <DOI>
10.1016/j.bmc.2007.05.069

$$$$
405794
Actelion Java MolfileCreator 1.0

 38 41  0  0  0  0  0  0  0  0999 V2000
    0.0000   -0.0000   -0.0000 F   0  0  0  0  0  0  0  0  0  0  0  0
   -0.7575    1.2900   -0.0000 C   0  0  0  0  0  0  0  0  0  0  0  0
    0.5326    2.0475   -0.0000 F   0  0  0  0  0  0  0  0  0  0  0  0
   -2.0593    0.5444   -0.0000 F   0  0  0  0  0  0  0  0  0  0  0  0
   -1.5149    2.5919   -0.0000 C   0  0  0  0  0  0  0  0  0  0  0  0
   -3.0180    2.6038   -0.0000 C   0  0  0  0  0  0  0  0  0  0  0  0
   -0.7811    3.8938   -0.0000 C   0  0  0  0  0  0  0  0  0  0  0  0
   -3.7754    3.9056   -0.0000 C   0  0  0  0  0  0  0  0  0  0  0  0
   -1.5504    5.1957   -0.0000 C   0  0  0  0  0  0  0  0  0  0  0  0
   -3.0417    5.2075   -0.0000 C   0  0  0  0  0  0  0  0  0  0  0  0
   -5.2785    3.9175   -0.0000 C   0  0  0  0  0  0  0  0  0  0  0  0
   -6.5922    3.1837   -0.0000 O   0  0  0  0  0  0  0  0  0  0  0  0
   -5.2903    5.4324   -0.0000 C   0  0  0  0  0  0  0  0  0  0  0  0
   -5.3022    2.4381   -0.0000 C   0  0  0  0  0  0  0  0  0  0  0  0
   -7.8941    3.9411   -0.0000 C   0  0  0  0  0  0  0  0  0  0  0  0
   -4.0003    6.1898   -0.0000 O   0  0  0  0  0  0  0  0  0  0  0  0
   -6.6041    6.2017   -0.0000 N   0  0  0  0  0  0  0  0  0  0  0  0
   -7.9059    5.4560   -0.0000 C   0  0  0  0  0  0  0  0  0  0  0  0
   -9.1960    3.2073   -0.0000 C   0  0  0  0  0  0  0  0  0  0  0  0
   -6.6159    7.7047   -0.0000 C   0  0  0  0  0  0  0  0  0  0  0  0
   -9.2196    6.2017   -0.0000 C   0  0  0  0  0  0  0  0  0  0  0  0
  -10.4979    3.9648   -0.0000 C   0  0  0  0  0  0  0  0  0  0  0  0
   -5.3377    8.4622   -0.0000 C   0  0  0  0  0  0  0  0  0  0  0  0
  -10.5097    5.4679   -0.0000 C   0  0  0  0  0  0  0  0  0  0  0  0
   -5.3495    9.9653   -0.0000 N   0  0  0  0  0  0  0  0  0  0  0  0
  -11.8116    6.2253   -0.0000 C   0  0  0  0  0  0  0  0  0  0  0  0
   -4.0713   10.7227   -0.0000 C   0  0  0  0  0  0  0  0  0  0  0  0
  -13.1134    5.4915   -0.0000 C   0  0  0  0  0  0  0  0  0  0  0  0
  -11.8234    7.7402   -0.0000 C   0  0  0  0  0  0  0  0  0  0  0  0
   -4.0832   12.2258   -0.0000 O   0  0  0  0  0  0  0  0  0  0  0  0
   -2.7931    9.9889   -0.0000 C   0  0  0  0  0  0  0  0  0  0  0  0
  -14.4153    6.2490   -0.0000 N   0  0  0  0  0  0  0  0  0  0  0  0
  -13.1253    4.0121   -0.0000 N   0  0  0  0  0  0  0  0  0  0  0  0
  -13.1253    8.4859   -0.0000 N   0  0  0  0  0  0  0  0  0  0  0  0
  -10.5452    8.4977   -0.0000 C   0  0  0  0  0  0  0  0  0  0  0  0
  -14.4271    7.7521   -0.0000 C   0  0  0  0  0  0  0  0  0  0  0  0
  -10.5689   10.0008   -0.0000 C   0  0  0  0  0  0  0  0  0  0  0  0
  -15.7409    8.5095   -0.0000 N   0  0  0  0  0  0  0  0  0  0  0  0
  1  2  1  0  0  0  0
  2  3  1  0  0  0  0
  2  4  1  0  0  0  0
  2  5  1  0  0  0  0
  5  6  2  0  0  0  0
  5  7  1  0  0  0  0
  6  8  1  0  0  0  0
  7  9  2  0  0  0  0
  8 10  2  0  0  0  0
  8 11  1  0  0  0  0
 11 12  1  0  0  0  0
 11 13  1  0  0  0  0
 11 14  1  0  0  0  0
 12 15  1  0  0  0  0
 13 16  2  0  0  0  0
 13 17  1  0  0  0  0
 15 18  2  0  0  0  0
 15 19  1  0  0  0  0
 17 20  1  0  0  0  0
 18 21  1  0  0  0  0
 19 22  2  0  0  0  0
 20 23  1  0  0  0  0
 21 24  2  0  0  0  0
 23 25  1  0  0  0  0
 24 26  1  0  0  0  0
 25 27  1  0  0  0  0
 26 28  2  0  0  0  0
 26 29  1  0  0  0  0
 27 30  2  0  0  0  0
 27 31  1  0  0  0  0
 28 32  1  0  0  0  0
 28 33  1  0  0  0  0
 29 34  2  0  0  0  0
 29 35  1  0  0  0  0
 32 36  2  0  0  0  0
 35 37  1  0  0  0  0
 36 38  1  0  0  0  0
  9 10  1  0  0  0  0
 17 18  1  0  0  0  0
 22 24  1  0  0  0  0
 34 36  1  0  0  0  0
M  END
>  <MolRegNo>
405794

>  <m>
=

>  <Value>
120

>  <Unit>
nM

>  <Type>
IC50

>  <pValue>
6.92

>  <Ligand Efficiency>
0

>  <Binding Efficiency>
0

>  <Surface Efficiency>
0

>  <Assay Index>
297170

>  <Assay Category>


>  <Assay Organism>


>  <Target ID>
17045

>  <Target Name>
Cytochrome P450 3A4

>  <Target Organism>
Homo sapiens

>  <Target Description>
Target is a single protein chain

>  <Sequence Accession>
P08684

>  <Reference>
Bioorg Med Chem 15 (17), 5912-5949 (2007)

>  <Pubmed ID>
17574423

>  <DOI>
10.1016/j.bmc.2007.05.069

$$$$
405793
Actelion Java MolfileCreator 1.0

 35 38  0  0  0  0  0  0  0  0999 V2000
    0.0000   -0.0000   -0.0000 F   0  0  0  0  0  0  0  0  0  0  0  0
   -0.7571    1.3013   -0.0000 C   0  0  0  0  0  0  0  0  0  0  0  0
   -0.0237    2.6145   -0.0000 C   0  0  0  0  0  0  0  0  0  0  0  0
   -2.2596    1.3132   -0.0000 C   0  0  0  0  0  0  0  0  0  0  0  0
    1.4551    2.6381   -0.0000 F   0  0  0  0  0  0  0  0  0  0  0  0
   -0.7926    3.9158   -0.0000 C   0  0  0  0  0  0  0  0  0  0  0  0
   -3.0167    2.6145   -0.0000 C   0  0  0  0  0  0  0  0  0  0  0  0
   -2.2832    3.9158   -0.0000 C   0  0  0  0  0  0  0  0  0  0  0  0
   -4.5192    2.6263   -0.0000 C   0  0  0  0  0  0  0  0  0  0  0  0
   -5.8323    1.8928   -0.0000 O   0  0  0  0  0  0  0  0  0  0  0  0
   -4.5310    4.1406   -0.0000 C   0  0  0  0  0  0  0  0  0  0  0  0
   -4.5428    1.1475   -0.0000 C   0  0  0  0  0  0  0  0  0  0  0  0
   -7.1336    2.6500   -0.0000 C   0  0  0  0  0  0  0  0  0  0  0  0
   -3.2533    4.8977   -0.0000 O   0  0  0  0  0  0  0  0  0  0  0  0
   -5.8560    4.9096   -0.0000 N   0  0  0  0  0  0  0  0  0  0  0  0
   -7.1455    4.1643   -0.0000 C   0  0  0  0  0  0  0  0  0  0  0  0
   -8.4350    1.9165   -0.0000 C   0  0  0  0  0  0  0  0  0  0  0  0
   -5.8678    6.4120   -0.0000 C   0  0  0  0  0  0  0  0  0  0  0  0
   -8.4586    4.9096   -0.0000 C   0  0  0  0  0  0  0  0  0  0  0  0
   -9.7363    2.6736   -0.0000 C   0  0  0  0  0  0  0  0  0  0  0  0
   -4.5901    7.1691   -0.0000 C   0  0  0  0  0  0  0  0  0  0  0  0
   -9.7481    4.1761   -0.0000 C   0  0  0  0  0  0  0  0  0  0  0  0
   -4.6020    8.6716   -0.0000 C   0  0  0  0  0  0  0  0  0  0  0  0
  -11.0376    4.9332   -0.0000 C   0  0  0  0  0  0  0  0  0  0  0  0
   -3.3243    9.4287   -0.0000 O   0  0  0  0  0  0  0  0  0  0  0  0
  -12.3508    4.1997   -0.0000 C   0  0  0  0  0  0  0  0  0  0  0  0
  -11.0495    6.4475   -0.0000 C   0  0  0  0  0  0  0  0  0  0  0  0
   -3.3361   10.9312   -0.0000 C   0  0  0  0  0  0  0  0  0  0  0  0
  -13.6521    4.9569   -0.0000 N   0  0  0  0  0  0  0  0  0  0  0  0
  -12.3626    2.7210   -0.0000 N   0  0  0  0  0  0  0  0  0  0  0  0
  -12.3626    7.1928   -0.0000 N   0  0  0  0  0  0  0  0  0  0  0  0
   -9.7718    7.2046   -0.0000 C   0  0  0  0  0  0  0  0  0  0  0  0
  -13.6640    6.4593   -0.0000 C   0  0  0  0  0  0  0  0  0  0  0  0
   -9.7955    8.7071   -0.0000 C   0  0  0  0  0  0  0  0  0  0  0  0
  -14.9771    7.2165   -0.0000 N   0  0  0  0  0  0  0  0  0  0  0  0
  1  2  1  0  0  0  0
  2  3  2  0  0  0  0
  2  4  1  0  0  0  0
  3  5  1  0  0  0  0
  3  6  1  0  0  0  0
  4  7  2  0  0  0  0
  6  8  2  0  0  0  0
  7  9  1  0  0  0  0
  9 10  1  0  0  0  0
  9 11  1  0  0  0  0
  9 12  1  0  0  0  0
 10 13  1  0  0  0  0
 11 14  2  0  0  0  0
 11 15  1  0  0  0  0
 13 16  2  0  0  0  0
 13 17  1  0  0  0  0
 15 18  1  0  0  0  0
 16 19  1  0  0  0  0
 17 20  2  0  0  0  0
 18 21  1  0  0  0  0
 19 22  2  0  0  0  0
 21 23  1  0  0  0  0
 22 24  1  0  0  0  0
 23 25  1  0  0  0  0
 24 26  2  0  0  0  0
 24 27  1  0  0  0  0
 25 28  1  0  0  0  0
 26 29  1  0  0  0  0
 26 30  1  0  0  0  0
 27 31  2  0  0  0  0
 27 32  1  0  0  0  0
 29 33  2  0  0  0  0
 32 34  1  0  0  0  0
 33 35  1  0  0  0  0
  7  8  1  0  0  0  0
 15 16  1  0  0  0  0
 20 22  1  0  0  0  0
 31 33  1  0  0  0  0
M  END
>  <MolRegNo>
405793

>  <m>
=

>  <Value>
920

>  <Unit>
nM

>  <Type>
IC50

>  <pValue>
6.04

>  <Ligand Efficiency>
0

>  <Binding Efficiency>
0

>  <Surface Efficiency>
0

>  <Assay Index>
297170

>  <Assay Category>


>  <Assay Organism>


>  <Target ID>
17045

>  <Target Name>
Cytochrome P450 3A4

>  <Target Organism>
Homo sapiens

>  <Target Description>
Target is a single protein chain

>  <Sequence Accession>
P08684

>  <Reference>
Bioorg Med Chem 15 (17), 5912-5949 (2007)

>  <Pubmed ID>
17574423

>  <DOI>
10.1016/j.bmc.2007.05.069

$$$$
405791
Actelion Java MolfileCreator 1.0

 36 39  0  0  0  0  0  0  0  0999 V2000
    0.0000   -0.0000   -0.0000 F   0  0  0  0  0  0  0  0  0  0  0  0
   -0.7569    1.3009   -0.0000 C   0  0  0  0  0  0  0  0  0  0  0  0
   -0.0237    2.6137   -0.0000 C   0  0  0  0  0  0  0  0  0  0  0  0
   -2.2589    1.3128   -0.0000 C   0  0  0  0  0  0  0  0  0  0  0  0
   -0.7924    3.9146   -0.0000 C   0  0  0  0  0  0  0  0  0  0  0  0
   -3.0158    2.6137   -0.0000 C   0  0  0  0  0  0  0  0  0  0  0  0
   -0.0710    5.2274   -0.0000 F   0  0  0  0  0  0  0  0  0  0  0  0
   -2.2825    3.9146   -0.0000 C   0  0  0  0  0  0  0  0  0  0  0  0
   -4.5178    2.6255   -0.0000 C   0  0  0  0  0  0  0  0  0  0  0  0
   -5.8305    1.8923   -0.0000 O   0  0  0  0  0  0  0  0  0  0  0  0
   -4.5296    4.1393   -0.0000 C   0  0  0  0  0  0  0  0  0  0  0  0
   -4.5414    1.1472   -0.0000 C   0  0  0  0  0  0  0  0  0  0  0  0
   -7.1315    2.6492   -0.0000 C   0  0  0  0  0  0  0  0  0  0  0  0
   -3.2523    4.8962   -0.0000 O   0  0  0  0  0  0  0  0  0  0  0  0
   -5.8542    4.9081   -0.0000 N   0  0  0  0  0  0  0  0  0  0  0  0
   -5.8542    0.4258   -0.0000 C   0  0  0  0  0  0  0  0  0  0  0  0
   -7.1433    4.1630   -0.0000 C   0  0  0  0  0  0  0  0  0  0  0  0
   -8.4324    1.9159   -0.0000 C   0  0  0  0  0  0  0  0  0  0  0  0
   -5.8660    6.4101   -0.0000 C   0  0  0  0  0  0  0  0  0  0  0  0
   -8.4561    4.9081   -0.0000 C   0  0  0  0  0  0  0  0  0  0  0  0
   -9.7333    2.6728   -0.0000 C   0  0  0  0  0  0  0  0  0  0  0  0
   -4.5887    7.1670   -0.0000 C   0  0  0  0  0  0  0  0  0  0  0  0
   -9.7452    4.1748   -0.0000 C   0  0  0  0  0  0  0  0  0  0  0  0
   -4.6006    8.6689   -0.0000 C   0  0  0  0  0  0  0  0  0  0  0  0
  -11.0343    4.9317   -0.0000 C   0  0  0  0  0  0  0  0  0  0  0  0
   -3.3233    9.4259   -0.0000 O   0  0  0  0  0  0  0  0  0  0  0  0
  -12.3470    4.1985   -0.0000 C   0  0  0  0  0  0  0  0  0  0  0  0
  -11.0461    6.4455   -0.0000 C   0  0  0  0  0  0  0  0  0  0  0  0
   -3.3351   10.9278   -0.0000 C   0  0  0  0  0  0  0  0  0  0  0  0
  -13.6480    4.9554   -0.0000 N   0  0  0  0  0  0  0  0  0  0  0  0
  -12.3589    2.7201   -0.0000 N   0  0  0  0  0  0  0  0  0  0  0  0
  -12.3589    7.1906   -0.0000 N   0  0  0  0  0  0  0  0  0  0  0  0
   -9.7688    7.2024   -0.0000 C   0  0  0  0  0  0  0  0  0  0  0  0
  -13.6598    6.4574   -0.0000 C   0  0  0  0  0  0  0  0  0  0  0  0
   -9.7925    8.7044   -0.0000 C   0  0  0  0  0  0  0  0  0  0  0  0
  -14.9726    7.2143   -0.0000 N   0  0  0  0  0  0  0  0  0  0  0  0
  1  2  1  0  0  0  0
  2  3  2  0  0  0  0
  2  4  1  0  0  0  0
  3  5  1  0  0  0  0
  4  6  2  0  0  0  0
  5  7  1  0  0  0  0
  5  8  2  0  0  0  0
  6  9  1  0  0  0  0
  9 10  1  0  0  0  0
  9 11  1  0  0  0  0
  9 12  1  0  0  0  0
 10 13  1  0  0  0  0
 11 14  2  0  0  0  0
 11 15  1  0  0  0  0
 12 16  1  0  0  0  0
 13 17  2  0  0  0  0
 13 18  1  0  0  0  0
 15 19  1  0  0  0  0
 17 20  1  0  0  0  0
 18 21  2  0  0  0  0
 19 22  1  0  0  0  0
 20 23  2  0  0  0  0
 22 24  1  0  0  0  0
 23 25  1  0  0  0  0
 24 26  1  0  0  0  0
 25 27  2  0  0  0  0
 25 28  1  0  0  0  0
 26 29  1  0  0  0  0
 27 30  1  0  0  0  0
 27 31  1  0  0  0  0
 28 32  2  0  0  0  0
 28 33  1  0  0  0  0
 30 34  2  0  0  0  0
 33 35  1  0  0  0  0
 34 36  1  0  0  0  0
  6  8  1  0  0  0  0
 15 17  1  0  0  0  0
 21 23  1  0  0  0  0
 32 34  1  0  0  0  0
M  END
>  <MolRegNo>
405791

>  <m>
=

>  <Value>
460

>  <Unit>
nM

>  <Type>
IC50

>  <pValue>
6.34

>  <Ligand Efficiency>
0

>  <Binding Efficiency>
0

>  <Surface Efficiency>
0

>  <Assay Index>
297170

>  <Assay Category>


>  <Assay Organism>


>  <Target ID>
17045

>  <Target Name>
Cytochrome P450 3A4

>  <Target Organism>
Homo sapiens

>  <Target Description>
Target is a single protein chain

>  <Sequence Accession>
P08684

>  <Reference>
Bioorg Med Chem 15 (17), 5912-5949 (2007)

>  <Pubmed ID>
17574423

>  <DOI>
10.1016/j.bmc.2007.05.069

$$$$
405787
Actelion Java MolfileCreator 1.0

 30 32  0  0  0  0  0  0  0  0999 V2000
    0.0000   -0.0000   -0.0000 O   0  0  0  0  0  0  0  0  0  0  0  0
   -1.3166   -0.7354   -0.0000 C   0  0  0  0  0  0  0  0  0  0  0  0
   -2.6332    0.0356   -0.0000 N   0  0  0  0  0  0  0  0  0  0  0  0
   -1.3284   -2.2180   -0.0000 C   0  0  0  0  0  0  0  0  0  0  0  0
   -3.9379   -0.7117   -0.0000 C   0  0  0  0  0  0  0  0  0  0  0  0
   -2.6450    1.5419   -0.0000 C   0  0  0  0  0  0  0  0  0  0  0  0
   -2.6450   -2.9534   -0.0000 O   0  0  0  0  0  0  0  0  0  0  0  0
   -0.0474   -1.4589   -0.0000 C   0  0  0  0  0  0  0  0  0  0  0  0
   -1.3166   -3.7006   -0.0000 C   0  0  0  0  0  0  0  0  0  0  0  0
   -3.9497   -2.1943   -0.0000 C   0  0  0  0  0  0  0  0  0  0  0  0
   -5.2544    0.0474   -0.0000 C   0  0  0  0  0  0  0  0  0  0  0  0
   -1.3640    2.3010   -0.0000 C   0  0  0  0  0  0  0  0  0  0  0  0
    1.2454   -2.1824   -0.0000 C   0  0  0  0  0  0  0  0  0  0  0  0
   -0.0237   -4.4242   -0.0000 C   0  0  0  0  0  0  0  0  0  0  0  0
   -5.2544   -2.9297   -0.0000 C   0  0  0  0  0  0  0  0  0  0  0  0
   -6.5473   -0.6879   -0.0000 C   0  0  0  0  0  0  0  0  0  0  0  0
   -1.3759    3.8074   -0.0000 C   0  0  0  0  0  0  0  0  0  0  0  0
   -6.5592   -2.1706   -0.0000 C   0  0  0  0  0  0  0  0  0  0  0  0
   -7.8520    0.0712   -0.0000 C   0  0  0  0  0  0  0  0  0  0  0  0
   -0.0949    4.5665   -0.0000 O   0  0  0  0  0  0  0  0  0  0  0  0
   -9.1567   -0.6642   -0.0000 C   0  0  0  0  0  0  0  0  0  0  0  0
   -7.8639    1.5894   -0.0000 C   0  0  0  0  0  0  0  0  0  0  0  0
   -0.1067    6.0729   -0.0000 C   0  0  0  0  0  0  0  0  0  0  0  0
  -10.4733    0.0949   -0.0000 N   0  0  0  0  0  0  0  0  0  0  0  0
   -9.1686   -2.1468   -0.0000 N   0  0  0  0  0  0  0  0  0  0  0  0
   -9.1686    2.3366   -0.0000 N   0  0  0  0  0  0  0  0  0  0  0  0
   -6.5829    2.3485   -0.0000 C   0  0  0  0  0  0  0  0  0  0  0  0
  -10.4852    1.6012   -0.0000 C   0  0  0  0  0  0  0  0  0  0  0  0
   -6.6066    3.8548   -0.0000 C   0  0  0  0  0  0  0  0  0  0  0  0
  -11.7899    2.3603   -0.0000 N   0  0  0  0  0  0  0  0  0  0  0  0
  1  2  2  0  0  0  0
  2  3  1  0  0  0  0
  2  4  1  0  0  0  0
  3  5  1  0  0  0  0
  3  6  1  0  0  0  0
  4  7  1  0  0  0  0
  4  8  1  0  0  0  0
  4  9  1  0  0  0  0
  5 10  2  0  0  0  0
  5 11  1  0  0  0  0
  6 12  1  0  0  0  0
  8 13  1  0  0  0  0
  9 14  1  0  0  0  0
 10 15  1  0  0  0  0
 11 16  2  0  0  0  0
 12 17  1  0  0  0  0
 15 18  2  0  0  0  0
 16 19  1  0  0  0  0
 17 20  1  0  0  0  0
 19 21  2  0  0  0  0
 19 22  1  0  0  0  0
 20 23  1  0  0  0  0
 21 24  1  0  0  0  0
 21 25  1  0  0  0  0
 22 26  2  0  0  0  0
 22 27  1  0  0  0  0
 24 28  2  0  0  0  0
 27 29  1  0  0  0  0
 28 30  1  0  0  0  0
  7 10  1  0  0  0  0
 16 18  1  0  0  0  0
 26 28  1  0  0  0  0
M  END
>  <MolRegNo>
405787

>  <m>
=

>  <Value>
3000

>  <Unit>
nM

>  <Type>
IC50

>  <pValue>
5.52

>  <Ligand Efficiency>
0

>  <Binding Efficiency>
0

>  <Surface Efficiency>
0

>  <Assay Index>
297170

>  <Assay Category>


>  <Assay Organism>


>  <Target ID>
17045

>  <Target Name>
Cytochrome P450 3A4

>  <Target Organism>
Homo sapiens

>  <Target Description>
Target is a single protein chain

>  <Sequence Accession>
P08684

>  <Reference>
Bioorg Med Chem 15 (17), 5912-5949 (2007)

>  <Pubmed ID>
17574423

>  <DOI>
10.1016/j.bmc.2007.05.069

$$$$
399370
Actelion Java MolfileCreator 1.0

 41 44  0  0  1  0  0  0  0  0999 V2000
    0.0000   -0.0000   -0.0000 F   0  0  0  0  0  0  0  0  0  0  0  0
   -1.3005   -0.7449   -0.0000 C   0  0  0  0  0  0  0  0  0  0  0  0
   -0.5557   -2.0336   -0.0000 F   0  0  0  0  0  0  0  0  0  0  0  0
   -2.0690    0.5557   -0.0000 F   0  0  0  0  0  0  0  0  0  0  0  0
   -2.6129   -1.4779   -0.0000 C   0  0  0  0  0  0  0  0  0  0  0  0
   -3.9253   -0.7212   -0.0000 C   0  0  0  0  0  0  0  0  0  0  0  0
   -2.6365   -2.9676   -0.0000 C   0  0  0  0  0  0  0  0  0  0  0  0
   -5.2376   -1.4542   -0.0000 C   0  0  0  0  0  0  0  0  0  0  0  0
   -3.9489   -3.7006   -0.0000 C   0  0  0  0  0  0  0  0  0  0  0  0
   -5.2494   -2.9439   -0.0000 C   0  0  0  0  0  0  0  0  0  0  0  0
   -6.5500   -0.6976   -0.0000 C   0  0  0  0  0  0  0  0  0  0  0  0
   -3.9726   -5.1903   -0.0000 C   0  0  0  0  0  0  0  0  0  0  0  0
   -7.8623    0.0591   -0.0000 F   0  0  0  0  0  0  0  0  0  0  0  0
   -7.3067   -1.9863   -0.0000 F   0  0  0  0  0  0  0  0  0  0  0  0
   -5.8051    0.6030   -0.0000 F   0  0  0  0  0  0  0  0  0  0  0  0
   -5.2849   -5.9234   -0.0000 N   0  0  0  0  0  0  0  0  0  0  0  0
   -5.3086   -7.4131   -0.0000 C   0  0  0  0  0  0  0  0  0  0  0  0
   -6.5973   -5.1549   -0.0000 C   0  0  0  0  0  0  0  0  0  0  0  0
   -4.0198   -8.1579   -0.0000 O   0  0  0  0  0  0  0  0  0  0  0  0
   -6.6209   -8.1579   -0.0000 C   0  0  0  0  0  0  0  0  0  0  0  0
   -6.7983   -9.6476   -0.0000 C   0  0  0  0  0  0  0  0  0  0  0  0
   -8.0042   -7.5313   -0.0000 C   0  0  0  0  0  0  0  0  0  0  0  0
   -6.8101  -11.1373   -0.0000 C   0  0  0  0  0  0  0  0  0  0  0  0
   -8.2643   -9.9432   -0.0000 C   0  0  0  0  0  0  0  0  0  0  0  0
   -9.0210   -8.6308   -0.0000 N   0  0  0  0  0  0  0  0  0  0  0  0
   -8.1224  -11.8704   -0.0000 C   0  0  0  0  0  0  0  0  0  0  0  0
   -5.5332  -11.8704   -0.0000 C   0  0  0  0  0  0  0  0  0  0  0  0
  -10.5225   -8.4535   -0.0000 C   0  0  0  0  0  0  0  0  0  0  0  0
   -8.1461  -13.3601   -0.0000 C   0  0  0  0  0  0  0  0  0  0  0  0
   -5.5450  -13.3482   -0.0000 C   0  0  0  0  0  0  0  0  0  0  0  0
  -11.1373   -7.0702   -0.0000 O   0  0  0  0  0  0  0  0  0  0  0  0
  -11.3029   -9.7304   -0.0000 C   0  0  0  0  0  0  0  0  0  0  0  0
   -6.8574  -14.1049   -0.0000 C   0  0  0  0  0  0  0  0  0  0  0  0
  -12.8162   -9.6949   -0.0000 C   0  0  0  0  0  0  0  0  0  0  0  0
  -10.5816  -11.0309   -0.0000 C   0  0  0  0  0  0  0  0  0  0  0  0
  -13.5965  -10.9600   -0.0000 C   0  0  0  0  0  0  0  0  0  0  0  0
  -11.3738  -12.3078   -0.0000 C   0  0  0  0  0  0  0  0  0  0  0  0
  -12.8871  -12.2605   -0.0000 N   0  0  0  0  0  0  0  0  0  0  0  0
  -13.6793  -13.5374   -0.0000 C   0  0  0  0  0  0  0  0  0  0  0  0
  -15.1926  -13.4901   -0.0000 O   0  0  0  0  0  0  0  0  0  0  0  0
  -12.9699  -14.8380   -0.0000 C   0  0  0  0  0  0  0  0  0  0  0  0
  1  2  1  0  0  0  0
  2  3  1  0  0  0  0
  2  4  1  0  0  0  0
  2  5  1  0  0  0  0
  5  6  2  0  0  0  0
  5  7  1  0  0  0  0
  6  8  1  0  0  0  0
  7  9  2  0  0  0  0
  8 10  2  0  0  0  0
  8 11  1  0  0  0  0
  9 12  1  0  0  0  0
 11 13  1  0  0  0  0
 11 14  1  0  0  0  0
 11 15  1  0  0  0  0
 12 16  1  0  0  0  0
 16 17  1  0  0  0  0
 16 18  1  0  0  0  0
 17 19  2  0  0  0  0
 20 17  1  6  0  0  0
 20 21  1  0  0  0  0
 20 22  1  0  0  0  0
 21 23  1  1  0  0  0
 21 24  1  0  0  0  0
 22 25  1  0  0  0  0
 23 26  2  0  0  0  0
 23 27  1  0  0  0  0
 25 28  1  0  0  0  0
 26 29  1  0  0  0  0
 27 30  2  0  0  0  0
 28 31  2  0  0  0  0
 28 32  1  0  0  0  0
 29 33  2  0  0  0  0
 32 34  1  0  0  0  0
 32 35  1  0  0  0  0
 34 36  1  0  0  0  0
 35 37  1  0  0  0  0
 36 38  1  0  0  0  0
 38 39  1  0  0  0  0
 39 40  2  0  0  0  0
 39 41  1  0  0  0  0
  9 10  1  0  0  0  0
 24 25  1  0  0  0  0
 30 33  1  0  0  0  0
 37 38  1  0  0  0  0
M  END
>  <MolRegNo>
399370

>  <m>
=

>  <Value>
18000

>  <Unit>
nM

>  <Type>
IC50

>  <pValue>
4.75

>  <Ligand Efficiency>
0

>  <Binding Efficiency>
0

>  <Surface Efficiency>
0

>  <Assay Index>
297938

>  <Assay Category>


>  <Assay Organism>
Homo sapiens

>  <Target ID>
17045

>  <Target Name>
Cytochrome P450 3A4

>  <Target Organism>
Homo sapiens

>  <Target Description>
Target is a single protein chain

>  <Sequence Accession>
P08684

>  <Reference>
Bioorg Med Chem Lett 17 (19), 5310-5315 (2007)

>  <Pubmed ID>
17723300

>  <DOI>
10.1016/j.bmcl.2007.08.028

$$$$
399389
Actelion Java MolfileCreator 1.0

 46 50  0  0  1  0  0  0  0  0999 V2000
    0.0000   -0.0000   -0.0000 F   0  0  0  0  0  0  0  0  0  0  0  0
   -0.0119    1.5127   -0.0000 C   0  0  0  0  0  0  0  0  0  0  0  0
    1.2864    2.2869   -0.0000 C   0  0  0  0  0  0  0  0  0  0  0  0
   -1.3221    2.2869   -0.0000 C   0  0  0  0  0  0  0  0  0  0  0  0
    1.2745    3.7995   -0.0000 C   0  0  0  0  0  0  0  0  0  0  0  0
   -1.3221    3.7995   -0.0000 C   0  0  0  0  0  0  0  0  0  0  0  0
   -0.0357    4.5618   -0.0000 C   0  0  0  0  0  0  0  0  0  0  0  0
    2.5608    4.5618   -0.0000 C   0  0  0  0  0  0  0  0  0  0  0  0
   -0.0476    6.0745   -0.0000 C   0  0  0  0  0  0  0  0  0  0  0  0
    0.1072    7.5872   -0.0000 C   0  0  0  0  0  0  0  0  0  0  0  0
   -1.5246    5.7886   -0.0000 C   0  0  0  0  0  0  0  0  0  0  0  0
    1.4055    8.3614   -0.0000 C   0  0  0  0  0  0  0  0  0  0  0  0
   -1.2745    8.2065   -0.0000 C   0  0  0  0  0  0  0  0  0  0  0  0
   -2.2869    7.1107   -0.0000 N   0  0  0  0  0  0  0  0  0  0  0  0
    1.5484    9.8859   -0.0000 N   0  0  0  0  0  0  0  0  0  0  0  0
    2.7752    7.7658   -0.0000 N   0  0  0  0  0  0  0  0  0  0  0  0
   -3.7995    7.2894   -0.0000 C   0  0  0  0  0  0  0  0  0  0  0  0
    3.0134   10.2194   -0.0000 O   0  0  0  0  0  0  0  0  0  0  0  0
    3.7757    8.9092   -0.0000 C   0  0  0  0  0  0  0  0  0  0  0  0
   -4.4189    8.6829   -0.0000 O   0  0  0  0  0  0  0  0  0  0  0  0
   -4.6928    6.0983   -0.0000 C   0  0  0  0  0  0  0  0  0  0  0  0
    5.2526    8.7663   -0.0000 C   0  0  0  0  0  0  0  0  0  0  0  0
   -6.1936    6.2770   -0.0000 C   0  0  0  0  0  0  0  0  0  0  0  0
   -4.0973    4.7405   -0.0000 C   0  0  0  0  0  0  0  0  0  0  0  0
    6.7415    8.7782   -0.0000 C   0  0  0  0  0  0  0  0  0  0  0  0
    5.1693    7.2894   -0.0000 C   0  0  0  0  0  0  0  0  0  0  0  0
    5.3122   10.2671   -0.0000 C   0  0  0  0  0  0  0  0  0  0  0  0
   -7.0869    5.0859   -0.0000 C   0  0  0  0  0  0  0  0  0  0  0  0
   -5.0025    3.5494   -0.0000 C   0  0  0  0  0  0  0  0  0  0  0  0
    7.4680   10.0765   -0.0000 C   0  0  0  0  0  0  0  0  0  0  0  0
    7.4800    7.4919   -0.0000 C   0  0  0  0  0  0  0  0  0  0  0  0
   -6.5033    3.7281   -0.0000 N   0  0  0  0  0  0  0  0  0  0  0  0
    8.9450   10.1003   -0.0000 C   0  0  0  0  0  0  0  0  0  0  0  0
    8.9569    7.5038   -0.0000 C   0  0  0  0  0  0  0  0  0  0  0  0
   -7.3966    2.5370   -0.0000 C   0  0  0  0  0  0  0  0  0  0  0  0
    9.6954    8.8140   -0.0000 C   0  0  0  0  0  0  0  0  0  0  0  0
    9.6715   11.4105   -0.0000 C   0  0  0  0  0  0  0  0  0  0  0  0
    9.6954    6.2174   -0.0000 C   0  0  0  0  0  0  0  0  0  0  0  0
   -8.8973    2.7157   -0.0000 O   0  0  0  0  0  0  0  0  0  0  0  0
   -6.8130    1.1792   -0.0000 C   0  0  0  0  0  0  0  0  0  0  0  0
   10.3981   12.7207   -0.0000 F   0  0  0  0  0  0  0  0  0  0  0  0
   10.9579   10.6840   -0.0000 F   0  0  0  0  0  0  0  0  0  0  0  0
    8.3614   12.1609   -0.0000 F   0  0  0  0  0  0  0  0  0  0  0  0
   10.4219    4.9430   -0.0000 F   0  0  0  0  0  0  0  0  0  0  0  0
   10.9817    6.9797   -0.0000 F   0  0  0  0  0  0  0  0  0  0  0  0
    8.3971    5.4790   -0.0000 F   0  0  0  0  0  0  0  0  0  0  0  0
  1  2  1  0  0  0  0
  2  3  2  0  0  0  0
  2  4  1  0  0  0  0
  3  5  1  0  0  0  0
  4  6  2  0  0  0  0
  5  7  2  0  0  0  0
  5  8  1  0  0  0  0
  9  7  1  1  0  0  0
  9 10  1  0  0  0  0
  9 11  1  0  0  0  0
 10 12  1  6  0  0  0
 10 13  1  0  0  0  0
 11 14  1  0  0  0  0
 12 15  2  0  0  0  0
 12 16  1  0  0  0  0
 14 17  1  0  0  0  0
 15 18  1  0  0  0  0
 16 19  2  0  0  0  0
 17 20  2  0  0  0  0
 17 21  1  0  0  0  0
 19 22  1  0  0  0  0
 21 23  1  0  0  0  0
 21 24  1  0  0  0  0
 22 25  1  0  0  0  0
 22 26  1  0  0  0  0
 22 27  1  0  0  0  0
 23 28  1  0  0  0  0
 24 29  1  0  0  0  0
 25 30  2  0  0  0  0
 25 31  1  0  0  0  0
 28 32  1  0  0  0  0
 30 33  1  0  0  0  0
 31 34  2  0  0  0  0
 32 35  1  0  0  0  0
 33 36  2  0  0  0  0
 33 37  1  0  0  0  0
 34 38  1  0  0  0  0
 35 39  2  0  0  0  0
 35 40  1  0  0  0  0
 37 41  1  0  0  0  0
 37 42  1  0  0  0  0
 37 43  1  0  0  0  0
 38 44  1  0  0  0  0
 38 45  1  0  0  0  0
 38 46  1  0  0  0  0
  6  7  1  0  0  0  0
 13 14  1  0  0  0  0
 18 19  1  0  0  0  0
 29 32  1  0  0  0  0
 34 36  1  0  0  0  0
M  END
>  <MolRegNo>
399389

>  <m>
=

>  <Value>
1.0e5

>  <Unit>
nM

>  <Type>
IC50

>  <pValue>
4

>  <Ligand Efficiency>
0

>  <Binding Efficiency>
0

>  <Surface Efficiency>
0

>  <Assay Index>
297938

>  <Assay Category>


>  <Assay Organism>
Homo sapiens

>  <Target ID>
17045

>  <Target Name>
Cytochrome P450 3A4

>  <Target Organism>
Homo sapiens

>  <Target Description>
Target is a single protein chain

>  <Sequence Accession>
P08684

>  <Reference>
Bioorg Med Chem Lett 17 (19), 5310-5315 (2007)

>  <Pubmed ID>
17723300

>  <DOI>
10.1016/j.bmcl.2007.08.028

$$$$
399388
Actelion Java MolfileCreator 1.0

 46 50  0  0  1  0  0  0  0  0999 V2000
    0.0000   -0.0000   -0.0000 F   0  0  0  0  0  0  0  0  0  0  0  0
   -0.0119    1.5120   -0.0000 C   0  0  0  0  0  0  0  0  0  0  0  0
    1.2858    2.2859   -0.0000 C   0  0  0  0  0  0  0  0  0  0  0  0
   -1.3215    2.2859   -0.0000 C   0  0  0  0  0  0  0  0  0  0  0  0
    1.2739    3.7979   -0.0000 C   0  0  0  0  0  0  0  0  0  0  0  0
   -1.3215    3.7979   -0.0000 C   0  0  0  0  0  0  0  0  0  0  0  0
   -0.0357    4.5599   -0.0000 C   0  0  0  0  0  0  0  0  0  0  0  0
    2.5597    4.5599   -0.0000 C   0  0  0  0  0  0  0  0  0  0  0  0
   -0.0476    6.0719   -0.0000 C   0  0  0  0  0  0  0  0  0  0  0  0
    0.1072    7.5839   -0.0000 C   0  0  0  0  0  0  0  0  0  0  0  0
   -1.5239    5.7862   -0.0000 C   0  0  0  0  0  0  0  0  0  0  0  0
    1.4049    8.3578   -0.0000 C   0  0  0  0  0  0  0  0  0  0  0  0
   -1.2739    8.2030   -0.0000 C   0  0  0  0  0  0  0  0  0  0  0  0
   -2.2859    7.1077   -0.0000 N   0  0  0  0  0  0  0  0  0  0  0  0
    1.5477    9.8817   -0.0000 O   0  0  0  0  0  0  0  0  0  0  0  0
    2.7740    7.7625   -0.0000 N   0  0  0  0  0  0  0  0  0  0  0  0
   -3.7979    7.2863   -0.0000 C   0  0  0  0  0  0  0  0  0  0  0  0
    3.0121   10.2151   -0.0000 N   0  0  0  0  0  0  0  0  0  0  0  0
    3.7741    8.9055   -0.0000 C   0  0  0  0  0  0  0  0  0  0  0  0
   -4.4170    8.6793   -0.0000 O   0  0  0  0  0  0  0  0  0  0  0  0
   -4.6909    6.0957   -0.0000 C   0  0  0  0  0  0  0  0  0  0  0  0
    5.2504    8.7626   -0.0000 C   0  0  0  0  0  0  0  0  0  0  0  0
   -6.1910    6.2743   -0.0000 C   0  0  0  0  0  0  0  0  0  0  0  0
   -4.0956    4.7385   -0.0000 C   0  0  0  0  0  0  0  0  0  0  0  0
    6.7386    8.7745   -0.0000 C   0  0  0  0  0  0  0  0  0  0  0  0
    5.1671    7.2863   -0.0000 C   0  0  0  0  0  0  0  0  0  0  0  0
    5.3100   10.2627   -0.0000 C   0  0  0  0  0  0  0  0  0  0  0  0
   -7.0839    5.0837   -0.0000 C   0  0  0  0  0  0  0  0  0  0  0  0
   -5.0004    3.5360   -0.0000 C   0  0  0  0  0  0  0  0  0  0  0  0
    7.4649   10.0841   -0.0000 C   0  0  0  0  0  0  0  0  0  0  0  0
    7.4768    7.4887   -0.0000 C   0  0  0  0  0  0  0  0  0  0  0  0
   -6.5005    3.7265   -0.0000 N   0  0  0  0  0  0  0  0  0  0  0  0
    8.9412   10.1080   -0.0000 C   0  0  0  0  0  0  0  0  0  0  0  0
    8.9531    7.5006   -0.0000 C   0  0  0  0  0  0  0  0  0  0  0  0
   -7.3935    2.5359   -0.0000 C   0  0  0  0  0  0  0  0  0  0  0  0
    9.6913    8.8221   -0.0000 C   0  0  0  0  0  0  0  0  0  0  0  0
    9.6674   11.4176   -0.0000 C   0  0  0  0  0  0  0  0  0  0  0  0
    9.6913    6.2148   -0.0000 C   0  0  0  0  0  0  0  0  0  0  0  0
   -8.8936    2.7145   -0.0000 O   0  0  0  0  0  0  0  0  0  0  0  0
   -6.8101    1.1787   -0.0000 C   0  0  0  0  0  0  0  0  0  0  0  0
   10.3937   12.7272   -0.0000 F   0  0  0  0  0  0  0  0  0  0  0  0
   10.9533   10.6913   -0.0000 F   0  0  0  0  0  0  0  0  0  0  0  0
    8.3578   12.1676   -0.0000 F   0  0  0  0  0  0  0  0  0  0  0  0
   10.4175    4.9409   -0.0000 F   0  0  0  0  0  0  0  0  0  0  0  0
   10.9771    6.9768   -0.0000 F   0  0  0  0  0  0  0  0  0  0  0  0
    8.3935    5.4766   -0.0000 F   0  0  0  0  0  0  0  0  0  0  0  0
  1  2  1  0  0  0  0
  2  3  2  0  0  0  0
  2  4  1  0  0  0  0
  3  5  1  0  0  0  0
  4  6  2  0  0  0  0
  5  7  2  0  0  0  0
  5  8  1  0  0  0  0
  9  7  1  6  0  0  0
  9 10  1  0  0  0  0
  9 11  1  0  0  0  0
 10 12  1  1  0  0  0
 10 13  1  0  0  0  0
 11 14  1  0  0  0  0
 12 15  1  0  0  0  0
 12 16  2  0  0  0  0
 14 17  1  0  0  0  0
 15 18  1  0  0  0  0
 16 19  1  0  0  0  0
 17 20  2  0  0  0  0
 17 21  1  0  0  0  0
 19 22  1  0  0  0  0
 21 23  1  0  0  0  0
 21 24  1  0  0  0  0
 22 25  1  0  0  0  0
 22 26  1  0  0  0  0
 22 27  1  0  0  0  0
 23 28  1  0  0  0  0
 24 29  1  0  0  0  0
 25 30  2  0  0  0  0
 25 31  1  0  0  0  0
 28 32  1  0  0  0  0
 30 33  1  0  0  0  0
 31 34  2  0  0  0  0
 32 35  1  0  0  0  0
 33 36  2  0  0  0  0
 33 37  1  0  0  0  0
 34 38  1  0  0  0  0
 35 39  2  0  0  0  0
 35 40  1  0  0  0  0
 37 41  1  0  0  0  0
 37 42  1  0  0  0  0
 37 43  1  0  0  0  0
 38 44  1  0  0  0  0
 38 45  1  0  0  0  0
 38 46  1  0  0  0  0
  6  7  1  0  0  0  0
 13 14  1  0  0  0  0
 18 19  2  0  0  0  0
 29 32  1  0  0  0  0
 34 36  1  0  0  0  0
M  END
>  <MolRegNo>
399388

>  <m>
=

>  <Value>
28000

>  <Unit>
nM

>  <Type>
IC50

>  <pValue>
4.55

>  <Ligand Efficiency>
0

>  <Binding Efficiency>
0

>  <Surface Efficiency>
0

>  <Assay Index>
297938

>  <Assay Category>


>  <Assay Organism>
Homo sapiens

>  <Target ID>
17045

>  <Target Name>
Cytochrome P450 3A4

>  <Target Organism>
Homo sapiens

>  <Target Description>
Target is a single protein chain

>  <Sequence Accession>
P08684

>  <Reference>
Bioorg Med Chem Lett 17 (19), 5310-5315 (2007)

>  <Pubmed ID>
17723300

>  <DOI>
10.1016/j.bmcl.2007.08.028

$$$$
399386
Actelion Java MolfileCreator 1.0

 46 50  0  0  1  0  0  0  0  0999 V2000
    0.0000   -0.0000   -0.0000 F   0  0  0  0  0  0  0  0  0  0  0  0
   -0.0119    1.5122   -0.0000 C   0  0  0  0  0  0  0  0  0  0  0  0
    1.2860    2.2862   -0.0000 C   0  0  0  0  0  0  0  0  0  0  0  0
   -1.3217    2.2862   -0.0000 C   0  0  0  0  0  0  0  0  0  0  0  0
    1.2741    3.7985   -0.0000 C   0  0  0  0  0  0  0  0  0  0  0  0
   -1.3217    3.7985   -0.0000 C   0  0  0  0  0  0  0  0  0  0  0  0
   -0.0357    4.5606   -0.0000 C   0  0  0  0  0  0  0  0  0  0  0  0
    2.5601    4.5606   -0.0000 C   0  0  0  0  0  0  0  0  0  0  0  0
   -0.0476    6.0728   -0.0000 C   0  0  0  0  0  0  0  0  0  0  0  0
    0.1072    7.5851   -0.0000 C   0  0  0  0  0  0  0  0  0  0  0  0
   -1.5242    5.7870   -0.0000 C   0  0  0  0  0  0  0  0  0  0  0  0
    1.4051    8.3590   -0.0000 C   0  0  0  0  0  0  0  0  0  0  0  0
   -1.2741    8.2042   -0.0000 C   0  0  0  0  0  0  0  0  0  0  0  0
   -2.2862    7.1088   -0.0000 N   0  0  0  0  0  0  0  0  0  0  0  0
    1.5480    9.8832   -0.0000 O   0  0  0  0  0  0  0  0  0  0  0  0
    2.7744    7.7637   -0.0000 N   0  0  0  0  0  0  0  0  0  0  0  0
   -3.7985    7.2874   -0.0000 C   0  0  0  0  0  0  0  0  0  0  0  0
    3.0126   10.2166   -0.0000 N   0  0  0  0  0  0  0  0  0  0  0  0
    3.7747    8.9068   -0.0000 C   0  0  0  0  0  0  0  0  0  0  0  0
   -4.4177    8.6805   -0.0000 O   0  0  0  0  0  0  0  0  0  0  0  0
   -4.6915    6.0966   -0.0000 C   0  0  0  0  0  0  0  0  0  0  0  0
    5.2512    8.7639   -0.0000 C   0  0  0  0  0  0  0  0  0  0  0  0
   -6.1919    6.2752   -0.0000 C   0  0  0  0  0  0  0  0  0  0  0  0
   -4.0962    4.7392   -0.0000 C   0  0  0  0  0  0  0  0  0  0  0  0
    6.7396    8.7758   -0.0000 C   0  0  0  0  0  0  0  0  0  0  0  0
    5.1678    7.2874   -0.0000 C   0  0  0  0  0  0  0  0  0  0  0  0
    5.3107   10.2642   -0.0000 C   0  0  0  0  0  0  0  0  0  0  0  0
   -7.0849    5.0845   -0.0000 C   0  0  0  0  0  0  0  0  0  0  0  0
   -5.0011    3.5484   -0.0000 C   0  0  0  0  0  0  0  0  0  0  0  0
    7.4660   10.0856   -0.0000 C   0  0  0  0  0  0  0  0  0  0  0  0
    7.4779    7.4898   -0.0000 C   0  0  0  0  0  0  0  0  0  0  0  0
   -6.5015    3.7270   -0.0000 N   0  0  0  0  0  0  0  0  0  0  0  0
    8.9425   10.1094   -0.0000 C   0  0  0  0  0  0  0  0  0  0  0  0
    8.9544    7.5017   -0.0000 C   0  0  0  0  0  0  0  0  0  0  0  0
   -7.3945    2.5363   -0.0000 C   0  0  0  0  0  0  0  0  0  0  0  0
    9.6927    8.8234   -0.0000 C   0  0  0  0  0  0  0  0  0  0  0  0
    9.6689   11.4193   -0.0000 C   0  0  0  0  0  0  0  0  0  0  0  0
    9.6927    6.2157   -0.0000 C   0  0  0  0  0  0  0  0  0  0  0  0
   -8.8949    2.7149   -0.0000 O   0  0  0  0  0  0  0  0  0  0  0  0
   -6.8111    1.1788   -0.0000 C   0  0  0  0  0  0  0  0  0  0  0  0
   10.3952   12.7291   -0.0000 F   0  0  0  0  0  0  0  0  0  0  0  0
   10.9549   10.6929   -0.0000 F   0  0  0  0  0  0  0  0  0  0  0  0
    8.3590   12.1694   -0.0000 F   0  0  0  0  0  0  0  0  0  0  0  0
   10.4190    4.9416   -0.0000 F   0  0  0  0  0  0  0  0  0  0  0  0
   10.9787    6.9778   -0.0000 F   0  0  0  0  0  0  0  0  0  0  0  0
    8.3948    5.4774   -0.0000 F   0  0  0  0  0  0  0  0  0  0  0  0
  1  2  1  0  0  0  0
  2  3  2  0  0  0  0
  2  4  1  0  0  0  0
  3  5  1  0  0  0  0
  4  6  2  0  0  0  0
  5  7  2  0  0  0  0
  5  8  1  0  0  0  0
  9  7  1  1  0  0  0
  9 10  1  0  0  0  0
  9 11  1  0  0  0  0
 10 12  1  6  0  0  0
 10 13  1  0  0  0  0
 11 14  1  0  0  0  0
 12 15  1  0  0  0  0
 12 16  2  0  0  0  0
 14 17  1  0  0  0  0
 15 18  1  0  0  0  0
 16 19  1  0  0  0  0
 17 20  2  0  0  0  0
 17 21  1  0  0  0  0
 19 22  1  0  0  0  0
 21 23  1  0  0  0  0
 21 24  1  0  0  0  0
 22 25  1  0  0  0  0
 22 26  1  0  0  0  0
 22 27  1  0  0  0  0
 23 28  1  0  0  0  0
 24 29  1  0  0  0  0
 25 30  2  0  0  0  0
 25 31  1  0  0  0  0
 28 32  1  0  0  0  0
 30 33  1  0  0  0  0
 31 34  2  0  0  0  0
 32 35  1  0  0  0  0
 33 36  2  0  0  0  0
 33 37  1  0  0  0  0
 34 38  1  0  0  0  0
 35 39  2  0  0  0  0
 35 40  1  0  0  0  0
 37 41  1  0  0  0  0
 37 42  1  0  0  0  0
 37 43  1  0  0  0  0
 38 44  1  0  0  0  0
 38 45  1  0  0  0  0
 38 46  1  0  0  0  0
  6  7  1  0  0  0  0
 13 14  1  0  0  0  0
 18 19  2  0  0  0  0
 29 32  1  0  0  0  0
 34 36  1  0  0  0  0
M  END
>  <MolRegNo>
399386

>  <m>
=

>  <Value>
23000

>  <Unit>
nM

>  <Type>
IC50

>  <pValue>
4.64

>  <Ligand Efficiency>
0

>  <Binding Efficiency>
0

>  <Surface Efficiency>
0

>  <Assay Index>
297938

>  <Assay Category>


>  <Assay Organism>
Homo sapiens

>  <Target ID>
17045

>  <Target Name>
Cytochrome P450 3A4

>  <Target Organism>
Homo sapiens

>  <Target Description>
Target is a single protein chain

>  <Sequence Accession>
P08684

>  <Reference>
Bioorg Med Chem Lett 17 (19), 5310-5315 (2007)

>  <Pubmed ID>
17723300

>  <DOI>
10.1016/j.bmcl.2007.08.028

$$$$
399385
Actelion Java MolfileCreator 1.0

 41 44  0  0  1  0  0  0  0  0999 V2000
    0.0000   -0.0000   -0.0000 F   0  0  0  0  0  0  0  0  0  0  0  0
   -0.0118    1.4962   -0.0000 C   0  0  0  0  0  0  0  0  0  0  0  0
    1.2841    2.2620   -0.0000 C   0  0  0  0  0  0  0  0  0  0  0  0
   -1.3195    2.2620   -0.0000 C   0  0  0  0  0  0  0  0  0  0  0  0
    1.2723    3.7581   -0.0000 C   0  0  0  0  0  0  0  0  0  0  0  0
   -1.3195    3.7699   -0.0000 C   0  0  0  0  0  0  0  0  0  0  0  0
   -0.0236    4.5121   -0.0000 C   0  0  0  0  0  0  0  0  0  0  0  0
    2.5447    4.5121   -0.0000 C   0  0  0  0  0  0  0  0  0  0  0  0
   -0.0353    6.0201   -0.0000 C   0  0  0  0  0  0  0  0  0  0  0  0
    0.1178    7.5281   -0.0000 C   0  0  0  0  0  0  0  0  0  0  0  0
   -1.4962    5.7256   -0.0000 C   0  0  0  0  0  0  0  0  0  0  0  0
    1.4019    8.2938   -0.0000 C   0  0  0  0  0  0  0  0  0  0  0  0
   -1.2606    8.1525   -0.0000 C   0  0  0  0  0  0  0  0  0  0  0  0
   -2.2502    7.0333   -0.0000 N   0  0  0  0  0  0  0  0  0  0  0  0
    2.6861    7.5516   -0.0000 O   0  0  0  0  0  0  0  0  0  0  0  0
    1.4019    9.8018   -0.0000 N   0  0  0  0  0  0  0  0  0  0  0  0
   -3.7464    7.2100   -0.0000 C   0  0  0  0  0  0  0  0  0  0  0  0
    2.6861   10.5558   -0.0000 C   0  0  0  0  0  0  0  0  0  0  0  0
    0.0942   10.5676   -0.0000 C   0  0  0  0  0  0  0  0  0  0  0  0
   -4.3708    8.5884   -0.0000 O   0  0  0  0  0  0  0  0  0  0  0  0
   -4.6417    6.0201   -0.0000 C   0  0  0  0  0  0  0  0  0  0  0  0
    2.6861   12.0638   -0.0000 C   0  0  0  0  0  0  0  0  0  0  0  0
   -4.0409    4.6653   -0.0000 N   0  0  0  0  0  0  0  0  0  0  0  0
   -6.1379    6.1968   -0.0000 C   0  0  0  0  0  0  0  0  0  0  0  0
    3.9820   12.8177   -0.0000 C   0  0  0  0  0  0  0  0  0  0  0  0
    1.3902   12.8177   -0.0000 C   0  0  0  0  0  0  0  0  0  0  0  0
   -4.9362    3.4636   -0.0000 C   0  0  0  0  0  0  0  0  0  0  0  0
   -7.0333    5.0069   -0.0000 N   0  0  0  0  0  0  0  0  0  0  0  0
    3.9820   14.3257   -0.0000 C   0  0  0  0  0  0  0  0  0  0  0  0
    1.3784   14.3257   -0.0000 C   0  0  0  0  0  0  0  0  0  0  0  0
   -6.4442    3.6286   -0.0000 C   0  0  0  0  0  0  0  0  0  0  0  0
    2.6743   15.0797   -0.0000 C   0  0  0  0  0  0  0  0  0  0  0  0
    5.2661   15.0797   -0.0000 C   0  0  0  0  0  0  0  0  0  0  0  0
    0.0707   15.0797   -0.0000 C   0  0  0  0  0  0  0  0  0  0  0  0
   -7.3396    2.4387   -0.0000 C   0  0  0  0  0  0  0  0  0  0  0  0
    6.5385   15.8455   -0.0000 F   0  0  0  0  0  0  0  0  0  0  0  0
    5.9965   13.7956   -0.0000 F   0  0  0  0  0  0  0  0  0  0  0  0
    4.5003   16.3756   -0.0000 F   0  0  0  0  0  0  0  0  0  0  0  0
   -1.2370   15.8455   -0.0000 F   0  0  0  0  0  0  0  0  0  0  0  0
   -0.6833   13.7956   -0.0000 F   0  0  0  0  0  0  0  0  0  0  0  0
    0.8129   16.3756   -0.0000 F   0  0  0  0  0  0  0  0  0  0  0  0
  1  2  1  0  0  0  0
  2  3  2  0  0  0  0
  2  4  1  0  0  0  0
  3  5  1  0  0  0  0
  4  6  2  0  0  0  0
  5  7  2  0  0  0  0
  5  8  1  0  0  0  0
  9  7  1  1  0  0  0
  9 10  1  0  0  0  0
  9 11  1  0  0  0  0
 10 12  1  6  0  0  0
 10 13  1  0  0  0  0
 11 14  1  0  0  0  0
 12 15  2  0  0  0  0
 12 16  1  0  0  0  0
 14 17  1  0  0  0  0
 16 18  1  0  0  0  0
 16 19  1  0  0  0  0
 17 20  2  0  0  0  0
 17 21  1  0  0  0  0
 18 22  1  0  0  0  0
 21 23  2  0  0  0  0
 21 24  1  0  0  0  0
 22 25  2  0  0  0  0
 22 26  1  0  0  0  0
 23 27  1  0  0  0  0
 24 28  2  0  0  0  0
 25 29  1  0  0  0  0
 26 30  2  0  0  0  0
 27 31  2  0  0  0  0
 29 32  2  0  0  0  0
 29 33  1  0  0  0  0
 30 34  1  0  0  0  0
 31 35  1  0  0  0  0
 33 36  1  0  0  0  0
 33 37  1  0  0  0  0
 33 38  1  0  0  0  0
 34 39  1  0  0  0  0
 34 40  1  0  0  0  0
 34 41  1  0  0  0  0
  6  7  1  0  0  0  0
 13 14  1  0  0  0  0
 28 31  1  0  0  0  0
 30 32  1  0  0  0  0
M  END
>  <MolRegNo>
399385

>  <m>
=

>  <Value>
11000

>  <Unit>
nM

>  <Type>
IC50

>  <pValue>
4.96

>  <Ligand Efficiency>
0

>  <Binding Efficiency>
0

>  <Surface Efficiency>
0

>  <Assay Index>
297938

>  <Assay Category>


>  <Assay Organism>
Homo sapiens

>  <Target ID>
17045

>  <Target Name>
Cytochrome P450 3A4

>  <Target Organism>
Homo sapiens

>  <Target Description>
Target is a single protein chain

>  <Sequence Accession>
P08684

>  <Reference>
Bioorg Med Chem Lett 17 (19), 5310-5315 (2007)

>  <Pubmed ID>
17723300

>  <DOI>
10.1016/j.bmcl.2007.08.028

$$$$
399382
Actelion Java MolfileCreator 1.0

 45 48  0  0  1  0  0  0  0  0999 V2000
    0.0000   -0.0000   -0.0000 F   0  0  0  0  0  0  0  0  0  0  0  0
   -0.0118    1.5126   -0.0000 C   0  0  0  0  0  0  0  0  0  0  0  0
    1.2762    2.2689   -0.0000 C   0  0  0  0  0  0  0  0  0  0  0  0
   -1.3235    2.2807   -0.0000 C   0  0  0  0  0  0  0  0  0  0  0  0
    1.2644    3.7696   -0.0000 C   0  0  0  0  0  0  0  0  0  0  0  0
   -1.3235    3.7933   -0.0000 C   0  0  0  0  0  0  0  0  0  0  0  0
   -0.0355    4.5377   -0.0000 C   0  0  0  0  0  0  0  0  0  0  0  0
    2.5525    4.5259   -0.0000 C   0  0  0  0  0  0  0  0  0  0  0  0
   -0.0355    6.0385   -0.0000 C   0  0  0  0  0  0  0  0  0  0  0  0
    0.1182    7.5511   -0.0000 C   0  0  0  0  0  0  0  0  0  0  0  0
   -1.5008    5.7549   -0.0000 C   0  0  0  0  0  0  0  0  0  0  0  0
    1.4062    8.3192   -0.0000 C   0  0  0  0  0  0  0  0  0  0  0  0
   -1.2526    8.1774   -0.0000 C   0  0  0  0  0  0  0  0  0  0  0  0
   -2.2689    7.0666   -0.0000 N   0  0  0  0  0  0  0  0  0  0  0  0
    2.6943    7.5747   -0.0000 O   0  0  0  0  0  0  0  0  0  0  0  0
    1.4062    9.8318   -0.0000 N   0  0  0  0  0  0  0  0  0  0  0  0
   -3.7696    7.2438   -0.0000 C   0  0  0  0  0  0  0  0  0  0  0  0
    2.6943   10.5881   -0.0000 C   0  0  0  0  0  0  0  0  0  0  0  0
    0.0945   10.5999   -0.0000 C   0  0  0  0  0  0  0  0  0  0  0  0
   -4.3841    8.6264   -0.0000 O   0  0  0  0  0  0  0  0  0  0  0  0
   -4.6677    6.0503   -0.0000 C   0  0  0  0  0  0  0  0  0  0  0  0
    3.9823   11.3562   -0.0000 C   0  0  0  0  0  0  0  0  0  0  0  0
    3.4269    9.3000   -0.0000 C   0  0  0  0  0  0  0  0  0  0  0  0
    1.9380   11.8998   -0.0000 C   0  0  0  0  0  0  0  0  0  0  0  0
   -6.1685    6.2158   -0.0000 C   0  0  0  0  0  0  0  0  0  0  0  0
   -4.0769    4.6914   -0.0000 C   0  0  0  0  0  0  0  0  0  0  0  0
    5.2586   10.6117   -0.0000 C   0  0  0  0  0  0  0  0  0  0  0  0
    3.9587   12.8451   -0.0000 C   0  0  0  0  0  0  0  0  0  0  0  0
   -7.0666    5.0341   -0.0000 C   0  0  0  0  0  0  0  0  0  0  0  0
   -4.9868    3.4978   -0.0000 C   0  0  0  0  0  0  0  0  0  0  0  0
    6.5466   11.3680   -0.0000 C   0  0  0  0  0  0  0  0  0  0  0  0
    5.2349   13.6132   -0.0000 C   0  0  0  0  0  0  0  0  0  0  0  0
   -6.4757    3.6633   -0.0000 N   0  0  0  0  0  0  0  0  0  0  0  0
    6.5348   12.8687   -0.0000 C   0  0  0  0  0  0  0  0  0  0  0  0
    7.8347   10.6235   -0.0000 C   0  0  0  0  0  0  0  0  0  0  0  0
    5.2231   15.1258   -0.0000 C   0  0  0  0  0  0  0  0  0  0  0  0
   -7.3738    2.4698   -0.0000 C   0  0  0  0  0  0  0  0  0  0  0  0
    9.1228    9.8909   -0.0000 F   0  0  0  0  0  0  0  0  0  0  0  0
    7.0784    9.3355   -0.0000 F   0  0  0  0  0  0  0  0  0  0  0  0
    8.5673   11.9352   -0.0000 F   0  0  0  0  0  0  0  0  0  0  0  0
    5.2113   16.6384   -0.0000 F   0  0  0  0  0  0  0  0  0  0  0  0
    3.7105   15.1376   -0.0000 F   0  0  0  0  0  0  0  0  0  0  0  0
    6.7121   15.1376   -0.0000 F   0  0  0  0  0  0  0  0  0  0  0  0
   -8.8746    2.6470   -0.0000 O   0  0  0  0  0  0  0  0  0  0  0  0
   -6.7830    1.1108   -0.0000 C   0  0  0  0  0  0  0  0  0  0  0  0
  1  2  1  0  0  0  0
  2  3  2  0  0  0  0
  2  4  1  0  0  0  0
  3  5  1  0  0  0  0
  4  6  2  0  0  0  0
  5  7  2  0  0  0  0
  5  8  1  0  0  0  0
  9  7  1  1  0  0  0
  9 10  1  0  0  0  0
  9 11  1  0  0  0  0
 10 12  1  6  0  0  0
 10 13  1  0  0  0  0
 11 14  1  0  0  0  0
 12 15  2  0  0  0  0
 12 16  1  0  0  0  0
 14 17  1  0  0  0  0
 16 18  1  0  0  0  0
 16 19  1  0  0  0  0
 17 20  2  0  0  0  0
 17 21  1  0  0  0  0
 18 22  1  0  0  0  0
 18 23  1  0  0  0  0
 18 24  1  0  0  0  0
 21 25  1  0  0  0  0
 21 26  1  0  0  0  0
 22 27  2  0  0  0  0
 22 28  1  0  0  0  0
 25 29  1  0  0  0  0
 26 30  1  0  0  0  0
 27 31  1  0  0  0  0
 28 32  2  0  0  0  0
 29 33  1  0  0  0  0
 31 34  2  0  0  0  0
 31 35  1  0  0  0  0
 32 36  1  0  0  0  0
 33 37  1  0  0  0  0
 35 38  1  0  0  0  0
 35 39  1  0  0  0  0
 35 40  1  0  0  0  0
 36 41  1  0  0  0  0
 36 42  1  0  0  0  0
 36 43  1  0  0  0  0
 37 44  2  0  0  0  0
 37 45  1  0  0  0  0
  6  7  1  0  0  0  0
 13 14  1  0  0  0  0
 30 33  1  0  0  0  0
 32 34  1  0  0  0  0
M  END
>  <MolRegNo>
399382

>  <m>
=

>  <Value>
49000

>  <Unit>
nM

>  <Type>
IC50

>  <pValue>
4.31

>  <Ligand Efficiency>
0

>  <Binding Efficiency>
0

>  <Surface Efficiency>
0

>  <Assay Index>
297938

>  <Assay Category>


>  <Assay Organism>
Homo sapiens

>  <Target ID>
17045

>  <Target Name>
Cytochrome P450 3A4

>  <Target Organism>
Homo sapiens

>  <Target Description>
Target is a single protein chain

>  <Sequence Accession>
P08684

>  <Reference>
Bioorg Med Chem Lett 17 (19), 5310-5315 (2007)

>  <Pubmed ID>
17723300

>  <DOI>
10.1016/j.bmcl.2007.08.028

$$$$
399380
Actelion Java MolfileCreator 1.0

 43 46  0  0  1  0  0  0  0  0999 V2000
    0.0000   -0.0000   -0.0000 F   0  0  0  0  0  0  0  0  0  0  0  0
   -0.0118    1.5095   -0.0000 C   0  0  0  0  0  0  0  0  0  0  0  0
    1.2854    2.2642   -0.0000 C   0  0  0  0  0  0  0  0  0  0  0  0
   -1.3208    2.2642   -0.0000 C   0  0  0  0  0  0  0  0  0  0  0  0
    1.2736    3.7619   -0.0000 C   0  0  0  0  0  0  0  0  0  0  0  0
   -1.3208    3.7736   -0.0000 C   0  0  0  0  0  0  0  0  0  0  0  0
   -0.0236    4.5284   -0.0000 C   0  0  0  0  0  0  0  0  0  0  0  0
    2.5472    4.5284   -0.0000 C   0  0  0  0  0  0  0  0  0  0  0  0
   -0.0354    6.0378   -0.0000 C   0  0  0  0  0  0  0  0  0  0  0  0
    0.1179    7.5473   -0.0000 C   0  0  0  0  0  0  0  0  0  0  0  0
   -1.4977    5.7430   -0.0000 C   0  0  0  0  0  0  0  0  0  0  0  0
    1.4033    8.3138   -0.0000 C   0  0  0  0  0  0  0  0  0  0  0  0
   -1.2618    8.1723   -0.0000 C   0  0  0  0  0  0  0  0  0  0  0  0
   -2.2642    7.0520   -0.0000 N   0  0  0  0  0  0  0  0  0  0  0  0
    2.6887    7.5709   -0.0000 O   0  0  0  0  0  0  0  0  0  0  0  0
    1.4033    9.8233   -0.0000 N   0  0  0  0  0  0  0  0  0  0  0  0
   -3.7619    7.2289   -0.0000 C   0  0  0  0  0  0  0  0  0  0  0  0
    2.6887   10.5780   -0.0000 C   0  0  0  0  0  0  0  0  0  0  0  0
    0.1061   10.5898   -0.0000 C   0  0  0  0  0  0  0  0  0  0  0  0
   -4.3751    8.6086   -0.0000 O   0  0  0  0  0  0  0  0  0  0  0  0
   -4.6581    6.0378   -0.0000 C   0  0  0  0  0  0  0  0  0  0  0  0
    2.6887   12.0875   -0.0000 C   0  0  0  0  0  0  0  0  0  0  0  0
   -6.1558    6.2147   -0.0000 C   0  0  0  0  0  0  0  0  0  0  0  0
   -4.0685    4.6817   -0.0000 C   0  0  0  0  0  0  0  0  0  0  0  0
    3.9741   12.8304   -0.0000 C   0  0  0  0  0  0  0  0  0  0  0  0
    1.3915   12.8304   -0.0000 C   0  0  0  0  0  0  0  0  0  0  0  0
   -7.0520    5.0237   -0.0000 C   0  0  0  0  0  0  0  0  0  0  0  0
   -4.9765    3.4906   -0.0000 C   0  0  0  0  0  0  0  0  0  0  0  0
    3.9741   14.3399   -0.0000 C   0  0  0  0  0  0  0  0  0  0  0  0
    1.3797   14.3399   -0.0000 C   0  0  0  0  0  0  0  0  0  0  0  0
   -6.4742    3.6675   -0.0000 N   0  0  0  0  0  0  0  0  0  0  0  0
    2.6769   15.1064   -0.0000 C   0  0  0  0  0  0  0  0  0  0  0  0
    5.2595   15.0946   -0.0000 C   0  0  0  0  0  0  0  0  0  0  0  0
    0.0708   15.1064   -0.0000 C   0  0  0  0  0  0  0  0  0  0  0  0
   -7.3704    2.4765   -0.0000 C   0  0  0  0  0  0  0  0  0  0  0  0
    6.5331   15.8611   -0.0000 F   0  0  0  0  0  0  0  0  0  0  0  0
    6.0025   13.8092   -0.0000 F   0  0  0  0  0  0  0  0  0  0  0  0
    4.5048   16.3918   -0.0000 F   0  0  0  0  0  0  0  0  0  0  0  0
   -1.2382   15.8611   -0.0000 F   0  0  0  0  0  0  0  0  0  0  0  0
   -0.6958   13.8210   -0.0000 F   0  0  0  0  0  0  0  0  0  0  0  0
    0.8019   16.4036   -0.0000 F   0  0  0  0  0  0  0  0  0  0  0  0
   -8.8681    2.6533   -0.0000 O   0  0  0  0  0  0  0  0  0  0  0  0
   -6.7926    1.1203   -0.0000 C   0  0  0  0  0  0  0  0  0  0  0  0
  1  2  1  0  0  0  0
  2  3  2  0  0  0  0
  2  4  1  0  0  0  0
  3  5  1  0  0  0  0
  4  6  2  0  0  0  0
  5  7  2  0  0  0  0
  5  8  1  0  0  0  0
  9  7  1  1  0  0  0
  9 10  1  0  0  0  0
  9 11  1  0  0  0  0
 10 12  1  6  0  0  0
 10 13  1  0  0  0  0
 11 14  1  0  0  0  0
 12 15  2  0  0  0  0
 12 16  1  0  0  0  0
 14 17  1  0  0  0  0
 16 18  1  0  0  0  0
 16 19  1  0  0  0  0
 17 20  2  0  0  0  0
 17 21  1  0  0  0  0
 18 22  1  0  0  0  0
 21 23  1  0  0  0  0
 21 24  1  0  0  0  0
 22 25  2  0  0  0  0
 22 26  1  0  0  0  0
 23 27  1  0  0  0  0
 24 28  1  0  0  0  0
 25 29  1  0  0  0  0
 26 30  2  0  0  0  0
 27 31  1  0  0  0  0
 29 32  2  0  0  0  0
 29 33  1  0  0  0  0
 30 34  1  0  0  0  0
 31 35  1  0  0  0  0
 33 36  1  0  0  0  0
 33 37  1  0  0  0  0
 33 38  1  0  0  0  0
 34 39  1  0  0  0  0
 34 40  1  0  0  0  0
 34 41  1  0  0  0  0
 35 42  2  0  0  0  0
 35 43  1  0  0  0  0
  6  7  1  0  0  0  0
 13 14  1  0  0  0  0
 28 31  1  0  0  0  0
 30 32  1  0  0  0  0
M  END
>  <MolRegNo>
399380

>  <m>
=

>  <Value>
11000

>  <Unit>
nM

>  <Type>
IC50

>  <pValue>
4.96

>  <Ligand Efficiency>
0

>  <Binding Efficiency>
0

>  <Surface Efficiency>
0

>  <Assay Index>
297938

>  <Assay Category>


>  <Assay Organism>
Homo sapiens

>  <Target ID>
17045

>  <Target Name>
Cytochrome P450 3A4

>  <Target Organism>
Homo sapiens

>  <Target Description>
Target is a single protein chain

>  <Sequence Accession>
P08684

>  <Reference>
Bioorg Med Chem Lett 17 (19), 5310-5315 (2007)

>  <Pubmed ID>
17723300

>  <DOI>
10.1016/j.bmcl.2007.08.028

$$$$
399361
Actelion Java MolfileCreator 1.0

 37 40  0  0  1  0  0  0  0  0999 V2000
    0.0000   -0.0000   -0.0000 F   0  0  0  0  0  0  0  0  0  0  0  0
   -0.0119    1.5170   -0.0000 C   0  0  0  0  0  0  0  0  0  0  0  0
   -1.3155    2.2637   -0.0000 C   0  0  0  0  0  0  0  0  0  0  0  0
    1.2681    2.2755   -0.0000 C   0  0  0  0  0  0  0  0  0  0  0  0
   -1.3392    3.7688   -0.0000 C   0  0  0  0  0  0  0  0  0  0  0  0
    1.2563    3.7807   -0.0000 C   0  0  0  0  0  0  0  0  0  0  0  0
   -0.0593    4.5392   -0.0000 C   0  0  0  0  0  0  0  0  0  0  0  0
   -0.0830    6.0562   -0.0000 C   0  0  0  0  0  0  0  0  0  0  0  0
   -1.3866    6.8028   -0.0000 N   0  0  0  0  0  0  0  0  0  0  0  0
    1.1970    6.8147   -0.0000 C   0  0  0  0  0  0  0  0  0  0  0  0
   -1.3985    8.3080   -0.0000 C   0  0  0  0  0  0  0  0  0  0  0  0
   -2.6903    6.0562   -0.0000 C   0  0  0  0  0  0  0  0  0  0  0  0
    1.1852    8.3198   -0.0000 O   0  0  0  0  0  0  0  0  0  0  0  0
    2.4770    6.0917   -0.0000 O   0  0  0  0  0  0  0  0  0  0  0  0
   -0.1185    9.0902   -0.0000 C   0  0  0  0  0  0  0  0  0  0  0  0
   -4.0177    6.8028   -0.0000 C   0  0  0  0  0  0  0  0  0  0  0  0
    3.7570    6.8384   -0.0000 C   0  0  0  0  0  0  0  0  0  0  0  0
   -5.2740    5.9495   -0.0000 N   0  0  0  0  0  0  0  0  0  0  0  0
   -4.4562    8.2487   -0.0000 N   0  0  0  0  0  0  0  0  0  0  0  0
    5.0488    6.1154   -0.0000 C   0  0  0  0  0  0  0  0  0  0  0  0
    3.7451    8.3554   -0.0000 C   0  0  0  0  0  0  0  0  0  0  0  0
   -6.4828    6.8739   -0.0000 N   0  0  0  0  0  0  0  0  0  0  0  0
   -5.9732    8.2843   -0.0000 C   0  0  0  0  0  0  0  0  0  0  0  0
    6.3288    6.8976   -0.0000 C   0  0  0  0  0  0  0  0  0  0  0  0
    5.0488    4.6340   -0.0000 C   0  0  0  0  0  0  0  0  0  0  0  0
   -6.8265    9.5405   -0.0000 O   0  0  0  0  0  0  0  0  0  0  0  0
    7.6324    6.1628   -0.0000 C   0  0  0  0  0  0  0  0  0  0  0  0
    6.3288    3.9110   -0.0000 C   0  0  0  0  0  0  0  0  0  0  0  0
    7.6206    4.6814   -0.0000 C   0  0  0  0  0  0  0  0  0  0  0  0
    8.9006    6.9450   -0.0000 C   0  0  0  0  0  0  0  0  0  0  0  0
    6.3169    2.4177   -0.0000 C   0  0  0  0  0  0  0  0  0  0  0  0
   10.1805    6.2221   -0.0000 F   0  0  0  0  0  0  0  0  0  0  0  0
    8.1421    8.2606   -0.0000 F   0  0  0  0  0  0  0  0  0  0  0  0
    9.6235    8.2606   -0.0000 F   0  0  0  0  0  0  0  0  0  0  0  0
    7.6087    1.6948   -0.0000 F   0  0  0  0  0  0  0  0  0  0  0  0
    4.7999    2.4533   -0.0000 F   0  0  0  0  0  0  0  0  0  0  0  0
    5.5703    1.1496   -0.0000 F   0  0  0  0  0  0  0  0  0  0  0  0
  1  2  1  0  0  0  0
  2  3  2  0  0  0  0
  2  4  1  0  0  0  0
  3  5  1  0  0  0  0
  4  6  2  0  0  0  0
  5  7  2  0  0  0  0
  8  7  1  6  0  0  0
  8  9  1  0  0  0  0
  8 10  1  0  0  0  0
  9 11  1  0  0  0  0
  9 12  1  0  0  0  0
 10 13  1  0  0  0  0
 10 14  1  6  0  0  0
 11 15  1  0  0  0  0
 12 16  1  0  0  0  0
 17 14  1  6  0  0  0
 16 18  2  0  0  0  0
 16 19  1  0  0  0  0
 17 20  1  0  0  0  0
 17 21  1  0  0  0  0
 18 22  1  0  0  0  0
 19 23  1  0  0  0  0
 20 24  2  0  0  0  0
 20 25  1  0  0  0  0
 23 26  2  0  0  0  0
 24 27  1  0  0  0  0
 25 28  2  0  0  0  0
 27 29  2  0  0  0  0
 27 30  1  0  0  0  0
 28 31  1  0  0  0  0
 30 32  1  0  0  0  0
 30 33  1  0  0  0  0
 30 34  1  0  0  0  0
 31 35  1  0  0  0  0
 31 36  1  0  0  0  0
 31 37  1  0  0  0  0
  6  7  1  0  0  0  0
 13 15  1  0  0  0  0
 22 23  1  0  0  0  0
 28 29  1  0  0  0  0
M  END
>  <MolRegNo>
399361

>  <m>
=

>  <Value>
46

>  <Unit>
nM

>  <Type>
IC50

>  <pValue>
7.34

>  <Ligand Efficiency>
0

>  <Binding Efficiency>
0

>  <Surface Efficiency>
0

>  <Assay Index>
297938

>  <Assay Category>


>  <Assay Organism>
Homo sapiens

>  <Target ID>
17045

>  <Target Name>
Cytochrome P450 3A4

>  <Target Organism>
Homo sapiens

>  <Target Description>
Target is a single protein chain

>  <Sequence Accession>
P08684

>  <Reference>
Bioorg Med Chem Lett 17 (19), 5310-5315 (2007)

>  <Pubmed ID>
17723300

>  <DOI>
10.1016/j.bmcl.2007.08.028

$$$$
398473
Actelion Java MolfileCreator 1.0

 36 39  0  0  1  0  0  0  0  0999 V2000
    0.0000   -0.0000   -0.0000 Cl  0  0  0  0  0  0  0  0  0  0  0  0
    1.2843   -0.7373   -0.0000 C   0  0  0  0  0  0  0  0  0  0  0  0
    1.2843   -2.2119   -0.0000 C   0  0  0  0  0  0  0  0  0  0  0  0
    2.5686    0.0238   -0.0000 C   0  0  0  0  0  0  0  0  0  0  0  0
    2.5686   -2.9611   -0.0000 C   0  0  0  0  0  0  0  0  0  0  0  0
   -0.0238   -2.9492   -0.0000 C   0  0  0  0  0  0  0  0  0  0  0  0
    3.8649   -0.7135   -0.0000 C   0  0  0  0  0  0  0  0  0  0  0  0
    3.8530   -2.2000   -0.0000 C   0  0  0  0  0  0  0  0  0  0  0  0
   -0.0357   -4.4357   -0.0000 C   0  0  0  0  0  0  0  0  0  0  0  0
    5.1492    0.0476   -0.0000 Cl  0  0  0  0  0  0  0  0  0  0  0  0
    1.2486   -5.1730   -0.0000 N   0  0  0  0  0  0  0  0  0  0  0  0
   -1.3438   -5.1730   -0.0000 C   0  0  0  0  0  0  0  0  0  0  0  0
    1.2130   -6.6594   -0.0000 C   0  0  0  0  0  0  0  0  0  0  0  0
    2.6757   -4.7330   -0.0000 C   0  0  0  0  0  0  0  0  0  0  0  0
   -1.3557   -6.6594   -0.0000 O   0  0  0  0  0  0  0  0  0  0  0  0
   -2.6519   -4.4119   -0.0000 N   0  0  0  0  0  0  0  0  0  0  0  0
   -0.1070   -7.3849   -0.0000 O   0  0  0  0  0  0  0  0  0  0  0  0
    2.6162   -7.1351   -0.0000 C   0  0  0  0  0  0  0  0  0  0  0  0
    3.5200   -5.9578   -0.0000 C   0  0  0  0  0  0  0  0  0  0  0  0
   -3.9719   -5.1492   -0.0000 C   0  0  0  0  0  0  0  0  0  0  0  0
   -2.6638   -2.9016   -0.0000 C   0  0  0  0  0  0  0  0  0  0  0  0
   -5.2800   -4.3881   -0.0000 C   0  0  0  0  0  0  0  0  0  0  0  0
   -3.9719   -2.1286   -0.0000 C   0  0  0  0  0  0  0  0  0  0  0  0
   -5.2919   -2.8778   -0.0000 N   0  0  0  0  0  0  0  0  0  0  0  0
   -6.6000   -2.1168   -0.0000 C   0  0  0  0  0  0  0  0  0  0  0  0
   -6.6119   -0.5946   -0.0000 C   0  0  0  0  0  0  0  0  0  0  0  0
   -7.9200   -2.8540   -0.0000 C   0  0  0  0  0  0  0  0  0  0  0  0
   -7.9200    0.1665   -0.0000 C   0  0  0  0  0  0  0  0  0  0  0  0
   -5.3276    0.1665   -0.0000 C   0  0  0  0  0  0  0  0  0  0  0  0
   -9.2281   -2.0930   -0.0000 C   0  0  0  0  0  0  0  0  0  0  0  0
   -9.2281   -0.5708   -0.0000 C   0  0  0  0  0  0  0  0  0  0  0  0
   -4.0432   -0.5708   -0.0000 N   0  0  0  0  0  0  0  0  0  0  0  0
   -5.3395    1.6768   -0.0000 C   0  0  0  0  0  0  0  0  0  0  0  0
   -6.6476    2.4378   -0.0000 C   0  0  0  0  0  0  0  0  0  0  0  0
   -6.6594    3.9481   -0.0000 C   0  0  0  0  0  0  0  0  0  0  0  0
   -7.9557    1.7005   -0.0000 C   0  0  0  0  0  0  0  0  0  0  0  0
  1  2  1  0  0  0  0
  2  3  2  0  0  0  0
  2  4  1  0  0  0  0
  3  5  1  0  0  0  0
  3  6  1  0  0  0  0
  4  7  2  0  0  0  0
  5  8  2  0  0  0  0
  6  9  1  0  0  0  0
  7 10  1  0  0  0  0
  9 11  1  1  0  0  0
  9 12  1  0  0  0  0
 11 13  1  0  0  0  0
 11 14  1  0  0  0  0
 12 15  2  0  0  0  0
 12 16  1  0  0  0  0
 13 17  2  0  0  0  0
 13 18  1  0  0  0  0
 14 19  1  0  0  0  0
 16 20  1  0  0  0  0
 16 21  1  0  0  0  0
 20 22  1  0  0  0  0
 21 23  1  0  0  0  0
 22 24  1  0  0  0  0
 24 25  1  0  0  0  0
 25 26  2  0  0  0  0
 25 27  1  0  0  0  0
 26 28  1  0  0  0  0
 26 29  1  0  0  0  0
 27 30  2  0  0  0  0
 28 31  2  0  0  0  0
 29 32  1  6  0  0  0
 29 33  1  0  0  0  0
 33 34  1  0  0  0  0
 34 35  1  0  0  0  0
 34 36  1  0  0  0  0
  7  8  1  0  0  0  0
 18 19  1  0  0  0  0
 23 24  1  0  0  0  0
 30 31  1  0  0  0  0
M  END
>  <MolRegNo>
398473

>  <m>
=

>  <Value>
120

>  <Unit>
nM

>  <Type>
IC50

>  <pValue>
6.92

>  <Ligand Efficiency>
0

>  <Binding Efficiency>
0

>  <Surface Efficiency>
0

>  <Assay Index>
298334

>  <Assay Category>


>  <Assay Organism>


>  <Target ID>
17045

>  <Target Name>
Cytochrome P450 3A4

>  <Target Organism>
Homo sapiens

>  <Target Description>
Target is a single protein chain

>  <Sequence Accession>
P08684

>  <Reference>
Bioorg Med Chem Lett 17 (20), 5610-5613 (2007)

>  <Pubmed ID>
17822895

>  <DOI>
10.1016/j.bmcl.2007.07.097

$$$$
398517
Actelion Java MolfileCreator 1.0

 43 46  0  0  1  0  0  0  0  0999 V2000
    0.0000   -0.0000   -0.0000 Cl  0  0  0  0  0  0  0  0  0  0  0  0
    1.2843   -0.7849   -0.0000 C   0  0  0  0  0  0  0  0  0  0  0  0
    1.2843   -2.2594   -0.0000 C   0  0  0  0  0  0  0  0  0  0  0  0
    2.5686   -0.0238   -0.0000 C   0  0  0  0  0  0  0  0  0  0  0  0
    2.5686   -3.0086   -0.0000 C   0  0  0  0  0  0  0  0  0  0  0  0
   -0.0238   -2.9967   -0.0000 C   0  0  0  0  0  0  0  0  0  0  0  0
    3.8648   -0.7611   -0.0000 C   0  0  0  0  0  0  0  0  0  0  0  0
    3.8529   -2.2475   -0.0000 C   0  0  0  0  0  0  0  0  0  0  0  0
   -0.0357   -4.4832   -0.0000 C   0  0  0  0  0  0  0  0  0  0  0  0
    5.1491   -0.0000   -0.0000 Cl  0  0  0  0  0  0  0  0  0  0  0  0
    1.2486   -5.2205   -0.0000 N   0  0  0  0  0  0  0  0  0  0  0  0
   -1.3438   -5.2205   -0.0000 C   0  0  0  0  0  0  0  0  0  0  0  0
    1.2130   -6.7070   -0.0000 C   0  0  0  0  0  0  0  0  0  0  0  0
    2.6757   -4.7805   -0.0000 C   0  0  0  0  0  0  0  0  0  0  0  0
   -1.3557   -6.7070   -0.0000 O   0  0  0  0  0  0  0  0  0  0  0  0
   -2.6519   -4.4594   -0.0000 N   0  0  0  0  0  0  0  0  0  0  0  0
   -0.1070   -7.4324   -0.0000 O   0  0  0  0  0  0  0  0  0  0  0  0
    2.6162   -7.1826   -0.0000 C   0  0  0  0  0  0  0  0  0  0  0  0
    3.5200   -6.0054   -0.0000 C   0  0  0  0  0  0  0  0  0  0  0  0
   -3.9719   -5.1967   -0.0000 C   0  0  0  0  0  0  0  0  0  0  0  0
   -2.6638   -2.9492   -0.0000 C   0  0  0  0  0  0  0  0  0  0  0  0
   -5.2800   -4.4356   -0.0000 C   0  0  0  0  0  0  0  0  0  0  0  0
   -3.9719   -2.1643   -0.0000 C   0  0  0  0  0  0  0  0  0  0  0  0
   -5.2918   -2.9254   -0.0000 N   0  0  0  0  0  0  0  0  0  0  0  0
   -6.5999   -2.1643   -0.0000 C   0  0  0  0  0  0  0  0  0  0  0  0
   -6.6118   -0.6422   -0.0000 C   0  0  0  0  0  0  0  0  0  0  0  0
   -7.9199   -2.9016   -0.0000 C   0  0  0  0  0  0  0  0  0  0  0  0
   -7.9199    0.1189   -0.0000 C   0  0  0  0  0  0  0  0  0  0  0  0
   -5.3275    0.1189   -0.0000 C   0  0  0  0  0  0  0  0  0  0  0  0
   -9.2280   -2.1405   -0.0000 C   0  0  0  0  0  0  0  0  0  0  0  0
   -9.2280   -0.6184   -0.0000 C   0  0  0  0  0  0  0  0  0  0  0  0
   -4.0432   -0.6184   -0.0000 N   0  0  0  0  0  0  0  0  0  0  0  0
   -5.3394    1.6292   -0.0000 C   0  0  0  0  0  0  0  0  0  0  0  0
  -10.5361    0.1427   -0.0000 F   0  0  0  0  0  0  0  0  0  0  0  0
   -2.7589    0.1427   -0.0000 C   0  0  0  0  0  0  0  0  0  0  0  0
   -6.6475    2.3903   -0.0000 C   0  0  0  0  0  0  0  0  0  0  0  0
   -1.4746   -0.5946   -0.0000 O   0  0  0  0  0  0  0  0  0  0  0  0
   -2.7708    1.6530   -0.0000 C   0  0  0  0  0  0  0  0  0  0  0  0
   -6.6594    3.9005   -0.0000 C   0  0  0  0  0  0  0  0  0  0  0  0
   -7.9556    1.6530   -0.0000 C   0  0  0  0  0  0  0  0  0  0  0  0
   -1.4865    2.4140   -0.0000 C   0  0  0  0  0  0  0  0  0  0  0  0
   -0.2022    1.6767   -0.0000 C   0  0  0  0  0  0  0  0  0  0  0  0
    1.0822    2.4378   -0.0000 N   0  0  0  0  0  0  0  0  0  0  0  0
  1  2  1  0  0  0  0
  2  3  2  0  0  0  0
  2  4  1  0  0  0  0
  3  5  1  0  0  0  0
  3  6  1  0  0  0  0
  4  7  2  0  0  0  0
  5  8  2  0  0  0  0
  6  9  1  0  0  0  0
  7 10  1  0  0  0  0
  9 11  1  1  0  0  0
  9 12  1  0  0  0  0
 11 13  1  0  0  0  0
 11 14  1  0  0  0  0
 12 15  2  0  0  0  0
 12 16  1  0  0  0  0
 13 17  2  0  0  0  0
 13 18  1  0  0  0  0
 14 19  1  0  0  0  0
 16 20  1  0  0  0  0
 16 21  1  0  0  0  0
 20 22  1  0  0  0  0
 21 23  1  0  0  0  0
 22 24  1  0  0  0  0
 24 25  1  0  0  0  0
 25 26  2  0  0  0  0
 25 27  1  0  0  0  0
 26 28  1  0  0  0  0
 26 29  1  0  0  0  0
 27 30  2  0  0  0  0
 28 31  2  0  0  0  0
 29 32  1  6  0  0  0
 29 33  1  0  0  0  0
 31 34  1  0  0  0  0
 32 35  1  0  0  0  0
 33 36  1  0  0  0  0
 35 37  2  0  0  0  0
 35 38  1  0  0  0  0
 36 39  1  0  0  0  0
 36 40  1  0  0  0  0
 38 41  1  0  0  0  0
 41 42  1  0  0  0  0
 42 43  1  0  0  0  0
  7  8  1  0  0  0  0
 18 19  1  0  0  0  0
 23 24  1  0  0  0  0
 30 31  1  0  0  0  0
M  END
>  <MolRegNo>
398517

>  <m>
=

>  <Value>
15000

>  <Unit>
nM

>  <Type>
IC50

>  <pValue>
4.82

>  <Ligand Efficiency>
0

>  <Binding Efficiency>
0

>  <Surface Efficiency>
0

>  <Assay Index>
298334

>  <Assay Category>


>  <Assay Organism>


>  <Target ID>
17045

>  <Target Name>
Cytochrome P450 3A4

>  <Target Organism>
Homo sapiens

>  <Target Description>
Target is a single protein chain

>  <Sequence Accession>
P08684

>  <Reference>
Bioorg Med Chem Lett 17 (20), 5610-5613 (2007)

>  <Pubmed ID>
17822895

>  <DOI>
10.1016/j.bmcl.2007.07.097

$$$$
398516
Actelion Java MolfileCreator 1.0

 44 47  0  0  1  0  0  0  0  0999 V2000
    0.0000   -0.0000   -0.0000 Cl  0  0  0  0  0  0  0  0  0  0  0  0
    1.2835   -0.7844   -0.0000 C   0  0  0  0  0  0  0  0  0  0  0  0
    1.2835   -2.2581   -0.0000 C   0  0  0  0  0  0  0  0  0  0  0  0
    2.5671   -0.0238   -0.0000 C   0  0  0  0  0  0  0  0  0  0  0  0
    2.5671   -3.0068   -0.0000 C   0  0  0  0  0  0  0  0  0  0  0  0
   -0.0238   -2.9949   -0.0000 C   0  0  0  0  0  0  0  0  0  0  0  0
    3.8625   -0.7606   -0.0000 C   0  0  0  0  0  0  0  0  0  0  0  0
    3.8506   -2.2462   -0.0000 C   0  0  0  0  0  0  0  0  0  0  0  0
   -0.0357   -4.4805   -0.0000 C   0  0  0  0  0  0  0  0  0  0  0  0
    5.1460   -0.0000   -0.0000 Cl  0  0  0  0  0  0  0  0  0  0  0  0
    1.2479   -5.2173   -0.0000 N   0  0  0  0  0  0  0  0  0  0  0  0
   -1.3430   -5.2173   -0.0000 C   0  0  0  0  0  0  0  0  0  0  0  0
    1.2122   -6.7029   -0.0000 C   0  0  0  0  0  0  0  0  0  0  0  0
    2.6740   -4.7776   -0.0000 C   0  0  0  0  0  0  0  0  0  0  0  0
   -1.3548   -6.7029   -0.0000 O   0  0  0  0  0  0  0  0  0  0  0  0
   -2.6503   -4.4567   -0.0000 N   0  0  0  0  0  0  0  0  0  0  0  0
   -0.1070   -7.4279   -0.0000 O   0  0  0  0  0  0  0  0  0  0  0  0
    2.6146   -7.1783   -0.0000 C   0  0  0  0  0  0  0  0  0  0  0  0
    3.5178   -6.0017   -0.0000 C   0  0  0  0  0  0  0  0  0  0  0  0
   -3.9694   -5.1936   -0.0000 C   0  0  0  0  0  0  0  0  0  0  0  0
   -2.6621   -2.9474   -0.0000 C   0  0  0  0  0  0  0  0  0  0  0  0
   -5.2768   -4.4329   -0.0000 C   0  0  0  0  0  0  0  0  0  0  0  0
   -3.9694   -2.1630   -0.0000 C   0  0  0  0  0  0  0  0  0  0  0  0
   -5.2886   -2.9236   -0.0000 N   0  0  0  0  0  0  0  0  0  0  0  0
   -6.5959   -2.1630   -0.0000 C   0  0  0  0  0  0  0  0  0  0  0  0
   -6.6078   -0.6418   -0.0000 C   0  0  0  0  0  0  0  0  0  0  0  0
   -7.9151   -2.8998   -0.0000 C   0  0  0  0  0  0  0  0  0  0  0  0
   -7.9151    0.1188   -0.0000 C   0  0  0  0  0  0  0  0  0  0  0  0
   -5.3243    0.1188   -0.0000 C   0  0  0  0  0  0  0  0  0  0  0  0
   -9.2224   -2.1392   -0.0000 C   0  0  0  0  0  0  0  0  0  0  0  0
   -9.2224   -0.6180   -0.0000 C   0  0  0  0  0  0  0  0  0  0  0  0
   -4.0408   -0.6180   -0.0000 N   0  0  0  0  0  0  0  0  0  0  0  0
   -5.3362    1.6282   -0.0000 C   0  0  0  0  0  0  0  0  0  0  0  0
  -10.5297    0.1426   -0.0000 C   0  0  0  0  0  0  0  0  0  0  0  0
   -2.7572    0.1426   -0.0000 C   0  0  0  0  0  0  0  0  0  0  0  0
   -6.6435    2.3888   -0.0000 C   0  0  0  0  0  0  0  0  0  0  0  0
   -1.4737   -0.5942   -0.0000 O   0  0  0  0  0  0  0  0  0  0  0  0
   -2.7691    1.6520   -0.0000 C   0  0  0  0  0  0  0  0  0  0  0  0
   -6.6554    3.8981   -0.0000 C   0  0  0  0  0  0  0  0  0  0  0  0
   -7.9508    1.6520   -0.0000 C   0  0  0  0  0  0  0  0  0  0  0  0
   -1.4856    2.4126   -0.0000 C   0  0  0  0  0  0  0  0  0  0  0  0
   -1.4975    3.9219   -0.0000 N   0  0  0  0  0  0  0  0  0  0  0  0
   -0.2139    4.6825   -0.0000 C   0  0  0  0  0  0  0  0  0  0  0  0
   -2.8048    4.6825   -0.0000 C   0  0  0  0  0  0  0  0  0  0  0  0
  1  2  1  0  0  0  0
  2  3  2  0  0  0  0
  2  4  1  0  0  0  0
  3  5  1  0  0  0  0
  3  6  1  0  0  0  0
  4  7  2  0  0  0  0
  5  8  2  0  0  0  0
  6  9  1  0  0  0  0
  7 10  1  0  0  0  0
  9 11  1  1  0  0  0
  9 12  1  0  0  0  0
 11 13  1  0  0  0  0
 11 14  1  0  0  0  0
 12 15  2  0  0  0  0
 12 16  1  0  0  0  0
 13 17  2  0  0  0  0
 13 18  1  0  0  0  0
 14 19  1  0  0  0  0
 16 20  1  0  0  0  0
 16 21  1  0  0  0  0
 20 22  1  0  0  0  0
 21 23  1  0  0  0  0
 22 24  1  0  0  0  0
 24 25  1  0  0  0  0
 25 26  2  0  0  0  0
 25 27  1  0  0  0  0
 26 28  1  0  0  0  0
 26 29  1  0  0  0  0
 27 30  2  0  0  0  0
 28 31  2  0  0  0  0
 29 32  1  6  0  0  0
 29 33  1  0  0  0  0
 31 34  1  0  0  0  0
 32 35  1  0  0  0  0
 33 36  1  0  0  0  0
 35 37  2  0  0  0  0
 35 38  1  0  0  0  0
 36 39  1  0  0  0  0
 36 40  1  0  0  0  0
 38 41  1  0  0  0  0
 41 42  1  0  0  0  0
 42 43  1  0  0  0  0
 42 44  1  0  0  0  0
  7  8  1  0  0  0  0
 18 19  1  0  0  0  0
 23 24  1  0  0  0  0
 30 31  1  0  0  0  0
M  END
>  <MolRegNo>
398516

>  <m>
=

>  <Value>
6000

>  <Unit>
nM

>  <Type>
IC50

>  <pValue>
5.22

>  <Ligand Efficiency>
0

>  <Binding Efficiency>
0

>  <Surface Efficiency>
0

>  <Assay Index>
298334

>  <Assay Category>


>  <Assay Organism>


>  <Target ID>
17045

>  <Target Name>
Cytochrome P450 3A4

>  <Target Organism>
Homo sapiens

>  <Target Description>
Target is a single protein chain

>  <Sequence Accession>
P08684

>  <Reference>
Bioorg Med Chem Lett 17 (20), 5610-5613 (2007)

>  <Pubmed ID>
17822895

>  <DOI>
10.1016/j.bmcl.2007.07.097

$$$$
398515
Actelion Java MolfileCreator 1.0

 43 46  0  0  1  0  0  0  0  0999 V2000
    0.0000   -0.0000   -0.0000 Cl  0  0  0  0  0  0  0  0  0  0  0  0
    1.2834   -0.7843   -0.0000 C   0  0  0  0  0  0  0  0  0  0  0  0
    1.2834   -2.2578   -0.0000 C   0  0  0  0  0  0  0  0  0  0  0  0
    2.5668   -0.0238   -0.0000 C   0  0  0  0  0  0  0  0  0  0  0  0
    2.5668   -3.0064   -0.0000 C   0  0  0  0  0  0  0  0  0  0  0  0
   -0.0238   -2.9946   -0.0000 C   0  0  0  0  0  0  0  0  0  0  0  0
    3.8620   -0.7605   -0.0000 C   0  0  0  0  0  0  0  0  0  0  0  0
    3.8501   -2.2459   -0.0000 C   0  0  0  0  0  0  0  0  0  0  0  0
   -0.0356   -4.4800   -0.0000 C   0  0  0  0  0  0  0  0  0  0  0  0
    5.1454   -0.0000   -0.0000 Cl  0  0  0  0  0  0  0  0  0  0  0  0
    1.2477   -5.2167   -0.0000 N   0  0  0  0  0  0  0  0  0  0  0  0
   -1.3428   -5.2167   -0.0000 C   0  0  0  0  0  0  0  0  0  0  0  0
    1.2121   -6.7021   -0.0000 C   0  0  0  0  0  0  0  0  0  0  0  0
    2.6737   -4.7770   -0.0000 C   0  0  0  0  0  0  0  0  0  0  0  0
   -1.3547   -6.7021   -0.0000 O   0  0  0  0  0  0  0  0  0  0  0  0
   -2.6499   -4.4562   -0.0000 N   0  0  0  0  0  0  0  0  0  0  0  0
   -0.1069   -7.4270   -0.0000 O   0  0  0  0  0  0  0  0  0  0  0  0
    2.6143   -7.1774   -0.0000 C   0  0  0  0  0  0  0  0  0  0  0  0
    3.5174   -6.0010   -0.0000 C   0  0  0  0  0  0  0  0  0  0  0  0
   -3.9690   -5.1929   -0.0000 C   0  0  0  0  0  0  0  0  0  0  0  0
   -2.6618   -2.9470   -0.0000 C   0  0  0  0  0  0  0  0  0  0  0  0
   -5.2761   -4.4324   -0.0000 C   0  0  0  0  0  0  0  0  0  0  0  0
   -3.9690   -2.1627   -0.0000 C   0  0  0  0  0  0  0  0  0  0  0  0
   -5.2880   -2.9233   -0.0000 N   0  0  0  0  0  0  0  0  0  0  0  0
   -6.5952   -2.1627   -0.0000 C   0  0  0  0  0  0  0  0  0  0  0  0
   -6.6070   -0.6417   -0.0000 C   0  0  0  0  0  0  0  0  0  0  0  0
   -7.9142   -2.8995   -0.0000 C   0  0  0  0  0  0  0  0  0  0  0  0
   -7.9142    0.1188   -0.0000 C   0  0  0  0  0  0  0  0  0  0  0  0
   -5.3237    0.1188   -0.0000 C   0  0  0  0  0  0  0  0  0  0  0  0
   -9.2332   -2.1390   -0.0000 C   0  0  0  0  0  0  0  0  0  0  0  0
   -9.2332   -0.6179   -0.0000 C   0  0  0  0  0  0  0  0  0  0  0  0
   -4.0403   -0.6179   -0.0000 N   0  0  0  0  0  0  0  0  0  0  0  0
   -5.3355    1.6280   -0.0000 C   0  0  0  0  0  0  0  0  0  0  0  0
   -2.7569    0.1426   -0.0000 C   0  0  0  0  0  0  0  0  0  0  0  0
   -6.6427    2.3885   -0.0000 C   0  0  0  0  0  0  0  0  0  0  0  0
   -1.4735   -0.5942   -0.0000 O   0  0  0  0  0  0  0  0  0  0  0  0
   -2.7688    1.6518   -0.0000 C   0  0  0  0  0  0  0  0  0  0  0  0
   -6.6546    3.8977   -0.0000 C   0  0  0  0  0  0  0  0  0  0  0  0
   -7.9498    1.6518   -0.0000 C   0  0  0  0  0  0  0  0  0  0  0  0
   -1.4854    2.4123   -0.0000 C   0  0  0  0  0  0  0  0  0  0  0  0
   -1.4973    3.9214   -0.0000 N   0  0  0  0  0  0  0  0  0  0  0  0
   -0.2139    4.6820   -0.0000 C   0  0  0  0  0  0  0  0  0  0  0  0
   -2.8044    4.6820   -0.0000 C   0  0  0  0  0  0  0  0  0  0  0  0
  1  2  1  0  0  0  0
  2  3  2  0  0  0  0
  2  4  1  0  0  0  0
  3  5  1  0  0  0  0
  3  6  1  0  0  0  0
  4  7  2  0  0  0  0
  5  8  2  0  0  0  0
  6  9  1  0  0  0  0
  7 10  1  0  0  0  0
  9 11  1  1  0  0  0
  9 12  1  0  0  0  0
 11 13  1  0  0  0  0
 11 14  1  0  0  0  0
 12 15  2  0  0  0  0
 12 16  1  0  0  0  0
 13 17  2  0  0  0  0
 13 18  1  0  0  0  0
 14 19  1  0  0  0  0
 16 20  1  0  0  0  0
 16 21  1  0  0  0  0
 20 22  1  0  0  0  0
 21 23  1  0  0  0  0
 22 24  1  0  0  0  0
 24 25  1  0  0  0  0
 25 26  2  0  0  0  0
 25 27  1  0  0  0  0
 26 28  1  0  0  0  0
 26 29  1  0  0  0  0
 27 30  2  0  0  0  0
 28 31  2  0  0  0  0
 29 32  1  6  0  0  0
 29 33  1  0  0  0  0
 32 34  1  0  0  0  0
 33 35  1  0  0  0  0
 34 36  2  0  0  0  0
 34 37  1  0  0  0  0
 35 38  1  0  0  0  0
 35 39  1  0  0  0  0
 37 40  1  0  0  0  0
 40 41  1  0  0  0  0
 41 42  1  0  0  0  0
 41 43  1  0  0  0  0
  7  8  1  0  0  0  0
 18 19  1  0  0  0  0
 23 24  1  0  0  0  0
 30 31  1  0  0  0  0
M  END
>  <MolRegNo>
398515

>  <m>
=

>  <Value>
6900

>  <Unit>
nM

>  <Type>
IC50

>  <pValue>
5.16

>  <Ligand Efficiency>
0

>  <Binding Efficiency>
0

>  <Surface Efficiency>
0

>  <Assay Index>
298334

>  <Assay Category>


>  <Assay Organism>


>  <Target ID>
17045

>  <Target Name>
Cytochrome P450 3A4

>  <Target Organism>
Homo sapiens

>  <Target Description>
Target is a single protein chain

>  <Sequence Accession>
P08684

>  <Reference>
Bioorg Med Chem Lett 17 (20), 5610-5613 (2007)

>  <Pubmed ID>
17822895

>  <DOI>
10.1016/j.bmcl.2007.07.097

$$$$
398514
Actelion Java MolfileCreator 1.0

 43 46  0  0  1  0  0  0  0  0999 V2000
    0.0000   -0.0000   -0.0000 Cl  0  0  0  0  0  0  0  0  0  0  0  0
    1.2838   -0.7845   -0.0000 C   0  0  0  0  0  0  0  0  0  0  0  0
    1.2838   -2.2585   -0.0000 C   0  0  0  0  0  0  0  0  0  0  0  0
    2.5675   -0.0238   -0.0000 C   0  0  0  0  0  0  0  0  0  0  0  0
    2.5675   -3.0073   -0.0000 C   0  0  0  0  0  0  0  0  0  0  0  0
   -0.0238   -2.9955   -0.0000 C   0  0  0  0  0  0  0  0  0  0  0  0
    3.8632   -0.7608   -0.0000 C   0  0  0  0  0  0  0  0  0  0  0  0
    3.8513   -2.2466   -0.0000 C   0  0  0  0  0  0  0  0  0  0  0  0
   -0.0357   -4.4813   -0.0000 C   0  0  0  0  0  0  0  0  0  0  0  0
    5.1470   -0.0000   -0.0000 Cl  0  0  0  0  0  0  0  0  0  0  0  0
    1.2481   -5.2183   -0.0000 N   0  0  0  0  0  0  0  0  0  0  0  0
   -1.3432   -5.2183   -0.0000 C   0  0  0  0  0  0  0  0  0  0  0  0
    1.2124   -6.7041   -0.0000 C   0  0  0  0  0  0  0  0  0  0  0  0
    2.6745   -4.7785   -0.0000 C   0  0  0  0  0  0  0  0  0  0  0  0
   -1.3551   -6.7041   -0.0000 O   0  0  0  0  0  0  0  0  0  0  0  0
   -2.6507   -4.4575   -0.0000 N   0  0  0  0  0  0  0  0  0  0  0  0
   -0.1070   -7.4292   -0.0000 O   0  0  0  0  0  0  0  0  0  0  0  0
    2.6151   -7.1796   -0.0000 C   0  0  0  0  0  0  0  0  0  0  0  0
    3.5185   -6.0028   -0.0000 C   0  0  0  0  0  0  0  0  0  0  0  0
   -3.9702   -5.1945   -0.0000 C   0  0  0  0  0  0  0  0  0  0  0  0
   -2.6626   -2.9479   -0.0000 C   0  0  0  0  0  0  0  0  0  0  0  0
   -5.2777   -4.4337   -0.0000 C   0  0  0  0  0  0  0  0  0  0  0  0
   -3.9702   -2.1634   -0.0000 C   0  0  0  0  0  0  0  0  0  0  0  0
   -5.2896   -2.9241   -0.0000 N   0  0  0  0  0  0  0  0  0  0  0  0
   -6.5971   -2.1634   -0.0000 C   0  0  0  0  0  0  0  0  0  0  0  0
   -6.6090   -0.6419   -0.0000 C   0  0  0  0  0  0  0  0  0  0  0  0
   -7.9166   -2.9004   -0.0000 C   0  0  0  0  0  0  0  0  0  0  0  0
   -7.9166    0.1189   -0.0000 C   0  0  0  0  0  0  0  0  0  0  0  0
   -5.3253    0.1189   -0.0000 C   0  0  0  0  0  0  0  0  0  0  0  0
   -9.2241   -2.1396   -0.0000 C   0  0  0  0  0  0  0  0  0  0  0  0
   -9.2241   -0.6181   -0.0000 C   0  0  0  0  0  0  0  0  0  0  0  0
   -4.0415   -0.6181   -0.0000 N   0  0  0  0  0  0  0  0  0  0  0  0
   -5.3371    1.6285   -0.0000 C   0  0  0  0  0  0  0  0  0  0  0  0
  -10.5316    0.1426   -0.0000 C   0  0  0  0  0  0  0  0  0  0  0  0
   -2.7577    0.1426   -0.0000 C   0  0  0  0  0  0  0  0  0  0  0  0
   -6.6447    2.3892   -0.0000 C   0  0  0  0  0  0  0  0  0  0  0  0
   -1.4740   -0.5943   -0.0000 O   0  0  0  0  0  0  0  0  0  0  0  0
   -2.7696    1.6523   -0.0000 C   0  0  0  0  0  0  0  0  0  0  0  0
   -6.6566    3.8988   -0.0000 C   0  0  0  0  0  0  0  0  0  0  0  0
   -7.9522    1.6523   -0.0000 C   0  0  0  0  0  0  0  0  0  0  0  0
   -1.4858    2.4130   -0.0000 C   0  0  0  0  0  0  0  0  0  0  0  0
   -1.4977    3.9226   -0.0000 N   0  0  0  0  0  0  0  0  0  0  0  0
   -0.2140    4.6834   -0.0000 C   0  0  0  0  0  0  0  0  0  0  0  0
  1  2  1  0  0  0  0
  2  3  2  0  0  0  0
  2  4  1  0  0  0  0
  3  5  1  0  0  0  0
  3  6  1  0  0  0  0
  4  7  2  0  0  0  0
  5  8  2  0  0  0  0
  6  9  1  0  0  0  0
  7 10  1  0  0  0  0
  9 11  1  1  0  0  0
  9 12  1  0  0  0  0
 11 13  1  0  0  0  0
 11 14  1  0  0  0  0
 12 15  2  0  0  0  0
 12 16  1  0  0  0  0
 13 17  2  0  0  0  0
 13 18  1  0  0  0  0
 14 19  1  0  0  0  0
 16 20  1  0  0  0  0
 16 21  1  0  0  0  0
 20 22  1  0  0  0  0
 21 23  1  0  0  0  0
 22 24  1  0  0  0  0
 24 25  1  0  0  0  0
 25 26  2  0  0  0  0
 25 27  1  0  0  0  0
 26 28  1  0  0  0  0
 26 29  1  0  0  0  0
 27 30  2  0  0  0  0
 28 31  2  0  0  0  0
 29 32  1  6  0  0  0
 29 33  1  0  0  0  0
 31 34  1  0  0  0  0
 32 35  1  0  0  0  0
 33 36  1  0  0  0  0
 35 37  2  0  0  0  0
 35 38  1  0  0  0  0
 36 39  1  0  0  0  0
 36 40  1  0  0  0  0
 38 41  1  0  0  0  0
 41 42  1  0  0  0  0
 42 43  1  0  0  0  0
  7  8  1  0  0  0  0
 18 19  1  0  0  0  0
 23 24  1  0  0  0  0
 30 31  1  0  0  0  0
M  END
>  <MolRegNo>
398514

>  <m>
=

>  <Value>
3400

>  <Unit>
nM

>  <Type>
IC50

>  <pValue>
5.47

>  <Ligand Efficiency>
0

>  <Binding Efficiency>
0

>  <Surface Efficiency>
0

>  <Assay Index>
298334

>  <Assay Category>


>  <Assay Organism>


>  <Target ID>
17045

>  <Target Name>
Cytochrome P450 3A4

>  <Target Organism>
Homo sapiens

>  <Target Description>
Target is a single protein chain

>  <Sequence Accession>
P08684

>  <Reference>
Bioorg Med Chem Lett 17 (20), 5610-5613 (2007)

>  <Pubmed ID>
17822895

>  <DOI>
10.1016/j.bmcl.2007.07.097

$$$$
398513
Actelion Java MolfileCreator 1.0

 42 45  0  0  1  0  0  0  0  0999 V2000
    0.0000   -0.0000   -0.0000 Cl  0  0  0  0  0  0  0  0  0  0  0  0
    1.2840   -0.7847   -0.0000 C   0  0  0  0  0  0  0  0  0  0  0  0
    1.2840   -2.2589   -0.0000 C   0  0  0  0  0  0  0  0  0  0  0  0
    2.5680   -0.0238   -0.0000 C   0  0  0  0  0  0  0  0  0  0  0  0
    2.5680   -3.0079   -0.0000 C   0  0  0  0  0  0  0  0  0  0  0  0
   -0.0238   -2.9960   -0.0000 C   0  0  0  0  0  0  0  0  0  0  0  0
    3.8639   -0.7609   -0.0000 C   0  0  0  0  0  0  0  0  0  0  0  0
    3.8520   -2.2470   -0.0000 C   0  0  0  0  0  0  0  0  0  0  0  0
   -0.0357   -4.4821   -0.0000 C   0  0  0  0  0  0  0  0  0  0  0  0
    5.1479   -0.0000   -0.0000 Cl  0  0  0  0  0  0  0  0  0  0  0  0
    1.2483   -5.2193   -0.0000 N   0  0  0  0  0  0  0  0  0  0  0  0
   -1.3435   -5.2193   -0.0000 C   0  0  0  0  0  0  0  0  0  0  0  0
    1.2127   -6.7054   -0.0000 C   0  0  0  0  0  0  0  0  0  0  0  0
    2.6750   -4.7794   -0.0000 C   0  0  0  0  0  0  0  0  0  0  0  0
   -1.3553   -6.7054   -0.0000 O   0  0  0  0  0  0  0  0  0  0  0  0
   -2.6512   -4.4584   -0.0000 N   0  0  0  0  0  0  0  0  0  0  0  0
   -0.1070   -7.4306   -0.0000 O   0  0  0  0  0  0  0  0  0  0  0  0
    2.6156   -7.1809   -0.0000 C   0  0  0  0  0  0  0  0  0  0  0  0
    3.5191   -6.0039   -0.0000 C   0  0  0  0  0  0  0  0  0  0  0  0
   -3.9709   -5.1955   -0.0000 C   0  0  0  0  0  0  0  0  0  0  0  0
   -2.6631   -2.9485   -0.0000 C   0  0  0  0  0  0  0  0  0  0  0  0
   -5.2787   -4.4346   -0.0000 C   0  0  0  0  0  0  0  0  0  0  0  0
   -3.9709   -2.1638   -0.0000 C   0  0  0  0  0  0  0  0  0  0  0  0
   -5.2906   -2.9247   -0.0000 N   0  0  0  0  0  0  0  0  0  0  0  0
   -6.5984   -2.1638   -0.0000 C   0  0  0  0  0  0  0  0  0  0  0  0
   -6.6103   -0.6420   -0.0000 C   0  0  0  0  0  0  0  0  0  0  0  0
   -7.9181   -2.9009   -0.0000 C   0  0  0  0  0  0  0  0  0  0  0  0
   -7.9181    0.1189   -0.0000 C   0  0  0  0  0  0  0  0  0  0  0  0
   -5.3263    0.1189   -0.0000 C   0  0  0  0  0  0  0  0  0  0  0  0
   -9.2258   -2.1400   -0.0000 C   0  0  0  0  0  0  0  0  0  0  0  0
   -9.2258   -0.6182   -0.0000 C   0  0  0  0  0  0  0  0  0  0  0  0
   -4.0423   -0.6182   -0.0000 N   0  0  0  0  0  0  0  0  0  0  0  0
   -5.3381    1.6288   -0.0000 C   0  0  0  0  0  0  0  0  0  0  0  0
   -2.7582    0.1427   -0.0000 C   0  0  0  0  0  0  0  0  0  0  0  0
   -6.6459    2.3897   -0.0000 C   0  0  0  0  0  0  0  0  0  0  0  0
   -1.4742   -0.5944   -0.0000 O   0  0  0  0  0  0  0  0  0  0  0  0
   -2.7701    1.6526   -0.0000 C   0  0  0  0  0  0  0  0  0  0  0  0
   -6.6578    3.8996   -0.0000 C   0  0  0  0  0  0  0  0  0  0  0  0
   -7.9537    1.6526   -0.0000 C   0  0  0  0  0  0  0  0  0  0  0  0
   -1.4861    2.4135   -0.0000 C   0  0  0  0  0  0  0  0  0  0  0  0
   -1.4980    3.9234   -0.0000 N   0  0  0  0  0  0  0  0  0  0  0  0
   -0.2140    4.6843   -0.0000 C   0  0  0  0  0  0  0  0  0  0  0  0
  1  2  1  0  0  0  0
  2  3  2  0  0  0  0
  2  4  1  0  0  0  0
  3  5  1  0  0  0  0
  3  6  1  0  0  0  0
  4  7  2  0  0  0  0
  5  8  2  0  0  0  0
  6  9  1  0  0  0  0
  7 10  1  0  0  0  0
  9 11  1  1  0  0  0
  9 12  1  0  0  0  0
 11 13  1  0  0  0  0
 11 14  1  0  0  0  0
 12 15  2  0  0  0  0
 12 16  1  0  0  0  0
 13 17  2  0  0  0  0
 13 18  1  0  0  0  0
 14 19  1  0  0  0  0
 16 20  1  0  0  0  0
 16 21  1  0  0  0  0
 20 22  1  0  0  0  0
 21 23  1  0  0  0  0
 22 24  1  0  0  0  0
 24 25  1  0  0  0  0
 25 26  2  0  0  0  0
 25 27  1  0  0  0  0
 26 28  1  0  0  0  0
 26 29  1  0  0  0  0
 27 30  2  0  0  0  0
 28 31  2  0  0  0  0
 29 32  1  6  0  0  0
 29 33  1  0  0  0  0
 32 34  1  0  0  0  0
 33 35  1  0  0  0  0
 34 36  2  0  0  0  0
 34 37  1  0  0  0  0
 35 38  1  0  0  0  0
 35 39  1  0  0  0  0
 37 40  1  0  0  0  0
 40 41  1  0  0  0  0
 41 42  1  0  0  0  0
  7  8  1  0  0  0  0
 18 19  1  0  0  0  0
 23 24  1  0  0  0  0
 30 31  1  0  0  0  0
M  END
>  <MolRegNo>
398513

>  <m>
=

>  <Value>
1300

>  <Unit>
nM

>  <Type>
IC50

>  <pValue>
5.89

>  <Ligand Efficiency>
0

>  <Binding Efficiency>
0

>  <Surface Efficiency>
0

>  <Assay Index>
298334

>  <Assay Category>


>  <Assay Organism>


>  <Target ID>
17045

>  <Target Name>
Cytochrome P450 3A4

>  <Target Organism>
Homo sapiens

>  <Target Description>
Target is a single protein chain

>  <Sequence Accession>
P08684

>  <Reference>
Bioorg Med Chem Lett 17 (20), 5610-5613 (2007)

>  <Pubmed ID>
17822895

>  <DOI>
10.1016/j.bmcl.2007.07.097

$$$$
398512
Actelion Java MolfileCreator 1.0

 45 48  0  0  1  0  0  0  0  0999 V2000
    0.0000   -0.0000   -0.0000 Cl  0  0  0  0  0  0  0  0  0  0  0  0
    1.2832   -0.7842   -0.0000 C   0  0  0  0  0  0  0  0  0  0  0  0
    1.2832   -2.2574   -0.0000 C   0  0  0  0  0  0  0  0  0  0  0  0
    2.5663   -0.0238   -0.0000 C   0  0  0  0  0  0  0  0  0  0  0  0
    2.5663   -3.0059   -0.0000 C   0  0  0  0  0  0  0  0  0  0  0  0
   -0.0238   -2.9940   -0.0000 C   0  0  0  0  0  0  0  0  0  0  0  0
    3.8614   -0.7604   -0.0000 C   0  0  0  0  0  0  0  0  0  0  0  0
    3.8495   -2.2455   -0.0000 C   0  0  0  0  0  0  0  0  0  0  0  0
   -0.0356   -4.4792   -0.0000 C   0  0  0  0  0  0  0  0  0  0  0  0
    5.1445   -0.0000   -0.0000 Cl  0  0  0  0  0  0  0  0  0  0  0  0
    1.2475   -5.2158   -0.0000 N   0  0  0  0  0  0  0  0  0  0  0  0
   -1.3426   -5.2158   -0.0000 C   0  0  0  0  0  0  0  0  0  0  0  0
    1.2119   -6.7009   -0.0000 C   0  0  0  0  0  0  0  0  0  0  0  0
    2.6732   -4.7762   -0.0000 C   0  0  0  0  0  0  0  0  0  0  0  0
   -1.3544   -6.7009   -0.0000 O   0  0  0  0  0  0  0  0  0  0  0  0
   -2.6495   -4.4554   -0.0000 N   0  0  0  0  0  0  0  0  0  0  0  0
   -0.1069   -7.4257   -0.0000 O   0  0  0  0  0  0  0  0  0  0  0  0
    2.6138   -7.1762   -0.0000 C   0  0  0  0  0  0  0  0  0  0  0  0
    3.5168   -5.9999   -0.0000 C   0  0  0  0  0  0  0  0  0  0  0  0
   -3.9683   -5.1920   -0.0000 C   0  0  0  0  0  0  0  0  0  0  0  0
   -2.6614   -2.9465   -0.0000 C   0  0  0  0  0  0  0  0  0  0  0  0
   -5.2752   -4.4316   -0.0000 C   0  0  0  0  0  0  0  0  0  0  0  0
   -3.9683   -2.1624   -0.0000 C   0  0  0  0  0  0  0  0  0  0  0  0
   -5.2871   -2.9227   -0.0000 N   0  0  0  0  0  0  0  0  0  0  0  0
   -6.5940   -2.1624   -0.0000 C   0  0  0  0  0  0  0  0  0  0  0  0
   -6.6059   -0.6416   -0.0000 C   0  0  0  0  0  0  0  0  0  0  0  0
   -7.9128   -2.8990   -0.0000 C   0  0  0  0  0  0  0  0  0  0  0  0
   -7.9128    0.1188   -0.0000 C   0  0  0  0  0  0  0  0  0  0  0  0
   -5.3227    0.1188   -0.0000 C   0  0  0  0  0  0  0  0  0  0  0  0
   -9.2197   -2.1386   -0.0000 C   0  0  0  0  0  0  0  0  0  0  0  0
   -9.2197   -0.6178   -0.0000 C   0  0  0  0  0  0  0  0  0  0  0  0
   -4.0396   -0.6178   -0.0000 N   0  0  0  0  0  0  0  0  0  0  0  0
   -5.3346    1.6277   -0.0000 C   0  0  0  0  0  0  0  0  0  0  0  0
  -10.5266    0.1426   -0.0000 C   0  0  0  0  0  0  0  0  0  0  0  0
   -2.7564    0.1426   -0.0000 C   0  0  0  0  0  0  0  0  0  0  0  0
   -6.6415    2.3881   -0.0000 C   0  0  0  0  0  0  0  0  0  0  0  0
  -11.8454    0.9030   -0.0000 F   0  0  0  0  0  0  0  0  0  0  0  0
   -9.7900    1.4495   -0.0000 F   0  0  0  0  0  0  0  0  0  0  0  0
  -11.2870   -1.1525   -0.0000 F   0  0  0  0  0  0  0  0  0  0  0  0
   -1.4733   -0.5941   -0.0000 O   0  0  0  0  0  0  0  0  0  0  0  0
   -2.7683    1.6515   -0.0000 C   0  0  0  0  0  0  0  0  0  0  0  0
   -6.6534    3.8970   -0.0000 C   0  0  0  0  0  0  0  0  0  0  0  0
   -7.9484    1.6515   -0.0000 C   0  0  0  0  0  0  0  0  0  0  0  0
   -1.4851    2.4119   -0.0000 C   0  0  0  0  0  0  0  0  0  0  0  0
   -1.4970    3.9208   -0.0000 N   0  0  0  0  0  0  0  0  0  0  0  0
  1  2  1  0  0  0  0
  2  3  2  0  0  0  0
  2  4  1  0  0  0  0
  3  5  1  0  0  0  0
  3  6  1  0  0  0  0
  4  7  2  0  0  0  0
  5  8  2  0  0  0  0
  6  9  1  0  0  0  0
  7 10  1  0  0  0  0
  9 11  1  1  0  0  0
  9 12  1  0  0  0  0
 11 13  1  0  0  0  0
 11 14  1  0  0  0  0
 12 15  2  0  0  0  0
 12 16  1  0  0  0  0
 13 17  2  0  0  0  0
 13 18  1  0  0  0  0
 14 19  1  0  0  0  0
 16 20  1  0  0  0  0
 16 21  1  0  0  0  0
 20 22  1  0  0  0  0
 21 23  1  0  0  0  0
 22 24  1  0  0  0  0
 24 25  1  0  0  0  0
 25 26  2  0  0  0  0
 25 27  1  0  0  0  0
 26 28  1  0  0  0  0
 26 29  1  0  0  0  0
 27 30  2  0  0  0  0
 28 31  2  0  0  0  0
 29 32  1  6  0  0  0
 29 33  1  0  0  0  0
 31 34  1  0  0  0  0
 32 35  1  0  0  0  0
 33 36  1  0  0  0  0
 34 37  1  0  0  0  0
 34 38  1  0  0  0  0
 34 39  1  0  0  0  0
 35 40  2  0  0  0  0
 35 41  1  0  0  0  0
 36 42  1  0  0  0  0
 36 43  1  0  0  0  0
 41 44  1  0  0  0  0
 44 45  1  0  0  0  0
  7  8  1  0  0  0  0
 18 19  1  0  0  0  0
 23 24  1  0  0  0  0
 30 31  1  0  0  0  0
M  END
>  <MolRegNo>
398512

>  <m>
=

>  <Value>
5400

>  <Unit>
nM

>  <Type>
IC50

>  <pValue>
5.27

>  <Ligand Efficiency>
0

>  <Binding Efficiency>
0

>  <Surface Efficiency>
0

>  <Assay Index>
298334

>  <Assay Category>


>  <Assay Organism>


>  <Target ID>
17045

>  <Target Name>
Cytochrome P450 3A4

>  <Target Organism>
Homo sapiens

>  <Target Description>
Target is a single protein chain

>  <Sequence Accession>
P08684

>  <Reference>
Bioorg Med Chem Lett 17 (20), 5610-5613 (2007)

>  <Pubmed ID>
17822895

>  <DOI>
10.1016/j.bmcl.2007.07.097

$$$$
398511
Actelion Java MolfileCreator 1.0

 42 45  0  0  1  0  0  0  0  0999 V2000
    0.0000   -0.0000   -0.0000 Cl  0  0  0  0  0  0  0  0  0  0  0  0
    1.2836   -0.7844   -0.0000 C   0  0  0  0  0  0  0  0  0  0  0  0
    1.2836   -2.2582   -0.0000 C   0  0  0  0  0  0  0  0  0  0  0  0
    2.5672   -0.0238   -0.0000 C   0  0  0  0  0  0  0  0  0  0  0  0
    2.5672   -3.0070   -0.0000 C   0  0  0  0  0  0  0  0  0  0  0  0
   -0.0238   -2.9951   -0.0000 C   0  0  0  0  0  0  0  0  0  0  0  0
    3.8627   -0.7607   -0.0000 C   0  0  0  0  0  0  0  0  0  0  0  0
    3.8509   -2.2463   -0.0000 C   0  0  0  0  0  0  0  0  0  0  0  0
   -0.0357   -4.4808   -0.0000 C   0  0  0  0  0  0  0  0  0  0  0  0
    5.1464   -0.0000   -0.0000 Cl  0  0  0  0  0  0  0  0  0  0  0  0
    1.2480   -5.2177   -0.0000 N   0  0  0  0  0  0  0  0  0  0  0  0
   -1.3430   -5.2177   -0.0000 C   0  0  0  0  0  0  0  0  0  0  0  0
    1.2123   -6.7033   -0.0000 C   0  0  0  0  0  0  0  0  0  0  0  0
    2.6742   -4.7779   -0.0000 C   0  0  0  0  0  0  0  0  0  0  0  0
   -1.3549   -6.7033   -0.0000 O   0  0  0  0  0  0  0  0  0  0  0  0
   -2.6504   -4.4570   -0.0000 N   0  0  0  0  0  0  0  0  0  0  0  0
   -0.1070   -7.4284   -0.0000 O   0  0  0  0  0  0  0  0  0  0  0  0
    2.6148   -7.1788   -0.0000 C   0  0  0  0  0  0  0  0  0  0  0  0
    3.5181   -6.0021   -0.0000 C   0  0  0  0  0  0  0  0  0  0  0  0
   -3.9697   -5.1939   -0.0000 C   0  0  0  0  0  0  0  0  0  0  0  0
   -2.6623   -2.9476   -0.0000 C   0  0  0  0  0  0  0  0  0  0  0  0
   -5.2771   -4.4332   -0.0000 C   0  0  0  0  0  0  0  0  0  0  0  0
   -3.9697   -2.1631   -0.0000 C   0  0  0  0  0  0  0  0  0  0  0  0
   -5.2890   -2.9238   -0.0000 N   0  0  0  0  0  0  0  0  0  0  0  0
   -6.5964   -2.1631   -0.0000 C   0  0  0  0  0  0  0  0  0  0  0  0
   -6.6083   -0.6418   -0.0000 C   0  0  0  0  0  0  0  0  0  0  0  0
   -7.9157   -2.9000   -0.0000 C   0  0  0  0  0  0  0  0  0  0  0  0
   -7.9157    0.1189   -0.0000 C   0  0  0  0  0  0  0  0  0  0  0  0
   -5.3246    0.1189   -0.0000 C   0  0  0  0  0  0  0  0  0  0  0  0
   -9.2230   -2.1394   -0.0000 C   0  0  0  0  0  0  0  0  0  0  0  0
   -9.2230   -0.6180   -0.0000 C   0  0  0  0  0  0  0  0  0  0  0  0
   -4.0410   -0.6180   -0.0000 N   0  0  0  0  0  0  0  0  0  0  0  0
   -5.3365    1.6283   -0.0000 C   0  0  0  0  0  0  0  0  0  0  0  0
  -10.5304    0.1426   -0.0000 F   0  0  0  0  0  0  0  0  0  0  0  0
   -2.7574    0.1426   -0.0000 C   0  0  0  0  0  0  0  0  0  0  0  0
   -6.6439    2.3890   -0.0000 C   0  0  0  0  0  0  0  0  0  0  0  0
   -1.4738   -0.5943   -0.0000 O   0  0  0  0  0  0  0  0  0  0  0  0
   -2.7693    1.6521   -0.0000 C   0  0  0  0  0  0  0  0  0  0  0  0
   -6.6558    3.8984   -0.0000 C   0  0  0  0  0  0  0  0  0  0  0  0
   -7.9513    1.6521   -0.0000 C   0  0  0  0  0  0  0  0  0  0  0  0
   -1.4857    2.4127   -0.0000 C   0  0  0  0  0  0  0  0  0  0  0  0
   -1.4976    3.9222   -0.0000 N   0  0  0  0  0  0  0  0  0  0  0  0
  1  2  1  0  0  0  0
  2  3  2  0  0  0  0
  2  4  1  0  0  0  0
  3  5  1  0  0  0  0
  3  6  1  0  0  0  0
  4  7  2  0  0  0  0
  5  8  2  0  0  0  0
  6  9  1  0  0  0  0
  7 10  1  0  0  0  0
  9 11  1  1  0  0  0
  9 12  1  0  0  0  0
 11 13  1  0  0  0  0
 11 14  1  0  0  0  0
 12 15  2  0  0  0  0
 12 16  1  0  0  0  0
 13 17  2  0  0  0  0
 13 18  1  0  0  0  0
 14 19  1  0  0  0  0
 16 20  1  0  0  0  0
 16 21  1  0  0  0  0
 20 22  1  0  0  0  0
 21 23  1  0  0  0  0
 22 24  1  0  0  0  0
 24 25  1  0  0  0  0
 25 26  2  0  0  0  0
 25 27  1  0  0  0  0
 26 28  1  0  0  0  0
 26 29  1  0  0  0  0
 27 30  2  0  0  0  0
 28 31  2  0  0  0  0
 29 32  1  6  0  0  0
 29 33  1  0  0  0  0
 31 34  1  0  0  0  0
 32 35  1  0  0  0  0
 33 36  1  0  0  0  0
 35 37  2  0  0  0  0
 35 38  1  0  0  0  0
 36 39  1  0  0  0  0
 36 40  1  0  0  0  0
 38 41  1  0  0  0  0
 41 42  1  0  0  0  0
  7  8  1  0  0  0  0
 18 19  1  0  0  0  0
 23 24  1  0  0  0  0
 30 31  1  0  0  0  0
M  END
>  <MolRegNo>
398511

>  <m>
=

>  <Value>
6400

>  <Unit>
nM

>  <Type>
IC50

>  <pValue>
5.19

>  <Ligand Efficiency>
0

>  <Binding Efficiency>
0

>  <Surface Efficiency>
0

>  <Assay Index>
298334

>  <Assay Category>


>  <Assay Organism>


>  <Target ID>
17045

>  <Target Name>
Cytochrome P450 3A4

>  <Target Organism>
Homo sapiens

>  <Target Description>
Target is a single protein chain

>  <Sequence Accession>
P08684

>  <Reference>
Bioorg Med Chem Lett 17 (20), 5610-5613 (2007)

>  <Pubmed ID>
17822895

>  <DOI>
10.1016/j.bmcl.2007.07.097

$$$$
398510
Actelion Java MolfileCreator 1.0

 42 45  0  0  1  0  0  0  0  0999 V2000
    0.0000   -0.0000   -0.0000 Cl  0  0  0  0  0  0  0  0  0  0  0  0
    1.2839   -0.7846   -0.0000 C   0  0  0  0  0  0  0  0  0  0  0  0
    1.2839   -2.2588   -0.0000 C   0  0  0  0  0  0  0  0  0  0  0  0
    2.5679   -0.0238   -0.0000 C   0  0  0  0  0  0  0  0  0  0  0  0
    2.5679   -3.0077   -0.0000 C   0  0  0  0  0  0  0  0  0  0  0  0
   -0.0238   -2.9958   -0.0000 C   0  0  0  0  0  0  0  0  0  0  0  0
    3.8637   -0.7608   -0.0000 C   0  0  0  0  0  0  0  0  0  0  0  0
    3.8518   -2.2469   -0.0000 C   0  0  0  0  0  0  0  0  0  0  0  0
   -0.0357   -4.4819   -0.0000 C   0  0  0  0  0  0  0  0  0  0  0  0
    5.1476   -0.0000   -0.0000 Cl  0  0  0  0  0  0  0  0  0  0  0  0
    1.2483   -5.2189   -0.0000 N   0  0  0  0  0  0  0  0  0  0  0  0
   -1.3434   -5.2189   -0.0000 C   0  0  0  0  0  0  0  0  0  0  0  0
    1.2126   -6.7050   -0.0000 C   0  0  0  0  0  0  0  0  0  0  0  0
    2.6749   -4.7791   -0.0000 C   0  0  0  0  0  0  0  0  0  0  0  0
   -1.3553   -6.7050   -0.0000 O   0  0  0  0  0  0  0  0  0  0  0  0
   -2.6511   -4.4581   -0.0000 N   0  0  0  0  0  0  0  0  0  0  0  0
   -0.1070   -7.4302   -0.0000 O   0  0  0  0  0  0  0  0  0  0  0  0
    2.6154   -7.1805   -0.0000 C   0  0  0  0  0  0  0  0  0  0  0  0
    3.5189   -6.0036   -0.0000 C   0  0  0  0  0  0  0  0  0  0  0  0
   -3.9707   -5.1952   -0.0000 C   0  0  0  0  0  0  0  0  0  0  0  0
   -2.6630   -2.9483   -0.0000 C   0  0  0  0  0  0  0  0  0  0  0  0
   -5.2784   -4.4343   -0.0000 C   0  0  0  0  0  0  0  0  0  0  0  0
   -3.9707   -2.1637   -0.0000 C   0  0  0  0  0  0  0  0  0  0  0  0
   -5.2903   -2.9245   -0.0000 N   0  0  0  0  0  0  0  0  0  0  0  0
   -6.5980   -2.1637   -0.0000 C   0  0  0  0  0  0  0  0  0  0  0  0
   -7.9176   -2.9007   -0.0000 C   0  0  0  0  0  0  0  0  0  0  0  0
   -6.6099   -0.6420   -0.0000 C   0  0  0  0  0  0  0  0  0  0  0  0
   -7.9295   -4.3868   -0.0000 F   0  0  0  0  0  0  0  0  0  0  0  0
   -9.2253   -2.1399   -0.0000 C   0  0  0  0  0  0  0  0  0  0  0  0
   -7.9176    0.1189   -0.0000 C   0  0  0  0  0  0  0  0  0  0  0  0
   -5.3259    0.1189   -0.0000 C   0  0  0  0  0  0  0  0  0  0  0  0
   -9.2372   -0.6182   -0.0000 C   0  0  0  0  0  0  0  0  0  0  0  0
   -4.0420   -0.6182   -0.0000 N   0  0  0  0  0  0  0  0  0  0  0  0
   -5.3378    1.6287   -0.0000 C   0  0  0  0  0  0  0  0  0  0  0  0
   -2.7581    0.1427   -0.0000 C   0  0  0  0  0  0  0  0  0  0  0  0
   -6.6455    2.3895   -0.0000 C   0  0  0  0  0  0  0  0  0  0  0  0
   -1.4741   -0.5944   -0.0000 O   0  0  0  0  0  0  0  0  0  0  0  0
   -2.7700    1.6525   -0.0000 C   0  0  0  0  0  0  0  0  0  0  0  0
   -6.6574    3.8993   -0.0000 C   0  0  0  0  0  0  0  0  0  0  0  0
   -7.9532    1.6525   -0.0000 C   0  0  0  0  0  0  0  0  0  0  0  0
   -1.4860    2.4133   -0.0000 C   0  0  0  0  0  0  0  0  0  0  0  0
   -1.4979    3.9231   -0.0000 N   0  0  0  0  0  0  0  0  0  0  0  0
  1  2  1  0  0  0  0
  2  3  2  0  0  0  0
  2  4  1  0  0  0  0
  3  5  1  0  0  0  0
  3  6  1  0  0  0  0
  4  7  2  0  0  0  0
  5  8  2  0  0  0  0
  6  9  1  0  0  0  0
  7 10  1  0  0  0  0
  9 11  1  1  0  0  0
  9 12  1  0  0  0  0
 11 13  1  0  0  0  0
 11 14  1  0  0  0  0
 12 15  2  0  0  0  0
 12 16  1  0  0  0  0
 13 17  2  0  0  0  0
 13 18  1  0  0  0  0
 14 19  1  0  0  0  0
 16 20  1  0  0  0  0
 16 21  1  0  0  0  0
 20 22  1  0  0  0  0
 21 23  1  0  0  0  0
 22 24  1  0  0  0  0
 24 25  1  0  0  0  0
 25 26  2  0  0  0  0
 25 27  1  0  0  0  0
 26 28  1  0  0  0  0
 26 29  1  0  0  0  0
 27 30  2  0  0  0  0
 27 31  1  0  0  0  0
 29 32  2  0  0  0  0
 31 33  1  6  0  0  0
 31 34  1  0  0  0  0
 33 35  1  0  0  0  0
 34 36  1  0  0  0  0
 35 37  2  0  0  0  0
 35 38  1  0  0  0  0
 36 39  1  0  0  0  0
 36 40  1  0  0  0  0
 38 41  1  0  0  0  0
 41 42  1  0  0  0  0
  7  8  1  0  0  0  0
 18 19  1  0  0  0  0
 23 24  1  0  0  0  0
 30 32  1  0  0  0  0
M  END
>  <MolRegNo>
398510

>  <m>
=

>  <Value>
6700

>  <Unit>
nM

>  <Type>
IC50

>  <pValue>
5.17

>  <Ligand Efficiency>
0

>  <Binding Efficiency>
0

>  <Surface Efficiency>
0

>  <Assay Index>
298334

>  <Assay Category>


>  <Assay Organism>


>  <Target ID>
17045

>  <Target Name>
Cytochrome P450 3A4

>  <Target Organism>
Homo sapiens

>  <Target Description>
Target is a single protein chain

>  <Sequence Accession>
P08684

>  <Reference>
Bioorg Med Chem Lett 17 (20), 5610-5613 (2007)

>  <Pubmed ID>
17822895

>  <DOI>
10.1016/j.bmcl.2007.07.097

$$$$
398509
Actelion Java MolfileCreator 1.0

 41 44  0  0  1  0  0  0  0  0999 V2000
    0.0000   -0.0000   -0.0000 Cl  0  0  0  0  0  0  0  0  0  0  0  0
    1.2839   -0.7846   -0.0000 C   0  0  0  0  0  0  0  0  0  0  0  0
    1.2839   -2.2586   -0.0000 C   0  0  0  0  0  0  0  0  0  0  0  0
    2.5677   -0.0238   -0.0000 C   0  0  0  0  0  0  0  0  0  0  0  0
    2.5677   -3.0076   -0.0000 C   0  0  0  0  0  0  0  0  0  0  0  0
   -0.0238   -2.9957   -0.0000 C   0  0  0  0  0  0  0  0  0  0  0  0
    3.8635   -0.7608   -0.0000 C   0  0  0  0  0  0  0  0  0  0  0  0
    3.8516   -2.2468   -0.0000 C   0  0  0  0  0  0  0  0  0  0  0  0
   -0.0357   -4.4816   -0.0000 C   0  0  0  0  0  0  0  0  0  0  0  0
    5.1473   -0.0000   -0.0000 Cl  0  0  0  0  0  0  0  0  0  0  0  0
    1.2482   -5.2187   -0.0000 N   0  0  0  0  0  0  0  0  0  0  0  0
   -1.3433   -5.2187   -0.0000 C   0  0  0  0  0  0  0  0  0  0  0  0
    1.2125   -6.7046   -0.0000 C   0  0  0  0  0  0  0  0  0  0  0  0
    2.6747   -4.7788   -0.0000 C   0  0  0  0  0  0  0  0  0  0  0  0
   -1.3552   -6.7046   -0.0000 O   0  0  0  0  0  0  0  0  0  0  0  0
   -2.6509   -4.4579   -0.0000 N   0  0  0  0  0  0  0  0  0  0  0  0
   -0.1070   -7.4298   -0.0000 O   0  0  0  0  0  0  0  0  0  0  0  0
    2.6153   -7.1801   -0.0000 C   0  0  0  0  0  0  0  0  0  0  0  0
    3.5187   -6.0033   -0.0000 C   0  0  0  0  0  0  0  0  0  0  0  0
   -3.9705   -5.1949   -0.0000 C   0  0  0  0  0  0  0  0  0  0  0  0
   -2.6628   -2.9481   -0.0000 C   0  0  0  0  0  0  0  0  0  0  0  0
   -5.2781   -4.4341   -0.0000 C   0  0  0  0  0  0  0  0  0  0  0  0
   -3.9705   -2.1635   -0.0000 C   0  0  0  0  0  0  0  0  0  0  0  0
   -5.2900   -2.9244   -0.0000 N   0  0  0  0  0  0  0  0  0  0  0  0
   -6.5976   -2.1635   -0.0000 C   0  0  0  0  0  0  0  0  0  0  0  0
   -6.6095   -0.6419   -0.0000 C   0  0  0  0  0  0  0  0  0  0  0  0
   -7.9172   -2.9006   -0.0000 C   0  0  0  0  0  0  0  0  0  0  0  0
   -7.9172    0.1189   -0.0000 C   0  0  0  0  0  0  0  0  0  0  0  0
   -5.3257    0.1189   -0.0000 C   0  0  0  0  0  0  0  0  0  0  0  0
   -9.2248   -2.1398   -0.0000 C   0  0  0  0  0  0  0  0  0  0  0  0
   -9.2248   -0.6182   -0.0000 C   0  0  0  0  0  0  0  0  0  0  0  0
   -4.0418   -0.6182   -0.0000 N   0  0  0  0  0  0  0  0  0  0  0  0
   -5.3375    1.6286   -0.0000 C   0  0  0  0  0  0  0  0  0  0  0  0
   -2.7579    0.1427   -0.0000 C   0  0  0  0  0  0  0  0  0  0  0  0
   -6.6452    2.3894   -0.0000 C   0  0  0  0  0  0  0  0  0  0  0  0
   -1.4741   -0.5944   -0.0000 O   0  0  0  0  0  0  0  0  0  0  0  0
   -2.7698    1.6524   -0.0000 C   0  0  0  0  0  0  0  0  0  0  0  0
   -6.6571    3.8991   -0.0000 C   0  0  0  0  0  0  0  0  0  0  0  0
   -7.9528    1.6524   -0.0000 C   0  0  0  0  0  0  0  0  0  0  0  0
   -1.4860    2.4132   -0.0000 C   0  0  0  0  0  0  0  0  0  0  0  0
   -1.4978    3.9229   -0.0000 N   0  0  0  0  0  0  0  0  0  0  0  0
  1  2  1  0  0  0  0
  2  3  2  0  0  0  0
  2  4  1  0  0  0  0
  3  5  1  0  0  0  0
  3  6  1  0  0  0  0
  4  7  2  0  0  0  0
  5  8  2  0  0  0  0
  6  9  1  0  0  0  0
  7 10  1  0  0  0  0
  9 11  1  1  0  0  0
  9 12  1  0  0  0  0
 11 13  1  0  0  0  0
 11 14  1  0  0  0  0
 12 15  2  0  0  0  0
 12 16  1  0  0  0  0
 13 17  2  0  0  0  0
 13 18  1  0  0  0  0
 14 19  1  0  0  0  0
 16 20  1  0  0  0  0
 16 21  1  0  0  0  0
 20 22  1  0  0  0  0
 21 23  1  0  0  0  0
 22 24  1  0  0  0  0
 24 25  1  0  0  0  0
 25 26  2  0  0  0  0
 25 27  1  0  0  0  0
 26 28  1  0  0  0  0
 26 29  1  0  0  0  0
 27 30  2  0  0  0  0
 28 31  2  0  0  0  0
 29 32  1  6  0  0  0
 29 33  1  0  0  0  0
 32 34  1  0  0  0  0
 33 35  1  0  0  0  0
 34 36  2  0  0  0  0
 34 37  1  0  0  0  0
 35 38  1  0  0  0  0
 35 39  1  0  0  0  0
 37 40  1  0  0  0  0
 40 41  1  0  0  0  0
  7  8  1  0  0  0  0
 18 19  1  0  0  0  0
 23 24  1  0  0  0  0
 30 31  1  0  0  0  0
M  END
>  <MolRegNo>
398509

>  <m>
=

>  <Value>
2900

>  <Unit>
nM

>  <Type>
IC50

>  <pValue>
5.54

>  <Ligand Efficiency>
0

>  <Binding Efficiency>
0

>  <Surface Efficiency>
0

>  <Assay Index>
298334

>  <Assay Category>


>  <Assay Organism>


>  <Target ID>
17045

>  <Target Name>
Cytochrome P450 3A4

>  <Target Organism>
Homo sapiens

>  <Target Description>
Target is a single protein chain

>  <Sequence Accession>
P08684

>  <Reference>
Bioorg Med Chem Lett 17 (20), 5610-5613 (2007)

>  <Pubmed ID>
17822895

>  <DOI>
10.1016/j.bmcl.2007.07.097

$$$$
398508
Actelion Java MolfileCreator 1.0

 43 46  0  0  1  0  0  0  0  0999 V2000
    0.0000   -0.0000   -0.0000 Cl  0  0  0  0  0  0  0  0  0  0  0  0
    1.2836   -0.7844   -0.0000 C   0  0  0  0  0  0  0  0  0  0  0  0
    1.2836   -2.2581   -0.0000 C   0  0  0  0  0  0  0  0  0  0  0  0
    2.5671   -0.0238   -0.0000 C   0  0  0  0  0  0  0  0  0  0  0  0
    2.5671   -3.0069   -0.0000 C   0  0  0  0  0  0  0  0  0  0  0  0
   -0.0238   -2.9950   -0.0000 C   0  0  0  0  0  0  0  0  0  0  0  0
    3.8626   -0.7606   -0.0000 C   0  0  0  0  0  0  0  0  0  0  0  0
    3.8507   -2.2462   -0.0000 C   0  0  0  0  0  0  0  0  0  0  0  0
   -0.0357   -4.4806   -0.0000 C   0  0  0  0  0  0  0  0  0  0  0  0
    5.1461   -0.0000   -0.0000 Cl  0  0  0  0  0  0  0  0  0  0  0  0
    1.2479   -5.2174   -0.0000 N   0  0  0  0  0  0  0  0  0  0  0  0
   -1.3430   -5.2174   -0.0000 C   0  0  0  0  0  0  0  0  0  0  0  0
    1.2122   -6.7030   -0.0000 C   0  0  0  0  0  0  0  0  0  0  0  0
    2.6741   -4.7777   -0.0000 C   0  0  0  0  0  0  0  0  0  0  0  0
   -1.3549   -6.7030   -0.0000 O   0  0  0  0  0  0  0  0  0  0  0  0
   -2.6503   -4.4568   -0.0000 N   0  0  0  0  0  0  0  0  0  0  0  0
   -0.1070   -7.4280   -0.0000 O   0  0  0  0  0  0  0  0  0  0  0  0
    2.6147   -7.1784   -0.0000 C   0  0  0  0  0  0  0  0  0  0  0  0
    3.5179   -6.0018   -0.0000 C   0  0  0  0  0  0  0  0  0  0  0  0
   -3.9695   -5.1937   -0.0000 C   0  0  0  0  0  0  0  0  0  0  0  0
   -2.6622   -2.9474   -0.0000 C   0  0  0  0  0  0  0  0  0  0  0  0
   -5.2768   -4.4330   -0.0000 C   0  0  0  0  0  0  0  0  0  0  0  0
   -3.9695   -2.1630   -0.0000 C   0  0  0  0  0  0  0  0  0  0  0  0
   -5.2887   -2.9237   -0.0000 N   0  0  0  0  0  0  0  0  0  0  0  0
   -6.5961   -2.1630   -0.0000 C   0  0  0  0  0  0  0  0  0  0  0  0
   -6.6079   -0.6418   -0.0000 C   0  0  0  0  0  0  0  0  0  0  0  0
   -7.9153   -2.8999   -0.0000 C   0  0  0  0  0  0  0  0  0  0  0  0
   -7.9153    0.1188   -0.0000 C   0  0  0  0  0  0  0  0  0  0  0  0
   -5.3244    0.1188   -0.0000 C   0  0  0  0  0  0  0  0  0  0  0  0
   -9.2226   -2.1393   -0.0000 C   0  0  0  0  0  0  0  0  0  0  0  0
   -9.2226   -0.6180   -0.0000 C   0  0  0  0  0  0  0  0  0  0  0  0
   -4.0408   -0.6180   -0.0000 N   0  0  0  0  0  0  0  0  0  0  0  0
   -5.3363    1.6282   -0.0000 C   0  0  0  0  0  0  0  0  0  0  0  0
  -10.5299    0.1426   -0.0000 F   0  0  0  0  0  0  0  0  0  0  0  0
   -2.7573    0.1426   -0.0000 C   0  0  0  0  0  0  0  0  0  0  0  0
   -6.6436    2.3888   -0.0000 C   0  0  0  0  0  0  0  0  0  0  0  0
   -1.4737   -0.5942   -0.0000 O   0  0  0  0  0  0  0  0  0  0  0  0
   -2.7692    1.6520   -0.0000 C   0  0  0  0  0  0  0  0  0  0  0  0
   -6.6555    3.8982   -0.0000 C   0  0  0  0  0  0  0  0  0  0  0  0
   -7.9509    1.6520   -0.0000 C   0  0  0  0  0  0  0  0  0  0  0  0
   -2.7929    3.1614   -0.0000 N   0  0  0  0  0  0  0  0  0  0  0  0
   -1.2836    1.6758   -0.0000 C   0  0  0  0  0  0  0  0  0  0  0  0
   -4.2785    1.6520   -0.0000 C   0  0  0  0  0  0  0  0  0  0  0  0
  1  2  1  0  0  0  0
  2  3  2  0  0  0  0
  2  4  1  0  0  0  0
  3  5  1  0  0  0  0
  3  6  1  0  0  0  0
  4  7  2  0  0  0  0
  5  8  2  0  0  0  0
  6  9  1  0  0  0  0
  7 10  1  0  0  0  0
  9 11  1  1  0  0  0
  9 12  1  0  0  0  0
 11 13  1  0  0  0  0
 11 14  1  0  0  0  0
 12 15  2  0  0  0  0
 12 16  1  0  0  0  0
 13 17  2  0  0  0  0
 13 18  1  0  0  0  0
 14 19  1  0  0  0  0
 16 20  1  0  0  0  0
 16 21  1  0  0  0  0
 20 22  1  0  0  0  0
 21 23  1  0  0  0  0
 22 24  1  0  0  0  0
 24 25  1  0  0  0  0
 25 26  2  0  0  0  0
 25 27  1  0  0  0  0
 26 28  1  0  0  0  0
 26 29  1  0  0  0  0
 27 30  2  0  0  0  0
 28 31  2  0  0  0  0
 29 32  1  6  0  0  0
 29 33  1  0  0  0  0
 31 34  1  0  0  0  0
 32 35  1  0  0  0  0
 33 36  1  0  0  0  0
 35 37  2  0  0  0  0
 35 38  1  0  0  0  0
 36 39  1  0  0  0  0
 36 40  1  0  0  0  0
 38 41  1  0  0  0  0
 38 42  1  0  0  0  0
 38 43  1  0  0  0  0
  7  8  1  0  0  0  0
 18 19  1  0  0  0  0
 23 24  1  0  0  0  0
 30 31  1  0  0  0  0
M  END
>  <MolRegNo>
398508

>  <m>
=

>  <Value>
28000

>  <Unit>
nM

>  <Type>
IC50

>  <pValue>
4.55

>  <Ligand Efficiency>
0

>  <Binding Efficiency>
0

>  <Surface Efficiency>
0

>  <Assay Index>
298334

>  <Assay Category>


>  <Assay Organism>


>  <Target ID>
17045

>  <Target Name>
Cytochrome P450 3A4

>  <Target Organism>
Homo sapiens

>  <Target Description>
Target is a single protein chain

>  <Sequence Accession>
P08684

>  <Reference>
Bioorg Med Chem Lett 17 (20), 5610-5613 (2007)

>  <Pubmed ID>
17822895

>  <DOI>
10.1016/j.bmcl.2007.07.097

$$$$
398507
Actelion Java MolfileCreator 1.0

 42 45  0  0  1  0  0  0  0  0999 V2000
    0.0000   -0.0000   -0.0000 Cl  0  0  0  0  0  0  0  0  0  0  0  0
    1.2832   -0.7842   -0.0000 C   0  0  0  0  0  0  0  0  0  0  0  0
    1.2832   -2.2576   -0.0000 C   0  0  0  0  0  0  0  0  0  0  0  0
    2.5665   -0.0238   -0.0000 C   0  0  0  0  0  0  0  0  0  0  0  0
    2.5665   -3.0061   -0.0000 C   0  0  0  0  0  0  0  0  0  0  0  0
   -0.0238   -2.9942   -0.0000 C   0  0  0  0  0  0  0  0  0  0  0  0
    3.8616   -0.7604   -0.0000 C   0  0  0  0  0  0  0  0  0  0  0  0
    3.8497   -2.2457   -0.0000 C   0  0  0  0  0  0  0  0  0  0  0  0
   -0.0356   -4.4795   -0.0000 C   0  0  0  0  0  0  0  0  0  0  0  0
    5.1449   -0.0000   -0.0000 Cl  0  0  0  0  0  0  0  0  0  0  0  0
    1.2476   -5.2162   -0.0000 N   0  0  0  0  0  0  0  0  0  0  0  0
   -1.3427   -5.2162   -0.0000 C   0  0  0  0  0  0  0  0  0  0  0  0
    1.2120   -6.7014   -0.0000 C   0  0  0  0  0  0  0  0  0  0  0  0
    2.6734   -4.7765   -0.0000 C   0  0  0  0  0  0  0  0  0  0  0  0
   -1.3545   -6.7014   -0.0000 O   0  0  0  0  0  0  0  0  0  0  0  0
   -2.6497   -4.4557   -0.0000 N   0  0  0  0  0  0  0  0  0  0  0  0
   -0.1069   -7.4262   -0.0000 O   0  0  0  0  0  0  0  0  0  0  0  0
    2.6140   -7.1767   -0.0000 C   0  0  0  0  0  0  0  0  0  0  0  0
    3.5171   -6.0004   -0.0000 C   0  0  0  0  0  0  0  0  0  0  0  0
   -3.9686   -5.1924   -0.0000 C   0  0  0  0  0  0  0  0  0  0  0  0
   -2.6616   -2.9467   -0.0000 C   0  0  0  0  0  0  0  0  0  0  0  0
   -5.2756   -4.4320   -0.0000 C   0  0  0  0  0  0  0  0  0  0  0  0
   -3.9686   -2.1625   -0.0000 C   0  0  0  0  0  0  0  0  0  0  0  0
   -5.2875   -2.9230   -0.0000 N   0  0  0  0  0  0  0  0  0  0  0  0
   -6.5945   -2.1625   -0.0000 C   0  0  0  0  0  0  0  0  0  0  0  0
   -6.6064   -0.6416   -0.0000 C   0  0  0  0  0  0  0  0  0  0  0  0
   -7.9134   -2.8992   -0.0000 C   0  0  0  0  0  0  0  0  0  0  0  0
   -7.9134    0.1188   -0.0000 C   0  0  0  0  0  0  0  0  0  0  0  0
   -5.3231    0.1188   -0.0000 C   0  0  0  0  0  0  0  0  0  0  0  0
   -9.2204   -2.1387   -0.0000 C   0  0  0  0  0  0  0  0  0  0  0  0
   -9.2204   -0.6179   -0.0000 C   0  0  0  0  0  0  0  0  0  0  0  0
   -4.0399   -0.6179   -0.0000 N   0  0  0  0  0  0  0  0  0  0  0  0
   -5.3350    1.6278   -0.0000 C   0  0  0  0  0  0  0  0  0  0  0  0
  -10.5274    0.1426   -0.0000 F   0  0  0  0  0  0  0  0  0  0  0  0
   -2.7566    0.1426   -0.0000 C   0  0  0  0  0  0  0  0  0  0  0  0
   -6.6420    2.3883   -0.0000 C   0  0  0  0  0  0  0  0  0  0  0  0
   -1.4734   -0.5941   -0.0000 O   0  0  0  0  0  0  0  0  0  0  0  0
   -2.7685    1.6516   -0.0000 C   0  0  0  0  0  0  0  0  0  0  0  0
   -6.6539    3.8973   -0.0000 C   0  0  0  0  0  0  0  0  0  0  0  0
   -7.9490    1.6516   -0.0000 C   0  0  0  0  0  0  0  0  0  0  0  0
   -1.4852    2.4239   -0.0000 N   0  0  0  0  0  0  0  0  0  0  0  0
   -4.0874    2.4120   -0.0000 C   0  0  0  0  0  0  0  0  0  0  0  0
  1  2  1  0  0  0  0
  2  3  2  0  0  0  0
  2  4  1  0  0  0  0
  3  5  1  0  0  0  0
  3  6  1  0  0  0  0
  4  7  2  0  0  0  0
  5  8  2  0  0  0  0
  6  9  1  0  0  0  0
  7 10  1  0  0  0  0
  9 11  1  1  0  0  0
  9 12  1  0  0  0  0
 11 13  1  0  0  0  0
 11 14  1  0  0  0  0
 12 15  2  0  0  0  0
 12 16  1  0  0  0  0
 13 17  2  0  0  0  0
 13 18  1  0  0  0  0
 14 19  1  0  0  0  0
 16 20  1  0  0  0  0
 16 21  1  0  0  0  0
 20 22  1  0  0  0  0
 21 23  1  0  0  0  0
 22 24  1  0  0  0  0
 24 25  1  0  0  0  0
 25 26  2  0  0  0  0
 25 27  1  0  0  0  0
 26 28  1  0  0  0  0
 26 29  1  0  0  0  0
 27 30  2  0  0  0  0
 28 31  2  0  0  0  0
 29 32  1  6  0  0  0
 29 33  1  0  0  0  0
 31 34  1  0  0  0  0
 32 35  1  0  0  0  0
 33 36  1  0  0  0  0
 35 37  2  0  0  0  0
 35 38  1  0  0  0  0
 36 39  1  0  0  0  0
 36 40  1  0  0  0  0
 38 41  1  6  0  0  0
 38 42  1  0  0  0  0
  7  8  1  0  0  0  0
 18 19  1  0  0  0  0
 23 24  1  0  0  0  0
 30 31  1  0  0  0  0
M  END
>  <MolRegNo>
398507

>  <m>
=

>  <Value>
8600

>  <Unit>
nM

>  <Type>
IC50

>  <pValue>
5.07

>  <Ligand Efficiency>
0

>  <Binding Efficiency>
0

>  <Surface Efficiency>
0

>  <Assay Index>
298334

>  <Assay Category>


>  <Assay Organism>


>  <Target ID>
17045

>  <Target Name>
Cytochrome P450 3A4

>  <Target Organism>
Homo sapiens

>  <Target Description>
Target is a single protein chain

>  <Sequence Accession>
P08684

>  <Reference>
Bioorg Med Chem Lett 17 (20), 5610-5613 (2007)

>  <Pubmed ID>
17822895

>  <DOI>
10.1016/j.bmcl.2007.07.097

$$$$
398506
Actelion Java MolfileCreator 1.0

 42 45  0  0  1  0  0  0  0  0999 V2000
    0.0000   -0.0000   -0.0000 Cl  0  0  0  0  0  0  0  0  0  0  0  0
    1.2832   -0.7842   -0.0000 C   0  0  0  0  0  0  0  0  0  0  0  0
    1.2832   -2.2576   -0.0000 C   0  0  0  0  0  0  0  0  0  0  0  0
    2.5665   -0.0238   -0.0000 C   0  0  0  0  0  0  0  0  0  0  0  0
    2.5665   -3.0061   -0.0000 C   0  0  0  0  0  0  0  0  0  0  0  0
   -0.0238   -2.9942   -0.0000 C   0  0  0  0  0  0  0  0  0  0  0  0
    3.8616   -0.7604   -0.0000 C   0  0  0  0  0  0  0  0  0  0  0  0
    3.8497   -2.2457   -0.0000 C   0  0  0  0  0  0  0  0  0  0  0  0
   -0.0356   -4.4795   -0.0000 C   0  0  0  0  0  0  0  0  0  0  0  0
    5.1449   -0.0000   -0.0000 Cl  0  0  0  0  0  0  0  0  0  0  0  0
    1.2476   -5.2162   -0.0000 N   0  0  0  0  0  0  0  0  0  0  0  0
   -1.3427   -5.2162   -0.0000 C   0  0  0  0  0  0  0  0  0  0  0  0
    1.2120   -6.7014   -0.0000 C   0  0  0  0  0  0  0  0  0  0  0  0
    2.6734   -4.7765   -0.0000 C   0  0  0  0  0  0  0  0  0  0  0  0
   -1.3545   -6.7014   -0.0000 O   0  0  0  0  0  0  0  0  0  0  0  0
   -2.6497   -4.4557   -0.0000 N   0  0  0  0  0  0  0  0  0  0  0  0
   -0.1069   -7.4262   -0.0000 O   0  0  0  0  0  0  0  0  0  0  0  0
    2.6140   -7.1767   -0.0000 C   0  0  0  0  0  0  0  0  0  0  0  0
    3.5171   -6.0004   -0.0000 C   0  0  0  0  0  0  0  0  0  0  0  0
   -3.9686   -5.1924   -0.0000 C   0  0  0  0  0  0  0  0  0  0  0  0
   -2.6616   -2.9467   -0.0000 C   0  0  0  0  0  0  0  0  0  0  0  0
   -5.2756   -4.4320   -0.0000 C   0  0  0  0  0  0  0  0  0  0  0  0
   -3.9686   -2.1625   -0.0000 C   0  0  0  0  0  0  0  0  0  0  0  0
   -5.2875   -2.9230   -0.0000 N   0  0  0  0  0  0  0  0  0  0  0  0
   -6.5945   -2.1625   -0.0000 C   0  0  0  0  0  0  0  0  0  0  0  0
   -6.6064   -0.6416   -0.0000 C   0  0  0  0  0  0  0  0  0  0  0  0
   -7.9134   -2.8992   -0.0000 C   0  0  0  0  0  0  0  0  0  0  0  0
   -7.9134    0.1188   -0.0000 C   0  0  0  0  0  0  0  0  0  0  0  0
   -5.3231    0.1188   -0.0000 C   0  0  0  0  0  0  0  0  0  0  0  0
   -9.2204   -2.1387   -0.0000 C   0  0  0  0  0  0  0  0  0  0  0  0
   -9.2204   -0.6179   -0.0000 C   0  0  0  0  0  0  0  0  0  0  0  0
   -4.0399   -0.6179   -0.0000 N   0  0  0  0  0  0  0  0  0  0  0  0
   -5.3350    1.6278   -0.0000 C   0  0  0  0  0  0  0  0  0  0  0  0
  -10.5274    0.1426   -0.0000 C   0  0  0  0  0  0  0  0  0  0  0  0
   -2.7566    0.1426   -0.0000 C   0  0  0  0  0  0  0  0  0  0  0  0
   -6.6420    2.3883   -0.0000 C   0  0  0  0  0  0  0  0  0  0  0  0
   -1.4734   -0.5941   -0.0000 O   0  0  0  0  0  0  0  0  0  0  0  0
   -2.7685    1.6516   -0.0000 C   0  0  0  0  0  0  0  0  0  0  0  0
   -6.6539    3.8973   -0.0000 C   0  0  0  0  0  0  0  0  0  0  0  0
   -7.9490    1.6516   -0.0000 C   0  0  0  0  0  0  0  0  0  0  0  0
   -1.4852    2.4239   -0.0000 N   0  0  0  0  0  0  0  0  0  0  0  0
   -4.0874    2.4120   -0.0000 C   0  0  0  0  0  0  0  0  0  0  0  0
  1  2  1  0  0  0  0
  2  3  2  0  0  0  0
  2  4  1  0  0  0  0
  3  5  1  0  0  0  0
  3  6  1  0  0  0  0
  4  7  2  0  0  0  0
  5  8  2  0  0  0  0
  6  9  1  0  0  0  0
  7 10  1  0  0  0  0
  9 11  1  1  0  0  0
  9 12  1  0  0  0  0
 11 13  1  0  0  0  0
 11 14  1  0  0  0  0
 12 15  2  0  0  0  0
 12 16  1  0  0  0  0
 13 17  2  0  0  0  0
 13 18  1  0  0  0  0
 14 19  1  0  0  0  0
 16 20  1  0  0  0  0
 16 21  1  0  0  0  0
 20 22  1  0  0  0  0
 21 23  1  0  0  0  0
 22 24  1  0  0  0  0
 24 25  1  0  0  0  0
 25 26  2  0  0  0  0
 25 27  1  0  0  0  0
 26 28  1  0  0  0  0
 26 29  1  0  0  0  0
 27 30  2  0  0  0  0
 28 31  2  0  0  0  0
 29 32  1  6  0  0  0
 29 33  1  0  0  0  0
 31 34  1  0  0  0  0
 32 35  1  0  0  0  0
 33 36  1  0  0  0  0
 35 37  2  0  0  0  0
 35 38  1  0  0  0  0
 36 39  1  0  0  0  0
 36 40  1  0  0  0  0
 38 41  1  1  0  0  0
 38 42  1  0  0  0  0
  7  8  1  0  0  0  0
 18 19  1  0  0  0  0
 23 24  1  0  0  0  0
 30 31  1  0  0  0  0
M  END
>  <MolRegNo>
398506

>  <m>
=

>  <Value>
2900

>  <Unit>
nM

>  <Type>
IC50

>  <pValue>
5.54

>  <Ligand Efficiency>
0

>  <Binding Efficiency>
0

>  <Surface Efficiency>
0

>  <Assay Index>
298334

>  <Assay Category>


>  <Assay Organism>


>  <Target ID>
17045

>  <Target Name>
Cytochrome P450 3A4

>  <Target Organism>
Homo sapiens

>  <Target Description>
Target is a single protein chain

>  <Sequence Accession>
P08684

>  <Reference>
Bioorg Med Chem Lett 17 (20), 5610-5613 (2007)

>  <Pubmed ID>
17822895

>  <DOI>
10.1016/j.bmcl.2007.07.097

$$$$
398505
Actelion Java MolfileCreator 1.0

 42 45  0  0  1  0  0  0  0  0999 V2000
    0.0000   -0.0000   -0.0000 Cl  0  0  0  0  0  0  0  0  0  0  0  0
    1.2832   -0.7842   -0.0000 C   0  0  0  0  0  0  0  0  0  0  0  0
    1.2832   -2.2576   -0.0000 C   0  0  0  0  0  0  0  0  0  0  0  0
    2.5665   -0.0238   -0.0000 C   0  0  0  0  0  0  0  0  0  0  0  0
    2.5665   -3.0061   -0.0000 C   0  0  0  0  0  0  0  0  0  0  0  0
   -0.0238   -2.9942   -0.0000 C   0  0  0  0  0  0  0  0  0  0  0  0
    3.8616   -0.7604   -0.0000 C   0  0  0  0  0  0  0  0  0  0  0  0
    3.8497   -2.2457   -0.0000 C   0  0  0  0  0  0  0  0  0  0  0  0
   -0.0356   -4.4795   -0.0000 C   0  0  0  0  0  0  0  0  0  0  0  0
    5.1449   -0.0000   -0.0000 Cl  0  0  0  0  0  0  0  0  0  0  0  0
    1.2476   -5.2162   -0.0000 N   0  0  0  0  0  0  0  0  0  0  0  0
   -1.3427   -5.2162   -0.0000 C   0  0  0  0  0  0  0  0  0  0  0  0
    1.2120   -6.7014   -0.0000 C   0  0  0  0  0  0  0  0  0  0  0  0
    2.6734   -4.7765   -0.0000 C   0  0  0  0  0  0  0  0  0  0  0  0
   -1.3545   -6.7014   -0.0000 O   0  0  0  0  0  0  0  0  0  0  0  0
   -2.6497   -4.4557   -0.0000 N   0  0  0  0  0  0  0  0  0  0  0  0
   -0.1069   -7.4262   -0.0000 O   0  0  0  0  0  0  0  0  0  0  0  0
    2.6140   -7.1767   -0.0000 C   0  0  0  0  0  0  0  0  0  0  0  0
    3.5171   -6.0004   -0.0000 C   0  0  0  0  0  0  0  0  0  0  0  0
   -3.9686   -5.1924   -0.0000 C   0  0  0  0  0  0  0  0  0  0  0  0
   -2.6616   -2.9467   -0.0000 C   0  0  0  0  0  0  0  0  0  0  0  0
   -5.2756   -4.4320   -0.0000 C   0  0  0  0  0  0  0  0  0  0  0  0
   -3.9686   -2.1625   -0.0000 C   0  0  0  0  0  0  0  0  0  0  0  0
   -5.2875   -2.9230   -0.0000 N   0  0  0  0  0  0  0  0  0  0  0  0
   -6.5945   -2.1625   -0.0000 C   0  0  0  0  0  0  0  0  0  0  0  0
   -6.6064   -0.6416   -0.0000 C   0  0  0  0  0  0  0  0  0  0  0  0
   -7.9134   -2.8992   -0.0000 C   0  0  0  0  0  0  0  0  0  0  0  0
   -7.9134    0.1188   -0.0000 C   0  0  0  0  0  0  0  0  0  0  0  0
   -5.3231    0.1188   -0.0000 C   0  0  0  0  0  0  0  0  0  0  0  0
   -9.2204   -2.1387   -0.0000 C   0  0  0  0  0  0  0  0  0  0  0  0
   -9.2204   -0.6179   -0.0000 C   0  0  0  0  0  0  0  0  0  0  0  0
   -4.0399   -0.6179   -0.0000 N   0  0  0  0  0  0  0  0  0  0  0  0
   -5.3350    1.6278   -0.0000 C   0  0  0  0  0  0  0  0  0  0  0  0
  -10.5274    0.1426   -0.0000 F   0  0  0  0  0  0  0  0  0  0  0  0
   -2.7566    0.1426   -0.0000 C   0  0  0  0  0  0  0  0  0  0  0  0
   -6.6420    2.3883   -0.0000 C   0  0  0  0  0  0  0  0  0  0  0  0
   -1.4734   -0.5941   -0.0000 O   0  0  0  0  0  0  0  0  0  0  0  0
   -2.7685    1.6516   -0.0000 C   0  0  0  0  0  0  0  0  0  0  0  0
   -6.6539    3.8973   -0.0000 C   0  0  0  0  0  0  0  0  0  0  0  0
   -7.9490    1.6516   -0.0000 C   0  0  0  0  0  0  0  0  0  0  0  0
   -1.4852    2.4239   -0.0000 N   0  0  0  0  0  0  0  0  0  0  0  0
   -4.0874    2.4120   -0.0000 C   0  0  0  0  0  0  0  0  0  0  0  0
  1  2  1  0  0  0  0
  2  3  2  0  0  0  0
  2  4  1  0  0  0  0
  3  5  1  0  0  0  0
  3  6  1  0  0  0  0
  4  7  2  0  0  0  0
  5  8  2  0  0  0  0
  6  9  1  0  0  0  0
  7 10  1  0  0  0  0
  9 11  1  1  0  0  0
  9 12  1  0  0  0  0
 11 13  1  0  0  0  0
 11 14  1  0  0  0  0
 12 15  2  0  0  0  0
 12 16  1  0  0  0  0
 13 17  2  0  0  0  0
 13 18  1  0  0  0  0
 14 19  1  0  0  0  0
 16 20  1  0  0  0  0
 16 21  1  0  0  0  0
 20 22  1  0  0  0  0
 21 23  1  0  0  0  0
 22 24  1  0  0  0  0
 24 25  1  0  0  0  0
 25 26  2  0  0  0  0
 25 27  1  0  0  0  0
 26 28  1  0  0  0  0
 26 29  1  0  0  0  0
 27 30  2  0  0  0  0
 28 31  2  0  0  0  0
 29 32  1  6  0  0  0
 29 33  1  0  0  0  0
 31 34  1  0  0  0  0
 32 35  1  0  0  0  0
 33 36  1  0  0  0  0
 35 37  2  0  0  0  0
 35 38  1  0  0  0  0
 36 39  1  0  0  0  0
 36 40  1  0  0  0  0
 38 41  1  1  0  0  0
 38 42  1  0  0  0  0
  7  8  1  0  0  0  0
 18 19  1  0  0  0  0
 23 24  1  0  0  0  0
 30 31  1  0  0  0  0
M  END
>  <MolRegNo>
398505

>  <m>
=

>  <Value>
5300

>  <Unit>
nM

>  <Type>
IC50

>  <pValue>
5.28

>  <Ligand Efficiency>
0

>  <Binding Efficiency>
0

>  <Surface Efficiency>
0

>  <Assay Index>
298334

>  <Assay Category>


>  <Assay Organism>


>  <Target ID>
17045

>  <Target Name>
Cytochrome P450 3A4

>  <Target Organism>
Homo sapiens

>  <Target Description>
Target is a single protein chain

>  <Sequence Accession>
P08684

>  <Reference>
Bioorg Med Chem Lett 17 (20), 5610-5613 (2007)

>  <Pubmed ID>
17822895

>  <DOI>
10.1016/j.bmcl.2007.07.097

$$$$
398504
Actelion Java MolfileCreator 1.0

 43 46  0  0  1  0  0  0  0  0999 V2000
    0.0000   -0.0000   -0.0000 Cl  0  0  0  0  0  0  0  0  0  0  0  0
    1.2840   -0.7847   -0.0000 C   0  0  0  0  0  0  0  0  0  0  0  0
    1.2840   -2.2589   -0.0000 C   0  0  0  0  0  0  0  0  0  0  0  0
    2.5680   -0.0238   -0.0000 C   0  0  0  0  0  0  0  0  0  0  0  0
    2.5680   -3.0079   -0.0000 C   0  0  0  0  0  0  0  0  0  0  0  0
   -0.0238   -2.9960   -0.0000 C   0  0  0  0  0  0  0  0  0  0  0  0
    3.8639   -0.7609   -0.0000 C   0  0  0  0  0  0  0  0  0  0  0  0
    3.8520   -2.2470   -0.0000 C   0  0  0  0  0  0  0  0  0  0  0  0
   -0.0357   -4.4821   -0.0000 C   0  0  0  0  0  0  0  0  0  0  0  0
    5.1478   -0.0000   -0.0000 Cl  0  0  0  0  0  0  0  0  0  0  0  0
    1.2483   -5.2192   -0.0000 N   0  0  0  0  0  0  0  0  0  0  0  0
   -1.3434   -5.2192   -0.0000 C   0  0  0  0  0  0  0  0  0  0  0  0
    1.2127   -6.7053   -0.0000 C   0  0  0  0  0  0  0  0  0  0  0  0
    2.6750   -4.7793   -0.0000 C   0  0  0  0  0  0  0  0  0  0  0  0
   -1.3553   -6.7053   -0.0000 O   0  0  0  0  0  0  0  0  0  0  0  0
   -2.6512   -4.4583   -0.0000 N   0  0  0  0  0  0  0  0  0  0  0  0
   -0.1070   -7.4305   -0.0000 O   0  0  0  0  0  0  0  0  0  0  0  0
    2.6155   -7.1808   -0.0000 C   0  0  0  0  0  0  0  0  0  0  0  0
    3.5191   -6.0038   -0.0000 C   0  0  0  0  0  0  0  0  0  0  0  0
   -3.9709   -5.1954   -0.0000 C   0  0  0  0  0  0  0  0  0  0  0  0
   -2.6631   -2.9484   -0.0000 C   0  0  0  0  0  0  0  0  0  0  0  0
   -5.2786   -4.4345   -0.0000 C   0  0  0  0  0  0  0  0  0  0  0  0
   -3.9709   -2.1638   -0.0000 C   0  0  0  0  0  0  0  0  0  0  0  0
   -5.2905   -2.9246   -0.0000 N   0  0  0  0  0  0  0  0  0  0  0  0
   -6.5983   -2.1638   -0.0000 C   0  0  0  0  0  0  0  0  0  0  0  0
   -6.6102   -0.6420   -0.0000 C   0  0  0  0  0  0  0  0  0  0  0  0
   -7.9179   -2.9009   -0.0000 C   0  0  0  0  0  0  0  0  0  0  0  0
   -7.9179    0.1189   -0.0000 C   0  0  0  0  0  0  0  0  0  0  0  0
   -5.3262    0.1189   -0.0000 C   0  0  0  0  0  0  0  0  0  0  0  0
   -9.2257   -2.1400   -0.0000 C   0  0  0  0  0  0  0  0  0  0  0  0
   -9.2257   -0.6182   -0.0000 C   0  0  0  0  0  0  0  0  0  0  0  0
   -4.0422   -0.6182   -0.0000 N   0  0  0  0  0  0  0  0  0  0  0  0
   -5.3381    1.6288   -0.0000 C   0  0  0  0  0  0  0  0  0  0  0  0
  -10.5335    0.1427   -0.0000 F   0  0  0  0  0  0  0  0  0  0  0  0
   -2.7582    0.1427   -0.0000 C   0  0  0  0  0  0  0  0  0  0  0  0
   -6.6458    2.3896   -0.0000 C   0  0  0  0  0  0  0  0  0  0  0  0
   -1.4742   -0.5944   -0.0000 O   0  0  0  0  0  0  0  0  0  0  0  0
   -2.7701    1.6525   -0.0000 C   0  0  0  0  0  0  0  0  0  0  0  0
   -6.6577    3.8995   -0.0000 C   0  0  0  0  0  0  0  0  0  0  0  0
   -7.9536    1.6525   -0.0000 C   0  0  0  0  0  0  0  0  0  0  0  0
   -1.4861    2.4134   -0.0000 N   0  0  0  0  0  0  0  0  0  0  0  0
   -0.2021    1.6763   -0.0000 C   0  0  0  0  0  0  0  0  0  0  0  0
   -1.4980    3.9233   -0.0000 C   0  0  0  0  0  0  0  0  0  0  0  0
  1  2  1  0  0  0  0
  2  3  2  0  0  0  0
  2  4  1  0  0  0  0
  3  5  1  0  0  0  0
  3  6  1  0  0  0  0
  4  7  2  0  0  0  0
  5  8  2  0  0  0  0
  6  9  1  0  0  0  0
  7 10  1  0  0  0  0
  9 11  1  1  0  0  0
  9 12  1  0  0  0  0
 11 13  1  0  0  0  0
 11 14  1  0  0  0  0
 12 15  2  0  0  0  0
 12 16  1  0  0  0  0
 13 17  2  0  0  0  0
 13 18  1  0  0  0  0
 14 19  1  0  0  0  0
 16 20  1  0  0  0  0
 16 21  1  0  0  0  0
 20 22  1  0  0  0  0
 21 23  1  0  0  0  0
 22 24  1  0  0  0  0
 24 25  1  0  0  0  0
 25 26  2  0  0  0  0
 25 27  1  0  0  0  0
 26 28  1  0  0  0  0
 26 29  1  0  0  0  0
 27 30  2  0  0  0  0
 28 31  2  0  0  0  0
 29 32  1  6  0  0  0
 29 33  1  0  0  0  0
 31 34  1  0  0  0  0
 32 35  1  0  0  0  0
 33 36  1  0  0  0  0
 35 37  2  0  0  0  0
 35 38  1  0  0  0  0
 36 39  1  0  0  0  0
 36 40  1  0  0  0  0
 38 41  1  0  0  0  0
 41 42  1  0  0  0  0
 41 43  1  0  0  0  0
  7  8  1  0  0  0  0
 18 19  1  0  0  0  0
 23 24  1  0  0  0  0
 30 31  1  0  0  0  0
M  END
>  <MolRegNo>
398504

>  <m>
=

>  <Value>
15000

>  <Unit>
nM

>  <Type>
IC50

>  <pValue>
4.82

>  <Ligand Efficiency>
0

>  <Binding Efficiency>
0

>  <Surface Efficiency>
0

>  <Assay Index>
298334

>  <Assay Category>


>  <Assay Organism>


>  <Target ID>
17045

>  <Target Name>
Cytochrome P450 3A4

>  <Target Organism>
Homo sapiens

>  <Target Description>
Target is a single protein chain

>  <Sequence Accession>
P08684

>  <Reference>
Bioorg Med Chem Lett 17 (20), 5610-5613 (2007)

>  <Pubmed ID>
17822895

>  <DOI>
10.1016/j.bmcl.2007.07.097

$$$$
398503
Actelion Java MolfileCreator 1.0

 42 45  0  0  1  0  0  0  0  0999 V2000
    0.0000   -0.0000   -0.0000 Cl  0  0  0  0  0  0  0  0  0  0  0  0
    1.2842   -0.7848   -0.0000 C   0  0  0  0  0  0  0  0  0  0  0  0
    1.2842   -2.2592   -0.0000 C   0  0  0  0  0  0  0  0  0  0  0  0
    2.5684   -0.0238   -0.0000 C   0  0  0  0  0  0  0  0  0  0  0  0
    2.5684   -3.0083   -0.0000 C   0  0  0  0  0  0  0  0  0  0  0  0
   -0.0238   -2.9964   -0.0000 C   0  0  0  0  0  0  0  0  0  0  0  0
    3.8644   -0.7610   -0.0000 C   0  0  0  0  0  0  0  0  0  0  0  0
    3.8525   -2.2473   -0.0000 C   0  0  0  0  0  0  0  0  0  0  0  0
   -0.0357   -4.4827   -0.0000 C   0  0  0  0  0  0  0  0  0  0  0  0
    5.1486   -0.0000   -0.0000 Cl  0  0  0  0  0  0  0  0  0  0  0  0
    1.2485   -5.2199   -0.0000 N   0  0  0  0  0  0  0  0  0  0  0  0
   -1.3436   -5.2199   -0.0000 C   0  0  0  0  0  0  0  0  0  0  0  0
    1.2128   -6.7063   -0.0000 C   0  0  0  0  0  0  0  0  0  0  0  0
    2.6754   -4.7800   -0.0000 C   0  0  0  0  0  0  0  0  0  0  0  0
   -1.3555   -6.7063   -0.0000 O   0  0  0  0  0  0  0  0  0  0  0  0
   -2.6516   -4.4590   -0.0000 N   0  0  0  0  0  0  0  0  0  0  0  0
   -0.1070   -7.4316   -0.0000 O   0  0  0  0  0  0  0  0  0  0  0  0
    2.6159   -7.1819   -0.0000 C   0  0  0  0  0  0  0  0  0  0  0  0
    3.5196   -6.0047   -0.0000 C   0  0  0  0  0  0  0  0  0  0  0  0
   -3.9714   -5.1962   -0.0000 C   0  0  0  0  0  0  0  0  0  0  0  0
   -2.6635   -2.9489   -0.0000 C   0  0  0  0  0  0  0  0  0  0  0  0
   -5.2794   -4.4352   -0.0000 C   0  0  0  0  0  0  0  0  0  0  0  0
   -3.9714   -2.1641   -0.0000 C   0  0  0  0  0  0  0  0  0  0  0  0
   -5.2913   -2.9251   -0.0000 N   0  0  0  0  0  0  0  0  0  0  0  0
   -6.5993   -2.1641   -0.0000 C   0  0  0  0  0  0  0  0  0  0  0  0
   -6.6111   -0.6421   -0.0000 C   0  0  0  0  0  0  0  0  0  0  0  0
   -7.9191   -2.9013   -0.0000 C   0  0  0  0  0  0  0  0  0  0  0  0
   -7.9191    0.1189   -0.0000 C   0  0  0  0  0  0  0  0  0  0  0  0
   -5.3270    0.1189   -0.0000 C   0  0  0  0  0  0  0  0  0  0  0  0
   -9.2271   -2.1403   -0.0000 C   0  0  0  0  0  0  0  0  0  0  0  0
   -9.2271   -0.6183   -0.0000 C   0  0  0  0  0  0  0  0  0  0  0  0
   -4.0428   -0.6183   -0.0000 N   0  0  0  0  0  0  0  0  0  0  0  0
   -5.3389    1.6290   -0.0000 C   0  0  0  0  0  0  0  0  0  0  0  0
  -10.5350    0.1427   -0.0000 C   0  0  0  0  0  0  0  0  0  0  0  0
   -2.7586    0.1427   -0.0000 C   0  0  0  0  0  0  0  0  0  0  0  0
   -6.6468    2.3900   -0.0000 C   0  0  0  0  0  0  0  0  0  0  0  0
   -1.4744   -0.5945   -0.0000 O   0  0  0  0  0  0  0  0  0  0  0  0
   -2.7705    1.6528   -0.0000 C   0  0  0  0  0  0  0  0  0  0  0  0
   -6.6587    3.9001   -0.0000 C   0  0  0  0  0  0  0  0  0  0  0  0
   -7.9548    1.6528   -0.0000 C   0  0  0  0  0  0  0  0  0  0  0  0
   -1.4863    2.4138   -0.0000 N   0  0  0  0  0  0  0  0  0  0  0  0
   -0.2021    1.6766   -0.0000 C   0  0  0  0  0  0  0  0  0  0  0  0
  1  2  1  0  0  0  0
  2  3  2  0  0  0  0
  2  4  1  0  0  0  0
  3  5  1  0  0  0  0
  3  6  1  0  0  0  0
  4  7  2  0  0  0  0
  5  8  2  0  0  0  0
  6  9  1  0  0  0  0
  7 10  1  0  0  0  0
  9 11  1  1  0  0  0
  9 12  1  0  0  0  0
 11 13  1  0  0  0  0
 11 14  1  0  0  0  0
 12 15  2  0  0  0  0
 12 16  1  0  0  0  0
 13 17  2  0  0  0  0
 13 18  1  0  0  0  0
 14 19  1  0  0  0  0
 16 20  1  0  0  0  0
 16 21  1  0  0  0  0
 20 22  1  0  0  0  0
 21 23  1  0  0  0  0
 22 24  1  0  0  0  0
 24 25  1  0  0  0  0
 25 26  2  0  0  0  0
 25 27  1  0  0  0  0
 26 28  1  0  0  0  0
 26 29  1  0  0  0  0
 27 30  2  0  0  0  0
 28 31  2  0  0  0  0
 29 32  1  6  0  0  0
 29 33  1  0  0  0  0
 31 34  1  0  0  0  0
 32 35  1  0  0  0  0
 33 36  1  0  0  0  0
 35 37  2  0  0  0  0
 35 38  1  0  0  0  0
 36 39  1  0  0  0  0
 36 40  1  0  0  0  0
 38 41  1  0  0  0  0
 41 42  1  0  0  0  0
  7  8  1  0  0  0  0
 18 19  1  0  0  0  0
 23 24  1  0  0  0  0
 30 31  1  0  0  0  0
M  END
>  <MolRegNo>
398503

>  <m>
=

>  <Value>
3600

>  <Unit>
nM

>  <Type>
IC50

>  <pValue>
5.44

>  <Ligand Efficiency>
0

>  <Binding Efficiency>
0

>  <Surface Efficiency>
0

>  <Assay Index>
298334

>  <Assay Category>


>  <Assay Organism>


>  <Target ID>
17045

>  <Target Name>
Cytochrome P450 3A4

>  <Target Organism>
Homo sapiens

>  <Target Description>
Target is a single protein chain

>  <Sequence Accession>
P08684

>  <Reference>
Bioorg Med Chem Lett 17 (20), 5610-5613 (2007)

>  <Pubmed ID>
17822895

>  <DOI>
10.1016/j.bmcl.2007.07.097

$$$$
398502
Actelion Java MolfileCreator 1.0

 42 45  0  0  1  0  0  0  0  0999 V2000
    0.0000   -0.0000   -0.0000 Cl  0  0  0  0  0  0  0  0  0  0  0  0
    1.2842   -0.7848   -0.0000 C   0  0  0  0  0  0  0  0  0  0  0  0
    1.2842   -2.2592   -0.0000 C   0  0  0  0  0  0  0  0  0  0  0  0
    2.5684   -0.0238   -0.0000 C   0  0  0  0  0  0  0  0  0  0  0  0
    2.5684   -3.0083   -0.0000 C   0  0  0  0  0  0  0  0  0  0  0  0
   -0.0238   -2.9964   -0.0000 C   0  0  0  0  0  0  0  0  0  0  0  0
    3.8644   -0.7610   -0.0000 C   0  0  0  0  0  0  0  0  0  0  0  0
    3.8525   -2.2473   -0.0000 C   0  0  0  0  0  0  0  0  0  0  0  0
   -0.0357   -4.4827   -0.0000 C   0  0  0  0  0  0  0  0  0  0  0  0
    5.1486   -0.0000   -0.0000 Cl  0  0  0  0  0  0  0  0  0  0  0  0
    1.2485   -5.2199   -0.0000 N   0  0  0  0  0  0  0  0  0  0  0  0
   -1.3436   -5.2199   -0.0000 C   0  0  0  0  0  0  0  0  0  0  0  0
    1.2128   -6.7063   -0.0000 C   0  0  0  0  0  0  0  0  0  0  0  0
    2.6754   -4.7800   -0.0000 C   0  0  0  0  0  0  0  0  0  0  0  0
   -1.3555   -6.7063   -0.0000 O   0  0  0  0  0  0  0  0  0  0  0  0
   -2.6516   -4.4590   -0.0000 N   0  0  0  0  0  0  0  0  0  0  0  0
   -0.1070   -7.4316   -0.0000 O   0  0  0  0  0  0  0  0  0  0  0  0
    2.6159   -7.1819   -0.0000 C   0  0  0  0  0  0  0  0  0  0  0  0
    3.5196   -6.0047   -0.0000 C   0  0  0  0  0  0  0  0  0  0  0  0
   -3.9714   -5.1962   -0.0000 C   0  0  0  0  0  0  0  0  0  0  0  0
   -2.6635   -2.9489   -0.0000 C   0  0  0  0  0  0  0  0  0  0  0  0
   -5.2794   -4.4352   -0.0000 C   0  0  0  0  0  0  0  0  0  0  0  0
   -3.9714   -2.1641   -0.0000 C   0  0  0  0  0  0  0  0  0  0  0  0
   -5.2913   -2.9251   -0.0000 N   0  0  0  0  0  0  0  0  0  0  0  0
   -6.5993   -2.1641   -0.0000 C   0  0  0  0  0  0  0  0  0  0  0  0
   -6.6111   -0.6421   -0.0000 C   0  0  0  0  0  0  0  0  0  0  0  0
   -7.9191   -2.9013   -0.0000 C   0  0  0  0  0  0  0  0  0  0  0  0
   -7.9191    0.1189   -0.0000 C   0  0  0  0  0  0  0  0  0  0  0  0
   -5.3270    0.1189   -0.0000 C   0  0  0  0  0  0  0  0  0  0  0  0
   -9.2271   -2.1403   -0.0000 C   0  0  0  0  0  0  0  0  0  0  0  0
   -9.2271   -0.6183   -0.0000 C   0  0  0  0  0  0  0  0  0  0  0  0
   -4.0428   -0.6183   -0.0000 N   0  0  0  0  0  0  0  0  0  0  0  0
   -5.3389    1.6290   -0.0000 C   0  0  0  0  0  0  0  0  0  0  0  0
  -10.5350    0.1427   -0.0000 F   0  0  0  0  0  0  0  0  0  0  0  0
   -2.7586    0.1427   -0.0000 C   0  0  0  0  0  0  0  0  0  0  0  0
   -6.6468    2.3900   -0.0000 C   0  0  0  0  0  0  0  0  0  0  0  0
   -1.4744   -0.5945   -0.0000 O   0  0  0  0  0  0  0  0  0  0  0  0
   -2.7705    1.6528   -0.0000 C   0  0  0  0  0  0  0  0  0  0  0  0
   -6.6587    3.9001   -0.0000 C   0  0  0  0  0  0  0  0  0  0  0  0
   -7.9548    1.6528   -0.0000 C   0  0  0  0  0  0  0  0  0  0  0  0
   -1.4863    2.4138   -0.0000 N   0  0  0  0  0  0  0  0  0  0  0  0
   -0.2021    1.6766   -0.0000 C   0  0  0  0  0  0  0  0  0  0  0  0
  1  2  1  0  0  0  0
  2  3  2  0  0  0  0
  2  4  1  0  0  0  0
  3  5  1  0  0  0  0
  3  6  1  0  0  0  0
  4  7  2  0  0  0  0
  5  8  2  0  0  0  0
  6  9  1  0  0  0  0
  7 10  1  0  0  0  0
  9 11  1  1  0  0  0
  9 12  1  0  0  0  0
 11 13  1  0  0  0  0
 11 14  1  0  0  0  0
 12 15  2  0  0  0  0
 12 16  1  0  0  0  0
 13 17  2  0  0  0  0
 13 18  1  0  0  0  0
 14 19  1  0  0  0  0
 16 20  1  0  0  0  0
 16 21  1  0  0  0  0
 20 22  1  0  0  0  0
 21 23  1  0  0  0  0
 22 24  1  0  0  0  0
 24 25  1  0  0  0  0
 25 26  2  0  0  0  0
 25 27  1  0  0  0  0
 26 28  1  0  0  0  0
 26 29  1  0  0  0  0
 27 30  2  0  0  0  0
 28 31  2  0  0  0  0
 29 32  1  6  0  0  0
 29 33  1  0  0  0  0
 31 34  1  0  0  0  0
 32 35  1  0  0  0  0
 33 36  1  0  0  0  0
 35 37  2  0  0  0  0
 35 38  1  0  0  0  0
 36 39  1  0  0  0  0
 36 40  1  0  0  0  0
 38 41  1  0  0  0  0
 41 42  1  0  0  0  0
  7  8  1  0  0  0  0
 18 19  1  0  0  0  0
 23 24  1  0  0  0  0
 30 31  1  0  0  0  0
M  END
>  <MolRegNo>
398502

>  <m>
=

>  <Value>
6500

>  <Unit>
nM

>  <Type>
IC50

>  <pValue>
5.19

>  <Ligand Efficiency>
0

>  <Binding Efficiency>
0

>  <Surface Efficiency>
0

>  <Assay Index>
298334

>  <Assay Category>


>  <Assay Organism>


>  <Target ID>
17045

>  <Target Name>
Cytochrome P450 3A4

>  <Target Organism>
Homo sapiens

>  <Target Description>
Target is a single protein chain

>  <Sequence Accession>
P08684

>  <Reference>
Bioorg Med Chem Lett 17 (20), 5610-5613 (2007)

>  <Pubmed ID>
17822895

>  <DOI>
10.1016/j.bmcl.2007.07.097

$$$$
398501
Actelion Java MolfileCreator 1.0

 41 44  0  0  1  0  0  0  0  0999 V2000
    0.0000   -0.0000   -0.0000 Cl  0  0  0  0  0  0  0  0  0  0  0  0
    1.2844   -0.7849   -0.0000 C   0  0  0  0  0  0  0  0  0  0  0  0
    1.2844   -2.2597   -0.0000 C   0  0  0  0  0  0  0  0  0  0  0  0
    2.5689   -0.0238   -0.0000 C   0  0  0  0  0  0  0  0  0  0  0  0
    2.5689   -3.0089   -0.0000 C   0  0  0  0  0  0  0  0  0  0  0  0
   -0.0238   -2.9970   -0.0000 C   0  0  0  0  0  0  0  0  0  0  0  0
    3.8652   -0.7611   -0.0000 C   0  0  0  0  0  0  0  0  0  0  0  0
    3.8533   -2.2478   -0.0000 C   0  0  0  0  0  0  0  0  0  0  0  0
   -0.0357   -4.4836   -0.0000 C   0  0  0  0  0  0  0  0  0  0  0  0
    5.1496   -0.0000   -0.0000 Cl  0  0  0  0  0  0  0  0  0  0  0  0
    1.2488   -5.2210   -0.0000 N   0  0  0  0  0  0  0  0  0  0  0  0
   -1.3439   -5.2210   -0.0000 C   0  0  0  0  0  0  0  0  0  0  0  0
    1.2131   -6.7076   -0.0000 C   0  0  0  0  0  0  0  0  0  0  0  0
    2.6759   -4.7810   -0.0000 C   0  0  0  0  0  0  0  0  0  0  0  0
   -1.3558   -6.7076   -0.0000 O   0  0  0  0  0  0  0  0  0  0  0  0
   -2.6521   -4.4598   -0.0000 N   0  0  0  0  0  0  0  0  0  0  0  0
   -0.1070   -7.4331   -0.0000 O   0  0  0  0  0  0  0  0  0  0  0  0
    2.6164   -7.1833   -0.0000 C   0  0  0  0  0  0  0  0  0  0  0  0
    3.5203   -6.0059   -0.0000 C   0  0  0  0  0  0  0  0  0  0  0  0
   -3.9722   -5.1972   -0.0000 C   0  0  0  0  0  0  0  0  0  0  0  0
   -2.6640   -2.9494   -0.0000 C   0  0  0  0  0  0  0  0  0  0  0  0
   -5.2805   -4.4361   -0.0000 C   0  0  0  0  0  0  0  0  0  0  0  0
   -3.9722   -2.1645   -0.0000 C   0  0  0  0  0  0  0  0  0  0  0  0
   -5.2924   -2.9257   -0.0000 N   0  0  0  0  0  0  0  0  0  0  0  0
   -6.6006   -2.1645   -0.0000 C   0  0  0  0  0  0  0  0  0  0  0  0
   -6.6125   -0.6422   -0.0000 C   0  0  0  0  0  0  0  0  0  0  0  0
   -7.9207   -2.9019   -0.0000 C   0  0  0  0  0  0  0  0  0  0  0  0
   -7.9207    0.1189   -0.0000 C   0  0  0  0  0  0  0  0  0  0  0  0
   -5.3280    0.1189   -0.0000 C   0  0  0  0  0  0  0  0  0  0  0  0
   -9.2289   -2.1407   -0.0000 C   0  0  0  0  0  0  0  0  0  0  0  0
   -9.2289   -0.6184   -0.0000 C   0  0  0  0  0  0  0  0  0  0  0  0
   -4.0436   -0.6184   -0.0000 N   0  0  0  0  0  0  0  0  0  0  0  0
   -5.3399    1.6293   -0.0000 C   0  0  0  0  0  0  0  0  0  0  0  0
   -2.7592    0.1427   -0.0000 C   0  0  0  0  0  0  0  0  0  0  0  0
   -6.6481    2.3905   -0.0000 C   0  0  0  0  0  0  0  0  0  0  0  0
   -1.4747   -0.5946   -0.0000 O   0  0  0  0  0  0  0  0  0  0  0  0
   -2.7711    1.6531   -0.0000 C   0  0  0  0  0  0  0  0  0  0  0  0
   -6.6600    3.9009   -0.0000 C   0  0  0  0  0  0  0  0  0  0  0  0
   -7.9564    1.6531   -0.0000 C   0  0  0  0  0  0  0  0  0  0  0  0
   -1.4866    2.4143   -0.0000 N   0  0  0  0  0  0  0  0  0  0  0  0
   -0.2022    1.6769   -0.0000 C   0  0  0  0  0  0  0  0  0  0  0  0
  1  2  1  0  0  0  0
  2  3  2  0  0  0  0
  2  4  1  0  0  0  0
  3  5  1  0  0  0  0
  3  6  1  0  0  0  0
  4  7  2  0  0  0  0
  5  8  2  0  0  0  0
  6  9  1  0  0  0  0
  7 10  1  0  0  0  0
  9 11  1  1  0  0  0
  9 12  1  0  0  0  0
 11 13  1  0  0  0  0
 11 14  1  0  0  0  0
 12 15  2  0  0  0  0
 12 16  1  0  0  0  0
 13 17  2  0  0  0  0
 13 18  1  0  0  0  0
 14 19  1  0  0  0  0
 16 20  1  0  0  0  0
 16 21  1  0  0  0  0
 20 22  1  0  0  0  0
 21 23  1  0  0  0  0
 22 24  1  0  0  0  0
 24 25  1  0  0  0  0
 25 26  2  0  0  0  0
 25 27  1  0  0  0  0
 26 28  1  0  0  0  0
 26 29  1  0  0  0  0
 27 30  2  0  0  0  0
 28 31  2  0  0  0  0
 29 32  1  6  0  0  0
 29 33  1  0  0  0  0
 32 34  1  0  0  0  0
 33 35  1  0  0  0  0
 34 36  2  0  0  0  0
 34 37  1  0  0  0  0
 35 38  1  0  0  0  0
 35 39  1  0  0  0  0
 37 40  1  0  0  0  0
 40 41  1  0  0  0  0
  7  8  1  0  0  0  0
 18 19  1  0  0  0  0
 23 24  1  0  0  0  0
 30 31  1  0  0  0  0
M  END
>  <MolRegNo>
398501

>  <m>
=

>  <Value>
2300

>  <Unit>
nM

>  <Type>
IC50

>  <pValue>
5.64

>  <Ligand Efficiency>
0

>  <Binding Efficiency>
0

>  <Surface Efficiency>
0

>  <Assay Index>
298334

>  <Assay Category>


>  <Assay Organism>


>  <Target ID>
17045

>  <Target Name>
Cytochrome P450 3A4

>  <Target Organism>
Homo sapiens

>  <Target Description>
Target is a single protein chain

>  <Sequence Accession>
P08684

>  <Reference>
Bioorg Med Chem Lett 17 (20), 5610-5613 (2007)

>  <Pubmed ID>
17822895

>  <DOI>
10.1016/j.bmcl.2007.07.097

$$$$
398500
Actelion Java MolfileCreator 1.0

 41 44  0  0  1  0  0  0  0  0999 V2000
    0.0000   -0.0000   -0.0000 Cl  0  0  0  0  0  0  0  0  0  0  0  0
    1.2838   -0.7845   -0.0000 C   0  0  0  0  0  0  0  0  0  0  0  0
    1.2838   -2.2585   -0.0000 C   0  0  0  0  0  0  0  0  0  0  0  0
    2.5676   -0.0238   -0.0000 C   0  0  0  0  0  0  0  0  0  0  0  0
    2.5676   -3.0074   -0.0000 C   0  0  0  0  0  0  0  0  0  0  0  0
   -0.0238   -2.9955   -0.0000 C   0  0  0  0  0  0  0  0  0  0  0  0
    3.8633   -0.7608   -0.0000 C   0  0  0  0  0  0  0  0  0  0  0  0
    3.8514   -2.2467   -0.0000 C   0  0  0  0  0  0  0  0  0  0  0  0
   -0.0357   -4.4814   -0.0000 C   0  0  0  0  0  0  0  0  0  0  0  0
    5.1471   -0.0000   -0.0000 Cl  0  0  0  0  0  0  0  0  0  0  0  0
    1.2481   -5.2184   -0.0000 N   0  0  0  0  0  0  0  0  0  0  0  0
   -1.3432   -5.2184   -0.0000 C   0  0  0  0  0  0  0  0  0  0  0  0
    1.2125   -6.7043   -0.0000 C   0  0  0  0  0  0  0  0  0  0  0  0
    2.6746   -4.7786   -0.0000 C   0  0  0  0  0  0  0  0  0  0  0  0
   -1.3551   -6.7043   -0.0000 O   0  0  0  0  0  0  0  0  0  0  0  0
   -2.6508   -4.4577   -0.0000 N   0  0  0  0  0  0  0  0  0  0  0  0
   -0.1070   -7.4294   -0.0000 O   0  0  0  0  0  0  0  0  0  0  0  0
    2.6152   -7.1798   -0.0000 C   0  0  0  0  0  0  0  0  0  0  0  0
    3.5186   -6.0030   -0.0000 C   0  0  0  0  0  0  0  0  0  0  0  0
   -3.9703   -5.1947   -0.0000 C   0  0  0  0  0  0  0  0  0  0  0  0
   -2.6627   -2.9480   -0.0000 C   0  0  0  0  0  0  0  0  0  0  0  0
   -5.2779   -4.4339   -0.0000 C   0  0  0  0  0  0  0  0  0  0  0  0
   -3.9703   -2.1634   -0.0000 C   0  0  0  0  0  0  0  0  0  0  0  0
   -5.2897   -2.9242   -0.0000 N   0  0  0  0  0  0  0  0  0  0  0  0
   -6.5973   -2.1634   -0.0000 C   0  0  0  0  0  0  0  0  0  0  0  0
   -6.6092   -0.6419   -0.0000 C   0  0  0  0  0  0  0  0  0  0  0  0
   -7.9168   -2.9004   -0.0000 C   0  0  0  0  0  0  0  0  0  0  0  0
   -7.9168    0.1189   -0.0000 C   0  0  0  0  0  0  0  0  0  0  0  0
   -5.3254    0.1189   -0.0000 C   0  0  0  0  0  0  0  0  0  0  0  0
   -9.2244   -2.1397   -0.0000 C   0  0  0  0  0  0  0  0  0  0  0  0
   -9.2244   -0.6181   -0.0000 C   0  0  0  0  0  0  0  0  0  0  0  0
   -4.0416   -0.6181   -0.0000 N   0  0  0  0  0  0  0  0  0  0  0  0
   -5.3373    1.6285   -0.0000 C   0  0  0  0  0  0  0  0  0  0  0  0
  -10.5319    0.1426   -0.0000 F   0  0  0  0  0  0  0  0  0  0  0  0
   -2.7578    0.1426   -0.0000 C   0  0  0  0  0  0  0  0  0  0  0  0
   -6.6449    2.3893   -0.0000 C   0  0  0  0  0  0  0  0  0  0  0  0
   -1.4740   -0.5944   -0.0000 O   0  0  0  0  0  0  0  0  0  0  0  0
   -2.7697    1.6523   -0.0000 C   0  0  0  0  0  0  0  0  0  0  0  0
   -6.6568    3.8990   -0.0000 C   0  0  0  0  0  0  0  0  0  0  0  0
   -7.9525    1.6523   -0.0000 C   0  0  0  0  0  0  0  0  0  0  0  0
   -1.4859    2.4131   -0.0000 N   0  0  0  0  0  0  0  0  0  0  0  0
  1  2  1  0  0  0  0
  2  3  2  0  0  0  0
  2  4  1  0  0  0  0
  3  5  1  0  0  0  0
  3  6  1  0  0  0  0
  4  7  2  0  0  0  0
  5  8  2  0  0  0  0
  6  9  1  0  0  0  0
  7 10  1  0  0  0  0
  9 11  1  1  0  0  0
  9 12  1  0  0  0  0
 11 13  1  0  0  0  0
 11 14  1  0  0  0  0
 12 15  2  0  0  0  0
 12 16  1  0  0  0  0
 13 17  2  0  0  0  0
 13 18  1  0  0  0  0
 14 19  1  0  0  0  0
 16 20  1  0  0  0  0
 16 21  1  0  0  0  0
 20 22  1  0  0  0  0
 21 23  1  0  0  0  0
 22 24  1  0  0  0  0
 24 25  1  0  0  0  0
 25 26  2  0  0  0  0
 25 27  1  0  0  0  0
 26 28  1  0  0  0  0
 26 29  1  0  0  0  0
 27 30  2  0  0  0  0
 28 31  2  0  0  0  0
 29 32  1  6  0  0  0
 29 33  1  0  0  0  0
 31 34  1  0  0  0  0
 32 35  1  0  0  0  0
 33 36  1  0  0  0  0
 35 37  2  0  0  0  0
 35 38  1  0  0  0  0
 36 39  1  0  0  0  0
 36 40  1  0  0  0  0
 38 41  1  0  0  0  0
  7  8  1  0  0  0  0
 18 19  1  0  0  0  0
 23 24  1  0  0  0  0
 30 31  1  0  0  0  0
M  END
>  <MolRegNo>
398500

>  <m>
=

>  <Value>
3600

>  <Unit>
nM

>  <Type>
IC50

>  <pValue>
5.44

>  <Ligand Efficiency>
0

>  <Binding Efficiency>
0

>  <Surface Efficiency>
0

>  <Assay Index>
298334

>  <Assay Category>


>  <Assay Organism>


>  <Target ID>
17045

>  <Target Name>
Cytochrome P450 3A4

>  <Target Organism>
Homo sapiens

>  <Target Description>
Target is a single protein chain

>  <Sequence Accession>
P08684

>  <Reference>
Bioorg Med Chem Lett 17 (20), 5610-5613 (2007)

>  <Pubmed ID>
17822895

>  <DOI>
10.1016/j.bmcl.2007.07.097

$$$$
398499
Actelion Java MolfileCreator 1.0

 46 49  0  0  1  0  0  0  0  0999 V2000
    0.0000   -0.0000   -0.0000 Cl  0  0  0  0  0  0  0  0  0  0  0  0
    1.2825   -0.7838   -0.0000 C   0  0  0  0  0  0  0  0  0  0  0  0
    1.2825   -2.2563   -0.0000 C   0  0  0  0  0  0  0  0  0  0  0  0
    2.5651   -0.0238   -0.0000 C   0  0  0  0  0  0  0  0  0  0  0  0
    2.5651   -3.0044   -0.0000 C   0  0  0  0  0  0  0  0  0  0  0  0
   -0.0238   -2.9926   -0.0000 C   0  0  0  0  0  0  0  0  0  0  0  0
    3.8595   -0.7600   -0.0000 C   0  0  0  0  0  0  0  0  0  0  0  0
    3.8476   -2.2444   -0.0000 C   0  0  0  0  0  0  0  0  0  0  0  0
   -0.0356   -4.4770   -0.0000 C   0  0  0  0  0  0  0  0  0  0  0  0
    5.1420   -0.0000   -0.0000 Cl  0  0  0  0  0  0  0  0  0  0  0  0
    1.2469   -5.2132   -0.0000 N   0  0  0  0  0  0  0  0  0  0  0  0
   -1.3419   -5.2132   -0.0000 C   0  0  0  0  0  0  0  0  0  0  0  0
    1.2113   -6.6976   -0.0000 C   0  0  0  0  0  0  0  0  0  0  0  0
    2.6719   -4.7739   -0.0000 C   0  0  0  0  0  0  0  0  0  0  0  0
   -1.3538   -6.6976   -0.0000 O   0  0  0  0  0  0  0  0  0  0  0  0
   -2.6482   -4.4532   -0.0000 N   0  0  0  0  0  0  0  0  0  0  0  0
   -0.1069   -7.4220   -0.0000 O   0  0  0  0  0  0  0  0  0  0  0  0
    2.6126   -7.1727   -0.0000 C   0  0  0  0  0  0  0  0  0  0  0  0
    3.5151   -5.9970   -0.0000 C   0  0  0  0  0  0  0  0  0  0  0  0
   -3.9663   -5.1895   -0.0000 C   0  0  0  0  0  0  0  0  0  0  0  0
   -2.6601   -2.9451   -0.0000 C   0  0  0  0  0  0  0  0  0  0  0  0
   -5.2726   -4.4295   -0.0000 C   0  0  0  0  0  0  0  0  0  0  0  0
   -3.9663   -2.1613   -0.0000 C   0  0  0  0  0  0  0  0  0  0  0  0
   -5.2845   -2.9213   -0.0000 N   0  0  0  0  0  0  0  0  0  0  0  0
   -6.5908   -2.1613   -0.0000 C   0  0  0  0  0  0  0  0  0  0  0  0
   -6.6026   -0.6413   -0.0000 C   0  0  0  0  0  0  0  0  0  0  0  0
   -7.9089   -2.8976   -0.0000 C   0  0  0  0  0  0  0  0  0  0  0  0
   -7.9089    0.1188   -0.0000 C   0  0  0  0  0  0  0  0  0  0  0  0
   -5.3201    0.1188   -0.0000 C   0  0  0  0  0  0  0  0  0  0  0  0
   -9.2152   -2.1375   -0.0000 C   0  0  0  0  0  0  0  0  0  0  0  0
   -9.2152   -0.6175   -0.0000 C   0  0  0  0  0  0  0  0  0  0  0  0
   -4.0376   -0.6175   -0.0000 N   0  0  0  0  0  0  0  0  0  0  0  0
   -5.3320    1.6269   -0.0000 C   0  0  0  0  0  0  0  0  0  0  0  0
  -10.5333    0.1544   -0.0000 C   0  0  0  0  0  0  0  0  0  0  0  0
   -2.7551    0.1425   -0.0000 C   0  0  0  0  0  0  0  0  0  0  0  0
   -6.6383    2.3869   -0.0000 C   0  0  0  0  0  0  0  0  0  0  0  0
  -11.8515    0.9144   -0.0000 F   0  0  0  0  0  0  0  0  0  0  0  0
   -9.7971    1.4607   -0.0000 F   0  0  0  0  0  0  0  0  0  0  0  0
  -11.3052   -1.1281   -0.0000 F   0  0  0  0  0  0  0  0  0  0  0  0
   -2.7669    1.6507   -0.0000 C   0  0  0  0  0  0  0  0  0  0  0  0
   -6.6501    3.8951   -0.0000 C   0  0  0  0  0  0  0  0  0  0  0  0
   -7.9445    1.6507   -0.0000 C   0  0  0  0  0  0  0  0  0  0  0  0
   -1.4844    2.4107   -0.0000 C   0  0  0  0  0  0  0  0  0  0  0  0
   -1.4963    3.9188   -0.0000 C   0  0  0  0  0  0  0  0  0  0  0  0
   -2.8026    4.6788   -0.0000 O   0  0  0  0  0  0  0  0  0  0  0  0
   -0.2138    4.6788   -0.0000 O   0  0  0  0  0  0  0  0  0  0  0  0
  1  2  1  0  0  0  0
  2  3  2  0  0  0  0
  2  4  1  0  0  0  0
  3  5  1  0  0  0  0
  3  6  1  0  0  0  0
  4  7  2  0  0  0  0
  5  8  2  0  0  0  0
  6  9  1  0  0  0  0
  7 10  1  0  0  0  0
  9 11  1  1  0  0  0
  9 12  1  0  0  0  0
 11 13  1  0  0  0  0
 11 14  1  0  0  0  0
 12 15  2  0  0  0  0
 12 16  1  0  0  0  0
 13 17  2  0  0  0  0
 13 18  1  0  0  0  0
 14 19  1  0  0  0  0
 16 20  1  0  0  0  0
 16 21  1  0  0  0  0
 20 22  1  0  0  0  0
 21 23  1  0  0  0  0
 22 24  1  0  0  0  0
 24 25  1  0  0  0  0
 25 26  2  0  0  0  0
 25 27  1  0  0  0  0
 26 28  1  0  0  0  0
 26 29  1  0  0  0  0
 27 30  2  0  0  0  0
 28 31  2  0  0  0  0
 29 32  1  6  0  0  0
 29 33  1  0  0  0  0
 31 34  1  0  0  0  0
 32 35  1  0  0  0  0
 33 36  1  0  0  0  0
 34 37  1  0  0  0  0
 34 38  1  0  0  0  0
 34 39  1  0  0  0  0
 35 40  1  0  0  0  0
 36 41  1  0  0  0  0
 36 42  1  0  0  0  0
 40 43  1  0  0  0  0
 43 44  1  0  0  0  0
 44 45  2  0  0  0  0
 44 46  1  0  0  0  0
  7  8  1  0  0  0  0
 18 19  1  0  0  0  0
 23 24  1  0  0  0  0
 30 31  1  0  0  0  0
M  END
>  <MolRegNo>
398499

>  <m>
=

>  <Value>
25000

>  <Unit>
nM

>  <Type>
IC50

>  <pValue>
4.6

>  <Ligand Efficiency>
0

>  <Binding Efficiency>
0

>  <Surface Efficiency>
0

>  <Assay Index>
298334

>  <Assay Category>


>  <Assay Organism>


>  <Target ID>
17045

>  <Target Name>
Cytochrome P450 3A4

>  <Target Organism>
Homo sapiens

>  <Target Description>
Target is a single protein chain

>  <Sequence Accession>
P08684

>  <Reference>
Bioorg Med Chem Lett 17 (20), 5610-5613 (2007)

>  <Pubmed ID>
17822895

>  <DOI>
10.1016/j.bmcl.2007.07.097

$$$$
398498
Actelion Java MolfileCreator 1.0

 43 46  0  0  1  0  0  0  0  0999 V2000
    0.0000   -0.0000   -0.0000 Cl  0  0  0  0  0  0  0  0  0  0  0  0
    1.2832   -0.7842   -0.0000 C   0  0  0  0  0  0  0  0  0  0  0  0
    1.2832   -2.2574   -0.0000 C   0  0  0  0  0  0  0  0  0  0  0  0
    2.5663   -0.0238   -0.0000 C   0  0  0  0  0  0  0  0  0  0  0  0
    2.5663   -3.0059   -0.0000 C   0  0  0  0  0  0  0  0  0  0  0  0
   -0.0238   -2.9940   -0.0000 C   0  0  0  0  0  0  0  0  0  0  0  0
    3.8614   -0.7604   -0.0000 C   0  0  0  0  0  0  0  0  0  0  0  0
    3.8495   -2.2455   -0.0000 C   0  0  0  0  0  0  0  0  0  0  0  0
   -0.0356   -4.4792   -0.0000 C   0  0  0  0  0  0  0  0  0  0  0  0
    5.1445   -0.0000   -0.0000 Cl  0  0  0  0  0  0  0  0  0  0  0  0
    1.2475   -5.2158   -0.0000 N   0  0  0  0  0  0  0  0  0  0  0  0
   -1.3426   -5.2158   -0.0000 C   0  0  0  0  0  0  0  0  0  0  0  0
    1.2119   -6.7010   -0.0000 C   0  0  0  0  0  0  0  0  0  0  0  0
    2.6733   -4.7762   -0.0000 C   0  0  0  0  0  0  0  0  0  0  0  0
   -1.3544   -6.7010   -0.0000 O   0  0  0  0  0  0  0  0  0  0  0  0
   -2.6495   -4.4554   -0.0000 N   0  0  0  0  0  0  0  0  0  0  0  0
   -0.1069   -7.4257   -0.0000 O   0  0  0  0  0  0  0  0  0  0  0  0
    2.6138   -7.1762   -0.0000 C   0  0  0  0  0  0  0  0  0  0  0  0
    3.5168   -6.0000   -0.0000 C   0  0  0  0  0  0  0  0  0  0  0  0
   -3.9683   -5.1921   -0.0000 C   0  0  0  0  0  0  0  0  0  0  0  0
   -2.6614   -2.9465   -0.0000 C   0  0  0  0  0  0  0  0  0  0  0  0
   -5.2752   -4.4317   -0.0000 C   0  0  0  0  0  0  0  0  0  0  0  0
   -3.9683   -2.1624   -0.0000 C   0  0  0  0  0  0  0  0  0  0  0  0
   -5.2871   -2.9228   -0.0000 N   0  0  0  0  0  0  0  0  0  0  0  0
   -6.5940   -2.1624   -0.0000 C   0  0  0  0  0  0  0  0  0  0  0  0
   -6.6059   -0.6416   -0.0000 C   0  0  0  0  0  0  0  0  0  0  0  0
   -7.9128   -2.8990   -0.0000 C   0  0  0  0  0  0  0  0  0  0  0  0
   -7.9128    0.1188   -0.0000 C   0  0  0  0  0  0  0  0  0  0  0  0
   -5.3227    0.1188   -0.0000 C   0  0  0  0  0  0  0  0  0  0  0  0
   -9.2198   -2.1386   -0.0000 C   0  0  0  0  0  0  0  0  0  0  0  0
   -9.2198   -0.6178   -0.0000 C   0  0  0  0  0  0  0  0  0  0  0  0
   -4.0396   -0.6178   -0.0000 N   0  0  0  0  0  0  0  0  0  0  0  0
   -5.3346    1.6277   -0.0000 C   0  0  0  0  0  0  0  0  0  0  0  0
  -10.5267    0.1426   -0.0000 F   0  0  0  0  0  0  0  0  0  0  0  0
   -2.7564    0.1426   -0.0000 C   0  0  0  0  0  0  0  0  0  0  0  0
   -6.6416    2.3881   -0.0000 C   0  0  0  0  0  0  0  0  0  0  0  0
   -2.7683    1.6515   -0.0000 C   0  0  0  0  0  0  0  0  0  0  0  0
   -6.6534    3.8970   -0.0000 C   0  0  0  0  0  0  0  0  0  0  0  0
   -7.9485    1.6515   -0.0000 C   0  0  0  0  0  0  0  0  0  0  0  0
   -1.4851    2.4119   -0.0000 C   0  0  0  0  0  0  0  0  0  0  0  0
   -1.4970    3.9208   -0.0000 C   0  0  0  0  0  0  0  0  0  0  0  0
   -2.8039    4.6812   -0.0000 O   0  0  0  0  0  0  0  0  0  0  0  0
   -0.2139    4.6812   -0.0000 O   0  0  0  0  0  0  0  0  0  0  0  0
  1  2  1  0  0  0  0
  2  3  2  0  0  0  0
  2  4  1  0  0  0  0
  3  5  1  0  0  0  0
  3  6  1  0  0  0  0
  4  7  2  0  0  0  0
  5  8  2  0  0  0  0
  6  9  1  0  0  0  0
  7 10  1  0  0  0  0
  9 11  1  1  0  0  0
  9 12  1  0  0  0  0
 11 13  1  0  0  0  0
 11 14  1  0  0  0  0
 12 15  2  0  0  0  0
 12 16  1  0  0  0  0
 13 17  2  0  0  0  0
 13 18  1  0  0  0  0
 14 19  1  0  0  0  0
 16 20  1  0  0  0  0
 16 21  1  0  0  0  0
 20 22  1  0  0  0  0
 21 23  1  0  0  0  0
 22 24  1  0  0  0  0
 24 25  1  0  0  0  0
 25 26  2  0  0  0  0
 25 27  1  0  0  0  0
 26 28  1  0  0  0  0
 26 29  1  0  0  0  0
 27 30  2  0  0  0  0
 28 31  2  0  0  0  0
 29 32  1  6  0  0  0
 29 33  1  0  0  0  0
 31 34  1  0  0  0  0
 32 35  1  0  0  0  0
 33 36  1  0  0  0  0
 35 37  1  0  0  0  0
 36 38  1  0  0  0  0
 36 39  1  0  0  0  0
 37 40  1  0  0  0  0
 40 41  1  0  0  0  0
 41 42  2  0  0  0  0
 41 43  1  0  0  0  0
  7  8  1  0  0  0  0
 18 19  1  0  0  0  0
 23 24  1  0  0  0  0
 30 31  1  0  0  0  0
M  END
>  <MolRegNo>
398498

>  <m>
=

>  <Value>
21000

>  <Unit>
nM

>  <Type>
IC50

>  <pValue>
4.68

>  <Ligand Efficiency>
0

>  <Binding Efficiency>
0

>  <Surface Efficiency>
0

>  <Assay Index>
298334

>  <Assay Category>


>  <Assay Organism>


>  <Target ID>
17045

>  <Target Name>
Cytochrome P450 3A4

>  <Target Organism>
Homo sapiens

>  <Target Description>
Target is a single protein chain

>  <Sequence Accession>
P08684

>  <Reference>
Bioorg Med Chem Lett 17 (20), 5610-5613 (2007)

>  <Pubmed ID>
17822895

>  <DOI>
10.1016/j.bmcl.2007.07.097

$$$$
398494
Actelion Java MolfileCreator 1.0

 41 44  0  0  1  0  0  0  0  0999 V2000
    0.0000   -0.0000   -0.0000 Cl  0  0  0  0  0  0  0  0  0  0  0  0
    1.2832   -0.7842   -0.0000 C   0  0  0  0  0  0  0  0  0  0  0  0
    1.2832   -2.2574   -0.0000 C   0  0  0  0  0  0  0  0  0  0  0  0
    2.5663   -0.0238   -0.0000 C   0  0  0  0  0  0  0  0  0  0  0  0
    2.5663   -3.0060   -0.0000 C   0  0  0  0  0  0  0  0  0  0  0  0
   -0.0238   -2.9941   -0.0000 C   0  0  0  0  0  0  0  0  0  0  0  0
    3.8614   -0.7604   -0.0000 C   0  0  0  0  0  0  0  0  0  0  0  0
    3.8495   -2.2456   -0.0000 C   0  0  0  0  0  0  0  0  0  0  0  0
   -0.0356   -4.4792   -0.0000 C   0  0  0  0  0  0  0  0  0  0  0  0
    5.1446   -0.0000   -0.0000 Cl  0  0  0  0  0  0  0  0  0  0  0  0
    1.2475   -5.2159   -0.0000 N   0  0  0  0  0  0  0  0  0  0  0  0
   -1.3426   -5.2159   -0.0000 C   0  0  0  0  0  0  0  0  0  0  0  0
    1.2119   -6.7010   -0.0000 C   0  0  0  0  0  0  0  0  0  0  0  0
    2.6733   -4.7763   -0.0000 C   0  0  0  0  0  0  0  0  0  0  0  0
   -1.3545   -6.7010   -0.0000 O   0  0  0  0  0  0  0  0  0  0  0  0
   -2.6495   -4.4555   -0.0000 N   0  0  0  0  0  0  0  0  0  0  0  0
   -0.1069   -7.4258   -0.0000 O   0  0  0  0  0  0  0  0  0  0  0  0
    2.6139   -7.1763   -0.0000 C   0  0  0  0  0  0  0  0  0  0  0  0
    3.5168   -6.0000   -0.0000 C   0  0  0  0  0  0  0  0  0  0  0  0
   -3.9683   -5.1921   -0.0000 C   0  0  0  0  0  0  0  0  0  0  0  0
   -2.6614   -2.9465   -0.0000 C   0  0  0  0  0  0  0  0  0  0  0  0
   -5.2753   -4.4317   -0.0000 C   0  0  0  0  0  0  0  0  0  0  0  0
   -3.9683   -2.1624   -0.0000 C   0  0  0  0  0  0  0  0  0  0  0  0
   -5.2871   -2.9228   -0.0000 N   0  0  0  0  0  0  0  0  0  0  0  0
   -6.5941   -2.1624   -0.0000 C   0  0  0  0  0  0  0  0  0  0  0  0
   -6.6060   -0.6416   -0.0000 C   0  0  0  0  0  0  0  0  0  0  0  0
   -7.9129   -2.8990   -0.0000 C   0  0  0  0  0  0  0  0  0  0  0  0
   -7.9129    0.1188   -0.0000 C   0  0  0  0  0  0  0  0  0  0  0  0
   -5.3228    0.1188   -0.0000 C   0  0  0  0  0  0  0  0  0  0  0  0
   -9.2198   -2.1386   -0.0000 C   0  0  0  0  0  0  0  0  0  0  0  0
   -9.2198   -0.6178   -0.0000 C   0  0  0  0  0  0  0  0  0  0  0  0
   -4.0396   -0.6178   -0.0000 N   0  0  0  0  0  0  0  0  0  0  0  0
   -5.3347    1.6277   -0.0000 C   0  0  0  0  0  0  0  0  0  0  0  0
  -10.5268    0.1426   -0.0000 F   0  0  0  0  0  0  0  0  0  0  0  0
   -2.7564    0.1426   -0.0000 C   0  0  0  0  0  0  0  0  0  0  0  0
   -6.6416    2.3881   -0.0000 C   0  0  0  0  0  0  0  0  0  0  0  0
   -2.7683    1.6515   -0.0000 C   0  0  0  0  0  0  0  0  0  0  0  0
   -6.6535    3.8970   -0.0000 C   0  0  0  0  0  0  0  0  0  0  0  0
   -7.9485    1.6515   -0.0000 C   0  0  0  0  0  0  0  0  0  0  0  0
   -4.0753    2.4119   -0.0000 O   0  0  0  0  0  0  0  0  0  0  0  0
   -1.4852    2.4119   -0.0000 N   0  0  0  0  0  0  0  0  0  0  0  0
  1  2  1  0  0  0  0
  2  3  2  0  0  0  0
  2  4  1  0  0  0  0
  3  5  1  0  0  0  0
  3  6  1  0  0  0  0
  4  7  2  0  0  0  0
  5  8  2  0  0  0  0
  6  9  1  0  0  0  0
  7 10  1  0  0  0  0
  9 11  1  1  0  0  0
  9 12  1  0  0  0  0
 11 13  1  0  0  0  0
 11 14  1  0  0  0  0
 12 15  2  0  0  0  0
 12 16  1  0  0  0  0
 13 17  2  0  0  0  0
 13 18  1  0  0  0  0
 14 19  1  0  0  0  0
 16 20  1  0  0  0  0
 16 21  1  0  0  0  0
 20 22  1  0  0  0  0
 21 23  1  0  0  0  0
 22 24  1  0  0  0  0
 24 25  1  0  0  0  0
 25 26  2  0  0  0  0
 25 27  1  0  0  0  0
 26 28  1  0  0  0  0
 26 29  1  0  0  0  0
 27 30  2  0  0  0  0
 28 31  2  0  0  0  0
 29 32  1  6  0  0  0
 29 33  1  0  0  0  0
 31 34  1  0  0  0  0
 32 35  1  0  0  0  0
 33 36  1  0  0  0  0
 35 37  1  0  0  0  0
 36 38  1  0  0  0  0
 36 39  1  0  0  0  0
 37 40  2  0  0  0  0
 37 41  1  0  0  0  0
  7  8  1  0  0  0  0
 18 19  1  0  0  0  0
 23 24  1  0  0  0  0
 30 31  1  0  0  0  0
M  END
>  <MolRegNo>
398494

>  <m>
=

>  <Value>
720

>  <Unit>
nM

>  <Type>
IC50

>  <pValue>
6.14

>  <Ligand Efficiency>
0

>  <Binding Efficiency>
0

>  <Surface Efficiency>
0

>  <Assay Index>
298334

>  <Assay Category>


>  <Assay Organism>


>  <Target ID>
17045

>  <Target Name>
Cytochrome P450 3A4

>  <Target Organism>
Homo sapiens

>  <Target Description>
Target is a single protein chain

>  <Sequence Accession>
P08684

>  <Reference>
Bioorg Med Chem Lett 17 (20), 5610-5613 (2007)

>  <Pubmed ID>
17822895

>  <DOI>
10.1016/j.bmcl.2007.07.097

$$$$
398493
Actelion Java MolfileCreator 1.0

 44 47  0  0  1  0  0  0  0  0999 V2000
    0.0000   -0.0000   -0.0000 Cl  0  0  0  0  0  0  0  0  0  0  0  0
    1.2828   -0.7839   -0.0000 C   0  0  0  0  0  0  0  0  0  0  0  0
    1.2828   -2.2568   -0.0000 C   0  0  0  0  0  0  0  0  0  0  0  0
    2.5656   -0.0238   -0.0000 C   0  0  0  0  0  0  0  0  0  0  0  0
    2.5656   -3.0050   -0.0000 C   0  0  0  0  0  0  0  0  0  0  0  0
   -0.0238   -2.9932   -0.0000 C   0  0  0  0  0  0  0  0  0  0  0  0
    3.8602   -0.7602   -0.0000 C   0  0  0  0  0  0  0  0  0  0  0  0
    3.8484   -2.2449   -0.0000 C   0  0  0  0  0  0  0  0  0  0  0  0
   -0.0356   -4.4779   -0.0000 C   0  0  0  0  0  0  0  0  0  0  0  0
    5.1430   -0.0000   -0.0000 Cl  0  0  0  0  0  0  0  0  0  0  0  0
    1.2472   -5.2143   -0.0000 N   0  0  0  0  0  0  0  0  0  0  0  0
   -1.3422   -5.2143   -0.0000 C   0  0  0  0  0  0  0  0  0  0  0  0
    1.2115   -6.6990   -0.0000 C   0  0  0  0  0  0  0  0  0  0  0  0
    2.6725   -4.7748   -0.0000 C   0  0  0  0  0  0  0  0  0  0  0  0
   -1.3541   -6.6990   -0.0000 O   0  0  0  0  0  0  0  0  0  0  0  0
   -2.6487   -4.4541   -0.0000 N   0  0  0  0  0  0  0  0  0  0  0  0
   -0.1069   -7.4235   -0.0000 O   0  0  0  0  0  0  0  0  0  0  0  0
    2.6131   -7.1741   -0.0000 C   0  0  0  0  0  0  0  0  0  0  0  0
    3.5158   -5.9982   -0.0000 C   0  0  0  0  0  0  0  0  0  0  0  0
   -3.9671   -5.1905   -0.0000 C   0  0  0  0  0  0  0  0  0  0  0  0
   -2.6606   -2.9457   -0.0000 C   0  0  0  0  0  0  0  0  0  0  0  0
   -5.2737   -4.4304   -0.0000 C   0  0  0  0  0  0  0  0  0  0  0  0
   -3.9671   -2.1617   -0.0000 C   0  0  0  0  0  0  0  0  0  0  0  0
   -5.2856   -2.9219   -0.0000 N   0  0  0  0  0  0  0  0  0  0  0  0
   -6.5921   -2.1617   -0.0000 C   0  0  0  0  0  0  0  0  0  0  0  0
   -6.6040   -0.6414   -0.0000 C   0  0  0  0  0  0  0  0  0  0  0  0
   -7.9105   -2.8981   -0.0000 C   0  0  0  0  0  0  0  0  0  0  0  0
   -7.9105    0.1188   -0.0000 C   0  0  0  0  0  0  0  0  0  0  0  0
   -5.3212    0.1188   -0.0000 C   0  0  0  0  0  0  0  0  0  0  0  0
   -9.2171   -2.1380   -0.0000 C   0  0  0  0  0  0  0  0  0  0  0  0
   -9.2171   -0.6176   -0.0000 C   0  0  0  0  0  0  0  0  0  0  0  0
   -4.0384   -0.6176   -0.0000 N   0  0  0  0  0  0  0  0  0  0  0  0
   -5.3331    1.6272   -0.0000 C   0  0  0  0  0  0  0  0  0  0  0  0
  -10.5236    0.1425   -0.0000 C   0  0  0  0  0  0  0  0  0  0  0  0
   -2.7556    0.1425   -0.0000 C   0  0  0  0  0  0  0  0  0  0  0  0
   -6.6396    2.3874   -0.0000 C   0  0  0  0  0  0  0  0  0  0  0  0
  -11.8420    0.9027   -0.0000 F   0  0  0  0  0  0  0  0  0  0  0  0
   -9.7872    1.4491   -0.0000 F   0  0  0  0  0  0  0  0  0  0  0  0
  -11.2838   -1.1521   -0.0000 F   0  0  0  0  0  0  0  0  0  0  0  0
   -2.7675    1.6510   -0.0000 C   0  0  0  0  0  0  0  0  0  0  0  0
   -6.6515    3.8959   -0.0000 C   0  0  0  0  0  0  0  0  0  0  0  0
   -7.9461    1.6510   -0.0000 C   0  0  0  0  0  0  0  0  0  0  0  0
   -1.4847    2.4112   -0.0000 C   0  0  0  0  0  0  0  0  0  0  0  0
   -1.4966    3.9196   -0.0000 N   0  0  0  0  0  0  0  0  0  0  0  0
  1  2  1  0  0  0  0
  2  3  2  0  0  0  0
  2  4  1  0  0  0  0
  3  5  1  0  0  0  0
  3  6  1  0  0  0  0
  4  7  2  0  0  0  0
  5  8  2  0  0  0  0
  6  9  1  0  0  0  0
  7 10  1  0  0  0  0
  9 11  1  1  0  0  0
  9 12  1  0  0  0  0
 11 13  1  0  0  0  0
 11 14  1  0  0  0  0
 12 15  2  0  0  0  0
 12 16  1  0  0  0  0
 13 17  2  0  0  0  0
 13 18  1  0  0  0  0
 14 19  1  0  0  0  0
 16 20  1  0  0  0  0
 16 21  1  0  0  0  0
 20 22  1  0  0  0  0
 21 23  1  0  0  0  0
 22 24  1  0  0  0  0
 24 25  1  0  0  0  0
 25 26  2  0  0  0  0
 25 27  1  0  0  0  0
 26 28  1  0  0  0  0
 26 29  1  0  0  0  0
 27 30  2  0  0  0  0
 28 31  2  0  0  0  0
 29 32  1  6  0  0  0
 29 33  1  0  0  0  0
 31 34  1  0  0  0  0
 32 35  1  0  0  0  0
 33 36  1  0  0  0  0
 34 37  1  0  0  0  0
 34 38  1  0  0  0  0
 34 39  1  0  0  0  0
 35 40  1  0  0  0  0
 36 41  1  0  0  0  0
 36 42  1  0  0  0  0
 40 43  1  0  0  0  0
 43 44  1  0  0  0  0
  7  8  1  0  0  0  0
 18 19  1  0  0  0  0
 23 24  1  0  0  0  0
 30 31  1  0  0  0  0
M  END
>  <MolRegNo>
398493

>  <m>
=

>  <Value>
15000

>  <Unit>
nM

>  <Type>
IC50

>  <pValue>
4.82

>  <Ligand Efficiency>
0

>  <Binding Efficiency>
0

>  <Surface Efficiency>
0

>  <Assay Index>
298334

>  <Assay Category>


>  <Assay Organism>


>  <Target ID>
17045

>  <Target Name>
Cytochrome P450 3A4

>  <Target Organism>
Homo sapiens

>  <Target Description>
Target is a single protein chain

>  <Sequence Accession>
P08684

>  <Reference>
Bioorg Med Chem Lett 17 (20), 5610-5613 (2007)

>  <Pubmed ID>
17822895

>  <DOI>
10.1016/j.bmcl.2007.07.097

$$$$
398492
Actelion Java MolfileCreator 1.0

 41 44  0  0  1  0  0  0  0  0999 V2000
    0.0000   -0.0000   -0.0000 Cl  0  0  0  0  0  0  0  0  0  0  0  0
    1.2836   -0.7844   -0.0000 C   0  0  0  0  0  0  0  0  0  0  0  0
    1.2836   -2.2581   -0.0000 C   0  0  0  0  0  0  0  0  0  0  0  0
    2.5671   -0.0238   -0.0000 C   0  0  0  0  0  0  0  0  0  0  0  0
    2.5671   -3.0068   -0.0000 C   0  0  0  0  0  0  0  0  0  0  0  0
   -0.0238   -2.9950   -0.0000 C   0  0  0  0  0  0  0  0  0  0  0  0
    3.8625   -0.7606   -0.0000 C   0  0  0  0  0  0  0  0  0  0  0  0
    3.8507   -2.2462   -0.0000 C   0  0  0  0  0  0  0  0  0  0  0  0
   -0.0357   -4.4805   -0.0000 C   0  0  0  0  0  0  0  0  0  0  0  0
    5.1461   -0.0000   -0.0000 Cl  0  0  0  0  0  0  0  0  0  0  0  0
    1.2479   -5.2174   -0.0000 N   0  0  0  0  0  0  0  0  0  0  0  0
   -1.3430   -5.2174   -0.0000 C   0  0  0  0  0  0  0  0  0  0  0  0
    1.2122   -6.7030   -0.0000 C   0  0  0  0  0  0  0  0  0  0  0  0
    2.6741   -4.7777   -0.0000 C   0  0  0  0  0  0  0  0  0  0  0  0
   -1.3549   -6.7030   -0.0000 O   0  0  0  0  0  0  0  0  0  0  0  0
   -2.6503   -4.4568   -0.0000 N   0  0  0  0  0  0  0  0  0  0  0  0
   -0.1070   -7.4280   -0.0000 O   0  0  0  0  0  0  0  0  0  0  0  0
    2.6146   -7.1784   -0.0000 C   0  0  0  0  0  0  0  0  0  0  0  0
    3.5179   -6.0018   -0.0000 C   0  0  0  0  0  0  0  0  0  0  0  0
   -3.9695   -5.1936   -0.0000 C   0  0  0  0  0  0  0  0  0  0  0  0
   -2.6622   -2.9474   -0.0000 C   0  0  0  0  0  0  0  0  0  0  0  0
   -5.2768   -4.4330   -0.0000 C   0  0  0  0  0  0  0  0  0  0  0  0
   -3.9695   -2.1630   -0.0000 C   0  0  0  0  0  0  0  0  0  0  0  0
   -5.2887   -2.9236   -0.0000 N   0  0  0  0  0  0  0  0  0  0  0  0
   -6.5960   -2.1630   -0.0000 C   0  0  0  0  0  0  0  0  0  0  0  0
   -7.9152   -2.8999   -0.0000 C   0  0  0  0  0  0  0  0  0  0  0  0
   -6.6079   -0.6418   -0.0000 C   0  0  0  0  0  0  0  0  0  0  0  0
   -7.9271   -4.3855   -0.0000 F   0  0  0  0  0  0  0  0  0  0  0  0
   -9.2226   -2.1393   -0.0000 C   0  0  0  0  0  0  0  0  0  0  0  0
   -7.9152    0.1188   -0.0000 C   0  0  0  0  0  0  0  0  0  0  0  0
   -5.3244    0.1188   -0.0000 C   0  0  0  0  0  0  0  0  0  0  0  0
   -9.2344   -0.6180   -0.0000 C   0  0  0  0  0  0  0  0  0  0  0  0
   -4.0408   -0.6180   -0.0000 N   0  0  0  0  0  0  0  0  0  0  0  0
   -5.3362    1.6282   -0.0000 C   0  0  0  0  0  0  0  0  0  0  0  0
   -2.7573    0.1426   -0.0000 C   0  0  0  0  0  0  0  0  0  0  0  0
   -6.6436    2.3888   -0.0000 C   0  0  0  0  0  0  0  0  0  0  0  0
   -2.7691    1.6520   -0.0000 C   0  0  0  0  0  0  0  0  0  0  0  0
   -6.6555    3.8982   -0.0000 C   0  0  0  0  0  0  0  0  0  0  0  0
   -7.9509    1.6520   -0.0000 C   0  0  0  0  0  0  0  0  0  0  0  0
   -1.4856    2.4126   -0.0000 C   0  0  0  0  0  0  0  0  0  0  0  0
   -1.4975    3.9220   -0.0000 N   0  0  0  0  0  0  0  0  0  0  0  0
  1  2  1  0  0  0  0
  2  3  2  0  0  0  0
  2  4  1  0  0  0  0
  3  5  1  0  0  0  0
  3  6  1  0  0  0  0
  4  7  2  0  0  0  0
  5  8  2  0  0  0  0
  6  9  1  0  0  0  0
  7 10  1  0  0  0  0
  9 11  1  1  0  0  0
  9 12  1  0  0  0  0
 11 13  1  0  0  0  0
 11 14  1  0  0  0  0
 12 15  2  0  0  0  0
 12 16  1  0  0  0  0
 13 17  2  0  0  0  0
 13 18  1  0  0  0  0
 14 19  1  0  0  0  0
 16 20  1  0  0  0  0
 16 21  1  0  0  0  0
 20 22  1  0  0  0  0
 21 23  1  0  0  0  0
 22 24  1  0  0  0  0
 24 25  1  0  0  0  0
 25 26  2  0  0  0  0
 25 27  1  0  0  0  0
 26 28  1  0  0  0  0
 26 29  1  0  0  0  0
 27 30  2  0  0  0  0
 27 31  1  0  0  0  0
 29 32  2  0  0  0  0
 31 33  1  6  0  0  0
 31 34  1  0  0  0  0
 33 35  1  0  0  0  0
 34 36  1  0  0  0  0
 35 37  1  0  0  0  0
 36 38  1  0  0  0  0
 36 39  1  0  0  0  0
 37 40  1  0  0  0  0
 40 41  1  0  0  0  0
  7  8  1  0  0  0  0
 18 19  1  0  0  0  0
 23 24  1  0  0  0  0
 30 32  1  0  0  0  0
M  END
>  <MolRegNo>
398492

>  <m>
=

>  <Value>
16000

>  <Unit>
nM

>  <Type>
IC50

>  <pValue>
4.8

>  <Ligand Efficiency>
0

>  <Binding Efficiency>
0

>  <Surface Efficiency>
0

>  <Assay Index>
298334

>  <Assay Category>


>  <Assay Organism>


>  <Target ID>
17045

>  <Target Name>
Cytochrome P450 3A4

>  <Target Organism>
Homo sapiens

>  <Target Description>
Target is a single protein chain

>  <Sequence Accession>
P08684

>  <Reference>
Bioorg Med Chem Lett 17 (20), 5610-5613 (2007)

>  <Pubmed ID>
17822895

>  <DOI>
10.1016/j.bmcl.2007.07.097

$$$$
398491
Actelion Java MolfileCreator 1.0

 40 43  0  0  1  0  0  0  0  0999 V2000
    0.0000   -0.0000   -0.0000 Cl  0  0  0  0  0  0  0  0  0  0  0  0
    1.2835   -0.7843   -0.0000 C   0  0  0  0  0  0  0  0  0  0  0  0
    1.2835   -2.2580   -0.0000 C   0  0  0  0  0  0  0  0  0  0  0  0
    2.5669   -0.0238   -0.0000 C   0  0  0  0  0  0  0  0  0  0  0  0
    2.5669   -3.0067   -0.0000 C   0  0  0  0  0  0  0  0  0  0  0  0
   -0.0238   -2.9948   -0.0000 C   0  0  0  0  0  0  0  0  0  0  0  0
    3.8623   -0.7606   -0.0000 C   0  0  0  0  0  0  0  0  0  0  0  0
    3.8504   -2.2461   -0.0000 C   0  0  0  0  0  0  0  0  0  0  0  0
   -0.0357   -4.4803   -0.0000 C   0  0  0  0  0  0  0  0  0  0  0  0
    5.1458   -0.0000   -0.0000 Cl  0  0  0  0  0  0  0  0  0  0  0  0
    1.2478   -5.2171   -0.0000 N   0  0  0  0  0  0  0  0  0  0  0  0
   -1.3429   -5.2171   -0.0000 C   0  0  0  0  0  0  0  0  0  0  0  0
    1.2122   -6.7026   -0.0000 C   0  0  0  0  0  0  0  0  0  0  0  0
    2.6739   -4.7774   -0.0000 C   0  0  0  0  0  0  0  0  0  0  0  0
   -1.3548   -6.7026   -0.0000 O   0  0  0  0  0  0  0  0  0  0  0  0
   -2.6501   -4.4565   -0.0000 N   0  0  0  0  0  0  0  0  0  0  0  0
   -0.1070   -7.4275   -0.0000 O   0  0  0  0  0  0  0  0  0  0  0  0
    2.6145   -7.1779   -0.0000 C   0  0  0  0  0  0  0  0  0  0  0  0
    3.5177   -6.0014   -0.0000 C   0  0  0  0  0  0  0  0  0  0  0  0
   -3.9693   -5.1933   -0.0000 C   0  0  0  0  0  0  0  0  0  0  0  0
   -2.6620   -2.9472   -0.0000 C   0  0  0  0  0  0  0  0  0  0  0  0
   -5.2765   -4.4327   -0.0000 C   0  0  0  0  0  0  0  0  0  0  0  0
   -3.9693   -2.1629   -0.0000 C   0  0  0  0  0  0  0  0  0  0  0  0
   -5.2884   -2.9235   -0.0000 N   0  0  0  0  0  0  0  0  0  0  0  0
   -6.5956   -2.1629   -0.0000 C   0  0  0  0  0  0  0  0  0  0  0  0
   -6.6075   -0.6417   -0.0000 C   0  0  0  0  0  0  0  0  0  0  0  0
   -7.9148   -2.8997   -0.0000 C   0  0  0  0  0  0  0  0  0  0  0  0
   -7.9148    0.1188   -0.0000 C   0  0  0  0  0  0  0  0  0  0  0  0
   -5.3240    0.1188   -0.0000 C   0  0  0  0  0  0  0  0  0  0  0  0
   -9.2220   -2.1391   -0.0000 C   0  0  0  0  0  0  0  0  0  0  0  0
   -9.2220   -0.6180   -0.0000 C   0  0  0  0  0  0  0  0  0  0  0  0
   -4.0406   -0.6180   -0.0000 N   0  0  0  0  0  0  0  0  0  0  0  0
   -5.3359    1.6281   -0.0000 C   0  0  0  0  0  0  0  0  0  0  0  0
   -2.7571    0.1426   -0.0000 C   0  0  0  0  0  0  0  0  0  0  0  0
   -6.6432    2.3887   -0.0000 C   0  0  0  0  0  0  0  0  0  0  0  0
   -2.7690    1.6519   -0.0000 C   0  0  0  0  0  0  0  0  0  0  0  0
   -6.6550    3.8980   -0.0000 C   0  0  0  0  0  0  0  0  0  0  0  0
   -7.9504    1.6519   -0.0000 C   0  0  0  0  0  0  0  0  0  0  0  0
   -1.4855    2.4125   -0.0000 C   0  0  0  0  0  0  0  0  0  0  0  0
   -1.4974    3.9217   -0.0000 N   0  0  0  0  0  0  0  0  0  0  0  0
  1  2  1  0  0  0  0
  2  3  2  0  0  0  0
  2  4  1  0  0  0  0
  3  5  1  0  0  0  0
  3  6  1  0  0  0  0
  4  7  2  0  0  0  0
  5  8  2  0  0  0  0
  6  9  1  0  0  0  0
  7 10  1  0  0  0  0
  9 11  1  1  0  0  0
  9 12  1  0  0  0  0
 11 13  1  0  0  0  0
 11 14  1  0  0  0  0
 12 15  2  0  0  0  0
 12 16  1  0  0  0  0
 13 17  2  0  0  0  0
 13 18  1  0  0  0  0
 14 19  1  0  0  0  0
 16 20  1  0  0  0  0
 16 21  1  0  0  0  0
 20 22  1  0  0  0  0
 21 23  1  0  0  0  0
 22 24  1  0  0  0  0
 24 25  1  0  0  0  0
 25 26  2  0  0  0  0
 25 27  1  0  0  0  0
 26 28  1  0  0  0  0
 26 29  1  0  0  0  0
 27 30  2  0  0  0  0
 28 31  2  0  0  0  0
 29 32  1  6  0  0  0
 29 33  1  0  0  0  0
 32 34  1  0  0  0  0
 33 35  1  0  0  0  0
 34 36  1  0  0  0  0
 35 37  1  0  0  0  0
 35 38  1  0  0  0  0
 36 39  1  0  0  0  0
 39 40  1  0  0  0  0
  7  8  1  0  0  0  0
 18 19  1  0  0  0  0
 23 24  1  0  0  0  0
 30 31  1  0  0  0  0
M  END
>  <MolRegNo>
398491

>  <m>
=

>  <Value>
3400

>  <Unit>
nM

>  <Type>
IC50

>  <pValue>
5.47

>  <Ligand Efficiency>
0

>  <Binding Efficiency>
0

>  <Surface Efficiency>
0

>  <Assay Index>
298334

>  <Assay Category>


>  <Assay Organism>


>  <Target ID>
17045

>  <Target Name>
Cytochrome P450 3A4

>  <Target Organism>
Homo sapiens

>  <Target Description>
Target is a single protein chain

>  <Sequence Accession>
P08684

>  <Reference>
Bioorg Med Chem Lett 17 (20), 5610-5613 (2007)

>  <Pubmed ID>
17822895

>  <DOI>
10.1016/j.bmcl.2007.07.097

$$$$
398490
Actelion Java MolfileCreator 1.0

 44 47  0  0  1  0  0  0  0  0999 V2000
    0.0000   -0.0000   -0.0000 Cl  0  0  0  0  0  0  0  0  0  0  0  0
    1.2839   -0.7846   -0.0000 C   0  0  0  0  0  0  0  0  0  0  0  0
    1.2839   -2.2587   -0.0000 C   0  0  0  0  0  0  0  0  0  0  0  0
    2.5678   -0.0238   -0.0000 C   0  0  0  0  0  0  0  0  0  0  0  0
    2.5678   -3.0077   -0.0000 C   0  0  0  0  0  0  0  0  0  0  0  0
   -0.0238   -2.9958   -0.0000 C   0  0  0  0  0  0  0  0  0  0  0  0
    3.8636   -0.7608   -0.0000 C   0  0  0  0  0  0  0  0  0  0  0  0
    3.8517   -2.2468   -0.0000 C   0  0  0  0  0  0  0  0  0  0  0  0
   -0.0357   -4.4818   -0.0000 C   0  0  0  0  0  0  0  0  0  0  0  0
    5.1475   -0.0000   -0.0000 Cl  0  0  0  0  0  0  0  0  0  0  0  0
    1.2482   -5.2188   -0.0000 N   0  0  0  0  0  0  0  0  0  0  0  0
   -1.3433   -5.2188   -0.0000 C   0  0  0  0  0  0  0  0  0  0  0  0
    1.2126   -6.7049   -0.0000 C   0  0  0  0  0  0  0  0  0  0  0  0
    2.6748   -4.7790   -0.0000 C   0  0  0  0  0  0  0  0  0  0  0  0
   -1.3552   -6.7049   -0.0000 O   0  0  0  0  0  0  0  0  0  0  0  0
   -2.6510   -4.4580   -0.0000 N   0  0  0  0  0  0  0  0  0  0  0  0
   -0.1070   -7.4300   -0.0000 O   0  0  0  0  0  0  0  0  0  0  0  0
    2.6154   -7.1804   -0.0000 C   0  0  0  0  0  0  0  0  0  0  0  0
    3.5189   -6.0035   -0.0000 C   0  0  0  0  0  0  0  0  0  0  0  0
   -3.9706   -5.1951   -0.0000 C   0  0  0  0  0  0  0  0  0  0  0  0
   -2.6629   -2.9482   -0.0000 C   0  0  0  0  0  0  0  0  0  0  0  0
   -5.2783   -4.4342   -0.0000 C   0  0  0  0  0  0  0  0  0  0  0  0
   -3.9706   -2.1636   -0.0000 C   0  0  0  0  0  0  0  0  0  0  0  0
   -5.2902   -2.9245   -0.0000 N   0  0  0  0  0  0  0  0  0  0  0  0
   -6.5979   -2.1636   -0.0000 C   0  0  0  0  0  0  0  0  0  0  0  0
   -6.6097   -0.6420   -0.0000 C   0  0  0  0  0  0  0  0  0  0  0  0
   -7.9174   -2.9007   -0.0000 C   0  0  0  0  0  0  0  0  0  0  0  0
   -7.9174    0.1189   -0.0000 C   0  0  0  0  0  0  0  0  0  0  0  0
   -5.3258    0.1189   -0.0000 C   0  0  0  0  0  0  0  0  0  0  0  0
   -9.2251   -2.1398   -0.0000 C   0  0  0  0  0  0  0  0  0  0  0  0
   -9.2251   -0.6182   -0.0000 C   0  0  0  0  0  0  0  0  0  0  0  0
   -4.0419   -0.6182   -0.0000 N   0  0  0  0  0  0  0  0  0  0  0  0
   -5.3377    1.6287   -0.0000 C   0  0  0  0  0  0  0  0  0  0  0  0
  -10.5328    0.1427   -0.0000 F   0  0  0  0  0  0  0  0  0  0  0  0
   -2.7580    0.1427   -0.0000 C   0  0  0  0  0  0  0  0  0  0  0  0
   -6.6454    2.3895   -0.0000 C   0  0  0  0  0  0  0  0  0  0  0  0
   -2.7699    1.6524   -0.0000 C   0  0  0  0  0  0  0  0  0  0  0  0
   -6.6573    3.8993   -0.0000 C   0  0  0  0  0  0  0  0  0  0  0  0
   -7.9531    1.6524   -0.0000 C   0  0  0  0  0  0  0  0  0  0  0  0
   -1.4860    2.4133   -0.0000 N   0  0  0  0  0  0  0  0  0  0  0  0
   -0.2021    1.6762   -0.0000 C   0  0  0  0  0  0  0  0  0  0  0  0
   -1.4979    3.9231   -0.0000 C   0  0  0  0  0  0  0  0  0  0  0  0
    1.0818    2.4370   -0.0000 C   0  0  0  0  0  0  0  0  0  0  0  0
   -0.2140    4.6839   -0.0000 C   0  0  0  0  0  0  0  0  0  0  0  0
  1  2  1  0  0  0  0
  2  3  2  0  0  0  0
  2  4  1  0  0  0  0
  3  5  1  0  0  0  0
  3  6  1  0  0  0  0
  4  7  2  0  0  0  0
  5  8  2  0  0  0  0
  6  9  1  0  0  0  0
  7 10  1  0  0  0  0
  9 11  1  1  0  0  0
  9 12  1  0  0  0  0
 11 13  1  0  0  0  0
 11 14  1  0  0  0  0
 12 15  2  0  0  0  0
 12 16  1  0  0  0  0
 13 17  2  0  0  0  0
 13 18  1  0  0  0  0
 14 19  1  0  0  0  0
 16 20  1  0  0  0  0
 16 21  1  0  0  0  0
 20 22  1  0  0  0  0
 21 23  1  0  0  0  0
 22 24  1  0  0  0  0
 24 25  1  0  0  0  0
 25 26  2  0  0  0  0
 25 27  1  0  0  0  0
 26 28  1  0  0  0  0
 26 29  1  0  0  0  0
 27 30  2  0  0  0  0
 28 31  2  0  0  0  0
 29 32  1  6  0  0  0
 29 33  1  0  0  0  0
 31 34  1  0  0  0  0
 32 35  1  0  0  0  0
 33 36  1  0  0  0  0
 35 37  1  0  0  0  0
 36 38  1  0  0  0  0
 36 39  1  0  0  0  0
 37 40  1  0  0  0  0
 40 41  1  0  0  0  0
 40 42  1  0  0  0  0
 41 43  1  0  0  0  0
 42 44  1  0  0  0  0
  7  8  1  0  0  0  0
 18 19  1  0  0  0  0
 23 24  1  0  0  0  0
 30 31  1  0  0  0  0
M  END
>  <MolRegNo>
398490

>  <m>
=

>  <Value>
37000

>  <Unit>
nM

>  <Type>
IC50

>  <pValue>
4.43

>  <Ligand Efficiency>
0

>  <Binding Efficiency>
0

>  <Surface Efficiency>
0

>  <Assay Index>
298334

>  <Assay Category>


>  <Assay Organism>


>  <Target ID>
17045

>  <Target Name>
Cytochrome P450 3A4

>  <Target Organism>
Homo sapiens

>  <Target Description>
Target is a single protein chain

>  <Sequence Accession>
P08684

>  <Reference>
Bioorg Med Chem Lett 17 (20), 5610-5613 (2007)

>  <Pubmed ID>
17822895

>  <DOI>
10.1016/j.bmcl.2007.07.097

$$$$
398489
Actelion Java MolfileCreator 1.0

 42 45  0  0  1  0  0  0  0  0999 V2000
    0.0000   -0.0000   -0.0000 Cl  0  0  0  0  0  0  0  0  0  0  0  0
    1.2841   -0.7372   -0.0000 C   0  0  0  0  0  0  0  0  0  0  0  0
    1.2841   -2.2115   -0.0000 C   0  0  0  0  0  0  0  0  0  0  0  0
    2.5682    0.0238   -0.0000 C   0  0  0  0  0  0  0  0  0  0  0  0
    2.5682   -2.9605   -0.0000 C   0  0  0  0  0  0  0  0  0  0  0  0
   -0.0238   -2.9486   -0.0000 C   0  0  0  0  0  0  0  0  0  0  0  0
    3.8641   -0.7134   -0.0000 C   0  0  0  0  0  0  0  0  0  0  0  0
    3.8522   -2.1996   -0.0000 C   0  0  0  0  0  0  0  0  0  0  0  0
   -0.0357   -4.4348   -0.0000 C   0  0  0  0  0  0  0  0  0  0  0  0
    5.1482    0.0476   -0.0000 Cl  0  0  0  0  0  0  0  0  0  0  0  0
    1.2484   -5.1720   -0.0000 N   0  0  0  0  0  0  0  0  0  0  0  0
   -1.3435   -5.1720   -0.0000 C   0  0  0  0  0  0  0  0  0  0  0  0
    1.2127   -6.6582   -0.0000 C   0  0  0  0  0  0  0  0  0  0  0  0
    2.6752   -4.7321   -0.0000 C   0  0  0  0  0  0  0  0  0  0  0  0
   -1.3554   -6.6582   -0.0000 O   0  0  0  0  0  0  0  0  0  0  0  0
   -2.6514   -4.4111   -0.0000 N   0  0  0  0  0  0  0  0  0  0  0  0
   -0.1070   -7.3835   -0.0000 O   0  0  0  0  0  0  0  0  0  0  0  0
    2.6157   -7.1338   -0.0000 C   0  0  0  0  0  0  0  0  0  0  0  0
    3.5193   -5.9567   -0.0000 C   0  0  0  0  0  0  0  0  0  0  0  0
   -3.9711   -5.1482   -0.0000 C   0  0  0  0  0  0  0  0  0  0  0  0
   -2.6633   -2.9011   -0.0000 C   0  0  0  0  0  0  0  0  0  0  0  0
   -5.2790   -4.3873   -0.0000 C   0  0  0  0  0  0  0  0  0  0  0  0
   -3.9711   -2.1164   -0.0000 C   0  0  0  0  0  0  0  0  0  0  0  0
   -5.2909   -2.8773   -0.0000 N   0  0  0  0  0  0  0  0  0  0  0  0
   -6.5987   -2.1164   -0.0000 C   0  0  0  0  0  0  0  0  0  0  0  0
   -6.6106   -0.5945   -0.0000 C   0  0  0  0  0  0  0  0  0  0  0  0
   -7.9185   -2.8535   -0.0000 C   0  0  0  0  0  0  0  0  0  0  0  0
   -7.9185    0.1665   -0.0000 C   0  0  0  0  0  0  0  0  0  0  0  0
   -5.3266    0.1665   -0.0000 C   0  0  0  0  0  0  0  0  0  0  0  0
   -9.2264   -2.0926   -0.0000 C   0  0  0  0  0  0  0  0  0  0  0  0
   -9.2264   -0.5707   -0.0000 C   0  0  0  0  0  0  0  0  0  0  0  0
   -4.0425   -0.5707   -0.0000 N   0  0  0  0  0  0  0  0  0  0  0  0
   -5.3384    1.6764   -0.0000 C   0  0  0  0  0  0  0  0  0  0  0  0
  -10.5342    0.1902   -0.0000 F   0  0  0  0  0  0  0  0  0  0  0  0
   -2.7584    0.1902   -0.0000 C   0  0  0  0  0  0  0  0  0  0  0  0
   -6.6463    2.4374   -0.0000 C   0  0  0  0  0  0  0  0  0  0  0  0
   -2.7703    1.7002   -0.0000 C   0  0  0  0  0  0  0  0  0  0  0  0
   -6.6582    3.9474   -0.0000 C   0  0  0  0  0  0  0  0  0  0  0  0
   -7.9542    1.7002   -0.0000 C   0  0  0  0  0  0  0  0  0  0  0  0
   -1.4862    2.4612   -0.0000 N   0  0  0  0  0  0  0  0  0  0  0  0
   -0.2021    1.7240   -0.0000 C   0  0  0  0  0  0  0  0  0  0  0  0
   -1.4981    3.9711   -0.0000 C   0  0  0  0  0  0  0  0  0  0  0  0
  1  2  1  0  0  0  0
  2  3  2  0  0  0  0
  2  4  1  0  0  0  0
  3  5  1  0  0  0  0
  3  6  1  0  0  0  0
  4  7  2  0  0  0  0
  5  8  2  0  0  0  0
  6  9  1  0  0  0  0
  7 10  1  0  0  0  0
  9 11  1  1  0  0  0
  9 12  1  0  0  0  0
 11 13  1  0  0  0  0
 11 14  1  0  0  0  0
 12 15  2  0  0  0  0
 12 16  1  0  0  0  0
 13 17  2  0  0  0  0
 13 18  1  0  0  0  0
 14 19  1  0  0  0  0
 16 20  1  0  0  0  0
 16 21  1  0  0  0  0
 20 22  1  0  0  0  0
 21 23  1  0  0  0  0
 22 24  1  0  0  0  0
 24 25  1  0  0  0  0
 25 26  2  0  0  0  0
 25 27  1  0  0  0  0
 26 28  1  0  0  0  0
 26 29  1  0  0  0  0
 27 30  2  0  0  0  0
 28 31  2  0  0  0  0
 29 32  1  6  0  0  0
 29 33  1  0  0  0  0
 31 34  1  0  0  0  0
 32 35  1  0  0  0  0
 33 36  1  0  0  0  0
 35 37  1  0  0  0  0
 36 38  1  0  0  0  0
 36 39  1  0  0  0  0
 37 40  1  0  0  0  0
 40 41  1  0  0  0  0
 40 42  1  0  0  0  0
  7  8  1  0  0  0  0
 18 19  1  0  0  0  0
 23 24  1  0  0  0  0
 30 31  1  0  0  0  0
M  END
>  <MolRegNo>
398489

>  <m>
=

>  <Value>
32000

>  <Unit>
nM

>  <Type>
IC50

>  <pValue>
4.5

>  <Ligand Efficiency>
0

>  <Binding Efficiency>
0

>  <Surface Efficiency>
0

>  <Assay Index>
298334

>  <Assay Category>


>  <Assay Organism>


>  <Target ID>
17045

>  <Target Name>
Cytochrome P450 3A4

>  <Target Organism>
Homo sapiens

>  <Target Description>
Target is a single protein chain

>  <Sequence Accession>
P08684

>  <Reference>
Bioorg Med Chem Lett 17 (20), 5610-5613 (2007)

>  <Pubmed ID>
17822895

>  <DOI>
10.1016/j.bmcl.2007.07.097

$$$$
398488
Actelion Java MolfileCreator 1.0

 41 44  0  0  1  0  0  0  0  0999 V2000
    0.0000   -0.0000   -0.0000 Cl  0  0  0  0  0  0  0  0  0  0  0  0
    1.2837   -0.7369   -0.0000 C   0  0  0  0  0  0  0  0  0  0  0  0
    1.2837   -2.2108   -0.0000 C   0  0  0  0  0  0  0  0  0  0  0  0
    2.5674    0.0238   -0.0000 C   0  0  0  0  0  0  0  0  0  0  0  0
    2.5674   -2.9597   -0.0000 C   0  0  0  0  0  0  0  0  0  0  0  0
   -0.0238   -2.9478   -0.0000 C   0  0  0  0  0  0  0  0  0  0  0  0
    3.8630   -0.7132   -0.0000 C   0  0  0  0  0  0  0  0  0  0  0  0
    3.8511   -2.1989   -0.0000 C   0  0  0  0  0  0  0  0  0  0  0  0
   -0.0357   -4.4335   -0.0000 C   0  0  0  0  0  0  0  0  0  0  0  0
    5.1467    0.0475   -0.0000 Cl  0  0  0  0  0  0  0  0  0  0  0  0
    1.2480   -5.1705   -0.0000 N   0  0  0  0  0  0  0  0  0  0  0  0
   -1.3431   -5.1705   -0.0000 C   0  0  0  0  0  0  0  0  0  0  0  0
    1.2124   -6.6563   -0.0000 C   0  0  0  0  0  0  0  0  0  0  0  0
    2.6744   -4.7307   -0.0000 C   0  0  0  0  0  0  0  0  0  0  0  0
   -1.3550   -6.6563   -0.0000 O   0  0  0  0  0  0  0  0  0  0  0  0
   -2.6506   -4.4098   -0.0000 N   0  0  0  0  0  0  0  0  0  0  0  0
   -0.1070   -7.3813   -0.0000 O   0  0  0  0  0  0  0  0  0  0  0  0
    2.6150   -7.1317   -0.0000 C   0  0  0  0  0  0  0  0  0  0  0  0
    3.5183   -5.9550   -0.0000 C   0  0  0  0  0  0  0  0  0  0  0  0
   -3.9700   -5.1467   -0.0000 C   0  0  0  0  0  0  0  0  0  0  0  0
   -2.6625   -2.9002   -0.0000 C   0  0  0  0  0  0  0  0  0  0  0  0
   -5.2775   -4.3860   -0.0000 C   0  0  0  0  0  0  0  0  0  0  0  0
   -3.9700   -2.1157   -0.0000 C   0  0  0  0  0  0  0  0  0  0  0  0
   -5.2893   -2.8765   -0.0000 N   0  0  0  0  0  0  0  0  0  0  0  0
   -6.5968   -2.1157   -0.0000 C   0  0  0  0  0  0  0  0  0  0  0  0
   -6.6087   -0.5943   -0.0000 C   0  0  0  0  0  0  0  0  0  0  0  0
   -7.9162   -2.8527   -0.0000 C   0  0  0  0  0  0  0  0  0  0  0  0
   -7.9162    0.1664   -0.0000 C   0  0  0  0  0  0  0  0  0  0  0  0
   -5.3250    0.1664   -0.0000 C   0  0  0  0  0  0  0  0  0  0  0  0
   -9.2237   -2.0920   -0.0000 C   0  0  0  0  0  0  0  0  0  0  0  0
   -9.2237   -0.5705   -0.0000 C   0  0  0  0  0  0  0  0  0  0  0  0
   -5.3369    1.6760   -0.0000 N   0  0  0  0  0  0  0  0  0  0  0  0
   -4.0413   -0.5705   -0.0000 C   0  0  0  0  0  0  0  0  0  0  0  0
  -10.5311    0.1902   -0.0000 F   0  0  0  0  0  0  0  0  0  0  0  0
   -6.6444    2.4367   -0.0000 C   0  0  0  0  0  0  0  0  0  0  0  0
   -2.7576    0.1902   -0.0000 C   0  0  0  0  0  0  0  0  0  0  0  0
   -6.6563    3.9462   -0.0000 C   0  0  0  0  0  0  0  0  0  0  0  0
   -1.4739   -0.5468   -0.0000 C   0  0  0  0  0  0  0  0  0  0  0  0
   -2.7695    1.6997   -0.0000 C   0  0  0  0  0  0  0  0  0  0  0  0
   -7.9637    4.7069   -0.0000 N   0  0  0  0  0  0  0  0  0  0  0  0
   -7.9756    6.2165   -0.0000 C   0  0  0  0  0  0  0  0  0  0  0  0
  1  2  1  0  0  0  0
  2  3  2  0  0  0  0
  2  4  1  0  0  0  0
  3  5  1  0  0  0  0
  3  6  1  0  0  0  0
  4  7  2  0  0  0  0
  5  8  2  0  0  0  0
  6  9  1  0  0  0  0
  7 10  1  0  0  0  0
  9 11  1  1  0  0  0
  9 12  1  0  0  0  0
 11 13  1  0  0  0  0
 11 14  1  0  0  0  0
 12 15  2  0  0  0  0
 12 16  1  0  0  0  0
 13 17  2  0  0  0  0
 13 18  1  0  0  0  0
 14 19  1  0  0  0  0
 16 20  1  0  0  0  0
 16 21  1  0  0  0  0
 20 22  1  0  0  0  0
 21 23  1  0  0  0  0
 22 24  1  0  0  0  0
 24 25  1  0  0  0  0
 25 26  2  0  0  0  0
 25 27  1  0  0  0  0
 26 28  1  0  0  0  0
 26 29  1  0  0  0  0
 27 30  2  0  0  0  0
 28 31  2  0  0  0  0
 29 32  1  1  0  0  0
 29 33  1  0  0  0  0
 31 34  1  0  0  0  0
 32 35  1  0  0  0  0
 33 36  1  0  0  0  0
 35 37  1  0  0  0  0
 36 38  1  0  0  0  0
 36 39  1  0  0  0  0
 37 40  1  0  0  0  0
 40 41  1  0  0  0  0
  7  8  1  0  0  0  0
 18 19  1  0  0  0  0
 23 24  1  0  0  0  0
 30 31  1  0  0  0  0
M  END
>  <MolRegNo>
398488

>  <m>
=

>  <Value>
11000

>  <Unit>
nM

>  <Type>
IC50

>  <pValue>
4.96

>  <Ligand Efficiency>
0

>  <Binding Efficiency>
0

>  <Surface Efficiency>
0

>  <Assay Index>
298334

>  <Assay Category>


>  <Assay Organism>


>  <Target ID>
17045

>  <Target Name>
Cytochrome P450 3A4

>  <Target Organism>
Homo sapiens

>  <Target Description>
Target is a single protein chain

>  <Sequence Accession>
P08684

>  <Reference>
Bioorg Med Chem Lett 17 (20), 5610-5613 (2007)

>  <Pubmed ID>
17822895

>  <DOI>
10.1016/j.bmcl.2007.07.097

$$$$
398487
Actelion Java MolfileCreator 1.0

 40 43  0  0  1  0  0  0  0  0999 V2000
    0.0000   -0.0000   -0.0000 Cl  0  0  0  0  0  0  0  0  0  0  0  0
    1.2840   -0.7371   -0.0000 C   0  0  0  0  0  0  0  0  0  0  0  0
    1.2840   -2.2113   -0.0000 C   0  0  0  0  0  0  0  0  0  0  0  0
    2.5679    0.0238   -0.0000 C   0  0  0  0  0  0  0  0  0  0  0  0
    2.5679   -2.9602   -0.0000 C   0  0  0  0  0  0  0  0  0  0  0  0
   -0.0238   -2.9484   -0.0000 C   0  0  0  0  0  0  0  0  0  0  0  0
    3.8638   -0.7133   -0.0000 C   0  0  0  0  0  0  0  0  0  0  0  0
    3.8519   -2.1994   -0.0000 C   0  0  0  0  0  0  0  0  0  0  0  0
   -0.0357   -4.4344   -0.0000 C   0  0  0  0  0  0  0  0  0  0  0  0
    5.1477    0.0476   -0.0000 Cl  0  0  0  0  0  0  0  0  0  0  0  0
    1.2483   -5.1715   -0.0000 N   0  0  0  0  0  0  0  0  0  0  0  0
   -1.3434   -5.1715   -0.0000 C   0  0  0  0  0  0  0  0  0  0  0  0
    1.2126   -6.6576   -0.0000 C   0  0  0  0  0  0  0  0  0  0  0  0
    2.6749   -4.7316   -0.0000 C   0  0  0  0  0  0  0  0  0  0  0  0
   -1.3553   -6.6576   -0.0000 O   0  0  0  0  0  0  0  0  0  0  0  0
   -2.6511   -4.4106   -0.0000 N   0  0  0  0  0  0  0  0  0  0  0  0
   -0.1070   -7.3828   -0.0000 O   0  0  0  0  0  0  0  0  0  0  0  0
    2.6155   -7.1331   -0.0000 C   0  0  0  0  0  0  0  0  0  0  0  0
    3.5190   -5.9561   -0.0000 C   0  0  0  0  0  0  0  0  0  0  0  0
   -3.9708   -5.1477   -0.0000 C   0  0  0  0  0  0  0  0  0  0  0  0
   -2.6630   -2.9008   -0.0000 C   0  0  0  0  0  0  0  0  0  0  0  0
   -5.2785   -4.3869   -0.0000 C   0  0  0  0  0  0  0  0  0  0  0  0
   -3.9708   -2.1162   -0.0000 C   0  0  0  0  0  0  0  0  0  0  0  0
   -5.2904   -2.8770   -0.0000 N   0  0  0  0  0  0  0  0  0  0  0  0
   -6.5981   -2.1162   -0.0000 C   0  0  0  0  0  0  0  0  0  0  0  0
   -6.6100   -0.5944   -0.0000 C   0  0  0  0  0  0  0  0  0  0  0  0
   -7.9177   -2.8532   -0.0000 C   0  0  0  0  0  0  0  0  0  0  0  0
   -7.9177    0.1664   -0.0000 C   0  0  0  0  0  0  0  0  0  0  0  0
   -5.3261    0.1664   -0.0000 C   0  0  0  0  0  0  0  0  0  0  0  0
   -9.2255   -2.0924   -0.0000 C   0  0  0  0  0  0  0  0  0  0  0  0
   -9.2255   -0.5706   -0.0000 C   0  0  0  0  0  0  0  0  0  0  0  0
   -5.3379    1.6763   -0.0000 N   0  0  0  0  0  0  0  0  0  0  0  0
   -4.0421   -0.5706   -0.0000 C   0  0  0  0  0  0  0  0  0  0  0  0
   -6.6457    2.4371   -0.0000 C   0  0  0  0  0  0  0  0  0  0  0  0
   -2.7581    0.1902   -0.0000 C   0  0  0  0  0  0  0  0  0  0  0  0
   -6.6576    3.9470   -0.0000 C   0  0  0  0  0  0  0  0  0  0  0  0
   -1.4742   -0.5469   -0.0000 C   0  0  0  0  0  0  0  0  0  0  0  0
   -2.7700    1.7001   -0.0000 C   0  0  0  0  0  0  0  0  0  0  0  0
   -7.9653    4.7078   -0.0000 N   0  0  0  0  0  0  0  0  0  0  0  0
   -7.9772    6.2177   -0.0000 C   0  0  0  0  0  0  0  0  0  0  0  0
  1  2  1  0  0  0  0
  2  3  2  0  0  0  0
  2  4  1  0  0  0  0
  3  5  1  0  0  0  0
  3  6  1  0  0  0  0
  4  7  2  0  0  0  0
  5  8  2  0  0  0  0
  6  9  1  0  0  0  0
  7 10  1  0  0  0  0
  9 11  1  1  0  0  0
  9 12  1  0  0  0  0
 11 13  1  0  0  0  0
 11 14  1  0  0  0  0
 12 15  2  0  0  0  0
 12 16  1  0  0  0  0
 13 17  2  0  0  0  0
 13 18  1  0  0  0  0
 14 19  1  0  0  0  0
 16 20  1  0  0  0  0
 16 21  1  0  0  0  0
 20 22  1  0  0  0  0
 21 23  1  0  0  0  0
 22 24  1  0  0  0  0
 24 25  1  0  0  0  0
 25 26  2  0  0  0  0
 25 27  1  0  0  0  0
 26 28  1  0  0  0  0
 26 29  1  0  0  0  0
 27 30  2  0  0  0  0
 28 31  2  0  0  0  0
 29 32  1  1  0  0  0
 29 33  1  0  0  0  0
 32 34  1  0  0  0  0
 33 35  1  0  0  0  0
 34 36  1  0  0  0  0
 35 37  1  0  0  0  0
 35 38  1  0  0  0  0
 36 39  1  0  0  0  0
 39 40  1  0  0  0  0
  7  8  1  0  0  0  0
 18 19  1  0  0  0  0
 23 24  1  0  0  0  0
 30 31  1  0  0  0  0
M  END
>  <MolRegNo>
398487

>  <m>
=

>  <Value>
4800

>  <Unit>
nM

>  <Type>
IC50

>  <pValue>
5.32

>  <Ligand Efficiency>
0

>  <Binding Efficiency>
0

>  <Surface Efficiency>
0

>  <Assay Index>
298334

>  <Assay Category>


>  <Assay Organism>


>  <Target ID>
17045

>  <Target Name>
Cytochrome P450 3A4

>  <Target Organism>
Homo sapiens

>  <Target Description>
Target is a single protein chain

>  <Sequence Accession>
P08684

>  <Reference>
Bioorg Med Chem Lett 17 (20), 5610-5613 (2007)

>  <Pubmed ID>
17822895

>  <DOI>
10.1016/j.bmcl.2007.07.097

$$$$
398486
Actelion Java MolfileCreator 1.0

 41 44  0  0  1  0  0  0  0  0999 V2000
    0.0000   -0.0000   -0.0000 Cl  0  0  0  0  0  0  0  0  0  0  0  0
    1.2845   -0.7374   -0.0000 C   0  0  0  0  0  0  0  0  0  0  0  0
    1.2845   -2.2122   -0.0000 C   0  0  0  0  0  0  0  0  0  0  0  0
    2.5690    0.0238   -0.0000 C   0  0  0  0  0  0  0  0  0  0  0  0
    2.5690   -2.9614   -0.0000 C   0  0  0  0  0  0  0  0  0  0  0  0
   -0.0238   -2.9496   -0.0000 C   0  0  0  0  0  0  0  0  0  0  0  0
    3.8653   -0.7136   -0.0000 C   0  0  0  0  0  0  0  0  0  0  0  0
    3.8535   -2.2003   -0.0000 C   0  0  0  0  0  0  0  0  0  0  0  0
   -0.0357   -4.4362   -0.0000 C   0  0  0  0  0  0  0  0  0  0  0  0
    5.1498    0.0476   -0.0000 Cl  0  0  0  0  0  0  0  0  0  0  0  0
    1.2488   -5.1736   -0.0000 N   0  0  0  0  0  0  0  0  0  0  0  0
   -1.3440   -5.1736   -0.0000 C   0  0  0  0  0  0  0  0  0  0  0  0
    1.2131   -6.6603   -0.0000 C   0  0  0  0  0  0  0  0  0  0  0  0
    2.6760   -4.7336   -0.0000 C   0  0  0  0  0  0  0  0  0  0  0  0
   -1.3558   -6.6603   -0.0000 O   0  0  0  0  0  0  0  0  0  0  0  0
   -2.6522   -4.4124   -0.0000 N   0  0  0  0  0  0  0  0  0  0  0  0
   -0.1070   -7.3858   -0.0000 O   0  0  0  0  0  0  0  0  0  0  0  0
    2.6165   -7.1360   -0.0000 C   0  0  0  0  0  0  0  0  0  0  0  0
    3.5204   -5.9586   -0.0000 C   0  0  0  0  0  0  0  0  0  0  0  0
   -3.9724   -5.1498   -0.0000 C   0  0  0  0  0  0  0  0  0  0  0  0
   -2.6641   -2.9020   -0.0000 C   0  0  0  0  0  0  0  0  0  0  0  0
   -5.2807   -4.3887   -0.0000 C   0  0  0  0  0  0  0  0  0  0  0  0
   -3.9724   -2.1170   -0.0000 C   0  0  0  0  0  0  0  0  0  0  0  0
   -5.2925   -2.8782   -0.0000 N   0  0  0  0  0  0  0  0  0  0  0  0
   -6.6008   -2.1170   -0.0000 C   0  0  0  0  0  0  0  0  0  0  0  0
   -7.9210   -2.8544   -0.0000 C   0  0  0  0  0  0  0  0  0  0  0  0
   -6.6127   -0.5947   -0.0000 C   0  0  0  0  0  0  0  0  0  0  0  0
   -7.9329   -4.3411   -0.0000 F   0  0  0  0  0  0  0  0  0  0  0  0
   -9.2293   -2.0932   -0.0000 C   0  0  0  0  0  0  0  0  0  0  0  0
   -7.9210    0.1665   -0.0000 C   0  0  0  0  0  0  0  0  0  0  0  0
   -5.3282    0.1665   -0.0000 C   0  0  0  0  0  0  0  0  0  0  0  0
   -9.2411   -0.5828   -0.0000 C   0  0  0  0  0  0  0  0  0  0  0  0
   -5.3401    1.6770   -0.0000 N   0  0  0  0  0  0  0  0  0  0  0  0
   -4.0437   -0.5709   -0.0000 C   0  0  0  0  0  0  0  0  0  0  0  0
   -6.6484    2.4381   -0.0000 C   0  0  0  0  0  0  0  0  0  0  0  0
   -4.0556    2.4381   -0.0000 C   0  0  0  0  0  0  0  0  0  0  0  0
   -2.7593    0.1903   -0.0000 C   0  0  0  0  0  0  0  0  0  0  0  0
   -6.6603    3.9486   -0.0000 C   0  0  0  0  0  0  0  0  0  0  0  0
   -1.4748   -0.5471   -0.0000 C   0  0  0  0  0  0  0  0  0  0  0  0
   -2.7712    1.7008   -0.0000 C   0  0  0  0  0  0  0  0  0  0  0  0
   -7.9686    4.7098   -0.0000 N   0  0  0  0  0  0  0  0  0  0  0  0
  1  2  1  0  0  0  0
  2  3  2  0  0  0  0
  2  4  1  0  0  0  0
  3  5  1  0  0  0  0
  3  6  1  0  0  0  0
  4  7  2  0  0  0  0
  5  8  2  0  0  0  0
  6  9  1  0  0  0  0
  7 10  1  0  0  0  0
  9 11  1  1  0  0  0
  9 12  1  0  0  0  0
 11 13  1  0  0  0  0
 11 14  1  0  0  0  0
 12 15  2  0  0  0  0
 12 16  1  0  0  0  0
 13 17  2  0  0  0  0
 13 18  1  0  0  0  0
 14 19  1  0  0  0  0
 16 20  1  0  0  0  0
 16 21  1  0  0  0  0
 20 22  1  0  0  0  0
 21 23  1  0  0  0  0
 22 24  1  0  0  0  0
 24 25  1  0  0  0  0
 25 26  2  0  0  0  0
 25 27  1  0  0  0  0
 26 28  1  0  0  0  0
 26 29  1  0  0  0  0
 27 30  2  0  0  0  0
 27 31  1  0  0  0  0
 29 32  2  0  0  0  0
 31 33  1  1  0  0  0
 31 34  1  0  0  0  0
 33 35  1  0  0  0  0
 33 36  1  0  0  0  0
 34 37  1  0  0  0  0
 35 38  1  0  0  0  0
 37 39  1  0  0  0  0
 37 40  1  0  0  0  0
 38 41  1  0  0  0  0
  7  8  1  0  0  0  0
 18 19  1  0  0  0  0
 23 24  1  0  0  0  0
 30 32  1  0  0  0  0
M  END
>  <MolRegNo>
398486

>  <m>
=

>  <Value>
650

>  <Unit>
nM

>  <Type>
IC50

>  <pValue>
6.19

>  <Ligand Efficiency>
0

>  <Binding Efficiency>
0

>  <Surface Efficiency>
0

>  <Assay Index>
298334

>  <Assay Category>


>  <Assay Organism>


>  <Target ID>
17045

>  <Target Name>
Cytochrome P450 3A4

>  <Target Organism>
Homo sapiens

>  <Target Description>
Target is a single protein chain

>  <Sequence Accession>
P08684

>  <Reference>
Bioorg Med Chem Lett 17 (20), 5610-5613 (2007)

>  <Pubmed ID>
17822895

>  <DOI>
10.1016/j.bmcl.2007.07.097

$$$$
398485
Actelion Java MolfileCreator 1.0

 43 46  0  0  1  0  0  0  0  0999 V2000
    0.0000   -0.0000   -0.0000 Cl  0  0  0  0  0  0  0  0  0  0  0  0
    1.2836   -0.7369   -0.0000 C   0  0  0  0  0  0  0  0  0  0  0  0
    1.2836   -2.2106   -0.0000 C   0  0  0  0  0  0  0  0  0  0  0  0
    2.5672    0.0238   -0.0000 C   0  0  0  0  0  0  0  0  0  0  0  0
    2.5672   -2.9594   -0.0000 C   0  0  0  0  0  0  0  0  0  0  0  0
   -0.0238   -2.9475   -0.0000 C   0  0  0  0  0  0  0  0  0  0  0  0
    3.8626   -0.7131   -0.0000 C   0  0  0  0  0  0  0  0  0  0  0  0
    3.8508   -2.1987   -0.0000 C   0  0  0  0  0  0  0  0  0  0  0  0
   -0.0357   -4.4331   -0.0000 C   0  0  0  0  0  0  0  0  0  0  0  0
    5.1462    0.0475   -0.0000 Cl  0  0  0  0  0  0  0  0  0  0  0  0
    1.2479   -5.1700   -0.0000 N   0  0  0  0  0  0  0  0  0  0  0  0
   -1.3430   -5.1700   -0.0000 C   0  0  0  0  0  0  0  0  0  0  0  0
    1.2123   -6.6556   -0.0000 C   0  0  0  0  0  0  0  0  0  0  0  0
    2.6741   -4.7302   -0.0000 C   0  0  0  0  0  0  0  0  0  0  0  0
   -1.3549   -6.6556   -0.0000 O   0  0  0  0  0  0  0  0  0  0  0  0
   -2.6504   -4.4094   -0.0000 N   0  0  0  0  0  0  0  0  0  0  0  0
   -0.1070   -7.3806   -0.0000 O   0  0  0  0  0  0  0  0  0  0  0  0
    2.6147   -7.1310   -0.0000 C   0  0  0  0  0  0  0  0  0  0  0  0
    3.5180   -5.9544   -0.0000 C   0  0  0  0  0  0  0  0  0  0  0  0
   -3.9696   -5.1462   -0.0000 C   0  0  0  0  0  0  0  0  0  0  0  0
   -2.6622   -2.9000   -0.0000 C   0  0  0  0  0  0  0  0  0  0  0  0
   -5.2770   -4.3856   -0.0000 C   0  0  0  0  0  0  0  0  0  0  0  0
   -3.9696   -2.1155   -0.0000 C   0  0  0  0  0  0  0  0  0  0  0  0
   -5.2888   -2.8762   -0.0000 N   0  0  0  0  0  0  0  0  0  0  0  0
   -6.5962   -2.1155   -0.0000 C   0  0  0  0  0  0  0  0  0  0  0  0
   -6.6081   -0.5943   -0.0000 C   0  0  0  0  0  0  0  0  0  0  0  0
   -7.9154   -2.8524   -0.0000 C   0  0  0  0  0  0  0  0  0  0  0  0
   -7.9154    0.1664   -0.0000 C   0  0  0  0  0  0  0  0  0  0  0  0
   -5.3245    0.1664   -0.0000 C   0  0  0  0  0  0  0  0  0  0  0  0
   -9.2228   -2.0918   -0.0000 C   0  0  0  0  0  0  0  0  0  0  0  0
   -9.2228   -0.5705   -0.0000 C   0  0  0  0  0  0  0  0  0  0  0  0
   -4.0409   -0.5705   -0.0000 N   0  0  0  0  0  0  0  0  0  0  0  0
   -5.3364    1.6758   -0.0000 C   0  0  0  0  0  0  0  0  0  0  0  0
  -10.5301    0.1902   -0.0000 C   0  0  0  0  0  0  0  0  0  0  0  0
   -2.7573    0.1902   -0.0000 C   0  0  0  0  0  0  0  0  0  0  0  0
   -6.6437    2.4364   -0.0000 C   0  0  0  0  0  0  0  0  0  0  0  0
  -11.8494    0.9508   -0.0000 F   0  0  0  0  0  0  0  0  0  0  0  0
   -9.7933    1.4975   -0.0000 F   0  0  0  0  0  0  0  0  0  0  0  0
  -11.2908   -1.0934   -0.0000 F   0  0  0  0  0  0  0  0  0  0  0  0
   -2.7692    1.6996   -0.0000 C   0  0  0  0  0  0  0  0  0  0  0  0
   -6.6556    3.9458   -0.0000 C   0  0  0  0  0  0  0  0  0  0  0  0
   -7.9511    1.6996   -0.0000 C   0  0  0  0  0  0  0  0  0  0  0  0
   -1.4856    2.4602   -0.0000 N   0  0  0  0  0  0  0  0  0  0  0  0
  1  2  1  0  0  0  0
  2  3  2  0  0  0  0
  2  4  1  0  0  0  0
  3  5  1  0  0  0  0
  3  6  1  0  0  0  0
  4  7  2  0  0  0  0
  5  8  2  0  0  0  0
  6  9  1  0  0  0  0
  7 10  1  0  0  0  0
  9 11  1  1  0  0  0
  9 12  1  0  0  0  0
 11 13  1  0  0  0  0
 11 14  1  0  0  0  0
 12 15  2  0  0  0  0
 12 16  1  0  0  0  0
 13 17  2  0  0  0  0
 13 18  1  0  0  0  0
 14 19  1  0  0  0  0
 16 20  1  0  0  0  0
 16 21  1  0  0  0  0
 20 22  1  0  0  0  0
 21 23  1  0  0  0  0
 22 24  1  0  0  0  0
 24 25  1  0  0  0  0
 25 26  2  0  0  0  0
 25 27  1  0  0  0  0
 26 28  1  0  0  0  0
 26 29  1  0  0  0  0
 27 30  2  0  0  0  0
 28 31  2  0  0  0  0
 29 32  1  6  0  0  0
 29 33  1  0  0  0  0
 31 34  1  0  0  0  0
 32 35  1  0  0  0  0
 33 36  1  0  0  0  0
 34 37  1  0  0  0  0
 34 38  1  0  0  0  0
 34 39  1  0  0  0  0
 35 40  1  0  0  0  0
 36 41  1  0  0  0  0
 36 42  1  0  0  0  0
 40 43  1  0  0  0  0
  7  8  1  0  0  0  0
 18 19  1  0  0  0  0
 23 24  1  0  0  0  0
 30 31  1  0  0  0  0
M  END
>  <MolRegNo>
398485

>  <m>
=

>  <Value>
6300

>  <Unit>
nM

>  <Type>
IC50

>  <pValue>
5.2

>  <Ligand Efficiency>
0

>  <Binding Efficiency>
0

>  <Surface Efficiency>
0

>  <Assay Index>
298334

>  <Assay Category>


>  <Assay Organism>


>  <Target ID>
17045

>  <Target Name>
Cytochrome P450 3A4

>  <Target Organism>
Homo sapiens

>  <Target Description>
Target is a single protein chain

>  <Sequence Accession>
P08684

>  <Reference>
Bioorg Med Chem Lett 17 (20), 5610-5613 (2007)

>  <Pubmed ID>
17822895

>  <DOI>
10.1016/j.bmcl.2007.07.097

$$$$
398484
Actelion Java MolfileCreator 1.0

 40 43  0  0  1  0  0  0  0  0999 V2000
    0.0000   -0.0000   -0.0000 Cl  0  0  0  0  0  0  0  0  0  0  0  0
    1.2835   -0.7368   -0.0000 C   0  0  0  0  0  0  0  0  0  0  0  0
    1.2835   -2.2104   -0.0000 C   0  0  0  0  0  0  0  0  0  0  0  0
    2.5670    0.0238   -0.0000 C   0  0  0  0  0  0  0  0  0  0  0  0
    2.5670   -2.9591   -0.0000 C   0  0  0  0  0  0  0  0  0  0  0  0
   -0.0238   -2.9473   -0.0000 C   0  0  0  0  0  0  0  0  0  0  0  0
    3.8623   -0.7130   -0.0000 C   0  0  0  0  0  0  0  0  0  0  0  0
    3.8505   -2.1986   -0.0000 C   0  0  0  0  0  0  0  0  0  0  0  0
   -0.0357   -4.4328   -0.0000 C   0  0  0  0  0  0  0  0  0  0  0  0
    5.1458    0.0475   -0.0000 Cl  0  0  0  0  0  0  0  0  0  0  0  0
    1.2478   -5.1696   -0.0000 N   0  0  0  0  0  0  0  0  0  0  0  0
   -1.3429   -5.1696   -0.0000 C   0  0  0  0  0  0  0  0  0  0  0  0
    1.2122   -6.6551   -0.0000 C   0  0  0  0  0  0  0  0  0  0  0  0
    2.6739   -4.7299   -0.0000 C   0  0  0  0  0  0  0  0  0  0  0  0
   -1.3548   -6.6551   -0.0000 O   0  0  0  0  0  0  0  0  0  0  0  0
   -2.6502   -4.4090   -0.0000 N   0  0  0  0  0  0  0  0  0  0  0  0
   -0.1070   -7.3800   -0.0000 O   0  0  0  0  0  0  0  0  0  0  0  0
    2.6145   -7.1305   -0.0000 C   0  0  0  0  0  0  0  0  0  0  0  0
    3.5177   -5.9540   -0.0000 C   0  0  0  0  0  0  0  0  0  0  0  0
   -3.9693   -5.1458   -0.0000 C   0  0  0  0  0  0  0  0  0  0  0  0
   -2.6620   -2.8997   -0.0000 C   0  0  0  0  0  0  0  0  0  0  0  0
   -5.2766   -4.3852   -0.0000 C   0  0  0  0  0  0  0  0  0  0  0  0
   -3.9693   -2.1154   -0.0000 C   0  0  0  0  0  0  0  0  0  0  0  0
   -5.2884   -2.8760   -0.0000 N   0  0  0  0  0  0  0  0  0  0  0  0
   -6.5957   -2.1154   -0.0000 C   0  0  0  0  0  0  0  0  0  0  0  0
   -6.6076   -0.5942   -0.0000 C   0  0  0  0  0  0  0  0  0  0  0  0
   -7.9148   -2.8522   -0.0000 C   0  0  0  0  0  0  0  0  0  0  0  0
   -7.9148    0.1664   -0.0000 C   0  0  0  0  0  0  0  0  0  0  0  0
   -5.3241    0.1664   -0.0000 C   0  0  0  0  0  0  0  0  0  0  0  0
   -9.2221   -2.0916   -0.0000 C   0  0  0  0  0  0  0  0  0  0  0  0
   -9.2221   -0.5704   -0.0000 C   0  0  0  0  0  0  0  0  0  0  0  0
   -4.0406   -0.5704   -0.0000 N   0  0  0  0  0  0  0  0  0  0  0  0
   -5.3360    1.6757   -0.0000 C   0  0  0  0  0  0  0  0  0  0  0  0
  -10.5293    0.1901   -0.0000 F   0  0  0  0  0  0  0  0  0  0  0  0
   -2.7571    0.1901   -0.0000 C   0  0  0  0  0  0  0  0  0  0  0  0
   -6.6432    2.4362   -0.0000 C   0  0  0  0  0  0  0  0  0  0  0  0
   -2.7690    1.6994   -0.0000 C   0  0  0  0  0  0  0  0  0  0  0  0
   -6.6551    3.9455   -0.0000 C   0  0  0  0  0  0  0  0  0  0  0  0
   -7.9505    1.6994   -0.0000 C   0  0  0  0  0  0  0  0  0  0  0  0
   -4.0763    2.4600   -0.0000 N   0  0  0  0  0  0  0  0  0  0  0  0
  1  2  1  0  0  0  0
  2  3  2  0  0  0  0
  2  4  1  0  0  0  0
  3  5  1  0  0  0  0
  3  6  1  0  0  0  0
  4  7  2  0  0  0  0
  5  8  2  0  0  0  0
  6  9  1  0  0  0  0
  7 10  1  0  0  0  0
  9 11  1  1  0  0  0
  9 12  1  0  0  0  0
 11 13  1  0  0  0  0
 11 14  1  0  0  0  0
 12 15  2  0  0  0  0
 12 16  1  0  0  0  0
 13 17  2  0  0  0  0
 13 18  1  0  0  0  0
 14 19  1  0  0  0  0
 16 20  1  0  0  0  0
 16 21  1  0  0  0  0
 20 22  1  0  0  0  0
 21 23  1  0  0  0  0
 22 24  1  0  0  0  0
 24 25  1  0  0  0  0
 25 26  2  0  0  0  0
 25 27  1  0  0  0  0
 26 28  1  0  0  0  0
 26 29  1  0  0  0  0
 27 30  2  0  0  0  0
 28 31  2  0  0  0  0
 29 32  1  6  0  0  0
 29 33  1  0  0  0  0
 31 34  1  0  0  0  0
 32 35  1  0  0  0  0
 33 36  1  0  0  0  0
 35 37  1  0  0  0  0
 36 38  1  0  0  0  0
 36 39  1  0  0  0  0
 37 40  1  0  0  0  0
  7  8  1  0  0  0  0
 18 19  1  0  0  0  0
 23 24  1  0  0  0  0
 30 31  1  0  0  0  0
M  END
>  <MolRegNo>
398484

>  <m>
=

>  <Value>
8900

>  <Unit>
nM

>  <Type>
IC50

>  <pValue>
5.05

>  <Ligand Efficiency>
0

>  <Binding Efficiency>
0

>  <Surface Efficiency>
0

>  <Assay Index>
298334

>  <Assay Category>


>  <Assay Organism>


>  <Target ID>
17045

>  <Target Name>
Cytochrome P450 3A4

>  <Target Organism>
Homo sapiens

>  <Target Description>
Target is a single protein chain

>  <Sequence Accession>
P08684

>  <Reference>
Bioorg Med Chem Lett 17 (20), 5610-5613 (2007)

>  <Pubmed ID>
17822895

>  <DOI>
10.1016/j.bmcl.2007.07.097

$$$$
398483
Actelion Java MolfileCreator 1.0

 40 43  0  0  1  0  0  0  0  0999 V2000
    0.0000   -0.0000   -0.0000 Cl  0  0  0  0  0  0  0  0  0  0  0  0
    1.2842   -0.7372   -0.0000 C   0  0  0  0  0  0  0  0  0  0  0  0
    1.2842   -2.2117   -0.0000 C   0  0  0  0  0  0  0  0  0  0  0  0
    2.5684    0.0238   -0.0000 C   0  0  0  0  0  0  0  0  0  0  0  0
    2.5684   -2.9608   -0.0000 C   0  0  0  0  0  0  0  0  0  0  0  0
   -0.0238   -2.9490   -0.0000 C   0  0  0  0  0  0  0  0  0  0  0  0
    3.8646   -0.7135   -0.0000 C   0  0  0  0  0  0  0  0  0  0  0  0
    3.8527   -2.1998   -0.0000 C   0  0  0  0  0  0  0  0  0  0  0  0
   -0.0357   -4.4353   -0.0000 C   0  0  0  0  0  0  0  0  0  0  0  0
    5.1488    0.0476   -0.0000 Cl  0  0  0  0  0  0  0  0  0  0  0  0
    1.2485   -5.1726   -0.0000 N   0  0  0  0  0  0  0  0  0  0  0  0
   -1.3437   -5.1726   -0.0000 C   0  0  0  0  0  0  0  0  0  0  0  0
    1.2129   -6.6589   -0.0000 C   0  0  0  0  0  0  0  0  0  0  0  0
    2.6755   -4.7326   -0.0000 C   0  0  0  0  0  0  0  0  0  0  0  0
   -1.3556   -6.6589   -0.0000 O   0  0  0  0  0  0  0  0  0  0  0  0
   -2.6517   -4.4115   -0.0000 N   0  0  0  0  0  0  0  0  0  0  0  0
   -0.1070   -7.3843   -0.0000 O   0  0  0  0  0  0  0  0  0  0  0  0
    2.6160   -7.1346   -0.0000 C   0  0  0  0  0  0  0  0  0  0  0  0
    3.5197   -5.9574   -0.0000 C   0  0  0  0  0  0  0  0  0  0  0  0
   -3.9716   -5.1488   -0.0000 C   0  0  0  0  0  0  0  0  0  0  0  0
   -2.6636   -2.9014   -0.0000 C   0  0  0  0  0  0  0  0  0  0  0  0
   -5.2796   -4.3878   -0.0000 C   0  0  0  0  0  0  0  0  0  0  0  0
   -3.9716   -2.1166   -0.0000 C   0  0  0  0  0  0  0  0  0  0  0  0
   -5.2915   -2.8776   -0.0000 N   0  0  0  0  0  0  0  0  0  0  0  0
   -6.5995   -2.1166   -0.0000 C   0  0  0  0  0  0  0  0  0  0  0  0
   -7.9194   -2.8538   -0.0000 C   0  0  0  0  0  0  0  0  0  0  0  0
   -6.6114   -0.5945   -0.0000 C   0  0  0  0  0  0  0  0  0  0  0  0
   -7.9313   -4.3402   -0.0000 F   0  0  0  0  0  0  0  0  0  0  0  0
   -9.2274   -2.0928   -0.0000 C   0  0  0  0  0  0  0  0  0  0  0  0
   -7.9194    0.1665   -0.0000 C   0  0  0  0  0  0  0  0  0  0  0  0
   -5.3271    0.1665   -0.0000 C   0  0  0  0  0  0  0  0  0  0  0  0
   -9.2393   -0.5708   -0.0000 C   0  0  0  0  0  0  0  0  0  0  0  0
   -4.0429   -0.5708   -0.0000 N   0  0  0  0  0  0  0  0  0  0  0  0
   -5.3390    1.6766   -0.0000 C   0  0  0  0  0  0  0  0  0  0  0  0
   -2.7587    0.1903   -0.0000 C   0  0  0  0  0  0  0  0  0  0  0  0
   -6.6470    2.4376   -0.0000 C   0  0  0  0  0  0  0  0  0  0  0  0
   -2.7706    1.7004   -0.0000 C   0  0  0  0  0  0  0  0  0  0  0  0
   -6.6589    3.9478   -0.0000 C   0  0  0  0  0  0  0  0  0  0  0  0
   -7.9550    1.7004   -0.0000 C   0  0  0  0  0  0  0  0  0  0  0  0
   -1.4864    2.4614   -0.0000 N   0  0  0  0  0  0  0  0  0  0  0  0
  1  2  1  0  0  0  0
  2  3  2  0  0  0  0
  2  4  1  0  0  0  0
  3  5  1  0  0  0  0
  3  6  1  0  0  0  0
  4  7  2  0  0  0  0
  5  8  2  0  0  0  0
  6  9  1  0  0  0  0
  7 10  1  0  0  0  0
  9 11  1  1  0  0  0
  9 12  1  0  0  0  0
 11 13  1  0  0  0  0
 11 14  1  0  0  0  0
 12 15  2  0  0  0  0
 12 16  1  0  0  0  0
 13 17  2  0  0  0  0
 13 18  1  0  0  0  0
 14 19  1  0  0  0  0
 16 20  1  0  0  0  0
 16 21  1  0  0  0  0
 20 22  1  0  0  0  0
 21 23  1  0  0  0  0
 22 24  1  0  0  0  0
 24 25  1  0  0  0  0
 25 26  2  0  0  0  0
 25 27  1  0  0  0  0
 26 28  1  0  0  0  0
 26 29  1  0  0  0  0
 27 30  2  0  0  0  0
 27 31  1  0  0  0  0
 29 32  2  0  0  0  0
 31 33  1  6  0  0  0
 31 34  1  0  0  0  0
 33 35  1  0  0  0  0
 34 36  1  0  0  0  0
 35 37  1  0  0  0  0
 36 38  1  0  0  0  0
 36 39  1  0  0  0  0
 37 40  1  0  0  0  0
  7  8  1  0  0  0  0
 18 19  1  0  0  0  0
 23 24  1  0  0  0  0
 30 32  1  0  0  0  0
M  END
>  <MolRegNo>
398483

>  <m>
=

>  <Value>
4900

>  <Unit>
nM

>  <Type>
IC50

>  <pValue>
5.31

>  <Ligand Efficiency>
0

>  <Binding Efficiency>
0

>  <Surface Efficiency>
0

>  <Assay Index>
298334

>  <Assay Category>


>  <Assay Organism>


>  <Target ID>
17045

>  <Target Name>
Cytochrome P450 3A4

>  <Target Organism>
Homo sapiens

>  <Target Description>
Target is a single protein chain

>  <Sequence Accession>
P08684

>  <Reference>
Bioorg Med Chem Lett 17 (20), 5610-5613 (2007)

>  <Pubmed ID>
17822895

>  <DOI>
10.1016/j.bmcl.2007.07.097

$$$$
398482
Actelion Java MolfileCreator 1.0

 43 46  0  0  1  0  0  0  0  0999 V2000
    0.0000   -0.0000   -0.0000 Cl  0  0  0  0  0  0  0  0  0  0  0  0
    1.2834   -0.7368   -0.0000 C   0  0  0  0  0  0  0  0  0  0  0  0
    1.2834   -2.2103   -0.0000 C   0  0  0  0  0  0  0  0  0  0  0  0
    2.5668    0.0238   -0.0000 C   0  0  0  0  0  0  0  0  0  0  0  0
    2.5668   -2.9589   -0.0000 C   0  0  0  0  0  0  0  0  0  0  0  0
   -0.0238   -2.9471   -0.0000 C   0  0  0  0  0  0  0  0  0  0  0  0
    3.8621   -0.7130   -0.0000 C   0  0  0  0  0  0  0  0  0  0  0  0
    3.8502   -2.1984   -0.0000 C   0  0  0  0  0  0  0  0  0  0  0  0
   -0.0356   -4.4325   -0.0000 C   0  0  0  0  0  0  0  0  0  0  0  0
    5.1455    0.0475   -0.0000 Cl  0  0  0  0  0  0  0  0  0  0  0  0
    1.2477   -5.1692   -0.0000 N   0  0  0  0  0  0  0  0  0  0  0  0
   -1.3428   -5.1692   -0.0000 C   0  0  0  0  0  0  0  0  0  0  0  0
    1.2121   -6.6546   -0.0000 C   0  0  0  0  0  0  0  0  0  0  0  0
    2.6737   -4.7295   -0.0000 C   0  0  0  0  0  0  0  0  0  0  0  0
   -1.3547   -6.6546   -0.0000 O   0  0  0  0  0  0  0  0  0  0  0  0
   -2.6500   -4.4087   -0.0000 N   0  0  0  0  0  0  0  0  0  0  0  0
   -0.1069   -7.3795   -0.0000 O   0  0  0  0  0  0  0  0  0  0  0  0
    2.6143   -7.1300   -0.0000 C   0  0  0  0  0  0  0  0  0  0  0  0
    3.5175   -5.9535   -0.0000 C   0  0  0  0  0  0  0  0  0  0  0  0
   -3.9690   -5.1455   -0.0000 C   0  0  0  0  0  0  0  0  0  0  0  0
   -2.6619   -2.8995   -0.0000 C   0  0  0  0  0  0  0  0  0  0  0  0
   -5.2762   -4.3849   -0.0000 C   0  0  0  0  0  0  0  0  0  0  0  0
   -3.9690   -2.1152   -0.0000 C   0  0  0  0  0  0  0  0  0  0  0  0
   -5.2881   -2.8758   -0.0000 N   0  0  0  0  0  0  0  0  0  0  0  0
   -6.5952   -2.1152   -0.0000 C   0  0  0  0  0  0  0  0  0  0  0  0
   -6.6071   -0.5942   -0.0000 C   0  0  0  0  0  0  0  0  0  0  0  0
   -7.9143   -2.8520   -0.0000 C   0  0  0  0  0  0  0  0  0  0  0  0
   -7.9143    0.1664   -0.0000 C   0  0  0  0  0  0  0  0  0  0  0  0
   -5.3237    0.1664   -0.0000 C   0  0  0  0  0  0  0  0  0  0  0  0
   -9.2214   -2.0915   -0.0000 C   0  0  0  0  0  0  0  0  0  0  0  0
   -9.2214   -0.5704   -0.0000 C   0  0  0  0  0  0  0  0  0  0  0  0
   -4.0403   -0.5704   -0.0000 N   0  0  0  0  0  0  0  0  0  0  0  0
   -5.3356    1.6755   -0.0000 C   0  0  0  0  0  0  0  0  0  0  0  0
  -10.5286    0.1901   -0.0000 C   0  0  0  0  0  0  0  0  0  0  0  0
   -2.7569    0.1901   -0.0000 C   0  0  0  0  0  0  0  0  0  0  0  0
   -6.6428    2.4361   -0.0000 C   0  0  0  0  0  0  0  0  0  0  0  0
  -11.8476    0.9507   -0.0000 F   0  0  0  0  0  0  0  0  0  0  0  0
   -9.7918    1.4973   -0.0000 F   0  0  0  0  0  0  0  0  0  0  0  0
  -11.2891   -1.1051   -0.0000 F   0  0  0  0  0  0  0  0  0  0  0  0
   -2.7688    1.6993   -0.0000 C   0  0  0  0  0  0  0  0  0  0  0  0
   -6.6546    3.9452   -0.0000 C   0  0  0  0  0  0  0  0  0  0  0  0
   -7.9499    1.6993   -0.0000 C   0  0  0  0  0  0  0  0  0  0  0  0
   -1.4854    2.4598   -0.0000 O   0  0  0  0  0  0  0  0  0  0  0  0
  1  2  1  0  0  0  0
  2  3  2  0  0  0  0
  2  4  1  0  0  0  0
  3  5  1  0  0  0  0
  3  6  1  0  0  0  0
  4  7  2  0  0  0  0
  5  8  2  0  0  0  0
  6  9  1  0  0  0  0
  7 10  1  0  0  0  0
  9 11  1  1  0  0  0
  9 12  1  0  0  0  0
 11 13  1  0  0  0  0
 11 14  1  0  0  0  0
 12 15  2  0  0  0  0
 12 16  1  0  0  0  0
 13 17  2  0  0  0  0
 13 18  1  0  0  0  0
 14 19  1  0  0  0  0
 16 20  1  0  0  0  0
 16 21  1  0  0  0  0
 20 22  1  0  0  0  0
 21 23  1  0  0  0  0
 22 24  1  0  0  0  0
 24 25  1  0  0  0  0
 25 26  2  0  0  0  0
 25 27  1  0  0  0  0
 26 28  1  0  0  0  0
 26 29  1  0  0  0  0
 27 30  2  0  0  0  0
 28 31  2  0  0  0  0
 29 32  1  6  0  0  0
 29 33  1  0  0  0  0
 31 34  1  0  0  0  0
 32 35  1  0  0  0  0
 33 36  1  0  0  0  0
 34 37  1  0  0  0  0
 34 38  1  0  0  0  0
 34 39  1  0  0  0  0
 35 40  1  0  0  0  0
 36 41  1  0  0  0  0
 36 42  1  0  0  0  0
 40 43  1  0  0  0  0
  7  8  1  0  0  0  0
 18 19  1  0  0  0  0
 23 24  1  0  0  0  0
 30 31  1  0  0  0  0
M  END
>  <MolRegNo>
398482

>  <m>
=

>  <Value>
35000

>  <Unit>
nM

>  <Type>
IC50

>  <pValue>
4.46

>  <Ligand Efficiency>
0

>  <Binding Efficiency>
0

>  <Surface Efficiency>
0

>  <Assay Index>
298334

>  <Assay Category>


>  <Assay Organism>


>  <Target ID>
17045

>  <Target Name>
Cytochrome P450 3A4

>  <Target Organism>
Homo sapiens

>  <Target Description>
Target is a single protein chain

>  <Sequence Accession>
P08684

>  <Reference>
Bioorg Med Chem Lett 17 (20), 5610-5613 (2007)

>  <Pubmed ID>
17822895

>  <DOI>
10.1016/j.bmcl.2007.07.097

$$$$
398481
Actelion Java MolfileCreator 1.0

 40 43  0  0  1  0  0  0  0  0999 V2000
    0.0000   -0.0000   -0.0000 Cl  0  0  0  0  0  0  0  0  0  0  0  0
    1.2852   -0.7378   -0.0000 C   0  0  0  0  0  0  0  0  0  0  0  0
    1.2852   -2.2133   -0.0000 C   0  0  0  0  0  0  0  0  0  0  0  0
    2.5703    0.0238   -0.0000 C   0  0  0  0  0  0  0  0  0  0  0  0
    2.5703   -2.9630   -0.0000 C   0  0  0  0  0  0  0  0  0  0  0  0
   -0.0238   -2.9511   -0.0000 C   0  0  0  0  0  0  0  0  0  0  0  0
    3.8674   -0.7140   -0.0000 C   0  0  0  0  0  0  0  0  0  0  0  0
    3.8555   -2.2014   -0.0000 C   0  0  0  0  0  0  0  0  0  0  0  0
   -0.0357   -4.4386   -0.0000 C   0  0  0  0  0  0  0  0  0  0  0  0
    5.1526    0.0476   -0.0000 Cl  0  0  0  0  0  0  0  0  0  0  0  0
    1.2495   -5.1764   -0.0000 N   0  0  0  0  0  0  0  0  0  0  0  0
   -1.3447   -5.1764   -0.0000 C   0  0  0  0  0  0  0  0  0  0  0  0
    1.2138   -6.6638   -0.0000 C   0  0  0  0  0  0  0  0  0  0  0  0
    2.6774   -4.7361   -0.0000 C   0  0  0  0  0  0  0  0  0  0  0  0
   -1.3566   -6.6638   -0.0000 O   0  0  0  0  0  0  0  0  0  0  0  0
   -2.6536   -4.4148   -0.0000 N   0  0  0  0  0  0  0  0  0  0  0  0
   -0.1071   -7.3897   -0.0000 O   0  0  0  0  0  0  0  0  0  0  0  0
    2.6179   -7.1398   -0.0000 C   0  0  0  0  0  0  0  0  0  0  0  0
    3.5223   -5.9617   -0.0000 C   0  0  0  0  0  0  0  0  0  0  0  0
   -3.9745   -5.1526   -0.0000 C   0  0  0  0  0  0  0  0  0  0  0  0
   -2.6655   -2.9035   -0.0000 C   0  0  0  0  0  0  0  0  0  0  0  0
   -5.2834   -4.3910   -0.0000 C   0  0  0  0  0  0  0  0  0  0  0  0
   -3.9745   -2.1181   -0.0000 C   0  0  0  0  0  0  0  0  0  0  0  0
   -5.2953   -2.8797   -0.0000 N   0  0  0  0  0  0  0  0  0  0  0  0
   -6.6043   -2.1181   -0.0000 C   0  0  0  0  0  0  0  0  0  0  0  0
   -7.9252   -2.8559   -0.0000 C   0  0  0  0  0  0  0  0  0  0  0  0
   -6.6162   -0.5950   -0.0000 C   0  0  0  0  0  0  0  0  0  0  0  0
   -7.9371   -4.3434   -0.0000 F   0  0  0  0  0  0  0  0  0  0  0  0
   -9.2341   -2.0943   -0.0000 C   0  0  0  0  0  0  0  0  0  0  0  0
   -7.9252    0.1666   -0.0000 C   0  0  0  0  0  0  0  0  0  0  0  0
   -5.3310    0.1666   -0.0000 C   0  0  0  0  0  0  0  0  0  0  0  0
   -9.2460   -0.5831   -0.0000 C   0  0  0  0  0  0  0  0  0  0  0  0
   -5.3429    1.6779   -0.0000 N   0  0  0  0  0  0  0  0  0  0  0  0
   -4.0459   -0.5712   -0.0000 C   0  0  0  0  0  0  0  0  0  0  0  0
   -4.0578    2.4394   -0.0000 C   0  0  0  0  0  0  0  0  0  0  0  0
   -2.7607    0.1904   -0.0000 C   0  0  0  0  0  0  0  0  0  0  0  0
   -4.0697    3.9507   -0.0000 C   0  0  0  0  0  0  0  0  0  0  0  0
   -1.4756   -0.5474   -0.0000 C   0  0  0  0  0  0  0  0  0  0  0  0
   -2.7726    1.7017   -0.0000 C   0  0  0  0  0  0  0  0  0  0  0  0
   -2.7845    4.7123   -0.0000 O   0  0  0  0  0  0  0  0  0  0  0  0
  1  2  1  0  0  0  0
  2  3  2  0  0  0  0
  2  4  1  0  0  0  0
  3  5  1  0  0  0  0
  3  6  1  0  0  0  0
  4  7  2  0  0  0  0
  5  8  2  0  0  0  0
  6  9  1  0  0  0  0
  7 10  1  0  0  0  0
  9 11  1  1  0  0  0
  9 12  1  0  0  0  0
 11 13  1  0  0  0  0
 11 14  1  0  0  0  0
 12 15  2  0  0  0  0
 12 16  1  0  0  0  0
 13 17  2  0  0  0  0
 13 18  1  0  0  0  0
 14 19  1  0  0  0  0
 16 20  1  0  0  0  0
 16 21  1  0  0  0  0
 20 22  1  0  0  0  0
 21 23  1  0  0  0  0
 22 24  1  0  0  0  0
 24 25  1  0  0  0  0
 25 26  2  0  0  0  0
 25 27  1  0  0  0  0
 26 28  1  0  0  0  0
 26 29  1  0  0  0  0
 27 30  2  0  0  0  0
 27 31  1  0  0  0  0
 29 32  2  0  0  0  0
 31 33  1  1  0  0  0
 31 34  1  0  0  0  0
 33 35  1  0  0  0  0
 34 36  1  0  0  0  0
 35 37  1  0  0  0  0
 36 38  1  0  0  0  0
 36 39  1  0  0  0  0
 37 40  1  0  0  0  0
  7  8  1  0  0  0  0
 18 19  1  0  0  0  0
 23 24  1  0  0  0  0
 30 32  1  0  0  0  0
M  END
>  <MolRegNo>
398481

>  <m>
=

>  <Value>
480

>  <Unit>
nM

>  <Type>
IC50

>  <pValue>
6.32

>  <Ligand Efficiency>
0

>  <Binding Efficiency>
0

>  <Surface Efficiency>
0

>  <Assay Index>
298334

>  <Assay Category>


>  <Assay Organism>


>  <Target ID>
17045

>  <Target Name>
Cytochrome P450 3A4

>  <Target Organism>
Homo sapiens

>  <Target Description>
Target is a single protein chain

>  <Sequence Accession>
P08684

>  <Reference>
Bioorg Med Chem Lett 17 (20), 5610-5613 (2007)

>  <Pubmed ID>
17822895

>  <DOI>
10.1016/j.bmcl.2007.07.097

$$$$
398480
Actelion Java MolfileCreator 1.0

 41 44  0  0  1  0  0  0  0  0999 V2000
    0.0000   -0.0000   -0.0000 Cl  0  0  0  0  0  0  0  0  0  0  0  0
    1.2844   -0.7374   -0.0000 C   0  0  0  0  0  0  0  0  0  0  0  0
    1.2844   -2.2121   -0.0000 C   0  0  0  0  0  0  0  0  0  0  0  0
    2.5689    0.0238   -0.0000 C   0  0  0  0  0  0  0  0  0  0  0  0
    2.5689   -2.9613   -0.0000 C   0  0  0  0  0  0  0  0  0  0  0  0
   -0.0238   -2.9494   -0.0000 C   0  0  0  0  0  0  0  0  0  0  0  0
    3.8652   -0.7136   -0.0000 C   0  0  0  0  0  0  0  0  0  0  0  0
    3.8533   -2.2002   -0.0000 C   0  0  0  0  0  0  0  0  0  0  0  0
   -0.0357   -4.4360   -0.0000 C   0  0  0  0  0  0  0  0  0  0  0  0
    5.1496    0.0476   -0.0000 Cl  0  0  0  0  0  0  0  0  0  0  0  0
    1.2487   -5.1734   -0.0000 N   0  0  0  0  0  0  0  0  0  0  0  0
   -1.3439   -5.1734   -0.0000 C   0  0  0  0  0  0  0  0  0  0  0  0
    1.2131   -6.6600   -0.0000 C   0  0  0  0  0  0  0  0  0  0  0  0
    2.6759   -4.7333   -0.0000 C   0  0  0  0  0  0  0  0  0  0  0  0
   -1.3558   -6.6600   -0.0000 O   0  0  0  0  0  0  0  0  0  0  0  0
   -2.6521   -4.4122   -0.0000 N   0  0  0  0  0  0  0  0  0  0  0  0
   -0.1070   -7.3854   -0.0000 O   0  0  0  0  0  0  0  0  0  0  0  0
    2.6164   -7.1357   -0.0000 C   0  0  0  0  0  0  0  0  0  0  0  0
    3.5203   -5.9583   -0.0000 C   0  0  0  0  0  0  0  0  0  0  0  0
   -3.9722   -5.1496   -0.0000 C   0  0  0  0  0  0  0  0  0  0  0  0
   -2.6640   -2.9019   -0.0000 C   0  0  0  0  0  0  0  0  0  0  0  0
   -5.2804   -4.3885   -0.0000 C   0  0  0  0  0  0  0  0  0  0  0  0
   -3.9722   -2.1169   -0.0000 C   0  0  0  0  0  0  0  0  0  0  0  0
   -5.2923   -2.8781   -0.0000 N   0  0  0  0  0  0  0  0  0  0  0  0
   -6.6005   -2.1169   -0.0000 C   0  0  0  0  0  0  0  0  0  0  0  0
   -7.9206   -2.8543   -0.0000 C   0  0  0  0  0  0  0  0  0  0  0  0
   -6.6124   -0.5946   -0.0000 C   0  0  0  0  0  0  0  0  0  0  0  0
   -7.9325   -4.3409   -0.0000 F   0  0  0  0  0  0  0  0  0  0  0  0
   -9.2288   -2.0931   -0.0000 C   0  0  0  0  0  0  0  0  0  0  0  0
   -7.9206    0.1665   -0.0000 C   0  0  0  0  0  0  0  0  0  0  0  0
   -5.3280    0.1665   -0.0000 C   0  0  0  0  0  0  0  0  0  0  0  0
   -9.2407   -0.5709   -0.0000 C   0  0  0  0  0  0  0  0  0  0  0  0
   -5.3399    1.6769   -0.0000 N   0  0  0  0  0  0  0  0  0  0  0  0
   -4.0436   -0.5709   -0.0000 C   0  0  0  0  0  0  0  0  0  0  0  0
   -6.6481    2.4380   -0.0000 C   0  0  0  0  0  0  0  0  0  0  0  0
   -4.0555    2.4380   -0.0000 C   0  0  0  0  0  0  0  0  0  0  0  0
   -2.7591    0.1903   -0.0000 C   0  0  0  0  0  0  0  0  0  0  0  0
   -6.6600    3.9484   -0.0000 C   0  0  0  0  0  0  0  0  0  0  0  0
   -4.0673    3.9484   -0.0000 C   0  0  0  0  0  0  0  0  0  0  0  0
   -1.4747   -0.5471   -0.0000 C   0  0  0  0  0  0  0  0  0  0  0  0
   -2.7710    1.7007   -0.0000 C   0  0  0  0  0  0  0  0  0  0  0  0
  1  2  1  0  0  0  0
  2  3  2  0  0  0  0
  2  4  1  0  0  0  0
  3  5  1  0  0  0  0
  3  6  1  0  0  0  0
  4  7  2  0  0  0  0
  5  8  2  0  0  0  0
  6  9  1  0  0  0  0
  7 10  1  0  0  0  0
  9 11  1  1  0  0  0
  9 12  1  0  0  0  0
 11 13  1  0  0  0  0
 11 14  1  0  0  0  0
 12 15  2  0  0  0  0
 12 16  1  0  0  0  0
 13 17  2  0  0  0  0
 13 18  1  0  0  0  0
 14 19  1  0  0  0  0
 16 20  1  0  0  0  0
 16 21  1  0  0  0  0
 20 22  1  0  0  0  0
 21 23  1  0  0  0  0
 22 24  1  0  0  0  0
 24 25  1  0  0  0  0
 25 26  2  0  0  0  0
 25 27  1  0  0  0  0
 26 28  1  0  0  0  0
 26 29  1  0  0  0  0
 27 30  2  0  0  0  0
 27 31  1  0  0  0  0
 29 32  2  0  0  0  0
 31 33  1  1  0  0  0
 31 34  1  0  0  0  0
 33 35  1  0  0  0  0
 33 36  1  0  0  0  0
 34 37  1  0  0  0  0
 35 38  1  0  0  0  0
 36 39  1  0  0  0  0
 37 40  1  0  0  0  0
 37 41  1  0  0  0  0
  7  8  1  0  0  0  0
 18 19  1  0  0  0  0
 23 24  1  0  0  0  0
 30 32  1  0  0  0  0
M  END
>  <MolRegNo>
398480

>  <m>
=

>  <Value>
2700

>  <Unit>
nM

>  <Type>
IC50

>  <pValue>
5.57

>  <Ligand Efficiency>
0

>  <Binding Efficiency>
0

>  <Surface Efficiency>
0

>  <Assay Index>
298334

>  <Assay Category>


>  <Assay Organism>


>  <Target ID>
17045

>  <Target Name>
Cytochrome P450 3A4

>  <Target Organism>
Homo sapiens

>  <Target Description>
Target is a single protein chain

>  <Sequence Accession>
P08684

>  <Reference>
Bioorg Med Chem Lett 17 (20), 5610-5613 (2007)

>  <Pubmed ID>
17822895

>  <DOI>
10.1016/j.bmcl.2007.07.097

$$$$
398479
Actelion Java MolfileCreator 1.0

 39 42  0  0  1  0  0  0  0  0999 V2000
    0.0000   -0.0000   -0.0000 Cl  0  0  0  0  0  0  0  0  0  0  0  0
    1.2848   -0.7376   -0.0000 C   0  0  0  0  0  0  0  0  0  0  0  0
    1.2848   -2.2127   -0.0000 C   0  0  0  0  0  0  0  0  0  0  0  0
    2.5696    0.0238   -0.0000 C   0  0  0  0  0  0  0  0  0  0  0  0
    2.5696   -2.9622   -0.0000 C   0  0  0  0  0  0  0  0  0  0  0  0
   -0.0238   -2.9503   -0.0000 C   0  0  0  0  0  0  0  0  0  0  0  0
    3.8663   -0.7138   -0.0000 C   0  0  0  0  0  0  0  0  0  0  0  0
    3.8544   -2.2008   -0.0000 C   0  0  0  0  0  0  0  0  0  0  0  0
   -0.0357   -4.4373   -0.0000 C   0  0  0  0  0  0  0  0  0  0  0  0
    5.1511    0.0476   -0.0000 Cl  0  0  0  0  0  0  0  0  0  0  0  0
    1.2491   -5.1749   -0.0000 N   0  0  0  0  0  0  0  0  0  0  0  0
   -1.3443   -5.1749   -0.0000 C   0  0  0  0  0  0  0  0  0  0  0  0
    1.2134   -6.6619   -0.0000 C   0  0  0  0  0  0  0  0  0  0  0  0
    2.6767   -4.7347   -0.0000 C   0  0  0  0  0  0  0  0  0  0  0  0
   -1.3562   -6.6619   -0.0000 O   0  0  0  0  0  0  0  0  0  0  0  0
   -2.6529   -4.4135   -0.0000 N   0  0  0  0  0  0  0  0  0  0  0  0
   -0.1071   -7.3876   -0.0000 O   0  0  0  0  0  0  0  0  0  0  0  0
    2.6172   -7.1378   -0.0000 C   0  0  0  0  0  0  0  0  0  0  0  0
    3.5213   -5.9600   -0.0000 C   0  0  0  0  0  0  0  0  0  0  0  0
   -3.9734   -5.1511   -0.0000 C   0  0  0  0  0  0  0  0  0  0  0  0
   -2.6648   -2.9027   -0.0000 C   0  0  0  0  0  0  0  0  0  0  0  0
   -5.2819   -4.3897   -0.0000 C   0  0  0  0  0  0  0  0  0  0  0  0
   -3.9734   -2.1175   -0.0000 C   0  0  0  0  0  0  0  0  0  0  0  0
   -5.2938   -2.8789   -0.0000 N   0  0  0  0  0  0  0  0  0  0  0  0
   -6.6024   -2.1175   -0.0000 C   0  0  0  0  0  0  0  0  0  0  0  0
   -7.9229   -2.8551   -0.0000 C   0  0  0  0  0  0  0  0  0  0  0  0
   -6.6143   -0.5948   -0.0000 C   0  0  0  0  0  0  0  0  0  0  0  0
   -7.9348   -4.3421   -0.0000 F   0  0  0  0  0  0  0  0  0  0  0  0
   -9.2315   -2.0937   -0.0000 C   0  0  0  0  0  0  0  0  0  0  0  0
   -7.9229    0.1665   -0.0000 C   0  0  0  0  0  0  0  0  0  0  0  0
   -5.3295    0.1665   -0.0000 C   0  0  0  0  0  0  0  0  0  0  0  0
   -9.2434   -0.5829   -0.0000 C   0  0  0  0  0  0  0  0  0  0  0  0
   -4.0447   -0.5710   -0.0000 N   0  0  0  0  0  0  0  0  0  0  0  0
   -5.3414    1.6774   -0.0000 C   0  0  0  0  0  0  0  0  0  0  0  0
   -2.7599    0.1903   -0.0000 C   0  0  0  0  0  0  0  0  0  0  0  0
   -6.6500    2.4387   -0.0000 C   0  0  0  0  0  0  0  0  0  0  0  0
   -1.4751   -0.5472   -0.0000 C   0  0  0  0  0  0  0  0  0  0  0  0
   -6.6619    3.9496   -0.0000 C   0  0  0  0  0  0  0  0  0  0  0  0
   -7.9586    1.7012   -0.0000 C   0  0  0  0  0  0  0  0  0  0  0  0
  1  2  1  0  0  0  0
  2  3  2  0  0  0  0
  2  4  1  0  0  0  0
  3  5  1  0  0  0  0
  3  6  1  0  0  0  0
  4  7  2  0  0  0  0
  5  8  2  0  0  0  0
  6  9  1  0  0  0  0
  7 10  1  0  0  0  0
  9 11  1  1  0  0  0
  9 12  1  0  0  0  0
 11 13  1  0  0  0  0
 11 14  1  0  0  0  0
 12 15  2  0  0  0  0
 12 16  1  0  0  0  0
 13 17  2  0  0  0  0
 13 18  1  0  0  0  0
 14 19  1  0  0  0  0
 16 20  1  0  0  0  0
 16 21  1  0  0  0  0
 20 22  1  0  0  0  0
 21 23  1  0  0  0  0
 22 24  1  0  0  0  0
 24 25  1  0  0  0  0
 25 26  2  0  0  0  0
 25 27  1  0  0  0  0
 26 28  1  0  0  0  0
 26 29  1  0  0  0  0
 27 30  2  0  0  0  0
 27 31  1  0  0  0  0
 29 32  2  0  0  0  0
 31 33  1  6  0  0  0
 31 34  1  0  0  0  0
 33 35  1  0  0  0  0
 34 36  1  0  0  0  0
 35 37  1  0  0  0  0
 36 38  1  0  0  0  0
 36 39  1  0  0  0  0
  7  8  1  0  0  0  0
 18 19  1  0  0  0  0
 23 24  1  0  0  0  0
 30 32  1  0  0  0  0
M  END
>  <MolRegNo>
398479

>  <m>
=

>  <Value>
640

>  <Unit>
nM

>  <Type>
IC50

>  <pValue>
6.19

>  <Ligand Efficiency>
0

>  <Binding Efficiency>
0

>  <Surface Efficiency>
0

>  <Assay Index>
298334

>  <Assay Category>


>  <Assay Organism>


>  <Target ID>
17045

>  <Target Name>
Cytochrome P450 3A4

>  <Target Organism>
Homo sapiens

>  <Target Description>
Target is a single protein chain

>  <Sequence Accession>
P08684

>  <Reference>
Bioorg Med Chem Lett 17 (20), 5610-5613 (2007)

>  <Pubmed ID>
17822895

>  <DOI>
10.1016/j.bmcl.2007.07.097

$$$$
398478
Actelion Java MolfileCreator 1.0

 40 43  0  0  1  0  0  0  0  0999 V2000
    0.0000   -0.0000   -0.0000 Cl  0  0  0  0  0  0  0  0  0  0  0  0
    1.2835   -0.7368   -0.0000 C   0  0  0  0  0  0  0  0  0  0  0  0
    1.2835   -2.2105   -0.0000 C   0  0  0  0  0  0  0  0  0  0  0  0
    2.5670    0.0238   -0.0000 C   0  0  0  0  0  0  0  0  0  0  0  0
    2.5670   -2.9592   -0.0000 C   0  0  0  0  0  0  0  0  0  0  0  0
   -0.0238   -2.9473   -0.0000 C   0  0  0  0  0  0  0  0  0  0  0  0
    3.8624   -0.7131   -0.0000 C   0  0  0  0  0  0  0  0  0  0  0  0
    3.8505   -2.1986   -0.0000 C   0  0  0  0  0  0  0  0  0  0  0  0
   -0.0357   -4.4328   -0.0000 C   0  0  0  0  0  0  0  0  0  0  0  0
    5.1458    0.0475   -0.0000 Cl  0  0  0  0  0  0  0  0  0  0  0  0
    1.2478   -5.1696   -0.0000 N   0  0  0  0  0  0  0  0  0  0  0  0
   -1.3429   -5.1696   -0.0000 C   0  0  0  0  0  0  0  0  0  0  0  0
    1.2122   -6.6551   -0.0000 C   0  0  0  0  0  0  0  0  0  0  0  0
    2.6739   -4.7299   -0.0000 C   0  0  0  0  0  0  0  0  0  0  0  0
   -1.3548   -6.6551   -0.0000 O   0  0  0  0  0  0  0  0  0  0  0  0
   -2.6502   -4.4090   -0.0000 N   0  0  0  0  0  0  0  0  0  0  0  0
   -0.1070   -7.3801   -0.0000 O   0  0  0  0  0  0  0  0  0  0  0  0
    2.6145   -7.1305   -0.0000 C   0  0  0  0  0  0  0  0  0  0  0  0
    3.5177   -5.9540   -0.0000 C   0  0  0  0  0  0  0  0  0  0  0  0
   -3.9693   -5.1458   -0.0000 C   0  0  0  0  0  0  0  0  0  0  0  0
   -2.6621   -2.8997   -0.0000 C   0  0  0  0  0  0  0  0  0  0  0  0
   -5.2766   -4.3853   -0.0000 C   0  0  0  0  0  0  0  0  0  0  0  0
   -3.9693   -2.1273   -0.0000 C   0  0  0  0  0  0  0  0  0  0  0  0
   -5.2885   -2.8760   -0.0000 N   0  0  0  0  0  0  0  0  0  0  0  0
   -6.5957   -2.1154   -0.0000 C   0  0  0  0  0  0  0  0  0  0  0  0
   -6.6076   -0.5942   -0.0000 C   0  0  0  0  0  0  0  0  0  0  0  0
   -7.9149   -2.8522   -0.0000 C   0  0  0  0  0  0  0  0  0  0  0  0
   -7.9149    0.1664   -0.0000 C   0  0  0  0  0  0  0  0  0  0  0  0
   -5.3241    0.1664   -0.0000 C   0  0  0  0  0  0  0  0  0  0  0  0
   -9.2221   -2.0916   -0.0000 C   0  0  0  0  0  0  0  0  0  0  0  0
   -9.2221   -0.5704   -0.0000 C   0  0  0  0  0  0  0  0  0  0  0  0
   -4.0406   -0.5704   -0.0000 N   0  0  0  0  0  0  0  0  0  0  0  0
   -5.3360    1.6757   -0.0000 C   0  0  0  0  0  0  0  0  0  0  0  0
  -10.5294    0.1901   -0.0000 C   0  0  0  0  0  0  0  0  0  0  0  0
   -6.6432    2.4363   -0.0000 C   0  0  0  0  0  0  0  0  0  0  0  0
  -11.8485    0.9507   -0.0000 F   0  0  0  0  0  0  0  0  0  0  0  0
   -9.7926    1.4974   -0.0000 F   0  0  0  0  0  0  0  0  0  0  0  0
  -11.2900   -1.1052   -0.0000 F   0  0  0  0  0  0  0  0  0  0  0  0
   -6.6551    3.9455   -0.0000 C   0  0  0  0  0  0  0  0  0  0  0  0
   -7.9505    1.6994   -0.0000 C   0  0  0  0  0  0  0  0  0  0  0  0
  1  2  1  0  0  0  0
  2  3  2  0  0  0  0
  2  4  1  0  0  0  0
  3  5  1  0  0  0  0
  3  6  1  0  0  0  0
  4  7  2  0  0  0  0
  5  8  2  0  0  0  0
  6  9  1  0  0  0  0
  7 10  1  0  0  0  0
  9 11  1  1  0  0  0
  9 12  1  0  0  0  0
 11 13  1  0  0  0  0
 11 14  1  0  0  0  0
 12 15  2  0  0  0  0
 12 16  1  0  0  0  0
 13 17  2  0  0  0  0
 13 18  1  0  0  0  0
 14 19  1  0  0  0  0
 16 20  1  0  0  0  0
 16 21  1  0  0  0  0
 20 22  1  0  0  0  0
 21 23  1  0  0  0  0
 22 24  1  0  0  0  0
 24 25  1  0  0  0  0
 25 26  2  0  0  0  0
 25 27  1  0  0  0  0
 26 28  1  0  0  0  0
 26 29  1  0  0  0  0
 27 30  2  0  0  0  0
 28 31  2  0  0  0  0
 29 32  1  6  0  0  0
 29 33  1  0  0  0  0
 31 34  1  0  0  0  0
 33 35  1  0  0  0  0
 34 36  1  0  0  0  0
 34 37  1  0  0  0  0
 34 38  1  0  0  0  0
 35 39  1  0  0  0  0
 35 40  1  0  0  0  0
  7  8  1  0  0  0  0
 18 19  1  0  0  0  0
 23 24  1  0  0  0  0
 30 31  1  0  0  0  0
M  END
>  <MolRegNo>
398478

>  <m>
=

>  <Value>
49000

>  <Unit>
nM

>  <Type>
IC50

>  <pValue>
4.31

>  <Ligand Efficiency>
0

>  <Binding Efficiency>
0

>  <Surface Efficiency>
0

>  <Assay Index>
298334

>  <Assay Category>


>  <Assay Organism>


>  <Target ID>
17045

>  <Target Name>
Cytochrome P450 3A4

>  <Target Organism>
Homo sapiens

>  <Target Description>
Target is a single protein chain

>  <Sequence Accession>
P08684

>  <Reference>
Bioorg Med Chem Lett 17 (20), 5610-5613 (2007)

>  <Pubmed ID>
17822895

>  <DOI>
10.1016/j.bmcl.2007.07.097

$$$$
398477
Actelion Java MolfileCreator 1.0

 37 40  0  0  1  0  0  0  0  0999 V2000
    0.0000   -0.0000   -0.0000 Cl  0  0  0  0  0  0  0  0  0  0  0  0
    1.2840   -0.7371   -0.0000 C   0  0  0  0  0  0  0  0  0  0  0  0
    1.2840   -2.2114   -0.0000 C   0  0  0  0  0  0  0  0  0  0  0  0
    2.5681    0.0238   -0.0000 C   0  0  0  0  0  0  0  0  0  0  0  0
    2.5681   -2.9604   -0.0000 C   0  0  0  0  0  0  0  0  0  0  0  0
   -0.0238   -2.9485   -0.0000 C   0  0  0  0  0  0  0  0  0  0  0  0
    3.8640   -0.7134   -0.0000 C   0  0  0  0  0  0  0  0  0  0  0  0
    3.8521   -2.1995   -0.0000 C   0  0  0  0  0  0  0  0  0  0  0  0
   -0.0357   -4.4347   -0.0000 C   0  0  0  0  0  0  0  0  0  0  0  0
    5.1480    0.0476   -0.0000 Cl  0  0  0  0  0  0  0  0  0  0  0  0
    1.2484   -5.1718   -0.0000 N   0  0  0  0  0  0  0  0  0  0  0  0
   -1.3435   -5.1718   -0.0000 C   0  0  0  0  0  0  0  0  0  0  0  0
    1.2127   -6.6580   -0.0000 C   0  0  0  0  0  0  0  0  0  0  0  0
    2.6751   -4.7319   -0.0000 C   0  0  0  0  0  0  0  0  0  0  0  0
   -1.3554   -6.6580   -0.0000 O   0  0  0  0  0  0  0  0  0  0  0  0
   -2.6513   -4.4109   -0.0000 N   0  0  0  0  0  0  0  0  0  0  0  0
   -0.1070   -7.3832   -0.0000 O   0  0  0  0  0  0  0  0  0  0  0  0
    2.6156   -7.1335   -0.0000 C   0  0  0  0  0  0  0  0  0  0  0  0
    3.5192   -5.9565   -0.0000 C   0  0  0  0  0  0  0  0  0  0  0  0
   -3.9710   -5.1480   -0.0000 C   0  0  0  0  0  0  0  0  0  0  0  0
   -2.6632   -2.9010   -0.0000 C   0  0  0  0  0  0  0  0  0  0  0  0
   -5.2788   -4.3871   -0.0000 C   0  0  0  0  0  0  0  0  0  0  0  0
   -3.9710   -2.1282   -0.0000 C   0  0  0  0  0  0  0  0  0  0  0  0
   -5.2907   -2.8772   -0.0000 N   0  0  0  0  0  0  0  0  0  0  0  0
   -6.5985   -2.1163   -0.0000 C   0  0  0  0  0  0  0  0  0  0  0  0
   -6.6104   -0.5945   -0.0000 C   0  0  0  0  0  0  0  0  0  0  0  0
   -7.9182   -2.8534   -0.0000 C   0  0  0  0  0  0  0  0  0  0  0  0
   -7.9182    0.1664   -0.0000 C   0  0  0  0  0  0  0  0  0  0  0  0
   -5.3264    0.1664   -0.0000 C   0  0  0  0  0  0  0  0  0  0  0  0
   -9.2260   -2.0925   -0.0000 C   0  0  0  0  0  0  0  0  0  0  0  0
   -9.2260   -0.5707   -0.0000 C   0  0  0  0  0  0  0  0  0  0  0  0
   -4.0423   -0.5707   -0.0000 N   0  0  0  0  0  0  0  0  0  0  0  0
   -5.3383    1.6764   -0.0000 C   0  0  0  0  0  0  0  0  0  0  0  0
  -10.5338    0.1902   -0.0000 C   0  0  0  0  0  0  0  0  0  0  0  0
   -6.6461    2.4373   -0.0000 C   0  0  0  0  0  0  0  0  0  0  0  0
   -6.6580    3.9472   -0.0000 C   0  0  0  0  0  0  0  0  0  0  0  0
   -7.9539    1.7002   -0.0000 C   0  0  0  0  0  0  0  0  0  0  0  0
  1  2  1  0  0  0  0
  2  3  2  0  0  0  0
  2  4  1  0  0  0  0
  3  5  1  0  0  0  0
  3  6  1  0  0  0  0
  4  7  2  0  0  0  0
  5  8  2  0  0  0  0
  6  9  1  0  0  0  0
  7 10  1  0  0  0  0
  9 11  1  1  0  0  0
  9 12  1  0  0  0  0
 11 13  1  0  0  0  0
 11 14  1  0  0  0  0
 12 15  2  0  0  0  0
 12 16  1  0  0  0  0
 13 17  2  0  0  0  0
 13 18  1  0  0  0  0
 14 19  1  0  0  0  0
 16 20  1  0  0  0  0
 16 21  1  0  0  0  0
 20 22  1  0  0  0  0
 21 23  1  0  0  0  0
 22 24  1  0  0  0  0
 24 25  1  0  0  0  0
 25 26  2  0  0  0  0
 25 27  1  0  0  0  0
 26 28  1  0  0  0  0
 26 29  1  0  0  0  0
 27 30  2  0  0  0  0
 28 31  2  0  0  0  0
 29 32  1  6  0  0  0
 29 33  1  0  0  0  0
 31 34  1  0  0  0  0
 33 35  1  0  0  0  0
 35 36  1  0  0  0  0
 35 37  1  0  0  0  0
  7  8  1  0  0  0  0
 18 19  1  0  0  0  0
 23 24  1  0  0  0  0
 30 31  1  0  0  0  0
M  END
>  <MolRegNo>
398477

>  <m>
=

>  <Value>
1900

>  <Unit>
nM

>  <Type>
IC50

>  <pValue>
5.72

>  <Ligand Efficiency>
0

>  <Binding Efficiency>
0

>  <Surface Efficiency>
0

>  <Assay Index>
298334

>  <Assay Category>


>  <Assay Organism>


>  <Target ID>
17045

>  <Target Name>
Cytochrome P450 3A4

>  <Target Organism>
Homo sapiens

>  <Target Description>
Target is a single protein chain

>  <Sequence Accession>
P08684

>  <Reference>
Bioorg Med Chem Lett 17 (20), 5610-5613 (2007)

>  <Pubmed ID>
17822895

>  <DOI>
10.1016/j.bmcl.2007.07.097

$$$$
398476
Actelion Java MolfileCreator 1.0

 37 40  0  0  1  0  0  0  0  0999 V2000
    0.0000   -0.0000   -0.0000 Cl  0  0  0  0  0  0  0  0  0  0  0  0
    1.2840   -0.7371   -0.0000 C   0  0  0  0  0  0  0  0  0  0  0  0
    1.2840   -2.2114   -0.0000 C   0  0  0  0  0  0  0  0  0  0  0  0
    2.5681    0.0238   -0.0000 C   0  0  0  0  0  0  0  0  0  0  0  0
    2.5681   -2.9604   -0.0000 C   0  0  0  0  0  0  0  0  0  0  0  0
   -0.0238   -2.9485   -0.0000 C   0  0  0  0  0  0  0  0  0  0  0  0
    3.8640   -0.7134   -0.0000 C   0  0  0  0  0  0  0  0  0  0  0  0
    3.8521   -2.1995   -0.0000 C   0  0  0  0  0  0  0  0  0  0  0  0
   -0.0357   -4.4347   -0.0000 C   0  0  0  0  0  0  0  0  0  0  0  0
    5.1480    0.0476   -0.0000 Cl  0  0  0  0  0  0  0  0  0  0  0  0
    1.2484   -5.1718   -0.0000 N   0  0  0  0  0  0  0  0  0  0  0  0
   -1.3435   -5.1718   -0.0000 C   0  0  0  0  0  0  0  0  0  0  0  0
    1.2127   -6.6580   -0.0000 C   0  0  0  0  0  0  0  0  0  0  0  0
    2.6751   -4.7319   -0.0000 C   0  0  0  0  0  0  0  0  0  0  0  0
   -1.3554   -6.6580   -0.0000 O   0  0  0  0  0  0  0  0  0  0  0  0
   -2.6513   -4.4109   -0.0000 N   0  0  0  0  0  0  0  0  0  0  0  0
   -0.1070   -7.3832   -0.0000 O   0  0  0  0  0  0  0  0  0  0  0  0
    2.6156   -7.1335   -0.0000 C   0  0  0  0  0  0  0  0  0  0  0  0
    3.5192   -5.9565   -0.0000 C   0  0  0  0  0  0  0  0  0  0  0  0
   -3.9710   -5.1480   -0.0000 C   0  0  0  0  0  0  0  0  0  0  0  0
   -2.6632   -2.9010   -0.0000 C   0  0  0  0  0  0  0  0  0  0  0  0
   -5.2788   -4.3871   -0.0000 C   0  0  0  0  0  0  0  0  0  0  0  0
   -3.9710   -2.1282   -0.0000 C   0  0  0  0  0  0  0  0  0  0  0  0
   -5.2907   -2.8772   -0.0000 N   0  0  0  0  0  0  0  0  0  0  0  0
   -6.5985   -2.1163   -0.0000 C   0  0  0  0  0  0  0  0  0  0  0  0
   -6.6104   -0.5945   -0.0000 C   0  0  0  0  0  0  0  0  0  0  0  0
   -7.9182   -2.8534   -0.0000 C   0  0  0  0  0  0  0  0  0  0  0  0
   -7.9182    0.1664   -0.0000 C   0  0  0  0  0  0  0  0  0  0  0  0
   -5.3264    0.1664   -0.0000 C   0  0  0  0  0  0  0  0  0  0  0  0
   -9.2260   -2.0925   -0.0000 C   0  0  0  0  0  0  0  0  0  0  0  0
   -9.2260   -0.5707   -0.0000 C   0  0  0  0  0  0  0  0  0  0  0  0
   -4.0423   -0.5707   -0.0000 N   0  0  0  0  0  0  0  0  0  0  0  0
   -5.3383    1.6764   -0.0000 C   0  0  0  0  0  0  0  0  0  0  0  0
  -10.5338    0.1902   -0.0000 F   0  0  0  0  0  0  0  0  0  0  0  0
   -6.6461    2.4373   -0.0000 C   0  0  0  0  0  0  0  0  0  0  0  0
   -6.6580    3.9472   -0.0000 C   0  0  0  0  0  0  0  0  0  0  0  0
   -7.9539    1.7002   -0.0000 C   0  0  0  0  0  0  0  0  0  0  0  0
  1  2  1  0  0  0  0
  2  3  2  0  0  0  0
  2  4  1  0  0  0  0
  3  5  1  0  0  0  0
  3  6  1  0  0  0  0
  4  7  2  0  0  0  0
  5  8  2  0  0  0  0
  6  9  1  0  0  0  0
  7 10  1  0  0  0  0
  9 11  1  1  0  0  0
  9 12  1  0  0  0  0
 11 13  1  0  0  0  0
 11 14  1  0  0  0  0
 12 15  2  0  0  0  0
 12 16  1  0  0  0  0
 13 17  2  0  0  0  0
 13 18  1  0  0  0  0
 14 19  1  0  0  0  0
 16 20  1  0  0  0  0
 16 21  1  0  0  0  0
 20 22  1  0  0  0  0
 21 23  1  0  0  0  0
 22 24  1  0  0  0  0
 24 25  1  0  0  0  0
 25 26  2  0  0  0  0
 25 27  1  0  0  0  0
 26 28  1  0  0  0  0
 26 29  1  0  0  0  0
 27 30  2  0  0  0  0
 28 31  2  0  0  0  0
 29 32  1  6  0  0  0
 29 33  1  0  0  0  0
 31 34  1  0  0  0  0
 33 35  1  0  0  0  0
 35 36  1  0  0  0  0
 35 37  1  0  0  0  0
  7  8  1  0  0  0  0
 18 19  1  0  0  0  0
 23 24  1  0  0  0  0
 30 31  1  0  0  0  0
M  END
>  <MolRegNo>
398476

>  <m>
=

>  <Value>
220

>  <Unit>
nM

>  <Type>
IC50

>  <pValue>
6.66

>  <Ligand Efficiency>
0

>  <Binding Efficiency>
0

>  <Surface Efficiency>
0

>  <Assay Index>
298334

>  <Assay Category>


>  <Assay Organism>


>  <Target ID>
17045

>  <Target Name>
Cytochrome P450 3A4

>  <Target Organism>
Homo sapiens

>  <Target Description>
Target is a single protein chain

>  <Sequence Accession>
P08684

>  <Reference>
Bioorg Med Chem Lett 17 (20), 5610-5613 (2007)

>  <Pubmed ID>
17822895

>  <DOI>
10.1016/j.bmcl.2007.07.097

$$$$
398475
Actelion Java MolfileCreator 1.0

 37 40  0  0  1  0  0  0  0  0999 V2000
    0.0000   -0.0000   -0.0000 Cl  0  0  0  0  0  0  0  0  0  0  0  0
    1.2845   -0.7374   -0.0000 C   0  0  0  0  0  0  0  0  0  0  0  0
    1.2845   -2.2122   -0.0000 C   0  0  0  0  0  0  0  0  0  0  0  0
    2.5690    0.0238   -0.0000 C   0  0  0  0  0  0  0  0  0  0  0  0
    2.5690   -2.9615   -0.0000 C   0  0  0  0  0  0  0  0  0  0  0  0
   -0.0238   -2.9496   -0.0000 C   0  0  0  0  0  0  0  0  0  0  0  0
    3.8654   -0.7136   -0.0000 C   0  0  0  0  0  0  0  0  0  0  0  0
    3.8536   -2.2003   -0.0000 C   0  0  0  0  0  0  0  0  0  0  0  0
   -0.0357   -4.4363   -0.0000 C   0  0  0  0  0  0  0  0  0  0  0  0
    5.1500    0.0476   -0.0000 Cl  0  0  0  0  0  0  0  0  0  0  0  0
    1.2488   -5.1737   -0.0000 N   0  0  0  0  0  0  0  0  0  0  0  0
   -1.3440   -5.1737   -0.0000 C   0  0  0  0  0  0  0  0  0  0  0  0
    1.2132   -6.6605   -0.0000 C   0  0  0  0  0  0  0  0  0  0  0  0
    2.6761   -4.7337   -0.0000 C   0  0  0  0  0  0  0  0  0  0  0  0
   -1.3559   -6.6605   -0.0000 O   0  0  0  0  0  0  0  0  0  0  0  0
   -2.6523   -4.4126   -0.0000 N   0  0  0  0  0  0  0  0  0  0  0  0
   -0.1070   -7.3860   -0.0000 O   0  0  0  0  0  0  0  0  0  0  0  0
    2.6166   -7.1362   -0.0000 C   0  0  0  0  0  0  0  0  0  0  0  0
    3.5205   -5.9587   -0.0000 C   0  0  0  0  0  0  0  0  0  0  0  0
   -3.9725   -5.1500   -0.0000 C   0  0  0  0  0  0  0  0  0  0  0  0
   -2.6642   -2.9021   -0.0000 C   0  0  0  0  0  0  0  0  0  0  0  0
   -5.2808   -4.3888   -0.0000 C   0  0  0  0  0  0  0  0  0  0  0  0
   -3.9725   -2.1290   -0.0000 C   0  0  0  0  0  0  0  0  0  0  0  0
   -5.2927   -2.8783   -0.0000 N   0  0  0  0  0  0  0  0  0  0  0  0
   -6.6010   -2.1171   -0.0000 C   0  0  0  0  0  0  0  0  0  0  0  0
   -7.9212   -2.8545   -0.0000 C   0  0  0  0  0  0  0  0  0  0  0  0
   -6.6129   -0.5947   -0.0000 C   0  0  0  0  0  0  0  0  0  0  0  0
   -7.9331   -4.3412   -0.0000 F   0  0  0  0  0  0  0  0  0  0  0  0
   -9.2295   -2.0933   -0.0000 C   0  0  0  0  0  0  0  0  0  0  0  0
   -7.9212    0.1665   -0.0000 C   0  0  0  0  0  0  0  0  0  0  0  0
   -5.3284    0.1665   -0.0000 C   0  0  0  0  0  0  0  0  0  0  0  0
   -9.2414   -0.5828   -0.0000 C   0  0  0  0  0  0  0  0  0  0  0  0
   -4.0439   -0.5709   -0.0000 N   0  0  0  0  0  0  0  0  0  0  0  0
   -5.3403    1.6770   -0.0000 C   0  0  0  0  0  0  0  0  0  0  0  0
   -6.6486    2.4382   -0.0000 C   0  0  0  0  0  0  0  0  0  0  0  0
   -6.6605    3.9487   -0.0000 C   0  0  0  0  0  0  0  0  0  0  0  0
   -7.9569    1.7008   -0.0000 C   0  0  0  0  0  0  0  0  0  0  0  0
  1  2  1  0  0  0  0
  2  3  2  0  0  0  0
  2  4  1  0  0  0  0
  3  5  1  0  0  0  0
  3  6  1  0  0  0  0
  4  7  2  0  0  0  0
  5  8  2  0  0  0  0
  6  9  1  0  0  0  0
  7 10  1  0  0  0  0
  9 11  1  1  0  0  0
  9 12  1  0  0  0  0
 11 13  1  0  0  0  0
 11 14  1  0  0  0  0
 12 15  2  0  0  0  0
 12 16  1  0  0  0  0
 13 17  2  0  0  0  0
 13 18  1  0  0  0  0
 14 19  1  0  0  0  0
 16 20  1  0  0  0  0
 16 21  1  0  0  0  0
 20 22  1  0  0  0  0
 21 23  1  0  0  0  0
 22 24  1  0  0  0  0
 24 25  1  0  0  0  0
 25 26  2  0  0  0  0
 25 27  1  0  0  0  0
 26 28  1  0  0  0  0
 26 29  1  0  0  0  0
 27 30  2  0  0  0  0
 27 31  1  0  0  0  0
 29 32  2  0  0  0  0
 31 33  1  6  0  0  0
 31 34  1  0  0  0  0
 34 35  1  0  0  0  0
 35 36  1  0  0  0  0
 35 37  1  0  0  0  0
  7  8  1  0  0  0  0
 18 19  1  0  0  0  0
 23 24  1  0  0  0  0
 30 32  1  0  0  0  0
M  END
>  <MolRegNo>
398475

>  <m>
=

>  <Value>
170

>  <Unit>
nM

>  <Type>
IC50

>  <pValue>
6.77

>  <Ligand Efficiency>
0

>  <Binding Efficiency>
0

>  <Surface Efficiency>
0

>  <Assay Index>
298334

>  <Assay Category>


>  <Assay Organism>


>  <Target ID>
17045

>  <Target Name>
Cytochrome P450 3A4

>  <Target Organism>
Homo sapiens

>  <Target Description>
Target is a single protein chain

>  <Sequence Accession>
P08684

>  <Reference>
Bioorg Med Chem Lett 17 (20), 5610-5613 (2007)

>  <Pubmed ID>
17822895

>  <DOI>
10.1016/j.bmcl.2007.07.097

$$$$
404839
Actelion Java MolfileCreator 1.0

 30 32  0  0  0  0  0  0  0  0999 V2000
    0.0000   -0.0000   -0.0000 Cl  0  0  0  0  0  0  0  0  0  0  0  0
   -1.3028   -0.7343   -0.0000 C   0  0  0  0  0  0  0  0  0  0  0  0
   -1.3147   -2.2148   -0.0000 C   0  0  0  0  0  0  0  0  0  0  0  0
   -2.6175    0.0237   -0.0000 C   0  0  0  0  0  0  0  0  0  0  0  0
   -2.6175   -2.9491   -0.0000 C   0  0  0  0  0  0  0  0  0  0  0  0
   -3.9203   -0.7106   -0.0000 C   0  0  0  0  0  0  0  0  0  0  0  0
   -3.9203   -2.1911   -0.0000 C   0  0  0  0  0  0  0  0  0  0  0  0
   -5.2231   -2.9254   -0.0000 C   0  0  0  0  0  0  0  0  0  0  0  0
   -6.5259   -2.1674   -0.0000 C   0  0  0  0  0  0  0  0  0  0  0  0
   -7.8288   -2.9017   -0.0000 C   0  0  0  0  0  0  0  0  0  0  0  0
   -6.5378   -0.6633   -0.0000 C   0  0  0  0  0  0  0  0  0  0  0  0
   -7.8406   -4.3822   -0.0000 O   0  0  0  0  0  0  0  0  0  0  0  0
   -9.1316   -2.1437   -0.0000 N   0  0  0  0  0  0  0  0  0  0  0  0
  -10.4344   -2.8780   -0.0000 C   0  0  0  0  0  0  0  0  0  0  0  0
   -9.1434   -0.6396   -0.0000 C   0  0  0  0  0  0  0  0  0  0  0  0
  -11.7372   -2.1200   -0.0000 C   0  0  0  0  0  0  0  0  0  0  0  0
  -10.4463    0.1303   -0.0000 C   0  0  0  0  0  0  0  0  0  0  0  0
  -11.7491   -0.6040   -0.0000 N   0  0  0  0  0  0  0  0  0  0  0  0
  -13.0519    0.1540   -0.0000 C   0  0  0  0  0  0  0  0  0  0  0  0
  -13.0637    1.6700   -0.0000 C   0  0  0  0  0  0  0  0  0  0  0  0
  -14.3666   -0.5803   -0.0000 C   0  0  0  0  0  0  0  0  0  0  0  0
  -14.3784    2.4161   -0.0000 C   0  0  0  0  0  0  0  0  0  0  0  0
  -11.7846    2.4398   -0.0000 C   0  0  0  0  0  0  0  0  0  0  0  0
  -15.6694    0.1777   -0.0000 C   0  0  0  0  0  0  0  0  0  0  0  0
  -15.6694    1.6818   -0.0000 C   0  0  0  0  0  0  0  0  0  0  0  0
  -10.5055    1.7174   -0.0000 N   0  0  0  0  0  0  0  0  0  0  0  0
  -11.8083    3.9440   -0.0000 C   0  0  0  0  0  0  0  0  0  0  0  0
  -16.9722    2.4398   -0.0000 C   0  0  0  0  0  0  0  0  0  0  0  0
  -10.5292    4.7138   -0.0000 C   0  0  0  0  0  0  0  0  0  0  0  0
  -13.1111    4.6902   -0.0000 C   0  0  0  0  0  0  0  0  0  0  0  0
  1  2  1  0  0  0  0
  2  3  2  0  0  0  0
  2  4  1  0  0  0  0
  3  5  1  0  0  0  0
  4  6  2  0  0  0  0
  5  7  2  0  0  0  0
  7  8  1  0  0  0  0
  8  9  1  0  0  0  0
  9 10  1  0  0  0  0
  9 11  1  6  0  0  0
 10 12  2  0  0  0  0
 10 13  1  0  0  0  0
 13 14  1  0  0  0  0
 13 15  1  0  0  0  0
 14 16  1  0  0  0  0
 15 17  1  0  0  0  0
 16 18  1  0  0  0  0
 18 19  1  0  0  0  0
 19 20  2  0  0  0  0
 19 21  1  0  0  0  0
 20 22  1  0  0  0  0
 20 23  1  0  0  0  0
 21 24  2  0  0  0  0
 22 25  2  0  0  0  0
 23 26  1  6  0  0  0
 23 27  1  0  0  0  0
 25 28  1  0  0  0  0
 27 29  1  0  0  0  0
 27 30  1  0  0  0  0
  6  7  1  0  0  0  0
 17 18  1  0  0  0  0
 24 25  1  0  0  0  0
M  END
>  <MolRegNo>
404839

>  <m>
=

>  <Value>
8300

>  <Unit>
nM

>  <Type>
IC50

>  <pValue>
5.08

>  <Ligand Efficiency>
0

>  <Binding Efficiency>
0

>  <Surface Efficiency>
0

>  <Assay Index>
299356

>  <Assay Category>


>  <Assay Organism>


>  <Target ID>
17045

>  <Target Name>
Cytochrome P450 3A4

>  <Target Organism>
Homo sapiens

>  <Target Description>
Target is a single protein chain

>  <Sequence Accession>
P08684

>  <Reference>
J Med Chem 50 (22), 5249-5252 (2007)

>  <Pubmed ID>
17918824

>  <DOI>
10.1021/jm070806a

$$$$
404851
Actelion Java MolfileCreator 1.0

 35 37  0  0  0  0  0  0  0  0999 V2000
    0.0000   -0.0000   -0.0000 Cl  0  0  0  0  0  0  0  0  0  0  0  0
   -1.3043   -0.7351   -0.0000 C   0  0  0  0  0  0  0  0  0  0  0  0
   -1.3161   -2.2172   -0.0000 C   0  0  0  0  0  0  0  0  0  0  0  0
   -2.6204    0.0237   -0.0000 C   0  0  0  0  0  0  0  0  0  0  0  0
   -2.6204   -2.9524   -0.0000 C   0  0  0  0  0  0  0  0  0  0  0  0
   -3.9246   -0.7114   -0.0000 C   0  0  0  0  0  0  0  0  0  0  0  0
   -3.9246   -2.1935   -0.0000 C   0  0  0  0  0  0  0  0  0  0  0  0
   -5.2289   -2.9287   -0.0000 C   0  0  0  0  0  0  0  0  0  0  0  0
   -6.5332   -2.1698   -0.0000 C   0  0  0  0  0  0  0  0  0  0  0  0
   -7.8374   -2.9049   -0.0000 C   0  0  0  0  0  0  0  0  0  0  0  0
   -6.5450   -0.6640   -0.0000 C   0  0  0  0  0  0  0  0  0  0  0  0
   -7.8493   -4.3871   -0.0000 O   0  0  0  0  0  0  0  0  0  0  0  0
   -9.1417   -2.1461   -0.0000 N   0  0  0  0  0  0  0  0  0  0  0  0
  -10.4460   -2.8812   -0.0000 C   0  0  0  0  0  0  0  0  0  0  0  0
   -9.1535   -0.6403   -0.0000 C   0  0  0  0  0  0  0  0  0  0  0  0
  -11.7502   -2.1224   -0.0000 C   0  0  0  0  0  0  0  0  0  0  0  0
  -10.4578    0.1304   -0.0000 C   0  0  0  0  0  0  0  0  0  0  0  0
  -11.7621   -0.6047   -0.0000 N   0  0  0  0  0  0  0  0  0  0  0  0
  -13.0663    0.1541   -0.0000 C   0  0  0  0  0  0  0  0  0  0  0  0
  -13.0782    1.6718   -0.0000 C   0  0  0  0  0  0  0  0  0  0  0  0
  -14.3825   -0.5810   -0.0000 C   0  0  0  0  0  0  0  0  0  0  0  0
  -14.3943    2.4188   -0.0000 C   0  0  0  0  0  0  0  0  0  0  0  0
  -11.7976    2.4425   -0.0000 C   0  0  0  0  0  0  0  0  0  0  0  0
  -15.6867    0.1779   -0.0000 C   0  0  0  0  0  0  0  0  0  0  0  0
  -15.6867    1.6837   -0.0000 C   0  0  0  0  0  0  0  0  0  0  0  0
  -10.5171    1.7193   -0.0000 N   0  0  0  0  0  0  0  0  0  0  0  0
  -11.8214    3.9484   -0.0000 C   0  0  0  0  0  0  0  0  0  0  0  0
  -16.9910    2.4425   -0.0000 C   0  0  0  0  0  0  0  0  0  0  0  0
   -9.2365    2.4900   -0.0000 C   0  0  0  0  0  0  0  0  0  0  0  0
  -10.5408    4.7191   -0.0000 C   0  0  0  0  0  0  0  0  0  0  0  0
  -13.1256    4.6953   -0.0000 C   0  0  0  0  0  0  0  0  0  0  0  0
   -9.2603    3.9958   -0.0000 O   0  0  0  0  0  0  0  0  0  0  0  0
   -7.9560    1.7667   -0.0000 C   0  0  0  0  0  0  0  0  0  0  0  0
   -6.6754    2.5374   -0.0000 C   0  0  0  0  0  0  0  0  0  0  0  0
   -5.3830    1.8141   -0.0000 N   0  0  0  0  0  0  0  0  0  0  0  0
  1  2  1  0  0  0  0
  2  3  2  0  0  0  0
  2  4  1  0  0  0  0
  3  5  1  0  0  0  0
  4  6  2  0  0  0  0
  5  7  2  0  0  0  0
  7  8  1  0  0  0  0
  8  9  1  0  0  0  0
  9 10  1  0  0  0  0
  9 11  1  6  0  0  0
 10 12  2  0  0  0  0
 10 13  1  0  0  0  0
 13 14  1  0  0  0  0
 13 15  1  0  0  0  0
 14 16  1  0  0  0  0
 15 17  1  0  0  0  0
 16 18  1  0  0  0  0
 18 19  1  0  0  0  0
 19 20  2  0  0  0  0
 19 21  1  0  0  0  0
 20 22  1  0  0  0  0
 20 23  1  0  0  0  0
 21 24  2  0  0  0  0
 22 25  2  0  0  0  0
 23 26  1  6  0  0  0
 23 27  1  0  0  0  0
 25 28  1  0  0  0  0
 26 29  1  0  0  0  0
 27 30  1  0  0  0  0
 27 31  1  0  0  0  0
 29 32  2  0  0  0  0
 29 33  1  0  0  0  0
 33 34  1  0  0  0  0
 34 35  1  0  0  0  0
  6  7  1  0  0  0  0
 17 18  1  0  0  0  0
 24 25  1  0  0  0  0
M  END
>  <MolRegNo>
404851

>  <m>
=

>  <Value>
10000

>  <Unit>
nM

>  <Type>
IC50

>  <pValue>
5

>  <Ligand Efficiency>
0

>  <Binding Efficiency>
0

>  <Surface Efficiency>
0

>  <Assay Index>
299356

>  <Assay Category>


>  <Assay Organism>


>  <Target ID>
17045

>  <Target Name>
Cytochrome P450 3A4

>  <Target Organism>
Homo sapiens

>  <Target Description>
Target is a single protein chain

>  <Sequence Accession>
P08684

>  <Reference>
J Med Chem 50 (22), 5249-5252 (2007)

>  <Pubmed ID>
17918824

>  <DOI>
10.1021/jm070806a

$$$$
404848
Actelion Java MolfileCreator 1.0

 36 38  0  0  0  0  0  0  0  0999 V2000
    0.0000   -0.0000   -0.0000 Cl  0  0  0  0  0  0  0  0  0  0  0  0
   -1.3046   -0.7353   -0.0000 C   0  0  0  0  0  0  0  0  0  0  0  0
   -1.3165   -2.2179   -0.0000 C   0  0  0  0  0  0  0  0  0  0  0  0
   -2.6211    0.0237   -0.0000 C   0  0  0  0  0  0  0  0  0  0  0  0
   -2.6211   -2.9532   -0.0000 C   0  0  0  0  0  0  0  0  0  0  0  0
   -3.9257   -0.7116   -0.0000 C   0  0  0  0  0  0  0  0  0  0  0  0
   -3.9257   -2.1941   -0.0000 C   0  0  0  0  0  0  0  0  0  0  0  0
   -5.2303   -2.9295   -0.0000 C   0  0  0  0  0  0  0  0  0  0  0  0
   -6.5350   -2.1704   -0.0000 C   0  0  0  0  0  0  0  0  0  0  0  0
   -7.8396   -2.9057   -0.0000 C   0  0  0  0  0  0  0  0  0  0  0  0
   -6.5468   -0.6642   -0.0000 C   0  0  0  0  0  0  0  0  0  0  0  0
   -7.8515   -4.3883   -0.0000 O   0  0  0  0  0  0  0  0  0  0  0  0
   -9.1442   -2.1467   -0.0000 N   0  0  0  0  0  0  0  0  0  0  0  0
  -10.4488   -2.8820   -0.0000 C   0  0  0  0  0  0  0  0  0  0  0  0
   -9.1561   -0.6405   -0.0000 C   0  0  0  0  0  0  0  0  0  0  0  0
  -11.7535   -2.1230   -0.0000 C   0  0  0  0  0  0  0  0  0  0  0  0
  -10.4607    0.1305   -0.0000 C   0  0  0  0  0  0  0  0  0  0  0  0
  -11.7653   -0.6049   -0.0000 N   0  0  0  0  0  0  0  0  0  0  0  0
  -13.0699    0.1542   -0.0000 C   0  0  0  0  0  0  0  0  0  0  0  0
  -13.0818    1.6723   -0.0000 C   0  0  0  0  0  0  0  0  0  0  0  0
  -14.3864   -0.5811   -0.0000 C   0  0  0  0  0  0  0  0  0  0  0  0
  -14.3983    2.4195   -0.0000 C   0  0  0  0  0  0  0  0  0  0  0  0
  -11.8009    2.4432   -0.0000 C   0  0  0  0  0  0  0  0  0  0  0  0
  -15.6910    0.1779   -0.0000 C   0  0  0  0  0  0  0  0  0  0  0  0
  -15.6910    1.6841   -0.0000 C   0  0  0  0  0  0  0  0  0  0  0  0
  -10.5200    1.7197   -0.0000 N   0  0  0  0  0  0  0  0  0  0  0  0
  -11.8246    3.9494   -0.0000 C   0  0  0  0  0  0  0  0  0  0  0  0
  -16.9957    2.4432   -0.0000 C   0  0  0  0  0  0  0  0  0  0  0  0
   -9.2391    2.4906   -0.0000 C   0  0  0  0  0  0  0  0  0  0  0  0
  -10.5437    4.7204   -0.0000 C   0  0  0  0  0  0  0  0  0  0  0  0
  -13.1292    4.6966   -0.0000 C   0  0  0  0  0  0  0  0  0  0  0  0
   -9.2628    3.9969   -0.0000 O   0  0  0  0  0  0  0  0  0  0  0  0
   -7.9582    1.7672   -0.0000 C   0  0  0  0  0  0  0  0  0  0  0  0
   -6.6773    2.5381   -0.0000 C   0  0  0  0  0  0  0  0  0  0  0  0
   -5.3964    1.8146   -0.0000 N   0  0  0  0  0  0  0  0  0  0  0  0
   -4.1155    2.5855   -0.0000 C   0  0  0  0  0  0  0  0  0  0  0  0
  1  2  1  0  0  0  0
  2  3  2  0  0  0  0
  2  4  1  0  0  0  0
  3  5  1  0  0  0  0
  4  6  2  0  0  0  0
  5  7  2  0  0  0  0
  7  8  1  0  0  0  0
  8  9  1  0  0  0  0
  9 10  1  0  0  0  0
  9 11  1  6  0  0  0
 10 12  2  0  0  0  0
 10 13  1  0  0  0  0
 13 14  1  0  0  0  0
 13 15  1  0  0  0  0
 14 16  1  0  0  0  0
 15 17  1  0  0  0  0
 16 18  1  0  0  0  0
 18 19  1  0  0  0  0
 19 20  2  0  0  0  0
 19 21  1  0  0  0  0
 20 22  1  0  0  0  0
 20 23  1  0  0  0  0
 21 24  2  0  0  0  0
 22 25  2  0  0  0  0
 23 26  1  6  0  0  0
 23 27  1  0  0  0  0
 25 28  1  0  0  0  0
 26 29  1  0  0  0  0
 27 30  1  0  0  0  0
 27 31  1  0  0  0  0
 29 32  2  0  0  0  0
 29 33  1  0  0  0  0
 33 34  1  0  0  0  0
 34 35  1  0  0  0  0
 35 36  1  0  0  0  0
  6  7  1  0  0  0  0
 17 18  1  0  0  0  0
 24 25  1  0  0  0  0
M  END
>  <MolRegNo>
404848

>  <m>
=

>  <Value>
6000

>  <Unit>
nM

>  <Type>
IC50

>  <pValue>
5.22

>  <Ligand Efficiency>
0

>  <Binding Efficiency>
0

>  <Surface Efficiency>
0

>  <Assay Index>
299356

>  <Assay Category>


>  <Assay Organism>


>  <Target ID>
17045

>  <Target Name>
Cytochrome P450 3A4

>  <Target Organism>
Homo sapiens

>  <Target Description>
Target is a single protein chain

>  <Sequence Accession>
P08684

>  <Reference>
J Med Chem 50 (22), 5249-5252 (2007)

>  <Pubmed ID>
17918824

>  <DOI>
10.1021/jm070806a

$$$$
404847
Actelion Java MolfileCreator 1.0

 37 39  0  0  0  0  0  0  0  0999 V2000
    0.0000   -0.0000   -0.0000 Cl  0  0  0  0  0  0  0  0  0  0  0  0
   -1.3033   -0.7346   -0.0000 C   0  0  0  0  0  0  0  0  0  0  0  0
   -1.3152   -2.2157   -0.0000 C   0  0  0  0  0  0  0  0  0  0  0  0
   -2.6185    0.0237   -0.0000 C   0  0  0  0  0  0  0  0  0  0  0  0
   -2.6185   -2.9503   -0.0000 C   0  0  0  0  0  0  0  0  0  0  0  0
   -3.9219   -0.7109   -0.0000 C   0  0  0  0  0  0  0  0  0  0  0  0
   -3.9219   -2.1920   -0.0000 C   0  0  0  0  0  0  0  0  0  0  0  0
   -5.2252   -2.9266   -0.0000 C   0  0  0  0  0  0  0  0  0  0  0  0
   -6.5285   -2.1683   -0.0000 C   0  0  0  0  0  0  0  0  0  0  0  0
   -7.8319   -2.9029   -0.0000 C   0  0  0  0  0  0  0  0  0  0  0  0
   -6.5404   -0.6635   -0.0000 C   0  0  0  0  0  0  0  0  0  0  0  0
   -7.8437   -4.3840   -0.0000 O   0  0  0  0  0  0  0  0  0  0  0  0
   -9.1352   -2.1446   -0.0000 N   0  0  0  0  0  0  0  0  0  0  0  0
  -10.4504   -2.8792   -0.0000 C   0  0  0  0  0  0  0  0  0  0  0  0
   -9.1471   -0.6398   -0.0000 C   0  0  0  0  0  0  0  0  0  0  0  0
  -11.7537   -2.1209   -0.0000 C   0  0  0  0  0  0  0  0  0  0  0  0
  -10.4504    0.1303   -0.0000 C   0  0  0  0  0  0  0  0  0  0  0  0
  -11.7656   -0.6043   -0.0000 N   0  0  0  0  0  0  0  0  0  0  0  0
  -13.0689    0.1540   -0.0000 C   0  0  0  0  0  0  0  0  0  0  0  0
  -13.0808    1.6706   -0.0000 C   0  0  0  0  0  0  0  0  0  0  0  0
  -14.3841   -0.5806   -0.0000 C   0  0  0  0  0  0  0  0  0  0  0  0
  -14.3960    2.4171   -0.0000 C   0  0  0  0  0  0  0  0  0  0  0  0
  -11.8011    2.4408   -0.0000 C   0  0  0  0  0  0  0  0  0  0  0  0
  -15.6875    0.1777   -0.0000 C   0  0  0  0  0  0  0  0  0  0  0  0
  -15.6875    1.6825   -0.0000 C   0  0  0  0  0  0  0  0  0  0  0  0
  -10.5097    1.7062   -0.0000 N   0  0  0  0  0  0  0  0  0  0  0  0
  -11.8248    3.9456   -0.0000 C   0  0  0  0  0  0  0  0  0  0  0  0
  -16.9908    2.4408   -0.0000 C   0  0  0  0  0  0  0  0  0  0  0  0
   -9.2300    2.4763   -0.0000 C   0  0  0  0  0  0  0  0  0  0  0  0
  -10.5452    4.7157   -0.0000 C   0  0  0  0  0  0  0  0  0  0  0  0
  -13.1400    4.7039   -0.0000 C   0  0  0  0  0  0  0  0  0  0  0  0
   -9.2537    3.9811   -0.0000 O   0  0  0  0  0  0  0  0  0  0  0  0
   -7.9385    1.7417   -0.0000 C   0  0  0  0  0  0  0  0  0  0  0  0
   -6.6589    2.5119   -0.0000 C   0  0  0  0  0  0  0  0  0  0  0  0
   -5.3792    1.7773   -0.0000 N   0  0  0  0  0  0  0  0  0  0  0  0
   -4.0996    2.5474   -0.0000 C   0  0  0  0  0  0  0  0  0  0  0  0
   -5.3792    0.2962   -0.0000 C   0  0  0  0  0  0  0  0  0  0  0  0
  1  2  1  0  0  0  0
  2  3  2  0  0  0  0
  2  4  1  0  0  0  0
  3  5  1  0  0  0  0
  4  6  2  0  0  0  0
  5  7  2  0  0  0  0
  7  8  1  0  0  0  0
  8  9  1  0  0  0  0
  9 10  1  0  0  0  0
  9 11  1  6  0  0  0
 10 12  2  0  0  0  0
 10 13  1  0  0  0  0
 13 14  1  0  0  0  0
 13 15  1  0  0  0  0
 14 16  1  0  0  0  0
 15 17  1  0  0  0  0
 16 18  1  0  0  0  0
 18 19  1  0  0  0  0
 19 20  2  0  0  0  0
 19 21  1  0  0  0  0
 20 22  1  0  0  0  0
 20 23  1  0  0  0  0
 21 24  2  0  0  0  0
 22 25  2  0  0  0  0
 23 26  1  6  0  0  0
 23 27  1  0  0  0  0
 25 28  1  0  0  0  0
 26 29  1  0  0  0  0
 27 30  1  0  0  0  0
 27 31  1  0  0  0  0
 29 32  2  0  0  0  0
 29 33  1  0  0  0  0
 33 34  1  0  0  0  0
 34 35  1  0  0  0  0
 35 36  1  0  0  0  0
 35 37  1  0  0  0  0
  6  7  1  0  0  0  0
 17 18  1  0  0  0  0
 24 25  1  0  0  0  0
M  END
>  <MolRegNo>
404847

>  <m>
=

>  <Value>
9200

>  <Unit>
nM

>  <Type>
IC50

>  <pValue>
5.04

>  <Ligand Efficiency>
0

>  <Binding Efficiency>
0

>  <Surface Efficiency>
0

>  <Assay Index>
299356

>  <Assay Category>


>  <Assay Organism>


>  <Target ID>
17045

>  <Target Name>
Cytochrome P450 3A4

>  <Target Organism>
Homo sapiens

>  <Target Description>
Target is a single protein chain

>  <Sequence Accession>
P08684

>  <Reference>
J Med Chem 50 (22), 5249-5252 (2007)

>  <Pubmed ID>
17918824

>  <DOI>
10.1021/jm070806a

$$$$
404846
Actelion Java MolfileCreator 1.0

 38 40  0  0  0  0  0  0  0  0999 V2000
    0.0000   -0.0000   -0.0000 Cl  0  0  0  0  0  0  0  0  0  0  0  0
   -1.3054   -0.7358   -0.0000 C   0  0  0  0  0  0  0  0  0  0  0  0
   -1.3172   -2.2191   -0.0000 C   0  0  0  0  0  0  0  0  0  0  0  0
   -2.6226    0.0237   -0.0000 C   0  0  0  0  0  0  0  0  0  0  0  0
   -2.6226   -2.9549   -0.0000 C   0  0  0  0  0  0  0  0  0  0  0  0
   -3.9280   -0.7120   -0.0000 C   0  0  0  0  0  0  0  0  0  0  0  0
   -3.9280   -2.1954   -0.0000 C   0  0  0  0  0  0  0  0  0  0  0  0
   -2.6464   -4.4383   -0.0000 C   0  0  0  0  0  0  0  0  0  0  0  0
   -5.2334   -2.9312   -0.0000 C   0  0  0  0  0  0  0  0  0  0  0  0
   -6.5388   -2.1717   -0.0000 C   0  0  0  0  0  0  0  0  0  0  0  0
   -7.8441   -2.9074   -0.0000 C   0  0  0  0  0  0  0  0  0  0  0  0
   -6.5506   -0.6646   -0.0000 C   0  0  0  0  0  0  0  0  0  0  0  0
   -7.8560   -4.3908   -0.0000 O   0  0  0  0  0  0  0  0  0  0  0  0
   -9.1495   -2.1479   -0.0000 N   0  0  0  0  0  0  0  0  0  0  0  0
  -10.4549   -2.8837   -0.0000 C   0  0  0  0  0  0  0  0  0  0  0  0
   -9.1614   -0.6408   -0.0000 C   0  0  0  0  0  0  0  0  0  0  0  0
  -11.7603   -2.1242   -0.0000 C   0  0  0  0  0  0  0  0  0  0  0  0
  -10.4668    0.1305   -0.0000 C   0  0  0  0  0  0  0  0  0  0  0  0
  -11.7721   -0.6052   -0.0000 N   0  0  0  0  0  0  0  0  0  0  0  0
  -13.0775    0.1543   -0.0000 C   0  0  0  0  0  0  0  0  0  0  0  0
  -13.0894    1.6733   -0.0000 C   0  0  0  0  0  0  0  0  0  0  0  0
  -14.3948   -0.5815   -0.0000 C   0  0  0  0  0  0  0  0  0  0  0  0
  -14.4066    2.4209   -0.0000 C   0  0  0  0  0  0  0  0  0  0  0  0
  -11.8077    2.4446   -0.0000 C   0  0  0  0  0  0  0  0  0  0  0  0
  -15.7001    0.1780   -0.0000 C   0  0  0  0  0  0  0  0  0  0  0  0
  -15.7001    1.6851   -0.0000 C   0  0  0  0  0  0  0  0  0  0  0  0
  -10.5261    1.7207   -0.0000 N   0  0  0  0  0  0  0  0  0  0  0  0
  -11.8315    3.9517   -0.0000 C   0  0  0  0  0  0  0  0  0  0  0  0
  -17.0055    2.4446   -0.0000 C   0  0  0  0  0  0  0  0  0  0  0  0
   -9.2445    2.4921   -0.0000 C   0  0  0  0  0  0  0  0  0  0  0  0
  -10.5498    4.7231   -0.0000 C   0  0  0  0  0  0  0  0  0  0  0  0
  -13.1369    4.6994   -0.0000 C   0  0  0  0  0  0  0  0  0  0  0  0
   -9.2682    3.9992   -0.0000 O   0  0  0  0  0  0  0  0  0  0  0  0
   -7.9628    1.7682   -0.0000 C   0  0  0  0  0  0  0  0  0  0  0  0
   -6.6812    2.5396   -0.0000 C   0  0  0  0  0  0  0  0  0  0  0  0
   -5.3995    1.8157   -0.0000 N   0  0  0  0  0  0  0  0  0  0  0  0
   -4.1179    2.5870   -0.0000 C   0  0  0  0  0  0  0  0  0  0  0  0
   -5.3995    0.3323   -0.0000 C   0  0  0  0  0  0  0  0  0  0  0  0
  1  2  1  0  0  0  0
  2  3  2  0  0  0  0
  2  4  1  0  0  0  0
  3  5  1  0  0  0  0
  4  6  2  0  0  0  0
  5  7  2  0  0  0  0
  5  8  1  0  0  0  0
  7  9  1  0  0  0  0
  9 10  1  0  0  0  0
 10 11  1  0  0  0  0
 10 12  1  6  0  0  0
 11 13  2  0  0  0  0
 11 14  1  0  0  0  0
 14 15  1  0  0  0  0
 14 16  1  0  0  0  0
 15 17  1  0  0  0  0
 16 18  1  0  0  0  0
 17 19  1  0  0  0  0
 19 20  1  0  0  0  0
 20 21  2  0  0  0  0
 20 22  1  0  0  0  0
 21 23  1  0  0  0  0
 21 24  1  0  0  0  0
 22 25  2  0  0  0  0
 23 26  2  0  0  0  0
 24 27  1  6  0  0  0
 24 28  1  0  0  0  0
 26 29  1  0  0  0  0
 27 30  1  0  0  0  0
 28 31  1  0  0  0  0
 28 32  1  0  0  0  0
 30 33  2  0  0  0  0
 30 34  1  0  0  0  0
 34 35  1  0  0  0  0
 35 36  1  0  0  0  0
 36 37  1  0  0  0  0
 36 38  1  0  0  0  0
  6  7  1  0  0  0  0
 18 19  1  0  0  0  0
 25 26  1  0  0  0  0
M  END
>  <MolRegNo>
404846

>  <m>
=

>  <Value>
6800

>  <Unit>
nM

>  <Type>
IC50

>  <pValue>
5.17

>  <Ligand Efficiency>
0

>  <Binding Efficiency>
0

>  <Surface Efficiency>
0

>  <Assay Index>
299356

>  <Assay Category>


>  <Assay Organism>


>  <Target ID>
17045

>  <Target Name>
Cytochrome P450 3A4

>  <Target Organism>
Homo sapiens

>  <Target Description>
Target is a single protein chain

>  <Sequence Accession>
P08684

>  <Reference>
J Med Chem 50 (22), 5249-5252 (2007)

>  <Pubmed ID>
17918824

>  <DOI>
10.1021/jm070806a

$$$$
404845
Actelion Java MolfileCreator 1.0

 38 40  0  0  0  0  0  0  0  0999 V2000
    0.0000   -0.0000   -0.0000 Cl  0  0  0  0  0  0  0  0  0  0  0  0
   -1.3047   -0.7354   -0.0000 C   0  0  0  0  0  0  0  0  0  0  0  0
   -1.3166   -2.2180   -0.0000 C   0  0  0  0  0  0  0  0  0  0  0  0
   -2.6213    0.0237   -0.0000 C   0  0  0  0  0  0  0  0  0  0  0  0
   -2.6213   -2.9534   -0.0000 C   0  0  0  0  0  0  0  0  0  0  0  0
   -3.9260   -0.7117   -0.0000 C   0  0  0  0  0  0  0  0  0  0  0  0
   -2.6450   -4.4360   -0.0000 F   0  0  0  0  0  0  0  0  0  0  0  0
   -3.9260   -2.1943   -0.0000 C   0  0  0  0  0  0  0  0  0  0  0  0
   -5.2307   -2.9297   -0.0000 C   0  0  0  0  0  0  0  0  0  0  0  0
   -6.5354   -2.1706   -0.0000 C   0  0  0  0  0  0  0  0  0  0  0  0
   -7.8401   -2.9059   -0.0000 C   0  0  0  0  0  0  0  0  0  0  0  0
   -6.5472   -0.6642   -0.0000 C   0  0  0  0  0  0  0  0  0  0  0  0
   -7.8519   -4.3885   -0.0000 O   0  0  0  0  0  0  0  0  0  0  0  0
   -9.1448   -2.1468   -0.0000 N   0  0  0  0  0  0  0  0  0  0  0  0
  -10.4614   -2.8822   -0.0000 C   0  0  0  0  0  0  0  0  0  0  0  0
   -9.1566   -0.6405   -0.0000 C   0  0  0  0  0  0  0  0  0  0  0  0
  -11.7661   -2.1231   -0.0000 C   0  0  0  0  0  0  0  0  0  0  0  0
  -10.4614    0.1305   -0.0000 C   0  0  0  0  0  0  0  0  0  0  0  0
  -11.7779   -0.6049   -0.0000 N   0  0  0  0  0  0  0  0  0  0  0  0
  -13.0826    0.1542   -0.0000 C   0  0  0  0  0  0  0  0  0  0  0  0
  -13.0945    1.6724   -0.0000 C   0  0  0  0  0  0  0  0  0  0  0  0
  -14.3992   -0.5812   -0.0000 C   0  0  0  0  0  0  0  0  0  0  0  0
  -14.4110    2.4196   -0.0000 C   0  0  0  0  0  0  0  0  0  0  0  0
  -11.8135    2.4434   -0.0000 C   0  0  0  0  0  0  0  0  0  0  0  0
  -15.7039    0.1779   -0.0000 C   0  0  0  0  0  0  0  0  0  0  0  0
  -15.7039    1.6843   -0.0000 C   0  0  0  0  0  0  0  0  0  0  0  0
  -10.5325    1.7198   -0.0000 N   0  0  0  0  0  0  0  0  0  0  0  0
  -11.8372    3.9497   -0.0000 C   0  0  0  0  0  0  0  0  0  0  0  0
  -17.0086    2.4434   -0.0000 C   0  0  0  0  0  0  0  0  0  0  0  0
   -9.2515    2.4908   -0.0000 C   0  0  0  0  0  0  0  0  0  0  0  0
  -10.5562    4.7207   -0.0000 C   0  0  0  0  0  0  0  0  0  0  0  0
  -13.1419    4.6969   -0.0000 C   0  0  0  0  0  0  0  0  0  0  0  0
   -9.2753    3.9971   -0.0000 O   0  0  0  0  0  0  0  0  0  0  0  0
   -7.9706    1.7673   -0.0000 C   0  0  0  0  0  0  0  0  0  0  0  0
   -6.6896    2.5382   -0.0000 C   0  0  0  0  0  0  0  0  0  0  0  0
   -5.3967    1.8147   -0.0000 N   0  0  0  0  0  0  0  0  0  0  0  0
   -4.1157    2.5857   -0.0000 C   0  0  0  0  0  0  0  0  0  0  0  0
   -5.3967    0.3321   -0.0000 C   0  0  0  0  0  0  0  0  0  0  0  0
  1  2  1  0  0  0  0
  2  3  2  0  0  0  0
  2  4  1  0  0  0  0
  3  5  1  0  0  0  0
  4  6  2  0  0  0  0
  5  7  1  0  0  0  0
  5  8  2  0  0  0  0
  8  9  1  0  0  0  0
  9 10  1  0  0  0  0
 10 11  1  0  0  0  0
 10 12  1  6  0  0  0
 11 13  2  0  0  0  0
 11 14  1  0  0  0  0
 14 15  1  0  0  0  0
 14 16  1  0  0  0  0
 15 17  1  0  0  0  0
 16 18  1  0  0  0  0
 17 19  1  0  0  0  0
 19 20  1  0  0  0  0
 20 21  2  0  0  0  0
 20 22  1  0  0  0  0
 21 23  1  0  0  0  0
 21 24  1  0  0  0  0
 22 25  2  0  0  0  0
 23 26  2  0  0  0  0
 24 27  1  6  0  0  0
 24 28  1  0  0  0  0
 26 29  1  0  0  0  0
 27 30  1  0  0  0  0
 28 31  1  0  0  0  0
 28 32  1  0  0  0  0
 30 33  2  0  0  0  0
 30 34  1  0  0  0  0
 34 35  1  0  0  0  0
 35 36  1  0  0  0  0
 36 37  1  0  0  0  0
 36 38  1  0  0  0  0
  6  8  1  0  0  0  0
 18 19  1  0  0  0  0
 25 26  1  0  0  0  0
M  END
>  <MolRegNo>
404845

>  <m>
=

>  <Value>
6400

>  <Unit>
nM

>  <Type>
IC50

>  <pValue>
5.19

>  <Ligand Efficiency>
0

>  <Binding Efficiency>
0

>  <Surface Efficiency>
0

>  <Assay Index>
299356

>  <Assay Category>


>  <Assay Organism>


>  <Target ID>
17045

>  <Target Name>
Cytochrome P450 3A4

>  <Target Organism>
Homo sapiens

>  <Target Description>
Target is a single protein chain

>  <Sequence Accession>
P08684

>  <Reference>
J Med Chem 50 (22), 5249-5252 (2007)

>  <Pubmed ID>
17918824

>  <DOI>
10.1021/jm070806a

$$$$
404843
Actelion Java MolfileCreator 1.0

 36 38  0  0  0  0  0  0  0  0999 V2000
    0.0000   -0.0000   -0.0000 Cl  0  0  0  0  0  0  0  0  0  0  0  0
   -1.3036   -0.7347   -0.0000 C   0  0  0  0  0  0  0  0  0  0  0  0
   -1.3154   -2.2160   -0.0000 C   0  0  0  0  0  0  0  0  0  0  0  0
   -2.6190    0.0237   -0.0000 C   0  0  0  0  0  0  0  0  0  0  0  0
   -2.6190   -2.9508   -0.0000 C   0  0  0  0  0  0  0  0  0  0  0  0
   -3.9225   -0.7110   -0.0000 C   0  0  0  0  0  0  0  0  0  0  0  0
   -2.6427   -4.4321   -0.0000 F   0  0  0  0  0  0  0  0  0  0  0  0
   -3.9225   -2.1923   -0.0000 C   0  0  0  0  0  0  0  0  0  0  0  0
   -5.2261   -2.9271   -0.0000 C   0  0  0  0  0  0  0  0  0  0  0  0
   -6.5296   -2.1686   -0.0000 C   0  0  0  0  0  0  0  0  0  0  0  0
   -7.8332   -2.9034   -0.0000 C   0  0  0  0  0  0  0  0  0  0  0  0
   -6.5415   -0.6636   -0.0000 C   0  0  0  0  0  0  0  0  0  0  0  0
   -7.8450   -4.3847   -0.0000 O   0  0  0  0  0  0  0  0  0  0  0  0
   -9.1367   -2.1449   -0.0000 N   0  0  0  0  0  0  0  0  0  0  0  0
  -10.4522   -2.8797   -0.0000 C   0  0  0  0  0  0  0  0  0  0  0  0
   -9.1486   -0.6399   -0.0000 C   0  0  0  0  0  0  0  0  0  0  0  0
  -11.7557   -2.1212   -0.0000 C   0  0  0  0  0  0  0  0  0  0  0  0
  -10.4522    0.1304   -0.0000 C   0  0  0  0  0  0  0  0  0  0  0  0
  -11.7676   -0.6044   -0.0000 N   0  0  0  0  0  0  0  0  0  0  0  0
  -13.0711    0.1541   -0.0000 C   0  0  0  0  0  0  0  0  0  0  0  0
  -13.0830    1.6709   -0.0000 C   0  0  0  0  0  0  0  0  0  0  0  0
  -14.3865   -0.5807   -0.0000 C   0  0  0  0  0  0  0  0  0  0  0  0
  -14.3984    2.4175   -0.0000 C   0  0  0  0  0  0  0  0  0  0  0  0
  -11.8031    2.4412   -0.0000 C   0  0  0  0  0  0  0  0  0  0  0  0
  -15.6901    0.1778   -0.0000 C   0  0  0  0  0  0  0  0  0  0  0  0
  -15.6901    1.6828   -0.0000 C   0  0  0  0  0  0  0  0  0  0  0  0
  -10.5233    1.7065   -0.0000 N   0  0  0  0  0  0  0  0  0  0  0  0
  -11.8268    3.9462   -0.0000 C   0  0  0  0  0  0  0  0  0  0  0  0
  -16.9936    2.4412   -0.0000 C   0  0  0  0  0  0  0  0  0  0  0  0
   -9.2434    2.4768   -0.0000 C   0  0  0  0  0  0  0  0  0  0  0  0
  -10.5470    4.7165   -0.0000 C   0  0  0  0  0  0  0  0  0  0  0  0
  -13.1304    4.6928   -0.0000 C   0  0  0  0  0  0  0  0  0  0  0  0
   -9.2671    3.9818   -0.0000 O   0  0  0  0  0  0  0  0  0  0  0  0
   -7.9517    1.7420   -0.0000 C   0  0  0  0  0  0  0  0  0  0  0  0
   -6.6718    2.5123   -0.0000 N   0  0  0  0  0  0  0  0  0  0  0  0
   -5.3801    1.7776   -0.0000 C   0  0  0  0  0  0  0  0  0  0  0  0
  1  2  1  0  0  0  0
  2  3  2  0  0  0  0
  2  4  1  0  0  0  0
  3  5  1  0  0  0  0
  4  6  2  0  0  0  0
  5  7  1  0  0  0  0
  5  8  2  0  0  0  0
  8  9  1  0  0  0  0
  9 10  1  0  0  0  0
 10 11  1  0  0  0  0
 10 12  1  6  0  0  0
 11 13  2  0  0  0  0
 11 14  1  0  0  0  0
 14 15  1  0  0  0  0
 14 16  1  0  0  0  0
 15 17  1  0  0  0  0
 16 18  1  0  0  0  0
 17 19  1  0  0  0  0
 19 20  1  0  0  0  0
 20 21  2  0  0  0  0
 20 22  1  0  0  0  0
 21 23  1  0  0  0  0
 21 24  1  0  0  0  0
 22 25  2  0  0  0  0
 23 26  2  0  0  0  0
 24 27  1  6  0  0  0
 24 28  1  0  0  0  0
 26 29  1  0  0  0  0
 27 30  1  0  0  0  0
 28 31  1  0  0  0  0
 28 32  1  0  0  0  0
 30 33  2  0  0  0  0
 30 34  1  0  0  0  0
 34 35  1  0  0  0  0
 35 36  1  0  0  0  0
  6  8  1  0  0  0  0
 18 19  1  0  0  0  0
 25 26  1  0  0  0  0
M  END
>  <MolRegNo>
404843

>  <m>
=

>  <Value>
6900

>  <Unit>
nM

>  <Type>
IC50

>  <pValue>
5.16

>  <Ligand Efficiency>
0

>  <Binding Efficiency>
0

>  <Surface Efficiency>
0

>  <Assay Index>
299356

>  <Assay Category>


>  <Assay Organism>


>  <Target ID>
17045

>  <Target Name>
Cytochrome P450 3A4

>  <Target Organism>
Homo sapiens

>  <Target Description>
Target is a single protein chain

>  <Sequence Accession>
P08684

>  <Reference>
J Med Chem 50 (22), 5249-5252 (2007)

>  <Pubmed ID>
17918824

>  <DOI>
10.1021/jm070806a

$$$$
404842
Actelion Java MolfileCreator 1.0

 35 37  0  0  0  0  0  0  0  0999 V2000
    0.0000   -0.0000   -0.0000 Cl  0  0  0  0  0  0  0  0  0  0  0  0
   -1.3032   -0.7345   -0.0000 C   0  0  0  0  0  0  0  0  0  0  0  0
   -1.3150   -2.2154   -0.0000 C   0  0  0  0  0  0  0  0  0  0  0  0
   -2.6182    0.0237   -0.0000 C   0  0  0  0  0  0  0  0  0  0  0  0
   -2.6182   -2.9500   -0.0000 C   0  0  0  0  0  0  0  0  0  0  0  0
   -3.9214   -0.7108   -0.0000 C   0  0  0  0  0  0  0  0  0  0  0  0
   -2.6301   -4.4309   -0.0000 F   0  0  0  0  0  0  0  0  0  0  0  0
   -3.9214   -2.1917   -0.0000 C   0  0  0  0  0  0  0  0  0  0  0  0
   -5.2246   -2.9263   -0.0000 C   0  0  0  0  0  0  0  0  0  0  0  0
   -6.5278   -2.1680   -0.0000 C   0  0  0  0  0  0  0  0  0  0  0  0
   -7.8310   -2.9026   -0.0000 C   0  0  0  0  0  0  0  0  0  0  0  0
   -6.5397   -0.6634   -0.0000 C   0  0  0  0  0  0  0  0  0  0  0  0
   -7.8429   -4.3835   -0.0000 O   0  0  0  0  0  0  0  0  0  0  0  0
   -9.1342   -2.1444   -0.0000 N   0  0  0  0  0  0  0  0  0  0  0  0
  -10.4493   -2.8789   -0.0000 C   0  0  0  0  0  0  0  0  0  0  0  0
   -9.1461   -0.6398   -0.0000 C   0  0  0  0  0  0  0  0  0  0  0  0
  -11.7525   -2.1207   -0.0000 C   0  0  0  0  0  0  0  0  0  0  0  0
  -10.4493    0.1303   -0.0000 C   0  0  0  0  0  0  0  0  0  0  0  0
  -11.7643   -0.6042   -0.0000 N   0  0  0  0  0  0  0  0  0  0  0  0
  -13.0675    0.1540   -0.0000 C   0  0  0  0  0  0  0  0  0  0  0  0
  -13.0794    1.6705   -0.0000 C   0  0  0  0  0  0  0  0  0  0  0  0
  -14.3826   -0.5805   -0.0000 C   0  0  0  0  0  0  0  0  0  0  0  0
  -14.3944    2.4168   -0.0000 C   0  0  0  0  0  0  0  0  0  0  0  0
  -11.7999    2.4405   -0.0000 C   0  0  0  0  0  0  0  0  0  0  0  0
  -15.6858    0.1777   -0.0000 C   0  0  0  0  0  0  0  0  0  0  0  0
  -15.6858    1.6823   -0.0000 C   0  0  0  0  0  0  0  0  0  0  0  0
  -10.5085    1.7060   -0.0000 N   0  0  0  0  0  0  0  0  0  0  0  0
  -11.8236    3.9451   -0.0000 C   0  0  0  0  0  0  0  0  0  0  0  0
  -16.9890    2.4405   -0.0000 C   0  0  0  0  0  0  0  0  0  0  0  0
   -9.2290    2.4761   -0.0000 C   0  0  0  0  0  0  0  0  0  0  0  0
  -10.5441    4.7152   -0.0000 C   0  0  0  0  0  0  0  0  0  0  0  0
  -13.1386    4.7034   -0.0000 C   0  0  0  0  0  0  0  0  0  0  0  0
   -7.9377    1.7415   -0.0000 C   0  0  0  0  0  0  0  0  0  0  0  0
   -6.6582    2.5116   -0.0000 N   0  0  0  0  0  0  0  0  0  0  0  0
   -5.3668    1.7889   -0.0000 C   0  0  0  0  0  0  0  0  0  0  0  0
  1  2  1  0  0  0  0
  2  3  2  0  0  0  0
  2  4  1  0  0  0  0
  3  5  1  0  0  0  0
  4  6  2  0  0  0  0
  5  7  1  0  0  0  0
  5  8  2  0  0  0  0
  8  9  1  0  0  0  0
  9 10  1  0  0  0  0
 10 11  1  0  0  0  0
 10 12  1  6  0  0  0
 11 13  2  0  0  0  0
 11 14  1  0  0  0  0
 14 15  1  0  0  0  0
 14 16  1  0  0  0  0
 15 17  1  0  0  0  0
 16 18  1  0  0  0  0
 17 19  1  0  0  0  0
 19 20  1  0  0  0  0
 20 21  2  0  0  0  0
 20 22  1  0  0  0  0
 21 23  1  0  0  0  0
 21 24  1  0  0  0  0
 22 25  2  0  0  0  0
 23 26  2  0  0  0  0
 24 27  1  6  0  0  0
 24 28  1  0  0  0  0
 26 29  1  0  0  0  0
 27 30  1  0  0  0  0
 28 31  1  0  0  0  0
 28 32  1  0  0  0  0
 30 33  1  0  0  0  0
 33 34  1  0  0  0  0
 34 35  1  0  0  0  0
  6  8  1  0  0  0  0
 18 19  1  0  0  0  0
 25 26  1  0  0  0  0
M  END
>  <MolRegNo>
404842

>  <m>
=

>  <Value>
9000

>  <Unit>
nM

>  <Type>
IC50

>  <pValue>
5.05

>  <Ligand Efficiency>
0

>  <Binding Efficiency>
0

>  <Surface Efficiency>
0

>  <Assay Index>
299356

>  <Assay Category>


>  <Assay Organism>


>  <Target ID>
17045

>  <Target Name>
Cytochrome P450 3A4

>  <Target Organism>
Homo sapiens

>  <Target Description>
Target is a single protein chain

>  <Sequence Accession>
P08684

>  <Reference>
J Med Chem 50 (22), 5249-5252 (2007)

>  <Pubmed ID>
17918824

>  <DOI>
10.1021/jm070806a

$$$$
399191
Actelion Java MolfileCreator 1.0

 34 38  0  0  0  0  0  0  0  0999 V2000
    0.0000   -0.0000   -0.0000 Cl  0  0  0  0  0  0  0  0  0  0  0  0
    1.2851   -0.7378   -0.0000 C   0  0  0  0  0  0  0  0  0  0  0  0
    2.5703    0.0238   -0.0000 C   0  0  0  0  0  0  0  0  0  0  0  0
    1.2732   -2.2371   -0.0000 C   0  0  0  0  0  0  0  0  0  0  0  0
    2.5584    1.5350   -0.0000 N   0  0  0  0  0  0  0  0  0  0  0  0
    3.8673   -0.7140   -0.0000 C   0  0  0  0  0  0  0  0  0  0  0  0
    2.5703   -2.9748   -0.0000 N   0  0  0  0  0  0  0  0  0  0  0  0
    3.8554    2.2966   -0.0000 C   0  0  0  0  0  0  0  0  0  0  0  0
    1.2375    2.2966   -0.0000 C   0  0  0  0  0  0  0  0  0  0  0  0
    5.2952   -0.2261   -0.0000 N   0  0  0  0  0  0  0  0  0  0  0  0
    3.8673   -2.2133   -0.0000 C   0  0  0  0  0  0  0  0  0  0  0  0
    3.8435    3.8078   -0.0000 C   0  0  0  0  0  0  0  0  0  0  0  0
    1.2256    3.8197   -0.0000 C   0  0  0  0  0  0  0  0  0  0  0  0
    6.1758   -1.4279   -0.0000 C   0  0  0  0  0  0  0  0  0  0  0  0
    5.2952   -2.6536   -0.0000 N   0  0  0  0  0  0  0  0  0  0  0  0
    2.5346    4.5693   -0.0000 N   0  0  0  0  0  0  0  0  0  0  0  0
    7.6632   -1.4041   -0.0000 C   0  0  0  0  0  0  0  0  0  0  0  0
    2.5227    6.0806   -0.0000 C   0  0  0  0  0  0  0  0  0  0  0  0
    8.4009   -2.6892   -0.0000 C   0  0  0  0  0  0  0  0  0  0  0  0
    8.3771   -0.0833   -0.0000 C   0  0  0  0  0  0  0  0  0  0  0  0
    3.8197    6.8421   -0.0000 C   0  0  0  0  0  0  0  0  0  0  0  0
    9.8883   -2.6655   -0.0000 C   0  0  0  0  0  0  0  0  0  0  0  0
    9.8645   -0.0595   -0.0000 C   0  0  0  0  0  0  0  0  0  0  0  0
    3.8078    8.3533   -0.0000 O   0  0  0  0  0  0  0  0  0  0  0  0
    5.1048    6.1044   -0.0000 N   0  0  0  0  0  0  0  0  0  0  0  0
   10.6261   -1.3446   -0.0000 C   0  0  0  0  0  0  0  0  0  0  0  0
    6.3899    6.8659   -0.0000 C   0  0  0  0  0  0  0  0  0  0  0  0
   12.1135   -1.3208   -0.0000 N   0  0  0  0  0  0  0  0  0  0  0  0
    7.5799    5.9735   -0.0000 S   0  0  0  0  0  0  0  0  0  0  0  0
    6.8778    8.2938   -0.0000 N   0  0  0  0  0  0  0  0  0  0  0  0
   12.8632   -2.6060   -0.0000 C   0  0  0  0  0  0  0  0  0  0  0  0
   12.8394   -0.0000   -0.0000 C   0  0  0  0  0  0  0  0  0  0  0  0
    8.8055    6.8421   -0.0000 C   0  0  0  0  0  0  0  0  0  0  0  0
    8.3771    8.2819   -0.0000 C   0  0  0  0  0  0  0  0  0  0  0  0
  1  2  1  0  0  0  0
  2  3  2  0  0  0  0
  2  4  1  0  0  0  0
  3  5  1  0  0  0  0
  3  6  1  0  0  0  0
  4  7  2  0  0  0  0
  5  8  1  0  0  0  0
  5  9  1  0  0  0  0
  6 10  1  0  0  0  0
  6 11  2  0  0  0  0
  8 12  1  0  0  0  0
  9 13  1  0  0  0  0
 10 14  2  0  0  0  0
 11 15  1  0  0  0  0
 12 16  1  0  0  0  0
 14 17  1  0  0  0  0
 16 18  1  0  0  0  0
 17 19  2  0  0  0  0
 17 20  1  0  0  0  0
 18 21  1  0  0  0  0
 19 22  1  0  0  0  0
 20 23  2  0  0  0  0
 21 24  2  0  0  0  0
 21 25  1  0  0  0  0
 22 26  2  0  0  0  0
 25 27  1  0  0  0  0
 26 28  1  0  0  0  0
 27 29  1  0  0  0  0
 27 30  2  0  0  0  0
 28 31  1  0  0  0  0
 28 32  1  0  0  0  0
 29 33  1  0  0  0  0
 30 34  1  0  0  0  0
  7 11  1  0  0  0  0
 13 16  1  0  0  0  0
 14 15  1  0  0  0  0
 23 26  1  0  0  0  0
 33 34  2  0  0  0  0
M  END
>  <MolRegNo>
399191

>  <m>
=

>  <Value>
10000

>  <Unit>
nM

>  <Type>
IC50

>  <pValue>
5

>  <Ligand Efficiency>
0

>  <Binding Efficiency>
0

>  <Surface Efficiency>
0

>  <Assay Index>
299735

>  <Assay Category>


>  <Assay Organism>
Homo sapiens

>  <Target ID>
17045

>  <Target Name>
Cytochrome P450 3A4

>  <Target Organism>
Homo sapiens

>  <Target Description>
Target is a single protein chain

>  <Sequence Accession>
P08684

>  <Reference>
Bioorg Med Chem Lett 17 (23), 6567-6571 (2007)

>  <Pubmed ID>
17933533

>  <DOI>
10.1016/j.bmcl.2007.09.076

$$$$
402468
Actelion Java MolfileCreator 1.0

 24 27  0  0  0  0  0  0  0  0999 V2000
    0.0000   -0.0000   -0.0000 Cl  0  0  0  0  0  0  0  0  0  0  0  0
   -1.3759    0.6115   -0.0000 C   0  0  0  0  0  0  0  0  0  0  0  0
   -2.6694   -0.1294   -0.0000 N   0  0  0  0  0  0  0  0  0  0  0  0
   -1.7051    2.0814   -0.0000 C   0  0  0  0  0  0  0  0  0  0  0  0
   -3.7983    0.8702   -0.0000 C   0  0  0  0  0  0  0  0  0  0  0  0
   -0.7291    3.2104   -0.0000 S   0  0  0  0  0  0  0  0  0  0  0  0
   -3.2104    2.2461   -0.0000 N   0  0  0  0  0  0  0  0  0  0  0  0
   -5.3036    1.0231   -0.0000 S   0  0  0  0  0  0  0  0  0  0  0  0
    0.3057    4.2805   -0.0000 O   0  0  0  0  0  0  0  0  0  0  0  0
   -0.0118    1.9403   -0.0000 O   0  0  0  0  0  0  0  0  0  0  0  0
   -1.2112    4.6333   -0.0000 N   0  0  0  0  0  0  0  0  0  0  0  0
   -4.3510    3.2456   -0.0000 C   0  0  0  0  0  0  0  0  0  0  0  0
   -5.6446    2.4930   -0.0000 C   0  0  0  0  0  0  0  0  0  0  0  0
   -2.6459    5.0919   -0.0000 C   0  0  0  0  0  0  0  0  0  0  0  0
   -0.3528    5.8563   -0.0000 C   0  0  0  0  0  0  0  0  0  0  0  0
   -2.6694    6.5971   -0.0000 C   0  0  0  0  0  0  0  0  0  0  0  0
   -3.9512    4.3510   -0.0000 C   0  0  0  0  0  0  0  0  0  0  0  0
   -1.2465    7.0675   -0.0000 C   0  0  0  0  0  0  0  0  0  0  0  0
   -3.9747    7.3497   -0.0000 C   0  0  0  0  0  0  0  0  0  0  0  0
   -5.2565    5.1037   -0.0000 C   0  0  0  0  0  0  0  0  0  0  0  0
   -0.8114    8.5022   -0.0000 C   0  0  0  0  0  0  0  0  0  0  0  0
   -5.2683    6.6089   -0.0000 C   0  0  0  0  0  0  0  0  0  0  0  0
    0.6350    8.8314   -0.0000 C   0  0  0  0  0  0  0  0  0  0  0  0
    1.0701   10.2661   -0.0000 N   0  0  0  0  0  0  0  0  0  0  0  0
  1  2  1  0  0  0  0
  2  3  1  0  0  0  0
  2  4  2  0  0  0  0
  3  5  2  0  0  0  0
  4  6  1  0  0  0  0
  4  7  1  0  0  0  0
  5  8  1  0  0  0  0
  6  9  2  0  0  0  0
  6 10  2  0  0  0  0
  6 11  1  0  0  0  0
  7 12  1  0  0  0  0
  8 13  1  0  0  0  0
 11 14  1  0  0  0  0
 11 15  1  0  0  0  0
 14 16  2  0  0  0  0
 14 17  1  0  0  0  0
 15 18  2  0  0  0  0
 16 19  1  0  0  0  0
 17 20  2  0  0  0  0
 18 21  1  0  0  0  0
 19 22  2  0  0  0  0
 21 23  1  0  0  0  0
 23 24  1  0  0  0  0
  5  7  1  0  0  0  0
 12 13  2  0  0  0  0
 16 18  1  0  0  0  0
 20 22  1  0  0  0  0
M  END
>  <MolRegNo>
402468

>  <m>
=

>  <Value>
33000

>  <Unit>
nM

>  <Type>
IC50

>  <pValue>
4.48

>  <Ligand Efficiency>
0

>  <Binding Efficiency>
0

>  <Surface Efficiency>
0

>  <Assay Index>
299991

>  <Assay Category>


>  <Assay Organism>
Homo sapiens

>  <Target ID>
17045

>  <Target Name>
Cytochrome P450 3A4

>  <Target Organism>
Homo sapiens

>  <Target Description>
Target is a single protein chain

>  <Sequence Accession>
P08684

>  <Reference>
J Med Chem 50 (23), 5535-5538 (2007)

>  <Pubmed ID>
17948978

>  <DOI>
10.1021/jm070521y

$$$$
405681
Actelion Java MolfileCreator 1.0

 35 37  0  0  0  0  0  0  0  0999 V2000
    0.0000   -0.0000   -0.0000 F   0  0  0  0  0  0  0  0  0  0  0  0
    1.2992    0.7795   -0.0000 C   0  0  0  0  0  0  0  0  0  0  0  0
    1.2848    2.3097   -0.0000 C   0  0  0  0  0  0  0  0  0  0  0  0
    2.6129    0.0433   -0.0000 C   0  0  0  0  0  0  0  0  0  0  0  0
    2.5840    3.0893   -0.0000 C   0  0  0  0  0  0  0  0  0  0  0  0
    3.9121    0.8228   -0.0000 C   0  0  0  0  0  0  0  0  0  0  0  0
    3.8832    2.3386   -0.0000 C   0  0  0  0  0  0  0  0  0  0  0  0
    5.1825    3.1181   -0.0000 C   0  0  0  0  0  0  0  0  0  0  0  0
    5.1680    4.6483   -0.0000 O   0  0  0  0  0  0  0  0  0  0  0  0
    6.4817    2.3819   -0.0000 N   0  0  0  0  0  0  0  0  0  0  0  0
    7.7809    3.1614   -0.0000 C   0  0  0  0  0  0  0  0  0  0  0  0
    6.4673    0.8806   -0.0000 C   0  0  0  0  0  0  0  0  0  0  0  0
    9.0801    2.4108   -0.0000 C   0  0  0  0  0  0  0  0  0  0  0  0
    7.7665    0.1444   -0.0000 C   0  0  0  0  0  0  0  0  0  0  0  0
   10.3794    3.1759   -0.0000 O   0  0  0  0  0  0  0  0  0  0  0  0
    9.0657    0.9095   -0.0000 N   0  0  0  0  0  0  0  0  0  0  0  0
   10.3649    0.1588   -0.0000 C   0  0  0  0  0  0  0  0  0  0  0  0
   10.3505   -1.3425   -0.0000 C   0  0  0  0  0  0  0  0  0  0  0  0
   11.6642    0.9239   -0.0000 C   0  0  0  0  0  0  0  0  0  0  0  0
   11.6497   -2.0932   -0.0000 C   0  0  0  0  0  0  0  0  0  0  0  0
   12.9634    0.1877   -0.0000 C   0  0  0  0  0  0  0  0  0  0  0  0
   12.9489   -1.3281   -0.0000 C   0  0  0  0  0  0  0  0  0  0  0  0
   14.2482   -2.0788   -0.0000 O   0  0  0  0  0  0  0  0  0  0  0  0
   15.5474   -1.2992   -0.0000 C   0  0  0  0  0  0  0  0  0  0  0  0
   16.8466   -2.0499   -0.0000 C   0  0  0  0  0  0  0  0  0  0  0  0
   18.1458   -1.2704   -0.0000 C   0  0  0  0  0  0  0  0  0  0  0  0
   19.4451   -2.0210   -0.0000 N   0  0  0  0  0  0  0  0  0  0  0  0
   19.4306   -3.5223   -0.0000 C   0  0  0  0  0  0  0  0  0  0  0  0
   20.7443   -1.2415   -0.0000 C   0  0  0  0  0  0  0  0  0  0  0  0
   20.7299   -4.2730   -0.0000 C   0  0  0  0  0  0  0  0  0  0  0  0
   22.0435   -1.9921   -0.0000 C   0  0  0  0  0  0  0  0  0  0  0  0
   22.0291   -3.5079   -0.0000 C   0  0  0  0  0  0  0  0  0  0  0  0
   14.5513    4.0420   -0.0000 O   0  0  0  0  0  0  0  0  0  0  0  0
   14.5369    2.6706   -0.0000 C   0  0  0  0  0  0  0  0  0  0  0  0
   15.7206    1.9921   -0.0000 O   0  0  0  0  0  0  0  0  0  0  0  0
  1  2  1  0  0  0  0
  2  3  2  0  0  0  0
  2  4  1  0  0  0  0
  3  5  1  0  0  0  0
  4  6  2  0  0  0  0
  5  7  2  0  0  0  0
  7  8  1  0  0  0  0
  8  9  2  0  0  0  0
  8 10  1  0  0  0  0
 10 11  1  0  0  0  0
 10 12  1  0  0  0  0
 11 13  1  0  0  0  0
 12 14  1  0  0  0  0
 13 15  2  0  0  0  0
 13 16  1  0  0  0  0
 16 17  1  0  0  0  0
 17 18  2  0  0  0  0
 17 19  1  0  0  0  0
 18 20  1  0  0  0  0
 19 21  2  0  0  0  0
 20 22  2  0  0  0  0
 22 23  1  0  0  0  0
 23 24  1  0  0  0  0
 24 25  1  0  0  0  0
 25 26  1  0  0  0  0
 26 27  1  0  0  0  0
 27 28  1  0  0  0  0
 27 29  1  0  0  0  0
 28 30  1  0  0  0  0
 29 31  1  0  0  0  0
 30 32  1  0  0  0  0
 33 34  2  0  0  0  0
 34 35  1  0  0  0  0
  6  7  1  0  0  0  0
 14 16  1  0  0  0  0
 21 22  1  0  0  0  0
 31 32  1  0  0  0  0
M  END
>  <MolRegNo>
405681

>  <m>
=

>  <Value>
1.0e5

>  <Unit>
nM

>  <Type>
IC50

>  <pValue>
4

>  <Ligand Efficiency>
0

>  <Binding Efficiency>
0

>  <Surface Efficiency>
0

>  <Assay Index>
301710

>  <Assay Category>


>  <Assay Organism>
Homo sapiens

>  <Target ID>
17045

>  <Target Name>
Cytochrome P450 3A4

>  <Target Organism>
Homo sapiens

>  <Target Description>
Target is a single protein chain

>  <Sequence Accession>
P08684

>  <Reference>
J Med Chem 50 (26), 6706-6717 (2007)

>  <Pubmed ID>
18052318

>  <DOI>
10.1021/jm0708228

$$$$
405736
Actelion Java MolfileCreator 1.0

 36 38  0  0  0  0  0  0  0  0999 V2000
    0.0000   -0.0000   -0.0000 F   0  0  0  0  0  0  0  0  0  0  0  0
   -1.3240    0.7634   -0.0000 C   0  0  0  0  0  0  0  0  0  0  0  0
   -1.3479    2.2783   -0.0000 C   0  0  0  0  0  0  0  0  0  0  0  0
   -2.6361    0.0119   -0.0000 C   0  0  0  0  0  0  0  0  0  0  0  0
   -0.0477    3.0536   -0.0000 C   0  0  0  0  0  0  0  0  0  0  0  0
   -2.6719    3.0536   -0.0000 C   0  0  0  0  0  0  0  0  0  0  0  0
   -3.9721    0.7753   -0.0000 C   0  0  0  0  0  0  0  0  0  0  0  0
   -0.0596    4.5804   -0.0000 O   0  0  0  0  0  0  0  0  0  0  0  0
    1.2525    2.3141   -0.0000 N   0  0  0  0  0  0  0  0  0  0  0  0
   -3.9960    2.3021   -0.0000 C   0  0  0  0  0  0  0  0  0  0  0  0
   -5.2961    0.0239   -0.0000 F   0  0  0  0  0  0  0  0  0  0  0  0
    2.5407    3.0894   -0.0000 C   0  0  0  0  0  0  0  0  0  0  0  0
    1.2405    0.8111   -0.0000 C   0  0  0  0  0  0  0  0  0  0  0  0
    3.8290    2.3379   -0.0000 C   0  0  0  0  0  0  0  0  0  0  0  0
    2.5288    0.0716   -0.0000 C   0  0  0  0  0  0  0  0  0  0  0  0
    5.1291    3.1013   -0.0000 O   0  0  0  0  0  0  0  0  0  0  0  0
    3.8170    0.8350   -0.0000 N   0  0  0  0  0  0  0  0  0  0  0  0
    5.1053    0.0954   -0.0000 C   0  0  0  0  0  0  0  0  0  0  0  0
    5.0934   -1.4075   -0.0000 C   0  0  0  0  0  0  0  0  0  0  0  0
    6.3935    0.8588   -0.0000 C   0  0  0  0  0  0  0  0  0  0  0  0
    6.3935   -2.1590   -0.0000 C   0  0  0  0  0  0  0  0  0  0  0  0
    7.6937    0.1193   -0.0000 C   0  0  0  0  0  0  0  0  0  0  0  0
    7.6937   -1.3956   -0.0000 C   0  0  0  0  0  0  0  0  0  0  0  0
    8.9939   -2.1352   -0.0000 O   0  0  0  0  0  0  0  0  0  0  0  0
   10.2941   -1.3717   -0.0000 C   0  0  0  0  0  0  0  0  0  0  0  0
   11.5942   -2.1113   -0.0000 C   0  0  0  0  0  0  0  0  0  0  0  0
   12.8944   -1.3479   -0.0000 C   0  0  0  0  0  0  0  0  0  0  0  0
   14.1946   -2.0874   -0.0000 N   0  0  0  0  0  0  0  0  0  0  0  0
   15.5663   -1.4552   -0.0000 C   0  0  0  0  0  0  0  0  0  0  0  0
   14.3497   -3.5785   -0.0000 C   0  0  0  0  0  0  0  0  0  0  0  0
   16.5683   -2.5646   -0.0000 C   0  0  0  0  0  0  0  0  0  0  0  0
   15.8646    0.0358   -0.0000 C   0  0  0  0  0  0  0  0  0  0  0  0
   15.8168   -3.8767   -0.0000 C   0  0  0  0  0  0  0  0  0  0  0  0
   10.7831    4.6759   -0.0000 O   0  0  0  0  0  0  0  0  0  0  0  0
   10.7712    3.3041   -0.0000 C   0  0  0  0  0  0  0  0  0  0  0  0
   11.9521    2.6361   -0.0000 O   0  0  0  0  0  0  0  0  0  0  0  0
  1  2  1  0  0  0  0
  2  3  2  0  0  0  0
  2  4  1  0  0  0  0
  3  5  1  0  0  0  0
  3  6  1  0  0  0  0
  4  7  2  0  0  0  0
  5  8  2  0  0  0  0
  5  9  1  0  0  0  0
  6 10  2  0  0  0  0
  7 11  1  0  0  0  0
  9 12  1  0  0  0  0
  9 13  1  0  0  0  0
 12 14  1  0  0  0  0
 13 15  1  0  0  0  0
 14 16  2  0  0  0  0
 14 17  1  0  0  0  0
 17 18  1  0  0  0  0
 18 19  2  0  0  0  0
 18 20  1  0  0  0  0
 19 21  1  0  0  0  0
 20 22  2  0  0  0  0
 21 23  2  0  0  0  0
 23 24  1  0  0  0  0
 24 25  1  0  0  0  0
 25 26  1  0  0  0  0
 26 27  1  0  0  0  0
 27 28  1  0  0  0  0
 28 29  1  0  0  0  0
 28 30  1  0  0  0  0
 29 31  1  0  0  0  0
 29 32  1  1  0  0  0
 30 33  1  0  0  0  0
 34 35  2  0  0  0  0
 35 36  1  0  0  0  0
  7 10  1  0  0  0  0
 15 17  1  0  0  0  0
 22 23  1  0  0  0  0
 31 33  1  0  0  0  0
M  END
>  <MolRegNo>
405736

>  <m>
=

>  <Value>
1.0e5

>  <Unit>
nM

>  <Type>
IC50

>  <pValue>
4

>  <Ligand Efficiency>
0

>  <Binding Efficiency>
0

>  <Surface Efficiency>
0

>  <Assay Index>
301710

>  <Assay Category>


>  <Assay Organism>
Homo sapiens

>  <Target ID>
17045

>  <Target Name>
Cytochrome P450 3A4

>  <Target Organism>
Homo sapiens

>  <Target Description>
Target is a single protein chain

>  <Sequence Accession>
P08684

>  <Reference>
J Med Chem 50 (26), 6706-6717 (2007)

>  <Pubmed ID>
18052318

>  <DOI>
10.1021/jm0708228

$$$$
411244
Actelion Java MolfileCreator 1.0

 28 30  0  0  0  0  0  0  0  0999 V2000
    0.0000   -0.0000   -0.0000 Cl  0  0  0  0  0  0  0  0  0  0  0  0
   -1.3104    0.7624   -0.0000 C   0  0  0  0  0  0  0  0  0  0  0  0
   -1.3223    2.2754   -0.0000 C   0  0  0  0  0  0  0  0  0  0  0  0
   -2.6209    0.0238   -0.0000 C   0  0  0  0  0  0  0  0  0  0  0  0
   -2.6328    3.0497   -0.0000 C   0  0  0  0  0  0  0  0  0  0  0  0
   -0.0357    3.0378   -0.0000 C   0  0  0  0  0  0  0  0  0  0  0  0
   -3.9432    0.7863   -0.0000 C   0  0  0  0  0  0  0  0  0  0  0  0
   -3.9432    2.3111   -0.0000 C   0  0  0  0  0  0  0  0  0  0  0  0
    1.2509    2.2992   -0.0000 N   0  0  0  0  0  0  0  0  0  0  0  0
    2.5375    3.0616   -0.0000 C   0  0  0  0  0  0  0  0  0  0  0  0
    3.8241    2.3230   -0.0000 N   0  0  0  0  0  0  0  0  0  0  0  0
    2.5255    4.5865   -0.0000 N   0  0  0  0  0  0  0  0  0  0  0  0
    5.1226    3.0855   -0.0000 C   0  0  0  0  0  0  0  0  0  0  0  0
    3.8121    5.3489   -0.0000 C   0  0  0  0  0  0  0  0  0  0  0  0
    6.4092    2.3469   -0.0000 N   0  0  0  0  0  0  0  0  0  0  0  0
    5.1107    4.6103   -0.0000 C   0  0  0  0  0  0  0  0  0  0  0  0
    6.3973    0.8577   -0.0000 C   0  0  0  0  0  0  0  0  0  0  0  0
    6.3973    5.3847   -0.0000 N   0  0  0  0  0  0  0  0  0  0  0  0
    7.6839    0.1191   -0.0000 C   0  0  0  0  0  0  0  0  0  0  0  0
    6.3853    6.8976   -0.0000 O   0  0  0  0  0  0  0  0  0  0  0  0
    7.6839    4.6461   -0.0000 O   0  0  0  0  0  0  0  0  0  0  0  0
    7.6719   -1.3700   -0.0000 C   0  0  0  0  0  0  0  0  0  0  0  0
    8.9705    0.8935   -0.0000 C   0  0  0  0  0  0  0  0  0  0  0  0
    8.9585   -2.1086   -0.0000 C   0  0  0  0  0  0  0  0  0  0  0  0
   10.2571    0.1430   -0.0000 C   0  0  0  0  0  0  0  0  0  0  0  0
   10.2571   -1.3462   -0.0000 C   0  0  0  0  0  0  0  0  0  0  0  0
   11.5437   -2.0848   -0.0000 C   0  0  0  0  0  0  0  0  0  0  0  0
   11.5317   -3.5739   -0.0000 N   0  0  0  0  0  0  0  0  0  0  0  0
  1  2  1  0  0  0  0
  2  3  2  0  0  0  0
  2  4  1  0  0  0  0
  3  5  1  0  0  0  0
  3  6  1  0  0  0  0
  4  7  2  0  0  0  0
  5  8  2  0  0  0  0
  6  9  1  0  0  0  0
  9 10  1  0  0  0  0
 10 11  2  0  0  0  0
 10 12  1  0  0  0  0
 11 13  1  0  0  0  0
 12 14  2  0  0  0  0
 13 15  1  0  0  0  0
 13 16  2  0  0  0  0
 15 17  1  0  0  0  0
 16 18  1  0  0  0  0
 17 19  1  0  0  0  0
 18 20  2  0  0  0  0
 18 21  1  0  0  0  0
 19 22  1  0  0  0  0
 19 23  1  0  0  0  0
 22 24  1  0  0  0  0
 23 25  1  0  0  0  0
 24 26  1  0  0  0  0
 26 27  1  0  0  0  0
 27 28  1  0  0  0  0
  7  8  1  0  0  0  0
 14 16  1  0  0  0  0
 25 26  1  0  0  0  0
M  CHG  2  18   1  21  -1
M  END
>  <MolRegNo>
411244

>  <m>
=

>  <Value>
700

>  <Unit>
nM

>  <Type>
IC50

>  <pValue>
6.16

>  <Ligand Efficiency>
0

>  <Binding Efficiency>
0

>  <Surface Efficiency>
0

>  <Assay Index>
302006

>  <Assay Category>


>  <Assay Organism>


>  <Target ID>
17045

>  <Target Name>
Cytochrome P450 3A4

>  <Target Organism>
Homo sapiens

>  <Target Description>
Target is a single protein chain

>  <Sequence Accession>
P08684

>  <Reference>
Bioorg Med Chem Lett 17 (1), 225-230 (2007)

>  <Pubmed ID>
17055721

>  <DOI>
10.1016/j.bmcl.2006.09.056

$$$$
411340
Actelion Java MolfileCreator 1.0

 26 28  0  0  0  0  0  0  0  0999 V2000
    0.0000   -0.0000   -0.0000 Cl  0  0  0  0  0  0  0  0  0  0  0  0
   -1.3093    0.7617   -0.0000 C   0  0  0  0  0  0  0  0  0  0  0  0
   -1.3212    2.2733   -0.0000 C   0  0  0  0  0  0  0  0  0  0  0  0
   -2.6185    0.0238   -0.0000 C   0  0  0  0  0  0  0  0  0  0  0  0
   -2.6304    3.0470   -0.0000 C   0  0  0  0  0  0  0  0  0  0  0  0
   -0.0357    3.0351   -0.0000 C   0  0  0  0  0  0  0  0  0  0  0  0
   -3.9397    0.7856   -0.0000 C   0  0  0  0  0  0  0  0  0  0  0  0
   -3.9397    2.3090   -0.0000 C   0  0  0  0  0  0  0  0  0  0  0  0
    1.2497    2.2971   -0.0000 N   0  0  0  0  0  0  0  0  0  0  0  0
    2.5352    3.0589   -0.0000 C   0  0  0  0  0  0  0  0  0  0  0  0
    3.8206    2.3209   -0.0000 N   0  0  0  0  0  0  0  0  0  0  0  0
    2.5233    4.5824   -0.0000 N   0  0  0  0  0  0  0  0  0  0  0  0
    5.1180    3.0827   -0.0000 C   0  0  0  0  0  0  0  0  0  0  0  0
    3.8087    5.3441   -0.0000 C   0  0  0  0  0  0  0  0  0  0  0  0
    6.4034    2.3448   -0.0000 N   0  0  0  0  0  0  0  0  0  0  0  0
    5.1061    4.6062   -0.0000 C   0  0  0  0  0  0  0  0  0  0  0  0
    6.3915    0.8570   -0.0000 C   0  0  0  0  0  0  0  0  0  0  0  0
    6.3915    5.3798   -0.0000 N   0  0  0  0  0  0  0  0  0  0  0  0
    7.6770    0.1190   -0.0000 C   0  0  0  0  0  0  0  0  0  0  0  0
    6.3796    6.8914   -0.0000 O   0  0  0  0  0  0  0  0  0  0  0  0
    7.6889    4.6419   -0.0000 O   0  0  0  0  0  0  0  0  0  0  0  0
    7.6651   -1.3688   -0.0000 C   0  0  0  0  0  0  0  0  0  0  0  0
    8.9624    0.8927   -0.0000 C   0  0  0  0  0  0  0  0  0  0  0  0
    8.9505   -2.1067   -0.0000 C   0  0  0  0  0  0  0  0  0  0  0  0
   10.2479    0.1428   -0.0000 C   0  0  0  0  0  0  0  0  0  0  0  0
   10.2479   -1.3450   -0.0000 N   0  0  0  0  0  0  0  0  0  0  0  0
  1  2  1  0  0  0  0
  2  3  2  0  0  0  0
  2  4  1  0  0  0  0
  3  5  1  0  0  0  0
  3  6  1  0  0  0  0
  4  7  2  0  0  0  0
  5  8  2  0  0  0  0
  6  9  1  0  0  0  0
  9 10  1  0  0  0  0
 10 11  2  0  0  0  0
 10 12  1  0  0  0  0
 11 13  1  0  0  0  0
 12 14  2  0  0  0  0
 13 15  1  0  0  0  0
 13 16  2  0  0  0  0
 15 17  1  0  0  0  0
 16 18  1  0  0  0  0
 17 19  1  0  0  0  0
 18 20  2  0  0  0  0
 18 21  1  0  0  0  0
 19 22  1  0  0  0  0
 19 23  1  0  0  0  0
 22 24  1  0  0  0  0
 23 25  1  0  0  0  0
 24 26  1  0  0  0  0
  7  8  1  0  0  0  0
 14 16  1  0  0  0  0
 25 26  1  0  0  0  0
M  CHG  2  18   1  21  -1
M  END
>  <MolRegNo>
411340

>  <m>
=

>  <Value>
28000

>  <Unit>
nM

>  <Type>
IC50

>  <pValue>
4.55

>  <Ligand Efficiency>
0

>  <Binding Efficiency>
0

>  <Surface Efficiency>
0

>  <Assay Index>
302006

>  <Assay Category>


>  <Assay Organism>


>  <Target ID>
17045

>  <Target Name>
Cytochrome P450 3A4

>  <Target Organism>
Homo sapiens

>  <Target Description>
Target is a single protein chain

>  <Sequence Accession>
P08684

>  <Reference>
Bioorg Med Chem Lett 17 (1), 225-230 (2007)

>  <Pubmed ID>
17055721

>  <DOI>
10.1016/j.bmcl.2006.09.056

$$$$
411336
Actelion Java MolfileCreator 1.0

 30 32  0  0  0  0  0  0  0  0999 V2000
    0.0000   -0.0000   -0.0000 Cl  0  0  0  0  0  0  0  0  0  0  0  0
   -1.3105    0.7625   -0.0000 C   0  0  0  0  0  0  0  0  0  0  0  0
   -1.3224    2.2755   -0.0000 C   0  0  0  0  0  0  0  0  0  0  0  0
   -2.6210    0.0238   -0.0000 C   0  0  0  0  0  0  0  0  0  0  0  0
   -2.6329    3.0498   -0.0000 C   0  0  0  0  0  0  0  0  0  0  0  0
   -0.0357    3.0379   -0.0000 C   0  0  0  0  0  0  0  0  0  0  0  0
   -3.9433    0.7863   -0.0000 C   0  0  0  0  0  0  0  0  0  0  0  0
   -3.9433    2.3112   -0.0000 C   0  0  0  0  0  0  0  0  0  0  0  0
    1.2509    2.2993   -0.0000 N   0  0  0  0  0  0  0  0  0  0  0  0
    2.5376    3.0618   -0.0000 C   0  0  0  0  0  0  0  0  0  0  0  0
    3.8242    2.3231   -0.0000 N   0  0  0  0  0  0  0  0  0  0  0  0
    2.5256    4.5867   -0.0000 N   0  0  0  0  0  0  0  0  0  0  0  0
    5.1228    3.0856   -0.0000 C   0  0  0  0  0  0  0  0  0  0  0  0
    3.8123    5.3491   -0.0000 C   0  0  0  0  0  0  0  0  0  0  0  0
    6.4094    2.3469   -0.0000 N   0  0  0  0  0  0  0  0  0  0  0  0
    5.1109    4.6105   -0.0000 C   0  0  0  0  0  0  0  0  0  0  0  0
    6.3975    0.8578   -0.0000 C   0  0  0  0  0  0  0  0  0  0  0  0
    6.3975    5.3849   -0.0000 N   0  0  0  0  0  0  0  0  0  0  0  0
    7.6842    0.1191   -0.0000 C   0  0  0  0  0  0  0  0  0  0  0  0
    6.3856    6.8979   -0.0000 O   0  0  0  0  0  0  0  0  0  0  0  0
    7.6961    4.6462   -0.0000 O   0  0  0  0  0  0  0  0  0  0  0  0
    7.6722   -1.3700   -0.0000 C   0  0  0  0  0  0  0  0  0  0  0  0
    8.9708    0.8935   -0.0000 C   0  0  0  0  0  0  0  0  0  0  0  0
    8.9589   -2.1087   -0.0000 C   0  0  0  0  0  0  0  0  0  0  0  0
   10.2575    0.1430   -0.0000 C   0  0  0  0  0  0  0  0  0  0  0  0
   10.2575   -1.3462   -0.0000 C   0  0  0  0  0  0  0  0  0  0  0  0
   11.5441   -2.0849   -0.0000 C   0  0  0  0  0  0  0  0  0  0  0  0
   11.5322   -3.5740   -0.0000 N   0  0  0  0  0  0  0  0  0  0  0  0
   12.8189   -4.3127   -0.0000 C   0  0  0  0  0  0  0  0  0  0  0  0
   10.2217   -4.3127   -0.0000 C   0  0  0  0  0  0  0  0  0  0  0  0
  1  2  1  0  0  0  0
  2  3  2  0  0  0  0
  2  4  1  0  0  0  0
  3  5  1  0  0  0  0
  3  6  1  0  0  0  0
  4  7  2  0  0  0  0
  5  8  2  0  0  0  0
  6  9  1  0  0  0  0
  9 10  1  0  0  0  0
 10 11  2  0  0  0  0
 10 12  1  0  0  0  0
 11 13  1  0  0  0  0
 12 14  2  0  0  0  0
 13 15  1  0  0  0  0
 13 16  2  0  0  0  0
 15 17  1  0  0  0  0
 16 18  1  0  0  0  0
 17 19  1  0  0  0  0
 18 20  2  0  0  0  0
 18 21  1  0  0  0  0
 19 22  1  0  0  0  0
 19 23  1  0  0  0  0
 22 24  1  0  0  0  0
 23 25  1  0  0  0  0
 24 26  1  0  0  0  0
 26 27  1  0  0  0  0
 27 28  1  0  0  0  0
 28 29  1  0  0  0  0
 28 30  1  0  0  0  0
  7  8  1  0  0  0  0
 14 16  1  0  0  0  0
 25 26  1  0  0  0  0
M  CHG  2  18   1  21  -1
M  END
>  <MolRegNo>
411336

>  <m>
=

>  <Value>
1700

>  <Unit>
nM

>  <Type>
IC50

>  <pValue>
5.77

>  <Ligand Efficiency>
0

>  <Binding Efficiency>
0

>  <Surface Efficiency>
0

>  <Assay Index>
302006

>  <Assay Category>


>  <Assay Organism>


>  <Target ID>
17045

>  <Target Name>
Cytochrome P450 3A4

>  <Target Organism>
Homo sapiens

>  <Target Description>
Target is a single protein chain

>  <Sequence Accession>
P08684

>  <Reference>
Bioorg Med Chem Lett 17 (1), 225-230 (2007)

>  <Pubmed ID>
17055721

>  <DOI>
10.1016/j.bmcl.2006.09.056

$$$$
411266
Actelion Java MolfileCreator 1.0

 29 31  0  0  0  0  0  0  0  0999 V2000
    0.0000   -0.0000   -0.0000 S   0  0  0  0  0  0  0  0  0  0  0  0
   -1.3104    0.7624   -0.0000 C   0  0  0  0  0  0  0  0  0  0  0  0
   -0.0119   -1.4891   -0.0000 C   0  0  0  0  0  0  0  0  0  0  0  0
   -1.3224    2.2754   -0.0000 C   0  0  0  0  0  0  0  0  0  0  0  0
   -2.6209    0.0238   -0.0000 C   0  0  0  0  0  0  0  0  0  0  0  0
   -2.6328    3.0498   -0.0000 C   0  0  0  0  0  0  0  0  0  0  0  0
   -0.0357    3.0378   -0.0000 C   0  0  0  0  0  0  0  0  0  0  0  0
   -3.9432    0.7863   -0.0000 C   0  0  0  0  0  0  0  0  0  0  0  0
   -3.9432    2.3111   -0.0000 C   0  0  0  0  0  0  0  0  0  0  0  0
    1.2509    2.2992   -0.0000 N   0  0  0  0  0  0  0  0  0  0  0  0
    2.5375    3.0617   -0.0000 C   0  0  0  0  0  0  0  0  0  0  0  0
    3.8241    2.3231   -0.0000 N   0  0  0  0  0  0  0  0  0  0  0  0
    2.5256    4.5865   -0.0000 N   0  0  0  0  0  0  0  0  0  0  0  0
    5.1226    3.0855   -0.0000 C   0  0  0  0  0  0  0  0  0  0  0  0
    3.8122    5.3490   -0.0000 C   0  0  0  0  0  0  0  0  0  0  0  0
    6.4092    2.3469   -0.0000 N   0  0  0  0  0  0  0  0  0  0  0  0
    5.1107    4.6104   -0.0000 C   0  0  0  0  0  0  0  0  0  0  0  0
    6.3973    0.8577   -0.0000 C   0  0  0  0  0  0  0  0  0  0  0  0
    6.3973    5.3847   -0.0000 N   0  0  0  0  0  0  0  0  0  0  0  0
    7.6839    0.1191   -0.0000 C   0  0  0  0  0  0  0  0  0  0  0  0
    6.3854    6.8977   -0.0000 O   0  0  0  0  0  0  0  0  0  0  0  0
    7.6959    4.6461   -0.0000 O   0  0  0  0  0  0  0  0  0  0  0  0
    7.6720   -1.3700   -0.0000 C   0  0  0  0  0  0  0  0  0  0  0  0
    8.9706    0.8935   -0.0000 C   0  0  0  0  0  0  0  0  0  0  0  0
    8.9586   -2.1086   -0.0000 C   0  0  0  0  0  0  0  0  0  0  0  0
   10.2572    0.1430   -0.0000 C   0  0  0  0  0  0  0  0  0  0  0  0
   10.2572   -1.3462   -0.0000 C   0  0  0  0  0  0  0  0  0  0  0  0
   11.5438   -2.0848   -0.0000 C   0  0  0  0  0  0  0  0  0  0  0  0
   11.5319   -3.5739   -0.0000 N   0  0  0  0  0  0  0  0  0  0  0  0
  1  2  1  0  0  0  0
  1  3  1  0  0  0  0
  2  4  2  0  0  0  0
  2  5  1  0  0  0  0
  4  6  1  0  0  0  0
  4  7  1  0  0  0  0
  5  8  2  0  0  0  0
  6  9  2  0  0  0  0
  7 10  1  0  0  0  0
 10 11  1  0  0  0  0
 11 12  2  0  0  0  0
 11 13  1  0  0  0  0
 12 14  1  0  0  0  0
 13 15  2  0  0  0  0
 14 16  1  0  0  0  0
 14 17  2  0  0  0  0
 16 18  1  0  0  0  0
 17 19  1  0  0  0  0
 18 20  1  0  0  0  0
 19 21  2  0  0  0  0
 19 22  1  0  0  0  0
 20 23  1  0  0  0  0
 20 24  1  0  0  0  0
 23 25  1  0  0  0  0
 24 26  1  0  0  0  0
 25 27  1  0  0  0  0
 27 28  1  0  0  0  0
 28 29  1  0  0  0  0
  8  9  1  0  0  0  0
 15 17  1  0  0  0  0
 26 27  1  0  0  0  0
M  CHG  2  19   1  22  -1
M  END
>  <MolRegNo>
411266

>  <m>
=

>  <Value>
6900

>  <Unit>
nM

>  <Type>
IC50

>  <pValue>
5.16

>  <Ligand Efficiency>
0

>  <Binding Efficiency>
0

>  <Surface Efficiency>
0

>  <Assay Index>
302006

>  <Assay Category>


>  <Assay Organism>


>  <Target ID>
17045

>  <Target Name>
Cytochrome P450 3A4

>  <Target Organism>
Homo sapiens

>  <Target Description>
Target is a single protein chain

>  <Sequence Accession>
P08684

>  <Reference>
Bioorg Med Chem Lett 17 (1), 225-230 (2007)

>  <Pubmed ID>
17055721

>  <DOI>
10.1016/j.bmcl.2006.09.056

$$$$
409879
Actelion Java MolfileCreator 1.0

 31 33  0  0  0  0  0  0  0  0999 V2000
    0.0000   -0.0000   -0.0000 Cl  0  0  0  0  0  0  0  0  0  0  0  0
   -1.2909   -0.7580   -0.0000 C   0  0  0  0  0  0  0  0  0  0  0  0
   -2.6055   -0.0237   -0.0000 C   0  0  0  0  0  0  0  0  0  0  0  0
   -1.2791   -2.2502   -0.0000 C   0  0  0  0  0  0  0  0  0  0  0  0
   -3.8964   -0.7698   -0.0000 C   0  0  0  0  0  0  0  0  0  0  0  0
   -2.5818   -2.9963   -0.0000 C   0  0  0  0  0  0  0  0  0  0  0  0
   -3.8964   -2.2502   -0.0000 C   0  0  0  0  0  0  0  0  0  0  0  0
   -5.1992   -2.9963   -0.0000 C   0  0  0  0  0  0  0  0  0  0  0  0
   -6.5138   -2.2502   -0.0000 N   0  0  0  0  0  0  0  0  0  0  0  0
   -7.8165   -2.9963   -0.0000 C   0  0  0  0  0  0  0  0  0  0  0  0
   -7.8165   -4.4767   -0.0000 O   0  0  0  0  0  0  0  0  0  0  0  0
   -9.1311   -2.2502   -0.0000 C   0  0  0  0  0  0  0  0  0  0  0  0
  -10.4339   -2.9963   -0.0000 N   0  0  0  0  0  0  0  0  0  0  0  0
  -11.7485   -2.2502   -0.0000 S   0  0  0  0  0  0  0  0  0  0  0  0
  -10.4339   -4.4767   -0.0000 C   0  0  0  0  0  0  0  0  0  0  0  0
  -11.0379   -0.9356   -0.0000 O   0  0  0  0  0  0  0  0  0  0  0  0
  -12.4827   -3.5530   -0.0000 O   0  0  0  0  0  0  0  0  0  0  0  0
  -13.0749   -1.5159   -0.0000 C   0  0  0  0  0  0  0  0  0  0  0  0
  -11.7366   -5.2229   -0.0000 C   0  0  0  0  0  0  0  0  0  0  0  0
   -9.1430   -5.1873   -0.0000 C   0  0  0  0  0  0  0  0  0  0  0  0
  -14.3658   -2.2739   -0.0000 C   0  0  0  0  0  0  0  0  0  0  0  0
  -13.1223   -0.0000   -0.0000 C   0  0  0  0  0  0  0  0  0  0  0  0
  -11.7366   -6.7033   -0.0000 C   0  0  0  0  0  0  0  0  0  0  0  0
  -13.0512   -4.4767   -0.0000 C   0  0  0  0  0  0  0  0  0  0  0  0
   -9.1311   -6.6677   -0.0000 C   0  0  0  0  0  0  0  0  0  0  0  0
  -15.6922   -1.5396   -0.0000 C   0  0  0  0  0  0  0  0  0  0  0  0
  -14.4606    0.7343   -0.0000 C   0  0  0  0  0  0  0  0  0  0  0  0
  -10.4457   -7.4257   -0.0000 C   0  0  0  0  0  0  0  0  0  0  0  0
  -14.3540   -5.2229   -0.0000 C   0  0  0  0  0  0  0  0  0  0  0  0
  -15.7396   -0.0355   -0.0000 C   0  0  0  0  0  0  0  0  0  0  0  0
  -17.0661    0.6987   -0.0000 C   0  0  0  0  0  0  0  0  0  0  0  0
  1  2  1  0  0  0  0
  2  3  2  0  0  0  0
  2  4  1  0  0  0  0
  3  5  1  0  0  0  0
  4  6  2  0  0  0  0
  5  7  2  0  0  0  0
  7  8  1  0  0  0  0
  8  9  1  0  0  0  0
  9 10  1  0  0  0  0
 10 11  2  0  0  0  0
 10 12  1  0  0  0  0
 12 13  1  0  0  0  0
 13 14  1  0  0  0  0
 13 15  1  0  0  0  0
 14 16  2  0  0  0  0
 14 17  2  0  0  0  0
 14 18  1  0  0  0  0
 15 19  2  0  0  0  0
 15 20  1  0  0  0  0
 18 21  2  0  0  0  0
 18 22  1  0  0  0  0
 19 23  1  0  0  0  0
 19 24  1  0  0  0  0
 20 25  2  0  0  0  0
 21 26  1  0  0  0  0
 22 27  2  0  0  0  0
 23 28  2  0  0  0  0
 24 29  1  0  0  0  0
 26 30  2  0  0  0  0
 30 31  1  0  0  0  0
  6  7  1  0  0  0  0
 25 28  1  0  0  0  0
 27 30  1  0  0  0  0
M  END
>  <MolRegNo>
409879

>  <m>
=

>  <Value>
251.19

>  <Unit>
nM

>  <Type>
IC50

>  <pValue>
6.6

>  <Ligand Efficiency>
0

>  <Binding Efficiency>
0

>  <Surface Efficiency>
0

>  <Assay Index>
302975

>  <Assay Category>


>  <Assay Organism>


>  <Target ID>
17045

>  <Target Name>
Cytochrome P450 3A4

>  <Target Organism>
Homo sapiens

>  <Target Description>
Target is a single protein chain

>  <Sequence Accession>
P08684

>  <Reference>
Bioorg Med Chem Lett 17 (6), 1750-1754 (2007)

>  <Pubmed ID>
17236765

>  <DOI>
10.1016/j.bmcl.2006.12.060

$$$$
410036
Actelion Java MolfileCreator 1.0

 26 29  0  0  1  0  0  0  0  0999 V2000
    0.0000   -0.0000   -0.0000 Cl  0  0  0  0  0  0  0  0  0  0  0  0
   -0.0119    1.5059   -0.0000 C   0  0  0  0  0  0  0  0  0  0  0  0
   -1.3281    2.2648   -0.0000 C   0  0  0  0  0  0  0  0  0  0  0  0
    1.2688    2.2648   -0.0000 C   0  0  0  0  0  0  0  0  0  0  0  0
   -1.3399    3.7589   -0.0000 C   0  0  0  0  0  0  0  0  0  0  0  0
   -2.6324    1.5296   -0.0000 C   0  0  0  0  0  0  0  0  0  0  0  0
    1.2569    3.7707   -0.0000 C   0  0  0  0  0  0  0  0  0  0  0  0
   -0.0593    4.5177   -0.0000 C   0  0  0  0  0  0  0  0  0  0  0  0
   -2.6442    0.0474   -0.0000 O   0  0  0  0  0  0  0  0  0  0  0  0
   -3.9367    2.2885   -0.0000 C   0  0  0  0  0  0  0  0  0  0  0  0
   -3.9486    3.7944   -0.0000 O   0  0  0  0  0  0  0  0  0  0  0  0
   -5.2411    1.5533   -0.0000 N   0  0  0  0  0  0  0  0  0  0  0  0
   -5.2529    0.0711   -0.0000 C   0  0  0  0  0  0  0  0  0  0  0  0
   -6.5454    2.3122   -0.0000 C   0  0  0  0  0  0  0  0  0  0  0  0
   -6.5573   -0.6640   -0.0000 C   0  0  0  0  0  0  0  0  0  0  0  0
   -7.8497    1.5771   -0.0000 C   0  0  0  0  0  0  0  0  0  0  0  0
   -7.8616    0.0949   -0.0000 N   0  0  0  0  0  0  0  0  0  0  0  0
   -9.1659   -0.6403   -0.0000 C   0  0  0  0  0  0  0  0  0  0  0  0
  -10.4821    0.1067   -0.0000 C   0  0  0  0  0  0  0  0  0  0  0  0
   -9.1778   -2.1344   -0.0000 C   0  0  0  0  0  0  0  0  0  0  0  0
  -11.7746   -0.6285   -0.0000 C   0  0  0  0  0  0  0  0  0  0  0  0
  -10.4940   -2.8695   -0.0000 C   0  0  0  0  0  0  0  0  0  0  0  0
  -11.7865   -2.1225   -0.0000 C   0  0  0  0  0  0  0  0  0  0  0  0
  -13.2094   -0.1541   -0.0000 C   0  0  0  0  0  0  0  0  0  0  0  0
  -13.2331   -2.5731   -0.0000 N   0  0  0  0  0  0  0  0  0  0  0  0
  -14.1106   -1.3518   -0.0000 N   0  0  0  0  0  0  0  0  0  0  0  0
  1  2  1  0  0  0  0
  2  3  2  0  0  0  0
  2  4  1  0  0  0  0
  3  5  1  0  0  0  0
  3  6  1  0  0  0  0
  4  7  2  0  0  0  0
  5  8  2  0  0  0  0
  6  9  1  1  0  0  0
  6 10  1  0  0  0  0
 10 11  2  0  0  0  0
 10 12  1  0  0  0  0
 12 13  1  0  0  0  0
 12 14  1  0  0  0  0
 13 15  1  0  0  0  0
 14 16  1  0  0  0  0
 15 17  1  0  0  0  0
 17 18  1  0  0  0  0
 18 19  2  0  0  0  0
 18 20  1  0  0  0  0
 19 21  1  0  0  0  0
 20 22  2  0  0  0  0
 21 23  2  0  0  0  0
 21 24  1  0  0  0  0
 23 25  1  0  0  0  0
 24 26  2  0  0  0  0
  7  8  1  0  0  0  0
 16 17  1  0  0  0  0
 22 23  1  0  0  0  0
 25 26  1  0  0  0  0
M  END
>  <MolRegNo>
410036

>  <m>
=

>  <Value>
8000

>  <Unit>
nM

>  <Type>
IC50

>  <pValue>
5.1

>  <Ligand Efficiency>
0

>  <Binding Efficiency>
0

>  <Surface Efficiency>
0

>  <Assay Index>
303956

>  <Assay Category>


>  <Assay Organism>


>  <Target ID>
17045

>  <Target Name>
Cytochrome P450 3A4

>  <Target Organism>
Homo sapiens

>  <Target Description>
Target is a single protein chain

>  <Sequence Accession>
P08684

>  <Reference>
Bioorg Med Chem Lett 17 (8), 2355-2360 (2007)

>  <Pubmed ID>
17368019

>  <DOI>
10.1016/j.bmcl.2006.12.043

$$$$
410074
Actelion Java MolfileCreator 1.0

 27 30  0  0  0  0  0  0  0  0999 V2000
    0.0000   -0.0000   -0.0000 Br  0  0  0  0  0  0  0  0  0  0  0  0
   -1.3004    0.7566   -0.0000 C   0  0  0  0  0  0  0  0  0  0  0  0
   -2.6126    0.0236   -0.0000 C   0  0  0  0  0  0  0  0  0  0  0  0
   -1.3122    2.2698   -0.0000 C   0  0  0  0  0  0  0  0  0  0  0  0
   -3.9130    0.7802   -0.0000 C   0  0  0  0  0  0  0  0  0  0  0  0
   -2.6126    3.0264   -0.0000 C   0  0  0  0  0  0  0  0  0  0  0  0
   -3.9130    2.2816   -0.0000 C   0  0  0  0  0  0  0  0  0  0  0  0
   -5.2134    3.0382   -0.0000 C   0  0  0  0  0  0  0  0  0  0  0  0
   -5.2253    4.5396   -0.0000 N   0  0  0  0  0  0  0  0  0  0  0  0
   -6.5138    2.3053   -0.0000 C   0  0  0  0  0  0  0  0  0  0  0  0
   -6.5257    0.8275   -0.0000 O   0  0  0  0  0  0  0  0  0  0  0  0
   -7.8143    3.0619   -0.0000 N   0  0  0  0  0  0  0  0  0  0  0  0
   -9.1265    2.3289   -0.0000 C   0  0  0  0  0  0  0  0  0  0  0  0
   -7.8261    4.5632   -0.0000 C   0  0  0  0  0  0  0  0  0  0  0  0
  -10.4269    3.0855   -0.0000 C   0  0  0  0  0  0  0  0  0  0  0  0
   -9.1265    5.3317   -0.0000 C   0  0  0  0  0  0  0  0  0  0  0  0
  -10.4269    4.5869   -0.0000 C   0  0  0  0  0  0  0  0  0  0  0  0
  -11.7273    5.3435   -0.0000 N   0  0  0  0  0  0  0  0  0  0  0  0
  -13.0277    4.6105   -0.0000 C   0  0  0  0  0  0  0  0  0  0  0  0
  -14.3399    5.3553   -0.0000 C   0  0  0  0  0  0  0  0  0  0  0  0
  -13.0395    3.1210   -0.0000 C   0  0  0  0  0  0  0  0  0  0  0  0
  -15.6285    4.6224   -0.0000 C   0  0  0  0  0  0  0  0  0  0  0  0
  -14.3517    2.3880   -0.0000 C   0  0  0  0  0  0  0  0  0  0  0  0
  -15.6403    3.1328   -0.0000 C   0  0  0  0  0  0  0  0  0  0  0  0
  -17.0590    5.0952   -0.0000 C   0  0  0  0  0  0  0  0  0  0  0  0
  -17.0826    2.6836   -0.0000 N   0  0  0  0  0  0  0  0  0  0  0  0
  -17.9574    3.9012   -0.0000 N   0  0  0  0  0  0  0  0  0  0  0  0
  1  2  1  0  0  0  0
  2  3  2  0  0  0  0
  2  4  1  0  0  0  0
  3  5  1  0  0  0  0
  4  6  2  0  0  0  0
  5  7  2  0  0  0  0
  7  8  1  0  0  0  0
  8  9  1  0  0  0  0
  8 10  1  0  0  0  0
 10 11  2  0  0  0  0
 10 12  1  0  0  0  0
 12 13  1  0  0  0  0
 12 14  1  0  0  0  0
 13 15  1  0  0  0  0
 14 16  1  0  0  0  0
 15 17  1  0  0  0  0
 17 18  1  0  0  0  0
 18 19  1  0  0  0  0
 19 20  2  0  0  0  0
 19 21  1  0  0  0  0
 20 22  1  0  0  0  0
 21 23  2  0  0  0  0
 22 24  2  0  0  0  0
 22 25  1  0  0  0  0
 24 26  1  0  0  0  0
 25 27  2  0  0  0  0
  6  7  1  0  0  0  0
 16 17  1  0  0  0  0
 23 24  1  0  0  0  0
 26 27  1  0  0  0  0
M  END
>  <MolRegNo>
410074

>  <m>
=

>  <Value>
490

>  <Unit>
nM

>  <Type>
IC50

>  <pValue>
6.31

>  <Ligand Efficiency>
0

>  <Binding Efficiency>
0

>  <Surface Efficiency>
0

>  <Assay Index>
303956

>  <Assay Category>


>  <Assay Organism>


>  <Target ID>
17045

>  <Target Name>
Cytochrome P450 3A4

>  <Target Organism>
Homo sapiens

>  <Target Description>
Target is a single protein chain

>  <Sequence Accession>
P08684

>  <Reference>
Bioorg Med Chem Lett 17 (8), 2355-2360 (2007)

>  <Pubmed ID>
17368019

>  <DOI>
10.1016/j.bmcl.2006.12.043

$$$$
410073
Actelion Java MolfileCreator 1.0

 27 30  0  0  0  0  0  0  0  0999 V2000
    0.0000   -0.0000   -0.0000 Cl  0  0  0  0  0  0  0  0  0  0  0  0
   -1.3030   -0.7344   -0.0000 C   0  0  0  0  0  0  0  0  0  0  0  0
   -2.6061    0.0237   -0.0000 C   0  0  0  0  0  0  0  0  0  0  0  0
   -1.3149   -2.2270   -0.0000 C   0  0  0  0  0  0  0  0  0  0  0  0
   -3.8973   -0.7107   -0.0000 C   0  0  0  0  0  0  0  0  0  0  0  0
   -2.6298   -2.9614   -0.0000 C   0  0  0  0  0  0  0  0  0  0  0  0
   -3.9209   -2.1915   -0.0000 C   0  0  0  0  0  0  0  0  0  0  0  0
   -5.2003    0.0474   -0.0000 C   0  0  0  0  0  0  0  0  0  0  0  0
   -5.2121    1.5518   -0.0000 N   0  0  0  0  0  0  0  0  0  0  0  0
   -6.5033   -0.6871   -0.0000 C   0  0  0  0  0  0  0  0  0  0  0  0
   -6.5152   -2.1678   -0.0000 O   0  0  0  0  0  0  0  0  0  0  0  0
   -7.8064    0.0711   -0.0000 N   0  0  0  0  0  0  0  0  0  0  0  0
   -9.1212   -0.6515   -0.0000 C   0  0  0  0  0  0  0  0  0  0  0  0
   -7.8182    1.5755   -0.0000 C   0  0  0  0  0  0  0  0  0  0  0  0
  -10.4243    0.1066   -0.0000 C   0  0  0  0  0  0  0  0  0  0  0  0
   -9.1212    2.3455   -0.0000 C   0  0  0  0  0  0  0  0  0  0  0  0
  -10.4243    1.6110   -0.0000 C   0  0  0  0  0  0  0  0  0  0  0  0
  -11.7273    2.3692   -0.0000 N   0  0  0  0  0  0  0  0  0  0  0  0
  -13.0303    1.6347   -0.0000 C   0  0  0  0  0  0  0  0  0  0  0  0
  -14.3452    2.3810   -0.0000 C   0  0  0  0  0  0  0  0  0  0  0  0
  -13.0422    0.1421   -0.0000 C   0  0  0  0  0  0  0  0  0  0  0  0
  -15.6364    1.6466   -0.0000 C   0  0  0  0  0  0  0  0  0  0  0  0
  -14.3571   -0.5923   -0.0000 C   0  0  0  0  0  0  0  0  0  0  0  0
  -15.6482    0.1540   -0.0000 C   0  0  0  0  0  0  0  0  0  0  0  0
  -17.0697    2.1204   -0.0000 C   0  0  0  0  0  0  0  0  0  0  0  0
  -17.0934   -0.2961   -0.0000 N   0  0  0  0  0  0  0  0  0  0  0  0
  -17.9700    0.9240   -0.0000 N   0  0  0  0  0  0  0  0  0  0  0  0
  1  2  1  0  0  0  0
  2  3  2  0  0  0  0
  2  4  1  0  0  0  0
  3  5  1  0  0  0  0
  4  6  2  0  0  0  0
  5  7  2  0  0  0  0
  5  8  1  0  0  0  0
  8  9  1  0  0  0  0
  8 10  1  0  0  0  0
 10 11  2  0  0  0  0
 10 12  1  0  0  0  0
 12 13  1  0  0  0  0
 12 14  1  0  0  0  0
 13 15  1  0  0  0  0
 14 16  1  0  0  0  0
 15 17  1  0  0  0  0
 17 18  1  0  0  0  0
 18 19  1  0  0  0  0
 19 20  2  0  0  0  0
 19 21  1  0  0  0  0
 20 22  1  0  0  0  0
 21 23  2  0  0  0  0
 22 24  2  0  0  0  0
 22 25  1  0  0  0  0
 24 26  1  0  0  0  0
 25 27  2  0  0  0  0
  6  7  1  0  0  0  0
 16 17  1  0  0  0  0
 23 24  1  0  0  0  0
 26 27  1  0  0  0  0
M  END
>  <MolRegNo>
410073

>  <m>
=

>  <Value>
170

>  <Unit>
nM

>  <Type>
IC50

>  <pValue>
6.77

>  <Ligand Efficiency>
0

>  <Binding Efficiency>
0

>  <Surface Efficiency>
0

>  <Assay Index>
303956

>  <Assay Category>


>  <Assay Organism>


>  <Target ID>
17045

>  <Target Name>
Cytochrome P450 3A4

>  <Target Organism>
Homo sapiens

>  <Target Description>
Target is a single protein chain

>  <Sequence Accession>
P08684

>  <Reference>
Bioorg Med Chem Lett 17 (8), 2355-2360 (2007)

>  <Pubmed ID>
17368019

>  <DOI>
10.1016/j.bmcl.2006.12.043

$$$$
410072
Actelion Java MolfileCreator 1.0

 27 30  0  0  1  0  0  0  0  0999 V2000
    0.0000   -0.0000   -0.0000 O   0  0  0  0  0  0  0  0  0  0  0  0
   -0.0119    1.5066   -0.0000 C   0  0  0  0  0  0  0  0  0  0  0  0
   -1.3168    2.2658   -0.0000 N   0  0  0  0  0  0  0  0  0  0  0  0
    1.2693    2.2658   -0.0000 C   0  0  0  0  0  0  0  0  0  0  0  0
   -2.6335    1.5421   -0.0000 C   0  0  0  0  0  0  0  0  0  0  0  0
   -1.3286    3.7723   -0.0000 C   0  0  0  0  0  0  0  0  0  0  0  0
    1.2574    3.7723   -0.0000 N   0  0  0  0  0  0  0  0  0  0  0  0
    2.5505    1.5303   -0.0000 C   0  0  0  0  0  0  0  0  0  0  0  0
   -3.9384    2.3014   -0.0000 C   0  0  0  0  0  0  0  0  0  0  0  0
   -2.6335    4.5434   -0.0000 C   0  0  0  0  0  0  0  0  0  0  0  0
    3.8316    2.2895   -0.0000 C   0  0  0  0  0  0  0  0  0  0  0  0
   -3.9384    3.8079   -0.0000 C   0  0  0  0  0  0  0  0  0  0  0  0
    5.1128    1.5421   -0.0000 C   0  0  0  0  0  0  0  0  0  0  0  0
    3.8198    3.7842   -0.0000 C   0  0  0  0  0  0  0  0  0  0  0  0
   -5.2433    4.5671   -0.0000 N   0  0  0  0  0  0  0  0  0  0  0  0
    6.3940    2.3014   -0.0000 C   0  0  0  0  0  0  0  0  0  0  0  0
    5.1009    4.5434   -0.0000 C   0  0  0  0  0  0  0  0  0  0  0  0
   -6.5482    3.8316   -0.0000 C   0  0  0  0  0  0  0  0  0  0  0  0
    6.3940    3.8079   -0.0000 C   0  0  0  0  0  0  0  0  0  0  0  0
   -7.8649    4.5790   -0.0000 C   0  0  0  0  0  0  0  0  0  0  0  0
   -6.5601    2.3369   -0.0000 C   0  0  0  0  0  0  0  0  0  0  0  0
   -9.1580    3.8435   -0.0000 C   0  0  0  0  0  0  0  0  0  0  0  0
   -7.8768    1.6015   -0.0000 C   0  0  0  0  0  0  0  0  0  0  0  0
   -9.1698    2.3488   -0.0000 C   0  0  0  0  0  0  0  0  0  0  0  0
  -10.5934    4.3180   -0.0000 C   0  0  0  0  0  0  0  0  0  0  0  0
  -10.6171    1.8980   -0.0000 N   0  0  0  0  0  0  0  0  0  0  0  0
  -11.4949    3.1199   -0.0000 N   0  0  0  0  0  0  0  0  0  0  0  0
  1  2  2  0  0  0  0
  2  3  1  0  0  0  0
  2  4  1  0  0  0  0
  3  5  1  0  0  0  0
  3  6  1  0  0  0  0
  4  7  1  1  0  0  0
  4  8  1  0  0  0  0
  5  9  1  0  0  0  0
  6 10  1  0  0  0  0
  8 11  1  0  0  0  0
  9 12  1  0  0  0  0
 11 13  2  0  0  0  0
 11 14  1  0  0  0  0
 12 15  1  0  0  0  0
 13 16  1  0  0  0  0
 14 17  2  0  0  0  0
 15 18  1  0  0  0  0
 16 19  2  0  0  0  0
 18 20  2  0  0  0  0
 18 21  1  0  0  0  0
 20 22  1  0  0  0  0
 21 23  2  0  0  0  0
 22 24  2  0  0  0  0
 22 25  1  0  0  0  0
 24 26  1  0  0  0  0
 25 27  2  0  0  0  0
 10 12  1  0  0  0  0
 17 19  1  0  0  0  0
 23 24  1  0  0  0  0
 26 27  1  0  0  0  0
M  END
>  <MolRegNo>
410072

>  <m>
=

>  <Value>
1000

>  <Unit>
nM

>  <Type>
IC50

>  <pValue>
6

>  <Ligand Efficiency>
0

>  <Binding Efficiency>
0

>  <Surface Efficiency>
0

>  <Assay Index>
303956

>  <Assay Category>


>  <Assay Organism>


>  <Target ID>
17045

>  <Target Name>
Cytochrome P450 3A4

>  <Target Organism>
Homo sapiens

>  <Target Description>
Target is a single protein chain

>  <Sequence Accession>
P08684

>  <Reference>
Bioorg Med Chem Lett 17 (8), 2355-2360 (2007)

>  <Pubmed ID>
17368019

>  <DOI>
10.1016/j.bmcl.2006.12.043

$$$$
410071
Actelion Java MolfileCreator 1.0

 26 29  0  0  1  0  0  0  0  0999 V2000
    0.0000   -0.0000   -0.0000 O   0  0  0  0  0  0  0  0  0  0  0  0
   -0.0119    1.5080   -0.0000 C   0  0  0  0  0  0  0  0  0  0  0  0
   -1.3180    2.2679   -0.0000 N   0  0  0  0  0  0  0  0  0  0  0  0
    1.2705    2.2679   -0.0000 C   0  0  0  0  0  0  0  0  0  0  0  0
   -2.6360    1.5436   -0.0000 C   0  0  0  0  0  0  0  0  0  0  0  0
   -1.3299    3.7759   -0.0000 C   0  0  0  0  0  0  0  0  0  0  0  0
    1.2586    3.7759   -0.0000 N   0  0  0  0  0  0  0  0  0  0  0  0
    2.5529    1.5317   -0.0000 C   0  0  0  0  0  0  0  0  0  0  0  0
   -3.9421    2.3035   -0.0000 C   0  0  0  0  0  0  0  0  0  0  0  0
   -2.6360    4.5477   -0.0000 C   0  0  0  0  0  0  0  0  0  0  0  0
    2.5291    0.0475   -0.0000 C   0  0  0  0  0  0  0  0  0  0  0  0
    3.8234    2.2916   -0.0000 C   0  0  0  0  0  0  0  0  0  0  0  0
   -3.9421    3.8115   -0.0000 C   0  0  0  0  0  0  0  0  0  0  0  0
    3.8115   -0.6887   -0.0000 C   0  0  0  0  0  0  0  0  0  0  0  0
    5.1057    1.5555   -0.0000 C   0  0  0  0  0  0  0  0  0  0  0  0
   -5.2482    4.5714   -0.0000 N   0  0  0  0  0  0  0  0  0  0  0  0
    5.1057    0.0712   -0.0000 C   0  0  0  0  0  0  0  0  0  0  0  0
   -6.5543    3.8352   -0.0000 C   0  0  0  0  0  0  0  0  0  0  0  0
   -7.8723    4.5833   -0.0000 C   0  0  0  0  0  0  0  0  0  0  0  0
   -6.5662    2.3391   -0.0000 C   0  0  0  0  0  0  0  0  0  0  0  0
   -9.1666    3.8471   -0.0000 C   0  0  0  0  0  0  0  0  0  0  0  0
   -7.8842    1.6030   -0.0000 C   0  0  0  0  0  0  0  0  0  0  0  0
   -9.1785    2.3510   -0.0000 C   0  0  0  0  0  0  0  0  0  0  0  0
  -10.6033    4.3221   -0.0000 C   0  0  0  0  0  0  0  0  0  0  0  0
  -10.6271    1.8998   -0.0000 N   0  0  0  0  0  0  0  0  0  0  0  0
  -11.5057    3.1228   -0.0000 N   0  0  0  0  0  0  0  0  0  0  0  0
  1  2  2  0  0  0  0
  2  3  1  0  0  0  0
  2  4  1  0  0  0  0
  3  5  1  0  0  0  0
  3  6  1  0  0  0  0
  4  7  1  1  0  0  0
  4  8  1  0  0  0  0
  5  9  1  0  0  0  0
  6 10  1  0  0  0  0
  8 11  2  0  0  0  0
  8 12  1  0  0  0  0
  9 13  1  0  0  0  0
 11 14  1  0  0  0  0
 12 15  2  0  0  0  0
 13 16  1  0  0  0  0
 14 17  2  0  0  0  0
 16 18  1  0  0  0  0
 18 19  2  0  0  0  0
 18 20  1  0  0  0  0
 19 21  1  0  0  0  0
 20 22  2  0  0  0  0
 21 23  2  0  0  0  0
 21 24  1  0  0  0  0
 23 25  1  0  0  0  0
 24 26  2  0  0  0  0
 10 13  1  0  0  0  0
 15 17  1  0  0  0  0
 22 23  1  0  0  0  0
 25 26  1  0  0  0  0
M  END
>  <MolRegNo>
410071

>  <m>
=

>  <Value>
450

>  <Unit>
nM

>  <Type>
IC50

>  <pValue>
6.35

>  <Ligand Efficiency>
0

>  <Binding Efficiency>
0

>  <Surface Efficiency>
0

>  <Assay Index>
303956

>  <Assay Category>


>  <Assay Organism>


>  <Target ID>
17045

>  <Target Name>
Cytochrome P450 3A4

>  <Target Organism>
Homo sapiens

>  <Target Description>
Target is a single protein chain

>  <Sequence Accession>
P08684

>  <Reference>
Bioorg Med Chem Lett 17 (8), 2355-2360 (2007)

>  <Pubmed ID>
17368019

>  <DOI>
10.1016/j.bmcl.2006.12.043

$$$$
410069
Actelion Java MolfileCreator 1.0

 27 30  0  0  0  0  0  0  0  0999 V2000
    0.0000   -0.0000   -0.0000 Br  0  0  0  0  0  0  0  0  0  0  0  0
   -1.3068   -0.7299   -0.0000 C   0  0  0  0  0  0  0  0  0  0  0  0
   -2.6135    0.0235   -0.0000 C   0  0  0  0  0  0  0  0  0  0  0  0
   -1.3185   -2.2133   -0.0000 C   0  0  0  0  0  0  0  0  0  0  0  0
   -3.9203   -0.7064   -0.0000 C   0  0  0  0  0  0  0  0  0  0  0  0
   -2.6253   -2.9432   -0.0000 C   0  0  0  0  0  0  0  0  0  0  0  0
   -3.9321   -2.1897   -0.0000 C   0  0  0  0  0  0  0  0  0  0  0  0
   -5.2388   -2.9196   -0.0000 C   0  0  0  0  0  0  0  0  0  0  0  0
   -6.5456   -2.1662   -0.0000 O   0  0  0  0  0  0  0  0  0  0  0  0
   -5.2506   -4.4030   -0.0000 C   0  0  0  0  0  0  0  0  0  0  0  0
   -3.9674   -5.1329   -0.0000 O   0  0  0  0  0  0  0  0  0  0  0  0
   -6.5574   -5.1329   -0.0000 N   0  0  0  0  0  0  0  0  0  0  0  0
   -6.5691   -6.6162   -0.0000 C   0  0  0  0  0  0  0  0  0  0  0  0
   -7.8641   -4.3794   -0.0000 C   0  0  0  0  0  0  0  0  0  0  0  0
   -7.8759   -7.3579   -0.0000 C   0  0  0  0  0  0  0  0  0  0  0  0
   -9.1709   -5.1093   -0.0000 C   0  0  0  0  0  0  0  0  0  0  0  0
   -9.1827   -6.6044   -0.0000 C   0  0  0  0  0  0  0  0  0  0  0  0
  -10.4894   -7.3461   -0.0000 N   0  0  0  0  0  0  0  0  0  0  0  0
  -11.7962   -6.5927   -0.0000 C   0  0  0  0  0  0  0  0  0  0  0  0
  -13.1029   -7.3344   -0.0000 C   0  0  0  0  0  0  0  0  0  0  0  0
  -11.8080   -5.0858   -0.0000 C   0  0  0  0  0  0  0  0  0  0  0  0
  -14.4097   -6.5809   -0.0000 C   0  0  0  0  0  0  0  0  0  0  0  0
  -13.1147   -4.3323   -0.0000 C   0  0  0  0  0  0  0  0  0  0  0  0
  -14.4215   -5.0740   -0.0000 C   0  0  0  0  0  0  0  0  0  0  0  0
  -15.8460   -7.0283   -0.0000 C   0  0  0  0  0  0  0  0  0  0  0  0
  -15.8577   -4.6031   -0.0000 N   0  0  0  0  0  0  0  0  0  0  0  0
  -16.7407   -5.8039   -0.0000 N   0  0  0  0  0  0  0  0  0  0  0  0
  1  2  1  0  0  0  0
  2  3  2  0  0  0  0
  2  4  1  0  0  0  0
  3  5  1  0  0  0  0
  4  6  2  0  0  0  0
  5  7  2  0  0  0  0
  7  8  1  0  0  0  0
  8  9  1  0  0  0  0
  8 10  1  0  0  0  0
 10 11  2  0  0  0  0
 10 12  1  0  0  0  0
 12 13  1  0  0  0  0
 12 14  1  0  0  0  0
 13 15  1  0  0  0  0
 14 16  1  0  0  0  0
 15 17  1  0  0  0  0
 17 18  1  0  0  0  0
 18 19  1  0  0  0  0
 19 20  2  0  0  0  0
 19 21  1  0  0  0  0
 20 22  1  0  0  0  0
 21 23  2  0  0  0  0
 22 24  2  0  0  0  0
 22 25  1  0  0  0  0
 24 26  1  0  0  0  0
 25 27  2  0  0  0  0
  6  7  1  0  0  0  0
 16 17  1  0  0  0  0
 23 24  1  0  0  0  0
 26 27  1  0  0  0  0
M  END
>  <MolRegNo>
410069

>  <m>
=

>  <Value>
3500

>  <Unit>
nM

>  <Type>
IC50

>  <pValue>
5.46

>  <Ligand Efficiency>
0

>  <Binding Efficiency>
0

>  <Surface Efficiency>
0

>  <Assay Index>
303956

>  <Assay Category>


>  <Assay Organism>


>  <Target ID>
17045

>  <Target Name>
Cytochrome P450 3A4

>  <Target Organism>
Homo sapiens

>  <Target Description>
Target is a single protein chain

>  <Sequence Accession>
P08684

>  <Reference>
Bioorg Med Chem Lett 17 (8), 2355-2360 (2007)

>  <Pubmed ID>
17368019

>  <DOI>
10.1016/j.bmcl.2006.12.043

$$$$
410068
Actelion Java MolfileCreator 1.0

 27 30  0  0  1  0  0  0  0  0999 V2000
    0.0000   -0.0000   -0.0000 Cl  0  0  0  0  0  0  0  0  0  0  0  0
   -1.3027   -0.7342   -0.0000 C   0  0  0  0  0  0  0  0  0  0  0  0
   -2.6054    0.0237   -0.0000 C   0  0  0  0  0  0  0  0  0  0  0  0
   -1.3145   -2.2264   -0.0000 C   0  0  0  0  0  0  0  0  0  0  0  0
   -3.8962   -0.7106   -0.0000 C   0  0  0  0  0  0  0  0  0  0  0  0
   -2.6291   -2.9607   -0.0000 C   0  0  0  0  0  0  0  0  0  0  0  0
   -3.9199   -2.1909   -0.0000 C   0  0  0  0  0  0  0  0  0  0  0  0
   -5.1989    0.0474   -0.0000 C   0  0  0  0  0  0  0  0  0  0  0  0
   -5.2108    1.5514   -0.0000 O   0  0  0  0  0  0  0  0  0  0  0  0
   -6.5016   -0.6869   -0.0000 C   0  0  0  0  0  0  0  0  0  0  0  0
   -6.5135   -2.1672   -0.0000 O   0  0  0  0  0  0  0  0  0  0  0  0
   -7.8043    0.0711   -0.0000 N   0  0  0  0  0  0  0  0  0  0  0  0
   -9.1189   -0.6632   -0.0000 C   0  0  0  0  0  0  0  0  0  0  0  0
   -7.8162    1.5751   -0.0000 C   0  0  0  0  0  0  0  0  0  0  0  0
  -10.4216    0.0947   -0.0000 C   0  0  0  0  0  0  0  0  0  0  0  0
   -9.1189    2.3449   -0.0000 C   0  0  0  0  0  0  0  0  0  0  0  0
  -10.4216    1.5988   -0.0000 C   0  0  0  0  0  0  0  0  0  0  0  0
  -11.7243    2.3567   -0.0000 N   0  0  0  0  0  0  0  0  0  0  0  0
  -13.0270    1.6224   -0.0000 C   0  0  0  0  0  0  0  0  0  0  0  0
  -14.3415    2.3685   -0.0000 C   0  0  0  0  0  0  0  0  0  0  0  0
  -13.0388    0.1303   -0.0000 C   0  0  0  0  0  0  0  0  0  0  0  0
  -15.6324    1.6343   -0.0000 C   0  0  0  0  0  0  0  0  0  0  0  0
  -14.3534   -0.6040   -0.0000 C   0  0  0  0  0  0  0  0  0  0  0  0
  -15.6442    0.1421   -0.0000 C   0  0  0  0  0  0  0  0  0  0  0  0
  -17.0653    2.1080   -0.0000 C   0  0  0  0  0  0  0  0  0  0  0  0
  -17.0890   -0.3079   -0.0000 N   0  0  0  0  0  0  0  0  0  0  0  0
  -17.9654    0.9119   -0.0000 N   0  0  0  0  0  0  0  0  0  0  0  0
  1  2  1  0  0  0  0
  2  3  2  0  0  0  0
  2  4  1  0  0  0  0
  3  5  1  0  0  0  0
  4  6  2  0  0  0  0
  5  7  2  0  0  0  0
  5  8  1  0  0  0  0
  8  9  1  1  0  0  0
  8 10  1  0  0  0  0
 10 11  2  0  0  0  0
 10 12  1  0  0  0  0
 12 13  1  0  0  0  0
 12 14  1  0  0  0  0
 13 15  1  0  0  0  0
 14 16  1  0  0  0  0
 15 17  1  0  0  0  0
 17 18  1  0  0  0  0
 18 19  1  0  0  0  0
 19 20  2  0  0  0  0
 19 21  1  0  0  0  0
 20 22  1  0  0  0  0
 21 23  2  0  0  0  0
 22 24  2  0  0  0  0
 22 25  1  0  0  0  0
 24 26  1  0  0  0  0
 25 27  2  0  0  0  0
  6  7  1  0  0  0  0
 16 17  1  0  0  0  0
 23 24  1  0  0  0  0
 26 27  1  0  0  0  0
M  END
>  <MolRegNo>
410068

>  <m>
=

>  <Value>
2000

>  <Unit>
nM

>  <Type>
IC50

>  <pValue>
5.7

>  <Ligand Efficiency>
0

>  <Binding Efficiency>
0

>  <Surface Efficiency>
0

>  <Assay Index>
303956

>  <Assay Category>


>  <Assay Organism>


>  <Target ID>
17045

>  <Target Name>
Cytochrome P450 3A4

>  <Target Organism>
Homo sapiens

>  <Target Description>
Target is a single protein chain

>  <Sequence Accession>
P08684

>  <Reference>
Bioorg Med Chem Lett 17 (8), 2355-2360 (2007)

>  <Pubmed ID>
17368019

>  <DOI>
10.1016/j.bmcl.2006.12.043

$$$$
410067
Actelion Java MolfileCreator 1.0

 27 30  0  0  1  0  0  0  0  0999 V2000
    0.0000   -0.0000   -0.0000 Cl  0  0  0  0  0  0  0  0  0  0  0  0
    1.2922    0.7469   -0.0000 C   0  0  0  0  0  0  0  0  0  0  0  0
    1.2922    2.2525   -0.0000 C   0  0  0  0  0  0  0  0  0  0  0  0
    2.5725    0.0119   -0.0000 C   0  0  0  0  0  0  0  0  0  0  0  0
    2.5607    3.0112   -0.0000 C   0  0  0  0  0  0  0  0  0  0  0  0
   -0.0119    3.0112   -0.0000 C   0  0  0  0  0  0  0  0  0  0  0  0
    3.8647    0.7706   -0.0000 C   0  0  0  0  0  0  0  0  0  0  0  0
    3.8410    2.2762   -0.0000 C   0  0  0  0  0  0  0  0  0  0  0  0
   -0.0237    4.5168   -0.0000 O   0  0  0  0  0  0  0  0  0  0  0  0
   -1.3159    2.2762   -0.0000 C   0  0  0  0  0  0  0  0  0  0  0  0
   -1.3278    0.7943   -0.0000 O   0  0  0  0  0  0  0  0  0  0  0  0
   -2.6200    3.0349   -0.0000 N   0  0  0  0  0  0  0  0  0  0  0  0
   -3.9359    2.2999   -0.0000 C   0  0  0  0  0  0  0  0  0  0  0  0
   -2.6318    4.5405   -0.0000 C   0  0  0  0  0  0  0  0  0  0  0  0
   -5.2399    3.0586   -0.0000 C   0  0  0  0  0  0  0  0  0  0  0  0
   -3.9359    5.3110   -0.0000 C   0  0  0  0  0  0  0  0  0  0  0  0
   -5.2399    4.5642   -0.0000 C   0  0  0  0  0  0  0  0  0  0  0  0
   -6.5440    5.3229   -0.0000 N   0  0  0  0  0  0  0  0  0  0  0  0
   -7.8480    4.5879   -0.0000 C   0  0  0  0  0  0  0  0  0  0  0  0
   -9.1639    5.3348   -0.0000 C   0  0  0  0  0  0  0  0  0  0  0  0
   -7.8599    3.0942   -0.0000 C   0  0  0  0  0  0  0  0  0  0  0  0
  -10.4561    4.5997   -0.0000 C   0  0  0  0  0  0  0  0  0  0  0  0
   -9.1758    2.3591   -0.0000 C   0  0  0  0  0  0  0  0  0  0  0  0
  -10.4680    3.1060   -0.0000 C   0  0  0  0  0  0  0  0  0  0  0  0
  -11.8906    5.0739   -0.0000 C   0  0  0  0  0  0  0  0  0  0  0  0
  -11.9143    2.6555   -0.0000 N   0  0  0  0  0  0  0  0  0  0  0  0
  -12.7916    3.8766   -0.0000 N   0  0  0  0  0  0  0  0  0  0  0  0
  1  2  1  0  0  0  0
  2  3  2  0  0  0  0
  2  4  1  0  0  0  0
  3  5  1  0  0  0  0
  3  6  1  0  0  0  0
  4  7  2  0  0  0  0
  5  8  2  0  0  0  0
  6  9  1  1  0  0  0
  6 10  1  0  0  0  0
 10 11  2  0  0  0  0
 10 12  1  0  0  0  0
 12 13  1  0  0  0  0
 12 14  1  0  0  0  0
 13 15  1  0  0  0  0
 14 16  1  0  0  0  0
 15 17  1  0  0  0  0
 17 18  1  0  0  0  0
 18 19  1  0  0  0  0
 19 20  2  0  0  0  0
 19 21  1  0  0  0  0
 20 22  1  0  0  0  0
 21 23  2  0  0  0  0
 22 24  2  0  0  0  0
 22 25  1  0  0  0  0
 24 26  1  0  0  0  0
 25 27  2  0  0  0  0
  7  8  1  0  0  0  0
 16 17  1  0  0  0  0
 23 24  1  0  0  0  0
 26 27  1  0  0  0  0
M  END
>  <MolRegNo>
410067

>  <m>
=

>  <Value>
4000

>  <Unit>
nM

>  <Type>
IC50

>  <pValue>
5.4

>  <Ligand Efficiency>
0

>  <Binding Efficiency>
0

>  <Surface Efficiency>
0

>  <Assay Index>
303956

>  <Assay Category>


>  <Assay Organism>


>  <Target ID>
17045

>  <Target Name>
Cytochrome P450 3A4

>  <Target Organism>
Homo sapiens

>  <Target Description>
Target is a single protein chain

>  <Sequence Accession>
P08684

>  <Reference>
Bioorg Med Chem Lett 17 (8), 2355-2360 (2007)

>  <Pubmed ID>
17368019

>  <DOI>
10.1016/j.bmcl.2006.12.043

$$$$
410065
Actelion Java MolfileCreator 1.0

 26 29  0  0  1  0  0  0  0  0999 V2000
    0.0000   -0.0000   -0.0000 O   0  0  0  0  0  0  0  0  0  0  0  0
   -0.0119    1.5080   -0.0000 C   0  0  0  0  0  0  0  0  0  0  0  0
   -1.3180    2.2679   -0.0000 N   0  0  0  0  0  0  0  0  0  0  0  0
    1.2705    2.2679   -0.0000 C   0  0  0  0  0  0  0  0  0  0  0  0
   -2.6360    1.5436   -0.0000 C   0  0  0  0  0  0  0  0  0  0  0  0
   -1.3299    3.7759   -0.0000 C   0  0  0  0  0  0  0  0  0  0  0  0
    1.2586    3.7759   -0.0000 O   0  0  0  0  0  0  0  0  0  0  0  0
    2.5529    1.5317   -0.0000 C   0  0  0  0  0  0  0  0  0  0  0  0
   -3.9421    2.3035   -0.0000 C   0  0  0  0  0  0  0  0  0  0  0  0
   -2.6360    4.5477   -0.0000 C   0  0  0  0  0  0  0  0  0  0  0  0
    2.5291    0.0475   -0.0000 C   0  0  0  0  0  0  0  0  0  0  0  0
    3.8234    2.2916   -0.0000 C   0  0  0  0  0  0  0  0  0  0  0  0
   -3.9421    3.8115   -0.0000 C   0  0  0  0  0  0  0  0  0  0  0  0
    3.8115   -0.6887   -0.0000 C   0  0  0  0  0  0  0  0  0  0  0  0
    5.1057    1.5555   -0.0000 C   0  0  0  0  0  0  0  0  0  0  0  0
   -5.2482    4.5714   -0.0000 N   0  0  0  0  0  0  0  0  0  0  0  0
    5.1057    0.0712   -0.0000 C   0  0  0  0  0  0  0  0  0  0  0  0
   -6.5543    3.8352   -0.0000 C   0  0  0  0  0  0  0  0  0  0  0  0
   -7.8723    4.5833   -0.0000 C   0  0  0  0  0  0  0  0  0  0  0  0
   -6.5662    2.3391   -0.0000 C   0  0  0  0  0  0  0  0  0  0  0  0
   -9.1666    3.8471   -0.0000 C   0  0  0  0  0  0  0  0  0  0  0  0
   -7.8842    1.6030   -0.0000 C   0  0  0  0  0  0  0  0  0  0  0  0
   -9.1785    2.3510   -0.0000 C   0  0  0  0  0  0  0  0  0  0  0  0
  -10.6033    4.3221   -0.0000 C   0  0  0  0  0  0  0  0  0  0  0  0
  -10.6271    1.8998   -0.0000 N   0  0  0  0  0  0  0  0  0  0  0  0
  -11.5057    3.1228   -0.0000 N   0  0  0  0  0  0  0  0  0  0  0  0
  1  2  2  0  0  0  0
  2  3  1  0  0  0  0
  2  4  1  0  0  0  0
  3  5  1  0  0  0  0
  3  6  1  0  0  0  0
  4  7  1  6  0  0  0
  4  8  1  0  0  0  0
  5  9  1  0  0  0  0
  6 10  1  0  0  0  0
  8 11  2  0  0  0  0
  8 12  1  0  0  0  0
  9 13  1  0  0  0  0
 11 14  1  0  0  0  0
 12 15  2  0  0  0  0
 13 16  1  0  0  0  0
 14 17  2  0  0  0  0
 16 18  1  0  0  0  0
 18 19  2  0  0  0  0
 18 20  1  0  0  0  0
 19 21  1  0  0  0  0
 20 22  2  0  0  0  0
 21 23  2  0  0  0  0
 21 24  1  0  0  0  0
 23 25  1  0  0  0  0
 24 26  2  0  0  0  0
 10 13  1  0  0  0  0
 15 17  1  0  0  0  0
 22 23  1  0  0  0  0
 25 26  1  0  0  0  0
M  END
>  <MolRegNo>
410065

>  <m>
=

>  <Value>
1000

>  <Unit>
nM

>  <Type>
IC50

>  <pValue>
6

>  <Ligand Efficiency>
0

>  <Binding Efficiency>
0

>  <Surface Efficiency>
0

>  <Assay Index>
303956

>  <Assay Category>


>  <Assay Organism>


>  <Target ID>
17045

>  <Target Name>
Cytochrome P450 3A4

>  <Target Organism>
Homo sapiens

>  <Target Description>
Target is a single protein chain

>  <Sequence Accession>
P08684

>  <Reference>
Bioorg Med Chem Lett 17 (8), 2355-2360 (2007)

>  <Pubmed ID>
17368019

>  <DOI>
10.1016/j.bmcl.2006.12.043

$$$$
410063
Actelion Java MolfileCreator 1.0

 21 23  0  0  1  0  0  0  0  0999 V2000
    0.0000   -0.0000   -0.0000 O   0  0  0  0  0  0  0  0  0  0  0  0
   -0.0118    1.5034   -0.0000 C   0  0  0  0  0  0  0  0  0  0  0  0
   -1.3140    2.2611   -0.0000 N   0  0  0  0  0  0  0  0  0  0  0  0
    1.2667    2.2611   -0.0000 C   0  0  0  0  0  0  0  0  0  0  0  0
   -2.6280    1.5271   -0.0000 C   0  0  0  0  0  0  0  0  0  0  0  0
   -1.3259    3.7645   -0.0000 C   0  0  0  0  0  0  0  0  0  0  0  0
    1.2548    3.7645   -0.0000 O   0  0  0  0  0  0  0  0  0  0  0  0
    2.5452    1.5271   -0.0000 C   0  0  0  0  0  0  0  0  0  0  0  0
   -3.9302    2.2847   -0.0000 C   0  0  0  0  0  0  0  0  0  0  0  0
   -2.6280    4.5340   -0.0000 C   0  0  0  0  0  0  0  0  0  0  0  0
   -3.9302    3.7882   -0.0000 C   0  0  0  0  0  0  0  0  0  0  0  0
   -5.2324    4.5458   -0.0000 N   0  0  0  0  0  0  0  0  0  0  0  0
   -6.5346    3.8118   -0.0000 C   0  0  0  0  0  0  0  0  0  0  0  0
   -7.8486    4.5576   -0.0000 C   0  0  0  0  0  0  0  0  0  0  0  0
   -6.5464    2.3202   -0.0000 C   0  0  0  0  0  0  0  0  0  0  0  0
   -9.1389    3.8237   -0.0000 C   0  0  0  0  0  0  0  0  0  0  0  0
   -7.8604    1.5863   -0.0000 C   0  0  0  0  0  0  0  0  0  0  0  0
   -9.1508    2.3321   -0.0000 C   0  0  0  0  0  0  0  0  0  0  0  0
  -10.5713    4.2972   -0.0000 C   0  0  0  0  0  0  0  0  0  0  0  0
  -10.5950    1.8822   -0.0000 N   0  0  0  0  0  0  0  0  0  0  0  0
  -11.4710    3.1016   -0.0000 N   0  0  0  0  0  0  0  0  0  0  0  0
  1  2  2  0  0  0  0
  2  3  1  0  0  0  0
  2  4  1  0  0  0  0
  3  5  1  0  0  0  0
  3  6  1  0  0  0  0
  4  7  1  1  0  0  0
  4  8  1  0  0  0  0
  5  9  1  0  0  0  0
  6 10  1  0  0  0  0
  9 11  1  0  0  0  0
 11 12  1  0  0  0  0
 12 13  1  0  0  0  0
 13 14  2  0  0  0  0
 13 15  1  0  0  0  0
 14 16  1  0  0  0  0
 15 17  2  0  0  0  0
 16 18  2  0  0  0  0
 16 19  1  0  0  0  0
 18 20  1  0  0  0  0
 19 21  2  0  0  0  0
 10 11  1  0  0  0  0
 17 18  1  0  0  0  0
 20 21  1  0  0  0  0
M  END
>  <MolRegNo>
410063

>  <m>
=

>  <Value>
1000

>  <Unit>
nM

>  <Type>
IC50

>  <pValue>
6

>  <Ligand Efficiency>
0

>  <Binding Efficiency>
0

>  <Surface Efficiency>
0

>  <Assay Index>
303956

>  <Assay Category>


>  <Assay Organism>


>  <Target ID>
17045

>  <Target Name>
Cytochrome P450 3A4

>  <Target Organism>
Homo sapiens

>  <Target Description>
Target is a single protein chain

>  <Sequence Accession>
P08684

>  <Reference>
Bioorg Med Chem Lett 17 (8), 2355-2360 (2007)

>  <Pubmed ID>
17368019

>  <DOI>
10.1016/j.bmcl.2006.12.043

$$$$
410060
Actelion Java MolfileCreator 1.0

 26 29  0  0  0  0  0  0  0  0999 V2000
    0.0000   -0.0000   -0.0000 Br  0  0  0  0  0  0  0  0  0  0  0  0
   -1.3050   -0.7355   -0.0000 C   0  0  0  0  0  0  0  0  0  0  0  0
   -1.3168   -2.2184   -0.0000 C   0  0  0  0  0  0  0  0  0  0  0  0
   -2.6218    0.0237   -0.0000 C   0  0  0  0  0  0  0  0  0  0  0  0
   -2.6218   -2.9540   -0.0000 C   0  0  0  0  0  0  0  0  0  0  0  0
   -3.9268   -0.7118   -0.0000 C   0  0  0  0  0  0  0  0  0  0  0  0
   -3.9386   -2.1947   -0.0000 C   0  0  0  0  0  0  0  0  0  0  0  0
   -5.2436   -2.9302   -0.0000 C   0  0  0  0  0  0  0  0  0  0  0  0
   -5.2555   -4.4132   -0.0000 N   0  0  0  0  0  0  0  0  0  0  0  0
   -6.5486   -2.1710   -0.0000 C   0  0  0  0  0  0  0  0  0  0  0  0
   -6.5604   -0.6643   -0.0000 O   0  0  0  0  0  0  0  0  0  0  0  0
   -7.8535   -2.9065   -0.0000 N   0  0  0  0  0  0  0  0  0  0  0  0
   -7.8654   -4.3894   -0.0000 C   0  0  0  0  0  0  0  0  0  0  0  0
   -9.1585   -2.1473   -0.0000 C   0  0  0  0  0  0  0  0  0  0  0  0
   -9.1704   -5.1250   -0.0000 C   0  0  0  0  0  0  0  0  0  0  0  0
  -10.4635   -2.8828   -0.0000 C   0  0  0  0  0  0  0  0  0  0  0  0
  -10.4753   -4.3657   -0.0000 N   0  0  0  0  0  0  0  0  0  0  0  0
  -11.7803   -5.1012   -0.0000 C   0  0  0  0  0  0  0  0  0  0  0  0
  -13.0971   -4.3539   -0.0000 C   0  0  0  0  0  0  0  0  0  0  0  0
  -11.7922   -6.5960   -0.0000 C   0  0  0  0  0  0  0  0  0  0  0  0
  -14.3902   -5.0894   -0.0000 C   0  0  0  0  0  0  0  0  0  0  0  0
  -13.1090   -7.3316   -0.0000 C   0  0  0  0  0  0  0  0  0  0  0  0
  -14.4021   -6.5842   -0.0000 C   0  0  0  0  0  0  0  0  0  0  0  0
  -15.8257   -4.6148   -0.0000 C   0  0  0  0  0  0  0  0  0  0  0  0
  -15.8494   -7.0350   -0.0000 N   0  0  0  0  0  0  0  0  0  0  0  0
  -16.7273   -5.8130   -0.0000 N   0  0  0  0  0  0  0  0  0  0  0  0
  1  2  1  0  0  0  0
  2  3  2  0  0  0  0
  2  4  1  0  0  0  0
  3  5  1  0  0  0  0
  4  6  2  0  0  0  0
  5  7  2  0  0  0  0
  7  8  1  0  0  0  0
  8  9  1  0  0  0  0
  8 10  1  0  0  0  0
 10 11  2  0  0  0  0
 10 12  1  0  0  0  0
 12 13  1  0  0  0  0
 12 14  1  0  0  0  0
 13 15  1  0  0  0  0
 14 16  1  0  0  0  0
 15 17  1  0  0  0  0
 17 18  1  0  0  0  0
 18 19  2  0  0  0  0
 18 20  1  0  0  0  0
 19 21  1  0  0  0  0
 20 22  2  0  0  0  0
 21 23  2  0  0  0  0
 21 24  1  0  0  0  0
 23 25  1  0  0  0  0
 24 26  2  0  0  0  0
  6  7  1  0  0  0  0
 16 17  1  0  0  0  0
 22 23  1  0  0  0  0
 25 26  1  0  0  0  0
M  END
>  <MolRegNo>
410060

>  <m>
=

>  <Value>
410

>  <Unit>
nM

>  <Type>
IC50

>  <pValue>
6.39

>  <Ligand Efficiency>
0

>  <Binding Efficiency>
0

>  <Surface Efficiency>
0

>  <Assay Index>
303956

>  <Assay Category>


>  <Assay Organism>


>  <Target ID>
17045

>  <Target Name>
Cytochrome P450 3A4

>  <Target Organism>
Homo sapiens

>  <Target Description>
Target is a single protein chain

>  <Sequence Accession>
P08684

>  <Reference>
Bioorg Med Chem Lett 17 (8), 2355-2360 (2007)

>  <Pubmed ID>
17368019

>  <DOI>
10.1016/j.bmcl.2006.12.043

$$$$
410059
Actelion Java MolfileCreator 1.0

 20 22  0  0  1  0  0  0  0  0999 V2000
    0.0000   -0.0000   -0.0000 O   0  0  0  0  0  0  0  0  0  0  0  0
   -0.0119   -1.4854   -0.0000 C   0  0  0  0  0  0  0  0  0  0  0  0
   -1.3190   -2.2221   -0.0000 N   0  0  0  0  0  0  0  0  0  0  0  0
    1.2715   -2.2221   -0.0000 C   0  0  0  0  0  0  0  0  0  0  0  0
   -1.3309   -3.7075   -0.0000 C   0  0  0  0  0  0  0  0  0  0  0  0
   -2.6261   -1.4616   -0.0000 C   0  0  0  0  0  0  0  0  0  0  0  0
    1.2596   -3.7075   -0.0000 N   0  0  0  0  0  0  0  0  0  0  0  0
    2.5548   -1.4616   -0.0000 C   0  0  0  0  0  0  0  0  0  0  0  0
   -2.6380   -4.4442   -0.0000 C   0  0  0  0  0  0  0  0  0  0  0  0
   -3.9451   -2.1983   -0.0000 C   0  0  0  0  0  0  0  0  0  0  0  0
   -3.9451   -3.6837   -0.0000 N   0  0  0  0  0  0  0  0  0  0  0  0
   -5.2523   -4.4205   -0.0000 C   0  0  0  0  0  0  0  0  0  0  0  0
   -6.5713   -3.6718   -0.0000 C   0  0  0  0  0  0  0  0  0  0  0  0
   -5.2642   -5.9177   -0.0000 C   0  0  0  0  0  0  0  0  0  0  0  0
   -7.8665   -4.4086   -0.0000 C   0  0  0  0  0  0  0  0  0  0  0  0
   -6.5832   -6.6545   -0.0000 C   0  0  0  0  0  0  0  0  0  0  0  0
   -7.8784   -5.9058   -0.0000 C   0  0  0  0  0  0  0  0  0  0  0  0
   -9.3044   -3.9333   -0.0000 C   0  0  0  0  0  0  0  0  0  0  0  0
   -9.3281   -6.3574   -0.0000 N   0  0  0  0  0  0  0  0  0  0  0  0
  -10.2075   -5.1334   -0.0000 N   0  0  0  0  0  0  0  0  0  0  0  0
  1  2  2  0  0  0  0
  2  3  1  0  0  0  0
  2  4  1  0  0  0  0
  3  5  1  0  0  0  0
  3  6  1  0  0  0  0
  4  7  1  1  0  0  0
  4  8  1  0  0  0  0
  5  9  1  0  0  0  0
  6 10  1  0  0  0  0
  9 11  1  0  0  0  0
 11 12  1  0  0  0  0
 12 13  2  0  0  0  0
 12 14  1  0  0  0  0
 13 15  1  0  0  0  0
 14 16  2  0  0  0  0
 15 17  2  0  0  0  0
 15 18  1  0  0  0  0
 17 19  1  0  0  0  0
 18 20  2  0  0  0  0
 10 11  1  0  0  0  0
 16 17  1  0  0  0  0
 19 20  1  0  0  0  0
M  END
>  <MolRegNo>
410059

>  <m>
=

>  <Value>
10000

>  <Unit>
nM

>  <Type>
IC50

>  <pValue>
5

>  <Ligand Efficiency>
0

>  <Binding Efficiency>
0

>  <Surface Efficiency>
0

>  <Assay Index>
303956

>  <Assay Category>


>  <Assay Organism>


>  <Target ID>
17045

>  <Target Name>
Cytochrome P450 3A4

>  <Target Organism>
Homo sapiens

>  <Target Description>
Target is a single protein chain

>  <Sequence Accession>
P08684

>  <Reference>
Bioorg Med Chem Lett 17 (8), 2355-2360 (2007)

>  <Pubmed ID>
17368019

>  <DOI>
10.1016/j.bmcl.2006.12.043

$$$$
410058
Actelion Java MolfileCreator 1.0

 26 29  0  0  1  0  0  0  0  0999 V2000
    0.0000   -0.0000   -0.0000 O   0  0  0  0  0  0  0  0  0  0  0  0
   -0.0119   -1.4895   -0.0000 C   0  0  0  0  0  0  0  0  0  0  0  0
   -1.3227   -2.2283   -0.0000 N   0  0  0  0  0  0  0  0  0  0  0  0
    1.2750   -2.2283   -0.0000 C   0  0  0  0  0  0  0  0  0  0  0  0
   -1.3346   -3.7178   -0.0000 C   0  0  0  0  0  0  0  0  0  0  0  0
   -2.6334   -1.4657   -0.0000 C   0  0  0  0  0  0  0  0  0  0  0  0
    1.2631   -3.7178   -0.0000 N   0  0  0  0  0  0  0  0  0  0  0  0
    2.5620   -1.4657   -0.0000 C   0  0  0  0  0  0  0  0  0  0  0  0
   -2.6454   -4.4566   -0.0000 C   0  0  0  0  0  0  0  0  0  0  0  0
   -3.9442   -2.2045   -0.0000 C   0  0  0  0  0  0  0  0  0  0  0  0
    3.8489   -2.2045   -0.0000 C   0  0  0  0  0  0  0  0  0  0  0  0
   -3.9561   -3.6940   -0.0000 N   0  0  0  0  0  0  0  0  0  0  0  0
    3.8370   -3.6940   -0.0000 C   0  0  0  0  0  0  0  0  0  0  0  0
    5.1239   -1.4418   -0.0000 C   0  0  0  0  0  0  0  0  0  0  0  0
   -5.2669   -4.4328   -0.0000 C   0  0  0  0  0  0  0  0  0  0  0  0
    5.1239   -4.4328   -0.0000 C   0  0  0  0  0  0  0  0  0  0  0  0
    6.4108   -2.1687   -0.0000 C   0  0  0  0  0  0  0  0  0  0  0  0
   -6.5896   -3.6821   -0.0000 C   0  0  0  0  0  0  0  0  0  0  0  0
   -5.2788   -5.9342   -0.0000 C   0  0  0  0  0  0  0  0  0  0  0  0
    6.4108   -3.6701   -0.0000 C   0  0  0  0  0  0  0  0  0  0  0  0
   -7.8884   -4.4209   -0.0000 C   0  0  0  0  0  0  0  0  0  0  0  0
   -6.6015   -6.6730   -0.0000 C   0  0  0  0  0  0  0  0  0  0  0  0
   -7.9003   -5.9223   -0.0000 C   0  0  0  0  0  0  0  0  0  0  0  0
   -9.3303   -3.9442   -0.0000 C   0  0  0  0  0  0  0  0  0  0  0  0
   -9.3541   -6.3751   -0.0000 N   0  0  0  0  0  0  0  0  0  0  0  0
  -10.2359   -5.1477   -0.0000 N   0  0  0  0  0  0  0  0  0  0  0  0
  1  2  2  0  0  0  0
  2  3  1  0  0  0  0
  2  4  1  0  0  0  0
  3  5  1  0  0  0  0
  3  6  1  0  0  0  0
  4  7  1  1  0  0  0
  4  8  1  0  0  0  0
  5  9  1  0  0  0  0
  6 10  1  0  0  0  0
  8 11  1  0  0  0  0
  9 12  1  0  0  0  0
 11 13  2  0  0  0  0
 11 14  1  0  0  0  0
 12 15  1  0  0  0  0
 13 16  1  0  0  0  0
 14 17  2  0  0  0  0
 15 18  2  0  0  0  0
 15 19  1  0  0  0  0
 16 20  2  0  0  0  0
 18 21  1  0  0  0  0
 19 22  2  0  0  0  0
 21 23  2  0  0  0  0
 21 24  1  0  0  0  0
 23 25  1  0  0  0  0
 24 26  2  0  0  0  0
 10 12  1  0  0  0  0
 17 20  1  0  0  0  0
 22 23  1  0  0  0  0
 25 26  1  0  0  0  0
M  END
>  <MolRegNo>
410058

>  <m>
=

>  <Value>
7000

>  <Unit>
nM

>  <Type>
IC50

>  <pValue>
5.16

>  <Ligand Efficiency>
0

>  <Binding Efficiency>
0

>  <Surface Efficiency>
0

>  <Assay Index>
303956

>  <Assay Category>


>  <Assay Organism>


>  <Target ID>
17045

>  <Target Name>
Cytochrome P450 3A4

>  <Target Organism>
Homo sapiens

>  <Target Description>
Target is a single protein chain

>  <Sequence Accession>
P08684

>  <Reference>
Bioorg Med Chem Lett 17 (8), 2355-2360 (2007)

>  <Pubmed ID>
17368019

>  <DOI>
10.1016/j.bmcl.2006.12.043

$$$$
410057
Actelion Java MolfileCreator 1.0

 26 29  0  0  0  0  0  0  0  0999 V2000
    0.0000   -0.0000   -0.0000 Cl  0  0  0  0  0  0  0  0  0  0  0  0
   -1.3031    0.7581   -0.0000 C   0  0  0  0  0  0  0  0  0  0  0  0
   -2.6061    0.0237   -0.0000 C   0  0  0  0  0  0  0  0  0  0  0  0
   -1.3149    2.2626   -0.0000 C   0  0  0  0  0  0  0  0  0  0  0  0
   -3.9210    0.7818   -0.0000 C   0  0  0  0  0  0  0  0  0  0  0  0
   -2.6298    3.0207   -0.0000 C   0  0  0  0  0  0  0  0  0  0  0  0
   -3.9329    2.2744   -0.0000 C   0  0  0  0  0  0  0  0  0  0  0  0
   -5.2241    0.0474   -0.0000 C   0  0  0  0  0  0  0  0  0  0  0  0
   -5.2360   -1.4334   -0.0000 N   0  0  0  0  0  0  0  0  0  0  0  0
   -6.5272    0.8055   -0.0000 C   0  0  0  0  0  0  0  0  0  0  0  0
   -6.5390    2.3100   -0.0000 O   0  0  0  0  0  0  0  0  0  0  0  0
   -7.8302    0.0711   -0.0000 N   0  0  0  0  0  0  0  0  0  0  0  0
   -7.8421   -1.4097   -0.0000 C   0  0  0  0  0  0  0  0  0  0  0  0
   -9.1333    0.8292   -0.0000 C   0  0  0  0  0  0  0  0  0  0  0  0
   -9.1451   -2.1441   -0.0000 C   0  0  0  0  0  0  0  0  0  0  0  0
  -10.4482    0.0948   -0.0000 C   0  0  0  0  0  0  0  0  0  0  0  0
  -10.4482   -1.3860   -0.0000 N   0  0  0  0  0  0  0  0  0  0  0  0
  -11.7513   -2.1204   -0.0000 C   0  0  0  0  0  0  0  0  0  0  0  0
  -13.0662   -1.3741   -0.0000 C   0  0  0  0  0  0  0  0  0  0  0  0
  -11.7631   -3.6130   -0.0000 C   0  0  0  0  0  0  0  0  0  0  0  0
  -14.3574   -2.1086   -0.0000 C   0  0  0  0  0  0  0  0  0  0  0  0
  -13.0780   -4.3475   -0.0000 C   0  0  0  0  0  0  0  0  0  0  0  0
  -14.3693   -3.6012   -0.0000 C   0  0  0  0  0  0  0  0  0  0  0  0
  -15.7908   -1.6348   -0.0000 C   0  0  0  0  0  0  0  0  0  0  0  0
  -15.8145   -4.0513   -0.0000 N   0  0  0  0  0  0  0  0  0  0  0  0
  -16.6911   -2.8312   -0.0000 N   0  0  0  0  0  0  0  0  0  0  0  0
  1  2  1  0  0  0  0
  2  3  2  0  0  0  0
  2  4  1  0  0  0  0
  3  5  1  0  0  0  0
  4  6  2  0  0  0  0
  5  7  2  0  0  0  0
  5  8  1  0  0  0  0
  8  9  1  0  0  0  0
  8 10  1  0  0  0  0
 10 11  2  0  0  0  0
 10 12  1  0  0  0  0
 12 13  1  0  0  0  0
 12 14  1  0  0  0  0
 13 15  1  0  0  0  0
 14 16  1  0  0  0  0
 15 17  1  0  0  0  0
 17 18  1  0  0  0  0
 18 19  2  0  0  0  0
 18 20  1  0  0  0  0
 19 21  1  0  0  0  0
 20 22  2  0  0  0  0
 21 23  2  0  0  0  0
 21 24  1  0  0  0  0
 23 25  1  0  0  0  0
 24 26  2  0  0  0  0
  6  7  1  0  0  0  0
 16 17  1  0  0  0  0
 22 23  1  0  0  0  0
 25 26  1  0  0  0  0
M  END
>  <MolRegNo>
410057

>  <m>
=

>  <Value>
250

>  <Unit>
nM

>  <Type>
IC50

>  <pValue>
6.6

>  <Ligand Efficiency>
0

>  <Binding Efficiency>
0

>  <Surface Efficiency>
0

>  <Assay Index>
303956

>  <Assay Category>


>  <Assay Organism>


>  <Target ID>
17045

>  <Target Name>
Cytochrome P450 3A4

>  <Target Organism>
Homo sapiens

>  <Target Description>
Target is a single protein chain

>  <Sequence Accession>
P08684

>  <Reference>
Bioorg Med Chem Lett 17 (8), 2355-2360 (2007)

>  <Pubmed ID>
17368019

>  <DOI>
10.1016/j.bmcl.2006.12.043

$$$$
410056
Actelion Java MolfileCreator 1.0

 26 29  0  0  0  0  0  0  0  0999 V2000
    0.0000   -0.0000   -0.0000 Cl  0  0  0  0  0  0  0  0  0  0  0  0
   -1.3050   -0.7355   -0.0000 C   0  0  0  0  0  0  0  0  0  0  0  0
   -1.3168   -2.2184   -0.0000 C   0  0  0  0  0  0  0  0  0  0  0  0
   -2.6218    0.0237   -0.0000 C   0  0  0  0  0  0  0  0  0  0  0  0
   -2.6218   -2.9540   -0.0000 C   0  0  0  0  0  0  0  0  0  0  0  0
   -3.9268   -0.7118   -0.0000 C   0  0  0  0  0  0  0  0  0  0  0  0
   -3.9386   -2.1947   -0.0000 C   0  0  0  0  0  0  0  0  0  0  0  0
   -5.2436   -2.9302   -0.0000 C   0  0  0  0  0  0  0  0  0  0  0  0
   -5.2555   -4.4132   -0.0000 N   0  0  0  0  0  0  0  0  0  0  0  0
   -6.5486   -2.1710   -0.0000 C   0  0  0  0  0  0  0  0  0  0  0  0
   -6.5604   -0.6643   -0.0000 O   0  0  0  0  0  0  0  0  0  0  0  0
   -7.8535   -2.9065   -0.0000 N   0  0  0  0  0  0  0  0  0  0  0  0
   -7.8654   -4.3894   -0.0000 C   0  0  0  0  0  0  0  0  0  0  0  0
   -9.1585   -2.1473   -0.0000 C   0  0  0  0  0  0  0  0  0  0  0  0
   -9.1704   -5.1250   -0.0000 C   0  0  0  0  0  0  0  0  0  0  0  0
  -10.4635   -2.8828   -0.0000 C   0  0  0  0  0  0  0  0  0  0  0  0
  -10.4753   -4.3657   -0.0000 N   0  0  0  0  0  0  0  0  0  0  0  0
  -11.7803   -5.1012   -0.0000 C   0  0  0  0  0  0  0  0  0  0  0  0
  -13.0971   -4.3539   -0.0000 C   0  0  0  0  0  0  0  0  0  0  0  0
  -11.7922   -6.5960   -0.0000 C   0  0  0  0  0  0  0  0  0  0  0  0
  -14.3902   -5.0894   -0.0000 C   0  0  0  0  0  0  0  0  0  0  0  0
  -13.1090   -7.3316   -0.0000 C   0  0  0  0  0  0  0  0  0  0  0  0
  -14.4021   -6.5842   -0.0000 C   0  0  0  0  0  0  0  0  0  0  0  0
  -15.8257   -4.6148   -0.0000 C   0  0  0  0  0  0  0  0  0  0  0  0
  -15.8494   -7.0350   -0.0000 N   0  0  0  0  0  0  0  0  0  0  0  0
  -16.7273   -5.8130   -0.0000 N   0  0  0  0  0  0  0  0  0  0  0  0
  1  2  1  0  0  0  0
  2  3  2  0  0  0  0
  2  4  1  0  0  0  0
  3  5  1  0  0  0  0
  4  6  2  0  0  0  0
  5  7  2  0  0  0  0
  7  8  1  0  0  0  0
  8  9  1  0  0  0  0
  8 10  1  0  0  0  0
 10 11  2  0  0  0  0
 10 12  1  0  0  0  0
 12 13  1  0  0  0  0
 12 14  1  0  0  0  0
 13 15  1  0  0  0  0
 14 16  1  0  0  0  0
 15 17  1  0  0  0  0
 17 18  1  0  0  0  0
 18 19  2  0  0  0  0
 18 20  1  0  0  0  0
 19 21  1  0  0  0  0
 20 22  2  0  0  0  0
 21 23  2  0  0  0  0
 21 24  1  0  0  0  0
 23 25  1  0  0  0  0
 24 26  2  0  0  0  0
  6  7  1  0  0  0  0
 16 17  1  0  0  0  0
 22 23  1  0  0  0  0
 25 26  1  0  0  0  0
M  END
>  <MolRegNo>
410056

>  <m>
=

>  <Value>
530

>  <Unit>
nM

>  <Type>
IC50

>  <pValue>
6.28

>  <Ligand Efficiency>
0

>  <Binding Efficiency>
0

>  <Surface Efficiency>
0

>  <Assay Index>
303956

>  <Assay Category>


>  <Assay Organism>


>  <Target ID>
17045

>  <Target Name>
Cytochrome P450 3A4

>  <Target Organism>
Homo sapiens

>  <Target Description>
Target is a single protein chain

>  <Sequence Accession>
P08684

>  <Reference>
Bioorg Med Chem Lett 17 (8), 2355-2360 (2007)

>  <Pubmed ID>
17368019

>  <DOI>
10.1016/j.bmcl.2006.12.043

$$$$
410053
Actelion Java MolfileCreator 1.0

 25 28  0  0  1  0  0  0  0  0999 V2000
    0.0000   -0.0000   -0.0000 O   0  0  0  0  0  0  0  0  0  0  0  0
   -0.0119   -1.4870   -0.0000 C   0  0  0  0  0  0  0  0  0  0  0  0
   -1.3205   -2.2245   -0.0000 N   0  0  0  0  0  0  0  0  0  0  0  0
    1.2729   -2.2245   -0.0000 C   0  0  0  0  0  0  0  0  0  0  0  0
   -1.3323   -3.7115   -0.0000 C   0  0  0  0  0  0  0  0  0  0  0  0
   -2.6290   -1.4632   -0.0000 C   0  0  0  0  0  0  0  0  0  0  0  0
    1.2610   -3.7115   -0.0000 N   0  0  0  0  0  0  0  0  0  0  0  0
    2.5576   -1.4632   -0.0000 C   0  0  0  0  0  0  0  0  0  0  0  0
   -2.6409   -4.4491   -0.0000 C   0  0  0  0  0  0  0  0  0  0  0  0
   -3.9376   -2.2008   -0.0000 C   0  0  0  0  0  0  0  0  0  0  0  0
    3.8543   -2.2008   -0.0000 C   0  0  0  0  0  0  0  0  0  0  0  0
    2.5457    0.0357   -0.0000 C   0  0  0  0  0  0  0  0  0  0  0  0
   -3.9495   -3.6877   -0.0000 N   0  0  0  0  0  0  0  0  0  0  0  0
    5.1391   -1.4394   -0.0000 C   0  0  0  0  0  0  0  0  0  0  0  0
    3.8305    0.7970   -0.0000 C   0  0  0  0  0  0  0  0  0  0  0  0
   -5.2580   -4.4253   -0.0000 C   0  0  0  0  0  0  0  0  0  0  0  0
    5.1272    0.0714   -0.0000 C   0  0  0  0  0  0  0  0  0  0  0  0
   -6.5785   -3.6759   -0.0000 C   0  0  0  0  0  0  0  0  0  0  0  0
   -5.2699   -5.9242   -0.0000 C   0  0  0  0  0  0  0  0  0  0  0  0
   -7.8751   -4.4134   -0.0000 C   0  0  0  0  0  0  0  0  0  0  0  0
   -6.5904   -6.6617   -0.0000 C   0  0  0  0  0  0  0  0  0  0  0  0
   -7.8870   -5.9123   -0.0000 C   0  0  0  0  0  0  0  0  0  0  0  0
   -9.3145   -3.9376   -0.0000 C   0  0  0  0  0  0  0  0  0  0  0  0
   -9.3383   -6.3643   -0.0000 N   0  0  0  0  0  0  0  0  0  0  0  0
  -10.2186   -5.1391   -0.0000 N   0  0  0  0  0  0  0  0  0  0  0  0
  1  2  2  0  0  0  0
  2  3  1  0  0  0  0
  2  4  1  0  0  0  0
  3  5  1  0  0  0  0
  3  6  1  0  0  0  0
  4  7  1  1  0  0  0
  4  8  1  0  0  0  0
  5  9  1  0  0  0  0
  6 10  1  0  0  0  0
  8 11  2  0  0  0  0
  8 12  1  0  0  0  0
  9 13  1  0  0  0  0
 11 14  1  0  0  0  0
 12 15  2  0  0  0  0
 13 16  1  0  0  0  0
 14 17  2  0  0  0  0
 16 18  2  0  0  0  0
 16 19  1  0  0  0  0
 18 20  1  0  0  0  0
 19 21  2  0  0  0  0
 20 22  2  0  0  0  0
 20 23  1  0  0  0  0
 22 24  1  0  0  0  0
 23 25  2  0  0  0  0
 10 13  1  0  0  0  0
 15 17  1  0  0  0  0
 21 22  1  0  0  0  0
 24 25  1  0  0  0  0
M  END
>  <MolRegNo>
410053

>  <m>
=

>  <Value>
470

>  <Unit>
nM

>  <Type>
IC50

>  <pValue>
6.33

>  <Ligand Efficiency>
0

>  <Binding Efficiency>
0

>  <Surface Efficiency>
0

>  <Assay Index>
303956

>  <Assay Category>


>  <Assay Organism>


>  <Target ID>
17045

>  <Target Name>
Cytochrome P450 3A4

>  <Target Organism>
Homo sapiens

>  <Target Description>
Target is a single protein chain

>  <Sequence Accession>
P08684

>  <Reference>
Bioorg Med Chem Lett 17 (8), 2355-2360 (2007)

>  <Pubmed ID>
17368019

>  <DOI>
10.1016/j.bmcl.2006.12.043

$$$$
410050
Actelion Java MolfileCreator 1.0

 27 31  0  0  1  0  0  0  0  0999 V2000
    0.0000   -0.0000   -0.0000 O   0  0  0  0  0  0  0  0  0  0  0  0
   -0.0119   -1.4896   -0.0000 C   0  0  0  0  0  0  0  0  0  0  0  0
   -1.3228   -2.2285   -0.0000 N   0  0  0  0  0  0  0  0  0  0  0  0
    1.2751   -2.2285   -0.0000 C   0  0  0  0  0  0  0  0  0  0  0  0
   -1.3347   -3.7181   -0.0000 C   0  0  0  0  0  0  0  0  0  0  0  0
   -2.6337   -1.4658   -0.0000 C   0  0  0  0  0  0  0  0  0  0  0  0
    1.2513   -3.7181   -0.0000 N   0  0  0  0  0  0  0  0  0  0  0  0
    2.5502   -1.4539   -0.0000 C   0  0  0  0  0  0  0  0  0  0  0  0
   -2.6456   -4.4570   -0.0000 C   0  0  0  0  0  0  0  0  0  0  0  0
   -3.9445   -2.2046   -0.0000 C   0  0  0  0  0  0  0  0  0  0  0  0
    2.5383   -4.4570   -0.0000 C   0  0  0  0  0  0  0  0  0  0  0  0
    3.8373   -2.2046   -0.0000 C   0  0  0  0  0  0  0  0  0  0  0  0
   -3.9564   -3.6943   -0.0000 N   0  0  0  0  0  0  0  0  0  0  0  0
    3.8254   -3.6943   -0.0000 C   0  0  0  0  0  0  0  0  0  0  0  0
    5.1243   -1.4420   -0.0000 C   0  0  0  0  0  0  0  0  0  0  0  0
   -5.2673   -4.4331   -0.0000 C   0  0  0  0  0  0  0  0  0  0  0  0
    5.1124   -4.4331   -0.0000 C   0  0  0  0  0  0  0  0  0  0  0  0
    6.4113   -2.1808   -0.0000 C   0  0  0  0  0  0  0  0  0  0  0  0
   -6.5901   -3.6823   -0.0000 C   0  0  0  0  0  0  0  0  0  0  0  0
   -5.2792   -5.9347   -0.0000 C   0  0  0  0  0  0  0  0  0  0  0  0
    6.4113   -3.6704   -0.0000 C   0  0  0  0  0  0  0  0  0  0  0  0
   -7.8890   -4.4212   -0.0000 C   0  0  0  0  0  0  0  0  0  0  0  0
   -6.6020   -6.6735   -0.0000 C   0  0  0  0  0  0  0  0  0  0  0  0
   -7.9010   -5.9227   -0.0000 C   0  0  0  0  0  0  0  0  0  0  0  0
   -9.3310   -3.9445   -0.0000 C   0  0  0  0  0  0  0  0  0  0  0  0
   -9.3548   -6.3756   -0.0000 N   0  0  0  0  0  0  0  0  0  0  0  0
  -10.2367   -5.1481   -0.0000 N   0  0  0  0  0  0  0  0  0  0  0  0
  1  2  2  0  0  0  0
  2  3  1  0  0  0  0
  4  2  1  6  0  0  0
  3  5  1  0  0  0  0
  3  6  1  0  0  0  0
  4  7  1  0  0  0  0
  4  8  1  0  0  0  0
  5  9  1  0  0  0  0
  6 10  1  0  0  0  0
  7 11  1  0  0  0  0
  8 12  1  0  0  0  0
  9 13  1  0  0  0  0
 11 14  1  0  0  0  0
 12 15  1  0  0  0  0
 13 16  1  0  0  0  0
 14 17  1  0  0  0  0
 15 18  2  0  0  0  0
 16 19  2  0  0  0  0
 16 20  1  0  0  0  0
 17 21  2  0  0  0  0
 19 22  1  0  0  0  0
 20 23  2  0  0  0  0
 22 24  2  0  0  0  0
 22 25  1  0  0  0  0
 24 26  1  0  0  0  0
 25 27  2  0  0  0  0
 10 13  1  0  0  0  0
 12 14  2  0  0  0  0
 18 21  1  0  0  0  0
 23 24  1  0  0  0  0
 26 27  1  0  0  0  0
M  END
>  <MolRegNo>
410050

>  <m>
=

>  <Value>
10000

>  <Unit>
nM

>  <Type>
IC50

>  <pValue>
5

>  <Ligand Efficiency>
0

>  <Binding Efficiency>
0

>  <Surface Efficiency>
0

>  <Assay Index>
303956

>  <Assay Category>


>  <Assay Organism>


>  <Target ID>
17045

>  <Target Name>
Cytochrome P450 3A4

>  <Target Organism>
Homo sapiens

>  <Target Description>
Target is a single protein chain

>  <Sequence Accession>
P08684

>  <Reference>
Bioorg Med Chem Lett 17 (8), 2355-2360 (2007)

>  <Pubmed ID>
17368019

>  <DOI>
10.1016/j.bmcl.2006.12.043

$$$$
410048
Actelion Java MolfileCreator 1.0

 26 29  0  0  0  0  0  0  0  0999 V2000
    0.0000   -0.0000   -0.0000 Br  0  0  0  0  0  0  0  0  0  0  0  0
   -1.3056   -0.7477   -0.0000 C   0  0  0  0  0  0  0  0  0  0  0  0
   -2.6112   -0.0000   -0.0000 C   0  0  0  0  0  0  0  0  0  0  0  0
   -1.3056   -2.2314   -0.0000 C   0  0  0  0  0  0  0  0  0  0  0  0
   -3.9049   -0.7359   -0.0000 C   0  0  0  0  0  0  0  0  0  0  0  0
   -2.6112   -2.9673   -0.0000 C   0  0  0  0  0  0  0  0  0  0  0  0
   -3.9168   -2.2195   -0.0000 C   0  0  0  0  0  0  0  0  0  0  0  0
   -5.2224   -2.9673   -0.0000 C   0  0  0  0  0  0  0  0  0  0  0  0
   -5.2342   -4.4509   -0.0000 O   0  0  0  0  0  0  0  0  0  0  0  0
   -6.5280   -2.2076   -0.0000 C   0  0  0  0  0  0  0  0  0  0  0  0
   -6.5398   -0.7003   -0.0000 O   0  0  0  0  0  0  0  0  0  0  0  0
   -7.8335   -2.9435   -0.0000 N   0  0  0  0  0  0  0  0  0  0  0  0
   -7.8454   -4.4271   -0.0000 C   0  0  0  0  0  0  0  0  0  0  0  0
   -9.1391   -2.1839   -0.0000 C   0  0  0  0  0  0  0  0  0  0  0  0
   -9.1510   -5.1630   -0.0000 C   0  0  0  0  0  0  0  0  0  0  0  0
  -10.4566   -2.9198   -0.0000 C   0  0  0  0  0  0  0  0  0  0  0  0
  -10.4566   -4.4034   -0.0000 N   0  0  0  0  0  0  0  0  0  0  0  0
  -11.7622   -5.1393   -0.0000 C   0  0  0  0  0  0  0  0  0  0  0  0
  -13.0797   -4.3915   -0.0000 C   0  0  0  0  0  0  0  0  0  0  0  0
  -11.7741   -6.6348   -0.0000 C   0  0  0  0  0  0  0  0  0  0  0  0
  -14.3734   -5.1274   -0.0000 C   0  0  0  0  0  0  0  0  0  0  0  0
  -13.0915   -7.3707   -0.0000 C   0  0  0  0  0  0  0  0  0  0  0  0
  -14.3852   -6.6229   -0.0000 C   0  0  0  0  0  0  0  0  0  0  0  0
  -15.8095   -4.6527   -0.0000 C   0  0  0  0  0  0  0  0  0  0  0  0
  -15.8333   -7.0739   -0.0000 N   0  0  0  0  0  0  0  0  0  0  0  0
  -16.7116   -5.8514   -0.0000 N   0  0  0  0  0  0  0  0  0  0  0  0
  1  2  1  0  0  0  0
  2  3  2  0  0  0  0
  2  4  1  0  0  0  0
  3  5  1  0  0  0  0
  4  6  2  0  0  0  0
  5  7  2  0  0  0  0
  7  8  1  0  0  0  0
  8  9  1  0  0  0  0
  8 10  1  0  0  0  0
 10 11  2  0  0  0  0
 10 12  1  0  0  0  0
 12 13  1  0  0  0  0
 12 14  1  0  0  0  0
 13 15  1  0  0  0  0
 14 16  1  0  0  0  0
 15 17  1  0  0  0  0
 17 18  1  0  0  0  0
 18 19  2  0  0  0  0
 18 20  1  0  0  0  0
 19 21  1  0  0  0  0
 20 22  2  0  0  0  0
 21 23  2  0  0  0  0
 21 24  1  0  0  0  0
 23 25  1  0  0  0  0
 24 26  2  0  0  0  0
  6  7  1  0  0  0  0
 16 17  1  0  0  0  0
 22 23  1  0  0  0  0
 25 26  1  0  0  0  0
M  END
>  <MolRegNo>
410048

>  <m>
=

>  <Value>
4000

>  <Unit>
nM

>  <Type>
IC50

>  <pValue>
5.4

>  <Ligand Efficiency>
0

>  <Binding Efficiency>
0

>  <Surface Efficiency>
0

>  <Assay Index>
303956

>  <Assay Category>


>  <Assay Organism>


>  <Target ID>
17045

>  <Target Name>
Cytochrome P450 3A4

>  <Target Organism>
Homo sapiens

>  <Target Description>
Target is a single protein chain

>  <Sequence Accession>
P08684

>  <Reference>
Bioorg Med Chem Lett 17 (8), 2355-2360 (2007)

>  <Pubmed ID>
17368019

>  <DOI>
10.1016/j.bmcl.2006.12.043

$$$$
410046
Actelion Java MolfileCreator 1.0

 25 28  0  0  1  0  0  0  0  0999 V2000
    0.0000   -0.0000   -0.0000 O   0  0  0  0  0  0  0  0  0  0  0  0
   -0.0119   -1.4869   -0.0000 C   0  0  0  0  0  0  0  0  0  0  0  0
   -1.3203   -2.2244   -0.0000 N   0  0  0  0  0  0  0  0  0  0  0  0
    1.2728   -2.2244   -0.0000 C   0  0  0  0  0  0  0  0  0  0  0  0
   -1.3322   -3.7112   -0.0000 C   0  0  0  0  0  0  0  0  0  0  0  0
   -2.6288   -1.4631   -0.0000 C   0  0  0  0  0  0  0  0  0  0  0  0
    1.2609   -3.7112   -0.0000 O   0  0  0  0  0  0  0  0  0  0  0  0
    2.5574   -1.4512   -0.0000 C   0  0  0  0  0  0  0  0  0  0  0  0
   -2.6407   -4.4487   -0.0000 C   0  0  0  0  0  0  0  0  0  0  0  0
   -3.9491   -2.2006   -0.0000 C   0  0  0  0  0  0  0  0  0  0  0  0
    3.8421   -2.1887   -0.0000 C   0  0  0  0  0  0  0  0  0  0  0  0
    2.5455    0.0595   -0.0000 C   0  0  0  0  0  0  0  0  0  0  0  0
   -3.9491   -3.6874   -0.0000 N   0  0  0  0  0  0  0  0  0  0  0  0
    5.1267   -1.4274   -0.0000 C   0  0  0  0  0  0  0  0  0  0  0  0
    3.8183    0.8208   -0.0000 C   0  0  0  0  0  0  0  0  0  0  0  0
   -5.2576   -4.4249   -0.0000 C   0  0  0  0  0  0  0  0  0  0  0  0
    5.1030    0.0833   -0.0000 C   0  0  0  0  0  0  0  0  0  0  0  0
   -6.5779   -3.6756   -0.0000 C   0  0  0  0  0  0  0  0  0  0  0  0
   -5.2695   -5.9237   -0.0000 C   0  0  0  0  0  0  0  0  0  0  0  0
   -7.8745   -4.4130   -0.0000 C   0  0  0  0  0  0  0  0  0  0  0  0
   -6.5898   -6.6612   -0.0000 C   0  0  0  0  0  0  0  0  0  0  0  0
   -7.8864   -5.9118   -0.0000 C   0  0  0  0  0  0  0  0  0  0  0  0
   -9.3138   -3.9372   -0.0000 C   0  0  0  0  0  0  0  0  0  0  0  0
   -9.3376   -6.3638   -0.0000 N   0  0  0  0  0  0  0  0  0  0  0  0
  -10.2178   -5.1386   -0.0000 N   0  0  0  0  0  0  0  0  0  0  0  0
  1  2  2  0  0  0  0
  2  3  1  0  0  0  0
  2  4  1  0  0  0  0
  3  5  1  0  0  0  0
  3  6  1  0  0  0  0
  4  7  1  1  0  0  0
  4  8  1  0  0  0  0
  5  9  1  0  0  0  0
  6 10  1  0  0  0  0
  8 11  2  0  0  0  0
  8 12  1  0  0  0  0
  9 13  1  0  0  0  0
 11 14  1  0  0  0  0
 12 15  2  0  0  0  0
 13 16  1  0  0  0  0
 14 17  2  0  0  0  0
 16 18  2  0  0  0  0
 16 19  1  0  0  0  0
 18 20  1  0  0  0  0
 19 21  2  0  0  0  0
 20 22  2  0  0  0  0
 20 23  1  0  0  0  0
 22 24  1  0  0  0  0
 23 25  2  0  0  0  0
 10 13  1  0  0  0  0
 15 17  1  0  0  0  0
 21 22  1  0  0  0  0
 24 25  1  0  0  0  0
M  END
>  <MolRegNo>
410046

>  <m>
=

>  <Value>
10000

>  <Unit>
nM

>  <Type>
IC50

>  <pValue>
5

>  <Ligand Efficiency>
0

>  <Binding Efficiency>
0

>  <Surface Efficiency>
0

>  <Assay Index>
303956

>  <Assay Category>


>  <Assay Organism>


>  <Target ID>
17045

>  <Target Name>
Cytochrome P450 3A4

>  <Target Organism>
Homo sapiens

>  <Target Description>
Target is a single protein chain

>  <Sequence Accession>
P08684

>  <Reference>
Bioorg Med Chem Lett 17 (8), 2355-2360 (2007)

>  <Pubmed ID>
17368019

>  <DOI>
10.1016/j.bmcl.2006.12.043

$$$$
410044
Actelion Java MolfileCreator 1.0

 22 24  0  0  1  0  0  0  0  0999 V2000
    0.0000   -0.0000   -0.0000 O   0  0  0  0  0  0  0  0  0  0  0  0
   -0.0119   -1.4858   -0.0000 C   0  0  0  0  0  0  0  0  0  0  0  0
   -1.3194   -2.2228   -0.0000 N   0  0  0  0  0  0  0  0  0  0  0  0
    1.2719   -2.2228   -0.0000 C   0  0  0  0  0  0  0  0  0  0  0  0
   -1.3313   -3.7086   -0.0000 C   0  0  0  0  0  0  0  0  0  0  0  0
   -2.6269   -1.4621   -0.0000 C   0  0  0  0  0  0  0  0  0  0  0  0
    1.2600   -3.7086   -0.0000 O   0  0  0  0  0  0  0  0  0  0  0  0
    2.5556   -1.4621   -0.0000 C   0  0  0  0  0  0  0  0  0  0  0  0
   -2.6388   -4.4456   -0.0000 C   0  0  0  0  0  0  0  0  0  0  0  0
   -3.9464   -2.1990   -0.0000 C   0  0  0  0  0  0  0  0  0  0  0  0
    3.8394   -2.1990   -0.0000 C   0  0  0  0  0  0  0  0  0  0  0  0
    2.5437    0.0475   -0.0000 C   0  0  0  0  0  0  0  0  0  0  0  0
   -3.9464   -3.6848   -0.0000 N   0  0  0  0  0  0  0  0  0  0  0  0
   -5.2539   -4.4218   -0.0000 C   0  0  0  0  0  0  0  0  0  0  0  0
   -6.5733   -3.6730   -0.0000 C   0  0  0  0  0  0  0  0  0  0  0  0
   -5.2658   -5.9195   -0.0000 C   0  0  0  0  0  0  0  0  0  0  0  0
   -7.8689   -4.4099   -0.0000 C   0  0  0  0  0  0  0  0  0  0  0  0
   -6.5852   -6.6565   -0.0000 C   0  0  0  0  0  0  0  0  0  0  0  0
   -7.8808   -5.9076   -0.0000 C   0  0  0  0  0  0  0  0  0  0  0  0
   -9.3072   -3.9345   -0.0000 C   0  0  0  0  0  0  0  0  0  0  0  0
   -9.3310   -6.3593   -0.0000 N   0  0  0  0  0  0  0  0  0  0  0  0
  -10.2106   -5.1350   -0.0000 N   0  0  0  0  0  0  0  0  0  0  0  0
  1  2  2  0  0  0  0
  2  3  1  0  0  0  0
  2  4  1  0  0  0  0
  3  5  1  0  0  0  0
  3  6  1  0  0  0  0
  4  7  1  1  0  0  0
  4  8  1  0  0  0  0
  5  9  1  0  0  0  0
  6 10  1  0  0  0  0
  8 11  1  0  0  0  0
  8 12  1  0  0  0  0
  9 13  1  0  0  0  0
 13 14  1  0  0  0  0
 14 15  2  0  0  0  0
 14 16  1  0  0  0  0
 15 17  1  0  0  0  0
 16 18  2  0  0  0  0
 17 19  2  0  0  0  0
 17 20  1  0  0  0  0
 19 21  1  0  0  0  0
 20 22  2  0  0  0  0
 10 13  1  0  0  0  0
 18 19  1  0  0  0  0
 21 22  1  0  0  0  0
M  END
>  <MolRegNo>
410044

>  <m>
=

>  <Value>
10000

>  <Unit>
nM

>  <Type>
IC50

>  <pValue>
5

>  <Ligand Efficiency>
0

>  <Binding Efficiency>
0

>  <Surface Efficiency>
0

>  <Assay Index>
303956

>  <Assay Category>


>  <Assay Organism>


>  <Target ID>
17045

>  <Target Name>
Cytochrome P450 3A4

>  <Target Organism>
Homo sapiens

>  <Target Description>
Target is a single protein chain

>  <Sequence Accession>
P08684

>  <Reference>
Bioorg Med Chem Lett 17 (8), 2355-2360 (2007)

>  <Pubmed ID>
17368019

>  <DOI>
10.1016/j.bmcl.2006.12.043

$$$$
410040
Actelion Java MolfileCreator 1.0

 26 29  0  0  0  0  0  0  0  0999 V2000
    0.0000   -0.0000   -0.0000 Cl  0  0  0  0  0  0  0  0  0  0  0  0
   -1.3050   -0.7355   -0.0000 C   0  0  0  0  0  0  0  0  0  0  0  0
   -1.3168   -2.2184   -0.0000 C   0  0  0  0  0  0  0  0  0  0  0  0
   -2.6218    0.0237   -0.0000 C   0  0  0  0  0  0  0  0  0  0  0  0
   -2.6218   -2.9540   -0.0000 C   0  0  0  0  0  0  0  0  0  0  0  0
   -3.9268   -0.7118   -0.0000 C   0  0  0  0  0  0  0  0  0  0  0  0
   -3.9386   -2.1947   -0.0000 C   0  0  0  0  0  0  0  0  0  0  0  0
   -5.2436   -2.9302   -0.0000 C   0  0  0  0  0  0  0  0  0  0  0  0
   -5.2555   -4.4132   -0.0000 O   0  0  0  0  0  0  0  0  0  0  0  0
   -6.5486   -2.1710   -0.0000 C   0  0  0  0  0  0  0  0  0  0  0  0
   -6.5604   -0.6643   -0.0000 O   0  0  0  0  0  0  0  0  0  0  0  0
   -7.8535   -2.9065   -0.0000 N   0  0  0  0  0  0  0  0  0  0  0  0
   -7.8654   -4.3894   -0.0000 C   0  0  0  0  0  0  0  0  0  0  0  0
   -9.1585   -2.1473   -0.0000 C   0  0  0  0  0  0  0  0  0  0  0  0
   -9.1704   -5.1250   -0.0000 C   0  0  0  0  0  0  0  0  0  0  0  0
  -10.4635   -2.8828   -0.0000 C   0  0  0  0  0  0  0  0  0  0  0  0
  -10.4753   -4.3657   -0.0000 N   0  0  0  0  0  0  0  0  0  0  0  0
  -11.7803   -5.1012   -0.0000 C   0  0  0  0  0  0  0  0  0  0  0  0
  -13.0971   -4.3539   -0.0000 C   0  0  0  0  0  0  0  0  0  0  0  0
  -11.7922   -6.5960   -0.0000 C   0  0  0  0  0  0  0  0  0  0  0  0
  -14.3902   -5.0894   -0.0000 C   0  0  0  0  0  0  0  0  0  0  0  0
  -13.1090   -7.3316   -0.0000 C   0  0  0  0  0  0  0  0  0  0  0  0
  -14.4021   -6.5842   -0.0000 C   0  0  0  0  0  0  0  0  0  0  0  0
  -15.8257   -4.6148   -0.0000 C   0  0  0  0  0  0  0  0  0  0  0  0
  -15.8494   -7.0350   -0.0000 N   0  0  0  0  0  0  0  0  0  0  0  0
  -16.7273   -5.8130   -0.0000 N   0  0  0  0  0  0  0  0  0  0  0  0
  1  2  1  0  0  0  0
  2  3  2  0  0  0  0
  2  4  1  0  0  0  0
  3  5  1  0  0  0  0
  4  6  2  0  0  0  0
  5  7  2  0  0  0  0
  7  8  1  0  0  0  0
  8  9  1  0  0  0  0
  8 10  1  0  0  0  0
 10 11  2  0  0  0  0
 10 12  1  0  0  0  0
 12 13  1  0  0  0  0
 12 14  1  0  0  0  0
 13 15  1  0  0  0  0
 14 16  1  0  0  0  0
 15 17  1  0  0  0  0
 17 18  1  0  0  0  0
 18 19  2  0  0  0  0
 18 20  1  0  0  0  0
 19 21  1  0  0  0  0
 20 22  2  0  0  0  0
 21 23  2  0  0  0  0
 21 24  1  0  0  0  0
 23 25  1  0  0  0  0
 24 26  2  0  0  0  0
  6  7  1  0  0  0  0
 16 17  1  0  0  0  0
 22 23  1  0  0  0  0
 25 26  1  0  0  0  0
M  END
>  <MolRegNo>
410040

>  <m>
=

>  <Value>
3000

>  <Unit>
nM

>  <Type>
IC50

>  <pValue>
5.52

>  <Ligand Efficiency>
0

>  <Binding Efficiency>
0

>  <Surface Efficiency>
0

>  <Assay Index>
303956

>  <Assay Category>


>  <Assay Organism>


>  <Target ID>
17045

>  <Target Name>
Cytochrome P450 3A4

>  <Target Organism>
Homo sapiens

>  <Target Description>
Target is a single protein chain

>  <Sequence Accession>
P08684

>  <Reference>
Bioorg Med Chem Lett 17 (8), 2355-2360 (2007)

>  <Pubmed ID>
17368019

>  <DOI>
10.1016/j.bmcl.2006.12.043

$$$$
410038
Actelion Java MolfileCreator 1.0

 26 29  0  0  1  0  0  0  0  0999 V2000
    0.0000   -0.0000   -0.0000 Cl  0  0  0  0  0  0  0  0  0  0  0  0
   -1.3034    0.7583   -0.0000 C   0  0  0  0  0  0  0  0  0  0  0  0
   -2.6067    0.0237   -0.0000 C   0  0  0  0  0  0  0  0  0  0  0  0
   -1.3152    2.2631   -0.0000 C   0  0  0  0  0  0  0  0  0  0  0  0
   -3.9220    0.7820   -0.0000 C   0  0  0  0  0  0  0  0  0  0  0  0
   -2.6304    3.0215   -0.0000 C   0  0  0  0  0  0  0  0  0  0  0  0
   -3.9338    2.2750   -0.0000 C   0  0  0  0  0  0  0  0  0  0  0  0
   -5.2253    0.0474   -0.0000 C   0  0  0  0  0  0  0  0  0  0  0  0
   -5.2372   -1.4337   -0.0000 O   0  0  0  0  0  0  0  0  0  0  0  0
   -6.5287    0.8057   -0.0000 C   0  0  0  0  0  0  0  0  0  0  0  0
   -6.5406    2.3105   -0.0000 O   0  0  0  0  0  0  0  0  0  0  0  0
   -7.8321    0.0711   -0.0000 N   0  0  0  0  0  0  0  0  0  0  0  0
   -7.8439   -1.4100   -0.0000 C   0  0  0  0  0  0  0  0  0  0  0  0
   -9.1355    0.8294   -0.0000 C   0  0  0  0  0  0  0  0  0  0  0  0
   -9.1473   -2.1446   -0.0000 C   0  0  0  0  0  0  0  0  0  0  0  0
  -10.4388    0.0948   -0.0000 C   0  0  0  0  0  0  0  0  0  0  0  0
  -10.4507   -1.3863   -0.0000 N   0  0  0  0  0  0  0  0  0  0  0  0
  -11.7541   -2.1209   -0.0000 C   0  0  0  0  0  0  0  0  0  0  0  0
  -13.0693   -1.3745   -0.0000 C   0  0  0  0  0  0  0  0  0  0  0  0
  -11.7659   -3.6139   -0.0000 C   0  0  0  0  0  0  0  0  0  0  0  0
  -14.3608   -2.1091   -0.0000 C   0  0  0  0  0  0  0  0  0  0  0  0
  -13.0811   -4.3485   -0.0000 C   0  0  0  0  0  0  0  0  0  0  0  0
  -14.3727   -3.6021   -0.0000 C   0  0  0  0  0  0  0  0  0  0  0  0
  -15.7945   -1.6351   -0.0000 C   0  0  0  0  0  0  0  0  0  0  0  0
  -15.8182   -4.0523   -0.0000 N   0  0  0  0  0  0  0  0  0  0  0  0
  -16.6950   -2.8319   -0.0000 N   0  0  0  0  0  0  0  0  0  0  0  0
  1  2  1  0  0  0  0
  2  3  2  0  0  0  0
  2  4  1  0  0  0  0
  3  5  1  0  0  0  0
  4  6  2  0  0  0  0
  5  7  2  0  0  0  0
  5  8  1  0  0  0  0
  8  9  1  1  0  0  0
  8 10  1  0  0  0  0
 10 11  2  0  0  0  0
 10 12  1  0  0  0  0
 12 13  1  0  0  0  0
 12 14  1  0  0  0  0
 13 15  1  0  0  0  0
 14 16  1  0  0  0  0
 15 17  1  0  0  0  0
 17 18  1  0  0  0  0
 18 19  2  0  0  0  0
 18 20  1  0  0  0  0
 19 21  1  0  0  0  0
 20 22  2  0  0  0  0
 21 23  2  0  0  0  0
 21 24  1  0  0  0  0
 23 25  1  0  0  0  0
 24 26  2  0  0  0  0
  6  7  1  0  0  0  0
 16 17  1  0  0  0  0
 22 23  1  0  0  0  0
 25 26  1  0  0  0  0
M  END
>  <MolRegNo>
410038

>  <m>
=

>  <Value>
3500

>  <Unit>
nM

>  <Type>
IC50

>  <pValue>
5.46

>  <Ligand Efficiency>
0

>  <Binding Efficiency>
0

>  <Surface Efficiency>
0

>  <Assay Index>
303956

>  <Assay Category>


>  <Assay Organism>


>  <Target ID>
17045

>  <Target Name>
Cytochrome P450 3A4

>  <Target Organism>
Homo sapiens

>  <Target Description>
Target is a single protein chain

>  <Sequence Accession>
P08684

>  <Reference>
Bioorg Med Chem Lett 17 (8), 2355-2360 (2007)

>  <Pubmed ID>
17368019

>  <DOI>
10.1016/j.bmcl.2006.12.043

$$$$
415472
Actelion Java MolfileCreator 1.0

 40 45  0  0  0  0  0  0  0  0999 V2000
    0.0000   -0.0000   -0.0000 O   0  0  0  0  0  0  0  0  0  0  0  0
   -1.3062   -0.7362   -0.0000 C   0  0  0  0  0  0  0  0  0  0  0  0
   -2.6244    0.0356   -0.0000 N   0  0  0  0  0  0  0  0  0  0  0  0
   -1.3181   -2.2325   -0.0000 C   0  0  0  0  0  0  0  0  0  0  0  0
   -3.9306   -0.7125   -0.0000 C   0  0  0  0  0  0  0  0  0  0  0  0
   -2.6362    1.5437   -0.0000 C   0  0  0  0  0  0  0  0  0  0  0  0
   -2.6362   -2.9687   -0.0000 O   0  0  0  0  0  0  0  0  0  0  0  0
   -3.9425   -2.2087   -0.0000 C   0  0  0  0  0  0  0  0  0  0  0  0
   -5.2368    0.0356   -0.0000 C   0  0  0  0  0  0  0  0  0  0  0  0
   -1.3537    2.3037   -0.0000 C   0  0  0  0  0  0  0  0  0  0  0  0
   -5.2487   -2.9331   -0.0000 C   0  0  0  0  0  0  0  0  0  0  0  0
   -6.5312   -0.7006   -0.0000 C   0  0  0  0  0  0  0  0  0  0  0  0
   -1.3775    3.8000   -0.0000 C   0  0  0  0  0  0  0  0  0  0  0  0
   -6.5550   -2.1731   -0.0000 C   0  0  0  0  0  0  0  0  0  0  0  0
   -7.8374    0.0594   -0.0000 C   0  0  0  0  0  0  0  0  0  0  0  0
   -0.1069    4.5600   -0.0000 C   0  0  0  0  0  0  0  0  0  0  0  0
   -2.6837    4.5243   -0.0000 C   0  0  0  0  0  0  0  0  0  0  0  0
   -9.1437   -0.6769   -0.0000 N   0  0  0  0  0  0  0  0  0  0  0  0
   -0.1306    6.0562   -0.0000 C   0  0  0  0  0  0  0  0  0  0  0  0
   -2.7194    6.0206   -0.0000 C   0  0  0  0  0  0  0  0  0  0  0  0
   -9.1556   -2.1612   -0.0000 C   0  0  0  0  0  0  0  0  0  0  0  0
  -10.4499    0.0831   -0.0000 C   0  0  0  0  0  0  0  0  0  0  0  0
   -1.4369    6.8043   -0.0000 C   0  0  0  0  0  0  0  0  0  0  0  0
  -10.4499   -2.8975   -0.0000 C   0  0  0  0  0  0  0  0  0  0  0  0
  -11.7562   -0.6531   -0.0000 C   0  0  0  0  0  0  0  0  0  0  0  0
  -11.7562   -2.1375   -0.0000 N   0  0  0  0  0  0  0  0  0  0  0  0
  -13.0624   -2.8737   -0.0000 C   0  0  0  0  0  0  0  0  0  0  0  0
  -14.3687   -2.1256   -0.0000 C   0  0  0  0  0  0  0  0  0  0  0  0
  -15.6749   -2.8619   -0.0000 O   0  0  0  0  0  0  0  0  0  0  0  0
  -16.9811   -2.1137   -0.0000 C   0  0  0  0  0  0  0  0  0  0  0  0
  -17.0049   -0.6056   -0.0000 C   0  0  0  0  0  0  0  0  0  0  0  0
  -18.2874   -2.8500   -0.0000 C   0  0  0  0  0  0  0  0  0  0  0  0
  -18.3111    0.1544   -0.0000 C   0  0  0  0  0  0  0  0  0  0  0  0
  -15.7343    0.1544   -0.0000 C   0  0  0  0  0  0  0  0  0  0  0  0
  -19.5936   -2.0900   -0.0000 C   0  0  0  0  0  0  0  0  0  0  0  0
  -18.3230    1.6506   -0.0000 N   0  0  0  0  0  0  0  0  0  0  0  0
  -19.6174   -0.5819   -0.0000 C   0  0  0  0  0  0  0  0  0  0  0  0
  -15.7461    1.6506   -0.0000 C   0  0  0  0  0  0  0  0  0  0  0  0
  -17.0524    2.4106   -0.0000 C   0  0  0  0  0  0  0  0  0  0  0  0
  -17.0761    3.9187   -0.0000 C   0  0  0  0  0  0  0  0  0  0  0  0
  1  2  2  0  0  0  0
  2  3  1  0  0  0  0
  2  4  1  0  0  0  0
  3  5  1  0  0  0  0
  3  6  1  0  0  0  0
  4  7  1  0  0  0  0
  5  8  2  0  0  0  0
  5  9  1  0  0  0  0
  6 10  1  0  0  0  0
  8 11  1  0  0  0  0
  9 12  2  0  0  0  0
 10 13  1  0  0  0  0
 11 14  2  0  0  0  0
 12 15  1  0  0  0  0
 13 16  2  0  0  0  0
 13 17  1  0  0  0  0
 15 18  1  0  0  0  0
 16 19  1  0  0  0  0
 17 20  2  0  0  0  0
 18 21  1  0  0  0  0
 18 22  1  0  0  0  0
 19 23  2  0  0  0  0
 21 24  1  0  0  0  0
 22 25  1  0  0  0  0
 24 26  1  0  0  0  0
 26 27  1  0  0  0  0
 27 28  1  0  0  0  0
 28 29  1  0  0  0  0
 29 30  1  0  0  0  0
 30 31  1  0  0  0  0
 30 32  2  0  0  0  0
 31 33  1  0  0  0  0
 31 34  2  0  0  0  0
 32 35  1  0  0  0  0
 33 36  2  0  0  0  0
 33 37  1  0  0  0  0
 34 38  1  0  0  0  0
 36 39  1  0  0  0  0
 39 40  1  0  0  0  0
  7  8  1  0  0  0  0
 12 14  1  0  0  0  0
 20 23  1  0  0  0  0
 25 26  1  0  0  0  0
 35 37  2  0  0  0  0
 38 39  2  0  0  0  0
M  END
>  <MolRegNo>
415472

>  <m>
=

>  <Value>
9000

>  <Unit>
nM

>  <Type>
IC50

>  <pValue>
5.05

>  <Ligand Efficiency>
0

>  <Binding Efficiency>
0

>  <Surface Efficiency>
0

>  <Assay Index>
305836

>  <Assay Category>


>  <Assay Organism>


>  <Target ID>
17045

>  <Target Name>
Cytochrome P450 3A4

>  <Target Organism>
Homo sapiens

>  <Target Description>
Target is a single protein chain

>  <Sequence Accession>
P08684

>  <Reference>
Bioorg Med Chem Lett 17 (18), 5214-5217 (2007)

>  <Pubmed ID>
17629698

>  <DOI>
10.1016/j.bmcl.2007.06.078

$$$$
415468
Actelion Java MolfileCreator 1.0

 39 44  0  0  0  0  0  0  0  0999 V2000
    0.0000   -0.0000   -0.0000 O   0  0  0  0  0  0  0  0  0  0  0  0
   -1.3071   -0.7367   -0.0000 C   0  0  0  0  0  0  0  0  0  0  0  0
   -2.6261    0.0356   -0.0000 N   0  0  0  0  0  0  0  0  0  0  0  0
   -1.3190   -2.2340   -0.0000 C   0  0  0  0  0  0  0  0  0  0  0  0
   -3.9332   -0.7130   -0.0000 C   0  0  0  0  0  0  0  0  0  0  0  0
   -2.6380    1.5448   -0.0000 C   0  0  0  0  0  0  0  0  0  0  0  0
   -2.6380   -2.9707   -0.0000 O   0  0  0  0  0  0  0  0  0  0  0  0
   -3.9451   -2.2102   -0.0000 C   0  0  0  0  0  0  0  0  0  0  0  0
   -5.2404    0.0356   -0.0000 C   0  0  0  0  0  0  0  0  0  0  0  0
   -1.3547    2.3053   -0.0000 C   0  0  0  0  0  0  0  0  0  0  0  0
   -5.2522   -2.9351   -0.0000 C   0  0  0  0  0  0  0  0  0  0  0  0
   -6.5356   -0.7011   -0.0000 C   0  0  0  0  0  0  0  0  0  0  0  0
   -0.0832    1.5685   -0.0000 C   0  0  0  0  0  0  0  0  0  0  0  0
   -1.3784    3.8025   -0.0000 C   0  0  0  0  0  0  0  0  0  0  0  0
   -6.5594   -2.1746   -0.0000 C   0  0  0  0  0  0  0  0  0  0  0  0
   -7.8427    0.0594   -0.0000 C   0  0  0  0  0  0  0  0  0  0  0  0
    1.2002    2.3290   -0.0000 C   0  0  0  0  0  0  0  0  0  0  0  0
   -0.1069    4.5630   -0.0000 C   0  0  0  0  0  0  0  0  0  0  0  0
   -9.1498   -0.6773   -0.0000 N   0  0  0  0  0  0  0  0  0  0  0  0
    1.1883    3.8382   -0.0000 C   0  0  0  0  0  0  0  0  0  0  0  0
   -9.1617   -2.1627   -0.0000 C   0  0  0  0  0  0  0  0  0  0  0  0
  -10.4570    0.0832   -0.0000 C   0  0  0  0  0  0  0  0  0  0  0  0
  -10.4570   -2.8994   -0.0000 C   0  0  0  0  0  0  0  0  0  0  0  0
  -11.7641   -0.6536   -0.0000 C   0  0  0  0  0  0  0  0  0  0  0  0
  -11.7641   -2.1389   -0.0000 N   0  0  0  0  0  0  0  0  0  0  0  0
  -13.0712   -2.8757   -0.0000 C   0  0  0  0  0  0  0  0  0  0  0  0
  -14.3783   -2.1270   -0.0000 C   0  0  0  0  0  0  0  0  0  0  0  0
  -15.6854   -2.8638   -0.0000 O   0  0  0  0  0  0  0  0  0  0  0  0
  -16.9926   -2.1152   -0.0000 C   0  0  0  0  0  0  0  0  0  0  0  0
  -17.0163   -0.6060   -0.0000 C   0  0  0  0  0  0  0  0  0  0  0  0
  -18.2997   -2.8519   -0.0000 C   0  0  0  0  0  0  0  0  0  0  0  0
  -18.3234    0.1545   -0.0000 C   0  0  0  0  0  0  0  0  0  0  0  0
  -15.7448    0.1545   -0.0000 C   0  0  0  0  0  0  0  0  0  0  0  0
  -19.6068   -2.0914   -0.0000 C   0  0  0  0  0  0  0  0  0  0  0  0
  -18.3353    1.6517   -0.0000 N   0  0  0  0  0  0  0  0  0  0  0  0
  -19.6306   -0.5823   -0.0000 C   0  0  0  0  0  0  0  0  0  0  0  0
  -15.7567    1.6517   -0.0000 C   0  0  0  0  0  0  0  0  0  0  0  0
  -17.0638    2.4122   -0.0000 C   0  0  0  0  0  0  0  0  0  0  0  0
  -17.0876    3.9214   -0.0000 C   0  0  0  0  0  0  0  0  0  0  0  0
  1  2  2  0  0  0  0
  2  3  1  0  0  0  0
  2  4  1  0  0  0  0
  3  5  1  0  0  0  0
  3  6  1  0  0  0  0
  4  7  1  0  0  0  0
  5  8  2  0  0  0  0
  5  9  1  0  0  0  0
  6 10  1  0  0  0  0
  8 11  1  0  0  0  0
  9 12  2  0  0  0  0
 10 13  2  0  0  0  0
 10 14  1  0  0  0  0
 11 15  2  0  0  0  0
 12 16  1  0  0  0  0
 13 17  1  0  0  0  0
 14 18  2  0  0  0  0
 16 19  1  0  0  0  0
 17 20  2  0  0  0  0
 19 21  1  0  0  0  0
 19 22  1  0  0  0  0
 21 23  1  0  0  0  0
 22 24  1  0  0  0  0
 23 25  1  0  0  0  0
 25 26  1  0  0  0  0
 26 27  1  0  0  0  0
 27 28  1  0  0  0  0
 28 29  1  0  0  0  0
 29 30  1  0  0  0  0
 29 31  2  0  0  0  0
 30 32  1  0  0  0  0
 30 33  2  0  0  0  0
 31 34  1  0  0  0  0
 32 35  2  0  0  0  0
 32 36  1  0  0  0  0
 33 37  1  0  0  0  0
 35 38  1  0  0  0  0
 38 39  1  0  0  0  0
  7  8  1  0  0  0  0
 12 15  1  0  0  0  0
 18 20  1  0  0  0  0
 24 25  1  0  0  0  0
 34 36  2  0  0  0  0
 37 38  2  0  0  0  0
M  END
>  <MolRegNo>
415468

>  <m>
=

>  <Value>
12000

>  <Unit>
nM

>  <Type>
IC50

>  <pValue>
4.92

>  <Ligand Efficiency>
0

>  <Binding Efficiency>
0

>  <Surface Efficiency>
0

>  <Assay Index>
305836

>  <Assay Category>


>  <Assay Organism>


>  <Target ID>
17045

>  <Target Name>
Cytochrome P450 3A4

>  <Target Organism>
Homo sapiens

>  <Target Description>
Target is a single protein chain

>  <Sequence Accession>
P08684

>  <Reference>
Bioorg Med Chem Lett 17 (18), 5214-5217 (2007)

>  <Pubmed ID>
17629698

>  <DOI>
10.1016/j.bmcl.2007.06.078

$$$$
416119
Actelion Java MolfileCreator 1.0

 37 41  0  0  1  0  0  0  0  0999 V2000
    0.0000   -0.0000   -0.0000 Cl  0  0  0  0  0  0  0  0  0  0  0  0
    1.1020   -1.0072   -0.0000 C   0  0  0  0  0  0  0  0  0  0  0  0
    2.5714   -0.6991   -0.0000 S   0  0  0  0  0  0  0  0  0  0  0  0
    0.9243   -2.4884   -0.0000 C   0  0  0  0  0  0  0  0  0  0  0  0
    3.3060   -2.0026   -0.0000 C   0  0  0  0  0  0  0  0  0  0  0  0
    2.2870   -3.1046   -0.0000 C   0  0  0  0  0  0  0  0  0  0  0  0
    4.7991   -2.1566   -0.0000 C   0  0  0  0  0  0  0  0  0  0  0  0
    5.8063   -1.0309   -0.0000 S   0  0  0  0  0  0  0  0  0  0  0  0
    5.5338   -3.4601   -0.0000 C   0  0  0  0  0  0  0  0  0  0  0  0
    7.1690   -1.6352   -0.0000 C   0  0  0  0  0  0  0  0  0  0  0  0
    7.0031   -3.1520   -0.0000 C   0  0  0  0  0  0  0  0  0  0  0  0
    8.4725   -0.8769   -0.0000 C   0  0  0  0  0  0  0  0  0  0  0  0
    9.7641   -1.6352   -0.0000 C   0  0  0  0  0  0  0  0  0  0  0  0
   11.0675   -0.8769   -0.0000 S   0  0  0  0  0  0  0  0  0  0  0  0
   10.4158    0.4977   -0.0000 O   0  0  0  0  0  0  0  0  0  0  0  0
   11.6955   -2.2277   -0.0000 O   0  0  0  0  0  0  0  0  0  0  0  0
   12.4658   -0.3318   -0.0000 N   0  0  0  0  0  0  0  0  0  0  0  0
   13.6270   -1.2679   -0.0000 C   0  0  0  0  0  0  0  0  0  0  0  0
   15.0253   -0.7228   -0.0000 C   0  0  0  0  0  0  0  0  0  0  0  0
   16.2695   -1.5404   -0.0000 C   0  0  0  0  0  0  0  0  0  0  0  0
   15.4045    0.7465   -0.0000 C   0  0  0  0  0  0  0  0  0  0  0  0
   17.4307   -0.5806   -0.0000 N   0  0  0  0  0  0  0  0  0  0  0  0
   16.8975    0.8295   -0.0000 C   0  0  0  0  0  0  0  0  0  0  0  0
   18.8764   -0.9598   -0.0000 C   0  0  0  0  0  0  0  0  0  0  0  0
   19.9310    0.1185   -0.0000 O   0  0  0  0  0  0  0  0  0  0  0  0
   19.2437   -2.4055   -0.0000 C   0  0  0  0  0  0  0  0  0  0  0  0
   18.1536   -3.4601   -0.0000 C   0  0  0  0  0  0  0  0  0  0  0  0
   20.6775   -2.7847   -0.0000 C   0  0  0  0  0  0  0  0  0  0  0  0
   18.5209   -4.9057   -0.0000 C   0  0  0  0  0  0  0  0  0  0  0  0
   21.0449   -4.2421   -0.0000 C   0  0  0  0  0  0  0  0  0  0  0  0
   19.9665   -5.2968   -0.0000 N   0  0  0  0  0  0  0  0  0  0  0  0
   20.3339   -6.7424   -0.0000 C   0  0  0  0  0  0  0  0  0  0  0  0
   19.2437   -7.7852   -0.0000 C   0  0  0  0  0  0  0  0  0  0  0  0
   21.7677   -7.1334   -0.0000 C   0  0  0  0  0  0  0  0  0  0  0  0
   19.6111   -9.2308   -0.0000 C   0  0  0  0  0  0  0  0  0  0  0  0
   22.1350   -8.5791   -0.0000 C   0  0  0  0  0  0  0  0  0  0  0  0
   21.0567   -9.6219   -0.0000 N   0  0  0  0  0  0  0  0  0  0  0  0
  1  2  1  0  0  0  0
  2  3  1  0  0  0  0
  2  4  2  0  0  0  0
  3  5  1  0  0  0  0
  4  6  1  0  0  0  0
  5  7  1  0  0  0  0
  7  8  1  0  0  0  0
  7  9  2  0  0  0  0
  8 10  1  0  0  0  0
  9 11  1  0  0  0  0
 10 12  1  0  0  0  0
 12 13  2  0  0  0  0
 13 14  1  0  0  0  0
 14 15  2  0  0  0  0
 14 16  2  0  0  0  0
 14 17  1  0  0  0  0
 17 18  1  0  0  0  0
 19 18  1  6  0  0  0
 19 20  1  0  0  0  0
 19 21  1  0  0  0  0
 20 22  1  0  0  0  0
 21 23  1  0  0  0  0
 22 24  1  0  0  0  0
 24 25  2  0  0  0  0
 24 26  1  0  0  0  0
 26 27  1  0  0  0  0
 26 28  1  0  0  0  0
 27 29  1  0  0  0  0
 28 30  1  0  0  0  0
 29 31  1  0  0  0  0
 31 32  1  0  0  0  0
 32 33  2  0  0  0  0
 32 34  1  0  0  0  0
 33 35  1  0  0  0  0
 34 36  2  0  0  0  0
 35 37  2  0  0  0  0
  5  6  2  0  0  0  0
 10 11  2  0  0  0  0
 22 23  1  0  0  0  0
 30 31  1  0  0  0  0
 36 37  1  0  0  0  0
M  END
>  <MolRegNo>
416119

>  <m>
=

>  <Value>
2330

>  <Unit>
nM

>  <Type>
IC50

>  <pValue>
5.63

>  <Ligand Efficiency>
0

>  <Binding Efficiency>
0

>  <Surface Efficiency>
0

>  <Assay Index>
306593

>  <Assay Category>


>  <Assay Organism>


>  <Target ID>
17045

>  <Target Name>
Cytochrome P450 3A4

>  <Target Organism>
Homo sapiens

>  <Target Description>
Target is a single protein chain

>  <Sequence Accession>
P08684

>  <Reference>
Bioorg Med Chem Lett 17 (21), 5952-5958 (2007)

>  <Pubmed ID>
17855089

>  <DOI>
10.1016/j.bmcl.2007.07.063

$$$$
413869
Actelion Java MolfileCreator 1.0

 35 39  0  0  1  0  0  0  0  0999 V2000
    0.0000   -0.0000   -0.0000 Cl  0  0  0  0  0  0  0  0  0  0  0  0
    0.0000    1.5092   -0.0000 C   0  0  0  0  0  0  0  0  0  0  0  0
   -1.2953    2.2816   -0.0000 C   0  0  0  0  0  0  0  0  0  0  0  0
    1.2953    2.2578   -0.0000 C   0  0  0  0  0  0  0  0  0  0  0  0
   -1.2953    3.7788   -0.0000 C   0  0  0  0  0  0  0  0  0  0  0  0
    1.2953    3.7551   -0.0000 C   0  0  0  0  0  0  0  0  0  0  0  0
    0.0000    4.5275   -0.0000 C   0  0  0  0  0  0  0  0  0  0  0  0
    0.0000    6.0366   -0.0000 S   0  0  0  0  0  0  0  0  0  0  0  0
    1.4854    6.0366   -0.0000 O   0  0  0  0  0  0  0  0  0  0  0  0
   -1.5092    6.0485   -0.0000 O   0  0  0  0  0  0  0  0  0  0  0  0
   -0.0119    7.5458   -0.0000 N   0  0  0  0  0  0  0  0  0  0  0  0
   -1.3190    8.3063   -0.0000 C   0  0  0  0  0  0  0  0  0  0  0  0
    1.2834    8.3063   -0.0000 C   0  0  0  0  0  0  0  0  0  0  0  0
   -2.6262    7.5696   -0.0000 C   0  0  0  0  0  0  0  0  0  0  0  0
   -1.3309    9.8273   -0.0000 C   0  0  0  0  0  0  0  0  0  0  0  0
    1.2715    9.8273   -0.0000 C   0  0  0  0  0  0  0  0  0  0  0  0
    2.5668    7.5696   -0.0000 C   0  0  0  0  0  0  0  0  0  0  0  0
   -4.1353    7.5814   -0.0000 C   0  0  0  0  0  0  0  0  0  0  0  0
   -3.3867    6.2862   -0.0000 C   0  0  0  0  0  0  0  0  0  0  0  0
   -0.0475   10.5997   -0.0000 C   0  0  0  0  0  0  0  0  0  0  0  0
    3.8620    8.3301   -0.0000 O   0  0  0  0  0  0  0  0  0  0  0  0
    5.1454    7.5933   -0.0000 C   0  0  0  0  0  0  0  0  0  0  0  0
    5.1335    6.1079   -0.0000 O   0  0  0  0  0  0  0  0  0  0  0  0
    6.4407    8.3538   -0.0000 N   0  0  0  0  0  0  0  0  0  0  0  0
    7.7240    7.6171   -0.0000 C   0  0  0  0  0  0  0  0  0  0  0  0
    6.4288    9.8630   -0.0000 C   0  0  0  0  0  0  0  0  0  0  0  0
    9.0074    8.3657   -0.0000 C   0  0  0  0  0  0  0  0  0  0  0  0
    7.7240   10.6235   -0.0000 C   0  0  0  0  0  0  0  0  0  0  0  0
    9.0074    9.8749   -0.0000 C   0  0  0  0  0  0  0  0  0  0  0  0
   10.3027   10.6354   -0.0000 N   0  0  0  0  0  0  0  0  0  0  0  0
   11.5860    9.8868   -0.0000 C   0  0  0  0  0  0  0  0  0  0  0  0
   10.2908   12.1446   -0.0000 C   0  0  0  0  0  0  0  0  0  0  0  0
   12.8694   10.6354   -0.0000 C   0  0  0  0  0  0  0  0  0  0  0  0
   11.5860   12.8932   -0.0000 C   0  0  0  0  0  0  0  0  0  0  0  0
   12.8694   12.1446   -0.0000 C   0  0  0  0  0  0  0  0  0  0  0  0
  1  2  1  0  0  0  0
  2  3  2  0  0  0  0
  2  4  1  0  0  0  0
  3  5  1  0  0  0  0
  4  6  2  0  0  0  0
  5  7  2  0  0  0  0
  7  8  1  0  0  0  0
  8  9  2  0  0  0  0
  8 10  2  0  0  0  0
  8 11  1  0  0  0  0
 11 12  1  0  0  0  0
 11 13  1  0  0  0  0
 12 14  1  6  0  0  0
 12 15  1  0  0  0  0
 13 16  1  0  0  0  0
 13 17  1  6  0  0  0
 14 18  1  0  0  0  0
 14 19  1  0  0  0  0
 15 20  1  0  0  0  0
 17 21  1  0  0  0  0
 21 22  1  0  0  0  0
 22 23  2  0  0  0  0
 22 24  1  0  0  0  0
 24 25  1  0  0  0  0
 24 26  1  0  0  0  0
 25 27  1  0  0  0  0
 26 28  1  0  0  0  0
 27 29  1  0  0  0  0
 29 30  1  0  0  0  0
 30 31  1  0  0  0  0
 30 32  1  0  0  0  0
 31 33  1  0  0  0  0
 32 34  1  0  0  0  0
 33 35  1  0  0  0  0
  6  7  1  0  0  0  0
 16 20  1  0  0  0  0
 18 19  1  0  0  0  0
 28 29  1  0  0  0  0
 34 35  1  0  0  0  0
M  END
>  <MolRegNo>
413869

>  <m>
=

>  <Value>
1200

>  <Unit>
nM

>  <Type>
IC50

>  <pValue>
5.92

>  <Ligand Efficiency>
0

>  <Binding Efficiency>
0

>  <Surface Efficiency>
0

>  <Assay Index>
306991

>  <Assay Category>


>  <Assay Organism>


>  <Target ID>
17045

>  <Target Name>
Cytochrome P450 3A4

>  <Target Organism>
Homo sapiens

>  <Target Description>
Target is a single protein chain

>  <Sequence Accession>
P08684

>  <Reference>
Bioorg Med Chem Lett 17 (22), 6290-6294 (2007)

>  <Pubmed ID>
17890085

>  <DOI>
10.1016/j.bmcl.2007.09.006

$$$$
413898
Actelion Java MolfileCreator 1.0

 37 41  0  0  1  0  0  0  0  0999 V2000
    0.0000   -0.0000   -0.0000 Cl  0  0  0  0  0  0  0  0  0  0  0  0
    0.0000    1.5106   -0.0000 C   0  0  0  0  0  0  0  0  0  0  0  0
   -1.2965    2.2837   -0.0000 C   0  0  0  0  0  0  0  0  0  0  0  0
    1.2965    2.2599   -0.0000 C   0  0  0  0  0  0  0  0  0  0  0  0
   -1.2965    3.7824   -0.0000 C   0  0  0  0  0  0  0  0  0  0  0  0
    1.2965    3.7586   -0.0000 C   0  0  0  0  0  0  0  0  0  0  0  0
    0.0000    4.5317   -0.0000 C   0  0  0  0  0  0  0  0  0  0  0  0
    0.0000    6.0423   -0.0000 S   0  0  0  0  0  0  0  0  0  0  0  0
    1.4868    6.0423   -0.0000 O   0  0  0  0  0  0  0  0  0  0  0  0
   -1.5106    6.0542   -0.0000 O   0  0  0  0  0  0  0  0  0  0  0  0
   -0.0119    7.5529   -0.0000 N   0  0  0  0  0  0  0  0  0  0  0  0
    1.2846    8.3141   -0.0000 C   0  0  0  0  0  0  0  0  0  0  0  0
   -1.3203    8.3141   -0.0000 C   0  0  0  0  0  0  0  0  0  0  0  0
    2.5692    7.5766   -0.0000 C   0  0  0  0  0  0  0  0  0  0  0  0
    1.2727    9.8366   -0.0000 C   0  0  0  0  0  0  0  0  0  0  0  0
   -2.6405    7.5766   -0.0000 C   0  0  0  0  0  0  0  0  0  0  0  0
   -1.3322    9.8366   -0.0000 C   0  0  0  0  0  0  0  0  0  0  0  0
    3.6159    6.5300   -0.0000 C   0  0  0  0  0  0  0  0  0  0  0  0
    2.1767    6.1493   -0.0000 C   0  0  0  0  0  0  0  0  0  0  0  0
    3.8656    8.3379   -0.0000 C   0  0  0  0  0  0  0  0  0  0  0  0
   -0.0476   10.6097   -0.0000 C   0  0  0  0  0  0  0  0  0  0  0  0
   -4.1511    7.5885   -0.0000 C   0  0  0  0  0  0  0  0  0  0  0  0
   -3.4018    6.2921   -0.0000 C   0  0  0  0  0  0  0  0  0  0  0  0
    5.1502    7.6004   -0.0000 C   0  0  0  0  0  0  0  0  0  0  0  0
   -0.0595   12.1203   -0.0000 O   0  0  0  0  0  0  0  0  0  0  0  0
    5.1383    6.1137   -0.0000 O   0  0  0  0  0  0  0  0  0  0  0  0
    6.4467    8.3617   -0.0000 N   0  0  0  0  0  0  0  0  0  0  0  0
    7.7313    7.6123   -0.0000 C   0  0  0  0  0  0  0  0  0  0  0  0
    6.4348    9.8722   -0.0000 C   0  0  0  0  0  0  0  0  0  0  0  0
    9.0159    8.3617   -0.0000 C   0  0  0  0  0  0  0  0  0  0  0  0
    7.7313   10.6335   -0.0000 C   0  0  0  0  0  0  0  0  0  0  0  0
    9.0159    9.8722   -0.0000 N   0  0  0  0  0  0  0  0  0  0  0  0
   10.3004   10.6216   -0.0000 C   0  0  0  0  0  0  0  0  0  0  0  0
   11.5731   11.3947   -0.0000 C   0  0  0  0  0  0  0  0  0  0  0  0
   11.0379    9.3370   -0.0000 C   0  0  0  0  0  0  0  0  0  0  0  0
    9.5392   11.9300   -0.0000 C   0  0  0  0  0  0  0  0  0  0  0  0
   12.8577   10.6692   -0.0000 O   0  0  0  0  0  0  0  0  0  0  0  0
  1  2  1  0  0  0  0
  2  3  2  0  0  0  0
  2  4  1  0  0  0  0
  3  5  1  0  0  0  0
  4  6  2  0  0  0  0
  5  7  2  0  0  0  0
  7  8  1  0  0  0  0
  8  9  2  0  0  0  0
  8 10  2  0  0  0  0
  8 11  1  0  0  0  0
 11 12  1  0  0  0  0
 11 13  1  0  0  0  0
 12 14  1  6  0  0  0
 12 15  1  0  0  0  0
 13 16  1  6  0  0  0
 13 17  1  0  0  0  0
 14 18  1  0  0  0  0
 14 19  1  0  0  0  0
 14 20  1  0  0  0  0
 15 21  1  0  0  0  0
 16 22  1  0  0  0  0
 16 23  1  0  0  0  0
 20 24  1  0  0  0  0
 21 25  1  6  0  0  0
 24 26  2  0  0  0  0
 24 27  1  0  0  0  0
 27 28  1  0  0  0  0
 27 29  1  0  0  0  0
 28 30  1  0  0  0  0
 29 31  1  0  0  0  0
 30 32  1  0  0  0  0
 32 33  1  0  0  0  0
 33 34  1  0  0  0  0
 33 35  1  0  0  0  0
 33 36  1  0  0  0  0
 34 37  1  0  0  0  0
  6  7  1  0  0  0  0
 17 21  1  0  0  0  0
 18 19  1  0  0  0  0
 22 23  1  0  0  0  0
 31 32  1  0  0  0  0
M  END
>  <MolRegNo>
413898

>  <m>
=

>  <Value>
11000

>  <Unit>
nM

>  <Type>
IC50

>  <pValue>
4.96

>  <Ligand Efficiency>
0

>  <Binding Efficiency>
0

>  <Surface Efficiency>
0

>  <Assay Index>
306991

>  <Assay Category>


>  <Assay Organism>


>  <Target ID>
17045

>  <Target Name>
Cytochrome P450 3A4

>  <Target Organism>
Homo sapiens

>  <Target Description>
Target is a single protein chain

>  <Sequence Accession>
P08684

>  <Reference>
Bioorg Med Chem Lett 17 (22), 6290-6294 (2007)

>  <Pubmed ID>
17890085

>  <DOI>
10.1016/j.bmcl.2007.09.006

$$$$
413897
Actelion Java MolfileCreator 1.0

 36 40  0  0  1  0  0  0  0  0999 V2000
    0.0000   -0.0000   -0.0000 Cl  0  0  0  0  0  0  0  0  0  0  0  0
    0.0000    1.5104   -0.0000 C   0  0  0  0  0  0  0  0  0  0  0  0
   -1.2963    2.2834   -0.0000 C   0  0  0  0  0  0  0  0  0  0  0  0
    1.2963    2.2596   -0.0000 C   0  0  0  0  0  0  0  0  0  0  0  0
   -1.2963    3.7938   -0.0000 C   0  0  0  0  0  0  0  0  0  0  0  0
    1.2963    3.7581   -0.0000 C   0  0  0  0  0  0  0  0  0  0  0  0
    0.0000    4.5431   -0.0000 C   0  0  0  0  0  0  0  0  0  0  0  0
    0.0000    6.0534   -0.0000 S   0  0  0  0  0  0  0  0  0  0  0  0
    1.4866    6.0534   -0.0000 O   0  0  0  0  0  0  0  0  0  0  0  0
   -1.5104    6.0653   -0.0000 O   0  0  0  0  0  0  0  0  0  0  0  0
   -0.0119    7.5638   -0.0000 N   0  0  0  0  0  0  0  0  0  0  0  0
    1.2844    8.3250   -0.0000 C   0  0  0  0  0  0  0  0  0  0  0  0
   -1.3201    8.3250   -0.0000 C   0  0  0  0  0  0  0  0  0  0  0  0
    2.5688    7.5876   -0.0000 C   0  0  0  0  0  0  0  0  0  0  0  0
    1.2725    9.8472   -0.0000 C   0  0  0  0  0  0  0  0  0  0  0  0
   -2.6402    7.5876   -0.0000 C   0  0  0  0  0  0  0  0  0  0  0  0
   -1.3320    9.8472   -0.0000 C   0  0  0  0  0  0  0  0  0  0  0  0
    3.6154    6.5410   -0.0000 C   0  0  0  0  0  0  0  0  0  0  0  0
    2.1764    6.1605   -0.0000 C   0  0  0  0  0  0  0  0  0  0  0  0
    3.8652    8.3487   -0.0000 C   0  0  0  0  0  0  0  0  0  0  0  0
   -0.0476   10.6203   -0.0000 C   0  0  0  0  0  0  0  0  0  0  0  0
   -4.1506    7.5995   -0.0000 C   0  0  0  0  0  0  0  0  0  0  0  0
   -3.4013    6.3032   -0.0000 C   0  0  0  0  0  0  0  0  0  0  0  0
    5.1496    7.6114   -0.0000 C   0  0  0  0  0  0  0  0  0  0  0  0
    5.1377    6.1248   -0.0000 O   0  0  0  0  0  0  0  0  0  0  0  0
    6.4459    8.3725   -0.0000 N   0  0  0  0  0  0  0  0  0  0  0  0
    7.7303    7.6233   -0.0000 C   0  0  0  0  0  0  0  0  0  0  0  0
    6.4340    9.8829   -0.0000 C   0  0  0  0  0  0  0  0  0  0  0  0
    9.0147    8.3725   -0.0000 C   0  0  0  0  0  0  0  0  0  0  0  0
    7.7303   10.6441   -0.0000 C   0  0  0  0  0  0  0  0  0  0  0  0
    9.0147    9.8829   -0.0000 N   0  0  0  0  0  0  0  0  0  0  0  0
   10.2992   10.6322   -0.0000 C   0  0  0  0  0  0  0  0  0  0  0  0
   11.5717   11.4052   -0.0000 C   0  0  0  0  0  0  0  0  0  0  0  0
   11.0365    9.3477   -0.0000 C   0  0  0  0  0  0  0  0  0  0  0  0
    9.5380   11.9404   -0.0000 C   0  0  0  0  0  0  0  0  0  0  0  0
   12.8561   10.6797   -0.0000 O   0  0  0  0  0  0  0  0  0  0  0  0
  1  2  1  0  0  0  0
  2  3  2  0  0  0  0
  2  4  1  0  0  0  0
  3  5  1  0  0  0  0
  4  6  2  0  0  0  0
  5  7  2  0  0  0  0
  7  8  1  0  0  0  0
  8  9  2  0  0  0  0
  8 10  2  0  0  0  0
  8 11  1  0  0  0  0
 11 12  1  0  0  0  0
 11 13  1  0  0  0  0
 12 14  1  6  0  0  0
 12 15  1  0  0  0  0
 13 16  1  6  0  0  0
 13 17  1  0  0  0  0
 14 18  1  0  0  0  0
 14 19  1  0  0  0  0
 14 20  1  0  0  0  0
 15 21  1  0  0  0  0
 16 22  1  0  0  0  0
 16 23  1  0  0  0  0
 20 24  1  0  0  0  0
 24 25  2  0  0  0  0
 24 26  1  0  0  0  0
 26 27  1  0  0  0  0
 26 28  1  0  0  0  0
 27 29  1  0  0  0  0
 28 30  1  0  0  0  0
 29 31  1  0  0  0  0
 31 32  1  0  0  0  0
 32 33  1  0  0  0  0
 32 34  1  0  0  0  0
 32 35  1  0  0  0  0
 33 36  1  0  0  0  0
  6  7  1  0  0  0  0
 17 21  1  0  0  0  0
 18 19  1  0  0  0  0
 22 23  1  0  0  0  0
 30 31  1  0  0  0  0
M  END
>  <MolRegNo>
413897

>  <m>
=

>  <Value>
1500

>  <Unit>
nM

>  <Type>
IC50

>  <pValue>
5.82

>  <Ligand Efficiency>
0

>  <Binding Efficiency>
0

>  <Surface Efficiency>
0

>  <Assay Index>
306991

>  <Assay Category>


>  <Assay Organism>


>  <Target ID>
17045

>  <Target Name>
Cytochrome P450 3A4

>  <Target Organism>
Homo sapiens

>  <Target Description>
Target is a single protein chain

>  <Sequence Accession>
P08684

>  <Reference>
Bioorg Med Chem Lett 17 (22), 6290-6294 (2007)

>  <Pubmed ID>
17890085

>  <DOI>
10.1016/j.bmcl.2007.09.006

$$$$
413895
Actelion Java MolfileCreator 1.0

 37 41  0  0  1  0  0  0  0  0999 V2000
    0.0000   -0.0000   -0.0000 Cl  0  0  0  0  0  0  0  0  0  0  0  0
    0.0000    1.5107   -0.0000 C   0  0  0  0  0  0  0  0  0  0  0  0
   -1.2966    2.2839   -0.0000 C   0  0  0  0  0  0  0  0  0  0  0  0
    1.2966    2.2601   -0.0000 C   0  0  0  0  0  0  0  0  0  0  0  0
   -1.2966    3.7827   -0.0000 C   0  0  0  0  0  0  0  0  0  0  0  0
    1.2966    3.7590   -0.0000 C   0  0  0  0  0  0  0  0  0  0  0  0
    0.0000    4.5322   -0.0000 C   0  0  0  0  0  0  0  0  0  0  0  0
    0.0000    6.0429   -0.0000 S   0  0  0  0  0  0  0  0  0  0  0  0
    1.4869    6.0429   -0.0000 O   0  0  0  0  0  0  0  0  0  0  0  0
   -1.5107    6.0548   -0.0000 O   0  0  0  0  0  0  0  0  0  0  0  0
   -0.0119    7.5536   -0.0000 N   0  0  0  0  0  0  0  0  0  0  0  0
    1.2847    8.3149   -0.0000 C   0  0  0  0  0  0  0  0  0  0  0  0
   -1.3204    8.3149   -0.0000 C   0  0  0  0  0  0  0  0  0  0  0  0
    2.5694    7.5774   -0.0000 C   0  0  0  0  0  0  0  0  0  0  0  0
    1.2728    9.8375   -0.0000 C   0  0  0  0  0  0  0  0  0  0  0  0
   -2.6408    7.5774   -0.0000 C   0  0  0  0  0  0  0  0  0  0  0  0
   -1.3323    9.8375   -0.0000 C   0  0  0  0  0  0  0  0  0  0  0  0
    3.8660    8.3268   -0.0000 O   0  0  0  0  0  0  0  0  0  0  0  0
    3.6162    6.5306   -0.0000 C   0  0  0  0  0  0  0  0  0  0  0  0
    2.1769    6.1499   -0.0000 C   0  0  0  0  0  0  0  0  0  0  0  0
   -0.0476   10.6107   -0.0000 C   0  0  0  0  0  0  0  0  0  0  0  0
   -4.1515    7.5893   -0.0000 C   0  0  0  0  0  0  0  0  0  0  0  0
   -3.4021    6.2927   -0.0000 C   0  0  0  0  0  0  0  0  0  0  0  0
    5.1507    7.5893   -0.0000 C   0  0  0  0  0  0  0  0  0  0  0  0
   -0.0595   12.1214   -0.0000 O   0  0  0  0  0  0  0  0  0  0  0  0
    5.1388    6.1024   -0.0000 O   0  0  0  0  0  0  0  0  0  0  0  0
    6.4473    8.3506   -0.0000 N   0  0  0  0  0  0  0  0  0  0  0  0
    7.7320    7.6012   -0.0000 C   0  0  0  0  0  0  0  0  0  0  0  0
    6.4354    9.8613   -0.0000 C   0  0  0  0  0  0  0  0  0  0  0  0
    9.0167    8.3506   -0.0000 C   0  0  0  0  0  0  0  0  0  0  0  0
    7.7320   10.6226   -0.0000 C   0  0  0  0  0  0  0  0  0  0  0  0
    9.0167    9.8613   -0.0000 N   0  0  0  0  0  0  0  0  0  0  0  0
   10.3014   10.6107   -0.0000 C   0  0  0  0  0  0  0  0  0  0  0  0
   11.5743   11.3839   -0.0000 C   0  0  0  0  0  0  0  0  0  0  0  0
   11.0390    9.3260   -0.0000 C   0  0  0  0  0  0  0  0  0  0  0  0
    9.5401   11.9192   -0.0000 C   0  0  0  0  0  0  0  0  0  0  0  0
   12.8590   10.6583   -0.0000 O   0  0  0  0  0  0  0  0  0  0  0  0
  1  2  1  0  0  0  0
  2  3  2  0  0  0  0
  2  4  1  0  0  0  0
  3  5  1  0  0  0  0
  4  6  2  0  0  0  0
  5  7  2  0  0  0  0
  7  8  1  0  0  0  0
  8  9  2  0  0  0  0
  8 10  2  0  0  0  0
  8 11  1  0  0  0  0
 11 12  1  0  0  0  0
 11 13  1  0  0  0  0
 12 14  1  6  0  0  0
 12 15  1  0  0  0  0
 13 16  1  6  0  0  0
 13 17  1  0  0  0  0
 14 18  1  0  0  0  0
 14 19  1  0  0  0  0
 14 20  1  0  0  0  0
 15 21  1  0  0  0  0
 16 22  1  0  0  0  0
 16 23  1  0  0  0  0
 18 24  1  0  0  0  0
 21 25  1  6  0  0  0
 24 26  2  0  0  0  0
 24 27  1  0  0  0  0
 27 28  1  0  0  0  0
 27 29  1  0  0  0  0
 28 30  1  0  0  0  0
 29 31  1  0  0  0  0
 30 32  1  0  0  0  0
 32 33  1  0  0  0  0
 33 34  1  0  0  0  0
 33 35  1  0  0  0  0
 33 36  1  0  0  0  0
 34 37  1  0  0  0  0
  6  7  1  0  0  0  0
 17 21  1  0  0  0  0
 19 20  1  0  0  0  0
 22 23  1  0  0  0  0
 31 32  1  0  0  0  0
M  END
>  <MolRegNo>
413895

>  <m>
=

>  <Value>
19500

>  <Unit>
nM

>  <Type>
IC50

>  <pValue>
4.71

>  <Ligand Efficiency>
0

>  <Binding Efficiency>
0

>  <Surface Efficiency>
0

>  <Assay Index>
306991

>  <Assay Category>


>  <Assay Organism>


>  <Target ID>
17045

>  <Target Name>
Cytochrome P450 3A4

>  <Target Organism>
Homo sapiens

>  <Target Description>
Target is a single protein chain

>  <Sequence Accession>
P08684

>  <Reference>
Bioorg Med Chem Lett 17 (22), 6290-6294 (2007)

>  <Pubmed ID>
17890085

>  <DOI>
10.1016/j.bmcl.2007.09.006

$$$$
413893
Actelion Java MolfileCreator 1.0

 36 39  0  0  1  0  0  0  0  0999 V2000
    0.0000   -0.0000   -0.0000 Cl  0  0  0  0  0  0  0  0  0  0  0  0
    0.0000    1.5109   -0.0000 C   0  0  0  0  0  0  0  0  0  0  0  0
   -1.2967    2.2841   -0.0000 C   0  0  0  0  0  0  0  0  0  0  0  0
    1.2967    2.2603   -0.0000 C   0  0  0  0  0  0  0  0  0  0  0  0
   -1.2967    3.7831   -0.0000 C   0  0  0  0  0  0  0  0  0  0  0  0
    1.2967    3.7593   -0.0000 C   0  0  0  0  0  0  0  0  0  0  0  0
    0.0000    4.5326   -0.0000 C   0  0  0  0  0  0  0  0  0  0  0  0
    0.0000    6.0435   -0.0000 S   0  0  0  0  0  0  0  0  0  0  0  0
    1.4871    6.0435   -0.0000 O   0  0  0  0  0  0  0  0  0  0  0  0
   -1.5109    6.0554   -0.0000 O   0  0  0  0  0  0  0  0  0  0  0  0
   -0.0119    7.5543   -0.0000 N   0  0  0  0  0  0  0  0  0  0  0  0
    1.2848    8.3157   -0.0000 C   0  0  0  0  0  0  0  0  0  0  0  0
   -1.3205    8.3157   -0.0000 C   0  0  0  0  0  0  0  0  0  0  0  0
    2.5697    7.5781   -0.0000 C   0  0  0  0  0  0  0  0  0  0  0  0
    1.2729    9.8385   -0.0000 C   0  0  0  0  0  0  0  0  0  0  0  0
   -2.6410    7.5781   -0.0000 C   0  0  0  0  0  0  0  0  0  0  0  0
   -1.3324    9.8385   -0.0000 C   0  0  0  0  0  0  0  0  0  0  0  0
    3.8664    8.3395   -0.0000 O   0  0  0  0  0  0  0  0  0  0  0  0
    3.6166    6.5312   -0.0000 C   0  0  0  0  0  0  0  0  0  0  0  0
    2.1771    6.1505   -0.0000 C   0  0  0  0  0  0  0  0  0  0  0  0
   -0.0476   10.6117   -0.0000 C   0  0  0  0  0  0  0  0  0  0  0  0
   -3.9497    8.3395   -0.0000 C   0  0  0  0  0  0  0  0  0  0  0  0
   -2.6529    6.0910   -0.0000 C   0  0  0  0  0  0  0  0  0  0  0  0
    5.1512    7.6019   -0.0000 C   0  0  0  0  0  0  0  0  0  0  0  0
    5.1393    6.1148   -0.0000 O   0  0  0  0  0  0  0  0  0  0  0  0
    6.4479    8.3633   -0.0000 N   0  0  0  0  0  0  0  0  0  0  0  0
    7.7328    7.6138   -0.0000 C   0  0  0  0  0  0  0  0  0  0  0  0
    6.4360    9.8742   -0.0000 C   0  0  0  0  0  0  0  0  0  0  0  0
    9.0176    8.3633   -0.0000 C   0  0  0  0  0  0  0  0  0  0  0  0
    7.7328   10.6355   -0.0000 C   0  0  0  0  0  0  0  0  0  0  0  0
    9.0176    9.8742   -0.0000 N   0  0  0  0  0  0  0  0  0  0  0  0
   10.3024   10.6236   -0.0000 C   0  0  0  0  0  0  0  0  0  0  0  0
   11.5754   11.3969   -0.0000 C   0  0  0  0  0  0  0  0  0  0  0  0
   11.0400    9.3388   -0.0000 C   0  0  0  0  0  0  0  0  0  0  0  0
    9.5411   11.9323   -0.0000 C   0  0  0  0  0  0  0  0  0  0  0  0
   12.8602   10.6712   -0.0000 O   0  0  0  0  0  0  0  0  0  0  0  0
  1  2  1  0  0  0  0
  2  3  2  0  0  0  0
  2  4  1  0  0  0  0
  3  5  1  0  0  0  0
  4  6  2  0  0  0  0
  5  7  2  0  0  0  0
  7  8  1  0  0  0  0
  8  9  2  0  0  0  0
  8 10  2  0  0  0  0
  8 11  1  0  0  0  0
 11 12  1  0  0  0  0
 11 13  1  0  0  0  0
 12 14  1  6  0  0  0
 12 15  1  0  0  0  0
 13 16  1  6  0  0  0
 13 17  1  0  0  0  0
 14 18  1  0  0  0  0
 14 19  1  0  0  0  0
 14 20  1  0  0  0  0
 15 21  1  0  0  0  0
 16 22  1  0  0  0  0
 16 23  1  0  0  0  0
 18 24  1  0  0  0  0
 24 25  2  0  0  0  0
 24 26  1  0  0  0  0
 26 27  1  0  0  0  0
 26 28  1  0  0  0  0
 27 29  1  0  0  0  0
 28 30  1  0  0  0  0
 29 31  1  0  0  0  0
 31 32  1  0  0  0  0
 32 33  1  0  0  0  0
 32 34  1  0  0  0  0
 32 35  1  0  0  0  0
 33 36  1  0  0  0  0
  6  7  1  0  0  0  0
 17 21  1  0  0  0  0
 19 20  1  0  0  0  0
 30 31  1  0  0  0  0
M  END
>  <MolRegNo>
413893

>  <m>
=

>  <Value>
500

>  <Unit>
nM

>  <Type>
IC50

>  <pValue>
6.3

>  <Ligand Efficiency>
0

>  <Binding Efficiency>
0

>  <Surface Efficiency>
0

>  <Assay Index>
306991

>  <Assay Category>


>  <Assay Organism>


>  <Target ID>
17045

>  <Target Name>
Cytochrome P450 3A4

>  <Target Organism>
Homo sapiens

>  <Target Description>
Target is a single protein chain

>  <Sequence Accession>
P08684

>  <Reference>
Bioorg Med Chem Lett 17 (22), 6290-6294 (2007)

>  <Pubmed ID>
17890085

>  <DOI>
10.1016/j.bmcl.2007.09.006

$$$$
413892
Actelion Java MolfileCreator 1.0

 34 37  0  0  1  0  0  0  0  0999 V2000
    0.0000   -0.0000   -0.0000 Cl  0  0  0  0  0  0  0  0  0  0  0  0
    0.0000    1.5112   -0.0000 C   0  0  0  0  0  0  0  0  0  0  0  0
   -1.2970    2.2847   -0.0000 C   0  0  0  0  0  0  0  0  0  0  0  0
    1.2970    2.2609   -0.0000 C   0  0  0  0  0  0  0  0  0  0  0  0
   -1.2970    3.7840   -0.0000 C   0  0  0  0  0  0  0  0  0  0  0  0
    1.2970    3.7602   -0.0000 C   0  0  0  0  0  0  0  0  0  0  0  0
    0.0000    4.5337   -0.0000 C   0  0  0  0  0  0  0  0  0  0  0  0
    0.0000    6.0449   -0.0000 S   0  0  0  0  0  0  0  0  0  0  0  0
    1.4874    6.0449   -0.0000 O   0  0  0  0  0  0  0  0  0  0  0  0
   -1.5112    6.0568   -0.0000 O   0  0  0  0  0  0  0  0  0  0  0  0
   -0.0119    7.5561   -0.0000 N   0  0  0  0  0  0  0  0  0  0  0  0
    1.2851    8.3177   -0.0000 C   0  0  0  0  0  0  0  0  0  0  0  0
   -1.3208    8.3177   -0.0000 C   0  0  0  0  0  0  0  0  0  0  0  0
    2.5703    7.5799   -0.0000 C   0  0  0  0  0  0  0  0  0  0  0  0
    1.2732    9.8408   -0.0000 C   0  0  0  0  0  0  0  0  0  0  0  0
   -1.3327    9.8408   -0.0000 C   0  0  0  0  0  0  0  0  0  0  0  0
   -2.6417    7.5799   -0.0000 C   0  0  0  0  0  0  0  0  0  0  0  0
    3.8673    8.3415   -0.0000 O   0  0  0  0  0  0  0  0  0  0  0  0
    3.6174    6.5328   -0.0000 C   0  0  0  0  0  0  0  0  0  0  0  0
    2.1776    6.1520   -0.0000 C   0  0  0  0  0  0  0  0  0  0  0  0
   -0.0476   10.6143   -0.0000 C   0  0  0  0  0  0  0  0  0  0  0  0
    5.1524    7.6037   -0.0000 C   0  0  0  0  0  0  0  0  0  0  0  0
    5.1405    6.1163   -0.0000 O   0  0  0  0  0  0  0  0  0  0  0  0
    6.4495    8.3653   -0.0000 N   0  0  0  0  0  0  0  0  0  0  0  0
    7.7346    7.6275   -0.0000 C   0  0  0  0  0  0  0  0  0  0  0  0
    6.4376    9.8765   -0.0000 C   0  0  0  0  0  0  0  0  0  0  0  0
    9.0197    8.3772   -0.0000 C   0  0  0  0  0  0  0  0  0  0  0  0
    7.7346   10.6381   -0.0000 C   0  0  0  0  0  0  0  0  0  0  0  0
    9.0197    9.8884   -0.0000 N   0  0  0  0  0  0  0  0  0  0  0  0
   10.3049   10.6381   -0.0000 C   0  0  0  0  0  0  0  0  0  0  0  0
   11.5781   11.4115   -0.0000 C   0  0  0  0  0  0  0  0  0  0  0  0
   11.0426    9.3529   -0.0000 C   0  0  0  0  0  0  0  0  0  0  0  0
    9.5433   11.9470   -0.0000 C   0  0  0  0  0  0  0  0  0  0  0  0
   12.8632   10.6856   -0.0000 O   0  0  0  0  0  0  0  0  0  0  0  0
  1  2  1  0  0  0  0
  2  3  2  0  0  0  0
  2  4  1  0  0  0  0
  3  5  1  0  0  0  0
  4  6  2  0  0  0  0
  5  7  2  0  0  0  0
  7  8  1  0  0  0  0
  8  9  2  0  0  0  0
  8 10  2  0  0  0  0
  8 11  1  0  0  0  0
 11 12  1  0  0  0  0
 11 13  1  0  0  0  0
 12 14  1  6  0  0  0
 12 15  1  0  0  0  0
 13 16  1  0  0  0  0
 13 17  1  6  0  0  0
 14 18  1  0  0  0  0
 14 19  1  0  0  0  0
 14 20  1  0  0  0  0
 15 21  1  0  0  0  0
 18 22  1  0  0  0  0
 22 23  2  0  0  0  0
 22 24  1  0  0  0  0
 24 25  1  0  0  0  0
 24 26  1  0  0  0  0
 25 27  1  0  0  0  0
 26 28  1  0  0  0  0
 27 29  1  0  0  0  0
 29 30  1  0  0  0  0
 30 31  1  0  0  0  0
 30 32  1  0  0  0  0
 30 33  1  0  0  0  0
 31 34  1  0  0  0  0
  6  7  1  0  0  0  0
 16 21  1  0  0  0  0
 19 20  1  0  0  0  0
 28 29  1  0  0  0  0
M  END
>  <MolRegNo>
413892

>  <m>
=

>  <Value>
800

>  <Unit>
nM

>  <Type>
IC50

>  <pValue>
6.1

>  <Ligand Efficiency>
0

>  <Binding Efficiency>
0

>  <Surface Efficiency>
0

>  <Assay Index>
306991

>  <Assay Category>


>  <Assay Organism>


>  <Target ID>
17045

>  <Target Name>
Cytochrome P450 3A4

>  <Target Organism>
Homo sapiens

>  <Target Description>
Target is a single protein chain

>  <Sequence Accession>
P08684

>  <Reference>
Bioorg Med Chem Lett 17 (22), 6290-6294 (2007)

>  <Pubmed ID>
17890085

>  <DOI>
10.1016/j.bmcl.2007.09.006

$$$$
413891
Actelion Java MolfileCreator 1.0

 41 45  0  0  1  0  0  0  0  0999 V2000
    0.0000   -0.0000   -0.0000 Cl  0  0  0  0  0  0  0  0  0  0  0  0
    0.0000    1.5117   -0.0000 C   0  0  0  0  0  0  0  0  0  0  0  0
   -1.2975    2.2854   -0.0000 C   0  0  0  0  0  0  0  0  0  0  0  0
    1.2975    2.2616   -0.0000 C   0  0  0  0  0  0  0  0  0  0  0  0
   -1.2975    3.7852   -0.0000 C   0  0  0  0  0  0  0  0  0  0  0  0
    1.2975    3.7614   -0.0000 C   0  0  0  0  0  0  0  0  0  0  0  0
    0.0000    4.5351   -0.0000 C   0  0  0  0  0  0  0  0  0  0  0  0
    0.0000    6.0469   -0.0000 S   0  0  0  0  0  0  0  0  0  0  0  0
    1.4879    6.0469   -0.0000 O   0  0  0  0  0  0  0  0  0  0  0  0
   -1.5117    6.0588   -0.0000 O   0  0  0  0  0  0  0  0  0  0  0  0
   -0.0119    7.5586   -0.0000 N   0  0  0  0  0  0  0  0  0  0  0  0
   -1.3213    8.3204   -0.0000 C   0  0  0  0  0  0  0  0  0  0  0  0
    1.2856    8.3204   -0.0000 C   0  0  0  0  0  0  0  0  0  0  0  0
   -2.6425    7.5824   -0.0000 C   0  0  0  0  0  0  0  0  0  0  0  0
   -1.3332    9.8440   -0.0000 C   0  0  0  0  0  0  0  0  0  0  0  0
    2.5711    7.5824   -0.0000 C   0  0  0  0  0  0  0  0  0  0  0  0
    1.2736    9.8440   -0.0000 C   0  0  0  0  0  0  0  0  0  0  0  0
   -3.9519    8.3442   -0.0000 C   0  0  0  0  0  0  0  0  0  0  0  0
   -2.6544    6.1064   -0.0000 C   0  0  0  0  0  0  0  0  0  0  0  0
   -0.0476   10.6177   -0.0000 C   0  0  0  0  0  0  0  0  0  0  0  0
    3.8686    8.3442   -0.0000 O   0  0  0  0  0  0  0  0  0  0  0  0
    3.6186    6.5349   -0.0000 C   0  0  0  0  0  0  0  0  0  0  0  0
    2.1783    6.1540   -0.0000 C   0  0  0  0  0  0  0  0  0  0  0  0
   -5.2493    7.6062   -0.0000 C   0  0  0  0  0  0  0  0  0  0  0  0
   -3.9519    5.3684   -0.0000 C   0  0  0  0  0  0  0  0  0  0  0  0
    5.1541    7.6062   -0.0000 C   0  0  0  0  0  0  0  0  0  0  0  0
   -6.5587    8.3680   -0.0000 F   0  0  0  0  0  0  0  0  0  0  0  0
   -5.2612    6.1302   -0.0000 C   0  0  0  0  0  0  0  0  0  0  0  0
   -3.9519    3.8805   -0.0000 F   0  0  0  0  0  0  0  0  0  0  0  0
    5.1422    6.1183   -0.0000 O   0  0  0  0  0  0  0  0  0  0  0  0
    6.4516    8.3680   -0.0000 N   0  0  0  0  0  0  0  0  0  0  0  0
    7.7371    7.6181   -0.0000 C   0  0  0  0  0  0  0  0  0  0  0  0
    6.4397    9.8797   -0.0000 C   0  0  0  0  0  0  0  0  0  0  0  0
    9.0227    8.3680   -0.0000 C   0  0  0  0  0  0  0  0  0  0  0  0
    7.7371   10.6415   -0.0000 C   0  0  0  0  0  0  0  0  0  0  0  0
    9.0227    9.8797   -0.0000 N   0  0  0  0  0  0  0  0  0  0  0  0
   10.3082   10.6296   -0.0000 C   0  0  0  0  0  0  0  0  0  0  0  0
   11.5819   11.4033   -0.0000 C   0  0  0  0  0  0  0  0  0  0  0  0
   11.0462    9.3441   -0.0000 C   0  0  0  0  0  0  0  0  0  0  0  0
    9.5464   11.9390   -0.0000 C   0  0  0  0  0  0  0  0  0  0  0  0
   12.8674   10.6772   -0.0000 O   0  0  0  0  0  0  0  0  0  0  0  0
  1  2  1  0  0  0  0
  2  3  2  0  0  0  0
  2  4  1  0  0  0  0
  3  5  1  0  0  0  0
  4  6  2  0  0  0  0
  5  7  2  0  0  0  0
  7  8  1  0  0  0  0
  8  9  2  0  0  0  0
  8 10  2  0  0  0  0
  8 11  1  0  0  0  0
 11 12  1  0  0  0  0
 11 13  1  0  0  0  0
 12 14  1  6  0  0  0
 12 15  1  0  0  0  0
 13 16  1  6  0  0  0
 13 17  1  0  0  0  0
 14 18  2  0  0  0  0
 14 19  1  0  0  0  0
 15 20  1  0  0  0  0
 16 21  1  0  0  0  0
 16 22  1  0  0  0  0
 16 23  1  0  0  0  0
 18 24  1  0  0  0  0
 19 25  2  0  0  0  0
 21 26  1  0  0  0  0
 24 27  1  0  0  0  0
 24 28  2  0  0  0  0
 25 29  1  0  0  0  0
 26 30  2  0  0  0  0
 26 31  1  0  0  0  0
 31 32  1  0  0  0  0
 31 33  1  0  0  0  0
 32 34  1  0  0  0  0
 33 35  1  0  0  0  0
 34 36  1  0  0  0  0
 36 37  1  0  0  0  0
 37 38  1  0  0  0  0
 37 39  1  0  0  0  0
 37 40  1  0  0  0  0
 38 41  1  0  0  0  0
  6  7  1  0  0  0  0
 17 20  1  0  0  0  0
 22 23  1  0  0  0  0
 25 28  1  0  0  0  0
 35 36  1  0  0  0  0
M  END
>  <MolRegNo>
413891

>  <m>
=

>  <Value>
400

>  <Unit>
nM

>  <Type>
IC50

>  <pValue>
6.4

>  <Ligand Efficiency>
0

>  <Binding Efficiency>
0

>  <Surface Efficiency>
0

>  <Assay Index>
306991

>  <Assay Category>


>  <Assay Organism>


>  <Target ID>
17045

>  <Target Name>
Cytochrome P450 3A4

>  <Target Organism>
Homo sapiens

>  <Target Description>
Target is a single protein chain

>  <Sequence Accession>
P08684

>  <Reference>
Bioorg Med Chem Lett 17 (22), 6290-6294 (2007)

>  <Pubmed ID>
17890085

>  <DOI>
10.1016/j.bmcl.2007.09.006

$$$$
413890
Actelion Java MolfileCreator 1.0

 32 34  0  0  1  0  0  0  0  0999 V2000
    0.0000   -0.0000   -0.0000 Cl  0  0  0  0  0  0  0  0  0  0  0  0
    0.0000    1.5082   -0.0000 C   0  0  0  0  0  0  0  0  0  0  0  0
   -1.2945    2.2802   -0.0000 C   0  0  0  0  0  0  0  0  0  0  0  0
    1.2945    2.2564   -0.0000 C   0  0  0  0  0  0  0  0  0  0  0  0
   -1.2945    3.7765   -0.0000 C   0  0  0  0  0  0  0  0  0  0  0  0
    1.2945    3.7528   -0.0000 C   0  0  0  0  0  0  0  0  0  0  0  0
    0.0000    4.5247   -0.0000 C   0  0  0  0  0  0  0  0  0  0  0  0
    0.0000    6.0329   -0.0000 S   0  0  0  0  0  0  0  0  0  0  0  0
    1.4845    6.0329   -0.0000 O   0  0  0  0  0  0  0  0  0  0  0  0
   -1.5082    6.0448   -0.0000 O   0  0  0  0  0  0  0  0  0  0  0  0
   -0.0119    7.5411   -0.0000 N   0  0  0  0  0  0  0  0  0  0  0  0
    1.2826    8.3012   -0.0000 C   0  0  0  0  0  0  0  0  0  0  0  0
   -1.3182    8.3012   -0.0000 C   0  0  0  0  0  0  0  0  0  0  0  0
    1.2707    9.8213   -0.0000 C   0  0  0  0  0  0  0  0  0  0  0  0
    2.5652    7.5649   -0.0000 C   0  0  0  0  0  0  0  0  0  0  0  0
   -1.3301    9.8213   -0.0000 C   0  0  0  0  0  0  0  0  0  0  0  0
   -2.6246    7.5649   -0.0000 C   0  0  0  0  0  0  0  0  0  0  0  0
   -0.0475   10.5932   -0.0000 C   0  0  0  0  0  0  0  0  0  0  0  0
    3.8596    8.3249   -0.0000 O   0  0  0  0  0  0  0  0  0  0  0  0
   -3.9309    8.3249   -0.0000 C   0  0  0  0  0  0  0  0  0  0  0  0
   -0.0594   12.1015   -0.0000 O   0  0  0  0  0  0  0  0  0  0  0  0
    5.1422    7.5886   -0.0000 C   0  0  0  0  0  0  0  0  0  0  0  0
    5.1304    6.1042   -0.0000 O   0  0  0  0  0  0  0  0  0  0  0  0
    6.4367    8.3487   -0.0000 N   0  0  0  0  0  0  0  0  0  0  0  0
    7.7193    7.6124   -0.0000 C   0  0  0  0  0  0  0  0  0  0  0  0
    6.4248    9.8569   -0.0000 C   0  0  0  0  0  0  0  0  0  0  0  0
    9.0019    8.3606   -0.0000 C   0  0  0  0  0  0  0  0  0  0  0  0
    7.7193   10.6170   -0.0000 C   0  0  0  0  0  0  0  0  0  0  0  0
    9.0019    9.8688   -0.0000 N   0  0  0  0  0  0  0  0  0  0  0  0
   10.2845   10.6170   -0.0000 C   0  0  0  0  0  0  0  0  0  0  0  0
   10.2845   12.1252   -0.0000 C   0  0  0  0  0  0  0  0  0  0  0  0
   11.5670   12.8734   -0.0000 O   0  0  0  0  0  0  0  0  0  0  0  0
  1  2  1  0  0  0  0
  2  3  2  0  0  0  0
  2  4  1  0  0  0  0
  3  5  1  0  0  0  0
  4  6  2  0  0  0  0
  5  7  2  0  0  0  0
  7  8  1  0  0  0  0
  8  9  2  0  0  0  0
  8 10  2  0  0  0  0
  8 11  1  0  0  0  0
 11 12  1  0  0  0  0
 11 13  1  0  0  0  0
 12 14  1  0  0  0  0
 12 15  1  6  0  0  0
 13 16  1  0  0  0  0
 13 17  1  6  0  0  0
 14 18  1  0  0  0  0
 15 19  1  0  0  0  0
 17 20  1  0  0  0  0
 18 21  1  1  0  0  0
 19 22  1  0  0  0  0
 22 23  2  0  0  0  0
 22 24  1  0  0  0  0
 24 25  1  0  0  0  0
 24 26  1  0  0  0  0
 25 27  1  0  0  0  0
 26 28  1  0  0  0  0
 27 29  1  0  0  0  0
 29 30  1  0  0  0  0
 30 31  1  0  0  0  0
 31 32  1  0  0  0  0
  6  7  1  0  0  0  0
 16 18  1  0  0  0  0
 28 29  1  0  0  0  0
M  END
>  <MolRegNo>
413890

>  <m>
=

>  <Value>
30000

>  <Unit>
nM

>  <Type>
IC50

>  <pValue>
4.52

>  <Ligand Efficiency>
0

>  <Binding Efficiency>
0

>  <Surface Efficiency>
0

>  <Assay Index>
306991

>  <Assay Category>


>  <Assay Organism>


>  <Target ID>
17045

>  <Target Name>
Cytochrome P450 3A4

>  <Target Organism>
Homo sapiens

>  <Target Description>
Target is a single protein chain

>  <Sequence Accession>
P08684

>  <Reference>
Bioorg Med Chem Lett 17 (22), 6290-6294 (2007)

>  <Pubmed ID>
17890085

>  <DOI>
10.1016/j.bmcl.2007.09.006

$$$$
413889
Actelion Java MolfileCreator 1.0

 32 34  0  0  1  0  0  0  0  0999 V2000
    0.0000   -0.0000   -0.0000 Cl  0  0  0  0  0  0  0  0  0  0  0  0
    0.0000    1.5082   -0.0000 C   0  0  0  0  0  0  0  0  0  0  0  0
   -1.2945    2.2802   -0.0000 C   0  0  0  0  0  0  0  0  0  0  0  0
    1.2945    2.2564   -0.0000 C   0  0  0  0  0  0  0  0  0  0  0  0
   -1.2945    3.7765   -0.0000 C   0  0  0  0  0  0  0  0  0  0  0  0
    1.2945    3.7528   -0.0000 C   0  0  0  0  0  0  0  0  0  0  0  0
    0.0000    4.5247   -0.0000 C   0  0  0  0  0  0  0  0  0  0  0  0
    0.0000    6.0329   -0.0000 S   0  0  0  0  0  0  0  0  0  0  0  0
    1.4845    6.0329   -0.0000 O   0  0  0  0  0  0  0  0  0  0  0  0
   -1.5082    6.0448   -0.0000 O   0  0  0  0  0  0  0  0  0  0  0  0
   -0.0119    7.5411   -0.0000 N   0  0  0  0  0  0  0  0  0  0  0  0
    1.2826    8.3012   -0.0000 C   0  0  0  0  0  0  0  0  0  0  0  0
   -1.3182    8.3012   -0.0000 C   0  0  0  0  0  0  0  0  0  0  0  0
    1.2707    9.8213   -0.0000 C   0  0  0  0  0  0  0  0  0  0  0  0
    2.5652    7.5649   -0.0000 C   0  0  0  0  0  0  0  0  0  0  0  0
   -1.3301    9.8213   -0.0000 C   0  0  0  0  0  0  0  0  0  0  0  0
   -2.6246    7.5649   -0.0000 C   0  0  0  0  0  0  0  0  0  0  0  0
   -0.0475   10.5932   -0.0000 C   0  0  0  0  0  0  0  0  0  0  0  0
    3.8596    8.3249   -0.0000 O   0  0  0  0  0  0  0  0  0  0  0  0
   -3.9309    8.3249   -0.0000 C   0  0  0  0  0  0  0  0  0  0  0  0
   -0.0594   12.1015   -0.0000 O   0  0  0  0  0  0  0  0  0  0  0  0
    5.1422    7.5886   -0.0000 C   0  0  0  0  0  0  0  0  0  0  0  0
    5.1304    6.1042   -0.0000 O   0  0  0  0  0  0  0  0  0  0  0  0
    6.4367    8.3487   -0.0000 N   0  0  0  0  0  0  0  0  0  0  0  0
    7.7193    7.6124   -0.0000 C   0  0  0  0  0  0  0  0  0  0  0  0
    6.4248    9.8569   -0.0000 C   0  0  0  0  0  0  0  0  0  0  0  0
    9.0019    8.3606   -0.0000 C   0  0  0  0  0  0  0  0  0  0  0  0
    7.7193   10.6170   -0.0000 C   0  0  0  0  0  0  0  0  0  0  0  0
    9.0019    9.8688   -0.0000 N   0  0  0  0  0  0  0  0  0  0  0  0
   10.2845   10.6170   -0.0000 C   0  0  0  0  0  0  0  0  0  0  0  0
   10.2845   12.1252   -0.0000 C   0  0  0  0  0  0  0  0  0  0  0  0
   11.5670   12.8734   -0.0000 O   0  0  0  0  0  0  0  0  0  0  0  0
  1  2  1  0  0  0  0
  2  3  2  0  0  0  0
  2  4  1  0  0  0  0
  3  5  1  0  0  0  0
  4  6  2  0  0  0  0
  5  7  2  0  0  0  0
  7  8  1  0  0  0  0
  8  9  2  0  0  0  0
  8 10  2  0  0  0  0
  8 11  1  0  0  0  0
 11 12  1  0  0  0  0
 11 13  1  0  0  0  0
 12 14  1  0  0  0  0
 12 15  1  6  0  0  0
 13 16  1  0  0  0  0
 13 17  1  6  0  0  0
 14 18  1  0  0  0  0
 15 19  1  0  0  0  0
 17 20  1  0  0  0  0
 18 21  1  6  0  0  0
 19 22  1  0  0  0  0
 22 23  2  0  0  0  0
 22 24  1  0  0  0  0
 24 25  1  0  0  0  0
 24 26  1  0  0  0  0
 25 27  1  0  0  0  0
 26 28  1  0  0  0  0
 27 29  1  0  0  0  0
 29 30  1  0  0  0  0
 30 31  1  0  0  0  0
 31 32  1  0  0  0  0
  6  7  1  0  0  0  0
 16 18  1  0  0  0  0
 28 29  1  0  0  0  0
M  END
>  <MolRegNo>
413889

>  <m>
=

>  <Value>
15600

>  <Unit>
nM

>  <Type>
IC50

>  <pValue>
4.81

>  <Ligand Efficiency>
0

>  <Binding Efficiency>
0

>  <Surface Efficiency>
0

>  <Assay Index>
306991

>  <Assay Category>


>  <Assay Organism>


>  <Target ID>
17045

>  <Target Name>
Cytochrome P450 3A4

>  <Target Organism>
Homo sapiens

>  <Target Description>
Target is a single protein chain

>  <Sequence Accession>
P08684

>  <Reference>
Bioorg Med Chem Lett 17 (22), 6290-6294 (2007)

>  <Pubmed ID>
17890085

>  <DOI>
10.1016/j.bmcl.2007.09.006

$$$$
413888
Actelion Java MolfileCreator 1.0

 33 35  0  0  1  0  0  0  0  0999 V2000
    0.0000   -0.0000   -0.0000 Cl  0  0  0  0  0  0  0  0  0  0  0  0
    0.0000    1.5085   -0.0000 C   0  0  0  0  0  0  0  0  0  0  0  0
   -1.2947    2.2806   -0.0000 C   0  0  0  0  0  0  0  0  0  0  0  0
    1.2947    2.2568   -0.0000 C   0  0  0  0  0  0  0  0  0  0  0  0
   -1.2947    3.7772   -0.0000 C   0  0  0  0  0  0  0  0  0  0  0  0
    1.2947    3.7534   -0.0000 C   0  0  0  0  0  0  0  0  0  0  0  0
    0.0000    4.5255   -0.0000 C   0  0  0  0  0  0  0  0  0  0  0  0
    0.0000    6.0340   -0.0000 S   0  0  0  0  0  0  0  0  0  0  0  0
    1.4847    6.0340   -0.0000 O   0  0  0  0  0  0  0  0  0  0  0  0
   -1.5085    6.0458   -0.0000 O   0  0  0  0  0  0  0  0  0  0  0  0
   -0.0119    7.5425   -0.0000 N   0  0  0  0  0  0  0  0  0  0  0  0
    1.2828    8.3026   -0.0000 C   0  0  0  0  0  0  0  0  0  0  0  0
   -1.3184    8.3026   -0.0000 C   0  0  0  0  0  0  0  0  0  0  0  0
    1.2709    9.8230   -0.0000 C   0  0  0  0  0  0  0  0  0  0  0  0
    2.5656    7.5662   -0.0000 C   0  0  0  0  0  0  0  0  0  0  0  0
   -1.3303    9.8230   -0.0000 C   0  0  0  0  0  0  0  0  0  0  0  0
   -2.6250    7.5662   -0.0000 C   0  0  0  0  0  0  0  0  0  0  0  0
   -0.0475   10.5951   -0.0000 C   0  0  0  0  0  0  0  0  0  0  0  0
    3.8603    8.3264   -0.0000 O   0  0  0  0  0  0  0  0  0  0  0  0
   -3.9316    8.3264   -0.0000 C   0  0  0  0  0  0  0  0  0  0  0  0
   -0.0594   12.1036   -0.0000 O   0  0  0  0  0  0  0  0  0  0  0  0
    5.1431    7.5900   -0.0000 C   0  0  0  0  0  0  0  0  0  0  0  0
    1.2234   12.8637   -0.0000 C   0  0  0  0  0  0  0  0  0  0  0  0
    5.1312    6.1052   -0.0000 O   0  0  0  0  0  0  0  0  0  0  0  0
    6.4378    8.3502   -0.0000 N   0  0  0  0  0  0  0  0  0  0  0  0
    7.7206    7.6137   -0.0000 C   0  0  0  0  0  0  0  0  0  0  0  0
    6.4259    9.8586   -0.0000 C   0  0  0  0  0  0  0  0  0  0  0  0
    9.0034    8.3620   -0.0000 C   0  0  0  0  0  0  0  0  0  0  0  0
    7.7206   10.6188   -0.0000 C   0  0  0  0  0  0  0  0  0  0  0  0
    9.0034    9.8705   -0.0000 N   0  0  0  0  0  0  0  0  0  0  0  0
   10.2862   10.6188   -0.0000 C   0  0  0  0  0  0  0  0  0  0  0  0
   10.2862   12.1273   -0.0000 C   0  0  0  0  0  0  0  0  0  0  0  0
   11.5691   12.8756   -0.0000 O   0  0  0  0  0  0  0  0  0  0  0  0
  1  2  1  0  0  0  0
  2  3  2  0  0  0  0
  2  4  1  0  0  0  0
  3  5  1  0  0  0  0
  4  6  2  0  0  0  0
  5  7  2  0  0  0  0
  7  8  1  0  0  0  0
  8  9  2  0  0  0  0
  8 10  2  0  0  0  0
  8 11  1  0  0  0  0
 11 12  1  0  0  0  0
 11 13  1  0  0  0  0
 12 14  1  0  0  0  0
 12 15  1  6  0  0  0
 13 16  1  0  0  0  0
 13 17  1  6  0  0  0
 14 18  1  0  0  0  0
 15 19  1  0  0  0  0
 17 20  1  0  0  0  0
 18 21  1  1  0  0  0
 19 22  1  0  0  0  0
 21 23  1  0  0  0  0
 22 24  2  0  0  0  0
 22 25  1  0  0  0  0
 25 26  1  0  0  0  0
 25 27  1  0  0  0  0
 26 28  1  0  0  0  0
 27 29  1  0  0  0  0
 28 30  1  0  0  0  0
 30 31  1  0  0  0  0
 31 32  1  0  0  0  0
 32 33  1  0  0  0  0
  6  7  1  0  0  0  0
 16 18  1  0  0  0  0
 29 30  1  0  0  0  0
M  END
>  <MolRegNo>
413888

>  <m>
=

>  <Value>
10100

>  <Unit>
nM

>  <Type>
IC50

>  <pValue>
5

>  <Ligand Efficiency>
0

>  <Binding Efficiency>
0

>  <Surface Efficiency>
0

>  <Assay Index>
306991

>  <Assay Category>


>  <Assay Organism>


>  <Target ID>
17045

>  <Target Name>
Cytochrome P450 3A4

>  <Target Organism>
Homo sapiens

>  <Target Description>
Target is a single protein chain

>  <Sequence Accession>
P08684

>  <Reference>
Bioorg Med Chem Lett 17 (22), 6290-6294 (2007)

>  <Pubmed ID>
17890085

>  <DOI>
10.1016/j.bmcl.2007.09.006

$$$$
413887
Actelion Java MolfileCreator 1.0

 33 35  0  0  1  0  0  0  0  0999 V2000
    0.0000   -0.0000   -0.0000 Cl  0  0  0  0  0  0  0  0  0  0  0  0
    0.0000    1.5081   -0.0000 C   0  0  0  0  0  0  0  0  0  0  0  0
   -1.2944    2.2800   -0.0000 C   0  0  0  0  0  0  0  0  0  0  0  0
    1.2944    2.2563   -0.0000 C   0  0  0  0  0  0  0  0  0  0  0  0
   -1.2944    3.7763   -0.0000 C   0  0  0  0  0  0  0  0  0  0  0  0
    1.2944    3.7526   -0.0000 C   0  0  0  0  0  0  0  0  0  0  0  0
    0.0000    4.5244   -0.0000 C   0  0  0  0  0  0  0  0  0  0  0  0
    0.0000    6.0326   -0.0000 S   0  0  0  0  0  0  0  0  0  0  0  0
    1.4844    6.0326   -0.0000 O   0  0  0  0  0  0  0  0  0  0  0  0
   -1.5081    6.0445   -0.0000 O   0  0  0  0  0  0  0  0  0  0  0  0
   -0.0119    7.5407   -0.0000 N   0  0  0  0  0  0  0  0  0  0  0  0
    1.2825    8.3007   -0.0000 C   0  0  0  0  0  0  0  0  0  0  0  0
   -1.3181    8.3007   -0.0000 C   0  0  0  0  0  0  0  0  0  0  0  0
    1.2706    9.8208   -0.0000 C   0  0  0  0  0  0  0  0  0  0  0  0
    2.5650    7.5645   -0.0000 C   0  0  0  0  0  0  0  0  0  0  0  0
   -1.3300    9.8208   -0.0000 C   0  0  0  0  0  0  0  0  0  0  0  0
   -2.6244    7.5645   -0.0000 C   0  0  0  0  0  0  0  0  0  0  0  0
   -0.0475   10.5927   -0.0000 C   0  0  0  0  0  0  0  0  0  0  0  0
    3.8594    8.3245   -0.0000 O   0  0  0  0  0  0  0  0  0  0  0  0
   -3.9307    8.3245   -0.0000 C   0  0  0  0  0  0  0  0  0  0  0  0
   -0.0594   12.1008   -0.0000 O   0  0  0  0  0  0  0  0  0  0  0  0
    5.1420    7.5882   -0.0000 C   0  0  0  0  0  0  0  0  0  0  0  0
    1.2231   12.8608   -0.0000 C   0  0  0  0  0  0  0  0  0  0  0  0
    5.1301    6.1038   -0.0000 O   0  0  0  0  0  0  0  0  0  0  0  0
    6.4363    8.3482   -0.0000 N   0  0  0  0  0  0  0  0  0  0  0  0
    7.7189    7.6001   -0.0000 C   0  0  0  0  0  0  0  0  0  0  0  0
    6.4245    9.8564   -0.0000 C   0  0  0  0  0  0  0  0  0  0  0  0
    9.0014    8.3482   -0.0000 C   0  0  0  0  0  0  0  0  0  0  0  0
    7.7189   10.6164   -0.0000 C   0  0  0  0  0  0  0  0  0  0  0  0
    9.0014    9.8564   -0.0000 N   0  0  0  0  0  0  0  0  0  0  0  0
   10.2839   10.6045   -0.0000 C   0  0  0  0  0  0  0  0  0  0  0  0
   10.2839   12.1127   -0.0000 C   0  0  0  0  0  0  0  0  0  0  0  0
   11.5664   12.8608   -0.0000 O   0  0  0  0  0  0  0  0  0  0  0  0
  1  2  1  0  0  0  0
  2  3  2  0  0  0  0
  2  4  1  0  0  0  0
  3  5  1  0  0  0  0
  4  6  2  0  0  0  0
  5  7  2  0  0  0  0
  7  8  1  0  0  0  0
  8  9  2  0  0  0  0
  8 10  2  0  0  0  0
  8 11  1  0  0  0  0
 11 12  1  0  0  0  0
 11 13  1  0  0  0  0
 12 14  1  0  0  0  0
 12 15  1  6  0  0  0
 13 16  1  0  0  0  0
 13 17  1  6  0  0  0
 14 18  1  0  0  0  0
 15 19  1  0  0  0  0
 17 20  1  0  0  0  0
 18 21  1  6  0  0  0
 19 22  1  0  0  0  0
 21 23  1  0  0  0  0
 22 24  2  0  0  0  0
 22 25  1  0  0  0  0
 25 26  1  0  0  0  0
 25 27  1  0  0  0  0
 26 28  1  0  0  0  0
 27 29  1  0  0  0  0
 28 30  1  0  0  0  0
 30 31  1  0  0  0  0
 31 32  1  0  0  0  0
 32 33  1  0  0  0  0
  6  7  1  0  0  0  0
 16 18  1  0  0  0  0
 29 30  1  0  0  0  0
M  END
>  <MolRegNo>
413887

>  <m>
=

>  <Value>
30000

>  <Unit>
nM

>  <Type>
IC50

>  <pValue>
4.52

>  <Ligand Efficiency>
0

>  <Binding Efficiency>
0

>  <Surface Efficiency>
0

>  <Assay Index>
306991

>  <Assay Category>


>  <Assay Organism>


>  <Target ID>
17045

>  <Target Name>
Cytochrome P450 3A4

>  <Target Organism>
Homo sapiens

>  <Target Description>
Target is a single protein chain

>  <Sequence Accession>
P08684

>  <Reference>
Bioorg Med Chem Lett 17 (22), 6290-6294 (2007)

>  <Pubmed ID>
17890085

>  <DOI>
10.1016/j.bmcl.2007.09.006

$$$$
413886
Actelion Java MolfileCreator 1.0

 32 34  0  0  1  0  0  0  0  0999 V2000
    0.0000   -0.0000   -0.0000 Cl  0  0  0  0  0  0  0  0  0  0  0  0
    0.0000    1.5086   -0.0000 C   0  0  0  0  0  0  0  0  0  0  0  0
   -1.2948    2.2807   -0.0000 C   0  0  0  0  0  0  0  0  0  0  0  0
    1.2948    2.2569   -0.0000 C   0  0  0  0  0  0  0  0  0  0  0  0
   -1.2948    3.7774   -0.0000 C   0  0  0  0  0  0  0  0  0  0  0  0
    1.2948    3.7536   -0.0000 C   0  0  0  0  0  0  0  0  0  0  0  0
    0.0000    4.5257   -0.0000 C   0  0  0  0  0  0  0  0  0  0  0  0
    0.0000    6.0343   -0.0000 S   0  0  0  0  0  0  0  0  0  0  0  0
    1.4848    6.0343   -0.0000 O   0  0  0  0  0  0  0  0  0  0  0  0
   -1.5086    6.0462   -0.0000 O   0  0  0  0  0  0  0  0  0  0  0  0
   -0.0119    7.5429   -0.0000 N   0  0  0  0  0  0  0  0  0  0  0  0
   -1.3185    8.3031   -0.0000 C   0  0  0  0  0  0  0  0  0  0  0  0
    1.2829    8.3031   -0.0000 C   0  0  0  0  0  0  0  0  0  0  0  0
   -2.6252    7.5666   -0.0000 C   0  0  0  0  0  0  0  0  0  0  0  0
   -1.3304    9.8236   -0.0000 C   0  0  0  0  0  0  0  0  0  0  0  0
    1.2710    9.8236   -0.0000 C   0  0  0  0  0  0  0  0  0  0  0  0
    2.5658    7.5666   -0.0000 C   0  0  0  0  0  0  0  0  0  0  0  0
   -3.9318    8.3269   -0.0000 C   0  0  0  0  0  0  0  0  0  0  0  0
   -2.6370    6.0818   -0.0000 C   0  0  0  0  0  0  0  0  0  0  0  0
   -0.0475   10.5957   -0.0000 C   0  0  0  0  0  0  0  0  0  0  0  0
    3.8605    8.3269   -0.0000 O   0  0  0  0  0  0  0  0  0  0  0  0
    5.1434    7.5904   -0.0000 C   0  0  0  0  0  0  0  0  0  0  0  0
    5.1315    6.1056   -0.0000 O   0  0  0  0  0  0  0  0  0  0  0  0
    6.4382    8.3506   -0.0000 N   0  0  0  0  0  0  0  0  0  0  0  0
    7.7211    7.6023   -0.0000 C   0  0  0  0  0  0  0  0  0  0  0  0
    6.4263    9.8592   -0.0000 C   0  0  0  0  0  0  0  0  0  0  0  0
    9.0039    8.3506   -0.0000 C   0  0  0  0  0  0  0  0  0  0  0  0
    7.7211   10.6194   -0.0000 C   0  0  0  0  0  0  0  0  0  0  0  0
    9.0039    9.8592   -0.0000 N   0  0  0  0  0  0  0  0  0  0  0  0
   10.2868   10.6076   -0.0000 C   0  0  0  0  0  0  0  0  0  0  0  0
   10.2868   12.1161   -0.0000 C   0  0  0  0  0  0  0  0  0  0  0  0
   11.5697   12.8645   -0.0000 O   0  0  0  0  0  0  0  0  0  0  0  0
  1  2  1  0  0  0  0
  2  3  2  0  0  0  0
  2  4  1  0  0  0  0
  3  5  1  0  0  0  0
  4  6  2  0  0  0  0
  5  7  2  0  0  0  0
  7  8  1  0  0  0  0
  8  9  2  0  0  0  0
  8 10  2  0  0  0  0
  8 11  1  0  0  0  0
 11 12  1  0  0  0  0
 11 13  1  0  0  0  0
 12 14  1  6  0  0  0
 12 15  1  0  0  0  0
 13 16  1  0  0  0  0
 13 17  1  6  0  0  0
 14 18  1  0  0  0  0
 14 19  1  0  0  0  0
 15 20  1  0  0  0  0
 17 21  1  0  0  0  0
 21 22  1  0  0  0  0
 22 23  2  0  0  0  0
 22 24  1  0  0  0  0
 24 25  1  0  0  0  0
 24 26  1  0  0  0  0
 25 27  1  0  0  0  0
 26 28  1  0  0  0  0
 27 29  1  0  0  0  0
 29 30  1  0  0  0  0
 30 31  1  0  0  0  0
 31 32  1  0  0  0  0
  6  7  1  0  0  0  0
 16 20  1  0  0  0  0
 28 29  1  0  0  0  0
M  END
>  <MolRegNo>
413886

>  <m>
=

>  <Value>
300

>  <Unit>
nM

>  <Type>
IC50

>  <pValue>
6.52

>  <Ligand Efficiency>
0

>  <Binding Efficiency>
0

>  <Surface Efficiency>
0

>  <Assay Index>
306991

>  <Assay Category>


>  <Assay Organism>


>  <Target ID>
17045

>  <Target Name>
Cytochrome P450 3A4

>  <Target Organism>
Homo sapiens

>  <Target Description>
Target is a single protein chain

>  <Sequence Accession>
P08684

>  <Reference>
Bioorg Med Chem Lett 17 (22), 6290-6294 (2007)

>  <Pubmed ID>
17890085

>  <DOI>
10.1016/j.bmcl.2007.09.006

$$$$
413885
Actelion Java MolfileCreator 1.0

 32 35  0  0  1  0  0  0  0  0999 V2000
    0.0000   -0.0000   -0.0000 Cl  0  0  0  0  0  0  0  0  0  0  0  0
    0.0000    1.5079   -0.0000 C   0  0  0  0  0  0  0  0  0  0  0  0
   -1.2941    2.2796   -0.0000 C   0  0  0  0  0  0  0  0  0  0  0  0
    1.2941    2.2558   -0.0000 C   0  0  0  0  0  0  0  0  0  0  0  0
   -1.2941    3.7756   -0.0000 C   0  0  0  0  0  0  0  0  0  0  0  0
    1.2941    3.7518   -0.0000 C   0  0  0  0  0  0  0  0  0  0  0  0
    0.0000    4.5236   -0.0000 C   0  0  0  0  0  0  0  0  0  0  0  0
    0.0000    6.0314   -0.0000 S   0  0  0  0  0  0  0  0  0  0  0  0
    1.4841    6.0314   -0.0000 O   0  0  0  0  0  0  0  0  0  0  0  0
   -1.5079    6.0433   -0.0000 O   0  0  0  0  0  0  0  0  0  0  0  0
   -0.0119    7.5393   -0.0000 N   0  0  0  0  0  0  0  0  0  0  0  0
   -1.3179    8.2991   -0.0000 C   0  0  0  0  0  0  0  0  0  0  0  0
    1.2823    8.2991   -0.0000 C   0  0  0  0  0  0  0  0  0  0  0  0
   -2.6239    7.5630   -0.0000 C   0  0  0  0  0  0  0  0  0  0  0  0
   -1.3298    9.8189   -0.0000 C   0  0  0  0  0  0  0  0  0  0  0  0
    1.2704    9.8189   -0.0000 C   0  0  0  0  0  0  0  0  0  0  0  0
    2.5645    7.5630   -0.0000 C   0  0  0  0  0  0  0  0  0  0  0  0
   -4.1436    7.5749   -0.0000 C   0  0  0  0  0  0  0  0  0  0  0  0
   -3.3956    6.2689   -0.0000 C   0  0  0  0  0  0  0  0  0  0  0  0
   -0.0475   10.5906   -0.0000 C   0  0  0  0  0  0  0  0  0  0  0  0
    3.8587    8.3229   -0.0000 O   0  0  0  0  0  0  0  0  0  0  0  0
    5.1409    7.5868   -0.0000 C   0  0  0  0  0  0  0  0  0  0  0  0
    5.1291    6.1026   -0.0000 O   0  0  0  0  0  0  0  0  0  0  0  0
    6.4351    8.3466   -0.0000 N   0  0  0  0  0  0  0  0  0  0  0  0
    7.7174    7.6105   -0.0000 C   0  0  0  0  0  0  0  0  0  0  0  0
    6.4232    9.8545   -0.0000 C   0  0  0  0  0  0  0  0  0  0  0  0
    8.9996    8.3585   -0.0000 C   0  0  0  0  0  0  0  0  0  0  0  0
    7.7174   10.6143   -0.0000 C   0  0  0  0  0  0  0  0  0  0  0  0
    8.9996    9.8663   -0.0000 N   0  0  0  0  0  0  0  0  0  0  0  0
   10.2819   10.6143   -0.0000 C   0  0  0  0  0  0  0  0  0  0  0  0
   10.2819   12.1222   -0.0000 C   0  0  0  0  0  0  0  0  0  0  0  0
   11.5642   12.8702   -0.0000 O   0  0  0  0  0  0  0  0  0  0  0  0
  1  2  1  0  0  0  0
  2  3  2  0  0  0  0
  2  4  1  0  0  0  0
  3  5  1  0  0  0  0
  4  6  2  0  0  0  0
  5  7  2  0  0  0  0
  7  8  1  0  0  0  0
  8  9  2  0  0  0  0
  8 10  2  0  0  0  0
  8 11  1  0  0  0  0
 11 12  1  0  0  0  0
 11 13  1  0  0  0  0
 12 14  1  6  0  0  0
 12 15  1  0  0  0  0
 13 16  1  0  0  0  0
 13 17  1  6  0  0  0
 14 18  1  0  0  0  0
 14 19  1  0  0  0  0
 15 20  1  0  0  0  0
 17 21  1  0  0  0  0
 21 22  1  0  0  0  0
 22 23  2  0  0  0  0
 22 24  1  0  0  0  0
 24 25  1  0  0  0  0
 24 26  1  0  0  0  0
 25 27  1  0  0  0  0
 26 28  1  0  0  0  0
 27 29  1  0  0  0  0
 29 30  1  0  0  0  0
 30 31  1  0  0  0  0
 31 32  1  0  0  0  0
  6  7  1  0  0  0  0
 16 20  1  0  0  0  0
 18 19  1  0  0  0  0
 28 29  1  0  0  0  0
M  END
>  <MolRegNo>
413885

>  <m>
=

>  <Value>
300

>  <Unit>
nM

>  <Type>
IC50

>  <pValue>
6.52

>  <Ligand Efficiency>
0

>  <Binding Efficiency>
0

>  <Surface Efficiency>
0

>  <Assay Index>
306991

>  <Assay Category>


>  <Assay Organism>


>  <Target ID>
17045

>  <Target Name>
Cytochrome P450 3A4

>  <Target Organism>
Homo sapiens

>  <Target Description>
Target is a single protein chain

>  <Sequence Accession>
P08684

>  <Reference>
Bioorg Med Chem Lett 17 (22), 6290-6294 (2007)

>  <Pubmed ID>
17890085

>  <DOI>
10.1016/j.bmcl.2007.09.006

$$$$
413884
Actelion Java MolfileCreator 1.0

 35 38  0  0  1  0  0  0  0  0999 V2000
    0.0000   -0.0000   -0.0000 Cl  0  0  0  0  0  0  0  0  0  0  0  0
    0.0000    1.5077   -0.0000 C   0  0  0  0  0  0  0  0  0  0  0  0
   -1.2940    2.2794   -0.0000 C   0  0  0  0  0  0  0  0  0  0  0  0
    1.2940    2.2556   -0.0000 C   0  0  0  0  0  0  0  0  0  0  0  0
   -1.2940    3.7871   -0.0000 C   0  0  0  0  0  0  0  0  0  0  0  0
    1.2940    3.7515   -0.0000 C   0  0  0  0  0  0  0  0  0  0  0  0
    0.0000    4.5350   -0.0000 C   0  0  0  0  0  0  0  0  0  0  0  0
    0.0000    6.0427   -0.0000 S   0  0  0  0  0  0  0  0  0  0  0  0
    1.4840    6.0427   -0.0000 O   0  0  0  0  0  0  0  0  0  0  0  0
   -1.5077    6.0546   -0.0000 O   0  0  0  0  0  0  0  0  0  0  0  0
   -0.0119    7.5505   -0.0000 N   0  0  0  0  0  0  0  0  0  0  0  0
    1.2822    8.3103   -0.0000 C   0  0  0  0  0  0  0  0  0  0  0  0
   -1.3178    8.3103   -0.0000 C   0  0  0  0  0  0  0  0  0  0  0  0
    1.2703    9.8298   -0.0000 C   0  0  0  0  0  0  0  0  0  0  0  0
    2.5643    7.5742   -0.0000 C   0  0  0  0  0  0  0  0  0  0  0  0
   -1.3296    9.8298   -0.0000 C   0  0  0  0  0  0  0  0  0  0  0  0
   -2.6237    7.5742   -0.0000 C   0  0  0  0  0  0  0  0  0  0  0  0
   -0.0475   10.6015   -0.0000 C   0  0  0  0  0  0  0  0  0  0  0  0
    3.8583    8.3340   -0.0000 O   0  0  0  0  0  0  0  0  0  0  0  0
   -3.9296    8.3340   -0.0000 C   0  0  0  0  0  0  0  0  0  0  0  0
   -0.0594   12.1092   -0.0000 O   0  0  0  0  0  0  0  0  0  0  0  0
    5.1405    7.5979   -0.0000 C   0  0  0  0  0  0  0  0  0  0  0  0
    5.1286    6.1140   -0.0000 O   0  0  0  0  0  0  0  0  0  0  0  0
    6.4345    8.3577   -0.0000 N   0  0  0  0  0  0  0  0  0  0  0  0
    7.7167    7.6098   -0.0000 C   0  0  0  0  0  0  0  0  0  0  0  0
    6.4226    9.8655   -0.0000 C   0  0  0  0  0  0  0  0  0  0  0  0
    8.9988    8.3577   -0.0000 C   0  0  0  0  0  0  0  0  0  0  0  0
    7.7167   10.6253   -0.0000 C   0  0  0  0  0  0  0  0  0  0  0  0
    8.9988    9.8655   -0.0000 C   0  0  0  0  0  0  0  0  0  0  0  0
   10.2928   10.6253   -0.0000 N   0  0  0  0  0  0  0  0  0  0  0  0
   11.5750    9.8773   -0.0000 C   0  0  0  0  0  0  0  0  0  0  0  0
   10.2810   12.1330   -0.0000 C   0  0  0  0  0  0  0  0  0  0  0  0
   12.8572   10.6253   -0.0000 C   0  0  0  0  0  0  0  0  0  0  0  0
   11.5750   12.8809   -0.0000 C   0  0  0  0  0  0  0  0  0  0  0  0
   12.8572   12.1330   -0.0000 C   0  0  0  0  0  0  0  0  0  0  0  0
  1  2  1  0  0  0  0
  2  3  2  0  0  0  0
  2  4  1  0  0  0  0
  3  5  1  0  0  0  0
  4  6  2  0  0  0  0
  5  7  2  0  0  0  0
  7  8  1  0  0  0  0
  8  9  2  0  0  0  0
  8 10  2  0  0  0  0
  8 11  1  0  0  0  0
 11 12  1  0  0  0  0
 11 13  1  0  0  0  0
 12 14  1  0  0  0  0
 12 15  1  6  0  0  0
 13 16  1  0  0  0  0
 13 17  1  6  0  0  0
 14 18  1  0  0  0  0
 15 19  1  0  0  0  0
 17 20  1  0  0  0  0
 18 21  1  6  0  0  0
 19 22  1  0  0  0  0
 22 23  2  0  0  0  0
 22 24  1  0  0  0  0
 24 25  1  0  0  0  0
 24 26  1  0  0  0  0
 25 27  1  0  0  0  0
 26 28  1  0  0  0  0
 27 29  1  0  0  0  0
 29 30  1  0  0  0  0
 30 31  1  0  0  0  0
 30 32  1  0  0  0  0
 31 33  1  0  0  0  0
 32 34  1  0  0  0  0
 33 35  1  0  0  0  0
  6  7  1  0  0  0  0
 16 18  1  0  0  0  0
 28 29  1  0  0  0  0
 34 35  1  0  0  0  0
M  END
>  <MolRegNo>
413884

>  <m>
=

>  <Value>
24300

>  <Unit>
nM

>  <Type>
IC50

>  <pValue>
4.61

>  <Ligand Efficiency>
0

>  <Binding Efficiency>
0

>  <Surface Efficiency>
0

>  <Assay Index>
306991

>  <Assay Category>


>  <Assay Organism>


>  <Target ID>
17045

>  <Target Name>
Cytochrome P450 3A4

>  <Target Organism>
Homo sapiens

>  <Target Description>
Target is a single protein chain

>  <Sequence Accession>
P08684

>  <Reference>
Bioorg Med Chem Lett 17 (22), 6290-6294 (2007)

>  <Pubmed ID>
17890085

>  <DOI>
10.1016/j.bmcl.2007.09.006

$$$$
413872
Actelion Java MolfileCreator 1.0

 36 39  0  0  1  0  0  0  0  0999 V2000
    0.0000   -0.0000   -0.0000 Cl  0  0  0  0  0  0  0  0  0  0  0  0
    0.0000    1.5084   -0.0000 C   0  0  0  0  0  0  0  0  0  0  0  0
   -1.2946    2.2805   -0.0000 C   0  0  0  0  0  0  0  0  0  0  0  0
    1.2946    2.2567   -0.0000 C   0  0  0  0  0  0  0  0  0  0  0  0
   -1.2946    3.7770   -0.0000 C   0  0  0  0  0  0  0  0  0  0  0  0
    1.2946    3.7533   -0.0000 C   0  0  0  0  0  0  0  0  0  0  0  0
    0.0000    4.5253   -0.0000 C   0  0  0  0  0  0  0  0  0  0  0  0
    0.0000    6.0337   -0.0000 S   0  0  0  0  0  0  0  0  0  0  0  0
    1.4847    6.0337   -0.0000 O   0  0  0  0  0  0  0  0  0  0  0  0
   -1.5084    6.0456   -0.0000 O   0  0  0  0  0  0  0  0  0  0  0  0
   -0.0119    7.5421   -0.0000 N   0  0  0  0  0  0  0  0  0  0  0  0
    1.2828    8.3023   -0.0000 C   0  0  0  0  0  0  0  0  0  0  0  0
   -1.3184    8.3023   -0.0000 C   0  0  0  0  0  0  0  0  0  0  0  0
    1.2709    9.8226   -0.0000 C   0  0  0  0  0  0  0  0  0  0  0  0
    2.5655    7.5659   -0.0000 C   0  0  0  0  0  0  0  0  0  0  0  0
   -1.3303    9.8226   -0.0000 C   0  0  0  0  0  0  0  0  0  0  0  0
   -2.6249    7.5659   -0.0000 C   0  0  0  0  0  0  0  0  0  0  0  0
   -0.0475   10.5946   -0.0000 C   0  0  0  0  0  0  0  0  0  0  0  0
    3.8602    8.3261   -0.0000 O   0  0  0  0  0  0  0  0  0  0  0  0
   -3.9314    8.3261   -0.0000 C   0  0  0  0  0  0  0  0  0  0  0  0
   -0.0594   12.1031   -0.0000 O   0  0  0  0  0  0  0  0  0  0  0  0
    5.1429    7.5897   -0.0000 C   0  0  0  0  0  0  0  0  0  0  0  0
    1.2234   12.8632   -0.0000 C   0  0  0  0  0  0  0  0  0  0  0  0
    5.1310    6.1050   -0.0000 O   0  0  0  0  0  0  0  0  0  0  0  0
    6.4376    8.3498   -0.0000 N   0  0  0  0  0  0  0  0  0  0  0  0
    7.7203    7.6015   -0.0000 C   0  0  0  0  0  0  0  0  0  0  0  0
    6.4257    9.8582   -0.0000 C   0  0  0  0  0  0  0  0  0  0  0  0
    9.0031    8.3498   -0.0000 C   0  0  0  0  0  0  0  0  0  0  0  0
    7.7203   10.6184   -0.0000 C   0  0  0  0  0  0  0  0  0  0  0  0
    9.0031    9.8582   -0.0000 C   0  0  0  0  0  0  0  0  0  0  0  0
   10.2977   10.6184   -0.0000 N   0  0  0  0  0  0  0  0  0  0  0  0
   11.5805    9.8701   -0.0000 C   0  0  0  0  0  0  0  0  0  0  0  0
   10.2858   12.1268   -0.0000 C   0  0  0  0  0  0  0  0  0  0  0  0
   12.8632   10.6184   -0.0000 C   0  0  0  0  0  0  0  0  0  0  0  0
   11.5805   12.8751   -0.0000 C   0  0  0  0  0  0  0  0  0  0  0  0
   12.8632   12.1268   -0.0000 C   0  0  0  0  0  0  0  0  0  0  0  0
  1  2  1  0  0  0  0
  2  3  2  0  0  0  0
  2  4  1  0  0  0  0
  3  5  1  0  0  0  0
  4  6  2  0  0  0  0
  5  7  2  0  0  0  0
  7  8  1  0  0  0  0
  8  9  2  0  0  0  0
  8 10  2  0  0  0  0
  8 11  1  0  0  0  0
 11 12  1  0  0  0  0
 11 13  1  0  0  0  0
 12 14  1  0  0  0  0
 12 15  1  6  0  0  0
 13 16  1  0  0  0  0
 13 17  1  6  0  0  0
 14 18  1  0  0  0  0
 15 19  1  0  0  0  0
 17 20  1  0  0  0  0
 18 21  1  1  0  0  0
 19 22  1  0  0  0  0
 21 23  1  0  0  0  0
 22 24  2  0  0  0  0
 22 25  1  0  0  0  0
 25 26  1  0  0  0  0
 25 27  1  0  0  0  0
 26 28  1  0  0  0  0
 27 29  1  0  0  0  0
 28 30  1  0  0  0  0
 30 31  1  0  0  0  0
 31 32  1  0  0  0  0
 31 33  1  0  0  0  0
 32 34  1  0  0  0  0
 33 35  1  0  0  0  0
 34 36  1  0  0  0  0
  6  7  1  0  0  0  0
 16 18  1  0  0  0  0
 29 30  1  0  0  0  0
 35 36  1  0  0  0  0
M  END
>  <MolRegNo>
413872

>  <m>
=

>  <Value>
3400

>  <Unit>
nM

>  <Type>
IC50

>  <pValue>
5.47

>  <Ligand Efficiency>
0

>  <Binding Efficiency>
0

>  <Surface Efficiency>
0

>  <Assay Index>
306991

>  <Assay Category>


>  <Assay Organism>


>  <Target ID>
17045

>  <Target Name>
Cytochrome P450 3A4

>  <Target Organism>
Homo sapiens

>  <Target Description>
Target is a single protein chain

>  <Sequence Accession>
P08684

>  <Reference>
Bioorg Med Chem Lett 17 (22), 6290-6294 (2007)

>  <Pubmed ID>
17890085

>  <DOI>
10.1016/j.bmcl.2007.09.006

$$$$
413871
Actelion Java MolfileCreator 1.0

 36 39  0  0  1  0  0  0  0  0999 V2000
    0.0000   -0.0000   -0.0000 Cl  0  0  0  0  0  0  0  0  0  0  0  0
    0.0000    1.5084   -0.0000 C   0  0  0  0  0  0  0  0  0  0  0  0
   -1.2946    2.2805   -0.0000 C   0  0  0  0  0  0  0  0  0  0  0  0
    1.2946    2.2567   -0.0000 C   0  0  0  0  0  0  0  0  0  0  0  0
   -1.2946    3.7770   -0.0000 C   0  0  0  0  0  0  0  0  0  0  0  0
    1.2946    3.7533   -0.0000 C   0  0  0  0  0  0  0  0  0  0  0  0
    0.0000    4.5253   -0.0000 C   0  0  0  0  0  0  0  0  0  0  0  0
    0.0000    6.0337   -0.0000 S   0  0  0  0  0  0  0  0  0  0  0  0
    1.4847    6.0337   -0.0000 O   0  0  0  0  0  0  0  0  0  0  0  0
   -1.5084    6.0456   -0.0000 O   0  0  0  0  0  0  0  0  0  0  0  0
   -0.0119    7.5421   -0.0000 N   0  0  0  0  0  0  0  0  0  0  0  0
    1.2828    8.3023   -0.0000 C   0  0  0  0  0  0  0  0  0  0  0  0
   -1.3184    8.3023   -0.0000 C   0  0  0  0  0  0  0  0  0  0  0  0
    1.2709    9.8226   -0.0000 C   0  0  0  0  0  0  0  0  0  0  0  0
    2.5655    7.5659   -0.0000 C   0  0  0  0  0  0  0  0  0  0  0  0
   -1.3303    9.8226   -0.0000 C   0  0  0  0  0  0  0  0  0  0  0  0
   -2.6249    7.5659   -0.0000 C   0  0  0  0  0  0  0  0  0  0  0  0
   -0.0475   10.5946   -0.0000 C   0  0  0  0  0  0  0  0  0  0  0  0
    3.8602    8.3261   -0.0000 O   0  0  0  0  0  0  0  0  0  0  0  0
   -3.9314    8.3261   -0.0000 C   0  0  0  0  0  0  0  0  0  0  0  0
   -0.0594   12.1031   -0.0000 O   0  0  0  0  0  0  0  0  0  0  0  0
    5.1429    7.5897   -0.0000 C   0  0  0  0  0  0  0  0  0  0  0  0
    1.2234   12.8632   -0.0000 C   0  0  0  0  0  0  0  0  0  0  0  0
    5.1310    6.1050   -0.0000 O   0  0  0  0  0  0  0  0  0  0  0  0
    6.4376    8.3498   -0.0000 N   0  0  0  0  0  0  0  0  0  0  0  0
    7.7203    7.6015   -0.0000 C   0  0  0  0  0  0  0  0  0  0  0  0
    6.4257    9.8582   -0.0000 C   0  0  0  0  0  0  0  0  0  0  0  0
    9.0031    8.3498   -0.0000 C   0  0  0  0  0  0  0  0  0  0  0  0
    7.7203   10.6184   -0.0000 C   0  0  0  0  0  0  0  0  0  0  0  0
    9.0031    9.8582   -0.0000 C   0  0  0  0  0  0  0  0  0  0  0  0
   10.2977   10.6184   -0.0000 N   0  0  0  0  0  0  0  0  0  0  0  0
   11.5805    9.8701   -0.0000 C   0  0  0  0  0  0  0  0  0  0  0  0
   10.2858   12.1268   -0.0000 C   0  0  0  0  0  0  0  0  0  0  0  0
   12.8632   10.6184   -0.0000 C   0  0  0  0  0  0  0  0  0  0  0  0
   11.5805   12.8751   -0.0000 C   0  0  0  0  0  0  0  0  0  0  0  0
   12.8632   12.1268   -0.0000 C   0  0  0  0  0  0  0  0  0  0  0  0
  1  2  1  0  0  0  0
  2  3  2  0  0  0  0
  2  4  1  0  0  0  0
  3  5  1  0  0  0  0
  4  6  2  0  0  0  0
  5  7  2  0  0  0  0
  7  8  1  0  0  0  0
  8  9  2  0  0  0  0
  8 10  2  0  0  0  0
  8 11  1  0  0  0  0
 11 12  1  0  0  0  0
 11 13  1  0  0  0  0
 12 14  1  0  0  0  0
 12 15  1  6  0  0  0
 13 16  1  0  0  0  0
 13 17  1  6  0  0  0
 14 18  1  0  0  0  0
 15 19  1  0  0  0  0
 17 20  1  0  0  0  0
 18 21  1  6  0  0  0
 19 22  1  0  0  0  0
 21 23  1  0  0  0  0
 22 24  2  0  0  0  0
 22 25  1  0  0  0  0
 25 26  1  0  0  0  0
 25 27  1  0  0  0  0
 26 28  1  0  0  0  0
 27 29  1  0  0  0  0
 28 30  1  0  0  0  0
 30 31  1  0  0  0  0
 31 32  1  0  0  0  0
 31 33  1  0  0  0  0
 32 34  1  0  0  0  0
 33 35  1  0  0  0  0
 34 36  1  0  0  0  0
  6  7  1  0  0  0  0
 16 18  1  0  0  0  0
 29 30  1  0  0  0  0
 35 36  1  0  0  0  0
M  END
>  <MolRegNo>
413871

>  <m>
=

>  <Value>
5000

>  <Unit>
nM

>  <Type>
IC50

>  <pValue>
5.3

>  <Ligand Efficiency>
0

>  <Binding Efficiency>
0

>  <Surface Efficiency>
0

>  <Assay Index>
306991

>  <Assay Category>


>  <Assay Organism>


>  <Target ID>
17045

>  <Target Name>
Cytochrome P450 3A4

>  <Target Organism>
Homo sapiens

>  <Target Description>
Target is a single protein chain

>  <Sequence Accession>
P08684

>  <Reference>
Bioorg Med Chem Lett 17 (22), 6290-6294 (2007)

>  <Pubmed ID>
17890085

>  <DOI>
10.1016/j.bmcl.2007.09.006

$$$$
413870
Actelion Java MolfileCreator 1.0

 35 38  0  0  1  0  0  0  0  0999 V2000
    0.0000   -0.0000   -0.0000 Cl  0  0  0  0  0  0  0  0  0  0  0  0
    0.0000    1.5091   -0.0000 C   0  0  0  0  0  0  0  0  0  0  0  0
   -1.2952    2.2815   -0.0000 C   0  0  0  0  0  0  0  0  0  0  0  0
    1.2952    2.2578   -0.0000 C   0  0  0  0  0  0  0  0  0  0  0  0
   -1.2952    3.7788   -0.0000 C   0  0  0  0  0  0  0  0  0  0  0  0
    1.2952    3.7550   -0.0000 C   0  0  0  0  0  0  0  0  0  0  0  0
    0.0000    4.5274   -0.0000 C   0  0  0  0  0  0  0  0  0  0  0  0
    0.0000    6.0366   -0.0000 S   0  0  0  0  0  0  0  0  0  0  0  0
    1.4854    6.0366   -0.0000 O   0  0  0  0  0  0  0  0  0  0  0  0
   -1.5091    6.0484   -0.0000 O   0  0  0  0  0  0  0  0  0  0  0  0
   -0.0119    7.5457   -0.0000 N   0  0  0  0  0  0  0  0  0  0  0  0
   -1.3190    8.3062   -0.0000 C   0  0  0  0  0  0  0  0  0  0  0  0
    1.2834    8.3062   -0.0000 C   0  0  0  0  0  0  0  0  0  0  0  0
   -2.6261    7.5695   -0.0000 C   0  0  0  0  0  0  0  0  0  0  0  0
   -1.3309    9.8272   -0.0000 C   0  0  0  0  0  0  0  0  0  0  0  0
    1.2715    9.8272   -0.0000 C   0  0  0  0  0  0  0  0  0  0  0  0
    2.5667    7.5695   -0.0000 C   0  0  0  0  0  0  0  0  0  0  0  0
   -3.9333    8.3300   -0.0000 C   0  0  0  0  0  0  0  0  0  0  0  0
   -2.6380    6.0841   -0.0000 C   0  0  0  0  0  0  0  0  0  0  0  0
   -0.0475   10.5996   -0.0000 C   0  0  0  0  0  0  0  0  0  0  0  0
    3.8620    8.3300   -0.0000 O   0  0  0  0  0  0  0  0  0  0  0  0
    5.1453    7.5932   -0.0000 C   0  0  0  0  0  0  0  0  0  0  0  0
    5.1334    6.1079   -0.0000 O   0  0  0  0  0  0  0  0  0  0  0  0
    6.4406    8.3537   -0.0000 N   0  0  0  0  0  0  0  0  0  0  0  0
    7.7239    7.6170   -0.0000 C   0  0  0  0  0  0  0  0  0  0  0  0
    6.4287    9.8629   -0.0000 C   0  0  0  0  0  0  0  0  0  0  0  0
    9.0073    8.3656   -0.0000 C   0  0  0  0  0  0  0  0  0  0  0  0
    7.7239   10.6234   -0.0000 C   0  0  0  0  0  0  0  0  0  0  0  0
    9.0073    9.8748   -0.0000 C   0  0  0  0  0  0  0  0  0  0  0  0
   10.3025   10.6353   -0.0000 N   0  0  0  0  0  0  0  0  0  0  0  0
   11.5859    9.8866   -0.0000 C   0  0  0  0  0  0  0  0  0  0  0  0
   10.2907   12.1444   -0.0000 C   0  0  0  0  0  0  0  0  0  0  0  0
   12.8693   10.6353   -0.0000 C   0  0  0  0  0  0  0  0  0  0  0  0
   11.5859   12.8930   -0.0000 C   0  0  0  0  0  0  0  0  0  0  0  0
   12.8693   12.1444   -0.0000 C   0  0  0  0  0  0  0  0  0  0  0  0
  1  2  1  0  0  0  0
  2  3  2  0  0  0  0
  2  4  1  0  0  0  0
  3  5  1  0  0  0  0
  4  6  2  0  0  0  0
  5  7  2  0  0  0  0
  7  8  1  0  0  0  0
  8  9  2  0  0  0  0
  8 10  2  0  0  0  0
  8 11  1  0  0  0  0
 11 12  1  0  0  0  0
 11 13  1  0  0  0  0
 12 14  1  6  0  0  0
 12 15  1  0  0  0  0
 13 16  1  0  0  0  0
 13 17  1  6  0  0  0
 14 18  1  0  0  0  0
 14 19  1  0  0  0  0
 15 20  1  0  0  0  0
 17 21  1  0  0  0  0
 21 22  1  0  0  0  0
 22 23  2  0  0  0  0
 22 24  1  0  0  0  0
 24 25  1  0  0  0  0
 24 26  1  0  0  0  0
 25 27  1  0  0  0  0
 26 28  1  0  0  0  0
 27 29  1  0  0  0  0
 29 30  1  0  0  0  0
 30 31  1  0  0  0  0
 30 32  1  0  0  0  0
 31 33  1  0  0  0  0
 32 34  1  0  0  0  0
 33 35  1  0  0  0  0
  6  7  1  0  0  0  0
 16 20  1  0  0  0  0
 28 29  1  0  0  0  0
 34 35  1  0  0  0  0
M  END
>  <MolRegNo>
413870

>  <m>
=

>  <Value>
1300

>  <Unit>
nM

>  <Type>
IC50

>  <pValue>
5.89

>  <Ligand Efficiency>
0

>  <Binding Efficiency>
0

>  <Surface Efficiency>
0

>  <Assay Index>
306991

>  <Assay Category>


>  <Assay Organism>


>  <Target ID>
17045

>  <Target Name>
Cytochrome P450 3A4

>  <Target Organism>
Homo sapiens

>  <Target Description>
Target is a single protein chain

>  <Sequence Accession>
P08684

>  <Reference>
Bioorg Med Chem Lett 17 (22), 6290-6294 (2007)

>  <Pubmed ID>
17890085

>  <DOI>
10.1016/j.bmcl.2007.09.006

$$$$
417886
Actelion Java MolfileCreator 1.0

 49 55  0  0  0  0  0  0  0  0999 V2000
    0.0000   -0.0000   -0.0000 S   0  0  0  0  0  0  0  0  0  0  0  0
    1.3941    0.5253   -0.0000 C   0  0  0  0  0  0  0  0  0  0  0  0
   -0.9294    1.0911   -0.0000 C   0  0  0  0  0  0  0  0  0  0  0  0
    2.8287    0.1616   -0.0000 N   0  0  0  0  0  0  0  0  0  0  0  0
    1.3335    2.0609   -0.0000 C   0  0  0  0  0  0  0  0  0  0  0  0
   -0.1010    2.4650   -0.0000 C   0  0  0  0  0  0  0  0  0  0  0  0
   -2.4448    1.0708   -0.0000 C   0  0  0  0  0  0  0  0  0  0  0  0
    3.6773    1.4143   -0.0000 C   0  0  0  0  0  0  0  0  0  0  0  0
    2.7478    2.6064   -0.0000 C   0  0  0  0  0  0  0  0  0  0  0  0
   -2.4246   -0.4445   -0.0000 C   0  0  0  0  0  0  0  0  0  0  0  0
   -2.5054    2.5660   -0.0000 C   0  0  0  0  0  0  0  0  0  0  0  0
   -3.9601    1.0506   -0.0000 C   0  0  0  0  0  0  0  0  0  0  0  0
    5.1522    1.4749   -0.0000 C   0  0  0  0  0  0  0  0  0  0  0  0
    3.1519    4.0611   -0.0000 C   0  0  0  0  0  0  0  0  0  0  0  0
   -1.1315   -1.1517   -0.0000 O   0  0  0  0  0  0  0  0  0  0  0  0
   -3.7379   -1.2123   -0.0000 N   0  0  0  0  0  0  0  0  0  0  0  0
    5.8796    2.8691   -0.0000 C   0  0  0  0  0  0  0  0  0  0  0  0
    5.8998    0.2425   -0.0000 C   0  0  0  0  0  0  0  0  0  0  0  0
    2.0609    5.1320   -0.0000 C   0  0  0  0  0  0  0  0  0  0  0  0
   -3.8793   -3.7581   -0.0000 C   0  0  0  0  0  0  0  0  0  0  0  0
   -3.4954   -2.5458   -0.0000 C   0  0  0  0  0  0  0  0  0  0  0  0
    7.3343    2.9297   -0.0000 C   0  0  0  0  0  0  0  0  0  0  0  0
    7.3949    0.3031   -0.0000 C   0  0  0  0  0  0  0  0  0  0  0  0
    2.4044    6.6069   -0.0000 N   0  0  0  0  0  0  0  0  0  0  0  0
   -5.1926   -4.3844   -0.0000 C   0  0  0  0  0  0  0  0  0  0  0  0
   -2.6872   -4.3440   -0.0000 C   0  0  0  0  0  0  0  0  0  0  0  0
   -4.5865   -3.2732   -0.0000 C   0  0  0  0  0  0  0  0  0  0  0  0
   -2.1821   -3.3136   -0.0000 C   0  0  0  0  0  0  0  0  0  0  0  0
    8.1021    1.6568   -0.0000 C   0  0  0  0  0  0  0  0  0  0  0  0
    8.0415    4.2632   -0.0000 C   0  0  0  0  0  0  0  0  0  0  0  0
    8.1627   -0.9698   -0.0000 C   0  0  0  0  0  0  0  0  0  0  0  0
    3.8187    7.0312   -0.0000 C   0  0  0  0  0  0  0  0  0  0  0  0
    1.2931    7.6576   -0.0000 C   0  0  0  0  0  0  0  0  0  0  0  0
    4.1622    8.5062   -0.0000 C   0  0  0  0  0  0  0  0  0  0  0  0
    1.6366    9.1325   -0.0000 C   0  0  0  0  0  0  0  0  0  0  0  0
    3.0711    9.5568   -0.0000 N   0  0  0  0  0  0  0  0  0  0  0  0
    3.4146   11.0318   -0.0000 C   0  0  0  0  0  0  0  0  0  0  0  0
    4.8289   11.4763   -0.0000 C   0  0  0  0  0  0  0  0  0  0  0  0
    5.1724   12.9512   -0.0000 O   0  0  0  0  0  0  0  0  0  0  0  0
    5.8998   10.4458   -0.0000 C   0  0  0  0  0  0  0  0  0  0  0  0
    7.3141   10.8903   -0.0000 N   0  0  0  0  0  0  0  0  0  0  0  0
    8.3647    9.8599   -0.0000 C   0  0  0  0  0  0  0  0  0  0  0  0
    7.6374   12.3653   -0.0000 C   0  0  0  0  0  0  0  0  0  0  0  0
    9.7791   10.2842   -0.0000 C   0  0  0  0  0  0  0  0  0  0  0  0
    9.0719   12.7896   -0.0000 C   0  0  0  0  0  0  0  0  0  0  0  0
   10.1225   11.7591   -0.0000 N   0  0  0  0  0  0  0  0  0  0  0  0
   11.5571   12.1834   -0.0000 C   0  0  0  0  0  0  0  0  0  0  0  0
   11.9006   13.6584   -0.0000 O   0  0  0  0  0  0  0  0  0  0  0  0
   12.6077   11.1530   -0.0000 C   0  0  0  0  0  0  0  0  0  0  0  0
  1  2  1  0  0  0  0
  1  3  1  0  0  0  0
  2  4  1  0  0  0  0
  2  5  2  0  0  0  0
  3  6  2  0  0  0  0
  3  7  1  0  0  0  0
  4  8  1  0  0  0  0
  5  9  1  0  0  0  0
  7 10  1  0  0  0  0
  7 11  1  0  0  0  0
  7 12  1  0  0  0  0
  8 13  1  0  0  0  0
  9 14  1  0  0  0  0
 10 15  2  0  0  0  0
 10 16  1  0  0  0  0
 13 17  2  0  0  0  0
 13 18  1  0  0  0  0
 14 19  1  0  0  0  0
 16 20  1  0  0  0  0
 16 21  1  0  0  0  0
 17 22  1  0  0  0  0
 18 23  2  0  0  0  0
 19 24  1  0  0  0  0
 20 25  1  0  0  0  0
 20 26  1  0  0  0  0
 21 27  1  0  0  0  0
 21 28  1  0  0  0  0
 22 29  2  0  0  0  0
 22 30  1  0  0  0  0
 23 31  1  0  0  0  0
 24 32  1  0  0  0  0
 24 33  1  0  0  0  0
 32 34  1  0  0  0  0
 33 35  1  0  0  0  0
 34 36  1  0  0  0  0
 36 37  1  0  0  0  0
 37 38  1  0  0  0  0
 38 39  1  0  0  0  0
 38 40  1  0  0  0  0
 40 41  1  0  0  0  0
 41 42  1  0  0  0  0
 41 43  1  0  0  0  0
 42 44  1  0  0  0  0
 43 45  1  0  0  0  0
 44 46  1  0  0  0  0
 46 47  1  0  0  0  0
 47 48  2  0  0  0  0
 47 49  1  0  0  0  0
  5  6  1  0  0  0  0
  8  9  2  0  0  0  0
 23 29  1  0  0  0  0
 25 27  1  0  0  0  0
 26 28  1  0  0  0  0
 35 36  1  0  0  0  0
 45 46  1  0  0  0  0
M  END
>  <MolRegNo>
417886

>  <m>
=

>  <Value>
6000

>  <Unit>
nM

>  <Type>
IC50

>  <pValue>
5.22

>  <Ligand Efficiency>
0

>  <Binding Efficiency>
0

>  <Surface Efficiency>
0

>  <Assay Index>
307398

>  <Assay Category>


>  <Assay Organism>
Homo sapiens

>  <Target ID>
17045

>  <Target Name>
Cytochrome P450 3A4

>  <Target Organism>
Homo sapiens

>  <Target Description>
Target is a single protein chain

>  <Sequence Accession>
P08684

>  <Reference>
Bioorg Med Chem Lett 17 (23), 6448-6454 (2007)

>  <Pubmed ID>
17937987

>  <DOI>
10.1016/j.bmcl.2007.09.099

$$$$
417874
Actelion Java MolfileCreator 1.0

 45 51  0  0  0  0  0  0  0  0999 V2000
    0.0000   -0.0000   -0.0000 S   0  0  0  0  0  0  0  0  0  0  0  0
    1.3944    0.5254   -0.0000 C   0  0  0  0  0  0  0  0  0  0  0  0
   -0.9296    1.0912   -0.0000 C   0  0  0  0  0  0  0  0  0  0  0  0
    2.8291    0.1617   -0.0000 N   0  0  0  0  0  0  0  0  0  0  0  0
    1.3337    2.0612   -0.0000 C   0  0  0  0  0  0  0  0  0  0  0  0
   -0.1010    2.4654   -0.0000 C   0  0  0  0  0  0  0  0  0  0  0  0
   -2.4452    1.0710   -0.0000 C   0  0  0  0  0  0  0  0  0  0  0  0
    3.6779    1.4146   -0.0000 C   0  0  0  0  0  0  0  0  0  0  0  0
    2.7483    2.6068   -0.0000 C   0  0  0  0  0  0  0  0  0  0  0  0
   -2.4250   -0.4446   -0.0000 C   0  0  0  0  0  0  0  0  0  0  0  0
   -3.9608    1.0508   -0.0000 C   0  0  0  0  0  0  0  0  0  0  0  0
   -2.5058    2.5664   -0.0000 C   0  0  0  0  0  0  0  0  0  0  0  0
    5.1530    1.4752   -0.0000 C   0  0  0  0  0  0  0  0  0  0  0  0
    3.1524    4.0618   -0.0000 C   0  0  0  0  0  0  0  0  0  0  0  0
   -1.1316   -1.1519   -0.0000 O   0  0  0  0  0  0  0  0  0  0  0  0
   -3.7385   -1.2125   -0.0000 N   0  0  0  0  0  0  0  0  0  0  0  0
    5.8805    2.8695   -0.0000 C   0  0  0  0  0  0  0  0  0  0  0  0
    5.9007    0.2425   -0.0000 C   0  0  0  0  0  0  0  0  0  0  0  0
    2.0612    5.1328   -0.0000 C   0  0  0  0  0  0  0  0  0  0  0  0
   -3.8799   -3.7587   -0.0000 C   0  0  0  0  0  0  0  0  0  0  0  0
   -3.4960   -2.5462   -0.0000 C   0  0  0  0  0  0  0  0  0  0  0  0
    7.3355    2.9302   -0.0000 C   0  0  0  0  0  0  0  0  0  0  0  0
    7.3961    0.3031   -0.0000 C   0  0  0  0  0  0  0  0  0  0  0  0
    2.4048    6.6080   -0.0000 N   0  0  0  0  0  0  0  0  0  0  0  0
   -5.1935   -4.3851   -0.0000 C   0  0  0  0  0  0  0  0  0  0  0  0
   -2.6877   -4.3447   -0.0000 C   0  0  0  0  0  0  0  0  0  0  0  0
   -4.5872   -3.2737   -0.0000 C   0  0  0  0  0  0  0  0  0  0  0  0
   -2.1825   -3.3141   -0.0000 C   0  0  0  0  0  0  0  0  0  0  0  0
    8.1034    1.6571   -0.0000 C   0  0  0  0  0  0  0  0  0  0  0  0
    8.0428    4.2639   -0.0000 C   0  0  0  0  0  0  0  0  0  0  0  0
    8.1640   -0.9700   -0.0000 C   0  0  0  0  0  0  0  0  0  0  0  0
    3.8193    7.0324   -0.0000 C   0  0  0  0  0  0  0  0  0  0  0  0
    1.2933    7.6588   -0.0000 C   0  0  0  0  0  0  0  0  0  0  0  0
    4.1628    8.5076   -0.0000 C   0  0  0  0  0  0  0  0  0  0  0  0
    1.6368    9.1340   -0.0000 C   0  0  0  0  0  0  0  0  0  0  0  0
    3.0716    9.5584   -0.0000 N   0  0  0  0  0  0  0  0  0  0  0  0
    3.4152   11.0336   -0.0000 C   0  0  0  0  0  0  0  0  0  0  0  0
    4.8297   11.4781   -0.0000 C   0  0  0  0  0  0  0  0  0  0  0  0
    5.1732   12.9533   -0.0000 O   0  0  0  0  0  0  0  0  0  0  0  0
    5.9007   10.4475   -0.0000 N   0  0  0  0  0  0  0  0  0  0  0  0
    5.5168    9.0128   -0.0000 C   0  0  0  0  0  0  0  0  0  0  0  0
    7.3153   10.8921   -0.0000 C   0  0  0  0  0  0  0  0  0  0  0  0
    6.5676    8.0024   -0.0000 C   0  0  0  0  0  0  0  0  0  0  0  0
    8.3863    9.8615   -0.0000 C   0  0  0  0  0  0  0  0  0  0  0  0
    8.0024    8.4267   -0.0000 O   0  0  0  0  0  0  0  0  0  0  0  0
  1  2  1  0  0  0  0
  1  3  1  0  0  0  0
  2  4  1  0  0  0  0
  2  5  2  0  0  0  0
  3  6  2  0  0  0  0
  3  7  1  0  0  0  0
  4  8  1  0  0  0  0
  5  9  1  0  0  0  0
  7 10  1  0  0  0  0
  7 11  1  0  0  0  0
  7 12  1  0  0  0  0
  8 13  1  0  0  0  0
  9 14  1  0  0  0  0
 10 15  2  0  0  0  0
 10 16  1  0  0  0  0
 13 17  2  0  0  0  0
 13 18  1  0  0  0  0
 14 19  1  0  0  0  0
 16 20  1  0  0  0  0
 16 21  1  0  0  0  0
 17 22  1  0  0  0  0
 18 23  2  0  0  0  0
 19 24  1  0  0  0  0
 20 25  1  0  0  0  0
 20 26  1  0  0  0  0
 21 27  1  0  0  0  0
 21 28  1  0  0  0  0
 22 29  2  0  0  0  0
 22 30  1  0  0  0  0
 23 31  1  0  0  0  0
 24 32  1  0  0  0  0
 24 33  1  0  0  0  0
 32 34  1  0  0  0  0
 33 35  1  0  0  0  0
 34 36  1  0  0  0  0
 36 37  1  0  0  0  0
 37 38  1  0  0  0  0
 38 39  2  0  0  0  0
 38 40  1  0  0  0  0
 40 41  1  0  0  0  0
 40 42  1  0  0  0  0
 41 43  1  0  0  0  0
 42 44  1  0  0  0  0
 43 45  1  0  0  0  0
  5  6  1  0  0  0  0
  8  9  2  0  0  0  0
 23 29  1  0  0  0  0
 25 27  1  0  0  0  0
 26 28  1  0  0  0  0
 35 36  1  0  0  0  0
 44 45  1  0  0  0  0
M  END
>  <MolRegNo>
417874

>  <m>
=

>  <Value>
100

>  <Unit>
nM

>  <Type>
IC50

>  <pValue>
7

>  <Ligand Efficiency>
0

>  <Binding Efficiency>
0

>  <Surface Efficiency>
0

>  <Assay Index>
307398

>  <Assay Category>


>  <Assay Organism>
Homo sapiens

>  <Target ID>
17045

>  <Target Name>
Cytochrome P450 3A4

>  <Target Organism>
Homo sapiens

>  <Target Description>
Target is a single protein chain

>  <Sequence Accession>
P08684

>  <Reference>
Bioorg Med Chem Lett 17 (23), 6448-6454 (2007)

>  <Pubmed ID>
17937987

>  <DOI>
10.1016/j.bmcl.2007.09.099

$$$$
9460
Actelion Java MolfileCreator 1.0

 27 29  0  0  0  0  0  0  0  0999 V2000
    0.0000   -0.0000   -0.0000 Cl  0  0  0  0  0  0  0  0  0  0  0  0
   -7.6990   -2.0911   -0.0000 O   0  0  0  0  0  0  0  0  0  0  0  0
   -7.7109   -0.5941   -0.0000 C   0  0  0  0  0  0  0  0  0  0  0  0
   -9.0060   -2.8158   -0.0000 C   0  0  0  0  0  0  0  0  0  0  0  0
   -9.0060    0.1663   -0.0000 C   0  0  0  0  0  0  0  0  0  0  0  0
   -6.4277    0.1545   -0.0000 C   0  0  0  0  0  0  0  0  0  0  0  0
  -10.3129   -0.5584   -0.0000 O   0  0  0  0  0  0  0  0  0  0  0  0
   -9.0178    1.6753   -0.0000 C   0  0  0  0  0  0  0  0  0  0  0  0
   -6.4515    1.6753   -0.0000 C   0  0  0  0  0  0  0  0  0  0  0  0
   -5.1446   -0.5703   -0.0000 C   0  0  0  0  0  0  0  0  0  0  0  0
  -11.6080    0.2020   -0.0000 C   0  0  0  0  0  0  0  0  0  0  0  0
   -7.7466    2.4357   -0.0000 C   0  0  0  0  0  0  0  0  0  0  0  0
   -5.1683    2.4475   -0.0000 C   0  0  0  0  0  0  0  0  0  0  0  0
   -3.8495    0.1901   -0.0000 N   0  0  0  0  0  0  0  0  0  0  0  0
   -3.8733    1.7109   -0.0000 C   0  0  0  0  0  0  0  0  0  0  0  0
   -2.5545   -0.5347   -0.0000 C   0  0  0  0  0  0  0  0  0  0  0  0
   -2.5901    2.4951   -0.0000 C   0  0  0  0  0  0  0  0  0  0  0  0
   -1.2713    0.2376   -0.0000 C   0  0  0  0  0  0  0  0  0  0  0  0
   -1.2951    1.7584   -0.0000 C   0  0  0  0  0  0  0  0  0  0  0  0
   -2.6139    4.0040   -0.0000 C   0  0  0  0  0  0  0  0  0  0  0  0
   -0.0119    2.5307   -0.0000 C   0  0  0  0  0  0  0  0  0  0  0  0
   -1.3307    4.7763   -0.0000 C   0  0  0  0  0  0  0  0  0  0  0  0
   -0.0238    4.0515   -0.0000 C   0  0  0  0  0  0  0  0  0  0  0  0
   -1.3663    6.2733   -0.0000 O   0  0  0  0  0  0  0  0  0  0  0  0
    1.0693    5.0970   -0.0000 O   0  0  0  0  0  0  0  0  0  0  0  0
   -2.6733    7.0099   -0.0000 C   0  0  0  0  0  0  0  0  0  0  0  0
    0.7248    6.5584   -0.0000 C   0  0  0  0  0  0  0  0  0  0  0  0
  2  3  1  0  0  0  0
  2  4  1  0  0  0  0
  3  5  2  0  0  0  0
  3  6  1  0  0  0  0
  5  7  1  0  0  0  0
  5  8  1  0  0  0  0
  6  9  1  0  0  0  0
  6 10  2  0  0  0  0
  7 11  1  0  0  0  0
  8 12  2  0  0  0  0
  9 13  2  0  0  0  0
 10 14  1  0  0  0  0
 13 15  1  0  0  0  0
 14 16  1  0  0  0  0
 15 17  1  0  0  0  0
 16 18  1  0  0  0  0
 17 19  2  0  0  0  0
 17 20  1  0  0  0  0
 19 21  1  0  0  0  0
 20 22  2  0  0  0  0
 21 23  2  0  0  0  0
 22 24  1  0  0  0  0
 23 25  1  0  0  0  0
 24 26  1  0  0  0  0
 25 27  1  0  0  0  0
  9 12  1  0  0  0  0
 14 15  2  0  0  0  0
 18 19  1  0  0  0  0
 22 23  1  0  0  0  0
M  CHG  2   1  -1  14   1
M  END
>  <MolRegNo>
9460

>  <m>
=

>  <Value>
900

>  <Unit>
nM

>  <Type>
IC50

>  <pValue>
6.05

>  <Ligand Efficiency>
0

>  <Binding Efficiency>
0

>  <Surface Efficiency>
0

>  <Assay Index>
308733

>  <Assay Category>


>  <Assay Organism>
Homo sapiens

>  <Target ID>
17045

>  <Target Name>
Cytochrome P450 3A4

>  <Target Organism>
Homo sapiens

>  <Target Description>
Target is a single protein chain

>  <Sequence Accession>
P08684

>  <Reference>
J Nat Prod 70 (12), 1930-1933 (2007)

>  <Pubmed ID>
17994701

>  <DOI>
10.1021/np0704248

$$$$
421120
Actelion Java MolfileCreator 1.0

 25 28  0  0  0  0  0  0  0  0999 V2000
    0.0000   -0.0000   -0.0000 O   0  0  0  0  0  0  0  0  0  0  0  0
    1.2843   -0.7611   -0.0000 C   0  0  0  0  0  0  0  0  0  0  0  0
   -1.3319   -0.7254   -0.0000 C   0  0  0  0  0  0  0  0  0  0  0  0
    2.5924   -0.0119   -0.0000 C   0  0  0  0  0  0  0  0  0  0  0  0
    1.2605   -2.2594   -0.0000 C   0  0  0  0  0  0  0  0  0  0  0  0
    2.6043    1.5103   -0.0000 O   0  0  0  0  0  0  0  0  0  0  0  0
    3.8767   -0.7730   -0.0000 C   0  0  0  0  0  0  0  0  0  0  0  0
    2.5448   -3.0205   -0.0000 C   0  0  0  0  0  0  0  0  0  0  0  0
   -0.0714   -2.9848   -0.0000 C   0  0  0  0  0  0  0  0  0  0  0  0
    3.9124    2.2594   -0.0000 C   0  0  0  0  0  0  0  0  0  0  0  0
    3.8410   -2.2713   -0.0000 C   0  0  0  0  0  0  0  0  0  0  0  0
    2.5210   -4.5189   -0.0000 C   0  0  0  0  0  0  0  0  0  0  0  0
   -0.0951   -4.4832   -0.0000 N   0  0  0  0  0  0  0  0  0  0  0  0
    1.2011   -5.2443   -0.0000 C   0  0  0  0  0  0  0  0  0  0  0  0
   -1.4151   -5.2324   -0.0000 C   0  0  0  0  0  0  0  0  0  0  0  0
    1.1892   -6.7426   -0.0000 C   0  0  0  0  0  0  0  0  0  0  0  0
   -1.4270   -6.7307   -0.0000 C   0  0  0  0  0  0  0  0  0  0  0  0
   -0.1308   -7.4680   -0.0000 C   0  0  0  0  0  0  0  0  0  0  0  0
    2.4616   -7.4799   -0.0000 C   0  0  0  0  0  0  0  0  0  0  0  0
   -0.1546   -8.9545   -0.0000 C   0  0  0  0  0  0  0  0  0  0  0  0
    2.4497   -8.9664   -0.0000 C   0  0  0  0  0  0  0  0  0  0  0  0
    1.1297   -9.6918   -0.0000 C   0  0  0  0  0  0  0  0  0  0  0  0
    3.7459   -9.7155   -0.0000 O   0  0  0  0  0  0  0  0  0  0  0  0
    1.1178  -11.1901   -0.0000 O   0  0  0  0  0  0  0  0  0  0  0  0
   -0.2022  -11.9274   -0.0000 C   0  0  0  0  0  0  0  0  0  0  0  0
  1  2  1  0  0  0  0
  1  3  1  0  0  0  0
  2  4  2  0  0  0  0
  2  5  1  0  0  0  0
  4  6  1  0  0  0  0
  4  7  1  0  0  0  0
  5  8  1  0  0  0  0
  5  9  2  0  0  0  0
  6 10  1  0  0  0  0
  7 11  2  0  0  0  0
  8 12  2  0  0  0  0
  9 13  1  0  0  0  0
 12 14  1  0  0  0  0
 13 15  1  0  0  0  0
 14 16  1  0  0  0  0
 15 17  1  0  0  0  0
 16 18  2  0  0  0  0
 16 19  1  0  0  0  0
 18 20  1  0  0  0  0
 19 21  2  0  0  0  0
 20 22  2  0  0  0  0
 21 23  1  0  0  0  0
 22 24  1  0  0  0  0
 24 25  1  0  0  0  0
  8 11  1  0  0  0  0
 13 14  2  0  0  0  0
 17 18  1  0  0  0  0
 21 22  1  0  0  0  0
M  CHG  1  13   1
M  END
>  <MolRegNo>
421120

>  <m>
=

>  <Value>
30600

>  <Unit>
nM

>  <Type>
IC50

>  <pValue>
4.51

>  <Ligand Efficiency>
0

>  <Binding Efficiency>
0

>  <Surface Efficiency>
0

>  <Assay Index>
308733

>  <Assay Category>


>  <Assay Organism>
Homo sapiens

>  <Target ID>
17045

>  <Target Name>
Cytochrome P450 3A4

>  <Target Organism>
Homo sapiens

>  <Target Description>
Target is a single protein chain

>  <Sequence Accession>
P08684

>  <Reference>
J Nat Prod 70 (12), 1930-1933 (2007)

>  <Pubmed ID>
17994701

>  <DOI>
10.1021/np0704248

$$$$
421119
Actelion Java MolfileCreator 1.0

 25 28  0  0  0  0  0  0  0  0999 V2000
    0.0000   -0.0000   -0.0000 O   0  0  0  0  0  0  0  0  0  0  0  0
   -0.4961    1.4191   -0.0000 C   0  0  0  0  0  0  0  0  0  0  0  0
    1.4537   -0.2654   -0.0000 C   0  0  0  0  0  0  0  0  0  0  0  0
    0.4730    2.5612   -0.0000 C   0  0  0  0  0  0  0  0  0  0  0  0
   -1.9728    1.7075   -0.0000 C   0  0  0  0  0  0  0  0  0  0  0  0
    1.9267    2.2959   -0.0000 O   0  0  0  0  0  0  0  0  0  0  0  0
   -0.0231    3.9803   -0.0000 C   0  0  0  0  0  0  0  0  0  0  0  0
   -2.4689    3.1266   -0.0000 C   0  0  0  0  0  0  0  0  0  0  0  0
   -2.9650    0.5884   -0.0000 C   0  0  0  0  0  0  0  0  0  0  0  0
    2.8958    3.4381   -0.0000 C   0  0  0  0  0  0  0  0  0  0  0  0
   -1.4998    4.2687   -0.0000 C   0  0  0  0  0  0  0  0  0  0  0  0
   -3.9457    3.4150   -0.0000 C   0  0  0  0  0  0  0  0  0  0  0  0
   -4.4418    0.8768   -0.0000 N   0  0  0  0  0  0  0  0  0  0  0  0
   -4.9379    2.2959   -0.0000 C   0  0  0  0  0  0  0  0  0  0  0  0
   -5.4340   -0.2423   -0.0000 C   0  0  0  0  0  0  0  0  0  0  0  0
   -6.4146    2.5843   -0.0000 C   0  0  0  0  0  0  0  0  0  0  0  0
   -6.9107    0.0461   -0.0000 C   0  0  0  0  0  0  0  0  0  0  0  0
   -7.4068    1.4652   -0.0000 C   0  0  0  0  0  0  0  0  0  0  0  0
   -6.9107    4.0034   -0.0000 C   0  0  0  0  0  0  0  0  0  0  0  0
   -8.8836    1.7536   -0.0000 C   0  0  0  0  0  0  0  0  0  0  0  0
   -8.3875    4.2918   -0.0000 C   0  0  0  0  0  0  0  0  0  0  0  0
   -9.3797    3.1727   -0.0000 C   0  0  0  0  0  0  0  0  0  0  0  0
   -8.8836    5.7109   -0.0000 O   0  0  0  0  0  0  0  0  0  0  0  0
  -10.8564    3.4611   -0.0000 O   0  0  0  0  0  0  0  0  0  0  0  0
  -10.3603    5.9993   -0.0000 C   0  0  0  0  0  0  0  0  0  0  0  0
  1  2  1  0  0  0  0
  1  3  1  0  0  0  0
  2  4  2  0  0  0  0
  2  5  1  0  0  0  0
  4  6  1  0  0  0  0
  4  7  1  0  0  0  0
  5  8  1  0  0  0  0
  5  9  2  0  0  0  0
  6 10  1  0  0  0  0
  7 11  2  0  0  0  0
  8 12  2  0  0  0  0
  9 13  1  0  0  0  0
 12 14  1  0  0  0  0
 13 15  1  0  0  0  0
 14 16  1  0  0  0  0
 15 17  1  0  0  0  0
 16 18  2  0  0  0  0
 16 19  1  0  0  0  0
 18 20  1  0  0  0  0
 19 21  2  0  0  0  0
 20 22  2  0  0  0  0
 21 23  1  0  0  0  0
 22 24  1  0  0  0  0
 23 25  1  0  0  0  0
  8 11  1  0  0  0  0
 13 14  2  0  0  0  0
 17 18  1  0  0  0  0
 21 22  1  0  0  0  0
M  CHG  1  13   1
M  END
>  <MolRegNo>
421119

>  <m>
=

>  <Value>
2100

>  <Unit>
nM

>  <Type>
IC50

>  <pValue>
5.68

>  <Ligand Efficiency>
0

>  <Binding Efficiency>
0

>  <Surface Efficiency>
0

>  <Assay Index>
308733

>  <Assay Category>


>  <Assay Organism>
Homo sapiens

>  <Target ID>
17045

>  <Target Name>
Cytochrome P450 3A4

>  <Target Organism>
Homo sapiens

>  <Target Description>
Target is a single protein chain

>  <Sequence Accession>
P08684

>  <Reference>
J Nat Prod 70 (12), 1930-1933 (2007)

>  <Pubmed ID>
17994701

>  <DOI>
10.1021/np0704248

$$$$
423202
Actelion Java MolfileCreator 1.0

 25 27  0  0  1  0  0  0  0  0999 V2000
    0.0000   -0.0000   -0.0000 Cl  0  0  0  0  0  0  0  0  0  0  0  0
   -0.0150    1.4966   -0.0000 C   0  0  0  0  0  0  0  0  0  0  0  0
   -1.3170    2.2599   -0.0000 C   0  0  0  0  0  0  0  0  0  0  0  0
    1.2571    2.2599   -0.0000 C   0  0  0  0  0  0  0  0  0  0  0  0
   -1.3170    3.7565   -0.0000 C   0  0  0  0  0  0  0  0  0  0  0  0
    1.2422    3.7565   -0.0000 C   0  0  0  0  0  0  0  0  0  0  0  0
   -0.0449    4.5048   -0.0000 C   0  0  0  0  0  0  0  0  0  0  0  0
   -0.0599    6.0014   -0.0000 S   0  0  0  0  0  0  0  0  0  0  0  0
    1.4068    6.0163   -0.0000 O   0  0  0  0  0  0  0  0  0  0  0  0
   -1.5565    6.0163   -0.0000 O   0  0  0  0  0  0  0  0  0  0  0  0
   -0.0748    7.9170   -0.0000 N   0  0  0  0  0  0  0  0  0  0  0  0
    1.1823    8.6653   -0.0000 C   0  0  0  0  0  0  0  0  0  0  0  0
   -1.3619    8.6653   -0.0000 C   0  0  0  0  0  0  0  0  0  0  0  0
    2.4544    7.9320   -0.0000 C   0  0  0  0  0  0  0  0  0  0  0  0
    1.1673   10.1619   -0.0000 C   0  0  0  0  0  0  0  0  0  0  0  0
   -1.3769   10.1619   -0.0000 C   0  0  0  0  0  0  0  0  0  0  0  0
   -2.6639    7.9320   -0.0000 C   0  0  0  0  0  0  0  0  0  0  0  0
    3.1728    6.6599   -0.0000 C   0  0  0  0  0  0  0  0  0  0  0  0
    1.6912    6.6748   -0.0000 C   0  0  0  0  0  0  0  0  0  0  0  0
    3.7265    8.6803   -0.0000 C   0  0  0  0  0  0  0  0  0  0  0  0
   -0.1197   10.9252   -0.0000 C   0  0  0  0  0  0  0  0  0  0  0  0
   -3.9660    8.6803   -0.0000 C   0  0  0  0  0  0  0  0  0  0  0  0
    4.9986    7.9469   -0.0000 C   0  0  0  0  0  0  0  0  0  0  0  0
    4.9837    6.4803   -0.0000 O   0  0  0  0  0  0  0  0  0  0  0  0
    6.2707    8.6952   -0.0000 N   0  0  0  0  0  0  0  0  0  0  0  0
  1  2  1  0  0  0  0
  2  3  2  0  0  0  0
  2  4  1  0  0  0  0
  3  5  1  0  0  0  0
  4  6  2  0  0  0  0
  5  7  2  0  0  0  0
  7  8  1  0  0  0  0
  8  9  2  0  0  0  0
  8 10  2  0  0  0  0
  8 11  1  0  0  0  0
 11 12  1  0  0  0  0
 11 13  1  0  0  0  0
 12 14  1  6  0  0  0
 12 15  1  0  0  0  0
 13 16  1  0  0  0  0
 13 17  1  6  0  0  0
 14 18  1  0  0  0  0
 14 19  1  0  0  0  0
 14 20  1  0  0  0  0
 15 21  1  0  0  0  0
 17 22  1  0  0  0  0
 20 23  1  0  0  0  0
 23 24  2  0  0  0  0
 23 25  1  0  0  0  0
  6  7  1  0  0  0  0
 16 21  1  0  0  0  0
 18 19  1  0  0  0  0
M  END
>  <MolRegNo>
423202

>  <m>
=

>  <Value>
11500

>  <Unit>
nM

>  <Type>
IC50

>  <pValue>
4.94

>  <Ligand Efficiency>
0

>  <Binding Efficiency>
0

>  <Surface Efficiency>
0

>  <Assay Index>
310284

>  <Assay Category>


>  <Assay Organism>


>  <Target ID>
17045

>  <Target Name>
Cytochrome P450 3A4

>  <Target Organism>
Homo sapiens

>  <Target Description>
Target is a single protein chain

>  <Sequence Accession>
P08684

>  <Reference>
Bioorg Med Chem Lett 18 (1), 215-219 (2008)

>  <Pubmed ID>
17988864

>  <DOI>
10.1016/j.bmcl.2007.10.092

$$$$
423234
Actelion Java MolfileCreator 1.0

 33 37  0  0  1  0  0  0  0  0999 V2000
    0.0000   -0.0000   -0.0000 Cl  0  0  0  0  0  0  0  0  0  0  0  0
   -0.0151    1.5061   -0.0000 C   0  0  0  0  0  0  0  0  0  0  0  0
   -1.3254    2.2743   -0.0000 C   0  0  0  0  0  0  0  0  0  0  0  0
    1.2652    2.2743   -0.0000 C   0  0  0  0  0  0  0  0  0  0  0  0
   -1.3254    3.7804   -0.0000 C   0  0  0  0  0  0  0  0  0  0  0  0
    1.2501    3.7804   -0.0000 C   0  0  0  0  0  0  0  0  0  0  0  0
   -0.0452    4.5335   -0.0000 C   0  0  0  0  0  0  0  0  0  0  0  0
   -0.0602    6.0396   -0.0000 S   0  0  0  0  0  0  0  0  0  0  0  0
    1.4158    6.0547   -0.0000 O   0  0  0  0  0  0  0  0  0  0  0  0
   -1.5664    6.0698   -0.0000 O   0  0  0  0  0  0  0  0  0  0  0  0
   -0.0753    7.9675   -0.0000 N   0  0  0  0  0  0  0  0  0  0  0  0
    1.1899    8.7206   -0.0000 C   0  0  0  0  0  0  0  0  0  0  0  0
   -1.3706    8.7206   -0.0000 C   0  0  0  0  0  0  0  0  0  0  0  0
    2.4701    7.9826   -0.0000 C   0  0  0  0  0  0  0  0  0  0  0  0
    1.1748   10.2267   -0.0000 C   0  0  0  0  0  0  0  0  0  0  0  0
   -1.3857   10.2267   -0.0000 C   0  0  0  0  0  0  0  0  0  0  0  0
   -2.6809    7.9826   -0.0000 C   0  0  0  0  0  0  0  0  0  0  0  0
    3.1930    6.7023   -0.0000 C   0  0  0  0  0  0  0  0  0  0  0  0
    1.7019    6.7174   -0.0000 C   0  0  0  0  0  0  0  0  0  0  0  0
    3.7503    8.7356   -0.0000 C   0  0  0  0  0  0  0  0  0  0  0  0
   -0.1205   10.9949   -0.0000 C   0  0  0  0  0  0  0  0  0  0  0  0
   -3.9913    8.7356   -0.0000 C   0  0  0  0  0  0  0  0  0  0  0  0
    5.0305    7.9976   -0.0000 C   0  0  0  0  0  0  0  0  0  0  0  0
    5.1811    6.5367   -0.0000 O   0  0  0  0  0  0  0  0  0  0  0  0
    6.3860    8.6151   -0.0000 N   0  0  0  0  0  0  0  0  0  0  0  0
    6.6270    6.2354   -0.0000 N   0  0  0  0  0  0  0  0  0  0  0  0
    7.3650    7.5157   -0.0000 C   0  0  0  0  0  0  0  0  0  0  0  0
    8.8260    7.6813   -0.0000 C   0  0  0  0  0  0  0  0  0  0  0  0
    9.6845    6.4915   -0.0000 N   0  0  0  0  0  0  0  0  0  0  0  0
    9.2025    5.0908   -0.0000 C   0  0  0  0  0  0  0  0  0  0  0  0
   11.1605    6.5065   -0.0000 C   0  0  0  0  0  0  0  0  0  0  0  0
   10.3924    4.2323   -0.0000 C   0  0  0  0  0  0  0  0  0  0  0  0
   11.5973    5.1058   -0.0000 C   0  0  0  0  0  0  0  0  0  0  0  0
  1  2  1  0  0  0  0
  2  3  2  0  0  0  0
  2  4  1  0  0  0  0
  3  5  1  0  0  0  0
  4  6  2  0  0  0  0
  5  7  2  0  0  0  0
  7  8  1  0  0  0  0
  8  9  2  0  0  0  0
  8 10  2  0  0  0  0
  8 11  1  0  0  0  0
 11 12  1  0  0  0  0
 11 13  1  0  0  0  0
 12 14  1  6  0  0  0
 12 15  1  0  0  0  0
 13 16  1  0  0  0  0
 13 17  1  6  0  0  0
 14 18  1  0  0  0  0
 14 19  1  0  0  0  0
 14 20  1  0  0  0  0
 15 21  1  0  0  0  0
 17 22  1  0  0  0  0
 20 23  1  0  0  0  0
 23 24  1  0  0  0  0
 23 25  2  0  0  0  0
 24 26  1  0  0  0  0
 25 27  1  0  0  0  0
 27 28  1  0  0  0  0
 28 29  1  0  0  0  0
 29 30  1  0  0  0  0
 29 31  1  0  0  0  0
 30 32  1  0  0  0  0
 31 33  1  0  0  0  0
  6  7  1  0  0  0  0
 16 21  1  0  0  0  0
 18 19  1  0  0  0  0
 26 27  2  0  0  0  0
 32 33  1  0  0  0  0
M  END
>  <MolRegNo>
423234

>  <m>
=

>  <Value>
700

>  <Unit>
nM

>  <Type>
IC50

>  <pValue>
6.16

>  <Ligand Efficiency>
0

>  <Binding Efficiency>
0

>  <Surface Efficiency>
0

>  <Assay Index>
310284

>  <Assay Category>


>  <Assay Organism>


>  <Target ID>
17045

>  <Target Name>
Cytochrome P450 3A4

>  <Target Organism>
Homo sapiens

>  <Target Description>
Target is a single protein chain

>  <Sequence Accession>
P08684

>  <Reference>
Bioorg Med Chem Lett 18 (1), 215-219 (2008)

>  <Pubmed ID>
17988864

>  <DOI>
10.1016/j.bmcl.2007.10.092

$$$$
423244
Actelion Java MolfileCreator 1.0

 35 40  0  0  1  0  0  0  0  0999 V2000
    0.0000   -0.0000   -0.0000 Cl  0  0  0  0  0  0  0  0  0  0  0  0
   -0.0151    1.5085   -0.0000 C   0  0  0  0  0  0  0  0  0  0  0  0
   -1.3274    2.2778   -0.0000 C   0  0  0  0  0  0  0  0  0  0  0  0
    1.2671    2.2778   -0.0000 C   0  0  0  0  0  0  0  0  0  0  0  0
   -1.3274    3.7862   -0.0000 C   0  0  0  0  0  0  0  0  0  0  0  0
    1.2520    3.7862   -0.0000 C   0  0  0  0  0  0  0  0  0  0  0  0
   -0.0453    4.5404   -0.0000 C   0  0  0  0  0  0  0  0  0  0  0  0
   -0.0453    6.0489   -0.0000 S   0  0  0  0  0  0  0  0  0  0  0  0
    1.4330    6.0640   -0.0000 O   0  0  0  0  0  0  0  0  0  0  0  0
   -1.5537    6.0791   -0.0000 O   0  0  0  0  0  0  0  0  0  0  0  0
   -0.0603    7.9797   -0.0000 N   0  0  0  0  0  0  0  0  0  0  0  0
    1.2068    8.7340   -0.0000 C   0  0  0  0  0  0  0  0  0  0  0  0
   -1.3576    8.7340   -0.0000 C   0  0  0  0  0  0  0  0  0  0  0  0
    2.4890    8.0099   -0.0000 C   0  0  0  0  0  0  0  0  0  0  0  0
    1.1917   10.2424   -0.0000 C   0  0  0  0  0  0  0  0  0  0  0  0
   -2.6700    7.9948   -0.0000 C   0  0  0  0  0  0  0  0  0  0  0  0
   -1.3727   10.2424   -0.0000 C   0  0  0  0  0  0  0  0  0  0  0  0
    3.2130    6.7428   -0.0000 C   0  0  0  0  0  0  0  0  0  0  0  0
    1.7196    6.7428   -0.0000 C   0  0  0  0  0  0  0  0  0  0  0  0
    3.7711    8.7641   -0.0000 C   0  0  0  0  0  0  0  0  0  0  0  0
   -0.1056   11.0117   -0.0000 C   0  0  0  0  0  0  0  0  0  0  0  0
   -4.1784    8.0099   -0.0000 C   0  0  0  0  0  0  0  0  0  0  0  0
   -3.4393    6.7277   -0.0000 C   0  0  0  0  0  0  0  0  0  0  0  0
    5.0533    8.0250   -0.0000 C   0  0  0  0  0  0  0  0  0  0  0  0
    5.2042    6.5618   -0.0000 O   0  0  0  0  0  0  0  0  0  0  0  0
    6.4109    8.6434   -0.0000 N   0  0  0  0  0  0  0  0  0  0  0  0
    6.6523    6.2601   -0.0000 N   0  0  0  0  0  0  0  0  0  0  0  0
    7.3914    7.5423   -0.0000 C   0  0  0  0  0  0  0  0  0  0  0  0
    8.8546    7.7082   -0.0000 C   0  0  0  0  0  0  0  0  0  0  0  0
    9.7145    6.5165   -0.0000 N   0  0  0  0  0  0  0  0  0  0  0  0
    9.2317    5.1137   -0.0000 C   0  0  0  0  0  0  0  0  0  0  0  0
   11.1927    6.5316   -0.0000 C   0  0  0  0  0  0  0  0  0  0  0  0
   10.4234    4.2538   -0.0000 C   0  0  0  0  0  0  0  0  0  0  0  0
   11.6302    5.1287   -0.0000 C   0  0  0  0  0  0  0  0  0  0  0  0
   10.4083    2.7756   -0.0000 O   0  0  0  0  0  0  0  0  0  0  0  0
  1  2  1  0  0  0  0
  2  3  2  0  0  0  0
  2  4  1  0  0  0  0
  3  5  1  0  0  0  0
  4  6  2  0  0  0  0
  5  7  2  0  0  0  0
  7  8  1  0  0  0  0
  8  9  2  0  0  0  0
  8 10  2  0  0  0  0
  8 11  1  0  0  0  0
 11 12  1  0  0  0  0
 11 13  1  0  0  0  0
 12 14  1  6  0  0  0
 12 15  1  0  0  0  0
 13 16  1  6  0  0  0
 13 17  1  0  0  0  0
 14 18  1  0  0  0  0
 14 19  1  0  0  0  0
 14 20  1  0  0  0  0
 15 21  1  0  0  0  0
 16 22  1  0  0  0  0
 16 23  1  0  0  0  0
 20 24  1  0  0  0  0
 24 25  1  0  0  0  0
 24 26  2  0  0  0  0
 25 27  1  0  0  0  0
 26 28  1  0  0  0  0
 28 29  1  0  0  0  0
 29 30  1  0  0  0  0
 30 31  1  0  0  0  0
 30 32  1  0  0  0  0
 31 33  1  0  0  0  0
 32 34  1  0  0  0  0
 33 35  1  1  0  0  0
  6  7  1  0  0  0  0
 17 21  1  0  0  0  0
 18 19  1  0  0  0  0
 22 23  1  0  0  0  0
 27 28  2  0  0  0  0
 33 34  1  0  0  0  0
M  END
>  <MolRegNo>
423244

>  <m>
=

>  <Value>
600

>  <Unit>
nM

>  <Type>
IC50

>  <pValue>
6.22

>  <Ligand Efficiency>
0

>  <Binding Efficiency>
0

>  <Surface Efficiency>
0

>  <Assay Index>
310284

>  <Assay Category>


>  <Assay Organism>


>  <Target ID>
17045

>  <Target Name>
Cytochrome P450 3A4

>  <Target Organism>
Homo sapiens

>  <Target Description>
Target is a single protein chain

>  <Sequence Accession>
P08684

>  <Reference>
Bioorg Med Chem Lett 18 (1), 215-219 (2008)

>  <Pubmed ID>
17988864

>  <DOI>
10.1016/j.bmcl.2007.10.092

$$$$
423240
Actelion Java MolfileCreator 1.0

 34 39  0  0  1  0  0  0  0  0999 V2000
    0.0000   -0.0000   -0.0000 Cl  0  0  0  0  0  0  0  0  0  0  0  0
   -0.0151    1.5067   -0.0000 C   0  0  0  0  0  0  0  0  0  0  0  0
   -1.3259    2.2751   -0.0000 C   0  0  0  0  0  0  0  0  0  0  0  0
    1.2656    2.2751   -0.0000 C   0  0  0  0  0  0  0  0  0  0  0  0
   -1.3259    3.7818   -0.0000 C   0  0  0  0  0  0  0  0  0  0  0  0
    1.2506    3.7818   -0.0000 C   0  0  0  0  0  0  0  0  0  0  0  0
   -0.0452    4.5352   -0.0000 C   0  0  0  0  0  0  0  0  0  0  0  0
   -0.0452    6.0418   -0.0000 S   0  0  0  0  0  0  0  0  0  0  0  0
    1.4314    6.0569   -0.0000 O   0  0  0  0  0  0  0  0  0  0  0  0
   -1.5519    6.0720   -0.0000 O   0  0  0  0  0  0  0  0  0  0  0  0
   -0.0603    7.9704   -0.0000 N   0  0  0  0  0  0  0  0  0  0  0  0
    1.2054    8.7238   -0.0000 C   0  0  0  0  0  0  0  0  0  0  0  0
   -1.3560    8.7238   -0.0000 C   0  0  0  0  0  0  0  0  0  0  0  0
    2.4860    7.9855   -0.0000 C   0  0  0  0  0  0  0  0  0  0  0  0
    1.1903   10.2305   -0.0000 C   0  0  0  0  0  0  0  0  0  0  0  0
   -2.6669    7.9855   -0.0000 C   0  0  0  0  0  0  0  0  0  0  0  0
   -1.3711   10.2305   -0.0000 C   0  0  0  0  0  0  0  0  0  0  0  0
    3.2093    6.7048   -0.0000 C   0  0  0  0  0  0  0  0  0  0  0  0
    1.7176    6.7199   -0.0000 C   0  0  0  0  0  0  0  0  0  0  0  0
    3.7667    8.7388   -0.0000 C   0  0  0  0  0  0  0  0  0  0  0  0
   -0.1055   10.9989   -0.0000 C   0  0  0  0  0  0  0  0  0  0  0  0
   -4.1735    8.0006   -0.0000 C   0  0  0  0  0  0  0  0  0  0  0  0
   -3.4353    6.7048   -0.0000 C   0  0  0  0  0  0  0  0  0  0  0  0
    5.0474    8.0006   -0.0000 C   0  0  0  0  0  0  0  0  0  0  0  0
    5.1981    6.5391   -0.0000 O   0  0  0  0  0  0  0  0  0  0  0  0
    6.4035    8.6183   -0.0000 N   0  0  0  0  0  0  0  0  0  0  0  0
    6.6445    6.2377   -0.0000 N   0  0  0  0  0  0  0  0  0  0  0  0
    7.3828    7.5184   -0.0000 C   0  0  0  0  0  0  0  0  0  0  0  0
    8.8443    7.6841   -0.0000 C   0  0  0  0  0  0  0  0  0  0  0  0
    9.7031    6.4939   -0.0000 N   0  0  0  0  0  0  0  0  0  0  0  0
    9.2210    5.0926   -0.0000 C   0  0  0  0  0  0  0  0  0  0  0  0
   11.1797    6.5089   -0.0000 C   0  0  0  0  0  0  0  0  0  0  0  0
   10.4113    4.2338   -0.0000 C   0  0  0  0  0  0  0  0  0  0  0  0
   11.6166    5.1077   -0.0000 C   0  0  0  0  0  0  0  0  0  0  0  0
  1  2  1  0  0  0  0
  2  3  2  0  0  0  0
  2  4  1  0  0  0  0
  3  5  1  0  0  0  0
  4  6  2  0  0  0  0
  5  7  2  0  0  0  0
  7  8  1  0  0  0  0
  8  9  2  0  0  0  0
  8 10  2  0  0  0  0
  8 11  1  0  0  0  0
 11 12  1  0  0  0  0
 11 13  1  0  0  0  0
 12 14  1  6  0  0  0
 12 15  1  0  0  0  0
 13 16  1  6  0  0  0
 13 17  1  0  0  0  0
 14 18  1  0  0  0  0
 14 19  1  0  0  0  0
 14 20  1  0  0  0  0
 15 21  1  0  0  0  0
 16 22  1  0  0  0  0
 16 23  1  0  0  0  0
 20 24  1  0  0  0  0
 24 25  1  0  0  0  0
 24 26  2  0  0  0  0
 25 27  1  0  0  0  0
 26 28  1  0  0  0  0
 28 29  1  0  0  0  0
 29 30  1  0  0  0  0
 30 31  1  0  0  0  0
 30 32  1  0  0  0  0
 31 33  1  0  0  0  0
 32 34  1  0  0  0  0
  6  7  1  0  0  0  0
 17 21  1  0  0  0  0
 18 19  1  0  0  0  0
 22 23  1  0  0  0  0
 27 28  2  0  0  0  0
 33 34  1  0  0  0  0
M  END
>  <MolRegNo>
423240

>  <m>
=

>  <Value>
300

>  <Unit>
nM

>  <Type>
IC50

>  <pValue>
6.52

>  <Ligand Efficiency>
0

>  <Binding Efficiency>
0

>  <Surface Efficiency>
0

>  <Assay Index>
310284

>  <Assay Category>


>  <Assay Organism>


>  <Target ID>
17045

>  <Target Name>
Cytochrome P450 3A4

>  <Target Organism>
Homo sapiens

>  <Target Description>
Target is a single protein chain

>  <Sequence Accession>
P08684

>  <Reference>
Bioorg Med Chem Lett 18 (1), 215-219 (2008)

>  <Pubmed ID>
17988864

>  <DOI>
10.1016/j.bmcl.2007.10.092

$$$$
423237
Actelion Java MolfileCreator 1.0

 36 40  0  0  1  0  0  0  0  0999 V2000
    0.0000   -0.0000   -0.0000 Cl  0  0  0  0  0  0  0  0  0  0  0  0
   -0.0151    1.5074   -0.0000 C   0  0  0  0  0  0  0  0  0  0  0  0
   -1.3265    2.2762   -0.0000 C   0  0  0  0  0  0  0  0  0  0  0  0
    1.2662    2.2762   -0.0000 C   0  0  0  0  0  0  0  0  0  0  0  0
   -1.3265    3.7836   -0.0000 C   0  0  0  0  0  0  0  0  0  0  0  0
    1.2512    3.7836   -0.0000 C   0  0  0  0  0  0  0  0  0  0  0  0
   -0.0452    4.5373   -0.0000 C   0  0  0  0  0  0  0  0  0  0  0  0
   -0.0452    6.0447   -0.0000 S   0  0  0  0  0  0  0  0  0  0  0  0
    1.4320    6.0598   -0.0000 O   0  0  0  0  0  0  0  0  0  0  0  0
   -1.5526    6.0749   -0.0000 O   0  0  0  0  0  0  0  0  0  0  0  0
   -0.0603    7.9742   -0.0000 N   0  0  0  0  0  0  0  0  0  0  0  0
    1.2059    8.7280   -0.0000 C   0  0  0  0  0  0  0  0  0  0  0  0
   -1.3567    8.7280   -0.0000 C   0  0  0  0  0  0  0  0  0  0  0  0
    2.4872    7.9893   -0.0000 C   0  0  0  0  0  0  0  0  0  0  0  0
    1.1909   10.2354   -0.0000 C   0  0  0  0  0  0  0  0  0  0  0  0
   -2.6681    7.9893   -0.0000 C   0  0  0  0  0  0  0  0  0  0  0  0
   -1.3718   10.2354   -0.0000 C   0  0  0  0  0  0  0  0  0  0  0  0
    3.2108    6.7080   -0.0000 C   0  0  0  0  0  0  0  0  0  0  0  0
    1.7185    6.7231   -0.0000 C   0  0  0  0  0  0  0  0  0  0  0  0
    3.7685    8.7430   -0.0000 C   0  0  0  0  0  0  0  0  0  0  0  0
   -0.1055   11.0042   -0.0000 C   0  0  0  0  0  0  0  0  0  0  0  0
   -4.1756    8.0044   -0.0000 C   0  0  0  0  0  0  0  0  0  0  0  0
   -3.4369    6.7231   -0.0000 C   0  0  0  0  0  0  0  0  0  0  0  0
    5.0499    8.0044   -0.0000 C   0  0  0  0  0  0  0  0  0  0  0  0
    5.2006    6.5422   -0.0000 O   0  0  0  0  0  0  0  0  0  0  0  0
    6.4065    8.6224   -0.0000 N   0  0  0  0  0  0  0  0  0  0  0  0
    6.6477    6.2407   -0.0000 N   0  0  0  0  0  0  0  0  0  0  0  0
    7.3864    7.5220   -0.0000 C   0  0  0  0  0  0  0  0  0  0  0  0
    8.8485    7.6878   -0.0000 C   0  0  0  0  0  0  0  0  0  0  0  0
    9.7078    6.4970   -0.0000 N   0  0  0  0  0  0  0  0  0  0  0  0
   11.1700    6.6628   -0.0000 C   0  0  0  0  0  0  0  0  0  0  0  0
    9.0897    5.1554   -0.0000 C   0  0  0  0  0  0  0  0  0  0  0  0
   11.2303    5.1855   -0.0000 C   0  0  0  0  0  0  0  0  0  0  0  0
   12.6472    6.6779   -0.0000 C   0  0  0  0  0  0  0  0  0  0  0  0
   11.0795    8.1702   -0.0000 C   0  0  0  0  0  0  0  0  0  0  0  0
   12.5417    4.5223   -0.0000 O   0  0  0  0  0  0  0  0  0  0  0  0
  1  2  1  0  0  0  0
  2  3  2  0  0  0  0
  2  4  1  0  0  0  0
  3  5  1  0  0  0  0
  4  6  2  0  0  0  0
  5  7  2  0  0  0  0
  7  8  1  0  0  0  0
  8  9  2  0  0  0  0
  8 10  2  0  0  0  0
  8 11  1  0  0  0  0
 11 12  1  0  0  0  0
 11 13  1  0  0  0  0
 12 14  1  6  0  0  0
 12 15  1  0  0  0  0
 13 16  1  6  0  0  0
 13 17  1  0  0  0  0
 14 18  1  0  0  0  0
 14 19  1  0  0  0  0
 14 20  1  0  0  0  0
 15 21  1  0  0  0  0
 16 22  1  0  0  0  0
 16 23  1  0  0  0  0
 20 24  1  0  0  0  0
 24 25  1  0  0  0  0
 24 26  2  0  0  0  0
 25 27  1  0  0  0  0
 26 28  1  0  0  0  0
 28 29  1  0  0  0  0
 29 30  1  0  0  0  0
 30 31  1  0  0  0  0
 30 32  1  0  0  0  0
 31 33  1  0  0  0  0
 31 34  1  0  0  0  0
 31 35  1  0  0  0  0
 33 36  1  0  0  0  0
  6  7  1  0  0  0  0
 17 21  1  0  0  0  0
 18 19  1  0  0  0  0
 22 23  1  0  0  0  0
 27 28  2  0  0  0  0
M  END
>  <MolRegNo>
423237

>  <m>
=

>  <Value>
300

>  <Unit>
nM

>  <Type>
IC50

>  <pValue>
6.52

>  <Ligand Efficiency>
0

>  <Binding Efficiency>
0

>  <Surface Efficiency>
0

>  <Assay Index>
310284

>  <Assay Category>


>  <Assay Organism>


>  <Target ID>
17045

>  <Target Name>
Cytochrome P450 3A4

>  <Target Organism>
Homo sapiens

>  <Target Description>
Target is a single protein chain

>  <Sequence Accession>
P08684

>  <Reference>
Bioorg Med Chem Lett 18 (1), 215-219 (2008)

>  <Pubmed ID>
17988864

>  <DOI>
10.1016/j.bmcl.2007.10.092

$$$$
423231
Actelion Java MolfileCreator 1.0

 35 38  0  0  1  0  0  0  0  0999 V2000
    0.0000   -0.0000   -0.0000 Cl  0  0  0  0  0  0  0  0  0  0  0  0
   -0.0151    1.5068   -0.0000 C   0  0  0  0  0  0  0  0  0  0  0  0
   -1.3260    2.2752   -0.0000 C   0  0  0  0  0  0  0  0  0  0  0  0
    1.2657    2.2752   -0.0000 C   0  0  0  0  0  0  0  0  0  0  0  0
   -1.3260    3.7820   -0.0000 C   0  0  0  0  0  0  0  0  0  0  0  0
    1.2506    3.7820   -0.0000 C   0  0  0  0  0  0  0  0  0  0  0  0
   -0.0452    4.5354   -0.0000 C   0  0  0  0  0  0  0  0  0  0  0  0
   -0.0452    6.0422   -0.0000 S   0  0  0  0  0  0  0  0  0  0  0  0
    1.4314    6.0573   -0.0000 O   0  0  0  0  0  0  0  0  0  0  0  0
   -1.5520    6.0723   -0.0000 O   0  0  0  0  0  0  0  0  0  0  0  0
   -0.0603    7.9709   -0.0000 N   0  0  0  0  0  0  0  0  0  0  0  0
    1.2054    8.7243   -0.0000 C   0  0  0  0  0  0  0  0  0  0  0  0
   -1.3561    8.7243   -0.0000 C   0  0  0  0  0  0  0  0  0  0  0  0
    2.4862    8.0010   -0.0000 C   0  0  0  0  0  0  0  0  0  0  0  0
    1.1904   10.2310   -0.0000 C   0  0  0  0  0  0  0  0  0  0  0  0
   -1.3712   10.2310   -0.0000 C   0  0  0  0  0  0  0  0  0  0  0  0
   -2.6670    7.9859   -0.0000 C   0  0  0  0  0  0  0  0  0  0  0  0
    3.2094    6.7353   -0.0000 C   0  0  0  0  0  0  0  0  0  0  0  0
    1.7177    6.7353   -0.0000 C   0  0  0  0  0  0  0  0  0  0  0  0
    3.7670    8.7544   -0.0000 C   0  0  0  0  0  0  0  0  0  0  0  0
   -0.1055   10.9995   -0.0000 C   0  0  0  0  0  0  0  0  0  0  0  0
   -3.9779    8.7393   -0.0000 C   0  0  0  0  0  0  0  0  0  0  0  0
    5.0477    8.0161   -0.0000 C   0  0  0  0  0  0  0  0  0  0  0  0
    5.1984    6.5545   -0.0000 O   0  0  0  0  0  0  0  0  0  0  0  0
    6.4038    8.6339   -0.0000 N   0  0  0  0  0  0  0  0  0  0  0  0
    6.6449    6.2531   -0.0000 N   0  0  0  0  0  0  0  0  0  0  0  0
    7.3832    7.5339   -0.0000 C   0  0  0  0  0  0  0  0  0  0  0  0
    8.8448    7.6996   -0.0000 C   0  0  0  0  0  0  0  0  0  0  0  0
    9.7037    6.5093   -0.0000 N   0  0  0  0  0  0  0  0  0  0  0  0
   11.1652    6.6750   -0.0000 C   0  0  0  0  0  0  0  0  0  0  0  0
    9.0859    5.1683   -0.0000 C   0  0  0  0  0  0  0  0  0  0  0  0
   11.2255    5.1984   -0.0000 C   0  0  0  0  0  0  0  0  0  0  0  0
   12.6419    6.6901   -0.0000 C   0  0  0  0  0  0  0  0  0  0  0  0
   11.0748    8.1818   -0.0000 C   0  0  0  0  0  0  0  0  0  0  0  0
   12.5364    4.5354   -0.0000 O   0  0  0  0  0  0  0  0  0  0  0  0
  1  2  1  0  0  0  0
  2  3  2  0  0  0  0
  2  4  1  0  0  0  0
  3  5  1  0  0  0  0
  4  6  2  0  0  0  0
  5  7  2  0  0  0  0
  7  8  1  0  0  0  0
  8  9  2  0  0  0  0
  8 10  2  0  0  0  0
  8 11  1  0  0  0  0
 11 12  1  0  0  0  0
 11 13  1  0  0  0  0
 12 14  1  6  0  0  0
 12 15  1  0  0  0  0
 13 16  1  0  0  0  0
 13 17  1  6  0  0  0
 14 18  1  0  0  0  0
 14 19  1  0  0  0  0
 14 20  1  0  0  0  0
 15 21  1  0  0  0  0
 17 22  1  0  0  0  0
 20 23  1  0  0  0  0
 23 24  1  0  0  0  0
 23 25  2  0  0  0  0
 24 26  1  0  0  0  0
 25 27  1  0  0  0  0
 27 28  1  0  0  0  0
 28 29  1  0  0  0  0
 29 30  1  0  0  0  0
 29 31  1  0  0  0  0
 30 32  1  0  0  0  0
 30 33  1  0  0  0  0
 30 34  1  0  0  0  0
 32 35  1  0  0  0  0
  6  7  1  0  0  0  0
 16 21  1  0  0  0  0
 18 19  1  0  0  0  0
 26 27  2  0  0  0  0
M  END
>  <MolRegNo>
423231

>  <m>
=

>  <Value>
300

>  <Unit>
nM

>  <Type>
IC50

>  <pValue>
6.52

>  <Ligand Efficiency>
0

>  <Binding Efficiency>
0

>  <Surface Efficiency>
0

>  <Assay Index>
310284

>  <Assay Category>


>  <Assay Organism>


>  <Target ID>
17045

>  <Target Name>
Cytochrome P450 3A4

>  <Target Organism>
Homo sapiens

>  <Target Description>
Target is a single protein chain

>  <Sequence Accession>
P08684

>  <Reference>
Bioorg Med Chem Lett 18 (1), 215-219 (2008)

>  <Pubmed ID>
17988864

>  <DOI>
10.1016/j.bmcl.2007.10.092

$$$$
423229
Actelion Java MolfileCreator 1.0

 34 39  0  0  1  0  0  0  0  0999 V2000
    0.0000   -0.0000   -0.0000 Cl  0  0  0  0  0  0  0  0  0  0  0  0
   -0.0151    1.5071   -0.0000 C   0  0  0  0  0  0  0  0  0  0  0  0
   -1.3263    2.2758   -0.0000 C   0  0  0  0  0  0  0  0  0  0  0  0
    1.2660    2.2758   -0.0000 C   0  0  0  0  0  0  0  0  0  0  0  0
   -1.3263    3.7829   -0.0000 C   0  0  0  0  0  0  0  0  0  0  0  0
    1.2509    3.7829   -0.0000 C   0  0  0  0  0  0  0  0  0  0  0  0
   -0.0452    4.5365   -0.0000 C   0  0  0  0  0  0  0  0  0  0  0  0
   -0.0603    6.0436   -0.0000 S   0  0  0  0  0  0  0  0  0  0  0  0
    1.4167    6.0587   -0.0000 O   0  0  0  0  0  0  0  0  0  0  0  0
   -1.5674    6.0587   -0.0000 O   0  0  0  0  0  0  0  0  0  0  0  0
   -0.0754    7.9728   -0.0000 N   0  0  0  0  0  0  0  0  0  0  0  0
    1.1906    8.7263   -0.0000 C   0  0  0  0  0  0  0  0  0  0  0  0
   -1.3715    8.7263   -0.0000 C   0  0  0  0  0  0  0  0  0  0  0  0
    2.4717    7.9878   -0.0000 C   0  0  0  0  0  0  0  0  0  0  0  0
    1.1756   10.2335   -0.0000 C   0  0  0  0  0  0  0  0  0  0  0  0
   -2.6827    7.9878   -0.0000 C   0  0  0  0  0  0  0  0  0  0  0  0
   -1.3866   10.2335   -0.0000 C   0  0  0  0  0  0  0  0  0  0  0  0
    3.1951    6.7068   -0.0000 C   0  0  0  0  0  0  0  0  0  0  0  0
    1.7031    6.7218   -0.0000 C   0  0  0  0  0  0  0  0  0  0  0  0
    3.7528    8.7414   -0.0000 C   0  0  0  0  0  0  0  0  0  0  0  0
   -0.1206   11.0021   -0.0000 C   0  0  0  0  0  0  0  0  0  0  0  0
   -4.1898    8.0029   -0.0000 C   0  0  0  0  0  0  0  0  0  0  0  0
   -3.4513    6.7068   -0.0000 C   0  0  0  0  0  0  0  0  0  0  0  0
    5.0338    8.0029   -0.0000 C   0  0  0  0  0  0  0  0  0  0  0  0
    5.1846    6.5410   -0.0000 N   0  0  0  0  0  0  0  0  0  0  0  0
    6.3903    8.6208   -0.0000 N   0  0  0  0  0  0  0  0  0  0  0  0
    6.6314    6.2396   -0.0000 O   0  0  0  0  0  0  0  0  0  0  0  0
    7.3699    7.5206   -0.0000 C   0  0  0  0  0  0  0  0  0  0  0  0
    8.8318    7.6864   -0.0000 C   0  0  0  0  0  0  0  0  0  0  0  0
    9.6909    6.4958   -0.0000 N   0  0  0  0  0  0  0  0  0  0  0  0
    9.2237    5.0941   -0.0000 C   0  0  0  0  0  0  0  0  0  0  0  0
   11.1679    6.5108   -0.0000 C   0  0  0  0  0  0  0  0  0  0  0  0
   10.4143    4.2351   -0.0000 C   0  0  0  0  0  0  0  0  0  0  0  0
   11.6050    5.1092   -0.0000 C   0  0  0  0  0  0  0  0  0  0  0  0
  1  2  1  0  0  0  0
  2  3  2  0  0  0  0
  2  4  1  0  0  0  0
  3  5  1  0  0  0  0
  4  6  2  0  0  0  0
  5  7  2  0  0  0  0
  7  8  1  0  0  0  0
  8  9  2  0  0  0  0
  8 10  2  0  0  0  0
  8 11  1  0  0  0  0
 11 12  1  0  0  0  0
 11 13  1  0  0  0  0
 12 14  1  6  0  0  0
 12 15  1  0  0  0  0
 13 16  1  6  0  0  0
 13 17  1  0  0  0  0
 14 18  1  0  0  0  0
 14 19  1  0  0  0  0
 14 20  1  0  0  0  0
 15 21  1  0  0  0  0
 16 22  1  0  0  0  0
 16 23  1  0  0  0  0
 20 24  1  0  0  0  0
 24 25  2  0  0  0  0
 24 26  1  0  0  0  0
 25 27  1  0  0  0  0
 26 28  2  0  0  0  0
 28 29  1  0  0  0  0
 29 30  1  0  0  0  0
 30 31  1  0  0  0  0
 30 32  1  0  0  0  0
 31 33  1  0  0  0  0
 32 34  1  0  0  0  0
  6  7  1  0  0  0  0
 17 21  1  0  0  0  0
 18 19  1  0  0  0  0
 22 23  1  0  0  0  0
 27 28  1  0  0  0  0
 33 34  1  0  0  0  0
M  END
>  <MolRegNo>
423229

>  <m>
=

>  <Value>
1200

>  <Unit>
nM

>  <Type>
IC50

>  <pValue>
5.92

>  <Ligand Efficiency>
0

>  <Binding Efficiency>
0

>  <Surface Efficiency>
0

>  <Assay Index>
310284

>  <Assay Category>


>  <Assay Organism>


>  <Target ID>
17045

>  <Target Name>
Cytochrome P450 3A4

>  <Target Organism>
Homo sapiens

>  <Target Description>
Target is a single protein chain

>  <Sequence Accession>
P08684

>  <Reference>
Bioorg Med Chem Lett 18 (1), 215-219 (2008)

>  <Pubmed ID>
17988864

>  <DOI>
10.1016/j.bmcl.2007.10.092

$$$$
423228
Actelion Java MolfileCreator 1.0

 36 40  0  0  1  0  0  0  0  0999 V2000
    0.0000   -0.0000   -0.0000 Cl  0  0  0  0  0  0  0  0  0  0  0  0
   -0.0151    1.5079   -0.0000 C   0  0  0  0  0  0  0  0  0  0  0  0
   -1.3270    2.2770   -0.0000 C   0  0  0  0  0  0  0  0  0  0  0  0
    1.2667    2.2770   -0.0000 C   0  0  0  0  0  0  0  0  0  0  0  0
   -1.3270    3.7849   -0.0000 C   0  0  0  0  0  0  0  0  0  0  0  0
    1.2516    3.7849   -0.0000 C   0  0  0  0  0  0  0  0  0  0  0  0
   -0.0452    4.5389   -0.0000 C   0  0  0  0  0  0  0  0  0  0  0  0
   -0.0452    6.0468   -0.0000 S   0  0  0  0  0  0  0  0  0  0  0  0
    1.4325    6.0619   -0.0000 O   0  0  0  0  0  0  0  0  0  0  0  0
   -1.5532    6.0770   -0.0000 O   0  0  0  0  0  0  0  0  0  0  0  0
   -0.0603    7.9770   -0.0000 N   0  0  0  0  0  0  0  0  0  0  0  0
    1.2064    8.7310   -0.0000 C   0  0  0  0  0  0  0  0  0  0  0  0
   -1.3571    8.7310   -0.0000 C   0  0  0  0  0  0  0  0  0  0  0  0
    2.4881    8.0072   -0.0000 C   0  0  0  0  0  0  0  0  0  0  0  0
    1.1913   10.2389   -0.0000 C   0  0  0  0  0  0  0  0  0  0  0  0
   -2.6691    7.9921   -0.0000 C   0  0  0  0  0  0  0  0  0  0  0  0
   -1.3722   10.2389   -0.0000 C   0  0  0  0  0  0  0  0  0  0  0  0
    3.2119    6.7405   -0.0000 C   0  0  0  0  0  0  0  0  0  0  0  0
    1.7191    6.7405   -0.0000 C   0  0  0  0  0  0  0  0  0  0  0  0
    3.7699    8.7611   -0.0000 C   0  0  0  0  0  0  0  0  0  0  0  0
   -0.1056   11.0080   -0.0000 C   0  0  0  0  0  0  0  0  0  0  0  0
   -4.1770    8.0072   -0.0000 C   0  0  0  0  0  0  0  0  0  0  0  0
   -3.4230    6.7254   -0.0000 C   0  0  0  0  0  0  0  0  0  0  0  0
    5.0516    8.0223   -0.0000 C   0  0  0  0  0  0  0  0  0  0  0  0
    5.2024    6.5595   -0.0000 N   0  0  0  0  0  0  0  0  0  0  0  0
    6.4088    8.6405   -0.0000 N   0  0  0  0  0  0  0  0  0  0  0  0
    6.6500    6.2580   -0.0000 O   0  0  0  0  0  0  0  0  0  0  0  0
    7.3889    7.5397   -0.0000 C   0  0  0  0  0  0  0  0  0  0  0  0
    8.8516    7.7056   -0.0000 C   0  0  0  0  0  0  0  0  0  0  0  0
    9.7111    6.5143   -0.0000 N   0  0  0  0  0  0  0  0  0  0  0  0
   11.1739    6.6802   -0.0000 C   0  0  0  0  0  0  0  0  0  0  0  0
    9.0929    5.1722   -0.0000 C   0  0  0  0  0  0  0  0  0  0  0  0
   11.2342    5.2024   -0.0000 C   0  0  0  0  0  0  0  0  0  0  0  0
   12.6516    6.6953   -0.0000 C   0  0  0  0  0  0  0  0  0  0  0  0
   11.0834    8.1881   -0.0000 C   0  0  0  0  0  0  0  0  0  0  0  0
   12.5461    4.5389   -0.0000 O   0  0  0  0  0  0  0  0  0  0  0  0
  1  2  1  0  0  0  0
  2  3  2  0  0  0  0
  2  4  1  0  0  0  0
  3  5  1  0  0  0  0
  4  6  2  0  0  0  0
  5  7  2  0  0  0  0
  7  8  1  0  0  0  0
  8  9  2  0  0  0  0
  8 10  2  0  0  0  0
  8 11  1  0  0  0  0
 11 12  1  0  0  0  0
 11 13  1  0  0  0  0
 12 14  1  6  0  0  0
 12 15  1  0  0  0  0
 13 16  1  6  0  0  0
 13 17  1  0  0  0  0
 14 18  1  0  0  0  0
 14 19  1  0  0  0  0
 14 20  1  0  0  0  0
 15 21  1  0  0  0  0
 16 22  1  0  0  0  0
 16 23  1  0  0  0  0
 20 24  1  0  0  0  0
 24 25  2  0  0  0  0
 24 26  1  0  0  0  0
 25 27  1  0  0  0  0
 26 28  2  0  0  0  0
 28 29  1  0  0  0  0
 29 30  1  0  0  0  0
 30 31  1  0  0  0  0
 30 32  1  0  0  0  0
 31 33  1  0  0  0  0
 31 34  1  0  0  0  0
 31 35  1  0  0  0  0
 33 36  1  0  0  0  0
  6  7  1  0  0  0  0
 17 21  1  0  0  0  0
 18 19  1  0  0  0  0
 22 23  1  0  0  0  0
 27 28  1  0  0  0  0
M  END
>  <MolRegNo>
423228

>  <m>
=

>  <Value>
3100

>  <Unit>
nM

>  <Type>
IC50

>  <pValue>
5.51

>  <Ligand Efficiency>
0

>  <Binding Efficiency>
0

>  <Surface Efficiency>
0

>  <Assay Index>
310284

>  <Assay Category>


>  <Assay Organism>


>  <Target ID>
17045

>  <Target Name>
Cytochrome P450 3A4

>  <Target Organism>
Homo sapiens

>  <Target Description>
Target is a single protein chain

>  <Sequence Accession>
P08684

>  <Reference>
Bioorg Med Chem Lett 18 (1), 215-219 (2008)

>  <Pubmed ID>
17988864

>  <DOI>
10.1016/j.bmcl.2007.10.092

$$$$
423224
Actelion Java MolfileCreator 1.0

 34 38  0  0  1  0  0  0  0  0999 V2000
    0.0000   -0.0000   -0.0000 Cl  0  0  0  0  0  0  0  0  0  0  0  0
   -0.0151    1.5072   -0.0000 C   0  0  0  0  0  0  0  0  0  0  0  0
   -1.3263    2.2758   -0.0000 C   0  0  0  0  0  0  0  0  0  0  0  0
    1.2660    2.2758   -0.0000 C   0  0  0  0  0  0  0  0  0  0  0  0
   -1.3263    3.7830   -0.0000 C   0  0  0  0  0  0  0  0  0  0  0  0
    1.2509    3.7830   -0.0000 C   0  0  0  0  0  0  0  0  0  0  0  0
   -0.0452    4.5366   -0.0000 C   0  0  0  0  0  0  0  0  0  0  0  0
   -0.0452    6.0437   -0.0000 S   0  0  0  0  0  0  0  0  0  0  0  0
    1.4318    6.0588   -0.0000 O   0  0  0  0  0  0  0  0  0  0  0  0
   -1.5524    6.0739   -0.0000 O   0  0  0  0  0  0  0  0  0  0  0  0
   -0.0603    7.9729   -0.0000 N   0  0  0  0  0  0  0  0  0  0  0  0
    1.2057    8.7265   -0.0000 C   0  0  0  0  0  0  0  0  0  0  0  0
   -1.3564    8.7265   -0.0000 C   0  0  0  0  0  0  0  0  0  0  0  0
    2.4868    8.0031   -0.0000 C   0  0  0  0  0  0  0  0  0  0  0  0
    1.1907   10.2337   -0.0000 C   0  0  0  0  0  0  0  0  0  0  0  0
   -1.3715   10.2337   -0.0000 C   0  0  0  0  0  0  0  0  0  0  0  0
   -2.6677    7.9880   -0.0000 C   0  0  0  0  0  0  0  0  0  0  0  0
    3.2103    6.7370   -0.0000 C   0  0  0  0  0  0  0  0  0  0  0  0
    1.7182    6.7370   -0.0000 C   0  0  0  0  0  0  0  0  0  0  0  0
    3.7679    8.7566   -0.0000 C   0  0  0  0  0  0  0  0  0  0  0  0
   -0.1055   11.0023   -0.0000 C   0  0  0  0  0  0  0  0  0  0  0  0
   -3.9789    8.7416   -0.0000 C   0  0  0  0  0  0  0  0  0  0  0  0
    5.0490    8.0181   -0.0000 C   0  0  0  0  0  0  0  0  0  0  0  0
    5.1997    6.5562   -0.0000 N   0  0  0  0  0  0  0  0  0  0  0  0
    6.4055    8.6361   -0.0000 N   0  0  0  0  0  0  0  0  0  0  0  0
    6.6466    6.2547   -0.0000 O   0  0  0  0  0  0  0  0  0  0  0  0
    7.3851    7.5358   -0.0000 C   0  0  0  0  0  0  0  0  0  0  0  0
    8.8471    7.7016   -0.0000 C   0  0  0  0  0  0  0  0  0  0  0  0
    9.7061    6.5110   -0.0000 N   0  0  0  0  0  0  0  0  0  0  0  0
    9.0731    5.1696   -0.0000 C   0  0  0  0  0  0  0  0  0  0  0  0
   11.1681    6.6918   -0.0000 C   0  0  0  0  0  0  0  0  0  0  0  0
    9.9322    3.9789   -0.0000 C   0  0  0  0  0  0  0  0  0  0  0  0
   12.0272    5.4861   -0.0000 C   0  0  0  0  0  0  0  0  0  0  0  0
   11.4092    4.1447   -0.0000 O   0  0  0  0  0  0  0  0  0  0  0  0
  1  2  1  0  0  0  0
  2  3  2  0  0  0  0
  2  4  1  0  0  0  0
  3  5  1  0  0  0  0
  4  6  2  0  0  0  0
  5  7  2  0  0  0  0
  7  8  1  0  0  0  0
  8  9  2  0  0  0  0
  8 10  2  0  0  0  0
  8 11  1  0  0  0  0
 11 12  1  0  0  0  0
 11 13  1  0  0  0  0
 12 14  1  6  0  0  0
 12 15  1  0  0  0  0
 13 16  1  0  0  0  0
 13 17  1  6  0  0  0
 14 18  1  0  0  0  0
 14 19  1  0  0  0  0
 14 20  1  0  0  0  0
 15 21  1  0  0  0  0
 17 22  1  0  0  0  0
 20 23  1  0  0  0  0
 23 24  2  0  0  0  0
 23 25  1  0  0  0  0
 24 26  1  0  0  0  0
 25 27  2  0  0  0  0
 27 28  1  0  0  0  0
 28 29  1  0  0  0  0
 29 30  1  0  0  0  0
 29 31  1  0  0  0  0
 30 32  1  0  0  0  0
 31 33  1  0  0  0  0
 32 34  1  0  0  0  0
  6  7  1  0  0  0  0
 16 21  1  0  0  0  0
 18 19  1  0  0  0  0
 26 27  1  0  0  0  0
 33 34  1  0  0  0  0
M  END
>  <MolRegNo>
423224

>  <m>
=

>  <Value>
2600

>  <Unit>
nM

>  <Type>
IC50

>  <pValue>
5.58

>  <Ligand Efficiency>
0

>  <Binding Efficiency>
0

>  <Surface Efficiency>
0

>  <Assay Index>
310284

>  <Assay Category>


>  <Assay Organism>


>  <Target ID>
17045

>  <Target Name>
Cytochrome P450 3A4

>  <Target Organism>
Homo sapiens

>  <Target Description>
Target is a single protein chain

>  <Sequence Accession>
P08684

>  <Reference>
Bioorg Med Chem Lett 18 (1), 215-219 (2008)

>  <Pubmed ID>
17988864

>  <DOI>
10.1016/j.bmcl.2007.10.092

$$$$
423211
Actelion Java MolfileCreator 1.0

 35 38  0  0  1  0  0  0  0  0999 V2000
    0.0000   -0.0000   -0.0000 Cl  0  0  0  0  0  0  0  0  0  0  0  0
   -0.0151    1.5068   -0.0000 C   0  0  0  0  0  0  0  0  0  0  0  0
   -1.3260    2.2752   -0.0000 C   0  0  0  0  0  0  0  0  0  0  0  0
    1.2657    2.2752   -0.0000 C   0  0  0  0  0  0  0  0  0  0  0  0
   -1.3260    3.7820   -0.0000 C   0  0  0  0  0  0  0  0  0  0  0  0
    1.2506    3.7820   -0.0000 C   0  0  0  0  0  0  0  0  0  0  0  0
   -0.0452    4.5354   -0.0000 C   0  0  0  0  0  0  0  0  0  0  0  0
   -0.0452    6.0422   -0.0000 S   0  0  0  0  0  0  0  0  0  0  0  0
    1.4314    6.0573   -0.0000 O   0  0  0  0  0  0  0  0  0  0  0  0
   -1.5520    6.0723   -0.0000 O   0  0  0  0  0  0  0  0  0  0  0  0
   -0.0603    7.9709   -0.0000 N   0  0  0  0  0  0  0  0  0  0  0  0
    1.2054    8.7243   -0.0000 C   0  0  0  0  0  0  0  0  0  0  0  0
   -1.3561    8.7243   -0.0000 C   0  0  0  0  0  0  0  0  0  0  0  0
    2.4862    8.0010   -0.0000 C   0  0  0  0  0  0  0  0  0  0  0  0
    1.1904   10.2310   -0.0000 C   0  0  0  0  0  0  0  0  0  0  0  0
   -1.3712   10.2310   -0.0000 C   0  0  0  0  0  0  0  0  0  0  0  0
   -2.6670    7.9859   -0.0000 C   0  0  0  0  0  0  0  0  0  0  0  0
    3.2094    6.7353   -0.0000 C   0  0  0  0  0  0  0  0  0  0  0  0
    1.7177    6.7353   -0.0000 C   0  0  0  0  0  0  0  0  0  0  0  0
    3.7670    8.7544   -0.0000 C   0  0  0  0  0  0  0  0  0  0  0  0
   -0.1055   10.9995   -0.0000 C   0  0  0  0  0  0  0  0  0  0  0  0
   -3.9779    8.7393   -0.0000 C   0  0  0  0  0  0  0  0  0  0  0  0
    5.0477    8.0161   -0.0000 C   0  0  0  0  0  0  0  0  0  0  0  0
    5.1984    6.5545   -0.0000 N   0  0  0  0  0  0  0  0  0  0  0  0
    6.4038    8.6339   -0.0000 N   0  0  0  0  0  0  0  0  0  0  0  0
    6.6449    6.2531   -0.0000 O   0  0  0  0  0  0  0  0  0  0  0  0
    7.3832    7.5339   -0.0000 C   0  0  0  0  0  0  0  0  0  0  0  0
    8.8448    7.6996   -0.0000 C   0  0  0  0  0  0  0  0  0  0  0  0
    9.7037    6.5093   -0.0000 N   0  0  0  0  0  0  0  0  0  0  0  0
   11.1652    6.6750   -0.0000 C   0  0  0  0  0  0  0  0  0  0  0  0
    9.0859    5.1683   -0.0000 C   0  0  0  0  0  0  0  0  0  0  0  0
   11.2255    5.1984   -0.0000 C   0  0  0  0  0  0  0  0  0  0  0  0
   12.6419    6.6901   -0.0000 C   0  0  0  0  0  0  0  0  0  0  0  0
   11.0748    8.1818   -0.0000 C   0  0  0  0  0  0  0  0  0  0  0  0
   12.5364    4.5354   -0.0000 O   0  0  0  0  0  0  0  0  0  0  0  0
  1  2  1  0  0  0  0
  2  3  2  0  0  0  0
  2  4  1  0  0  0  0
  3  5  1  0  0  0  0
  4  6  2  0  0  0  0
  5  7  2  0  0  0  0
  7  8  1  0  0  0  0
  8  9  2  0  0  0  0
  8 10  2  0  0  0  0
  8 11  1  0  0  0  0
 11 12  1  0  0  0  0
 11 13  1  0  0  0  0
 12 14  1  6  0  0  0
 12 15  1  0  0  0  0
 13 16  1  0  0  0  0
 13 17  1  6  0  0  0
 14 18  1  0  0  0  0
 14 19  1  0  0  0  0
 14 20  1  0  0  0  0
 15 21  1  0  0  0  0
 17 22  1  0  0  0  0
 20 23  1  0  0  0  0
 23 24  2  0  0  0  0
 23 25  1  0  0  0  0
 24 26  1  0  0  0  0
 25 27  2  0  0  0  0
 27 28  1  0  0  0  0
 28 29  1  0  0  0  0
 29 30  1  0  0  0  0
 29 31  1  0  0  0  0
 30 32  1  0  0  0  0
 30 33  1  0  0  0  0
 30 34  1  0  0  0  0
 32 35  1  0  0  0  0
  6  7  1  0  0  0  0
 16 21  1  0  0  0  0
 18 19  1  0  0  0  0
 26 27  1  0  0  0  0
M  END
>  <MolRegNo>
423211

>  <m>
=

>  <Value>
4000

>  <Unit>
nM

>  <Type>
IC50

>  <pValue>
5.4

>  <Ligand Efficiency>
0

>  <Binding Efficiency>
0

>  <Surface Efficiency>
0

>  <Assay Index>
310284

>  <Assay Category>


>  <Assay Organism>


>  <Target ID>
17045

>  <Target Name>
Cytochrome P450 3A4

>  <Target Organism>
Homo sapiens

>  <Target Description>
Target is a single protein chain

>  <Sequence Accession>
P08684

>  <Reference>
Bioorg Med Chem Lett 18 (1), 215-219 (2008)

>  <Pubmed ID>
17988864

>  <DOI>
10.1016/j.bmcl.2007.10.092

$$$$
423206
Actelion Java MolfileCreator 1.0

 28 31  0  0  1  0  0  0  0  0999 V2000
    0.0000   -0.0000   -0.0000 Cl  0  0  0  0  0  0  0  0  0  0  0  0
   -0.0150    1.5012   -0.0000 C   0  0  0  0  0  0  0  0  0  0  0  0
   -1.3211    2.2669   -0.0000 C   0  0  0  0  0  0  0  0  0  0  0  0
    1.2610    2.2669   -0.0000 C   0  0  0  0  0  0  0  0  0  0  0  0
   -1.3211    3.7681   -0.0000 C   0  0  0  0  0  0  0  0  0  0  0  0
    1.2460    3.7681   -0.0000 C   0  0  0  0  0  0  0  0  0  0  0  0
   -0.0450    4.5187   -0.0000 C   0  0  0  0  0  0  0  0  0  0  0  0
   -0.0600    6.0199   -0.0000 S   0  0  0  0  0  0  0  0  0  0  0  0
    1.4112    6.0350   -0.0000 O   0  0  0  0  0  0  0  0  0  0  0  0
   -1.5613    6.0500   -0.0000 O   0  0  0  0  0  0  0  0  0  0  0  0
   -0.0751    7.9415   -0.0000 N   0  0  0  0  0  0  0  0  0  0  0  0
    1.1860    8.6921   -0.0000 C   0  0  0  0  0  0  0  0  0  0  0  0
   -1.3661    8.6921   -0.0000 C   0  0  0  0  0  0  0  0  0  0  0  0
    2.4620    7.9715   -0.0000 C   0  0  0  0  0  0  0  0  0  0  0  0
    1.1710   10.1934   -0.0000 C   0  0  0  0  0  0  0  0  0  0  0  0
   -1.3811   10.1934   -0.0000 C   0  0  0  0  0  0  0  0  0  0  0  0
   -2.6722    7.9565   -0.0000 C   0  0  0  0  0  0  0  0  0  0  0  0
    3.1826    6.6955   -0.0000 C   0  0  0  0  0  0  0  0  0  0  0  0
    1.6964    6.7105   -0.0000 C   0  0  0  0  0  0  0  0  0  0  0  0
    3.7381    8.7222   -0.0000 C   0  0  0  0  0  0  0  0  0  0  0  0
   -0.1201   10.9590   -0.0000 C   0  0  0  0  0  0  0  0  0  0  0  0
   -3.9783    8.7071   -0.0000 C   0  0  0  0  0  0  0  0  0  0  0  0
    5.0141    7.9866   -0.0000 C   0  0  0  0  0  0  0  0  0  0  0  0
    6.3652    8.6021   -0.0000 N   0  0  0  0  0  0  0  0  0  0  0  0
    5.1642    6.5304   -0.0000 N   0  0  0  0  0  0  0  0  0  0  0  0
    7.3410    7.5062   -0.0000 O   0  0  0  0  0  0  0  0  0  0  0  0
    6.6054    6.2301   -0.0000 C   0  0  0  0  0  0  0  0  0  0  0  0
    7.1909    4.8790   -0.0000 C   0  0  0  0  0  0  0  0  0  0  0  0
  1  2  1  0  0  0  0
  2  3  2  0  0  0  0
  2  4  1  0  0  0  0
  3  5  1  0  0  0  0
  4  6  2  0  0  0  0
  5  7  2  0  0  0  0
  7  8  1  0  0  0  0
  8  9  2  0  0  0  0
  8 10  2  0  0  0  0
  8 11  1  0  0  0  0
 11 12  1  0  0  0  0
 11 13  1  0  0  0  0
 12 14  1  6  0  0  0
 12 15  1  0  0  0  0
 13 16  1  0  0  0  0
 13 17  1  6  0  0  0
 14 18  1  0  0  0  0
 14 19  1  0  0  0  0
 14 20  1  0  0  0  0
 15 21  1  0  0  0  0
 17 22  1  0  0  0  0
 20 23  1  0  0  0  0
 23 24  2  0  0  0  0
 23 25  1  0  0  0  0
 24 26  1  0  0  0  0
 25 27  2  0  0  0  0
 27 28  1  0  0  0  0
  6  7  1  0  0  0  0
 16 21  1  0  0  0  0
 18 19  1  0  0  0  0
 26 27  1  0  0  0  0
M  END
>  <MolRegNo>
423206

>  <m>
=

>  <Value>
16900

>  <Unit>
nM

>  <Type>
IC50

>  <pValue>
4.77

>  <Ligand Efficiency>
0

>  <Binding Efficiency>
0

>  <Surface Efficiency>
0

>  <Assay Index>
310284

>  <Assay Category>


>  <Assay Organism>


>  <Target ID>
17045

>  <Target Name>
Cytochrome P450 3A4

>  <Target Organism>
Homo sapiens

>  <Target Description>
Target is a single protein chain

>  <Sequence Accession>
P08684

>  <Reference>
Bioorg Med Chem Lett 18 (1), 215-219 (2008)

>  <Pubmed ID>
17988864

>  <DOI>
10.1016/j.bmcl.2007.10.092

$$$$
423201
Actelion Java MolfileCreator 1.0

 36 41  0  0  1  0  0  0  0  0999 V2000
    0.0000   -0.0000   -0.0000 Cl  0  0  0  0  0  0  0  0  0  0  0  0
   -0.0151    1.5060   -0.0000 C   0  0  0  0  0  0  0  0  0  0  0  0
   -1.3253    2.2740   -0.0000 C   0  0  0  0  0  0  0  0  0  0  0  0
    1.2650    2.2740   -0.0000 C   0  0  0  0  0  0  0  0  0  0  0  0
   -1.3253    3.7800   -0.0000 C   0  0  0  0  0  0  0  0  0  0  0  0
    1.2500    3.7800   -0.0000 C   0  0  0  0  0  0  0  0  0  0  0  0
   -0.0452    4.5330   -0.0000 C   0  0  0  0  0  0  0  0  0  0  0  0
   -0.0452    6.0390   -0.0000 S   0  0  0  0  0  0  0  0  0  0  0  0
    1.4307    6.0540   -0.0000 O   0  0  0  0  0  0  0  0  0  0  0  0
   -1.5512    6.0540   -0.0000 O   0  0  0  0  0  0  0  0  0  0  0  0
   -0.0602    7.9666   -0.0000 N   0  0  0  0  0  0  0  0  0  0  0  0
    1.2048    8.7196   -0.0000 C   0  0  0  0  0  0  0  0  0  0  0  0
   -1.3554    8.7196   -0.0000 C   0  0  0  0  0  0  0  0  0  0  0  0
    2.4849    7.9817   -0.0000 C   0  0  0  0  0  0  0  0  0  0  0  0
    1.1897   10.2256   -0.0000 C   0  0  0  0  0  0  0  0  0  0  0  0
   -2.6656    7.9817   -0.0000 C   0  0  0  0  0  0  0  0  0  0  0  0
   -1.3704   10.2256   -0.0000 C   0  0  0  0  0  0  0  0  0  0  0  0
    3.2077    6.7016   -0.0000 C   0  0  0  0  0  0  0  0  0  0  0  0
    1.7168    6.7167   -0.0000 C   0  0  0  0  0  0  0  0  0  0  0  0
    3.7649    8.7347   -0.0000 C   0  0  0  0  0  0  0  0  0  0  0  0
   -0.1054   10.9937   -0.0000 C   0  0  0  0  0  0  0  0  0  0  0  0
   -4.1716    7.9968   -0.0000 C   0  0  0  0  0  0  0  0  0  0  0  0
   -3.4336    6.7167   -0.0000 C   0  0  0  0  0  0  0  0  0  0  0  0
    5.0450    7.9968   -0.0000 C   0  0  0  0  0  0  0  0  0  0  0  0
    5.0300    6.5209   -0.0000 O   0  0  0  0  0  0  0  0  0  0  0  0
    6.3251    8.7497   -0.0000 N   0  0  0  0  0  0  0  0  0  0  0  0
    7.2588    9.5479   -0.0000 C   0  0  0  0  0  0  0  0  0  0  0  0
    6.5661   10.2557   -0.0000 C   0  0  0  0  0  0  0  0  0  0  0  0
    9.0208    9.5630   -0.0000 C   0  0  0  0  0  0  0  0  0  0  0  0
    8.2528   10.2407   -0.0000 C   0  0  0  0  0  0  0  0  0  0  0  0
    9.2618   11.0689   -0.0000 N   0  0  0  0  0  0  0  0  0  0  0  0
    9.9545    8.2829   -0.0000 C   0  0  0  0  0  0  0  0  0  0  0  0
    8.8250    8.9606   -0.0000 C   0  0  0  0  0  0  0  0  0  0  0  0
    9.9997   12.3641   -0.0000 C   0  0  0  0  0  0  0  0  0  0  0  0
   11.4756   12.3641   -0.0000 C   0  0  0  0  0  0  0  0  0  0  0  0
   12.2135   13.6592   -0.0000 O   0  0  0  0  0  0  0  0  0  0  0  0
  1  2  1  0  0  0  0
  2  3  2  0  0  0  0
  2  4  1  0  0  0  0
  3  5  1  0  0  0  0
  4  6  2  0  0  0  0
  5  7  2  0  0  0  0
  7  8  1  0  0  0  0
  8  9  2  0  0  0  0
  8 10  2  0  0  0  0
  8 11  1  0  0  0  0
 11 12  1  0  0  0  0
 11 13  1  0  0  0  0
 12 14  1  6  0  0  0
 12 15  1  0  0  0  0
 13 16  1  6  0  0  0
 13 17  1  0  0  0  0
 14 18  1  0  0  0  0
 14 19  1  0  0  0  0
 14 20  1  0  0  0  0
 15 21  1  0  0  0  0
 16 22  1  0  0  0  0
 16 23  1  0  0  0  0
 20 24  1  0  0  0  0
 24 25  2  0  0  0  0
 24 26  1  0  0  0  0
 26 27  1  0  0  0  0
 26 28  1  0  0  0  0
 27 29  1  0  0  0  0
 28 30  1  0  0  0  0
 29 31  1  0  0  0  0
 29 32  1  0  0  0  0
 30 33  1  0  0  0  0
 31 34  1  0  0  0  0
 34 35  1  0  0  0  0
 35 36  1  0  0  0  0
  6  7  1  0  0  0  0
 17 21  1  0  0  0  0
 18 19  1  0  0  0  0
 22 23  1  0  0  0  0
 30 31  1  0  0  0  0
 32 33  1  0  0  0  0
M  END
>  <MolRegNo>
423201

>  <m>
=

>  <Value>
1000

>  <Unit>
nM

>  <Type>
IC50

>  <pValue>
6

>  <Ligand Efficiency>
0

>  <Binding Efficiency>
0

>  <Surface Efficiency>
0

>  <Assay Index>
310284

>  <Assay Category>


>  <Assay Organism>


>  <Target ID>
17045

>  <Target Name>
Cytochrome P450 3A4

>  <Target Organism>
Homo sapiens

>  <Target Description>
Target is a single protein chain

>  <Sequence Accession>
P08684

>  <Reference>
Bioorg Med Chem Lett 18 (1), 215-219 (2008)

>  <Pubmed ID>
17988864

>  <DOI>
10.1016/j.bmcl.2007.10.092

$$$$
423200
Actelion Java MolfileCreator 1.0

 34 39  0  0  1  0  0  0  0  0999 V2000
    0.0000   -0.0000   -0.0000 Cl  0  0  0  0  0  0  0  0  0  0  0  0
   -0.0150    1.5034   -0.0000 C   0  0  0  0  0  0  0  0  0  0  0  0
   -1.3230    2.2701   -0.0000 C   0  0  0  0  0  0  0  0  0  0  0  0
    1.2628    2.2701   -0.0000 C   0  0  0  0  0  0  0  0  0  0  0  0
   -1.3230    3.7735   -0.0000 C   0  0  0  0  0  0  0  0  0  0  0  0
    1.2478    3.7735   -0.0000 C   0  0  0  0  0  0  0  0  0  0  0  0
   -0.0451    4.5252   -0.0000 C   0  0  0  0  0  0  0  0  0  0  0  0
   -0.0451    6.0286   -0.0000 S   0  0  0  0  0  0  0  0  0  0  0  0
    1.4282    6.0436   -0.0000 O   0  0  0  0  0  0  0  0  0  0  0  0
   -1.5485    6.0586   -0.0000 O   0  0  0  0  0  0  0  0  0  0  0  0
   -0.0601    7.9529   -0.0000 N   0  0  0  0  0  0  0  0  0  0  0  0
    1.2027    8.7046   -0.0000 C   0  0  0  0  0  0  0  0  0  0  0  0
   -1.3530    8.7046   -0.0000 C   0  0  0  0  0  0  0  0  0  0  0  0
    2.4806    7.9679   -0.0000 C   0  0  0  0  0  0  0  0  0  0  0  0
    1.1877   10.2080   -0.0000 C   0  0  0  0  0  0  0  0  0  0  0  0
   -2.6610    7.9679   -0.0000 C   0  0  0  0  0  0  0  0  0  0  0  0
   -1.3681   10.2080   -0.0000 C   0  0  0  0  0  0  0  0  0  0  0  0
    3.2022    6.7051   -0.0000 C   0  0  0  0  0  0  0  0  0  0  0  0
    1.7139    6.7051   -0.0000 C   0  0  0  0  0  0  0  0  0  0  0  0
    3.7585    8.7196   -0.0000 C   0  0  0  0  0  0  0  0  0  0  0  0
   -0.1052   10.9747   -0.0000 C   0  0  0  0  0  0  0  0  0  0  0  0
   -4.1644    7.9830   -0.0000 C   0  0  0  0  0  0  0  0  0  0  0  0
   -3.4127    6.6901   -0.0000 C   0  0  0  0  0  0  0  0  0  0  0  0
    5.0363    7.9830   -0.0000 C   0  0  0  0  0  0  0  0  0  0  0  0
    5.0213    6.5096   -0.0000 O   0  0  0  0  0  0  0  0  0  0  0  0
    6.3142    8.7347   -0.0000 N   0  0  0  0  0  0  0  0  0  0  0  0
    7.5770    7.9980   -0.0000 C   0  0  0  0  0  0  0  0  0  0  0  0
    6.2992   10.2380   -0.0000 C   0  0  0  0  0  0  0  0  0  0  0  0
    8.8549    8.7497   -0.0000 C   0  0  0  0  0  0  0  0  0  0  0  0
    7.5770   10.9897   -0.0000 C   0  0  0  0  0  0  0  0  0  0  0  0
    8.8549   10.2681   -0.0000 C   0  0  0  0  0  0  0  0  0  0  0  0
   10.2831    9.9073   -0.0000 N   0  0  0  0  0  0  0  0  0  0  0  0
    9.2308   11.7264   -0.0000 C   0  0  0  0  0  0  0  0  0  0  0  0
   10.6439   11.3656   -0.0000 C   0  0  0  0  0  0  0  0  0  0  0  0
  1  2  1  0  0  0  0
  2  3  2  0  0  0  0
  2  4  1  0  0  0  0
  3  5  1  0  0  0  0
  4  6  2  0  0  0  0
  5  7  2  0  0  0  0
  7  8  1  0  0  0  0
  8  9  2  0  0  0  0
  8 10  2  0  0  0  0
  8 11  1  0  0  0  0
 11 12  1  0  0  0  0
 11 13  1  0  0  0  0
 12 14  1  6  0  0  0
 12 15  1  0  0  0  0
 13 16  1  6  0  0  0
 13 17  1  0  0  0  0
 14 18  1  0  0  0  0
 14 19  1  0  0  0  0
 14 20  1  0  0  0  0
 15 21  1  0  0  0  0
 16 22  1  0  0  0  0
 16 23  1  0  0  0  0
 20 24  1  0  0  0  0
 24 25  2  0  0  0  0
 24 26  1  0  0  0  0
 26 27  1  0  0  0  0
 26 28  1  0  0  0  0
 27 29  1  0  0  0  0
 28 30  1  0  0  0  0
 29 31  1  0  0  0  0
 31 32  1  0  0  0  0
 31 33  1  0  0  0  0
 32 34  1  0  0  0  0
  6  7  1  0  0  0  0
 17 21  1  0  0  0  0
 18 19  1  0  0  0  0
 22 23  1  0  0  0  0
 30 31  1  0  0  0  0
 33 34  1  0  0  0  0
M  END
>  <MolRegNo>
423200

>  <m>
=

>  <Value>
7000

>  <Unit>
nM

>  <Type>
IC50

>  <pValue>
5.16

>  <Ligand Efficiency>
0

>  <Binding Efficiency>
0

>  <Surface Efficiency>
0

>  <Assay Index>
310284

>  <Assay Category>


>  <Assay Organism>


>  <Target ID>
17045

>  <Target Name>
Cytochrome P450 3A4

>  <Target Organism>
Homo sapiens

>  <Target Description>
Target is a single protein chain

>  <Sequence Accession>
P08684

>  <Reference>
Bioorg Med Chem Lett 18 (1), 215-219 (2008)

>  <Pubmed ID>
17988864

>  <DOI>
10.1016/j.bmcl.2007.10.092

$$$$
423198
Actelion Java MolfileCreator 1.0

 35 40  0  0  1  0  0  0  0  0999 V2000
    0.0000   -0.0000   -0.0000 Cl  0  0  0  0  0  0  0  0  0  0  0  0
   -0.0150    1.5039   -0.0000 C   0  0  0  0  0  0  0  0  0  0  0  0
   -1.3234    2.2709   -0.0000 C   0  0  0  0  0  0  0  0  0  0  0  0
    1.2633    2.2709   -0.0000 C   0  0  0  0  0  0  0  0  0  0  0  0
   -1.3234    3.7748   -0.0000 C   0  0  0  0  0  0  0  0  0  0  0  0
    1.2482    3.7748   -0.0000 C   0  0  0  0  0  0  0  0  0  0  0  0
   -0.0451    4.5267   -0.0000 C   0  0  0  0  0  0  0  0  0  0  0  0
   -0.0602    6.0306   -0.0000 S   0  0  0  0  0  0  0  0  0  0  0  0
    1.4137    6.0456   -0.0000 O   0  0  0  0  0  0  0  0  0  0  0  0
   -1.5640    6.0607   -0.0000 O   0  0  0  0  0  0  0  0  0  0  0  0
   -0.0752    7.9556   -0.0000 N   0  0  0  0  0  0  0  0  0  0  0  0
    1.1881    8.7075   -0.0000 C   0  0  0  0  0  0  0  0  0  0  0  0
   -1.3685    8.7075   -0.0000 C   0  0  0  0  0  0  0  0  0  0  0  0
    2.4664    7.9856   -0.0000 C   0  0  0  0  0  0  0  0  0  0  0  0
    1.1730   10.2114   -0.0000 C   0  0  0  0  0  0  0  0  0  0  0  0
   -2.6769    7.9706   -0.0000 C   0  0  0  0  0  0  0  0  0  0  0  0
   -1.3836   10.2114   -0.0000 C   0  0  0  0  0  0  0  0  0  0  0  0
    3.1882    6.7224   -0.0000 C   0  0  0  0  0  0  0  0  0  0  0  0
    1.6994    6.7224   -0.0000 C   0  0  0  0  0  0  0  0  0  0  0  0
    3.7447    8.7376   -0.0000 C   0  0  0  0  0  0  0  0  0  0  0  0
   -0.1203   10.9784   -0.0000 C   0  0  0  0  0  0  0  0  0  0  0  0
   -3.4439    6.6923   -0.0000 C   0  0  0  0  0  0  0  0  0  0  0  0
   -4.1808    7.9856   -0.0000 C   0  0  0  0  0  0  0  0  0  0  0  0
    5.0230    8.0007   -0.0000 C   0  0  0  0  0  0  0  0  0  0  0  0
    5.0079    6.5269   -0.0000 O   0  0  0  0  0  0  0  0  0  0  0  0
    6.3013    8.7526   -0.0000 N   0  0  0  0  0  0  0  0  0  0  0  0
    6.2862   10.2565   -0.0000 C   0  0  0  0  0  0  0  0  0  0  0  0
    7.5645    8.0157   -0.0000 C   0  0  0  0  0  0  0  0  0  0  0  0
    7.5645   11.0084   -0.0000 C   0  0  0  0  0  0  0  0  0  0  0  0
    8.8429    8.7677   -0.0000 C   0  0  0  0  0  0  0  0  0  0  0  0
    8.8429   10.2866   -0.0000 N   0  0  0  0  0  0  0  0  0  0  0  0
    7.5345   12.5123   -0.0000 C   0  0  0  0  0  0  0  0  0  0  0  0
   10.1061   11.0385   -0.0000 C   0  0  0  0  0  0  0  0  0  0  0  0
    8.8128   13.2643   -0.0000 C   0  0  0  0  0  0  0  0  0  0  0  0
   10.0911   12.5424   -0.0000 C   0  0  0  0  0  0  0  0  0  0  0  0
  1  2  1  0  0  0  0
  2  3  2  0  0  0  0
  2  4  1  0  0  0  0
  3  5  1  0  0  0  0
  4  6  2  0  0  0  0
  5  7  2  0  0  0  0
  7  8  1  0  0  0  0
  8  9  2  0  0  0  0
  8 10  2  0  0  0  0
  8 11  1  0  0  0  0
 11 12  1  0  0  0  0
 11 13  1  0  0  0  0
 12 14  1  6  0  0  0
 12 15  1  0  0  0  0
 13 16  1  6  0  0  0
 13 17  1  0  0  0  0
 14 18  1  0  0  0  0
 14 19  1  0  0  0  0
 14 20  1  0  0  0  0
 15 21  1  0  0  0  0
 16 22  1  0  0  0  0
 16 23  1  0  0  0  0
 20 24  1  0  0  0  0
 24 25  2  0  0  0  0
 24 26  1  0  0  0  0
 26 27  1  0  0  0  0
 26 28  1  0  0  0  0
 27 29  1  0  0  0  0
 28 30  1  0  0  0  0
 29 31  1  6  0  0  0
 29 32  1  0  0  0  0
 31 33  1  0  0  0  0
 32 34  1  0  0  0  0
 33 35  1  0  0  0  0
  6  7  1  0  0  0  0
 17 21  1  0  0  0  0
 18 19  1  0  0  0  0
 22 23  1  0  0  0  0
 30 31  1  0  0  0  0
 34 35  1  0  0  0  0
M  END
>  <MolRegNo>
423198

>  <m>
=

>  <Value>
1800

>  <Unit>
nM

>  <Type>
IC50

>  <pValue>
5.75

>  <Ligand Efficiency>
0

>  <Binding Efficiency>
0

>  <Surface Efficiency>
0

>  <Assay Index>
310284

>  <Assay Category>


>  <Assay Organism>


>  <Target ID>
17045

>  <Target Name>
Cytochrome P450 3A4

>  <Target Organism>
Homo sapiens

>  <Target Description>
Target is a single protein chain

>  <Sequence Accession>
P08684

>  <Reference>
Bioorg Med Chem Lett 18 (1), 215-219 (2008)

>  <Pubmed ID>
17988864

>  <DOI>
10.1016/j.bmcl.2007.10.092

$$$$
423194
Actelion Java MolfileCreator 1.0

 35 39  0  0  1  0  0  0  0  0999 V2000
    0.0000   -0.0000   -0.0000 Cl  0  0  0  0  0  0  0  0  0  0  0  0
   -0.0151    1.5053   -0.0000 C   0  0  0  0  0  0  0  0  0  0  0  0
   -1.3246    2.2730   -0.0000 C   0  0  0  0  0  0  0  0  0  0  0  0
    1.2644    2.2730   -0.0000 C   0  0  0  0  0  0  0  0  0  0  0  0
   -1.3246    3.7783   -0.0000 C   0  0  0  0  0  0  0  0  0  0  0  0
    1.2494    3.7783   -0.0000 C   0  0  0  0  0  0  0  0  0  0  0  0
   -0.0452    4.5309   -0.0000 C   0  0  0  0  0  0  0  0  0  0  0  0
   -0.0452    6.0362   -0.0000 S   0  0  0  0  0  0  0  0  0  0  0  0
    1.4300    6.0512   -0.0000 O   0  0  0  0  0  0  0  0  0  0  0  0
   -1.5504    6.0663   -0.0000 O   0  0  0  0  0  0  0  0  0  0  0  0
   -0.0602    7.9629   -0.0000 N   0  0  0  0  0  0  0  0  0  0  0  0
    1.2042    8.7156   -0.0000 C   0  0  0  0  0  0  0  0  0  0  0  0
   -1.3548    8.7156   -0.0000 C   0  0  0  0  0  0  0  0  0  0  0  0
    2.4837    7.9930   -0.0000 C   0  0  0  0  0  0  0  0  0  0  0  0
    1.1892   10.2208   -0.0000 C   0  0  0  0  0  0  0  0  0  0  0  0
   -1.3698   10.2208   -0.0000 C   0  0  0  0  0  0  0  0  0  0  0  0
   -2.6643    7.9780   -0.0000 C   0  0  0  0  0  0  0  0  0  0  0  0
    3.2062    6.7286   -0.0000 C   0  0  0  0  0  0  0  0  0  0  0  0
    1.7160    6.7286   -0.0000 C   0  0  0  0  0  0  0  0  0  0  0  0
    3.7632    8.7457   -0.0000 C   0  0  0  0  0  0  0  0  0  0  0  0
   -0.1054   10.9885   -0.0000 C   0  0  0  0  0  0  0  0  0  0  0  0
   -3.9739    8.7306   -0.0000 C   0  0  0  0  0  0  0  0  0  0  0  0
    5.0427    8.0081   -0.0000 C   0  0  0  0  0  0  0  0  0  0  0  0
    5.0276    6.5329   -0.0000 O   0  0  0  0  0  0  0  0  0  0  0  0
    6.3222    8.7607   -0.0000 N   0  0  0  0  0  0  0  0  0  0  0  0
    7.2554    9.5585   -0.0000 C   0  0  0  0  0  0  0  0  0  0  0  0
    6.5630   10.2660   -0.0000 C   0  0  0  0  0  0  0  0  0  0  0  0
    9.0166    9.5736   -0.0000 C   0  0  0  0  0  0  0  0  0  0  0  0
    8.2489   10.2510   -0.0000 C   0  0  0  0  0  0  0  0  0  0  0  0
    9.2575   11.0789   -0.0000 N   0  0  0  0  0  0  0  0  0  0  0  0
    9.9499    8.2941   -0.0000 C   0  0  0  0  0  0  0  0  0  0  0  0
    8.8209    8.9715   -0.0000 C   0  0  0  0  0  0  0  0  0  0  0  0
    9.9951   12.3734   -0.0000 C   0  0  0  0  0  0  0  0  0  0  0  0
   11.4702   12.3734   -0.0000 C   0  0  0  0  0  0  0  0  0  0  0  0
   12.2078   13.6679   -0.0000 O   0  0  0  0  0  0  0  0  0  0  0  0
  1  2  1  0  0  0  0
  2  3  2  0  0  0  0
  2  4  1  0  0  0  0
  3  5  1  0  0  0  0
  4  6  2  0  0  0  0
  5  7  2  0  0  0  0
  7  8  1  0  0  0  0
  8  9  2  0  0  0  0
  8 10  2  0  0  0  0
  8 11  1  0  0  0  0
 11 12  1  0  0  0  0
 11 13  1  0  0  0  0
 12 14  1  6  0  0  0
 12 15  1  0  0  0  0
 13 16  1  0  0  0  0
 13 17  1  6  0  0  0
 14 18  1  0  0  0  0
 14 19  1  0  0  0  0
 14 20  1  0  0  0  0
 15 21  1  0  0  0  0
 17 22  1  0  0  0  0
 20 23  1  0  0  0  0
 23 24  2  0  0  0  0
 23 25  1  0  0  0  0
 25 26  1  0  0  0  0
 25 27  1  0  0  0  0
 26 28  1  0  0  0  0
 27 29  1  0  0  0  0
 28 30  1  0  0  0  0
 28 31  1  0  0  0  0
 29 32  1  0  0  0  0
 30 33  1  0  0  0  0
 33 34  1  0  0  0  0
 34 35  1  0  0  0  0
  6  7  1  0  0  0  0
 16 21  1  0  0  0  0
 18 19  1  0  0  0  0
 29 30  1  0  0  0  0
 31 32  1  0  0  0  0
M  END
>  <MolRegNo>
423194

>  <m>
=

>  <Value>
2200

>  <Unit>
nM

>  <Type>
IC50

>  <pValue>
5.66

>  <Ligand Efficiency>
0

>  <Binding Efficiency>
0

>  <Surface Efficiency>
0

>  <Assay Index>
310284

>  <Assay Category>


>  <Assay Organism>


>  <Target ID>
17045

>  <Target Name>
Cytochrome P450 3A4

>  <Target Organism>
Homo sapiens

>  <Target Description>
Target is a single protein chain

>  <Sequence Accession>
P08684

>  <Reference>
Bioorg Med Chem Lett 18 (1), 215-219 (2008)

>  <Pubmed ID>
17988864

>  <DOI>
10.1016/j.bmcl.2007.10.092

$$$$
423193
Actelion Java MolfileCreator 1.0

 33 37  0  0  1  0  0  0  0  0999 V2000
    0.0000   -0.0000   -0.0000 Cl  0  0  0  0  0  0  0  0  0  0  0  0
   -0.0150    1.5038   -0.0000 C   0  0  0  0  0  0  0  0  0  0  0  0
   -1.3233    2.2707   -0.0000 C   0  0  0  0  0  0  0  0  0  0  0  0
    1.2632    2.2707   -0.0000 C   0  0  0  0  0  0  0  0  0  0  0  0
   -1.3233    3.7745   -0.0000 C   0  0  0  0  0  0  0  0  0  0  0  0
    1.2481    3.7745   -0.0000 C   0  0  0  0  0  0  0  0  0  0  0  0
   -0.0451    4.5264   -0.0000 C   0  0  0  0  0  0  0  0  0  0  0  0
   -0.0451    6.0302   -0.0000 S   0  0  0  0  0  0  0  0  0  0  0  0
    1.4286    6.0452   -0.0000 O   0  0  0  0  0  0  0  0  0  0  0  0
   -1.5489    6.0452   -0.0000 O   0  0  0  0  0  0  0  0  0  0  0  0
   -0.0602    7.9550   -0.0000 N   0  0  0  0  0  0  0  0  0  0  0  0
    1.2030    8.7069   -0.0000 C   0  0  0  0  0  0  0  0  0  0  0  0
   -1.3534    8.7069   -0.0000 C   0  0  0  0  0  0  0  0  0  0  0  0
    2.4812    7.9700   -0.0000 C   0  0  0  0  0  0  0  0  0  0  0  0
    1.1880   10.2107   -0.0000 C   0  0  0  0  0  0  0  0  0  0  0  0
   -1.3684   10.2107   -0.0000 C   0  0  0  0  0  0  0  0  0  0  0  0
   -2.6617    7.9700   -0.0000 C   0  0  0  0  0  0  0  0  0  0  0  0
    3.2031    6.6918   -0.0000 C   0  0  0  0  0  0  0  0  0  0  0  0
    1.7143    6.7069   -0.0000 C   0  0  0  0  0  0  0  0  0  0  0  0
    3.7595    8.7219   -0.0000 C   0  0  0  0  0  0  0  0  0  0  0  0
   -0.1053   10.9776   -0.0000 C   0  0  0  0  0  0  0  0  0  0  0  0
   -3.9700    8.7219   -0.0000 C   0  0  0  0  0  0  0  0  0  0  0  0
    5.0377    7.9851   -0.0000 C   0  0  0  0  0  0  0  0  0  0  0  0
    5.0226    6.5114   -0.0000 O   0  0  0  0  0  0  0  0  0  0  0  0
    6.3159    8.7370   -0.0000 N   0  0  0  0  0  0  0  0  0  0  0  0
    7.2482    9.5340   -0.0000 C   0  0  0  0  0  0  0  0  0  0  0  0
    6.5565   10.2407   -0.0000 C   0  0  0  0  0  0  0  0  0  0  0  0
    9.0076    9.5490   -0.0000 C   0  0  0  0  0  0  0  0  0  0  0  0
    8.2407   10.2257   -0.0000 C   0  0  0  0  0  0  0  0  0  0  0  0
    9.2483   11.0528   -0.0000 N   0  0  0  0  0  0  0  0  0  0  0  0
    9.9400    8.2708   -0.0000 C   0  0  0  0  0  0  0  0  0  0  0  0
    8.8122    8.9475   -0.0000 C   0  0  0  0  0  0  0  0  0  0  0  0
    9.9851   12.3460   -0.0000 C   0  0  0  0  0  0  0  0  0  0  0  0
  1  2  1  0  0  0  0
  2  3  2  0  0  0  0
  2  4  1  0  0  0  0
  3  5  1  0  0  0  0
  4  6  2  0  0  0  0
  5  7  2  0  0  0  0
  7  8  1  0  0  0  0
  8  9  2  0  0  0  0
  8 10  2  0  0  0  0
  8 11  1  0  0  0  0
 11 12  1  0  0  0  0
 11 13  1  0  0  0  0
 12 14  1  6  0  0  0
 12 15  1  0  0  0  0
 13 16  1  0  0  0  0
 13 17  1  6  0  0  0
 14 18  1  0  0  0  0
 14 19  1  0  0  0  0
 14 20  1  0  0  0  0
 15 21  1  0  0  0  0
 17 22  1  0  0  0  0
 20 23  1  0  0  0  0
 23 24  2  0  0  0  0
 23 25  1  0  0  0  0
 25 26  1  0  0  0  0
 25 27  1  0  0  0  0
 26 28  1  0  0  0  0
 27 29  1  0  0  0  0
 28 30  1  0  0  0  0
 28 31  1  0  0  0  0
 29 32  1  0  0  0  0
 30 33  1  0  0  0  0
  6  7  1  0  0  0  0
 16 21  1  0  0  0  0
 18 19  1  0  0  0  0
 29 30  1  0  0  0  0
 31 32  1  0  0  0  0
M  END
>  <MolRegNo>
423193

>  <m>
=

>  <Value>
4700

>  <Unit>
nM

>  <Type>
IC50

>  <pValue>
5.33

>  <Ligand Efficiency>
0

>  <Binding Efficiency>
0

>  <Surface Efficiency>
0

>  <Assay Index>
310284

>  <Assay Category>


>  <Assay Organism>


>  <Target ID>
17045

>  <Target Name>
Cytochrome P450 3A4

>  <Target Organism>
Homo sapiens

>  <Target Description>
Target is a single protein chain

>  <Sequence Accession>
P08684

>  <Reference>
Bioorg Med Chem Lett 18 (1), 215-219 (2008)

>  <Pubmed ID>
17988864

>  <DOI>
10.1016/j.bmcl.2007.10.092

$$$$
423192
Actelion Java MolfileCreator 1.0

 30 33  0  0  1  0  0  0  0  0999 V2000
    0.0000   -0.0000   -0.0000 Cl  0  0  0  0  0  0  0  0  0  0  0  0
   -0.0150    1.5010   -0.0000 C   0  0  0  0  0  0  0  0  0  0  0  0
   -1.3208    2.2665   -0.0000 C   0  0  0  0  0  0  0  0  0  0  0  0
    1.2608    2.2665   -0.0000 C   0  0  0  0  0  0  0  0  0  0  0  0
   -1.3208    3.7674   -0.0000 C   0  0  0  0  0  0  0  0  0  0  0  0
    1.2458    3.7674   -0.0000 C   0  0  0  0  0  0  0  0  0  0  0  0
   -0.0450    4.5179   -0.0000 C   0  0  0  0  0  0  0  0  0  0  0  0
   -0.0450    6.0189   -0.0000 S   0  0  0  0  0  0  0  0  0  0  0  0
    1.4259    6.0339   -0.0000 O   0  0  0  0  0  0  0  0  0  0  0  0
   -1.5460    6.0489   -0.0000 O   0  0  0  0  0  0  0  0  0  0  0  0
   -0.0600    7.9401   -0.0000 N   0  0  0  0  0  0  0  0  0  0  0  0
    1.2008    8.6906   -0.0000 C   0  0  0  0  0  0  0  0  0  0  0  0
   -1.3509    8.6906   -0.0000 C   0  0  0  0  0  0  0  0  0  0  0  0
    2.4766    7.9701   -0.0000 C   0  0  0  0  0  0  0  0  0  0  0  0
    1.1858   10.1915   -0.0000 C   0  0  0  0  0  0  0  0  0  0  0  0
   -1.3659   10.1915   -0.0000 C   0  0  0  0  0  0  0  0  0  0  0  0
   -2.6567    7.9551   -0.0000 C   0  0  0  0  0  0  0  0  0  0  0  0
    3.1971    6.7093   -0.0000 C   0  0  0  0  0  0  0  0  0  0  0  0
    1.7111    6.7093   -0.0000 C   0  0  0  0  0  0  0  0  0  0  0  0
    3.7524    8.7206   -0.0000 C   0  0  0  0  0  0  0  0  0  0  0  0
   -0.1051   10.9570   -0.0000 C   0  0  0  0  0  0  0  0  0  0  0  0
   -3.9625    8.7056   -0.0000 C   0  0  0  0  0  0  0  0  0  0  0  0
    5.0282    7.9851   -0.0000 C   0  0  0  0  0  0  0  0  0  0  0  0
    5.0132    6.5142   -0.0000 O   0  0  0  0  0  0  0  0  0  0  0  0
    6.3041    8.7356   -0.0000 N   0  0  0  0  0  0  0  0  0  0  0  0
    7.5649    8.0001   -0.0000 C   0  0  0  0  0  0  0  0  0  0  0  0
    6.2890   10.2366   -0.0000 C   0  0  0  0  0  0  0  0  0  0  0  0
    8.8407    8.7506   -0.0000 C   0  0  0  0  0  0  0  0  0  0  0  0
    7.5649   10.9871   -0.0000 C   0  0  0  0  0  0  0  0  0  0  0  0
    8.8407   10.2666   -0.0000 N   0  0  0  0  0  0  0  0  0  0  0  0
  1  2  1  0  0  0  0
  2  3  2  0  0  0  0
  2  4  1  0  0  0  0
  3  5  1  0  0  0  0
  4  6  2  0  0  0  0
  5  7  2  0  0  0  0
  7  8  1  0  0  0  0
  8  9  2  0  0  0  0
  8 10  2  0  0  0  0
  8 11  1  0  0  0  0
 11 12  1  0  0  0  0
 11 13  1  0  0  0  0
 12 14  1  6  0  0  0
 12 15  1  0  0  0  0
 13 16  1  0  0  0  0
 13 17  1  6  0  0  0
 14 18  1  0  0  0  0
 14 19  1  0  0  0  0
 14 20  1  0  0  0  0
 15 21  1  0  0  0  0
 17 22  1  0  0  0  0
 20 23  1  0  0  0  0
 23 24  2  0  0  0  0
 23 25  1  0  0  0  0
 25 26  1  0  0  0  0
 25 27  1  0  0  0  0
 26 28  1  0  0  0  0
 27 29  1  0  0  0  0
 28 30  1  0  0  0  0
  6  7  1  0  0  0  0
 16 21  1  0  0  0  0
 18 19  1  0  0  0  0
 29 30  1  0  0  0  0
M  END
>  <MolRegNo>
423192

>  <m>
=

>  <Value>
300

>  <Unit>
nM

>  <Type>
IC50

>  <pValue>
6.52

>  <Ligand Efficiency>
0

>  <Binding Efficiency>
0

>  <Surface Efficiency>
0

>  <Assay Index>
310284

>  <Assay Category>


>  <Assay Organism>


>  <Target ID>
17045

>  <Target Name>
Cytochrome P450 3A4

>  <Target Organism>
Homo sapiens

>  <Target Description>
Target is a single protein chain

>  <Sequence Accession>
P08684

>  <Reference>
Bioorg Med Chem Lett 18 (1), 215-219 (2008)

>  <Pubmed ID>
17988864

>  <DOI>
10.1016/j.bmcl.2007.10.092

$$$$
423190
Actelion Java MolfileCreator 1.0

 33 37  0  0  1  0  0  0  0  0999 V2000
    0.0000   -0.0000   -0.0000 Cl  0  0  0  0  0  0  0  0  0  0  0  0
   -0.0150    1.5024   -0.0000 C   0  0  0  0  0  0  0  0  0  0  0  0
   -1.3221    2.2686   -0.0000 C   0  0  0  0  0  0  0  0  0  0  0  0
    1.2620    2.2686   -0.0000 C   0  0  0  0  0  0  0  0  0  0  0  0
   -1.3221    3.7709   -0.0000 C   0  0  0  0  0  0  0  0  0  0  0  0
    1.2470    3.7709   -0.0000 C   0  0  0  0  0  0  0  0  0  0  0  0
   -0.0451    4.5221   -0.0000 C   0  0  0  0  0  0  0  0  0  0  0  0
   -0.0601    6.0244   -0.0000 S   0  0  0  0  0  0  0  0  0  0  0  0
    1.4122    6.0395   -0.0000 O   0  0  0  0  0  0  0  0  0  0  0  0
   -1.5624    6.0545   -0.0000 O   0  0  0  0  0  0  0  0  0  0  0  0
   -0.0751    7.9475   -0.0000 N   0  0  0  0  0  0  0  0  0  0  0  0
    1.1869    8.6986   -0.0000 C   0  0  0  0  0  0  0  0  0  0  0  0
   -1.3671    8.6986   -0.0000 C   0  0  0  0  0  0  0  0  0  0  0  0
    2.4639    7.9625   -0.0000 C   0  0  0  0  0  0  0  0  0  0  0  0
    1.1718   10.2010   -0.0000 C   0  0  0  0  0  0  0  0  0  0  0  0
   -1.3822   10.2010   -0.0000 C   0  0  0  0  0  0  0  0  0  0  0  0
   -2.6742    7.9625   -0.0000 C   0  0  0  0  0  0  0  0  0  0  0  0
    3.1850    6.7005   -0.0000 C   0  0  0  0  0  0  0  0  0  0  0  0
    1.6977    6.7005   -0.0000 C   0  0  0  0  0  0  0  0  0  0  0  0
    3.7409    8.7137   -0.0000 C   0  0  0  0  0  0  0  0  0  0  0  0
   -0.1202   10.9672   -0.0000 C   0  0  0  0  0  0  0  0  0  0  0  0
   -3.9812    8.7137   -0.0000 C   0  0  0  0  0  0  0  0  0  0  0  0
    5.0179    7.9775   -0.0000 C   0  0  0  0  0  0  0  0  0  0  0  0
    5.0028    6.5052   -0.0000 O   0  0  0  0  0  0  0  0  0  0  0  0
    6.2949    8.7287   -0.0000 N   0  0  0  0  0  0  0  0  0  0  0  0
    7.5568    7.9925   -0.0000 C   0  0  0  0  0  0  0  0  0  0  0  0
    6.2798   10.2310   -0.0000 C   0  0  0  0  0  0  0  0  0  0  0  0
    8.8338    8.7437   -0.0000 C   0  0  0  0  0  0  0  0  0  0  0  0
    7.5568   10.9822   -0.0000 C   0  0  0  0  0  0  0  0  0  0  0  0
    8.8338   10.2611   -0.0000 C   0  0  0  0  0  0  0  0  0  0  0  0
   10.2611    9.9005   -0.0000 N   0  0  0  0  0  0  0  0  0  0  0  0
    9.1944   11.7184   -0.0000 C   0  0  0  0  0  0  0  0  0  0  0  0
   10.6217   11.3578   -0.0000 C   0  0  0  0  0  0  0  0  0  0  0  0
  1  2  1  0  0  0  0
  2  3  2  0  0  0  0
  2  4  1  0  0  0  0
  3  5  1  0  0  0  0
  4  6  2  0  0  0  0
  5  7  2  0  0  0  0
  7  8  1  0  0  0  0
  8  9  2  0  0  0  0
  8 10  2  0  0  0  0
  8 11  1  0  0  0  0
 11 12  1  0  0  0  0
 11 13  1  0  0  0  0
 12 14  1  6  0  0  0
 12 15  1  0  0  0  0
 13 16  1  0  0  0  0
 13 17  1  6  0  0  0
 14 18  1  0  0  0  0
 14 19  1  0  0  0  0
 14 20  1  0  0  0  0
 15 21  1  0  0  0  0
 17 22  1  0  0  0  0
 20 23  1  0  0  0  0
 23 24  2  0  0  0  0
 23 25  1  0  0  0  0
 25 26  1  0  0  0  0
 25 27  1  0  0  0  0
 26 28  1  0  0  0  0
 27 29  1  0  0  0  0
 28 30  1  0  0  0  0
 30 31  1  0  0  0  0
 30 32  1  0  0  0  0
 31 33  1  0  0  0  0
  6  7  1  0  0  0  0
 16 21  1  0  0  0  0
 18 19  1  0  0  0  0
 29 30  1  0  0  0  0
 32 33  1  0  0  0  0
M  END
>  <MolRegNo>
423190

>  <m>
=

>  <Value>
5600

>  <Unit>
nM

>  <Type>
IC50

>  <pValue>
5.25

>  <Ligand Efficiency>
0

>  <Binding Efficiency>
0

>  <Surface Efficiency>
0

>  <Assay Index>
310284

>  <Assay Category>


>  <Assay Organism>


>  <Target ID>
17045

>  <Target Name>
Cytochrome P450 3A4

>  <Target Organism>
Homo sapiens

>  <Target Description>
Target is a single protein chain

>  <Sequence Accession>
P08684

>  <Reference>
Bioorg Med Chem Lett 18 (1), 215-219 (2008)

>  <Pubmed ID>
17988864

>  <DOI>
10.1016/j.bmcl.2007.10.092

$$$$
423186
Actelion Java MolfileCreator 1.0

 34 38  0  0  1  0  0  0  0  0999 V2000
    0.0000   -0.0000   -0.0000 Cl  0  0  0  0  0  0  0  0  0  0  0  0
   -0.0150    1.5043   -0.0000 C   0  0  0  0  0  0  0  0  0  0  0  0
   -1.3238    2.2715   -0.0000 C   0  0  0  0  0  0  0  0  0  0  0  0
    1.2636    2.2715   -0.0000 C   0  0  0  0  0  0  0  0  0  0  0  0
   -1.3238    3.7758   -0.0000 C   0  0  0  0  0  0  0  0  0  0  0  0
    1.2486    3.7758   -0.0000 C   0  0  0  0  0  0  0  0  0  0  0  0
   -0.0451    4.5279   -0.0000 C   0  0  0  0  0  0  0  0  0  0  0  0
   -0.0451    6.0322   -0.0000 S   0  0  0  0  0  0  0  0  0  0  0  0
    1.4291    6.0473   -0.0000 O   0  0  0  0  0  0  0  0  0  0  0  0
   -1.5494    6.0473   -0.0000 O   0  0  0  0  0  0  0  0  0  0  0  0
   -0.0602    7.9577   -0.0000 N   0  0  0  0  0  0  0  0  0  0  0  0
    1.2034    8.7099   -0.0000 C   0  0  0  0  0  0  0  0  0  0  0  0
   -1.3539    8.7099   -0.0000 C   0  0  0  0  0  0  0  0  0  0  0  0
    2.4821    7.9728   -0.0000 C   0  0  0  0  0  0  0  0  0  0  0  0
    1.1884   10.2142   -0.0000 C   0  0  0  0  0  0  0  0  0  0  0  0
   -1.3689   10.2142   -0.0000 C   0  0  0  0  0  0  0  0  0  0  0  0
   -2.6626    7.9728   -0.0000 C   0  0  0  0  0  0  0  0  0  0  0  0
    3.2042    6.7092   -0.0000 C   0  0  0  0  0  0  0  0  0  0  0  0
    1.7149    6.7092   -0.0000 C   0  0  0  0  0  0  0  0  0  0  0  0
    3.7607    8.7249   -0.0000 C   0  0  0  0  0  0  0  0  0  0  0  0
   -0.1053   10.9814   -0.0000 C   0  0  0  0  0  0  0  0  0  0  0  0
   -3.9713    8.7249   -0.0000 C   0  0  0  0  0  0  0  0  0  0  0  0
    5.0394    7.9878   -0.0000 C   0  0  0  0  0  0  0  0  0  0  0  0
    5.0243    6.5136   -0.0000 O   0  0  0  0  0  0  0  0  0  0  0  0
    6.3180    8.7400   -0.0000 N   0  0  0  0  0  0  0  0  0  0  0  0
    6.2880   10.2443   -0.0000 C   0  0  0  0  0  0  0  0  0  0  0  0
    7.5817    8.0029   -0.0000 C   0  0  0  0  0  0  0  0  0  0  0  0
    7.5666   10.9964   -0.0000 C   0  0  0  0  0  0  0  0  0  0  0  0
    8.8603    8.7550   -0.0000 C   0  0  0  0  0  0  0  0  0  0  0  0
    8.8302   10.2593   -0.0000 N   0  0  0  0  0  0  0  0  0  0  0  0
    7.5516   12.4857   -0.0000 C   0  0  0  0  0  0  0  0  0  0  0  0
   10.0938   11.0114   -0.0000 C   0  0  0  0  0  0  0  0  0  0  0  0
    8.8302   13.2378   -0.0000 C   0  0  0  0  0  0  0  0  0  0  0  0
   10.0938   12.5157   -0.0000 C   0  0  0  0  0  0  0  0  0  0  0  0
  1  2  1  0  0  0  0
  2  3  2  0  0  0  0
  2  4  1  0  0  0  0
  3  5  1  0  0  0  0
  4  6  2  0  0  0  0
  5  7  2  0  0  0  0
  7  8  1  0  0  0  0
  8  9  2  0  0  0  0
  8 10  2  0  0  0  0
  8 11  1  0  0  0  0
 11 12  1  0  0  0  0
 11 13  1  0  0  0  0
 12 14  1  6  0  0  0
 12 15  1  0  0  0  0
 13 16  1  0  0  0  0
 13 17  1  6  0  0  0
 14 18  1  0  0  0  0
 14 19  1  0  0  0  0
 14 20  1  0  0  0  0
 15 21  1  0  0  0  0
 17 22  1  0  0  0  0
 20 23  1  0  0  0  0
 23 24  2  0  0  0  0
 23 25  1  0  0  0  0
 25 26  1  0  0  0  0
 25 27  1  0  0  0  0
 26 28  1  0  0  0  0
 27 29  1  0  0  0  0
 28 30  1  6  0  0  0
 28 31  1  0  0  0  0
 30 32  1  0  0  0  0
 31 33  1  0  0  0  0
 32 34  1  0  0  0  0
  6  7  1  0  0  0  0
 16 21  1  0  0  0  0
 18 19  1  0  0  0  0
 29 30  1  0  0  0  0
 33 34  1  0  0  0  0
M  END
>  <MolRegNo>
423186

>  <m>
=

>  <Value>
4200

>  <Unit>
nM

>  <Type>
IC50

>  <pValue>
5.38

>  <Ligand Efficiency>
0

>  <Binding Efficiency>
0

>  <Surface Efficiency>
0

>  <Assay Index>
310284

>  <Assay Category>


>  <Assay Organism>


>  <Target ID>
17045

>  <Target Name>
Cytochrome P450 3A4

>  <Target Organism>
Homo sapiens

>  <Target Description>
Target is a single protein chain

>  <Sequence Accession>
P08684

>  <Reference>
Bioorg Med Chem Lett 18 (1), 215-219 (2008)

>  <Pubmed ID>
17988864

>  <DOI>
10.1016/j.bmcl.2007.10.092

$$$$
423183
Actelion Java MolfileCreator 1.0

 34 37  0  0  1  0  0  0  0  0999 V2000
    0.0000   -0.0000   -0.0000 Cl  0  0  0  0  0  0  0  0  0  0  0  0
   -0.0150    1.5030   -0.0000 C   0  0  0  0  0  0  0  0  0  0  0  0
   -1.3226    2.2695   -0.0000 C   0  0  0  0  0  0  0  0  0  0  0  0
    1.2625    2.2695   -0.0000 C   0  0  0  0  0  0  0  0  0  0  0  0
   -1.3226    3.7724   -0.0000 C   0  0  0  0  0  0  0  0  0  0  0  0
    1.2475    3.7724   -0.0000 C   0  0  0  0  0  0  0  0  0  0  0  0
   -0.0451    4.5239   -0.0000 C   0  0  0  0  0  0  0  0  0  0  0  0
   -0.0451    6.0268   -0.0000 S   0  0  0  0  0  0  0  0  0  0  0  0
    1.4278    6.0419   -0.0000 O   0  0  0  0  0  0  0  0  0  0  0  0
   -1.5480    6.0569   -0.0000 O   0  0  0  0  0  0  0  0  0  0  0  0
   -0.0601    7.9506   -0.0000 N   0  0  0  0  0  0  0  0  0  0  0  0
    1.2024    8.7021   -0.0000 C   0  0  0  0  0  0  0  0  0  0  0  0
   -1.3527    8.7021   -0.0000 C   0  0  0  0  0  0  0  0  0  0  0  0
    2.4799    7.9657   -0.0000 C   0  0  0  0  0  0  0  0  0  0  0  0
    1.1873   10.2051   -0.0000 C   0  0  0  0  0  0  0  0  0  0  0  0
   -1.3677   10.2051   -0.0000 C   0  0  0  0  0  0  0  0  0  0  0  0
   -2.6602    7.9657   -0.0000 C   0  0  0  0  0  0  0  0  0  0  0  0
    3.2013    6.6881   -0.0000 C   0  0  0  0  0  0  0  0  0  0  0  0
    1.7134    6.7032   -0.0000 C   0  0  0  0  0  0  0  0  0  0  0  0
    3.7574    8.7171   -0.0000 C   0  0  0  0  0  0  0  0  0  0  0  0
   -0.1052   10.9716   -0.0000 C   0  0  0  0  0  0  0  0  0  0  0  0
   -3.9678    8.7171   -0.0000 C   0  0  0  0  0  0  0  0  0  0  0  0
    5.0349    7.9807   -0.0000 C   0  0  0  0  0  0  0  0  0  0  0  0
    5.0199    6.5078   -0.0000 O   0  0  0  0  0  0  0  0  0  0  0  0
    6.3124    8.7322   -0.0000 N   0  0  0  0  0  0  0  0  0  0  0  0
    7.5749    7.9957   -0.0000 C   0  0  0  0  0  0  0  0  0  0  0  0
    6.2974   10.2351   -0.0000 C   0  0  0  0  0  0  0  0  0  0  0  0
    8.8524    8.7472   -0.0000 C   0  0  0  0  0  0  0  0  0  0  0  0
    7.5749   10.9866   -0.0000 C   0  0  0  0  0  0  0  0  0  0  0  0
    8.8524   10.2501   -0.0000 C   0  0  0  0  0  0  0  0  0  0  0  0
    8.8374   11.7531   -0.0000 O   0  0  0  0  0  0  0  0  0  0  0  0
   10.1299    9.5137   -0.0000 C   0  0  0  0  0  0  0  0  0  0  0  0
   11.3924   10.2652   -0.0000 C   0  0  0  0  0  0  0  0  0  0  0  0
   12.6699    9.5287   -0.0000 C   0  0  0  0  0  0  0  0  0  0  0  0
  1  2  1  0  0  0  0
  2  3  2  0  0  0  0
  2  4  1  0  0  0  0
  3  5  1  0  0  0  0
  4  6  2  0  0  0  0
  5  7  2  0  0  0  0
  7  8  1  0  0  0  0
  8  9  2  0  0  0  0
  8 10  2  0  0  0  0
  8 11  1  0  0  0  0
 11 12  1  0  0  0  0
 11 13  1  0  0  0  0
 12 14  1  6  0  0  0
 12 15  1  0  0  0  0
 13 16  1  0  0  0  0
 13 17  1  6  0  0  0
 14 18  1  0  0  0  0
 14 19  1  0  0  0  0
 14 20  1  0  0  0  0
 15 21  1  0  0  0  0
 17 22  1  0  0  0  0
 20 23  1  0  0  0  0
 23 24  2  0  0  0  0
 23 25  1  0  0  0  0
 25 26  1  0  0  0  0
 25 27  1  0  0  0  0
 26 28  1  0  0  0  0
 27 29  1  0  0  0  0
 28 30  1  0  0  0  0
 30 31  1  0  0  0  0
 30 32  1  0  0  0  0
 32 33  1  0  0  0  0
 33 34  1  0  0  0  0
  6  7  1  0  0  0  0
 16 21  1  0  0  0  0
 18 19  1  0  0  0  0
 29 30  1  0  0  0  0
M  END
>  <MolRegNo>
423183

>  <m>
=

>  <Value>
5000

>  <Unit>
nM

>  <Type>
IC50

>  <pValue>
5.3

>  <Ligand Efficiency>
0

>  <Binding Efficiency>
0

>  <Surface Efficiency>
0

>  <Assay Index>
310284

>  <Assay Category>


>  <Assay Organism>


>  <Target ID>
17045

>  <Target Name>
Cytochrome P450 3A4

>  <Target Organism>
Homo sapiens

>  <Target Description>
Target is a single protein chain

>  <Sequence Accession>
P08684

>  <Reference>
Bioorg Med Chem Lett 18 (1), 215-219 (2008)

>  <Pubmed ID>
17988864

>  <DOI>
10.1016/j.bmcl.2007.10.092

$$$$
423180
Actelion Java MolfileCreator 1.0

 31 34  0  0  1  0  0  0  0  0999 V2000
    0.0000   -0.0000   -0.0000 Cl  0  0  0  0  0  0  0  0  0  0  0  0
   -0.0150    1.5028   -0.0000 C   0  0  0  0  0  0  0  0  0  0  0  0
   -1.3225    2.2692   -0.0000 C   0  0  0  0  0  0  0  0  0  0  0  0
    1.2623    2.2692   -0.0000 C   0  0  0  0  0  0  0  0  0  0  0  0
   -1.3225    3.7720   -0.0000 C   0  0  0  0  0  0  0  0  0  0  0  0
    1.2473    3.7720   -0.0000 C   0  0  0  0  0  0  0  0  0  0  0  0
   -0.0451    4.5234   -0.0000 C   0  0  0  0  0  0  0  0  0  0  0  0
   -0.0601    6.0262   -0.0000 S   0  0  0  0  0  0  0  0  0  0  0  0
    1.4126    6.0412   -0.0000 O   0  0  0  0  0  0  0  0  0  0  0  0
   -1.5629    6.0563   -0.0000 O   0  0  0  0  0  0  0  0  0  0  0  0
   -0.0751    7.9498   -0.0000 N   0  0  0  0  0  0  0  0  0  0  0  0
    1.1872    8.7012   -0.0000 C   0  0  0  0  0  0  0  0  0  0  0  0
   -1.3675    8.7012   -0.0000 C   0  0  0  0  0  0  0  0  0  0  0  0
    2.4646    7.9798   -0.0000 C   0  0  0  0  0  0  0  0  0  0  0  0
    1.1722   10.2040   -0.0000 C   0  0  0  0  0  0  0  0  0  0  0  0
   -1.3826   10.2040   -0.0000 C   0  0  0  0  0  0  0  0  0  0  0  0
   -2.6750    7.9648   -0.0000 C   0  0  0  0  0  0  0  0  0  0  0  0
    3.1859    6.7175   -0.0000 C   0  0  0  0  0  0  0  0  0  0  0  0
    1.6982    6.7175   -0.0000 C   0  0  0  0  0  0  0  0  0  0  0  0
    3.7420    8.7312   -0.0000 C   0  0  0  0  0  0  0  0  0  0  0  0
   -0.1202   10.9704   -0.0000 C   0  0  0  0  0  0  0  0  0  0  0  0
   -3.9824    8.7162   -0.0000 C   0  0  0  0  0  0  0  0  0  0  0  0
    5.0193    7.9949   -0.0000 C   0  0  0  0  0  0  0  0  0  0  0  0
    5.0043    6.5221   -0.0000 O   0  0  0  0  0  0  0  0  0  0  0  0
    6.2967    8.7462   -0.0000 N   0  0  0  0  0  0  0  0  0  0  0  0
    7.6342    8.1602   -0.0000 C   0  0  0  0  0  0  0  0  0  0  0  0
    6.4319   10.2490   -0.0000 C   0  0  0  0  0  0  0  0  0  0  0  0
    8.6110    9.2722   -0.0000 C   0  0  0  0  0  0  0  0  0  0  0  0
    7.9197    6.7175   -0.0000 C   0  0  0  0  0  0  0  0  0  0  0  0
    7.8746   10.5646   -0.0000 C   0  0  0  0  0  0  0  0  0  0  0  0
    9.3173    6.2666   -0.0000 O   0  0  0  0  0  0  0  0  0  0  0  0
  1  2  1  0  0  0  0
  2  3  2  0  0  0  0
  2  4  1  0  0  0  0
  3  5  1  0  0  0  0
  4  6  2  0  0  0  0
  5  7  2  0  0  0  0
  7  8  1  0  0  0  0
  8  9  2  0  0  0  0
  8 10  2  0  0  0  0
  8 11  1  0  0  0  0
 11 12  1  0  0  0  0
 11 13  1  0  0  0  0
 12 14  1  6  0  0  0
 12 15  1  0  0  0  0
 13 16  1  0  0  0  0
 13 17  1  6  0  0  0
 14 18  1  0  0  0  0
 14 19  1  0  0  0  0
 14 20  1  0  0  0  0
 15 21  1  0  0  0  0
 17 22  1  0  0  0  0
 20 23  1  0  0  0  0
 23 24  2  0  0  0  0
 23 25  1  0  0  0  0
 25 26  1  0  0  0  0
 25 27  1  0  0  0  0
 26 28  1  0  0  0  0
 26 29  1  1  0  0  0
 27 30  1  0  0  0  0
 29 31  1  0  0  0  0
  6  7  1  0  0  0  0
 16 21  1  0  0  0  0
 18 19  1  0  0  0  0
 28 30  1  0  0  0  0
M  END
>  <MolRegNo>
423180

>  <m>
=

>  <Value>
9000

>  <Unit>
nM

>  <Type>
IC50

>  <pValue>
5.05

>  <Ligand Efficiency>
0

>  <Binding Efficiency>
0

>  <Surface Efficiency>
0

>  <Assay Index>
310284

>  <Assay Category>


>  <Assay Organism>


>  <Target ID>
17045

>  <Target Name>
Cytochrome P450 3A4

>  <Target Organism>
Homo sapiens

>  <Target Description>
Target is a single protein chain

>  <Sequence Accession>
P08684

>  <Reference>
Bioorg Med Chem Lett 18 (1), 215-219 (2008)

>  <Pubmed ID>
17988864

>  <DOI>
10.1016/j.bmcl.2007.10.092

$$$$
423179
Actelion Java MolfileCreator 1.0

 35 38  0  0  1  0  0  0  0  0999 V2000
    0.0000   -0.0000   -0.0000 Cl  0  0  0  0  0  0  0  0  0  0  0  0
   -0.0150    1.5037   -0.0000 C   0  0  0  0  0  0  0  0  0  0  0  0
   -1.3232    2.2705   -0.0000 C   0  0  0  0  0  0  0  0  0  0  0  0
    1.2631    2.2705   -0.0000 C   0  0  0  0  0  0  0  0  0  0  0  0
   -1.3232    3.7742   -0.0000 C   0  0  0  0  0  0  0  0  0  0  0  0
    1.2480    3.7742   -0.0000 C   0  0  0  0  0  0  0  0  0  0  0  0
   -0.0451    4.5261   -0.0000 C   0  0  0  0  0  0  0  0  0  0  0  0
   -0.0451    6.0297   -0.0000 S   0  0  0  0  0  0  0  0  0  0  0  0
    1.4285    6.0448   -0.0000 O   0  0  0  0  0  0  0  0  0  0  0  0
   -1.5488    6.0598   -0.0000 O   0  0  0  0  0  0  0  0  0  0  0  0
   -0.0601    7.9544   -0.0000 N   0  0  0  0  0  0  0  0  0  0  0  0
    1.2029    8.7063   -0.0000 C   0  0  0  0  0  0  0  0  0  0  0  0
   -1.3533    8.7063   -0.0000 C   0  0  0  0  0  0  0  0  0  0  0  0
    2.4811    7.9845   -0.0000 C   0  0  0  0  0  0  0  0  0  0  0  0
    1.1879   10.2099   -0.0000 C   0  0  0  0  0  0  0  0  0  0  0  0
   -1.3683   10.2099   -0.0000 C   0  0  0  0  0  0  0  0  0  0  0  0
   -2.6615    7.9695   -0.0000 C   0  0  0  0  0  0  0  0  0  0  0  0
    3.2028    6.7214   -0.0000 C   0  0  0  0  0  0  0  0  0  0  0  0
    1.7142    6.7214   -0.0000 C   0  0  0  0  0  0  0  0  0  0  0  0
    3.7592    8.7363   -0.0000 C   0  0  0  0  0  0  0  0  0  0  0  0
   -0.1053   10.9768   -0.0000 C   0  0  0  0  0  0  0  0  0  0  0  0
   -3.9697    8.7213   -0.0000 C   0  0  0  0  0  0  0  0  0  0  0  0
    5.0373    7.9995   -0.0000 C   0  0  0  0  0  0  0  0  0  0  0  0
    5.0223    6.5259   -0.0000 O   0  0  0  0  0  0  0  0  0  0  0  0
    6.3154    8.7514   -0.0000 N   0  0  0  0  0  0  0  0  0  0  0  0
    7.5785    8.0146   -0.0000 C   0  0  0  0  0  0  0  0  0  0  0  0
    6.3004   10.2550   -0.0000 C   0  0  0  0  0  0  0  0  0  0  0  0
    8.8566    8.7664   -0.0000 C   0  0  0  0  0  0  0  0  0  0  0  0
    7.5785   11.0069   -0.0000 C   0  0  0  0  0  0  0  0  0  0  0  0
    8.8566   10.2701   -0.0000 N   0  0  0  0  0  0  0  0  0  0  0  0
   10.1347   11.0219   -0.0000 C   0  0  0  0  0  0  0  0  0  0  0  0
   10.8715    9.7438   -0.0000 C   0  0  0  0  0  0  0  0  0  0  0  0
   11.3978   11.7888   -0.0000 C   0  0  0  0  0  0  0  0  0  0  0  0
    9.3829   12.3301   -0.0000 C   0  0  0  0  0  0  0  0  0  0  0  0
   12.3451    9.7588   -0.0000 O   0  0  0  0  0  0  0  0  0  0  0  0
  1  2  1  0  0  0  0
  2  3  2  0  0  0  0
  2  4  1  0  0  0  0
  3  5  1  0  0  0  0
  4  6  2  0  0  0  0
  5  7  2  0  0  0  0
  7  8  1  0  0  0  0
  8  9  2  0  0  0  0
  8 10  2  0  0  0  0
  8 11  1  0  0  0  0
 11 12  1  0  0  0  0
 11 13  1  0  0  0  0
 12 14  1  6  0  0  0
 12 15  1  0  0  0  0
 13 16  1  0  0  0  0
 13 17  1  6  0  0  0
 14 18  1  0  0  0  0
 14 19  1  0  0  0  0
 14 20  1  0  0  0  0
 15 21  1  0  0  0  0
 17 22  1  0  0  0  0
 20 23  1  0  0  0  0
 23 24  2  0  0  0  0
 23 25  1  0  0  0  0
 25 26  1  0  0  0  0
 25 27  1  0  0  0  0
 26 28  1  0  0  0  0
 27 29  1  0  0  0  0
 28 30  1  0  0  0  0
 30 31  1  0  0  0  0
 31 32  1  0  0  0  0
 31 33  1  0  0  0  0
 31 34  1  0  0  0  0
 32 35  1  0  0  0  0
  6  7  1  0  0  0  0
 16 21  1  0  0  0  0
 18 19  1  0  0  0  0
 29 30  1  0  0  0  0
M  END
>  <MolRegNo>
423179

>  <m>
=

>  <Value>
4700

>  <Unit>
nM

>  <Type>
IC50

>  <pValue>
5.33

>  <Ligand Efficiency>
0

>  <Binding Efficiency>
0

>  <Surface Efficiency>
0

>  <Assay Index>
310284

>  <Assay Category>


>  <Assay Organism>


>  <Target ID>
17045

>  <Target Name>
Cytochrome P450 3A4

>  <Target Organism>
Homo sapiens

>  <Target Description>
Target is a single protein chain

>  <Sequence Accession>
P08684

>  <Reference>
Bioorg Med Chem Lett 18 (1), 215-219 (2008)

>  <Pubmed ID>
17988864

>  <DOI>
10.1016/j.bmcl.2007.10.092

$$$$
423172
Actelion Java MolfileCreator 1.0

 36 40  0  0  1  0  0  0  0  0999 V2000
    0.0000   -0.0000   -0.0000 Cl  0  0  0  0  0  0  0  0  0  0  0  0
   -0.0150    1.5038   -0.0000 C   0  0  0  0  0  0  0  0  0  0  0  0
   -1.3233    2.2707   -0.0000 C   0  0  0  0  0  0  0  0  0  0  0  0
    1.2632    2.2707   -0.0000 C   0  0  0  0  0  0  0  0  0  0  0  0
   -1.3233    3.7745   -0.0000 C   0  0  0  0  0  0  0  0  0  0  0  0
    1.2481    3.7745   -0.0000 C   0  0  0  0  0  0  0  0  0  0  0  0
   -0.0451    4.5264   -0.0000 C   0  0  0  0  0  0  0  0  0  0  0  0
   -0.0602    6.0302   -0.0000 S   0  0  0  0  0  0  0  0  0  0  0  0
    1.4136    6.0452   -0.0000 O   0  0  0  0  0  0  0  0  0  0  0  0
   -1.5639    6.0452   -0.0000 O   0  0  0  0  0  0  0  0  0  0  0  0
   -0.0752    7.9550   -0.0000 N   0  0  0  0  0  0  0  0  0  0  0  0
    1.1880    8.7069   -0.0000 C   0  0  0  0  0  0  0  0  0  0  0  0
   -1.3684    8.7069   -0.0000 C   0  0  0  0  0  0  0  0  0  0  0  0
    2.4662    7.9700   -0.0000 C   0  0  0  0  0  0  0  0  0  0  0  0
    1.1729   10.2107   -0.0000 C   0  0  0  0  0  0  0  0  0  0  0  0
   -1.3835   10.2107   -0.0000 C   0  0  0  0  0  0  0  0  0  0  0  0
   -2.6767    7.9700   -0.0000 C   0  0  0  0  0  0  0  0  0  0  0  0
    3.1880    6.6918   -0.0000 C   0  0  0  0  0  0  0  0  0  0  0  0
    1.6993    6.7069   -0.0000 C   0  0  0  0  0  0  0  0  0  0  0  0
    3.7444    8.7219   -0.0000 C   0  0  0  0  0  0  0  0  0  0  0  0
   -0.1203   10.9776   -0.0000 C   0  0  0  0  0  0  0  0  0  0  0  0
   -3.9850    8.7219   -0.0000 C   0  0  0  0  0  0  0  0  0  0  0  0
    5.0226    7.9851   -0.0000 C   0  0  0  0  0  0  0  0  0  0  0  0
    5.0076    6.5114   -0.0000 O   0  0  0  0  0  0  0  0  0  0  0  0
    6.3008    8.7370   -0.0000 N   0  0  0  0  0  0  0  0  0  0  0  0
    7.5640    8.0001   -0.0000 C   0  0  0  0  0  0  0  0  0  0  0  0
    6.2858   10.2407   -0.0000 C   0  0  0  0  0  0  0  0  0  0  0  0
    8.8422    8.7520   -0.0000 C   0  0  0  0  0  0  0  0  0  0  0  0
    7.5640   10.9926   -0.0000 C   0  0  0  0  0  0  0  0  0  0  0  0
    8.8422   10.2558   -0.0000 C   0  0  0  0  0  0  0  0  0  0  0  0
   10.1204   11.0077   -0.0000 N   0  0  0  0  0  0  0  0  0  0  0  0
   11.3836   10.2708   -0.0000 C   0  0  0  0  0  0  0  0  0  0  0  0
   10.1054   12.5114   -0.0000 C   0  0  0  0  0  0  0  0  0  0  0  0
   12.6618   11.0227   -0.0000 C   0  0  0  0  0  0  0  0  0  0  0  0
   11.3836   13.2633   -0.0000 C   0  0  0  0  0  0  0  0  0  0  0  0
   12.6618   12.5265   -0.0000 C   0  0  0  0  0  0  0  0  0  0  0  0
  1  2  1  0  0  0  0
  2  3  2  0  0  0  0
  2  4  1  0  0  0  0
  3  5  1  0  0  0  0
  4  6  2  0  0  0  0
  5  7  2  0  0  0  0
  7  8  1  0  0  0  0
  8  9  2  0  0  0  0
  8 10  2  0  0  0  0
  8 11  1  0  0  0  0
 11 12  1  0  0  0  0
 11 13  1  0  0  0  0
 12 14  1  6  0  0  0
 12 15  1  0  0  0  0
 13 16  1  0  0  0  0
 13 17  1  6  0  0  0
 14 18  1  0  0  0  0
 14 19  1  0  0  0  0
 14 20  1  0  0  0  0
 15 21  1  0  0  0  0
 17 22  1  0  0  0  0
 20 23  1  0  0  0  0
 23 24  2  0  0  0  0
 23 25  1  0  0  0  0
 25 26  1  0  0  0  0
 25 27  1  0  0  0  0
 26 28  1  0  0  0  0
 27 29  1  0  0  0  0
 28 30  1  0  0  0  0
 30 31  1  0  0  0  0
 31 32  1  0  0  0  0
 31 33  1  0  0  0  0
 32 34  1  0  0  0  0
 33 35  1  0  0  0  0
 34 36  1  0  0  0  0
  6  7  1  0  0  0  0
 16 21  1  0  0  0  0
 18 19  1  0  0  0  0
 29 30  1  0  0  0  0
 35 36  1  0  0  0  0
M  END
>  <MolRegNo>
423172

>  <m>
=

>  <Value>
1200

>  <Unit>
nM

>  <Type>
IC50

>  <pValue>
5.92

>  <Ligand Efficiency>
0

>  <Binding Efficiency>
0

>  <Surface Efficiency>
0

>  <Assay Index>
310284

>  <Assay Category>


>  <Assay Organism>


>  <Target ID>
17045

>  <Target Name>
Cytochrome P450 3A4

>  <Target Organism>
Homo sapiens

>  <Target Description>
Target is a single protein chain

>  <Sequence Accession>
P08684

>  <Reference>
Bioorg Med Chem Lett 18 (1), 215-219 (2008)

>  <Pubmed ID>
17988864

>  <DOI>
10.1016/j.bmcl.2007.10.092

$$$$
423170
Actelion Java MolfileCreator 1.0

 30 33  0  0  1  0  0  0  0  0999 V2000
    0.0000   -0.0000   -0.0000 Cl  0  0  0  0  0  0  0  0  0  0  0  0
   -0.0150    1.5014   -0.0000 C   0  0  0  0  0  0  0  0  0  0  0  0
   -1.3212    2.2671   -0.0000 C   0  0  0  0  0  0  0  0  0  0  0  0
    1.2612    2.2671   -0.0000 C   0  0  0  0  0  0  0  0  0  0  0  0
   -1.3212    3.7685   -0.0000 C   0  0  0  0  0  0  0  0  0  0  0  0
    1.2461    3.7685   -0.0000 C   0  0  0  0  0  0  0  0  0  0  0  0
   -0.0450    4.5192   -0.0000 C   0  0  0  0  0  0  0  0  0  0  0  0
   -0.0450    6.0205   -0.0000 S   0  0  0  0  0  0  0  0  0  0  0  0
    1.4263    6.0355   -0.0000 O   0  0  0  0  0  0  0  0  0  0  0  0
   -1.5464    6.0355   -0.0000 O   0  0  0  0  0  0  0  0  0  0  0  0
   -0.0601    7.9423   -0.0000 N   0  0  0  0  0  0  0  0  0  0  0  0
    1.2011    8.6930   -0.0000 C   0  0  0  0  0  0  0  0  0  0  0  0
   -1.3512    8.6930   -0.0000 C   0  0  0  0  0  0  0  0  0  0  0  0
    2.4773    7.9573   -0.0000 C   0  0  0  0  0  0  0  0  0  0  0  0
    1.1861   10.1944   -0.0000 C   0  0  0  0  0  0  0  0  0  0  0  0
   -1.3663   10.1944   -0.0000 C   0  0  0  0  0  0  0  0  0  0  0  0
   -2.6574    7.9573   -0.0000 C   0  0  0  0  0  0  0  0  0  0  0  0
    3.1979    6.6811   -0.0000 C   0  0  0  0  0  0  0  0  0  0  0  0
    1.7116    6.6962   -0.0000 C   0  0  0  0  0  0  0  0  0  0  0  0
    3.7534    8.7080   -0.0000 C   0  0  0  0  0  0  0  0  0  0  0  0
   -0.1051   10.9601   -0.0000 C   0  0  0  0  0  0  0  0  0  0  0  0
   -3.9636    8.7080   -0.0000 C   0  0  0  0  0  0  0  0  0  0  0  0
    5.0296    7.9723   -0.0000 C   0  0  0  0  0  0  0  0  0  0  0  0
    5.0146    6.5010   -0.0000 O   0  0  0  0  0  0  0  0  0  0  0  0
    6.3058    8.7230   -0.0000 N   0  0  0  0  0  0  0  0  0  0  0  0
    7.6420    8.1375   -0.0000 C   0  0  0  0  0  0  0  0  0  0  0  0
    6.4409   10.2244   -0.0000 C   0  0  0  0  0  0  0  0  0  0  0  0
    8.6179    9.2485   -0.0000 C   0  0  0  0  0  0  0  0  0  0  0  0
    7.8822   10.5397   -0.0000 C   0  0  0  0  0  0  0  0  0  0  0  0
   10.0743    9.0984   -0.0000 O   0  0  0  0  0  0  0  0  0  0  0  0
  1  2  1  0  0  0  0
  2  3  2  0  0  0  0
  2  4  1  0  0  0  0
  3  5  1  0  0  0  0
  4  6  2  0  0  0  0
  5  7  2  0  0  0  0
  7  8  1  0  0  0  0
  8  9  2  0  0  0  0
  8 10  2  0  0  0  0
  8 11  1  0  0  0  0
 11 12  1  0  0  0  0
 11 13  1  0  0  0  0
 12 14  1  6  0  0  0
 12 15  1  0  0  0  0
 13 16  1  0  0  0  0
 13 17  1  6  0  0  0
 14 18  1  0  0  0  0
 14 19  1  0  0  0  0
 14 20  1  0  0  0  0
 15 21  1  0  0  0  0
 17 22  1  0  0  0  0
 20 23  1  0  0  0  0
 23 24  2  0  0  0  0
 23 25  1  0  0  0  0
 25 26  1  0  0  0  0
 25 27  1  0  0  0  0
 26 28  1  0  0  0  0
 27 29  1  0  0  0  0
 28 30  1  1  0  0  0
  6  7  1  0  0  0  0
 16 21  1  0  0  0  0
 18 19  1  0  0  0  0
 28 29  1  0  0  0  0
M  END
>  <MolRegNo>
423170

>  <m>
=

>  <Value>
11900

>  <Unit>
nM

>  <Type>
IC50

>  <pValue>
4.92

>  <Ligand Efficiency>
0

>  <Binding Efficiency>
0

>  <Surface Efficiency>
0

>  <Assay Index>
310284

>  <Assay Category>


>  <Assay Organism>


>  <Target ID>
17045

>  <Target Name>
Cytochrome P450 3A4

>  <Target Organism>
Homo sapiens

>  <Target Description>
Target is a single protein chain

>  <Sequence Accession>
P08684

>  <Reference>
Bioorg Med Chem Lett 18 (1), 215-219 (2008)

>  <Pubmed ID>
17988864

>  <DOI>
10.1016/j.bmcl.2007.10.092

$$$$
423165
Actelion Java MolfileCreator 1.0

 30 33  0  0  1  0  0  0  0  0999 V2000
    0.0000   -0.0000   -0.0000 Cl  0  0  0  0  0  0  0  0  0  0  0  0
   -0.0150    1.5012   -0.0000 C   0  0  0  0  0  0  0  0  0  0  0  0
   -1.3211    2.2668   -0.0000 C   0  0  0  0  0  0  0  0  0  0  0  0
    1.2610    2.2668   -0.0000 C   0  0  0  0  0  0  0  0  0  0  0  0
   -1.3211    3.7680   -0.0000 C   0  0  0  0  0  0  0  0  0  0  0  0
    1.2460    3.7680   -0.0000 C   0  0  0  0  0  0  0  0  0  0  0  0
   -0.0450    4.5186   -0.0000 C   0  0  0  0  0  0  0  0  0  0  0  0
   -0.0450    6.0198   -0.0000 S   0  0  0  0  0  0  0  0  0  0  0  0
    1.4261    6.0348   -0.0000 O   0  0  0  0  0  0  0  0  0  0  0  0
   -1.5462    6.0498   -0.0000 O   0  0  0  0  0  0  0  0  0  0  0  0
   -0.0600    7.9413   -0.0000 N   0  0  0  0  0  0  0  0  0  0  0  0
    1.2010    8.6919   -0.0000 C   0  0  0  0  0  0  0  0  0  0  0  0
   -1.3511    8.6919   -0.0000 C   0  0  0  0  0  0  0  0  0  0  0  0
    2.4770    7.9713   -0.0000 C   0  0  0  0  0  0  0  0  0  0  0  0
    1.1859   10.1931   -0.0000 C   0  0  0  0  0  0  0  0  0  0  0  0
   -1.3661   10.1931   -0.0000 C   0  0  0  0  0  0  0  0  0  0  0  0
   -2.6571    7.9563   -0.0000 C   0  0  0  0  0  0  0  0  0  0  0  0
    3.1975    6.7103   -0.0000 C   0  0  0  0  0  0  0  0  0  0  0  0
    1.7114    6.7103   -0.0000 C   0  0  0  0  0  0  0  0  0  0  0  0
    3.7530    8.7219   -0.0000 C   0  0  0  0  0  0  0  0  0  0  0  0
   -0.1051   10.9587   -0.0000 C   0  0  0  0  0  0  0  0  0  0  0  0
   -3.9632    8.7069   -0.0000 C   0  0  0  0  0  0  0  0  0  0  0  0
    5.0290    7.9864   -0.0000 C   0  0  0  0  0  0  0  0  0  0  0  0
    5.0140    6.5152   -0.0000 O   0  0  0  0  0  0  0  0  0  0  0  0
    6.3050    8.7369   -0.0000 N   0  0  0  0  0  0  0  0  0  0  0  0
    7.5660    8.0014   -0.0000 C   0  0  0  0  0  0  0  0  0  0  0  0
    6.2900   10.2381   -0.0000 C   0  0  0  0  0  0  0  0  0  0  0  0
    8.8420    8.7520   -0.0000 C   0  0  0  0  0  0  0  0  0  0  0  0
    7.5660   10.9887   -0.0000 C   0  0  0  0  0  0  0  0  0  0  0  0
    8.8420   10.2532   -0.0000 C   0  0  0  0  0  0  0  0  0  0  0  0
  1  2  1  0  0  0  0
  2  3  2  0  0  0  0
  2  4  1  0  0  0  0
  3  5  1  0  0  0  0
  4  6  2  0  0  0  0
  5  7  2  0  0  0  0
  7  8  1  0  0  0  0
  8  9  2  0  0  0  0
  8 10  2  0  0  0  0
  8 11  1  0  0  0  0
 11 12  1  0  0  0  0
 11 13  1  0  0  0  0
 12 14  1  6  0  0  0
 12 15  1  0  0  0  0
 13 16  1  0  0  0  0
 13 17  1  6  0  0  0
 14 18  1  0  0  0  0
 14 19  1  0  0  0  0
 14 20  1  0  0  0  0
 15 21  1  0  0  0  0
 17 22  1  0  0  0  0
 20 23  1  0  0  0  0
 23 24  2  0  0  0  0
 23 25  1  0  0  0  0
 25 26  1  0  0  0  0
 25 27  1  0  0  0  0
 26 28  1  0  0  0  0
 27 29  1  0  0  0  0
 28 30  1  0  0  0  0
  6  7  1  0  0  0  0
 16 21  1  0  0  0  0
 18 19  1  0  0  0  0
 29 30  1  0  0  0  0
M  END
>  <MolRegNo>
423165

>  <m>
=

>  <Value>
2600

>  <Unit>
nM

>  <Type>
IC50

>  <pValue>
5.58

>  <Ligand Efficiency>
0

>  <Binding Efficiency>
0

>  <Surface Efficiency>
0

>  <Assay Index>
310284

>  <Assay Category>


>  <Assay Organism>


>  <Target ID>
17045

>  <Target Name>
Cytochrome P450 3A4

>  <Target Organism>
Homo sapiens

>  <Target Description>
Target is a single protein chain

>  <Sequence Accession>
P08684

>  <Reference>
Bioorg Med Chem Lett 18 (1), 215-219 (2008)

>  <Pubmed ID>
17988864

>  <DOI>
10.1016/j.bmcl.2007.10.092

$$$$
422504
Actelion Java MolfileCreator 1.0

 47 50  0  0  0  0  0  0  0  0999 V2000
    0.0000   -0.0000   -0.0000 S   0  0  0  0  0  0  0  0  0  0  0  0
    1.4943    0.0119   -0.0000 O   0  0  0  0  0  0  0  0  0  0  0  0
   -1.5180    0.0119   -0.0000 O   0  0  0  0  0  0  0  0  0  0  0  0
   -0.0119   -1.4943   -0.0000 N   0  0  0  0  0  0  0  0  0  0  0  0
   -0.0119    1.5180   -0.0000 C   0  0  0  0  0  0  0  0  0  0  0  0
    1.2808   -2.2296   -0.0000 C   0  0  0  0  0  0  0  0  0  0  0  0
   -1.3283   -2.2296   -0.0000 C   0  0  0  0  0  0  0  0  0  0  0  0
    2.5735   -1.4706   -0.0000 C   0  0  0  0  0  0  0  0  0  0  0  0
    1.2690   -3.7239   -0.0000 C   0  0  0  0  0  0  0  0  0  0  0  0
    3.8662   -2.2059   -0.0000 C   0  0  0  0  0  0  0  0  0  0  0  0
    2.5617   -4.4710   -0.0000 C   0  0  0  0  0  0  0  0  0  0  0  0
    5.1589   -1.4469   -0.0000 C   0  0  0  0  0  0  0  0  0  0  0  0
    3.8543   -3.7002   -0.0000 C   0  0  0  0  0  0  0  0  0  0  0  0
    2.5498   -5.9653   -0.0000 C   0  0  0  0  0  0  0  0  0  0  0  0
    5.1470    0.0712   -0.0000 O   0  0  0  0  0  0  0  0  0  0  0  0
    6.4516   -2.1822   -0.0000 N   0  0  0  0  0  0  0  0  0  0  0  0
    3.8425   -6.7125   -0.0000 O   0  0  0  0  0  0  0  0  0  0  0  0
    1.2334   -6.7125   -0.0000 N   0  0  0  0  0  0  0  0  0  0  0  0
    7.7443   -1.4231   -0.0000 C   0  0  0  0  0  0  0  0  0  0  0  0
    1.2215   -8.2068   -0.0000 C   0  0  0  0  0  0  0  0  0  0  0  0
    9.0370   -2.1584   -0.0000 C   0  0  0  0  0  0  0  0  0  0  0  0
    7.7324    0.0949   -0.0000 C   0  0  0  0  0  0  0  0  0  0  0  0
   -0.0949   -8.9421   -0.0000 C   0  0  0  0  0  0  0  0  0  0  0  0
    2.5142   -8.9421   -0.0000 C   0  0  0  0  0  0  0  0  0  0  0  0
    9.0251   -3.6527   -0.0000 O   0  0  0  0  0  0  0  0  0  0  0  0
   10.3296   -1.3994   -0.0000 C   0  0  0  0  0  0  0  0  0  0  0  0
    9.0251    0.8539   -0.0000 C   0  0  0  0  0  0  0  0  0  0  0  0
   -0.1067  -10.4364   -0.0000 C   0  0  0  0  0  0  0  0  0  0  0  0
   -1.4113   -8.1831   -0.0000 C   0  0  0  0  0  0  0  0  0  0  0  0
   11.6223   -2.1347   -0.0000 N   0  0  0  0  0  0  0  0  0  0  0  0
    9.0132    2.3719   -0.0000 C   0  0  0  0  0  0  0  0  0  0  0  0
   10.3178    0.1186   -0.0000 C   0  0  0  0  0  0  0  0  0  0  0  0
   -1.4231  -11.1717   -0.0000 C   0  0  0  0  0  0  0  0  0  0  0  0
   -2.7277   -8.9184   -0.0000 C   0  0  0  0  0  0  0  0  0  0  0  0
   12.9150   -1.3757   -0.0000 C   0  0  0  0  0  0  0  0  0  0  0  0
   10.3059    3.1309   -0.0000 C   0  0  0  0  0  0  0  0  0  0  0  0
   11.6105    0.8776   -0.0000 C   0  0  0  0  0  0  0  0  0  0  0  0
   -2.7395  -10.4127   -0.0000 C   0  0  0  0  0  0  0  0  0  0  0  0
   14.2077   -2.1110   -0.0000 C   0  0  0  0  0  0  0  0  0  0  0  0
   11.5986    2.3956   -0.0000 C   0  0  0  0  0  0  0  0  0  0  0  0
   15.5004   -1.3520   -0.0000 C   0  0  0  0  0  0  0  0  0  0  0  0
   14.1958   -3.6053   -0.0000 C   0  0  0  0  0  0  0  0  0  0  0  0
   16.7931   -2.0873   -0.0000 C   0  0  0  0  0  0  0  0  0  0  0  0
   15.4885   -4.3524   -0.0000 C   0  0  0  0  0  0  0  0  0  0  0  0
   18.0858   -1.3283   -0.0000 O   0  0  0  0  0  0  0  0  0  0  0  0
   16.7812   -3.5816   -0.0000 C   0  0  0  0  0  0  0  0  0  0  0  0
   18.0739    0.1898   -0.0000 C   0  0  0  0  0  0  0  0  0  0  0  0
  1  2  2  0  0  0  0
  1  3  2  0  0  0  0
  1  4  1  0  0  0  0
  1  5  1  0  0  0  0
  4  6  1  0  0  0  0
  4  7  1  0  0  0  0
  6  8  2  0  0  0  0
  6  9  1  0  0  0  0
  8 10  1  0  0  0  0
  9 11  2  0  0  0  0
 10 12  1  0  0  0  0
 10 13  2  0  0  0  0
 11 14  1  0  0  0  0
 12 15  2  0  0  0  0
 12 16  1  0  0  0  0
 14 17  2  0  0  0  0
 14 18  1  0  0  0  0
 19 16  1  6  0  0  0
 20 18  1  1  0  0  0
 19 21  1  0  0  0  0
 19 22  1  0  0  0  0
 20 23  1  0  0  0  0
 20 24  1  0  0  0  0
 21 25  1  6  0  0  0
 21 26  1  0  0  0  0
 22 27  1  0  0  0  0
 23 28  2  0  0  0  0
 23 29  1  0  0  0  0
 26 30  1  0  0  0  0
 27 31  2  0  0  0  0
 27 32  1  0  0  0  0
 28 33  1  0  0  0  0
 29 34  2  0  0  0  0
 30 35  1  0  0  0  0
 31 36  1  0  0  0  0
 32 37  2  0  0  0  0
 33 38  2  0  0  0  0
 35 39  1  0  0  0  0
 36 40  2  0  0  0  0
 39 41  2  0  0  0  0
 39 42  1  0  0  0  0
 41 43  1  0  0  0  0
 42 44  2  0  0  0  0
 43 45  1  0  0  0  0
 43 46  2  0  0  0  0
 45 47  1  0  0  0  0
 11 13  1  0  0  0  0
 34 38  1  0  0  0  0
 37 40  1  0  0  0  0
 44 46  1  0  0  0  0
M  END
>  <MolRegNo>
422504

>  <m>
=

>  <Value>
696

>  <Unit>
nM

>  <Type>
IC50

>  <pValue>
6.16

>  <Ligand Efficiency>
0

>  <Binding Efficiency>
0

>  <Surface Efficiency>
0

>  <Assay Index>
310962

>  <Assay Category>


>  <Assay Organism>


>  <Target ID>
17045

>  <Target Name>
Cytochrome P450 3A4

>  <Target Organism>
Homo sapiens

>  <Target Description>
Target is a single protein chain

>  <Sequence Accession>
P08684

>  <Reference>
Bioorg Med Chem Lett 18 (3), 1031-1036 (2008)

>  <Pubmed ID>
18180160

>  <DOI>
10.1016/j.bmcl.2007.12.028

$$$$
423726
Actelion Java MolfileCreator 1.0

 48 53  0  0  1  0  0  0  0  0999 V2000
    0.0000   -0.0000   -0.0000 F   0  0  0  0  0  0  0  0  0  0  0  0
   -0.7458    1.3022   -0.0000 C   0  0  0  0  0  0  0  0  0  0  0  0
    0.5327    2.0716   -0.0000 F   0  0  0  0  0  0  0  0  0  0  0  0
   -2.0480    0.5564   -0.0000 F   0  0  0  0  0  0  0  0  0  0  0  0
   -1.5153    2.6043   -0.0000 O   0  0  0  0  0  0  0  0  0  0  0  0
   -3.0187    2.6043   -0.0000 C   0  0  0  0  0  0  0  0  0  0  0  0
   -3.7881    3.8947   -0.0000 C   0  0  0  0  0  0  0  0  0  0  0  0
   -3.7645    1.3140   -0.0000 C   0  0  0  0  0  0  0  0  0  0  0  0
   -3.0542    5.2087   -0.0000 C   0  0  0  0  0  0  0  0  0  0  0  0
   -5.2915    3.9065   -0.0000 C   0  0  0  0  0  0  0  0  0  0  0  0
   -5.2797    1.3140   -0.0000 C   0  0  0  0  0  0  0  0  0  0  0  0
   -3.8236    6.5108   -0.0000 O   0  0  0  0  0  0  0  0  0  0  0  0
   -1.5744    5.2324   -0.0000 N   0  0  0  0  0  0  0  0  0  0  0  0
   -6.0492    2.6162   -0.0000 C   0  0  0  0  0  0  0  0  0  0  0  0
   -0.8405    6.5464   -0.0000 C   0  0  0  0  0  0  0  0  0  0  0  0
   -1.6100    7.8485   -0.0000 C   0  0  0  0  0  0  0  0  0  0  0  0
    0.6392    6.5700   -0.0000 C   0  0  0  0  0  0  0  0  0  0  0  0
   -0.8760    9.1625   -0.0000 O   0  0  0  0  0  0  0  0  0  0  0  0
   -3.1134    7.8485   -0.0000 N   0  0  0  0  0  0  0  0  0  0  0  0
    1.3850    5.2915   -0.0000 C   0  0  0  0  0  0  0  0  0  0  0  0
   -3.8828    9.1507   -0.0000 C   0  0  0  0  0  0  0  0  0  0  0  0
    2.8648    5.3152   -0.0000 C   0  0  0  0  0  0  0  0  0  0  0  0
    0.6274    4.0012   -0.0000 C   0  0  0  0  0  0  0  0  0  0  0  0
   -5.3862    9.1507   -0.0000 C   0  0  0  0  0  0  0  0  0  0  0  0
    3.6106    4.0367   -0.0000 C   0  0  0  0  0  0  0  0  0  0  0  0
    3.5869    6.6292   -0.0000 C   0  0  0  0  0  0  0  0  0  0  0  0
    1.3732    2.7227   -0.0000 C   0  0  0  0  0  0  0  0  0  0  0  0
   -6.2741    7.9432   -0.0000 N   0  0  0  0  0  0  0  0  0  0  0  0
   -6.2859   10.3818   -0.0000 N   0  0  0  0  0  0  0  0  0  0  0  0
    2.8529    2.7346   -0.0000 C   0  0  0  0  0  0  0  0  0  0  0  0
    4.3090    7.9432   -0.0000 F   0  0  0  0  0  0  0  0  0  0  0  0
    2.2729    7.3750   -0.0000 F   0  0  0  0  0  0  0  0  0  0  0  0
    4.8772    5.9071   -0.0000 F   0  0  0  0  0  0  0  0  0  0  0  0
   -7.7183    8.4167   -0.0000 C   0  0  0  0  0  0  0  0  0  0  0  0
   -7.7302    9.9202   -0.0000 C   0  0  0  0  0  0  0  0  0  0  0  0
   -5.8479   11.8261   -0.0000 C   0  0  0  0  0  0  0  0  0  0  0  0
   -9.0323    7.6828   -0.0000 C   0  0  0  0  0  0  0  0  0  0  0  0
   -9.0442   10.6778   -0.0000 N   0  0  0  0  0  0  0  0  0  0  0  0
   -4.3919   12.1575   -0.0000 C   0  0  0  0  0  0  0  0  0  0  0  0
   -7.1619   12.5837   -0.0000 C   0  0  0  0  0  0  0  0  0  0  0  0
   -5.8598   13.3413   -0.0000 C   0  0  0  0  0  0  0  0  0  0  0  0
  -10.3345    8.4404   -0.0000 C   0  0  0  0  0  0  0  0  0  0  0  0
  -10.3463    9.9438   -0.0000 C   0  0  0  0  0  0  0  0  0  0  0  0
   -3.3975   11.0566   -0.0000 C   0  0  0  0  0  0  0  0  0  0  0  0
   -3.9539   13.5899   -0.0000 C   0  0  0  0  0  0  0  0  0  0  0  0
   -1.9533   11.3881   -0.0000 C   0  0  0  0  0  0  0  0  0  0  0  0
   -2.5096   13.9214   -0.0000 C   0  0  0  0  0  0  0  0  0  0  0  0
   -1.5153   12.8323   -0.0000 C   0  0  0  0  0  0  0  0  0  0  0  0
  1  2  1  0  0  0  0
  2  3  1  0  0  0  0
  2  4  1  0  0  0  0
  2  5  1  0  0  0  0
  5  6  1  0  0  0  0
  6  7  2  0  0  0  0
  6  8  1  0  0  0  0
  7  9  1  0  0  0  0
  7 10  1  0  0  0  0
  8 11  2  0  0  0  0
  9 12  2  0  0  0  0
  9 13  1  0  0  0  0
 10 14  2  0  0  0  0
 15 13  1  1  0  0  0
 15 16  1  0  0  0  0
 15 17  1  0  0  0  0
 16 18  2  0  0  0  0
 16 19  1  0  0  0  0
 17 20  1  0  0  0  0
 19 21  1  0  0  0  0
 20 22  2  0  0  0  0
 20 23  1  0  0  0  0
 21 24  1  0  0  0  0
 22 25  1  0  0  0  0
 22 26  1  0  0  0  0
 23 27  2  0  0  0  0
 24 28  2  0  0  0  0
 24 29  1  0  0  0  0
 25 30  2  0  0  0  0
 26 31  1  0  0  0  0
 26 32  1  0  0  0  0
 26 33  1  0  0  0  0
 28 34  1  0  0  0  0
 29 35  1  0  0  0  0
 29 36  1  0  0  0  0
 34 37  1  0  0  0  0
 35 38  1  0  0  0  0
 36 39  1  0  0  0  0
 36 40  1  0  0  0  0
 36 41  1  0  0  0  0
 37 42  2  0  0  0  0
 38 43  2  0  0  0  0
 39 44  2  0  0  0  0
 39 45  1  0  0  0  0
 44 46  1  0  0  0  0
 45 47  2  0  0  0  0
 46 48  2  0  0  0  0
 11 14  1  0  0  0  0
 27 30  1  0  0  0  0
 34 35  2  0  0  0  0
 40 41  1  0  0  0  0
 42 43  1  0  0  0  0
 47 48  1  0  0  0  0
M  END
>  <MolRegNo>
423726

>  <m>
=

>  <Value>
1800

>  <Unit>
nM

>  <Type>
IC50

>  <pValue>
5.75

>  <Ligand Efficiency>
0

>  <Binding Efficiency>
0

>  <Surface Efficiency>
0

>  <Assay Index>
311290

>  <Assay Category>


>  <Assay Organism>


>  <Target ID>
17045

>  <Target Name>
Cytochrome P450 3A4

>  <Target Organism>
Homo sapiens

>  <Target Description>
Target is a single protein chain

>  <Sequence Accession>
P08684

>  <Reference>
Bioorg Med Chem Lett 18 (5), 1696-1701 (2008)

>  <Pubmed ID>
18243692

>  <DOI>
10.1016/j.bmcl.2008.01.047

$$$$
423685
Actelion Java MolfileCreator 1.0

 40 43  0  0  1  0  0  0  0  0999 V2000
    0.0000   -0.0000   -0.0000 F   0  0  0  0  0  0  0  0  0  0  0  0
   -0.7441   -1.2875   -0.0000 C   0  0  0  0  0  0  0  0  0  0  0  0
   -2.0553   -0.5433   -0.0000 F   0  0  0  0  0  0  0  0  0  0  0  0
    0.5433   -2.0080   -0.0000 F   0  0  0  0  0  0  0  0  0  0  0  0
   -1.4883   -2.5750   -0.0000 C   0  0  0  0  0  0  0  0  0  0  0  0
   -2.9884   -2.5750   -0.0000 C   0  0  0  0  0  0  0  0  0  0  0  0
   -0.7441   -3.8507   -0.0000 C   0  0  0  0  0  0  0  0  0  0  0  0
   -3.7444   -3.8625   -0.0000 C   0  0  0  0  0  0  0  0  0  0  0  0
   -3.7562   -1.2757   -0.0000 C   0  0  0  0  0  0  0  0  0  0  0  0
   -1.5001   -5.1500   -0.0000 C   0  0  0  0  0  0  0  0  0  0  0  0
   -3.0002   -5.1382   -0.0000 C   0  0  0  0  0  0  0  0  0  0  0  0
   -5.2681   -1.2757   -0.0000 C   0  0  0  0  0  0  0  0  0  0  0  0
   -6.0241   -2.5632   -0.0000 N   0  0  0  0  0  0  0  0  0  0  0  0
   -6.0359    0.0236   -0.0000 C   0  0  0  0  0  0  0  0  0  0  0  0
   -7.5360   -2.5632   -0.0000 C   0  0  0  0  0  0  0  0  0  0  0  0
   -5.3035    1.3347   -0.0000 O   0  0  0  0  0  0  0  0  0  0  0  0
   -7.5478    0.0236   -0.0000 N   0  0  0  0  0  0  0  0  0  0  0  0
   -8.3038   -1.2639   -0.0000 O   0  0  0  0  0  0  0  0  0  0  0  0
   -8.2919   -3.8507   -0.0000 O   0  0  0  0  0  0  0  0  0  0  0  0
   -8.3156    1.3229   -0.0000 C   0  0  0  0  0  0  0  0  0  0  0  0
   -9.7921   -3.8507   -0.0000 C   0  0  0  0  0  0  0  0  0  0  0  0
   -9.8275    1.3229   -0.0000 C   0  0  0  0  0  0  0  0  0  0  0  0
  -11.3040   -3.8271   -0.0000 C   0  0  0  0  0  0  0  0  0  0  0  0
   -9.8039   -5.3390   -0.0000 C   0  0  0  0  0  0  0  0  0  0  0  0
   -9.8039   -2.3388   -0.0000 C   0  0  0  0  0  0  0  0  0  0  0  0
  -10.7134    0.1063   -0.0000 N   0  0  0  0  0  0  0  0  0  0  0  0
  -10.7370    2.5514   -0.0000 N   0  0  0  0  0  0  0  0  0  0  0  0
  -12.1544    0.5788   -0.0000 C   0  0  0  0  0  0  0  0  0  0  0  0
  -12.1781    2.0907   -0.0000 C   0  0  0  0  0  0  0  0  0  0  0  0
  -10.3000    3.9924   -0.0000 C   0  0  0  0  0  0  0  0  0  0  0  0
  -13.4656   -0.1536   -0.0000 C   0  0  0  0  0  0  0  0  0  0  0  0
  -13.4892    2.8467   -0.0000 N   0  0  0  0  0  0  0  0  0  0  0  0
   -8.8944    4.4649   -0.0000 C   0  0  0  0  0  0  0  0  0  0  0  0
  -14.7767    0.6024   -0.0000 C   0  0  0  0  0  0  0  0  0  0  0  0
  -14.7885    2.1143   -0.0000 C   0  0  0  0  0  0  0  0  0  0  0  0
   -7.8077    3.4727   -0.0000 C   0  0  0  0  0  0  0  0  0  0  0  0
   -8.5991    5.9296   -0.0000 C   0  0  0  0  0  0  0  0  0  0  0  0
   -6.4020    3.9452   -0.0000 C   0  0  0  0  0  0  0  0  0  0  0  0
   -7.1934    6.4020   -0.0000 C   0  0  0  0  0  0  0  0  0  0  0  0
   -6.0949    5.4217   -0.0000 C   0  0  0  0  0  0  0  0  0  0  0  0
  1  2  1  0  0  0  0
  2  3  1  0  0  0  0
  2  4  1  0  0  0  0
  2  5  1  0  0  0  0
  5  6  2  0  0  0  0
  5  7  1  0  0  0  0
  6  8  1  0  0  0  0
  6  9  1  0  0  0  0
  7 10  2  0  0  0  0
  8 11  2  0  0  0  0
  9 12  1  0  0  0  0
 12 13  1  1  0  0  0
 12 14  1  0  0  0  0
 13 15  1  0  0  0  0
 14 16  2  0  0  0  0
 14 17  1  0  0  0  0
 15 18  2  0  0  0  0
 15 19  1  0  0  0  0
 17 20  1  0  0  0  0
 19 21  1  0  0  0  0
 20 22  1  0  0  0  0
 21 23  1  0  0  0  0
 21 24  1  0  0  0  0
 21 25  1  0  0  0  0
 22 26  2  0  0  0  0
 22 27  1  0  0  0  0
 26 28  1  0  0  0  0
 27 29  1  0  0  0  0
 27 30  1  0  0  0  0
 28 31  1  0  0  0  0
 29 32  1  0  0  0  0
 30 33  1  0  0  0  0
 31 34  2  0  0  0  0
 32 35  2  0  0  0  0
 33 36  2  0  0  0  0
 33 37  1  0  0  0  0
 36 38  1  0  0  0  0
 37 39  2  0  0  0  0
 38 40  2  0  0  0  0
 10 11  1  0  0  0  0
 28 29  2  0  0  0  0
 34 35  1  0  0  0  0
 39 40  1  0  0  0  0
M  END
>  <MolRegNo>
423685

>  <m>
=

>  <Value>
980

>  <Unit>
nM

>  <Type>
IC50

>  <pValue>
6.01

>  <Ligand Efficiency>
0

>  <Binding Efficiency>
0

>  <Surface Efficiency>
0

>  <Assay Index>
311290

>  <Assay Category>


>  <Assay Organism>


>  <Target ID>
17045

>  <Target Name>
Cytochrome P450 3A4

>  <Target Organism>
Homo sapiens

>  <Target Description>
Target is a single protein chain

>  <Sequence Accession>
P08684

>  <Reference>
Bioorg Med Chem Lett 18 (5), 1696-1701 (2008)

>  <Pubmed ID>
18243692

>  <DOI>
10.1016/j.bmcl.2008.01.047

$$$$
423744
Actelion Java MolfileCreator 1.0

 43 48  0  0  1  0  0  0  0  0999 V2000
    0.0000   -0.0000   -0.0000 F   0  0  0  0  0  0  0  0  0  0  0  0
   -0.7556   -1.2869   -0.0000 C   0  0  0  0  0  0  0  0  0  0  0  0
   -0.0118   -2.5501   -0.0000 C   0  0  0  0  0  0  0  0  0  0  0  0
   -2.2549   -1.2750   -0.0000 C   0  0  0  0  0  0  0  0  0  0  0  0
    1.4758   -2.5147   -0.0000 F   0  0  0  0  0  0  0  0  0  0  0  0
   -0.7556   -3.8606   -0.0000 C   0  0  0  0  0  0  0  0  0  0  0  0
   -3.0105   -2.5619   -0.0000 C   0  0  0  0  0  0  0  0  0  0  0  0
   -3.0223    0.0354   -0.0000 C   0  0  0  0  0  0  0  0  0  0  0  0
   -2.2668   -3.8488   -0.0000 C   0  0  0  0  0  0  0  0  0  0  0  0
   -4.5217   -2.5501   -0.0000 F   0  0  0  0  0  0  0  0  0  0  0  0
   -4.5335    0.0354   -0.0000 C   0  0  0  0  0  0  0  0  0  0  0  0
   -5.2773   -1.2396   -0.0000 N   0  0  0  0  0  0  0  0  0  0  0  0
   -5.3009    1.3459   -0.0000 C   0  0  0  0  0  0  0  0  0  0  0  0
   -6.7885   -1.2396   -0.0000 C   0  0  0  0  0  0  0  0  0  0  0  0
   -4.5689    2.6682   -0.0000 O   0  0  0  0  0  0  0  0  0  0  0  0
   -6.8121    1.3577   -0.0000 N   0  0  0  0  0  0  0  0  0  0  0  0
   -7.5559    0.0590   -0.0000 O   0  0  0  0  0  0  0  0  0  0  0  0
   -7.5440   -2.5265   -0.0000 C   0  0  0  0  0  0  0  0  0  0  0  0
   -7.5795    2.6564   -0.0000 C   0  0  0  0  0  0  0  0  0  0  0  0
   -6.3634   -3.4356   -0.0000 C   0  0  0  0  0  0  0  0  0  0  0  0
   -8.8545   -1.7945   -0.0000 C   0  0  0  0  0  0  0  0  0  0  0  0
   -8.8545   -3.2821   -0.0000 C   0  0  0  0  0  0  0  0  0  0  0  0
   -9.0906    2.6682   -0.0000 C   0  0  0  0  0  0  0  0  0  0  0  0
   -5.2183   -4.3210   -0.0000 F   0  0  0  0  0  0  0  0  0  0  0  0
   -5.4662   -2.2313   -0.0000 F   0  0  0  0  0  0  0  0  0  0  0  0
   -7.2843   -4.6043   -0.0000 F   0  0  0  0  0  0  0  0  0  0  0  0
   -9.9879    1.4521   -0.0000 N   0  0  0  0  0  0  0  0  0  0  0  0
   -9.9997    3.8842   -0.0000 N   0  0  0  0  0  0  0  0  0  0  0  0
  -11.4400    1.9244   -0.0000 C   0  0  0  0  0  0  0  0  0  0  0  0
  -11.4400    3.4237   -0.0000 C   0  0  0  0  0  0  0  0  0  0  0  0
   -9.5629    5.3363   -0.0000 C   0  0  0  0  0  0  0  0  0  0  0  0
  -12.7387    1.1924   -0.0000 C   0  0  0  0  0  0  0  0  0  0  0  0
  -12.7505    4.1793   -0.0000 N   0  0  0  0  0  0  0  0  0  0  0  0
   -8.1107    5.6551   -0.0000 C   0  0  0  0  0  0  0  0  0  0  0  0
  -10.8733    6.0919   -0.0000 C   0  0  0  0  0  0  0  0  0  0  0  0
   -9.5747    6.8357   -0.0000 C   0  0  0  0  0  0  0  0  0  0  0  0
  -14.0492    1.9480   -0.0000 C   0  0  0  0  0  0  0  0  0  0  0  0
  -14.0492    3.4474   -0.0000 C   0  0  0  0  0  0  0  0  0  0  0  0
   -7.1190    4.5571   -0.0000 C   0  0  0  0  0  0  0  0  0  0  0  0
   -7.6739    7.0954   -0.0000 C   0  0  0  0  0  0  0  0  0  0  0  0
   -5.6669    4.8877   -0.0000 C   0  0  0  0  0  0  0  0  0  0  0  0
   -6.2336    7.4378   -0.0000 C   0  0  0  0  0  0  0  0  0  0  0  0
   -5.2301    6.3162   -0.0000 C   0  0  0  0  0  0  0  0  0  0  0  0
  1  2  1  0  0  0  0
  2  3  2  0  0  0  0
  2  4  1  0  0  0  0
  3  5  1  0  0  0  0
  3  6  1  0  0  0  0
  4  7  2  0  0  0  0
  4  8  1  0  0  0  0
  6  9  2  0  0  0  0
  7 10  1  0  0  0  0
  8 11  1  0  0  0  0
 11 12  1  1  0  0  0
 11 13  1  0  0  0  0
 12 14  1  0  0  0  0
 13 15  2  0  0  0  0
 13 16  1  0  0  0  0
 14 17  2  0  0  0  0
 14 18  1  0  0  0  0
 16 19  1  0  0  0  0
 18 20  1  0  0  0  0
 18 21  1  0  0  0  0
 18 22  1  0  0  0  0
 19 23  1  0  0  0  0
 20 24  1  0  0  0  0
 20 25  1  0  0  0  0
 20 26  1  0  0  0  0
 23 27  2  0  0  0  0
 23 28  1  0  0  0  0
 27 29  1  0  0  0  0
 28 30  1  0  0  0  0
 28 31  1  0  0  0  0
 29 32  1  0  0  0  0
 30 33  1  0  0  0  0
 31 34  1  0  0  0  0
 31 35  1  0  0  0  0
 31 36  1  0  0  0  0
 32 37  2  0  0  0  0
 33 38  2  0  0  0  0
 34 39  2  0  0  0  0
 34 40  1  0  0  0  0
 39 41  1  0  0  0  0
 40 42  2  0  0  0  0
 41 43  2  0  0  0  0
  7  9  1  0  0  0  0
 21 22  1  0  0  0  0
 29 30  2  0  0  0  0
 35 36  1  0  0  0  0
 37 38  1  0  0  0  0
 42 43  1  0  0  0  0
M  END
>  <MolRegNo>
423744

>  <m>
=

>  <Value>
980

>  <Unit>
nM

>  <Type>
IC50

>  <pValue>
6.01

>  <Ligand Efficiency>
0

>  <Binding Efficiency>
0

>  <Surface Efficiency>
0

>  <Assay Index>
311290

>  <Assay Category>


>  <Assay Organism>


>  <Target ID>
17045

>  <Target Name>
Cytochrome P450 3A4

>  <Target Organism>
Homo sapiens

>  <Target Description>
Target is a single protein chain

>  <Sequence Accession>
P08684

>  <Reference>
Bioorg Med Chem Lett 18 (5), 1696-1701 (2008)

>  <Pubmed ID>
18243692

>  <DOI>
10.1016/j.bmcl.2008.01.047

$$$$
423741
Actelion Java MolfileCreator 1.0

 43 47  0  0  1  0  0  0  0  0999 V2000
    0.0000   -0.0000   -0.0000 F   0  0  0  0  0  0  0  0  0  0  0  0
    1.4878    0.0236   -0.0000 C   0  0  0  0  0  0  0  0  0  0  0  0
    2.2199    1.3343   -0.0000 C   0  0  0  0  0  0  0  0  0  0  0  0
    2.2317   -1.2516   -0.0000 C   0  0  0  0  0  0  0  0  0  0  0  0
    3.6959    1.3579   -0.0000 C   0  0  0  0  0  0  0  0  0  0  0  0
    1.4524    2.6332   -0.0000 C   0  0  0  0  0  0  0  0  0  0  0  0
    3.7195   -1.2280   -0.0000 C   0  0  0  0  0  0  0  0  0  0  0  0
    4.4398    0.0827   -0.0000 C   0  0  0  0  0  0  0  0  0  0  0  0
    4.4162    2.6686   -0.0000 C   0  0  0  0  0  0  0  0  0  0  0  0
   -0.0590    2.6332   -0.0000 C   0  0  0  0  0  0  0  0  0  0  0  0
    5.1483    3.9793   -0.0000 F   0  0  0  0  0  0  0  0  0  0  0  0
    3.1055    3.4125   -0.0000 F   0  0  0  0  0  0  0  0  0  0  0  0
    5.7032    1.9483   -0.0000 F   0  0  0  0  0  0  0  0  0  0  0  0
   -0.8147    1.3461   -0.0000 N   0  0  0  0  0  0  0  0  0  0  0  0
   -0.8266    3.9320   -0.0000 C   0  0  0  0  0  0  0  0  0  0  0  0
   -2.3262    1.3461   -0.0000 C   0  0  0  0  0  0  0  0  0  0  0  0
   -0.0945    5.2427   -0.0000 O   0  0  0  0  0  0  0  0  0  0  0  0
   -2.3380    3.9320   -0.0000 N   0  0  0  0  0  0  0  0  0  0  0  0
   -3.0937    2.6450   -0.0000 O   0  0  0  0  0  0  0  0  0  0  0  0
   -3.0819    0.0590   -0.0000 O   0  0  0  0  0  0  0  0  0  0  0  0
   -3.1055    5.2309   -0.0000 C   0  0  0  0  0  0  0  0  0  0  0  0
   -4.5933    0.0590   -0.0000 C   0  0  0  0  0  0  0  0  0  0  0  0
   -4.6169    5.2309   -0.0000 C   0  0  0  0  0  0  0  0  0  0  0  0
   -6.1047    0.0827   -0.0000 C   0  0  0  0  0  0  0  0  0  0  0  0
   -4.6051   -1.4288   -0.0000 C   0  0  0  0  0  0  0  0  0  0  0  0
   -4.6051    1.5705   -0.0000 C   0  0  0  0  0  0  0  0  0  0  0  0
   -5.5025    4.0147   -0.0000 N   0  0  0  0  0  0  0  0  0  0  0  0
   -5.5261    6.4589   -0.0000 N   0  0  0  0  0  0  0  0  0  0  0  0
   -6.9431    4.4870   -0.0000 C   0  0  0  0  0  0  0  0  0  0  0  0
   -6.9667    5.9984   -0.0000 C   0  0  0  0  0  0  0  0  0  0  0  0
   -5.0892    7.8995   -0.0000 C   0  0  0  0  0  0  0  0  0  0  0  0
   -8.2538    3.7549   -0.0000 C   0  0  0  0  0  0  0  0  0  0  0  0
   -8.2774    6.7541   -0.0000 N   0  0  0  0  0  0  0  0  0  0  0  0
   -3.6368    8.2301   -0.0000 C   0  0  0  0  0  0  0  0  0  0  0  0
   -6.3999    8.6552   -0.0000 C   0  0  0  0  0  0  0  0  0  0  0  0
   -5.1010    9.4109   -0.0000 C   0  0  0  0  0  0  0  0  0  0  0  0
   -9.5644    4.5106   -0.0000 C   0  0  0  0  0  0  0  0  0  0  0  0
   -9.5762    6.0220   -0.0000 C   0  0  0  0  0  0  0  0  0  0  0  0
   -2.6450    7.1320   -0.0000 C   0  0  0  0  0  0  0  0  0  0  0  0
   -3.2000    9.6589   -0.0000 C   0  0  0  0  0  0  0  0  0  0  0  0
   -1.2044    7.4626   -0.0000 C   0  0  0  0  0  0  0  0  0  0  0  0
   -1.7594    9.9895   -0.0000 C   0  0  0  0  0  0  0  0  0  0  0  0
   -0.7675    8.9032   -0.0000 C   0  0  0  0  0  0  0  0  0  0  0  0
  1  2  1  0  0  0  0
  2  3  2  0  0  0  0
  2  4  1  0  0  0  0
  3  5  1  0  0  0  0
  3  6  1  0  0  0  0
  4  7  2  0  0  0  0
  5  8  2  0  0  0  0
  5  9  1  0  0  0  0
  6 10  1  0  0  0  0
  9 11  1  0  0  0  0
  9 12  1  0  0  0  0
  9 13  1  0  0  0  0
 10 14  1  1  0  0  0
 10 15  1  0  0  0  0
 14 16  1  0  0  0  0
 15 17  2  0  0  0  0
 15 18  1  0  0  0  0
 16 19  2  0  0  0  0
 16 20  1  0  0  0  0
 18 21  1  0  0  0  0
 20 22  1  0  0  0  0
 21 23  1  0  0  0  0
 22 24  1  0  0  0  0
 22 25  1  0  0  0  0
 22 26  1  0  0  0  0
 23 27  2  0  0  0  0
 23 28  1  0  0  0  0
 27 29  1  0  0  0  0
 28 30  1  0  0  0  0
 28 31  1  0  0  0  0
 29 32  1  0  0  0  0
 30 33  1  0  0  0  0
 31 34  1  0  0  0  0
 31 35  1  0  0  0  0
 31 36  1  0  0  0  0
 32 37  2  0  0  0  0
 33 38  2  0  0  0  0
 34 39  2  0  0  0  0
 34 40  1  0  0  0  0
 39 41  1  0  0  0  0
 40 42  2  0  0  0  0
 41 43  2  0  0  0  0
  7  8  1  0  0  0  0
 29 30  2  0  0  0  0
 35 36  1  0  0  0  0
 37 38  1  0  0  0  0
 42 43  1  0  0  0  0
M  END
>  <MolRegNo>
423741

>  <m>
=

>  <Value>
3400

>  <Unit>
nM

>  <Type>
IC50

>  <pValue>
5.47

>  <Ligand Efficiency>
0

>  <Binding Efficiency>
0

>  <Surface Efficiency>
0

>  <Assay Index>
311290

>  <Assay Category>


>  <Assay Organism>


>  <Target ID>
17045

>  <Target Name>
Cytochrome P450 3A4

>  <Target Organism>
Homo sapiens

>  <Target Description>
Target is a single protein chain

>  <Sequence Accession>
P08684

>  <Reference>
Bioorg Med Chem Lett 18 (5), 1696-1701 (2008)

>  <Pubmed ID>
18243692

>  <DOI>
10.1016/j.bmcl.2008.01.047

$$$$
423739
Actelion Java MolfileCreator 1.0

 43 47  0  0  1  0  0  0  0  0999 V2000
    0.0000   -0.0000   -0.0000 F   0  0  0  0  0  0  0  0  0  0  0  0
   -1.5085   -0.0000   -0.0000 C   0  0  0  0  0  0  0  0  0  0  0  0
   -2.2745    1.2963   -0.0000 C   0  0  0  0  0  0  0  0  0  0  0  0
   -2.2627   -1.2963   -0.0000 C   0  0  0  0  0  0  0  0  0  0  0  0
   -3.7712    1.2963   -0.0000 C   0  0  0  0  0  0  0  0  0  0  0  0
   -1.5556    2.6045   -0.0000 C   0  0  0  0  0  0  0  0  0  0  0  0
   -3.7712   -1.2963   -0.0000 C   0  0  0  0  0  0  0  0  0  0  0  0
   -4.5254    0.0118   -0.0000 C   0  0  0  0  0  0  0  0  0  0  0  0
   -4.5372    2.5927   -0.0000 C   0  0  0  0  0  0  0  0  0  0  0  0
   -0.8249    3.9126   -0.0000 F   0  0  0  0  0  0  0  0  0  0  0  0
   -2.8637    3.3469   -0.0000 F   0  0  0  0  0  0  0  0  0  0  0  0
   -0.2711    1.8856   -0.0000 F   0  0  0  0  0  0  0  0  0  0  0  0
   -6.0457    2.5927   -0.0000 C   0  0  0  0  0  0  0  0  0  0  0  0
   -6.7999    1.3081   -0.0000 N   0  0  0  0  0  0  0  0  0  0  0  0
   -6.8117    3.8890   -0.0000 C   0  0  0  0  0  0  0  0  0  0  0  0
   -8.3084    1.3081   -0.0000 C   0  0  0  0  0  0  0  0  0  0  0  0
   -6.0810    5.1972   -0.0000 O   0  0  0  0  0  0  0  0  0  0  0  0
   -8.3202    3.8890   -0.0000 N   0  0  0  0  0  0  0  0  0  0  0  0
   -9.0744    2.6045   -0.0000 O   0  0  0  0  0  0  0  0  0  0  0  0
   -9.0626    0.0236   -0.0000 O   0  0  0  0  0  0  0  0  0  0  0  0
   -9.0862    5.1854   -0.0000 C   0  0  0  0  0  0  0  0  0  0  0  0
  -10.5711    0.0236   -0.0000 C   0  0  0  0  0  0  0  0  0  0  0  0
  -10.5947    5.1854   -0.0000 C   0  0  0  0  0  0  0  0  0  0  0  0
  -12.0796    0.0471   -0.0000 C   0  0  0  0  0  0  0  0  0  0  0  0
  -10.5829   -1.4613   -0.0000 C   0  0  0  0  0  0  0  0  0  0  0  0
  -10.5829    1.5320   -0.0000 C   0  0  0  0  0  0  0  0  0  0  0  0
  -11.4785    3.9715   -0.0000 N   0  0  0  0  0  0  0  0  0  0  0  0
  -11.5021    6.4110   -0.0000 N   0  0  0  0  0  0  0  0  0  0  0  0
  -12.9163    4.4429   -0.0000 C   0  0  0  0  0  0  0  0  0  0  0  0
  -12.9399    5.9514   -0.0000 C   0  0  0  0  0  0  0  0  0  0  0  0
  -11.0661    7.8488   -0.0000 C   0  0  0  0  0  0  0  0  0  0  0  0
  -14.2244    3.7123   -0.0000 C   0  0  0  0  0  0  0  0  0  0  0  0
  -14.2480    6.7056   -0.0000 N   0  0  0  0  0  0  0  0  0  0  0  0
   -9.6165    8.1788   -0.0000 C   0  0  0  0  0  0  0  0  0  0  0  0
  -12.3742    8.6030   -0.0000 C   0  0  0  0  0  0  0  0  0  0  0  0
  -11.0778    9.3572   -0.0000 C   0  0  0  0  0  0  0  0  0  0  0  0
  -15.5326    4.4665   -0.0000 C   0  0  0  0  0  0  0  0  0  0  0  0
  -15.5443    5.9750   -0.0000 C   0  0  0  0  0  0  0  0  0  0  0  0
   -8.6266    7.0828   -0.0000 C   0  0  0  0  0  0  0  0  0  0  0  0
   -9.1805    9.6047   -0.0000 C   0  0  0  0  0  0  0  0  0  0  0  0
   -7.1888    7.4127   -0.0000 C   0  0  0  0  0  0  0  0  0  0  0  0
   -7.7427    9.9347   -0.0000 C   0  0  0  0  0  0  0  0  0  0  0  0
   -6.7528    8.8505   -0.0000 C   0  0  0  0  0  0  0  0  0  0  0  0
  1  2  1  0  0  0  0
  2  3  2  0  0  0  0
  2  4  1  0  0  0  0
  3  5  1  0  0  0  0
  3  6  1  0  0  0  0
  4  7  2  0  0  0  0
  5  8  2  0  0  0  0
  5  9  1  0  0  0  0
  6 10  1  0  0  0  0
  6 11  1  0  0  0  0
  6 12  1  0  0  0  0
  9 13  1  0  0  0  0
 13 14  1  1  0  0  0
 13 15  1  0  0  0  0
 14 16  1  0  0  0  0
 15 17  2  0  0  0  0
 15 18  1  0  0  0  0
 16 19  2  0  0  0  0
 16 20  1  0  0  0  0
 18 21  1  0  0  0  0
 20 22  1  0  0  0  0
 21 23  1  0  0  0  0
 22 24  1  0  0  0  0
 22 25  1  0  0  0  0
 22 26  1  0  0  0  0
 23 27  2  0  0  0  0
 23 28  1  0  0  0  0
 27 29  1  0  0  0  0
 28 30  1  0  0  0  0
 28 31  1  0  0  0  0
 29 32  1  0  0  0  0
 30 33  1  0  0  0  0
 31 34  1  0  0  0  0
 31 35  1  0  0  0  0
 31 36  1  0  0  0  0
 32 37  2  0  0  0  0
 33 38  2  0  0  0  0
 34 39  2  0  0  0  0
 34 40  1  0  0  0  0
 39 41  1  0  0  0  0
 40 42  2  0  0  0  0
 41 43  2  0  0  0  0
  7  8  1  0  0  0  0
 29 30  2  0  0  0  0
 35 36  1  0  0  0  0
 37 38  1  0  0  0  0
 42 43  1  0  0  0  0
M  END
>  <MolRegNo>
423739

>  <m>
=

>  <Value>
810

>  <Unit>
nM

>  <Type>
IC50

>  <pValue>
6.09

>  <Ligand Efficiency>
0

>  <Binding Efficiency>
0

>  <Surface Efficiency>
0

>  <Assay Index>
311290

>  <Assay Category>


>  <Assay Organism>


>  <Target ID>
17045

>  <Target Name>
Cytochrome P450 3A4

>  <Target Organism>
Homo sapiens

>  <Target Description>
Target is a single protein chain

>  <Sequence Accession>
P08684

>  <Reference>
Bioorg Med Chem Lett 18 (5), 1696-1701 (2008)

>  <Pubmed ID>
18243692

>  <DOI>
10.1016/j.bmcl.2008.01.047

$$$$
423738
Actelion Java MolfileCreator 1.0

 40 44  0  0  1  0  0  0  0  0999 V2000
    0.0000   -0.0000   -0.0000 Cl  0  0  0  0  0  0  0  0  0  0  0  0
   -0.7434   -1.2862   -0.0000 C   0  0  0  0  0  0  0  0  0  0  0  0
   -2.2420   -1.2862   -0.0000 C   0  0  0  0  0  0  0  0  0  0  0  0
    0.0000   -2.5605   -0.0000 C   0  0  0  0  0  0  0  0  0  0  0  0
   -2.9971   -2.5723   -0.0000 C   0  0  0  0  0  0  0  0  0  0  0  0
   -3.0089    0.0118   -0.0000 C   0  0  0  0  0  0  0  0  0  0  0  0
   -0.7552   -3.8585   -0.0000 C   0  0  0  0  0  0  0  0  0  0  0  0
   -2.2538   -3.8467   -0.0000 C   0  0  0  0  0  0  0  0  0  0  0  0
   -4.5193    0.0118   -0.0000 C   0  0  0  0  0  0  0  0  0  0  0  0
   -3.0089   -5.1329   -0.0000 F   0  0  0  0  0  0  0  0  0  0  0  0
   -5.2745   -1.2744   -0.0000 N   0  0  0  0  0  0  0  0  0  0  0  0
   -5.2863    1.3098   -0.0000 C   0  0  0  0  0  0  0  0  0  0  0  0
   -6.7849   -1.2744   -0.0000 C   0  0  0  0  0  0  0  0  0  0  0  0
   -4.5547    2.6195   -0.0000 O   0  0  0  0  0  0  0  0  0  0  0  0
   -6.7967    1.3098   -0.0000 N   0  0  0  0  0  0  0  0  0  0  0  0
   -7.5518    0.0236   -0.0000 O   0  0  0  0  0  0  0  0  0  0  0  0
   -7.5400   -2.5605   -0.0000 O   0  0  0  0  0  0  0  0  0  0  0  0
   -7.5636    2.6077   -0.0000 C   0  0  0  0  0  0  0  0  0  0  0  0
   -9.0504   -2.5605   -0.0000 C   0  0  0  0  0  0  0  0  0  0  0  0
   -9.0740    2.6077   -0.0000 C   0  0  0  0  0  0  0  0  0  0  0  0
  -10.5608   -2.5369   -0.0000 C   0  0  0  0  0  0  0  0  0  0  0  0
   -9.0622   -4.0473   -0.0000 C   0  0  0  0  0  0  0  0  0  0  0  0
   -9.0622   -1.0502   -0.0000 C   0  0  0  0  0  0  0  0  0  0  0  0
   -9.9590    1.3924   -0.0000 N   0  0  0  0  0  0  0  0  0  0  0  0
   -9.9826    3.8349   -0.0000 N   0  0  0  0  0  0  0  0  0  0  0  0
  -11.3986    1.8644   -0.0000 C   0  0  0  0  0  0  0  0  0  0  0  0
  -11.4222    3.3747   -0.0000 C   0  0  0  0  0  0  0  0  0  0  0  0
   -9.5460    5.2745   -0.0000 C   0  0  0  0  0  0  0  0  0  0  0  0
  -12.7083    1.1328   -0.0000 C   0  0  0  0  0  0  0  0  0  0  0  0
  -12.7319    4.1299   -0.0000 N   0  0  0  0  0  0  0  0  0  0  0  0
   -8.0946    5.6049   -0.0000 C   0  0  0  0  0  0  0  0  0  0  0  0
  -10.8558    6.0297   -0.0000 C   0  0  0  0  0  0  0  0  0  0  0  0
   -9.5578    6.7849   -0.0000 C   0  0  0  0  0  0  0  0  0  0  0  0
  -14.0181    1.8880   -0.0000 C   0  0  0  0  0  0  0  0  0  0  0  0
  -14.0299    3.3983   -0.0000 C   0  0  0  0  0  0  0  0  0  0  0  0
   -7.1035    4.5075   -0.0000 C   0  0  0  0  0  0  0  0  0  0  0  0
   -7.6580    7.0327   -0.0000 C   0  0  0  0  0  0  0  0  0  0  0  0
   -5.6639    4.8379   -0.0000 C   0  0  0  0  0  0  0  0  0  0  0  0
   -6.2185    7.3630   -0.0000 C   0  0  0  0  0  0  0  0  0  0  0  0
   -5.2273    6.2775   -0.0000 C   0  0  0  0  0  0  0  0  0  0  0  0
  1  2  1  0  0  0  0
  2  3  2  0  0  0  0
  2  4  1  0  0  0  0
  3  5  1  0  0  0  0
  3  6  1  0  0  0  0
  4  7  2  0  0  0  0
  5  8  2  0  0  0  0
  6  9  1  0  0  0  0
  8 10  1  0  0  0  0
  9 11  1  1  0  0  0
  9 12  1  0  0  0  0
 11 13  1  0  0  0  0
 12 14  2  0  0  0  0
 12 15  1  0  0  0  0
 13 16  2  0  0  0  0
 13 17  1  0  0  0  0
 15 18  1  0  0  0  0
 17 19  1  0  0  0  0
 18 20  1  0  0  0  0
 19 21  1  0  0  0  0
 19 22  1  0  0  0  0
 19 23  1  0  0  0  0
 20 24  2  0  0  0  0
 20 25  1  0  0  0  0
 24 26  1  0  0  0  0
 25 27  1  0  0  0  0
 25 28  1  0  0  0  0
 26 29  1  0  0  0  0
 27 30  1  0  0  0  0
 28 31  1  0  0  0  0
 28 32  1  0  0  0  0
 28 33  1  0  0  0  0
 29 34  2  0  0  0  0
 30 35  2  0  0  0  0
 31 36  2  0  0  0  0
 31 37  1  0  0  0  0
 36 38  1  0  0  0  0
 37 39  2  0  0  0  0
 38 40  2  0  0  0  0
  7  8  1  0  0  0  0
 26 27  2  0  0  0  0
 32 33  1  0  0  0  0
 34 35  1  0  0  0  0
 39 40  1  0  0  0  0
M  END
>  <MolRegNo>
423738

>  <m>
=

>  <Value>
2000

>  <Unit>
nM

>  <Type>
IC50

>  <pValue>
5.7

>  <Ligand Efficiency>
0

>  <Binding Efficiency>
0

>  <Surface Efficiency>
0

>  <Assay Index>
311290

>  <Assay Category>


>  <Assay Organism>


>  <Target ID>
17045

>  <Target Name>
Cytochrome P450 3A4

>  <Target Organism>
Homo sapiens

>  <Target Description>
Target is a single protein chain

>  <Sequence Accession>
P08684

>  <Reference>
Bioorg Med Chem Lett 18 (5), 1696-1701 (2008)

>  <Pubmed ID>
18243692

>  <DOI>
10.1016/j.bmcl.2008.01.047

$$$$
423737
Actelion Java MolfileCreator 1.0

 40 44  0  0  1  0  0  0  0  0999 V2000
    0.0000   -0.0000   -0.0000 Cl  0  0  0  0  0  0  0  0  0  0  0  0
   -0.7430   -1.2854   -0.0000 C   0  0  0  0  0  0  0  0  0  0  0  0
   -2.2407   -1.2854   -0.0000 C   0  0  0  0  0  0  0  0  0  0  0  0
    0.0000   -2.5591   -0.0000 C   0  0  0  0  0  0  0  0  0  0  0  0
   -2.9954   -2.5709   -0.0000 C   0  0  0  0  0  0  0  0  0  0  0  0
   -3.0072    0.0118   -0.0000 C   0  0  0  0  0  0  0  0  0  0  0  0
   -0.7547   -3.8563   -0.0000 C   0  0  0  0  0  0  0  0  0  0  0  0
   -4.5049   -2.5709   -0.0000 F   0  0  0  0  0  0  0  0  0  0  0  0
   -2.2524   -3.8445   -0.0000 C   0  0  0  0  0  0  0  0  0  0  0  0
   -4.5167    0.0118   -0.0000 C   0  0  0  0  0  0  0  0  0  0  0  0
   -5.2714   -1.2736   -0.0000 N   0  0  0  0  0  0  0  0  0  0  0  0
   -5.2832    1.3090   -0.0000 C   0  0  0  0  0  0  0  0  0  0  0  0
   -6.7809   -1.2736   -0.0000 C   0  0  0  0  0  0  0  0  0  0  0  0
   -4.5521    2.6180   -0.0000 O   0  0  0  0  0  0  0  0  0  0  0  0
   -6.7927    1.3090   -0.0000 N   0  0  0  0  0  0  0  0  0  0  0  0
   -7.5475    0.0236   -0.0000 O   0  0  0  0  0  0  0  0  0  0  0  0
   -7.5357   -2.5591   -0.0000 O   0  0  0  0  0  0  0  0  0  0  0  0
   -7.5592    2.6062   -0.0000 C   0  0  0  0  0  0  0  0  0  0  0  0
   -9.0452   -2.5591   -0.0000 C   0  0  0  0  0  0  0  0  0  0  0  0
   -9.0687    2.6062   -0.0000 C   0  0  0  0  0  0  0  0  0  0  0  0
  -10.5546   -2.5355   -0.0000 C   0  0  0  0  0  0  0  0  0  0  0  0
   -9.0569   -4.0450   -0.0000 C   0  0  0  0  0  0  0  0  0  0  0  0
   -9.0569   -1.0496   -0.0000 C   0  0  0  0  0  0  0  0  0  0  0  0
   -9.9532    1.3916   -0.0000 N   0  0  0  0  0  0  0  0  0  0  0  0
   -9.9768    3.8327   -0.0000 N   0  0  0  0  0  0  0  0  0  0  0  0
  -11.3919    1.8633   -0.0000 C   0  0  0  0  0  0  0  0  0  0  0  0
  -11.4155    3.3728   -0.0000 C   0  0  0  0  0  0  0  0  0  0  0  0
   -9.5405    5.2714   -0.0000 C   0  0  0  0  0  0  0  0  0  0  0  0
  -12.7010    1.1321   -0.0000 C   0  0  0  0  0  0  0  0  0  0  0  0
  -12.7245    4.1275   -0.0000 N   0  0  0  0  0  0  0  0  0  0  0  0
   -8.0899    5.6016   -0.0000 C   0  0  0  0  0  0  0  0  0  0  0  0
  -10.8495    6.0262   -0.0000 C   0  0  0  0  0  0  0  0  0  0  0  0
   -9.5522    6.7809   -0.0000 C   0  0  0  0  0  0  0  0  0  0  0  0
  -14.0100    1.8869   -0.0000 C   0  0  0  0  0  0  0  0  0  0  0  0
  -14.0218    3.3964   -0.0000 C   0  0  0  0  0  0  0  0  0  0  0  0
   -7.0993    4.5049   -0.0000 C   0  0  0  0  0  0  0  0  0  0  0  0
   -7.6536    7.0286   -0.0000 C   0  0  0  0  0  0  0  0  0  0  0  0
   -5.6488    4.8351   -0.0000 C   0  0  0  0  0  0  0  0  0  0  0  0
   -6.2149    7.3588   -0.0000 C   0  0  0  0  0  0  0  0  0  0  0  0
   -5.2125    6.2738   -0.0000 C   0  0  0  0  0  0  0  0  0  0  0  0
  1  2  1  0  0  0  0
  2  3  2  0  0  0  0
  2  4  1  0  0  0  0
  3  5  1  0  0  0  0
  3  6  1  0  0  0  0
  4  7  2  0  0  0  0
  5  8  1  0  0  0  0
  5  9  2  0  0  0  0
  6 10  1  0  0  0  0
 10 11  1  1  0  0  0
 10 12  1  0  0  0  0
 11 13  1  0  0  0  0
 12 14  2  0  0  0  0
 12 15  1  0  0  0  0
 13 16  2  0  0  0  0
 13 17  1  0  0  0  0
 15 18  1  0  0  0  0
 17 19  1  0  0  0  0
 18 20  1  0  0  0  0
 19 21  1  0  0  0  0
 19 22  1  0  0  0  0
 19 23  1  0  0  0  0
 20 24  2  0  0  0  0
 20 25  1  0  0  0  0
 24 26  1  0  0  0  0
 25 27  1  0  0  0  0
 25 28  1  0  0  0  0
 26 29  1  0  0  0  0
 27 30  1  0  0  0  0
 28 31  1  0  0  0  0
 28 32  1  0  0  0  0
 28 33  1  0  0  0  0
 29 34  2  0  0  0  0
 30 35  2  0  0  0  0
 31 36  2  0  0  0  0
 31 37  1  0  0  0  0
 36 38  1  0  0  0  0
 37 39  2  0  0  0  0
 38 40  2  0  0  0  0
  7  9  1  0  0  0  0
 26 27  2  0  0  0  0
 32 33  1  0  0  0  0
 34 35  1  0  0  0  0
 39 40  1  0  0  0  0
M  END
>  <MolRegNo>
423737

>  <m>
=

>  <Value>
5300

>  <Unit>
nM

>  <Type>
IC50

>  <pValue>
5.28

>  <Ligand Efficiency>
0

>  <Binding Efficiency>
0

>  <Surface Efficiency>
0

>  <Assay Index>
311290

>  <Assay Category>


>  <Assay Organism>


>  <Target ID>
17045

>  <Target Name>
Cytochrome P450 3A4

>  <Target Organism>
Homo sapiens

>  <Target Description>
Target is a single protein chain

>  <Sequence Accession>
P08684

>  <Reference>
Bioorg Med Chem Lett 18 (5), 1696-1701 (2008)

>  <Pubmed ID>
18243692

>  <DOI>
10.1016/j.bmcl.2008.01.047

$$$$
423736
Actelion Java MolfileCreator 1.0

 41 45  0  0  1  0  0  0  0  0999 V2000
    0.0000   -0.0000   -0.0000 F   0  0  0  0  0  0  0  0  0  0  0  0
   -0.7442   -1.2876   -0.0000 C   0  0  0  0  0  0  0  0  0  0  0  0
    0.0000   -2.5633   -0.0000 C   0  0  0  0  0  0  0  0  0  0  0  0
   -2.2444   -1.2876   -0.0000 C   0  0  0  0  0  0  0  0  0  0  0  0
    1.4766   -2.5397   -0.0000 F   0  0  0  0  0  0  0  0  0  0  0  0
   -0.7560   -3.8627   -0.0000 C   0  0  0  0  0  0  0  0  0  0  0  0
   -3.0004   -2.5751   -0.0000 C   0  0  0  0  0  0  0  0  0  0  0  0
   -3.0122    0.0118   -0.0000 C   0  0  0  0  0  0  0  0  0  0  0  0
   -2.2680   -3.8627   -0.0000 C   0  0  0  0  0  0  0  0  0  0  0  0
   -4.5005   -2.5751   -0.0000 F   0  0  0  0  0  0  0  0  0  0  0  0
   -4.5124    0.0118   -0.0000 C   0  0  0  0  0  0  0  0  0  0  0  0
   -5.2683   -1.2757   -0.0000 N   0  0  0  0  0  0  0  0  0  0  0  0
   -5.2802    1.3112   -0.0000 C   0  0  0  0  0  0  0  0  0  0  0  0
   -6.7685   -1.2757   -0.0000 C   0  0  0  0  0  0  0  0  0  0  0  0
   -4.5478    2.6224   -0.0000 O   0  0  0  0  0  0  0  0  0  0  0  0
   -6.7803    1.3112   -0.0000 N   0  0  0  0  0  0  0  0  0  0  0  0
   -7.5363    0.0236   -0.0000 O   0  0  0  0  0  0  0  0  0  0  0  0
   -7.5245   -2.5633   -0.0000 O   0  0  0  0  0  0  0  0  0  0  0  0
   -7.5481    2.6105   -0.0000 C   0  0  0  0  0  0  0  0  0  0  0  0
   -9.0247   -2.5633   -0.0000 C   0  0  0  0  0  0  0  0  0  0  0  0
   -9.0483    2.6105   -0.0000 C   0  0  0  0  0  0  0  0  0  0  0  0
  -10.5367   -2.5397   -0.0000 C   0  0  0  0  0  0  0  0  0  0  0  0
   -9.0365   -4.0517   -0.0000 C   0  0  0  0  0  0  0  0  0  0  0  0
   -9.0365   -1.0631   -0.0000 C   0  0  0  0  0  0  0  0  0  0  0  0
   -9.9343    1.3939   -0.0000 N   0  0  0  0  0  0  0  0  0  0  0  0
   -9.9579    3.8390   -0.0000 N   0  0  0  0  0  0  0  0  0  0  0  0
  -11.3754    1.8664   -0.0000 C   0  0  0  0  0  0  0  0  0  0  0  0
  -11.3990    3.3784   -0.0000 C   0  0  0  0  0  0  0  0  0  0  0  0
   -9.5208    5.2802   -0.0000 C   0  0  0  0  0  0  0  0  0  0  0  0
  -12.6866    1.1340   -0.0000 C   0  0  0  0  0  0  0  0  0  0  0  0
  -12.7102    4.1344   -0.0000 N   0  0  0  0  0  0  0  0  0  0  0  0
   -8.0679    5.6109   -0.0000 C   0  0  0  0  0  0  0  0  0  0  0  0
  -10.8320    6.0362   -0.0000 C   0  0  0  0  0  0  0  0  0  0  0  0
   -9.5326    6.7922   -0.0000 C   0  0  0  0  0  0  0  0  0  0  0  0
  -13.9977    1.8900   -0.0000 C   0  0  0  0  0  0  0  0  0  0  0  0
  -14.0095    3.4020   -0.0000 C   0  0  0  0  0  0  0  0  0  0  0  0
   -7.0756    4.5124   -0.0000 C   0  0  0  0  0  0  0  0  0  0  0  0
   -7.6308    7.0402   -0.0000 C   0  0  0  0  0  0  0  0  0  0  0  0
   -5.6345    4.8431   -0.0000 C   0  0  0  0  0  0  0  0  0  0  0  0
   -6.1897    7.3710   -0.0000 C   0  0  0  0  0  0  0  0  0  0  0  0
   -5.1975    6.2842   -0.0000 C   0  0  0  0  0  0  0  0  0  0  0  0
  1  2  1  0  0  0  0
  2  3  2  0  0  0  0
  2  4  1  0  0  0  0
  3  5  1  0  0  0  0
  3  6  1  0  0  0  0
  4  7  2  0  0  0  0
  4  8  1  0  0  0  0
  6  9  2  0  0  0  0
  7 10  1  0  0  0  0
  8 11  1  0  0  0  0
 11 12  1  1  0  0  0
 11 13  1  0  0  0  0
 12 14  1  0  0  0  0
 13 15  2  0  0  0  0
 13 16  1  0  0  0  0
 14 17  2  0  0  0  0
 14 18  1  0  0  0  0
 16 19  1  0  0  0  0
 18 20  1  0  0  0  0
 19 21  1  0  0  0  0
 20 22  1  0  0  0  0
 20 23  1  0  0  0  0
 20 24  1  0  0  0  0
 21 25  2  0  0  0  0
 21 26  1  0  0  0  0
 25 27  1  0  0  0  0
 26 28  1  0  0  0  0
 26 29  1  0  0  0  0
 27 30  1  0  0  0  0
 28 31  1  0  0  0  0
 29 32  1  0  0  0  0
 29 33  1  0  0  0  0
 29 34  1  0  0  0  0
 30 35  2  0  0  0  0
 31 36  2  0  0  0  0
 32 37  2  0  0  0  0
 32 38  1  0  0  0  0
 37 39  1  0  0  0  0
 38 40  2  0  0  0  0
 39 41  2  0  0  0  0
  7  9  1  0  0  0  0
 27 28  2  0  0  0  0
 33 34  1  0  0  0  0
 35 36  1  0  0  0  0
 40 41  1  0  0  0  0
M  END
>  <MolRegNo>
423736

>  <m>
=

>  <Value>
3900

>  <Unit>
nM

>  <Type>
IC50

>  <pValue>
5.41

>  <Ligand Efficiency>
0

>  <Binding Efficiency>
0

>  <Surface Efficiency>
0

>  <Assay Index>
311290

>  <Assay Category>


>  <Assay Organism>


>  <Target ID>
17045

>  <Target Name>
Cytochrome P450 3A4

>  <Target Organism>
Homo sapiens

>  <Target Description>
Target is a single protein chain

>  <Sequence Accession>
P08684

>  <Reference>
Bioorg Med Chem Lett 18 (5), 1696-1701 (2008)

>  <Pubmed ID>
18243692

>  <DOI>
10.1016/j.bmcl.2008.01.047

$$$$
423735
Actelion Java MolfileCreator 1.0

 40 44  0  0  1  0  0  0  0  0999 V2000
    0.0000   -0.0000   -0.0000 F   0  0  0  0  0  0  0  0  0  0  0  0
    1.4875    0.0236   -0.0000 C   0  0  0  0  0  0  0  0  0  0  0  0
    2.2194    1.3340   -0.0000 C   0  0  0  0  0  0  0  0  0  0  0  0
    2.2312   -1.2514   -0.0000 C   0  0  0  0  0  0  0  0  0  0  0  0
    3.6950    1.3576   -0.0000 C   0  0  0  0  0  0  0  0  0  0  0  0
    1.4520    2.6326   -0.0000 C   0  0  0  0  0  0  0  0  0  0  0  0
    3.7186   -1.2277   -0.0000 C   0  0  0  0  0  0  0  0  0  0  0  0
    4.4151    2.6680   -0.0000 F   0  0  0  0  0  0  0  0  0  0  0  0
    4.4388    0.0826   -0.0000 C   0  0  0  0  0  0  0  0  0  0  0  0
   -0.0590    2.6326   -0.0000 C   0  0  0  0  0  0  0  0  0  0  0  0
   -0.8146    1.3458   -0.0000 N   0  0  0  0  0  0  0  0  0  0  0  0
   -0.8264    3.9311   -0.0000 C   0  0  0  0  0  0  0  0  0  0  0  0
   -2.3256    1.3458   -0.0000 C   0  0  0  0  0  0  0  0  0  0  0  0
   -0.0944    5.2415   -0.0000 O   0  0  0  0  0  0  0  0  0  0  0  0
   -2.3374    3.9311   -0.0000 N   0  0  0  0  0  0  0  0  0  0  0  0
   -3.0930    2.6444   -0.0000 O   0  0  0  0  0  0  0  0  0  0  0  0
   -3.0812    0.0590   -0.0000 O   0  0  0  0  0  0  0  0  0  0  0  0
   -3.1048    5.2297   -0.0000 C   0  0  0  0  0  0  0  0  0  0  0  0
   -4.5804    0.0590   -0.0000 C   0  0  0  0  0  0  0  0  0  0  0  0
   -4.6158    5.2297   -0.0000 C   0  0  0  0  0  0  0  0  0  0  0  0
   -6.0915    0.0826   -0.0000 C   0  0  0  0  0  0  0  0  0  0  0  0
   -4.5922   -1.4284   -0.0000 C   0  0  0  0  0  0  0  0  0  0  0  0
   -4.5922    1.5701   -0.0000 C   0  0  0  0  0  0  0  0  0  0  0  0
   -5.5012    4.0138   -0.0000 N   0  0  0  0  0  0  0  0  0  0  0  0
   -5.5248    6.4574   -0.0000 N   0  0  0  0  0  0  0  0  0  0  0  0
   -6.9415    4.4860   -0.0000 C   0  0  0  0  0  0  0  0  0  0  0  0
   -6.9651    5.9970   -0.0000 C   0  0  0  0  0  0  0  0  0  0  0  0
   -5.0880    7.8977   -0.0000 C   0  0  0  0  0  0  0  0  0  0  0  0
   -8.2518    3.7541   -0.0000 C   0  0  0  0  0  0  0  0  0  0  0  0
   -8.2754    6.7526   -0.0000 N   0  0  0  0  0  0  0  0  0  0  0  0
   -3.6360    8.2282   -0.0000 C   0  0  0  0  0  0  0  0  0  0  0  0
   -6.3984    8.6532   -0.0000 C   0  0  0  0  0  0  0  0  0  0  0  0
   -5.0998    9.4087   -0.0000 C   0  0  0  0  0  0  0  0  0  0  0  0
   -9.5622    4.5096   -0.0000 C   0  0  0  0  0  0  0  0  0  0  0  0
   -9.5858    6.0206   -0.0000 C   0  0  0  0  0  0  0  0  0  0  0  0
   -2.6444    7.1303   -0.0000 C   0  0  0  0  0  0  0  0  0  0  0  0
   -3.1992    9.6566   -0.0000 C   0  0  0  0  0  0  0  0  0  0  0  0
   -1.2041    7.4609   -0.0000 C   0  0  0  0  0  0  0  0  0  0  0  0
   -1.7590    9.9872   -0.0000 C   0  0  0  0  0  0  0  0  0  0  0  0
   -0.7673    8.9011   -0.0000 C   0  0  0  0  0  0  0  0  0  0  0  0
  1  2  1  0  0  0  0
  2  3  2  0  0  0  0
  2  4  1  0  0  0  0
  3  5  1  0  0  0  0
  3  6  1  0  0  0  0
  4  7  2  0  0  0  0
  5  8  1  0  0  0  0
  5  9  2  0  0  0  0
  6 10  1  0  0  0  0
 10 11  1  1  0  0  0
 10 12  1  0  0  0  0
 11 13  1  0  0  0  0
 12 14  2  0  0  0  0
 12 15  1  0  0  0  0
 13 16  2  0  0  0  0
 13 17  1  0  0  0  0
 15 18  1  0  0  0  0
 17 19  1  0  0  0  0
 18 20  1  0  0  0  0
 19 21  1  0  0  0  0
 19 22  1  0  0  0  0
 19 23  1  0  0  0  0
 20 24  2  0  0  0  0
 20 25  1  0  0  0  0
 24 26  1  0  0  0  0
 25 27  1  0  0  0  0
 25 28  1  0  0  0  0
 26 29  1  0  0  0  0
 27 30  1  0  0  0  0
 28 31  1  0  0  0  0
 28 32  1  0  0  0  0
 28 33  1  0  0  0  0
 29 34  2  0  0  0  0
 30 35  2  0  0  0  0
 31 36  2  0  0  0  0
 31 37  1  0  0  0  0
 36 38  1  0  0  0  0
 37 39  2  0  0  0  0
 38 40  2  0  0  0  0
  7  9  1  0  0  0  0
 26 27  2  0  0  0  0
 32 33  1  0  0  0  0
 34 35  1  0  0  0  0
 39 40  1  0  0  0  0
M  END
>  <MolRegNo>
423735

>  <m>
=

>  <Value>
6100

>  <Unit>
nM

>  <Type>
IC50

>  <pValue>
5.21

>  <Ligand Efficiency>
0

>  <Binding Efficiency>
0

>  <Surface Efficiency>
0

>  <Assay Index>
311290

>  <Assay Category>


>  <Assay Organism>


>  <Target ID>
17045

>  <Target Name>
Cytochrome P450 3A4

>  <Target Organism>
Homo sapiens

>  <Target Description>
Target is a single protein chain

>  <Sequence Accession>
P08684

>  <Reference>
Bioorg Med Chem Lett 18 (5), 1696-1701 (2008)

>  <Pubmed ID>
18243692

>  <DOI>
10.1016/j.bmcl.2008.01.047

$$$$
423734
Actelion Java MolfileCreator 1.0

 40 44  0  0  1  0  0  0  0  0999 V2000
    0.0000   -0.0000   -0.0000 F   0  0  0  0  0  0  0  0  0  0  0  0
   -0.7433   -1.2860   -0.0000 C   0  0  0  0  0  0  0  0  0  0  0  0
    0.0000   -2.5603   -0.0000 C   0  0  0  0  0  0  0  0  0  0  0  0
   -2.2417   -1.2860   -0.0000 C   0  0  0  0  0  0  0  0  0  0  0  0
    1.4748   -2.5367   -0.0000 F   0  0  0  0  0  0  0  0  0  0  0  0
   -0.7551   -3.8581   -0.0000 C   0  0  0  0  0  0  0  0  0  0  0  0
   -2.9968   -2.5721   -0.0000 C   0  0  0  0  0  0  0  0  0  0  0  0
   -3.0086    0.0118   -0.0000 C   0  0  0  0  0  0  0  0  0  0  0  0
   -2.2653   -3.8581   -0.0000 C   0  0  0  0  0  0  0  0  0  0  0  0
   -4.5188    0.0118   -0.0000 C   0  0  0  0  0  0  0  0  0  0  0  0
   -5.2739   -1.2742   -0.0000 N   0  0  0  0  0  0  0  0  0  0  0  0
   -5.2857    1.3096   -0.0000 C   0  0  0  0  0  0  0  0  0  0  0  0
   -6.7841   -1.2742   -0.0000 C   0  0  0  0  0  0  0  0  0  0  0  0
   -4.5542    2.6192   -0.0000 O   0  0  0  0  0  0  0  0  0  0  0  0
   -6.7959    1.3096   -0.0000 N   0  0  0  0  0  0  0  0  0  0  0  0
   -7.5510    0.0236   -0.0000 O   0  0  0  0  0  0  0  0  0  0  0  0
   -7.5392   -2.5603   -0.0000 O   0  0  0  0  0  0  0  0  0  0  0  0
   -7.5628    2.6075   -0.0000 C   0  0  0  0  0  0  0  0  0  0  0  0
   -9.0376   -2.5603   -0.0000 C   0  0  0  0  0  0  0  0  0  0  0  0
   -9.0730    2.6075   -0.0000 C   0  0  0  0  0  0  0  0  0  0  0  0
  -10.5478   -2.5367   -0.0000 C   0  0  0  0  0  0  0  0  0  0  0  0
   -9.0494   -4.0469   -0.0000 C   0  0  0  0  0  0  0  0  0  0  0  0
   -9.0494   -1.0501   -0.0000 C   0  0  0  0  0  0  0  0  0  0  0  0
   -9.9579    1.3922   -0.0000 N   0  0  0  0  0  0  0  0  0  0  0  0
   -9.9815    3.8345   -0.0000 N   0  0  0  0  0  0  0  0  0  0  0  0
  -11.3973    1.8642   -0.0000 C   0  0  0  0  0  0  0  0  0  0  0  0
  -11.4209    3.3743   -0.0000 C   0  0  0  0  0  0  0  0  0  0  0  0
   -9.5449    5.2739   -0.0000 C   0  0  0  0  0  0  0  0  0  0  0  0
  -12.7069    1.1326   -0.0000 C   0  0  0  0  0  0  0  0  0  0  0  0
  -12.7305    4.1294   -0.0000 N   0  0  0  0  0  0  0  0  0  0  0  0
   -8.0937    5.6043   -0.0000 C   0  0  0  0  0  0  0  0  0  0  0  0
  -10.8545    6.0290   -0.0000 C   0  0  0  0  0  0  0  0  0  0  0  0
   -9.5567    6.7841   -0.0000 C   0  0  0  0  0  0  0  0  0  0  0  0
  -14.0165    1.8877   -0.0000 C   0  0  0  0  0  0  0  0  0  0  0  0
  -14.0283    3.3979   -0.0000 C   0  0  0  0  0  0  0  0  0  0  0  0
   -7.1027    4.5070   -0.0000 C   0  0  0  0  0  0  0  0  0  0  0  0
   -7.6572    7.0319   -0.0000 C   0  0  0  0  0  0  0  0  0  0  0  0
   -5.6514    4.8374   -0.0000 C   0  0  0  0  0  0  0  0  0  0  0  0
   -6.2178    7.3622   -0.0000 C   0  0  0  0  0  0  0  0  0  0  0  0
   -5.2149    6.2768   -0.0000 C   0  0  0  0  0  0  0  0  0  0  0  0
  1  2  1  0  0  0  0
  2  3  2  0  0  0  0
  2  4  1  0  0  0  0
  3  5  1  0  0  0  0
  3  6  1  0  0  0  0
  4  7  2  0  0  0  0
  4  8  1  0  0  0  0
  6  9  2  0  0  0  0
  8 10  1  0  0  0  0
 10 11  1  1  0  0  0
 10 12  1  0  0  0  0
 11 13  1  0  0  0  0
 12 14  2  0  0  0  0
 12 15  1  0  0  0  0
 13 16  2  0  0  0  0
 13 17  1  0  0  0  0
 15 18  1  0  0  0  0
 17 19  1  0  0  0  0
 18 20  1  0  0  0  0
 19 21  1  0  0  0  0
 19 22  1  0  0  0  0
 19 23  1  0  0  0  0
 20 24  2  0  0  0  0
 20 25  1  0  0  0  0
 24 26  1  0  0  0  0
 25 27  1  0  0  0  0
 25 28  1  0  0  0  0
 26 29  1  0  0  0  0
 27 30  1  0  0  0  0
 28 31  1  0  0  0  0
 28 32  1  0  0  0  0
 28 33  1  0  0  0  0
 29 34  2  0  0  0  0
 30 35  2  0  0  0  0
 31 36  2  0  0  0  0
 31 37  1  0  0  0  0
 36 38  1  0  0  0  0
 37 39  2  0  0  0  0
 38 40  2  0  0  0  0
  7  9  1  0  0  0  0
 26 27  2  0  0  0  0
 32 33  1  0  0  0  0
 34 35  1  0  0  0  0
 39 40  1  0  0  0  0
M  END
>  <MolRegNo>
423734

>  <m>
=

>  <Value>
4600

>  <Unit>
nM

>  <Type>
IC50

>  <pValue>
5.34

>  <Ligand Efficiency>
0

>  <Binding Efficiency>
0

>  <Surface Efficiency>
0

>  <Assay Index>
311290

>  <Assay Category>


>  <Assay Organism>


>  <Target ID>
17045

>  <Target Name>
Cytochrome P450 3A4

>  <Target Organism>
Homo sapiens

>  <Target Description>
Target is a single protein chain

>  <Sequence Accession>
P08684

>  <Reference>
Bioorg Med Chem Lett 18 (5), 1696-1701 (2008)

>  <Pubmed ID>
18243692

>  <DOI>
10.1016/j.bmcl.2008.01.047

$$$$
423731
Actelion Java MolfileCreator 1.0

 39 43  0  0  1  0  0  0  0  0999 V2000
    0.0000   -0.0000   -0.0000 Cl  0  0  0  0  0  0  0  0  0  0  0  0
   -1.4962   -0.0000   -0.0000 C   0  0  0  0  0  0  0  0  0  0  0  0
   -2.2620    1.2959   -0.0000 C   0  0  0  0  0  0  0  0  0  0  0  0
   -2.2502   -1.2959   -0.0000 C   0  0  0  0  0  0  0  0  0  0  0  0
   -3.7582    1.2959   -0.0000 C   0  0  0  0  0  0  0  0  0  0  0  0
   -3.7582   -1.2959   -0.0000 C   0  0  0  0  0  0  0  0  0  0  0  0
   -4.5122    0.0118   -0.0000 C   0  0  0  0  0  0  0  0  0  0  0  0
   -4.5239    2.5918   -0.0000 C   0  0  0  0  0  0  0  0  0  0  0  0
   -6.0319    2.5918   -0.0000 C   0  0  0  0  0  0  0  0  0  0  0  0
   -6.7859    1.3077   -0.0000 N   0  0  0  0  0  0  0  0  0  0  0  0
   -6.7977    3.8878   -0.0000 C   0  0  0  0  0  0  0  0  0  0  0  0
   -8.2939    1.3077   -0.0000 C   0  0  0  0  0  0  0  0  0  0  0  0
   -6.0673    5.1955   -0.0000 O   0  0  0  0  0  0  0  0  0  0  0  0
   -8.3057    3.8878   -0.0000 N   0  0  0  0  0  0  0  0  0  0  0  0
   -9.0597    2.6036   -0.0000 O   0  0  0  0  0  0  0  0  0  0  0  0
   -9.0479    0.0236   -0.0000 O   0  0  0  0  0  0  0  0  0  0  0  0
   -9.0714    5.1837   -0.0000 C   0  0  0  0  0  0  0  0  0  0  0  0
  -10.5559    0.0236   -0.0000 C   0  0  0  0  0  0  0  0  0  0  0  0
  -10.5794    5.1837   -0.0000 C   0  0  0  0  0  0  0  0  0  0  0  0
  -12.0638    0.0471   -0.0000 C   0  0  0  0  0  0  0  0  0  0  0  0
  -10.5676   -1.4609   -0.0000 C   0  0  0  0  0  0  0  0  0  0  0  0
  -10.5676    1.5315   -0.0000 C   0  0  0  0  0  0  0  0  0  0  0  0
  -11.4630    3.9702   -0.0000 N   0  0  0  0  0  0  0  0  0  0  0  0
  -11.4866    6.4089   -0.0000 N   0  0  0  0  0  0  0  0  0  0  0  0
  -12.9003    4.4415   -0.0000 C   0  0  0  0  0  0  0  0  0  0  0  0
  -12.9239    5.9495   -0.0000 C   0  0  0  0  0  0  0  0  0  0  0  0
  -11.0507    7.8462   -0.0000 C   0  0  0  0  0  0  0  0  0  0  0  0
  -14.2080    3.7110   -0.0000 C   0  0  0  0  0  0  0  0  0  0  0  0
  -14.2316    6.7034   -0.0000 N   0  0  0  0  0  0  0  0  0  0  0  0
   -9.6016    8.1761   -0.0000 C   0  0  0  0  0  0  0  0  0  0  0  0
  -12.3584    8.6002   -0.0000 C   0  0  0  0  0  0  0  0  0  0  0  0
  -11.0625    9.3542   -0.0000 C   0  0  0  0  0  0  0  0  0  0  0  0
  -15.5157    4.4650   -0.0000 C   0  0  0  0  0  0  0  0  0  0  0  0
  -15.5275    5.9730   -0.0000 C   0  0  0  0  0  0  0  0  0  0  0  0
   -8.6120    7.0804   -0.0000 C   0  0  0  0  0  0  0  0  0  0  0  0
   -9.1657    9.6016   -0.0000 C   0  0  0  0  0  0  0  0  0  0  0  0
   -7.1747    7.4103   -0.0000 C   0  0  0  0  0  0  0  0  0  0  0  0
   -7.7284    9.9315   -0.0000 C   0  0  0  0  0  0  0  0  0  0  0  0
   -6.7388    8.8476   -0.0000 C   0  0  0  0  0  0  0  0  0  0  0  0
  1  2  1  0  0  0  0
  2  3  2  0  0  0  0
  2  4  1  0  0  0  0
  3  5  1  0  0  0  0
  4  6  2  0  0  0  0
  5  7  2  0  0  0  0
  5  8  1  0  0  0  0
  8  9  1  0  0  0  0
  9 10  1  1  0  0  0
  9 11  1  0  0  0  0
 10 12  1  0  0  0  0
 11 13  2  0  0  0  0
 11 14  1  0  0  0  0
 12 15  2  0  0  0  0
 12 16  1  0  0  0  0
 14 17  1  0  0  0  0
 16 18  1  0  0  0  0
 17 19  1  0  0  0  0
 18 20  1  0  0  0  0
 18 21  1  0  0  0  0
 18 22  1  0  0  0  0
 19 23  2  0  0  0  0
 19 24  1  0  0  0  0
 23 25  1  0  0  0  0
 24 26  1  0  0  0  0
 24 27  1  0  0  0  0
 25 28  1  0  0  0  0
 26 29  1  0  0  0  0
 27 30  1  0  0  0  0
 27 31  1  0  0  0  0
 27 32  1  0  0  0  0
 28 33  2  0  0  0  0
 29 34  2  0  0  0  0
 30 35  2  0  0  0  0
 30 36  1  0  0  0  0
 35 37  1  0  0  0  0
 36 38  2  0  0  0  0
 37 39  2  0  0  0  0
  6  7  1  0  0  0  0
 25 26  2  0  0  0  0
 31 32  1  0  0  0  0
 33 34  1  0  0  0  0
 38 39  1  0  0  0  0
M  END
>  <MolRegNo>
423731

>  <m>
=

>  <Value>
2400

>  <Unit>
nM

>  <Type>
IC50

>  <pValue>
5.62

>  <Ligand Efficiency>
0

>  <Binding Efficiency>
0

>  <Surface Efficiency>
0

>  <Assay Index>
311290

>  <Assay Category>


>  <Assay Organism>


>  <Target ID>
17045

>  <Target Name>
Cytochrome P450 3A4

>  <Target Organism>
Homo sapiens

>  <Target Description>
Target is a single protein chain

>  <Sequence Accession>
P08684

>  <Reference>
Bioorg Med Chem Lett 18 (5), 1696-1701 (2008)

>  <Pubmed ID>
18243692

>  <DOI>
10.1016/j.bmcl.2008.01.047

$$$$
423730
Actelion Java MolfileCreator 1.0

 43 47  0  0  1  0  0  0  0  0999 V2000
    0.0000   -0.0000   -0.0000 F   0  0  0  0  0  0  0  0  0  0  0  0
   -1.4985    0.0118   -0.0000 C   0  0  0  0  0  0  0  0  0  0  0  0
   -1.5221    1.5221   -0.0000 F   0  0  0  0  0  0  0  0  0  0  0  0
   -1.4985   -1.4749   -0.0000 F   0  0  0  0  0  0  0  0  0  0  0  0
   -3.0088    0.0118   -0.0000 O   0  0  0  0  0  0  0  0  0  0  0  0
   -3.7522   -1.2743   -0.0000 C   0  0  0  0  0  0  0  0  0  0  0  0
   -5.2507   -1.2743   -0.0000 C   0  0  0  0  0  0  0  0  0  0  0  0
   -3.0088   -2.5486   -0.0000 C   0  0  0  0  0  0  0  0  0  0  0  0
   -6.0058   -2.5604   -0.0000 C   0  0  0  0  0  0  0  0  0  0  0  0
   -6.0176    0.0236   -0.0000 C   0  0  0  0  0  0  0  0  0  0  0  0
   -3.7640   -3.8466   -0.0000 C   0  0  0  0  0  0  0  0  0  0  0  0
   -5.2625   -3.8348   -0.0000 C   0  0  0  0  0  0  0  0  0  0  0  0
   -7.5279    0.0236   -0.0000 C   0  0  0  0  0  0  0  0  0  0  0  0
   -8.2831   -1.2625   -0.0000 N   0  0  0  0  0  0  0  0  0  0  0  0
   -8.2949    1.3215   -0.0000 C   0  0  0  0  0  0  0  0  0  0  0  0
   -9.7934   -1.2625   -0.0000 C   0  0  0  0  0  0  0  0  0  0  0  0
   -7.5633    2.6312   -0.0000 O   0  0  0  0  0  0  0  0  0  0  0  0
   -9.8052    1.3215   -0.0000 N   0  0  0  0  0  0  0  0  0  0  0  0
  -10.5603    0.0354   -0.0000 O   0  0  0  0  0  0  0  0  0  0  0  0
  -10.5485   -2.5486   -0.0000 O   0  0  0  0  0  0  0  0  0  0  0  0
  -10.5721    2.6194   -0.0000 C   0  0  0  0  0  0  0  0  0  0  0  0
  -12.0470   -2.5486   -0.0000 C   0  0  0  0  0  0  0  0  0  0  0  0
  -12.0824    2.6194   -0.0000 C   0  0  0  0  0  0  0  0  0  0  0  0
  -13.5573   -2.5250   -0.0000 C   0  0  0  0  0  0  0  0  0  0  0  0
  -12.0588   -4.0353   -0.0000 C   0  0  0  0  0  0  0  0  0  0  0  0
  -12.0588   -1.0383   -0.0000 C   0  0  0  0  0  0  0  0  0  0  0  0
  -12.9674    1.4041   -0.0000 N   0  0  0  0  0  0  0  0  0  0  0  0
  -12.9910    3.8466   -0.0000 N   0  0  0  0  0  0  0  0  0  0  0  0
  -14.4069    1.8761   -0.0000 C   0  0  0  0  0  0  0  0  0  0  0  0
  -14.4305    3.3864   -0.0000 C   0  0  0  0  0  0  0  0  0  0  0  0
  -12.5544    5.2861   -0.0000 C   0  0  0  0  0  0  0  0  0  0  0  0
  -15.7166    1.1445   -0.0000 C   0  0  0  0  0  0  0  0  0  0  0  0
  -15.7402    4.1415   -0.0000 N   0  0  0  0  0  0  0  0  0  0  0  0
  -11.1031    5.6164   -0.0000 C   0  0  0  0  0  0  0  0  0  0  0  0
  -13.8641    6.0412   -0.0000 C   0  0  0  0  0  0  0  0  0  0  0  0
  -12.5662    6.7964   -0.0000 C   0  0  0  0  0  0  0  0  0  0  0  0
  -17.0263    1.8997   -0.0000 C   0  0  0  0  0  0  0  0  0  0  0  0
  -17.0381    3.4100   -0.0000 C   0  0  0  0  0  0  0  0  0  0  0  0
  -10.1120    4.5191   -0.0000 C   0  0  0  0  0  0  0  0  0  0  0  0
  -10.6665    7.0442   -0.0000 C   0  0  0  0  0  0  0  0  0  0  0  0
   -8.6724    4.8495   -0.0000 C   0  0  0  0  0  0  0  0  0  0  0  0
   -9.2270    7.3745   -0.0000 C   0  0  0  0  0  0  0  0  0  0  0  0
   -8.2359    6.2890   -0.0000 C   0  0  0  0  0  0  0  0  0  0  0  0
  1  2  1  0  0  0  0
  2  3  1  0  0  0  0
  2  4  1  0  0  0  0
  2  5  1  0  0  0  0
  5  6  1  0  0  0  0
  6  7  2  0  0  0  0
  6  8  1  0  0  0  0
  7  9  1  0  0  0  0
  7 10  1  0  0  0  0
  8 11  2  0  0  0  0
  9 12  2  0  0  0  0
 10 13  1  0  0  0  0
 13 14  1  1  0  0  0
 13 15  1  0  0  0  0
 14 16  1  0  0  0  0
 15 17  2  0  0  0  0
 15 18  1  0  0  0  0
 16 19  2  0  0  0  0
 16 20  1  0  0  0  0
 18 21  1  0  0  0  0
 20 22  1  0  0  0  0
 21 23  1  0  0  0  0
 22 24  1  0  0  0  0
 22 25  1  0  0  0  0
 22 26  1  0  0  0  0
 23 27  2  0  0  0  0
 23 28  1  0  0  0  0
 27 29  1  0  0  0  0
 28 30  1  0  0  0  0
 28 31  1  0  0  0  0
 29 32  1  0  0  0  0
 30 33  1  0  0  0  0
 31 34  1  0  0  0  0
 31 35  1  0  0  0  0
 31 36  1  0  0  0  0
 32 37  2  0  0  0  0
 33 38  2  0  0  0  0
 34 39  2  0  0  0  0
 34 40  1  0  0  0  0
 39 41  1  0  0  0  0
 40 42  2  0  0  0  0
 41 43  2  0  0  0  0
 11 12  1  0  0  0  0
 29 30  2  0  0  0  0
 35 36  1  0  0  0  0
 37 38  1  0  0  0  0
 42 43  1  0  0  0  0
M  END
>  <MolRegNo>
423730

>  <m>
=

>  <Value>
1300

>  <Unit>
nM

>  <Type>
IC50

>  <pValue>
5.89

>  <Ligand Efficiency>
0

>  <Binding Efficiency>
0

>  <Surface Efficiency>
0

>  <Assay Index>
311290

>  <Assay Category>


>  <Assay Organism>


>  <Target ID>
17045

>  <Target Name>
Cytochrome P450 3A4

>  <Target Organism>
Homo sapiens

>  <Target Description>
Target is a single protein chain

>  <Sequence Accession>
P08684

>  <Reference>
Bioorg Med Chem Lett 18 (5), 1696-1701 (2008)

>  <Pubmed ID>
18243692

>  <DOI>
10.1016/j.bmcl.2008.01.047

$$$$
423727
Actelion Java MolfileCreator 1.0

 38 42  0  0  1  0  0  0  0  0999 V2000
    0.0000   -0.0000   -0.0000 O   0  0  0  0  0  0  0  0  0  0  0  0
    0.7448   -1.2768   -0.0000 C   0  0  0  0  0  0  0  0  0  0  0  0
   -0.0118   -2.5654   -0.0000 O   0  0  0  0  0  0  0  0  0  0  0  0
    2.2344   -1.2532   -0.0000 N   0  0  0  0  0  0  0  0  0  0  0  0
   -1.5251   -2.5654   -0.0000 C   0  0  0  0  0  0  0  0  0  0  0  0
    2.9674    0.0591   -0.0000 C   0  0  0  0  0  0  0  0  0  0  0  0
   -3.0383   -2.5418   -0.0000 C   0  0  0  0  0  0  0  0  0  0  0  0
   -1.5369   -4.0550   -0.0000 C   0  0  0  0  0  0  0  0  0  0  0  0
   -1.5369   -1.0522   -0.0000 C   0  0  0  0  0  0  0  0  0  0  0  0
    2.1989    1.3595   -0.0000 C   0  0  0  0  0  0  0  0  0  0  0  0
    4.4570    0.0828   -0.0000 C   0  0  0  0  0  0  0  0  0  0  0  0
    2.9319    2.6718   -0.0000 O   0  0  0  0  0  0  0  0  0  0  0  0
    0.6857    1.3595   -0.0000 N   0  0  0  0  0  0  0  0  0  0  0  0
    5.2018   -1.1940   -0.0000 C   0  0  0  0  0  0  0  0  0  0  0  0
   -0.0828    2.6600   -0.0000 C   0  0  0  0  0  0  0  0  0  0  0  0
    4.4451   -2.4827   -0.0000 C   0  0  0  0  0  0  0  0  0  0  0  0
    6.6795   -1.1704   -0.0000 C   0  0  0  0  0  0  0  0  0  0  0  0
   -1.5960    2.6600   -0.0000 C   0  0  0  0  0  0  0  0  0  0  0  0
    5.1899   -3.7595   -0.0000 C   0  0  0  0  0  0  0  0  0  0  0  0
    7.4243   -2.4472   -0.0000 C   0  0  0  0  0  0  0  0  0  0  0  0
   -2.4827    1.4423   -0.0000 N   0  0  0  0  0  0  0  0  0  0  0  0
   -2.5063    3.8895   -0.0000 N   0  0  0  0  0  0  0  0  0  0  0  0
    6.6795   -3.7358   -0.0000 C   0  0  0  0  0  0  0  0  0  0  0  0
   -3.9250    1.9152   -0.0000 C   0  0  0  0  0  0  0  0  0  0  0  0
   -3.9486    3.4284   -0.0000 C   0  0  0  0  0  0  0  0  0  0  0  0
   -2.0689    5.3318   -0.0000 C   0  0  0  0  0  0  0  0  0  0  0  0
   -5.2372    1.1822   -0.0000 C   0  0  0  0  0  0  0  0  0  0  0  0
   -5.2609    4.1850   -0.0000 N   0  0  0  0  0  0  0  0  0  0  0  0
   -0.6148    5.6628   -0.0000 C   0  0  0  0  0  0  0  0  0  0  0  0
   -3.3811    6.0884   -0.0000 C   0  0  0  0  0  0  0  0  0  0  0  0
   -2.0807    6.8450   -0.0000 C   0  0  0  0  0  0  0  0  0  0  0  0
   -6.5495    1.9388   -0.0000 C   0  0  0  0  0  0  0  0  0  0  0  0
   -6.5613    3.4521   -0.0000 C   0  0  0  0  0  0  0  0  0  0  0  0
    0.3783    4.5634   -0.0000 C   0  0  0  0  0  0  0  0  0  0  0  0
   -0.1773    7.0933   -0.0000 C   0  0  0  0  0  0  0  0  0  0  0  0
    1.8206    4.8944   -0.0000 C   0  0  0  0  0  0  0  0  0  0  0  0
    1.2650    7.4243   -0.0000 C   0  0  0  0  0  0  0  0  0  0  0  0
    2.2699    6.3367   -0.0000 C   0  0  0  0  0  0  0  0  0  0  0  0
  1  2  2  0  0  0  0
  2  3  1  0  0  0  0
  2  4  1  0  0  0  0
  3  5  1  0  0  0  0
  6  4  1  1  0  0  0
  5  7  1  0  0  0  0
  5  8  1  0  0  0  0
  5  9  1  0  0  0  0
  6 10  1  0  0  0  0
  6 11  1  0  0  0  0
 10 12  2  0  0  0  0
 10 13  1  0  0  0  0
 11 14  1  0  0  0  0
 13 15  1  0  0  0  0
 14 16  2  0  0  0  0
 14 17  1  0  0  0  0
 15 18  1  0  0  0  0
 16 19  1  0  0  0  0
 17 20  2  0  0  0  0
 18 21  2  0  0  0  0
 18 22  1  0  0  0  0
 19 23  2  0  0  0  0
 21 24  1  0  0  0  0
 22 25  1  0  0  0  0
 22 26  1  0  0  0  0
 24 27  1  0  0  0  0
 25 28  1  0  0  0  0
 26 29  1  0  0  0  0
 26 30  1  0  0  0  0
 26 31  1  0  0  0  0
 27 32  2  0  0  0  0
 28 33  2  0  0  0  0
 29 34  2  0  0  0  0
 29 35  1  0  0  0  0
 34 36  1  0  0  0  0
 35 37  2  0  0  0  0
 36 38  2  0  0  0  0
 20 23  1  0  0  0  0
 24 25  2  0  0  0  0
 30 31  1  0  0  0  0
 32 33  1  0  0  0  0
 37 38  1  0  0  0  0
M  END
>  <MolRegNo>
423727

>  <m>
=

>  <Value>
6000

>  <Unit>
nM

>  <Type>
IC50

>  <pValue>
5.22

>  <Ligand Efficiency>
0

>  <Binding Efficiency>
0

>  <Surface Efficiency>
0

>  <Assay Index>
311290

>  <Assay Category>


>  <Assay Organism>


>  <Target ID>
17045

>  <Target Name>
Cytochrome P450 3A4

>  <Target Organism>
Homo sapiens

>  <Target Description>
Target is a single protein chain

>  <Sequence Accession>
P08684

>  <Reference>
Bioorg Med Chem Lett 18 (5), 1696-1701 (2008)

>  <Pubmed ID>
18243692

>  <DOI>
10.1016/j.bmcl.2008.01.047

$$$$
423725
Actelion Java MolfileCreator 1.0

 44 49  0  0  1  0  0  0  0  0999 V2000
    0.0000   -0.0000   -0.0000 F   0  0  0  0  0  0  0  0  0  0  0  0
   -0.7440   -1.2873   -0.0000 C   0  0  0  0  0  0  0  0  0  0  0  0
   -2.0549   -0.5433   -0.0000 F   0  0  0  0  0  0  0  0  0  0  0  0
    0.5433   -2.0077   -0.0000 F   0  0  0  0  0  0  0  0  0  0  0  0
   -1.4880   -2.5745   -0.0000 C   0  0  0  0  0  0  0  0  0  0  0  0
   -2.9879   -2.5745   -0.0000 C   0  0  0  0  0  0  0  0  0  0  0  0
   -0.7440   -3.8500   -0.0000 C   0  0  0  0  0  0  0  0  0  0  0  0
   -3.7437   -3.8618   -0.0000 C   0  0  0  0  0  0  0  0  0  0  0  0
   -3.7555   -1.2755   -0.0000 C   0  0  0  0  0  0  0  0  0  0  0  0
   -1.4998   -5.1491   -0.0000 C   0  0  0  0  0  0  0  0  0  0  0  0
   -2.9997   -5.1373   -0.0000 C   0  0  0  0  0  0  0  0  0  0  0  0
   -5.2672   -1.2755   -0.0000 C   0  0  0  0  0  0  0  0  0  0  0  0
   -6.0230   -2.5627   -0.0000 N   0  0  0  0  0  0  0  0  0  0  0  0
   -6.0348    0.0236   -0.0000 C   0  0  0  0  0  0  0  0  0  0  0  0
   -7.5346   -2.5627   -0.0000 C   0  0  0  0  0  0  0  0  0  0  0  0
   -5.3026    1.3345   -0.0000 O   0  0  0  0  0  0  0  0  0  0  0  0
   -7.5465    0.0236   -0.0000 N   0  0  0  0  0  0  0  0  0  0  0  0
   -8.3023   -1.2636   -0.0000 O   0  0  0  0  0  0  0  0  0  0  0  0
   -8.2905   -3.8500   -0.0000 C   0  0  0  0  0  0  0  0  0  0  0  0
   -8.3141    1.3227   -0.0000 C   0  0  0  0  0  0  0  0  0  0  0  0
   -7.1095   -4.7475   -0.0000 C   0  0  0  0  0  0  0  0  0  0  0  0
   -9.6014   -3.1060   -0.0000 C   0  0  0  0  0  0  0  0  0  0  0  0
   -9.5895   -4.6058   -0.0000 C   0  0  0  0  0  0  0  0  0  0  0  0
   -9.8257    1.3227   -0.0000 C   0  0  0  0  0  0  0  0  0  0  0  0
   -5.9521   -5.6451   -0.0000 F   0  0  0  0  0  0  0  0  0  0  0  0
   -6.2119   -3.5547   -0.0000 F   0  0  0  0  0  0  0  0  0  0  0  0
   -8.0307   -5.9285   -0.0000 F   0  0  0  0  0  0  0  0  0  0  0  0
  -10.7115    0.1063   -0.0000 N   0  0  0  0  0  0  0  0  0  0  0  0
  -10.7351    2.5509   -0.0000 N   0  0  0  0  0  0  0  0  0  0  0  0
  -12.1641    0.5787   -0.0000 C   0  0  0  0  0  0  0  0  0  0  0  0
  -12.1759    2.0903   -0.0000 C   0  0  0  0  0  0  0  0  0  0  0  0
  -10.2981    3.9917   -0.0000 C   0  0  0  0  0  0  0  0  0  0  0  0
  -13.4750   -0.1535   -0.0000 C   0  0  0  0  0  0  0  0  0  0  0  0
  -13.4868    2.8462   -0.0000 N   0  0  0  0  0  0  0  0  0  0  0  0
   -8.8455    4.3224   -0.0000 C   0  0  0  0  0  0  0  0  0  0  0  0
  -11.6090    4.7475   -0.0000 C   0  0  0  0  0  0  0  0  0  0  0  0
  -10.3099    5.5034   -0.0000 C   0  0  0  0  0  0  0  0  0  0  0  0
  -14.7858    0.6023   -0.0000 C   0  0  0  0  0  0  0  0  0  0  0  0
  -14.7858    2.1140   -0.0000 C   0  0  0  0  0  0  0  0  0  0  0  0
   -7.8535    3.2241   -0.0000 C   0  0  0  0  0  0  0  0  0  0  0  0
   -8.4086    5.7514   -0.0000 C   0  0  0  0  0  0  0  0  0  0  0  0
   -6.4009    3.5547   -0.0000 C   0  0  0  0  0  0  0  0  0  0  0  0
   -6.9678    6.0820   -0.0000 C   0  0  0  0  0  0  0  0  0  0  0  0
   -5.9521    4.9955   -0.0000 C   0  0  0  0  0  0  0  0  0  0  0  0
  1  2  1  0  0  0  0
  2  3  1  0  0  0  0
  2  4  1  0  0  0  0
  2  5  1  0  0  0  0
  5  6  2  0  0  0  0
  5  7  1  0  0  0  0
  6  8  1  0  0  0  0
  6  9  1  0  0  0  0
  7 10  2  0  0  0  0
  8 11  2  0  0  0  0
  9 12  1  0  0  0  0
 12 13  1  1  0  0  0
 12 14  1  0  0  0  0
 13 15  1  0  0  0  0
 14 16  2  0  0  0  0
 14 17  1  0  0  0  0
 15 18  2  0  0  0  0
 15 19  1  0  0  0  0
 17 20  1  0  0  0  0
 19 21  1  0  0  0  0
 19 22  1  0  0  0  0
 19 23  1  0  0  0  0
 20 24  1  0  0  0  0
 21 25  1  0  0  0  0
 21 26  1  0  0  0  0
 21 27  1  0  0  0  0
 24 28  2  0  0  0  0
 24 29  1  0  0  0  0
 28 30  1  0  0  0  0
 29 31  1  0  0  0  0
 29 32  1  0  0  0  0
 30 33  1  0  0  0  0
 31 34  1  0  0  0  0
 32 35  1  0  0  0  0
 32 36  1  0  0  0  0
 32 37  1  0  0  0  0
 33 38  2  0  0  0  0
 34 39  2  0  0  0  0
 35 40  2  0  0  0  0
 35 41  1  0  0  0  0
 40 42  1  0  0  0  0
 41 43  2  0  0  0  0
 42 44  2  0  0  0  0
 10 11  1  0  0  0  0
 22 23  1  0  0  0  0
 30 31  2  0  0  0  0
 36 37  1  0  0  0  0
 38 39  1  0  0  0  0
 43 44  1  0  0  0  0
M  END
>  <MolRegNo>
423725

>  <m>
=

>  <Value>
1900

>  <Unit>
nM

>  <Type>
IC50

>  <pValue>
5.72

>  <Ligand Efficiency>
0

>  <Binding Efficiency>
0

>  <Surface Efficiency>
0

>  <Assay Index>
311290

>  <Assay Category>


>  <Assay Organism>


>  <Target ID>
17045

>  <Target Name>
Cytochrome P450 3A4

>  <Target Organism>
Homo sapiens

>  <Target Description>
Target is a single protein chain

>  <Sequence Accession>
P08684

>  <Reference>
Bioorg Med Chem Lett 18 (5), 1696-1701 (2008)

>  <Pubmed ID>
18243692

>  <DOI>
10.1016/j.bmcl.2008.01.047

$$$$
423717
Actelion Java MolfileCreator 1.0

 42 46  0  0  1  0  0  0  0  0999 V2000
    0.0000   -0.0000   -0.0000 F   0  0  0  0  0  0  0  0  0  0  0  0
   -0.7438   -1.2869   -0.0000 C   0  0  0  0  0  0  0  0  0  0  0  0
   -2.0543   -0.5431   -0.0000 F   0  0  0  0  0  0  0  0  0  0  0  0
    0.5431   -2.0071   -0.0000 F   0  0  0  0  0  0  0  0  0  0  0  0
   -1.4876   -2.5738   -0.0000 C   0  0  0  0  0  0  0  0  0  0  0  0
   -2.9870   -2.5738   -0.0000 C   0  0  0  0  0  0  0  0  0  0  0  0
   -0.7438   -3.8488   -0.0000 C   0  0  0  0  0  0  0  0  0  0  0  0
   -3.7426   -3.8606   -0.0000 C   0  0  0  0  0  0  0  0  0  0  0  0
   -3.7544   -1.2751   -0.0000 C   0  0  0  0  0  0  0  0  0  0  0  0
   -1.4994   -5.1475   -0.0000 C   0  0  0  0  0  0  0  0  0  0  0  0
   -2.9988   -5.1357   -0.0000 C   0  0  0  0  0  0  0  0  0  0  0  0
   -5.2656   -1.2751   -0.0000 C   0  0  0  0  0  0  0  0  0  0  0  0
   -6.0212   -2.5620   -0.0000 N   0  0  0  0  0  0  0  0  0  0  0  0
   -6.0330    0.0236   -0.0000 C   0  0  0  0  0  0  0  0  0  0  0  0
   -7.5324   -2.5620   -0.0000 C   0  0  0  0  0  0  0  0  0  0  0  0
   -5.3010    1.3341   -0.0000 O   0  0  0  0  0  0  0  0  0  0  0  0
   -7.5442    0.0236   -0.0000 N   0  0  0  0  0  0  0  0  0  0  0  0
   -8.2998   -1.2633   -0.0000 O   0  0  0  0  0  0  0  0  0  0  0  0
   -8.2880   -3.8488   -0.0000 O   0  0  0  0  0  0  0  0  0  0  0  0
   -8.3116    1.3223   -0.0000 C   0  0  0  0  0  0  0  0  0  0  0  0
   -9.7874   -3.8488   -0.0000 C   0  0  0  0  0  0  0  0  0  0  0  0
   -9.8228    1.3223   -0.0000 C   0  0  0  0  0  0  0  0  0  0  0  0
  -11.2986   -3.8252   -0.0000 C   0  0  0  0  0  0  0  0  0  0  0  0
   -9.7992   -5.3364   -0.0000 C   0  0  0  0  0  0  0  0  0  0  0  0
   -9.7992   -2.3376   -0.0000 C   0  0  0  0  0  0  0  0  0  0  0  0
  -10.7082    0.1063   -0.0000 N   0  0  0  0  0  0  0  0  0  0  0  0
  -10.7319    2.5501   -0.0000 N   0  0  0  0  0  0  0  0  0  0  0  0
  -12.1486    0.5785   -0.0000 C   0  0  0  0  0  0  0  0  0  0  0  0
  -12.1722    2.0897   -0.0000 C   0  0  0  0  0  0  0  0  0  0  0  0
  -10.2950    3.9905   -0.0000 C   0  0  0  0  0  0  0  0  0  0  0  0
  -13.4591   -0.1535   -0.0000 C   0  0  0  0  0  0  0  0  0  0  0  0
  -13.4827    2.8453   -0.0000 N   0  0  0  0  0  0  0  0  0  0  0  0
   -8.8429    4.3211   -0.0000 C   0  0  0  0  0  0  0  0  0  0  0  0
  -11.6055    4.7461   -0.0000 C   0  0  0  0  0  0  0  0  0  0  0  0
  -10.3068    5.5017   -0.0000 C   0  0  0  0  0  0  0  0  0  0  0  0
  -14.7696    0.6021   -0.0000 C   0  0  0  0  0  0  0  0  0  0  0  0
  -14.7814    2.1133   -0.0000 C   0  0  0  0  0  0  0  0  0  0  0  0
   -7.8511    3.2231   -0.0000 C   0  0  0  0  0  0  0  0  0  0  0  0
   -8.4060    5.7496   -0.0000 C   0  0  0  0  0  0  0  0  0  0  0  0
   -6.4108    3.5537   -0.0000 C   0  0  0  0  0  0  0  0  0  0  0  0
   -6.9657    6.0802   -0.0000 C   0  0  0  0  0  0  0  0  0  0  0  0
   -5.9739    4.9940   -0.0000 C   0  0  0  0  0  0  0  0  0  0  0  0
  1  2  1  0  0  0  0
  2  3  1  0  0  0  0
  2  4  1  0  0  0  0
  2  5  1  0  0  0  0
  5  6  2  0  0  0  0
  5  7  1  0  0  0  0
  6  8  1  0  0  0  0
  6  9  1  0  0  0  0
  7 10  2  0  0  0  0
  8 11  2  0  0  0  0
  9 12  1  0  0  0  0
 12 13  1  1  0  0  0
 12 14  1  0  0  0  0
 13 15  1  0  0  0  0
 14 16  2  0  0  0  0
 14 17  1  0  0  0  0
 15 18  2  0  0  0  0
 15 19  1  0  0  0  0
 17 20  1  0  0  0  0
 19 21  1  0  0  0  0
 20 22  1  0  0  0  0
 21 23  1  0  0  0  0
 21 24  1  0  0  0  0
 21 25  1  0  0  0  0
 22 26  2  0  0  0  0
 22 27  1  0  0  0  0
 26 28  1  0  0  0  0
 27 29  1  0  0  0  0
 27 30  1  0  0  0  0
 28 31  1  0  0  0  0
 29 32  1  0  0  0  0
 30 33  1  0  0  0  0
 30 34  1  0  0  0  0
 30 35  1  0  0  0  0
 31 36  2  0  0  0  0
 32 37  2  0  0  0  0
 33 38  2  0  0  0  0
 33 39  1  0  0  0  0
 38 40  1  0  0  0  0
 39 41  2  0  0  0  0
 40 42  2  0  0  0  0
 10 11  1  0  0  0  0
 28 29  2  0  0  0  0
 34 35  1  0  0  0  0
 36 37  1  0  0  0  0
 41 42  1  0  0  0  0
M  END
>  <MolRegNo>
423717

>  <m>
=

>  <Value>
820

>  <Unit>
nM

>  <Type>
IC50

>  <pValue>
6.09

>  <Ligand Efficiency>
0

>  <Binding Efficiency>
0

>  <Surface Efficiency>
0

>  <Assay Index>
311290

>  <Assay Category>


>  <Assay Organism>


>  <Target ID>
17045

>  <Target Name>
Cytochrome P450 3A4

>  <Target Organism>
Homo sapiens

>  <Target Description>
Target is a single protein chain

>  <Sequence Accession>
P08684

>  <Reference>
Bioorg Med Chem Lett 18 (5), 1696-1701 (2008)

>  <Pubmed ID>
18243692

>  <DOI>
10.1016/j.bmcl.2008.01.047

$$$$
423707
Actelion Java MolfileCreator 1.0

 37 40  0  0  1  0  0  0  0  0999 V2000
    0.0000   -0.0000   -0.0000 F   0  0  0  0  0  0  0  0  0  0  0  0
   -0.7432   -1.2873   -0.0000 C   0  0  0  0  0  0  0  0  0  0  0  0
   -2.0571   -0.5441   -0.0000 F   0  0  0  0  0  0  0  0  0  0  0  0
    0.5441   -2.0040   -0.0000 F   0  0  0  0  0  0  0  0  0  0  0  0
   -1.4864   -2.5747   -0.0000 C   0  0  0  0  0  0  0  0  0  0  0  0
   -2.9861   -2.5747   -0.0000 C   0  0  0  0  0  0  0  0  0  0  0  0
   -0.7432   -3.8355   -0.0000 C   0  0  0  0  0  0  0  0  0  0  0  0
   -3.7426   -3.8488   -0.0000 C   0  0  0  0  0  0  0  0  0  0  0  0
   -3.7559   -1.2741   -0.0000 C   0  0  0  0  0  0  0  0  0  0  0  0
   -1.4997   -5.1228   -0.0000 C   0  0  0  0  0  0  0  0  0  0  0  0
   -2.9994   -5.1228   -0.0000 C   0  0  0  0  0  0  0  0  0  0  0  0
   -5.2555   -1.2741   -0.0000 C   0  0  0  0  0  0  0  0  0  0  0  0
   -6.0120   -2.5614   -0.0000 N   0  0  0  0  0  0  0  0  0  0  0  0
   -6.0253    0.0265   -0.0000 C   0  0  0  0  0  0  0  0  0  0  0  0
   -7.5117   -2.5614   -0.0000 C   0  0  0  0  0  0  0  0  0  0  0  0
   -5.2954    1.3404   -0.0000 O   0  0  0  0  0  0  0  0  0  0  0  0
   -7.5250    0.0265   -0.0000 N   0  0  0  0  0  0  0  0  0  0  0  0
   -8.2815   -1.2608   -0.0000 O   0  0  0  0  0  0  0  0  0  0  0  0
   -8.2682   -3.8488   -0.0000 O   0  0  0  0  0  0  0  0  0  0  0  0
   -8.2947    1.3272   -0.0000 C   0  0  0  0  0  0  0  0  0  0  0  0
   -9.7679   -3.8488   -0.0000 C   0  0  0  0  0  0  0  0  0  0  0  0
   -9.7944    1.3272   -0.0000 C   0  0  0  0  0  0  0  0  0  0  0  0
  -11.4666   -3.9151   -0.0000 C   0  0  0  0  0  0  0  0  0  0  0  0
   -9.8210   -5.2555   -0.0000 C   0  0  0  0  0  0  0  0  0  0  0  0
   -9.7812   -2.3491   -0.0000 C   0  0  0  0  0  0  0  0  0  0  0  0
  -10.6836    0.1194   -0.0000 N   0  0  0  0  0  0  0  0  0  0  0  0
  -10.6969    2.5481   -0.0000 N   0  0  0  0  0  0  0  0  0  0  0  0
  -12.1302    0.5839   -0.0000 C   0  0  0  0  0  0  0  0  0  0  0  0
  -12.1302    2.0836   -0.0000 C   0  0  0  0  0  0  0  0  0  0  0  0
  -10.2589    3.9815   -0.0000 C   0  0  0  0  0  0  0  0  0  0  0  0
  -13.4441   -0.1460   -0.0000 C   0  0  0  0  0  0  0  0  0  0  0  0
  -13.4308    2.8401   -0.0000 N   0  0  0  0  0  0  0  0  0  0  0  0
   -8.8123    4.3133   -0.0000 C   0  0  0  0  0  0  0  0  0  0  0  0
  -14.7447    0.6105   -0.0000 C   0  0  0  0  0  0  0  0  0  0  0  0
  -14.7315    2.1102   -0.0000 C   0  0  0  0  0  0  0  0  0  0  0  0
   -7.4055    3.8753   -0.0000 C   0  0  0  0  0  0  0  0  0  0  0  0
   -7.7241    5.3352   -0.0000 C   0  0  0  0  0  0  0  0  0  0  0  0
  1  2  1  0  0  0  0
  2  3  1  0  0  0  0
  2  4  1  0  0  0  0
  2  5  1  0  0  0  0
  5  6  2  0  0  0  0
  5  7  1  0  0  0  0
  6  8  1  0  0  0  0
  6  9  1  0  0  0  0
  7 10  2  0  0  0  0
  8 11  2  0  0  0  0
  9 12  1  0  0  0  0
 12 13  1  1  0  0  0
 12 14  1  0  0  0  0
 13 15  1  0  0  0  0
 14 16  2  0  0  0  0
 14 17  1  0  0  0  0
 15 18  2  0  0  0  0
 15 19  1  0  0  0  0
 17 20  1  0  0  0  0
 19 21  1  0  0  0  0
 20 22  1  0  0  0  0
 21 23  1  0  0  0  0
 21 24  1  0  0  0  0
 21 25  1  0  0  0  0
 22 26  2  0  0  0  0
 22 27  1  0  0  0  0
 26 28  1  0  0  0  0
 27 29  1  0  0  0  0
 27 30  1  0  0  0  0
 28 31  1  0  0  0  0
 29 32  1  0  0  0  0
 30 33  1  0  0  0  0
 31 34  2  0  0  0  0
 32 35  2  0  0  0  0
 33 36  1  0  0  0  0
 33 37  1  0  0  0  0
 10 11  1  0  0  0  0
 28 29  2  0  0  0  0
 34 35  1  0  0  0  0
 36 37  1  0  0  0  0
M  END
>  <MolRegNo>
423707

>  <m>
=

>  <Value>
2430

>  <Unit>
nM

>  <Type>
IC50

>  <pValue>
5.61

>  <Ligand Efficiency>
0

>  <Binding Efficiency>
0

>  <Surface Efficiency>
0

>  <Assay Index>
311290

>  <Assay Category>


>  <Assay Organism>


>  <Target ID>
17045

>  <Target Name>
Cytochrome P450 3A4

>  <Target Organism>
Homo sapiens

>  <Target Description>
Target is a single protein chain

>  <Sequence Accession>
P08684

>  <Reference>
Bioorg Med Chem Lett 18 (5), 1696-1701 (2008)

>  <Pubmed ID>
18243692

>  <DOI>
10.1016/j.bmcl.2008.01.047

$$$$
423705
Actelion Java MolfileCreator 1.0

 41 43  0  0  1  0  0  0  0  0999 V2000
    0.0000   -0.0000   -0.0000 F   0  0  0  0  0  0  0  0  0  0  0  0
   -0.7435   -1.2864   -0.0000 C   0  0  0  0  0  0  0  0  0  0  0  0
   -2.0536   -0.5429   -0.0000 F   0  0  0  0  0  0  0  0  0  0  0  0
    0.5429   -2.0064   -0.0000 F   0  0  0  0  0  0  0  0  0  0  0  0
   -1.4871   -2.5729   -0.0000 C   0  0  0  0  0  0  0  0  0  0  0  0
   -2.9860   -2.5729   -0.0000 C   0  0  0  0  0  0  0  0  0  0  0  0
   -0.7435   -3.8475   -0.0000 C   0  0  0  0  0  0  0  0  0  0  0  0
   -3.7413   -3.8593   -0.0000 C   0  0  0  0  0  0  0  0  0  0  0  0
   -3.7531   -1.2746   -0.0000 C   0  0  0  0  0  0  0  0  0  0  0  0
   -1.4989   -5.1458   -0.0000 C   0  0  0  0  0  0  0  0  0  0  0  0
   -2.9978   -5.1340   -0.0000 C   0  0  0  0  0  0  0  0  0  0  0  0
   -5.2638   -1.2746   -0.0000 C   0  0  0  0  0  0  0  0  0  0  0  0
   -6.0191   -2.5611   -0.0000 N   0  0  0  0  0  0  0  0  0  0  0  0
   -6.0309    0.0236   -0.0000 C   0  0  0  0  0  0  0  0  0  0  0  0
   -7.5298   -2.5611   -0.0000 C   0  0  0  0  0  0  0  0  0  0  0  0
   -5.2992    1.3336   -0.0000 O   0  0  0  0  0  0  0  0  0  0  0  0
   -7.5416    0.0236   -0.0000 N   0  0  0  0  0  0  0  0  0  0  0  0
   -8.2970   -1.2628   -0.0000 O   0  0  0  0  0  0  0  0  0  0  0  0
   -8.2852   -3.8475   -0.0000 O   0  0  0  0  0  0  0  0  0  0  0  0
   -8.3088    1.3218   -0.0000 C   0  0  0  0  0  0  0  0  0  0  0  0
   -9.7958   -3.8475   -0.0000 C   0  0  0  0  0  0  0  0  0  0  0  0
   -9.8194    1.3218   -0.0000 C   0  0  0  0  0  0  0  0  0  0  0  0
  -11.3065   -3.8239   -0.0000 C   0  0  0  0  0  0  0  0  0  0  0  0
   -9.8076   -5.3346   -0.0000 C   0  0  0  0  0  0  0  0  0  0  0  0
   -9.8076   -2.3368   -0.0000 C   0  0  0  0  0  0  0  0  0  0  0  0
  -10.7046    0.1062   -0.0000 N   0  0  0  0  0  0  0  0  0  0  0  0
  -10.7282    2.5493   -0.0000 N   0  0  0  0  0  0  0  0  0  0  0  0
  -12.1445    0.5783   -0.0000 C   0  0  0  0  0  0  0  0  0  0  0  0
  -12.1681    2.0890   -0.0000 C   0  0  0  0  0  0  0  0  0  0  0  0
  -10.2915    3.9891   -0.0000 C   0  0  0  0  0  0  0  0  0  0  0  0
  -13.4545   -0.1534   -0.0000 C   0  0  0  0  0  0  0  0  0  0  0  0
  -13.4781    2.8443   -0.0000 N   0  0  0  0  0  0  0  0  0  0  0  0
   -8.8399    4.3196   -0.0000 C   0  0  0  0  0  0  0  0  0  0  0  0
  -14.7646    0.6019   -0.0000 C   0  0  0  0  0  0  0  0  0  0  0  0
  -14.7764    2.1126   -0.0000 C   0  0  0  0  0  0  0  0  0  0  0  0
   -8.4976    2.8797   -0.0000 F   0  0  0  0  0  0  0  0  0  0  0  0
   -9.2057    5.7831   -0.0000 F   0  0  0  0  0  0  0  0  0  0  0  0
   -7.4118    4.7209   -0.0000 C   0  0  0  0  0  0  0  0  0  0  0  0
   -5.9837    5.1222   -0.0000 F   0  0  0  0  0  0  0  0  0  0  0  0
   -7.8131    6.1726   -0.0000 F   0  0  0  0  0  0  0  0  0  0  0  0
   -7.0341    3.2928   -0.0000 F   0  0  0  0  0  0  0  0  0  0  0  0
  1  2  1  0  0  0  0
  2  3  1  0  0  0  0
  2  4  1  0  0  0  0
  2  5  1  0  0  0  0
  5  6  2  0  0  0  0
  5  7  1  0  0  0  0
  6  8  1  0  0  0  0
  6  9  1  0  0  0  0
  7 10  2  0  0  0  0
  8 11  2  0  0  0  0
  9 12  1  0  0  0  0
 12 13  1  1  0  0  0
 12 14  1  0  0  0  0
 13 15  1  0  0  0  0
 14 16  2  0  0  0  0
 14 17  1  0  0  0  0
 15 18  2  0  0  0  0
 15 19  1  0  0  0  0
 17 20  1  0  0  0  0
 19 21  1  0  0  0  0
 20 22  1  0  0  0  0
 21 23  1  0  0  0  0
 21 24  1  0  0  0  0
 21 25  1  0  0  0  0
 22 26  2  0  0  0  0
 22 27  1  0  0  0  0
 26 28  1  0  0  0  0
 27 29  1  0  0  0  0
 27 30  1  0  0  0  0
 28 31  1  0  0  0  0
 29 32  1  0  0  0  0
 30 33  1  0  0  0  0
 31 34  2  0  0  0  0
 32 35  2  0  0  0  0
 33 36  1  0  0  0  0
 33 37  1  0  0  0  0
 33 38  1  0  0  0  0
 38 39  1  0  0  0  0
 38 40  1  0  0  0  0
 38 41  1  0  0  0  0
 10 11  1  0  0  0  0
 28 29  2  0  0  0  0
 34 35  1  0  0  0  0
M  END
>  <MolRegNo>
423705

>  <m>
=

>  <Value>
980

>  <Unit>
nM

>  <Type>
IC50

>  <pValue>
6.01

>  <Ligand Efficiency>
0

>  <Binding Efficiency>
0

>  <Surface Efficiency>
0

>  <Assay Index>
311290

>  <Assay Category>


>  <Assay Organism>


>  <Target ID>
17045

>  <Target Name>
Cytochrome P450 3A4

>  <Target Organism>
Homo sapiens

>  <Target Description>
Target is a single protein chain

>  <Sequence Accession>
P08684

>  <Reference>
Bioorg Med Chem Lett 18 (5), 1696-1701 (2008)

>  <Pubmed ID>
18243692

>  <DOI>
10.1016/j.bmcl.2008.01.047

$$$$
423695
Actelion Java MolfileCreator 1.0

 38 41  0  0  1  0  0  0  0  0999 V2000
    0.0000   -0.0000   -0.0000 F   0  0  0  0  0  0  0  0  0  0  0  0
   -0.7431   -1.2857   -0.0000 C   0  0  0  0  0  0  0  0  0  0  0  0
   -2.0523   -0.5426   -0.0000 F   0  0  0  0  0  0  0  0  0  0  0  0
    0.5426   -2.0052   -0.0000 F   0  0  0  0  0  0  0  0  0  0  0  0
   -1.4862   -2.5713   -0.0000 C   0  0  0  0  0  0  0  0  0  0  0  0
   -2.9842   -2.5713   -0.0000 C   0  0  0  0  0  0  0  0  0  0  0  0
   -0.7431   -3.8452   -0.0000 C   0  0  0  0  0  0  0  0  0  0  0  0
   -3.7390   -3.8570   -0.0000 C   0  0  0  0  0  0  0  0  0  0  0  0
   -3.7508   -1.2739   -0.0000 C   0  0  0  0  0  0  0  0  0  0  0  0
   -1.4980   -5.1427   -0.0000 C   0  0  0  0  0  0  0  0  0  0  0  0
   -2.9960   -5.1309   -0.0000 C   0  0  0  0  0  0  0  0  0  0  0  0
   -5.2606   -1.2739   -0.0000 C   0  0  0  0  0  0  0  0  0  0  0  0
   -6.0155   -2.5595   -0.0000 N   0  0  0  0  0  0  0  0  0  0  0  0
   -6.0273    0.0236   -0.0000 C   0  0  0  0  0  0  0  0  0  0  0  0
   -7.5253   -2.5595   -0.0000 C   0  0  0  0  0  0  0  0  0  0  0  0
   -5.2960    1.3328   -0.0000 O   0  0  0  0  0  0  0  0  0  0  0  0
   -7.5371    0.0236   -0.0000 N   0  0  0  0  0  0  0  0  0  0  0  0
   -8.2919   -1.2621   -0.0000 O   0  0  0  0  0  0  0  0  0  0  0  0
   -8.2802   -3.8452   -0.0000 O   0  0  0  0  0  0  0  0  0  0  0  0
   -8.3037    1.3210   -0.0000 C   0  0  0  0  0  0  0  0  0  0  0  0
   -9.7899   -3.8452   -0.0000 C   0  0  0  0  0  0  0  0  0  0  0  0
   -9.8135    1.3210   -0.0000 C   0  0  0  0  0  0  0  0  0  0  0  0
  -11.2997   -3.8216   -0.0000 C   0  0  0  0  0  0  0  0  0  0  0  0
   -9.8017   -5.3314   -0.0000 C   0  0  0  0  0  0  0  0  0  0  0  0
   -9.8017   -2.3354   -0.0000 C   0  0  0  0  0  0  0  0  0  0  0  0
  -10.6981    0.1062   -0.0000 N   0  0  0  0  0  0  0  0  0  0  0  0
  -10.7217    2.5477   -0.0000 N   0  0  0  0  0  0  0  0  0  0  0  0
  -12.1371    0.5780   -0.0000 C   0  0  0  0  0  0  0  0  0  0  0  0
  -12.1607    2.0877   -0.0000 C   0  0  0  0  0  0  0  0  0  0  0  0
  -10.2853    3.9867   -0.0000 C   0  0  0  0  0  0  0  0  0  0  0  0
  -13.4464   -0.1533   -0.0000 C   0  0  0  0  0  0  0  0  0  0  0  0
  -13.4700    2.8426   -0.0000 N   0  0  0  0  0  0  0  0  0  0  0  0
   -8.8345    4.3170   -0.0000 C   0  0  0  0  0  0  0  0  0  0  0  0
  -11.2997    5.1073   -0.0000 C   0  0  0  0  0  0  0  0  0  0  0  0
  -14.7557    0.6015   -0.0000 C   0  0  0  0  0  0  0  0  0  0  0  0
  -14.7675    2.1113   -0.0000 C   0  0  0  0  0  0  0  0  0  0  0  0
   -7.4191    3.8806   -0.0000 C   0  0  0  0  0  0  0  0  0  0  0  0
   -7.7376    5.3314   -0.0000 C   0  0  0  0  0  0  0  0  0  0  0  0
  1  2  1  0  0  0  0
  2  3  1  0  0  0  0
  2  4  1  0  0  0  0
  2  5  1  0  0  0  0
  5  6  2  0  0  0  0
  5  7  1  0  0  0  0
  6  8  1  0  0  0  0
  6  9  1  0  0  0  0
  7 10  2  0  0  0  0
  8 11  2  0  0  0  0
  9 12  1  0  0  0  0
 12 13  1  1  0  0  0
 12 14  1  0  0  0  0
 13 15  1  0  0  0  0
 14 16  2  0  0  0  0
 14 17  1  0  0  0  0
 15 18  2  0  0  0  0
 15 19  1  0  0  0  0
 17 20  1  0  0  0  0
 19 21  1  0  0  0  0
 20 22  1  0  0  0  0
 21 23  1  0  0  0  0
 21 24  1  0  0  0  0
 21 25  1  0  0  0  0
 22 26  2  0  0  0  0
 22 27  1  0  0  0  0
 26 28  1  0  0  0  0
 27 29  1  0  0  0  0
 27 30  1  0  0  0  0
 28 31  1  0  0  0  0
 29 32  1  0  0  0  0
 30 33  1  0  0  0  0
 30 34  1  0  0  0  0
 31 35  2  0  0  0  0
 32 36  2  0  0  0  0
 33 37  1  0  0  0  0
 33 38  1  0  0  0  0
 10 11  1  0  0  0  0
 28 29  2  0  0  0  0
 35 36  1  0  0  0  0
 37 38  1  0  0  0  0
M  END
>  <MolRegNo>
423695

>  <m>
=

>  <Value>
860

>  <Unit>
nM

>  <Type>
IC50

>  <pValue>
6.07

>  <Ligand Efficiency>
0

>  <Binding Efficiency>
0

>  <Surface Efficiency>
0

>  <Assay Index>
311290

>  <Assay Category>


>  <Assay Organism>


>  <Target ID>
17045

>  <Target Name>
Cytochrome P450 3A4

>  <Target Organism>
Homo sapiens

>  <Target Description>
Target is a single protein chain

>  <Sequence Accession>
P08684

>  <Reference>
Bioorg Med Chem Lett 18 (5), 1696-1701 (2008)

>  <Pubmed ID>
18243692

>  <DOI>
10.1016/j.bmcl.2008.01.047

$$$$
424432
Actelion Java MolfileCreator 1.0

 37 41  0  0  0  0  0  0  0  0999 V2000
    0.0000   -0.0000   -0.0000 O   0  0  0  0  0  0  0  0  0  0  0  0
   -1.3114   -0.7325   -0.0000 C   0  0  0  0  0  0  0  0  0  0  0  0
   -2.6110    0.0354   -0.0000 N   0  0  0  0  0  0  0  0  0  0  0  0
   -1.3350   -2.2211   -0.0000 C   0  0  0  0  0  0  0  0  0  0  0  0
   -3.9224   -0.6971   -0.0000 C   0  0  0  0  0  0  0  0  0  0  0  0
   -2.6110    1.5477   -0.0000 C   0  0  0  0  0  0  0  0  0  0  0  0
   -0.0473   -2.9536   -0.0000 C   0  0  0  0  0  0  0  0  0  0  0  0
   -2.6465   -2.9418   -0.0000 C   0  0  0  0  0  0  0  0  0  0  0  0
   -5.2220    0.0709   -0.0000 C   0  0  0  0  0  0  0  0  0  0  0  0
   -3.9224    2.3156   -0.0000 C   0  0  0  0  0  0  0  0  0  0  0  0
   -0.0591   -4.4423   -0.0000 N   0  0  0  0  0  0  0  0  0  0  0  0
    1.2405   -2.1975   -0.0000 C   0  0  0  0  0  0  0  0  0  0  0  0
   -2.6701   -4.4305   -0.0000 C   0  0  0  0  0  0  0  0  0  0  0  0
   -3.9461   -2.1739   -0.0000 C   0  0  0  0  0  0  0  0  0  0  0  0
   -5.2220    1.5831   -0.0000 C   0  0  0  0  0  0  0  0  0  0  0  0
    1.2169   -5.1748   -0.0000 O   0  0  0  0  0  0  0  0  0  0  0  0
   -1.3823   -5.1748   -0.0000 C   0  0  0  0  0  0  0  0  0  0  0  0
   -6.5334    0.8506   -0.0000 N   0  0  0  0  0  0  0  0  0  0  0  0
   -5.2457    3.0954   -0.0000 C   0  0  0  0  0  0  0  0  0  0  0  0
   -6.5571   -0.6380   -0.0000 C   0  0  0  0  0  0  0  0  0  0  0  0
   -7.8449    1.6186   -0.0000 C   0  0  0  0  0  0  0  0  0  0  0  0
   -7.8685   -1.3705   -0.0000 C   0  0  0  0  0  0  0  0  0  0  0  0
   -9.1563    0.8861   -0.0000 C   0  0  0  0  0  0  0  0  0  0  0  0
   -9.1799   -0.6025   -0.0000 C   0  0  0  0  0  0  0  0  0  0  0  0
  -10.4913   -1.3350   -0.0000 N   0  0  0  0  0  0  0  0  0  0  0  0
  -10.5031   -2.8237   -0.0000 C   0  0  0  0  0  0  0  0  0  0  0  0
  -11.8027   -0.5789   -0.0000 C   0  0  0  0  0  0  0  0  0  0  0  0
  -11.8145   -3.5562   -0.0000 C   0  0  0  0  0  0  0  0  0  0  0  0
   -9.2272   -3.5562   -0.0000 C   0  0  0  0  0  0  0  0  0  0  0  0
  -11.8027    0.9333   -0.0000 C   0  0  0  0  0  0  0  0  0  0  0  0
  -13.1023   -1.3114   -0.0000 C   0  0  0  0  0  0  0  0  0  0  0  0
  -11.8264   -5.0448   -0.0000 N   0  0  0  0  0  0  0  0  0  0  0  0
   -9.2390   -5.0448   -0.0000 C   0  0  0  0  0  0  0  0  0  0  0  0
  -13.1141    1.6895   -0.0000 C   0  0  0  0  0  0  0  0  0  0  0  0
  -14.4137   -0.5553   -0.0000 C   0  0  0  0  0  0  0  0  0  0  0  0
  -10.5386   -5.7891   -0.0000 C   0  0  0  0  0  0  0  0  0  0  0  0
  -14.4256    0.9570   -0.0000 C   0  0  0  0  0  0  0  0  0  0  0  0
  1  2  2  0  0  0  0
  2  3  1  0  0  0  0
  2  4  1  0  0  0  0
  3  5  1  0  0  0  0
  3  6  1  0  0  0  0
  4  7  2  0  0  0  0
  4  8  1  0  0  0  0
  5  9  1  0  0  0  0
  6 10  1  0  0  0  0
  7 11  1  0  0  0  0
  7 12  1  0  0  0  0
  8 13  2  0  0  0  0
  8 14  1  0  0  0  0
  9 15  1  0  0  0  0
 11 16  1  0  0  0  0
 11 17  2  0  0  0  0
 15 18  1  0  0  0  0
 15 19  1  0  0  0  0
 18 20  1  0  0  0  0
 18 21  1  0  0  0  0
 20 22  1  0  0  0  0
 21 23  1  0  0  0  0
 22 24  1  0  0  0  0
 24 25  1  0  0  0  0
 25 26  1  0  0  0  0
 25 27  1  0  0  0  0
 26 28  2  0  0  0  0
 26 29  1  0  0  0  0
 27 30  2  0  0  0  0
 27 31  1  0  0  0  0
 28 32  1  0  0  0  0
 29 33  2  0  0  0  0
 30 34  1  0  0  0  0
 31 35  2  0  0  0  0
 32 36  2  0  0  0  0
 34 37  2  0  0  0  0
 10 15  1  0  0  0  0
 13 17  1  0  0  0  0
 23 24  1  0  0  0  0
 33 36  1  0  0  0  0
 35 37  1  0  0  0  0
M  CHG  2  11   1  16  -1
M  END
>  <MolRegNo>
424432

>  <m>
=

>  <Value>
5300

>  <Unit>
nM

>  <Type>
IC50

>  <pValue>
5.28

>  <Ligand Efficiency>
0

>  <Binding Efficiency>
0

>  <Surface Efficiency>
0

>  <Assay Index>
311488

>  <Assay Category>


>  <Assay Organism>


>  <Target ID>
17045

>  <Target Name>
Cytochrome P450 3A4

>  <Target Organism>
Homo sapiens

>  <Target Description>
Target is a single protein chain

>  <Sequence Accession>
P08684

>  <Reference>
Bioorg Med Chem Lett 18 (6), 2000-2005 (2008)

>  <Pubmed ID>
18267361

>  <DOI>
10.1016/j.bmcl.2008.01.108

$$$$
424604
Actelion Java MolfileCreator 1.0

 43 47  0  0  1  0  0  0  0  0999 V2000
    0.0000   -0.0000   -0.0000 P   0  0  0  0  0  0  0  0  0  0  0  0
    1.5011    0.0119   -0.0000 O   0  0  0  0  0  0  0  0  0  0  0  0
   -0.0119   -1.4892   -0.0000 O   0  0  0  0  0  0  0  0  0  0  0  0
   -0.0119    1.5249   -0.0000 O   0  0  0  0  0  0  0  0  0  0  0  0
   -1.5249    0.0119   -0.0000 O   0  0  0  0  0  0  0  0  0  0  0  0
   -1.3224   -2.2278   -0.0000 C   0  0  0  0  0  0  0  0  0  0  0  0
   -1.1675   -3.7169   -0.0000 C   0  0  0  0  0  0  0  0  0  0  0  0
    0.1310   -4.4437   -0.0000 N   0  0  0  0  0  0  0  0  0  0  0  0
   -2.2993   -4.7177   -0.0000 C   0  0  0  0  0  0  0  0  0  0  0  0
   -0.1906   -5.9090   -0.0000 C   0  0  0  0  0  0  0  0  0  0  0  0
    1.4177   -3.6574   -0.0000 C   0  0  0  0  0  0  0  0  0  0  0  0
   -1.6798   -6.0758   -0.0000 C   0  0  0  0  0  0  0  0  0  0  0  0
    2.7162   -4.3960   -0.0000 C   0  0  0  0  0  0  0  0  0  0  0  0
    4.0029   -3.6216   -0.0000 C   0  0  0  0  0  0  0  0  0  0  0  0
    5.3014   -4.3603   -0.0000 O   0  0  0  0  0  0  0  0  0  0  0  0
    6.6000   -3.5859   -0.0000 C   0  0  0  0  0  0  0  0  0  0  0  0
    7.8985   -4.3245   -0.0000 C   0  0  0  0  0  0  0  0  0  0  0  0
    6.5880   -2.0729   -0.0000 C   0  0  0  0  0  0  0  0  0  0  0  0
    9.1851   -3.5621   -0.0000 C   0  0  0  0  0  0  0  0  0  0  0  0
    7.8747   -1.3105   -0.0000 C   0  0  0  0  0  0  0  0  0  0  0  0
    9.1732   -2.0491   -0.0000 C   0  0  0  0  0  0  0  0  0  0  0  0
   10.4718   -4.3007   -0.0000 C   0  0  0  0  0  0  0  0  0  0  0  0
   10.4599   -1.2866   -0.0000 C   0  0  0  0  0  0  0  0  0  0  0  0
   11.7703   -3.5382   -0.0000 N   0  0  0  0  0  0  0  0  0  0  0  0
   11.7465   -2.0253   -0.0000 N   0  0  0  0  0  0  0  0  0  0  0  0
   10.4480    0.2264   -0.0000 N   0  0  0  0  0  0  0  0  0  0  0  0
   11.7346    0.9888   -0.0000 C   0  0  0  0  0  0  0  0  0  0  0  0
   11.7227    2.5137   -0.0000 C   0  0  0  0  0  0  0  0  0  0  0  0
   13.1523    0.5361   -0.0000 C   0  0  0  0  0  0  0  0  0  0  0  0
   13.1284    2.9902   -0.0000 N   0  0  0  0  0  0  0  0  0  0  0  0
   14.0219    1.7632   -0.0000 N   0  0  0  0  0  0  0  0  0  0  0  0
   15.5111    1.7870   -0.0000 C   0  0  0  0  0  0  0  0  0  0  0  0
   16.2497    0.5004   -0.0000 C   0  0  0  0  0  0  0  0  0  0  0  0
   15.4873   -0.7982   -0.0000 O   0  0  0  0  0  0  0  0  0  0  0  0
   17.7508    0.5123   -0.0000 N   0  0  0  0  0  0  0  0  0  0  0  0
   18.4894   -0.7744   -0.0000 C   0  0  0  0  0  0  0  0  0  0  0  0
   19.9905   -0.7625   -0.0000 C   0  0  0  0  0  0  0  0  0  0  0  0
   17.7270   -2.0610   -0.0000 C   0  0  0  0  0  0  0  0  0  0  0  0
   20.7410    0.5599   -0.0000 F   0  0  0  0  0  0  0  0  0  0  0  0
   20.7291   -2.0491   -0.0000 C   0  0  0  0  0  0  0  0  0  0  0  0
   18.4656   -3.3476   -0.0000 C   0  0  0  0  0  0  0  0  0  0  0  0
   22.2183   -2.0372   -0.0000 F   0  0  0  0  0  0  0  0  0  0  0  0
   19.9667   -3.3476   -0.0000 C   0  0  0  0  0  0  0  0  0  0  0  0
  1  2  2  0  0  0  0
  1  3  1  0  0  0  0
  1  4  1  0  0  0  0
  1  5  1  0  0  0  0
  3  6  1  0  0  0  0
  7  6  1  6  0  0  0
  7  8  1  0  0  0  0
  7  9  1  0  0  0  0
  8 10  1  0  0  0  0
  8 11  1  0  0  0  0
  9 12  1  0  0  0  0
 11 13  1  0  0  0  0
 13 14  1  0  0  0  0
 14 15  1  0  0  0  0
 15 16  1  0  0  0  0
 16 17  2  0  0  0  0
 16 18  1  0  0  0  0
 17 19  1  0  0  0  0
 18 20  2  0  0  0  0
 19 21  1  0  0  0  0
 19 22  2  0  0  0  0
 21 23  2  0  0  0  0
 22 24  1  0  0  0  0
 23 25  1  0  0  0  0
 23 26  1  0  0  0  0
 26 27  1  0  0  0  0
 27 28  1  0  0  0  0
 27 29  2  0  0  0  0
 28 30  2  0  0  0  0
 29 31  1  0  0  0  0
 31 32  1  0  0  0  0
 32 33  1  0  0  0  0
 33 34  2  0  0  0  0
 33 35  1  0  0  0  0
 35 36  1  0  0  0  0
 36 37  2  0  0  0  0
 36 38  1  0  0  0  0
 37 39  1  0  0  0  0
 37 40  1  0  0  0  0
 38 41  2  0  0  0  0
 40 42  1  0  0  0  0
 40 43  2  0  0  0  0
 10 12  1  0  0  0  0
 20 21  1  0  0  0  0
 24 25  2  0  0  0  0
 30 31  1  0  0  0  0
 41 43  1  0  0  0  0
M  END
>  <MolRegNo>
424604

>  <m>
=

>  <Value>
6100

>  <Unit>
nM

>  <Type>
IC50

>  <pValue>
5.21

>  <Ligand Efficiency>
0

>  <Binding Efficiency>
0

>  <Surface Efficiency>
0

>  <Assay Index>
311606

>  <Assay Category>


>  <Assay Organism>
Homo sapiens

>  <Target ID>
17045

>  <Target Name>
Cytochrome P450 3A4

>  <Target Organism>
Homo sapiens

>  <Target Description>
Target is a single protein chain

>  <Sequence Accession>
P08684

>  <Reference>
Bioorg Med Chem Lett 18 (6), 1904-1909 (2008)

>  <Pubmed ID>
18294849

>  <DOI>
10.1016/j.bmcl.2008.02.002

$$$$
424898
Actelion Java MolfileCreator 1.0

 36 39  0  0  0  0  0  0  0  0999 V2000
    0.0000   -0.0000   -0.0000 O   0  0  0  0  0  0  0  0  0  0  0  0
   -0.0119    1.5118   -0.0000 C   0  0  0  0  0  0  0  0  0  0  0  0
   -1.3213    2.2737   -0.0000 N   0  0  0  0  0  0  0  0  0  0  0  0
    1.2737    2.2737   -0.0000 C   0  0  0  0  0  0  0  0  0  0  0  0
   -2.6308    1.5356   -0.0000 C   0  0  0  0  0  0  0  0  0  0  0  0
    2.5594    1.5356   -0.0000 O   0  0  0  0  0  0  0  0  0  0  0  0
   -2.6427    0.0357   -0.0000 N   0  0  0  0  0  0  0  0  0  0  0  0
   -3.9402    2.2975   -0.0000 C   0  0  0  0  0  0  0  0  0  0  0  0
    3.8450    2.2975   -0.0000 C   0  0  0  0  0  0  0  0  0  0  0  0
   -3.9640   -0.7023   -0.0000 C   0  0  0  0  0  0  0  0  0  0  0  0
   -5.2496    1.5594   -0.0000 C   0  0  0  0  0  0  0  0  0  0  0  0
    5.1306    1.5594   -0.0000 C   0  0  0  0  0  0  0  0  0  0  0  0
    3.8212    3.8093   -0.0000 C   0  0  0  0  0  0  0  0  0  0  0  0
   -5.2735    0.0595   -0.0000 N   0  0  0  0  0  0  0  0  0  0  0  0
   -3.9640   -2.1903   -0.0000 C   0  0  0  0  0  0  0  0  0  0  0  0
   -6.5591    2.3213   -0.0000 N   0  0  0  0  0  0  0  0  0  0  0  0
    6.4162    2.3213   -0.0000 C   0  0  0  0  0  0  0  0  0  0  0  0
    5.1187    0.0714   -0.0000 C   0  0  0  0  0  0  0  0  0  0  0  0
    5.0949    4.5830   -0.0000 C   0  0  0  0  0  0  0  0  0  0  0  0
   -2.7617   -3.0593   -0.0000 O   0  0  0  0  0  0  0  0  0  0  0  0
   -5.1901   -3.0593   -0.0000 C   0  0  0  0  0  0  0  0  0  0  0  0
   -6.7257    3.8331   -0.0000 N   0  0  0  0  0  0  0  0  0  0  0  0
   -7.9399    1.7261   -0.0000 C   0  0  0  0  0  0  0  0  0  0  0  0
    6.4043    3.8331   -0.0000 C   0  0  0  0  0  0  0  0  0  0  0  0
    6.4043   -0.6666   -0.0000 N   0  0  0  0  0  0  0  0  0  0  0  0
   -3.2379   -4.4759   -0.0000 C   0  0  0  0  0  0  0  0  0  0  0  0
   -4.7378   -4.4759   -0.0000 C   0  0  0  0  0  0  0  0  0  0  0  0
   -8.2018    4.1545   -0.0000 C   0  0  0  0  0  0  0  0  0  0  0  0
   -8.9518    2.8570   -0.0000 C   0  0  0  0  0  0  0  0  0  0  0  0
   -8.2613    0.2738   -0.0000 C   0  0  0  0  0  0  0  0  0  0  0  0
    7.6900    4.6068   -0.0000 O   0  0  0  0  0  0  0  0  0  0  0  0
    6.3924   -2.1546   -0.0000 C   0  0  0  0  0  0  0  0  0  0  0  0
    7.6900    0.0952   -0.0000 C   0  0  0  0  0  0  0  0  0  0  0  0
   -2.3689   -5.6782   -0.0000 C   0  0  0  0  0  0  0  0  0  0  0  0
   -8.8208    5.5353   -0.0000 C   0  0  0  0  0  0  0  0  0  0  0  0
    8.9875    3.8688   -0.0000 C   0  0  0  0  0  0  0  0  0  0  0  0
  1  2  2  0  0  0  0
  2  3  1  0  0  0  0
  2  4  1  0  0  0  0
  3  5  1  0  0  0  0
  4  6  1  0  0  0  0
  5  7  2  0  0  0  0
  5  8  1  0  0  0  0
  6  9  1  0  0  0  0
  7 10  1  0  0  0  0
  8 11  2  0  0  0  0
  9 12  2  0  0  0  0
  9 13  1  0  0  0  0
 10 14  2  0  0  0  0
 10 15  1  0  0  0  0
 11 16  1  0  0  0  0
 12 17  1  0  0  0  0
 12 18  1  0  0  0  0
 13 19  2  0  0  0  0
 15 20  1  0  0  0  0
 15 21  2  0  0  0  0
 16 22  1  0  0  0  0
 16 23  1  0  0  0  0
 17 24  2  0  0  0  0
 18 25  1  0  0  0  0
 20 26  1  0  0  0  0
 21 27  1  0  0  0  0
 22 28  2  0  0  0  0
 23 29  2  0  0  0  0
 23 30  1  0  0  0  0
 24 31  1  0  0  0  0
 25 32  1  0  0  0  0
 25 33  1  0  0  0  0
 26 34  1  0  0  0  0
 28 35  1  0  0  0  0
 31 36  1  0  0  0  0
 11 14  1  0  0  0  0
 19 24  1  0  0  0  0
 26 27  2  0  0  0  0
 28 29  1  0  0  0  0
M  END
>  <MolRegNo>
424898

>  <m>
=

>  <Value>
1600

>  <Unit>
nM

>  <Type>
IC50

>  <pValue>
5.8

>  <Ligand Efficiency>
0

>  <Binding Efficiency>
0

>  <Surface Efficiency>
0

>  <Assay Index>
311928

>  <Assay Category>


>  <Assay Organism>


>  <Target ID>
17045

>  <Target Name>
Cytochrome P450 3A4

>  <Target Organism>
Homo sapiens

>  <Target Description>
Target is a single protein chain

>  <Sequence Accession>
P08684

>  <Reference>
Bioorg Med Chem Lett 18 (6), 1778-1783 (2008)

>  <Pubmed ID>
18329269

>  <DOI>
10.1016/j.bmcl.2008.02.032

$$$$
424907
Actelion Java MolfileCreator 1.0

 32 35  0  0  0  0  0  0  0  0999 V2000
    0.0000   -0.0000   -0.0000 O   0  0  0  0  0  0  0  0  0  0  0  0
   -0.0119    1.5104   -0.0000 C   0  0  0  0  0  0  0  0  0  0  0  0
   -1.3201    2.2716   -0.0000 N   0  0  0  0  0  0  0  0  0  0  0  0
    1.2726    2.2716   -0.0000 C   0  0  0  0  0  0  0  0  0  0  0  0
   -2.6284    1.5342   -0.0000 C   0  0  0  0  0  0  0  0  0  0  0  0
    2.5570    1.5342   -0.0000 O   0  0  0  0  0  0  0  0  0  0  0  0
   -2.6403    0.0357   -0.0000 N   0  0  0  0  0  0  0  0  0  0  0  0
   -3.9366    2.2954   -0.0000 C   0  0  0  0  0  0  0  0  0  0  0  0
    3.8414    2.2954   -0.0000 C   0  0  0  0  0  0  0  0  0  0  0  0
   -3.9604   -0.7017   -0.0000 C   0  0  0  0  0  0  0  0  0  0  0  0
   -5.2448    1.5580   -0.0000 C   0  0  0  0  0  0  0  0  0  0  0  0
    5.1259    1.5580   -0.0000 C   0  0  0  0  0  0  0  0  0  0  0  0
    3.8177    3.8058   -0.0000 C   0  0  0  0  0  0  0  0  0  0  0  0
   -5.2686    0.0595   -0.0000 N   0  0  0  0  0  0  0  0  0  0  0  0
   -3.9604   -2.1883   -0.0000 C   0  0  0  0  0  0  0  0  0  0  0  0
   -6.5531    2.3191   -0.0000 N   0  0  0  0  0  0  0  0  0  0  0  0
    6.4103    2.3191   -0.0000 C   0  0  0  0  0  0  0  0  0  0  0  0
    5.0902    4.5788   -0.0000 C   0  0  0  0  0  0  0  0  0  0  0  0
   -2.7592   -3.0565   -0.0000 O   0  0  0  0  0  0  0  0  0  0  0  0
   -5.1854   -3.0565   -0.0000 C   0  0  0  0  0  0  0  0  0  0  0  0
   -6.7196    3.8296   -0.0000 N   0  0  0  0  0  0  0  0  0  0  0  0
   -7.9327    1.7245   -0.0000 C   0  0  0  0  0  0  0  0  0  0  0  0
    6.3985    3.8296   -0.0000 N   0  0  0  0  0  0  0  0  0  0  0  0
    7.6948    1.5818   -0.0000 C   0  0  0  0  0  0  0  0  0  0  0  0
    5.0664    6.0892   -0.0000 C   0  0  0  0  0  0  0  0  0  0  0  0
   -3.2349   -4.4718   -0.0000 C   0  0  0  0  0  0  0  0  0  0  0  0
   -4.7334   -4.4718   -0.0000 C   0  0  0  0  0  0  0  0  0  0  0  0
   -8.1943    4.1507   -0.0000 C   0  0  0  0  0  0  0  0  0  0  0  0
   -8.9436    2.8543   -0.0000 C   0  0  0  0  0  0  0  0  0  0  0  0
   -8.2538    0.2735   -0.0000 C   0  0  0  0  0  0  0  0  0  0  0  0
   -2.3667   -5.6730   -0.0000 C   0  0  0  0  0  0  0  0  0  0  0  0
   -8.8127    5.5303   -0.0000 C   0  0  0  0  0  0  0  0  0  0  0  0
  1  2  2  0  0  0  0
  2  3  1  0  0  0  0
  2  4  1  0  0  0  0
  3  5  1  0  0  0  0
  4  6  1  0  0  0  0
  5  7  2  0  0  0  0
  5  8  1  0  0  0  0
  6  9  1  0  0  0  0
  7 10  1  0  0  0  0
  8 11  2  0  0  0  0
  9 12  2  0  0  0  0
  9 13  1  0  0  0  0
 10 14  2  0  0  0  0
 10 15  1  0  0  0  0
 11 16  1  0  0  0  0
 12 17  1  0  0  0  0
 13 18  2  0  0  0  0
 15 19  1  0  0  0  0
 15 20  2  0  0  0  0
 16 21  1  0  0  0  0
 16 22  1  0  0  0  0
 17 23  2  0  0  0  0
 17 24  1  0  0  0  0
 18 25  1  0  0  0  0
 19 26  1  0  0  0  0
 20 27  1  0  0  0  0
 21 28  2  0  0  0  0
 22 29  2  0  0  0  0
 22 30  1  0  0  0  0
 26 31  1  0  0  0  0
 28 32  1  0  0  0  0
 11 14  1  0  0  0  0
 18 23  1  0  0  0  0
 26 27  2  0  0  0  0
 28 29  1  0  0  0  0
M  END
>  <MolRegNo>
424907

>  <m>
=

>  <Value>
1100

>  <Unit>
nM

>  <Type>
IC50

>  <pValue>
5.96

>  <Ligand Efficiency>
0

>  <Binding Efficiency>
0

>  <Surface Efficiency>
0

>  <Assay Index>
311928

>  <Assay Category>


>  <Assay Organism>


>  <Target ID>
17045

>  <Target Name>
Cytochrome P450 3A4

>  <Target Organism>
Homo sapiens

>  <Target Description>
Target is a single protein chain

>  <Sequence Accession>
P08684

>  <Reference>
Bioorg Med Chem Lett 18 (6), 1778-1783 (2008)

>  <Pubmed ID>
18329269

>  <DOI>
10.1016/j.bmcl.2008.02.032

$$$$
329373
Actelion Java MolfileCreator 1.0

 36 39  0  0  1  0  0  0  0  0999 V2000
    0.0000   -0.0000   -0.0000 F   0  0  0  0  0  0  0  0  0  0  0  0
    1.2957   -0.7370   -0.0000 C   0  0  0  0  0  0  0  0  0  0  0  0
    2.5796   -1.4741   -0.0000 C   0  0  0  0  0  0  0  0  0  0  0  0
    1.2839    0.7727   -0.0000 C   0  0  0  0  0  0  0  0  0  0  0  0
    3.8634   -0.7133   -0.0000 C   0  0  0  0  0  0  0  0  0  0  0  0
    2.5677   -2.9600   -0.0000 C   0  0  0  0  0  0  0  0  0  0  0  0
    2.5677    1.5454   -0.0000 C   0  0  0  0  0  0  0  0  0  0  0  0
    3.8516    0.7965   -0.0000 C   0  0  0  0  0  0  0  0  0  0  0  0
    1.2482   -3.6970   -0.0000 N   0  0  0  0  0  0  0  0  0  0  0  0
    3.8516   -3.6970   -0.0000 C   0  0  0  0  0  0  0  0  0  0  0  0
    2.5558    3.0551   -0.0000 F   0  0  0  0  0  0  0  0  0  0  0  0
   -0.0594   -2.9362   -0.0000 C   0  0  0  0  0  0  0  0  0  0  0  0
    1.2363   -5.1830   -0.0000 C   0  0  0  0  0  0  0  0  0  0  0  0
    3.8397   -5.1830   -0.0000 O   0  0  0  0  0  0  0  0  0  0  0  0
    5.1354   -2.9362   -0.0000 N   0  0  0  0  0  0  0  0  0  0  0  0
   -0.0713   -1.4265   -0.0000 O   0  0  0  0  0  0  0  0  0  0  0  0
   -1.3671   -3.6732   -0.0000 C   0  0  0  0  0  0  0  0  0  0  0  0
   -0.0713   -5.9200   -0.0000 C   0  0  0  0  0  0  0  0  0  0  0  0
    2.5320   -5.9200   -0.0000 C   0  0  0  0  0  0  0  0  0  0  0  0
    6.4193   -3.6732   -0.0000 C   0  0  0  0  0  0  0  0  0  0  0  0
   -1.3790   -5.1592   -0.0000 N   0  0  0  0  0  0  0  0  0  0  0  0
   -2.6866   -2.9124   -0.0000 C   0  0  0  0  0  0  0  0  0  0  0  0
   -0.0832   -7.4059   -0.0000 O   0  0  0  0  0  0  0  0  0  0  0  0
    2.5202   -7.4059   -0.0000 C   0  0  0  0  0  0  0  0  0  0  0  0
    6.4074   -5.1592   -0.0000 C   0  0  0  0  0  0  0  0  0  0  0  0
    7.7150   -2.9124   -0.0000 C   0  0  0  0  0  0  0  0  0  0  0  0
   -4.0655   -3.4949   -0.0000 C   0  0  0  0  0  0  0  0  0  0  0  0
   -2.8530   -1.4027   -0.0000 C   0  0  0  0  0  0  0  0  0  0  0  0
    1.2006   -8.1429   -0.0000 C   0  0  0  0  0  0  0  0  0  0  0  0
    3.8040   -8.1429   -0.0000 C   0  0  0  0  0  0  0  0  0  0  0  0
   -5.0760   -2.3656   -0.0000 C   0  0  0  0  0  0  0  0  0  0  0  0
   -4.3271   -1.0699   -0.0000 C   0  0  0  0  0  0  0  0  0  0  0  0
   -6.5976   -2.3656   -0.0000 C   0  0  0  0  0  0  0  0  0  0  0  0
   -5.0997    0.2378   -0.0000 C   0  0  0  0  0  0  0  0  0  0  0  0
   -7.3703   -1.0461   -0.0000 C   0  0  0  0  0  0  0  0  0  0  0  0
   -6.6095    0.2378   -0.0000 C   0  0  0  0  0  0  0  0  0  0  0  0
  1  2  1  0  0  0  0
  2  3  2  0  0  0  0
  2  4  1  0  0  0  0
  3  5  1  0  0  0  0
  3  6  1  0  0  0  0
  4  7  2  0  0  0  0
  5  8  2  0  0  0  0
  6  9  1  6  0  0  0
  6 10  1  0  0  0  0
  7 11  1  0  0  0  0
  9 12  1  0  0  0  0
  9 13  1  0  0  0  0
 10 14  2  0  0  0  0
 10 15  1  0  0  0  0
 12 16  2  0  0  0  0
 12 17  1  0  0  0  0
 13 18  1  0  0  0  0
 13 19  1  6  0  0  0
 15 20  1  0  0  0  0
 17 21  1  0  0  0  0
 17 22  1  6  0  0  0
 18 23  2  0  0  0  0
 19 24  1  0  0  0  0
 20 25  1  0  0  0  0
 20 26  1  0  0  0  0
 22 27  1  0  0  0  0
 22 28  1  0  0  0  0
 24 29  1  0  0  0  0
 24 30  1  0  0  0  0
 27 31  1  0  0  0  0
 28 32  1  0  0  0  0
 31 33  1  0  0  0  0
 32 34  1  0  0  0  0
 33 35  2  0  0  0  0
 34 36  2  0  0  0  0
  7  8  1  0  0  0  0
 18 21  1  0  0  0  0
 31 32  2  0  0  0  0
 35 36  1  0  0  0  0
M  END
>  <MolRegNo>
329373

>  <m>
=

>  <Value>
4000

>  <Unit>
nM

>  <Type>
IC50

>  <pValue>
5.4

>  <Ligand Efficiency>
0

>  <Binding Efficiency>
0

>  <Surface Efficiency>
0

>  <Assay Index>
314280

>  <Assay Category>


>  <Assay Organism>


>  <Target ID>
17045

>  <Target Name>
Cytochrome P450 3A4

>  <Target Organism>
Homo sapiens

>  <Target Description>
Target is a single protein chain

>  <Sequence Accession>
P08684

>  <Reference>
Bioorg Med Chem Lett 18 (1), 90-94 (2008)

>  <Pubmed ID>
18032036

>  <DOI>
10.1016/j.bmcl.2007.11.008

$$$$
438403
Actelion Java MolfileCreator 1.0

 37 40  0  0  1  0  0  0  0  0999 V2000
    0.0000   -0.0000   -0.0000 F   0  0  0  0  0  0  0  0  0  0  0  0
   -0.5903   -1.3695   -0.0000 C   0  0  0  0  0  0  0  0  0  0  0  0
    0.7438   -2.0188   -0.0000 F   0  0  0  0  0  0  0  0  0  0  0  0
   -1.9479   -0.6965   -0.0000 F   0  0  0  0  0  0  0  0  0  0  0  0
   -1.3459   -2.6563   -0.0000 C   0  0  0  0  0  0  0  0  0  0  0  0
   -0.8972   -4.0730   -0.0000 O   0  0  0  0  0  0  0  0  0  0  0  0
   -2.8570   -2.6327   -0.0000 C   0  0  0  0  0  0  0  0  0  0  0  0
   -2.1250   -4.9348   -0.0000 C   0  0  0  0  0  0  0  0  0  0  0  0
   -3.3410   -4.0494   -0.0000 C   0  0  0  0  0  0  0  0  0  0  0  0
   -2.1368   -6.4223   -0.0000 C   0  0  0  0  0  0  0  0  0  0  0  0
   -3.4473   -7.1543   -0.0000 N   0  0  0  0  0  0  0  0  0  0  0  0
   -0.8500   -7.1661   -0.0000 C   0  0  0  0  0  0  0  0  0  0  0  0
   -4.7577   -6.3869   -0.0000 C   0  0  0  0  0  0  0  0  0  0  0  0
   -3.4591   -8.6418   -0.0000 C   0  0  0  0  0  0  0  0  0  0  0  0
   -0.8618   -8.6536   -0.0000 O   0  0  0  0  0  0  0  0  0  0  0  0
    0.4368   -6.4105   -0.0000 N   0  0  0  0  0  0  0  0  0  0  0  0
   -4.7695   -4.8758   -0.0000 O   0  0  0  0  0  0  0  0  0  0  0  0
   -6.0682   -7.1189   -0.0000 C   0  0  0  0  0  0  0  0  0  0  0  0
   -4.7813   -9.3738   -0.0000 C   0  0  0  0  0  0  0  0  0  0  0  0
   -2.1723   -9.3856   -0.0000 C   0  0  0  0  0  0  0  0  0  0  0  0
    1.7236   -7.1543   -0.0000 C   0  0  0  0  0  0  0  0  0  0  0  0
   -6.0918   -8.6064   -0.0000 N   0  0  0  0  0  0  0  0  0  0  0  0
   -7.3786   -6.3515   -0.0000 C   0  0  0  0  0  0  0  0  0  0  0  0
   -4.8049  -10.8613   -0.0000 O   0  0  0  0  0  0  0  0  0  0  0  0
   -2.1841  -10.8731   -0.0000 C   0  0  0  0  0  0  0  0  0  0  0  0
    3.0105   -6.3987   -0.0000 C   0  0  0  0  0  0  0  0  0  0  0  0
    1.7118   -8.6418   -0.0000 C   0  0  0  0  0  0  0  0  0  0  0  0
   -7.5557   -4.8404   -0.0000 C   0  0  0  0  0  0  0  0  0  0  0  0
   -8.7599   -6.9536   -0.0000 C   0  0  0  0  0  0  0  0  0  0  0  0
   -0.8972  -11.6169   -0.0000 C   0  0  0  0  0  0  0  0  0  0  0  0
   -3.4945  -11.6051   -0.0000 C   0  0  0  0  0  0  0  0  0  0  0  0
   -9.0432   -4.5216   -0.0000 C   0  0  0  0  0  0  0  0  0  0  0  0
   -9.7752   -5.8202   -0.0000 C   0  0  0  0  0  0  0  0  0  0  0  0
   -9.7988   -3.2112   -0.0000 C   0  0  0  0  0  0  0  0  0  0  0  0
  -11.2745   -5.8084   -0.0000 C   0  0  0  0  0  0  0  0  0  0  0  0
  -11.3099   -3.1994   -0.0000 C   0  0  0  0  0  0  0  0  0  0  0  0
  -12.0419   -4.5098   -0.0000 C   0  0  0  0  0  0  0  0  0  0  0  0
  1  2  1  0  0  0  0
  2  3  1  0  0  0  0
  2  4  1  0  0  0  0
  2  5  1  0  0  0  0
  5  6  1  0  0  0  0
  5  7  2  0  0  0  0
  6  8  1  0  0  0  0
  7  9  1  0  0  0  0
  8 10  1  0  0  0  0
 10 11  1  6  0  0  0
 10 12  1  0  0  0  0
 11 13  1  0  0  0  0
 11 14  1  0  0  0  0
 12 15  2  0  0  0  0
 12 16  1  0  0  0  0
 13 17  2  0  0  0  0
 13 18  1  0  0  0  0
 14 19  1  0  0  0  0
 14 20  1  6  0  0  0
 16 21  1  0  0  0  0
 18 22  1  0  0  0  0
 18 23  1  6  0  0  0
 19 24  2  0  0  0  0
 20 25  1  0  0  0  0
 21 26  1  0  0  0  0
 21 27  1  0  0  0  0
 23 28  1  0  0  0  0
 23 29  1  0  0  0  0
 25 30  1  0  0  0  0
 25 31  1  0  0  0  0
 28 32  1  0  0  0  0
 29 33  1  0  0  0  0
 32 34  1  0  0  0  0
 33 35  1  0  0  0  0
 34 36  2  0  0  0  0
 35 37  2  0  0  0  0
  8  9  2  0  0  0  0
 19 22  1  0  0  0  0
 32 33  2  0  0  0  0
 36 37  1  0  0  0  0
M  END
>  <MolRegNo>
438403

>  <m>
=

>  <Value>
3000

>  <Unit>
nM

>  <Type>
IC50

>  <pValue>
5.52

>  <Ligand Efficiency>
0

>  <Binding Efficiency>
0

>  <Surface Efficiency>
0

>  <Assay Index>
314280

>  <Assay Category>


>  <Assay Organism>


>  <Target ID>
17045

>  <Target Name>
Cytochrome P450 3A4

>  <Target Organism>
Homo sapiens

>  <Target Description>
Target is a single protein chain

>  <Sequence Accession>
P08684

>  <Reference>
Bioorg Med Chem Lett 18 (1), 90-94 (2008)

>  <Pubmed ID>
18032036

>  <DOI>
10.1016/j.bmcl.2007.11.008

$$$$
439065
Actelion Java MolfileCreator 1.0

 34 37  0  0  1  0  0  0  0  0999 V2000
    0.0000   -0.0000   -0.0000 Br  0  0  0  0  0  0  0  0  0  0  0  0
   -0.8971   -1.1922   -0.0000 C   0  0  0  0  0  0  0  0  0  0  0  0
   -0.4485   -2.6086   -0.0000 S   0  0  0  0  0  0  0  0  0  0  0  0
   -2.4079   -1.1686   -0.0000 C   0  0  0  0  0  0  0  0  0  0  0  0
   -1.6761   -3.4703   -0.0000 C   0  0  0  0  0  0  0  0  0  0  0  0
   -2.8919   -2.5850   -0.0000 C   0  0  0  0  0  0  0  0  0  0  0  0
   -1.6879   -4.9575   -0.0000 C   0  0  0  0  0  0  0  0  0  0  0  0
   -2.9981   -5.6894   -0.0000 N   0  0  0  0  0  0  0  0  0  0  0  0
   -0.4013   -5.7012   -0.0000 C   0  0  0  0  0  0  0  0  0  0  0  0
   -4.3083   -4.9221   -0.0000 C   0  0  0  0  0  0  0  0  0  0  0  0
   -3.0099   -7.1766   -0.0000 C   0  0  0  0  0  0  0  0  0  0  0  0
   -0.4131   -7.1884   -0.0000 O   0  0  0  0  0  0  0  0  0  0  0  0
    0.8853   -4.9457   -0.0000 N   0  0  0  0  0  0  0  0  0  0  0  0
   -4.3201   -3.4113   -0.0000 O   0  0  0  0  0  0  0  0  0  0  0  0
   -5.6185   -5.6540   -0.0000 C   0  0  0  0  0  0  0  0  0  0  0  0
   -4.3319   -7.9085   -0.0000 C   0  0  0  0  0  0  0  0  0  0  0  0
   -1.7233   -7.9203   -0.0000 C   0  0  0  0  0  0  0  0  0  0  0  0
    2.1719   -5.6894   -0.0000 C   0  0  0  0  0  0  0  0  0  0  0  0
   -5.6422   -7.1412   -0.0000 N   0  0  0  0  0  0  0  0  0  0  0  0
   -6.9288   -4.8867   -0.0000 C   0  0  0  0  0  0  0  0  0  0  0  0
   -4.3556   -9.3957   -0.0000 O   0  0  0  0  0  0  0  0  0  0  0  0
   -1.7351   -9.4075   -0.0000 C   0  0  0  0  0  0  0  0  0  0  0  0
    3.4585   -4.9339   -0.0000 C   0  0  0  0  0  0  0  0  0  0  0  0
    2.1601   -7.1766   -0.0000 C   0  0  0  0  0  0  0  0  0  0  0  0
   -7.1058   -3.3759   -0.0000 C   0  0  0  0  0  0  0  0  0  0  0  0
   -8.3098   -5.4887   -0.0000 C   0  0  0  0  0  0  0  0  0  0  0  0
   -0.4485  -10.1512   -0.0000 C   0  0  0  0  0  0  0  0  0  0  0  0
   -3.0453  -10.1394   -0.0000 C   0  0  0  0  0  0  0  0  0  0  0  0
   -8.5931   -3.0572   -0.0000 C   0  0  0  0  0  0  0  0  0  0  0  0
   -9.3249   -4.3556   -0.0000 C   0  0  0  0  0  0  0  0  0  0  0  0
   -9.3485   -1.7469   -0.0000 C   0  0  0  0  0  0  0  0  0  0  0  0
  -10.8240   -4.3438   -0.0000 C   0  0  0  0  0  0  0  0  0  0  0  0
  -10.8594   -1.7351   -0.0000 C   0  0  0  0  0  0  0  0  0  0  0  0
  -11.5912   -3.0453   -0.0000 C   0  0  0  0  0  0  0  0  0  0  0  0
  1  2  1  0  0  0  0
  2  3  1  0  0  0  0
  2  4  2  0  0  0  0
  3  5  1  0  0  0  0
  4  6  1  0  0  0  0
  5  7  1  0  0  0  0
  7  8  1  6  0  0  0
  7  9  1  0  0  0  0
  8 10  1  0  0  0  0
  8 11  1  0  0  0  0
  9 12  2  0  0  0  0
  9 13  1  0  0  0  0
 10 14  2  0  0  0  0
 10 15  1  0  0  0  0
 11 16  1  0  0  0  0
 11 17  1  6  0  0  0
 13 18  1  0  0  0  0
 15 19  1  0  0  0  0
 15 20  1  6  0  0  0
 16 21  2  0  0  0  0
 17 22  1  0  0  0  0
 18 23  1  0  0  0  0
 18 24  1  0  0  0  0
 20 25  1  0  0  0  0
 20 26  1  0  0  0  0
 22 27  1  0  0  0  0
 22 28  1  0  0  0  0
 25 29  1  0  0  0  0
 26 30  1  0  0  0  0
 29 31  1  0  0  0  0
 30 32  1  0  0  0  0
 31 33  2  0  0  0  0
 32 34  2  0  0  0  0
  5  6  2  0  0  0  0
 16 19  1  0  0  0  0
 29 30  2  0  0  0  0
 33 34  1  0  0  0  0
M  END
>  <MolRegNo>
439065

>  <m>
=

>  <Value>
1000

>  <Unit>
nM

>  <Type>
IC50

>  <pValue>
6

>  <Ligand Efficiency>
0

>  <Binding Efficiency>
0

>  <Surface Efficiency>
0

>  <Assay Index>
314280

>  <Assay Category>


>  <Assay Organism>


>  <Target ID>
17045

>  <Target Name>
Cytochrome P450 3A4

>  <Target Organism>
Homo sapiens

>  <Target Description>
Target is a single protein chain

>  <Sequence Accession>
P08684

>  <Reference>
Bioorg Med Chem Lett 18 (1), 90-94 (2008)

>  <Pubmed ID>
18032036

>  <DOI>
10.1016/j.bmcl.2007.11.008

$$$$
352615
Actelion Java MolfileCreator 1.0

 34 37  0  0  1  0  0  0  0  0999 V2000
    0.0000   -0.0000   -0.0000 O   0  0  0  0  0  0  0  0  0  0  0  0
   -0.0119   -1.4796   -0.0000 C   0  0  0  0  0  0  0  0  0  0  0  0
    1.2768   -2.2672   -0.0000 N   0  0  0  0  0  0  0  0  0  0  0  0
   -1.3245   -2.2433   -0.0000 C   0  0  0  0  0  0  0  0  0  0  0  0
    1.2290   -3.7229   -0.0000 C   0  0  0  0  0  0  0  0  0  0  0  0
    2.5894   -1.5274   -0.0000 C   0  0  0  0  0  0  0  0  0  0  0  0
   -1.3245   -3.6991   -0.0000 N   0  0  0  0  0  0  0  0  0  0  0  0
   -2.6252   -1.4796   -0.0000 C   0  0  0  0  0  0  0  0  0  0  0  0
   -0.0597   -4.4270   -0.0000 C   0  0  0  0  0  0  0  0  0  0  0  0
    2.5058   -4.4508   -0.0000 C   0  0  0  0  0  0  0  0  0  0  0  0
    2.6132   -0.0000   -0.0000 C   0  0  0  0  0  0  0  0  0  0  0  0
    3.8661   -2.3030   -0.0000 C   0  0  0  0  0  0  0  0  0  0  0  0
   -2.8041   -0.0000   -0.0000 C   0  0  0  0  0  0  0  0  0  0  0  0
   -4.0093   -2.1001   -0.0000 C   0  0  0  0  0  0  0  0  0  0  0  0
   -0.0716   -5.9066   -0.0000 O   0  0  0  0  0  0  0  0  0  0  0  0
    2.4939   -5.9543   -0.0000 C   0  0  0  0  0  0  0  0  0  0  0  0
    3.8423    0.8711   -0.0000 O   0  0  0  0  0  0  0  0  0  0  0  0
    1.3961    0.9188   -0.0000 C   0  0  0  0  0  0  0  0  0  0  0  0
    3.8184   -3.8065   -0.0000 O   0  0  0  0  0  0  0  0  0  0  0  0
    5.1787   -1.5632   -0.0000 N   0  0  0  0  0  0  0  0  0  0  0  0
   -4.2718    0.3102   -0.0000 C   0  0  0  0  0  0  0  0  0  0  0  0
   -5.0236   -0.9904   -0.0000 C   0  0  0  0  0  0  0  0  0  0  0  0
    3.7945   -6.6941   -0.0000 C   0  0  0  0  0  0  0  0  0  0  0  0
    1.1694   -6.7061   -0.0000 C   0  0  0  0  0  0  0  0  0  0  0  0
    3.4008    2.3388   -0.0000 C   0  0  0  0  0  0  0  0  0  0  0  0
    1.8853    2.3626   -0.0000 C   0  0  0  0  0  0  0  0  0  0  0  0
    6.4555   -2.3388   -0.0000 C   0  0  0  0  0  0  0  0  0  0  0  0
   -5.0355    1.6109   -0.0000 C   0  0  0  0  0  0  0  0  0  0  0  0
   -6.5152   -0.9785   -0.0000 C   0  0  0  0  0  0  0  0  0  0  0  0
    4.3076    3.5559   -0.0000 C   0  0  0  0  0  0  0  0  0  0  0  0
    7.7681   -1.5990   -0.0000 C   0  0  0  0  0  0  0  0  0  0  0  0
    6.4078   -3.8423   -0.0000 C   0  0  0  0  0  0  0  0  0  0  0  0
   -6.5271    1.6109   -0.0000 C   0  0  0  0  0  0  0  0  0  0  0  0
   -7.2788    0.3102   -0.0000 C   0  0  0  0  0  0  0  0  0  0  0  0
  1  2  2  0  0  0  0
  2  3  1  0  0  0  0
  2  4  1  0  0  0  0
  3  5  1  0  0  0  0
  6  3  1  6  0  0  0
  4  7  1  0  0  0  0
  4  8  1  6  0  0  0
  5  9  1  0  0  0  0
  5 10  1  6  0  0  0
  6 11  1  0  0  0  0
  6 12  1  0  0  0  0
  8 13  1  0  0  0  0
  8 14  1  0  0  0  0
  9 15  2  0  0  0  0
 10 16  1  0  0  0  0
 11 17  1  0  0  0  0
 11 18  2  0  0  0  0
 12 19  2  0  0  0  0
 12 20  1  0  0  0  0
 13 21  1  0  0  0  0
 14 22  1  0  0  0  0
 16 23  1  0  0  0  0
 16 24  1  0  0  0  0
 17 25  1  0  0  0  0
 18 26  1  0  0  0  0
 20 27  1  0  0  0  0
 21 28  1  0  0  0  0
 22 29  1  0  0  0  0
 25 30  1  0  0  0  0
 27 31  1  0  0  0  0
 27 32  1  0  0  0  0
 28 33  2  0  0  0  0
 29 34  2  0  0  0  0
  7  9  1  0  0  0  0
 21 22  2  0  0  0  0
 25 26  2  0  0  0  0
 33 34  1  0  0  0  0
M  END
>  <MolRegNo>
352615

>  <m>
=

>  <Value>
7000

>  <Unit>
nM

>  <Type>
IC50

>  <pValue>
5.16

>  <Ligand Efficiency>
0

>  <Binding Efficiency>
0

>  <Surface Efficiency>
0

>  <Assay Index>
314280

>  <Assay Category>


>  <Assay Organism>


>  <Target ID>
17045

>  <Target Name>
Cytochrome P450 3A4

>  <Target Organism>
Homo sapiens

>  <Target Description>
Target is a single protein chain

>  <Sequence Accession>
P08684

>  <Reference>
Bioorg Med Chem Lett 18 (1), 90-94 (2008)

>  <Pubmed ID>
18032036

>  <DOI>
10.1016/j.bmcl.2007.11.008

$$$$
436767
Actelion Java MolfileCreator 1.0

 34 38  0  0  0  0  0  0  0  0999 V2000
    0.0000   -0.0000   -0.0000 F   0  0  0  0  0  0  0  0  0  0  0  0
    1.2945   -0.7363   -0.0000 C   0  0  0  0  0  0  0  0  0  0  0  0
    1.2826   -2.2327   -0.0000 C   0  0  0  0  0  0  0  0  0  0  0  0
    2.5771    0.0238   -0.0000 C   0  0  0  0  0  0  0  0  0  0  0  0
   -0.0356   -2.9690   -0.0000 N   0  0  0  0  0  0  0  0  0  0  0  0
    2.5652   -2.9690   -0.0000 C   0  0  0  0  0  0  0  0  0  0  0  0
    3.8716   -0.7126   -0.0000 C   0  0  0  0  0  0  0  0  0  0  0  0
   -0.0475   -4.4654   -0.0000 C   0  0  0  0  0  0  0  0  0  0  0  0
    3.8597   -2.2089   -0.0000 C   0  0  0  0  0  0  0  0  0  0  0  0
    5.1542    0.0594   -0.0000 F   0  0  0  0  0  0  0  0  0  0  0  0
    1.2351   -5.2017   -0.0000 N   0  0  0  0  0  0  0  0  0  0  0  0
   -1.3657   -5.2017   -0.0000 C   0  0  0  0  0  0  0  0  0  0  0  0
    5.1542   -2.9453   -0.0000 C   0  0  0  0  0  0  0  0  0  0  0  0
    1.2232   -6.6862   -0.0000 C   0  0  0  0  0  0  0  0  0  0  0  0
   -1.3776   -6.6981   -0.0000 N   0  0  0  0  0  0  0  0  0  0  0  0
   -2.8027   -4.7267   -0.0000 C   0  0  0  0  0  0  0  0  0  0  0  0
    5.1423   -4.4416   -0.0000 O   0  0  0  0  0  0  0  0  0  0  0  0
    6.4487   -2.1852   -0.0000 N   0  0  0  0  0  0  0  0  0  0  0  0
   -0.0950   -7.4344   -0.0000 N   0  0  0  0  0  0  0  0  0  0  0  0
   -2.8146   -7.1494   -0.0000 C   0  0  0  0  0  0  0  0  0  0  0  0
   -3.6934   -5.9261   -0.0000 C   0  0  0  0  0  0  0  0  0  0  0  0
   -3.5747   -3.4084   -0.0000 C   0  0  0  0  0  0  0  0  0  0  0  0
    7.7432   -2.9215   -0.0000 C   0  0  0  0  0  0  0  0  0  0  0  0
   -5.2136   -5.9143   -0.0000 C   0  0  0  0  0  0  0  0  0  0  0  0
   -2.8384   -2.0902   -0.0000 C   0  0  0  0  0  0  0  0  0  0  0  0
   -5.0948   -3.3965   -0.0000 C   0  0  0  0  0  0  0  0  0  0  0  0
    8.4795   -4.2041   -0.0000 C   0  0  0  0  0  0  0  0  0  0  0  0
    9.2277   -2.9096   -0.0000 C   0  0  0  0  0  0  0  0  0  0  0  0
   -6.1162   -7.1137   -0.0000 O   0  0  0  0  0  0  0  0  0  0  0  0
   -6.1162   -4.6910   -0.0000 N   0  0  0  0  0  0  0  0  0  0  0  0
   -7.5532   -6.6387   -0.0000 C   0  0  0  0  0  0  0  0  0  0  0  0
   -7.5532   -5.1423   -0.0000 N   0  0  0  0  0  0  0  0  0  0  0  0
   -8.7764   -7.5057   -0.0000 N   0  0  0  0  0  0  0  0  0  0  0  0
  -10.1659   -6.8881   -0.0000 C   0  0  0  0  0  0  0  0  0  0  0  0
  1  2  1  0  0  0  0
  2  3  2  0  0  0  0
  2  4  1  0  0  0  0
  3  5  1  0  0  0  0
  3  6  1  0  0  0  0
  4  7  2  0  0  0  0
  5  8  1  0  0  0  0
  6  9  2  0  0  0  0
  7 10  1  0  0  0  0
  8 11  2  0  0  0  0
  8 12  1  0  0  0  0
  9 13  1  0  0  0  0
 11 14  1  0  0  0  0
 12 15  1  0  0  0  0
 12 16  2  0  0  0  0
 13 17  2  0  0  0  0
 13 18  1  0  0  0  0
 14 19  2  0  0  0  0
 15 20  1  0  0  0  0
 16 21  1  0  0  0  0
 16 22  1  0  0  0  0
 18 23  1  0  0  0  0
 21 24  1  0  0  0  0
 22 25  1  0  0  0  0
 22 26  1  0  0  0  0
 23 27  1  0  0  0  0
 23 28  1  0  0  0  0
 24 29  1  0  0  0  0
 24 30  2  0  0  0  0
 29 31  1  0  0  0  0
 30 32  1  0  0  0  0
 31 33  1  0  0  0  0
 33 34  1  0  0  0  0
  7  9  1  0  0  0  0
 15 19  1  0  0  0  0
 20 21  2  0  0  0  0
 27 28  1  0  0  0  0
 31 32  2  0  0  0  0
M  END
>  <MolRegNo>
436767

>  <m>
=

>  <Value>
2100

>  <Unit>
nM

>  <Type>
IC50

>  <pValue>
5.68

>  <Ligand Efficiency>
0

>  <Binding Efficiency>
0

>  <Surface Efficiency>
0

>  <Assay Index>
318721

>  <Assay Category>


>  <Assay Organism>
Homo sapiens

>  <Target ID>
17045

>  <Target Name>
Cytochrome P450 3A4

>  <Target Organism>
Homo sapiens

>  <Target Description>
Target is a single protein chain

>  <Sequence Accession>
P08684

>  <Reference>
Bioorg Med Chem Lett 18 (4), 1354-1358 (2008)

>  <Pubmed ID>
18221875

>  <DOI>
10.1016/j.bmcl.2008.01.012

$$$$
436399
Actelion Java MolfileCreator 1.0

 39 44  0  0  0  0  0  0  0  0999 V2000
    0.0000   -0.0000   -0.0000 F   0  0  0  0  0  0  0  0  0  0  0  0
    1.2949   -0.7366   -0.0000 C   0  0  0  0  0  0  0  0  0  0  0  0
    1.2830   -2.2334   -0.0000 C   0  0  0  0  0  0  0  0  0  0  0  0
    2.5780    0.0238   -0.0000 C   0  0  0  0  0  0  0  0  0  0  0  0
   -0.0356   -2.9700   -0.0000 N   0  0  0  0  0  0  0  0  0  0  0  0
    2.5661   -2.9700   -0.0000 C   0  0  0  0  0  0  0  0  0  0  0  0
    3.8729   -0.7128   -0.0000 C   0  0  0  0  0  0  0  0  0  0  0  0
   -0.0475   -4.4669   -0.0000 C   0  0  0  0  0  0  0  0  0  0  0  0
    3.8610   -2.2097   -0.0000 C   0  0  0  0  0  0  0  0  0  0  0  0
    5.1559    0.0594   -0.0000 F   0  0  0  0  0  0  0  0  0  0  0  0
    1.2355   -5.2035   -0.0000 N   0  0  0  0  0  0  0  0  0  0  0  0
   -1.3662   -5.2035   -0.0000 C   0  0  0  0  0  0  0  0  0  0  0  0
    5.1559   -2.9462   -0.0000 C   0  0  0  0  0  0  0  0  0  0  0  0
    1.2236   -6.6885   -0.0000 C   0  0  0  0  0  0  0  0  0  0  0  0
   -1.3781   -6.7003   -0.0000 N   0  0  0  0  0  0  0  0  0  0  0  0
   -2.8037   -4.7283   -0.0000 C   0  0  0  0  0  0  0  0  0  0  0  0
    5.1441   -4.4431   -0.0000 O   0  0  0  0  0  0  0  0  0  0  0  0
    6.4509   -2.1859   -0.0000 N   0  0  0  0  0  0  0  0  0  0  0  0
   -0.0950   -7.4369   -0.0000 N   0  0  0  0  0  0  0  0  0  0  0  0
   -2.8156   -7.1518   -0.0000 C   0  0  0  0  0  0  0  0  0  0  0  0
   -3.6947   -5.9400   -0.0000 C   0  0  0  0  0  0  0  0  0  0  0  0
   -3.5759   -3.4096   -0.0000 C   0  0  0  0  0  0  0  0  0  0  0  0
    7.7458   -2.9225   -0.0000 C   0  0  0  0  0  0  0  0  0  0  0  0
   -5.2153   -5.9281   -0.0000 C   0  0  0  0  0  0  0  0  0  0  0  0
   -2.8393   -2.0909   -0.0000 C   0  0  0  0  0  0  0  0  0  0  0  0
   -5.0965   -3.3977   -0.0000 C   0  0  0  0  0  0  0  0  0  0  0  0
    8.4823   -4.2055   -0.0000 C   0  0  0  0  0  0  0  0  0  0  0  0
    9.2308   -2.8987   -0.0000 C   0  0  0  0  0  0  0  0  0  0  0  0
   -6.1182   -7.1280   -0.0000 O   0  0  0  0  0  0  0  0  0  0  0  0
   -6.1182   -4.7045   -0.0000 N   0  0  0  0  0  0  0  0  0  0  0  0
   -7.5557   -6.6528   -0.0000 C   0  0  0  0  0  0  0  0  0  0  0  0
   -7.5557   -5.1559   -0.0000 N   0  0  0  0  0  0  0  0  0  0  0  0
   -8.8744   -7.3775   -0.0000 O   0  0  0  0  0  0  0  0  0  0  0  0
   -8.8981   -8.8744   -0.0000 C   0  0  0  0  0  0  0  0  0  0  0  0
  -10.2168   -9.5991   -0.0000 C   0  0  0  0  0  0  0  0  0  0  0  0
   -7.6032   -9.6228   -0.0000 C   0  0  0  0  0  0  0  0  0  0  0  0
  -10.2525  -11.0841   -0.0000 C   0  0  0  0  0  0  0  0  0  0  0  0
   -7.6389  -11.1197   -0.0000 C   0  0  0  0  0  0  0  0  0  0  0  0
   -8.9694  -11.8444   -0.0000 N   0  0  0  0  0  0  0  0  0  0  0  0
  1  2  1  0  0  0  0
  2  3  2  0  0  0  0
  2  4  1  0  0  0  0
  3  5  1  0  0  0  0
  3  6  1  0  0  0  0
  4  7  2  0  0  0  0
  5  8  1  0  0  0  0
  6  9  2  0  0  0  0
  7 10  1  0  0  0  0
  8 11  2  0  0  0  0
  8 12  1  0  0  0  0
  9 13  1  0  0  0  0
 11 14  1  0  0  0  0
 12 15  1  0  0  0  0
 12 16  2  0  0  0  0
 13 17  2  0  0  0  0
 13 18  1  0  0  0  0
 14 19  2  0  0  0  0
 15 20  1  0  0  0  0
 16 21  1  0  0  0  0
 16 22  1  0  0  0  0
 18 23  1  0  0  0  0
 21 24  1  0  0  0  0
 22 25  1  0  0  0  0
 22 26  1  0  0  0  0
 23 27  1  0  0  0  0
 23 28  1  0  0  0  0
 24 29  1  0  0  0  0
 24 30  2  0  0  0  0
 29 31  1  0  0  0  0
 30 32  1  0  0  0  0
 31 33  1  0  0  0  0
 33 34  1  0  0  0  0
 34 35  1  0  0  0  0
 34 36  1  0  0  0  0
 35 37  1  0  0  0  0
 36 38  1  0  0  0  0
 37 39  1  0  0  0  0
  7  9  1  0  0  0  0
 15 19  1  0  0  0  0
 20 21  2  0  0  0  0
 27 28  1  0  0  0  0
 31 32  2  0  0  0  0
 38 39  1  0  0  0  0
M  END
>  <MolRegNo>
436399

>  <m>
=

>  <Value>
5000

>  <Unit>
nM

>  <Type>
IC50

>  <pValue>
5.3

>  <Ligand Efficiency>
0

>  <Binding Efficiency>
0

>  <Surface Efficiency>
0

>  <Assay Index>
318721

>  <Assay Category>


>  <Assay Organism>
Homo sapiens

>  <Target ID>
17045

>  <Target Name>
Cytochrome P450 3A4

>  <Target Organism>
Homo sapiens

>  <Target Description>
Target is a single protein chain

>  <Sequence Accession>
P08684

>  <Reference>
Bioorg Med Chem Lett 18 (4), 1354-1358 (2008)

>  <Pubmed ID>
18221875

>  <DOI>
10.1016/j.bmcl.2008.01.012

$$$$
436441
Actelion Java MolfileCreator 1.0

 40 45  0  0  0  0  0  0  0  0999 V2000
    0.0000   -0.0000   -0.0000 F   0  0  0  0  0  0  0  0  0  0  0  0
    1.2937   -0.7359   -0.0000 C   0  0  0  0  0  0  0  0  0  0  0  0
    1.2818   -2.2313   -0.0000 C   0  0  0  0  0  0  0  0  0  0  0  0
    2.5755    0.0237   -0.0000 C   0  0  0  0  0  0  0  0  0  0  0  0
   -0.0356   -2.9671   -0.0000 N   0  0  0  0  0  0  0  0  0  0  0  0
    2.5636   -2.9671   -0.0000 C   0  0  0  0  0  0  0  0  0  0  0  0
    3.8692   -0.7121   -0.0000 C   0  0  0  0  0  0  0  0  0  0  0  0
   -0.0475   -4.4626   -0.0000 C   0  0  0  0  0  0  0  0  0  0  0  0
    3.8573   -2.2076   -0.0000 C   0  0  0  0  0  0  0  0  0  0  0  0
    5.1510    0.0593   -0.0000 F   0  0  0  0  0  0  0  0  0  0  0  0
    1.2343   -5.1984   -0.0000 N   0  0  0  0  0  0  0  0  0  0  0  0
   -1.3649   -5.1984   -0.0000 C   0  0  0  0  0  0  0  0  0  0  0  0
    5.1510   -2.9434   -0.0000 C   0  0  0  0  0  0  0  0  0  0  0  0
    1.2225   -6.6820   -0.0000 C   0  0  0  0  0  0  0  0  0  0  0  0
   -1.3768   -6.6939   -0.0000 N   0  0  0  0  0  0  0  0  0  0  0  0
   -2.8010   -4.7237   -0.0000 C   0  0  0  0  0  0  0  0  0  0  0  0
    5.1391   -4.4389   -0.0000 O   0  0  0  0  0  0  0  0  0  0  0  0
    6.4446   -2.1838   -0.0000 N   0  0  0  0  0  0  0  0  0  0  0  0
   -0.0949   -7.4297   -0.0000 N   0  0  0  0  0  0  0  0  0  0  0  0
   -2.8129   -7.1449   -0.0000 C   0  0  0  0  0  0  0  0  0  0  0  0
   -3.6911   -5.9343   -0.0000 C   0  0  0  0  0  0  0  0  0  0  0  0
   -3.5724   -3.4063   -0.0000 C   0  0  0  0  0  0  0  0  0  0  0  0
    7.7383   -2.9197   -0.0000 C   0  0  0  0  0  0  0  0  0  0  0  0
   -5.2103   -5.9224   -0.0000 C   0  0  0  0  0  0  0  0  0  0  0  0
   -2.8366   -2.0889   -0.0000 C   0  0  0  0  0  0  0  0  0  0  0  0
   -5.0916   -3.3944   -0.0000 C   0  0  0  0  0  0  0  0  0  0  0  0
    8.4742   -4.2015   -0.0000 C   0  0  0  0  0  0  0  0  0  0  0  0
    9.2219   -2.8959   -0.0000 C   0  0  0  0  0  0  0  0  0  0  0  0
   -6.1123   -7.1212   -0.0000 O   0  0  0  0  0  0  0  0  0  0  0  0
   -6.1123   -4.7000   -0.0000 N   0  0  0  0  0  0  0  0  0  0  0  0
   -7.5484   -6.6464   -0.0000 C   0  0  0  0  0  0  0  0  0  0  0  0
   -7.5484   -5.1510   -0.0000 N   0  0  0  0  0  0  0  0  0  0  0  0
   -8.8658   -7.3704   -0.0000 O   0  0  0  0  0  0  0  0  0  0  0  0
   -8.8896   -8.8658   -0.0000 C   0  0  0  0  0  0  0  0  0  0  0  0
  -10.2070   -9.5898   -0.0000 C   0  0  0  0  0  0  0  0  0  0  0  0
  -11.5125   -8.8184   -0.0000 C   0  0  0  0  0  0  0  0  0  0  0  0
  -10.2307  -11.0853   -0.0000 C   0  0  0  0  0  0  0  0  0  0  0  0
  -12.8299   -9.5423   -0.0000 C   0  0  0  0  0  0  0  0  0  0  0  0
  -11.5600  -11.8092   -0.0000 C   0  0  0  0  0  0  0  0  0  0  0  0
  -12.8655  -11.0378   -0.0000 N   0  0  0  0  0  0  0  0  0  0  0  0
  1  2  1  0  0  0  0
  2  3  2  0  0  0  0
  2  4  1  0  0  0  0
  3  5  1  0  0  0  0
  3  6  1  0  0  0  0
  4  7  2  0  0  0  0
  5  8  1  0  0  0  0
  6  9  2  0  0  0  0
  7 10  1  0  0  0  0
  8 11  2  0  0  0  0
  8 12  1  0  0  0  0
  9 13  1  0  0  0  0
 11 14  1  0  0  0  0
 12 15  1  0  0  0  0
 12 16  2  0  0  0  0
 13 17  2  0  0  0  0
 13 18  1  0  0  0  0
 14 19  2  0  0  0  0
 15 20  1  0  0  0  0
 16 21  1  0  0  0  0
 16 22  1  0  0  0  0
 18 23  1  0  0  0  0
 21 24  1  0  0  0  0
 22 25  1  0  0  0  0
 22 26  1  0  0  0  0
 23 27  1  0  0  0  0
 23 28  1  0  0  0  0
 24 29  1  0  0  0  0
 24 30  2  0  0  0  0
 29 31  1  0  0  0  0
 30 32  1  0  0  0  0
 31 33  1  0  0  0  0
 33 34  1  0  0  0  0
 34 35  1  0  0  0  0
 35 36  1  0  0  0  0
 35 37  1  0  0  0  0
 36 38  1  0  0  0  0
 37 39  1  0  0  0  0
 38 40  1  0  0  0  0
  7  9  1  0  0  0  0
 15 19  1  0  0  0  0
 20 21  2  0  0  0  0
 27 28  1  0  0  0  0
 31 32  2  0  0  0  0
 39 40  1  0  0  0  0
M  END
>  <MolRegNo>
436441

>  <m>
=

>  <Value>
7600

>  <Unit>
nM

>  <Type>
IC50

>  <pValue>
5.12

>  <Ligand Efficiency>
0

>  <Binding Efficiency>
0

>  <Surface Efficiency>
0

>  <Assay Index>
318721

>  <Assay Category>


>  <Assay Organism>
Homo sapiens

>  <Target ID>
17045

>  <Target Name>
Cytochrome P450 3A4

>  <Target Organism>
Homo sapiens

>  <Target Description>
Target is a single protein chain

>  <Sequence Accession>
P08684

>  <Reference>
Bioorg Med Chem Lett 18 (4), 1354-1358 (2008)

>  <Pubmed ID>
18221875

>  <DOI>
10.1016/j.bmcl.2008.01.012

$$$$
436443
Actelion Java MolfileCreator 1.0

 38 43  0  0  1  0  0  0  0  0999 V2000
    0.0000   -0.0000   -0.0000 F   0  0  0  0  0  0  0  0  0  0  0  0
    1.2949   -0.7366   -0.0000 C   0  0  0  0  0  0  0  0  0  0  0  0
    1.2830   -2.2334   -0.0000 C   0  0  0  0  0  0  0  0  0  0  0  0
    2.5780    0.0238   -0.0000 C   0  0  0  0  0  0  0  0  0  0  0  0
   -0.0356   -2.9700   -0.0000 N   0  0  0  0  0  0  0  0  0  0  0  0
    2.5661   -2.9700   -0.0000 C   0  0  0  0  0  0  0  0  0  0  0  0
    3.8729   -0.7128   -0.0000 C   0  0  0  0  0  0  0  0  0  0  0  0
   -0.0475   -4.4669   -0.0000 C   0  0  0  0  0  0  0  0  0  0  0  0
    3.8610   -2.2097   -0.0000 C   0  0  0  0  0  0  0  0  0  0  0  0
    5.1559    0.0594   -0.0000 F   0  0  0  0  0  0  0  0  0  0  0  0
    1.2355   -5.2035   -0.0000 N   0  0  0  0  0  0  0  0  0  0  0  0
   -1.3662   -5.2035   -0.0000 C   0  0  0  0  0  0  0  0  0  0  0  0
    5.1559   -2.9462   -0.0000 C   0  0  0  0  0  0  0  0  0  0  0  0
    1.2236   -6.6885   -0.0000 C   0  0  0  0  0  0  0  0  0  0  0  0
   -1.3781   -6.7003   -0.0000 N   0  0  0  0  0  0  0  0  0  0  0  0
   -2.8037   -4.7283   -0.0000 C   0  0  0  0  0  0  0  0  0  0  0  0
    5.1441   -4.4431   -0.0000 O   0  0  0  0  0  0  0  0  0  0  0  0
    6.4509   -2.1859   -0.0000 N   0  0  0  0  0  0  0  0  0  0  0  0
   -0.0950   -7.4369   -0.0000 N   0  0  0  0  0  0  0  0  0  0  0  0
   -2.8156   -7.1518   -0.0000 C   0  0  0  0  0  0  0  0  0  0  0  0
   -3.6947   -5.9281   -0.0000 C   0  0  0  0  0  0  0  0  0  0  0  0
   -3.5759   -3.4096   -0.0000 C   0  0  0  0  0  0  0  0  0  0  0  0
    7.7458   -2.9225   -0.0000 C   0  0  0  0  0  0  0  0  0  0  0  0
   -5.2153   -5.9163   -0.0000 C   0  0  0  0  0  0  0  0  0  0  0  0
   -2.8393   -2.0909   -0.0000 C   0  0  0  0  0  0  0  0  0  0  0  0
   -5.0965   -3.3977   -0.0000 C   0  0  0  0  0  0  0  0  0  0  0  0
    8.4823   -4.2055   -0.0000 C   0  0  0  0  0  0  0  0  0  0  0  0
    9.2308   -2.9106   -0.0000 C   0  0  0  0  0  0  0  0  0  0  0  0
   -6.1182   -7.1161   -0.0000 O   0  0  0  0  0  0  0  0  0  0  0  0
   -6.1182   -4.6926   -0.0000 N   0  0  0  0  0  0  0  0  0  0  0  0
   -7.5557   -6.6409   -0.0000 C   0  0  0  0  0  0  0  0  0  0  0  0
   -7.5557   -5.1441   -0.0000 N   0  0  0  0  0  0  0  0  0  0  0  0
   -8.8744   -7.3656   -0.0000 O   0  0  0  0  0  0  0  0  0  0  0  0
   -8.8981   -8.8625   -0.0000 C   0  0  0  0  0  0  0  0  0  0  0  0
   -7.6983   -9.7535   -0.0000 C   0  0  0  0  0  0  0  0  0  0  0  0
  -10.1337   -9.7297   -0.0000 C   0  0  0  0  0  0  0  0  0  0  0  0
   -8.1853  -11.1672   -0.0000 N   0  0  0  0  0  0  0  0  0  0  0  0
   -9.6941  -11.1553   -0.0000 C   0  0  0  0  0  0  0  0  0  0  0  0
  1  2  1  0  0  0  0
  2  3  2  0  0  0  0
  2  4  1  0  0  0  0
  3  5  1  0  0  0  0
  3  6  1  0  0  0  0
  4  7  2  0  0  0  0
  5  8  1  0  0  0  0
  6  9  2  0  0  0  0
  7 10  1  0  0  0  0
  8 11  2  0  0  0  0
  8 12  1  0  0  0  0
  9 13  1  0  0  0  0
 11 14  1  0  0  0  0
 12 15  1  0  0  0  0
 12 16  2  0  0  0  0
 13 17  2  0  0  0  0
 13 18  1  0  0  0  0
 14 19  2  0  0  0  0
 15 20  1  0  0  0  0
 16 21  1  0  0  0  0
 16 22  1  0  0  0  0
 18 23  1  0  0  0  0
 21 24  1  0  0  0  0
 22 25  1  0  0  0  0
 22 26  1  0  0  0  0
 23 27  1  0  0  0  0
 23 28  1  0  0  0  0
 24 29  1  0  0  0  0
 24 30  2  0  0  0  0
 29 31  1  0  0  0  0
 30 32  1  0  0  0  0
 31 33  1  0  0  0  0
 34 33  1  6  0  0  0
 34 35  1  0  0  0  0
 34 36  1  0  0  0  0
 35 37  1  0  0  0  0
 36 38  1  0  0  0  0
  7  9  1  0  0  0  0
 15 19  1  0  0  0  0
 20 21  2  0  0  0  0
 27 28  1  0  0  0  0
 31 32  2  0  0  0  0
 37 38  1  0  0  0  0
M  END
>  <MolRegNo>
436443

>  <m>
=

>  <Value>
4800

>  <Unit>
nM

>  <Type>
IC50

>  <pValue>
5.32

>  <Ligand Efficiency>
0

>  <Binding Efficiency>
0

>  <Surface Efficiency>
0

>  <Assay Index>
318721

>  <Assay Category>


>  <Assay Organism>
Homo sapiens

>  <Target ID>
17045

>  <Target Name>
Cytochrome P450 3A4

>  <Target Organism>
Homo sapiens

>  <Target Description>
Target is a single protein chain

>  <Sequence Accession>
P08684

>  <Reference>
Bioorg Med Chem Lett 18 (4), 1354-1358 (2008)

>  <Pubmed ID>
18221875

>  <DOI>
10.1016/j.bmcl.2008.01.012

$$$$
436488
Actelion Java MolfileCreator 1.0

 39 44  0  0  0  0  0  0  0  0999 V2000
    0.0000   -0.0000   -0.0000 F   0  0  0  0  0  0  0  0  0  0  0  0
    1.2936   -0.7358   -0.0000 C   0  0  0  0  0  0  0  0  0  0  0  0
    1.2817   -2.2312   -0.0000 C   0  0  0  0  0  0  0  0  0  0  0  0
    2.5753    0.0237   -0.0000 C   0  0  0  0  0  0  0  0  0  0  0  0
   -0.0356   -2.9670   -0.0000 N   0  0  0  0  0  0  0  0  0  0  0  0
    2.5635   -2.9670   -0.0000 C   0  0  0  0  0  0  0  0  0  0  0  0
    3.8690   -0.7121   -0.0000 C   0  0  0  0  0  0  0  0  0  0  0  0
   -0.0475   -4.4624   -0.0000 C   0  0  0  0  0  0  0  0  0  0  0  0
    3.8571   -2.2074   -0.0000 C   0  0  0  0  0  0  0  0  0  0  0  0
    5.1507    0.0593   -0.0000 F   0  0  0  0  0  0  0  0  0  0  0  0
    1.2343   -5.1982   -0.0000 N   0  0  0  0  0  0  0  0  0  0  0  0
   -1.3648   -5.1982   -0.0000 C   0  0  0  0  0  0  0  0  0  0  0  0
    5.1507   -2.9433   -0.0000 C   0  0  0  0  0  0  0  0  0  0  0  0
    1.2224   -6.6817   -0.0000 C   0  0  0  0  0  0  0  0  0  0  0  0
   -1.3767   -6.6935   -0.0000 N   0  0  0  0  0  0  0  0  0  0  0  0
   -2.8008   -4.7235   -0.0000 C   0  0  0  0  0  0  0  0  0  0  0  0
    5.1388   -4.4386   -0.0000 O   0  0  0  0  0  0  0  0  0  0  0  0
    6.4443   -2.1837   -0.0000 N   0  0  0  0  0  0  0  0  0  0  0  0
   -0.0949   -7.4293   -0.0000 N   0  0  0  0  0  0  0  0  0  0  0  0
   -2.8127   -7.1445   -0.0000 C   0  0  0  0  0  0  0  0  0  0  0  0
   -3.6909   -5.9221   -0.0000 C   0  0  0  0  0  0  0  0  0  0  0  0
   -3.5723   -3.4061   -0.0000 C   0  0  0  0  0  0  0  0  0  0  0  0
    7.7379   -2.9195   -0.0000 C   0  0  0  0  0  0  0  0  0  0  0  0
   -5.2100   -5.9102   -0.0000 C   0  0  0  0  0  0  0  0  0  0  0  0
   -2.8364   -2.0888   -0.0000 C   0  0  0  0  0  0  0  0  0  0  0  0
   -5.0914   -3.3942   -0.0000 C   0  0  0  0  0  0  0  0  0  0  0  0
    8.4737   -4.2013   -0.0000 C   0  0  0  0  0  0  0  0  0  0  0  0
    9.2214   -2.9077   -0.0000 C   0  0  0  0  0  0  0  0  0  0  0  0
   -6.1120   -7.1089   -0.0000 O   0  0  0  0  0  0  0  0  0  0  0  0
   -6.1120   -4.6878   -0.0000 N   0  0  0  0  0  0  0  0  0  0  0  0
   -7.5480   -6.6342   -0.0000 C   0  0  0  0  0  0  0  0  0  0  0  0
   -7.5480   -5.1388   -0.0000 N   0  0  0  0  0  0  0  0  0  0  0  0
   -8.8416   -7.4056   -0.0000 N   0  0  0  0  0  0  0  0  0  0  0  0
  -10.1709   -6.6698   -0.0000 C   0  0  0  0  0  0  0  0  0  0  0  0
   -8.8179   -8.9010   -0.0000 C   0  0  0  0  0  0  0  0  0  0  0  0
  -11.4645   -7.4293   -0.0000 C   0  0  0  0  0  0  0  0  0  0  0  0
  -10.1234   -9.6605   -0.0000 C   0  0  0  0  0  0  0  0  0  0  0  0
  -11.4526   -8.9247   -0.0000 N   0  0  0  0  0  0  0  0  0  0  0  0
  -12.7581   -9.6843   -0.0000 C   0  0  0  0  0  0  0  0  0  0  0  0
  1  2  1  0  0  0  0
  2  3  2  0  0  0  0
  2  4  1  0  0  0  0
  3  5  1  0  0  0  0
  3  6  1  0  0  0  0
  4  7  2  0  0  0  0
  5  8  1  0  0  0  0
  6  9  2  0  0  0  0
  7 10  1  0  0  0  0
  8 11  2  0  0  0  0
  8 12  1  0  0  0  0
  9 13  1  0  0  0  0
 11 14  1  0  0  0  0
 12 15  1  0  0  0  0
 12 16  2  0  0  0  0
 13 17  2  0  0  0  0
 13 18  1  0  0  0  0
 14 19  2  0  0  0  0
 15 20  1  0  0  0  0
 16 21  1  0  0  0  0
 16 22  1  0  0  0  0
 18 23  1  0  0  0  0
 21 24  1  0  0  0  0
 22 25  1  0  0  0  0
 22 26  1  0  0  0  0
 23 27  1  0  0  0  0
 23 28  1  0  0  0  0
 24 29  1  0  0  0  0
 24 30  2  0  0  0  0
 29 31  1  0  0  0  0
 30 32  1  0  0  0  0
 31 33  1  0  0  0  0
 33 34  1  0  0  0  0
 33 35  1  0  0  0  0
 34 36  1  0  0  0  0
 35 37  1  0  0  0  0
 36 38  1  0  0  0  0
 38 39  1  0  0  0  0
  7  9  1  0  0  0  0
 15 19  1  0  0  0  0
 20 21  2  0  0  0  0
 27 28  1  0  0  0  0
 31 32  2  0  0  0  0
 37 38  1  0  0  0  0
M  END
>  <MolRegNo>
436488

>  <m>
=

>  <Value>
200

>  <Unit>
nM

>  <Type>
IC50

>  <pValue>
6.7

>  <Ligand Efficiency>
0

>  <Binding Efficiency>
0

>  <Surface Efficiency>
0

>  <Assay Index>
318721

>  <Assay Category>


>  <Assay Organism>
Homo sapiens

>  <Target ID>
17045

>  <Target Name>
Cytochrome P450 3A4

>  <Target Organism>
Homo sapiens

>  <Target Description>
Target is a single protein chain

>  <Sequence Accession>
P08684

>  <Reference>
Bioorg Med Chem Lett 18 (4), 1354-1358 (2008)

>  <Pubmed ID>
18221875

>  <DOI>
10.1016/j.bmcl.2008.01.012

$$$$
436527
Actelion Java MolfileCreator 1.0

 39 44  0  0  0  0  0  0  0  0999 V2000
    0.0000   -0.0000   -0.0000 F   0  0  0  0  0  0  0  0  0  0  0  0
    1.2936   -0.7358   -0.0000 C   0  0  0  0  0  0  0  0  0  0  0  0
    1.2817   -2.2312   -0.0000 C   0  0  0  0  0  0  0  0  0  0  0  0
    2.5753    0.0237   -0.0000 C   0  0  0  0  0  0  0  0  0  0  0  0
   -0.0356   -2.9670   -0.0000 N   0  0  0  0  0  0  0  0  0  0  0  0
    2.5635   -2.9670   -0.0000 C   0  0  0  0  0  0  0  0  0  0  0  0
    3.8690   -0.7121   -0.0000 C   0  0  0  0  0  0  0  0  0  0  0  0
   -0.0475   -4.4624   -0.0000 C   0  0  0  0  0  0  0  0  0  0  0  0
    3.8571   -2.2074   -0.0000 C   0  0  0  0  0  0  0  0  0  0  0  0
    5.1507    0.0593   -0.0000 F   0  0  0  0  0  0  0  0  0  0  0  0
    1.2343   -5.1982   -0.0000 N   0  0  0  0  0  0  0  0  0  0  0  0
   -1.3648   -5.1982   -0.0000 C   0  0  0  0  0  0  0  0  0  0  0  0
    5.1507   -2.9433   -0.0000 C   0  0  0  0  0  0  0  0  0  0  0  0
    1.2224   -6.6817   -0.0000 C   0  0  0  0  0  0  0  0  0  0  0  0
   -1.3767   -6.6935   -0.0000 N   0  0  0  0  0  0  0  0  0  0  0  0
   -2.8008   -4.7235   -0.0000 C   0  0  0  0  0  0  0  0  0  0  0  0
    5.1388   -4.4386   -0.0000 O   0  0  0  0  0  0  0  0  0  0  0  0
    6.4443   -2.1837   -0.0000 N   0  0  0  0  0  0  0  0  0  0  0  0
   -0.0949   -7.4293   -0.0000 N   0  0  0  0  0  0  0  0  0  0  0  0
   -2.8127   -7.1445   -0.0000 C   0  0  0  0  0  0  0  0  0  0  0  0
   -3.6909   -5.9221   -0.0000 C   0  0  0  0  0  0  0  0  0  0  0  0
   -3.5723   -3.4061   -0.0000 C   0  0  0  0  0  0  0  0  0  0  0  0
    7.7379   -2.9195   -0.0000 C   0  0  0  0  0  0  0  0  0  0  0  0
   -5.2100   -5.9102   -0.0000 C   0  0  0  0  0  0  0  0  0  0  0  0
   -2.8364   -2.0888   -0.0000 C   0  0  0  0  0  0  0  0  0  0  0  0
   -5.0914   -3.3942   -0.0000 C   0  0  0  0  0  0  0  0  0  0  0  0
    8.4737   -4.2013   -0.0000 C   0  0  0  0  0  0  0  0  0  0  0  0
    9.2214   -2.9077   -0.0000 C   0  0  0  0  0  0  0  0  0  0  0  0
   -6.1120   -7.1089   -0.0000 O   0  0  0  0  0  0  0  0  0  0  0  0
   -6.1120   -4.6878   -0.0000 N   0  0  0  0  0  0  0  0  0  0  0  0
   -7.5480   -6.6342   -0.0000 C   0  0  0  0  0  0  0  0  0  0  0  0
   -7.5480   -5.1388   -0.0000 N   0  0  0  0  0  0  0  0  0  0  0  0
   -8.8416   -7.4056   -0.0000 N   0  0  0  0  0  0  0  0  0  0  0  0
  -10.1709   -6.6698   -0.0000 C   0  0  0  0  0  0  0  0  0  0  0  0
   -8.8179   -8.9010   -0.0000 C   0  0  0  0  0  0  0  0  0  0  0  0
  -11.4645   -7.4293   -0.0000 C   0  0  0  0  0  0  0  0  0  0  0  0
  -10.1234   -9.6605   -0.0000 C   0  0  0  0  0  0  0  0  0  0  0  0
  -11.4526   -8.9247   -0.0000 C   0  0  0  0  0  0  0  0  0  0  0  0
  -12.7581   -9.6843   -0.0000 N   0  0  0  0  0  0  0  0  0  0  0  0
  1  2  1  0  0  0  0
  2  3  2  0  0  0  0
  2  4  1  0  0  0  0
  3  5  1  0  0  0  0
  3  6  1  0  0  0  0
  4  7  2  0  0  0  0
  5  8  1  0  0  0  0
  6  9  2  0  0  0  0
  7 10  1  0  0  0  0
  8 11  2  0  0  0  0
  8 12  1  0  0  0  0
  9 13  1  0  0  0  0
 11 14  1  0  0  0  0
 12 15  1  0  0  0  0
 12 16  2  0  0  0  0
 13 17  2  0  0  0  0
 13 18  1  0  0  0  0
 14 19  2  0  0  0  0
 15 20  1  0  0  0  0
 16 21  1  0  0  0  0
 16 22  1  0  0  0  0
 18 23  1  0  0  0  0
 21 24  1  0  0  0  0
 22 25  1  0  0  0  0
 22 26  1  0  0  0  0
 23 27  1  0  0  0  0
 23 28  1  0  0  0  0
 24 29  1  0  0  0  0
 24 30  2  0  0  0  0
 29 31  1  0  0  0  0
 30 32  1  0  0  0  0
 31 33  1  0  0  0  0
 33 34  1  0  0  0  0
 33 35  1  0  0  0  0
 34 36  1  0  0  0  0
 35 37  1  0  0  0  0
 36 38  1  0  0  0  0
 38 39  1  0  0  0  0
  7  9  1  0  0  0  0
 15 19  1  0  0  0  0
 20 21  2  0  0  0  0
 27 28  1  0  0  0  0
 31 32  2  0  0  0  0
 37 38  1  0  0  0  0
M  END
>  <MolRegNo>
436527

>  <m>
=

>  <Value>
300

>  <Unit>
nM

>  <Type>
IC50

>  <pValue>
6.52

>  <Ligand Efficiency>
0

>  <Binding Efficiency>
0

>  <Surface Efficiency>
0

>  <Assay Index>
318721

>  <Assay Category>


>  <Assay Organism>
Homo sapiens

>  <Target ID>
17045

>  <Target Name>
Cytochrome P450 3A4

>  <Target Organism>
Homo sapiens

>  <Target Description>
Target is a single protein chain

>  <Sequence Accession>
P08684

>  <Reference>
Bioorg Med Chem Lett 18 (4), 1354-1358 (2008)

>  <Pubmed ID>
18221875

>  <DOI>
10.1016/j.bmcl.2008.01.012

$$$$
436531
Actelion Java MolfileCreator 1.0

 38 42  0  0  0  0  0  0  0  0999 V2000
    0.0000   -0.0000   -0.0000 F   0  0  0  0  0  0  0  0  0  0  0  0
    1.2932   -0.7356   -0.0000 C   0  0  0  0  0  0  0  0  0  0  0  0
    1.2813   -2.2305   -0.0000 C   0  0  0  0  0  0  0  0  0  0  0  0
    2.5745    0.0237   -0.0000 C   0  0  0  0  0  0  0  0  0  0  0  0
   -0.0356   -2.9661   -0.0000 N   0  0  0  0  0  0  0  0  0  0  0  0
    2.5627   -2.9661   -0.0000 C   0  0  0  0  0  0  0  0  0  0  0  0
    3.8677   -0.7119   -0.0000 C   0  0  0  0  0  0  0  0  0  0  0  0
   -0.0475   -4.4610   -0.0000 C   0  0  0  0  0  0  0  0  0  0  0  0
    3.8559   -2.2067   -0.0000 C   0  0  0  0  0  0  0  0  0  0  0  0
    5.1491    0.0593   -0.0000 F   0  0  0  0  0  0  0  0  0  0  0  0
    1.2339   -5.1965   -0.0000 N   0  0  0  0  0  0  0  0  0  0  0  0
   -1.3644   -5.1965   -0.0000 C   0  0  0  0  0  0  0  0  0  0  0  0
    5.1491   -2.9423   -0.0000 C   0  0  0  0  0  0  0  0  0  0  0  0
    1.2220   -6.6796   -0.0000 C   0  0  0  0  0  0  0  0  0  0  0  0
   -1.3763   -6.6914   -0.0000 N   0  0  0  0  0  0  0  0  0  0  0  0
   -2.8000   -4.7220   -0.0000 C   0  0  0  0  0  0  0  0  0  0  0  0
    5.1372   -4.4372   -0.0000 O   0  0  0  0  0  0  0  0  0  0  0  0
    6.4423   -2.1830   -0.0000 N   0  0  0  0  0  0  0  0  0  0  0  0
   -0.0949   -7.4270   -0.0000 N   0  0  0  0  0  0  0  0  0  0  0  0
   -2.8118   -7.1423   -0.0000 C   0  0  0  0  0  0  0  0  0  0  0  0
   -3.6898   -5.9203   -0.0000 C   0  0  0  0  0  0  0  0  0  0  0  0
   -3.5711   -3.4050   -0.0000 C   0  0  0  0  0  0  0  0  0  0  0  0
    7.7355   -2.9186   -0.0000 C   0  0  0  0  0  0  0  0  0  0  0  0
   -5.2084   -5.9084   -0.0000 C   0  0  0  0  0  0  0  0  0  0  0  0
   -2.8356   -2.0881   -0.0000 C   0  0  0  0  0  0  0  0  0  0  0  0
   -5.0898   -3.3932   -0.0000 C   0  0  0  0  0  0  0  0  0  0  0  0
    8.4711   -4.1999   -0.0000 C   0  0  0  0  0  0  0  0  0  0  0  0
    9.2185   -2.9067   -0.0000 C   0  0  0  0  0  0  0  0  0  0  0  0
   -6.1101   -7.1067   -0.0000 O   0  0  0  0  0  0  0  0  0  0  0  0
   -6.1101   -4.6864   -0.0000 N   0  0  0  0  0  0  0  0  0  0  0  0
   -7.5457   -6.6321   -0.0000 C   0  0  0  0  0  0  0  0  0  0  0  0
   -7.5457   -5.1372   -0.0000 N   0  0  0  0  0  0  0  0  0  0  0  0
   -8.8389   -7.4033   -0.0000 N   0  0  0  0  0  0  0  0  0  0  0  0
  -10.1677   -6.6677   -0.0000 C   0  0  0  0  0  0  0  0  0  0  0  0
  -11.4609   -7.4389   -0.0000 C   0  0  0  0  0  0  0  0  0  0  0  0
  -12.7897   -6.7033   -0.0000 C   0  0  0  0  0  0  0  0  0  0  0  0
  -14.0829   -7.4745   -0.0000 C   0  0  0  0  0  0  0  0  0  0  0  0
  -15.4116   -6.7389   -0.0000 N   0  0  0  0  0  0  0  0  0  0  0  0
  1  2  1  0  0  0  0
  2  3  2  0  0  0  0
  2  4  1  0  0  0  0
  3  5  1  0  0  0  0
  3  6  1  0  0  0  0
  4  7  2  0  0  0  0
  5  8  1  0  0  0  0
  6  9  2  0  0  0  0
  7 10  1  0  0  0  0
  8 11  2  0  0  0  0
  8 12  1  0  0  0  0
  9 13  1  0  0  0  0
 11 14  1  0  0  0  0
 12 15  1  0  0  0  0
 12 16  2  0  0  0  0
 13 17  2  0  0  0  0
 13 18  1  0  0  0  0
 14 19  2  0  0  0  0
 15 20  1  0  0  0  0
 16 21  1  0  0  0  0
 16 22  1  0  0  0  0
 18 23  1  0  0  0  0
 21 24  1  0  0  0  0
 22 25  1  0  0  0  0
 22 26  1  0  0  0  0
 23 27  1  0  0  0  0
 23 28  1  0  0  0  0
 24 29  1  0  0  0  0
 24 30  2  0  0  0  0
 29 31  1  0  0  0  0
 30 32  1  0  0  0  0
 31 33  1  0  0  0  0
 33 34  1  0  0  0  0
 34 35  1  0  0  0  0
 35 36  1  0  0  0  0
 36 37  1  0  0  0  0
 37 38  1  0  0  0  0
  7  9  1  0  0  0  0
 15 19  1  0  0  0  0
 20 21  2  0  0  0  0
 27 28  1  0  0  0  0
 31 32  2  0  0  0  0
M  END
>  <MolRegNo>
436531

>  <m>
=

>  <Value>
25000

>  <Unit>
nM

>  <Type>
IC50

>  <pValue>
4.6

>  <Ligand Efficiency>
0

>  <Binding Efficiency>
0

>  <Surface Efficiency>
0

>  <Assay Index>
318721

>  <Assay Category>


>  <Assay Organism>
Homo sapiens

>  <Target ID>
17045

>  <Target Name>
Cytochrome P450 3A4

>  <Target Organism>
Homo sapiens

>  <Target Description>
Target is a single protein chain

>  <Sequence Accession>
P08684

>  <Reference>
Bioorg Med Chem Lett 18 (4), 1354-1358 (2008)

>  <Pubmed ID>
18221875

>  <DOI>
10.1016/j.bmcl.2008.01.012

$$$$
436574
Actelion Java MolfileCreator 1.0

 39 43  0  0  0  0  0  0  0  0999 V2000
    0.0000   -0.0000   -0.0000 F   0  0  0  0  0  0  0  0  0  0  0  0
    1.2933   -0.7356   -0.0000 C   0  0  0  0  0  0  0  0  0  0  0  0
    1.2814   -2.2306   -0.0000 C   0  0  0  0  0  0  0  0  0  0  0  0
    2.5747    0.0237   -0.0000 C   0  0  0  0  0  0  0  0  0  0  0  0
   -0.0356   -2.9663   -0.0000 N   0  0  0  0  0  0  0  0  0  0  0  0
    2.5629   -2.9663   -0.0000 C   0  0  0  0  0  0  0  0  0  0  0  0
    3.8680   -0.7119   -0.0000 C   0  0  0  0  0  0  0  0  0  0  0  0
   -0.0475   -4.4613   -0.0000 C   0  0  0  0  0  0  0  0  0  0  0  0
    3.8562   -2.2069   -0.0000 C   0  0  0  0  0  0  0  0  0  0  0  0
    5.1495    0.0593   -0.0000 F   0  0  0  0  0  0  0  0  0  0  0  0
    1.2340   -5.1969   -0.0000 N   0  0  0  0  0  0  0  0  0  0  0  0
   -1.3645   -5.1969   -0.0000 C   0  0  0  0  0  0  0  0  0  0  0  0
    5.1495   -2.9426   -0.0000 C   0  0  0  0  0  0  0  0  0  0  0  0
    1.2221   -6.6801   -0.0000 C   0  0  0  0  0  0  0  0  0  0  0  0
   -1.3764   -6.6919   -0.0000 N   0  0  0  0  0  0  0  0  0  0  0  0
   -2.8002   -4.7223   -0.0000 C   0  0  0  0  0  0  0  0  0  0  0  0
    5.1376   -4.4376   -0.0000 O   0  0  0  0  0  0  0  0  0  0  0  0
    6.4428   -2.1832   -0.0000 N   0  0  0  0  0  0  0  0  0  0  0  0
   -0.0949   -7.4276   -0.0000 N   0  0  0  0  0  0  0  0  0  0  0  0
   -2.8120   -7.1428   -0.0000 C   0  0  0  0  0  0  0  0  0  0  0  0
   -3.6901   -5.9207   -0.0000 C   0  0  0  0  0  0  0  0  0  0  0  0
   -3.5714   -3.4053   -0.0000 C   0  0  0  0  0  0  0  0  0  0  0  0
    7.7361   -2.9188   -0.0000 C   0  0  0  0  0  0  0  0  0  0  0  0
   -5.2088   -5.9088   -0.0000 C   0  0  0  0  0  0  0  0  0  0  0  0
   -2.8358   -2.0883   -0.0000 C   0  0  0  0  0  0  0  0  0  0  0  0
   -5.0901   -3.3934   -0.0000 C   0  0  0  0  0  0  0  0  0  0  0  0
    8.4717   -4.2003   -0.0000 C   0  0  0  0  0  0  0  0  0  0  0  0
    9.2192   -2.9070   -0.0000 C   0  0  0  0  0  0  0  0  0  0  0  0
   -6.1105   -7.1072   -0.0000 O   0  0  0  0  0  0  0  0  0  0  0  0
   -6.1105   -4.6867   -0.0000 N   0  0  0  0  0  0  0  0  0  0  0  0
   -7.5462   -6.6326   -0.0000 C   0  0  0  0  0  0  0  0  0  0  0  0
   -7.5462   -5.1376   -0.0000 N   0  0  0  0  0  0  0  0  0  0  0  0
   -8.8395   -7.4039   -0.0000 N   0  0  0  0  0  0  0  0  0  0  0  0
  -10.1684   -6.6682   -0.0000 C   0  0  0  0  0  0  0  0  0  0  0  0
  -11.4617   -7.4394   -0.0000 C   0  0  0  0  0  0  0  0  0  0  0  0
  -12.7906   -6.7038   -0.0000 C   0  0  0  0  0  0  0  0  0  0  0  0
  -14.0839   -7.4750   -0.0000 N   0  0  0  0  0  0  0  0  0  0  0  0
  -15.4128   -6.7394   -0.0000 C   0  0  0  0  0  0  0  0  0  0  0  0
  -14.0602   -8.9700   -0.0000 C   0  0  0  0  0  0  0  0  0  0  0  0
  1  2  1  0  0  0  0
  2  3  2  0  0  0  0
  2  4  1  0  0  0  0
  3  5  1  0  0  0  0
  3  6  1  0  0  0  0
  4  7  2  0  0  0  0
  5  8  1  0  0  0  0
  6  9  2  0  0  0  0
  7 10  1  0  0  0  0
  8 11  2  0  0  0  0
  8 12  1  0  0  0  0
  9 13  1  0  0  0  0
 11 14  1  0  0  0  0
 12 15  1  0  0  0  0
 12 16  2  0  0  0  0
 13 17  2  0  0  0  0
 13 18  1  0  0  0  0
 14 19  2  0  0  0  0
 15 20  1  0  0  0  0
 16 21  1  0  0  0  0
 16 22  1  0  0  0  0
 18 23  1  0  0  0  0
 21 24  1  0  0  0  0
 22 25  1  0  0  0  0
 22 26  1  0  0  0  0
 23 27  1  0  0  0  0
 23 28  1  0  0  0  0
 24 29  1  0  0  0  0
 24 30  2  0  0  0  0
 29 31  1  0  0  0  0
 30 32  1  0  0  0  0
 31 33  1  0  0  0  0
 33 34  1  0  0  0  0
 34 35  1  0  0  0  0
 35 36  1  0  0  0  0
 36 37  1  0  0  0  0
 37 38  1  0  0  0  0
 37 39  1  0  0  0  0
  7  9  1  0  0  0  0
 15 19  1  0  0  0  0
 20 21  2  0  0  0  0
 27 28  1  0  0  0  0
 31 32  2  0  0  0  0
M  END
>  <MolRegNo>
436574

>  <m>
=

>  <Value>
29000

>  <Unit>
nM

>  <Type>
IC50

>  <pValue>
4.54

>  <Ligand Efficiency>
0

>  <Binding Efficiency>
0

>  <Surface Efficiency>
0

>  <Assay Index>
318721

>  <Assay Category>


>  <Assay Organism>
Homo sapiens

>  <Target ID>
17045

>  <Target Name>
Cytochrome P450 3A4

>  <Target Organism>
Homo sapiens

>  <Target Description>
Target is a single protein chain

>  <Sequence Accession>
P08684

>  <Reference>
Bioorg Med Chem Lett 18 (4), 1354-1358 (2008)

>  <Pubmed ID>
18221875

>  <DOI>
10.1016/j.bmcl.2008.01.012

$$$$
436624
Actelion Java MolfileCreator 1.0

 39 43  0  0  0  0  0  0  0  0999 V2000
    0.0000   -0.0000   -0.0000 F   0  0  0  0  0  0  0  0  0  0  0  0
    1.2936   -0.7358   -0.0000 C   0  0  0  0  0  0  0  0  0  0  0  0
    1.2817   -2.2312   -0.0000 C   0  0  0  0  0  0  0  0  0  0  0  0
    2.5753    0.0237   -0.0000 C   0  0  0  0  0  0  0  0  0  0  0  0
   -0.0356   -2.9670   -0.0000 N   0  0  0  0  0  0  0  0  0  0  0  0
    2.5635   -2.9670   -0.0000 C   0  0  0  0  0  0  0  0  0  0  0  0
    3.8689   -0.7121   -0.0000 C   0  0  0  0  0  0  0  0  0  0  0  0
   -0.0475   -4.4623   -0.0000 C   0  0  0  0  0  0  0  0  0  0  0  0
    3.8570   -2.2074   -0.0000 C   0  0  0  0  0  0  0  0  0  0  0  0
    5.1506    0.0593   -0.0000 F   0  0  0  0  0  0  0  0  0  0  0  0
    1.2343   -5.1981   -0.0000 N   0  0  0  0  0  0  0  0  0  0  0  0
   -1.3648   -5.1981   -0.0000 C   0  0  0  0  0  0  0  0  0  0  0  0
    5.1506   -2.9432   -0.0000 C   0  0  0  0  0  0  0  0  0  0  0  0
    1.2224   -6.6816   -0.0000 C   0  0  0  0  0  0  0  0  0  0  0  0
   -1.3767   -6.6935   -0.0000 N   0  0  0  0  0  0  0  0  0  0  0  0
   -2.8008   -4.7234   -0.0000 C   0  0  0  0  0  0  0  0  0  0  0  0
    5.1388   -4.4386   -0.0000 O   0  0  0  0  0  0  0  0  0  0  0  0
    6.4442   -2.1837   -0.0000 N   0  0  0  0  0  0  0  0  0  0  0  0
   -0.0949   -7.4293   -0.0000 N   0  0  0  0  0  0  0  0  0  0  0  0
   -2.8127   -7.1444   -0.0000 C   0  0  0  0  0  0  0  0  0  0  0  0
   -3.6909   -5.9220   -0.0000 C   0  0  0  0  0  0  0  0  0  0  0  0
   -3.5722   -3.4061   -0.0000 C   0  0  0  0  0  0  0  0  0  0  0  0
    7.7378   -2.9195   -0.0000 C   0  0  0  0  0  0  0  0  0  0  0  0
   -5.2100   -5.9102   -0.0000 C   0  0  0  0  0  0  0  0  0  0  0  0
   -2.8364   -2.0887   -0.0000 C   0  0  0  0  0  0  0  0  0  0  0  0
   -5.0913   -3.3942   -0.0000 C   0  0  0  0  0  0  0  0  0  0  0  0
    8.4736   -4.2012   -0.0000 C   0  0  0  0  0  0  0  0  0  0  0  0
    9.2213   -2.9076   -0.0000 C   0  0  0  0  0  0  0  0  0  0  0  0
   -6.1119   -7.1088   -0.0000 O   0  0  0  0  0  0  0  0  0  0  0  0
   -6.1119   -4.6878   -0.0000 N   0  0  0  0  0  0  0  0  0  0  0  0
   -7.5479   -6.6341   -0.0000 C   0  0  0  0  0  0  0  0  0  0  0  0
   -7.5479   -5.1388   -0.0000 N   0  0  0  0  0  0  0  0  0  0  0  0
   -8.8415   -7.4055   -0.0000 N   0  0  0  0  0  0  0  0  0  0  0  0
  -10.1707   -6.6697   -0.0000 C   0  0  0  0  0  0  0  0  0  0  0  0
  -11.4643   -7.4411   -0.0000 C   0  0  0  0  0  0  0  0  0  0  0  0
  -12.7579   -8.2125   -0.0000 C   0  0  0  0  0  0  0  0  0  0  0  0
  -10.7167   -8.7229   -0.0000 C   0  0  0  0  0  0  0  0  0  0  0  0
  -12.2357   -6.1357   -0.0000 C   0  0  0  0  0  0  0  0  0  0  0  0
  -14.0871   -7.4767   -0.0000 N   0  0  0  0  0  0  0  0  0  0  0  0
  1  2  1  0  0  0  0
  2  3  2  0  0  0  0
  2  4  1  0  0  0  0
  3  5  1  0  0  0  0
  3  6  1  0  0  0  0
  4  7  2  0  0  0  0
  5  8  1  0  0  0  0
  6  9  2  0  0  0  0
  7 10  1  0  0  0  0
  8 11  2  0  0  0  0
  8 12  1  0  0  0  0
  9 13  1  0  0  0  0
 11 14  1  0  0  0  0
 12 15  1  0  0  0  0
 12 16  2  0  0  0  0
 13 17  2  0  0  0  0
 13 18  1  0  0  0  0
 14 19  2  0  0  0  0
 15 20  1  0  0  0  0
 16 21  1  0  0  0  0
 16 22  1  0  0  0  0
 18 23  1  0  0  0  0
 21 24  1  0  0  0  0
 22 25  1  0  0  0  0
 22 26  1  0  0  0  0
 23 27  1  0  0  0  0
 23 28  1  0  0  0  0
 24 29  1  0  0  0  0
 24 30  2  0  0  0  0
 29 31  1  0  0  0  0
 30 32  1  0  0  0  0
 31 33  1  0  0  0  0
 33 34  1  0  0  0  0
 34 35  1  0  0  0  0
 35 36  1  0  0  0  0
 35 37  1  0  0  0  0
 35 38  1  0  0  0  0
 36 39  1  0  0  0  0
  7  9  1  0  0  0  0
 15 19  1  0  0  0  0
 20 21  2  0  0  0  0
 27 28  1  0  0  0  0
 31 32  2  0  0  0  0
M  END
>  <MolRegNo>
436624

>  <m>
=

>  <Value>
1400

>  <Unit>
nM

>  <Type>
IC50

>  <pValue>
5.85

>  <Ligand Efficiency>
0

>  <Binding Efficiency>
0

>  <Surface Efficiency>
0

>  <Assay Index>
318721

>  <Assay Category>


>  <Assay Organism>
Homo sapiens

>  <Target ID>
17045

>  <Target Name>
Cytochrome P450 3A4

>  <Target Organism>
Homo sapiens

>  <Target Description>
Target is a single protein chain

>  <Sequence Accession>
P08684

>  <Reference>
Bioorg Med Chem Lett 18 (4), 1354-1358 (2008)

>  <Pubmed ID>
18221875

>  <DOI>
10.1016/j.bmcl.2008.01.012

$$$$
436723
Actelion Java MolfileCreator 1.0

 36 40  0  0  0  0  0  0  0  0999 V2000
    0.0000   -0.0000   -0.0000 F   0  0  0  0  0  0  0  0  0  0  0  0
    1.2935   -0.7358   -0.0000 C   0  0  0  0  0  0  0  0  0  0  0  0
    1.2816   -2.2310   -0.0000 C   0  0  0  0  0  0  0  0  0  0  0  0
    2.5751    0.0237   -0.0000 C   0  0  0  0  0  0  0  0  0  0  0  0
   -0.0356   -2.9668   -0.0000 N   0  0  0  0  0  0  0  0  0  0  0  0
    2.5633   -2.9668   -0.0000 C   0  0  0  0  0  0  0  0  0  0  0  0
    3.8687   -0.7120   -0.0000 C   0  0  0  0  0  0  0  0  0  0  0  0
   -0.0475   -4.4620   -0.0000 C   0  0  0  0  0  0  0  0  0  0  0  0
    3.8568   -2.2073   -0.0000 C   0  0  0  0  0  0  0  0  0  0  0  0
    5.1503    0.0593   -0.0000 F   0  0  0  0  0  0  0  0  0  0  0  0
    1.2342   -5.1978   -0.0000 N   0  0  0  0  0  0  0  0  0  0  0  0
   -1.3647   -5.1978   -0.0000 C   0  0  0  0  0  0  0  0  0  0  0  0
    5.1503   -2.9430   -0.0000 C   0  0  0  0  0  0  0  0  0  0  0  0
    1.2223   -6.6811   -0.0000 C   0  0  0  0  0  0  0  0  0  0  0  0
   -1.3766   -6.6930   -0.0000 N   0  0  0  0  0  0  0  0  0  0  0  0
   -2.8006   -4.7231   -0.0000 C   0  0  0  0  0  0  0  0  0  0  0  0
    5.1384   -4.4383   -0.0000 O   0  0  0  0  0  0  0  0  0  0  0  0
    6.4438   -2.1835   -0.0000 N   0  0  0  0  0  0  0  0  0  0  0  0
   -0.0949   -7.4288   -0.0000 N   0  0  0  0  0  0  0  0  0  0  0  0
   -2.8125   -7.1440   -0.0000 C   0  0  0  0  0  0  0  0  0  0  0  0
   -3.6906   -5.9335   -0.0000 C   0  0  0  0  0  0  0  0  0  0  0  0
   -3.5720   -3.4058   -0.0000 C   0  0  0  0  0  0  0  0  0  0  0  0
    7.7373   -2.9193   -0.0000 C   0  0  0  0  0  0  0  0  0  0  0  0
   -5.2096   -5.9217   -0.0000 C   0  0  0  0  0  0  0  0  0  0  0  0
   -2.8362   -2.0886   -0.0000 C   0  0  0  0  0  0  0  0  0  0  0  0
   -5.0910   -3.3940   -0.0000 C   0  0  0  0  0  0  0  0  0  0  0  0
    8.4731   -4.2009   -0.0000 C   0  0  0  0  0  0  0  0  0  0  0  0
    9.2207   -2.8956   -0.0000 C   0  0  0  0  0  0  0  0  0  0  0  0
   -6.1115   -7.1202   -0.0000 O   0  0  0  0  0  0  0  0  0  0  0  0
   -6.1115   -4.6993   -0.0000 N   0  0  0  0  0  0  0  0  0  0  0  0
   -7.5474   -6.6455   -0.0000 C   0  0  0  0  0  0  0  0  0  0  0  0
   -7.5474   -5.1503   -0.0000 N   0  0  0  0  0  0  0  0  0  0  0  0
   -8.8409   -7.4169   -0.0000 N   0  0  0  0  0  0  0  0  0  0  0  0
  -10.1701   -6.6811   -0.0000 C   0  0  0  0  0  0  0  0  0  0  0  0
  -11.4636   -7.4525   -0.0000 C   0  0  0  0  0  0  0  0  0  0  0  0
  -12.7927   -6.7167   -0.0000 O   0  0  0  0  0  0  0  0  0  0  0  0
  1  2  1  0  0  0  0
  2  3  2  0  0  0  0
  2  4  1  0  0  0  0
  3  5  1  0  0  0  0
  3  6  1  0  0  0  0
  4  7  2  0  0  0  0
  5  8  1  0  0  0  0
  6  9  2  0  0  0  0
  7 10  1  0  0  0  0
  8 11  2  0  0  0  0
  8 12  1  0  0  0  0
  9 13  1  0  0  0  0
 11 14  1  0  0  0  0
 12 15  1  0  0  0  0
 12 16  2  0  0  0  0
 13 17  2  0  0  0  0
 13 18  1  0  0  0  0
 14 19  2  0  0  0  0
 15 20  1  0  0  0  0
 16 21  1  0  0  0  0
 16 22  1  0  0  0  0
 18 23  1  0  0  0  0
 21 24  1  0  0  0  0
 22 25  1  0  0  0  0
 22 26  1  0  0  0  0
 23 27  1  0  0  0  0
 23 28  1  0  0  0  0
 24 29  1  0  0  0  0
 24 30  2  0  0  0  0
 29 31  1  0  0  0  0
 30 32  1  0  0  0  0
 31 33  1  0  0  0  0
 33 34  1  0  0  0  0
 34 35  1  0  0  0  0
 35 36  1  0  0  0  0
  7  9  1  0  0  0  0
 15 19  1  0  0  0  0
 20 21  2  0  0  0  0
 27 28  1  0  0  0  0
 31 32  2  0  0  0  0
M  END
>  <MolRegNo>
436723

>  <m>
=

>  <Value>
5200

>  <Unit>
nM

>  <Type>
IC50

>  <pValue>
5.28

>  <Ligand Efficiency>
0

>  <Binding Efficiency>
0

>  <Surface Efficiency>
0

>  <Assay Index>
318721

>  <Assay Category>


>  <Assay Organism>
Homo sapiens

>  <Target ID>
17045

>  <Target Name>
Cytochrome P450 3A4

>  <Target Organism>
Homo sapiens

>  <Target Description>
Target is a single protein chain

>  <Sequence Accession>
P08684

>  <Reference>
Bioorg Med Chem Lett 18 (4), 1354-1358 (2008)

>  <Pubmed ID>
18221875

>  <DOI>
10.1016/j.bmcl.2008.01.012

$$$$
436722
Actelion Java MolfileCreator 1.0

 36 40  0  0  0  0  0  0  0  0999 V2000
    0.0000   -0.0000   -0.0000 F   0  0  0  0  0  0  0  0  0  0  0  0
    1.2938   -0.7359   -0.0000 C   0  0  0  0  0  0  0  0  0  0  0  0
    1.2819   -2.2314   -0.0000 C   0  0  0  0  0  0  0  0  0  0  0  0
    2.5756    0.0237   -0.0000 C   0  0  0  0  0  0  0  0  0  0  0  0
   -0.0356   -2.9673   -0.0000 N   0  0  0  0  0  0  0  0  0  0  0  0
    2.5638   -2.9673   -0.0000 C   0  0  0  0  0  0  0  0  0  0  0  0
    3.8694   -0.7122   -0.0000 C   0  0  0  0  0  0  0  0  0  0  0  0
   -0.0475   -4.4629   -0.0000 C   0  0  0  0  0  0  0  0  0  0  0  0
    3.8575   -2.2077   -0.0000 C   0  0  0  0  0  0  0  0  0  0  0  0
    5.1513    0.0593   -0.0000 F   0  0  0  0  0  0  0  0  0  0  0  0
    1.2344   -5.1988   -0.0000 N   0  0  0  0  0  0  0  0  0  0  0  0
   -1.3650   -5.1988   -0.0000 C   0  0  0  0  0  0  0  0  0  0  0  0
    5.1513   -2.9436   -0.0000 C   0  0  0  0  0  0  0  0  0  0  0  0
    1.2225   -6.6824   -0.0000 C   0  0  0  0  0  0  0  0  0  0  0  0
   -1.3768   -6.6943   -0.0000 N   0  0  0  0  0  0  0  0  0  0  0  0
   -2.8012   -4.7240   -0.0000 C   0  0  0  0  0  0  0  0  0  0  0  0
    5.1394   -4.4391   -0.0000 O   0  0  0  0  0  0  0  0  0  0  0  0
    6.4450   -2.1840   -0.0000 N   0  0  0  0  0  0  0  0  0  0  0  0
   -0.0950   -7.4302   -0.0000 N   0  0  0  0  0  0  0  0  0  0  0  0
   -2.8130   -7.1453   -0.0000 C   0  0  0  0  0  0  0  0  0  0  0  0
   -3.6914   -5.9347   -0.0000 C   0  0  0  0  0  0  0  0  0  0  0  0
   -3.5727   -3.4065   -0.0000 C   0  0  0  0  0  0  0  0  0  0  0  0
    7.7388   -2.9199   -0.0000 C   0  0  0  0  0  0  0  0  0  0  0  0
   -5.2106   -5.9228   -0.0000 C   0  0  0  0  0  0  0  0  0  0  0  0
   -2.8368   -2.0890   -0.0000 C   0  0  0  0  0  0  0  0  0  0  0  0
   -5.0919   -3.3946   -0.0000 C   0  0  0  0  0  0  0  0  0  0  0  0
    8.4747   -4.2017   -0.0000 C   0  0  0  0  0  0  0  0  0  0  0  0
    9.2225   -2.8961   -0.0000 C   0  0  0  0  0  0  0  0  0  0  0  0
   -6.1127   -7.1216   -0.0000 O   0  0  0  0  0  0  0  0  0  0  0  0
   -6.1127   -4.7003   -0.0000 N   0  0  0  0  0  0  0  0  0  0  0  0
   -7.5489   -6.6468   -0.0000 C   0  0  0  0  0  0  0  0  0  0  0  0
   -7.5489   -5.1513   -0.0000 N   0  0  0  0  0  0  0  0  0  0  0  0
   -8.7714   -7.5252   -0.0000 N   0  0  0  0  0  0  0  0  0  0  0  0
  -10.1601   -6.9079   -0.0000 C   0  0  0  0  0  0  0  0  0  0  0  0
  -11.3827   -7.7744   -0.0000 C   0  0  0  0  0  0  0  0  0  0  0  0
  -10.3263   -5.4005   -0.0000 C   0  0  0  0  0  0  0  0  0  0  0  0
  1  2  1  0  0  0  0
  2  3  2  0  0  0  0
  2  4  1  0  0  0  0
  3  5  1  0  0  0  0
  3  6  1  0  0  0  0
  4  7  2  0  0  0  0
  5  8  1  0  0  0  0
  6  9  2  0  0  0  0
  7 10  1  0  0  0  0
  8 11  2  0  0  0  0
  8 12  1  0  0  0  0
  9 13  1  0  0  0  0
 11 14  1  0  0  0  0
 12 15  1  0  0  0  0
 12 16  2  0  0  0  0
 13 17  2  0  0  0  0
 13 18  1  0  0  0  0
 14 19  2  0  0  0  0
 15 20  1  0  0  0  0
 16 21  1  0  0  0  0
 16 22  1  0  0  0  0
 18 23  1  0  0  0  0
 21 24  1  0  0  0  0
 22 25  1  0  0  0  0
 22 26  1  0  0  0  0
 23 27  1  0  0  0  0
 23 28  1  0  0  0  0
 24 29  1  0  0  0  0
 24 30  2  0  0  0  0
 29 31  1  0  0  0  0
 30 32  1  0  0  0  0
 31 33  1  0  0  0  0
 33 34  1  0  0  0  0
 34 35  1  0  0  0  0
 34 36  1  0  0  0  0
  7  9  1  0  0  0  0
 15 19  1  0  0  0  0
 20 21  2  0  0  0  0
 27 28  1  0  0  0  0
 31 32  2  0  0  0  0
M  END
>  <MolRegNo>
436722

>  <m>
=

>  <Value>
400

>  <Unit>
nM

>  <Type>
IC50

>  <pValue>
6.4

>  <Ligand Efficiency>
0

>  <Binding Efficiency>
0

>  <Surface Efficiency>
0

>  <Assay Index>
318721

>  <Assay Category>


>  <Assay Organism>
Homo sapiens

>  <Target ID>
17045

>  <Target Name>
Cytochrome P450 3A4

>  <Target Organism>
Homo sapiens

>  <Target Description>
Target is a single protein chain

>  <Sequence Accession>
P08684

>  <Reference>
Bioorg Med Chem Lett 18 (4), 1354-1358 (2008)

>  <Pubmed ID>
18221875

>  <DOI>
10.1016/j.bmcl.2008.01.012

$$$$
436724
Actelion Java MolfileCreator 1.0

 36 40  0  0  0  0  0  0  0  0999 V2000
    0.0000   -0.0000   -0.0000 F   0  0  0  0  0  0  0  0  0  0  0  0
    1.2938   -0.7359   -0.0000 C   0  0  0  0  0  0  0  0  0  0  0  0
    1.2819   -2.2314   -0.0000 C   0  0  0  0  0  0  0  0  0  0  0  0
    2.5757    0.0237   -0.0000 C   0  0  0  0  0  0  0  0  0  0  0  0
   -0.0356   -2.9673   -0.0000 N   0  0  0  0  0  0  0  0  0  0  0  0
    2.5638   -2.9673   -0.0000 C   0  0  0  0  0  0  0  0  0  0  0  0
    3.8694   -0.7122   -0.0000 C   0  0  0  0  0  0  0  0  0  0  0  0
   -0.0475   -4.4629   -0.0000 C   0  0  0  0  0  0  0  0  0  0  0  0
    3.8575   -2.2077   -0.0000 C   0  0  0  0  0  0  0  0  0  0  0  0
    5.1513    0.0593   -0.0000 F   0  0  0  0  0  0  0  0  0  0  0  0
    1.2344   -5.1988   -0.0000 N   0  0  0  0  0  0  0  0  0  0  0  0
   -1.3650   -5.1988   -0.0000 C   0  0  0  0  0  0  0  0  0  0  0  0
    5.1513   -2.9436   -0.0000 C   0  0  0  0  0  0  0  0  0  0  0  0
    1.2225   -6.6825   -0.0000 C   0  0  0  0  0  0  0  0  0  0  0  0
   -1.3768   -6.6943   -0.0000 N   0  0  0  0  0  0  0  0  0  0  0  0
   -2.8012   -4.7240   -0.0000 C   0  0  0  0  0  0  0  0  0  0  0  0
    5.1394   -4.4391   -0.0000 O   0  0  0  0  0  0  0  0  0  0  0  0
    6.4451   -2.1840   -0.0000 N   0  0  0  0  0  0  0  0  0  0  0  0
   -0.0950   -7.4302   -0.0000 N   0  0  0  0  0  0  0  0  0  0  0  0
   -2.8130   -7.1454   -0.0000 C   0  0  0  0  0  0  0  0  0  0  0  0
   -3.6914   -5.9228   -0.0000 C   0  0  0  0  0  0  0  0  0  0  0  0
   -3.5727   -3.4065   -0.0000 C   0  0  0  0  0  0  0  0  0  0  0  0
    7.7388   -2.9199   -0.0000 C   0  0  0  0  0  0  0  0  0  0  0  0
   -5.2107   -5.9110   -0.0000 C   0  0  0  0  0  0  0  0  0  0  0  0
   -2.8368   -2.0890   -0.0000 C   0  0  0  0  0  0  0  0  0  0  0  0
   -5.0920   -3.3946   -0.0000 C   0  0  0  0  0  0  0  0  0  0  0  0
    8.4747   -4.2018   -0.0000 C   0  0  0  0  0  0  0  0  0  0  0  0
    9.2225   -2.9080   -0.0000 C   0  0  0  0  0  0  0  0  0  0  0  0
   -6.1127   -7.1098   -0.0000 O   0  0  0  0  0  0  0  0  0  0  0  0
   -6.1127   -4.6884   -0.0000 N   0  0  0  0  0  0  0  0  0  0  0  0
   -7.5489   -6.6350   -0.0000 C   0  0  0  0  0  0  0  0  0  0  0  0
   -7.5489   -5.1394   -0.0000 N   0  0  0  0  0  0  0  0  0  0  0  0
   -8.7715   -7.5133   -0.0000 N   0  0  0  0  0  0  0  0  0  0  0  0
  -10.1602   -6.8961   -0.0000 C   0  0  0  0  0  0  0  0  0  0  0  0
  -11.3827   -7.7744   -0.0000 C   0  0  0  0  0  0  0  0  0  0  0  0
  -12.7715   -7.1572   -0.0000 C   0  0  0  0  0  0  0  0  0  0  0  0
  1  2  1  0  0  0  0
  2  3  2  0  0  0  0
  2  4  1  0  0  0  0
  3  5  1  0  0  0  0
  3  6  1  0  0  0  0
  4  7  2  0  0  0  0
  5  8  1  0  0  0  0
  6  9  2  0  0  0  0
  7 10  1  0  0  0  0
  8 11  2  0  0  0  0
  8 12  1  0  0  0  0
  9 13  1  0  0  0  0
 11 14  1  0  0  0  0
 12 15  1  0  0  0  0
 12 16  2  0  0  0  0
 13 17  2  0  0  0  0
 13 18  1  0  0  0  0
 14 19  2  0  0  0  0
 15 20  1  0  0  0  0
 16 21  1  0  0  0  0
 16 22  1  0  0  0  0
 18 23  1  0  0  0  0
 21 24  1  0  0  0  0
 22 25  1  0  0  0  0
 22 26  1  0  0  0  0
 23 27  1  0  0  0  0
 23 28  1  0  0  0  0
 24 29  1  0  0  0  0
 24 30  2  0  0  0  0
 29 31  1  0  0  0  0
 30 32  1  0  0  0  0
 31 33  1  0  0  0  0
 33 34  1  0  0  0  0
 34 35  1  0  0  0  0
 35 36  1  0  0  0  0
  7  9  1  0  0  0  0
 15 19  1  0  0  0  0
 20 21  2  0  0  0  0
 27 28  1  0  0  0  0
 31 32  2  0  0  0  0
M  END
>  <MolRegNo>
436724

>  <m>
=

>  <Value>
400

>  <Unit>
nM

>  <Type>
IC50

>  <pValue>
6.4

>  <Ligand Efficiency>
0

>  <Binding Efficiency>
0

>  <Surface Efficiency>
0

>  <Assay Index>
318721

>  <Assay Category>


>  <Assay Organism>
Homo sapiens

>  <Target ID>
17045

>  <Target Name>
Cytochrome P450 3A4

>  <Target Organism>
Homo sapiens

>  <Target Description>
Target is a single protein chain

>  <Sequence Accession>
P08684

>  <Reference>
Bioorg Med Chem Lett 18 (4), 1354-1358 (2008)

>  <Pubmed ID>
18221875

>  <DOI>
10.1016/j.bmcl.2008.01.012

$$$$
436768
Actelion Java MolfileCreator 1.0

 35 39  0  0  0  0  0  0  0  0999 V2000
    0.0000   -0.0000   -0.0000 F   0  0  0  0  0  0  0  0  0  0  0  0
    1.2944   -0.7363   -0.0000 C   0  0  0  0  0  0  0  0  0  0  0  0
    1.2826   -2.2326   -0.0000 C   0  0  0  0  0  0  0  0  0  0  0  0
    2.5770    0.0238   -0.0000 C   0  0  0  0  0  0  0  0  0  0  0  0
   -0.0356   -2.9689   -0.0000 N   0  0  0  0  0  0  0  0  0  0  0  0
    2.5651   -2.9689   -0.0000 C   0  0  0  0  0  0  0  0  0  0  0  0
    3.8715   -0.7125   -0.0000 C   0  0  0  0  0  0  0  0  0  0  0  0
   -0.0475   -4.4653   -0.0000 C   0  0  0  0  0  0  0  0  0  0  0  0
    3.8596   -2.2089   -0.0000 C   0  0  0  0  0  0  0  0  0  0  0  0
    5.1540    0.0594   -0.0000 F   0  0  0  0  0  0  0  0  0  0  0  0
    1.2351   -5.2015   -0.0000 N   0  0  0  0  0  0  0  0  0  0  0  0
   -1.3657   -5.2015   -0.0000 C   0  0  0  0  0  0  0  0  0  0  0  0
    5.1540   -2.9452   -0.0000 C   0  0  0  0  0  0  0  0  0  0  0  0
    1.2232   -6.6860   -0.0000 C   0  0  0  0  0  0  0  0  0  0  0  0
   -1.3776   -6.6979   -0.0000 N   0  0  0  0  0  0  0  0  0  0  0  0
   -2.8027   -4.7265   -0.0000 C   0  0  0  0  0  0  0  0  0  0  0  0
    5.1422   -4.4415   -0.0000 O   0  0  0  0  0  0  0  0  0  0  0  0
    6.4485   -2.1851   -0.0000 N   0  0  0  0  0  0  0  0  0  0  0  0
   -0.0950   -7.4342   -0.0000 N   0  0  0  0  0  0  0  0  0  0  0  0
   -2.8145   -7.1492   -0.0000 C   0  0  0  0  0  0  0  0  0  0  0  0
   -3.6933   -5.9260   -0.0000 C   0  0  0  0  0  0  0  0  0  0  0  0
   -3.5746   -3.4083   -0.0000 C   0  0  0  0  0  0  0  0  0  0  0  0
    7.7429   -2.9214   -0.0000 C   0  0  0  0  0  0  0  0  0  0  0  0
   -5.2134   -5.9141   -0.0000 C   0  0  0  0  0  0  0  0  0  0  0  0
   -2.8383   -2.0901   -0.0000 C   0  0  0  0  0  0  0  0  0  0  0  0
   -5.0947   -3.3964   -0.0000 C   0  0  0  0  0  0  0  0  0  0  0  0
    8.4792   -4.2040   -0.0000 C   0  0  0  0  0  0  0  0  0  0  0  0
    9.2274   -2.8977   -0.0000 C   0  0  0  0  0  0  0  0  0  0  0  0
   -6.1160   -7.1135   -0.0000 O   0  0  0  0  0  0  0  0  0  0  0  0
   -6.1160   -4.6909   -0.0000 N   0  0  0  0  0  0  0  0  0  0  0  0
   -7.5529   -6.6385   -0.0000 C   0  0  0  0  0  0  0  0  0  0  0  0
   -7.5529   -5.1422   -0.0000 N   0  0  0  0  0  0  0  0  0  0  0  0
   -8.7761   -7.5054   -0.0000 N   0  0  0  0  0  0  0  0  0  0  0  0
  -10.1656   -6.8879   -0.0000 C   0  0  0  0  0  0  0  0  0  0  0  0
   -8.6336   -8.9899   -0.0000 C   0  0  0  0  0  0  0  0  0  0  0  0
  1  2  1  0  0  0  0
  2  3  2  0  0  0  0
  2  4  1  0  0  0  0
  3  5  1  0  0  0  0
  3  6  1  0  0  0  0
  4  7  2  0  0  0  0
  5  8  1  0  0  0  0
  6  9  2  0  0  0  0
  7 10  1  0  0  0  0
  8 11  2  0  0  0  0
  8 12  1  0  0  0  0
  9 13  1  0  0  0  0
 11 14  1  0  0  0  0
 12 15  1  0  0  0  0
 12 16  2  0  0  0  0
 13 17  2  0  0  0  0
 13 18  1  0  0  0  0
 14 19  2  0  0  0  0
 15 20  1  0  0  0  0
 16 21  1  0  0  0  0
 16 22  1  0  0  0  0
 18 23  1  0  0  0  0
 21 24  1  0  0  0  0
 22 25  1  0  0  0  0
 22 26  1  0  0  0  0
 23 27  1  0  0  0  0
 23 28  1  0  0  0  0
 24 29  1  0  0  0  0
 24 30  2  0  0  0  0
 29 31  1  0  0  0  0
 30 32  1  0  0  0  0
 31 33  1  0  0  0  0
 33 34  1  0  0  0  0
 33 35  1  0  0  0  0
  7  9  1  0  0  0  0
 15 19  1  0  0  0  0
 20 21  2  0  0  0  0
 27 28  1  0  0  0  0
 31 32  2  0  0  0  0
M  END
>  <MolRegNo>
436768

>  <m>
=

>  <Value>
800

>  <Unit>
nM

>  <Type>
IC50

>  <pValue>
6.1

>  <Ligand Efficiency>
0

>  <Binding Efficiency>
0

>  <Surface Efficiency>
0

>  <Assay Index>
318721

>  <Assay Category>


>  <Assay Organism>
Homo sapiens

>  <Target ID>
17045

>  <Target Name>
Cytochrome P450 3A4

>  <Target Organism>
Homo sapiens

>  <Target Description>
Target is a single protein chain

>  <Sequence Accession>
P08684

>  <Reference>
Bioorg Med Chem Lett 18 (4), 1354-1358 (2008)

>  <Pubmed ID>
18221875

>  <DOI>
10.1016/j.bmcl.2008.01.012

$$$$
441255
Actelion Java MolfileCreator 1.0

 30 31  0  0  0  0  0  0  0  0999 V2000
    0.0000   -0.0000   -0.0000 O   0  0  0  0  0  0  0  0  0  0  0  0
   -0.0118   -1.4901   -0.0000 C   0  0  0  0  0  0  0  0  0  0  0  0
    1.2772   -2.2233   -0.0000 N   0  0  0  0  0  0  0  0  0  0  0  0
   -1.3245   -2.2233   -0.0000 C   0  0  0  0  0  0  0  0  0  0  0  0
    2.5662   -1.4546   -0.0000 C   0  0  0  0  0  0  0  0  0  0  0  0
   -2.6372   -1.4664   -0.0000 N   0  0  0  0  0  0  0  0  0  0  0  0
   -1.3363   -3.7134   -0.0000 C   0  0  0  0  0  0  0  0  0  0  0  0
    3.8553   -2.1878   -0.0000 C   0  0  0  0  0  0  0  0  0  0  0  0
    2.5544    0.0591   -0.0000 C   0  0  0  0  0  0  0  0  0  0  0  0
   -3.9499   -2.1996   -0.0000 C   0  0  0  0  0  0  0  0  0  0  0  0
   -2.6490   -4.4466   -0.0000 C   0  0  0  0  0  0  0  0  0  0  0  0
    3.8434   -3.6779   -0.0000 O   0  0  0  0  0  0  0  0  0  0  0  0
    5.1443   -1.4309   -0.0000 N   0  0  0  0  0  0  0  0  0  0  0  0
    1.2417    0.8160   -0.0000 O   0  0  0  0  0  0  0  0  0  0  0  0
    3.8434    0.8160   -0.0000 C   0  0  0  0  0  0  0  0  0  0  0  0
   -5.2626   -1.4428   -0.0000 C   0  0  0  0  0  0  0  0  0  0  0  0
   -3.9617   -3.6897   -0.0000 C   0  0  0  0  0  0  0  0  0  0  0  0
    6.4333   -2.1642   -0.0000 C   0  0  0  0  0  0  0  0  0  0  0  0
   -5.2744    0.0710   -0.0000 C   0  0  0  0  0  0  0  0  0  0  0  0
   -6.5752   -2.1760   -0.0000 C   0  0  0  0  0  0  0  0  0  0  0  0
    6.4215   -3.6542   -0.0000 C   0  0  0  0  0  0  0  0  0  0  0  0
    7.7224   -1.4073   -0.0000 B   0  0  0  0  0  0  0  0  0  0  0  0
   -6.5871    0.8278   -0.0000 C   0  0  0  0  0  0  0  0  0  0  0  0
   -7.8879   -1.4191   -0.0000 C   0  0  0  0  0  0  0  0  0  0  0  0
    7.7105   -4.3874   -0.0000 C   0  0  0  0  0  0  0  0  0  0  0  0
    9.0114   -2.1405   -0.0000 O   0  0  0  0  0  0  0  0  0  0  0  0
    7.7105    0.1064   -0.0000 O   0  0  0  0  0  0  0  0  0  0  0  0
   -7.8997    0.0946   -0.0000 C   0  0  0  0  0  0  0  0  0  0  0  0
    7.6987   -5.8775   -0.0000 C   0  0  0  0  0  0  0  0  0  0  0  0
    8.9996   -3.6306   -0.0000 C   0  0  0  0  0  0  0  0  0  0  0  0
  1  2  2  0  0  0  0
  2  3  1  0  0  0  0
  2  4  1  0  0  0  0
  5  3  1  1  0  0  0
  4  6  2  0  0  0  0
  4  7  1  0  0  0  0
  5  8  1  0  0  0  0
  5  9  1  0  0  0  0
  6 10  1  0  0  0  0
  7 11  2  0  0  0  0
  8 12  2  0  0  0  0
  8 13  1  0  0  0  0
  9 14  1  6  0  0  0
  9 15  1  0  0  0  0
 10 16  1  0  0  0  0
 10 17  2  0  0  0  0
 18 13  1  6  0  0  0
 16 19  2  0  0  0  0
 16 20  1  0  0  0  0
 18 21  1  0  0  0  0
 18 22  1  0  0  0  0
 19 23  1  0  0  0  0
 20 24  2  0  0  0  0
 21 25  1  0  0  0  0
 22 26  1  0  0  0  0
 22 27  1  0  0  0  0
 23 28  2  0  0  0  0
 25 29  1  0  0  0  0
 25 30  1  0  0  0  0
 11 17  1  0  0  0  0
 24 28  1  0  0  0  0
M  END
>  <MolRegNo>
441255

>  <m>
=

>  <Value>
3500

>  <Unit>
nM

>  <Type>
IC50

>  <pValue>
5.46

>  <Ligand Efficiency>
0

>  <Binding Efficiency>
0

>  <Surface Efficiency>
0

>  <Assay Index>
313402

>  <Assay Category>


>  <Assay Organism>
Homo sapiens

>  <Target ID>
17045

>  <Target Name>
Cytochrome P450 3A4

>  <Target Organism>
Homo sapiens

>  <Target Description>
Target is a single protein chain

>  <Sequence Accession>
P08684

>  <Reference>
J Med Chem 51 (4), 1068-1072 (2008)

>  <Pubmed ID>
18247547

>  <DOI>
10.1021/jm7010589

$$$$
436509
Actelion Java MolfileCreator 1.0

 33 36  0  0  0  0  0  0  0  0999 V2000
    0.0000   -0.0000   -0.0000 O   0  0  0  0  0  0  0  0  0  0  0  0
   -0.0238    1.5127   -0.0000 C   0  0  0  0  0  0  0  0  0  0  0  0
   -1.3341    2.2631   -0.0000 N   0  0  0  0  0  0  0  0  0  0  0  0
    1.2626    2.2870   -0.0000 C   0  0  0  0  0  0  0  0  0  0  0  0
   -2.6443    1.5127   -0.0000 C   0  0  0  0  0  0  0  0  0  0  0  0
    2.5490    1.5604   -0.0000 C   0  0  0  0  0  0  0  0  0  0  0  0
   -2.6562    0.0119   -0.0000 N   0  0  0  0  0  0  0  0  0  0  0  0
   -3.9664    2.2631   -0.0000 C   0  0  0  0  0  0  0  0  0  0  0  0
    3.8235    2.3346   -0.0000 C   0  0  0  0  0  0  0  0  0  0  0  0
    2.5371    0.0715   -0.0000 C   0  0  0  0  0  0  0  0  0  0  0  0
   -3.9783   -0.7266   -0.0000 C   0  0  0  0  0  0  0  0  0  0  0  0
   -5.2648    1.5246   -0.0000 C   0  0  0  0  0  0  0  0  0  0  0  0
    5.1099    1.6080   -0.0000 C   0  0  0  0  0  0  0  0  0  0  0  0
    3.8235   -0.6551   -0.0000 C   0  0  0  0  0  0  0  0  0  0  0  0
   -5.2886    0.0357   -0.0000 N   0  0  0  0  0  0  0  0  0  0  0  0
   -3.9903   -2.2036   -0.0000 C   0  0  0  0  0  0  0  0  0  0  0  0
   -6.5750    2.2870   -0.0000 N   0  0  0  0  0  0  0  0  0  0  0  0
    6.3963    2.3822   -0.0000 O   0  0  0  0  0  0  0  0  0  0  0  0
    5.1099    0.1072   -0.0000 C   0  0  0  0  0  0  0  0  0  0  0  0
    3.8235   -2.1440   -0.0000 O   0  0  0  0  0  0  0  0  0  0  0  0
   -2.7038   -2.9421   -0.0000 N   0  0  0  0  0  0  0  0  0  0  0  0
   -5.3124   -2.9421   -0.0000 C   0  0  0  0  0  0  0  0  0  0  0  0
   -6.7417    3.7997   -0.0000 N   0  0  0  0  0  0  0  0  0  0  0  0
   -7.9567    1.6914   -0.0000 C   0  0  0  0  0  0  0  0  0  0  0  0
    6.3725    3.8950   -0.0000 C   0  0  0  0  0  0  0  0  0  0  0  0
    5.1099   -2.8825   -0.0000 C   0  0  0  0  0  0  0  0  0  0  0  0
   -2.7158   -4.4310   -0.0000 C   0  0  0  0  0  0  0  0  0  0  0  0
   -5.3243   -4.4310   -0.0000 C   0  0  0  0  0  0  0  0  0  0  0  0
   -8.2187    4.1213   -0.0000 C   0  0  0  0  0  0  0  0  0  0  0  0
   -8.9691    2.8230   -0.0000 C   0  0  0  0  0  0  0  0  0  0  0  0
   -8.2783    0.2382   -0.0000 C   0  0  0  0  0  0  0  0  0  0  0  0
   -4.0379   -5.1814   -0.0000 C   0  0  0  0  0  0  0  0  0  0  0  0
   -8.8381    5.5030   -0.0000 C   0  0  0  0  0  0  0  0  0  0  0  0
  1  2  2  0  0  0  0
  2  3  1  0  0  0  0
  2  4  1  0  0  0  0
  3  5  1  0  0  0  0
  4  6  1  0  0  0  0
  5  7  2  0  0  0  0
  5  8  1  0  0  0  0
  6  9  2  0  0  0  0
  6 10  1  0  0  0  0
  7 11  1  0  0  0  0
  8 12  2  0  0  0  0
  9 13  1  0  0  0  0
 10 14  2  0  0  0  0
 11 15  2  0  0  0  0
 11 16  1  0  0  0  0
 12 17  1  0  0  0  0
 13 18  1  0  0  0  0
 13 19  2  0  0  0  0
 14 20  1  0  0  0  0
 16 21  2  0  0  0  0
 16 22  1  0  0  0  0
 17 23  1  0  0  0  0
 17 24  1  0  0  0  0
 18 25  1  0  0  0  0
 20 26  1  0  0  0  0
 21 27  1  0  0  0  0
 22 28  2  0  0  0  0
 23 29  2  0  0  0  0
 24 30  2  0  0  0  0
 24 31  1  0  0  0  0
 27 32  2  0  0  0  0
 29 33  1  0  0  0  0
 12 15  1  0  0  0  0
 14 19  1  0  0  0  0
 28 32  1  0  0  0  0
 29 30  1  0  0  0  0
M  END
>  <MolRegNo>
436509

>  <m>
=

>  <Value>
1300

>  <Unit>
nM

>  <Type>
IC50

>  <pValue>
5.89

>  <Ligand Efficiency>
0

>  <Binding Efficiency>
0

>  <Surface Efficiency>
0

>  <Assay Index>
314108

>  <Assay Category>


>  <Assay Organism>


>  <Target ID>
17045

>  <Target Name>
Cytochrome P450 3A4

>  <Target Organism>
Homo sapiens

>  <Target Description>
Target is a single protein chain

>  <Sequence Accession>
P08684

>  <Reference>
Bioorg Med Chem Lett 18 (4), 1269-1273 (2008)

>  <Pubmed ID>
18249540

>  <DOI>
10.1016/j.bmcl.2008.01.036

$$$$
436471
Actelion Java MolfileCreator 1.0

 34 37  0  0  0  0  0  0  0  0999 V2000
    0.0000   -0.0000   -0.0000 O   0  0  0  0  0  0  0  0  0  0  0  0
   -0.0238    1.5129   -0.0000 C   0  0  0  0  0  0  0  0  0  0  0  0
   -1.3342    2.2634   -0.0000 N   0  0  0  0  0  0  0  0  0  0  0  0
    1.2628    2.2873   -0.0000 C   0  0  0  0  0  0  0  0  0  0  0  0
   -2.6447    1.5129   -0.0000 C   0  0  0  0  0  0  0  0  0  0  0  0
    2.5494    1.5606   -0.0000 C   0  0  0  0  0  0  0  0  0  0  0  0
   -2.6566    0.0119   -0.0000 N   0  0  0  0  0  0  0  0  0  0  0  0
   -3.9670    2.2634   -0.0000 C   0  0  0  0  0  0  0  0  0  0  0  0
    3.8240    2.3349   -0.0000 C   0  0  0  0  0  0  0  0  0  0  0  0
    2.5374    0.0715   -0.0000 C   0  0  0  0  0  0  0  0  0  0  0  0
   -3.9789   -0.7267   -0.0000 C   0  0  0  0  0  0  0  0  0  0  0  0
   -5.2655    1.5248   -0.0000 C   0  0  0  0  0  0  0  0  0  0  0  0
    5.1106    1.6082   -0.0000 C   0  0  0  0  0  0  0  0  0  0  0  0
    3.8240   -0.6552   -0.0000 C   0  0  0  0  0  0  0  0  0  0  0  0
   -5.2893    0.0357   -0.0000 N   0  0  0  0  0  0  0  0  0  0  0  0
   -3.9908   -2.2039   -0.0000 C   0  0  0  0  0  0  0  0  0  0  0  0
   -6.5759    2.2873   -0.0000 N   0  0  0  0  0  0  0  0  0  0  0  0
    6.3972    2.3826   -0.0000 O   0  0  0  0  0  0  0  0  0  0  0  0
    5.1106    0.1072   -0.0000 C   0  0  0  0  0  0  0  0  0  0  0  0
   -2.7042   -2.9425   -0.0000 N   0  0  0  0  0  0  0  0  0  0  0  0
   -5.3131   -2.9425   -0.0000 C   0  0  0  0  0  0  0  0  0  0  0  0
   -6.7427    3.8002   -0.0000 N   0  0  0  0  0  0  0  0  0  0  0  0
   -7.9578    1.6916   -0.0000 C   0  0  0  0  0  0  0  0  0  0  0  0
    6.3734    3.8955   -0.0000 C   0  0  0  0  0  0  0  0  0  0  0  0
    6.4091   -0.6195   -0.0000 O   0  0  0  0  0  0  0  0  0  0  0  0
   -2.7161   -4.4316   -0.0000 C   0  0  0  0  0  0  0  0  0  0  0  0
   -5.3250   -4.4316   -0.0000 C   0  0  0  0  0  0  0  0  0  0  0  0
   -8.2199    4.1218   -0.0000 C   0  0  0  0  0  0  0  0  0  0  0  0
   -8.9704    2.8233   -0.0000 C   0  0  0  0  0  0  0  0  0  0  0  0
   -8.2794    0.2383   -0.0000 C   0  0  0  0  0  0  0  0  0  0  0  0
    6.4091   -2.1086   -0.0000 C   0  0  0  0  0  0  0  0  0  0  0  0
   -4.0385   -5.1821   -0.0000 C   0  0  0  0  0  0  0  0  0  0  0  0
   -8.8393    5.5037   -0.0000 C   0  0  0  0  0  0  0  0  0  0  0  0
    7.7076   -2.8353   -0.0000 C   0  0  0  0  0  0  0  0  0  0  0  0
  1  2  2  0  0  0  0
  2  3  1  0  0  0  0
  2  4  1  0  0  0  0
  3  5  1  0  0  0  0
  4  6  1  0  0  0  0
  5  7  2  0  0  0  0
  5  8  1  0  0  0  0
  6  9  2  0  0  0  0
  6 10  1  0  0  0  0
  7 11  1  0  0  0  0
  8 12  2  0  0  0  0
  9 13  1  0  0  0  0
 10 14  2  0  0  0  0
 11 15  2  0  0  0  0
 11 16  1  0  0  0  0
 12 17  1  0  0  0  0
 13 18  1  0  0  0  0
 13 19  2  0  0  0  0
 16 20  2  0  0  0  0
 16 21  1  0  0  0  0
 17 22  1  0  0  0  0
 17 23  1  0  0  0  0
 18 24  1  0  0  0  0
 19 25  1  0  0  0  0
 20 26  1  0  0  0  0
 21 27  2  0  0  0  0
 22 28  2  0  0  0  0
 23 29  2  0  0  0  0
 23 30  1  0  0  0  0
 25 31  1  0  0  0  0
 26 32  2  0  0  0  0
 28 33  1  0  0  0  0
 31 34  1  0  0  0  0
 12 15  1  0  0  0  0
 14 19  1  0  0  0  0
 27 32  1  0  0  0  0
 28 29  1  0  0  0  0
M  END
>  <MolRegNo>
436471

>  <m>
=

>  <Value>
7000

>  <Unit>
nM

>  <Type>
IC50

>  <pValue>
5.16

>  <Ligand Efficiency>
0

>  <Binding Efficiency>
0

>  <Surface Efficiency>
0

>  <Assay Index>
314108

>  <Assay Category>


>  <Assay Organism>


>  <Target ID>
17045

>  <Target Name>
Cytochrome P450 3A4

>  <Target Organism>
Homo sapiens

>  <Target Description>
Target is a single protein chain

>  <Sequence Accession>
P08684

>  <Reference>
Bioorg Med Chem Lett 18 (4), 1269-1273 (2008)

>  <Pubmed ID>
18249540

>  <DOI>
10.1016/j.bmcl.2008.01.036

$$$$
436902
Actelion Java MolfileCreator 1.0

 31 34  0  0  0  0  0  0  0  0999 V2000
    0.0000   -0.0000   -0.0000 O   0  0  0  0  0  0  0  0  0  0  0  0
   -0.0238    1.5129   -0.0000 C   0  0  0  0  0  0  0  0  0  0  0  0
   -1.3342    2.2753   -0.0000 N   0  0  0  0  0  0  0  0  0  0  0  0
    1.2627    2.2872   -0.0000 C   0  0  0  0  0  0  0  0  0  0  0  0
   -2.6445    1.5248   -0.0000 C   0  0  0  0  0  0  0  0  0  0  0  0
    2.5612    1.5605   -0.0000 C   0  0  0  0  0  0  0  0  0  0  0  0
   -2.6565    0.0238   -0.0000 N   0  0  0  0  0  0  0  0  0  0  0  0
   -3.9668    2.2753   -0.0000 C   0  0  0  0  0  0  0  0  0  0  0  0
    2.5492    0.0715   -0.0000 C   0  0  0  0  0  0  0  0  0  0  0  0
    3.8358    2.3229   -0.0000 C   0  0  0  0  0  0  0  0  0  0  0  0
   -3.9787   -0.7147   -0.0000 C   0  0  0  0  0  0  0  0  0  0  0  0
   -5.2653    1.5367   -0.0000 C   0  0  0  0  0  0  0  0  0  0  0  0
    3.8358   -0.6552   -0.0000 C   0  0  0  0  0  0  0  0  0  0  0  0
    5.1223    1.5963   -0.0000 C   0  0  0  0  0  0  0  0  0  0  0  0
   -5.2891    0.0476   -0.0000 N   0  0  0  0  0  0  0  0  0  0  0  0
   -3.9906   -2.1919   -0.0000 C   0  0  0  0  0  0  0  0  0  0  0  0
   -6.5756    2.2991   -0.0000 N   0  0  0  0  0  0  0  0  0  0  0  0
    5.1223    0.1191   -0.0000 C   0  0  0  0  0  0  0  0  0  0  0  0
   -2.7041   -2.9304   -0.0000 N   0  0  0  0  0  0  0  0  0  0  0  0
   -5.3129   -2.9304   -0.0000 C   0  0  0  0  0  0  0  0  0  0  0  0
   -6.7424    3.8119   -0.0000 N   0  0  0  0  0  0  0  0  0  0  0  0
   -7.9574    1.7035   -0.0000 C   0  0  0  0  0  0  0  0  0  0  0  0
    6.4207   -0.6075   -0.0000 O   0  0  0  0  0  0  0  0  0  0  0  0
   -2.7160   -4.4195   -0.0000 C   0  0  0  0  0  0  0  0  0  0  0  0
   -5.3248   -4.4195   -0.0000 C   0  0  0  0  0  0  0  0  0  0  0  0
   -8.2195    4.1336   -0.0000 C   0  0  0  0  0  0  0  0  0  0  0  0
   -8.9700    2.8351   -0.0000 C   0  0  0  0  0  0  0  0  0  0  0  0
   -8.2791    0.2502   -0.0000 C   0  0  0  0  0  0  0  0  0  0  0  0
    7.7073    0.1668   -0.0000 C   0  0  0  0  0  0  0  0  0  0  0  0
   -4.0383   -5.1700   -0.0000 C   0  0  0  0  0  0  0  0  0  0  0  0
   -8.8390    5.5154   -0.0000 C   0  0  0  0  0  0  0  0  0  0  0  0
  1  2  2  0  0  0  0
  2  3  1  0  0  0  0
  2  4  1  0  0  0  0
  3  5  1  0  0  0  0
  4  6  1  0  0  0  0
  5  7  2  0  0  0  0
  5  8  1  0  0  0  0
  6  9  2  0  0  0  0
  6 10  1  0  0  0  0
  7 11  1  0  0  0  0
  8 12  2  0  0  0  0
  9 13  1  0  0  0  0
 10 14  2  0  0  0  0
 11 15  2  0  0  0  0
 11 16  1  0  0  0  0
 12 17  1  0  0  0  0
 13 18  2  0  0  0  0
 16 19  2  0  0  0  0
 16 20  1  0  0  0  0
 17 21  1  0  0  0  0
 17 22  1  0  0  0  0
 18 23  1  0  0  0  0
 19 24  1  0  0  0  0
 20 25  2  0  0  0  0
 21 26  2  0  0  0  0
 22 27  2  0  0  0  0
 22 28  1  0  0  0  0
 23 29  1  0  0  0  0
 24 30  2  0  0  0  0
 26 31  1  0  0  0  0
 12 15  1  0  0  0  0
 14 18  1  0  0  0  0
 25 30  1  0  0  0  0
 26 27  1  0  0  0  0
M  END
>  <MolRegNo>
436902

>  <m>
=

>  <Value>
1800

>  <Unit>
nM

>  <Type>
IC50

>  <pValue>
5.75

>  <Ligand Efficiency>
0

>  <Binding Efficiency>
0

>  <Surface Efficiency>
0

>  <Assay Index>
314108

>  <Assay Category>


>  <Assay Organism>


>  <Target ID>
17045

>  <Target Name>
Cytochrome P450 3A4

>  <Target Organism>
Homo sapiens

>  <Target Description>
Target is a single protein chain

>  <Sequence Accession>
P08684

>  <Reference>
Bioorg Med Chem Lett 18 (4), 1269-1273 (2008)

>  <Pubmed ID>
18249540

>  <DOI>
10.1016/j.bmcl.2008.01.036

$$$$
435934
Actelion Java MolfileCreator 1.0

 34 36  0  0  1  0  0  0  0  0999 V2000
    0.0000   -0.0000   -0.0000 O   0  0  0  0  0  0  0  0  0  0  0  0
    1.2897   -0.7336   -0.0000 C   0  0  0  0  0  0  0  0  0  0  0  0
    1.2779   -2.2244   -0.0000 N   0  0  0  0  0  0  0  0  0  0  0  0
    2.5794    0.0355   -0.0000 C   0  0  0  0  0  0  0  0  0  0  0  0
   -0.0355   -2.9698   -0.0000 C   0  0  0  0  0  0  0  0  0  0  0  0
    3.8690    0.8046   -0.0000 N   0  0  0  0  0  0  0  0  0  0  0  0
    3.3248   -1.2542   -0.0000 C   0  0  0  0  0  0  0  0  0  0  0  0
    1.8103    1.3370   -0.0000 C   0  0  0  0  0  0  0  0  0  0  0  0
   -0.0473   -4.4606   -0.0000 C   0  0  0  0  0  0  0  0  0  0  0  0
   -1.3488   -2.2126   -0.0000 C   0  0  0  0  0  0  0  0  0  0  0  0
   -1.2660   -5.3362   -0.0000 N   0  0  0  0  0  0  0  0  0  0  0  0
    1.1595   -5.3362   -0.0000 N   0  0  0  0  0  0  0  0  0  0  0  0
   -2.6622   -2.9580   -0.0000 O   0  0  0  0  0  0  0  0  0  0  0  0
   -0.8164   -6.7560   -0.0000 N   0  0  0  0  0  0  0  0  0  0  0  0
    0.6863   -6.7560   -0.0000 N   0  0  0  0  0  0  0  0  0  0  0  0
    2.6385   -5.3125   -0.0000 C   0  0  0  0  0  0  0  0  0  0  0  0
   -3.9755   -2.2007   -0.0000 C   0  0  0  0  0  0  0  0  0  0  0  0
    3.3721   -3.9992   -0.0000 C   0  0  0  0  0  0  0  0  0  0  0  0
    3.3839   -6.6022   -0.0000 C   0  0  0  0  0  0  0  0  0  0  0  0
   -5.2889   -2.9462   -0.0000 C   0  0  0  0  0  0  0  0  0  0  0  0
    4.8629   -3.9755   -0.0000 O   0  0  0  0  0  0  0  0  0  0  0  0
    4.8748   -6.5786   -0.0000 C   0  0  0  0  0  0  0  0  0  0  0  0
   -6.6022   -2.1771   -0.0000 C   0  0  0  0  0  0  0  0  0  0  0  0
   -5.3007   -4.4251   -0.0000 C   0  0  0  0  0  0  0  0  0  0  0  0
    5.5965   -2.6622   -0.0000 C   0  0  0  0  0  0  0  0  0  0  0  0
    6.3538   -6.5549   -0.0000 N   0  0  0  0  0  0  0  0  0  0  0  0
   -7.9156   -2.9107   -0.0000 C   0  0  0  0  0  0  0  0  0  0  0  0
   -6.6022   -5.1706   -0.0000 C   0  0  0  0  0  0  0  0  0  0  0  0
    7.0873   -2.6504   -0.0000 N   0  0  0  0  0  0  0  0  0  0  0  0
    4.8274   -1.3725   -0.0000 C   0  0  0  0  0  0  0  0  0  0  0  0
   -7.9274   -4.4015   -0.0000 C   0  0  0  0  0  0  0  0  0  0  0  0
    7.8209   -1.3370   -0.0000 C   0  0  0  0  0  0  0  0  0  0  0  0
    5.5492   -0.0592   -0.0000 C   0  0  0  0  0  0  0  0  0  0  0  0
    7.0518   -0.0237   -0.0000 C   0  0  0  0  0  0  0  0  0  0  0  0
  1  2  2  0  0  0  0
  2  3  1  0  0  0  0
  2  4  1  0  0  0  0
  5  3  1  1  0  0  0
  4  6  1  0  0  0  0
  4  7  1  0  0  0  0
  4  8  1  0  0  0  0
  5  9  1  0  0  0  0
  5 10  1  0  0  0  0
  9 11  2  0  0  0  0
  9 12  1  0  0  0  0
 10 13  1  0  0  0  0
 11 14  1  0  0  0  0
 12 15  1  0  0  0  0
 16 12  1  1  0  0  0
 13 17  1  0  0  0  0
 16 18  1  0  0  0  0
 16 19  1  0  0  0  0
 17 20  1  0  0  0  0
 18 21  1  0  0  0  0
 19 22  1  0  0  0  0
 20 23  2  0  0  0  0
 20 24  1  0  0  0  0
 21 25  1  0  0  0  0
 22 26  3  0  0  0  0
 23 27  1  0  0  0  0
 24 28  2  0  0  0  0
 25 29  2  0  0  0  0
 25 30  1  0  0  0  0
 27 31  2  0  0  0  0
 29 32  1  0  0  0  0
 30 33  2  0  0  0  0
 32 34  2  0  0  0  0
 14 15  2  0  0  0  0
 28 31  1  0  0  0  0
 33 34  1  0  0  0  0
M  END
>  <MolRegNo>
435934

>  <m>
=

>  <Value>
59000

>  <Unit>
nM

>  <Type>
IC50

>  <pValue>
4.23

>  <Ligand Efficiency>
0

>  <Binding Efficiency>
0

>  <Surface Efficiency>
0

>  <Assay Index>
312704

>  <Assay Category>


>  <Assay Organism>


>  <Target ID>
17045

>  <Target Name>
Cytochrome P450 3A4

>  <Target Organism>
Homo sapiens

>  <Target Description>
Target is a single protein chain

>  <Sequence Accession>
P08684

>  <Reference>
Bioorg Med Chem Lett 18 (6), 2067-2072 (2008)

>  <Pubmed ID>
18282707

>  <DOI>
10.1016/j.bmcl.2008.01.100

$$$$
435888
Actelion Java MolfileCreator 1.0

 35 37  0  0  1  0  0  0  0  0999 V2000
    0.0000   -0.0000   -0.0000 O   0  0  0  0  0  0  0  0  0  0  0  0
    1.2899   -0.7337   -0.0000 C   0  0  0  0  0  0  0  0  0  0  0  0
    1.2781   -2.2248   -0.0000 N   0  0  0  0  0  0  0  0  0  0  0  0
    2.5798    0.0355   -0.0000 C   0  0  0  0  0  0  0  0  0  0  0  0
   -0.0355   -2.9704   -0.0000 C   0  0  0  0  0  0  0  0  0  0  0  0
    3.8698    0.8047   -0.0000 N   0  0  0  0  0  0  0  0  0  0  0  0
    3.3254   -1.2544   -0.0000 C   0  0  0  0  0  0  0  0  0  0  0  0
    1.8106    1.3373   -0.0000 C   0  0  0  0  0  0  0  0  0  0  0  0
   -0.0473   -4.4615   -0.0000 C   0  0  0  0  0  0  0  0  0  0  0  0
   -1.3491   -2.2130   -0.0000 C   0  0  0  0  0  0  0  0  0  0  0  0
   -1.2663   -5.3372   -0.0000 N   0  0  0  0  0  0  0  0  0  0  0  0
    1.1597   -5.3372   -0.0000 N   0  0  0  0  0  0  0  0  0  0  0  0
   -2.6627   -2.9585   -0.0000 O   0  0  0  0  0  0  0  0  0  0  0  0
   -0.8166   -6.7573   -0.0000 N   0  0  0  0  0  0  0  0  0  0  0  0
    0.6864   -6.7573   -0.0000 N   0  0  0  0  0  0  0  0  0  0  0  0
    2.6390   -5.3135   -0.0000 C   0  0  0  0  0  0  0  0  0  0  0  0
   -3.9763   -2.2012   -0.0000 C   0  0  0  0  0  0  0  0  0  0  0  0
    3.3727   -3.9999   -0.0000 C   0  0  0  0  0  0  0  0  0  0  0  0
    3.3846   -6.6035   -0.0000 C   0  0  0  0  0  0  0  0  0  0  0  0
   -5.2899   -2.9467   -0.0000 C   0  0  0  0  0  0  0  0  0  0  0  0
    4.8638   -3.9763   -0.0000 O   0  0  0  0  0  0  0  0  0  0  0  0
    4.8757   -6.5798   -0.0000 C   0  0  0  0  0  0  0  0  0  0  0  0
   -6.6035   -2.1775   -0.0000 C   0  0  0  0  0  0  0  0  0  0  0  0
   -5.3017   -4.4260   -0.0000 C   0  0  0  0  0  0  0  0  0  0  0  0
    5.5976   -2.6627   -0.0000 C   0  0  0  0  0  0  0  0  0  0  0  0
    6.3549   -6.5561   -0.0000 N   0  0  0  0  0  0  0  0  0  0  0  0
   -7.9171   -2.9112   -0.0000 C   0  0  0  0  0  0  0  0  0  0  0  0
   -6.6035   -5.1715   -0.0000 C   0  0  0  0  0  0  0  0  0  0  0  0
    7.0887   -2.6509   -0.0000 C   0  0  0  0  0  0  0  0  0  0  0  0
    4.8283   -1.3728   -0.0000 C   0  0  0  0  0  0  0  0  0  0  0  0
   -7.9289   -4.4023   -0.0000 C   0  0  0  0  0  0  0  0  0  0  0  0
    7.8342   -3.9408   -0.0000 O   0  0  0  0  0  0  0  0  0  0  0  0
    7.8224   -1.3373   -0.0000 C   0  0  0  0  0  0  0  0  0  0  0  0
    5.5502   -0.0592   -0.0000 C   0  0  0  0  0  0  0  0  0  0  0  0
    7.0532   -0.0237   -0.0000 C   0  0  0  0  0  0  0  0  0  0  0  0
  1  2  2  0  0  0  0
  2  3  1  0  0  0  0
  2  4  1  0  0  0  0
  5  3  1  1  0  0  0
  4  6  1  0  0  0  0
  4  7  1  0  0  0  0
  4  8  1  0  0  0  0
  5  9  1  0  0  0  0
  5 10  1  0  0  0  0
  9 11  2  0  0  0  0
  9 12  1  0  0  0  0
 10 13  1  0  0  0  0
 11 14  1  0  0  0  0
 12 15  1  0  0  0  0
 16 12  1  1  0  0  0
 13 17  1  0  0  0  0
 16 18  1  0  0  0  0
 16 19  1  0  0  0  0
 17 20  1  0  0  0  0
 18 21  1  0  0  0  0
 19 22  1  0  0  0  0
 20 23  2  0  0  0  0
 20 24  1  0  0  0  0
 21 25  1  0  0  0  0
 22 26  3  0  0  0  0
 23 27  1  0  0  0  0
 24 28  2  0  0  0  0
 25 29  2  0  0  0  0
 25 30  1  0  0  0  0
 27 31  2  0  0  0  0
 29 32  1  0  0  0  0
 29 33  1  0  0  0  0
 30 34  2  0  0  0  0
 33 35  2  0  0  0  0
 14 15  2  0  0  0  0
 28 31  1  0  0  0  0
 34 35  1  0  0  0  0
M  END
>  <MolRegNo>
435888

>  <m>
=

>  <Value>
9800

>  <Unit>
nM

>  <Type>
IC50

>  <pValue>
5.01

>  <Ligand Efficiency>
0

>  <Binding Efficiency>
0

>  <Surface Efficiency>
0

>  <Assay Index>
312704

>  <Assay Category>


>  <Assay Organism>


>  <Target ID>
17045

>  <Target Name>
Cytochrome P450 3A4

>  <Target Organism>
Homo sapiens

>  <Target Description>
Target is a single protein chain

>  <Sequence Accession>
P08684

>  <Reference>
Bioorg Med Chem Lett 18 (6), 2067-2072 (2008)

>  <Pubmed ID>
18282707

>  <DOI>
10.1016/j.bmcl.2008.01.100

$$$$
441030
Actelion Java MolfileCreator 1.0

 31 34  0  0  1  0  0  0  0  0999 V2000
    0.0000   -0.0000   -0.0000 F   0  0  0  0  0  0  0  0  0  0  0  0
   -0.0119    1.5091   -0.0000 C   0  0  0  0  0  0  0  0  0  0  0  0
   -1.3190    2.2696   -0.0000 C   0  0  0  0  0  0  0  0  0  0  0  0
    1.2714    2.2815   -0.0000 C   0  0  0  0  0  0  0  0  0  0  0  0
   -2.6261    1.5329   -0.0000 O   0  0  0  0  0  0  0  0  0  0  0  0
   -1.3427    3.7787   -0.0000 C   0  0  0  0  0  0  0  0  0  0  0  0
    1.2596    3.7905   -0.0000 C   0  0  0  0  0  0  0  0  0  0  0  0
    2.6736    1.8418   -0.0000 C   0  0  0  0  0  0  0  0  0  0  0  0
   -2.6379    0.0475   -0.0000 C   0  0  0  0  0  0  0  0  0  0  0  0
   -0.0594    4.5510   -0.0000 C   0  0  0  0  0  0  0  0  0  0  0  0
    2.6617    4.2658   -0.0000 N   0  0  0  0  0  0  0  0  0  0  0  0
    3.5410    3.0657   -0.0000 C   0  0  0  0  0  0  0  0  0  0  0  0
   -1.3427   -0.6773   -0.0000 N   0  0  0  0  0  0  0  0  0  0  0  0
   -3.9450   -0.6892   -0.0000 C   0  0  0  0  0  0  0  0  0  0  0  0
    5.0263    3.0776   -0.0000 C   0  0  0  0  0  0  0  0  0  0  0  0
   -1.3546   -2.1745   -0.0000 C   0  0  0  0  0  0  0  0  0  0  0  0
   -3.9569   -2.1864   -0.0000 N   0  0  0  0  0  0  0  0  0  0  0  0
   -5.3947   -0.2139   -0.0000 C   0  0  0  0  0  0  0  0  0  0  0  0
   -2.6736   -2.9112   -0.0000 N   0  0  0  0  0  0  0  0  0  0  0  0
   -5.3947   -2.6498   -0.0000 C   0  0  0  0  0  0  0  0  0  0  0  0
   -6.2859   -1.4259   -0.0000 C   0  0  0  0  0  0  0  0  0  0  0  0
   -5.8700    1.2239   -0.0000 C   0  0  0  0  0  0  0  0  0  0  0  0
   -7.7950   -1.4259   -0.0000 O   0  0  0  0  0  0  0  0  0  0  0  0
   -8.5555   -0.1188   -0.0000 C   0  0  0  0  0  0  0  0  0  0  0  0
  -10.0645   -0.1188   -0.0000 C   0  0  0  0  0  0  0  0  0  0  0  0
  -10.8250   -1.4021   -0.0000 O   0  0  0  0  0  0  0  0  0  0  0  0
  -10.8250    1.1883   -0.0000 C   0  0  0  0  0  0  0  0  0  0  0  0
  -10.0883   -2.6855   -0.0000 C   0  0  0  0  0  0  0  0  0  0  0  0
   -8.6030   -2.6736   -0.0000 O   0  0  0  0  0  0  0  0  0  0  0  0
  -10.8488   -3.9688   -0.0000 C   0  0  0  0  0  0  0  0  0  0  0  0
  -12.3579   -3.9569   -0.0000 N   0  0  0  0  0  0  0  0  0  0  0  0
  1  2  1  0  0  0  0
  2  3  2  0  0  0  0
  2  4  1  0  0  0  0
  3  5  1  0  0  0  0
  3  6  1  0  0  0  0
  4  7  2  0  0  0  0
  4  8  1  0  0  0  0
  5  9  1  0  0  0  0
  6 10  2  0  0  0  0
  7 11  1  0  0  0  0
  8 12  2  0  0  0  0
  9 13  2  0  0  0  0
  9 14  1  0  0  0  0
 12 15  1  0  0  0  0
 13 16  1  0  0  0  0
 14 17  1  0  0  0  0
 14 18  2  0  0  0  0
 16 19  2  0  0  0  0
 17 20  1  0  0  0  0
 18 21  1  0  0  0  0
 18 22  1  0  0  0  0
 21 23  1  0  0  0  0
 23 24  1  0  0  0  0
 24 25  1  0  0  0  0
 25 26  1  6  0  0  0
 25 27  1  0  0  0  0
 26 28  1  0  0  0  0
 28 29  2  0  0  0  0
 28 30  1  0  0  0  0
 30 31  1  0  0  0  0
  7 10  1  0  0  0  0
 11 12  1  0  0  0  0
 17 19  1  0  0  0  0
 20 21  2  0  0  0  0
M  END
>  <MolRegNo>
441030

>  <m>
=

>  <Value>
160

>  <Unit>
nM

>  <Type>
IC50

>  <pValue>
6.8

>  <Ligand Efficiency>
0

>  <Binding Efficiency>
0

>  <Surface Efficiency>
0

>  <Assay Index>
313090

>  <Assay Category>


>  <Assay Organism>
Homo sapiens

>  <Target ID>
17045

>  <Target Name>
Cytochrome P450 3A4

>  <Target Organism>
Homo sapiens

>  <Target Description>
Target is a single protein chain

>  <Sequence Accession>
P08684

>  <Reference>
J Med Chem 51 (6), 1976-1980 (2008)

>  <Pubmed ID>
18288793

>  <DOI>
10.1021/jm7013309

$$$$
441028
Actelion Java MolfileCreator 1.0

 32 35  0  0  1  0  0  0  0  0999 V2000
    0.0000   -0.0000   -0.0000 F   0  0  0  0  0  0  0  0  0  0  0  0
   -0.0119    1.5098   -0.0000 C   0  0  0  0  0  0  0  0  0  0  0  0
   -1.3196    2.2706   -0.0000 C   0  0  0  0  0  0  0  0  0  0  0  0
    1.2720    2.2825   -0.0000 C   0  0  0  0  0  0  0  0  0  0  0  0
   -2.6272    1.5335   -0.0000 O   0  0  0  0  0  0  0  0  0  0  0  0
   -1.3433    3.7804   -0.0000 C   0  0  0  0  0  0  0  0  0  0  0  0
    1.2601    3.7922   -0.0000 C   0  0  0  0  0  0  0  0  0  0  0  0
    2.6748    1.8426   -0.0000 C   0  0  0  0  0  0  0  0  0  0  0  0
   -2.6391    0.0476   -0.0000 C   0  0  0  0  0  0  0  0  0  0  0  0
   -0.0594    4.5531   -0.0000 C   0  0  0  0  0  0  0  0  0  0  0  0
    2.6629    4.2678   -0.0000 N   0  0  0  0  0  0  0  0  0  0  0  0
    3.5426    3.0671   -0.0000 C   0  0  0  0  0  0  0  0  0  0  0  0
   -1.3433   -0.6776   -0.0000 N   0  0  0  0  0  0  0  0  0  0  0  0
   -3.9468   -0.6895   -0.0000 C   0  0  0  0  0  0  0  0  0  0  0  0
    5.0286    3.0790   -0.0000 C   0  0  0  0  0  0  0  0  0  0  0  0
   -1.3552   -2.1755   -0.0000 C   0  0  0  0  0  0  0  0  0  0  0  0
   -3.9468   -2.1874   -0.0000 N   0  0  0  0  0  0  0  0  0  0  0  0
   -5.3971   -0.2140   -0.0000 C   0  0  0  0  0  0  0  0  0  0  0  0
   -2.6748   -2.9125   -0.0000 N   0  0  0  0  0  0  0  0  0  0  0  0
   -5.3852   -2.6510   -0.0000 C   0  0  0  0  0  0  0  0  0  0  0  0
   -6.2887   -1.4266   -0.0000 C   0  0  0  0  0  0  0  0  0  0  0  0
   -5.8726    1.2245   -0.0000 C   0  0  0  0  0  0  0  0  0  0  0  0
   -7.7985   -1.4266   -0.0000 O   0  0  0  0  0  0  0  0  0  0  0  0
   -8.5593   -0.1189   -0.0000 C   0  0  0  0  0  0  0  0  0  0  0  0
  -10.0691   -0.1189   -0.0000 C   0  0  0  0  0  0  0  0  0  0  0  0
  -10.8299   -1.4028   -0.0000 O   0  0  0  0  0  0  0  0  0  0  0  0
  -10.8299    1.1888   -0.0000 C   0  0  0  0  0  0  0  0  0  0  0  0
  -10.0929   -2.6867   -0.0000 C   0  0  0  0  0  0  0  0  0  0  0  0
   -8.6069   -2.6748   -0.0000 O   0  0  0  0  0  0  0  0  0  0  0  0
  -10.8537   -3.9706   -0.0000 C   0  0  0  0  0  0  0  0  0  0  0  0
  -12.3634   -3.9587   -0.0000 N   0  0  0  0  0  0  0  0  0  0  0  0
  -10.1166   -5.2545   -0.0000 C   0  0  0  0  0  0  0  0  0  0  0  0
  1  2  1  0  0  0  0
  2  3  2  0  0  0  0
  2  4  1  0  0  0  0
  3  5  1  0  0  0  0
  3  6  1  0  0  0  0
  4  7  2  0  0  0  0
  4  8  1  0  0  0  0
  5  9  1  0  0  0  0
  6 10  2  0  0  0  0
  7 11  1  0  0  0  0
  8 12  2  0  0  0  0
  9 13  2  0  0  0  0
  9 14  1  0  0  0  0
 12 15  1  0  0  0  0
 13 16  1  0  0  0  0
 14 17  1  0  0  0  0
 14 18  2  0  0  0  0
 16 19  2  0  0  0  0
 17 20  1  0  0  0  0
 18 21  1  0  0  0  0
 18 22  1  0  0  0  0
 21 23  1  0  0  0  0
 23 24  1  0  0  0  0
 24 25  1  0  0  0  0
 25 26  1  6  0  0  0
 25 27  1  0  0  0  0
 26 28  1  0  0  0  0
 28 29  2  0  0  0  0
 28 30  1  0  0  0  0
 30 31  1  1  0  0  0
 30 32  1  0  0  0  0
  7 10  1  0  0  0  0
 11 12  1  0  0  0  0
 17 19  1  0  0  0  0
 20 21  2  0  0  0  0
M  END
>  <MolRegNo>
441028

>  <m>
=

>  <Value>
510

>  <Unit>
nM

>  <Type>
IC50

>  <pValue>
6.29

>  <Ligand Efficiency>
0

>  <Binding Efficiency>
0

>  <Surface Efficiency>
0

>  <Assay Index>
313090

>  <Assay Category>


>  <Assay Organism>
Homo sapiens

>  <Target ID>
17045

>  <Target Name>
Cytochrome P450 3A4

>  <Target Organism>
Homo sapiens

>  <Target Description>
Target is a single protein chain

>  <Sequence Accession>
P08684

>  <Reference>
J Med Chem 51 (6), 1976-1980 (2008)

>  <Pubmed ID>
18288793

>  <DOI>
10.1021/jm7013309

$$$$
440945
Actelion Java MolfileCreator 1.0

 35 38  0  0  1  0  0  0  0  0999 V2000
    0.0000   -0.0000   -0.0000 F   0  0  0  0  0  0  0  0  0  0  0  0
   -0.0119    1.5102   -0.0000 C   0  0  0  0  0  0  0  0  0  0  0  0
   -1.3200    2.2713   -0.0000 C   0  0  0  0  0  0  0  0  0  0  0  0
    1.2724    2.2832   -0.0000 C   0  0  0  0  0  0  0  0  0  0  0  0
   -2.6280    1.5340   -0.0000 O   0  0  0  0  0  0  0  0  0  0  0  0
   -1.3437    3.7815   -0.0000 C   0  0  0  0  0  0  0  0  0  0  0  0
    1.2605    3.7934   -0.0000 C   0  0  0  0  0  0  0  0  0  0  0  0
    2.6756    1.8432   -0.0000 C   0  0  0  0  0  0  0  0  0  0  0  0
   -2.6399    0.0476   -0.0000 C   0  0  0  0  0  0  0  0  0  0  0  0
   -0.0713    4.5545   -0.0000 C   0  0  0  0  0  0  0  0  0  0  0  0
    2.6637    4.2691   -0.0000 N   0  0  0  0  0  0  0  0  0  0  0  0
    3.5437    3.0680   -0.0000 C   0  0  0  0  0  0  0  0  0  0  0  0
   -1.3437   -0.6778   -0.0000 N   0  0  0  0  0  0  0  0  0  0  0  0
   -3.9480   -0.6897   -0.0000 C   0  0  0  0  0  0  0  0  0  0  0  0
    5.0301    3.0799   -0.0000 C   0  0  0  0  0  0  0  0  0  0  0  0
   -1.3556   -2.1762   -0.0000 C   0  0  0  0  0  0  0  0  0  0  0  0
   -3.9480   -2.1880   -0.0000 N   0  0  0  0  0  0  0  0  0  0  0  0
   -5.3988   -0.2140   -0.0000 C   0  0  0  0  0  0  0  0  0  0  0  0
   -2.6756   -2.9134   -0.0000 N   0  0  0  0  0  0  0  0  0  0  0  0
   -5.3869   -2.6518   -0.0000 C   0  0  0  0  0  0  0  0  0  0  0  0
   -6.2906   -1.4270   -0.0000 C   0  0  0  0  0  0  0  0  0  0  0  0
   -5.8744    1.2248   -0.0000 C   0  0  0  0  0  0  0  0  0  0  0  0
   -7.8008   -1.4270   -0.0000 O   0  0  0  0  0  0  0  0  0  0  0  0
   -8.5619   -0.1189   -0.0000 C   0  0  0  0  0  0  0  0  0  0  0  0
  -10.0721   -0.1189   -0.0000 C   0  0  0  0  0  0  0  0  0  0  0  0
  -10.8332   -1.4032   -0.0000 O   0  0  0  0  0  0  0  0  0  0  0  0
  -10.8332    1.1892   -0.0000 C   0  0  0  0  0  0  0  0  0  0  0  0
  -10.0959   -2.6875   -0.0000 C   0  0  0  0  0  0  0  0  0  0  0  0
   -8.6095   -2.6756   -0.0000 O   0  0  0  0  0  0  0  0  0  0  0  0
  -10.8570   -3.9718   -0.0000 C   0  0  0  0  0  0  0  0  0  0  0  0
  -12.3672   -3.9599   -0.0000 N   0  0  0  0  0  0  0  0  0  0  0  0
  -10.1197   -5.2561   -0.0000 C   0  0  0  0  0  0  0  0  0  0  0  0
  -10.8808   -6.5403   -0.0000 C   0  0  0  0  0  0  0  0  0  0  0  0
  -10.1435   -7.8246   -0.0000 C   0  0  0  0  0  0  0  0  0  0  0  0
  -12.3910   -6.5403   -0.0000 C   0  0  0  0  0  0  0  0  0  0  0  0
  1  2  1  0  0  0  0
  2  3  2  0  0  0  0
  2  4  1  0  0  0  0
  3  5  1  0  0  0  0
  3  6  1  0  0  0  0
  4  7  2  0  0  0  0
  4  8  1  0  0  0  0
  5  9  1  0  0  0  0
  6 10  2  0  0  0  0
  7 11  1  0  0  0  0
  8 12  2  0  0  0  0
  9 13  2  0  0  0  0
  9 14  1  0  0  0  0
 12 15  1  0  0  0  0
 13 16  1  0  0  0  0
 14 17  1  0  0  0  0
 14 18  2  0  0  0  0
 16 19  2  0  0  0  0
 17 20  1  0  0  0  0
 18 21  1  0  0  0  0
 18 22  1  0  0  0  0
 21 23  1  0  0  0  0
 23 24  1  0  0  0  0
 24 25  1  0  0  0  0
 25 26  1  6  0  0  0
 25 27  1  0  0  0  0
 26 28  1  0  0  0  0
 28 29  2  0  0  0  0
 28 30  1  0  0  0  0
 30 31  1  1  0  0  0
 30 32  1  0  0  0  0
 32 33  1  0  0  0  0
 33 34  1  0  0  0  0
 33 35  1  0  0  0  0
  7 10  1  0  0  0  0
 11 12  1  0  0  0  0
 17 19  1  0  0  0  0
 20 21  2  0  0  0  0
M  END
>  <MolRegNo>
440945

>  <m>
=

>  <Value>
95

>  <Unit>
nM

>  <Type>
IC50

>  <pValue>
7.02

>  <Ligand Efficiency>
0

>  <Binding Efficiency>
0

>  <Surface Efficiency>
0

>  <Assay Index>
313090

>  <Assay Category>


>  <Assay Organism>
Homo sapiens

>  <Target ID>
17045

>  <Target Name>
Cytochrome P450 3A4

>  <Target Organism>
Homo sapiens

>  <Target Description>
Target is a single protein chain

>  <Sequence Accession>
P08684

>  <Reference>
J Med Chem 51 (6), 1976-1980 (2008)

>  <Pubmed ID>
18288793

>  <DOI>
10.1021/jm7013309

$$$$
434901
Actelion Java MolfileCreator 1.0

 38 42  0  0  0  0  0  0  0  0999 V2000
    0.0000   -0.0000   -0.0000 O   0  0  0  0  0  0  0  0  0  0  0  0
   -1.5121    0.0118   -0.0000 C   0  0  0  0  0  0  0  0  0  0  0  0
   -2.5871   -1.0396   -0.0000 N   0  0  0  0  0  0  0  0  0  0  0  0
   -2.5871    1.0868   -0.0000 C   0  0  0  0  0  0  0  0  0  0  0  0
   -2.5989   -2.5280   -0.0000 C   0  0  0  0  0  0  0  0  0  0  0  0
   -3.6621    0.0354   -0.0000 C   0  0  0  0  0  0  0  0  0  0  0  0
   -2.5989    2.5989   -0.0000 C   0  0  0  0  0  0  0  0  0  0  0  0
   -1.3113   -3.2604   -0.0000 C   0  0  0  0  0  0  0  0  0  0  0  0
   -3.9102   -3.2604   -0.0000 C   0  0  0  0  0  0  0  0  0  0  0  0
   -5.1742    0.0473   -0.0000 C   0  0  0  0  0  0  0  0  0  0  0  0
   -1.3113    3.3550   -0.0000 C   0  0  0  0  0  0  0  0  0  0  0  0
   -1.3231   -4.7489   -0.0000 C   0  0  0  0  0  0  0  0  0  0  0  0
   -3.9220   -4.7489   -0.0000 C   0  0  0  0  0  0  0  0  0  0  0  0
   -5.9302   -1.2404   -0.0000 O   0  0  0  0  0  0  0  0  0  0  0  0
   -5.9302    1.3585   -0.0000 O   0  0  0  0  0  0  0  0  0  0  0  0
   -1.3231    4.8670   -0.0000 C   0  0  0  0  0  0  0  0  0  0  0  0
   -0.0236    2.6225   -0.0000 C   0  0  0  0  0  0  0  0  0  0  0  0
   -2.6343   -5.4813   -0.0000 C   0  0  0  0  0  0  0  0  0  0  0  0
   -0.0354    5.6231   -0.0000 C   0  0  0  0  0  0  0  0  0  0  0  0
    1.2640    3.3786   -0.0000 C   0  0  0  0  0  0  0  0  0  0  0  0
   -2.6462   -6.9698   -0.0000 O   0  0  0  0  0  0  0  0  0  0  0  0
   -0.0473    7.1352   -0.0000 O   0  0  0  0  0  0  0  0  0  0  0  0
    1.2522    4.8907   -0.0000 C   0  0  0  0  0  0  0  0  0  0  0  0
   -3.9574   -7.7140   -0.0000 C   0  0  0  0  0  0  0  0  0  0  0  0
    1.2404    7.8912   -0.0000 C   0  0  0  0  0  0  0  0  0  0  0  0
    1.2286    9.4033   -0.0000 C   0  0  0  0  0  0  0  0  0  0  0  0
    2.5162   10.1594   -0.0000 C   0  0  0  0  0  0  0  0  0  0  0  0
    2.6580   11.6596   -0.0000 N   0  0  0  0  0  0  0  0  0  0  0  0
    3.8747    9.5569   -0.0000 C   0  0  0  0  0  0  0  0  0  0  0  0
    4.1110   11.9786   -0.0000 C   0  0  0  0  0  0  0  0  0  0  0  0
    4.8670   10.6791   -0.0000 O   0  0  0  0  0  0  0  0  0  0  0  0
    4.1701    8.1039   -0.0000 C   0  0  0  0  0  0  0  0  0  0  0  0
    4.7135   13.3607   -0.0000 C   0  0  0  0  0  0  0  0  0  0  0  0
    6.1901   13.5261   -0.0000 C   0  0  0  0  0  0  0  0  0  0  0  0
    3.8157   14.5893   -0.0000 C   0  0  0  0  0  0  0  0  0  0  0  0
    6.7926   14.9083   -0.0000 C   0  0  0  0  0  0  0  0  0  0  0  0
    4.4181   15.9715   -0.0000 C   0  0  0  0  0  0  0  0  0  0  0  0
    5.8948   16.1368   -0.0000 C   0  0  0  0  0  0  0  0  0  0  0  0
  1  2  2  0  0  0  0
  2  3  1  0  0  0  0
  2  4  1  0  0  0  0
  3  5  1  0  0  0  0
  3  6  1  0  0  0  0
  4  7  1  6  0  0  0
  5  8  2  0  0  0  0
  5  9  1  0  0  0  0
  6 10  1  6  0  0  0
  7 11  1  0  0  0  0
  8 12  1  0  0  0  0
  9 13  2  0  0  0  0
 10 14  2  0  0  0  0
 10 15  1  0  0  0  0
 11 16  2  0  0  0  0
 11 17  1  0  0  0  0
 12 18  2  0  0  0  0
 16 19  1  0  0  0  0
 17 20  2  0  0  0  0
 18 21  1  0  0  0  0
 19 22  1  0  0  0  0
 19 23  2  0  0  0  0
 21 24  1  0  0  0  0
 22 25  1  0  0  0  0
 25 26  1  0  0  0  0
 26 27  1  0  0  0  0
 27 28  1  0  0  0  0
 27 29  2  0  0  0  0
 28 30  2  0  0  0  0
 29 31  1  0  0  0  0
 29 32  1  0  0  0  0
 30 33  1  0  0  0  0
 33 34  2  0  0  0  0
 33 35  1  0  0  0  0
 34 36  1  0  0  0  0
 35 37  2  0  0  0  0
 36 38  2  0  0  0  0
  4  6  1  0  0  0  0
 13 18  1  0  0  0  0
 20 23  1  0  0  0  0
 30 31  1  0  0  0  0
 37 38  1  0  0  0  0
M  END
>  <MolRegNo>
434901

>  <m>
=

>  <Value>
50000

>  <Unit>
nM

>  <Type>
IC50

>  <pValue>
4.3

>  <Ligand Efficiency>
0

>  <Binding Efficiency>
0

>  <Surface Efficiency>
0

>  <Assay Index>
313586

>  <Assay Category>


>  <Assay Organism>


>  <Target ID>
17045

>  <Target Name>
Cytochrome P450 3A4

>  <Target Organism>
Homo sapiens

>  <Target Description>
Target is a single protein chain

>  <Sequence Accession>
P08684

>  <Reference>
Bioorg Med Chem Lett 18 (6), 1939-1944 (2008)

>  <Pubmed ID>
18291645

>  <DOI>
10.1016/j.bmcl.2008.01.126

$$$$
435455
Actelion Java MolfileCreator 1.0

 41 45  0  0  1  0  0  0  0  0999 V2000
    0.0000   -0.0000   -0.0000 Cl  0  0  0  0  0  0  0  0  0  0  0  0
    1.4921    0.0119   -0.0000 C   0  0  0  0  0  0  0  0  0  0  0  0
    2.2321    1.3250   -0.0000 C   0  0  0  0  0  0  0  0  0  0  0  0
    2.2441   -1.2891   -0.0000 C   0  0  0  0  0  0  0  0  0  0  0  0
    3.7242    1.3369   -0.0000 C   0  0  0  0  0  0  0  0  0  0  0  0
    3.7361   -1.2772   -0.0000 C   0  0  0  0  0  0  0  0  0  0  0  0
    4.4643    0.0358   -0.0000 C   0  0  0  0  0  0  0  0  0  0  0  0
    5.9563    0.0477   -0.0000 C   0  0  0  0  0  0  0  0  0  0  0  0
    6.8277   -1.1578   -0.0000 O   0  0  0  0  0  0  0  0  0  0  0  0
    6.8277    1.2772   -0.0000 N   0  0  0  0  0  0  0  0  0  0  0  0
    8.2481   -0.6804   -0.0000 C   0  0  0  0  0  0  0  0  0  0  0  0
    8.2481    0.8236   -0.0000 C   0  0  0  0  0  0  0  0  0  0  0  0
    9.4537   -1.5517   -0.0000 C   0  0  0  0  0  0  0  0  0  0  0  0
    9.5373    1.5876   -0.0000 C   0  0  0  0  0  0  0  0  0  0  0  0
   10.8264    0.8475   -0.0000 C   0  0  0  0  0  0  0  0  0  0  0  0
   12.1156    1.6114   -0.0000 O   0  0  0  0  0  0  0  0  0  0  0  0
   12.1036    3.1274   -0.0000 C   0  0  0  0  0  0  0  0  0  0  0  0
   13.4047    3.8913   -0.0000 C   0  0  0  0  0  0  0  0  0  0  0  0
   10.7906    3.8913   -0.0000 C   0  0  0  0  0  0  0  0  0  0  0  0
   13.3928    5.4192   -0.0000 C   0  0  0  0  0  0  0  0  0  0  0  0
   10.7787    5.4192   -0.0000 C   0  0  0  0  0  0  0  0  0  0  0  0
   12.0797    6.1831   -0.0000 C   0  0  0  0  0  0  0  0  0  0  0  0
   14.6819    6.1831   -0.0000 C   0  0  0  0  0  0  0  0  0  0  0  0
   15.9710    5.4430   -0.0000 C   0  0  0  0  0  0  0  0  0  0  0  0
   16.3530    4.0107   -0.0000 C   0  0  0  0  0  0  0  0  0  0  0  0
   17.4034    5.8608   -0.0000 C   0  0  0  0  0  0  0  0  0  0  0  0
   15.5891    2.7215   -0.0000 O   0  0  0  0  0  0  0  0  0  0  0  0
   17.7973    4.4165   -0.0000 N   0  0  0  0  0  0  0  0  0  0  0  0
   18.1316    7.1858   -0.0000 C   0  0  0  0  0  0  0  0  0  0  0  0
   19.0984    3.6764   -0.0000 C   0  0  0  0  0  0  0  0  0  0  0  0
   17.3676    8.4988   -0.0000 O   0  0  0  0  0  0  0  0  0  0  0  0
   19.6236    7.2096   -0.0000 O   0  0  0  0  0  0  0  0  0  0  0  0
   19.0865    2.1844   -0.0000 C   0  0  0  0  0  0  0  0  0  0  0  0
   20.3756    4.4523   -0.0000 C   0  0  0  0  0  0  0  0  0  0  0  0
   20.3756    1.4443   -0.0000 C   0  0  0  0  0  0  0  0  0  0  0  0
   21.6648    3.7242   -0.0000 C   0  0  0  0  0  0  0  0  0  0  0  0
   21.6648    2.2202   -0.0000 C   0  0  0  0  0  0  0  0  0  0  0  0
   22.9658    1.4801   -0.0000 C   0  0  0  0  0  0  0  0  0  0  0  0
   24.2550    0.7401   -0.0000 C   0  0  0  0  0  0  0  0  0  0  0  0
   23.7059    2.7931   -0.0000 C   0  0  0  0  0  0  0  0  0  0  0  0
   22.2019    0.1790   -0.0000 C   0  0  0  0  0  0  0  0  0  0  0  0
  1  2  1  0  0  0  0
  2  3  2  0  0  0  0
  2  4  1  0  0  0  0
  3  5  1  0  0  0  0
  4  6  2  0  0  0  0
  5  7  2  0  0  0  0
  7  8  1  0  0  0  0
  8  9  1  0  0  0  0
  8 10  2  0  0  0  0
  9 11  1  0  0  0  0
 10 12  1  0  0  0  0
 11 13  1  0  0  0  0
 12 14  1  0  0  0  0
 14 15  1  0  0  0  0
 15 16  1  0  0  0  0
 16 17  1  0  0  0  0
 17 18  2  0  0  0  0
 17 19  1  0  0  0  0
 18 20  1  0  0  0  0
 19 21  2  0  0  0  0
 20 22  2  0  0  0  0
 20 23  1  0  0  0  0
 24 23  1  1  0  0  0
 24 25  1  0  0  0  0
 24 26  1  0  0  0  0
 25 27  2  0  0  0  0
 25 28  1  0  0  0  0
 26 29  1  1  0  0  0
 28 30  1  0  0  0  0
 29 31  2  0  0  0  0
 29 32  1  0  0  0  0
 30 33  2  0  0  0  0
 30 34  1  0  0  0  0
 33 35  1  0  0  0  0
 34 36  2  0  0  0  0
 35 37  2  0  0  0  0
 37 38  1  0  0  0  0
 38 39  1  0  0  0  0
 38 40  1  0  0  0  0
 38 41  1  0  0  0  0
  6  7  1  0  0  0  0
 11 12  2  0  0  0  0
 21 22  1  0  0  0  0
 26 28  1  0  0  0  0
 36 37  1  0  0  0  0
M  END
>  <MolRegNo>
435455

>  <m>
=

>  <Value>
4700

>  <Unit>
nM

>  <Type>
IC50

>  <pValue>
5.33

>  <Ligand Efficiency>
0

>  <Binding Efficiency>
0

>  <Surface Efficiency>
0

>  <Assay Index>
313586

>  <Assay Category>


>  <Assay Organism>


>  <Target ID>
17045

>  <Target Name>
Cytochrome P450 3A4

>  <Target Organism>
Homo sapiens

>  <Target Description>
Target is a single protein chain

>  <Sequence Accession>
P08684

>  <Reference>
Bioorg Med Chem Lett 18 (6), 1939-1944 (2008)

>  <Pubmed ID>
18291645

>  <DOI>
10.1016/j.bmcl.2008.01.126

$$$$
435279
Actelion Java MolfileCreator 1.0

 40 44  0  0  1  0  0  0  0  0999 V2000
    0.0000   -0.0000   -0.0000 O   0  0  0  0  0  0  0  0  0  0  0  0
    0.7369    1.3073   -0.0000 C   0  0  0  0  0  0  0  0  0  0  0  0
    2.1750    1.7114   -0.0000 N   0  0  0  0  0  0  0  0  0  0  0  0
    0.3328    2.7573   -0.0000 C   0  0  0  0  0  0  0  0  0  0  0  0
    3.4585    0.9746   -0.0000 C   0  0  0  0  0  0  0  0  0  0  0  0
    1.7709    3.1733   -0.0000 C   0  0  0  0  0  0  0  0  0  0  0  0
   -0.9746    3.5180   -0.0000 C   0  0  0  0  0  0  0  0  0  0  0  0
    3.4466   -0.5111   -0.0000 C   0  0  0  0  0  0  0  0  0  0  0  0
    4.7302    1.7471   -0.0000 C   0  0  0  0  0  0  0  0  0  0  0  0
    2.4958    4.4925   -0.0000 C   0  0  0  0  0  0  0  0  0  0  0  0
   -2.2819    2.7811   -0.0000 C   0  0  0  0  0  0  0  0  0  0  0  0
    4.7302   -1.2479   -0.0000 C   0  0  0  0  0  0  0  0  0  0  0  0
    6.0138    1.0221   -0.0000 C   0  0  0  0  0  0  0  0  0  0  0  0
    1.7352    5.7999   -0.0000 O   0  0  0  0  0  0  0  0  0  0  0  0
    3.9815    4.5163   -0.0000 O   0  0  0  0  0  0  0  0  0  0  0  0
   -2.2938    1.2836   -0.0000 C   0  0  0  0  0  0  0  0  0  0  0  0
   -3.5893    3.5417   -0.0000 C   0  0  0  0  0  0  0  0  0  0  0  0
    6.0138   -0.4754   -0.0000 C   0  0  0  0  0  0  0  0  0  0  0  0
   -3.6130    0.5467   -0.0000 C   0  0  0  0  0  0  0  0  0  0  0  0
   -4.8966    2.8049   -0.0000 C   0  0  0  0  0  0  0  0  0  0  0  0
    7.3093   -1.2123   -0.0000 C   0  0  0  0  0  0  0  0  0  0  0  0
   -3.6249   -0.9389   -0.0000 O   0  0  0  0  0  0  0  0  0  0  0  0
   -4.9204    1.3073   -0.0000 C   0  0  0  0  0  0  0  0  0  0  0  0
    8.5928   -1.9491   -0.0000 C   0  0  0  0  0  0  0  0  0  0  0  0
    8.0461    0.0951   -0.0000 C   0  0  0  0  0  0  0  0  0  0  0  0
    6.5486   -2.5077   -0.0000 C   0  0  0  0  0  0  0  0  0  0  0  0
   -4.9323   -1.6758   -0.0000 C   0  0  0  0  0  0  0  0  0  0  0  0
   -6.2396   -0.9151   -0.0000 C   0  0  0  0  0  0  0  0  0  0  0  0
   -7.5470   -1.6520   -0.0000 C   0  0  0  0  0  0  0  0  0  0  0  0
   -8.9850   -1.1766   -0.0000 N   0  0  0  0  0  0  0  0  0  0  0  0
   -7.5588   -3.1495   -0.0000 C   0  0  0  0  0  0  0  0  0  0  0  0
   -9.8764   -2.3770   -0.0000 C   0  0  0  0  0  0  0  0  0  0  0  0
   -8.9969   -3.6011   -0.0000 O   0  0  0  0  0  0  0  0  0  0  0  0
   -6.3585   -4.0171   -0.0000 C   0  0  0  0  0  0  0  0  0  0  0  0
  -11.3858   -2.3651   -0.0000 C   0  0  0  0  0  0  0  0  0  0  0  0
  -12.1464   -1.0459   -0.0000 C   0  0  0  0  0  0  0  0  0  0  0  0
  -12.1464   -3.6487   -0.0000 C   0  0  0  0  0  0  0  0  0  0  0  0
  -13.6558   -1.0340   -0.0000 C   0  0  0  0  0  0  0  0  0  0  0  0
  -13.6558   -3.6368   -0.0000 C   0  0  0  0  0  0  0  0  0  0  0  0
  -14.4165   -2.3176   -0.0000 C   0  0  0  0  0  0  0  0  0  0  0  0
  1  2  2  0  0  0  0
  2  3  1  0  0  0  0
  2  4  1  0  0  0  0
  3  5  1  0  0  0  0
  3  6  1  0  0  0  0
  4  7  1  6  0  0  0
  5  8  2  0  0  0  0
  5  9  1  0  0  0  0
  6 10  1  6  0  0  0
  7 11  1  0  0  0  0
  8 12  1  0  0  0  0
  9 13  2  0  0  0  0
 10 14  2  0  0  0  0
 10 15  1  0  0  0  0
 11 16  2  0  0  0  0
 11 17  1  0  0  0  0
 12 18  2  0  0  0  0
 16 19  1  0  0  0  0
 17 20  2  0  0  0  0
 18 21  1  0  0  0  0
 19 22  1  0  0  0  0
 19 23  2  0  0  0  0
 21 24  1  0  0  0  0
 21 25  1  0  0  0  0
 21 26  1  0  0  0  0
 22 27  1  0  0  0  0
 27 28  1  0  0  0  0
 28 29  1  0  0  0  0
 29 30  1  0  0  0  0
 29 31  2  0  0  0  0
 30 32  2  0  0  0  0
 31 33  1  0  0  0  0
 31 34  1  0  0  0  0
 32 35  1  0  0  0  0
 35 36  2  0  0  0  0
 35 37  1  0  0  0  0
 36 38  1  0  0  0  0
 37 39  2  0  0  0  0
 38 40  2  0  0  0  0
  4  6  1  0  0  0  0
 13 18  1  0  0  0  0
 20 23  1  0  0  0  0
 32 33  1  0  0  0  0
 39 40  1  0  0  0  0
M  END
>  <MolRegNo>
435279

>  <m>
=

>  <Value>
20000

>  <Unit>
nM

>  <Type>
IC50

>  <pValue>
4.7

>  <Ligand Efficiency>
0

>  <Binding Efficiency>
0

>  <Surface Efficiency>
0

>  <Assay Index>
313586

>  <Assay Category>


>  <Assay Organism>


>  <Target ID>
17045

>  <Target Name>
Cytochrome P450 3A4

>  <Target Organism>
Homo sapiens

>  <Target Description>
Target is a single protein chain

>  <Sequence Accession>
P08684

>  <Reference>
Bioorg Med Chem Lett 18 (6), 1939-1944 (2008)

>  <Pubmed ID>
18291645

>  <DOI>
10.1016/j.bmcl.2008.01.126

$$$$
435319
Actelion Java MolfileCreator 1.0

 40 44  0  0  1  0  0  0  0  0999 V2000
    0.0000   -0.0000   -0.0000 O   0  0  0  0  0  0  0  0  0  0  0  0
    0.7368    1.3072   -0.0000 C   0  0  0  0  0  0  0  0  0  0  0  0
    2.1748    1.7113   -0.0000 N   0  0  0  0  0  0  0  0  0  0  0  0
    0.3328    2.7571   -0.0000 C   0  0  0  0  0  0  0  0  0  0  0  0
    3.4582    0.9745   -0.0000 C   0  0  0  0  0  0  0  0  0  0  0  0
    1.7707    3.1730   -0.0000 C   0  0  0  0  0  0  0  0  0  0  0  0
   -0.9745    3.5176   -0.0000 C   0  0  0  0  0  0  0  0  0  0  0  0
    3.4463   -0.5110   -0.0000 C   0  0  0  0  0  0  0  0  0  0  0  0
    4.7298    1.7469   -0.0000 C   0  0  0  0  0  0  0  0  0  0  0  0
    2.4956    4.4921   -0.0000 C   0  0  0  0  0  0  0  0  0  0  0  0
   -2.2817    2.7808   -0.0000 C   0  0  0  0  0  0  0  0  0  0  0  0
    4.7298   -1.2478   -0.0000 C   0  0  0  0  0  0  0  0  0  0  0  0
    6.0133    1.0220   -0.0000 C   0  0  0  0  0  0  0  0  0  0  0  0
    1.7351    5.7994   -0.0000 O   0  0  0  0  0  0  0  0  0  0  0  0
    3.9811    4.5159   -0.0000 O   0  0  0  0  0  0  0  0  0  0  0  0
   -2.2936    1.2835   -0.0000 C   0  0  0  0  0  0  0  0  0  0  0  0
   -3.5889    3.5414   -0.0000 C   0  0  0  0  0  0  0  0  0  0  0  0
    6.0133   -0.4872   -0.0000 C   0  0  0  0  0  0  0  0  0  0  0  0
   -3.6127    0.5467   -0.0000 C   0  0  0  0  0  0  0  0  0  0  0  0
   -4.8962    2.8046   -0.0000 C   0  0  0  0  0  0  0  0  0  0  0  0
    7.3086   -1.2240   -0.0000 C   0  0  0  0  0  0  0  0  0  0  0  0
   -3.6246   -0.9388   -0.0000 O   0  0  0  0  0  0  0  0  0  0  0  0
   -4.9200    1.3072   -0.0000 C   0  0  0  0  0  0  0  0  0  0  0  0
    8.5921   -1.9608   -0.0000 C   0  0  0  0  0  0  0  0  0  0  0  0
    8.0454    0.0832   -0.0000 C   0  0  0  0  0  0  0  0  0  0  0  0
    6.5480   -2.5194   -0.0000 C   0  0  0  0  0  0  0  0  0  0  0  0
   -4.9318   -1.6756   -0.0000 C   0  0  0  0  0  0  0  0  0  0  0  0
   -6.2391   -0.9151   -0.0000 C   0  0  0  0  0  0  0  0  0  0  0  0
   -7.5463   -1.6519   -0.0000 C   0  0  0  0  0  0  0  0  0  0  0  0
   -8.9843   -1.1765   -0.0000 N   0  0  0  0  0  0  0  0  0  0  0  0
   -7.5582   -3.1492   -0.0000 C   0  0  0  0  0  0  0  0  0  0  0  0
   -9.8756   -2.3768   -0.0000 C   0  0  0  0  0  0  0  0  0  0  0  0
   -8.9961   -3.6008   -0.0000 O   0  0  0  0  0  0  0  0  0  0  0  0
   -6.3579   -4.0168   -0.0000 C   0  0  0  0  0  0  0  0  0  0  0  0
  -11.3848   -2.3649   -0.0000 C   0  0  0  0  0  0  0  0  0  0  0  0
  -12.1454   -1.0458   -0.0000 C   0  0  0  0  0  0  0  0  0  0  0  0
  -12.1454   -3.6484   -0.0000 C   0  0  0  0  0  0  0  0  0  0  0  0
  -13.6546   -1.0339   -0.0000 C   0  0  0  0  0  0  0  0  0  0  0  0
  -13.6546   -3.6365   -0.0000 C   0  0  0  0  0  0  0  0  0  0  0  0
  -14.4152   -2.3174   -0.0000 C   0  0  0  0  0  0  0  0  0  0  0  0
  1  2  2  0  0  0  0
  2  3  1  0  0  0  0
  2  4  1  0  0  0  0
  3  5  1  0  0  0  0
  3  6  1  0  0  0  0
  4  7  1  1  0  0  0
  5  8  2  0  0  0  0
  5  9  1  0  0  0  0
  6 10  1  1  0  0  0
  7 11  1  0  0  0  0
  8 12  1  0  0  0  0
  9 13  2  0  0  0  0
 10 14  2  0  0  0  0
 10 15  1  0  0  0  0
 11 16  2  0  0  0  0
 11 17  1  0  0  0  0
 12 18  2  0  0  0  0
 16 19  1  0  0  0  0
 17 20  2  0  0  0  0
 18 21  1  0  0  0  0
 19 22  1  0  0  0  0
 19 23  2  0  0  0  0
 21 24  1  0  0  0  0
 21 25  1  0  0  0  0
 21 26  1  0  0  0  0
 22 27  1  0  0  0  0
 27 28  1  0  0  0  0
 28 29  1  0  0  0  0
 29 30  1  0  0  0  0
 29 31  2  0  0  0  0
 30 32  2  0  0  0  0
 31 33  1  0  0  0  0
 31 34  1  0  0  0  0
 32 35  1  0  0  0  0
 35 36  2  0  0  0  0
 35 37  1  0  0  0  0
 36 38  1  0  0  0  0
 37 39  2  0  0  0  0
 38 40  2  0  0  0  0
  4  6  1  0  0  0  0
 13 18  1  0  0  0  0
 20 23  1  0  0  0  0
 32 33  1  0  0  0  0
 39 40  1  0  0  0  0
M  END
>  <MolRegNo>
435319

>  <m>
=

>  <Value>
17000

>  <Unit>
nM

>  <Type>
IC50

>  <pValue>
4.77

>  <Ligand Efficiency>
0

>  <Binding Efficiency>
0

>  <Surface Efficiency>
0

>  <Assay Index>
313586

>  <Assay Category>


>  <Assay Organism>


>  <Target ID>
17045

>  <Target Name>
Cytochrome P450 3A4

>  <Target Organism>
Homo sapiens

>  <Target Description>
Target is a single protein chain

>  <Sequence Accession>
P08684

>  <Reference>
Bioorg Med Chem Lett 18 (6), 1939-1944 (2008)

>  <Pubmed ID>
18291645

>  <DOI>
10.1016/j.bmcl.2008.01.126

$$$$
434760
Actelion Java MolfileCreator 1.0

 38 42  0  0  1  0  0  0  0  0999 V2000
    0.0000   -0.0000   -0.0000 O   0  0  0  0  0  0  0  0  0  0  0  0
    0.7237    1.3169   -0.0000 C   0  0  0  0  0  0  0  0  0  0  0  0
    2.1473    1.7321   -0.0000 N   0  0  0  0  0  0  0  0  0  0  0  0
    0.3085    2.7642   -0.0000 C   0  0  0  0  0  0  0  0  0  0  0  0
    3.4404    1.0084   -0.0000 C   0  0  0  0  0  0  0  0  0  0  0  0
    1.7321    3.1794   -0.0000 C   0  0  0  0  0  0  0  0  0  0  0  0
   -1.0084    3.5116   -0.0000 C   0  0  0  0  0  0  0  0  0  0  0  0
    3.4404   -0.4745   -0.0000 C   0  0  0  0  0  0  0  0  0  0  0  0
    4.7098    1.7914   -0.0000 C   0  0  0  0  0  0  0  0  0  0  0  0
    2.4439    4.4963   -0.0000 C   0  0  0  0  0  0  0  0  0  0  0  0
   -2.3015    2.7524   -0.0000 C   0  0  0  0  0  0  0  0  0  0  0  0
    4.7336   -1.1982   -0.0000 C   0  0  0  0  0  0  0  0  0  0  0  0
    6.0030    1.0796   -0.0000 C   0  0  0  0  0  0  0  0  0  0  0  0
    1.6609    5.8013   -0.0000 O   0  0  0  0  0  0  0  0  0  0  0  0
    3.9269    4.5319   -0.0000 O   0  0  0  0  0  0  0  0  0  0  0  0
   -2.2897    1.2575   -0.0000 C   0  0  0  0  0  0  0  0  0  0  0  0
   -3.6184    3.4879   -0.0000 C   0  0  0  0  0  0  0  0  0  0  0  0
    6.0148   -0.4152   -0.0000 C   0  0  0  0  0  0  0  0  0  0  0  0
   -3.5947    0.5101   -0.0000 C   0  0  0  0  0  0  0  0  0  0  0  0
   -4.9115    2.7405   -0.0000 C   0  0  0  0  0  0  0  0  0  0  0  0
    7.3080   -1.1270   -0.0000 O   0  0  0  0  0  0  0  0  0  0  0  0
   -4.9115    1.2575   -0.0000 C   0  0  0  0  0  0  0  0  0  0  0  0
    7.3198   -2.6100   -0.0000 C   0  0  0  0  0  0  0  0  0  0  0  0
   -6.2165    0.5101   -0.0000 O   0  0  0  0  0  0  0  0  0  0  0  0
   -7.5334    1.2575   -0.0000 C   0  0  0  0  0  0  0  0  0  0  0  0
   -8.8384    0.5101   -0.0000 C   0  0  0  0  0  0  0  0  0  0  0  0
  -10.1552    1.2575   -0.0000 C   0  0  0  0  0  0  0  0  0  0  0  0
  -10.2383    2.7642   -0.0000 N   0  0  0  0  0  0  0  0  0  0  0  0
  -11.5670    0.7355   -0.0000 C   0  0  0  0  0  0  0  0  0  0  0  0
  -11.6975    3.1676   -0.0000 C   0  0  0  0  0  0  0  0  0  0  0  0
  -12.5161    1.9219   -0.0000 O   0  0  0  0  0  0  0  0  0  0  0  0
  -11.9704   -0.7000   -0.0000 C   0  0  0  0  0  0  0  0  0  0  0  0
  -12.5042    4.4489   -0.0000 C   0  0  0  0  0  0  0  0  0  0  0  0
  -11.8161    5.7894   -0.0000 C   0  0  0  0  0  0  0  0  0  0  0  0
  -14.0109    4.4014   -0.0000 C   0  0  0  0  0  0  0  0  0  0  0  0
  -12.6229    7.0707   -0.0000 C   0  0  0  0  0  0  0  0  0  0  0  0
  -14.8176    5.6708   -0.0000 C   0  0  0  0  0  0  0  0  0  0  0  0
  -14.1295    7.0233   -0.0000 C   0  0  0  0  0  0  0  0  0  0  0  0
  1  2  2  0  0  0  0
  2  3  1  0  0  0  0
  2  4  1  0  0  0  0
  3  5  1  0  0  0  0
  3  6  1  0  0  0  0
  4  7  1  1  0  0  0
  5  8  2  0  0  0  0
  5  9  1  0  0  0  0
  6 10  1  1  0  0  0
  7 11  1  0  0  0  0
  8 12  1  0  0  0  0
  9 13  2  0  0  0  0
 10 14  2  0  0  0  0
 10 15  1  0  0  0  0
 11 16  2  0  0  0  0
 11 17  1  0  0  0  0
 12 18  2  0  0  0  0
 16 19  1  0  0  0  0
 17 20  2  0  0  0  0
 18 21  1  0  0  0  0
 19 22  2  0  0  0  0
 21 23  1  0  0  0  0
 22 24  1  0  0  0  0
 24 25  1  0  0  0  0
 25 26  1  0  0  0  0
 26 27  1  0  0  0  0
 27 28  1  0  0  0  0
 27 29  2  0  0  0  0
 28 30  2  0  0  0  0
 29 31  1  0  0  0  0
 29 32  1  0  0  0  0
 30 33  1  0  0  0  0
 33 34  2  0  0  0  0
 33 35  1  0  0  0  0
 34 36  1  0  0  0  0
 35 37  2  0  0  0  0
 36 38  2  0  0  0  0
  4  6  1  0  0  0  0
 13 18  1  0  0  0  0
 20 22  1  0  0  0  0
 30 31  1  0  0  0  0
 37 38  1  0  0  0  0
M  END
>  <MolRegNo>
434760

>  <m>
=

>  <Value>
33000

>  <Unit>
nM

>  <Type>
IC50

>  <pValue>
4.48

>  <Ligand Efficiency>
0

>  <Binding Efficiency>
0

>  <Surface Efficiency>
0

>  <Assay Index>
313586

>  <Assay Category>


>  <Assay Organism>


>  <Target ID>
17045

>  <Target Name>
Cytochrome P450 3A4

>  <Target Organism>
Homo sapiens

>  <Target Description>
Target is a single protein chain

>  <Sequence Accession>
P08684

>  <Reference>
Bioorg Med Chem Lett 18 (6), 1939-1944 (2008)

>  <Pubmed ID>
18291645

>  <DOI>
10.1016/j.bmcl.2008.01.126

$$$$
434808
Actelion Java MolfileCreator 1.0

 42 46  0  0  1  0  0  0  0  0999 V2000
    0.0000   -0.0000   -0.0000 O   0  0  0  0  0  0  0  0  0  0  0  0
    0.7366    1.3069   -0.0000 C   0  0  0  0  0  0  0  0  0  0  0  0
    2.1743    1.7109   -0.0000 N   0  0  0  0  0  0  0  0  0  0  0  0
    0.3327    2.7564   -0.0000 C   0  0  0  0  0  0  0  0  0  0  0  0
    3.4574    0.9743   -0.0000 C   0  0  0  0  0  0  0  0  0  0  0  0
    1.7703    3.1723   -0.0000 C   0  0  0  0  0  0  0  0  0  0  0  0
   -0.9743    3.5168   -0.0000 C   0  0  0  0  0  0  0  0  0  0  0  0
    3.4455   -0.5109   -0.0000 C   0  0  0  0  0  0  0  0  0  0  0  0
    4.7287    1.7465   -0.0000 C   0  0  0  0  0  0  0  0  0  0  0  0
    2.4951    4.4911   -0.0000 C   0  0  0  0  0  0  0  0  0  0  0  0
   -2.2812    2.7802   -0.0000 C   0  0  0  0  0  0  0  0  0  0  0  0
    4.7287   -1.2475   -0.0000 C   0  0  0  0  0  0  0  0  0  0  0  0
    6.0119    1.0218   -0.0000 C   0  0  0  0  0  0  0  0  0  0  0  0
    1.7347    5.7980   -0.0000 O   0  0  0  0  0  0  0  0  0  0  0  0
    3.9802    4.5149   -0.0000 O   0  0  0  0  0  0  0  0  0  0  0  0
   -2.2931    1.2832   -0.0000 C   0  0  0  0  0  0  0  0  0  0  0  0
   -3.5881    3.5406   -0.0000 C   0  0  0  0  0  0  0  0  0  0  0  0
    6.0119   -0.4752   -0.0000 C   0  0  0  0  0  0  0  0  0  0  0  0
   -3.6119    0.5465   -0.0000 C   0  0  0  0  0  0  0  0  0  0  0  0
   -4.8951    2.8040   -0.0000 C   0  0  0  0  0  0  0  0  0  0  0  0
    7.3069   -1.2119   -0.0000 C   0  0  0  0  0  0  0  0  0  0  0  0
   -3.6238   -0.9386   -0.0000 O   0  0  0  0  0  0  0  0  0  0  0  0
   -4.9188    1.3069   -0.0000 C   0  0  0  0  0  0  0  0  0  0  0  0
    8.5901   -1.9485   -0.0000 C   0  0  0  0  0  0  0  0  0  0  0  0
    8.0436    0.0950   -0.0000 C   0  0  0  0  0  0  0  0  0  0  0  0
    6.5465   -2.5069   -0.0000 C   0  0  0  0  0  0  0  0  0  0  0  0
   -4.9307   -1.6752   -0.0000 C   0  0  0  0  0  0  0  0  0  0  0  0
   -6.2376   -0.9149   -0.0000 C   0  0  0  0  0  0  0  0  0  0  0  0
   -7.5446   -1.6515   -0.0000 C   0  0  0  0  0  0  0  0  0  0  0  0
   -8.9822   -1.1762   -0.0000 N   0  0  0  0  0  0  0  0  0  0  0  0
   -7.5564   -3.1485   -0.0000 C   0  0  0  0  0  0  0  0  0  0  0  0
   -9.8733   -2.3762   -0.0000 C   0  0  0  0  0  0  0  0  0  0  0  0
   -8.9941   -3.6000   -0.0000 O   0  0  0  0  0  0  0  0  0  0  0  0
   -6.3564   -4.0158   -0.0000 C   0  0  0  0  0  0  0  0  0  0  0  0
  -11.3822   -2.3644   -0.0000 C   0  0  0  0  0  0  0  0  0  0  0  0
  -12.1426   -1.0455   -0.0000 C   0  0  0  0  0  0  0  0  0  0  0  0
  -12.1426   -3.6475   -0.0000 C   0  0  0  0  0  0  0  0  0  0  0  0
  -13.6515   -1.0337   -0.0000 C   0  0  0  0  0  0  0  0  0  0  0  0
  -13.6515   -3.6356   -0.0000 C   0  0  0  0  0  0  0  0  0  0  0  0
  -14.4119   -2.3168   -0.0000 C   0  0  0  0  0  0  0  0  0  0  0  0
  -15.9208   -2.3050   -0.0000 O   0  0  0  0  0  0  0  0  0  0  0  0
  -16.6812   -0.9980   -0.0000 C   0  0  0  0  0  0  0  0  0  0  0  0
  1  2  2  0  0  0  0
  2  3  1  0  0  0  0
  2  4  1  0  0  0  0
  3  5  1  0  0  0  0
  3  6  1  0  0  0  0
  4  7  1  1  0  0  0
  5  8  2  0  0  0  0
  5  9  1  0  0  0  0
  6 10  1  1  0  0  0
  7 11  1  0  0  0  0
  8 12  1  0  0  0  0
  9 13  2  0  0  0  0
 10 14  2  0  0  0  0
 10 15  1  0  0  0  0
 11 16  2  0  0  0  0
 11 17  1  0  0  0  0
 12 18  2  0  0  0  0
 16 19  1  0  0  0  0
 17 20  2  0  0  0  0
 18 21  1  0  0  0  0
 19 22  1  0  0  0  0
 19 23  2  0  0  0  0
 21 24  1  0  0  0  0
 21 25  1  0  0  0  0
 21 26  1  0  0  0  0
 22 27  1  0  0  0  0
 27 28  1  0  0  0  0
 28 29  1  0  0  0  0
 29 30  1  0  0  0  0
 29 31  2  0  0  0  0
 30 32  2  0  0  0  0
 31 33  1  0  0  0  0
 31 34  1  0  0  0  0
 32 35  1  0  0  0  0
 35 36  2  0  0  0  0
 35 37  1  0  0  0  0
 36 38  1  0  0  0  0
 37 39  2  0  0  0  0
 38 40  2  0  0  0  0
 40 41  1  0  0  0  0
 41 42  1  0  0  0  0
  4  6  1  0  0  0  0
 13 18  1  0  0  0  0
 20 23  1  0  0  0  0
 32 33  1  0  0  0  0
 39 40  1  0  0  0  0
M  END
>  <MolRegNo>
434808

>  <m>
=

>  <Value>
12000

>  <Unit>
nM

>  <Type>
IC50

>  <pValue>
4.92

>  <Ligand Efficiency>
0

>  <Binding Efficiency>
0

>  <Surface Efficiency>
0

>  <Assay Index>
313596

>  <Assay Category>


>  <Assay Organism>


>  <Target ID>
17045

>  <Target Name>
Cytochrome P450 3A4

>  <Target Organism>
Homo sapiens

>  <Target Description>
Target is a single protein chain

>  <Sequence Accession>
P08684

>  <Reference>
Bioorg Med Chem Lett 18 (6), 1939-1944 (2008)

>  <Pubmed ID>
18291645

>  <DOI>
10.1016/j.bmcl.2008.01.126

$$$$
434848
Actelion Java MolfileCreator 1.0

 41 45  0  0  1  0  0  0  0  0999 V2000
    0.0000   -0.0000   -0.0000 Cl  0  0  0  0  0  0  0  0  0  0  0  0
    0.7390    1.3111   -0.0000 C   0  0  0  0  0  0  0  0  0  0  0  0
    2.2289    1.3230   -0.0000 C   0  0  0  0  0  0  0  0  0  0  0  0
   -0.0358    2.6341   -0.0000 C   0  0  0  0  0  0  0  0  0  0  0  0
    2.9679    2.6341   -0.0000 C   0  0  0  0  0  0  0  0  0  0  0  0
    0.7032    3.9453   -0.0000 C   0  0  0  0  0  0  0  0  0  0  0  0
    4.4578    2.6461   -0.0000 C   0  0  0  0  0  0  0  0  0  0  0  0
    2.2050    3.9572   -0.0000 C   0  0  0  0  0  0  0  0  0  0  0  0
    5.3279    1.4422   -0.0000 O   0  0  0  0  0  0  0  0  0  0  0  0
    5.3279    3.8737   -0.0000 N   0  0  0  0  0  0  0  0  0  0  0  0
    6.7463    1.9190   -0.0000 C   0  0  0  0  0  0  0  0  0  0  0  0
    6.7463    3.4208   -0.0000 C   0  0  0  0  0  0  0  0  0  0  0  0
    7.9501    1.0489   -0.0000 C   0  0  0  0  0  0  0  0  0  0  0  0
    8.0335    4.1836   -0.0000 C   0  0  0  0  0  0  0  0  0  0  0  0
    9.3208    3.4446   -0.0000 C   0  0  0  0  0  0  0  0  0  0  0  0
   10.6081    4.2075   -0.0000 O   0  0  0  0  0  0  0  0  0  0  0  0
   10.5962    5.7212   -0.0000 C   0  0  0  0  0  0  0  0  0  0  0  0
   11.8953    6.4840   -0.0000 C   0  0  0  0  0  0  0  0  0  0  0  0
    9.2850    6.4840   -0.0000 C   0  0  0  0  0  0  0  0  0  0  0  0
   11.8834    8.0097   -0.0000 C   0  0  0  0  0  0  0  0  0  0  0  0
    9.2731    8.0097   -0.0000 C   0  0  0  0  0  0  0  0  0  0  0  0
   10.5723    8.7725   -0.0000 C   0  0  0  0  0  0  0  0  0  0  0  0
   13.1707    8.7725   -0.0000 C   0  0  0  0  0  0  0  0  0  0  0  0
   14.4580    8.0335   -0.0000 C   0  0  0  0  0  0  0  0  0  0  0  0
   14.8394    6.6032   -0.0000 C   0  0  0  0  0  0  0  0  0  0  0  0
   15.8883    8.4507   -0.0000 C   0  0  0  0  0  0  0  0  0  0  0  0
   14.0766    5.3160   -0.0000 O   0  0  0  0  0  0  0  0  0  0  0  0
   16.2816    7.0085   -0.0000 N   0  0  0  0  0  0  0  0  0  0  0  0
   16.6153    9.7737   -0.0000 C   0  0  0  0  0  0  0  0  0  0  0  0
   17.5808    6.2695   -0.0000 C   0  0  0  0  0  0  0  0  0  0  0  0
   15.8525   11.0848   -0.0000 O   0  0  0  0  0  0  0  0  0  0  0  0
   18.1052    9.7976   -0.0000 O   0  0  0  0  0  0  0  0  0  0  0  0
   17.5689    4.7796   -0.0000 C   0  0  0  0  0  0  0  0  0  0  0  0
   18.8562    7.0442   -0.0000 C   0  0  0  0  0  0  0  0  0  0  0  0
   18.8562    4.0406   -0.0000 C   0  0  0  0  0  0  0  0  0  0  0  0
   20.1434    6.3172   -0.0000 C   0  0  0  0  0  0  0  0  0  0  0  0
   20.1434    4.8154   -0.0000 C   0  0  0  0  0  0  0  0  0  0  0  0
   21.4426    4.0764   -0.0000 C   0  0  0  0  0  0  0  0  0  0  0  0
   22.7299    3.3374   -0.0000 C   0  0  0  0  0  0  0  0  0  0  0  0
   22.1816    5.3875   -0.0000 C   0  0  0  0  0  0  0  0  0  0  0  0
   20.6798    2.7772   -0.0000 C   0  0  0  0  0  0  0  0  0  0  0  0
  1  2  1  0  0  0  0
  2  3  2  0  0  0  0
  2  4  1  0  0  0  0
  3  5  1  0  0  0  0
  4  6  2  0  0  0  0
  5  7  1  0  0  0  0
  5  8  2  0  0  0  0
  7  9  1  0  0  0  0
  7 10  2  0  0  0  0
  9 11  1  0  0  0  0
 10 12  1  0  0  0  0
 11 13  1  0  0  0  0
 12 14  1  0  0  0  0
 14 15  1  0  0  0  0
 15 16  1  0  0  0  0
 16 17  1  0  0  0  0
 17 18  2  0  0  0  0
 17 19  1  0  0  0  0
 18 20  1  0  0  0  0
 19 21  2  0  0  0  0
 20 22  2  0  0  0  0
 20 23  1  0  0  0  0
 24 23  1  1  0  0  0
 24 25  1  0  0  0  0
 24 26  1  0  0  0  0
 25 27  2  0  0  0  0
 25 28  1  0  0  0  0
 26 29  1  1  0  0  0
 28 30  1  0  0  0  0
 29 31  2  0  0  0  0
 29 32  1  0  0  0  0
 30 33  2  0  0  0  0
 30 34  1  0  0  0  0
 33 35  1  0  0  0  0
 34 36  2  0  0  0  0
 35 37  2  0  0  0  0
 37 38  1  0  0  0  0
 38 39  1  0  0  0  0
 38 40  1  0  0  0  0
 38 41  1  0  0  0  0
  6  8  1  0  0  0  0
 11 12  2  0  0  0  0
 21 22  1  0  0  0  0
 26 28  1  0  0  0  0
 36 37  1  0  0  0  0
M  END
>  <MolRegNo>
434848

>  <m>
=

>  <Value>
20000

>  <Unit>
nM

>  <Type>
IC50

>  <pValue>
4.7

>  <Ligand Efficiency>
0

>  <Binding Efficiency>
0

>  <Surface Efficiency>
0

>  <Assay Index>
313596

>  <Assay Category>


>  <Assay Organism>


>  <Target ID>
17045

>  <Target Name>
Cytochrome P450 3A4

>  <Target Organism>
Homo sapiens

>  <Target Description>
Target is a single protein chain

>  <Sequence Accession>
P08684

>  <Reference>
Bioorg Med Chem Lett 18 (6), 1939-1944 (2008)

>  <Pubmed ID>
18291645

>  <DOI>
10.1016/j.bmcl.2008.01.126

$$$$
435237
Actelion Java MolfileCreator 1.0

 42 46  0  0  1  0  0  0  0  0999 V2000
    0.0000   -0.0000   -0.0000 O   0  0  0  0  0  0  0  0  0  0  0  0
    0.7366    1.3069   -0.0000 C   0  0  0  0  0  0  0  0  0  0  0  0
    2.1742    1.7108   -0.0000 N   0  0  0  0  0  0  0  0  0  0  0  0
    0.3327    2.7564   -0.0000 C   0  0  0  0  0  0  0  0  0  0  0  0
    3.4692    0.9742   -0.0000 C   0  0  0  0  0  0  0  0  0  0  0  0
    1.7703    3.1722   -0.0000 C   0  0  0  0  0  0  0  0  0  0  0  0
   -0.9742    3.5167   -0.0000 C   0  0  0  0  0  0  0  0  0  0  0  0
    3.4573   -0.5109   -0.0000 C   0  0  0  0  0  0  0  0  0  0  0  0
    4.7405    1.7465   -0.0000 C   0  0  0  0  0  0  0  0  0  0  0  0
    2.4950    4.4910   -0.0000 C   0  0  0  0  0  0  0  0  0  0  0  0
   -2.2811    2.7801   -0.0000 C   0  0  0  0  0  0  0  0  0  0  0  0
    4.7405   -1.2475   -0.0000 C   0  0  0  0  0  0  0  0  0  0  0  0
    6.0236    1.0218   -0.0000 C   0  0  0  0  0  0  0  0  0  0  0  0
    1.7346    5.7979   -0.0000 O   0  0  0  0  0  0  0  0  0  0  0  0
    3.9801    4.5147   -0.0000 O   0  0  0  0  0  0  0  0  0  0  0  0
   -2.2930    1.2831   -0.0000 C   0  0  0  0  0  0  0  0  0  0  0  0
   -3.5880    3.5405   -0.0000 C   0  0  0  0  0  0  0  0  0  0  0  0
    6.0236   -0.4752   -0.0000 C   0  0  0  0  0  0  0  0  0  0  0  0
   -3.6118    0.5465   -0.0000 C   0  0  0  0  0  0  0  0  0  0  0  0
   -4.8949    2.8039   -0.0000 C   0  0  0  0  0  0  0  0  0  0  0  0
    7.3186   -1.2118   -0.0000 C   0  0  0  0  0  0  0  0  0  0  0  0
   -3.6237   -0.9386   -0.0000 O   0  0  0  0  0  0  0  0  0  0  0  0
   -4.9187    1.3069   -0.0000 C   0  0  0  0  0  0  0  0  0  0  0  0
    8.6018   -1.9485   -0.0000 C   0  0  0  0  0  0  0  0  0  0  0  0
    8.0552    0.0950   -0.0000 C   0  0  0  0  0  0  0  0  0  0  0  0
    6.5582   -2.5069   -0.0000 C   0  0  0  0  0  0  0  0  0  0  0  0
   -4.9306   -1.6752   -0.0000 C   0  0  0  0  0  0  0  0  0  0  0  0
   -6.2375   -0.9148   -0.0000 C   0  0  0  0  0  0  0  0  0  0  0  0
   -7.5444   -1.6514   -0.0000 C   0  0  0  0  0  0  0  0  0  0  0  0
   -8.9819   -1.1762   -0.0000 N   0  0  0  0  0  0  0  0  0  0  0  0
   -7.5562   -3.1484   -0.0000 C   0  0  0  0  0  0  0  0  0  0  0  0
   -9.8730   -2.3762   -0.0000 C   0  0  0  0  0  0  0  0  0  0  0  0
   -8.9938   -3.5999   -0.0000 O   0  0  0  0  0  0  0  0  0  0  0  0
   -6.3563   -4.0157   -0.0000 C   0  0  0  0  0  0  0  0  0  0  0  0
  -11.3819   -2.3643   -0.0000 C   0  0  0  0  0  0  0  0  0  0  0  0
  -12.1423   -3.6474   -0.0000 C   0  0  0  0  0  0  0  0  0  0  0  0
  -12.1423   -1.0455   -0.0000 C   0  0  0  0  0  0  0  0  0  0  0  0
  -13.6511   -3.6355   -0.0000 C   0  0  0  0  0  0  0  0  0  0  0  0
  -13.6511   -1.0336   -0.0000 C   0  0  0  0  0  0  0  0  0  0  0  0
  -14.4115   -4.9187   -0.0000 O   0  0  0  0  0  0  0  0  0  0  0  0
  -14.4234   -2.3168   -0.0000 C   0  0  0  0  0  0  0  0  0  0  0  0
  -15.9204   -4.9068   -0.0000 C   0  0  0  0  0  0  0  0  0  0  0  0
  1  2  2  0  0  0  0
  2  3  1  0  0  0  0
  2  4  1  0  0  0  0
  3  5  1  0  0  0  0
  3  6  1  0  0  0  0
  4  7  1  1  0  0  0
  5  8  2  0  0  0  0
  5  9  1  0  0  0  0
  6 10  1  1  0  0  0
  7 11  1  0  0  0  0
  8 12  1  0  0  0  0
  9 13  2  0  0  0  0
 10 14  2  0  0  0  0
 10 15  1  0  0  0  0
 11 16  2  0  0  0  0
 11 17  1  0  0  0  0
 12 18  2  0  0  0  0
 16 19  1  0  0  0  0
 17 20  2  0  0  0  0
 18 21  1  0  0  0  0
 19 22  1  0  0  0  0
 19 23  2  0  0  0  0
 21 24  1  0  0  0  0
 21 25  1  0  0  0  0
 21 26  1  0  0  0  0
 22 27  1  0  0  0  0
 27 28  1  0  0  0  0
 28 29  1  0  0  0  0
 29 30  1  0  0  0  0
 29 31  2  0  0  0  0
 30 32  2  0  0  0  0
 31 33  1  0  0  0  0
 31 34  1  0  0  0  0
 32 35  1  0  0  0  0
 35 36  2  0  0  0  0
 35 37  1  0  0  0  0
 36 38  1  0  0  0  0
 37 39  2  0  0  0  0
 38 40  1  0  0  0  0
 38 41  2  0  0  0  0
 40 42  1  0  0  0  0
  4  6  1  0  0  0  0
 13 18  1  0  0  0  0
 20 23  1  0  0  0  0
 32 33  1  0  0  0  0
 39 41  1  0  0  0  0
M  END
>  <MolRegNo>
435237

>  <m>
=

>  <Value>
19000

>  <Unit>
nM

>  <Type>
IC50

>  <pValue>
4.72

>  <Ligand Efficiency>
0

>  <Binding Efficiency>
0

>  <Surface Efficiency>
0

>  <Assay Index>
313596

>  <Assay Category>


>  <Assay Organism>


>  <Target ID>
17045

>  <Target Name>
Cytochrome P450 3A4

>  <Target Organism>
Homo sapiens

>  <Target Description>
Target is a single protein chain

>  <Sequence Accession>
P08684

>  <Reference>
Bioorg Med Chem Lett 18 (6), 1939-1944 (2008)

>  <Pubmed ID>
18291645

>  <DOI>
10.1016/j.bmcl.2008.01.126

$$$$
435241
Actelion Java MolfileCreator 1.0

 40 44  0  0  1  0  0  0  0  0999 V2000
    0.0000   -0.0000   -0.0000 O   0  0  0  0  0  0  0  0  0  0  0  0
    0.7237    1.3169   -0.0000 C   0  0  0  0  0  0  0  0  0  0  0  0
    2.1474    1.7321   -0.0000 N   0  0  0  0  0  0  0  0  0  0  0  0
    0.3085    2.7643   -0.0000 C   0  0  0  0  0  0  0  0  0  0  0  0
    3.4405    1.0084   -0.0000 C   0  0  0  0  0  0  0  0  0  0  0  0
    1.7321    3.1795   -0.0000 C   0  0  0  0  0  0  0  0  0  0  0  0
   -1.0084    3.5117   -0.0000 C   0  0  0  0  0  0  0  0  0  0  0  0
    3.4405   -0.4746   -0.0000 C   0  0  0  0  0  0  0  0  0  0  0  0
    4.7100    1.7915   -0.0000 C   0  0  0  0  0  0  0  0  0  0  0  0
    2.4440    4.4964   -0.0000 C   0  0  0  0  0  0  0  0  0  0  0  0
   -2.3016    2.7524   -0.0000 C   0  0  0  0  0  0  0  0  0  0  0  0
    4.7337   -1.1983   -0.0000 C   0  0  0  0  0  0  0  0  0  0  0  0
    6.0032    1.0796   -0.0000 C   0  0  0  0  0  0  0  0  0  0  0  0
    1.6610    5.8015   -0.0000 O   0  0  0  0  0  0  0  0  0  0  0  0
    3.9270    4.5320   -0.0000 O   0  0  0  0  0  0  0  0  0  0  0  0
   -2.2897    1.2576   -0.0000 C   0  0  0  0  0  0  0  0  0  0  0  0
   -3.6185    3.4999   -0.0000 C   0  0  0  0  0  0  0  0  0  0  0  0
    6.0150   -0.4152   -0.0000 C   0  0  0  0  0  0  0  0  0  0  0  0
   -3.5948    0.5102   -0.0000 C   0  0  0  0  0  0  0  0  0  0  0  0
   -4.9117    2.7524   -0.0000 C   0  0  0  0  0  0  0  0  0  0  0  0
    7.3082   -1.1271   -0.0000 C   0  0  0  0  0  0  0  0  0  0  0  0
   -4.9117    1.2576   -0.0000 C   0  0  0  0  0  0  0  0  0  0  0  0
    8.5776   -1.8626   -0.0000 C   0  0  0  0  0  0  0  0  0  0  0  0
    8.0319    0.1898   -0.0000 C   0  0  0  0  0  0  0  0  0  0  0  0
    6.5608   -2.4202   -0.0000 C   0  0  0  0  0  0  0  0  0  0  0  0
   -6.2167    0.5102   -0.0000 O   0  0  0  0  0  0  0  0  0  0  0  0
   -7.5336    1.2576   -0.0000 C   0  0  0  0  0  0  0  0  0  0  0  0
   -8.8387    0.5102   -0.0000 C   0  0  0  0  0  0  0  0  0  0  0  0
  -10.1556    1.2576   -0.0000 C   0  0  0  0  0  0  0  0  0  0  0  0
  -10.2386    2.7643   -0.0000 N   0  0  0  0  0  0  0  0  0  0  0  0
  -11.5674    0.7356   -0.0000 C   0  0  0  0  0  0  0  0  0  0  0  0
  -11.6979    3.1677   -0.0000 C   0  0  0  0  0  0  0  0  0  0  0  0
  -12.5165    1.9220   -0.0000 O   0  0  0  0  0  0  0  0  0  0  0  0
  -11.9707   -0.7000   -0.0000 C   0  0  0  0  0  0  0  0  0  0  0  0
  -12.5046    4.4490   -0.0000 C   0  0  0  0  0  0  0  0  0  0  0  0
  -11.8165    5.7896   -0.0000 C   0  0  0  0  0  0  0  0  0  0  0  0
  -14.0113    4.4015   -0.0000 C   0  0  0  0  0  0  0  0  0  0  0  0
  -12.6233    7.0709   -0.0000 C   0  0  0  0  0  0  0  0  0  0  0  0
  -14.8181    5.6710   -0.0000 C   0  0  0  0  0  0  0  0  0  0  0  0
  -14.1300    7.0235   -0.0000 C   0  0  0  0  0  0  0  0  0  0  0  0
  1  2  2  0  0  0  0
  2  3  1  0  0  0  0
  2  4  1  0  0  0  0
  3  5  1  0  0  0  0
  3  6  1  0  0  0  0
  4  7  1  1  0  0  0
  5  8  2  0  0  0  0
  5  9  1  0  0  0  0
  6 10  1  1  0  0  0
  7 11  1  0  0  0  0
  8 12  1  0  0  0  0
  9 13  2  0  0  0  0
 10 14  2  0  0  0  0
 10 15  1  0  0  0  0
 11 16  2  0  0  0  0
 11 17  1  0  0  0  0
 12 18  2  0  0  0  0
 16 19  1  0  0  0  0
 17 20  2  0  0  0  0
 18 21  1  0  0  0  0
 19 22  2  0  0  0  0
 21 23  1  0  0  0  0
 21 24  1  0  0  0  0
 21 25  1  0  0  0  0
 22 26  1  0  0  0  0
 26 27  1  0  0  0  0
 27 28  1  0  0  0  0
 28 29  1  0  0  0  0
 29 30  1  0  0  0  0
 29 31  2  0  0  0  0
 30 32  2  0  0  0  0
 31 33  1  0  0  0  0
 31 34  1  0  0  0  0
 32 35  1  0  0  0  0
 35 36  2  0  0  0  0
 35 37  1  0  0  0  0
 36 38  1  0  0  0  0
 37 39  2  0  0  0  0
 38 40  2  0  0  0  0
  4  6  1  0  0  0  0
 13 18  1  0  0  0  0
 20 22  1  0  0  0  0
 32 33  1  0  0  0  0
 39 40  1  0  0  0  0
M  END
>  <MolRegNo>
435241

>  <m>
=

>  <Value>
28000

>  <Unit>
nM

>  <Type>
IC50

>  <pValue>
4.55

>  <Ligand Efficiency>
0

>  <Binding Efficiency>
0

>  <Surface Efficiency>
0

>  <Assay Index>
313596

>  <Assay Category>


>  <Assay Organism>


>  <Target ID>
17045

>  <Target Name>
Cytochrome P450 3A4

>  <Target Organism>
Homo sapiens

>  <Target Description>
Target is a single protein chain

>  <Sequence Accession>
P08684

>  <Reference>
Bioorg Med Chem Lett 18 (6), 1939-1944 (2008)

>  <Pubmed ID>
18291645

>  <DOI>
10.1016/j.bmcl.2008.01.126

$$$$
441815
Actelion Java MolfileCreator 1.0

 29 32  0  0  0  0  0  0  0  0999 V2000
    0.0000   -0.0000   -0.0000 S   0  0  0  0  0  0  0  0  0  0  0  0
    1.2036    0.8937   -0.0000 C   0  0  0  0  0  0  0  0  0  0  0  0
    0.4528   -1.4180   -0.0000 C   0  0  0  0  0  0  0  0  0  0  0  0
    2.4071    0.0238   -0.0000 N   0  0  0  0  0  0  0  0  0  0  0  0
    1.2036    2.4071   -0.0000 C   0  0  0  0  0  0  0  0  0  0  0  0
    1.9424   -1.4061   -0.0000 C   0  0  0  0  0  0  0  0  0  0  0  0
   -0.1072    3.1698   -0.0000 N   0  0  0  0  0  0  0  0  0  0  0  0
    2.5024    3.1698   -0.0000 N   0  0  0  0  0  0  0  0  0  0  0  0
   -0.1192    4.6831   -0.0000 C   0  0  0  0  0  0  0  0  0  0  0  0
    2.4905    4.6950   -0.0000 C   0  0  0  0  0  0  0  0  0  0  0  0
   -1.4300    5.4458   -0.0000 N   0  0  0  0  0  0  0  0  0  0  0  0
    1.1559    5.4458   -0.0000 C   0  0  0  0  0  0  0  0  0  0  0  0
    3.7775    5.4696   -0.0000 N   0  0  0  0  0  0  0  0  0  0  0  0
   -2.8123    4.8500   -0.0000 N   0  0  0  0  0  0  0  0  0  0  0  0
   -1.5968    6.9472   -0.0000 C   0  0  0  0  0  0  0  0  0  0  0  0
    5.0645    4.7427   -0.0000 C   0  0  0  0  0  0  0  0  0  0  0  0
   -3.8252    5.9820   -0.0000 C   0  0  0  0  0  0  0  0  0  0  0  0
   -3.0744    7.2690   -0.0000 C   0  0  0  0  0  0  0  0  0  0  0  0
   -0.4886    7.9601   -0.0000 C   0  0  0  0  0  0  0  0  0  0  0  0
    5.0645    3.2532   -0.0000 O   0  0  0  0  0  0  0  0  0  0  0  0
    6.3514    5.5173   -0.0000 C   0  0  0  0  0  0  0  0  0  0  0  0
   -5.3266    5.8390   -0.0000 C   0  0  0  0  0  0  0  0  0  0  0  0
    7.6384    4.7904   -0.0000 N   0  0  0  0  0  0  0  0  0  0  0  0
    7.6265    3.2889   -0.0000 C   0  0  0  0  0  0  0  0  0  0  0  0
    8.9134    5.5530   -0.0000 C   0  0  0  0  0  0  0  0  0  0  0  0
    8.9134    2.5620   -0.0000 C   0  0  0  0  0  0  0  0  0  0  0  0
   10.2123    4.8142   -0.0000 C   0  0  0  0  0  0  0  0  0  0  0  0
   10.2004    3.3247   -0.0000 N   0  0  0  0  0  0  0  0  0  0  0  0
   11.4874    2.5858   -0.0000 C   0  0  0  0  0  0  0  0  0  0  0  0
  1  2  1  0  0  0  0
  1  3  1  0  0  0  0
  2  4  2  0  0  0  0
  2  5  1  0  0  0  0
  3  6  2  0  0  0  0
  5  7  2  0  0  0  0
  5  8  1  0  0  0  0
  7  9  1  0  0  0  0
  8 10  2  0  0  0  0
  9 11  1  0  0  0  0
  9 12  2  0  0  0  0
 10 13  1  0  0  0  0
 11 14  1  0  0  0  0
 11 15  1  0  0  0  0
 13 16  1  0  0  0  0
 14 17  2  0  0  0  0
 15 18  2  0  0  0  0
 15 19  1  0  0  0  0
 16 20  2  0  0  0  0
 16 21  1  0  0  0  0
 17 22  1  0  0  0  0
 21 23  1  0  0  0  0
 23 24  1  0  0  0  0
 23 25  1  0  0  0  0
 24 26  1  0  0  0  0
 25 27  1  0  0  0  0
 26 28  1  0  0  0  0
 28 29  1  0  0  0  0
  4  6  1  0  0  0  0
 10 12  1  0  0  0  0
 17 18  1  0  0  0  0
 27 28  1  0  0  0  0
M  END
>  <MolRegNo>
441815

>  <m>
=

>  <Value>
13000

>  <Unit>
nM

>  <Type>
IC50

>  <pValue>
4.89

>  <Ligand Efficiency>
0

>  <Binding Efficiency>
0

>  <Surface Efficiency>
0

>  <Assay Index>
314540

>  <Assay Category>


>  <Assay Organism>


>  <Target ID>
17045

>  <Target Name>
Cytochrome P450 3A4

>  <Target Organism>
Homo sapiens

>  <Target Description>
Target is a single protein chain

>  <Sequence Accession>
P08684

>  <Reference>
J Med Chem 51 (6), 1719-1729 (2008)

>  <Pubmed ID>
18307292

>  <DOI>
10.1021/jm701185v

$$$$
430088
Actelion Java MolfileCreator 1.0

 27 29  0  0  0  0  0  0  0  0999 V2000
    0.0000   -0.0000   -0.0000 O   0  0  0  0  0  0  0  0  0  0  0  0
   -1.2951   -0.7723   -0.0000 C   0  0  0  0  0  0  0  0  0  0  0  0
    1.2832   -0.7129   -0.0000 C   0  0  0  0  0  0  0  0  0  0  0  0
   -1.2594   -2.2694   -0.0000 C   0  0  0  0  0  0  0  0  0  0  0  0
   -2.6258   -0.0475   -0.0000 C   0  0  0  0  0  0  0  0  0  0  0  0
    2.5545    0.0475   -0.0000 C   0  0  0  0  0  0  0  0  0  0  0  0
    0.0475   -2.9704   -0.0000 C   0  0  0  0  0  0  0  0  0  0  0  0
   -2.5426   -3.0535   -0.0000 C   0  0  0  0  0  0  0  0  0  0  0  0
   -2.6258    1.4733   -0.0000 N   0  0  0  0  0  0  0  0  0  0  0  0
    3.8615   -0.6416   -0.0000 C   0  0  0  0  0  0  0  0  0  0  0  0
    0.0832   -4.4674   -0.0000 C   0  0  0  0  0  0  0  0  0  0  0  0
   -2.5070   -4.5387   -0.0000 C   0  0  0  0  0  0  0  0  0  0  0  0
   -1.4020    2.3525   -0.0000 C   0  0  0  0  0  0  0  0  0  0  0  0
   -3.8377    2.3882   -0.0000 C   0  0  0  0  0  0  0  0  0  0  0  0
    5.1566    0.0951   -0.0000 C   0  0  0  0  0  0  0  0  0  0  0  0
   -1.2119   -5.2397   -0.0000 C   0  0  0  0  0  0  0  0  0  0  0  0
   -1.8535    3.8021   -0.0000 N   0  0  0  0  0  0  0  0  0  0  0  0
   -3.3625    3.8258   -0.0000 C   0  0  0  0  0  0  0  0  0  0  0  0
    5.1684    1.6159   -0.0000 C   0  0  0  0  0  0  0  0  0  0  0  0
    6.4398   -0.6535   -0.0000 C   0  0  0  0  0  0  0  0  0  0  0  0
   -1.1763   -6.7368   -0.0000 O   0  0  0  0  0  0  0  0  0  0  0  0
    6.4635    2.3763   -0.0000 C   0  0  0  0  0  0  0  0  0  0  0  0
    7.7348    0.0951   -0.0000 C   0  0  0  0  0  0  0  0  0  0  0  0
   -2.4595   -7.5210   -0.0000 C   0  0  0  0  0  0  0  0  0  0  0  0
    7.7348    1.6159   -0.0000 C   0  0  0  0  0  0  0  0  0  0  0  0
    9.0299    2.3644   -0.0000 O   0  0  0  0  0  0  0  0  0  0  0  0
    9.0418    3.8852   -0.0000 C   0  0  0  0  0  0  0  0  0  0  0  0
  1  2  1  0  0  0  0
  1  3  1  0  0  0  0
  2  4  1  0  0  0  0
  2  5  1  0  0  0  0
  3  6  1  0  0  0  0
  4  7  2  0  0  0  0
  4  8  1  0  0  0  0
  5  9  1  0  0  0  0
  6 10  1  0  0  0  0
  7 11  1  0  0  0  0
  8 12  2  0  0  0  0
  9 13  1  0  0  0  0
  9 14  1  0  0  0  0
 10 15  1  0  0  0  0
 11 16  2  0  0  0  0
 13 17  2  0  0  0  0
 14 18  2  0  0  0  0
 15 19  2  0  0  0  0
 15 20  1  0  0  0  0
 16 21  1  0  0  0  0
 19 22  1  0  0  0  0
 20 23  2  0  0  0  0
 21 24  1  0  0  0  0
 22 25  2  0  0  0  0
 25 26  1  0  0  0  0
 26 27  1  0  0  0  0
 12 16  1  0  0  0  0
 17 18  1  0  0  0  0
 23 25  1  0  0  0  0
M  END
>  <MolRegNo>
430088

>  <m>
=

>  <Value>
45

>  <Unit>
nM

>  <Type>
IC50

>  <pValue>
7.35

>  <Ligand Efficiency>
0

>  <Binding Efficiency>
0

>  <Surface Efficiency>
0

>  <Assay Index>
322780

>  <Assay Category>


>  <Assay Organism>
Homo sapiens

>  <Target ID>
17045

>  <Target Name>
Cytochrome P450 3A4

>  <Target Organism>
Homo sapiens

>  <Target Description>
Target is a single protein chain

>  <Sequence Accession>
P08684

>  <Reference>
J Med Chem 51 (6), 1755-1763 (2008)

>  <Pubmed ID>
18311908

>  <DOI>
10.1021/jm701121y

$$$$
440246
Actelion Java MolfileCreator 1.0

 20 20  0  0  0  0  0  0  0  0999 V2000
    0.0000   -0.0000   -0.0000 Br  0  0  0  0  0  0  0  0  0  0  0  0
   -0.0356   -1.4827   -0.0000 C   0  0  0  0  0  0  0  0  0  0  0  0
   -1.3522   -2.2062   -0.0000 C   0  0  0  0  0  0  0  0  0  0  0  0
    1.2455   -2.2418   -0.0000 C   0  0  0  0  0  0  0  0  0  0  0  0
   -1.3878   -3.6889   -0.0000 O   0  0  0  0  0  0  0  0  0  0  0  0
   -2.6570   -1.4234   -0.0000 N   0  0  0  0  0  0  0  0  0  0  0  0
    2.5265   -3.0010   -0.0000 C   0  0  0  0  0  0  0  0  0  0  0  0
    0.4745   -3.5229   -0.0000 C   0  0  0  0  0  0  0  0  0  0  0  0
    1.9690   -0.9252   -0.0000 C   0  0  0  0  0  0  0  0  0  0  0  0
   -3.9736   -2.1469   -0.0000 C   0  0  0  0  0  0  0  0  0  0  0  0
   -5.2784   -2.8942   -0.0000 C   0  0  0  0  0  0  0  0  0  0  0  0
   -3.2501   -3.4280   -0.0000 C   0  0  0  0  0  0  0  0  0  0  0  0
   -4.7446   -0.8303   -0.0000 C   0  0  0  0  0  0  0  0  0  0  0  0
   -6.5950   -2.1469   -0.0000 C   0  0  0  0  0  0  0  0  0  0  0  0
   -5.2903   -4.3888   -0.0000 C   0  0  0  0  0  0  0  0  0  0  0  0
   -7.9117   -2.8942   -0.0000 C   0  0  0  0  0  0  0  0  0  0  0  0
   -6.5950   -5.1360   -0.0000 C   0  0  0  0  0  0  0  0  0  0  0  0
   -7.9117   -4.3888   -0.0000 N   0  0  0  0  0  0  0  0  0  0  0  0
   -9.2283   -2.1469   -0.0000 C   0  0  0  0  0  0  0  0  0  0  0  0
   -6.5950   -6.6187   -0.0000 C   0  0  0  0  0  0  0  0  0  0  0  0
  1  2  1  0  0  0  0
  2  3  1  0  0  0  0
  2  4  1  0  0  0  0
  3  5  2  0  0  0  0
  3  6  1  0  0  0  0
  4  7  1  0  0  0  0
  4  8  1  0  0  0  0
  4  9  1  0  0  0  0
  6 10  1  0  0  0  0
 10 11  1  0  0  0  0
 10 12  1  0  0  0  0
 10 13  1  0  0  0  0
 11 14  2  0  0  0  0
 11 15  1  0  0  0  0
 14 16  1  0  0  0  0
 15 17  2  0  0  0  0
 16 18  2  0  0  0  0
 16 19  1  0  0  0  0
 17 20  1  0  0  0  0
 17 18  1  0  0  0  0
M  END
>  <MolRegNo>
440246

>  <m>
=

>  <Value>
13000

>  <Unit>
nM

>  <Type>
IC50

>  <pValue>
4.89

>  <Ligand Efficiency>
0

>  <Binding Efficiency>
0

>  <Surface Efficiency>
0

>  <Assay Index>
322780

>  <Assay Category>


>  <Assay Organism>
Homo sapiens

>  <Target ID>
17045

>  <Target Name>
Cytochrome P450 3A4

>  <Target Organism>
Homo sapiens

>  <Target Description>
Target is a single protein chain

>  <Sequence Accession>
P08684

>  <Reference>
J Med Chem 51 (6), 1755-1763 (2008)

>  <Pubmed ID>
18311908

>  <DOI>
10.1021/jm701121y

$$$$
440245
Actelion Java MolfileCreator 1.0

 20 22  0  0  0  0  0  0  0  0999 V2000
    0.0000   -0.0000   -0.0000 Cl  0  0  0  0  0  0  0  0  0  0  0  0
    1.2764   -0.7327   -0.0000 C   0  0  0  0  0  0  0  0  0  0  0  0
    1.2645   -2.2218   -0.0000 C   0  0  0  0  0  0  0  0  0  0  0  0
    2.5645    0.0236   -0.0000 C   0  0  0  0  0  0  0  0  0  0  0  0
    2.5527   -2.9545   -0.0000 C   0  0  0  0  0  0  0  0  0  0  0  0
   -0.0473   -2.9545   -0.0000 C   0  0  0  0  0  0  0  0  0  0  0  0
    3.8527   -0.7091   -0.0000 C   0  0  0  0  0  0  0  0  0  0  0  0
    3.8409   -2.1982   -0.0000 C   0  0  0  0  0  0  0  0  0  0  0  0
   -1.3118   -2.1273   -0.0000 N   0  0  0  0  0  0  0  0  0  0  0  0
    5.1291    0.0473   -0.0000 Cl  0  0  0  0  0  0  0  0  0  0  0  0
   -1.4064   -0.6145   -0.0000 N   0  0  0  0  0  0  0  0  0  0  0  0
   -2.7182   -2.6473   -0.0000 C   0  0  0  0  0  0  0  0  0  0  0  0
   -2.8600   -0.2127   -0.0000 C   0  0  0  0  0  0  0  0  0  0  0  0
   -3.6754   -1.4773   -0.0000 C   0  0  0  0  0  0  0  0  0  0  0  0
   -5.1882   -1.5482   -0.0000 C   0  0  0  0  0  0  0  0  0  0  0  0
   -6.0154   -0.2836   -0.0000 C   0  0  0  0  0  0  0  0  0  0  0  0
   -5.8854   -2.8718   -0.0000 C   0  0  0  0  0  0  0  0  0  0  0  0
   -7.5281   -0.3427   -0.0000 C   0  0  0  0  0  0  0  0  0  0  0  0
   -7.3863   -2.9427   -0.0000 C   0  0  0  0  0  0  0  0  0  0  0  0
   -8.2254   -1.6664   -0.0000 N   0  0  0  0  0  0  0  0  0  0  0  0
  1  2  1  0  0  0  0
  2  3  2  0  0  0  0
  2  4  1  0  0  0  0
  3  5  1  0  0  0  0
  3  6  1  0  0  0  0
  4  7  2  0  0  0  0
  5  8  2  0  0  0  0
  6  9  1  0  0  0  0
  7 10  1  0  0  0  0
  9 11  1  0  0  0  0
  9 12  1  0  0  0  0
 11 13  2  0  0  0  0
 12 14  2  0  0  0  0
 14 15  1  0  0  0  0
 15 16  2  0  0  0  0
 15 17  1  0  0  0  0
 16 18  1  0  0  0  0
 17 19  2  0  0  0  0
 18 20  2  0  0  0  0
  7  8  1  0  0  0  0
 13 14  1  0  0  0  0
 19 20  1  0  0  0  0
M  END
>  <MolRegNo>
440245

>  <m>
=

>  <Value>
230

>  <Unit>
nM

>  <Type>
IC50

>  <pValue>
6.64

>  <Ligand Efficiency>
0

>  <Binding Efficiency>
0

>  <Surface Efficiency>
0

>  <Assay Index>
322780

>  <Assay Category>


>  <Assay Organism>
Homo sapiens

>  <Target ID>
17045

>  <Target Name>
Cytochrome P450 3A4

>  <Target Organism>
Homo sapiens

>  <Target Description>
Target is a single protein chain

>  <Sequence Accession>
P08684

>  <Reference>
J Med Chem 51 (6), 1755-1763 (2008)

>  <Pubmed ID>
18311908

>  <DOI>
10.1021/jm701121y

$$$$
440280
Actelion Java MolfileCreator 1.0

 22 24  0  0  0  0  0  0  0  0999 V2000
    0.0000   -0.0000   -0.0000 S   0  0  0  0  0  0  0  0  0  0  0  0
    0.7303   -1.2839   -0.0000 O   0  0  0  0  0  0  0  0  0  0  0  0
   -0.7539    1.3075   -0.0000 O   0  0  0  0  0  0  0  0  0  0  0  0
   -1.3075   -0.7303   -0.0000 C   0  0  0  0  0  0  0  0  0  0  0  0
    1.2839    0.7539   -0.0000 C   0  0  0  0  0  0  0  0  0  0  0  0
   -1.3193   -2.2145   -0.0000 C   0  0  0  0  0  0  0  0  0  0  0  0
   -2.6150    0.0236   -0.0000 C   0  0  0  0  0  0  0  0  0  0  0  0
   -2.6267   -2.9448   -0.0000 C   0  0  0  0  0  0  0  0  0  0  0  0
   -3.9224   -0.7067   -0.0000 C   0  0  0  0  0  0  0  0  0  0  0  0
   -3.9342   -2.1909   -0.0000 C   0  0  0  0  0  0  0  0  0  0  0  0
   -5.2417   -2.9212   -0.0000 C   0  0  0  0  0  0  0  0  0  0  0  0
   -6.5021   -2.0967   -0.0000 N   0  0  0  0  0  0  0  0  0  0  0  0
   -6.5963   -0.5890   -0.0000 N   0  0  0  0  0  0  0  0  0  0  0  0
   -7.9038   -2.6150   -0.0000 C   0  0  0  0  0  0  0  0  0  0  0  0
   -8.0451   -0.1885   -0.0000 C   0  0  0  0  0  0  0  0  0  0  0  0
   -8.8579   -1.4488   -0.0000 C   0  0  0  0  0  0  0  0  0  0  0  0
  -10.3656   -1.5195   -0.0000 C   0  0  0  0  0  0  0  0  0  0  0  0
  -11.1901   -0.2591   -0.0000 C   0  0  0  0  0  0  0  0  0  0  0  0
  -11.0606   -2.8388   -0.0000 C   0  0  0  0  0  0  0  0  0  0  0  0
  -12.6979   -0.3180   -0.0000 C   0  0  0  0  0  0  0  0  0  0  0  0
  -12.5565   -2.9094   -0.0000 C   0  0  0  0  0  0  0  0  0  0  0  0
  -13.3928   -1.6373   -0.0000 N   0  0  0  0  0  0  0  0  0  0  0  0
  1  2  2  0  0  0  0
  1  3  2  0  0  0  0
  1  4  1  0  0  0  0
  1  5  1  0  0  0  0
  4  6  2  0  0  0  0
  4  7  1  0  0  0  0
  6  8  1  0  0  0  0
  7  9  2  0  0  0  0
  8 10  2  0  0  0  0
 10 11  1  0  0  0  0
 11 12  1  0  0  0  0
 12 13  1  0  0  0  0
 12 14  1  0  0  0  0
 13 15  2  0  0  0  0
 14 16  2  0  0  0  0
 16 17  1  0  0  0  0
 17 18  2  0  0  0  0
 17 19  1  0  0  0  0
 18 20  1  0  0  0  0
 19 21  2  0  0  0  0
 20 22  2  0  0  0  0
  9 10  1  0  0  0  0
 15 16  1  0  0  0  0
 21 22  1  0  0  0  0
M  END
>  <MolRegNo>
440280

>  <m>
=

>  <Value>
26000

>  <Unit>
nM

>  <Type>
IC50

>  <pValue>
4.58

>  <Ligand Efficiency>
0

>  <Binding Efficiency>
0

>  <Surface Efficiency>
0

>  <Assay Index>
322780

>  <Assay Category>


>  <Assay Organism>
Homo sapiens

>  <Target ID>
17045

>  <Target Name>
Cytochrome P450 3A4

>  <Target Organism>
Homo sapiens

>  <Target Description>
Target is a single protein chain

>  <Sequence Accession>
P08684

>  <Reference>
J Med Chem 51 (6), 1755-1763 (2008)

>  <Pubmed ID>
18311908

>  <DOI>
10.1021/jm701121y

$$$$
440284
Actelion Java MolfileCreator 1.0

 27 30  0  0  0  0  0  0  0  0999 V2000
    0.0000   -0.0000   -0.0000 N   0  0  0  0  0  0  0  0  0  0  0  0
   -0.0119   -1.4988   -0.0000 C   0  0  0  0  0  0  0  0  0  0  0  0
    1.2847    0.7613   -0.0000 C   0  0  0  0  0  0  0  0  0  0  0  0
    1.2847   -2.2363   -0.0000 N   0  0  0  0  0  0  0  0  0  0  0  0
   -1.3204   -2.2363   -0.0000 C   0  0  0  0  0  0  0  0  0  0  0  0
    1.2728    2.2839   -0.0000 N   0  0  0  0  0  0  0  0  0  0  0  0
    2.5813    0.0238   -0.0000 C   0  0  0  0  0  0  0  0  0  0  0  0
    2.5813   -1.4750   -0.0000 C   0  0  0  0  0  0  0  0  0  0  0  0
   -2.6408   -1.4631   -0.0000 C   0  0  0  0  0  0  0  0  0  0  0  0
   -1.3323   -3.7233   -0.0000 C   0  0  0  0  0  0  0  0  0  0  0  0
    2.5575    3.0571   -0.0000 C   0  0  0  0  0  0  0  0  0  0  0  0
    3.8660   -2.2125   -0.0000 C   0  0  0  0  0  0  0  0  0  0  0  0
   -3.9612   -2.2007   -0.0000 C   0  0  0  0  0  0  0  0  0  0  0  0
   -2.6408   -4.4727   -0.0000 C   0  0  0  0  0  0  0  0  0  0  0  0
    3.8541    2.3196   -0.0000 C   0  0  0  0  0  0  0  0  0  0  0  0
    3.8541   -3.7114   -0.0000 C   0  0  0  0  0  0  0  0  0  0  0  0
    5.1507   -1.4512   -0.0000 C   0  0  0  0  0  0  0  0  0  0  0  0
   -3.9731   -3.6995   -0.0000 N   0  0  0  0  0  0  0  0  0  0  0  0
    3.8422    0.8327   -0.0000 N   0  0  0  0  0  0  0  0  0  0  0  0
    5.1388    3.1047   -0.0000 N   0  0  0  0  0  0  0  0  0  0  0  0
    5.1507   -4.4489   -0.0000 C   0  0  0  0  0  0  0  0  0  0  0  0
    6.4473   -2.1888   -0.0000 C   0  0  0  0  0  0  0  0  0  0  0  0
    5.1388    0.0952   -0.0000 C   0  0  0  0  0  0  0  0  0  0  0  0
    6.4354    2.3672   -0.0000 C   0  0  0  0  0  0  0  0  0  0  0  0
    6.4473   -3.6757   -0.0000 C   0  0  0  0  0  0  0  0  0  0  0  0
    6.4354    0.8684   -0.0000 C   0  0  0  0  0  0  0  0  0  0  0  0
    7.7320    0.1308   -0.0000 C   0  0  0  0  0  0  0  0  0  0  0  0
  1  2  2  0  0  0  0
  1  3  1  0  0  0  0
  2  4  1  0  0  0  0
  2  5  1  0  0  0  0
  3  6  1  0  0  0  0
  3  7  2  0  0  0  0
  4  8  2  0  0  0  0
  5  9  2  0  0  0  0
  5 10  1  0  0  0  0
  6 11  1  0  0  0  0
  8 12  1  0  0  0  0
  9 13  1  0  0  0  0
 10 14  2  0  0  0  0
 11 15  1  0  0  0  0
 12 16  2  0  0  0  0
 12 17  1  0  0  0  0
 13 18  2  0  0  0  0
 15 19  2  0  0  0  0
 15 20  1  0  0  0  0
 16 21  1  0  0  0  0
 17 22  2  0  0  0  0
 19 23  1  0  0  0  0
 20 24  2  0  0  0  0
 21 25  2  0  0  0  0
 23 26  2  0  0  0  0
 26 27  1  0  0  0  0
  7  8  1  0  0  0  0
 14 18  1  0  0  0  0
 22 25  1  0  0  0  0
 24 26  1  0  0  0  0
M  END
>  <MolRegNo>
440284

>  <m>
=

>  <Value>
71

>  <Unit>
nM

>  <Type>
IC50

>  <pValue>
7.15

>  <Ligand Efficiency>
0

>  <Binding Efficiency>
0

>  <Surface Efficiency>
0

>  <Assay Index>
322780

>  <Assay Category>


>  <Assay Organism>
Homo sapiens

>  <Target ID>
17045

>  <Target Name>
Cytochrome P450 3A4

>  <Target Organism>
Homo sapiens

>  <Target Description>
Target is a single protein chain

>  <Sequence Accession>
P08684

>  <Reference>
J Med Chem 51 (6), 1755-1763 (2008)

>  <Pubmed ID>
18311908

>  <DOI>
10.1021/jm701121y

$$$$
440283
Actelion Java MolfileCreator 1.0

 27 30  0  0  0  0  0  0  0  0999 V2000
    0.0000   -0.0000   -0.0000 N   0  0  0  0  0  0  0  0  0  0  0  0
   -0.0119   -1.4998   -0.0000 C   0  0  0  0  0  0  0  0  0  0  0  0
    1.2855    0.7618   -0.0000 C   0  0  0  0  0  0  0  0  0  0  0  0
    1.2855   -2.2377   -0.0000 N   0  0  0  0  0  0  0  0  0  0  0  0
   -1.3212   -2.2377   -0.0000 C   0  0  0  0  0  0  0  0  0  0  0  0
    1.2736    2.2854   -0.0000 N   0  0  0  0  0  0  0  0  0  0  0  0
    2.5829    0.0238   -0.0000 C   0  0  0  0  0  0  0  0  0  0  0  0
    2.5829   -1.4760   -0.0000 C   0  0  0  0  0  0  0  0  0  0  0  0
   -1.3331   -3.7256   -0.0000 C   0  0  0  0  0  0  0  0  0  0  0  0
   -2.6424   -1.4641   -0.0000 C   0  0  0  0  0  0  0  0  0  0  0  0
    2.5591    3.0590   -0.0000 C   0  0  0  0  0  0  0  0  0  0  0  0
    3.8684   -2.2139   -0.0000 C   0  0  0  0  0  0  0  0  0  0  0  0
   -2.6424   -4.4636   -0.0000 N   0  0  0  0  0  0  0  0  0  0  0  0
   -3.9637   -2.2020   -0.0000 C   0  0  0  0  0  0  0  0  0  0  0  0
    3.8565    2.3211   -0.0000 C   0  0  0  0  0  0  0  0  0  0  0  0
    3.8565   -3.7137   -0.0000 C   0  0  0  0  0  0  0  0  0  0  0  0
    5.1540   -1.4522   -0.0000 C   0  0  0  0  0  0  0  0  0  0  0  0
   -3.9637   -3.7018   -0.0000 C   0  0  0  0  0  0  0  0  0  0  0  0
    3.8446    0.8332   -0.0000 N   0  0  0  0  0  0  0  0  0  0  0  0
    5.1421    3.0948   -0.0000 N   0  0  0  0  0  0  0  0  0  0  0  0
    5.1540   -4.4517   -0.0000 C   0  0  0  0  0  0  0  0  0  0  0  0
    6.4514   -2.1901   -0.0000 C   0  0  0  0  0  0  0  0  0  0  0  0
    5.1421    0.0952   -0.0000 C   0  0  0  0  0  0  0  0  0  0  0  0
    6.4395    2.3687   -0.0000 C   0  0  0  0  0  0  0  0  0  0  0  0
    6.4514   -3.6899   -0.0000 C   0  0  0  0  0  0  0  0  0  0  0  0
    6.4395    0.8689   -0.0000 C   0  0  0  0  0  0  0  0  0  0  0  0
    7.7369    0.1309   -0.0000 C   0  0  0  0  0  0  0  0  0  0  0  0
  1  2  2  0  0  0  0
  1  3  1  0  0  0  0
  2  4  1  0  0  0  0
  2  5  1  0  0  0  0
  3  6  1  0  0  0  0
  3  7  2  0  0  0  0
  4  8  2  0  0  0  0
  5  9  2  0  0  0  0
  5 10  1  0  0  0  0
  6 11  1  0  0  0  0
  8 12  1  0  0  0  0
  9 13  1  0  0  0  0
 10 14  2  0  0  0  0
 11 15  1  0  0  0  0
 12 16  2  0  0  0  0
 12 17  1  0  0  0  0
 13 18  2  0  0  0  0
 15 19  2  0  0  0  0
 15 20  1  0  0  0  0
 16 21  1  0  0  0  0
 17 22  2  0  0  0  0
 19 23  1  0  0  0  0
 20 24  2  0  0  0  0
 21 25  2  0  0  0  0
 23 26  2  0  0  0  0
 26 27  1  0  0  0  0
  7  8  1  0  0  0  0
 14 18  1  0  0  0  0
 22 25  1  0  0  0  0
 24 26  1  0  0  0  0
M  END
>  <MolRegNo>
440283

>  <m>
=

>  <Value>
9600

>  <Unit>
nM

>  <Type>
IC50

>  <pValue>
5.02

>  <Ligand Efficiency>
0

>  <Binding Efficiency>
0

>  <Surface Efficiency>
0

>  <Assay Index>
322780

>  <Assay Category>


>  <Assay Organism>
Homo sapiens

>  <Target ID>
17045

>  <Target Name>
Cytochrome P450 3A4

>  <Target Organism>
Homo sapiens

>  <Target Description>
Target is a single protein chain

>  <Sequence Accession>
P08684

>  <Reference>
J Med Chem 51 (6), 1755-1763 (2008)

>  <Pubmed ID>
18311908

>  <DOI>
10.1021/jm701121y

$$$$
440317
Actelion Java MolfileCreator 1.0

 22 24  0  0  0  0  0  0  0  0999 V2000
    0.0000   -0.0000   -0.0000 S   0  0  0  0  0  0  0  0  0  0  0  0
    0.7277   -1.2883   -0.0000 O   0  0  0  0  0  0  0  0  0  0  0  0
   -0.7754    1.3241   -0.0000 O   0  0  0  0  0  0  0  0  0  0  0  0
   -1.3122   -0.7396   -0.0000 C   0  0  0  0  0  0  0  0  0  0  0  0
    1.3003    0.7515   -0.0000 C   0  0  0  0  0  0  0  0  0  0  0  0
   -1.3241   -2.2307   -0.0000 C   0  0  0  0  0  0  0  0  0  0  0  0
   -2.6363   -2.9703   -0.0000 N   0  0  0  0  0  0  0  0  0  0  0  0
   -0.0358   -2.9703   -0.0000 C   0  0  0  0  0  0  0  0  0  0  0  0
   -2.6482   -4.4733   -0.0000 C   0  0  0  0  0  0  0  0  0  0  0  0
   -0.0477   -4.4733   -0.0000 C   0  0  0  0  0  0  0  0  0  0  0  0
   -1.3599   -5.2129   -0.0000 N   0  0  0  0  0  0  0  0  0  0  0  0
   -3.9604   -5.2129   -0.0000 C   0  0  0  0  0  0  0  0  0  0  0  0
    1.2406   -5.2129   -0.0000 N   0  0  0  0  0  0  0  0  0  0  0  0
   -5.2726   -4.4495   -0.0000 C   0  0  0  0  0  0  0  0  0  0  0  0
   -3.9723   -6.7041   -0.0000 C   0  0  0  0  0  0  0  0  0  0  0  0
    1.3838   -6.6921   -0.0000 C   0  0  0  0  0  0  0  0  0  0  0  0
    2.6005   -4.5807   -0.0000 C   0  0  0  0  0  0  0  0  0  0  0  0
   -6.5848   -5.1891   -0.0000 C   0  0  0  0  0  0  0  0  0  0  0  0
   -5.2845   -7.4437   -0.0000 C   0  0  0  0  0  0  0  0  0  0  0  0
    2.8391   -6.9904   -0.0000 C   0  0  0  0  0  0  0  0  0  0  0  0
    3.6025   -5.6901   -0.0000 C   0  0  0  0  0  0  0  0  0  0  0  0
   -6.5967   -6.6802   -0.0000 N   0  0  0  0  0  0  0  0  0  0  0  0
  1  2  2  0  0  0  0
  1  3  2  0  0  0  0
  1  4  1  0  0  0  0
  1  5  1  0  0  0  0
  4  6  1  0  0  0  0
  6  7  2  0  0  0  0
  6  8  1  0  0  0  0
  7  9  1  0  0  0  0
  8 10  2  0  0  0  0
  9 11  2  0  0  0  0
  9 12  1  0  0  0  0
 10 13  1  0  0  0  0
 12 14  2  0  0  0  0
 12 15  1  0  0  0  0
 13 16  1  0  0  0  0
 13 17  1  0  0  0  0
 14 18  1  0  0  0  0
 15 19  2  0  0  0  0
 16 20  1  0  0  0  0
 17 21  1  0  0  0  0
 18 22  2  0  0  0  0
 10 11  1  0  0  0  0
 19 22  1  0  0  0  0
 20 21  1  0  0  0  0
M  END
>  <MolRegNo>
440317

>  <m>
=

>  <Value>
1300

>  <Unit>
nM

>  <Type>
IC50

>  <pValue>
5.89

>  <Ligand Efficiency>
0

>  <Binding Efficiency>
0

>  <Surface Efficiency>
0

>  <Assay Index>
322780

>  <Assay Category>


>  <Assay Organism>
Homo sapiens

>  <Target ID>
17045

>  <Target Name>
Cytochrome P450 3A4

>  <Target Organism>
Homo sapiens

>  <Target Description>
Target is a single protein chain

>  <Sequence Accession>
P08684

>  <Reference>
J Med Chem 51 (6), 1755-1763 (2008)

>  <Pubmed ID>
18311908

>  <DOI>
10.1021/jm701121y

$$$$
440322
Actelion Java MolfileCreator 1.0

 24 26  0  0  0  0  0  0  0  0999 V2000
    0.0000   -0.0000   -0.0000 S   0  0  0  0  0  0  0  0  0  0  0  0
    0.1651   -1.4744   -0.0000 O   0  0  0  0  0  0  0  0  0  0  0  0
   -0.2123    1.4980   -0.0000 O   0  0  0  0  0  0  0  0  0  0  0  0
   -1.4980   -0.1180   -0.0000 N   0  0  0  0  0  0  0  0  0  0  0  0
    1.4862    0.1180   -0.0000 C   0  0  0  0  0  0  0  0  0  0  0  0
   -2.1468   -1.4626   -0.0000 C   0  0  0  0  0  0  0  0  0  0  0  0
    2.3119   -1.1088   -0.0000 C   0  0  0  0  0  0  0  0  0  0  0  0
    2.1114    1.4744   -0.0000 C   0  0  0  0  0  0  0  0  0  0  0  0
   -3.6448   -1.5806   -0.0000 C   0  0  0  0  0  0  0  0  0  0  0  0
    3.7863   -0.9908   -0.0000 C   0  0  0  0  0  0  0  0  0  0  0  0
    3.5858    1.6042   -0.0000 C   0  0  0  0  0  0  0  0  0  0  0  0
   -4.4350   -2.8545   -0.0000 O   0  0  0  0  0  0  0  0  0  0  0  0
   -4.6356   -0.4364   -0.0000 C   0  0  0  0  0  0  0  0  0  0  0  0
    4.4233    0.3657   -0.0000 C   0  0  0  0  0  0  0  0  0  0  0  0
   -5.8977   -2.4888   -0.0000 N   0  0  0  0  0  0  0  0  0  0  0  0
   -6.0274   -1.0026   -0.0000 C   0  0  0  0  0  0  0  0  0  0  0  0
   -7.3131   -0.2123   -0.0000 C   0  0  0  0  0  0  0  0  0  0  0  0
   -7.2895    1.2975   -0.0000 C   0  0  0  0  0  0  0  0  0  0  0  0
   -8.6342   -0.9200   -0.0000 C   0  0  0  0  0  0  0  0  0  0  0  0
   -8.5752    2.0878   -0.0000 C   0  0  0  0  0  0  0  0  0  0  0  0
   -9.9199   -0.1297   -0.0000 C   0  0  0  0  0  0  0  0  0  0  0  0
   -9.9081    1.3801   -0.0000 C   0  0  0  0  0  0  0  0  0  0  0  0
  -11.1938    2.1703   -0.0000 O   0  0  0  0  0  0  0  0  0  0  0  0
  -11.1702    3.6801   -0.0000 C   0  0  0  0  0  0  0  0  0  0  0  0
  1  2  2  0  0  0  0
  1  3  2  0  0  0  0
  1  4  1  0  0  0  0
  1  5  1  0  0  0  0
  4  6  1  0  0  0  0
  5  7  2  0  0  0  0
  5  8  1  0  0  0  0
  6  9  1  0  0  0  0
  7 10  1  0  0  0  0
  8 11  2  0  0  0  0
  9 12  1  0  0  0  0
  9 13  2  0  0  0  0
 10 14  2  0  0  0  0
 12 15  1  0  0  0  0
 13 16  1  0  0  0  0
 16 17  1  0  0  0  0
 17 18  2  0  0  0  0
 17 19  1  0  0  0  0
 18 20  1  0  0  0  0
 19 21  2  0  0  0  0
 20 22  2  0  0  0  0
 22 23  1  0  0  0  0
 23 24  1  0  0  0  0
 11 14  1  0  0  0  0
 15 16  2  0  0  0  0
 21 22  1  0  0  0  0
M  END
>  <MolRegNo>
440322

>  <m>
=

>  <Value>
33000

>  <Unit>
nM

>  <Type>
IC50

>  <pValue>
4.48

>  <Ligand Efficiency>
0

>  <Binding Efficiency>
0

>  <Surface Efficiency>
0

>  <Assay Index>
322780

>  <Assay Category>


>  <Assay Organism>
Homo sapiens

>  <Target ID>
17045

>  <Target Name>
Cytochrome P450 3A4

>  <Target Organism>
Homo sapiens

>  <Target Description>
Target is a single protein chain

>  <Sequence Accession>
P08684

>  <Reference>
J Med Chem 51 (6), 1755-1763 (2008)

>  <Pubmed ID>
18311908

>  <DOI>
10.1021/jm701121y

$$$$
440321
Actelion Java MolfileCreator 1.0

 20 21  0  0  0  0  0  0  0  0999 V2000
    0.0000   -0.0000   -0.0000 Cl  0  0  0  0  0  0  0  0  0  0  0  0
    0.0000   -1.4864   -0.0000 C   0  0  0  0  0  0  0  0  0  0  0  0
   -1.2961   -2.2355   -0.0000 C   0  0  0  0  0  0  0  0  0  0  0  0
    1.2842   -2.2118   -0.0000 C   0  0  0  0  0  0  0  0  0  0  0  0
   -1.3199   -3.7219   -0.0000 C   0  0  0  0  0  0  0  0  0  0  0  0
   -2.6161   -1.4745   -0.0000 C   0  0  0  0  0  0  0  0  0  0  0  0
    1.2842   -3.7101   -0.0000 C   0  0  0  0  0  0  0  0  0  0  0  0
   -0.0357   -4.4592   -0.0000 C   0  0  0  0  0  0  0  0  0  0  0  0
   -3.9241   -2.2118   -0.0000 C   0  0  0  0  0  0  0  0  0  0  0  0
    2.5804   -4.4473   -0.0000 Cl  0  0  0  0  0  0  0  0  0  0  0  0
   -3.9360   -3.6982   -0.0000 C   0  0  0  0  0  0  0  0  0  0  0  0
   -5.2440   -1.4507   -0.0000 C   0  0  0  0  0  0  0  0  0  0  0  0
   -2.7231   -4.5781   -0.0000 O   0  0  0  0  0  0  0  0  0  0  0  0
   -5.1608   -4.5781   -0.0000 C   0  0  0  0  0  0  0  0  0  0  0  0
   -5.2559    0.0595   -0.0000 O   0  0  0  0  0  0  0  0  0  0  0  0
   -6.5520   -2.1880   -0.0000 O   0  0  0  0  0  0  0  0  0  0  0  0
   -3.1987   -5.9932   -0.0000 N   0  0  0  0  0  0  0  0  0  0  0  0
   -4.7089   -5.9932   -0.0000 C   0  0  0  0  0  0  0  0  0  0  0  0
   -7.8720   -1.4269   -0.0000 C   0  0  0  0  0  0  0  0  0  0  0  0
   -9.1800   -2.1642   -0.0000 C   0  0  0  0  0  0  0  0  0  0  0  0
  1  2  1  0  0  0  0
  2  3  2  0  0  0  0
  2  4  1  0  0  0  0
  3  5  1  0  0  0  0
  3  6  1  0  0  0  0
  4  7  2  0  0  0  0
  5  8  2  0  0  0  0
  6  9  1  0  0  0  0
  7 10  1  0  0  0  0
  9 11  1  0  0  0  0
  9 12  1  0  0  0  0
 11 13  1  0  0  0  0
 11 14  2  0  0  0  0
 12 15  2  0  0  0  0
 12 16  1  0  0  0  0
 13 17  1  0  0  0  0
 14 18  1  0  0  0  0
 16 19  1  0  0  0  0
 19 20  1  0  0  0  0
  7  8  1  0  0  0  0
 17 18  2  0  0  0  0
M  END
>  <MolRegNo>
440321

>  <m>
=

>  <Value>
12000

>  <Unit>
nM

>  <Type>
IC50

>  <pValue>
4.92

>  <Ligand Efficiency>
0

>  <Binding Efficiency>
0

>  <Surface Efficiency>
0

>  <Assay Index>
322780

>  <Assay Category>


>  <Assay Organism>
Homo sapiens

>  <Target ID>
17045

>  <Target Name>
Cytochrome P450 3A4

>  <Target Organism>
Homo sapiens

>  <Target Description>
Target is a single protein chain

>  <Sequence Accession>
P08684

>  <Reference>
J Med Chem 51 (6), 1755-1763 (2008)

>  <Pubmed ID>
18311908

>  <DOI>
10.1021/jm701121y

$$$$
440379
Actelion Java MolfileCreator 1.0

 23 25  0  0  0  0  0  0  0  0999 V2000
    0.0000   -0.0000   -0.0000 O   0  0  0  0  0  0  0  0  0  0  0  0
   -0.0119   -1.4877   -0.0000 C   0  0  0  0  0  0  0  0  0  0  0  0
   -1.3211   -2.2256   -0.0000 N   0  0  0  0  0  0  0  0  0  0  0  0
    1.2735   -2.2256   -0.0000 C   0  0  0  0  0  0  0  0  0  0  0  0
   -2.6303   -1.4639   -0.0000 C   0  0  0  0  0  0  0  0  0  0  0  0
    1.2497   -3.7133   -0.0000 C   0  0  0  0  0  0  0  0  0  0  0  0
    2.5470   -1.4520   -0.0000 C   0  0  0  0  0  0  0  0  0  0  0  0
   -3.9514   -2.2018   -0.0000 C   0  0  0  0  0  0  0  0  0  0  0  0
   -2.6422    0.0595   -0.0000 C   0  0  0  0  0  0  0  0  0  0  0  0
    2.5351   -4.4512   -0.0000 C   0  0  0  0  0  0  0  0  0  0  0  0
    3.8323   -2.1780   -0.0000 C   0  0  0  0  0  0  0  0  0  0  0  0
   -5.2605   -1.4401   -0.0000 C   0  0  0  0  0  0  0  0  0  0  0  0
   -3.9514    0.8212   -0.0000 C   0  0  0  0  0  0  0  0  0  0  0  0
    3.8204   -3.6895   -0.0000 C   0  0  0  0  0  0  0  0  0  0  0  0
   -5.2725    0.0833   -0.0000 C   0  0  0  0  0  0  0  0  0  0  0  0
    5.1058   -4.4274   -0.0000 N   0  0  0  0  0  0  0  0  0  0  0  0
   -6.5816    0.8450   -0.0000 O   0  0  0  0  0  0  0  0  0  0  0  0
    5.2605   -5.9032   -0.0000 N   0  0  0  0  0  0  0  0  0  0  0  0
    6.4626   -3.7966   -0.0000 C   0  0  0  0  0  0  0  0  0  0  0  0
   -7.8908    0.1071   -0.0000 C   0  0  0  0  0  0  0  0  0  0  0  0
    6.7126   -6.2008   -0.0000 N   0  0  0  0  0  0  0  0  0  0  0  0
    7.4624   -4.8916   -0.0000 N   0  0  0  0  0  0  0  0  0  0  0  0
   -9.2000    0.8688   -0.0000 C   0  0  0  0  0  0  0  0  0  0  0  0
  1  2  2  0  0  0  0
  2  3  1  0  0  0  0
  2  4  1  0  0  0  0
  3  5  1  0  0  0  0
  4  6  2  0  0  0  0
  4  7  1  0  0  0  0
  5  8  2  0  0  0  0
  5  9  1  0  0  0  0
  6 10  1  0  0  0  0
  7 11  2  0  0  0  0
  8 12  1  0  0  0  0
  9 13  2  0  0  0  0
 10 14  2  0  0  0  0
 12 15  2  0  0  0  0
 14 16  1  0  0  0  0
 15 17  1  0  0  0  0
 16 18  1  0  0  0  0
 16 19  1  0  0  0  0
 17 20  1  0  0  0  0
 18 21  2  0  0  0  0
 19 22  2  0  0  0  0
 20 23  1  0  0  0  0
 11 14  1  0  0  0  0
 13 15  1  0  0  0  0
 21 22  1  0  0  0  0
M  END
>  <MolRegNo>
440379

>  <m>
=

>  <Value>
34000

>  <Unit>
nM

>  <Type>
IC50

>  <pValue>
4.47

>  <Ligand Efficiency>
0

>  <Binding Efficiency>
0

>  <Surface Efficiency>
0

>  <Assay Index>
322780

>  <Assay Category>


>  <Assay Organism>
Homo sapiens

>  <Target ID>
17045

>  <Target Name>
Cytochrome P450 3A4

>  <Target Organism>
Homo sapiens

>  <Target Description>
Target is a single protein chain

>  <Sequence Accession>
P08684

>  <Reference>
J Med Chem 51 (6), 1755-1763 (2008)

>  <Pubmed ID>
18311908

>  <DOI>
10.1021/jm701121y

$$$$
440415
Actelion Java MolfileCreator 1.0

 23 25  0  0  0  0  0  0  0  0999 V2000
    0.0000   -0.0000   -0.0000 S   0  0  0  0  0  0  0  0  0  0  0  0
   -1.4407    0.4842   -0.0000 C   0  0  0  0  0  0  0  0  0  0  0  0
    1.0983    1.0156   -0.0000 C   0  0  0  0  0  0  0  0  0  0  0  0
   -1.9249    1.9249   -0.0000 N   0  0  0  0  0  0  0  0  0  0  0  0
   -2.6689   -0.3897   -0.0000 N   0  0  0  0  0  0  0  0  0  0  0  0
    2.5154    0.5668   -0.0000 C   0  0  0  0  0  0  0  0  0  0  0  0
   -3.4365    1.9367   -0.0000 N   0  0  0  0  0  0  0  0  0  0  0  0
   -3.8852    0.5078   -0.0000 C   0  0  0  0  0  0  0  0  0  0  0  0
   -2.6807   -1.8777   -0.0000 C   0  0  0  0  0  0  0  0  0  0  0  0
    2.8224   -0.8975   -0.0000 C   0  0  0  0  0  0  0  0  0  0  0  0
    3.6136    1.5706   -0.0000 C   0  0  0  0  0  0  0  0  0  0  0  0
   -5.3259    0.0472   -0.0000 C   0  0  0  0  0  0  0  0  0  0  0  0
   -1.3935   -2.6216   -0.0000 C   0  0  0  0  0  0  0  0  0  0  0  0
    4.2395   -1.3462   -0.0000 C   0  0  0  0  0  0  0  0  0  0  0  0
    5.0307    1.1219   -0.0000 C   0  0  0  0  0  0  0  0  0  0  0  0
   -6.4478    1.0628   -0.0000 C   0  0  0  0  0  0  0  0  0  0  0  0
   -5.6566   -1.4053   -0.0000 C   0  0  0  0  0  0  0  0  0  0  0  0
    5.3378   -0.3425   -0.0000 C   0  0  0  0  0  0  0  0  0  0  0  0
   -7.8885    0.6141   -0.0000 C   0  0  0  0  0  0  0  0  0  0  0  0
   -7.0973   -1.8659   -0.0000 C   0  0  0  0  0  0  0  0  0  0  0  0
    6.7549   -0.7912   -0.0000 O   0  0  0  0  0  0  0  0  0  0  0  0
   -8.2192   -0.8503   -0.0000 N   0  0  0  0  0  0  0  0  0  0  0  0
    7.8531    0.2244   -0.0000 C   0  0  0  0  0  0  0  0  0  0  0  0
  1  2  1  0  0  0  0
  1  3  1  0  0  0  0
  2  4  2  0  0  0  0
  2  5  1  0  0  0  0
  3  6  1  0  0  0  0
  4  7  1  0  0  0  0
  5  8  1  0  0  0  0
  5  9  1  0  0  0  0
  6 10  2  0  0  0  0
  6 11  1  0  0  0  0
  8 12  1  0  0  0  0
  9 13  1  0  0  0  0
 10 14  1  0  0  0  0
 11 15  2  0  0  0  0
 12 16  2  0  0  0  0
 12 17  1  0  0  0  0
 14 18  2  0  0  0  0
 16 19  1  0  0  0  0
 17 20  2  0  0  0  0
 18 21  1  0  0  0  0
 19 22  2  0  0  0  0
 21 23  1  0  0  0  0
  7  8  2  0  0  0  0
 15 18  1  0  0  0  0
 20 22  1  0  0  0  0
M  END
>  <MolRegNo>
440415

>  <m>
=

>  <Value>
28000

>  <Unit>
nM

>  <Type>
IC50

>  <pValue>
4.55

>  <Ligand Efficiency>
0

>  <Binding Efficiency>
0

>  <Surface Efficiency>
0

>  <Assay Index>
322780

>  <Assay Category>


>  <Assay Organism>
Homo sapiens

>  <Target ID>
17045

>  <Target Name>
Cytochrome P450 3A4

>  <Target Organism>
Homo sapiens

>  <Target Description>
Target is a single protein chain

>  <Sequence Accession>
P08684

>  <Reference>
J Med Chem 51 (6), 1755-1763 (2008)

>  <Pubmed ID>
18311908

>  <DOI>
10.1021/jm701121y

$$$$
440652
Actelion Java MolfileCreator 1.0

 34 38  0  0  0  0  0  0  0  0999 V2000
    0.0000   -0.0000   -0.0000 O   0  0  0  0  0  0  0  0  0  0  0  0
    1.2961   -0.7253   -0.0000 C   0  0  0  0  0  0  0  0  0  0  0  0
    2.5802    0.0476   -0.0000 N   0  0  0  0  0  0  0  0  0  0  0  0
    1.2961   -2.2116   -0.0000 C   0  0  0  0  0  0  0  0  0  0  0  0
    2.5565    1.5577   -0.0000 C   0  0  0  0  0  0  0  0  0  0  0  0
   -0.0119   -2.9488   -0.0000 C   0  0  0  0  0  0  0  0  0  0  0  0
    2.5921   -2.9369   -0.0000 C   0  0  0  0  0  0  0  0  0  0  0  0
    3.7455    2.4494   -0.0000 O   0  0  0  0  0  0  0  0  0  0  0  0
    1.3198    2.4375   -0.0000 C   0  0  0  0  0  0  0  0  0  0  0  0
   -0.0238   -4.4470   -0.0000 C   0  0  0  0  0  0  0  0  0  0  0  0
   -1.3317   -2.1878   -0.0000 C   0  0  0  0  0  0  0  0  0  0  0  0
    2.5921   -4.4351   -0.0000 C   0  0  0  0  0  0  0  0  0  0  0  0
    3.2580    3.8882   -0.0000 N   0  0  0  0  0  0  0  0  0  0  0  0
    1.7598    3.8763   -0.0000 C   0  0  0  0  0  0  0  0  0  0  0  0
   -1.3436   -5.1961   -0.0000 C   0  0  0  0  0  0  0  0  0  0  0  0
    1.2604   -5.1842   -0.0000 C   0  0  0  0  0  0  0  0  0  0  0  0
   -2.6397   -2.9251   -0.0000 C   0  0  0  0  0  0  0  0  0  0  0  0
    0.8561    5.1010   -0.0000 C   0  0  0  0  0  0  0  0  0  0  0  0
   -2.6516   -4.4351   -0.0000 C   0  0  0  0  0  0  0  0  0  0  0  0
   -3.9595   -5.1724   -0.0000 O   0  0  0  0  0  0  0  0  0  0  0  0
   -3.9714   -6.6587   -0.0000 C   0  0  0  0  0  0  0  0  0  0  0  0
   -5.2794   -7.3959   -0.0000 C   0  0  0  0  0  0  0  0  0  0  0  0
   -2.6872   -7.3840   -0.0000 C   0  0  0  0  0  0  0  0  0  0  0  0
   -5.3032   -8.8703   -0.0000 C   0  0  0  0  0  0  0  0  0  0  0  0
   -6.5754   -6.6349   -0.0000 C   0  0  0  0  0  0  0  0  0  0  0  0
   -2.6991   -8.8703   -0.0000 C   0  0  0  0  0  0  0  0  0  0  0  0
   -4.0190   -9.6075   -0.0000 N   0  0  0  0  0  0  0  0  0  0  0  0
   -6.5992   -9.5956   -0.0000 C   0  0  0  0  0  0  0  0  0  0  0  0
   -7.8834   -7.3602   -0.0000 C   0  0  0  0  0  0  0  0  0  0  0  0
   -7.8953   -8.8465   -0.0000 C   0  0  0  0  0  0  0  0  0  0  0  0
   -9.1913   -6.5992   -0.0000 O   0  0  0  0  0  0  0  0  0  0  0  0
   -9.2032   -9.5837   -0.0000 O   0  0  0  0  0  0  0  0  0  0  0  0
  -10.4993   -7.3364   -0.0000 C   0  0  0  0  0  0  0  0  0  0  0  0
  -10.5112   -8.8227   -0.0000 C   0  0  0  0  0  0  0  0  0  0  0  0
  1  2  2  0  0  0  0
  2  3  1  0  0  0  0
  2  4  1  0  0  0  0
  3  5  1  0  0  0  0
  4  6  1  0  0  0  0
  4  7  2  0  0  0  0
  5  8  1  0  0  0  0
  5  9  2  0  0  0  0
  6 10  1  0  0  0  0
  6 11  2  0  0  0  0
  7 12  1  0  0  0  0
  8 13  1  0  0  0  0
  9 14  1  0  0  0  0
 10 15  2  0  0  0  0
 10 16  1  0  0  0  0
 11 17  1  0  0  0  0
 14 18  1  0  0  0  0
 15 19  1  0  0  0  0
 19 20  1  0  0  0  0
 20 21  1  0  0  0  0
 21 22  1  0  0  0  0
 21 23  2  0  0  0  0
 22 24  1  0  0  0  0
 22 25  2  0  0  0  0
 23 26  1  0  0  0  0
 24 27  1  0  0  0  0
 24 28  2  0  0  0  0
 25 29  1  0  0  0  0
 28 30  1  0  0  0  0
 29 31  1  0  0  0  0
 30 32  1  0  0  0  0
 31 33  1  0  0  0  0
 32 34  1  0  0  0  0
 12 16  2  0  0  0  0
 13 14  2  0  0  0  0
 17 19  2  0  0  0  0
 26 27  2  0  0  0  0
 29 30  2  0  0  0  0
M  END
>  <MolRegNo>
440652

>  <m>
=

>  <Value>
40000

>  <Unit>
nM

>  <Type>
IC50

>  <pValue>
4.4

>  <Ligand Efficiency>
0

>  <Binding Efficiency>
0

>  <Surface Efficiency>
0

>  <Assay Index>
323725

>  <Assay Category>


>  <Assay Organism>


>  <Target ID>
17045

>  <Target Name>
Cytochrome P450 3A4

>  <Target Organism>
Homo sapiens

>  <Target Description>
Target is a single protein chain

>  <Sequence Accession>
P08684

>  <Reference>
J Med Chem 51 (6), 1649-1667 (2008)

>  <Pubmed ID>
18324761

>  <DOI>
10.1021/jm701097z

$$$$
440741
Actelion Java MolfileCreator 1.0

 34 38  0  0  0  0  0  0  0  0999 V2000
    0.0000   -0.0000   -0.0000 O   0  0  0  0  0  0  0  0  0  0  0  0
    1.2964   -0.7255   -0.0000 C   0  0  0  0  0  0  0  0  0  0  0  0
    2.5809    0.0476   -0.0000 N   0  0  0  0  0  0  0  0  0  0  0  0
    1.2964   -2.2122   -0.0000 C   0  0  0  0  0  0  0  0  0  0  0  0
    2.5571    1.5581   -0.0000 C   0  0  0  0  0  0  0  0  0  0  0  0
   -0.0119   -2.9496   -0.0000 C   0  0  0  0  0  0  0  0  0  0  0  0
    2.5928   -2.9377   -0.0000 C   0  0  0  0  0  0  0  0  0  0  0  0
    3.8416    2.3192   -0.0000 C   0  0  0  0  0  0  0  0  0  0  0  0
    1.2488    2.2955   -0.0000 C   0  0  0  0  0  0  0  0  0  0  0  0
   -0.0238   -4.4482   -0.0000 C   0  0  0  0  0  0  0  0  0  0  0  0
   -1.3321   -2.1884   -0.0000 C   0  0  0  0  0  0  0  0  0  0  0  0
    2.5928   -4.4363   -0.0000 C   0  0  0  0  0  0  0  0  0  0  0  0
    3.8178    3.8297   -0.0000 C   0  0  0  0  0  0  0  0  0  0  0  0
    1.2250    3.8059   -0.0000 C   0  0  0  0  0  0  0  0  0  0  0  0
   -1.3440   -5.1975   -0.0000 C   0  0  0  0  0  0  0  0  0  0  0  0
    1.2607   -5.1856   -0.0000 C   0  0  0  0  0  0  0  0  0  0  0  0
   -2.6404   -2.9258   -0.0000 C   0  0  0  0  0  0  0  0  0  0  0  0
    2.4977    4.5909   -0.0000 N   0  0  0  0  0  0  0  0  0  0  0  0
   -2.6523   -4.4363   -0.0000 C   0  0  0  0  0  0  0  0  0  0  0  0
   -3.9606   -5.1737   -0.0000 O   0  0  0  0  0  0  0  0  0  0  0  0
   -3.9725   -6.6604   -0.0000 C   0  0  0  0  0  0  0  0  0  0  0  0
   -5.2807   -7.3978   -0.0000 C   0  0  0  0  0  0  0  0  0  0  0  0
   -2.6879   -7.3859   -0.0000 C   0  0  0  0  0  0  0  0  0  0  0  0
   -5.3045   -8.8726   -0.0000 C   0  0  0  0  0  0  0  0  0  0  0  0
   -6.5771   -6.6366   -0.0000 C   0  0  0  0  0  0  0  0  0  0  0  0
   -2.6998   -8.8726   -0.0000 C   0  0  0  0  0  0  0  0  0  0  0  0
   -4.0200   -9.6100   -0.0000 N   0  0  0  0  0  0  0  0  0  0  0  0
   -6.6009   -9.5981   -0.0000 C   0  0  0  0  0  0  0  0  0  0  0  0
   -7.8854   -7.3621   -0.0000 C   0  0  0  0  0  0  0  0  0  0  0  0
   -7.8973   -8.8488   -0.0000 C   0  0  0  0  0  0  0  0  0  0  0  0
   -9.1937   -6.6009   -0.0000 O   0  0  0  0  0  0  0  0  0  0  0  0
   -9.2056   -9.5862   -0.0000 O   0  0  0  0  0  0  0  0  0  0  0  0
  -10.5020   -7.3383   -0.0000 C   0  0  0  0  0  0  0  0  0  0  0  0
  -10.5139   -8.8250   -0.0000 C   0  0  0  0  0  0  0  0  0  0  0  0
  1  2  2  0  0  0  0
  2  3  1  0  0  0  0
  2  4  1  0  0  0  0
  3  5  1  0  0  0  0
  4  6  1  0  0  0  0
  4  7  2  0  0  0  0
  5  8  2  0  0  0  0
  5  9  1  0  0  0  0
  6 10  1  0  0  0  0
  6 11  2  0  0  0  0
  7 12  1  0  0  0  0
  8 13  1  0  0  0  0
  9 14  2  0  0  0  0
 10 15  2  0  0  0  0
 10 16  1  0  0  0  0
 11 17  1  0  0  0  0
 13 18  2  0  0  0  0
 15 19  1  0  0  0  0
 19 20  1  0  0  0  0
 20 21  1  0  0  0  0
 21 22  1  0  0  0  0
 21 23  2  0  0  0  0
 22 24  1  0  0  0  0
 22 25  2  0  0  0  0
 23 26  1  0  0  0  0
 24 27  1  0  0  0  0
 24 28  2  0  0  0  0
 25 29  1  0  0  0  0
 28 30  1  0  0  0  0
 29 31  1  0  0  0  0
 30 32  1  0  0  0  0
 31 33  1  0  0  0  0
 32 34  1  0  0  0  0
 12 16  2  0  0  0  0
 14 18  1  0  0  0  0
 17 19  2  0  0  0  0
 26 27  2  0  0  0  0
 29 30  2  0  0  0  0
M  END
>  <MolRegNo>
440741

>  <m>
=

>  <Value>
100

>  <Unit>
nM

>  <Type>
IC50

>  <pValue>
7

>  <Ligand Efficiency>
0

>  <Binding Efficiency>
0

>  <Surface Efficiency>
0

>  <Assay Index>
323725

>  <Assay Category>


>  <Assay Organism>


>  <Target ID>
17045

>  <Target Name>
Cytochrome P450 3A4

>  <Target Organism>
Homo sapiens

>  <Target Description>
Target is a single protein chain

>  <Sequence Accession>
P08684

>  <Reference>
J Med Chem 51 (6), 1649-1667 (2008)

>  <Pubmed ID>
18324761

>  <DOI>
10.1021/jm701097z

$$$$
440778
Actelion Java MolfileCreator 1.0

 34 38  0  0  0  0  0  0  0  0999 V2000
    0.0000   -0.0000   -0.0000 O   0  0  0  0  0  0  0  0  0  0  0  0
    1.2966   -0.7256   -0.0000 C   0  0  0  0  0  0  0  0  0  0  0  0
    2.5814    0.0476   -0.0000 N   0  0  0  0  0  0  0  0  0  0  0  0
    1.2966   -2.2126   -0.0000 C   0  0  0  0  0  0  0  0  0  0  0  0
    2.5576    1.5583   -0.0000 C   0  0  0  0  0  0  0  0  0  0  0  0
   -0.0119   -2.9502   -0.0000 C   0  0  0  0  0  0  0  0  0  0  0  0
    2.5933   -2.9383   -0.0000 C   0  0  0  0  0  0  0  0  0  0  0  0
    3.8423    2.3197   -0.0000 C   0  0  0  0  0  0  0  0  0  0  0  0
    1.2491    2.2959   -0.0000 C   0  0  0  0  0  0  0  0  0  0  0  0
   -0.0238   -4.4490   -0.0000 C   0  0  0  0  0  0  0  0  0  0  0  0
   -1.3323   -2.1888   -0.0000 C   0  0  0  0  0  0  0  0  0  0  0  0
    2.5933   -4.4371   -0.0000 C   0  0  0  0  0  0  0  0  0  0  0  0
    3.8185    3.8304   -0.0000 N   0  0  0  0  0  0  0  0  0  0  0  0
    1.2253    3.8066   -0.0000 C   0  0  0  0  0  0  0  0  0  0  0  0
   -1.3442   -5.1985   -0.0000 C   0  0  0  0  0  0  0  0  0  0  0  0
    1.2610   -5.1866   -0.0000 C   0  0  0  0  0  0  0  0  0  0  0  0
   -2.6409   -2.9264   -0.0000 C   0  0  0  0  0  0  0  0  0  0  0  0
    2.4981    4.5918   -0.0000 C   0  0  0  0  0  0  0  0  0  0  0  0
   -2.6528   -4.4371   -0.0000 C   0  0  0  0  0  0  0  0  0  0  0  0
   -3.9613   -5.1747   -0.0000 O   0  0  0  0  0  0  0  0  0  0  0  0
   -3.9732   -6.6616   -0.0000 C   0  0  0  0  0  0  0  0  0  0  0  0
   -5.2817   -7.3992   -0.0000 C   0  0  0  0  0  0  0  0  0  0  0  0
   -2.6884   -7.3873   -0.0000 C   0  0  0  0  0  0  0  0  0  0  0  0
   -5.2936   -8.8742   -0.0000 C   0  0  0  0  0  0  0  0  0  0  0  0
   -6.5784   -6.6378   -0.0000 C   0  0  0  0  0  0  0  0  0  0  0  0
   -2.7003   -8.8742   -0.0000 C   0  0  0  0  0  0  0  0  0  0  0  0
   -4.0089   -9.6118   -0.0000 N   0  0  0  0  0  0  0  0  0  0  0  0
   -6.5903   -9.5999   -0.0000 C   0  0  0  0  0  0  0  0  0  0  0  0
   -7.8869   -7.3635   -0.0000 C   0  0  0  0  0  0  0  0  0  0  0  0
   -7.8869   -8.8505   -0.0000 C   0  0  0  0  0  0  0  0  0  0  0  0
   -9.1954   -6.6022   -0.0000 O   0  0  0  0  0  0  0  0  0  0  0  0
   -9.1954   -9.5880   -0.0000 O   0  0  0  0  0  0  0  0  0  0  0  0
  -10.5040   -7.3397   -0.0000 C   0  0  0  0  0  0  0  0  0  0  0  0
  -10.5040   -8.8267   -0.0000 C   0  0  0  0  0  0  0  0  0  0  0  0
  1  2  2  0  0  0  0
  2  3  1  0  0  0  0
  2  4  1  0  0  0  0
  3  5  1  0  0  0  0
  4  6  1  0  0  0  0
  4  7  2  0  0  0  0
  5  8  2  0  0  0  0
  5  9  1  0  0  0  0
  6 10  1  0  0  0  0
  6 11  2  0  0  0  0
  7 12  1  0  0  0  0
  8 13  1  0  0  0  0
  9 14  2  0  0  0  0
 10 15  2  0  0  0  0
 10 16  1  0  0  0  0
 11 17  1  0  0  0  0
 13 18  2  0  0  0  0
 15 19  1  0  0  0  0
 19 20  1  0  0  0  0
 20 21  1  0  0  0  0
 21 22  1  0  0  0  0
 21 23  2  0  0  0  0
 22 24  1  0  0  0  0
 22 25  2  0  0  0  0
 23 26  1  0  0  0  0
 24 27  1  0  0  0  0
 24 28  2  0  0  0  0
 25 29  1  0  0  0  0
 28 30  1  0  0  0  0
 29 31  1  0  0  0  0
 30 32  1  0  0  0  0
 31 33  1  0  0  0  0
 32 34  1  0  0  0  0
 12 16  2  0  0  0  0
 14 18  1  0  0  0  0
 17 19  2  0  0  0  0
 26 27  2  0  0  0  0
 29 30  2  0  0  0  0
M  END
>  <MolRegNo>
440778

>  <m>
=

>  <Value>
2000

>  <Unit>
nM

>  <Type>
IC50

>  <pValue>
5.7

>  <Ligand Efficiency>
0

>  <Binding Efficiency>
0

>  <Surface Efficiency>
0

>  <Assay Index>
323725

>  <Assay Category>


>  <Assay Organism>


>  <Target ID>
17045

>  <Target Name>
Cytochrome P450 3A4

>  <Target Organism>
Homo sapiens

>  <Target Description>
Target is a single protein chain

>  <Sequence Accession>
P08684

>  <Reference>
J Med Chem 51 (6), 1649-1667 (2008)

>  <Pubmed ID>
18324761

>  <DOI>
10.1021/jm701097z

$$$$
440816
Actelion Java MolfileCreator 1.0

 34 38  0  0  0  0  0  0  0  0999 V2000
    0.0000   -0.0000   -0.0000 O   0  0  0  0  0  0  0  0  0  0  0  0
    1.2966   -0.7256   -0.0000 C   0  0  0  0  0  0  0  0  0  0  0  0
    2.5814    0.0476   -0.0000 N   0  0  0  0  0  0  0  0  0  0  0  0
    1.2966   -2.2126   -0.0000 C   0  0  0  0  0  0  0  0  0  0  0  0
    2.5576    1.5583   -0.0000 C   0  0  0  0  0  0  0  0  0  0  0  0
   -0.0119   -2.9502   -0.0000 C   0  0  0  0  0  0  0  0  0  0  0  0
    2.5933   -2.9383   -0.0000 C   0  0  0  0  0  0  0  0  0  0  0  0
    3.8423    2.3197   -0.0000 N   0  0  0  0  0  0  0  0  0  0  0  0
    1.2491    2.2959   -0.0000 C   0  0  0  0  0  0  0  0  0  0  0  0
   -0.0238   -4.4490   -0.0000 C   0  0  0  0  0  0  0  0  0  0  0  0
   -1.3323   -2.1888   -0.0000 C   0  0  0  0  0  0  0  0  0  0  0  0
    2.5933   -4.4371   -0.0000 C   0  0  0  0  0  0  0  0  0  0  0  0
    3.8185    3.8304   -0.0000 C   0  0  0  0  0  0  0  0  0  0  0  0
    1.2253    3.8066   -0.0000 C   0  0  0  0  0  0  0  0  0  0  0  0
   -1.3442   -5.1985   -0.0000 C   0  0  0  0  0  0  0  0  0  0  0  0
    1.2610   -5.1866   -0.0000 C   0  0  0  0  0  0  0  0  0  0  0  0
   -2.6409   -2.9264   -0.0000 C   0  0  0  0  0  0  0  0  0  0  0  0
    2.4981    4.5918   -0.0000 C   0  0  0  0  0  0  0  0  0  0  0  0
   -2.6528   -4.4371   -0.0000 C   0  0  0  0  0  0  0  0  0  0  0  0
   -3.9613   -5.1747   -0.0000 O   0  0  0  0  0  0  0  0  0  0  0  0
   -3.9732   -6.6616   -0.0000 C   0  0  0  0  0  0  0  0  0  0  0  0
   -5.2817   -7.3992   -0.0000 C   0  0  0  0  0  0  0  0  0  0  0  0
   -2.6884   -7.3873   -0.0000 C   0  0  0  0  0  0  0  0  0  0  0  0
   -5.2936   -8.8742   -0.0000 C   0  0  0  0  0  0  0  0  0  0  0  0
   -6.5784   -6.6378   -0.0000 C   0  0  0  0  0  0  0  0  0  0  0  0
   -2.7003   -8.8742   -0.0000 C   0  0  0  0  0  0  0  0  0  0  0  0
   -4.0089   -9.6118   -0.0000 N   0  0  0  0  0  0  0  0  0  0  0  0
   -6.5903   -9.5999   -0.0000 C   0  0  0  0  0  0  0  0  0  0  0  0
   -7.8869   -7.3635   -0.0000 C   0  0  0  0  0  0  0  0  0  0  0  0
   -7.8869   -8.8505   -0.0000 C   0  0  0  0  0  0  0  0  0  0  0  0
   -9.1954   -6.6022   -0.0000 O   0  0  0  0  0  0  0  0  0  0  0  0
   -9.1954   -9.5880   -0.0000 O   0  0  0  0  0  0  0  0  0  0  0  0
  -10.5040   -7.3397   -0.0000 C   0  0  0  0  0  0  0  0  0  0  0  0
  -10.5040   -8.8267   -0.0000 C   0  0  0  0  0  0  0  0  0  0  0  0
  1  2  2  0  0  0  0
  2  3  1  0  0  0  0
  2  4  1  0  0  0  0
  3  5  1  0  0  0  0
  4  6  1  0  0  0  0
  4  7  2  0  0  0  0
  5  8  2  0  0  0  0
  5  9  1  0  0  0  0
  6 10  1  0  0  0  0
  6 11  2  0  0  0  0
  7 12  1  0  0  0  0
  8 13  1  0  0  0  0
  9 14  2  0  0  0  0
 10 15  2  0  0  0  0
 10 16  1  0  0  0  0
 11 17  1  0  0  0  0
 13 18  2  0  0  0  0
 15 19  1  0  0  0  0
 19 20  1  0  0  0  0
 20 21  1  0  0  0  0
 21 22  1  0  0  0  0
 21 23  2  0  0  0  0
 22 24  1  0  0  0  0
 22 25  2  0  0  0  0
 23 26  1  0  0  0  0
 24 27  1  0  0  0  0
 24 28  2  0  0  0  0
 25 29  1  0  0  0  0
 28 30  1  0  0  0  0
 29 31  1  0  0  0  0
 30 32  1  0  0  0  0
 31 33  1  0  0  0  0
 32 34  1  0  0  0  0
 12 16  2  0  0  0  0
 14 18  1  0  0  0  0
 17 19  2  0  0  0  0
 26 27  2  0  0  0  0
 29 30  2  0  0  0  0
M  END
>  <MolRegNo>
440816

>  <m>
=

>  <Value>
13000

>  <Unit>
nM

>  <Type>
IC50

>  <pValue>
4.89

>  <Ligand Efficiency>
0

>  <Binding Efficiency>
0

>  <Surface Efficiency>
0

>  <Assay Index>
323725

>  <Assay Category>


>  <Assay Organism>


>  <Target ID>
17045

>  <Target Name>
Cytochrome P450 3A4

>  <Target Organism>
Homo sapiens

>  <Target Description>
Target is a single protein chain

>  <Sequence Accession>
P08684

>  <Reference>
J Med Chem 51 (6), 1649-1667 (2008)

>  <Pubmed ID>
18324761

>  <DOI>
10.1021/jm701097z

$$$$
431446
Actelion Java MolfileCreator 1.0

 30 35  0  0  0  0  0  0  0  0999 V2000
    0.0000   -0.0000   -0.0000 N   0  0  0  0  0  0  0  0  0  0  0  0
   -1.5099    0.0238   -0.0000 C   0  0  0  0  0  0  0  0  0  0  0  0
    0.7490    1.3078   -0.0000 C   0  0  0  0  0  0  0  0  0  0  0  0
   -2.2708    1.3434   -0.0000 C   0  0  0  0  0  0  0  0  0  0  0  0
   -2.2827   -1.2483   -0.0000 C   0  0  0  0  0  0  0  0  0  0  0  0
    2.2351    1.3078   -0.0000 C   0  0  0  0  0  0  0  0  0  0  0  0
   -0.0238    2.6156   -0.0000 C   0  0  0  0  0  0  0  0  0  0  0  0
   -1.5456    2.6512   -0.0000 C   0  0  0  0  0  0  0  0  0  0  0  0
   -3.7926    1.3553   -0.0000 C   0  0  0  0  0  0  0  0  0  0  0  0
   -3.7926   -1.2246   -0.0000 C   0  0  0  0  0  0  0  0  0  0  0  0
    2.9722    0.0238   -0.0000 C   0  0  0  0  0  0  0  0  0  0  0  0
    2.9722    2.6156   -0.0000 C   0  0  0  0  0  0  0  0  0  0  0  0
   -4.5534    0.0713   -0.0000 C   0  0  0  0  0  0  0  0  0  0  0  0
   -4.5653   -2.4967   -0.0000 C   0  0  0  0  0  0  0  0  0  0  0  0
    4.4583    0.0357   -0.0000 C   0  0  0  0  0  0  0  0  0  0  0  0
    4.4583    2.6274   -0.0000 C   0  0  0  0  0  0  0  0  0  0  0  0
   -3.6856   -3.7093   -0.0000 N   0  0  0  0  0  0  0  0  0  0  0  0
   -6.0158   -2.9484   -0.0000 C   0  0  0  0  0  0  0  0  0  0  0  0
    5.1954    1.3434   -0.0000 C   0  0  0  0  0  0  0  0  0  0  0  0
   -4.5891   -4.9220   -0.0000 C   0  0  0  0  0  0  0  0  0  0  0  0
   -6.0277   -4.4464   -0.0000 N   0  0  0  0  0  0  0  0  0  0  0  0
   -7.3354   -2.1994   -0.0000 C   0  0  0  0  0  0  0  0  0  0  0  0
   -4.1373   -6.3368   -0.0000 C   0  0  0  0  0  0  0  0  0  0  0  0
   -7.3354   -5.1836   -0.0000 C   0  0  0  0  0  0  0  0  0  0  0  0
   -8.6313   -2.9366   -0.0000 N   0  0  0  0  0  0  0  0  0  0  0  0
   -7.3592   -0.6896   -0.0000 N   0  0  0  0  0  0  0  0  0  0  0  0
   -4.8269   -7.6564   -0.0000 C   0  0  0  0  0  0  0  0  0  0  0  0
   -2.8058   -7.0025   -0.0000 C   0  0  0  0  0  0  0  0  0  0  0  0
   -8.6432   -4.4227   -0.0000 C   0  0  0  0  0  0  0  0  0  0  0  0
   -3.5072   -8.3222   -0.0000 C   0  0  0  0  0  0  0  0  0  0  0  0
  1  2  1  0  0  0  0
  1  3  2  0  0  0  0
  2  4  1  0  0  0  0
  2  5  2  0  0  0  0
  3  6  1  0  0  0  0
  3  7  1  0  0  0  0
  4  8  1  0  0  0  0
  4  9  2  0  0  0  0
  5 10  1  0  0  0  0
  6 11  2  0  0  0  0
  6 12  1  0  0  0  0
  9 13  1  0  0  0  0
 10 14  1  0  0  0  0
 11 15  1  0  0  0  0
 12 16  2  0  0  0  0
 14 17  1  0  0  0  0
 14 18  2  0  0  0  0
 15 19  2  0  0  0  0
 17 20  2  0  0  0  0
 18 21  1  0  0  0  0
 18 22  1  0  0  0  0
 20 23  1  0  0  0  0
 21 24  1  0  0  0  0
 22 25  2  0  0  0  0
 22 26  1  0  0  0  0
 23 27  1  0  0  0  0
 23 28  1  0  0  0  0
 24 29  2  0  0  0  0
 27 30  1  0  0  0  0
  7  8  2  0  0  0  0
 10 13  2  0  0  0  0
 16 19  1  0  0  0  0
 20 21  1  0  0  0  0
 25 29  1  0  0  0  0
 28 30  1  0  0  0  0
M  END
>  <MolRegNo>
431446

>  <m>
=

>  <Value>
3400

>  <Unit>
nM

>  <Type>
IC50

>  <pValue>
5.47

>  <Ligand Efficiency>
0

>  <Binding Efficiency>
0

>  <Surface Efficiency>
0

>  <Assay Index>
319965

>  <Assay Category>


>  <Assay Organism>


>  <Target ID>
17045

>  <Target Name>
Cytochrome P450 3A4

>  <Target Organism>
Homo sapiens

>  <Target Description>
Target is a single protein chain

>  <Sequence Accession>
P08684

>  <Reference>
Bioorg Med Chem 16 (3), 1359-1375 (2008)

>  <Pubmed ID>
17983756

>  <DOI>
10.1016/j.bmc.2007.10.061

$$$$
431701
Actelion Java MolfileCreator 1.0

 36 42  0  0  1  0  0  0  0  0999 V2000
    0.0000   -0.0000   -0.0000 O   0  0  0  0  0  0  0  0  0  0  0  0
   -1.4947    0.1661   -0.0000 C   0  0  0  0  0  0  0  0  0  0  0  0
    0.8541    1.2218   -0.0000 C   0  0  0  0  0  0  0  0  0  0  0  0
   -2.1234    1.5303   -0.0000 C   0  0  0  0  0  0  0  0  0  0  0  0
    0.2254    2.5979   -0.0000 C   0  0  0  0  0  0  0  0  0  0  0  0
   -1.2693    2.7521   -0.0000 N   0  0  0  0  0  0  0  0  0  0  0  0
   -1.7438    4.1756   -0.0000 C   0  0  0  0  0  0  0  0  0  0  0  0
   -1.0795    5.5161   -0.0000 C   0  0  0  0  0  0  0  0  0  0  0  0
   -3.0843    4.8636   -0.0000 C   0  0  0  0  0  0  0  0  0  0  0  0
   -2.4318    6.2041   -0.0000 C   0  0  0  0  0  0  0  0  0  0  0  0
   -2.9063    7.6395   -0.0000 C   0  0  0  0  0  0  0  0  0  0  0  0
   -2.0285    8.8732   -0.0000 N   0  0  0  0  0  0  0  0  0  0  0  0
   -4.3535    8.1140   -0.0000 N   0  0  0  0  0  0  0  0  0  0  0  0
   -2.9300   10.1069   -0.0000 C   0  0  0  0  0  0  0  0  0  0  0  0
   -4.3654    9.6324   -0.0000 C   0  0  0  0  0  0  0  0  0  0  0  0
   -5.6584    7.3785   -0.0000 C   0  0  0  0  0  0  0  0  0  0  0  0
   -2.1946   11.3999   -0.0000 C   0  0  0  0  0  0  0  0  0  0  0  0
   -5.6822   10.3797   -0.0000 C   0  0  0  0  0  0  0  0  0  0  0  0
   -6.9633    8.1377   -0.0000 C   0  0  0  0  0  0  0  0  0  0  0  0
   -0.7118   11.3999   -0.0000 C   0  0  0  0  0  0  0  0  0  0  0  0
   -2.9419   12.7048   -0.0000 C   0  0  0  0  0  0  0  0  0  0  0  0
   -6.9752    9.6442   -0.0000 N   0  0  0  0  0  0  0  0  0  0  0  0
   -5.7059   11.8863   -0.0000 N   0  0  0  0  0  0  0  0  0  0  0  0
    0.0356   12.6929   -0.0000 C   0  0  0  0  0  0  0  0  0  0  0  0
   -2.2064   14.0096   -0.0000 C   0  0  0  0  0  0  0  0  0  0  0  0
    1.5184   12.6929   -0.0000 N   0  0  0  0  0  0  0  0  0  0  0  0
   -0.7236   14.0096   -0.0000 C   0  0  0  0  0  0  0  0  0  0  0  0
    2.2657   13.9978   -0.0000 C   0  0  0  0  0  0  0  0  0  0  0  0
    0.0000   15.3145   -0.0000 C   0  0  0  0  0  0  0  0  0  0  0  0
    3.7486   13.9978   -0.0000 C   0  0  0  0  0  0  0  0  0  0  0  0
    1.4947   15.3027   -0.0000 C   0  0  0  0  0  0  0  0  0  0  0  0
    4.4840   12.7166   -0.0000 C   0  0  0  0  0  0  0  0  0  0  0  0
    4.4840   15.3027   -0.0000 C   0  0  0  0  0  0  0  0  0  0  0  0
    5.9669   12.7285   -0.0000 C   0  0  0  0  0  0  0  0  0  0  0  0
    5.9669   15.3145   -0.0000 C   0  0  0  0  0  0  0  0  0  0  0  0
    6.7023   14.0334   -0.0000 C   0  0  0  0  0  0  0  0  0  0  0  0
  1  2  1  0  0  0  0
  1  3  1  0  0  0  0
  2  4  1  0  0  0  0
  3  5  1  0  0  0  0
  4  6  1  0  0  0  0
  7  6  1  6  0  0  0
  7  8  1  0  0  0  0
  7  9  1  0  0  0  0
  8 10  1  0  0  0  0
 10 11  1  6  0  0  0
 11 12  2  0  0  0  0
 11 13  1  0  0  0  0
 12 14  1  0  0  0  0
 13 15  1  0  0  0  0
 13 16  1  0  0  0  0
 14 17  1  0  0  0  0
 15 18  1  0  0  0  0
 16 19  2  0  0  0  0
 17 20  2  0  0  0  0
 17 21  1  0  0  0  0
 18 22  2  0  0  0  0
 18 23  1  0  0  0  0
 20 24  1  0  0  0  0
 21 25  2  0  0  0  0
 24 26  2  0  0  0  0
 24 27  1  0  0  0  0
 26 28  1  0  0  0  0
 27 29  2  0  0  0  0
 28 30  1  0  0  0  0
 28 31  2  0  0  0  0
 30 32  2  0  0  0  0
 30 33  1  0  0  0  0
 32 34  1  0  0  0  0
 33 35  2  0  0  0  0
 34 36  2  0  0  0  0
  5  6  1  0  0  0  0
  9 10  1  0  0  0  0
 14 15  2  0  0  0  0
 19 22  1  0  0  0  0
 25 27  1  0  0  0  0
 29 31  1  0  0  0  0
 35 36  1  0  0  0  0
M  END
>  <MolRegNo>
431701

>  <m>
=

>  <Value>
12000

>  <Unit>
nM

>  <Type>
IC50

>  <pValue>
4.92

>  <Ligand Efficiency>
0

>  <Binding Efficiency>
0

>  <Surface Efficiency>
0

>  <Assay Index>
319965

>  <Assay Category>


>  <Assay Organism>


>  <Target ID>
17045

>  <Target Name>
Cytochrome P450 3A4

>  <Target Organism>
Homo sapiens

>  <Target Description>
Target is a single protein chain

>  <Sequence Accession>
P08684

>  <Reference>
Bioorg Med Chem 16 (3), 1359-1375 (2008)

>  <Pubmed ID>
17983756

>  <DOI>
10.1016/j.bmc.2007.10.061

$$$$
431731
Actelion Java MolfileCreator 1.0

 36 42  0  0  1  0  0  0  0  0999 V2000
    0.0000   -0.0000   -0.0000 S   0  0  0  0  0  0  0  0  0  0  0  0
   -1.4945    0.1661   -0.0000 C   0  0  0  0  0  0  0  0  0  0  0  0
    0.8540    1.2217   -0.0000 C   0  0  0  0  0  0  0  0  0  0  0  0
   -2.1232    1.5301   -0.0000 C   0  0  0  0  0  0  0  0  0  0  0  0
    0.2254    2.5977   -0.0000 C   0  0  0  0  0  0  0  0  0  0  0  0
   -1.2692    2.7518   -0.0000 N   0  0  0  0  0  0  0  0  0  0  0  0
   -1.7436    4.1752   -0.0000 C   0  0  0  0  0  0  0  0  0  0  0  0
   -1.0794    5.5156   -0.0000 C   0  0  0  0  0  0  0  0  0  0  0  0
   -3.0840    4.8632   -0.0000 C   0  0  0  0  0  0  0  0  0  0  0  0
   -2.4316    6.2035   -0.0000 C   0  0  0  0  0  0  0  0  0  0  0  0
   -2.9060    7.6388   -0.0000 C   0  0  0  0  0  0  0  0  0  0  0  0
   -2.0283    8.8723   -0.0000 N   0  0  0  0  0  0  0  0  0  0  0  0
   -4.3531    8.1132   -0.0000 N   0  0  0  0  0  0  0  0  0  0  0  0
   -2.9298   10.1059   -0.0000 C   0  0  0  0  0  0  0  0  0  0  0  0
   -4.3650    9.6315   -0.0000 C   0  0  0  0  0  0  0  0  0  0  0  0
   -5.6579    7.3778   -0.0000 C   0  0  0  0  0  0  0  0  0  0  0  0
   -2.1825   11.3988   -0.0000 C   0  0  0  0  0  0  0  0  0  0  0  0
   -5.6816   10.3787   -0.0000 C   0  0  0  0  0  0  0  0  0  0  0  0
   -6.9627    8.1369   -0.0000 C   0  0  0  0  0  0  0  0  0  0  0  0
   -0.6998   11.3988   -0.0000 C   0  0  0  0  0  0  0  0  0  0  0  0
   -2.9298   12.7036   -0.0000 C   0  0  0  0  0  0  0  0  0  0  0  0
   -6.9745    9.6433   -0.0000 N   0  0  0  0  0  0  0  0  0  0  0  0
   -5.7053   11.8851   -0.0000 N   0  0  0  0  0  0  0  0  0  0  0  0
    0.0474   12.6917   -0.0000 C   0  0  0  0  0  0  0  0  0  0  0  0
   -2.1944   14.0083   -0.0000 C   0  0  0  0  0  0  0  0  0  0  0  0
    1.5301   12.6917   -0.0000 N   0  0  0  0  0  0  0  0  0  0  0  0
   -0.7117   14.0083   -0.0000 C   0  0  0  0  0  0  0  0  0  0  0  0
    2.2774   13.9965   -0.0000 C   0  0  0  0  0  0  0  0  0  0  0  0
    0.0119   15.3131   -0.0000 C   0  0  0  0  0  0  0  0  0  0  0  0
    3.7601   13.9965   -0.0000 C   0  0  0  0  0  0  0  0  0  0  0  0
    1.5064   15.3012   -0.0000 C   0  0  0  0  0  0  0  0  0  0  0  0
    4.4955   12.7154   -0.0000 C   0  0  0  0  0  0  0  0  0  0  0  0
    4.4955   15.3012   -0.0000 C   0  0  0  0  0  0  0  0  0  0  0  0
    5.9782   12.7273   -0.0000 C   0  0  0  0  0  0  0  0  0  0  0  0
    5.9782   15.3131   -0.0000 C   0  0  0  0  0  0  0  0  0  0  0  0
    6.7136   14.0321   -0.0000 C   0  0  0  0  0  0  0  0  0  0  0  0
  1  2  1  0  0  0  0
  1  3  1  0  0  0  0
  2  4  1  0  0  0  0
  3  5  1  0  0  0  0
  4  6  1  0  0  0  0
  7  6  1  6  0  0  0
  7  8  1  0  0  0  0
  7  9  1  0  0  0  0
  8 10  1  0  0  0  0
 10 11  1  6  0  0  0
 11 12  2  0  0  0  0
 11 13  1  0  0  0  0
 12 14  1  0  0  0  0
 13 15  1  0  0  0  0
 13 16  1  0  0  0  0
 14 17  1  0  0  0  0
 15 18  1  0  0  0  0
 16 19  2  0  0  0  0
 17 20  2  0  0  0  0
 17 21  1  0  0  0  0
 18 22  2  0  0  0  0
 18 23  1  0  0  0  0
 20 24  1  0  0  0  0
 21 25  2  0  0  0  0
 24 26  2  0  0  0  0
 24 27  1  0  0  0  0
 26 28  1  0  0  0  0
 27 29  2  0  0  0  0
 28 30  1  0  0  0  0
 28 31  2  0  0  0  0
 30 32  2  0  0  0  0
 30 33  1  0  0  0  0
 32 34  1  0  0  0  0
 33 35  2  0  0  0  0
 34 36  2  0  0  0  0
  5  6  1  0  0  0  0
  9 10  1  0  0  0  0
 14 15  2  0  0  0  0
 19 22  1  0  0  0  0
 25 27  1  0  0  0  0
 29 31  1  0  0  0  0
 35 36  1  0  0  0  0
M  END
>  <MolRegNo>
431731

>  <m>
=

>  <Value>
7800

>  <Unit>
nM

>  <Type>
IC50

>  <pValue>
5.11

>  <Ligand Efficiency>
0

>  <Binding Efficiency>
0

>  <Surface Efficiency>
0

>  <Assay Index>
319965

>  <Assay Category>


>  <Assay Organism>


>  <Target ID>
17045

>  <Target Name>
Cytochrome P450 3A4

>  <Target Organism>
Homo sapiens

>  <Target Description>
Target is a single protein chain

>  <Sequence Accession>
P08684

>  <Reference>
Bioorg Med Chem 16 (3), 1359-1375 (2008)

>  <Pubmed ID>
17983756

>  <DOI>
10.1016/j.bmc.2007.10.061

$$$$
431730
Actelion Java MolfileCreator 1.0

 36 42  0  0  1  0  0  0  0  0999 V2000
    0.0000   -0.0000   -0.0000 N   0  0  0  0  0  0  0  0  0  0  0  0
   -1.5128    0.0238   -0.0000 C   0  0  0  0  0  0  0  0  0  0  0  0
    0.7504    1.3103   -0.0000 C   0  0  0  0  0  0  0  0  0  0  0  0
   -2.2751    1.3460   -0.0000 C   0  0  0  0  0  0  0  0  0  0  0  0
   -2.2870   -1.2507   -0.0000 C   0  0  0  0  0  0  0  0  0  0  0  0
    2.2394    1.3103   -0.0000 C   0  0  0  0  0  0  0  0  0  0  0  0
   -0.0238    2.6205   -0.0000 C   0  0  0  0  0  0  0  0  0  0  0  0
   -1.5485    2.6563   -0.0000 C   0  0  0  0  0  0  0  0  0  0  0  0
   -3.7998    1.3579   -0.0000 C   0  0  0  0  0  0  0  0  0  0  0  0
   -3.7998   -1.2269   -0.0000 C   0  0  0  0  0  0  0  0  0  0  0  0
    2.9779    0.0238   -0.0000 C   0  0  0  0  0  0  0  0  0  0  0  0
    2.9779    2.6205   -0.0000 C   0  0  0  0  0  0  0  0  0  0  0  0
   -4.5621    0.0715   -0.0000 C   0  0  0  0  0  0  0  0  0  0  0  0
   -4.5621   -2.5014   -0.0000 C   0  0  0  0  0  0  0  0  0  0  0  0
    4.4668    0.0357   -0.0000 C   0  0  0  0  0  0  0  0  0  0  0  0
    4.4668    2.6444   -0.0000 C   0  0  0  0  0  0  0  0  0  0  0  0
   -3.6807   -3.7164   -0.0000 N   0  0  0  0  0  0  0  0  0  0  0  0
   -6.0153   -2.9541   -0.0000 C   0  0  0  0  0  0  0  0  0  0  0  0
    5.2053    1.3460   -0.0000 C   0  0  0  0  0  0  0  0  0  0  0  0
   -4.5859   -4.9314   -0.0000 C   0  0  0  0  0  0  0  0  0  0  0  0
   -6.0272   -4.4549   -0.0000 N   0  0  0  0  0  0  0  0  0  0  0  0
   -7.3375   -2.2036   -0.0000 C   0  0  0  0  0  0  0  0  0  0  0  0
   -4.1333   -6.3488   -0.0000 C   0  0  0  0  0  0  0  0  0  0  0  0
   -7.3375   -5.1934   -0.0000 C   0  0  0  0  0  0  0  0  0  0  0  0
   -8.6359   -2.9421   -0.0000 N   0  0  0  0  0  0  0  0  0  0  0  0
   -7.3613   -0.6909   -0.0000 N   0  0  0  0  0  0  0  0  0  0  0  0
   -2.7992   -7.0159   -0.0000 C   0  0  0  0  0  0  0  0  0  0  0  0
   -4.8242   -7.6710   -0.0000 C   0  0  0  0  0  0  0  0  0  0  0  0
   -8.6478   -4.4311   -0.0000 C   0  0  0  0  0  0  0  0  0  0  0  0
   -3.4901   -8.3381   -0.0000 C   0  0  0  0  0  0  0  0  0  0  0  0
   -3.0374   -9.7436   -0.0000 N   0  0  0  0  0  0  0  0  0  0  0  0
   -3.9189  -10.9467   -0.0000 C   0  0  0  0  0  0  0  0  0  0  0  0
   -1.5604   -9.8747   -0.0000 C   0  0  0  0  0  0  0  0  0  0  0  0
   -3.3114  -12.2927   -0.0000 C   0  0  0  0  0  0  0  0  0  0  0  0
   -0.9529  -11.2326   -0.0000 C   0  0  0  0  0  0  0  0  0  0  0  0
   -1.8344  -12.4356   -0.0000 C   0  0  0  0  0  0  0  0  0  0  0  0
  1  2  1  0  0  0  0
  1  3  2  0  0  0  0
  2  4  1  0  0  0  0
  2  5  2  0  0  0  0
  3  6  1  0  0  0  0
  3  7  1  0  0  0  0
  4  8  1  0  0  0  0
  4  9  2  0  0  0  0
  5 10  1  0  0  0  0
  6 11  2  0  0  0  0
  6 12  1  0  0  0  0
  9 13  1  0  0  0  0
 10 14  1  0  0  0  0
 11 15  1  0  0  0  0
 12 16  2  0  0  0  0
 14 17  1  0  0  0  0
 14 18  2  0  0  0  0
 15 19  2  0  0  0  0
 17 20  2  0  0  0  0
 18 21  1  0  0  0  0
 18 22  1  0  0  0  0
 23 20  1  6  0  0  0
 21 24  1  0  0  0  0
 22 25  2  0  0  0  0
 22 26  1  0  0  0  0
 23 27  1  0  0  0  0
 23 28  1  0  0  0  0
 24 29  2  0  0  0  0
 27 30  1  0  0  0  0
 30 31  1  6  0  0  0
 31 32  1  0  0  0  0
 31 33  1  0  0  0  0
 32 34  1  0  0  0  0
 33 35  1  0  0  0  0
 34 36  1  0  0  0  0
  7  8  2  0  0  0  0
 10 13  2  0  0  0  0
 16 19  1  0  0  0  0
 20 21  1  0  0  0  0
 25 29  1  0  0  0  0
 28 30  1  0  0  0  0
 35 36  1  0  0  0  0
M  END
>  <MolRegNo>
431730

>  <m>
=

>  <Value>
7500

>  <Unit>
nM

>  <Type>
IC50

>  <pValue>
5.12

>  <Ligand Efficiency>
0

>  <Binding Efficiency>
0

>  <Surface Efficiency>
0

>  <Assay Index>
319965

>  <Assay Category>


>  <Assay Organism>


>  <Target ID>
17045

>  <Target Name>
Cytochrome P450 3A4

>  <Target Organism>
Homo sapiens

>  <Target Description>
Target is a single protein chain

>  <Sequence Accession>
P08684

>  <Reference>
Bioorg Med Chem 16 (3), 1359-1375 (2008)

>  <Pubmed ID>
17983756

>  <DOI>
10.1016/j.bmc.2007.10.061

$$$$
431758
Actelion Java MolfileCreator 1.0

 35 41  0  0  1  0  0  0  0  0999 V2000
    0.0000   -0.0000   -0.0000 N   0  0  0  0  0  0  0  0  0  0  0  0
   -1.5118    0.0238   -0.0000 C   0  0  0  0  0  0  0  0  0  0  0  0
    0.7500    1.3095   -0.0000 C   0  0  0  0  0  0  0  0  0  0  0  0
   -2.2737    1.3452   -0.0000 C   0  0  0  0  0  0  0  0  0  0  0  0
   -2.2856   -1.2499   -0.0000 C   0  0  0  0  0  0  0  0  0  0  0  0
    2.2380    1.3095   -0.0000 C   0  0  0  0  0  0  0  0  0  0  0  0
   -0.0238    2.6189   -0.0000 C   0  0  0  0  0  0  0  0  0  0  0  0
   -1.5476    2.6546   -0.0000 C   0  0  0  0  0  0  0  0  0  0  0  0
   -3.7975    1.3571   -0.0000 C   0  0  0  0  0  0  0  0  0  0  0  0
   -3.7975   -1.2261   -0.0000 C   0  0  0  0  0  0  0  0  0  0  0  0
    2.9761    0.0238   -0.0000 C   0  0  0  0  0  0  0  0  0  0  0  0
    2.9761    2.6189   -0.0000 C   0  0  0  0  0  0  0  0  0  0  0  0
   -4.5593    0.0714   -0.0000 C   0  0  0  0  0  0  0  0  0  0  0  0
   -4.5712   -2.4999   -0.0000 C   0  0  0  0  0  0  0  0  0  0  0  0
    4.4641    0.0357   -0.0000 C   0  0  0  0  0  0  0  0  0  0  0  0
    4.4641    2.6308   -0.0000 C   0  0  0  0  0  0  0  0  0  0  0  0
   -3.6903   -3.7141   -0.0000 N   0  0  0  0  0  0  0  0  0  0  0  0
   -6.0236   -2.9523   -0.0000 C   0  0  0  0  0  0  0  0  0  0  0  0
    5.2022    1.3452   -0.0000 C   0  0  0  0  0  0  0  0  0  0  0  0
   -4.5950   -4.9284   -0.0000 C   0  0  0  0  0  0  0  0  0  0  0  0
   -6.0355   -4.4522   -0.0000 N   0  0  0  0  0  0  0  0  0  0  0  0
   -7.3449   -2.2023   -0.0000 C   0  0  0  0  0  0  0  0  0  0  0  0
   -4.1427   -6.3450   -0.0000 C   0  0  0  0  0  0  0  0  0  0  0  0
   -7.3449   -5.1903   -0.0000 C   0  0  0  0  0  0  0  0  0  0  0  0
   -8.6425   -2.9404   -0.0000 N   0  0  0  0  0  0  0  0  0  0  0  0
   -7.3687   -0.6904   -0.0000 N   0  0  0  0  0  0  0  0  0  0  0  0
   -2.8094   -7.0116   -0.0000 C   0  0  0  0  0  0  0  0  0  0  0  0
   -4.8331   -7.6663   -0.0000 C   0  0  0  0  0  0  0  0  0  0  0  0
   -8.6544   -4.4284   -0.0000 C   0  0  0  0  0  0  0  0  0  0  0  0
   -3.4999   -8.3330   -0.0000 C   0  0  0  0  0  0  0  0  0  0  0  0
   -3.0475   -9.7496   -0.0000 N   0  0  0  0  0  0  0  0  0  0  0  0
   -3.9284  -10.9519   -0.0000 C   0  0  0  0  0  0  0  0  0  0  0  0
   -1.6309  -10.2020   -0.0000 C   0  0  0  0  0  0  0  0  0  0  0  0
   -3.0594  -12.1542   -0.0000 C   0  0  0  0  0  0  0  0  0  0  0  0
   -1.6428  -11.6900   -0.0000 C   0  0  0  0  0  0  0  0  0  0  0  0
  1  2  1  0  0  0  0
  1  3  2  0  0  0  0
  2  4  1  0  0  0  0
  2  5  2  0  0  0  0
  3  6  1  0  0  0  0
  3  7  1  0  0  0  0
  4  8  1  0  0  0  0
  4  9  2  0  0  0  0
  5 10  1  0  0  0  0
  6 11  2  0  0  0  0
  6 12  1  0  0  0  0
  9 13  1  0  0  0  0
 10 14  1  0  0  0  0
 11 15  1  0  0  0  0
 12 16  2  0  0  0  0
 14 17  1  0  0  0  0
 14 18  2  0  0  0  0
 15 19  2  0  0  0  0
 17 20  2  0  0  0  0
 18 21  1  0  0  0  0
 18 22  1  0  0  0  0
 23 20  1  6  0  0  0
 21 24  1  0  0  0  0
 22 25  2  0  0  0  0
 22 26  1  0  0  0  0
 23 27  1  0  0  0  0
 23 28  1  0  0  0  0
 24 29  2  0  0  0  0
 27 30  1  0  0  0  0
 30 31  1  6  0  0  0
 31 32  1  0  0  0  0
 31 33  1  0  0  0  0
 32 34  1  0  0  0  0
 33 35  1  0  0  0  0
  7  8  2  0  0  0  0
 10 13  2  0  0  0  0
 16 19  1  0  0  0  0
 20 21  1  0  0  0  0
 25 29  1  0  0  0  0
 28 30  1  0  0  0  0
 34 35  1  0  0  0  0
M  END
>  <MolRegNo>
431758

>  <m>
=

>  <Value>
17000

>  <Unit>
nM

>  <Type>
IC50

>  <pValue>
4.77

>  <Ligand Efficiency>
0

>  <Binding Efficiency>
0

>  <Surface Efficiency>
0

>  <Assay Index>
319965

>  <Assay Category>


>  <Assay Organism>


>  <Target ID>
17045

>  <Target Name>
Cytochrome P450 3A4

>  <Target Organism>
Homo sapiens

>  <Target Description>
Target is a single protein chain

>  <Sequence Accession>
P08684

>  <Reference>
Bioorg Med Chem 16 (3), 1359-1375 (2008)

>  <Pubmed ID>
17983756

>  <DOI>
10.1016/j.bmc.2007.10.061

$$$$
431789
Actelion Java MolfileCreator 1.0

 33 38  0  0  1  0  0  0  0  0999 V2000
    0.0000   -0.0000   -0.0000 N   0  0  0  0  0  0  0  0  0  0  0  0
   -1.5107    0.0238   -0.0000 C   0  0  0  0  0  0  0  0  0  0  0  0
    0.7494    1.3085   -0.0000 C   0  0  0  0  0  0  0  0  0  0  0  0
   -2.2720    1.3442   -0.0000 C   0  0  0  0  0  0  0  0  0  0  0  0
   -2.2839   -1.2490   -0.0000 C   0  0  0  0  0  0  0  0  0  0  0  0
    2.2363    1.3085   -0.0000 C   0  0  0  0  0  0  0  0  0  0  0  0
   -0.0238    2.6170   -0.0000 C   0  0  0  0  0  0  0  0  0  0  0  0
   -1.5464    2.6527   -0.0000 C   0  0  0  0  0  0  0  0  0  0  0  0
   -3.7946    1.3561   -0.0000 C   0  0  0  0  0  0  0  0  0  0  0  0
   -3.7946   -1.2252   -0.0000 C   0  0  0  0  0  0  0  0  0  0  0  0
    2.9739    0.0238   -0.0000 C   0  0  0  0  0  0  0  0  0  0  0  0
    2.9739    2.6170   -0.0000 C   0  0  0  0  0  0  0  0  0  0  0  0
   -4.5559    0.0714   -0.0000 C   0  0  0  0  0  0  0  0  0  0  0  0
   -4.5678   -2.4980   -0.0000 C   0  0  0  0  0  0  0  0  0  0  0  0
    4.4608    0.0357   -0.0000 C   0  0  0  0  0  0  0  0  0  0  0  0
    4.4608    2.6289   -0.0000 C   0  0  0  0  0  0  0  0  0  0  0  0
   -3.6876   -3.7114   -0.0000 N   0  0  0  0  0  0  0  0  0  0  0  0
   -6.0191   -2.9501   -0.0000 C   0  0  0  0  0  0  0  0  0  0  0  0
    5.1983    1.3442   -0.0000 C   0  0  0  0  0  0  0  0  0  0  0  0
   -4.5916   -4.9247   -0.0000 C   0  0  0  0  0  0  0  0  0  0  0  0
   -6.0310   -4.4489   -0.0000 N   0  0  0  0  0  0  0  0  0  0  0  0
   -7.3395   -2.2006   -0.0000 C   0  0  0  0  0  0  0  0  0  0  0  0
   -4.1396   -6.3403   -0.0000 C   0  0  0  0  0  0  0  0  0  0  0  0
   -7.3395   -5.1864   -0.0000 C   0  0  0  0  0  0  0  0  0  0  0  0
   -8.6361   -2.9382   -0.0000 N   0  0  0  0  0  0  0  0  0  0  0  0
   -7.3633   -0.6899   -0.0000 N   0  0  0  0  0  0  0  0  0  0  0  0
   -2.8073   -7.0064   -0.0000 C   0  0  0  0  0  0  0  0  0  0  0  0
   -4.8295   -7.6606   -0.0000 C   0  0  0  0  0  0  0  0  0  0  0  0
   -8.6480   -4.4251   -0.0000 C   0  0  0  0  0  0  0  0  0  0  0  0
   -3.4972   -8.3268   -0.0000 C   0  0  0  0  0  0  0  0  0  0  0  0
   -3.0452   -9.7423   -0.0000 N   0  0  0  0  0  0  0  0  0  0  0  0
   -4.0563  -10.8486   -0.0000 C   0  0  0  0  0  0  0  0  0  0  0  0
   -1.5940  -10.0397   -0.0000 C   0  0  0  0  0  0  0  0  0  0  0  0
  1  2  1  0  0  0  0
  1  3  2  0  0  0  0
  2  4  1  0  0  0  0
  2  5  2  0  0  0  0
  3  6  1  0  0  0  0
  3  7  1  0  0  0  0
  4  8  1  0  0  0  0
  4  9  2  0  0  0  0
  5 10  1  0  0  0  0
  6 11  2  0  0  0  0
  6 12  1  0  0  0  0
  9 13  1  0  0  0  0
 10 14  1  0  0  0  0
 11 15  1  0  0  0  0
 12 16  2  0  0  0  0
 14 17  1  0  0  0  0
 14 18  2  0  0  0  0
 15 19  2  0  0  0  0
 17 20  2  0  0  0  0
 18 21  1  0  0  0  0
 18 22  1  0  0  0  0
 23 20  1  6  0  0  0
 21 24  1  0  0  0  0
 22 25  2  0  0  0  0
 22 26  1  0  0  0  0
 23 27  1  0  0  0  0
 23 28  1  0  0  0  0
 24 29  2  0  0  0  0
 27 30  1  0  0  0  0
 30 31  1  6  0  0  0
 31 32  1  0  0  0  0
 31 33  1  0  0  0  0
  7  8  2  0  0  0  0
 10 13  2  0  0  0  0
 16 19  1  0  0  0  0
 20 21  1  0  0  0  0
 25 29  1  0  0  0  0
 28 30  1  0  0  0  0
M  END
>  <MolRegNo>
431789

>  <m>
=

>  <Value>
19000

>  <Unit>
nM

>  <Type>
IC50

>  <pValue>
4.72

>  <Ligand Efficiency>
0

>  <Binding Efficiency>
0

>  <Surface Efficiency>
0

>  <Assay Index>
319965

>  <Assay Category>


>  <Assay Organism>


>  <Target ID>
17045

>  <Target Name>
Cytochrome P450 3A4

>  <Target Organism>
Homo sapiens

>  <Target Description>
Target is a single protein chain

>  <Sequence Accession>
P08684

>  <Reference>
Bioorg Med Chem 16 (3), 1359-1375 (2008)

>  <Pubmed ID>
17983756

>  <DOI>
10.1016/j.bmc.2007.10.061

$$$$
431334
Actelion Java MolfileCreator 1.0

 35 41  0  0  1  0  0  0  0  0999 V2000
    0.0000   -0.0000   -0.0000 N   0  0  0  0  0  0  0  0  0  0  0  0
   -1.5102    0.0238   -0.0000 C   0  0  0  0  0  0  0  0  0  0  0  0
    0.7492    1.3081   -0.0000 C   0  0  0  0  0  0  0  0  0  0  0  0
   -2.2713    1.3438   -0.0000 C   0  0  0  0  0  0  0  0  0  0  0  0
   -2.2832   -1.2486   -0.0000 C   0  0  0  0  0  0  0  0  0  0  0  0
    2.2356    1.3081   -0.0000 C   0  0  0  0  0  0  0  0  0  0  0  0
   -0.0238    2.6162   -0.0000 C   0  0  0  0  0  0  0  0  0  0  0  0
   -1.5459    2.6518   -0.0000 C   0  0  0  0  0  0  0  0  0  0  0  0
   -3.7934    1.3556   -0.0000 C   0  0  0  0  0  0  0  0  0  0  0  0
   -3.7934   -1.2248   -0.0000 C   0  0  0  0  0  0  0  0  0  0  0  0
    2.9729    0.0238   -0.0000 C   0  0  0  0  0  0  0  0  0  0  0  0
    2.9729    2.6162   -0.0000 C   0  0  0  0  0  0  0  0  0  0  0  0
   -4.5545    0.0713   -0.0000 C   0  0  0  0  0  0  0  0  0  0  0  0
   -4.5664   -2.4972   -0.0000 C   0  0  0  0  0  0  0  0  0  0  0  0
    4.4594    0.0357   -0.0000 C   0  0  0  0  0  0  0  0  0  0  0  0
    4.4594    2.6280   -0.0000 C   0  0  0  0  0  0  0  0  0  0  0  0
   -3.6864   -3.7102   -0.0000 N   0  0  0  0  0  0  0  0  0  0  0  0
   -6.0172   -2.9491   -0.0000 C   0  0  0  0  0  0  0  0  0  0  0  0
    5.1966    1.3438   -0.0000 C   0  0  0  0  0  0  0  0  0  0  0  0
   -4.5902   -4.9231   -0.0000 C   0  0  0  0  0  0  0  0  0  0  0  0
   -6.0290   -4.4475   -0.0000 N   0  0  0  0  0  0  0  0  0  0  0  0
   -7.3371   -2.1999   -0.0000 C   0  0  0  0  0  0  0  0  0  0  0  0
   -4.1383   -6.3382   -0.0000 C   0  0  0  0  0  0  0  0  0  0  0  0
   -7.3371   -5.1847   -0.0000 C   0  0  0  0  0  0  0  0  0  0  0  0
   -8.6333   -2.9372   -0.0000 N   0  0  0  0  0  0  0  0  0  0  0  0
   -7.3609   -0.6897   -0.0000 N   0  0  0  0  0  0  0  0  0  0  0  0
   -2.8064   -7.0042   -0.0000 C   0  0  0  0  0  0  0  0  0  0  0  0
   -4.8280   -7.6582   -0.0000 C   0  0  0  0  0  0  0  0  0  0  0  0
   -8.6452   -4.4237   -0.0000 C   0  0  0  0  0  0  0  0  0  0  0  0
   -3.4961   -8.3241   -0.0000 C   0  0  0  0  0  0  0  0  0  0  0  0
   -3.0443   -9.7392   -0.0000 C   0  0  0  0  0  0  0  0  0  0  0  0
   -4.0550  -10.8451   -0.0000 N   0  0  0  0  0  0  0  0  0  0  0  0
   -5.5653  -10.9046   -0.0000 C   0  0  0  0  0  0  0  0  0  0  0  0
   -3.9837  -12.3316   -0.0000 C   0  0  0  0  0  0  0  0  0  0  0  0
   -5.4939  -12.3911   -0.0000 C   0  0  0  0  0  0  0  0  0  0  0  0
  1  2  1  0  0  0  0
  1  3  2  0  0  0  0
  2  4  1  0  0  0  0
  2  5  2  0  0  0  0
  3  6  1  0  0  0  0
  3  7  1  0  0  0  0
  4  8  1  0  0  0  0
  4  9  2  0  0  0  0
  5 10  1  0  0  0  0
  6 11  2  0  0  0  0
  6 12  1  0  0  0  0
  9 13  1  0  0  0  0
 10 14  1  0  0  0  0
 11 15  1  0  0  0  0
 12 16  2  0  0  0  0
 14 17  1  0  0  0  0
 14 18  2  0  0  0  0
 15 19  2  0  0  0  0
 17 20  2  0  0  0  0
 18 21  1  0  0  0  0
 18 22  1  0  0  0  0
 23 20  1  1  0  0  0
 21 24  1  0  0  0  0
 22 25  2  0  0  0  0
 22 26  1  0  0  0  0
 23 27  1  0  0  0  0
 23 28  1  0  0  0  0
 24 29  2  0  0  0  0
 27 30  1  0  0  0  0
 30 31  1  6  0  0  0
 31 32  1  0  0  0  0
 32 33  1  0  0  0  0
 32 34  1  0  0  0  0
 33 35  1  0  0  0  0
  7  8  2  0  0  0  0
 10 13  2  0  0  0  0
 16 19  1  0  0  0  0
 20 21  1  0  0  0  0
 25 29  1  0  0  0  0
 28 30  1  0  0  0  0
 34 35  1  0  0  0  0
M  END
>  <MolRegNo>
431334

>  <m>
=

>  <Value>
17000

>  <Unit>
nM

>  <Type>
IC50

>  <pValue>
4.77

>  <Ligand Efficiency>
0

>  <Binding Efficiency>
0

>  <Surface Efficiency>
0

>  <Assay Index>
319965

>  <Assay Category>


>  <Assay Organism>


>  <Target ID>
17045

>  <Target Name>
Cytochrome P450 3A4

>  <Target Organism>
Homo sapiens

>  <Target Description>
Target is a single protein chain

>  <Sequence Accession>
P08684

>  <Reference>
Bioorg Med Chem 16 (3), 1359-1375 (2008)

>  <Pubmed ID>
17983756

>  <DOI>
10.1016/j.bmc.2007.10.061

$$$$
431369
Actelion Java MolfileCreator 1.0

 34 39  0  0  1  0  0  0  0  0999 V2000
    0.0000   -0.0000   -0.0000 N   0  0  0  0  0  0  0  0  0  0  0  0
   -1.5101    0.0238   -0.0000 C   0  0  0  0  0  0  0  0  0  0  0  0
    0.7491    1.3079   -0.0000 C   0  0  0  0  0  0  0  0  0  0  0  0
   -2.2711    1.3436   -0.0000 C   0  0  0  0  0  0  0  0  0  0  0  0
   -2.2830   -1.2485   -0.0000 C   0  0  0  0  0  0  0  0  0  0  0  0
    2.2354    1.3079   -0.0000 C   0  0  0  0  0  0  0  0  0  0  0  0
   -0.0238    2.6159   -0.0000 C   0  0  0  0  0  0  0  0  0  0  0  0
   -1.5458    2.6516   -0.0000 C   0  0  0  0  0  0  0  0  0  0  0  0
   -3.7930    1.3555   -0.0000 C   0  0  0  0  0  0  0  0  0  0  0  0
   -3.7930   -1.2247   -0.0000 C   0  0  0  0  0  0  0  0  0  0  0  0
    2.9726    0.0238   -0.0000 C   0  0  0  0  0  0  0  0  0  0  0  0
    2.9726    2.6159   -0.0000 C   0  0  0  0  0  0  0  0  0  0  0  0
   -4.5540    0.0713   -0.0000 C   0  0  0  0  0  0  0  0  0  0  0  0
   -4.5659   -2.4970   -0.0000 C   0  0  0  0  0  0  0  0  0  0  0  0
    4.4589    0.0357   -0.0000 C   0  0  0  0  0  0  0  0  0  0  0  0
    4.4589    2.6397   -0.0000 C   0  0  0  0  0  0  0  0  0  0  0  0
   -3.6860   -3.7098   -0.0000 N   0  0  0  0  0  0  0  0  0  0  0  0
   -6.0165   -2.9488   -0.0000 C   0  0  0  0  0  0  0  0  0  0  0  0
    5.1961    1.3436   -0.0000 C   0  0  0  0  0  0  0  0  0  0  0  0
   -4.5897   -4.9226   -0.0000 C   0  0  0  0  0  0  0  0  0  0  0  0
   -6.0284   -4.4470   -0.0000 N   0  0  0  0  0  0  0  0  0  0  0  0
   -7.3364   -2.1997   -0.0000 C   0  0  0  0  0  0  0  0  0  0  0  0
   -4.1379   -6.3376   -0.0000 C   0  0  0  0  0  0  0  0  0  0  0  0
   -7.3364   -5.1842   -0.0000 C   0  0  0  0  0  0  0  0  0  0  0  0
   -8.6324   -2.9369   -0.0000 N   0  0  0  0  0  0  0  0  0  0  0  0
   -7.3602   -0.6896   -0.0000 N   0  0  0  0  0  0  0  0  0  0  0  0
   -2.8061   -7.0034   -0.0000 C   0  0  0  0  0  0  0  0  0  0  0  0
   -4.8275   -7.6574   -0.0000 C   0  0  0  0  0  0  0  0  0  0  0  0
   -8.6443   -4.4232   -0.0000 C   0  0  0  0  0  0  0  0  0  0  0  0
   -3.4958   -8.3233   -0.0000 C   0  0  0  0  0  0  0  0  0  0  0  0
   -3.0439   -9.7382   -0.0000 C   0  0  0  0  0  0  0  0  0  0  0  0
   -4.0546  -10.8440   -0.0000 N   0  0  0  0  0  0  0  0  0  0  0  0
   -3.6028  -12.2590   -0.0000 C   0  0  0  0  0  0  0  0  0  0  0  0
   -5.5290  -10.5230   -0.0000 C   0  0  0  0  0  0  0  0  0  0  0  0
  1  2  1  0  0  0  0
  1  3  2  0  0  0  0
  2  4  1  0  0  0  0
  2  5  2  0  0  0  0
  3  6  1  0  0  0  0
  3  7  1  0  0  0  0
  4  8  1  0  0  0  0
  4  9  2  0  0  0  0
  5 10  1  0  0  0  0
  6 11  2  0  0  0  0
  6 12  1  0  0  0  0
  9 13  1  0  0  0  0
 10 14  1  0  0  0  0
 11 15  1  0  0  0  0
 12 16  2  0  0  0  0
 14 17  1  0  0  0  0
 14 18  2  0  0  0  0
 15 19  2  0  0  0  0
 17 20  2  0  0  0  0
 18 21  1  0  0  0  0
 18 22  1  0  0  0  0
 23 20  1  1  0  0  0
 21 24  1  0  0  0  0
 22 25  2  0  0  0  0
 22 26  1  0  0  0  0
 23 27  1  0  0  0  0
 23 28  1  0  0  0  0
 24 29  2  0  0  0  0
 27 30  1  0  0  0  0
 30 31  1  6  0  0  0
 31 32  1  0  0  0  0
 32 33  1  0  0  0  0
 32 34  1  0  0  0  0
  7  8  2  0  0  0  0
 10 13  2  0  0  0  0
 16 19  1  0  0  0  0
 20 21  1  0  0  0  0
 25 29  1  0  0  0  0
 28 30  1  0  0  0  0
M  END
>  <MolRegNo>
431369

>  <m>
=

>  <Value>
15000

>  <Unit>
nM

>  <Type>
IC50

>  <pValue>
4.82

>  <Ligand Efficiency>
0

>  <Binding Efficiency>
0

>  <Surface Efficiency>
0

>  <Assay Index>
319965

>  <Assay Category>


>  <Assay Organism>


>  <Target ID>
17045

>  <Target Name>
Cytochrome P450 3A4

>  <Target Organism>
Homo sapiens

>  <Target Description>
Target is a single protein chain

>  <Sequence Accession>
P08684

>  <Reference>
Bioorg Med Chem 16 (3), 1359-1375 (2008)

>  <Pubmed ID>
17983756

>  <DOI>
10.1016/j.bmc.2007.10.061

$$$$
431368
Actelion Java MolfileCreator 1.0

 34 39  0  0  1  0  0  0  0  0999 V2000
    0.0000   -0.0000   -0.0000 N   0  0  0  0  0  0  0  0  0  0  0  0
   -1.5102    0.0238   -0.0000 C   0  0  0  0  0  0  0  0  0  0  0  0
    0.7492    1.3081   -0.0000 C   0  0  0  0  0  0  0  0  0  0  0  0
   -2.2713    1.3437   -0.0000 C   0  0  0  0  0  0  0  0  0  0  0  0
   -2.2832   -1.2486   -0.0000 C   0  0  0  0  0  0  0  0  0  0  0  0
    2.2356    1.3081   -0.0000 C   0  0  0  0  0  0  0  0  0  0  0  0
   -0.0238    2.6161   -0.0000 C   0  0  0  0  0  0  0  0  0  0  0  0
   -1.5459    2.6518   -0.0000 C   0  0  0  0  0  0  0  0  0  0  0  0
   -3.7934    1.3556   -0.0000 C   0  0  0  0  0  0  0  0  0  0  0  0
   -3.7934   -1.2248   -0.0000 C   0  0  0  0  0  0  0  0  0  0  0  0
    2.9729    0.0238   -0.0000 C   0  0  0  0  0  0  0  0  0  0  0  0
    2.9729    2.6161   -0.0000 C   0  0  0  0  0  0  0  0  0  0  0  0
   -4.5544    0.0713   -0.0000 C   0  0  0  0  0  0  0  0  0  0  0  0
   -4.5663   -2.4972   -0.0000 C   0  0  0  0  0  0  0  0  0  0  0  0
    4.4593    0.0357   -0.0000 C   0  0  0  0  0  0  0  0  0  0  0  0
    4.4593    2.6399   -0.0000 C   0  0  0  0  0  0  0  0  0  0  0  0
   -3.6863   -3.7101   -0.0000 N   0  0  0  0  0  0  0  0  0  0  0  0
   -6.0171   -2.9491   -0.0000 C   0  0  0  0  0  0  0  0  0  0  0  0
    5.1966    1.3437   -0.0000 C   0  0  0  0  0  0  0  0  0  0  0  0
   -4.5901   -4.9231   -0.0000 C   0  0  0  0  0  0  0  0  0  0  0  0
   -6.0290   -4.4474   -0.0000 N   0  0  0  0  0  0  0  0  0  0  0  0
   -7.3370   -2.1999   -0.0000 C   0  0  0  0  0  0  0  0  0  0  0  0
   -4.1382   -6.3381   -0.0000 C   0  0  0  0  0  0  0  0  0  0  0  0
   -7.3370   -5.1847   -0.0000 C   0  0  0  0  0  0  0  0  0  0  0  0
   -8.6332   -2.9372   -0.0000 N   0  0  0  0  0  0  0  0  0  0  0  0
   -7.3608   -0.6897   -0.0000 N   0  0  0  0  0  0  0  0  0  0  0  0
   -4.8279   -7.6581   -0.0000 C   0  0  0  0  0  0  0  0  0  0  0  0
   -2.8064   -7.0041   -0.0000 C   0  0  0  0  0  0  0  0  0  0  0  0
   -8.6451   -4.4236   -0.0000 C   0  0  0  0  0  0  0  0  0  0  0  0
   -3.5080   -8.3240   -0.0000 C   0  0  0  0  0  0  0  0  0  0  0  0
   -3.0561   -9.7391   -0.0000 C   0  0  0  0  0  0  0  0  0  0  0  0
   -4.0669  -10.8450   -0.0000 N   0  0  0  0  0  0  0  0  0  0  0  0
   -3.6150  -12.2601   -0.0000 C   0  0  0  0  0  0  0  0  0  0  0  0
   -5.5414  -10.5239   -0.0000 C   0  0  0  0  0  0  0  0  0  0  0  0
  1  2  1  0  0  0  0
  1  3  2  0  0  0  0
  2  4  1  0  0  0  0
  2  5  2  0  0  0  0
  3  6  1  0  0  0  0
  3  7  1  0  0  0  0
  4  8  1  0  0  0  0
  4  9  2  0  0  0  0
  5 10  1  0  0  0  0
  6 11  2  0  0  0  0
  6 12  1  0  0  0  0
  9 13  1  0  0  0  0
 10 14  1  0  0  0  0
 11 15  1  0  0  0  0
 12 16  2  0  0  0  0
 14 17  1  0  0  0  0
 14 18  2  0  0  0  0
 15 19  2  0  0  0  0
 17 20  2  0  0  0  0
 18 21  1  0  0  0  0
 18 22  1  0  0  0  0
 23 20  1  6  0  0  0
 21 24  1  0  0  0  0
 22 25  2  0  0  0  0
 22 26  1  0  0  0  0
 23 27  1  0  0  0  0
 23 28  1  0  0  0  0
 24 29  2  0  0  0  0
 27 30  1  0  0  0  0
 30 31  1  6  0  0  0
 31 32  1  0  0  0  0
 32 33  1  0  0  0  0
 32 34  1  0  0  0  0
  7  8  2  0  0  0  0
 10 13  2  0  0  0  0
 16 19  1  0  0  0  0
 20 21  1  0  0  0  0
 25 29  1  0  0  0  0
 28 30  1  0  0  0  0
M  END
>  <MolRegNo>
431368

>  <m>
=

>  <Value>
15000

>  <Unit>
nM

>  <Type>
IC50

>  <pValue>
4.82

>  <Ligand Efficiency>
0

>  <Binding Efficiency>
0

>  <Surface Efficiency>
0

>  <Assay Index>
319965

>  <Assay Category>


>  <Assay Organism>


>  <Target ID>
17045

>  <Target Name>
Cytochrome P450 3A4

>  <Target Organism>
Homo sapiens

>  <Target Description>
Target is a single protein chain

>  <Sequence Accession>
P08684

>  <Reference>
Bioorg Med Chem 16 (3), 1359-1375 (2008)

>  <Pubmed ID>
17983756

>  <DOI>
10.1016/j.bmc.2007.10.061

$$$$
322994
Actelion Java MolfileCreator 1.0

 18 20  0  0  0  0  0  0  0  0999 V2000
    0.0000   -0.0000   -0.0000 O   0  0  0  0  0  0  0  0  0  0  0  0
    1.2935    0.7595   -0.0000 C   0  0  0  0  0  0  0  0  0  0  0  0
    2.5752    0.0237   -0.0000 C   0  0  0  0  0  0  0  0  0  0  0  0
    1.2817    2.2785   -0.0000 C   0  0  0  0  0  0  0  0  0  0  0  0
    3.8688    0.7951   -0.0000 C   0  0  0  0  0  0  0  0  0  0  0  0
    2.5633    3.0380   -0.0000 C   0  0  0  0  0  0  0  0  0  0  0  0
    3.8569    2.3141   -0.0000 C   0  0  0  0  0  0  0  0  0  0  0  0
    5.1623    0.0593   -0.0000 C   0  0  0  0  0  0  0  0  0  0  0  0
    5.1267    3.0855   -0.0000 C   0  0  0  0  0  0  0  0  0  0  0  0
    6.4558    0.8307   -0.0000 C   0  0  0  0  0  0  0  0  0  0  0  0
    6.4321    2.3497   -0.0000 C   0  0  0  0  0  0  0  0  0  0  0  0
    7.7138    3.1211   -0.0000 C   0  0  0  0  0  0  0  0  0  0  0  0
    7.6900    4.6283   -0.0000 C   0  0  0  0  0  0  0  0  0  0  0  0
    9.0073    2.3853   -0.0000 C   0  0  0  0  0  0  0  0  0  0  0  0
    8.9717    5.3996   -0.0000 C   0  0  0  0  0  0  0  0  0  0  0  0
   10.2890    3.1567   -0.0000 C   0  0  0  0  0  0  0  0  0  0  0  0
    8.9480    6.9187   -0.0000 O   0  0  0  0  0  0  0  0  0  0  0  0
   10.2771    4.6639   -0.0000 C   0  0  0  0  0  0  0  0  0  0  0  0
  1  2  1  0  0  0  0
  2  3  2  0  0  0  0
  2  4  1  0  0  0  0
  3  5  1  0  0  0  0
  4  6  2  0  0  0  0
  5  7  1  0  0  0  0
  5  8  2  0  0  0  0
  7  9  2  0  0  0  0
  8 10  1  0  0  0  0
  9 11  1  0  0  0  0
 11 12  1  0  0  0  0
 12 13  2  0  0  0  0
 12 14  1  0  0  0  0
 13 15  1  0  0  0  0
 14 16  2  0  0  0  0
 15 17  1  0  0  0  0
 15 18  2  0  0  0  0
  6  7  1  0  0  0  0
 10 11  2  0  0  0  0
 16 18  1  0  0  0  0
M  END
>  <MolRegNo>
322994

>  <m>
=

>  <Value>
1580

>  <Unit>
nM

>  <Type>
IC50

>  <pValue>
5.8

>  <Ligand Efficiency>
0

>  <Binding Efficiency>
0

>  <Surface Efficiency>
0

>  <Assay Index>
315190

>  <Assay Category>


>  <Assay Organism>
Homo sapiens

>  <Target ID>
17045

>  <Target Name>
Cytochrome P450 3A4

>  <Target Organism>
Homo sapiens

>  <Target Description>
Target is a single protein chain

>  <Sequence Accession>
P08684

>  <Reference>
J Med Chem 51 (7), 2158-2169 (2008)

>  <Pubmed ID>
18324762

>  <DOI>
10.1021/jm701447v

$$$$
429308
Actelion Java MolfileCreator 1.0

 30 34  0  0  0  0  0  0  0  0999 V2000
    0.0000   -0.0000   -0.0000 F   0  0  0  0  0  0  0  0  0  0  0  0
   -0.0119    1.5175   -0.0000 C   0  0  0  0  0  0  0  0  0  0  0  0
    1.2666    2.2823   -0.0000 C   0  0  0  0  0  0  0  0  0  0  0  0
   -1.3264    2.2703   -0.0000 C   0  0  0  0  0  0  0  0  0  0  0  0
    2.5571    1.5414   -0.0000 C   0  0  0  0  0  0  0  0  0  0  0  0
    1.2547    3.7998   -0.0000 C   0  0  0  0  0  0  0  0  0  0  0  0
   -1.3502    3.7879   -0.0000 C   0  0  0  0  0  0  0  0  0  0  0  0
    3.8357    2.3062   -0.0000 C   0  0  0  0  0  0  0  0  0  0  0  0
    2.5452    0.0478   -0.0000 C   0  0  0  0  0  0  0  0  0  0  0  0
   -0.0597    4.5646   -0.0000 C   0  0  0  0  0  0  0  0  0  0  0  0
    5.1262    1.5773   -0.0000 C   0  0  0  0  0  0  0  0  0  0  0  0
    3.8357   -0.6930   -0.0000 C   0  0  0  0  0  0  0  0  0  0  0  0
    6.3450    2.5810   -0.0000 N   0  0  0  0  0  0  0  0  0  0  0  0
    5.1142    0.0717   -0.0000 C   0  0  0  0  0  0  0  0  0  0  0  0
    7.7550    2.2703   -0.0000 C   0  0  0  0  0  0  0  0  0  0  0  0
    6.3091   -0.8484   -0.0000 N   0  0  0  0  0  0  0  0  0  0  0  0
    8.6751    3.4533   -0.0000 O   0  0  0  0  0  0  0  0  0  0  0  0
    8.4002    0.9320   -0.0000 C   0  0  0  0  0  0  0  0  0  0  0  0
    7.8147   -0.4302   -0.0000 C   0  0  0  0  0  0  0  0  0  0  0  0
    9.1052   -1.1471   -0.0000 C   0  0  0  0  0  0  0  0  0  0  0  0
   10.3718   -0.3704   -0.0000 C   0  0  0  0  0  0  0  0  0  0  0  0
    9.1052   -2.6408   -0.0000 C   0  0  0  0  0  0  0  0  0  0  0  0
   11.6743   -1.0874   -0.0000 C   0  0  0  0  0  0  0  0  0  0  0  0
   10.4077   -3.3577   -0.0000 C   0  0  0  0  0  0  0  0  0  0  0  0
   12.9528   -0.2987   -0.0000 N   0  0  0  0  0  0  0  0  0  0  0  0
   11.6862   -2.5810   -0.0000 C   0  0  0  0  0  0  0  0  0  0  0  0
   13.0723    1.2069   -0.0000 C   0  0  0  0  0  0  0  0  0  0  0  0
   14.3270   -0.8723   -0.0000 C   0  0  0  0  0  0  0  0  0  0  0  0
   14.5182    1.5534   -0.0000 N   0  0  0  0  0  0  0  0  0  0  0  0
   15.3068    0.2748   -0.0000 C   0  0  0  0  0  0  0  0  0  0  0  0
  1  2  1  0  0  0  0
  2  3  2  0  0  0  0
  2  4  1  0  0  0  0
  3  5  1  0  0  0  0
  3  6  1  0  0  0  0
  4  7  2  0  0  0  0
  5  8  2  0  0  0  0
  5  9  1  0  0  0  0
  6 10  2  0  0  0  0
  8 11  1  0  0  0  0
  9 12  2  0  0  0  0
 11 13  1  0  0  0  0
 11 14  2  0  0  0  0
 13 15  1  0  0  0  0
 14 16  1  0  0  0  0
 15 17  2  0  0  0  0
 15 18  1  0  0  0  0
 16 19  2  0  0  0  0
 19 20  1  0  0  0  0
 20 21  2  0  0  0  0
 20 22  1  0  0  0  0
 21 23  1  0  0  0  0
 22 24  2  0  0  0  0
 23 25  1  0  0  0  0
 23 26  2  0  0  0  0
 25 27  1  0  0  0  0
 25 28  1  0  0  0  0
 27 29  2  0  0  0  0
 28 30  2  0  0  0  0
  7 10  1  0  0  0  0
 12 14  1  0  0  0  0
 18 19  1  0  0  0  0
 24 26  1  0  0  0  0
 29 30  1  0  0  0  0
M  END
>  <MolRegNo>
429308

>  <m>
=

>  <Value>
1

>  <Unit>
nM

>  <Type>
IC50

>  <pValue>
9

>  <Ligand Efficiency>
0

>  <Binding Efficiency>
0

>  <Surface Efficiency>
0

>  <Assay Index>
325841

>  <Assay Category>


>  <Assay Organism>


>  <Target ID>
17045

>  <Target Name>
Cytochrome P450 3A4

>  <Target Organism>
Homo sapiens

>  <Target Description>
Target is a single protein chain

>  <Sequence Accession>
P08684

>  <Reference>
Bioorg Med Chem Lett 18 (8), 2725-2729 (2008)

>  <Pubmed ID>
18374569

>  <DOI>
10.1016/j.bmcl.2008.02.076

$$$$
429694
Actelion Java MolfileCreator 1.0

 30 34  0  0  0  0  0  0  0  0999 V2000
    0.0000   -0.0000   -0.0000 F   0  0  0  0  0  0  0  0  0  0  0  0
   -0.0120    1.5059   -0.0000 C   0  0  0  0  0  0  0  0  0  0  0  0
    1.2669    2.2709   -0.0000 C   0  0  0  0  0  0  0  0  0  0  0  0
   -1.3267    2.2589   -0.0000 C   0  0  0  0  0  0  0  0  0  0  0  0
    2.5577    1.5299   -0.0000 C   0  0  0  0  0  0  0  0  0  0  0  0
    1.2550    3.7888   -0.0000 C   0  0  0  0  0  0  0  0  0  0  0  0
   -1.3506    3.7768   -0.0000 C   0  0  0  0  0  0  0  0  0  0  0  0
    3.8366    2.2948   -0.0000 C   0  0  0  0  0  0  0  0  0  0  0  0
    2.5458    0.0359   -0.0000 C   0  0  0  0  0  0  0  0  0  0  0  0
   -0.0598    4.5537   -0.0000 C   0  0  0  0  0  0  0  0  0  0  0  0
    5.1274    1.5657   -0.0000 C   0  0  0  0  0  0  0  0  0  0  0  0
    3.8366   -0.7052   -0.0000 C   0  0  0  0  0  0  0  0  0  0  0  0
    6.3465    2.5697   -0.0000 N   0  0  0  0  0  0  0  0  0  0  0  0
    5.1154    0.0598   -0.0000 C   0  0  0  0  0  0  0  0  0  0  0  0
    7.7568    2.2589   -0.0000 C   0  0  0  0  0  0  0  0  0  0  0  0
    6.3106   -0.8605   -0.0000 N   0  0  0  0  0  0  0  0  0  0  0  0
    8.6771    3.4422   -0.0000 O   0  0  0  0  0  0  0  0  0  0  0  0
    8.4022    0.9203   -0.0000 C   0  0  0  0  0  0  0  0  0  0  0  0
    7.8166   -0.4422   -0.0000 C   0  0  0  0  0  0  0  0  0  0  0  0
    9.1074   -1.1593   -0.0000 C   0  0  0  0  0  0  0  0  0  0  0  0
   10.3743   -0.3825   -0.0000 C   0  0  0  0  0  0  0  0  0  0  0  0
    9.1074   -2.6533   -0.0000 C   0  0  0  0  0  0  0  0  0  0  0  0
   11.6771   -1.0996   -0.0000 C   0  0  0  0  0  0  0  0  0  0  0  0
   10.3982   -3.3705   -0.0000 C   0  0  0  0  0  0  0  0  0  0  0  0
   12.9559   -0.3108   -0.0000 N   0  0  0  0  0  0  0  0  0  0  0  0
   11.6890   -2.5936   -0.0000 C   0  0  0  0  0  0  0  0  0  0  0  0
   13.0754    1.1952   -0.0000 N   0  0  0  0  0  0  0  0  0  0  0  0
   14.3304   -0.8844   -0.0000 C   0  0  0  0  0  0  0  0  0  0  0  0
   14.5216    1.5418   -0.0000 N   0  0  0  0  0  0  0  0  0  0  0  0
   15.3105    0.2629   -0.0000 C   0  0  0  0  0  0  0  0  0  0  0  0
  1  2  1  0  0  0  0
  2  3  2  0  0  0  0
  2  4  1  0  0  0  0
  3  5  1  0  0  0  0
  3  6  1  0  0  0  0
  4  7  2  0  0  0  0
  5  8  2  0  0  0  0
  5  9  1  0  0  0  0
  6 10  2  0  0  0  0
  8 11  1  0  0  0  0
  9 12  2  0  0  0  0
 11 13  1  0  0  0  0
 11 14  2  0  0  0  0
 13 15  1  0  0  0  0
 14 16  1  0  0  0  0
 15 17  2  0  0  0  0
 15 18  1  0  0  0  0
 16 19  2  0  0  0  0
 19 20  1  0  0  0  0
 20 21  2  0  0  0  0
 20 22  1  0  0  0  0
 21 23  1  0  0  0  0
 22 24  2  0  0  0  0
 23 25  1  0  0  0  0
 23 26  2  0  0  0  0
 25 27  1  0  0  0  0
 25 28  1  0  0  0  0
 27 29  2  0  0  0  0
 28 30  2  0  0  0  0
  7 10  1  0  0  0  0
 12 14  1  0  0  0  0
 18 19  1  0  0  0  0
 24 26  1  0  0  0  0
 29 30  1  0  0  0  0
M  END
>  <MolRegNo>
429694

>  <m>
=

>  <Value>
4300

>  <Unit>
nM

>  <Type>
IC50

>  <pValue>
5.37

>  <Ligand Efficiency>
0

>  <Binding Efficiency>
0

>  <Surface Efficiency>
0

>  <Assay Index>
325841

>  <Assay Category>


>  <Assay Organism>


>  <Target ID>
17045

>  <Target Name>
Cytochrome P450 3A4

>  <Target Organism>
Homo sapiens

>  <Target Description>
Target is a single protein chain

>  <Sequence Accession>
P08684

>  <Reference>
Bioorg Med Chem Lett 18 (8), 2725-2729 (2008)

>  <Pubmed ID>
18374569

>  <DOI>
10.1016/j.bmcl.2008.02.076

$$$$
429265
Actelion Java MolfileCreator 1.0

 31 35  0  0  0  0  0  0  0  0999 V2000
    0.0000   -0.0000   -0.0000 F   0  0  0  0  0  0  0  0  0  0  0  0
   -0.0119    1.5171   -0.0000 C   0  0  0  0  0  0  0  0  0  0  0  0
    1.2663    2.2817   -0.0000 C   0  0  0  0  0  0  0  0  0  0  0  0
   -1.3260    2.2697   -0.0000 C   0  0  0  0  0  0  0  0  0  0  0  0
    2.5564    1.5410   -0.0000 C   0  0  0  0  0  0  0  0  0  0  0  0
    1.2543    3.7988   -0.0000 C   0  0  0  0  0  0  0  0  0  0  0  0
   -1.3499    3.7868   -0.0000 C   0  0  0  0  0  0  0  0  0  0  0  0
    2.5445    0.0478   -0.0000 C   0  0  0  0  0  0  0  0  0  0  0  0
    3.8346    2.3055   -0.0000 C   0  0  0  0  0  0  0  0  0  0  0  0
   -0.0597    4.5633   -0.0000 C   0  0  0  0  0  0  0  0  0  0  0  0
    1.2304   -0.6929   -0.0000 O   0  0  0  0  0  0  0  0  0  0  0  0
    3.8346   -0.6929   -0.0000 C   0  0  0  0  0  0  0  0  0  0  0  0
    5.1248    1.5769   -0.0000 C   0  0  0  0  0  0  0  0  0  0  0  0
    5.1248    0.0717   -0.0000 C   0  0  0  0  0  0  0  0  0  0  0  0
    6.3432    2.5803   -0.0000 N   0  0  0  0  0  0  0  0  0  0  0  0
    6.3194   -0.8482   -0.0000 N   0  0  0  0  0  0  0  0  0  0  0  0
    7.7529    2.2697   -0.0000 C   0  0  0  0  0  0  0  0  0  0  0  0
    7.8245   -0.4301   -0.0000 C   0  0  0  0  0  0  0  0  0  0  0  0
    8.6727    3.4523   -0.0000 O   0  0  0  0  0  0  0  0  0  0  0  0
    8.3979    0.9318   -0.0000 C   0  0  0  0  0  0  0  0  0  0  0  0
    9.1147   -1.1468   -0.0000 C   0  0  0  0  0  0  0  0  0  0  0  0
   10.3809   -0.3703   -0.0000 C   0  0  0  0  0  0  0  0  0  0  0  0
    9.1147   -2.6400   -0.0000 C   0  0  0  0  0  0  0  0  0  0  0  0
   11.6830   -1.0871   -0.0000 C   0  0  0  0  0  0  0  0  0  0  0  0
   10.4168   -3.3568   -0.0000 C   0  0  0  0  0  0  0  0  0  0  0  0
   12.9612   -0.2986   -0.0000 N   0  0  0  0  0  0  0  0  0  0  0  0
   11.6950   -2.5803   -0.0000 C   0  0  0  0  0  0  0  0  0  0  0  0
   13.0807    1.2065   -0.0000 C   0  0  0  0  0  0  0  0  0  0  0  0
   14.3350   -0.8720   -0.0000 C   0  0  0  0  0  0  0  0  0  0  0  0
   14.5261    1.5530   -0.0000 N   0  0  0  0  0  0  0  0  0  0  0  0
   15.3146    0.2748   -0.0000 C   0  0  0  0  0  0  0  0  0  0  0  0
  1  2  1  0  0  0  0
  2  3  2  0  0  0  0
  2  4  1  0  0  0  0
  3  5  1  0  0  0  0
  3  6  1  0  0  0  0
  4  7  2  0  0  0  0
  5  8  2  0  0  0  0
  5  9  1  0  0  0  0
  6 10  2  0  0  0  0
  8 11  1  0  0  0  0
  8 12  1  0  0  0  0
  9 13  2  0  0  0  0
 12 14  2  0  0  0  0
 13 15  1  0  0  0  0
 14 16  1  0  0  0  0
 15 17  1  0  0  0  0
 16 18  2  0  0  0  0
 17 19  2  0  0  0  0
 17 20  1  0  0  0  0
 18 21  1  0  0  0  0
 21 22  2  0  0  0  0
 21 23  1  0  0  0  0
 22 24  1  0  0  0  0
 23 25  2  0  0  0  0
 24 26  1  0  0  0  0
 24 27  2  0  0  0  0
 26 28  1  0  0  0  0
 26 29  1  0  0  0  0
 28 30  2  0  0  0  0
 29 31  2  0  0  0  0
  7 10  1  0  0  0  0
 13 14  1  0  0  0  0
 18 20  1  0  0  0  0
 25 27  1  0  0  0  0
 30 31  1  0  0  0  0
M  END
>  <MolRegNo>
429265

>  <m>
=

>  <Value>
1

>  <Unit>
nM

>  <Type>
IC50

>  <pValue>
9

>  <Ligand Efficiency>
0

>  <Binding Efficiency>
0

>  <Surface Efficiency>
0

>  <Assay Index>
325841

>  <Assay Category>


>  <Assay Organism>


>  <Target ID>
17045

>  <Target Name>
Cytochrome P450 3A4

>  <Target Organism>
Homo sapiens

>  <Target Description>
Target is a single protein chain

>  <Sequence Accession>
P08684

>  <Reference>
Bioorg Med Chem Lett 18 (8), 2725-2729 (2008)

>  <Pubmed ID>
18374569

>  <DOI>
10.1016/j.bmcl.2008.02.076

$$$$
427771
Actelion Java MolfileCreator 1.0

 34 37  0  0  0  0  0  0  0  0999 V2000
    0.0000   -0.0000   -0.0000 F   0  0  0  0  0  0  0  0  0  0  0  0
   -1.3252   -0.7283   -0.0000 C   0  0  0  0  0  0  0  0  0  0  0  0
   -1.3491   -2.2206   -0.0000 C   0  0  0  0  0  0  0  0  0  0  0  0
   -2.6385    0.0478   -0.0000 C   0  0  0  0  0  0  0  0  0  0  0  0
   -0.0597   -2.9728   -0.0000 N   0  0  0  0  0  0  0  0  0  0  0  0
   -2.6743   -2.9489   -0.0000 C   0  0  0  0  0  0  0  0  0  0  0  0
   -3.9637   -0.6805   -0.0000 C   0  0  0  0  0  0  0  0  0  0  0  0
    1.2416   -2.2206   -0.0000 C   0  0  0  0  0  0  0  0  0  0  0  0
   -3.9876   -2.1729   -0.0000 C   0  0  0  0  0  0  0  0  0  0  0  0
    1.2416   -0.7044   -0.0000 O   0  0  0  0  0  0  0  0  0  0  0  0
    2.5310   -2.9728   -0.0000 C   0  0  0  0  0  0  0  0  0  0  0  0
    3.8324   -2.2206   -0.0000 C   0  0  0  0  0  0  0  0  0  0  0  0
    5.1218   -2.9728   -0.0000 N   0  0  0  0  0  0  0  0  0  0  0  0
    6.4112   -2.2206   -0.0000 C   0  0  0  0  0  0  0  0  0  0  0  0
    5.0860   -4.4651   -0.0000 C   0  0  0  0  0  0  0  0  0  0  0  0
    7.6886   -2.9728   -0.0000 C   0  0  0  0  0  0  0  0  0  0  0  0
    6.3754   -5.2173   -0.0000 C   0  0  0  0  0  0  0  0  0  0  0  0
    7.6648   -4.4651   -0.0000 C   0  0  0  0  0  0  0  0  0  0  0  0
    8.9661   -5.2173   -0.0000 C   0  0  0  0  0  0  0  0  0  0  0  0
    8.9422   -6.7097   -0.0000 C   0  0  0  0  0  0  0  0  0  0  0  0
   10.2555   -4.4651   -0.0000 C   0  0  0  0  0  0  0  0  0  0  0  0
   10.2316   -7.4618   -0.0000 C   0  0  0  0  0  0  0  0  0  0  0  0
   11.5449   -5.2054   -0.0000 C   0  0  0  0  0  0  0  0  0  0  0  0
   11.5330   -6.7097   -0.0000 C   0  0  0  0  0  0  0  0  0  0  0  0
   12.8224   -7.4618   -0.0000 C   0  0  0  0  0  0  0  0  0  0  0  0
   12.7985   -8.9542   -0.0000 O   0  0  0  0  0  0  0  0  0  0  0  0
   14.1237   -6.6977   -0.0000 N   0  0  0  0  0  0  0  0  0  0  0  0
   15.4131   -7.4499   -0.0000 C   0  0  0  0  0  0  0  0  0  0  0  0
   16.7025   -6.6858   -0.0000 C   0  0  0  0  0  0  0  0  0  0  0  0
   15.3892   -8.9542   -0.0000 C   0  0  0  0  0  0  0  0  0  0  0  0
   16.6906   -5.1695   -0.0000 N   0  0  0  0  0  0  0  0  0  0  0  0
   17.9919   -7.4260   -0.0000 C   0  0  0  0  0  0  0  0  0  0  0  0
   16.6786   -9.7063   -0.0000 C   0  0  0  0  0  0  0  0  0  0  0  0
   17.9800   -8.9303   -0.0000 C   0  0  0  0  0  0  0  0  0  0  0  0
  1  2  1  0  0  0  0
  2  3  2  0  0  0  0
  2  4  1  0  0  0  0
  3  5  1  0  0  0  0
  3  6  1  0  0  0  0
  4  7  2  0  0  0  0
  5  8  1  0  0  0  0
  6  9  2  0  0  0  0
  8 10  2  0  0  0  0
  8 11  1  0  0  0  0
 11 12  1  0  0  0  0
 12 13  1  0  0  0  0
 13 14  1  0  0  0  0
 13 15  1  0  0  0  0
 14 16  1  0  0  0  0
 15 17  1  0  0  0  0
 16 18  1  0  0  0  0
 18 19  1  0  0  0  0
 19 20  2  0  0  0  0
 19 21  1  0  0  0  0
 20 22  1  0  0  0  0
 21 23  2  0  0  0  0
 22 24  2  0  0  0  0
 24 25  1  0  0  0  0
 25 26  2  0  0  0  0
 25 27  1  0  0  0  0
 27 28  1  0  0  0  0
 28 29  2  0  0  0  0
 28 30  1  0  0  0  0
 29 31  1  0  0  0  0
 29 32  1  0  0  0  0
 30 33  2  0  0  0  0
 32 34  2  0  0  0  0
  7  9  1  0  0  0  0
 17 18  1  0  0  0  0
 23 24  1  0  0  0  0
 33 34  1  0  0  0  0
M  END
>  <MolRegNo>
427771

>  <m>
=

>  <Value>
10000

>  <Unit>
nM

>  <Type>
IC50

>  <pValue>
5

>  <Ligand Efficiency>
0

>  <Binding Efficiency>
0

>  <Surface Efficiency>
0

>  <Assay Index>
326680

>  <Assay Category>


>  <Assay Organism>


>  <Target ID>
17045

>  <Target Name>
Cytochrome P450 3A4

>  <Target Organism>
Homo sapiens

>  <Target Description>
Target is a single protein chain

>  <Sequence Accession>
P08684

>  <Reference>
Bioorg Med Chem Lett 18 (8), 2580-2584 (2008)

>  <Pubmed ID>
18378449

>  <DOI>
10.1016/j.bmcl.2008.03.041

$$$$
427399
Actelion Java MolfileCreator 1.0

 30 34  0  0  0  0  0  0  0  0999 V2000
    0.0000   -0.0000   -0.0000 O   0  0  0  0  0  0  0  0  0  0  0  0
   -1.4408    0.4724   -0.0000 C   0  0  0  0  0  0  0  0  0  0  0  0
    0.8739    1.2282   -0.0000 C   0  0  0  0  0  0  0  0  0  0  0  0
   -1.4526    1.9840   -0.0000 N   0  0  0  0  0  0  0  0  0  0  0  0
   -2.6690   -0.4015   -0.0000 N   0  0  0  0  0  0  0  0  0  0  0  0
   -0.0236    2.4446   -0.0000 N   0  0  0  0  0  0  0  0  0  0  0  0
    2.3620    1.2400   -0.0000 C   0  0  0  0  0  0  0  0  0  0  0  0
   -4.0508    0.2244   -0.0000 C   0  0  0  0  0  0  0  0  0  0  0  0
    3.2359    2.4801   -0.0000 C   0  0  0  0  0  0  0  0  0  0  0  0
    3.2359    0.0236   -0.0000 C   0  0  0  0  0  0  0  0  0  0  0  0
    4.6649    2.0195   -0.0000 C   0  0  0  0  0  0  0  0  0  0  0  0
    2.7635    3.9208   -0.0000 C   0  0  0  0  0  0  0  0  0  0  0  0
    4.6649    0.5078   -0.0000 N   0  0  0  0  0  0  0  0  0  0  0  0
    5.9521    2.7753   -0.0000 C   0  0  0  0  0  0  0  0  0  0  0  0
    3.7555    5.0428   -0.0000 C   0  0  0  0  0  0  0  0  0  0  0  0
    1.2873    4.2397   -0.0000 C   0  0  0  0  0  0  0  0  0  0  0  0
    5.9521   -0.2244   -0.0000 N   0  0  0  0  0  0  0  0  0  0  0  0
    7.2512    2.0313   -0.0000 N   0  0  0  0  0  0  0  0  0  0  0  0
    5.9403    4.2869   -0.0000 N   0  0  0  0  0  0  0  0  0  0  0  0
    7.2512    0.5314   -0.0000 C   0  0  0  0  0  0  0  0  0  0  0  0
    7.2276    5.0428   -0.0000 C   0  0  0  0  0  0  0  0  0  0  0  0
    7.2158    6.5426   -0.0000 C   0  0  0  0  0  0  0  0  0  0  0  0
    8.5149    4.2988   -0.0000 C   0  0  0  0  0  0  0  0  0  0  0  0
    8.5030    7.3103   -0.0000 N   0  0  0  0  0  0  0  0  0  0  0  0
    9.7903    5.0664   -0.0000 C   0  0  0  0  0  0  0  0  0  0  0  0
    9.8021    6.5662   -0.0000 C   0  0  0  0  0  0  0  0  0  0  0  0
   11.1957    4.6058   -0.0000 C   0  0  0  0  0  0  0  0  0  0  0  0
   11.2193    7.0268   -0.0000 N   0  0  0  0  0  0  0  0  0  0  0  0
   12.0696    5.8222   -0.0000 C   0  0  0  0  0  0  0  0  0  0  0  0
   13.5576    5.8222   -0.0000 C   0  0  0  0  0  0  0  0  0  0  0  0
  1  2  1  0  0  0  0
  1  3  1  0  0  0  0
  2  4  2  0  0  0  0
  2  5  1  0  0  0  0
  3  6  2  0  0  0  0
  3  7  1  0  0  0  0
  5  8  1  0  0  0  0
  7  9  1  0  0  0  0
  7 10  2  0  0  0  0
  9 11  2  0  0  0  0
  9 12  1  0  0  0  0
 10 13  1  0  0  0  0
 11 14  1  0  0  0  0
 12 15  1  0  0  0  0
 12 16  1  0  0  0  0
 13 17  1  0  0  0  0
 14 18  2  0  0  0  0
 14 19  1  0  0  0  0
 17 20  2  0  0  0  0
 19 21  1  0  0  0  0
 21 22  2  0  0  0  0
 21 23  1  0  0  0  0
 22 24  1  0  0  0  0
 23 25  2  0  0  0  0
 24 26  2  0  0  0  0
 25 27  1  0  0  0  0
 26 28  1  0  0  0  0
 27 29  2  0  0  0  0
 29 30  1  0  0  0  0
  4  6  1  0  0  0  0
 11 13  1  0  0  0  0
 18 20  1  0  0  0  0
 25 26  1  0  0  0  0
 28 29  1  0  0  0  0
M  END
>  <MolRegNo>
427399

>  <m>
=

>  <Value>
6400

>  <Unit>
nM

>  <Type>
IC50

>  <pValue>
5.19

>  <Ligand Efficiency>
0

>  <Binding Efficiency>
0

>  <Surface Efficiency>
0

>  <Assay Index>
328403

>  <Assay Category>


>  <Assay Organism>


>  <Target ID>
17045

>  <Target Name>
Cytochrome P450 3A4

>  <Target Organism>
Homo sapiens

>  <Target Description>
Target is a single protein chain

>  <Sequence Accession>
P08684

>  <Reference>
Bioorg Med Chem Lett 18 (9), 2985-2989 (2008)

>  <Pubmed ID>
18395443

>  <DOI>
10.1016/j.bmcl.2008.03.057

$$$$
427497
Actelion Java MolfileCreator 1.0

 29 33  0  0  0  0  0  0  0  0999 V2000
    0.0000   -0.0000   -0.0000 O   0  0  0  0  0  0  0  0  0  0  0  0
    0.8737    1.2279   -0.0000 C   0  0  0  0  0  0  0  0  0  0  0  0
   -1.4404    0.4723   -0.0000 C   0  0  0  0  0  0  0  0  0  0  0  0
   -0.0236    2.4440   -0.0000 N   0  0  0  0  0  0  0  0  0  0  0  0
    2.3613    1.2397   -0.0000 C   0  0  0  0  0  0  0  0  0  0  0  0
   -1.4522    1.9835   -0.0000 N   0  0  0  0  0  0  0  0  0  0  0  0
   -2.6683   -0.4014   -0.0000 C   0  0  0  0  0  0  0  0  0  0  0  0
    3.2350    2.4794   -0.0000 C   0  0  0  0  0  0  0  0  0  0  0  0
    3.2350    0.0236   -0.0000 C   0  0  0  0  0  0  0  0  0  0  0  0
    4.6637    2.0190   -0.0000 C   0  0  0  0  0  0  0  0  0  0  0  0
    2.7628    3.9198   -0.0000 C   0  0  0  0  0  0  0  0  0  0  0  0
    4.6637    0.5077   -0.0000 N   0  0  0  0  0  0  0  0  0  0  0  0
    5.9506    2.7864   -0.0000 C   0  0  0  0  0  0  0  0  0  0  0  0
    3.7545    5.0415   -0.0000 C   0  0  0  0  0  0  0  0  0  0  0  0
    1.2869    4.2386   -0.0000 C   0  0  0  0  0  0  0  0  0  0  0  0
    5.9506   -0.2361   -0.0000 N   0  0  0  0  0  0  0  0  0  0  0  0
    7.2493    2.0426   -0.0000 N   0  0  0  0  0  0  0  0  0  0  0  0
    5.9388    4.2977   -0.0000 N   0  0  0  0  0  0  0  0  0  0  0  0
    7.2493    0.5313   -0.0000 C   0  0  0  0  0  0  0  0  0  0  0  0
    7.2257    5.0533   -0.0000 C   0  0  0  0  0  0  0  0  0  0  0  0
    7.2139    6.5527   -0.0000 C   0  0  0  0  0  0  0  0  0  0  0  0
    8.5127    4.3095   -0.0000 C   0  0  0  0  0  0  0  0  0  0  0  0
    8.5008    7.3202   -0.0000 N   0  0  0  0  0  0  0  0  0  0  0  0
    9.7878    5.0769   -0.0000 C   0  0  0  0  0  0  0  0  0  0  0  0
    9.7996    6.5764   -0.0000 C   0  0  0  0  0  0  0  0  0  0  0  0
   11.1928    4.6164   -0.0000 C   0  0  0  0  0  0  0  0  0  0  0  0
   11.2164    7.0368   -0.0000 N   0  0  0  0  0  0  0  0  0  0  0  0
   12.0665    5.8325   -0.0000 C   0  0  0  0  0  0  0  0  0  0  0  0
   13.5541    5.8325   -0.0000 C   0  0  0  0  0  0  0  0  0  0  0  0
  1  2  1  0  0  0  0
  1  3  1  0  0  0  0
  2  4  2  0  0  0  0
  2  5  1  0  0  0  0
  3  6  2  0  0  0  0
  3  7  1  0  0  0  0
  5  8  1  0  0  0  0
  5  9  2  0  0  0  0
  8 10  2  0  0  0  0
  8 11  1  0  0  0  0
  9 12  1  0  0  0  0
 10 13  1  0  0  0  0
 11 14  1  0  0  0  0
 11 15  1  0  0  0  0
 12 16  1  0  0  0  0
 13 17  2  0  0  0  0
 13 18  1  0  0  0  0
 16 19  2  0  0  0  0
 18 20  1  0  0  0  0
 20 21  2  0  0  0  0
 20 22  1  0  0  0  0
 21 23  1  0  0  0  0
 22 24  2  0  0  0  0
 23 25  2  0  0  0  0
 24 26  1  0  0  0  0
 25 27  1  0  0  0  0
 26 28  2  0  0  0  0
 28 29  1  0  0  0  0
  4  6  1  0  0  0  0
 10 12  1  0  0  0  0
 17 19  1  0  0  0  0
 24 25  1  0  0  0  0
 27 28  1  0  0  0  0
M  END
>  <MolRegNo>
427497

>  <m>
=

>  <Value>
11500

>  <Unit>
nM

>  <Type>
IC50

>  <pValue>
4.94

>  <Ligand Efficiency>
0

>  <Binding Efficiency>
0

>  <Surface Efficiency>
0

>  <Assay Index>
328403

>  <Assay Category>


>  <Assay Organism>


>  <Target ID>
17045

>  <Target Name>
Cytochrome P450 3A4

>  <Target Organism>
Homo sapiens

>  <Target Description>
Target is a single protein chain

>  <Sequence Accession>
P08684

>  <Reference>
Bioorg Med Chem Lett 18 (9), 2985-2989 (2008)

>  <Pubmed ID>
18395443

>  <DOI>
10.1016/j.bmcl.2008.03.057

$$$$
425666
Actelion Java MolfileCreator 1.0

 31 34  0  0  0  0  0  0  0  0999 V2000
    0.0000   -0.0000   -0.0000 Cl  0  0  0  0  0  0  0  0  0  0  0  0
    1.2950   -0.7366   -0.0000 C   0  0  0  0  0  0  0  0  0  0  0  0
    1.2831   -2.2336   -0.0000 C   0  0  0  0  0  0  0  0  0  0  0  0
    2.5782    0.0238   -0.0000 C   0  0  0  0  0  0  0  0  0  0  0  0
   -0.0356   -2.9702   -0.0000 Cl  0  0  0  0  0  0  0  0  0  0  0  0
    2.5782   -2.9702   -0.0000 C   0  0  0  0  0  0  0  0  0  0  0  0
    3.8732   -0.7129   -0.0000 C   0  0  0  0  0  0  0  0  0  0  0  0
    3.8732   -2.2099   -0.0000 C   0  0  0  0  0  0  0  0  0  0  0  0
    5.1563    0.0594   -0.0000 N   0  0  0  0  0  0  0  0  0  0  0  0
    6.4514   -0.6772   -0.0000 C   0  0  0  0  0  0  0  0  0  0  0  0
    5.1445    1.5802   -0.0000 C   0  0  0  0  0  0  0  0  0  0  0  0
    7.7345    0.0950   -0.0000 C   0  0  0  0  0  0  0  0  0  0  0  0
    9.0295   -0.6416   -0.0000 O   0  0  0  0  0  0  0  0  0  0  0  0
    7.7226    1.6158   -0.0000 N   0  0  0  0  0  0  0  0  0  0  0  0
    9.0176    2.3881   -0.0000 C   0  0  0  0  0  0  0  0  0  0  0  0
    6.4157    2.3762   -0.0000 C   0  0  0  0  0  0  0  0  0  0  0  0
    9.0058    3.8970   -0.0000 C   0  0  0  0  0  0  0  0  0  0  0  0
   10.3127    1.6515   -0.0000 C   0  0  0  0  0  0  0  0  0  0  0  0
    6.4038    3.8970   -0.0000 C   0  0  0  0  0  0  0  0  0  0  0  0
   10.3008    4.6573   -0.0000 C   0  0  0  0  0  0  0  0  0  0  0  0
    7.6870    4.6573   -0.0000 C   0  0  0  0  0  0  0  0  0  0  0  0
   11.6077    2.4118   -0.0000 N   0  0  0  0  0  0  0  0  0  0  0  0
   11.5958    3.9088   -0.0000 C   0  0  0  0  0  0  0  0  0  0  0  0
   10.2889    6.1662   -0.0000 C   0  0  0  0  0  0  0  0  0  0  0  0
   12.3443    1.1287   -0.0000 C   0  0  0  0  0  0  0  0  0  0  0  0
   12.6057    3.5286   -0.0000 C   0  0  0  0  0  0  0  0  0  0  0  0
   12.8908    4.6692   -0.0000 C   0  0  0  0  0  0  0  0  0  0  0  0
   11.5721    6.9385   -0.0000 C   0  0  0  0  0  0  0  0  0  0  0  0
   13.7938    1.4495   -0.0000 C   0  0  0  0  0  0  0  0  0  0  0  0
   13.9601    2.9227   -0.0000 C   0  0  0  0  0  0  0  0  0  0  0  0
   12.8790    6.1900   -0.0000 C   0  0  0  0  0  0  0  0  0  0  0  0
  1  2  1  0  0  0  0
  2  3  2  0  0  0  0
  2  4  1  0  0  0  0
  3  5  1  0  0  0  0
  3  6  1  0  0  0  0
  4  7  2  0  0  0  0
  6  8  2  0  0  0  0
  7  9  1  0  0  0  0
  9 10  1  0  0  0  0
  9 11  1  0  0  0  0
 10 12  1  0  0  0  0
 12 13  2  0  0  0  0
 12 14  1  0  0  0  0
 14 15  1  0  0  0  0
 14 16  1  0  0  0  0
 15 17  1  0  0  0  0
 15 18  1  6  0  0  0
 16 19  1  0  0  0  0
 17 20  1  6  0  0  0
 17 21  1  0  0  0  0
 18 22  1  0  0  0  0
 20 23  2  0  0  0  0
 20 24  1  0  0  0  0
 22 25  1  0  0  0  0
 22 26  1  0  0  0  0
 23 27  1  0  0  0  0
 24 28  2  0  0  0  0
 25 29  1  0  0  0  0
 26 30  1  0  0  0  0
 27 31  2  0  0  0  0
  7  8  1  0  0  0  0
 19 21  1  0  0  0  0
 28 31  1  0  0  0  0
 29 30  1  0  0  0  0
M  END
>  <MolRegNo>
425666

>  <m>
=

>  <Value>
1400

>  <Unit>
nM

>  <Type>
IC50

>  <pValue>
5.85

>  <Ligand Efficiency>
0

>  <Binding Efficiency>
0

>  <Surface Efficiency>
0

>  <Assay Index>
328653

>  <Assay Category>


>  <Assay Organism>


>  <Target ID>
17045

>  <Target Name>
Cytochrome P450 3A4

>  <Target Organism>
Homo sapiens

>  <Target Description>
Target is a single protein chain

>  <Sequence Accession>
P08684

>  <Reference>
Bioorg Med Chem Lett 18 (9), 2860-2864 (2008)

>  <Pubmed ID>
18420409

>  <DOI>
10.1016/j.bmcl.2008.03.078

$$$$
426287
Actelion Java MolfileCreator 1.0

 31 34  0  0  0  0  0  0  0  0999 V2000
    0.0000   -0.0000   -0.0000 Cl  0  0  0  0  0  0  0  0  0  0  0  0
    1.2950   -0.7366   -0.0000 C   0  0  0  0  0  0  0  0  0  0  0  0
    1.2831   -2.2336   -0.0000 C   0  0  0  0  0  0  0  0  0  0  0  0
    2.5782    0.0238   -0.0000 C   0  0  0  0  0  0  0  0  0  0  0  0
   -0.0356   -2.9702   -0.0000 Cl  0  0  0  0  0  0  0  0  0  0  0  0
    2.5782   -2.9702   -0.0000 C   0  0  0  0  0  0  0  0  0  0  0  0
    3.8732   -0.7129   -0.0000 C   0  0  0  0  0  0  0  0  0  0  0  0
    3.8732   -2.2099   -0.0000 C   0  0  0  0  0  0  0  0  0  0  0  0
    5.1563    0.0594   -0.0000 N   0  0  0  0  0  0  0  0  0  0  0  0
    6.4514   -0.6772   -0.0000 C   0  0  0  0  0  0  0  0  0  0  0  0
    5.1445    1.5802   -0.0000 C   0  0  0  0  0  0  0  0  0  0  0  0
    7.7345    0.0950   -0.0000 C   0  0  0  0  0  0  0  0  0  0  0  0
    9.0295   -0.6416   -0.0000 O   0  0  0  0  0  0  0  0  0  0  0  0
    7.7226    1.6158   -0.0000 N   0  0  0  0  0  0  0  0  0  0  0  0
    9.0176    2.3881   -0.0000 C   0  0  0  0  0  0  0  0  0  0  0  0
    6.4157    2.3762   -0.0000 C   0  0  0  0  0  0  0  0  0  0  0  0
    9.0058    3.8970   -0.0000 C   0  0  0  0  0  0  0  0  0  0  0  0
   10.3127    1.6515   -0.0000 C   0  0  0  0  0  0  0  0  0  0  0  0
    6.4038    3.8970   -0.0000 C   0  0  0  0  0  0  0  0  0  0  0  0
   10.3008    4.6573   -0.0000 C   0  0  0  0  0  0  0  0  0  0  0  0
    7.6870    4.6573   -0.0000 C   0  0  0  0  0  0  0  0  0  0  0  0
   11.6077    2.4118   -0.0000 N   0  0  0  0  0  0  0  0  0  0  0  0
   11.5958    3.9088   -0.0000 C   0  0  0  0  0  0  0  0  0  0  0  0
   10.2889    6.1662   -0.0000 C   0  0  0  0  0  0  0  0  0  0  0  0
   12.3443    1.1287   -0.0000 C   0  0  0  0  0  0  0  0  0  0  0  0
   12.6057    3.5286   -0.0000 C   0  0  0  0  0  0  0  0  0  0  0  0
   12.8908    4.6692   -0.0000 C   0  0  0  0  0  0  0  0  0  0  0  0
   11.5721    6.9385   -0.0000 C   0  0  0  0  0  0  0  0  0  0  0  0
   13.7938    1.4495   -0.0000 C   0  0  0  0  0  0  0  0  0  0  0  0
   13.9601    2.9227   -0.0000 C   0  0  0  0  0  0  0  0  0  0  0  0
   12.8790    6.1900   -0.0000 C   0  0  0  0  0  0  0  0  0  0  0  0
  1  2  1  0  0  0  0
  2  3  2  0  0  0  0
  2  4  1  0  0  0  0
  3  5  1  0  0  0  0
  3  6  1  0  0  0  0
  4  7  2  0  0  0  0
  6  8  2  0  0  0  0
  7  9  1  0  0  0  0
  9 10  1  0  0  0  0
  9 11  1  0  0  0  0
 10 12  1  0  0  0  0
 12 13  2  0  0  0  0
 12 14  1  0  0  0  0
 14 15  1  0  0  0  0
 14 16  1  0  0  0  0
 15 17  1  0  0  0  0
 15 18  1  0  0  0  0
 16 19  1  0  0  0  0
 17 20  1  0  0  0  0
 17 21  1  0  0  0  0
 18 22  1  0  0  0  0
 20 23  2  0  0  0  0
 20 24  1  0  0  0  0
 22 25  1  0  0  0  0
 22 26  1  0  0  0  0
 23 27  1  0  0  0  0
 24 28  2  0  0  0  0
 25 29  1  0  0  0  0
 26 30  1  0  0  0  0
 27 31  2  0  0  0  0
  7  8  1  0  0  0  0
 19 21  1  0  0  0  0
 28 31  1  0  0  0  0
 29 30  1  0  0  0  0
M  END
>  <MolRegNo>
426287

>  <m>
=

>  <Value>
1400

>  <Unit>
nM

>  <Type>
IC50

>  <pValue>
5.85

>  <Ligand Efficiency>
0

>  <Binding Efficiency>
0

>  <Surface Efficiency>
0

>  <Assay Index>
328212

>  <Assay Category>


>  <Assay Organism>


>  <Target ID>
17045

>  <Target Name>
Cytochrome P450 3A4

>  <Target Organism>
Homo sapiens

>  <Target Description>
Target is a single protein chain

>  <Sequence Accession>
P08684

>  <Reference>
Bioorg Med Chem Lett 18 (12), 3500-3503 (2008)

>  <Pubmed ID>
18502123

>  <DOI>
10.1016/j.bmcl.2008.05.027

$$$$
426426
Actelion Java MolfileCreator 1.0

 33 37  0  0  0  0  0  0  0  0999 V2000
    0.0000   -0.0000   -0.0000 Cl  0  0  0  0  0  0  0  0  0  0  0  0
    1.4739   -0.2377   -0.0000 C   0  0  0  0  0  0  0  0  0  0  0  0
    2.4248    0.9271   -0.0000 C   0  0  0  0  0  0  0  0  0  0  0  0
    1.9850   -1.6403   -0.0000 C   0  0  0  0  0  0  0  0  0  0  0  0
    3.8868    0.6894   -0.0000 C   0  0  0  0  0  0  0  0  0  0  0  0
    3.4470   -1.8780   -0.0000 C   0  0  0  0  0  0  0  0  0  0  0  0
    5.0398    1.6403   -0.0000 N   0  0  0  0  0  0  0  0  0  0  0  0
    4.3980   -0.7132   -0.0000 C   0  0  0  0  0  0  0  0  0  0  0  0
    6.2879    0.8202   -0.0000 C   0  0  0  0  0  0  0  0  0  0  0  0
    4.9685    3.1499   -0.0000 C   0  0  0  0  0  0  0  0  0  0  0  0
    5.8838   -0.6419   -0.0000 S   0  0  0  0  0  0  0  0  0  0  0  0
    7.6905    1.3550   -0.0000 O   0  0  0  0  0  0  0  0  0  0  0  0
    6.2641    3.9106   -0.0000 C   0  0  0  0  0  0  0  0  0  0  0  0
    7.5597    3.1737   -0.0000 O   0  0  0  0  0  0  0  0  0  0  0  0
    6.2403    5.4321   -0.0000 N   0  0  0  0  0  0  0  0  0  0  0  0
    7.5360    6.1928   -0.0000 C   0  0  0  0  0  0  0  0  0  0  0  0
    4.9210    6.1809   -0.0000 C   0  0  0  0  0  0  0  0  0  0  0  0
    7.5241    7.7024   -0.0000 C   0  0  0  0  0  0  0  0  0  0  0  0
    8.4393    5.0160   -0.0000 C   0  0  0  0  0  0  0  0  0  0  0  0
    4.9091    7.7024   -0.0000 C   0  0  0  0  0  0  0  0  0  0  0  0
    8.8197    8.4631   -0.0000 C   0  0  0  0  0  0  0  0  0  0  0  0
    6.2047    8.4631   -0.0000 C   0  0  0  0  0  0  0  0  0  0  0  0
    9.9132    5.2300   -0.0000 N   0  0  0  0  0  0  0  0  0  0  0  0
   10.1153    7.7261   -0.0000 C   0  0  0  0  0  0  0  0  0  0  0  0
    8.8078    9.9727   -0.0000 C   0  0  0  0  0  0  0  0  0  0  0  0
   10.8166    4.0533   -0.0000 C   0  0  0  0  0  0  0  0  0  0  0  0
   10.4719    6.6326   -0.0000 C   0  0  0  0  0  0  0  0  0  0  0  0
   11.3990    8.4869   -0.0000 C   0  0  0  0  0  0  0  0  0  0  0  0
   10.0915   10.7453   -0.0000 C   0  0  0  0  0  0  0  0  0  0  0  0
   12.2905    4.2553   -0.0000 C   0  0  0  0  0  0  0  0  0  0  0  0
   11.9577    6.8347   -0.0000 C   0  0  0  0  0  0  0  0  0  0  0  0
   11.3871   10.0083   -0.0000 C   0  0  0  0  0  0  0  0  0  0  0  0
   12.8611    5.6579   -0.0000 O   0  0  0  0  0  0  0  0  0  0  0  0
  1  2  1  0  0  0  0
  2  3  2  0  0  0  0
  2  4  1  0  0  0  0
  3  5  1  0  0  0  0
  4  6  2  0  0  0  0
  5  7  1  0  0  0  0
  5  8  2  0  0  0  0
  7  9  1  0  0  0  0
  7 10  1  0  0  0  0
  8 11  1  0  0  0  0
  9 12  2  0  0  0  0
 10 13  1  0  0  0  0
 13 14  2  0  0  0  0
 13 15  1  0  0  0  0
 15 16  1  0  0  0  0
 15 17  1  0  0  0  0
 16 18  1  0  0  0  0
 16 19  1  0  0  0  0
 17 20  1  0  0  0  0
 18 21  1  0  0  0  0
 18 22  1  0  0  0  0
 19 23  1  0  0  0  0
 21 24  2  0  0  0  0
 21 25  1  0  0  0  0
 23 26  1  0  0  0  0
 23 27  1  0  0  0  0
 24 28  1  0  0  0  0
 25 29  2  0  0  0  0
 26 30  1  0  0  0  0
 27 31  1  0  0  0  0
 28 32  2  0  0  0  0
 30 33  1  0  0  0  0
  6  8  1  0  0  0  0
  9 11  1  0  0  0  0
 20 22  1  0  0  0  0
 29 32  1  0  0  0  0
 31 33  1  0  0  0  0
M  END
>  <MolRegNo>
426426

>  <m>
=

>  <Value>
680

>  <Unit>
nM

>  <Type>
IC50

>  <pValue>
6.17

>  <Ligand Efficiency>
0

>  <Binding Efficiency>
0

>  <Surface Efficiency>
0

>  <Assay Index>
328212

>  <Assay Category>


>  <Assay Organism>


>  <Target ID>
17045

>  <Target Name>
Cytochrome P450 3A4

>  <Target Organism>
Homo sapiens

>  <Target Description>
Target is a single protein chain

>  <Sequence Accession>
P08684

>  <Reference>
Bioorg Med Chem Lett 18 (12), 3500-3503 (2008)

>  <Pubmed ID>
18502123

>  <DOI>
10.1016/j.bmcl.2008.05.027

$$$$
426429
Actelion Java MolfileCreator 1.0

 32 36  0  0  0  0  0  0  0  0999 V2000
    0.0000   -0.0000   -0.0000 Cl  0  0  0  0  0  0  0  0  0  0  0  0
    1.4731   -0.2376   -0.0000 C   0  0  0  0  0  0  0  0  0  0  0  0
    2.4234    0.9266   -0.0000 C   0  0  0  0  0  0  0  0  0  0  0  0
    1.9839   -1.6394   -0.0000 C   0  0  0  0  0  0  0  0  0  0  0  0
    3.8846    0.6890   -0.0000 C   0  0  0  0  0  0  0  0  0  0  0  0
    3.4451   -1.8770   -0.0000 C   0  0  0  0  0  0  0  0  0  0  0  0
    5.0369    1.6394   -0.0000 N   0  0  0  0  0  0  0  0  0  0  0  0
    4.3954   -0.7128   -0.0000 C   0  0  0  0  0  0  0  0  0  0  0  0
    6.2843    0.8197   -0.0000 C   0  0  0  0  0  0  0  0  0  0  0  0
    4.9656    3.1599   -0.0000 C   0  0  0  0  0  0  0  0  0  0  0  0
    5.8922   -0.6415   -0.0000 S   0  0  0  0  0  0  0  0  0  0  0  0
    7.6860    1.3543   -0.0000 O   0  0  0  0  0  0  0  0  0  0  0  0
    6.2605    3.9202   -0.0000 C   0  0  0  0  0  0  0  0  0  0  0  0
    7.5554    3.1837   -0.0000 O   0  0  0  0  0  0  0  0  0  0  0  0
    6.2367    5.4408   -0.0000 N   0  0  0  0  0  0  0  0  0  0  0  0
    7.5316    6.2011   -0.0000 C   0  0  0  0  0  0  0  0  0  0  0  0
    4.9181    6.1892   -0.0000 C   0  0  0  0  0  0  0  0  0  0  0  0
    7.5197    7.7098   -0.0000 C   0  0  0  0  0  0  0  0  0  0  0  0
    8.4344    5.0250   -0.0000 C   0  0  0  0  0  0  0  0  0  0  0  0
    4.9062    7.7098   -0.0000 C   0  0  0  0  0  0  0  0  0  0  0  0
    8.8146    8.4701   -0.0000 C   0  0  0  0  0  0  0  0  0  0  0  0
    6.2011    8.4701   -0.0000 C   0  0  0  0  0  0  0  0  0  0  0  0
    9.9075    5.2389   -0.0000 N   0  0  0  0  0  0  0  0  0  0  0  0
   10.1095    7.7336   -0.0000 C   0  0  0  0  0  0  0  0  0  0  0  0
    8.8027    9.9788   -0.0000 C   0  0  0  0  0  0  0  0  0  0  0  0
   10.9291    4.1697   -0.0000 C   0  0  0  0  0  0  0  0  0  0  0  0
   10.6084    6.5812   -0.0000 C   0  0  0  0  0  0  0  0  0  0  0  0
   11.3924    8.4938   -0.0000 C   0  0  0  0  0  0  0  0  0  0  0  0
   10.0857   10.7509   -0.0000 C   0  0  0  0  0  0  0  0  0  0  0  0
   12.2715    4.8350   -0.0000 C   0  0  0  0  0  0  0  0  0  0  0  0
   12.0815    6.3199   -0.0000 C   0  0  0  0  0  0  0  0  0  0  0  0
   11.3806   10.0144   -0.0000 C   0  0  0  0  0  0  0  0  0  0  0  0
  1  2  1  0  0  0  0
  2  3  2  0  0  0  0
  2  4  1  0  0  0  0
  3  5  1  0  0  0  0
  4  6  2  0  0  0  0
  5  7  1  0  0  0  0
  5  8  2  0  0  0  0
  7  9  1  0  0  0  0
  7 10  1  0  0  0  0
  8 11  1  0  0  0  0
  9 12  2  0  0  0  0
 10 13  1  0  0  0  0
 13 14  2  0  0  0  0
 13 15  1  0  0  0  0
 15 16  1  0  0  0  0
 15 17  1  0  0  0  0
 16 18  1  0  0  0  0
 16 19  1  0  0  0  0
 17 20  1  0  0  0  0
 18 21  1  0  0  0  0
 18 22  1  0  0  0  0
 19 23  1  0  0  0  0
 21 24  2  0  0  0  0
 21 25  1  0  0  0  0
 23 26  1  0  0  0  0
 23 27  1  0  0  0  0
 24 28  1  0  0  0  0
 25 29  2  0  0  0  0
 26 30  1  0  0  0  0
 27 31  1  0  0  0  0
 28 32  2  0  0  0  0
  6  8  1  0  0  0  0
  9 11  1  0  0  0  0
 20 22  1  0  0  0  0
 29 32  1  0  0  0  0
 30 31  1  0  0  0  0
M  END
>  <MolRegNo>
426429

>  <m>
=

>  <Value>
1000

>  <Unit>
nM

>  <Type>
IC50

>  <pValue>
6

>  <Ligand Efficiency>
0

>  <Binding Efficiency>
0

>  <Surface Efficiency>
0

>  <Assay Index>
328212

>  <Assay Category>


>  <Assay Organism>


>  <Target ID>
17045

>  <Target Name>
Cytochrome P450 3A4

>  <Target Organism>
Homo sapiens

>  <Target Description>
Target is a single protein chain

>  <Sequence Accession>
P08684

>  <Reference>
Bioorg Med Chem Lett 18 (12), 3500-3503 (2008)

>  <Pubmed ID>
18502123

>  <DOI>
10.1016/j.bmcl.2008.05.027

$$$$
426486
Actelion Java MolfileCreator 1.0

 33 37  0  0  0  0  0  0  0  0999 V2000
    0.0000   -0.0000   -0.0000 Cl  0  0  0  0  0  0  0  0  0  0  0  0
    1.4739   -0.2377   -0.0000 C   0  0  0  0  0  0  0  0  0  0  0  0
    2.4248    0.9271   -0.0000 C   0  0  0  0  0  0  0  0  0  0  0  0
    1.9850   -1.6403   -0.0000 C   0  0  0  0  0  0  0  0  0  0  0  0
    3.8868    0.6894   -0.0000 C   0  0  0  0  0  0  0  0  0  0  0  0
    3.4470   -1.8780   -0.0000 C   0  0  0  0  0  0  0  0  0  0  0  0
    5.0398    1.6403   -0.0000 N   0  0  0  0  0  0  0  0  0  0  0  0
    4.3980   -0.7132   -0.0000 C   0  0  0  0  0  0  0  0  0  0  0  0
    6.2879    0.8202   -0.0000 C   0  0  0  0  0  0  0  0  0  0  0  0
    4.9685    3.1499   -0.0000 C   0  0  0  0  0  0  0  0  0  0  0  0
    5.8838   -0.6419   -0.0000 O   0  0  0  0  0  0  0  0  0  0  0  0
    7.6905    1.3550   -0.0000 O   0  0  0  0  0  0  0  0  0  0  0  0
    6.2641    3.9106   -0.0000 C   0  0  0  0  0  0  0  0  0  0  0  0
    7.5597    3.1737   -0.0000 O   0  0  0  0  0  0  0  0  0  0  0  0
    6.2403    5.4321   -0.0000 N   0  0  0  0  0  0  0  0  0  0  0  0
    7.5360    6.1928   -0.0000 C   0  0  0  0  0  0  0  0  0  0  0  0
    4.9210    6.1809   -0.0000 C   0  0  0  0  0  0  0  0  0  0  0  0
    7.5241    7.7024   -0.0000 C   0  0  0  0  0  0  0  0  0  0  0  0
    8.4393    5.0160   -0.0000 C   0  0  0  0  0  0  0  0  0  0  0  0
    4.9091    7.7024   -0.0000 C   0  0  0  0  0  0  0  0  0  0  0  0
    8.8197    8.4631   -0.0000 C   0  0  0  0  0  0  0  0  0  0  0  0
    6.2047    8.4631   -0.0000 C   0  0  0  0  0  0  0  0  0  0  0  0
    9.9132    5.2300   -0.0000 N   0  0  0  0  0  0  0  0  0  0  0  0
   10.1153    7.7261   -0.0000 C   0  0  0  0  0  0  0  0  0  0  0  0
    8.8078    9.9727   -0.0000 C   0  0  0  0  0  0  0  0  0  0  0  0
   10.8166    4.0533   -0.0000 C   0  0  0  0  0  0  0  0  0  0  0  0
   10.4719    6.6326   -0.0000 C   0  0  0  0  0  0  0  0  0  0  0  0
   11.3990    8.4869   -0.0000 C   0  0  0  0  0  0  0  0  0  0  0  0
   10.0915   10.7453   -0.0000 C   0  0  0  0  0  0  0  0  0  0  0  0
   12.2905    4.2553   -0.0000 C   0  0  0  0  0  0  0  0  0  0  0  0
   11.9577    6.8347   -0.0000 C   0  0  0  0  0  0  0  0  0  0  0  0
   11.3871   10.0083   -0.0000 C   0  0  0  0  0  0  0  0  0  0  0  0
   12.8611    5.6579   -0.0000 O   0  0  0  0  0  0  0  0  0  0  0  0
  1  2  1  0  0  0  0
  2  3  2  0  0  0  0
  2  4  1  0  0  0  0
  3  5  1  0  0  0  0
  4  6  2  0  0  0  0
  5  7  1  0  0  0  0
  5  8  2  0  0  0  0
  7  9  1  0  0  0  0
  7 10  1  0  0  0  0
  8 11  1  0  0  0  0
  9 12  2  0  0  0  0
 10 13  1  0  0  0  0
 13 14  2  0  0  0  0
 13 15  1  0  0  0  0
 15 16  1  0  0  0  0
 15 17  1  0  0  0  0
 16 18  1  0  0  0  0
 16 19  1  0  0  0  0
 17 20  1  0  0  0  0
 18 21  1  0  0  0  0
 18 22  1  0  0  0  0
 19 23  1  0  0  0  0
 21 24  2  0  0  0  0
 21 25  1  0  0  0  0
 23 26  1  0  0  0  0
 23 27  1  0  0  0  0
 24 28  1  0  0  0  0
 25 29  2  0  0  0  0
 26 30  1  0  0  0  0
 27 31  1  0  0  0  0
 28 32  2  0  0  0  0
 30 33  1  0  0  0  0
  6  8  1  0  0  0  0
  9 11  1  0  0  0  0
 20 22  1  0  0  0  0
 29 32  1  0  0  0  0
 31 33  1  0  0  0  0
M  END
>  <MolRegNo>
426486

>  <m>
=

>  <Value>
1300

>  <Unit>
nM

>  <Type>
IC50

>  <pValue>
5.89

>  <Ligand Efficiency>
0

>  <Binding Efficiency>
0

>  <Surface Efficiency>
0

>  <Assay Index>
328212

>  <Assay Category>


>  <Assay Organism>


>  <Target ID>
17045

>  <Target Name>
Cytochrome P450 3A4

>  <Target Organism>
Homo sapiens

>  <Target Description>
Target is a single protein chain

>  <Sequence Accession>
P08684

>  <Reference>
Bioorg Med Chem Lett 18 (12), 3500-3503 (2008)

>  <Pubmed ID>
18502123

>  <DOI>
10.1016/j.bmcl.2008.05.027

$$$$
426537
Actelion Java MolfileCreator 1.0

 32 36  0  0  0  0  0  0  0  0999 V2000
    0.0000   -0.0000   -0.0000 Cl  0  0  0  0  0  0  0  0  0  0  0  0
    1.4734   -0.2376   -0.0000 C   0  0  0  0  0  0  0  0  0  0  0  0
    2.4240    0.9268   -0.0000 C   0  0  0  0  0  0  0  0  0  0  0  0
    1.9843   -1.6397   -0.0000 C   0  0  0  0  0  0  0  0  0  0  0  0
    3.8855    0.6892   -0.0000 C   0  0  0  0  0  0  0  0  0  0  0  0
    3.4458   -1.8774   -0.0000 C   0  0  0  0  0  0  0  0  0  0  0  0
    5.0380    1.6397   -0.0000 N   0  0  0  0  0  0  0  0  0  0  0  0
    4.3964   -0.7129   -0.0000 C   0  0  0  0  0  0  0  0  0  0  0  0
    6.2856    0.8199   -0.0000 C   0  0  0  0  0  0  0  0  0  0  0  0
    4.9667    3.1488   -0.0000 C   0  0  0  0  0  0  0  0  0  0  0  0
    5.8935   -0.6416   -0.0000 O   0  0  0  0  0  0  0  0  0  0  0  0
    7.6877    1.3546   -0.0000 O   0  0  0  0  0  0  0  0  0  0  0  0
    6.2619    3.9092   -0.0000 C   0  0  0  0  0  0  0  0  0  0  0  0
    7.5570    3.1725   -0.0000 O   0  0  0  0  0  0  0  0  0  0  0  0
    6.2381    5.4301   -0.0000 N   0  0  0  0  0  0  0  0  0  0  0  0
    7.5333    6.1906   -0.0000 C   0  0  0  0  0  0  0  0  0  0  0  0
    4.9192    6.1787   -0.0000 C   0  0  0  0  0  0  0  0  0  0  0  0
    7.5214    7.6996   -0.0000 C   0  0  0  0  0  0  0  0  0  0  0  0
    8.4363    5.0143   -0.0000 C   0  0  0  0  0  0  0  0  0  0  0  0
    4.9073    7.6996   -0.0000 C   0  0  0  0  0  0  0  0  0  0  0  0
    8.8165    8.4601   -0.0000 C   0  0  0  0  0  0  0  0  0  0  0  0
    6.2025    8.4601   -0.0000 C   0  0  0  0  0  0  0  0  0  0  0  0
    9.9097    5.2281   -0.0000 N   0  0  0  0  0  0  0  0  0  0  0  0
   10.1117    7.7234   -0.0000 C   0  0  0  0  0  0  0  0  0  0  0  0
    8.8046    9.9691   -0.0000 C   0  0  0  0  0  0  0  0  0  0  0  0
   10.9315    4.1587   -0.0000 C   0  0  0  0  0  0  0  0  0  0  0  0
   10.6107    6.5708   -0.0000 C   0  0  0  0  0  0  0  0  0  0  0  0
   11.3949    8.4838   -0.0000 C   0  0  0  0  0  0  0  0  0  0  0  0
   10.0879   10.7414   -0.0000 C   0  0  0  0  0  0  0  0  0  0  0  0
   12.2742    4.8241   -0.0000 C   0  0  0  0  0  0  0  0  0  0  0  0
   12.0841    6.3094   -0.0000 C   0  0  0  0  0  0  0  0  0  0  0  0
   11.3831   10.0047   -0.0000 C   0  0  0  0  0  0  0  0  0  0  0  0
  1  2  1  0  0  0  0
  2  3  2  0  0  0  0
  2  4  1  0  0  0  0
  3  5  1  0  0  0  0
  4  6  2  0  0  0  0
  5  7  1  0  0  0  0
  5  8  2  0  0  0  0
  7  9  1  0  0  0  0
  7 10  1  0  0  0  0
  8 11  1  0  0  0  0
  9 12  2  0  0  0  0
 10 13  1  0  0  0  0
 13 14  2  0  0  0  0
 13 15  1  0  0  0  0
 15 16  1  0  0  0  0
 15 17  1  0  0  0  0
 16 18  1  0  0  0  0
 16 19  1  0  0  0  0
 17 20  1  0  0  0  0
 18 21  1  0  0  0  0
 18 22  1  0  0  0  0
 19 23  1  0  0  0  0
 21 24  2  0  0  0  0
 21 25  1  0  0  0  0
 23 26  1  0  0  0  0
 23 27  1  0  0  0  0
 24 28  1  0  0  0  0
 25 29  2  0  0  0  0
 26 30  1  0  0  0  0
 27 31  1  0  0  0  0
 28 32  2  0  0  0  0
  6  8  1  0  0  0  0
  9 11  1  0  0  0  0
 20 22  1  0  0  0  0
 29 32  1  0  0  0  0
 30 31  1  0  0  0  0
M  END
>  <MolRegNo>
426537

>  <m>
=

>  <Value>
2100

>  <Unit>
nM

>  <Type>
IC50

>  <pValue>
5.68

>  <Ligand Efficiency>
0

>  <Binding Efficiency>
0

>  <Surface Efficiency>
0

>  <Assay Index>
328212

>  <Assay Category>


>  <Assay Organism>


>  <Target ID>
17045

>  <Target Name>
Cytochrome P450 3A4

>  <Target Organism>
Homo sapiens

>  <Target Description>
Target is a single protein chain

>  <Sequence Accession>
P08684

>  <Reference>
Bioorg Med Chem Lett 18 (12), 3500-3503 (2008)

>  <Pubmed ID>
18502123

>  <DOI>
10.1016/j.bmcl.2008.05.027

$$$$
426583
Actelion Java MolfileCreator 1.0

 35 39  0  0  0  0  0  0  0  0999 V2000
    0.0000   -0.0000   -0.0000 O   0  0  0  0  0  0  0  0  0  0  0  0
   -1.2796   -0.7938   -0.0000 C   0  0  0  0  0  0  0  0  0  0  0  0
   -2.6184   -0.0829   -0.0000 N   0  0  0  0  0  0  0  0  0  0  0  0
   -1.2322   -2.2867   -0.0000 C   0  0  0  0  0  0  0  0  0  0  0  0
   -3.8862   -0.8768   -0.0000 C   0  0  0  0  0  0  0  0  0  0  0  0
   -2.6895    1.4336   -0.0000 C   0  0  0  0  0  0  0  0  0  0  0  0
   -2.5118   -3.0687   -0.0000 N   0  0  0  0  0  0  0  0  0  0  0  0
   -3.8506   -2.3578   -0.0000 C   0  0  0  0  0  0  0  0  0  0  0  0
   -5.2132   -0.1659   -0.0000 C   0  0  0  0  0  0  0  0  0  0  0  0
   -1.3981    2.1919   -0.0000 C   0  0  0  0  0  0  0  0  0  0  0  0
   -5.1184   -3.1398   -0.0000 C   0  0  0  0  0  0  0  0  0  0  0  0
   -6.4928   -0.9479   -0.0000 C   0  0  0  0  0  0  0  0  0  0  0  0
   -0.1066    1.4573   -0.0000 O   0  0  0  0  0  0  0  0  0  0  0  0
   -1.4218    3.7085   -0.0000 N   0  0  0  0  0  0  0  0  0  0  0  0
   -6.4454   -2.4407   -0.0000 C   0  0  0  0  0  0  0  0  0  0  0  0
   -7.8316   -0.2370   -0.0000 C   0  0  0  0  0  0  0  0  0  0  0  0
   -0.1303    4.4667   -0.0000 C   0  0  0  0  0  0  0  0  0  0  0  0
   -2.7369    4.4549   -0.0000 C   0  0  0  0  0  0  0  0  0  0  0  0
   -7.7250   -3.2227   -0.0000 C   0  0  0  0  0  0  0  0  0  0  0  0
   -0.1422    5.9715   -0.0000 C   0  0  0  0  0  0  0  0  0  0  0  0
    0.7701    3.2938   -0.0000 C   0  0  0  0  0  0  0  0  0  0  0  0
   -2.7488    5.9715   -0.0000 C   0  0  0  0  0  0  0  0  0  0  0  0
    1.1493    6.7297   -0.0000 C   0  0  0  0  0  0  0  0  0  0  0  0
   -1.4573    6.7297   -0.0000 C   0  0  0  0  0  0  0  0  0  0  0  0
    2.2393    3.5070   -0.0000 N   0  0  0  0  0  0  0  0  0  0  0  0
    2.4407    5.9952   -0.0000 C   0  0  0  0  0  0  0  0  0  0  0  0
    1.1374    8.2345   -0.0000 C   0  0  0  0  0  0  0  0  0  0  0  0
    3.1398    2.3222   -0.0000 C   0  0  0  0  0  0  0  0  0  0  0  0
    2.7962    4.9051   -0.0000 C   0  0  0  0  0  0  0  0  0  0  0  0
    3.7322    6.7534   -0.0000 C   0  0  0  0  0  0  0  0  0  0  0  0
    2.4170    9.0046   -0.0000 C   0  0  0  0  0  0  0  0  0  0  0  0
    4.6089    2.5237   -0.0000 C   0  0  0  0  0  0  0  0  0  0  0  0
    4.2772    5.1065   -0.0000 C   0  0  0  0  0  0  0  0  0  0  0  0
    3.7203    8.2700   -0.0000 C   0  0  0  0  0  0  0  0  0  0  0  0
    5.1776    3.9217   -0.0000 O   0  0  0  0  0  0  0  0  0  0  0  0
  1  2  2  0  0  0  0
  2  3  1  0  0  0  0
  2  4  1  0  0  0  0
  3  5  1  0  0  0  0
  3  6  1  0  0  0  0
  4  7  2  0  0  0  0
  5  8  2  0  0  0  0
  5  9  1  0  0  0  0
  6 10  1  0  0  0  0
  8 11  1  0  0  0  0
  9 12  2  0  0  0  0
 10 13  2  0  0  0  0
 10 14  1  0  0  0  0
 11 15  2  0  0  0  0
 12 16  1  0  0  0  0
 14 17  1  0  0  0  0
 14 18  1  0  0  0  0
 15 19  1  0  0  0  0
 17 20  1  0  0  0  0
 17 21  1  0  0  0  0
 18 22  1  0  0  0  0
 20 23  1  0  0  0  0
 20 24  1  0  0  0  0
 21 25  1  0  0  0  0
 23 26  2  0  0  0  0
 23 27  1  0  0  0  0
 25 28  1  0  0  0  0
 25 29  1  0  0  0  0
 26 30  1  0  0  0  0
 27 31  2  0  0  0  0
 28 32  1  0  0  0  0
 29 33  1  0  0  0  0
 30 34  2  0  0  0  0
 32 35  1  0  0  0  0
  7  8  1  0  0  0  0
 12 15  1  0  0  0  0
 22 24  1  0  0  0  0
 31 34  1  0  0  0  0
 33 35  1  0  0  0  0
M  END
>  <MolRegNo>
426583

>  <m>
=

>  <Value>
2700

>  <Unit>
nM

>  <Type>
IC50

>  <pValue>
5.57

>  <Ligand Efficiency>
0

>  <Binding Efficiency>
0

>  <Surface Efficiency>
0

>  <Assay Index>
328212

>  <Assay Category>


>  <Assay Organism>


>  <Target ID>
17045

>  <Target Name>
Cytochrome P450 3A4

>  <Target Organism>
Homo sapiens

>  <Target Description>
Target is a single protein chain

>  <Sequence Accession>
P08684

>  <Reference>
Bioorg Med Chem Lett 18 (12), 3500-3503 (2008)

>  <Pubmed ID>
18502123

>  <DOI>
10.1016/j.bmcl.2008.05.027

$$$$
426638
Actelion Java MolfileCreator 1.0

 34 38  0  0  0  0  0  0  0  0999 V2000
    0.0000   -0.0000   -0.0000 O   0  0  0  0  0  0  0  0  0  0  0  0
   -1.2810   -0.7947   -0.0000 C   0  0  0  0  0  0  0  0  0  0  0  0
   -2.6214   -0.0830   -0.0000 N   0  0  0  0  0  0  0  0  0  0  0  0
   -1.2336   -2.2893   -0.0000 C   0  0  0  0  0  0  0  0  0  0  0  0
   -3.8906   -0.8777   -0.0000 C   0  0  0  0  0  0  0  0  0  0  0  0
   -2.6925    1.4234   -0.0000 C   0  0  0  0  0  0  0  0  0  0  0  0
   -2.5146   -3.0721   -0.0000 N   0  0  0  0  0  0  0  0  0  0  0  0
   -3.8550   -2.3604   -0.0000 C   0  0  0  0  0  0  0  0  0  0  0  0
   -5.2190   -0.1661   -0.0000 C   0  0  0  0  0  0  0  0  0  0  0  0
   -1.3996    2.1825   -0.0000 C   0  0  0  0  0  0  0  0  0  0  0  0
   -5.1241   -3.1314   -0.0000 C   0  0  0  0  0  0  0  0  0  0  0  0
   -6.5001   -0.9489   -0.0000 C   0  0  0  0  0  0  0  0  0  0  0  0
   -0.1068    1.4471   -0.0000 O   0  0  0  0  0  0  0  0  0  0  0  0
   -1.4234    3.7008   -0.0000 N   0  0  0  0  0  0  0  0  0  0  0  0
   -6.4526   -2.4316   -0.0000 C   0  0  0  0  0  0  0  0  0  0  0  0
   -7.8404   -0.2372   -0.0000 C   0  0  0  0  0  0  0  0  0  0  0  0
   -0.1305    4.4599   -0.0000 C   0  0  0  0  0  0  0  0  0  0  0  0
   -2.7400    4.4480   -0.0000 C   0  0  0  0  0  0  0  0  0  0  0  0
   -7.7337   -3.2144   -0.0000 C   0  0  0  0  0  0  0  0  0  0  0  0
   -0.1423    5.9663   -0.0000 C   0  0  0  0  0  0  0  0  0  0  0  0
    0.7710    3.2856   -0.0000 C   0  0  0  0  0  0  0  0  0  0  0  0
   -2.7519    5.9663   -0.0000 C   0  0  0  0  0  0  0  0  0  0  0  0
    1.1506    6.7254   -0.0000 C   0  0  0  0  0  0  0  0  0  0  0  0
   -1.4590    6.7254   -0.0000 C   0  0  0  0  0  0  0  0  0  0  0  0
    2.2418    3.4991   -0.0000 N   0  0  0  0  0  0  0  0  0  0  0  0
    2.4435    5.9900   -0.0000 C   0  0  0  0  0  0  0  0  0  0  0  0
    1.1387    8.2318   -0.0000 C   0  0  0  0  0  0  0  0  0  0  0  0
    3.2619    2.4316   -0.0000 C   0  0  0  0  0  0  0  0  0  0  0  0
    2.9416    4.8395   -0.0000 C   0  0  0  0  0  0  0  0  0  0  0  0
    3.7245    6.7492   -0.0000 C   0  0  0  0  0  0  0  0  0  0  0  0
    2.4197    9.0028   -0.0000 C   0  0  0  0  0  0  0  0  0  0  0  0
    4.6022    3.0958   -0.0000 C   0  0  0  0  0  0  0  0  0  0  0  0
    4.4006    4.5785   -0.0000 C   0  0  0  0  0  0  0  0  0  0  0  0
    3.7126    8.2674   -0.0000 C   0  0  0  0  0  0  0  0  0  0  0  0
  1  2  2  0  0  0  0
  2  3  1  0  0  0  0
  2  4  1  0  0  0  0
  3  5  1  0  0  0  0
  3  6  1  0  0  0  0
  4  7  2  0  0  0  0
  5  8  2  0  0  0  0
  5  9  1  0  0  0  0
  6 10  1  0  0  0  0
  8 11  1  0  0  0  0
  9 12  2  0  0  0  0
 10 13  2  0  0  0  0
 10 14  1  0  0  0  0
 11 15  2  0  0  0  0
 12 16  1  0  0  0  0
 14 17  1  0  0  0  0
 14 18  1  0  0  0  0
 15 19  1  0  0  0  0
 17 20  1  0  0  0  0
 17 21  1  0  0  0  0
 18 22  1  0  0  0  0
 20 23  1  0  0  0  0
 20 24  1  0  0  0  0
 21 25  1  0  0  0  0
 23 26  2  0  0  0  0
 23 27  1  0  0  0  0
 25 28  1  0  0  0  0
 25 29  1  0  0  0  0
 26 30  1  0  0  0  0
 27 31  2  0  0  0  0
 28 32  1  0  0  0  0
 29 33  1  0  0  0  0
 30 34  2  0  0  0  0
  7  8  1  0  0  0  0
 12 15  1  0  0  0  0
 22 24  1  0  0  0  0
 31 34  1  0  0  0  0
 32 33  1  0  0  0  0
M  END
>  <MolRegNo>
426638

>  <m>
=

>  <Value>
6800

>  <Unit>
nM

>  <Type>
IC50

>  <pValue>
5.17

>  <Ligand Efficiency>
0

>  <Binding Efficiency>
0

>  <Surface Efficiency>
0

>  <Assay Index>
328212

>  <Assay Category>


>  <Assay Organism>


>  <Target ID>
17045

>  <Target Name>
Cytochrome P450 3A4

>  <Target Organism>
Homo sapiens

>  <Target Description>
Target is a single protein chain

>  <Sequence Accession>
P08684

>  <Reference>
Bioorg Med Chem Lett 18 (12), 3500-3503 (2008)

>  <Pubmed ID>
18502123

>  <DOI>
10.1016/j.bmcl.2008.05.027

$$$$
426731
Actelion Java MolfileCreator 1.0

 35 39  0  0  0  0  0  0  0  0999 V2000
    0.0000   -0.0000   -0.0000 Cl  0  0  0  0  0  0  0  0  0  0  0  0
    1.2585    0.8074   -0.0000 C   0  0  0  0  0  0  0  0  0  0  0  0
    1.1873    2.3152   -0.0000 C   0  0  0  0  0  0  0  0  0  0  0  0
    2.5646    0.1306   -0.0000 C   0  0  0  0  0  0  0  0  0  0  0  0
   -0.1543    3.0276   -0.0000 Cl  0  0  0  0  0  0  0  0  0  0  0  0
    2.4458    3.1226   -0.0000 C   0  0  0  0  0  0  0  0  0  0  0  0
    3.8112    0.9380   -0.0000 C   0  0  0  0  0  0  0  0  0  0  0  0
    3.7519    2.4340   -0.0000 C   0  0  0  0  0  0  0  0  0  0  0  0
    5.1291    0.2493   -0.0000 N   0  0  0  0  0  0  0  0  0  0  0  0
    4.9985    3.2532   -0.0000 N   0  0  0  0  0  0  0  0  0  0  0  0
    6.3877    1.0567   -0.0000 C   0  0  0  0  0  0  0  0  0  0  0  0
    6.3164    2.5646   -0.0000 C   0  0  0  0  0  0  0  0  0  0  0  0
    4.9273    4.7729   -0.0000 C   0  0  0  0  0  0  0  0  0  0  0  0
    7.5750    3.3838   -0.0000 O   0  0  0  0  0  0  0  0  0  0  0  0
    6.2214    5.5328   -0.0000 C   0  0  0  0  0  0  0  0  0  0  0  0
    7.5156    4.7967   -0.0000 O   0  0  0  0  0  0  0  0  0  0  0  0
    6.1977    7.0526   -0.0000 N   0  0  0  0  0  0  0  0  0  0  0  0
    7.4919    7.8124   -0.0000 C   0  0  0  0  0  0  0  0  0  0  0  0
    4.8798    7.8006   -0.0000 C   0  0  0  0  0  0  0  0  0  0  0  0
    7.4800    9.3203   -0.0000 C   0  0  0  0  0  0  0  0  0  0  0  0
    8.3942    6.6370   -0.0000 C   0  0  0  0  0  0  0  0  0  0  0  0
    4.8679    9.3203   -0.0000 C   0  0  0  0  0  0  0  0  0  0  0  0
    8.7741   10.0802   -0.0000 C   0  0  0  0  0  0  0  0  0  0  0  0
    6.1621   10.0802   -0.0000 C   0  0  0  0  0  0  0  0  0  0  0  0
    9.8783    6.8507   -0.0000 N   0  0  0  0  0  0  0  0  0  0  0  0
   10.0683    9.3440   -0.0000 C   0  0  0  0  0  0  0  0  0  0  0  0
    8.7623   11.5880   -0.0000 C   0  0  0  0  0  0  0  0  0  0  0  0
   10.7807    5.6634   -0.0000 C   0  0  0  0  0  0  0  0  0  0  0  0
   10.4364    8.2517   -0.0000 C   0  0  0  0  0  0  0  0  0  0  0  0
   11.3625   10.1039   -0.0000 C   0  0  0  0  0  0  0  0  0  0  0  0
   10.0446   12.3598   -0.0000 C   0  0  0  0  0  0  0  0  0  0  0  0
   12.2529    5.8653   -0.0000 C   0  0  0  0  0  0  0  0  0  0  0  0
   11.9205    8.4536   -0.0000 C   0  0  0  0  0  0  0  0  0  0  0  0
   11.3506   11.6237   -0.0000 C   0  0  0  0  0  0  0  0  0  0  0  0
   12.8228    7.2663   -0.0000 O   0  0  0  0  0  0  0  0  0  0  0  0
  1  2  1  0  0  0  0
  2  3  2  0  0  0  0
  2  4  1  0  0  0  0
  3  5  1  0  0  0  0
  3  6  1  0  0  0  0
  4  7  2  0  0  0  0
  6  8  2  0  0  0  0
  7  9  1  0  0  0  0
  8 10  1  0  0  0  0
  9 11  2  0  0  0  0
 10 12  1  0  0  0  0
 10 13  1  0  0  0  0
 12 14  2  0  0  0  0
 13 15  1  0  0  0  0
 15 16  2  0  0  0  0
 15 17  1  0  0  0  0
 17 18  1  0  0  0  0
 17 19  1  0  0  0  0
 18 20  1  0  0  0  0
 18 21  1  0  0  0  0
 19 22  1  0  0  0  0
 20 23  1  0  0  0  0
 20 24  1  0  0  0  0
 21 25  1  0  0  0  0
 23 26  2  0  0  0  0
 23 27  1  0  0  0  0
 25 28  1  0  0  0  0
 25 29  1  0  0  0  0
 26 30  1  0  0  0  0
 27 31  2  0  0  0  0
 28 32  1  0  0  0  0
 29 33  1  0  0  0  0
 30 34  2  0  0  0  0
 32 35  1  0  0  0  0
  7  8  1  0  0  0  0
 11 12  1  0  0  0  0
 22 24  1  0  0  0  0
 31 34  1  0  0  0  0
 33 35  1  0  0  0  0
M  END
>  <MolRegNo>
426731

>  <m>
=

>  <Value>
1000

>  <Unit>
nM

>  <Type>
IC50

>  <pValue>
6

>  <Ligand Efficiency>
0

>  <Binding Efficiency>
0

>  <Surface Efficiency>
0

>  <Assay Index>
328212

>  <Assay Category>


>  <Assay Organism>


>  <Target ID>
17045

>  <Target Name>
Cytochrome P450 3A4

>  <Target Organism>
Homo sapiens

>  <Target Description>
Target is a single protein chain

>  <Sequence Accession>
P08684

>  <Reference>
Bioorg Med Chem Lett 18 (12), 3500-3503 (2008)

>  <Pubmed ID>
18502123

>  <DOI>
10.1016/j.bmcl.2008.05.027

$$$$
426733
Actelion Java MolfileCreator 1.0

 34 38  0  0  0  0  0  0  0  0999 V2000
    0.0000   -0.0000   -0.0000 Cl  0  0  0  0  0  0  0  0  0  0  0  0
    1.2597    0.8081   -0.0000 C   0  0  0  0  0  0  0  0  0  0  0  0
    1.1884    2.3173   -0.0000 C   0  0  0  0  0  0  0  0  0  0  0  0
    2.5669    0.1307   -0.0000 C   0  0  0  0  0  0  0  0  0  0  0  0
   -0.1545    3.0303   -0.0000 Cl  0  0  0  0  0  0  0  0  0  0  0  0
    2.4480    3.1254   -0.0000 C   0  0  0  0  0  0  0  0  0  0  0  0
    3.8146    0.9388   -0.0000 C   0  0  0  0  0  0  0  0  0  0  0  0
    3.7552    2.4361   -0.0000 C   0  0  0  0  0  0  0  0  0  0  0  0
    5.1337    0.2496   -0.0000 N   0  0  0  0  0  0  0  0  0  0  0  0
    5.0030    3.2561   -0.0000 N   0  0  0  0  0  0  0  0  0  0  0  0
    6.3934    1.0576   -0.0000 C   0  0  0  0  0  0  0  0  0  0  0  0
    6.3221    2.5669   -0.0000 C   0  0  0  0  0  0  0  0  0  0  0  0
    4.9317    4.7653   -0.0000 C   0  0  0  0  0  0  0  0  0  0  0  0
    7.5817    3.3868   -0.0000 O   0  0  0  0  0  0  0  0  0  0  0  0
    6.2270    5.5259   -0.0000 C   0  0  0  0  0  0  0  0  0  0  0  0
    7.5223    4.7891   -0.0000 O   0  0  0  0  0  0  0  0  0  0  0  0
    6.2032    7.0470   -0.0000 N   0  0  0  0  0  0  0  0  0  0  0  0
    7.4985    7.8075   -0.0000 C   0  0  0  0  0  0  0  0  0  0  0  0
    4.8841    7.7956   -0.0000 C   0  0  0  0  0  0  0  0  0  0  0  0
    7.4867    9.3167   -0.0000 C   0  0  0  0  0  0  0  0  0  0  0  0
    8.4017    6.6310   -0.0000 C   0  0  0  0  0  0  0  0  0  0  0  0
    4.8723    9.3167   -0.0000 C   0  0  0  0  0  0  0  0  0  0  0  0
    8.7820   10.0773   -0.0000 C   0  0  0  0  0  0  0  0  0  0  0  0
    6.1676   10.0773   -0.0000 C   0  0  0  0  0  0  0  0  0  0  0  0
    9.8753    6.8449   -0.0000 N   0  0  0  0  0  0  0  0  0  0  0  0
   10.0773    9.3405   -0.0000 C   0  0  0  0  0  0  0  0  0  0  0  0
    8.7701   11.5865   -0.0000 C   0  0  0  0  0  0  0  0  0  0  0  0
   10.8972    5.7754   -0.0000 C   0  0  0  0  0  0  0  0  0  0  0  0
   10.5764    8.1878   -0.0000 C   0  0  0  0  0  0  0  0  0  0  0  0
   11.3607   10.1010   -0.0000 C   0  0  0  0  0  0  0  0  0  0  0  0
   10.0535   12.3589   -0.0000 C   0  0  0  0  0  0  0  0  0  0  0  0
   12.2401    6.4409   -0.0000 C   0  0  0  0  0  0  0  0  0  0  0  0
   12.0499    7.9263   -0.0000 C   0  0  0  0  0  0  0  0  0  0  0  0
   11.3488   11.6221   -0.0000 C   0  0  0  0  0  0  0  0  0  0  0  0
  1  2  1  0  0  0  0
  2  3  2  0  0  0  0
  2  4  1  0  0  0  0
  3  5  1  0  0  0  0
  3  6  1  0  0  0  0
  4  7  2  0  0  0  0
  6  8  2  0  0  0  0
  7  9  1  0  0  0  0
  8 10  1  0  0  0  0
  9 11  2  0  0  0  0
 10 12  1  0  0  0  0
 10 13  1  0  0  0  0
 12 14  2  0  0  0  0
 13 15  1  0  0  0  0
 15 16  2  0  0  0  0
 15 17  1  0  0  0  0
 17 18  1  0  0  0  0
 17 19  1  0  0  0  0
 18 20  1  0  0  0  0
 18 21  1  0  0  0  0
 19 22  1  0  0  0  0
 20 23  1  0  0  0  0
 20 24  1  0  0  0  0
 21 25  1  0  0  0  0
 23 26  2  0  0  0  0
 23 27  1  0  0  0  0
 25 28  1  0  0  0  0
 25 29  1  0  0  0  0
 26 30  1  0  0  0  0
 27 31  2  0  0  0  0
 28 32  1  0  0  0  0
 29 33  1  0  0  0  0
 30 34  2  0  0  0  0
  7  8  1  0  0  0  0
 11 12  1  0  0  0  0
 22 24  1  0  0  0  0
 31 34  1  0  0  0  0
 32 33  1  0  0  0  0
M  END
>  <MolRegNo>
426733

>  <m>
=

>  <Value>
1200

>  <Unit>
nM

>  <Type>
IC50

>  <pValue>
5.92

>  <Ligand Efficiency>
0

>  <Binding Efficiency>
0

>  <Surface Efficiency>
0

>  <Assay Index>
328212

>  <Assay Category>


>  <Assay Organism>


>  <Target ID>
17045

>  <Target Name>
Cytochrome P450 3A4

>  <Target Organism>
Homo sapiens

>  <Target Description>
Target is a single protein chain

>  <Sequence Accession>
P08684

>  <Reference>
Bioorg Med Chem Lett 18 (12), 3500-3503 (2008)

>  <Pubmed ID>
18502123

>  <DOI>
10.1016/j.bmcl.2008.05.027

$$$$
426779
Actelion Java MolfileCreator 1.0

 34 38  0  0  0  0  0  0  0  0999 V2000
    0.0000   -0.0000   -0.0000 O   0  0  0  0  0  0  0  0  0  0  0  0
   -1.2808   -0.7946   -0.0000 C   0  0  0  0  0  0  0  0  0  0  0  0
   -2.6209   -0.0830   -0.0000 N   0  0  0  0  0  0  0  0  0  0  0  0
   -1.2334   -2.2889   -0.0000 C   0  0  0  0  0  0  0  0  0  0  0  0
   -3.8899   -0.8776   -0.0000 C   0  0  0  0  0  0  0  0  0  0  0  0
   -2.6921    1.4231   -0.0000 C   0  0  0  0  0  0  0  0  0  0  0  0
   -2.5142   -3.0716   -0.0000 O   0  0  0  0  0  0  0  0  0  0  0  0
   -3.8543   -2.3600   -0.0000 C   0  0  0  0  0  0  0  0  0  0  0  0
   -5.2181   -0.1660   -0.0000 C   0  0  0  0  0  0  0  0  0  0  0  0
   -1.3994    2.1821   -0.0000 C   0  0  0  0  0  0  0  0  0  0  0  0
   -5.1232   -3.1309   -0.0000 C   0  0  0  0  0  0  0  0  0  0  0  0
   -6.4989   -0.9487   -0.0000 C   0  0  0  0  0  0  0  0  0  0  0  0
   -0.1067    1.4468   -0.0000 O   0  0  0  0  0  0  0  0  0  0  0  0
   -1.4231    3.7001   -0.0000 N   0  0  0  0  0  0  0  0  0  0  0  0
   -6.4515   -2.4312   -0.0000 C   0  0  0  0  0  0  0  0  0  0  0  0
   -7.8390   -0.2372   -0.0000 C   0  0  0  0  0  0  0  0  0  0  0  0
   -0.1305    4.4591   -0.0000 C   0  0  0  0  0  0  0  0  0  0  0  0
   -2.7395    4.4472   -0.0000 C   0  0  0  0  0  0  0  0  0  0  0  0
   -7.7323   -3.2139   -0.0000 C   0  0  0  0  0  0  0  0  0  0  0  0
   -0.1423    5.9652   -0.0000 C   0  0  0  0  0  0  0  0  0  0  0  0
    0.7709    3.2850   -0.0000 C   0  0  0  0  0  0  0  0  0  0  0  0
   -2.7514    5.9652   -0.0000 C   0  0  0  0  0  0  0  0  0  0  0  0
    1.1504    6.7242   -0.0000 C   0  0  0  0  0  0  0  0  0  0  0  0
   -1.4587    6.7242   -0.0000 C   0  0  0  0  0  0  0  0  0  0  0  0
    2.2414    3.4985   -0.0000 N   0  0  0  0  0  0  0  0  0  0  0  0
    2.4430    5.9890   -0.0000 C   0  0  0  0  0  0  0  0  0  0  0  0
    1.1385    8.2304   -0.0000 C   0  0  0  0  0  0  0  0  0  0  0  0
    3.2613    2.4312   -0.0000 C   0  0  0  0  0  0  0  0  0  0  0  0
    2.9411    4.8386   -0.0000 C   0  0  0  0  0  0  0  0  0  0  0  0
    3.7238    6.7480   -0.0000 C   0  0  0  0  0  0  0  0  0  0  0  0
    2.4193    9.0012   -0.0000 C   0  0  0  0  0  0  0  0  0  0  0  0
    4.6014    3.0953   -0.0000 C   0  0  0  0  0  0  0  0  0  0  0  0
    4.4117    4.5777   -0.0000 C   0  0  0  0  0  0  0  0  0  0  0  0
    3.7120    8.2660   -0.0000 C   0  0  0  0  0  0  0  0  0  0  0  0
  1  2  2  0  0  0  0
  2  3  1  0  0  0  0
  2  4  1  0  0  0  0
  3  5  1  0  0  0  0
  3  6  1  0  0  0  0
  4  7  1  0  0  0  0
  5  8  2  0  0  0  0
  5  9  1  0  0  0  0
  6 10  1  0  0  0  0
  8 11  1  0  0  0  0
  9 12  2  0  0  0  0
 10 13  2  0  0  0  0
 10 14  1  0  0  0  0
 11 15  2  0  0  0  0
 12 16  1  0  0  0  0
 14 17  1  0  0  0  0
 14 18  1  0  0  0  0
 15 19  1  0  0  0  0
 17 20  1  0  0  0  0
 17 21  1  0  0  0  0
 18 22  1  0  0  0  0
 20 23  1  0  0  0  0
 20 24  1  0  0  0  0
 21 25  1  0  0  0  0
 23 26  2  0  0  0  0
 23 27  1  0  0  0  0
 25 28  1  0  0  0  0
 25 29  1  0  0  0  0
 26 30  1  0  0  0  0
 27 31  2  0  0  0  0
 28 32  1  0  0  0  0
 29 33  1  0  0  0  0
 30 34  2  0  0  0  0
  7  8  1  0  0  0  0
 12 15  1  0  0  0  0
 22 24  1  0  0  0  0
 31 34  1  0  0  0  0
 32 33  1  0  0  0  0
M  END
>  <MolRegNo>
426779

>  <m>
=

>  <Value>
3900

>  <Unit>
nM

>  <Type>
IC50

>  <pValue>
5.41

>  <Ligand Efficiency>
0

>  <Binding Efficiency>
0

>  <Surface Efficiency>
0

>  <Assay Index>
328212

>  <Assay Category>


>  <Assay Organism>


>  <Target ID>
17045

>  <Target Name>
Cytochrome P450 3A4

>  <Target Organism>
Homo sapiens

>  <Target Description>
Target is a single protein chain

>  <Sequence Accession>
P08684

>  <Reference>
Bioorg Med Chem Lett 18 (12), 3500-3503 (2008)

>  <Pubmed ID>
18502123

>  <DOI>
10.1016/j.bmcl.2008.05.027

$$$$
426825
Actelion Java MolfileCreator 1.0

 35 39  0  0  0  0  0  0  0  0999 V2000
    0.0000   -0.0000   -0.0000 Cl  0  0  0  0  0  0  0  0  0  0  0  0
    1.2605    0.8087   -0.0000 C   0  0  0  0  0  0  0  0  0  0  0  0
    1.1892    2.3189   -0.0000 C   0  0  0  0  0  0  0  0  0  0  0  0
    2.5687    0.1308   -0.0000 C   0  0  0  0  0  0  0  0  0  0  0  0
   -0.1546    3.0324   -0.0000 Cl  0  0  0  0  0  0  0  0  0  0  0  0
    2.4497    3.1276   -0.0000 C   0  0  0  0  0  0  0  0  0  0  0  0
    3.8173    0.9395   -0.0000 C   0  0  0  0  0  0  0  0  0  0  0  0
    3.7578    2.4378   -0.0000 C   0  0  0  0  0  0  0  0  0  0  0  0
    5.1373    0.2497   -0.0000 O   0  0  0  0  0  0  0  0  0  0  0  0
    5.0065    3.2584   -0.0000 N   0  0  0  0  0  0  0  0  0  0  0  0
    6.3979    1.0703   -0.0000 C   0  0  0  0  0  0  0  0  0  0  0  0
    6.3265    2.5687   -0.0000 C   0  0  0  0  0  0  0  0  0  0  0  0
    4.9352    4.7687   -0.0000 C   0  0  0  0  0  0  0  0  0  0  0  0
    7.5871    3.3892   -0.0000 O   0  0  0  0  0  0  0  0  0  0  0  0
    6.2314    5.5297   -0.0000 C   0  0  0  0  0  0  0  0  0  0  0  0
    7.5276    4.7924   -0.0000 O   0  0  0  0  0  0  0  0  0  0  0  0
    6.2076    7.0519   -0.0000 N   0  0  0  0  0  0  0  0  0  0  0  0
    7.5038    7.8130   -0.0000 C   0  0  0  0  0  0  0  0  0  0  0  0
    4.8876    7.8011   -0.0000 C   0  0  0  0  0  0  0  0  0  0  0  0
    7.4919    9.3233   -0.0000 C   0  0  0  0  0  0  0  0  0  0  0  0
    8.4076    6.6357   -0.0000 C   0  0  0  0  0  0  0  0  0  0  0  0
    4.8757    9.3233   -0.0000 C   0  0  0  0  0  0  0  0  0  0  0  0
    8.7881   10.0844   -0.0000 C   0  0  0  0  0  0  0  0  0  0  0  0
    6.1719   10.0844   -0.0000 C   0  0  0  0  0  0  0  0  0  0  0  0
    9.8822    6.8498   -0.0000 N   0  0  0  0  0  0  0  0  0  0  0  0
   10.0844    9.3471   -0.0000 C   0  0  0  0  0  0  0  0  0  0  0  0
    8.7762   11.5946   -0.0000 C   0  0  0  0  0  0  0  0  0  0  0  0
   10.9287    5.8033   -0.0000 C   0  0  0  0  0  0  0  0  0  0  0  0
   10.2508    8.3125   -0.0000 C   0  0  0  0  0  0  0  0  0  0  0  0
   11.3687   10.1081   -0.0000 C   0  0  0  0  0  0  0  0  0  0  0  0
   10.0606   12.3676   -0.0000 C   0  0  0  0  0  0  0  0  0  0  0  0
   12.3557    6.2076   -0.0000 C   0  0  0  0  0  0  0  0  0  0  0  0
   11.6898    8.7168   -0.0000 C   0  0  0  0  0  0  0  0  0  0  0  0
   11.3568   11.6303   -0.0000 C   0  0  0  0  0  0  0  0  0  0  0  0
   12.7363    7.6703   -0.0000 O   0  0  0  0  0  0  0  0  0  0  0  0
  1  2  1  0  0  0  0
  2  3  2  0  0  0  0
  2  4  1  0  0  0  0
  3  5  1  0  0  0  0
  3  6  1  0  0  0  0
  4  7  2  0  0  0  0
  6  8  2  0  0  0  0
  7  9  1  0  0  0  0
  8 10  1  0  0  0  0
  9 11  1  0  0  0  0
 10 12  1  0  0  0  0
 10 13  1  0  0  0  0
 12 14  2  0  0  0  0
 13 15  1  0  0  0  0
 15 16  2  0  0  0  0
 15 17  1  0  0  0  0
 17 18  1  0  0  0  0
 17 19  1  0  0  0  0
 18 20  1  0  0  0  0
 18 21  1  0  0  0  0
 19 22  1  0  0  0  0
 20 23  1  0  0  0  0
 20 24  1  0  0  0  0
 21 25  1  0  0  0  0
 23 26  2  0  0  0  0
 23 27  1  0  0  0  0
 25 28  1  0  0  0  0
 25 29  1  0  0  0  0
 26 30  1  0  0  0  0
 27 31  2  0  0  0  0
 28 32  1  0  0  0  0
 29 33  1  0  0  0  0
 30 34  2  0  0  0  0
 32 35  1  0  0  0  0
  7  8  1  0  0  0  0
 11 12  1  0  0  0  0
 22 24  1  0  0  0  0
 31 34  1  0  0  0  0
 33 35  1  0  0  0  0
M  END
>  <MolRegNo>
426825

>  <m>
=

>  <Value>
730

>  <Unit>
nM

>  <Type>
IC50

>  <pValue>
6.14

>  <Ligand Efficiency>
0

>  <Binding Efficiency>
0

>  <Surface Efficiency>
0

>  <Assay Index>
328212

>  <Assay Category>


>  <Assay Organism>


>  <Target ID>
17045

>  <Target Name>
Cytochrome P450 3A4

>  <Target Organism>
Homo sapiens

>  <Target Description>
Target is a single protein chain

>  <Sequence Accession>
P08684

>  <Reference>
Bioorg Med Chem Lett 18 (12), 3500-3503 (2008)

>  <Pubmed ID>
18502123

>  <DOI>
10.1016/j.bmcl.2008.05.027

$$$$
426824
Actelion Java MolfileCreator 1.0

 34 38  0  0  0  0  0  0  0  0999 V2000
    0.0000   -0.0000   -0.0000 Cl  0  0  0  0  0  0  0  0  0  0  0  0
    1.2600    0.8083   -0.0000 C   0  0  0  0  0  0  0  0  0  0  0  0
    1.1887    2.3179   -0.0000 C   0  0  0  0  0  0  0  0  0  0  0  0
    2.5676    0.1308   -0.0000 C   0  0  0  0  0  0  0  0  0  0  0  0
   -0.1545    3.0311   -0.0000 Cl  0  0  0  0  0  0  0  0  0  0  0  0
    2.4487    3.1262   -0.0000 C   0  0  0  0  0  0  0  0  0  0  0  0
    3.8157    0.9391   -0.0000 C   0  0  0  0  0  0  0  0  0  0  0  0
    3.7562    2.4368   -0.0000 C   0  0  0  0  0  0  0  0  0  0  0  0
    5.1351    0.2496   -0.0000 O   0  0  0  0  0  0  0  0  0  0  0  0
    5.0044    3.2570   -0.0000 N   0  0  0  0  0  0  0  0  0  0  0  0
    6.3951    1.0698   -0.0000 C   0  0  0  0  0  0  0  0  0  0  0  0
    6.3238    2.5676   -0.0000 C   0  0  0  0  0  0  0  0  0  0  0  0
    4.9330    4.7666   -0.0000 C   0  0  0  0  0  0  0  0  0  0  0  0
    7.5838    3.3877   -0.0000 O   0  0  0  0  0  0  0  0  0  0  0  0
    6.2287    5.5274   -0.0000 C   0  0  0  0  0  0  0  0  0  0  0  0
    7.5244    4.7904   -0.0000 O   0  0  0  0  0  0  0  0  0  0  0  0
    6.2049    7.0489   -0.0000 N   0  0  0  0  0  0  0  0  0  0  0  0
    7.5006    7.8096   -0.0000 C   0  0  0  0  0  0  0  0  0  0  0  0
    4.8855    7.7978   -0.0000 C   0  0  0  0  0  0  0  0  0  0  0  0
    7.4887    9.3193   -0.0000 C   0  0  0  0  0  0  0  0  0  0  0  0
    8.4040    6.6328   -0.0000 C   0  0  0  0  0  0  0  0  0  0  0  0
    4.8736    9.3193   -0.0000 C   0  0  0  0  0  0  0  0  0  0  0  0
    8.7844   10.0800   -0.0000 C   0  0  0  0  0  0  0  0  0  0  0  0
    6.1693   10.0800   -0.0000 C   0  0  0  0  0  0  0  0  0  0  0  0
    9.8779    6.8468   -0.0000 N   0  0  0  0  0  0  0  0  0  0  0  0
   10.0800    9.3430   -0.0000 C   0  0  0  0  0  0  0  0  0  0  0  0
    8.7725   11.5897   -0.0000 C   0  0  0  0  0  0  0  0  0  0  0  0
   10.9002    5.7770   -0.0000 C   0  0  0  0  0  0  0  0  0  0  0  0
   10.5793    8.1900   -0.0000 C   0  0  0  0  0  0  0  0  0  0  0  0
   11.3638   10.1038   -0.0000 C   0  0  0  0  0  0  0  0  0  0  0  0
   10.0563   12.3623   -0.0000 C   0  0  0  0  0  0  0  0  0  0  0  0
   12.2434    6.4427   -0.0000 C   0  0  0  0  0  0  0  0  0  0  0  0
   12.0413    7.9285   -0.0000 C   0  0  0  0  0  0  0  0  0  0  0  0
   11.3519   11.6253   -0.0000 C   0  0  0  0  0  0  0  0  0  0  0  0
  1  2  1  0  0  0  0
  2  3  2  0  0  0  0
  2  4  1  0  0  0  0
  3  5  1  0  0  0  0
  3  6  1  0  0  0  0
  4  7  2  0  0  0  0
  6  8  2  0  0  0  0
  7  9  1  0  0  0  0
  8 10  1  0  0  0  0
  9 11  1  0  0  0  0
 10 12  1  0  0  0  0
 10 13  1  0  0  0  0
 12 14  2  0  0  0  0
 13 15  1  0  0  0  0
 15 16  2  0  0  0  0
 15 17  1  0  0  0  0
 17 18  1  0  0  0  0
 17 19  1  0  0  0  0
 18 20  1  0  0  0  0
 18 21  1  0  0  0  0
 19 22  1  0  0  0  0
 20 23  1  0  0  0  0
 20 24  1  0  0  0  0
 21 25  1  0  0  0  0
 23 26  2  0  0  0  0
 23 27  1  0  0  0  0
 25 28  1  0  0  0  0
 25 29  1  0  0  0  0
 26 30  1  0  0  0  0
 27 31  2  0  0  0  0
 28 32  1  0  0  0  0
 29 33  1  0  0  0  0
 30 34  2  0  0  0  0
  7  8  1  0  0  0  0
 11 12  1  0  0  0  0
 22 24  1  0  0  0  0
 31 34  1  0  0  0  0
 32 33  1  0  0  0  0
M  END
>  <MolRegNo>
426824

>  <m>
=

>  <Value>
1800

>  <Unit>
nM

>  <Type>
IC50

>  <pValue>
5.75

>  <Ligand Efficiency>
0

>  <Binding Efficiency>
0

>  <Surface Efficiency>
0

>  <Assay Index>
328212

>  <Assay Category>


>  <Assay Organism>


>  <Target ID>
17045

>  <Target Name>
Cytochrome P450 3A4

>  <Target Organism>
Homo sapiens

>  <Target Description>
Target is a single protein chain

>  <Sequence Accession>
P08684

>  <Reference>
Bioorg Med Chem Lett 18 (12), 3500-3503 (2008)

>  <Pubmed ID>
18502123

>  <DOI>
10.1016/j.bmcl.2008.05.027

$$$$
426866
Actelion Java MolfileCreator 1.0

 35 38  0  0  0  0  0  0  0  0999 V2000
    0.0000   -0.0000   -0.0000 Cl  0  0  0  0  0  0  0  0  0  0  0  0
    1.2936   -0.7358   -0.0000 C   0  0  0  0  0  0  0  0  0  0  0  0
    1.2817   -2.2311   -0.0000 C   0  0  0  0  0  0  0  0  0  0  0  0
    2.5752    0.0237   -0.0000 C   0  0  0  0  0  0  0  0  0  0  0  0
   -0.0356   -2.9669   -0.0000 Cl  0  0  0  0  0  0  0  0  0  0  0  0
    2.5634   -2.9669   -0.0000 C   0  0  0  0  0  0  0  0  0  0  0  0
    3.8688   -0.7120   -0.0000 C   0  0  0  0  0  0  0  0  0  0  0  0
    3.8569   -2.2073   -0.0000 C   0  0  0  0  0  0  0  0  0  0  0  0
    5.1505    0.0593   -0.0000 N   0  0  0  0  0  0  0  0  0  0  0  0
    6.4440   -0.6764   -0.0000 C   0  0  0  0  0  0  0  0  0  0  0  0
    5.1267    1.5784   -0.0000 C   0  0  0  0  0  0  0  0  0  0  0  0
    7.7257    0.0949   -0.0000 C   0  0  0  0  0  0  0  0  0  0  0  0
    3.8095    2.3379   -0.0000 C   0  0  0  0  0  0  0  0  0  0  0  0
    9.0193   -0.6408   -0.0000 O   0  0  0  0  0  0  0  0  0  0  0  0
    7.7020    1.6140   -0.0000 N   0  0  0  0  0  0  0  0  0  0  0  0
    3.7857    3.8569   -0.0000 O   0  0  0  0  0  0  0  0  0  0  0  0
    8.9955    2.3735   -0.0000 C   0  0  0  0  0  0  0  0  0  0  0  0
    6.3847    2.3616   -0.0000 C   0  0  0  0  0  0  0  0  0  0  0  0
    2.4684    4.6164   -0.0000 C   0  0  0  0  0  0  0  0  0  0  0  0
    8.9837    3.8807   -0.0000 C   0  0  0  0  0  0  0  0  0  0  0  0
    9.8975    1.1986   -0.0000 C   0  0  0  0  0  0  0  0  0  0  0  0
    6.3728    3.8807   -0.0000 C   0  0  0  0  0  0  0  0  0  0  0  0
   10.2772    4.6402   -0.0000 C   0  0  0  0  0  0  0  0  0  0  0  0
    7.6664    4.6402   -0.0000 C   0  0  0  0  0  0  0  0  0  0  0  0
   11.3690    1.4122   -0.0000 N   0  0  0  0  0  0  0  0  0  0  0  0
   11.5708    3.9044   -0.0000 C   0  0  0  0  0  0  0  0  0  0  0  0
   10.2654    6.1473   -0.0000 C   0  0  0  0  0  0  0  0  0  0  0  0
   12.2591    0.2255   -0.0000 C   0  0  0  0  0  0  0  0  0  0  0  0
   11.9149    2.8126   -0.0000 C   0  0  0  0  0  0  0  0  0  0  0  0
   12.8525    4.6639   -0.0000 C   0  0  0  0  0  0  0  0  0  0  0  0
   11.5470    6.9187   -0.0000 C   0  0  0  0  0  0  0  0  0  0  0  0
   13.7306    0.4272   -0.0000 C   0  0  0  0  0  0  0  0  0  0  0  0
   13.3984    3.0143   -0.0000 C   0  0  0  0  0  0  0  0  0  0  0  0
   12.8406    6.1829   -0.0000 C   0  0  0  0  0  0  0  0  0  0  0  0
   14.3003    1.8276   -0.0000 O   0  0  0  0  0  0  0  0  0  0  0  0
  1  2  1  0  0  0  0
  2  3  2  0  0  0  0
  2  4  1  0  0  0  0
  3  5  1  0  0  0  0
  3  6  1  0  0  0  0
  4  7  2  0  0  0  0
  6  8  2  0  0  0  0
  7  9  1  0  0  0  0
  9 10  1  0  0  0  0
  9 11  1  0  0  0  0
 10 12  1  0  0  0  0
 11 13  1  0  0  0  0
 12 14  2  0  0  0  0
 12 15  1  0  0  0  0
 13 16  1  0  0  0  0
 15 17  1  0  0  0  0
 15 18  1  0  0  0  0
 16 19  1  0  0  0  0
 17 20  1  0  0  0  0
 17 21  1  0  0  0  0
 18 22  1  0  0  0  0
 20 23  1  0  0  0  0
 20 24  1  0  0  0  0
 21 25  1  0  0  0  0
 23 26  2  0  0  0  0
 23 27  1  0  0  0  0
 25 28  1  0  0  0  0
 25 29  1  0  0  0  0
 26 30  1  0  0  0  0
 27 31  2  0  0  0  0
 28 32  1  0  0  0  0
 29 33  1  0  0  0  0
 30 34  2  0  0  0  0
 32 35  1  0  0  0  0
  7  8  1  0  0  0  0
 22 24  1  0  0  0  0
 31 34  1  0  0  0  0
 33 35  1  0  0  0  0
M  END
>  <MolRegNo>
426866

>  <m>
=

>  <Value>
480

>  <Unit>
nM

>  <Type>
IC50

>  <pValue>
6.32

>  <Ligand Efficiency>
0

>  <Binding Efficiency>
0

>  <Surface Efficiency>
0

>  <Assay Index>
328212

>  <Assay Category>


>  <Assay Organism>


>  <Target ID>
17045

>  <Target Name>
Cytochrome P450 3A4

>  <Target Organism>
Homo sapiens

>  <Target Description>
Target is a single protein chain

>  <Sequence Accession>
P08684

>  <Reference>
Bioorg Med Chem Lett 18 (12), 3500-3503 (2008)

>  <Pubmed ID>
18502123

>  <DOI>
10.1016/j.bmcl.2008.05.027

$$$$
426914
Actelion Java MolfileCreator 1.0

 34 37  0  0  0  0  0  0  0  0999 V2000
    0.0000   -0.0000   -0.0000 Cl  0  0  0  0  0  0  0  0  0  0  0  0
    1.2937   -0.7359   -0.0000 C   0  0  0  0  0  0  0  0  0  0  0  0
    1.2818   -2.2313   -0.0000 C   0  0  0  0  0  0  0  0  0  0  0  0
    2.5755    0.0237   -0.0000 C   0  0  0  0  0  0  0  0  0  0  0  0
   -0.0356   -2.9672   -0.0000 Cl  0  0  0  0  0  0  0  0  0  0  0  0
    2.5637   -2.9672   -0.0000 C   0  0  0  0  0  0  0  0  0  0  0  0
    3.8692   -0.7121   -0.0000 C   0  0  0  0  0  0  0  0  0  0  0  0
    3.8574   -2.2076   -0.0000 C   0  0  0  0  0  0  0  0  0  0  0  0
    5.1511    0.0593   -0.0000 N   0  0  0  0  0  0  0  0  0  0  0  0
    6.4448   -0.6765   -0.0000 C   0  0  0  0  0  0  0  0  0  0  0  0
    5.1392    1.5667   -0.0000 C   0  0  0  0  0  0  0  0  0  0  0  0
    7.7266    0.0950   -0.0000 C   0  0  0  0  0  0  0  0  0  0  0  0
    3.8218    2.3263   -0.0000 C   0  0  0  0  0  0  0  0  0  0  0  0
    9.0203   -0.6409   -0.0000 O   0  0  0  0  0  0  0  0  0  0  0  0
    7.7029    1.6142   -0.0000 N   0  0  0  0  0  0  0  0  0  0  0  0
    3.7980    3.8455   -0.0000 O   0  0  0  0  0  0  0  0  0  0  0  0
    8.9966    2.3738   -0.0000 C   0  0  0  0  0  0  0  0  0  0  0  0
    6.3854    2.3619   -0.0000 C   0  0  0  0  0  0  0  0  0  0  0  0
    2.4806    4.6051   -0.0000 C   0  0  0  0  0  0  0  0  0  0  0  0
    8.9847    3.8811   -0.0000 C   0  0  0  0  0  0  0  0  0  0  0  0
    9.8986    1.1988   -0.0000 C   0  0  0  0  0  0  0  0  0  0  0  0
    6.3736    3.8811   -0.0000 C   0  0  0  0  0  0  0  0  0  0  0  0
   10.2784    4.6407   -0.0000 C   0  0  0  0  0  0  0  0  0  0  0  0
    7.6673    4.6407   -0.0000 C   0  0  0  0  0  0  0  0  0  0  0  0
   11.3703    1.4124   -0.0000 N   0  0  0  0  0  0  0  0  0  0  0  0
   11.5721    3.9048   -0.0000 C   0  0  0  0  0  0  0  0  0  0  0  0
   10.2665    6.1480   -0.0000 C   0  0  0  0  0  0  0  0  0  0  0  0
   12.3911    0.3442   -0.0000 C   0  0  0  0  0  0  0  0  0  0  0  0
   12.0706    2.7536   -0.0000 C   0  0  0  0  0  0  0  0  0  0  0  0
   12.8539    4.6644   -0.0000 C   0  0  0  0  0  0  0  0  0  0  0  0
   11.5484    6.9195   -0.0000 C   0  0  0  0  0  0  0  0  0  0  0  0
   13.7322    1.0088   -0.0000 C   0  0  0  0  0  0  0  0  0  0  0  0
   13.5423    2.4925   -0.0000 C   0  0  0  0  0  0  0  0  0  0  0  0
   12.8421    6.1837   -0.0000 C   0  0  0  0  0  0  0  0  0  0  0  0
  1  2  1  0  0  0  0
  2  3  2  0  0  0  0
  2  4  1  0  0  0  0
  3  5  1  0  0  0  0
  3  6  1  0  0  0  0
  4  7  2  0  0  0  0
  6  8  2  0  0  0  0
  7  9  1  0  0  0  0
  9 10  1  0  0  0  0
  9 11  1  0  0  0  0
 10 12  1  0  0  0  0
 11 13  1  0  0  0  0
 12 14  2  0  0  0  0
 12 15  1  0  0  0  0
 13 16  1  0  0  0  0
 15 17  1  0  0  0  0
 15 18  1  0  0  0  0
 16 19  1  0  0  0  0
 17 20  1  0  0  0  0
 17 21  1  0  0  0  0
 18 22  1  0  0  0  0
 20 23  1  0  0  0  0
 20 24  1  0  0  0  0
 21 25  1  0  0  0  0
 23 26  2  0  0  0  0
 23 27  1  0  0  0  0
 25 28  1  0  0  0  0
 25 29  1  0  0  0  0
 26 30  1  0  0  0  0
 27 31  2  0  0  0  0
 28 32  1  0  0  0  0
 29 33  1  0  0  0  0
 30 34  2  0  0  0  0
  7  8  1  0  0  0  0
 22 24  1  0  0  0  0
 31 34  1  0  0  0  0
 32 33  1  0  0  0  0
M  END
>  <MolRegNo>
426914

>  <m>
=

>  <Value>
1200

>  <Unit>
nM

>  <Type>
IC50

>  <pValue>
5.92

>  <Ligand Efficiency>
0

>  <Binding Efficiency>
0

>  <Surface Efficiency>
0

>  <Assay Index>
328212

>  <Assay Category>


>  <Assay Organism>


>  <Target ID>
17045

>  <Target Name>
Cytochrome P450 3A4

>  <Target Organism>
Homo sapiens

>  <Target Description>
Target is a single protein chain

>  <Sequence Accession>
P08684

>  <Reference>
Bioorg Med Chem Lett 18 (12), 3500-3503 (2008)

>  <Pubmed ID>
18502123

>  <DOI>
10.1016/j.bmcl.2008.05.027

$$$$
426960
Actelion Java MolfileCreator 1.0

 34 37  0  0  0  0  0  0  0  0999 V2000
    0.0000   -0.0000   -0.0000 Cl  0  0  0  0  0  0  0  0  0  0  0  0
    1.2940   -0.7360   -0.0000 C   0  0  0  0  0  0  0  0  0  0  0  0
    1.2821   -2.2319   -0.0000 C   0  0  0  0  0  0  0  0  0  0  0  0
    2.5761    0.0237   -0.0000 C   0  0  0  0  0  0  0  0  0  0  0  0
   -0.0356   -2.9679   -0.0000 Cl  0  0  0  0  0  0  0  0  0  0  0  0
    2.5643   -2.9679   -0.0000 C   0  0  0  0  0  0  0  0  0  0  0  0
    3.8701   -0.7123   -0.0000 C   0  0  0  0  0  0  0  0  0  0  0  0
    3.8583   -2.2081   -0.0000 C   0  0  0  0  0  0  0  0  0  0  0  0
    5.1523    0.0594   -0.0000 N   0  0  0  0  0  0  0  0  0  0  0  0
    5.1285    1.5789   -0.0000 C   0  0  0  0  0  0  0  0  0  0  0  0
    6.4463   -0.6767   -0.0000 C   0  0  0  0  0  0  0  0  0  0  0  0
    3.8108    2.3387   -0.0000 C   0  0  0  0  0  0  0  0  0  0  0  0
    7.7284    0.0950   -0.0000 C   0  0  0  0  0  0  0  0  0  0  0  0
    2.4930    3.0985   -0.0000 N   0  0  0  0  0  0  0  0  0  0  0  0
    9.0224   -0.6411   -0.0000 O   0  0  0  0  0  0  0  0  0  0  0  0
    7.7046    1.6145   -0.0000 N   0  0  0  0  0  0  0  0  0  0  0  0
    8.9986    2.3743   -0.0000 C   0  0  0  0  0  0  0  0  0  0  0  0
    6.3869    2.3624   -0.0000 C   0  0  0  0  0  0  0  0  0  0  0  0
    8.9868    3.8820   -0.0000 C   0  0  0  0  0  0  0  0  0  0  0  0
    9.9009    1.1990   -0.0000 C   0  0  0  0  0  0  0  0  0  0  0  0
    6.3750    3.8820   -0.0000 C   0  0  0  0  0  0  0  0  0  0  0  0
   10.2808    4.6418   -0.0000 C   0  0  0  0  0  0  0  0  0  0  0  0
    7.6690    4.6418   -0.0000 C   0  0  0  0  0  0  0  0  0  0  0  0
   11.3730    1.4127   -0.0000 N   0  0  0  0  0  0  0  0  0  0  0  0
   11.5748    3.9057   -0.0000 C   0  0  0  0  0  0  0  0  0  0  0  0
   10.2689    6.1495   -0.0000 C   0  0  0  0  0  0  0  0  0  0  0  0
   12.2633    0.2256   -0.0000 C   0  0  0  0  0  0  0  0  0  0  0  0
   11.9191    2.8136   -0.0000 C   0  0  0  0  0  0  0  0  0  0  0  0
   12.8569    4.6655   -0.0000 C   0  0  0  0  0  0  0  0  0  0  0  0
   11.5510    6.9211   -0.0000 C   0  0  0  0  0  0  0  0  0  0  0  0
   13.7354    0.4274   -0.0000 C   0  0  0  0  0  0  0  0  0  0  0  0
   13.4030    3.0154   -0.0000 C   0  0  0  0  0  0  0  0  0  0  0  0
   12.8450    6.1851   -0.0000 C   0  0  0  0  0  0  0  0  0  0  0  0
   14.3052    1.8282   -0.0000 O   0  0  0  0  0  0  0  0  0  0  0  0
  1  2  1  0  0  0  0
  2  3  2  0  0  0  0
  2  4  1  0  0  0  0
  3  5  1  0  0  0  0
  3  6  1  0  0  0  0
  4  7  2  0  0  0  0
  6  8  2  0  0  0  0
  7  9  1  0  0  0  0
  9 10  1  0  0  0  0
  9 11  1  0  0  0  0
 10 12  1  0  0  0  0
 11 13  1  0  0  0  0
 12 14  3  0  0  0  0
 13 15  2  0  0  0  0
 13 16  1  0  0  0  0
 16 17  1  0  0  0  0
 16 18  1  0  0  0  0
 17 19  1  0  0  0  0
 17 20  1  0  0  0  0
 18 21  1  0  0  0  0
 19 22  1  0  0  0  0
 19 23  1  0  0  0  0
 20 24  1  0  0  0  0
 22 25  2  0  0  0  0
 22 26  1  0  0  0  0
 24 27  1  0  0  0  0
 24 28  1  0  0  0  0
 25 29  1  0  0  0  0
 26 30  2  0  0  0  0
 27 31  1  0  0  0  0
 28 32  1  0  0  0  0
 29 33  2  0  0  0  0
 31 34  1  0  0  0  0
  7  8  1  0  0  0  0
 21 23  1  0  0  0  0
 30 33  1  0  0  0  0
 32 34  1  0  0  0  0
M  END
>  <MolRegNo>
426960

>  <m>
=

>  <Value>
490

>  <Unit>
nM

>  <Type>
IC50

>  <pValue>
6.31

>  <Ligand Efficiency>
0

>  <Binding Efficiency>
0

>  <Surface Efficiency>
0

>  <Assay Index>
328212

>  <Assay Category>


>  <Assay Organism>


>  <Target ID>
17045

>  <Target Name>
Cytochrome P450 3A4

>  <Target Organism>
Homo sapiens

>  <Target Description>
Target is a single protein chain

>  <Sequence Accession>
P08684

>  <Reference>
Bioorg Med Chem Lett 18 (12), 3500-3503 (2008)

>  <Pubmed ID>
18502123

>  <DOI>
10.1016/j.bmcl.2008.05.027

$$$$
427004
Actelion Java MolfileCreator 1.0

 33 36  0  0  0  0  0  0  0  0999 V2000
    0.0000   -0.0000   -0.0000 Cl  0  0  0  0  0  0  0  0  0  0  0  0
    1.2939   -0.7360   -0.0000 C   0  0  0  0  0  0  0  0  0  0  0  0
    1.2820   -2.2316   -0.0000 C   0  0  0  0  0  0  0  0  0  0  0  0
    2.5759    0.0237   -0.0000 C   0  0  0  0  0  0  0  0  0  0  0  0
   -0.0356   -2.9676   -0.0000 Cl  0  0  0  0  0  0  0  0  0  0  0  0
    2.5640   -2.9676   -0.0000 C   0  0  0  0  0  0  0  0  0  0  0  0
    3.8698   -0.7122   -0.0000 C   0  0  0  0  0  0  0  0  0  0  0  0
    3.8579   -2.2079   -0.0000 C   0  0  0  0  0  0  0  0  0  0  0  0
    5.1518    0.0594   -0.0000 N   0  0  0  0  0  0  0  0  0  0  0  0
    5.1280    1.5788   -0.0000 C   0  0  0  0  0  0  0  0  0  0  0  0
    6.4457   -0.6766   -0.0000 C   0  0  0  0  0  0  0  0  0  0  0  0
    3.8104    2.3385   -0.0000 C   0  0  0  0  0  0  0  0  0  0  0  0
    7.7277    0.0950   -0.0000 C   0  0  0  0  0  0  0  0  0  0  0  0
    2.4928    3.0982   -0.0000 N   0  0  0  0  0  0  0  0  0  0  0  0
    9.0215   -0.6410   -0.0000 O   0  0  0  0  0  0  0  0  0  0  0  0
    7.7039    1.6144   -0.0000 N   0  0  0  0  0  0  0  0  0  0  0  0
    8.9978    2.3741   -0.0000 C   0  0  0  0  0  0  0  0  0  0  0  0
    6.3863    2.3622   -0.0000 C   0  0  0  0  0  0  0  0  0  0  0  0
    8.9859    3.8816   -0.0000 C   0  0  0  0  0  0  0  0  0  0  0  0
    9.9000    1.1989   -0.0000 C   0  0  0  0  0  0  0  0  0  0  0  0
    6.3744    3.8816   -0.0000 C   0  0  0  0  0  0  0  0  0  0  0  0
   10.2798    4.6413   -0.0000 C   0  0  0  0  0  0  0  0  0  0  0  0
    7.6683    4.6413   -0.0000 C   0  0  0  0  0  0  0  0  0  0  0  0
   11.3719    1.4126   -0.0000 N   0  0  0  0  0  0  0  0  0  0  0  0
   11.5737    3.9054   -0.0000 C   0  0  0  0  0  0  0  0  0  0  0  0
   10.2679    6.1489   -0.0000 C   0  0  0  0  0  0  0  0  0  0  0  0
   12.3927    0.3442   -0.0000 C   0  0  0  0  0  0  0  0  0  0  0  0
   12.0722    2.7539   -0.0000 C   0  0  0  0  0  0  0  0  0  0  0  0
   12.8557    4.6651   -0.0000 C   0  0  0  0  0  0  0  0  0  0  0  0
   11.5499    6.9205   -0.0000 C   0  0  0  0  0  0  0  0  0  0  0  0
   13.7341    1.0090   -0.0000 C   0  0  0  0  0  0  0  0  0  0  0  0
   13.5442    2.4928   -0.0000 C   0  0  0  0  0  0  0  0  0  0  0  0
   12.8438    6.1845   -0.0000 C   0  0  0  0  0  0  0  0  0  0  0  0
  1  2  1  0  0  0  0
  2  3  2  0  0  0  0
  2  4  1  0  0  0  0
  3  5  1  0  0  0  0
  3  6  1  0  0  0  0
  4  7  2  0  0  0  0
  6  8  2  0  0  0  0
  7  9  1  0  0  0  0
  9 10  1  0  0  0  0
  9 11  1  0  0  0  0
 10 12  1  0  0  0  0
 11 13  1  0  0  0  0
 12 14  3  0  0  0  0
 13 15  2  0  0  0  0
 13 16  1  0  0  0  0
 16 17  1  0  0  0  0
 16 18  1  0  0  0  0
 17 19  1  0  0  0  0
 17 20  1  0  0  0  0
 18 21  1  0  0  0  0
 19 22  1  0  0  0  0
 19 23  1  0  0  0  0
 20 24  1  0  0  0  0
 22 25  2  0  0  0  0
 22 26  1  0  0  0  0
 24 27  1  0  0  0  0
 24 28  1  0  0  0  0
 25 29  1  0  0  0  0
 26 30  2  0  0  0  0
 27 31  1  0  0  0  0
 28 32  1  0  0  0  0
 29 33  2  0  0  0  0
  7  8  1  0  0  0  0
 21 23  1  0  0  0  0
 30 33  1  0  0  0  0
 31 32  1  0  0  0  0
M  END
>  <MolRegNo>
427004

>  <m>
=

>  <Value>
1100

>  <Unit>
nM

>  <Type>
IC50

>  <pValue>
5.96

>  <Ligand Efficiency>
0

>  <Binding Efficiency>
0

>  <Surface Efficiency>
0

>  <Assay Index>
328212

>  <Assay Category>


>  <Assay Organism>


>  <Target ID>
17045

>  <Target Name>
Cytochrome P450 3A4

>  <Target Organism>
Homo sapiens

>  <Target Description>
Target is a single protein chain

>  <Sequence Accession>
P08684

>  <Reference>
Bioorg Med Chem Lett 18 (12), 3500-3503 (2008)

>  <Pubmed ID>
18502123

>  <DOI>
10.1016/j.bmcl.2008.05.027

$$$$
426282
Actelion Java MolfileCreator 1.0

 32 35  0  0  0  0  0  0  0  0999 V2000
    0.0000   -0.0000   -0.0000 Cl  0  0  0  0  0  0  0  0  0  0  0  0
    1.2948   -0.7365   -0.0000 C   0  0  0  0  0  0  0  0  0  0  0  0
    1.2829   -2.2332   -0.0000 C   0  0  0  0  0  0  0  0  0  0  0  0
    2.5776    0.0238   -0.0000 C   0  0  0  0  0  0  0  0  0  0  0  0
   -0.0356   -2.9696   -0.0000 Cl  0  0  0  0  0  0  0  0  0  0  0  0
    2.5658   -2.9696   -0.0000 C   0  0  0  0  0  0  0  0  0  0  0  0
    3.8724   -0.7127   -0.0000 C   0  0  0  0  0  0  0  0  0  0  0  0
    3.8605   -2.2094   -0.0000 C   0  0  0  0  0  0  0  0  0  0  0  0
    5.1553    0.0594   -0.0000 N   0  0  0  0  0  0  0  0  0  0  0  0
    6.4500   -0.6771   -0.0000 C   0  0  0  0  0  0  0  0  0  0  0  0
    5.1315    1.5798   -0.0000 C   0  0  0  0  0  0  0  0  0  0  0  0
    7.7329    0.0950   -0.0000 C   0  0  0  0  0  0  0  0  0  0  0  0
    9.0277   -0.6414   -0.0000 O   0  0  0  0  0  0  0  0  0  0  0  0
    7.7092    1.6155   -0.0000 N   0  0  0  0  0  0  0  0  0  0  0  0
    9.0039    2.3757   -0.0000 C   0  0  0  0  0  0  0  0  0  0  0  0
    6.3906    2.3638   -0.0000 C   0  0  0  0  0  0  0  0  0  0  0  0
    8.9920    3.8843   -0.0000 C   0  0  0  0  0  0  0  0  0  0  0  0
    9.9067    1.1997   -0.0000 C   0  0  0  0  0  0  0  0  0  0  0  0
    6.3788    3.8843   -0.0000 C   0  0  0  0  0  0  0  0  0  0  0  0
   10.2868    4.6445   -0.0000 C   0  0  0  0  0  0  0  0  0  0  0  0
    7.6735    4.6445   -0.0000 C   0  0  0  0  0  0  0  0  0  0  0  0
   11.3796    1.4135   -0.0000 N   0  0  0  0  0  0  0  0  0  0  0  0
   11.5815    3.9080   -0.0000 C   0  0  0  0  0  0  0  0  0  0  0  0
   10.2749    6.1531   -0.0000 C   0  0  0  0  0  0  0  0  0  0  0  0
   12.2824    0.2257   -0.0000 C   0  0  0  0  0  0  0  0  0  0  0  0
   11.9379    2.8152   -0.0000 C   0  0  0  0  0  0  0  0  0  0  0  0
   12.8644    4.6683   -0.0000 C   0  0  0  0  0  0  0  0  0  0  0  0
   11.5578    6.9252   -0.0000 C   0  0  0  0  0  0  0  0  0  0  0  0
   13.7553    0.4276   -0.0000 C   0  0  0  0  0  0  0  0  0  0  0  0
   13.4227    3.0171   -0.0000 C   0  0  0  0  0  0  0  0  0  0  0  0
   12.8525    6.1887   -0.0000 C   0  0  0  0  0  0  0  0  0  0  0  0
   14.3255    1.8293   -0.0000 O   0  0  0  0  0  0  0  0  0  0  0  0
  1  2  1  0  0  0  0
  2  3  2  0  0  0  0
  2  4  1  0  0  0  0
  3  5  1  0  0  0  0
  3  6  1  0  0  0  0
  4  7  2  0  0  0  0
  6  8  2  0  0  0  0
  7  9  1  0  0  0  0
  9 10  1  0  0  0  0
  9 11  1  0  0  0  0
 10 12  1  0  0  0  0
 12 13  2  0  0  0  0
 12 14  1  0  0  0  0
 14 15  1  0  0  0  0
 14 16  1  0  0  0  0
 15 17  1  0  0  0  0
 15 18  1  0  0  0  0
 16 19  1  0  0  0  0
 17 20  1  0  0  0  0
 17 21  1  0  0  0  0
 18 22  1  0  0  0  0
 20 23  2  0  0  0  0
 20 24  1  0  0  0  0
 22 25  1  0  0  0  0
 22 26  1  0  0  0  0
 23 27  1  0  0  0  0
 24 28  2  0  0  0  0
 25 29  1  0  0  0  0
 26 30  1  0  0  0  0
 27 31  2  0  0  0  0
 29 32  1  0  0  0  0
  7  8  1  0  0  0  0
 19 21  1  0  0  0  0
 28 31  1  0  0  0  0
 30 32  1  0  0  0  0
M  END
>  <MolRegNo>
426282

>  <m>
=

>  <Value>
770

>  <Unit>
nM

>  <Type>
IC50

>  <pValue>
6.11

>  <Ligand Efficiency>
0

>  <Binding Efficiency>
0

>  <Surface Efficiency>
0

>  <Assay Index>
328212

>  <Assay Category>


>  <Assay Organism>


>  <Target ID>
17045

>  <Target Name>
Cytochrome P450 3A4

>  <Target Organism>
Homo sapiens

>  <Target Description>
Target is a single protein chain

>  <Sequence Accession>
P08684

>  <Reference>
Bioorg Med Chem Lett 18 (12), 3500-3503 (2008)

>  <Pubmed ID>
18502123

>  <DOI>
10.1016/j.bmcl.2008.05.027

$$$$
510315
Actelion Java MolfileCreator 1.0

 19 21  0  0  0  0  0  0  0  0999 V2000
    0.0000   -0.0000   -0.0000 O   0  0  0  0  0  0  0  0  0  0  0  0
    1.2930    0.7592   -0.0000 C   0  0  0  0  0  0  0  0  0  0  0  0
   -1.3167    0.7592   -0.0000 C   0  0  0  0  0  0  0  0  0  0  0  0
    2.5860    0.0237   -0.0000 C   0  0  0  0  0  0  0  0  0  0  0  0
    1.2811    2.2776   -0.0000 C   0  0  0  0  0  0  0  0  0  0  0  0
    3.8790    0.7948   -0.0000 C   0  0  0  0  0  0  0  0  0  0  0  0
    2.5623    3.0368   -0.0000 C   0  0  0  0  0  0  0  0  0  0  0  0
    3.8672    2.3132   -0.0000 C   0  0  0  0  0  0  0  0  0  0  0  0
    5.1720    0.0593   -0.0000 C   0  0  0  0  0  0  0  0  0  0  0  0
    5.1483    3.0842   -0.0000 C   0  0  0  0  0  0  0  0  0  0  0  0
    6.4650    0.8304   -0.0000 C   0  0  0  0  0  0  0  0  0  0  0  0
    6.4413    2.3488   -0.0000 C   0  0  0  0  0  0  0  0  0  0  0  0
    7.7225    3.1198   -0.0000 C   0  0  0  0  0  0  0  0  0  0  0  0
    9.0155    2.3844   -0.0000 C   0  0  0  0  0  0  0  0  0  0  0  0
    7.6987    4.6264   -0.0000 C   0  0  0  0  0  0  0  0  0  0  0  0
    9.0155    0.8897   -0.0000 N   0  0  0  0  0  0  0  0  0  0  0  0
   10.2966    3.1554   -0.0000 C   0  0  0  0  0  0  0  0  0  0  0  0
    8.9799    5.3974   -0.0000 N   0  0  0  0  0  0  0  0  0  0  0  0
   10.2729    4.6738   -0.0000 C   0  0  0  0  0  0  0  0  0  0  0  0
  1  2  1  0  0  0  0
  1  3  1  0  0  0  0
  2  4  2  0  0  0  0
  2  5  1  0  0  0  0
  4  6  1  0  0  0  0
  5  7  2  0  0  0  0
  6  8  1  0  0  0  0
  6  9  2  0  0  0  0
  8 10  2  0  0  0  0
  9 11  1  0  0  0  0
 10 12  1  0  0  0  0
 12 13  1  0  0  0  0
 13 14  2  0  0  0  0
 13 15  1  0  0  0  0
 14 16  1  0  0  0  0
 14 17  1  0  0  0  0
 15 18  2  0  0  0  0
 17 19  2  0  0  0  0
  7  8  1  0  0  0  0
 11 12  2  0  0  0  0
 18 19  1  0  0  0  0
M  END
>  <MolRegNo>
510315

>  <m>
=

>  <Value>
21070

>  <Unit>
nM

>  <Type>
IC50

>  <pValue>
4.68

>  <Ligand Efficiency>
0

>  <Binding Efficiency>
0

>  <Surface Efficiency>
0

>  <Assay Index>
359010

>  <Assay Category>


>  <Assay Organism>
Homo sapiens

>  <Target ID>
17045

>  <Target Name>
Cytochrome P450 3A4

>  <Target Organism>
Homo sapiens

>  <Target Description>
Target is a single protein chain

>  <Sequence Accession>
P08684

>  <Reference>
J Med Chem 51 (16), 5064-5074 (2008)

>  <Pubmed ID>
18672861

>  <DOI>
10.1021/jm800377h

$$$$
510497
Actelion Java MolfileCreator 1.0

 22 25  0  0  0  0  0  0  0  0999 V2000
    0.0000   -0.0000   -0.0000 O   0  0  0  0  0  0  0  0  0  0  0  0
    1.2960    0.7609   -0.0000 C   0  0  0  0  0  0  0  0  0  0  0  0
   -1.3197    0.7609   -0.0000 C   0  0  0  0  0  0  0  0  0  0  0  0
    2.5919    0.0238   -0.0000 C   0  0  0  0  0  0  0  0  0  0  0  0
    1.2841    2.2828   -0.0000 C   0  0  0  0  0  0  0  0  0  0  0  0
    3.8879    0.7966   -0.0000 C   0  0  0  0  0  0  0  0  0  0  0  0
    2.5681    3.0437   -0.0000 C   0  0  0  0  0  0  0  0  0  0  0  0
    3.8760    2.3185   -0.0000 C   0  0  0  0  0  0  0  0  0  0  0  0
    5.1838    0.0594   -0.0000 C   0  0  0  0  0  0  0  0  0  0  0  0
    5.1601    3.0913   -0.0000 C   0  0  0  0  0  0  0  0  0  0  0  0
    6.4798    0.8323   -0.0000 C   0  0  0  0  0  0  0  0  0  0  0  0
    6.4560    2.3541   -0.0000 C   0  0  0  0  0  0  0  0  0  0  0  0
    7.7401    3.1269   -0.0000 C   0  0  0  0  0  0  0  0  0  0  0  0
    9.0361    2.3898   -0.0000 C   0  0  0  0  0  0  0  0  0  0  0  0
    7.7163    4.6369   -0.0000 C   0  0  0  0  0  0  0  0  0  0  0  0
   10.3201    3.1507   -0.0000 C   0  0  0  0  0  0  0  0  0  0  0  0
    9.0361    0.9036   -0.0000 C   0  0  0  0  0  0  0  0  0  0  0  0
    9.0004    5.4097   -0.0000 N   0  0  0  0  0  0  0  0  0  0  0  0
   10.2963    4.6726   -0.0000 C   0  0  0  0  0  0  0  0  0  0  0  0
   11.6042    2.4255   -0.0000 C   0  0  0  0  0  0  0  0  0  0  0  0
   10.3201    0.1665   -0.0000 C   0  0  0  0  0  0  0  0  0  0  0  0
   11.6042    0.9393   -0.0000 C   0  0  0  0  0  0  0  0  0  0  0  0
  1  2  1  0  0  0  0
  1  3  1  0  0  0  0
  2  4  2  0  0  0  0
  2  5  1  0  0  0  0
  4  6  1  0  0  0  0
  5  7  2  0  0  0  0
  6  8  1  0  0  0  0
  6  9  2  0  0  0  0
  8 10  2  0  0  0  0
  9 11  1  0  0  0  0
 10 12  1  0  0  0  0
 12 13  1  0  0  0  0
 13 14  1  0  0  0  0
 13 15  2  0  0  0  0
 14 16  1  0  0  0  0
 14 17  2  0  0  0  0
 15 18  1  0  0  0  0
 16 19  1  0  0  0  0
 16 20  2  0  0  0  0
 17 21  1  0  0  0  0
 20 22  1  0  0  0  0
  7  8  1  0  0  0  0
 11 12  2  0  0  0  0
 18 19  2  0  0  0  0
 21 22  2  0  0  0  0
M  END
>  <MolRegNo>
510497

>  <m>
=

>  <Value>
3540

>  <Unit>
nM

>  <Type>
IC50

>  <pValue>
5.45

>  <Ligand Efficiency>
0

>  <Binding Efficiency>
0

>  <Surface Efficiency>
0

>  <Assay Index>
359010

>  <Assay Category>


>  <Assay Organism>
Homo sapiens

>  <Target ID>
17045

>  <Target Name>
Cytochrome P450 3A4

>  <Target Organism>
Homo sapiens

>  <Target Description>
Target is a single protein chain

>  <Sequence Accession>
P08684

>  <Reference>
J Med Chem 51 (16), 5064-5074 (2008)

>  <Pubmed ID>
18672861

>  <DOI>
10.1021/jm800377h

$$$$
510373
Actelion Java MolfileCreator 1.0

 21 23  0  0  0  0  0  0  0  0999 V2000
    0.0000   -0.0000   -0.0000 O   0  0  0  0  0  0  0  0  0  0  0  0
   -0.0237    1.5019   -0.0000 C   0  0  0  0  0  0  0  0  0  0  0  0
   -1.3363    2.2588   -0.0000 C   0  0  0  0  0  0  0  0  0  0  0  0
    1.2536    2.2706   -0.0000 C   0  0  0  0  0  0  0  0  0  0  0  0
   -1.3600    3.7607   -0.0000 C   0  0  0  0  0  0  0  0  0  0  0  0
   -2.6372    1.5137   -0.0000 C   0  0  0  0  0  0  0  0  0  0  0  0
   -2.6727    4.5057   -0.0000 N   0  0  0  0  0  0  0  0  0  0  0  0
   -3.9499    2.2706   -0.0000 C   0  0  0  0  0  0  0  0  0  0  0  0
   -3.9617    3.7607   -0.0000 C   0  0  0  0  0  0  0  0  0  0  0  0
   -5.2389    1.5255   -0.0000 C   0  0  0  0  0  0  0  0  0  0  0  0
   -6.5516    2.2706   -0.0000 C   0  0  0  0  0  0  0  0  0  0  0  0
   -5.2389    0.0355   -0.0000 C   0  0  0  0  0  0  0  0  0  0  0  0
   -7.8524    1.5374   -0.0000 C   0  0  0  0  0  0  0  0  0  0  0  0
   -6.5398   -0.6977   -0.0000 C   0  0  0  0  0  0  0  0  0  0  0  0
   -7.8643    0.0473   -0.0000 C   0  0  0  0  0  0  0  0  0  0  0  0
   -9.1533    2.2942   -0.0000 C   0  0  0  0  0  0  0  0  0  0  0  0
   -9.1651   -0.6977   -0.0000 C   0  0  0  0  0  0  0  0  0  0  0  0
  -10.4542    1.5610   -0.0000 C   0  0  0  0  0  0  0  0  0  0  0  0
  -10.4660    0.0591   -0.0000 C   0  0  0  0  0  0  0  0  0  0  0  0
  -11.7668   -0.6741   -0.0000 O   0  0  0  0  0  0  0  0  0  0  0  0
  -13.0677    0.0828   -0.0000 C   0  0  0  0  0  0  0  0  0  0  0  0
  1  2  2  0  0  0  0
  2  3  1  0  0  0  0
  2  4  1  0  0  0  0
  3  5  2  0  0  0  0
  3  6  1  0  0  0  0
  5  7  1  0  0  0  0
  6  8  2  0  0  0  0
  7  9  2  0  0  0  0
  8 10  1  0  0  0  0
 10 11  2  0  0  0  0
 10 12  1  0  0  0  0
 11 13  1  0  0  0  0
 12 14  2  0  0  0  0
 13 15  1  0  0  0  0
 13 16  2  0  0  0  0
 15 17  2  0  0  0  0
 16 18  1  0  0  0  0
 17 19  1  0  0  0  0
 19 20  1  0  0  0  0
 20 21  1  0  0  0  0
  8  9  1  0  0  0  0
 14 15  1  0  0  0  0
 18 19  2  0  0  0  0
M  END
>  <MolRegNo>
510373

>  <m>
=

>  <Value>
9070

>  <Unit>
nM

>  <Type>
IC50

>  <pValue>
5.04

>  <Ligand Efficiency>
0

>  <Binding Efficiency>
0

>  <Surface Efficiency>
0

>  <Assay Index>
359010

>  <Assay Category>


>  <Assay Organism>
Homo sapiens

>  <Target ID>
17045

>  <Target Name>
Cytochrome P450 3A4

>  <Target Organism>
Homo sapiens

>  <Target Description>
Target is a single protein chain

>  <Sequence Accession>
P08684

>  <Reference>
J Med Chem 51 (16), 5064-5074 (2008)

>  <Pubmed ID>
18672861

>  <DOI>
10.1021/jm800377h

$$$$
510317
Actelion Java MolfileCreator 1.0

 20 22  0  0  0  0  0  0  0  0999 V2000
    0.0000   -0.0000   -0.0000 O   0  0  0  0  0  0  0  0  0  0  0  0
   -1.3128    0.7569   -0.0000 C   0  0  0  0  0  0  0  0  0  0  0  0
    1.2773    0.7687   -0.0000 C   0  0  0  0  0  0  0  0  0  0  0  0
   -1.3364    2.2589   -0.0000 C   0  0  0  0  0  0  0  0  0  0  0  0
   -2.6137    0.0118   -0.0000 C   0  0  0  0  0  0  0  0  0  0  0  0
   -2.6492    3.0040   -0.0000 N   0  0  0  0  0  0  0  0  0  0  0  0
   -3.9265    0.7687   -0.0000 C   0  0  0  0  0  0  0  0  0  0  0  0
   -3.9383    2.2589   -0.0000 C   0  0  0  0  0  0  0  0  0  0  0  0
   -5.2156    0.0237   -0.0000 C   0  0  0  0  0  0  0  0  0  0  0  0
   -6.5283    0.7687   -0.0000 C   0  0  0  0  0  0  0  0  0  0  0  0
   -5.2156   -1.4665   -0.0000 C   0  0  0  0  0  0  0  0  0  0  0  0
   -7.8293    0.0355   -0.0000 C   0  0  0  0  0  0  0  0  0  0  0  0
   -6.5165   -2.1998   -0.0000 C   0  0  0  0  0  0  0  0  0  0  0  0
   -7.8411   -1.4547   -0.0000 C   0  0  0  0  0  0  0  0  0  0  0  0
   -9.1302    0.7924   -0.0000 C   0  0  0  0  0  0  0  0  0  0  0  0
   -9.1420   -2.1998   -0.0000 C   0  0  0  0  0  0  0  0  0  0  0  0
  -10.4312    0.0591   -0.0000 C   0  0  0  0  0  0  0  0  0  0  0  0
  -10.4430   -1.4429   -0.0000 C   0  0  0  0  0  0  0  0  0  0  0  0
  -11.7439   -2.1761   -0.0000 O   0  0  0  0  0  0  0  0  0  0  0  0
  -13.0449   -1.4192   -0.0000 C   0  0  0  0  0  0  0  0  0  0  0  0
  1  2  1  0  0  0  0
  1  3  1  0  0  0  0
  2  4  2  0  0  0  0
  2  5  1  0  0  0  0
  4  6  1  0  0  0  0
  5  7  2  0  0  0  0
  6  8  2  0  0  0  0
  7  9  1  0  0  0  0
  9 10  2  0  0  0  0
  9 11  1  0  0  0  0
 10 12  1  0  0  0  0
 11 13  2  0  0  0  0
 12 14  1  0  0  0  0
 12 15  2  0  0  0  0
 14 16  2  0  0  0  0
 15 17  1  0  0  0  0
 16 18  1  0  0  0  0
 18 19  1  0  0  0  0
 19 20  1  0  0  0  0
  7  8  1  0  0  0  0
 13 14  1  0  0  0  0
 17 18  2  0  0  0  0
M  END
>  <MolRegNo>
510317

>  <m>
=

>  <Value>
1913

>  <Unit>
nM

>  <Type>
IC50

>  <pValue>
5.72

>  <Ligand Efficiency>
0

>  <Binding Efficiency>
0

>  <Surface Efficiency>
0

>  <Assay Index>
359010

>  <Assay Category>


>  <Assay Organism>
Homo sapiens

>  <Target ID>
17045

>  <Target Name>
Cytochrome P450 3A4

>  <Target Organism>
Homo sapiens

>  <Target Description>
Target is a single protein chain

>  <Sequence Accession>
P08684

>  <Reference>
J Med Chem 51 (16), 5064-5074 (2008)

>  <Pubmed ID>
18672861

>  <DOI>
10.1021/jm800377h

$$$$
511032
Actelion Java MolfileCreator 1.0

 25 27  0  0  0  0  0  0  0  0999 V2000
    0.0000   -0.0000   -0.0000 Br  0  0  0  0  0  0  0  0  0  0  0  0
   -3.8909   -7.9715   -0.0000 F   0  0  0  0  0  0  0  0  0  0  0  0
   -2.5979   -8.7070   -0.0000 C   0  0  0  0  0  0  0  0  0  0  0  0
   -2.6097  -10.2017   -0.0000 C   0  0  0  0  0  0  0  0  0  0  0  0
   -1.3167   -7.9478   -0.0000 C   0  0  0  0  0  0  0  0  0  0  0  0
   -3.9265  -10.9371   -0.0000 O   0  0  0  0  0  0  0  0  0  0  0  0
   -1.3167  -10.9371   -0.0000 C   0  0  0  0  0  0  0  0  0  0  0  0
   -0.0237   -8.6833   -0.0000 C   0  0  0  0  0  0  0  0  0  0  0  0
   -0.0237  -10.1779   -0.0000 C   0  0  0  0  0  0  0  0  0  0  0  0
    1.2574   -7.9122   -0.0000 C   0  0  0  0  0  0  0  0  0  0  0  0
    2.5504   -8.6477   -0.0000 C   0  0  0  0  0  0  0  0  0  0  0  0
    1.2337   -6.4057   -0.0000 C   0  0  0  0  0  0  0  0  0  0  0  0
    3.8316   -7.8766   -0.0000 C   0  0  0  0  0  0  0  0  0  0  0  0
    2.5148   -5.6346   -0.0000 C   0  0  0  0  0  0  0  0  0  0  0  0
    3.8197   -6.3701   -0.0000 C   0  0  0  0  0  0  0  0  0  0  0  0
    5.1127   -8.6121   -0.0000 C   0  0  0  0  0  0  0  0  0  0  0  0
    5.1008   -5.5990   -0.0000 C   0  0  0  0  0  0  0  0  0  0  0  0
    6.3938   -7.8529   -0.0000 C   0  0  0  0  0  0  0  0  0  0  0  0
    5.0771   -4.0925   -0.0000 C   0  0  0  0  0  0  0  0  0  0  0  0
    6.3938   -6.3345   -0.0000 C   0  0  0  0  0  0  0  0  0  0  0  0
    6.3701   -3.3215   -0.0000 C   0  0  0  0  0  0  0  0  0  0  0  0
    3.7604   -3.3452   -0.0000 C   0  0  0  0  0  0  0  0  0  0  0  0
    6.3582   -1.8031   -0.0000 C   0  0  0  0  0  0  0  0  0  0  0  0
    3.7367   -1.8387   -0.0000 C   0  0  0  0  0  0  0  0  0  0  0  0
    5.0415   -1.0439   -0.0000 N   0  0  0  0  0  0  0  0  0  0  0  0
  2  3  1  0  0  0  0
  3  4  2  0  0  0  0
  3  5  1  0  0  0  0
  4  6  1  0  0  0  0
  4  7  1  0  0  0  0
  5  8  2  0  0  0  0
  7  9  2  0  0  0  0
  8 10  1  0  0  0  0
 10 11  2  0  0  0  0
 10 12  1  0  0  0  0
 11 13  1  0  0  0  0
 12 14  2  0  0  0  0
 13 15  2  0  0  0  0
 13 16  1  0  0  0  0
 15 17  1  0  0  0  0
 16 18  1  0  0  0  0
 17 19  1  0  0  0  0
 17 20  1  0  0  0  0
 19 21  2  0  0  0  0
 19 22  1  0  0  0  0
 21 23  1  0  0  0  0
 22 24  2  0  0  0  0
 23 25  2  0  0  0  0
  8  9  1  0  0  0  0
 14 15  1  0  0  0  0
 18 20  1  0  0  0  0
 24 25  1  0  0  0  0
M  END
>  <MolRegNo>
511032

>  <m>
=

>  <Value>
3386

>  <Unit>
nM

>  <Type>
IC50

>  <pValue>
5.47

>  <Ligand Efficiency>
0

>  <Binding Efficiency>
0

>  <Surface Efficiency>
0

>  <Assay Index>
359043

>  <Assay Category>


>  <Assay Organism>


>  <Target ID>
17045

>  <Target Name>
Cytochrome P450 3A4

>  <Target Organism>
Homo sapiens

>  <Target Description>
Target is a single protein chain

>  <Sequence Accession>
P08684

>  <Reference>
J Med Chem 51 (16), 5009-5018 (2008)

>  <Pubmed ID>
18672868

>  <DOI>
10.1021/jm800355c

$$$$
511031
Actelion Java MolfileCreator 1.0

 25 27  0  0  0  0  0  0  0  0999 V2000
    0.0000   -0.0000   -0.0000 Br  0  0  0  0  0  0  0  0  0  0  0  0
   -3.7011   -5.8837   -0.0000 O   0  0  0  0  0  0  0  0  0  0  0  0
   -2.4081   -6.6192   -0.0000 C   0  0  0  0  0  0  0  0  0  0  0  0
   -2.4199   -8.1139   -0.0000 C   0  0  0  0  0  0  0  0  0  0  0  0
   -1.1269   -5.8600   -0.0000 C   0  0  0  0  0  0  0  0  0  0  0  0
   -3.7367   -8.8493   -0.0000 O   0  0  0  0  0  0  0  0  0  0  0  0
   -1.1269   -8.8493   -0.0000 C   0  0  0  0  0  0  0  0  0  0  0  0
    0.1661   -6.5955   -0.0000 C   0  0  0  0  0  0  0  0  0  0  0  0
    0.1661   -8.0902   -0.0000 C   0  0  0  0  0  0  0  0  0  0  0  0
    1.4472   -5.8244   -0.0000 C   0  0  0  0  0  0  0  0  0  0  0  0
    2.7402   -6.5599   -0.0000 C   0  0  0  0  0  0  0  0  0  0  0  0
    1.4235   -4.3179   -0.0000 C   0  0  0  0  0  0  0  0  0  0  0  0
    4.0214   -5.7888   -0.0000 C   0  0  0  0  0  0  0  0  0  0  0  0
    2.7046   -3.5469   -0.0000 C   0  0  0  0  0  0  0  0  0  0  0  0
    4.0095   -4.2823   -0.0000 C   0  0  0  0  0  0  0  0  0  0  0  0
    5.3025   -6.5243   -0.0000 C   0  0  0  0  0  0  0  0  0  0  0  0
    5.2906   -3.5113   -0.0000 C   0  0  0  0  0  0  0  0  0  0  0  0
    6.5836   -5.7651   -0.0000 C   0  0  0  0  0  0  0  0  0  0  0  0
    5.2669   -2.0047   -0.0000 C   0  0  0  0  0  0  0  0  0  0  0  0
    6.5836   -4.2467   -0.0000 C   0  0  0  0  0  0  0  0  0  0  0  0
    6.5599   -1.2337   -0.0000 C   0  0  0  0  0  0  0  0  0  0  0  0
    3.9502   -1.2574   -0.0000 C   0  0  0  0  0  0  0  0  0  0  0  0
    6.5480    0.2847   -0.0000 C   0  0  0  0  0  0  0  0  0  0  0  0
    3.9265    0.2491   -0.0000 C   0  0  0  0  0  0  0  0  0  0  0  0
    5.2313    1.0439   -0.0000 N   0  0  0  0  0  0  0  0  0  0  0  0
  2  3  1  0  0  0  0
  3  4  2  0  0  0  0
  3  5  1  0  0  0  0
  4  6  1  0  0  0  0
  4  7  1  0  0  0  0
  5  8  2  0  0  0  0
  7  9  2  0  0  0  0
  8 10  1  0  0  0  0
 10 11  2  0  0  0  0
 10 12  1  0  0  0  0
 11 13  1  0  0  0  0
 12 14  2  0  0  0  0
 13 15  2  0  0  0  0
 13 16  1  0  0  0  0
 15 17  1  0  0  0  0
 16 18  1  0  0  0  0
 17 19  1  0  0  0  0
 17 20  1  0  0  0  0
 19 21  2  0  0  0  0
 19 22  1  0  0  0  0
 21 23  1  0  0  0  0
 22 24  2  0  0  0  0
 23 25  2  0  0  0  0
  8  9  1  0  0  0  0
 14 15  1  0  0  0  0
 18 20  1  0  0  0  0
 24 25  1  0  0  0  0
M  END
>  <MolRegNo>
511031

>  <m>
=

>  <Value>
632

>  <Unit>
nM

>  <Type>
IC50

>  <pValue>
6.2

>  <Ligand Efficiency>
0

>  <Binding Efficiency>
0

>  <Surface Efficiency>
0

>  <Assay Index>
359043

>  <Assay Category>


>  <Assay Organism>


>  <Target ID>
17045

>  <Target Name>
Cytochrome P450 3A4

>  <Target Organism>
Homo sapiens

>  <Target Description>
Target is a single protein chain

>  <Sequence Accession>
P08684

>  <Reference>
J Med Chem 51 (16), 5009-5018 (2008)

>  <Pubmed ID>
18672868

>  <DOI>
10.1021/jm800355c

$$$$
510968
Actelion Java MolfileCreator 1.0

 25 27  0  0  0  0  0  0  0  0999 V2000
    0.0000   -0.0000   -0.0000 Cl  0  0  0  0  0  0  0  0  0  0  0  0
   -3.6062   -6.6429   -0.0000 F   0  0  0  0  0  0  0  0  0  0  0  0
   -2.3132   -7.3784   -0.0000 C   0  0  0  0  0  0  0  0  0  0  0  0
   -2.3250   -8.8731   -0.0000 C   0  0  0  0  0  0  0  0  0  0  0  0
   -1.0320   -6.6192   -0.0000 C   0  0  0  0  0  0  0  0  0  0  0  0
   -3.6418   -9.6085   -0.0000 F   0  0  0  0  0  0  0  0  0  0  0  0
   -1.0320   -9.6085   -0.0000 C   0  0  0  0  0  0  0  0  0  0  0  0
    0.2610   -7.3547   -0.0000 C   0  0  0  0  0  0  0  0  0  0  0  0
    0.2610   -8.8493   -0.0000 C   0  0  0  0  0  0  0  0  0  0  0  0
    1.5421   -6.5836   -0.0000 C   0  0  0  0  0  0  0  0  0  0  0  0
    2.8351   -7.3191   -0.0000 C   0  0  0  0  0  0  0  0  0  0  0  0
    1.5184   -5.0771   -0.0000 C   0  0  0  0  0  0  0  0  0  0  0  0
    4.1163   -6.5480   -0.0000 C   0  0  0  0  0  0  0  0  0  0  0  0
    2.7995   -4.3060   -0.0000 C   0  0  0  0  0  0  0  0  0  0  0  0
    4.1044   -5.0415   -0.0000 C   0  0  0  0  0  0  0  0  0  0  0  0
    5.3974   -7.2835   -0.0000 C   0  0  0  0  0  0  0  0  0  0  0  0
    5.3855   -4.2705   -0.0000 C   0  0  0  0  0  0  0  0  0  0  0  0
    6.6785   -6.5243   -0.0000 C   0  0  0  0  0  0  0  0  0  0  0  0
    5.3618   -2.7639   -0.0000 C   0  0  0  0  0  0  0  0  0  0  0  0
    6.6785   -5.0059   -0.0000 C   0  0  0  0  0  0  0  0  0  0  0  0
    6.6548   -1.9929   -0.0000 C   0  0  0  0  0  0  0  0  0  0  0  0
    4.0451   -2.0166   -0.0000 C   0  0  0  0  0  0  0  0  0  0  0  0
    6.6429   -0.4745   -0.0000 C   0  0  0  0  0  0  0  0  0  0  0  0
    4.0214   -0.5101   -0.0000 C   0  0  0  0  0  0  0  0  0  0  0  0
    5.3262    0.2847   -0.0000 N   0  0  0  0  0  0  0  0  0  0  0  0
  2  3  1  0  0  0  0
  3  4  2  0  0  0  0
  3  5  1  0  0  0  0
  4  6  1  0  0  0  0
  4  7  1  0  0  0  0
  5  8  2  0  0  0  0
  7  9  2  0  0  0  0
  8 10  1  0  0  0  0
 10 11  2  0  0  0  0
 10 12  1  0  0  0  0
 11 13  1  0  0  0  0
 12 14  2  0  0  0  0
 13 15  2  0  0  0  0
 13 16  1  0  0  0  0
 15 17  1  0  0  0  0
 16 18  1  0  0  0  0
 17 19  1  0  0  0  0
 17 20  1  0  0  0  0
 19 21  2  0  0  0  0
 19 22  1  0  0  0  0
 21 23  1  0  0  0  0
 22 24  2  0  0  0  0
 23 25  2  0  0  0  0
  8  9  1  0  0  0  0
 14 15  1  0  0  0  0
 18 20  1  0  0  0  0
 24 25  1  0  0  0  0
M  END
>  <MolRegNo>
510968

>  <m>
=

>  <Value>
2300

>  <Unit>
nM

>  <Type>
IC50

>  <pValue>
5.64

>  <Ligand Efficiency>
0

>  <Binding Efficiency>
0

>  <Surface Efficiency>
0

>  <Assay Index>
359043

>  <Assay Category>


>  <Assay Organism>


>  <Target ID>
17045

>  <Target Name>
Cytochrome P450 3A4

>  <Target Organism>
Homo sapiens

>  <Target Description>
Target is a single protein chain

>  <Sequence Accession>
P08684

>  <Reference>
J Med Chem 51 (16), 5009-5018 (2008)

>  <Pubmed ID>
18672868

>  <DOI>
10.1021/jm800355c

$$$$
510967
Actelion Java MolfileCreator 1.0

 24 26  0  0  0  0  0  0  0  0999 V2000
    0.0000   -0.0000   -0.0000 Cl  0  0  0  0  0  0  0  0  0  0  0  0
   -5.2335  -10.6573   -0.0000 F   0  0  0  0  0  0  0  0  0  0  0  0
   -3.9489   -9.8961   -0.0000 C   0  0  0  0  0  0  0  0  0  0  0  0
   -2.6643  -10.6335   -0.0000 C   0  0  0  0  0  0  0  0  0  0  0  0
   -3.9608   -8.3736   -0.0000 C   0  0  0  0  0  0  0  0  0  0  0  0
   -1.3678   -9.8723   -0.0000 C   0  0  0  0  0  0  0  0  0  0  0  0
   -2.6762   -7.6124   -0.0000 C   0  0  0  0  0  0  0  0  0  0  0  0
   -1.3797   -8.3498   -0.0000 C   0  0  0  0  0  0  0  0  0  0  0  0
   -0.0952   -7.5886   -0.0000 C   0  0  0  0  0  0  0  0  0  0  0  0
    1.2013   -8.3260   -0.0000 C   0  0  0  0  0  0  0  0  0  0  0  0
   -0.1189   -6.0780   -0.0000 C   0  0  0  0  0  0  0  0  0  0  0  0
    2.4740   -7.5529   -0.0000 C   0  0  0  0  0  0  0  0  0  0  0  0
    1.1538   -5.3049   -0.0000 C   0  0  0  0  0  0  0  0  0  0  0  0
    2.4621   -6.0423   -0.0000 C   0  0  0  0  0  0  0  0  0  0  0  0
    3.7586   -8.2785   -0.0000 C   0  0  0  0  0  0  0  0  0  0  0  0
    3.7348   -5.2692   -0.0000 C   0  0  0  0  0  0  0  0  0  0  0  0
    5.0432   -7.5172   -0.0000 C   0  0  0  0  0  0  0  0  0  0  0  0
    3.7110   -3.7586   -0.0000 C   0  0  0  0  0  0  0  0  0  0  0  0
    5.0194   -6.0066   -0.0000 C   0  0  0  0  0  0  0  0  0  0  0  0
    4.9956   -2.9974   -0.0000 C   0  0  0  0  0  0  0  0  0  0  0  0
    2.4027   -3.0093   -0.0000 C   0  0  0  0  0  0  0  0  0  0  0  0
    4.9837   -1.4868   -0.0000 C   0  0  0  0  0  0  0  0  0  0  0  0
    2.3789   -1.4987   -0.0000 C   0  0  0  0  0  0  0  0  0  0  0  0
    3.6635   -0.7256   -0.0000 N   0  0  0  0  0  0  0  0  0  0  0  0
  2  3  1  0  0  0  0
  3  4  2  0  0  0  0
  3  5  1  0  0  0  0
  4  6  1  0  0  0  0
  5  7  2  0  0  0  0
  6  8  2  0  0  0  0
  8  9  1  0  0  0  0
  9 10  2  0  0  0  0
  9 11  1  0  0  0  0
 10 12  1  0  0  0  0
 11 13  2  0  0  0  0
 12 14  2  0  0  0  0
 12 15  1  0  0  0  0
 14 16  1  0  0  0  0
 15 17  1  0  0  0  0
 16 18  1  0  0  0  0
 16 19  1  0  0  0  0
 18 20  2  0  0  0  0
 18 21  1  0  0  0  0
 20 22  1  0  0  0  0
 21 23  2  0  0  0  0
 22 24  2  0  0  0  0
  7  8  1  0  0  0  0
 13 14  1  0  0  0  0
 17 19  1  0  0  0  0
 23 24  1  0  0  0  0
M  END
>  <MolRegNo>
510967

>  <m>
=

>  <Value>
2173

>  <Unit>
nM

>  <Type>
IC50

>  <pValue>
5.66

>  <Ligand Efficiency>
0

>  <Binding Efficiency>
0

>  <Surface Efficiency>
0

>  <Assay Index>
359043

>  <Assay Category>


>  <Assay Organism>


>  <Target ID>
17045

>  <Target Name>
Cytochrome P450 3A4

>  <Target Organism>
Homo sapiens

>  <Target Description>
Target is a single protein chain

>  <Sequence Accession>
P08684

>  <Reference>
J Med Chem 51 (16), 5009-5018 (2008)

>  <Pubmed ID>
18672868

>  <DOI>
10.1021/jm800355c

$$$$
510966
Actelion Java MolfileCreator 1.0

 23 25  0  0  0  0  0  0  0  0999 V2000
    0.0000   -0.0000   -0.0000 Cl  0  0  0  0  0  0  0  0  0  0  0  0
   -4.9469   -8.4669   -0.0000 F   0  0  0  0  0  0  0  0  0  0  0  0
   -3.6626   -7.7058   -0.0000 C   0  0  0  0  0  0  0  0  0  0  0  0
   -2.3783   -8.4431   -0.0000 C   0  0  0  0  0  0  0  0  0  0  0  0
   -3.6745   -6.1837   -0.0000 C   0  0  0  0  0  0  0  0  0  0  0  0
   -1.0821   -7.6820   -0.0000 C   0  0  0  0  0  0  0  0  0  0  0  0
   -2.3902   -5.4226   -0.0000 C   0  0  0  0  0  0  0  0  0  0  0  0
   -1.0940   -6.1599   -0.0000 C   0  0  0  0  0  0  0  0  0  0  0  0
    0.1903   -5.3988   -0.0000 C   0  0  0  0  0  0  0  0  0  0  0  0
    1.4865   -6.1361   -0.0000 C   0  0  0  0  0  0  0  0  0  0  0  0
    0.1665   -3.8886   -0.0000 C   0  0  0  0  0  0  0  0  0  0  0  0
    2.7589   -5.3632   -0.0000 C   0  0  0  0  0  0  0  0  0  0  0  0
    1.4508   -3.1156   -0.0000 C   0  0  0  0  0  0  0  0  0  0  0  0
    2.7470   -3.8529   -0.0000 C   0  0  0  0  0  0  0  0  0  0  0  0
    4.1740   -5.8150   -0.0000 C   0  0  0  0  0  0  0  0  0  0  0  0
    4.1621   -3.3772   -0.0000 C   0  0  0  0  0  0  0  0  0  0  0  0
    5.0421   -4.5902   -0.0000 C   0  0  0  0  0  0  0  0  0  0  0  0
    4.8875   -2.0573   -0.0000 C   0  0  0  0  0  0  0  0  0  0  0  0
    6.3858   -2.0335   -0.0000 C   0  0  0  0  0  0  0  0  0  0  0  0
    4.1264   -0.7611   -0.0000 C   0  0  0  0  0  0  0  0  0  0  0  0
    7.1112   -0.7135   -0.0000 C   0  0  0  0  0  0  0  0  0  0  0  0
    4.8399    0.5589   -0.0000 C   0  0  0  0  0  0  0  0  0  0  0  0
    6.3383    0.5946   -0.0000 N   0  0  0  0  0  0  0  0  0  0  0  0
  2  3  1  0  0  0  0
  3  4  2  0  0  0  0
  3  5  1  0  0  0  0
  4  6  1  0  0  0  0
  5  7  2  0  0  0  0
  6  8  2  0  0  0  0
  8  9  1  0  0  0  0
  9 10  2  0  0  0  0
  9 11  1  0  0  0  0
 10 12  1  0  0  0  0
 11 13  2  0  0  0  0
 12 14  2  0  0  0  0
 12 15  1  0  0  0  0
 14 16  1  0  0  0  0
 15 17  1  0  0  0  0
 16 18  1  0  0  0  0
 18 19  2  0  0  0  0
 18 20  1  0  0  0  0
 19 21  1  0  0  0  0
 20 22  2  0  0  0  0
 21 23  2  0  0  0  0
  7  8  1  0  0  0  0
 13 14  1  0  0  0  0
 16 17  1  0  0  0  0
 22 23  1  0  0  0  0
M  END
>  <MolRegNo>
510966

>  <m>
=

>  <Value>
1093

>  <Unit>
nM

>  <Type>
IC50

>  <pValue>
5.96

>  <Ligand Efficiency>
0

>  <Binding Efficiency>
0

>  <Surface Efficiency>
0

>  <Assay Index>
359043

>  <Assay Category>


>  <Assay Organism>


>  <Target ID>
17045

>  <Target Name>
Cytochrome P450 3A4

>  <Target Organism>
Homo sapiens

>  <Target Description>
Target is a single protein chain

>  <Sequence Accession>
P08684

>  <Reference>
J Med Chem 51 (16), 5009-5018 (2008)

>  <Pubmed ID>
18672868

>  <DOI>
10.1021/jm800355c

$$$$
510965
Actelion Java MolfileCreator 1.0

 23 25  0  0  0  0  0  0  0  0999 V2000
    0.0000   -0.0000   -0.0000 Cl  0  0  0  0  0  0  0  0  0  0  0  0
   -5.1396   -8.5660   -0.0000 F   0  0  0  0  0  0  0  0  0  0  0  0
   -3.8547   -7.8046   -0.0000 C   0  0  0  0  0  0  0  0  0  0  0  0
   -2.5698   -8.5422   -0.0000 C   0  0  0  0  0  0  0  0  0  0  0  0
   -3.8666   -6.2937   -0.0000 C   0  0  0  0  0  0  0  0  0  0  0  0
   -1.2730   -7.7808   -0.0000 C   0  0  0  0  0  0  0  0  0  0  0  0
   -2.5817   -5.5322   -0.0000 C   0  0  0  0  0  0  0  0  0  0  0  0
   -1.2849   -6.2580   -0.0000 C   0  0  0  0  0  0  0  0  0  0  0  0
    0.0000   -5.4965   -0.0000 C   0  0  0  0  0  0  0  0  0  0  0  0
    1.2968   -6.2342   -0.0000 C   0  0  0  0  0  0  0  0  0  0  0  0
   -0.0238   -3.9856   -0.0000 C   0  0  0  0  0  0  0  0  0  0  0  0
    2.5698   -5.4608   -0.0000 C   0  0  0  0  0  0  0  0  0  0  0  0
    1.2492   -3.2123   -0.0000 C   0  0  0  0  0  0  0  0  0  0  0  0
    2.5579   -3.9499   -0.0000 C   0  0  0  0  0  0  0  0  0  0  0  0
    3.9856   -5.9129   -0.0000 C   0  0  0  0  0  0  0  0  0  0  0  0
    3.9737   -3.4740   -0.0000 C   0  0  0  0  0  0  0  0  0  0  0  0
    4.8541   -4.6875   -0.0000 C   0  0  0  0  0  0  0  0  0  0  0  0
    4.6994   -2.1534   -0.0000 C   0  0  0  0  0  0  0  0  0  0  0  0
    6.1985   -2.1296   -0.0000 C   0  0  0  0  0  0  0  0  0  0  0  0
    3.9380   -0.8566   -0.0000 C   0  0  0  0  0  0  0  0  0  0  0  0
    6.9242   -0.8090   -0.0000 N   0  0  0  0  0  0  0  0  0  0  0  0
    4.6518    0.4640   -0.0000 C   0  0  0  0  0  0  0  0  0  0  0  0
    6.1509    0.4997   -0.0000 C   0  0  0  0  0  0  0  0  0  0  0  0
  2  3  1  0  0  0  0
  3  4  2  0  0  0  0
  3  5  1  0  0  0  0
  4  6  1  0  0  0  0
  5  7  2  0  0  0  0
  6  8  2  0  0  0  0
  8  9  1  0  0  0  0
  9 10  2  0  0  0  0
  9 11  1  0  0  0  0
 10 12  1  0  0  0  0
 11 13  2  0  0  0  0
 12 14  2  0  0  0  0
 12 15  1  0  0  0  0
 14 16  1  0  0  0  0
 15 17  1  0  0  0  0
 16 18  1  0  0  0  0
 18 19  2  0  0  0  0
 18 20  1  0  0  0  0
 19 21  1  0  0  0  0
 20 22  2  0  0  0  0
 21 23  2  0  0  0  0
  7  8  1  0  0  0  0
 13 14  1  0  0  0  0
 16 17  1  0  0  0  0
 22 23  1  0  0  0  0
M  END
>  <MolRegNo>
510965

>  <m>
=

>  <Value>
1697

>  <Unit>
nM

>  <Type>
IC50

>  <pValue>
5.77

>  <Ligand Efficiency>
0

>  <Binding Efficiency>
0

>  <Surface Efficiency>
0

>  <Assay Index>
359043

>  <Assay Category>


>  <Assay Organism>


>  <Target ID>
17045

>  <Target Name>
Cytochrome P450 3A4

>  <Target Organism>
Homo sapiens

>  <Target Description>
Target is a single protein chain

>  <Sequence Accession>
P08684

>  <Reference>
J Med Chem 51 (16), 5009-5018 (2008)

>  <Pubmed ID>
18672868

>  <DOI>
10.1021/jm800355c

$$$$
510964
Actelion Java MolfileCreator 1.0

 25 27  0  0  0  0  0  0  0  0999 V2000
    0.0000   -0.0000   -0.0000 Br  0  0  0  0  0  0  0  0  0  0  0  0
   -3.0368   -6.0735   -0.0000 F   0  0  0  0  0  0  0  0  0  0  0  0
   -1.7438   -6.8090   -0.0000 C   0  0  0  0  0  0  0  0  0  0  0  0
   -1.7556   -8.3037   -0.0000 C   0  0  0  0  0  0  0  0  0  0  0  0
   -0.4626   -6.0498   -0.0000 C   0  0  0  0  0  0  0  0  0  0  0  0
   -3.0724   -9.0391   -0.0000 O   0  0  0  0  0  0  0  0  0  0  0  0
   -0.4626   -9.0391   -0.0000 C   0  0  0  0  0  0  0  0  0  0  0  0
    0.8304   -6.7853   -0.0000 C   0  0  0  0  0  0  0  0  0  0  0  0
    0.8304   -8.2799   -0.0000 C   0  0  0  0  0  0  0  0  0  0  0  0
    2.1115   -6.0142   -0.0000 C   0  0  0  0  0  0  0  0  0  0  0  0
    3.4045   -6.7497   -0.0000 C   0  0  0  0  0  0  0  0  0  0  0  0
    2.0878   -4.5077   -0.0000 C   0  0  0  0  0  0  0  0  0  0  0  0
    4.6856   -5.9786   -0.0000 C   0  0  0  0  0  0  0  0  0  0  0  0
    3.3689   -3.7367   -0.0000 C   0  0  0  0  0  0  0  0  0  0  0  0
    4.6738   -4.4721   -0.0000 C   0  0  0  0  0  0  0  0  0  0  0  0
    5.9668   -6.7141   -0.0000 C   0  0  0  0  0  0  0  0  0  0  0  0
    5.9549   -3.7011   -0.0000 C   0  0  0  0  0  0  0  0  0  0  0  0
    7.2479   -5.9549   -0.0000 C   0  0  0  0  0  0  0  0  0  0  0  0
    5.9312   -2.1945   -0.0000 C   0  0  0  0  0  0  0  0  0  0  0  0
    7.2479   -4.4365   -0.0000 C   0  0  0  0  0  0  0  0  0  0  0  0
    7.2242   -1.4235   -0.0000 C   0  0  0  0  0  0  0  0  0  0  0  0
    4.6145   -1.4472   -0.0000 C   0  0  0  0  0  0  0  0  0  0  0  0
    7.2123    0.0949   -0.0000 C   0  0  0  0  0  0  0  0  0  0  0  0
    4.5907    0.0593   -0.0000 C   0  0  0  0  0  0  0  0  0  0  0  0
    5.8956    0.8541   -0.0000 N   0  0  0  0  0  0  0  0  0  0  0  0
  2  3  1  0  0  0  0
  3  4  2  0  0  0  0
  3  5  1  0  0  0  0
  4  6  1  0  0  0  0
  4  7  1  0  0  0  0
  5  8  2  0  0  0  0
  7  9  2  0  0  0  0
  8 10  1  0  0  0  0
 10 11  2  0  0  0  0
 10 12  1  0  0  0  0
 11 13  1  0  0  0  0
 12 14  2  0  0  0  0
 13 15  2  0  0  0  0
 13 16  1  0  0  0  0
 15 17  1  0  0  0  0
 16 18  1  0  0  0  0
 17 19  1  0  0  0  0
 17 20  2  0  0  0  0
 19 21  2  0  0  0  0
 19 22  1  0  0  0  0
 21 23  1  0  0  0  0
 22 24  2  0  0  0  0
 23 25  2  0  0  0  0
  8  9  1  0  0  0  0
 14 15  1  0  0  0  0
 18 20  1  0  0  0  0
 24 25  1  0  0  0  0
M  END
>  <MolRegNo>
510964

>  <m>
=

>  <Value>
2114

>  <Unit>
nM

>  <Type>
IC50

>  <pValue>
5.67

>  <Ligand Efficiency>
0

>  <Binding Efficiency>
0

>  <Surface Efficiency>
0

>  <Assay Index>
359043

>  <Assay Category>


>  <Assay Organism>


>  <Target ID>
17045

>  <Target Name>
Cytochrome P450 3A4

>  <Target Organism>
Homo sapiens

>  <Target Description>
Target is a single protein chain

>  <Sequence Accession>
P08684

>  <Reference>
J Med Chem 51 (16), 5009-5018 (2008)

>  <Pubmed ID>
18672868

>  <DOI>
10.1021/jm800355c

$$$$
510899
Actelion Java MolfileCreator 1.0

 25 27  0  0  0  0  0  0  0  0999 V2000
    0.0000   -0.0000   -0.0000 Br  0  0  0  0  0  0  0  0  0  0  0  0
   -2.9419   -6.9276   -0.0000 O   0  0  0  0  0  0  0  0  0  0  0  0
   -1.6489   -7.6631   -0.0000 C   0  0  0  0  0  0  0  0  0  0  0  0
   -1.6607   -9.1578   -0.0000 C   0  0  0  0  0  0  0  0  0  0  0  0
   -0.3677   -6.9039   -0.0000 C   0  0  0  0  0  0  0  0  0  0  0  0
   -2.9775   -9.8932   -0.0000 O   0  0  0  0  0  0  0  0  0  0  0  0
   -0.3677   -9.8932   -0.0000 C   0  0  0  0  0  0  0  0  0  0  0  0
    0.9253   -7.6394   -0.0000 C   0  0  0  0  0  0  0  0  0  0  0  0
    0.9253   -9.1340   -0.0000 C   0  0  0  0  0  0  0  0  0  0  0  0
    2.2064   -6.8683   -0.0000 C   0  0  0  0  0  0  0  0  0  0  0  0
    3.4994   -7.6038   -0.0000 C   0  0  0  0  0  0  0  0  0  0  0  0
    2.1827   -5.3618   -0.0000 C   0  0  0  0  0  0  0  0  0  0  0  0
    4.7805   -6.8327   -0.0000 C   0  0  0  0  0  0  0  0  0  0  0  0
    3.4638   -4.5907   -0.0000 C   0  0  0  0  0  0  0  0  0  0  0  0
    4.7687   -5.3262   -0.0000 C   0  0  0  0  0  0  0  0  0  0  0  0
    6.0617   -7.5682   -0.0000 C   0  0  0  0  0  0  0  0  0  0  0  0
    6.0498   -4.5552   -0.0000 C   0  0  0  0  0  0  0  0  0  0  0  0
    7.3428   -6.8090   -0.0000 C   0  0  0  0  0  0  0  0  0  0  0  0
    6.0261   -3.0486   -0.0000 C   0  0  0  0  0  0  0  0  0  0  0  0
    7.3428   -5.2906   -0.0000 C   0  0  0  0  0  0  0  0  0  0  0  0
    7.3191   -2.2776   -0.0000 C   0  0  0  0  0  0  0  0  0  0  0  0
    4.7094   -2.3013   -0.0000 C   0  0  0  0  0  0  0  0  0  0  0  0
    7.3072   -0.7592   -0.0000 C   0  0  0  0  0  0  0  0  0  0  0  0
    4.6856   -0.7948   -0.0000 C   0  0  0  0  0  0  0  0  0  0  0  0
    5.9905   -0.0000   -0.0000 N   0  0  0  0  0  0  0  0  0  0  0  0
  2  3  1  0  0  0  0
  3  4  2  0  0  0  0
  3  5  1  0  0  0  0
  4  6  1  0  0  0  0
  4  7  1  0  0  0  0
  5  8  2  0  0  0  0
  7  9  2  0  0  0  0
  8 10  1  0  0  0  0
 10 11  2  0  0  0  0
 10 12  1  0  0  0  0
 11 13  1  0  0  0  0
 12 14  2  0  0  0  0
 13 15  2  0  0  0  0
 13 16  1  0  0  0  0
 15 17  1  0  0  0  0
 16 18  1  0  0  0  0
 17 19  1  0  0  0  0
 17 20  2  0  0  0  0
 19 21  2  0  0  0  0
 19 22  1  0  0  0  0
 21 23  1  0  0  0  0
 22 24  2  0  0  0  0
 23 25  2  0  0  0  0
  8  9  1  0  0  0  0
 14 15  1  0  0  0  0
 18 20  1  0  0  0  0
 24 25  1  0  0  0  0
M  END
>  <MolRegNo>
510899

>  <m>
=

>  <Value>
357

>  <Unit>
nM

>  <Type>
IC50

>  <pValue>
6.45

>  <Ligand Efficiency>
0

>  <Binding Efficiency>
0

>  <Surface Efficiency>
0

>  <Assay Index>
359043

>  <Assay Category>


>  <Assay Organism>


>  <Target ID>
17045

>  <Target Name>
Cytochrome P450 3A4

>  <Target Organism>
Homo sapiens

>  <Target Description>
Target is a single protein chain

>  <Sequence Accession>
P08684

>  <Reference>
J Med Chem 51 (16), 5009-5018 (2008)

>  <Pubmed ID>
18672868

>  <DOI>
10.1021/jm800355c

$$$$
510898
Actelion Java MolfileCreator 1.0

 25 27  0  0  0  0  0  0  0  0999 V2000
    0.0000   -0.0000   -0.0000 Cl  0  0  0  0  0  0  0  0  0  0  0  0
   -0.7592   -3.2266   -0.0000 F   0  0  0  0  0  0  0  0  0  0  0  0
    0.5338   -3.9620   -0.0000 C   0  0  0  0  0  0  0  0  0  0  0  0
    0.5219   -5.4567   -0.0000 C   0  0  0  0  0  0  0  0  0  0  0  0
    1.8149   -3.2028   -0.0000 C   0  0  0  0  0  0  0  0  0  0  0  0
   -0.7948   -6.1922   -0.0000 F   0  0  0  0  0  0  0  0  0  0  0  0
    1.8149   -6.1922   -0.0000 C   0  0  0  0  0  0  0  0  0  0  0  0
    3.1079   -3.9383   -0.0000 C   0  0  0  0  0  0  0  0  0  0  0  0
    3.1079   -5.4330   -0.0000 C   0  0  0  0  0  0  0  0  0  0  0  0
    4.3891   -3.1673   -0.0000 C   0  0  0  0  0  0  0  0  0  0  0  0
    5.6821   -3.9027   -0.0000 C   0  0  0  0  0  0  0  0  0  0  0  0
    4.3654   -1.6607   -0.0000 C   0  0  0  0  0  0  0  0  0  0  0  0
    6.9632   -3.1317   -0.0000 C   0  0  0  0  0  0  0  0  0  0  0  0
    5.6465   -0.8897   -0.0000 C   0  0  0  0  0  0  0  0  0  0  0  0
    6.9514   -1.6251   -0.0000 C   0  0  0  0  0  0  0  0  0  0  0  0
    8.2444   -3.8671   -0.0000 C   0  0  0  0  0  0  0  0  0  0  0  0
    8.2325   -0.8541   -0.0000 C   0  0  0  0  0  0  0  0  0  0  0  0
    9.5255   -3.1079   -0.0000 C   0  0  0  0  0  0  0  0  0  0  0  0
    8.2088    0.6524   -0.0000 C   0  0  0  0  0  0  0  0  0  0  0  0
    9.5255   -1.5896   -0.0000 C   0  0  0  0  0  0  0  0  0  0  0  0
    9.5018    1.4235   -0.0000 C   0  0  0  0  0  0  0  0  0  0  0  0
    6.8920    1.3998   -0.0000 C   0  0  0  0  0  0  0  0  0  0  0  0
    9.4899    2.9419   -0.0000 C   0  0  0  0  0  0  0  0  0  0  0  0
    6.8683    2.9063   -0.0000 C   0  0  0  0  0  0  0  0  0  0  0  0
    8.1732    3.7011   -0.0000 N   0  0  0  0  0  0  0  0  0  0  0  0
  2  3  1  0  0  0  0
  3  4  2  0  0  0  0
  3  5  1  0  0  0  0
  4  6  1  0  0  0  0
  4  7  1  0  0  0  0
  5  8  2  0  0  0  0
  7  9  2  0  0  0  0
  8 10  1  0  0  0  0
 10 11  2  0  0  0  0
 10 12  1  0  0  0  0
 11 13  1  0  0  0  0
 12 14  2  0  0  0  0
 13 15  2  0  0  0  0
 13 16  1  0  0  0  0
 15 17  1  0  0  0  0
 16 18  1  0  0  0  0
 17 19  1  0  0  0  0
 17 20  2  0  0  0  0
 19 21  2  0  0  0  0
 19 22  1  0  0  0  0
 21 23  1  0  0  0  0
 22 24  2  0  0  0  0
 23 25  2  0  0  0  0
  8  9  1  0  0  0  0
 14 15  1  0  0  0  0
 18 20  1  0  0  0  0
 24 25  1  0  0  0  0
M  END
>  <MolRegNo>
510898

>  <m>
=

>  <Value>
3643

>  <Unit>
nM

>  <Type>
IC50

>  <pValue>
5.44

>  <Ligand Efficiency>
0

>  <Binding Efficiency>
0

>  <Surface Efficiency>
0

>  <Assay Index>
359043

>  <Assay Category>


>  <Assay Organism>


>  <Target ID>
17045

>  <Target Name>
Cytochrome P450 3A4

>  <Target Organism>
Homo sapiens

>  <Target Description>
Target is a single protein chain

>  <Sequence Accession>
P08684

>  <Reference>
J Med Chem 51 (16), 5009-5018 (2008)

>  <Pubmed ID>
18672868

>  <DOI>
10.1021/jm800355c

$$$$
510897
Actelion Java MolfileCreator 1.0

 24 26  0  0  0  0  0  0  0  0999 V2000
    0.0000   -0.0000   -0.0000 Cl  0  0  0  0  0  0  0  0  0  0  0  0
   -4.3771   -7.0414   -0.0000 F   0  0  0  0  0  0  0  0  0  0  0  0
   -3.0925   -6.2802   -0.0000 C   0  0  0  0  0  0  0  0  0  0  0  0
   -1.8079   -7.0177   -0.0000 C   0  0  0  0  0  0  0  0  0  0  0  0
   -3.1044   -4.7577   -0.0000 C   0  0  0  0  0  0  0  0  0  0  0  0
   -0.5115   -6.2564   -0.0000 C   0  0  0  0  0  0  0  0  0  0  0  0
   -1.8198   -3.9965   -0.0000 C   0  0  0  0  0  0  0  0  0  0  0  0
   -0.5234   -4.7339   -0.0000 C   0  0  0  0  0  0  0  0  0  0  0  0
    0.7612   -3.9727   -0.0000 C   0  0  0  0  0  0  0  0  0  0  0  0
    2.0577   -4.7102   -0.0000 C   0  0  0  0  0  0  0  0  0  0  0  0
    0.7374   -2.4621   -0.0000 C   0  0  0  0  0  0  0  0  0  0  0  0
    3.3304   -3.9370   -0.0000 C   0  0  0  0  0  0  0  0  0  0  0  0
    2.0101   -1.6890   -0.0000 C   0  0  0  0  0  0  0  0  0  0  0  0
    3.3185   -2.4264   -0.0000 C   0  0  0  0  0  0  0  0  0  0  0  0
    4.6150   -4.6626   -0.0000 C   0  0  0  0  0  0  0  0  0  0  0  0
    4.5912   -1.6533   -0.0000 C   0  0  0  0  0  0  0  0  0  0  0  0
    5.8996   -3.9013   -0.0000 C   0  0  0  0  0  0  0  0  0  0  0  0
    4.5674   -0.1427   -0.0000 C   0  0  0  0  0  0  0  0  0  0  0  0
    5.8758   -2.3908   -0.0000 C   0  0  0  0  0  0  0  0  0  0  0  0
    5.8520    0.6185   -0.0000 C   0  0  0  0  0  0  0  0  0  0  0  0
    3.2590    0.6066   -0.0000 C   0  0  0  0  0  0  0  0  0  0  0  0
    5.8401    2.1291   -0.0000 C   0  0  0  0  0  0  0  0  0  0  0  0
    3.2353    2.1172   -0.0000 C   0  0  0  0  0  0  0  0  0  0  0  0
    4.5198    2.8903   -0.0000 N   0  0  0  0  0  0  0  0  0  0  0  0
  2  3  1  0  0  0  0
  3  4  2  0  0  0  0
  3  5  1  0  0  0  0
  4  6  1  0  0  0  0
  5  7  2  0  0  0  0
  6  8  2  0  0  0  0
  8  9  1  0  0  0  0
  9 10  2  0  0  0  0
  9 11  1  0  0  0  0
 10 12  1  0  0  0  0
 11 13  2  0  0  0  0
 12 14  2  0  0  0  0
 12 15  1  0  0  0  0
 14 16  1  0  0  0  0
 15 17  1  0  0  0  0
 16 18  1  0  0  0  0
 16 19  2  0  0  0  0
 18 20  2  0  0  0  0
 18 21  1  0  0  0  0
 20 22  1  0  0  0  0
 21 23  2  0  0  0  0
 22 24  2  0  0  0  0
  7  8  1  0  0  0  0
 13 14  1  0  0  0  0
 17 19  1  0  0  0  0
 23 24  1  0  0  0  0
M  END
>  <MolRegNo>
510897

>  <m>
=

>  <Value>
4199

>  <Unit>
nM

>  <Type>
IC50

>  <pValue>
5.38

>  <Ligand Efficiency>
0

>  <Binding Efficiency>
0

>  <Surface Efficiency>
0

>  <Assay Index>
359043

>  <Assay Category>


>  <Assay Organism>


>  <Target ID>
17045

>  <Target Name>
Cytochrome P450 3A4

>  <Target Organism>
Homo sapiens

>  <Target Description>
Target is a single protein chain

>  <Sequence Accession>
P08684

>  <Reference>
J Med Chem 51 (16), 5009-5018 (2008)

>  <Pubmed ID>
18672868

>  <DOI>
10.1021/jm800355c

$$$$
510896
Actelion Java MolfileCreator 1.0

 24 26  0  0  0  0  0  0  0  0999 V2000
    0.0000   -0.0000   -0.0000 Cl  0  0  0  0  0  0  0  0  0  0  0  0
   -4.6599   -6.5619   -0.0000 O   0  0  0  0  0  0  0  0  0  0  0  0
   -3.3761   -5.8011   -0.0000 C   0  0  0  0  0  0  0  0  0  0  0  0
   -5.9676   -5.8011   -0.0000 C   0  0  0  0  0  0  0  0  0  0  0  0
   -2.0922   -6.5382   -0.0000 C   0  0  0  0  0  0  0  0  0  0  0  0
   -3.3880   -4.2795   -0.0000 C   0  0  0  0  0  0  0  0  0  0  0  0
   -0.7965   -5.7774   -0.0000 C   0  0  0  0  0  0  0  0  0  0  0  0
   -2.1041   -3.5187   -0.0000 C   0  0  0  0  0  0  0  0  0  0  0  0
   -0.8084   -4.2558   -0.0000 C   0  0  0  0  0  0  0  0  0  0  0  0
    0.4755   -3.4949   -0.0000 C   0  0  0  0  0  0  0  0  0  0  0  0
    1.7712   -4.2320   -0.0000 C   0  0  0  0  0  0  0  0  0  0  0  0
    0.4517   -1.9852   -0.0000 C   0  0  0  0  0  0  0  0  0  0  0  0
    3.0432   -3.4593   -0.0000 C   0  0  0  0  0  0  0  0  0  0  0  0
    1.7237   -1.2125   -0.0000 C   0  0  0  0  0  0  0  0  0  0  0  0
    3.0313   -1.9496   -0.0000 C   0  0  0  0  0  0  0  0  0  0  0  0
    4.4578   -3.9110   -0.0000 C   0  0  0  0  0  0  0  0  0  0  0  0
    4.4460   -1.4741   -0.0000 C   0  0  0  0  0  0  0  0  0  0  0  0
    5.3256   -2.6866   -0.0000 C   0  0  0  0  0  0  0  0  0  0  0  0
    5.1711   -0.1545   -0.0000 C   0  0  0  0  0  0  0  0  0  0  0  0
    6.6689   -0.1308   -0.0000 C   0  0  0  0  0  0  0  0  0  0  0  0
    4.4103    1.1412   -0.0000 C   0  0  0  0  0  0  0  0  0  0  0  0
    7.3941    1.1888   -0.0000 C   0  0  0  0  0  0  0  0  0  0  0  0
    5.1235    2.4607   -0.0000 C   0  0  0  0  0  0  0  0  0  0  0  0
    6.6214    2.4964   -0.0000 N   0  0  0  0  0  0  0  0  0  0  0  0
  2  3  1  0  0  0  0
  2  4  1  0  0  0  0
  3  5  2  0  0  0  0
  3  6  1  0  0  0  0
  5  7  1  0  0  0  0
  6  8  2  0  0  0  0
  7  9  2  0  0  0  0
  9 10  1  0  0  0  0
 10 11  2  0  0  0  0
 10 12  1  0  0  0  0
 11 13  1  0  0  0  0
 12 14  2  0  0  0  0
 13 15  2  0  0  0  0
 13 16  1  0  0  0  0
 15 17  1  0  0  0  0
 16 18  1  0  0  0  0
 17 19  1  0  0  0  0
 19 20  2  0  0  0  0
 19 21  1  0  0  0  0
 20 22  1  0  0  0  0
 21 23  2  0  0  0  0
 22 24  2  0  0  0  0
  8  9  1  0  0  0  0
 14 15  1  0  0  0  0
 17 18  2  0  0  0  0
 23 24  1  0  0  0  0
M  END
>  <MolRegNo>
510896

>  <m>
=

>  <Value>
2394

>  <Unit>
nM

>  <Type>
IC50

>  <pValue>
5.62

>  <Ligand Efficiency>
0

>  <Binding Efficiency>
0

>  <Surface Efficiency>
0

>  <Assay Index>
359043

>  <Assay Category>


>  <Assay Organism>


>  <Target ID>
17045

>  <Target Name>
Cytochrome P450 3A4

>  <Target Organism>
Homo sapiens

>  <Target Description>
Target is a single protein chain

>  <Sequence Accession>
P08684

>  <Reference>
J Med Chem 51 (16), 5009-5018 (2008)

>  <Pubmed ID>
18672868

>  <DOI>
10.1021/jm800355c

$$$$
510895
Actelion Java MolfileCreator 1.0

 23 25  0  0  0  0  0  0  0  0999 V2000
    0.0000   -0.0000   -0.0000 Cl  0  0  0  0  0  0  0  0  0  0  0  0
   -6.1837   -9.0377   -0.0000 F   0  0  0  0  0  0  0  0  0  0  0  0
   -4.8994   -8.2766   -0.0000 C   0  0  0  0  0  0  0  0  0  0  0  0
   -3.6151   -9.0139   -0.0000 C   0  0  0  0  0  0  0  0  0  0  0  0
   -4.9113   -6.7545   -0.0000 C   0  0  0  0  0  0  0  0  0  0  0  0
   -2.3189   -8.2528   -0.0000 C   0  0  0  0  0  0  0  0  0  0  0  0
   -3.6270   -5.9934   -0.0000 C   0  0  0  0  0  0  0  0  0  0  0  0
   -2.3308   -6.7307   -0.0000 C   0  0  0  0  0  0  0  0  0  0  0  0
   -1.0465   -5.9696   -0.0000 C   0  0  0  0  0  0  0  0  0  0  0  0
    0.2497   -6.7069   -0.0000 C   0  0  0  0  0  0  0  0  0  0  0  0
   -1.0703   -4.4594   -0.0000 C   0  0  0  0  0  0  0  0  0  0  0  0
    1.5221   -5.9340   -0.0000 C   0  0  0  0  0  0  0  0  0  0  0  0
    0.2141   -3.6864   -0.0000 C   0  0  0  0  0  0  0  0  0  0  0  0
    1.5102   -4.4237   -0.0000 C   0  0  0  0  0  0  0  0  0  0  0  0
    2.9373   -6.3858   -0.0000 C   0  0  0  0  0  0  0  0  0  0  0  0
    2.9254   -3.9480   -0.0000 C   0  0  0  0  0  0  0  0  0  0  0  0
    3.8053   -5.1610   -0.0000 C   0  0  0  0  0  0  0  0  0  0  0  0
    3.6508   -2.6281   -0.0000 C   0  0  0  0  0  0  0  0  0  0  0  0
    5.1491   -2.6043   -0.0000 C   0  0  0  0  0  0  0  0  0  0  0  0
    2.8897   -1.3319   -0.0000 C   0  0  0  0  0  0  0  0  0  0  0  0
    5.8745   -1.2843   -0.0000 C   0  0  0  0  0  0  0  0  0  0  0  0
    3.6032   -0.0119   -0.0000 C   0  0  0  0  0  0  0  0  0  0  0  0
    5.1015    0.0238   -0.0000 N   0  0  0  0  0  0  0  0  0  0  0  0
  2  3  1  0  0  0  0
  3  4  2  0  0  0  0
  3  5  1  0  0  0  0
  4  6  1  0  0  0  0
  5  7  2  0  0  0  0
  6  8  2  0  0  0  0
  8  9  1  0  0  0  0
  9 10  2  0  0  0  0
  9 11  1  0  0  0  0
 10 12  1  0  0  0  0
 11 13  2  0  0  0  0
 12 14  2  0  0  0  0
 12 15  1  0  0  0  0
 14 16  1  0  0  0  0
 15 17  1  0  0  0  0
 16 18  1  0  0  0  0
 18 19  2  0  0  0  0
 18 20  1  0  0  0  0
 19 21  1  0  0  0  0
 20 22  2  0  0  0  0
 21 23  2  0  0  0  0
  7  8  1  0  0  0  0
 13 14  1  0  0  0  0
 16 17  2  0  0  0  0
 22 23  1  0  0  0  0
M  END
>  <MolRegNo>
510895

>  <m>
=

>  <Value>
159

>  <Unit>
nM

>  <Type>
IC50

>  <pValue>
6.8

>  <Ligand Efficiency>
0

>  <Binding Efficiency>
0

>  <Surface Efficiency>
0

>  <Assay Index>
359043

>  <Assay Category>


>  <Assay Organism>


>  <Target ID>
17045

>  <Target Name>
Cytochrome P450 3A4

>  <Target Organism>
Homo sapiens

>  <Target Description>
Target is a single protein chain

>  <Sequence Accession>
P08684

>  <Reference>
J Med Chem 51 (16), 5009-5018 (2008)

>  <Pubmed ID>
18672868

>  <DOI>
10.1021/jm800355c

$$$$
510833
Actelion Java MolfileCreator 1.0

 26 29  0  0  0  0  0  0  0  0999 V2000
    0.0000   -0.0000   -0.0000 F   0  0  0  0  0  0  0  0  0  0  0  0
    1.2939   -0.7360   -0.0000 C   0  0  0  0  0  0  0  0  0  0  0  0
    1.2820   -2.2317   -0.0000 C   0  0  0  0  0  0  0  0  0  0  0  0
    2.5760    0.0237   -0.0000 C   0  0  0  0  0  0  0  0  0  0  0  0
   -0.0356   -2.9677   -0.0000 O   0  0  0  0  0  0  0  0  0  0  0  0
    2.5760   -2.9677   -0.0000 C   0  0  0  0  0  0  0  0  0  0  0  0
    3.8699   -0.7122   -0.0000 C   0  0  0  0  0  0  0  0  0  0  0  0
   -1.3533   -2.2080   -0.0000 C   0  0  0  0  0  0  0  0  0  0  0  0
    3.8699   -2.2080   -0.0000 C   0  0  0  0  0  0  0  0  0  0  0  0
    5.1519    0.0594   -0.0000 C   0  0  0  0  0  0  0  0  0  0  0  0
    6.4458   -0.6766   -0.0000 C   0  0  0  0  0  0  0  0  0  0  0  0
    5.1282    1.5669   -0.0000 C   0  0  0  0  0  0  0  0  0  0  0  0
    7.7279    0.0950   -0.0000 C   0  0  0  0  0  0  0  0  0  0  0  0
    6.4102    2.3385   -0.0000 C   0  0  0  0  0  0  0  0  0  0  0  0
    7.7160    1.6025   -0.0000 C   0  0  0  0  0  0  0  0  0  0  0  0
    9.0099   -0.6410   -0.0000 C   0  0  0  0  0  0  0  0  0  0  0  0
    8.9980    2.3741   -0.0000 C   0  0  0  0  0  0  0  0  0  0  0  0
   10.2919    0.1187   -0.0000 C   0  0  0  0  0  0  0  0  0  0  0  0
    7.6685    3.1339   -0.0000 O   0  0  0  0  0  0  0  0  0  0  0  0
    9.7221    3.6918   -0.0000 C   0  0  0  0  0  0  0  0  0  0  0  0
   10.2919    1.6382   -0.0000 C   0  0  0  0  0  0  0  0  0  0  0  0
   11.2178    3.7155   -0.0000 C   0  0  0  0  0  0  0  0  0  0  0  0
    8.9505    4.9857   -0.0000 C   0  0  0  0  0  0  0  0  0  0  0  0
   11.9420    5.0332   -0.0000 C   0  0  0  0  0  0  0  0  0  0  0  0
    9.6747    6.3034   -0.0000 C   0  0  0  0  0  0  0  0  0  0  0  0
   11.1704    6.3390   -0.0000 N   0  0  0  0  0  0  0  0  0  0  0  0
  1  2  1  0  0  0  0
  2  3  2  0  0  0  0
  2  4  1  0  0  0  0
  3  5  1  0  0  0  0
  3  6  1  0  0  0  0
  4  7  2  0  0  0  0
  5  8  1  0  0  0  0
  6  9  2  0  0  0  0
  7 10  1  0  0  0  0
 10 11  2  0  0  0  0
 10 12  1  0  0  0  0
 11 13  1  0  0  0  0
 12 14  2  0  0  0  0
 13 15  2  0  0  0  0
 13 16  1  0  0  0  0
 15 17  1  0  0  0  0
 16 18  1  0  0  0  0
 17 19  1  0  0  0  0
 17 20  1  0  0  0  0
 17 21  1  0  0  0  0
 20 22  2  0  0  0  0
 20 23  1  0  0  0  0
 22 24  1  0  0  0  0
 23 25  2  0  0  0  0
 24 26  2  0  0  0  0
  7  9  1  0  0  0  0
 14 15  1  0  0  0  0
 18 21  1  0  0  0  0
 25 26  1  0  0  0  0
M  END
>  <MolRegNo>
510833

>  <m>
=

>  <Value>
15190

>  <Unit>
nM

>  <Type>
IC50

>  <pValue>
4.82

>  <Ligand Efficiency>
0

>  <Binding Efficiency>
0

>  <Surface Efficiency>
0

>  <Assay Index>
359043

>  <Assay Category>


>  <Assay Organism>


>  <Target ID>
17045

>  <Target Name>
Cytochrome P450 3A4

>  <Target Organism>
Homo sapiens

>  <Target Description>
Target is a single protein chain

>  <Sequence Accession>
P08684

>  <Reference>
J Med Chem 51 (16), 5009-5018 (2008)

>  <Pubmed ID>
18672868

>  <DOI>
10.1021/jm800355c

$$$$
510832
Actelion Java MolfileCreator 1.0

 25 28  0  0  0  0  0  0  0  0999 V2000
    0.0000   -0.0000   -0.0000 F   0  0  0  0  0  0  0  0  0  0  0  0
    1.2946   -0.7364   -0.0000 C   0  0  0  0  0  0  0  0  0  0  0  0
    1.2827   -2.2328   -0.0000 C   0  0  0  0  0  0  0  0  0  0  0  0
    2.5772    0.0238   -0.0000 C   0  0  0  0  0  0  0  0  0  0  0  0
   -0.0356   -2.9692   -0.0000 F   0  0  0  0  0  0  0  0  0  0  0  0
    2.5772   -2.9692   -0.0000 C   0  0  0  0  0  0  0  0  0  0  0  0
    3.8718   -0.7126   -0.0000 C   0  0  0  0  0  0  0  0  0  0  0  0
    3.8718   -2.2091   -0.0000 C   0  0  0  0  0  0  0  0  0  0  0  0
    5.1545    0.0594   -0.0000 C   0  0  0  0  0  0  0  0  0  0  0  0
    6.4490   -0.6770   -0.0000 C   0  0  0  0  0  0  0  0  0  0  0  0
    5.1307    1.5677   -0.0000 C   0  0  0  0  0  0  0  0  0  0  0  0
    7.7317    0.0950   -0.0000 C   0  0  0  0  0  0  0  0  0  0  0  0
    6.4134    2.3397   -0.0000 C   0  0  0  0  0  0  0  0  0  0  0  0
    7.7198    1.6034   -0.0000 C   0  0  0  0  0  0  0  0  0  0  0  0
    9.0144   -0.6413   -0.0000 C   0  0  0  0  0  0  0  0  0  0  0  0
    9.0025    2.3753   -0.0000 C   0  0  0  0  0  0  0  0  0  0  0  0
   10.2971    0.1188   -0.0000 C   0  0  0  0  0  0  0  0  0  0  0  0
    7.6723    3.1354   -0.0000 O   0  0  0  0  0  0  0  0  0  0  0  0
    9.7270    3.6936   -0.0000 C   0  0  0  0  0  0  0  0  0  0  0  0
   10.2971    1.6390   -0.0000 C   0  0  0  0  0  0  0  0  0  0  0  0
   11.2235    3.7174   -0.0000 C   0  0  0  0  0  0  0  0  0  0  0  0
    8.9550    4.9882   -0.0000 C   0  0  0  0  0  0  0  0  0  0  0  0
   11.9479    5.0357   -0.0000 C   0  0  0  0  0  0  0  0  0  0  0  0
    9.6795    6.3065   -0.0000 C   0  0  0  0  0  0  0  0  0  0  0  0
   11.1759    6.3421   -0.0000 N   0  0  0  0  0  0  0  0  0  0  0  0
  1  2  1  0  0  0  0
  2  3  2  0  0  0  0
  2  4  1  0  0  0  0
  3  5  1  0  0  0  0
  3  6  1  0  0  0  0
  4  7  2  0  0  0  0
  6  8  2  0  0  0  0
  7  9  1  0  0  0  0
  9 10  2  0  0  0  0
  9 11  1  0  0  0  0
 10 12  1  0  0  0  0
 11 13  2  0  0  0  0
 12 14  2  0  0  0  0
 12 15  1  0  0  0  0
 14 16  1  0  0  0  0
 15 17  1  0  0  0  0
 16 18  1  0  0  0  0
 16 19  1  0  0  0  0
 16 20  1  0  0  0  0
 19 21  2  0  0  0  0
 19 22  1  0  0  0  0
 21 23  1  0  0  0  0
 22 24  2  0  0  0  0
 23 25  2  0  0  0  0
  7  8  1  0  0  0  0
 13 14  1  0  0  0  0
 17 20  1  0  0  0  0
 24 25  1  0  0  0  0
M  END
>  <MolRegNo>
510832

>  <m>
=

>  <Value>
13841

>  <Unit>
nM

>  <Type>
IC50

>  <pValue>
4.86

>  <Ligand Efficiency>
0

>  <Binding Efficiency>
0

>  <Surface Efficiency>
0

>  <Assay Index>
359043

>  <Assay Category>


>  <Assay Organism>


>  <Target ID>
17045

>  <Target Name>
Cytochrome P450 3A4

>  <Target Organism>
Homo sapiens

>  <Target Description>
Target is a single protein chain

>  <Sequence Accession>
P08684

>  <Reference>
J Med Chem 51 (16), 5009-5018 (2008)

>  <Pubmed ID>
18672868

>  <DOI>
10.1021/jm800355c

$$$$
510831
Actelion Java MolfileCreator 1.0

 24 27  0  0  0  0  0  0  0  0999 V2000
    0.0000   -0.0000   -0.0000 F   0  0  0  0  0  0  0  0  0  0  0  0
    1.2847    0.7613   -0.0000 C   0  0  0  0  0  0  0  0  0  0  0  0
    2.5694    0.0238   -0.0000 C   0  0  0  0  0  0  0  0  0  0  0  0
    1.2728    2.2839   -0.0000 C   0  0  0  0  0  0  0  0  0  0  0  0
    3.8660    0.7851   -0.0000 C   0  0  0  0  0  0  0  0  0  0  0  0
    2.5575    3.0452   -0.0000 C   0  0  0  0  0  0  0  0  0  0  0  0
    3.8541    2.3077   -0.0000 C   0  0  0  0  0  0  0  0  0  0  0  0
    5.1388    3.0690   -0.0000 C   0  0  0  0  0  0  0  0  0  0  0  0
    6.4354    2.3315   -0.0000 C   0  0  0  0  0  0  0  0  0  0  0  0
    5.1150    4.5797   -0.0000 C   0  0  0  0  0  0  0  0  0  0  0  0
    7.7082    3.1047   -0.0000 C   0  0  0  0  0  0  0  0  0  0  0  0
    6.3878    5.3529   -0.0000 C   0  0  0  0  0  0  0  0  0  0  0  0
    7.6963    4.6154   -0.0000 C   0  0  0  0  0  0  0  0  0  0  0  0
    8.9928    2.3791   -0.0000 C   0  0  0  0  0  0  0  0  0  0  0  0
    8.9691    5.3886   -0.0000 C   0  0  0  0  0  0  0  0  0  0  0  0
   10.2775    3.1404   -0.0000 C   0  0  0  0  0  0  0  0  0  0  0  0
    7.6487    6.1499   -0.0000 O   0  0  0  0  0  0  0  0  0  0  0  0
    9.6947    6.7090   -0.0000 C   0  0  0  0  0  0  0  0  0  0  0  0
   10.2538    4.6511   -0.0000 C   0  0  0  0  0  0  0  0  0  0  0  0
   11.1816    6.7327   -0.0000 C   0  0  0  0  0  0  0  0  0  0  0  0
    8.9215    8.0055   -0.0000 C   0  0  0  0  0  0  0  0  0  0  0  0
   11.9072    8.0531   -0.0000 C   0  0  0  0  0  0  0  0  0  0  0  0
    9.6352    9.3259   -0.0000 C   0  0  0  0  0  0  0  0  0  0  0  0
   11.1340    9.3616   -0.0000 N   0  0  0  0  0  0  0  0  0  0  0  0
  1  2  1  0  0  0  0
  2  3  2  0  0  0  0
  2  4  1  0  0  0  0
  3  5  1  0  0  0  0
  4  6  2  0  0  0  0
  5  7  2  0  0  0  0
  7  8  1  0  0  0  0
  8  9  2  0  0  0  0
  8 10  1  0  0  0  0
  9 11  1  0  0  0  0
 10 12  2  0  0  0  0
 11 13  2  0  0  0  0
 11 14  1  0  0  0  0
 13 15  1  0  0  0  0
 14 16  1  0  0  0  0
 15 17  1  0  0  0  0
 15 18  1  0  0  0  0
 15 19  1  0  0  0  0
 18 20  2  0  0  0  0
 18 21  1  0  0  0  0
 20 22  1  0  0  0  0
 21 23  2  0  0  0  0
 22 24  2  0  0  0  0
  6  7  1  0  0  0  0
 12 13  1  0  0  0  0
 16 19  1  0  0  0  0
 23 24  1  0  0  0  0
M  END
>  <MolRegNo>
510831

>  <m>
=

>  <Value>
8757

>  <Unit>
nM

>  <Type>
IC50

>  <pValue>
5.06

>  <Ligand Efficiency>
0

>  <Binding Efficiency>
0

>  <Surface Efficiency>
0

>  <Assay Index>
359043

>  <Assay Category>


>  <Assay Organism>


>  <Target ID>
17045

>  <Target Name>
Cytochrome P450 3A4

>  <Target Organism>
Homo sapiens

>  <Target Description>
Target is a single protein chain

>  <Sequence Accession>
P08684

>  <Reference>
J Med Chem 51 (16), 5009-5018 (2008)

>  <Pubmed ID>
18672868

>  <DOI>
10.1021/jm800355c

$$$$
510830
Actelion Java MolfileCreator 1.0

 25 28  0  0  0  0  0  0  0  0999 V2000
    0.0000   -0.0000   -0.0000 F   0  0  0  0  0  0  0  0  0  0  0  0
    1.2947   -0.7364   -0.0000 C   0  0  0  0  0  0  0  0  0  0  0  0
    1.2828   -2.2331   -0.0000 C   0  0  0  0  0  0  0  0  0  0  0  0
    2.5775    0.0238   -0.0000 C   0  0  0  0  0  0  0  0  0  0  0  0
   -0.0356   -2.9695   -0.0000 O   0  0  0  0  0  0  0  0  0  0  0  0
    2.5775   -2.9695   -0.0000 C   0  0  0  0  0  0  0  0  0  0  0  0
    3.8722   -0.7127   -0.0000 C   0  0  0  0  0  0  0  0  0  0  0  0
   -1.3422   -2.2093   -0.0000 C   0  0  0  0  0  0  0  0  0  0  0  0
    3.8722   -2.2093   -0.0000 C   0  0  0  0  0  0  0  0  0  0  0  0
    5.1550    0.0475   -0.0000 C   0  0  0  0  0  0  0  0  0  0  0  0
    6.4497   -0.6889   -0.0000 C   0  0  0  0  0  0  0  0  0  0  0  0
    5.1313    1.5560   -0.0000 C   0  0  0  0  0  0  0  0  0  0  0  0
    7.7326    0.0831   -0.0000 C   0  0  0  0  0  0  0  0  0  0  0  0
    6.4141    2.3281   -0.0000 C   0  0  0  0  0  0  0  0  0  0  0  0
    7.7207    1.5917   -0.0000 C   0  0  0  0  0  0  0  0  0  0  0  0
    9.1461   -0.3682   -0.0000 C   0  0  0  0  0  0  0  0  0  0  0  0
    9.1342    2.0668   -0.0000 C   0  0  0  0  0  0  0  0  0  0  0  0
   10.0131    0.8552   -0.0000 C   0  0  0  0  0  0  0  0  0  0  0  0
    7.8157    2.8270   -0.0000 O   0  0  0  0  0  0  0  0  0  0  0  0
    9.8587    3.3852   -0.0000 C   0  0  0  0  0  0  0  0  0  0  0  0
   11.3554    3.4090   -0.0000 C   0  0  0  0  0  0  0  0  0  0  0  0
    9.0867    4.6799   -0.0000 C   0  0  0  0  0  0  0  0  0  0  0  0
   12.0799    4.7274   -0.0000 C   0  0  0  0  0  0  0  0  0  0  0  0
    9.7993    5.9984   -0.0000 C   0  0  0  0  0  0  0  0  0  0  0  0
   11.3078    6.0340   -0.0000 N   0  0  0  0  0  0  0  0  0  0  0  0
  1  2  1  0  0  0  0
  2  3  2  0  0  0  0
  2  4  1  0  0  0  0
  3  5  1  0  0  0  0
  3  6  1  0  0  0  0
  4  7  2  0  0  0  0
  5  8  1  0  0  0  0
  6  9  2  0  0  0  0
  7 10  1  0  0  0  0
 10 11  2  0  0  0  0
 10 12  1  0  0  0  0
 11 13  1  0  0  0  0
 12 14  2  0  0  0  0
 13 15  2  0  0  0  0
 13 16  1  0  0  0  0
 15 17  1  0  0  0  0
 16 18  1  0  0  0  0
 17 19  1  0  0  0  0
 17 20  1  0  0  0  0
 20 21  2  0  0  0  0
 20 22  1  0  0  0  0
 21 23  1  0  0  0  0
 22 24  2  0  0  0  0
 23 25  2  0  0  0  0
  7  9  1  0  0  0  0
 14 15  1  0  0  0  0
 17 18  1  0  0  0  0
 24 25  1  0  0  0  0
M  END
>  <MolRegNo>
510830

>  <m>
=

>  <Value>
3364

>  <Unit>
nM

>  <Type>
IC50

>  <pValue>
5.47

>  <Ligand Efficiency>
0

>  <Binding Efficiency>
0

>  <Surface Efficiency>
0

>  <Assay Index>
359043

>  <Assay Category>


>  <Assay Organism>


>  <Target ID>
17045

>  <Target Name>
Cytochrome P450 3A4

>  <Target Organism>
Homo sapiens

>  <Target Description>
Target is a single protein chain

>  <Sequence Accession>
P08684

>  <Reference>
J Med Chem 51 (16), 5009-5018 (2008)

>  <Pubmed ID>
18672868

>  <DOI>
10.1021/jm800355c

$$$$
510765
Actelion Java MolfileCreator 1.0

 24 27  0  0  0  0  0  0  0  0999 V2000
    0.0000   -0.0000   -0.0000 O   0  0  0  0  0  0  0  0  0  0  0  0
    1.2837    0.7607   -0.0000 C   0  0  0  0  0  0  0  0  0  0  0  0
   -1.3075    0.7607   -0.0000 C   0  0  0  0  0  0  0  0  0  0  0  0
    2.5674    0.0238   -0.0000 C   0  0  0  0  0  0  0  0  0  0  0  0
    1.2718    2.2702   -0.0000 C   0  0  0  0  0  0  0  0  0  0  0  0
    3.8629    0.7845   -0.0000 C   0  0  0  0  0  0  0  0  0  0  0  0
    2.5555    3.0309   -0.0000 C   0  0  0  0  0  0  0  0  0  0  0  0
    3.8511    2.3059   -0.0000 C   0  0  0  0  0  0  0  0  0  0  0  0
    5.1347    3.0666   -0.0000 C   0  0  0  0  0  0  0  0  0  0  0  0
    6.4303    2.3297   -0.0000 C   0  0  0  0  0  0  0  0  0  0  0  0
    5.1110    4.5761   -0.0000 C   0  0  0  0  0  0  0  0  0  0  0  0
    7.7021    3.1022   -0.0000 C   0  0  0  0  0  0  0  0  0  0  0  0
    6.3828    5.3487   -0.0000 C   0  0  0  0  0  0  0  0  0  0  0  0
    7.6902    4.6118   -0.0000 C   0  0  0  0  0  0  0  0  0  0  0  0
    9.1166    2.6506   -0.0000 C   0  0  0  0  0  0  0  0  0  0  0  0
    9.1047    5.0872   -0.0000 C   0  0  0  0  0  0  0  0  0  0  0  0
    9.9842    3.8748   -0.0000 C   0  0  0  0  0  0  0  0  0  0  0  0
    7.7853    5.8479   -0.0000 O   0  0  0  0  0  0  0  0  0  0  0  0
    9.8297    6.4065   -0.0000 C   0  0  0  0  0  0  0  0  0  0  0  0
   11.3273    6.4303   -0.0000 C   0  0  0  0  0  0  0  0  0  0  0  0
    9.0690    7.7021   -0.0000 C   0  0  0  0  0  0  0  0  0  0  0  0
   12.0524    7.7497   -0.0000 C   0  0  0  0  0  0  0  0  0  0  0  0
    9.7822    9.0215   -0.0000 C   0  0  0  0  0  0  0  0  0  0  0  0
   11.2798    9.0571   -0.0000 N   0  0  0  0  0  0  0  0  0  0  0  0
  1  2  1  0  0  0  0
  1  3  1  0  0  0  0
  2  4  2  0  0  0  0
  2  5  1  0  0  0  0
  4  6  1  0  0  0  0
  5  7  2  0  0  0  0
  6  8  2  0  0  0  0
  8  9  1  0  0  0  0
  9 10  2  0  0  0  0
  9 11  1  0  0  0  0
 10 12  1  0  0  0  0
 11 13  2  0  0  0  0
 12 14  2  0  0  0  0
 12 15  1  0  0  0  0
 14 16  1  0  0  0  0
 15 17  1  0  0  0  0
 16 18  1  0  0  0  0
 16 19  1  0  0  0  0
 19 20  2  0  0  0  0
 19 21  1  0  0  0  0
 20 22  1  0  0  0  0
 21 23  2  0  0  0  0
 22 24  2  0  0  0  0
  7  8  1  0  0  0  0
 13 14  1  0  0  0  0
 16 17  1  0  0  0  0
 23 24  1  0  0  0  0
M  END
>  <MolRegNo>
510765

>  <m>
=

>  <Value>
3291

>  <Unit>
nM

>  <Type>
IC50

>  <pValue>
5.48

>  <Ligand Efficiency>
0

>  <Binding Efficiency>
0

>  <Surface Efficiency>
0

>  <Assay Index>
359043

>  <Assay Category>


>  <Assay Organism>


>  <Target ID>
17045

>  <Target Name>
Cytochrome P450 3A4

>  <Target Organism>
Homo sapiens

>  <Target Description>
Target is a single protein chain

>  <Sequence Accession>
P08684

>  <Reference>
J Med Chem 51 (16), 5009-5018 (2008)

>  <Pubmed ID>
18672868

>  <DOI>
10.1021/jm800355c

$$$$
510764
Actelion Java MolfileCreator 1.0

 23 26  0  0  0  0  0  0  0  0999 V2000
    0.0000   -0.0000   -0.0000 F   0  0  0  0  0  0  0  0  0  0  0  0
    1.2835    0.7606   -0.0000 C   0  0  0  0  0  0  0  0  0  0  0  0
    2.5670    0.0238   -0.0000 C   0  0  0  0  0  0  0  0  0  0  0  0
    1.2716    2.2818   -0.0000 C   0  0  0  0  0  0  0  0  0  0  0  0
    3.8624    0.7844   -0.0000 C   0  0  0  0  0  0  0  0  0  0  0  0
    2.5552    3.0424   -0.0000 C   0  0  0  0  0  0  0  0  0  0  0  0
    3.8506    2.3056   -0.0000 C   0  0  0  0  0  0  0  0  0  0  0  0
    5.1341    3.0662   -0.0000 C   0  0  0  0  0  0  0  0  0  0  0  0
    6.4295    2.3294   -0.0000 C   0  0  0  0  0  0  0  0  0  0  0  0
    5.1103    4.5755   -0.0000 C   0  0  0  0  0  0  0  0  0  0  0  0
    7.7011    3.1018   -0.0000 C   0  0  0  0  0  0  0  0  0  0  0  0
    6.3819    5.3480   -0.0000 C   0  0  0  0  0  0  0  0  0  0  0  0
    7.6892    4.6112   -0.0000 C   0  0  0  0  0  0  0  0  0  0  0  0
    9.1154    2.6502   -0.0000 C   0  0  0  0  0  0  0  0  0  0  0  0
    9.1035    5.0865   -0.0000 C   0  0  0  0  0  0  0  0  0  0  0  0
    9.9829    3.8743   -0.0000 C   0  0  0  0  0  0  0  0  0  0  0  0
    7.7843    5.8471   -0.0000 O   0  0  0  0  0  0  0  0  0  0  0  0
    9.8284    6.4057   -0.0000 C   0  0  0  0  0  0  0  0  0  0  0  0
   11.3259    6.4295   -0.0000 C   0  0  0  0  0  0  0  0  0  0  0  0
    9.0678    7.7011   -0.0000 C   0  0  0  0  0  0  0  0  0  0  0  0
   12.0508    7.7487   -0.0000 C   0  0  0  0  0  0  0  0  0  0  0  0
    9.7809    9.0203   -0.0000 C   0  0  0  0  0  0  0  0  0  0  0  0
   11.2783    9.0559   -0.0000 N   0  0  0  0  0  0  0  0  0  0  0  0
  1  2  1  0  0  0  0
  2  3  2  0  0  0  0
  2  4  1  0  0  0  0
  3  5  1  0  0  0  0
  4  6  2  0  0  0  0
  5  7  2  0  0  0  0
  7  8  1  0  0  0  0
  8  9  2  0  0  0  0
  8 10  1  0  0  0  0
  9 11  1  0  0  0  0
 10 12  2  0  0  0  0
 11 13  2  0  0  0  0
 11 14  1  0  0  0  0
 13 15  1  0  0  0  0
 14 16  1  0  0  0  0
 15 17  1  0  0  0  0
 15 18  1  0  0  0  0
 18 19  2  0  0  0  0
 18 20  1  0  0  0  0
 19 21  1  0  0  0  0
 20 22  2  0  0  0  0
 21 23  2  0  0  0  0
  6  7  1  0  0  0  0
 12 13  1  0  0  0  0
 15 16  1  0  0  0  0
 22 23  1  0  0  0  0
M  END
>  <MolRegNo>
510764

>  <m>
=

>  <Value>
3231

>  <Unit>
nM

>  <Type>
IC50

>  <pValue>
5.49

>  <Ligand Efficiency>
0

>  <Binding Efficiency>
0

>  <Surface Efficiency>
0

>  <Assay Index>
359043

>  <Assay Category>


>  <Assay Organism>


>  <Target ID>
17045

>  <Target Name>
Cytochrome P450 3A4

>  <Target Organism>
Homo sapiens

>  <Target Description>
Target is a single protein chain

>  <Sequence Accession>
P08684

>  <Reference>
J Med Chem 51 (16), 5009-5018 (2008)

>  <Pubmed ID>
18672868

>  <DOI>
10.1021/jm800355c

$$$$
553991
Actelion Java MolfileCreator 1.0

 44 46  0  0  0  0  0  0  0  0999 V2000
    0.0000   -0.0000   -0.0000 I   0  0  0  0  0  0  0  0  0  0  0  0
    0.0000    4.9547   -0.0000 O   0  0  0  0  0  0  0  0  0  0  0  0
   -0.0119    6.4673   -0.0000 C   0  0  0  0  0  0  0  0  0  0  0  0
   -1.3340    7.2296   -0.0000 N   0  0  0  0  0  0  0  0  0  0  0  0
    1.2744    7.2296   -0.0000 N   0  0  0  0  0  0  0  0  0  0  0  0
   -2.6441    6.4793   -0.0000 C   0  0  0  0  0  0  0  0  0  0  0  0
    2.5726    6.4912   -0.0000 C   0  0  0  0  0  0  0  0  0  0  0  0
   -2.6560    4.9785   -0.0000 C   0  0  0  0  0  0  0  0  0  0  0  0
   -3.9662    7.2415   -0.0000 C   0  0  0  0  0  0  0  0  0  0  0  0
    3.8590    7.2653   -0.0000 C   0  0  0  0  0  0  0  0  0  0  0  0
    2.5607    5.0024   -0.0000 C   0  0  0  0  0  0  0  0  0  0  0  0
   -3.9781    4.2401   -0.0000 C   0  0  0  0  0  0  0  0  0  0  0  0
   -5.2763    6.4912   -0.0000 C   0  0  0  0  0  0  0  0  0  0  0  0
    3.8351    8.7780   -0.0000 O   0  0  0  0  0  0  0  0  0  0  0  0
    5.1572    6.5269   -0.0000 N   0  0  0  0  0  0  0  0  0  0  0  0
    3.8590    4.2639   -0.0000 C   0  0  0  0  0  0  0  0  0  0  0  0
   -5.2882    5.0024   -0.0000 C   0  0  0  0  0  0  0  0  0  0  0  0
    6.4435    7.3011   -0.0000 C   0  0  0  0  0  0  0  0  0  0  0  0
    5.1453    5.0262   -0.0000 C   0  0  0  0  0  0  0  0  0  0  0  0
    3.8590    2.7751   -0.0000 C   0  0  0  0  0  0  0  0  0  0  0  0
   -6.6103    4.2639   -0.0000 C   0  0  0  0  0  0  0  0  0  0  0  0
    7.7298    6.5626   -0.0000 C   0  0  0  0  0  0  0  0  0  0  0  0
    6.4197    8.8137   -0.0000 C   0  0  0  0  0  0  0  0  0  0  0  0
    6.4316    4.3116   -0.0000 C   0  0  0  0  0  0  0  0  0  0  0  0
    5.1453    2.0367   -0.0000 C   0  0  0  0  0  0  0  0  0  0  0  0
   -6.6222    2.7751   -0.0000 O   0  0  0  0  0  0  0  0  0  0  0  0
   -7.9204    5.0262   -0.0000 O   0  0  0  0  0  0  0  0  0  0  0  0
    9.0043    7.3249   -0.0000 N   0  0  0  0  0  0  0  0  0  0  0  0
    7.7179    9.5760   -0.0000 C   0  0  0  0  0  0  0  0  0  0  0  0
    6.4316    2.8109   -0.0000 C   0  0  0  0  0  0  0  0  0  0  0  0
   -9.2425    4.2877   -0.0000 C   0  0  0  0  0  0  0  0  0  0  0  0
    9.0043    8.8375   -0.0000 C   0  0  0  0  0  0  0  0  0  0  0  0
   10.4454    7.7418   -0.0000 C   0  0  0  0  0  0  0  0  0  0  0  0
    8.9804    5.8361   -0.0000 C   0  0  0  0  0  0  0  0  0  0  0  0
    7.7298    2.0724   -0.0000 O   0  0  0  0  0  0  0  0  0  0  0  0
   -9.2544    2.7989   -0.0000 C   0  0  0  0  0  0  0  0  0  0  0  0
  -10.5526    5.0500   -0.0000 C   0  0  0  0  0  0  0  0  0  0  0  0
   11.5054    6.6936   -0.0000 C   0  0  0  0  0  0  0  0  0  0  0  0
   11.1005    5.2525   -0.0000 C   0  0  0  0  0  0  0  0  0  0  0  0
   12.9347    7.1105   -0.0000 C   0  0  0  0  0  0  0  0  0  0  0  0
   12.1605    4.2044   -0.0000 C   0  0  0  0  0  0  0  0  0  0  0  0
   14.0066    6.0743   -0.0000 C   0  0  0  0  0  0  0  0  0  0  0  0
   11.7675    2.7513   -0.0000 O   0  0  0  0  0  0  0  0  0  0  0  0
   13.6017    4.6212   -0.0000 C   0  0  0  0  0  0  0  0  0  0  0  0
  2  3  2  0  0  0  0
  3  4  1  0  0  0  0
  3  5  1  0  0  0  0
  4  6  1  0  0  0  0
  7  5  1  6  0  0  0
  6  8  2  0  0  0  0
  6  9  1  0  0  0  0
  7 10  1  0  0  0  0
  7 11  1  0  0  0  0
  8 12  1  0  0  0  0
  9 13  2  0  0  0  0
 10 14  2  0  0  0  0
 10 15  1  0  0  0  0
 11 16  1  0  0  0  0
 12 17  2  0  0  0  0
 18 15  1  1  0  0  0
 16 19  2  0  0  0  0
 16 20  1  0  0  0  0
 17 21  1  0  0  0  0
 18 22  1  0  0  0  0
 18 23  1  0  0  0  0
 19 24  1  0  0  0  0
 20 25  2  0  0  0  0
 21 26  2  0  0  0  0
 21 27  1  0  0  0  0
 22 28  1  0  0  0  0
 23 29  1  0  0  0  0
 24 30  2  0  0  0  0
 27 31  1  0  0  0  0
 28 32  1  0  0  0  0
 28 33  1  0  0  0  0
 28 34  1  0  0  0  0
 30 35  1  0  0  0  0
 31 36  1  0  0  0  0
 31 37  1  0  0  0  0
 33 38  1  0  0  0  0
 38 39  2  0  0  0  0
 38 40  1  0  0  0  0
 39 41  1  0  0  0  0
 40 42  2  0  0  0  0
 41 43  1  0  0  0  0
 41 44  2  0  0  0  0
 13 17  1  0  0  0  0
 25 30  1  0  0  0  0
 29 32  1  0  0  0  0
 42 44  1  0  0  0  0
M  CHG  2   1  -1  28   1
M  END
>  <MolRegNo>
553991

>  <m>
=

>  <Value>
10000

>  <Unit>
nM

>  <Type>
IC50

>  <pValue>
5

>  <Ligand Efficiency>
0

>  <Binding Efficiency>
0

>  <Surface Efficiency>
0

>  <Assay Index>
359365

>  <Assay Category>


>  <Assay Organism>


>  <Target ID>
17045

>  <Target Name>
Cytochrome P450 3A4

>  <Target Organism>
Homo sapiens

>  <Target Description>
Target is a single protein chain

>  <Sequence Accession>
P08684

>  <Reference>
J Med Chem 51 (16), 4866-4869 (2008)

>  <Pubmed ID>
18680280

>  <DOI>
10.1021/jm800634k

$$$$
512173
Actelion Java MolfileCreator 1.0

 32 35  0  0  0  0  0  0  0  0999 V2000
    0.0000   -0.0000   -0.0000 F   0  0  0  0  0  0  0  0  0  0  0  0
   -1.5069    0.0118   -0.0000 C   0  0  0  0  0  0  0  0  0  0  0  0
   -2.2721   -1.2714   -0.0000 C   0  0  0  0  0  0  0  0  0  0  0  0
   -2.2721    1.3185   -0.0000 C   0  0  0  0  0  0  0  0  0  0  0  0
   -1.5422   -2.5546   -0.0000 F   0  0  0  0  0  0  0  0  0  0  0  0
   -3.7672   -1.2597   -0.0000 C   0  0  0  0  0  0  0  0  0  0  0  0
   -1.5422    2.6253   -0.0000 F   0  0  0  0  0  0  0  0  0  0  0  0
   -3.7672    1.3303   -0.0000 C   0  0  0  0  0  0  0  0  0  0  0  0
   -4.5206    0.0471   -0.0000 C   0  0  0  0  0  0  0  0  0  0  0  0
   -6.0157    0.0589   -0.0000 N   0  0  0  0  0  0  0  0  0  0  0  0
   -6.7692   -1.2126   -0.0000 C   0  0  0  0  0  0  0  0  0  0  0  0
   -6.7692    1.3656   -0.0000 C   0  0  0  0  0  0  0  0  0  0  0  0
   -8.2760   -1.2008   -0.0000 C   0  0  0  0  0  0  0  0  0  0  0  0
   -8.2760    1.3774   -0.0000 C   0  0  0  0  0  0  0  0  0  0  0  0
   -9.0412    0.0942   -0.0000 C   0  0  0  0  0  0  0  0  0  0  0  0
  -10.5481    0.1060   -0.0000 C   0  0  0  0  0  0  0  0  0  0  0  0
  -11.3015    1.4127   -0.0000 O   0  0  0  0  0  0  0  0  0  0  0  0
  -11.3015   -1.1772   -0.0000 N   0  0  0  0  0  0  0  0  0  0  0  0
  -12.7966   -1.1655   -0.0000 C   0  0  0  0  0  0  0  0  0  0  0  0
  -13.5501   -2.4487   -0.0000 C   0  0  0  0  0  0  0  0  0  0  0  0
  -13.5619    0.1413   -0.0000 C   0  0  0  0  0  0  0  0  0  0  0  0
  -15.0570   -2.4369   -0.0000 C   0  0  0  0  0  0  0  0  0  0  0  0
  -15.0570    0.1530   -0.0000 C   0  0  0  0  0  0  0  0  0  0  0  0
  -15.8104   -3.7201   -0.0000 N   0  0  0  0  0  0  0  0  0  0  0  0
  -15.8222   -1.1302   -0.0000 C   0  0  0  0  0  0  0  0  0  0  0  0
  -17.3173   -3.7201   -0.0000 C   0  0  0  0  0  0  0  0  0  0  0  0
  -17.3290   -1.1184   -0.0000 O   0  0  0  0  0  0  0  0  0  0  0  0
  -18.0707   -5.0033   -0.0000 O   0  0  0  0  0  0  0  0  0  0  0  0
  -18.0825   -2.4134   -0.0000 C   0  0  0  0  0  0  0  0  0  0  0  0
  -19.5894   -2.4134   -0.0000 C   0  0  0  0  0  0  0  0  0  0  0  0
  -20.3546   -1.1184   -0.0000 C   0  0  0  0  0  0  0  0  0  0  0  0
  -21.8614   -1.1184   -0.0000 O   0  0  0  0  0  0  0  0  0  0  0  0
  1  2  1  0  0  0  0
  2  3  2  0  0  0  0
  2  4  1  0  0  0  0
  3  5  1  0  0  0  0
  3  6  1  0  0  0  0
  4  7  1  0  0  0  0
  4  8  2  0  0  0  0
  6  9  2  0  0  0  0
  9 10  1  0  0  0  0
 10 11  1  0  0  0  0
 10 12  1  0  0  0  0
 11 13  1  0  0  0  0
 12 14  1  0  0  0  0
 13 15  1  0  0  0  0
 15 16  1  0  0  0  0
 16 17  2  0  0  0  0
 16 18  1  0  0  0  0
 18 19  1  0  0  0  0
 19 20  2  0  0  0  0
 19 21  1  0  0  0  0
 20 22  1  0  0  0  0
 21 23  2  0  0  0  0
 22 24  1  0  0  0  0
 22 25  2  0  0  0  0
 24 26  1  0  0  0  0
 25 27  1  0  0  0  0
 26 28  2  0  0  0  0
 26 29  1  0  0  0  0
 29 30  1  0  0  0  0
 30 31  1  0  0  0  0
 31 32  1  0  0  0  0
  8  9  1  0  0  0  0
 14 15  1  0  0  0  0
 23 25  1  0  0  0  0
 27 29  1  0  0  0  0
M  END
>  <MolRegNo>
512173

>  <m>
=

>  <Value>
3700

>  <Unit>
nM

>  <Type>
IC50

>  <pValue>
5.43

>  <Ligand Efficiency>
0

>  <Binding Efficiency>
0

>  <Surface Efficiency>
0

>  <Assay Index>
358600

>  <Assay Category>


>  <Assay Organism>


>  <Target ID>
17045

>  <Target Name>
Cytochrome P450 3A4

>  <Target Organism>
Homo sapiens

>  <Target Description>
Target is a single protein chain

>  <Sequence Accession>
P08684

>  <Reference>
Bioorg Med Chem Lett 18 (16), 4569-4572 (2008)

>  <Pubmed ID>
18662879

>  <DOI>
10.1016/j.bmcl.2008.07.035

$$$$
511271
Actelion Java MolfileCreator 1.0

 44 47  0  0  0  0  0  0  0  0999 V2000
    0.0000   -0.0000   -0.0000 F   0  0  0  0  0  0  0  0  0  0  0  0
    1.2837   -0.7369   -0.0000 C   0  0  0  0  0  0  0  0  0  0  0  0
    2.5674    0.0238   -0.0000 C   0  0  0  0  0  0  0  0  0  0  0  0
    1.2718   -2.2227   -0.0000 C   0  0  0  0  0  0  0  0  0  0  0  0
    2.5555    1.5333   -0.0000 O   0  0  0  0  0  0  0  0  0  0  0  0
    3.8630   -0.7132   -0.0000 C   0  0  0  0  0  0  0  0  0  0  0  0
   -0.0357   -2.9597   -0.0000 C   0  0  0  0  0  0  0  0  0  0  0  0
    2.5555   -2.9716   -0.0000 C   0  0  0  0  0  0  0  0  0  0  0  0
    3.8393    2.2940   -0.0000 C   0  0  0  0  0  0  0  0  0  0  0  0
    3.8511   -2.1990   -0.0000 C   0  0  0  0  0  0  0  0  0  0  0  0
   -1.3431   -2.1871   -0.0000 C   0  0  0  0  0  0  0  0  0  0  0  0
   -0.0475   -4.4455   -0.0000 C   0  0  0  0  0  0  0  0  0  0  0  0
    3.8274    3.8036   -0.0000 C   0  0  0  0  0  0  0  0  0  0  0  0
   -1.3550   -0.6775   -0.0000 O   0  0  0  0  0  0  0  0  0  0  0  0
   -2.6506   -2.9359   -0.0000 N   0  0  0  0  0  0  0  0  0  0  0  0
   -1.3550   -5.1824   -0.0000 N   0  0  0  0  0  0  0  0  0  0  0  0
    5.1111    4.5643   -0.0000 C   0  0  0  0  0  0  0  0  0  0  0  0
   -2.6625   -4.4217   -0.0000 C   0  0  0  0  0  0  0  0  0  0  0  0
   -3.9700   -2.1752   -0.0000 C   0  0  0  0  0  0  0  0  0  0  0  0
   -1.3669   -6.6682   -0.0000 C   0  0  0  0  0  0  0  0  0  0  0  0
    5.0992    6.0739   -0.0000 C   0  0  0  0  0  0  0  0  0  0  0  0
   -3.9700   -5.1586   -0.0000 O   0  0  0  0  0  0  0  0  0  0  0  0
   -5.2775   -2.9121   -0.0000 C   0  0  0  0  0  0  0  0  0  0  0  0
   -0.0832   -7.4051   -0.0000 C   0  0  0  0  0  0  0  0  0  0  0  0
    6.3829    6.8346   -0.0000 C   0  0  0  0  0  0  0  0  0  0  0  0
   -5.2894   -4.3979   -0.0000 N   0  0  0  0  0  0  0  0  0  0  0  0
   -6.5969   -2.1514   -0.0000 C   0  0  0  0  0  0  0  0  0  0  0  0
    1.1886   -6.6444   -0.0000 C   0  0  0  0  0  0  0  0  0  0  0  0
   -0.1070   -8.9028   -0.0000 C   0  0  0  0  0  0  0  0  0  0  0  0
    6.3710    8.3560   -0.0000 O   0  0  0  0  0  0  0  0  0  0  0  0
    7.6785    6.0976   -0.0000 O   0  0  0  0  0  0  0  0  0  0  0  0
   -6.6088   -0.6419   -0.0000 C   0  0  0  0  0  0  0  0  0  0  0  0
   -7.8925   -2.9002   -0.0000 C   0  0  0  0  0  0  0  0  0  0  0  0
    1.1767   -5.1349   -0.0000 F   0  0  0  0  0  0  0  0  0  0  0  0
    2.4723   -7.3814   -0.0000 C   0  0  0  0  0  0  0  0  0  0  0  0
    1.1767   -9.6398   -0.0000 C   0  0  0  0  0  0  0  0  0  0  0  0
   -1.4264   -9.6398   -0.0000 C   0  0  0  0  0  0  0  0  0  0  0  0
   -7.9162    0.1189   -0.0000 C   0  0  0  0  0  0  0  0  0  0  0  0
   -9.2118   -2.1514   -0.0000 C   0  0  0  0  0  0  0  0  0  0  0  0
    2.4605   -8.8790   -0.0000 C   0  0  0  0  0  0  0  0  0  0  0  0
   -2.7457  -10.3648   -0.0000 F   0  0  0  0  0  0  0  0  0  0  0  0
   -0.7013  -10.9354   -0.0000 F   0  0  0  0  0  0  0  0  0  0  0  0
   -2.1752   -8.3204   -0.0000 F   0  0  0  0  0  0  0  0  0  0  0  0
   -9.2356   -0.6300   -0.0000 C   0  0  0  0  0  0  0  0  0  0  0  0
  1  2  1  0  0  0  0
  2  3  2  0  0  0  0
  2  4  1  0  0  0  0
  3  5  1  0  0  0  0
  3  6  1  0  0  0  0
  4  7  1  0  0  0  0
  4  8  2  0  0  0  0
  5  9  1  0  0  0  0
  6 10  2  0  0  0  0
  7 11  1  0  0  0  0
  7 12  2  0  0  0  0
  9 13  1  0  0  0  0
 11 14  2  0  0  0  0
 11 15  1  0  0  0  0
 12 16  1  0  0  0  0
 13 17  1  0  0  0  0
 15 18  1  0  0  0  0
 15 19  1  0  0  0  0
 16 20  1  0  0  0  0
 17 21  1  0  0  0  0
 18 22  2  0  0  0  0
 19 23  1  0  0  0  0
 20 24  1  0  0  0  0
 21 25  1  0  0  0  0
 23 26  1  6  0  0  0
 23 27  1  0  0  0  0
 24 28  2  0  0  0  0
 24 29  1  0  0  0  0
 25 30  2  0  0  0  0
 25 31  1  0  0  0  0
 27 32  2  0  0  0  0
 27 33  1  0  0  0  0
 28 34  1  0  0  0  0
 28 35  1  0  0  0  0
 29 36  2  0  0  0  0
 29 37  1  0  0  0  0
 32 38  1  0  0  0  0
 33 39  2  0  0  0  0
 35 40  2  0  0  0  0
 37 41  1  0  0  0  0
 37 42  1  0  0  0  0
 37 43  1  0  0  0  0
 38 44  2  0  0  0  0
  8 10  1  0  0  0  0
 16 18  1  0  0  0  0
 36 40  1  0  0  0  0
 39 44  1  0  0  0  0
M  END
>  <MolRegNo>
511271

>  <m>
=

>  <Value>
36000

>  <Unit>
nM

>  <Type>
IC50

>  <pValue>
4.44

>  <Ligand Efficiency>
0

>  <Binding Efficiency>
0

>  <Surface Efficiency>
0

>  <Assay Index>
358905

>  <Assay Category>


>  <Assay Organism>


>  <Target ID>
17045

>  <Target Name>
Cytochrome P450 3A4

>  <Target Organism>
Homo sapiens

>  <Target Description>
Target is a single protein chain

>  <Sequence Accession>
P08684

>  <Reference>
Bioorg Med Chem Lett 18 (16), 4503-4507 (2008)

>  <Pubmed ID>
18667310

>  <DOI>
10.1016/j.bmcl.2008.07.059

$$$$
511282
Actelion Java MolfileCreator 1.0

 47 50  0  0  0  0  0  0  0  0999 V2000
    0.0000   -0.0000   -0.0000 F   0  0  0  0  0  0  0  0  0  0  0  0
    1.2898   -0.7337   -0.0000 C   0  0  0  0  0  0  0  0  0  0  0  0
    2.5678    0.0237   -0.0000 C   0  0  0  0  0  0  0  0  0  0  0  0
    1.2780   -2.2128   -0.0000 C   0  0  0  0  0  0  0  0  0  0  0  0
    2.5560    1.5383   -0.0000 O   0  0  0  0  0  0  0  0  0  0  0  0
    3.8577   -0.7218   -0.0000 C   0  0  0  0  0  0  0  0  0  0  0  0
   -0.0237   -2.9465   -0.0000 C   0  0  0  0  0  0  0  0  0  0  0  0
    2.5678   -2.9584   -0.0000 C   0  0  0  0  0  0  0  0  0  0  0  0
    3.8459    2.2957   -0.0000 C   0  0  0  0  0  0  0  0  0  0  0  0
    3.8459   -2.2128   -0.0000 C   0  0  0  0  0  0  0  0  0  0  0  0
   -1.3253   -2.1773   -0.0000 C   0  0  0  0  0  0  0  0  0  0  0  0
   -0.0355   -4.4375   -0.0000 C   0  0  0  0  0  0  0  0  0  0  0  0
    3.8340    3.8104   -0.0000 C   0  0  0  0  0  0  0  0  0  0  0  0
   -1.3372   -0.6627   -0.0000 O   0  0  0  0  0  0  0  0  0  0  0  0
   -2.6270   -2.9229   -0.0000 N   0  0  0  0  0  0  0  0  0  0  0  0
   -1.3372   -5.1712   -0.0000 N   0  0  0  0  0  0  0  0  0  0  0  0
    1.2543   -5.1830   -0.0000 C   0  0  0  0  0  0  0  0  0  0  0  0
    5.1239    4.5677   -0.0000 C   0  0  0  0  0  0  0  0  0  0  0  0
   -2.6388   -4.4139   -0.0000 C   0  0  0  0  0  0  0  0  0  0  0  0
   -3.9405   -2.1655   -0.0000 C   0  0  0  0  0  0  0  0  0  0  0  0
   -1.3490   -6.6504   -0.0000 C   0  0  0  0  0  0  0  0  0  0  0  0
    5.1120    6.0824   -0.0000 C   0  0  0  0  0  0  0  0  0  0  0  0
   -3.9524   -5.1594   -0.0000 O   0  0  0  0  0  0  0  0  0  0  0  0
   -5.2540   -2.9110   -0.0000 C   0  0  0  0  0  0  0  0  0  0  0  0
   -0.6745   -7.9757   -0.0000 C   0  0  0  0  0  0  0  0  0  0  0  0
    6.4019    6.8397   -0.0000 C   0  0  0  0  0  0  0  0  0  0  0  0
   -5.2659   -4.4020   -0.0000 N   0  0  0  0  0  0  0  0  0  0  0  0
   -6.5675   -2.1537   -0.0000 C   0  0  0  0  0  0  0  0  0  0  0  0
    0.8047   -7.9402   -0.0000 C   0  0  0  0  0  0  0  0  0  0  0  0
   -1.4318   -9.2656   -0.0000 C   0  0  0  0  0  0  0  0  0  0  0  0
    6.3900    8.3544   -0.0000 O   0  0  0  0  0  0  0  0  0  0  0  0
    7.6917    6.1060   -0.0000 O   0  0  0  0  0  0  0  0  0  0  0  0
   -6.5794   -5.1475   -0.0000 C   0  0  0  0  0  0  0  0  0  0  0  0
   -5.2895   -5.8930   -0.0000 C   0  0  0  0  0  0  0  0  0  0  0  0
   -6.5794   -0.6390   -0.0000 C   0  0  0  0  0  0  0  0  0  0  0  0
   -7.8692   -2.8992   -0.0000 C   0  0  0  0  0  0  0  0  0  0  0  0
    1.5265   -6.6149   -0.0000 F   0  0  0  0  0  0  0  0  0  0  0  0
    1.5620   -9.2182   -0.0000 C   0  0  0  0  0  0  0  0  0  0  0  0
   -0.6863  -10.5436   -0.0000 C   0  0  0  0  0  0  0  0  0  0  0  0
   -2.9465   -9.2656   -0.0000 C   0  0  0  0  0  0  0  0  0  0  0  0
   -7.8929    0.1183   -0.0000 C   0  0  0  0  0  0  0  0  0  0  0  0
   -9.1827   -2.1537   -0.0000 C   0  0  0  0  0  0  0  0  0  0  0  0
    0.8165  -10.5199   -0.0000 C   0  0  0  0  0  0  0  0  0  0  0  0
   -4.4612   -9.2537   -0.0000 F   0  0  0  0  0  0  0  0  0  0  0  0
   -2.9584  -10.7566   -0.0000 F   0  0  0  0  0  0  0  0  0  0  0  0
   -2.9584   -7.7509   -0.0000 F   0  0  0  0  0  0  0  0  0  0  0  0
   -9.2064   -0.6272   -0.0000 C   0  0  0  0  0  0  0  0  0  0  0  0
  1  2  1  0  0  0  0
  2  3  2  0  0  0  0
  2  4  1  0  0  0  0
  3  5  1  0  0  0  0
  3  6  1  0  0  0  0
  4  7  1  0  0  0  0
  4  8  2  0  0  0  0
  5  9  1  0  0  0  0
  6 10  2  0  0  0  0
  7 11  1  0  0  0  0
  7 12  2  0  0  0  0
  9 13  1  0  0  0  0
 11 14  2  0  0  0  0
 11 15  1  0  0  0  0
 12 16  1  0  0  0  0
 12 17  1  0  0  0  0
 13 18  1  0  0  0  0
 15 19  1  0  0  0  0
 15 20  1  0  0  0  0
 16 21  1  0  0  0  0
 18 22  1  0  0  0  0
 19 23  2  0  0  0  0
 20 24  1  0  0  0  0
 21 25  1  0  0  0  0
 22 26  1  0  0  0  0
 24 27  1  6  0  0  0
 24 28  1  0  0  0  0
 25 29  2  0  0  0  0
 25 30  1  0  0  0  0
 26 31  2  0  0  0  0
 26 32  1  0  0  0  0
 27 33  1  0  0  0  0
 27 34  1  0  0  0  0
 28 35  2  0  0  0  0
 28 36  1  0  0  0  0
 29 37  1  0  0  0  0
 29 38  1  0  0  0  0
 30 39  2  0  0  0  0
 30 40  1  0  0  0  0
 35 41  1  0  0  0  0
 36 42  2  0  0  0  0
 38 43  2  0  0  0  0
 40 44  1  0  0  0  0
 40 45  1  0  0  0  0
 40 46  1  0  0  0  0
 41 47  2  0  0  0  0
  8 10  1  0  0  0  0
 16 19  1  0  0  0  0
 39 43  1  0  0  0  0
 42 47  1  0  0  0  0
M  END
>  <MolRegNo>
511282

>  <m>
=

>  <Value>
42000

>  <Unit>
nM

>  <Type>
IC50

>  <pValue>
4.38

>  <Ligand Efficiency>
0

>  <Binding Efficiency>
0

>  <Surface Efficiency>
0

>  <Assay Index>
358905

>  <Assay Category>


>  <Assay Organism>


>  <Target ID>
17045

>  <Target Name>
Cytochrome P450 3A4

>  <Target Organism>
Homo sapiens

>  <Target Description>
Target is a single protein chain

>  <Sequence Accession>
P08684

>  <Reference>
Bioorg Med Chem Lett 18 (16), 4503-4507 (2008)

>  <Pubmed ID>
18667310

>  <DOI>
10.1016/j.bmcl.2008.07.059

$$$$
511281
Actelion Java MolfileCreator 1.0

 46 49  0  0  0  0  0  0  0  0999 V2000
    0.0000   -0.0000   -0.0000 F   0  0  0  0  0  0  0  0  0  0  0  0
    1.2915   -0.7346   -0.0000 C   0  0  0  0  0  0  0  0  0  0  0  0
    2.5711    0.0237   -0.0000 C   0  0  0  0  0  0  0  0  0  0  0  0
    1.2796   -2.2157   -0.0000 C   0  0  0  0  0  0  0  0  0  0  0  0
    2.5593    1.5403   -0.0000 O   0  0  0  0  0  0  0  0  0  0  0  0
    3.8626   -0.7228   -0.0000 C   0  0  0  0  0  0  0  0  0  0  0  0
   -0.0237   -2.9503   -0.0000 C   0  0  0  0  0  0  0  0  0  0  0  0
    2.5593   -2.9621   -0.0000 C   0  0  0  0  0  0  0  0  0  0  0  0
    3.8508    2.2986   -0.0000 C   0  0  0  0  0  0  0  0  0  0  0  0
    3.8508   -2.2157   -0.0000 C   0  0  0  0  0  0  0  0  0  0  0  0
   -1.3270   -2.1801   -0.0000 C   0  0  0  0  0  0  0  0  0  0  0  0
   -0.0355   -4.4432   -0.0000 C   0  0  0  0  0  0  0  0  0  0  0  0
    3.8389    3.8152   -0.0000 C   0  0  0  0  0  0  0  0  0  0  0  0
   -1.3389   -0.6635   -0.0000 O   0  0  0  0  0  0  0  0  0  0  0  0
   -2.6304   -2.9266   -0.0000 N   0  0  0  0  0  0  0  0  0  0  0  0
   -1.3389   -5.1778   -0.0000 N   0  0  0  0  0  0  0  0  0  0  0  0
    1.2441   -5.1778   -0.0000 C   0  0  0  0  0  0  0  0  0  0  0  0
    5.1304    4.5735   -0.0000 C   0  0  0  0  0  0  0  0  0  0  0  0
   -2.6422   -4.4195   -0.0000 C   0  0  0  0  0  0  0  0  0  0  0  0
   -3.9456   -2.1683   -0.0000 C   0  0  0  0  0  0  0  0  0  0  0  0
   -1.3507   -6.6707   -0.0000 C   0  0  0  0  0  0  0  0  0  0  0  0
    5.1186    6.0901   -0.0000 C   0  0  0  0  0  0  0  0  0  0  0  0
   -3.9456   -5.1541   -0.0000 O   0  0  0  0  0  0  0  0  0  0  0  0
   -5.2489   -2.9147   -0.0000 C   0  0  0  0  0  0  0  0  0  0  0  0
   -2.1209   -7.9503   -0.0000 C   0  0  0  0  0  0  0  0  0  0  0  0
    6.4100    6.8484   -0.0000 C   0  0  0  0  0  0  0  0  0  0  0  0
   -5.2607   -4.4076   -0.0000 N   0  0  0  0  0  0  0  0  0  0  0  0
   -6.5641   -2.1564   -0.0000 C   0  0  0  0  0  0  0  0  0  0  0  0
   -1.3270   -9.1826   -0.0000 C   0  0  0  0  0  0  0  0  0  0  0  0
   -3.6375   -8.0096   -0.0000 C   0  0  0  0  0  0  0  0  0  0  0  0
    6.3982    8.3650   -0.0000 O   0  0  0  0  0  0  0  0  0  0  0  0
    7.7015    6.1138   -0.0000 O   0  0  0  0  0  0  0  0  0  0  0  0
   -6.5641   -5.1541   -0.0000 C   0  0  0  0  0  0  0  0  0  0  0  0
   -6.5759   -0.6517   -0.0000 C   0  0  0  0  0  0  0  0  0  0  0  0
   -7.8556   -2.9029   -0.0000 C   0  0  0  0  0  0  0  0  0  0  0  0
    0.1540   -9.0878   -0.0000 F   0  0  0  0  0  0  0  0  0  0  0  0
   -2.0142  -10.4978   -0.0000 C   0  0  0  0  0  0  0  0  0  0  0  0
   -4.3366   -9.3248   -0.0000 C   0  0  0  0  0  0  0  0  0  0  0  0
   -4.4550   -6.7299   -0.0000 C   0  0  0  0  0  0  0  0  0  0  0  0
   -7.8911    0.1066   -0.0000 C   0  0  0  0  0  0  0  0  0  0  0  0
   -9.1707   -2.1564   -0.0000 C   0  0  0  0  0  0  0  0  0  0  0  0
   -3.5309  -10.5689   -0.0000 C   0  0  0  0  0  0  0  0  0  0  0  0
   -5.2607   -5.4503   -0.0000 F   0  0  0  0  0  0  0  0  0  0  0  0
   -5.7347   -7.5238   -0.0000 F   0  0  0  0  0  0  0  0  0  0  0  0
   -3.1991   -5.9124   -0.0000 F   0  0  0  0  0  0  0  0  0  0  0  0
   -9.2063   -0.6398   -0.0000 C   0  0  0  0  0  0  0  0  0  0  0  0
  1  2  1  0  0  0  0
  2  3  2  0  0  0  0
  2  4  1  0  0  0  0
  3  5  1  0  0  0  0
  3  6  1  0  0  0  0
  4  7  1  0  0  0  0
  4  8  2  0  0  0  0
  5  9  1  0  0  0  0
  6 10  2  0  0  0  0
  7 11  1  0  0  0  0
  7 12  2  0  0  0  0
  9 13  1  0  0  0  0
 11 14  2  0  0  0  0
 11 15  1  0  0  0  0
 12 16  1  0  0  0  0
 12 17  1  0  0  0  0
 13 18  1  0  0  0  0
 15 19  1  0  0  0  0
 15 20  1  0  0  0  0
 16 21  1  0  0  0  0
 18 22  1  0  0  0  0
 19 23  2  0  0  0  0
 20 24  1  0  0  0  0
 21 25  1  0  0  0  0
 22 26  1  0  0  0  0
 24 27  1  6  0  0  0
 24 28  1  0  0  0  0
 25 29  2  0  0  0  0
 25 30  1  0  0  0  0
 26 31  2  0  0  0  0
 26 32  1  0  0  0  0
 27 33  1  0  0  0  0
 28 34  2  0  0  0  0
 28 35  1  0  0  0  0
 29 36  1  0  0  0  0
 29 37  1  0  0  0  0
 30 38  2  0  0  0  0
 30 39  1  0  0  0  0
 34 40  1  0  0  0  0
 35 41  2  0  0  0  0
 37 42  2  0  0  0  0
 39 43  1  0  0  0  0
 39 44  1  0  0  0  0
 39 45  1  0  0  0  0
 40 46  2  0  0  0  0
  8 10  1  0  0  0  0
 16 19  1  0  0  0  0
 38 42  1  0  0  0  0
 41 46  1  0  0  0  0
M  END
>  <MolRegNo>
511281

>  <m>
=

>  <Value>
13000

>  <Unit>
nM

>  <Type>
IC50

>  <pValue>
4.89

>  <Ligand Efficiency>
0

>  <Binding Efficiency>
0

>  <Surface Efficiency>
0

>  <Assay Index>
358905

>  <Assay Category>


>  <Assay Organism>


>  <Target ID>
17045

>  <Target Name>
Cytochrome P450 3A4

>  <Target Organism>
Homo sapiens

>  <Target Description>
Target is a single protein chain

>  <Sequence Accession>
P08684

>  <Reference>
Bioorg Med Chem Lett 18 (16), 4503-4507 (2008)

>  <Pubmed ID>
18667310

>  <DOI>
10.1016/j.bmcl.2008.07.059

$$$$
511277
Actelion Java MolfileCreator 1.0

 45 48  0  0  0  0  0  0  0  0999 V2000
    0.0000   -0.0000   -0.0000 F   0  0  0  0  0  0  0  0  0  0  0  0
    1.2915   -0.7346   -0.0000 C   0  0  0  0  0  0  0  0  0  0  0  0
    2.5712    0.0237   -0.0000 C   0  0  0  0  0  0  0  0  0  0  0  0
    1.2797   -2.2157   -0.0000 C   0  0  0  0  0  0  0  0  0  0  0  0
    2.5593    1.5403   -0.0000 O   0  0  0  0  0  0  0  0  0  0  0  0
    3.8627   -0.7228   -0.0000 C   0  0  0  0  0  0  0  0  0  0  0  0
   -0.0237   -2.9504   -0.0000 C   0  0  0  0  0  0  0  0  0  0  0  0
    2.5593   -2.9622   -0.0000 C   0  0  0  0  0  0  0  0  0  0  0  0
    3.8509    2.2987   -0.0000 C   0  0  0  0  0  0  0  0  0  0  0  0
    3.8509   -2.2157   -0.0000 C   0  0  0  0  0  0  0  0  0  0  0  0
   -1.3271   -2.1802   -0.0000 C   0  0  0  0  0  0  0  0  0  0  0  0
   -0.0355   -4.4433   -0.0000 C   0  0  0  0  0  0  0  0  0  0  0  0
    3.8390    3.8153   -0.0000 C   0  0  0  0  0  0  0  0  0  0  0  0
   -1.3389   -0.6635   -0.0000 O   0  0  0  0  0  0  0  0  0  0  0  0
   -2.6304   -2.9267   -0.0000 N   0  0  0  0  0  0  0  0  0  0  0  0
   -1.3389   -5.1779   -0.0000 N   0  0  0  0  0  0  0  0  0  0  0  0
    1.2441   -5.1779   -0.0000 C   0  0  0  0  0  0  0  0  0  0  0  0
    5.1305    4.5736   -0.0000 C   0  0  0  0  0  0  0  0  0  0  0  0
   -2.6423   -4.4196   -0.0000 C   0  0  0  0  0  0  0  0  0  0  0  0
   -3.9457   -2.1683   -0.0000 C   0  0  0  0  0  0  0  0  0  0  0  0
   -1.3508   -6.6709   -0.0000 C   0  0  0  0  0  0  0  0  0  0  0  0
    5.1187    6.0903   -0.0000 C   0  0  0  0  0  0  0  0  0  0  0  0
   -3.9457   -5.1542   -0.0000 O   0  0  0  0  0  0  0  0  0  0  0  0
   -5.2490   -2.9148   -0.0000 C   0  0  0  0  0  0  0  0  0  0  0  0
   -2.1209   -7.9506   -0.0000 C   0  0  0  0  0  0  0  0  0  0  0  0
    6.4102    6.8486   -0.0000 C   0  0  0  0  0  0  0  0  0  0  0  0
   -5.2609   -4.4078   -0.0000 N   0  0  0  0  0  0  0  0  0  0  0  0
   -6.5642   -2.1565   -0.0000 C   0  0  0  0  0  0  0  0  0  0  0  0
   -1.3271   -9.1828   -0.0000 C   0  0  0  0  0  0  0  0  0  0  0  0
   -3.6376   -8.0098   -0.0000 C   0  0  0  0  0  0  0  0  0  0  0  0
    6.3984    8.3653   -0.0000 O   0  0  0  0  0  0  0  0  0  0  0  0
    7.7017    6.1140   -0.0000 O   0  0  0  0  0  0  0  0  0  0  0  0
   -6.5761   -0.6517   -0.0000 C   0  0  0  0  0  0  0  0  0  0  0  0
   -7.8558   -2.9030   -0.0000 C   0  0  0  0  0  0  0  0  0  0  0  0
    0.1540   -9.0880   -0.0000 F   0  0  0  0  0  0  0  0  0  0  0  0
   -2.0143  -10.4981   -0.0000 C   0  0  0  0  0  0  0  0  0  0  0  0
   -4.3367   -9.3250   -0.0000 C   0  0  0  0  0  0  0  0  0  0  0  0
   -4.4552   -6.7301   -0.0000 C   0  0  0  0  0  0  0  0  0  0  0  0
   -7.8913    0.1066   -0.0000 C   0  0  0  0  0  0  0  0  0  0  0  0
   -9.1710   -2.1565   -0.0000 C   0  0  0  0  0  0  0  0  0  0  0  0
   -3.5309  -10.5692   -0.0000 C   0  0  0  0  0  0  0  0  0  0  0  0
   -5.2609   -5.4505   -0.0000 F   0  0  0  0  0  0  0  0  0  0  0  0
   -5.7348   -7.5240   -0.0000 F   0  0  0  0  0  0  0  0  0  0  0  0
   -3.1992   -5.9126   -0.0000 F   0  0  0  0  0  0  0  0  0  0  0  0
   -9.2065   -0.6398   -0.0000 C   0  0  0  0  0  0  0  0  0  0  0  0
  1  2  1  0  0  0  0
  2  3  2  0  0  0  0
  2  4  1  0  0  0  0
  3  5  1  0  0  0  0
  3  6  1  0  0  0  0
  4  7  1  0  0  0  0
  4  8  2  0  0  0  0
  5  9  1  0  0  0  0
  6 10  2  0  0  0  0
  7 11  1  0  0  0  0
  7 12  2  0  0  0  0
  9 13  1  0  0  0  0
 11 14  2  0  0  0  0
 11 15  1  0  0  0  0
 12 16  1  0  0  0  0
 12 17  1  0  0  0  0
 13 18  1  0  0  0  0
 15 19  1  0  0  0  0
 15 20  1  0  0  0  0
 16 21  1  0  0  0  0
 18 22  1  0  0  0  0
 19 23  2  0  0  0  0
 20 24  1  0  0  0  0
 21 25  1  0  0  0  0
 22 26  1  0  0  0  0
 24 27  1  6  0  0  0
 24 28  1  0  0  0  0
 25 29  2  0  0  0  0
 25 30  1  0  0  0  0
 26 31  2  0  0  0  0
 26 32  1  0  0  0  0
 28 33  2  0  0  0  0
 28 34  1  0  0  0  0
 29 35  1  0  0  0  0
 29 36  1  0  0  0  0
 30 37  2  0  0  0  0
 30 38  1  0  0  0  0
 33 39  1  0  0  0  0
 34 40  2  0  0  0  0
 36 41  2  0  0  0  0
 38 42  1  0  0  0  0
 38 43  1  0  0  0  0
 38 44  1  0  0  0  0
 39 45  2  0  0  0  0
  8 10  1  0  0  0  0
 16 19  1  0  0  0  0
 37 41  1  0  0  0  0
 40 45  1  0  0  0  0
M  END
>  <MolRegNo>
511277

>  <m>
=

>  <Value>
28000

>  <Unit>
nM

>  <Type>
IC50

>  <pValue>
4.55

>  <Ligand Efficiency>
0

>  <Binding Efficiency>
0

>  <Surface Efficiency>
0

>  <Assay Index>
358905

>  <Assay Category>


>  <Assay Organism>


>  <Target ID>
17045

>  <Target Name>
Cytochrome P450 3A4

>  <Target Organism>
Homo sapiens

>  <Target Description>
Target is a single protein chain

>  <Sequence Accession>
P08684

>  <Reference>
Bioorg Med Chem Lett 18 (16), 4503-4507 (2008)

>  <Pubmed ID>
18667310

>  <DOI>
10.1016/j.bmcl.2008.07.059

$$$$
511276
Actelion Java MolfileCreator 1.0

 46 49  0  0  0  0  0  0  0  0999 V2000
    0.0000   -0.0000   -0.0000 F   0  0  0  0  0  0  0  0  0  0  0  0
    1.2908   -0.7342   -0.0000 C   0  0  0  0  0  0  0  0  0  0  0  0
    2.5697    0.0237   -0.0000 C   0  0  0  0  0  0  0  0  0  0  0  0
    1.2789   -2.2145   -0.0000 C   0  0  0  0  0  0  0  0  0  0  0  0
    2.5579    1.5395   -0.0000 O   0  0  0  0  0  0  0  0  0  0  0  0
    3.8605   -0.7224   -0.0000 C   0  0  0  0  0  0  0  0  0  0  0  0
   -0.0237   -2.9487   -0.0000 C   0  0  0  0  0  0  0  0  0  0  0  0
    2.5579   -2.9605   -0.0000 C   0  0  0  0  0  0  0  0  0  0  0  0
    3.8487    2.2974   -0.0000 C   0  0  0  0  0  0  0  0  0  0  0  0
    3.8487   -2.2145   -0.0000 C   0  0  0  0  0  0  0  0  0  0  0  0
   -1.3263   -2.1789   -0.0000 C   0  0  0  0  0  0  0  0  0  0  0  0
   -0.0355   -4.4408   -0.0000 C   0  0  0  0  0  0  0  0  0  0  0  0
    3.8368    3.8131   -0.0000 C   0  0  0  0  0  0  0  0  0  0  0  0
   -1.3382   -0.6632   -0.0000 O   0  0  0  0  0  0  0  0  0  0  0  0
   -2.6289   -2.9250   -0.0000 N   0  0  0  0  0  0  0  0  0  0  0  0
   -1.3382   -5.1750   -0.0000 N   0  0  0  0  0  0  0  0  0  0  0  0
    1.2434   -5.1750   -0.0000 C   0  0  0  0  0  0  0  0  0  0  0  0
    5.1276    4.5710   -0.0000 C   0  0  0  0  0  0  0  0  0  0  0  0
   -2.6408   -4.4171   -0.0000 C   0  0  0  0  0  0  0  0  0  0  0  0
   -3.9434   -2.1671   -0.0000 C   0  0  0  0  0  0  0  0  0  0  0  0
   -1.3500   -6.6671   -0.0000 C   0  0  0  0  0  0  0  0  0  0  0  0
    5.1158    6.0868   -0.0000 C   0  0  0  0  0  0  0  0  0  0  0  0
   -3.9434   -5.1513   -0.0000 O   0  0  0  0  0  0  0  0  0  0  0  0
   -5.2460   -2.9131   -0.0000 C   0  0  0  0  0  0  0  0  0  0  0  0
   -2.1197   -7.9460   -0.0000 C   0  0  0  0  0  0  0  0  0  0  0  0
    6.4066    6.8447   -0.0000 C   0  0  0  0  0  0  0  0  0  0  0  0
   -5.2579   -4.4052   -0.0000 N   0  0  0  0  0  0  0  0  0  0  0  0
   -6.5605   -2.1553   -0.0000 C   0  0  0  0  0  0  0  0  0  0  0  0
   -1.3263   -9.1776   -0.0000 C   0  0  0  0  0  0  0  0  0  0  0  0
   -3.6355   -8.0052   -0.0000 C   0  0  0  0  0  0  0  0  0  0  0  0
    6.3947    8.3605   -0.0000 C   0  0  0  0  0  0  0  0  0  0  0  0
   -6.5723   -0.6513   -0.0000 C   0  0  0  0  0  0  0  0  0  0  0  0
   -7.8513   -2.9013   -0.0000 C   0  0  0  0  0  0  0  0  0  0  0  0
    0.1539   -9.0829   -0.0000 F   0  0  0  0  0  0  0  0  0  0  0  0
   -2.0131  -10.4921   -0.0000 C   0  0  0  0  0  0  0  0  0  0  0  0
   -4.3342   -9.3197   -0.0000 C   0  0  0  0  0  0  0  0  0  0  0  0
   -4.4526   -6.7263   -0.0000 C   0  0  0  0  0  0  0  0  0  0  0  0
    5.0802    9.1302   -0.0000 O   0  0  0  0  0  0  0  0  0  0  0  0
    7.6855    9.1302   -0.0000 O   0  0  0  0  0  0  0  0  0  0  0  0
   -7.8868    0.1066   -0.0000 C   0  0  0  0  0  0  0  0  0  0  0  0
   -9.1657   -2.1553   -0.0000 C   0  0  0  0  0  0  0  0  0  0  0  0
   -3.5289  -10.5631   -0.0000 C   0  0  0  0  0  0  0  0  0  0  0  0
   -5.2579   -5.4473   -0.0000 F   0  0  0  0  0  0  0  0  0  0  0  0
   -5.7316   -7.5197   -0.0000 F   0  0  0  0  0  0  0  0  0  0  0  0
   -3.1974   -5.9092   -0.0000 F   0  0  0  0  0  0  0  0  0  0  0  0
   -9.2013   -0.6395   -0.0000 C   0  0  0  0  0  0  0  0  0  0  0  0
  1  2  1  0  0  0  0
  2  3  2  0  0  0  0
  2  4  1  0  0  0  0
  3  5  1  0  0  0  0
  3  6  1  0  0  0  0
  4  7  1  0  0  0  0
  4  8  2  0  0  0  0
  5  9  1  0  0  0  0
  6 10  2  0  0  0  0
  7 11  1  0  0  0  0
  7 12  2  0  0  0  0
  9 13  1  0  0  0  0
 11 14  2  0  0  0  0
 11 15  1  0  0  0  0
 12 16  1  0  0  0  0
 12 17  1  0  0  0  0
 13 18  1  0  0  0  0
 15 19  1  0  0  0  0
 15 20  1  0  0  0  0
 16 21  1  0  0  0  0
 18 22  1  0  0  0  0
 19 23  2  0  0  0  0
 20 24  1  0  0  0  0
 21 25  1  0  0  0  0
 22 26  1  0  0  0  0
 24 27  1  6  0  0  0
 24 28  1  0  0  0  0
 25 29  2  0  0  0  0
 25 30  1  0  0  0  0
 26 31  1  0  0  0  0
 28 32  2  0  0  0  0
 28 33  1  0  0  0  0
 29 34  1  0  0  0  0
 29 35  1  0  0  0  0
 30 36  2  0  0  0  0
 30 37  1  0  0  0  0
 31 38  2  0  0  0  0
 31 39  1  0  0  0  0
 32 40  1  0  0  0  0
 33 41  2  0  0  0  0
 35 42  2  0  0  0  0
 37 43  1  0  0  0  0
 37 44  1  0  0  0  0
 37 45  1  0  0  0  0
 40 46  2  0  0  0  0
  8 10  1  0  0  0  0
 16 19  1  0  0  0  0
 36 42  1  0  0  0  0
 41 46  1  0  0  0  0
M  END
>  <MolRegNo>
511276

>  <m>
=

>  <Value>
8200

>  <Unit>
nM

>  <Type>
IC50

>  <pValue>
5.09

>  <Ligand Efficiency>
0

>  <Binding Efficiency>
0

>  <Surface Efficiency>
0

>  <Assay Index>
358905

>  <Assay Category>


>  <Assay Organism>


>  <Target ID>
17045

>  <Target Name>
Cytochrome P450 3A4

>  <Target Organism>
Homo sapiens

>  <Target Description>
Target is a single protein chain

>  <Sequence Accession>
P08684

>  <Reference>
Bioorg Med Chem Lett 18 (16), 4503-4507 (2008)

>  <Pubmed ID>
18667310

>  <DOI>
10.1016/j.bmcl.2008.07.059

$$$$
511275
Actelion Java MolfileCreator 1.0

 43 46  0  0  0  0  0  0  0  0999 V2000
    0.0000   -0.0000   -0.0000 F   0  0  0  0  0  0  0  0  0  0  0  0
   -1.5001   -0.0709   -0.0000 C   0  0  0  0  0  0  0  0  0  0  0  0
   -2.3152    1.1812   -0.0000 C   0  0  0  0  0  0  0  0  0  0  0  0
   -2.1852   -1.3820   -0.0000 C   0  0  0  0  0  0  0  0  0  0  0  0
   -3.8271    1.1221   -0.0000 C   0  0  0  0  0  0  0  0  0  0  0  0
   -1.5710    2.4805   -0.0000 C   0  0  0  0  0  0  0  0  0  0  0  0
   -3.6972   -1.4529   -0.0000 C   0  0  0  0  0  0  0  0  0  0  0  0
   -4.5240   -0.1890   -0.0000 C   0  0  0  0  0  0  0  0  0  0  0  0
   -4.6421    2.3978   -0.0000 C   0  0  0  0  0  0  0  0  0  0  0  0
   -1.5828    3.9925   -0.0000 N   0  0  0  0  0  0  0  0  0  0  0  0
   -5.4454    3.6735   -0.0000 F   0  0  0  0  0  0  0  0  0  0  0  0
   -5.9178    1.6064   -0.0000 F   0  0  0  0  0  0  0  0  0  0  0  0
   -3.3901    3.2129   -0.0000 F   0  0  0  0  0  0  0  0  0  0  0  0
   -2.8821    4.7484   -0.0000 C   0  0  0  0  0  0  0  0  0  0  0  0
   -0.3071    4.7484   -0.0000 C   0  0  0  0  0  0  0  0  0  0  0  0
   -4.1815    4.0161   -0.0000 O   0  0  0  0  0  0  0  0  0  0  0  0
   -2.8940    6.2604   -0.0000 N   0  0  0  0  0  0  0  0  0  0  0  0
   -0.3189    6.2604   -0.0000 C   0  0  0  0  0  0  0  0  0  0  0  0
    0.9686    4.0161   -0.0000 C   0  0  0  0  0  0  0  0  0  0  0  0
   -1.6183    7.0282   -0.0000 C   0  0  0  0  0  0  0  0  0  0  0  0
   -4.2051    7.0164   -0.0000 C   0  0  0  0  0  0  0  0  0  0  0  0
    0.9568    7.0164   -0.0000 C   0  0  0  0  0  0  0  0  0  0  0  0
   -1.6301    8.5401   -0.0000 O   0  0  0  0  0  0  0  0  0  0  0  0
   -5.5044    6.2722   -0.0000 C   0  0  0  0  0  0  0  0  0  0  0  0
    0.9450    8.5165   -0.0000 C   0  0  0  0  0  0  0  0  0  0  0  0
    2.2325    6.2722   -0.0000 C   0  0  0  0  0  0  0  0  0  0  0  0
   -5.5162    4.7839   -0.0000 N   0  0  0  0  0  0  0  0  0  0  0  0
   -6.8156    7.0282   -0.0000 C   0  0  0  0  0  0  0  0  0  0  0  0
    2.2207    9.2725   -0.0000 C   0  0  0  0  0  0  0  0  0  0  0  0
    3.5200    7.0282   -0.0000 C   0  0  0  0  0  0  0  0  0  0  0  0
   -6.8274    8.5283   -0.0000 C   0  0  0  0  0  0  0  0  0  0  0  0
   -8.1031    6.2840   -0.0000 C   0  0  0  0  0  0  0  0  0  0  0  0
    2.2089   10.7844   -0.0000 O   0  0  0  0  0  0  0  0  0  0  0  0
    3.5082    8.5283   -0.0000 C   0  0  0  0  0  0  0  0  0  0  0  0
   -8.1385    9.2843   -0.0000 C   0  0  0  0  0  0  0  0  0  0  0  0
   -9.4142    7.0282   -0.0000 C   0  0  0  0  0  0  0  0  0  0  0  0
    3.4964   11.5404   -0.0000 C   0  0  0  0  0  0  0  0  0  0  0  0
   -9.4496    8.5401   -0.0000 C   0  0  0  0  0  0  0  0  0  0  0  0
    3.4846   13.0523   -0.0000 C   0  0  0  0  0  0  0  0  0  0  0  0
    4.7721   13.8083   -0.0000 C   0  0  0  0  0  0  0  0  0  0  0  0
    4.7603   15.3202   -0.0000 C   0  0  0  0  0  0  0  0  0  0  0  0
    3.4609   16.0880   -0.0000 O   0  0  0  0  0  0  0  0  0  0  0  0
    6.0478   16.0880   -0.0000 O   0  0  0  0  0  0  0  0  0  0  0  0
  1  2  1  0  0  0  0
  2  3  2  0  0  0  0
  2  4  1  0  0  0  0
  3  5  1  0  0  0  0
  3  6  1  0  0  0  0
  4  7  2  0  0  0  0
  5  8  2  0  0  0  0
  5  9  1  0  0  0  0
  6 10  1  0  0  0  0
  9 11  1  0  0  0  0
  9 12  1  0  0  0  0
  9 13  1  0  0  0  0
 10 14  1  0  0  0  0
 10 15  1  0  0  0  0
 14 16  2  0  0  0  0
 14 17  1  0  0  0  0
 15 18  2  0  0  0  0
 15 19  1  0  0  0  0
 17 20  1  0  0  0  0
 17 21  1  0  0  0  0
 18 22  1  0  0  0  0
 20 23  2  0  0  0  0
 21 24  1  0  0  0  0
 22 25  2  0  0  0  0
 22 26  1  0  0  0  0
 24 27  1  6  0  0  0
 24 28  1  0  0  0  0
 25 29  1  0  0  0  0
 26 30  2  0  0  0  0
 28 31  2  0  0  0  0
 28 32  1  0  0  0  0
 29 33  1  0  0  0  0
 29 34  2  0  0  0  0
 31 35  1  0  0  0  0
 32 36  2  0  0  0  0
 33 37  1  0  0  0  0
 35 38  2  0  0  0  0
 37 39  1  0  0  0  0
 39 40  1  0  0  0  0
 40 41  1  0  0  0  0
 41 42  2  0  0  0  0
 41 43  1  0  0  0  0
  7  8  1  0  0  0  0
 18 20  1  0  0  0  0
 30 34  1  0  0  0  0
 36 38  1  0  0  0  0
M  END
>  <MolRegNo>
511275

>  <m>
=

>  <Value>
10000

>  <Unit>
nM

>  <Type>
IC50

>  <pValue>
5

>  <Ligand Efficiency>
0

>  <Binding Efficiency>
0

>  <Surface Efficiency>
0

>  <Assay Index>
358905

>  <Assay Category>


>  <Assay Organism>


>  <Target ID>
17045

>  <Target Name>
Cytochrome P450 3A4

>  <Target Organism>
Homo sapiens

>  <Target Description>
Target is a single protein chain

>  <Sequence Accession>
P08684

>  <Reference>
Bioorg Med Chem Lett 18 (16), 4503-4507 (2008)

>  <Pubmed ID>
18667310

>  <DOI>
10.1016/j.bmcl.2008.07.059

$$$$
511274
Actelion Java MolfileCreator 1.0

 44 47  0  0  0  0  0  0  0  0999 V2000
    0.0000   -0.0000   -0.0000 F   0  0  0  0  0  0  0  0  0  0  0  0
   -1.5006   -0.0709   -0.0000 C   0  0  0  0  0  0  0  0  0  0  0  0
   -2.3159    1.1816   -0.0000 C   0  0  0  0  0  0  0  0  0  0  0  0
   -2.1859   -1.3824   -0.0000 C   0  0  0  0  0  0  0  0  0  0  0  0
   -3.8283    1.1225   -0.0000 C   0  0  0  0  0  0  0  0  0  0  0  0
   -1.5715    2.4813   -0.0000 C   0  0  0  0  0  0  0  0  0  0  0  0
   -3.6983   -1.4533   -0.0000 C   0  0  0  0  0  0  0  0  0  0  0  0
   -4.5254   -0.1891   -0.0000 C   0  0  0  0  0  0  0  0  0  0  0  0
   -4.6436    2.3986   -0.0000 C   0  0  0  0  0  0  0  0  0  0  0  0
   -1.5833    3.9937   -0.0000 N   0  0  0  0  0  0  0  0  0  0  0  0
   -5.4471    3.6747   -0.0000 F   0  0  0  0  0  0  0  0  0  0  0  0
   -5.9197    1.6069   -0.0000 F   0  0  0  0  0  0  0  0  0  0  0  0
   -3.3911    3.2139   -0.0000 F   0  0  0  0  0  0  0  0  0  0  0  0
   -2.8830    4.7499   -0.0000 C   0  0  0  0  0  0  0  0  0  0  0  0
   -0.3072    4.7499   -0.0000 C   0  0  0  0  0  0  0  0  0  0  0  0
   -4.1828    4.0174   -0.0000 O   0  0  0  0  0  0  0  0  0  0  0  0
   -2.8949    6.2623   -0.0000 N   0  0  0  0  0  0  0  0  0  0  0  0
   -0.3190    6.2623   -0.0000 C   0  0  0  0  0  0  0  0  0  0  0  0
    0.9689    4.0174   -0.0000 C   0  0  0  0  0  0  0  0  0  0  0  0
   -1.6188    7.0304   -0.0000 C   0  0  0  0  0  0  0  0  0  0  0  0
   -4.2064    7.0186   -0.0000 C   0  0  0  0  0  0  0  0  0  0  0  0
    0.9571    7.0186   -0.0000 C   0  0  0  0  0  0  0  0  0  0  0  0
   -1.6306    8.5428   -0.0000 O   0  0  0  0  0  0  0  0  0  0  0  0
   -5.5061    6.2742   -0.0000 C   0  0  0  0  0  0  0  0  0  0  0  0
    0.9453    8.5192   -0.0000 C   0  0  0  0  0  0  0  0  0  0  0  0
    2.2332    6.2742   -0.0000 C   0  0  0  0  0  0  0  0  0  0  0  0
   -5.5180    4.7854   -0.0000 N   0  0  0  0  0  0  0  0  0  0  0  0
   -6.8177    7.0304   -0.0000 C   0  0  0  0  0  0  0  0  0  0  0  0
    2.2214    9.2754   -0.0000 C   0  0  0  0  0  0  0  0  0  0  0  0
    3.5211    7.0304   -0.0000 C   0  0  0  0  0  0  0  0  0  0  0  0
   -6.8295    8.5310   -0.0000 C   0  0  0  0  0  0  0  0  0  0  0  0
   -8.1056    6.2860   -0.0000 C   0  0  0  0  0  0  0  0  0  0  0  0
    2.2095   10.7878   -0.0000 O   0  0  0  0  0  0  0  0  0  0  0  0
    3.5093    8.5310   -0.0000 C   0  0  0  0  0  0  0  0  0  0  0  0
   -8.1410    9.2872   -0.0000 C   0  0  0  0  0  0  0  0  0  0  0  0
   -9.4172    7.0304   -0.0000 C   0  0  0  0  0  0  0  0  0  0  0  0
    3.4975   11.5440   -0.0000 C   0  0  0  0  0  0  0  0  0  0  0  0
   -9.4526    8.5428   -0.0000 C   0  0  0  0  0  0  0  0  0  0  0  0
    3.4856   13.0564   -0.0000 C   0  0  0  0  0  0  0  0  0  0  0  0
    4.7736   13.8126   -0.0000 C   0  0  0  0  0  0  0  0  0  0  0  0
    4.7617   15.3250   -0.0000 C   0  0  0  0  0  0  0  0  0  0  0  0
    6.0497   16.0812   -0.0000 C   0  0  0  0  0  0  0  0  0  0  0  0
    6.0378   17.5936   -0.0000 O   0  0  0  0  0  0  0  0  0  0  0  0
    7.3376   15.3487   -0.0000 O   0  0  0  0  0  0  0  0  0  0  0  0
  1  2  1  0  0  0  0
  2  3  2  0  0  0  0
  2  4  1  0  0  0  0
  3  5  1  0  0  0  0
  3  6  1  0  0  0  0
  4  7  2  0  0  0  0
  5  8  2  0  0  0  0
  5  9  1  0  0  0  0
  6 10  1  0  0  0  0
  9 11  1  0  0  0  0
  9 12  1  0  0  0  0
  9 13  1  0  0  0  0
 10 14  1  0  0  0  0
 10 15  1  0  0  0  0
 14 16  2  0  0  0  0
 14 17  1  0  0  0  0
 15 18  2  0  0  0  0
 15 19  1  0  0  0  0
 17 20  1  0  0  0  0
 17 21  1  0  0  0  0
 18 22  1  0  0  0  0
 20 23  2  0  0  0  0
 21 24  1  0  0  0  0
 22 25  2  0  0  0  0
 22 26  1  0  0  0  0
 24 27  1  6  0  0  0
 24 28  1  0  0  0  0
 25 29  1  0  0  0  0
 26 30  2  0  0  0  0
 28 31  2  0  0  0  0
 28 32  1  0  0  0  0
 29 33  1  0  0  0  0
 29 34  2  0  0  0  0
 31 35  1  0  0  0  0
 32 36  2  0  0  0  0
 33 37  1  0  0  0  0
 35 38  2  0  0  0  0
 37 39  1  0  0  0  0
 39 40  1  0  0  0  0
 40 41  1  0  0  0  0
 41 42  1  0  0  0  0
 42 43  2  0  0  0  0
 42 44  1  0  0  0  0
  7  8  1  0  0  0  0
 18 20  1  0  0  0  0
 30 34  1  0  0  0  0
 36 38  1  0  0  0  0
M  END
>  <MolRegNo>
511274

>  <m>
=

>  <Value>
22000

>  <Unit>
nM

>  <Type>
IC50

>  <pValue>
4.66

>  <Ligand Efficiency>
0

>  <Binding Efficiency>
0

>  <Surface Efficiency>
0

>  <Assay Index>
358905

>  <Assay Category>


>  <Assay Organism>


>  <Target ID>
17045

>  <Target Name>
Cytochrome P450 3A4

>  <Target Organism>
Homo sapiens

>  <Target Description>
Target is a single protein chain

>  <Sequence Accession>
P08684

>  <Reference>
Bioorg Med Chem Lett 18 (16), 4503-4507 (2008)

>  <Pubmed ID>
18667310

>  <DOI>
10.1016/j.bmcl.2008.07.059

$$$$
511272
Actelion Java MolfileCreator 1.0

 45 48  0  0  0  0  0  0  0  0999 V2000
    0.0000   -0.0000   -0.0000 F   0  0  0  0  0  0  0  0  0  0  0  0
    1.2844   -0.7373   -0.0000 C   0  0  0  0  0  0  0  0  0  0  0  0
    2.5687    0.0238   -0.0000 C   0  0  0  0  0  0  0  0  0  0  0  0
    1.2725   -2.2238   -0.0000 C   0  0  0  0  0  0  0  0  0  0  0  0
    2.5568    1.5341   -0.0000 O   0  0  0  0  0  0  0  0  0  0  0  0
    3.8650   -0.7135   -0.0000 C   0  0  0  0  0  0  0  0  0  0  0  0
   -0.0357   -2.9612   -0.0000 C   0  0  0  0  0  0  0  0  0  0  0  0
    2.5568   -2.9731   -0.0000 C   0  0  0  0  0  0  0  0  0  0  0  0
    3.8412    2.2952   -0.0000 C   0  0  0  0  0  0  0  0  0  0  0  0
    3.8531   -2.2001   -0.0000 C   0  0  0  0  0  0  0  0  0  0  0  0
   -1.3438   -2.1882   -0.0000 C   0  0  0  0  0  0  0  0  0  0  0  0
   -0.0476   -4.4477   -0.0000 C   0  0  0  0  0  0  0  0  0  0  0  0
    3.8293    3.8055   -0.0000 C   0  0  0  0  0  0  0  0  0  0  0  0
   -1.3557   -0.6779   -0.0000 O   0  0  0  0  0  0  0  0  0  0  0  0
   -2.6520   -2.9374   -0.0000 N   0  0  0  0  0  0  0  0  0  0  0  0
   -1.3557   -5.1850   -0.0000 N   0  0  0  0  0  0  0  0  0  0  0  0
    5.1137    4.5666   -0.0000 C   0  0  0  0  0  0  0  0  0  0  0  0
   -2.6639   -4.4239   -0.0000 C   0  0  0  0  0  0  0  0  0  0  0  0
   -3.9720   -2.1763   -0.0000 C   0  0  0  0  0  0  0  0  0  0  0  0
   -1.3676   -6.6715   -0.0000 C   0  0  0  0  0  0  0  0  0  0  0  0
    5.1018    6.0769   -0.0000 C   0  0  0  0  0  0  0  0  0  0  0  0
   -3.9720   -5.1612   -0.0000 O   0  0  0  0  0  0  0  0  0  0  0  0
   -5.2801   -2.9136   -0.0000 C   0  0  0  0  0  0  0  0  0  0  0  0
   -0.0832   -7.4089   -0.0000 C   0  0  0  0  0  0  0  0  0  0  0  0
    6.3861    6.8380   -0.0000 C   0  0  0  0  0  0  0  0  0  0  0  0
   -5.2920   -4.4001   -0.0000 N   0  0  0  0  0  0  0  0  0  0  0  0
   -6.6002   -2.1525   -0.0000 C   0  0  0  0  0  0  0  0  0  0  0  0
    1.1892   -6.6478   -0.0000 C   0  0  0  0  0  0  0  0  0  0  0  0
   -0.1070   -8.9073   -0.0000 C   0  0  0  0  0  0  0  0  0  0  0  0
    7.6705    6.1007   -0.0000 C   0  0  0  0  0  0  0  0  0  0  0  0
   -6.6121   -0.6422   -0.0000 C   0  0  0  0  0  0  0  0  0  0  0  0
   -7.8964   -2.9017   -0.0000 C   0  0  0  0  0  0  0  0  0  0  0  0
    1.1773   -5.1374   -0.0000 F   0  0  0  0  0  0  0  0  0  0  0  0
    2.4736   -7.3851   -0.0000 C   0  0  0  0  0  0  0  0  0  0  0  0
    1.1773   -9.6446   -0.0000 C   0  0  0  0  0  0  0  0  0  0  0  0
   -1.4271   -9.6446   -0.0000 C   0  0  0  0  0  0  0  0  0  0  0  0
    8.9667    6.8618   -0.0000 O   0  0  0  0  0  0  0  0  0  0  0  0
    7.6586    4.6023   -0.0000 O   0  0  0  0  0  0  0  0  0  0  0  0
   -7.9202    0.1189   -0.0000 C   0  0  0  0  0  0  0  0  0  0  0  0
   -9.2165   -2.1525   -0.0000 C   0  0  0  0  0  0  0  0  0  0  0  0
    2.4617   -8.8835   -0.0000 C   0  0  0  0  0  0  0  0  0  0  0  0
   -2.7471  -10.3700   -0.0000 F   0  0  0  0  0  0  0  0  0  0  0  0
   -0.7016  -10.9408   -0.0000 F   0  0  0  0  0  0  0  0  0  0  0  0
   -2.1763   -8.3246   -0.0000 F   0  0  0  0  0  0  0  0  0  0  0  0
   -9.2284   -0.6184   -0.0000 C   0  0  0  0  0  0  0  0  0  0  0  0
  1  2  1  0  0  0  0
  2  3  2  0  0  0  0
  2  4  1  0  0  0  0
  3  5  1  0  0  0  0
  3  6  1  0  0  0  0
  4  7  1  0  0  0  0
  4  8  2  0  0  0  0
  5  9  1  0  0  0  0
  6 10  2  0  0  0  0
  7 11  1  0  0  0  0
  7 12  2  0  0  0  0
  9 13  1  0  0  0  0
 11 14  2  0  0  0  0
 11 15  1  0  0  0  0
 12 16  1  0  0  0  0
 13 17  1  0  0  0  0
 15 18  1  0  0  0  0
 15 19  1  0  0  0  0
 16 20  1  0  0  0  0
 17 21  1  0  0  0  0
 18 22  2  0  0  0  0
 19 23  1  0  0  0  0
 20 24  1  0  0  0  0
 21 25  1  0  0  0  0
 23 26  1  6  0  0  0
 23 27  1  0  0  0  0
 24 28  2  0  0  0  0
 24 29  1  0  0  0  0
 25 30  1  0  0  0  0
 27 31  2  0  0  0  0
 27 32  1  0  0  0  0
 28 33  1  0  0  0  0
 28 34  1  0  0  0  0
 29 35  2  0  0  0  0
 29 36  1  0  0  0  0
 30 37  2  0  0  0  0
 30 38  1  0  0  0  0
 31 39  1  0  0  0  0
 32 40  2  0  0  0  0
 34 41  2  0  0  0  0
 36 42  1  0  0  0  0
 36 43  1  0  0  0  0
 36 44  1  0  0  0  0
 39 45  2  0  0  0  0
  8 10  1  0  0  0  0
 16 18  1  0  0  0  0
 35 41  1  0  0  0  0
 40 45  1  0  0  0  0
M  END
>  <MolRegNo>
511272

>  <m>
=

>  <Value>
25000

>  <Unit>
nM

>  <Type>
IC50

>  <pValue>
4.6

>  <Ligand Efficiency>
0

>  <Binding Efficiency>
0

>  <Surface Efficiency>
0

>  <Assay Index>
358905

>  <Assay Category>


>  <Assay Organism>


>  <Target ID>
17045

>  <Target Name>
Cytochrome P450 3A4

>  <Target Organism>
Homo sapiens

>  <Target Description>
Target is a single protein chain

>  <Sequence Accession>
P08684

>  <Reference>
Bioorg Med Chem Lett 18 (16), 4503-4507 (2008)

>  <Pubmed ID>
18667310

>  <DOI>
10.1016/j.bmcl.2008.07.059

$$$$
511289
Actelion Java MolfileCreator 1.0

 48 51  0  0  0  0  0  0  0  0999 V2000
    0.0000   -0.0000   -0.0000 F   0  0  0  0  0  0  0  0  0  0  0  0
    1.2925   -0.7352   -0.0000 C   0  0  0  0  0  0  0  0  0  0  0  0
    2.5732    0.0237   -0.0000 C   0  0  0  0  0  0  0  0  0  0  0  0
    1.2807   -2.2175   -0.0000 C   0  0  0  0  0  0  0  0  0  0  0  0
    2.5613    1.5415   -0.0000 O   0  0  0  0  0  0  0  0  0  0  0  0
    3.8657   -0.7233   -0.0000 C   0  0  0  0  0  0  0  0  0  0  0  0
   -0.0237   -2.9527   -0.0000 C   0  0  0  0  0  0  0  0  0  0  0  0
    2.5613   -2.9645   -0.0000 C   0  0  0  0  0  0  0  0  0  0  0  0
    3.8539    2.3005   -0.0000 C   0  0  0  0  0  0  0  0  0  0  0  0
    3.8539   -2.2175   -0.0000 C   0  0  0  0  0  0  0  0  0  0  0  0
   -1.3281   -2.1819   -0.0000 C   0  0  0  0  0  0  0  0  0  0  0  0
   -0.0356   -4.4468   -0.0000 C   0  0  0  0  0  0  0  0  0  0  0  0
    3.8420    3.8183   -0.0000 C   0  0  0  0  0  0  0  0  0  0  0  0
   -1.3400   -0.6641   -0.0000 O   0  0  0  0  0  0  0  0  0  0  0  0
   -2.6325   -2.9289   -0.0000 N   0  0  0  0  0  0  0  0  0  0  0  0
   -1.3400   -5.1820   -0.0000 N   0  0  0  0  0  0  0  0  0  0  0  0
    1.2451   -5.1820   -0.0000 C   0  0  0  0  0  0  0  0  0  0  0  0
    5.1345    4.5772   -0.0000 C   0  0  0  0  0  0  0  0  0  0  0  0
   -2.6443   -4.4230   -0.0000 C   0  0  0  0  0  0  0  0  0  0  0  0
   -3.9487   -2.1700   -0.0000 C   0  0  0  0  0  0  0  0  0  0  0  0
   -1.3518   -6.6761   -0.0000 C   0  0  0  0  0  0  0  0  0  0  0  0
    6.4152    5.3480   -0.0000 C   0  0  0  0  0  0  0  0  0  0  0  0
    5.8816    3.2965   -0.0000 C   0  0  0  0  0  0  0  0  0  0  0  0
    4.3638    5.8816   -0.0000 C   0  0  0  0  0  0  0  0  0  0  0  0
   -3.9487   -5.1582   -0.0000 O   0  0  0  0  0  0  0  0  0  0  0  0
   -5.2531   -2.9171   -0.0000 C   0  0  0  0  0  0  0  0  0  0  0  0
   -2.1226   -7.9567   -0.0000 C   0  0  0  0  0  0  0  0  0  0  0  0
    7.7077    4.6246   -0.0000 C   0  0  0  0  0  0  0  0  0  0  0  0
   -5.2650   -4.4112   -0.0000 N   0  0  0  0  0  0  0  0  0  0  0  0
   -6.5694   -2.1582   -0.0000 C   0  0  0  0  0  0  0  0  0  0  0  0
   -1.3281   -9.1900   -0.0000 C   0  0  0  0  0  0  0  0  0  0  0  0
   -3.6404   -8.0160   -0.0000 C   0  0  0  0  0  0  0  0  0  0  0  0
    8.9884    5.3954   -0.0000 O   0  0  0  0  0  0  0  0  0  0  0  0
    7.7077    3.1305   -0.0000 O   0  0  0  0  0  0  0  0  0  0  0  0
   -6.5694   -5.1582   -0.0000 C   0  0  0  0  0  0  0  0  0  0  0  0
   -6.5812   -0.6522   -0.0000 C   0  0  0  0  0  0  0  0  0  0  0  0
   -7.8619   -2.9052   -0.0000 C   0  0  0  0  0  0  0  0  0  0  0  0
    0.1542   -9.0951   -0.0000 F   0  0  0  0  0  0  0  0  0  0  0  0
   -2.0159  -10.5062   -0.0000 C   0  0  0  0  0  0  0  0  0  0  0  0
   -4.3400   -9.3323   -0.0000 C   0  0  0  0  0  0  0  0  0  0  0  0
   -4.4586   -6.7354   -0.0000 C   0  0  0  0  0  0  0  0  0  0  0  0
   -7.8975    0.1067   -0.0000 C   0  0  0  0  0  0  0  0  0  0  0  0
   -9.1781   -2.1582   -0.0000 C   0  0  0  0  0  0  0  0  0  0  0  0
   -3.5337  -10.5774   -0.0000 C   0  0  0  0  0  0  0  0  0  0  0  0
   -5.2650   -5.4547   -0.0000 F   0  0  0  0  0  0  0  0  0  0  0  0
   -5.7393   -7.5299   -0.0000 F   0  0  0  0  0  0  0  0  0  0  0  0
   -3.2017   -5.9172   -0.0000 F   0  0  0  0  0  0  0  0  0  0  0  0
   -9.2137   -0.6403   -0.0000 C   0  0  0  0  0  0  0  0  0  0  0  0
  1  2  1  0  0  0  0
  2  3  2  0  0  0  0
  2  4  1  0  0  0  0
  3  5  1  0  0  0  0
  3  6  1  0  0  0  0
  4  7  1  0  0  0  0
  4  8  2  0  0  0  0
  5  9  1  0  0  0  0
  6 10  2  0  0  0  0
  7 11  1  0  0  0  0
  7 12  2  0  0  0  0
  9 13  1  0  0  0  0
 11 14  2  0  0  0  0
 11 15  1  0  0  0  0
 12 16  1  0  0  0  0
 12 17  1  0  0  0  0
 13 18  1  0  0  0  0
 15 19  1  0  0  0  0
 15 20  1  0  0  0  0
 16 21  1  0  0  0  0
 18 22  1  0  0  0  0
 18 23  1  0  0  0  0
 18 24  1  0  0  0  0
 19 25  2  0  0  0  0
 20 26  1  0  0  0  0
 21 27  1  0  0  0  0
 22 28  1  0  0  0  0
 26 29  1  6  0  0  0
 26 30  1  0  0  0  0
 27 31  2  0  0  0  0
 27 32  1  0  0  0  0
 28 33  2  0  0  0  0
 28 34  1  0  0  0  0
 29 35  1  0  0  0  0
 30 36  2  0  0  0  0
 30 37  1  0  0  0  0
 31 38  1  0  0  0  0
 31 39  1  0  0  0  0
 32 40  2  0  0  0  0
 32 41  1  0  0  0  0
 36 42  1  0  0  0  0
 37 43  2  0  0  0  0
 39 44  2  0  0  0  0
 41 45  1  0  0  0  0
 41 46  1  0  0  0  0
 41 47  1  0  0  0  0
 42 48  2  0  0  0  0
  8 10  1  0  0  0  0
 16 19  1  0  0  0  0
 40 44  1  0  0  0  0
 43 48  1  0  0  0  0
M  END
>  <MolRegNo>
511289

>  <m>
=

>  <Value>
10000

>  <Unit>
nM

>  <Type>
IC50

>  <pValue>
5

>  <Ligand Efficiency>
0

>  <Binding Efficiency>
0

>  <Surface Efficiency>
0

>  <Assay Index>
358905

>  <Assay Category>


>  <Assay Organism>


>  <Target ID>
17045

>  <Target Name>
Cytochrome P450 3A4

>  <Target Organism>
Homo sapiens

>  <Target Description>
Target is a single protein chain

>  <Sequence Accession>
P08684

>  <Reference>
Bioorg Med Chem Lett 18 (16), 4503-4507 (2008)

>  <Pubmed ID>
18667310

>  <DOI>
10.1016/j.bmcl.2008.07.059

$$$$
511288
Actelion Java MolfileCreator 1.0

 47 50  0  0  0  0  0  0  0  0999 V2000
    0.0000   -0.0000   -0.0000 F   0  0  0  0  0  0  0  0  0  0  0  0
    1.2918   -0.7348   -0.0000 C   0  0  0  0  0  0  0  0  0  0  0  0
    2.5717    0.0237   -0.0000 C   0  0  0  0  0  0  0  0  0  0  0  0
    1.2799   -2.2161   -0.0000 C   0  0  0  0  0  0  0  0  0  0  0  0
    2.5598    1.5406   -0.0000 O   0  0  0  0  0  0  0  0  0  0  0  0
    3.8634   -0.7229   -0.0000 C   0  0  0  0  0  0  0  0  0  0  0  0
   -0.0237   -2.9509   -0.0000 C   0  0  0  0  0  0  0  0  0  0  0  0
    2.5598   -2.9628   -0.0000 C   0  0  0  0  0  0  0  0  0  0  0  0
    3.8516    2.2991   -0.0000 C   0  0  0  0  0  0  0  0  0  0  0  0
    3.8516   -2.2161   -0.0000 C   0  0  0  0  0  0  0  0  0  0  0  0
   -1.3273   -2.1806   -0.0000 C   0  0  0  0  0  0  0  0  0  0  0  0
   -0.0356   -4.4441   -0.0000 C   0  0  0  0  0  0  0  0  0  0  0  0
    3.8397    3.8160   -0.0000 C   0  0  0  0  0  0  0  0  0  0  0  0
   -1.3392   -0.6637   -0.0000 O   0  0  0  0  0  0  0  0  0  0  0  0
   -2.6309   -2.9272   -0.0000 N   0  0  0  0  0  0  0  0  0  0  0  0
   -1.3392   -5.1789   -0.0000 N   0  0  0  0  0  0  0  0  0  0  0  0
    1.2444   -5.1789   -0.0000 C   0  0  0  0  0  0  0  0  0  0  0  0
    5.1315    4.5745   -0.0000 C   0  0  0  0  0  0  0  0  0  0  0  0
   -2.6428   -4.4204   -0.0000 C   0  0  0  0  0  0  0  0  0  0  0  0
   -3.9464   -2.1687   -0.0000 C   0  0  0  0  0  0  0  0  0  0  0  0
   -1.3510   -6.6721   -0.0000 C   0  0  0  0  0  0  0  0  0  0  0  0
    5.1196    6.0914   -0.0000 O   0  0  0  0  0  0  0  0  0  0  0  0
   -3.9464   -5.1552   -0.0000 O   0  0  0  0  0  0  0  0  0  0  0  0
   -5.2500   -2.9154   -0.0000 C   0  0  0  0  0  0  0  0  0  0  0  0
   -2.1213   -7.9520   -0.0000 C   0  0  0  0  0  0  0  0  0  0  0  0
    6.4114    6.8499   -0.0000 C   0  0  0  0  0  0  0  0  0  0  0  0
   -5.2619   -4.4086   -0.0000 N   0  0  0  0  0  0  0  0  0  0  0  0
   -6.5655   -2.1569   -0.0000 C   0  0  0  0  0  0  0  0  0  0  0  0
   -1.3273   -9.1845   -0.0000 C   0  0  0  0  0  0  0  0  0  0  0  0
   -3.6383   -8.0113   -0.0000 C   0  0  0  0  0  0  0  0  0  0  0  0
    7.7032    6.1151   -0.0000 C   0  0  0  0  0  0  0  0  0  0  0  0
   -6.5655   -5.1552   -0.0000 C   0  0  0  0  0  0  0  0  0  0  0  0
   -6.5773   -0.6518   -0.0000 C   0  0  0  0  0  0  0  0  0  0  0  0
   -7.8572   -2.9035   -0.0000 C   0  0  0  0  0  0  0  0  0  0  0  0
    0.1541   -9.0897   -0.0000 F   0  0  0  0  0  0  0  0  0  0  0  0
   -2.0147  -10.5000   -0.0000 C   0  0  0  0  0  0  0  0  0  0  0  0
   -4.3375   -9.3268   -0.0000 C   0  0  0  0  0  0  0  0  0  0  0  0
   -4.4560   -6.7314   -0.0000 C   0  0  0  0  0  0  0  0  0  0  0  0
    8.9949    6.8736   -0.0000 O   0  0  0  0  0  0  0  0  0  0  0  0
    7.6913    4.6219   -0.0000 O   0  0  0  0  0  0  0  0  0  0  0  0
   -7.8928    0.1067   -0.0000 C   0  0  0  0  0  0  0  0  0  0  0  0
   -9.1845   -2.1569   -0.0000 C   0  0  0  0  0  0  0  0  0  0  0  0
   -3.5316  -10.5711   -0.0000 C   0  0  0  0  0  0  0  0  0  0  0  0
   -5.2619   -5.4515   -0.0000 F   0  0  0  0  0  0  0  0  0  0  0  0
   -5.7359   -7.5254   -0.0000 F   0  0  0  0  0  0  0  0  0  0  0  0
   -3.1998   -5.9137   -0.0000 F   0  0  0  0  0  0  0  0  0  0  0  0
   -9.2082   -0.6400   -0.0000 C   0  0  0  0  0  0  0  0  0  0  0  0
  1  2  1  0  0  0  0
  2  3  2  0  0  0  0
  2  4  1  0  0  0  0
  3  5  1  0  0  0  0
  3  6  1  0  0  0  0
  4  7  1  0  0  0  0
  4  8  2  0  0  0  0
  5  9  1  0  0  0  0
  6 10  2  0  0  0  0
  7 11  1  0  0  0  0
  7 12  2  0  0  0  0
  9 13  1  0  0  0  0
 11 14  2  0  0  0  0
 11 15  1  0  0  0  0
 12 16  1  0  0  0  0
 12 17  1  0  0  0  0
 13 18  1  0  0  0  0
 15 19  1  0  0  0  0
 15 20  1  0  0  0  0
 16 21  1  0  0  0  0
 18 22  1  0  0  0  0
 19 23  2  0  0  0  0
 20 24  1  0  0  0  0
 21 25  1  0  0  0  0
 22 26  1  0  0  0  0
 24 27  1  6  0  0  0
 24 28  1  0  0  0  0
 25 29  2  0  0  0  0
 25 30  1  0  0  0  0
 26 31  1  0  0  0  0
 27 32  1  0  0  0  0
 28 33  2  0  0  0  0
 28 34  1  0  0  0  0
 29 35  1  0  0  0  0
 29 36  1  0  0  0  0
 30 37  2  0  0  0  0
 30 38  1  0  0  0  0
 31 39  2  0  0  0  0
 31 40  1  0  0  0  0
 33 41  1  0  0  0  0
 34 42  2  0  0  0  0
 36 43  2  0  0  0  0
 38 44  1  0  0  0  0
 38 45  1  0  0  0  0
 38 46  1  0  0  0  0
 41 47  2  0  0  0  0
  8 10  1  0  0  0  0
 16 19  1  0  0  0  0
 37 43  1  0  0  0  0
 42 47  1  0  0  0  0
M  END
>  <MolRegNo>
511288

>  <m>
=

>  <Value>
22000

>  <Unit>
nM

>  <Type>
IC50

>  <pValue>
4.66

>  <Ligand Efficiency>
0

>  <Binding Efficiency>
0

>  <Surface Efficiency>
0

>  <Assay Index>
358905

>  <Assay Category>


>  <Assay Organism>


>  <Target ID>
17045

>  <Target Name>
Cytochrome P450 3A4

>  <Target Organism>
Homo sapiens

>  <Target Description>
Target is a single protein chain

>  <Sequence Accession>
P08684

>  <Reference>
Bioorg Med Chem Lett 18 (16), 4503-4507 (2008)

>  <Pubmed ID>
18667310

>  <DOI>
10.1016/j.bmcl.2008.07.059

$$$$
511287
Actelion Java MolfileCreator 1.0

 46 49  0  0  0  0  0  0  0  0999 V2000
    0.0000   -0.0000   -0.0000 F   0  0  0  0  0  0  0  0  0  0  0  0
    1.2915   -0.7346   -0.0000 C   0  0  0  0  0  0  0  0  0  0  0  0
    2.5711    0.0237   -0.0000 C   0  0  0  0  0  0  0  0  0  0  0  0
    1.2796   -2.2157   -0.0000 C   0  0  0  0  0  0  0  0  0  0  0  0
    2.5593    1.5403   -0.0000 O   0  0  0  0  0  0  0  0  0  0  0  0
    3.8626   -0.7228   -0.0000 C   0  0  0  0  0  0  0  0  0  0  0  0
   -0.0237   -2.9503   -0.0000 C   0  0  0  0  0  0  0  0  0  0  0  0
    2.5593   -2.9621   -0.0000 C   0  0  0  0  0  0  0  0  0  0  0  0
    3.8508    2.2986   -0.0000 C   0  0  0  0  0  0  0  0  0  0  0  0
    3.8508   -2.2157   -0.0000 C   0  0  0  0  0  0  0  0  0  0  0  0
   -1.3270   -2.1801   -0.0000 C   0  0  0  0  0  0  0  0  0  0  0  0
   -0.0355   -4.4432   -0.0000 C   0  0  0  0  0  0  0  0  0  0  0  0
    3.8389    3.8152   -0.0000 C   0  0  0  0  0  0  0  0  0  0  0  0
   -1.3389   -0.6635   -0.0000 O   0  0  0  0  0  0  0  0  0  0  0  0
   -2.6304   -2.9266   -0.0000 N   0  0  0  0  0  0  0  0  0  0  0  0
   -1.3389   -5.1778   -0.0000 N   0  0  0  0  0  0  0  0  0  0  0  0
    1.2441   -5.1778   -0.0000 C   0  0  0  0  0  0  0  0  0  0  0  0
    5.1304    4.5735   -0.0000 O   0  0  0  0  0  0  0  0  0  0  0  0
   -2.6422   -4.4195   -0.0000 C   0  0  0  0  0  0  0  0  0  0  0  0
   -3.9456   -2.1683   -0.0000 C   0  0  0  0  0  0  0  0  0  0  0  0
   -1.3507   -6.6707   -0.0000 C   0  0  0  0  0  0  0  0  0  0  0  0
    5.1186    6.0901   -0.0000 C   0  0  0  0  0  0  0  0  0  0  0  0
   -3.9456   -5.1541   -0.0000 O   0  0  0  0  0  0  0  0  0  0  0  0
   -5.2489   -2.9147   -0.0000 C   0  0  0  0  0  0  0  0  0  0  0  0
   -2.1209   -7.9503   -0.0000 C   0  0  0  0  0  0  0  0  0  0  0  0
    6.4100    6.8484   -0.0000 C   0  0  0  0  0  0  0  0  0  0  0  0
   -5.2607   -4.4076   -0.0000 N   0  0  0  0  0  0  0  0  0  0  0  0
   -6.5641   -2.1564   -0.0000 C   0  0  0  0  0  0  0  0  0  0  0  0
   -1.3270   -9.1826   -0.0000 C   0  0  0  0  0  0  0  0  0  0  0  0
   -3.6375   -8.0096   -0.0000 C   0  0  0  0  0  0  0  0  0  0  0  0
    6.3982    8.3650   -0.0000 O   0  0  0  0  0  0  0  0  0  0  0  0
    7.7015    6.1138   -0.0000 O   0  0  0  0  0  0  0  0  0  0  0  0
   -6.5641   -5.1541   -0.0000 C   0  0  0  0  0  0  0  0  0  0  0  0
   -6.5759   -0.6517   -0.0000 C   0  0  0  0  0  0  0  0  0  0  0  0
   -7.8556   -2.9029   -0.0000 C   0  0  0  0  0  0  0  0  0  0  0  0
    0.1540   -9.0878   -0.0000 F   0  0  0  0  0  0  0  0  0  0  0  0
   -2.0142  -10.4978   -0.0000 C   0  0  0  0  0  0  0  0  0  0  0  0
   -4.3366   -9.3248   -0.0000 C   0  0  0  0  0  0  0  0  0  0  0  0
   -4.4550   -6.7299   -0.0000 C   0  0  0  0  0  0  0  0  0  0  0  0
   -7.8911    0.1066   -0.0000 C   0  0  0  0  0  0  0  0  0  0  0  0
   -9.1707   -2.1564   -0.0000 C   0  0  0  0  0  0  0  0  0  0  0  0
   -3.5309  -10.5689   -0.0000 C   0  0  0  0  0  0  0  0  0  0  0  0
   -5.2607   -5.4503   -0.0000 F   0  0  0  0  0  0  0  0  0  0  0  0
   -5.7347   -7.5238   -0.0000 F   0  0  0  0  0  0  0  0  0  0  0  0
   -3.1991   -5.9124   -0.0000 F   0  0  0  0  0  0  0  0  0  0  0  0
   -9.2063   -0.6398   -0.0000 C   0  0  0  0  0  0  0  0  0  0  0  0
  1  2  1  0  0  0  0
  2  3  2  0  0  0  0
  2  4  1  0  0  0  0
  3  5  1  0  0  0  0
  3  6  1  0  0  0  0
  4  7  1  0  0  0  0
  4  8  2  0  0  0  0
  5  9  1  0  0  0  0
  6 10  2  0  0  0  0
  7 11  1  0  0  0  0
  7 12  2  0  0  0  0
  9 13  1  0  0  0  0
 11 14  2  0  0  0  0
 11 15  1  0  0  0  0
 12 16  1  0  0  0  0
 12 17  1  0  0  0  0
 13 18  1  0  0  0  0
 15 19  1  0  0  0  0
 15 20  1  0  0  0  0
 16 21  1  0  0  0  0
 18 22  1  0  0  0  0
 19 23  2  0  0  0  0
 20 24  1  0  0  0  0
 21 25  1  0  0  0  0
 22 26  1  0  0  0  0
 24 27  1  6  0  0  0
 24 28  1  0  0  0  0
 25 29  2  0  0  0  0
 25 30  1  0  0  0  0
 26 31  2  0  0  0  0
 26 32  1  0  0  0  0
 27 33  1  0  0  0  0
 28 34  2  0  0  0  0
 28 35  1  0  0  0  0
 29 36  1  0  0  0  0
 29 37  1  0  0  0  0
 30 38  2  0  0  0  0
 30 39  1  0  0  0  0
 34 40  1  0  0  0  0
 35 41  2  0  0  0  0
 37 42  2  0  0  0  0
 39 43  1  0  0  0  0
 39 44  1  0  0  0  0
 39 45  1  0  0  0  0
 40 46  2  0  0  0  0
  8 10  1  0  0  0  0
 16 19  1  0  0  0  0
 38 42  1  0  0  0  0
 41 46  1  0  0  0  0
M  END
>  <MolRegNo>
511287

>  <m>
=

>  <Value>
10000

>  <Unit>
nM

>  <Type>
IC50

>  <pValue>
5

>  <Ligand Efficiency>
0

>  <Binding Efficiency>
0

>  <Surface Efficiency>
0

>  <Assay Index>
358905

>  <Assay Category>


>  <Assay Organism>


>  <Target ID>
17045

>  <Target Name>
Cytochrome P450 3A4

>  <Target Organism>
Homo sapiens

>  <Target Description>
Target is a single protein chain

>  <Sequence Accession>
P08684

>  <Reference>
Bioorg Med Chem Lett 18 (16), 4503-4507 (2008)

>  <Pubmed ID>
18667310

>  <DOI>
10.1016/j.bmcl.2008.07.059

$$$$
511285
Actelion Java MolfileCreator 1.0

 47 50  0  0  0  0  0  0  0  0999 V2000
    0.0000   -0.0000   -0.0000 F   0  0  0  0  0  0  0  0  0  0  0  0
    1.2918   -0.7348   -0.0000 C   0  0  0  0  0  0  0  0  0  0  0  0
    2.5717    0.0237   -0.0000 C   0  0  0  0  0  0  0  0  0  0  0  0
    1.2799   -2.2161   -0.0000 C   0  0  0  0  0  0  0  0  0  0  0  0
    2.5598    1.5406   -0.0000 O   0  0  0  0  0  0  0  0  0  0  0  0
    3.8634   -0.7229   -0.0000 C   0  0  0  0  0  0  0  0  0  0  0  0
   -0.0237   -2.9509   -0.0000 C   0  0  0  0  0  0  0  0  0  0  0  0
    2.5598   -2.9628   -0.0000 C   0  0  0  0  0  0  0  0  0  0  0  0
    3.8516    2.2991   -0.0000 C   0  0  0  0  0  0  0  0  0  0  0  0
    3.8516   -2.2161   -0.0000 C   0  0  0  0  0  0  0  0  0  0  0  0
   -1.3273   -2.1806   -0.0000 C   0  0  0  0  0  0  0  0  0  0  0  0
   -0.0356   -4.4441   -0.0000 C   0  0  0  0  0  0  0  0  0  0  0  0
    3.8397    3.8160   -0.0000 C   0  0  0  0  0  0  0  0  0  0  0  0
   -1.3392   -0.6637   -0.0000 O   0  0  0  0  0  0  0  0  0  0  0  0
   -2.6309   -2.9272   -0.0000 N   0  0  0  0  0  0  0  0  0  0  0  0
   -1.3392   -5.1789   -0.0000 N   0  0  0  0  0  0  0  0  0  0  0  0
    1.2444   -5.1789   -0.0000 C   0  0  0  0  0  0  0  0  0  0  0  0
    5.1315    4.5745   -0.0000 C   0  0  0  0  0  0  0  0  0  0  0  0
   -2.6428   -4.4204   -0.0000 C   0  0  0  0  0  0  0  0  0  0  0  0
   -3.9464   -2.1687   -0.0000 C   0  0  0  0  0  0  0  0  0  0  0  0
   -1.3510   -6.6721   -0.0000 C   0  0  0  0  0  0  0  0  0  0  0  0
    5.1196    6.0914   -0.0000 N   0  0  0  0  0  0  0  0  0  0  0  0
   -3.9464   -5.1552   -0.0000 O   0  0  0  0  0  0  0  0  0  0  0  0
   -5.2500   -2.9154   -0.0000 C   0  0  0  0  0  0  0  0  0  0  0  0
   -2.1213   -7.9520   -0.0000 C   0  0  0  0  0  0  0  0  0  0  0  0
    6.4114    6.8499   -0.0000 C   0  0  0  0  0  0  0  0  0  0  0  0
   -5.2619   -4.4086   -0.0000 N   0  0  0  0  0  0  0  0  0  0  0  0
   -6.5655   -2.1569   -0.0000 C   0  0  0  0  0  0  0  0  0  0  0  0
   -1.3273   -9.1845   -0.0000 C   0  0  0  0  0  0  0  0  0  0  0  0
   -3.6383   -8.0113   -0.0000 C   0  0  0  0  0  0  0  0  0  0  0  0
    7.7032    6.1151   -0.0000 C   0  0  0  0  0  0  0  0  0  0  0  0
   -6.5655   -5.1552   -0.0000 C   0  0  0  0  0  0  0  0  0  0  0  0
   -6.5773   -0.6518   -0.0000 C   0  0  0  0  0  0  0  0  0  0  0  0
   -7.8572   -2.9035   -0.0000 C   0  0  0  0  0  0  0  0  0  0  0  0
    0.1541   -9.0897   -0.0000 F   0  0  0  0  0  0  0  0  0  0  0  0
   -2.0147  -10.5000   -0.0000 C   0  0  0  0  0  0  0  0  0  0  0  0
   -4.3375   -9.3268   -0.0000 C   0  0  0  0  0  0  0  0  0  0  0  0
   -4.4560   -6.7314   -0.0000 C   0  0  0  0  0  0  0  0  0  0  0  0
    8.9949    6.8736   -0.0000 O   0  0  0  0  0  0  0  0  0  0  0  0
    7.6913    4.6219   -0.0000 O   0  0  0  0  0  0  0  0  0  0  0  0
   -7.8928    0.1067   -0.0000 C   0  0  0  0  0  0  0  0  0  0  0  0
   -9.1845   -2.1569   -0.0000 C   0  0  0  0  0  0  0  0  0  0  0  0
   -3.5316  -10.5711   -0.0000 C   0  0  0  0  0  0  0  0  0  0  0  0
   -5.2619   -5.4515   -0.0000 F   0  0  0  0  0  0  0  0  0  0  0  0
   -5.7359   -7.5254   -0.0000 F   0  0  0  0  0  0  0  0  0  0  0  0
   -3.1998   -5.9137   -0.0000 F   0  0  0  0  0  0  0  0  0  0  0  0
   -9.2082   -0.6400   -0.0000 C   0  0  0  0  0  0  0  0  0  0  0  0
  1  2  1  0  0  0  0
  2  3  2  0  0  0  0
  2  4  1  0  0  0  0
  3  5  1  0  0  0  0
  3  6  1  0  0  0  0
  4  7  1  0  0  0  0
  4  8  2  0  0  0  0
  5  9  1  0  0  0  0
  6 10  2  0  0  0  0
  7 11  1  0  0  0  0
  7 12  2  0  0  0  0
  9 13  1  0  0  0  0
 11 14  2  0  0  0  0
 11 15  1  0  0  0  0
 12 16  1  0  0  0  0
 12 17  1  0  0  0  0
 13 18  1  0  0  0  0
 15 19  1  0  0  0  0
 15 20  1  0  0  0  0
 16 21  1  0  0  0  0
 18 22  1  0  0  0  0
 19 23  2  0  0  0  0
 20 24  1  0  0  0  0
 21 25  1  0  0  0  0
 22 26  1  0  0  0  0
 24 27  1  6  0  0  0
 24 28  1  0  0  0  0
 25 29  2  0  0  0  0
 25 30  1  0  0  0  0
 26 31  1  0  0  0  0
 27 32  1  0  0  0  0
 28 33  2  0  0  0  0
 28 34  1  0  0  0  0
 29 35  1  0  0  0  0
 29 36  1  0  0  0  0
 30 37  2  0  0  0  0
 30 38  1  0  0  0  0
 31 39  2  0  0  0  0
 31 40  1  0  0  0  0
 33 41  1  0  0  0  0
 34 42  2  0  0  0  0
 36 43  2  0  0  0  0
 38 44  1  0  0  0  0
 38 45  1  0  0  0  0
 38 46  1  0  0  0  0
 41 47  2  0  0  0  0
  8 10  1  0  0  0  0
 16 19  1  0  0  0  0
 37 43  1  0  0  0  0
 42 47  1  0  0  0  0
M  END
>  <MolRegNo>
511285

>  <m>
=

>  <Value>
33000

>  <Unit>
nM

>  <Type>
IC50

>  <pValue>
4.48

>  <Ligand Efficiency>
0

>  <Binding Efficiency>
0

>  <Surface Efficiency>
0

>  <Assay Index>
358905

>  <Assay Category>


>  <Assay Organism>


>  <Target ID>
17045

>  <Target Name>
Cytochrome P450 3A4

>  <Target Organism>
Homo sapiens

>  <Target Description>
Target is a single protein chain

>  <Sequence Accession>
P08684

>  <Reference>
Bioorg Med Chem Lett 18 (16), 4503-4507 (2008)

>  <Pubmed ID>
18667310

>  <DOI>
10.1016/j.bmcl.2008.07.059

$$$$
486324
Actelion Java MolfileCreator 1.0

 44 47  0  0  0  0  0  0  0  0999 V2000
    0.0000   -0.0000   -0.0000 F   0  0  0  0  0  0  0  0  0  0  0  0
    1.2851   -0.7378   -0.0000 C   0  0  0  0  0  0  0  0  0  0  0  0
    2.5702    0.0238   -0.0000 C   0  0  0  0  0  0  0  0  0  0  0  0
    1.2732   -2.2252   -0.0000 C   0  0  0  0  0  0  0  0  0  0  0  0
    2.5583    1.5350   -0.0000 O   0  0  0  0  0  0  0  0  0  0  0  0
    3.8673   -0.7140   -0.0000 C   0  0  0  0  0  0  0  0  0  0  0  0
   -0.0357   -2.9629   -0.0000 C   0  0  0  0  0  0  0  0  0  0  0  0
    2.5583   -2.9748   -0.0000 C   0  0  0  0  0  0  0  0  0  0  0  0
    3.8435    2.2966   -0.0000 C   0  0  0  0  0  0  0  0  0  0  0  0
    3.8554   -2.2014   -0.0000 C   0  0  0  0  0  0  0  0  0  0  0  0
   -1.3446   -2.1895   -0.0000 C   0  0  0  0  0  0  0  0  0  0  0  0
   -0.0476   -4.4503   -0.0000 C   0  0  0  0  0  0  0  0  0  0  0  0
   -1.3565   -0.6783   -0.0000 O   0  0  0  0  0  0  0  0  0  0  0  0
   -2.6535   -2.9391   -0.0000 N   0  0  0  0  0  0  0  0  0  0  0  0
   -1.3684   -5.1881   -0.0000 N   0  0  0  0  0  0  0  0  0  0  0  0
   -2.6654   -4.4265   -0.0000 C   0  0  0  0  0  0  0  0  0  0  0  0
   -3.9625   -2.1776   -0.0000 C   0  0  0  0  0  0  0  0  0  0  0  0
   -1.3803   -6.6755   -0.0000 C   0  0  0  0  0  0  0  0  0  0  0  0
   -3.9744   -5.1643   -0.0000 O   0  0  0  0  0  0  0  0  0  0  0  0
   -5.2714   -2.9153   -0.0000 C   0  0  0  0  0  0  0  0  0  0  0  0
   -0.0952   -7.4133   -0.0000 C   0  0  0  0  0  0  0  0  0  0  0  0
   -5.2833   -4.4027   -0.0000 N   0  0  0  0  0  0  0  0  0  0  0  0
   -6.5803   -2.1538   -0.0000 C   0  0  0  0  0  0  0  0  0  0  0  0
    1.1780   -6.6517   -0.0000 C   0  0  0  0  0  0  0  0  0  0  0  0
   -0.1190   -8.9007   -0.0000 C   0  0  0  0  0  0  0  0  0  0  0  0
   -6.5922   -5.1405   -0.0000 C   0  0  0  0  0  0  0  0  0  0  0  0
   -7.9011   -2.8915   -0.0000 C   0  0  0  0  0  0  0  0  0  0  0  0
   -6.5922   -0.6307   -0.0000 C   0  0  0  0  0  0  0  0  0  0  0  0
    1.1661   -5.1405   -0.0000 F   0  0  0  0  0  0  0  0  0  0  0  0
    2.4632   -7.3895   -0.0000 C   0  0  0  0  0  0  0  0  0  0  0  0
    1.1661   -9.6384   -0.0000 C   0  0  0  0  0  0  0  0  0  0  0  0
   -1.4398   -9.6384   -0.0000 C   0  0  0  0  0  0  0  0  0  0  0  0
   -6.6041   -6.6279   -0.0000 C   0  0  0  0  0  0  0  0  0  0  0  0
   -9.2101   -2.1300   -0.0000 C   0  0  0  0  0  0  0  0  0  0  0  0
   -7.9011    0.1309   -0.0000 C   0  0  0  0  0  0  0  0  0  0  0  0
    2.4513   -8.8888   -0.0000 C   0  0  0  0  0  0  0  0  0  0  0  0
   -2.7606  -10.3643   -0.0000 F   0  0  0  0  0  0  0  0  0  0  0  0
   -0.7140  -10.9355   -0.0000 F   0  0  0  0  0  0  0  0  0  0  0  0
   -2.1895   -8.3176   -0.0000 F   0  0  0  0  0  0  0  0  0  0  0  0
   -7.9130   -7.3657   -0.0000 C   0  0  0  0  0  0  0  0  0  0  0  0
   -9.2220   -0.6069   -0.0000 C   0  0  0  0  0  0  0  0  0  0  0  0
   -7.9249   -8.8531   -0.0000 C   0  0  0  0  0  0  0  0  0  0  0  0
   -6.6398   -9.5908   -0.0000 O   0  0  0  0  0  0  0  0  0  0  0  0
   -9.2339   -9.6027   -0.0000 O   0  0  0  0  0  0  0  0  0  0  0  0
  1  2  1  0  0  0  0
  2  3  2  0  0  0  0
  2  4  1  0  0  0  0
  3  5  1  0  0  0  0
  3  6  1  0  0  0  0
  4  7  1  0  0  0  0
  4  8  2  0  0  0  0
  5  9  1  0  0  0  0
  6 10  2  0  0  0  0
  7 11  1  0  0  0  0
  7 12  2  0  0  0  0
 11 13  2  0  0  0  0
 11 14  1  0  0  0  0
 12 15  1  0  0  0  0
 14 16  1  0  0  0  0
 14 17  1  0  0  0  0
 15 18  1  0  0  0  0
 16 19  2  0  0  0  0
 17 20  1  0  0  0  0
 18 21  1  0  0  0  0
 20 22  1  6  0  0  0
 20 23  1  0  0  0  0
 21 24  2  0  0  0  0
 21 25  1  0  0  0  0
 22 26  1  0  0  0  0
 23 27  2  0  0  0  0
 23 28  1  0  0  0  0
 24 29  1  0  0  0  0
 24 30  1  0  0  0  0
 25 31  2  0  0  0  0
 25 32  1  0  0  0  0
 26 33  1  0  0  0  0
 27 34  1  0  0  0  0
 28 35  2  0  0  0  0
 30 36  2  0  0  0  0
 32 37  1  0  0  0  0
 32 38  1  0  0  0  0
 32 39  1  0  0  0  0
 33 40  1  0  0  0  0
 34 41  2  0  0  0  0
 40 42  1  0  0  0  0
 42 43  2  0  0  0  0
 42 44  1  0  0  0  0
  8 10  1  0  0  0  0
 15 16  1  0  0  0  0
 31 36  1  0  0  0  0
 35 41  1  0  0  0  0
M  END
>  <MolRegNo>
486324

>  <m>
=

>  <Value>
36000

>  <Unit>
nM

>  <Type>
IC50

>  <pValue>
4.44

>  <Ligand Efficiency>
0

>  <Binding Efficiency>
0

>  <Surface Efficiency>
0

>  <Assay Index>
358905

>  <Assay Category>


>  <Assay Organism>


>  <Target ID>
17045

>  <Target Name>
Cytochrome P450 3A4

>  <Target Organism>
Homo sapiens

>  <Target Description>
Target is a single protein chain

>  <Sequence Accession>
P08684

>  <Reference>
Bioorg Med Chem Lett 18 (16), 4503-4507 (2008)

>  <Pubmed ID>
18667310

>  <DOI>
10.1016/j.bmcl.2008.07.059

$$$$
486322
Actelion Java MolfileCreator 1.0

 45 48  0  0  0  0  0  0  0  0999 V2000
    0.0000   -0.0000   -0.0000 F   0  0  0  0  0  0  0  0  0  0  0  0
    1.2847   -0.7375   -0.0000 C   0  0  0  0  0  0  0  0  0  0  0  0
    2.5694    0.0238   -0.0000 C   0  0  0  0  0  0  0  0  0  0  0  0
    1.2728   -2.2244   -0.0000 C   0  0  0  0  0  0  0  0  0  0  0  0
    2.5575    1.5345   -0.0000 O   0  0  0  0  0  0  0  0  0  0  0  0
    3.8659   -0.7137   -0.0000 C   0  0  0  0  0  0  0  0  0  0  0  0
   -0.0357   -2.9619   -0.0000 C   0  0  0  0  0  0  0  0  0  0  0  0
    2.5575   -2.9738   -0.0000 C   0  0  0  0  0  0  0  0  0  0  0  0
    3.8422    2.2958   -0.0000 C   0  0  0  0  0  0  0  0  0  0  0  0
    3.8541   -2.2006   -0.0000 C   0  0  0  0  0  0  0  0  0  0  0  0
   -1.3442   -2.1887   -0.0000 C   0  0  0  0  0  0  0  0  0  0  0  0
   -0.0476   -4.4488   -0.0000 C   0  0  0  0  0  0  0  0  0  0  0  0
   -1.3561   -0.6780   -0.0000 O   0  0  0  0  0  0  0  0  0  0  0  0
   -2.6526   -2.9381   -0.0000 N   0  0  0  0  0  0  0  0  0  0  0  0
   -1.3680   -5.1863   -0.0000 N   0  0  0  0  0  0  0  0  0  0  0  0
   -2.6645   -4.4250   -0.0000 C   0  0  0  0  0  0  0  0  0  0  0  0
   -3.9611   -2.1768   -0.0000 C   0  0  0  0  0  0  0  0  0  0  0  0
   -1.3798   -6.6732   -0.0000 C   0  0  0  0  0  0  0  0  0  0  0  0
   -3.9730   -5.1625   -0.0000 O   0  0  0  0  0  0  0  0  0  0  0  0
   -5.2696   -2.9143   -0.0000 C   0  0  0  0  0  0  0  0  0  0  0  0
   -0.0952   -7.4107   -0.0000 C   0  0  0  0  0  0  0  0  0  0  0  0
   -5.2815   -4.4012   -0.0000 N   0  0  0  0  0  0  0  0  0  0  0  0
   -6.5781   -2.1530   -0.0000 C   0  0  0  0  0  0  0  0  0  0  0  0
    1.1776   -6.6494   -0.0000 C   0  0  0  0  0  0  0  0  0  0  0  0
   -0.1190   -8.8976   -0.0000 C   0  0  0  0  0  0  0  0  0  0  0  0
   -6.5900   -5.1387   -0.0000 C   0  0  0  0  0  0  0  0  0  0  0  0
   -7.8984   -2.8905   -0.0000 C   0  0  0  0  0  0  0  0  0  0  0  0
   -6.5900   -0.6304   -0.0000 C   0  0  0  0  0  0  0  0  0  0  0  0
    1.1657   -5.1387   -0.0000 F   0  0  0  0  0  0  0  0  0  0  0  0
    2.4623   -7.3869   -0.0000 C   0  0  0  0  0  0  0  0  0  0  0  0
    1.1657   -9.6351   -0.0000 C   0  0  0  0  0  0  0  0  0  0  0  0
   -1.4393   -9.6351   -0.0000 C   0  0  0  0  0  0  0  0  0  0  0  0
   -6.6019   -6.6256   -0.0000 C   0  0  0  0  0  0  0  0  0  0  0  0
   -9.2069   -2.1292   -0.0000 C   0  0  0  0  0  0  0  0  0  0  0  0
   -7.8984    0.1308   -0.0000 C   0  0  0  0  0  0  0  0  0  0  0  0
    2.4504   -8.8857   -0.0000 C   0  0  0  0  0  0  0  0  0  0  0  0
   -2.7597  -10.3607   -0.0000 F   0  0  0  0  0  0  0  0  0  0  0  0
   -0.7137  -10.9317   -0.0000 F   0  0  0  0  0  0  0  0  0  0  0  0
   -2.1887   -8.3148   -0.0000 F   0  0  0  0  0  0  0  0  0  0  0  0
   -7.9103   -7.3631   -0.0000 C   0  0  0  0  0  0  0  0  0  0  0  0
   -9.2188   -0.6067   -0.0000 C   0  0  0  0  0  0  0  0  0  0  0  0
   -7.9222   -8.8500   -0.0000 C   0  0  0  0  0  0  0  0  0  0  0  0
   -6.6375   -9.5876   -0.0000 O   0  0  0  0  0  0  0  0  0  0  0  0
   -9.2307   -9.5994   -0.0000 O   0  0  0  0  0  0  0  0  0  0  0  0
  -10.5511   -8.8382   -0.0000 C   0  0  0  0  0  0  0  0  0  0  0  0
  1  2  1  0  0  0  0
  2  3  2  0  0  0  0
  2  4  1  0  0  0  0
  3  5  1  0  0  0  0
  3  6  1  0  0  0  0
  4  7  1  0  0  0  0
  4  8  2  0  0  0  0
  5  9  1  0  0  0  0
  6 10  2  0  0  0  0
  7 11  1  0  0  0  0
  7 12  2  0  0  0  0
 11 13  2  0  0  0  0
 11 14  1  0  0  0  0
 12 15  1  0  0  0  0
 14 16  1  0  0  0  0
 14 17  1  0  0  0  0
 15 18  1  0  0  0  0
 16 19  2  0  0  0  0
 17 20  1  0  0  0  0
 18 21  1  0  0  0  0
 20 22  1  6  0  0  0
 20 23  1  0  0  0  0
 21 24  2  0  0  0  0
 21 25  1  0  0  0  0
 22 26  1  0  0  0  0
 23 27  2  0  0  0  0
 23 28  1  0  0  0  0
 24 29  1  0  0  0  0
 24 30  1  0  0  0  0
 25 31  2  0  0  0  0
 25 32  1  0  0  0  0
 26 33  1  0  0  0  0
 27 34  1  0  0  0  0
 28 35  2  0  0  0  0
 30 36  2  0  0  0  0
 32 37  1  0  0  0  0
 32 38  1  0  0  0  0
 32 39  1  0  0  0  0
 33 40  1  0  0  0  0
 34 41  2  0  0  0  0
 40 42  1  0  0  0  0
 42 43  2  0  0  0  0
 42 44  1  0  0  0  0
 44 45  1  0  0  0  0
  8 10  1  0  0  0  0
 15 16  1  0  0  0  0
 31 36  1  0  0  0  0
 35 41  1  0  0  0  0
M  END
>  <MolRegNo>
486322

>  <m>
=

>  <Value>
510

>  <Unit>
nM

>  <Type>
IC50

>  <pValue>
6.29

>  <Ligand Efficiency>
0

>  <Binding Efficiency>
0

>  <Surface Efficiency>
0

>  <Assay Index>
358905

>  <Assay Category>


>  <Assay Organism>


>  <Target ID>
17045

>  <Target Name>
Cytochrome P450 3A4

>  <Target Organism>
Homo sapiens

>  <Target Description>
Target is a single protein chain

>  <Sequence Accession>
P08684

>  <Reference>
Bioorg Med Chem Lett 18 (16), 4503-4507 (2008)

>  <Pubmed ID>
18667310

>  <DOI>
10.1016/j.bmcl.2008.07.059

$$$$
486320
Actelion Java MolfileCreator 1.0

 41 44  0  0  0  0  0  0  0  0999 V2000
    0.0000   -0.0000   -0.0000 F   0  0  0  0  0  0  0  0  0  0  0  0
   -0.0119   -1.4853   -0.0000 C   0  0  0  0  0  0  0  0  0  0  0  0
   -1.3071   -2.2221   -0.0000 C   0  0  0  0  0  0  0  0  0  0  0  0
    1.2714   -2.2221   -0.0000 C   0  0  0  0  0  0  0  0  0  0  0  0
   -1.3309   -3.7074   -0.0000 C   0  0  0  0  0  0  0  0  0  0  0  0
   -2.6142   -1.4616   -0.0000 C   0  0  0  0  0  0  0  0  0  0  0  0
    1.2596   -3.7193   -0.0000 C   0  0  0  0  0  0  0  0  0  0  0  0
   -0.0475   -4.4441   -0.0000 C   0  0  0  0  0  0  0  0  0  0  0  0
   -2.6498   -4.4441   -0.0000 C   0  0  0  0  0  0  0  0  0  0  0  0
   -2.6261    0.0475   -0.0000 N   0  0  0  0  0  0  0  0  0  0  0  0
   -3.9688   -5.1690   -0.0000 F   0  0  0  0  0  0  0  0  0  0  0  0
   -1.9250   -5.7393   -0.0000 F   0  0  0  0  0  0  0  0  0  0  0  0
   -3.3984   -3.1251   -0.0000 F   0  0  0  0  0  0  0  0  0  0  0  0
   -3.9332    0.8080   -0.0000 C   0  0  0  0  0  0  0  0  0  0  0  0
   -1.3309    0.8080   -0.0000 C   0  0  0  0  0  0  0  0  0  0  0  0
   -5.2403    0.0713   -0.0000 O   0  0  0  0  0  0  0  0  0  0  0  0
   -3.9450    2.3171   -0.0000 N   0  0  0  0  0  0  0  0  0  0  0  0
   -1.3427    2.3171   -0.0000 C   0  0  0  0  0  0  0  0  0  0  0  0
   -2.6736    3.0895   -0.0000 C   0  0  0  0  0  0  0  0  0  0  0  0
   -5.2521    3.0776   -0.0000 C   0  0  0  0  0  0  0  0  0  0  0  0
   -0.0594    3.0776   -0.0000 C   0  0  0  0  0  0  0  0  0  0  0  0
   -2.6855    4.5986   -0.0000 O   0  0  0  0  0  0  0  0  0  0  0  0
   -6.5592    2.3409   -0.0000 C   0  0  0  0  0  0  0  0  0  0  0  0
    1.2239    2.3290   -0.0000 C   0  0  0  0  0  0  0  0  0  0  0  0
   -0.0713    4.5867   -0.0000 C   0  0  0  0  0  0  0  0  0  0  0  0
   -6.5711    0.8556   -0.0000 N   0  0  0  0  0  0  0  0  0  0  0  0
   -7.8663    3.1014   -0.0000 C   0  0  0  0  0  0  0  0  0  0  0  0
    2.5072    3.0895   -0.0000 C   0  0  0  0  0  0  0  0  0  0  0  0
    1.2120    5.3472   -0.0000 C   0  0  0  0  0  0  0  0  0  0  0  0
   -9.1853    2.3646   -0.0000 C   0  0  0  0  0  0  0  0  0  0  0  0
   -7.8782    4.6224   -0.0000 C   0  0  0  0  0  0  0  0  0  0  0  0
    2.4954    4.5986   -0.0000 C   0  0  0  0  0  0  0  0  0  0  0  0
  -10.4924    3.1251   -0.0000 C   0  0  0  0  0  0  0  0  0  0  0  0
   -9.1853    5.3828   -0.0000 C   0  0  0  0  0  0  0  0  0  0  0  0
    3.7787    5.3591   -0.0000 C   0  0  0  0  0  0  0  0  0  0  0  0
  -10.5043    4.6342   -0.0000 C   0  0  0  0  0  0  0  0  0  0  0  0
    5.0620    4.6224   -0.0000 N   0  0  0  0  0  0  0  0  0  0  0  0
    5.0501    3.1370   -0.0000 C   0  0  0  0  0  0  0  0  0  0  0  0
    6.3335    2.4003   -0.0000 C   0  0  0  0  0  0  0  0  0  0  0  0
    7.6287    3.1608   -0.0000 O   0  0  0  0  0  0  0  0  0  0  0  0
    6.3335    0.9150   -0.0000 O   0  0  0  0  0  0  0  0  0  0  0  0
  1  2  1  0  0  0  0
  2  3  2  0  0  0  0
  2  4  1  0  0  0  0
  3  5  1  0  0  0  0
  3  6  1  0  0  0  0
  4  7  2  0  0  0  0
  5  8  2  0  0  0  0
  5  9  1  0  0  0  0
  6 10  1  0  0  0  0
  9 11  1  0  0  0  0
  9 12  1  0  0  0  0
  9 13  1  0  0  0  0
 10 14  1  0  0  0  0
 10 15  1  0  0  0  0
 14 16  2  0  0  0  0
 14 17  1  0  0  0  0
 15 18  2  0  0  0  0
 17 19  1  0  0  0  0
 17 20  1  0  0  0  0
 18 21  1  0  0  0  0
 19 22  2  0  0  0  0
 20 23  1  0  0  0  0
 21 24  2  0  0  0  0
 21 25  1  0  0  0  0
 23 26  1  6  0  0  0
 23 27  1  0  0  0  0
 24 28  1  0  0  0  0
 25 29  2  0  0  0  0
 27 30  2  0  0  0  0
 27 31  1  0  0  0  0
 28 32  2  0  0  0  0
 30 33  1  0  0  0  0
 31 34  2  0  0  0  0
 32 35  1  0  0  0  0
 33 36  2  0  0  0  0
 35 37  1  0  0  0  0
 37 38  1  0  0  0  0
 38 39  1  0  0  0  0
 39 40  2  0  0  0  0
 39 41  1  0  0  0  0
  7  8  1  0  0  0  0
 18 19  1  0  0  0  0
 29 32  1  0  0  0  0
 34 36  1  0  0  0  0
M  END
>  <MolRegNo>
486320

>  <m>
=

>  <Value>
36000

>  <Unit>
nM

>  <Type>
IC50

>  <pValue>
4.44

>  <Ligand Efficiency>
0

>  <Binding Efficiency>
0

>  <Surface Efficiency>
0

>  <Assay Index>
358905

>  <Assay Category>


>  <Assay Organism>


>  <Target ID>
17045

>  <Target Name>
Cytochrome P450 3A4

>  <Target Organism>
Homo sapiens

>  <Target Description>
Target is a single protein chain

>  <Sequence Accession>
P08684

>  <Reference>
Bioorg Med Chem Lett 18 (16), 4503-4507 (2008)

>  <Pubmed ID>
18667310

>  <DOI>
10.1016/j.bmcl.2008.07.059

$$$$
486256
Actelion Java MolfileCreator 1.0

 43 46  0  0  0  0  0  0  0  0999 V2000
    0.0000   -0.0000   -0.0000 F   0  0  0  0  0  0  0  0  0  0  0  0
   -0.0119   -1.4854   -0.0000 C   0  0  0  0  0  0  0  0  0  0  0  0
   -1.3071   -2.2221   -0.0000 C   0  0  0  0  0  0  0  0  0  0  0  0
    1.2715   -2.2221   -0.0000 C   0  0  0  0  0  0  0  0  0  0  0  0
   -1.3309   -3.7075   -0.0000 C   0  0  0  0  0  0  0  0  0  0  0  0
   -2.6143   -1.4616   -0.0000 C   0  0  0  0  0  0  0  0  0  0  0  0
    1.2596   -3.7194   -0.0000 C   0  0  0  0  0  0  0  0  0  0  0  0
   -0.0475   -4.4443   -0.0000 C   0  0  0  0  0  0  0  0  0  0  0  0
   -2.6499   -4.4443   -0.0000 C   0  0  0  0  0  0  0  0  0  0  0  0
   -2.6262    0.0475   -0.0000 N   0  0  0  0  0  0  0  0  0  0  0  0
   -3.9689   -5.1691   -0.0000 F   0  0  0  0  0  0  0  0  0  0  0  0
   -1.9251   -5.7395   -0.0000 F   0  0  0  0  0  0  0  0  0  0  0  0
   -3.3986   -3.1252   -0.0000 F   0  0  0  0  0  0  0  0  0  0  0  0
   -3.9333    0.8080   -0.0000 C   0  0  0  0  0  0  0  0  0  0  0  0
   -1.3309    0.8080   -0.0000 C   0  0  0  0  0  0  0  0  0  0  0  0
   -5.2404    0.0713   -0.0000 O   0  0  0  0  0  0  0  0  0  0  0  0
   -3.9452    2.3172   -0.0000 N   0  0  0  0  0  0  0  0  0  0  0  0
   -1.3428    2.3172   -0.0000 C   0  0  0  0  0  0  0  0  0  0  0  0
   -2.6618    3.0896   -0.0000 C   0  0  0  0  0  0  0  0  0  0  0  0
   -5.2523    3.0777   -0.0000 C   0  0  0  0  0  0  0  0  0  0  0  0
   -0.0594    3.0777   -0.0000 C   0  0  0  0  0  0  0  0  0  0  0  0
   -2.6737    4.5988   -0.0000 O   0  0  0  0  0  0  0  0  0  0  0  0
   -6.5595    2.3410   -0.0000 C   0  0  0  0  0  0  0  0  0  0  0  0
    1.2240    2.3291   -0.0000 C   0  0  0  0  0  0  0  0  0  0  0  0
   -0.0713    4.5869   -0.0000 C   0  0  0  0  0  0  0  0  0  0  0  0
   -6.5713    0.8556   -0.0000 N   0  0  0  0  0  0  0  0  0  0  0  0
   -7.8666    3.1015   -0.0000 C   0  0  0  0  0  0  0  0  0  0  0  0
    2.5073    3.0896   -0.0000 C   0  0  0  0  0  0  0  0  0  0  0  0
    1.2121    5.3474   -0.0000 C   0  0  0  0  0  0  0  0  0  0  0  0
   -9.1856    2.3647   -0.0000 C   0  0  0  0  0  0  0  0  0  0  0  0
   -7.8785    4.6225   -0.0000 C   0  0  0  0  0  0  0  0  0  0  0  0
    2.4954    4.5988   -0.0000 C   0  0  0  0  0  0  0  0  0  0  0  0
  -10.4928    3.1252   -0.0000 C   0  0  0  0  0  0  0  0  0  0  0  0
   -9.1856    5.3830   -0.0000 C   0  0  0  0  0  0  0  0  0  0  0  0
    3.7788    5.3593   -0.0000 C   0  0  0  0  0  0  0  0  0  0  0  0
  -10.5046    4.6463   -0.0000 C   0  0  0  0  0  0  0  0  0  0  0  0
    5.0622    4.6225   -0.0000 N   0  0  0  0  0  0  0  0  0  0  0  0
    5.0503    3.1371   -0.0000 C   0  0  0  0  0  0  0  0  0  0  0  0
    6.3337    2.4004   -0.0000 C   0  0  0  0  0  0  0  0  0  0  0  0
    7.6289    3.1609   -0.0000 O   0  0  0  0  0  0  0  0  0  0  0  0
    6.3337    0.9150   -0.0000 O   0  0  0  0  0  0  0  0  0  0  0  0
    5.0265    0.1664   -0.0000 C   0  0  0  0  0  0  0  0  0  0  0  0
    5.0265   -1.3190   -0.0000 C   0  0  0  0  0  0  0  0  0  0  0  0
  1  2  1  0  0  0  0
  2  3  2  0  0  0  0
  2  4  1  0  0  0  0
  3  5  1  0  0  0  0
  3  6  1  0  0  0  0
  4  7  2  0  0  0  0
  5  8  2  0  0  0  0
  5  9  1  0  0  0  0
  6 10  1  0  0  0  0
  9 11  1  0  0  0  0
  9 12  1  0  0  0  0
  9 13  1  0  0  0  0
 10 14  1  0  0  0  0
 10 15  1  0  0  0  0
 14 16  2  0  0  0  0
 14 17  1  0  0  0  0
 15 18  2  0  0  0  0
 17 19  1  0  0  0  0
 17 20  1  0  0  0  0
 18 21  1  0  0  0  0
 19 22  2  0  0  0  0
 20 23  1  0  0  0  0
 21 24  2  0  0  0  0
 21 25  1  0  0  0  0
 23 26  1  6  0  0  0
 23 27  1  0  0  0  0
 24 28  1  0  0  0  0
 25 29  2  0  0  0  0
 27 30  2  0  0  0  0
 27 31  1  0  0  0  0
 28 32  2  0  0  0  0
 30 33  1  0  0  0  0
 31 34  2  0  0  0  0
 32 35  1  0  0  0  0
 33 36  2  0  0  0  0
 35 37  1  0  0  0  0
 37 38  1  0  0  0  0
 38 39  1  0  0  0  0
 39 40  2  0  0  0  0
 39 41  1  0  0  0  0
 41 42  1  0  0  0  0
 42 43  1  0  0  0  0
  7  8  1  0  0  0  0
 18 19  1  0  0  0  0
 29 32  1  0  0  0  0
 34 36  1  0  0  0  0
M  END
>  <MolRegNo>
486256

>  <m>
=

>  <Value>
350

>  <Unit>
nM

>  <Type>
IC50

>  <pValue>
6.46

>  <Ligand Efficiency>
0

>  <Binding Efficiency>
0

>  <Surface Efficiency>
0

>  <Assay Index>
358905

>  <Assay Category>


>  <Assay Organism>


>  <Target ID>
17045

>  <Target Name>
Cytochrome P450 3A4

>  <Target Organism>
Homo sapiens

>  <Target Description>
Target is a single protein chain

>  <Sequence Accession>
P08684

>  <Reference>
Bioorg Med Chem Lett 18 (16), 4503-4507 (2008)

>  <Pubmed ID>
18667310

>  <DOI>
10.1016/j.bmcl.2008.07.059

$$$$
321458
Actelion Java MolfileCreator 1.0

 38 41  0  0  0  0  0  0  0  0999 V2000
    0.0000   -0.0000   -0.0000 F   0  0  0  0  0  0  0  0  0  0  0  0
    1.2841   -0.7372   -0.0000 C   0  0  0  0  0  0  0  0  0  0  0  0
    2.5683    0.0238   -0.0000 C   0  0  0  0  0  0  0  0  0  0  0  0
    1.2722   -2.2235   -0.0000 C   0  0  0  0  0  0  0  0  0  0  0  0
    2.5564    1.5338   -0.0000 O   0  0  0  0  0  0  0  0  0  0  0  0
    3.8643   -0.7134   -0.0000 C   0  0  0  0  0  0  0  0  0  0  0  0
   -0.0357   -2.9606   -0.0000 C   0  0  0  0  0  0  0  0  0  0  0  0
    2.5564   -2.9725   -0.0000 C   0  0  0  0  0  0  0  0  0  0  0  0
    3.8405    2.2948   -0.0000 C   0  0  0  0  0  0  0  0  0  0  0  0
    3.8524   -2.1997   -0.0000 C   0  0  0  0  0  0  0  0  0  0  0  0
   -1.3436   -2.1878   -0.0000 C   0  0  0  0  0  0  0  0  0  0  0  0
   -0.0476   -4.4469   -0.0000 C   0  0  0  0  0  0  0  0  0  0  0  0
   -1.3555   -0.6777   -0.0000 O   0  0  0  0  0  0  0  0  0  0  0  0
   -2.6515   -2.9369   -0.0000 N   0  0  0  0  0  0  0  0  0  0  0  0
   -1.3555   -5.1841   -0.0000 N   0  0  0  0  0  0  0  0  0  0  0  0
   -2.6634   -4.4231   -0.0000 C   0  0  0  0  0  0  0  0  0  0  0  0
   -3.9713   -2.1759   -0.0000 C   0  0  0  0  0  0  0  0  0  0  0  0
   -1.3674   -6.6704   -0.0000 C   0  0  0  0  0  0  0  0  0  0  0  0
   -3.9713   -5.1603   -0.0000 O   0  0  0  0  0  0  0  0  0  0  0  0
   -5.2792   -2.9131   -0.0000 C   0  0  0  0  0  0  0  0  0  0  0  0
   -0.0832   -7.4075   -0.0000 C   0  0  0  0  0  0  0  0  0  0  0  0
   -5.2911   -4.3993   -0.0000 N   0  0  0  0  0  0  0  0  0  0  0  0
   -6.5990   -2.1521   -0.0000 C   0  0  0  0  0  0  0  0  0  0  0  0
    1.1890   -6.6466   -0.0000 C   0  0  0  0  0  0  0  0  0  0  0  0
   -0.1070   -8.9057   -0.0000 C   0  0  0  0  0  0  0  0  0  0  0  0
   -6.6109   -0.6421   -0.0000 C   0  0  0  0  0  0  0  0  0  0  0  0
   -7.8950   -2.9012   -0.0000 C   0  0  0  0  0  0  0  0  0  0  0  0
    1.1771   -5.1365   -0.0000 F   0  0  0  0  0  0  0  0  0  0  0  0
    2.4731   -7.3838   -0.0000 C   0  0  0  0  0  0  0  0  0  0  0  0
    1.1771   -9.6429   -0.0000 C   0  0  0  0  0  0  0  0  0  0  0  0
   -1.4268   -9.6429   -0.0000 C   0  0  0  0  0  0  0  0  0  0  0  0
   -7.9188    0.1189   -0.0000 C   0  0  0  0  0  0  0  0  0  0  0  0
   -9.2148   -2.1521   -0.0000 C   0  0  0  0  0  0  0  0  0  0  0  0
    2.4613   -8.8819   -0.0000 C   0  0  0  0  0  0  0  0  0  0  0  0
   -2.7466  -10.3682   -0.0000 F   0  0  0  0  0  0  0  0  0  0  0  0
   -0.7015  -10.9389   -0.0000 F   0  0  0  0  0  0  0  0  0  0  0  0
   -2.1759   -8.3231   -0.0000 F   0  0  0  0  0  0  0  0  0  0  0  0
   -9.2267   -0.6183   -0.0000 C   0  0  0  0  0  0  0  0  0  0  0  0
  1  2  1  0  0  0  0
  2  3  2  0  0  0  0
  2  4  1  0  0  0  0
  3  5  1  0  0  0  0
  3  6  1  0  0  0  0
  4  7  1  0  0  0  0
  4  8  2  0  0  0  0
  5  9  1  0  0  0  0
  6 10  2  0  0  0  0
  7 11  1  0  0  0  0
  7 12  2  0  0  0  0
 11 13  2  0  0  0  0
 11 14  1  0  0  0  0
 12 15  1  0  0  0  0
 14 16  1  0  0  0  0
 14 17  1  0  0  0  0
 15 18  1  0  0  0  0
 16 19  2  0  0  0  0
 17 20  1  0  0  0  0
 18 21  1  0  0  0  0
 20 22  1  6  0  0  0
 20 23  1  0  0  0  0
 21 24  2  0  0  0  0
 21 25  1  0  0  0  0
 23 26  2  0  0  0  0
 23 27  1  0  0  0  0
 24 28  1  0  0  0  0
 24 29  1  0  0  0  0
 25 30  2  0  0  0  0
 25 31  1  0  0  0  0
 26 32  1  0  0  0  0
 27 33  2  0  0  0  0
 29 34  2  0  0  0  0
 31 35  1  0  0  0  0
 31 36  1  0  0  0  0
 31 37  1  0  0  0  0
 32 38  2  0  0  0  0
  8 10  1  0  0  0  0
 15 16  1  0  0  0  0
 30 34  1  0  0  0  0
 33 38  1  0  0  0  0
M  END
>  <MolRegNo>
321458

>  <m>
=

>  <Value>
100

>  <Unit>
nM

>  <Type>
IC50

>  <pValue>
7

>  <Ligand Efficiency>
0

>  <Binding Efficiency>
0

>  <Surface Efficiency>
0

>  <Assay Index>
358905

>  <Assay Category>


>  <Assay Organism>


>  <Target ID>
17045

>  <Target Name>
Cytochrome P450 3A4

>  <Target Organism>
Homo sapiens

>  <Target Description>
Target is a single protein chain

>  <Sequence Accession>
P08684

>  <Reference>
Bioorg Med Chem Lett 18 (16), 4503-4507 (2008)

>  <Pubmed ID>
18667310

>  <DOI>
10.1016/j.bmcl.2008.07.059

$$$$
512401
Actelion Java MolfileCreator 1.0

 45 51  0  0  0  0  0  0  0  0999 V2000
    0.0000   -0.0000   -0.0000 S   0  0  0  0  0  0  0  0  0  0  0  0
   -1.3027   -0.7343   -0.0000 C   0  0  0  0  0  0  0  0  0  0  0  0
   -0.3198    1.4685   -0.0000 C   0  0  0  0  0  0  0  0  0  0  0  0
   -2.4160    0.2842   -0.0000 C   0  0  0  0  0  0  0  0  0  0  0  0
   -1.6343   -2.1673   -0.0000 C   0  0  0  0  0  0  0  0  0  0  0  0
   -1.8238    1.6462   -0.0000 C   0  0  0  0  0  0  0  0  0  0  0  0
   -3.8490   -0.1540   -0.0000 C   0  0  0  0  0  0  0  0  0  0  0  0
   -3.0674   -2.6055   -0.0000 C   0  0  0  0  0  0  0  0  0  0  0  0
   -2.5818    2.9489   -0.0000 C   0  0  0  0  0  0  0  0  0  0  0  0
   -4.1806   -1.5988   -0.0000 C   0  0  0  0  0  0  0  0  0  0  0  0
   -2.5818    4.4649   -0.0000 C   0  0  0  0  0  0  0  0  0  0  0  0
   -1.2909    5.2228   -0.0000 N   0  0  0  0  0  0  0  0  0  0  0  0
   -3.8964    5.2347   -0.0000 C   0  0  0  0  0  0  0  0  0  0  0  0
   -0.0118    4.4767   -0.0000 C   0  0  0  0  0  0  0  0  0  0  0  0
   -3.8964    6.7506   -0.0000 O   0  0  0  0  0  0  0  0  0  0  0  0
   -5.2110    4.5004   -0.0000 N   0  0  0  0  0  0  0  0  0  0  0  0
   -0.0355    2.9845   -0.0000 O   0  0  0  0  0  0  0  0  0  0  0  0
    1.2791    5.2347   -0.0000 N   0  0  0  0  0  0  0  0  0  0  0  0
   -6.5137    5.2702   -0.0000 C   0  0  0  0  0  0  0  0  0  0  0  0
   -5.2110    3.0200   -0.0000 C   0  0  0  0  0  0  0  0  0  0  0  0
    1.2791    6.7506   -0.0000 C   0  0  0  0  0  0  0  0  0  0  0  0
    2.5700    4.4885   -0.0000 C   0  0  0  0  0  0  0  0  0  0  0  0
   -7.8165    4.5478   -0.0000 C   0  0  0  0  0  0  0  0  0  0  0  0
   -6.5374    2.2857   -0.0000 C   0  0  0  0  0  0  0  0  0  0  0  0
    2.5581    7.5085   -0.0000 C   0  0  0  0  0  0  0  0  0  0  0  0
    3.8609    5.2465   -0.0000 C   0  0  0  0  0  0  0  0  0  0  0  0
   -7.8401    3.0555   -0.0000 C   0  0  0  0  0  0  0  0  0  0  0  0
    3.8490    6.7624   -0.0000 C   0  0  0  0  0  0  0  0  0  0  0  0
   -9.1547    2.3212   -0.0000 N   0  0  0  0  0  0  0  0  0  0  0  0
    5.1399    7.5204   -0.0000 N   0  0  0  0  0  0  0  0  0  0  0  0
  -10.4693    3.1029   -0.0000 C   0  0  0  0  0  0  0  0  0  0  0  0
   -9.1784    0.8409   -0.0000 C   0  0  0  0  0  0  0  0  0  0  0  0
    5.1281    9.0363   -0.0000 C   0  0  0  0  0  0  0  0  0  0  0  0
    6.4308    6.7743   -0.0000 C   0  0  0  0  0  0  0  0  0  0  0  0
  -11.7720    2.3805   -0.0000 C   0  0  0  0  0  0  0  0  0  0  0  0
  -10.5167    0.1184   -0.0000 C   0  0  0  0  0  0  0  0  0  0  0  0
    3.8135    9.7942   -0.0000 O   0  0  0  0  0  0  0  0  0  0  0  0
    6.4190    9.7942   -0.0000 N   0  0  0  0  0  0  0  0  0  0  0  0
    7.7099    7.5441   -0.0000 C   0  0  0  0  0  0  0  0  0  0  0  0
  -11.8076    0.8882   -0.0000 C   0  0  0  0  0  0  0  0  0  0  0  0
    7.6980    9.0600   -0.0000 C   0  0  0  0  0  0  0  0  0  0  0  0
    9.0008    6.8098   -0.0000 C   0  0  0  0  0  0  0  0  0  0  0  0
    8.9889    9.8179   -0.0000 C   0  0  0  0  0  0  0  0  0  0  0  0
   10.2917    7.5677   -0.0000 C   0  0  0  0  0  0  0  0  0  0  0  0
   10.2798    9.0837   -0.0000 C   0  0  0  0  0  0  0  0  0  0  0  0
  1  2  1  0  0  0  0
  1  3  1  0  0  0  0
  2  4  2  0  0  0  0
  2  5  1  0  0  0  0
  3  6  2  0  0  0  0
  4  7  1  0  0  0  0
  5  8  2  0  0  0  0
  6  9  1  0  0  0  0
  7 10  2  0  0  0  0
  9 11  1  0  0  0  0
 11 12  1  1  0  0  0
 11 13  1  0  0  0  0
 12 14  1  0  0  0  0
 13 15  2  0  0  0  0
 13 16  1  0  0  0  0
 14 17  2  0  0  0  0
 14 18  1  0  0  0  0
 16 19  1  0  0  0  0
 16 20  1  0  0  0  0
 18 21  1  0  0  0  0
 18 22  1  0  0  0  0
 19 23  1  0  0  0  0
 20 24  1  0  0  0  0
 21 25  1  0  0  0  0
 22 26  1  0  0  0  0
 23 27  1  0  0  0  0
 25 28  1  0  0  0  0
 27 29  1  0  0  0  0
 28 30  1  0  0  0  0
 29 31  1  0  0  0  0
 29 32  1  0  0  0  0
 30 33  1  0  0  0  0
 30 34  1  0  0  0  0
 31 35  1  0  0  0  0
 32 36  1  0  0  0  0
 33 37  2  0  0  0  0
 33 38  1  0  0  0  0
 34 39  1  0  0  0  0
 35 40  1  0  0  0  0
 38 41  1  0  0  0  0
 39 42  1  0  0  0  0
 41 43  1  0  0  0  0
 42 44  2  0  0  0  0
 43 45  2  0  0  0  0
  4  6  1  0  0  0  0
  8 10  1  0  0  0  0
 24 27  1  0  0  0  0
 26 28  1  0  0  0  0
 36 40  1  0  0  0  0
 39 41  2  0  0  0  0
 44 45  1  0  0  0  0
M  END
>  <MolRegNo>
512401

>  <m>
=

>  <Value>
870

>  <Unit>
nM

>  <Type>
IC50

>  <pValue>
6.06

>  <Ligand Efficiency>
0

>  <Binding Efficiency>
0

>  <Surface Efficiency>
0

>  <Assay Index>
358669

>  <Assay Category>


>  <Assay Organism>


>  <Target ID>
17045

>  <Target Name>
Cytochrome P450 3A4

>  <Target Organism>
Homo sapiens

>  <Target Description>
Target is a single protein chain

>  <Sequence Accession>
P08684

>  <Reference>
J Med Chem 51 (16), 4858-4861 (2008)

>  <Pubmed ID>
18665579

>  <DOI>
10.1021/jm800546t

$$$$
501085
Actelion Java MolfileCreator 1.0

 47 53  0  0  0  0  0  0  0  0999 V2000
    0.0000   -0.0000   -0.0000 F   0  0  0  0  0  0  0  0  0  0  0  0
   -0.0238   -1.4865   -0.0000 C   0  0  0  0  0  0  0  0  0  0  0  0
   -1.3319   -2.2119   -0.0000 C   0  0  0  0  0  0  0  0  0  0  0  0
    1.2486   -2.2238   -0.0000 C   0  0  0  0  0  0  0  0  0  0  0  0
   -2.6400   -1.4389   -0.0000 N   0  0  0  0  0  0  0  0  0  0  0  0
   -1.3557   -3.6984   -0.0000 C   0  0  0  0  0  0  0  0  0  0  0  0
    1.2249   -3.7221   -0.0000 C   0  0  0  0  0  0  0  0  0  0  0  0
   -3.9600   -2.1643   -0.0000 C   0  0  0  0  0  0  0  0  0  0  0  0
   -0.0832   -4.4475   -0.0000 C   0  0  0  0  0  0  0  0  0  0  0  0
   -2.6638   -4.4238   -0.0000 C   0  0  0  0  0  0  0  0  0  0  0  0
   -5.2681   -1.3913   -0.0000 O   0  0  0  0  0  0  0  0  0  0  0  0
   -3.9719   -3.6508   -0.0000 N   0  0  0  0  0  0  0  0  0  0  0  0
   -5.2800   -4.3881   -0.0000 C   0  0  0  0  0  0  0  0  0  0  0  0
   -5.3038   -5.8746   -0.0000 C   0  0  0  0  0  0  0  0  0  0  0  0
   -6.5881   -3.6270   -0.0000 C   0  0  0  0  0  0  0  0  0  0  0  0
   -6.6119   -6.6119   -0.0000 C   0  0  0  0  0  0  0  0  0  0  0  0
   -7.9081   -4.3643   -0.0000 C   0  0  0  0  0  0  0  0  0  0  0  0
   -7.9200   -5.8508   -0.0000 N   0  0  0  0  0  0  0  0  0  0  0  0
   -9.2281   -6.5881   -0.0000 C   0  0  0  0  0  0  0  0  0  0  0  0
  -10.5362   -5.8270   -0.0000 O   0  0  0  0  0  0  0  0  0  0  0  0
   -9.2399   -8.0745   -0.0000 N   0  0  0  0  0  0  0  0  0  0  0  0
  -10.5480   -8.8118   -0.0000 C   0  0  0  0  0  0  0  0  0  0  0  0
  -11.8680   -8.0508   -0.0000 C   0  0  0  0  0  0  0  0  0  0  0  0
  -10.5599  -10.2983   -0.0000 C   0  0  0  0  0  0  0  0  0  0  0  0
  -11.8799   -6.5405   -0.0000 O   0  0  0  0  0  0  0  0  0  0  0  0
  -13.1761   -8.7881   -0.0000 N   0  0  0  0  0  0  0  0  0  0  0  0
   -9.2756  -11.0356   -0.0000 C   0  0  0  0  0  0  0  0  0  0  0  0
  -14.4961   -8.0151   -0.0000 C   0  0  0  0  0  0  0  0  0  0  0  0
  -13.1880  -10.2864   -0.0000 C   0  0  0  0  0  0  0  0  0  0  0  0
   -9.2994  -12.5221   -0.0000 C   0  0  0  0  0  0  0  0  0  0  0  0
   -7.9913  -10.2745   -0.0000 C   0  0  0  0  0  0  0  0  0  0  0  0
  -15.8161   -8.7643   -0.0000 C   0  0  0  0  0  0  0  0  0  0  0  0
  -14.5080  -11.0237   -0.0000 C   0  0  0  0  0  0  0  0  0  0  0  0
   -8.0151  -13.2594   -0.0000 C   0  0  0  0  0  0  0  0  0  0  0  0
   -6.7070  -11.0118   -0.0000 C   0  0  0  0  0  0  0  0  0  0  0  0
  -15.8280  -10.2626   -0.0000 C   0  0  0  0  0  0  0  0  0  0  0  0
   -6.7189  -12.4983   -0.0000 C   0  0  0  0  0  0  0  0  0  0  0  0
   -8.0270  -14.7459   -0.0000 C   0  0  0  0  0  0  0  0  0  0  0  0
   -5.2800  -10.5243   -0.0000 C   0  0  0  0  0  0  0  0  0  0  0  0
  -17.1361  -10.9999   -0.0000 N   0  0  0  0  0  0  0  0  0  0  0  0
   -5.2919  -12.9502   -0.0000 N   0  0  0  0  0  0  0  0  0  0  0  0
   -4.4000  -11.7253   -0.0000 N   0  0  0  0  0  0  0  0  0  0  0  0
  -18.4442  -10.2389   -0.0000 C   0  0  0  0  0  0  0  0  0  0  0  0
  -17.1480  -12.4864   -0.0000 C   0  0  0  0  0  0  0  0  0  0  0  0
  -19.7523  -10.9762   -0.0000 C   0  0  0  0  0  0  0  0  0  0  0  0
  -18.4680  -13.2237   -0.0000 C   0  0  0  0  0  0  0  0  0  0  0  0
  -19.7761  -12.4626   -0.0000 C   0  0  0  0  0  0  0  0  0  0  0  0
  1  2  1  0  0  0  0
  2  3  2  0  0  0  0
  2  4  1  0  0  0  0
  3  5  1  0  0  0  0
  3  6  1  0  0  0  0
  4  7  2  0  0  0  0
  5  8  1  0  0  0  0
  6  9  2  0  0  0  0
  6 10  1  0  0  0  0
  8 11  2  0  0  0  0
  8 12  1  0  0  0  0
 12 13  1  0  0  0  0
 13 14  1  0  0  0  0
 13 15  1  0  0  0  0
 14 16  1  0  0  0  0
 15 17  1  0  0  0  0
 16 18  1  0  0  0  0
 18 19  1  0  0  0  0
 19 20  2  0  0  0  0
 19 21  1  0  0  0  0
 22 21  1  1  0  0  0
 22 23  1  0  0  0  0
 22 24  1  0  0  0  0
 23 25  2  0  0  0  0
 23 26  1  0  0  0  0
 24 27  1  0  0  0  0
 26 28  1  0  0  0  0
 26 29  1  0  0  0  0
 27 30  2  0  0  0  0
 27 31  1  0  0  0  0
 28 32  1  0  0  0  0
 29 33  1  0  0  0  0
 30 34  1  0  0  0  0
 31 35  2  0  0  0  0
 32 36  1  0  0  0  0
 34 37  2  0  0  0  0
 34 38  1  0  0  0  0
 35 39  1  0  0  0  0
 36 40  1  0  0  0  0
 37 41  1  0  0  0  0
 39 42  2  0  0  0  0
 40 43  1  0  0  0  0
 40 44  1  0  0  0  0
 43 45  1  0  0  0  0
 44 46  1  0  0  0  0
 45 47  1  0  0  0  0
  7  9  1  0  0  0  0
 10 12  1  0  0  0  0
 17 18  1  0  0  0  0
 33 36  1  0  0  0  0
 35 37  1  0  0  0  0
 41 42  1  0  0  0  0
 46 47  1  0  0  0  0
M  END
>  <MolRegNo>
501085

>  <m>
=

>  <Value>
26000

>  <Unit>
nM

>  <Type>
IC50

>  <pValue>
4.58

>  <Ligand Efficiency>
0

>  <Binding Efficiency>
0

>  <Surface Efficiency>
0

>  <Assay Index>
358669

>  <Assay Category>


>  <Assay Organism>


>  <Target ID>
17045

>  <Target Name>
Cytochrome P450 3A4

>  <Target Organism>
Homo sapiens

>  <Target Description>
Target is a single protein chain

>  <Sequence Accession>
P08684

>  <Reference>
J Med Chem 51 (16), 4858-4861 (2008)

>  <Pubmed ID>
18665579

>  <DOI>
10.1021/jm800546t

$$$$
512403
Actelion Java MolfileCreator 1.0

 46 52  0  0  0  0  0  0  0  0999 V2000
    0.0000   -0.0000   -0.0000 O   0  0  0  0  0  0  0  0  0  0  0  0
    1.2841   -0.7490   -0.0000 C   0  0  0  0  0  0  0  0  0  0  0  0
    1.2722   -2.2352   -0.0000 N   0  0  0  0  0  0  0  0  0  0  0  0
    2.5800    0.0119   -0.0000 N   0  0  0  0  0  0  0  0  0  0  0  0
   -0.0476   -2.9724   -0.0000 C   0  0  0  0  0  0  0  0  0  0  0  0
    2.5562   -2.9843   -0.0000 C   0  0  0  0  0  0  0  0  0  0  0  0
    3.8641   -0.7371   -0.0000 C   0  0  0  0  0  0  0  0  0  0  0  0
   -0.0594   -4.4586   -0.0000 C   0  0  0  0  0  0  0  0  0  0  0  0
   -1.3554   -2.1996   -0.0000 C   0  0  0  0  0  0  0  0  0  0  0  0
    3.8403   -2.2352   -0.0000 C   0  0  0  0  0  0  0  0  0  0  0  0
    5.1600    0.0119   -0.0000 C   0  0  0  0  0  0  0  0  0  0  0  0
   -1.3673   -5.1957   -0.0000 C   0  0  0  0  0  0  0  0  0  0  0  0
   -2.6632   -2.9486   -0.0000 C   0  0  0  0  0  0  0  0  0  0  0  0
    5.1244   -2.9962   -0.0000 C   0  0  0  0  0  0  0  0  0  0  0  0
    6.4441   -0.7371   -0.0000 C   0  0  0  0  0  0  0  0  0  0  0  0
   -2.6751   -4.4348   -0.0000 N   0  0  0  0  0  0  0  0  0  0  0  0
    6.4322   -2.2471   -0.0000 C   0  0  0  0  0  0  0  0  0  0  0  0
   -3.9830   -5.1719   -0.0000 C   0  0  0  0  0  0  0  0  0  0  0  0
   -3.9949   -6.6581   -0.0000 O   0  0  0  0  0  0  0  0  0  0  0  0
   -5.3027   -4.4110   -0.0000 N   0  0  0  0  0  0  0  0  0  0  0  0
   -6.6106   -5.1482   -0.0000 C   0  0  0  0  0  0  0  0  0  0  0  0
   -7.9303   -4.3872   -0.0000 C   0  0  0  0  0  0  0  0  0  0  0  0
   -6.6225   -6.6343   -0.0000 C   0  0  0  0  0  0  0  0  0  0  0  0
   -7.9422   -2.8773   -0.0000 O   0  0  0  0  0  0  0  0  0  0  0  0
   -9.2381   -5.1244   -0.0000 N   0  0  0  0  0  0  0  0  0  0  0  0
   -5.5762   -7.6806   -0.0000 C   0  0  0  0  0  0  0  0  0  0  0  0
  -10.5579   -4.3516   -0.0000 C   0  0  0  0  0  0  0  0  0  0  0  0
   -9.2500   -6.6106   -0.0000 C   0  0  0  0  0  0  0  0  0  0  0  0
   -5.9804   -9.1192   -0.0000 C   0  0  0  0  0  0  0  0  0  0  0  0
   -4.1494   -7.2764   -0.0000 C   0  0  0  0  0  0  0  0  0  0  0  0
  -11.8657   -5.0887   -0.0000 C   0  0  0  0  0  0  0  0  0  0  0  0
  -10.5698   -7.3477   -0.0000 C   0  0  0  0  0  0  0  0  0  0  0  0
   -4.9341  -10.1655   -0.0000 C   0  0  0  0  0  0  0  0  0  0  0  0
   -3.0913   -8.3108   -0.0000 C   0  0  0  0  0  0  0  0  0  0  0  0
  -11.8776   -6.5868   -0.0000 C   0  0  0  0  0  0  0  0  0  0  0  0
   -3.4955   -9.7732   -0.0000 C   0  0  0  0  0  0  0  0  0  0  0  0
   -5.3384  -11.6042   -0.0000 C   0  0  0  0  0  0  0  0  0  0  0  0
   -1.5932   -8.2038   -0.0000 C   0  0  0  0  0  0  0  0  0  0  0  0
  -13.1973   -7.3239   -0.0000 N   0  0  0  0  0  0  0  0  0  0  0  0
   -2.2352  -10.5698   -0.0000 N   0  0  0  0  0  0  0  0  0  0  0  0
   -1.0463   -9.5948   -0.0000 N   0  0  0  0  0  0  0  0  0  0  0  0
  -14.5052   -6.5511   -0.0000 C   0  0  0  0  0  0  0  0  0  0  0  0
  -13.2092   -8.8101   -0.0000 C   0  0  0  0  0  0  0  0  0  0  0  0
  -15.8012   -7.2764   -0.0000 C   0  0  0  0  0  0  0  0  0  0  0  0
  -14.5290   -9.5473   -0.0000 C   0  0  0  0  0  0  0  0  0  0  0  0
  -15.8368   -8.7745   -0.0000 C   0  0  0  0  0  0  0  0  0  0  0  0
  1  2  2  0  0  0  0
  2  3  1  0  0  0  0
  2  4  1  0  0  0  0
  3  5  1  0  0  0  0
  3  6  1  0  0  0  0
  4  7  1  0  0  0  0
  5  8  1  0  0  0  0
  5  9  1  0  0  0  0
  6 10  1  0  0  0  0
  7 11  1  0  0  0  0
  8 12  1  0  0  0  0
  9 13  1  0  0  0  0
 10 14  1  0  0  0  0
 11 15  2  0  0  0  0
 12 16  1  0  0  0  0
 14 17  2  0  0  0  0
 16 18  1  0  0  0  0
 18 19  2  0  0  0  0
 18 20  1  0  0  0  0
 21 20  1  1  0  0  0
 21 22  1  0  0  0  0
 21 23  1  0  0  0  0
 22 24  2  0  0  0  0
 22 25  1  0  0  0  0
 23 26  1  0  0  0  0
 25 27  1  0  0  0  0
 25 28  1  0  0  0  0
 26 29  2  0  0  0  0
 26 30  1  0  0  0  0
 27 31  1  0  0  0  0
 28 32  1  0  0  0  0
 29 33  1  0  0  0  0
 30 34  2  0  0  0  0
 31 35  1  0  0  0  0
 33 36  2  0  0  0  0
 33 37  1  0  0  0  0
 34 38  1  0  0  0  0
 35 39  1  0  0  0  0
 36 40  1  0  0  0  0
 38 41  2  0  0  0  0
 39 42  1  0  0  0  0
 39 43  1  0  0  0  0
 42 44  1  0  0  0  0
 43 45  1  0  0  0  0
 44 46  1  0  0  0  0
  7 10  2  0  0  0  0
 13 16  1  0  0  0  0
 15 17  1  0  0  0  0
 32 35  1  0  0  0  0
 34 36  1  0  0  0  0
 40 41  1  0  0  0  0
 45 46  1  0  0  0  0
M  END
>  <MolRegNo>
512403

>  <m>
=

>  <Value>
36000

>  <Unit>
nM

>  <Type>
IC50

>  <pValue>
4.44

>  <Ligand Efficiency>
0

>  <Binding Efficiency>
0

>  <Surface Efficiency>
0

>  <Assay Index>
358669

>  <Assay Category>


>  <Assay Organism>


>  <Target ID>
17045

>  <Target Name>
Cytochrome P450 3A4

>  <Target Organism>
Homo sapiens

>  <Target Description>
Target is a single protein chain

>  <Sequence Accession>
P08684

>  <Reference>
J Med Chem 51 (16), 4858-4861 (2008)

>  <Pubmed ID>
18665579

>  <DOI>
10.1021/jm800546t

$$$$
512402
Actelion Java MolfileCreator 1.0

 45 51  0  0  0  0  0  0  0  0999 V2000
    0.0000   -0.0000   -0.0000 O   0  0  0  0  0  0  0  0  0  0  0  0
    1.2934   -0.7357   -0.0000 C   0  0  0  0  0  0  0  0  0  0  0  0
    1.2815   -2.2308   -0.0000 N   0  0  0  0  0  0  0  0  0  0  0  0
    2.5867    0.0356   -0.0000 N   0  0  0  0  0  0  0  0  0  0  0  0
   -0.0356   -2.9665   -0.0000 C   0  0  0  0  0  0  0  0  0  0  0  0
    2.5749   -2.9783   -0.0000 C   0  0  0  0  0  0  0  0  0  0  0  0
    3.8683   -0.7119   -0.0000 C   0  0  0  0  0  0  0  0  0  0  0  0
   -1.3527   -2.1952   -0.0000 C   0  0  0  0  0  0  0  0  0  0  0  0
   -0.0475   -4.4497   -0.0000 C   0  0  0  0  0  0  0  0  0  0  0  0
    3.8564   -2.2070   -0.0000 C   0  0  0  0  0  0  0  0  0  0  0  0
    5.1616    0.0712   -0.0000 C   0  0  0  0  0  0  0  0  0  0  0  0
   -2.6579   -2.9309   -0.0000 C   0  0  0  0  0  0  0  0  0  0  0  0
   -1.3646   -5.1854   -0.0000 C   0  0  0  0  0  0  0  0  0  0  0  0
    5.1498   -2.9427   -0.0000 C   0  0  0  0  0  0  0  0  0  0  0  0
    6.4550   -0.6764   -0.0000 C   0  0  0  0  0  0  0  0  0  0  0  0
   -2.6817   -4.4260   -0.0000 N   0  0  0  0  0  0  0  0  0  0  0  0
    6.4431   -2.1833   -0.0000 C   0  0  0  0  0  0  0  0  0  0  0  0
   -3.9988   -5.1616   -0.0000 C   0  0  0  0  0  0  0  0  0  0  0  0
   -4.0225   -6.6567   -0.0000 O   0  0  0  0  0  0  0  0  0  0  0  0
   -5.3040   -4.3904   -0.0000 N   0  0  0  0  0  0  0  0  0  0  0  0
   -6.6211   -5.1260   -0.0000 C   0  0  0  0  0  0  0  0  0  0  0  0
   -7.9264   -4.3548   -0.0000 C   0  0  0  0  0  0  0  0  0  0  0  0
   -6.6449   -6.6211   -0.0000 C   0  0  0  0  0  0  0  0  0  0  0  0
   -7.9264   -2.8359   -0.0000 O   0  0  0  0  0  0  0  0  0  0  0  0
   -9.2435   -5.0904   -0.0000 N   0  0  0  0  0  0  0  0  0  0  0  0
   -5.9092   -7.9026   -0.0000 C   0  0  0  0  0  0  0  0  0  0  0  0
  -10.5606   -4.3192   -0.0000 C   0  0  0  0  0  0  0  0  0  0  0  0
   -9.2672   -6.5737   -0.0000 C   0  0  0  0  0  0  0  0  0  0  0  0
   -4.4378   -7.8908   -0.0000 C   0  0  0  0  0  0  0  0  0  0  0  0
   -6.6805   -9.1841   -0.0000 C   0  0  0  0  0  0  0  0  0  0  0  0
  -11.8777   -5.0430   -0.0000 C   0  0  0  0  0  0  0  0  0  0  0  0
  -10.5962   -7.3093   -0.0000 C   0  0  0  0  0  0  0  0  0  0  0  0
   -3.7021   -9.1723   -0.0000 C   0  0  0  0  0  0  0  0  0  0  0  0
   -5.9448  -10.4657   -0.0000 C   0  0  0  0  0  0  0  0  0  0  0  0
  -11.9014   -6.5381   -0.0000 C   0  0  0  0  0  0  0  0  0  0  0  0
   -4.4615  -10.4657   -0.0000 C   0  0  0  0  0  0  0  0  0  0  0  0
   -2.2426   -9.4689   -0.0000 C   0  0  0  0  0  0  0  0  0  0  0  0
  -13.2185   -7.2737   -0.0000 N   0  0  0  0  0  0  0  0  0  0  0  0
   -3.4648  -11.5692   -0.0000 N   0  0  0  0  0  0  0  0  0  0  0  0
   -2.0884  -10.9522   -0.0000 N   0  0  0  0  0  0  0  0  0  0  0  0
  -14.5238   -6.4906   -0.0000 C   0  0  0  0  0  0  0  0  0  0  0  0
  -13.2423   -8.7570   -0.0000 C   0  0  0  0  0  0  0  0  0  0  0  0
  -15.8409   -7.2144   -0.0000 C   0  0  0  0  0  0  0  0  0  0  0  0
  -14.5712   -9.4808   -0.0000 C   0  0  0  0  0  0  0  0  0  0  0  0
  -15.8646   -8.7095   -0.0000 C   0  0  0  0  0  0  0  0  0  0  0  0
  1  2  2  0  0  0  0
  2  3  1  0  0  0  0
  2  4  1  0  0  0  0
  3  5  1  0  0  0  0
  3  6  1  0  0  0  0
  4  7  1  0  0  0  0
  5  8  1  0  0  0  0
  5  9  1  0  0  0  0
  6 10  1  0  0  0  0
  7 11  1  0  0  0  0
  8 12  1  0  0  0  0
  9 13  1  0  0  0  0
 10 14  1  0  0  0  0
 11 15  2  0  0  0  0
 12 16  1  0  0  0  0
 14 17  2  0  0  0  0
 16 18  1  0  0  0  0
 18 19  2  0  0  0  0
 18 20  1  0  0  0  0
 21 20  1  1  0  0  0
 21 22  1  0  0  0  0
 21 23  1  0  0  0  0
 22 24  2  0  0  0  0
 22 25  1  0  0  0  0
 23 26  1  0  0  0  0
 25 27  1  0  0  0  0
 25 28  1  0  0  0  0
 26 29  2  0  0  0  0
 26 30  1  0  0  0  0
 27 31  1  0  0  0  0
 28 32  1  0  0  0  0
 29 33  1  0  0  0  0
 30 34  2  0  0  0  0
 31 35  1  0  0  0  0
 33 36  2  0  0  0  0
 33 37  1  0  0  0  0
 35 38  1  0  0  0  0
 36 39  1  0  0  0  0
 37 40  2  0  0  0  0
 38 41  1  0  0  0  0
 38 42  1  0  0  0  0
 41 43  1  0  0  0  0
 42 44  1  0  0  0  0
 43 45  1  0  0  0  0
  7 10  2  0  0  0  0
 13 16  1  0  0  0  0
 15 17  1  0  0  0  0
 32 35  1  0  0  0  0
 34 36  1  0  0  0  0
 39 40  1  0  0  0  0
 44 45  1  0  0  0  0
M  END
>  <MolRegNo>
512402

>  <m>
=

>  <Value>
4000

>  <Unit>
nM

>  <Type>
IC50

>  <pValue>
5.4

>  <Ligand Efficiency>
0

>  <Binding Efficiency>
0

>  <Surface Efficiency>
0

>  <Assay Index>
358670

>  <Assay Category>


>  <Assay Organism>


>  <Target ID>
17045

>  <Target Name>
Cytochrome P450 3A4

>  <Target Organism>
Homo sapiens

>  <Target Description>
Target is a single protein chain

>  <Sequence Accession>
P08684

>  <Reference>
J Med Chem 51 (16), 4858-4861 (2008)

>  <Pubmed ID>
18665579

>  <DOI>
10.1021/jm800546t

$$$$
493270
Actelion Java MolfileCreator 1.0

 22 24  0  0  0  0  0  0  0  0999 V2000
    0.0000   -0.0000   -0.0000 O   0  0  0  0  0  0  0  0  0  0  0  0
   -0.0119   -1.4931   -0.0000 C   0  0  0  0  0  0  0  0  0  0  0  0
   -1.2324   -2.3700   -0.0000 C   0  0  0  0  0  0  0  0  0  0  0  0
    1.1969   -2.3700   -0.0000 C   0  0  0  0  0  0  0  0  0  0  0  0
   -2.5478   -1.6116   -0.0000 C   0  0  0  0  0  0  0  0  0  0  0  0
   -0.7821   -3.7921   -0.0000 C   0  0  0  0  0  0  0  0  0  0  0  0
    2.4885   -1.5998   -0.0000 C   0  0  0  0  0  0  0  0  0  0  0  0
    0.7110   -3.7921   -0.0000 C   0  0  0  0  0  0  0  0  0  0  0  0
   -3.8632   -2.3582   -0.0000 C   0  0  0  0  0  0  0  0  0  0  0  0
    3.7802   -2.3345   -0.0000 C   0  0  0  0  0  0  0  0  0  0  0  0
   -5.1785   -1.5879   -0.0000 C   0  0  0  0  0  0  0  0  0  0  0  0
   -3.8632   -3.8395   -0.0000 C   0  0  0  0  0  0  0  0  0  0  0  0
    3.7684   -3.8276   -0.0000 C   0  0  0  0  0  0  0  0  0  0  0  0
    5.0600   -1.5642   -0.0000 C   0  0  0  0  0  0  0  0  0  0  0  0
   -6.4939   -2.3345   -0.0000 C   0  0  0  0  0  0  0  0  0  0  0  0
   -5.1667   -4.5860   -0.0000 C   0  0  0  0  0  0  0  0  0  0  0  0
    5.0600   -4.5623   -0.0000 C   0  0  0  0  0  0  0  0  0  0  0  0
    6.3517   -2.2871   -0.0000 C   0  0  0  0  0  0  0  0  0  0  0  0
   -6.5057   -3.8276   -0.0000 C   0  0  0  0  0  0  0  0  0  0  0  0
    6.3517   -3.7921   -0.0000 C   0  0  0  0  0  0  0  0  0  0  0  0
   -7.8093   -4.5742   -0.0000 O   0  0  0  0  0  0  0  0  0  0  0  0
    7.6434   -4.5268   -0.0000 O   0  0  0  0  0  0  0  0  0  0  0  0
  1  2  2  0  0  0  0
  2  3  1  0  0  0  0
  2  4  1  0  0  0  0
  3  5  2  0  0  0  0
  3  6  1  0  0  0  0
  4  7  2  0  0  0  0
  4  8  1  0  0  0  0
  5  9  1  0  0  0  0
  7 10  1  0  0  0  0
  9 11  2  0  0  0  0
  9 12  1  0  0  0  0
 10 13  2  0  0  0  0
 10 14  1  0  0  0  0
 11 15  1  0  0  0  0
 12 16  2  0  0  0  0
 13 17  1  0  0  0  0
 14 18  2  0  0  0  0
 15 19  2  0  0  0  0
 17 20  2  0  0  0  0
 19 21  1  0  0  0  0
 20 22  1  0  0  0  0
  6  8  1  0  0  0  0
 16 19  1  0  0  0  0
 18 20  1  0  0  0  0
M  END
>  <MolRegNo>
493270

>  <m>
=

>  <Value>
5100

>  <Unit>
nM

>  <Type>
IC50

>  <pValue>
5.29

>  <Ligand Efficiency>
0

>  <Binding Efficiency>
0

>  <Surface Efficiency>
0

>  <Assay Index>
346195

>  <Assay Category>


>  <Assay Organism>
Homo sapiens

>  <Target ID>
17045

>  <Target Name>
Cytochrome P450 3A4

>  <Target Organism>
Homo sapiens

>  <Target Description>
Target is a single protein chain

>  <Sequence Accession>
P08684

>  <Reference>
Eur J Med Chem 43 (8), 1621-1631 (2008)

>  <Pubmed ID>
18249473

>  <DOI>
10.1016/j.ejmech.2007.10.034

$$$$
436511
Actelion Java MolfileCreator 1.0

 26 28  0  0  0  0  0  0  0  0999 V2000
    0.0000   -0.0000   -0.0000 O   0  0  0  0  0  0  0  0  0  0  0  0
   -0.0956   -1.4934   -0.0000 C   0  0  0  0  0  0  0  0  0  0  0  0
   -1.3620   -2.2939   -0.0000 C   0  0  0  0  0  0  0  0  0  0  0  0
    1.0514   -2.4253   -0.0000 C   0  0  0  0  0  0  0  0  0  0  0  0
   -2.6643   -1.5173   -0.0000 C   0  0  0  0  0  0  0  0  0  0  0  0
   -0.9916   -3.7276   -0.0000 C   0  0  0  0  0  0  0  0  0  0  0  0
    2.3895   -1.7443   -0.0000 C   0  0  0  0  0  0  0  0  0  0  0  0
    0.5018   -3.8112   -0.0000 C   0  0  0  0  0  0  0  0  0  0  0  0
   -3.9785   -2.2700   -0.0000 C   0  0  0  0  0  0  0  0  0  0  0  0
    3.6320   -2.5687   -0.0000 C   0  0  0  0  0  0  0  0  0  0  0  0
   -5.3046   -1.5173   -0.0000 C   0  0  0  0  0  0  0  0  0  0  0  0
   -3.9904   -3.7754   -0.0000 C   0  0  0  0  0  0  0  0  0  0  0  0
    4.9581   -1.8757   -0.0000 C   0  0  0  0  0  0  0  0  0  0  0  0
    3.5125   -4.0501   -0.0000 C   0  0  0  0  0  0  0  0  0  0  0  0
   -6.6069   -2.2580   -0.0000 C   0  0  0  0  0  0  0  0  0  0  0  0
   -5.3166   -4.5161   -0.0000 C   0  0  0  0  0  0  0  0  0  0  0  0
    6.2007   -2.6881   -0.0000 C   0  0  0  0  0  0  0  0  0  0  0  0
    4.7550   -4.8745   -0.0000 C   0  0  0  0  0  0  0  0  0  0  0  0
   -7.9211   -1.4934   -0.0000 O   0  0  0  0  0  0  0  0  0  0  0  0
   -6.6188   -3.7515   -0.0000 C   0  0  0  0  0  0  0  0  0  0  0  0
    7.5388   -2.0071   -0.0000 O   0  0  0  0  0  0  0  0  0  0  0  0
    6.0931   -4.1816   -0.0000 C   0  0  0  0  0  0  0  0  0  0  0  0
   -7.9330    0.0239   -0.0000 C   0  0  0  0  0  0  0  0  0  0  0  0
   -7.9330   -4.4922   -0.0000 O   0  0  0  0  0  0  0  0  0  0  0  0
    8.7813   -2.8196   -0.0000 C   0  0  0  0  0  0  0  0  0  0  0  0
    7.3356   -5.0059   -0.0000 O   0  0  0  0  0  0  0  0  0  0  0  0
  1  2  2  0  0  0  0
  2  3  1  0  0  0  0
  2  4  1  0  0  0  0
  3  5  2  0  0  0  0
  3  6  1  0  0  0  0
  4  7  2  0  0  0  0
  4  8  1  0  0  0  0
  5  9  1  0  0  0  0
  7 10  1  0  0  0  0
  9 11  2  0  0  0  0
  9 12  1  0  0  0  0
 10 13  2  0  0  0  0
 10 14  1  0  0  0  0
 11 15  1  0  0  0  0
 12 16  2  0  0  0  0
 13 17  1  0  0  0  0
 14 18  2  0  0  0  0
 15 19  1  0  0  0  0
 15 20  2  0  0  0  0
 17 21  1  0  0  0  0
 17 22  2  0  0  0  0
 19 23  1  0  0  0  0
 20 24  1  0  0  0  0
 21 25  1  0  0  0  0
 22 26  1  0  0  0  0
  6  8  1  0  0  0  0
 16 20  1  0  0  0  0
 18 22  1  0  0  0  0
M  END
>  <MolRegNo>
436511

>  <m>
=

>  <Value>
64900

>  <Unit>
nM

>  <Type>
IC50

>  <pValue>
4.19

>  <Ligand Efficiency>
0

>  <Binding Efficiency>
0

>  <Surface Efficiency>
0

>  <Assay Index>
346195

>  <Assay Category>


>  <Assay Organism>
Homo sapiens

>  <Target ID>
17045

>  <Target Name>
Cytochrome P450 3A4

>  <Target Organism>
Homo sapiens

>  <Target Description>
Target is a single protein chain

>  <Sequence Accession>
P08684

>  <Reference>
Eur J Med Chem 43 (8), 1621-1631 (2008)

>  <Pubmed ID>
18249473

>  <DOI>
10.1016/j.ejmech.2007.10.034

$$$$
493336
Actelion Java MolfileCreator 1.0

 30 32  0  0  0  0  0  0  0  0999 V2000
    0.0000   -0.0000   -0.0000 O   0  0  0  0  0  0  0  0  0  0  0  0
   -0.0957   -1.4953   -0.0000 C   0  0  0  0  0  0  0  0  0  0  0  0
   -1.3637   -2.2967   -0.0000 C   0  0  0  0  0  0  0  0  0  0  0  0
    1.0527   -2.4283   -0.0000 C   0  0  0  0  0  0  0  0  0  0  0  0
   -2.6675   -1.5192   -0.0000 C   0  0  0  0  0  0  0  0  0  0  0  0
   -0.9929   -3.7322   -0.0000 C   0  0  0  0  0  0  0  0  0  0  0  0
    2.5001   -2.0336   -0.0000 C   0  0  0  0  0  0  0  0  0  0  0  0
    0.5024   -3.8159   -0.0000 C   0  0  0  0  0  0  0  0  0  0  0  0
   -3.9834   -2.2728   -0.0000 C   0  0  0  0  0  0  0  0  0  0  0  0
    3.5527   -3.0862   -0.0000 C   0  0  0  0  0  0  0  0  0  0  0  0
   -5.3112   -1.5192   -0.0000 C   0  0  0  0  0  0  0  0  0  0  0  0
   -3.9953   -3.7800   -0.0000 C   0  0  0  0  0  0  0  0  0  0  0  0
    4.9882   -2.6795   -0.0000 C   0  0  0  0  0  0  0  0  0  0  0  0
    3.1460   -4.5217   -0.0000 C   0  0  0  0  0  0  0  0  0  0  0  0
   -6.6150   -2.2608   -0.0000 C   0  0  0  0  0  0  0  0  0  0  0  0
   -5.3231   -4.5217   -0.0000 C   0  0  0  0  0  0  0  0  0  0  0  0
    6.0408   -3.7322   -0.0000 C   0  0  0  0  0  0  0  0  0  0  0  0
    4.1987   -5.5743   -0.0000 C   0  0  0  0  0  0  0  0  0  0  0  0
   -6.6270   -3.7561   -0.0000 C   0  0  0  0  0  0  0  0  0  0  0  0
   -7.9309   -1.4953   -0.0000 C   0  0  0  0  0  0  0  0  0  0  0  0
   -5.3351   -6.0169   -0.0000 C   0  0  0  0  0  0  0  0  0  0  0  0
    5.6341   -5.1796   -0.0000 C   0  0  0  0  0  0  0  0  0  0  0  0
    7.4883   -3.3255   -0.0000 C   0  0  0  0  0  0  0  0  0  0  0  0
    3.7920   -7.0217   -0.0000 C   0  0  0  0  0  0  0  0  0  0  0  0
   -7.9428   -4.4977   -0.0000 O   0  0  0  0  0  0  0  0  0  0  0  0
   -7.9428    0.0239   -0.0000 C   0  0  0  0  0  0  0  0  0  0  0  0
   -4.0432   -6.7586   -0.0000 C   0  0  0  0  0  0  0  0  0  0  0  0
    6.6868   -6.2322   -0.0000 O   0  0  0  0  0  0  0  0  0  0  0  0
    8.5409   -4.3781   -0.0000 C   0  0  0  0  0  0  0  0  0  0  0  0
    4.8446   -8.0744   -0.0000 C   0  0  0  0  0  0  0  0  0  0  0  0
  1  2  2  0  0  0  0
  2  3  1  0  0  0  0
  2  4  1  0  0  0  0
  3  5  2  0  0  0  0
  3  6  1  0  0  0  0
  4  7  2  0  0  0  0
  4  8  1  0  0  0  0
  5  9  1  0  0  0  0
  7 10  1  0  0  0  0
  9 11  2  0  0  0  0
  9 12  1  0  0  0  0
 10 13  2  0  0  0  0
 10 14  1  0  0  0  0
 11 15  1  0  0  0  0
 12 16  2  0  0  0  0
 13 17  1  0  0  0  0
 14 18  2  0  0  0  0
 15 19  2  0  0  0  0
 15 20  1  0  0  0  0
 16 21  1  0  0  0  0
 17 22  2  0  0  0  0
 17 23  1  0  0  0  0
 18 24  1  0  0  0  0
 19 25  1  0  0  0  0
 20 26  1  0  0  0  0
 21 27  1  0  0  0  0
 22 28  1  0  0  0  0
 23 29  1  0  0  0  0
 24 30  1  0  0  0  0
  6  8  1  0  0  0  0
 16 19  1  0  0  0  0
 18 22  1  0  0  0  0
M  END
>  <MolRegNo>
493336

>  <m>
=

>  <Value>
73500

>  <Unit>
nM

>  <Type>
IC50

>  <pValue>
4.13

>  <Ligand Efficiency>
0

>  <Binding Efficiency>
0

>  <Surface Efficiency>
0

>  <Assay Index>
346195

>  <Assay Category>


>  <Assay Organism>
Homo sapiens

>  <Target ID>
17045

>  <Target Name>
Cytochrome P450 3A4

>  <Target Organism>
Homo sapiens

>  <Target Description>
Target is a single protein chain

>  <Sequence Accession>
P08684

>  <Reference>
Eur J Med Chem 43 (8), 1621-1631 (2008)

>  <Pubmed ID>
18249473

>  <DOI>
10.1016/j.ejmech.2007.10.034

$$$$
493400
Actelion Java MolfileCreator 1.0

 34 36  0  0  0  0  0  0  0  0999 V2000
    0.0000   -0.0000   -0.0000 O   0  0  0  0  0  0  0  0  0  0  0  0
   -0.0956   -1.4934   -0.0000 C   0  0  0  0  0  0  0  0  0  0  0  0
   -1.3620   -2.2939   -0.0000 C   0  0  0  0  0  0  0  0  0  0  0  0
    1.0514   -2.4253   -0.0000 C   0  0  0  0  0  0  0  0  0  0  0  0
   -2.6643   -1.5173   -0.0000 C   0  0  0  0  0  0  0  0  0  0  0  0
   -0.9916   -3.7276   -0.0000 C   0  0  0  0  0  0  0  0  0  0  0  0
    2.4970   -2.0311   -0.0000 C   0  0  0  0  0  0  0  0  0  0  0  0
    0.5018   -3.8112   -0.0000 C   0  0  0  0  0  0  0  0  0  0  0  0
   -3.9785   -2.2700   -0.0000 C   0  0  0  0  0  0  0  0  0  0  0  0
    3.5484   -3.0824   -0.0000 C   0  0  0  0  0  0  0  0  0  0  0  0
   -3.9905   -3.7754   -0.0000 C   0  0  0  0  0  0  0  0  0  0  0  0
   -5.3047   -1.5173   -0.0000 C   0  0  0  0  0  0  0  0  0  0  0  0
    4.9821   -2.6762   -0.0000 C   0  0  0  0  0  0  0  0  0  0  0  0
    3.1422   -4.5161   -0.0000 C   0  0  0  0  0  0  0  0  0  0  0  0
   -5.3166   -4.5161   -0.0000 C   0  0  0  0  0  0  0  0  0  0  0  0
   -6.6069   -2.2581   -0.0000 C   0  0  0  0  0  0  0  0  0  0  0  0
    6.0335   -3.7276   -0.0000 C   0  0  0  0  0  0  0  0  0  0  0  0
    4.1936   -5.5675   -0.0000 C   0  0  0  0  0  0  0  0  0  0  0  0
   -6.6308   -3.7515   -0.0000 C   0  0  0  0  0  0  0  0  0  0  0  0
   -5.3286   -6.0096   -0.0000 C   0  0  0  0  0  0  0  0  0  0  0  0
   -7.9212   -1.4934   -0.0000 C   0  0  0  0  0  0  0  0  0  0  0  0
    5.6273   -5.1732   -0.0000 C   0  0  0  0  0  0  0  0  0  0  0  0
    7.4791   -3.3214   -0.0000 C   0  0  0  0  0  0  0  0  0  0  0  0
    3.7873   -7.0132   -0.0000 C   0  0  0  0  0  0  0  0  0  0  0  0
   -7.9451   -4.4922   -0.0000 O   0  0  0  0  0  0  0  0  0  0  0  0
   -4.0382   -6.7503   -0.0000 C   0  0  0  0  0  0  0  0  0  0  0  0
   -6.6428   -6.7503   -0.0000 C   0  0  0  0  0  0  0  0  0  0  0  0
   -7.9331    0.0239   -0.0000 C   0  0  0  0  0  0  0  0  0  0  0  0
   -9.2354   -2.2342   -0.0000 C   0  0  0  0  0  0  0  0  0  0  0  0
    6.6786   -6.2246   -0.0000 O   0  0  0  0  0  0  0  0  0  0  0  0
    8.5305   -4.3728   -0.0000 C   0  0  0  0  0  0  0  0  0  0  0  0
    7.8495   -1.8519   -0.0000 C   0  0  0  0  0  0  0  0  0  0  0  0
    4.8387   -8.0645   -0.0000 C   0  0  0  0  0  0  0  0  0  0  0  0
    2.3178   -7.3835   -0.0000 C   0  0  0  0  0  0  0  0  0  0  0  0
  1  2  2  0  0  0  0
  2  3  1  0  0  0  0
  2  4  1  0  0  0  0
  3  5  2  0  0  0  0
  3  6  1  0  0  0  0
  4  7  2  0  0  0  0
  4  8  1  0  0  0  0
  5  9  1  0  0  0  0
  7 10  1  0  0  0  0
  9 11  2  0  0  0  0
  9 12  1  0  0  0  0
 10 13  2  0  0  0  0
 10 14  1  0  0  0  0
 11 15  1  0  0  0  0
 12 16  2  0  0  0  0
 13 17  1  0  0  0  0
 14 18  2  0  0  0  0
 15 19  2  0  0  0  0
 15 20  1  0  0  0  0
 16 21  1  0  0  0  0
 17 22  2  0  0  0  0
 17 23  1  0  0  0  0
 18 24  1  0  0  0  0
 19 25  1  0  0  0  0
 20 26  1  0  0  0  0
 20 27  1  0  0  0  0
 21 28  1  0  0  0  0
 21 29  1  0  0  0  0
 22 30  1  0  0  0  0
 23 31  1  0  0  0  0
 23 32  1  0  0  0  0
 24 33  1  0  0  0  0
 24 34  1  0  0  0  0
  6  8  1  0  0  0  0
 16 19  1  0  0  0  0
 18 22  1  0  0  0  0
M  END
>  <MolRegNo>
493400

>  <m>
=

>  <Value>
77600

>  <Unit>
nM

>  <Type>
IC50

>  <pValue>
4.11

>  <Ligand Efficiency>
0

>  <Binding Efficiency>
0

>  <Surface Efficiency>
0

>  <Assay Index>
346195

>  <Assay Category>


>  <Assay Organism>
Homo sapiens

>  <Target ID>
17045

>  <Target Name>
Cytochrome P450 3A4

>  <Target Organism>
Homo sapiens

>  <Target Description>
Target is a single protein chain

>  <Sequence Accession>
P08684

>  <Reference>
Eur J Med Chem 43 (8), 1621-1631 (2008)

>  <Pubmed ID>
18249473

>  <DOI>
10.1016/j.ejmech.2007.10.034

$$$$
493402
Actelion Java MolfileCreator 1.0

 30 32  0  0  0  0  0  0  0  0999 V2000
    0.0000   -0.0000   -0.0000 O   0  0  0  0  0  0  0  0  0  0  0  0
   -0.0956   -1.4937   -0.0000 C   0  0  0  0  0  0  0  0  0  0  0  0
   -1.3623   -2.2944   -0.0000 C   0  0  0  0  0  0  0  0  0  0  0  0
    1.0516   -2.4258   -0.0000 C   0  0  0  0  0  0  0  0  0  0  0  0
   -2.6648   -1.5176   -0.0000 C   0  0  0  0  0  0  0  0  0  0  0  0
   -0.9918   -3.7283   -0.0000 C   0  0  0  0  0  0  0  0  0  0  0  0
    2.4975   -2.0315   -0.0000 C   0  0  0  0  0  0  0  0  0  0  0  0
    0.5019   -3.8120   -0.0000 C   0  0  0  0  0  0  0  0  0  0  0  0
   -3.9793   -2.2705   -0.0000 C   0  0  0  0  0  0  0  0  0  0  0  0
    3.5491   -3.0830   -0.0000 C   0  0  0  0  0  0  0  0  0  0  0  0
   -5.3057   -1.5176   -0.0000 C   0  0  0  0  0  0  0  0  0  0  0  0
   -3.9912   -3.7761   -0.0000 C   0  0  0  0  0  0  0  0  0  0  0  0
    4.9831   -2.6767   -0.0000 C   0  0  0  0  0  0  0  0  0  0  0  0
    3.1428   -4.5170   -0.0000 C   0  0  0  0  0  0  0  0  0  0  0  0
   -6.6082   -2.2585   -0.0000 C   0  0  0  0  0  0  0  0  0  0  0  0
   -5.3176   -4.5170   -0.0000 C   0  0  0  0  0  0  0  0  0  0  0  0
    6.0346   -3.7283   -0.0000 C   0  0  0  0  0  0  0  0  0  0  0  0
    4.1944   -5.5686   -0.0000 C   0  0  0  0  0  0  0  0  0  0  0  0
   -7.9227   -1.4937   -0.0000 O   0  0  0  0  0  0  0  0  0  0  0  0
   -6.6202   -3.7522   -0.0000 C   0  0  0  0  0  0  0  0  0  0  0  0
   -5.3296   -6.0107   -0.0000 O   0  0  0  0  0  0  0  0  0  0  0  0
    7.4806   -3.3220   -0.0000 O   0  0  0  0  0  0  0  0  0  0  0  0
    5.6283   -5.1742   -0.0000 C   0  0  0  0  0  0  0  0  0  0  0  0
    3.7881   -7.0145   -0.0000 O   0  0  0  0  0  0  0  0  0  0  0  0
   -7.9346    0.0239   -0.0000 C   0  0  0  0  0  0  0  0  0  0  0  0
   -7.9346   -4.4931   -0.0000 O   0  0  0  0  0  0  0  0  0  0  0  0
   -6.6441   -6.7516   -0.0000 C   0  0  0  0  0  0  0  0  0  0  0  0
    8.5321   -4.3736   -0.0000 C   0  0  0  0  0  0  0  0  0  0  0  0
    6.6799   -6.2258   -0.0000 O   0  0  0  0  0  0  0  0  0  0  0  0
    2.3183   -7.3850   -0.0000 C   0  0  0  0  0  0  0  0  0  0  0  0
  1  2  2  0  0  0  0
  2  3  1  0  0  0  0
  2  4  1  0  0  0  0
  3  5  2  0  0  0  0
  3  6  1  0  0  0  0
  4  7  2  0  0  0  0
  4  8  1  0  0  0  0
  5  9  1  0  0  0  0
  7 10  1  0  0  0  0
  9 11  2  0  0  0  0
  9 12  1  0  0  0  0
 10 13  2  0  0  0  0
 10 14  1  0  0  0  0
 11 15  1  0  0  0  0
 12 16  2  0  0  0  0
 13 17  1  0  0  0  0
 14 18  2  0  0  0  0
 15 19  1  0  0  0  0
 15 20  2  0  0  0  0
 16 21  1  0  0  0  0
 17 22  1  0  0  0  0
 17 23  2  0  0  0  0
 18 24  1  0  0  0  0
 19 25  1  0  0  0  0
 20 26  1  0  0  0  0
 21 27  1  0  0  0  0
 22 28  1  0  0  0  0
 23 29  1  0  0  0  0
 24 30  1  0  0  0  0
  6  8  1  0  0  0  0
 16 20  1  0  0  0  0
 18 23  1  0  0  0  0
M  END
>  <MolRegNo>
493402

>  <m>
=

>  <Value>
38300

>  <Unit>
nM

>  <Type>
IC50

>  <pValue>
4.42

>  <Ligand Efficiency>
0

>  <Binding Efficiency>
0

>  <Surface Efficiency>
0

>  <Assay Index>
346195

>  <Assay Category>


>  <Assay Organism>
Homo sapiens

>  <Target ID>
17045

>  <Target Name>
Cytochrome P450 3A4

>  <Target Organism>
Homo sapiens

>  <Target Description>
Target is a single protein chain

>  <Sequence Accession>
P08684

>  <Reference>
Eur J Med Chem 43 (8), 1621-1631 (2008)

>  <Pubmed ID>
18249473

>  <DOI>
10.1016/j.ejmech.2007.10.034

$$$$
429123
Actelion Java MolfileCreator 1.0

 24 25  0  0  0  0  0  0  0  0999 V2000
    0.0000   -0.0000   -0.0000 O   0  0  0  0  0  0  0  0  0  0  0  0
    0.0000   -1.4910   -0.0000 C   0  0  0  0  0  0  0  0  0  0  0  0
   -1.3121   -2.2424   -0.0000 C   0  0  0  0  0  0  0  0  0  0  0  0
    1.3001   -2.2186   -0.0000 C   0  0  0  0  0  0  0  0  0  0  0  0
   -2.6360   -1.4910   -0.0000 C   0  0  0  0  0  0  0  0  0  0  0  0
    2.5883   -1.4433   -0.0000 C   0  0  0  0  0  0  0  0  0  0  0  0
   -3.9481   -2.2424   -0.0000 C   0  0  0  0  0  0  0  0  0  0  0  0
    3.8885   -2.1709   -0.0000 C   0  0  0  0  0  0  0  0  0  0  0  0
   -5.2721   -1.4910   -0.0000 C   0  0  0  0  0  0  0  0  0  0  0  0
   -3.9600   -3.7453   -0.0000 C   0  0  0  0  0  0  0  0  0  0  0  0
    5.1647   -1.3956   -0.0000 C   0  0  0  0  0  0  0  0  0  0  0  0
    3.8765   -3.6618   -0.0000 C   0  0  0  0  0  0  0  0  0  0  0  0
   -6.5722   -2.2305   -0.0000 C   0  0  0  0  0  0  0  0  0  0  0  0
   -5.2840   -4.4849   -0.0000 C   0  0  0  0  0  0  0  0  0  0  0  0
    6.4529   -2.1231   -0.0000 C   0  0  0  0  0  0  0  0  0  0  0  0
    5.1647   -4.3894   -0.0000 C   0  0  0  0  0  0  0  0  0  0  0  0
   -6.5841   -3.7215   -0.0000 C   0  0  0  0  0  0  0  0  0  0  0  0
   -7.8843   -1.4671   -0.0000 C   0  0  0  0  0  0  0  0  0  0  0  0
   -5.2959   -5.9758   -0.0000 C   0  0  0  0  0  0  0  0  0  0  0  0
    6.4529   -3.6261   -0.0000 C   0  0  0  0  0  0  0  0  0  0  0  0
    7.7411   -1.3478   -0.0000 C   0  0  0  0  0  0  0  0  0  0  0  0
    5.1647   -5.8804   -0.0000 C   0  0  0  0  0  0  0  0  0  0  0  0
   -7.8962   -4.4610   -0.0000 O   0  0  0  0  0  0  0  0  0  0  0  0
    7.7531   -4.3536   -0.0000 O   0  0  0  0  0  0  0  0  0  0  0  0
  1  2  2  0  0  0  0
  2  3  1  0  0  0  0
  2  4  1  0  0  0  0
  3  5  2  0  0  0  0
  4  6  2  0  0  0  0
  5  7  1  0  0  0  0
  6  8  1  0  0  0  0
  7  9  2  0  0  0  0
  7 10  1  0  0  0  0
  8 11  2  0  0  0  0
  8 12  1  0  0  0  0
  9 13  1  0  0  0  0
 10 14  2  0  0  0  0
 11 15  1  0  0  0  0
 12 16  2  0  0  0  0
 13 17  2  0  0  0  0
 13 18  1  0  0  0  0
 14 19  1  0  0  0  0
 15 20  2  0  0  0  0
 15 21  1  0  0  0  0
 16 22  1  0  0  0  0
 17 23  1  0  0  0  0
 20 24  1  0  0  0  0
 14 17  1  0  0  0  0
 16 20  1  0  0  0  0
M  END
>  <MolRegNo>
429123

>  <m>
=

>  <Value>
40300

>  <Unit>
nM

>  <Type>
IC50

>  <pValue>
4.39

>  <Ligand Efficiency>
0

>  <Binding Efficiency>
0

>  <Surface Efficiency>
0

>  <Assay Index>
346195

>  <Assay Category>


>  <Assay Organism>
Homo sapiens

>  <Target ID>
17045

>  <Target Name>
Cytochrome P450 3A4

>  <Target Organism>
Homo sapiens

>  <Target Description>
Target is a single protein chain

>  <Sequence Accession>
P08684

>  <Reference>
Eur J Med Chem 43 (8), 1621-1631 (2008)

>  <Pubmed ID>
18249473

>  <DOI>
10.1016/j.ejmech.2007.10.034

$$$$
478563
Actelion Java MolfileCreator 1.0

 28 29  0  0  0  0  0  0  0  0999 V2000
    0.0000   -0.0000   -0.0000 O   0  0  0  0  0  0  0  0  0  0  0  0
   -0.0119   -1.4914   -0.0000 C   0  0  0  0  0  0  0  0  0  0  0  0
   -1.3244   -2.2312   -0.0000 C   0  0  0  0  0  0  0  0  0  0  0  0
    1.2767   -2.2312   -0.0000 C   0  0  0  0  0  0  0  0  0  0  0  0
   -2.6368   -1.4676   -0.0000 C   0  0  0  0  0  0  0  0  0  0  0  0
    2.5414   -1.4676   -0.0000 C   0  0  0  0  0  0  0  0  0  0  0  0
   -3.9493   -2.2073   -0.0000 C   0  0  0  0  0  0  0  0  0  0  0  0
    3.8419   -2.2073   -0.0000 C   0  0  0  0  0  0  0  0  0  0  0  0
   -5.2617   -1.4437   -0.0000 C   0  0  0  0  0  0  0  0  0  0  0  0
   -3.9612   -3.6987   -0.0000 C   0  0  0  0  0  0  0  0  0  0  0  0
    5.1305   -1.4437   -0.0000 C   0  0  0  0  0  0  0  0  0  0  0  0
    3.8300   -3.6987   -0.0000 C   0  0  0  0  0  0  0  0  0  0  0  0
   -6.5742   -2.1715   -0.0000 C   0  0  0  0  0  0  0  0  0  0  0  0
   -5.2736   -4.4384   -0.0000 C   0  0  0  0  0  0  0  0  0  0  0  0
    6.4190   -2.1715   -0.0000 C   0  0  0  0  0  0  0  0  0  0  0  0
    5.1185   -4.4384   -0.0000 C   0  0  0  0  0  0  0  0  0  0  0  0
   -7.8747   -1.3960   -0.0000 O   0  0  0  0  0  0  0  0  0  0  0  0
   -6.6219   -3.6629   -0.0000 C   0  0  0  0  0  0  0  0  0  0  0  0
   -5.2856   -5.9299   -0.0000 O   0  0  0  0  0  0  0  0  0  0  0  0
    7.6957   -1.3960   -0.0000 O   0  0  0  0  0  0  0  0  0  0  0  0
    6.4190   -3.6748   -0.0000 C   0  0  0  0  0  0  0  0  0  0  0  0
    5.1066   -5.9299   -0.0000 O   0  0  0  0  0  0  0  0  0  0  0  0
   -9.1990   -2.1118   -0.0000 C   0  0  0  0  0  0  0  0  0  0  0  0
   -7.9463   -4.3907   -0.0000 O   0  0  0  0  0  0  0  0  0  0  0  0
   -6.5980   -6.6696   -0.0000 C   0  0  0  0  0  0  0  0  0  0  0  0
    8.9843   -2.1238   -0.0000 C   0  0  0  0  0  0  0  0  0  0  0  0
    7.7076   -4.4146   -0.0000 O   0  0  0  0  0  0  0  0  0  0  0  0
    3.7942   -6.6696   -0.0000 C   0  0  0  0  0  0  0  0  0  0  0  0
  1  2  2  0  0  0  0
  2  3  1  0  0  0  0
  2  4  1  0  0  0  0
  3  5  2  0  0  0  0
  4  6  2  0  0  0  0
  5  7  1  0  0  0  0
  6  8  1  0  0  0  0
  7  9  2  0  0  0  0
  7 10  1  0  0  0  0
  8 11  2  0  0  0  0
  8 12  1  0  0  0  0
  9 13  1  0  0  0  0
 10 14  2  0  0  0  0
 11 15  1  0  0  0  0
 12 16  2  0  0  0  0
 13 17  1  0  0  0  0
 13 18  2  0  0  0  0
 14 19  1  0  0  0  0
 15 20  1  0  0  0  0
 15 21  2  0  0  0  0
 16 22  1  0  0  0  0
 17 23  1  0  0  0  0
 18 24  1  0  0  0  0
 19 25  1  0  0  0  0
 20 26  1  0  0  0  0
 21 27  1  0  0  0  0
 22 28  1  0  0  0  0
 14 18  1  0  0  0  0
 16 21  1  0  0  0  0
M  END
>  <MolRegNo>
478563

>  <m>
=

>  <Value>
13200

>  <Unit>
nM

>  <Type>
IC50

>  <pValue>
4.88

>  <Ligand Efficiency>
0

>  <Binding Efficiency>
0

>  <Surface Efficiency>
0

>  <Assay Index>
346195

>  <Assay Category>


>  <Assay Organism>
Homo sapiens

>  <Target ID>
17045

>  <Target Name>
Cytochrome P450 3A4

>  <Target Organism>
Homo sapiens

>  <Target Description>
Target is a single protein chain

>  <Sequence Accession>
P08684

>  <Reference>
Eur J Med Chem 43 (8), 1621-1631 (2008)

>  <Pubmed ID>
18249473

>  <DOI>
10.1016/j.ejmech.2007.10.034

$$$$
190171
Actelion Java MolfileCreator 1.0

 27 28  0  0  0  0  0  0  0  0999 V2000
    0.0000   -0.0000   -0.0000 O   0  0  0  0  0  0  0  0  0  0  0  0
   -1.0994   -0.6176   -0.0000 C   0  0  0  0  0  0  0  0  0  0  0  0
   -1.1117   -2.1741   -0.0000 C   0  0  0  0  0  0  0  0  0  0  0  0
   -2.4705    0.1729   -0.0000 C   0  0  0  0  0  0  0  0  0  0  0  0
    0.2347   -2.9399   -0.0000 C   0  0  0  0  0  0  0  0  0  0  0  0
   -2.4829    1.7541   -0.0000 C   0  0  0  0  0  0  0  0  0  0  0  0
    1.3094   -2.2976   -0.0000 O   0  0  0  0  0  0  0  0  0  0  0  0
    0.2223   -4.4963   -0.0000 C   0  0  0  0  0  0  0  0  0  0  0  0
   -3.8540    2.5446   -0.0000 C   0  0  0  0  0  0  0  0  0  0  0  0
    1.5688   -5.2622   -0.0000 C   0  0  0  0  0  0  0  0  0  0  0  0
   -5.2251    1.7664   -0.0000 C   0  0  0  0  0  0  0  0  0  0  0  0
   -3.8664    4.1258   -0.0000 C   0  0  0  0  0  0  0  0  0  0  0  0
    1.5564   -6.8186   -0.0000 C   0  0  0  0  0  0  0  0  0  0  0  0
   -6.5963    2.5570   -0.0000 C   0  0  0  0  0  0  0  0  0  0  0  0
   -5.2375    4.9163   -0.0000 C   0  0  0  0  0  0  0  0  0  0  0  0
    2.9029   -7.5845   -0.0000 C   0  0  0  0  0  0  0  0  0  0  0  0
    0.1853   -7.5845   -0.0000 C   0  0  0  0  0  0  0  0  0  0  0  0
   -7.9674    1.7788   -0.0000 O   0  0  0  0  0  0  0  0  0  0  0  0
   -6.6086    4.1381   -0.0000 C   0  0  0  0  0  0  0  0  0  0  0  0
    2.8905   -9.1409   -0.0000 C   0  0  0  0  0  0  0  0  0  0  0  0
    0.1729   -9.1409   -0.0000 C   0  0  0  0  0  0  0  0  0  0  0  0
   -7.9798    0.5312   -0.0000 C   0  0  0  0  0  0  0  0  0  0  0  0
   -7.7080    4.7681   -0.0000 O   0  0  0  0  0  0  0  0  0  0  0  0
    4.2369   -9.9068   -0.0000 O   0  0  0  0  0  0  0  0  0  0  0  0
    1.5194   -9.9068   -0.0000 C   0  0  0  0  0  0  0  0  0  0  0  0
    5.3116   -9.2644   -0.0000 C   0  0  0  0  0  0  0  0  0  0  0  0
    1.5070  -11.1544   -0.0000 O   0  0  0  0  0  0  0  0  0  0  0  0
  1  2  2  0  0  0  0
  2  3  1  0  0  0  0
  2  4  1  0  0  0  0
  3  5  2  0  0  0  0
  4  6  2  0  0  0  0
  5  7  1  0  0  0  0
  5  8  1  0  0  0  0
  6  9  1  0  0  0  0
  8 10  2  0  0  0  0
  9 11  2  0  0  0  0
  9 12  1  0  0  0  0
 10 13  1  0  0  0  0
 11 14  1  0  0  0  0
 12 15  2  0  0  0  0
 13 16  2  0  0  0  0
 13 17  1  0  0  0  0
 14 18  1  0  0  0  0
 14 19  2  0  0  0  0
 16 20  1  0  0  0  0
 17 21  2  0  0  0  0
 18 22  1  0  0  0  0
 19 23  1  0  0  0  0
 20 24  1  0  0  0  0
 20 25  2  0  0  0  0
 24 26  1  0  0  0  0
 25 27  1  0  0  0  0
 15 19  1  0  0  0  0
 21 25  1  0  0  0  0
M  END
>  <MolRegNo>
190171

>  <m>
=

>  <Value>
16300

>  <Unit>
nM

>  <Type>
IC50

>  <pValue>
4.79

>  <Ligand Efficiency>
0

>  <Binding Efficiency>
0

>  <Surface Efficiency>
0

>  <Assay Index>
346195

>  <Assay Category>


>  <Assay Organism>
Homo sapiens

>  <Target ID>
17045

>  <Target Name>
Cytochrome P450 3A4

>  <Target Organism>
Homo sapiens

>  <Target Description>
Target is a single protein chain

>  <Sequence Accession>
P08684

>  <Reference>
Eur J Med Chem 43 (8), 1621-1631 (2008)

>  <Pubmed ID>
18249473

>  <DOI>
10.1016/j.ejmech.2007.10.034

$$$$
493574
Actelion Java MolfileCreator 1.0

 18 20  0  0  0  0  0  0  0  0999 V2000
    0.0000   -0.0000   -0.0000 N   0  0  0  0  0  0  0  0  0  0  0  0
   -1.5034   -0.1421   -0.0000 C   0  0  0  0  0  0  0  0  0  0  0  0
    0.8760   -1.2075   -0.0000 C   0  0  0  0  0  0  0  0  0  0  0  0
   -2.3913    1.0773   -0.0000 N   0  0  0  0  0  0  0  0  0  0  0  0
   -2.1190   -1.4916   -0.0000 C   0  0  0  0  0  0  0  0  0  0  0  0
    0.2486   -2.5689   -0.0000 C   0  0  0  0  0  0  0  0  0  0  0  0
   -1.7994    2.4505   -0.0000 C   0  0  0  0  0  0  0  0  0  0  0  0
   -1.2548   -2.6991   -0.0000 C   0  0  0  0  0  0  0  0  0  0  0  0
   -3.5633   -1.9415   -0.0000 C   0  0  0  0  0  0  0  0  0  0  0  0
   -2.6873    3.6698   -0.0000 C   0  0  0  0  0  0  0  0  0  0  0  0
   -2.1427   -3.9066   -0.0000 N   0  0  0  0  0  0  0  0  0  0  0  0
   -3.5751   -3.4331   -0.0000 C   0  0  0  0  0  0  0  0  0  0  0  0
   -4.8655   -1.1838   -0.0000 C   0  0  0  0  0  0  0  0  0  0  0  0
   -2.0953    5.0430   -0.0000 C   0  0  0  0  0  0  0  0  0  0  0  0
   -4.8773   -4.1670   -0.0000 C   0  0  0  0  0  0  0  0  0  0  0  0
   -6.1677   -1.9178   -0.0000 C   0  0  0  0  0  0  0  0  0  0  0  0
   -2.9832    6.2624   -0.0000 C   0  0  0  0  0  0  0  0  0  0  0  0
   -6.1795   -3.4094   -0.0000 C   0  0  0  0  0  0  0  0  0  0  0  0
  1  2  2  0  0  0  0
  1  3  1  0  0  0  0
  2  4  1  0  0  0  0
  2  5  1  0  0  0  0
  3  6  2  0  0  0  0
  4  7  1  0  0  0  0
  5  8  2  0  0  0  0
  5  9  1  0  0  0  0
  7 10  1  0  0  0  0
  8 11  1  0  0  0  0
  9 12  2  0  0  0  0
  9 13  1  0  0  0  0
 10 14  1  0  0  0  0
 12 15  1  0  0  0  0
 13 16  2  0  0  0  0
 14 17  1  0  0  0  0
 15 18  2  0  0  0  0
  6  8  1  0  0  0  0
 11 12  1  0  0  0  0
 16 18  1  0  0  0  0
M  END
>  <MolRegNo>
493574

>  <m>
=

>  <Value>
100

>  <Unit>
nM

>  <Type>
IC50

>  <pValue>
7

>  <Ligand Efficiency>
0

>  <Binding Efficiency>
0

>  <Surface Efficiency>
0

>  <Assay Index>
345632

>  <Assay Category>


>  <Assay Organism>


>  <Target ID>
17045

>  <Target Name>
Cytochrome P450 3A4

>  <Target Organism>
Homo sapiens

>  <Target Description>
Target is a single protein chain

>  <Sequence Accession>
P08684

>  <Reference>
Bioorg Med Chem Lett 18 (18), 4936-4939 (2008)

>  <Pubmed ID>
18768319

>  <DOI>
10.1016/j.bmcl.2008.08.054

$$$$
473049
Actelion Java MolfileCreator 1.0

 32 35  0  0  0  0  0  0  0  0999 V2000
    0.0000   -0.0000   -0.0000 S   0  0  0  0  0  0  0  0  0  0  0  0
    0.8006   -1.2454   -0.0000 O   0  0  0  0  0  0  0  0  0  0  0  0
   -0.8362    1.2988   -0.0000 O   0  0  0  0  0  0  0  0  0  0  0  0
   -1.2988   -0.7829   -0.0000 N   0  0  0  0  0  0  0  0  0  0  0  0
    1.2454    0.8362   -0.0000 C   0  0  0  0  0  0  0  0  0  0  0  0
   -2.6510   -0.0534   -0.0000 C   0  0  0  0  0  0  0  0  0  0  0  0
   -1.2454   -2.2774   -0.0000 C   0  0  0  0  0  0  0  0  0  0  0  0
    1.2454    2.3486   -0.0000 C   0  0  0  0  0  0  0  0  0  0  0  0
   -3.9321   -0.8540   -0.0000 C   0  0  0  0  0  0  0  0  0  0  0  0
   -2.5443   -3.0780   -0.0000 C   0  0  0  0  0  0  0  0  0  0  0  0
    1.4412    4.6259   -0.0000 C   0  0  0  0  0  0  0  0  0  0  0  0
    2.4909    1.5301   -0.0000 C   0  0  0  0  0  0  0  0  0  0  0  0
   -0.1068    1.8148   -0.0000 C   0  0  0  0  0  0  0  0  0  0  0  0
   -3.8965   -2.3663   -0.0000 N   0  0  0  0  0  0  0  0  0  0  0  0
   -5.2665   -0.1423   -0.0000 C   0  0  0  0  0  0  0  0  0  0  0  0
    1.7970    3.4339   -0.0000 C   0  0  0  0  0  0  0  0  0  0  0  0
    1.7970    6.0849   -0.0000 C   0  0  0  0  0  0  0  0  0  0  0  0
    0.1245    5.3910   -0.0000 C   0  0  0  0  0  0  0  0  0  0  0  0
    2.8112    0.0890   -0.0000 O   0  0  0  0  0  0  0  0  0  0  0  0
    3.0424    2.5443   -0.0000 C   0  0  0  0  0  0  0  0  0  0  0  0
    0.6761    2.7756   -0.0000 C   0  0  0  0  0  0  0  0  0  0  0  0
   -5.1953   -3.1492   -0.0000 C   0  0  0  0  0  0  0  0  0  0  0  0
   -6.5475   -2.4375   -0.0000 N   0  0  0  0  0  0  0  0  0  0  0  0
   -5.1419   -4.6437   -0.0000 C   0  0  0  0  0  0  0  0  0  0  0  0
   -7.8463   -3.2204   -0.0000 C   0  0  0  0  0  0  0  0  0  0  0  0
   -3.8431   -5.3198   -0.0000 F   0  0  0  0  0  0  0  0  0  0  0  0
   -6.4407   -5.4266   -0.0000 C   0  0  0  0  0  0  0  0  0  0  0  0
   -7.7929   -4.7149   -0.0000 C   0  0  0  0  0  0  0  0  0  0  0  0
   -9.0740   -5.5156   -0.0000 C   0  0  0  0  0  0  0  0  0  0  0  0
  -10.4084   -6.2450   -0.0000 F   0  0  0  0  0  0  0  0  0  0  0  0
   -8.3089   -6.7966   -0.0000 F   0  0  0  0  0  0  0  0  0  0  0  0
   -9.8746   -4.1989   -0.0000 F   0  0  0  0  0  0  0  0  0  0  0  0
  1  2  2  0  0  0  0
  1  3  2  0  0  0  0
  1  4  1  0  0  0  0
  1  5  1  0  0  0  0
  4  6  1  0  0  0  0
  4  7  1  0  0  0  0
  8  5  1  1  0  0  0
  6  9  1  0  0  0  0
  7 10  1  0  0  0  0
  8 11  1  0  0  0  0
  8 12  1  0  0  0  0
  8 13  1  0  0  0  0
  9 14  1  0  0  0  0
  9 15  1  1  0  0  0
 11 16  1  0  0  0  0
 11 17  1  0  0  0  0
 11 18  1  0  0  0  0
 12 19  1  6  0  0  0
 12 20  1  0  0  0  0
 13 21  1  0  0  0  0
 14 22  1  0  0  0  0
 22 23  2  0  0  0  0
 22 24  1  0  0  0  0
 23 25  1  0  0  0  0
 24 26  1  0  0  0  0
 24 27  2  0  0  0  0
 25 28  2  0  0  0  0
 28 29  1  0  0  0  0
 29 30  1  0  0  0  0
 29 31  1  0  0  0  0
 29 32  1  0  0  0  0
 10 14  1  0  0  0  0
 16 20  1  1  0  0  0
 16 21  1  0  0  0  0
 27 28  1  0  0  0  0
M  END
>  <MolRegNo>
473049

>  <m>
=

>  <Value>
13600

>  <Unit>
nM

>  <Type>
IC50

>  <pValue>
4.87

>  <Ligand Efficiency>
0

>  <Binding Efficiency>
0

>  <Surface Efficiency>
0

>  <Assay Index>
409602

>  <Assay Category>


>  <Assay Organism>


>  <Target ID>
17045

>  <Target Name>
Cytochrome P450 3A4

>  <Target Organism>
Homo sapiens

>  <Target Description>
Target is a single protein chain

>  <Sequence Accession>
P08684

>  <Reference>
Bioorg Med Chem Lett 19 (1), 114-118 (2009)

>  <Pubmed ID>
19014886

>  <DOI>
10.1016/j.bmcl.2008.11.008

$$$$
472896
Actelion Java MolfileCreator 1.0

 32 35  0  0  0  0  0  0  0  0999 V2000
    0.0000   -0.0000   -0.0000 S   0  0  0  0  0  0  0  0  0  0  0  0
    0.8006   -1.2454   -0.0000 O   0  0  0  0  0  0  0  0  0  0  0  0
   -0.8362    1.2988   -0.0000 O   0  0  0  0  0  0  0  0  0  0  0  0
   -1.2988   -0.7829   -0.0000 N   0  0  0  0  0  0  0  0  0  0  0  0
    1.2454    0.8362   -0.0000 C   0  0  0  0  0  0  0  0  0  0  0  0
   -2.6510   -0.0534   -0.0000 C   0  0  0  0  0  0  0  0  0  0  0  0
   -1.2454   -2.2774   -0.0000 C   0  0  0  0  0  0  0  0  0  0  0  0
    1.2454    2.3486   -0.0000 C   0  0  0  0  0  0  0  0  0  0  0  0
   -3.9321   -0.8540   -0.0000 C   0  0  0  0  0  0  0  0  0  0  0  0
   -2.5443   -3.0780   -0.0000 C   0  0  0  0  0  0  0  0  0  0  0  0
    2.4909    1.5301   -0.0000 C   0  0  0  0  0  0  0  0  0  0  0  0
    1.4412    4.6259   -0.0000 C   0  0  0  0  0  0  0  0  0  0  0  0
   -0.1068    1.8148   -0.0000 C   0  0  0  0  0  0  0  0  0  0  0  0
   -3.8965   -2.3663   -0.0000 N   0  0  0  0  0  0  0  0  0  0  0  0
   -5.2665   -0.1423   -0.0000 C   0  0  0  0  0  0  0  0  0  0  0  0
    2.8112    0.0890   -0.0000 O   0  0  0  0  0  0  0  0  0  0  0  0
    3.0424    2.5443   -0.0000 C   0  0  0  0  0  0  0  0  0  0  0  0
    1.7970    3.4339   -0.0000 C   0  0  0  0  0  0  0  0  0  0  0  0
    1.7970    6.0849   -0.0000 C   0  0  0  0  0  0  0  0  0  0  0  0
    0.1245    5.3910   -0.0000 C   0  0  0  0  0  0  0  0  0  0  0  0
    0.6761    2.7756   -0.0000 C   0  0  0  0  0  0  0  0  0  0  0  0
   -5.1953   -3.1492   -0.0000 C   0  0  0  0  0  0  0  0  0  0  0  0
   -6.5475   -2.4375   -0.0000 N   0  0  0  0  0  0  0  0  0  0  0  0
   -5.1419   -4.6437   -0.0000 C   0  0  0  0  0  0  0  0  0  0  0  0
   -7.8463   -3.2204   -0.0000 C   0  0  0  0  0  0  0  0  0  0  0  0
   -3.8431   -5.3198   -0.0000 F   0  0  0  0  0  0  0  0  0  0  0  0
   -6.4407   -5.4266   -0.0000 C   0  0  0  0  0  0  0  0  0  0  0  0
   -7.7929   -4.7149   -0.0000 C   0  0  0  0  0  0  0  0  0  0  0  0
   -9.0740   -5.5156   -0.0000 C   0  0  0  0  0  0  0  0  0  0  0  0
  -10.4084   -6.2450   -0.0000 F   0  0  0  0  0  0  0  0  0  0  0  0
   -8.3089   -6.7966   -0.0000 F   0  0  0  0  0  0  0  0  0  0  0  0
   -9.8746   -4.1989   -0.0000 F   0  0  0  0  0  0  0  0  0  0  0  0
  1  2  2  0  0  0  0
  1  3  2  0  0  0  0
  1  4  1  0  0  0  0
  1  5  1  0  0  0  0
  4  6  1  0  0  0  0
  4  7  1  0  0  0  0
  8  5  1  6  0  0  0
  6  9  1  0  0  0  0
  7 10  1  0  0  0  0
  8 11  1  0  0  0  0
  8 12  1  0  0  0  0
  8 13  1  0  0  0  0
  9 14  1  0  0  0  0
  9 15  1  6  0  0  0
 11 16  2  0  0  0  0
 11 17  1  0  0  0  0
 12 18  1  0  0  0  0
 12 19  1  0  0  0  0
 12 20  1  0  0  0  0
 13 21  1  0  0  0  0
 14 22  1  0  0  0  0
 22 23  2  0  0  0  0
 22 24  1  0  0  0  0
 23 25  1  0  0  0  0
 24 26  1  0  0  0  0
 24 27  2  0  0  0  0
 25 28  2  0  0  0  0
 28 29  1  0  0  0  0
 29 30  1  0  0  0  0
 29 31  1  0  0  0  0
 29 32  1  0  0  0  0
 10 14  1  0  0  0  0
 18 17  1  6  0  0  0
 18 21  1  0  0  0  0
 27 28  1  0  0  0  0
M  END
>  <MolRegNo>
472896

>  <m>
=

>  <Value>
320

>  <Unit>
nM

>  <Type>
IC50

>  <pValue>
6.5

>  <Ligand Efficiency>
0

>  <Binding Efficiency>
0

>  <Surface Efficiency>
0

>  <Assay Index>
409601

>  <Assay Category>


>  <Assay Organism>


>  <Target ID>
17045

>  <Target Name>
Cytochrome P450 3A4

>  <Target Organism>
Homo sapiens

>  <Target Description>
Target is a single protein chain

>  <Sequence Accession>
P08684

>  <Reference>
Bioorg Med Chem Lett 19 (1), 114-118 (2009)

>  <Pubmed ID>
19014886

>  <DOI>
10.1016/j.bmcl.2008.11.008

$$$$
472562
Actelion Java MolfileCreator 1.0

 36 38  0  0  0  0  0  0  0  0999 V2000
    0.0000   -0.0000   -0.0000 Cl  0  0  0  0  0  0  0  0  0  0  0  0
    1.3159   -0.7113   -0.0000 C   0  0  0  0  0  0  0  0  0  0  0  0
    2.5845    0.0830   -0.0000 C   0  0  0  0  0  0  0  0  0  0  0  0
    1.3397   -2.2051   -0.0000 C   0  0  0  0  0  0  0  0  0  0  0  0
    2.5370    1.6005   -0.0000 C   0  0  0  0  0  0  0  0  0  0  0  0
    3.9004   -0.6046   -0.0000 C   0  0  0  0  0  0  0  0  0  0  0  0
    2.6556   -2.9164   -0.0000 C   0  0  0  0  0  0  0  0  0  0  0  0
    1.1974    2.3355   -0.0000 O   0  0  0  0  0  0  0  0  0  0  0  0
    3.8056    2.3948   -0.0000 N   0  0  0  0  0  0  0  0  0  0  0  0
    3.9360   -2.0984   -0.0000 C   0  0  0  0  0  0  0  0  0  0  0  0
    3.7582    3.9123   -0.0000 C   0  0  0  0  0  0  0  0  0  0  0  0
    5.1215    1.6953   -0.0000 C   0  0  0  0  0  0  0  0  0  0  0  0
    5.0267    4.7066   -0.0000 C   0  0  0  0  0  0  0  0  0  0  0  0
    5.1452    0.2015   -0.0000 C   0  0  0  0  0  0  0  0  0  0  0  0
    5.8091    3.4381   -0.0000 O   0  0  0  0  0  0  0  0  0  0  0  0
    4.2205    5.9988   -0.0000 C   0  0  0  0  0  0  0  0  0  0  0  0
    6.2833    5.5246   -0.0000 C   0  0  0  0  0  0  0  0  0  0  0  0
    3.4025    7.3029   -0.0000 F   0  0  0  0  0  0  0  0  0  0  0  0
    5.4890    6.8050   -0.0000 F   0  0  0  0  0  0  0  0  0  0  0  0
    2.9401    5.2045   -0.0000 F   0  0  0  0  0  0  0  0  0  0  0  0
    7.5993    4.8370   -0.0000 N   0  0  0  0  0  0  0  0  0  0  0  0
    8.8560    5.6550   -0.0000 C   0  0  0  0  0  0  0  0  0  0  0  0
    8.7848    7.1725   -0.0000 O   0  0  0  0  0  0  0  0  0  0  0  0
   10.1719    4.9674   -0.0000 C   0  0  0  0  0  0  0  0  0  0  0  0
   10.3853    3.4973   -0.0000 C   0  0  0  0  0  0  0  0  0  0  0  0
   11.5116    5.6550   -0.0000 C   0  0  0  0  0  0  0  0  0  0  0  0
   11.8554    3.2484   -0.0000 N   0  0  0  0  0  0  0  0  0  0  0  0
    9.2946    2.4541   -0.0000 N   0  0  0  0  0  0  0  0  0  0  0  0
   12.5548    4.5880   -0.0000 N   0  0  0  0  0  0  0  0  0  0  0  0
   12.5074    1.9087   -0.0000 C   0  0  0  0  0  0  0  0  0  0  0  0
   11.6538    0.6758   -0.0000 C   0  0  0  0  0  0  0  0  0  0  0  0
   13.9893    1.8257   -0.0000 C   0  0  0  0  0  0  0  0  0  0  0  0
   12.3059   -0.6639   -0.0000 C   0  0  0  0  0  0  0  0  0  0  0  0
   14.6414    0.4979   -0.0000 C   0  0  0  0  0  0  0  0  0  0  0  0
   13.7997   -0.7469   -0.0000 C   0  0  0  0  0  0  0  0  0  0  0  0
   14.4517   -2.0865   -0.0000 F   0  0  0  0  0  0  0  0  0  0  0  0
  1  2  1  0  0  0  0
  2  3  2  0  0  0  0
  2  4  1  0  0  0  0
  3  5  1  0  0  0  0
  3  6  1  0  0  0  0
  4  7  2  0  0  0  0
  5  8  2  0  0  0  0
  5  9  1  0  0  0  0
  6 10  2  0  0  0  0
  9 11  1  0  0  0  0
  9 12  1  0  0  0  0
 11 13  1  0  0  0  0
 12 14  1  0  0  0  0
 13 15  1  0  0  0  0
 13 16  1  0  0  0  0
 13 17  1  0  0  0  0
 16 18  1  0  0  0  0
 16 19  1  0  0  0  0
 16 20  1  0  0  0  0
 17 21  1  0  0  0  0
 21 22  1  0  0  0  0
 22 23  2  0  0  0  0
 22 24  1  0  0  0  0
 24 25  2  0  0  0  0
 24 26  1  0  0  0  0
 25 27  1  0  0  0  0
 25 28  1  0  0  0  0
 26 29  2  0  0  0  0
 27 30  1  0  0  0  0
 30 31  2  0  0  0  0
 30 32  1  0  0  0  0
 31 33  1  0  0  0  0
 32 34  2  0  0  0  0
 33 35  2  0  0  0  0
 35 36  1  0  0  0  0
  7 10  1  0  0  0  0
 27 29  1  0  0  0  0
 34 35  1  0  0  0  0
M  END
>  <MolRegNo>
472562

>  <m>
=

>  <Value>
2000

>  <Unit>
nM

>  <Type>
IC50

>  <pValue>
5.7

>  <Ligand Efficiency>
0

>  <Binding Efficiency>
0

>  <Surface Efficiency>
0

>  <Assay Index>
407329

>  <Assay Category>


>  <Assay Organism>


>  <Target ID>
17045

>  <Target Name>
Cytochrome P450 3A4

>  <Target Organism>
Homo sapiens

>  <Target Description>
Target is a single protein chain

>  <Sequence Accession>
P08684

>  <Reference>
Bioorg Med Chem Lett 19 (1), 158-162 (2009)

>  <Pubmed ID>
19019676

>  <DOI>
10.1016/j.bmcl.2008.10.128

$$$$
472564
Actelion Java MolfileCreator 1.0

 39 41  0  0  0  0  0  0  0  0999 V2000
    0.0000   -0.0000   -0.0000 S   0  0  0  0  0  0  0  0  0  0  0  0
   -0.7463   -1.3031   -0.0000 O   0  0  0  0  0  0  0  0  0  0  0  0
    0.7345    1.3149   -0.0000 O   0  0  0  0  0  0  0  0  0  0  0  0
    1.3149   -0.7108   -0.0000 C   0  0  0  0  0  0  0  0  0  0  0  0
   -1.3149    0.7700   -0.0000 C   0  0  0  0  0  0  0  0  0  0  0  0
    2.5825    0.0829   -0.0000 C   0  0  0  0  0  0  0  0  0  0  0  0
    1.3386   -2.2034   -0.0000 C   0  0  0  0  0  0  0  0  0  0  0  0
    2.5351    1.5993   -0.0000 C   0  0  0  0  0  0  0  0  0  0  0  0
    3.8974   -0.6042   -0.0000 C   0  0  0  0  0  0  0  0  0  0  0  0
    2.6536   -2.9142   -0.0000 C   0  0  0  0  0  0  0  0  0  0  0  0
    1.1965    2.3337   -0.0000 O   0  0  0  0  0  0  0  0  0  0  0  0
    3.8027    2.3930   -0.0000 N   0  0  0  0  0  0  0  0  0  0  0  0
    3.9330   -2.0968   -0.0000 C   0  0  0  0  0  0  0  0  0  0  0  0
    3.7553    3.9093   -0.0000 C   0  0  0  0  0  0  0  0  0  0  0  0
    5.1176    1.6822   -0.0000 C   0  0  0  0  0  0  0  0  0  0  0  0
    5.0228    4.7148   -0.0000 C   0  0  0  0  0  0  0  0  0  0  0  0
    5.1413    0.1895   -0.0000 C   0  0  0  0  0  0  0  0  0  0  0  0
    5.8047    3.4473   -0.0000 O   0  0  0  0  0  0  0  0  0  0  0  0
    4.2173    6.0061   -0.0000 C   0  0  0  0  0  0  0  0  0  0  0  0
    6.2785    5.5322   -0.0000 C   0  0  0  0  0  0  0  0  0  0  0  0
    3.3999    7.3092   -0.0000 F   0  0  0  0  0  0  0  0  0  0  0  0
    5.4848    6.8116   -0.0000 F   0  0  0  0  0  0  0  0  0  0  0  0
    2.9379    5.2124   -0.0000 F   0  0  0  0  0  0  0  0  0  0  0  0
    7.5935    4.8451   -0.0000 N   0  0  0  0  0  0  0  0  0  0  0  0
    8.8492    5.6625   -0.0000 C   0  0  0  0  0  0  0  0  0  0  0  0
    8.7781    7.1789   -0.0000 O   0  0  0  0  0  0  0  0  0  0  0  0
   10.1641    4.9755   -0.0000 C   0  0  0  0  0  0  0  0  0  0  0  0
   10.3774    3.5065   -0.0000 C   0  0  0  0  0  0  0  0  0  0  0  0
   11.5028    5.6625   -0.0000 C   0  0  0  0  0  0  0  0  0  0  0  0
   11.8463    3.2577   -0.0000 N   0  0  0  0  0  0  0  0  0  0  0  0
    9.2875    2.4640   -0.0000 N   0  0  0  0  0  0  0  0  0  0  0  0
   12.5452    4.5964   -0.0000 N   0  0  0  0  0  0  0  0  0  0  0  0
   12.4979    1.9191   -0.0000 C   0  0  0  0  0  0  0  0  0  0  0  0
   11.6449    0.6871   -0.0000 C   0  0  0  0  0  0  0  0  0  0  0  0
   13.9786    1.8362   -0.0000 C   0  0  0  0  0  0  0  0  0  0  0  0
   12.2965   -0.6515   -0.0000 C   0  0  0  0  0  0  0  0  0  0  0  0
   14.6302    0.5094   -0.0000 C   0  0  0  0  0  0  0  0  0  0  0  0
   13.7891   -0.7345   -0.0000 C   0  0  0  0  0  0  0  0  0  0  0  0
   14.4407   -2.0731   -0.0000 F   0  0  0  0  0  0  0  0  0  0  0  0
  1  2  2  0  0  0  0
  1  3  2  0  0  0  0
  1  4  1  0  0  0  0
  1  5  1  0  0  0  0
  4  6  2  0  0  0  0
  4  7  1  0  0  0  0
  6  8  1  0  0  0  0
  6  9  1  0  0  0  0
  7 10  2  0  0  0  0
  8 11  2  0  0  0  0
  8 12  1  0  0  0  0
  9 13  2  0  0  0  0
 12 14  1  0  0  0  0
 12 15  1  0  0  0  0
 14 16  1  0  0  0  0
 15 17  1  0  0  0  0
 16 18  1  0  0  0  0
 16 19  1  0  0  0  0
 16 20  1  0  0  0  0
 19 21  1  0  0  0  0
 19 22  1  0  0  0  0
 19 23  1  0  0  0  0
 20 24  1  0  0  0  0
 24 25  1  0  0  0  0
 25 26  2  0  0  0  0
 25 27  1  0  0  0  0
 27 28  2  0  0  0  0
 27 29  1  0  0  0  0
 28 30  1  0  0  0  0
 28 31  1  0  0  0  0
 29 32  2  0  0  0  0
 30 33  1  0  0  0  0
 33 34  2  0  0  0  0
 33 35  1  0  0  0  0
 34 36  1  0  0  0  0
 35 37  2  0  0  0  0
 36 38  2  0  0  0  0
 38 39  1  0  0  0  0
 10 13  1  0  0  0  0
 30 32  1  0  0  0  0
 37 38  1  0  0  0  0
M  END
>  <MolRegNo>
472564

>  <m>
=

>  <Value>
3000

>  <Unit>
nM

>  <Type>
IC50

>  <pValue>
5.52

>  <Ligand Efficiency>
0

>  <Binding Efficiency>
0

>  <Surface Efficiency>
0

>  <Assay Index>
407329

>  <Assay Category>


>  <Assay Organism>


>  <Target ID>
17045

>  <Target Name>
Cytochrome P450 3A4

>  <Target Organism>
Homo sapiens

>  <Target Description>
Target is a single protein chain

>  <Sequence Accession>
P08684

>  <Reference>
Bioorg Med Chem Lett 19 (1), 158-162 (2009)

>  <Pubmed ID>
19019676

>  <DOI>
10.1016/j.bmcl.2008.10.128

$$$$
472565
Actelion Java MolfileCreator 1.0

 37 39  0  0  0  0  0  0  0  0999 V2000
    0.0000   -0.0000   -0.0000 Cl  0  0  0  0  0  0  0  0  0  0  0  0
    1.3153   -0.7110   -0.0000 C   0  0  0  0  0  0  0  0  0  0  0  0
    2.5831    0.0829   -0.0000 C   0  0  0  0  0  0  0  0  0  0  0  0
    1.3390   -2.2040   -0.0000 C   0  0  0  0  0  0  0  0  0  0  0  0
    3.8984   -0.6043   -0.0000 C   0  0  0  0  0  0  0  0  0  0  0  0
    2.5357    1.5996   -0.0000 C   0  0  0  0  0  0  0  0  0  0  0  0
    2.6542   -2.9149   -0.0000 C   0  0  0  0  0  0  0  0  0  0  0  0
    5.1663    0.2014   -0.0000 Cl  0  0  0  0  0  0  0  0  0  0  0  0
    3.9339   -2.0973   -0.0000 C   0  0  0  0  0  0  0  0  0  0  0  0
    1.1968    2.3343   -0.0000 O   0  0  0  0  0  0  0  0  0  0  0  0
    3.8036    2.4054   -0.0000 N   0  0  0  0  0  0  0  0  0  0  0  0
    3.7562    3.9221   -0.0000 C   0  0  0  0  0  0  0  0  0  0  0  0
    5.1189    1.6944   -0.0000 C   0  0  0  0  0  0  0  0  0  0  0  0
    5.0241    4.7278   -0.0000 C   0  0  0  0  0  0  0  0  0  0  0  0
    6.3867    2.5002   -0.0000 C   0  0  0  0  0  0  0  0  0  0  0  0
    5.8061    3.4600   -0.0000 O   0  0  0  0  0  0  0  0  0  0  0  0
    4.2183    6.0194   -0.0000 C   0  0  0  0  0  0  0  0  0  0  0  0
    6.2801    5.5454   -0.0000 C   0  0  0  0  0  0  0  0  0  0  0  0
    3.4007    7.3228   -0.0000 F   0  0  0  0  0  0  0  0  0  0  0  0
    5.4862    6.8252   -0.0000 F   0  0  0  0  0  0  0  0  0  0  0  0
    2.9386    5.2255   -0.0000 F   0  0  0  0  0  0  0  0  0  0  0  0
    7.5954    4.8582   -0.0000 N   0  0  0  0  0  0  0  0  0  0  0  0
    8.8514    5.6758   -0.0000 C   0  0  0  0  0  0  0  0  0  0  0  0
    8.7803    7.1925   -0.0000 O   0  0  0  0  0  0  0  0  0  0  0  0
   10.1666    4.9885   -0.0000 C   0  0  0  0  0  0  0  0  0  0  0  0
   10.3799    3.5192   -0.0000 C   0  0  0  0  0  0  0  0  0  0  0  0
   11.5056    5.6758   -0.0000 C   0  0  0  0  0  0  0  0  0  0  0  0
   11.8492    3.2704   -0.0000 N   0  0  0  0  0  0  0  0  0  0  0  0
    9.2898    2.4765   -0.0000 N   0  0  0  0  0  0  0  0  0  0  0  0
   12.5483    4.6094   -0.0000 N   0  0  0  0  0  0  0  0  0  0  0  0
   12.5009    1.9314   -0.0000 C   0  0  0  0  0  0  0  0  0  0  0  0
   11.6478    0.6991   -0.0000 C   0  0  0  0  0  0  0  0  0  0  0  0
   13.9821    1.8485   -0.0000 C   0  0  0  0  0  0  0  0  0  0  0  0
   12.2995   -0.6399   -0.0000 C   0  0  0  0  0  0  0  0  0  0  0  0
   14.6338    0.5214   -0.0000 C   0  0  0  0  0  0  0  0  0  0  0  0
   13.7925   -0.7228   -0.0000 C   0  0  0  0  0  0  0  0  0  0  0  0
   14.4442   -2.0618   -0.0000 F   0  0  0  0  0  0  0  0  0  0  0  0
  1  2  1  0  0  0  0
  2  3  2  0  0  0  0
  2  4  1  0  0  0  0
  3  5  1  0  0  0  0
  3  6  1  0  0  0  0
  4  7  2  0  0  0  0
  5  8  1  0  0  0  0
  5  9  2  0  0  0  0
  6 10  2  0  0  0  0
  6 11  1  0  0  0  0
 11 12  1  0  0  0  0
 11 13  1  0  0  0  0
 12 14  1  0  0  0  0
 13 15  1  0  0  0  0
 14 16  1  0  0  0  0
 14 17  1  0  0  0  0
 14 18  1  0  0  0  0
 17 19  1  0  0  0  0
 17 20  1  0  0  0  0
 17 21  1  0  0  0  0
 18 22  1  0  0  0  0
 22 23  1  0  0  0  0
 23 24  2  0  0  0  0
 23 25  1  0  0  0  0
 25 26  2  0  0  0  0
 25 27  1  0  0  0  0
 26 28  1  0  0  0  0
 26 29  1  0  0  0  0
 27 30  2  0  0  0  0
 28 31  1  0  0  0  0
 31 32  2  0  0  0  0
 31 33  1  0  0  0  0
 32 34  1  0  0  0  0
 33 35  2  0  0  0  0
 34 36  2  0  0  0  0
 36 37  1  0  0  0  0
  7  9  1  0  0  0  0
 28 30  1  0  0  0  0
 35 36  1  0  0  0  0
M  END
>  <MolRegNo>
472565

>  <m>
=

>  <Value>
700

>  <Unit>
nM

>  <Type>
IC50

>  <pValue>
6.16

>  <Ligand Efficiency>
0

>  <Binding Efficiency>
0

>  <Surface Efficiency>
0

>  <Assay Index>
407329

>  <Assay Category>


>  <Assay Organism>


>  <Target ID>
17045

>  <Target Name>
Cytochrome P450 3A4

>  <Target Organism>
Homo sapiens

>  <Target Description>
Target is a single protein chain

>  <Sequence Accession>
P08684

>  <Reference>
Bioorg Med Chem Lett 19 (1), 158-162 (2009)

>  <Pubmed ID>
19019676

>  <DOI>
10.1016/j.bmcl.2008.10.128

$$$$
472664
Actelion Java MolfileCreator 1.0

 37 39  0  0  0  0  0  0  0  0999 V2000
    0.0000   -0.0000   -0.0000 F   0  0  0  0  0  0  0  0  0  0  0  0
    1.3153   -0.7110   -0.0000 C   0  0  0  0  0  0  0  0  0  0  0  0
    2.5831    0.0829   -0.0000 C   0  0  0  0  0  0  0  0  0  0  0  0
    1.3390   -2.2040   -0.0000 C   0  0  0  0  0  0  0  0  0  0  0  0
    3.8984   -0.6043   -0.0000 C   0  0  0  0  0  0  0  0  0  0  0  0
    2.5357    1.5996   -0.0000 C   0  0  0  0  0  0  0  0  0  0  0  0
    2.6542   -2.9149   -0.0000 C   0  0  0  0  0  0  0  0  0  0  0  0
    5.1663    0.2014   -0.0000 F   0  0  0  0  0  0  0  0  0  0  0  0
    3.9339   -2.0973   -0.0000 C   0  0  0  0  0  0  0  0  0  0  0  0
    1.1968    2.3343   -0.0000 O   0  0  0  0  0  0  0  0  0  0  0  0
    3.8036    2.4054   -0.0000 N   0  0  0  0  0  0  0  0  0  0  0  0
    3.7562    3.9221   -0.0000 C   0  0  0  0  0  0  0  0  0  0  0  0
    5.1189    1.6944   -0.0000 C   0  0  0  0  0  0  0  0  0  0  0  0
    5.0241    4.7278   -0.0000 C   0  0  0  0  0  0  0  0  0  0  0  0
    6.3867    2.5002   -0.0000 C   0  0  0  0  0  0  0  0  0  0  0  0
    5.8061    3.4600   -0.0000 O   0  0  0  0  0  0  0  0  0  0  0  0
    4.2183    6.0194   -0.0000 C   0  0  0  0  0  0  0  0  0  0  0  0
    6.2801    5.5454   -0.0000 C   0  0  0  0  0  0  0  0  0  0  0  0
    3.4007    7.3228   -0.0000 F   0  0  0  0  0  0  0  0  0  0  0  0
    5.4862    6.8252   -0.0000 F   0  0  0  0  0  0  0  0  0  0  0  0
    2.9386    5.2255   -0.0000 F   0  0  0  0  0  0  0  0  0  0  0  0
    7.5954    4.8582   -0.0000 N   0  0  0  0  0  0  0  0  0  0  0  0
    8.8514    5.6758   -0.0000 C   0  0  0  0  0  0  0  0  0  0  0  0
    8.7803    7.1925   -0.0000 O   0  0  0  0  0  0  0  0  0  0  0  0
   10.1666    4.9885   -0.0000 C   0  0  0  0  0  0  0  0  0  0  0  0
   10.3799    3.5192   -0.0000 C   0  0  0  0  0  0  0  0  0  0  0  0
   11.5056    5.6758   -0.0000 C   0  0  0  0  0  0  0  0  0  0  0  0
   11.8492    3.2704   -0.0000 N   0  0  0  0  0  0  0  0  0  0  0  0
    9.2898    2.4765   -0.0000 N   0  0  0  0  0  0  0  0  0  0  0  0
   12.5483    4.6094   -0.0000 N   0  0  0  0  0  0  0  0  0  0  0  0
   12.5009    1.9314   -0.0000 C   0  0  0  0  0  0  0  0  0  0  0  0
   11.6478    0.6991   -0.0000 C   0  0  0  0  0  0  0  0  0  0  0  0
   13.9821    1.8485   -0.0000 C   0  0  0  0  0  0  0  0  0  0  0  0
   12.2995   -0.6399   -0.0000 C   0  0  0  0  0  0  0  0  0  0  0  0
   14.6338    0.5214   -0.0000 C   0  0  0  0  0  0  0  0  0  0  0  0
   13.7925   -0.7228   -0.0000 C   0  0  0  0  0  0  0  0  0  0  0  0
   14.4442   -2.0618   -0.0000 F   0  0  0  0  0  0  0  0  0  0  0  0
  1  2  1  0  0  0  0
  2  3  2  0  0  0  0
  2  4  1  0  0  0  0
  3  5  1  0  0  0  0
  3  6  1  0  0  0  0
  4  7  2  0  0  0  0
  5  8  1  0  0  0  0
  5  9  2  0  0  0  0
  6 10  2  0  0  0  0
  6 11  1  0  0  0  0
 11 12  1  0  0  0  0
 11 13  1  0  0  0  0
 12 14  1  0  0  0  0
 13 15  1  0  0  0  0
 14 16  1  0  0  0  0
 14 17  1  0  0  0  0
 14 18  1  0  0  0  0
 17 19  1  0  0  0  0
 17 20  1  0  0  0  0
 17 21  1  0  0  0  0
 18 22  1  0  0  0  0
 22 23  1  0  0  0  0
 23 24  2  0  0  0  0
 23 25  1  0  0  0  0
 25 26  2  0  0  0  0
 25 27  1  0  0  0  0
 26 28  1  0  0  0  0
 26 29  1  0  0  0  0
 27 30  2  0  0  0  0
 28 31  1  0  0  0  0
 31 32  2  0  0  0  0
 31 33  1  0  0  0  0
 32 34  1  0  0  0  0
 33 35  2  0  0  0  0
 34 36  2  0  0  0  0
 36 37  1  0  0  0  0
  7  9  1  0  0  0  0
 28 30  1  0  0  0  0
 35 36  1  0  0  0  0
M  END
>  <MolRegNo>
472664

>  <m>
=

>  <Value>
2000

>  <Unit>
nM

>  <Type>
IC50

>  <pValue>
5.7

>  <Ligand Efficiency>
0

>  <Binding Efficiency>
0

>  <Surface Efficiency>
0

>  <Assay Index>
407329

>  <Assay Category>


>  <Assay Organism>


>  <Target ID>
17045

>  <Target Name>
Cytochrome P450 3A4

>  <Target Organism>
Homo sapiens

>  <Target Description>
Target is a single protein chain

>  <Sequence Accession>
P08684

>  <Reference>
Bioorg Med Chem Lett 19 (1), 158-162 (2009)

>  <Pubmed ID>
19019676

>  <DOI>
10.1016/j.bmcl.2008.10.128

$$$$
472901
Actelion Java MolfileCreator 1.0

 36 38  0  0  0  0  0  0  0  0999 V2000
    0.0000   -0.0000   -0.0000 Cl  0  0  0  0  0  0  0  0  0  0  0  0
    1.3155   -0.7111   -0.0000 C   0  0  0  0  0  0  0  0  0  0  0  0
    2.5835    0.0830   -0.0000 C   0  0  0  0  0  0  0  0  0  0  0  0
    1.3392   -2.2043   -0.0000 C   0  0  0  0  0  0  0  0  0  0  0  0
    3.8990   -0.6044   -0.0000 N   0  0  0  0  0  0  0  0  0  0  0  0
    2.5361    1.5999   -0.0000 C   0  0  0  0  0  0  0  0  0  0  0  0
    2.6546   -2.9153   -0.0000 C   0  0  0  0  0  0  0  0  0  0  0  0
    3.9345   -2.0976   -0.0000 C   0  0  0  0  0  0  0  0  0  0  0  0
    1.1970    2.3346   -0.0000 O   0  0  0  0  0  0  0  0  0  0  0  0
    3.8042    2.3939   -0.0000 N   0  0  0  0  0  0  0  0  0  0  0  0
    3.7568    3.9108   -0.0000 C   0  0  0  0  0  0  0  0  0  0  0  0
    5.1196    1.6828   -0.0000 C   0  0  0  0  0  0  0  0  0  0  0  0
    5.0248    4.7167   -0.0000 C   0  0  0  0  0  0  0  0  0  0  0  0
    6.3877    2.4887   -0.0000 C   0  0  0  0  0  0  0  0  0  0  0  0
    5.8070    3.4486   -0.0000 O   0  0  0  0  0  0  0  0  0  0  0  0
    4.2190    6.0085   -0.0000 C   0  0  0  0  0  0  0  0  0  0  0  0
    6.2810    5.5344   -0.0000 C   0  0  0  0  0  0  0  0  0  0  0  0
    3.4012    7.3121   -0.0000 F   0  0  0  0  0  0  0  0  0  0  0  0
    5.4870    6.8143   -0.0000 F   0  0  0  0  0  0  0  0  0  0  0  0
    2.9391    5.2144   -0.0000 F   0  0  0  0  0  0  0  0  0  0  0  0
    7.5965    4.8471   -0.0000 N   0  0  0  0  0  0  0  0  0  0  0  0
    8.8527    5.6648   -0.0000 C   0  0  0  0  0  0  0  0  0  0  0  0
    8.7816    7.1817   -0.0000 O   0  0  0  0  0  0  0  0  0  0  0  0
   10.1682    4.9774   -0.0000 C   0  0  0  0  0  0  0  0  0  0  0  0
   10.3815    3.5079   -0.0000 C   0  0  0  0  0  0  0  0  0  0  0  0
   11.5073    5.6648   -0.0000 C   0  0  0  0  0  0  0  0  0  0  0  0
   11.8510    3.2590   -0.0000 N   0  0  0  0  0  0  0  0  0  0  0  0
    9.2912    2.4650   -0.0000 N   0  0  0  0  0  0  0  0  0  0  0  0
   12.5502    4.5982   -0.0000 N   0  0  0  0  0  0  0  0  0  0  0  0
   12.5028    1.9199   -0.0000 C   0  0  0  0  0  0  0  0  0  0  0  0
   11.6495    0.6874   -0.0000 C   0  0  0  0  0  0  0  0  0  0  0  0
   13.9842    1.8369   -0.0000 C   0  0  0  0  0  0  0  0  0  0  0  0
   12.3013   -0.6518   -0.0000 C   0  0  0  0  0  0  0  0  0  0  0  0
   14.6360    0.5096   -0.0000 C   0  0  0  0  0  0  0  0  0  0  0  0
   13.7946   -0.7348   -0.0000 C   0  0  0  0  0  0  0  0  0  0  0  0
   14.4464   -2.0739   -0.0000 F   0  0  0  0  0  0  0  0  0  0  0  0
  1  2  1  0  0  0  0
  2  3  2  0  0  0  0
  2  4  1  0  0  0  0
  3  5  1  0  0  0  0
  3  6  1  0  0  0  0
  4  7  2  0  0  0  0
  5  8  2  0  0  0  0
  6  9  2  0  0  0  0
  6 10  1  0  0  0  0
 10 11  1  0  0  0  0
 10 12  1  0  0  0  0
 11 13  1  0  0  0  0
 12 14  1  0  0  0  0
 13 15  1  0  0  0  0
 13 16  1  0  0  0  0
 13 17  1  0  0  0  0
 16 18  1  0  0  0  0
 16 19  1  0  0  0  0
 16 20  1  0  0  0  0
 17 21  1  0  0  0  0
 21 22  1  0  0  0  0
 22 23  2  0  0  0  0
 22 24  1  0  0  0  0
 24 25  2  0  0  0  0
 24 26  1  0  0  0  0
 25 27  1  0  0  0  0
 25 28  1  0  0  0  0
 26 29  2  0  0  0  0
 27 30  1  0  0  0  0
 30 31  2  0  0  0  0
 30 32  1  0  0  0  0
 31 33  1  0  0  0  0
 32 34  2  0  0  0  0
 33 35  2  0  0  0  0
 35 36  1  0  0  0  0
  7  8  1  0  0  0  0
 27 29  1  0  0  0  0
 34 35  1  0  0  0  0
M  END
>  <MolRegNo>
472901

>  <m>
=

>  <Value>
4000

>  <Unit>
nM

>  <Type>
IC50

>  <pValue>
5.4

>  <Ligand Efficiency>
0

>  <Binding Efficiency>
0

>  <Surface Efficiency>
0

>  <Assay Index>
407329

>  <Assay Category>


>  <Assay Organism>


>  <Target ID>
17045

>  <Target Name>
Cytochrome P450 3A4

>  <Target Organism>
Homo sapiens

>  <Target Description>
Target is a single protein chain

>  <Sequence Accession>
P08684

>  <Reference>
Bioorg Med Chem Lett 19 (1), 158-162 (2009)

>  <Pubmed ID>
19019676

>  <DOI>
10.1016/j.bmcl.2008.10.128

$$$$
472975
Actelion Java MolfileCreator 1.0

 36 38  0  0  0  0  0  0  0  0999 V2000
    0.0000   -0.0000   -0.0000 F   0  0  0  0  0  0  0  0  0  0  0  0
    1.3157   -0.6993   -0.0000 C   0  0  0  0  0  0  0  0  0  0  0  0
    2.5840    0.1067   -0.0000 C   0  0  0  0  0  0  0  0  0  0  0  0
    1.3394   -2.1929   -0.0000 C   0  0  0  0  0  0  0  0  0  0  0  0
    3.8998   -0.5927   -0.0000 C   0  0  0  0  0  0  0  0  0  0  0  0
    2.5366    1.6239   -0.0000 C   0  0  0  0  0  0  0  0  0  0  0  0
    2.6552   -2.9041   -0.0000 C   0  0  0  0  0  0  0  0  0  0  0  0
    5.1681    0.2134   -0.0000 F   0  0  0  0  0  0  0  0  0  0  0  0
    3.9353   -2.0862   -0.0000 C   0  0  0  0  0  0  0  0  0  0  0  0
    1.1972    2.3470   -0.0000 O   0  0  0  0  0  0  0  0  0  0  0  0
    3.8049    2.4181   -0.0000 N   0  0  0  0  0  0  0  0  0  0  0  0
    3.7575    3.9353   -0.0000 C   0  0  0  0  0  0  0  0  0  0  0  0
    5.1207    1.7187   -0.0000 C   0  0  0  0  0  0  0  0  0  0  0  0
    5.0258    4.7295   -0.0000 C   0  0  0  0  0  0  0  0  0  0  0  0
    5.8081    3.4612   -0.0000 O   0  0  0  0  0  0  0  0  0  0  0  0
    4.2198    6.0215   -0.0000 C   0  0  0  0  0  0  0  0  0  0  0  0
    6.2823    5.5474   -0.0000 C   0  0  0  0  0  0  0  0  0  0  0  0
    3.4019    7.3254   -0.0000 F   0  0  0  0  0  0  0  0  0  0  0  0
    5.4881    6.8275   -0.0000 F   0  0  0  0  0  0  0  0  0  0  0  0
    2.9396    5.2273   -0.0000 F   0  0  0  0  0  0  0  0  0  0  0  0
    7.5980    4.8599   -0.0000 N   0  0  0  0  0  0  0  0  0  0  0  0
    8.8545    5.6778   -0.0000 C   0  0  0  0  0  0  0  0  0  0  0  0
    8.7833    7.1950   -0.0000 O   0  0  0  0  0  0  0  0  0  0  0  0
   10.1702    4.9903   -0.0000 C   0  0  0  0  0  0  0  0  0  0  0  0
   10.3835    3.5205   -0.0000 C   0  0  0  0  0  0  0  0  0  0  0  0
   11.5096    5.6778   -0.0000 C   0  0  0  0  0  0  0  0  0  0  0  0
   11.8534    3.2715   -0.0000 N   0  0  0  0  0  0  0  0  0  0  0  0
    9.2930    2.4774   -0.0000 N   0  0  0  0  0  0  0  0  0  0  0  0
   12.5527    4.6110   -0.0000 N   0  0  0  0  0  0  0  0  0  0  0  0
   12.5053    1.9321   -0.0000 C   0  0  0  0  0  0  0  0  0  0  0  0
   11.6519    0.6993   -0.0000 C   0  0  0  0  0  0  0  0  0  0  0  0
   13.9870    1.8491   -0.0000 C   0  0  0  0  0  0  0  0  0  0  0  0
   12.3038   -0.6401   -0.0000 C   0  0  0  0  0  0  0  0  0  0  0  0
   14.6389    0.5215   -0.0000 C   0  0  0  0  0  0  0  0  0  0  0  0
   13.7973   -0.7231   -0.0000 C   0  0  0  0  0  0  0  0  0  0  0  0
   14.4493   -2.0625   -0.0000 F   0  0  0  0  0  0  0  0  0  0  0  0
  1  2  1  0  0  0  0
  2  3  2  0  0  0  0
  2  4  1  0  0  0  0
  3  5  1  0  0  0  0
  3  6  1  0  0  0  0
  4  7  2  0  0  0  0
  5  8  1  0  0  0  0
  5  9  2  0  0  0  0
  6 10  2  0  0  0  0
  6 11  1  0  0  0  0
 11 12  1  0  0  0  0
 11 13  1  0  0  0  0
 12 14  1  0  0  0  0
 14 15  1  0  0  0  0
 14 16  1  0  0  0  0
 14 17  1  0  0  0  0
 16 18  1  0  0  0  0
 16 19  1  0  0  0  0
 16 20  1  0  0  0  0
 17 21  1  0  0  0  0
 21 22  1  0  0  0  0
 22 23  2  0  0  0  0
 22 24  1  0  0  0  0
 24 25  2  0  0  0  0
 24 26  1  0  0  0  0
 25 27  1  0  0  0  0
 25 28  1  0  0  0  0
 26 29  2  0  0  0  0
 27 30  1  0  0  0  0
 30 31  2  0  0  0  0
 30 32  1  0  0  0  0
 31 33  1  0  0  0  0
 32 34  2  0  0  0  0
 33 35  2  0  0  0  0
 35 36  1  0  0  0  0
  7  9  1  0  0  0  0
 27 29  1  0  0  0  0
 34 35  1  0  0  0  0
M  END
>  <MolRegNo>
472975

>  <m>
=

>  <Value>
1.0e5

>  <Unit>
nM

>  <Type>
IC50

>  <pValue>
4

>  <Ligand Efficiency>
0

>  <Binding Efficiency>
0

>  <Surface Efficiency>
0

>  <Assay Index>
407329

>  <Assay Category>


>  <Assay Organism>


>  <Target ID>
17045

>  <Target Name>
Cytochrome P450 3A4

>  <Target Organism>
Homo sapiens

>  <Target Description>
Target is a single protein chain

>  <Sequence Accession>
P08684

>  <Reference>
Bioorg Med Chem Lett 19 (1), 158-162 (2009)

>  <Pubmed ID>
19019676

>  <DOI>
10.1016/j.bmcl.2008.10.128

$$$$
473051
Actelion Java MolfileCreator 1.0

 38 40  0  0  0  0  0  0  0  0999 V2000
    0.0000   -0.0000   -0.0000 F   0  0  0  0  0  0  0  0  0  0  0  0
    1.3159   -0.6994   -0.0000 C   0  0  0  0  0  0  0  0  0  0  0  0
    2.5844    0.1067   -0.0000 C   0  0  0  0  0  0  0  0  0  0  0  0
    1.3396   -2.1932   -0.0000 C   0  0  0  0  0  0  0  0  0  0  0  0
    3.9003   -0.5927   -0.0000 C   0  0  0  0  0  0  0  0  0  0  0  0
    2.5370    1.6241   -0.0000 C   0  0  0  0  0  0  0  0  0  0  0  0
    2.6555   -2.9045   -0.0000 C   0  0  0  0  0  0  0  0  0  0  0  0
    5.1687    0.2134   -0.0000 F   0  0  0  0  0  0  0  0  0  0  0  0
    3.9358   -2.0865   -0.0000 C   0  0  0  0  0  0  0  0  0  0  0  0
    1.1973    2.3591   -0.0000 O   0  0  0  0  0  0  0  0  0  0  0  0
    3.8054    2.4184   -0.0000 N   0  0  0  0  0  0  0  0  0  0  0  0
    3.7580    3.9358   -0.0000 C   0  0  0  0  0  0  0  0  0  0  0  0
    5.1213    1.7190   -0.0000 C   0  0  0  0  0  0  0  0  0  0  0  0
    5.0265    4.7301   -0.0000 C   0  0  0  0  0  0  0  0  0  0  0  0
    6.3898    2.5132   -0.0000 C   0  0  0  0  0  0  0  0  0  0  0  0
    5.8089    3.4616   -0.0000 O   0  0  0  0  0  0  0  0  0  0  0  0
    4.2204    6.0223   -0.0000 C   0  0  0  0  0  0  0  0  0  0  0  0
    6.2831    5.5481   -0.0000 C   0  0  0  0  0  0  0  0  0  0  0  0
    7.7057    1.8138   -0.0000 F   0  0  0  0  0  0  0  0  0  0  0  0
    3.4024    7.3263   -0.0000 F   0  0  0  0  0  0  0  0  0  0  0  0
    5.4888    6.8284   -0.0000 F   0  0  0  0  0  0  0  0  0  0  0  0
    2.9400    5.2280   -0.0000 F   0  0  0  0  0  0  0  0  0  0  0  0
    7.5990    4.8605   -0.0000 N   0  0  0  0  0  0  0  0  0  0  0  0
    8.8556    5.6785   -0.0000 C   0  0  0  0  0  0  0  0  0  0  0  0
    8.7845    7.1959   -0.0000 O   0  0  0  0  0  0  0  0  0  0  0  0
   10.1715    4.9909   -0.0000 C   0  0  0  0  0  0  0  0  0  0  0  0
   10.3849    3.5209   -0.0000 C   0  0  0  0  0  0  0  0  0  0  0  0
   11.5111    5.6785   -0.0000 C   0  0  0  0  0  0  0  0  0  0  0  0
   11.8549    3.2720   -0.0000 N   0  0  0  0  0  0  0  0  0  0  0  0
    9.2943    2.4777   -0.0000 N   0  0  0  0  0  0  0  0  0  0  0  0
   12.5544    4.6116   -0.0000 N   0  0  0  0  0  0  0  0  0  0  0  0
   12.5069    1.9324   -0.0000 C   0  0  0  0  0  0  0  0  0  0  0  0
   11.6534    0.6994   -0.0000 C   0  0  0  0  0  0  0  0  0  0  0  0
   13.9888    1.8494   -0.0000 C   0  0  0  0  0  0  0  0  0  0  0  0
   12.3054   -0.6402   -0.0000 C   0  0  0  0  0  0  0  0  0  0  0  0
   14.6408    0.5216   -0.0000 C   0  0  0  0  0  0  0  0  0  0  0  0
   13.7991   -0.7232   -0.0000 C   0  0  0  0  0  0  0  0  0  0  0  0
   14.4511   -2.0628   -0.0000 F   0  0  0  0  0  0  0  0  0  0  0  0
  1  2  1  0  0  0  0
  2  3  2  0  0  0  0
  2  4  1  0  0  0  0
  3  5  1  0  0  0  0
  3  6  1  0  0  0  0
  4  7  2  0  0  0  0
  5  8  1  0  0  0  0
  5  9  2  0  0  0  0
  6 10  2  0  0  0  0
  6 11  1  0  0  0  0
 11 12  1  0  0  0  0
 11 13  1  0  0  0  0
 12 14  1  0  0  0  0
 13 15  1  0  0  0  0
 14 16  1  0  0  0  0
 14 17  1  0  0  0  0
 14 18  1  0  0  0  0
 15 19  1  0  0  0  0
 17 20  1  0  0  0  0
 17 21  1  0  0  0  0
 17 22  1  0  0  0  0
 18 23  1  0  0  0  0
 23 24  1  0  0  0  0
 24 25  2  0  0  0  0
 24 26  1  0  0  0  0
 26 27  2  0  0  0  0
 26 28  1  0  0  0  0
 27 29  1  0  0  0  0
 27 30  1  0  0  0  0
 28 31  2  0  0  0  0
 29 32  1  0  0  0  0
 32 33  2  0  0  0  0
 32 34  1  0  0  0  0
 33 35  1  0  0  0  0
 34 36  2  0  0  0  0
 35 37  2  0  0  0  0
 37 38  1  0  0  0  0
  7  9  1  0  0  0  0
 29 31  1  0  0  0  0
 36 37  1  0  0  0  0
M  END
>  <MolRegNo>
473051

>  <m>
=

>  <Value>
500

>  <Unit>
nM

>  <Type>
IC50

>  <pValue>
6.3

>  <Ligand Efficiency>
0

>  <Binding Efficiency>
0

>  <Surface Efficiency>
0

>  <Assay Index>
407329

>  <Assay Category>


>  <Assay Organism>


>  <Target ID>
17045

>  <Target Name>
Cytochrome P450 3A4

>  <Target Organism>
Homo sapiens

>  <Target Description>
Target is a single protein chain

>  <Sequence Accession>
P08684

>  <Reference>
Bioorg Med Chem Lett 19 (1), 158-162 (2009)

>  <Pubmed ID>
19019676

>  <DOI>
10.1016/j.bmcl.2008.10.128

$$$$
473052
Actelion Java MolfileCreator 1.0

 38 40  0  0  0  0  0  0  0  0999 V2000
    0.0000   -0.0000   -0.0000 F   0  0  0  0  0  0  0  0  0  0  0  0
    1.3159   -0.6994   -0.0000 C   0  0  0  0  0  0  0  0  0  0  0  0
    2.5844    0.1067   -0.0000 C   0  0  0  0  0  0  0  0  0  0  0  0
    1.3396   -2.1932   -0.0000 C   0  0  0  0  0  0  0  0  0  0  0  0
    3.9003   -0.5927   -0.0000 C   0  0  0  0  0  0  0  0  0  0  0  0
    2.5370    1.6241   -0.0000 C   0  0  0  0  0  0  0  0  0  0  0  0
    2.6555   -2.9045   -0.0000 C   0  0  0  0  0  0  0  0  0  0  0  0
    5.1687    0.2134   -0.0000 F   0  0  0  0  0  0  0  0  0  0  0  0
    3.9358   -2.0865   -0.0000 C   0  0  0  0  0  0  0  0  0  0  0  0
    1.1973    2.3591   -0.0000 O   0  0  0  0  0  0  0  0  0  0  0  0
    3.8054    2.4184   -0.0000 N   0  0  0  0  0  0  0  0  0  0  0  0
    3.7580    3.9358   -0.0000 C   0  0  0  0  0  0  0  0  0  0  0  0
    5.1213    1.7190   -0.0000 C   0  0  0  0  0  0  0  0  0  0  0  0
    5.0265    4.7301   -0.0000 C   0  0  0  0  0  0  0  0  0  0  0  0
    6.3898    2.5132   -0.0000 C   0  0  0  0  0  0  0  0  0  0  0  0
    5.8089    3.4616   -0.0000 O   0  0  0  0  0  0  0  0  0  0  0  0
    4.2204    6.0223   -0.0000 C   0  0  0  0  0  0  0  0  0  0  0  0
    6.2831    5.5481   -0.0000 C   0  0  0  0  0  0  0  0  0  0  0  0
    7.7057    1.8138   -0.0000 O   0  0  0  0  0  0  0  0  0  0  0  0
    3.4024    7.3263   -0.0000 F   0  0  0  0  0  0  0  0  0  0  0  0
    5.4888    6.8284   -0.0000 F   0  0  0  0  0  0  0  0  0  0  0  0
    2.9400    5.2280   -0.0000 F   0  0  0  0  0  0  0  0  0  0  0  0
    7.5990    4.8605   -0.0000 N   0  0  0  0  0  0  0  0  0  0  0  0
    8.8556    5.6785   -0.0000 C   0  0  0  0  0  0  0  0  0  0  0  0
    8.7845    7.1959   -0.0000 O   0  0  0  0  0  0  0  0  0  0  0  0
   10.1715    4.9909   -0.0000 C   0  0  0  0  0  0  0  0  0  0  0  0
   10.3849    3.5209   -0.0000 C   0  0  0  0  0  0  0  0  0  0  0  0
   11.5111    5.6785   -0.0000 C   0  0  0  0  0  0  0  0  0  0  0  0
   11.8549    3.2720   -0.0000 N   0  0  0  0  0  0  0  0  0  0  0  0
    9.2943    2.4777   -0.0000 N   0  0  0  0  0  0  0  0  0  0  0  0
   12.5544    4.6116   -0.0000 N   0  0  0  0  0  0  0  0  0  0  0  0
   12.5069    1.9324   -0.0000 C   0  0  0  0  0  0  0  0  0  0  0  0
   11.6534    0.6994   -0.0000 C   0  0  0  0  0  0  0  0  0  0  0  0
   13.9888    1.8494   -0.0000 C   0  0  0  0  0  0  0  0  0  0  0  0
   12.3054   -0.6402   -0.0000 C   0  0  0  0  0  0  0  0  0  0  0  0
   14.6408    0.5216   -0.0000 C   0  0  0  0  0  0  0  0  0  0  0  0
   13.7991   -0.7232   -0.0000 C   0  0  0  0  0  0  0  0  0  0  0  0
   14.4511   -2.0628   -0.0000 F   0  0  0  0  0  0  0  0  0  0  0  0
  1  2  1  0  0  0  0
  2  3  2  0  0  0  0
  2  4  1  0  0  0  0
  3  5  1  0  0  0  0
  3  6  1  0  0  0  0
  4  7  2  0  0  0  0
  5  8  1  0  0  0  0
  5  9  2  0  0  0  0
  6 10  2  0  0  0  0
  6 11  1  0  0  0  0
 11 12  1  0  0  0  0
 11 13  1  0  0  0  0
 12 14  1  0  0  0  0
 13 15  1  0  0  0  0
 14 16  1  0  0  0  0
 14 17  1  0  0  0  0
 14 18  1  0  0  0  0
 15 19  1  0  0  0  0
 17 20  1  0  0  0  0
 17 21  1  0  0  0  0
 17 22  1  0  0  0  0
 18 23  1  0  0  0  0
 23 24  1  0  0  0  0
 24 25  2  0  0  0  0
 24 26  1  0  0  0  0
 26 27  2  0  0  0  0
 26 28  1  0  0  0  0
 27 29  1  0  0  0  0
 27 30  1  0  0  0  0
 28 31  2  0  0  0  0
 29 32  1  0  0  0  0
 32 33  2  0  0  0  0
 32 34  1  0  0  0  0
 33 35  1  0  0  0  0
 34 36  2  0  0  0  0
 35 37  2  0  0  0  0
 37 38  1  0  0  0  0
  7  9  1  0  0  0  0
 29 31  1  0  0  0  0
 36 37  1  0  0  0  0
M  END
>  <MolRegNo>
473052

>  <m>
=

>  <Value>
76000

>  <Unit>
nM

>  <Type>
IC50

>  <pValue>
4.12

>  <Ligand Efficiency>
0

>  <Binding Efficiency>
0

>  <Surface Efficiency>
0

>  <Assay Index>
407329

>  <Assay Category>


>  <Assay Organism>


>  <Target ID>
17045

>  <Target Name>
Cytochrome P450 3A4

>  <Target Organism>
Homo sapiens

>  <Target Description>
Target is a single protein chain

>  <Sequence Accession>
P08684

>  <Reference>
Bioorg Med Chem Lett 19 (1), 158-162 (2009)

>  <Pubmed ID>
19019676

>  <DOI>
10.1016/j.bmcl.2008.10.128

$$$$
473053
Actelion Java MolfileCreator 1.0

 38 40  0  0  0  0  0  0  0  0999 V2000
    0.0000   -0.0000   -0.0000 Cl  0  0  0  0  0  0  0  0  0  0  0  0
    1.3155   -0.7111   -0.0000 C   0  0  0  0  0  0  0  0  0  0  0  0
    2.5836    0.0830   -0.0000 C   0  0  0  0  0  0  0  0  0  0  0  0
    1.3392   -2.2044   -0.0000 C   0  0  0  0  0  0  0  0  0  0  0  0
    3.8991   -0.6044   -0.0000 C   0  0  0  0  0  0  0  0  0  0  0  0
    2.5362    1.5999   -0.0000 C   0  0  0  0  0  0  0  0  0  0  0  0
    2.6547   -2.9155   -0.0000 C   0  0  0  0  0  0  0  0  0  0  0  0
    5.1672    0.2015   -0.0000 Cl  0  0  0  0  0  0  0  0  0  0  0  0
    3.9347   -2.0977   -0.0000 C   0  0  0  0  0  0  0  0  0  0  0  0
    1.1970    2.3347   -0.0000 O   0  0  0  0  0  0  0  0  0  0  0  0
    3.8043    2.3940   -0.0000 N   0  0  0  0  0  0  0  0  0  0  0  0
    3.7569    3.9110   -0.0000 C   0  0  0  0  0  0  0  0  0  0  0  0
    5.1198    1.6829   -0.0000 C   0  0  0  0  0  0  0  0  0  0  0  0
    5.0250    4.7169   -0.0000 C   0  0  0  0  0  0  0  0  0  0  0  0
    6.3879    2.4888   -0.0000 C   0  0  0  0  0  0  0  0  0  0  0  0
    5.8072    3.4488   -0.0000 O   0  0  0  0  0  0  0  0  0  0  0  0
    4.2191    6.0087   -0.0000 C   0  0  0  0  0  0  0  0  0  0  0  0
    6.2813    5.5346   -0.0000 C   0  0  0  0  0  0  0  0  0  0  0  0
    7.7034    1.7777   -0.0000 O   0  0  0  0  0  0  0  0  0  0  0  0
    3.4014    7.3123   -0.0000 F   0  0  0  0  0  0  0  0  0  0  0  0
    5.4872    6.8146   -0.0000 F   0  0  0  0  0  0  0  0  0  0  0  0
    2.9392    5.2146   -0.0000 F   0  0  0  0  0  0  0  0  0  0  0  0
    7.5968    4.8472   -0.0000 N   0  0  0  0  0  0  0  0  0  0  0  0
    8.8530    5.6650   -0.0000 C   0  0  0  0  0  0  0  0  0  0  0  0
    8.7819    7.1820   -0.0000 O   0  0  0  0  0  0  0  0  0  0  0  0
   10.1685    4.9776   -0.0000 C   0  0  0  0  0  0  0  0  0  0  0  0
   10.3819    3.5080   -0.0000 C   0  0  0  0  0  0  0  0  0  0  0  0
   11.5078    5.6650   -0.0000 C   0  0  0  0  0  0  0  0  0  0  0  0
   11.8514    3.2591   -0.0000 N   0  0  0  0  0  0  0  0  0  0  0  0
    9.2915    2.4651   -0.0000 N   0  0  0  0  0  0  0  0  0  0  0  0
   12.5507    4.5984   -0.0000 N   0  0  0  0  0  0  0  0  0  0  0  0
   12.5033    1.9199   -0.0000 C   0  0  0  0  0  0  0  0  0  0  0  0
   11.6500    0.6874   -0.0000 C   0  0  0  0  0  0  0  0  0  0  0  0
   13.9847    1.8370   -0.0000 C   0  0  0  0  0  0  0  0  0  0  0  0
   12.3018   -0.6518   -0.0000 C   0  0  0  0  0  0  0  0  0  0  0  0
   14.6365    0.5096   -0.0000 C   0  0  0  0  0  0  0  0  0  0  0  0
   13.7951   -0.7348   -0.0000 C   0  0  0  0  0  0  0  0  0  0  0  0
   14.4469   -2.0740   -0.0000 F   0  0  0  0  0  0  0  0  0  0  0  0
  1  2  1  0  0  0  0
  2  3  2  0  0  0  0
  2  4  1  0  0  0  0
  3  5  1  0  0  0  0
  3  6  1  0  0  0  0
  4  7  2  0  0  0  0
  5  8  1  0  0  0  0
  5  9  2  0  0  0  0
  6 10  2  0  0  0  0
  6 11  1  0  0  0  0
 11 12  1  0  0  0  0
 11 13  1  0  0  0  0
 12 14  1  0  0  0  0
 13 15  1  0  0  0  0
 14 16  1  0  0  0  0
 14 17  1  0  0  0  0
 14 18  1  0  0  0  0
 15 19  1  0  0  0  0
 17 20  1  0  0  0  0
 17 21  1  0  0  0  0
 17 22  1  0  0  0  0
 18 23  1  0  0  0  0
 23 24  1  0  0  0  0
 24 25  2  0  0  0  0
 24 26  1  0  0  0  0
 26 27  2  0  0  0  0
 26 28  1  0  0  0  0
 27 29  1  0  0  0  0
 27 30  1  0  0  0  0
 28 31  2  0  0  0  0
 29 32  1  0  0  0  0
 32 33  2  0  0  0  0
 32 34  1  0  0  0  0
 33 35  1  0  0  0  0
 34 36  2  0  0  0  0
 35 37  2  0  0  0  0
 37 38  1  0  0  0  0
  7  9  1  0  0  0  0
 29 31  1  0  0  0  0
 36 37  1  0  0  0  0
M  END
>  <MolRegNo>
473053

>  <m>
=

>  <Value>
1.0e5

>  <Unit>
nM

>  <Type>
IC50

>  <pValue>
4

>  <Ligand Efficiency>
0

>  <Binding Efficiency>
0

>  <Surface Efficiency>
0

>  <Assay Index>
407329

>  <Assay Category>


>  <Assay Organism>


>  <Target ID>
17045

>  <Target Name>
Cytochrome P450 3A4

>  <Target Organism>
Homo sapiens

>  <Target Description>
Target is a single protein chain

>  <Sequence Accession>
P08684

>  <Reference>
Bioorg Med Chem Lett 19 (1), 158-162 (2009)

>  <Pubmed ID>
19019676

>  <DOI>
10.1016/j.bmcl.2008.10.128

$$$$
230459
Actelion Java MolfileCreator 1.0

 23 25  0  0  0  0  0  0  0  0999 V2000
    0.0000   -0.0000   -0.0000 Cl  0  0  0  0  0  0  0  0  0  0  0  0
    1.3106    0.7625   -0.0000 C   0  0  0  0  0  0  0  0  0  0  0  0
    2.5973    0.0238   -0.0000 C   0  0  0  0  0  0  0  0  0  0  0  0
    1.2986    2.2756   -0.0000 C   0  0  0  0  0  0  0  0  0  0  0  0
    3.8959    0.8102   -0.0000 C   0  0  0  0  0  0  0  0  0  0  0  0
    2.5854    3.0619   -0.0000 C   0  0  0  0  0  0  0  0  0  0  0  0
    5.1827    0.0715   -0.0000 N   0  0  0  0  0  0  0  0  0  0  0  0
    3.8840    2.3233   -0.0000 C   0  0  0  0  0  0  0  0  0  0  0  0
    6.4694    0.8340   -0.0000 C   0  0  0  0  0  0  0  0  0  0  0  0
    5.1588    3.0858   -0.0000 C   0  0  0  0  0  0  0  0  0  0  0  0
    6.4575    2.3590   -0.0000 C   0  0  0  0  0  0  0  0  0  0  0  0
    5.1350    4.5989   -0.0000 N   0  0  0  0  0  0  0  0  0  0  0  0
    6.4217    5.3733   -0.0000 C   0  0  0  0  0  0  0  0  0  0  0  0
    7.7085    4.6346   -0.0000 C   0  0  0  0  0  0  0  0  0  0  0  0
    6.3979    6.8864   -0.0000 C   0  0  0  0  0  0  0  0  0  0  0  0
    8.9952    5.4209   -0.0000 C   0  0  0  0  0  0  0  0  0  0  0  0
    7.6608    7.6608   -0.0000 C   0  0  0  0  0  0  0  0  0  0  0  0
    8.9833    6.9340   -0.0000 C   0  0  0  0  0  0  0  0  0  0  0  0
   10.2938    4.6823   -0.0000 C   0  0  0  0  0  0  0  0  0  0  0  0
   10.2700    7.6965   -0.0000 O   0  0  0  0  0  0  0  0  0  0  0  0
   10.2938    3.1930   -0.0000 N   0  0  0  0  0  0  0  0  0  0  0  0
   11.5806    2.4543   -0.0000 C   0  0  0  0  0  0  0  0  0  0  0  0
   11.5806    0.9650   -0.0000 C   0  0  0  0  0  0  0  0  0  0  0  0
  1  2  1  0  0  0  0
  2  3  2  0  0  0  0
  2  4  1  0  0  0  0
  3  5  1  0  0  0  0
  4  6  2  0  0  0  0
  5  7  2  0  0  0  0
  5  8  1  0  0  0  0
  7  9  1  0  0  0  0
  8 10  2  0  0  0  0
  9 11  2  0  0  0  0
 10 12  1  0  0  0  0
 12 13  1  0  0  0  0
 13 14  2  0  0  0  0
 13 15  1  0  0  0  0
 14 16  1  0  0  0  0
 15 17  2  0  0  0  0
 16 18  2  0  0  0  0
 16 19  1  0  0  0  0
 18 20  1  0  0  0  0
 19 21  1  0  0  0  0
 21 22  1  0  0  0  0
 22 23  1  0  0  0  0
  6  8  1  0  0  0  0
 10 11  1  0  0  0  0
 17 18  1  0  0  0  0
M  END
>  <MolRegNo>
230459

>  <m>
=

>  <Value>
24000

>  <Unit>
nM

>  <Type>
IC50

>  <pValue>
4.62

>  <Ligand Efficiency>
0

>  <Binding Efficiency>
0

>  <Surface Efficiency>
0

>  <Assay Index>
416038

>  <Assay Category>


>  <Assay Organism>
Homo sapiens

>  <Target ID>
17045

>  <Target Name>
Cytochrome P450 3A4

>  <Target Organism>
Homo sapiens

>  <Target Description>
Target is a single protein chain

>  <Sequence Accession>
P08684

>  <Reference>
J Med Chem 52 (7), 1828-1844 (2009)

>  <Pubmed ID>
19284751

>  <DOI>
10.1021/jm8012757

$$$$
476314
Actelion Java MolfileCreator 1.0

 26 27  0  0  0  0  0  0  0  0999 V2000
    0.0000   -0.0000   -0.0000 Cl  0  0  0  0  0  0  0  0  0  0  0  0
    1.2860   -0.7279   -0.0000 C   0  0  0  0  0  0  0  0  0  0  0  0
    2.5963    0.0243   -0.0000 C   0  0  0  0  0  0  0  0  0  0  0  0
    1.2739   -2.2081   -0.0000 C   0  0  0  0  0  0  0  0  0  0  0  0
    3.9067   -0.7037   -0.0000 C   0  0  0  0  0  0  0  0  0  0  0  0
    2.5842   -2.9725   -0.0000 C   0  0  0  0  0  0  0  0  0  0  0  0
    5.2170    0.0485   -0.0000 N   0  0  0  0  0  0  0  0  0  0  0  0
    3.8945   -2.1838   -0.0000 C   0  0  0  0  0  0  0  0  0  0  0  0
    6.5030   -0.6794   -0.0000 C   0  0  0  0  0  0  0  0  0  0  0  0
    5.2048   -2.9482   -0.0000 C   0  0  0  0  0  0  0  0  0  0  0  0
    6.4909   -2.1596   -0.0000 C   0  0  0  0  0  0  0  0  0  0  0  0
    5.1927   -4.4284   -0.0000 N   0  0  0  0  0  0  0  0  0  0  0  0
    6.4787   -5.1927   -0.0000 C   0  0  0  0  0  0  0  0  0  0  0  0
    7.7648   -4.4041   -0.0000 C   0  0  0  0  0  0  0  0  0  0  0  0
    6.4666   -6.7214   -0.0000 C   0  0  0  0  0  0  0  0  0  0  0  0
    9.0872   -5.1078   -0.0000 C   0  0  0  0  0  0  0  0  0  0  0  0
    7.8497   -7.4251   -0.0000 C   0  0  0  0  0  0  0  0  0  0  0  0
    9.0994   -6.6122   -0.0000 C   0  0  0  0  0  0  0  0  0  0  0  0
   10.3733   -4.3192   -0.0000 C   0  0  0  0  0  0  0  0  0  0  0  0
   10.3854   -7.3765   -0.0000 O   0  0  0  0  0  0  0  0  0  0  0  0
   10.3611   -2.7905   -0.0000 N   0  0  0  0  0  0  0  0  0  0  0  0
   11.6472   -2.0625   -0.0000 C   0  0  0  0  0  0  0  0  0  0  0  0
    9.0508   -2.0625   -0.0000 C   0  0  0  0  0  0  0  0  0  0  0  0
   12.8847   -2.8511   -0.0000 C   0  0  0  0  0  0  0  0  0  0  0  0
    7.7890   -2.8269   -0.0000 C   0  0  0  0  0  0  0  0  0  0  0  0
    2.3294   -6.6971   -0.0000 Cl  0  0  0  0  0  0  0  0  0  0  0  0
  1  2  1  0  0  0  0
  2  3  2  0  0  0  0
  2  4  1  0  0  0  0
  3  5  1  0  0  0  0
  4  6  2  0  0  0  0
  5  7  2  0  0  0  0
  5  8  1  0  0  0  0
  7  9  1  0  0  0  0
  8 10  2  0  0  0  0
  9 11  2  0  0  0  0
 10 12  1  0  0  0  0
 12 13  1  0  0  0  0
 13 14  2  0  0  0  0
 13 15  1  0  0  0  0
 14 16  1  0  0  0  0
 15 17  2  0  0  0  0
 16 18  2  0  0  0  0
 16 19  1  0  0  0  0
 18 20  1  0  0  0  0
 19 21  1  0  0  0  0
 21 22  1  0  0  0  0
 21 23  1  0  0  0  0
 22 24  1  0  0  0  0
 23 25  1  0  0  0  0
  6  8  1  0  0  0  0
 10 11  1  0  0  0  0
 17 18  1  0  0  0  0
M  END
>  <MolRegNo>
476314

>  <m>
=

>  <Value>
28000

>  <Unit>
nM

>  <Type>
IC50

>  <pValue>
4.55

>  <Ligand Efficiency>
0

>  <Binding Efficiency>
0

>  <Surface Efficiency>
0

>  <Assay Index>
416038

>  <Assay Category>


>  <Assay Organism>
Homo sapiens

>  <Target ID>
17045

>  <Target Name>
Cytochrome P450 3A4

>  <Target Organism>
Homo sapiens

>  <Target Description>
Target is a single protein chain

>  <Sequence Accession>
P08684

>  <Reference>
J Med Chem 52 (7), 1828-1844 (2009)

>  <Pubmed ID>
19284751

>  <DOI>
10.1021/jm8012757

$$$$
478226
Actelion Java MolfileCreator 1.0

 25 27  0  0  0  0  0  0  0  0999 V2000
    0.0000   -0.0000   -0.0000 F   0  0  0  0  0  0  0  0  0  0  0  0
    1.2895    0.7571   -0.0000 C   0  0  0  0  0  0  0  0  0  0  0  0
    1.2777    2.2714   -0.0000 C   0  0  0  0  0  0  0  0  0  0  0  0
    2.5790    0.0237   -0.0000 C   0  0  0  0  0  0  0  0  0  0  0  0
   -0.0355    3.0285   -0.0000 O   0  0  0  0  0  0  0  0  0  0  0  0
    2.5553    3.0285   -0.0000 N   0  0  0  0  0  0  0  0  0  0  0  0
    3.8685    0.7808   -0.0000 N   0  0  0  0  0  0  0  0  0  0  0  0
   -0.0473    4.5428   -0.0000 C   0  0  0  0  0  0  0  0  0  0  0  0
    3.8448    2.2951   -0.0000 C   0  0  0  0  0  0  0  0  0  0  0  0
   -1.3605    5.2999   -0.0000 C   0  0  0  0  0  0  0  0  0  0  0  0
    1.2422    5.2999   -0.0000 C   0  0  0  0  0  0  0  0  0  0  0  0
    5.1225    3.0640   -0.0000 N   0  0  0  0  0  0  0  0  0  0  0  0
   -2.6736    4.5664   -0.0000 C   0  0  0  0  0  0  0  0  0  0  0  0
    6.4120    2.3305   -0.0000 C   0  0  0  0  0  0  0  0  0  0  0  0
    5.0988    4.5664   -0.0000 C   0  0  0  0  0  0  0  0  0  0  0  0
   -3.9868    5.3354   -0.0000 C   0  0  0  0  0  0  0  0  0  0  0  0
   -2.6854    3.0877   -0.0000 C   0  0  0  0  0  0  0  0  0  0  0  0
    7.6896    3.0877   -0.0000 C   0  0  0  0  0  0  0  0  0  0  0  0
    6.4001    0.8399   -0.0000 C   0  0  0  0  0  0  0  0  0  0  0  0
    6.3883    5.3236   -0.0000 C   0  0  0  0  0  0  0  0  0  0  0  0
   -5.2999    4.6019   -0.0000 C   0  0  0  0  0  0  0  0  0  0  0  0
   -3.9868    2.3424   -0.0000 C   0  0  0  0  0  0  0  0  0  0  0  0
    7.6778    4.6019   -0.0000 N   0  0  0  0  0  0  0  0  0  0  0  0
   -6.6131    5.3591   -0.0000 F   0  0  0  0  0  0  0  0  0  0  0  0
   -5.3117    3.1113   -0.0000 C   0  0  0  0  0  0  0  0  0  0  0  0
  1  2  1  0  0  0  0
  2  3  2  0  0  0  0
  2  4  1  0  0  0  0
  3  5  1  0  0  0  0
  3  6  1  0  0  0  0
  4  7  2  0  0  0  0
  8  5  1  6  0  0  0
  6  9  2  0  0  0  0
  8 10  1  0  0  0  0
  8 11  1  0  0  0  0
  9 12  1  0  0  0  0
 10 13  1  0  0  0  0
 12 14  1  0  0  0  0
 12 15  1  0  0  0  0
 13 16  2  0  0  0  0
 13 17  1  0  0  0  0
 14 18  1  0  0  0  0
 14 19  1  6  0  0  0
 15 20  1  0  0  0  0
 16 21  1  0  0  0  0
 17 22  2  0  0  0  0
 18 23  1  0  0  0  0
 21 24  1  0  0  0  0
 21 25  2  0  0  0  0
  7  9  1  0  0  0  0
 20 23  1  0  0  0  0
 22 25  1  0  0  0  0
M  END
>  <MolRegNo>
478226

>  <m>
=

>  <Value>
4900

>  <Unit>
nM

>  <Type>
IC50

>  <pValue>
5.31

>  <Ligand Efficiency>
0

>  <Binding Efficiency>
0

>  <Surface Efficiency>
0

>  <Assay Index>
411276

>  <Assay Category>


>  <Assay Organism>
Homo sapiens

>  <Target ID>
17045

>  <Target Name>
Cytochrome P450 3A4

>  <Target Organism>
Homo sapiens

>  <Target Description>
Target is a single protein chain

>  <Sequence Accession>
P08684

>  <Reference>
Bioorg Med Chem Lett 19 (6), 1559-1563 (2009)

>  <Pubmed ID>
19246199

>  <DOI>
10.1016/j.bmcl.2009.02.032

$$$$
458057
Actelion Java MolfileCreator 1.0

 31 33  0  0  0  0  0  0  0  0999 V2000
    0.0000   -0.0000   -0.0000 S   0  0  0  0  0  0  0  0  0  0  0  0
   -0.3994    1.4606   -0.0000 O   0  0  0  0  0  0  0  0  0  0  0  0
    0.3766   -1.4378   -0.0000 O   0  0  0  0  0  0  0  0  0  0  0  0
    1.4378    0.3994   -0.0000 N   0  0  0  0  0  0  0  0  0  0  0  0
   -1.4606   -0.3766   -0.0000 C   0  0  0  0  0  0  0  0  0  0  0  0
    1.8144    1.8600   -0.0000 C   0  0  0  0  0  0  0  0  0  0  0  0
    2.4876   -0.6504   -0.0000 C   0  0  0  0  0  0  0  0  0  0  0  0
   -1.8600   -1.8144   -0.0000 C   0  0  0  0  0  0  0  0  0  0  0  0
   -2.5333    0.6961   -0.0000 C   0  0  0  0  0  0  0  0  0  0  0  0
    3.2522    2.2594   -0.0000 C   0  0  0  0  0  0  0  0  0  0  0  0
    0.7417    2.9327   -0.0000 C   0  0  0  0  0  0  0  0  0  0  0  0
    3.9255   -0.2510   -0.0000 C   0  0  0  0  0  0  0  0  0  0  0  0
   -3.3207   -2.1910   -0.0000 C   0  0  0  0  0  0  0  0  0  0  0  0
   -3.9939    0.3195   -0.0000 C   0  0  0  0  0  0  0  0  0  0  0  0
    4.3020    1.2096   -0.0000 N   0  0  0  0  0  0  0  0  0  0  0  0
   -4.3933   -1.1183   -0.0000 C   0  0  0  0  0  0  0  0  0  0  0  0
    5.7398    1.6090   -0.0000 C   0  0  0  0  0  0  0  0  0  0  0  0
   -5.8540   -1.4949   -0.0000 C   0  0  0  0  0  0  0  0  0  0  0  0
    6.7897    0.5591   -0.0000 C   0  0  0  0  0  0  0  0  0  0  0  0
   -6.2533   -0.0342   -0.0000 O   0  0  0  0  0  0  0  0  0  0  0  0
   -7.3146   -1.8714   -0.0000 C   0  0  0  0  0  0  0  0  0  0  0  0
   -5.4774   -2.9327   -0.0000 C   0  0  0  0  0  0  0  0  0  0  0  0
    7.8395    1.6318   -0.0000 C   0  0  0  0  0  0  0  0  0  0  0  0
    5.7170   -0.4907   -0.0000 C   0  0  0  0  0  0  0  0  0  0  0  0
    7.8395   -0.4907   -0.0000 C   0  0  0  0  0  0  0  0  0  0  0  0
   -8.7752   -2.2480   -0.0000 F   0  0  0  0  0  0  0  0  0  0  0  0
   -6.9380   -3.3093   -0.0000 F   0  0  0  0  0  0  0  0  0  0  0  0
   -7.7140   -0.4108   -0.0000 F   0  0  0  0  0  0  0  0  0  0  0  0
    7.4401    3.0924   -0.0000 O   0  0  0  0  0  0  0  0  0  0  0  0
    9.2773    1.2552   -0.0000 N   0  0  0  0  0  0  0  0  0  0  0  0
    6.7669   -1.5405   -0.0000 C   0  0  0  0  0  0  0  0  0  0  0  0
  1  2  2  0  0  0  0
  1  3  2  0  0  0  0
  1  4  1  0  0  0  0
  1  5  1  0  0  0  0
  4  6  1  0  0  0  0
  4  7  1  0  0  0  0
  5  8  2  0  0  0  0
  5  9  1  0  0  0  0
  6 10  1  0  0  0  0
  6 11  1  1  0  0  0
  7 12  1  0  0  0  0
  8 13  1  0  0  0  0
  9 14  2  0  0  0  0
 10 15  1  0  0  0  0
 13 16  2  0  0  0  0
 15 17  1  0  0  0  0
 16 18  1  0  0  0  0
 17 19  1  0  0  0  0
 18 20  1  0  0  0  0
 18 21  1  0  0  0  0
 18 22  1  0  0  0  0
 19 23  1  0  0  0  0
 19 24  1  0  0  0  0
 19 25  1  0  0  0  0
 21 26  1  0  0  0  0
 21 27  1  0  0  0  0
 21 28  1  0  0  0  0
 23 29  2  0  0  0  0
 23 30  1  0  0  0  0
 24 31  1  0  0  0  0
 12 15  1  0  0  0  0
 14 16  1  0  0  0  0
 25 31  1  0  0  0  0
M  END
>  <MolRegNo>
458057

>  <m>
=

>  <Value>
65000

>  <Unit>
nM

>  <Type>
IC50

>  <pValue>
4.19

>  <Ligand Efficiency>
0

>  <Binding Efficiency>
0

>  <Surface Efficiency>
0

>  <Assay Index>
391860

>  <Assay Category>


>  <Assay Organism>


>  <Target ID>
17045

>  <Target Name>
Cytochrome P450 3A4

>  <Target Organism>
Homo sapiens

>  <Target Description>
Target is a single protein chain

>  <Sequence Accession>
P08684

>  <Reference>
Bioorg Med Chem Lett 19 (5), 1522-1527 (2009)

>  <Pubmed ID>
19181519

>  <DOI>
10.1016/j.bmcl.2008.12.114

$$$$
457916
Actelion Java MolfileCreator 1.0

 33 36  0  0  0  0  0  0  0  0999 V2000
    0.0000   -0.0000   -0.0000 S   0  0  0  0  0  0  0  0  0  0  0  0
   -0.1412    1.5059   -0.0000 O   0  0  0  0  0  0  0  0  0  0  0  0
    0.1177   -1.4824   -0.0000 O   0  0  0  0  0  0  0  0  0  0  0  0
    1.4824    0.1412   -0.0000 N   0  0  0  0  0  0  0  0  0  0  0  0
   -1.5059   -0.1177   -0.0000 C   0  0  0  0  0  0  0  0  0  0  0  0
    2.1060    1.5177   -0.0000 C   0  0  0  0  0  0  0  0  0  0  0  0
    2.3295   -1.0706   -0.0000 C   0  0  0  0  0  0  0  0  0  0  0  0
   -2.3766    1.1177   -0.0000 C   0  0  0  0  0  0  0  0  0  0  0  0
   -2.1530   -1.4706   -0.0000 C   0  0  0  0  0  0  0  0  0  0  0  0
    3.5884    1.6589   -0.0000 C   0  0  0  0  0  0  0  0  0  0  0  0
    1.2353    2.7530   -0.0000 C   0  0  0  0  0  0  0  0  0  0  0  0
    3.8119   -0.9294   -0.0000 C   0  0  0  0  0  0  0  0  0  0  0  0
   -3.8825    1.0000   -0.0000 C   0  0  0  0  0  0  0  0  0  0  0  0
   -3.6590   -1.5883   -0.0000 C   0  0  0  0  0  0  0  0  0  0  0  0
    4.4355    0.4471   -0.0000 N   0  0  0  0  0  0  0  0  0  0  0  0
   -4.5296   -0.3530   -0.0000 C   0  0  0  0  0  0  0  0  0  0  0  0
    5.9179    0.5883   -0.0000 C   0  0  0  0  0  0  0  0  0  0  0  0
   -6.0355   -0.4706   -0.0000 C   0  0  0  0  0  0  0  0  0  0  0  0
    6.7650   -0.6236   -0.0000 C   0  0  0  0  0  0  0  0  0  0  0  0
   -6.1767    1.0353   -0.0000 O   0  0  0  0  0  0  0  0  0  0  0  0
   -7.5415   -0.5883   -0.0000 C   0  0  0  0  0  0  0  0  0  0  0  0
   -5.9179   -1.9530   -0.0000 C   0  0  0  0  0  0  0  0  0  0  0  0
    7.6121    0.6118   -0.0000 C   0  0  0  0  0  0  0  0  0  0  0  0
    6.0002   -1.9060   -0.0000 C   0  0  0  0  0  0  0  0  0  0  0  0
    7.5062   -1.9060   -0.0000 C   0  0  0  0  0  0  0  0  0  0  0  0
   -9.0474   -0.7059   -0.0000 F   0  0  0  0  0  0  0  0  0  0  0  0
   -7.6827    0.9177   -0.0000 F   0  0  0  0  0  0  0  0  0  0  0  0
   -7.4238   -2.0707   -0.0000 F   0  0  0  0  0  0  0  0  0  0  0  0
    6.9650    1.9883   -0.0000 C   0  0  0  0  0  0  0  0  0  0  0  0
    9.0945    0.4941   -0.0000 C   0  0  0  0  0  0  0  0  0  0  0  0
    7.8121    3.2237   -0.0000 C   0  0  0  0  0  0  0  0  0  0  0  0
    9.9416    1.7295   -0.0000 C   0  0  0  0  0  0  0  0  0  0  0  0
    9.2945    3.1060   -0.0000 N   0  0  0  0  0  0  0  0  0  0  0  0
  1  2  2  0  0  0  0
  1  3  2  0  0  0  0
  1  4  1  0  0  0  0
  1  5  1  0  0  0  0
  4  6  1  0  0  0  0
  4  7  1  0  0  0  0
  5  8  2  0  0  0  0
  5  9  1  0  0  0  0
  6 10  1  0  0  0  0
  6 11  1  1  0  0  0
  7 12  1  0  0  0  0
  8 13  1  0  0  0  0
  9 14  2  0  0  0  0
 10 15  1  0  0  0  0
 13 16  2  0  0  0  0
 15 17  1  0  0  0  0
 16 18  1  0  0  0  0
 17 19  1  0  0  0  0
 18 20  1  0  0  0  0
 18 21  1  0  0  0  0
 18 22  1  0  0  0  0
 19 23  1  0  0  0  0
 19 24  1  0  0  0  0
 19 25  1  0  0  0  0
 21 26  1  0  0  0  0
 21 27  1  0  0  0  0
 21 28  1  0  0  0  0
 23 29  2  0  0  0  0
 23 30  1  0  0  0  0
 29 31  1  0  0  0  0
 30 32  2  0  0  0  0
 31 33  2  0  0  0  0
 12 15  1  0  0  0  0
 14 16  1  0  0  0  0
 24 25  1  0  0  0  0
 32 33  1  0  0  0  0
M  END
>  <MolRegNo>
457916

>  <m>
=

>  <Value>
440

>  <Unit>
nM

>  <Type>
IC50

>  <pValue>
6.36

>  <Ligand Efficiency>
0

>  <Binding Efficiency>
0

>  <Surface Efficiency>
0

>  <Assay Index>
391860

>  <Assay Category>


>  <Assay Organism>


>  <Target ID>
17045

>  <Target Name>
Cytochrome P450 3A4

>  <Target Organism>
Homo sapiens

>  <Target Description>
Target is a single protein chain

>  <Sequence Accession>
P08684

>  <Reference>
Bioorg Med Chem Lett 19 (5), 1522-1527 (2009)

>  <Pubmed ID>
19181519

>  <DOI>
10.1016/j.bmcl.2008.12.114

$$$$
423782
Actelion Java MolfileCreator 1.0

 44 47  0  0  0  0  0  0  0  0999 V2000
    0.0000   -0.0000   -0.0000 S   0  0  0  0  0  0  0  0  0  0  0  0
   -0.8071   -1.2700   -0.0000 O   0  0  0  0  0  0  0  0  0  0  0  0
   -1.5192   -0.0356   -0.0000 O   0  0  0  0  0  0  0  0  0  0  0  0
    1.2937   -0.7359   -0.0000 N   0  0  0  0  0  0  0  0  0  0  0  0
   -0.0119    1.5192   -0.0000 C   0  0  0  0  0  0  0  0  0  0  0  0
    1.2819   -2.2314   -0.0000 C   0  0  0  0  0  0  0  0  0  0  0  0
    2.5874    0.0237   -0.0000 C   0  0  0  0  0  0  0  0  0  0  0  0
    1.2819    2.2788   -0.0000 C   0  0  0  0  0  0  0  0  0  0  0  0
    2.5756   -2.9791   -0.0000 C   0  0  0  0  0  0  0  0  0  0  0  0
   -0.0356   -2.9791   -0.0000 C   0  0  0  0  0  0  0  0  0  0  0  0
    2.5756    1.5430   -0.0000 C   0  0  0  0  0  0  0  0  0  0  0  0
    3.8693   -2.2195   -0.0000 F   0  0  0  0  0  0  0  0  0  0  0  0
    2.5637   -4.4746   -0.0000 C   0  0  0  0  0  0  0  0  0  0  0  0
   -0.0475   -4.4746   -0.0000 C   0  0  0  0  0  0  0  0  0  0  0  0
    3.8574   -5.2105   -0.0000 C   0  0  0  0  0  0  0  0  0  0  0  0
    1.2462   -5.2105   -0.0000 C   0  0  0  0  0  0  0  0  0  0  0  0
   -1.3649   -5.2105   -0.0000 N   0  0  0  0  0  0  0  0  0  0  0  0
    3.8456   -6.7060   -0.0000 O   0  0  0  0  0  0  0  0  0  0  0  0
    5.1511   -4.4509   -0.0000 N   0  0  0  0  0  0  0  0  0  0  0  0
   -1.3768   -6.7060   -0.0000 C   0  0  0  0  0  0  0  0  0  0  0  0
    6.4449   -5.1868   -0.0000 C   0  0  0  0  0  0  0  0  0  0  0  0
   -2.6943   -7.4537   -0.0000 C   0  0  0  0  0  0  0  0  0  0  0  0
    7.7386   -4.4271   -0.0000 C   0  0  0  0  0  0  0  0  0  0  0  0
    6.4330   -6.6822   -0.0000 C   0  0  0  0  0  0  0  0  0  0  0  0
    7.7267   -2.9079   -0.0000 O   0  0  0  0  0  0  0  0  0  0  0  0
    9.0323   -5.1630   -0.0000 C   0  0  0  0  0  0  0  0  0  0  0  0
    7.7267   -7.4300   -0.0000 C   0  0  0  0  0  0  0  0  0  0  0  0
   10.3260   -4.4034   -0.0000 N   0  0  0  0  0  0  0  0  0  0  0  0
    9.0204   -6.6585   -0.0000 C   0  0  0  0  0  0  0  0  0  0  0  0
    7.7148   -8.9255   -0.0000 C   0  0  0  0  0  0  0  0  0  0  0  0
   11.6197   -5.1393   -0.0000 C   0  0  0  0  0  0  0  0  0  0  0  0
   10.3142   -7.4063   -0.0000 C   0  0  0  0  0  0  0  0  0  0  0  0
    9.0086   -9.6614   -0.0000 C   0  0  0  0  0  0  0  0  0  0  0  0
   12.9135   -4.3797   -0.0000 C   0  0  0  0  0  0  0  0  0  0  0  0
   10.3023   -8.9017   -0.0000 C   0  0  0  0  0  0  0  0  0  0  0  0
   14.2072   -5.1155   -0.0000 C   0  0  0  0  0  0  0  0  0  0  0  0
   12.9016   -2.8604   -0.0000 C   0  0  0  0  0  0  0  0  0  0  0  0
   15.5009   -4.3559   -0.0000 C   0  0  0  0  0  0  0  0  0  0  0  0
   14.1953   -2.1008   -0.0000 C   0  0  0  0  0  0  0  0  0  0  0  0
   15.4890   -2.8367   -0.0000 C   0  0  0  0  0  0  0  0  0  0  0  0
   16.7946   -5.0918   -0.0000 C   0  0  0  0  0  0  0  0  0  0  0  0
   18.0883   -5.8395   -0.0000 F   0  0  0  0  0  0  0  0  0  0  0  0
   16.0350   -6.3855   -0.0000 F   0  0  0  0  0  0  0  0  0  0  0  0
   17.5305   -3.7743   -0.0000 F   0  0  0  0  0  0  0  0  0  0  0  0
  1  2  2  0  0  0  0
  1  3  2  0  0  0  0
  1  4  1  0  0  0  0
  1  5  1  0  0  0  0
  4  6  1  0  0  0  0
  4  7  1  0  0  0  0
  5  8  1  0  0  0  0
  6  9  2  0  0  0  0
  6 10  1  0  0  0  0
  7 11  1  0  0  0  0
  9 12  1  0  0  0  0
  9 13  1  0  0  0  0
 10 14  2  0  0  0  0
 13 15  1  0  0  0  0
 13 16  2  0  0  0  0
 14 17  1  0  0  0  0
 15 18  2  0  0  0  0
 15 19  1  0  0  0  0
 17 20  1  0  0  0  0
 21 19  1  1  0  0  0
 20 22  1  0  0  0  0
 21 23  1  0  0  0  0
 21 24  1  0  0  0  0
 23 25  1  1  0  0  0
 23 26  1  0  0  0  0
 24 27  1  0  0  0  0
 26 28  1  0  0  0  0
 27 29  2  0  0  0  0
 27 30  1  0  0  0  0
 28 31  1  0  0  0  0
 29 32  1  0  0  0  0
 30 33  2  0  0  0  0
 31 34  1  0  0  0  0
 32 35  2  0  0  0  0
 34 36  2  0  0  0  0
 34 37  1  0  0  0  0
 36 38  1  0  0  0  0
 37 39  2  0  0  0  0
 38 40  2  0  0  0  0
 38 41  1  0  0  0  0
 41 42  1  0  0  0  0
 41 43  1  0  0  0  0
 41 44  1  0  0  0  0
  8 11  1  0  0  0  0
 14 16  1  0  0  0  0
 33 35  1  0  0  0  0
 39 40  1  0  0  0  0
M  END
>  <MolRegNo>
423782

>  <m>
=

>  <Value>
400

>  <Unit>
nM

>  <Type>
IC50

>  <pValue>
6.4

>  <Ligand Efficiency>
0

>  <Binding Efficiency>
0

>  <Surface Efficiency>
0

>  <Assay Index>
395026

>  <Assay Category>


>  <Assay Organism>


>  <Target ID>
17045

>  <Target Name>
Cytochrome P450 3A4

>  <Target Organism>
Homo sapiens

>  <Target Description>
Target is a single protein chain

>  <Sequence Accession>
P08684

>  <Reference>
Bioorg Med Chem Lett 19 (13), 3664-3668 (2009)

>  <Pubmed ID>
19428244

>  <DOI>
10.1016/j.bmcl.2009.03.165

$$$$
523412
Actelion Java MolfileCreator 1.0

 42 45  0  0  0  0  0  0  0  0999 V2000
    0.0000   -0.0000   -0.0000 F   0  0  0  0  0  0  0  0  0  0  0  0
   -0.0245   -1.2364   -0.0000 C   0  0  0  0  0  0  0  0  0  0  0  0
    1.3098   -2.0076   -0.0000 C   0  0  0  0  0  0  0  0  0  0  0  0
   -1.3833   -1.9953   -0.0000 C   0  0  0  0  0  0  0  0  0  0  0  0
    2.6441   -1.2241   -0.0000 N   0  0  0  0  0  0  0  0  0  0  0  0
    1.2853   -3.5500   -0.0000 C   0  0  0  0  0  0  0  0  0  0  0  0
   -2.7420   -1.1996   -0.0000 C   0  0  0  0  0  0  0  0  0  0  0  0
   -1.4077   -3.5377   -0.0000 C   0  0  0  0  0  0  0  0  0  0  0  0
    4.0274   -1.8607   -0.0000 C   0  0  0  0  0  0  0  0  0  0  0  0
    2.7788    0.3183   -0.0000 C   0  0  0  0  0  0  0  0  0  0  0  0
   -0.0734   -4.3089   -0.0000 C   0  0  0  0  0  0  0  0  0  0  0  0
   -2.7543    0.0612   -0.0000 O   0  0  0  0  0  0  0  0  0  0  0  0
   -4.1008   -1.9586   -0.0000 N   0  0  0  0  0  0  0  0  0  0  0  0
    4.2599   -3.0725   -0.0000 O   0  0  0  0  0  0  0  0  0  0  0  0
    5.0556   -0.6977   -0.0000 C   0  0  0  0  0  0  0  0  0  0  0  0
    4.2844    0.6488   -0.0000 C   0  0  0  0  0  0  0  0  0  0  0  0
   -0.0979   -5.8513   -0.0000 N   0  0  0  0  0  0  0  0  0  0  0  0
   -5.4596   -1.1629   -0.0000 C   0  0  0  0  0  0  0  0  0  0  0  0
   -1.4567   -6.6103   -0.0000 C   0  0  0  0  0  0  0  0  0  0  0  0
   -6.8184   -1.9219   -0.0000 C   0  0  0  0  0  0  0  0  0  0  0  0
   -5.4718    0.4040   -0.0000 C   0  0  0  0  0  0  0  0  0  0  0  0
   -1.4812   -7.8466   -0.0000 C   0  0  0  0  0  0  0  0  0  0  0  0
   -6.8306   -3.1582   -0.0000 O   0  0  0  0  0  0  0  0  0  0  0  0
   -8.1771   -1.1262   -0.0000 C   0  0  0  0  0  0  0  0  0  0  0  0
   -6.8306    1.1996   -0.0000 C   0  0  0  0  0  0  0  0  0  0  0  0
   -9.5359   -1.8851   -0.0000 N   0  0  0  0  0  0  0  0  0  0  0  0
   -8.1894    0.4407   -0.0000 C   0  0  0  0  0  0  0  0  0  0  0  0
   -6.8428    2.7665   -0.0000 C   0  0  0  0  0  0  0  0  0  0  0  0
  -10.8947   -1.0895   -0.0000 C   0  0  0  0  0  0  0  0  0  0  0  0
   -9.5481    1.2241   -0.0000 C   0  0  0  0  0  0  0  0  0  0  0  0
   -8.2016    3.5500   -0.0000 C   0  0  0  0  0  0  0  0  0  0  0  0
  -12.2535   -1.8484   -0.0000 C   0  0  0  0  0  0  0  0  0  0  0  0
   -9.5604    2.7910   -0.0000 C   0  0  0  0  0  0  0  0  0  0  0  0
  -12.2657   -3.3908   -0.0000 C   0  0  0  0  0  0  0  0  0  0  0  0
  -13.6122   -1.0527   -0.0000 C   0  0  0  0  0  0  0  0  0  0  0  0
  -13.6245   -4.1498   -0.0000 C   0  0  0  0  0  0  0  0  0  0  0  0
  -14.9710   -1.8117   -0.0000 C   0  0  0  0  0  0  0  0  0  0  0  0
  -14.9832   -3.3541   -0.0000 C   0  0  0  0  0  0  0  0  0  0  0  0
  -13.6367   -5.6922   -0.0000 C   0  0  0  0  0  0  0  0  0  0  0  0
  -14.7262   -6.3042   -0.0000 F   0  0  0  0  0  0  0  0  0  0  0  0
  -12.5717   -6.3042   -0.0000 F   0  0  0  0  0  0  0  0  0  0  0  0
  -13.6489   -6.9285   -0.0000 F   0  0  0  0  0  0  0  0  0  0  0  0
  1  2  1  0  0  0  0
  2  3  2  0  0  0  0
  2  4  1  0  0  0  0
  3  5  1  0  0  0  0
  3  6  1  0  0  0  0
  4  7  1  0  0  0  0
  4  8  2  0  0  0  0
  5  9  1  0  0  0  0
  5 10  1  0  0  0  0
  6 11  2  0  0  0  0
  7 12  2  0  0  0  0
  7 13  1  0  0  0  0
  9 14  2  0  0  0  0
  9 15  1  0  0  0  0
 10 16  1  0  0  0  0
 11 17  1  0  0  0  0
 18 13  1  1  0  0  0
 17 19  1  0  0  0  0
 18 20  1  0  0  0  0
 18 21  1  0  0  0  0
 19 22  1  0  0  0  0
 20 23  1  1  0  0  0
 20 24  1  0  0  0  0
 21 25  1  0  0  0  0
 24 26  1  0  0  0  0
 25 27  2  0  0  0  0
 25 28  1  0  0  0  0
 26 29  1  0  0  0  0
 27 30  1  0  0  0  0
 28 31  2  0  0  0  0
 29 32  1  0  0  0  0
 30 33  2  0  0  0  0
 32 34  2  0  0  0  0
 32 35  1  0  0  0  0
 34 36  1  0  0  0  0
 35 37  2  0  0  0  0
 36 38  2  0  0  0  0
 36 39  1  0  0  0  0
 39 40  1  0  0  0  0
 39 41  1  0  0  0  0
 39 42  1  0  0  0  0
  8 11  1  0  0  0  0
 15 16  1  0  0  0  0
 31 33  1  0  0  0  0
 37 38  1  0  0  0  0
M  END
>  <MolRegNo>
523412

>  <m>
=

>  <Value>
6300

>  <Unit>
nM

>  <Type>
IC50

>  <pValue>
5.2

>  <Ligand Efficiency>
0

>  <Binding Efficiency>
0

>  <Surface Efficiency>
0

>  <Assay Index>
395027

>  <Assay Category>


>  <Assay Organism>


>  <Target ID>
17045

>  <Target Name>
Cytochrome P450 3A4

>  <Target Organism>
Homo sapiens

>  <Target Description>
Target is a single protein chain

>  <Sequence Accession>
P08684

>  <Reference>
Bioorg Med Chem Lett 19 (13), 3664-3668 (2009)

>  <Pubmed ID>
19428244

>  <DOI>
10.1016/j.bmcl.2009.03.165

$$$$
444666
Actelion Java MolfileCreator 1.0

 40 43  0  0  0  0  0  0  0  0999 V2000
    0.0000   -0.0000   -0.0000 O   0  0  0  0  0  0  0  0  0  0  0  0
   -0.0119    1.5053   -0.0000 C   0  0  0  0  0  0  0  0  0  0  0  0
    1.2801    2.2757   -0.0000 C   0  0  0  0  0  0  0  0  0  0  0  0
   -1.3275    2.2639   -0.0000 C   0  0  0  0  0  0  0  0  0  0  0  0
    2.5720    1.5409   -0.0000 O   0  0  0  0  0  0  0  0  0  0  0  0
    1.2564    3.7929   -0.0000 C   0  0  0  0  0  0  0  0  0  0  0  0
   -1.3512    3.7810   -0.0000 C   0  0  0  0  0  0  0  0  0  0  0  0
   -2.6432    1.5171   -0.0000 C   0  0  0  0  0  0  0  0  0  0  0  0
    2.5602    0.0593   -0.0000 C   0  0  0  0  0  0  0  0  0  0  0  0
   -0.0593    4.5514   -0.0000 O   0  0  0  0  0  0  0  0  0  0  0  0
    2.5365    4.5514   -0.0000 C   0  0  0  0  0  0  0  0  0  0  0  0
   -2.6669    4.5396   -0.0000 C   0  0  0  0  0  0  0  0  0  0  0  0
   -2.6550    0.0356   -0.0000 O   0  0  0  0  0  0  0  0  0  0  0  0
   -3.9588    2.2757   -0.0000 C   0  0  0  0  0  0  0  0  0  0  0  0
    1.2445   -0.6756   -0.0000 O   0  0  0  0  0  0  0  0  0  0  0  0
    3.8403   -0.6638   -0.0000 C   0  0  0  0  0  0  0  0  0  0  0  0
    3.8284    3.8166   -0.0000 C   0  0  0  0  0  0  0  0  0  0  0  0
    2.5128    6.0567   -0.0000 C   0  0  0  0  0  0  0  0  0  0  0  0
   -3.9707    3.8047   -0.0000 C   0  0  0  0  0  0  0  0  0  0  0  0
    1.2327   -2.1572   -0.0000 C   0  0  0  0  0  0  0  0  0  0  0  0
    5.1204    0.1067   -0.0000 O   0  0  0  0  0  0  0  0  0  0  0  0
    3.8284   -2.1572   -0.0000 C   0  0  0  0  0  0  0  0  0  0  0  0
    5.1085    4.5752   -0.0000 C   0  0  0  0  0  0  0  0  0  0  0  0
    3.7929    6.8272   -0.0000 C   0  0  0  0  0  0  0  0  0  0  0  0
   -5.2863    4.5633   -0.0000 O   0  0  0  0  0  0  0  0  0  0  0  0
    2.5128   -2.9039   -0.0000 C   0  0  0  0  0  0  0  0  0  0  0  0
   -0.0830   -2.8921   -0.0000 C   0  0  0  0  0  0  0  0  0  0  0  0
    5.1085    1.6120   -0.0000 C   0  0  0  0  0  0  0  0  0  0  0  0
    5.1085   -2.8921   -0.0000 O   0  0  0  0  0  0  0  0  0  0  0  0
    5.0967    6.0923   -0.0000 C   0  0  0  0  0  0  0  0  0  0  0  0
    2.5009   -4.3855   -0.0000 O   0  0  0  0  0  0  0  0  0  0  0  0
    3.7929    2.3705   -0.0000 O   0  0  0  0  0  0  0  0  0  0  0  0
    6.3886    2.3824   -0.0000 C   0  0  0  0  0  0  0  0  0  0  0  0
    6.4005   -2.1335   -0.0000 C   0  0  0  0  0  0  0  0  0  0  0  0
    6.3768    6.8627   -0.0000 O   0  0  0  0  0  0  0  0  0  0  0  0
    1.1853   -5.1204   -0.0000 C   0  0  0  0  0  0  0  0  0  0  0  0
    6.3886   -0.6282   -0.0000 O   0  0  0  0  0  0  0  0  0  0  0  0
    7.6806   -2.8684   -0.0000 C   0  0  0  0  0  0  0  0  0  0  0  0
    1.1734   -6.6020   -0.0000 O   0  0  0  0  0  0  0  0  0  0  0  0
   -0.1185   -4.3618   -0.0000 C   0  0  0  0  0  0  0  0  0  0  0  0
  1  2  2  0  0  0  0
  2  3  1  0  0  0  0
  2  4  1  0  0  0  0
  3  5  1  0  0  0  0
  3  6  2  0  0  0  0
  4  7  2  0  0  0  0
  4  8  1  0  0  0  0
  9  5  1  6  0  0  0
  6 10  1  0  0  0  0
  6 11  1  0  0  0  0
  7 12  1  0  0  0  0
  8 13  1  0  0  0  0
  8 14  2  0  0  0  0
  9 15  1  0  0  0  0
  9 16  1  0  0  0  0
 11 17  2  0  0  0  0
 11 18  1  0  0  0  0
 12 19  2  0  0  0  0
 15 20  1  0  0  0  0
 16 21  1  1  0  0  0
 16 22  1  0  0  0  0
 17 23  1  0  0  0  0
 18 24  2  0  0  0  0
 19 25  1  0  0  0  0
 20 26  1  0  0  0  0
 20 27  1  1  0  0  0
 21 28  1  0  0  0  0
 22 29  1  1  0  0  0
 23 30  2  0  0  0  0
 26 31  1  6  0  0  0
 28 32  2  0  0  0  0
 28 33  1  0  0  0  0
 29 34  1  0  0  0  0
 30 35  1  0  0  0  0
 31 36  1  0  0  0  0
 34 37  2  0  0  0  0
 34 38  1  0  0  0  0
 36 39  2  0  0  0  0
 36 40  1  0  0  0  0
  7 10  1  0  0  0  0
 14 19  1  0  0  0  0
 22 26  1  0  0  0  0
 24 30  1  0  0  0  0
M  END
>  <MolRegNo>
444666

>  <m>
=

>  <Value>
14400

>  <Unit>
nM

>  <Type>
IC50

>  <pValue>
4.84

>  <Ligand Efficiency>
0

>  <Binding Efficiency>
0

>  <Surface Efficiency>
0

>  <Assay Index>
399810

>  <Assay Category>


>  <Assay Organism>
Homo sapiens

>  <Target ID>
17045

>  <Target Name>
Cytochrome P450 3A4

>  <Target Organism>
Homo sapiens

>  <Target Description>
Target is a single protein chain

>  <Sequence Accession>
P08684

>  <Reference>
J Nat Prod 67 (7), 1079-1083 (2004)

>  <Pubmed ID>
15270556

>  <DOI>
10.1021/np030556a

$$$$
407240
Actelion Java MolfileCreator 1.0

 37 40  0  0  0  0  0  0  0  0999 V2000
    0.0000   -0.0000   -0.0000 O   0  0  0  0  0  0  0  0  0  0  0  0
   -0.0118    1.5131   -0.0000 C   0  0  0  0  0  0  0  0  0  0  0  0
    1.2767    2.2696   -0.0000 C   0  0  0  0  0  0  0  0  0  0  0  0
   -1.3240    2.2696   -0.0000 C   0  0  0  0  0  0  0  0  0  0  0  0
    2.5652    1.5367   -0.0000 O   0  0  0  0  0  0  0  0  0  0  0  0
    1.2649    3.7827   -0.0000 C   0  0  0  0  0  0  0  0  0  0  0  0
   -1.3358    3.7827   -0.0000 C   0  0  0  0  0  0  0  0  0  0  0  0
   -2.6361    1.5367   -0.0000 C   0  0  0  0  0  0  0  0  0  0  0  0
    2.4824    0.0473   -0.0000 C   0  0  0  0  0  0  0  0  0  0  0  0
   -0.0473    4.5393   -0.0000 O   0  0  0  0  0  0  0  0  0  0  0  0
    2.5534    4.5393   -0.0000 C   0  0  0  0  0  0  0  0  0  0  0  0
   -2.6479    4.5393   -0.0000 C   0  0  0  0  0  0  0  0  0  0  0  0
   -2.6479    0.0473   -0.0000 O   0  0  0  0  0  0  0  0  0  0  0  0
   -3.9482    2.2933   -0.0000 C   0  0  0  0  0  0  0  0  0  0  0  0
    1.1348   -0.6383   -0.0000 O   0  0  0  0  0  0  0  0  0  0  0  0
    3.7355   -0.7447   -0.0000 C   0  0  0  0  0  0  0  0  0  0  0  0
    2.5415    6.0524   -0.0000 C   0  0  0  0  0  0  0  0  0  0  0  0
    3.8419    3.8064   -0.0000 C   0  0  0  0  0  0  0  0  0  0  0  0
   -3.9601    3.8064   -0.0000 C   0  0  0  0  0  0  0  0  0  0  0  0
    1.0521   -2.1278   -0.0000 C   0  0  0  0  0  0  0  0  0  0  0  0
    5.0594   -0.0355   -0.0000 O   0  0  0  0  0  0  0  0  0  0  0  0
    3.6527   -2.2342   -0.0000 C   0  0  0  0  0  0  0  0  0  0  0  0
    3.8300    6.8089   -0.0000 C   0  0  0  0  0  0  0  0  0  0  0  0
    5.1303    4.5629   -0.0000 C   0  0  0  0  0  0  0  0  0  0  0  0
   -5.2722    4.5629   -0.0000 O   0  0  0  0  0  0  0  0  0  0  0  0
    2.3051   -2.9198   -0.0000 C   0  0  0  0  0  0  0  0  0  0  0  0
   -0.2837   -2.8016   -0.0000 C   0  0  0  0  0  0  0  0  0  0  0  0
    4.9057   -3.0262   -0.0000 O   0  0  0  0  0  0  0  0  0  0  0  0
    5.1185    6.0760   -0.0000 C   0  0  0  0  0  0  0  0  0  0  0  0
    2.2342   -4.3974   -0.0000 O   0  0  0  0  0  0  0  0  0  0  0  0
    6.2297   -2.3169   -0.0000 C   0  0  0  0  0  0  0  0  0  0  0  0
    6.4070    6.8326   -0.0000 O   0  0  0  0  0  0  0  0  0  0  0  0
    0.8866   -5.0831   -0.0000 C   0  0  0  0  0  0  0  0  0  0  0  0
    6.2888   -0.8038   -0.0000 O   0  0  0  0  0  0  0  0  0  0  0  0
    7.4827   -3.1089   -0.0000 C   0  0  0  0  0  0  0  0  0  0  0  0
    0.8157   -6.5725   -0.0000 O   0  0  0  0  0  0  0  0  0  0  0  0
   -0.3901   -4.2674   -0.0000 C   0  0  0  0  0  0  0  0  0  0  0  0
  1  2  2  0  0  0  0
  2  3  1  0  0  0  0
  2  4  1  0  0  0  0
  3  5  1  0  0  0  0
  3  6  2  0  0  0  0
  4  7  2  0  0  0  0
  4  8  1  0  0  0  0
  9  5  1  6  0  0  0
  6 10  1  0  0  0  0
  6 11  1  0  0  0  0
  7 12  1  0  0  0  0
  8 13  1  0  0  0  0
  8 14  2  0  0  0  0
  9 15  1  0  0  0  0
  9 16  1  0  0  0  0
 11 17  2  0  0  0  0
 11 18  1  0  0  0  0
 12 19  2  0  0  0  0
 15 20  1  0  0  0  0
 16 21  1  1  0  0  0
 16 22  1  0  0  0  0
 17 23  1  0  0  0  0
 18 24  2  0  0  0  0
 19 25  1  0  0  0  0
 20 26  1  0  0  0  0
 20 27  1  1  0  0  0
 22 28  1  1  0  0  0
 23 29  2  0  0  0  0
 26 30  1  6  0  0  0
 28 31  1  0  0  0  0
 29 32  1  0  0  0  0
 30 33  1  0  0  0  0
 31 34  2  0  0  0  0
 31 35  1  0  0  0  0
 33 36  2  0  0  0  0
 33 37  1  0  0  0  0
  7 10  1  0  0  0  0
 14 19  1  0  0  0  0
 22 26  1  0  0  0  0
 24 29  1  0  0  0  0
M  END
>  <MolRegNo>
407240

>  <m>
=

>  <Value>
20600

>  <Unit>
nM

>  <Type>
IC50

>  <pValue>
4.69

>  <Ligand Efficiency>
0

>  <Binding Efficiency>
0

>  <Surface Efficiency>
0

>  <Assay Index>
399810

>  <Assay Category>


>  <Assay Organism>
Homo sapiens

>  <Target ID>
17045

>  <Target Name>
Cytochrome P450 3A4

>  <Target Organism>
Homo sapiens

>  <Target Description>
Target is a single protein chain

>  <Sequence Accession>
P08684

>  <Reference>
J Nat Prod 67 (7), 1079-1083 (2004)

>  <Pubmed ID>
15270556

>  <DOI>
10.1021/np030556a

$$$$
407810
Actelion Java MolfileCreator 1.0

 16 16  0  0  0  0  0  0  0  0999 V2000
    0.0000   -0.0000   -0.0000 O   0  0  0  0  0  0  0  0  0  0  0  0
   -0.0117   -1.4800   -0.0000 C   0  0  0  0  0  0  0  0  0  0  0  0
    1.2686   -2.2201   -0.0000 C   0  0  0  0  0  0  0  0  0  0  0  0
   -1.3038   -2.2201   -0.0000 C   0  0  0  0  0  0  0  0  0  0  0  0
    1.2569   -3.7001   -0.0000 C   0  0  0  0  0  0  0  0  0  0  0  0
    2.5490   -1.4683   -0.0000 C   0  0  0  0  0  0  0  0  0  0  0  0
   -1.3273   -3.7001   -0.0000 C   0  0  0  0  0  0  0  0  0  0  0  0
    2.5255   -4.4284   -0.0000 C   0  0  0  0  0  0  0  0  0  0  0  0
   -2.4432   -4.6868   -0.0000 C   0  0  0  0  0  0  0  0  0  0  0  0
    2.5020   -5.8967   -0.0000 C   0  0  0  0  0  0  0  0  0  0  0  0
   -1.8324   -6.0376   -0.0000 C   0  0  0  0  0  0  0  0  0  0  0  0
   -3.5122   -3.6179   -0.0000 C   0  0  0  0  0  0  0  0  0  0  0  0
   -3.7471   -5.4151   -0.0000 C   0  0  0  0  0  0  0  0  0  0  0  0
    1.2099   -6.6250   -0.0000 C   0  0  0  0  0  0  0  0  0  0  0  0
   -0.3641   -5.8497   -0.0000 C   0  0  0  0  0  0  0  0  0  0  0  0
    1.2451   -8.1050   -0.0000 C   0  0  0  0  0  0  0  0  0  0  0  0
  1  2  2  0  0  0  0
  2  3  1  0  0  0  0
  2  4  1  0  0  0  0
  3  5  2  0  0  0  0
  3  6  1  0  0  0  0
  4  7  2  0  0  0  0
  5  8  1  0  0  0  0
  7  9  1  0  0  0  0
  8 10  1  0  0  0  0
  9 11  1  0  0  0  0
  9 12  1  0  0  0  0
  9 13  1  0  0  0  0
 10 14  1  0  0  0  0
 11 15  1  0  0  0  0
 14 16  1  0  0  0  0
 14 15  2  0  0  0  0
M  END
>  <MolRegNo>
407810

>  <m>
=

>  <Value>
21800

>  <Unit>
nM

>  <Type>
IC50

>  <pValue>
4.66

>  <Ligand Efficiency>
0

>  <Binding Efficiency>
0

>  <Surface Efficiency>
0

>  <Assay Index>
399810

>  <Assay Category>


>  <Assay Organism>
Homo sapiens

>  <Target ID>
17045

>  <Target Name>
Cytochrome P450 3A4

>  <Target Organism>
Homo sapiens

>  <Target Description>
Target is a single protein chain

>  <Sequence Accession>
P08684

>  <Reference>
J Nat Prod 67 (7), 1079-1083 (2004)

>  <Pubmed ID>
15270556

>  <DOI>
10.1021/np030556a

$$$$
122490
Actelion Java MolfileCreator 1.0

 23 25  0  0  0  0  0  0  0  0999 V2000
    0.0000   -0.0000   -0.0000 O   0  0  0  0  0  0  0  0  0  0  0  0
    0.0000   -1.4868   -0.0000 C   0  0  0  0  0  0  0  0  0  0  0  0
   -1.3216   -2.2066   -0.0000 C   0  0  0  0  0  0  0  0  0  0  0  0
    1.2980   -2.2420   -0.0000 C   0  0  0  0  0  0  0  0  0  0  0  0
   -2.6432   -1.4278   -0.0000 O   0  0  0  0  0  0  0  0  0  0  0  0
   -1.3216   -3.6934   -0.0000 C   0  0  0  0  0  0  0  0  0  0  0  0
    1.2980   -3.7288   -0.0000 C   0  0  0  0  0  0  0  0  0  0  0  0
    2.5842   -1.4986   -0.0000 C   0  0  0  0  0  0  0  0  0  0  0  0
   -3.9530   -2.1594   -0.0000 C   0  0  0  0  0  0  0  0  0  0  0  0
   -0.0236   -4.4486   -0.0000 O   0  0  0  0  0  0  0  0  0  0  0  0
   -2.6314   -4.4132   -0.0000 C   0  0  0  0  0  0  0  0  0  0  0  0
    2.5960   -4.4840   -0.0000 C   0  0  0  0  0  0  0  0  0  0  0  0
    2.5606    0.0118   -0.0000 O   0  0  0  0  0  0  0  0  0  0  0  0
    3.8822   -2.2538   -0.0000 C   0  0  0  0  0  0  0  0  0  0  0  0
   -3.9530   -3.6462   -0.0000 C   0  0  0  0  0  0  0  0  0  0  0  0
   -2.6314   -5.9000   -0.0000 C   0  0  0  0  0  0  0  0  0  0  0  0
    3.8822   -3.7406   -0.0000 C   0  0  0  0  0  0  0  0  0  0  0  0
   -5.2746   -4.3660   -0.0000 C   0  0  0  0  0  0  0  0  0  0  0  0
   -3.9530   -6.6316   -0.0000 C   0  0  0  0  0  0  0  0  0  0  0  0
    5.1802   -4.4840   -0.0000 O   0  0  0  0  0  0  0  0  0  0  0  0
   -5.2746   -5.8528   -0.0000 C   0  0  0  0  0  0  0  0  0  0  0  0
   -6.5844   -6.5726   -0.0000 O   0  0  0  0  0  0  0  0  0  0  0  0
   -7.8824   -5.8528   -0.0000 C   0  0  0  0  0  0  0  0  0  0  0  0
  1  2  2  0  0  0  0
  2  3  1  0  0  0  0
  2  4  1  0  0  0  0
  3  5  1  0  0  0  0
  3  6  2  0  0  0  0
  4  7  2  0  0  0  0
  4  8  1  0  0  0  0
  5  9  1  0  0  0  0
  6 10  1  0  0  0  0
  6 11  1  0  0  0  0
  7 12  1  0  0  0  0
  8 13  1  0  0  0  0
  8 14  2  0  0  0  0
 11 15  2  0  0  0  0
 11 16  1  0  0  0  0
 12 17  2  0  0  0  0
 15 18  1  0  0  0  0
 16 19  2  0  0  0  0
 17 20  1  0  0  0  0
 18 21  2  0  0  0  0
 21 22  1  0  0  0  0
 22 23  1  0  0  0  0
  7 10  1  0  0  0  0
 14 17  1  0  0  0  0
 19 21  1  0  0  0  0
M  END
>  <MolRegNo>
122490

>  <m>
=

>  <Value>
21800

>  <Unit>
nM

>  <Type>
IC50

>  <pValue>
4.66

>  <Ligand Efficiency>
0

>  <Binding Efficiency>
0

>  <Surface Efficiency>
0

>  <Assay Index>
399810

>  <Assay Category>


>  <Assay Organism>
Homo sapiens

>  <Target ID>
17045

>  <Target Name>
Cytochrome P450 3A4

>  <Target Organism>
Homo sapiens

>  <Target Description>
Target is a single protein chain

>  <Sequence Accession>
P08684

>  <Reference>
J Nat Prod 67 (7), 1079-1083 (2004)

>  <Pubmed ID>
15270556

>  <DOI>
10.1021/np030556a

$$$$
444682
Actelion Java MolfileCreator 1.0

 37 40  0  0  0  0  0  0  0  0999 V2000
    0.0000   -0.0000   -0.0000 O   0  0  0  0  0  0  0  0  0  0  0  0
   -0.0118    1.5137   -0.0000 C   0  0  0  0  0  0  0  0  0  0  0  0
    1.2772    2.2705   -0.0000 C   0  0  0  0  0  0  0  0  0  0  0  0
   -1.3245    2.2705   -0.0000 C   0  0  0  0  0  0  0  0  0  0  0  0
    2.5662    1.5373   -0.0000 O   0  0  0  0  0  0  0  0  0  0  0  0
    1.2653    3.7842   -0.0000 C   0  0  0  0  0  0  0  0  0  0  0  0
   -1.3363    3.7842   -0.0000 C   0  0  0  0  0  0  0  0  0  0  0  0
   -2.6371    1.5373   -0.0000 C   0  0  0  0  0  0  0  0  0  0  0  0
    2.4834    0.0473   -0.0000 C   0  0  0  0  0  0  0  0  0  0  0  0
   -0.0473    4.5410   -0.0000 O   0  0  0  0  0  0  0  0  0  0  0  0
    2.5543    4.5410   -0.0000 C   0  0  0  0  0  0  0  0  0  0  0  0
   -2.6489    4.5410   -0.0000 C   0  0  0  0  0  0  0  0  0  0  0  0
   -2.6489    0.0473   -0.0000 O   0  0  0  0  0  0  0  0  0  0  0  0
   -3.9498    2.2942   -0.0000 C   0  0  0  0  0  0  0  0  0  0  0  0
    1.1353   -0.6386   -0.0000 O   0  0  0  0  0  0  0  0  0  0  0  0
    3.7369   -0.7450   -0.0000 C   0  0  0  0  0  0  0  0  0  0  0  0
    2.5425    6.0547   -0.0000 C   0  0  0  0  0  0  0  0  0  0  0  0
    3.8433    3.8079   -0.0000 C   0  0  0  0  0  0  0  0  0  0  0  0
   -3.9616    3.8079   -0.0000 C   0  0  0  0  0  0  0  0  0  0  0  0
    1.0525   -2.1286   -0.0000 C   0  0  0  0  0  0  0  0  0  0  0  0
    5.0614   -0.0355   -0.0000 O   0  0  0  0  0  0  0  0  0  0  0  0
    3.6541   -2.2350   -0.0000 C   0  0  0  0  0  0  0  0  0  0  0  0
    3.8315    6.8116   -0.0000 C   0  0  0  0  0  0  0  0  0  0  0  0
    5.1323    4.5647   -0.0000 C   0  0  0  0  0  0  0  0  0  0  0  0
   -5.2742    4.5647   -0.0000 O   0  0  0  0  0  0  0  0  0  0  0  0
    2.3060   -2.9209   -0.0000 C   0  0  0  0  0  0  0  0  0  0  0  0
   -0.2838   -2.8027   -0.0000 C   0  0  0  0  0  0  0  0  0  0  0  0
    6.3149   -0.8278   -0.0000 C   0  0  0  0  0  0  0  0  0  0  0  0
    4.9076   -3.0274   -0.0000 O   0  0  0  0  0  0  0  0  0  0  0  0
    5.1205    6.0784   -0.0000 C   0  0  0  0  0  0  0  0  0  0  0  0
    2.2350   -4.3991   -0.0000 O   0  0  0  0  0  0  0  0  0  0  0  0
    6.2439   -2.3178   -0.0000 O   0  0  0  0  0  0  0  0  0  0  0  0
    7.6394   -0.1183   -0.0000 C   0  0  0  0  0  0  0  0  0  0  0  0
    6.4095    6.8352   -0.0000 O   0  0  0  0  0  0  0  0  0  0  0  0
    0.8869   -5.0850   -0.0000 C   0  0  0  0  0  0  0  0  0  0  0  0
    0.8160   -6.5751   -0.0000 O   0  0  0  0  0  0  0  0  0  0  0  0
   -0.3902   -4.2691   -0.0000 C   0  0  0  0  0  0  0  0  0  0  0  0
  1  2  2  0  0  0  0
  2  3  1  0  0  0  0
  2  4  1  0  0  0  0
  3  5  1  0  0  0  0
  3  6  2  0  0  0  0
  4  7  2  0  0  0  0
  4  8  1  0  0  0  0
  9  5  1  6  0  0  0
  6 10  1  0  0  0  0
  6 11  1  0  0  0  0
  7 12  1  0  0  0  0
  8 13  1  0  0  0  0
  8 14  2  0  0  0  0
  9 15  1  0  0  0  0
  9 16  1  0  0  0  0
 11 17  2  0  0  0  0
 11 18  1  0  0  0  0
 12 19  2  0  0  0  0
 15 20  1  0  0  0  0
 16 21  1  1  0  0  0
 16 22  1  0  0  0  0
 17 23  1  0  0  0  0
 18 24  2  0  0  0  0
 19 25  1  0  0  0  0
 20 26  1  0  0  0  0
 20 27  1  1  0  0  0
 21 28  1  0  0  0  0
 22 29  1  1  0  0  0
 23 30  2  0  0  0  0
 26 31  1  6  0  0  0
 28 32  2  0  0  0  0
 28 33  1  0  0  0  0
 30 34  1  0  0  0  0
 31 35  1  0  0  0  0
 35 36  2  0  0  0  0
 35 37  1  0  0  0  0
  7 10  1  0  0  0  0
 14 19  1  0  0  0  0
 22 26  1  0  0  0  0
 24 30  1  0  0  0  0
M  END
>  <MolRegNo>
444682

>  <m>
=

>  <Value>
31600

>  <Unit>
nM

>  <Type>
IC50

>  <pValue>
4.5

>  <Ligand Efficiency>
0

>  <Binding Efficiency>
0

>  <Surface Efficiency>
0

>  <Assay Index>
399810

>  <Assay Category>


>  <Assay Organism>
Homo sapiens

>  <Target ID>
17045

>  <Target Name>
Cytochrome P450 3A4

>  <Target Organism>
Homo sapiens

>  <Target Description>
Target is a single protein chain

>  <Sequence Accession>
P08684

>  <Reference>
J Nat Prod 67 (7), 1079-1083 (2004)

>  <Pubmed ID>
15270556

>  <DOI>
10.1021/np030556a

$$$$
444664
Actelion Java MolfileCreator 1.0

 17 17  0  0  0  0  0  0  0  0999 V2000
    0.0000   -0.0000   -0.0000 O   0  0  0  0  0  0  0  0  0  0  0  0
   -0.0169   -1.4205   -0.0000 C   0  0  0  0  0  0  0  0  0  0  0  0
    1.2176   -2.1308   -0.0000 C   0  0  0  0  0  0  0  0  0  0  0  0
   -1.2852   -2.1308   -0.0000 C   0  0  0  0  0  0  0  0  0  0  0  0
    1.2007   -3.5683   -0.0000 C   0  0  0  0  0  0  0  0  0  0  0  0
    2.4521   -1.4036   -0.0000 C   0  0  0  0  0  0  0  0  0  0  0  0
   -1.3022   -3.5683   -0.0000 C   0  0  0  0  0  0  0  0  0  0  0  0
    2.4352   -4.2785   -0.0000 C   0  0  0  0  0  0  0  0  0  0  0  0
   -2.5705   -5.6991   -0.0000 C   0  0  0  0  0  0  0  0  0  0  0  0
    3.6697   -3.5344   -0.0000 O   0  0  0  0  0  0  0  0  0  0  0  0
    2.4183   -5.6991   -0.0000 C   0  0  0  0  0  0  0  0  0  0  0  0
   -1.3360   -6.4093   -0.0000 C   0  0  0  0  0  0  0  0  0  0  0  0
   -3.9910   -5.3101   -0.0000 C   0  0  0  0  0  0  0  0  0  0  0  0
   -3.6190   -6.7137   -0.0000 C   0  0  0  0  0  0  0  0  0  0  0  0
    1.1500   -6.4093   -0.0000 C   0  0  0  0  0  0  0  0  0  0  0  0
   -0.1015   -5.6822   -0.0000 C   0  0  0  0  0  0  0  0  0  0  0  0
    1.1330   -7.8468   -0.0000 C   0  0  0  0  0  0  0  0  0  0  0  0
  1  2  2  0  0  0  0
  2  3  1  0  0  0  0
  2  4  1  0  0  0  0
  3  5  2  0  0  0  0
  3  6  1  0  0  0  0
  4  7  2  0  0  0  0
  5  8  1  0  0  0  0
  7  9  1  0  0  0  0
  8 10  1  1  0  0  0
  8 11  1  0  0  0  0
  9 12  1  0  0  0  0
  9 13  1  0  0  0  0
  9 14  1  0  0  0  0
 11 15  1  0  0  0  0
 12 16  1  0  0  0  0
 15 17  1  0  0  0  0
 15 16  2  0  0  0  0
M  END
>  <MolRegNo>
444664

>  <m>
=

>  <Value>
35500

>  <Unit>
nM

>  <Type>
IC50

>  <pValue>
4.45

>  <Ligand Efficiency>
0

>  <Binding Efficiency>
0

>  <Surface Efficiency>
0

>  <Assay Index>
399810

>  <Assay Category>


>  <Assay Organism>
Homo sapiens

>  <Target ID>
17045

>  <Target Name>
Cytochrome P450 3A4

>  <Target Organism>
Homo sapiens

>  <Target Description>
Target is a single protein chain

>  <Sequence Accession>
P08684

>  <Reference>
J Nat Prod 67 (7), 1079-1083 (2004)

>  <Pubmed ID>
15270556

>  <DOI>
10.1021/np030556a

$$$$
273440
Actelion Java MolfileCreator 1.0

 22 24  0  0  0  0  0  0  0  0999 V2000
    0.0000   -0.0000   -0.0000 O   0  0  0  0  0  0  0  0  0  0  0  0
   -0.0123   -1.2462   -0.0000 C   0  0  0  0  0  0  0  0  0  0  0  0
   -1.3943   -2.0112   -0.0000 C   0  0  0  0  0  0  0  0  0  0  0  0
    1.3326   -2.0112   -0.0000 C   0  0  0  0  0  0  0  0  0  0  0  0
   -2.7638   -1.2092   -0.0000 O   0  0  0  0  0  0  0  0  0  0  0  0
   -1.4066   -3.5658   -0.0000 C   0  0  0  0  0  0  0  0  0  0  0  0
    1.3202   -3.5658   -0.0000 C   0  0  0  0  0  0  0  0  0  0  0  0
    2.6775   -1.2215   -0.0000 C   0  0  0  0  0  0  0  0  0  0  0  0
   -2.7762    0.0617   -0.0000 C   0  0  0  0  0  0  0  0  0  0  0  0
   -0.0494   -4.3308   -0.0000 O   0  0  0  0  0  0  0  0  0  0  0  0
   -2.7762   -4.3432   -0.0000 C   0  0  0  0  0  0  0  0  0  0  0  0
    2.6651   -4.3308   -0.0000 C   0  0  0  0  0  0  0  0  0  0  0  0
    2.6651    0.0494   -0.0000 O   0  0  0  0  0  0  0  0  0  0  0  0
    4.0224   -1.9865   -0.0000 C   0  0  0  0  0  0  0  0  0  0  0  0
   -2.7885   -5.8978   -0.0000 C   0  0  0  0  0  0  0  0  0  0  0  0
   -4.1457   -3.5411   -0.0000 C   0  0  0  0  0  0  0  0  0  0  0  0
    4.0100   -3.5411   -0.0000 C   0  0  0  0  0  0  0  0  0  0  0  0
   -4.1581   -6.6628   -0.0000 C   0  0  0  0  0  0  0  0  0  0  0  0
   -5.5153   -4.3061   -0.0000 C   0  0  0  0  0  0  0  0  0  0  0  0
    5.0835   -4.1581   -0.0000 O   0  0  0  0  0  0  0  0  0  0  0  0
   -5.5276   -5.8608   -0.0000 C   0  0  0  0  0  0  0  0  0  0  0  0
   -6.6258   -6.4777   -0.0000 O   0  0  0  0  0  0  0  0  0  0  0  0
  1  2  2  0  0  0  0
  2  3  1  0  0  0  0
  2  4  1  0  0  0  0
  3  5  1  0  0  0  0
  3  6  2  0  0  0  0
  4  7  2  0  0  0  0
  4  8  1  0  0  0  0
  5  9  1  0  0  0  0
  6 10  1  0  0  0  0
  6 11  1  0  0  0  0
  7 12  1  0  0  0  0
  8 13  1  0  0  0  0
  8 14  2  0  0  0  0
 11 15  2  0  0  0  0
 11 16  1  0  0  0  0
 12 17  2  0  0  0  0
 15 18  1  0  0  0  0
 16 19  2  0  0  0  0
 17 20  1  0  0  0  0
 18 21  2  0  0  0  0
 21 22  1  0  0  0  0
  7 10  1  0  0  0  0
 14 17  1  0  0  0  0
 19 21  1  0  0  0  0
M  END
>  <MolRegNo>
273440

>  <m>
=

>  <Value>
36200

>  <Unit>
nM

>  <Type>
IC50

>  <pValue>
4.44

>  <Ligand Efficiency>
0

>  <Binding Efficiency>
0

>  <Surface Efficiency>
0

>  <Assay Index>
399810

>  <Assay Category>


>  <Assay Organism>
Homo sapiens

>  <Target ID>
17045

>  <Target Name>
Cytochrome P450 3A4

>  <Target Organism>
Homo sapiens

>  <Target Description>
Target is a single protein chain

>  <Sequence Accession>
P08684

>  <Reference>
J Nat Prod 67 (7), 1079-1083 (2004)

>  <Pubmed ID>
15270556

>  <DOI>
10.1021/np030556a

$$$$
444706
Actelion Java MolfileCreator 1.0

 21 21  0  0  0  0  0  0  0  0999 V2000
    0.0000   -0.0000   -0.0000 O   0  0  0  0  0  0  0  0  0  0  0  0
   -0.0118    1.5107   -0.0000 C   0  0  0  0  0  0  0  0  0  0  0  0
    1.2746    2.2660   -0.0000 C   0  0  0  0  0  0  0  0  0  0  0  0
   -1.3218    2.2660   -0.0000 C   0  0  0  0  0  0  0  0  0  0  0  0
    2.5610    1.5343   -0.0000 C   0  0  0  0  0  0  0  0  0  0  0  0
   -2.6319    1.5343   -0.0000 C   0  0  0  0  0  0  0  0  0  0  0  0
    2.5492    0.0472   -0.0000 O   0  0  0  0  0  0  0  0  0  0  0  0
    3.8475    2.2896   -0.0000 C   0  0  0  0  0  0  0  0  0  0  0  0
   -3.9419    2.2896   -0.0000 C   0  0  0  0  0  0  0  0  0  0  0  0
    5.1339    1.5579   -0.0000 C   0  0  0  0  0  0  0  0  0  0  0  0
   -5.2519    1.5579   -0.0000 C   0  0  0  0  0  0  0  0  0  0  0  0
   -3.9537    3.8003   -0.0000 C   0  0  0  0  0  0  0  0  0  0  0  0
    6.4203    2.3132   -0.0000 C   0  0  0  0  0  0  0  0  0  0  0  0
   -6.5619    2.3132   -0.0000 C   0  0  0  0  0  0  0  0  0  0  0  0
   -5.2637    4.5556   -0.0000 C   0  0  0  0  0  0  0  0  0  0  0  0
    7.7067    1.5815   -0.0000 C   0  0  0  0  0  0  0  0  0  0  0  0
   -7.8720    1.5815   -0.0000 O   0  0  0  0  0  0  0  0  0  0  0  0
   -6.5737    3.8239   -0.0000 C   0  0  0  0  0  0  0  0  0  0  0  0
    8.9932    2.3368   -0.0000 C   0  0  0  0  0  0  0  0  0  0  0  0
   -7.8838    4.5792   -0.0000 O   0  0  0  0  0  0  0  0  0  0  0  0
   -7.8956    6.0899   -0.0000 C   0  0  0  0  0  0  0  0  0  0  0  0
  1  2  2  0  0  0  0
  2  3  1  0  0  0  0
  2  4  1  0  0  0  0
  3  5  1  0  0  0  0
  4  6  1  0  0  0  0
  5  7  1  6  0  0  0
  5  8  1  0  0  0  0
  6  9  1  0  0  0  0
  8 10  1  0  0  0  0
  9 11  2  0  0  0  0
  9 12  1  0  0  0  0
 10 13  1  0  0  0  0
 11 14  1  0  0  0  0
 12 15  2  0  0  0  0
 13 16  1  0  0  0  0
 14 17  1  0  0  0  0
 14 18  2  0  0  0  0
 16 19  1  0  0  0  0
 18 20  1  0  0  0  0
 20 21  1  0  0  0  0
 15 18  1  0  0  0  0
M  END
>  <MolRegNo>
444706

>  <m>
=

>  <Value>
36400

>  <Unit>
nM

>  <Type>
IC50

>  <pValue>
4.44

>  <Ligand Efficiency>
0

>  <Binding Efficiency>
0

>  <Surface Efficiency>
0

>  <Assay Index>
399810

>  <Assay Category>


>  <Assay Organism>
Homo sapiens

>  <Target ID>
17045

>  <Target Name>
Cytochrome P450 3A4

>  <Target Organism>
Homo sapiens

>  <Target Description>
Target is a single protein chain

>  <Sequence Accession>
P08684

>  <Reference>
J Nat Prod 67 (7), 1079-1083 (2004)

>  <Pubmed ID>
15270556

>  <DOI>
10.1021/np030556a

$$$$
444663
Actelion Java MolfileCreator 1.0

 18 19  0  0  0  0  0  0  0  0999 V2000
    0.0000   -0.0000   -0.0000 O   0  0  0  0  0  0  0  0  0  0  0  0
   -0.0171   -1.4340   -0.0000 C   0  0  0  0  0  0  0  0  0  0  0  0
    1.2120   -2.1510   -0.0000 C   0  0  0  0  0  0  0  0  0  0  0  0
   -1.2803   -2.1510   -0.0000 C   0  0  0  0  0  0  0  0  0  0  0  0
    1.1950   -3.5849   -0.0000 C   0  0  0  0  0  0  0  0  0  0  0  0
    2.4582   -1.3998   -0.0000 C   0  0  0  0  0  0  0  0  0  0  0  0
   -1.2974   -3.5849   -0.0000 C   0  0  0  0  0  0  0  0  0  0  0  0
    2.4412   -4.3019   -0.0000 C   0  0  0  0  0  0  0  0  0  0  0  0
   -2.5948   -5.7359   -0.0000 C   0  0  0  0  0  0  0  0  0  0  0  0
    3.6874   -3.5508   -0.0000 O   0  0  0  0  0  0  0  0  0  0  0  0
    2.4241   -5.7359   -0.0000 C   0  0  0  0  0  0  0  0  0  0  0  0
   -1.3486   -6.4529   -0.0000 C   0  0  0  0  0  0  0  0  0  0  0  0
   -3.6532   -6.7431   -0.0000 C   0  0  0  0  0  0  0  0  0  0  0  0
   -4.0288   -5.3433   -0.0000 C   0  0  0  0  0  0  0  0  0  0  0  0
    1.1438   -6.4529   -0.0000 C   0  0  0  0  0  0  0  0  0  0  0  0
   -0.1024   -5.7188   -0.0000 C   0  0  0  0  0  0  0  0  0  0  0  0
   -0.1366   -7.1357   -0.0000 O   0  0  0  0  0  0  0  0  0  0  0  0
    1.8437   -7.6820   -0.0000 C   0  0  0  0  0  0  0  0  0  0  0  0
  1  2  2  0  0  0  0
  2  3  1  0  0  0  0
  2  4  1  0  0  0  0
  3  5  2  0  0  0  0
  3  6  1  0  0  0  0
  4  7  2  0  0  0  0
  5  8  1  0  0  0  0
  7  9  1  0  0  0  0
  8 10  1  6  0  0  0
  8 11  1  0  0  0  0
  9 12  1  0  0  0  0
  9 13  1  0  0  0  0
  9 14  1  0  0  0  0
 11 15  1  0  0  0  0
 12 16  1  0  0  0  0
 15 17  1  6  0  0  0
 15 18  1  0  0  0  0
 15 16  1  0  0  0  0
 16 17  1  1  0  0  0
M  END
>  <MolRegNo>
444663

>  <m>
=

>  <Value>
42600

>  <Unit>
nM

>  <Type>
IC50

>  <pValue>
4.37

>  <Ligand Efficiency>
0

>  <Binding Efficiency>
0

>  <Surface Efficiency>
0

>  <Assay Index>
399810

>  <Assay Category>


>  <Assay Organism>
Homo sapiens

>  <Target ID>
17045

>  <Target Name>
Cytochrome P450 3A4

>  <Target Organism>
Homo sapiens

>  <Target Description>
Target is a single protein chain

>  <Sequence Accession>
P08684

>  <Reference>
J Nat Prod 67 (7), 1079-1083 (2004)

>  <Pubmed ID>
15270556

>  <DOI>
10.1021/np030556a

$$$$
444681
Actelion Java MolfileCreator 1.0

 17 18  0  0  0  0  0  0  0  0999 V2000
    0.0000   -0.0000   -0.0000 O   0  0  0  0  0  0  0  0  0  0  0  0
   -0.0170   -1.4245   -0.0000 C   0  0  0  0  0  0  0  0  0  0  0  0
    1.2040   -2.1367   -0.0000 C   0  0  0  0  0  0  0  0  0  0  0  0
   -1.2888   -2.1367   -0.0000 C   0  0  0  0  0  0  0  0  0  0  0  0
    1.1871   -3.5612   -0.0000 C   0  0  0  0  0  0  0  0  0  0  0  0
    2.4420   -1.4075   -0.0000 C   0  0  0  0  0  0  0  0  0  0  0  0
   -1.3058   -3.5612   -0.0000 C   0  0  0  0  0  0  0  0  0  0  0  0
    2.4250   -4.2735   -0.0000 C   0  0  0  0  0  0  0  0  0  0  0  0
   -2.5776   -5.6980   -0.0000 C   0  0  0  0  0  0  0  0  0  0  0  0
    2.4081   -5.6980   -0.0000 C   0  0  0  0  0  0  0  0  0  0  0  0
   -1.3397   -6.4102   -0.0000 C   0  0  0  0  0  0  0  0  0  0  0  0
   -4.0361   -5.6810   -0.0000 C   0  0  0  0  0  0  0  0  0  0  0  0
   -3.6121   -6.6985   -0.0000 C   0  0  0  0  0  0  0  0  0  0  0  0
    1.1362   -6.4102   -0.0000 C   0  0  0  0  0  0  0  0  0  0  0  0
   -0.1017   -5.6810   -0.0000 C   0  0  0  0  0  0  0  0  0  0  0  0
   -0.1865   -7.1224   -0.0000 O   0  0  0  0  0  0  0  0  0  0  0  0
    1.1192   -7.8856   -0.0000 C   0  0  0  0  0  0  0  0  0  0  0  0
  1  2  2  0  0  0  0
  2  3  1  0  0  0  0
  2  4  1  0  0  0  0
  3  5  2  0  0  0  0
  3  6  1  0  0  0  0
  4  7  2  0  0  0  0
  5  8  1  0  0  0  0
  7  9  1  0  0  0  0
  8 10  1  0  0  0  0
  9 11  1  0  0  0  0
  9 12  1  0  0  0  0
  9 13  1  0  0  0  0
 10 14  1  0  0  0  0
 11 15  1  0  0  0  0
 14 16  1  6  0  0  0
 14 17  1  0  0  0  0
 14 15  1  0  0  0  0
 15 16  1  6  0  0  0
M  END
>  <MolRegNo>
444681

>  <m>
=

>  <Value>
48400

>  <Unit>
nM

>  <Type>
IC50

>  <pValue>
4.32

>  <Ligand Efficiency>
0

>  <Binding Efficiency>
0

>  <Surface Efficiency>
0

>  <Assay Index>
399810

>  <Assay Category>


>  <Assay Organism>
Homo sapiens

>  <Target ID>
17045

>  <Target Name>
Cytochrome P450 3A4

>  <Target Organism>
Homo sapiens

>  <Target Description>
Target is a single protein chain

>  <Sequence Accession>
P08684

>  <Reference>
J Nat Prod 67 (7), 1079-1083 (2004)

>  <Pubmed ID>
15270556

>  <DOI>
10.1021/np030556a

$$$$
444665
Actelion Java MolfileCreator 1.0

 37 40  0  0  0  0  0  0  0  0999 V2000
    0.0000   -0.0000   -0.0000 O   0  0  0  0  0  0  0  0  0  0  0  0
   -0.0119    1.5052   -0.0000 C   0  0  0  0  0  0  0  0  0  0  0  0
    1.2800    2.2756   -0.0000 C   0  0  0  0  0  0  0  0  0  0  0  0
   -1.3274    2.2638   -0.0000 C   0  0  0  0  0  0  0  0  0  0  0  0
    2.5719    1.5408   -0.0000 O   0  0  0  0  0  0  0  0  0  0  0  0
    1.2563    3.7927   -0.0000 C   0  0  0  0  0  0  0  0  0  0  0  0
   -1.3511    3.7808   -0.0000 C   0  0  0  0  0  0  0  0  0  0  0  0
   -2.6430    1.5171   -0.0000 C   0  0  0  0  0  0  0  0  0  0  0  0
    2.5601    0.0593   -0.0000 C   0  0  0  0  0  0  0  0  0  0  0  0
   -0.0593    4.5512   -0.0000 O   0  0  0  0  0  0  0  0  0  0  0  0
    2.5364    4.5512   -0.0000 C   0  0  0  0  0  0  0  0  0  0  0  0
   -2.6667    4.5394   -0.0000 C   0  0  0  0  0  0  0  0  0  0  0  0
   -2.6549    0.0356   -0.0000 O   0  0  0  0  0  0  0  0  0  0  0  0
   -3.9586    2.2756   -0.0000 C   0  0  0  0  0  0  0  0  0  0  0  0
    1.2445   -0.6756   -0.0000 O   0  0  0  0  0  0  0  0  0  0  0  0
    3.8401   -0.6637   -0.0000 C   0  0  0  0  0  0  0  0  0  0  0  0
    3.8282    3.8164   -0.0000 C   0  0  0  0  0  0  0  0  0  0  0  0
    2.5127    6.0564   -0.0000 C   0  0  0  0  0  0  0  0  0  0  0  0
   -3.9705    3.8045   -0.0000 C   0  0  0  0  0  0  0  0  0  0  0  0
    1.2326   -2.1571   -0.0000 C   0  0  0  0  0  0  0  0  0  0  0  0
    5.1201    0.1067   -0.0000 O   0  0  0  0  0  0  0  0  0  0  0  0
    3.8282   -2.1571   -0.0000 C   0  0  0  0  0  0  0  0  0  0  0  0
    5.1083    4.5749   -0.0000 C   0  0  0  0  0  0  0  0  0  0  0  0
    3.7927    6.8268   -0.0000 C   0  0  0  0  0  0  0  0  0  0  0  0
   -5.2861    4.5631   -0.0000 O   0  0  0  0  0  0  0  0  0  0  0  0
    2.5127   -2.9038   -0.0000 C   0  0  0  0  0  0  0  0  0  0  0  0
   -0.0830   -2.8919   -0.0000 C   0  0  0  0  0  0  0  0  0  0  0  0
    5.1083    1.6119   -0.0000 C   0  0  0  0  0  0  0  0  0  0  0  0
    5.1083   -2.8919   -0.0000 O   0  0  0  0  0  0  0  0  0  0  0  0
    5.0964    6.0920   -0.0000 C   0  0  0  0  0  0  0  0  0  0  0  0
    2.5008   -4.3853   -0.0000 O   0  0  0  0  0  0  0  0  0  0  0  0
    3.7927    2.3704   -0.0000 O   0  0  0  0  0  0  0  0  0  0  0  0
    6.3883    2.3823   -0.0000 C   0  0  0  0  0  0  0  0  0  0  0  0
    6.4002   -2.1334   -0.0000 C   0  0  0  0  0  0  0  0  0  0  0  0
    6.3764    6.8624   -0.0000 O   0  0  0  0  0  0  0  0  0  0  0  0
    6.3883   -0.6282   -0.0000 O   0  0  0  0  0  0  0  0  0  0  0  0
    7.6802   -2.8682   -0.0000 C   0  0  0  0  0  0  0  0  0  0  0  0
  1  2  2  0  0  0  0
  2  3  1  0  0  0  0
  2  4  1  0  0  0  0
  3  5  1  0  0  0  0
  3  6  2  0  0  0  0
  4  7  2  0  0  0  0
  4  8  1  0  0  0  0
  9  5  1  6  0  0  0
  6 10  1  0  0  0  0
  6 11  1  0  0  0  0
  7 12  1  0  0  0  0
  8 13  1  0  0  0  0
  8 14  2  0  0  0  0
  9 15  1  0  0  0  0
  9 16  1  0  0  0  0
 11 17  2  0  0  0  0
 11 18  1  0  0  0  0
 12 19  2  0  0  0  0
 15 20  1  0  0  0  0
 16 21  1  1  0  0  0
 16 22  1  0  0  0  0
 17 23  1  0  0  0  0
 18 24  2  0  0  0  0
 19 25  1  0  0  0  0
 20 26  1  0  0  0  0
 20 27  1  1  0  0  0
 21 28  1  0  0  0  0
 22 29  1  1  0  0  0
 23 30  2  0  0  0  0
 26 31  1  6  0  0  0
 28 32  2  0  0  0  0
 28 33  1  0  0  0  0
 29 34  1  0  0  0  0
 30 35  1  0  0  0  0
 34 36  2  0  0  0  0
 34 37  1  0  0  0  0
  7 10  1  0  0  0  0
 14 19  1  0  0  0  0
 22 26  1  0  0  0  0
 24 30  1  0  0  0  0
M  END
>  <MolRegNo>
444665

>  <m>
=

>  <Value>
55800

>  <Unit>
nM

>  <Type>
IC50

>  <pValue>
4.25

>  <Ligand Efficiency>
0

>  <Binding Efficiency>
0

>  <Surface Efficiency>
0

>  <Assay Index>
399810

>  <Assay Category>


>  <Assay Organism>
Homo sapiens

>  <Target ID>
17045

>  <Target Name>
Cytochrome P450 3A4

>  <Target Organism>
Homo sapiens

>  <Target Description>
Target is a single protein chain

>  <Sequence Accession>
P08684

>  <Reference>
J Nat Prod 67 (7), 1079-1083 (2004)

>  <Pubmed ID>
15270556

>  <DOI>
10.1021/np030556a

$$$$
444683
Actelion Java MolfileCreator 1.0

 34 37  0  0  0  0  0  0  0  0999 V2000
    0.0000   -0.0000   -0.0000 O   0  0  0  0  0  0  0  0  0  0  0  0
   -0.0118    1.5142   -0.0000 C   0  0  0  0  0  0  0  0  0  0  0  0
    1.2776    2.2713   -0.0000 C   0  0  0  0  0  0  0  0  0  0  0  0
   -1.3249    2.2713   -0.0000 C   0  0  0  0  0  0  0  0  0  0  0  0
    2.5671    1.5379   -0.0000 O   0  0  0  0  0  0  0  0  0  0  0  0
    1.2658    3.7856   -0.0000 C   0  0  0  0  0  0  0  0  0  0  0  0
   -1.3368    3.7856   -0.0000 C   0  0  0  0  0  0  0  0  0  0  0  0
   -2.6381    1.5379   -0.0000 C   0  0  0  0  0  0  0  0  0  0  0  0
    2.4843    0.0473   -0.0000 C   0  0  0  0  0  0  0  0  0  0  0  0
   -0.0473    4.5427   -0.0000 O   0  0  0  0  0  0  0  0  0  0  0  0
    2.5553    4.5427   -0.0000 C   0  0  0  0  0  0  0  0  0  0  0  0
   -2.6499    4.5427   -0.0000 C   0  0  0  0  0  0  0  0  0  0  0  0
   -2.6499    0.0473   -0.0000 O   0  0  0  0  0  0  0  0  0  0  0  0
   -3.9512    2.2950   -0.0000 C   0  0  0  0  0  0  0  0  0  0  0  0
    1.1357   -0.6388   -0.0000 O   0  0  0  0  0  0  0  0  0  0  0  0
    3.7382   -0.7453   -0.0000 C   0  0  0  0  0  0  0  0  0  0  0  0
    2.5434    6.0569   -0.0000 C   0  0  0  0  0  0  0  0  0  0  0  0
    3.8447    3.8092   -0.0000 C   0  0  0  0  0  0  0  0  0  0  0  0
   -3.9630    3.8092   -0.0000 C   0  0  0  0  0  0  0  0  0  0  0  0
    1.0529   -2.1294   -0.0000 C   0  0  0  0  0  0  0  0  0  0  0  0
    5.0632   -0.0355   -0.0000 O   0  0  0  0  0  0  0  0  0  0  0  0
    3.6554   -2.2358   -0.0000 C   0  0  0  0  0  0  0  0  0  0  0  0
    3.8329    6.8140   -0.0000 C   0  0  0  0  0  0  0  0  0  0  0  0
    5.1342    4.5663   -0.0000 C   0  0  0  0  0  0  0  0  0  0  0  0
   -5.2761    4.5663   -0.0000 O   0  0  0  0  0  0  0  0  0  0  0  0
    2.3068   -2.9220   -0.0000 C   0  0  0  0  0  0  0  0  0  0  0  0
   -0.2839   -2.8037   -0.0000 C   0  0  0  0  0  0  0  0  0  0  0  0
    6.3172   -0.8281   -0.0000 C   0  0  0  0  0  0  0  0  0  0  0  0
    4.9094   -3.0284   -0.0000 O   0  0  0  0  0  0  0  0  0  0  0  0
    5.1223    6.0806   -0.0000 C   0  0  0  0  0  0  0  0  0  0  0  0
    2.2358   -4.4007   -0.0000 O   0  0  0  0  0  0  0  0  0  0  0  0
    6.2462   -2.3187   -0.0000 O   0  0  0  0  0  0  0  0  0  0  0  0
    7.6421   -0.1183   -0.0000 C   0  0  0  0  0  0  0  0  0  0  0  0
    6.4118    6.8377   -0.0000 O   0  0  0  0  0  0  0  0  0  0  0  0
  1  2  2  0  0  0  0
  2  3  1  0  0  0  0
  2  4  1  0  0  0  0
  3  5  1  0  0  0  0
  3  6  2  0  0  0  0
  4  7  2  0  0  0  0
  4  8  1  0  0  0  0
  9  5  1  6  0  0  0
  6 10  1  0  0  0  0
  6 11  1  0  0  0  0
  7 12  1  0  0  0  0
  8 13  1  0  0  0  0
  8 14  2  0  0  0  0
  9 15  1  0  0  0  0
  9 16  1  0  0  0  0
 11 17  2  0  0  0  0
 11 18  1  0  0  0  0
 12 19  2  0  0  0  0
 15 20  1  0  0  0  0
 16 21  1  1  0  0  0
 16 22  1  0  0  0  0
 17 23  1  0  0  0  0
 18 24  2  0  0  0  0
 19 25  1  0  0  0  0
 20 26  1  0  0  0  0
 20 27  1  1  0  0  0
 21 28  1  0  0  0  0
 22 29  1  1  0  0  0
 23 30  2  0  0  0  0
 26 31  1  6  0  0  0
 28 32  2  0  0  0  0
 28 33  1  0  0  0  0
 30 34  1  0  0  0  0
  7 10  1  0  0  0  0
 14 19  1  0  0  0  0
 22 26  1  0  0  0  0
 24 30  1  0  0  0  0
M  END
>  <MolRegNo>
444683

>  <m>
=

>  <Value>
59000

>  <Unit>
nM

>  <Type>
IC50

>  <pValue>
4.23

>  <Ligand Efficiency>
0

>  <Binding Efficiency>
0

>  <Surface Efficiency>
0

>  <Assay Index>
399810

>  <Assay Category>


>  <Assay Organism>
Homo sapiens

>  <Target ID>
17045

>  <Target Name>
Cytochrome P450 3A4

>  <Target Organism>
Homo sapiens

>  <Target Description>
Target is a single protein chain

>  <Sequence Accession>
P08684

>  <Reference>
J Nat Prod 67 (7), 1079-1083 (2004)

>  <Pubmed ID>
15270556

>  <DOI>
10.1021/np030556a

$$$$
444667
Actelion Java MolfileCreator 1.0

 18 19  0  0  0  0  0  0  0  0999 V2000
    0.0000   -0.0000   -0.0000 O   0  0  0  0  0  0  0  0  0  0  0  0
   -0.0171   -1.4350   -0.0000 C   0  0  0  0  0  0  0  0  0  0  0  0
    1.2129   -2.1525   -0.0000 C   0  0  0  0  0  0  0  0  0  0  0  0
   -1.2984   -2.1525   -0.0000 C   0  0  0  0  0  0  0  0  0  0  0  0
    1.1959   -3.5876   -0.0000 C   0  0  0  0  0  0  0  0  0  0  0  0
    2.4600   -1.4009   -0.0000 C   0  0  0  0  0  0  0  0  0  0  0  0
   -1.3154   -3.5876   -0.0000 C   0  0  0  0  0  0  0  0  0  0  0  0
    2.4430   -4.3051   -0.0000 C   0  0  0  0  0  0  0  0  0  0  0  0
   -2.5967   -5.7401   -0.0000 C   0  0  0  0  0  0  0  0  0  0  0  0
    3.6901   -3.5534   -0.0000 O   0  0  0  0  0  0  0  0  0  0  0  0
    2.4259   -5.7401   -0.0000 C   0  0  0  0  0  0  0  0  0  0  0  0
   -1.3496   -6.4576   -0.0000 C   0  0  0  0  0  0  0  0  0  0  0  0
   -3.6559   -6.7480   -0.0000 C   0  0  0  0  0  0  0  0  0  0  0  0
   -4.0659   -5.7230   -0.0000 C   0  0  0  0  0  0  0  0  0  0  0  0
    1.1446   -6.4576   -0.0000 C   0  0  0  0  0  0  0  0  0  0  0  0
   -0.1025   -5.7230   -0.0000 C   0  0  0  0  0  0  0  0  0  0  0  0
   -0.1367   -7.1409   -0.0000 O   0  0  0  0  0  0  0  0  0  0  0  0
    1.8279   -7.6876   -0.0000 C   0  0  0  0  0  0  0  0  0  0  0  0
  1  2  2  0  0  0  0
  2  3  1  0  0  0  0
  2  4  1  0  0  0  0
  3  5  2  0  0  0  0
  3  6  1  0  0  0  0
  4  7  2  0  0  0  0
  5  8  1  0  0  0  0
  7  9  1  0  0  0  0
  8 10  1  1  0  0  0
  8 11  1  0  0  0  0
  9 12  1  0  0  0  0
  9 13  1  0  0  0  0
  9 14  1  0  0  0  0
 11 15  1  0  0  0  0
 12 16  1  0  0  0  0
 15 17  1  6  0  0  0
 15 18  1  0  0  0  0
 15 16  1  0  0  0  0
 16 17  1  6  0  0  0
M  END
>  <MolRegNo>
444667

>  <m>
=

>  <Value>
62500

>  <Unit>
nM

>  <Type>
IC50

>  <pValue>
4.2

>  <Ligand Efficiency>
0

>  <Binding Efficiency>
0

>  <Surface Efficiency>
0

>  <Assay Index>
399810

>  <Assay Category>


>  <Assay Organism>
Homo sapiens

>  <Target ID>
17045

>  <Target Name>
Cytochrome P450 3A4

>  <Target Organism>
Homo sapiens

>  <Target Description>
Target is a single protein chain

>  <Sequence Accession>
P08684

>  <Reference>
J Nat Prod 67 (7), 1079-1083 (2004)

>  <Pubmed ID>
15270556

>  <DOI>
10.1021/np030556a

$$$$
31487
Actelion Java MolfileCreator 1.0

 20 20  0  0  0  0  0  0  0  0999 V2000
    0.0000   -0.0000   -0.0000 O   0  0  0  0  0  0  0  0  0  0  0  0
   -0.0119   -1.4885   -0.0000 C   0  0  0  0  0  0  0  0  0  0  0  0
    1.2742   -2.2268   -0.0000 C   0  0  0  0  0  0  0  0  0  0  0  0
   -1.3218   -2.2268   -0.0000 C   0  0  0  0  0  0  0  0  0  0  0  0
    2.5602   -1.4647   -0.0000 C   0  0  0  0  0  0  0  0  0  0  0  0
   -2.6317   -1.4647   -0.0000 C   0  0  0  0  0  0  0  0  0  0  0  0
    3.8463   -2.2030   -0.0000 C   0  0  0  0  0  0  0  0  0  0  0  0
   -3.9416   -2.2030   -0.0000 C   0  0  0  0  0  0  0  0  0  0  0  0
    5.1324   -1.4409   -0.0000 C   0  0  0  0  0  0  0  0  0  0  0  0
   -5.2515   -1.4409   -0.0000 C   0  0  0  0  0  0  0  0  0  0  0  0
   -3.9535   -3.7034   -0.0000 C   0  0  0  0  0  0  0  0  0  0  0  0
    6.4184   -2.1792   -0.0000 C   0  0  0  0  0  0  0  0  0  0  0  0
   -6.5613   -2.1792   -0.0000 C   0  0  0  0  0  0  0  0  0  0  0  0
   -5.2753   -4.4417   -0.0000 C   0  0  0  0  0  0  0  0  0  0  0  0
    7.7045   -1.4171   -0.0000 C   0  0  0  0  0  0  0  0  0  0  0  0
   -7.8712   -1.4171   -0.0000 O   0  0  0  0  0  0  0  0  0  0  0  0
   -6.5733   -3.6796   -0.0000 C   0  0  0  0  0  0  0  0  0  0  0  0
    9.0025   -2.1554   -0.0000 C   0  0  0  0  0  0  0  0  0  0  0  0
   -9.1811   -2.1554   -0.0000 C   0  0  0  0  0  0  0  0  0  0  0  0
   -7.8831   -4.4179   -0.0000 O   0  0  0  0  0  0  0  0  0  0  0  0
  1  2  2  0  0  0  0
  2  3  1  0  0  0  0
  2  4  1  0  0  0  0
  3  5  2  0  0  0  0
  4  6  1  0  0  0  0
  5  7  1  0  0  0  0
  6  8  1  0  0  0  0
  7  9  1  0  0  0  0
  8 10  2  0  0  0  0
  8 11  1  0  0  0  0
  9 12  1  0  0  0  0
 10 13  1  0  0  0  0
 11 14  2  0  0  0  0
 12 15  1  0  0  0  0
 13 16  1  0  0  0  0
 13 17  2  0  0  0  0
 15 18  1  0  0  0  0
 16 19  1  0  0  0  0
 17 20  1  0  0  0  0
 14 17  1  0  0  0  0
M  END
>  <MolRegNo>
31487

>  <m>
=

>  <Value>
77700

>  <Unit>
nM

>  <Type>
IC50

>  <pValue>
4.11

>  <Ligand Efficiency>
0

>  <Binding Efficiency>
0

>  <Surface Efficiency>
0

>  <Assay Index>
399810

>  <Assay Category>


>  <Assay Organism>
Homo sapiens

>  <Target ID>
17045

>  <Target Name>
Cytochrome P450 3A4

>  <Target Organism>
Homo sapiens

>  <Target Description>
Target is a single protein chain

>  <Sequence Accession>
P08684

>  <Reference>
J Nat Prod 67 (7), 1079-1083 (2004)

>  <Pubmed ID>
15270556

>  <DOI>
10.1021/np030556a

$$$$
444697
Actelion Java MolfileCreator 1.0

 34 37  0  0  0  0  0  0  0  0999 V2000
    0.0000   -0.0000   -0.0000 O   0  0  0  0  0  0  0  0  0  0  0  0
   -0.0118    1.5131   -0.0000 C   0  0  0  0  0  0  0  0  0  0  0  0
    1.2766    2.2696   -0.0000 C   0  0  0  0  0  0  0  0  0  0  0  0
   -1.3239    2.2696   -0.0000 C   0  0  0  0  0  0  0  0  0  0  0  0
    2.5651    1.5367   -0.0000 O   0  0  0  0  0  0  0  0  0  0  0  0
    1.2648    3.7826   -0.0000 C   0  0  0  0  0  0  0  0  0  0  0  0
   -1.3357    3.7826   -0.0000 C   0  0  0  0  0  0  0  0  0  0  0  0
   -2.6360    1.5367   -0.0000 C   0  0  0  0  0  0  0  0  0  0  0  0
    2.4824    0.0473   -0.0000 C   0  0  0  0  0  0  0  0  0  0  0  0
   -0.0473    4.5392   -0.0000 O   0  0  0  0  0  0  0  0  0  0  0  0
    2.5533    4.5392   -0.0000 C   0  0  0  0  0  0  0  0  0  0  0  0
   -2.6479    4.5392   -0.0000 C   0  0  0  0  0  0  0  0  0  0  0  0
   -2.6479    0.0473   -0.0000 O   0  0  0  0  0  0  0  0  0  0  0  0
   -3.9481    2.2932   -0.0000 C   0  0  0  0  0  0  0  0  0  0  0  0
    1.1348   -0.6383   -0.0000 O   0  0  0  0  0  0  0  0  0  0  0  0
    3.7354   -0.7447   -0.0000 C   0  0  0  0  0  0  0  0  0  0  0  0
    2.5415    6.0522   -0.0000 C   0  0  0  0  0  0  0  0  0  0  0  0
    3.8418    3.8063   -0.0000 C   0  0  0  0  0  0  0  0  0  0  0  0
   -3.9600    3.8063   -0.0000 C   0  0  0  0  0  0  0  0  0  0  0  0
    1.0520   -2.1277   -0.0000 C   0  0  0  0  0  0  0  0  0  0  0  0
    5.0593   -0.0355   -0.0000 O   0  0  0  0  0  0  0  0  0  0  0  0
    3.6526   -2.2341   -0.0000 C   0  0  0  0  0  0  0  0  0  0  0  0
    3.8299    6.8088   -0.0000 C   0  0  0  0  0  0  0  0  0  0  0  0
    5.1302    4.5628   -0.0000 C   0  0  0  0  0  0  0  0  0  0  0  0
   -5.2721    4.5628   -0.0000 O   0  0  0  0  0  0  0  0  0  0  0  0
    2.3051   -2.9197   -0.0000 C   0  0  0  0  0  0  0  0  0  0  0  0
   -0.2837   -2.8015   -0.0000 C   0  0  0  0  0  0  0  0  0  0  0  0
    4.9056   -3.0261   -0.0000 O   0  0  0  0  0  0  0  0  0  0  0  0
    5.1184    6.0759   -0.0000 C   0  0  0  0  0  0  0  0  0  0  0  0
    2.2341   -4.3973   -0.0000 O   0  0  0  0  0  0  0  0  0  0  0  0
    6.4069    6.8324   -0.0000 O   0  0  0  0  0  0  0  0  0  0  0  0
    0.8866   -5.0829   -0.0000 C   0  0  0  0  0  0  0  0  0  0  0  0
    0.8156   -6.5724   -0.0000 O   0  0  0  0  0  0  0  0  0  0  0  0
   -0.3901   -4.2673   -0.0000 C   0  0  0  0  0  0  0  0  0  0  0  0
  1  2  2  0  0  0  0
  2  3  1  0  0  0  0
  2  4  1  0  0  0  0
  3  5  1  0  0  0  0
  3  6  2  0  0  0  0
  4  7  2  0  0  0  0
  4  8  1  0  0  0  0
  9  5  1  6  0  0  0
  6 10  1  0  0  0  0
  6 11  1  0  0  0  0
  7 12  1  0  0  0  0
  8 13  1  0  0  0  0
  8 14  2  0  0  0  0
  9 15  1  0  0  0  0
  9 16  1  0  0  0  0
 11 17  2  0  0  0  0
 11 18  1  0  0  0  0
 12 19  2  0  0  0  0
 15 20  1  0  0  0  0
 16 21  1  1  0  0  0
 16 22  1  0  0  0  0
 17 23  1  0  0  0  0
 18 24  2  0  0  0  0
 19 25  1  0  0  0  0
 20 26  1  0  0  0  0
 20 27  1  1  0  0  0
 22 28  1  1  0  0  0
 23 29  2  0  0  0  0
 26 30  1  6  0  0  0
 29 31  1  0  0  0  0
 30 32  1  0  0  0  0
 32 33  2  0  0  0  0
 32 34  1  0  0  0  0
  7 10  1  0  0  0  0
 14 19  1  0  0  0  0
 22 26  1  0  0  0  0
 24 29  1  0  0  0  0
M  END
>  <MolRegNo>
444697

>  <m>
=

>  <Value>
90000

>  <Unit>
nM

>  <Type>
IC50

>  <pValue>
4.05

>  <Ligand Efficiency>
0

>  <Binding Efficiency>
0

>  <Surface Efficiency>
0

>  <Assay Index>
399810

>  <Assay Category>


>  <Assay Organism>
Homo sapiens

>  <Target ID>
17045

>  <Target Name>
Cytochrome P450 3A4

>  <Target Organism>
Homo sapiens

>  <Target Description>
Target is a single protein chain

>  <Sequence Accession>
P08684

>  <Reference>
J Nat Prod 67 (7), 1079-1083 (2004)

>  <Pubmed ID>
15270556

>  <DOI>
10.1021/np030556a

$$$$
444696
Actelion Java MolfileCreator 1.0

 34 37  0  0  0  0  0  0  0  0999 V2000
    0.0000   -0.0000   -0.0000 O   0  0  0  0  0  0  0  0  0  0  0  0
   -0.0118    1.5136   -0.0000 C   0  0  0  0  0  0  0  0  0  0  0  0
    1.2771    2.2704   -0.0000 C   0  0  0  0  0  0  0  0  0  0  0  0
   -1.3244    2.2704   -0.0000 C   0  0  0  0  0  0  0  0  0  0  0  0
    2.5660    1.5372   -0.0000 O   0  0  0  0  0  0  0  0  0  0  0  0
    1.2653    3.7840   -0.0000 C   0  0  0  0  0  0  0  0  0  0  0  0
   -1.3362    3.7840   -0.0000 C   0  0  0  0  0  0  0  0  0  0  0  0
   -2.6370    1.5372   -0.0000 C   0  0  0  0  0  0  0  0  0  0  0  0
    2.4832    0.0473   -0.0000 C   0  0  0  0  0  0  0  0  0  0  0  0
   -0.0473    4.5408   -0.0000 O   0  0  0  0  0  0  0  0  0  0  0  0
    2.5542    4.5408   -0.0000 C   0  0  0  0  0  0  0  0  0  0  0  0
   -2.6488    4.5408   -0.0000 C   0  0  0  0  0  0  0  0  0  0  0  0
   -2.6488    0.0473   -0.0000 O   0  0  0  0  0  0  0  0  0  0  0  0
   -3.9495    2.2940   -0.0000 C   0  0  0  0  0  0  0  0  0  0  0  0
    1.1352   -0.6385   -0.0000 O   0  0  0  0  0  0  0  0  0  0  0  0
    3.7367   -0.7450   -0.0000 C   0  0  0  0  0  0  0  0  0  0  0  0
    2.5424    6.0544   -0.0000 C   0  0  0  0  0  0  0  0  0  0  0  0
    3.8431    3.8076   -0.0000 C   0  0  0  0  0  0  0  0  0  0  0  0
   -3.9614    3.8076   -0.0000 C   0  0  0  0  0  0  0  0  0  0  0  0
    1.0524   -2.1285   -0.0000 C   0  0  0  0  0  0  0  0  0  0  0  0
    5.0611   -0.0355   -0.0000 O   0  0  0  0  0  0  0  0  0  0  0  0
    3.6539   -2.2349   -0.0000 C   0  0  0  0  0  0  0  0  0  0  0  0
    3.8313    6.8112   -0.0000 C   0  0  0  0  0  0  0  0  0  0  0  0
    5.1320    4.5644   -0.0000 C   0  0  0  0  0  0  0  0  0  0  0  0
   -5.2739    4.5644   -0.0000 O   0  0  0  0  0  0  0  0  0  0  0  0
    2.3059   -2.9208   -0.0000 C   0  0  0  0  0  0  0  0  0  0  0  0
   -0.2838   -2.8025   -0.0000 C   0  0  0  0  0  0  0  0  0  0  0  0
    4.9074   -3.0272   -0.0000 O   0  0  0  0  0  0  0  0  0  0  0  0
    5.1202    6.0780   -0.0000 C   0  0  0  0  0  0  0  0  0  0  0  0
    2.2349   -4.3989   -0.0000 O   0  0  0  0  0  0  0  0  0  0  0  0
    6.2317   -2.3177   -0.0000 C   0  0  0  0  0  0  0  0  0  0  0  0
    6.4091    6.8348   -0.0000 O   0  0  0  0  0  0  0  0  0  0  0  0
    6.2909   -0.8041   -0.0000 O   0  0  0  0  0  0  0  0  0  0  0  0
    7.4852   -3.1100   -0.0000 C   0  0  0  0  0  0  0  0  0  0  0  0
  1  2  2  0  0  0  0
  2  3  1  0  0  0  0
  2  4  1  0  0  0  0
  3  5  1  0  0  0  0
  3  6  2  0  0  0  0
  4  7  2  0  0  0  0
  4  8  1  0  0  0  0
  9  5  1  6  0  0  0
  6 10  1  0  0  0  0
  6 11  1  0  0  0  0
  7 12  1  0  0  0  0
  8 13  1  0  0  0  0
  8 14  2  0  0  0  0
  9 15  1  0  0  0  0
  9 16  1  0  0  0  0
 11 17  2  0  0  0  0
 11 18  1  0  0  0  0
 12 19  2  0  0  0  0
 15 20  1  0  0  0  0
 16 21  1  1  0  0  0
 16 22  1  0  0  0  0
 17 23  1  0  0  0  0
 18 24  2  0  0  0  0
 19 25  1  0  0  0  0
 20 26  1  0  0  0  0
 20 27  1  1  0  0  0
 22 28  1  1  0  0  0
 23 29  2  0  0  0  0
 26 30  1  6  0  0  0
 28 31  1  0  0  0  0
 29 32  1  0  0  0  0
 31 33  2  0  0  0  0
 31 34  1  0  0  0  0
  7 10  1  0  0  0  0
 14 19  1  0  0  0  0
 22 26  1  0  0  0  0
 24 29  1  0  0  0  0
M  END
>  <MolRegNo>
444696

>  <m>
=

>  <Value>
98300

>  <Unit>
nM

>  <Type>
IC50

>  <pValue>
4.01

>  <Ligand Efficiency>
0

>  <Binding Efficiency>
0

>  <Surface Efficiency>
0

>  <Assay Index>
399810

>  <Assay Category>


>  <Assay Organism>
Homo sapiens

>  <Target ID>
17045

>  <Target Name>
Cytochrome P450 3A4

>  <Target Organism>
Homo sapiens

>  <Target Description>
Target is a single protein chain

>  <Sequence Accession>
P08684

>  <Reference>
J Nat Prod 67 (7), 1079-1083 (2004)

>  <Pubmed ID>
15270556

>  <DOI>
10.1021/np030556a

$$$$
509883
Actelion Java MolfileCreator 1.0

 33 35  0  0  0  0  0  0  0  0999 V2000
    0.0000   -0.0000   -0.0000 F   0  0  0  0  0  0  0  0  0  0  0  0
    1.3014   -0.7283   -0.0000 C   0  0  0  0  0  0  0  0  0  0  0  0
    1.3014   -2.2088   -0.0000 C   0  0  0  0  0  0  0  0  0  0  0  0
    2.5790    0.0478   -0.0000 C   0  0  0  0  0  0  0  0  0  0  0  0
   -0.0119   -2.9610   -0.0000 O   0  0  0  0  0  0  0  0  0  0  0  0
    2.5909   -2.9491   -0.0000 C   0  0  0  0  0  0  0  0  0  0  0  0
    3.8804   -0.6925   -0.0000 C   0  0  0  0  0  0  0  0  0  0  0  0
   -0.0119   -4.4535   -0.0000 C   0  0  0  0  0  0  0  0  0  0  0  0
    3.8804   -2.1850   -0.0000 C   0  0  0  0  0  0  0  0  0  0  0  0
    5.1699    0.0836   -0.0000 N   0  0  0  0  0  0  0  0  0  0  0  0
   -1.3134   -5.1938   -0.0000 C   0  0  0  0  0  0  0  0  0  0  0  0
    1.2895   -5.1818   -0.0000 C   0  0  0  0  0  0  0  0  0  0  0  0
    5.1460    1.5999   -0.0000 C   0  0  0  0  0  0  0  0  0  0  0  0
   -2.6267   -4.4296   -0.0000 C   0  0  0  0  0  0  0  0  0  0  0  0
   -1.3253   -6.6862   -0.0000 C   0  0  0  0  0  0  0  0  0  0  0  0
    1.2775   -6.6862   -0.0000 C   0  0  0  0  0  0  0  0  0  0  0  0
    3.8207    2.3521   -0.0000 O   0  0  0  0  0  0  0  0  0  0  0  0
    6.4355    2.3760   -0.0000 N   0  0  0  0  0  0  0  0  0  0  0  0
   -3.9520   -3.6655   -0.0000 C   0  0  0  0  0  0  0  0  0  0  0  0
   -0.0358   -7.4265   -0.0000 N   0  0  0  0  0  0  0  0  0  0  0  0
   -2.6387   -7.4265   -0.0000 N   0  0  0  0  0  0  0  0  0  0  0  0
    7.7369    1.6477   -0.0000 C   0  0  0  0  0  0  0  0  0  0  0  0
   -5.2654   -2.9013   -0.0000 C   0  0  0  0  0  0  0  0  0  0  0  0
    9.0264    2.4238   -0.0000 O   0  0  0  0  0  0  0  0  0  0  0  0
    7.7369    0.1552   -0.0000 C   0  0  0  0  0  0  0  0  0  0  0  0
   -5.2773   -1.3850   -0.0000 O   0  0  0  0  0  0  0  0  0  0  0  0
    9.0383   -0.5731   -0.0000 C   0  0  0  0  0  0  0  0  0  0  0  0
    9.0264   -2.0656   -0.0000 C   0  0  0  0  0  0  0  0  0  0  0  0
   10.3159    0.2030   -0.0000 C   0  0  0  0  0  0  0  0  0  0  0  0
   10.3159   -2.7939   -0.0000 C   0  0  0  0  0  0  0  0  0  0  0  0
   11.6173   -0.5253   -0.0000 C   0  0  0  0  0  0  0  0  0  0  0  0
   11.6054   -2.0178   -0.0000 C   0  0  0  0  0  0  0  0  0  0  0  0
   12.9068   -2.7461   -0.0000 F   0  0  0  0  0  0  0  0  0  0  0  0
  1  2  1  0  0  0  0
  2  3  2  0  0  0  0
  2  4  1  0  0  0  0
  3  5  1  0  0  0  0
  3  6  1  0  0  0  0
  4  7  2  0  0  0  0
  5  8  1  0  0  0  0
  6  9  2  0  0  0  0
  7 10  1  0  0  0  0
  8 11  2  0  0  0  0
  8 12  1  0  0  0  0
 10 13  1  0  0  0  0
 11 14  1  0  0  0  0
 11 15  1  0  0  0  0
 12 16  2  0  0  0  0
 13 17  2  0  0  0  0
 13 18  1  0  0  0  0
 14 19  3  0  0  0  0
 15 20  2  0  0  0  0
 15 21  1  0  0  0  0
 18 22  1  0  0  0  0
 19 23  1  0  0  0  0
 22 24  2  0  0  0  0
 22 25  1  0  0  0  0
 23 26  1  0  0  0  0
 25 27  1  0  0  0  0
 27 28  2  0  0  0  0
 27 29  1  0  0  0  0
 28 30  1  0  0  0  0
 29 31  2  0  0  0  0
 30 32  2  0  0  0  0
 32 33  1  0  0  0  0
  7  9  1  0  0  0  0
 16 20  1  0  0  0  0
 31 32  1  0  0  0  0
M  END
>  <MolRegNo>
509883

>  <m>
=

>  <Value>
700

>  <Unit>
nM

>  <Type>
IC50

>  <pValue>
6.16

>  <Ligand Efficiency>
0

>  <Binding Efficiency>
0

>  <Surface Efficiency>
0

>  <Assay Index>
404707

>  <Assay Category>


>  <Assay Organism>
Homo sapiens

>  <Target ID>
17045

>  <Target Name>
Cytochrome P450 3A4

>  <Target Organism>
Homo sapiens

>  <Target Description>
Target is a single protein chain

>  <Sequence Accession>
P08684

>  <Reference>
Bioorg Med Chem Lett 18 (11), 3224-3229 (2008)

>  <Pubmed ID>
18479916

>  <DOI>
10.1016/j.bmcl.2008.04.047

$$$$
509972
Actelion Java MolfileCreator 1.0

 33 35  0  0  0  0  0  0  0  0999 V2000
    0.0000   -0.0000   -0.0000 F   0  0  0  0  0  0  0  0  0  0  0  0
    1.3013   -0.7282   -0.0000 C   0  0  0  0  0  0  0  0  0  0  0  0
    1.3013   -2.2086   -0.0000 C   0  0  0  0  0  0  0  0  0  0  0  0
    2.5787    0.0478   -0.0000 C   0  0  0  0  0  0  0  0  0  0  0  0
   -0.0119   -2.9607   -0.0000 O   0  0  0  0  0  0  0  0  0  0  0  0
    2.5906   -2.9488   -0.0000 C   0  0  0  0  0  0  0  0  0  0  0  0
    3.8799   -0.6805   -0.0000 C   0  0  0  0  0  0  0  0  0  0  0  0
   -0.0119   -4.4530   -0.0000 C   0  0  0  0  0  0  0  0  0  0  0  0
    3.8799   -2.1847   -0.0000 C   0  0  0  0  0  0  0  0  0  0  0  0
    5.1693    0.0955   -0.0000 N   0  0  0  0  0  0  0  0  0  0  0  0
   -1.3132   -5.1932   -0.0000 C   0  0  0  0  0  0  0  0  0  0  0  0
    1.2893   -5.1812   -0.0000 C   0  0  0  0  0  0  0  0  0  0  0  0
    5.1454    1.6117   -0.0000 C   0  0  0  0  0  0  0  0  0  0  0  0
   -2.6264   -4.4291   -0.0000 C   0  0  0  0  0  0  0  0  0  0  0  0
   -1.3251   -6.6854   -0.0000 C   0  0  0  0  0  0  0  0  0  0  0  0
    1.2774   -6.6854   -0.0000 C   0  0  0  0  0  0  0  0  0  0  0  0
    3.8203    2.3638   -0.0000 O   0  0  0  0  0  0  0  0  0  0  0  0
    6.4347    2.3877   -0.0000 N   0  0  0  0  0  0  0  0  0  0  0  0
   -3.9516   -3.6651   -0.0000 C   0  0  0  0  0  0  0  0  0  0  0  0
   -0.0358   -7.4256   -0.0000 N   0  0  0  0  0  0  0  0  0  0  0  0
   -2.6384   -7.4256   -0.0000 N   0  0  0  0  0  0  0  0  0  0  0  0
    7.7360    1.6594   -0.0000 C   0  0  0  0  0  0  0  0  0  0  0  0
   -5.2648   -2.9010   -0.0000 C   0  0  0  0  0  0  0  0  0  0  0  0
    9.0253    2.4354   -0.0000 O   0  0  0  0  0  0  0  0  0  0  0  0
    7.7360    0.1671   -0.0000 C   0  0  0  0  0  0  0  0  0  0  0  0
   -5.2767   -1.3848   -0.0000 N   0  0  0  0  0  0  0  0  0  0  0  0
    9.0373   -0.5611   -0.0000 C   0  0  0  0  0  0  0  0  0  0  0  0
    9.0253   -2.0534   -0.0000 C   0  0  0  0  0  0  0  0  0  0  0  0
   10.3147    0.2149   -0.0000 C   0  0  0  0  0  0  0  0  0  0  0  0
   10.3147   -2.7816   -0.0000 C   0  0  0  0  0  0  0  0  0  0  0  0
   11.6160   -0.5133   -0.0000 C   0  0  0  0  0  0  0  0  0  0  0  0
   11.6040   -2.0056   -0.0000 C   0  0  0  0  0  0  0  0  0  0  0  0
   12.9053   -2.7339   -0.0000 F   0  0  0  0  0  0  0  0  0  0  0  0
  1  2  1  0  0  0  0
  2  3  2  0  0  0  0
  2  4  1  0  0  0  0
  3  5  1  0  0  0  0
  3  6  1  0  0  0  0
  4  7  2  0  0  0  0
  5  8  1  0  0  0  0
  6  9  2  0  0  0  0
  7 10  1  0  0  0  0
  8 11  2  0  0  0  0
  8 12  1  0  0  0  0
 10 13  1  0  0  0  0
 11 14  1  0  0  0  0
 11 15  1  0  0  0  0
 12 16  2  0  0  0  0
 13 17  2  0  0  0  0
 13 18  1  0  0  0  0
 14 19  3  0  0  0  0
 15 20  2  0  0  0  0
 15 21  1  0  0  0  0
 18 22  1  0  0  0  0
 19 23  1  0  0  0  0
 22 24  2  0  0  0  0
 22 25  1  0  0  0  0
 23 26  1  0  0  0  0
 25 27  1  0  0  0  0
 27 28  2  0  0  0  0
 27 29  1  0  0  0  0
 28 30  1  0  0  0  0
 29 31  2  0  0  0  0
 30 32  2  0  0  0  0
 32 33  1  0  0  0  0
  7  9  1  0  0  0  0
 16 20  1  0  0  0  0
 31 32  1  0  0  0  0
M  END
>  <MolRegNo>
509972

>  <m>
=

>  <Value>
1800

>  <Unit>
nM

>  <Type>
IC50

>  <pValue>
5.75

>  <Ligand Efficiency>
0

>  <Binding Efficiency>
0

>  <Surface Efficiency>
0

>  <Assay Index>
404707

>  <Assay Category>


>  <Assay Organism>
Homo sapiens

>  <Target ID>
17045

>  <Target Name>
Cytochrome P450 3A4

>  <Target Organism>
Homo sapiens

>  <Target Description>
Target is a single protein chain

>  <Sequence Accession>
P08684

>  <Reference>
Bioorg Med Chem Lett 18 (11), 3224-3229 (2008)

>  <Pubmed ID>
18479916

>  <DOI>
10.1016/j.bmcl.2008.04.047

$$$$
509971
Actelion Java MolfileCreator 1.0

 31 33  0  0  0  0  0  0  0  0999 V2000
    0.0000   -0.0000   -0.0000 F   0  0  0  0  0  0  0  0  0  0  0  0
    1.3022   -0.7288   -0.0000 C   0  0  0  0  0  0  0  0  0  0  0  0
    1.3022   -2.2102   -0.0000 C   0  0  0  0  0  0  0  0  0  0  0  0
    2.5805    0.0478   -0.0000 C   0  0  0  0  0  0  0  0  0  0  0  0
   -0.0119   -2.9628   -0.0000 O   0  0  0  0  0  0  0  0  0  0  0  0
    2.5925   -2.9509   -0.0000 C   0  0  0  0  0  0  0  0  0  0  0  0
    3.8827   -0.6810   -0.0000 C   0  0  0  0  0  0  0  0  0  0  0  0
   -0.0119   -4.4562   -0.0000 C   0  0  0  0  0  0  0  0  0  0  0  0
    3.8827   -2.1863   -0.0000 C   0  0  0  0  0  0  0  0  0  0  0  0
    5.1730    0.0956   -0.0000 N   0  0  0  0  0  0  0  0  0  0  0  0
   -1.3142   -5.1969   -0.0000 C   0  0  0  0  0  0  0  0  0  0  0  0
    1.2903   -5.1849   -0.0000 C   0  0  0  0  0  0  0  0  0  0  0  0
    5.1491    1.6128   -0.0000 C   0  0  0  0  0  0  0  0  0  0  0  0
   -2.6283   -4.4323   -0.0000 C   0  0  0  0  0  0  0  0  0  0  0  0
   -1.3261   -6.6902   -0.0000 C   0  0  0  0  0  0  0  0  0  0  0  0
    1.2783   -6.6902   -0.0000 C   0  0  0  0  0  0  0  0  0  0  0  0
    3.8230    2.3655   -0.0000 O   0  0  0  0  0  0  0  0  0  0  0  0
    6.4394    2.3894   -0.0000 N   0  0  0  0  0  0  0  0  0  0  0  0
   -3.9544   -3.6677   -0.0000 C   0  0  0  0  0  0  0  0  0  0  0  0
   -0.0358   -7.4309   -0.0000 N   0  0  0  0  0  0  0  0  0  0  0  0
   -2.6403   -7.4309   -0.0000 N   0  0  0  0  0  0  0  0  0  0  0  0
    7.7416    1.6606   -0.0000 C   0  0  0  0  0  0  0  0  0  0  0  0
    9.0318    2.4372   -0.0000 O   0  0  0  0  0  0  0  0  0  0  0  0
    7.7416    0.1673   -0.0000 C   0  0  0  0  0  0  0  0  0  0  0  0
    9.0438   -0.5615   -0.0000 C   0  0  0  0  0  0  0  0  0  0  0  0
    9.0318   -2.0549   -0.0000 C   0  0  0  0  0  0  0  0  0  0  0  0
   10.3221    0.2150   -0.0000 C   0  0  0  0  0  0  0  0  0  0  0  0
   10.3221   -2.7836   -0.0000 C   0  0  0  0  0  0  0  0  0  0  0  0
   11.6243   -0.5137   -0.0000 C   0  0  0  0  0  0  0  0  0  0  0  0
   11.6123   -2.0071   -0.0000 C   0  0  0  0  0  0  0  0  0  0  0  0
   12.9146   -2.7358   -0.0000 F   0  0  0  0  0  0  0  0  0  0  0  0
  1  2  1  0  0  0  0
  2  3  2  0  0  0  0
  2  4  1  0  0  0  0
  3  5  1  0  0  0  0
  3  6  1  0  0  0  0
  4  7  2  0  0  0  0
  5  8  1  0  0  0  0
  6  9  2  0  0  0  0
  7 10  1  0  0  0  0
  8 11  2  0  0  0  0
  8 12  1  0  0  0  0
 10 13  1  0  0  0  0
 11 14  1  0  0  0  0
 11 15  1  0  0  0  0
 12 16  2  0  0  0  0
 13 17  2  0  0  0  0
 13 18  1  0  0  0  0
 14 19  3  0  0  0  0
 15 20  2  0  0  0  0
 15 21  1  0  0  0  0
 18 22  1  0  0  0  0
 22 23  2  0  0  0  0
 22 24  1  0  0  0  0
 24 25  1  0  0  0  0
 25 26  2  0  0  0  0
 25 27  1  0  0  0  0
 26 28  1  0  0  0  0
 27 29  2  0  0  0  0
 28 30  2  0  0  0  0
 30 31  1  0  0  0  0
  7  9  1  0  0  0  0
 16 20  1  0  0  0  0
 29 30  1  0  0  0  0
M  END
>  <MolRegNo>
509971

>  <m>
=

>  <Value>
800

>  <Unit>
nM

>  <Type>
IC50

>  <pValue>
6.1

>  <Ligand Efficiency>
0

>  <Binding Efficiency>
0

>  <Surface Efficiency>
0

>  <Assay Index>
404707

>  <Assay Category>


>  <Assay Organism>
Homo sapiens

>  <Target ID>
17045

>  <Target Name>
Cytochrome P450 3A4

>  <Target Organism>
Homo sapiens

>  <Target Description>
Target is a single protein chain

>  <Sequence Accession>
P08684

>  <Reference>
Bioorg Med Chem Lett 18 (11), 3224-3229 (2008)

>  <Pubmed ID>
18479916

>  <DOI>
10.1016/j.bmcl.2008.04.047

$$$$
509885
Actelion Java MolfileCreator 1.0

 37 40  0  0  0  0  0  0  0  0999 V2000
    0.0000   -0.0000   -0.0000 F   0  0  0  0  0  0  0  0  0  0  0  0
    1.3002   -0.7276   -0.0000 C   0  0  0  0  0  0  0  0  0  0  0  0
    1.3002   -2.2068   -0.0000 C   0  0  0  0  0  0  0  0  0  0  0  0
    2.5766    0.0477   -0.0000 C   0  0  0  0  0  0  0  0  0  0  0  0
   -0.0119   -2.9583   -0.0000 O   0  0  0  0  0  0  0  0  0  0  0  0
    2.5885   -2.9464   -0.0000 C   0  0  0  0  0  0  0  0  0  0  0  0
    3.8768   -0.6919   -0.0000 C   0  0  0  0  0  0  0  0  0  0  0  0
   -0.0119   -4.4494   -0.0000 C   0  0  0  0  0  0  0  0  0  0  0  0
    3.8768   -2.1829   -0.0000 C   0  0  0  0  0  0  0  0  0  0  0  0
    5.1651    0.0835   -0.0000 N   0  0  0  0  0  0  0  0  0  0  0  0
   -1.3121   -5.1889   -0.0000 C   0  0  0  0  0  0  0  0  0  0  0  0
    1.2883   -5.1770   -0.0000 C   0  0  0  0  0  0  0  0  0  0  0  0
    5.1412    1.5984   -0.0000 C   0  0  0  0  0  0  0  0  0  0  0  0
   -2.6243   -4.4255   -0.0000 C   0  0  0  0  0  0  0  0  0  0  0  0
   -1.3241   -6.6800   -0.0000 C   0  0  0  0  0  0  0  0  0  0  0  0
    1.2764   -6.6800   -0.0000 C   0  0  0  0  0  0  0  0  0  0  0  0
    3.8171    2.3499   -0.0000 O   0  0  0  0  0  0  0  0  0  0  0  0
    6.4295    2.3738   -0.0000 N   0  0  0  0  0  0  0  0  0  0  0  0
   -3.9484   -3.6621   -0.0000 C   0  0  0  0  0  0  0  0  0  0  0  0
   -0.0358   -7.4196   -0.0000 N   0  0  0  0  0  0  0  0  0  0  0  0
   -2.6362   -7.4196   -0.0000 N   0  0  0  0  0  0  0  0  0  0  0  0
    7.7297    1.6461   -0.0000 C   0  0  0  0  0  0  0  0  0  0  0  0
   -5.2605   -2.8986   -0.0000 C   0  0  0  0  0  0  0  0  0  0  0  0
    9.0180    2.4215   -0.0000 O   0  0  0  0  0  0  0  0  0  0  0  0
    7.7297    0.1551   -0.0000 C   0  0  0  0  0  0  0  0  0  0  0  0
   -6.5607   -3.6382   -0.0000 N   0  0  0  0  0  0  0  0  0  0  0  0
   -5.2724   -1.3837   -0.0000 C   0  0  0  0  0  0  0  0  0  0  0  0
    9.0299   -0.5726   -0.0000 C   0  0  0  0  0  0  0  0  0  0  0  0
   -7.8729   -2.8867   -0.0000 C   0  0  0  0  0  0  0  0  0  0  0  0
   -6.5846   -0.6203   -0.0000 C   0  0  0  0  0  0  0  0  0  0  0  0
    9.0180   -2.0636   -0.0000 C   0  0  0  0  0  0  0  0  0  0  0  0
   10.3063    0.2028   -0.0000 C   0  0  0  0  0  0  0  0  0  0  0  0
   -7.8848   -1.3599   -0.0000 C   0  0  0  0  0  0  0  0  0  0  0  0
   10.3063   -2.7913   -0.0000 C   0  0  0  0  0  0  0  0  0  0  0  0
   11.6065   -0.5249   -0.0000 C   0  0  0  0  0  0  0  0  0  0  0  0
   11.5946   -2.0159   -0.0000 C   0  0  0  0  0  0  0  0  0  0  0  0
   12.8948   -2.7436   -0.0000 F   0  0  0  0  0  0  0  0  0  0  0  0
  1  2  1  0  0  0  0
  2  3  2  0  0  0  0
  2  4  1  0  0  0  0
  3  5  1  0  0  0  0
  3  6  1  0  0  0  0
  4  7  2  0  0  0  0
  5  8  1  0  0  0  0
  6  9  2  0  0  0  0
  7 10  1  0  0  0  0
  8 11  2  0  0  0  0
  8 12  1  0  0  0  0
 10 13  1  0  0  0  0
 11 14  1  0  0  0  0
 11 15  1  0  0  0  0
 12 16  2  0  0  0  0
 13 17  2  0  0  0  0
 13 18  1  0  0  0  0
 14 19  3  0  0  0  0
 15 20  2  0  0  0  0
 15 21  1  0  0  0  0
 18 22  1  0  0  0  0
 19 23  1  0  0  0  0
 22 24  2  0  0  0  0
 22 25  1  0  0  0  0
 23 26  2  0  0  0  0
 23 27  1  0  0  0  0
 25 28  1  0  0  0  0
 26 29  1  0  0  0  0
 27 30  2  0  0  0  0
 28 31  2  0  0  0  0
 28 32  1  0  0  0  0
 29 33  2  0  0  0  0
 31 34  1  0  0  0  0
 32 35  2  0  0  0  0
 34 36  2  0  0  0  0
 36 37  1  0  0  0  0
  7  9  1  0  0  0  0
 16 20  1  0  0  0  0
 30 33  1  0  0  0  0
 35 36  1  0  0  0  0
M  END
>  <MolRegNo>
509885

>  <m>
=

>  <Value>
37000

>  <Unit>
nM

>  <Type>
IC50

>  <pValue>
4.43

>  <Ligand Efficiency>
0

>  <Binding Efficiency>
0

>  <Surface Efficiency>
0

>  <Assay Index>
404707

>  <Assay Category>


>  <Assay Organism>
Homo sapiens

>  <Target ID>
17045

>  <Target Name>
Cytochrome P450 3A4

>  <Target Organism>
Homo sapiens

>  <Target Description>
Target is a single protein chain

>  <Sequence Accession>
P08684

>  <Reference>
Bioorg Med Chem Lett 18 (11), 3224-3229 (2008)

>  <Pubmed ID>
18479916

>  <DOI>
10.1016/j.bmcl.2008.04.047

$$$$
509884
Actelion Java MolfileCreator 1.0

 35 37  0  0  0  0  0  0  0  0999 V2000
    0.0000   -0.0000   -0.0000 F   0  0  0  0  0  0  0  0  0  0  0  0
    1.3009   -0.7280   -0.0000 C   0  0  0  0  0  0  0  0  0  0  0  0
    1.3009   -2.2079   -0.0000 C   0  0  0  0  0  0  0  0  0  0  0  0
    2.5778    0.0477   -0.0000 C   0  0  0  0  0  0  0  0  0  0  0  0
   -0.0119   -2.9597   -0.0000 O   0  0  0  0  0  0  0  0  0  0  0  0
    2.5898   -2.9478   -0.0000 C   0  0  0  0  0  0  0  0  0  0  0  0
    3.8787   -0.6803   -0.0000 C   0  0  0  0  0  0  0  0  0  0  0  0
   -0.0119   -4.4515   -0.0000 C   0  0  0  0  0  0  0  0  0  0  0  0
    3.8787   -2.1840   -0.0000 C   0  0  0  0  0  0  0  0  0  0  0  0
    5.1676    0.0955   -0.0000 N   0  0  0  0  0  0  0  0  0  0  0  0
   -1.3128   -5.1915   -0.0000 C   0  0  0  0  0  0  0  0  0  0  0  0
    1.2889   -5.1795   -0.0000 C   0  0  0  0  0  0  0  0  0  0  0  0
    5.1437    1.6111   -0.0000 C   0  0  0  0  0  0  0  0  0  0  0  0
   -2.6256   -4.4277   -0.0000 C   0  0  0  0  0  0  0  0  0  0  0  0
   -1.3247   -6.6833   -0.0000 C   0  0  0  0  0  0  0  0  0  0  0  0
    1.2770   -6.6833   -0.0000 C   0  0  0  0  0  0  0  0  0  0  0  0
    3.8190    2.3630   -0.0000 O   0  0  0  0  0  0  0  0  0  0  0  0
    6.4326    2.3869   -0.0000 N   0  0  0  0  0  0  0  0  0  0  0  0
   -3.9503   -3.6639   -0.0000 C   0  0  0  0  0  0  0  0  0  0  0  0
   -0.0358   -7.4232   -0.0000 N   0  0  0  0  0  0  0  0  0  0  0  0
   -2.6375   -7.4232   -0.0000 N   0  0  0  0  0  0  0  0  0  0  0  0
    7.7335    1.6589   -0.0000 C   0  0  0  0  0  0  0  0  0  0  0  0
   -5.2631   -2.9001   -0.0000 C   0  0  0  0  0  0  0  0  0  0  0  0
    9.0224    2.4346   -0.0000 O   0  0  0  0  0  0  0  0  0  0  0  0
    7.7335    0.1671   -0.0000 C   0  0  0  0  0  0  0  0  0  0  0  0
   -5.2750   -1.3844   -0.0000 N   0  0  0  0  0  0  0  0  0  0  0  0
    9.0343   -0.5609   -0.0000 C   0  0  0  0  0  0  0  0  0  0  0  0
   -6.5878   -0.6206   -0.0000 C   0  0  0  0  0  0  0  0  0  0  0  0
   -3.9861   -0.6206   -0.0000 C   0  0  0  0  0  0  0  0  0  0  0  0
    9.0224   -2.0527   -0.0000 C   0  0  0  0  0  0  0  0  0  0  0  0
   10.3113    0.2148   -0.0000 C   0  0  0  0  0  0  0  0  0  0  0  0
   10.3113   -2.7807   -0.0000 C   0  0  0  0  0  0  0  0  0  0  0  0
   11.6122   -0.5132   -0.0000 C   0  0  0  0  0  0  0  0  0  0  0  0
   11.6002   -2.0050   -0.0000 C   0  0  0  0  0  0  0  0  0  0  0  0
   12.9011   -2.7330   -0.0000 F   0  0  0  0  0  0  0  0  0  0  0  0
  1  2  1  0  0  0  0
  2  3  2  0  0  0  0
  2  4  1  0  0  0  0
  3  5  1  0  0  0  0
  3  6  1  0  0  0  0
  4  7  2  0  0  0  0
  5  8  1  0  0  0  0
  6  9  2  0  0  0  0
  7 10  1  0  0  0  0
  8 11  2  0  0  0  0
  8 12  1  0  0  0  0
 10 13  1  0  0  0  0
 11 14  1  0  0  0  0
 11 15  1  0  0  0  0
 12 16  2  0  0  0  0
 13 17  2  0  0  0  0
 13 18  1  0  0  0  0
 14 19  3  0  0  0  0
 15 20  2  0  0  0  0
 15 21  1  0  0  0  0
 18 22  1  0  0  0  0
 19 23  1  0  0  0  0
 22 24  2  0  0  0  0
 22 25  1  0  0  0  0
 23 26  1  0  0  0  0
 25 27  1  0  0  0  0
 26 28  1  0  0  0  0
 26 29  1  0  0  0  0
 27 30  2  0  0  0  0
 27 31  1  0  0  0  0
 30 32  1  0  0  0  0
 31 33  2  0  0  0  0
 32 34  2  0  0  0  0
 34 35  1  0  0  0  0
  7  9  1  0  0  0  0
 16 20  1  0  0  0  0
 33 34  1  0  0  0  0
M  END
>  <MolRegNo>
509884

>  <m>
=

>  <Value>
2700

>  <Unit>
nM

>  <Type>
IC50

>  <pValue>
5.57

>  <Ligand Efficiency>
0

>  <Binding Efficiency>
0

>  <Surface Efficiency>
0

>  <Assay Index>
404707

>  <Assay Category>


>  <Assay Organism>
Homo sapiens

>  <Target ID>
17045

>  <Target Name>
Cytochrome P450 3A4

>  <Target Organism>
Homo sapiens

>  <Target Description>
Target is a single protein chain

>  <Sequence Accession>
P08684

>  <Reference>
Bioorg Med Chem Lett 18 (11), 3224-3229 (2008)

>  <Pubmed ID>
18479916

>  <DOI>
10.1016/j.bmcl.2008.04.047

$$$$
486329
Actelion Java MolfileCreator 1.0

 42 45  0  0  0  0  0  0  0  0999 V2000
    0.0000   -0.0000   -0.0000 Cl  0  0  0  0  0  0  0  0  0  0  0  0
    1.2857   -0.7381   -0.0000 C   0  0  0  0  0  0  0  0  0  0  0  0
    1.2738   -2.2262   -0.0000 C   0  0  0  0  0  0  0  0  0  0  0  0
    2.5715    0.0238   -0.0000 C   0  0  0  0  0  0  0  0  0  0  0  0
   -0.0357   -2.9643   -0.0000 C   0  0  0  0  0  0  0  0  0  0  0  0
    2.5595   -2.9762   -0.0000 C   0  0  0  0  0  0  0  0  0  0  0  0
    3.8691   -0.7143   -0.0000 C   0  0  0  0  0  0  0  0  0  0  0  0
   -1.3453   -2.1905   -0.0000 C   0  0  0  0  0  0  0  0  0  0  0  0
   -0.0476   -4.4524   -0.0000 C   0  0  0  0  0  0  0  0  0  0  0  0
    3.8453   -2.2143   -0.0000 C   0  0  0  0  0  0  0  0  0  0  0  0
   -1.3572   -0.6786   -0.0000 O   0  0  0  0  0  0  0  0  0  0  0  0
   -2.6429   -2.9405   -0.0000 N   0  0  0  0  0  0  0  0  0  0  0  0
   -1.3691   -5.1905   -0.0000 N   0  0  0  0  0  0  0  0  0  0  0  0
   -2.6548   -4.4286   -0.0000 C   0  0  0  0  0  0  0  0  0  0  0  0
   -3.9524   -2.1786   -0.0000 C   0  0  0  0  0  0  0  0  0  0  0  0
   -1.3810   -6.6786   -0.0000 C   0  0  0  0  0  0  0  0  0  0  0  0
   -3.9643   -5.1667   -0.0000 O   0  0  0  0  0  0  0  0  0  0  0  0
   -5.2620   -2.9167   -0.0000 C   0  0  0  0  0  0  0  0  0  0  0  0
   -0.0952   -7.4167   -0.0000 C   0  0  0  0  0  0  0  0  0  0  0  0
   -5.2739   -4.4048   -0.0000 N   0  0  0  0  0  0  0  0  0  0  0  0
   -6.5715   -2.1548   -0.0000 C   0  0  0  0  0  0  0  0  0  0  0  0
   -0.1190   -8.9048   -0.0000 C   0  0  0  0  0  0  0  0  0  0  0  0
    1.1786   -6.6548   -0.0000 C   0  0  0  0  0  0  0  0  0  0  0  0
   -6.5834   -5.1429   -0.0000 C   0  0  0  0  0  0  0  0  0  0  0  0
   -7.8929   -2.8929   -0.0000 C   0  0  0  0  0  0  0  0  0  0  0  0
   -6.5834   -0.6310   -0.0000 C   0  0  0  0  0  0  0  0  0  0  0  0
   -1.4405   -9.6430   -0.0000 S   0  0  0  0  0  0  0  0  0  0  0  0
    1.1667   -9.6430   -0.0000 C   0  0  0  0  0  0  0  0  0  0  0  0
    1.1667   -5.1429   -0.0000 F   0  0  0  0  0  0  0  0  0  0  0  0
    2.4643   -7.3929   -0.0000 C   0  0  0  0  0  0  0  0  0  0  0  0
   -6.5953   -6.6310   -0.0000 C   0  0  0  0  0  0  0  0  0  0  0  0
   -9.2025   -2.1310   -0.0000 C   0  0  0  0  0  0  0  0  0  0  0  0
   -7.8929    0.1310   -0.0000 C   0  0  0  0  0  0  0  0  0  0  0  0
   -0.7143  -10.9406   -0.0000 O   0  0  0  0  0  0  0  0  0  0  0  0
   -2.1905   -8.3215   -0.0000 O   0  0  0  0  0  0  0  0  0  0  0  0
   -2.7619  -10.3691   -0.0000 C   0  0  0  0  0  0  0  0  0  0  0  0
    2.4643   -8.8810   -0.0000 C   0  0  0  0  0  0  0  0  0  0  0  0
   -7.9048   -7.3691   -0.0000 C   0  0  0  0  0  0  0  0  0  0  0  0
   -9.2144   -0.6191   -0.0000 C   0  0  0  0  0  0  0  0  0  0  0  0
   -7.9167   -8.8572   -0.0000 C   0  0  0  0  0  0  0  0  0  0  0  0
   -6.6310   -9.5953   -0.0000 O   0  0  0  0  0  0  0  0  0  0  0  0
   -9.2263   -9.6072   -0.0000 O   0  0  0  0  0  0  0  0  0  0  0  0
  1  2  1  0  0  0  0
  2  3  2  0  0  0  0
  2  4  1  0  0  0  0
  3  5  1  0  0  0  0
  3  6  1  0  0  0  0
  4  7  2  0  0  0  0
  5  8  1  0  0  0  0
  5  9  2  0  0  0  0
  6 10  2  0  0  0  0
  8 11  2  0  0  0  0
  8 12  1  0  0  0  0
  9 13  1  0  0  0  0
 12 14  1  0  0  0  0
 12 15  1  0  0  0  0
 13 16  1  0  0  0  0
 14 17  2  0  0  0  0
 15 18  1  0  0  0  0
 16 19  1  0  0  0  0
 18 20  1  6  0  0  0
 18 21  1  0  0  0  0
 19 22  2  0  0  0  0
 19 23  1  0  0  0  0
 20 24  1  0  0  0  0
 21 25  2  0  0  0  0
 21 26  1  0  0  0  0
 22 27  1  0  0  0  0
 22 28  1  0  0  0  0
 23 29  1  0  0  0  0
 23 30  2  0  0  0  0
 24 31  1  0  0  0  0
 25 32  1  0  0  0  0
 26 33  2  0  0  0  0
 27 34  2  0  0  0  0
 27 35  2  0  0  0  0
 27 36  1  0  0  0  0
 28 37  2  0  0  0  0
 31 38  1  0  0  0  0
 32 39  2  0  0  0  0
 38 40  1  0  0  0  0
 40 41  2  0  0  0  0
 40 42  1  0  0  0  0
  7 10  1  0  0  0  0
 13 14  1  0  0  0  0
 30 37  1  0  0  0  0
 33 39  1  0  0  0  0
M  END
>  <MolRegNo>
486329

>  <m>
=

>  <Value>
48000

>  <Unit>
nM

>  <Type>
IC50

>  <pValue>
4.32

>  <Ligand Efficiency>
0

>  <Binding Efficiency>
0

>  <Surface Efficiency>
0

>  <Assay Index>
401126

>  <Assay Category>


>  <Assay Organism>


>  <Target ID>
17045

>  <Target Name>
Cytochrome P450 3A4

>  <Target Organism>
Homo sapiens

>  <Target Description>
Target is a single protein chain

>  <Sequence Accession>
P08684

>  <Reference>
Bioorg Med Chem Lett 18 (11), 3301-3305 (2008)

>  <Pubmed ID>
18442910

>  <DOI>
10.1016/j.bmcl.2008.04.036

$$$$
486328
Actelion Java MolfileCreator 1.0

 39 42  0  0  0  0  0  0  0  0999 V2000
    0.0000   -0.0000   -0.0000 Cl  0  0  0  0  0  0  0  0  0  0  0  0
    1.2855   -0.7380   -0.0000 C   0  0  0  0  0  0  0  0  0  0  0  0
    1.2736   -2.2258   -0.0000 C   0  0  0  0  0  0  0  0  0  0  0  0
    2.5710    0.0238   -0.0000 C   0  0  0  0  0  0  0  0  0  0  0  0
   -0.0357   -2.9637   -0.0000 C   0  0  0  0  0  0  0  0  0  0  0  0
    2.5590   -2.9756   -0.0000 C   0  0  0  0  0  0  0  0  0  0  0  0
    3.8683   -0.7142   -0.0000 C   0  0  0  0  0  0  0  0  0  0  0  0
   -1.3450   -2.1901   -0.0000 C   0  0  0  0  0  0  0  0  0  0  0  0
   -0.0476   -4.4516   -0.0000 C   0  0  0  0  0  0  0  0  0  0  0  0
    3.8445   -2.2139   -0.0000 C   0  0  0  0  0  0  0  0  0  0  0  0
   -1.3569   -0.6784   -0.0000 O   0  0  0  0  0  0  0  0  0  0  0  0
   -2.6543   -2.9399   -0.0000 N   0  0  0  0  0  0  0  0  0  0  0  0
   -1.3688   -5.1895   -0.0000 N   0  0  0  0  0  0  0  0  0  0  0  0
   -2.6662   -4.4277   -0.0000 C   0  0  0  0  0  0  0  0  0  0  0  0
   -3.9635   -2.1782   -0.0000 C   0  0  0  0  0  0  0  0  0  0  0  0
   -1.3807   -6.6773   -0.0000 C   0  0  0  0  0  0  0  0  0  0  0  0
   -3.9755   -5.1657   -0.0000 O   0  0  0  0  0  0  0  0  0  0  0  0
   -5.2728   -2.9161   -0.0000 C   0  0  0  0  0  0  0  0  0  0  0  0
   -0.0952   -7.4153   -0.0000 C   0  0  0  0  0  0  0  0  0  0  0  0
   -5.2847   -4.4039   -0.0000 N   0  0  0  0  0  0  0  0  0  0  0  0
   -6.5821   -2.1544   -0.0000 C   0  0  0  0  0  0  0  0  0  0  0  0
   -0.1190   -8.9031   -0.0000 C   0  0  0  0  0  0  0  0  0  0  0  0
    1.1784   -6.6535   -0.0000 C   0  0  0  0  0  0  0  0  0  0  0  0
   -6.5940   -5.1419   -0.0000 C   0  0  0  0  0  0  0  0  0  0  0  0
   -7.9033   -2.8923   -0.0000 C   0  0  0  0  0  0  0  0  0  0  0  0
   -6.5940   -0.6308   -0.0000 C   0  0  0  0  0  0  0  0  0  0  0  0
   -1.4402   -9.6411   -0.0000 F   0  0  0  0  0  0  0  0  0  0  0  0
    1.1664   -9.6411   -0.0000 C   0  0  0  0  0  0  0  0  0  0  0  0
    1.1664   -5.1419   -0.0000 F   0  0  0  0  0  0  0  0  0  0  0  0
    2.4638   -7.3915   -0.0000 C   0  0  0  0  0  0  0  0  0  0  0  0
   -6.6059   -6.6297   -0.0000 C   0  0  0  0  0  0  0  0  0  0  0  0
   -9.2126   -2.1306   -0.0000 C   0  0  0  0  0  0  0  0  0  0  0  0
   -7.9033    0.1309   -0.0000 C   0  0  0  0  0  0  0  0  0  0  0  0
    2.4638   -8.8793   -0.0000 C   0  0  0  0  0  0  0  0  0  0  0  0
   -7.9152   -7.3677   -0.0000 C   0  0  0  0  0  0  0  0  0  0  0  0
   -9.2245   -0.6070   -0.0000 C   0  0  0  0  0  0  0  0  0  0  0  0
   -7.9271   -8.8555   -0.0000 C   0  0  0  0  0  0  0  0  0  0  0  0
   -6.6416   -9.5935   -0.0000 O   0  0  0  0  0  0  0  0  0  0  0  0
   -9.2364   -9.6054   -0.0000 O   0  0  0  0  0  0  0  0  0  0  0  0
  1  2  1  0  0  0  0
  2  3  2  0  0  0  0
  2  4  1  0  0  0  0
  3  5  1  0  0  0  0
  3  6  1  0  0  0  0
  4  7  2  0  0  0  0
  5  8  1  0  0  0  0
  5  9  2  0  0  0  0
  6 10  2  0  0  0  0
  8 11  2  0  0  0  0
  8 12  1  0  0  0  0
  9 13  1  0  0  0  0
 12 14  1  0  0  0  0
 12 15  1  0  0  0  0
 13 16  1  0  0  0  0
 14 17  2  0  0  0  0
 15 18  1  0  0  0  0
 16 19  1  0  0  0  0
 18 20  1  6  0  0  0
 18 21  1  0  0  0  0
 19 22  2  0  0  0  0
 19 23  1  0  0  0  0
 20 24  1  0  0  0  0
 21 25  2  0  0  0  0
 21 26  1  0  0  0  0
 22 27  1  0  0  0  0
 22 28  1  0  0  0  0
 23 29  1  0  0  0  0
 23 30  2  0  0  0  0
 24 31  1  0  0  0  0
 25 32  1  0  0  0  0
 26 33  2  0  0  0  0
 28 34  2  0  0  0  0
 31 35  1  0  0  0  0
 32 36  2  0  0  0  0
 35 37  1  0  0  0  0
 37 38  2  0  0  0  0
 37 39  1  0  0  0  0
  7 10  1  0  0  0  0
 13 14  1  0  0  0  0
 30 34  1  0  0  0  0
 33 36  1  0  0  0  0
M  END
>  <MolRegNo>
486328

>  <m>
=

>  <Value>
20000

>  <Unit>
nM

>  <Type>
IC50

>  <pValue>
4.7

>  <Ligand Efficiency>
0

>  <Binding Efficiency>
0

>  <Surface Efficiency>
0

>  <Assay Index>
401126

>  <Assay Category>


>  <Assay Organism>


>  <Target ID>
17045

>  <Target Name>
Cytochrome P450 3A4

>  <Target Organism>
Homo sapiens

>  <Target Description>
Target is a single protein chain

>  <Sequence Accession>
P08684

>  <Reference>
Bioorg Med Chem Lett 18 (11), 3301-3305 (2008)

>  <Pubmed ID>
18442910

>  <DOI>
10.1016/j.bmcl.2008.04.036

$$$$
486327
Actelion Java MolfileCreator 1.0

 42 45  0  0  0  0  0  0  0  0999 V2000
    0.0000   -0.0000   -0.0000 Cl  0  0  0  0  0  0  0  0  0  0  0  0
    1.2853   -0.7379   -0.0000 C   0  0  0  0  0  0  0  0  0  0  0  0
    1.2734   -2.2255   -0.0000 C   0  0  0  0  0  0  0  0  0  0  0  0
    2.5706    0.0238   -0.0000 C   0  0  0  0  0  0  0  0  0  0  0  0
   -0.0357   -2.9633   -0.0000 C   0  0  0  0  0  0  0  0  0  0  0  0
    2.5587   -2.9752   -0.0000 C   0  0  0  0  0  0  0  0  0  0  0  0
    3.8678   -0.7141   -0.0000 C   0  0  0  0  0  0  0  0  0  0  0  0
   -1.3448   -2.1898   -0.0000 C   0  0  0  0  0  0  0  0  0  0  0  0
   -0.0476   -4.4510   -0.0000 C   0  0  0  0  0  0  0  0  0  0  0  0
    3.8440   -2.2136   -0.0000 C   0  0  0  0  0  0  0  0  0  0  0  0
   -1.3567   -0.6784   -0.0000 O   0  0  0  0  0  0  0  0  0  0  0  0
   -2.6539   -2.9395   -0.0000 N   0  0  0  0  0  0  0  0  0  0  0  0
   -1.3686   -5.1888   -0.0000 N   0  0  0  0  0  0  0  0  0  0  0  0
   -2.6658   -4.4272   -0.0000 C   0  0  0  0  0  0  0  0  0  0  0  0
   -3.9630   -2.1779   -0.0000 C   0  0  0  0  0  0  0  0  0  0  0  0
   -1.3805   -6.6764   -0.0000 C   0  0  0  0  0  0  0  0  0  0  0  0
   -3.9749   -5.1650   -0.0000 O   0  0  0  0  0  0  0  0  0  0  0  0
   -5.2721   -2.9157   -0.0000 C   0  0  0  0  0  0  0  0  0  0  0  0
   -0.0952   -7.4143   -0.0000 C   0  0  0  0  0  0  0  0  0  0  0  0
   -5.2840   -4.4034   -0.0000 N   0  0  0  0  0  0  0  0  0  0  0  0
   -6.5812   -2.1541   -0.0000 C   0  0  0  0  0  0  0  0  0  0  0  0
    1.1782   -6.6526   -0.0000 C   0  0  0  0  0  0  0  0  0  0  0  0
   -0.1190   -8.9019   -0.0000 C   0  0  0  0  0  0  0  0  0  0  0  0
   -6.5931   -5.1412   -0.0000 C   0  0  0  0  0  0  0  0  0  0  0  0
   -7.9022   -2.8919   -0.0000 C   0  0  0  0  0  0  0  0  0  0  0  0
   -6.5931   -0.6308   -0.0000 C   0  0  0  0  0  0  0  0  0  0  0  0
    1.1663   -5.1412   -0.0000 F   0  0  0  0  0  0  0  0  0  0  0  0
    2.4635   -7.3905   -0.0000 C   0  0  0  0  0  0  0  0  0  0  0  0
    1.1663   -9.6398   -0.0000 C   0  0  0  0  0  0  0  0  0  0  0  0
   -1.4400   -9.6398   -0.0000 C   0  0  0  0  0  0  0  0  0  0  0  0
   -6.6050   -6.6288   -0.0000 C   0  0  0  0  0  0  0  0  0  0  0  0
   -9.2113   -2.1303   -0.0000 C   0  0  0  0  0  0  0  0  0  0  0  0
   -7.9022    0.1309   -0.0000 C   0  0  0  0  0  0  0  0  0  0  0  0
    2.4516   -8.8900   -0.0000 C   0  0  0  0  0  0  0  0  0  0  0  0
   -2.7610  -10.3657   -0.0000 F   0  0  0  0  0  0  0  0  0  0  0  0
   -0.7141  -10.9370   -0.0000 F   0  0  0  0  0  0  0  0  0  0  0  0
   -2.1898   -8.3188   -0.0000 F   0  0  0  0  0  0  0  0  0  0  0  0
   -7.9141   -7.3667   -0.0000 C   0  0  0  0  0  0  0  0  0  0  0  0
   -9.2232   -0.6069   -0.0000 C   0  0  0  0  0  0  0  0  0  0  0  0
   -7.9260   -8.8543   -0.0000 C   0  0  0  0  0  0  0  0  0  0  0  0
   -6.6407   -9.5922   -0.0000 O   0  0  0  0  0  0  0  0  0  0  0  0
   -9.2351   -9.6041   -0.0000 O   0  0  0  0  0  0  0  0  0  0  0  0
  1  2  1  0  0  0  0
  2  3  2  0  0  0  0
  2  4  1  0  0  0  0
  3  5  1  0  0  0  0
  3  6  1  0  0  0  0
  4  7  2  0  0  0  0
  5  8  1  0  0  0  0
  5  9  2  0  0  0  0
  6 10  2  0  0  0  0
  8 11  2  0  0  0  0
  8 12  1  0  0  0  0
  9 13  1  0  0  0  0
 12 14  1  0  0  0  0
 12 15  1  0  0  0  0
 13 16  1  0  0  0  0
 14 17  2  0  0  0  0
 15 18  1  0  0  0  0
 16 19  1  0  0  0  0
 18 20  1  6  0  0  0
 18 21  1  0  0  0  0
 19 22  2  0  0  0  0
 19 23  1  0  0  0  0
 20 24  1  0  0  0  0
 21 25  2  0  0  0  0
 21 26  1  0  0  0  0
 22 27  1  0  0  0  0
 22 28  1  0  0  0  0
 23 29  2  0  0  0  0
 23 30  1  0  0  0  0
 24 31  1  0  0  0  0
 25 32  1  0  0  0  0
 26 33  2  0  0  0  0
 28 34  2  0  0  0  0
 30 35  1  0  0  0  0
 30 36  1  0  0  0  0
 30 37  1  0  0  0  0
 31 38  1  0  0  0  0
 32 39  2  0  0  0  0
 38 40  1  0  0  0  0
 40 41  2  0  0  0  0
 40 42  1  0  0  0  0
  7 10  1  0  0  0  0
 13 14  1  0  0  0  0
 29 34  1  0  0  0  0
 33 39  1  0  0  0  0
M  END
>  <MolRegNo>
486327

>  <m>
=

>  <Value>
17000

>  <Unit>
nM

>  <Type>
IC50

>  <pValue>
4.77

>  <Ligand Efficiency>
0

>  <Binding Efficiency>
0

>  <Surface Efficiency>
0

>  <Assay Index>
401126

>  <Assay Category>


>  <Assay Organism>


>  <Target ID>
17045

>  <Target Name>
Cytochrome P450 3A4

>  <Target Organism>
Homo sapiens

>  <Target Description>
Target is a single protein chain

>  <Sequence Accession>
P08684

>  <Reference>
Bioorg Med Chem Lett 18 (11), 3301-3305 (2008)

>  <Pubmed ID>
18442910

>  <DOI>
10.1016/j.bmcl.2008.04.036

$$$$
486325
Actelion Java MolfileCreator 1.0

 41 44  0  0  0  0  0  0  0  0999 V2000
    0.0000   -0.0000   -0.0000 F   0  0  0  0  0  0  0  0  0  0  0  0
    1.2854   -0.7379   -0.0000 C   0  0  0  0  0  0  0  0  0  0  0  0
    2.5708    0.0238   -0.0000 C   0  0  0  0  0  0  0  0  0  0  0  0
    1.2735   -2.2256   -0.0000 C   0  0  0  0  0  0  0  0  0  0  0  0
    2.5589    1.5353   -0.0000 O   0  0  0  0  0  0  0  0  0  0  0  0
    3.8681   -0.7141   -0.0000 C   0  0  0  0  0  0  0  0  0  0  0  0
   -0.0357   -2.9635   -0.0000 C   0  0  0  0  0  0  0  0  0  0  0  0
    2.5589   -2.9755   -0.0000 C   0  0  0  0  0  0  0  0  0  0  0  0
    3.8443    2.2970   -0.0000 C   0  0  0  0  0  0  0  0  0  0  0  0
    3.8562   -2.2018   -0.0000 C   0  0  0  0  0  0  0  0  0  0  0  0
   -1.3449   -2.1899   -0.0000 C   0  0  0  0  0  0  0  0  0  0  0  0
   -0.0476   -4.4513   -0.0000 C   0  0  0  0  0  0  0  0  0  0  0  0
   -1.3568   -0.6784   -0.0000 O   0  0  0  0  0  0  0  0  0  0  0  0
   -2.6541   -2.9397   -0.0000 N   0  0  0  0  0  0  0  0  0  0  0  0
   -1.3687   -5.1892   -0.0000 N   0  0  0  0  0  0  0  0  0  0  0  0
   -2.6660   -4.4275   -0.0000 C   0  0  0  0  0  0  0  0  0  0  0  0
   -3.9633   -2.1780   -0.0000 C   0  0  0  0  0  0  0  0  0  0  0  0
   -1.3806   -6.6769   -0.0000 C   0  0  0  0  0  0  0  0  0  0  0  0
   -3.9752   -5.1654   -0.0000 O   0  0  0  0  0  0  0  0  0  0  0  0
   -5.2725   -2.9159   -0.0000 C   0  0  0  0  0  0  0  0  0  0  0  0
   -0.0952   -7.4148   -0.0000 C   0  0  0  0  0  0  0  0  0  0  0  0
   -5.2844   -4.4037   -0.0000 N   0  0  0  0  0  0  0  0  0  0  0  0
   -6.5817   -2.1542   -0.0000 C   0  0  0  0  0  0  0  0  0  0  0  0
   -0.1190   -8.9026   -0.0000 C   0  0  0  0  0  0  0  0  0  0  0  0
    1.1783   -6.6531   -0.0000 C   0  0  0  0  0  0  0  0  0  0  0  0
   -6.5936   -5.1416   -0.0000 C   0  0  0  0  0  0  0  0  0  0  0  0
   -7.9028   -2.8921   -0.0000 C   0  0  0  0  0  0  0  0  0  0  0  0
   -6.5936   -0.6308   -0.0000 C   0  0  0  0  0  0  0  0  0  0  0  0
   -1.4401   -9.6405   -0.0000 F   0  0  0  0  0  0  0  0  0  0  0  0
    1.1664   -9.6405   -0.0000 C   0  0  0  0  0  0  0  0  0  0  0  0
    1.1664   -5.1416   -0.0000 F   0  0  0  0  0  0  0  0  0  0  0  0
    2.4637   -7.3910   -0.0000 C   0  0  0  0  0  0  0  0  0  0  0  0
   -6.6055   -6.6293   -0.0000 C   0  0  0  0  0  0  0  0  0  0  0  0
   -9.2120   -2.1304   -0.0000 C   0  0  0  0  0  0  0  0  0  0  0  0
   -7.9028    0.1309   -0.0000 C   0  0  0  0  0  0  0  0  0  0  0  0
    2.4637   -8.8787   -0.0000 C   0  0  0  0  0  0  0  0  0  0  0  0
   -7.9147   -7.3672   -0.0000 C   0  0  0  0  0  0  0  0  0  0  0  0
   -9.2239   -0.6189   -0.0000 C   0  0  0  0  0  0  0  0  0  0  0  0
   -7.9266   -8.8549   -0.0000 C   0  0  0  0  0  0  0  0  0  0  0  0
   -6.6412   -9.5929   -0.0000 O   0  0  0  0  0  0  0  0  0  0  0  0
   -9.2358   -9.6048   -0.0000 O   0  0  0  0  0  0  0  0  0  0  0  0
  1  2  1  0  0  0  0
  2  3  2  0  0  0  0
  2  4  1  0  0  0  0
  3  5  1  0  0  0  0
  3  6  1  0  0  0  0
  4  7  1  0  0  0  0
  4  8  2  0  0  0  0
  5  9  1  0  0  0  0
  6 10  2  0  0  0  0
  7 11  1  0  0  0  0
  7 12  2  0  0  0  0
 11 13  2  0  0  0  0
 11 14  1  0  0  0  0
 12 15  1  0  0  0  0
 14 16  1  0  0  0  0
 14 17  1  0  0  0  0
 15 18  1  0  0  0  0
 16 19  2  0  0  0  0
 17 20  1  0  0  0  0
 18 21  1  0  0  0  0
 20 22  1  6  0  0  0
 20 23  1  0  0  0  0
 21 24  2  0  0  0  0
 21 25  1  0  0  0  0
 22 26  1  0  0  0  0
 23 27  2  0  0  0  0
 23 28  1  0  0  0  0
 24 29  1  0  0  0  0
 24 30  1  0  0  0  0
 25 31  1  0  0  0  0
 25 32  2  0  0  0  0
 26 33  1  0  0  0  0
 27 34  1  0  0  0  0
 28 35  2  0  0  0  0
 30 36  2  0  0  0  0
 33 37  1  0  0  0  0
 34 38  2  0  0  0  0
 37 39  1  0  0  0  0
 39 40  2  0  0  0  0
 39 41  1  0  0  0  0
  8 10  1  0  0  0  0
 15 16  1  0  0  0  0
 32 36  1  0  0  0  0
 35 38  1  0  0  0  0
M  END
>  <MolRegNo>
486325

>  <m>
=

>  <Value>
33000

>  <Unit>
nM

>  <Type>
IC50

>  <pValue>
4.48

>  <Ligand Efficiency>
0

>  <Binding Efficiency>
0

>  <Surface Efficiency>
0

>  <Assay Index>
401126

>  <Assay Category>


>  <Assay Organism>


>  <Target ID>
17045

>  <Target Name>
Cytochrome P450 3A4

>  <Target Organism>
Homo sapiens

>  <Target Description>
Target is a single protein chain

>  <Sequence Accession>
P08684

>  <Reference>
Bioorg Med Chem Lett 18 (11), 3301-3305 (2008)

>  <Pubmed ID>
18442910

>  <DOI>
10.1016/j.bmcl.2008.04.036

$$$$
486323
Actelion Java MolfileCreator 1.0

 43 46  0  0  0  0  0  0  0  0999 V2000
    0.0000   -0.0000   -0.0000 Cl  0  0  0  0  0  0  0  0  0  0  0  0
    1.2860   -0.7383   -0.0000 C   0  0  0  0  0  0  0  0  0  0  0  0
    1.2741   -2.2267   -0.0000 C   0  0  0  0  0  0  0  0  0  0  0  0
    2.5721    0.0238   -0.0000 C   0  0  0  0  0  0  0  0  0  0  0  0
   -0.0357   -2.9650   -0.0000 C   0  0  0  0  0  0  0  0  0  0  0  0
    2.5602   -2.9769   -0.0000 C   0  0  0  0  0  0  0  0  0  0  0  0
    3.8700   -0.7145   -0.0000 C   0  0  0  0  0  0  0  0  0  0  0  0
   -1.3456   -2.1910   -0.0000 C   0  0  0  0  0  0  0  0  0  0  0  0
   -0.0476   -4.4535   -0.0000 C   0  0  0  0  0  0  0  0  0  0  0  0
    3.8462   -2.2148   -0.0000 C   0  0  0  0  0  0  0  0  0  0  0  0
   -1.3575   -0.6787   -0.0000 O   0  0  0  0  0  0  0  0  0  0  0  0
   -2.6435   -2.9412   -0.0000 N   0  0  0  0  0  0  0  0  0  0  0  0
   -1.3694   -5.1917   -0.0000 N   0  0  0  0  0  0  0  0  0  0  0  0
   -2.6554   -4.4297   -0.0000 C   0  0  0  0  0  0  0  0  0  0  0  0
   -3.9533   -2.1791   -0.0000 C   0  0  0  0  0  0  0  0  0  0  0  0
   -1.3813   -6.6802   -0.0000 C   0  0  0  0  0  0  0  0  0  0  0  0
   -3.9653   -5.1679   -0.0000 O   0  0  0  0  0  0  0  0  0  0  0  0
   -5.2632   -2.9174   -0.0000 C   0  0  0  0  0  0  0  0  0  0  0  0
   -0.0953   -7.4185   -0.0000 C   0  0  0  0  0  0  0  0  0  0  0  0
   -5.2751   -4.4058   -0.0000 N   0  0  0  0  0  0  0  0  0  0  0  0
   -6.5730   -2.1553   -0.0000 C   0  0  0  0  0  0  0  0  0  0  0  0
    1.1789   -6.6564   -0.0000 C   0  0  0  0  0  0  0  0  0  0  0  0
   -0.1191   -8.9069   -0.0000 C   0  0  0  0  0  0  0  0  0  0  0  0
   -6.5849   -5.1441   -0.0000 C   0  0  0  0  0  0  0  0  0  0  0  0
   -7.8948   -2.8936   -0.0000 C   0  0  0  0  0  0  0  0  0  0  0  0
   -6.5849   -0.6311   -0.0000 C   0  0  0  0  0  0  0  0  0  0  0  0
    1.1670   -5.1441   -0.0000 F   0  0  0  0  0  0  0  0  0  0  0  0
    2.4649   -7.3947   -0.0000 C   0  0  0  0  0  0  0  0  0  0  0  0
    1.1670   -9.6452   -0.0000 C   0  0  0  0  0  0  0  0  0  0  0  0
   -1.4408   -9.6452   -0.0000 C   0  0  0  0  0  0  0  0  0  0  0  0
   -6.5969   -6.6326   -0.0000 C   0  0  0  0  0  0  0  0  0  0  0  0
   -9.2046   -2.1315   -0.0000 C   0  0  0  0  0  0  0  0  0  0  0  0
   -7.8948    0.1310   -0.0000 C   0  0  0  0  0  0  0  0  0  0  0  0
    2.4530   -8.8950   -0.0000 C   0  0  0  0  0  0  0  0  0  0  0  0
   -2.7626  -10.3716   -0.0000 F   0  0  0  0  0  0  0  0  0  0  0  0
   -0.7145  -10.9432   -0.0000 F   0  0  0  0  0  0  0  0  0  0  0  0
   -2.1910   -8.3235   -0.0000 F   0  0  0  0  0  0  0  0  0  0  0  0
   -7.9067   -7.3709   -0.0000 C   0  0  0  0  0  0  0  0  0  0  0  0
   -9.2165   -0.6192   -0.0000 C   0  0  0  0  0  0  0  0  0  0  0  0
   -7.9186   -8.8593   -0.0000 C   0  0  0  0  0  0  0  0  0  0  0  0
   -6.6326   -9.5976   -0.0000 O   0  0  0  0  0  0  0  0  0  0  0  0
   -9.2285   -9.6095   -0.0000 O   0  0  0  0  0  0  0  0  0  0  0  0
   -9.2285  -11.0980   -0.0000 C   0  0  0  0  0  0  0  0  0  0  0  0
  1  2  1  0  0  0  0
  2  3  2  0  0  0  0
  2  4  1  0  0  0  0
  3  5  1  0  0  0  0
  3  6  1  0  0  0  0
  4  7  2  0  0  0  0
  5  8  1  0  0  0  0
  5  9  2  0  0  0  0
  6 10  2  0  0  0  0
  8 11  2  0  0  0  0
  8 12  1  0  0  0  0
  9 13  1  0  0  0  0
 12 14  1  0  0  0  0
 12 15  1  0  0  0  0
 13 16  1  0  0  0  0
 14 17  2  0  0  0  0
 15 18  1  0  0  0  0
 16 19  1  0  0  0  0
 18 20  1  6  0  0  0
 18 21  1  0  0  0  0
 19 22  2  0  0  0  0
 19 23  1  0  0  0  0
 20 24  1  0  0  0  0
 21 25  2  0  0  0  0
 21 26  1  0  0  0  0
 22 27  1  0  0  0  0
 22 28  1  0  0  0  0
 23 29  2  0  0  0  0
 23 30  1  0  0  0  0
 24 31  1  0  0  0  0
 25 32  1  0  0  0  0
 26 33  2  0  0  0  0
 28 34  2  0  0  0  0
 30 35  1  0  0  0  0
 30 36  1  0  0  0  0
 30 37  1  0  0  0  0
 31 38  1  0  0  0  0
 32 39  2  0  0  0  0
 38 40  1  0  0  0  0
 40 41  2  0  0  0  0
 40 42  1  0  0  0  0
 42 43  1  0  0  0  0
  7 10  1  0  0  0  0
 13 14  1  0  0  0  0
 29 34  1  0  0  0  0
 33 39  1  0  0  0  0
M  END
>  <MolRegNo>
486323

>  <m>
=

>  <Value>
130

>  <Unit>
nM

>  <Type>
IC50

>  <pValue>
6.89

>  <Ligand Efficiency>
0

>  <Binding Efficiency>
0

>  <Surface Efficiency>
0

>  <Assay Index>
401126

>  <Assay Category>


>  <Assay Organism>


>  <Target ID>
17045

>  <Target Name>
Cytochrome P450 3A4

>  <Target Organism>
Homo sapiens

>  <Target Description>
Target is a single protein chain

>  <Sequence Accession>
P08684

>  <Reference>
Bioorg Med Chem Lett 18 (11), 3301-3305 (2008)

>  <Pubmed ID>
18442910

>  <DOI>
10.1016/j.bmcl.2008.04.036

$$$$
486321
Actelion Java MolfileCreator 1.0

 42 45  0  0  0  0  0  0  0  0999 V2000
    0.0000   -0.0000   -0.0000 F   0  0  0  0  0  0  0  0  0  0  0  0
   -0.0119   -1.4855   -0.0000 C   0  0  0  0  0  0  0  0  0  0  0  0
   -1.3072   -2.2222   -0.0000 C   0  0  0  0  0  0  0  0  0  0  0  0
    1.2716   -2.2222   -0.0000 C   0  0  0  0  0  0  0  0  0  0  0  0
   -1.3310   -3.7077   -0.0000 C   0  0  0  0  0  0  0  0  0  0  0  0
   -2.6144   -1.4617   -0.0000 C   0  0  0  0  0  0  0  0  0  0  0  0
    1.2597   -3.7196   -0.0000 C   0  0  0  0  0  0  0  0  0  0  0  0
   -0.0475   -4.4445   -0.0000 C   0  0  0  0  0  0  0  0  0  0  0  0
   -2.6501   -4.4445   -0.0000 C   0  0  0  0  0  0  0  0  0  0  0  0
   -2.6263    0.0475   -0.0000 N   0  0  0  0  0  0  0  0  0  0  0  0
   -3.9691   -5.1694   -0.0000 F   0  0  0  0  0  0  0  0  0  0  0  0
   -1.9252   -5.7398   -0.0000 F   0  0  0  0  0  0  0  0  0  0  0  0
   -3.3987   -3.1254   -0.0000 F   0  0  0  0  0  0  0  0  0  0  0  0
   -3.9335    0.8081   -0.0000 C   0  0  0  0  0  0  0  0  0  0  0  0
   -1.3310    0.8081   -0.0000 C   0  0  0  0  0  0  0  0  0  0  0  0
   -5.2407    0.0713   -0.0000 O   0  0  0  0  0  0  0  0  0  0  0  0
   -3.9454    2.3173   -0.0000 N   0  0  0  0  0  0  0  0  0  0  0  0
   -1.3429    2.3173   -0.0000 C   0  0  0  0  0  0  0  0  0  0  0  0
   -2.6738    3.0897   -0.0000 C   0  0  0  0  0  0  0  0  0  0  0  0
   -5.2526    3.0779   -0.0000 C   0  0  0  0  0  0  0  0  0  0  0  0
   -0.0594    3.0779   -0.0000 C   0  0  0  0  0  0  0  0  0  0  0  0
   -2.6857    4.5990   -0.0000 O   0  0  0  0  0  0  0  0  0  0  0  0
   -6.5598    2.3411   -0.0000 C   0  0  0  0  0  0  0  0  0  0  0  0
    1.2240    2.3292   -0.0000 C   0  0  0  0  0  0  0  0  0  0  0  0
   -0.0713    4.5871   -0.0000 C   0  0  0  0  0  0  0  0  0  0  0  0
   -6.5717    0.8556   -0.0000 N   0  0  0  0  0  0  0  0  0  0  0  0
   -7.8670    3.1016   -0.0000 C   0  0  0  0  0  0  0  0  0  0  0  0
    2.5074    3.0897   -0.0000 C   0  0  0  0  0  0  0  0  0  0  0  0
    1.2121    5.3476   -0.0000 C   0  0  0  0  0  0  0  0  0  0  0  0
   -9.1861    2.3648   -0.0000 C   0  0  0  0  0  0  0  0  0  0  0  0
   -7.8789    4.6227   -0.0000 C   0  0  0  0  0  0  0  0  0  0  0  0
    2.4956    4.5990   -0.0000 C   0  0  0  0  0  0  0  0  0  0  0  0
  -10.4933    3.1254   -0.0000 C   0  0  0  0  0  0  0  0  0  0  0  0
   -9.1861    5.3833   -0.0000 C   0  0  0  0  0  0  0  0  0  0  0  0
    3.7790    5.3595   -0.0000 C   0  0  0  0  0  0  0  0  0  0  0  0
  -10.5051    4.6346   -0.0000 C   0  0  0  0  0  0  0  0  0  0  0  0
    5.0624    4.6227   -0.0000 N   0  0  0  0  0  0  0  0  0  0  0  0
    5.0505    3.1373   -0.0000 C   0  0  0  0  0  0  0  0  0  0  0  0
    6.3340    2.4005   -0.0000 C   0  0  0  0  0  0  0  0  0  0  0  0
    6.3340    0.9150   -0.0000 C   0  0  0  0  0  0  0  0  0  0  0  0
    7.6293    0.1783   -0.0000 O   0  0  0  0  0  0  0  0  0  0  0  0
    5.0268    0.1664   -0.0000 O   0  0  0  0  0  0  0  0  0  0  0  0
  1  2  1  0  0  0  0
  2  3  2  0  0  0  0
  2  4  1  0  0  0  0
  3  5  1  0  0  0  0
  3  6  1  0  0  0  0
  4  7  2  0  0  0  0
  5  8  2  0  0  0  0
  5  9  1  0  0  0  0
  6 10  1  0  0  0  0
  9 11  1  0  0  0  0
  9 12  1  0  0  0  0
  9 13  1  0  0  0  0
 10 14  1  0  0  0  0
 10 15  1  0  0  0  0
 14 16  2  0  0  0  0
 14 17  1  0  0  0  0
 15 18  2  0  0  0  0
 17 19  1  0  0  0  0
 17 20  1  0  0  0  0
 18 21  1  0  0  0  0
 19 22  2  0  0  0  0
 20 23  1  0  0  0  0
 21 24  2  0  0  0  0
 21 25  1  0  0  0  0
 23 26  1  6  0  0  0
 23 27  1  0  0  0  0
 24 28  1  0  0  0  0
 25 29  2  0  0  0  0
 27 30  2  0  0  0  0
 27 31  1  0  0  0  0
 28 32  2  0  0  0  0
 30 33  1  0  0  0  0
 31 34  2  0  0  0  0
 32 35  1  0  0  0  0
 33 36  2  0  0  0  0
 35 37  1  0  0  0  0
 37 38  1  0  0  0  0
 38 39  1  0  0  0  0
 39 40  1  0  0  0  0
 40 41  2  0  0  0  0
 40 42  1  0  0  0  0
  7  8  1  0  0  0  0
 18 19  1  0  0  0  0
 29 32  1  0  0  0  0
 34 36  1  0  0  0  0
M  END
>  <MolRegNo>
486321

>  <m>
=

>  <Value>
31000

>  <Unit>
nM

>  <Type>
IC50

>  <pValue>
4.51

>  <Ligand Efficiency>
0

>  <Binding Efficiency>
0

>  <Surface Efficiency>
0

>  <Assay Index>
401126

>  <Assay Category>


>  <Assay Organism>


>  <Target ID>
17045

>  <Target Name>
Cytochrome P450 3A4

>  <Target Organism>
Homo sapiens

>  <Target Description>
Target is a single protein chain

>  <Sequence Accession>
P08684

>  <Reference>
Bioorg Med Chem Lett 18 (11), 3301-3305 (2008)

>  <Pubmed ID>
18442910

>  <DOI>
10.1016/j.bmcl.2008.04.036

$$$$
486258
Actelion Java MolfileCreator 1.0

 41 44  0  0  0  0  0  0  0  0999 V2000
    0.0000   -0.0000   -0.0000 S   0  0  0  0  0  0  0  0  0  0  0  0
   -1.3080    0.7610   -0.0000 C   0  0  0  0  0  0  0  0  0  0  0  0
   -0.0119   -1.4863   -0.0000 C   0  0  0  0  0  0  0  0  0  0  0  0
   -2.6159    0.0238   -0.0000 C   0  0  0  0  0  0  0  0  0  0  0  0
    1.2723   -2.2235   -0.0000 C   0  0  0  0  0  0  0  0  0  0  0  0
   -2.6278   -1.4625   -0.0000 C   0  0  0  0  0  0  0  0  0  0  0  0
   -3.9358    0.7848   -0.0000 C   0  0  0  0  0  0  0  0  0  0  0  0
    2.5684   -1.4625   -0.0000 O   0  0  0  0  0  0  0  0  0  0  0  0
    1.2723   -3.7099   -0.0000 O   0  0  0  0  0  0  0  0  0  0  0  0
   -3.9358   -2.1998   -0.0000 C   0  0  0  0  0  0  0  0  0  0  0  0
   -5.2438    0.0476   -0.0000 C   0  0  0  0  0  0  0  0  0  0  0  0
   -5.2438   -1.4269   -0.0000 C   0  0  0  0  0  0  0  0  0  0  0  0
   -6.5517   -2.1641   -0.0000 C   0  0  0  0  0  0  0  0  0  0  0  0
   -7.8597   -1.3912   -0.0000 C   0  0  0  0  0  0  0  0  0  0  0  0
   -6.5636   -3.6504   -0.0000 C   0  0  0  0  0  0  0  0  0  0  0  0
   -7.8716    0.1189   -0.0000 O   0  0  0  0  0  0  0  0  0  0  0  0
   -9.1558   -2.1403   -0.0000 N   0  0  0  0  0  0  0  0  0  0  0  0
   -7.8835   -4.3876   -0.0000 N   0  0  0  0  0  0  0  0  0  0  0  0
   -9.1677   -3.6266   -0.0000 C   0  0  0  0  0  0  0  0  0  0  0  0
  -10.4638   -1.3793   -0.0000 C   0  0  0  0  0  0  0  0  0  0  0  0
   -7.8954   -5.8740   -0.0000 C   0  0  0  0  0  0  0  0  0  0  0  0
  -10.4756   -4.3639   -0.0000 O   0  0  0  0  0  0  0  0  0  0  0  0
  -11.7717   -2.1165   -0.0000 C   0  0  0  0  0  0  0  0  0  0  0  0
   -6.6112   -6.6112   -0.0000 C   0  0  0  0  0  0  0  0  0  0  0  0
  -11.7836   -3.6029   -0.0000 N   0  0  0  0  0  0  0  0  0  0  0  0
  -13.0797   -1.3555   -0.0000 C   0  0  0  0  0  0  0  0  0  0  0  0
   -5.3389   -5.8502   -0.0000 C   0  0  0  0  0  0  0  0  0  0  0  0
   -6.6350   -8.0975   -0.0000 C   0  0  0  0  0  0  0  0  0  0  0  0
  -14.3996   -2.0928   -0.0000 C   0  0  0  0  0  0  0  0  0  0  0  0
  -13.0916    0.1665   -0.0000 C   0  0  0  0  0  0  0  0  0  0  0  0
   -5.3508   -4.3401   -0.0000 F   0  0  0  0  0  0  0  0  0  0  0  0
   -4.0547   -6.5874   -0.0000 C   0  0  0  0  0  0  0  0  0  0  0  0
   -5.3508   -8.8347   -0.0000 C   0  0  0  0  0  0  0  0  0  0  0  0
   -7.9548   -8.8347   -0.0000 C   0  0  0  0  0  0  0  0  0  0  0  0
  -15.7075   -1.3318   -0.0000 C   0  0  0  0  0  0  0  0  0  0  0  0
  -14.3996    0.9275   -0.0000 C   0  0  0  0  0  0  0  0  0  0  0  0
   -4.0666   -8.0856   -0.0000 C   0  0  0  0  0  0  0  0  0  0  0  0
   -9.2747   -9.5601   -0.0000 F   0  0  0  0  0  0  0  0  0  0  0  0
   -7.2295  -10.1308   -0.0000 F   0  0  0  0  0  0  0  0  0  0  0  0
   -8.7039   -7.5149   -0.0000 F   0  0  0  0  0  0  0  0  0  0  0  0
  -15.7194    0.1784   -0.0000 C   0  0  0  0  0  0  0  0  0  0  0  0
  1  2  1  0  0  0  0
  1  3  1  0  0  0  0
  2  4  1  0  0  0  0
  3  5  1  0  0  0  0
  4  6  2  0  0  0  0
  4  7  1  0  0  0  0
  5  8  2  0  0  0  0
  5  9  1  0  0  0  0
  6 10  1  0  0  0  0
  7 11  2  0  0  0  0
 10 12  2  0  0  0  0
 12 13  1  0  0  0  0
 13 14  1  0  0  0  0
 13 15  2  0  0  0  0
 14 16  2  0  0  0  0
 14 17  1  0  0  0  0
 15 18  1  0  0  0  0
 17 19  1  0  0  0  0
 17 20  1  0  0  0  0
 18 21  1  0  0  0  0
 19 22  2  0  0  0  0
 20 23  1  0  0  0  0
 21 24  1  0  0  0  0
 23 25  1  6  0  0  0
 23 26  1  0  0  0  0
 24 27  2  0  0  0  0
 24 28  1  0  0  0  0
 26 29  2  0  0  0  0
 26 30  1  0  0  0  0
 27 31  1  0  0  0  0
 27 32  1  0  0  0  0
 28 33  2  0  0  0  0
 28 34  1  0  0  0  0
 29 35  1  0  0  0  0
 30 36  2  0  0  0  0
 32 37  2  0  0  0  0
 34 38  1  0  0  0  0
 34 39  1  0  0  0  0
 34 40  1  0  0  0  0
 35 41  2  0  0  0  0
 11 12  1  0  0  0  0
 18 19  1  0  0  0  0
 33 37  1  0  0  0  0
 36 41  1  0  0  0  0
M  END
>  <MolRegNo>
486258

>  <m>
=

>  <Value>
16000

>  <Unit>
nM

>  <Type>
IC50

>  <pValue>
4.8

>  <Ligand Efficiency>
0

>  <Binding Efficiency>
0

>  <Surface Efficiency>
0

>  <Assay Index>
401126

>  <Assay Category>


>  <Assay Organism>


>  <Target ID>
17045

>  <Target Name>
Cytochrome P450 3A4

>  <Target Organism>
Homo sapiens

>  <Target Description>
Target is a single protein chain

>  <Sequence Accession>
P08684

>  <Reference>
Bioorg Med Chem Lett 18 (11), 3301-3305 (2008)

>  <Pubmed ID>
18442910

>  <DOI>
10.1016/j.bmcl.2008.04.036

$$$$
486257
Actelion Java MolfileCreator 1.0

 41 44  0  0  0  0  0  0  0  0999 V2000
    0.0000   -0.0000   -0.0000 F   0  0  0  0  0  0  0  0  0  0  0  0
   -0.0119   -1.4852   -0.0000 C   0  0  0  0  0  0  0  0  0  0  0  0
   -1.3070   -2.2219   -0.0000 C   0  0  0  0  0  0  0  0  0  0  0  0
    1.2713   -2.2219   -0.0000 C   0  0  0  0  0  0  0  0  0  0  0  0
   -1.3307   -3.7071   -0.0000 C   0  0  0  0  0  0  0  0  0  0  0  0
   -2.6139   -1.4614   -0.0000 C   0  0  0  0  0  0  0  0  0  0  0  0
    1.2594   -3.7189   -0.0000 C   0  0  0  0  0  0  0  0  0  0  0  0
   -0.0475   -4.4437   -0.0000 C   0  0  0  0  0  0  0  0  0  0  0  0
   -2.6496   -4.4437   -0.0000 C   0  0  0  0  0  0  0  0  0  0  0  0
   -2.6258    0.0475   -0.0000 N   0  0  0  0  0  0  0  0  0  0  0  0
   -3.9684   -5.1685   -0.0000 F   0  0  0  0  0  0  0  0  0  0  0  0
   -1.9248   -5.7388   -0.0000 F   0  0  0  0  0  0  0  0  0  0  0  0
   -3.3981   -3.1249   -0.0000 F   0  0  0  0  0  0  0  0  0  0  0  0
   -3.9328    0.8079   -0.0000 C   0  0  0  0  0  0  0  0  0  0  0  0
   -1.3307    0.8079   -0.0000 C   0  0  0  0  0  0  0  0  0  0  0  0
   -5.2398    0.0713   -0.0000 O   0  0  0  0  0  0  0  0  0  0  0  0
   -3.9447    2.3169   -0.0000 N   0  0  0  0  0  0  0  0  0  0  0  0
   -1.3426    2.3169   -0.0000 C   0  0  0  0  0  0  0  0  0  0  0  0
   -2.6615    3.0892   -0.0000 C   0  0  0  0  0  0  0  0  0  0  0  0
   -5.2517    3.0773   -0.0000 C   0  0  0  0  0  0  0  0  0  0  0  0
   -0.0594    3.0773   -0.0000 C   0  0  0  0  0  0  0  0  0  0  0  0
   -2.6734    4.5982   -0.0000 O   0  0  0  0  0  0  0  0  0  0  0  0
   -6.5586    2.3407   -0.0000 C   0  0  0  0  0  0  0  0  0  0  0  0
    1.2238    2.3288   -0.0000 C   0  0  0  0  0  0  0  0  0  0  0  0
   -0.0713    4.5863   -0.0000 C   0  0  0  0  0  0  0  0  0  0  0  0
   -6.5705    0.8555   -0.0000 N   0  0  0  0  0  0  0  0  0  0  0  0
   -7.8656    3.1011   -0.0000 C   0  0  0  0  0  0  0  0  0  0  0  0
    2.5070    3.0892   -0.0000 C   0  0  0  0  0  0  0  0  0  0  0  0
    1.2119    5.3467   -0.0000 C   0  0  0  0  0  0  0  0  0  0  0  0
   -9.1845    2.3644   -0.0000 C   0  0  0  0  0  0  0  0  0  0  0  0
   -7.8775    4.6219   -0.0000 C   0  0  0  0  0  0  0  0  0  0  0  0
    2.4951    4.5982   -0.0000 C   0  0  0  0  0  0  0  0  0  0  0  0
  -10.4914    3.1249   -0.0000 C   0  0  0  0  0  0  0  0  0  0  0  0
   -9.1845    5.3824   -0.0000 C   0  0  0  0  0  0  0  0  0  0  0  0
    3.7783    5.3586   -0.0000 C   0  0  0  0  0  0  0  0  0  0  0  0
  -10.5033    4.6457   -0.0000 C   0  0  0  0  0  0  0  0  0  0  0  0
    5.0616    4.6219   -0.0000 O   0  0  0  0  0  0  0  0  0  0  0  0
    5.0497    3.1367   -0.0000 C   0  0  0  0  0  0  0  0  0  0  0  0
    6.3329    2.4001   -0.0000 C   0  0  0  0  0  0  0  0  0  0  0  0
    7.6280    3.1605   -0.0000 O   0  0  0  0  0  0  0  0  0  0  0  0
    6.3329    0.9149   -0.0000 O   0  0  0  0  0  0  0  0  0  0  0  0
  1  2  1  0  0  0  0
  2  3  2  0  0  0  0
  2  4  1  0  0  0  0
  3  5  1  0  0  0  0
  3  6  1  0  0  0  0
  4  7  2  0  0  0  0
  5  8  2  0  0  0  0
  5  9  1  0  0  0  0
  6 10  1  0  0  0  0
  9 11  1  0  0  0  0
  9 12  1  0  0  0  0
  9 13  1  0  0  0  0
 10 14  1  0  0  0  0
 10 15  1  0  0  0  0
 14 16  2  0  0  0  0
 14 17  1  0  0  0  0
 15 18  2  0  0  0  0
 17 19  1  0  0  0  0
 17 20  1  0  0  0  0
 18 21  1  0  0  0  0
 19 22  2  0  0  0  0
 20 23  1  0  0  0  0
 21 24  2  0  0  0  0
 21 25  1  0  0  0  0
 23 26  1  6  0  0  0
 23 27  1  0  0  0  0
 24 28  1  0  0  0  0
 25 29  2  0  0  0  0
 27 30  2  0  0  0  0
 27 31  1  0  0  0  0
 28 32  2  0  0  0  0
 30 33  1  0  0  0  0
 31 34  2  0  0  0  0
 32 35  1  0  0  0  0
 33 36  2  0  0  0  0
 35 37  1  0  0  0  0
 37 38  1  0  0  0  0
 38 39  1  0  0  0  0
 39 40  2  0  0  0  0
 39 41  1  0  0  0  0
  7  8  1  0  0  0  0
 18 19  1  0  0  0  0
 29 32  1  0  0  0  0
 34 36  1  0  0  0  0
M  END
>  <MolRegNo>
486257

>  <m>
=

>  <Value>
20000

>  <Unit>
nM

>  <Type>
IC50

>  <pValue>
4.7

>  <Ligand Efficiency>
0

>  <Binding Efficiency>
0

>  <Surface Efficiency>
0

>  <Assay Index>
401126

>  <Assay Category>


>  <Assay Organism>


>  <Target ID>
17045

>  <Target Name>
Cytochrome P450 3A4

>  <Target Organism>
Homo sapiens

>  <Target Description>
Target is a single protein chain

>  <Sequence Accession>
P08684

>  <Reference>
Bioorg Med Chem Lett 18 (11), 3301-3305 (2008)

>  <Pubmed ID>
18442910

>  <DOI>
10.1016/j.bmcl.2008.04.036

$$$$
486255
Actelion Java MolfileCreator 1.0

 41 44  0  0  0  0  0  0  0  0999 V2000
    0.0000   -0.0000   -0.0000 F   0  0  0  0  0  0  0  0  0  0  0  0
   -0.0119   -1.4851   -0.0000 C   0  0  0  0  0  0  0  0  0  0  0  0
   -1.3069   -2.2217   -0.0000 C   0  0  0  0  0  0  0  0  0  0  0  0
    1.2712   -2.2217   -0.0000 C   0  0  0  0  0  0  0  0  0  0  0  0
   -1.3306   -3.7068   -0.0000 C   0  0  0  0  0  0  0  0  0  0  0  0
   -2.6138   -1.4613   -0.0000 C   0  0  0  0  0  0  0  0  0  0  0  0
    1.2594   -3.7187   -0.0000 C   0  0  0  0  0  0  0  0  0  0  0  0
   -0.0475   -4.4434   -0.0000 C   0  0  0  0  0  0  0  0  0  0  0  0
   -2.6494   -4.4434   -0.0000 C   0  0  0  0  0  0  0  0  0  0  0  0
   -2.6256    0.0475   -0.0000 N   0  0  0  0  0  0  0  0  0  0  0  0
   -3.9682   -5.1681   -0.0000 F   0  0  0  0  0  0  0  0  0  0  0  0
   -1.9247   -5.7384   -0.0000 F   0  0  0  0  0  0  0  0  0  0  0  0
   -3.3979   -3.1246   -0.0000 F   0  0  0  0  0  0  0  0  0  0  0  0
   -3.9325    0.8079   -0.0000 C   0  0  0  0  0  0  0  0  0  0  0  0
   -1.3306    0.8079   -0.0000 C   0  0  0  0  0  0  0  0  0  0  0  0
   -5.2394    0.0713   -0.0000 O   0  0  0  0  0  0  0  0  0  0  0  0
   -3.9444    2.3167   -0.0000 N   0  0  0  0  0  0  0  0  0  0  0  0
   -1.3425    2.3167   -0.0000 C   0  0  0  0  0  0  0  0  0  0  0  0
   -2.6613    3.0890   -0.0000 C   0  0  0  0  0  0  0  0  0  0  0  0
   -5.2513    3.0771   -0.0000 C   0  0  0  0  0  0  0  0  0  0  0  0
   -0.0594    3.0771   -0.0000 C   0  0  0  0  0  0  0  0  0  0  0  0
   -2.6732    4.5978   -0.0000 O   0  0  0  0  0  0  0  0  0  0  0  0
   -6.5582    2.3405   -0.0000 C   0  0  0  0  0  0  0  0  0  0  0  0
    1.2237    2.3286   -0.0000 C   0  0  0  0  0  0  0  0  0  0  0  0
   -0.0713    4.5860   -0.0000 C   0  0  0  0  0  0  0  0  0  0  0  0
   -6.5700    0.8554   -0.0000 N   0  0  0  0  0  0  0  0  0  0  0  0
   -7.8650    3.1009   -0.0000 C   0  0  0  0  0  0  0  0  0  0  0  0
    2.5068    3.0890   -0.0000 C   0  0  0  0  0  0  0  0  0  0  0  0
    1.2118    5.3463   -0.0000 C   0  0  0  0  0  0  0  0  0  0  0  0
   -9.1838    2.3643   -0.0000 C   0  0  0  0  0  0  0  0  0  0  0  0
   -7.8769    4.6216   -0.0000 C   0  0  0  0  0  0  0  0  0  0  0  0
    2.4949    4.5978   -0.0000 C   0  0  0  0  0  0  0  0  0  0  0  0
  -10.4907    3.1246   -0.0000 C   0  0  0  0  0  0  0  0  0  0  0  0
   -9.1838    5.3820   -0.0000 C   0  0  0  0  0  0  0  0  0  0  0  0
    3.7781    5.3582   -0.0000 C   0  0  0  0  0  0  0  0  0  0  0  0
  -10.5026    4.6454   -0.0000 C   0  0  0  0  0  0  0  0  0  0  0  0
    5.0612    4.6216   -0.0000 O   0  0  0  0  0  0  0  0  0  0  0  0
    5.0493    3.1365   -0.0000 C   0  0  0  0  0  0  0  0  0  0  0  0
    3.7424    2.3999   -0.0000 O   0  0  0  0  0  0  0  0  0  0  0  0
    6.3324    2.3999   -0.0000 C   0  0  0  0  0  0  0  0  0  0  0  0
    7.6155    3.1603   -0.0000 N   0  0  0  0  0  0  0  0  0  0  0  0
  1  2  1  0  0  0  0
  2  3  2  0  0  0  0
  2  4  1  0  0  0  0
  3  5  1  0  0  0  0
  3  6  1  0  0  0  0
  4  7  2  0  0  0  0
  5  8  2  0  0  0  0
  5  9  1  0  0  0  0
  6 10  1  0  0  0  0
  9 11  1  0  0  0  0
  9 12  1  0  0  0  0
  9 13  1  0  0  0  0
 10 14  1  0  0  0  0
 10 15  1  0  0  0  0
 14 16  2  0  0  0  0
 14 17  1  0  0  0  0
 15 18  2  0  0  0  0
 17 19  1  0  0  0  0
 17 20  1  0  0  0  0
 18 21  1  0  0  0  0
 19 22  2  0  0  0  0
 20 23  1  0  0  0  0
 21 24  2  0  0  0  0
 21 25  1  0  0  0  0
 23 26  1  6  0  0  0
 23 27  1  0  0  0  0
 24 28  1  0  0  0  0
 25 29  2  0  0  0  0
 27 30  2  0  0  0  0
 27 31  1  0  0  0  0
 28 32  2  0  0  0  0
 30 33  1  0  0  0  0
 31 34  2  0  0  0  0
 32 35  1  0  0  0  0
 33 36  2  0  0  0  0
 35 37  1  0  0  0  0
 37 38  1  0  0  0  0
 38 39  2  0  0  0  0
 38 40  1  0  0  0  0
 40 41  1  0  0  0  0
  7  8  1  0  0  0  0
 18 19  1  0  0  0  0
 29 32  1  0  0  0  0
 34 36  1  0  0  0  0
M  END
>  <MolRegNo>
486255

>  <m>
=

>  <Value>
670

>  <Unit>
nM

>  <Type>
IC50

>  <pValue>
6.17

>  <Ligand Efficiency>
0

>  <Binding Efficiency>
0

>  <Surface Efficiency>
0

>  <Assay Index>
401126

>  <Assay Category>


>  <Assay Organism>


>  <Target ID>
17045

>  <Target Name>
Cytochrome P450 3A4

>  <Target Organism>
Homo sapiens

>  <Target Description>
Target is a single protein chain

>  <Sequence Accession>
P08684

>  <Reference>
Bioorg Med Chem Lett 18 (11), 3301-3305 (2008)

>  <Pubmed ID>
18442910

>  <DOI>
10.1016/j.bmcl.2008.04.036

$$$$
486196
Actelion Java MolfileCreator 1.0

 41 44  0  0  0  0  0  0  0  0999 V2000
    0.0000   -0.0000   -0.0000 F   0  0  0  0  0  0  0  0  0  0  0  0
   -0.0119   -1.4852   -0.0000 C   0  0  0  0  0  0  0  0  0  0  0  0
   -1.3070   -2.2219   -0.0000 C   0  0  0  0  0  0  0  0  0  0  0  0
    1.2714   -2.2219   -0.0000 C   0  0  0  0  0  0  0  0  0  0  0  0
   -1.3308   -3.7071   -0.0000 C   0  0  0  0  0  0  0  0  0  0  0  0
   -2.6140   -1.4615   -0.0000 C   0  0  0  0  0  0  0  0  0  0  0  0
    1.2595   -3.7190   -0.0000 C   0  0  0  0  0  0  0  0  0  0  0  0
   -0.0475   -4.4438   -0.0000 C   0  0  0  0  0  0  0  0  0  0  0  0
   -2.6497   -4.4438   -0.0000 C   0  0  0  0  0  0  0  0  0  0  0  0
   -2.6259    0.0475   -0.0000 N   0  0  0  0  0  0  0  0  0  0  0  0
   -3.9685   -5.1686   -0.0000 F   0  0  0  0  0  0  0  0  0  0  0  0
   -1.9249   -5.7389   -0.0000 F   0  0  0  0  0  0  0  0  0  0  0  0
   -3.3982   -3.1249   -0.0000 F   0  0  0  0  0  0  0  0  0  0  0  0
   -3.9329    0.8080   -0.0000 C   0  0  0  0  0  0  0  0  0  0  0  0
   -1.3308    0.8080   -0.0000 C   0  0  0  0  0  0  0  0  0  0  0  0
   -5.2399    0.0713   -0.0000 O   0  0  0  0  0  0  0  0  0  0  0  0
   -3.9448    2.3170   -0.0000 N   0  0  0  0  0  0  0  0  0  0  0  0
   -1.3426    2.3170   -0.0000 C   0  0  0  0  0  0  0  0  0  0  0  0
   -2.6615    3.0893   -0.0000 C   0  0  0  0  0  0  0  0  0  0  0  0
   -5.2518    3.0774   -0.0000 C   0  0  0  0  0  0  0  0  0  0  0  0
   -0.0594    3.0774   -0.0000 C   0  0  0  0  0  0  0  0  0  0  0  0
   -2.6734    4.5983   -0.0000 O   0  0  0  0  0  0  0  0  0  0  0  0
   -6.5588    2.3407   -0.0000 C   0  0  0  0  0  0  0  0  0  0  0  0
    1.2238    2.3288   -0.0000 C   0  0  0  0  0  0  0  0  0  0  0  0
   -0.0713    4.5864   -0.0000 C   0  0  0  0  0  0  0  0  0  0  0  0
   -6.5707    0.8555   -0.0000 N   0  0  0  0  0  0  0  0  0  0  0  0
   -7.8658    3.1012   -0.0000 C   0  0  0  0  0  0  0  0  0  0  0  0
    2.5071    3.0893   -0.0000 C   0  0  0  0  0  0  0  0  0  0  0  0
    1.2119    5.3468   -0.0000 C   0  0  0  0  0  0  0  0  0  0  0  0
   -9.1847    2.3645   -0.0000 C   0  0  0  0  0  0  0  0  0  0  0  0
   -7.8777    4.6220   -0.0000 C   0  0  0  0  0  0  0  0  0  0  0  0
    2.4952    4.5983   -0.0000 C   0  0  0  0  0  0  0  0  0  0  0  0
  -10.4917    3.1249   -0.0000 C   0  0  0  0  0  0  0  0  0  0  0  0
   -9.1847    5.3825   -0.0000 C   0  0  0  0  0  0  0  0  0  0  0  0
    3.7784    5.3587   -0.0000 C   0  0  0  0  0  0  0  0  0  0  0  0
  -10.5036    4.6458   -0.0000 C   0  0  0  0  0  0  0  0  0  0  0  0
    5.0617    4.6220   -0.0000 O   0  0  0  0  0  0  0  0  0  0  0  0
    5.0498    3.1368   -0.0000 C   0  0  0  0  0  0  0  0  0  0  0  0
    3.7428    2.4001   -0.0000 O   0  0  0  0  0  0  0  0  0  0  0  0
    6.3330    2.4001   -0.0000 C   0  0  0  0  0  0  0  0  0  0  0  0
    6.3211    0.9149   -0.0000 O   0  0  0  0  0  0  0  0  0  0  0  0
  1  2  1  0  0  0  0
  2  3  2  0  0  0  0
  2  4  1  0  0  0  0
  3  5  1  0  0  0  0
  3  6  1  0  0  0  0
  4  7  2  0  0  0  0
  5  8  2  0  0  0  0
  5  9  1  0  0  0  0
  6 10  1  0  0  0  0
  9 11  1  0  0  0  0
  9 12  1  0  0  0  0
  9 13  1  0  0  0  0
 10 14  1  0  0  0  0
 10 15  1  0  0  0  0
 14 16  2  0  0  0  0
 14 17  1  0  0  0  0
 15 18  2  0  0  0  0
 17 19  1  0  0  0  0
 17 20  1  0  0  0  0
 18 21  1  0  0  0  0
 19 22  2  0  0  0  0
 20 23  1  0  0  0  0
 21 24  2  0  0  0  0
 21 25  1  0  0  0  0
 23 26  1  6  0  0  0
 23 27  1  0  0  0  0
 24 28  1  0  0  0  0
 25 29  2  0  0  0  0
 27 30  2  0  0  0  0
 27 31  1  0  0  0  0
 28 32  2  0  0  0  0
 30 33  1  0  0  0  0
 31 34  2  0  0  0  0
 32 35  1  0  0  0  0
 33 36  2  0  0  0  0
 35 37  1  0  0  0  0
 37 38  1  0  0  0  0
 38 39  2  0  0  0  0
 38 40  1  0  0  0  0
 40 41  1  0  0  0  0
  7  8  1  0  0  0  0
 18 19  1  0  0  0  0
 29 32  1  0  0  0  0
 34 36  1  0  0  0  0
M  END
>  <MolRegNo>
486196

>  <m>
=

>  <Value>
120

>  <Unit>
nM

>  <Type>
IC50

>  <pValue>
6.92

>  <Ligand Efficiency>
0

>  <Binding Efficiency>
0

>  <Surface Efficiency>
0

>  <Assay Index>
401126

>  <Assay Category>


>  <Assay Organism>


>  <Target ID>
17045

>  <Target Name>
Cytochrome P450 3A4

>  <Target Organism>
Homo sapiens

>  <Target Description>
Target is a single protein chain

>  <Sequence Accession>
P08684

>  <Reference>
Bioorg Med Chem Lett 18 (11), 3301-3305 (2008)

>  <Pubmed ID>
18442910

>  <DOI>
10.1016/j.bmcl.2008.04.036

$$$$
486195
Actelion Java MolfileCreator 1.0

 42 46  0  0  0  0  0  0  0  0999 V2000
    0.0000   -0.0000   -0.0000 F   0  0  0  0  0  0  0  0  0  0  0  0
   -0.0119   -1.4859   -0.0000 C   0  0  0  0  0  0  0  0  0  0  0  0
   -1.3076   -2.2229   -0.0000 C   0  0  0  0  0  0  0  0  0  0  0  0
    1.2719   -2.2229   -0.0000 C   0  0  0  0  0  0  0  0  0  0  0  0
   -1.3314   -3.7088   -0.0000 C   0  0  0  0  0  0  0  0  0  0  0  0
   -2.6152   -1.4621   -0.0000 C   0  0  0  0  0  0  0  0  0  0  0  0
    1.2600   -3.7207   -0.0000 C   0  0  0  0  0  0  0  0  0  0  0  0
   -0.0475   -4.4458   -0.0000 C   0  0  0  0  0  0  0  0  0  0  0  0
   -2.6508   -4.4458   -0.0000 C   0  0  0  0  0  0  0  0  0  0  0  0
   -2.6270    0.0475   -0.0000 N   0  0  0  0  0  0  0  0  0  0  0  0
   -3.9703   -5.1709   -0.0000 F   0  0  0  0  0  0  0  0  0  0  0  0
   -1.9257   -5.7415   -0.0000 F   0  0  0  0  0  0  0  0  0  0  0  0
   -3.3997   -3.1263   -0.0000 F   0  0  0  0  0  0  0  0  0  0  0  0
   -3.9346    0.8083   -0.0000 C   0  0  0  0  0  0  0  0  0  0  0  0
   -1.3314    0.8083   -0.0000 C   0  0  0  0  0  0  0  0  0  0  0  0
   -5.2422    0.0713   -0.0000 O   0  0  0  0  0  0  0  0  0  0  0  0
   -3.9465    2.3180   -0.0000 N   0  0  0  0  0  0  0  0  0  0  0  0
   -1.3432    2.3180   -0.0000 C   0  0  0  0  0  0  0  0  0  0  0  0
   -2.6746    3.0906   -0.0000 C   0  0  0  0  0  0  0  0  0  0  0  0
   -5.2541    3.0788   -0.0000 C   0  0  0  0  0  0  0  0  0  0  0  0
   -0.0594    3.0788   -0.0000 C   0  0  0  0  0  0  0  0  0  0  0  0
   -2.6865    4.6003   -0.0000 O   0  0  0  0  0  0  0  0  0  0  0  0
   -6.5617    2.3418   -0.0000 C   0  0  0  0  0  0  0  0  0  0  0  0
    1.2244    2.3299   -0.0000 C   0  0  0  0  0  0  0  0  0  0  0  0
   -0.0713    4.5884   -0.0000 C   0  0  0  0  0  0  0  0  0  0  0  0
   -6.5736    0.8559   -0.0000 N   0  0  0  0  0  0  0  0  0  0  0  0
   -7.8693    3.1025   -0.0000 C   0  0  0  0  0  0  0  0  0  0  0  0
    2.5082    3.0906   -0.0000 C   0  0  0  0  0  0  0  0  0  0  0  0
    1.2125    5.3492   -0.0000 C   0  0  0  0  0  0  0  0  0  0  0  0
   -9.1887    2.3655   -0.0000 C   0  0  0  0  0  0  0  0  0  0  0  0
   -7.8811    4.6241   -0.0000 C   0  0  0  0  0  0  0  0  0  0  0  0
    2.4963    4.6003   -0.0000 C   0  0  0  0  0  0  0  0  0  0  0  0
  -10.4963    3.1263   -0.0000 C   0  0  0  0  0  0  0  0  0  0  0  0
   -9.1887    5.3849   -0.0000 C   0  0  0  0  0  0  0  0  0  0  0  0
    3.7801    5.3611   -0.0000 C   0  0  0  0  0  0  0  0  0  0  0  0
  -10.5082    4.6360   -0.0000 C   0  0  0  0  0  0  0  0  0  0  0  0
    5.0639    4.6241   -0.0000 O   0  0  0  0  0  0  0  0  0  0  0  0
    5.0520    3.1382   -0.0000 C   0  0  0  0  0  0  0  0  0  0  0  0
    3.7444    2.4012   -0.0000 O   0  0  0  0  0  0  0  0  0  0  0  0
    6.3358    2.4012   -0.0000 C   0  0  0  0  0  0  0  0  0  0  0  0
    7.0728    1.1174   -0.0000 C   0  0  0  0  0  0  0  0  0  0  0  0
    7.8217    2.4131   -0.0000 C   0  0  0  0  0  0  0  0  0  0  0  0
  1  2  1  0  0  0  0
  2  3  2  0  0  0  0
  2  4  1  0  0  0  0
  3  5  1  0  0  0  0
  3  6  1  0  0  0  0
  4  7  2  0  0  0  0
  5  8  2  0  0  0  0
  5  9  1  0  0  0  0
  6 10  1  0  0  0  0
  9 11  1  0  0  0  0
  9 12  1  0  0  0  0
  9 13  1  0  0  0  0
 10 14  1  0  0  0  0
 10 15  1  0  0  0  0
 14 16  2  0  0  0  0
 14 17  1  0  0  0  0
 15 18  2  0  0  0  0
 17 19  1  0  0  0  0
 17 20  1  0  0  0  0
 18 21  1  0  0  0  0
 19 22  2  0  0  0  0
 20 23  1  0  0  0  0
 21 24  2  0  0  0  0
 21 25  1  0  0  0  0
 23 26  1  6  0  0  0
 23 27  1  0  0  0  0
 24 28  1  0  0  0  0
 25 29  2  0  0  0  0
 27 30  2  0  0  0  0
 27 31  1  0  0  0  0
 28 32  2  0  0  0  0
 30 33  1  0  0  0  0
 31 34  2  0  0  0  0
 32 35  1  0  0  0  0
 33 36  2  0  0  0  0
 35 37  1  0  0  0  0
 37 38  1  0  0  0  0
 38 39  2  0  0  0  0
 38 40  1  0  0  0  0
 40 41  1  0  0  0  0
 40 42  1  0  0  0  0
  7  8  1  0  0  0  0
 18 19  1  0  0  0  0
 29 32  1  0  0  0  0
 34 36  1  0  0  0  0
 41 42  1  0  0  0  0
M  END
>  <MolRegNo>
486195

>  <m>
=

>  <Value>
48

>  <Unit>
nM

>  <Type>
IC50

>  <pValue>
7.32

>  <Ligand Efficiency>
0

>  <Binding Efficiency>
0

>  <Surface Efficiency>
0

>  <Assay Index>
401126

>  <Assay Category>


>  <Assay Organism>


>  <Target ID>
17045

>  <Target Name>
Cytochrome P450 3A4

>  <Target Organism>
Homo sapiens

>  <Target Description>
Target is a single protein chain

>  <Sequence Accession>
P08684

>  <Reference>
Bioorg Med Chem Lett 18 (11), 3301-3305 (2008)

>  <Pubmed ID>
18442910

>  <DOI>
10.1016/j.bmcl.2008.04.036

$$$$
486194
Actelion Java MolfileCreator 1.0

 37 40  0  0  0  0  0  0  0  0999 V2000
    0.0000   -0.0000   -0.0000 F   0  0  0  0  0  0  0  0  0  0  0  0
   -0.0119   -1.4840   -0.0000 C   0  0  0  0  0  0  0  0  0  0  0  0
   -1.3059   -2.2201   -0.0000 C   0  0  0  0  0  0  0  0  0  0  0  0
    1.2703   -2.2201   -0.0000 C   0  0  0  0  0  0  0  0  0  0  0  0
   -1.3297   -3.7041   -0.0000 C   0  0  0  0  0  0  0  0  0  0  0  0
   -2.6119   -1.4603   -0.0000 C   0  0  0  0  0  0  0  0  0  0  0  0
    1.2584   -3.7160   -0.0000 C   0  0  0  0  0  0  0  0  0  0  0  0
   -0.0475   -4.4402   -0.0000 C   0  0  0  0  0  0  0  0  0  0  0  0
   -2.6475   -4.4402   -0.0000 C   0  0  0  0  0  0  0  0  0  0  0  0
   -2.6237    0.0475   -0.0000 N   0  0  0  0  0  0  0  0  0  0  0  0
   -3.9653   -5.1644   -0.0000 F   0  0  0  0  0  0  0  0  0  0  0  0
   -1.9233   -5.7342   -0.0000 F   0  0  0  0  0  0  0  0  0  0  0  0
   -3.3954   -3.1224   -0.0000 F   0  0  0  0  0  0  0  0  0  0  0  0
   -3.9297    0.8073   -0.0000 C   0  0  0  0  0  0  0  0  0  0  0  0
   -1.3297    0.8073   -0.0000 C   0  0  0  0  0  0  0  0  0  0  0  0
   -5.2356    0.0712   -0.0000 O   0  0  0  0  0  0  0  0  0  0  0  0
   -3.9415    2.3151   -0.0000 N   0  0  0  0  0  0  0  0  0  0  0  0
   -1.3415    2.3151   -0.0000 C   0  0  0  0  0  0  0  0  0  0  0  0
   -2.6593    3.0867   -0.0000 C   0  0  0  0  0  0  0  0  0  0  0  0
   -5.2475    3.0749   -0.0000 C   0  0  0  0  0  0  0  0  0  0  0  0
   -0.0594    3.0749   -0.0000 C   0  0  0  0  0  0  0  0  0  0  0  0
   -2.6712    4.5945   -0.0000 O   0  0  0  0  0  0  0  0  0  0  0  0
   -6.5534    2.3388   -0.0000 C   0  0  0  0  0  0  0  0  0  0  0  0
    1.2228    2.3269   -0.0000 C   0  0  0  0  0  0  0  0  0  0  0  0
   -0.0712    4.5826   -0.0000 C   0  0  0  0  0  0  0  0  0  0  0  0
   -6.5653    0.8548   -0.0000 N   0  0  0  0  0  0  0  0  0  0  0  0
   -7.8593    3.0986   -0.0000 C   0  0  0  0  0  0  0  0  0  0  0  0
    2.5050    3.0867   -0.0000 C   0  0  0  0  0  0  0  0  0  0  0  0
    1.2110    5.3424   -0.0000 C   0  0  0  0  0  0  0  0  0  0  0  0
   -9.1771    2.3625   -0.0000 C   0  0  0  0  0  0  0  0  0  0  0  0
   -7.8712    4.6182   -0.0000 C   0  0  0  0  0  0  0  0  0  0  0  0
    2.4931    4.5945   -0.0000 C   0  0  0  0  0  0  0  0  0  0  0  0
  -10.4830    3.1224   -0.0000 C   0  0  0  0  0  0  0  0  0  0  0  0
   -9.1771    5.3780   -0.0000 C   0  0  0  0  0  0  0  0  0  0  0  0
    3.7753    5.3543   -0.0000 C   0  0  0  0  0  0  0  0  0  0  0  0
  -10.4949    4.6420   -0.0000 C   0  0  0  0  0  0  0  0  0  0  0  0
    5.0575    4.6182   -0.0000 N   0  0  0  0  0  0  0  0  0  0  0  0
  1  2  1  0  0  0  0
  2  3  2  0  0  0  0
  2  4  1  0  0  0  0
  3  5  1  0  0  0  0
  3  6  1  0  0  0  0
  4  7  2  0  0  0  0
  5  8  2  0  0  0  0
  5  9  1  0  0  0  0
  6 10  1  0  0  0  0
  9 11  1  0  0  0  0
  9 12  1  0  0  0  0
  9 13  1  0  0  0  0
 10 14  1  0  0  0  0
 10 15  1  0  0  0  0
 14 16  2  0  0  0  0
 14 17  1  0  0  0  0
 15 18  2  0  0  0  0
 17 19  1  0  0  0  0
 17 20  1  0  0  0  0
 18 21  1  0  0  0  0
 19 22  2  0  0  0  0
 20 23  1  0  0  0  0
 21 24  2  0  0  0  0
 21 25  1  0  0  0  0
 23 26  1  6  0  0  0
 23 27  1  0  0  0  0
 24 28  1  0  0  0  0
 25 29  2  0  0  0  0
 27 30  2  0  0  0  0
 27 31  1  0  0  0  0
 28 32  2  0  0  0  0
 30 33  1  0  0  0  0
 31 34  2  0  0  0  0
 32 35  1  0  0  0  0
 33 36  2  0  0  0  0
 35 37  1  0  0  0  0
  7  8  1  0  0  0  0
 18 19  1  0  0  0  0
 29 32  1  0  0  0  0
 34 36  1  0  0  0  0
M  END
>  <MolRegNo>
486194

>  <m>
=

>  <Value>
9100

>  <Unit>
nM

>  <Type>
IC50

>  <pValue>
5.04

>  <Ligand Efficiency>
0

>  <Binding Efficiency>
0

>  <Surface Efficiency>
0

>  <Assay Index>
401126

>  <Assay Category>


>  <Assay Organism>


>  <Target ID>
17045

>  <Target Name>
Cytochrome P450 3A4

>  <Target Organism>
Homo sapiens

>  <Target Description>
Target is a single protein chain

>  <Sequence Accession>
P08684

>  <Reference>
Bioorg Med Chem Lett 18 (11), 3301-3305 (2008)

>  <Pubmed ID>
18442910

>  <DOI>
10.1016/j.bmcl.2008.04.036

$$$$
486193
Actelion Java MolfileCreator 1.0

 37 40  0  0  0  0  0  0  0  0999 V2000
    0.0000   -0.0000   -0.0000 F   0  0  0  0  0  0  0  0  0  0  0  0
   -0.0119   -1.4840   -0.0000 C   0  0  0  0  0  0  0  0  0  0  0  0
   -1.3059   -2.2201   -0.0000 C   0  0  0  0  0  0  0  0  0  0  0  0
    1.2703   -2.2201   -0.0000 C   0  0  0  0  0  0  0  0  0  0  0  0
   -1.3297   -3.7041   -0.0000 C   0  0  0  0  0  0  0  0  0  0  0  0
   -2.6119   -1.4603   -0.0000 C   0  0  0  0  0  0  0  0  0  0  0  0
    1.2584   -3.7160   -0.0000 C   0  0  0  0  0  0  0  0  0  0  0  0
   -0.0475   -4.4402   -0.0000 C   0  0  0  0  0  0  0  0  0  0  0  0
   -2.6475   -4.4402   -0.0000 C   0  0  0  0  0  0  0  0  0  0  0  0
   -2.6237    0.0475   -0.0000 N   0  0  0  0  0  0  0  0  0  0  0  0
   -3.9653   -5.1644   -0.0000 F   0  0  0  0  0  0  0  0  0  0  0  0
   -1.9233   -5.7342   -0.0000 F   0  0  0  0  0  0  0  0  0  0  0  0
   -3.3954   -3.1224   -0.0000 F   0  0  0  0  0  0  0  0  0  0  0  0
   -3.9297    0.8073   -0.0000 C   0  0  0  0  0  0  0  0  0  0  0  0
   -1.3297    0.8073   -0.0000 C   0  0  0  0  0  0  0  0  0  0  0  0
   -5.2356    0.0712   -0.0000 O   0  0  0  0  0  0  0  0  0  0  0  0
   -3.9415    2.3151   -0.0000 N   0  0  0  0  0  0  0  0  0  0  0  0
   -1.3415    2.3151   -0.0000 C   0  0  0  0  0  0  0  0  0  0  0  0
   -2.6593    3.0867   -0.0000 C   0  0  0  0  0  0  0  0  0  0  0  0
   -5.2475    3.0749   -0.0000 C   0  0  0  0  0  0  0  0  0  0  0  0
   -0.0594    3.0749   -0.0000 C   0  0  0  0  0  0  0  0  0  0  0  0
   -2.6712    4.5945   -0.0000 O   0  0  0  0  0  0  0  0  0  0  0  0
   -6.5534    2.3388   -0.0000 C   0  0  0  0  0  0  0  0  0  0  0  0
    1.2228    2.3269   -0.0000 C   0  0  0  0  0  0  0  0  0  0  0  0
   -0.0712    4.5826   -0.0000 C   0  0  0  0  0  0  0  0  0  0  0  0
   -6.5653    0.8548   -0.0000 N   0  0  0  0  0  0  0  0  0  0  0  0
   -7.8593    3.0986   -0.0000 C   0  0  0  0  0  0  0  0  0  0  0  0
    2.5050    3.0867   -0.0000 C   0  0  0  0  0  0  0  0  0  0  0  0
    1.2110    5.3424   -0.0000 C   0  0  0  0  0  0  0  0  0  0  0  0
   -9.1771    2.3625   -0.0000 C   0  0  0  0  0  0  0  0  0  0  0  0
   -7.8712    4.6182   -0.0000 C   0  0  0  0  0  0  0  0  0  0  0  0
    2.4931    4.5945   -0.0000 C   0  0  0  0  0  0  0  0  0  0  0  0
  -10.4830    3.1224   -0.0000 C   0  0  0  0  0  0  0  0  0  0  0  0
   -9.1771    5.3780   -0.0000 C   0  0  0  0  0  0  0  0  0  0  0  0
    3.7753    5.3543   -0.0000 C   0  0  0  0  0  0  0  0  0  0  0  0
  -10.4949    4.6420   -0.0000 C   0  0  0  0  0  0  0  0  0  0  0  0
    5.0575    4.6182   -0.0000 O   0  0  0  0  0  0  0  0  0  0  0  0
  1  2  1  0  0  0  0
  2  3  2  0  0  0  0
  2  4  1  0  0  0  0
  3  5  1  0  0  0  0
  3  6  1  0  0  0  0
  4  7  2  0  0  0  0
  5  8  2  0  0  0  0
  5  9  1  0  0  0  0
  6 10  1  0  0  0  0
  9 11  1  0  0  0  0
  9 12  1  0  0  0  0
  9 13  1  0  0  0  0
 10 14  1  0  0  0  0
 10 15  1  0  0  0  0
 14 16  2  0  0  0  0
 14 17  1  0  0  0  0
 15 18  2  0  0  0  0
 17 19  1  0  0  0  0
 17 20  1  0  0  0  0
 18 21  1  0  0  0  0
 19 22  2  0  0  0  0
 20 23  1  0  0  0  0
 21 24  2  0  0  0  0
 21 25  1  0  0  0  0
 23 26  1  6  0  0  0
 23 27  1  0  0  0  0
 24 28  1  0  0  0  0
 25 29  2  0  0  0  0
 27 30  2  0  0  0  0
 27 31  1  0  0  0  0
 28 32  2  0  0  0  0
 30 33  1  0  0  0  0
 31 34  2  0  0  0  0
 32 35  1  0  0  0  0
 33 36  2  0  0  0  0
 35 37  1  0  0  0  0
  7  8  1  0  0  0  0
 18 19  1  0  0  0  0
 29 32  1  0  0  0  0
 34 36  1  0  0  0  0
M  END
>  <MolRegNo>
486193

>  <m>
=

>  <Value>
800

>  <Unit>
nM

>  <Type>
IC50

>  <pValue>
6.1

>  <Ligand Efficiency>
0

>  <Binding Efficiency>
0

>  <Surface Efficiency>
0

>  <Assay Index>
401126

>  <Assay Category>


>  <Assay Organism>


>  <Target ID>
17045

>  <Target Name>
Cytochrome P450 3A4

>  <Target Organism>
Homo sapiens

>  <Target Description>
Target is a single protein chain

>  <Sequence Accession>
P08684

>  <Reference>
Bioorg Med Chem Lett 18 (11), 3301-3305 (2008)

>  <Pubmed ID>
18442910

>  <DOI>
10.1016/j.bmcl.2008.04.036

$$$$
321133
Actelion Java MolfileCreator 1.0

 35 38  0  0  0  0  0  0  0  0999 V2000
    0.0000   -0.0000   -0.0000 F   0  0  0  0  0  0  0  0  0  0  0  0
   -0.0119   -1.4832   -0.0000 C   0  0  0  0  0  0  0  0  0  0  0  0
   -1.3052   -2.2189   -0.0000 C   0  0  0  0  0  0  0  0  0  0  0  0
    1.2696   -2.2189   -0.0000 C   0  0  0  0  0  0  0  0  0  0  0  0
   -1.3289   -3.7021   -0.0000 C   0  0  0  0  0  0  0  0  0  0  0  0
   -2.6104   -1.4595   -0.0000 C   0  0  0  0  0  0  0  0  0  0  0  0
    1.2578   -3.7139   -0.0000 C   0  0  0  0  0  0  0  0  0  0  0  0
   -0.0475   -4.4377   -0.0000 C   0  0  0  0  0  0  0  0  0  0  0  0
   -2.6460   -4.4377   -0.0000 C   0  0  0  0  0  0  0  0  0  0  0  0
   -2.6223    0.0475   -0.0000 N   0  0  0  0  0  0  0  0  0  0  0  0
   -3.9631   -5.1615   -0.0000 F   0  0  0  0  0  0  0  0  0  0  0  0
   -1.9222   -5.7311   -0.0000 F   0  0  0  0  0  0  0  0  0  0  0  0
   -3.3936   -3.1206   -0.0000 F   0  0  0  0  0  0  0  0  0  0  0  0
   -3.9275    0.8069   -0.0000 C   0  0  0  0  0  0  0  0  0  0  0  0
   -1.3289    0.8069   -0.0000 C   0  0  0  0  0  0  0  0  0  0  0  0
   -5.2327    0.0712   -0.0000 O   0  0  0  0  0  0  0  0  0  0  0  0
   -3.9394    2.3138   -0.0000 N   0  0  0  0  0  0  0  0  0  0  0  0
   -1.3408    2.3138   -0.0000 C   0  0  0  0  0  0  0  0  0  0  0  0
   -2.6579    3.0851   -0.0000 C   0  0  0  0  0  0  0  0  0  0  0  0
   -5.2446    3.0732   -0.0000 C   0  0  0  0  0  0  0  0  0  0  0  0
   -0.0593    3.0732   -0.0000 C   0  0  0  0  0  0  0  0  0  0  0  0
   -2.6698    4.5920   -0.0000 O   0  0  0  0  0  0  0  0  0  0  0  0
   -6.5498    2.3375   -0.0000 C   0  0  0  0  0  0  0  0  0  0  0  0
    1.2222    2.3257   -0.0000 C   0  0  0  0  0  0  0  0  0  0  0  0
   -0.0712    4.5801   -0.0000 C   0  0  0  0  0  0  0  0  0  0  0  0
   -6.5617    0.8543   -0.0000 N   0  0  0  0  0  0  0  0  0  0  0  0
   -7.8550    3.0969   -0.0000 C   0  0  0  0  0  0  0  0  0  0  0  0
    2.5036    3.0851   -0.0000 C   0  0  0  0  0  0  0  0  0  0  0  0
    1.2103    5.3395   -0.0000 C   0  0  0  0  0  0  0  0  0  0  0  0
   -9.1721    2.3613   -0.0000 C   0  0  0  0  0  0  0  0  0  0  0  0
   -7.8669    4.6157   -0.0000 C   0  0  0  0  0  0  0  0  0  0  0  0
    2.4918    4.5920   -0.0000 C   0  0  0  0  0  0  0  0  0  0  0  0
  -10.4773    3.1206   -0.0000 C   0  0  0  0  0  0  0  0  0  0  0  0
   -9.1721    5.3751   -0.0000 C   0  0  0  0  0  0  0  0  0  0  0  0
  -10.4892    4.6394   -0.0000 C   0  0  0  0  0  0  0  0  0  0  0  0
  1  2  1  0  0  0  0
  2  3  2  0  0  0  0
  2  4  1  0  0  0  0
  3  5  1  0  0  0  0
  3  6  1  0  0  0  0
  4  7  2  0  0  0  0
  5  8  2  0  0  0  0
  5  9  1  0  0  0  0
  6 10  1  0  0  0  0
  9 11  1  0  0  0  0
  9 12  1  0  0  0  0
  9 13  1  0  0  0  0
 10 14  1  0  0  0  0
 10 15  1  0  0  0  0
 14 16  2  0  0  0  0
 14 17  1  0  0  0  0
 15 18  2  0  0  0  0
 17 19  1  0  0  0  0
 17 20  1  0  0  0  0
 18 21  1  0  0  0  0
 19 22  2  0  0  0  0
 20 23  1  0  0  0  0
 21 24  2  0  0  0  0
 21 25  1  0  0  0  0
 23 26  1  6  0  0  0
 23 27  1  0  0  0  0
 24 28  1  0  0  0  0
 25 29  2  0  0  0  0
 27 30  2  0  0  0  0
 27 31  1  0  0  0  0
 28 32  2  0  0  0  0
 30 33  1  0  0  0  0
 31 34  2  0  0  0  0
 33 35  2  0  0  0  0
  7  8  1  0  0  0  0
 18 19  1  0  0  0  0
 29 32  1  0  0  0  0
 34 35  1  0  0  0  0
M  END
>  <MolRegNo>
321133

>  <m>
=

>  <Value>
300

>  <Unit>
nM

>  <Type>
IC50

>  <pValue>
6.52

>  <Ligand Efficiency>
0

>  <Binding Efficiency>
0

>  <Surface Efficiency>
0

>  <Assay Index>
401126

>  <Assay Category>


>  <Assay Organism>


>  <Target ID>
17045

>  <Target Name>
Cytochrome P450 3A4

>  <Target Organism>
Homo sapiens

>  <Target Description>
Target is a single protein chain

>  <Sequence Accession>
P08684

>  <Reference>
Bioorg Med Chem Lett 18 (11), 3301-3305 (2008)

>  <Pubmed ID>
18442910

>  <DOI>
10.1016/j.bmcl.2008.04.036

$$$$
321553
Actelion Java MolfileCreator 1.0

 36 39  0  0  0  0  0  0  0  0999 V2000
    0.0000   -0.0000   -0.0000 Cl  0  0  0  0  0  0  0  0  0  0  0  0
    1.2846   -0.7374   -0.0000 C   0  0  0  0  0  0  0  0  0  0  0  0
    1.2727   -2.2242   -0.0000 C   0  0  0  0  0  0  0  0  0  0  0  0
    2.5692    0.0238   -0.0000 C   0  0  0  0  0  0  0  0  0  0  0  0
   -0.0357   -2.9617   -0.0000 C   0  0  0  0  0  0  0  0  0  0  0  0
    2.5573   -2.9736   -0.0000 C   0  0  0  0  0  0  0  0  0  0  0  0
    3.8656   -0.7137   -0.0000 C   0  0  0  0  0  0  0  0  0  0  0  0
   -1.3441   -2.1885   -0.0000 C   0  0  0  0  0  0  0  0  0  0  0  0
   -0.0476   -4.4485   -0.0000 C   0  0  0  0  0  0  0  0  0  0  0  0
    3.8418   -2.2123   -0.0000 C   0  0  0  0  0  0  0  0  0  0  0  0
   -1.3559   -0.6780   -0.0000 O   0  0  0  0  0  0  0  0  0  0  0  0
   -2.6524   -2.9379   -0.0000 N   0  0  0  0  0  0  0  0  0  0  0  0
   -1.3678   -5.1859   -0.0000 N   0  0  0  0  0  0  0  0  0  0  0  0
   -2.6643   -4.4247   -0.0000 C   0  0  0  0  0  0  0  0  0  0  0  0
   -3.9608   -2.1766   -0.0000 C   0  0  0  0  0  0  0  0  0  0  0  0
   -1.3797   -6.6727   -0.0000 C   0  0  0  0  0  0  0  0  0  0  0  0
   -3.9727   -5.1621   -0.0000 O   0  0  0  0  0  0  0  0  0  0  0  0
   -5.2692   -2.9141   -0.0000 C   0  0  0  0  0  0  0  0  0  0  0  0
   -0.0952   -7.4101   -0.0000 C   0  0  0  0  0  0  0  0  0  0  0  0
   -5.2810   -4.4009   -0.0000 N   0  0  0  0  0  0  0  0  0  0  0  0
   -6.5775   -2.1529   -0.0000 C   0  0  0  0  0  0  0  0  0  0  0  0
   -0.1189   -8.8969   -0.0000 C   0  0  0  0  0  0  0  0  0  0  0  0
    1.1775   -6.6489   -0.0000 C   0  0  0  0  0  0  0  0  0  0  0  0
   -7.8978   -2.8903   -0.0000 C   0  0  0  0  0  0  0  0  0  0  0  0
   -6.5894   -0.6304   -0.0000 C   0  0  0  0  0  0  0  0  0  0  0  0
   -1.4392   -9.6343   -0.0000 S   0  0  0  0  0  0  0  0  0  0  0  0
    1.1656   -9.6343   -0.0000 C   0  0  0  0  0  0  0  0  0  0  0  0
    1.1656   -5.1383   -0.0000 F   0  0  0  0  0  0  0  0  0  0  0  0
    2.4621   -7.3863   -0.0000 C   0  0  0  0  0  0  0  0  0  0  0  0
   -9.2062   -2.1291   -0.0000 C   0  0  0  0  0  0  0  0  0  0  0  0
   -7.8978    0.1308   -0.0000 C   0  0  0  0  0  0  0  0  0  0  0  0
   -0.7137  -10.9308   -0.0000 O   0  0  0  0  0  0  0  0  0  0  0  0
   -2.1885   -8.3141   -0.0000 O   0  0  0  0  0  0  0  0  0  0  0  0
   -2.7595  -10.3599   -0.0000 C   0  0  0  0  0  0  0  0  0  0  0  0
    2.4621   -8.8731   -0.0000 C   0  0  0  0  0  0  0  0  0  0  0  0
   -9.2180   -0.6066   -0.0000 C   0  0  0  0  0  0  0  0  0  0  0  0
  1  2  1  0  0  0  0
  2  3  2  0  0  0  0
  2  4  1  0  0  0  0
  3  5  1  0  0  0  0
  3  6  1  0  0  0  0
  4  7  2  0  0  0  0
  5  8  1  0  0  0  0
  5  9  2  0  0  0  0
  6 10  2  0  0  0  0
  8 11  2  0  0  0  0
  8 12  1  0  0  0  0
  9 13  1  0  0  0  0
 12 14  1  0  0  0  0
 12 15  1  0  0  0  0
 13 16  1  0  0  0  0
 14 17  2  0  0  0  0
 15 18  1  0  0  0  0
 16 19  1  0  0  0  0
 18 20  1  6  0  0  0
 18 21  1  0  0  0  0
 19 22  2  0  0  0  0
 19 23  1  0  0  0  0
 21 24  2  0  0  0  0
 21 25  1  0  0  0  0
 22 26  1  0  0  0  0
 22 27  1  0  0  0  0
 23 28  1  0  0  0  0
 23 29  2  0  0  0  0
 24 30  1  0  0  0  0
 25 31  2  0  0  0  0
 26 32  2  0  0  0  0
 26 33  2  0  0  0  0
 26 34  1  0  0  0  0
 27 35  2  0  0  0  0
 30 36  2  0  0  0  0
  7 10  1  0  0  0  0
 13 14  1  0  0  0  0
 29 35  1  0  0  0  0
 31 36  1  0  0  0  0
M  END
>  <MolRegNo>
321553

>  <m>
=

>  <Value>
180

>  <Unit>
nM

>  <Type>
IC50

>  <pValue>
6.75

>  <Ligand Efficiency>
0

>  <Binding Efficiency>
0

>  <Surface Efficiency>
0

>  <Assay Index>
401126

>  <Assay Category>


>  <Assay Organism>


>  <Target ID>
17045

>  <Target Name>
Cytochrome P450 3A4

>  <Target Organism>
Homo sapiens

>  <Target Description>
Target is a single protein chain

>  <Sequence Accession>
P08684

>  <Reference>
Bioorg Med Chem Lett 18 (11), 3301-3305 (2008)

>  <Pubmed ID>
18442910

>  <DOI>
10.1016/j.bmcl.2008.04.036

$$$$
321435
Actelion Java MolfileCreator 1.0

 33 36  0  0  0  0  0  0  0  0999 V2000
    0.0000   -0.0000   -0.0000 Cl  0  0  0  0  0  0  0  0  0  0  0  0
    1.2848   -0.7376   -0.0000 C   0  0  0  0  0  0  0  0  0  0  0  0
    1.2729   -2.2246   -0.0000 C   0  0  0  0  0  0  0  0  0  0  0  0
    2.5696    0.0238   -0.0000 C   0  0  0  0  0  0  0  0  0  0  0  0
   -0.0357   -2.9622   -0.0000 C   0  0  0  0  0  0  0  0  0  0  0  0
    2.5578   -2.9741   -0.0000 C   0  0  0  0  0  0  0  0  0  0  0  0
    3.8664   -0.7138   -0.0000 C   0  0  0  0  0  0  0  0  0  0  0  0
   -1.3443   -2.1890   -0.0000 C   0  0  0  0  0  0  0  0  0  0  0  0
   -0.0476   -4.4493   -0.0000 C   0  0  0  0  0  0  0  0  0  0  0  0
    3.8426   -2.2128   -0.0000 C   0  0  0  0  0  0  0  0  0  0  0  0
   -1.3562   -0.6781   -0.0000 O   0  0  0  0  0  0  0  0  0  0  0  0
   -2.6529   -2.9384   -0.0000 N   0  0  0  0  0  0  0  0  0  0  0  0
   -1.3681   -5.1869   -0.0000 N   0  0  0  0  0  0  0  0  0  0  0  0
   -2.6648   -4.4255   -0.0000 C   0  0  0  0  0  0  0  0  0  0  0  0
   -3.9615   -2.1771   -0.0000 C   0  0  0  0  0  0  0  0  0  0  0  0
   -1.3800   -6.6739   -0.0000 C   0  0  0  0  0  0  0  0  0  0  0  0
   -3.9734   -5.1631   -0.0000 O   0  0  0  0  0  0  0  0  0  0  0  0
   -5.2702   -2.9146   -0.0000 C   0  0  0  0  0  0  0  0  0  0  0  0
   -0.0952   -7.4115   -0.0000 C   0  0  0  0  0  0  0  0  0  0  0  0
   -5.2821   -4.4017   -0.0000 N   0  0  0  0  0  0  0  0  0  0  0  0
   -6.5788   -2.1533   -0.0000 C   0  0  0  0  0  0  0  0  0  0  0  0
   -0.1190   -8.8986   -0.0000 C   0  0  0  0  0  0  0  0  0  0  0  0
    1.1778   -6.6502   -0.0000 C   0  0  0  0  0  0  0  0  0  0  0  0
   -7.8993   -2.8909   -0.0000 C   0  0  0  0  0  0  0  0  0  0  0  0
   -6.5907   -0.6305   -0.0000 C   0  0  0  0  0  0  0  0  0  0  0  0
   -1.4395   -9.6362   -0.0000 F   0  0  0  0  0  0  0  0  0  0  0  0
    1.1659   -9.6362   -0.0000 C   0  0  0  0  0  0  0  0  0  0  0  0
    1.1659   -5.1393   -0.0000 F   0  0  0  0  0  0  0  0  0  0  0  0
    2.4626   -7.3877   -0.0000 C   0  0  0  0  0  0  0  0  0  0  0  0
   -9.2079   -2.1295   -0.0000 C   0  0  0  0  0  0  0  0  0  0  0  0
   -7.8993    0.1309   -0.0000 C   0  0  0  0  0  0  0  0  0  0  0  0
    2.4626   -8.8748   -0.0000 C   0  0  0  0  0  0  0  0  0  0  0  0
   -9.2198   -0.6067   -0.0000 C   0  0  0  0  0  0  0  0  0  0  0  0
  1  2  1  0  0  0  0
  2  3  2  0  0  0  0
  2  4  1  0  0  0  0
  3  5  1  0  0  0  0
  3  6  1  0  0  0  0
  4  7  2  0  0  0  0
  5  8  1  0  0  0  0
  5  9  2  0  0  0  0
  6 10  2  0  0  0  0
  8 11  2  0  0  0  0
  8 12  1  0  0  0  0
  9 13  1  0  0  0  0
 12 14  1  0  0  0  0
 12 15  1  0  0  0  0
 13 16  1  0  0  0  0
 14 17  2  0  0  0  0
 15 18  1  0  0  0  0
 16 19  1  0  0  0  0
 18 20  1  6  0  0  0
 18 21  1  0  0  0  0
 19 22  2  0  0  0  0
 19 23  1  0  0  0  0
 21 24  2  0  0  0  0
 21 25  1  0  0  0  0
 22 26  1  0  0  0  0
 22 27  1  0  0  0  0
 23 28  1  0  0  0  0
 23 29  2  0  0  0  0
 24 30  1  0  0  0  0
 25 31  2  0  0  0  0
 27 32  2  0  0  0  0
 30 33  2  0  0  0  0
  7 10  1  0  0  0  0
 13 14  1  0  0  0  0
 29 32  1  0  0  0  0
 31 33  1  0  0  0  0
M  END
>  <MolRegNo>
321435

>  <m>
=

>  <Value>
440

>  <Unit>
nM

>  <Type>
IC50

>  <pValue>
6.36

>  <Ligand Efficiency>
0

>  <Binding Efficiency>
0

>  <Surface Efficiency>
0

>  <Assay Index>
401126

>  <Assay Category>


>  <Assay Organism>


>  <Target ID>
17045

>  <Target Name>
Cytochrome P450 3A4

>  <Target Organism>
Homo sapiens

>  <Target Description>
Target is a single protein chain

>  <Sequence Accession>
P08684

>  <Reference>
Bioorg Med Chem Lett 18 (11), 3301-3305 (2008)

>  <Pubmed ID>
18442910

>  <DOI>
10.1016/j.bmcl.2008.04.036

$$$$
321415
Actelion Java MolfileCreator 1.0

 36 39  0  0  0  0  0  0  0  0999 V2000
    0.0000   -0.0000   -0.0000 Cl  0  0  0  0  0  0  0  0  0  0  0  0
    1.2847   -0.7375   -0.0000 C   0  0  0  0  0  0  0  0  0  0  0  0
    1.2728   -2.2244   -0.0000 C   0  0  0  0  0  0  0  0  0  0  0  0
    2.5693    0.0238   -0.0000 C   0  0  0  0  0  0  0  0  0  0  0  0
   -0.0357   -2.9619   -0.0000 C   0  0  0  0  0  0  0  0  0  0  0  0
    2.5575   -2.9738   -0.0000 C   0  0  0  0  0  0  0  0  0  0  0  0
    3.8659   -0.7137   -0.0000 C   0  0  0  0  0  0  0  0  0  0  0  0
   -1.3442   -2.1887   -0.0000 C   0  0  0  0  0  0  0  0  0  0  0  0
   -0.0476   -4.4488   -0.0000 C   0  0  0  0  0  0  0  0  0  0  0  0
    3.8421   -2.2125   -0.0000 C   0  0  0  0  0  0  0  0  0  0  0  0
   -1.3560   -0.6780   -0.0000 O   0  0  0  0  0  0  0  0  0  0  0  0
   -2.6526   -2.9381   -0.0000 N   0  0  0  0  0  0  0  0  0  0  0  0
   -1.3679   -5.1863   -0.0000 N   0  0  0  0  0  0  0  0  0  0  0  0
   -2.6645   -4.4250   -0.0000 C   0  0  0  0  0  0  0  0  0  0  0  0
   -3.9611   -2.1768   -0.0000 C   0  0  0  0  0  0  0  0  0  0  0  0
   -1.3798   -6.6732   -0.0000 C   0  0  0  0  0  0  0  0  0  0  0  0
   -3.9730   -5.1625   -0.0000 O   0  0  0  0  0  0  0  0  0  0  0  0
   -5.2695   -2.9143   -0.0000 C   0  0  0  0  0  0  0  0  0  0  0  0
   -0.0952   -7.4107   -0.0000 C   0  0  0  0  0  0  0  0  0  0  0  0
   -5.2814   -4.4012   -0.0000 N   0  0  0  0  0  0  0  0  0  0  0  0
   -6.5780   -2.1530   -0.0000 C   0  0  0  0  0  0  0  0  0  0  0  0
    1.1776   -6.6494   -0.0000 C   0  0  0  0  0  0  0  0  0  0  0  0
   -0.1190   -8.8976   -0.0000 C   0  0  0  0  0  0  0  0  0  0  0  0
   -7.8984   -2.8905   -0.0000 C   0  0  0  0  0  0  0  0  0  0  0  0
   -6.5899   -0.6304   -0.0000 C   0  0  0  0  0  0  0  0  0  0  0  0
    1.1657   -5.1387   -0.0000 F   0  0  0  0  0  0  0  0  0  0  0  0
    2.4623   -7.3869   -0.0000 C   0  0  0  0  0  0  0  0  0  0  0  0
    1.1657   -9.6351   -0.0000 C   0  0  0  0  0  0  0  0  0  0  0  0
   -1.4393   -9.6351   -0.0000 C   0  0  0  0  0  0  0  0  0  0  0  0
   -9.2068   -2.1292   -0.0000 C   0  0  0  0  0  0  0  0  0  0  0  0
   -7.8984    0.1308   -0.0000 C   0  0  0  0  0  0  0  0  0  0  0  0
    2.4504   -8.8857   -0.0000 C   0  0  0  0  0  0  0  0  0  0  0  0
   -2.7597  -10.3607   -0.0000 F   0  0  0  0  0  0  0  0  0  0  0  0
   -0.7137  -10.9316   -0.0000 F   0  0  0  0  0  0  0  0  0  0  0  0
   -2.1887   -8.3147   -0.0000 F   0  0  0  0  0  0  0  0  0  0  0  0
   -9.2187   -0.6067   -0.0000 C   0  0  0  0  0  0  0  0  0  0  0  0
  1  2  1  0  0  0  0
  2  3  2  0  0  0  0
  2  4  1  0  0  0  0
  3  5  1  0  0  0  0
  3  6  1  0  0  0  0
  4  7  2  0  0  0  0
  5  8  1  0  0  0  0
  5  9  2  0  0  0  0
  6 10  2  0  0  0  0
  8 11  2  0  0  0  0
  8 12  1  0  0  0  0
  9 13  1  0  0  0  0
 12 14  1  0  0  0  0
 12 15  1  0  0  0  0
 13 16  1  0  0  0  0
 14 17  2  0  0  0  0
 15 18  1  0  0  0  0
 16 19  1  0  0  0  0
 18 20  1  6  0  0  0
 18 21  1  0  0  0  0
 19 22  2  0  0  0  0
 19 23  1  0  0  0  0
 21 24  2  0  0  0  0
 21 25  1  0  0  0  0
 22 26  1  0  0  0  0
 22 27  1  0  0  0  0
 23 28  2  0  0  0  0
 23 29  1  0  0  0  0
 24 30  1  0  0  0  0
 25 31  2  0  0  0  0
 27 32  2  0  0  0  0
 29 33  1  0  0  0  0
 29 34  1  0  0  0  0
 29 35  1  0  0  0  0
 30 36  2  0  0  0  0
  7 10  1  0  0  0  0
 13 14  1  0  0  0  0
 28 32  1  0  0  0  0
 31 36  1  0  0  0  0
M  END
>  <MolRegNo>
321415

>  <m>
=

>  <Value>
160

>  <Unit>
nM

>  <Type>
IC50

>  <pValue>
6.8

>  <Ligand Efficiency>
0

>  <Binding Efficiency>
0

>  <Surface Efficiency>
0

>  <Assay Index>
401126

>  <Assay Category>


>  <Assay Organism>


>  <Target ID>
17045

>  <Target Name>
Cytochrome P450 3A4

>  <Target Organism>
Homo sapiens

>  <Target Description>
Target is a single protein chain

>  <Sequence Accession>
P08684

>  <Reference>
Bioorg Med Chem Lett 18 (11), 3301-3305 (2008)

>  <Pubmed ID>
18442910

>  <DOI>
10.1016/j.bmcl.2008.04.036

$$$$
321490
Actelion Java MolfileCreator 1.0

 38 41  0  0  0  0  0  0  0  0999 V2000
    0.0000   -0.0000   -0.0000 S   0  0  0  0  0  0  0  0  0  0  0  0
    0.7230   -1.2918   -0.0000 O   0  0  0  0  0  0  0  0  0  0  0  0
   -0.7467    1.3155   -0.0000 O   0  0  0  0  0  0  0  0  0  0  0  0
    1.2918    0.7585   -0.0000 C   0  0  0  0  0  0  0  0  0  0  0  0
   -1.3155   -0.7230   -0.0000 C   0  0  0  0  0  0  0  0  0  0  0  0
    1.2918    2.2637   -0.0000 C   0  0  0  0  0  0  0  0  0  0  0  0
    2.5718    0.0237   -0.0000 C   0  0  0  0  0  0  0  0  0  0  0  0
    2.5600    3.0222   -0.0000 C   0  0  0  0  0  0  0  0  0  0  0  0
   -0.0119    3.0222   -0.0000 C   0  0  0  0  0  0  0  0  0  0  0  0
    3.8637    0.7822   -0.0000 C   0  0  0  0  0  0  0  0  0  0  0  0
    2.5481    4.5273   -0.0000 F   0  0  0  0  0  0  0  0  0  0  0  0
    3.8399    2.2874   -0.0000 C   0  0  0  0  0  0  0  0  0  0  0  0
   -0.0237    4.5273   -0.0000 N   0  0  0  0  0  0  0  0  0  0  0  0
   -1.3274    5.2859   -0.0000 C   0  0  0  0  0  0  0  0  0  0  0  0
    1.2681    5.2859   -0.0000 C   0  0  0  0  0  0  0  0  0  0  0  0
   -2.6311    4.5511   -0.0000 O   0  0  0  0  0  0  0  0  0  0  0  0
   -1.3392    6.7910   -0.0000 N   0  0  0  0  0  0  0  0  0  0  0  0
    1.2563    6.7910   -0.0000 C   0  0  0  0  0  0  0  0  0  0  0  0
   -0.0593    7.5614   -0.0000 C   0  0  0  0  0  0  0  0  0  0  0  0
   -2.6429    7.5495   -0.0000 C   0  0  0  0  0  0  0  0  0  0  0  0
    2.5363    7.5495   -0.0000 C   0  0  0  0  0  0  0  0  0  0  0  0
   -0.0711    9.0665   -0.0000 O   0  0  0  0  0  0  0  0  0  0  0  0
   -3.9466    6.8147   -0.0000 C   0  0  0  0  0  0  0  0  0  0  0  0
    2.5244    9.0547   -0.0000 C   0  0  0  0  0  0  0  0  0  0  0  0
    3.8162    6.8029   -0.0000 C   0  0  0  0  0  0  0  0  0  0  0  0
   -3.9585    5.3333   -0.0000 N   0  0  0  0  0  0  0  0  0  0  0  0
   -5.2503    7.5732   -0.0000 C   0  0  0  0  0  0  0  0  0  0  0  0
    1.2207    9.8132   -0.0000 F   0  0  0  0  0  0  0  0  0  0  0  0
    3.8044    9.8132   -0.0000 C   0  0  0  0  0  0  0  0  0  0  0  0
    5.0962    7.5614   -0.0000 C   0  0  0  0  0  0  0  0  0  0  0  0
   -6.5658    6.8384   -0.0000 C   0  0  0  0  0  0  0  0  0  0  0  0
   -5.2622    9.0903   -0.0000 C   0  0  0  0  0  0  0  0  0  0  0  0
    3.7925   11.3184   -0.0000 O   0  0  0  0  0  0  0  0  0  0  0  0
    5.0962    9.0784   -0.0000 C   0  0  0  0  0  0  0  0  0  0  0  0
   -7.8695    7.5969   -0.0000 C   0  0  0  0  0  0  0  0  0  0  0  0
   -6.5658    9.8488   -0.0000 C   0  0  0  0  0  0  0  0  0  0  0  0
    5.0725   12.0769   -0.0000 C   0  0  0  0  0  0  0  0  0  0  0  0
   -7.8814    9.1140   -0.0000 C   0  0  0  0  0  0  0  0  0  0  0  0
  1  2  2  0  0  0  0
  1  3  2  0  0  0  0
  1  4  1  0  0  0  0
  1  5  1  0  0  0  0
  4  6  2  0  0  0  0
  4  7  1  0  0  0  0
  6  8  1  0  0  0  0
  6  9  1  0  0  0  0
  7 10  2  0  0  0  0
  8 11  1  0  0  0  0
  8 12  2  0  0  0  0
  9 13  1  0  0  0  0
 13 14  1  0  0  0  0
 13 15  1  0  0  0  0
 14 16  2  0  0  0  0
 14 17  1  0  0  0  0
 15 18  2  0  0  0  0
 17 19  1  0  0  0  0
 17 20  1  0  0  0  0
 18 21  1  0  0  0  0
 19 22  2  0  0  0  0
 20 23  1  0  0  0  0
 21 24  2  0  0  0  0
 21 25  1  0  0  0  0
 23 26  1  6  0  0  0
 23 27  1  0  0  0  0
 24 28  1  0  0  0  0
 24 29  1  0  0  0  0
 25 30  2  0  0  0  0
 27 31  2  0  0  0  0
 27 32  1  0  0  0  0
 29 33  1  0  0  0  0
 29 34  2  0  0  0  0
 31 35  1  0  0  0  0
 32 36  2  0  0  0  0
 33 37  1  0  0  0  0
 35 38  2  0  0  0  0
 10 12  1  0  0  0  0
 18 19  1  0  0  0  0
 30 34  1  0  0  0  0
 36 38  1  0  0  0  0
M  END
>  <MolRegNo>
321490

>  <m>
=

>  <Value>
380

>  <Unit>
nM

>  <Type>
IC50

>  <pValue>
6.42

>  <Ligand Efficiency>
0

>  <Binding Efficiency>
0

>  <Surface Efficiency>
0

>  <Assay Index>
401126

>  <Assay Category>


>  <Assay Organism>


>  <Target ID>
17045

>  <Target Name>
Cytochrome P450 3A4

>  <Target Organism>
Homo sapiens

>  <Target Description>
Target is a single protein chain

>  <Sequence Accession>
P08684

>  <Reference>
Bioorg Med Chem Lett 18 (11), 3301-3305 (2008)

>  <Pubmed ID>
18442910

>  <DOI>
10.1016/j.bmcl.2008.04.036

$$$$
320713
Actelion Java MolfileCreator 1.0

 35 38  0  0  0  0  0  0  0  0999 V2000
    0.0000   -0.0000   -0.0000 F   0  0  0  0  0  0  0  0  0  0  0  0
    1.2846   -0.7375   -0.0000 C   0  0  0  0  0  0  0  0  0  0  0  0
    2.5693    0.0238   -0.0000 C   0  0  0  0  0  0  0  0  0  0  0  0
    1.2727   -2.2243   -0.0000 C   0  0  0  0  0  0  0  0  0  0  0  0
    2.5574    1.5344   -0.0000 O   0  0  0  0  0  0  0  0  0  0  0  0
    3.8658   -0.7137   -0.0000 C   0  0  0  0  0  0  0  0  0  0  0  0
   -0.0357   -2.9618   -0.0000 C   0  0  0  0  0  0  0  0  0  0  0  0
    2.5574   -2.9737   -0.0000 C   0  0  0  0  0  0  0  0  0  0  0  0
    3.8420    2.2957   -0.0000 C   0  0  0  0  0  0  0  0  0  0  0  0
    3.8539   -2.2005   -0.0000 C   0  0  0  0  0  0  0  0  0  0  0  0
   -1.3441   -2.1886   -0.0000 C   0  0  0  0  0  0  0  0  0  0  0  0
   -0.0476   -4.4486   -0.0000 C   0  0  0  0  0  0  0  0  0  0  0  0
   -1.3560   -0.6780   -0.0000 O   0  0  0  0  0  0  0  0  0  0  0  0
   -2.6525   -2.9380   -0.0000 N   0  0  0  0  0  0  0  0  0  0  0  0
   -1.3679   -5.1861   -0.0000 N   0  0  0  0  0  0  0  0  0  0  0  0
   -2.6644   -4.4248   -0.0000 C   0  0  0  0  0  0  0  0  0  0  0  0
   -3.9609   -2.1767   -0.0000 C   0  0  0  0  0  0  0  0  0  0  0  0
   -1.3798   -6.6729   -0.0000 C   0  0  0  0  0  0  0  0  0  0  0  0
   -3.9728   -5.1623   -0.0000 O   0  0  0  0  0  0  0  0  0  0  0  0
   -5.2694   -2.9142   -0.0000 C   0  0  0  0  0  0  0  0  0  0  0  0
   -0.0952   -7.4104   -0.0000 C   0  0  0  0  0  0  0  0  0  0  0  0
   -5.2813   -4.4010   -0.0000 N   0  0  0  0  0  0  0  0  0  0  0  0
   -6.5778   -2.1529   -0.0000 C   0  0  0  0  0  0  0  0  0  0  0  0
   -0.1189   -8.8972   -0.0000 C   0  0  0  0  0  0  0  0  0  0  0  0
    1.1776   -6.6491   -0.0000 C   0  0  0  0  0  0  0  0  0  0  0  0
   -7.8981   -2.8904   -0.0000 C   0  0  0  0  0  0  0  0  0  0  0  0
   -6.5897   -0.6304   -0.0000 C   0  0  0  0  0  0  0  0  0  0  0  0
   -1.4393   -9.6347   -0.0000 F   0  0  0  0  0  0  0  0  0  0  0  0
    1.1657   -9.6347   -0.0000 C   0  0  0  0  0  0  0  0  0  0  0  0
    1.1657   -5.1385   -0.0000 F   0  0  0  0  0  0  0  0  0  0  0  0
    2.4622   -7.3866   -0.0000 C   0  0  0  0  0  0  0  0  0  0  0  0
   -9.2065   -2.1292   -0.0000 C   0  0  0  0  0  0  0  0  0  0  0  0
   -7.8981    0.1308   -0.0000 C   0  0  0  0  0  0  0  0  0  0  0  0
    2.4622   -8.8735   -0.0000 C   0  0  0  0  0  0  0  0  0  0  0  0
   -9.2184   -0.6066   -0.0000 C   0  0  0  0  0  0  0  0  0  0  0  0
  1  2  1  0  0  0  0
  2  3  2  0  0  0  0
  2  4  1  0  0  0  0
  3  5  1  0  0  0  0
  3  6  1  0  0  0  0
  4  7  1  0  0  0  0
  4  8  2  0  0  0  0
  5  9  1  0  0  0  0
  6 10  2  0  0  0  0
  7 11  1  0  0  0  0
  7 12  2  0  0  0  0
 11 13  2  0  0  0  0
 11 14  1  0  0  0  0
 12 15  1  0  0  0  0
 14 16  1  0  0  0  0
 14 17  1  0  0  0  0
 15 18  1  0  0  0  0
 16 19  2  0  0  0  0
 17 20  1  0  0  0  0
 18 21  1  0  0  0  0
 20 22  1  6  0  0  0
 20 23  1  0  0  0  0
 21 24  2  0  0  0  0
 21 25  1  0  0  0  0
 23 26  2  0  0  0  0
 23 27  1  0  0  0  0
 24 28  1  0  0  0  0
 24 29  1  0  0  0  0
 25 30  1  0  0  0  0
 25 31  2  0  0  0  0
 26 32  1  0  0  0  0
 27 33  2  0  0  0  0
 29 34  2  0  0  0  0
 32 35  2  0  0  0  0
  8 10  1  0  0  0  0
 15 16  1  0  0  0  0
 31 34  1  0  0  0  0
 33 35  1  0  0  0  0
M  END
>  <MolRegNo>
320713

>  <m>
=

>  <Value>
600

>  <Unit>
nM

>  <Type>
IC50

>  <pValue>
6.22

>  <Ligand Efficiency>
0

>  <Binding Efficiency>
0

>  <Surface Efficiency>
0

>  <Assay Index>
401126

>  <Assay Category>


>  <Assay Organism>


>  <Target ID>
17045

>  <Target Name>
Cytochrome P450 3A4

>  <Target Organism>
Homo sapiens

>  <Target Description>
Target is a single protein chain

>  <Sequence Accession>
P08684

>  <Reference>
Bioorg Med Chem Lett 18 (11), 3301-3305 (2008)

>  <Pubmed ID>
18442910

>  <DOI>
10.1016/j.bmcl.2008.04.036

$$$$
470899
Actelion Java MolfileCreator 1.0

 36 40  0  0  0  0  0  0  0  0999 V2000
    0.0000   -0.0000   -0.0000 Cl  0  0  0  0  0  0  0  0  0  0  0  0
    0.1412    1.4944   -0.0000 C   0  0  0  0  0  0  0  0  0  0  0  0
    1.4238    2.2475   -0.0000 C   0  0  0  0  0  0  0  0  0  0  0  0
   -0.9767    2.5063   -0.0000 C   0  0  0  0  0  0  0  0  0  0  0  0
    1.1061    3.7183   -0.0000 N   0  0  0  0  0  0  0  0  0  0  0  0
   -0.3883    3.8713   -0.0000 N   0  0  0  0  0  0  0  0  0  0  0  0
   -1.1414    5.1774   -0.0000 C   0  0  0  0  0  0  0  0  0  0  0  0
   -0.4001    6.4836   -0.0000 C   0  0  0  0  0  0  0  0  0  0  0  0
   -1.1532    7.7897   -0.0000 N   0  0  0  0  0  0  0  0  0  0  0  0
   -0.4118    9.0840   -0.0000 C   0  0  0  0  0  0  0  0  0  0  0  0
   -1.1649   10.3902   -0.0000 C   0  0  0  0  0  0  0  0  0  0  0  0
    1.0590    9.0958   -0.0000 C   0  0  0  0  0  0  0  0  0  0  0  0
   -0.4354   11.6963   -0.0000 C   0  0  0  0  0  0  0  0  0  0  0  0
   -2.6711   10.4019   -0.0000 C   0  0  0  0  0  0  0  0  0  0  0  0
    1.8003   10.3902   -0.0000 C   0  0  0  0  0  0  0  0  0  0  0  0
   -1.2002   13.0024   -0.0000 O   0  0  0  0  0  0  0  0  0  0  0  0
    1.0473   11.6963   -0.0000 N   0  0  0  0  0  0  0  0  0  0  0  0
   -3.5654    9.2017   -0.0000 N   0  0  0  0  0  0  0  0  0  0  0  0
   -3.5654   11.6257   -0.0000 N   0  0  0  0  0  0  0  0  0  0  0  0
   -5.0009    9.6724   -0.0000 C   0  0  0  0  0  0  0  0  0  0  0  0
   -5.0009   11.1785   -0.0000 C   0  0  0  0  0  0  0  0  0  0  0  0
   -6.3071    8.9428   -0.0000 C   0  0  0  0  0  0  0  0  0  0  0  0
   -6.3071   11.9316   -0.0000 C   0  0  0  0  0  0  0  0  0  0  0  0
   -7.6132    9.6959   -0.0000 C   0  0  0  0  0  0  0  0  0  0  0  0
   -6.3188    7.4602   -0.0000 C   0  0  0  0  0  0  0  0  0  0  0  0
   -7.6014   11.2021   -0.0000 C   0  0  0  0  0  0  0  0  0  0  0  0
   -8.9075   11.9669   -0.0000 C   0  0  0  0  0  0  0  0  0  0  0  0
   -8.9193   13.4731   -0.0000 C   0  0  0  0  0  0  0  0  0  0  0  0
  -10.2019   11.2374   -0.0000 C   0  0  0  0  0  0  0  0  0  0  0  0
  -10.2137   14.2262   -0.0000 C   0  0  0  0  0  0  0  0  0  0  0  0
  -11.5080   12.0022   -0.0000 C   0  0  0  0  0  0  0  0  0  0  0  0
  -11.5198   13.4966   -0.0000 N   0  0  0  0  0  0  0  0  0  0  0  0
  -12.8141   14.2615   -0.0000 C   0  0  0  0  0  0  0  0  0  0  0  0
  -14.1203   13.5319   -0.0000 C   0  0  0  0  0  0  0  0  0  0  0  0
  -15.4146   14.2968   -0.0000 C   0  0  0  0  0  0  0  0  0  0  0  0
  -16.7207   13.5672   -0.0000 F   0  0  0  0  0  0  0  0  0  0  0  0
  1  2  1  0  0  0  0
  2  3  1  0  0  0  0
  2  4  2  0  0  0  0
  3  5  2  0  0  0  0
  4  6  1  0  0  0  0
  6  7  1  0  0  0  0
  7  8  1  0  0  0  0
  8  9  1  0  0  0  0
  9 10  1  0  0  0  0
 10 11  2  0  0  0  0
 10 12  1  0  0  0  0
 11 13  1  0  0  0  0
 11 14  1  0  0  0  0
 12 15  2  0  0  0  0
 13 16  2  0  0  0  0
 13 17  1  0  0  0  0
 14 18  2  0  0  0  0
 14 19  1  0  0  0  0
 18 20  1  0  0  0  0
 19 21  1  0  0  0  0
 20 22  1  0  0  0  0
 21 23  1  0  0  0  0
 22 24  2  0  0  0  0
 22 25  1  0  0  0  0
 23 26  2  0  0  0  0
 26 27  1  0  0  0  0
 27 28  1  0  0  0  0
 27 29  1  0  0  0  0
 28 30  1  0  0  0  0
 29 31  1  0  0  0  0
 30 32  1  0  0  0  0
 32 33  1  0  0  0  0
 33 34  1  0  0  0  0
 34 35  1  0  0  0  0
 35 36  1  0  0  0  0
  5  6  1  0  0  0  0
 15 17  1  0  0  0  0
 20 21  2  0  0  0  0
 24 26  1  0  0  0  0
 31 32  1  0  0  0  0
M  END
>  <MolRegNo>
470899

>  <m>
=

>  <Value>
26000

>  <Unit>
nM

>  <Type>
IC50

>  <pValue>
4.58

>  <Ligand Efficiency>
0

>  <Binding Efficiency>
0

>  <Surface Efficiency>
0

>  <Assay Index>
361643

>  <Assay Category>


>  <Assay Organism>
Homo sapiens

>  <Target ID>
17045

>  <Target Name>
Cytochrome P450 3A4

>  <Target Organism>
Homo sapiens

>  <Target Description>
Target is a single protein chain

>  <Sequence Accession>
P08684

>  <Reference>
J Med Chem 51 (19), 5897-5900 (2008)

>  <Pubmed ID>
18763755

>  <DOI>
10.1021/jm800832q

$$$$
470898
Actelion Java MolfileCreator 1.0

 36 40  0  0  0  0  0  0  0  0999 V2000
    0.0000   -0.0000   -0.0000 Cl  0  0  0  0  0  0  0  0  0  0  0  0
    0.1412    1.4941   -0.0000 C   0  0  0  0  0  0  0  0  0  0  0  0
    1.4236    2.2471   -0.0000 C   0  0  0  0  0  0  0  0  0  0  0  0
   -0.9765    2.5059   -0.0000 C   0  0  0  0  0  0  0  0  0  0  0  0
    1.1059    3.7177   -0.0000 N   0  0  0  0  0  0  0  0  0  0  0  0
   -0.3882    3.8706   -0.0000 N   0  0  0  0  0  0  0  0  0  0  0  0
   -1.1412    5.1765   -0.0000 C   0  0  0  0  0  0  0  0  0  0  0  0
   -0.4000    6.4825   -0.0000 C   0  0  0  0  0  0  0  0  0  0  0  0
   -1.1530    7.7884   -0.0000 N   0  0  0  0  0  0  0  0  0  0  0  0
   -0.4118    9.0943   -0.0000 C   0  0  0  0  0  0  0  0  0  0  0  0
   -1.1647   10.4002   -0.0000 C   0  0  0  0  0  0  0  0  0  0  0  0
    1.0588    9.1060   -0.0000 C   0  0  0  0  0  0  0  0  0  0  0  0
   -0.4353   11.7061   -0.0000 C   0  0  0  0  0  0  0  0  0  0  0  0
   -2.6706   10.4119   -0.0000 C   0  0  0  0  0  0  0  0  0  0  0  0
    1.8000   10.4002   -0.0000 C   0  0  0  0  0  0  0  0  0  0  0  0
   -1.2000   13.0120   -0.0000 O   0  0  0  0  0  0  0  0  0  0  0  0
    1.0471   11.7061   -0.0000 N   0  0  0  0  0  0  0  0  0  0  0  0
   -3.5648    9.2119   -0.0000 N   0  0  0  0  0  0  0  0  0  0  0  0
   -3.5648   11.6355   -0.0000 N   0  0  0  0  0  0  0  0  0  0  0  0
   -5.0001    9.6825   -0.0000 C   0  0  0  0  0  0  0  0  0  0  0  0
   -5.0001   11.1884   -0.0000 C   0  0  0  0  0  0  0  0  0  0  0  0
   -6.3060    8.9531   -0.0000 C   0  0  0  0  0  0  0  0  0  0  0  0
   -6.3060   11.9414   -0.0000 C   0  0  0  0  0  0  0  0  0  0  0  0
   -7.6119    9.7060   -0.0000 C   0  0  0  0  0  0  0  0  0  0  0  0
   -6.3177    7.4707   -0.0000 C   0  0  0  0  0  0  0  0  0  0  0  0
   -7.6001   11.2119   -0.0000 C   0  0  0  0  0  0  0  0  0  0  0  0
   -8.9060   11.9767   -0.0000 C   0  0  0  0  0  0  0  0  0  0  0  0
   -8.9178   13.4826   -0.0000 C   0  0  0  0  0  0  0  0  0  0  0  0
  -10.2002   11.2472   -0.0000 C   0  0  0  0  0  0  0  0  0  0  0  0
  -10.2119   14.2355   -0.0000 C   0  0  0  0  0  0  0  0  0  0  0  0
  -11.5061   12.0119   -0.0000 C   0  0  0  0  0  0  0  0  0  0  0  0
  -11.5178   13.5061   -0.0000 N   0  0  0  0  0  0  0  0  0  0  0  0
  -12.8120   14.2708   -0.0000 C   0  0  0  0  0  0  0  0  0  0  0  0
  -14.1179   13.5414   -0.0000 C   0  0  0  0  0  0  0  0  0  0  0  0
  -15.4120   14.3061   -0.0000 O   0  0  0  0  0  0  0  0  0  0  0  0
  -16.7179   13.5767   -0.0000 C   0  0  0  0  0  0  0  0  0  0  0  0
  1  2  1  0  0  0  0
  2  3  1  0  0  0  0
  2  4  2  0  0  0  0
  3  5  2  0  0  0  0
  4  6  1  0  0  0  0
  6  7  1  0  0  0  0
  7  8  1  0  0  0  0
  8  9  1  0  0  0  0
  9 10  1  0  0  0  0
 10 11  2  0  0  0  0
 10 12  1  0  0  0  0
 11 13  1  0  0  0  0
 11 14  1  0  0  0  0
 12 15  2  0  0  0  0
 13 16  2  0  0  0  0
 13 17  1  0  0  0  0
 14 18  2  0  0  0  0
 14 19  1  0  0  0  0
 18 20  1  0  0  0  0
 19 21  1  0  0  0  0
 20 22  1  0  0  0  0
 21 23  1  0  0  0  0
 22 24  2  0  0  0  0
 22 25  1  0  0  0  0
 23 26  2  0  0  0  0
 26 27  1  0  0  0  0
 27 28  1  0  0  0  0
 27 29  1  0  0  0  0
 28 30  1  0  0  0  0
 29 31  1  0  0  0  0
 30 32  1  0  0  0  0
 32 33  1  0  0  0  0
 33 34  1  0  0  0  0
 34 35  1  0  0  0  0
 35 36  1  0  0  0  0
  5  6  1  0  0  0  0
 15 17  1  0  0  0  0
 20 21  2  0  0  0  0
 24 26  1  0  0  0  0
 31 32  1  0  0  0  0
M  END
>  <MolRegNo>
470898

>  <m>
=

>  <Value>
19500

>  <Unit>
nM

>  <Type>
IC50

>  <pValue>
4.71

>  <Ligand Efficiency>
0

>  <Binding Efficiency>
0

>  <Surface Efficiency>
0

>  <Assay Index>
361643

>  <Assay Category>


>  <Assay Organism>
Homo sapiens

>  <Target ID>
17045

>  <Target Name>
Cytochrome P450 3A4

>  <Target Organism>
Homo sapiens

>  <Target Description>
Target is a single protein chain

>  <Sequence Accession>
P08684

>  <Reference>
J Med Chem 51 (19), 5897-5900 (2008)

>  <Pubmed ID>
18763755

>  <DOI>
10.1021/jm800832q

$$$$
470897
Actelion Java MolfileCreator 1.0

 35 39  0  0  0  0  0  0  0  0999 V2000
    0.0000   -0.0000   -0.0000 Cl  0  0  0  0  0  0  0  0  0  0  0  0
    0.1412    1.4946   -0.0000 C   0  0  0  0  0  0  0  0  0  0  0  0
    1.4239    2.2477   -0.0000 C   0  0  0  0  0  0  0  0  0  0  0  0
   -0.9768    2.5066   -0.0000 C   0  0  0  0  0  0  0  0  0  0  0  0
    1.1062    3.7187   -0.0000 N   0  0  0  0  0  0  0  0  0  0  0  0
   -0.3883    3.8717   -0.0000 N   0  0  0  0  0  0  0  0  0  0  0  0
   -1.1415    5.1780   -0.0000 C   0  0  0  0  0  0  0  0  0  0  0  0
   -0.4001    6.4725   -0.0000 C   0  0  0  0  0  0  0  0  0  0  0  0
   -1.1533    7.7787   -0.0000 N   0  0  0  0  0  0  0  0  0  0  0  0
   -0.4119    9.0732   -0.0000 C   0  0  0  0  0  0  0  0  0  0  0  0
   -1.1650   10.3795   -0.0000 C   0  0  0  0  0  0  0  0  0  0  0  0
    1.0591    9.0850   -0.0000 C   0  0  0  0  0  0  0  0  0  0  0  0
   -0.4354   11.6858   -0.0000 C   0  0  0  0  0  0  0  0  0  0  0  0
   -2.6714   10.3913   -0.0000 C   0  0  0  0  0  0  0  0  0  0  0  0
    1.8005   10.3795   -0.0000 C   0  0  0  0  0  0  0  0  0  0  0  0
   -1.2004   12.9920   -0.0000 O   0  0  0  0  0  0  0  0  0  0  0  0
    1.0474   11.6858   -0.0000 N   0  0  0  0  0  0  0  0  0  0  0  0
   -3.5657    9.1909   -0.0000 N   0  0  0  0  0  0  0  0  0  0  0  0
   -3.5657   11.6152   -0.0000 N   0  0  0  0  0  0  0  0  0  0  0  0
   -5.0015    9.6617   -0.0000 C   0  0  0  0  0  0  0  0  0  0  0  0
   -5.0015   11.1680   -0.0000 C   0  0  0  0  0  0  0  0  0  0  0  0
   -6.3077    8.9320   -0.0000 C   0  0  0  0  0  0  0  0  0  0  0  0
   -6.3077   11.9211   -0.0000 C   0  0  0  0  0  0  0  0  0  0  0  0
   -7.6140    9.6852   -0.0000 C   0  0  0  0  0  0  0  0  0  0  0  0
   -6.3195    7.4492   -0.0000 C   0  0  0  0  0  0  0  0  0  0  0  0
   -7.6022   11.1915   -0.0000 C   0  0  0  0  0  0  0  0  0  0  0  0
   -8.9085   11.9564   -0.0000 C   0  0  0  0  0  0  0  0  0  0  0  0
   -8.9203   13.4628   -0.0000 C   0  0  0  0  0  0  0  0  0  0  0  0
  -10.2030   11.2268   -0.0000 C   0  0  0  0  0  0  0  0  0  0  0  0
  -10.2148   14.2159   -0.0000 C   0  0  0  0  0  0  0  0  0  0  0  0
  -11.5093   11.9917   -0.0000 C   0  0  0  0  0  0  0  0  0  0  0  0
  -11.5210   13.4863   -0.0000 N   0  0  0  0  0  0  0  0  0  0  0  0
  -12.8155   14.2512   -0.0000 C   0  0  0  0  0  0  0  0  0  0  0  0
  -14.1218   13.5216   -0.0000 C   0  0  0  0  0  0  0  0  0  0  0  0
  -15.4163   14.2865   -0.0000 O   0  0  0  0  0  0  0  0  0  0  0  0
  1  2  1  0  0  0  0
  2  3  1  0  0  0  0
  2  4  2  0  0  0  0
  3  5  2  0  0  0  0
  4  6  1  0  0  0  0
  6  7  1  0  0  0  0
  7  8  1  0  0  0  0
  8  9  1  0  0  0  0
  9 10  1  0  0  0  0
 10 11  2  0  0  0  0
 10 12  1  0  0  0  0
 11 13  1  0  0  0  0
 11 14  1  0  0  0  0
 12 15  2  0  0  0  0
 13 16  2  0  0  0  0
 13 17  1  0  0  0  0
 14 18  2  0  0  0  0
 14 19  1  0  0  0  0
 18 20  1  0  0  0  0
 19 21  1  0  0  0  0
 20 22  1  0  0  0  0
 21 23  1  0  0  0  0
 22 24  2  0  0  0  0
 22 25  1  0  0  0  0
 23 26  2  0  0  0  0
 26 27  1  0  0  0  0
 27 28  1  0  0  0  0
 27 29  1  0  0  0  0
 28 30  1  0  0  0  0
 29 31  1  0  0  0  0
 30 32  1  0  0  0  0
 32 33  1  0  0  0  0
 33 34  1  0  0  0  0
 34 35  1  0  0  0  0
  5  6  1  0  0  0  0
 15 17  1  0  0  0  0
 20 21  2  0  0  0  0
 24 26  1  0  0  0  0
 31 32  1  0  0  0  0
M  END
>  <MolRegNo>
470897

>  <m>
=

>  <Value>
23000

>  <Unit>
nM

>  <Type>
IC50

>  <pValue>
4.64

>  <Ligand Efficiency>
0

>  <Binding Efficiency>
0

>  <Surface Efficiency>
0

>  <Assay Index>
361643

>  <Assay Category>


>  <Assay Organism>
Homo sapiens

>  <Target ID>
17045

>  <Target Name>
Cytochrome P450 3A4

>  <Target Organism>
Homo sapiens

>  <Target Description>
Target is a single protein chain

>  <Sequence Accession>
P08684

>  <Reference>
J Med Chem 51 (19), 5897-5900 (2008)

>  <Pubmed ID>
18763755

>  <DOI>
10.1021/jm800832q

$$$$
470803
Actelion Java MolfileCreator 1.0

 33 37  0  0  0  0  0  0  0  0999 V2000
    0.0000   -0.0000   -0.0000 Cl  0  0  0  0  0  0  0  0  0  0  0  0
    0.1412    1.4943   -0.0000 C   0  0  0  0  0  0  0  0  0  0  0  0
    1.4237    2.2473   -0.0000 C   0  0  0  0  0  0  0  0  0  0  0  0
   -0.9766    2.5061   -0.0000 C   0  0  0  0  0  0  0  0  0  0  0  0
    1.1060    3.7180   -0.0000 N   0  0  0  0  0  0  0  0  0  0  0  0
   -0.3883    3.8710   -0.0000 N   0  0  0  0  0  0  0  0  0  0  0  0
   -1.1413    5.1770   -0.0000 C   0  0  0  0  0  0  0  0  0  0  0  0
   -0.4000    6.4830   -0.0000 C   0  0  0  0  0  0  0  0  0  0  0  0
   -1.1531    7.7891   -0.0000 N   0  0  0  0  0  0  0  0  0  0  0  0
   -0.4118    9.0833   -0.0000 C   0  0  0  0  0  0  0  0  0  0  0  0
   -1.1648   10.3893   -0.0000 C   0  0  0  0  0  0  0  0  0  0  0  0
    1.0589    9.0951   -0.0000 C   0  0  0  0  0  0  0  0  0  0  0  0
   -0.4353   11.6954   -0.0000 C   0  0  0  0  0  0  0  0  0  0  0  0
   -2.6709   10.4011   -0.0000 C   0  0  0  0  0  0  0  0  0  0  0  0
    1.8002   10.3893   -0.0000 C   0  0  0  0  0  0  0  0  0  0  0  0
   -1.2001   13.0014   -0.0000 O   0  0  0  0  0  0  0  0  0  0  0  0
    1.0472   11.6954   -0.0000 N   0  0  0  0  0  0  0  0  0  0  0  0
   -3.5651    9.2010   -0.0000 N   0  0  0  0  0  0  0  0  0  0  0  0
   -3.5651   11.6248   -0.0000 N   0  0  0  0  0  0  0  0  0  0  0  0
   -5.0005    9.6716   -0.0000 C   0  0  0  0  0  0  0  0  0  0  0  0
   -5.0005   11.1777   -0.0000 C   0  0  0  0  0  0  0  0  0  0  0  0
   -6.3065    8.9421   -0.0000 C   0  0  0  0  0  0  0  0  0  0  0  0
   -6.3065   11.9307   -0.0000 C   0  0  0  0  0  0  0  0  0  0  0  0
   -7.6126    9.6951   -0.0000 C   0  0  0  0  0  0  0  0  0  0  0  0
   -6.3183    7.4596   -0.0000 C   0  0  0  0  0  0  0  0  0  0  0  0
   -7.6008   11.2012   -0.0000 C   0  0  0  0  0  0  0  0  0  0  0  0
   -8.9068   11.9660   -0.0000 C   0  0  0  0  0  0  0  0  0  0  0  0
   -8.9186   13.4720   -0.0000 C   0  0  0  0  0  0  0  0  0  0  0  0
  -10.2011   11.2365   -0.0000 C   0  0  0  0  0  0  0  0  0  0  0  0
  -10.2128   14.2250   -0.0000 C   0  0  0  0  0  0  0  0  0  0  0  0
  -11.5071   12.0013   -0.0000 C   0  0  0  0  0  0  0  0  0  0  0  0
  -11.5189   13.4955   -0.0000 N   0  0  0  0  0  0  0  0  0  0  0  0
  -12.8131   14.2603   -0.0000 C   0  0  0  0  0  0  0  0  0  0  0  0
  1  2  1  0  0  0  0
  2  3  1  0  0  0  0
  2  4  2  0  0  0  0
  3  5  2  0  0  0  0
  4  6  1  0  0  0  0
  6  7  1  0  0  0  0
  7  8  1  0  0  0  0
  8  9  1  0  0  0  0
  9 10  1  0  0  0  0
 10 11  2  0  0  0  0
 10 12  1  0  0  0  0
 11 13  1  0  0  0  0
 11 14  1  0  0  0  0
 12 15  2  0  0  0  0
 13 16  2  0  0  0  0
 13 17  1  0  0  0  0
 14 18  2  0  0  0  0
 14 19  1  0  0  0  0
 18 20  1  0  0  0  0
 19 21  1  0  0  0  0
 20 22  1  0  0  0  0
 21 23  1  0  0  0  0
 22 24  2  0  0  0  0
 22 25  1  0  0  0  0
 23 26  2  0  0  0  0
 26 27  1  0  0  0  0
 27 28  1  0  0  0  0
 27 29  1  0  0  0  0
 28 30  1  0  0  0  0
 29 31  1  0  0  0  0
 30 32  1  0  0  0  0
 32 33  1  0  0  0  0
  5  6  1  0  0  0  0
 15 17  1  0  0  0  0
 20 21  2  0  0  0  0
 24 26  1  0  0  0  0
 31 32  1  0  0  0  0
M  END
>  <MolRegNo>
470803

>  <m>
=

>  <Value>
40000

>  <Unit>
nM

>  <Type>
IC50

>  <pValue>
4.4

>  <Ligand Efficiency>
0

>  <Binding Efficiency>
0

>  <Surface Efficiency>
0

>  <Assay Index>
361643

>  <Assay Category>


>  <Assay Organism>
Homo sapiens

>  <Target ID>
17045

>  <Target Name>
Cytochrome P450 3A4

>  <Target Organism>
Homo sapiens

>  <Target Description>
Target is a single protein chain

>  <Sequence Accession>
P08684

>  <Reference>
J Med Chem 51 (19), 5897-5900 (2008)

>  <Pubmed ID>
18763755

>  <DOI>
10.1021/jm800832q

$$$$
470802
Actelion Java MolfileCreator 1.0

 40 44  0  0  0  0  0  0  0  0999 V2000
    0.0000   -0.0000   -0.0000 Cl  0  0  0  0  0  0  0  0  0  0  0  0
   -1.5070    0.0118   -0.0000 C   0  0  0  0  0  0  0  0  0  0  0  0
   -2.2605   -1.2716   -0.0000 C   0  0  0  0  0  0  0  0  0  0  0  0
   -2.2605    1.3069   -0.0000 C   0  0  0  0  0  0  0  0  0  0  0  0
   -1.5306   -2.5549   -0.0000 O   0  0  0  0  0  0  0  0  0  0  0  0
   -3.7676   -1.2598   -0.0000 C   0  0  0  0  0  0  0  0  0  0  0  0
   -3.7558    1.3069   -0.0000 C   0  0  0  0  0  0  0  0  0  0  0  0
   -2.2841   -3.8382   -0.0000 C   0  0  0  0  0  0  0  0  0  0  0  0
   -4.5211    0.0471   -0.0000 C   0  0  0  0  0  0  0  0  0  0  0  0
   -4.5093    2.6137   -0.0000 C   0  0  0  0  0  0  0  0  0  0  0  0
   -6.0163    2.6255   -0.0000 O   0  0  0  0  0  0  0  0  0  0  0  0
   -3.7676    3.9206   -0.0000 C   0  0  0  0  0  0  0  0  0  0  0  0
   -4.5211    5.2275   -0.0000 N   0  0  0  0  0  0  0  0  0  0  0  0
   -3.7793    6.5344   -0.0000 C   0  0  0  0  0  0  0  0  0  0  0  0
   -4.5328    7.8412   -0.0000 C   0  0  0  0  0  0  0  0  0  0  0  0
   -2.3076    6.5461   -0.0000 C   0  0  0  0  0  0  0  0  0  0  0  0
   -3.8029    9.1481   -0.0000 C   0  0  0  0  0  0  0  0  0  0  0  0
   -6.0399    7.8530   -0.0000 C   0  0  0  0  0  0  0  0  0  0  0  0
   -1.5659    7.8412   -0.0000 C   0  0  0  0  0  0  0  0  0  0  0  0
   -4.5682   10.4550   -0.0000 O   0  0  0  0  0  0  0  0  0  0  0  0
   -2.3194    9.1481   -0.0000 N   0  0  0  0  0  0  0  0  0  0  0  0
   -6.9347    6.6521   -0.0000 N   0  0  0  0  0  0  0  0  0  0  0  0
   -6.9347    9.0775   -0.0000 N   0  0  0  0  0  0  0  0  0  0  0  0
   -8.3710    7.1230   -0.0000 C   0  0  0  0  0  0  0  0  0  0  0  0
   -8.3710    8.6301   -0.0000 C   0  0  0  0  0  0  0  0  0  0  0  0
   -9.6779    6.3931   -0.0000 C   0  0  0  0  0  0  0  0  0  0  0  0
   -9.6779    9.3836   -0.0000 C   0  0  0  0  0  0  0  0  0  0  0  0
  -10.9848    7.1466   -0.0000 C   0  0  0  0  0  0  0  0  0  0  0  0
   -9.6897    4.9096   -0.0000 C   0  0  0  0  0  0  0  0  0  0  0  0
  -10.9730    8.6536   -0.0000 C   0  0  0  0  0  0  0  0  0  0  0  0
  -12.2799    9.4189   -0.0000 C   0  0  0  0  0  0  0  0  0  0  0  0
  -12.2917   10.9259   -0.0000 C   0  0  0  0  0  0  0  0  0  0  0  0
  -13.5750    8.6889   -0.0000 C   0  0  0  0  0  0  0  0  0  0  0  0
  -13.5868   11.6794   -0.0000 C   0  0  0  0  0  0  0  0  0  0  0  0
  -14.8819    9.4542   -0.0000 C   0  0  0  0  0  0  0  0  0  0  0  0
  -14.8936   10.9495   -0.0000 N   0  0  0  0  0  0  0  0  0  0  0  0
  -16.1887   11.7148   -0.0000 C   0  0  0  0  0  0  0  0  0  0  0  0
  -17.4956   10.9848   -0.0000 C   0  0  0  0  0  0  0  0  0  0  0  0
  -18.7907   11.7501   -0.0000 C   0  0  0  0  0  0  0  0  0  0  0  0
  -20.0976   11.0201   -0.0000 F   0  0  0  0  0  0  0  0  0  0  0  0
  1  2  1  0  0  0  0
  2  3  2  0  0  0  0
  2  4  1  0  0  0  0
  3  5  1  0  0  0  0
  3  6  1  0  0  0  0
  4  7  2  0  0  0  0
  5  8  1  0  0  0  0
  6  9  2  0  0  0  0
  7 10  1  0  0  0  0
 10 11  1  1  0  0  0
 10 12  1  0  0  0  0
 12 13  1  0  0  0  0
 13 14  1  0  0  0  0
 14 15  2  0  0  0  0
 14 16  1  0  0  0  0
 15 17  1  0  0  0  0
 15 18  1  0  0  0  0
 16 19  2  0  0  0  0
 17 20  2  0  0  0  0
 17 21  1  0  0  0  0
 18 22  2  0  0  0  0
 18 23  1  0  0  0  0
 22 24  1  0  0  0  0
 23 25  1  0  0  0  0
 24 26  1  0  0  0  0
 25 27  1  0  0  0  0
 26 28  2  0  0  0  0
 26 29  1  0  0  0  0
 27 30  2  0  0  0  0
 30 31  1  0  0  0  0
 31 32  1  0  0  0  0
 31 33  1  0  0  0  0
 32 34  1  0  0  0  0
 33 35  1  0  0  0  0
 34 36  1  0  0  0  0
 36 37  1  0  0  0  0
 37 38  1  0  0  0  0
 38 39  1  0  0  0  0
 39 40  1  0  0  0  0
  7  9  1  0  0  0  0
 19 21  1  0  0  0  0
 24 25  2  0  0  0  0
 28 30  1  0  0  0  0
 35 36  1  0  0  0  0
M  END
>  <MolRegNo>
470802

>  <m>
=

>  <Value>
10000

>  <Unit>
nM

>  <Type>
IC50

>  <pValue>
5

>  <Ligand Efficiency>
0

>  <Binding Efficiency>
0

>  <Surface Efficiency>
0

>  <Assay Index>
361643

>  <Assay Category>


>  <Assay Organism>
Homo sapiens

>  <Target ID>
17045

>  <Target Name>
Cytochrome P450 3A4

>  <Target Organism>
Homo sapiens

>  <Target Description>
Target is a single protein chain

>  <Sequence Accession>
P08684

>  <Reference>
J Med Chem 51 (19), 5897-5900 (2008)

>  <Pubmed ID>
18763755

>  <DOI>
10.1021/jm800832q

$$$$
470801
Actelion Java MolfileCreator 1.0

 40 44  0  0  0  0  0  0  0  0999 V2000
    0.0000   -0.0000   -0.0000 Cl  0  0  0  0  0  0  0  0  0  0  0  0
   -1.5070    0.0118   -0.0000 C   0  0  0  0  0  0  0  0  0  0  0  0
   -2.2722   -1.2715   -0.0000 C   0  0  0  0  0  0  0  0  0  0  0  0
   -2.2605    1.3068   -0.0000 C   0  0  0  0  0  0  0  0  0  0  0  0
   -1.5423   -2.5548   -0.0000 O   0  0  0  0  0  0  0  0  0  0  0  0
   -3.7792   -1.2597   -0.0000 C   0  0  0  0  0  0  0  0  0  0  0  0
   -3.7557    1.3068   -0.0000 C   0  0  0  0  0  0  0  0  0  0  0  0
   -2.2958   -3.8381   -0.0000 C   0  0  0  0  0  0  0  0  0  0  0  0
   -4.5327    0.0471   -0.0000 C   0  0  0  0  0  0  0  0  0  0  0  0
   -4.5092    2.6137   -0.0000 C   0  0  0  0  0  0  0  0  0  0  0  0
   -6.0162    2.6254   -0.0000 O   0  0  0  0  0  0  0  0  0  0  0  0
   -3.7675    3.9087   -0.0000 C   0  0  0  0  0  0  0  0  0  0  0  0
   -4.5209    5.2156   -0.0000 N   0  0  0  0  0  0  0  0  0  0  0  0
   -3.7792    6.5106   -0.0000 C   0  0  0  0  0  0  0  0  0  0  0  0
   -4.5327    7.8175   -0.0000 C   0  0  0  0  0  0  0  0  0  0  0  0
   -2.3076    6.5224   -0.0000 C   0  0  0  0  0  0  0  0  0  0  0  0
   -3.8028    9.1243   -0.0000 C   0  0  0  0  0  0  0  0  0  0  0  0
   -6.0397    7.8292   -0.0000 C   0  0  0  0  0  0  0  0  0  0  0  0
   -1.5658    7.8175   -0.0000 C   0  0  0  0  0  0  0  0  0  0  0  0
   -4.5680   10.4311   -0.0000 O   0  0  0  0  0  0  0  0  0  0  0  0
   -2.3193    9.1243   -0.0000 N   0  0  0  0  0  0  0  0  0  0  0  0
   -6.9345    6.6284   -0.0000 N   0  0  0  0  0  0  0  0  0  0  0  0
   -6.9345    9.0537   -0.0000 N   0  0  0  0  0  0  0  0  0  0  0  0
   -8.3708    7.0993   -0.0000 C   0  0  0  0  0  0  0  0  0  0  0  0
   -8.3708    8.6063   -0.0000 C   0  0  0  0  0  0  0  0  0  0  0  0
   -9.6777    6.3694   -0.0000 C   0  0  0  0  0  0  0  0  0  0  0  0
   -9.6777    9.3598   -0.0000 C   0  0  0  0  0  0  0  0  0  0  0  0
  -10.9845    7.1228   -0.0000 C   0  0  0  0  0  0  0  0  0  0  0  0
   -9.6894    4.8859   -0.0000 C   0  0  0  0  0  0  0  0  0  0  0  0
  -10.9727    8.6298   -0.0000 C   0  0  0  0  0  0  0  0  0  0  0  0
  -12.2796    9.3951   -0.0000 C   0  0  0  0  0  0  0  0  0  0  0  0
  -12.2913   10.9021   -0.0000 C   0  0  0  0  0  0  0  0  0  0  0  0
  -13.5746    8.6651   -0.0000 C   0  0  0  0  0  0  0  0  0  0  0  0
  -13.5864   11.6556   -0.0000 C   0  0  0  0  0  0  0  0  0  0  0  0
  -14.8814    9.4304   -0.0000 C   0  0  0  0  0  0  0  0  0  0  0  0
  -14.8932   10.9256   -0.0000 N   0  0  0  0  0  0  0  0  0  0  0  0
  -16.1883   11.6909   -0.0000 C   0  0  0  0  0  0  0  0  0  0  0  0
  -17.4951   10.9609   -0.0000 C   0  0  0  0  0  0  0  0  0  0  0  0
  -18.7902   11.7262   -0.0000 O   0  0  0  0  0  0  0  0  0  0  0  0
  -18.8020   13.2332   -0.0000 C   0  0  0  0  0  0  0  0  0  0  0  0
  1  2  1  0  0  0  0
  2  3  2  0  0  0  0
  2  4  1  0  0  0  0
  3  5  1  0  0  0  0
  3  6  1  0  0  0  0
  4  7  2  0  0  0  0
  5  8  1  0  0  0  0
  6  9  2  0  0  0  0
  7 10  1  0  0  0  0
 10 11  1  1  0  0  0
 10 12  1  0  0  0  0
 12 13  1  0  0  0  0
 13 14  1  0  0  0  0
 14 15  2  0  0  0  0
 14 16  1  0  0  0  0
 15 17  1  0  0  0  0
 15 18  1  0  0  0  0
 16 19  2  0  0  0  0
 17 20  2  0  0  0  0
 17 21  1  0  0  0  0
 18 22  2  0  0  0  0
 18 23  1  0  0  0  0
 22 24  1  0  0  0  0
 23 25  1  0  0  0  0
 24 26  1  0  0  0  0
 25 27  1  0  0  0  0
 26 28  2  0  0  0  0
 26 29  1  0  0  0  0
 27 30  2  0  0  0  0
 30 31  1  0  0  0  0
 31 32  1  0  0  0  0
 31 33  1  0  0  0  0
 32 34  1  0  0  0  0
 33 35  1  0  0  0  0
 34 36  1  0  0  0  0
 36 37  1  0  0  0  0
 37 38  1  0  0  0  0
 38 39  1  0  0  0  0
 39 40  1  0  0  0  0
  7  9  1  0  0  0  0
 19 21  1  0  0  0  0
 24 25  2  0  0  0  0
 28 30  1  0  0  0  0
 35 36  1  0  0  0  0
M  END
>  <MolRegNo>
470801

>  <m>
=

>  <Value>
7700

>  <Unit>
nM

>  <Type>
IC50

>  <pValue>
5.11

>  <Ligand Efficiency>
0

>  <Binding Efficiency>
0

>  <Surface Efficiency>
0

>  <Assay Index>
361643

>  <Assay Category>


>  <Assay Organism>
Homo sapiens

>  <Target ID>
17045

>  <Target Name>
Cytochrome P450 3A4

>  <Target Organism>
Homo sapiens

>  <Target Description>
Target is a single protein chain

>  <Sequence Accession>
P08684

>  <Reference>
J Med Chem 51 (19), 5897-5900 (2008)

>  <Pubmed ID>
18763755

>  <DOI>
10.1021/jm800832q

$$$$
470725
Actelion Java MolfileCreator 1.0

 38 42  0  0  0  0  0  0  0  0999 V2000
    0.0000   -0.0000   -0.0000 Cl  0  0  0  0  0  0  0  0  0  0  0  0
   -1.5062    0.0118   -0.0000 C   0  0  0  0  0  0  0  0  0  0  0  0
   -2.2593    1.3061   -0.0000 C   0  0  0  0  0  0  0  0  0  0  0  0
   -2.2710   -1.2708   -0.0000 C   0  0  0  0  0  0  0  0  0  0  0  0
   -3.7537    1.3061   -0.0000 C   0  0  0  0  0  0  0  0  0  0  0  0
   -3.7772   -1.2591   -0.0000 C   0  0  0  0  0  0  0  0  0  0  0  0
   -4.5185    0.0353   -0.0000 C   0  0  0  0  0  0  0  0  0  0  0  0
   -4.5068    2.6123   -0.0000 C   0  0  0  0  0  0  0  0  0  0  0  0
   -6.0129    2.6240   -0.0000 O   0  0  0  0  0  0  0  0  0  0  0  0
   -3.7654    3.9184   -0.0000 C   0  0  0  0  0  0  0  0  0  0  0  0
   -4.5185    5.2246   -0.0000 N   0  0  0  0  0  0  0  0  0  0  0  0
   -3.7772    6.5307   -0.0000 C   0  0  0  0  0  0  0  0  0  0  0  0
   -4.5303    7.8368   -0.0000 C   0  0  0  0  0  0  0  0  0  0  0  0
   -2.3063    6.5425   -0.0000 C   0  0  0  0  0  0  0  0  0  0  0  0
   -3.8007    9.1430   -0.0000 C   0  0  0  0  0  0  0  0  0  0  0  0
   -6.0365    7.8486   -0.0000 C   0  0  0  0  0  0  0  0  0  0  0  0
   -1.5650    7.8368   -0.0000 C   0  0  0  0  0  0  0  0  0  0  0  0
   -4.5656   10.4491   -0.0000 O   0  0  0  0  0  0  0  0  0  0  0  0
   -2.3181    9.1430   -0.0000 N   0  0  0  0  0  0  0  0  0  0  0  0
   -6.9308    6.6484   -0.0000 N   0  0  0  0  0  0  0  0  0  0  0  0
   -6.9308    9.0724   -0.0000 N   0  0  0  0  0  0  0  0  0  0  0  0
   -8.3663    7.1190   -0.0000 C   0  0  0  0  0  0  0  0  0  0  0  0
   -8.3663    8.6252   -0.0000 C   0  0  0  0  0  0  0  0  0  0  0  0
   -9.6725    6.3895   -0.0000 C   0  0  0  0  0  0  0  0  0  0  0  0
   -9.6725    9.3783   -0.0000 C   0  0  0  0  0  0  0  0  0  0  0  0
  -10.9786    7.1426   -0.0000 C   0  0  0  0  0  0  0  0  0  0  0  0
   -9.6843    4.9068   -0.0000 C   0  0  0  0  0  0  0  0  0  0  0  0
  -10.9669    8.6488   -0.0000 C   0  0  0  0  0  0  0  0  0  0  0  0
  -12.2730    9.4136   -0.0000 C   0  0  0  0  0  0  0  0  0  0  0  0
  -12.2848   10.9198   -0.0000 C   0  0  0  0  0  0  0  0  0  0  0  0
  -13.5674    8.6841   -0.0000 C   0  0  0  0  0  0  0  0  0  0  0  0
  -13.5791   11.6729   -0.0000 C   0  0  0  0  0  0  0  0  0  0  0  0
  -14.8735    9.4489   -0.0000 C   0  0  0  0  0  0  0  0  0  0  0  0
  -14.8853   10.9433   -0.0000 N   0  0  0  0  0  0  0  0  0  0  0  0
  -16.1796   11.7082   -0.0000 C   0  0  0  0  0  0  0  0  0  0  0  0
  -17.4858   10.9786   -0.0000 C   0  0  0  0  0  0  0  0  0  0  0  0
  -18.7802   11.7435   -0.0000 C   0  0  0  0  0  0  0  0  0  0  0  0
  -20.0863   11.0139   -0.0000 F   0  0  0  0  0  0  0  0  0  0  0  0
  1  2  1  0  0  0  0
  2  3  2  0  0  0  0
  2  4  1  0  0  0  0
  3  5  1  0  0  0  0
  4  6  2  0  0  0  0
  5  7  2  0  0  0  0
  5  8  1  0  0  0  0
  8  9  1  1  0  0  0
  8 10  1  0  0  0  0
 10 11  1  0  0  0  0
 11 12  1  0  0  0  0
 12 13  2  0  0  0  0
 12 14  1  0  0  0  0
 13 15  1  0  0  0  0
 13 16  1  0  0  0  0
 14 17  2  0  0  0  0
 15 18  2  0  0  0  0
 15 19  1  0  0  0  0
 16 20  2  0  0  0  0
 16 21  1  0  0  0  0
 20 22  1  0  0  0  0
 21 23  1  0  0  0  0
 22 24  1  0  0  0  0
 23 25  1  0  0  0  0
 24 26  2  0  0  0  0
 24 27  1  0  0  0  0
 25 28  2  0  0  0  0
 28 29  1  0  0  0  0
 29 30  1  0  0  0  0
 29 31  1  0  0  0  0
 30 32  1  0  0  0  0
 31 33  1  0  0  0  0
 32 34  1  0  0  0  0
 34 35  1  0  0  0  0
 35 36  1  0  0  0  0
 36 37  1  0  0  0  0
 37 38  1  0  0  0  0
  6  7  1  0  0  0  0
 17 19  1  0  0  0  0
 22 23  2  0  0  0  0
 26 28  1  0  0  0  0
 33 34  1  0  0  0  0
M  END
>  <MolRegNo>
470725

>  <m>
=

>  <Value>
28000

>  <Unit>
nM

>  <Type>
IC50

>  <pValue>
4.55

>  <Ligand Efficiency>
0

>  <Binding Efficiency>
0

>  <Surface Efficiency>
0

>  <Assay Index>
361643

>  <Assay Category>


>  <Assay Organism>
Homo sapiens

>  <Target ID>
17045

>  <Target Name>
Cytochrome P450 3A4

>  <Target Organism>
Homo sapiens

>  <Target Description>
Target is a single protein chain

>  <Sequence Accession>
P08684

>  <Reference>
J Med Chem 51 (19), 5897-5900 (2008)

>  <Pubmed ID>
18763755

>  <DOI>
10.1021/jm800832q

$$$$
470724
Actelion Java MolfileCreator 1.0

 38 42  0  0  0  0  0  0  0  0999 V2000
    0.0000   -0.0000   -0.0000 Cl  0  0  0  0  0  0  0  0  0  0  0  0
   -1.5057    0.0118   -0.0000 C   0  0  0  0  0  0  0  0  0  0  0  0
   -2.2585    1.3057   -0.0000 C   0  0  0  0  0  0  0  0  0  0  0  0
   -2.2703   -1.2704   -0.0000 C   0  0  0  0  0  0  0  0  0  0  0  0
   -3.7525    1.3057   -0.0000 C   0  0  0  0  0  0  0  0  0  0  0  0
   -3.7760   -1.2587   -0.0000 C   0  0  0  0  0  0  0  0  0  0  0  0
   -4.5171    0.0353   -0.0000 C   0  0  0  0  0  0  0  0  0  0  0  0
   -4.5053    2.6114   -0.0000 C   0  0  0  0  0  0  0  0  0  0  0  0
   -6.0110    2.6232   -0.0000 O   0  0  0  0  0  0  0  0  0  0  0  0
   -3.7642    3.9172   -0.0000 C   0  0  0  0  0  0  0  0  0  0  0  0
   -4.5171    5.2229   -0.0000 N   0  0  0  0  0  0  0  0  0  0  0  0
   -3.7760    6.5286   -0.0000 C   0  0  0  0  0  0  0  0  0  0  0  0
   -4.5288    7.8343   -0.0000 C   0  0  0  0  0  0  0  0  0  0  0  0
   -2.3056    6.5404   -0.0000 C   0  0  0  0  0  0  0  0  0  0  0  0
   -3.7995    9.1400   -0.0000 C   0  0  0  0  0  0  0  0  0  0  0  0
   -6.0345    7.8461   -0.0000 C   0  0  0  0  0  0  0  0  0  0  0  0
   -1.5645    7.8343   -0.0000 C   0  0  0  0  0  0  0  0  0  0  0  0
   -4.5641   10.4457   -0.0000 O   0  0  0  0  0  0  0  0  0  0  0  0
   -2.3174    9.1400   -0.0000 N   0  0  0  0  0  0  0  0  0  0  0  0
   -6.9285    6.6462   -0.0000 N   0  0  0  0  0  0  0  0  0  0  0  0
   -6.9285    9.0694   -0.0000 N   0  0  0  0  0  0  0  0  0  0  0  0
   -8.3637    7.1168   -0.0000 C   0  0  0  0  0  0  0  0  0  0  0  0
   -8.3637    8.6224   -0.0000 C   0  0  0  0  0  0  0  0  0  0  0  0
   -9.6694    6.3874   -0.0000 C   0  0  0  0  0  0  0  0  0  0  0  0
   -9.6694    9.3753   -0.0000 C   0  0  0  0  0  0  0  0  0  0  0  0
  -10.9751    7.1403   -0.0000 C   0  0  0  0  0  0  0  0  0  0  0  0
   -9.6811    4.9053   -0.0000 C   0  0  0  0  0  0  0  0  0  0  0  0
  -10.9633    8.6460   -0.0000 C   0  0  0  0  0  0  0  0  0  0  0  0
  -12.2690    9.4106   -0.0000 C   0  0  0  0  0  0  0  0  0  0  0  0
  -12.2808   10.9163   -0.0000 C   0  0  0  0  0  0  0  0  0  0  0  0
  -13.5630    8.6813   -0.0000 C   0  0  0  0  0  0  0  0  0  0  0  0
  -13.5748   11.6691   -0.0000 C   0  0  0  0  0  0  0  0  0  0  0  0
  -14.8687    9.4459   -0.0000 C   0  0  0  0  0  0  0  0  0  0  0  0
  -14.8805   10.9398   -0.0000 N   0  0  0  0  0  0  0  0  0  0  0  0
  -16.1744   11.7044   -0.0000 C   0  0  0  0  0  0  0  0  0  0  0  0
  -16.1862   13.2101   -0.0000 C   0  0  0  0  0  0  0  0  0  0  0  0
  -17.4802   13.9747   -0.0000 O   0  0  0  0  0  0  0  0  0  0  0  0
  -17.4919   15.4804   -0.0000 C   0  0  0  0  0  0  0  0  0  0  0  0
  1  2  1  0  0  0  0
  2  3  2  0  0  0  0
  2  4  1  0  0  0  0
  3  5  1  0  0  0  0
  4  6  2  0  0  0  0
  5  7  2  0  0  0  0
  5  8  1  0  0  0  0
  8  9  1  1  0  0  0
  8 10  1  0  0  0  0
 10 11  1  0  0  0  0
 11 12  1  0  0  0  0
 12 13  2  0  0  0  0
 12 14  1  0  0  0  0
 13 15  1  0  0  0  0
 13 16  1  0  0  0  0
 14 17  2  0  0  0  0
 15 18  2  0  0  0  0
 15 19  1  0  0  0  0
 16 20  2  0  0  0  0
 16 21  1  0  0  0  0
 20 22  1  0  0  0  0
 21 23  1  0  0  0  0
 22 24  1  0  0  0  0
 23 25  1  0  0  0  0
 24 26  2  0  0  0  0
 24 27  1  0  0  0  0
 25 28  2  0  0  0  0
 28 29  1  0  0  0  0
 29 30  1  0  0  0  0
 29 31  1  0  0  0  0
 30 32  1  0  0  0  0
 31 33  1  0  0  0  0
 32 34  1  0  0  0  0
 34 35  1  0  0  0  0
 35 36  1  0  0  0  0
 36 37  1  0  0  0  0
 37 38  1  0  0  0  0
  6  7  1  0  0  0  0
 17 19  1  0  0  0  0
 22 23  2  0  0  0  0
 26 28  1  0  0  0  0
 33 34  1  0  0  0  0
M  END
>  <MolRegNo>
470724

>  <m>
=

>  <Value>
11000

>  <Unit>
nM

>  <Type>
IC50

>  <pValue>
4.96

>  <Ligand Efficiency>
0

>  <Binding Efficiency>
0

>  <Surface Efficiency>
0

>  <Assay Index>
361643

>  <Assay Category>


>  <Assay Organism>
Homo sapiens

>  <Target ID>
17045

>  <Target Name>
Cytochrome P450 3A4

>  <Target Organism>
Homo sapiens

>  <Target Description>
Target is a single protein chain

>  <Sequence Accession>
P08684

>  <Reference>
J Med Chem 51 (19), 5897-5900 (2008)

>  <Pubmed ID>
18763755

>  <DOI>
10.1021/jm800832q

$$$$
470723
Actelion Java MolfileCreator 1.0

 35 39  0  0  0  0  0  0  0  0999 V2000
    0.0000   -0.0000   -0.0000 Cl  0  0  0  0  0  0  0  0  0  0  0  0
   -1.5063    0.0118   -0.0000 C   0  0  0  0  0  0  0  0  0  0  0  0
   -2.2595    1.3063   -0.0000 C   0  0  0  0  0  0  0  0  0  0  0  0
   -2.2713   -1.2710   -0.0000 C   0  0  0  0  0  0  0  0  0  0  0  0
   -3.7541    1.3063   -0.0000 C   0  0  0  0  0  0  0  0  0  0  0  0
   -3.7776   -1.2592   -0.0000 C   0  0  0  0  0  0  0  0  0  0  0  0
   -4.5190    0.0353   -0.0000 C   0  0  0  0  0  0  0  0  0  0  0  0
   -4.5072    2.6125   -0.0000 C   0  0  0  0  0  0  0  0  0  0  0  0
   -6.0135    2.6243   -0.0000 O   0  0  0  0  0  0  0  0  0  0  0  0
   -3.7658    3.9188   -0.0000 C   0  0  0  0  0  0  0  0  0  0  0  0
   -4.5190    5.2251   -0.0000 N   0  0  0  0  0  0  0  0  0  0  0  0
   -3.7776    6.5196   -0.0000 C   0  0  0  0  0  0  0  0  0  0  0  0
   -4.5308    7.8258   -0.0000 C   0  0  0  0  0  0  0  0  0  0  0  0
   -2.3066    6.5313   -0.0000 C   0  0  0  0  0  0  0  0  0  0  0  0
   -3.8011    9.1321   -0.0000 C   0  0  0  0  0  0  0  0  0  0  0  0
   -6.0371    7.8376   -0.0000 C   0  0  0  0  0  0  0  0  0  0  0  0
   -1.5652    7.8258   -0.0000 C   0  0  0  0  0  0  0  0  0  0  0  0
   -4.5661   10.4384   -0.0000 O   0  0  0  0  0  0  0  0  0  0  0  0
   -2.3183    9.1321   -0.0000 N   0  0  0  0  0  0  0  0  0  0  0  0
   -6.9315    6.6373   -0.0000 N   0  0  0  0  0  0  0  0  0  0  0  0
   -6.9315    9.0615   -0.0000 N   0  0  0  0  0  0  0  0  0  0  0  0
   -8.3672    7.1080   -0.0000 C   0  0  0  0  0  0  0  0  0  0  0  0
   -8.3672    8.6143   -0.0000 C   0  0  0  0  0  0  0  0  0  0  0  0
   -9.6735    6.3784   -0.0000 C   0  0  0  0  0  0  0  0  0  0  0  0
   -9.6735    9.3675   -0.0000 C   0  0  0  0  0  0  0  0  0  0  0  0
  -10.9797    7.1315   -0.0000 C   0  0  0  0  0  0  0  0  0  0  0  0
   -9.6852    4.8956   -0.0000 C   0  0  0  0  0  0  0  0  0  0  0  0
  -10.9680    8.6379   -0.0000 C   0  0  0  0  0  0  0  0  0  0  0  0
  -12.2742    9.4028   -0.0000 C   0  0  0  0  0  0  0  0  0  0  0  0
  -12.2860   10.9091   -0.0000 C   0  0  0  0  0  0  0  0  0  0  0  0
  -13.5687    8.6732   -0.0000 C   0  0  0  0  0  0  0  0  0  0  0  0
  -13.5805   11.6623   -0.0000 C   0  0  0  0  0  0  0  0  0  0  0  0
  -14.8750    9.4381   -0.0000 C   0  0  0  0  0  0  0  0  0  0  0  0
  -14.8868   10.9326   -0.0000 N   0  0  0  0  0  0  0  0  0  0  0  0
  -16.1813   11.6976   -0.0000 C   0  0  0  0  0  0  0  0  0  0  0  0
  1  2  1  0  0  0  0
  2  3  2  0  0  0  0
  2  4  1  0  0  0  0
  3  5  1  0  0  0  0
  4  6  2  0  0  0  0
  5  7  2  0  0  0  0
  5  8  1  0  0  0  0
  8  9  1  1  0  0  0
  8 10  1  0  0  0  0
 10 11  1  0  0  0  0
 11 12  1  0  0  0  0
 12 13  2  0  0  0  0
 12 14  1  0  0  0  0
 13 15  1  0  0  0  0
 13 16  1  0  0  0  0
 14 17  2  0  0  0  0
 15 18  2  0  0  0  0
 15 19  1  0  0  0  0
 16 20  2  0  0  0  0
 16 21  1  0  0  0  0
 20 22  1  0  0  0  0
 21 23  1  0  0  0  0
 22 24  1  0  0  0  0
 23 25  1  0  0  0  0
 24 26  2  0  0  0  0
 24 27  1  0  0  0  0
 25 28  2  0  0  0  0
 28 29  1  0  0  0  0
 29 30  1  0  0  0  0
 29 31  1  0  0  0  0
 30 32  1  0  0  0  0
 31 33  1  0  0  0  0
 32 34  1  0  0  0  0
 34 35  1  0  0  0  0
  6  7  1  0  0  0  0
 17 19  1  0  0  0  0
 22 23  2  0  0  0  0
 26 28  1  0  0  0  0
 33 34  1  0  0  0  0
M  END
>  <MolRegNo>
470723

>  <m>
=

>  <Value>
14000

>  <Unit>
nM

>  <Type>
IC50

>  <pValue>
4.85

>  <Ligand Efficiency>
0

>  <Binding Efficiency>
0

>  <Surface Efficiency>
0

>  <Assay Index>
361643

>  <Assay Category>


>  <Assay Organism>
Homo sapiens

>  <Target ID>
17045

>  <Target Name>
Cytochrome P450 3A4

>  <Target Organism>
Homo sapiens

>  <Target Description>
Target is a single protein chain

>  <Sequence Accession>
P08684

>  <Reference>
J Med Chem 51 (19), 5897-5900 (2008)

>  <Pubmed ID>
18763755

>  <DOI>
10.1021/jm800832q

$$$$
468993
Actelion Java MolfileCreator 1.0

 31 36  0  0  0  0  0  0  0  0999 V2000
    0.0000   -0.0000   -0.0000 O   0  0  0  0  0  0  0  0  0  0  0  0
    1.4738   -0.1426   -0.0000 N   0  0  0  0  0  0  0  0  0  0  0  0
   -0.3209    1.4738   -0.0000 C   0  0  0  0  0  0  0  0  0  0  0  0
    2.0681    1.2361   -0.0000 C   0  0  0  0  0  0  0  0  0  0  0  0
   -1.6402    2.2226   -0.0000 C   0  0  0  0  0  0  0  0  0  0  0  0
    0.9627    2.2345   -0.0000 C   0  0  0  0  0  0  0  0  0  0  0  0
    3.5182    1.5570   -0.0000 N   0  0  0  0  0  0  0  0  0  0  0  0
   -2.9358    1.4738   -0.0000 C   0  0  0  0  0  0  0  0  0  0  0  0
   -1.6640    3.7321   -0.0000 C   0  0  0  0  0  0  0  0  0  0  0  0
    0.9390    3.7440   -0.0000 C   0  0  0  0  0  0  0  0  0  0  0  0
    4.5166    0.4517   -0.0000 C   0  0  0  0  0  0  0  0  0  0  0  0
   -4.2551    2.2226   -0.0000 C   0  0  0  0  0  0  0  0  0  0  0  0
   -2.9358   -0.0238   -0.0000 C   0  0  0  0  0  0  0  0  0  0  0  0
   -0.3922    4.5047   -0.0000 C   0  0  0  0  0  0  0  0  0  0  0  0
   -2.9833    4.4809   -0.0000 C   0  0  0  0  0  0  0  0  0  0  0  0
    4.8256   -0.9984   -0.0000 C   0  0  0  0  0  0  0  0  0  0  0  0
    5.9310   -0.0000   -0.0000 C   0  0  0  0  0  0  0  0  0  0  0  0
   -5.5625    1.4857   -0.0000 C   0  0  0  0  0  0  0  0  0  0  0  0
   -4.2432   -0.7607   -0.0000 C   0  0  0  0  0  0  0  0  0  0  0  0
   -5.5744   -0.0119   -0.0000 C   0  0  0  0  0  0  0  0  0  0  0  0
   -6.8699    2.2464   -0.0000 C   0  0  0  0  0  0  0  0  0  0  0  0
   -6.8818   -0.7607   -0.0000 C   0  0  0  0  0  0  0  0  0  0  0  0
   -8.1774    1.5095   -0.0000 N   0  0  0  0  0  0  0  0  0  0  0  0
   -8.1892   -0.0000   -0.0000 N   0  0  0  0  0  0  0  0  0  0  0  0
   -6.8937   -2.2464   -0.0000 C   0  0  0  0  0  0  0  0  0  0  0  0
   -8.2011   -2.9833   -0.0000 C   0  0  0  0  0  0  0  0  0  0  0  0
   -5.6100   -2.9714   -0.0000 C   0  0  0  0  0  0  0  0  0  0  0  0
   -8.2130   -4.4690   -0.0000 C   0  0  0  0  0  0  0  0  0  0  0  0
   -9.5086   -2.2226   -0.0000 C   0  0  0  0  0  0  0  0  0  0  0  0
   -5.6100   -4.4571   -0.0000 C   0  0  0  0  0  0  0  0  0  0  0  0
   -6.9175   -5.2059   -0.0000 C   0  0  0  0  0  0  0  0  0  0  0  0
  1  2  1  0  0  0  0
  1  3  1  0  0  0  0
  2  4  2  0  0  0  0
  3  5  2  0  0  0  0
  3  6  1  0  0  0  0
  4  7  1  0  0  0  0
  5  8  1  0  0  0  0
  5  9  1  0  0  0  0
  6 10  2  0  0  0  0
  7 11  1  0  0  0  0
  8 12  2  0  0  0  0
  8 13  1  0  0  0  0
  9 14  2  0  0  0  0
  9 15  1  0  0  0  0
 11 16  1  0  0  0  0
 11 17  1  0  0  0  0
 12 18  1  0  0  0  0
 13 19  2  0  0  0  0
 18 20  1  0  0  0  0
 18 21  2  0  0  0  0
 20 22  2  0  0  0  0
 21 23  1  0  0  0  0
 22 24  1  0  0  0  0
 22 25  1  0  0  0  0
 25 26  2  0  0  0  0
 25 27  1  0  0  0  0
 26 28  1  0  0  0  0
 26 29  1  0  0  0  0
 27 30  2  0  0  0  0
 28 31  2  0  0  0  0
  4  6  1  0  0  0  0
 10 14  1  0  0  0  0
 16 17  1  0  0  0  0
 19 20  1  0  0  0  0
 23 24  2  0  0  0  0
 30 31  1  0  0  0  0
M  END
>  <MolRegNo>
468993

>  <m>
=

>  <Value>
1800

>  <Unit>
nM

>  <Type>
IC50

>  <pValue>
5.75

>  <Ligand Efficiency>
0

>  <Binding Efficiency>
0

>  <Surface Efficiency>
0

>  <Assay Index>
388639

>  <Assay Category>


>  <Assay Organism>
Homo sapiens

>  <Target ID>
17045

>  <Target Name>
Cytochrome P450 3A4

>  <Target Organism>
Homo sapiens

>  <Target Description>
Target is a single protein chain

>  <Sequence Accession>
P08684

>  <Reference>
J Med Chem 51 (20), 6280-6292 (2008)

>  <Pubmed ID>
18817364

>  <DOI>
10.1021/jm8005405

$$$$
468996
Actelion Java MolfileCreator 1.0

 28 32  0  0  0  0  0  0  0  0999 V2000
    0.0000   -0.0000   -0.0000 S   0  0  0  0  0  0  0  0  0  0  0  0
    1.4723   -0.1425   -0.0000 N   0  0  0  0  0  0  0  0  0  0  0  0
   -0.3206    1.4723   -0.0000 C   0  0  0  0  0  0  0  0  0  0  0  0
    2.0659    1.2348   -0.0000 C   0  0  0  0  0  0  0  0  0  0  0  0
   -1.6385    2.2203   -0.0000 C   0  0  0  0  0  0  0  0  0  0  0  0
    0.9617    2.2321   -0.0000 C   0  0  0  0  0  0  0  0  0  0  0  0
    3.5144    1.5554   -0.0000 N   0  0  0  0  0  0  0  0  0  0  0  0
   -2.9445    1.4723   -0.0000 C   0  0  0  0  0  0  0  0  0  0  0  0
   -1.6622    3.7282   -0.0000 C   0  0  0  0  0  0  0  0  0  0  0  0
    0.9380    3.7400   -0.0000 C   0  0  0  0  0  0  0  0  0  0  0  0
   -4.2624    2.2203   -0.0000 C   0  0  0  0  0  0  0  0  0  0  0  0
   -2.9445   -0.0237   -0.0000 C   0  0  0  0  0  0  0  0  0  0  0  0
   -0.3918    4.4999   -0.0000 C   0  0  0  0  0  0  0  0  0  0  0  0
   -2.9801    4.4762   -0.0000 C   0  0  0  0  0  0  0  0  0  0  0  0
   -5.5685    1.4841   -0.0000 C   0  0  0  0  0  0  0  0  0  0  0  0
   -4.2506   -0.7599   -0.0000 C   0  0  0  0  0  0  0  0  0  0  0  0
   -5.5804   -0.0119   -0.0000 C   0  0  0  0  0  0  0  0  0  0  0  0
   -6.8745    2.2440   -0.0000 C   0  0  0  0  0  0  0  0  0  0  0  0
   -6.8864   -0.7599   -0.0000 C   0  0  0  0  0  0  0  0  0  0  0  0
   -8.1806    1.5079   -0.0000 N   0  0  0  0  0  0  0  0  0  0  0  0
   -8.1924   -0.0000   -0.0000 N   0  0  0  0  0  0  0  0  0  0  0  0
   -6.8983   -2.2440   -0.0000 N   0  0  0  0  0  0  0  0  0  0  0  0
   -5.6160   -2.9801   -0.0000 C   0  0  0  0  0  0  0  0  0  0  0  0
   -8.2043   -2.9920   -0.0000 C   0  0  0  0  0  0  0  0  0  0  0  0
   -5.6278   -4.4762   -0.0000 C   0  0  0  0  0  0  0  0  0  0  0  0
   -4.3337   -2.2203   -0.0000 C   0  0  0  0  0  0  0  0  0  0  0  0
   -8.2162   -4.4762   -0.0000 C   0  0  0  0  0  0  0  0  0  0  0  0
   -6.9339   -5.2123   -0.0000 O   0  0  0  0  0  0  0  0  0  0  0  0
  1  2  1  0  0  0  0
  1  3  1  0  0  0  0
  2  4  2  0  0  0  0
  3  5  2  0  0  0  0
  3  6  1  0  0  0  0
  4  7  1  0  0  0  0
  5  8  1  0  0  0  0
  5  9  1  0  0  0  0
  6 10  2  0  0  0  0
  8 11  2  0  0  0  0
  8 12  1  0  0  0  0
  9 13  2  0  0  0  0
  9 14  1  0  0  0  0
 11 15  1  0  0  0  0
 12 16  2  0  0  0  0
 15 17  1  0  0  0  0
 15 18  2  0  0  0  0
 17 19  2  0  0  0  0
 18 20  1  0  0  0  0
 19 21  1  0  0  0  0
 19 22  1  0  0  0  0
 22 23  1  0  0  0  0
 22 24  1  0  0  0  0
 23 25  1  0  0  0  0
 23 26  1  1  0  0  0
 24 27  1  0  0  0  0
 25 28  1  0  0  0  0
  4  6  1  0  0  0  0
 10 13  1  0  0  0  0
 16 17  1  0  0  0  0
 20 21  2  0  0  0  0
 27 28  1  0  0  0  0
M  END
>  <MolRegNo>
468996

>  <m>
=

>  <Value>
4000

>  <Unit>
nM

>  <Type>
IC50

>  <pValue>
5.4

>  <Ligand Efficiency>
0

>  <Binding Efficiency>
0

>  <Surface Efficiency>
0

>  <Assay Index>
388639

>  <Assay Category>


>  <Assay Organism>
Homo sapiens

>  <Target ID>
17045

>  <Target Name>
Cytochrome P450 3A4

>  <Target Organism>
Homo sapiens

>  <Target Description>
Target is a single protein chain

>  <Sequence Accession>
P08684

>  <Reference>
J Med Chem 51 (20), 6280-6292 (2008)

>  <Pubmed ID>
18817364

>  <DOI>
10.1021/jm8005405

$$$$
469755
Actelion Java MolfileCreator 1.0

 31 35  0  0  0  0  0  0  0  0999 V2000
    0.0000   -0.0000   -0.0000 Cl  0  0  0  0  0  0  0  0  0  0  0  0
    1.3004   -0.7277   -0.0000 C   0  0  0  0  0  0  0  0  0  0  0  0
    1.3004   -2.2190   -0.0000 C   0  0  0  0  0  0  0  0  0  0  0  0
    2.5769    0.0477   -0.0000 C   0  0  0  0  0  0  0  0  0  0  0  0
    0.0000   -2.9705   -0.0000 C   0  0  0  0  0  0  0  0  0  0  0  0
    2.6007   -2.9467   -0.0000 C   0  0  0  0  0  0  0  0  0  0  0  0
    3.8772   -0.6800   -0.0000 C   0  0  0  0  0  0  0  0  0  0  0  0
   -1.3242   -2.2190   -0.0000 C   0  0  0  0  0  0  0  0  0  0  0  0
    0.0000   -4.4737   -0.0000 C   0  0  0  0  0  0  0  0  0  0  0  0
    2.8990   -4.4021   -0.0000 O   0  0  0  0  0  0  0  0  0  0  0  0
    3.8891   -2.1832   -0.0000 C   0  0  0  0  0  0  0  0  0  0  0  0
   -2.6365   -2.9586   -0.0000 C   0  0  0  0  0  0  0  0  0  0  0  0
   -1.3123   -5.2134   -0.0000 C   0  0  0  0  0  0  0  0  0  0  0  0
    4.3783   -4.5453   -0.0000 N   0  0  0  0  0  0  0  0  0  0  0  0
    4.9867   -3.1733   -0.0000 C   0  0  0  0  0  0  0  0  0  0  0  0
   -2.6484   -4.4618   -0.0000 C   0  0  0  0  0  0  0  0  0  0  0  0
   -3.9488   -2.1951   -0.0000 C   0  0  0  0  0  0  0  0  0  0  0  0
    6.4421   -2.8512   -0.0000 N   0  0  0  0  0  0  0  0  0  0  0  0
   -3.9607   -5.2134   -0.0000 C   0  0  0  0  0  0  0  0  0  0  0  0
   -5.2611   -2.9347   -0.0000 N   0  0  0  0  0  0  0  0  0  0  0  0
    7.4442   -3.9607   -0.0000 C   0  0  0  0  0  0  0  0  0  0  0  0
   -5.2730   -4.4498   -0.0000 N   0  0  0  0  0  0  0  0  0  0  0  0
   -3.9726   -6.7046   -0.0000 N   0  0  0  0  0  0  0  0  0  0  0  0
    8.8997   -3.6386   -0.0000 C   0  0  0  0  0  0  0  0  0  0  0  0
    6.9670   -5.3804   -0.0000 C   0  0  0  0  0  0  0  0  0  0  0  0
   -2.6842   -7.4323   -0.0000 C   0  0  0  0  0  0  0  0  0  0  0  0
   -5.2849   -7.4442   -0.0000 C   0  0  0  0  0  0  0  0  0  0  0  0
   -2.6842   -8.9235   -0.0000 C   0  0  0  0  0  0  0  0  0  0  0  0
   -1.3958   -6.6569   -0.0000 C   0  0  0  0  0  0  0  0  0  0  0  0
   -5.2969   -8.9355   -0.0000 C   0  0  0  0  0  0  0  0  0  0  0  0
   -4.0084   -9.6751   -0.0000 O   0  0  0  0  0  0  0  0  0  0  0  0
  1  2  1  0  0  0  0
  2  3  2  0  0  0  0
  2  4  1  0  0  0  0
  3  5  1  0  0  0  0
  3  6  1  0  0  0  0
  4  7  2  0  0  0  0
  5  8  2  0  0  0  0
  5  9  1  0  0  0  0
  6 10  1  0  0  0  0
  6 11  2  0  0  0  0
  8 12  1  0  0  0  0
  9 13  2  0  0  0  0
 10 14  1  0  0  0  0
 11 15  1  0  0  0  0
 12 16  1  0  0  0  0
 12 17  2  0  0  0  0
 15 18  1  0  0  0  0
 16 19  2  0  0  0  0
 17 20  1  0  0  0  0
 18 21  1  0  0  0  0
 19 22  1  0  0  0  0
 19 23  1  0  0  0  0
 21 24  1  0  0  0  0
 21 25  1  0  0  0  0
 23 26  1  0  0  0  0
 23 27  1  0  0  0  0
 26 28  1  0  0  0  0
 26 29  1  1  0  0  0
 27 30  1  0  0  0  0
 28 31  1  0  0  0  0
  7 11  1  0  0  0  0
 13 16  1  0  0  0  0
 14 15  2  0  0  0  0
 20 22  2  0  0  0  0
 30 31  1  0  0  0  0
M  END
>  <MolRegNo>
469755

>  <m>
=

>  <Value>
4500

>  <Unit>
nM

>  <Type>
IC50

>  <pValue>
5.35

>  <Ligand Efficiency>
0

>  <Binding Efficiency>
0

>  <Surface Efficiency>
0

>  <Assay Index>
388639

>  <Assay Category>


>  <Assay Organism>
Homo sapiens

>  <Target ID>
17045

>  <Target Name>
Cytochrome P450 3A4

>  <Target Organism>
Homo sapiens

>  <Target Description>
Target is a single protein chain

>  <Sequence Accession>
P08684

>  <Reference>
J Med Chem 51 (20), 6280-6292 (2008)

>  <Pubmed ID>
18817364

>  <DOI>
10.1021/jm8005405

$$$$
469687
Actelion Java MolfileCreator 1.0

 29 33  0  0  0  0  0  0  0  0999 V2000
    0.0000   -0.0000   -0.0000 Cl  0  0  0  0  0  0  0  0  0  0  0  0
    1.3000   -0.7276   -0.0000 C   0  0  0  0  0  0  0  0  0  0  0  0
    1.3000   -2.2184   -0.0000 C   0  0  0  0  0  0  0  0  0  0  0  0
    2.5762    0.0477   -0.0000 C   0  0  0  0  0  0  0  0  0  0  0  0
    0.0000   -2.9698   -0.0000 C   0  0  0  0  0  0  0  0  0  0  0  0
    2.6001   -2.9460   -0.0000 C   0  0  0  0  0  0  0  0  0  0  0  0
    3.8763   -0.6798   -0.0000 C   0  0  0  0  0  0  0  0  0  0  0  0
   -1.3239   -2.2184   -0.0000 C   0  0  0  0  0  0  0  0  0  0  0  0
    0.0000   -4.4726   -0.0000 C   0  0  0  0  0  0  0  0  0  0  0  0
    2.8983   -4.4011   -0.0000 O   0  0  0  0  0  0  0  0  0  0  0  0
    3.8882   -2.1827   -0.0000 C   0  0  0  0  0  0  0  0  0  0  0  0
   -2.6359   -2.9579   -0.0000 C   0  0  0  0  0  0  0  0  0  0  0  0
   -1.3120   -5.2121   -0.0000 C   0  0  0  0  0  0  0  0  0  0  0  0
    4.3772   -4.5442   -0.0000 N   0  0  0  0  0  0  0  0  0  0  0  0
    4.9855   -3.1726   -0.0000 C   0  0  0  0  0  0  0  0  0  0  0  0
   -2.6478   -4.4607   -0.0000 C   0  0  0  0  0  0  0  0  0  0  0  0
   -3.9479   -2.1946   -0.0000 C   0  0  0  0  0  0  0  0  0  0  0  0
    6.4406   -2.8506   -0.0000 N   0  0  0  0  0  0  0  0  0  0  0  0
   -3.9598   -5.2121   -0.0000 C   0  0  0  0  0  0  0  0  0  0  0  0
   -5.2598   -2.9341   -0.0000 N   0  0  0  0  0  0  0  0  0  0  0  0
    7.4425   -3.9598   -0.0000 C   0  0  0  0  0  0  0  0  0  0  0  0
   -5.2718   -4.4488   -0.0000 N   0  0  0  0  0  0  0  0  0  0  0  0
   -3.9717   -6.7030   -0.0000 N   0  0  0  0  0  0  0  0  0  0  0  0
   -2.6836   -7.4306   -0.0000 C   0  0  0  0  0  0  0  0  0  0  0  0
   -5.2837   -7.4425   -0.0000 C   0  0  0  0  0  0  0  0  0  0  0  0
   -2.6836   -8.9214   -0.0000 C   0  0  0  0  0  0  0  0  0  0  0  0
   -1.3955   -6.6553   -0.0000 C   0  0  0  0  0  0  0  0  0  0  0  0
   -5.2956   -8.9334   -0.0000 C   0  0  0  0  0  0  0  0  0  0  0  0
   -4.0075   -9.6728   -0.0000 O   0  0  0  0  0  0  0  0  0  0  0  0
  1  2  1  0  0  0  0
  2  3  2  0  0  0  0
  2  4  1  0  0  0  0
  3  5  1  0  0  0  0
  3  6  1  0  0  0  0
  4  7  2  0  0  0  0
  5  8  2  0  0  0  0
  5  9  1  0  0  0  0
  6 10  1  0  0  0  0
  6 11  2  0  0  0  0
  8 12  1  0  0  0  0
  9 13  2  0  0  0  0
 10 14  1  0  0  0  0
 11 15  1  0  0  0  0
 12 16  1  0  0  0  0
 12 17  2  0  0  0  0
 15 18  1  0  0  0  0
 16 19  2  0  0  0  0
 17 20  1  0  0  0  0
 18 21  1  0  0  0  0
 19 22  1  0  0  0  0
 19 23  1  0  0  0  0
 23 24  1  0  0  0  0
 23 25  1  0  0  0  0
 24 26  1  0  0  0  0
 24 27  1  1  0  0  0
 25 28  1  0  0  0  0
 26 29  1  0  0  0  0
  7 11  1  0  0  0  0
 13 16  1  0  0  0  0
 14 15  2  0  0  0  0
 20 22  2  0  0  0  0
 28 29  1  0  0  0  0
M  END
>  <MolRegNo>
469687

>  <m>
=

>  <Value>
6000

>  <Unit>
nM

>  <Type>
IC50

>  <pValue>
5.22

>  <Ligand Efficiency>
0

>  <Binding Efficiency>
0

>  <Surface Efficiency>
0

>  <Assay Index>
388639

>  <Assay Category>


>  <Assay Organism>
Homo sapiens

>  <Target ID>
17045

>  <Target Name>
Cytochrome P450 3A4

>  <Target Organism>
Homo sapiens

>  <Target Description>
Target is a single protein chain

>  <Sequence Accession>
P08684

>  <Reference>
J Med Chem 51 (20), 6280-6292 (2008)

>  <Pubmed ID>
18817364

>  <DOI>
10.1021/jm8005405

$$$$
469684
Actelion Java MolfileCreator 1.0

 28 32  0  0  0  0  0  0  0  0999 V2000
    0.0000   -0.0000   -0.0000 O   0  0  0  0  0  0  0  0  0  0  0  0
    1.2918    0.7704   -0.0000 C   0  0  0  0  0  0  0  0  0  0  0  0
   -1.3156    0.7585   -0.0000 C   0  0  0  0  0  0  0  0  0  0  0  0
    1.2681    2.2755   -0.0000 C   0  0  0  0  0  0  0  0  0  0  0  0
   -1.3274    2.2755   -0.0000 C   0  0  0  0  0  0  0  0  0  0  0  0
   -0.0474    3.0222   -0.0000 N   0  0  0  0  0  0  0  0  0  0  0  0
    2.5481    3.0459   -0.0000 C   0  0  0  0  0  0  0  0  0  0  0  0
   -0.0593    4.5392   -0.0000 C   0  0  0  0  0  0  0  0  0  0  0  0
   -1.3748    5.2978   -0.0000 N   0  0  0  0  0  0  0  0  0  0  0  0
    1.2326    5.3096   -0.0000 C   0  0  0  0  0  0  0  0  0  0  0  0
   -1.3867    6.8148   -0.0000 N   0  0  0  0  0  0  0  0  0  0  0  0
    1.2207    6.8266   -0.0000 C   0  0  0  0  0  0  0  0  0  0  0  0
    2.5244    4.5748   -0.0000 C   0  0  0  0  0  0  0  0  0  0  0  0
   -0.1067    7.5733   -0.0000 C   0  0  0  0  0  0  0  0  0  0  0  0
    2.5007    7.5970   -0.0000 C   0  0  0  0  0  0  0  0  0  0  0  0
    3.8163    5.3452   -0.0000 C   0  0  0  0  0  0  0  0  0  0  0  0
    3.7926    6.8622   -0.0000 C   0  0  0  0  0  0  0  0  0  0  0  0
    5.0726    7.6326   -0.0000 C   0  0  0  0  0  0  0  0  0  0  0  0
    5.0489    9.1377   -0.0000 C   0  0  0  0  0  0  0  0  0  0  0  0
    6.3644    6.9096   -0.0000 C   0  0  0  0  0  0  0  0  0  0  0  0
    6.3289    9.9081   -0.0000 C   0  0  0  0  0  0  0  0  0  0  0  0
    3.7333    9.8844   -0.0000 C   0  0  0  0  0  0  0  0  0  0  0  0
    6.6607    5.4637   -0.0000 O   0  0  0  0  0  0  0  0  0  0  0  0
    7.6444    7.6681   -0.0000 C   0  0  0  0  0  0  0  0  0  0  0  0
    7.6326    9.1733   -0.0000 C   0  0  0  0  0  0  0  0  0  0  0  0
    8.1303    5.3215   -0.0000 N   0  0  0  0  0  0  0  0  0  0  0  0
    8.7466    6.6844   -0.0000 C   0  0  0  0  0  0  0  0  0  0  0  0
   10.2044    7.0044   -0.0000 N   0  0  0  0  0  0  0  0  0  0  0  0
  1  2  1  0  0  0  0
  1  3  1  0  0  0  0
  2  4  1  0  0  0  0
  3  5  1  0  0  0  0
  4  6  1  0  0  0  0
  4  7  1  1  0  0  0
  6  8  1  0  0  0  0
  8  9  2  0  0  0  0
  8 10  1  0  0  0  0
  9 11  1  0  0  0  0
 10 12  1  0  0  0  0
 10 13  2  0  0  0  0
 11 14  2  0  0  0  0
 12 15  2  0  0  0  0
 13 16  1  0  0  0  0
 15 17  1  0  0  0  0
 17 18  1  0  0  0  0
 18 19  2  0  0  0  0
 18 20  1  0  0  0  0
 19 21  1  0  0  0  0
 19 22  1  0  0  0  0
 20 23  1  0  0  0  0
 20 24  2  0  0  0  0
 21 25  2  0  0  0  0
 23 26  1  0  0  0  0
 24 27  1  0  0  0  0
 27 28  1  0  0  0  0
  5  6  1  0  0  0  0
 12 14  1  0  0  0  0
 16 17  2  0  0  0  0
 24 25  1  0  0  0  0
 26 27  2  0  0  0  0
M  END
>  <MolRegNo>
469684

>  <m>
=

>  <Value>
12000

>  <Unit>
nM

>  <Type>
IC50

>  <pValue>
4.92

>  <Ligand Efficiency>
0

>  <Binding Efficiency>
0

>  <Surface Efficiency>
0

>  <Assay Index>
388639

>  <Assay Category>


>  <Assay Organism>
Homo sapiens

>  <Target ID>
17045

>  <Target Name>
Cytochrome P450 3A4

>  <Target Organism>
Homo sapiens

>  <Target Description>
Target is a single protein chain

>  <Sequence Accession>
P08684

>  <Reference>
J Med Chem 51 (20), 6280-6292 (2008)

>  <Pubmed ID>
18817364

>  <DOI>
10.1021/jm8005405

$$$$
469056
Actelion Java MolfileCreator 1.0

 30 34  0  0  0  0  0  0  0  0999 V2000
    0.0000   -0.0000   -0.0000 O   0  0  0  0  0  0  0  0  0  0  0  0
    1.2925    0.7708   -0.0000 C   0  0  0  0  0  0  0  0  0  0  0  0
   -1.3162    0.7589   -0.0000 C   0  0  0  0  0  0  0  0  0  0  0  0
    1.2688    2.2767   -0.0000 C   0  0  0  0  0  0  0  0  0  0  0  0
   -1.3281    2.2767   -0.0000 C   0  0  0  0  0  0  0  0  0  0  0  0
   -0.0474    3.0238   -0.0000 N   0  0  0  0  0  0  0  0  0  0  0  0
    2.5495    3.0475   -0.0000 C   0  0  0  0  0  0  0  0  0  0  0  0
   -0.0593    4.5416   -0.0000 C   0  0  0  0  0  0  0  0  0  0  0  0
   -1.3755    5.3005   -0.0000 N   0  0  0  0  0  0  0  0  0  0  0  0
    1.2332    5.3124   -0.0000 C   0  0  0  0  0  0  0  0  0  0  0  0
   -1.3874    6.8184   -0.0000 N   0  0  0  0  0  0  0  0  0  0  0  0
    1.2214    6.8302   -0.0000 C   0  0  0  0  0  0  0  0  0  0  0  0
    2.5258    4.5772   -0.0000 C   0  0  0  0  0  0  0  0  0  0  0  0
   -0.1067    7.5773   -0.0000 C   0  0  0  0  0  0  0  0  0  0  0  0
    2.5020    7.6010   -0.0000 C   0  0  0  0  0  0  0  0  0  0  0  0
    3.8183    5.3480   -0.0000 C   0  0  0  0  0  0  0  0  0  0  0  0
    3.7946    6.8658   -0.0000 C   0  0  0  0  0  0  0  0  0  0  0  0
    5.0752    7.6366   -0.0000 C   0  0  0  0  0  0  0  0  0  0  0  0
    5.0515    9.1425   -0.0000 C   0  0  0  0  0  0  0  0  0  0  0  0
    6.3678    6.9132   -0.0000 C   0  0  0  0  0  0  0  0  0  0  0  0
    6.3322    9.9133   -0.0000 C   0  0  0  0  0  0  0  0  0  0  0  0
    3.7353    9.8896   -0.0000 C   0  0  0  0  0  0  0  0  0  0  0  0
    6.6642    5.4666   -0.0000 O   0  0  0  0  0  0  0  0  0  0  0  0
    7.6484    7.6722   -0.0000 C   0  0  0  0  0  0  0  0  0  0  0  0
    7.6366    9.1781   -0.0000 C   0  0  0  0  0  0  0  0  0  0  0  0
    8.1346    5.3243   -0.0000 N   0  0  0  0  0  0  0  0  0  0  0  0
    8.7512    6.6879   -0.0000 C   0  0  0  0  0  0  0  0  0  0  0  0
   10.2098    7.0081   -0.0000 N   0  0  0  0  0  0  0  0  0  0  0  0
   11.2058    5.9053   -0.0000 C   0  0  0  0  0  0  0  0  0  0  0  0
   10.7315    4.4942   -0.0000 C   0  0  0  0  0  0  0  0  0  0  0  0
  1  2  1  0  0  0  0
  1  3  1  0  0  0  0
  2  4  1  0  0  0  0
  3  5  1  0  0  0  0
  4  6  1  0  0  0  0
  4  7  1  1  0  0  0
  6  8  1  0  0  0  0
  8  9  2  0  0  0  0
  8 10  1  0  0  0  0
  9 11  1  0  0  0  0
 10 12  1  0  0  0  0
 10 13  2  0  0  0  0
 11 14  2  0  0  0  0
 12 15  2  0  0  0  0
 13 16  1  0  0  0  0
 15 17  1  0  0  0  0
 17 18  1  0  0  0  0
 18 19  2  0  0  0  0
 18 20  1  0  0  0  0
 19 21  1  0  0  0  0
 19 22  1  0  0  0  0
 20 23  1  0  0  0  0
 20 24  2  0  0  0  0
 21 25  2  0  0  0  0
 23 26  1  0  0  0  0
 24 27  1  0  0  0  0
 27 28  1  0  0  0  0
 28 29  1  0  0  0  0
 29 30  1  0  0  0  0
  5  6  1  0  0  0  0
 12 14  1  0  0  0  0
 16 17  2  0  0  0  0
 24 25  1  0  0  0  0
 26 27  2  0  0  0  0
M  END
>  <MolRegNo>
469056

>  <m>
=

>  <Value>
10000

>  <Unit>
nM

>  <Type>
IC50

>  <pValue>
5

>  <Ligand Efficiency>
0

>  <Binding Efficiency>
0

>  <Surface Efficiency>
0

>  <Assay Index>
388639

>  <Assay Category>


>  <Assay Organism>
Homo sapiens

>  <Target ID>
17045

>  <Target Name>
Cytochrome P450 3A4

>  <Target Organism>
Homo sapiens

>  <Target Description>
Target is a single protein chain

>  <Sequence Accession>
P08684

>  <Reference>
J Med Chem 51 (20), 6280-6292 (2008)

>  <Pubmed ID>
18817364

>  <DOI>
10.1021/jm8005405

$$$$
469055
Actelion Java MolfileCreator 1.0

 28 32  0  0  0  0  0  0  0  0999 V2000
    0.0000   -0.0000   -0.0000 O   0  0  0  0  0  0  0  0  0  0  0  0
    1.4725   -0.1425   -0.0000 N   0  0  0  0  0  0  0  0  0  0  0  0
   -0.3206    1.4725   -0.0000 C   0  0  0  0  0  0  0  0  0  0  0  0
    2.0663    1.2350   -0.0000 C   0  0  0  0  0  0  0  0  0  0  0  0
   -1.6388    2.2206   -0.0000 C   0  0  0  0  0  0  0  0  0  0  0  0
    0.9619    2.2325   -0.0000 C   0  0  0  0  0  0  0  0  0  0  0  0
    3.5150    1.5556   -0.0000 N   0  0  0  0  0  0  0  0  0  0  0  0
   -2.9331    1.4725   -0.0000 C   0  0  0  0  0  0  0  0  0  0  0  0
   -1.6625    3.7288   -0.0000 C   0  0  0  0  0  0  0  0  0  0  0  0
    0.9381    3.7406   -0.0000 C   0  0  0  0  0  0  0  0  0  0  0  0
    4.5125    0.4513   -0.0000 C   0  0  0  0  0  0  0  0  0  0  0  0
   -4.2513    2.2206   -0.0000 C   0  0  0  0  0  0  0  0  0  0  0  0
   -2.9331   -0.0238   -0.0000 C   0  0  0  0  0  0  0  0  0  0  0  0
   -0.3919    4.5007   -0.0000 C   0  0  0  0  0  0  0  0  0  0  0  0
   -2.9806    4.4769   -0.0000 C   0  0  0  0  0  0  0  0  0  0  0  0
    4.8213   -0.9975   -0.0000 C   0  0  0  0  0  0  0  0  0  0  0  0
    5.9257   -0.0000   -0.0000 C   0  0  0  0  0  0  0  0  0  0  0  0
   -5.5575    1.4844   -0.0000 C   0  0  0  0  0  0  0  0  0  0  0  0
   -4.2394   -0.7600   -0.0000 C   0  0  0  0  0  0  0  0  0  0  0  0
   -5.5694   -0.0119   -0.0000 C   0  0  0  0  0  0  0  0  0  0  0  0
   -6.8638    2.2444   -0.0000 C   0  0  0  0  0  0  0  0  0  0  0  0
   -6.8757   -0.7600   -0.0000 C   0  0  0  0  0  0  0  0  0  0  0  0
   -8.1701    1.5081   -0.0000 N   0  0  0  0  0  0  0  0  0  0  0  0
   -8.1819   -0.0000   -0.0000 N   0  0  0  0  0  0  0  0  0  0  0  0
   -6.8875   -2.2444   -0.0000 N   0  0  0  0  0  0  0  0  0  0  0  0
   -8.1938   -2.9806   -0.0000 C   0  0  0  0  0  0  0  0  0  0  0  0
   -8.2057   -4.4650   -0.0000 C   0  0  0  0  0  0  0  0  0  0  0  0
   -9.5001   -2.2206   -0.0000 C   0  0  0  0  0  0  0  0  0  0  0  0
  1  2  1  0  0  0  0
  1  3  1  0  0  0  0
  2  4  2  0  0  0  0
  3  5  2  0  0  0  0
  3  6  1  0  0  0  0
  4  7  1  0  0  0  0
  5  8  1  0  0  0  0
  5  9  1  0  0  0  0
  6 10  2  0  0  0  0
  7 11  1  0  0  0  0
  8 12  2  0  0  0  0
  8 13  1  0  0  0  0
  9 14  2  0  0  0  0
  9 15  1  0  0  0  0
 11 16  1  0  0  0  0
 11 17  1  0  0  0  0
 12 18  1  0  0  0  0
 13 19  2  0  0  0  0
 18 20  1  0  0  0  0
 18 21  2  0  0  0  0
 20 22  2  0  0  0  0
 21 23  1  0  0  0  0
 22 24  1  0  0  0  0
 22 25  1  0  0  0  0
 25 26  1  0  0  0  0
 26 27  1  0  0  0  0
 26 28  1  0  0  0  0
  4  6  1  0  0  0  0
 10 14  1  0  0  0  0
 16 17  1  0  0  0  0
 19 20  1  0  0  0  0
 23 24  2  0  0  0  0
M  END
>  <MolRegNo>
469055

>  <m>
=

>  <Value>
5600

>  <Unit>
nM

>  <Type>
IC50

>  <pValue>
5.25

>  <Ligand Efficiency>
0

>  <Binding Efficiency>
0

>  <Surface Efficiency>
0

>  <Assay Index>
388639

>  <Assay Category>


>  <Assay Organism>
Homo sapiens

>  <Target ID>
17045

>  <Target Name>
Cytochrome P450 3A4

>  <Target Organism>
Homo sapiens

>  <Target Description>
Target is a single protein chain

>  <Sequence Accession>
P08684

>  <Reference>
J Med Chem 51 (20), 6280-6292 (2008)

>  <Pubmed ID>
18817364

>  <DOI>
10.1021/jm8005405

$$$$
469054
Actelion Java MolfileCreator 1.0

 34 39  0  0  0  0  0  0  0  0999 V2000
    0.0000   -0.0000   -0.0000 O   0  0  0  0  0  0  0  0  0  0  0  0
    1.2807    0.7708   -0.0000 C   0  0  0  0  0  0  0  0  0  0  0  0
    1.2689    2.2887   -0.0000 N   0  0  0  0  0  0  0  0  0  0  0  0
    2.5733    0.0356   -0.0000 C   0  0  0  0  0  0  0  0  0  0  0  0
    2.5615    3.0595   -0.0000 C   0  0  0  0  0  0  0  0  0  0  0  0
   -0.0474    3.0477   -0.0000 C   0  0  0  0  0  0  0  0  0  0  0  0
    2.5377    4.5656   -0.0000 C   0  0  0  0  0  0  0  0  0  0  0  0
   -0.0593    4.5656   -0.0000 C   0  0  0  0  0  0  0  0  0  0  0  0
    1.2214    5.3127   -0.0000 N   0  0  0  0  0  0  0  0  0  0  0  0
    3.8185    5.3364   -0.0000 C   0  0  0  0  0  0  0  0  0  0  0  0
    1.2096    6.8306   -0.0000 C   0  0  0  0  0  0  0  0  0  0  0  0
   -0.1067    7.5895   -0.0000 N   0  0  0  0  0  0  0  0  0  0  0  0
    2.5022    7.6014   -0.0000 C   0  0  0  0  0  0  0  0  0  0  0  0
   -0.1186    9.1074   -0.0000 N   0  0  0  0  0  0  0  0  0  0  0  0
    2.4903    9.1193   -0.0000 C   0  0  0  0  0  0  0  0  0  0  0  0
    3.7948    6.8661   -0.0000 C   0  0  0  0  0  0  0  0  0  0  0  0
    1.1621    9.8664   -0.0000 C   0  0  0  0  0  0  0  0  0  0  0  0
    3.7710    9.8901   -0.0000 C   0  0  0  0  0  0  0  0  0  0  0  0
    5.0874    7.6370   -0.0000 C   0  0  0  0  0  0  0  0  0  0  0  0
    5.0636    9.1549   -0.0000 C   0  0  0  0  0  0  0  0  0  0  0  0
    6.3444    9.9257   -0.0000 C   0  0  0  0  0  0  0  0  0  0  0  0
    6.3207   11.4317   -0.0000 C   0  0  0  0  0  0  0  0  0  0  0  0
    7.6370    9.2023   -0.0000 C   0  0  0  0  0  0  0  0  0  0  0  0
    7.6014   12.2025   -0.0000 C   0  0  0  0  0  0  0  0  0  0  0  0
    5.0043   12.1788   -0.0000 C   0  0  0  0  0  0  0  0  0  0  0  0
    7.9334    7.7555   -0.0000 O   0  0  0  0  0  0  0  0  0  0  0  0
    8.9177    9.9613   -0.0000 C   0  0  0  0  0  0  0  0  0  0  0  0
    8.9058   11.4673   -0.0000 C   0  0  0  0  0  0  0  0  0  0  0  0
    9.4039    7.6132   -0.0000 N   0  0  0  0  0  0  0  0  0  0  0  0
   10.0205    8.9770   -0.0000 C   0  0  0  0  0  0  0  0  0  0  0  0
   11.4792    9.2972   -0.0000 N   0  0  0  0  0  0  0  0  0  0  0  0
   12.4753    8.1943   -0.0000 C   0  0  0  0  0  0  0  0  0  0  0  0
   12.7836    6.7357   -0.0000 C   0  0  0  0  0  0  0  0  0  0  0  0
   13.8983    7.7437   -0.0000 C   0  0  0  0  0  0  0  0  0  0  0  0
  1  2  2  0  0  0  0
  2  3  1  0  0  0  0
  2  4  1  0  0  0  0
  3  5  1  0  0  0  0
  3  6  1  0  0  0  0
  5  7  1  0  0  0  0
  6  8  1  0  0  0  0
  7  9  1  0  0  0  0
  7 10  1  1  0  0  0
  9 11  1  0  0  0  0
 11 12  2  0  0  0  0
 11 13  1  0  0  0  0
 12 14  1  0  0  0  0
 13 15  1  0  0  0  0
 13 16  2  0  0  0  0
 14 17  2  0  0  0  0
 15 18  2  0  0  0  0
 16 19  1  0  0  0  0
 18 20  1  0  0  0  0
 20 21  1  0  0  0  0
 21 22  2  0  0  0  0
 21 23  1  0  0  0  0
 22 24  1  0  0  0  0
 22 25  1  0  0  0  0
 23 26  1  0  0  0  0
 23 27  2  0  0  0  0
 24 28  2  0  0  0  0
 26 29  1  0  0  0  0
 27 30  1  0  0  0  0
 30 31  1  0  0  0  0
 31 32  1  0  0  0  0
 32 33  1  0  0  0  0
 32 34  1  0  0  0  0
  8  9  1  0  0  0  0
 15 17  1  0  0  0  0
 19 20  2  0  0  0  0
 27 28  1  0  0  0  0
 29 30  2  0  0  0  0
 33 34  1  0  0  0  0
M  END
>  <MolRegNo>
469054

>  <m>
=

>  <Value>
4200

>  <Unit>
nM

>  <Type>
IC50

>  <pValue>
5.38

>  <Ligand Efficiency>
0

>  <Binding Efficiency>
0

>  <Surface Efficiency>
0

>  <Assay Index>
388639

>  <Assay Category>


>  <Assay Organism>
Homo sapiens

>  <Target ID>
17045

>  <Target Name>
Cytochrome P450 3A4

>  <Target Organism>
Homo sapiens

>  <Target Description>
Target is a single protein chain

>  <Sequence Accession>
P08684

>  <Reference>
J Med Chem 51 (20), 6280-6292 (2008)

>  <Pubmed ID>
18817364

>  <DOI>
10.1021/jm8005405

$$$$
468994
Actelion Java MolfileCreator 1.0

 31 36  0  0  0  0  0  0  0  0999 V2000
    0.0000   -0.0000   -0.0000 O   0  0  0  0  0  0  0  0  0  0  0  0
    1.2924    0.7707   -0.0000 C   0  0  0  0  0  0  0  0  0  0  0  0
   -1.3162    0.7589   -0.0000 C   0  0  0  0  0  0  0  0  0  0  0  0
    1.2687    2.2766   -0.0000 C   0  0  0  0  0  0  0  0  0  0  0  0
   -1.3280    2.2766   -0.0000 C   0  0  0  0  0  0  0  0  0  0  0  0
   -0.0474    3.0236   -0.0000 N   0  0  0  0  0  0  0  0  0  0  0  0
    2.5493    3.0473   -0.0000 C   0  0  0  0  0  0  0  0  0  0  0  0
   -0.0593    4.5413   -0.0000 C   0  0  0  0  0  0  0  0  0  0  0  0
   -1.3754    5.3002   -0.0000 N   0  0  0  0  0  0  0  0  0  0  0  0
    1.2332    5.3121   -0.0000 C   0  0  0  0  0  0  0  0  0  0  0  0
   -1.3873    6.8179   -0.0000 N   0  0  0  0  0  0  0  0  0  0  0  0
    1.2213    6.8298   -0.0000 C   0  0  0  0  0  0  0  0  0  0  0  0
    2.5256    4.5769   -0.0000 C   0  0  0  0  0  0  0  0  0  0  0  0
   -0.1067    7.5768   -0.0000 C   0  0  0  0  0  0  0  0  0  0  0  0
    2.5019    7.6005   -0.0000 C   0  0  0  0  0  0  0  0  0  0  0  0
    3.8180    5.3476   -0.0000 C   0  0  0  0  0  0  0  0  0  0  0  0
    3.7943    6.8772   -0.0000 C   0  0  0  0  0  0  0  0  0  0  0  0
    5.0749    7.6479   -0.0000 C   0  0  0  0  0  0  0  0  0  0  0  0
    5.0512    9.1538   -0.0000 C   0  0  0  0  0  0  0  0  0  0  0  0
    6.3674    6.9246   -0.0000 C   0  0  0  0  0  0  0  0  0  0  0  0
    6.3318    9.9245   -0.0000 C   0  0  0  0  0  0  0  0  0  0  0  0
    3.7350    9.9008   -0.0000 C   0  0  0  0  0  0  0  0  0  0  0  0
    6.6638    5.4781   -0.0000 O   0  0  0  0  0  0  0  0  0  0  0  0
    7.6479    7.6835   -0.0000 C   0  0  0  0  0  0  0  0  0  0  0  0
    7.6361    9.1894   -0.0000 C   0  0  0  0  0  0  0  0  0  0  0  0
    8.1341    5.3358   -0.0000 N   0  0  0  0  0  0  0  0  0  0  0  0
    8.7507    6.6994   -0.0000 C   0  0  0  0  0  0  0  0  0  0  0  0
   10.2091    7.0195   -0.0000 N   0  0  0  0  0  0  0  0  0  0  0  0
   11.2051    5.9168   -0.0000 C   0  0  0  0  0  0  0  0  0  0  0  0
   11.5134    4.4583   -0.0000 C   0  0  0  0  0  0  0  0  0  0  0  0
   12.6280    5.4662   -0.0000 C   0  0  0  0  0  0  0  0  0  0  0  0
  1  2  1  0  0  0  0
  1  3  1  0  0  0  0
  2  4  1  0  0  0  0
  3  5  1  0  0  0  0
  4  6  1  0  0  0  0
  4  7  1  1  0  0  0
  6  8  1  0  0  0  0
  8  9  2  0  0  0  0
  8 10  1  0  0  0  0
  9 11  1  0  0  0  0
 10 12  1  0  0  0  0
 10 13  2  0  0  0  0
 11 14  2  0  0  0  0
 12 15  2  0  0  0  0
 13 16  1  0  0  0  0
 15 17  1  0  0  0  0
 17 18  1  0  0  0  0
 18 19  2  0  0  0  0
 18 20  1  0  0  0  0
 19 21  1  0  0  0  0
 19 22  1  0  0  0  0
 20 23  1  0  0  0  0
 20 24  2  0  0  0  0
 21 25  2  0  0  0  0
 23 26  1  0  0  0  0
 24 27  1  0  0  0  0
 27 28  1  0  0  0  0
 28 29  1  0  0  0  0
 29 30  1  0  0  0  0
 29 31  1  0  0  0  0
  5  6  1  0  0  0  0
 12 14  1  0  0  0  0
 16 17  2  0  0  0  0
 24 25  1  0  0  0  0
 26 27  2  0  0  0  0
 30 31  1  0  0  0  0
M  END
>  <MolRegNo>
468994

>  <m>
=

>  <Value>
5600

>  <Unit>
nM

>  <Type>
IC50

>  <pValue>
5.25

>  <Ligand Efficiency>
0

>  <Binding Efficiency>
0

>  <Surface Efficiency>
0

>  <Assay Index>
388639

>  <Assay Category>


>  <Assay Organism>
Homo sapiens

>  <Target ID>
17045

>  <Target Name>
Cytochrome P450 3A4

>  <Target Organism>
Homo sapiens

>  <Target Description>
Target is a single protein chain

>  <Sequence Accession>
P08684

>  <Reference>
J Med Chem 51 (20), 6280-6292 (2008)

>  <Pubmed ID>
18817364

>  <DOI>
10.1021/jm8005405

$$$$
299187
Actelion Java MolfileCreator 1.0

 36 39  0  0  0  0  0  0  0  0999 V2000
    0.0000   -0.0000   -0.0000 F   0  0  0  0  0  0  0  0  0  0  0  0
    0.0000    1.5134   -0.0000 C   0  0  0  0  0  0  0  0  0  0  0  0
    1.2888    2.2702   -0.0000 C   0  0  0  0  0  0  0  0  0  0  0  0
   -1.3124    2.2820   -0.0000 C   0  0  0  0  0  0  0  0  0  0  0  0
    2.5776    1.5253   -0.0000 O   0  0  0  0  0  0  0  0  0  0  0  0
    1.2770    3.7836   -0.0000 C   0  0  0  0  0  0  0  0  0  0  0  0
   -2.6130    1.5489   -0.0000 C   0  0  0  0  0  0  0  0  0  0  0  0
   -1.3243    3.7836   -0.0000 C   0  0  0  0  0  0  0  0  0  0  0  0
    3.8664    2.2820   -0.0000 C   0  0  0  0  0  0  0  0  0  0  0  0
   -0.0355    4.5521   -0.0000 C   0  0  0  0  0  0  0  0  0  0  0  0
   -3.9137    2.3175   -0.0000 C   0  0  0  0  0  0  0  0  0  0  0  0
   -2.6249    0.0591   -0.0000 C   0  0  0  0  0  0  0  0  0  0  0  0
   -3.9255    3.8309   -0.0000 O   0  0  0  0  0  0  0  0  0  0  0  0
   -5.2143    1.5726   -0.0000 N   0  0  0  0  0  0  0  0  0  0  0  0
   -3.9255   -0.6740   -0.0000 N   0  0  0  0  0  0  0  0  0  0  0  0
   -1.3479   -0.6740   -0.0000 C   0  0  0  0  0  0  0  0  0  0  0  0
   -5.2261    0.0828   -0.0000 C   0  0  0  0  0  0  0  0  0  0  0  0
   -6.5267    2.3293   -0.0000 C   0  0  0  0  0  0  0  0  0  0  0  0
   -3.9373   -2.1637   -0.0000 C   0  0  0  0  0  0  0  0  0  0  0  0
   -6.5385   -0.6621   -0.0000 O   0  0  0  0  0  0  0  0  0  0  0  0
   -7.8391    1.5844   -0.0000 C   0  0  0  0  0  0  0  0  0  0  0  0
   -2.6485   -2.8968   -0.0000 C   0  0  0  0  0  0  0  0  0  0  0  0
   -7.8510    0.0946   -0.0000 N   0  0  0  0  0  0  0  0  0  0  0  0
   -9.1516    2.3411   -0.0000 C   0  0  0  0  0  0  0  0  0  0  0  0
   -2.6722   -4.3866   -0.0000 C   0  0  0  0  0  0  0  0  0  0  0  0
   -1.3716   -2.1401   -0.0000 C   0  0  0  0  0  0  0  0  0  0  0  0
   -9.1634    3.8545   -0.0000 C   0  0  0  0  0  0  0  0  0  0  0  0
  -10.4640    1.6080   -0.0000 C   0  0  0  0  0  0  0  0  0  0  0  0
   -3.9846   -5.1197   -0.0000 F   0  0  0  0  0  0  0  0  0  0  0  0
   -1.3834   -5.1197   -0.0000 C   0  0  0  0  0  0  0  0  0  0  0  0
   -0.0946   -1.3716   -0.0000 F   0  0  0  0  0  0  0  0  0  0  0  0
   -0.0828   -2.8732   -0.0000 C   0  0  0  0  0  0  0  0  0  0  0  0
  -10.4758    4.6113   -0.0000 C   0  0  0  0  0  0  0  0  0  0  0  0
  -11.7764    2.3647   -0.0000 C   0  0  0  0  0  0  0  0  0  0  0  0
   -0.0946   -4.3630   -0.0000 C   0  0  0  0  0  0  0  0  0  0  0  0
  -11.7883    3.8664   -0.0000 C   0  0  0  0  0  0  0  0  0  0  0  0
  1  2  1  0  0  0  0
  2  3  2  0  0  0  0
  2  4  1  0  0  0  0
  3  5  1  0  0  0  0
  3  6  1  0  0  0  0
  4  7  1  0  0  0  0
  4  8  2  0  0  0  0
  5  9  1  0  0  0  0
  6 10  2  0  0  0  0
  7 11  1  0  0  0  0
  7 12  2  0  0  0  0
 11 13  2  0  0  0  0
 11 14  1  0  0  0  0
 12 15  1  0  0  0  0
 12 16  1  0  0  0  0
 14 17  1  0  0  0  0
 14 18  1  0  0  0  0
 15 19  1  0  0  0  0
 17 20  2  0  0  0  0
 18 21  1  0  0  0  0
 19 22  1  0  0  0  0
 21 23  1  6  0  0  0
 21 24  1  0  0  0  0
 22 25  2  0  0  0  0
 22 26  1  0  0  0  0
 24 27  2  0  0  0  0
 24 28  1  0  0  0  0
 25 29  1  0  0  0  0
 25 30  1  0  0  0  0
 26 31  1  0  0  0  0
 26 32  2  0  0  0  0
 27 33  1  0  0  0  0
 28 34  2  0  0  0  0
 30 35  2  0  0  0  0
 33 36  2  0  0  0  0
  8 10  1  0  0  0  0
 15 17  1  0  0  0  0
 32 35  1  0  0  0  0
 34 36  1  0  0  0  0
M  END
>  <MolRegNo>
299187

>  <m>
=

>  <Value>
700

>  <Unit>
nM

>  <Type>
IC50

>  <pValue>
6.16

>  <Ligand Efficiency>
0

>  <Binding Efficiency>
0

>  <Surface Efficiency>
0

>  <Assay Index>
343998

>  <Assay Category>


>  <Assay Organism>


>  <Target ID>
17045

>  <Target Name>
Cytochrome P450 3A4

>  <Target Organism>
Homo sapiens

>  <Target Description>
Target is a single protein chain

>  <Sequence Accession>
P08684

>  <Reference>
J Med Chem 51 (23), 7478-7485 (2008)

>  <Pubmed ID>
19006286

>  <DOI>
10.1021/jm8006454

$$$$
515209
Actelion Java MolfileCreator 1.0

 46 49  0  0  0  0  0  0  0  0999 V2000
    0.0000   -0.0000   -0.0000 F   0  0  0  0  0  0  0  0  0  0  0  0
   -0.0119    1.5088   -0.0000 C   0  0  0  0  0  0  0  0  0  0  0  0
    1.2712    2.2573   -0.0000 C   0  0  0  0  0  0  0  0  0  0  0  0
   -1.3187    2.2691   -0.0000 C   0  0  0  0  0  0  0  0  0  0  0  0
    2.5543    1.5207   -0.0000 O   0  0  0  0  0  0  0  0  0  0  0  0
    1.2593    3.7660   -0.0000 C   0  0  0  0  0  0  0  0  0  0  0  0
   -2.6255    1.5444   -0.0000 C   0  0  0  0  0  0  0  0  0  0  0  0
   -1.3306    3.7779   -0.0000 C   0  0  0  0  0  0  0  0  0  0  0  0
    3.8492    2.2691   -0.0000 C   0  0  0  0  0  0  0  0  0  0  0  0
   -0.0475    4.5383   -0.0000 C   0  0  0  0  0  0  0  0  0  0  0  0
   -3.9324    2.3167   -0.0000 C   0  0  0  0  0  0  0  0  0  0  0  0
   -2.6374    0.0594   -0.0000 C   0  0  0  0  0  0  0  0  0  0  0  0
   -3.9442    3.8254   -0.0000 O   0  0  0  0  0  0  0  0  0  0  0  0
   -5.2392    1.5682   -0.0000 N   0  0  0  0  0  0  0  0  0  0  0  0
   -3.9442   -0.6772   -0.0000 N   0  0  0  0  0  0  0  0  0  0  0  0
   -1.3544   -0.6891   -0.0000 C   0  0  0  0  0  0  0  0  0  0  0  0
   -5.2511    0.0832   -0.0000 C   0  0  0  0  0  0  0  0  0  0  0  0
   -6.5579    2.3285   -0.0000 C   0  0  0  0  0  0  0  0  0  0  0  0
   -3.9561   -2.1622   -0.0000 C   0  0  0  0  0  0  0  0  0  0  0  0
   -6.5579   -0.6653   -0.0000 O   0  0  0  0  0  0  0  0  0  0  0  0
   -7.8647    1.5920   -0.0000 C   0  0  0  0  0  0  0  0  0  0  0  0
   -2.6612   -2.8988   -0.0000 C   0  0  0  0  0  0  0  0  0  0  0  0
   -7.8766    0.1069   -0.0000 N   0  0  0  0  0  0  0  0  0  0  0  0
   -9.1716    2.3523   -0.0000 C   0  0  0  0  0  0  0  0  0  0  0  0
   -1.3781   -2.1384   -0.0000 C   0  0  0  0  0  0  0  0  0  0  0  0
   -2.6849   -4.3957   -0.0000 C   0  0  0  0  0  0  0  0  0  0  0  0
   -9.1834   -0.6415   -0.0000 C   0  0  0  0  0  0  0  0  0  0  0  0
   -7.4964   -1.3306   -0.0000 C   0  0  0  0  0  0  0  0  0  0  0  0
   -9.1834    3.8611   -0.0000 C   0  0  0  0  0  0  0  0  0  0  0  0
  -10.4784    1.6157   -0.0000 C   0  0  0  0  0  0  0  0  0  0  0  0
   -0.0950   -1.3662   -0.0000 F   0  0  0  0  0  0  0  0  0  0  0  0
   -0.0950   -2.8631   -0.0000 C   0  0  0  0  0  0  0  0  0  0  0  0
   -1.4019   -5.1323   -0.0000 C   0  0  0  0  0  0  0  0  0  0  0  0
   -4.0036   -5.1323   -0.0000 C   0  0  0  0  0  0  0  0  0  0  0  0
   -9.1953   -2.1266   -0.0000 C   0  0  0  0  0  0  0  0  0  0  0  0
  -10.5022    4.6214   -0.0000 C   0  0  0  0  0  0  0  0  0  0  0  0
  -11.7971    2.3642   -0.0000 C   0  0  0  0  0  0  0  0  0  0  0  0
   -0.1069   -4.3601   -0.0000 C   0  0  0  0  0  0  0  0  0  0  0  0
   -5.3224   -5.8570   -0.0000 F   0  0  0  0  0  0  0  0  0  0  0  0
   -3.2671   -6.4272   -0.0000 F   0  0  0  0  0  0  0  0  0  0  0  0
   -4.7521   -3.8136   -0.0000 F   0  0  0  0  0  0  0  0  0  0  0  0
  -10.5022   -2.8631   -0.0000 C   0  0  0  0  0  0  0  0  0  0  0  0
  -11.8209    3.8730   -0.0000 C   0  0  0  0  0  0  0  0  0  0  0  0
  -10.5140   -4.3482   -0.0000 C   0  0  0  0  0  0  0  0  0  0  0  0
   -9.2191   -5.0848   -0.0000 O   0  0  0  0  0  0  0  0  0  0  0  0
  -11.8209   -5.0966   -0.0000 O   0  0  0  0  0  0  0  0  0  0  0  0
  1  2  1  0  0  0  0
  2  3  2  0  0  0  0
  2  4  1  0  0  0  0
  3  5  1  0  0  0  0
  3  6  1  0  0  0  0
  4  7  1  0  0  0  0
  4  8  2  0  0  0  0
  5  9  1  0  0  0  0
  6 10  2  0  0  0  0
  7 11  1  0  0  0  0
  7 12  2  0  0  0  0
 11 13  2  0  0  0  0
 11 14  1  0  0  0  0
 12 15  1  0  0  0  0
 12 16  1  0  0  0  0
 14 17  1  0  0  0  0
 14 18  1  0  0  0  0
 15 19  1  0  0  0  0
 17 20  2  0  0  0  0
 18 21  1  0  0  0  0
 19 22  1  0  0  0  0
 21 23  1  6  0  0  0
 21 24  1  0  0  0  0
 22 25  2  0  0  0  0
 22 26  1  0  0  0  0
 23 27  1  0  0  0  0
 23 28  1  0  0  0  0
 24 29  2  0  0  0  0
 24 30  1  0  0  0  0
 25 31  1  0  0  0  0
 25 32  1  0  0  0  0
 26 33  2  0  0  0  0
 26 34  1  0  0  0  0
 27 35  1  0  0  0  0
 29 36  1  0  0  0  0
 30 37  2  0  0  0  0
 32 38  2  0  0  0  0
 34 39  1  0  0  0  0
 34 40  1  0  0  0  0
 34 41  1  0  0  0  0
 35 42  1  0  0  0  0
 36 43  2  0  0  0  0
 42 44  1  0  0  0  0
 44 45  2  0  0  0  0
 44 46  1  0  0  0  0
  8 10  1  0  0  0  0
 15 17  1  0  0  0  0
 33 38  1  0  0  0  0
 37 43  1  0  0  0  0
M  END
>  <MolRegNo>
515209

>  <m>
=

>  <Value>
69000

>  <Unit>
nM

>  <Type>
IC50

>  <pValue>
4.16

>  <Ligand Efficiency>
0

>  <Binding Efficiency>
0

>  <Surface Efficiency>
0

>  <Assay Index>
343998

>  <Assay Category>


>  <Assay Organism>


>  <Target ID>
17045

>  <Target Name>
Cytochrome P450 3A4

>  <Target Organism>
Homo sapiens

>  <Target Description>
Target is a single protein chain

>  <Sequence Accession>
P08684

>  <Reference>
J Med Chem 51 (23), 7478-7485 (2008)

>  <Pubmed ID>
19006286

>  <DOI>
10.1021/jm8006454

$$$$
515208
Actelion Java MolfileCreator 1.0

 46 49  0  0  0  0  0  0  0  0999 V2000
    0.0000   -0.0000   -0.0000 F   0  0  0  0  0  0  0  0  0  0  0  0
   -0.0119    1.5084   -0.0000 C   0  0  0  0  0  0  0  0  0  0  0  0
    1.2827    2.2686   -0.0000 C   0  0  0  0  0  0  0  0  0  0  0  0
   -1.3184    2.2804   -0.0000 C   0  0  0  0  0  0  0  0  0  0  0  0
    2.5655    1.5203   -0.0000 O   0  0  0  0  0  0  0  0  0  0  0  0
    1.2709    3.7770   -0.0000 C   0  0  0  0  0  0  0  0  0  0  0  0
   -2.6249    1.5440   -0.0000 C   0  0  0  0  0  0  0  0  0  0  0  0
   -1.3302    3.7888   -0.0000 C   0  0  0  0  0  0  0  0  0  0  0  0
    3.8601    2.2804   -0.0000 C   0  0  0  0  0  0  0  0  0  0  0  0
   -0.0475    4.5371   -0.0000 C   0  0  0  0  0  0  0  0  0  0  0  0
   -3.9314    2.3161   -0.0000 C   0  0  0  0  0  0  0  0  0  0  0  0
   -2.6367    0.0594   -0.0000 C   0  0  0  0  0  0  0  0  0  0  0  0
   -3.9432    3.8245   -0.0000 O   0  0  0  0  0  0  0  0  0  0  0  0
   -5.2379    1.5678   -0.0000 N   0  0  0  0  0  0  0  0  0  0  0  0
   -3.9432   -0.6770   -0.0000 N   0  0  0  0  0  0  0  0  0  0  0  0
   -1.3540   -0.6770   -0.0000 C   0  0  0  0  0  0  0  0  0  0  0  0
   -5.2497    0.0831   -0.0000 C   0  0  0  0  0  0  0  0  0  0  0  0
   -6.5562    2.3279   -0.0000 C   0  0  0  0  0  0  0  0  0  0  0  0
   -3.9551   -2.1617   -0.0000 C   0  0  0  0  0  0  0  0  0  0  0  0
   -6.5562   -0.6532   -0.0000 O   0  0  0  0  0  0  0  0  0  0  0  0
   -7.8627    1.5915   -0.0000 C   0  0  0  0  0  0  0  0  0  0  0  0
   -2.6724   -2.8980   -0.0000 C   0  0  0  0  0  0  0  0  0  0  0  0
   -7.8746    0.1069   -0.0000 N   0  0  0  0  0  0  0  0  0  0  0  0
   -9.1811    2.3517   -0.0000 C   0  0  0  0  0  0  0  0  0  0  0  0
   -1.4015   -2.1379   -0.0000 C   0  0  0  0  0  0  0  0  0  0  0  0
   -2.6961   -4.3946   -0.0000 C   0  0  0  0  0  0  0  0  0  0  0  0
   -9.1811   -0.6295   -0.0000 C   0  0  0  0  0  0  0  0  0  0  0  0
   -9.1930    3.8601   -0.0000 C   0  0  0  0  0  0  0  0  0  0  0  0
  -10.4876    1.6153   -0.0000 C   0  0  0  0  0  0  0  0  0  0  0  0
   -0.1188   -1.3659   -0.0000 F   0  0  0  0  0  0  0  0  0  0  0  0
   -0.1188   -2.8743   -0.0000 C   0  0  0  0  0  0  0  0  0  0  0  0
   -1.4134   -5.1310   -0.0000 C   0  0  0  0  0  0  0  0  0  0  0  0
   -4.0145   -5.1310   -0.0000 C   0  0  0  0  0  0  0  0  0  0  0  0
   -9.1930   -2.1141   -0.0000 C   0  0  0  0  0  0  0  0  0  0  0  0
  -10.5113    4.6202   -0.0000 C   0  0  0  0  0  0  0  0  0  0  0  0
  -11.8060    2.3636   -0.0000 C   0  0  0  0  0  0  0  0  0  0  0  0
   -0.1306   -4.3708   -0.0000 C   0  0  0  0  0  0  0  0  0  0  0  0
   -5.3329   -5.8555   -0.0000 F   0  0  0  0  0  0  0  0  0  0  0  0
   -3.2900   -6.4256   -0.0000 F   0  0  0  0  0  0  0  0  0  0  0  0
   -4.7628   -3.8126   -0.0000 F   0  0  0  0  0  0  0  0  0  0  0  0
  -10.4995   -2.8505   -0.0000 C   0  0  0  0  0  0  0  0  0  0  0  0
  -11.8297    3.8720   -0.0000 C   0  0  0  0  0  0  0  0  0  0  0  0
  -10.5113   -4.3352   -0.0000 C   0  0  0  0  0  0  0  0  0  0  0  0
  -11.8178   -5.0716   -0.0000 C   0  0  0  0  0  0  0  0  0  0  0  0
  -11.8297   -6.5562   -0.0000 O   0  0  0  0  0  0  0  0  0  0  0  0
  -13.1362   -4.3114   -0.0000 O   0  0  0  0  0  0  0  0  0  0  0  0
  1  2  1  0  0  0  0
  2  3  2  0  0  0  0
  2  4  1  0  0  0  0
  3  5  1  0  0  0  0
  3  6  1  0  0  0  0
  4  7  1  0  0  0  0
  4  8  2  0  0  0  0
  5  9  1  0  0  0  0
  6 10  2  0  0  0  0
  7 11  1  0  0  0  0
  7 12  2  0  0  0  0
 11 13  2  0  0  0  0
 11 14  1  0  0  0  0
 12 15  1  0  0  0  0
 12 16  1  0  0  0  0
 14 17  1  0  0  0  0
 14 18  1  0  0  0  0
 15 19  1  0  0  0  0
 17 20  2  0  0  0  0
 18 21  1  0  0  0  0
 19 22  1  0  0  0  0
 21 23  1  6  0  0  0
 21 24  1  0  0  0  0
 22 25  2  0  0  0  0
 22 26  1  0  0  0  0
 23 27  1  0  0  0  0
 24 28  2  0  0  0  0
 24 29  1  0  0  0  0
 25 30  1  0  0  0  0
 25 31  1  0  0  0  0
 26 32  2  0  0  0  0
 26 33  1  0  0  0  0
 27 34  1  0  0  0  0
 28 35  1  0  0  0  0
 29 36  2  0  0  0  0
 31 37  2  0  0  0  0
 33 38  1  0  0  0  0
 33 39  1  0  0  0  0
 33 40  1  0  0  0  0
 34 41  1  0  0  0  0
 35 42  2  0  0  0  0
 41 43  1  0  0  0  0
 43 44  1  0  0  0  0
 44 45  2  0  0  0  0
 44 46  1  0  0  0  0
  8 10  1  0  0  0  0
 15 17  1  0  0  0  0
 32 37  1  0  0  0  0
 36 42  1  0  0  0  0
M  END
>  <MolRegNo>
515208

>  <m>
=

>  <Value>
29000

>  <Unit>
nM

>  <Type>
IC50

>  <pValue>
4.54

>  <Ligand Efficiency>
0

>  <Binding Efficiency>
0

>  <Surface Efficiency>
0

>  <Assay Index>
343998

>  <Assay Category>


>  <Assay Organism>


>  <Target ID>
17045

>  <Target Name>
Cytochrome P450 3A4

>  <Target Organism>
Homo sapiens

>  <Target Description>
Target is a single protein chain

>  <Sequence Accession>
P08684

>  <Reference>
J Med Chem 51 (23), 7478-7485 (2008)

>  <Pubmed ID>
19006286

>  <DOI>
10.1021/jm8006454

$$$$
515207
Actelion Java MolfileCreator 1.0

 42 45  0  0  0  0  0  0  0  0999 V2000
    0.0000   -0.0000   -0.0000 Cl  0  0  0  0  0  0  0  0  0  0  0  0
    1.2883    0.7564   -0.0000 C   0  0  0  0  0  0  0  0  0  0  0  0
    1.2883    2.2692   -0.0000 C   0  0  0  0  0  0  0  0  0  0  0  0
    2.5765    0.0236   -0.0000 C   0  0  0  0  0  0  0  0  0  0  0  0
    2.5647    3.0256   -0.0000 C   0  0  0  0  0  0  0  0  0  0  0  0
   -0.0236    3.0256   -0.0000 C   0  0  0  0  0  0  0  0  0  0  0  0
    3.8648    0.7800   -0.0000 C   0  0  0  0  0  0  0  0  0  0  0  0
    3.8412    3.7939   -0.0000 F   0  0  0  0  0  0  0  0  0  0  0  0
    3.8530    2.2929   -0.0000 C   0  0  0  0  0  0  0  0  0  0  0  0
   -0.0355    4.5385   -0.0000 N   0  0  0  0  0  0  0  0  0  0  0  0
   -1.3355    5.2949   -0.0000 C   0  0  0  0  0  0  0  0  0  0  0  0
    1.2410    5.2949   -0.0000 C   0  0  0  0  0  0  0  0  0  0  0  0
   -2.6474    4.5503   -0.0000 O   0  0  0  0  0  0  0  0  0  0  0  0
   -1.3474    6.8077   -0.0000 N   0  0  0  0  0  0  0  0  0  0  0  0
    1.2292    6.8077   -0.0000 C   0  0  0  0  0  0  0  0  0  0  0  0
    2.5293    4.5503   -0.0000 C   0  0  0  0  0  0  0  0  0  0  0  0
   -0.0709    7.5759   -0.0000 C   0  0  0  0  0  0  0  0  0  0  0  0
   -2.6593    7.5641   -0.0000 C   0  0  0  0  0  0  0  0  0  0  0  0
    2.5056    7.5641   -0.0000 C   0  0  0  0  0  0  0  0  0  0  0  0
   -0.0827    9.0888   -0.0000 O   0  0  0  0  0  0  0  0  0  0  0  0
   -3.9712    6.8195   -0.0000 C   0  0  0  0  0  0  0  0  0  0  0  0
    3.7939    6.8195   -0.0000 C   0  0  0  0  0  0  0  0  0  0  0  0
    2.4938    9.0651   -0.0000 C   0  0  0  0  0  0  0  0  0  0  0  0
   -3.9830    5.3303   -0.0000 N   0  0  0  0  0  0  0  0  0  0  0  0
   -5.2831    7.5759   -0.0000 C   0  0  0  0  0  0  0  0  0  0  0  0
    3.7821    5.3303   -0.0000 F   0  0  0  0  0  0  0  0  0  0  0  0
    5.0821    7.5759   -0.0000 C   0  0  0  0  0  0  0  0  0  0  0  0
    3.7821    9.8215   -0.0000 C   0  0  0  0  0  0  0  0  0  0  0  0
   -5.2949    4.5857   -0.0000 C   0  0  0  0  0  0  0  0  0  0  0  0
   -5.2949    9.0888   -0.0000 C   0  0  0  0  0  0  0  0  0  0  0  0
   -6.5950    6.8432   -0.0000 C   0  0  0  0  0  0  0  0  0  0  0  0
    6.3704    6.8313   -0.0000 O   0  0  0  0  0  0  0  0  0  0  0  0
    5.0703    9.0888   -0.0000 C   0  0  0  0  0  0  0  0  0  0  0  0
   -5.3067    3.0966   -0.0000 C   0  0  0  0  0  0  0  0  0  0  0  0
   -6.6068    9.8452   -0.0000 C   0  0  0  0  0  0  0  0  0  0  0  0
   -7.9069    7.5878   -0.0000 C   0  0  0  0  0  0  0  0  0  0  0  0
    7.6587    7.5878   -0.0000 C   0  0  0  0  0  0  0  0  0  0  0  0
   -6.6186    2.3520   -0.0000 C   0  0  0  0  0  0  0  0  0  0  0  0
   -7.9187    9.1006   -0.0000 C   0  0  0  0  0  0  0  0  0  0  0  0
   -6.6304    0.8628   -0.0000 C   0  0  0  0  0  0  0  0  0  0  0  0
   -5.3422    0.1300   -0.0000 O   0  0  0  0  0  0  0  0  0  0  0  0
   -7.9423    0.1182   -0.0000 O   0  0  0  0  0  0  0  0  0  0  0  0
  1  2  1  0  0  0  0
  2  3  2  0  0  0  0
  2  4  1  0  0  0  0
  3  5  1  0  0  0  0
  3  6  1  0  0  0  0
  4  7  2  0  0  0  0
  5  8  1  0  0  0  0
  5  9  2  0  0  0  0
  6 10  1  0  0  0  0
 10 11  1  0  0  0  0
 10 12  1  0  0  0  0
 11 13  2  0  0  0  0
 11 14  1  0  0  0  0
 12 15  2  0  0  0  0
 12 16  1  0  0  0  0
 14 17  1  0  0  0  0
 14 18  1  0  0  0  0
 15 19  1  0  0  0  0
 17 20  2  0  0  0  0
 18 21  1  0  0  0  0
 19 22  2  0  0  0  0
 19 23  1  0  0  0  0
 21 24  1  6  0  0  0
 21 25  1  0  0  0  0
 22 26  1  0  0  0  0
 22 27  1  0  0  0  0
 23 28  2  0  0  0  0
 24 29  1  0  0  0  0
 25 30  2  0  0  0  0
 25 31  1  0  0  0  0
 27 32  1  0  0  0  0
 27 33  2  0  0  0  0
 29 34  1  0  0  0  0
 30 35  1  0  0  0  0
 31 36  2  0  0  0  0
 32 37  1  0  0  0  0
 34 38  1  0  0  0  0
 35 39  2  0  0  0  0
 38 40  1  0  0  0  0
 40 41  2  0  0  0  0
 40 42  1  0  0  0  0
  7  9  1  0  0  0  0
 15 17  1  0  0  0  0
 28 33  1  0  0  0  0
 36 39  1  0  0  0  0
M  END
>  <MolRegNo>
515207

>  <m>
=

>  <Value>
11000

>  <Unit>
nM

>  <Type>
IC50

>  <pValue>
4.96

>  <Ligand Efficiency>
0

>  <Binding Efficiency>
0

>  <Surface Efficiency>
0

>  <Assay Index>
343998

>  <Assay Category>


>  <Assay Organism>


>  <Target ID>
17045

>  <Target Name>
Cytochrome P450 3A4

>  <Target Organism>
Homo sapiens

>  <Target Description>
Target is a single protein chain

>  <Sequence Accession>
P08684

>  <Reference>
J Med Chem 51 (23), 7478-7485 (2008)

>  <Pubmed ID>
19006286

>  <DOI>
10.1021/jm8006454

$$$$
515206
Actelion Java MolfileCreator 1.0

 46 48  0  0  0  0  0  0  0  0999 V2000
    0.0000   -0.0000   -0.0000 Na  0  0  0  0  0  0  0  0  0  0  0  0
  -15.2080    1.4258   -0.0000 F   0  0  0  0  0  0  0  0  0  0  0  0
  -15.2229    2.9406   -0.0000 C   0  0  0  0  0  0  0  0  0  0  0  0
  -16.5446    3.7129   -0.0000 C   0  0  0  0  0  0  0  0  0  0  0  0
  -13.9308    3.7129   -0.0000 C   0  0  0  0  0  0  0  0  0  0  0  0
  -17.8664    2.9703   -0.0000 O   0  0  0  0  0  0  0  0  0  0  0  0
  -16.5595    5.2278   -0.0000 C   0  0  0  0  0  0  0  0  0  0  0  0
  -12.6387    2.9703   -0.0000 C   0  0  0  0  0  0  0  0  0  0  0  0
  -13.9456    5.2278   -0.0000 C   0  0  0  0  0  0  0  0  0  0  0  0
  -19.1882    3.7426   -0.0000 C   0  0  0  0  0  0  0  0  0  0  0  0
  -15.2674    6.0000   -0.0000 C   0  0  0  0  0  0  0  0  0  0  0  0
  -11.3466    3.7426   -0.0000 C   0  0  0  0  0  0  0  0  0  0  0  0
  -12.6535    1.4852   -0.0000 C   0  0  0  0  0  0  0  0  0  0  0  0
  -11.3615    5.2575   -0.0000 O   0  0  0  0  0  0  0  0  0  0  0  0
  -10.0545    3.0000   -0.0000 N   0  0  0  0  0  0  0  0  0  0  0  0
  -11.3615    0.7426   -0.0000 N   0  0  0  0  0  0  0  0  0  0  0  0
  -13.9753    0.7426   -0.0000 C   0  0  0  0  0  0  0  0  0  0  0  0
  -10.0694    1.5149   -0.0000 C   0  0  0  0  0  0  0  0  0  0  0  0
   -8.7624    3.7723   -0.0000 C   0  0  0  0  0  0  0  0  0  0  0  0
  -11.3763   -0.7426   -0.0000 C   0  0  0  0  0  0  0  0  0  0  0  0
   -8.7773    0.7723   -0.0000 O   0  0  0  0  0  0  0  0  0  0  0  0
   -7.4703    3.0297   -0.0000 C   0  0  0  0  0  0  0  0  0  0  0  0
  -10.6486   -2.0198   -0.0000 C   0  0  0  0  0  0  0  0  0  0  0  0
   -6.1783    3.8020   -0.0000 N   0  0  0  0  0  0  0  0  0  0  0  0
   -6.7278    1.7376   -0.0000 C   0  0  0  0  0  0  0  0  0  0  0  0
   -9.1783   -2.0050   -0.0000 C   0  0  0  0  0  0  0  0  0  0  0  0
  -11.4209   -3.2970   -0.0000 C   0  0  0  0  0  0  0  0  0  0  0  0
   -4.8862    3.0594   -0.0000 C   0  0  0  0  0  0  0  0  0  0  0  0
   -7.5000    0.4455   -0.0000 C   0  0  0  0  0  0  0  0  0  0  0  0
   -5.2426    1.7525   -0.0000 C   0  0  0  0  0  0  0  0  0  0  0  0
   -8.4357   -0.6832   -0.0000 F   0  0  0  0  0  0  0  0  0  0  0  0
   -8.4505   -3.2822   -0.0000 C   0  0  0  0  0  0  0  0  0  0  0  0
  -10.6931   -4.5743   -0.0000 C   0  0  0  0  0  0  0  0  0  0  0  0
  -12.9357   -3.2822   -0.0000 C   0  0  0  0  0  0  0  0  0  0  0  0
   -3.5941    3.8317   -0.0000 C   0  0  0  0  0  0  0  0  0  0  0  0
   -6.7575   -0.8465   -0.0000 C   0  0  0  0  0  0  0  0  0  0  0  0
   -4.5000    0.4604   -0.0000 C   0  0  0  0  0  0  0  0  0  0  0  0
   -9.2228   -4.5743   -0.0000 C   0  0  0  0  0  0  0  0  0  0  0  0
  -13.6931   -1.9604   -0.0000 F   0  0  0  0  0  0  0  0  0  0  0  0
  -13.7080   -4.5743   -0.0000 F   0  0  0  0  0  0  0  0  0  0  0  0
  -12.5496   -1.8119   -0.0000 F   0  0  0  0  0  0  0  0  0  0  0  0
   -2.3020    3.0891   -0.0000 C   0  0  0  0  0  0  0  0  0  0  0  0
   -5.2723   -0.8317   -0.0000 C   0  0  0  0  0  0  0  0  0  0  0  0
   -1.0099    3.8614   -0.0000 C   0  0  0  0  0  0  0  0  0  0  0  0
   -1.0248    5.3763   -0.0000 O   0  0  0  0  0  0  0  0  0  0  0  0
    0.2822    3.1188   -0.0000 O   0  0  0  0  0  0  0  0  0  0  0  0
  2  3  1  0  0  0  0
  3  4  2  0  0  0  0
  3  5  1  0  0  0  0
  4  6  1  0  0  0  0
  4  7  1  0  0  0  0
  5  8  1  0  0  0  0
  5  9  2  0  0  0  0
  6 10  1  0  0  0  0
  7 11  2  0  0  0  0
  8 12  1  0  0  0  0
  8 13  2  0  0  0  0
 12 14  2  0  0  0  0
 12 15  1  0  0  0  0
 13 16  1  0  0  0  0
 13 17  1  0  0  0  0
 15 18  1  0  0  0  0
 15 19  1  0  0  0  0
 16 20  1  0  0  0  0
 18 21  2  0  0  0  0
 19 22  1  0  0  0  0
 20 23  1  0  0  0  0
 22 24  1  6  0  0  0
 22 25  1  0  0  0  0
 23 26  2  0  0  0  0
 23 27  1  0  0  0  0
 24 28  1  0  0  0  0
 25 29  2  0  0  0  0
 25 30  1  0  0  0  0
 26 31  1  0  0  0  0
 26 32  1  0  0  0  0
 27 33  2  0  0  0  0
 27 34  1  0  0  0  0
 28 35  1  0  0  0  0
 29 36  1  0  0  0  0
 30 37  2  0  0  0  0
 32 38  2  0  0  0  0
 34 39  1  0  0  0  0
 34 40  1  0  0  0  0
 34 41  1  0  0  0  0
 35 42  1  0  0  0  0
 36 43  2  0  0  0  0
 42 44  1  0  0  0  0
 44 45  2  0  0  0  0
 44 46  1  0  0  0  0
  9 11  1  0  0  0  0
 16 18  1  0  0  0  0
 33 38  1  0  0  0  0
 37 43  1  0  0  0  0
M  CHG  2   1   1  46  -1
M  END
>  <MolRegNo>
515206

>  <m>
=

>  <Value>
56000

>  <Unit>
nM

>  <Type>
IC50

>  <pValue>
4.25

>  <Ligand Efficiency>
0

>  <Binding Efficiency>
0

>  <Surface Efficiency>
0

>  <Assay Index>
343998

>  <Assay Category>


>  <Assay Organism>


>  <Target ID>
17045

>  <Target Name>
Cytochrome P450 3A4

>  <Target Organism>
Homo sapiens

>  <Target Description>
Target is a single protein chain

>  <Sequence Accession>
P08684

>  <Reference>
J Med Chem 51 (23), 7478-7485 (2008)

>  <Pubmed ID>
19006286

>  <DOI>
10.1021/jm8006454

$$$$
515205
Actelion Java MolfileCreator 1.0

 42 45  0  0  0  0  0  0  0  0999 V2000
    0.0000   -0.0000   -0.0000 F   0  0  0  0  0  0  0  0  0  0  0  0
   -0.0118    1.5132   -0.0000 C   0  0  0  0  0  0  0  0  0  0  0  0
    1.2767    2.2698   -0.0000 C   0  0  0  0  0  0  0  0  0  0  0  0
   -1.3240    2.2816   -0.0000 C   0  0  0  0  0  0  0  0  0  0  0  0
    2.5653    1.5250   -0.0000 O   0  0  0  0  0  0  0  0  0  0  0  0
    1.2649    3.7829   -0.0000 C   0  0  0  0  0  0  0  0  0  0  0  0
   -2.6244    1.5486   -0.0000 C   0  0  0  0  0  0  0  0  0  0  0  0
   -1.3358    3.7829   -0.0000 C   0  0  0  0  0  0  0  0  0  0  0  0
    3.8539    2.2816   -0.0000 C   0  0  0  0  0  0  0  0  0  0  0  0
   -0.0473    4.5513   -0.0000 C   0  0  0  0  0  0  0  0  0  0  0  0
   -3.9248    2.3170   -0.0000 C   0  0  0  0  0  0  0  0  0  0  0  0
   -2.6362    0.0591   -0.0000 C   0  0  0  0  0  0  0  0  0  0  0  0
   -3.9366    3.8302   -0.0000 O   0  0  0  0  0  0  0  0  0  0  0  0
   -5.2252    1.5723   -0.0000 N   0  0  0  0  0  0  0  0  0  0  0  0
   -3.9366   -0.6738   -0.0000 N   0  0  0  0  0  0  0  0  0  0  0  0
   -1.3477   -0.6857   -0.0000 C   0  0  0  0  0  0  0  0  0  0  0  0
   -5.2370    0.0828   -0.0000 C   0  0  0  0  0  0  0  0  0  0  0  0
   -6.5374    2.3289   -0.0000 C   0  0  0  0  0  0  0  0  0  0  0  0
   -3.9484   -2.1634   -0.0000 C   0  0  0  0  0  0  0  0  0  0  0  0
   -6.5492   -0.6620   -0.0000 O   0  0  0  0  0  0  0  0  0  0  0  0
   -7.8496    1.5841   -0.0000 C   0  0  0  0  0  0  0  0  0  0  0  0
   -2.6599   -2.8963   -0.0000 C   0  0  0  0  0  0  0  0  0  0  0  0
   -7.8614    0.0946   -0.0000 N   0  0  0  0  0  0  0  0  0  0  0  0
   -9.1618    2.3407   -0.0000 C   0  0  0  0  0  0  0  0  0  0  0  0
   -2.6835   -4.3858   -0.0000 C   0  0  0  0  0  0  0  0  0  0  0  0
   -1.3831   -2.1397   -0.0000 C   0  0  0  0  0  0  0  0  0  0  0  0
   -9.1736   -0.6502   -0.0000 C   0  0  0  0  0  0  0  0  0  0  0  0
   -9.1736    3.8539   -0.0000 C   0  0  0  0  0  0  0  0  0  0  0  0
  -10.4740    1.6077   -0.0000 C   0  0  0  0  0  0  0  0  0  0  0  0
   -3.9957   -5.1188   -0.0000 F   0  0  0  0  0  0  0  0  0  0  0  0
   -1.3950   -5.1188   -0.0000 C   0  0  0  0  0  0  0  0  0  0  0  0
   -0.1064   -1.3713   -0.0000 F   0  0  0  0  0  0  0  0  0  0  0  0
   -0.0946   -2.8727   -0.0000 C   0  0  0  0  0  0  0  0  0  0  0  0
   -9.1854   -2.1397   -0.0000 C   0  0  0  0  0  0  0  0  0  0  0  0
  -10.4858    4.6105   -0.0000 C   0  0  0  0  0  0  0  0  0  0  0  0
  -11.7862    2.3525   -0.0000 C   0  0  0  0  0  0  0  0  0  0  0  0
   -0.1064   -4.3622   -0.0000 C   0  0  0  0  0  0  0  0  0  0  0  0
  -10.4976   -2.8845   -0.0000 C   0  0  0  0  0  0  0  0  0  0  0  0
  -11.7980    3.8657   -0.0000 C   0  0  0  0  0  0  0  0  0  0  0  0
  -10.5095   -4.3740   -0.0000 C   0  0  0  0  0  0  0  0  0  0  0  0
   -9.2209   -5.1070   -0.0000 O   0  0  0  0  0  0  0  0  0  0  0  0
  -11.8217   -5.1188   -0.0000 O   0  0  0  0  0  0  0  0  0  0  0  0
  1  2  1  0  0  0  0
  2  3  2  0  0  0  0
  2  4  1  0  0  0  0
  3  5  1  0  0  0  0
  3  6  1  0  0  0  0
  4  7  1  0  0  0  0
  4  8  2  0  0  0  0
  5  9  1  0  0  0  0
  6 10  2  0  0  0  0
  7 11  1  0  0  0  0
  7 12  2  0  0  0  0
 11 13  2  0  0  0  0
 11 14  1  0  0  0  0
 12 15  1  0  0  0  0
 12 16  1  0  0  0  0
 14 17  1  0  0  0  0
 14 18  1  0  0  0  0
 15 19  1  0  0  0  0
 17 20  2  0  0  0  0
 18 21  1  0  0  0  0
 19 22  1  0  0  0  0
 21 23  1  6  0  0  0
 21 24  1  0  0  0  0
 22 25  2  0  0  0  0
 22 26  1  0  0  0  0
 23 27  1  0  0  0  0
 24 28  2  0  0  0  0
 24 29  1  0  0  0  0
 25 30  1  0  0  0  0
 25 31  1  0  0  0  0
 26 32  1  0  0  0  0
 26 33  2  0  0  0  0
 27 34  1  0  0  0  0
 28 35  1  0  0  0  0
 29 36  2  0  0  0  0
 31 37  2  0  0  0  0
 34 38  1  0  0  0  0
 35 39  2  0  0  0  0
 38 40  1  0  0  0  0
 40 41  2  0  0  0  0
 40 42  1  0  0  0  0
  8 10  1  0  0  0  0
 15 17  1  0  0  0  0
 33 37  1  0  0  0  0
 36 39  1  0  0  0  0
M  END
>  <MolRegNo>
515205

>  <m>
=

>  <Value>
135000

>  <Unit>
nM

>  <Type>
IC50

>  <pValue>
0

>  <Ligand Efficiency>
0

>  <Binding Efficiency>
0

>  <Surface Efficiency>
0

>  <Assay Index>
343998

>  <Assay Category>


>  <Assay Organism>


>  <Target ID>
17045

>  <Target Name>
Cytochrome P450 3A4

>  <Target Organism>
Homo sapiens

>  <Target Description>
Target is a single protein chain

>  <Sequence Accession>
P08684

>  <Reference>
J Med Chem 51 (23), 7478-7485 (2008)

>  <Pubmed ID>
19006286

>  <DOI>
10.1021/jm8006454

$$$$
515204
Actelion Java MolfileCreator 1.0

 44 47  0  0  0  0  0  0  0  0999 V2000
    0.0000   -0.0000   -0.0000 F   0  0  0  0  0  0  0  0  0  0  0  0
   -0.0119    1.5077   -0.0000 C   0  0  0  0  0  0  0  0  0  0  0  0
    1.2821    2.2675   -0.0000 C   0  0  0  0  0  0  0  0  0  0  0  0
   -1.3177    2.2794   -0.0000 C   0  0  0  0  0  0  0  0  0  0  0  0
    2.5643    1.5196   -0.0000 O   0  0  0  0  0  0  0  0  0  0  0  0
    1.2703    3.7752   -0.0000 C   0  0  0  0  0  0  0  0  0  0  0  0
   -2.6236    1.5433   -0.0000 C   0  0  0  0  0  0  0  0  0  0  0  0
   -1.3296    3.7870   -0.0000 C   0  0  0  0  0  0  0  0  0  0  0  0
    3.8583    2.2794   -0.0000 C   0  0  0  0  0  0  0  0  0  0  0  0
   -0.0475    4.5350   -0.0000 C   0  0  0  0  0  0  0  0  0  0  0  0
   -3.9295    2.3150   -0.0000 C   0  0  0  0  0  0  0  0  0  0  0  0
   -2.6355    0.0594   -0.0000 C   0  0  0  0  0  0  0  0  0  0  0  0
   -3.9414    3.8227   -0.0000 O   0  0  0  0  0  0  0  0  0  0  0  0
   -5.2354    1.5671   -0.0000 N   0  0  0  0  0  0  0  0  0  0  0  0
   -3.9414   -0.6767   -0.0000 N   0  0  0  0  0  0  0  0  0  0  0  0
   -1.3534   -0.6767   -0.0000 C   0  0  0  0  0  0  0  0  0  0  0  0
   -5.2473    0.0831   -0.0000 C   0  0  0  0  0  0  0  0  0  0  0  0
   -6.5531    2.3268   -0.0000 C   0  0  0  0  0  0  0  0  0  0  0  0
   -3.9532   -2.1606   -0.0000 C   0  0  0  0  0  0  0  0  0  0  0  0
   -6.5531   -0.6529   -0.0000 O   0  0  0  0  0  0  0  0  0  0  0  0
   -7.8590    1.5789   -0.0000 C   0  0  0  0  0  0  0  0  0  0  0  0
   -2.6711   -2.8967   -0.0000 C   0  0  0  0  0  0  0  0  0  0  0  0
   -7.8709    0.0950   -0.0000 N   0  0  0  0  0  0  0  0  0  0  0  0
   -9.1768    2.3387   -0.0000 C   0  0  0  0  0  0  0  0  0  0  0  0
   -1.4009   -2.1369   -0.0000 C   0  0  0  0  0  0  0  0  0  0  0  0
   -2.6949   -4.3925   -0.0000 C   0  0  0  0  0  0  0  0  0  0  0  0
   -9.1768   -0.6411   -0.0000 C   0  0  0  0  0  0  0  0  0  0  0  0
   -9.1886    3.8464   -0.0000 C   0  0  0  0  0  0  0  0  0  0  0  0
  -10.4826    1.6027   -0.0000 C   0  0  0  0  0  0  0  0  0  0  0  0
   -0.1187   -1.3652   -0.0000 F   0  0  0  0  0  0  0  0  0  0  0  0
   -0.1187   -2.8729   -0.0000 C   0  0  0  0  0  0  0  0  0  0  0  0
   -1.4127   -5.1285   -0.0000 C   0  0  0  0  0  0  0  0  0  0  0  0
   -4.0126   -5.1285   -0.0000 C   0  0  0  0  0  0  0  0  0  0  0  0
   -9.1886   -2.1250   -0.0000 C   0  0  0  0  0  0  0  0  0  0  0  0
  -10.5064    4.6062   -0.0000 C   0  0  0  0  0  0  0  0  0  0  0  0
  -11.8004    2.3506   -0.0000 C   0  0  0  0  0  0  0  0  0  0  0  0
   -0.1306   -4.3688   -0.0000 C   0  0  0  0  0  0  0  0  0  0  0  0
   -5.3304   -5.8527   -0.0000 F   0  0  0  0  0  0  0  0  0  0  0  0
   -3.2884   -6.4225   -0.0000 F   0  0  0  0  0  0  0  0  0  0  0  0
   -4.7605   -3.8108   -0.0000 F   0  0  0  0  0  0  0  0  0  0  0  0
  -10.4945   -2.8611   -0.0000 C   0  0  0  0  0  0  0  0  0  0  0  0
  -11.8241    3.8583   -0.0000 C   0  0  0  0  0  0  0  0  0  0  0  0
  -10.5064   -4.3569   -0.0000 O   0  0  0  0  0  0  0  0  0  0  0  0
  -11.8123   -2.1013   -0.0000 O   0  0  0  0  0  0  0  0  0  0  0  0
  1  2  1  0  0  0  0
  2  3  2  0  0  0  0
  2  4  1  0  0  0  0
  3  5  1  0  0  0  0
  3  6  1  0  0  0  0
  4  7  1  0  0  0  0
  4  8  2  0  0  0  0
  5  9  1  0  0  0  0
  6 10  2  0  0  0  0
  7 11  1  0  0  0  0
  7 12  2  0  0  0  0
 11 13  2  0  0  0  0
 11 14  1  0  0  0  0
 12 15  1  0  0  0  0
 12 16  1  0  0  0  0
 14 17  1  0  0  0  0
 14 18  1  0  0  0  0
 15 19  1  0  0  0  0
 17 20  2  0  0  0  0
 18 21  1  0  0  0  0
 19 22  1  0  0  0  0
 21 23  1  6  0  0  0
 21 24  1  0  0  0  0
 22 25  2  0  0  0  0
 22 26  1  0  0  0  0
 23 27  1  0  0  0  0
 24 28  2  0  0  0  0
 24 29  1  0  0  0  0
 25 30  1  0  0  0  0
 25 31  1  0  0  0  0
 26 32  2  0  0  0  0
 26 33  1  0  0  0  0
 27 34  1  0  0  0  0
 28 35  1  0  0  0  0
 29 36  2  0  0  0  0
 31 37  2  0  0  0  0
 33 38  1  0  0  0  0
 33 39  1  0  0  0  0
 33 40  1  0  0  0  0
 34 41  1  0  0  0  0
 35 42  2  0  0  0  0
 41 43  2  0  0  0  0
 41 44  1  0  0  0  0
  8 10  1  0  0  0  0
 15 17  1  0  0  0  0
 32 37  1  0  0  0  0
 36 42  1  0  0  0  0
M  END
>  <MolRegNo>
515204

>  <m>
=

>  <Value>
69000

>  <Unit>
nM

>  <Type>
IC50

>  <pValue>
4.16

>  <Ligand Efficiency>
0

>  <Binding Efficiency>
0

>  <Surface Efficiency>
0

>  <Assay Index>
343998

>  <Assay Category>


>  <Assay Organism>


>  <Target ID>
17045

>  <Target Name>
Cytochrome P450 3A4

>  <Target Organism>
Homo sapiens

>  <Target Description>
Target is a single protein chain

>  <Sequence Accession>
P08684

>  <Reference>
J Med Chem 51 (23), 7478-7485 (2008)

>  <Pubmed ID>
19006286

>  <DOI>
10.1021/jm8006454

$$$$
515203
Actelion Java MolfileCreator 1.0

 43 46  0  0  0  0  0  0  0  0999 V2000
    0.0000   -0.0000   -0.0000 F   0  0  0  0  0  0  0  0  0  0  0  0
    0.0000    1.5087   -0.0000 C   0  0  0  0  0  0  0  0  0  0  0  0
    1.2949    2.2690   -0.0000 C   0  0  0  0  0  0  0  0  0  0  0  0
   -1.3068    2.2809   -0.0000 C   0  0  0  0  0  0  0  0  0  0  0  0
    2.5779    1.5206   -0.0000 O   0  0  0  0  0  0  0  0  0  0  0  0
    1.2830    3.7777   -0.0000 C   0  0  0  0  0  0  0  0  0  0  0  0
   -2.6135    1.5443   -0.0000 C   0  0  0  0  0  0  0  0  0  0  0  0
   -1.3186    3.7896   -0.0000 C   0  0  0  0  0  0  0  0  0  0  0  0
    3.8727    2.2809   -0.0000 C   0  0  0  0  0  0  0  0  0  0  0  0
   -0.0356    4.5380   -0.0000 C   0  0  0  0  0  0  0  0  0  0  0  0
   -3.9203    2.3165   -0.0000 C   0  0  0  0  0  0  0  0  0  0  0  0
   -2.6254    0.0594   -0.0000 C   0  0  0  0  0  0  0  0  0  0  0  0
   -3.9321    3.8252   -0.0000 O   0  0  0  0  0  0  0  0  0  0  0  0
   -5.2270    1.5681   -0.0000 N   0  0  0  0  0  0  0  0  0  0  0  0
   -3.9321   -0.6771   -0.0000 N   0  0  0  0  0  0  0  0  0  0  0  0
   -1.3424   -0.6771   -0.0000 C   0  0  0  0  0  0  0  0  0  0  0  0
   -5.2389    0.0832   -0.0000 C   0  0  0  0  0  0  0  0  0  0  0  0
   -6.5456    2.3284   -0.0000 C   0  0  0  0  0  0  0  0  0  0  0  0
   -3.9440   -2.1621   -0.0000 C   0  0  0  0  0  0  0  0  0  0  0  0
   -6.5456   -0.6534   -0.0000 O   0  0  0  0  0  0  0  0  0  0  0  0
   -7.8524    1.5919   -0.0000 C   0  0  0  0  0  0  0  0  0  0  0  0
   -2.6610   -2.8986   -0.0000 C   0  0  0  0  0  0  0  0  0  0  0  0
   -7.8643    0.1069   -0.0000 N   0  0  0  0  0  0  0  0  0  0  0  0
   -9.1710    2.3522   -0.0000 C   0  0  0  0  0  0  0  0  0  0  0  0
   -1.3899   -2.1383   -0.0000 C   0  0  0  0  0  0  0  0  0  0  0  0
   -2.6848   -4.3836   -0.0000 C   0  0  0  0  0  0  0  0  0  0  0  0
   -9.1710   -0.6296   -0.0000 C   0  0  0  0  0  0  0  0  0  0  0  0
   -9.1829    3.8609   -0.0000 C   0  0  0  0  0  0  0  0  0  0  0  0
  -10.4778    1.6156   -0.0000 C   0  0  0  0  0  0  0  0  0  0  0  0
   -0.1069   -1.3662   -0.0000 F   0  0  0  0  0  0  0  0  0  0  0  0
   -0.1069   -2.8749   -0.0000 C   0  0  0  0  0  0  0  0  0  0  0  0
   -1.4018   -5.1201   -0.0000 C   0  0  0  0  0  0  0  0  0  0  0  0
   -4.0034   -5.1201   -0.0000 C   0  0  0  0  0  0  0  0  0  0  0  0
   -9.1829   -2.1146   -0.0000 C   0  0  0  0  0  0  0  0  0  0  0  0
  -10.5015    4.6212   -0.0000 C   0  0  0  0  0  0  0  0  0  0  0  0
  -11.7964    2.3640   -0.0000 C   0  0  0  0  0  0  0  0  0  0  0  0
   -0.1188   -4.3717   -0.0000 C   0  0  0  0  0  0  0  0  0  0  0  0
   -5.3220   -5.8448   -0.0000 F   0  0  0  0  0  0  0  0  0  0  0  0
   -3.2788   -6.4150   -0.0000 F   0  0  0  0  0  0  0  0  0  0  0  0
   -4.7518   -3.8015   -0.0000 F   0  0  0  0  0  0  0  0  0  0  0  0
   -7.8880   -2.8511   -0.0000 O   0  0  0  0  0  0  0  0  0  0  0  0
  -10.4897   -2.8630   -0.0000 O   0  0  0  0  0  0  0  0  0  0  0  0
  -11.8202    3.8727   -0.0000 C   0  0  0  0  0  0  0  0  0  0  0  0
  1  2  1  0  0  0  0
  2  3  2  0  0  0  0
  2  4  1  0  0  0  0
  3  5  1  0  0  0  0
  3  6  1  0  0  0  0
  4  7  1  0  0  0  0
  4  8  2  0  0  0  0
  5  9  1  0  0  0  0
  6 10  2  0  0  0  0
  7 11  1  0  0  0  0
  7 12  2  0  0  0  0
 11 13  2  0  0  0  0
 11 14  1  0  0  0  0
 12 15  1  0  0  0  0
 12 16  1  0  0  0  0
 14 17  1  0  0  0  0
 14 18  1  0  0  0  0
 15 19  1  0  0  0  0
 17 20  2  0  0  0  0
 18 21  1  0  0  0  0
 19 22  1  0  0  0  0
 21 23  1  6  0  0  0
 21 24  1  0  0  0  0
 22 25  2  0  0  0  0
 22 26  1  0  0  0  0
 23 27  1  0  0  0  0
 24 28  2  0  0  0  0
 24 29  1  0  0  0  0
 25 30  1  0  0  0  0
 25 31  1  0  0  0  0
 26 32  2  0  0  0  0
 26 33  1  0  0  0  0
 27 34  1  0  0  0  0
 28 35  1  0  0  0  0
 29 36  2  0  0  0  0
 31 37  2  0  0  0  0
 33 38  1  0  0  0  0
 33 39  1  0  0  0  0
 33 40  1  0  0  0  0
 34 41  2  0  0  0  0
 34 42  1  0  0  0  0
 35 43  2  0  0  0  0
  8 10  1  0  0  0  0
 15 17  1  0  0  0  0
 32 37  1  0  0  0  0
 36 43  1  0  0  0  0
M  END
>  <MolRegNo>
515203

>  <m>
=

>  <Value>
36000

>  <Unit>
nM

>  <Type>
IC50

>  <pValue>
4.44

>  <Ligand Efficiency>
0

>  <Binding Efficiency>
0

>  <Surface Efficiency>
0

>  <Assay Index>
343998

>  <Assay Category>


>  <Assay Organism>


>  <Target ID>
17045

>  <Target Name>
Cytochrome P450 3A4

>  <Target Organism>
Homo sapiens

>  <Target Description>
Target is a single protein chain

>  <Sequence Accession>
P08684

>  <Reference>
J Med Chem 51 (23), 7478-7485 (2008)

>  <Pubmed ID>
19006286

>  <DOI>
10.1021/jm8006454

$$$$
515202
Actelion Java MolfileCreator 1.0

 46 49  0  0  0  0  0  0  0  0999 V2000
    0.0000   -0.0000   -0.0000 F   0  0  0  0  0  0  0  0  0  0  0  0
    0.0000    1.5086   -0.0000 C   0  0  0  0  0  0  0  0  0  0  0  0
    1.2947    2.2688   -0.0000 C   0  0  0  0  0  0  0  0  0  0  0  0
   -1.3066    2.2807   -0.0000 C   0  0  0  0  0  0  0  0  0  0  0  0
    2.5776    1.5204   -0.0000 O   0  0  0  0  0  0  0  0  0  0  0  0
    1.2829    3.7773   -0.0000 C   0  0  0  0  0  0  0  0  0  0  0  0
   -2.6133    1.5442   -0.0000 C   0  0  0  0  0  0  0  0  0  0  0  0
   -1.3185    3.7892   -0.0000 C   0  0  0  0  0  0  0  0  0  0  0  0
    3.8724    2.2807   -0.0000 C   0  0  0  0  0  0  0  0  0  0  0  0
   -0.0356    4.5376   -0.0000 C   0  0  0  0  0  0  0  0  0  0  0  0
   -3.9199    2.3163   -0.0000 C   0  0  0  0  0  0  0  0  0  0  0  0
   -2.6251    0.0594   -0.0000 C   0  0  0  0  0  0  0  0  0  0  0  0
   -3.9318    3.8249   -0.0000 O   0  0  0  0  0  0  0  0  0  0  0  0
   -5.2265    1.5680   -0.0000 N   0  0  0  0  0  0  0  0  0  0  0  0
   -3.9318   -0.6771   -0.0000 N   0  0  0  0  0  0  0  0  0  0  0  0
   -1.3423   -0.6771   -0.0000 C   0  0  0  0  0  0  0  0  0  0  0  0
   -5.2384    0.0831   -0.0000 C   0  0  0  0  0  0  0  0  0  0  0  0
   -6.5450    2.3282   -0.0000 C   0  0  0  0  0  0  0  0  0  0  0  0
   -3.9436   -2.1619   -0.0000 C   0  0  0  0  0  0  0  0  0  0  0  0
   -6.5450   -0.6533   -0.0000 O   0  0  0  0  0  0  0  0  0  0  0  0
   -7.8516    1.5917   -0.0000 C   0  0  0  0  0  0  0  0  0  0  0  0
   -2.6608   -2.8983   -0.0000 C   0  0  0  0  0  0  0  0  0  0  0  0
   -7.8635    0.1069   -0.0000 N   0  0  0  0  0  0  0  0  0  0  0  0
   -9.1701    2.3519   -0.0000 C   0  0  0  0  0  0  0  0  0  0  0  0
   -1.3898   -2.1381   -0.0000 C   0  0  0  0  0  0  0  0  0  0  0  0
   -2.6845   -4.3831   -0.0000 C   0  0  0  0  0  0  0  0  0  0  0  0
   -9.1701   -0.6296   -0.0000 C   0  0  0  0  0  0  0  0  0  0  0  0
   -9.1820    3.8605   -0.0000 C   0  0  0  0  0  0  0  0  0  0  0  0
  -10.4768    1.6155   -0.0000 C   0  0  0  0  0  0  0  0  0  0  0  0
   -0.1069   -1.3660   -0.0000 F   0  0  0  0  0  0  0  0  0  0  0  0
   -0.1069   -2.8746   -0.0000 C   0  0  0  0  0  0  0  0  0  0  0  0
   -1.4017   -5.1196   -0.0000 C   0  0  0  0  0  0  0  0  0  0  0  0
   -4.0030   -5.1196   -0.0000 C   0  0  0  0  0  0  0  0  0  0  0  0
   -9.1820   -2.1144   -0.0000 C   0  0  0  0  0  0  0  0  0  0  0  0
  -10.5005    4.6207   -0.0000 C   0  0  0  0  0  0  0  0  0  0  0  0
  -11.7953    2.3638   -0.0000 C   0  0  0  0  0  0  0  0  0  0  0  0
   -0.1188   -4.3713   -0.0000 C   0  0  0  0  0  0  0  0  0  0  0  0
   -5.3215   -5.8442   -0.0000 F   0  0  0  0  0  0  0  0  0  0  0  0
   -3.2784   -6.4143   -0.0000 F   0  0  0  0  0  0  0  0  0  0  0  0
   -4.7514   -3.8011   -0.0000 F   0  0  0  0  0  0  0  0  0  0  0  0
  -10.4886   -2.8508   -0.0000 C   0  0  0  0  0  0  0  0  0  0  0  0
  -11.8190    3.8724   -0.0000 C   0  0  0  0  0  0  0  0  0  0  0  0
  -10.5005   -4.3356   -0.0000 C   0  0  0  0  0  0  0  0  0  0  0  0
   -9.2058   -5.0721   -0.0000 O   0  0  0  0  0  0  0  0  0  0  0  0
  -11.8072   -5.0840   -0.0000 O   0  0  0  0  0  0  0  0  0  0  0  0
  -13.1257   -4.3237   -0.0000 C   0  0  0  0  0  0  0  0  0  0  0  0
  1  2  1  0  0  0  0
  2  3  2  0  0  0  0
  2  4  1  0  0  0  0
  3  5  1  0  0  0  0
  3  6  1  0  0  0  0
  4  7  1  0  0  0  0
  4  8  2  0  0  0  0
  5  9  1  0  0  0  0
  6 10  2  0  0  0  0
  7 11  1  0  0  0  0
  7 12  2  0  0  0  0
 11 13  2  0  0  0  0
 11 14  1  0  0  0  0
 12 15  1  0  0  0  0
 12 16  1  0  0  0  0
 14 17  1  0  0  0  0
 14 18  1  0  0  0  0
 15 19  1  0  0  0  0
 17 20  2  0  0  0  0
 18 21  1  0  0  0  0
 19 22  1  0  0  0  0
 21 23  1  6  0  0  0
 21 24  1  0  0  0  0
 22 25  2  0  0  0  0
 22 26  1  0  0  0  0
 23 27  1  0  0  0  0
 24 28  2  0  0  0  0
 24 29  1  0  0  0  0
 25 30  1  0  0  0  0
 25 31  1  0  0  0  0
 26 32  2  0  0  0  0
 26 33  1  0  0  0  0
 27 34  1  0  0  0  0
 28 35  1  0  0  0  0
 29 36  2  0  0  0  0
 31 37  2  0  0  0  0
 33 38  1  0  0  0  0
 33 39  1  0  0  0  0
 33 40  1  0  0  0  0
 34 41  1  0  0  0  0
 35 42  2  0  0  0  0
 41 43  1  0  0  0  0
 43 44  2  0  0  0  0
 43 45  1  0  0  0  0
 45 46  1  0  0  0  0
  8 10  1  0  0  0  0
 15 17  1  0  0  0  0
 32 37  1  0  0  0  0
 36 42  1  0  0  0  0
M  END
>  <MolRegNo>
515202

>  <m>
=

>  <Value>
440

>  <Unit>
nM

>  <Type>
IC50

>  <pValue>
6.36

>  <Ligand Efficiency>
0

>  <Binding Efficiency>
0

>  <Surface Efficiency>
0

>  <Assay Index>
343998

>  <Assay Category>


>  <Assay Organism>


>  <Target ID>
17045

>  <Target Name>
Cytochrome P450 3A4

>  <Target Organism>
Homo sapiens

>  <Target Description>
Target is a single protein chain

>  <Sequence Accession>
P08684

>  <Reference>
J Med Chem 51 (23), 7478-7485 (2008)

>  <Pubmed ID>
19006286

>  <DOI>
10.1021/jm8006454

$$$$
487193
Actelion Java MolfileCreator 1.0

 39 42  0  0  0  0  0  0  0  0999 V2000
    0.0000   -0.0000   -0.0000 F   0  0  0  0  0  0  0  0  0  0  0  0
    1.2959   -0.7252   -0.0000 C   0  0  0  0  0  0  0  0  0  0  0  0
    2.5799    0.0476   -0.0000 C   0  0  0  0  0  0  0  0  0  0  0  0
    1.2959   -2.2113   -0.0000 C   0  0  0  0  0  0  0  0  0  0  0  0
    2.5561    1.5575   -0.0000 O   0  0  0  0  0  0  0  0  0  0  0  0
    3.8758   -0.6896   -0.0000 C   0  0  0  0  0  0  0  0  0  0  0  0
   -0.0119   -2.9485   -0.0000 C   0  0  0  0  0  0  0  0  0  0  0  0
    2.5799   -2.9485   -0.0000 C   0  0  0  0  0  0  0  0  0  0  0  0
    3.8401    2.3302   -0.0000 C   0  0  0  0  0  0  0  0  0  0  0  0
    3.8639   -2.1876   -0.0000 C   0  0  0  0  0  0  0  0  0  0  0  0
   -1.3197   -2.1757   -0.0000 C   0  0  0  0  0  0  0  0  0  0  0  0
   -0.0238   -4.4346   -0.0000 C   0  0  0  0  0  0  0  0  0  0  0  0
   -1.3316   -0.6658   -0.0000 O   0  0  0  0  0  0  0  0  0  0  0  0
   -2.6275   -2.9247   -0.0000 N   0  0  0  0  0  0  0  0  0  0  0  0
   -1.3316   -5.1717   -0.0000 N   0  0  0  0  0  0  0  0  0  0  0  0
    1.2602   -5.1717   -0.0000 C   0  0  0  0  0  0  0  0  0  0  0  0
   -2.6393   -4.4108   -0.0000 C   0  0  0  0  0  0  0  0  0  0  0  0
   -3.9471   -2.1638   -0.0000 C   0  0  0  0  0  0  0  0  0  0  0  0
   -1.3434   -6.6578   -0.0000 C   0  0  0  0  0  0  0  0  0  0  0  0
   -3.9471   -5.1479   -0.0000 O   0  0  0  0  0  0  0  0  0  0  0  0
   -5.2549   -2.9128   -0.0000 C   0  0  0  0  0  0  0  0  0  0  0  0
   -0.0594   -7.3949   -0.0000 C   0  0  0  0  0  0  0  0  0  0  0  0
   -5.2668   -4.3989   -0.0000 N   0  0  0  0  0  0  0  0  0  0  0  0
   -6.5627   -2.1519   -0.0000 C   0  0  0  0  0  0  0  0  0  0  0  0
    1.2127   -6.6340   -0.0000 C   0  0  0  0  0  0  0  0  0  0  0  0
   -0.0832   -8.8929   -0.0000 C   0  0  0  0  0  0  0  0  0  0  0  0
   -6.5746   -0.6301   -0.0000 C   0  0  0  0  0  0  0  0  0  0  0  0
   -7.8705   -2.8890   -0.0000 C   0  0  0  0  0  0  0  0  0  0  0  0
   -0.1070   -5.8731   -0.0000 F   0  0  0  0  0  0  0  0  0  0  0  0
    2.4967   -7.3711   -0.0000 C   0  0  0  0  0  0  0  0  0  0  0  0
    1.2008   -9.6300   -0.0000 C   0  0  0  0  0  0  0  0  0  0  0  0
   -1.4029   -9.6300   -0.0000 C   0  0  0  0  0  0  0  0  0  0  0  0
   -7.8824    0.1308   -0.0000 C   0  0  0  0  0  0  0  0  0  0  0  0
   -9.1901   -2.1400   -0.0000 C   0  0  0  0  0  0  0  0  0  0  0  0
    2.4848   -8.8691   -0.0000 C   0  0  0  0  0  0  0  0  0  0  0  0
   -2.7226  -10.3553   -0.0000 F   0  0  0  0  0  0  0  0  0  0  0  0
   -0.6777  -10.9259   -0.0000 F   0  0  0  0  0  0  0  0  0  0  0  0
   -2.1519   -8.3104   -0.0000 F   0  0  0  0  0  0  0  0  0  0  0  0
   -9.1901   -0.6182   -0.0000 C   0  0  0  0  0  0  0  0  0  0  0  0
  1  2  1  0  0  0  0
  2  3  2  0  0  0  0
  2  4  1  0  0  0  0
  3  5  1  0  0  0  0
  3  6  1  0  0  0  0
  4  7  1  0  0  0  0
  4  8  2  0  0  0  0
  5  9  1  0  0  0  0
  6 10  2  0  0  0  0
  7 11  1  0  0  0  0
  7 12  2  0  0  0  0
 11 13  2  0  0  0  0
 11 14  1  0  0  0  0
 12 15  1  0  0  0  0
 12 16  1  0  0  0  0
 14 17  1  0  0  0  0
 14 18  1  0  0  0  0
 15 19  1  0  0  0  0
 17 20  2  0  0  0  0
 18 21  1  0  0  0  0
 19 22  1  0  0  0  0
 21 23  1  6  0  0  0
 21 24  1  0  0  0  0
 22 25  2  0  0  0  0
 22 26  1  0  0  0  0
 24 27  2  0  0  0  0
 24 28  1  0  0  0  0
 25 29  1  0  0  0  0
 25 30  1  0  0  0  0
 26 31  2  0  0  0  0
 26 32  1  0  0  0  0
 27 33  1  0  0  0  0
 28 34  2  0  0  0  0
 30 35  2  0  0  0  0
 32 36  1  0  0  0  0
 32 37  1  0  0  0  0
 32 38  1  0  0  0  0
 33 39  2  0  0  0  0
  8 10  1  0  0  0  0
 15 17  1  0  0  0  0
 31 35  1  0  0  0  0
 34 39  1  0  0  0  0
M  END
>  <MolRegNo>
487193

>  <m>
=

>  <Value>
230

>  <Unit>
nM

>  <Type>
IC50

>  <pValue>
6.64

>  <Ligand Efficiency>
0

>  <Binding Efficiency>
0

>  <Surface Efficiency>
0

>  <Assay Index>
343998

>  <Assay Category>


>  <Assay Organism>


>  <Target ID>
17045

>  <Target Name>
Cytochrome P450 3A4

>  <Target Organism>
Homo sapiens

>  <Target Description>
Target is a single protein chain

>  <Sequence Accession>
P08684

>  <Reference>
J Med Chem 51 (23), 7478-7485 (2008)

>  <Pubmed ID>
19006286

>  <DOI>
10.1021/jm8006454

$$$$
454587
Actelion Java MolfileCreator 1.0

 37 41  0  0  1  0  0  0  0  0999 V2000
    0.0000   -0.0000   -0.0000 F   0  0  0  0  0  0  0  0  0  0  0  0
   -1.3014    0.7572   -0.0000 C   0  0  0  0  0  0  0  0  0  0  0  0
   -2.6147    0.0237   -0.0000 C   0  0  0  0  0  0  0  0  0  0  0  0
   -1.3133    2.2716   -0.0000 C   0  0  0  0  0  0  0  0  0  0  0  0
   -3.9162    0.7809   -0.0000 C   0  0  0  0  0  0  0  0  0  0  0  0
   -2.6147    3.0288   -0.0000 C   0  0  0  0  0  0  0  0  0  0  0  0
   -3.9162    2.2834   -0.0000 C   0  0  0  0  0  0  0  0  0  0  0  0
   -5.2176    3.0407   -0.0000 N   0  0  0  0  0  0  0  0  0  0  0  0
   -6.5191    2.3071   -0.0000 C   0  0  0  0  0  0  0  0  0  0  0  0
   -6.5309    0.8282   -0.0000 C   0  0  0  0  0  0  0  0  0  0  0  0
   -7.8323    3.0643   -0.0000 C   0  0  0  0  0  0  0  0  0  0  0  0
   -7.8323    0.0947   -0.0000 C   0  0  0  0  0  0  0  0  0  0  0  0
   -9.1456    2.3308   -0.0000 C   0  0  0  0  0  0  0  0  0  0  0  0
   -9.1338    0.8637   -0.0000 N   0  0  0  0  0  0  0  0  0  0  0  0
  -10.4352    0.1301   -0.0000 C   0  0  0  0  0  0  0  0  0  0  0  0
  -11.7485    0.8874   -0.0000 O   0  0  0  0  0  0  0  0  0  0  0  0
  -10.4471   -1.3488   -0.0000 C   0  0  0  0  0  0  0  0  0  0  0  0
   -9.1693   -2.0823   -0.0000 N   0  0  0  0  0  0  0  0  0  0  0  0
  -11.7485   -2.0823   -0.0000 C   0  0  0  0  0  0  0  0  0  0  0  0
   -9.1811   -3.5731   -0.0000 C   0  0  0  0  0  0  0  0  0  0  0  0
  -13.0500   -1.3251   -0.0000 C   0  0  0  0  0  0  0  0  0  0  0  0
  -11.7603   -3.5612   -0.0000 C   0  0  0  0  0  0  0  0  0  0  0  0
  -10.4944   -4.3066   -0.0000 C   0  0  0  0  0  0  0  0  0  0  0  0
  -14.3632   -2.0587   -0.0000 C   0  0  0  0  0  0  0  0  0  0  0  0
  -13.0618    0.1893   -0.0000 C   0  0  0  0  0  0  0  0  0  0  0  0
  -15.6647   -1.3014   -0.0000 C   0  0  0  0  0  0  0  0  0  0  0  0
  -14.3632    0.9465   -0.0000 C   0  0  0  0  0  0  0  0  0  0  0  0
  -15.6647    0.2011   -0.0000 C   0  0  0  0  0  0  0  0  0  0  0  0
  -16.9661    0.9583   -0.0000 C   0  0  0  0  0  0  0  0  0  0  0  0
  -16.9780    2.4609   -0.0000 N   0  0  0  0  0  0  0  0  0  0  0  0
  -15.6883    3.2181   -0.0000 C   0  0  0  0  0  0  0  0  0  0  0  0
  -18.2794    3.2181   -0.0000 C   0  0  0  0  0  0  0  0  0  0  0  0
  -15.7002    4.7325   -0.0000 C   0  0  0  0  0  0  0  0  0  0  0  0
  -18.2912    4.7325   -0.0000 C   0  0  0  0  0  0  0  0  0  0  0  0
  -17.0135    5.5016   -0.0000 N   0  0  0  0  0  0  0  0  0  0  0  0
  -14.4224    5.4897   -0.0000 C   0  0  0  0  0  0  0  0  0  0  0  0
  -19.6045    5.4897   -0.0000 C   0  0  0  0  0  0  0  0  0  0  0  0
  1  2  1  0  0  0  0
  2  3  2  0  0  0  0
  2  4  1  0  0  0  0
  3  5  1  0  0  0  0
  4  6  2  0  0  0  0
  5  7  2  0  0  0  0
  7  8  1  0  0  0  0
  8  9  1  0  0  0  0
  9 10  1  0  0  0  0
  9 11  1  0  0  0  0
 10 12  1  0  0  0  0
 11 13  1  0  0  0  0
 12 14  1  0  0  0  0
 14 15  1  0  0  0  0
 15 16  2  0  0  0  0
 15 17  1  0  0  0  0
 17 18  2  0  0  0  0
 17 19  1  0  0  0  0
 18 20  1  0  0  0  0
 19 21  1  0  0  0  0
 19 22  2  0  0  0  0
 20 23  2  0  0  0  0
 21 24  2  0  0  0  0
 21 25  1  0  0  0  0
 24 26  1  0  0  0  0
 25 27  2  0  0  0  0
 26 28  2  0  0  0  0
 28 29  1  0  0  0  0
 29 30  1  0  0  0  0
 30 31  1  0  0  0  0
 30 32  1  0  0  0  0
 31 33  1  0  0  0  0
 32 34  1  0  0  0  0
 33 35  1  0  0  0  0
 33 36  1  1  0  0  0
 34 37  1  1  0  0  0
  6  7  1  0  0  0  0
 13 14  1  0  0  0  0
 22 23  1  0  0  0  0
 27 28  1  0  0  0  0
 34 35  1  0  0  0  0
M  END
>  <MolRegNo>
454587

>  <m>
=

>  <Value>
20000

>  <Unit>
nM

>  <Type>
IC50

>  <pValue>
4.7

>  <Ligand Efficiency>
0

>  <Binding Efficiency>
0

>  <Surface Efficiency>
0

>  <Assay Index>
344384

>  <Assay Category>


>  <Assay Organism>
Homo sapiens

>  <Target ID>
17045

>  <Target Name>
Cytochrome P450 3A4

>  <Target Organism>
Homo sapiens

>  <Target Description>
Target is a single protein chain

>  <Sequence Accession>
P08684

>  <Reference>
J Med Chem 52 (4), 1180-1189 (2009)

>  <Pubmed ID>
19191554

>  <DOI>
10.1021/jm801332q

$$$$
454590
Actelion Java MolfileCreator 1.0

 32 35  0  0  0  0  0  0  0  0999 V2000
    0.0000   -0.0000   -0.0000 F   0  0  0  0  0  0  0  0  0  0  0  0
   -1.3021   -0.7458   -0.0000 C   0  0  0  0  0  0  0  0  0  0  0  0
   -1.3021   -2.2254   -0.0000 C   0  0  0  0  0  0  0  0  0  0  0  0
   -2.6279   -0.0000   -0.0000 C   0  0  0  0  0  0  0  0  0  0  0  0
   -2.5924   -2.9712   -0.0000 C   0  0  0  0  0  0  0  0  0  0  0  0
   -3.9300   -0.7576   -0.0000 C   0  0  0  0  0  0  0  0  0  0  0  0
   -2.5806   -4.4509   -0.0000 N   0  0  0  0  0  0  0  0  0  0  0  0
   -3.9063   -2.2373   -0.0000 C   0  0  0  0  0  0  0  0  0  0  0  0
   -3.8708   -5.2085   -0.0000 C   0  0  0  0  0  0  0  0  0  0  0  0
   -5.1848   -4.4745   -0.0000 C   0  0  0  0  0  0  0  0  0  0  0  0
   -3.8590   -6.6881   -0.0000 C   0  0  0  0  0  0  0  0  0  0  0  0
   -6.4751   -5.2203   -0.0000 C   0  0  0  0  0  0  0  0  0  0  0  0
   -5.1611   -7.4457   -0.0000 C   0  0  0  0  0  0  0  0  0  0  0  0
   -6.4632   -6.7118   -0.0000 N   0  0  0  0  0  0  0  0  0  0  0  0
   -7.7653   -7.4576   -0.0000 C   0  0  0  0  0  0  0  0  0  0  0  0
   -7.7653   -8.9372   -0.0000 O   0  0  0  0  0  0  0  0  0  0  0  0
   -9.0793   -6.7118   -0.0000 C   0  0  0  0  0  0  0  0  0  0  0  0
  -10.3814   -7.4457   -0.0000 C   0  0  0  0  0  0  0  0  0  0  0  0
  -11.6835   -6.6881   -0.0000 C   0  0  0  0  0  0  0  0  0  0  0  0
  -12.9975   -7.4221   -0.0000 C   0  0  0  0  0  0  0  0  0  0  0  0
  -11.6954   -5.1729   -0.0000 C   0  0  0  0  0  0  0  0  0  0  0  0
  -14.2996   -6.6645   -0.0000 C   0  0  0  0  0  0  0  0  0  0  0  0
  -12.9975   -4.4154   -0.0000 C   0  0  0  0  0  0  0  0  0  0  0  0
  -14.2996   -5.1611   -0.0000 C   0  0  0  0  0  0  0  0  0  0  0  0
  -15.6017   -4.4035   -0.0000 C   0  0  0  0  0  0  0  0  0  0  0  0
  -15.6135   -2.9002   -0.0000 N   0  0  0  0  0  0  0  0  0  0  0  0
  -14.3233   -2.1426   -0.0000 C   0  0  0  0  0  0  0  0  0  0  0  0
  -16.9157   -2.1426   -0.0000 C   0  0  0  0  0  0  0  0  0  0  0  0
  -14.3351   -0.6274   -0.0000 C   0  0  0  0  0  0  0  0  0  0  0  0
  -16.9275   -0.6274   -0.0000 C   0  0  0  0  0  0  0  0  0  0  0  0
  -15.6490    0.1420   -0.0000 N   0  0  0  0  0  0  0  0  0  0  0  0
  -13.0567    0.1302   -0.0000 C   0  0  0  0  0  0  0  0  0  0  0  0
  1  2  1  0  0  0  0
  2  3  2  0  0  0  0
  2  4  1  0  0  0  0
  3  5  1  0  0  0  0
  4  6  2  0  0  0  0
  5  7  1  0  0  0  0
  5  8  2  0  0  0  0
  7  9  1  0  0  0  0
  9 10  1  0  0  0  0
  9 11  1  0  0  0  0
 10 12  1  0  0  0  0
 11 13  1  0  0  0  0
 12 14  1  0  0  0  0
 14 15  1  0  0  0  0
 15 16  2  0  0  0  0
 15 17  1  0  0  0  0
 17 18  1  0  0  0  0
 18 19  1  0  0  0  0
 19 20  2  0  0  0  0
 19 21  1  0  0  0  0
 20 22  1  0  0  0  0
 21 23  2  0  0  0  0
 22 24  2  0  0  0  0
 24 25  1  0  0  0  0
 25 26  1  0  0  0  0
 26 27  1  0  0  0  0
 26 28  1  0  0  0  0
 27 29  1  0  0  0  0
 28 30  1  0  0  0  0
 29 31  1  0  0  0  0
 29 32  1  1  0  0  0
  6  8  1  0  0  0  0
 13 14  1  0  0  0  0
 23 24  1  0  0  0  0
 30 31  1  0  0  0  0
M  END
>  <MolRegNo>
454590

>  <m>
=

>  <Value>
10000

>  <Unit>
nM

>  <Type>
IC50

>  <pValue>
5

>  <Ligand Efficiency>
0

>  <Binding Efficiency>
0

>  <Surface Efficiency>
0

>  <Assay Index>
344387

>  <Assay Category>


>  <Assay Organism>
Homo sapiens

>  <Target ID>
17045

>  <Target Name>
Cytochrome P450 3A4

>  <Target Organism>
Homo sapiens

>  <Target Description>
Target is a single protein chain

>  <Sequence Accession>
P08684

>  <Reference>
J Med Chem 52 (4), 1180-1189 (2009)

>  <Pubmed ID>
19191554

>  <DOI>
10.1021/jm801332q

$$$$
454668
Actelion Java MolfileCreator 1.0

 32 35  0  0  1  0  0  0  0  0999 V2000
    0.0000   -0.0000   -0.0000 F   0  0  0  0  0  0  0  0  0  0  0  0
   -1.2991   -0.7440   -0.0000 C   0  0  0  0  0  0  0  0  0  0  0  0
   -1.3109   -2.2203   -0.0000 C   0  0  0  0  0  0  0  0  0  0  0  0
   -2.6100    0.0118   -0.0000 C   0  0  0  0  0  0  0  0  0  0  0  0
   -2.6100   -2.9525   -0.0000 C   0  0  0  0  0  0  0  0  0  0  0  0
   -3.9091   -0.7322   -0.0000 C   0  0  0  0  0  0  0  0  0  0  0  0
   -3.9091   -2.1967   -0.0000 C   0  0  0  0  0  0  0  0  0  0  0  0
   -5.2083   -2.9525   -0.0000 N   0  0  0  0  0  0  0  0  0  0  0  0
   -6.4956   -2.1731   -0.0000 C   0  0  0  0  0  0  0  0  0  0  0  0
   -7.8065   -2.8817   -0.0000 C   0  0  0  0  0  0  0  0  0  0  0  0
   -6.4838   -0.6732   -0.0000 C   0  0  0  0  0  0  0  0  0  0  0  0
   -9.0938   -2.1140   -0.0000 C   0  0  0  0  0  0  0  0  0  0  0  0
   -7.7829    0.1063   -0.0000 C   0  0  0  0  0  0  0  0  0  0  0  0
   -9.0820   -0.6023   -0.0000 N   0  0  0  0  0  0  0  0  0  0  0  0
  -10.3811    0.1653   -0.0000 C   0  0  0  0  0  0  0  0  0  0  0  0
  -10.3811    1.6652   -0.0000 O   0  0  0  0  0  0  0  0  0  0  0  0
  -11.6920   -0.5551   -0.0000 C   0  0  0  0  0  0  0  0  0  0  0  0
  -13.0029    0.1890   -0.0000 C   0  0  0  0  0  0  0  0  0  0  0  0
  -14.3139   -0.5433   -0.0000 C   0  0  0  0  0  0  0  0  0  0  0  0
  -13.0147    1.7007   -0.0000 C   0  0  0  0  0  0  0  0  0  0  0  0
  -15.6130    0.2126   -0.0000 C   0  0  0  0  0  0  0  0  0  0  0  0
  -14.3139    2.4565   -0.0000 C   0  0  0  0  0  0  0  0  0  0  0  0
  -15.6130    1.7125   -0.0000 C   0  0  0  0  0  0  0  0  0  0  0  0
  -16.9121    2.4683   -0.0000 C   0  0  0  0  0  0  0  0  0  0  0  0
  -16.9239    3.9682   -0.0000 N   0  0  0  0  0  0  0  0  0  0  0  0
  -15.6366    4.7240   -0.0000 C   0  0  0  0  0  0  0  0  0  0  0  0
  -18.2230    4.7240   -0.0000 C   0  0  0  0  0  0  0  0  0  0  0  0
  -15.6484    6.2357   -0.0000 C   0  0  0  0  0  0  0  0  0  0  0  0
  -18.2348    6.2357   -0.0000 C   0  0  0  0  0  0  0  0  0  0  0  0
  -16.9593    7.0034   -0.0000 N   0  0  0  0  0  0  0  0  0  0  0  0
  -14.3729    6.9916   -0.0000 C   0  0  0  0  0  0  0  0  0  0  0  0
  -19.5457    6.9916   -0.0000 C   0  0  0  0  0  0  0  0  0  0  0  0
  1  2  1  0  0  0  0
  2  3  2  0  0  0  0
  2  4  1  0  0  0  0
  3  5  1  0  0  0  0
  4  6  2  0  0  0  0
  5  7  2  0  0  0  0
  7  8  1  0  0  0  0
  8  9  1  0  0  0  0
  9 10  1  0  0  0  0
  9 11  1  0  0  0  0
 10 12  1  0  0  0  0
 11 13  1  0  0  0  0
 12 14  1  0  0  0  0
 14 15  1  0  0  0  0
 15 16  2  0  0  0  0
 15 17  1  0  0  0  0
 17 18  1  0  0  0  0
 18 19  2  0  0  0  0
 18 20  1  0  0  0  0
 19 21  1  0  0  0  0
 20 22  2  0  0  0  0
 21 23  2  0  0  0  0
 23 24  1  0  0  0  0
 24 25  1  0  0  0  0
 25 26  1  0  0  0  0
 25 27  1  0  0  0  0
 26 28  1  0  0  0  0
 27 29  1  0  0  0  0
 28 30  1  0  0  0  0
 28 31  1  1  0  0  0
 29 32  1  1  0  0  0
  6  7  1  0  0  0  0
 13 14  1  0  0  0  0
 22 23  1  0  0  0  0
 29 30  1  0  0  0  0
M  END
>  <MolRegNo>
454668

>  <m>
=

>  <Value>
41000

>  <Unit>
nM

>  <Type>
IC50

>  <pValue>
4.39

>  <Ligand Efficiency>
0

>  <Binding Efficiency>
0

>  <Surface Efficiency>
0

>  <Assay Index>
344387

>  <Assay Category>


>  <Assay Organism>
Homo sapiens

>  <Target ID>
17045

>  <Target Name>
Cytochrome P450 3A4

>  <Target Organism>
Homo sapiens

>  <Target Description>
Target is a single protein chain

>  <Sequence Accession>
P08684

>  <Reference>
J Med Chem 52 (4), 1180-1189 (2009)

>  <Pubmed ID>
19191554

>  <DOI>
10.1021/jm801332q

$$$$
454841
Actelion Java MolfileCreator 1.0

 31 34  0  0  0  0  0  0  0  0999 V2000
    0.0000   -0.0000   -0.0000 F   0  0  0  0  0  0  0  0  0  0  0  0
   -1.2994   -0.7442   -0.0000 C   0  0  0  0  0  0  0  0  0  0  0  0
   -1.3113   -2.2209   -0.0000 C   0  0  0  0  0  0  0  0  0  0  0  0
   -2.6107    0.0118   -0.0000 C   0  0  0  0  0  0  0  0  0  0  0  0
   -2.6107   -2.9533   -0.0000 C   0  0  0  0  0  0  0  0  0  0  0  0
   -3.9102   -0.7324   -0.0000 C   0  0  0  0  0  0  0  0  0  0  0  0
   -3.9102   -2.1973   -0.0000 C   0  0  0  0  0  0  0  0  0  0  0  0
   -5.2096   -2.9533   -0.0000 N   0  0  0  0  0  0  0  0  0  0  0  0
   -6.4972   -2.1736   -0.0000 C   0  0  0  0  0  0  0  0  0  0  0  0
   -7.8085   -2.8824   -0.0000 C   0  0  0  0  0  0  0  0  0  0  0  0
   -6.4854   -0.6734   -0.0000 C   0  0  0  0  0  0  0  0  0  0  0  0
   -9.0961   -2.1146   -0.0000 C   0  0  0  0  0  0  0  0  0  0  0  0
   -7.7849    0.1063   -0.0000 C   0  0  0  0  0  0  0  0  0  0  0  0
   -9.0843   -0.6025   -0.0000 N   0  0  0  0  0  0  0  0  0  0  0  0
  -10.3838    0.1654   -0.0000 C   0  0  0  0  0  0  0  0  0  0  0  0
  -10.3838    1.6657   -0.0000 O   0  0  0  0  0  0  0  0  0  0  0  0
  -11.6950   -0.5552   -0.0000 C   0  0  0  0  0  0  0  0  0  0  0  0
  -13.0063    0.1890   -0.0000 C   0  0  0  0  0  0  0  0  0  0  0  0
  -14.3176   -0.5434   -0.0000 C   0  0  0  0  0  0  0  0  0  0  0  0
  -13.0181    1.7011   -0.0000 C   0  0  0  0  0  0  0  0  0  0  0  0
  -15.6170    0.2126   -0.0000 C   0  0  0  0  0  0  0  0  0  0  0  0
  -14.3176    2.4571   -0.0000 C   0  0  0  0  0  0  0  0  0  0  0  0
  -15.6170    1.7129   -0.0000 C   0  0  0  0  0  0  0  0  0  0  0  0
  -16.9165    2.4690   -0.0000 C   0  0  0  0  0  0  0  0  0  0  0  0
  -16.9283    3.9692   -0.0000 N   0  0  0  0  0  0  0  0  0  0  0  0
  -15.6406    4.7253   -0.0000 C   0  0  0  0  0  0  0  0  0  0  0  0
  -18.2277    4.7253   -0.0000 C   0  0  0  0  0  0  0  0  0  0  0  0
  -15.6525    6.2374   -0.0000 C   0  0  0  0  0  0  0  0  0  0  0  0
  -18.2395    6.2374   -0.0000 C   0  0  0  0  0  0  0  0  0  0  0  0
  -16.9637    7.0052   -0.0000 N   0  0  0  0  0  0  0  0  0  0  0  0
  -14.3766    6.9934   -0.0000 C   0  0  0  0  0  0  0  0  0  0  0  0
  1  2  1  0  0  0  0
  2  3  2  0  0  0  0
  2  4  1  0  0  0  0
  3  5  1  0  0  0  0
  4  6  2  0  0  0  0
  5  7  2  0  0  0  0
  7  8  1  0  0  0  0
  8  9  1  0  0  0  0
  9 10  1  0  0  0  0
  9 11  1  0  0  0  0
 10 12  1  0  0  0  0
 11 13  1  0  0  0  0
 12 14  1  0  0  0  0
 14 15  1  0  0  0  0
 15 16  2  0  0  0  0
 15 17  1  0  0  0  0
 17 18  1  0  0  0  0
 18 19  2  0  0  0  0
 18 20  1  0  0  0  0
 19 21  1  0  0  0  0
 20 22  2  0  0  0  0
 21 23  2  0  0  0  0
 23 24  1  0  0  0  0
 24 25  1  0  0  0  0
 25 26  1  0  0  0  0
 25 27  1  0  0  0  0
 26 28  1  0  0  0  0
 27 29  1  0  0  0  0
 28 30  1  0  0  0  0
 28 31  1  1  0  0  0
  6  7  1  0  0  0  0
 13 14  1  0  0  0  0
 22 23  1  0  0  0  0
 29 30  1  0  0  0  0
M  END
>  <MolRegNo>
454841

>  <m>
=

>  <Value>
4900

>  <Unit>
nM

>  <Type>
IC50

>  <pValue>
5.31

>  <Ligand Efficiency>
0

>  <Binding Efficiency>
0

>  <Surface Efficiency>
0

>  <Assay Index>
344387

>  <Assay Category>


>  <Assay Organism>
Homo sapiens

>  <Target ID>
17045

>  <Target Name>
Cytochrome P450 3A4

>  <Target Organism>
Homo sapiens

>  <Target Description>
Target is a single protein chain

>  <Sequence Accession>
P08684

>  <Reference>
J Med Chem 52 (4), 1180-1189 (2009)

>  <Pubmed ID>
19191554

>  <DOI>
10.1021/jm801332q

$$$$
454842
Actelion Java MolfileCreator 1.0

 31 34  0  0  0  0  0  0  0  0999 V2000
    0.0000   -0.0000   -0.0000 F   0  0  0  0  0  0  0  0  0  0  0  0
   -1.4530   -0.3746   -0.0000 C   0  0  0  0  0  0  0  0  0  0  0  0
   -2.5201    0.6925   -0.0000 C   0  0  0  0  0  0  0  0  0  0  0  0
   -1.8504   -1.8049   -0.0000 C   0  0  0  0  0  0  0  0  0  0  0  0
   -3.9731    0.3179   -0.0000 C   0  0  0  0  0  0  0  0  0  0  0  0
   -3.3034   -2.1796   -0.0000 C   0  0  0  0  0  0  0  0  0  0  0  0
   -5.0402    1.3849   -0.0000 N   0  0  0  0  0  0  0  0  0  0  0  0
   -4.3705   -1.1125   -0.0000 C   0  0  0  0  0  0  0  0  0  0  0  0
   -6.4933    1.0103   -0.0000 C   0  0  0  0  0  0  0  0  0  0  0  0
   -7.5603    2.0774   -0.0000 C   0  0  0  0  0  0  0  0  0  0  0  0
   -6.8906   -0.4200   -0.0000 C   0  0  0  0  0  0  0  0  0  0  0  0
   -9.0134    1.7028   -0.0000 C   0  0  0  0  0  0  0  0  0  0  0  0
   -8.3436   -0.7946   -0.0000 C   0  0  0  0  0  0  0  0  0  0  0  0
   -9.4107    0.2724   -0.0000 N   0  0  0  0  0  0  0  0  0  0  0  0
  -10.8637   -0.1022   -0.0000 C   0  0  0  0  0  0  0  0  0  0  0  0
  -11.2610   -1.5325   -0.0000 O   0  0  0  0  0  0  0  0  0  0  0  0
  -11.9308    0.9649   -0.0000 C   0  0  0  0  0  0  0  0  0  0  0  0
  -13.3838    0.5903   -0.0000 C   0  0  0  0  0  0  0  0  0  0  0  0
  -14.4509    1.6574   -0.0000 C   0  0  0  0  0  0  0  0  0  0  0  0
  -13.7811   -0.8400   -0.0000 C   0  0  0  0  0  0  0  0  0  0  0  0
  -15.9039    1.2828   -0.0000 C   0  0  0  0  0  0  0  0  0  0  0  0
  -15.2342   -1.2146   -0.0000 C   0  0  0  0  0  0  0  0  0  0  0  0
  -16.3013   -0.1476   -0.0000 C   0  0  0  0  0  0  0  0  0  0  0  0
  -17.7543   -0.5222   -0.0000 C   0  0  0  0  0  0  0  0  0  0  0  0
  -18.8214    0.5449   -0.0000 N   0  0  0  0  0  0  0  0  0  0  0  0
  -20.2744    0.1703   -0.0000 C   0  0  0  0  0  0  0  0  0  0  0  0
  -18.4468    1.9979   -0.0000 C   0  0  0  0  0  0  0  0  0  0  0  0
  -21.3415    1.2374   -0.0000 C   0  0  0  0  0  0  0  0  0  0  0  0
  -19.5138    3.0650   -0.0000 C   0  0  0  0  0  0  0  0  0  0  0  0
  -20.9669    2.6904   -0.0000 N   0  0  0  0  0  0  0  0  0  0  0  0
  -22.7945    0.8627   -0.0000 C   0  0  0  0  0  0  0  0  0  0  0  0
  1  2  1  0  0  0  0
  2  3  2  0  0  0  0
  2  4  1  0  0  0  0
  3  5  1  0  0  0  0
  4  6  2  0  0  0  0
  5  7  1  0  0  0  0
  5  8  2  0  0  0  0
  7  9  1  0  0  0  0
  9 10  1  0  0  0  0
  9 11  1  0  0  0  0
 10 12  1  0  0  0  0
 11 13  1  0  0  0  0
 12 14  1  0  0  0  0
 14 15  1  0  0  0  0
 15 16  2  0  0  0  0
 15 17  1  0  0  0  0
 17 18  1  0  0  0  0
 18 19  2  0  0  0  0
 18 20  1  0  0  0  0
 19 21  1  0  0  0  0
 20 22  2  0  0  0  0
 21 23  2  0  0  0  0
 23 24  1  0  0  0  0
 24 25  1  0  0  0  0
 25 26  1  0  0  0  0
 25 27  1  0  0  0  0
 26 28  1  0  0  0  0
 27 29  1  0  0  0  0
 28 30  1  0  0  0  0
 28 31  1  6  0  0  0
  6  8  1  0  0  0  0
 13 14  1  0  0  0  0
 22 23  1  0  0  0  0
 29 30  1  0  0  0  0
M  END
>  <MolRegNo>
454842

>  <m>
=

>  <Value>
26000

>  <Unit>
nM

>  <Type>
IC50

>  <pValue>
4.58

>  <Ligand Efficiency>
0

>  <Binding Efficiency>
0

>  <Surface Efficiency>
0

>  <Assay Index>
344387

>  <Assay Category>


>  <Assay Organism>
Homo sapiens

>  <Target ID>
17045

>  <Target Name>
Cytochrome P450 3A4

>  <Target Organism>
Homo sapiens

>  <Target Description>
Target is a single protein chain

>  <Sequence Accession>
P08684

>  <Reference>
J Med Chem 52 (4), 1180-1189 (2009)

>  <Pubmed ID>
19191554

>  <DOI>
10.1021/jm801332q

$$$$
454844
Actelion Java MolfileCreator 1.0

 33 36  0  0  1  0  0  0  0  0999 V2000
    0.0000   -0.0000   -0.0000 F   0  0  0  0  0  0  0  0  0  0  0  0
   -1.2997   -0.7444   -0.0000 C   0  0  0  0  0  0  0  0  0  0  0  0
   -1.3115   -2.2213   -0.0000 C   0  0  0  0  0  0  0  0  0  0  0  0
   -2.6112    0.0118   -0.0000 C   0  0  0  0  0  0  0  0  0  0  0  0
   -2.6112   -2.9538   -0.0000 C   0  0  0  0  0  0  0  0  0  0  0  0
   -3.9109   -0.7325   -0.0000 C   0  0  0  0  0  0  0  0  0  0  0  0
   -3.9109   -2.1976   -0.0000 C   0  0  0  0  0  0  0  0  0  0  0  0
   -5.2105   -2.9538   -0.0000 N   0  0  0  0  0  0  0  0  0  0  0  0
   -6.4984   -2.1740   -0.0000 C   0  0  0  0  0  0  0  0  0  0  0  0
   -7.8099   -2.8829   -0.0000 C   0  0  0  0  0  0  0  0  0  0  0  0
   -6.4866   -0.6735   -0.0000 C   0  0  0  0  0  0  0  0  0  0  0  0
   -9.0978   -2.1149   -0.0000 C   0  0  0  0  0  0  0  0  0  0  0  0
   -7.7863    0.1063   -0.0000 C   0  0  0  0  0  0  0  0  0  0  0  0
   -9.0860   -0.6026   -0.0000 N   0  0  0  0  0  0  0  0  0  0  0  0
  -10.3856    0.1654   -0.0000 C   0  0  0  0  0  0  0  0  0  0  0  0
  -10.3856    1.6660   -0.0000 O   0  0  0  0  0  0  0  0  0  0  0  0
  -11.6971   -0.5553   -0.0000 C   0  0  0  0  0  0  0  0  0  0  0  0
  -13.0086    0.1890   -0.0000 C   0  0  0  0  0  0  0  0  0  0  0  0
  -11.7090   -2.0322   -0.0000 C   0  0  0  0  0  0  0  0  0  0  0  0
  -14.3201   -0.5435   -0.0000 C   0  0  0  0  0  0  0  0  0  0  0  0
  -13.0205    1.7014   -0.0000 C   0  0  0  0  0  0  0  0  0  0  0  0
  -15.6198    0.2127   -0.0000 C   0  0  0  0  0  0  0  0  0  0  0  0
  -14.3201    2.4576   -0.0000 C   0  0  0  0  0  0  0  0  0  0  0  0
  -15.6198    1.7132   -0.0000 C   0  0  0  0  0  0  0  0  0  0  0  0
  -16.9195    2.4694   -0.0000 C   0  0  0  0  0  0  0  0  0  0  0  0
  -16.9313    3.9699   -0.0000 N   0  0  0  0  0  0  0  0  0  0  0  0
  -15.6435    4.7261   -0.0000 C   0  0  0  0  0  0  0  0  0  0  0  0
  -18.2310    4.7261   -0.0000 C   0  0  0  0  0  0  0  0  0  0  0  0
  -15.6553    6.2385   -0.0000 C   0  0  0  0  0  0  0  0  0  0  0  0
  -18.2428    6.2385   -0.0000 C   0  0  0  0  0  0  0  0  0  0  0  0
  -16.9668    7.0065   -0.0000 N   0  0  0  0  0  0  0  0  0  0  0  0
  -14.3792    6.9947   -0.0000 C   0  0  0  0  0  0  0  0  0  0  0  0
  -19.5543    6.9947   -0.0000 C   0  0  0  0  0  0  0  0  0  0  0  0
  1  2  1  0  0  0  0
  2  3  2  0  0  0  0
  2  4  1  0  0  0  0
  3  5  1  0  0  0  0
  4  6  2  0  0  0  0
  5  7  2  0  0  0  0
  7  8  1  0  0  0  0
  8  9  1  0  0  0  0
  9 10  1  0  0  0  0
  9 11  1  0  0  0  0
 10 12  1  0  0  0  0
 11 13  1  0  0  0  0
 12 14  1  0  0  0  0
 14 15  1  0  0  0  0
 15 16  2  0  0  0  0
 15 17  1  0  0  0  0
 17 18  1  0  0  0  0
 17 19  1  0  0  0  0
 18 20  2  0  0  0  0
 18 21  1  0  0  0  0
 20 22  1  0  0  0  0
 21 23  2  0  0  0  0
 22 24  2  0  0  0  0
 24 25  1  0  0  0  0
 25 26  1  0  0  0  0
 26 27  1  0  0  0  0
 26 28  1  0  0  0  0
 27 29  1  0  0  0  0
 28 30  1  0  0  0  0
 29 31  1  0  0  0  0
 29 32  1  1  0  0  0
 30 33  1  1  0  0  0
  6  7  1  0  0  0  0
 13 14  1  0  0  0  0
 23 24  1  0  0  0  0
 30 31  1  0  0  0  0
M  END
>  <MolRegNo>
454844

>  <m>
=

>  <Value>
8700

>  <Unit>
nM

>  <Type>
IC50

>  <pValue>
5.06

>  <Ligand Efficiency>
0

>  <Binding Efficiency>
0

>  <Surface Efficiency>
0

>  <Assay Index>
344387

>  <Assay Category>


>  <Assay Organism>
Homo sapiens

>  <Target ID>
17045

>  <Target Name>
Cytochrome P450 3A4

>  <Target Organism>
Homo sapiens

>  <Target Description>
Target is a single protein chain

>  <Sequence Accession>
P08684

>  <Reference>
J Med Chem 52 (4), 1180-1189 (2009)

>  <Pubmed ID>
19191554

>  <DOI>
10.1021/jm801332q

$$$$
454919
Actelion Java MolfileCreator 1.0

 34 37  0  0  1  0  0  0  0  0999 V2000
    0.0000   -0.0000   -0.0000 F   0  0  0  0  0  0  0  0  0  0  0  0
   -1.3214    0.7197   -0.0000 C   0  0  0  0  0  0  0  0  0  0  0  0
   -2.6074   -0.0472   -0.0000 C   0  0  0  0  0  0  0  0  0  0  0  0
   -1.3686    2.2298   -0.0000 C   0  0  0  0  0  0  0  0  0  0  0  0
   -3.9287    0.6843   -0.0000 C   0  0  0  0  0  0  0  0  0  0  0  0
   -2.6899    2.9495   -0.0000 C   0  0  0  0  0  0  0  0  0  0  0  0
   -3.9641    2.1826   -0.0000 C   0  0  0  0  0  0  0  0  0  0  0  0
   -5.2855    2.9023   -0.0000 N   0  0  0  0  0  0  0  0  0  0  0  0
   -5.3091    4.4007   -0.0000 C   0  0  0  0  0  0  0  0  0  0  0  0
   -6.6187    5.1557   -0.0000 C   0  0  0  0  0  0  0  0  0  0  0  0
   -4.0349    5.1675   -0.0000 C   0  0  0  0  0  0  0  0  0  0  0  0
   -6.6423    6.6541   -0.0000 C   0  0  0  0  0  0  0  0  0  0  0  0
   -4.0467    6.6777   -0.0000 C   0  0  0  0  0  0  0  0  0  0  0  0
   -5.3563    7.4092   -0.0000 N   0  0  0  0  0  0  0  0  0  0  0  0
   -5.3799    8.9075   -0.0000 C   0  0  0  0  0  0  0  0  0  0  0  0
   -4.1057    9.6744   -0.0000 O   0  0  0  0  0  0  0  0  0  0  0  0
   -6.6895    9.6508   -0.0000 C   0  0  0  0  0  0  0  0  0  0  0  0
   -7.9873   10.3941   -0.0000 C   0  0  0  0  0  0  0  0  0  0  0  0
   -7.4328    8.3648   -0.0000 C   0  0  0  0  0  0  0  0  0  0  0  0
   -5.9698   10.9604   -0.0000 C   0  0  0  0  0  0  0  0  0  0  0  0
   -9.2968    9.6626   -0.0000 C   0  0  0  0  0  0  0  0  0  0  0  0
   -7.9991   11.9042   -0.0000 C   0  0  0  0  0  0  0  0  0  0  0  0
  -10.5946   10.4177   -0.0000 C   0  0  0  0  0  0  0  0  0  0  0  0
   -9.2968   12.6593   -0.0000 C   0  0  0  0  0  0  0  0  0  0  0  0
  -10.5946   11.9160   -0.0000 C   0  0  0  0  0  0  0  0  0  0  0  0
  -11.8924   12.6711   -0.0000 C   0  0  0  0  0  0  0  0  0  0  0  0
  -11.9042   14.1694   -0.0000 N   0  0  0  0  0  0  0  0  0  0  0  0
  -10.6182   14.9245   -0.0000 C   0  0  0  0  0  0  0  0  0  0  0  0
  -13.2020   14.9245   -0.0000 C   0  0  0  0  0  0  0  0  0  0  0  0
  -10.6300   16.4346   -0.0000 C   0  0  0  0  0  0  0  0  0  0  0  0
  -13.2138   16.4346   -0.0000 C   0  0  0  0  0  0  0  0  0  0  0  0
  -11.9396   17.2015   -0.0000 N   0  0  0  0  0  0  0  0  0  0  0  0
   -9.3558   17.1897   -0.0000 C   0  0  0  0  0  0  0  0  0  0  0  0
  -14.5234   17.1897   -0.0000 C   0  0  0  0  0  0  0  0  0  0  0  0
  1  2  1  0  0  0  0
  2  3  2  0  0  0  0
  2  4  1  0  0  0  0
  3  5  1  0  0  0  0
  4  6  2  0  0  0  0
  5  7  2  0  0  0  0
  7  8  1  0  0  0  0
  8  9  1  0  0  0  0
  9 10  1  0  0  0  0
  9 11  1  0  0  0  0
 10 12  1  0  0  0  0
 11 13  1  0  0  0  0
 12 14  1  0  0  0  0
 14 15  1  0  0  0  0
 15 16  2  0  0  0  0
 15 17  1  0  0  0  0
 17 18  1  0  0  0  0
 17 19  1  0  0  0  0
 17 20  1  0  0  0  0
 18 21  2  0  0  0  0
 18 22  1  0  0  0  0
 21 23  1  0  0  0  0
 22 24  2  0  0  0  0
 23 25  2  0  0  0  0
 25 26  1  0  0  0  0
 26 27  1  0  0  0  0
 27 28  1  0  0  0  0
 27 29  1  0  0  0  0
 28 30  1  0  0  0  0
 29 31  1  0  0  0  0
 30 32  1  0  0  0  0
 30 33  1  1  0  0  0
 31 34  1  1  0  0  0
  6  7  1  0  0  0  0
 13 14  1  0  0  0  0
 24 25  1  0  0  0  0
 31 32  1  0  0  0  0
M  END
>  <MolRegNo>
454919

>  <m>
=

>  <Value>
4700

>  <Unit>
nM

>  <Type>
IC50

>  <pValue>
5.33

>  <Ligand Efficiency>
0

>  <Binding Efficiency>
0

>  <Surface Efficiency>
0

>  <Assay Index>
344387

>  <Assay Category>


>  <Assay Organism>
Homo sapiens

>  <Target ID>
17045

>  <Target Name>
Cytochrome P450 3A4

>  <Target Organism>
Homo sapiens

>  <Target Description>
Target is a single protein chain

>  <Sequence Accession>
P08684

>  <Reference>
J Med Chem 52 (4), 1180-1189 (2009)

>  <Pubmed ID>
19191554

>  <DOI>
10.1021/jm801332q

$$$$
454920
Actelion Java MolfileCreator 1.0

 32 35  0  0  0  0  0  0  0  0999 V2000
    0.0000   -0.0000   -0.0000 O   0  0  0  0  0  0  0  0  0  0  0  0
   -0.0237   -1.4841   -0.0000 C   0  0  0  0  0  0  0  0  0  0  0  0
    1.2586   -2.2322   -0.0000 N   0  0  0  0  0  0  0  0  0  0  0  0
   -1.3417   -2.2084   -0.0000 C   0  0  0  0  0  0  0  0  0  0  0  0
    1.2229   -3.7282   -0.0000 C   0  0  0  0  0  0  0  0  0  0  0  0
    2.5409   -1.4841   -0.0000 C   0  0  0  0  0  0  0  0  0  0  0  0
   -2.6596   -1.4604   -0.0000 C   0  0  0  0  0  0  0  0  0  0  0  0
    2.4934   -4.4762   -0.0000 C   0  0  0  0  0  0  0  0  0  0  0  0
    3.8232   -2.2440   -0.0000 C   0  0  0  0  0  0  0  0  0  0  0  0
   -3.9775   -2.1965   -0.0000 C   0  0  0  0  0  0  0  0  0  0  0  0
   -2.6715    0.0594   -0.0000 C   0  0  0  0  0  0  0  0  0  0  0  0
    3.7875   -3.7400   -0.0000 C   0  0  0  0  0  0  0  0  0  0  0  0
   -5.2836   -1.4367   -0.0000 C   0  0  0  0  0  0  0  0  0  0  0  0
   -3.9775    0.8192   -0.0000 C   0  0  0  0  0  0  0  0  0  0  0  0
    5.0580   -4.4999   -0.0000 N   0  0  0  0  0  0  0  0  0  0  0  0
   -5.2836    0.0712   -0.0000 C   0  0  0  0  0  0  0  0  0  0  0  0
    6.3403   -3.7163   -0.0000 C   0  0  0  0  0  0  0  0  0  0  0  0
   -6.5896    0.8311   -0.0000 C   0  0  0  0  0  0  0  0  0  0  0  0
    7.6226   -4.4524   -0.0000 C   0  0  0  0  0  0  0  0  0  0  0  0
    6.3165   -2.2084   -0.0000 C   0  0  0  0  0  0  0  0  0  0  0  0
   -6.6015    2.3390   -0.0000 N   0  0  0  0  0  0  0  0  0  0  0  0
    8.9049   -3.6926   -0.0000 C   0  0  0  0  0  0  0  0  0  0  0  0
    7.5988   -1.4367   -0.0000 C   0  0  0  0  0  0  0  0  0  0  0  0
   -5.3073    3.0989   -0.0000 C   0  0  0  0  0  0  0  0  0  0  0  0
   -7.9075    3.0989   -0.0000 C   0  0  0  0  0  0  0  0  0  0  0  0
   10.1990   -4.4168   -0.0000 C   0  0  0  0  0  0  0  0  0  0  0  0
    8.8930   -2.1847   -0.0000 C   0  0  0  0  0  0  0  0  0  0  0  0
   -5.3192    4.6187   -0.0000 C   0  0  0  0  0  0  0  0  0  0  0  0
   -7.9194    4.6187   -0.0000 C   0  0  0  0  0  0  0  0  0  0  0  0
   11.4932   -5.1529   -0.0000 N   0  0  0  0  0  0  0  0  0  0  0  0
   -6.6371    5.3904   -0.0000 N   0  0  0  0  0  0  0  0  0  0  0  0
   -4.0369    5.3785   -0.0000 C   0  0  0  0  0  0  0  0  0  0  0  0
  1  2  2  0  0  0  0
  2  3  1  0  0  0  0
  2  4  1  0  0  0  0
  3  5  1  0  0  0  0
  3  6  1  0  0  0  0
  4  7  1  0  0  0  0
  5  8  1  0  0  0  0
  6  9  1  0  0  0  0
  7 10  2  0  0  0  0
  7 11  1  0  0  0  0
  8 12  1  0  0  0  0
 10 13  1  0  0  0  0
 11 14  2  0  0  0  0
 12 15  1  0  0  0  0
 13 16  2  0  0  0  0
 15 17  1  0  0  0  0
 16 18  1  0  0  0  0
 17 19  2  0  0  0  0
 17 20  1  0  0  0  0
 18 21  1  0  0  0  0
 19 22  1  0  0  0  0
 20 23  2  0  0  0  0
 21 24  1  0  0  0  0
 21 25  1  0  0  0  0
 22 26  1  0  0  0  0
 22 27  2  0  0  0  0
 24 28  1  0  0  0  0
 25 29  1  0  0  0  0
 26 30  3  0  0  0  0
 28 31  1  0  0  0  0
 28 32  1  1  0  0  0
  9 12  1  0  0  0  0
 14 16  1  0  0  0  0
 23 27  1  0  0  0  0
 29 31  1  0  0  0  0
M  END
>  <MolRegNo>
454920

>  <m>
=

>  <Value>
36000

>  <Unit>
nM

>  <Type>
IC50

>  <pValue>
4.44

>  <Ligand Efficiency>
0

>  <Binding Efficiency>
0

>  <Surface Efficiency>
0

>  <Assay Index>
344387

>  <Assay Category>


>  <Assay Organism>
Homo sapiens

>  <Target ID>
17045

>  <Target Name>
Cytochrome P450 3A4

>  <Target Organism>
Homo sapiens

>  <Target Description>
Target is a single protein chain

>  <Sequence Accession>
P08684

>  <Reference>
J Med Chem 52 (4), 1180-1189 (2009)

>  <Pubmed ID>
19191554

>  <DOI>
10.1021/jm801332q

$$$$
455519
Actelion Java MolfileCreator 1.0

 33 36  0  0  0  0  0  0  0  0999 V2000
    0.0000   -0.0000   -0.0000 Cl  0  0  0  0  0  0  0  0  0  0  0  0
    1.2931   -0.7355   -0.0000 C   0  0  0  0  0  0  0  0  0  0  0  0
    1.2931   -2.2303   -0.0000 C   0  0  0  0  0  0  0  0  0  0  0  0
    2.5862    0.0356   -0.0000 C   0  0  0  0  0  0  0  0  0  0  0  0
    2.5862   -2.9658   -0.0000 N   0  0  0  0  0  0  0  0  0  0  0  0
   -0.0237   -2.9777   -0.0000 N   0  0  0  0  0  0  0  0  0  0  0  0
    2.5743    1.5541   -0.0000 O   0  0  0  0  0  0  0  0  0  0  0  0
    3.8793   -0.6999   -0.0000 C   0  0  0  0  0  0  0  0  0  0  0  0
    3.8793   -2.1947   -0.0000 C   0  0  0  0  0  0  0  0  0  0  0  0
    3.8675    2.3252   -0.0000 C   0  0  0  0  0  0  0  0  0  0  0  0
    3.8437    3.8319   -0.0000 C   0  0  0  0  0  0  0  0  0  0  0  0
    5.1606    1.5897   -0.0000 C   0  0  0  0  0  0  0  0  0  0  0  0
    2.5269    4.5911   -0.0000 F   0  0  0  0  0  0  0  0  0  0  0  0
    5.1250    4.6030   -0.0000 C   0  0  0  0  0  0  0  0  0  0  0  0
    6.4537    2.3608   -0.0000 C   0  0  0  0  0  0  0  0  0  0  0  0
    6.4299    3.8675   -0.0000 C   0  0  0  0  0  0  0  0  0  0  0  0
    7.7230    4.6386   -0.0000 N   0  0  0  0  0  0  0  0  0  0  0  0
    7.6993    6.1571   -0.0000 C   0  0  0  0  0  0  0  0  0  0  0  0
    6.3825    6.9163   -0.0000 O   0  0  0  0  0  0  0  0  0  0  0  0
    8.9924    6.9282   -0.0000 C   0  0  0  0  0  0  0  0  0  0  0  0
   10.2855    6.1927   -0.0000 C   0  0  0  0  0  0  0  0  0  0  0  0
    8.9687    8.4348   -0.0000 C   0  0  0  0  0  0  0  0  0  0  0  0
   10.2737    4.6979   -0.0000 O   0  0  0  0  0  0  0  0  0  0  0  0
   11.5668    6.9638   -0.0000 N   0  0  0  0  0  0  0  0  0  0  0  0
   10.2499    9.2060   -0.0000 C   0  0  0  0  0  0  0  0  0  0  0  0
   12.8599    6.2283   -0.0000 C   0  0  0  0  0  0  0  0  0  0  0  0
   11.5430    8.4823   -0.0000 C   0  0  0  0  0  0  0  0  0  0  0  0
   12.8480    4.7335   -0.0000 C   0  0  0  0  0  0  0  0  0  0  0  0
   14.1411    6.9994   -0.0000 C   0  0  0  0  0  0  0  0  0  0  0  0
   14.1411    3.9979   -0.0000 C   0  0  0  0  0  0  0  0  0  0  0  0
   15.4342    6.2757   -0.0000 C   0  0  0  0  0  0  0  0  0  0  0  0
   15.4342    4.7691   -0.0000 C   0  0  0  0  0  0  0  0  0  0  0  0
   16.7273    4.0335   -0.0000 F   0  0  0  0  0  0  0  0  0  0  0  0
  1  2  1  0  0  0  0
  2  3  2  0  0  0  0
  2  4  1  0  0  0  0
  3  5  1  0  0  0  0
  3  6  1  0  0  0  0
  4  7  1  0  0  0  0
  4  8  2  0  0  0  0
  5  9  2  0  0  0  0
  7 10  1  0  0  0  0
 10 11  2  0  0  0  0
 10 12  1  0  0  0  0
 11 13  1  0  0  0  0
 11 14  1  0  0  0  0
 12 15  2  0  0  0  0
 14 16  2  0  0  0  0
 16 17  1  0  0  0  0
 17 18  1  0  0  0  0
 18 19  2  0  0  0  0
 18 20  1  0  0  0  0
 20 21  1  0  0  0  0
 20 22  2  0  0  0  0
 21 23  2  0  0  0  0
 21 24  1  0  0  0  0
 22 25  1  0  0  0  0
 24 26  1  0  0  0  0
 24 27  1  0  0  0  0
 26 28  2  0  0  0  0
 26 29  1  0  0  0  0
 28 30  1  0  0  0  0
 29 31  2  0  0  0  0
 30 32  2  0  0  0  0
 32 33  1  0  0  0  0
  8  9  1  0  0  0  0
 15 16  1  0  0  0  0
 25 27  2  0  0  0  0
 31 32  1  0  0  0  0
M  END
>  <MolRegNo>
455519

>  <m>
=

>  <Value>
4000

>  <Unit>
nM

>  <Type>
IC50

>  <pValue>
5.4

>  <Ligand Efficiency>
0

>  <Binding Efficiency>
0

>  <Surface Efficiency>
0

>  <Assay Index>
367410

>  <Assay Category>


>  <Assay Organism>


>  <Target ID>
17045

>  <Target Name>
Cytochrome P450 3A4

>  <Target Organism>
Homo sapiens

>  <Target Description>
Target is a single protein chain

>  <Sequence Accession>
P08684

>  <Reference>
J Med Chem 52 (5), 1251-1254 (2009)

>  <Pubmed ID>
19260711

>  <DOI>
10.1021/jm801586s

$$$$
516531
Actelion Java MolfileCreator 1.0

 27 29  0  0  0  0  0  0  0  0999 V2000
    0.0000   -0.0000   -0.0000 O   0  0  0  0  0  0  0  0  0  0  0  0
    0.0118    1.5128   -0.0000 C   0  0  0  0  0  0  0  0  0  0  0  0
   -1.2882    2.2928   -0.0000 N   0  0  0  0  0  0  0  0  0  0  0  0
    1.3000    2.2573   -0.0000 C   0  0  0  0  0  0  0  0  0  0  0  0
   -2.6119    1.5719   -0.0000 C   0  0  0  0  0  0  0  0  0  0  0  0
   -3.9119    2.3519   -0.0000 N   0  0  0  0  0  0  0  0  0  0  0  0
   -2.6473    0.0827   -0.0000 C   0  0  0  0  0  0  0  0  0  0  0  0
   -5.2238    1.6310   -0.0000 C   0  0  0  0  0  0  0  0  0  0  0  0
   -3.9592   -0.6382   -0.0000 C   0  0  0  0  0  0  0  0  0  0  0  0
   -5.2592    0.1418   -0.0000 N   0  0  0  0  0  0  0  0  0  0  0  0
   -6.5238    2.4110   -0.0000 N   0  0  0  0  0  0  0  0  0  0  0  0
   -3.9946   -2.1273   -0.0000 C   0  0  0  0  0  0  0  0  0  0  0  0
   -7.9066    1.8319   -0.0000 N   0  0  0  0  0  0  0  0  0  0  0  0
   -6.6656    3.9119   -0.0000 C   0  0  0  0  0  0  0  0  0  0  0  0
   -5.3065   -2.8483   -0.0000 C   0  0  0  0  0  0  0  0  0  0  0  0
   -2.7183   -2.8837   -0.0000 C   0  0  0  0  0  0  0  0  0  0  0  0
   -8.9111    2.9783   -0.0000 C   0  0  0  0  0  0  0  0  0  0  0  0
   -8.1429    4.2665   -0.0000 C   0  0  0  0  0  0  0  0  0  0  0  0
   -5.5547    4.9165   -0.0000 C   0  0  0  0  0  0  0  0  0  0  0  0
   -5.3420   -4.3374   -0.0000 C   0  0  0  0  0  0  0  0  0  0  0  0
   -2.7537   -4.3728   -0.0000 C   0  0  0  0  0  0  0  0  0  0  0  0
  -10.4239    2.8601   -0.0000 C   0  0  0  0  0  0  0  0  0  0  0  0
   -6.6538   -5.0583   -0.0000 O   0  0  0  0  0  0  0  0  0  0  0  0
   -4.0656   -5.0938   -0.0000 C   0  0  0  0  0  0  0  0  0  0  0  0
   -1.4773   -5.1292   -0.0000 O   0  0  0  0  0  0  0  0  0  0  0  0
   -6.6893   -6.5474   -0.0000 C   0  0  0  0  0  0  0  0  0  0  0  0
   -1.5128   -6.6183   -0.0000 C   0  0  0  0  0  0  0  0  0  0  0  0
  1  2  2  0  0  0  0
  2  3  1  0  0  0  0
  2  4  1  0  0  0  0
  3  5  1  0  0  0  0
  5  6  2  0  0  0  0
  5  7  1  0  0  0  0
  6  8  1  0  0  0  0
  7  9  2  0  0  0  0
  8 10  2  0  0  0  0
  8 11  1  0  0  0  0
  9 12  1  0  0  0  0
 11 13  1  0  0  0  0
 11 14  1  0  0  0  0
 12 15  2  0  0  0  0
 12 16  1  0  0  0  0
 13 17  2  0  0  0  0
 14 18  2  0  0  0  0
 14 19  1  0  0  0  0
 15 20  1  0  0  0  0
 16 21  2  0  0  0  0
 17 22  1  0  0  0  0
 20 23  1  0  0  0  0
 20 24  2  0  0  0  0
 21 25  1  0  0  0  0
 23 26  1  0  0  0  0
 25 27  1  0  0  0  0
  9 10  1  0  0  0  0
 17 18  1  0  0  0  0
 21 24  1  0  0  0  0
M  END
>  <MolRegNo>
516531

>  <m>
=

>  <Value>
380

>  <Unit>
nM

>  <Type>
IC50

>  <pValue>
6.42

>  <Ligand Efficiency>
0

>  <Binding Efficiency>
0

>  <Surface Efficiency>
0

>  <Assay Index>
341862

>  <Assay Category>


>  <Assay Organism>
Homo sapiens

>  <Target ID>
17045

>  <Target Name>
Cytochrome P450 3A4

>  <Target Organism>
Homo sapiens

>  <Target Description>
Target is a single protein chain

>  <Sequence Accession>
P08684

>  <Reference>
J Med Chem 51 (22), 7099-7110 (2008)

>  <Pubmed ID>
18947224

>  <DOI>
10.1021/jm800851u

$$$$
516456
Actelion Java MolfileCreator 1.0

 25 27  0  0  0  0  0  0  0  0999 V2000
    0.0000   -0.0000   -0.0000 O   0  0  0  0  0  0  0  0  0  0  0  0
    0.0118    1.5121   -0.0000 C   0  0  0  0  0  0  0  0  0  0  0  0
   -1.2758    2.2917   -0.0000 N   0  0  0  0  0  0  0  0  0  0  0  0
    1.3231    2.2445   -0.0000 C   0  0  0  0  0  0  0  0  0  0  0  0
   -2.6107    1.5829   -0.0000 C   0  0  0  0  0  0  0  0  0  0  0  0
   -3.9101    2.3626   -0.0000 N   0  0  0  0  0  0  0  0  0  0  0  0
   -2.6461    0.0945   -0.0000 C   0  0  0  0  0  0  0  0  0  0  0  0
   -5.2213    1.6538   -0.0000 C   0  0  0  0  0  0  0  0  0  0  0  0
   -3.9692   -0.6261   -0.0000 C   0  0  0  0  0  0  0  0  0  0  0  0
   -5.2568    0.1654   -0.0000 N   0  0  0  0  0  0  0  0  0  0  0  0
   -6.5208    2.4335   -0.0000 N   0  0  0  0  0  0  0  0  0  0  0  0
   -4.0046   -2.1145   -0.0000 C   0  0  0  0  0  0  0  0  0  0  0  0
   -7.9147    1.8664   -0.0000 N   0  0  0  0  0  0  0  0  0  0  0  0
   -6.6625    3.9337   -0.0000 C   0  0  0  0  0  0  0  0  0  0  0  0
   -2.7288   -2.8706   -0.0000 C   0  0  0  0  0  0  0  0  0  0  0  0
   -5.3276   -2.8233   -0.0000 C   0  0  0  0  0  0  0  0  0  0  0  0
   -8.9070    3.0241   -0.0000 C   0  0  0  0  0  0  0  0  0  0  0  0
   -8.1391    4.2881   -0.0000 C   0  0  0  0  0  0  0  0  0  0  0  0
   -5.5521    4.9260   -0.0000 C   0  0  0  0  0  0  0  0  0  0  0  0
   -2.7642   -4.3590   -0.0000 C   0  0  0  0  0  0  0  0  0  0  0  0
   -5.3631   -4.3117   -0.0000 C   0  0  0  0  0  0  0  0  0  0  0  0
  -10.4072    2.9060   -0.0000 C   0  0  0  0  0  0  0  0  0  0  0  0
   -1.4884   -5.1268   -0.0000 O   0  0  0  0  0  0  0  0  0  0  0  0
   -4.0991   -5.0796   -0.0000 C   0  0  0  0  0  0  0  0  0  0  0  0
   -1.5239   -6.6153   -0.0000 C   0  0  0  0  0  0  0  0  0  0  0  0
  1  2  2  0  0  0  0
  2  3  1  0  0  0  0
  2  4  1  0  0  0  0
  3  5  1  0  0  0  0
  5  6  2  0  0  0  0
  5  7  1  0  0  0  0
  6  8  1  0  0  0  0
  7  9  2  0  0  0  0
  8 10  2  0  0  0  0
  8 11  1  0  0  0  0
  9 12  1  0  0  0  0
 11 13  1  0  0  0  0
 11 14  1  0  0  0  0
 12 15  2  0  0  0  0
 12 16  1  0  0  0  0
 13 17  2  0  0  0  0
 14 18  2  0  0  0  0
 14 19  1  0  0  0  0
 15 20  1  0  0  0  0
 16 21  2  0  0  0  0
 17 22  1  0  0  0  0
 20 23  1  0  0  0  0
 20 24  2  0  0  0  0
 23 25  1  0  0  0  0
  9 10  1  0  0  0  0
 17 18  1  0  0  0  0
 21 24  1  0  0  0  0
M  END
>  <MolRegNo>
516456

>  <m>
=

>  <Value>
740

>  <Unit>
nM

>  <Type>
IC50

>  <pValue>
6.13

>  <Ligand Efficiency>
0

>  <Binding Efficiency>
0

>  <Surface Efficiency>
0

>  <Assay Index>
341862

>  <Assay Category>


>  <Assay Organism>
Homo sapiens

>  <Target ID>
17045

>  <Target Name>
Cytochrome P450 3A4

>  <Target Organism>
Homo sapiens

>  <Target Description>
Target is a single protein chain

>  <Sequence Accession>
P08684

>  <Reference>
J Med Chem 51 (22), 7099-7110 (2008)

>  <Pubmed ID>
18947224

>  <DOI>
10.1021/jm800851u

$$$$
516778
Actelion Java MolfileCreator 1.0

 29 31  0  0  0  0  0  0  0  0999 V2000
    0.0000   -0.0000   -0.0000 O   0  0  0  0  0  0  0  0  0  0  0  0
   -1.2962   -0.7424   -0.0000 C   0  0  0  0  0  0  0  0  0  0  0  0
   -2.6160    0.0118   -0.0000 N   0  0  0  0  0  0  0  0  0  0  0  0
   -1.2962   -2.2271   -0.0000 C   0  0  0  0  0  0  0  0  0  0  0  0
   -3.9122   -0.7306   -0.0000 C   0  0  0  0  0  0  0  0  0  0  0  0
   -5.2320    0.0236   -0.0000 N   0  0  0  0  0  0  0  0  0  0  0  0
   -3.9122   -2.2154   -0.0000 C   0  0  0  0  0  0  0  0  0  0  0  0
   -6.5400   -0.7188   -0.0000 C   0  0  0  0  0  0  0  0  0  0  0  0
   -5.2202   -2.9577   -0.0000 C   0  0  0  0  0  0  0  0  0  0  0  0
   -6.5400   -2.2036   -0.0000 N   0  0  0  0  0  0  0  0  0  0  0  0
   -7.8598    0.0354   -0.0000 N   0  0  0  0  0  0  0  0  0  0  0  0
   -5.2202   -4.4425   -0.0000 C   0  0  0  0  0  0  0  0  0  0  0  0
   -9.2267   -0.5774   -0.0000 N   0  0  0  0  0  0  0  0  0  0  0  0
   -8.0366    1.5319   -0.0000 C   0  0  0  0  0  0  0  0  0  0  0  0
   -6.5282   -5.1849   -0.0000 N   0  0  0  0  0  0  0  0  0  0  0  0
   -3.9240   -5.1731   -0.0000 C   0  0  0  0  0  0  0  0  0  0  0  0
  -10.2519    0.5421   -0.0000 C   0  0  0  0  0  0  0  0  0  0  0  0
   -9.5096    1.8501   -0.0000 C   0  0  0  0  0  0  0  0  0  0  0  0
   -6.9407    2.5571   -0.0000 C   0  0  0  0  0  0  0  0  0  0  0  0
   -6.5282   -6.6697   -0.0000 C   0  0  0  0  0  0  0  0  0  0  0  0
   -3.9240   -6.6579   -0.0000 C   0  0  0  0  0  0  0  0  0  0  0  0
  -11.7603    0.3889   -0.0000 C   0  0  0  0  0  0  0  0  0  0  0  0
   -7.8363   -7.4120   -0.0000 N   0  0  0  0  0  0  0  0  0  0  0  0
   -5.2320   -7.4003   -0.0000 C   0  0  0  0  0  0  0  0  0  0  0  0
   -7.8363   -8.8968   -0.0000 C   0  0  0  0  0  0  0  0  0  0  0  0
   -9.1443   -6.6579   -0.0000 C   0  0  0  0  0  0  0  0  0  0  0  0
   -9.1325   -9.6392   -0.0000 C   0  0  0  0  0  0  0  0  0  0  0  0
   -9.1325  -11.1239   -0.0000 O   0  0  0  0  0  0  0  0  0  0  0  0
  -10.4405  -11.8663   -0.0000 C   0  0  0  0  0  0  0  0  0  0  0  0
  1  2  2  0  0  0  0
  2  3  1  0  0  0  0
  2  4  1  0  0  0  0
  3  5  1  0  0  0  0
  5  6  2  0  0  0  0
  5  7  1  0  0  0  0
  6  8  1  0  0  0  0
  7  9  2  0  0  0  0
  8 10  2  0  0  0  0
  8 11  1  0  0  0  0
  9 12  1  0  0  0  0
 11 13  1  0  0  0  0
 11 14  1  0  0  0  0
 12 15  2  0  0  0  0
 12 16  1  0  0  0  0
 13 17  2  0  0  0  0
 14 18  2  0  0  0  0
 14 19  1  0  0  0  0
 15 20  1  0  0  0  0
 16 21  2  0  0  0  0
 17 22  1  0  0  0  0
 20 23  1  0  0  0  0
 20 24  2  0  0  0  0
 23 25  1  0  0  0  0
 23 26  1  0  0  0  0
 25 27  1  0  0  0  0
 27 28  1  0  0  0  0
 28 29  1  0  0  0  0
  9 10  1  0  0  0  0
 17 18  1  0  0  0  0
 21 24  1  0  0  0  0
M  END
>  <MolRegNo>
516778

>  <m>
=

>  <Value>
2500

>  <Unit>
nM

>  <Type>
IC50

>  <pValue>
5.6

>  <Ligand Efficiency>
0

>  <Binding Efficiency>
0

>  <Surface Efficiency>
0

>  <Assay Index>
341862

>  <Assay Category>


>  <Assay Organism>
Homo sapiens

>  <Target ID>
17045

>  <Target Name>
Cytochrome P450 3A4

>  <Target Organism>
Homo sapiens

>  <Target Description>
Target is a single protein chain

>  <Sequence Accession>
P08684

>  <Reference>
J Med Chem 51 (22), 7099-7110 (2008)

>  <Pubmed ID>
18947224

>  <DOI>
10.1021/jm800851u

$$$$
516455
Actelion Java MolfileCreator 1.0

 23 25  0  0  0  0  0  0  0  0999 V2000
    0.0000   -0.0000   -0.0000 O   0  0  0  0  0  0  0  0  0  0  0  0
   -0.0353    1.5075   -0.0000 C   0  0  0  0  0  0  0  0  0  0  0  0
   -1.3544    2.2613   -0.0000 N   0  0  0  0  0  0  0  0  0  0  0  0
    1.2484    2.2849   -0.0000 C   0  0  0  0  0  0  0  0  0  0  0  0
   -2.6500    1.5075   -0.0000 C   0  0  0  0  0  0  0  0  0  0  0  0
   -3.9691    2.2495   -0.0000 N   0  0  0  0  0  0  0  0  0  0  0  0
   -2.6500    0.0236   -0.0000 C   0  0  0  0  0  0  0  0  0  0  0  0
   -5.2646    1.4958   -0.0000 C   0  0  0  0  0  0  0  0  0  0  0  0
   -3.9455   -0.7302   -0.0000 C   0  0  0  0  0  0  0  0  0  0  0  0
   -5.2646    0.0118   -0.0000 N   0  0  0  0  0  0  0  0  0  0  0  0
   -6.5837    2.2377   -0.0000 N   0  0  0  0  0  0  0  0  0  0  0  0
   -3.9337   -2.2142   -0.0000 C   0  0  0  0  0  0  0  0  0  0  0  0
   -7.9499    1.6135   -0.0000 N   0  0  0  0  0  0  0  0  0  0  0  0
   -6.7603    3.7335   -0.0000 C   0  0  0  0  0  0  0  0  0  0  0  0
   -5.2410   -2.9680   -0.0000 C   0  0  0  0  0  0  0  0  0  0  0  0
   -2.6382   -2.9326   -0.0000 C   0  0  0  0  0  0  0  0  0  0  0  0
   -8.9745    2.7324   -0.0000 C   0  0  0  0  0  0  0  0  0  0  0  0
   -8.2443    4.0397   -0.0000 C   0  0  0  0  0  0  0  0  0  0  0  0
   -5.6768    4.7582   -0.0000 C   0  0  0  0  0  0  0  0  0  0  0  0
   -5.2293   -4.4519   -0.0000 C   0  0  0  0  0  0  0  0  0  0  0  0
   -2.6264   -4.4166   -0.0000 C   0  0  0  0  0  0  0  0  0  0  0  0
  -10.4703    2.5675   -0.0000 C   0  0  0  0  0  0  0  0  0  0  0  0
   -3.9337   -5.1704   -0.0000 N   0  0  0  0  0  0  0  0  0  0  0  0
  1  2  2  0  0  0  0
  2  3  1  0  0  0  0
  2  4  1  0  0  0  0
  3  5  1  0  0  0  0
  5  6  2  0  0  0  0
  5  7  1  0  0  0  0
  6  8  1  0  0  0  0
  7  9  2  0  0  0  0
  8 10  2  0  0  0  0
  8 11  1  0  0  0  0
  9 12  1  0  0  0  0
 11 13  1  0  0  0  0
 11 14  1  0  0  0  0
 12 15  2  0  0  0  0
 12 16  1  0  0  0  0
 13 17  2  0  0  0  0
 14 18  2  0  0  0  0
 14 19  1  0  0  0  0
 15 20  1  0  0  0  0
 16 21  2  0  0  0  0
 17 22  1  0  0  0  0
 20 23  2  0  0  0  0
  9 10  1  0  0  0  0
 17 18  1  0  0  0  0
 21 23  1  0  0  0  0
M  END
>  <MolRegNo>
516455

>  <m>
=

>  <Value>
8500

>  <Unit>
nM

>  <Type>
IC50

>  <pValue>
5.07

>  <Ligand Efficiency>
0

>  <Binding Efficiency>
0

>  <Surface Efficiency>
0

>  <Assay Index>
341862

>  <Assay Category>


>  <Assay Organism>
Homo sapiens

>  <Target ID>
17045

>  <Target Name>
Cytochrome P450 3A4

>  <Target Organism>
Homo sapiens

>  <Target Description>
Target is a single protein chain

>  <Sequence Accession>
P08684

>  <Reference>
J Med Chem 51 (22), 7099-7110 (2008)

>  <Pubmed ID>
18947224

>  <DOI>
10.1021/jm800851u

$$$$
516844
Actelion Java MolfileCreator 1.0

 29 32  0  0  0  0  0  0  0  0999 V2000
    0.0000   -0.0000   -0.0000 O   0  0  0  0  0  0  0  0  0  0  0  0
   -0.0472    1.5091   -0.0000 C   0  0  0  0  0  0  0  0  0  0  0  0
   -1.3795    2.2401   -0.0000 N   0  0  0  0  0  0  0  0  0  0  0  0
    1.2144    2.2991   -0.0000 C   0  0  0  0  0  0  0  0  0  0  0  0
   -2.6646    1.4738   -0.0000 C   0  0  0  0  0  0  0  0  0  0  0  0
   -3.9969    2.2048   -0.0000 N   0  0  0  0  0  0  0  0  0  0  0  0
   -2.6410   -0.0118   -0.0000 C   0  0  0  0  0  0  0  0  0  0  0  0
   -5.2938    1.4384   -0.0000 C   0  0  0  0  0  0  0  0  0  0  0  0
   -3.9379   -0.7782   -0.0000 C   0  0  0  0  0  0  0  0  0  0  0  0
   -5.2702   -0.0472   -0.0000 N   0  0  0  0  0  0  0  0  0  0  0  0
   -6.6261    2.1694   -0.0000 N   0  0  0  0  0  0  0  0  0  0  0  0
   -3.9143   -2.2637   -0.0000 C   0  0  0  0  0  0  0  0  0  0  0  0
   -7.9820    1.5445   -0.0000 N   0  0  0  0  0  0  0  0  0  0  0  0
   -6.8265    3.6667   -0.0000 C   0  0  0  0  0  0  0  0  0  0  0  0
   -5.2113   -3.0301   -0.0000 N   0  0  0  0  0  0  0  0  0  0  0  0
   -2.6056   -2.9711   -0.0000 C   0  0  0  0  0  0  0  0  0  0  0  0
   -9.0195    2.6410   -0.0000 C   0  0  0  0  0  0  0  0  0  0  0  0
   -8.3121    3.9497   -0.0000 C   0  0  0  0  0  0  0  0  0  0  0  0
   -5.7418    4.7043   -0.0000 C   0  0  0  0  0  0  0  0  0  0  0  0
   -5.1877   -4.5156   -0.0000 C   0  0  0  0  0  0  0  0  0  0  0  0
   -2.5821   -4.4567   -0.0000 C   0  0  0  0  0  0  0  0  0  0  0  0
  -10.5168    2.4641   -0.0000 C   0  0  0  0  0  0  0  0  0  0  0  0
   -6.4846   -5.2820   -0.0000 N   0  0  0  0  0  0  0  0  0  0  0  0
   -3.8790   -5.2231   -0.0000 C   0  0  0  0  0  0  0  0  0  0  0  0
   -6.8383   -6.7204   -0.0000 C   0  0  0  0  0  0  0  0  0  0  0  0
   -7.9466   -4.9165   -0.0000 C   0  0  0  0  0  0  0  0  0  0  0  0
   -8.3003   -6.3549   -0.0000 C   0  0  0  0  0  0  0  0  0  0  0  0
   -9.5972   -7.1213   -0.0000 O   0  0  0  0  0  0  0  0  0  0  0  0
   -9.5736   -8.6068   -0.0000 C   0  0  0  0  0  0  0  0  0  0  0  0
  1  2  2  0  0  0  0
  2  3  1  0  0  0  0
  2  4  1  0  0  0  0
  3  5  1  0  0  0  0
  5  6  2  0  0  0  0
  5  7  1  0  0  0  0
  6  8  1  0  0  0  0
  7  9  2  0  0  0  0
  8 10  2  0  0  0  0
  8 11  1  0  0  0  0
  9 12  1  0  0  0  0
 11 13  1  0  0  0  0
 11 14  1  0  0  0  0
 12 15  2  0  0  0  0
 12 16  1  0  0  0  0
 13 17  2  0  0  0  0
 14 18  2  0  0  0  0
 14 19  1  0  0  0  0
 15 20  1  0  0  0  0
 16 21  2  0  0  0  0
 17 22  1  0  0  0  0
 20 23  1  0  0  0  0
 20 24  2  0  0  0  0
 23 25  1  0  0  0  0
 23 26  1  0  0  0  0
 25 27  1  0  0  0  0
 27 28  1  0  0  0  0
 28 29  1  0  0  0  0
  9 10  1  0  0  0  0
 17 18  1  0  0  0  0
 21 24  1  0  0  0  0
 26 27  1  0  0  0  0
M  END
>  <MolRegNo>
516844

>  <m>
=

>  <Value>
11000

>  <Unit>
nM

>  <Type>
IC50

>  <pValue>
4.96

>  <Ligand Efficiency>
0

>  <Binding Efficiency>
0

>  <Surface Efficiency>
0

>  <Assay Index>
341862

>  <Assay Category>


>  <Assay Organism>
Homo sapiens

>  <Target ID>
17045

>  <Target Name>
Cytochrome P450 3A4

>  <Target Organism>
Homo sapiens

>  <Target Description>
Target is a single protein chain

>  <Sequence Accession>
P08684

>  <Reference>
J Med Chem 51 (22), 7099-7110 (2008)

>  <Pubmed ID>
18947224

>  <DOI>
10.1021/jm800851u

$$$$
516534
Actelion Java MolfileCreator 1.0

 28 30  0  0  0  0  0  0  0  0999 V2000
    0.0000   -0.0000   -0.0000 O   0  0  0  0  0  0  0  0  0  0  0  0
    0.0472    1.5098   -0.0000 C   0  0  0  0  0  0  0  0  0  0  0  0
   -1.2267    2.3236   -0.0000 N   0  0  0  0  0  0  0  0  0  0  0  0
    1.3682    2.2175   -0.0000 C   0  0  0  0  0  0  0  0  0  0  0  0
   -2.5713    1.6395   -0.0000 C   0  0  0  0  0  0  0  0  0  0  0  0
   -3.8452    2.4534   -0.0000 N   0  0  0  0  0  0  0  0  0  0  0  0
   -2.6421    0.1533   -0.0000 C   0  0  0  0  0  0  0  0  0  0  0  0
   -5.1898    1.7693   -0.0000 C   0  0  0  0  0  0  0  0  0  0  0  0
   -3.9867   -0.5308   -0.0000 C   0  0  0  0  0  0  0  0  0  0  0  0
   -5.2606    0.2831   -0.0000 N   0  0  0  0  0  0  0  0  0  0  0  0
   -6.4637    2.5831   -0.0000 N   0  0  0  0  0  0  0  0  0  0  0  0
   -4.0575   -2.0170   -0.0000 C   0  0  0  0  0  0  0  0  0  0  0  0
   -7.8673    2.0405   -0.0000 N   0  0  0  0  0  0  0  0  0  0  0  0
   -6.5698    4.0929   -0.0000 C   0  0  0  0  0  0  0  0  0  0  0  0
   -5.4021   -2.7011   -0.0000 C   0  0  0  0  0  0  0  0  0  0  0  0
   -2.8072   -2.8072   -0.0000 C   0  0  0  0  0  0  0  0  0  0  0  0
   -8.8345    3.2083   -0.0000 C   0  0  0  0  0  0  0  0  0  0  0  0
   -8.0324    4.4703   -0.0000 C   0  0  0  0  0  0  0  0  0  0  0  0
   -5.4257    5.0483   -0.0000 C   0  0  0  0  0  0  0  0  0  0  0  0
   -5.4729   -4.1872   -0.0000 N   0  0  0  0  0  0  0  0  0  0  0  0
   -2.8780   -4.2934   -0.0000 C   0  0  0  0  0  0  0  0  0  0  0  0
  -10.3325    3.1257   -0.0000 C   0  0  0  0  0  0  0  0  0  0  0  0
   -4.2226   -4.9775   -0.0000 C   0  0  0  0  0  0  0  0  0  0  0  0
   -1.6277   -5.0837   -0.0000 O   0  0  0  0  0  0  0  0  0  0  0  0
   -1.6985   -6.5698   -0.0000 C   0  0  0  0  0  0  0  0  0  0  0  0
   -3.0431   -7.2540   -0.0000 C   0  0  0  0  0  0  0  0  0  0  0  0
   -3.1139   -8.7401   -0.0000 O   0  0  0  0  0  0  0  0  0  0  0  0
   -4.4585   -9.4243   -0.0000 C   0  0  0  0  0  0  0  0  0  0  0  0
  1  2  2  0  0  0  0
  2  3  1  0  0  0  0
  2  4  1  0  0  0  0
  3  5  1  0  0  0  0
  5  6  2  0  0  0  0
  5  7  1  0  0  0  0
  6  8  1  0  0  0  0
  7  9  2  0  0  0  0
  8 10  2  0  0  0  0
  8 11  1  0  0  0  0
  9 12  1  0  0  0  0
 11 13  1  0  0  0  0
 11 14  1  0  0  0  0
 12 15  2  0  0  0  0
 12 16  1  0  0  0  0
 13 17  2  0  0  0  0
 14 18  2  0  0  0  0
 14 19  1  0  0  0  0
 15 20  1  0  0  0  0
 16 21  2  0  0  0  0
 17 22  1  0  0  0  0
 20 23  2  0  0  0  0
 21 24  1  0  0  0  0
 24 25  1  0  0  0  0
 25 26  1  0  0  0  0
 26 27  1  0  0  0  0
 27 28  1  0  0  0  0
  9 10  1  0  0  0  0
 17 18  1  0  0  0  0
 21 23  1  0  0  0  0
M  END
>  <MolRegNo>
516534

>  <m>
=

>  <Value>
14000

>  <Unit>
nM

>  <Type>
IC50

>  <pValue>
4.85

>  <Ligand Efficiency>
0

>  <Binding Efficiency>
0

>  <Surface Efficiency>
0

>  <Assay Index>
341862

>  <Assay Category>


>  <Assay Organism>
Homo sapiens

>  <Target ID>
17045

>  <Target Name>
Cytochrome P450 3A4

>  <Target Organism>
Homo sapiens

>  <Target Description>
Target is a single protein chain

>  <Sequence Accession>
P08684

>  <Reference>
J Med Chem 51 (22), 7099-7110 (2008)

>  <Pubmed ID>
18947224

>  <DOI>
10.1021/jm800851u

$$$$
516614
Actelion Java MolfileCreator 1.0

 26 28  0  0  0  0  0  0  0  0999 V2000
    0.0000   -0.0000   -0.0000 O   0  0  0  0  0  0  0  0  0  0  0  0
    0.0000    1.5082   -0.0000 C   0  0  0  0  0  0  0  0  0  0  0  0
    1.2961    2.2623   -0.0000 O   0  0  0  0  0  0  0  0  0  0  0  0
   -1.2961    2.2740   -0.0000 N   0  0  0  0  0  0  0  0  0  0  0  0
    1.2961    3.7704   -0.0000 C   0  0  0  0  0  0  0  0  0  0  0  0
   -2.6157    1.5435   -0.0000 C   0  0  0  0  0  0  0  0  0  0  0  0
   -3.9236    2.3094   -0.0000 N   0  0  0  0  0  0  0  0  0  0  0  0
   -2.6393    0.0589   -0.0000 C   0  0  0  0  0  0  0  0  0  0  0  0
   -5.2432    1.5789   -0.0000 C   0  0  0  0  0  0  0  0  0  0  0  0
   -3.9589   -0.6716   -0.0000 C   0  0  0  0  0  0  0  0  0  0  0  0
   -5.2668    0.0943   -0.0000 N   0  0  0  0  0  0  0  0  0  0  0  0
   -6.5393    2.3447   -0.0000 N   0  0  0  0  0  0  0  0  0  0  0  0
   -3.9825   -2.1562   -0.0000 C   0  0  0  0  0  0  0  0  0  0  0  0
   -7.9297    1.7556   -0.0000 N   0  0  0  0  0  0  0  0  0  0  0  0
   -6.7043    3.8411   -0.0000 C   0  0  0  0  0  0  0  0  0  0  0  0
   -5.3022   -2.8867   -0.0000 C   0  0  0  0  0  0  0  0  0  0  0  0
   -2.6982   -2.8985   -0.0000 C   0  0  0  0  0  0  0  0  0  0  0  0
   -8.9312    2.8985   -0.0000 C   0  0  0  0  0  0  0  0  0  0  0  0
   -8.1771    4.1828   -0.0000 C   0  0  0  0  0  0  0  0  0  0  0  0
   -5.5849    4.8426   -0.0000 C   0  0  0  0  0  0  0  0  0  0  0  0
   -5.3257   -4.3713   -0.0000 N   0  0  0  0  0  0  0  0  0  0  0  0
   -2.7218   -4.3831   -0.0000 C   0  0  0  0  0  0  0  0  0  0  0  0
  -10.4276    2.7571   -0.0000 C   0  0  0  0  0  0  0  0  0  0  0  0
   -4.0414   -5.1136   -0.0000 C   0  0  0  0  0  0  0  0  0  0  0  0
   -1.4375   -5.1254   -0.0000 O   0  0  0  0  0  0  0  0  0  0  0  0
   -1.4610   -6.6100   -0.0000 C   0  0  0  0  0  0  0  0  0  0  0  0
  1  2  2  0  0  0  0
  2  3  1  0  0  0  0
  2  4  1  0  0  0  0
  3  5  1  0  0  0  0
  4  6  1  0  0  0  0
  6  7  2  0  0  0  0
  6  8  1  0  0  0  0
  7  9  1  0  0  0  0
  8 10  2  0  0  0  0
  9 11  2  0  0  0  0
  9 12  1  0  0  0  0
 10 13  1  0  0  0  0
 12 14  1  0  0  0  0
 12 15  1  0  0  0  0
 13 16  2  0  0  0  0
 13 17  1  0  0  0  0
 14 18  2  0  0  0  0
 15 19  2  0  0  0  0
 15 20  1  0  0  0  0
 16 21  1  0  0  0  0
 17 22  2  0  0  0  0
 18 23  1  0  0  0  0
 21 24  2  0  0  0  0
 22 25  1  0  0  0  0
 25 26  1  0  0  0  0
 10 11  1  0  0  0  0
 18 19  1  0  0  0  0
 22 24  1  0  0  0  0
M  END
>  <MolRegNo>
516614

>  <m>
=

>  <Value>
16000

>  <Unit>
nM

>  <Type>
IC50

>  <pValue>
4.8

>  <Ligand Efficiency>
0

>  <Binding Efficiency>
0

>  <Surface Efficiency>
0

>  <Assay Index>
341862

>  <Assay Category>


>  <Assay Organism>
Homo sapiens

>  <Target ID>
17045

>  <Target Name>
Cytochrome P450 3A4

>  <Target Organism>
Homo sapiens

>  <Target Description>
Target is a single protein chain

>  <Sequence Accession>
P08684

>  <Reference>
J Med Chem 51 (22), 7099-7110 (2008)

>  <Pubmed ID>
18947224

>  <DOI>
10.1021/jm800851u

$$$$
516613
Actelion Java MolfileCreator 1.0

 26 28  0  0  0  0  0  0  0  0999 V2000
    0.0000   -0.0000   -0.0000 O   0  0  0  0  0  0  0  0  0  0  0  0
    0.0000    1.5109   -0.0000 C   0  0  0  0  0  0  0  0  0  0  0  0
   -1.2984    2.2781   -0.0000 N   0  0  0  0  0  0  0  0  0  0  0  0
    1.2866    2.2663   -0.0000 C   0  0  0  0  0  0  0  0  0  0  0  0
   -2.6086    1.5463   -0.0000 C   0  0  0  0  0  0  0  0  0  0  0  0
    1.2866    3.7772   -0.0000 C   0  0  0  0  0  0  0  0  0  0  0  0
   -3.9189    2.3136   -0.0000 N   0  0  0  0  0  0  0  0  0  0  0  0
   -2.6323    0.0590   -0.0000 C   0  0  0  0  0  0  0  0  0  0  0  0
   -5.2291    1.5817   -0.0000 C   0  0  0  0  0  0  0  0  0  0  0  0
   -3.9425   -0.6728   -0.0000 C   0  0  0  0  0  0  0  0  0  0  0  0
   -5.2527    0.0944   -0.0000 N   0  0  0  0  0  0  0  0  0  0  0  0
   -6.5275    2.3490   -0.0000 N   0  0  0  0  0  0  0  0  0  0  0  0
   -3.9661   -2.1601   -0.0000 C   0  0  0  0  0  0  0  0  0  0  0  0
   -7.9086    1.7588   -0.0000 N   0  0  0  0  0  0  0  0  0  0  0  0
   -6.6928    3.8599   -0.0000 C   0  0  0  0  0  0  0  0  0  0  0  0
   -5.2763   -2.8919   -0.0000 C   0  0  0  0  0  0  0  0  0  0  0  0
   -2.6795   -2.9037   -0.0000 C   0  0  0  0  0  0  0  0  0  0  0  0
   -8.9237    2.8919   -0.0000 C   0  0  0  0  0  0  0  0  0  0  0  0
   -8.1683    4.1786   -0.0000 C   0  0  0  0  0  0  0  0  0  0  0  0
   -5.5832    4.8632   -0.0000 C   0  0  0  0  0  0  0  0  0  0  0  0
   -5.2999   -4.3792   -0.0000 N   0  0  0  0  0  0  0  0  0  0  0  0
   -2.7031   -4.3910   -0.0000 C   0  0  0  0  0  0  0  0  0  0  0  0
  -10.4228    2.7503   -0.0000 C   0  0  0  0  0  0  0  0  0  0  0  0
   -4.0133   -5.1229   -0.0000 C   0  0  0  0  0  0  0  0  0  0  0  0
   -1.4165   -5.1347   -0.0000 O   0  0  0  0  0  0  0  0  0  0  0  0
   -1.4401   -6.6220   -0.0000 C   0  0  0  0  0  0  0  0  0  0  0  0
  1  2  2  0  0  0  0
  2  3  1  0  0  0  0
  2  4  1  0  0  0  0
  3  5  1  0  0  0  0
  4  6  1  0  0  0  0
  5  7  2  0  0  0  0
  5  8  1  0  0  0  0
  7  9  1  0  0  0  0
  8 10  2  0  0  0  0
  9 11  2  0  0  0  0
  9 12  1  0  0  0  0
 10 13  1  0  0  0  0
 12 14  1  0  0  0  0
 12 15  1  0  0  0  0
 13 16  2  0  0  0  0
 13 17  1  0  0  0  0
 14 18  2  0  0  0  0
 15 19  2  0  0  0  0
 15 20  1  0  0  0  0
 16 21  1  0  0  0  0
 17 22  2  0  0  0  0
 18 23  1  0  0  0  0
 21 24  2  0  0  0  0
 22 25  1  0  0  0  0
 25 26  1  0  0  0  0
 10 11  1  0  0  0  0
 18 19  1  0  0  0  0
 22 24  1  0  0  0  0
M  END
>  <MolRegNo>
516613

>  <m>
=

>  <Value>
17000

>  <Unit>
nM

>  <Type>
IC50

>  <pValue>
4.77

>  <Ligand Efficiency>
0

>  <Binding Efficiency>
0

>  <Surface Efficiency>
0

>  <Assay Index>
341862

>  <Assay Category>


>  <Assay Organism>
Homo sapiens

>  <Target ID>
17045

>  <Target Name>
Cytochrome P450 3A4

>  <Target Organism>
Homo sapiens

>  <Target Description>
Target is a single protein chain

>  <Sequence Accession>
P08684

>  <Reference>
J Med Chem 51 (22), 7099-7110 (2008)

>  <Pubmed ID>
18947224

>  <DOI>
10.1021/jm800851u

$$$$
496797
Actelion Java MolfileCreator 1.0

 25 27  0  0  0  0  0  0  0  0999 V2000
    0.0000   -0.0000   -0.0000 O   0  0  0  0  0  0  0  0  0  0  0  0
   -0.0119    1.5081   -0.0000 C   0  0  0  0  0  0  0  0  0  0  0  0
   -1.3181    2.2681   -0.0000 N   0  0  0  0  0  0  0  0  0  0  0  0
    1.2706    2.2681   -0.0000 C   0  0  0  0  0  0  0  0  0  0  0  0
   -2.6244    1.5319   -0.0000 C   0  0  0  0  0  0  0  0  0  0  0  0
   -2.6362    0.0356   -0.0000 N   0  0  0  0  0  0  0  0  0  0  0  0
   -3.9306    2.2919   -0.0000 C   0  0  0  0  0  0  0  0  0  0  0  0
   -3.9544   -0.7006   -0.0000 C   0  0  0  0  0  0  0  0  0  0  0  0
   -5.2369    1.5556   -0.0000 C   0  0  0  0  0  0  0  0  0  0  0  0
   -5.2606    0.0594   -0.0000 N   0  0  0  0  0  0  0  0  0  0  0  0
   -3.9662   -2.1850   -0.0000 N   0  0  0  0  0  0  0  0  0  0  0  0
   -6.5431    2.3156   -0.0000 C   0  0  0  0  0  0  0  0  0  0  0  0
   -2.7669   -3.0519   -0.0000 N   0  0  0  0  0  0  0  0  0  0  0  0
   -5.1894   -3.0519   -0.0000 C   0  0  0  0  0  0  0  0  0  0  0  0
   -6.5550    3.8237   -0.0000 C   0  0  0  0  0  0  0  0  0  0  0  0
   -7.8494    1.5794   -0.0000 C   0  0  0  0  0  0  0  0  0  0  0  0
   -3.2419   -4.4650   -0.0000 C   0  0  0  0  0  0  0  0  0  0  0  0
   -4.7381   -4.4650   -0.0000 C   0  0  0  0  0  0  0  0  0  0  0  0
   -6.6262   -2.5769   -0.0000 C   0  0  0  0  0  0  0  0  0  0  0  0
   -7.8612    4.5837   -0.0000 N   0  0  0  0  0  0  0  0  0  0  0  0
   -9.1556    2.3275   -0.0000 C   0  0  0  0  0  0  0  0  0  0  0  0
   -2.3750   -5.6644   -0.0000 C   0  0  0  0  0  0  0  0  0  0  0  0
   -9.1675    3.8475   -0.0000 C   0  0  0  0  0  0  0  0  0  0  0  0
  -10.4618    1.5912   -0.0000 O   0  0  0  0  0  0  0  0  0  0  0  0
  -10.4737    0.1069   -0.0000 C   0  0  0  0  0  0  0  0  0  0  0  0
  1  2  2  0  0  0  0
  2  3  1  0  0  0  0
  2  4  1  0  0  0  0
  3  5  1  0  0  0  0
  5  6  2  0  0  0  0
  5  7  1  0  0  0  0
  6  8  1  0  0  0  0
  7  9  2  0  0  0  0
  8 10  2  0  0  0  0
  8 11  1  0  0  0  0
  9 12  1  0  0  0  0
 11 13  1  0  0  0  0
 11 14  1  0  0  0  0
 12 15  2  0  0  0  0
 12 16  1  0  0  0  0
 13 17  2  0  0  0  0
 14 18  2  0  0  0  0
 14 19  1  0  0  0  0
 15 20  1  0  0  0  0
 16 21  2  0  0  0  0
 17 22  1  0  0  0  0
 20 23  2  0  0  0  0
 21 24  1  0  0  0  0
 24 25  1  0  0  0  0
  9 10  1  0  0  0  0
 17 18  1  0  0  0  0
 21 23  1  0  0  0  0
M  END
>  <MolRegNo>
496797

>  <m>
=

>  <Value>
18000

>  <Unit>
nM

>  <Type>
IC50

>  <pValue>
4.75

>  <Ligand Efficiency>
0

>  <Binding Efficiency>
0

>  <Surface Efficiency>
0

>  <Assay Index>
341862

>  <Assay Category>


>  <Assay Organism>
Homo sapiens

>  <Target ID>
17045

>  <Target Name>
Cytochrome P450 3A4

>  <Target Organism>
Homo sapiens

>  <Target Description>
Target is a single protein chain

>  <Sequence Accession>
P08684

>  <Reference>
J Med Chem 51 (22), 7099-7110 (2008)

>  <Pubmed ID>
18947224

>  <DOI>
10.1021/jm800851u

$$$$
516533
Actelion Java MolfileCreator 1.0

 24 26  0  0  0  0  0  0  0  0999 V2000
    0.0000   -0.0000   -0.0000 O   0  0  0  0  0  0  0  0  0  0  0  0
   -1.2982   -0.7553   -0.0000 C   0  0  0  0  0  0  0  0  0  0  0  0
   -2.6201   -0.0000   -0.0000 N   0  0  0  0  0  0  0  0  0  0  0  0
   -1.2982   -2.2424   -0.0000 C   0  0  0  0  0  0  0  0  0  0  0  0
   -3.9183   -0.7553   -0.0000 C   0  0  0  0  0  0  0  0  0  0  0  0
   -5.2283   -0.0000   -0.0000 N   0  0  0  0  0  0  0  0  0  0  0  0
   -3.9183   -2.2424   -0.0000 C   0  0  0  0  0  0  0  0  0  0  0  0
   -6.5384   -0.7553   -0.0000 C   0  0  0  0  0  0  0  0  0  0  0  0
   -5.2165   -2.9859   -0.0000 C   0  0  0  0  0  0  0  0  0  0  0  0
   -6.5384   -2.2424   -0.0000 N   0  0  0  0  0  0  0  0  0  0  0  0
   -7.8602   -0.0000   -0.0000 N   0  0  0  0  0  0  0  0  0  0  0  0
   -5.2165   -4.4730   -0.0000 C   0  0  0  0  0  0  0  0  0  0  0  0
   -9.2293   -0.6137   -0.0000 N   0  0  0  0  0  0  0  0  0  0  0  0
   -8.0372    1.4989   -0.0000 C   0  0  0  0  0  0  0  0  0  0  0  0
   -6.5266   -5.2283   -0.0000 C   0  0  0  0  0  0  0  0  0  0  0  0
   -3.9301   -5.2047   -0.0000 C   0  0  0  0  0  0  0  0  0  0  0  0
  -10.2560    0.5075   -0.0000 C   0  0  0  0  0  0  0  0  0  0  0  0
   -9.5125    1.8057   -0.0000 C   0  0  0  0  0  0  0  0  0  0  0  0
   -6.9396    2.5139   -0.0000 C   0  0  0  0  0  0  0  0  0  0  0  0
   -6.5266   -6.7154   -0.0000 N   0  0  0  0  0  0  0  0  0  0  0  0
   -3.9301   -6.6918   -0.0000 C   0  0  0  0  0  0  0  0  0  0  0  0
  -11.7549    0.3541   -0.0000 C   0  0  0  0  0  0  0  0  0  0  0  0
   -5.2283   -7.4353   -0.0000 C   0  0  0  0  0  0  0  0  0  0  0  0
   -2.6319   -7.4117   -0.0000 O   0  0  0  0  0  0  0  0  0  0  0  0
  1  2  2  0  0  0  0
  2  3  1  0  0  0  0
  2  4  1  0  0  0  0
  3  5  1  0  0  0  0
  5  6  2  0  0  0  0
  5  7  1  0  0  0  0
  6  8  1  0  0  0  0
  7  9  2  0  0  0  0
  8 10  2  0  0  0  0
  8 11  1  0  0  0  0
  9 12  1  0  0  0  0
 11 13  1  0  0  0  0
 11 14  1  0  0  0  0
 12 15  2  0  0  0  0
 12 16  1  0  0  0  0
 13 17  2  0  0  0  0
 14 18  2  0  0  0  0
 14 19  1  0  0  0  0
 15 20  1  0  0  0  0
 16 21  2  0  0  0  0
 17 22  1  0  0  0  0
 20 23  2  0  0  0  0
 21 24  1  0  0  0  0
  9 10  1  0  0  0  0
 17 18  1  0  0  0  0
 21 23  1  0  0  0  0
M  END
>  <MolRegNo>
516533

>  <m>
=

>  <Value>
18000

>  <Unit>
nM

>  <Type>
IC50

>  <pValue>
4.75

>  <Ligand Efficiency>
0

>  <Binding Efficiency>
0

>  <Surface Efficiency>
0

>  <Assay Index>
341862

>  <Assay Category>


>  <Assay Organism>
Homo sapiens

>  <Target ID>
17045

>  <Target Name>
Cytochrome P450 3A4

>  <Target Organism>
Homo sapiens

>  <Target Description>
Target is a single protein chain

>  <Sequence Accession>
P08684

>  <Reference>
J Med Chem 51 (22), 7099-7110 (2008)

>  <Pubmed ID>
18947224

>  <DOI>
10.1021/jm800851u

$$$$
516615
Actelion Java MolfileCreator 1.0

 27 29  0  0  0  0  0  0  0  0999 V2000
    0.0000   -0.0000   -0.0000 O   0  0  0  0  0  0  0  0  0  0  0  0
   -0.0590    1.5096   -0.0000 C   0  0  0  0  0  0  0  0  0  0  0  0
    1.2030    2.3116   -0.0000 O   0  0  0  0  0  0  0  0  0  0  0  0
   -1.3917    2.2290   -0.0000 N   0  0  0  0  0  0  0  0  0  0  0  0
    1.1440    3.8212   -0.0000 C   0  0  0  0  0  0  0  0  0  0  0  0
   -2.6772    1.4506   -0.0000 C   0  0  0  0  0  0  0  0  0  0  0  0
   -0.1769    4.5406   -0.0000 C   0  0  0  0  0  0  0  0  0  0  0  0
   -4.0099    2.1701   -0.0000 N   0  0  0  0  0  0  0  0  0  0  0  0
   -2.6418   -0.0354   -0.0000 C   0  0  0  0  0  0  0  0  0  0  0  0
   -5.2954    1.3917   -0.0000 C   0  0  0  0  0  0  0  0  0  0  0  0
   -3.9273   -0.8138   -0.0000 C   0  0  0  0  0  0  0  0  0  0  0  0
   -5.2600   -0.0944   -0.0000 N   0  0  0  0  0  0  0  0  0  0  0  0
   -6.6281    2.1111   -0.0000 N   0  0  0  0  0  0  0  0  0  0  0  0
   -3.8919   -2.2998   -0.0000 C   0  0  0  0  0  0  0  0  0  0  0  0
   -7.9844    1.4742   -0.0000 N   0  0  0  0  0  0  0  0  0  0  0  0
   -6.8404    3.6089   -0.0000 C   0  0  0  0  0  0  0  0  0  0  0  0
   -5.1775   -3.0782   -0.0000 C   0  0  0  0  0  0  0  0  0  0  0  0
   -2.5828   -2.9956   -0.0000 C   0  0  0  0  0  0  0  0  0  0  0  0
   -9.0340    2.5710   -0.0000 C   0  0  0  0  0  0  0  0  0  0  0  0
   -8.3264    3.8919   -0.0000 C   0  0  0  0  0  0  0  0  0  0  0  0
   -5.7671    4.6585   -0.0000 C   0  0  0  0  0  0  0  0  0  0  0  0
   -5.1421   -4.5642   -0.0000 N   0  0  0  0  0  0  0  0  0  0  0  0
   -2.5475   -4.4816   -0.0000 C   0  0  0  0  0  0  0  0  0  0  0  0
  -10.5318    2.3823   -0.0000 C   0  0  0  0  0  0  0  0  0  0  0  0
   -3.8330   -5.2600   -0.0000 C   0  0  0  0  0  0  0  0  0  0  0  0
   -1.2501   -5.1775   -0.0000 O   0  0  0  0  0  0  0  0  0  0  0  0
   -1.2148   -6.6635   -0.0000 C   0  0  0  0  0  0  0  0  0  0  0  0
  1  2  2  0  0  0  0
  2  3  1  0  0  0  0
  2  4  1  0  0  0  0
  3  5  1  0  0  0  0
  4  6  1  0  0  0  0
  5  7  1  0  0  0  0
  6  8  2  0  0  0  0
  6  9  1  0  0  0  0
  8 10  1  0  0  0  0
  9 11  2  0  0  0  0
 10 12  2  0  0  0  0
 10 13  1  0  0  0  0
 11 14  1  0  0  0  0
 13 15  1  0  0  0  0
 13 16  1  0  0  0  0
 14 17  2  0  0  0  0
 14 18  1  0  0  0  0
 15 19  2  0  0  0  0
 16 20  2  0  0  0  0
 16 21  1  0  0  0  0
 17 22  1  0  0  0  0
 18 23  2  0  0  0  0
 19 24  1  0  0  0  0
 22 25  2  0  0  0  0
 23 26  1  0  0  0  0
 26 27  1  0  0  0  0
 11 12  1  0  0  0  0
 19 20  1  0  0  0  0
 23 25  1  0  0  0  0
M  END
>  <MolRegNo>
516615

>  <m>
=

>  <Value>
20000

>  <Unit>
nM

>  <Type>
IC50

>  <pValue>
4.7

>  <Ligand Efficiency>
0

>  <Binding Efficiency>
0

>  <Surface Efficiency>
0

>  <Assay Index>
341862

>  <Assay Category>


>  <Assay Organism>
Homo sapiens

>  <Target ID>
17045

>  <Target Name>
Cytochrome P450 3A4

>  <Target Organism>
Homo sapiens

>  <Target Description>
Target is a single protein chain

>  <Sequence Accession>
P08684

>  <Reference>
J Med Chem 51 (22), 7099-7110 (2008)

>  <Pubmed ID>
18947224

>  <DOI>
10.1021/jm800851u

$$$$
516692
Actelion Java MolfileCreator 1.0

 26 28  0  0  0  0  0  0  0  0999 V2000
    0.0000   -0.0000   -0.0000 O   0  0  0  0  0  0  0  0  0  0  0  0
   -1.3110   -0.7323   -0.0000 C   0  0  0  0  0  0  0  0  0  0  0  0
   -2.6221    0.0236   -0.0000 N   0  0  0  0  0  0  0  0  0  0  0  0
   -1.3228   -2.2205   -0.0000 C   0  0  0  0  0  0  0  0  0  0  0  0
   -3.9331   -0.7087   -0.0000 C   0  0  0  0  0  0  0  0  0  0  0  0
   -5.2323    0.0472   -0.0000 N   0  0  0  0  0  0  0  0  0  0  0  0
   -3.9449   -2.1969   -0.0000 C   0  0  0  0  0  0  0  0  0  0  0  0
   -6.5434   -0.6850   -0.0000 C   0  0  0  0  0  0  0  0  0  0  0  0
   -5.2559   -2.9410   -0.0000 C   0  0  0  0  0  0  0  0  0  0  0  0
   -6.5552   -2.1732   -0.0000 N   0  0  0  0  0  0  0  0  0  0  0  0
   -7.8544    0.0709   -0.0000 N   0  0  0  0  0  0  0  0  0  0  0  0
   -5.2678   -4.4292   -0.0000 C   0  0  0  0  0  0  0  0  0  0  0  0
   -9.2363   -0.5197   -0.0000 N   0  0  0  0  0  0  0  0  0  0  0  0
   -8.0197    1.5709   -0.0000 C   0  0  0  0  0  0  0  0  0  0  0  0
   -6.5788   -5.1615   -0.0000 N   0  0  0  0  0  0  0  0  0  0  0  0
   -3.9922   -5.1615   -0.0000 C   0  0  0  0  0  0  0  0  0  0  0  0
  -10.2520    0.6142   -0.0000 C   0  0  0  0  0  0  0  0  0  0  0  0
   -9.4961    1.9016   -0.0000 C   0  0  0  0  0  0  0  0  0  0  0  0
   -6.9095    2.5866   -0.0000 C   0  0  0  0  0  0  0  0  0  0  0  0
   -6.5906   -6.6497   -0.0000 C   0  0  0  0  0  0  0  0  0  0  0  0
   -4.0040   -6.6497   -0.0000 C   0  0  0  0  0  0  0  0  0  0  0  0
  -11.7639    0.4724   -0.0000 C   0  0  0  0  0  0  0  0  0  0  0  0
   -7.9016   -7.3819   -0.0000 N   0  0  0  0  0  0  0  0  0  0  0  0
   -5.3032   -7.3937   -0.0000 C   0  0  0  0  0  0  0  0  0  0  0  0
   -7.9134   -8.8701   -0.0000 C   0  0  0  0  0  0  0  0  0  0  0  0
   -9.2008   -6.6142   -0.0000 C   0  0  0  0  0  0  0  0  0  0  0  0
  1  2  2  0  0  0  0
  2  3  1  0  0  0  0
  2  4  1  0  0  0  0
  3  5  1  0  0  0  0
  5  6  2  0  0  0  0
  5  7  1  0  0  0  0
  6  8  1  0  0  0  0
  7  9  2  0  0  0  0
  8 10  2  0  0  0  0
  8 11  1  0  0  0  0
  9 12  1  0  0  0  0
 11 13  1  0  0  0  0
 11 14  1  0  0  0  0
 12 15  2  0  0  0  0
 12 16  1  0  0  0  0
 13 17  2  0  0  0  0
 14 18  2  0  0  0  0
 14 19  1  0  0  0  0
 15 20  1  0  0  0  0
 16 21  2  0  0  0  0
 17 22  1  0  0  0  0
 20 23  1  0  0  0  0
 20 24  2  0  0  0  0
 23 25  1  0  0  0  0
 23 26  1  0  0  0  0
  9 10  1  0  0  0  0
 17 18  1  0  0  0  0
 21 24  1  0  0  0  0
M  END
>  <MolRegNo>
516692

>  <m>
=

>  <Value>
25000

>  <Unit>
nM

>  <Type>
IC50

>  <pValue>
4.6

>  <Ligand Efficiency>
0

>  <Binding Efficiency>
0

>  <Surface Efficiency>
0

>  <Assay Index>
341862

>  <Assay Category>


>  <Assay Organism>
Homo sapiens

>  <Target ID>
17045

>  <Target Name>
Cytochrome P450 3A4

>  <Target Organism>
Homo sapiens

>  <Target Description>
Target is a single protein chain

>  <Sequence Accession>
P08684

>  <Reference>
J Med Chem 51 (22), 7099-7110 (2008)

>  <Pubmed ID>
18947224

>  <DOI>
10.1021/jm800851u

$$$$
516453
Actelion Java MolfileCreator 1.0

 23 25  0  0  0  0  0  0  0  0999 V2000
    0.0000   -0.0000   -0.0000 O   0  0  0  0  0  0  0  0  0  0  0  0
   -0.0118    1.5103   -0.0000 C   0  0  0  0  0  0  0  0  0  0  0  0
   -1.3215    2.2773   -0.0000 N   0  0  0  0  0  0  0  0  0  0  0  0
    1.2743    2.2773   -0.0000 C   0  0  0  0  0  0  0  0  0  0  0  0
   -2.6312    1.5339   -0.0000 C   0  0  0  0  0  0  0  0  0  0  0  0
   -3.9291    2.3008   -0.0000 N   0  0  0  0  0  0  0  0  0  0  0  0
   -2.6430    0.0472   -0.0000 C   0  0  0  0  0  0  0  0  0  0  0  0
   -5.2389    1.5575   -0.0000 C   0  0  0  0  0  0  0  0  0  0  0  0
   -3.9527   -0.6844   -0.0000 C   0  0  0  0  0  0  0  0  0  0  0  0
   -5.2507    0.0708   -0.0000 N   0  0  0  0  0  0  0  0  0  0  0  0
   -6.5486    2.3244   -0.0000 N   0  0  0  0  0  0  0  0  0  0  0  0
   -3.9645   -2.1711   -0.0000 C   0  0  0  0  0  0  0  0  0  0  0  0
   -7.9291    1.7227   -0.0000 N   0  0  0  0  0  0  0  0  0  0  0  0
   -6.7138    3.8229   -0.0000 C   0  0  0  0  0  0  0  0  0  0  0  0
   -2.6902   -2.9144   -0.0000 C   0  0  0  0  0  0  0  0  0  0  0  0
   -5.2743   -2.9144   -0.0000 C   0  0  0  0  0  0  0  0  0  0  0  0
   -8.9438    2.8554   -0.0000 C   0  0  0  0  0  0  0  0  0  0  0  0
   -8.1887    4.1533   -0.0000 C   0  0  0  0  0  0  0  0  0  0  0  0
   -5.6164    4.8259   -0.0000 C   0  0  0  0  0  0  0  0  0  0  0  0
   -2.7020   -4.4011   -0.0000 C   0  0  0  0  0  0  0  0  0  0  0  0
   -5.2861   -4.4011   -0.0000 C   0  0  0  0  0  0  0  0  0  0  0  0
  -10.4541    2.7138   -0.0000 C   0  0  0  0  0  0  0  0  0  0  0  0
   -4.0117   -5.1327   -0.0000 C   0  0  0  0  0  0  0  0  0  0  0  0
  1  2  2  0  0  0  0
  2  3  1  0  0  0  0
  2  4  1  0  0  0  0
  3  5  1  0  0  0  0
  5  6  2  0  0  0  0
  5  7  1  0  0  0  0
  6  8  1  0  0  0  0
  7  9  2  0  0  0  0
  8 10  2  0  0  0  0
  8 11  1  0  0  0  0
  9 12  1  0  0  0  0
 11 13  1  0  0  0  0
 11 14  1  0  0  0  0
 12 15  2  0  0  0  0
 12 16  1  0  0  0  0
 13 17  2  0  0  0  0
 14 18  2  0  0  0  0
 14 19  1  0  0  0  0
 15 20  1  0  0  0  0
 16 21  2  0  0  0  0
 17 22  1  0  0  0  0
 20 23  2  0  0  0  0
  9 10  1  0  0  0  0
 17 18  1  0  0  0  0
 21 23  1  0  0  0  0
M  END
>  <MolRegNo>
516453

>  <m>
=

>  <Value>
43000

>  <Unit>
nM

>  <Type>
IC50

>  <pValue>
4.37

>  <Ligand Efficiency>
0

>  <Binding Efficiency>
0

>  <Surface Efficiency>
0

>  <Assay Index>
341862

>  <Assay Category>


>  <Assay Organism>
Homo sapiens

>  <Target ID>
17045

>  <Target Name>
Cytochrome P450 3A4

>  <Target Organism>
Homo sapiens

>  <Target Description>
Target is a single protein chain

>  <Sequence Accession>
P08684

>  <Reference>
J Med Chem 51 (22), 7099-7110 (2008)

>  <Pubmed ID>
18947224

>  <DOI>
10.1021/jm800851u

$$$$
499593
Actelion Java MolfileCreator 1.0

 39 43  0  0  0  0  0  0  0  0999 V2000
    0.0000   -0.0000   -0.0000 S   0  0  0  0  0  0  0  0  0  0  0  0
    0.7814    1.2905   -0.0000 O   0  0  0  0  0  0  0  0  0  0  0  0
   -0.8051   -1.2668   -0.0000 O   0  0  0  0  0  0  0  0  0  0  0  0
    1.2431   -0.8051   -0.0000 N   0  0  0  0  0  0  0  0  0  0  0  0
   -1.3023    0.7814   -0.0000 C   0  0  0  0  0  0  0  0  0  0  0  0
    1.1484   -2.2850   -0.0000 C   0  0  0  0  0  0  0  0  0  0  0  0
    2.5573   -0.1066   -0.0000 C   0  0  0  0  0  0  0  0  0  0  0  0
   -1.2905    2.2850   -0.0000 C   0  0  0  0  0  0  0  0  0  0  0  0
   -2.6283    0.0474   -0.0000 C   0  0  0  0  0  0  0  0  0  0  0  0
    2.3915   -3.0900   -0.0000 C   0  0  0  0  0  0  0  0  0  0  0  0
    3.8004   -0.9116   -0.0000 C   0  0  0  0  0  0  0  0  0  0  0  0
   -2.5928    3.0663   -0.0000 C   0  0  0  0  0  0  0  0  0  0  0  0
   -3.9306    0.8169   -0.0000 C   0  0  0  0  0  0  0  0  0  0  0  0
    3.7175   -2.4034   -0.0000 N   0  0  0  0  0  0  0  0  0  0  0  0
   -2.5809    4.5818   -0.0000 C   0  0  0  0  0  0  0  0  0  0  0  0
   -3.9188    2.3442   -0.0000 C   0  0  0  0  0  0  0  0  0  0  0  0
   -5.2448    0.0947   -0.0000 C   0  0  0  0  0  0  0  0  0  0  0  0
    4.9606   -3.2084   -0.0000 C   0  0  0  0  0  0  0  0  0  0  0  0
   -3.7885    5.4934   -0.0000 N   0  0  0  0  0  0  0  0  0  0  0  0
   -1.3615    5.4579   -0.0000 N   0  0  0  0  0  0  0  0  0  0  0  0
   -6.5826   -0.6275   -0.0000 F   0  0  0  0  0  0  0  0  0  0  0  0
   -4.5226   -1.2076   -0.0000 F   0  0  0  0  0  0  0  0  0  0  0  0
   -5.9788    1.4207   -0.0000 F   0  0  0  0  0  0  0  0  0  0  0  0
    4.8777   -4.7001   -0.0000 O   0  0  0  0  0  0  0  0  0  0  0  0
    6.2866   -2.5099   -0.0000 C   0  0  0  0  0  0  0  0  0  0  0  0
   -3.3150    6.9259   -0.0000 N   0  0  0  0  0  0  0  0  0  0  0  0
   -1.8114    6.9022   -0.0000 C   0  0  0  0  0  0  0  0  0  0  0  0
    7.5297   -3.3150   -0.0000 C   0  0  0  0  0  0  0  0  0  0  0  0
    7.6126   -1.8232   -0.0000 C   0  0  0  0  0  0  0  0  0  0  0  0
    8.8083   -2.5454   -0.0000 C   0  0  0  0  0  0  0  0  0  0  0  0
    8.7728   -1.0300   -0.0000 C   0  0  0  0  0  0  0  0  0  0  0  0
   10.0988   -3.2558   -0.0000 C   0  0  0  0  0  0  0  0  0  0  0  0
   10.0515   -0.2486   -0.0000 C   0  0  0  0  0  0  0  0  0  0  0  0
   11.3774   -2.4744   -0.0000 C   0  0  0  0  0  0  0  0  0  0  0  0
   11.3538   -0.9708   -0.0000 C   0  0  0  0  0  0  0  0  0  0  0  0
   12.6324   -0.1894   -0.0000 C   0  0  0  0  0  0  0  0  0  0  0  0
   13.8755    0.6275   -0.0000 F   0  0  0  0  0  0  0  0  0  0  0  0
   13.4138   -1.4562   -0.0000 F   0  0  0  0  0  0  0  0  0  0  0  0
   11.8392    1.1010   -0.0000 F   0  0  0  0  0  0  0  0  0  0  0  0
  1  2  2  0  0  0  0
  1  3  2  0  0  0  0
  1  4  1  0  0  0  0
  1  5  1  0  0  0  0
  4  6  1  0  0  0  0
  4  7  1  0  0  0  0
  5  8  2  0  0  0  0
  5  9  1  0  0  0  0
  6 10  1  0  0  0  0
  7 11  1  0  0  0  0
  8 12  1  0  0  0  0
  9 13  2  0  0  0  0
 10 14  1  0  0  0  0
 12 15  1  0  0  0  0
 12 16  2  0  0  0  0
 13 17  1  0  0  0  0
 14 18  1  0  0  0  0
 15 19  2  0  0  0  0
 15 20  1  0  0  0  0
 17 21  1  0  0  0  0
 17 22  1  0  0  0  0
 17 23  1  0  0  0  0
 18 24  2  0  0  0  0
 18 25  1  0  0  0  0
 19 26  1  0  0  0  0
 20 27  1  0  0  0  0
 25 28  1  0  0  0  0
 25 29  1  1  0  0  0
 28 30  1  6  0  0  0
 30 31  2  0  0  0  0
 30 32  1  0  0  0  0
 31 33  1  0  0  0  0
 32 34  2  0  0  0  0
 33 35  2  0  0  0  0
 35 36  1  0  0  0  0
 36 37  1  0  0  0  0
 36 38  1  0  0  0  0
 36 39  1  0  0  0  0
 11 14  1  0  0  0  0
 13 16  1  0  0  0  0
 26 27  2  0  0  0  0
 28 29  1  0  0  0  0
 34 35  1  0  0  0  0
M  END
>  <MolRegNo>
499593

>  <m>
=

>  <Value>
4700

>  <Unit>
nM

>  <Type>
IC50

>  <pValue>
5.33

>  <Ligand Efficiency>
0

>  <Binding Efficiency>
0

>  <Surface Efficiency>
0

>  <Assay Index>
411912

>  <Assay Category>


>  <Assay Organism>


>  <Target ID>
17045

>  <Target Name>
Cytochrome P450 3A4

>  <Target Organism>
Homo sapiens

>  <Target Description>
Target is a single protein chain

>  <Sequence Accession>
P08684

>  <Reference>
J Med Chem 52 (8), 2550-2558 (2009)

>  <Pubmed ID>
19320488

>  <DOI>
10.1021/jm900063x

$$$$
499595
Actelion Java MolfileCreator 1.0

 39 43  0  0  0  0  0  0  0  0999 V2000
    0.0000   -0.0000   -0.0000 Cl  0  0  0  0  0  0  0  0  0  0  0  0
   -1.3064    0.7502   -0.0000 C   0  0  0  0  0  0  0  0  0  0  0  0
   -1.3194    2.2636   -0.0000 C   0  0  0  0  0  0  0  0  0  0  0  0
   -2.6129    0.0129   -0.0000 C   0  0  0  0  0  0  0  0  0  0  0  0
   -0.0388    3.0268   -0.0000 C   0  0  0  0  0  0  0  0  0  0  0  0
   -2.6387    3.0138   -0.0000 C   0  0  0  0  0  0  0  0  0  0  0  0
   -3.9193    0.7761   -0.0000 C   0  0  0  0  0  0  0  0  0  0  0  0
    1.2418    2.3024   -0.0000 O   0  0  0  0  0  0  0  0  0  0  0  0
   -0.0647    4.5272   -0.0000 N   0  0  0  0  0  0  0  0  0  0  0  0
   -3.9322    2.2765   -0.0000 C   0  0  0  0  0  0  0  0  0  0  0  0
   -5.2257    0.0388   -0.0000 N   0  0  0  0  0  0  0  0  0  0  0  0
   -1.2288    5.4585   -0.0000 C   0  0  0  0  0  0  0  0  0  0  0  0
    1.3840    4.8894   -0.0000 C   0  0  0  0  0  0  0  0  0  0  0  0
   -6.6097    0.6467   -0.0000 N   0  0  0  0  0  0  0  0  0  0  0  0
   -5.3939   -1.4358   -0.0000 C   0  0  0  0  0  0  0  0  0  0  0  0
   -1.2547    6.9719   -0.0000 C   0  0  0  0  0  0  0  0  0  0  0  0
   -2.5223    4.7083   -0.0000 C   0  0  0  0  0  0  0  0  0  0  0  0
    2.0049    6.2605   -0.0000 C   0  0  0  0  0  0  0  0  0  0  0  0
   -7.6187   -0.4527   -0.0000 C   0  0  0  0  0  0  0  0  0  0  0  0
   -6.8684   -1.7333   -0.0000 C   0  0  0  0  0  0  0  0  0  0  0  0
   -0.1164    7.9291   -0.0000 C   0  0  0  0  0  0  0  0  0  0  0  0
   -2.5741    7.7222   -0.0000 C   0  0  0  0  0  0  0  0  0  0  0  0
   -3.8417    5.4456   -0.0000 C   0  0  0  0  0  0  0  0  0  0  0  0
    1.2676    7.6704   -0.0000 C   0  0  0  0  0  0  0  0  0  0  0  0
   -9.1191   -0.2846   -0.0000 C   0  0  0  0  0  0  0  0  0  0  0  0
   -0.4657    9.3908   -0.0000 C   0  0  0  0  0  0  0  0  0  0  0  0
   -3.8805    6.9719   -0.0000 C   0  0  0  0  0  0  0  0  0  0  0  0
    1.2418    9.3261   -0.0000 F   0  0  0  0  0  0  0  0  0  0  0  0
    2.7163    7.6833   -0.0000 F   0  0  0  0  0  0  0  0  0  0  0  0
    0.2716   10.6972   -0.0000 C   0  0  0  0  0  0  0  0  0  0  0  0
   -0.4915   12.0036   -0.0000 O   0  0  0  0  0  0  0  0  0  0  0  0
    1.7462   10.7101   -0.0000 N   0  0  0  0  0  0  0  0  0  0  0  0
    2.4835   12.0165   -0.0000 C   0  0  0  0  0  0  0  0  0  0  0  0
    3.9581   12.0295   -0.0000 C   0  0  0  0  0  0  0  0  0  0  0  0
    4.6954   10.7489   -0.0000 N   0  0  0  0  0  0  0  0  0  0  0  0
    4.6824   13.3230   -0.0000 C   0  0  0  0  0  0  0  0  0  0  0  0
    6.1700   10.7619   -0.0000 C   0  0  0  0  0  0  0  0  0  0  0  0
    6.1570   13.3488   -0.0000 C   0  0  0  0  0  0  0  0  0  0  0  0
    6.9073   12.0683   -0.0000 C   0  0  0  0  0  0  0  0  0  0  0  0
  1  2  1  0  0  0  0
  2  3  2  0  0  0  0
  2  4  1  0  0  0  0
  3  5  1  0  0  0  0
  3  6  1  0  0  0  0
  4  7  2  0  0  0  0
  5  8  2  0  0  0  0
  5  9  1  0  0  0  0
  6 10  2  0  0  0  0
  7 11  1  0  0  0  0
  9 12  1  0  0  0  0
  9 13  1  0  0  0  0
 11 14  1  0  0  0  0
 11 15  1  0  0  0  0
 12 16  2  0  0  0  0
 12 17  1  0  0  0  0
 13 18  1  0  0  0  0
 14 19  2  0  0  0  0
 15 20  2  0  0  0  0
 16 21  1  0  0  0  0
 16 22  1  0  0  0  0
 17 23  2  0  0  0  0
 18 24  1  0  0  0  0
 19 25  1  0  0  0  0
 21 26  2  0  0  0  0
 22 27  2  0  0  0  0
 24 28  1  0  0  0  0
 24 29  1  0  0  0  0
 26 30  1  0  0  0  0
 30 31  2  0  0  0  0
 30 32  1  0  0  0  0
 32 33  1  0  0  0  0
 33 34  1  0  0  0  0
 34 35  2  0  0  0  0
 34 36  1  0  0  0  0
 35 37  1  0  0  0  0
 36 38  2  0  0  0  0
 37 39  2  0  0  0  0
  7 10  1  0  0  0  0
 19 20  1  0  0  0  0
 21 24  1  0  0  0  0
 23 27  1  0  0  0  0
 38 39  1  0  0  0  0
M  END
>  <MolRegNo>
499595

>  <m>
=

>  <Value>
11000

>  <Unit>
nM

>  <Type>
IC50

>  <pValue>
4.96

>  <Ligand Efficiency>
0

>  <Binding Efficiency>
0

>  <Surface Efficiency>
0

>  <Assay Index>
411942

>  <Assay Category>


>  <Assay Organism>
Homo sapiens

>  <Target ID>
17045

>  <Target Name>
Cytochrome P450 3A4

>  <Target Organism>
Homo sapiens

>  <Target Description>
Target is a single protein chain

>  <Sequence Accession>
P08684

>  <Reference>
Bioorg Med Chem 17 (8), 3130-3141 (2009)

>  <Pubmed ID>
19321349

>  <DOI>
10.1016/j.bmc.2009.03.001

$$$$
498689
Actelion Java MolfileCreator 1.0

 39 43  0  0  0  0  0  0  0  0999 V2000
    0.0000   -0.0000   -0.0000 Cl  0  0  0  0  0  0  0  0  0  0  0  0
   -1.3056    0.7596   -0.0000 C   0  0  0  0  0  0  0  0  0  0  0  0
   -1.3175    2.2789   -0.0000 C   0  0  0  0  0  0  0  0  0  0  0  0
   -2.6232    0.0237   -0.0000 C   0  0  0  0  0  0  0  0  0  0  0  0
   -0.0356    3.0386   -0.0000 C   0  0  0  0  0  0  0  0  0  0  0  0
   -2.6232    3.0386   -0.0000 C   0  0  0  0  0  0  0  0  0  0  0  0
   -3.9288    0.7834   -0.0000 C   0  0  0  0  0  0  0  0  0  0  0  0
    1.2463    2.3027   -0.0000 O   0  0  0  0  0  0  0  0  0  0  0  0
   -0.0475    4.5460   -0.0000 N   0  0  0  0  0  0  0  0  0  0  0  0
   -3.9288    2.3027   -0.0000 C   0  0  0  0  0  0  0  0  0  0  0  0
   -5.2344    0.0475   -0.0000 N   0  0  0  0  0  0  0  0  0  0  0  0
   -1.4006    5.1988   -0.0000 C   0  0  0  0  0  0  0  0  0  0  0  0
    1.2938    5.2226   -0.0000 C   0  0  0  0  0  0  0  0  0  0  0  0
   -6.6113    0.6647   -0.0000 N   0  0  0  0  0  0  0  0  0  0  0  0
   -5.4006   -1.4243   -0.0000 C   0  0  0  0  0  0  0  0  0  0  0  0
   -1.7567    6.6706   -0.0000 C   0  0  0  0  0  0  0  0  0  0  0  0
   -2.4926    4.1781   -0.0000 C   0  0  0  0  0  0  0  0  0  0  0  0
    1.6024    6.6944   -0.0000 C   0  0  0  0  0  0  0  0  0  0  0  0
   -7.6202   -0.4392   -0.0000 C   0  0  0  0  0  0  0  0  0  0  0  0
   -6.8724   -1.7211   -0.0000 C   0  0  0  0  0  0  0  0  0  0  0  0
   -0.8427    7.8576   -0.0000 C   0  0  0  0  0  0  0  0  0  0  0  0
   -3.2048    7.1098   -0.0000 C   0  0  0  0  0  0  0  0  0  0  0  0
   -3.9407    4.6172   -0.0000 C   0  0  0  0  0  0  0  0  0  0  0  0
    0.6410    7.8695   -0.0000 C   0  0  0  0  0  0  0  0  0  0  0  0
   -9.1158   -0.2730   -0.0000 C   0  0  0  0  0  0  0  0  0  0  0  0
   -1.5074    9.2107   -0.0000 C   0  0  0  0  0  0  0  0  0  0  0  0
   -4.3086    6.0890   -0.0000 C   0  0  0  0  0  0  0  0  0  0  0  0
    0.6172    9.3887   -0.0000 F   0  0  0  0  0  0  0  0  0  0  0  0
    2.1246    7.8932   -0.0000 F   0  0  0  0  0  0  0  0  0  0  0  0
   -0.6884   10.4689   -0.0000 C   0  0  0  0  0  0  0  0  0  0  0  0
   -1.3531   11.8220   -0.0000 O   0  0  0  0  0  0  0  0  0  0  0  0
    0.7953   10.4807   -0.0000 N   0  0  0  0  0  0  0  0  0  0  0  0
    1.5312   11.7864   -0.0000 C   0  0  0  0  0  0  0  0  0  0  0  0
    3.0148   11.7983   -0.0000 C   0  0  0  0  0  0  0  0  0  0  0  0
    3.7389   10.5045   -0.0000 N   0  0  0  0  0  0  0  0  0  0  0  0
    3.7508   13.0920   -0.0000 C   0  0  0  0  0  0  0  0  0  0  0  0
    5.2226   10.5163   -0.0000 N   0  0  0  0  0  0  0  0  0  0  0  0
    5.2344   13.1039   -0.0000 C   0  0  0  0  0  0  0  0  0  0  0  0
    5.9703   11.8220   -0.0000 C   0  0  0  0  0  0  0  0  0  0  0  0
  1  2  1  0  0  0  0
  2  3  2  0  0  0  0
  2  4  1  0  0  0  0
  3  5  1  0  0  0  0
  3  6  1  0  0  0  0
  4  7  2  0  0  0  0
  5  8  2  0  0  0  0
  5  9  1  0  0  0  0
  6 10  2  0  0  0  0
  7 11  1  0  0  0  0
  9 12  1  0  0  0  0
  9 13  1  0  0  0  0
 11 14  1  0  0  0  0
 11 15  1  0  0  0  0
 12 16  2  0  0  0  0
 12 17  1  0  0  0  0
 13 18  1  0  0  0  0
 14 19  2  0  0  0  0
 15 20  2  0  0  0  0
 16 21  1  0  0  0  0
 16 22  1  0  0  0  0
 17 23  2  0  0  0  0
 18 24  1  0  0  0  0
 19 25  1  0  0  0  0
 21 26  2  0  0  0  0
 22 27  2  0  0  0  0
 24 28  1  0  0  0  0
 24 29  1  0  0  0  0
 26 30  1  0  0  0  0
 30 31  2  0  0  0  0
 30 32  1  0  0  0  0
 32 33  1  0  0  0  0
 33 34  1  0  0  0  0
 34 35  2  0  0  0  0
 34 36  1  0  0  0  0
 35 37  1  0  0  0  0
 36 38  2  0  0  0  0
 37 39  2  0  0  0  0
  7 10  1  0  0  0  0
 19 20  1  0  0  0  0
 21 24  1  0  0  0  0
 23 27  1  0  0  0  0
 38 39  1  0  0  0  0
M  END
>  <MolRegNo>
498689

>  <m>
=

>  <Value>
7900

>  <Unit>
nM

>  <Type>
IC50

>  <pValue>
5.1

>  <Ligand Efficiency>
0

>  <Binding Efficiency>
0

>  <Surface Efficiency>
0

>  <Assay Index>
411942

>  <Assay Category>


>  <Assay Organism>
Homo sapiens

>  <Target ID>
17045

>  <Target Name>
Cytochrome P450 3A4

>  <Target Organism>
Homo sapiens

>  <Target Description>
Target is a single protein chain

>  <Sequence Accession>
P08684

>  <Reference>
Bioorg Med Chem 17 (8), 3130-3141 (2009)

>  <Pubmed ID>
19321349

>  <DOI>
10.1016/j.bmc.2009.03.001

$$$$
498934
Actelion Java MolfileCreator 1.0

 35 38  0  0  0  0  0  0  0  0999 V2000
    0.0000   -0.0000   -0.0000 Cl  0  0  0  0  0  0  0  0  0  0  0  0
   -1.3005    0.7685   -0.0000 C   0  0  0  0  0  0  0  0  0  0  0  0
   -1.3005    2.2699   -0.0000 C   0  0  0  0  0  0  0  0  0  0  0  0
   -2.6128    0.0355   -0.0000 C   0  0  0  0  0  0  0  0  0  0  0  0
   -0.0118    3.0148   -0.0000 C   0  0  0  0  0  0  0  0  0  0  0  0
   -2.6010    3.0502   -0.0000 C   0  0  0  0  0  0  0  0  0  0  0  0
   -3.9251    0.8158   -0.0000 C   0  0  0  0  0  0  0  0  0  0  0  0
    1.2650    2.2581   -0.0000 O   0  0  0  0  0  0  0  0  0  0  0  0
   -0.0118    4.5162   -0.0000 N   0  0  0  0  0  0  0  0  0  0  0  0
   -3.9133    2.3290   -0.0000 C   0  0  0  0  0  0  0  0  0  0  0  0
   -5.2492    0.0828   -0.0000 N   0  0  0  0  0  0  0  0  0  0  0  0
   -1.1350    5.4857   -0.0000 C   0  0  0  0  0  0  0  0  0  0  0  0
    1.3832    4.7763   -0.0000 C   0  0  0  0  0  0  0  0  0  0  0  0
   -6.6206    0.7212   -0.0000 N   0  0  0  0  0  0  0  0  0  0  0  0
   -5.4266   -1.3951   -0.0000 C   0  0  0  0  0  0  0  0  0  0  0  0
   -1.1468    6.9635   -0.0000 C   0  0  0  0  0  0  0  0  0  0  0  0
   -2.4118    4.7645   -0.0000 C   0  0  0  0  0  0  0  0  0  0  0  0
    2.1162    6.1596   -0.0000 C   0  0  0  0  0  0  0  0  0  0  0  0
   -7.6492   -0.3783   -0.0000 C   0  0  0  0  0  0  0  0  0  0  0  0
   -6.9044   -1.6788   -0.0000 C   0  0  0  0  0  0  0  0  0  0  0  0
    0.0591    7.9211   -0.0000 C   0  0  0  0  0  0  0  0  0  0  0  0
   -2.4236    7.7083   -0.0000 C   0  0  0  0  0  0  0  0  0  0  0  0
   -3.6886    5.4975   -0.0000 C   0  0  0  0  0  0  0  0  0  0  0  0
    1.5133    7.5428   -0.0000 C   0  0  0  0  0  0  0  0  0  0  0  0
   -9.1507   -0.2010   -0.0000 C   0  0  0  0  0  0  0  0  0  0  0  0
   -0.7212    9.2452   -0.0000 C   0  0  0  0  0  0  0  0  0  0  0  0
   -3.7005    6.9871   -0.0000 C   0  0  0  0  0  0  0  0  0  0  0  0
    1.4896    9.0561   -0.0000 F   0  0  0  0  0  0  0  0  0  0  0  0
    2.7901    8.3113   -0.0000 F   0  0  0  0  0  0  0  0  0  0  0  0
    0.0118   10.5576   -0.0000 C   0  0  0  0  0  0  0  0  0  0  0  0
   -0.7566   11.8699   -0.0000 O   0  0  0  0  0  0  0  0  0  0  0  0
    1.5015   10.5812   -0.0000 N   0  0  0  0  0  0  0  0  0  0  0  0
    2.2345   11.8935   -0.0000 C   0  0  0  0  0  0  0  0  0  0  0  0
    3.7241   11.9171   -0.0000 C   0  0  0  0  0  0  0  0  0  0  0  0
    4.4571   13.2295   -0.0000 O   0  0  0  0  0  0  0  0  0  0  0  0
  1  2  1  0  0  0  0
  2  3  2  0  0  0  0
  2  4  1  0  0  0  0
  3  5  1  0  0  0  0
  3  6  1  0  0  0  0
  4  7  2  0  0  0  0
  5  8  2  0  0  0  0
  5  9  1  0  0  0  0
  6 10  2  0  0  0  0
  7 11  1  0  0  0  0
  9 12  1  0  0  0  0
  9 13  1  0  0  0  0
 11 14  1  0  0  0  0
 11 15  1  0  0  0  0
 12 16  2  0  0  0  0
 12 17  1  0  0  0  0
 13 18  1  0  0  0  0
 14 19  2  0  0  0  0
 15 20  2  0  0  0  0
 16 21  1  0  0  0  0
 16 22  1  0  0  0  0
 17 23  2  0  0  0  0
 18 24  1  0  0  0  0
 19 25  1  0  0  0  0
 21 26  2  0  0  0  0
 22 27  2  0  0  0  0
 24 28  1  0  0  0  0
 24 29  1  0  0  0  0
 26 30  1  0  0  0  0
 30 31  2  0  0  0  0
 30 32  1  0  0  0  0
 32 33  1  0  0  0  0
 33 34  1  0  0  0  0
 34 35  1  0  0  0  0
  7 10  1  0  0  0  0
 19 20  1  0  0  0  0
 21 24  1  0  0  0  0
 23 27  1  0  0  0  0
M  END
>  <MolRegNo>
498934

>  <m>
=

>  <Value>
47000

>  <Unit>
nM

>  <Type>
IC50

>  <pValue>
4.33

>  <Ligand Efficiency>
0

>  <Binding Efficiency>
0

>  <Surface Efficiency>
0

>  <Assay Index>
411942

>  <Assay Category>


>  <Assay Organism>
Homo sapiens

>  <Target ID>
17045

>  <Target Name>
Cytochrome P450 3A4

>  <Target Organism>
Homo sapiens

>  <Target Description>
Target is a single protein chain

>  <Sequence Accession>
P08684

>  <Reference>
Bioorg Med Chem 17 (8), 3130-3141 (2009)

>  <Pubmed ID>
19321349

>  <DOI>
10.1016/j.bmc.2009.03.001

$$$$
393090
Actelion Java MolfileCreator 1.0

 43 47  0  0  0  0  0  0  0  0999 V2000
    0.0000   -0.0000   -0.0000 O   0  0  0  0  0  0  0  0  0  0  0  0
    0.0000   -1.4850   -0.0000 C   0  0  0  0  0  0  0  0  0  0  0  0
    1.2949   -2.2097   -0.0000 C   0  0  0  0  0  0  0  0  0  0  0  0
   -1.2949   -2.2453   -0.0000 C   0  0  0  0  0  0  0  0  0  0  0  0
    2.5779   -1.4256   -0.0000 O   0  0  0  0  0  0  0  0  0  0  0  0
    1.2949   -3.6946   -0.0000 C   0  0  0  0  0  0  0  0  0  0  0  0
   -1.2949   -3.7303   -0.0000 C   0  0  0  0  0  0  0  0  0  0  0  0
   -2.6136   -1.4850   -0.0000 C   0  0  0  0  0  0  0  0  0  0  0  0
    2.5542    0.0832   -0.0000 C   0  0  0  0  0  0  0  0  0  0  0  0
   -0.0119   -4.4312   -0.0000 O   0  0  0  0  0  0  0  0  0  0  0  0
    2.5898   -4.4074   -0.0000 C   0  0  0  0  0  0  0  0  0  0  0  0
   -2.5898   -4.4787   -0.0000 C   0  0  0  0  0  0  0  0  0  0  0  0
   -2.6373    0.0238   -0.0000 O   0  0  0  0  0  0  0  0  0  0  0  0
   -3.9085   -2.2453   -0.0000 C   0  0  0  0  0  0  0  0  0  0  0  0
    1.2355    0.8316   -0.0000 O   0  0  0  0  0  0  0  0  0  0  0  0
    3.8372    0.8435   -0.0000 C   0  0  0  0  0  0  0  0  0  0  0  0
    2.5898   -5.9043   -0.0000 C   0  0  0  0  0  0  0  0  0  0  0  0
    3.8728   -3.6471   -0.0000 C   0  0  0  0  0  0  0  0  0  0  0  0
   -3.9085   -3.7422   -0.0000 C   0  0  0  0  0  0  0  0  0  0  0  0
    1.2118    2.3522   -0.0000 C   0  0  0  0  0  0  0  0  0  0  0  0
    5.1202    0.1188   -0.0000 O   0  0  0  0  0  0  0  0  0  0  0  0
    3.8134    2.3641   -0.0000 C   0  0  0  0  0  0  0  0  0  0  0  0
    3.8847   -6.6290   -0.0000 C   0  0  0  0  0  0  0  0  0  0  0  0
    5.1678   -4.3718   -0.0000 C   0  0  0  0  0  0  0  0  0  0  0  0
   -5.2153   -4.4906   -0.0000 O   0  0  0  0  0  0  0  0  0  0  0  0
    2.4948    3.1244   -0.0000 C   0  0  0  0  0  0  0  0  0  0  0  0
   -0.1069    3.1125   -0.0000 C   0  0  0  0  0  0  0  0  0  0  0  0
    5.0965    3.1363   -0.0000 O   0  0  0  0  0  0  0  0  0  0  0  0
    5.1559   -5.8449   -0.0000 C   0  0  0  0  0  0  0  0  0  0  0  0
    2.4710    4.6332   -0.0000 O   0  0  0  0  0  0  0  0  0  0  0  0
   -1.4375    2.3997   -0.0000 O   0  0  0  0  0  0  0  0  0  0  0  0
    6.4508   -6.5696   -0.0000 O   0  0  0  0  0  0  0  0  0  0  0  0
   -2.7205    3.1957   -0.0000 C   0  0  0  0  0  0  0  0  0  0  0  0
   -2.6967    4.7163   -0.0000 O   0  0  0  0  0  0  0  0  0  0  0  0
   -4.0510    2.4948   -0.0000 C   0  0  0  0  0  0  0  0  0  0  0  0
   -5.3460    3.3026   -0.0000 C   0  0  0  0  0  0  0  0  0  0  0  0
   -6.6765    2.6017   -0.0000 C   0  0  0  0  0  0  0  0  0  0  0  0
   -6.7240    1.1167   -0.0000 C   0  0  0  0  0  0  0  0  0  0  0  0
   -7.9595    3.3977   -0.0000 C   0  0  0  0  0  0  0  0  0  0  0  0
   -8.0546    0.4158   -0.0000 C   0  0  0  0  0  0  0  0  0  0  0  0
   -9.2901    2.6967   -0.0000 C   0  0  0  0  0  0  0  0  0  0  0  0
   -9.3495    1.2118   -0.0000 C   0  0  0  0  0  0  0  0  0  0  0  0
  -10.6800    0.5108   -0.0000 O   0  0  0  0  0  0  0  0  0  0  0  0
  1  2  2  0  0  0  0
  2  3  1  0  0  0  0
  2  4  1  0  0  0  0
  3  5  1  0  0  0  0
  3  6  2  0  0  0  0
  4  7  2  0  0  0  0
  4  8  1  0  0  0  0
  9  5  1  1  0  0  0
  6 10  1  0  0  0  0
  6 11  1  0  0  0  0
  7 12  1  0  0  0  0
  8 13  1  0  0  0  0
  8 14  2  0  0  0  0
  9 15  1  0  0  0  0
  9 16  1  0  0  0  0
 11 17  2  0  0  0  0
 11 18  1  0  0  0  0
 12 19  2  0  0  0  0
 15 20  1  0  0  0  0
 16 21  1  6  0  0  0
 16 22  1  0  0  0  0
 17 23  1  0  0  0  0
 18 24  2  0  0  0  0
 19 25  1  0  0  0  0
 20 26  1  0  0  0  0
 20 27  1  1  0  0  0
 22 28  1  1  0  0  0
 23 29  2  0  0  0  0
 26 30  1  6  0  0  0
 27 31  1  0  0  0  0
 29 32  1  0  0  0  0
 31 33  1  0  0  0  0
 33 34  2  0  0  0  0
 33 35  1  0  0  0  0
 35 36  2  0  0  0  0
 36 37  1  0  0  0  0
 37 38  2  0  0  0  0
 37 39  1  0  0  0  0
 38 40  1  0  0  0  0
 39 41  2  0  0  0  0
 40 42  2  0  0  0  0
 42 43  1  0  0  0  0
  7 10  1  0  0  0  0
 14 19  1  0  0  0  0
 22 26  1  0  0  0  0
 24 29  1  0  0  0  0
 41 42  1  0  0  0  0
M  END
>  <MolRegNo>
393090

>  <m>
=

>  <Value>
700

>  <Unit>
nM

>  <Type>
IC50

>  <pValue>
6.16

>  <Ligand Efficiency>
0

>  <Binding Efficiency>
0

>  <Surface Efficiency>
0

>  <Assay Index>
330388

>  <Assay Category>


>  <Assay Organism>
Homo sapiens

>  <Target ID>
17045

>  <Target Name>
Cytochrome P450 3A4

>  <Target Organism>
Homo sapiens

>  <Target Description>
Target is a single protein chain

>  <Sequence Accession>
P08684

>  <Reference>
J Nat Prod 67 (11), 1839-1841 (2004)

>  <Pubmed ID>
15568772

>  <DOI>
10.1021/np0400104

$$$$
483445
Actelion Java MolfileCreator 1.0

 26 27  0  0  0  0  0  0  0  0999 V2000
    0.0000   -0.0000   -0.0000 O   0  0  0  0  0  0  0  0  0  0  0  0
    1.2854   -0.7379   -0.0000 C   0  0  0  0  0  0  0  0  0  0  0  0
    1.2734   -2.2256   -0.0000 C   0  0  0  0  0  0  0  0  0  0  0  0
    2.5707    0.0238   -0.0000 C   0  0  0  0  0  0  0  0  0  0  0  0
   -0.0357   -2.9634   -0.0000 C   0  0  0  0  0  0  0  0  0  0  0  0
    2.5588   -2.9634   -0.0000 C   0  0  0  0  0  0  0  0  0  0  0  0
    2.5588    1.5353   -0.0000 C   0  0  0  0  0  0  0  0  0  0  0  0
   -1.3449   -2.1899   -0.0000 O   0  0  0  0  0  0  0  0  0  0  0  0
   -0.0595   -4.4511   -0.0000 C   0  0  0  0  0  0  0  0  0  0  0  0
    3.8441   -2.2018   -0.0000 O   0  0  0  0  0  0  0  0  0  0  0  0
    2.5469   -4.4630   -0.0000 C   0  0  0  0  0  0  0  0  0  0  0  0
    3.8441    2.2970   -0.0000 C   0  0  0  0  0  0  0  0  0  0  0  0
    1.2496    2.2970   -0.0000 C   0  0  0  0  0  0  0  0  0  0  0  0
   -2.6659   -2.9277   -0.0000 C   0  0  0  0  0  0  0  0  0  0  0  0
    1.2258   -5.2009   -0.0000 C   0  0  0  0  0  0  0  0  0  0  0  0
   -3.9751   -2.1542   -0.0000 O   0  0  0  0  0  0  0  0  0  0  0  0
   -2.6897   -4.4154   -0.0000 C   0  0  0  0  0  0  0  0  0  0  0  0
    1.2020   -6.6886   -0.0000 O   0  0  0  0  0  0  0  0  0  0  0  0
   -5.2842   -2.8801   -0.0000 C   0  0  0  0  0  0  0  0  0  0  0  0
   -1.4044   -5.1652   -0.0000 O   0  0  0  0  0  0  0  0  0  0  0  0
   -4.0108   -5.1414   -0.0000 C   0  0  0  0  0  0  0  0  0  0  0  0
   -5.3080   -4.3678   -0.0000 C   0  0  0  0  0  0  0  0  0  0  0  0
   -6.5934   -2.1065   -0.0000 C   0  0  0  0  0  0  0  0  0  0  0  0
   -4.0346   -6.6291   -0.0000 O   0  0  0  0  0  0  0  0  0  0  0  0
   -6.6291   -5.0938   -0.0000 O   0  0  0  0  0  0  0  0  0  0  0  0
   -6.5934   -0.5951   -0.0000 O   0  0  0  0  0  0  0  0  0  0  0  0
  1  2  2  0  0  0  0
  2  3  1  0  0  0  0
  2  4  1  0  0  0  0
  3  5  2  0  0  0  0
  3  6  1  0  0  0  0
  4  7  1  0  0  0  0
  5  8  1  0  0  0  0
  5  9  1  0  0  0  0
  6 10  1  0  0  0  0
  6 11  2  0  0  0  0
  7 12  1  0  0  0  0
  7 13  1  0  0  0  0
 14  8  1  6  0  0  0
  9 15  2  0  0  0  0
 14 16  1  0  0  0  0
 14 17  1  0  0  0  0
 15 18  1  0  0  0  0
 16 19  1  0  0  0  0
 17 20  1  1  0  0  0
 17 21  1  0  0  0  0
 19 22  1  0  0  0  0
 19 23  1  6  0  0  0
 21 24  1  6  0  0  0
 22 25  1  1  0  0  0
 23 26  1  0  0  0  0
 11 15  1  0  0  0  0
 21 22  1  0  0  0  0
M  END
>  <MolRegNo>
483445

>  <m>
=

>  <Value>
120000

>  <Unit>
nM

>  <Type>
IC50

>  <pValue>
0

>  <Ligand Efficiency>
0

>  <Binding Efficiency>
0

>  <Surface Efficiency>
0

>  <Assay Index>
330388

>  <Assay Category>


>  <Assay Organism>
Homo sapiens

>  <Target ID>
17045

>  <Target Name>
Cytochrome P450 3A4

>  <Target Organism>
Homo sapiens

>  <Target Description>
Target is a single protein chain

>  <Sequence Accession>
P08684

>  <Reference>
J Nat Prod 67 (11), 1839-1841 (2004)

>  <Pubmed ID>
15568772

>  <DOI>
10.1021/np0400104

$$$$
483444
Actelion Java MolfileCreator 1.0

 43 47  0  0  0  0  0  0  0  0999 V2000
    0.0000   -0.0000   -0.0000 O   0  0  0  0  0  0  0  0  0  0  0  0
   -0.0119    1.5119   -0.0000 C   0  0  0  0  0  0  0  0  0  0  0  0
    1.2857    2.2738   -0.0000 C   0  0  0  0  0  0  0  0  0  0  0  0
   -1.3214    2.2738   -0.0000 C   0  0  0  0  0  0  0  0  0  0  0  0
    2.5715    1.5357   -0.0000 O   0  0  0  0  0  0  0  0  0  0  0  0
    1.2738    3.7977   -0.0000 C   0  0  0  0  0  0  0  0  0  0  0  0
   -1.3333    3.7977   -0.0000 C   0  0  0  0  0  0  0  0  0  0  0  0
   -2.6310    1.5357   -0.0000 C   0  0  0  0  0  0  0  0  0  0  0  0
    2.5596    0.0476   -0.0000 C   0  0  0  0  0  0  0  0  0  0  0  0
   -0.0476    4.5715   -0.0000 O   0  0  0  0  0  0  0  0  0  0  0  0
    2.5476    4.5477   -0.0000 C   0  0  0  0  0  0  0  0  0  0  0  0
   -2.6429    4.5477   -0.0000 C   0  0  0  0  0  0  0  0  0  0  0  0
   -2.6429    0.0476   -0.0000 O   0  0  0  0  0  0  0  0  0  0  0  0
   -3.9405    2.2976   -0.0000 C   0  0  0  0  0  0  0  0  0  0  0  0
    1.2500   -0.6905   -0.0000 O   0  0  0  0  0  0  0  0  0  0  0  0
    3.8453   -0.6905   -0.0000 C   0  0  0  0  0  0  0  0  0  0  0  0
    3.8334    3.8096   -0.0000 C   0  0  0  0  0  0  0  0  0  0  0  0
    2.5357    6.0477   -0.0000 C   0  0  0  0  0  0  0  0  0  0  0  0
   -3.9405    3.8096   -0.0000 C   0  0  0  0  0  0  0  0  0  0  0  0
    1.2262   -2.1667   -0.0000 C   0  0  0  0  0  0  0  0  0  0  0  0
    5.1310    0.0595   -0.0000 O   0  0  0  0  0  0  0  0  0  0  0  0
    3.8215   -2.1786   -0.0000 C   0  0  0  0  0  0  0  0  0  0  0  0
    5.1191    4.5715   -0.0000 C   0  0  0  0  0  0  0  0  0  0  0  0
    3.8096    6.8096   -0.0000 C   0  0  0  0  0  0  0  0  0  0  0  0
   -5.2501    4.5715   -0.0000 O   0  0  0  0  0  0  0  0  0  0  0  0
    2.5000   -2.9167   -0.0000 C   0  0  0  0  0  0  0  0  0  0  0  0
   -0.0833   -2.8929   -0.0000 C   0  0  0  0  0  0  0  0  0  0  0  0
    5.0953   -2.9167   -0.0000 O   0  0  0  0  0  0  0  0  0  0  0  0
    5.1072    6.0834   -0.0000 C   0  0  0  0  0  0  0  0  0  0  0  0
    2.4762   -4.4048   -0.0000 O   0  0  0  0  0  0  0  0  0  0  0  0
   -1.3810   -2.1191   -0.0000 O   0  0  0  0  0  0  0  0  0  0  0  0
    6.3929    6.8453   -0.0000 O   0  0  0  0  0  0  0  0  0  0  0  0
   -2.6905   -2.8453   -0.0000 C   0  0  0  0  0  0  0  0  0  0  0  0
   -3.9881   -2.0715   -0.0000 O   0  0  0  0  0  0  0  0  0  0  0  0
   -2.7143   -4.3334   -0.0000 C   0  0  0  0  0  0  0  0  0  0  0  0
   -4.0239   -5.0596   -0.0000 C   0  0  0  0  0  0  0  0  0  0  0  0
   -5.3215   -4.2858   -0.0000 C   0  0  0  0  0  0  0  0  0  0  0  0
   -5.3215   -2.7857   -0.0000 C   0  0  0  0  0  0  0  0  0  0  0  0
   -6.6191   -5.0239   -0.0000 C   0  0  0  0  0  0  0  0  0  0  0  0
   -6.6191   -2.0119   -0.0000 C   0  0  0  0  0  0  0  0  0  0  0  0
   -7.9168   -4.2620   -0.0000 C   0  0  0  0  0  0  0  0  0  0  0  0
   -7.9287   -2.7381   -0.0000 C   0  0  0  0  0  0  0  0  0  0  0  0
   -9.2382   -1.9762   -0.0000 O   0  0  0  0  0  0  0  0  0  0  0  0
  1  2  2  0  0  0  0
  2  3  1  0  0  0  0
  2  4  1  0  0  0  0
  3  5  1  0  0  0  0
  3  6  2  0  0  0  0
  4  7  2  0  0  0  0
  4  8  1  0  0  0  0
  9  5  1  6  0  0  0
  6 10  1  0  0  0  0
  6 11  1  0  0  0  0
  7 12  1  0  0  0  0
  8 13  1  0  0  0  0
  8 14  2  0  0  0  0
  9 15  1  0  0  0  0
  9 16  1  0  0  0  0
 11 17  2  0  0  0  0
 11 18  1  0  0  0  0
 12 19  2  0  0  0  0
 15 20  1  0  0  0  0
 16 21  1  1  0  0  0
 16 22  1  0  0  0  0
 17 23  1  0  0  0  0
 18 24  2  0  0  0  0
 19 25  1  0  0  0  0
 20 26  1  0  0  0  0
 20 27  1  6  0  0  0
 22 28  1  6  0  0  0
 23 29  2  0  0  0  0
 26 30  1  1  0  0  0
 27 31  1  0  0  0  0
 29 32  1  0  0  0  0
 31 33  1  0  0  0  0
 33 34  2  0  0  0  0
 33 35  1  0  0  0  0
 35 36  2  0  0  0  0
 36 37  1  0  0  0  0
 37 38  2  0  0  0  0
 37 39  1  0  0  0  0
 38 40  1  0  0  0  0
 39 41  2  0  0  0  0
 40 42  2  0  0  0  0
 42 43  1  0  0  0  0
  7 10  1  0  0  0  0
 14 19  1  0  0  0  0
 22 26  1  0  0  0  0
 24 29  1  0  0  0  0
 41 42  1  0  0  0  0
M  END
>  <MolRegNo>
483444

>  <m>
=

>  <Value>
700

>  <Unit>
nM

>  <Type>
IC50

>  <pValue>
6.16

>  <Ligand Efficiency>
0

>  <Binding Efficiency>
0

>  <Surface Efficiency>
0

>  <Assay Index>
330388

>  <Assay Category>


>  <Assay Organism>
Homo sapiens

>  <Target ID>
17045

>  <Target Name>
Cytochrome P450 3A4

>  <Target Organism>
Homo sapiens

>  <Target Description>
Target is a single protein chain

>  <Sequence Accession>
P08684

>  <Reference>
J Nat Prod 67 (11), 1839-1841 (2004)

>  <Pubmed ID>
15568772

>  <DOI>
10.1021/np0400104

$$$$
468326
Actelion Java MolfileCreator 1.0

 49 55  0  0  0  0  0  0  0  0999 V2000
    0.0000   -0.0000   -0.0000 Cl  0  0  0  0  0  0  0  0  0  0  0  0
   -1.4976    0.0118   -0.0000 C   0  0  0  0  0  0  0  0  0  0  0  0
   -2.2522    1.3089   -0.0000 C   0  0  0  0  0  0  0  0  0  0  0  0
   -2.2522   -1.2735   -0.0000 C   0  0  0  0  0  0  0  0  0  0  0  0
   -3.7498    1.3207   -0.0000 C   0  0  0  0  0  0  0  0  0  0  0  0
   -3.7616   -1.2617   -0.0000 C   0  0  0  0  0  0  0  0  0  0  0  0
   -4.5163    0.0472   -0.0000 C   0  0  0  0  0  0  0  0  0  0  0  0
   -4.5045    2.6178   -0.0000 C   0  0  0  0  0  0  0  0  0  0  0  0
   -6.0021    2.6296   -0.0000 O   0  0  0  0  0  0  0  0  0  0  0  0
   -3.7734    3.9149   -0.0000 C   0  0  0  0  0  0  0  0  0  0  0  0
   -4.5281    5.2120   -0.0000 N   0  0  0  0  0  0  0  0  0  0  0  0
   -3.7970    6.5091   -0.0000 C   0  0  0  0  0  0  0  0  0  0  0  0
   -4.5517    7.8180   -0.0000 C   0  0  0  0  0  0  0  0  0  0  0  0
   -2.3230    6.5209   -0.0000 C   0  0  0  0  0  0  0  0  0  0  0  0
   -3.8206    9.1151   -0.0000 C   0  0  0  0  0  0  0  0  0  0  0  0
   -6.0492    7.8298   -0.0000 C   0  0  0  0  0  0  0  0  0  0  0  0
   -1.5919    7.8298   -0.0000 C   0  0  0  0  0  0  0  0  0  0  0  0
   -4.5870   10.4122   -0.0000 O   0  0  0  0  0  0  0  0  0  0  0  0
   -2.3466    9.1387   -0.0000 N   0  0  0  0  0  0  0  0  0  0  0  0
   -6.9454    6.6270   -0.0000 N   0  0  0  0  0  0  0  0  0  0  0  0
   -6.9454    9.0562   -0.0000 N   0  0  0  0  0  0  0  0  0  0  0  0
   -8.3840    7.0987   -0.0000 C   0  0  0  0  0  0  0  0  0  0  0  0
   -8.3840    8.6081   -0.0000 C   0  0  0  0  0  0  0  0  0  0  0  0
   -9.6811    6.3676   -0.0000 C   0  0  0  0  0  0  0  0  0  0  0  0
   -9.6929    9.3627   -0.0000 C   0  0  0  0  0  0  0  0  0  0  0  0
  -10.9782    7.1223   -0.0000 C   0  0  0  0  0  0  0  0  0  0  0  0
   -9.6929    4.8936   -0.0000 C   0  0  0  0  0  0  0  0  0  0  0  0
  -10.9900    8.6316   -0.0000 C   0  0  0  0  0  0  0  0  0  0  0  0
  -12.2989    9.3981   -0.0000 N   0  0  0  0  0  0  0  0  0  0  0  0
  -12.3107   10.9075   -0.0000 C   0  0  0  0  0  0  0  0  0  0  0  0
  -13.5960    8.6670   -0.0000 C   0  0  0  0  0  0  0  0  0  0  0  0
  -13.6078   11.6622   -0.0000 C   0  0  0  0  0  0  0  0  0  0  0  0
  -14.9049    9.4335   -0.0000 C   0  0  0  0  0  0  0  0  0  0  0  0
  -14.9167   10.9311   -0.0000 C   0  0  0  0  0  0  0  0  0  0  0  0
  -16.2138   11.6975   -0.0000 N   0  0  0  0  0  0  0  0  0  0  0  0
  -16.2138   13.2069   -0.0000 C   0  0  0  0  0  0  0  0  0  0  0  0
  -17.5109   10.9782   -0.0000 C   0  0  0  0  0  0  0  0  0  0  0  0
  -17.5109   13.9734   -0.0000 C   0  0  0  0  0  0  0  0  0  0  0  0
  -18.8080   11.7447   -0.0000 C   0  0  0  0  0  0  0  0  0  0  0  0
  -18.8198   13.2541   -0.0000 N   0  0  0  0  0  0  0  0  0  0  0  0
  -20.1169   14.0205   -0.0000 C   0  0  0  0  0  0  0  0  0  0  0  0
  -21.4258   13.3012   -0.0000 O   0  0  0  0  0  0  0  0  0  0  0  0
  -20.1169   15.5181   -0.0000 N   0  0  0  0  0  0  0  0  0  0  0  0
  -18.8198   16.2610   -0.0000 C   0  0  0  0  0  0  0  0  0  0  0  0
  -21.4140   16.2846   -0.0000 C   0  0  0  0  0  0  0  0  0  0  0  0
  -18.8198   17.7586   -0.0000 C   0  0  0  0  0  0  0  0  0  0  0  0
  -21.4022   17.7939   -0.0000 C   0  0  0  0  0  0  0  0  0  0  0  0
  -20.1169   18.5368   -0.0000 N   0  0  0  0  0  0  0  0  0  0  0  0
  -20.1169   20.0344   -0.0000 C   0  0  0  0  0  0  0  0  0  0  0  0
  1  2  1  0  0  0  0
  2  3  2  0  0  0  0
  2  4  1  0  0  0  0
  3  5  1  0  0  0  0
  4  6  2  0  0  0  0
  5  7  2  0  0  0  0
  5  8  1  0  0  0  0
  8  9  1  1  0  0  0
  8 10  1  0  0  0  0
 10 11  1  0  0  0  0
 11 12  1  0  0  0  0
 12 13  2  0  0  0  0
 12 14  1  0  0  0  0
 13 15  1  0  0  0  0
 13 16  1  0  0  0  0
 14 17  2  0  0  0  0
 15 18  2  0  0  0  0
 15 19  1  0  0  0  0
 16 20  2  0  0  0  0
 16 21  1  0  0  0  0
 20 22  1  0  0  0  0
 21 23  1  0  0  0  0
 22 24  1  0  0  0  0
 23 25  1  0  0  0  0
 24 26  2  0  0  0  0
 24 27  1  0  0  0  0
 25 28  2  0  0  0  0
 28 29  1  0  0  0  0
 29 30  1  0  0  0  0
 29 31  1  0  0  0  0
 30 32  1  0  0  0  0
 31 33  1  0  0  0  0
 32 34  1  0  0  0  0
 34 35  1  0  0  0  0
 35 36  1  0  0  0  0
 35 37  1  0  0  0  0
 36 38  1  0  0  0  0
 37 39  1  0  0  0  0
 38 40  1  0  0  0  0
 40 41  1  0  0  0  0
 41 42  2  0  0  0  0
 41 43  1  0  0  0  0
 43 44  1  0  0  0  0
 43 45  1  0  0  0  0
 44 46  1  0  0  0  0
 45 47  1  0  0  0  0
 46 48  1  0  0  0  0
 48 49  1  0  0  0  0
  6  7  1  0  0  0  0
 17 19  1  0  0  0  0
 22 23  2  0  0  0  0
 26 28  1  0  0  0  0
 33 34  1  0  0  0  0
 39 40  1  0  0  0  0
 47 48  1  0  0  0  0
M  END
>  <MolRegNo>
468326

>  <m>
=

>  <Value>
40

>  <Unit>
nM

>  <Type>
IC50

>  <pValue>
7.4

>  <Ligand Efficiency>
0

>  <Binding Efficiency>
0

>  <Surface Efficiency>
0

>  <Assay Index>
336557

>  <Assay Category>


>  <Assay Organism>


>  <Target ID>
17045

>  <Target Name>
Cytochrome P450 3A4

>  <Target Organism>
Homo sapiens

>  <Target Description>
Target is a single protein chain

>  <Sequence Accession>
P08684

>  <Reference>
Bioorg Med Chem Lett 18 (14), 4075-4080 (2008)

>  <Pubmed ID>
18572407

>  <DOI>
10.1016/j.bmcl.2008.05.104

$$$$
468325
Actelion Java MolfileCreator 1.0

 48 54  0  0  0  0  0  0  0  0999 V2000
    0.0000   -0.0000   -0.0000 Cl  0  0  0  0  0  0  0  0  0  0  0  0
   -1.4973    0.0118   -0.0000 C   0  0  0  0  0  0  0  0  0  0  0  0
   -2.2518    1.3086   -0.0000 C   0  0  0  0  0  0  0  0  0  0  0  0
   -2.2518   -1.2733   -0.0000 C   0  0  0  0  0  0  0  0  0  0  0  0
   -3.7490    1.3204   -0.0000 C   0  0  0  0  0  0  0  0  0  0  0  0
   -3.7490   -1.2615   -0.0000 C   0  0  0  0  0  0  0  0  0  0  0  0
   -4.5153    0.0472   -0.0000 C   0  0  0  0  0  0  0  0  0  0  0  0
   -4.5036    2.6172   -0.0000 C   0  0  0  0  0  0  0  0  0  0  0  0
   -6.0008    2.6290   -0.0000 O   0  0  0  0  0  0  0  0  0  0  0  0
   -3.7726    3.9141   -0.0000 C   0  0  0  0  0  0  0  0  0  0  0  0
   -4.5271    5.2109   -0.0000 N   0  0  0  0  0  0  0  0  0  0  0  0
   -3.7962    6.5078   -0.0000 C   0  0  0  0  0  0  0  0  0  0  0  0
   -4.5507    7.8164   -0.0000 C   0  0  0  0  0  0  0  0  0  0  0  0
   -2.3225    6.5195   -0.0000 C   0  0  0  0  0  0  0  0  0  0  0  0
   -3.8198    9.1132   -0.0000 C   0  0  0  0  0  0  0  0  0  0  0  0
   -6.0480    7.8282   -0.0000 C   0  0  0  0  0  0  0  0  0  0  0  0
   -1.5916    7.8282   -0.0000 C   0  0  0  0  0  0  0  0  0  0  0  0
   -4.5861   10.4100   -0.0000 O   0  0  0  0  0  0  0  0  0  0  0  0
   -2.3461    9.1368   -0.0000 N   0  0  0  0  0  0  0  0  0  0  0  0
   -6.9440    6.6256   -0.0000 N   0  0  0  0  0  0  0  0  0  0  0  0
   -6.9440    9.0543   -0.0000 N   0  0  0  0  0  0  0  0  0  0  0  0
   -8.3823    7.0972   -0.0000 C   0  0  0  0  0  0  0  0  0  0  0  0
   -8.3823    8.6063   -0.0000 C   0  0  0  0  0  0  0  0  0  0  0  0
   -9.6791    6.3663   -0.0000 C   0  0  0  0  0  0  0  0  0  0  0  0
   -9.6909    9.3608   -0.0000 C   0  0  0  0  0  0  0  0  0  0  0  0
  -10.9877    7.1208   -0.0000 C   0  0  0  0  0  0  0  0  0  0  0  0
   -9.6909    4.8926   -0.0000 C   0  0  0  0  0  0  0  0  0  0  0  0
  -10.9877    8.6298   -0.0000 C   0  0  0  0  0  0  0  0  0  0  0  0
  -12.2964    9.3962   -0.0000 N   0  0  0  0  0  0  0  0  0  0  0  0
  -12.3081   10.9052   -0.0000 C   0  0  0  0  0  0  0  0  0  0  0  0
  -13.5932    8.6652   -0.0000 C   0  0  0  0  0  0  0  0  0  0  0  0
  -13.6050   11.6597   -0.0000 C   0  0  0  0  0  0  0  0  0  0  0  0
  -14.9018    9.4315   -0.0000 C   0  0  0  0  0  0  0  0  0  0  0  0
  -14.9136   10.9288   -0.0000 C   0  0  0  0  0  0  0  0  0  0  0  0
  -16.2104   11.6951   -0.0000 N   0  0  0  0  0  0  0  0  0  0  0  0
  -16.2104   13.2041   -0.0000 C   0  0  0  0  0  0  0  0  0  0  0  0
  -17.5073   10.9759   -0.0000 C   0  0  0  0  0  0  0  0  0  0  0  0
  -17.5073   13.9705   -0.0000 C   0  0  0  0  0  0  0  0  0  0  0  0
  -18.8041   11.7423   -0.0000 C   0  0  0  0  0  0  0  0  0  0  0  0
  -18.8159   13.2513   -0.0000 N   0  0  0  0  0  0  0  0  0  0  0  0
  -20.1127   14.0176   -0.0000 C   0  0  0  0  0  0  0  0  0  0  0  0
  -21.4214   13.2985   -0.0000 O   0  0  0  0  0  0  0  0  0  0  0  0
  -20.1127   15.5149   -0.0000 N   0  0  0  0  0  0  0  0  0  0  0  0
  -18.8159   16.2576   -0.0000 C   0  0  0  0  0  0  0  0  0  0  0  0
  -21.4096   16.2812   -0.0000 C   0  0  0  0  0  0  0  0  0  0  0  0
  -18.8159   17.7549   -0.0000 C   0  0  0  0  0  0  0  0  0  0  0  0
  -21.4096   17.7902   -0.0000 C   0  0  0  0  0  0  0  0  0  0  0  0
  -20.1127   18.5330   -0.0000 O   0  0  0  0  0  0  0  0  0  0  0  0
  1  2  1  0  0  0  0
  2  3  2  0  0  0  0
  2  4  1  0  0  0  0
  3  5  1  0  0  0  0
  4  6  2  0  0  0  0
  5  7  2  0  0  0  0
  5  8  1  0  0  0  0
  8  9  1  1  0  0  0
  8 10  1  0  0  0  0
 10 11  1  0  0  0  0
 11 12  1  0  0  0  0
 12 13  2  0  0  0  0
 12 14  1  0  0  0  0
 13 15  1  0  0  0  0
 13 16  1  0  0  0  0
 14 17  2  0  0  0  0
 15 18  2  0  0  0  0
 15 19  1  0  0  0  0
 16 20  2  0  0  0  0
 16 21  1  0  0  0  0
 20 22  1  0  0  0  0
 21 23  1  0  0  0  0
 22 24  1  0  0  0  0
 23 25  1  0  0  0  0
 24 26  2  0  0  0  0
 24 27  1  0  0  0  0
 25 28  2  0  0  0  0
 28 29  1  0  0  0  0
 29 30  1  0  0  0  0
 29 31  1  0  0  0  0
 30 32  1  0  0  0  0
 31 33  1  0  0  0  0
 32 34  1  0  0  0  0
 34 35  1  0  0  0  0
 35 36  1  0  0  0  0
 35 37  1  0  0  0  0
 36 38  1  0  0  0  0
 37 39  1  0  0  0  0
 38 40  1  0  0  0  0
 40 41  1  0  0  0  0
 41 42  2  0  0  0  0
 41 43  1  0  0  0  0
 43 44  1  0  0  0  0
 43 45  1  0  0  0  0
 44 46  1  0  0  0  0
 45 47  1  0  0  0  0
 46 48  1  0  0  0  0
  6  7  1  0  0  0  0
 17 19  1  0  0  0  0
 22 23  2  0  0  0  0
 26 28  1  0  0  0  0
 33 34  1  0  0  0  0
 39 40  1  0  0  0  0
 47 48  1  0  0  0  0
M  END
>  <MolRegNo>
468325

>  <m>
=

>  <Value>
19

>  <Unit>
nM

>  <Type>
IC50

>  <pValue>
7.72

>  <Ligand Efficiency>
0

>  <Binding Efficiency>
0

>  <Surface Efficiency>
0

>  <Assay Index>
336557

>  <Assay Category>


>  <Assay Organism>


>  <Target ID>
17045

>  <Target Name>
Cytochrome P450 3A4

>  <Target Organism>
Homo sapiens

>  <Target Description>
Target is a single protein chain

>  <Sequence Accession>
P08684

>  <Reference>
Bioorg Med Chem Lett 18 (14), 4075-4080 (2008)

>  <Pubmed ID>
18572407

>  <DOI>
10.1016/j.bmcl.2008.05.104

$$$$
468324
Actelion Java MolfileCreator 1.0

 46 51  0  0  0  0  0  0  0  0999 V2000
    0.0000   -0.0000   -0.0000 Cl  0  0  0  0  0  0  0  0  0  0  0  0
   -1.4983    0.0118   -0.0000 C   0  0  0  0  0  0  0  0  0  0  0  0
   -2.2533    1.3095   -0.0000 C   0  0  0  0  0  0  0  0  0  0  0  0
   -2.2533   -1.2741   -0.0000 C   0  0  0  0  0  0  0  0  0  0  0  0
   -3.7516    1.3213   -0.0000 C   0  0  0  0  0  0  0  0  0  0  0  0
   -3.7634   -1.2623   -0.0000 C   0  0  0  0  0  0  0  0  0  0  0  0
   -4.5184    0.0472   -0.0000 C   0  0  0  0  0  0  0  0  0  0  0  0
   -4.5066    2.6190   -0.0000 C   0  0  0  0  0  0  0  0  0  0  0  0
   -6.0049    2.6308   -0.0000 O   0  0  0  0  0  0  0  0  0  0  0  0
   -3.7752    3.9168   -0.0000 C   0  0  0  0  0  0  0  0  0  0  0  0
   -4.5302    5.2145   -0.0000 N   0  0  0  0  0  0  0  0  0  0  0  0
   -3.7988    6.5122   -0.0000 C   0  0  0  0  0  0  0  0  0  0  0  0
   -4.5538    7.8217   -0.0000 C   0  0  0  0  0  0  0  0  0  0  0  0
   -2.3241    6.5240   -0.0000 C   0  0  0  0  0  0  0  0  0  0  0  0
   -3.8224    9.1195   -0.0000 C   0  0  0  0  0  0  0  0  0  0  0  0
   -6.0521    7.8335   -0.0000 C   0  0  0  0  0  0  0  0  0  0  0  0
   -1.5927    7.8335   -0.0000 C   0  0  0  0  0  0  0  0  0  0  0  0
   -4.5892   10.4172   -0.0000 O   0  0  0  0  0  0  0  0  0  0  0  0
   -2.3477    9.1431   -0.0000 N   0  0  0  0  0  0  0  0  0  0  0  0
   -6.9487    6.6302   -0.0000 N   0  0  0  0  0  0  0  0  0  0  0  0
   -6.9487    9.0605   -0.0000 N   0  0  0  0  0  0  0  0  0  0  0  0
   -8.3880    7.1021   -0.0000 C   0  0  0  0  0  0  0  0  0  0  0  0
   -8.3880    8.6122   -0.0000 C   0  0  0  0  0  0  0  0  0  0  0  0
   -9.6857    6.3707   -0.0000 C   0  0  0  0  0  0  0  0  0  0  0  0
   -9.6975    9.3672   -0.0000 C   0  0  0  0  0  0  0  0  0  0  0  0
  -10.9835    7.1257   -0.0000 C   0  0  0  0  0  0  0  0  0  0  0  0
   -9.6975    4.8960   -0.0000 C   0  0  0  0  0  0  0  0  0  0  0  0
  -10.9953    8.6358   -0.0000 C   0  0  0  0  0  0  0  0  0  0  0  0
  -12.3048    9.4026   -0.0000 N   0  0  0  0  0  0  0  0  0  0  0  0
  -12.3166   10.9127   -0.0000 C   0  0  0  0  0  0  0  0  0  0  0  0
  -13.6025    8.6712   -0.0000 C   0  0  0  0  0  0  0  0  0  0  0  0
  -13.6143   11.6677   -0.0000 C   0  0  0  0  0  0  0  0  0  0  0  0
  -14.9120    9.4380   -0.0000 C   0  0  0  0  0  0  0  0  0  0  0  0
  -14.9238   10.9363   -0.0000 C   0  0  0  0  0  0  0  0  0  0  0  0
  -16.2216   11.7031   -0.0000 N   0  0  0  0  0  0  0  0  0  0  0  0
  -16.2216   13.2132   -0.0000 C   0  0  0  0  0  0  0  0  0  0  0  0
  -17.5193   10.9835   -0.0000 C   0  0  0  0  0  0  0  0  0  0  0  0
  -17.5193   13.9800   -0.0000 C   0  0  0  0  0  0  0  0  0  0  0  0
  -18.8170   11.7503   -0.0000 C   0  0  0  0  0  0  0  0  0  0  0  0
  -18.8288   13.2604   -0.0000 N   0  0  0  0  0  0  0  0  0  0  0  0
  -20.1265   14.0272   -0.0000 C   0  0  0  0  0  0  0  0  0  0  0  0
  -21.4361   13.3076   -0.0000 O   0  0  0  0  0  0  0  0  0  0  0  0
  -20.1265   15.5255   -0.0000 O   0  0  0  0  0  0  0  0  0  0  0  0
  -18.8406   16.2688   -0.0000 C   0  0  0  0  0  0  0  0  0  0  0  0
  -18.8406   17.7670   -0.0000 C   0  0  0  0  0  0  0  0  0  0  0  0
  -17.5547   18.5103   -0.0000 O   0  0  0  0  0  0  0  0  0  0  0  0
  1  2  1  0  0  0  0
  2  3  2  0  0  0  0
  2  4  1  0  0  0  0
  3  5  1  0  0  0  0
  4  6  2  0  0  0  0
  5  7  2  0  0  0  0
  5  8  1  0  0  0  0
  8  9  1  1  0  0  0
  8 10  1  0  0  0  0
 10 11  1  0  0  0  0
 11 12  1  0  0  0  0
 12 13  2  0  0  0  0
 12 14  1  0  0  0  0
 13 15  1  0  0  0  0
 13 16  1  0  0  0  0
 14 17  2  0  0  0  0
 15 18  2  0  0  0  0
 15 19  1  0  0  0  0
 16 20  2  0  0  0  0
 16 21  1  0  0  0  0
 20 22  1  0  0  0  0
 21 23  1  0  0  0  0
 22 24  1  0  0  0  0
 23 25  1  0  0  0  0
 24 26  2  0  0  0  0
 24 27  1  0  0  0  0
 25 28  2  0  0  0  0
 28 29  1  0  0  0  0
 29 30  1  0  0  0  0
 29 31  1  0  0  0  0
 30 32  1  0  0  0  0
 31 33  1  0  0  0  0
 32 34  1  0  0  0  0
 34 35  1  0  0  0  0
 35 36  1  0  0  0  0
 35 37  1  0  0  0  0
 36 38  1  0  0  0  0
 37 39  1  0  0  0  0
 38 40  1  0  0  0  0
 40 41  1  0  0  0  0
 41 42  2  0  0  0  0
 41 43  1  0  0  0  0
 43 44  1  0  0  0  0
 44 45  1  0  0  0  0
 45 46  1  0  0  0  0
  6  7  1  0  0  0  0
 17 19  1  0  0  0  0
 22 23  2  0  0  0  0
 26 28  1  0  0  0  0
 33 34  1  0  0  0  0
 39 40  1  0  0  0  0
M  END
>  <MolRegNo>
468324

>  <m>
=

>  <Value>
1.8

>  <Unit>
nM

>  <Type>
IC50

>  <pValue>
8.74

>  <Ligand Efficiency>
0

>  <Binding Efficiency>
0

>  <Surface Efficiency>
0

>  <Assay Index>
336557

>  <Assay Category>


>  <Assay Organism>


>  <Target ID>
17045

>  <Target Name>
Cytochrome P450 3A4

>  <Target Organism>
Homo sapiens

>  <Target Description>
Target is a single protein chain

>  <Sequence Accession>
P08684

>  <Reference>
Bioorg Med Chem Lett 18 (14), 4075-4080 (2008)

>  <Pubmed ID>
18572407

>  <DOI>
10.1016/j.bmcl.2008.05.104

$$$$
468323
Actelion Java MolfileCreator 1.0

 47 52  0  0  0  0  0  0  0  0999 V2000
    0.0000   -0.0000   -0.0000 Cl  0  0  0  0  0  0  0  0  0  0  0  0
   -1.4982    0.0118   -0.0000 C   0  0  0  0  0  0  0  0  0  0  0  0
   -2.2532    1.3095   -0.0000 C   0  0  0  0  0  0  0  0  0  0  0  0
   -2.2532   -1.2741   -0.0000 C   0  0  0  0  0  0  0  0  0  0  0  0
   -3.7515    1.3213   -0.0000 C   0  0  0  0  0  0  0  0  0  0  0  0
   -3.7515   -1.2623   -0.0000 C   0  0  0  0  0  0  0  0  0  0  0  0
   -4.5183    0.0472   -0.0000 C   0  0  0  0  0  0  0  0  0  0  0  0
   -4.5065    2.6190   -0.0000 C   0  0  0  0  0  0  0  0  0  0  0  0
   -6.0047    2.6308   -0.0000 O   0  0  0  0  0  0  0  0  0  0  0  0
   -3.7751    3.9166   -0.0000 C   0  0  0  0  0  0  0  0  0  0  0  0
   -4.5301    5.2143   -0.0000 N   0  0  0  0  0  0  0  0  0  0  0  0
   -3.7987    6.5120   -0.0000 C   0  0  0  0  0  0  0  0  0  0  0  0
   -4.5537    7.8215   -0.0000 C   0  0  0  0  0  0  0  0  0  0  0  0
   -2.3240    6.5238   -0.0000 C   0  0  0  0  0  0  0  0  0  0  0  0
   -3.8223    9.1192   -0.0000 C   0  0  0  0  0  0  0  0  0  0  0  0
   -6.0519    7.8333   -0.0000 C   0  0  0  0  0  0  0  0  0  0  0  0
   -1.5926    7.8333   -0.0000 C   0  0  0  0  0  0  0  0  0  0  0  0
   -4.5891   10.4168   -0.0000 O   0  0  0  0  0  0  0  0  0  0  0  0
   -2.3476    9.1428   -0.0000 N   0  0  0  0  0  0  0  0  0  0  0  0
   -6.9485    6.6300   -0.0000 N   0  0  0  0  0  0  0  0  0  0  0  0
   -6.9485    9.0602   -0.0000 N   0  0  0  0  0  0  0  0  0  0  0  0
   -8.3877    7.1019   -0.0000 C   0  0  0  0  0  0  0  0  0  0  0  0
   -8.3877    8.6119   -0.0000 C   0  0  0  0  0  0  0  0  0  0  0  0
   -9.6854    6.3704   -0.0000 C   0  0  0  0  0  0  0  0  0  0  0  0
   -9.6972    9.3669   -0.0000 C   0  0  0  0  0  0  0  0  0  0  0  0
  -10.9949    7.1255   -0.0000 C   0  0  0  0  0  0  0  0  0  0  0  0
   -9.6972    4.8958   -0.0000 C   0  0  0  0  0  0  0  0  0  0  0  0
  -10.9949    8.6355   -0.0000 C   0  0  0  0  0  0  0  0  0  0  0  0
  -12.3044    9.4023   -0.0000 N   0  0  0  0  0  0  0  0  0  0  0  0
  -12.3162   10.9123   -0.0000 C   0  0  0  0  0  0  0  0  0  0  0  0
  -13.6021    8.6709   -0.0000 C   0  0  0  0  0  0  0  0  0  0  0  0
  -13.6139   11.6673   -0.0000 C   0  0  0  0  0  0  0  0  0  0  0  0
  -14.9115    9.4377   -0.0000 C   0  0  0  0  0  0  0  0  0  0  0  0
  -14.9233   10.9359   -0.0000 C   0  0  0  0  0  0  0  0  0  0  0  0
  -16.2210   11.7027   -0.0000 N   0  0  0  0  0  0  0  0  0  0  0  0
  -16.2210   13.2128   -0.0000 C   0  0  0  0  0  0  0  0  0  0  0  0
  -17.5187   10.9831   -0.0000 C   0  0  0  0  0  0  0  0  0  0  0  0
  -17.5187   13.9796   -0.0000 C   0  0  0  0  0  0  0  0  0  0  0  0
  -18.8164   11.7499   -0.0000 C   0  0  0  0  0  0  0  0  0  0  0  0
  -18.8282   13.2600   -0.0000 N   0  0  0  0  0  0  0  0  0  0  0  0
  -20.1259   14.0268   -0.0000 C   0  0  0  0  0  0  0  0  0  0  0  0
  -21.4354   13.3071   -0.0000 O   0  0  0  0  0  0  0  0  0  0  0  0
  -20.1259   15.5250   -0.0000 O   0  0  0  0  0  0  0  0  0  0  0  0
  -18.8400   16.2682   -0.0000 C   0  0  0  0  0  0  0  0  0  0  0  0
  -18.8400   17.7664   -0.0000 C   0  0  0  0  0  0  0  0  0  0  0  0
  -17.5541   18.5097   -0.0000 O   0  0  0  0  0  0  0  0  0  0  0  0
  -17.5541   20.0079   -0.0000 C   0  0  0  0  0  0  0  0  0  0  0  0
  1  2  1  0  0  0  0
  2  3  2  0  0  0  0
  2  4  1  0  0  0  0
  3  5  1  0  0  0  0
  4  6  2  0  0  0  0
  5  7  2  0  0  0  0
  5  8  1  0  0  0  0
  8  9  1  1  0  0  0
  8 10  1  0  0  0  0
 10 11  1  0  0  0  0
 11 12  1  0  0  0  0
 12 13  2  0  0  0  0
 12 14  1  0  0  0  0
 13 15  1  0  0  0  0
 13 16  1  0  0  0  0
 14 17  2  0  0  0  0
 15 18  2  0  0  0  0
 15 19  1  0  0  0  0
 16 20  2  0  0  0  0
 16 21  1  0  0  0  0
 20 22  1  0  0  0  0
 21 23  1  0  0  0  0
 22 24  1  0  0  0  0
 23 25  1  0  0  0  0
 24 26  2  0  0  0  0
 24 27  1  0  0  0  0
 25 28  2  0  0  0  0
 28 29  1  0  0  0  0
 29 30  1  0  0  0  0
 29 31  1  0  0  0  0
 30 32  1  0  0  0  0
 31 33  1  0  0  0  0
 32 34  1  0  0  0  0
 34 35  1  0  0  0  0
 35 36  1  0  0  0  0
 35 37  1  0  0  0  0
 36 38  1  0  0  0  0
 37 39  1  0  0  0  0
 38 40  1  0  0  0  0
 40 41  1  0  0  0  0
 41 42  2  0  0  0  0
 41 43  1  0  0  0  0
 43 44  1  0  0  0  0
 44 45  1  0  0  0  0
 45 46  1  0  0  0  0
 46 47  1  0  0  0  0
  6  7  1  0  0  0  0
 17 19  1  0  0  0  0
 22 23  2  0  0  0  0
 26 28  1  0  0  0  0
 33 34  1  0  0  0  0
 39 40  1  0  0  0  0
M  END
>  <MolRegNo>
468323

>  <m>
=

>  <Value>
2.4

>  <Unit>
nM

>  <Type>
IC50

>  <pValue>
8.62

>  <Ligand Efficiency>
0

>  <Binding Efficiency>
0

>  <Surface Efficiency>
0

>  <Assay Index>
336557

>  <Assay Category>


>  <Assay Organism>


>  <Target ID>
17045

>  <Target Name>
Cytochrome P450 3A4

>  <Target Organism>
Homo sapiens

>  <Target Description>
Target is a single protein chain

>  <Sequence Accession>
P08684

>  <Reference>
Bioorg Med Chem Lett 18 (14), 4075-4080 (2008)

>  <Pubmed ID>
18572407

>  <DOI>
10.1016/j.bmcl.2008.05.104

$$$$
468322
Actelion Java MolfileCreator 1.0

 44 49  0  0  0  0  0  0  0  0999 V2000
    0.0000   -0.0000   -0.0000 Cl  0  0  0  0  0  0  0  0  0  0  0  0
   -1.5004   -0.0000   -0.0000 C   0  0  0  0  0  0  0  0  0  0  0  0
   -2.2682    1.2877   -0.0000 C   0  0  0  0  0  0  0  0  0  0  0  0
   -2.2564   -1.2877   -0.0000 C   0  0  0  0  0  0  0  0  0  0  0  0
   -3.7568    1.2877   -0.0000 C   0  0  0  0  0  0  0  0  0  0  0  0
   -3.7568   -1.2759   -0.0000 C   0  0  0  0  0  0  0  0  0  0  0  0
   -4.5129    0.0118   -0.0000 C   0  0  0  0  0  0  0  0  0  0  0  0
   -4.5129    2.5872   -0.0000 C   0  0  0  0  0  0  0  0  0  0  0  0
   -6.0132    2.5282   -0.0000 O   0  0  0  0  0  0  0  0  0  0  0  0
   -3.7804    3.8867   -0.0000 C   0  0  0  0  0  0  0  0  0  0  0  0
   -4.5365    5.1863   -0.0000 N   0  0  0  0  0  0  0  0  0  0  0  0
   -3.8040    6.4858   -0.0000 C   0  0  0  0  0  0  0  0  0  0  0  0
   -4.5601    7.7853   -0.0000 C   0  0  0  0  0  0  0  0  0  0  0  0
   -2.3273    6.4976   -0.0000 C   0  0  0  0  0  0  0  0  0  0  0  0
   -3.8277    9.0848   -0.0000 C   0  0  0  0  0  0  0  0  0  0  0  0
   -6.0605    7.7971   -0.0000 C   0  0  0  0  0  0  0  0  0  0  0  0
   -1.5949    7.7971   -0.0000 C   0  0  0  0  0  0  0  0  0  0  0  0
   -4.5838   10.3843   -0.0000 O   0  0  0  0  0  0  0  0  0  0  0  0
   -2.3509    9.1084   -0.0000 N   0  0  0  0  0  0  0  0  0  0  0  0
   -6.9583    6.5921   -0.0000 N   0  0  0  0  0  0  0  0  0  0  0  0
   -6.9583    9.0257   -0.0000 N   0  0  0  0  0  0  0  0  0  0  0  0
   -8.3996    7.0646   -0.0000 C   0  0  0  0  0  0  0  0  0  0  0  0
   -8.3996    8.5768   -0.0000 C   0  0  0  0  0  0  0  0  0  0  0  0
   -9.6991    6.3322   -0.0000 C   0  0  0  0  0  0  0  0  0  0  0  0
   -9.6991    9.3329   -0.0000 C   0  0  0  0  0  0  0  0  0  0  0  0
  -10.9986    7.0883   -0.0000 C   0  0  0  0  0  0  0  0  0  0  0  0
   -9.7109    4.8555   -0.0000 C   0  0  0  0  0  0  0  0  0  0  0  0
  -10.9986    8.6004   -0.0000 C   0  0  0  0  0  0  0  0  0  0  0  0
  -12.2982    9.3565   -0.0000 N   0  0  0  0  0  0  0  0  0  0  0  0
  -12.3100   10.8687   -0.0000 C   0  0  0  0  0  0  0  0  0  0  0  0
  -13.6095    8.6241   -0.0000 C   0  0  0  0  0  0  0  0  0  0  0  0
  -13.6095   11.6248   -0.0000 C   0  0  0  0  0  0  0  0  0  0  0  0
  -14.9090    9.3920   -0.0000 C   0  0  0  0  0  0  0  0  0  0  0  0
  -14.9208   10.8923   -0.0000 C   0  0  0  0  0  0  0  0  0  0  0  0
  -16.2203   11.6484   -0.0000 N   0  0  0  0  0  0  0  0  0  0  0  0
  -16.2203   13.1606   -0.0000 C   0  0  0  0  0  0  0  0  0  0  0  0
  -17.5199   10.9278   -0.0000 C   0  0  0  0  0  0  0  0  0  0  0  0
  -17.5080   13.9166   -0.0000 C   0  0  0  0  0  0  0  0  0  0  0  0
  -18.8194   11.6957   -0.0000 C   0  0  0  0  0  0  0  0  0  0  0  0
  -18.8194   13.1960   -0.0000 N   0  0  0  0  0  0  0  0  0  0  0  0
  -20.1189   13.9639   -0.0000 C   0  0  0  0  0  0  0  0  0  0  0  0
  -20.1189   15.4643   -0.0000 O   0  0  0  0  0  0  0  0  0  0  0  0
  -21.4302   13.2433   -0.0000 O   0  0  0  0  0  0  0  0  0  0  0  0
  -22.7297   14.0112   -0.0000 C   0  0  0  0  0  0  0  0  0  0  0  0
  1  2  1  0  0  0  0
  2  3  2  0  0  0  0
  2  4  1  0  0  0  0
  3  5  1  0  0  0  0
  4  6  2  0  0  0  0
  5  7  2  0  0  0  0
  5  8  1  0  0  0  0
  8  9  1  1  0  0  0
  8 10  1  0  0  0  0
 10 11  1  0  0  0  0
 11 12  1  0  0  0  0
 12 13  2  0  0  0  0
 12 14  1  0  0  0  0
 13 15  1  0  0  0  0
 13 16  1  0  0  0  0
 14 17  2  0  0  0  0
 15 18  2  0  0  0  0
 15 19  1  0  0  0  0
 16 20  2  0  0  0  0
 16 21  1  0  0  0  0
 20 22  1  0  0  0  0
 21 23  1  0  0  0  0
 22 24  1  0  0  0  0
 23 25  1  0  0  0  0
 24 26  2  0  0  0  0
 24 27  1  0  0  0  0
 25 28  2  0  0  0  0
 28 29  1  0  0  0  0
 29 30  1  0  0  0  0
 29 31  1  0  0  0  0
 30 32  1  0  0  0  0
 31 33  1  0  0  0  0
 32 34  1  0  0  0  0
 34 35  1  0  0  0  0
 35 36  1  0  0  0  0
 35 37  1  0  0  0  0
 36 38  1  0  0  0  0
 37 39  1  0  0  0  0
 38 40  1  0  0  0  0
 40 41  1  0  0  0  0
 41 42  2  0  0  0  0
 41 43  1  0  0  0  0
 43 44  1  0  0  0  0
  6  7  1  0  0  0  0
 17 19  1  0  0  0  0
 22 23  2  0  0  0  0
 26 28  1  0  0  0  0
 33 34  1  0  0  0  0
 39 40  1  0  0  0  0
M  END
>  <MolRegNo>
468322

>  <m>
=

>  <Value>
3.5

>  <Unit>
nM

>  <Type>
IC50

>  <pValue>
8.46

>  <Ligand Efficiency>
0

>  <Binding Efficiency>
0

>  <Surface Efficiency>
0

>  <Assay Index>
336557

>  <Assay Category>


>  <Assay Organism>


>  <Target ID>
17045

>  <Target Name>
Cytochrome P450 3A4

>  <Target Organism>
Homo sapiens

>  <Target Description>
Target is a single protein chain

>  <Sequence Accession>
P08684

>  <Reference>
Bioorg Med Chem Lett 18 (14), 4075-4080 (2008)

>  <Pubmed ID>
18572407

>  <DOI>
10.1016/j.bmcl.2008.05.104

$$$$
468321
Actelion Java MolfileCreator 1.0

 45 51  0  0  0  0  0  0  0  0999 V2000
    0.0000   -0.0000   -0.0000 Cl  0  0  0  0  0  0  0  0  0  0  0  0
   -1.4988    0.0118   -0.0000 C   0  0  0  0  0  0  0  0  0  0  0  0
   -2.2541    1.3100   -0.0000 C   0  0  0  0  0  0  0  0  0  0  0  0
   -2.2541   -1.2746   -0.0000 C   0  0  0  0  0  0  0  0  0  0  0  0
   -3.7530    1.3218   -0.0000 C   0  0  0  0  0  0  0  0  0  0  0  0
   -3.7530   -1.2628   -0.0000 C   0  0  0  0  0  0  0  0  0  0  0  0
   -4.5201    0.0472   -0.0000 C   0  0  0  0  0  0  0  0  0  0  0  0
   -4.5083    2.6200   -0.0000 C   0  0  0  0  0  0  0  0  0  0  0  0
   -6.0071    2.6318   -0.0000 O   0  0  0  0  0  0  0  0  0  0  0  0
   -3.7766    3.9182   -0.0000 C   0  0  0  0  0  0  0  0  0  0  0  0
   -4.5319    5.2164   -0.0000 N   0  0  0  0  0  0  0  0  0  0  0  0
   -3.8002    6.5146   -0.0000 C   0  0  0  0  0  0  0  0  0  0  0  0
   -4.5555    7.8246   -0.0000 C   0  0  0  0  0  0  0  0  0  0  0  0
   -2.3249    6.5264   -0.0000 C   0  0  0  0  0  0  0  0  0  0  0  0
   -3.8238    9.1228   -0.0000 C   0  0  0  0  0  0  0  0  0  0  0  0
   -6.0543    7.8364   -0.0000 C   0  0  0  0  0  0  0  0  0  0  0  0
   -1.5932    7.8364   -0.0000 C   0  0  0  0  0  0  0  0  0  0  0  0
   -4.5909   10.4209   -0.0000 O   0  0  0  0  0  0  0  0  0  0  0  0
   -2.3485    9.1464   -0.0000 N   0  0  0  0  0  0  0  0  0  0  0  0
   -6.9512    6.6326   -0.0000 N   0  0  0  0  0  0  0  0  0  0  0  0
   -6.9512    9.0637   -0.0000 N   0  0  0  0  0  0  0  0  0  0  0  0
   -8.3910    7.1047   -0.0000 C   0  0  0  0  0  0  0  0  0  0  0  0
   -8.3910    8.6153   -0.0000 C   0  0  0  0  0  0  0  0  0  0  0  0
   -9.6892    6.3729   -0.0000 C   0  0  0  0  0  0  0  0  0  0  0  0
   -9.7010    9.3706   -0.0000 C   0  0  0  0  0  0  0  0  0  0  0  0
  -10.9874    7.1283   -0.0000 C   0  0  0  0  0  0  0  0  0  0  0  0
   -9.7010    4.8977   -0.0000 C   0  0  0  0  0  0  0  0  0  0  0  0
  -10.9992    8.6389   -0.0000 C   0  0  0  0  0  0  0  0  0  0  0  0
  -12.3092    9.4060   -0.0000 N   0  0  0  0  0  0  0  0  0  0  0  0
  -12.3210   10.9048   -0.0000 C   0  0  0  0  0  0  0  0  0  0  0  0
  -13.6074    8.6743   -0.0000 C   0  0  0  0  0  0  0  0  0  0  0  0
  -13.6192   11.6601   -0.0000 C   0  0  0  0  0  0  0  0  0  0  0  0
  -14.9174    9.4414   -0.0000 C   0  0  0  0  0  0  0  0  0  0  0  0
  -14.9292   10.9284   -0.0000 C   0  0  0  0  0  0  0  0  0  0  0  0
  -16.2274   11.6955   -0.0000 N   0  0  0  0  0  0  0  0  0  0  0  0
  -16.2274   13.2062   -0.0000 C   0  0  0  0  0  0  0  0  0  0  0  0
  -17.5256   10.9756   -0.0000 C   0  0  0  0  0  0  0  0  0  0  0  0
  -17.5256   13.9733   -0.0000 C   0  0  0  0  0  0  0  0  0  0  0  0
  -18.8238   11.7427   -0.0000 C   0  0  0  0  0  0  0  0  0  0  0  0
  -18.8356   13.2534   -0.0000 N   0  0  0  0  0  0  0  0  0  0  0  0
  -20.1338   14.0205   -0.0000 C   0  0  0  0  0  0  0  0  0  0  0  0
  -20.1456   15.5193   -0.0000 O   0  0  0  0  0  0  0  0  0  0  0  0
  -21.4320   13.2888   -0.0000 C   0  0  0  0  0  0  0  0  0  0  0  0
  -22.9308   13.3124   -0.0000 C   0  0  0  0  0  0  0  0  0  0  0  0
  -22.1991   12.0142   -0.0000 C   0  0  0  0  0  0  0  0  0  0  0  0
  1  2  1  0  0  0  0
  2  3  2  0  0  0  0
  2  4  1  0  0  0  0
  3  5  1  0  0  0  0
  4  6  2  0  0  0  0
  5  7  2  0  0  0  0
  5  8  1  0  0  0  0
  8  9  1  1  0  0  0
  8 10  1  0  0  0  0
 10 11  1  0  0  0  0
 11 12  1  0  0  0  0
 12 13  2  0  0  0  0
 12 14  1  0  0  0  0
 13 15  1  0  0  0  0
 13 16  1  0  0  0  0
 14 17  2  0  0  0  0
 15 18  2  0  0  0  0
 15 19  1  0  0  0  0
 16 20  2  0  0  0  0
 16 21  1  0  0  0  0
 20 22  1  0  0  0  0
 21 23  1  0  0  0  0
 22 24  1  0  0  0  0
 23 25  1  0  0  0  0
 24 26  2  0  0  0  0
 24 27  1  0  0  0  0
 25 28  2  0  0  0  0
 28 29  1  0  0  0  0
 29 30  1  0  0  0  0
 29 31  1  0  0  0  0
 30 32  1  0  0  0  0
 31 33  1  0  0  0  0
 32 34  1  0  0  0  0
 34 35  1  0  0  0  0
 35 36  1  0  0  0  0
 35 37  1  0  0  0  0
 36 38  1  0  0  0  0
 37 39  1  0  0  0  0
 38 40  1  0  0  0  0
 40 41  1  0  0  0  0
 41 42  2  0  0  0  0
 41 43  1  0  0  0  0
 43 44  1  0  0  0  0
 43 45  1  0  0  0  0
  6  7  1  0  0  0  0
 17 19  1  0  0  0  0
 22 23  2  0  0  0  0
 26 28  1  0  0  0  0
 33 34  1  0  0  0  0
 39 40  1  0  0  0  0
 44 45  1  0  0  0  0
M  END
>  <MolRegNo>
468321

>  <m>
=

>  <Value>
1.7

>  <Unit>
nM

>  <Type>
IC50

>  <pValue>
8.77

>  <Ligand Efficiency>
0

>  <Binding Efficiency>
0

>  <Surface Efficiency>
0

>  <Assay Index>
336557

>  <Assay Category>


>  <Assay Organism>


>  <Target ID>
17045

>  <Target Name>
Cytochrome P450 3A4

>  <Target Organism>
Homo sapiens

>  <Target Description>
Target is a single protein chain

>  <Sequence Accession>
P08684

>  <Reference>
Bioorg Med Chem Lett 18 (14), 4075-4080 (2008)

>  <Pubmed ID>
18572407

>  <DOI>
10.1016/j.bmcl.2008.05.104

$$$$
468320
Actelion Java MolfileCreator 1.0

 48 53  0  0  0  0  0  0  0  0999 V2000
    0.0000   -0.0000   -0.0000 Cl  0  0  0  0  0  0  0  0  0  0  0  0
   -1.4979    0.0118   -0.0000 C   0  0  0  0  0  0  0  0  0  0  0  0
   -2.2527    1.3091   -0.0000 C   0  0  0  0  0  0  0  0  0  0  0  0
   -2.2527   -1.2738   -0.0000 C   0  0  0  0  0  0  0  0  0  0  0  0
   -3.7505    1.3209   -0.0000 C   0  0  0  0  0  0  0  0  0  0  0  0
   -3.7505   -1.2620   -0.0000 C   0  0  0  0  0  0  0  0  0  0  0  0
   -4.5172    0.0472   -0.0000 C   0  0  0  0  0  0  0  0  0  0  0  0
   -4.5054    2.6183   -0.0000 C   0  0  0  0  0  0  0  0  0  0  0  0
   -6.0032    2.6301   -0.0000 O   0  0  0  0  0  0  0  0  0  0  0  0
   -3.7741    3.9157   -0.0000 C   0  0  0  0  0  0  0  0  0  0  0  0
   -4.5289    5.2130   -0.0000 N   0  0  0  0  0  0  0  0  0  0  0  0
   -3.7977    6.5104   -0.0000 C   0  0  0  0  0  0  0  0  0  0  0  0
   -4.5525    7.8195   -0.0000 C   0  0  0  0  0  0  0  0  0  0  0  0
   -2.3234    6.5222   -0.0000 C   0  0  0  0  0  0  0  0  0  0  0  0
   -3.8213    9.1169   -0.0000 C   0  0  0  0  0  0  0  0  0  0  0  0
   -6.0504    7.8313   -0.0000 C   0  0  0  0  0  0  0  0  0  0  0  0
   -1.5922    7.8313   -0.0000 C   0  0  0  0  0  0  0  0  0  0  0  0
   -4.5879   10.4142   -0.0000 O   0  0  0  0  0  0  0  0  0  0  0  0
   -2.3470    9.1405   -0.0000 N   0  0  0  0  0  0  0  0  0  0  0  0
   -6.9467    6.6283   -0.0000 N   0  0  0  0  0  0  0  0  0  0  0  0
   -6.9467    9.0579   -0.0000 N   0  0  0  0  0  0  0  0  0  0  0  0
   -8.3856    7.1001   -0.0000 C   0  0  0  0  0  0  0  0  0  0  0  0
   -8.3856    8.6097   -0.0000 C   0  0  0  0  0  0  0  0  0  0  0  0
   -9.6830    6.3688   -0.0000 C   0  0  0  0  0  0  0  0  0  0  0  0
   -9.6948    9.3645   -0.0000 C   0  0  0  0  0  0  0  0  0  0  0  0
  -10.9803    7.1237   -0.0000 C   0  0  0  0  0  0  0  0  0  0  0  0
   -9.6948    4.8946   -0.0000 C   0  0  0  0  0  0  0  0  0  0  0  0
  -10.9921    8.6333   -0.0000 C   0  0  0  0  0  0  0  0  0  0  0  0
  -12.3013    9.3999   -0.0000 N   0  0  0  0  0  0  0  0  0  0  0  0
  -12.3131   10.8978   -0.0000 C   0  0  0  0  0  0  0  0  0  0  0  0
  -13.5986    8.6687   -0.0000 C   0  0  0  0  0  0  0  0  0  0  0  0
  -13.6104   11.6526   -0.0000 C   0  0  0  0  0  0  0  0  0  0  0  0
  -14.9078    9.4353   -0.0000 C   0  0  0  0  0  0  0  0  0  0  0  0
  -14.9196   10.9214   -0.0000 C   0  0  0  0  0  0  0  0  0  0  0  0
  -16.2169   11.6880   -0.0000 N   0  0  0  0  0  0  0  0  0  0  0  0
  -16.2169   13.1976   -0.0000 C   0  0  0  0  0  0  0  0  0  0  0  0
  -17.5143   10.9685   -0.0000 C   0  0  0  0  0  0  0  0  0  0  0  0
  -17.5143   13.9643   -0.0000 C   0  0  0  0  0  0  0  0  0  0  0  0
  -18.8117   11.7352   -0.0000 C   0  0  0  0  0  0  0  0  0  0  0  0
  -18.8234   13.2448   -0.0000 N   0  0  0  0  0  0  0  0  0  0  0  0
  -20.1208   14.0114   -0.0000 C   0  0  0  0  0  0  0  0  0  0  0  0
  -20.1326   15.5093   -0.0000 O   0  0  0  0  0  0  0  0  0  0  0  0
  -21.4417   13.2920   -0.0000 C   0  0  0  0  0  0  0  0  0  0  0  0
  -22.7391   14.0586   -0.0000 O   0  0  0  0  0  0  0  0  0  0  0  0
  -24.0482   13.3392   -0.0000 C   0  0  0  0  0  0  0  0  0  0  0  0
  -25.3456   14.1058   -0.0000 C   0  0  0  0  0  0  0  0  0  0  0  0
  -26.6548   13.3863   -0.0000 O   0  0  0  0  0  0  0  0  0  0  0  0
  -27.9521   14.1530   -0.0000 C   0  0  0  0  0  0  0  0  0  0  0  0
  1  2  1  0  0  0  0
  2  3  2  0  0  0  0
  2  4  1  0  0  0  0
  3  5  1  0  0  0  0
  4  6  2  0  0  0  0
  5  7  2  0  0  0  0
  5  8  1  0  0  0  0
  8  9  1  1  0  0  0
  8 10  1  0  0  0  0
 10 11  1  0  0  0  0
 11 12  1  0  0  0  0
 12 13  2  0  0  0  0
 12 14  1  0  0  0  0
 13 15  1  0  0  0  0
 13 16  1  0  0  0  0
 14 17  2  0  0  0  0
 15 18  2  0  0  0  0
 15 19  1  0  0  0  0
 16 20  2  0  0  0  0
 16 21  1  0  0  0  0
 20 22  1  0  0  0  0
 21 23  1  0  0  0  0
 22 24  1  0  0  0  0
 23 25  1  0  0  0  0
 24 26  2  0  0  0  0
 24 27  1  0  0  0  0
 25 28  2  0  0  0  0
 28 29  1  0  0  0  0
 29 30  1  0  0  0  0
 29 31  1  0  0  0  0
 30 32  1  0  0  0  0
 31 33  1  0  0  0  0
 32 34  1  0  0  0  0
 34 35  1  0  0  0  0
 35 36  1  0  0  0  0
 35 37  1  0  0  0  0
 36 38  1  0  0  0  0
 37 39  1  0  0  0  0
 38 40  1  0  0  0  0
 40 41  1  0  0  0  0
 41 42  2  0  0  0  0
 41 43  1  0  0  0  0
 43 44  1  0  0  0  0
 44 45  1  0  0  0  0
 45 46  1  0  0  0  0
 46 47  1  0  0  0  0
 47 48  1  0  0  0  0
  6  7  1  0  0  0  0
 17 19  1  0  0  0  0
 22 23  2  0  0  0  0
 26 28  1  0  0  0  0
 33 34  1  0  0  0  0
 39 40  1  0  0  0  0
M  END
>  <MolRegNo>
468320

>  <m>
=

>  <Value>
3

>  <Unit>
nM

>  <Type>
IC50

>  <pValue>
8.52

>  <Ligand Efficiency>
0

>  <Binding Efficiency>
0

>  <Surface Efficiency>
0

>  <Assay Index>
336557

>  <Assay Category>


>  <Assay Organism>


>  <Target ID>
17045

>  <Target Name>
Cytochrome P450 3A4

>  <Target Organism>
Homo sapiens

>  <Target Description>
Target is a single protein chain

>  <Sequence Accession>
P08684

>  <Reference>
Bioorg Med Chem Lett 18 (14), 4075-4080 (2008)

>  <Pubmed ID>
18572407

>  <DOI>
10.1016/j.bmcl.2008.05.104

$$$$
468319
Actelion Java MolfileCreator 1.0

 45 50  0  0  0  0  0  0  0  0999 V2000
    0.0000   -0.0000   -0.0000 Cl  0  0  0  0  0  0  0  0  0  0  0  0
   -1.4973    0.0118   -0.0000 C   0  0  0  0  0  0  0  0  0  0  0  0
   -2.2519    1.3087   -0.0000 C   0  0  0  0  0  0  0  0  0  0  0  0
   -2.2519   -1.2733   -0.0000 C   0  0  0  0  0  0  0  0  0  0  0  0
   -3.7492    1.3205   -0.0000 C   0  0  0  0  0  0  0  0  0  0  0  0
   -3.7492   -1.2615   -0.0000 C   0  0  0  0  0  0  0  0  0  0  0  0
   -4.5156    0.0472   -0.0000 C   0  0  0  0  0  0  0  0  0  0  0  0
   -4.5038    2.6174   -0.0000 C   0  0  0  0  0  0  0  0  0  0  0  0
   -6.0011    2.6292   -0.0000 O   0  0  0  0  0  0  0  0  0  0  0  0
   -3.7728    3.9143   -0.0000 C   0  0  0  0  0  0  0  0  0  0  0  0
   -4.5274    5.2112   -0.0000 N   0  0  0  0  0  0  0  0  0  0  0  0
   -3.7964    6.5081   -0.0000 C   0  0  0  0  0  0  0  0  0  0  0  0
   -4.5510    7.8168   -0.0000 C   0  0  0  0  0  0  0  0  0  0  0  0
   -2.3226    6.5199   -0.0000 C   0  0  0  0  0  0  0  0  0  0  0  0
   -3.8200    9.1137   -0.0000 C   0  0  0  0  0  0  0  0  0  0  0  0
   -6.0483    7.8286   -0.0000 C   0  0  0  0  0  0  0  0  0  0  0  0
   -1.5917    7.8286   -0.0000 C   0  0  0  0  0  0  0  0  0  0  0  0
   -4.5863   10.4106   -0.0000 O   0  0  0  0  0  0  0  0  0  0  0  0
   -2.3462    9.1373   -0.0000 N   0  0  0  0  0  0  0  0  0  0  0  0
   -6.9443    6.6260   -0.0000 N   0  0  0  0  0  0  0  0  0  0  0  0
   -6.9443    9.0547   -0.0000 N   0  0  0  0  0  0  0  0  0  0  0  0
   -8.3827    7.0976   -0.0000 C   0  0  0  0  0  0  0  0  0  0  0  0
   -8.3827    8.6067   -0.0000 C   0  0  0  0  0  0  0  0  0  0  0  0
   -9.6796    6.3666   -0.0000 C   0  0  0  0  0  0  0  0  0  0  0  0
   -9.6914    9.3613   -0.0000 C   0  0  0  0  0  0  0  0  0  0  0  0
  -10.9883    7.1212   -0.0000 C   0  0  0  0  0  0  0  0  0  0  0  0
   -9.6914    4.8929   -0.0000 C   0  0  0  0  0  0  0  0  0  0  0  0
  -10.9883    8.6303   -0.0000 C   0  0  0  0  0  0  0  0  0  0  0  0
  -12.2970    9.3967   -0.0000 N   0  0  0  0  0  0  0  0  0  0  0  0
  -12.3088   10.9058   -0.0000 C   0  0  0  0  0  0  0  0  0  0  0  0
  -13.5939    8.6657   -0.0000 C   0  0  0  0  0  0  0  0  0  0  0  0
  -13.6057   11.6603   -0.0000 C   0  0  0  0  0  0  0  0  0  0  0  0
  -14.9026    9.4320   -0.0000 C   0  0  0  0  0  0  0  0  0  0  0  0
  -14.9144   10.9294   -0.0000 C   0  0  0  0  0  0  0  0  0  0  0  0
  -16.2113   11.6957   -0.0000 N   0  0  0  0  0  0  0  0  0  0  0  0
  -16.2113   13.2048   -0.0000 C   0  0  0  0  0  0  0  0  0  0  0  0
  -17.5082   10.9765   -0.0000 C   0  0  0  0  0  0  0  0  0  0  0  0
  -17.5082   13.9712   -0.0000 C   0  0  0  0  0  0  0  0  0  0  0  0
  -18.8051   11.7429   -0.0000 C   0  0  0  0  0  0  0  0  0  0  0  0
  -18.8169   13.2520   -0.0000 N   0  0  0  0  0  0  0  0  0  0  0  0
  -20.1138   14.0184   -0.0000 C   0  0  0  0  0  0  0  0  0  0  0  0
  -20.1256   15.5157   -0.0000 O   0  0  0  0  0  0  0  0  0  0  0  0
  -21.4343   13.2992   -0.0000 C   0  0  0  0  0  0  0  0  0  0  0  0
  -22.7312   14.0655   -0.0000 O   0  0  0  0  0  0  0  0  0  0  0  0
  -24.0399   13.3463   -0.0000 C   0  0  0  0  0  0  0  0  0  0  0  0
  1  2  1  0  0  0  0
  2  3  2  0  0  0  0
  2  4  1  0  0  0  0
  3  5  1  0  0  0  0
  4  6  2  0  0  0  0
  5  7  2  0  0  0  0
  5  8  1  0  0  0  0
  8  9  1  1  0  0  0
  8 10  1  0  0  0  0
 10 11  1  0  0  0  0
 11 12  1  0  0  0  0
 12 13  2  0  0  0  0
 12 14  1  0  0  0  0
 13 15  1  0  0  0  0
 13 16  1  0  0  0  0
 14 17  2  0  0  0  0
 15 18  2  0  0  0  0
 15 19  1  0  0  0  0
 16 20  2  0  0  0  0
 16 21  1  0  0  0  0
 20 22  1  0  0  0  0
 21 23  1  0  0  0  0
 22 24  1  0  0  0  0
 23 25  1  0  0  0  0
 24 26  2  0  0  0  0
 24 27  1  0  0  0  0
 25 28  2  0  0  0  0
 28 29  1  0  0  0  0
 29 30  1  0  0  0  0
 29 31  1  0  0  0  0
 30 32  1  0  0  0  0
 31 33  1  0  0  0  0
 32 34  1  0  0  0  0
 34 35  1  0  0  0  0
 35 36  1  0  0  0  0
 35 37  1  0  0  0  0
 36 38  1  0  0  0  0
 37 39  1  0  0  0  0
 38 40  1  0  0  0  0
 40 41  1  0  0  0  0
 41 42  2  0  0  0  0
 41 43  1  0  0  0  0
 43 44  1  0  0  0  0
 44 45  1  0  0  0  0
  6  7  1  0  0  0  0
 17 19  1  0  0  0  0
 22 23  2  0  0  0  0
 26 28  1  0  0  0  0
 33 34  1  0  0  0  0
 39 40  1  0  0  0  0
M  END
>  <MolRegNo>
468319

>  <m>
=

>  <Value>
5.6

>  <Unit>
nM

>  <Type>
IC50

>  <pValue>
8.25

>  <Ligand Efficiency>
0

>  <Binding Efficiency>
0

>  <Surface Efficiency>
0

>  <Assay Index>
336557

>  <Assay Category>


>  <Assay Organism>


>  <Target ID>
17045

>  <Target Name>
Cytochrome P450 3A4

>  <Target Organism>
Homo sapiens

>  <Target Description>
Target is a single protein chain

>  <Sequence Accession>
P08684

>  <Reference>
Bioorg Med Chem Lett 18 (14), 4075-4080 (2008)

>  <Pubmed ID>
18572407

>  <DOI>
10.1016/j.bmcl.2008.05.104

$$$$
468318
Actelion Java MolfileCreator 1.0

 43 48  0  0  0  0  0  0  0  0999 V2000
    0.0000   -0.0000   -0.0000 Cl  0  0  0  0  0  0  0  0  0  0  0  0
   -1.4974    0.0118   -0.0000 C   0  0  0  0  0  0  0  0  0  0  0  0
   -2.2520    1.3088   -0.0000 C   0  0  0  0  0  0  0  0  0  0  0  0
   -2.2520   -1.2734   -0.0000 C   0  0  0  0  0  0  0  0  0  0  0  0
   -3.7494    1.3206   -0.0000 C   0  0  0  0  0  0  0  0  0  0  0  0
   -3.7612   -1.2616   -0.0000 C   0  0  0  0  0  0  0  0  0  0  0  0
   -4.5158    0.0472   -0.0000 C   0  0  0  0  0  0  0  0  0  0  0  0
   -4.5040    2.6175   -0.0000 C   0  0  0  0  0  0  0  0  0  0  0  0
   -6.0015    2.6293   -0.0000 O   0  0  0  0  0  0  0  0  0  0  0  0
   -3.7730    3.9145   -0.0000 C   0  0  0  0  0  0  0  0  0  0  0  0
   -4.5276    5.2115   -0.0000 N   0  0  0  0  0  0  0  0  0  0  0  0
   -3.7966    6.5085   -0.0000 C   0  0  0  0  0  0  0  0  0  0  0  0
   -4.5512    7.8172   -0.0000 C   0  0  0  0  0  0  0  0  0  0  0  0
   -2.3228    6.5203   -0.0000 C   0  0  0  0  0  0  0  0  0  0  0  0
   -3.8202    9.1142   -0.0000 C   0  0  0  0  0  0  0  0  0  0  0  0
   -6.0486    7.8290   -0.0000 C   0  0  0  0  0  0  0  0  0  0  0  0
   -1.5917    7.8290   -0.0000 C   0  0  0  0  0  0  0  0  0  0  0  0
   -4.5866   10.4112   -0.0000 O   0  0  0  0  0  0  0  0  0  0  0  0
   -2.3463    9.1378   -0.0000 N   0  0  0  0  0  0  0  0  0  0  0  0
   -6.9447    6.6264   -0.0000 N   0  0  0  0  0  0  0  0  0  0  0  0
   -6.9447    9.0553   -0.0000 N   0  0  0  0  0  0  0  0  0  0  0  0
   -8.3832    7.0980   -0.0000 C   0  0  0  0  0  0  0  0  0  0  0  0
   -8.3832    8.6072   -0.0000 C   0  0  0  0  0  0  0  0  0  0  0  0
   -9.6802    6.3670   -0.0000 C   0  0  0  0  0  0  0  0  0  0  0  0
   -9.6919    9.3618   -0.0000 C   0  0  0  0  0  0  0  0  0  0  0  0
  -10.9771    7.1216   -0.0000 C   0  0  0  0  0  0  0  0  0  0  0  0
   -9.6919    4.8931   -0.0000 C   0  0  0  0  0  0  0  0  0  0  0  0
  -10.9889    8.6308   -0.0000 C   0  0  0  0  0  0  0  0  0  0  0  0
  -12.2977    9.3972   -0.0000 N   0  0  0  0  0  0  0  0  0  0  0  0
  -12.3095   10.9064   -0.0000 C   0  0  0  0  0  0  0  0  0  0  0  0
  -13.5947    8.6662   -0.0000 C   0  0  0  0  0  0  0  0  0  0  0  0
  -13.6065   11.6610   -0.0000 C   0  0  0  0  0  0  0  0  0  0  0  0
  -14.9034    9.4326   -0.0000 C   0  0  0  0  0  0  0  0  0  0  0  0
  -14.9152   10.9300   -0.0000 C   0  0  0  0  0  0  0  0  0  0  0  0
  -16.2122   11.6964   -0.0000 N   0  0  0  0  0  0  0  0  0  0  0  0
  -16.2122   13.2056   -0.0000 C   0  0  0  0  0  0  0  0  0  0  0  0
  -17.5092   10.9771   -0.0000 C   0  0  0  0  0  0  0  0  0  0  0  0
  -17.5092   13.9720   -0.0000 C   0  0  0  0  0  0  0  0  0  0  0  0
  -18.8062   11.7435   -0.0000 C   0  0  0  0  0  0  0  0  0  0  0  0
  -18.8179   13.2527   -0.0000 N   0  0  0  0  0  0  0  0  0  0  0  0
  -20.1149   14.0191   -0.0000 C   0  0  0  0  0  0  0  0  0  0  0  0
  -20.1267   15.5165   -0.0000 O   0  0  0  0  0  0  0  0  0  0  0  0
  -21.4355   13.2999   -0.0000 C   0  0  0  0  0  0  0  0  0  0  0  0
  1  2  1  0  0  0  0
  2  3  2  0  0  0  0
  2  4  1  0  0  0  0
  3  5  1  0  0  0  0
  4  6  2  0  0  0  0
  5  7  2  0  0  0  0
  5  8  1  0  0  0  0
  8  9  1  1  0  0  0
  8 10  1  0  0  0  0
 10 11  1  0  0  0  0
 11 12  1  0  0  0  0
 12 13  2  0  0  0  0
 12 14  1  0  0  0  0
 13 15  1  0  0  0  0
 13 16  1  0  0  0  0
 14 17  2  0  0  0  0
 15 18  2  0  0  0  0
 15 19  1  0  0  0  0
 16 20  2  0  0  0  0
 16 21  1  0  0  0  0
 20 22  1  0  0  0  0
 21 23  1  0  0  0  0
 22 24  1  0  0  0  0
 23 25  1  0  0  0  0
 24 26  2  0  0  0  0
 24 27  1  0  0  0  0
 25 28  2  0  0  0  0
 28 29  1  0  0  0  0
 29 30  1  0  0  0  0
 29 31  1  0  0  0  0
 30 32  1  0  0  0  0
 31 33  1  0  0  0  0
 32 34  1  0  0  0  0
 34 35  1  0  0  0  0
 35 36  1  0  0  0  0
 35 37  1  0  0  0  0
 36 38  1  0  0  0  0
 37 39  1  0  0  0  0
 38 40  1  0  0  0  0
 40 41  1  0  0  0  0
 41 42  2  0  0  0  0
 41 43  1  0  0  0  0
  6  7  1  0  0  0  0
 17 19  1  0  0  0  0
 22 23  2  0  0  0  0
 26 28  1  0  0  0  0
 33 34  1  0  0  0  0
 39 40  1  0  0  0  0
M  END
>  <MolRegNo>
468318

>  <m>
=

>  <Value>
0.8

>  <Unit>
nM

>  <Type>
IC50

>  <pValue>
9.1

>  <Ligand Efficiency>
0

>  <Binding Efficiency>
0

>  <Surface Efficiency>
0

>  <Assay Index>
336557

>  <Assay Category>


>  <Assay Organism>


>  <Target ID>
17045

>  <Target Name>
Cytochrome P450 3A4

>  <Target Organism>
Homo sapiens

>  <Target Description>
Target is a single protein chain

>  <Sequence Accession>
P08684

>  <Reference>
Bioorg Med Chem Lett 18 (14), 4075-4080 (2008)

>  <Pubmed ID>
18572407

>  <DOI>
10.1016/j.bmcl.2008.05.104

$$$$
468317
Actelion Java MolfileCreator 1.0

 41 46  0  0  0  0  0  0  0  0999 V2000
    0.0000   -0.0000   -0.0000 Cl  0  0  0  0  0  0  0  0  0  0  0  0
   -1.4974    0.0118   -0.0000 C   0  0  0  0  0  0  0  0  0  0  0  0
   -2.2519    1.3087   -0.0000 C   0  0  0  0  0  0  0  0  0  0  0  0
   -2.2519   -1.2733   -0.0000 C   0  0  0  0  0  0  0  0  0  0  0  0
   -3.7493    1.3205   -0.0000 C   0  0  0  0  0  0  0  0  0  0  0  0
   -3.7493   -1.2615   -0.0000 C   0  0  0  0  0  0  0  0  0  0  0  0
   -4.5156    0.0472   -0.0000 C   0  0  0  0  0  0  0  0  0  0  0  0
   -4.5038    2.6174   -0.0000 C   0  0  0  0  0  0  0  0  0  0  0  0
   -6.0012    2.6292   -0.0000 O   0  0  0  0  0  0  0  0  0  0  0  0
   -3.7729    3.9143   -0.0000 C   0  0  0  0  0  0  0  0  0  0  0  0
   -4.5274    5.2113   -0.0000 N   0  0  0  0  0  0  0  0  0  0  0  0
   -3.7964    6.5082   -0.0000 C   0  0  0  0  0  0  0  0  0  0  0  0
   -4.5510    7.8169   -0.0000 C   0  0  0  0  0  0  0  0  0  0  0  0
   -2.3227    6.5200   -0.0000 C   0  0  0  0  0  0  0  0  0  0  0  0
   -3.8200    9.1138   -0.0000 C   0  0  0  0  0  0  0  0  0  0  0  0
   -6.0484    7.8287   -0.0000 C   0  0  0  0  0  0  0  0  0  0  0  0
   -1.5917    7.8287   -0.0000 C   0  0  0  0  0  0  0  0  0  0  0  0
   -4.5864   10.4107   -0.0000 O   0  0  0  0  0  0  0  0  0  0  0  0
   -2.3462    9.1374   -0.0000 N   0  0  0  0  0  0  0  0  0  0  0  0
   -6.9444    6.6261   -0.0000 N   0  0  0  0  0  0  0  0  0  0  0  0
   -6.9444    9.0548   -0.0000 N   0  0  0  0  0  0  0  0  0  0  0  0
   -8.3828    7.0977   -0.0000 C   0  0  0  0  0  0  0  0  0  0  0  0
   -8.3828    8.6068   -0.0000 C   0  0  0  0  0  0  0  0  0  0  0  0
   -9.6797    6.3667   -0.0000 C   0  0  0  0  0  0  0  0  0  0  0  0
   -9.6915    9.3614   -0.0000 C   0  0  0  0  0  0  0  0  0  0  0  0
  -10.9884    7.1213   -0.0000 C   0  0  0  0  0  0  0  0  0  0  0  0
   -9.6915    4.8929   -0.0000 C   0  0  0  0  0  0  0  0  0  0  0  0
  -10.9884    8.6304   -0.0000 C   0  0  0  0  0  0  0  0  0  0  0  0
  -12.2971    9.3968   -0.0000 N   0  0  0  0  0  0  0  0  0  0  0  0
  -12.3089   10.9059   -0.0000 C   0  0  0  0  0  0  0  0  0  0  0  0
  -13.5941    8.6658   -0.0000 C   0  0  0  0  0  0  0  0  0  0  0  0
  -13.6058   11.6605   -0.0000 C   0  0  0  0  0  0  0  0  0  0  0  0
  -14.9028    9.4321   -0.0000 C   0  0  0  0  0  0  0  0  0  0  0  0
  -14.9146   10.9295   -0.0000 C   0  0  0  0  0  0  0  0  0  0  0  0
  -16.2115   11.6958   -0.0000 N   0  0  0  0  0  0  0  0  0  0  0  0
  -16.2115   13.2050   -0.0000 C   0  0  0  0  0  0  0  0  0  0  0  0
  -17.5084   10.9766   -0.0000 C   0  0  0  0  0  0  0  0  0  0  0  0
  -17.5084   13.9713   -0.0000 C   0  0  0  0  0  0  0  0  0  0  0  0
  -18.8053   11.7430   -0.0000 C   0  0  0  0  0  0  0  0  0  0  0  0
  -18.8171   13.2521   -0.0000 N   0  0  0  0  0  0  0  0  0  0  0  0
  -20.1140   14.0185   -0.0000 C   0  0  0  0  0  0  0  0  0  0  0  0
  1  2  1  0  0  0  0
  2  3  2  0  0  0  0
  2  4  1  0  0  0  0
  3  5  1  0  0  0  0
  4  6  2  0  0  0  0
  5  7  2  0  0  0  0
  5  8  1  0  0  0  0
  8  9  1  1  0  0  0
  8 10  1  0  0  0  0
 10 11  1  0  0  0  0
 11 12  1  0  0  0  0
 12 13  2  0  0  0  0
 12 14  1  0  0  0  0
 13 15  1  0  0  0  0
 13 16  1  0  0  0  0
 14 17  2  0  0  0  0
 15 18  2  0  0  0  0
 15 19  1  0  0  0  0
 16 20  2  0  0  0  0
 16 21  1  0  0  0  0
 20 22  1  0  0  0  0
 21 23  1  0  0  0  0
 22 24  1  0  0  0  0
 23 25  1  0  0  0  0
 24 26  2  0  0  0  0
 24 27  1  0  0  0  0
 25 28  2  0  0  0  0
 28 29  1  0  0  0  0
 29 30  1  0  0  0  0
 29 31  1  0  0  0  0
 30 32  1  0  0  0  0
 31 33  1  0  0  0  0
 32 34  1  0  0  0  0
 34 35  1  0  0  0  0
 35 36  1  0  0  0  0
 35 37  1  0  0  0  0
 36 38  1  0  0  0  0
 37 39  1  0  0  0  0
 38 40  1  0  0  0  0
 40 41  1  0  0  0  0
  6  7  1  0  0  0  0
 17 19  1  0  0  0  0
 22 23  2  0  0  0  0
 26 28  1  0  0  0  0
 33 34  1  0  0  0  0
 39 40  1  0  0  0  0
M  END
>  <MolRegNo>
468317

>  <m>
=

>  <Value>
2.4

>  <Unit>
nM

>  <Type>
IC50

>  <pValue>
8.62

>  <Ligand Efficiency>
0

>  <Binding Efficiency>
0

>  <Surface Efficiency>
0

>  <Assay Index>
336557

>  <Assay Category>


>  <Assay Organism>


>  <Target ID>
17045

>  <Target Name>
Cytochrome P450 3A4

>  <Target Organism>
Homo sapiens

>  <Target Description>
Target is a single protein chain

>  <Sequence Accession>
P08684

>  <Reference>
Bioorg Med Chem Lett 18 (14), 4075-4080 (2008)

>  <Pubmed ID>
18572407

>  <DOI>
10.1016/j.bmcl.2008.05.104

$$$$
468316
Actelion Java MolfileCreator 1.0

 41 47  0  0  0  0  0  0  0  0999 V2000
    0.0000   -0.0000   -0.0000 Cl  0  0  0  0  0  0  0  0  0  0  0  0
   -1.5077    0.0157   -0.0000 C   0  0  0  0  0  0  0  0  0  0  0  0
   -2.2772    1.3192   -0.0000 C   0  0  0  0  0  0  0  0  0  0  0  0
   -2.2615   -1.2721   -0.0000 C   0  0  0  0  0  0  0  0  0  0  0  0
   -3.7692    1.3349   -0.0000 C   0  0  0  0  0  0  0  0  0  0  0  0
   -3.7692   -1.2564   -0.0000 C   0  0  0  0  0  0  0  0  0  0  0  0
   -4.5388    0.0628   -0.0000 C   0  0  0  0  0  0  0  0  0  0  0  0
   -4.5231    2.6385   -0.0000 C   0  0  0  0  0  0  0  0  0  0  0  0
   -6.0308    2.6542   -0.0000 O   0  0  0  0  0  0  0  0  0  0  0  0
   -3.8006    3.9420   -0.0000 C   0  0  0  0  0  0  0  0  0  0  0  0
   -4.5545    5.2455   -0.0000 N   0  0  0  0  0  0  0  0  0  0  0  0
   -3.8320    6.5490   -0.0000 C   0  0  0  0  0  0  0  0  0  0  0  0
   -4.5859    7.8525   -0.0000 C   0  0  0  0  0  0  0  0  0  0  0  0
   -2.3558    6.5647   -0.0000 C   0  0  0  0  0  0  0  0  0  0  0  0
   -3.8634    9.1561   -0.0000 C   0  0  0  0  0  0  0  0  0  0  0  0
   -6.0779    7.8682   -0.0000 C   0  0  0  0  0  0  0  0  0  0  0  0
   -1.6333    7.8682   -0.0000 C   0  0  0  0  0  0  0  0  0  0  0  0
   -4.6330   10.4596   -0.0000 O   0  0  0  0  0  0  0  0  0  0  0  0
   -2.3872    9.1718   -0.0000 N   0  0  0  0  0  0  0  0  0  0  0  0
   -6.9731    6.6747   -0.0000 N   0  0  0  0  0  0  0  0  0  0  0  0
   -6.9731    9.0932   -0.0000 N   0  0  0  0  0  0  0  0  0  0  0  0
   -8.4179    7.1458   -0.0000 C   0  0  0  0  0  0  0  0  0  0  0  0
   -8.4179    8.6378   -0.0000 C   0  0  0  0  0  0  0  0  0  0  0  0
   -9.7214    6.4234   -0.0000 C   0  0  0  0  0  0  0  0  0  0  0  0
   -9.7214    9.3916   -0.0000 C   0  0  0  0  0  0  0  0  0  0  0  0
  -11.0250    7.1772   -0.0000 C   0  0  0  0  0  0  0  0  0  0  0  0
   -9.7371    4.9471   -0.0000 C   0  0  0  0  0  0  0  0  0  0  0  0
  -11.0250    8.6692   -0.0000 C   0  0  0  0  0  0  0  0  0  0  0  0
  -12.3442    9.4388   -0.0000 N   0  0  0  0  0  0  0  0  0  0  0  0
  -12.3599   10.9464   -0.0000 C   0  0  0  0  0  0  0  0  0  0  0  0
  -13.6477    8.7006   -0.0000 C   0  0  0  0  0  0  0  0  0  0  0  0
  -13.6634   11.7003   -0.0000 C   0  0  0  0  0  0  0  0  0  0  0  0
  -14.9512    9.4702   -0.0000 C   0  0  0  0  0  0  0  0  0  0  0  0
  -14.9669   10.9779   -0.0000 C   0  0  0  0  0  0  0  0  0  0  0  0
  -16.2705   11.7474   -0.0000 N   0  0  0  0  0  0  0  0  0  0  0  0
  -17.6054   11.4333   -0.0000 C   0  0  0  0  0  0  0  0  0  0  0  0
  -16.6003   12.8625   -0.0000 C   0  0  0  0  0  0  0  0  0  0  0  0
  -18.1708   10.1298   -0.0000 C   0  0  0  0  0  0  0  0  0  0  0  0
  -19.1916   13.4435   -0.0000 C   0  0  0  0  0  0  0  0  0  0  0  0
  -18.1080   12.5955   -0.0000 C   0  0  0  0  0  0  0  0  0  0  0  0
  -18.4378   11.3705   -0.0000 O   0  0  0  0  0  0  0  0  0  0  0  0
  1  2  1  0  0  0  0
  2  3  2  0  0  0  0
  2  4  1  0  0  0  0
  3  5  1  0  0  0  0
  4  6  2  0  0  0  0
  5  7  2  0  0  0  0
  5  8  1  0  0  0  0
  8  9  1  6  0  0  0
  8 10  1  0  0  0  0
 10 11  1  0  0  0  0
 11 12  1  0  0  0  0
 12 13  2  0  0  0  0
 12 14  1  0  0  0  0
 13 15  1  0  0  0  0
 13 16  1  0  0  0  0
 14 17  2  0  0  0  0
 15 18  2  0  0  0  0
 15 19  1  0  0  0  0
 16 20  2  0  0  0  0
 16 21  1  0  0  0  0
 20 22  1  0  0  0  0
 21 23  1  0  0  0  0
 22 24  1  0  0  0  0
 23 25  1  0  0  0  0
 24 26  2  0  0  0  0
 24 27  1  0  0  0  0
 25 28  2  0  0  0  0
 28 29  1  0  0  0  0
 29 30  1  0  0  0  0
 29 31  1  0  0  0  0
 30 32  1  0  0  0  0
 31 33  1  0  0  0  0
 32 34  1  0  0  0  0
 34 35  1  0  0  0  0
 36 35  1  1  0  0  0
 35 37  1  0  0  0  0
 36 38  1  0  0  0  0
 36 39  1  0  0  0  0
 37 40  1  0  0  0  0
 38 41  1  0  0  0  0
  6  7  1  0  0  0  0
 17 19  1  0  0  0  0
 22 23  2  0  0  0  0
 26 28  1  0  0  0  0
 33 34  1  0  0  0  0
 39 40  1  0  0  0  0
 40 41  1  1  0  0  0
M  END
>  <MolRegNo>
468316

>  <m>
=

>  <Value>
0.5

>  <Unit>
nM

>  <Type>
IC50

>  <pValue>
9.3

>  <Ligand Efficiency>
0

>  <Binding Efficiency>
0

>  <Surface Efficiency>
0

>  <Assay Index>
336557

>  <Assay Category>


>  <Assay Organism>


>  <Target ID>
17045

>  <Target Name>
Cytochrome P450 3A4

>  <Target Organism>
Homo sapiens

>  <Target Description>
Target is a single protein chain

>  <Sequence Accession>
P08684

>  <Reference>
Bioorg Med Chem Lett 18 (14), 4075-4080 (2008)

>  <Pubmed ID>
18572407

>  <DOI>
10.1016/j.bmcl.2008.05.104

$$$$
468315
Actelion Java MolfileCreator 1.0

 42 47  0  0  1  0  0  0  0  0999 V2000
    0.0000   -0.0000   -0.0000 Cl  0  0  0  0  0  0  0  0  0  0  0  0
   -1.4978    0.0118   -0.0000 C   0  0  0  0  0  0  0  0  0  0  0  0
   -2.2526    1.3091   -0.0000 C   0  0  0  0  0  0  0  0  0  0  0  0
   -2.2526   -1.2737   -0.0000 C   0  0  0  0  0  0  0  0  0  0  0  0
   -3.7503    1.3209   -0.0000 C   0  0  0  0  0  0  0  0  0  0  0  0
   -3.7621   -1.2619   -0.0000 C   0  0  0  0  0  0  0  0  0  0  0  0
   -4.5169    0.0472   -0.0000 C   0  0  0  0  0  0  0  0  0  0  0  0
   -4.5051    2.6182   -0.0000 C   0  0  0  0  0  0  0  0  0  0  0  0
   -6.0029    2.6300   -0.0000 O   0  0  0  0  0  0  0  0  0  0  0  0
   -3.7739    3.9154   -0.0000 C   0  0  0  0  0  0  0  0  0  0  0  0
   -4.5287    5.2127   -0.0000 N   0  0  0  0  0  0  0  0  0  0  0  0
   -3.7975    6.5100   -0.0000 C   0  0  0  0  0  0  0  0  0  0  0  0
   -4.5523    7.8191   -0.0000 C   0  0  0  0  0  0  0  0  0  0  0  0
   -2.3233    6.5218   -0.0000 C   0  0  0  0  0  0  0  0  0  0  0  0
   -3.8211    9.1164   -0.0000 C   0  0  0  0  0  0  0  0  0  0  0  0
   -6.0501    7.8309   -0.0000 C   0  0  0  0  0  0  0  0  0  0  0  0
   -1.5921    7.8309   -0.0000 C   0  0  0  0  0  0  0  0  0  0  0  0
   -4.5877   10.4137   -0.0000 O   0  0  0  0  0  0  0  0  0  0  0  0
   -2.3469    9.1400   -0.0000 N   0  0  0  0  0  0  0  0  0  0  0  0
   -6.9464    6.6280   -0.0000 N   0  0  0  0  0  0  0  0  0  0  0  0
   -6.9464    9.0574   -0.0000 N   0  0  0  0  0  0  0  0  0  0  0  0
   -8.3852    7.0997   -0.0000 C   0  0  0  0  0  0  0  0  0  0  0  0
   -8.3852    8.6093   -0.0000 C   0  0  0  0  0  0  0  0  0  0  0  0
   -9.6825    6.3685   -0.0000 C   0  0  0  0  0  0  0  0  0  0  0  0
   -9.6943    9.3641   -0.0000 C   0  0  0  0  0  0  0  0  0  0  0  0
  -10.9798    7.1233   -0.0000 C   0  0  0  0  0  0  0  0  0  0  0  0
   -9.6943    4.8943   -0.0000 C   0  0  0  0  0  0  0  0  0  0  0  0
  -10.9916    8.6329   -0.0000 C   0  0  0  0  0  0  0  0  0  0  0  0
  -12.3006    9.3994   -0.0000 N   0  0  0  0  0  0  0  0  0  0  0  0
  -12.3124   10.9090   -0.0000 C   0  0  0  0  0  0  0  0  0  0  0  0
  -13.5979    8.6682   -0.0000 C   0  0  0  0  0  0  0  0  0  0  0  0
  -13.6097   11.6638   -0.0000 C   0  0  0  0  0  0  0  0  0  0  0  0
  -14.9070    9.4348   -0.0000 C   0  0  0  0  0  0  0  0  0  0  0  0
  -14.9188   10.9326   -0.0000 C   0  0  0  0  0  0  0  0  0  0  0  0
  -16.2161   11.6992   -0.0000 N   0  0  0  0  0  0  0  0  0  0  0  0
  -16.2161   13.2087   -0.0000 C   0  0  0  0  0  0  0  0  0  0  0  0
  -17.5134   10.9798   -0.0000 C   0  0  0  0  0  0  0  0  0  0  0  0
  -17.5134   13.9753   -0.0000 C   0  0  0  0  0  0  0  0  0  0  0  0
  -18.8107   11.7463   -0.0000 C   0  0  0  0  0  0  0  0  0  0  0  0
  -18.8224   13.2559   -0.0000 O   0  0  0  0  0  0  0  0  0  0  0  0
  -17.5134   15.4731   -0.0000 C   0  0  0  0  0  0  0  0  0  0  0  0
  -20.1197   11.0269   -0.0000 C   0  0  0  0  0  0  0  0  0  0  0  0
  1  2  1  0  0  0  0
  2  3  2  0  0  0  0
  2  4  1  0  0  0  0
  3  5  1  0  0  0  0
  4  6  2  0  0  0  0
  5  7  2  0  0  0  0
  5  8  1  0  0  0  0
  8  9  1  1  0  0  0
  8 10  1  0  0  0  0
 10 11  1  0  0  0  0
 11 12  1  0  0  0  0
 12 13  2  0  0  0  0
 12 14  1  0  0  0  0
 13 15  1  0  0  0  0
 13 16  1  0  0  0  0
 14 17  2  0  0  0  0
 15 18  2  0  0  0  0
 15 19  1  0  0  0  0
 16 20  2  0  0  0  0
 16 21  1  0  0  0  0
 20 22  1  0  0  0  0
 21 23  1  0  0  0  0
 22 24  1  0  0  0  0
 23 25  1  0  0  0  0
 24 26  2  0  0  0  0
 24 27  1  0  0  0  0
 25 28  2  0  0  0  0
 28 29  1  0  0  0  0
 29 30  1  0  0  0  0
 29 31  1  0  0  0  0
 30 32  1  0  0  0  0
 31 33  1  0  0  0  0
 32 34  1  0  0  0  0
 34 35  1  0  0  0  0
 35 36  1  0  0  0  0
 35 37  1  0  0  0  0
 36 38  1  0  0  0  0
 37 39  1  0  0  0  0
 38 40  1  0  0  0  0
 38 41  1  1  0  0  0
 39 42  1  1  0  0  0
  6  7  1  0  0  0  0
 17 19  1  0  0  0  0
 22 23  2  0  0  0  0
 26 28  1  0  0  0  0
 33 34  1  0  0  0  0
 39 40  1  0  0  0  0
M  END
>  <MolRegNo>
468315

>  <m>
=

>  <Value>
3.1

>  <Unit>
nM

>  <Type>
IC50

>  <pValue>
8.51

>  <Ligand Efficiency>
0

>  <Binding Efficiency>
0

>  <Surface Efficiency>
0

>  <Assay Index>
336557

>  <Assay Category>


>  <Assay Organism>


>  <Target ID>
17045

>  <Target Name>
Cytochrome P450 3A4

>  <Target Organism>
Homo sapiens

>  <Target Description>
Target is a single protein chain

>  <Sequence Accession>
P08684

>  <Reference>
Bioorg Med Chem Lett 18 (14), 4075-4080 (2008)

>  <Pubmed ID>
18572407

>  <DOI>
10.1016/j.bmcl.2008.05.104

$$$$
468314
Actelion Java MolfileCreator 1.0

 40 45  0  0  0  0  0  0  0  0999 V2000
    0.0000   -0.0000   -0.0000 Cl  0  0  0  0  0  0  0  0  0  0  0  0
   -1.5007   -0.0000   -0.0000 C   0  0  0  0  0  0  0  0  0  0  0  0
   -2.2688    1.2880   -0.0000 C   0  0  0  0  0  0  0  0  0  0  0  0
   -2.2569   -1.2880   -0.0000 C   0  0  0  0  0  0  0  0  0  0  0  0
   -3.7576    1.2880   -0.0000 C   0  0  0  0  0  0  0  0  0  0  0  0
   -3.7576   -1.2762   -0.0000 C   0  0  0  0  0  0  0  0  0  0  0  0
   -4.5139    0.0118   -0.0000 C   0  0  0  0  0  0  0  0  0  0  0  0
   -4.5139    2.5878   -0.0000 C   0  0  0  0  0  0  0  0  0  0  0  0
   -6.0146    2.5169   -0.0000 O   0  0  0  0  0  0  0  0  0  0  0  0
   -3.7813    3.8876   -0.0000 C   0  0  0  0  0  0  0  0  0  0  0  0
   -4.5375    5.1874   -0.0000 N   0  0  0  0  0  0  0  0  0  0  0  0
   -3.8049    6.4872   -0.0000 C   0  0  0  0  0  0  0  0  0  0  0  0
   -4.5611    7.7870   -0.0000 C   0  0  0  0  0  0  0  0  0  0  0  0
   -2.3278    6.4990   -0.0000 C   0  0  0  0  0  0  0  0  0  0  0  0
   -3.8285    9.0868   -0.0000 C   0  0  0  0  0  0  0  0  0  0  0  0
   -6.0618    7.7988   -0.0000 C   0  0  0  0  0  0  0  0  0  0  0  0
   -1.5952    7.7988   -0.0000 C   0  0  0  0  0  0  0  0  0  0  0  0
   -4.5848   10.3866   -0.0000 O   0  0  0  0  0  0  0  0  0  0  0  0
   -2.3515    9.1105   -0.0000 N   0  0  0  0  0  0  0  0  0  0  0  0
   -6.9599    6.5936   -0.0000 N   0  0  0  0  0  0  0  0  0  0  0  0
   -6.9599    9.0277   -0.0000 N   0  0  0  0  0  0  0  0  0  0  0  0
   -8.4015    7.0662   -0.0000 C   0  0  0  0  0  0  0  0  0  0  0  0
   -8.4015    8.5787   -0.0000 C   0  0  0  0  0  0  0  0  0  0  0  0
   -9.7013    6.3336   -0.0000 C   0  0  0  0  0  0  0  0  0  0  0  0
   -9.7013    9.3350   -0.0000 C   0  0  0  0  0  0  0  0  0  0  0  0
  -11.0011    7.0899   -0.0000 C   0  0  0  0  0  0  0  0  0  0  0  0
   -9.7131    4.8565   -0.0000 C   0  0  0  0  0  0  0  0  0  0  0  0
  -11.0011    8.6024   -0.0000 C   0  0  0  0  0  0  0  0  0  0  0  0
  -12.3009    9.3586   -0.0000 N   0  0  0  0  0  0  0  0  0  0  0  0
  -12.3127   10.8711   -0.0000 C   0  0  0  0  0  0  0  0  0  0  0  0
  -13.6125    8.6260   -0.0000 C   0  0  0  0  0  0  0  0  0  0  0  0
  -13.6125   11.6274   -0.0000 C   0  0  0  0  0  0  0  0  0  0  0  0
  -14.9123    9.3941   -0.0000 C   0  0  0  0  0  0  0  0  0  0  0  0
  -14.9241   10.8947   -0.0000 C   0  0  0  0  0  0  0  0  0  0  0  0
  -16.2239   11.6510   -0.0000 N   0  0  0  0  0  0  0  0  0  0  0  0
  -16.2239   13.1635   -0.0000 C   0  0  0  0  0  0  0  0  0  0  0  0
  -17.5238   10.9302   -0.0000 C   0  0  0  0  0  0  0  0  0  0  0  0
  -17.5119   13.9197   -0.0000 C   0  0  0  0  0  0  0  0  0  0  0  0
  -18.8236   11.6983   -0.0000 C   0  0  0  0  0  0  0  0  0  0  0  0
  -18.8236   13.1989   -0.0000 O   0  0  0  0  0  0  0  0  0  0  0  0
  1  2  1  0  0  0  0
  2  3  2  0  0  0  0
  2  4  1  0  0  0  0
  3  5  1  0  0  0  0
  4  6  2  0  0  0  0
  5  7  2  0  0  0  0
  5  8  1  0  0  0  0
  8  9  1  1  0  0  0
  8 10  1  0  0  0  0
 10 11  1  0  0  0  0
 11 12  1  0  0  0  0
 12 13  2  0  0  0  0
 12 14  1  0  0  0  0
 13 15  1  0  0  0  0
 13 16  1  0  0  0  0
 14 17  2  0  0  0  0
 15 18  2  0  0  0  0
 15 19  1  0  0  0  0
 16 20  2  0  0  0  0
 16 21  1  0  0  0  0
 20 22  1  0  0  0  0
 21 23  1  0  0  0  0
 22 24  1  0  0  0  0
 23 25  1  0  0  0  0
 24 26  2  0  0  0  0
 24 27  1  0  0  0  0
 25 28  2  0  0  0  0
 28 29  1  0  0  0  0
 29 30  1  0  0  0  0
 29 31  1  0  0  0  0
 30 32  1  0  0  0  0
 31 33  1  0  0  0  0
 32 34  1  0  0  0  0
 34 35  1  0  0  0  0
 35 36  1  0  0  0  0
 35 37  1  0  0  0  0
 36 38  1  0  0  0  0
 37 39  1  0  0  0  0
 38 40  1  0  0  0  0
  6  7  1  0  0  0  0
 17 19  1  0  0  0  0
 22 23  2  0  0  0  0
 26 28  1  0  0  0  0
 33 34  1  0  0  0  0
 39 40  1  0  0  0  0
M  END
>  <MolRegNo>
468314

>  <m>
=

>  <Value>
4.1

>  <Unit>
nM

>  <Type>
IC50

>  <pValue>
8.39

>  <Ligand Efficiency>
0

>  <Binding Efficiency>
0

>  <Surface Efficiency>
0

>  <Assay Index>
336557

>  <Assay Category>


>  <Assay Organism>


>  <Target ID>
17045

>  <Target Name>
Cytochrome P450 3A4

>  <Target Organism>
Homo sapiens

>  <Target Description>
Target is a single protein chain

>  <Sequence Accession>
P08684

>  <Reference>
Bioorg Med Chem Lett 18 (14), 4075-4080 (2008)

>  <Pubmed ID>
18572407

>  <DOI>
10.1016/j.bmcl.2008.05.104

$$$$
468229
Actelion Java MolfileCreator 1.0

 43 47  0  0  0  0  0  0  0  0999 V2000
    0.0000   -0.0000   -0.0000 Cl  0  0  0  0  0  0  0  0  0  0  0  0
   -1.4976    0.0118   -0.0000 C   0  0  0  0  0  0  0  0  0  0  0  0
   -2.2524    1.3090   -0.0000 C   0  0  0  0  0  0  0  0  0  0  0  0
   -2.2524   -1.2736   -0.0000 C   0  0  0  0  0  0  0  0  0  0  0  0
   -3.7500    1.3208   -0.0000 C   0  0  0  0  0  0  0  0  0  0  0  0
   -3.7618   -1.2618   -0.0000 C   0  0  0  0  0  0  0  0  0  0  0  0
   -4.5165    0.0472   -0.0000 C   0  0  0  0  0  0  0  0  0  0  0  0
   -4.5047    2.6179   -0.0000 C   0  0  0  0  0  0  0  0  0  0  0  0
   -6.0024    2.6297   -0.0000 O   0  0  0  0  0  0  0  0  0  0  0  0
   -3.7736    3.9151   -0.0000 C   0  0  0  0  0  0  0  0  0  0  0  0
   -4.5283    5.2123   -0.0000 N   0  0  0  0  0  0  0  0  0  0  0  0
   -3.7972    6.5094   -0.0000 C   0  0  0  0  0  0  0  0  0  0  0  0
   -4.5519    7.8184   -0.0000 C   0  0  0  0  0  0  0  0  0  0  0  0
   -2.3231    6.5212   -0.0000 C   0  0  0  0  0  0  0  0  0  0  0  0
   -3.8208    9.1156   -0.0000 C   0  0  0  0  0  0  0  0  0  0  0  0
   -6.0495    7.8302   -0.0000 C   0  0  0  0  0  0  0  0  0  0  0  0
   -1.5920    7.8302   -0.0000 C   0  0  0  0  0  0  0  0  0  0  0  0
   -4.5873   10.4127   -0.0000 O   0  0  0  0  0  0  0  0  0  0  0  0
   -2.3467    9.1392   -0.0000 N   0  0  0  0  0  0  0  0  0  0  0  0
   -6.9458    6.6274   -0.0000 N   0  0  0  0  0  0  0  0  0  0  0  0
   -6.9458    9.0566   -0.0000 N   0  0  0  0  0  0  0  0  0  0  0  0
   -8.3844    7.0991   -0.0000 C   0  0  0  0  0  0  0  0  0  0  0  0
   -8.3844    8.6085   -0.0000 C   0  0  0  0  0  0  0  0  0  0  0  0
   -9.6816    6.3679   -0.0000 C   0  0  0  0  0  0  0  0  0  0  0  0
   -9.6934    9.3632   -0.0000 C   0  0  0  0  0  0  0  0  0  0  0  0
  -10.9788    7.1226   -0.0000 C   0  0  0  0  0  0  0  0  0  0  0  0
   -9.6934    4.8939   -0.0000 C   0  0  0  0  0  0  0  0  0  0  0  0
  -10.9906    8.6321   -0.0000 C   0  0  0  0  0  0  0  0  0  0  0  0
  -12.2995    9.3986   -0.0000 N   0  0  0  0  0  0  0  0  0  0  0  0
  -12.3113   10.9080   -0.0000 C   0  0  0  0  0  0  0  0  0  0  0  0
  -13.5967    8.6675   -0.0000 C   0  0  0  0  0  0  0  0  0  0  0  0
  -13.6085   11.6627   -0.0000 C   0  0  0  0  0  0  0  0  0  0  0  0
  -14.9057    9.4340   -0.0000 C   0  0  0  0  0  0  0  0  0  0  0  0
  -14.9175   10.9316   -0.0000 C   0  0  0  0  0  0  0  0  0  0  0  0
  -16.2146   11.6981   -0.0000 N   0  0  0  0  0  0  0  0  0  0  0  0
  -16.2146   13.2076   -0.0000 C   0  0  0  0  0  0  0  0  0  0  0  0
  -17.5118   10.9788   -0.0000 C   0  0  0  0  0  0  0  0  0  0  0  0
  -17.5118   13.9741   -0.0000 C   0  0  0  0  0  0  0  0  0  0  0  0
  -18.8090   11.7453   -0.0000 C   0  0  0  0  0  0  0  0  0  0  0  0
  -18.8208   13.2547   -0.0000 O   0  0  0  0  0  0  0  0  0  0  0  0
  -20.1179   11.0260   -0.0000 O   0  0  0  0  0  0  0  0  0  0  0  0
  -20.1179   14.0212   -0.0000 C   0  0  0  0  0  0  0  0  0  0  0  0
  -21.4151   11.7925   -0.0000 C   0  0  0  0  0  0  0  0  0  0  0  0
  1  2  1  0  0  0  0
  2  3  2  0  0  0  0
  2  4  1  0  0  0  0
  3  5  1  0  0  0  0
  4  6  2  0  0  0  0
  5  7  2  0  0  0  0
  5  8  1  0  0  0  0
  8  9  1  1  0  0  0
  8 10  1  0  0  0  0
 10 11  1  0  0  0  0
 11 12  1  0  0  0  0
 12 13  2  0  0  0  0
 12 14  1  0  0  0  0
 13 15  1  0  0  0  0
 13 16  1  0  0  0  0
 14 17  2  0  0  0  0
 15 18  2  0  0  0  0
 15 19  1  0  0  0  0
 16 20  2  0  0  0  0
 16 21  1  0  0  0  0
 20 22  1  0  0  0  0
 21 23  1  0  0  0  0
 22 24  1  0  0  0  0
 23 25  1  0  0  0  0
 24 26  2  0  0  0  0
 24 27  1  0  0  0  0
 25 28  2  0  0  0  0
 28 29  1  0  0  0  0
 29 30  1  0  0  0  0
 29 31  1  0  0  0  0
 30 32  1  0  0  0  0
 31 33  1  0  0  0  0
 32 34  1  0  0  0  0
 34 35  1  0  0  0  0
 35 36  1  0  0  0  0
 35 37  1  0  0  0  0
 36 38  1  0  0  0  0
 37 39  1  0  0  0  0
 38 40  1  0  0  0  0
 39 41  1  0  0  0  0
 40 42  1  0  0  0  0
 41 43  1  0  0  0  0
  6  7  1  0  0  0  0
 17 19  1  0  0  0  0
 22 23  2  0  0  0  0
 26 28  1  0  0  0  0
 33 34  1  0  0  0  0
M  END
>  <MolRegNo>
468229

>  <m>
=

>  <Value>
1

>  <Unit>
nM

>  <Type>
IC50

>  <pValue>
9

>  <Ligand Efficiency>
0

>  <Binding Efficiency>
0

>  <Surface Efficiency>
0

>  <Assay Index>
336557

>  <Assay Category>


>  <Assay Organism>


>  <Target ID>
17045

>  <Target Name>
Cytochrome P450 3A4

>  <Target Organism>
Homo sapiens

>  <Target Description>
Target is a single protein chain

>  <Sequence Accession>
P08684

>  <Reference>
Bioorg Med Chem Lett 18 (14), 4075-4080 (2008)

>  <Pubmed ID>
18572407

>  <DOI>
10.1016/j.bmcl.2008.05.104

$$$$
468228
Actelion Java MolfileCreator 1.0

 39 43  0  0  0  0  0  0  0  0999 V2000
    0.0000   -0.0000   -0.0000 Cl  0  0  0  0  0  0  0  0  0  0  0  0
   -1.5072    0.0118   -0.0000 C   0  0  0  0  0  0  0  0  0  0  0  0
   -2.2608    1.3070   -0.0000 C   0  0  0  0  0  0  0  0  0  0  0  0
   -2.2608   -1.2717   -0.0000 C   0  0  0  0  0  0  0  0  0  0  0  0
   -3.7562    1.3188   -0.0000 C   0  0  0  0  0  0  0  0  0  0  0  0
   -3.7680   -1.2599   -0.0000 C   0  0  0  0  0  0  0  0  0  0  0  0
   -4.5216    0.0353   -0.0000 C   0  0  0  0  0  0  0  0  0  0  0  0
   -4.5098    2.6258   -0.0000 C   0  0  0  0  0  0  0  0  0  0  0  0
   -6.0170    2.6376   -0.0000 O   0  0  0  0  0  0  0  0  0  0  0  0
   -3.7798    3.9328   -0.0000 C   0  0  0  0  0  0  0  0  0  0  0  0
   -4.5334    5.2399   -0.0000 N   0  0  0  0  0  0  0  0  0  0  0  0
   -3.8033    6.5469   -0.0000 C   0  0  0  0  0  0  0  0  0  0  0  0
   -4.5569    7.8539   -0.0000 C   0  0  0  0  0  0  0  0  0  0  0  0
   -2.3314    6.5587   -0.0000 C   0  0  0  0  0  0  0  0  0  0  0  0
   -3.8269    9.1492   -0.0000 C   0  0  0  0  0  0  0  0  0  0  0  0
   -6.0523    7.8657   -0.0000 C   0  0  0  0  0  0  0  0  0  0  0  0
   -1.6014    7.8657   -0.0000 C   0  0  0  0  0  0  0  0  0  0  0  0
   -4.5922   10.4444   -0.0000 O   0  0  0  0  0  0  0  0  0  0  0  0
   -2.3550    9.1727   -0.0000 N   0  0  0  0  0  0  0  0  0  0  0  0
   -6.9472    6.6646   -0.0000 N   0  0  0  0  0  0  0  0  0  0  0  0
   -6.9472    9.0903   -0.0000 N   0  0  0  0  0  0  0  0  0  0  0  0
   -8.3838    7.1356   -0.0000 C   0  0  0  0  0  0  0  0  0  0  0  0
   -8.3838    8.6428   -0.0000 C   0  0  0  0  0  0  0  0  0  0  0  0
   -9.6908    6.4056   -0.0000 C   0  0  0  0  0  0  0  0  0  0  0  0
   -9.6908    9.3964   -0.0000 C   0  0  0  0  0  0  0  0  0  0  0  0
  -10.9978    7.1592   -0.0000 C   0  0  0  0  0  0  0  0  0  0  0  0
   -9.7026    4.9219   -0.0000 C   0  0  0  0  0  0  0  0  0  0  0  0
  -10.9861    8.6664   -0.0000 C   0  0  0  0  0  0  0  0  0  0  0  0
  -12.2931    9.4318   -0.0000 N   0  0  0  0  0  0  0  0  0  0  0  0
  -12.3048   10.9390   -0.0000 C   0  0  0  0  0  0  0  0  0  0  0  0
  -13.5883    8.7017   -0.0000 C   0  0  0  0  0  0  0  0  0  0  0  0
  -13.6001   11.6926   -0.0000 C   0  0  0  0  0  0  0  0  0  0  0  0
  -14.8953    9.4671   -0.0000 C   0  0  0  0  0  0  0  0  0  0  0  0
  -14.9071   10.9625   -0.0000 C   0  0  0  0  0  0  0  0  0  0  0  0
  -16.2024   11.7279   -0.0000 N   0  0  0  0  0  0  0  0  0  0  0  0
  -17.5094   10.9978   -0.0000 C   0  0  0  0  0  0  0  0  0  0  0  0
  -17.5329    9.5142   -0.0000 O   0  0  0  0  0  0  0  0  0  0  0  0
  -18.8164   11.7514   -0.0000 O   0  0  0  0  0  0  0  0  0  0  0  0
  -18.8282   13.2586   -0.0000 C   0  0  0  0  0  0  0  0  0  0  0  0
  1  2  1  0  0  0  0
  2  3  2  0  0  0  0
  2  4  1  0  0  0  0
  3  5  1  0  0  0  0
  4  6  2  0  0  0  0
  5  7  2  0  0  0  0
  5  8  1  0  0  0  0
  8  9  1  1  0  0  0
  8 10  1  0  0  0  0
 10 11  1  0  0  0  0
 11 12  1  0  0  0  0
 12 13  2  0  0  0  0
 12 14  1  0  0  0  0
 13 15  1  0  0  0  0
 13 16  1  0  0  0  0
 14 17  2  0  0  0  0
 15 18  2  0  0  0  0
 15 19  1  0  0  0  0
 16 20  2  0  0  0  0
 16 21  1  0  0  0  0
 20 22  1  0  0  0  0
 21 23  1  0  0  0  0
 22 24  1  0  0  0  0
 23 25  1  0  0  0  0
 24 26  2  0  0  0  0
 24 27  1  0  0  0  0
 25 28  2  0  0  0  0
 28 29  1  0  0  0  0
 29 30  1  0  0  0  0
 29 31  1  0  0  0  0
 30 32  1  0  0  0  0
 31 33  1  0  0  0  0
 32 34  1  0  0  0  0
 34 35  1  0  0  0  0
 35 36  1  0  0  0  0
 36 37  2  0  0  0  0
 36 38  1  0  0  0  0
 38 39  1  0  0  0  0
  6  7  1  0  0  0  0
 17 19  1  0  0  0  0
 22 23  2  0  0  0  0
 26 28  1  0  0  0  0
 33 34  1  0  0  0  0
M  END
>  <MolRegNo>
468228

>  <m>
=

>  <Value>
0.5

>  <Unit>
nM

>  <Type>
IC50

>  <pValue>
9.3

>  <Ligand Efficiency>
0

>  <Binding Efficiency>
0

>  <Surface Efficiency>
0

>  <Assay Index>
336557

>  <Assay Category>


>  <Assay Organism>


>  <Target ID>
17045

>  <Target Name>
Cytochrome P450 3A4

>  <Target Organism>
Homo sapiens

>  <Target Description>
Target is a single protein chain

>  <Sequence Accession>
P08684

>  <Reference>
Bioorg Med Chem Lett 18 (14), 4075-4080 (2008)

>  <Pubmed ID>
18572407

>  <DOI>
10.1016/j.bmcl.2008.05.104

$$$$
468227
Actelion Java MolfileCreator 1.0

 40 45  0  0  0  0  0  0  0  0999 V2000
    0.0000   -0.0000   -0.0000 Cl  0  0  0  0  0  0  0  0  0  0  0  0
   -1.5010   -0.0000   -0.0000 C   0  0  0  0  0  0  0  0  0  0  0  0
   -2.2692    1.2883   -0.0000 C   0  0  0  0  0  0  0  0  0  0  0  0
   -2.2574   -1.2883   -0.0000 C   0  0  0  0  0  0  0  0  0  0  0  0
   -3.7584    1.2883   -0.0000 C   0  0  0  0  0  0  0  0  0  0  0  0
   -3.7584   -1.2764   -0.0000 C   0  0  0  0  0  0  0  0  0  0  0  0
   -4.5148    0.0118   -0.0000 C   0  0  0  0  0  0  0  0  0  0  0  0
   -4.5148    2.5883   -0.0000 C   0  0  0  0  0  0  0  0  0  0  0  0
   -6.0158    2.5174   -0.0000 O   0  0  0  0  0  0  0  0  0  0  0  0
   -3.7820    3.8884   -0.0000 C   0  0  0  0  0  0  0  0  0  0  0  0
   -4.5384    5.1885   -0.0000 N   0  0  0  0  0  0  0  0  0  0  0  0
   -3.8057    6.4885   -0.0000 C   0  0  0  0  0  0  0  0  0  0  0  0
   -4.5621    7.8004   -0.0000 C   0  0  0  0  0  0  0  0  0  0  0  0
   -2.3283    6.5004   -0.0000 C   0  0  0  0  0  0  0  0  0  0  0  0
   -3.8293    9.1005   -0.0000 C   0  0  0  0  0  0  0  0  0  0  0  0
   -6.0631    7.8123   -0.0000 C   0  0  0  0  0  0  0  0  0  0  0  0
   -1.5955    7.8004   -0.0000 C   0  0  0  0  0  0  0  0  0  0  0  0
   -4.5857   10.4006   -0.0000 O   0  0  0  0  0  0  0  0  0  0  0  0
   -2.3520    9.1242   -0.0000 N   0  0  0  0  0  0  0  0  0  0  0  0
   -6.9613    6.6067   -0.0000 N   0  0  0  0  0  0  0  0  0  0  0  0
   -6.9613    9.0414   -0.0000 N   0  0  0  0  0  0  0  0  0  0  0  0
   -8.4032    7.0795   -0.0000 C   0  0  0  0  0  0  0  0  0  0  0  0
   -8.4032    8.5923   -0.0000 C   0  0  0  0  0  0  0  0  0  0  0  0
   -9.7033    6.3467   -0.0000 C   0  0  0  0  0  0  0  0  0  0  0  0
   -9.7033    9.3487   -0.0000 C   0  0  0  0  0  0  0  0  0  0  0  0
  -11.0033    7.1031   -0.0000 C   0  0  0  0  0  0  0  0  0  0  0  0
   -9.7151    4.8694   -0.0000 C   0  0  0  0  0  0  0  0  0  0  0  0
  -11.0033    8.6159   -0.0000 C   0  0  0  0  0  0  0  0  0  0  0  0
  -12.3034    9.3723   -0.0000 N   0  0  0  0  0  0  0  0  0  0  0  0
  -12.3152   10.8852   -0.0000 C   0  0  0  0  0  0  0  0  0  0  0  0
  -13.6153    8.6396   -0.0000 C   0  0  0  0  0  0  0  0  0  0  0  0
  -13.6153   11.6416   -0.0000 C   0  0  0  0  0  0  0  0  0  0  0  0
  -14.9154    9.4078   -0.0000 C   0  0  0  0  0  0  0  0  0  0  0  0
  -14.9272   10.9088   -0.0000 C   0  0  0  0  0  0  0  0  0  0  0  0
  -16.2273   11.6652   -0.0000 N   0  0  0  0  0  0  0  0  0  0  0  0
  -17.5274   10.9324   -0.0000 C   0  0  0  0  0  0  0  0  0  0  0  0
  -17.5392    9.4551   -0.0000 O   0  0  0  0  0  0  0  0  0  0  0  0
  -18.8274   11.6888   -0.0000 C   0  0  0  0  0  0  0  0  0  0  0  0
  -19.5838   12.9889   -0.0000 C   0  0  0  0  0  0  0  0  0  0  0  0
  -20.3284   11.7007   -0.0000 C   0  0  0  0  0  0  0  0  0  0  0  0
  1  2  1  0  0  0  0
  2  3  2  0  0  0  0
  2  4  1  0  0  0  0
  3  5  1  0  0  0  0
  4  6  2  0  0  0  0
  5  7  2  0  0  0  0
  5  8  1  0  0  0  0
  8  9  1  1  0  0  0
  8 10  1  0  0  0  0
 10 11  1  0  0  0  0
 11 12  1  0  0  0  0
 12 13  2  0  0  0  0
 12 14  1  0  0  0  0
 13 15  1  0  0  0  0
 13 16  1  0  0  0  0
 14 17  2  0  0  0  0
 15 18  2  0  0  0  0
 15 19  1  0  0  0  0
 16 20  2  0  0  0  0
 16 21  1  0  0  0  0
 20 22  1  0  0  0  0
 21 23  1  0  0  0  0
 22 24  1  0  0  0  0
 23 25  1  0  0  0  0
 24 26  2  0  0  0  0
 24 27  1  0  0  0  0
 25 28  2  0  0  0  0
 28 29  1  0  0  0  0
 29 30  1  0  0  0  0
 29 31  1  0  0  0  0
 30 32  1  0  0  0  0
 31 33  1  0  0  0  0
 32 34  1  0  0  0  0
 34 35  1  0  0  0  0
 35 36  1  0  0  0  0
 36 37  2  0  0  0  0
 36 38  1  0  0  0  0
 38 39  1  0  0  0  0
 38 40  1  0  0  0  0
  6  7  1  0  0  0  0
 17 19  1  0  0  0  0
 22 23  2  0  0  0  0
 26 28  1  0  0  0  0
 33 34  1  0  0  0  0
 39 40  1  0  0  0  0
M  END
>  <MolRegNo>
468227

>  <m>
=

>  <Value>
0.7

>  <Unit>
nM

>  <Type>
IC50

>  <pValue>
9.15

>  <Ligand Efficiency>
0

>  <Binding Efficiency>
0

>  <Surface Efficiency>
0

>  <Assay Index>
336557

>  <Assay Category>


>  <Assay Organism>


>  <Target ID>
17045

>  <Target Name>
Cytochrome P450 3A4

>  <Target Organism>
Homo sapiens

>  <Target Description>
Target is a single protein chain

>  <Sequence Accession>
P08684

>  <Reference>
Bioorg Med Chem Lett 18 (14), 4075-4080 (2008)

>  <Pubmed ID>
18572407

>  <DOI>
10.1016/j.bmcl.2008.05.104

$$$$
468226
Actelion Java MolfileCreator 1.0

 39 44  0  0  0  0  0  0  0  0999 V2000
    0.0000   -0.0000   -0.0000 Cl  0  0  0  0  0  0  0  0  0  0  0  0
   -1.5029    0.0117   -0.0000 C   0  0  0  0  0  0  0  0  0  0  0  0
   -2.2661    1.3033   -0.0000 C   0  0  0  0  0  0  0  0  0  0  0  0
   -2.2543   -1.2798   -0.0000 C   0  0  0  0  0  0  0  0  0  0  0  0
   -3.7572    1.3150   -0.0000 C   0  0  0  0  0  0  0  0  0  0  0  0
   -3.7572   -1.2681   -0.0000 C   0  0  0  0  0  0  0  0  0  0  0  0
   -4.5204    0.0352   -0.0000 C   0  0  0  0  0  0  0  0  0  0  0  0
   -4.5086    2.6183   -0.0000 C   0  0  0  0  0  0  0  0  0  0  0  0
   -6.0115    2.6300   -0.0000 O   0  0  0  0  0  0  0  0  0  0  0  0
   -3.7689    3.9216   -0.0000 C   0  0  0  0  0  0  0  0  0  0  0  0
   -4.5204    5.2249   -0.0000 N   0  0  0  0  0  0  0  0  0  0  0  0
   -3.7807    6.5281   -0.0000 C   0  0  0  0  0  0  0  0  0  0  0  0
   -4.5321    7.8314   -0.0000 C   0  0  0  0  0  0  0  0  0  0  0  0
   -2.3013    6.5399   -0.0000 C   0  0  0  0  0  0  0  0  0  0  0  0
   -3.8042    9.1347   -0.0000 C   0  0  0  0  0  0  0  0  0  0  0  0
   -6.0233    7.8431   -0.0000 C   0  0  0  0  0  0  0  0  0  0  0  0
   -1.5616    7.8431   -0.0000 C   0  0  0  0  0  0  0  0  0  0  0  0
   -4.5673   10.4380   -0.0000 O   0  0  0  0  0  0  0  0  0  0  0  0
   -2.3248    9.1582   -0.0000 N   0  0  0  0  0  0  0  0  0  0  0  0
   -6.9156    6.6455   -0.0000 N   0  0  0  0  0  0  0  0  0  0  0  0
   -6.9156    9.0642   -0.0000 N   0  0  0  0  0  0  0  0  0  0  0  0
   -8.3598    7.1152   -0.0000 C   0  0  0  0  0  0  0  0  0  0  0  0
   -8.3598    8.6063   -0.0000 C   0  0  0  0  0  0  0  0  0  0  0  0
   -9.6630    6.3872   -0.0000 C   0  0  0  0  0  0  0  0  0  0  0  0
   -9.6630    9.3578   -0.0000 C   0  0  0  0  0  0  0  0  0  0  0  0
  -10.9663    7.1387   -0.0000 C   0  0  0  0  0  0  0  0  0  0  0  0
   -9.6748    4.9078   -0.0000 C   0  0  0  0  0  0  0  0  0  0  0  0
  -10.9546    8.6298   -0.0000 C   0  0  0  0  0  0  0  0  0  0  0  0
  -12.2579    9.3930   -0.0000 N   0  0  0  0  0  0  0  0  0  0  0  0
  -12.2696   10.8959   -0.0000 C   0  0  0  0  0  0  0  0  0  0  0  0
  -13.5611    8.6533   -0.0000 C   0  0  0  0  0  0  0  0  0  0  0  0
  -13.5611   11.6473   -0.0000 C   0  0  0  0  0  0  0  0  0  0  0  0
  -14.8644    9.4165   -0.0000 C   0  0  0  0  0  0  0  0  0  0  0  0
  -14.8644   10.9194   -0.0000 C   0  0  0  0  0  0  0  0  0  0  0  0
  -16.1677   11.6825   -0.0000 N   0  0  0  0  0  0  0  0  0  0  0  0
  -16.3203   13.1737   -0.0000 C   0  0  0  0  0  0  0  0  0  0  0  0
  -17.5414   11.0837   -0.0000 C   0  0  0  0  0  0  0  0  0  0  0  0
  -17.7880   13.5024   -0.0000 C   0  0  0  0  0  0  0  0  0  0  0  0
  -18.5512   12.2109   -0.0000 C   0  0  0  0  0  0  0  0  0  0  0  0
  1  2  1  0  0  0  0
  2  3  2  0  0  0  0
  2  4  1  0  0  0  0
  3  5  1  0  0  0  0
  4  6  2  0  0  0  0
  5  7  2  0  0  0  0
  5  8  1  0  0  0  0
  8  9  1  1  0  0  0
  8 10  1  0  0  0  0
 10 11  1  0  0  0  0
 11 12  1  0  0  0  0
 12 13  2  0  0  0  0
 12 14  1  0  0  0  0
 13 15  1  0  0  0  0
 13 16  1  0  0  0  0
 14 17  2  0  0  0  0
 15 18  2  0  0  0  0
 15 19  1  0  0  0  0
 16 20  2  0  0  0  0
 16 21  1  0  0  0  0
 20 22  1  0  0  0  0
 21 23  1  0  0  0  0
 22 24  1  0  0  0  0
 23 25  1  0  0  0  0
 24 26  2  0  0  0  0
 24 27  1  0  0  0  0
 25 28  2  0  0  0  0
 28 29  1  0  0  0  0
 29 30  1  0  0  0  0
 29 31  1  0  0  0  0
 30 32  1  0  0  0  0
 31 33  1  0  0  0  0
 32 34  1  0  0  0  0
 34 35  1  0  0  0  0
 35 36  1  0  0  0  0
 35 37  1  0  0  0  0
 36 38  1  0  0  0  0
 37 39  1  0  0  0  0
  6  7  1  0  0  0  0
 17 19  1  0  0  0  0
 22 23  2  0  0  0  0
 26 28  1  0  0  0  0
 33 34  1  0  0  0  0
 38 39  1  0  0  0  0
M  END
>  <MolRegNo>
468226

>  <m>
=

>  <Value>
4.5

>  <Unit>
nM

>  <Type>
IC50

>  <pValue>
8.35

>  <Ligand Efficiency>
0

>  <Binding Efficiency>
0

>  <Surface Efficiency>
0

>  <Assay Index>
336557

>  <Assay Category>


>  <Assay Organism>


>  <Target ID>
17045

>  <Target Name>
Cytochrome P450 3A4

>  <Target Organism>
Homo sapiens

>  <Target Description>
Target is a single protein chain

>  <Sequence Accession>
P08684

>  <Reference>
Bioorg Med Chem Lett 18 (14), 4075-4080 (2008)

>  <Pubmed ID>
18572407

>  <DOI>
10.1016/j.bmcl.2008.05.104

$$$$
468154
Actelion Java MolfileCreator 1.0

 37 41  0  0  0  0  0  0  0  0999 V2000
    0.0000   -0.0000   -0.0000 Cl  0  0  0  0  0  0  0  0  0  0  0  0
   -1.5033    0.0117   -0.0000 C   0  0  0  0  0  0  0  0  0  0  0  0
   -2.2668    1.3037   -0.0000 C   0  0  0  0  0  0  0  0  0  0  0  0
   -2.2550   -1.2802   -0.0000 C   0  0  0  0  0  0  0  0  0  0  0  0
   -3.7584    1.3154   -0.0000 C   0  0  0  0  0  0  0  0  0  0  0  0
   -3.7584   -1.2685   -0.0000 C   0  0  0  0  0  0  0  0  0  0  0  0
   -4.5218    0.0352   -0.0000 C   0  0  0  0  0  0  0  0  0  0  0  0
   -4.5100    2.6191   -0.0000 C   0  0  0  0  0  0  0  0  0  0  0  0
   -6.0134    2.6309   -0.0000 O   0  0  0  0  0  0  0  0  0  0  0  0
   -3.7701    3.9228   -0.0000 C   0  0  0  0  0  0  0  0  0  0  0  0
   -4.5218    5.2265   -0.0000 N   0  0  0  0  0  0  0  0  0  0  0  0
   -3.7819    6.5302   -0.0000 C   0  0  0  0  0  0  0  0  0  0  0  0
   -4.5335    7.8339   -0.0000 C   0  0  0  0  0  0  0  0  0  0  0  0
   -2.3020    6.5419   -0.0000 C   0  0  0  0  0  0  0  0  0  0  0  0
   -3.8054    9.1375   -0.0000 C   0  0  0  0  0  0  0  0  0  0  0  0
   -6.0251    7.8456   -0.0000 C   0  0  0  0  0  0  0  0  0  0  0  0
   -1.5621    7.8456   -0.0000 C   0  0  0  0  0  0  0  0  0  0  0  0
   -4.5688   10.4412   -0.0000 O   0  0  0  0  0  0  0  0  0  0  0  0
   -2.3255    9.1610   -0.0000 N   0  0  0  0  0  0  0  0  0  0  0  0
   -6.9178    6.6476   -0.0000 N   0  0  0  0  0  0  0  0  0  0  0  0
   -6.9178    9.0671   -0.0000 N   0  0  0  0  0  0  0  0  0  0  0  0
   -8.3624    7.1174   -0.0000 C   0  0  0  0  0  0  0  0  0  0  0  0
   -8.3624    8.6090   -0.0000 C   0  0  0  0  0  0  0  0  0  0  0  0
   -9.6661    6.3892   -0.0000 C   0  0  0  0  0  0  0  0  0  0  0  0
   -9.6661    9.3607   -0.0000 C   0  0  0  0  0  0  0  0  0  0  0  0
  -10.9698    7.1409   -0.0000 C   0  0  0  0  0  0  0  0  0  0  0  0
   -9.6778    4.9094   -0.0000 C   0  0  0  0  0  0  0  0  0  0  0  0
  -10.9580    8.6325   -0.0000 C   0  0  0  0  0  0  0  0  0  0  0  0
  -12.2617    9.3959   -0.0000 N   0  0  0  0  0  0  0  0  0  0  0  0
  -12.2734   10.8993   -0.0000 C   0  0  0  0  0  0  0  0  0  0  0  0
  -13.5654    8.6560   -0.0000 C   0  0  0  0  0  0  0  0  0  0  0  0
  -13.5654   11.6510   -0.0000 C   0  0  0  0  0  0  0  0  0  0  0  0
  -14.8691    9.4194   -0.0000 C   0  0  0  0  0  0  0  0  0  0  0  0
  -14.8691   10.9228   -0.0000 C   0  0  0  0  0  0  0  0  0  0  0  0
  -16.1728   11.6862   -0.0000 N   0  0  0  0  0  0  0  0  0  0  0  0
  -16.1845   13.1895   -0.0000 C   0  0  0  0  0  0  0  0  0  0  0  0
  -17.4764   10.9580   -0.0000 C   0  0  0  0  0  0  0  0  0  0  0  0
  1  2  1  0  0  0  0
  2  3  2  0  0  0  0
  2  4  1  0  0  0  0
  3  5  1  0  0  0  0
  4  6  2  0  0  0  0
  5  7  2  0  0  0  0
  5  8  1  0  0  0  0
  8  9  1  1  0  0  0
  8 10  1  0  0  0  0
 10 11  1  0  0  0  0
 11 12  1  0  0  0  0
 12 13  2  0  0  0  0
 12 14  1  0  0  0  0
 13 15  1  0  0  0  0
 13 16  1  0  0  0  0
 14 17  2  0  0  0  0
 15 18  2  0  0  0  0
 15 19  1  0  0  0  0
 16 20  2  0  0  0  0
 16 21  1  0  0  0  0
 20 22  1  0  0  0  0
 21 23  1  0  0  0  0
 22 24  1  0  0  0  0
 23 25  1  0  0  0  0
 24 26  2  0  0  0  0
 24 27  1  0  0  0  0
 25 28  2  0  0  0  0
 28 29  1  0  0  0  0
 29 30  1  0  0  0  0
 29 31  1  0  0  0  0
 30 32  1  0  0  0  0
 31 33  1  0  0  0  0
 32 34  1  0  0  0  0
 34 35  1  0  0  0  0
 35 36  1  0  0  0  0
 35 37  1  0  0  0  0
  6  7  1  0  0  0  0
 17 19  1  0  0  0  0
 22 23  2  0  0  0  0
 26 28  1  0  0  0  0
 33 34  1  0  0  0  0
M  END
>  <MolRegNo>
468154

>  <m>
=

>  <Value>
3.9

>  <Unit>
nM

>  <Type>
IC50

>  <pValue>
8.41

>  <Ligand Efficiency>
0

>  <Binding Efficiency>
0

>  <Surface Efficiency>
0

>  <Assay Index>
336557

>  <Assay Category>


>  <Assay Organism>


>  <Target ID>
17045

>  <Target Name>
Cytochrome P450 3A4

>  <Target Organism>
Homo sapiens

>  <Target Description>
Target is a single protein chain

>  <Sequence Accession>
P08684

>  <Reference>
Bioorg Med Chem Lett 18 (14), 4075-4080 (2008)

>  <Pubmed ID>
18572407

>  <DOI>
10.1016/j.bmcl.2008.05.104

$$$$
468153
Actelion Java MolfileCreator 1.0

 36 40  0  0  0  0  0  0  0  0999 V2000
    0.0000   -0.0000   -0.0000 Cl  0  0  0  0  0  0  0  0  0  0  0  0
   -1.5033    0.0117   -0.0000 C   0  0  0  0  0  0  0  0  0  0  0  0
   -2.2667    1.3037   -0.0000 C   0  0  0  0  0  0  0  0  0  0  0  0
   -2.2550   -1.2802   -0.0000 C   0  0  0  0  0  0  0  0  0  0  0  0
   -3.7583    1.3154   -0.0000 C   0  0  0  0  0  0  0  0  0  0  0  0
   -3.7583   -1.2684   -0.0000 C   0  0  0  0  0  0  0  0  0  0  0  0
   -4.5217    0.0352   -0.0000 C   0  0  0  0  0  0  0  0  0  0  0  0
   -4.5100    2.6191   -0.0000 C   0  0  0  0  0  0  0  0  0  0  0  0
   -6.0133    2.6308   -0.0000 O   0  0  0  0  0  0  0  0  0  0  0  0
   -3.7818    3.9227   -0.0000 C   0  0  0  0  0  0  0  0  0  0  0  0
   -4.5335    5.2264   -0.0000 N   0  0  0  0  0  0  0  0  0  0  0  0
   -3.7935    6.5301   -0.0000 C   0  0  0  0  0  0  0  0  0  0  0  0
   -4.5452    7.8337   -0.0000 C   0  0  0  0  0  0  0  0  0  0  0  0
   -2.3137    6.5418   -0.0000 C   0  0  0  0  0  0  0  0  0  0  0  0
   -3.8170    9.1374   -0.0000 C   0  0  0  0  0  0  0  0  0  0  0  0
   -6.0368    7.8455   -0.0000 C   0  0  0  0  0  0  0  0  0  0  0  0
   -1.5738    7.8455   -0.0000 C   0  0  0  0  0  0  0  0  0  0  0  0
   -4.5804   10.4411   -0.0000 O   0  0  0  0  0  0  0  0  0  0  0  0
   -2.3372    9.1609   -0.0000 N   0  0  0  0  0  0  0  0  0  0  0  0
   -6.9294    6.6475   -0.0000 N   0  0  0  0  0  0  0  0  0  0  0  0
   -6.9294    9.0669   -0.0000 N   0  0  0  0  0  0  0  0  0  0  0  0
   -8.3740    7.1173   -0.0000 C   0  0  0  0  0  0  0  0  0  0  0  0
   -8.3740    8.6089   -0.0000 C   0  0  0  0  0  0  0  0  0  0  0  0
   -9.6777    6.3891   -0.0000 C   0  0  0  0  0  0  0  0  0  0  0  0
   -9.6777    9.3605   -0.0000 C   0  0  0  0  0  0  0  0  0  0  0  0
  -10.9813    7.1408   -0.0000 C   0  0  0  0  0  0  0  0  0  0  0  0
   -9.6894    4.9093   -0.0000 C   0  0  0  0  0  0  0  0  0  0  0  0
  -10.9696    8.6324   -0.0000 C   0  0  0  0  0  0  0  0  0  0  0  0
  -12.2732    9.3958   -0.0000 N   0  0  0  0  0  0  0  0  0  0  0  0
  -12.2850   10.8991   -0.0000 C   0  0  0  0  0  0  0  0  0  0  0  0
  -13.5769    8.6559   -0.0000 C   0  0  0  0  0  0  0  0  0  0  0  0
  -13.5769   11.6508   -0.0000 C   0  0  0  0  0  0  0  0  0  0  0  0
  -14.8806    9.4193   -0.0000 C   0  0  0  0  0  0  0  0  0  0  0  0
  -14.8806   10.9226   -0.0000 C   0  0  0  0  0  0  0  0  0  0  0  0
  -16.1842   11.6860   -0.0000 N   0  0  0  0  0  0  0  0  0  0  0  0
  -16.1960   13.1893   -0.0000 C   0  0  0  0  0  0  0  0  0  0  0  0
  1  2  1  0  0  0  0
  2  3  2  0  0  0  0
  2  4  1  0  0  0  0
  3  5  1  0  0  0  0
  4  6  2  0  0  0  0
  5  7  2  0  0  0  0
  5  8  1  0  0  0  0
  8  9  1  1  0  0  0
  8 10  1  0  0  0  0
 10 11  1  0  0  0  0
 11 12  1  0  0  0  0
 12 13  2  0  0  0  0
 12 14  1  0  0  0  0
 13 15  1  0  0  0  0
 13 16  1  0  0  0  0
 14 17  2  0  0  0  0
 15 18  2  0  0  0  0
 15 19  1  0  0  0  0
 16 20  2  0  0  0  0
 16 21  1  0  0  0  0
 20 22  1  0  0  0  0
 21 23  1  0  0  0  0
 22 24  1  0  0  0  0
 23 25  1  0  0  0  0
 24 26  2  0  0  0  0
 24 27  1  0  0  0  0
 25 28  2  0  0  0  0
 28 29  1  0  0  0  0
 29 30  1  0  0  0  0
 29 31  1  0  0  0  0
 30 32  1  0  0  0  0
 31 33  1  0  0  0  0
 32 34  1  0  0  0  0
 34 35  1  0  0  0  0
 35 36  1  0  0  0  0
  6  7  1  0  0  0  0
 17 19  1  0  0  0  0
 22 23  2  0  0  0  0
 26 28  1  0  0  0  0
 33 34  1  0  0  0  0
M  END
>  <MolRegNo>
468153

>  <m>
=

>  <Value>
2.6

>  <Unit>
nM

>  <Type>
IC50

>  <pValue>
8.59

>  <Ligand Efficiency>
0

>  <Binding Efficiency>
0

>  <Surface Efficiency>
0

>  <Assay Index>
336557

>  <Assay Category>


>  <Assay Organism>


>  <Target ID>
17045

>  <Target Name>
Cytochrome P450 3A4

>  <Target Organism>
Homo sapiens

>  <Target Description>
Target is a single protein chain

>  <Sequence Accession>
P08684

>  <Reference>
Bioorg Med Chem Lett 18 (14), 4075-4080 (2008)

>  <Pubmed ID>
18572407

>  <DOI>
10.1016/j.bmcl.2008.05.104

$$$$
468152
Actelion Java MolfileCreator 1.0

 38 43  0  0  0  0  0  0  0  0999 V2000
    0.0000   -0.0000   -0.0000 Cl  0  0  0  0  0  0  0  0  0  0  0  0
   -1.4998   -0.0000   -0.0000 C   0  0  0  0  0  0  0  0  0  0  0  0
   -2.2674    1.2872   -0.0000 C   0  0  0  0  0  0  0  0  0  0  0  0
   -2.2556   -1.2872   -0.0000 C   0  0  0  0  0  0  0  0  0  0  0  0
   -3.7554    1.2872   -0.0000 C   0  0  0  0  0  0  0  0  0  0  0  0
   -3.7554   -1.2754   -0.0000 C   0  0  0  0  0  0  0  0  0  0  0  0
   -4.5112    0.0118   -0.0000 C   0  0  0  0  0  0  0  0  0  0  0  0
   -4.5112    2.5863   -0.0000 C   0  0  0  0  0  0  0  0  0  0  0  0
   -6.0111    2.5154   -0.0000 O   0  0  0  0  0  0  0  0  0  0  0  0
   -3.7791    3.8853   -0.0000 C   0  0  0  0  0  0  0  0  0  0  0  0
   -4.5349    5.1844   -0.0000 N   0  0  0  0  0  0  0  0  0  0  0  0
   -3.8027    6.4834   -0.0000 C   0  0  0  0  0  0  0  0  0  0  0  0
   -4.5585    7.7943   -0.0000 C   0  0  0  0  0  0  0  0  0  0  0  0
   -2.3265    6.4953   -0.0000 C   0  0  0  0  0  0  0  0  0  0  0  0
   -3.8263    9.0934   -0.0000 C   0  0  0  0  0  0  0  0  0  0  0  0
   -6.0583    7.8061   -0.0000 C   0  0  0  0  0  0  0  0  0  0  0  0
   -1.5943    7.7943   -0.0000 C   0  0  0  0  0  0  0  0  0  0  0  0
   -4.5821   10.3924   -0.0000 O   0  0  0  0  0  0  0  0  0  0  0  0
   -2.3501    9.1170   -0.0000 N   0  0  0  0  0  0  0  0  0  0  0  0
   -6.9558    6.6015   -0.0000 N   0  0  0  0  0  0  0  0  0  0  0  0
   -6.9558    9.0343   -0.0000 N   0  0  0  0  0  0  0  0  0  0  0  0
   -8.3966    7.0739   -0.0000 C   0  0  0  0  0  0  0  0  0  0  0  0
   -8.3966    8.5855   -0.0000 C   0  0  0  0  0  0  0  0  0  0  0  0
   -9.6956    6.3417   -0.0000 C   0  0  0  0  0  0  0  0  0  0  0  0
   -9.6956    9.3414   -0.0000 C   0  0  0  0  0  0  0  0  0  0  0  0
  -10.9947    7.0975   -0.0000 C   0  0  0  0  0  0  0  0  0  0  0  0
   -9.7074    4.8655   -0.0000 C   0  0  0  0  0  0  0  0  0  0  0  0
  -10.9947    8.6092   -0.0000 C   0  0  0  0  0  0  0  0  0  0  0  0
  -12.2937    9.3650   -0.0000 N   0  0  0  0  0  0  0  0  0  0  0  0
  -12.3055   10.8766   -0.0000 C   0  0  0  0  0  0  0  0  0  0  0  0
  -13.6046    8.6328   -0.0000 C   0  0  0  0  0  0  0  0  0  0  0  0
  -13.6046   11.6324   -0.0000 C   0  0  0  0  0  0  0  0  0  0  0  0
  -14.9036    9.4004   -0.0000 C   0  0  0  0  0  0  0  0  0  0  0  0
  -14.9036   10.9120   -0.0000 C   0  0  0  0  0  0  0  0  0  0  0  0
  -14.7974   12.4118   -0.0000 O   0  0  0  0  0  0  0  0  0  0  0  0
  -16.3680   10.5814   -0.0000 O   0  0  0  0  0  0  0  0  0  0  0  0
  -16.1909   13.0023   -0.0000 C   0  0  0  0  0  0  0  0  0  0  0  0
  -17.1593   11.8686   -0.0000 C   0  0  0  0  0  0  0  0  0  0  0  0
  1  2  1  0  0  0  0
  2  3  2  0  0  0  0
  2  4  1  0  0  0  0
  3  5  1  0  0  0  0
  4  6  2  0  0  0  0
  5  7  2  0  0  0  0
  5  8  1  0  0  0  0
  8  9  1  1  0  0  0
  8 10  1  0  0  0  0
 10 11  1  0  0  0  0
 11 12  1  0  0  0  0
 12 13  2  0  0  0  0
 12 14  1  0  0  0  0
 13 15  1  0  0  0  0
 13 16  1  0  0  0  0
 14 17  2  0  0  0  0
 15 18  2  0  0  0  0
 15 19  1  0  0  0  0
 16 20  2  0  0  0  0
 16 21  1  0  0  0  0
 20 22  1  0  0  0  0
 21 23  1  0  0  0  0
 22 24  1  0  0  0  0
 23 25  1  0  0  0  0
 24 26  2  0  0  0  0
 24 27  1  0  0  0  0
 25 28  2  0  0  0  0
 28 29  1  0  0  0  0
 29 30  1  0  0  0  0
 29 31  1  0  0  0  0
 30 32  1  0  0  0  0
 31 33  1  0  0  0  0
 32 34  1  0  0  0  0
 34 35  1  0  0  0  0
 34 36  1  0  0  0  0
 35 37  1  0  0  0  0
 36 38  1  0  0  0  0
  6  7  1  0  0  0  0
 17 19  1  0  0  0  0
 22 23  2  0  0  0  0
 26 28  1  0  0  0  0
 33 34  1  0  0  0  0
 37 38  1  0  0  0  0
M  END
>  <MolRegNo>
468152

>  <m>
=

>  <Value>
0.7

>  <Unit>
nM

>  <Type>
IC50

>  <pValue>
9.15

>  <Ligand Efficiency>
0

>  <Binding Efficiency>
0

>  <Surface Efficiency>
0

>  <Assay Index>
336557

>  <Assay Category>


>  <Assay Organism>


>  <Target ID>
17045

>  <Target Name>
Cytochrome P450 3A4

>  <Target Organism>
Homo sapiens

>  <Target Description>
Target is a single protein chain

>  <Sequence Accession>
P08684

>  <Reference>
Bioorg Med Chem Lett 18 (14), 4075-4080 (2008)

>  <Pubmed ID>
18572407

>  <DOI>
10.1016/j.bmcl.2008.05.104

$$$$
468089
Actelion Java MolfileCreator 1.0

 38 42  0  0  0  0  0  0  0  0999 V2000
    0.0000   -0.0000   -0.0000 Cl  0  0  0  0  0  0  0  0  0  0  0  0
   -1.5031    0.0117   -0.0000 C   0  0  0  0  0  0  0  0  0  0  0  0
   -2.2664    1.3035   -0.0000 C   0  0  0  0  0  0  0  0  0  0  0  0
   -2.2546   -1.2800   -0.0000 C   0  0  0  0  0  0  0  0  0  0  0  0
   -3.7577    1.3152   -0.0000 C   0  0  0  0  0  0  0  0  0  0  0  0
   -3.7577   -1.2682   -0.0000 C   0  0  0  0  0  0  0  0  0  0  0  0
   -4.5210    0.0352   -0.0000 C   0  0  0  0  0  0  0  0  0  0  0  0
   -4.5093    2.6187   -0.0000 C   0  0  0  0  0  0  0  0  0  0  0  0
   -6.0124    2.6304   -0.0000 O   0  0  0  0  0  0  0  0  0  0  0  0
   -3.7695    3.9221   -0.0000 C   0  0  0  0  0  0  0  0  0  0  0  0
   -4.5210    5.2256   -0.0000 N   0  0  0  0  0  0  0  0  0  0  0  0
   -3.7812    6.5291   -0.0000 C   0  0  0  0  0  0  0  0  0  0  0  0
   -4.5328    7.8325   -0.0000 C   0  0  0  0  0  0  0  0  0  0  0  0
   -2.3016    6.5408   -0.0000 C   0  0  0  0  0  0  0  0  0  0  0  0
   -3.8047    9.1360   -0.0000 C   0  0  0  0  0  0  0  0  0  0  0  0
   -6.0241    7.8443   -0.0000 C   0  0  0  0  0  0  0  0  0  0  0  0
   -1.5618    7.8443   -0.0000 C   0  0  0  0  0  0  0  0  0  0  0  0
   -4.5680   10.4394   -0.0000 O   0  0  0  0  0  0  0  0  0  0  0  0
   -2.3251    9.1595   -0.0000 N   0  0  0  0  0  0  0  0  0  0  0  0
   -6.9166    6.6465   -0.0000 N   0  0  0  0  0  0  0  0  0  0  0  0
   -6.9166    9.0655   -0.0000 N   0  0  0  0  0  0  0  0  0  0  0  0
   -8.3610    7.1162   -0.0000 C   0  0  0  0  0  0  0  0  0  0  0  0
   -8.3610    8.6076   -0.0000 C   0  0  0  0  0  0  0  0  0  0  0  0
   -9.6644    6.3881   -0.0000 C   0  0  0  0  0  0  0  0  0  0  0  0
   -9.6644    9.3591   -0.0000 C   0  0  0  0  0  0  0  0  0  0  0  0
  -10.9679    7.1397   -0.0000 C   0  0  0  0  0  0  0  0  0  0  0  0
   -9.6762    4.9085   -0.0000 C   0  0  0  0  0  0  0  0  0  0  0  0
  -10.9561    8.6310   -0.0000 C   0  0  0  0  0  0  0  0  0  0  0  0
  -12.2596    9.3943   -0.0000 N   0  0  0  0  0  0  0  0  0  0  0  0
  -12.2713   10.8974   -0.0000 C   0  0  0  0  0  0  0  0  0  0  0  0
  -13.5631    8.6545   -0.0000 C   0  0  0  0  0  0  0  0  0  0  0  0
  -13.5631   11.6490   -0.0000 C   0  0  0  0  0  0  0  0  0  0  0  0
  -14.8665    9.4178   -0.0000 C   0  0  0  0  0  0  0  0  0  0  0  0
  -14.8665   10.9209   -0.0000 C   0  0  0  0  0  0  0  0  0  0  0  0
  -16.1700   11.6842   -0.0000 O   0  0  0  0  0  0  0  0  0  0  0  0
  -17.4735   10.9561   -0.0000 C   0  0  0  0  0  0  0  0  0  0  0  0
  -18.7769   11.7194   -0.0000 C   0  0  0  0  0  0  0  0  0  0  0  0
  -18.7887   13.2225   -0.0000 O   0  0  0  0  0  0  0  0  0  0  0  0
  1  2  1  0  0  0  0
  2  3  2  0  0  0  0
  2  4  1  0  0  0  0
  3  5  1  0  0  0  0
  4  6  2  0  0  0  0
  5  7  2  0  0  0  0
  5  8  1  0  0  0  0
  8  9  1  1  0  0  0
  8 10  1  0  0  0  0
 10 11  1  0  0  0  0
 11 12  1  0  0  0  0
 12 13  2  0  0  0  0
 12 14  1  0  0  0  0
 13 15  1  0  0  0  0
 13 16  1  0  0  0  0
 14 17  2  0  0  0  0
 15 18  2  0  0  0  0
 15 19  1  0  0  0  0
 16 20  2  0  0  0  0
 16 21  1  0  0  0  0
 20 22  1  0  0  0  0
 21 23  1  0  0  0  0
 22 24  1  0  0  0  0
 23 25  1  0  0  0  0
 24 26  2  0  0  0  0
 24 27  1  0  0  0  0
 25 28  2  0  0  0  0
 28 29  1  0  0  0  0
 29 30  1  0  0  0  0
 29 31  1  0  0  0  0
 30 32  1  0  0  0  0
 31 33  1  0  0  0  0
 32 34  1  0  0  0  0
 34 35  1  0  0  0  0
 35 36  1  0  0  0  0
 36 37  1  0  0  0  0
 37 38  1  0  0  0  0
  6  7  1  0  0  0  0
 17 19  1  0  0  0  0
 22 23  2  0  0  0  0
 26 28  1  0  0  0  0
 33 34  1  0  0  0  0
M  END
>  <MolRegNo>
468089

>  <m>
=

>  <Value>
1.3

>  <Unit>
nM

>  <Type>
IC50

>  <pValue>
8.89

>  <Ligand Efficiency>
0

>  <Binding Efficiency>
0

>  <Surface Efficiency>
0

>  <Assay Index>
336557

>  <Assay Category>


>  <Assay Organism>


>  <Target ID>
17045

>  <Target Name>
Cytochrome P450 3A4

>  <Target Organism>
Homo sapiens

>  <Target Description>
Target is a single protein chain

>  <Sequence Accession>
P08684

>  <Reference>
Bioorg Med Chem Lett 18 (14), 4075-4080 (2008)

>  <Pubmed ID>
18572407

>  <DOI>
10.1016/j.bmcl.2008.05.104

$$$$
468088
Actelion Java MolfileCreator 1.0

 39 43  0  0  0  0  0  0  0  0999 V2000
    0.0000   -0.0000   -0.0000 Cl  0  0  0  0  0  0  0  0  0  0  0  0
   -1.5028    0.0117   -0.0000 C   0  0  0  0  0  0  0  0  0  0  0  0
   -2.2660    1.3033   -0.0000 C   0  0  0  0  0  0  0  0  0  0  0  0
   -2.2543   -1.2798   -0.0000 C   0  0  0  0  0  0  0  0  0  0  0  0
   -3.7571    1.3150   -0.0000 C   0  0  0  0  0  0  0  0  0  0  0  0
   -3.7571   -1.2680   -0.0000 C   0  0  0  0  0  0  0  0  0  0  0  0
   -4.5203    0.0352   -0.0000 C   0  0  0  0  0  0  0  0  0  0  0  0
   -4.5085    2.6182   -0.0000 C   0  0  0  0  0  0  0  0  0  0  0  0
   -6.0114    2.6300   -0.0000 O   0  0  0  0  0  0  0  0  0  0  0  0
   -3.7689    3.9215   -0.0000 C   0  0  0  0  0  0  0  0  0  0  0  0
   -4.5203    5.2247   -0.0000 N   0  0  0  0  0  0  0  0  0  0  0  0
   -3.7806    6.5280   -0.0000 C   0  0  0  0  0  0  0  0  0  0  0  0
   -4.5320    7.8312   -0.0000 C   0  0  0  0  0  0  0  0  0  0  0  0
   -2.3012    6.5397   -0.0000 C   0  0  0  0  0  0  0  0  0  0  0  0
   -3.8041    9.1345   -0.0000 C   0  0  0  0  0  0  0  0  0  0  0  0
   -6.0231    7.8430   -0.0000 C   0  0  0  0  0  0  0  0  0  0  0  0
   -1.5616    7.8430   -0.0000 C   0  0  0  0  0  0  0  0  0  0  0  0
   -4.5672   10.4377   -0.0000 O   0  0  0  0  0  0  0  0  0  0  0  0
   -2.3247    9.1580   -0.0000 N   0  0  0  0  0  0  0  0  0  0  0  0
   -6.9154    6.6454   -0.0000 N   0  0  0  0  0  0  0  0  0  0  0  0
   -6.9154    9.0641   -0.0000 N   0  0  0  0  0  0  0  0  0  0  0  0
   -8.3596    7.1150   -0.0000 C   0  0  0  0  0  0  0  0  0  0  0  0
   -8.3596    8.6062   -0.0000 C   0  0  0  0  0  0  0  0  0  0  0  0
   -9.6628    6.3871   -0.0000 C   0  0  0  0  0  0  0  0  0  0  0  0
   -9.6628    9.3576   -0.0000 C   0  0  0  0  0  0  0  0  0  0  0  0
  -10.9661    7.1385   -0.0000 C   0  0  0  0  0  0  0  0  0  0  0  0
   -9.6746    4.9077   -0.0000 C   0  0  0  0  0  0  0  0  0  0  0  0
  -10.9544    8.6296   -0.0000 C   0  0  0  0  0  0  0  0  0  0  0  0
  -12.2576    9.3928   -0.0000 N   0  0  0  0  0  0  0  0  0  0  0  0
  -12.2693   10.8956   -0.0000 C   0  0  0  0  0  0  0  0  0  0  0  0
  -13.5609    8.6531   -0.0000 C   0  0  0  0  0  0  0  0  0  0  0  0
  -13.5609   11.6471   -0.0000 C   0  0  0  0  0  0  0  0  0  0  0  0
  -14.8641    9.4163   -0.0000 C   0  0  0  0  0  0  0  0  0  0  0  0
  -14.8641   10.9191   -0.0000 C   0  0  0  0  0  0  0  0  0  0  0  0
  -16.1674   11.6823   -0.0000 O   0  0  0  0  0  0  0  0  0  0  0  0
  -17.4706   10.9544   -0.0000 C   0  0  0  0  0  0  0  0  0  0  0  0
  -18.7739   11.7175   -0.0000 C   0  0  0  0  0  0  0  0  0  0  0  0
  -18.7856   13.2204   -0.0000 O   0  0  0  0  0  0  0  0  0  0  0  0
  -20.0888   13.9835   -0.0000 C   0  0  0  0  0  0  0  0  0  0  0  0
  1  2  1  0  0  0  0
  2  3  2  0  0  0  0
  2  4  1  0  0  0  0
  3  5  1  0  0  0  0
  4  6  2  0  0  0  0
  5  7  2  0  0  0  0
  5  8  1  0  0  0  0
  8  9  1  1  0  0  0
  8 10  1  0  0  0  0
 10 11  1  0  0  0  0
 11 12  1  0  0  0  0
 12 13  2  0  0  0  0
 12 14  1  0  0  0  0
 13 15  1  0  0  0  0
 13 16  1  0  0  0  0
 14 17  2  0  0  0  0
 15 18  2  0  0  0  0
 15 19  1  0  0  0  0
 16 20  2  0  0  0  0
 16 21  1  0  0  0  0
 20 22  1  0  0  0  0
 21 23  1  0  0  0  0
 22 24  1  0  0  0  0
 23 25  1  0  0  0  0
 24 26  2  0  0  0  0
 24 27  1  0  0  0  0
 25 28  2  0  0  0  0
 28 29  1  0  0  0  0
 29 30  1  0  0  0  0
 29 31  1  0  0  0  0
 30 32  1  0  0  0  0
 31 33  1  0  0  0  0
 32 34  1  0  0  0  0
 34 35  1  0  0  0  0
 35 36  1  0  0  0  0
 36 37  1  0  0  0  0
 37 38  1  0  0  0  0
 38 39  1  0  0  0  0
  6  7  1  0  0  0  0
 17 19  1  0  0  0  0
 22 23  2  0  0  0  0
 26 28  1  0  0  0  0
 33 34  1  0  0  0  0
M  END
>  <MolRegNo>
468088

>  <m>
=

>  <Value>
0.9

>  <Unit>
nM

>  <Type>
IC50

>  <pValue>
9.05

>  <Ligand Efficiency>
0

>  <Binding Efficiency>
0

>  <Surface Efficiency>
0

>  <Assay Index>
336557

>  <Assay Category>


>  <Assay Organism>


>  <Target ID>
17045

>  <Target Name>
Cytochrome P450 3A4

>  <Target Organism>
Homo sapiens

>  <Target Description>
Target is a single protein chain

>  <Sequence Accession>
P08684

>  <Reference>
Bioorg Med Chem Lett 18 (14), 4075-4080 (2008)

>  <Pubmed ID>
18572407

>  <DOI>
10.1016/j.bmcl.2008.05.104

$$$$
468087
Actelion Java MolfileCreator 1.0

 36 40  0  0  0  0  0  0  0  0999 V2000
    0.0000   -0.0000   -0.0000 Cl  0  0  0  0  0  0  0  0  0  0  0  0
   -1.5032    0.0117   -0.0000 C   0  0  0  0  0  0  0  0  0  0  0  0
   -2.2665    1.3035   -0.0000 C   0  0  0  0  0  0  0  0  0  0  0  0
   -2.2548   -1.2801   -0.0000 C   0  0  0  0  0  0  0  0  0  0  0  0
   -3.7580    1.3153   -0.0000 C   0  0  0  0  0  0  0  0  0  0  0  0
   -3.7580   -1.2683   -0.0000 C   0  0  0  0  0  0  0  0  0  0  0  0
   -4.5213    0.0352   -0.0000 C   0  0  0  0  0  0  0  0  0  0  0  0
   -4.5095    2.6188   -0.0000 C   0  0  0  0  0  0  0  0  0  0  0  0
   -6.0127    2.6306   -0.0000 O   0  0  0  0  0  0  0  0  0  0  0  0
   -3.7697    3.9224   -0.0000 C   0  0  0  0  0  0  0  0  0  0  0  0
   -4.5213    5.2259   -0.0000 N   0  0  0  0  0  0  0  0  0  0  0  0
   -3.7814    6.5294   -0.0000 C   0  0  0  0  0  0  0  0  0  0  0  0
   -4.5330    7.8330   -0.0000 C   0  0  0  0  0  0  0  0  0  0  0  0
   -2.3017    6.5412   -0.0000 C   0  0  0  0  0  0  0  0  0  0  0  0
   -3.8049    9.1365   -0.0000 C   0  0  0  0  0  0  0  0  0  0  0  0
   -6.0245    7.8447   -0.0000 C   0  0  0  0  0  0  0  0  0  0  0  0
   -1.5619    7.8447   -0.0000 C   0  0  0  0  0  0  0  0  0  0  0  0
   -4.5683   10.4401   -0.0000 O   0  0  0  0  0  0  0  0  0  0  0  0
   -2.3252    9.1600   -0.0000 N   0  0  0  0  0  0  0  0  0  0  0  0
   -6.9170    6.6469   -0.0000 N   0  0  0  0  0  0  0  0  0  0  0  0
   -6.9170    9.0661   -0.0000 N   0  0  0  0  0  0  0  0  0  0  0  0
   -8.3614    7.1166   -0.0000 C   0  0  0  0  0  0  0  0  0  0  0  0
   -8.3614    8.6081   -0.0000 C   0  0  0  0  0  0  0  0  0  0  0  0
   -9.6650    6.3885   -0.0000 C   0  0  0  0  0  0  0  0  0  0  0  0
   -9.6650    9.3596   -0.0000 C   0  0  0  0  0  0  0  0  0  0  0  0
  -10.9685    7.1401   -0.0000 C   0  0  0  0  0  0  0  0  0  0  0  0
   -9.6767    4.9088   -0.0000 C   0  0  0  0  0  0  0  0  0  0  0  0
  -10.9568    8.6315   -0.0000 C   0  0  0  0  0  0  0  0  0  0  0  0
  -12.2603    9.3949   -0.0000 N   0  0  0  0  0  0  0  0  0  0  0  0
  -12.2721   10.8981   -0.0000 C   0  0  0  0  0  0  0  0  0  0  0  0
  -13.5639    8.6550   -0.0000 C   0  0  0  0  0  0  0  0  0  0  0  0
  -13.5639   11.6497   -0.0000 C   0  0  0  0  0  0  0  0  0  0  0  0
  -14.8674    9.4184   -0.0000 C   0  0  0  0  0  0  0  0  0  0  0  0
  -14.8674   10.9215   -0.0000 C   0  0  0  0  0  0  0  0  0  0  0  0
  -16.1709   11.6849   -0.0000 O   0  0  0  0  0  0  0  0  0  0  0  0
  -16.1827   13.1881   -0.0000 C   0  0  0  0  0  0  0  0  0  0  0  0
  1  2  1  0  0  0  0
  2  3  2  0  0  0  0
  2  4  1  0  0  0  0
  3  5  1  0  0  0  0
  4  6  2  0  0  0  0
  5  7  2  0  0  0  0
  5  8  1  0  0  0  0
  8  9  1  1  0  0  0
  8 10  1  0  0  0  0
 10 11  1  0  0  0  0
 11 12  1  0  0  0  0
 12 13  2  0  0  0  0
 12 14  1  0  0  0  0
 13 15  1  0  0  0  0
 13 16  1  0  0  0  0
 14 17  2  0  0  0  0
 15 18  2  0  0  0  0
 15 19  1  0  0  0  0
 16 20  2  0  0  0  0
 16 21  1  0  0  0  0
 20 22  1  0  0  0  0
 21 23  1  0  0  0  0
 22 24  1  0  0  0  0
 23 25  1  0  0  0  0
 24 26  2  0  0  0  0
 24 27  1  0  0  0  0
 25 28  2  0  0  0  0
 28 29  1  0  0  0  0
 29 30  1  0  0  0  0
 29 31  1  0  0  0  0
 30 32  1  0  0  0  0
 31 33  1  0  0  0  0
 32 34  1  0  0  0  0
 34 35  1  0  0  0  0
 35 36  1  0  0  0  0
  6  7  1  0  0  0  0
 17 19  1  0  0  0  0
 22 23  2  0  0  0  0
 26 28  1  0  0  0  0
 33 34  1  0  0  0  0
M  END
>  <MolRegNo>
468087

>  <m>
=

>  <Value>
1

>  <Unit>
nM

>  <Type>
IC50

>  <pValue>
9

>  <Ligand Efficiency>
0

>  <Binding Efficiency>
0

>  <Surface Efficiency>
0

>  <Assay Index>
336557

>  <Assay Category>


>  <Assay Organism>


>  <Target ID>
17045

>  <Target Name>
Cytochrome P450 3A4

>  <Target Organism>
Homo sapiens

>  <Target Description>
Target is a single protein chain

>  <Sequence Accession>
P08684

>  <Reference>
Bioorg Med Chem Lett 18 (14), 4075-4080 (2008)

>  <Pubmed ID>
18572407

>  <DOI>
10.1016/j.bmcl.2008.05.104

$$$$
468023
Actelion Java MolfileCreator 1.0

 35 39  0  0  0  0  0  0  0  0999 V2000
    0.0000   -0.0000   -0.0000 Cl  0  0  0  0  0  0  0  0  0  0  0  0
   -1.5033    0.0117   -0.0000 C   0  0  0  0  0  0  0  0  0  0  0  0
   -2.2666    1.3036   -0.0000 C   0  0  0  0  0  0  0  0  0  0  0  0
   -2.2549   -1.2801   -0.0000 C   0  0  0  0  0  0  0  0  0  0  0  0
   -3.7582    1.3154   -0.0000 C   0  0  0  0  0  0  0  0  0  0  0  0
   -3.7582   -1.2684   -0.0000 C   0  0  0  0  0  0  0  0  0  0  0  0
   -4.5215    0.0352   -0.0000 C   0  0  0  0  0  0  0  0  0  0  0  0
   -4.5098    2.6190   -0.0000 C   0  0  0  0  0  0  0  0  0  0  0  0
   -6.0131    2.6307   -0.0000 O   0  0  0  0  0  0  0  0  0  0  0  0
   -3.7699    3.9226   -0.0000 C   0  0  0  0  0  0  0  0  0  0  0  0
   -4.5215    5.2262   -0.0000 N   0  0  0  0  0  0  0  0  0  0  0  0
   -3.7816    6.5298   -0.0000 C   0  0  0  0  0  0  0  0  0  0  0  0
   -4.5333    7.8334   -0.0000 C   0  0  0  0  0  0  0  0  0  0  0  0
   -2.3019    6.5415   -0.0000 C   0  0  0  0  0  0  0  0  0  0  0  0
   -3.8051    9.1370   -0.0000 C   0  0  0  0  0  0  0  0  0  0  0  0
   -6.0248    7.8452   -0.0000 C   0  0  0  0  0  0  0  0  0  0  0  0
   -1.5620    7.8452   -0.0000 C   0  0  0  0  0  0  0  0  0  0  0  0
   -4.5685   10.4406   -0.0000 O   0  0  0  0  0  0  0  0  0  0  0  0
   -2.3254    9.1605   -0.0000 N   0  0  0  0  0  0  0  0  0  0  0  0
   -6.9174    6.6472   -0.0000 N   0  0  0  0  0  0  0  0  0  0  0  0
   -6.9174    9.0666   -0.0000 N   0  0  0  0  0  0  0  0  0  0  0  0
   -8.3619    7.1170   -0.0000 C   0  0  0  0  0  0  0  0  0  0  0  0
   -8.3619    8.6085   -0.0000 C   0  0  0  0  0  0  0  0  0  0  0  0
   -9.6655    6.3889   -0.0000 C   0  0  0  0  0  0  0  0  0  0  0  0
   -9.6655    9.3602   -0.0000 C   0  0  0  0  0  0  0  0  0  0  0  0
  -10.9691    7.1405   -0.0000 C   0  0  0  0  0  0  0  0  0  0  0  0
   -9.6773    4.9091   -0.0000 C   0  0  0  0  0  0  0  0  0  0  0  0
  -10.9574    8.6320   -0.0000 C   0  0  0  0  0  0  0  0  0  0  0  0
  -12.2610    9.3954   -0.0000 N   0  0  0  0  0  0  0  0  0  0  0  0
  -12.2727   10.8987   -0.0000 C   0  0  0  0  0  0  0  0  0  0  0  0
  -13.5646    8.6555   -0.0000 C   0  0  0  0  0  0  0  0  0  0  0  0
  -13.5646   11.6503   -0.0000 C   0  0  0  0  0  0  0  0  0  0  0  0
  -14.8682    9.4189   -0.0000 C   0  0  0  0  0  0  0  0  0  0  0  0
  -14.8682   10.9221   -0.0000 C   0  0  0  0  0  0  0  0  0  0  0  0
  -16.1718   11.6855   -0.0000 O   0  0  0  0  0  0  0  0  0  0  0  0
  1  2  1  0  0  0  0
  2  3  2  0  0  0  0
  2  4  1  0  0  0  0
  3  5  1  0  0  0  0
  4  6  2  0  0  0  0
  5  7  2  0  0  0  0
  5  8  1  0  0  0  0
  8  9  1  1  0  0  0
  8 10  1  0  0  0  0
 10 11  1  0  0  0  0
 11 12  1  0  0  0  0
 12 13  2  0  0  0  0
 12 14  1  0  0  0  0
 13 15  1  0  0  0  0
 13 16  1  0  0  0  0
 14 17  2  0  0  0  0
 15 18  2  0  0  0  0
 15 19  1  0  0  0  0
 16 20  2  0  0  0  0
 16 21  1  0  0  0  0
 20 22  1  0  0  0  0
 21 23  1  0  0  0  0
 22 24  1  0  0  0  0
 23 25  1  0  0  0  0
 24 26  2  0  0  0  0
 24 27  1  0  0  0  0
 25 28  2  0  0  0  0
 28 29  1  0  0  0  0
 29 30  1  0  0  0  0
 29 31  1  0  0  0  0
 30 32  1  0  0  0  0
 31 33  1  0  0  0  0
 32 34  1  0  0  0  0
 34 35  1  0  0  0  0
  6  7  1  0  0  0  0
 17 19  1  0  0  0  0
 22 23  2  0  0  0  0
 26 28  1  0  0  0  0
 33 34  1  0  0  0  0
M  END
>  <MolRegNo>
468023

>  <m>
=

>  <Value>
0.4

>  <Unit>
nM

>  <Type>
IC50

>  <pValue>
9.4

>  <Ligand Efficiency>
0

>  <Binding Efficiency>
0

>  <Surface Efficiency>
0

>  <Assay Index>
336557

>  <Assay Category>


>  <Assay Organism>


>  <Target ID>
17045

>  <Target Name>
Cytochrome P450 3A4

>  <Target Organism>
Homo sapiens

>  <Target Description>
Target is a single protein chain

>  <Sequence Accession>
P08684

>  <Reference>
Bioorg Med Chem Lett 18 (14), 4075-4080 (2008)

>  <Pubmed ID>
18572407

>  <DOI>
10.1016/j.bmcl.2008.05.104

$$$$
449394
Actelion Java MolfileCreator 1.0

 40 44  0  0  0  0  0  0  0  0999 V2000
    0.0000   -0.0000   -0.0000 Cl  0  0  0  0  0  0  0  0  0  0  0  0
    1.2898    0.7691   -0.0000 C   0  0  0  0  0  0  0  0  0  0  0  0
    1.2780    2.2719   -0.0000 C   0  0  0  0  0  0  0  0  0  0  0  0
    2.5678    0.0473   -0.0000 C   0  0  0  0  0  0  0  0  0  0  0  0
   -0.0355    3.0411   -0.0000 Cl  0  0  0  0  0  0  0  0  0  0  0  0
    2.5559    3.0292   -0.0000 C   0  0  0  0  0  0  0  0  0  0  0  0
    3.8339    0.8046   -0.0000 C   0  0  0  0  0  0  0  0  0  0  0  0
    3.8339    2.2956   -0.0000 C   0  0  0  0  0  0  0  0  0  0  0  0
    5.1237    0.0592   -0.0000 O   0  0  0  0  0  0  0  0  0  0  0  0
    5.1237    3.0647   -0.0000 N   0  0  0  0  0  0  0  0  0  0  0  0
    6.4135    0.8165   -0.0000 C   0  0  0  0  0  0  0  0  0  0  0  0
    6.4135    2.3429   -0.0000 C   0  0  0  0  0  0  0  0  0  0  0  0
    5.1119    4.5794   -0.0000 C   0  0  0  0  0  0  0  0  0  0  0  0
    7.7033    3.1121   -0.0000 O   0  0  0  0  0  0  0  0  0  0  0  0
    6.4017    5.3485   -0.0000 C   0  0  0  0  0  0  0  0  0  0  0  0
    7.6915    4.6149   -0.0000 O   0  0  0  0  0  0  0  0  0  0  0  0
    6.3898    6.8631   -0.0000 N   0  0  0  0  0  0  0  0  0  0  0  0
    7.6915    7.6323   -0.0000 C   0  0  0  0  0  0  0  0  0  0  0  0
    5.0882    7.6205   -0.0000 C   0  0  0  0  0  0  0  0  0  0  0  0
    7.6796    9.1351   -0.0000 C   0  0  0  0  0  0  0  0  0  0  0  0
    8.9812    6.8986   -0.0000 C   0  0  0  0  0  0  0  0  0  0  0  0
    8.9694    9.8924   -0.0000 C   0  0  0  0  0  0  0  0  0  0  0  0
    6.3780    9.8806   -0.0000 C   0  0  0  0  0  0  0  0  0  0  0  0
   10.2710    7.6560   -0.0000 N   0  0  0  0  0  0  0  0  0  0  0  0
    8.9576   11.3952   -0.0000 C   0  0  0  0  0  0  0  0  0  0  0  0
    6.3662   11.3952   -0.0000 C   0  0  0  0  0  0  0  0  0  0  0  0
   11.5490    6.9105   -0.0000 C   0  0  0  0  0  0  0  0  0  0  0  0
   10.2474    9.1706   -0.0000 C   0  0  0  0  0  0  0  0  0  0  0  0
    7.6560   12.1643   -0.0000 C   0  0  0  0  0  0  0  0  0  0  0  0
   12.8388    7.6678   -0.0000 C   0  0  0  0  0  0  0  0  0  0  0  0
   11.5490    9.9279   -0.0000 C   0  0  0  0  0  0  0  0  0  0  0  0
    7.6441   13.6790   -0.0000 C   0  0  0  0  0  0  0  0  0  0  0  0
   12.8388    9.1824   -0.0000 O   0  0  0  0  0  0  0  0  0  0  0  0
    8.9339   14.4363   -0.0000 C   0  0  0  0  0  0  0  0  0  0  0  0
    6.3425   14.4363   -0.0000 C   0  0  0  0  0  0  0  0  0  0  0  0
    8.9221   15.9509   -0.0000 C   0  0  0  0  0  0  0  0  0  0  0  0
    6.3307   15.9509   -0.0000 C   0  0  0  0  0  0  0  0  0  0  0  0
   10.2119   16.7082   -0.0000 O   0  0  0  0  0  0  0  0  0  0  0  0
    7.6086   16.7200   -0.0000 C   0  0  0  0  0  0  0  0  0  0  0  0
   11.5017   15.9627   -0.0000 C   0  0  0  0  0  0  0  0  0  0  0  0
  1  2  1  0  0  0  0
  2  3  2  0  0  0  0
  2  4  1  0  0  0  0
  3  5  1  0  0  0  0
  3  6  1  0  0  0  0
  4  7  2  0  0  0  0
  6  8  2  0  0  0  0
  7  9  1  0  0  0  0
  8 10  1  0  0  0  0
  9 11  1  0  0  0  0
 10 12  1  0  0  0  0
 10 13  1  0  0  0  0
 12 14  2  0  0  0  0
 13 15  1  0  0  0  0
 15 16  2  0  0  0  0
 15 17  1  0  0  0  0
 17 18  1  0  0  0  0
 17 19  1  0  0  0  0
 18 20  1  0  0  0  0
 18 21  1  0  0  0  0
 20 22  2  0  0  0  0
 20 23  1  0  0  0  0
 21 24  1  0  0  0  0
 22 25  1  0  0  0  0
 23 26  2  0  0  0  0
 24 27  1  0  0  0  0
 24 28  1  0  0  0  0
 25 29  2  0  0  0  0
 27 30  1  0  0  0  0
 28 31  1  0  0  0  0
 29 32  1  0  0  0  0
 30 33  1  0  0  0  0
 32 34  2  0  0  0  0
 32 35  1  0  0  0  0
 34 36  1  0  0  0  0
 35 37  2  0  0  0  0
 36 38  1  0  0  0  0
 36 39  2  0  0  0  0
 38 40  1  0  0  0  0
  7  8  1  0  0  0  0
 11 12  1  0  0  0  0
 26 29  1  0  0  0  0
 31 33  1  0  0  0  0
 37 39  1  0  0  0  0
M  END
>  <MolRegNo>
449394

>  <m>
=

>  <Value>
1000

>  <Unit>
nM

>  <Type>
IC50

>  <pValue>
6

>  <Ligand Efficiency>
0

>  <Binding Efficiency>
0

>  <Surface Efficiency>
0

>  <Assay Index>
404070

>  <Assay Category>


>  <Assay Organism>


>  <Target ID>
17045

>  <Target Name>
Cytochrome P450 3A4

>  <Target Organism>
Homo sapiens

>  <Target Description>
Target is a single protein chain

>  <Sequence Accession>
P08684

>  <Reference>
Bioorg Med Chem Lett 18 (13), 3716-3719 (2008)

>  <Pubmed ID>
18524591

>  <DOI>
10.1016/j.bmcl.2008.05.058

$$$$
449327
Actelion Java MolfileCreator 1.0

 42 46  0  0  0  0  0  0  0  0999 V2000
    0.0000   -0.0000   -0.0000 O   0  0  0  0  0  0  0  0  0  0  0  0
   -1.3029   -0.7462   -0.0000 C   0  0  0  0  0  0  0  0  0  0  0  0
   -2.6177   -0.0000   -0.0000 N   0  0  0  0  0  0  0  0  0  0  0  0
   -1.3148   -2.2387   -0.0000 C   0  0  0  0  0  0  0  0  0  0  0  0
   -3.9324   -0.7344   -0.0000 C   0  0  0  0  0  0  0  0  0  0  0  0
   -2.6295    1.5161   -0.0000 C   0  0  0  0  0  0  0  0  0  0  0  0
   -2.6295   -2.9730   -0.0000 O   0  0  0  0  0  0  0  0  0  0  0  0
   -3.9443   -2.2031   -0.0000 C   0  0  0  0  0  0  0  0  0  0  0  0
   -5.2235    0.0237   -0.0000 C   0  0  0  0  0  0  0  0  0  0  0  0
   -1.3385    2.2742   -0.0000 C   0  0  0  0  0  0  0  0  0  0  0  0
   -5.2354   -2.9256   -0.0000 C   0  0  0  0  0  0  0  0  0  0  0  0
   -6.5264   -0.6988   -0.0000 C   0  0  0  0  0  0  0  0  0  0  0  0
   -0.0474    1.5398   -0.0000 O   0  0  0  0  0  0  0  0  0  0  0  0
   -1.3503    3.7903   -0.0000 N   0  0  0  0  0  0  0  0  0  0  0  0
   -6.5264   -2.1794   -0.0000 C   0  0  0  0  0  0  0  0  0  0  0  0
   -7.8412    0.0592   -0.0000 C   0  0  0  0  0  0  0  0  0  0  0  0
   -0.0592    4.5602   -0.0000 C   0  0  0  0  0  0  0  0  0  0  0  0
   -2.6532    4.5484   -0.0000 C   0  0  0  0  0  0  0  0  0  0  0  0
   -7.8412   -2.9138   -0.0000 C   0  0  0  0  0  0  0  0  0  0  0  0
   -0.0711    6.0645   -0.0000 C   0  0  0  0  0  0  0  0  0  0  0  0
    1.2319    3.8258   -0.0000 C   0  0  0  0  0  0  0  0  0  0  0  0
    1.2200    6.8226   -0.0000 C   0  0  0  0  0  0  0  0  0  0  0  0
   -1.3740    6.8107   -0.0000 C   0  0  0  0  0  0  0  0  0  0  0  0
    2.5229    4.5839   -0.0000 N   0  0  0  0  0  0  0  0  0  0  0  0
    1.2082    8.3150   -0.0000 C   0  0  0  0  0  0  0  0  0  0  0  0
   -1.3858    8.3150   -0.0000 C   0  0  0  0  0  0  0  0  0  0  0  0
    3.8022    3.8495   -0.0000 C   0  0  0  0  0  0  0  0  0  0  0  0
    2.4992    6.1000   -0.0000 C   0  0  0  0  0  0  0  0  0  0  0  0
   -0.0948    9.0731   -0.0000 C   0  0  0  0  0  0  0  0  0  0  0  0
    5.0814    4.6076   -0.0000 C   0  0  0  0  0  0  0  0  0  0  0  0
    3.7903    6.8581   -0.0000 C   0  0  0  0  0  0  0  0  0  0  0  0
   -0.1066   10.5773   -0.0000 C   0  0  0  0  0  0  0  0  0  0  0  0
    5.0814    6.1237   -0.0000 O   0  0  0  0  0  0  0  0  0  0  0  0
    1.1845   11.3354   -0.0000 C   0  0  0  0  0  0  0  0  0  0  0  0
   -1.4095   11.3354   -0.0000 C   0  0  0  0  0  0  0  0  0  0  0  0
    1.1726   12.8397   -0.0000 C   0  0  0  0  0  0  0  0  0  0  0  0
   -1.4214   12.8397   -0.0000 C   0  0  0  0  0  0  0  0  0  0  0  0
   -0.1421   13.6096   -0.0000 C   0  0  0  0  0  0  0  0  0  0  0  0
   -0.1540   15.1257   -0.0000 N   0  0  0  0  0  0  0  0  0  0  0  0
    1.1371   15.8838   -0.0000 C   0  0  0  0  0  0  0  0  0  0  0  0
    2.4163   15.1494   -0.0000 O   0  0  0  0  0  0  0  0  0  0  0  0
    1.1252   17.3999   -0.0000 C   0  0  0  0  0  0  0  0  0  0  0  0
  1  2  2  0  0  0  0
  2  3  1  0  0  0  0
  2  4  1  0  0  0  0
  3  5  1  0  0  0  0
  3  6  1  0  0  0  0
  4  7  1  0  0  0  0
  5  8  2  0  0  0  0
  5  9  1  0  0  0  0
  6 10  1  0  0  0  0
  8 11  1  0  0  0  0
  9 12  2  0  0  0  0
 10 13  2  0  0  0  0
 10 14  1  0  0  0  0
 11 15  2  0  0  0  0
 12 16  1  0  0  0  0
 14 17  1  0  0  0  0
 14 18  1  0  0  0  0
 15 19  1  0  0  0  0
 17 20  1  0  0  0  0
 17 21  1  0  0  0  0
 20 22  2  0  0  0  0
 20 23  1  0  0  0  0
 21 24  1  0  0  0  0
 22 25  1  0  0  0  0
 23 26  2  0  0  0  0
 24 27  1  0  0  0  0
 24 28  1  0  0  0  0
 25 29  2  0  0  0  0
 27 30  1  0  0  0  0
 28 31  1  0  0  0  0
 29 32  1  0  0  0  0
 30 33  1  0  0  0  0
 32 34  2  0  0  0  0
 32 35  1  0  0  0  0
 34 36  1  0  0  0  0
 35 37  2  0  0  0  0
 36 38  2  0  0  0  0
 38 39  1  0  0  0  0
 39 40  1  0  0  0  0
 40 41  2  0  0  0  0
 40 42  1  0  0  0  0
  7  8  1  0  0  0  0
 12 15  1  0  0  0  0
 26 29  1  0  0  0  0
 31 33  1  0  0  0  0
 37 38  1  0  0  0  0
M  END
>  <MolRegNo>
449327

>  <m>
=

>  <Value>
6400

>  <Unit>
nM

>  <Type>
IC50

>  <pValue>
5.19

>  <Ligand Efficiency>
0

>  <Binding Efficiency>
0

>  <Surface Efficiency>
0

>  <Assay Index>
404070

>  <Assay Category>


>  <Assay Organism>


>  <Target ID>
17045

>  <Target Name>
Cytochrome P450 3A4

>  <Target Organism>
Homo sapiens

>  <Target Description>
Target is a single protein chain

>  <Sequence Accession>
P08684

>  <Reference>
Bioorg Med Chem Lett 18 (13), 3716-3719 (2008)

>  <Pubmed ID>
18524591

>  <DOI>
10.1016/j.bmcl.2008.05.058

$$$$
449326
Actelion Java MolfileCreator 1.0

 42 46  0  0  0  0  0  0  0  0999 V2000
    0.0000   -0.0000   -0.0000 Cl  0  0  0  0  0  0  0  0  0  0  0  0
    1.2901    0.7693   -0.0000 C   0  0  0  0  0  0  0  0  0  0  0  0
    1.2783    2.2725   -0.0000 C   0  0  0  0  0  0  0  0  0  0  0  0
    2.5684    0.0473   -0.0000 C   0  0  0  0  0  0  0  0  0  0  0  0
   -0.0355    3.0419   -0.0000 Cl  0  0  0  0  0  0  0  0  0  0  0  0
    2.5566    3.0300   -0.0000 C   0  0  0  0  0  0  0  0  0  0  0  0
    3.8349    0.8049   -0.0000 C   0  0  0  0  0  0  0  0  0  0  0  0
    3.8349    2.2962   -0.0000 C   0  0  0  0  0  0  0  0  0  0  0  0
    5.1250    0.0592   -0.0000 N   0  0  0  0  0  0  0  0  0  0  0  0
    5.1250    3.0537   -0.0000 N   0  0  0  0  0  0  0  0  0  0  0  0
    6.4152    0.8167   -0.0000 C   0  0  0  0  0  0  0  0  0  0  0  0
    6.4152    2.3317   -0.0000 C   0  0  0  0  0  0  0  0  0  0  0  0
    5.1132    4.5687   -0.0000 C   0  0  0  0  0  0  0  0  0  0  0  0
    7.7053    3.1011   -0.0000 O   0  0  0  0  0  0  0  0  0  0  0  0
    6.4033    5.3381   -0.0000 C   0  0  0  0  0  0  0  0  0  0  0  0
    7.6935    4.6042   -0.0000 O   0  0  0  0  0  0  0  0  0  0  0  0
    6.3915    6.8531   -0.0000 N   0  0  0  0  0  0  0  0  0  0  0  0
    7.6935    7.6224   -0.0000 C   0  0  0  0  0  0  0  0  0  0  0  0
    5.0895    7.6106   -0.0000 C   0  0  0  0  0  0  0  0  0  0  0  0
    7.6816    9.1256   -0.0000 C   0  0  0  0  0  0  0  0  0  0  0  0
    8.9836    6.8886   -0.0000 C   0  0  0  0  0  0  0  0  0  0  0  0
    8.9718    9.8831   -0.0000 C   0  0  0  0  0  0  0  0  0  0  0  0
    6.3796    9.8713   -0.0000 C   0  0  0  0  0  0  0  0  0  0  0  0
   10.2737    7.6461   -0.0000 N   0  0  0  0  0  0  0  0  0  0  0  0
    8.9599   11.3863   -0.0000 C   0  0  0  0  0  0  0  0  0  0  0  0
    6.3678   11.3863   -0.0000 C   0  0  0  0  0  0  0  0  0  0  0  0
   11.5520    6.9123   -0.0000 C   0  0  0  0  0  0  0  0  0  0  0  0
   10.2500    9.1611   -0.0000 C   0  0  0  0  0  0  0  0  0  0  0  0
    7.6579   12.1557   -0.0000 C   0  0  0  0  0  0  0  0  0  0  0  0
   12.8422    7.6698   -0.0000 C   0  0  0  0  0  0  0  0  0  0  0  0
   11.5520    9.9186   -0.0000 C   0  0  0  0  0  0  0  0  0  0  0  0
    7.6461   13.6707   -0.0000 C   0  0  0  0  0  0  0  0  0  0  0  0
   12.8422    9.1848   -0.0000 O   0  0  0  0  0  0  0  0  0  0  0  0
    8.9362   14.4282   -0.0000 C   0  0  0  0  0  0  0  0  0  0  0  0
    6.3441   14.4282   -0.0000 C   0  0  0  0  0  0  0  0  0  0  0  0
    8.9244   15.9432   -0.0000 C   0  0  0  0  0  0  0  0  0  0  0  0
    6.3323   15.9432   -0.0000 C   0  0  0  0  0  0  0  0  0  0  0  0
   10.2145   16.7126   -0.0000 C   0  0  0  0  0  0  0  0  0  0  0  0
    7.6106   16.7126   -0.0000 C   0  0  0  0  0  0  0  0  0  0  0  0
   10.2027   18.2276   -0.0000 O   0  0  0  0  0  0  0  0  0  0  0  0
   11.5047   15.9669   -0.0000 N   0  0  0  0  0  0  0  0  0  0  0  0
   11.4928   14.4755   -0.0000 C   0  0  0  0  0  0  0  0  0  0  0  0
  1  2  1  0  0  0  0
  2  3  2  0  0  0  0
  2  4  1  0  0  0  0
  3  5  1  0  0  0  0
  3  6  1  0  0  0  0
  4  7  2  0  0  0  0
  6  8  2  0  0  0  0
  7  9  1  0  0  0  0
  8 10  1  0  0  0  0
  9 11  2  0  0  0  0
 10 12  1  0  0  0  0
 10 13  1  0  0  0  0
 12 14  2  0  0  0  0
 13 15  1  0  0  0  0
 15 16  2  0  0  0  0
 15 17  1  0  0  0  0
 17 18  1  0  0  0  0
 17 19  1  0  0  0  0
 18 20  1  0  0  0  0
 18 21  1  0  0  0  0
 20 22  2  0  0  0  0
 20 23  1  0  0  0  0
 21 24  1  0  0  0  0
 22 25  1  0  0  0  0
 23 26  2  0  0  0  0
 24 27  1  0  0  0  0
 24 28  1  0  0  0  0
 25 29  2  0  0  0  0
 27 30  1  0  0  0  0
 28 31  1  0  0  0  0
 29 32  1  0  0  0  0
 30 33  1  0  0  0  0
 32 34  2  0  0  0  0
 32 35  1  0  0  0  0
 34 36  1  0  0  0  0
 35 37  2  0  0  0  0
 36 38  1  0  0  0  0
 36 39  2  0  0  0  0
 38 40  2  0  0  0  0
 38 41  1  0  0  0  0
 41 42  1  0  0  0  0
  7  8  1  0  0  0  0
 11 12  1  0  0  0  0
 26 29  1  0  0  0  0
 31 33  1  0  0  0  0
 37 39  1  0  0  0  0
M  END
>  <MolRegNo>
449326

>  <m>
=

>  <Value>
5000

>  <Unit>
nM

>  <Type>
IC50

>  <pValue>
5.3

>  <Ligand Efficiency>
0

>  <Binding Efficiency>
0

>  <Surface Efficiency>
0

>  <Assay Index>
404070

>  <Assay Category>


>  <Assay Organism>


>  <Target ID>
17045

>  <Target Name>
Cytochrome P450 3A4

>  <Target Organism>
Homo sapiens

>  <Target Description>
Target is a single protein chain

>  <Sequence Accession>
P08684

>  <Reference>
Bioorg Med Chem Lett 18 (13), 3716-3719 (2008)

>  <Pubmed ID>
18524591

>  <DOI>
10.1016/j.bmcl.2008.05.058

$$$$
449325
Actelion Java MolfileCreator 1.0

 39 42  0  0  0  0  0  0  0  0999 V2000
    0.0000   -0.0000   -0.0000 Cl  0  0  0  0  0  0  0  0  0  0  0  0
    1.2884   -0.7329   -0.0000 C   0  0  0  0  0  0  0  0  0  0  0  0
    1.2766   -2.2223   -0.0000 C   0  0  0  0  0  0  0  0  0  0  0  0
    2.5769    0.0236   -0.0000 C   0  0  0  0  0  0  0  0  0  0  0  0
   -0.0355   -2.9669   -0.0000 Cl  0  0  0  0  0  0  0  0  0  0  0  0
    2.5769   -2.9551   -0.0000 C   0  0  0  0  0  0  0  0  0  0  0  0
    3.8535   -0.7211   -0.0000 C   0  0  0  0  0  0  0  0  0  0  0  0
    3.8535   -2.1868   -0.0000 C   0  0  0  0  0  0  0  0  0  0  0  0
    5.1419    0.0473   -0.0000 N   0  0  0  0  0  0  0  0  0  0  0  0
    5.1301    1.5603   -0.0000 C   0  0  0  0  0  0  0  0  0  0  0  0
    6.4304   -0.6856   -0.0000 C   0  0  0  0  0  0  0  0  0  0  0  0
    3.8180    2.3168   -0.0000 C   0  0  0  0  0  0  0  0  0  0  0  0
    7.7188    0.0827   -0.0000 C   0  0  0  0  0  0  0  0  0  0  0  0
    2.4941    3.0852   -0.0000 N   0  0  0  0  0  0  0  0  0  0  0  0
    9.0072   -0.6501   -0.0000 O   0  0  0  0  0  0  0  0  0  0  0  0
    7.7070    1.5958   -0.0000 N   0  0  0  0  0  0  0  0  0  0  0  0
    9.0072    2.3641   -0.0000 C   0  0  0  0  0  0  0  0  0  0  0  0
    6.3949    2.3523   -0.0000 C   0  0  0  0  0  0  0  0  0  0  0  0
    8.9954    3.8653   -0.0000 C   0  0  0  0  0  0  0  0  0  0  0  0
   10.2957    1.6312   -0.0000 C   0  0  0  0  0  0  0  0  0  0  0  0
   10.2838    4.6218   -0.0000 C   0  0  0  0  0  0  0  0  0  0  0  0
    7.6951    4.6100   -0.0000 C   0  0  0  0  0  0  0  0  0  0  0  0
   11.5841    2.3877   -0.0000 N   0  0  0  0  0  0  0  0  0  0  0  0
   10.2720    6.1230   -0.0000 C   0  0  0  0  0  0  0  0  0  0  0  0
    7.6833    6.1230   -0.0000 C   0  0  0  0  0  0  0  0  0  0  0  0
   12.9435    1.7967   -0.0000 C   0  0  0  0  0  0  0  0  0  0  0  0
   11.7259    3.9008   -0.0000 C   0  0  0  0  0  0  0  0  0  0  0  0
    8.9718    6.8914   -0.0000 C   0  0  0  0  0  0  0  0  0  0  0  0
   13.9364    2.9197   -0.0000 C   0  0  0  0  0  0  0  0  0  0  0  0
   13.1799    4.2199   -0.0000 C   0  0  0  0  0  0  0  0  0  0  0  0
    8.9599    8.4044   -0.0000 C   0  0  0  0  0  0  0  0  0  0  0  0
   10.2484    9.1609   -0.0000 C   0  0  0  0  0  0  0  0  0  0  0  0
    7.6597    9.1609   -0.0000 C   0  0  0  0  0  0  0  0  0  0  0  0
   10.2366   10.6739   -0.0000 C   0  0  0  0  0  0  0  0  0  0  0  0
    7.6479   10.6739   -0.0000 C   0  0  0  0  0  0  0  0  0  0  0  0
   11.5250   11.4422   -0.0000 C   0  0  0  0  0  0  0  0  0  0  0  0
    8.9245   11.4422   -0.0000 C   0  0  0  0  0  0  0  0  0  0  0  0
   11.5132   12.9553   -0.0000 O   0  0  0  0  0  0  0  0  0  0  0  0
   12.8134   10.6976   -0.0000 N   0  0  0  0  0  0  0  0  0  0  0  0
  1  2  1  0  0  0  0
  2  3  2  0  0  0  0
  2  4  1  0  0  0  0
  3  5  1  0  0  0  0
  3  6  1  0  0  0  0
  4  7  2  0  0  0  0
  6  8  2  0  0  0  0
  7  9  1  0  0  0  0
  9 10  1  0  0  0  0
  9 11  1  0  0  0  0
 10 12  1  0  0  0  0
 11 13  1  0  0  0  0
 12 14  3  0  0  0  0
 13 15  2  0  0  0  0
 13 16  1  0  0  0  0
 16 17  1  0  0  0  0
 16 18  1  0  0  0  0
 17 19  1  0  0  0  0
 17 20  1  0  0  0  0
 19 21  2  0  0  0  0
 19 22  1  0  0  0  0
 20 23  1  0  0  0  0
 21 24  1  0  0  0  0
 22 25  2  0  0  0  0
 23 26  1  0  0  0  0
 23 27  1  0  0  0  0
 24 28  2  0  0  0  0
 26 29  1  0  0  0  0
 27 30  1  0  0  0  0
 28 31  1  0  0  0  0
 31 32  2  0  0  0  0
 31 33  1  0  0  0  0
 32 34  1  0  0  0  0
 33 35  2  0  0  0  0
 34 36  1  0  0  0  0
 34 37  2  0  0  0  0
 36 38  2  0  0  0  0
 36 39  1  0  0  0  0
  7  8  1  0  0  0  0
 25 28  1  0  0  0  0
 29 30  1  0  0  0  0
 35 37  1  0  0  0  0
M  END
>  <MolRegNo>
449325

>  <m>
=

>  <Value>
2200

>  <Unit>
nM

>  <Type>
IC50

>  <pValue>
5.66

>  <Ligand Efficiency>
0

>  <Binding Efficiency>
0

>  <Surface Efficiency>
0

>  <Assay Index>
404070

>  <Assay Category>


>  <Assay Organism>


>  <Target ID>
17045

>  <Target Name>
Cytochrome P450 3A4

>  <Target Organism>
Homo sapiens

>  <Target Description>
Target is a single protein chain

>  <Sequence Accession>
P08684

>  <Reference>
Bioorg Med Chem Lett 18 (13), 3716-3719 (2008)

>  <Pubmed ID>
18524591

>  <DOI>
10.1016/j.bmcl.2008.05.058

$$$$
449324
Actelion Java MolfileCreator 1.0

 40 43  0  0  0  0  0  0  0  0999 V2000
    0.0000   -0.0000   -0.0000 Cl  0  0  0  0  0  0  0  0  0  0  0  0
    1.2886   -0.7330   -0.0000 C   0  0  0  0  0  0  0  0  0  0  0  0
    1.2768   -2.2226   -0.0000 C   0  0  0  0  0  0  0  0  0  0  0  0
    2.5773    0.0236   -0.0000 C   0  0  0  0  0  0  0  0  0  0  0  0
   -0.0355   -2.9674   -0.0000 Cl  0  0  0  0  0  0  0  0  0  0  0  0
    2.5773   -2.9556   -0.0000 C   0  0  0  0  0  0  0  0  0  0  0  0
    3.8541   -0.7212   -0.0000 C   0  0  0  0  0  0  0  0  0  0  0  0
    3.8541   -2.1872   -0.0000 C   0  0  0  0  0  0  0  0  0  0  0  0
    5.1428    0.0355   -0.0000 N   0  0  0  0  0  0  0  0  0  0  0  0
    6.4314   -0.6975   -0.0000 C   0  0  0  0  0  0  0  0  0  0  0  0
    5.1309    1.5487   -0.0000 C   0  0  0  0  0  0  0  0  0  0  0  0
    7.7201    0.0591   -0.0000 C   0  0  0  0  0  0  0  0  0  0  0  0
    3.8187    2.3054   -0.0000 C   0  0  0  0  0  0  0  0  0  0  0  0
    9.0087   -0.6739   -0.0000 O   0  0  0  0  0  0  0  0  0  0  0  0
    7.7082    1.5724   -0.0000 N   0  0  0  0  0  0  0  0  0  0  0  0
    3.8068    3.8187   -0.0000 O   0  0  0  0  0  0  0  0  0  0  0  0
    8.9969    2.3408   -0.0000 C   0  0  0  0  0  0  0  0  0  0  0  0
    6.3959    2.3290   -0.0000 C   0  0  0  0  0  0  0  0  0  0  0  0
    2.4945    4.5753   -0.0000 C   0  0  0  0  0  0  0  0  0  0  0  0
    8.9851    3.8423   -0.0000 C   0  0  0  0  0  0  0  0  0  0  0  0
   10.2855    1.6079   -0.0000 C   0  0  0  0  0  0  0  0  0  0  0  0
   10.2737    4.5989   -0.0000 C   0  0  0  0  0  0  0  0  0  0  0  0
    7.6846    4.5871   -0.0000 C   0  0  0  0  0  0  0  0  0  0  0  0
   11.5742    2.3645   -0.0000 N   0  0  0  0  0  0  0  0  0  0  0  0
   10.2619    6.1004   -0.0000 C   0  0  0  0  0  0  0  0  0  0  0  0
    7.6728    6.1004   -0.0000 C   0  0  0  0  0  0  0  0  0  0  0  0
   12.9338    1.7734   -0.0000 C   0  0  0  0  0  0  0  0  0  0  0  0
   11.7160    3.8778   -0.0000 C   0  0  0  0  0  0  0  0  0  0  0  0
    8.9614    6.8688   -0.0000 C   0  0  0  0  0  0  0  0  0  0  0  0
   13.9268    2.8965   -0.0000 C   0  0  0  0  0  0  0  0  0  0  0  0
   13.1702    4.1970   -0.0000 C   0  0  0  0  0  0  0  0  0  0  0  0
    8.9496    8.3821   -0.0000 C   0  0  0  0  0  0  0  0  0  0  0  0
   10.2382    9.1388   -0.0000 C   0  0  0  0  0  0  0  0  0  0  0  0
    7.6491    9.1388   -0.0000 C   0  0  0  0  0  0  0  0  0  0  0  0
   10.2264   10.6520   -0.0000 C   0  0  0  0  0  0  0  0  0  0  0  0
    7.6373   10.6402   -0.0000 C   0  0  0  0  0  0  0  0  0  0  0  0
    8.9141   11.4205   -0.0000 C   0  0  0  0  0  0  0  0  0  0  0  0
    8.9023   12.9338   -0.0000 C   0  0  0  0  0  0  0  0  0  0  0  0
    7.5900   13.6904   -0.0000 O   0  0  0  0  0  0  0  0  0  0  0  0
   10.1910   13.6904   -0.0000 N   0  0  0  0  0  0  0  0  0  0  0  0
  1  2  1  0  0  0  0
  2  3  2  0  0  0  0
  2  4  1  0  0  0  0
  3  5  1  0  0  0  0
  3  6  1  0  0  0  0
  4  7  2  0  0  0  0
  6  8  2  0  0  0  0
  7  9  1  0  0  0  0
  9 10  1  0  0  0  0
  9 11  1  0  0  0  0
 10 12  1  0  0  0  0
 11 13  1  0  0  0  0
 12 14  2  0  0  0  0
 12 15  1  0  0  0  0
 13 16  1  0  0  0  0
 15 17  1  0  0  0  0
 15 18  1  0  0  0  0
 16 19  1  0  0  0  0
 17 20  1  0  0  0  0
 17 21  1  0  0  0  0
 20 22  2  0  0  0  0
 20 23  1  0  0  0  0
 21 24  1  0  0  0  0
 22 25  1  0  0  0  0
 23 26  2  0  0  0  0
 24 27  1  0  0  0  0
 24 28  1  0  0  0  0
 25 29  2  0  0  0  0
 27 30  1  0  0  0  0
 28 31  1  0  0  0  0
 29 32  1  0  0  0  0
 32 33  2  0  0  0  0
 32 34  1  0  0  0  0
 33 35  1  0  0  0  0
 34 36  2  0  0  0  0
 35 37  2  0  0  0  0
 37 38  1  0  0  0  0
 38 39  2  0  0  0  0
 38 40  1  0  0  0  0
  7  8  1  0  0  0  0
 26 29  1  0  0  0  0
 30 31  1  0  0  0  0
 36 37  1  0  0  0  0
M  END
>  <MolRegNo>
449324

>  <m>
=

>  <Value>
2600

>  <Unit>
nM

>  <Type>
IC50

>  <pValue>
5.58

>  <Ligand Efficiency>
0

>  <Binding Efficiency>
0

>  <Surface Efficiency>
0

>  <Assay Index>
404070

>  <Assay Category>


>  <Assay Organism>


>  <Target ID>
17045

>  <Target Name>
Cytochrome P450 3A4

>  <Target Organism>
Homo sapiens

>  <Target Description>
Target is a single protein chain

>  <Sequence Accession>
P08684

>  <Reference>
Bioorg Med Chem Lett 18 (13), 3716-3719 (2008)

>  <Pubmed ID>
18524591

>  <DOI>
10.1016/j.bmcl.2008.05.058

$$$$
449323
Actelion Java MolfileCreator 1.0

 42 46  0  0  0  0  0  0  0  0999 V2000
    0.0000   -0.0000   -0.0000 O   0  0  0  0  0  0  0  0  0  0  0  0
   -1.3149   -0.7463   -0.0000 C   0  0  0  0  0  0  0  0  0  0  0  0
   -2.6298   -0.0000   -0.0000 N   0  0  0  0  0  0  0  0  0  0  0  0
   -1.3268   -2.2389   -0.0000 C   0  0  0  0  0  0  0  0  0  0  0  0
   -3.9447   -0.7345   -0.0000 C   0  0  0  0  0  0  0  0  0  0  0  0
   -2.6417    1.5163   -0.0000 C   0  0  0  0  0  0  0  0  0  0  0  0
   -2.6417   -2.9733   -0.0000 N   0  0  0  0  0  0  0  0  0  0  0  0
   -3.9566   -2.2034   -0.0000 C   0  0  0  0  0  0  0  0  0  0  0  0
   -5.2359    0.0237   -0.0000 C   0  0  0  0  0  0  0  0  0  0  0  0
   -1.3504    2.2744   -0.0000 C   0  0  0  0  0  0  0  0  0  0  0  0
   -5.2478   -2.9260   -0.0000 C   0  0  0  0  0  0  0  0  0  0  0  0
   -6.5390   -0.6989   -0.0000 C   0  0  0  0  0  0  0  0  0  0  0  0
   -0.0592    1.5400   -0.0000 O   0  0  0  0  0  0  0  0  0  0  0  0
   -1.3623    3.7907   -0.0000 N   0  0  0  0  0  0  0  0  0  0  0  0
   -6.5390   -2.1797   -0.0000 C   0  0  0  0  0  0  0  0  0  0  0  0
   -7.8539    0.0592   -0.0000 C   0  0  0  0  0  0  0  0  0  0  0  0
   -0.0711    4.5607   -0.0000 C   0  0  0  0  0  0  0  0  0  0  0  0
   -2.6654    4.5489   -0.0000 C   0  0  0  0  0  0  0  0  0  0  0  0
   -7.8539   -2.9141   -0.0000 C   0  0  0  0  0  0  0  0  0  0  0  0
   -0.0829    6.0652   -0.0000 C   0  0  0  0  0  0  0  0  0  0  0  0
    1.2201    3.8263   -0.0000 C   0  0  0  0  0  0  0  0  0  0  0  0
    1.2083    6.8233   -0.0000 C   0  0  0  0  0  0  0  0  0  0  0  0
   -1.3860    6.8115   -0.0000 C   0  0  0  0  0  0  0  0  0  0  0  0
    2.5114    4.5844   -0.0000 N   0  0  0  0  0  0  0  0  0  0  0  0
    1.1964    8.3159   -0.0000 C   0  0  0  0  0  0  0  0  0  0  0  0
   -1.3978    8.3159   -0.0000 C   0  0  0  0  0  0  0  0  0  0  0  0
    3.7907    3.8500   -0.0000 C   0  0  0  0  0  0  0  0  0  0  0  0
    2.4877    6.1007   -0.0000 C   0  0  0  0  0  0  0  0  0  0  0  0
   -0.1066    9.0740   -0.0000 C   0  0  0  0  0  0  0  0  0  0  0  0
    5.0701    4.6081   -0.0000 C   0  0  0  0  0  0  0  0  0  0  0  0
    3.7789    6.8588   -0.0000 C   0  0  0  0  0  0  0  0  0  0  0  0
   -0.1185   10.5785   -0.0000 C   0  0  0  0  0  0  0  0  0  0  0  0
    5.0701    6.1244   -0.0000 O   0  0  0  0  0  0  0  0  0  0  0  0
    1.1728   11.3366   -0.0000 C   0  0  0  0  0  0  0  0  0  0  0  0
   -1.4215   11.3366   -0.0000 C   0  0  0  0  0  0  0  0  0  0  0  0
    1.1609   12.8411   -0.0000 C   0  0  0  0  0  0  0  0  0  0  0  0
   -1.4334   12.8411   -0.0000 C   0  0  0  0  0  0  0  0  0  0  0  0
    2.4521   13.5992   -0.0000 C   0  0  0  0  0  0  0  0  0  0  0  0
   -0.1540   13.6111   -0.0000 C   0  0  0  0  0  0  0  0  0  0  0  0
    2.4403   15.1155   -0.0000 O   0  0  0  0  0  0  0  0  0  0  0  0
    3.7315   12.8529   -0.0000 N   0  0  0  0  0  0  0  0  0  0  0  0
    3.7196   11.3603   -0.0000 C   0  0  0  0  0  0  0  0  0  0  0  0
  1  2  2  0  0  0  0
  2  3  1  0  0  0  0
  2  4  1  0  0  0  0
  3  5  1  0  0  0  0
  3  6  1  0  0  0  0
  4  7  2  0  0  0  0
  5  8  2  0  0  0  0
  5  9  1  0  0  0  0
  6 10  1  0  0  0  0
  8 11  1  0  0  0  0
  9 12  2  0  0  0  0
 10 13  2  0  0  0  0
 10 14  1  0  0  0  0
 11 15  2  0  0  0  0
 12 16  1  0  0  0  0
 14 17  1  0  0  0  0
 14 18  1  0  0  0  0
 15 19  1  0  0  0  0
 17 20  1  0  0  0  0
 17 21  1  0  0  0  0
 20 22  2  0  0  0  0
 20 23  1  0  0  0  0
 21 24  1  0  0  0  0
 22 25  1  0  0  0  0
 23 26  2  0  0  0  0
 24 27  1  0  0  0  0
 24 28  1  0  0  0  0
 25 29  2  0  0  0  0
 27 30  1  0  0  0  0
 28 31  1  0  0  0  0
 29 32  1  0  0  0  0
 30 33  1  0  0  0  0
 32 34  2  0  0  0  0
 32 35  1  0  0  0  0
 34 36  1  0  0  0  0
 35 37  2  0  0  0  0
 36 38  1  0  0  0  0
 36 39  2  0  0  0  0
 38 40  2  0  0  0  0
 38 41  1  0  0  0  0
 41 42  1  0  0  0  0
  7  8  1  0  0  0  0
 12 15  1  0  0  0  0
 26 29  1  0  0  0  0
 31 33  1  0  0  0  0
 37 39  1  0  0  0  0
M  END
>  <MolRegNo>
449323

>  <m>
=

>  <Value>
9000

>  <Unit>
nM

>  <Type>
IC50

>  <pValue>
5.05

>  <Ligand Efficiency>
0

>  <Binding Efficiency>
0

>  <Surface Efficiency>
0

>  <Assay Index>
404070

>  <Assay Category>


>  <Assay Organism>


>  <Target ID>
17045

>  <Target Name>
Cytochrome P450 3A4

>  <Target Organism>
Homo sapiens

>  <Target Description>
Target is a single protein chain

>  <Sequence Accession>
P08684

>  <Reference>
Bioorg Med Chem Lett 18 (13), 3716-3719 (2008)

>  <Pubmed ID>
18524591

>  <DOI>
10.1016/j.bmcl.2008.05.058

$$$$
449322
Actelion Java MolfileCreator 1.0

 38 42  0  0  0  0  0  0  0  0999 V2000
    0.0000   -0.0000   -0.0000 Cl  0  0  0  0  0  0  0  0  0  0  0  0
    1.2896    0.7690   -0.0000 C   0  0  0  0  0  0  0  0  0  0  0  0
    1.2660    2.2834   -0.0000 C   0  0  0  0  0  0  0  0  0  0  0  0
    2.5674    0.0473   -0.0000 C   0  0  0  0  0  0  0  0  0  0  0  0
   -0.0473    3.0407   -0.0000 Cl  0  0  0  0  0  0  0  0  0  0  0  0
    2.5437    3.0407   -0.0000 C   0  0  0  0  0  0  0  0  0  0  0  0
    3.8334    0.8045   -0.0000 C   0  0  0  0  0  0  0  0  0  0  0  0
    3.8215    2.3071   -0.0000 C   0  0  0  0  0  0  0  0  0  0  0  0
    5.1230    0.0592   -0.0000 O   0  0  0  0  0  0  0  0  0  0  0  0
    5.1111    3.0643   -0.0000 N   0  0  0  0  0  0  0  0  0  0  0  0
    6.4126    0.8282   -0.0000 C   0  0  0  0  0  0  0  0  0  0  0  0
    6.4008    2.3426   -0.0000 C   0  0  0  0  0  0  0  0  0  0  0  0
    5.0993    4.5787   -0.0000 C   0  0  0  0  0  0  0  0  0  0  0  0
    7.6904    3.1116   -0.0000 O   0  0  0  0  0  0  0  0  0  0  0  0
    6.3889    5.3478   -0.0000 C   0  0  0  0  0  0  0  0  0  0  0  0
    7.6785    4.6142   -0.0000 O   0  0  0  0  0  0  0  0  0  0  0  0
    6.3771    6.8622   -0.0000 N   0  0  0  0  0  0  0  0  0  0  0  0
    7.6785    7.6312   -0.0000 C   0  0  0  0  0  0  0  0  0  0  0  0
    5.0756    7.6194   -0.0000 C   0  0  0  0  0  0  0  0  0  0  0  0
    7.6667    9.1338   -0.0000 C   0  0  0  0  0  0  0  0  0  0  0  0
    8.9682    6.8977   -0.0000 C   0  0  0  0  0  0  0  0  0  0  0  0
    8.9563    9.8910   -0.0000 C   0  0  0  0  0  0  0  0  0  0  0  0
    6.3653    9.8792   -0.0000 C   0  0  0  0  0  0  0  0  0  0  0  0
   10.2578    7.6549   -0.0000 N   0  0  0  0  0  0  0  0  0  0  0  0
    8.9445   11.3936   -0.0000 C   0  0  0  0  0  0  0  0  0  0  0  0
    6.3534   11.3936   -0.0000 C   0  0  0  0  0  0  0  0  0  0  0  0
   11.5356    6.9213   -0.0000 C   0  0  0  0  0  0  0  0  0  0  0  0
   10.2341    9.1693   -0.0000 C   0  0  0  0  0  0  0  0  0  0  0  0
    7.6430   12.1626   -0.0000 C   0  0  0  0  0  0  0  0  0  0  0  0
   12.8252    7.6785   -0.0000 C   0  0  0  0  0  0  0  0  0  0  0  0
   11.5356    9.9265   -0.0000 C   0  0  0  0  0  0  0  0  0  0  0  0
    7.6312   13.6770   -0.0000 C   0  0  0  0  0  0  0  0  0  0  0  0
   12.8252    9.1929   -0.0000 O   0  0  0  0  0  0  0  0  0  0  0  0
    8.9208   14.4342   -0.0000 C   0  0  0  0  0  0  0  0  0  0  0  0
    6.3298   14.4342   -0.0000 C   0  0  0  0  0  0  0  0  0  0  0  0
    8.9090   15.9486   -0.0000 C   0  0  0  0  0  0  0  0  0  0  0  0
    6.3179   15.9486   -0.0000 C   0  0  0  0  0  0  0  0  0  0  0  0
    7.5957   16.7177   -0.0000 C   0  0  0  0  0  0  0  0  0  0  0  0
  1  2  1  0  0  0  0
  2  3  2  0  0  0  0
  2  4  1  0  0  0  0
  3  5  1  0  0  0  0
  3  6  1  0  0  0  0
  4  7  2  0  0  0  0
  6  8  2  0  0  0  0
  7  9  1  0  0  0  0
  8 10  1  0  0  0  0
  9 11  1  0  0  0  0
 10 12  1  0  0  0  0
 10 13  1  0  0  0  0
 12 14  2  0  0  0  0
 13 15  1  0  0  0  0
 15 16  2  0  0  0  0
 15 17  1  0  0  0  0
 18 17  1  6  0  0  0
 17 19  1  0  0  0  0
 18 20  1  0  0  0  0
 18 21  1  0  0  0  0
 20 22  2  0  0  0  0
 20 23  1  0  0  0  0
 21 24  1  0  0  0  0
 22 25  1  0  0  0  0
 23 26  2  0  0  0  0
 24 27  1  0  0  0  0
 24 28  1  0  0  0  0
 25 29  2  0  0  0  0
 27 30  1  0  0  0  0
 28 31  1  0  0  0  0
 29 32  1  0  0  0  0
 30 33  1  0  0  0  0
 32 34  2  0  0  0  0
 32 35  1  0  0  0  0
 34 36  1  0  0  0  0
 35 37  2  0  0  0  0
 36 38  2  0  0  0  0
  7  8  1  0  0  0  0
 11 12  1  0  0  0  0
 26 29  1  0  0  0  0
 31 33  1  0  0  0  0
 37 38  1  0  0  0  0
M  END
>  <MolRegNo>
449322

>  <m>
=

>  <Value>
4200

>  <Unit>
nM

>  <Type>
IC50

>  <pValue>
5.38

>  <Ligand Efficiency>
0

>  <Binding Efficiency>
0

>  <Surface Efficiency>
0

>  <Assay Index>
404070

>  <Assay Category>


>  <Assay Organism>


>  <Target ID>
17045

>  <Target Name>
Cytochrome P450 3A4

>  <Target Organism>
Homo sapiens

>  <Target Description>
Target is a single protein chain

>  <Sequence Accession>
P08684

>  <Reference>
Bioorg Med Chem Lett 18 (13), 3716-3719 (2008)

>  <Pubmed ID>
18524591

>  <DOI>
10.1016/j.bmcl.2008.05.058

$$$$
449252
Actelion Java MolfileCreator 1.0

 38 42  0  0  0  0  0  0  0  0999 V2000
    0.0000   -0.0000   -0.0000 Cl  0  0  0  0  0  0  0  0  0  0  0  0
    1.2896    0.7690   -0.0000 C   0  0  0  0  0  0  0  0  0  0  0  0
    1.2660    2.2834   -0.0000 C   0  0  0  0  0  0  0  0  0  0  0  0
    2.5674    0.0473   -0.0000 C   0  0  0  0  0  0  0  0  0  0  0  0
   -0.0473    3.0407   -0.0000 Cl  0  0  0  0  0  0  0  0  0  0  0  0
    2.5437    3.0407   -0.0000 C   0  0  0  0  0  0  0  0  0  0  0  0
    3.8334    0.8045   -0.0000 C   0  0  0  0  0  0  0  0  0  0  0  0
    3.8215    2.3071   -0.0000 C   0  0  0  0  0  0  0  0  0  0  0  0
    5.1230    0.0592   -0.0000 O   0  0  0  0  0  0  0  0  0  0  0  0
    5.1111    3.0643   -0.0000 N   0  0  0  0  0  0  0  0  0  0  0  0
    6.4126    0.8282   -0.0000 C   0  0  0  0  0  0  0  0  0  0  0  0
    6.4008    2.3426   -0.0000 C   0  0  0  0  0  0  0  0  0  0  0  0
    5.0993    4.5787   -0.0000 C   0  0  0  0  0  0  0  0  0  0  0  0
    7.6904    3.1116   -0.0000 O   0  0  0  0  0  0  0  0  0  0  0  0
    6.3889    5.3478   -0.0000 C   0  0  0  0  0  0  0  0  0  0  0  0
    7.6785    4.6142   -0.0000 O   0  0  0  0  0  0  0  0  0  0  0  0
    6.3771    6.8622   -0.0000 N   0  0  0  0  0  0  0  0  0  0  0  0
    7.6785    7.6312   -0.0000 C   0  0  0  0  0  0  0  0  0  0  0  0
    5.0756    7.6194   -0.0000 C   0  0  0  0  0  0  0  0  0  0  0  0
    7.6667    9.1338   -0.0000 C   0  0  0  0  0  0  0  0  0  0  0  0
    8.9682    6.8977   -0.0000 C   0  0  0  0  0  0  0  0  0  0  0  0
    8.9563    9.8910   -0.0000 C   0  0  0  0  0  0  0  0  0  0  0  0
    6.3653    9.8792   -0.0000 C   0  0  0  0  0  0  0  0  0  0  0  0
   10.2578    7.6549   -0.0000 N   0  0  0  0  0  0  0  0  0  0  0  0
    8.9445   11.3936   -0.0000 C   0  0  0  0  0  0  0  0  0  0  0  0
    6.3534   11.3936   -0.0000 C   0  0  0  0  0  0  0  0  0  0  0  0
   11.5356    6.9213   -0.0000 C   0  0  0  0  0  0  0  0  0  0  0  0
   10.2341    9.1693   -0.0000 C   0  0  0  0  0  0  0  0  0  0  0  0
    7.6430   12.1626   -0.0000 C   0  0  0  0  0  0  0  0  0  0  0  0
   12.8252    7.6785   -0.0000 C   0  0  0  0  0  0  0  0  0  0  0  0
   11.5356    9.9265   -0.0000 C   0  0  0  0  0  0  0  0  0  0  0  0
    7.6312   13.6770   -0.0000 C   0  0  0  0  0  0  0  0  0  0  0  0
   12.8252    9.1929   -0.0000 O   0  0  0  0  0  0  0  0  0  0  0  0
    8.9208   14.4342   -0.0000 C   0  0  0  0  0  0  0  0  0  0  0  0
    6.3298   14.4342   -0.0000 C   0  0  0  0  0  0  0  0  0  0  0  0
    8.9090   15.9486   -0.0000 C   0  0  0  0  0  0  0  0  0  0  0  0
    6.3179   15.9486   -0.0000 C   0  0  0  0  0  0  0  0  0  0  0  0
    7.5957   16.7177   -0.0000 C   0  0  0  0  0  0  0  0  0  0  0  0
  1  2  1  0  0  0  0
  2  3  2  0  0  0  0
  2  4  1  0  0  0  0
  3  5  1  0  0  0  0
  3  6  1  0  0  0  0
  4  7  2  0  0  0  0
  6  8  2  0  0  0  0
  7  9  1  0  0  0  0
  8 10  1  0  0  0  0
  9 11  1  0  0  0  0
 10 12  1  0  0  0  0
 10 13  1  0  0  0  0
 12 14  2  0  0  0  0
 13 15  1  0  0  0  0
 15 16  2  0  0  0  0
 15 17  1  0  0  0  0
 17 18  1  0  0  0  0
 17 19  1  0  0  0  0
 18 20  1  0  0  0  0
 18 21  1  0  0  0  0
 20 22  2  0  0  0  0
 20 23  1  0  0  0  0
 21 24  1  0  0  0  0
 22 25  1  0  0  0  0
 23 26  2  0  0  0  0
 24 27  1  0  0  0  0
 24 28  1  0  0  0  0
 25 29  2  0  0  0  0
 27 30  1  0  0  0  0
 28 31  1  0  0  0  0
 29 32  1  0  0  0  0
 30 33  1  0  0  0  0
 32 34  2  0  0  0  0
 32 35  1  0  0  0  0
 34 36  1  0  0  0  0
 35 37  2  0  0  0  0
 36 38  2  0  0  0  0
  7  8  1  0  0  0  0
 11 12  1  0  0  0  0
 26 29  1  0  0  0  0
 31 33  1  0  0  0  0
 37 38  1  0  0  0  0
M  END
>  <MolRegNo>
449252

>  <m>
=

>  <Value>
4600

>  <Unit>
nM

>  <Type>
IC50

>  <pValue>
5.34

>  <Ligand Efficiency>
0

>  <Binding Efficiency>
0

>  <Surface Efficiency>
0

>  <Assay Index>
404070

>  <Assay Category>


>  <Assay Organism>


>  <Target ID>
17045

>  <Target Name>
Cytochrome P450 3A4

>  <Target Organism>
Homo sapiens

>  <Target Description>
Target is a single protein chain

>  <Sequence Accession>
P08684

>  <Reference>
Bioorg Med Chem Lett 18 (13), 3716-3719 (2008)

>  <Pubmed ID>
18524591

>  <DOI>
10.1016/j.bmcl.2008.05.058

$$$$
449251
Actelion Java MolfileCreator 1.0

 35 38  0  0  0  0  0  0  0  0999 V2000
    0.0000   -0.0000   -0.0000 Cl  0  0  0  0  0  0  0  0  0  0  0  0
    1.2919   -0.7348   -0.0000 C   0  0  0  0  0  0  0  0  0  0  0  0
    1.2800   -2.2282   -0.0000 C   0  0  0  0  0  0  0  0  0  0  0  0
    2.5719    0.0237   -0.0000 C   0  0  0  0  0  0  0  0  0  0  0  0
   -0.0356   -2.9630   -0.0000 Cl  0  0  0  0  0  0  0  0  0  0  0  0
    2.5719   -2.9630   -0.0000 C   0  0  0  0  0  0  0  0  0  0  0  0
    3.8638   -0.7111   -0.0000 C   0  0  0  0  0  0  0  0  0  0  0  0
    3.8638   -2.2045   -0.0000 C   0  0  0  0  0  0  0  0  0  0  0  0
    5.1438    0.0593   -0.0000 N   0  0  0  0  0  0  0  0  0  0  0  0
    6.4357   -0.6756   -0.0000 C   0  0  0  0  0  0  0  0  0  0  0  0
    5.1320    1.5763   -0.0000 C   0  0  0  0  0  0  0  0  0  0  0  0
    7.7157    0.0948   -0.0000 C   0  0  0  0  0  0  0  0  0  0  0  0
    9.0076   -0.6400   -0.0000 O   0  0  0  0  0  0  0  0  0  0  0  0
    7.7039    1.6119   -0.0000 N   0  0  0  0  0  0  0  0  0  0  0  0
    8.9957    2.3823   -0.0000 C   0  0  0  0  0  0  0  0  0  0  0  0
    6.4001    2.3704   -0.0000 C   0  0  0  0  0  0  0  0  0  0  0  0
    8.9839    3.8875   -0.0000 C   0  0  0  0  0  0  0  0  0  0  0  0
   10.2876    1.6474   -0.0000 C   0  0  0  0  0  0  0  0  0  0  0  0
   10.2758    4.6460   -0.0000 C   0  0  0  0  0  0  0  0  0  0  0  0
    7.6802    4.6342   -0.0000 C   0  0  0  0  0  0  0  0  0  0  0  0
   11.5795    2.4060   -0.0000 N   0  0  0  0  0  0  0  0  0  0  0  0
   10.2639    6.1512   -0.0000 C   0  0  0  0  0  0  0  0  0  0  0  0
    7.6683    6.1394   -0.0000 C   0  0  0  0  0  0  0  0  0  0  0  0
   12.8595    1.6711   -0.0000 C   0  0  0  0  0  0  0  0  0  0  0  0
   11.5558    3.9230   -0.0000 C   0  0  0  0  0  0  0  0  0  0  0  0
    8.9602    6.9098   -0.0000 C   0  0  0  0  0  0  0  0  0  0  0  0
   14.1396    2.4297   -0.0000 C   0  0  0  0  0  0  0  0  0  0  0  0
   12.8477    4.6816   -0.0000 C   0  0  0  0  0  0  0  0  0  0  0  0
    8.9483    8.4150   -0.0000 C   0  0  0  0  0  0  0  0  0  0  0  0
   14.1396    3.9467   -0.0000 O   0  0  0  0  0  0  0  0  0  0  0  0
   10.2402    9.1735   -0.0000 C   0  0  0  0  0  0  0  0  0  0  0  0
    7.6446    9.1735   -0.0000 C   0  0  0  0  0  0  0  0  0  0  0  0
   10.2284   10.6906   -0.0000 C   0  0  0  0  0  0  0  0  0  0  0  0
    7.6328   10.6787   -0.0000 C   0  0  0  0  0  0  0  0  0  0  0  0
    8.9128   11.4610   -0.0000 C   0  0  0  0  0  0  0  0  0  0  0  0
  1  2  1  0  0  0  0
  2  3  2  0  0  0  0
  2  4  1  0  0  0  0
  3  5  1  0  0  0  0
  3  6  1  0  0  0  0
  4  7  2  0  0  0  0
  6  8  2  0  0  0  0
  7  9  1  0  0  0  0
  9 10  1  0  0  0  0
  9 11  1  0  0  0  0
 10 12  1  0  0  0  0
 12 13  2  0  0  0  0
 12 14  1  0  0  0  0
 14 15  1  0  0  0  0
 14 16  1  0  0  0  0
 15 17  1  0  0  0  0
 15 18  1  0  0  0  0
 17 19  2  0  0  0  0
 17 20  1  0  0  0  0
 18 21  1  0  0  0  0
 19 22  1  0  0  0  0
 20 23  2  0  0  0  0
 21 24  1  0  0  0  0
 21 25  1  0  0  0  0
 22 26  2  0  0  0  0
 24 27  1  0  0  0  0
 25 28  1  0  0  0  0
 26 29  1  0  0  0  0
 27 30  1  0  0  0  0
 29 31  2  0  0  0  0
 29 32  1  0  0  0  0
 31 33  1  0  0  0  0
 32 34  2  0  0  0  0
 33 35  2  0  0  0  0
  7  8  1  0  0  0  0
 23 26  1  0  0  0  0
 28 30  1  0  0  0  0
 34 35  1  0  0  0  0
M  END
>  <MolRegNo>
449251

>  <m>
=

>  <Value>
2100

>  <Unit>
nM

>  <Type>
IC50

>  <pValue>
5.68

>  <Ligand Efficiency>
0

>  <Binding Efficiency>
0

>  <Surface Efficiency>
0

>  <Assay Index>
404070

>  <Assay Category>


>  <Assay Organism>


>  <Target ID>
17045

>  <Target Name>
Cytochrome P450 3A4

>  <Target Organism>
Homo sapiens

>  <Target Description>
Target is a single protein chain

>  <Sequence Accession>
P08684

>  <Reference>
Bioorg Med Chem Lett 18 (13), 3716-3719 (2008)

>  <Pubmed ID>
18524591

>  <DOI>
10.1016/j.bmcl.2008.05.058

$$$$
449182
Actelion Java MolfileCreator 1.0

 34 37  0  0  0  0  0  0  0  0999 V2000
    0.0000   -0.0000   -0.0000 Cl  0  0  0  0  0  0  0  0  0  0  0  0
    1.2917   -0.7347   -0.0000 C   0  0  0  0  0  0  0  0  0  0  0  0
    1.2798   -2.2278   -0.0000 C   0  0  0  0  0  0  0  0  0  0  0  0
    2.5715    0.0237   -0.0000 C   0  0  0  0  0  0  0  0  0  0  0  0
   -0.0356   -2.9625   -0.0000 Cl  0  0  0  0  0  0  0  0  0  0  0  0
    2.5715   -2.9625   -0.0000 C   0  0  0  0  0  0  0  0  0  0  0  0
    3.8631   -0.7110   -0.0000 C   0  0  0  0  0  0  0  0  0  0  0  0
    3.8631   -2.2041   -0.0000 C   0  0  0  0  0  0  0  0  0  0  0  0
    5.1430    0.0593   -0.0000 N   0  0  0  0  0  0  0  0  0  0  0  0
    6.4346   -0.6755   -0.0000 C   0  0  0  0  0  0  0  0  0  0  0  0
    5.1311    1.5761   -0.0000 C   0  0  0  0  0  0  0  0  0  0  0  0
    7.7144    0.0948   -0.0000 C   0  0  0  0  0  0  0  0  0  0  0  0
    9.0061   -0.6399   -0.0000 O   0  0  0  0  0  0  0  0  0  0  0  0
    7.7026    1.6116   -0.0000 N   0  0  0  0  0  0  0  0  0  0  0  0
    8.9942    2.3819   -0.0000 C   0  0  0  0  0  0  0  0  0  0  0  0
    6.3991    2.3700   -0.0000 C   0  0  0  0  0  0  0  0  0  0  0  0
    8.9824    3.8868   -0.0000 C   0  0  0  0  0  0  0  0  0  0  0  0
   10.2859    1.6472   -0.0000 C   0  0  0  0  0  0  0  0  0  0  0  0
   10.2741    4.6452   -0.0000 C   0  0  0  0  0  0  0  0  0  0  0  0
    7.6789    4.6334   -0.0000 C   0  0  0  0  0  0  0  0  0  0  0  0
   11.5776    2.4056   -0.0000 N   0  0  0  0  0  0  0  0  0  0  0  0
   10.2622    6.1502   -0.0000 C   0  0  0  0  0  0  0  0  0  0  0  0
    7.6670    6.1384   -0.0000 C   0  0  0  0  0  0  0  0  0  0  0  0
   12.9403    1.8131   -0.0000 C   0  0  0  0  0  0  0  0  0  0  0  0
   11.7198    3.9105   -0.0000 C   0  0  0  0  0  0  0  0  0  0  0  0
    8.9587    6.9086   -0.0000 C   0  0  0  0  0  0  0  0  0  0  0  0
   13.9357    2.9388   -0.0000 C   0  0  0  0  0  0  0  0  0  0  0  0
   13.1773    4.2305   -0.0000 C   0  0  0  0  0  0  0  0  0  0  0  0
    8.9468    8.4136   -0.0000 C   0  0  0  0  0  0  0  0  0  0  0  0
   10.2385    9.1720   -0.0000 C   0  0  0  0  0  0  0  0  0  0  0  0
    7.6433    9.1720   -0.0000 C   0  0  0  0  0  0  0  0  0  0  0  0
   10.2267   10.6888   -0.0000 C   0  0  0  0  0  0  0  0  0  0  0  0
    7.6315   10.6770   -0.0000 C   0  0  0  0  0  0  0  0  0  0  0  0
    8.9113   11.4591   -0.0000 C   0  0  0  0  0  0  0  0  0  0  0  0
  1  2  1  0  0  0  0
  2  3  2  0  0  0  0
  2  4  1  0  0  0  0
  3  5  1  0  0  0  0
  3  6  1  0  0  0  0
  4  7  2  0  0  0  0
  6  8  2  0  0  0  0
  7  9  1  0  0  0  0
  9 10  1  0  0  0  0
  9 11  1  0  0  0  0
 10 12  1  0  0  0  0
 12 13  2  0  0  0  0
 12 14  1  0  0  0  0
 14 15  1  0  0  0  0
 14 16  1  0  0  0  0
 15 17  1  0  0  0  0
 15 18  1  0  0  0  0
 17 19  2  0  0  0  0
 17 20  1  0  0  0  0
 18 21  1  0  0  0  0
 19 22  1  0  0  0  0
 20 23  2  0  0  0  0
 21 24  1  0  0  0  0
 21 25  1  0  0  0  0
 22 26  2  0  0  0  0
 24 27  1  0  0  0  0
 25 28  1  0  0  0  0
 26 29  1  0  0  0  0
 29 30  2  0  0  0  0
 29 31  1  0  0  0  0
 30 32  1  0  0  0  0
 31 33  2  0  0  0  0
 32 34  2  0  0  0  0
  7  8  1  0  0  0  0
 23 26  1  0  0  0  0
 27 28  1  0  0  0  0
 33 34  1  0  0  0  0
M  END
>  <MolRegNo>
449182

>  <m>
=

>  <Value>
4900

>  <Unit>
nM

>  <Type>
IC50

>  <pValue>
5.31

>  <Ligand Efficiency>
0

>  <Binding Efficiency>
0

>  <Surface Efficiency>
0

>  <Assay Index>
404070

>  <Assay Category>


>  <Assay Organism>


>  <Target ID>
17045

>  <Target Name>
Cytochrome P450 3A4

>  <Target Organism>
Homo sapiens

>  <Target Description>
Target is a single protein chain

>  <Sequence Accession>
P08684

>  <Reference>
Bioorg Med Chem Lett 18 (13), 3716-3719 (2008)

>  <Pubmed ID>
18524591

>  <DOI>
10.1016/j.bmcl.2008.05.058

$$$$
449107
Actelion Java MolfileCreator 1.0

 28 30  0  0  0  0  0  0  0  0999 V2000
    0.0000   -0.0000   -0.0000 Cl  0  0  0  0  0  0  0  0  0  0  0  0
    1.2933   -0.7356   -0.0000 C   0  0  0  0  0  0  0  0  0  0  0  0
    1.2814   -2.2306   -0.0000 C   0  0  0  0  0  0  0  0  0  0  0  0
    2.5747    0.0237   -0.0000 C   0  0  0  0  0  0  0  0  0  0  0  0
   -0.0356   -2.9663   -0.0000 Cl  0  0  0  0  0  0  0  0  0  0  0  0
    2.5747   -2.9663   -0.0000 C   0  0  0  0  0  0  0  0  0  0  0  0
    3.8680   -0.7119   -0.0000 C   0  0  0  0  0  0  0  0  0  0  0  0
    3.8680   -2.2069   -0.0000 C   0  0  0  0  0  0  0  0  0  0  0  0
    5.1495    0.0593   -0.0000 N   0  0  0  0  0  0  0  0  0  0  0  0
    6.4428   -0.6763   -0.0000 C   0  0  0  0  0  0  0  0  0  0  0  0
    5.1376    1.5781   -0.0000 C   0  0  0  0  0  0  0  0  0  0  0  0
    7.7242    0.0949   -0.0000 C   0  0  0  0  0  0  0  0  0  0  0  0
    9.0175   -0.6407   -0.0000 O   0  0  0  0  0  0  0  0  0  0  0  0
    7.7124    1.6137   -0.0000 N   0  0  0  0  0  0  0  0  0  0  0  0
    9.0057    2.3849   -0.0000 C   0  0  0  0  0  0  0  0  0  0  0  0
    6.4072    2.3730   -0.0000 C   0  0  0  0  0  0  0  0  0  0  0  0
    8.9938    3.8918   -0.0000 C   0  0  0  0  0  0  0  0  0  0  0  0
   10.2990    1.6493   -0.0000 C   0  0  0  0  0  0  0  0  0  0  0  0
   10.2871    4.6511   -0.0000 C   0  0  0  0  0  0  0  0  0  0  0  0
    7.6886    4.6393   -0.0000 C   0  0  0  0  0  0  0  0  0  0  0  0
   11.5923    2.4086   -0.0000 N   0  0  0  0  0  0  0  0  0  0  0  0
   10.2752    6.1580   -0.0000 C   0  0  0  0  0  0  0  0  0  0  0  0
    7.6768    6.1462   -0.0000 C   0  0  0  0  0  0  0  0  0  0  0  0
   12.9567    1.8154   -0.0000 C   0  0  0  0  0  0  0  0  0  0  0  0
   11.7346    3.9155   -0.0000 C   0  0  0  0  0  0  0  0  0  0  0  0
    8.9701    6.9174   -0.0000 C   0  0  0  0  0  0  0  0  0  0  0  0
   13.9534    2.9426   -0.0000 C   0  0  0  0  0  0  0  0  0  0  0  0
   13.1941    4.2359   -0.0000 C   0  0  0  0  0  0  0  0  0  0  0  0
  1  2  1  0  0  0  0
  2  3  2  0  0  0  0
  2  4  1  0  0  0  0
  3  5  1  0  0  0  0
  3  6  1  0  0  0  0
  4  7  2  0  0  0  0
  6  8  2  0  0  0  0
  7  9  1  0  0  0  0
  9 10  1  0  0  0  0
  9 11  1  0  0  0  0
 10 12  1  0  0  0  0
 12 13  2  0  0  0  0
 12 14  1  0  0  0  0
 14 15  1  0  0  0  0
 14 16  1  0  0  0  0
 15 17  1  0  0  0  0
 15 18  1  0  0  0  0
 17 19  2  0  0  0  0
 17 20  1  0  0  0  0
 18 21  1  0  0  0  0
 19 22  1  0  0  0  0
 20 23  2  0  0  0  0
 21 24  1  0  0  0  0
 21 25  1  0  0  0  0
 22 26  2  0  0  0  0
 24 27  1  0  0  0  0
 25 28  1  0  0  0  0
  7  8  1  0  0  0  0
 23 26  1  0  0  0  0
 27 28  1  0  0  0  0
M  END
>  <MolRegNo>
449107

>  <m>
=

>  <Value>
3300

>  <Unit>
nM

>  <Type>
IC50

>  <pValue>
5.48

>  <Ligand Efficiency>
0

>  <Binding Efficiency>
0

>  <Surface Efficiency>
0

>  <Assay Index>
404070

>  <Assay Category>


>  <Assay Organism>


>  <Target ID>
17045

>  <Target Name>
Cytochrome P450 3A4

>  <Target Organism>
Homo sapiens

>  <Target Description>
Target is a single protein chain

>  <Sequence Accession>
P08684

>  <Reference>
Bioorg Med Chem Lett 18 (13), 3716-3719 (2008)

>  <Pubmed ID>
18524591

>  <DOI>
10.1016/j.bmcl.2008.05.058

$$$$
448894
Actelion Java MolfileCreator 1.0

 38 43  0  0  0  0  0  0  0  0999 V2000
    0.0000   -0.0000   -0.0000 Br  0  0  0  0  0  0  0  0  0  0  0  0
    1.0285   -1.0639   -0.0000 C   0  0  0  0  0  0  0  0  0  0  0  0
    0.9930   -2.5534   -0.0000 C   0  0  0  0  0  0  0  0  0  0  0  0
    2.5179   -1.0757   -0.0000 C   0  0  0  0  0  0  0  0  0  0  0  0
   -0.1064   -3.5819   -0.0000 N   0  0  0  0  0  0  0  0  0  0  0  0
    2.4707   -2.5652   -0.0000 C   0  0  0  0  0  0  0  0  0  0  0  0
    3.5937   -0.0236   -0.0000 O   0  0  0  0  0  0  0  0  0  0  0  0
   -1.5604   -3.1563   -0.0000 C   0  0  0  0  0  0  0  0  0  0  0  0
    1.7023   -3.8419   -0.0000 C   0  0  0  0  0  0  0  0  0  0  0  0
    3.9483   -2.5534   -0.0000 C   0  0  0  0  0  0  0  0  0  0  0  0
   -2.6598   -4.1848   -0.0000 C   0  0  0  0  0  0  0  0  0  0  0  0
   -1.9269   -1.6905   -0.0000 C   0  0  0  0  0  0  0  0  0  0  0  0
    2.4234   -5.1305   -0.0000 C   0  0  0  0  0  0  0  0  0  0  0  0
    4.6813   -3.8538   -0.0000 C   0  0  0  0  0  0  0  0  0  0  0  0
   -2.3170   -5.6270   -0.0000 O   0  0  0  0  0  0  0  0  0  0  0  0
   -4.1138   -3.7592   -0.0000 O   0  0  0  0  0  0  0  0  0  0  0  0
   -3.3691   -1.2294   -0.0000 C   0  0  0  0  0  0  0  0  0  0  0  0
    3.9129   -5.1305   -0.0000 C   0  0  0  0  0  0  0  0  0  0  0  0
   -4.4921   -2.2342   -0.0000 C   0  0  0  0  0  0  0  0  0  0  0  0
   -3.7119    0.2601   -0.0000 C   0  0  0  0  0  0  0  0  0  0  0  0
   -5.9343   -1.7732   -0.0000 C   0  0  0  0  0  0  0  0  0  0  0  0
   -5.1541    0.7211   -0.0000 C   0  0  0  0  0  0  0  0  0  0  0  0
   -6.2535   -0.2955   -0.0000 C   0  0  0  0  0  0  0  0  0  0  0  0
   -7.6957    0.1655   -0.0000 N   0  0  0  0  0  0  0  0  0  0  0  0
   -8.9251   -0.7093   -0.0000 C   0  0  0  0  0  0  0  0  0  0  0  0
   -8.1804    1.5959   -0.0000 C   0  0  0  0  0  0  0  0  0  0  0  0
  -10.1545    0.1773   -0.0000 N   0  0  0  0  0  0  0  0  0  0  0  0
   -8.9369   -2.1988   -0.0000 C   0  0  0  0  0  0  0  0  0  0  0  0
   -7.4475    2.9081   -0.0000 N   0  0  0  0  0  0  0  0  0  0  0  0
   -9.6817    1.6077   -0.0000 C   0  0  0  0  0  0  0  0  0  0  0  0
  -10.2491   -2.9317   -0.0000 C   0  0  0  0  0  0  0  0  0  0  0  0
   -7.6484   -2.9199   -0.0000 C   0  0  0  0  0  0  0  0  0  0  0  0
   -8.2158    4.2084   -0.0000 C   0  0  0  0  0  0  0  0  0  0  0  0
  -10.4501    2.9081   -0.0000 C   0  0  0  0  0  0  0  0  0  0  0  0
  -10.2609   -4.4212   -0.0000 N   0  0  0  0  0  0  0  0  0  0  0  0
   -7.6484   -4.4094   -0.0000 C   0  0  0  0  0  0  0  0  0  0  0  0
   -9.7290    4.2084   -0.0000 C   0  0  0  0  0  0  0  0  0  0  0  0
   -8.9724   -5.1541   -0.0000 C   0  0  0  0  0  0  0  0  0  0  0  0
  1  2  1  0  0  0  0
  2  3  2  0  0  0  0
  2  4  1  0  0  0  0
  3  5  1  0  0  0  0
  3  6  1  0  0  0  0
  4  7  2  0  0  0  0
  8  5  1  6  0  0  0
  6  9  1  0  0  0  0
  6 10  1  0  0  0  0
  8 11  1  0  0  0  0
  8 12  1  0  0  0  0
  9 13  1  0  0  0  0
 10 14  1  0  0  0  0
 11 15  2  0  0  0  0
 11 16  1  0  0  0  0
 12 17  1  0  0  0  0
 13 18  1  0  0  0  0
 17 19  2  0  0  0  0
 17 20  1  0  0  0  0
 19 21  1  0  0  0  0
 20 22  2  0  0  0  0
 21 23  2  0  0  0  0
 23 24  1  0  0  0  0
 24 25  1  0  0  0  0
 24 26  1  0  0  0  0
 25 27  2  0  0  0  0
 25 28  1  0  0  0  0
 26 29  2  0  0  0  0
 26 30  1  0  0  0  0
 28 31  2  0  0  0  0
 28 32  1  0  0  0  0
 29 33  1  0  0  0  0
 30 34  2  0  0  0  0
 31 35  1  0  0  0  0
 32 36  2  0  0  0  0
 33 37  2  0  0  0  0
 35 38  2  0  0  0  0
  4  6  1  0  0  0  0
 14 18  1  0  0  0  0
 22 23  1  0  0  0  0
 27 30  1  0  0  0  0
 34 37  1  0  0  0  0
 36 38  1  0  0  0  0
M  END
>  <MolRegNo>
448894

>  <m>
=

>  <Value>
62000

>  <Unit>
nM

>  <Type>
IC50

>  <pValue>
4.21

>  <Ligand Efficiency>
0

>  <Binding Efficiency>
0

>  <Surface Efficiency>
0

>  <Assay Index>
341036

>  <Assay Category>


>  <Assay Organism>


>  <Target ID>
17045

>  <Target Name>
Cytochrome P450 3A4

>  <Target Organism>
Homo sapiens

>  <Target Description>
Target is a single protein chain

>  <Sequence Accession>
P08684

>  <Reference>
Bioorg Med Chem Lett 18 (14), 4146-4149 (2008)

>  <Pubmed ID>
18539454

>  <DOI>
10.1016/j.bmcl.2008.05.075

$$$$
449024
Actelion Java MolfileCreator 1.0

 39 44  0  0  0  0  0  0  0  0999 V2000
    0.0000   -0.0000   -0.0000 Br  0  0  0  0  0  0  0  0  0  0  0  0
    1.0284   -1.0639   -0.0000 C   0  0  0  0  0  0  0  0  0  0  0  0
    0.9929   -2.5533   -0.0000 C   0  0  0  0  0  0  0  0  0  0  0  0
    2.5178   -1.0757   -0.0000 C   0  0  0  0  0  0  0  0  0  0  0  0
   -0.1064   -3.5817   -0.0000 N   0  0  0  0  0  0  0  0  0  0  0  0
    2.4705   -2.5651   -0.0000 C   0  0  0  0  0  0  0  0  0  0  0  0
    3.5935   -0.0236   -0.0000 O   0  0  0  0  0  0  0  0  0  0  0  0
   -1.5603   -3.1562   -0.0000 C   0  0  0  0  0  0  0  0  0  0  0  0
    1.7022   -3.8418   -0.0000 C   0  0  0  0  0  0  0  0  0  0  0  0
    3.9481   -2.5533   -0.0000 C   0  0  0  0  0  0  0  0  0  0  0  0
   -2.6597   -4.1846   -0.0000 C   0  0  0  0  0  0  0  0  0  0  0  0
   -1.9386   -1.6904   -0.0000 C   0  0  0  0  0  0  0  0  0  0  0  0
    2.4233   -5.1302   -0.0000 C   0  0  0  0  0  0  0  0  0  0  0  0
    4.6810   -3.8536   -0.0000 C   0  0  0  0  0  0  0  0  0  0  0  0
   -2.3051   -5.6267   -0.0000 O   0  0  0  0  0  0  0  0  0  0  0  0
   -4.1136   -3.7590   -0.0000 O   0  0  0  0  0  0  0  0  0  0  0  0
   -3.3807   -1.2294   -0.0000 C   0  0  0  0  0  0  0  0  0  0  0  0
    3.9127   -5.1302   -0.0000 C   0  0  0  0  0  0  0  0  0  0  0  0
   -4.5037   -2.2341   -0.0000 C   0  0  0  0  0  0  0  0  0  0  0  0
   -3.7235    0.2601   -0.0000 C   0  0  0  0  0  0  0  0  0  0  0  0
   -5.9459   -1.7731   -0.0000 C   0  0  0  0  0  0  0  0  0  0  0  0
   -5.1657    0.7211   -0.0000 C   0  0  0  0  0  0  0  0  0  0  0  0
   -6.2650   -0.2955   -0.0000 C   0  0  0  0  0  0  0  0  0  0  0  0
   -7.7072    0.1655   -0.0000 N   0  0  0  0  0  0  0  0  0  0  0  0
   -8.1918    1.5958   -0.0000 C   0  0  0  0  0  0  0  0  0  0  0  0
   -8.9365   -0.7092   -0.0000 C   0  0  0  0  0  0  0  0  0  0  0  0
   -7.4589    2.9079   -0.0000 N   0  0  0  0  0  0  0  0  0  0  0  0
   -9.7049    1.6076   -0.0000 C   0  0  0  0  0  0  0  0  0  0  0  0
  -10.1659    0.1773   -0.0000 N   0  0  0  0  0  0  0  0  0  0  0  0
   -8.9483   -2.1868   -0.0000 C   0  0  0  0  0  0  0  0  0  0  0  0
   -8.2273    4.2082   -0.0000 C   0  0  0  0  0  0  0  0  0  0  0  0
  -10.4732    2.9079   -0.0000 C   0  0  0  0  0  0  0  0  0  0  0  0
  -10.2604   -2.9197   -0.0000 C   0  0  0  0  0  0  0  0  0  0  0  0
   -7.5180   -2.5533   -0.0000 C   0  0  0  0  0  0  0  0  0  0  0  0
   -8.5701   -3.6172   -0.0000 C   0  0  0  0  0  0  0  0  0  0  0  0
   -9.7403    4.2082   -0.0000 C   0  0  0  0  0  0  0  0  0  0  0  0
  -11.5726   -3.6526   -0.0000 F   0  0  0  0  0  0  0  0  0  0  0  0
   -9.5276   -4.2082   -0.0000 F   0  0  0  0  0  0  0  0  0  0  0  0
  -11.0170   -1.6076   -0.0000 F   0  0  0  0  0  0  0  0  0  0  0  0
  1  2  1  0  0  0  0
  2  3  2  0  0  0  0
  2  4  1  0  0  0  0
  3  5  1  0  0  0  0
  3  6  1  0  0  0  0
  4  7  2  0  0  0  0
  8  5  1  6  0  0  0
  6  9  1  0  0  0  0
  6 10  1  0  0  0  0
  8 11  1  0  0  0  0
  8 12  1  0  0  0  0
  9 13  1  0  0  0  0
 10 14  1  0  0  0  0
 11 15  2  0  0  0  0
 11 16  1  0  0  0  0
 12 17  1  0  0  0  0
 13 18  1  0  0  0  0
 17 19  2  0  0  0  0
 17 20  1  0  0  0  0
 19 21  1  0  0  0  0
 20 22  2  0  0  0  0
 21 23  2  0  0  0  0
 23 24  1  0  0  0  0
 24 25  1  0  0  0  0
 24 26  1  0  0  0  0
 25 27  2  0  0  0  0
 25 28  1  0  0  0  0
 26 29  2  0  0  0  0
 26 30  1  0  0  0  0
 27 31  1  0  0  0  0
 28 32  2  0  0  0  0
 30 33  1  0  0  0  0
 30 34  1  0  0  0  0
 30 35  1  0  0  0  0
 31 36  2  0  0  0  0
 33 37  1  0  0  0  0
 33 38  1  0  0  0  0
 33 39  1  0  0  0  0
  4  6  1  0  0  0  0
 14 18  1  0  0  0  0
 22 23  1  0  0  0  0
 28 29  1  0  0  0  0
 32 36  1  0  0  0  0
 34 35  1  0  0  0  0
M  END
>  <MolRegNo>
449024

>  <m>
=

>  <Value>
10000

>  <Unit>
nM

>  <Type>
IC50

>  <pValue>
5

>  <Ligand Efficiency>
0

>  <Binding Efficiency>
0

>  <Surface Efficiency>
0

>  <Assay Index>
341036

>  <Assay Category>


>  <Assay Organism>


>  <Target ID>
17045

>  <Target Name>
Cytochrome P450 3A4

>  <Target Organism>
Homo sapiens

>  <Target Description>
Target is a single protein chain

>  <Sequence Accession>
P08684

>  <Reference>
Bioorg Med Chem Lett 18 (14), 4146-4149 (2008)

>  <Pubmed ID>
18539454

>  <DOI>
10.1016/j.bmcl.2008.05.075

$$$$
449020
Actelion Java MolfileCreator 1.0

 35 39  0  0  0  0  0  0  0  0999 V2000
    0.0000   -0.0000   -0.0000 Br  0  0  0  0  0  0  0  0  0  0  0  0
    1.0279   -1.0634   -0.0000 C   0  0  0  0  0  0  0  0  0  0  0  0
    0.9925   -2.5521   -0.0000 C   0  0  0  0  0  0  0  0  0  0  0  0
    2.5166   -1.0752   -0.0000 C   0  0  0  0  0  0  0  0  0  0  0  0
   -0.1063   -3.5800   -0.0000 N   0  0  0  0  0  0  0  0  0  0  0  0
    2.4694   -2.5639   -0.0000 C   0  0  0  0  0  0  0  0  0  0  0  0
    3.5918   -0.0236   -0.0000 O   0  0  0  0  0  0  0  0  0  0  0  0
   -1.5596   -3.1546   -0.0000 C   0  0  0  0  0  0  0  0  0  0  0  0
    1.7014   -3.8399   -0.0000 C   0  0  0  0  0  0  0  0  0  0  0  0
    3.9462   -2.5521   -0.0000 C   0  0  0  0  0  0  0  0  0  0  0  0
   -2.6584   -4.1825   -0.0000 C   0  0  0  0  0  0  0  0  0  0  0  0
   -1.9259   -1.6896   -0.0000 C   0  0  0  0  0  0  0  0  0  0  0  0
    2.4221   -5.1277   -0.0000 C   0  0  0  0  0  0  0  0  0  0  0  0
    4.6788   -3.8517   -0.0000 C   0  0  0  0  0  0  0  0  0  0  0  0
   -2.3158   -5.6240   -0.0000 O   0  0  0  0  0  0  0  0  0  0  0  0
   -4.1116   -3.7572   -0.0000 O   0  0  0  0  0  0  0  0  0  0  0  0
   -3.3673   -1.2288   -0.0000 C   0  0  0  0  0  0  0  0  0  0  0  0
    3.9108   -5.1277   -0.0000 C   0  0  0  0  0  0  0  0  0  0  0  0
   -4.4897   -2.2330   -0.0000 C   0  0  0  0  0  0  0  0  0  0  0  0
   -3.7099    0.2599   -0.0000 C   0  0  0  0  0  0  0  0  0  0  0  0
   -5.9312   -1.7723   -0.0000 C   0  0  0  0  0  0  0  0  0  0  0  0
   -5.1514    0.7207   -0.0000 C   0  0  0  0  0  0  0  0  0  0  0  0
   -6.2502   -0.2954   -0.0000 C   0  0  0  0  0  0  0  0  0  0  0  0
   -7.6916    0.1654   -0.0000 N   0  0  0  0  0  0  0  0  0  0  0  0
   -8.1760    1.5950   -0.0000 C   0  0  0  0  0  0  0  0  0  0  0  0
   -8.9204   -0.7089   -0.0000 C   0  0  0  0  0  0  0  0  0  0  0  0
   -7.4435    2.9065   -0.0000 N   0  0  0  0  0  0  0  0  0  0  0  0
   -9.6765    1.6069   -0.0000 C   0  0  0  0  0  0  0  0  0  0  0  0
  -10.1491    0.1772   -0.0000 N   0  0  0  0  0  0  0  0  0  0  0  0
   -8.9322   -2.1976   -0.0000 C   0  0  0  0  0  0  0  0  0  0  0  0
   -8.2115    4.2062   -0.0000 C   0  0  0  0  0  0  0  0  0  0  0  0
  -10.4445    2.9065   -0.0000 C   0  0  0  0  0  0  0  0  0  0  0  0
  -10.2437   -2.9420   -0.0000 C   0  0  0  0  0  0  0  0  0  0  0  0
   -7.6444   -2.9301   -0.0000 C   0  0  0  0  0  0  0  0  0  0  0  0
   -9.7238    4.2062   -0.0000 C   0  0  0  0  0  0  0  0  0  0  0  0
  1  2  1  0  0  0  0
  2  3  2  0  0  0  0
  2  4  1  0  0  0  0
  3  5  1  0  0  0  0
  3  6  1  0  0  0  0
  4  7  2  0  0  0  0
  8  5  1  6  0  0  0
  6  9  1  0  0  0  0
  6 10  1  0  0  0  0
  8 11  1  0  0  0  0
  8 12  1  0  0  0  0
  9 13  1  0  0  0  0
 10 14  1  0  0  0  0
 11 15  2  0  0  0  0
 11 16  1  0  0  0  0
 12 17  1  0  0  0  0
 13 18  1  0  0  0  0
 17 19  2  0  0  0  0
 17 20  1  0  0  0  0
 19 21  1  0  0  0  0
 20 22  2  0  0  0  0
 21 23  2  0  0  0  0
 23 24  1  0  0  0  0
 24 25  1  0  0  0  0
 24 26  1  0  0  0  0
 25 27  2  0  0  0  0
 25 28  1  0  0  0  0
 26 29  2  0  0  0  0
 26 30  1  0  0  0  0
 27 31  1  0  0  0  0
 28 32  2  0  0  0  0
 30 33  1  0  0  0  0
 30 34  1  0  0  0  0
 31 35  2  0  0  0  0
  4  6  1  0  0  0  0
 14 18  1  0  0  0  0
 22 23  1  0  0  0  0
 28 29  1  0  0  0  0
 32 35  1  0  0  0  0
M  END
>  <MolRegNo>
449020

>  <m>
=

>  <Value>
79000

>  <Unit>
nM

>  <Type>
IC50

>  <pValue>
4.1

>  <Ligand Efficiency>
0

>  <Binding Efficiency>
0

>  <Surface Efficiency>
0

>  <Assay Index>
341036

>  <Assay Category>


>  <Assay Organism>


>  <Target ID>
17045

>  <Target Name>
Cytochrome P450 3A4

>  <Target Organism>
Homo sapiens

>  <Target Description>
Target is a single protein chain

>  <Sequence Accession>
P08684

>  <Reference>
Bioorg Med Chem Lett 18 (14), 4146-4149 (2008)

>  <Pubmed ID>
18539454

>  <DOI>
10.1016/j.bmcl.2008.05.075

$$$$
491062
Actelion Java MolfileCreator 1.0

 22 25  0  0  0  0  0  0  0  0999 V2000
    0.0000   -0.0000   -0.0000 S   0  0  0  0  0  0  0  0  0  0  0  0
   -1.4425    0.4730   -0.0000 O   0  0  0  0  0  0  0  0  0  0  0  0
    1.4189   -0.4493   -0.0000 O   0  0  0  0  0  0  0  0  0  0  0  0
    0.4493    1.4425   -0.0000 N   0  0  0  0  0  0  0  0  0  0  0  0
   -0.4730   -1.4189   -0.0000 C   0  0  0  0  0  0  0  0  0  0  0  0
    1.8682    1.9155   -0.0000 C   0  0  0  0  0  0  0  0  0  0  0  0
   -0.4493    2.6722   -0.0000 C   0  0  0  0  0  0  0  0  0  0  0  0
   -1.9155   -1.8682   -0.0000 C   0  0  0  0  0  0  0  0  0  0  0  0
    0.4020   -2.6249   -0.0000 C   0  0  0  0  0  0  0  0  0  0  0  0
    1.8563    3.4289   -0.0000 C   0  0  0  0  0  0  0  0  0  0  0  0
    3.1570    1.1824   -0.0000 C   0  0  0  0  0  0  0  0  0  0  0  0
    0.4257    3.9019   -0.0000 C   0  0  0  0  0  0  0  0  0  0  0  0
   -1.9273   -3.3580   -0.0000 S   0  0  0  0  0  0  0  0  0  0  0  0
   -0.4966   -3.8309   -0.0000 C   0  0  0  0  0  0  0  0  0  0  0  0
    3.1452    4.1857   -0.0000 C   0  0  0  0  0  0  0  0  0  0  0  0
    4.4458    1.9391   -0.0000 C   0  0  0  0  0  0  0  0  0  0  0  0
    4.4340    3.4526   -0.0000 C   0  0  0  0  0  0  0  0  0  0  0  0
    5.6045    1.0169   -0.0000 C   0  0  0  0  0  0  0  0  0  0  0  0
    5.5927    4.3985   -0.0000 C   0  0  0  0  0  0  0  0  0  0  0  0
    7.0589    1.3597   -0.0000 C   0  0  0  0  0  0  0  0  0  0  0  0
    7.0470    4.0792   -0.0000 C   0  0  0  0  0  0  0  0  0  0  0  0
    7.6973    2.7195   -0.0000 N   0  0  0  0  0  0  0  0  0  0  0  0
  1  2  2  0  0  0  0
  1  3  2  0  0  0  0
  1  4  1  0  0  0  0
  1  5  1  0  0  0  0
  4  6  1  0  0  0  0
  4  7  1  0  0  0  0
  5  8  2  0  0  0  0
  5  9  1  0  0  0  0
  6 10  2  0  0  0  0
  6 11  1  0  0  0  0
  7 12  2  0  0  0  0
  8 13  1  0  0  0  0
  9 14  2  0  0  0  0
 10 15  1  0  0  0  0
 11 16  2  0  0  0  0
 15 17  2  0  0  0  0
 16 18  1  0  0  0  0
 17 19  1  0  0  0  0
 18 20  1  0  0  0  0
 19 21  1  0  0  0  0
 20 22  1  0  0  0  0
 10 12  1  0  0  0  0
 13 14  1  0  0  0  0
 16 17  1  0  0  0  0
 21 22  1  0  0  0  0
M  END
>  <MolRegNo>
491062

>  <m>
=

>  <Value>
22000

>  <Unit>
nM

>  <Type>
IC50

>  <pValue>
4.66

>  <Ligand Efficiency>
0

>  <Binding Efficiency>
0

>  <Surface Efficiency>
0

>  <Assay Index>
384894

>  <Assay Category>


>  <Assay Organism>
Homo sapiens

>  <Target ID>
17045

>  <Target Name>
Cytochrome P450 3A4

>  <Target Organism>
Homo sapiens

>  <Target Description>
Target is a single protein chain

>  <Sequence Accession>
P08684

>  <Reference>
Bioorg Med Chem Lett 18 (20), 5698-5700 (2008)

>  <Pubmed ID>
18793848

>  <DOI>
10.1016/j.bmcl.2008.08.010

$$$$
490988
Actelion Java MolfileCreator 1.0

 23 26  0  0  0  0  0  0  0  0999 V2000
    0.0000   -0.0000   -0.0000 S   0  0  0  0  0  0  0  0  0  0  0  0
    1.4205    0.4735   -0.0000 O   0  0  0  0  0  0  0  0  0  0  0  0
   -1.4442   -0.4498   -0.0000 O   0  0  0  0  0  0  0  0  0  0  0  0
    0.4498   -1.4205   -0.0000 N   0  0  0  0  0  0  0  0  0  0  0  0
   -0.4735    1.4442   -0.0000 C   0  0  0  0  0  0  0  0  0  0  0  0
    1.8703   -1.8703   -0.0000 C   0  0  0  0  0  0  0  0  0  0  0  0
   -0.4498   -2.6279   -0.0000 C   0  0  0  0  0  0  0  0  0  0  0  0
   -1.9532    1.7638   -0.0000 C   0  0  0  0  0  0  0  0  0  0  0  0
    0.5208    2.5687   -0.0000 C   0  0  0  0  0  0  0  0  0  0  0  0
    1.8585   -3.3618   -0.0000 C   0  0  0  0  0  0  0  0  0  0  0  0
    3.1606   -1.1127   -0.0000 C   0  0  0  0  0  0  0  0  0  0  0  0
    0.4261   -3.8353   -0.0000 C   0  0  0  0  0  0  0  0  0  0  0  0
   -2.4267    3.2080   -0.0000 C   0  0  0  0  0  0  0  0  0  0  0  0
    0.0473    4.0129   -0.0000 C   0  0  0  0  0  0  0  0  0  0  0  0
    3.1488   -4.1076   -0.0000 C   0  0  0  0  0  0  0  0  0  0  0  0
    4.4509   -1.8466   -0.0000 C   0  0  0  0  0  0  0  0  0  0  0  0
   -1.4323    4.3325   -0.0000 C   0  0  0  0  0  0  0  0  0  0  0  0
    4.4391   -3.3382   -0.0000 C   0  0  0  0  0  0  0  0  0  0  0  0
    5.6110   -0.8996   -0.0000 C   0  0  0  0  0  0  0  0  0  0  0  0
    5.5991   -4.2615   -0.0000 C   0  0  0  0  0  0  0  0  0  0  0  0
    7.0670   -1.2193   -0.0000 C   0  0  0  0  0  0  0  0  0  0  0  0
    7.0551   -3.9182   -0.0000 C   0  0  0  0  0  0  0  0  0  0  0  0
    7.7062   -2.5569   -0.0000 N   0  0  0  0  0  0  0  0  0  0  0  0
  1  2  2  0  0  0  0
  1  3  2  0  0  0  0
  1  4  1  0  0  0  0
  1  5  1  0  0  0  0
  4  6  1  0  0  0  0
  4  7  1  0  0  0  0
  5  8  2  0  0  0  0
  5  9  1  0  0  0  0
  6 10  2  0  0  0  0
  6 11  1  0  0  0  0
  7 12  2  0  0  0  0
  8 13  1  0  0  0  0
  9 14  2  0  0  0  0
 10 15  1  0  0  0  0
 11 16  2  0  0  0  0
 13 17  2  0  0  0  0
 15 18  2  0  0  0  0
 16 19  1  0  0  0  0
 18 20  1  0  0  0  0
 19 21  1  0  0  0  0
 20 22  1  0  0  0  0
 21 23  1  0  0  0  0
 10 12  1  0  0  0  0
 14 17  1  0  0  0  0
 16 18  1  0  0  0  0
 22 23  1  0  0  0  0
M  END
>  <MolRegNo>
490988

>  <m>
=

>  <Value>
12000

>  <Unit>
nM

>  <Type>
IC50

>  <pValue>
4.92

>  <Ligand Efficiency>
0

>  <Binding Efficiency>
0

>  <Surface Efficiency>
0

>  <Assay Index>
384727

>  <Assay Category>


>  <Assay Organism>
Homo sapiens

>  <Target ID>
17045

>  <Target Name>
Cytochrome P450 3A4

>  <Target Organism>
Homo sapiens

>  <Target Description>
Target is a single protein chain

>  <Sequence Accession>
P08684

>  <Reference>
Bioorg Med Chem Lett 18 (20), 5698-5700 (2008)

>  <Pubmed ID>
18793848

>  <DOI>
10.1016/j.bmcl.2008.08.010

$$$$
491057
Actelion Java MolfileCreator 1.0

 24 27  0  0  0  0  0  0  0  0999 V2000
    0.0000   -0.0000   -0.0000 Cl  0  0  0  0  0  0  0  0  0  0  0  0
   -1.4808    0.3199   -0.0000 C   0  0  0  0  0  0  0  0  0  0  0  0
   -2.4996   -0.7819   -0.0000 C   0  0  0  0  0  0  0  0  0  0  0  0
   -1.9547    1.7651   -0.0000 C   0  0  0  0  0  0  0  0  0  0  0  0
   -2.0495   -2.2035   -0.0000 S   0  0  0  0  0  0  0  0  0  0  0  0
   -3.9805   -0.4620   -0.0000 C   0  0  0  0  0  0  0  0  0  0  0  0
   -3.4355    2.0850   -0.0000 C   0  0  0  0  0  0  0  0  0  0  0  0
   -0.6279   -1.7296   -0.0000 O   0  0  0  0  0  0  0  0  0  0  0  0
   -3.4948   -2.6536   -0.0000 O   0  0  0  0  0  0  0  0  0  0  0  0
   -1.5993   -3.6251   -0.0000 N   0  0  0  0  0  0  0  0  0  0  0  0
   -4.4543    0.9833   -0.0000 C   0  0  0  0  0  0  0  0  0  0  0  0
   -0.1777   -4.0752   -0.0000 C   0  0  0  0  0  0  0  0  0  0  0  0
   -2.4996   -4.8334   -0.0000 C   0  0  0  0  0  0  0  0  0  0  0  0
   -0.1895   -5.5679   -0.0000 C   0  0  0  0  0  0  0  0  0  0  0  0
    1.1136   -3.3171   -0.0000 C   0  0  0  0  0  0  0  0  0  0  0  0
   -1.6230   -6.0418   -0.0000 C   0  0  0  0  0  0  0  0  0  0  0  0
    1.1017   -6.3024   -0.0000 C   0  0  0  0  0  0  0  0  0  0  0  0
    2.4049   -4.0515   -0.0000 C   0  0  0  0  0  0  0  0  0  0  0  0
    2.3930   -5.5442   -0.0000 C   0  0  0  0  0  0  0  0  0  0  0  0
    3.5658   -3.1038   -0.0000 C   0  0  0  0  0  0  0  0  0  0  0  0
    3.5540   -6.4683   -0.0000 C   0  0  0  0  0  0  0  0  0  0  0  0
    5.0230   -3.4237   -0.0000 C   0  0  0  0  0  0  0  0  0  0  0  0
    5.0111   -6.1247   -0.0000 C   0  0  0  0  0  0  0  0  0  0  0  0
    5.6627   -4.7623   -0.0000 N   0  0  0  0  0  0  0  0  0  0  0  0
  1  2  1  0  0  0  0
  2  3  2  0  0  0  0
  2  4  1  0  0  0  0
  3  5  1  0  0  0  0
  3  6  1  0  0  0  0
  4  7  2  0  0  0  0
  5  8  2  0  0  0  0
  5  9  2  0  0  0  0
  5 10  1  0  0  0  0
  6 11  2  0  0  0  0
 10 12  1  0  0  0  0
 10 13  1  0  0  0  0
 12 14  2  0  0  0  0
 12 15  1  0  0  0  0
 13 16  2  0  0  0  0
 14 17  1  0  0  0  0
 15 18  2  0  0  0  0
 17 19  2  0  0  0  0
 18 20  1  0  0  0  0
 19 21  1  0  0  0  0
 20 22  1  0  0  0  0
 21 23  1  0  0  0  0
 22 24  1  0  0  0  0
  7 11  1  0  0  0  0
 14 16  1  0  0  0  0
 18 19  1  0  0  0  0
 23 24  1  0  0  0  0
M  END
>  <MolRegNo>
491057

>  <m>
=

>  <Value>
2500

>  <Unit>
nM

>  <Type>
IC50

>  <pValue>
5.6

>  <Ligand Efficiency>
0

>  <Binding Efficiency>
0

>  <Surface Efficiency>
0

>  <Assay Index>
384727

>  <Assay Category>


>  <Assay Organism>
Homo sapiens

>  <Target ID>
17045

>  <Target Name>
Cytochrome P450 3A4

>  <Target Organism>
Homo sapiens

>  <Target Description>
Target is a single protein chain

>  <Sequence Accession>
P08684

>  <Reference>
Bioorg Med Chem Lett 18 (20), 5698-5700 (2008)

>  <Pubmed ID>
18793848

>  <DOI>
10.1016/j.bmcl.2008.08.010

$$$$
491058
Actelion Java MolfileCreator 1.0

 24 27  0  0  0  0  0  0  0  0999 V2000
    0.0000   -0.0000   -0.0000 Cl  0  0  0  0  0  0  0  0  0  0  0  0
   -1.0208   -1.1039   -0.0000 C   0  0  0  0  0  0  0  0  0  0  0  0
   -0.5697   -2.5282   -0.0000 C   0  0  0  0  0  0  0  0  0  0  0  0
   -2.5045   -0.7834   -0.0000 C   0  0  0  0  0  0  0  0  0  0  0  0
   -1.5905   -3.6321   -0.0000 C   0  0  0  0  0  0  0  0  0  0  0  0
   -3.5253   -1.8873   -0.0000 C   0  0  0  0  0  0  0  0  0  0  0  0
   -1.1395   -5.0565   -0.0000 S   0  0  0  0  0  0  0  0  0  0  0  0
   -3.0743   -3.3116   -0.0000 C   0  0  0  0  0  0  0  0  0  0  0  0
    0.2849   -4.5817   -0.0000 O   0  0  0  0  0  0  0  0  0  0  0  0
   -2.5876   -5.5075   -0.0000 O   0  0  0  0  0  0  0  0  0  0  0  0
   -0.6884   -6.4809   -0.0000 N   0  0  0  0  0  0  0  0  0  0  0  0
    0.7359   -6.9319   -0.0000 C   0  0  0  0  0  0  0  0  0  0  0  0
   -1.5905   -7.6916   -0.0000 C   0  0  0  0  0  0  0  0  0  0  0  0
    0.7241   -8.4275   -0.0000 C   0  0  0  0  0  0  0  0  0  0  0  0
    2.0297   -6.1722   -0.0000 C   0  0  0  0  0  0  0  0  0  0  0  0
   -0.7122   -8.9023   -0.0000 C   0  0  0  0  0  0  0  0  0  0  0  0
    2.0178   -9.1753   -0.0000 C   0  0  0  0  0  0  0  0  0  0  0  0
    3.3235   -6.9200   -0.0000 C   0  0  0  0  0  0  0  0  0  0  0  0
    3.3116   -8.4037   -0.0000 C   0  0  0  0  0  0  0  0  0  0  0  0
    4.4867   -5.9705   -0.0000 C   0  0  0  0  0  0  0  0  0  0  0  0
    4.4749   -9.3296   -0.0000 C   0  0  0  0  0  0  0  0  0  0  0  0
    5.9467   -6.2909   -0.0000 C   0  0  0  0  0  0  0  0  0  0  0  0
    5.9348   -8.9854   -0.0000 C   0  0  0  0  0  0  0  0  0  0  0  0
    6.5877   -7.6322   -0.0000 N   0  0  0  0  0  0  0  0  0  0  0  0
  1  2  1  0  0  0  0
  2  3  2  0  0  0  0
  2  4  1  0  0  0  0
  3  5  1  0  0  0  0
  4  6  2  0  0  0  0
  5  7  1  0  0  0  0
  5  8  2  0  0  0  0
  7  9  2  0  0  0  0
  7 10  2  0  0  0  0
  7 11  1  0  0  0  0
 11 12  1  0  0  0  0
 11 13  1  0  0  0  0
 12 14  2  0  0  0  0
 12 15  1  0  0  0  0
 13 16  2  0  0  0  0
 14 17  1  0  0  0  0
 15 18  2  0  0  0  0
 17 19  2  0  0  0  0
 18 20  1  0  0  0  0
 19 21  1  0  0  0  0
 20 22  1  0  0  0  0
 21 23  1  0  0  0  0
 22 24  1  0  0  0  0
  6  8  1  0  0  0  0
 14 16  1  0  0  0  0
 18 19  1  0  0  0  0
 23 24  1  0  0  0  0
M  END
>  <MolRegNo>
491058

>  <m>
=

>  <Value>
3000

>  <Unit>
nM

>  <Type>
IC50

>  <pValue>
5.52

>  <Ligand Efficiency>
0

>  <Binding Efficiency>
0

>  <Surface Efficiency>
0

>  <Assay Index>
384727

>  <Assay Category>


>  <Assay Organism>
Homo sapiens

>  <Target ID>
17045

>  <Target Name>
Cytochrome P450 3A4

>  <Target Organism>
Homo sapiens

>  <Target Description>
Target is a single protein chain

>  <Sequence Accession>
P08684

>  <Reference>
Bioorg Med Chem Lett 18 (20), 5698-5700 (2008)

>  <Pubmed ID>
18793848

>  <DOI>
10.1016/j.bmcl.2008.08.010

$$$$
491061
Actelion Java MolfileCreator 1.0

 23 26  0  0  0  0  0  0  0  0999 V2000
    0.0000   -0.0000   -0.0000 S   0  0  0  0  0  0  0  0  0  0  0  0
    1.4211    0.4737   -0.0000 O   0  0  0  0  0  0  0  0  0  0  0  0
   -1.4448   -0.4500   -0.0000 O   0  0  0  0  0  0  0  0  0  0  0  0
    0.4500   -1.4211   -0.0000 N   0  0  0  0  0  0  0  0  0  0  0  0
   -0.4737    1.4448   -0.0000 C   0  0  0  0  0  0  0  0  0  0  0  0
    1.8711   -1.8711   -0.0000 C   0  0  0  0  0  0  0  0  0  0  0  0
   -0.4500   -2.6290   -0.0000 C   0  0  0  0  0  0  0  0  0  0  0  0
    0.5211    2.5698   -0.0000 N   0  0  0  0  0  0  0  0  0  0  0  0
   -1.9540    1.7645   -0.0000 C   0  0  0  0  0  0  0  0  0  0  0  0
    1.8593   -3.3633   -0.0000 C   0  0  0  0  0  0  0  0  0  0  0  0
    3.1620   -1.1132   -0.0000 C   0  0  0  0  0  0  0  0  0  0  0  0
    0.4263   -3.8370   -0.0000 C   0  0  0  0  0  0  0  0  0  0  0  0
    0.0474    4.0146   -0.0000 C   0  0  0  0  0  0  0  0  0  0  0  0
   -2.4277    3.2093   -0.0000 C   0  0  0  0  0  0  0  0  0  0  0  0
    3.1501   -4.1094   -0.0000 C   0  0  0  0  0  0  0  0  0  0  0  0
    4.4528   -1.8593   -0.0000 C   0  0  0  0  0  0  0  0  0  0  0  0
   -1.4329    4.3344   -0.0000 C   0  0  0  0  0  0  0  0  0  0  0  0
    4.4409   -3.3396   -0.0000 C   0  0  0  0  0  0  0  0  0  0  0  0
    5.6134   -0.9119   -0.0000 C   0  0  0  0  0  0  0  0  0  0  0  0
    5.6015   -4.2633   -0.0000 C   0  0  0  0  0  0  0  0  0  0  0  0
    7.0700   -1.2316   -0.0000 C   0  0  0  0  0  0  0  0  0  0  0  0
    7.0581   -3.9199   -0.0000 C   0  0  0  0  0  0  0  0  0  0  0  0
    7.7095   -2.5698   -0.0000 N   0  0  0  0  0  0  0  0  0  0  0  0
  1  2  2  0  0  0  0
  1  3  2  0  0  0  0
  1  4  1  0  0  0  0
  1  5  1  0  0  0  0
  4  6  1  0  0  0  0
  4  7  1  0  0  0  0
  5  8  2  0  0  0  0
  5  9  1  0  0  0  0
  6 10  2  0  0  0  0
  6 11  1  0  0  0  0
  7 12  2  0  0  0  0
  8 13  1  0  0  0  0
  9 14  2  0  0  0  0
 10 15  1  0  0  0  0
 11 16  2  0  0  0  0
 13 17  2  0  0  0  0
 15 18  2  0  0  0  0
 16 19  1  0  0  0  0
 18 20  1  0  0  0  0
 19 21  1  0  0  0  0
 20 22  1  0  0  0  0
 21 23  1  0  0  0  0
 10 12  1  0  0  0  0
 14 17  1  0  0  0  0
 16 18  1  0  0  0  0
 22 23  1  0  0  0  0
M  END
>  <MolRegNo>
491061

>  <m>
=

>  <Value>
39000

>  <Unit>
nM

>  <Type>
IC50

>  <pValue>
4.41

>  <Ligand Efficiency>
0

>  <Binding Efficiency>
0

>  <Surface Efficiency>
0

>  <Assay Index>
384727

>  <Assay Category>


>  <Assay Organism>
Homo sapiens

>  <Target ID>
17045

>  <Target Name>
Cytochrome P450 3A4

>  <Target Organism>
Homo sapiens

>  <Target Description>
Target is a single protein chain

>  <Sequence Accession>
P08684

>  <Reference>
Bioorg Med Chem Lett 18 (20), 5698-5700 (2008)

>  <Pubmed ID>
18793848

>  <DOI>
10.1016/j.bmcl.2008.08.010

$$$$
491133
Actelion Java MolfileCreator 1.0

 24 27  0  0  0  0  0  0  0  0999 V2000
    0.0000   -0.0000   -0.0000 Cl  0  0  0  0  0  0  0  0  0  0  0  0
    0.4483    1.4392   -0.0000 C   0  0  0  0  0  0  0  0  0  0  0  0
    1.8639    1.9111   -0.0000 C   0  0  0  0  0  0  0  0  0  0  0  0
   -0.4483    2.6660   -0.0000 C   0  0  0  0  0  0  0  0  0  0  0  0
    1.8521    3.4210   -0.0000 C   0  0  0  0  0  0  0  0  0  0  0  0
    3.1497    1.1679   -0.0000 C   0  0  0  0  0  0  0  0  0  0  0  0
    0.4247    3.8929   -0.0000 N   0  0  0  0  0  0  0  0  0  0  0  0
    3.1379    4.1760   -0.0000 C   0  0  0  0  0  0  0  0  0  0  0  0
    4.4355    1.9347   -0.0000 C   0  0  0  0  0  0  0  0  0  0  0  0
   -0.0472    5.3321   -0.0000 S   0  0  0  0  0  0  0  0  0  0  0  0
    4.4237    3.4328   -0.0000 C   0  0  0  0  0  0  0  0  0  0  0  0
    5.5916    1.0145   -0.0000 C   0  0  0  0  0  0  0  0  0  0  0  0
    1.3684    5.8040   -0.0000 O   0  0  0  0  0  0  0  0  0  0  0  0
   -1.4864    4.8838   -0.0000 O   0  0  0  0  0  0  0  0  0  0  0  0
   -0.5191    6.7713   -0.0000 C   0  0  0  0  0  0  0  0  0  0  0  0
    5.5798    4.3766   -0.0000 C   0  0  0  0  0  0  0  0  0  0  0  0
    7.0426    1.3566   -0.0000 C   0  0  0  0  0  0  0  0  0  0  0  0
   -1.9936    7.0898   -0.0000 C   0  0  0  0  0  0  0  0  0  0  0  0
    0.4719    7.8920   -0.0000 C   0  0  0  0  0  0  0  0  0  0  0  0
    7.0308    4.0581   -0.0000 C   0  0  0  0  0  0  0  0  0  0  0  0
    7.6796    2.7132   -0.0000 N   0  0  0  0  0  0  0  0  0  0  0  0
   -2.4655    8.5290   -0.0000 C   0  0  0  0  0  0  0  0  0  0  0  0
    0.0000    9.3312   -0.0000 C   0  0  0  0  0  0  0  0  0  0  0  0
   -1.4746    9.6497   -0.0000 C   0  0  0  0  0  0  0  0  0  0  0  0
  1  2  1  0  0  0  0
  2  3  1  0  0  0  0
  2  4  2  0  0  0  0
  3  5  2  0  0  0  0
  3  6  1  0  0  0  0
  4  7  1  0  0  0  0
  5  8  1  0  0  0  0
  6  9  2  0  0  0  0
  7 10  1  0  0  0  0
  8 11  2  0  0  0  0
  9 12  1  0  0  0  0
 10 13  2  0  0  0  0
 10 14  2  0  0  0  0
 10 15  1  0  0  0  0
 11 16  1  0  0  0  0
 12 17  1  0  0  0  0
 15 18  2  0  0  0  0
 15 19  1  0  0  0  0
 16 20  1  0  0  0  0
 17 21  1  0  0  0  0
 18 22  1  0  0  0  0
 19 23  2  0  0  0  0
 22 24  2  0  0  0  0
  5  7  1  0  0  0  0
  9 11  1  0  0  0  0
 20 21  1  0  0  0  0
 23 24  1  0  0  0  0
M  END
>  <MolRegNo>
491133

>  <m>
=

>  <Value>
12000

>  <Unit>
nM

>  <Type>
IC50

>  <pValue>
4.92

>  <Ligand Efficiency>
0

>  <Binding Efficiency>
0

>  <Surface Efficiency>
0

>  <Assay Index>
384727

>  <Assay Category>


>  <Assay Organism>
Homo sapiens

>  <Target ID>
17045

>  <Target Name>
Cytochrome P450 3A4

>  <Target Organism>
Homo sapiens

>  <Target Description>
Target is a single protein chain

>  <Sequence Accession>
P08684

>  <Reference>
Bioorg Med Chem Lett 18 (20), 5698-5700 (2008)

>  <Pubmed ID>
18793848

>  <DOI>
10.1016/j.bmcl.2008.08.010

$$$$
491134
Actelion Java MolfileCreator 1.0

 25 28  0  0  0  0  0  0  0  0999 V2000
    0.0000   -0.0000   -0.0000 Cl  0  0  0  0  0  0  0  0  0  0  0  0
   -1.0204   -1.1034   -0.0000 C   0  0  0  0  0  0  0  0  0  0  0  0
   -0.5695   -2.5272   -0.0000 C   0  0  0  0  0  0  0  0  0  0  0  0
   -2.5034   -0.7831   -0.0000 C   0  0  0  0  0  0  0  0  0  0  0  0
   -1.5899   -3.6306   -0.0000 C   0  0  0  0  0  0  0  0  0  0  0  0
   -3.5238   -1.8865   -0.0000 C   0  0  0  0  0  0  0  0  0  0  0  0
   -1.1390   -5.0543   -0.0000 S   0  0  0  0  0  0  0  0  0  0  0  0
   -3.0729   -3.3102   -0.0000 C   0  0  0  0  0  0  0  0  0  0  0  0
    0.2848   -4.5797   -0.0000 O   0  0  0  0  0  0  0  0  0  0  0  0
   -2.5865   -5.5052   -0.0000 O   0  0  0  0  0  0  0  0  0  0  0  0
   -0.6881   -6.4781   -0.0000 N   0  0  0  0  0  0  0  0  0  0  0  0
    0.7356   -6.9289   -0.0000 C   0  0  0  0  0  0  0  0  0  0  0  0
   -1.5899   -7.6883   -0.0000 C   0  0  0  0  0  0  0  0  0  0  0  0
    0.7237   -8.4239   -0.0000 C   0  0  0  0  0  0  0  0  0  0  0  0
    2.0288   -6.1577   -0.0000 C   0  0  0  0  0  0  0  0  0  0  0  0
   -0.7119   -8.8984   -0.0000 C   0  0  0  0  0  0  0  0  0  0  0  0
    2.0170   -9.1595   -0.0000 C   0  0  0  0  0  0  0  0  0  0  0  0
    3.3221   -6.9052   -0.0000 C   0  0  0  0  0  0  0  0  0  0  0  0
   -1.1865  -10.3222   -0.0000 Cl  0  0  0  0  0  0  0  0  0  0  0  0
    3.3102   -8.4001   -0.0000 C   0  0  0  0  0  0  0  0  0  0  0  0
    4.4848   -5.9560   -0.0000 C   0  0  0  0  0  0  0  0  0  0  0  0
    4.4730   -9.3256   -0.0000 C   0  0  0  0  0  0  0  0  0  0  0  0
    5.9442   -6.2764   -0.0000 C   0  0  0  0  0  0  0  0  0  0  0  0
    5.9323   -8.9815   -0.0000 C   0  0  0  0  0  0  0  0  0  0  0  0
    6.5848   -7.6171   -0.0000 N   0  0  0  0  0  0  0  0  0  0  0  0
  1  2  1  0  0  0  0
  2  3  2  0  0  0  0
  2  4  1  0  0  0  0
  3  5  1  0  0  0  0
  4  6  2  0  0  0  0
  5  7  1  0  0  0  0
  5  8  2  0  0  0  0
  7  9  2  0  0  0  0
  7 10  2  0  0  0  0
  7 11  1  0  0  0  0
 11 12  1  0  0  0  0
 11 13  1  0  0  0  0
 12 14  2  0  0  0  0
 12 15  1  0  0  0  0
 13 16  2  0  0  0  0
 14 17  1  0  0  0  0
 15 18  2  0  0  0  0
 16 19  1  0  0  0  0
 17 20  2  0  0  0  0
 18 21  1  0  0  0  0
 20 22  1  0  0  0  0
 21 23  1  0  0  0  0
 22 24  1  0  0  0  0
 23 25  1  0  0  0  0
  6  8  1  0  0  0  0
 14 16  1  0  0  0  0
 18 20  1  0  0  0  0
 24 25  1  0  0  0  0
M  END
>  <MolRegNo>
491134

>  <m>
=

>  <Value>
12000

>  <Unit>
nM

>  <Type>
IC50

>  <pValue>
4.92

>  <Ligand Efficiency>
0

>  <Binding Efficiency>
0

>  <Surface Efficiency>
0

>  <Assay Index>
384727

>  <Assay Category>


>  <Assay Organism>
Homo sapiens

>  <Target ID>
17045

>  <Target Name>
Cytochrome P450 3A4

>  <Target Organism>
Homo sapiens

>  <Target Description>
Target is a single protein chain

>  <Sequence Accession>
P08684

>  <Reference>
Bioorg Med Chem Lett 18 (20), 5698-5700 (2008)

>  <Pubmed ID>
18793848

>  <DOI>
10.1016/j.bmcl.2008.08.010

$$$$
491135
Actelion Java MolfileCreator 1.0

 25 28  0  0  0  0  0  0  0  0999 V2000
    0.0000   -0.0000   -0.0000 Cl  0  0  0  0  0  0  0  0  0  0  0  0
   -1.0202   -1.1032   -0.0000 C   0  0  0  0  0  0  0  0  0  0  0  0
   -0.5694   -2.5268   -0.0000 C   0  0  0  0  0  0  0  0  0  0  0  0
   -2.5031   -0.7829   -0.0000 C   0  0  0  0  0  0  0  0  0  0  0  0
   -1.5896   -3.6300   -0.0000 C   0  0  0  0  0  0  0  0  0  0  0  0
   -3.5233   -1.8862   -0.0000 C   0  0  0  0  0  0  0  0  0  0  0  0
   -1.1388   -5.0536   -0.0000 S   0  0  0  0  0  0  0  0  0  0  0  0
   -3.0725   -3.3097   -0.0000 C   0  0  0  0  0  0  0  0  0  0  0  0
   -2.5861   -5.5044   -0.0000 O   0  0  0  0  0  0  0  0  0  0  0  0
    0.2847   -4.5791   -0.0000 O   0  0  0  0  0  0  0  0  0  0  0  0
   -0.6880   -6.4771   -0.0000 N   0  0  0  0  0  0  0  0  0  0  0  0
    0.7355   -6.9279   -0.0000 C   0  0  0  0  0  0  0  0  0  0  0  0
   -1.5896   -7.6871   -0.0000 C   0  0  0  0  0  0  0  0  0  0  0  0
    0.7236   -8.4226   -0.0000 C   0  0  0  0  0  0  0  0  0  0  0  0
    2.0285   -6.1568   -0.0000 C   0  0  0  0  0  0  0  0  0  0  0  0
   -0.7118   -8.8971   -0.0000 C   0  0  0  0  0  0  0  0  0  0  0  0
    2.0167   -9.1700   -0.0000 C   0  0  0  0  0  0  0  0  0  0  0  0
    3.3216   -6.9042   -0.0000 C   0  0  0  0  0  0  0  0  0  0  0  0
    3.3097   -8.3989   -0.0000 C   0  0  0  0  0  0  0  0  0  0  0  0
    4.4842   -5.9552   -0.0000 C   0  0  0  0  0  0  0  0  0  0  0  0
    4.4723   -9.3242   -0.0000 C   0  0  0  0  0  0  0  0  0  0  0  0
    5.9433   -6.2754   -0.0000 C   0  0  0  0  0  0  0  0  0  0  0  0
    5.9314   -8.9802   -0.0000 C   0  0  0  0  0  0  0  0  0  0  0  0
    6.5839   -7.6159   -0.0000 N   0  0  0  0  0  0  0  0  0  0  0  0
    8.0786   -7.6041   -0.0000 C   0  0  0  0  0  0  0  0  0  0  0  0
  1  2  1  0  0  0  0
  2  3  2  0  0  0  0
  2  4  1  0  0  0  0
  3  5  1  0  0  0  0
  4  6  2  0  0  0  0
  5  7  1  0  0  0  0
  5  8  2  0  0  0  0
  7  9  2  0  0  0  0
  7 10  2  0  0  0  0
  7 11  1  0  0  0  0
 11 12  1  0  0  0  0
 11 13  1  0  0  0  0
 12 14  2  0  0  0  0
 12 15  1  0  0  0  0
 13 16  2  0  0  0  0
 14 17  1  0  0  0  0
 15 18  2  0  0  0  0
 17 19  2  0  0  0  0
 18 20  1  0  0  0  0
 19 21  1  0  0  0  0
 20 22  1  0  0  0  0
 21 23  1  0  0  0  0
 22 24  1  0  0  0  0
 24 25  1  0  0  0  0
  6  8  1  0  0  0  0
 14 16  1  0  0  0  0
 18 19  1  0  0  0  0
 23 24  1  0  0  0  0
M  END
>  <MolRegNo>
491135

>  <m>
=

>  <Value>
15000

>  <Unit>
nM

>  <Type>
IC50

>  <pValue>
4.82

>  <Ligand Efficiency>
0

>  <Binding Efficiency>
0

>  <Surface Efficiency>
0

>  <Assay Index>
384727

>  <Assay Category>


>  <Assay Organism>
Homo sapiens

>  <Target ID>
17045

>  <Target Name>
Cytochrome P450 3A4

>  <Target Organism>
Homo sapiens

>  <Target Description>
Target is a single protein chain

>  <Sequence Accession>
P08684

>  <Reference>
Bioorg Med Chem Lett 18 (20), 5698-5700 (2008)

>  <Pubmed ID>
18793848

>  <DOI>
10.1016/j.bmcl.2008.08.010

$$$$
491136
Actelion Java MolfileCreator 1.0

 24 27  0  0  0  0  0  0  0  0999 V2000
    0.0000   -0.0000   -0.0000 S   0  0  0  0  0  0  0  0  0  0  0  0
   -1.4422    0.4728   -0.0000 O   0  0  0  0  0  0  0  0  0  0  0  0
    1.4185   -0.4492   -0.0000 O   0  0  0  0  0  0  0  0  0  0  0  0
   -0.4728   -1.4185   -0.0000 C   0  0  0  0  0  0  0  0  0  0  0  0
    0.4492    1.4422   -0.0000 C   0  0  0  0  0  0  0  0  0  0  0  0
    0.5201   -2.5179   -0.0000 C   0  0  0  0  0  0  0  0  0  0  0  0
   -1.9505   -1.7141   -0.0000 C   0  0  0  0  0  0  0  0  0  0  0  0
    1.8677    1.9150   -0.0000 C   0  0  0  0  0  0  0  0  0  0  0  0
   -0.4492    2.6716   -0.0000 C   0  0  0  0  0  0  0  0  0  0  0  0
    0.0473   -3.9364   -0.0000 C   0  0  0  0  0  0  0  0  0  0  0  0
   -2.4233   -3.1326   -0.0000 C   0  0  0  0  0  0  0  0  0  0  0  0
    1.8559    3.4281   -0.0000 C   0  0  0  0  0  0  0  0  0  0  0  0
    3.1562    1.1703   -0.0000 C   0  0  0  0  0  0  0  0  0  0  0  0
    0.4256    3.9010   -0.0000 N   0  0  0  0  0  0  0  0  0  0  0  0
   -1.4304   -4.2319   -0.0000 C   0  0  0  0  0  0  0  0  0  0  0  0
    3.1444    4.1965   -0.0000 C   0  0  0  0  0  0  0  0  0  0  0  0
    4.4447    1.9387   -0.0000 C   0  0  0  0  0  0  0  0  0  0  0  0
   -0.0473    5.3431   -0.0000 C   0  0  0  0  0  0  0  0  0  0  0  0
    4.4329    3.4518   -0.0000 C   0  0  0  0  0  0  0  0  0  0  0  0
    5.6032    1.0166   -0.0000 C   0  0  0  0  0  0  0  0  0  0  0  0
    5.5914    4.3974   -0.0000 C   0  0  0  0  0  0  0  0  0  0  0  0
    7.0572    1.3594   -0.0000 C   0  0  0  0  0  0  0  0  0  0  0  0
    7.0454    4.0783   -0.0000 C   0  0  0  0  0  0  0  0  0  0  0  0
    7.6955    2.7188   -0.0000 N   0  0  0  0  0  0  0  0  0  0  0  0
  1  2  2  0  0  0  0
  1  3  2  0  0  0  0
  1  4  1  0  0  0  0
  1  5  1  0  0  0  0
  4  6  2  0  0  0  0
  4  7  1  0  0  0  0
  5  8  1  0  0  0  0
  5  9  2  0  0  0  0
  6 10  1  0  0  0  0
  7 11  2  0  0  0  0
  8 12  2  0  0  0  0
  8 13  1  0  0  0  0
  9 14  1  0  0  0  0
 10 15  2  0  0  0  0
 12 16  1  0  0  0  0
 13 17  2  0  0  0  0
 14 18  1  0  0  0  0
 16 19  2  0  0  0  0
 17 20  1  0  0  0  0
 19 21  1  0  0  0  0
 20 22  1  0  0  0  0
 21 23  1  0  0  0  0
 22 24  1  0  0  0  0
 11 15  1  0  0  0  0
 12 14  1  0  0  0  0
 17 19  1  0  0  0  0
 23 24  1  0  0  0  0
M  END
>  <MolRegNo>
491136

>  <m>
=

>  <Value>
7800

>  <Unit>
nM

>  <Type>
IC50

>  <pValue>
5.11

>  <Ligand Efficiency>
0

>  <Binding Efficiency>
0

>  <Surface Efficiency>
0

>  <Assay Index>
384727

>  <Assay Category>


>  <Assay Organism>
Homo sapiens

>  <Target ID>
17045

>  <Target Name>
Cytochrome P450 3A4

>  <Target Organism>
Homo sapiens

>  <Target Description>
Target is a single protein chain

>  <Sequence Accession>
P08684

>  <Reference>
Bioorg Med Chem Lett 18 (20), 5698-5700 (2008)

>  <Pubmed ID>
18793848

>  <DOI>
10.1016/j.bmcl.2008.08.010

$$$$
491060
Actelion Java MolfileCreator 1.0

 25 28  0  0  0  0  0  0  0  0999 V2000
    0.0000   -0.0000   -0.0000 S   0  0  0  0  0  0  0  0  0  0  0  0
    1.4202    0.4734   -0.0000 O   0  0  0  0  0  0  0  0  0  0  0  0
   -1.4439   -0.4497   -0.0000 O   0  0  0  0  0  0  0  0  0  0  0  0
    0.4497   -1.4202   -0.0000 N   0  0  0  0  0  0  0  0  0  0  0  0
   -0.4734    1.4439   -0.0000 C   0  0  0  0  0  0  0  0  0  0  0  0
    1.8699   -1.8699   -0.0000 C   0  0  0  0  0  0  0  0  0  0  0  0
   -0.4497   -2.6274   -0.0000 C   0  0  0  0  0  0  0  0  0  0  0  0
    0.5207    2.5682   -0.0000 C   0  0  0  0  0  0  0  0  0  0  0  0
   -1.9528    1.7634   -0.0000 C   0  0  0  0  0  0  0  0  0  0  0  0
    1.8581   -3.3611   -0.0000 C   0  0  0  0  0  0  0  0  0  0  0  0
    3.1599   -1.1125   -0.0000 C   0  0  0  0  0  0  0  0  0  0  0  0
    0.4261   -3.8345   -0.0000 C   0  0  0  0  0  0  0  0  0  0  0  0
    0.0473    4.0120   -0.0000 C   0  0  0  0  0  0  0  0  0  0  0  0
   -2.4262    3.2073   -0.0000 C   0  0  0  0  0  0  0  0  0  0  0  0
    3.1481   -4.0949   -0.0000 C   0  0  0  0  0  0  0  0  0  0  0  0
    4.4499   -1.8463   -0.0000 C   0  0  0  0  0  0  0  0  0  0  0  0
    1.0415    5.1364   -0.0000 O   0  0  0  0  0  0  0  0  0  0  0  0
   -1.4320    4.3316   -0.0000 C   0  0  0  0  0  0  0  0  0  0  0  0
    4.4381   -3.3375   -0.0000 C   0  0  0  0  0  0  0  0  0  0  0  0
    5.6098   -0.8995   -0.0000 C   0  0  0  0  0  0  0  0  0  0  0  0
    0.5681    6.5802   -0.0000 C   0  0  0  0  0  0  0  0  0  0  0  0
    5.5979   -4.2606   -0.0000 C   0  0  0  0  0  0  0  0  0  0  0  0
    7.0655   -1.2190   -0.0000 C   0  0  0  0  0  0  0  0  0  0  0  0
    7.0536   -3.9174   -0.0000 C   0  0  0  0  0  0  0  0  0  0  0  0
    7.7045   -2.5563   -0.0000 N   0  0  0  0  0  0  0  0  0  0  0  0
  1  2  2  0  0  0  0
  1  3  2  0  0  0  0
  1  4  1  0  0  0  0
  1  5  1  0  0  0  0
  4  6  1  0  0  0  0
  4  7  1  0  0  0  0
  5  8  2  0  0  0  0
  5  9  1  0  0  0  0
  6 10  2  0  0  0  0
  6 11  1  0  0  0  0
  7 12  2  0  0  0  0
  8 13  1  0  0  0  0
  9 14  2  0  0  0  0
 10 15  1  0  0  0  0
 11 16  2  0  0  0  0
 13 17  1  0  0  0  0
 13 18  2  0  0  0  0
 15 19  2  0  0  0  0
 16 20  1  0  0  0  0
 17 21  1  0  0  0  0
 19 22  1  0  0  0  0
 20 23  1  0  0  0  0
 22 24  1  0  0  0  0
 23 25  1  0  0  0  0
 10 12  1  0  0  0  0
 14 18  1  0  0  0  0
 16 19  1  0  0  0  0
 24 25  1  0  0  0  0
M  END
>  <MolRegNo>
491060

>  <m>
=

>  <Value>
27000

>  <Unit>
nM

>  <Type>
IC50

>  <pValue>
4.57

>  <Ligand Efficiency>
0

>  <Binding Efficiency>
0

>  <Surface Efficiency>
0

>  <Assay Index>
384894

>  <Assay Category>


>  <Assay Organism>
Homo sapiens

>  <Target ID>
17045

>  <Target Name>
Cytochrome P450 3A4

>  <Target Organism>
Homo sapiens

>  <Target Description>
Target is a single protein chain

>  <Sequence Accession>
P08684

>  <Reference>
Bioorg Med Chem Lett 18 (20), 5698-5700 (2008)

>  <Pubmed ID>
18793848

>  <DOI>
10.1016/j.bmcl.2008.08.010

$$$$
513870
Actelion Java MolfileCreator 1.0

 35 39  0  0  0  0  0  0  0  0999 V2000
    0.0000   -0.0000   -0.0000 Cl  0  0  0  0  0  0  0  0  0  0  0  0
    1.2913   -0.7463   -0.0000 C   0  0  0  0  0  0  0  0  0  0  0  0
    2.5825    0.0118   -0.0000 C   0  0  0  0  0  0  0  0  0  0  0  0
    1.2794   -2.2390   -0.0000 C   0  0  0  0  0  0  0  0  0  0  0  0
    3.8738   -0.7345   -0.0000 C   0  0  0  0  0  0  0  0  0  0  0  0
    2.5707   -2.9734   -0.0000 C   0  0  0  0  0  0  0  0  0  0  0  0
    5.1650    0.0237   -0.0000 F   0  0  0  0  0  0  0  0  0  0  0  0
    3.8619   -2.2271   -0.0000 C   0  0  0  0  0  0  0  0  0  0  0  0
    5.1532   -2.9616   -0.0000 C   0  0  0  0  0  0  0  0  0  0  0  0
    6.4444   -2.2034   -0.0000 N   0  0  0  0  0  0  0  0  0  0  0  0
    5.1413   -4.4542   -0.0000 C   0  0  0  0  0  0  0  0  0  0  0  0
    7.7357   -2.9379   -0.0000 C   0  0  0  0  0  0  0  0  0  0  0  0
    6.4326   -5.1887   -0.0000 C   0  0  0  0  0  0  0  0  0  0  0  0
    3.8264   -5.1887   -0.0000 C   0  0  0  0  0  0  0  0  0  0  0  0
    7.7238   -4.4305   -0.0000 N   0  0  0  0  0  0  0  0  0  0  0  0
    9.0269   -2.1797   -0.0000 C   0  0  0  0  0  0  0  0  0  0  0  0
    6.4207   -6.6813   -0.0000 C   0  0  0  0  0  0  0  0  0  0  0  0
    2.5114   -4.4305   -0.0000 O   0  0  0  0  0  0  0  0  0  0  0  0
    3.8145   -6.6813   -0.0000 N   0  0  0  0  0  0  0  0  0  0  0  0
    9.0151   -0.6634   -0.0000 C   0  0  0  0  0  0  0  0  0  0  0  0
   10.3182   -2.9142   -0.0000 C   0  0  0  0  0  0  0  0  0  0  0  0
    2.4996   -7.4277   -0.0000 C   0  0  0  0  0  0  0  0  0  0  0  0
   10.3063    0.0948   -0.0000 C   0  0  0  0  0  0  0  0  0  0  0  0
   11.6094   -2.1560   -0.0000 C   0  0  0  0  0  0  0  0  0  0  0  0
    1.1846   -6.6576   -0.0000 C   0  0  0  0  0  0  0  0  0  0  0  0
    2.4877   -8.9203   -0.0000 C   0  0  0  0  0  0  0  0  0  0  0  0
   11.5976   -0.6515   -0.0000 C   0  0  0  0  0  0  0  0  0  0  0  0
   -0.1303   -7.4040   -0.0000 C   0  0  0  0  0  0  0  0  0  0  0  0
    1.1728   -9.6666   -0.0000 C   0  0  0  0  0  0  0  0  0  0  0  0
   12.8888    0.1066   -0.0000 O   0  0  0  0  0  0  0  0  0  0  0  0
   -0.1422   -8.8966   -0.0000 C   0  0  0  0  0  0  0  0  0  0  0  0
   -1.5756   -6.9301   -0.0000 C   0  0  0  0  0  0  0  0  0  0  0  0
   12.8770    1.6229   -0.0000 C   0  0  0  0  0  0  0  0  0  0  0  0
   -1.5874   -9.3468   -0.0000 N   0  0  0  0  0  0  0  0  0  0  0  0
   -2.4759   -8.1384   -0.0000 N   0  0  0  0  0  0  0  0  0  0  0  0
  1  2  1  0  0  0  0
  2  3  2  0  0  0  0
  2  4  1  0  0  0  0
  3  5  1  0  0  0  0
  4  6  2  0  0  0  0
  5  7  1  0  0  0  0
  5  8  2  0  0  0  0
  8  9  1  0  0  0  0
  9 10  1  0  0  0  0
  9 11  1  0  0  0  0
 10 12  2  0  0  0  0
 11 13  2  0  0  0  0
 11 14  1  0  0  0  0
 12 15  1  0  0  0  0
 12 16  1  0  0  0  0
 13 17  1  0  0  0  0
 14 18  2  0  0  0  0
 14 19  1  0  0  0  0
 16 20  2  0  0  0  0
 16 21  1  0  0  0  0
 19 22  1  0  0  0  0
 20 23  1  0  0  0  0
 21 24  2  0  0  0  0
 22 25  2  0  0  0  0
 22 26  1  0  0  0  0
 23 27  2  0  0  0  0
 25 28  1  0  0  0  0
 26 29  2  0  0  0  0
 27 30  1  0  0  0  0
 28 31  2  0  0  0  0
 28 32  1  0  0  0  0
 30 33  1  0  0  0  0
 31 34  1  0  0  0  0
 32 35  2  0  0  0  0
  6  8  1  0  0  0  0
 13 15  1  0  0  0  0
 24 27  1  0  0  0  0
 29 31  1  0  0  0  0
 34 35  1  0  0  0  0
M  END
>  <MolRegNo>
513870

>  <m>
=

>  <Value>
2700

>  <Unit>
nM

>  <Type>
IC50

>  <pValue>
5.57

>  <Ligand Efficiency>
0

>  <Binding Efficiency>
0

>  <Surface Efficiency>
0

>  <Assay Index>
386361

>  <Assay Category>


>  <Assay Organism>


>  <Target ID>
17045

>  <Target Name>
Cytochrome P450 3A4

>  <Target Organism>
Homo sapiens

>  <Target Description>
Target is a single protein chain

>  <Sequence Accession>
P08684

>  <Reference>
J Med Chem 51 (21), 6631-6634 (2008)

>  <Pubmed ID>
18842034

>  <DOI>
10.1021/jm8005096

$$$$
513803
Actelion Java MolfileCreator 1.0

 34 38  0  0  0  0  0  0  0  0999 V2000
    0.0000   -0.0000   -0.0000 Cl  0  0  0  0  0  0  0  0  0  0  0  0
   -1.3070    0.7536   -0.0000 C   0  0  0  0  0  0  0  0  0  0  0  0
   -1.3187    2.2607   -0.0000 N   0  0  0  0  0  0  0  0  0  0  0  0
   -2.6139    0.0235   -0.0000 C   0  0  0  0  0  0  0  0  0  0  0  0
   -2.6257    3.0143   -0.0000 C   0  0  0  0  0  0  0  0  0  0  0  0
   -3.9209    0.7771   -0.0000 C   0  0  0  0  0  0  0  0  0  0  0  0
   -3.9327    2.2725   -0.0000 C   0  0  0  0  0  0  0  0  0  0  0  0
   -5.2279    0.0471   -0.0000 C   0  0  0  0  0  0  0  0  0  0  0  0
   -6.5348    0.8007   -0.0000 N   0  0  0  0  0  0  0  0  0  0  0  0
   -5.2396   -1.4365   -0.0000 N   0  0  0  0  0  0  0  0  0  0  0  0
   -7.8418    0.0706   -0.0000 C   0  0  0  0  0  0  0  0  0  0  0  0
   -6.5466   -2.1665   -0.0000 C   0  0  0  0  0  0  0  0  0  0  0  0
   -7.8536   -1.4129   -0.0000 C   0  0  0  0  0  0  0  0  0  0  0  0
   -9.1488    0.8242   -0.0000 C   0  0  0  0  0  0  0  0  0  0  0  0
   -6.5584   -3.6501   -0.0000 C   0  0  0  0  0  0  0  0  0  0  0  0
   -9.1606   -2.1430   -0.0000 C   0  0  0  0  0  0  0  0  0  0  0  0
   -9.1606    2.3313   -0.0000 C   0  0  0  0  0  0  0  0  0  0  0  0
  -10.4557    0.0942   -0.0000 C   0  0  0  0  0  0  0  0  0  0  0  0
  -10.4675   -1.3894   -0.0000 O   0  0  0  0  0  0  0  0  0  0  0  0
   -9.1723   -3.6265   -0.0000 N   0  0  0  0  0  0  0  0  0  0  0  0
   -7.8771    3.0849   -0.0000 F   0  0  0  0  0  0  0  0  0  0  0  0
  -10.4675    3.0849   -0.0000 C   0  0  0  0  0  0  0  0  0  0  0  0
  -11.7627    0.8478   -0.0000 C   0  0  0  0  0  0  0  0  0  0  0  0
  -10.4793   -4.3683   -0.0000 C   0  0  0  0  0  0  0  0  0  0  0  0
  -11.7745    2.3431   -0.0000 C   0  0  0  0  0  0  0  0  0  0  0  0
  -11.7863   -3.6148   -0.0000 C   0  0  0  0  0  0  0  0  0  0  0  0
  -10.4911   -5.8519   -0.0000 C   0  0  0  0  0  0  0  0  0  0  0  0
  -13.0815    3.0967   -0.0000 Cl  0  0  0  0  0  0  0  0  0  0  0  0
  -13.0932   -4.3566   -0.0000 C   0  0  0  0  0  0  0  0  0  0  0  0
  -11.7980   -6.5937   -0.0000 C   0  0  0  0  0  0  0  0  0  0  0  0
  -13.1050   -5.8401   -0.0000 C   0  0  0  0  0  0  0  0  0  0  0  0
  -14.5297   -3.8856   -0.0000 C   0  0  0  0  0  0  0  0  0  0  0  0
  -14.5415   -6.2876   -0.0000 N   0  0  0  0  0  0  0  0  0  0  0  0
  -15.4246   -5.0866   -0.0000 N   0  0  0  0  0  0  0  0  0  0  0  0
  1  2  1  0  0  0  0
  2  3  2  0  0  0  0
  2  4  1  0  0  0  0
  3  5  1  0  0  0  0
  4  6  2  0  0  0  0
  5  7  2  0  0  0  0
  6  8  1  0  0  0  0
  8  9  2  0  0  0  0
  8 10  1  0  0  0  0
  9 11  1  0  0  0  0
 10 12  1  0  0  0  0
 11 13  1  0  0  0  0
 11 14  1  0  0  0  0
 12 15  1  0  0  0  0
 13 16  1  0  0  0  0
 14 17  2  0  0  0  0
 14 18  1  0  0  0  0
 16 19  2  0  0  0  0
 16 20  1  0  0  0  0
 17 21  1  0  0  0  0
 17 22  1  0  0  0  0
 18 23  2  0  0  0  0
 20 24  1  0  0  0  0
 22 25  2  0  0  0  0
 24 26  2  0  0  0  0
 24 27  1  0  0  0  0
 25 28  1  0  0  0  0
 26 29  1  0  0  0  0
 27 30  2  0  0  0  0
 29 31  2  0  0  0  0
 29 32  1  0  0  0  0
 31 33  1  0  0  0  0
 32 34  2  0  0  0  0
  6  7  1  0  0  0  0
 12 13  2  0  0  0  0
 23 25  1  0  0  0  0
 30 31  1  0  0  0  0
 33 34  1  0  0  0  0
M  END
>  <MolRegNo>
513803

>  <m>
=

>  <Value>
5500

>  <Unit>
nM

>  <Type>
IC50

>  <pValue>
5.26

>  <Ligand Efficiency>
0

>  <Binding Efficiency>
0

>  <Surface Efficiency>
0

>  <Assay Index>
386361

>  <Assay Category>


>  <Assay Organism>


>  <Target ID>
17045

>  <Target Name>
Cytochrome P450 3A4

>  <Target Organism>
Homo sapiens

>  <Target Description>
Target is a single protein chain

>  <Sequence Accession>
P08684

>  <Reference>
J Med Chem 51 (21), 6631-6634 (2008)

>  <Pubmed ID>
18842034

>  <DOI>
10.1021/jm8005096

$$$$
513805
Actelion Java MolfileCreator 1.0

 35 39  0  0  0  0  0  0  0  0999 V2000
    0.0000   -0.0000   -0.0000 Cl  0  0  0  0  0  0  0  0  0  0  0  0
    1.2921   -0.7349   -0.0000 C   0  0  0  0  0  0  0  0  0  0  0  0
    2.5841    0.0237   -0.0000 C   0  0  0  0  0  0  0  0  0  0  0  0
    1.2802   -2.2285   -0.0000 C   0  0  0  0  0  0  0  0  0  0  0  0
    3.8762   -0.7112   -0.0000 C   0  0  0  0  0  0  0  0  0  0  0  0
    2.5723   -2.9634   -0.0000 C   0  0  0  0  0  0  0  0  0  0  0  0
    5.1682    0.0474   -0.0000 F   0  0  0  0  0  0  0  0  0  0  0  0
    3.8643   -2.2048   -0.0000 C   0  0  0  0  0  0  0  0  0  0  0  0
    5.1564   -2.9397   -0.0000 C   0  0  0  0  0  0  0  0  0  0  0  0
    6.4484   -2.1811   -0.0000 N   0  0  0  0  0  0  0  0  0  0  0  0
    5.1445   -4.4333   -0.0000 C   0  0  0  0  0  0  0  0  0  0  0  0
    7.7405   -2.9160   -0.0000 C   0  0  0  0  0  0  0  0  0  0  0  0
    6.4366   -5.1801   -0.0000 C   0  0  0  0  0  0  0  0  0  0  0  0
    3.8288   -5.1801   -0.0000 C   0  0  0  0  0  0  0  0  0  0  0  0
    7.7286   -4.4096   -0.0000 N   0  0  0  0  0  0  0  0  0  0  0  0
    9.0326   -2.1574   -0.0000 C   0  0  0  0  0  0  0  0  0  0  0  0
    6.4247   -6.6737   -0.0000 C   0  0  0  0  0  0  0  0  0  0  0  0
    2.5130   -4.4214   -0.0000 O   0  0  0  0  0  0  0  0  0  0  0  0
    3.8169   -6.6737   -0.0000 N   0  0  0  0  0  0  0  0  0  0  0  0
   10.3246   -2.8923   -0.0000 C   0  0  0  0  0  0  0  0  0  0  0  0
    9.0207   -0.6401   -0.0000 C   0  0  0  0  0  0  0  0  0  0  0  0
    2.5011   -7.4204   -0.0000 C   0  0  0  0  0  0  0  0  0  0  0  0
   11.6167   -2.1337   -0.0000 N   0  0  0  0  0  0  0  0  0  0  0  0
   10.3128    0.1185   -0.0000 C   0  0  0  0  0  0  0  0  0  0  0  0
    1.1854   -6.6618   -0.0000 C   0  0  0  0  0  0  0  0  0  0  0  0
    2.4893   -8.9140   -0.0000 C   0  0  0  0  0  0  0  0  0  0  0  0
   11.6048   -0.6164   -0.0000 C   0  0  0  0  0  0  0  0  0  0  0  0
   -0.1304   -7.4086   -0.0000 C   0  0  0  0  0  0  0  0  0  0  0  0
    1.1735   -9.6490   -0.0000 C   0  0  0  0  0  0  0  0  0  0  0  0
   12.8969    0.1422   -0.0000 O   0  0  0  0  0  0  0  0  0  0  0  0
   -0.1422   -8.9022   -0.0000 C   0  0  0  0  0  0  0  0  0  0  0  0
   -1.5765   -6.9344   -0.0000 C   0  0  0  0  0  0  0  0  0  0  0  0
   14.1889   -0.5927   -0.0000 C   0  0  0  0  0  0  0  0  0  0  0  0
   -1.5884   -9.3526   -0.0000 N   0  0  0  0  0  0  0  0  0  0  0  0
   -2.4774   -8.1435   -0.0000 N   0  0  0  0  0  0  0  0  0  0  0  0
  1  2  1  0  0  0  0
  2  3  2  0  0  0  0
  2  4  1  0  0  0  0
  3  5  1  0  0  0  0
  4  6  2  0  0  0  0
  5  7  1  0  0  0  0
  5  8  2  0  0  0  0
  8  9  1  0  0  0  0
  9 10  1  0  0  0  0
  9 11  1  0  0  0  0
 10 12  2  0  0  0  0
 11 13  2  0  0  0  0
 11 14  1  0  0  0  0
 12 15  1  0  0  0  0
 12 16  1  0  0  0  0
 13 17  1  0  0  0  0
 14 18  2  0  0  0  0
 14 19  1  0  0  0  0
 16 20  2  0  0  0  0
 16 21  1  0  0  0  0
 19 22  1  0  0  0  0
 20 23  1  0  0  0  0
 21 24  2  0  0  0  0
 22 25  2  0  0  0  0
 22 26  1  0  0  0  0
 23 27  2  0  0  0  0
 25 28  1  0  0  0  0
 26 29  2  0  0  0  0
 27 30  1  0  0  0  0
 28 31  2  0  0  0  0
 28 32  1  0  0  0  0
 30 33  1  0  0  0  0
 31 34  1  0  0  0  0
 32 35  2  0  0  0  0
  6  8  1  0  0  0  0
 13 15  1  0  0  0  0
 24 27  1  0  0  0  0
 29 31  1  0  0  0  0
 34 35  1  0  0  0  0
M  END
>  <MolRegNo>
513805

>  <m>
=

>  <Value>
2500

>  <Unit>
nM

>  <Type>
IC50

>  <pValue>
5.6

>  <Ligand Efficiency>
0

>  <Binding Efficiency>
0

>  <Surface Efficiency>
0

>  <Assay Index>
386361

>  <Assay Category>


>  <Assay Organism>


>  <Target ID>
17045

>  <Target Name>
Cytochrome P450 3A4

>  <Target Organism>
Homo sapiens

>  <Target Description>
Target is a single protein chain

>  <Sequence Accession>
P08684

>  <Reference>
J Med Chem 51 (21), 6631-6634 (2008)

>  <Pubmed ID>
18842034

>  <DOI>
10.1021/jm8005096

$$$$
513804
Actelion Java MolfileCreator 1.0

 35 39  0  0  0  0  0  0  0  0999 V2000
    0.0000   -0.0000   -0.0000 Cl  0  0  0  0  0  0  0  0  0  0  0  0
    1.2915   -0.7465   -0.0000 C   0  0  0  0  0  0  0  0  0  0  0  0
    2.5830    0.0118   -0.0000 C   0  0  0  0  0  0  0  0  0  0  0  0
    1.2797   -2.2394   -0.0000 C   0  0  0  0  0  0  0  0  0  0  0  0
    3.8745   -0.7346   -0.0000 C   0  0  0  0  0  0  0  0  0  0  0  0
    2.5712   -2.9859   -0.0000 C   0  0  0  0  0  0  0  0  0  0  0  0
    5.1660    0.0237   -0.0000 F   0  0  0  0  0  0  0  0  0  0  0  0
    3.8627   -2.2276   -0.0000 C   0  0  0  0  0  0  0  0  0  0  0  0
    5.1542   -2.9740   -0.0000 C   0  0  0  0  0  0  0  0  0  0  0  0
    6.4457   -2.2157   -0.0000 N   0  0  0  0  0  0  0  0  0  0  0  0
    5.1423   -4.4670   -0.0000 C   0  0  0  0  0  0  0  0  0  0  0  0
    7.7372   -2.9622   -0.0000 C   0  0  0  0  0  0  0  0  0  0  0  0
    6.4339   -5.2016   -0.0000 C   0  0  0  0  0  0  0  0  0  0  0  0
    3.8271   -5.2016   -0.0000 C   0  0  0  0  0  0  0  0  0  0  0  0
    7.7254   -4.4551   -0.0000 N   0  0  0  0  0  0  0  0  0  0  0  0
    9.0287   -2.2039   -0.0000 C   0  0  0  0  0  0  0  0  0  0  0  0
    6.4220   -6.6945   -0.0000 C   0  0  0  0  0  0  0  0  0  0  0  0
    2.5119   -4.4433   -0.0000 O   0  0  0  0  0  0  0  0  0  0  0  0
    3.8153   -6.6945   -0.0000 N   0  0  0  0  0  0  0  0  0  0  0  0
   10.3202   -2.9503   -0.0000 C   0  0  0  0  0  0  0  0  0  0  0  0
    9.0169   -0.6872   -0.0000 C   0  0  0  0  0  0  0  0  0  0  0  0
    2.5001   -7.4292   -0.0000 C   0  0  0  0  0  0  0  0  0  0  0  0
   11.6118   -2.1920   -0.0000 C   0  0  0  0  0  0  0  0  0  0  0  0
   10.3084    0.0711   -0.0000 C   0  0  0  0  0  0  0  0  0  0  0  0
    1.1849   -6.6708   -0.0000 C   0  0  0  0  0  0  0  0  0  0  0  0
    2.4882   -8.9221   -0.0000 C   0  0  0  0  0  0  0  0  0  0  0  0
   12.9033   -2.9385   -0.0000 O   0  0  0  0  0  0  0  0  0  0  0  0
   11.5999   -0.6754   -0.0000 N   0  0  0  0  0  0  0  0  0  0  0  0
   -0.1303   -7.4055   -0.0000 C   0  0  0  0  0  0  0  0  0  0  0  0
    1.1730   -9.6686   -0.0000 C   0  0  0  0  0  0  0  0  0  0  0  0
   12.8914   -4.4314   -0.0000 C   0  0  0  0  0  0  0  0  0  0  0  0
   -0.1422   -8.8984   -0.0000 C   0  0  0  0  0  0  0  0  0  0  0  0
   -1.5759   -6.9315   -0.0000 C   0  0  0  0  0  0  0  0  0  0  0  0
   -1.5877   -9.3486   -0.0000 N   0  0  0  0  0  0  0  0  0  0  0  0
   -2.4764   -8.1401   -0.0000 N   0  0  0  0  0  0  0  0  0  0  0  0
  1  2  1  0  0  0  0
  2  3  2  0  0  0  0
  2  4  1  0  0  0  0
  3  5  1  0  0  0  0
  4  6  2  0  0  0  0
  5  7  1  0  0  0  0
  5  8  2  0  0  0  0
  8  9  1  0  0  0  0
  9 10  1  0  0  0  0
  9 11  1  0  0  0  0
 10 12  2  0  0  0  0
 11 13  2  0  0  0  0
 11 14  1  0  0  0  0
 12 15  1  0  0  0  0
 12 16  1  0  0  0  0
 13 17  1  0  0  0  0
 14 18  2  0  0  0  0
 14 19  1  0  0  0  0
 16 20  2  0  0  0  0
 16 21  1  0  0  0  0
 19 22  1  0  0  0  0
 20 23  1  0  0  0  0
 21 24  2  0  0  0  0
 22 25  2  0  0  0  0
 22 26  1  0  0  0  0
 23 27  1  0  0  0  0
 23 28  2  0  0  0  0
 25 29  1  0  0  0  0
 26 30  2  0  0  0  0
 27 31  1  0  0  0  0
 29 32  2  0  0  0  0
 29 33  1  0  0  0  0
 32 34  1  0  0  0  0
 33 35  2  0  0  0  0
  6  8  1  0  0  0  0
 13 15  1  0  0  0  0
 24 28  1  0  0  0  0
 30 32  1  0  0  0  0
 34 35  1  0  0  0  0
M  END
>  <MolRegNo>
513804

>  <m>
=

>  <Value>
4300

>  <Unit>
nM

>  <Type>
IC50

>  <pValue>
5.37

>  <Ligand Efficiency>
0

>  <Binding Efficiency>
0

>  <Surface Efficiency>
0

>  <Assay Index>
386361

>  <Assay Category>


>  <Assay Organism>


>  <Target ID>
17045

>  <Target Name>
Cytochrome P450 3A4

>  <Target Organism>
Homo sapiens

>  <Target Description>
Target is a single protein chain

>  <Sequence Accession>
P08684

>  <Reference>
J Med Chem 51 (21), 6631-6634 (2008)

>  <Pubmed ID>
18842034

>  <DOI>
10.1021/jm8005096

$$$$
513871
Actelion Java MolfileCreator 1.0

 35 39  0  0  0  0  0  0  0  0999 V2000
    0.0000   -0.0000   -0.0000 Cl  0  0  0  0  0  0  0  0  0  0  0  0
   -1.3072    0.7537   -0.0000 C   0  0  0  0  0  0  0  0  0  0  0  0
   -1.3190    2.2611   -0.0000 N   0  0  0  0  0  0  0  0  0  0  0  0
   -2.6144    0.0236   -0.0000 C   0  0  0  0  0  0  0  0  0  0  0  0
   -2.6262    3.0149   -0.0000 C   0  0  0  0  0  0  0  0  0  0  0  0
   -3.9217    0.7773   -0.0000 C   0  0  0  0  0  0  0  0  0  0  0  0
   -3.9334    2.2847   -0.0000 C   0  0  0  0  0  0  0  0  0  0  0  0
   -5.2289    0.0471   -0.0000 C   0  0  0  0  0  0  0  0  0  0  0  0
   -6.5361    0.8008   -0.0000 N   0  0  0  0  0  0  0  0  0  0  0  0
   -5.2407   -1.4368   -0.0000 N   0  0  0  0  0  0  0  0  0  0  0  0
   -7.8433    0.0707   -0.0000 C   0  0  0  0  0  0  0  0  0  0  0  0
   -6.5479   -2.1669   -0.0000 C   0  0  0  0  0  0  0  0  0  0  0  0
   -7.8551   -1.4132   -0.0000 C   0  0  0  0  0  0  0  0  0  0  0  0
   -9.1505    0.8244   -0.0000 C   0  0  0  0  0  0  0  0  0  0  0  0
   -6.5597   -3.6508   -0.0000 C   0  0  0  0  0  0  0  0  0  0  0  0
   -9.1623   -2.1434   -0.0000 C   0  0  0  0  0  0  0  0  0  0  0  0
   -9.1623    2.3318   -0.0000 C   0  0  0  0  0  0  0  0  0  0  0  0
  -10.4578    0.0942   -0.0000 C   0  0  0  0  0  0  0  0  0  0  0  0
  -10.4695   -1.3897   -0.0000 O   0  0  0  0  0  0  0  0  0  0  0  0
   -9.1741   -3.6272   -0.0000 N   0  0  0  0  0  0  0  0  0  0  0  0
   -7.8787    3.0855   -0.0000 F   0  0  0  0  0  0  0  0  0  0  0  0
  -10.4695    3.0855   -0.0000 C   0  0  0  0  0  0  0  0  0  0  0  0
  -11.7650    0.8479   -0.0000 C   0  0  0  0  0  0  0  0  0  0  0  0
  -10.4813   -4.3574   -0.0000 C   0  0  0  0  0  0  0  0  0  0  0  0
  -11.7768    2.3554   -0.0000 C   0  0  0  0  0  0  0  0  0  0  0  0
  -10.4931   -5.8413   -0.0000 C   0  0  0  0  0  0  0  0  0  0  0  0
  -11.7885   -3.6037   -0.0000 C   0  0  0  0  0  0  0  0  0  0  0  0
  -13.0840    3.1091   -0.0000 Cl  0  0  0  0  0  0  0  0  0  0  0  0
   -9.2094   -6.5832   -0.0000 F   0  0  0  0  0  0  0  0  0  0  0  0
  -11.8003   -6.5832   -0.0000 C   0  0  0  0  0  0  0  0  0  0  0  0
  -13.0958   -4.3338   -0.0000 C   0  0  0  0  0  0  0  0  0  0  0  0
  -13.1075   -5.8177   -0.0000 C   0  0  0  0  0  0  0  0  0  0  0  0
  -14.5325   -3.8628   -0.0000 C   0  0  0  0  0  0  0  0  0  0  0  0
  -14.5443   -6.2652   -0.0000 N   0  0  0  0  0  0  0  0  0  0  0  0
  -15.4276   -5.0640   -0.0000 N   0  0  0  0  0  0  0  0  0  0  0  0
  1  2  1  0  0  0  0
  2  3  2  0  0  0  0
  2  4  1  0  0  0  0
  3  5  1  0  0  0  0
  4  6  2  0  0  0  0
  5  7  2  0  0  0  0
  6  8  1  0  0  0  0
  8  9  2  0  0  0  0
  8 10  1  0  0  0  0
  9 11  1  0  0  0  0
 10 12  1  0  0  0  0
 11 13  1  0  0  0  0
 11 14  1  0  0  0  0
 12 15  1  0  0  0  0
 13 16  1  0  0  0  0
 14 17  2  0  0  0  0
 14 18  1  0  0  0  0
 16 19  2  0  0  0  0
 16 20  1  0  0  0  0
 17 21  1  0  0  0  0
 17 22  1  0  0  0  0
 18 23  2  0  0  0  0
 20 24  1  0  0  0  0
 22 25  2  0  0  0  0
 24 26  2  0  0  0  0
 24 27  1  0  0  0  0
 25 28  1  0  0  0  0
 26 29  1  0  0  0  0
 26 30  1  0  0  0  0
 27 31  2  0  0  0  0
 30 32  2  0  0  0  0
 31 33  1  0  0  0  0
 32 34  1  0  0  0  0
 33 35  2  0  0  0  0
  6  7  1  0  0  0  0
 12 13  2  0  0  0  0
 23 25  1  0  0  0  0
 31 32  1  0  0  0  0
 34 35  1  0  0  0  0
M  END
>  <MolRegNo>
513871

>  <m>
=

>  <Value>
2500

>  <Unit>
nM

>  <Type>
IC50

>  <pValue>
5.6

>  <Ligand Efficiency>
0

>  <Binding Efficiency>
0

>  <Surface Efficiency>
0

>  <Assay Index>
386361

>  <Assay Category>


>  <Assay Organism>


>  <Target ID>
17045

>  <Target Name>
Cytochrome P450 3A4

>  <Target Organism>
Homo sapiens

>  <Target Description>
Target is a single protein chain

>  <Sequence Accession>
P08684

>  <Reference>
J Med Chem 51 (21), 6631-6634 (2008)

>  <Pubmed ID>
18842034

>  <DOI>
10.1021/jm8005096

$$$$
513873
Actelion Java MolfileCreator 1.0

 36 40  0  0  0  0  0  0  0  0999 V2000
    0.0000   -0.0000   -0.0000 Cl  0  0  0  0  0  0  0  0  0  0  0  0
    1.2918   -0.7348   -0.0000 C   0  0  0  0  0  0  0  0  0  0  0  0
    2.5836    0.0237   -0.0000 C   0  0  0  0  0  0  0  0  0  0  0  0
    1.2800   -2.2281   -0.0000 C   0  0  0  0  0  0  0  0  0  0  0  0
    3.8754   -0.7111   -0.0000 C   0  0  0  0  0  0  0  0  0  0  0  0
    2.5718   -2.9747   -0.0000 C   0  0  0  0  0  0  0  0  0  0  0  0
    5.1673    0.0474   -0.0000 F   0  0  0  0  0  0  0  0  0  0  0  0
    3.8636   -2.2044   -0.0000 C   0  0  0  0  0  0  0  0  0  0  0  0
    5.1554   -2.9510   -0.0000 C   0  0  0  0  0  0  0  0  0  0  0  0
    6.4472   -2.1925   -0.0000 N   0  0  0  0  0  0  0  0  0  0  0  0
    5.1436   -4.4443   -0.0000 C   0  0  0  0  0  0  0  0  0  0  0  0
    7.7390   -2.9392   -0.0000 C   0  0  0  0  0  0  0  0  0  0  0  0
    6.4354   -5.1791   -0.0000 C   0  0  0  0  0  0  0  0  0  0  0  0
    3.8280   -5.1791   -0.0000 C   0  0  0  0  0  0  0  0  0  0  0  0
    7.7272   -4.4325   -0.0000 N   0  0  0  0  0  0  0  0  0  0  0  0
    9.0308   -2.1807   -0.0000 C   0  0  0  0  0  0  0  0  0  0  0  0
    6.4235   -6.6724   -0.0000 C   0  0  0  0  0  0  0  0  0  0  0  0
    2.5125   -4.4206   -0.0000 O   0  0  0  0  0  0  0  0  0  0  0  0
    3.8162   -6.6724   -0.0000 N   0  0  0  0  0  0  0  0  0  0  0  0
   10.3227   -2.9273   -0.0000 C   0  0  0  0  0  0  0  0  0  0  0  0
    9.0190   -0.6637   -0.0000 C   0  0  0  0  0  0  0  0  0  0  0  0
    2.5007   -7.4072   -0.0000 C   0  0  0  0  0  0  0  0  0  0  0  0
   11.6145   -2.1688   -0.0000 C   0  0  0  0  0  0  0  0  0  0  0  0
   10.3108    0.0948   -0.0000 C   0  0  0  0  0  0  0  0  0  0  0  0
    2.4888   -8.9005   -0.0000 C   0  0  0  0  0  0  0  0  0  0  0  0
    1.1852   -6.6487   -0.0000 C   0  0  0  0  0  0  0  0  0  0  0  0
   12.9063   -2.9155   -0.0000 O   0  0  0  0  0  0  0  0  0  0  0  0
   11.6026   -0.6518   -0.0000 N   0  0  0  0  0  0  0  0  0  0  0  0
    3.7806   -9.6471   -0.0000 F   0  0  0  0  0  0  0  0  0  0  0  0
    1.1733   -9.6471   -0.0000 C   0  0  0  0  0  0  0  0  0  0  0  0
   -0.1304   -7.3835   -0.0000 C   0  0  0  0  0  0  0  0  0  0  0  0
   12.8944   -4.4088   -0.0000 C   0  0  0  0  0  0  0  0  0  0  0  0
   -0.1422   -8.8768   -0.0000 C   0  0  0  0  0  0  0  0  0  0  0  0
   -1.5762   -6.9094   -0.0000 C   0  0  0  0  0  0  0  0  0  0  0  0
   -1.5881   -9.3271   -0.0000 N   0  0  0  0  0  0  0  0  0  0  0  0
   -2.4770   -8.1183   -0.0000 N   0  0  0  0  0  0  0  0  0  0  0  0
  1  2  1  0  0  0  0
  2  3  2  0  0  0  0
  2  4  1  0  0  0  0
  3  5  1  0  0  0  0
  4  6  2  0  0  0  0
  5  7  1  0  0  0  0
  5  8  2  0  0  0  0
  8  9  1  0  0  0  0
  9 10  1  0  0  0  0
  9 11  1  0  0  0  0
 10 12  2  0  0  0  0
 11 13  2  0  0  0  0
 11 14  1  0  0  0  0
 12 15  1  0  0  0  0
 12 16  1  0  0  0  0
 13 17  1  0  0  0  0
 14 18  2  0  0  0  0
 14 19  1  0  0  0  0
 16 20  2  0  0  0  0
 16 21  1  0  0  0  0
 19 22  1  0  0  0  0
 20 23  1  0  0  0  0
 21 24  2  0  0  0  0
 22 25  2  0  0  0  0
 22 26  1  0  0  0  0
 23 27  1  0  0  0  0
 23 28  2  0  0  0  0
 25 29  1  0  0  0  0
 25 30  1  0  0  0  0
 26 31  2  0  0  0  0
 27 32  1  0  0  0  0
 30 33  2  0  0  0  0
 31 34  1  0  0  0  0
 33 35  1  0  0  0  0
 34 36  2  0  0  0  0
  6  8  1  0  0  0  0
 13 15  1  0  0  0  0
 24 28  1  0  0  0  0
 31 33  1  0  0  0  0
 35 36  1  0  0  0  0
M  END
>  <MolRegNo>
513873

>  <m>
=

>  <Value>
5300

>  <Unit>
nM

>  <Type>
IC50

>  <pValue>
5.28

>  <Ligand Efficiency>
0

>  <Binding Efficiency>
0

>  <Surface Efficiency>
0

>  <Assay Index>
386361

>  <Assay Category>


>  <Assay Organism>


>  <Target ID>
17045

>  <Target Name>
Cytochrome P450 3A4

>  <Target Organism>
Homo sapiens

>  <Target Description>
Target is a single protein chain

>  <Sequence Accession>
P08684

>  <Reference>
J Med Chem 51 (21), 6631-6634 (2008)

>  <Pubmed ID>
18842034

>  <DOI>
10.1021/jm8005096

$$$$
513784
Actelion Java MolfileCreator 1.0

 32 36  0  0  0  0  0  0  0  0999 V2000
    0.0000   -0.0000   -0.0000 F   0  0  0  0  0  0  0  0  0  0  0  0
   -0.0118    1.5064   -0.0000 C   0  0  0  0  0  0  0  0  0  0  0  0
    1.2711    2.2714   -0.0000 C   0  0  0  0  0  0  0  0  0  0  0  0
   -1.3181    2.2714   -0.0000 C   0  0  0  0  0  0  0  0  0  0  0  0
    1.2593    3.7779   -0.0000 C   0  0  0  0  0  0  0  0  0  0  0  0
   -1.3299    3.7779   -0.0000 C   0  0  0  0  0  0  0  0  0  0  0  0
   -0.0471    4.5429   -0.0000 C   0  0  0  0  0  0  0  0  0  0  0  0
   -0.0588    6.0493   -0.0000 C   0  0  0  0  0  0  0  0  0  0  0  0
    1.2240    6.8026   -0.0000 N   0  0  0  0  0  0  0  0  0  0  0  0
   -1.3652    6.8026   -0.0000 C   0  0  0  0  0  0  0  0  0  0  0  0
    1.2122    8.3090   -0.0000 C   0  0  0  0  0  0  0  0  0  0  0  0
   -1.3770    8.3090   -0.0000 C   0  0  0  0  0  0  0  0  0  0  0  0
   -2.6716    6.0729   -0.0000 C   0  0  0  0  0  0  0  0  0  0  0  0
   -0.0942    9.0740   -0.0000 N   0  0  0  0  0  0  0  0  0  0  0  0
    2.4951    9.0740   -0.0000 C   0  0  0  0  0  0  0  0  0  0  0  0
   -2.6834    9.0740   -0.0000 C   0  0  0  0  0  0  0  0  0  0  0  0
   -2.6834    4.5900   -0.0000 O   0  0  0  0  0  0  0  0  0  0  0  0
   -3.9780    6.8261   -0.0000 N   0  0  0  0  0  0  0  0  0  0  0  0
    2.4833   10.5805   -0.0000 C   0  0  0  0  0  0  0  0  0  0  0  0
    3.7779    8.3326   -0.0000 C   0  0  0  0  0  0  0  0  0  0  0  0
   -5.2843    6.0964   -0.0000 C   0  0  0  0  0  0  0  0  0  0  0  0
    3.7661   11.3455   -0.0000 C   0  0  0  0  0  0  0  0  0  0  0  0
    5.0607    9.0975   -0.0000 C   0  0  0  0  0  0  0  0  0  0  0  0
   -6.5907    6.8496   -0.0000 C   0  0  0  0  0  0  0  0  0  0  0  0
   -5.2961    4.6135   -0.0000 C   0  0  0  0  0  0  0  0  0  0  0  0
    5.0490   10.6040   -0.0000 C   0  0  0  0  0  0  0  0  0  0  0  0
   -7.8971    6.1200   -0.0000 C   0  0  0  0  0  0  0  0  0  0  0  0
   -6.6025    3.8720   -0.0000 C   0  0  0  0  0  0  0  0  0  0  0  0
   -7.9089    4.6370   -0.0000 C   0  0  0  0  0  0  0  0  0  0  0  0
   -9.3329    6.5907   -0.0000 C   0  0  0  0  0  0  0  0  0  0  0  0
   -9.3447    4.1898   -0.0000 N   0  0  0  0  0  0  0  0  0  0  0  0
  -10.2274    5.3903   -0.0000 N   0  0  0  0  0  0  0  0  0  0  0  0
  1  2  1  0  0  0  0
  2  3  2  0  0  0  0
  2  4  1  0  0  0  0
  3  5  1  0  0  0  0
  4  6  2  0  0  0  0
  5  7  2  0  0  0  0
  7  8  1  0  0  0  0
  8  9  1  0  0  0  0
  8 10  1  0  0  0  0
  9 11  2  0  0  0  0
 10 12  2  0  0  0  0
 10 13  1  0  0  0  0
 11 14  1  0  0  0  0
 11 15  1  0  0  0  0
 12 16  1  0  0  0  0
 13 17  2  0  0  0  0
 13 18  1  0  0  0  0
 15 19  2  0  0  0  0
 15 20  1  0  0  0  0
 18 21  1  0  0  0  0
 19 22  1  0  0  0  0
 20 23  2  0  0  0  0
 21 24  2  0  0  0  0
 21 25  1  0  0  0  0
 22 26  2  0  0  0  0
 24 27  1  0  0  0  0
 25 28  2  0  0  0  0
 27 29  2  0  0  0  0
 27 30  1  0  0  0  0
 29 31  1  0  0  0  0
 30 32  2  0  0  0  0
  6  7  1  0  0  0  0
 12 14  1  0  0  0  0
 23 26  1  0  0  0  0
 28 29  1  0  0  0  0
 31 32  1  0  0  0  0
M  END
>  <MolRegNo>
513784

>  <m>
=

>  <Value>
350

>  <Unit>
nM

>  <Type>
IC50

>  <pValue>
6.46

>  <Ligand Efficiency>
0

>  <Binding Efficiency>
0

>  <Surface Efficiency>
0

>  <Assay Index>
386361

>  <Assay Category>


>  <Assay Organism>


>  <Target ID>
17045

>  <Target Name>
Cytochrome P450 3A4

>  <Target Organism>
Homo sapiens

>  <Target Description>
Target is a single protein chain

>  <Sequence Accession>
P08684

>  <Reference>
J Med Chem 51 (21), 6631-6634 (2008)

>  <Pubmed ID>
18842034

>  <DOI>
10.1021/jm8005096

$$$$
512803
Actelion Java MolfileCreator 1.0

 19 21  0  0  0  0  0  0  0  0999 V2000
    0.0000   -0.0000   -0.0000 S   0  0  0  0  0  0  0  0  0  0  0  0
    1.2035    0.8967   -0.0000 C   0  0  0  0  0  0  0  0  0  0  0  0
    0.4483   -1.4158   -0.0000 C   0  0  0  0  0  0  0  0  0  0  0  0
    2.4069    0.0236   -0.0000 N   0  0  0  0  0  0  0  0  0  0  0  0
    1.1917    2.4069   -0.0000 C   0  0  0  0  0  0  0  0  0  0  0  0
   -0.4483   -2.6193   -0.0000 C   0  0  0  0  0  0  0  0  0  0  0  0
    1.9350   -1.4040   -0.0000 C   0  0  0  0  0  0  0  0  0  0  0  0
   -0.1180    3.1620   -0.0000 C   0  0  0  0  0  0  0  0  0  0  0  0
    2.4777    3.1620   -0.0000 C   0  0  0  0  0  0  0  0  0  0  0  0
    0.1534   -3.9762   -0.0000 C   0  0  0  0  0  0  0  0  0  0  0  0
   -1.9468   -2.4541   -0.0000 C   0  0  0  0  0  0  0  0  0  0  0  0
   -0.1298    4.6723   -0.0000 C   0  0  0  0  0  0  0  0  0  0  0  0
    2.4659    4.6723   -0.0000 C   0  0  0  0  0  0  0  0  0  0  0  0
   -0.7433   -5.1796   -0.0000 C   0  0  0  0  0  0  0  0  0  0  0  0
   -2.8435   -3.6576   -0.0000 C   0  0  0  0  0  0  0  0  0  0  0  0
   -1.4394    5.4392   -0.0000 O   0  0  0  0  0  0  0  0  0  0  0  0
    1.1563    5.4392   -0.0000 C   0  0  0  0  0  0  0  0  0  0  0  0
   -0.1416   -6.5365   -0.0000 O   0  0  0  0  0  0  0  0  0  0  0  0
   -2.2417   -5.0144   -0.0000 C   0  0  0  0  0  0  0  0  0  0  0  0
  1  2  1  0  0  0  0
  1  3  1  0  0  0  0
  2  4  2  0  0  0  0
  2  5  1  0  0  0  0
  3  6  1  0  0  0  0
  3  7  2  0  0  0  0
  5  8  2  0  0  0  0
  5  9  1  0  0  0  0
  6 10  2  0  0  0  0
  6 11  1  0  0  0  0
  8 12  1  0  0  0  0
  9 13  2  0  0  0  0
 10 14  1  0  0  0  0
 11 15  2  0  0  0  0
 12 16  1  0  0  0  0
 12 17  2  0  0  0  0
 14 18  1  0  0  0  0
 14 19  2  0  0  0  0
  4  7  1  0  0  0  0
 13 17  1  0  0  0  0
 15 19  1  0  0  0  0
M  END
>  <MolRegNo>
512803

>  <m>
=

>  <Value>
800

>  <Unit>
nM

>  <Type>
IC50

>  <pValue>
6.1

>  <Ligand Efficiency>
0

>  <Binding Efficiency>
0

>  <Surface Efficiency>
0

>  <Assay Index>
386847

>  <Assay Category>


>  <Assay Organism>
Homo sapiens

>  <Target ID>
17045

>  <Target Name>
Cytochrome P450 3A4

>  <Target Organism>
Homo sapiens

>  <Target Description>
Target is a single protein chain

>  <Sequence Accession>
P08684

>  <Reference>
J Med Chem 51 (21), 6725-6739 (2008)

>  <Pubmed ID>
18855374

>  <DOI>
10.1021/jm8006917

$$$$
513094
Actelion Java MolfileCreator 1.0

 20 22  0  0  0  0  0  0  0  0999 V2000
    0.0000   -0.0000   -0.0000 O   0  0  0  0  0  0  0  0  0  0  0  0
    0.0000    1.5145   -0.0000 C   0  0  0  0  0  0  0  0  0  0  0  0
    1.2897    2.2718   -0.0000 C   0  0  0  0  0  0  0  0  0  0  0  0
   -1.3134    2.2836   -0.0000 C   0  0  0  0  0  0  0  0  0  0  0  0
    1.2897    3.7745   -0.0000 C   0  0  0  0  0  0  0  0  0  0  0  0
   -1.3134    3.7982   -0.0000 C   0  0  0  0  0  0  0  0  0  0  0  0
    2.5794    4.5199   -0.0000 C   0  0  0  0  0  0  0  0  0  0  0  0
   -0.0118    4.5554   -0.0000 C   0  0  0  0  0  0  0  0  0  0  0  0
    3.8573    3.7745   -0.0000 C   0  0  0  0  0  0  0  0  0  0  0  0
    2.5794    6.0227   -0.0000 C   0  0  0  0  0  0  0  0  0  0  0  0
    5.1471    4.5199   -0.0000 C   0  0  0  0  0  0  0  0  0  0  0  0
    3.8692    6.7799   -0.0000 C   0  0  0  0  0  0  0  0  0  0  0  0
    5.1471    6.0345   -0.0000 C   0  0  0  0  0  0  0  0  0  0  0  0
    6.4368    6.7918   -0.0000 C   0  0  0  0  0  0  0  0  0  0  0  0
    6.4250    8.2945   -0.0000 C   0  0  0  0  0  0  0  0  0  0  0  0
    7.7147    6.0463   -0.0000 C   0  0  0  0  0  0  0  0  0  0  0  0
    7.7147    9.0517   -0.0000 C   0  0  0  0  0  0  0  0  0  0  0  0
    9.0044    6.8036   -0.0000 C   0  0  0  0  0  0  0  0  0  0  0  0
    7.7028   10.5663   -0.0000 O   0  0  0  0  0  0  0  0  0  0  0  0
    9.0044    8.3063   -0.0000 C   0  0  0  0  0  0  0  0  0  0  0  0
  1  2  1  0  0  0  0
  2  3  2  0  0  0  0
  2  4  1  0  0  0  0
  3  5  1  0  0  0  0
  4  6  2  0  0  0  0
  5  7  1  0  0  0  0
  5  8  2  0  0  0  0
  7  9  2  0  0  0  0
  7 10  1  0  0  0  0
  9 11  1  0  0  0  0
 10 12  2  0  0  0  0
 11 13  2  0  0  0  0
 13 14  1  0  0  0  0
 14 15  2  0  0  0  0
 14 16  1  0  0  0  0
 15 17  1  0  0  0  0
 16 18  2  0  0  0  0
 17 19  1  0  0  0  0
 17 20  2  0  0  0  0
  6  8  1  0  0  0  0
 12 13  1  0  0  0  0
 18 20  1  0  0  0  0
M  END
>  <MolRegNo>
513094

>  <m>
=

>  <Value>
2100

>  <Unit>
nM

>  <Type>
IC50

>  <pValue>
5.68

>  <Ligand Efficiency>
0

>  <Binding Efficiency>
0

>  <Surface Efficiency>
0

>  <Assay Index>
386847

>  <Assay Category>


>  <Assay Organism>
Homo sapiens

>  <Target ID>
17045

>  <Target Name>
Cytochrome P450 3A4

>  <Target Organism>
Homo sapiens

>  <Target Description>
Target is a single protein chain

>  <Sequence Accession>
P08684

>  <Reference>
J Med Chem 51 (21), 6725-6739 (2008)

>  <Pubmed ID>
18855374

>  <DOI>
10.1021/jm8006917

$$$$
513017
Actelion Java MolfileCreator 1.0

 19 21  0  0  0  0  0  0  0  0999 V2000
    0.0000   -0.0000   -0.0000 S   0  0  0  0  0  0  0  0  0  0  0  0
   -1.2247    0.8949   -0.0000 C   0  0  0  0  0  0  0  0  0  0  0  0
   -0.4710   -1.4131   -0.0000 C   0  0  0  0  0  0  0  0  0  0  0  0
   -1.2364    2.4022   -0.0000 C   0  0  0  0  0  0  0  0  0  0  0  0
   -2.4493    0.0236   -0.0000 C   0  0  0  0  0  0  0  0  0  0  0  0
   -1.9783   -1.4013   -0.0000 C   0  0  0  0  0  0  0  0  0  0  0  0
   -2.5435    3.1676   -0.0000 C   0  0  0  0  0  0  0  0  0  0  0  0
    0.0471    3.1676   -0.0000 C   0  0  0  0  0  0  0  0  0  0  0  0
   -2.8733   -2.6024   -0.0000 C   0  0  0  0  0  0  0  0  0  0  0  0
   -2.5553    4.6749   -0.0000 C   0  0  0  0  0  0  0  0  0  0  0  0
    0.0353    4.6749   -0.0000 C   0  0  0  0  0  0  0  0  0  0  0  0
   -2.2727   -3.9566   -0.0000 C   0  0  0  0  0  0  0  0  0  0  0  0
   -4.3688   -2.4376   -0.0000 C   0  0  0  0  0  0  0  0  0  0  0  0
   -1.2718    5.4286   -0.0000 C   0  0  0  0  0  0  0  0  0  0  0  0
   -3.1676   -5.1577   -0.0000 C   0  0  0  0  0  0  0  0  0  0  0  0
   -5.2637   -3.6387   -0.0000 C   0  0  0  0  0  0  0  0  0  0  0  0
   -1.2835    6.9358   -0.0000 O   0  0  0  0  0  0  0  0  0  0  0  0
   -2.5671   -6.5119   -0.0000 O   0  0  0  0  0  0  0  0  0  0  0  0
   -4.6632   -4.9929   -0.0000 C   0  0  0  0  0  0  0  0  0  0  0  0
  1  2  1  0  0  0  0
  1  3  1  0  0  0  0
  2  4  1  0  0  0  0
  2  5  2  0  0  0  0
  3  6  2  0  0  0  0
  4  7  2  0  0  0  0
  4  8  1  0  0  0  0
  6  9  1  0  0  0  0
  7 10  1  0  0  0  0
  8 11  2  0  0  0  0
  9 12  2  0  0  0  0
  9 13  1  0  0  0  0
 10 14  2  0  0  0  0
 12 15  1  0  0  0  0
 13 16  2  0  0  0  0
 14 17  1  0  0  0  0
 15 18  1  0  0  0  0
 15 19  2  0  0  0  0
  5  6  1  0  0  0  0
 11 14  1  0  0  0  0
 16 19  1  0  0  0  0
M  END
>  <MolRegNo>
513017

>  <m>
=

>  <Value>
1900

>  <Unit>
nM

>  <Type>
IC50

>  <pValue>
5.72

>  <Ligand Efficiency>
0

>  <Binding Efficiency>
0

>  <Surface Efficiency>
0

>  <Assay Index>
386847

>  <Assay Category>


>  <Assay Organism>
Homo sapiens

>  <Target ID>
17045

>  <Target Name>
Cytochrome P450 3A4

>  <Target Organism>
Homo sapiens

>  <Target Description>
Target is a single protein chain

>  <Sequence Accession>
P08684

>  <Reference>
J Med Chem 51 (21), 6725-6739 (2008)

>  <Pubmed ID>
18855374

>  <DOI>
10.1021/jm8006917

$$$$
481037
Actelion Java MolfileCreator 1.0

 28 29  0  0  0  0  0  0  0  0999 V2000
    0.0000   -0.0000   -0.0000 Cl  0  0  0  0  0  0  0  0  0  0  0  0
    1.2847    0.7613   -0.0000 C   0  0  0  0  0  0  0  0  0  0  0  0
    1.2847    2.2720   -0.0000 C   0  0  0  0  0  0  0  0  0  0  0  0
    2.5693    0.0238   -0.0000 C   0  0  0  0  0  0  0  0  0  0  0  0
    2.5574    3.0451   -0.0000 C   0  0  0  0  0  0  0  0  0  0  0  0
   -0.0238    3.0332   -0.0000 C   0  0  0  0  0  0  0  0  0  0  0  0
    3.8540    0.7851   -0.0000 C   0  0  0  0  0  0  0  0  0  0  0  0
    3.8421    2.3195   -0.0000 C   0  0  0  0  0  0  0  0  0  0  0  0
   -0.0357    4.5439   -0.0000 O   0  0  0  0  0  0  0  0  0  0  0  0
    5.1387    0.0476   -0.0000 F   0  0  0  0  0  0  0  0  0  0  0  0
   -1.3441    5.3052   -0.0000 C   0  0  0  0  0  0  0  0  0  0  0  0
   -1.3560    6.8278   -0.0000 C   0  0  0  0  0  0  0  0  0  0  0  0
   -2.6645    4.5677   -0.0000 C   0  0  0  0  0  0  0  0  0  0  0  0
   -2.6645    7.5891   -0.0000 C   0  0  0  0  0  0  0  0  0  0  0  0
   -0.0714    7.5891   -0.0000 C   0  0  0  0  0  0  0  0  0  0  0  0
   -3.9730    5.3290   -0.0000 C   0  0  0  0  0  0  0  0  0  0  0  0
   -3.9730    6.8516   -0.0000 C   0  0  0  0  0  0  0  0  0  0  0  0
    1.2133    6.8516   -0.0000 C   0  0  0  0  0  0  0  0  0  0  0  0
   -5.2814    7.6128   -0.0000 Cl  0  0  0  0  0  0  0  0  0  0  0  0
    2.4861    7.6247   -0.0000 N   0  0  0  0  0  0  0  0  0  0  0  0
    1.2014    5.3647   -0.0000 C   0  0  0  0  0  0  0  0  0  0  0  0
    3.7707    6.8991   -0.0000 C   0  0  0  0  0  0  0  0  0  0  0  0
    2.4861    4.6272   -0.0000 C   0  0  0  0  0  0  0  0  0  0  0  0
    5.0554    7.6723   -0.0000 C   0  0  0  0  0  0  0  0  0  0  0  0
    3.7707    5.4004   -0.0000 C   0  0  0  0  0  0  0  0  0  0  0  0
    5.0316    9.1830   -0.0000 O   0  0  0  0  0  0  0  0  0  0  0  0
    6.3520    6.9467   -0.0000 O   0  0  0  0  0  0  0  0  0  0  0  0
    7.8032    6.9467   -0.0000 Na  0  0  0  0  0  0  0  0  0  0  0  0
  1  2  1  0  0  0  0
  2  3  2  0  0  0  0
  2  4  1  0  0  0  0
  3  5  1  0  0  0  0
  3  6  1  0  0  0  0
  4  7  2  0  0  0  0
  5  8  2  0  0  0  0
  6  9  1  0  0  0  0
  7 10  1  0  0  0  0
  9 11  1  0  0  0  0
 11 12  2  0  0  0  0
 11 13  1  0  0  0  0
 12 14  1  0  0  0  0
 12 15  1  0  0  0  0
 13 16  2  0  0  0  0
 14 17  2  0  0  0  0
 15 18  1  0  0  0  0
 17 19  1  0  0  0  0
 18 20  2  0  0  0  0
 18 21  1  0  0  0  0
 20 22  1  0  0  0  0
 21 23  2  0  0  0  0
 22 24  1  0  0  0  0
 22 25  2  0  0  0  0
 24 26  2  0  0  0  0
 24 27  1  0  0  0  0
  7  8  1  0  0  0  0
 16 17  1  0  0  0  0
 23 25  1  0  0  0  0
M  CHG  2  27  -1  28   1
M  END
>  <MolRegNo>
481037

>  <m>
=

>  <Value>
35000

>  <Unit>
nM

>  <Type>
IC50

>  <pValue>
4.46

>  <Ligand Efficiency>
0

>  <Binding Efficiency>
0

>  <Surface Efficiency>
0

>  <Assay Index>
349104

>  <Assay Category>


>  <Assay Organism>
Homo sapiens

>  <Target ID>
17045

>  <Target Name>
Cytochrome P450 3A4

>  <Target Organism>
Homo sapiens

>  <Target Description>
Target is a single protein chain

>  <Sequence Accession>
P08684

>  <Reference>
Bioorg Med Chem Lett 19 (9), 2599-2603 (2009)

>  <Pubmed ID>
19332369

>  <DOI>
10.1016/j.bmcl.2009.02.112

$$$$
480438
Actelion Java MolfileCreator 1.0

 23 26  0  0  0  0  0  0  0  0999 V2000
    0.0000   -0.0000   -0.0000 O   0  0  0  0  0  0  0  0  0  0  0  0
    0.0000    1.5074   -0.0000 N   0  0  0  0  0  0  0  0  0  0  0  0
   -1.4362   -0.4392   -0.0000 C   0  0  0  0  0  0  0  0  0  0  0  0
   -1.4362    1.9941   -0.0000 C   0  0  0  0  0  0  0  0  0  0  0  0
   -2.3146    0.7834   -0.0000 N   0  0  0  0  0  0  0  0  0  0  0  0
   -1.9110   -1.8398   -0.0000 C   0  0  0  0  0  0  0  0  0  0  0  0
   -1.8991    3.4303   -0.0000 C   0  0  0  0  0  0  0  0  0  0  0  0
   -1.0327   -3.0505   -0.0000 N   0  0  0  0  0  0  0  0  0  0  0  0
   -3.3591   -2.2908   -0.0000 C   0  0  0  0  0  0  0  0  0  0  0  0
   -0.9021    4.5461   -0.0000 N   0  0  0  0  0  0  0  0  0  0  0  0
   -1.9348   -4.2612   -0.0000 N   0  0  0  0  0  0  0  0  0  0  0  0
   -3.3710   -3.7864   -0.0000 C   0  0  0  0  0  0  0  0  0  0  0  0
   -4.6648   -1.5312   -0.0000 C   0  0  0  0  0  0  0  0  0  0  0  0
   -1.4956   -5.6737   -0.0000 C   0  0  0  0  0  0  0  0  0  0  0  0
   -4.6766   -4.5223   -0.0000 C   0  0  0  0  0  0  0  0  0  0  0  0
   -5.9704   -2.2671   -0.0000 C   0  0  0  0  0  0  0  0  0  0  0  0
   -2.2671   -6.9556   -0.0000 C   0  0  0  0  0  0  0  0  0  0  0  0
   -5.9823   -3.7627   -0.0000 C   0  0  0  0  0  0  0  0  0  0  0  0
   -3.7746   -6.9200   -0.0000 C   0  0  0  0  0  0  0  0  0  0  0  0
   -1.5431   -8.2375   -0.0000 C   0  0  0  0  0  0  0  0  0  0  0  0
   -4.5461   -8.2019   -0.0000 C   0  0  0  0  0  0  0  0  0  0  0  0
   -2.3027   -9.5195   -0.0000 C   0  0  0  0  0  0  0  0  0  0  0  0
   -3.8220   -9.4957   -0.0000 C   0  0  0  0  0  0  0  0  0  0  0  0
  1  2  1  0  0  0  0
  1  3  1  0  0  0  0
  2  4  2  0  0  0  0
  3  5  2  0  0  0  0
  3  6  1  0  0  0  0
  4  7  1  0  0  0  0
  6  8  2  0  0  0  0
  6  9  1  0  0  0  0
  7 10  1  0  0  0  0
  8 11  1  0  0  0  0
  9 12  2  0  0  0  0
  9 13  1  0  0  0  0
 11 14  1  0  0  0  0
 12 15  1  0  0  0  0
 13 16  2  0  0  0  0
 14 17  1  0  0  0  0
 15 18  2  0  0  0  0
 17 19  2  0  0  0  0
 17 20  1  0  0  0  0
 19 21  1  0  0  0  0
 20 22  2  0  0  0  0
 21 23  2  0  0  0  0
  4  5  1  0  0  0  0
 11 12  1  0  0  0  0
 16 18  1  0  0  0  0
 22 23  1  0  0  0  0
M  END
>  <MolRegNo>
480438

>  <m>
=

>  <Value>
3100

>  <Unit>
nM

>  <Type>
IC50

>  <pValue>
5.51

>  <Ligand Efficiency>
0

>  <Binding Efficiency>
0

>  <Surface Efficiency>
0

>  <Assay Index>
349780

>  <Assay Category>


>  <Assay Organism>
Homo sapiens

>  <Target ID>
17045

>  <Target Name>
Cytochrome P450 3A4

>  <Target Organism>
Homo sapiens

>  <Target Description>
Target is a single protein chain

>  <Sequence Accession>
P08684

>  <Reference>
J Med Chem 52 (9), 2694-2707 (2009)

>  <Pubmed ID>
19341281

>  <DOI>
10.1021/jm801180p

$$$$
519979
Actelion Java MolfileCreator 1.0

 39 43  0  0  0  0  0  0  0  0999 V2000
    0.0000   -0.0000   -0.0000 F   0  0  0  0  0  0  0  0  0  0  0  0
    0.7438    1.3106   -0.0000 C   0  0  0  0  0  0  0  0  0  0  0  0
   -0.0236    2.6212   -0.0000 C   0  0  0  0  0  0  0  0  0  0  0  0
    2.2315    1.3224   -0.0000 C   0  0  0  0  0  0  0  0  0  0  0  0
    0.7202    3.9317   -0.0000 C   0  0  0  0  0  0  0  0  0  0  0  0
    2.9636    2.6330   -0.0000 C   0  0  0  0  0  0  0  0  0  0  0  0
    2.2079    3.9436   -0.0000 C   0  0  0  0  0  0  0  0  0  0  0  0
    2.9400    5.2541   -0.0000 C   0  0  0  0  0  0  0  0  0  0  0  0
    4.2269    6.0098   -0.0000 C   0  0  0  0  0  0  0  0  0  0  0  0
    1.6294    6.0098   -0.0000 C   0  0  0  0  0  0  0  0  0  0  0  0
    5.5139    5.2777   -0.0000 O   0  0  0  0  0  0  0  0  0  0  0  0
    4.2151    7.5211   -0.0000 C   0  0  0  0  0  0  0  0  0  0  0  0
    1.6176    7.5211   -0.0000 C   0  0  0  0  0  0  0  0  0  0  0  0
    0.1889    5.5611   -0.0000 C   0  0  0  0  0  0  0  0  0  0  0  0
    6.8009    6.0334   -0.0000 C   0  0  0  0  0  0  0  0  0  0  0  0
    2.9045    8.2767   -0.0000 C   0  0  0  0  0  0  0  0  0  0  0  0
    0.1771    7.9934   -0.0000 C   0  0  0  0  0  0  0  0  0  0  0  0
   -0.7084    6.7890   -0.0000 N   0  0  0  0  0  0  0  0  0  0  0  0
    8.0878    5.3014   -0.0000 C   0  0  0  0  0  0  0  0  0  0  0  0
    7.5329    7.3440   -0.0000 C   0  0  0  0  0  0  0  0  0  0  0  0
   -2.2197    6.8009   -0.0000 C   0  0  0  0  0  0  0  0  0  0  0  0
    8.0760    3.8137   -0.0000 C   0  0  0  0  0  0  0  0  0  0  0  0
    9.3748    6.0570   -0.0000 C   0  0  0  0  0  0  0  0  0  0  0  0
   -3.1171    5.5965   -0.0000 C   0  0  0  0  0  0  0  0  0  0  0  0
   -3.1171    8.0288   -0.0000 C   0  0  0  0  0  0  0  0  0  0  0  0
    9.3630    3.0698   -0.0000 C   0  0  0  0  0  0  0  0  0  0  0  0
   10.6618    5.3250   -0.0000 C   0  0  0  0  0  0  0  0  0  0  0  0
   -4.5575    6.0688   -0.0000 C   0  0  0  0  0  0  0  0  0  0  0  0
   -4.5575    7.5801   -0.0000 C   0  0  0  0  0  0  0  0  0  0  0  0
   10.6500    3.8255   -0.0000 C   0  0  0  0  0  0  0  0  0  0  0  0
    9.3512    1.5821   -0.0000 C   0  0  0  0  0  0  0  0  0  0  0  0
   11.9487    6.0806   -0.0000 C   0  0  0  0  0  0  0  0  0  0  0  0
   -5.7855    5.1951   -0.0000 O   0  0  0  0  0  0  0  0  0  0  0  0
    8.0406    0.8501   -0.0000 F   0  0  0  0  0  0  0  0  0  0  0  0
   10.6381    0.8501   -0.0000 F   0  0  0  0  0  0  0  0  0  0  0  0
    9.7290    0.1417   -0.0000 F   0  0  0  0  0  0  0  0  0  0  0  0
   13.2357    5.3486   -0.0000 F   0  0  0  0  0  0  0  0  0  0  0  0
   11.9369    7.5919   -0.0000 F   0  0  0  0  0  0  0  0  0  0  0  0
   12.3266    4.6402   -0.0000 F   0  0  0  0  0  0  0  0  0  0  0  0
  1  2  1  0  0  0  0
  2  3  2  0  0  0  0
  2  4  1  0  0  0  0
  3  5  1  0  0  0  0
  4  6  2  0  0  0  0
  5  7  2  0  0  0  0
  8  7  1  1  0  0  0
  8  9  1  0  0  0  0
  8 10  1  0  0  0  0
  9 11  1  6  0  0  0
  9 12  1  0  0  0  0
 10 13  1  0  0  0  0
 10 14  1  6  0  0  0
 15 11  1  6  0  0  0
 12 16  1  0  0  0  0
 13 17  1  1  0  0  0
 14 18  1  0  0  0  0
 15 19  1  0  0  0  0
 15 20  1  0  0  0  0
 18 21  1  0  0  0  0
 19 22  2  0  0  0  0
 19 23  1  0  0  0  0
 21 24  2  0  0  0  0
 21 25  1  0  0  0  0
 22 26  1  0  0  0  0
 23 27  2  0  0  0  0
 24 28  1  0  0  0  0
 25 29  1  0  0  0  0
 26 30  2  0  0  0  0
 26 31  1  0  0  0  0
 27 32  1  0  0  0  0
 28 33  2  0  0  0  0
 31 34  1  0  0  0  0
 31 35  1  0  0  0  0
 31 36  1  0  0  0  0
 32 37  1  0  0  0  0
 32 38  1  0  0  0  0
 32 39  1  0  0  0  0
  6  7  1  0  0  0  0
 13 16  1  0  0  0  0
 17 18  1  0  0  0  0
 27 30  1  0  0  0  0
 28 29  1  0  0  0  0
M  END
>  <MolRegNo>
519979

>  <m>
=

>  <Value>
39000

>  <Unit>
nM

>  <Type>
IC50

>  <pValue>
4.41

>  <Ligand Efficiency>
0

>  <Binding Efficiency>
0

>  <Surface Efficiency>
0

>  <Assay Index>
350326

>  <Assay Category>


>  <Assay Organism>
Homo sapiens

>  <Target ID>
17045

>  <Target Name>
Cytochrome P450 3A4

>  <Target Organism>
Homo sapiens

>  <Target Description>
Target is a single protein chain

>  <Sequence Accession>
P08684

>  <Reference>
J Med Chem 52 (9), 3039-3046 (2009)

>  <Pubmed ID>
19354254

>  <DOI>
10.1021/jm8016514

$$$$
482145
Actelion Java MolfileCreator 1.0

 30 33  0  0  0  0  0  0  0  0999 V2000
    0.0000   -0.0000   -0.0000 O   0  0  0  0  0  0  0  0  0  0  0  0
   -0.5234    1.4275   -0.0000 C   0  0  0  0  0  0  0  0  0  0  0  0
    0.3212    2.6766   -0.0000 O   0  0  0  0  0  0  0  0  0  0  0  0
   -1.9747    1.8558   -0.0000 C   0  0  0  0  0  0  0  0  0  0  0  0
   -0.6067    3.8662   -0.0000 C   0  0  0  0  0  0  0  0  0  0  0  0
   -2.0223    3.3546   -0.0000 C   0  0  0  0  0  0  0  0  0  0  0  0
   -3.1643    0.9517   -0.0000 C   0  0  0  0  0  0  0  0  0  0  0  0
   -3.2595    4.2230   -0.0000 C   0  0  0  0  0  0  0  0  0  0  0  0
   -3.1881   -0.5353   -0.0000 C   0  0  0  0  0  0  0  0  0  0  0  0
   -4.5680    3.4736   -0.0000 C   0  0  0  0  0  0  0  0  0  0  0  0
   -1.9271   -1.2729   -0.0000 C   0  0  0  0  0  0  0  0  0  0  0  0
   -4.5085   -1.2491   -0.0000 C   0  0  0  0  0  0  0  0  0  0  0  0
   -5.8884    4.2349   -0.0000 C   0  0  0  0  0  0  0  0  0  0  0  0
   -4.5799    1.9747   -0.0000 C   0  0  0  0  0  0  0  0  0  0  0  0
   -1.9509   -2.7479   -0.0000 C   0  0  0  0  0  0  0  0  0  0  0  0
   -4.5442   -2.7360   -0.0000 C   0  0  0  0  0  0  0  0  0  0  0  0
   -7.1970    3.4974   -0.0000 C   0  0  0  0  0  0  0  0  0  0  0  0
   -5.9003    1.2372   -0.0000 C   0  0  0  0  0  0  0  0  0  0  0  0
   -0.6662   -3.4974   -0.0000 O   0  0  0  0  0  0  0  0  0  0  0  0
   -3.2595   -3.4855   -0.0000 C   0  0  0  0  0  0  0  0  0  0  0  0
   -5.6862   -3.7234   -0.0000 O   0  0  0  0  0  0  0  0  0  0  0  0
   -8.5055    4.2587   -0.0000 O   0  0  0  0  0  0  0  0  0  0  0  0
   -7.2089    2.0104   -0.0000 C   0  0  0  0  0  0  0  0  0  0  0  0
   -5.9122   -0.2498   -0.0000 O   0  0  0  0  0  0  0  0  0  0  0  0
   -0.6900   -4.9844   -0.0000 C   0  0  0  0  0  0  0  0  0  0  0  0
   -3.6044   -4.9368   -0.0000 O   0  0  0  0  0  0  0  0  0  0  0  0
   -5.1033   -5.0914   -0.0000 C   0  0  0  0  0  0  0  0  0  0  0  0
   -8.5174    5.7695   -0.0000 C   0  0  0  0  0  0  0  0  0  0  0  0
   -8.5174    1.2729   -0.0000 O   0  0  0  0  0  0  0  0  0  0  0  0
   -7.2208   -0.9874   -0.0000 C   0  0  0  0  0  0  0  0  0  0  0  0
  1  2  2  0  0  0  0
  2  3  1  0  0  0  0
  2  4  1  0  0  0  0
  3  5  1  0  0  0  0
  4  6  1  0  0  0  0
  4  7  1  1  0  0  0
  6  8  1  6  0  0  0
  7  9  1  0  0  0  0
  8 10  1  0  0  0  0
  9 11  2  0  0  0  0
  9 12  1  0  0  0  0
 10 13  2  0  0  0  0
 10 14  1  0  0  0  0
 11 15  1  0  0  0  0
 12 16  2  0  0  0  0
 13 17  1  0  0  0  0
 14 18  2  0  0  0  0
 15 19  1  0  0  0  0
 15 20  2  0  0  0  0
 16 21  1  0  0  0  0
 17 22  1  0  0  0  0
 17 23  2  0  0  0  0
 18 24  1  0  0  0  0
 19 25  1  0  0  0  0
 20 26  1  0  0  0  0
 21 27  1  0  0  0  0
 22 28  1  0  0  0  0
 23 29  1  0  0  0  0
 24 30  1  0  0  0  0
  5  6  1  0  0  0  0
 16 20  1  0  0  0  0
 18 23  1  0  0  0  0
 26 27  1  0  0  0  0
M  END
>  <MolRegNo>
482145

>  <m>
=

>  <Value>
7400

>  <Unit>
nM

>  <Type>
IC50

>  <pValue>
5.13

>  <Ligand Efficiency>
0

>  <Binding Efficiency>
0

>  <Surface Efficiency>
0

>  <Assay Index>
375002

>  <Assay Category>


>  <Assay Organism>
Homo sapiens

>  <Target ID>
17045

>  <Target Name>
Cytochrome P450 3A4

>  <Target Organism>
Homo sapiens

>  <Target Description>
Target is a single protein chain

>  <Sequence Accession>
P08684

>  <Reference>
J Nat Prod 68 (1), 64-68 (2005)

>  <Pubmed ID>
15679319

>  <DOI>
10.1021/np0401765

$$$$
482146
Actelion Java MolfileCreator 1.0

 31 34  0  0  0  0  0  0  0  0999 V2000
    0.0000   -0.0000   -0.0000 O   0  0  0  0  0  0  0  0  0  0  0  0
    1.4157    0.4679   -0.0000 C   0  0  0  0  0  0  0  0  0  0  0  0
   -0.8878    1.2238   -0.0000 C   0  0  0  0  0  0  0  0  0  0  0  0
    2.6995   -0.2759   -0.0000 C   0  0  0  0  0  0  0  0  0  0  0  0
    1.4037    1.9796   -0.0000 C   0  0  0  0  0  0  0  0  0  0  0  0
   -0.0120    2.4475   -0.0000 O   0  0  0  0  0  0  0  0  0  0  0  0
    2.6755   -1.7637   -0.0000 O   0  0  0  0  0  0  0  0  0  0  0  0
    3.9952    0.4799   -0.0000 C   0  0  0  0  0  0  0  0  0  0  0  0
    2.6875    2.7475   -0.0000 C   0  0  0  0  0  0  0  0  0  0  0  0
    1.3557   -2.4955   -0.0000 C   0  0  0  0  0  0  0  0  0  0  0  0
    3.9832    2.0156   -0.0000 C   0  0  0  0  0  0  0  0  0  0  0  0
    5.2790    2.7955   -0.0000 C   0  0  0  0  0  0  0  0  0  0  0  0
    6.5867    2.0396   -0.0000 C   0  0  0  0  0  0  0  0  0  0  0  0
    6.5627    0.5399   -0.0000 C   0  0  0  0  0  0  0  0  0  0  0  0
    8.0145    2.5075   -0.0000 C   0  0  0  0  0  0  0  0  0  0  0  0
    7.9905    0.0720   -0.0000 C   0  0  0  0  0  0  0  0  0  0  0  0
    5.2430   -0.2040   -0.0000 C   0  0  0  0  0  0  0  0  0  0  0  0
    8.8903    1.2838   -0.0000 O   0  0  0  0  0  0  0  0  0  0  0  0
    8.4344   -1.3437   -0.0000 O   0  0  0  0  0  0  0  0  0  0  0  0
    5.2310   -1.6917   -0.0000 C   0  0  0  0  0  0  0  0  0  0  0  0
    3.9113   -2.4235   -0.0000 C   0  0  0  0  0  0  0  0  0  0  0  0
    6.5148   -2.4235   -0.0000 C   0  0  0  0  0  0  0  0  0  0  0  0
    3.8993   -3.9113   -0.0000 C   0  0  0  0  0  0  0  0  0  0  0  0
    6.5028   -3.9113   -0.0000 C   0  0  0  0  0  0  0  0  0  0  0  0
    2.5795   -4.6551   -0.0000 O   0  0  0  0  0  0  0  0  0  0  0  0
    5.1950   -4.6551   -0.0000 C   0  0  0  0  0  0  0  0  0  0  0  0
    7.7985   -4.6431   -0.0000 O   0  0  0  0  0  0  0  0  0  0  0  0
    1.2718   -3.8873   -0.0000 C   0  0  0  0  0  0  0  0  0  0  0  0
    5.1830   -6.1428   -0.0000 O   0  0  0  0  0  0  0  0  0  0  0  0
    7.7865   -6.1308   -0.0000 C   0  0  0  0  0  0  0  0  0  0  0  0
    3.8753   -6.8867   -0.0000 C   0  0  0  0  0  0  0  0  0  0  0  0
  1  2  1  0  0  0  0
  1  3  1  0  0  0  0
  2  4  2  0  0  0  0
  2  5  1  0  0  0  0
  3  6  1  0  0  0  0
  4  7  1  0  0  0  0
  4  8  1  0  0  0  0
  5  9  2  0  0  0  0
  7 10  1  0  0  0  0
  8 11  2  0  0  0  0
 11 12  1  0  0  0  0
 13 12  1  1  0  0  0
 13 14  1  0  0  0  0
 13 15  1  0  0  0  0
 14 16  1  0  0  0  0
 14 17  1  6  0  0  0
 15 18  1  0  0  0  0
 16 19  1  6  0  0  0
 17 20  1  0  0  0  0
 20 21  2  0  0  0  0
 20 22  1  0  0  0  0
 21 23  1  0  0  0  0
 22 24  2  0  0  0  0
 23 25  1  0  0  0  0
 23 26  2  0  0  0  0
 24 27  1  0  0  0  0
 25 28  1  0  0  0  0
 26 29  1  0  0  0  0
 27 30  1  0  0  0  0
 29 31  1  0  0  0  0
  5  6  1  0  0  0  0
  9 11  1  0  0  0  0
 16 18  1  0  0  0  0
 24 26  1  0  0  0  0
M  END
>  <MolRegNo>
482146

>  <m>
=

>  <Value>
830

>  <Unit>
nM

>  <Type>
IC50

>  <pValue>
6.08

>  <Ligand Efficiency>
0

>  <Binding Efficiency>
0

>  <Surface Efficiency>
0

>  <Assay Index>
375002

>  <Assay Category>


>  <Assay Organism>
Homo sapiens

>  <Target ID>
17045

>  <Target Name>
Cytochrome P450 3A4

>  <Target Organism>
Homo sapiens

>  <Target Description>
Target is a single protein chain

>  <Sequence Accession>
P08684

>  <Reference>
J Nat Prod 68 (1), 64-68 (2005)

>  <Pubmed ID>
15679319

>  <DOI>
10.1021/np0401765

$$$$
482147
Actelion Java MolfileCreator 1.0

 18 20  0  0  0  0  0  0  0  0999 V2000
    0.0000   -0.0000   -0.0000 O   0  0  0  0  0  0  0  0  0  0  0  0
   -1.4068    0.5158   -0.0000 C   0  0  0  0  0  0  0  0  0  0  0  0
   -1.8288    1.9461   -0.0000 O   0  0  0  0  0  0  0  0  0  0  0  0
   -2.6377   -0.2931   -0.0000 C   0  0  0  0  0  0  0  0  0  0  0  0
   -3.3060    2.0047   -0.0000 C   0  0  0  0  0  0  0  0  0  0  0  0
   -3.8101    0.6213   -0.0000 C   0  0  0  0  0  0  0  0  0  0  0  0
   -2.7081   -1.7702   -0.0000 C   0  0  0  0  0  0  0  0  0  0  0  0
   -4.0211    3.3060   -0.0000 C   0  0  0  0  0  0  0  0  0  0  0  0
   -5.3107    0.1758   -0.0000 C   0  0  0  0  0  0  0  0  0  0  0  0
   -5.4513    3.5756   -0.0000 C   0  0  0  0  0  0  0  0  0  0  0  0
   -6.5651    1.0551   -0.0000 C   0  0  0  0  0  0  0  0  0  0  0  0
   -6.6354    2.5557   -0.0000 C   0  0  0  0  0  0  0  0  0  0  0  0
   -5.8734    5.0293   -0.0000 C   0  0  0  0  0  0  0  0  0  0  0  0
   -7.9601    0.5393   -0.0000 C   0  0  0  0  0  0  0  0  0  0  0  0
   -8.0891    2.9660   -0.0000 C   0  0  0  0  0  0  0  0  0  0  0  0
   -8.9097    1.6999   -0.0000 C   0  0  0  0  0  0  0  0  0  0  0  0
   -8.3705   -0.8910   -0.0000 C   0  0  0  0  0  0  0  0  0  0  0  0
   -8.6401    4.3728   -0.0000 O   0  0  0  0  0  0  0  0  0  0  0  0
  1  2  2  0  0  0  0
  2  3  1  0  0  0  0
  2  4  1  0  0  0  0
  5  3  1  6  0  0  0
  4  6  2  0  0  0  0
  4  7  1  0  0  0  0
  5  8  1  0  0  0  0
  6  9  1  0  0  0  0
  8 10  1  0  0  0  0
 11  9  1  1  0  0  0
 10 12  2  0  0  0  0
 10 13  1  0  0  0  0
 11 14  1  0  0  0  0
 12 15  1  0  0  0  0
 14 16  2  0  0  0  0
 14 17  1  0  0  0  0
 15 18  2  0  0  0  0
  5  6  1  0  0  0  0
 11 12  1  0  0  0  0
 15 16  1  0  0  0  0
M  END
>  <MolRegNo>
482147

>  <m>
=

>  <Value>
8800

>  <Unit>
nM

>  <Type>
IC50

>  <pValue>
5.06

>  <Ligand Efficiency>
0

>  <Binding Efficiency>
0

>  <Surface Efficiency>
0

>  <Assay Index>
375002

>  <Assay Category>


>  <Assay Organism>
Homo sapiens

>  <Target ID>
17045

>  <Target Name>
Cytochrome P450 3A4

>  <Target Organism>
Homo sapiens

>  <Target Description>
Target is a single protein chain

>  <Sequence Accession>
P08684

>  <Reference>
J Nat Prod 68 (1), 64-68 (2005)

>  <Pubmed ID>
15679319

>  <DOI>
10.1021/np0401765

$$$$
482148
Actelion Java MolfileCreator 1.0

 19 22  0  0  0  0  0  0  0  0999 V2000
    0.0000   -0.0000   -0.0000 O   0  0  0  0  0  0  0  0  0  0  0  0
   -1.4019    0.5140   -0.0000 C   0  0  0  0  0  0  0  0  0  0  0  0
   -1.8225    1.9393   -0.0000 O   0  0  0  0  0  0  0  0  0  0  0  0
   -2.6285   -0.2921   -0.0000 C   0  0  0  0  0  0  0  0  0  0  0  0
   -3.2944    1.9977   -0.0000 C   0  0  0  0  0  0  0  0  0  0  0  0
   -3.7968    0.6192   -0.0000 C   0  0  0  0  0  0  0  0  0  0  0  0
   -2.6986   -1.7640   -0.0000 C   0  0  0  0  0  0  0  0  0  0  0  0
   -4.0071    3.2944   -0.0000 C   0  0  0  0  0  0  0  0  0  0  0  0
   -5.2921    0.1752   -0.0000 C   0  0  0  0  0  0  0  0  0  0  0  0
   -5.4323    3.5631   -0.0000 C   0  0  0  0  0  0  0  0  0  0  0  0
   -6.5422    1.0514   -0.0000 C   0  0  0  0  0  0  0  0  0  0  0  0
   -6.9160    4.0772   -0.0000 O   0  0  0  0  0  0  0  0  0  0  0  0
   -6.6123    2.5468   -0.0000 C   0  0  0  0  0  0  0  0  0  0  0  0
   -4.7080    4.8716   -0.0000 C   0  0  0  0  0  0  0  0  0  0  0  0
   -7.9324    0.5374   -0.0000 C   0  0  0  0  0  0  0  0  0  0  0  0
   -8.0609    2.9440   -0.0000 C   0  0  0  0  0  0  0  0  0  0  0  0
   -8.8787    1.6940   -0.0000 C   0  0  0  0  0  0  0  0  0  0  0  0
   -8.3413   -0.8879   -0.0000 C   0  0  0  0  0  0  0  0  0  0  0  0
   -8.6100    4.3459   -0.0000 O   0  0  0  0  0  0  0  0  0  0  0  0
  1  2  2  0  0  0  0
  2  3  1  0  0  0  0
  2  4  1  0  0  0  0
  5  3  1  1  0  0  0
  4  6  2  0  0  0  0
  4  7  1  0  0  0  0
  5  8  1  0  0  0  0
  6  9  1  0  0  0  0
  8 10  1  0  0  0  0
 11  9  1  6  0  0  0
 10 12  1  0  0  0  0
 10 13  1  0  0  0  0
 10 14  1  6  0  0  0
 11 15  1  0  0  0  0
 13 16  1  0  0  0  0
 15 17  2  0  0  0  0
 15 18  1  0  0  0  0
 16 19  1  6  0  0  0
  5  6  1  0  0  0  0
 11 13  1  0  0  0  0
 13 12  1  1  0  0  0
 16 17  1  0  0  0  0
M  END
>  <MolRegNo>
482148

>  <m>
=

>  <Value>
98200

>  <Unit>
nM

>  <Type>
IC50

>  <pValue>
4.01

>  <Ligand Efficiency>
0

>  <Binding Efficiency>
0

>  <Surface Efficiency>
0

>  <Assay Index>
375002

>  <Assay Category>


>  <Assay Organism>
Homo sapiens

>  <Target ID>
17045

>  <Target Name>
Cytochrome P450 3A4

>  <Target Organism>
Homo sapiens

>  <Target Description>
Target is a single protein chain

>  <Sequence Accession>
P08684

>  <Reference>
J Nat Prod 68 (1), 64-68 (2005)

>  <Pubmed ID>
15679319

>  <DOI>
10.1021/np0401765

$$$$
200398
Actelion Java MolfileCreator 1.0

 15 15  0  0  0  0  0  0  0  0999 V2000
    0.0000   -0.0000   -0.0000 O   0  0  0  0  0  0  0  0  0  0  0  0
   -1.3078   -0.7490   -0.0000 C   0  0  0  0  0  0  0  0  0  0  0  0
    1.2840   -0.7252   -0.0000 C   0  0  0  0  0  0  0  0  0  0  0  0
   -2.6274   -0.0000   -0.0000 C   0  0  0  0  0  0  0  0  0  0  0  0
   -1.3197   -2.2470   -0.0000 C   0  0  0  0  0  0  0  0  0  0  0  0
   -2.6512    1.5099   -0.0000 O   0  0  0  0  0  0  0  0  0  0  0  0
   -3.9233   -0.7371   -0.0000 C   0  0  0  0  0  0  0  0  0  0  0  0
   -2.6393   -2.9841   -0.0000 C   0  0  0  0  0  0  0  0  0  0  0  0
   -1.3672    2.2827   -0.0000 C   0  0  0  0  0  0  0  0  0  0  0  0
   -3.9352   -2.2232   -0.0000 C   0  0  0  0  0  0  0  0  0  0  0  0
   -2.6512   -4.4702   -0.0000 O   0  0  0  0  0  0  0  0  0  0  0  0
   -5.2430   -2.9603   -0.0000 C   0  0  0  0  0  0  0  0  0  0  0  0
   -3.9590   -5.2073   -0.0000 C   0  0  0  0  0  0  0  0  0  0  0  0
   -6.5508   -2.1994   -0.0000 C   0  0  0  0  0  0  0  0  0  0  0  0
   -7.8585   -2.9366   -0.0000 C   0  0  0  0  0  0  0  0  0  0  0  0
  1  2  1  0  0  0  0
  1  3  1  0  0  0  0
  2  4  2  0  0  0  0
  2  5  1  0  0  0  0
  4  6  1  0  0  0  0
  4  7  1  0  0  0  0
  5  8  2  0  0  0  0
  6  9  1  0  0  0  0
  7 10  2  0  0  0  0
  8 11  1  0  0  0  0
 10 12  1  0  0  0  0
 11 13  1  0  0  0  0
 12 14  2  0  0  0  0
 14 15  1  0  0  0  0
  8 10  1  0  0  0  0
M  END
>  <MolRegNo>
200398

>  <m>
=

>  <Value>
92300

>  <Unit>
nM

>  <Type>
IC50

>  <pValue>
4.04

>  <Ligand Efficiency>
0

>  <Binding Efficiency>
0

>  <Surface Efficiency>
0

>  <Assay Index>
375002

>  <Assay Category>


>  <Assay Organism>
Homo sapiens

>  <Target ID>
17045

>  <Target Name>
Cytochrome P450 3A4

>  <Target Organism>
Homo sapiens

>  <Target Description>
Target is a single protein chain

>  <Sequence Accession>
P08684

>  <Reference>
J Nat Prod 68 (1), 64-68 (2005)

>  <Pubmed ID>
15679319

>  <DOI>
10.1021/np0401765

$$$$
482165
Actelion Java MolfileCreator 1.0

 27 31  0  0  0  0  0  0  0  0999 V2000
    0.0000   -0.0000   -0.0000 O   0  0  0  0  0  0  0  0  0  0  0  0
   -1.1207   -1.0027   -0.0000 C   0  0  0  0  0  0  0  0  0  0  0  0
    1.2976   -0.7314   -0.0000 C   0  0  0  0  0  0  0  0  0  0  0  0
   -0.5191   -2.3593   -0.0000 C   0  0  0  0  0  0  0  0  0  0  0  0
   -2.6189   -0.8376   -0.0000 C   0  0  0  0  0  0  0  0  0  0  0  0
    0.9791   -2.1942   -0.0000 O   0  0  0  0  0  0  0  0  0  0  0  0
   -1.4274   -3.5626   -0.0000 C   0  0  0  0  0  0  0  0  0  0  0  0
   -3.5036   -2.0290   -0.0000 C   0  0  0  0  0  0  0  0  0  0  0  0
   -2.9256   -3.3856   -0.0000 C   0  0  0  0  0  0  0  0  0  0  0  0
   -5.0018   -1.8521   -0.0000 C   0  0  0  0  0  0  0  0  0  0  0  0
   -5.8983   -3.0435   -0.0000 C   0  0  0  0  0  0  0  0  0  0  0  0
   -5.4501   -4.4591   -0.0000 C   0  0  0  0  0  0  0  0  0  0  0  0
   -7.4083   -3.0199   -0.0000 C   0  0  0  0  0  0  0  0  0  0  0  0
   -6.6769   -5.3203   -0.0000 O   0  0  0  0  0  0  0  0  0  0  0  0
   -4.0345   -4.9192   -0.0000 O   0  0  0  0  0  0  0  0  0  0  0  0
   -7.8920   -4.4355   -0.0000 C   0  0  0  0  0  0  0  0  0  0  0  0
   -8.2931   -1.7931   -0.0000 C   0  0  0  0  0  0  0  0  0  0  0  0
   -3.7395   -6.3702   -0.0000 C   0  0  0  0  0  0  0  0  0  0  0  0
   -9.7912   -1.9347   -0.0000 C   0  0  0  0  0  0  0  0  0  0  0  0
  -10.4047   -3.2913   -0.0000 C   0  0  0  0  0  0  0  0  0  0  0  0
  -10.6760   -0.7078   -0.0000 C   0  0  0  0  0  0  0  0  0  0  0  0
  -11.9028   -3.4328   -0.0000 C   0  0  0  0  0  0  0  0  0  0  0  0
  -12.1742   -0.8494   -0.0000 C   0  0  0  0  0  0  0  0  0  0  0  0
  -12.7994   -4.6361   -0.0000 O   0  0  0  0  0  0  0  0  0  0  0  0
  -12.7994   -2.2060   -0.0000 C   0  0  0  0  0  0  0  0  0  0  0  0
  -14.2386   -4.1642   -0.0000 C   0  0  0  0  0  0  0  0  0  0  0  0
  -14.2386   -2.6543   -0.0000 O   0  0  0  0  0  0  0  0  0  0  0  0
  1  2  1  0  0  0  0
  1  3  1  0  0  0  0
  2  4  2  0  0  0  0
  2  5  1  0  0  0  0
  3  6  1  0  0  0  0
  4  7  1  0  0  0  0
  5  8  2  0  0  0  0
  7  9  2  0  0  0  0
  8 10  1  0  0  0  0
 11 10  1  6  0  0  0
 11 12  1  0  0  0  0
 11 13  1  0  0  0  0
 12 14  1  0  0  0  0
 12 15  1  1  0  0  0
 13 16  1  0  0  0  0
 13 17  1  1  0  0  0
 15 18  1  0  0  0  0
 17 19  1  0  0  0  0
 19 20  2  0  0  0  0
 19 21  1  0  0  0  0
 20 22  1  0  0  0  0
 21 23  2  0  0  0  0
 22 24  1  0  0  0  0
 22 25  2  0  0  0  0
 24 26  1  0  0  0  0
 25 27  1  0  0  0  0
  4  6  1  0  0  0  0
  8  9  1  0  0  0  0
 14 16  1  0  0  0  0
 23 25  1  0  0  0  0
 26 27  1  0  0  0  0
M  END
>  <MolRegNo>
482165

>  <m>
=

>  <Value>
7700

>  <Unit>
nM

>  <Type>
IC50

>  <pValue>
5.11

>  <Ligand Efficiency>
0

>  <Binding Efficiency>
0

>  <Surface Efficiency>
0

>  <Assay Index>
375002

>  <Assay Category>


>  <Assay Organism>
Homo sapiens

>  <Target ID>
17045

>  <Target Name>
Cytochrome P450 3A4

>  <Target Organism>
Homo sapiens

>  <Target Description>
Target is a single protein chain

>  <Sequence Accession>
P08684

>  <Reference>
J Nat Prod 68 (1), 64-68 (2005)

>  <Pubmed ID>
15679319

>  <DOI>
10.1021/np0401765

$$$$
263146
Actelion Java MolfileCreator 1.0

 30 32  0  0  0  0  0  0  0  0999 V2000
    0.0000   -0.0000   -0.0000 O   0  0  0  0  0  0  0  0  0  0  0  0
   -1.0803   -1.0447   -0.0000 C   0  0  0  0  0  0  0  0  0  0  0  0
    1.4483   -0.3680   -0.0000 C   0  0  0  0  0  0  0  0  0  0  0  0
   -0.7004   -2.4931   -0.0000 C   0  0  0  0  0  0  0  0  0  0  0  0
   -2.5524   -0.6529   -0.0000 C   0  0  0  0  0  0  0  0  0  0  0  0
    0.7479   -2.8611   -0.0000 O   0  0  0  0  0  0  0  0  0  0  0  0
   -1.7689   -3.5378   -0.0000 C   0  0  0  0  0  0  0  0  0  0  0  0
   -3.6209   -1.6977   -0.0000 C   0  0  0  0  0  0  0  0  0  0  0  0
    1.1278   -4.3094   -0.0000 C   0  0  0  0  0  0  0  0  0  0  0  0
   -3.2291   -3.1341   -0.0000 C   0  0  0  0  0  0  0  0  0  0  0  0
   -5.0811   -1.3059   -0.0000 O   0  0  0  0  0  0  0  0  0  0  0  0
   -4.3094   -4.1788   -0.0000 C   0  0  0  0  0  0  0  0  0  0  0  0
   -5.4966    0.1543   -0.0000 C   0  0  0  0  0  0  0  0  0  0  0  0
   -4.3213   -5.6747   -0.0000 C   0  0  0  0  0  0  0  0  0  0  0  0
   -5.8171   -4.1670   -0.0000 C   0  0  0  0  0  0  0  0  0  0  0  0
   -3.2647   -6.7194   -0.0000 C   0  0  0  0  0  0  0  0  0  0  0  0
   -5.8290   -5.6628   -0.0000 C   0  0  0  0  0  0  0  0  0  0  0  0
   -6.8975   -3.0985   -0.0000 C   0  0  0  0  0  0  0  0  0  0  0  0
   -3.6802   -8.1559   -0.0000 C   0  0  0  0  0  0  0  0  0  0  0  0
   -1.8401   -6.3157   -0.0000 C   0  0  0  0  0  0  0  0  0  0  0  0
   -6.9093   -6.7075   -0.0000 C   0  0  0  0  0  0  0  0  0  0  0  0
   -5.1404   -8.5357   -0.0000 O   0  0  0  0  0  0  0  0  0  0  0  0
   -2.6236   -9.2124   -0.0000 C   0  0  0  0  0  0  0  0  0  0  0  0
   -0.7835   -7.3723   -0.0000 C   0  0  0  0  0  0  0  0  0  0  0  0
   -6.2208   -7.4554   -0.0000 C   0  0  0  0  0  0  0  0  0  0  0  0
   -1.1872   -8.8088   -0.0000 C   0  0  0  0  0  0  0  0  0  0  0  0
    0.6529   -6.9687   -0.0000 O   0  0  0  0  0  0  0  0  0  0  0  0
   -0.1306   -9.8535   -0.0000 O   0  0  0  0  0  0  0  0  0  0  0  0
    1.7095   -8.0134   -0.0000 C   0  0  0  0  0  0  0  0  0  0  0  0
   -0.5224  -11.3018   -0.0000 C   0  0  0  0  0  0  0  0  0  0  0  0
  1  2  1  0  0  0  0
  1  3  1  0  0  0  0
  2  4  2  0  0  0  0
  2  5  1  0  0  0  0
  4  6  1  0  0  0  0
  4  7  1  0  0  0  0
  5  8  2  0  0  0  0
  6  9  1  0  0  0  0
  7 10  2  0  0  0  0
  8 11  1  0  0  0  0
 12 10  1  6  0  0  0
 11 13  1  0  0  0  0
 12 14  1  0  0  0  0
 12 15  1  0  0  0  0
 14 16  1  1  0  0  0
 14 17  1  0  0  0  0
 15 18  1  6  0  0  0
 16 19  2  0  0  0  0
 16 20  1  0  0  0  0
 17 21  1  1  0  0  0
 19 22  1  0  0  0  0
 19 23  1  0  0  0  0
 20 24  2  0  0  0  0
 22 25  1  0  0  0  0
 23 26  2  0  0  0  0
 24 27  1  0  0  0  0
 26 28  1  0  0  0  0
 27 29  1  0  0  0  0
 28 30  1  0  0  0  0
  8 10  1  0  0  0  0
 15 17  1  0  0  0  0
 24 26  1  0  0  0  0
M  END
>  <MolRegNo>
263146

>  <m>
=

>  <Value>
85400

>  <Unit>
nM

>  <Type>
IC50

>  <pValue>
4.07

>  <Ligand Efficiency>
0

>  <Binding Efficiency>
0

>  <Surface Efficiency>
0

>  <Assay Index>
375002

>  <Assay Category>


>  <Assay Organism>
Homo sapiens

>  <Target ID>
17045

>  <Target Name>
Cytochrome P450 3A4

>  <Target Organism>
Homo sapiens

>  <Target Description>
Target is a single protein chain

>  <Sequence Accession>
P08684

>  <Reference>
J Nat Prod 68 (1), 64-68 (2005)

>  <Pubmed ID>
15679319

>  <DOI>
10.1021/np0401765

$$$$
387491
Actelion Java MolfileCreator 1.0

 26 30  0  0  0  0  0  0  0  0999 V2000
    0.0000   -0.0000   -0.0000 O   0  0  0  0  0  0  0  0  0  0  0  0
   -0.5563   -1.3843   -0.0000 C   0  0  0  0  0  0  0  0  0  0  0  0
   -2.0053   -1.8242   -0.0000 O   0  0  0  0  0  0  0  0  0  0  0  0
    0.1682   -2.6651   -0.0000 C   0  0  0  0  0  0  0  0  0  0  0  0
   -2.0312   -3.3120   -0.0000 C   0  0  0  0  0  0  0  0  0  0  0  0
   -0.5951   -3.7907   -0.0000 C   0  0  0  0  0  0  0  0  0  0  0  0
    1.7983   -2.5746   -0.0000 C   0  0  0  0  0  0  0  0  0  0  0  0
   -0.1164   -5.2009   -0.0000 C   0  0  0  0  0  0  0  0  0  0  0  0
    2.5487   -1.2679   -0.0000 C   0  0  0  0  0  0  0  0  0  0  0  0
   -1.1126   -6.3265   -0.0000 C   0  0  0  0  0  0  0  0  0  0  0  0
    1.7983    0.0388   -0.0000 C   0  0  0  0  0  0  0  0  0  0  0  0
    4.0365   -1.2679   -0.0000 C   0  0  0  0  0  0  0  0  0  0  0  0
   -0.6339   -7.7238   -0.0000 C   0  0  0  0  0  0  0  0  0  0  0  0
   -2.6134   -6.0289   -0.0000 C   0  0  0  0  0  0  0  0  0  0  0  0
    2.5487    1.3455   -0.0000 C   0  0  0  0  0  0  0  0  0  0  0  0
    4.7740    0.0518   -0.0000 C   0  0  0  0  0  0  0  0  0  0  0  0
   -1.6172   -8.8493   -0.0000 C   0  0  0  0  0  0  0  0  0  0  0  0
   -3.5967   -7.1545   -0.0000 C   0  0  0  0  0  0  0  0  0  0  0  0
    2.0700    2.7686   -0.0000 O   0  0  0  0  0  0  0  0  0  0  0  0
    4.0236    1.3584   -0.0000 C   0  0  0  0  0  0  0  0  0  0  0  0
   -1.4361  -10.3372   -0.0000 O   0  0  0  0  0  0  0  0  0  0  0  0
   -3.1309   -8.5647   -0.0000 C   0  0  0  0  0  0  0  0  0  0  0  0
    3.2603    3.6613   -0.0000 C   0  0  0  0  0  0  0  0  0  0  0  0
    4.4635    2.7816   -0.0000 O   0  0  0  0  0  0  0  0  0  0  0  0
   -2.8204  -10.9711   -0.0000 C   0  0  0  0  0  0  0  0  0  0  0  0
   -3.8683   -9.8843   -0.0000 O   0  0  0  0  0  0  0  0  0  0  0  0
  1  2  2  0  0  0  0
  2  3  1  0  0  0  0
  2  4  1  0  0  0  0
  3  5  1  0  0  0  0
  4  6  1  0  0  0  0
  4  7  1  1  0  0  0
  6  8  1  6  0  0  0
  7  9  1  0  0  0  0
  8 10  1  0  0  0  0
  9 11  2  0  0  0  0
  9 12  1  0  0  0  0
 10 13  2  0  0  0  0
 10 14  1  0  0  0  0
 11 15  1  0  0  0  0
 12 16  2  0  0  0  0
 13 17  1  0  0  0  0
 14 18  2  0  0  0  0
 15 19  1  0  0  0  0
 15 20  2  0  0  0  0
 17 21  1  0  0  0  0
 17 22  2  0  0  0  0
 19 23  1  0  0  0  0
 20 24  1  0  0  0  0
 21 25  1  0  0  0  0
 22 26  1  0  0  0  0
  5  6  1  0  0  0  0
 16 20  1  0  0  0  0
 18 22  1  0  0  0  0
 23 24  1  0  0  0  0
 25 26  1  0  0  0  0
M  END
>  <MolRegNo>
387491

>  <m>
=

>  <Value>
8000

>  <Unit>
nM

>  <Type>
IC50

>  <pValue>
5.1

>  <Ligand Efficiency>
0

>  <Binding Efficiency>
0

>  <Surface Efficiency>
0

>  <Assay Index>
375002

>  <Assay Category>


>  <Assay Organism>
Homo sapiens

>  <Target ID>
17045

>  <Target Name>
Cytochrome P450 3A4

>  <Target Organism>
Homo sapiens

>  <Target Description>
Target is a single protein chain

>  <Sequence Accession>
P08684

>  <Reference>
J Nat Prod 68 (1), 64-68 (2005)

>  <Pubmed ID>
15679319

>  <DOI>
10.1021/np0401765

$$$$
400327
Actelion Java MolfileCreator 1.0

 26 30  0  0  0  0  0  0  0  0999 V2000
    0.0000   -0.0000   -0.0000 O   0  0  0  0  0  0  0  0  0  0  0  0
   -1.4930   -0.1659   -0.0000 C   0  0  0  0  0  0  0  0  0  0  0  0
    0.6162   -1.3509   -0.0000 C   0  0  0  0  0  0  0  0  0  0  0  0
   -1.8011   -1.6234   -0.0000 C   0  0  0  0  0  0  0  0  0  0  0  0
   -2.6188    0.8295   -0.0000 C   0  0  0  0  0  0  0  0  0  0  0  0
   -0.4977   -2.3462   -0.0000 O   0  0  0  0  0  0  0  0  0  0  0  0
   -3.2468   -2.0855   -0.0000 C   0  0  0  0  0  0  0  0  0  0  0  0
   -4.0407    0.3673   -0.0000 C   0  0  0  0  0  0  0  0  0  0  0  0
   -4.3725   -1.0783   -0.0000 C   0  0  0  0  0  0  0  0  0  0  0  0
   -5.1664    1.3746   -0.0000 C   0  0  0  0  0  0  0  0  0  0  0  0
   -6.6002    0.9124   -0.0000 C   0  0  0  0  0  0  0  0  0  0  0  0
   -7.0742   -0.4977   -0.0000 C   0  0  0  0  0  0  0  0  0  0  0  0
   -7.8207    1.7893   -0.0000 C   0  0  0  0  0  0  0  0  0  0  0  0
   -8.5791   -0.4858   -0.0000 O   0  0  0  0  0  0  0  0  0  0  0  0
   -6.2092   -1.6945   -0.0000 O   0  0  0  0  0  0  0  0  0  0  0  0
   -9.0412    0.9361   -0.0000 C   0  0  0  0  0  0  0  0  0  0  0  0
   -7.8326    3.2942   -0.0000 C   0  0  0  0  0  0  0  0  0  0  0  0
   -9.1360    4.0526   -0.0000 C   0  0  0  0  0  0  0  0  0  0  0  0
   -9.1479    5.5693   -0.0000 C   0  0  0  0  0  0  0  0  0  0  0  0
  -10.4513    3.3179   -0.0000 C   0  0  0  0  0  0  0  0  0  0  0  0
  -10.4632    6.3158   -0.0000 C   0  0  0  0  0  0  0  0  0  0  0  0
  -11.7548    4.0763   -0.0000 C   0  0  0  0  0  0  0  0  0  0  0  0
  -10.7831    7.7852   -0.0000 O   0  0  0  0  0  0  0  0  0  0  0  0
  -11.7666    5.5812   -0.0000 C   0  0  0  0  0  0  0  0  0  0  0  0
  -12.2762    7.9511   -0.0000 C   0  0  0  0  0  0  0  0  0  0  0  0
  -12.8805    6.5884   -0.0000 O   0  0  0  0  0  0  0  0  0  0  0  0
  1  2  1  0  0  0  0
  1  3  1  0  0  0  0
  2  4  2  0  0  0  0
  2  5  1  0  0  0  0
  3  6  1  0  0  0  0
  4  7  1  0  0  0  0
  5  8  2  0  0  0  0
  7  9  2  0  0  0  0
  8 10  1  0  0  0  0
 11 10  1  1  0  0  0
 11 12  1  0  0  0  0
 11 13  1  0  0  0  0
 12 14  1  0  0  0  0
 12 15  1  1  0  0  0
 13 16  1  0  0  0  0
 13 17  1  6  0  0  0
 17 18  1  0  0  0  0
 18 19  2  0  0  0  0
 18 20  1  0  0  0  0
 19 21  1  0  0  0  0
 20 22  2  0  0  0  0
 21 23  1  0  0  0  0
 21 24  2  0  0  0  0
 23 25  1  0  0  0  0
 24 26  1  0  0  0  0
  4  6  1  0  0  0  0
  8  9  1  0  0  0  0
 14 16  1  0  0  0  0
 22 24  1  0  0  0  0
 25 26  1  0  0  0  0
M  END
>  <MolRegNo>
400327

>  <m>
=

>  <Value>
9100

>  <Unit>
nM

>  <Type>
IC50

>  <pValue>
5.04

>  <Ligand Efficiency>
0

>  <Binding Efficiency>
0

>  <Surface Efficiency>
0

>  <Assay Index>
375002

>  <Assay Category>


>  <Assay Organism>
Homo sapiens

>  <Target ID>
17045

>  <Target Name>
Cytochrome P450 3A4

>  <Target Organism>
Homo sapiens

>  <Target Description>
Target is a single protein chain

>  <Sequence Accession>
P08684

>  <Reference>
J Nat Prod 68 (1), 64-68 (2005)

>  <Pubmed ID>
15679319

>  <DOI>
10.1021/np0401765

$$$$
482187
Actelion Java MolfileCreator 1.0

 29 32  0  0  0  0  0  0  0  0999 V2000
    0.0000   -0.0000   -0.0000 O   0  0  0  0  0  0  0  0  0  0  0  0
    0.9380   -1.1636   -0.0000 C   0  0  0  0  0  0  0  0  0  0  0  0
   -1.4129   -0.5343   -0.0000 C   0  0  0  0  0  0  0  0  0  0  0  0
    0.1069   -2.4102   -0.0000 C   0  0  0  0  0  0  0  0  0  0  0  0
    2.4221   -1.2348   -0.0000 C   0  0  0  0  0  0  0  0  0  0  0  0
   -1.3417   -2.0184   -0.0000 O   0  0  0  0  0  0  0  0  0  0  0  0
    0.7836   -3.7400   -0.0000 C   0  0  0  0  0  0  0  0  0  0  0  0
    3.0870   -2.5527   -0.0000 C   0  0  0  0  0  0  0  0  0  0  0  0
    2.2796   -3.8113   -0.0000 C   0  0  0  0  0  0  0  0  0  0  0  0
    4.5711   -2.6240   -0.0000 C   0  0  0  0  0  0  0  0  0  0  0  0
    5.3904   -3.8825   -0.0000 C   0  0  0  0  0  0  0  0  0  0  0  0
    6.8745   -3.9537   -0.0000 C   0  0  0  0  0  0  0  0  0  0  0  0
    4.8442   -5.2716   -0.0000 C   0  0  0  0  0  0  0  0  0  0  0  0
    7.2545   -5.3904   -0.0000 C   0  0  0  0  0  0  0  0  0  0  0  0
    7.9787   -2.9327   -0.0000 C   0  0  0  0  0  0  0  0  0  0  0  0
    5.9840   -6.1978   -0.0000 O   0  0  0  0  0  0  0  0  0  0  0  0
    8.6436   -5.9128   -0.0000 O   0  0  0  0  0  0  0  0  0  0  0  0
    7.6463   -1.4485   -0.0000 C   0  0  0  0  0  0  0  0  0  0  0  0
    8.7505   -0.4274   -0.0000 C   0  0  0  0  0  0  0  0  0  0  0  0
    6.1978   -0.9736   -0.0000 C   0  0  0  0  0  0  0  0  0  0  0  0
    8.4299    1.0448   -0.0000 C   0  0  0  0  0  0  0  0  0  0  0  0
    5.8772    0.4987   -0.0000 C   0  0  0  0  0  0  0  0  0  0  0  0
    9.5341    2.0659   -0.0000 O   0  0  0  0  0  0  0  0  0  0  0  0
    6.9814    1.5198   -0.0000 C   0  0  0  0  0  0  0  0  0  0  0  0
    4.4287    0.9736   -0.0000 O   0  0  0  0  0  0  0  0  0  0  0  0
    9.2016    3.5501   -0.0000 C   0  0  0  0  0  0  0  0  0  0  0  0
    6.6608    2.9920   -0.0000 O   0  0  0  0  0  0  0  0  0  0  0  0
    3.3126   -0.0119   -0.0000 C   0  0  0  0  0  0  0  0  0  0  0  0
    5.2242    3.4669   -0.0000 C   0  0  0  0  0  0  0  0  0  0  0  0
  1  2  1  0  0  0  0
  1  3  1  0  0  0  0
  2  4  2  0  0  0  0
  2  5  1  0  0  0  0
  3  6  1  0  0  0  0
  4  7  1  0  0  0  0
  5  8  2  0  0  0  0
  7  9  2  0  0  0  0
  8 10  1  0  0  0  0
 11 10  1  1  0  0  0
 11 12  1  0  0  0  0
 11 13  1  0  0  0  0
 12 14  1  0  0  0  0
 12 15  1  6  0  0  0
 13 16  1  0  0  0  0
 14 17  1  0  0  0  0
 15 18  1  0  0  0  0
 18 19  2  0  0  0  0
 18 20  1  0  0  0  0
 19 21  1  0  0  0  0
 20 22  2  0  0  0  0
 21 23  1  0  0  0  0
 21 24  2  0  0  0  0
 22 25  1  0  0  0  0
 23 26  1  0  0  0  0
 24 27  1  0  0  0  0
 25 28  1  0  0  0  0
 27 29  1  0  0  0  0
  4  6  1  0  0  0  0
  8  9  1  0  0  0  0
 14 16  1  0  0  0  0
 22 24  1  0  0  0  0
M  END
>  <MolRegNo>
482187

>  <m>
=

>  <Value>
830

>  <Unit>
nM

>  <Type>
IC50

>  <pValue>
6.08

>  <Ligand Efficiency>
0

>  <Binding Efficiency>
0

>  <Surface Efficiency>
0

>  <Assay Index>
375002

>  <Assay Category>


>  <Assay Organism>
Homo sapiens

>  <Target ID>
17045

>  <Target Name>
Cytochrome P450 3A4

>  <Target Organism>
Homo sapiens

>  <Target Description>
Target is a single protein chain

>  <Sequence Accession>
P08684

>  <Reference>
J Nat Prod 68 (1), 64-68 (2005)

>  <Pubmed ID>
15679319

>  <DOI>
10.1021/np0401765

$$$$
482188
Actelion Java MolfileCreator 1.0

 32 34  0  0  0  0  0  0  0  0999 V2000
    0.0000   -0.0000   -0.0000 O   0  0  0  0  0  0  0  0  0  0  0  0
    1.3915    0.5307   -0.0000 C   0  0  0  0  0  0  0  0  0  0  0  0
    2.6297   -0.2830   -0.0000 O   0  0  0  0  0  0  0  0  0  0  0  0
    1.7807    1.9811   -0.0000 C   0  0  0  0  0  0  0  0  0  0  0  0
    3.7972    0.6604   -0.0000 C   0  0  0  0  0  0  0  0  0  0  0  0
    3.2665    2.0637   -0.0000 C   0  0  0  0  0  0  0  0  0  0  0  0
    0.8373    3.1722   -0.0000 C   0  0  0  0  0  0  0  0  0  0  0  0
    4.0920    3.3255   -0.0000 C   0  0  0  0  0  0  0  0  0  0  0  0
    1.3797    4.5755   -0.0000 C   0  0  0  0  0  0  0  0  0  0  0  0
    5.5779    3.1604   -0.0000 C   0  0  0  0  0  0  0  0  0  0  0  0
    2.8538    4.8113   -0.0000 C   0  0  0  0  0  0  0  0  0  0  0  0
    0.4363    5.7665   -0.0000 C   0  0  0  0  0  0  0  0  0  0  0  0
    6.1557    1.8043   -0.0000 C   0  0  0  0  0  0  0  0  0  0  0  0
    6.4623    4.3750   -0.0000 C   0  0  0  0  0  0  0  0  0  0  0  0
    3.3962    6.2147   -0.0000 C   0  0  0  0  0  0  0  0  0  0  0  0
    0.9788    7.1816   -0.0000 C   0  0  0  0  0  0  0  0  0  0  0  0
    7.6415    1.6392   -0.0000 C   0  0  0  0  0  0  0  0  0  0  0  0
    7.9364    4.2217   -0.0000 C   0  0  0  0  0  0  0  0  0  0  0  0
    4.8703    6.4505   -0.0000 O   0  0  0  0  0  0  0  0  0  0  0  0
    2.4528    7.4057   -0.0000 C   0  0  0  0  0  0  0  0  0  0  0  0
    0.0236    8.3727   -0.0000 O   0  0  0  0  0  0  0  0  0  0  0  0
    8.2194    0.2712   -0.0000 O   0  0  0  0  0  0  0  0  0  0  0  0
    8.5142    2.8538   -0.0000 C   0  0  0  0  0  0  0  0  0  0  0  0
    8.8208    5.4363   -0.0000 O   0  0  0  0  0  0  0  0  0  0  0  0
    5.4010    7.8538   -0.0000 C   0  0  0  0  0  0  0  0  0  0  0  0
    2.9953    8.8208   -0.0000 O   0  0  0  0  0  0  0  0  0  0  0  0
   -1.4741    8.1604   -0.0000 C   0  0  0  0  0  0  0  0  0  0  0  0
    9.7052    0.1179   -0.0000 C   0  0  0  0  0  0  0  0  0  0  0  0
   10.0000    2.7005   -0.0000 O   0  0  0  0  0  0  0  0  0  0  0  0
   10.3067    5.2713   -0.0000 C   0  0  0  0  0  0  0  0  0  0  0  0
    2.0401   10.0118   -0.0000 C   0  0  0  0  0  0  0  0  0  0  0  0
   10.5897    1.3326   -0.0000 C   0  0  0  0  0  0  0  0  0  0  0  0
  1  2  2  0  0  0  0
  2  3  1  0  0  0  0
  2  4  1  0  0  0  0
  3  5  1  0  0  0  0
  4  6  1  0  0  0  0
  4  7  1  1  0  0  0
  6  8  1  6  0  0  0
  7  9  1  0  0  0  0
  8 10  1  0  0  0  0
  9 11  2  0  0  0  0
  9 12  1  0  0  0  0
 10 13  2  0  0  0  0
 10 14  1  0  0  0  0
 11 15  1  0  0  0  0
 12 16  2  0  0  0  0
 13 17  1  0  0  0  0
 14 18  2  0  0  0  0
 15 19  1  0  0  0  0
 15 20  2  0  0  0  0
 16 21  1  0  0  0  0
 17 22  1  0  0  0  0
 17 23  2  0  0  0  0
 18 24  1  0  0  0  0
 19 25  1  0  0  0  0
 20 26  1  0  0  0  0
 21 27  1  0  0  0  0
 22 28  1  0  0  0  0
 23 29  1  0  0  0  0
 24 30  1  0  0  0  0
 26 31  1  0  0  0  0
 29 32  1  0  0  0  0
  5  6  1  0  0  0  0
 16 20  1  0  0  0  0
 18 23  1  0  0  0  0
M  END
>  <MolRegNo>
482188

>  <m>
=

>  <Value>
14900

>  <Unit>
nM

>  <Type>
IC50

>  <pValue>
4.83

>  <Ligand Efficiency>
0

>  <Binding Efficiency>
0

>  <Surface Efficiency>
0

>  <Assay Index>
375002

>  <Assay Category>


>  <Assay Organism>
Homo sapiens

>  <Target ID>
17045

>  <Target Name>
Cytochrome P450 3A4

>  <Target Organism>
Homo sapiens

>  <Target Description>
Target is a single protein chain

>  <Sequence Accession>
P08684

>  <Reference>
J Nat Prod 68 (1), 64-68 (2005)

>  <Pubmed ID>
15679319

>  <DOI>
10.1021/np0401765

$$$$
443841
Actelion Java MolfileCreator 1.0

 26 29  0  0  0  0  0  0  0  0999 V2000
    0.0000   -0.0000   -0.0000 O   0  0  0  0  0  0  0  0  0  0  0  0
   -1.0109    1.1167   -0.0000 C   0  0  0  0  0  0  0  0  0  0  0  0
    1.3518    0.6112   -0.0000 C   0  0  0  0  0  0  0  0  0  0  0  0
   -0.2821    2.4215   -0.0000 C   0  0  0  0  0  0  0  0  0  0  0  0
   -2.5155    1.1285   -0.0000 C   0  0  0  0  0  0  0  0  0  0  0  0
    1.1755    2.1159   -0.0000 O   0  0  0  0  0  0  0  0  0  0  0  0
   -1.0344    3.7262   -0.0000 C   0  0  0  0  0  0  0  0  0  0  0  0
   -3.2678    2.4332   -0.0000 C   0  0  0  0  0  0  0  0  0  0  0  0
   -2.5390    3.7380   -0.0000 C   0  0  0  0  0  0  0  0  0  0  0  0
   -4.7724    2.4450   -0.0000 C   0  0  0  0  0  0  0  0  0  0  0  0
   -5.5247    3.7498   -0.0000 C   0  0  0  0  0  0  0  0  0  0  0  0
   -7.0293    3.7615   -0.0000 C   0  0  0  0  0  0  0  0  0  0  0  0
   -4.7959    5.0545   -0.0000 C   0  0  0  0  0  0  0  0  0  0  0  0
   -7.7816    5.0663   -0.0000 C   0  0  0  0  0  0  0  0  0  0  0  0
   -7.7816    2.4802   -0.0000 C   0  0  0  0  0  0  0  0  0  0  0  0
   -5.5482    6.3593   -0.0000 O   0  0  0  0  0  0  0  0  0  0  0  0
   -9.2862    5.0780   -0.0000 O   0  0  0  0  0  0  0  0  0  0  0  0
   -9.2862    2.4920   -0.0000 C   0  0  0  0  0  0  0  0  0  0  0  0
  -10.0385    1.2107   -0.0000 C   0  0  0  0  0  0  0  0  0  0  0  0
  -10.0385    3.7968   -0.0000 C   0  0  0  0  0  0  0  0  0  0  0  0
  -11.5431    1.2225   -0.0000 C   0  0  0  0  0  0  0  0  0  0  0  0
  -11.5431    3.8085   -0.0000 C   0  0  0  0  0  0  0  0  0  0  0  0
  -12.5540    0.1293   -0.0000 O   0  0  0  0  0  0  0  0  0  0  0  0
  -12.2954    2.5273   -0.0000 C   0  0  0  0  0  0  0  0  0  0  0  0
  -13.9293    0.7405   -0.0000 C   0  0  0  0  0  0  0  0  0  0  0  0
  -13.7648    2.2216   -0.0000 O   0  0  0  0  0  0  0  0  0  0  0  0
  1  2  1  0  0  0  0
  1  3  1  0  0  0  0
  2  4  2  0  0  0  0
  2  5  1  0  0  0  0
  3  6  1  0  0  0  0
  4  7  1  0  0  0  0
  5  8  2  0  0  0  0
  7  9  2  0  0  0  0
  8 10  1  0  0  0  0
 11 10  1  6  0  0  0
 11 12  1  0  0  0  0
 11 13  1  0  0  0  0
 12 14  1  1  0  0  0
 12 15  1  0  0  0  0
 13 16  1  0  0  0  0
 14 17  1  0  0  0  0
 15 18  1  0  0  0  0
 18 19  2  0  0  0  0
 18 20  1  0  0  0  0
 19 21  1  0  0  0  0
 20 22  2  0  0  0  0
 21 23  1  0  0  0  0
 21 24  2  0  0  0  0
 23 25  1  0  0  0  0
 24 26  1  0  0  0  0
  4  6  1  0  0  0  0
  8  9  1  0  0  0  0
 22 24  1  0  0  0  0
 25 26  1  0  0  0  0
M  END
>  <MolRegNo>
443841

>  <m>
=

>  <Value>
9500

>  <Unit>
nM

>  <Type>
IC50

>  <pValue>
5.02

>  <Ligand Efficiency>
0

>  <Binding Efficiency>
0

>  <Surface Efficiency>
0

>  <Assay Index>
375002

>  <Assay Category>


>  <Assay Organism>
Homo sapiens

>  <Target ID>
17045

>  <Target Name>
Cytochrome P450 3A4

>  <Target Organism>
Homo sapiens

>  <Target Description>
Target is a single protein chain

>  <Sequence Accession>
P08684

>  <Reference>
J Nat Prod 68 (1), 64-68 (2005)

>  <Pubmed ID>
15679319

>  <DOI>
10.1021/np0401765

$$$$
442461
Actelion Java MolfileCreator 1.0

 29 32  0  0  0  0  0  0  0  0999 V2000
    0.0000   -0.0000   -0.0000 O   0  0  0  0  0  0  0  0  0  0  0  0
   -0.4858    1.4337   -0.0000 C   0  0  0  0  0  0  0  0  0  0  0  0
    0.3792    2.6660   -0.0000 O   0  0  0  0  0  0  0  0  0  0  0  0
   -1.9314    1.8958   -0.0000 C   0  0  0  0  0  0  0  0  0  0  0  0
   -0.5214    3.8864   -0.0000 C   0  0  0  0  0  0  0  0  0  0  0  0
   -1.9551    3.4125   -0.0000 C   0  0  0  0  0  0  0  0  0  0  0  0
   -3.2466    1.1612   -0.0000 C   0  0  0  0  0  0  0  0  0  0  0  0
   -3.2703    4.1708   -0.0000 C   0  0  0  0  0  0  0  0  0  0  0  0
   -3.2584   -0.3199   -0.0000 C   0  0  0  0  0  0  0  0  0  0  0  0
   -4.5737    3.4243   -0.0000 C   0  0  0  0  0  0  0  0  0  0  0  0
   -1.9788   -1.0427   -0.0000 C   0  0  0  0  0  0  0  0  0  0  0  0
   -4.5618   -1.0546   -0.0000 C   0  0  0  0  0  0  0  0  0  0  0  0
   -5.8889    4.1708   -0.0000 C   0  0  0  0  0  0  0  0  0  0  0  0
   -4.5737    1.9314   -0.0000 C   0  0  0  0  0  0  0  0  0  0  0  0
   -1.9788   -2.5238   -0.0000 C   0  0  0  0  0  0  0  0  0  0  0  0
   -4.5737   -2.5357   -0.0000 C   0  0  0  0  0  0  0  0  0  0  0  0
   -7.1923    3.4362   -0.0000 C   0  0  0  0  0  0  0  0  0  0  0  0
   -5.8889    1.1967   -0.0000 C   0  0  0  0  0  0  0  0  0  0  0  0
   -0.6872   -3.2584   -0.0000 O   0  0  0  0  0  0  0  0  0  0  0  0
   -3.2821   -3.2703   -0.0000 C   0  0  0  0  0  0  0  0  0  0  0  0
   -5.8770   -3.2703   -0.0000 O   0  0  0  0  0  0  0  0  0  0  0  0
   -8.6378    3.9101   -0.0000 O   0  0  0  0  0  0  0  0  0  0  0  0
   -7.1923    1.9432   -0.0000 C   0  0  0  0  0  0  0  0  0  0  0  0
   -0.6872   -4.7396   -0.0000 C   0  0  0  0  0  0  0  0  0  0  0  0
   -3.2940   -4.7514   -0.0000 O   0  0  0  0  0  0  0  0  0  0  0  0
   -7.1804   -2.5120   -0.0000 C   0  0  0  0  0  0  0  0  0  0  0  0
   -9.5265    2.7015   -0.0000 C   0  0  0  0  0  0  0  0  0  0  0  0
   -8.6260    1.4811   -0.0000 O   0  0  0  0  0  0  0  0  0  0  0  0
   -4.5974   -5.4860   -0.0000 C   0  0  0  0  0  0  0  0  0  0  0  0
  1  2  2  0  0  0  0
  2  3  1  0  0  0  0
  2  4  1  0  0  0  0
  3  5  1  0  0  0  0
  4  6  1  0  0  0  0
  4  7  1  1  0  0  0
  6  8  1  6  0  0  0
  7  9  1  0  0  0  0
  8 10  1  0  0  0  0
  9 11  2  0  0  0  0
  9 12  1  0  0  0  0
 10 13  2  0  0  0  0
 10 14  1  0  0  0  0
 11 15  1  0  0  0  0
 12 16  2  0  0  0  0
 13 17  1  0  0  0  0
 14 18  2  0  0  0  0
 15 19  1  0  0  0  0
 15 20  2  0  0  0  0
 16 21  1  0  0  0  0
 17 22  1  0  0  0  0
 17 23  2  0  0  0  0
 19 24  1  0  0  0  0
 20 25  1  0  0  0  0
 21 26  1  0  0  0  0
 22 27  1  0  0  0  0
 23 28  1  0  0  0  0
 25 29  1  0  0  0  0
  5  6  1  0  0  0  0
 16 20  1  0  0  0  0
 18 23  1  0  0  0  0
 27 28  1  0  0  0  0
M  END
>  <MolRegNo>
442461

>  <m>
=

>  <Value>
1000

>  <Unit>
nM

>  <Type>
IC50

>  <pValue>
6

>  <Ligand Efficiency>
0

>  <Binding Efficiency>
0

>  <Surface Efficiency>
0

>  <Assay Index>
375002

>  <Assay Category>


>  <Assay Organism>
Homo sapiens

>  <Target ID>
17045

>  <Target Name>
Cytochrome P450 3A4

>  <Target Organism>
Homo sapiens

>  <Target Description>
Target is a single protein chain

>  <Sequence Accession>
P08684

>  <Reference>
J Nat Prod 68 (1), 64-68 (2005)

>  <Pubmed ID>
15679319

>  <DOI>
10.1021/np0401765

$$$$
482191
Actelion Java MolfileCreator 1.0

 16 16  0  0  0  0  0  0  0  0999 V2000
    0.0000   -0.0000   -0.0000 O   0  0  0  0  0  0  0  0  0  0  0  0
   -0.0118    1.5071   -0.0000 C   0  0  0  0  0  0  0  0  0  0  0  0
   -1.3187    2.2724   -0.0000 C   0  0  0  0  0  0  0  0  0  0  0  0
    1.2716    2.2724   -0.0000 C   0  0  0  0  0  0  0  0  0  0  0  0
   -2.6256    1.5306   -0.0000 C   0  0  0  0  0  0  0  0  0  0  0  0
   -2.6374    0.0471   -0.0000 C   0  0  0  0  0  0  0  0  0  0  0  0
   -3.9207    2.2959   -0.0000 C   0  0  0  0  0  0  0  0  0  0  0  0
   -1.3540   -0.6947   -0.0000 O   0  0  0  0  0  0  0  0  0  0  0  0
   -3.9325   -0.6947   -0.0000 C   0  0  0  0  0  0  0  0  0  0  0  0
   -5.2276    1.5542   -0.0000 C   0  0  0  0  0  0  0  0  0  0  0  0
   -1.3658   -2.1782   -0.0000 C   0  0  0  0  0  0  0  0  0  0  0  0
   -5.2394    0.0706   -0.0000 C   0  0  0  0  0  0  0  0  0  0  0  0
   -6.5345    2.3195   -0.0000 O   0  0  0  0  0  0  0  0  0  0  0  0
   -6.5463   -0.6711   -0.0000 O   0  0  0  0  0  0  0  0  0  0  0  0
   -7.8414    1.5777   -0.0000 C   0  0  0  0  0  0  0  0  0  0  0  0
   -7.8532    0.0942   -0.0000 C   0  0  0  0  0  0  0  0  0  0  0  0
  1  2  2  0  0  0  0
  2  3  1  0  0  0  0
  2  4  1  0  0  0  0
  3  5  1  0  0  0  0
  5  6  2  0  0  0  0
  5  7  1  0  0  0  0
  6  8  1  0  0  0  0
  6  9  1  0  0  0  0
  7 10  2  0  0  0  0
  8 11  1  0  0  0  0
  9 12  2  0  0  0  0
 10 13  1  0  0  0  0
 12 14  1  0  0  0  0
 13 15  1  0  0  0  0
 14 16  1  0  0  0  0
 10 12  1  0  0  0  0
M  END
>  <MolRegNo>
482191

>  <m>
=

>  <Value>
28700

>  <Unit>
nM

>  <Type>
IC50

>  <pValue>
4.54

>  <Ligand Efficiency>
0

>  <Binding Efficiency>
0

>  <Surface Efficiency>
0

>  <Assay Index>
375002

>  <Assay Category>


>  <Assay Organism>
Homo sapiens

>  <Target ID>
17045

>  <Target Name>
Cytochrome P450 3A4

>  <Target Organism>
Homo sapiens

>  <Target Description>
Target is a single protein chain

>  <Sequence Accession>
P08684

>  <Reference>
J Nat Prod 68 (1), 64-68 (2005)

>  <Pubmed ID>
15679319

>  <DOI>
10.1021/np0401765

$$$$
482202
Actelion Java MolfileCreator 1.0

 32 35  0  0  0  0  0  0  0  0999 V2000
    0.0000   -0.0000   -0.0000 O   0  0  0  0  0  0  0  0  0  0  0  0
   -0.9088   -1.1921   -0.0000 C   0  0  0  0  0  0  0  0  0  0  0  0
    1.4164   -0.4721   -0.0000 C   0  0  0  0  0  0  0  0  0  0  0  0
   -2.4078   -1.3101   -0.0000 C   0  0  0  0  0  0  0  0  0  0  0  0
   -0.0472   -2.4078   -0.0000 C   0  0  0  0  0  0  0  0  0  0  0  0
    1.3810   -1.9593   -0.0000 O   0  0  0  0  0  0  0  0  0  0  0  0
   -3.2813   -0.0708   -0.0000 O   0  0  0  0  0  0  0  0  0  0  0  0
   -3.0570   -2.6793   -0.0000 C   0  0  0  0  0  0  0  0  0  0  0  0
   -0.6846   -3.7534   -0.0000 C   0  0  0  0  0  0  0  0  0  0  0  0
   -2.6675    1.2983   -0.0000 C   0  0  0  0  0  0  0  0  0  0  0  0
   -2.1836   -3.8950   -0.0000 C   0  0  0  0  0  0  0  0  0  0  0  0
   -3.5409    2.5377   -0.0000 C   0  0  0  0  0  0  0  0  0  0  0  0
   -2.8209   -5.2406   -0.0000 C   0  0  0  0  0  0  0  0  0  0  0  0
   -4.3199   -5.5239   -0.0000 C   0  0  0  0  0  0  0  0  0  0  0  0
   -4.9573   -6.8812   -0.0000 C   0  0  0  0  0  0  0  0  0  0  0  0
   -5.4412   -4.4970   -0.0000 C   0  0  0  0  0  0  0  0  0  0  0  0
   -6.4563   -6.6924   -0.0000 C   0  0  0  0  0  0  0  0  0  0  0  0
   -4.4498   -8.2858   -0.0000 C   0  0  0  0  0  0  0  0  0  0  0  0
   -6.7632   -5.2170   -0.0000 O   0  0  0  0  0  0  0  0  0  0  0  0
   -7.4832   -7.7901   -0.0000 O   0  0  0  0  0  0  0  0  0  0  0  0
   -2.9744   -8.5336   -0.0000 C   0  0  0  0  0  0  0  0  0  0  0  0
   -2.4668   -9.9264   -0.0000 C   0  0  0  0  0  0  0  0  0  0  0  0
   -2.0301   -7.3651   -0.0000 C   0  0  0  0  0  0  0  0  0  0  0  0
   -0.9915  -10.1743   -0.0000 C   0  0  0  0  0  0  0  0  0  0  0  0
   -0.5665   -7.6012   -0.0000 C   0  0  0  0  0  0  0  0  0  0  0  0
   -0.4839  -11.5670   -0.0000 O   0  0  0  0  0  0  0  0  0  0  0  0
   -0.0472   -9.0058   -0.0000 C   0  0  0  0  0  0  0  0  0  0  0  0
    0.3895   -6.4327   -0.0000 O   0  0  0  0  0  0  0  0  0  0  0  0
    0.9915  -11.8149   -0.0000 C   0  0  0  0  0  0  0  0  0  0  0  0
    1.4164   -9.2418   -0.0000 O   0  0  0  0  0  0  0  0  0  0  0  0
   -0.1416   -5.0163   -0.0000 C   0  0  0  0  0  0  0  0  0  0  0  0
    1.9239  -10.6464   -0.0000 C   0  0  0  0  0  0  0  0  0  0  0  0
  1  2  1  0  0  0  0
  1  3  1  0  0  0  0
  2  4  2  0  0  0  0
  2  5  1  0  0  0  0
  3  6  1  0  0  0  0
  4  7  1  0  0  0  0
  4  8  1  0  0  0  0
  5  9  2  0  0  0  0
  7 10  1  0  0  0  0
  8 11  2  0  0  0  0
 10 12  1  0  0  0  0
 11 13  1  0  0  0  0
 14 13  1  1  0  0  0
 14 15  1  0  0  0  0
 14 16  1  0  0  0  0
 15 17  1  0  0  0  0
 15 18  1  6  0  0  0
 16 19  1  0  0  0  0
 17 20  1  0  0  0  0
 18 21  1  0  0  0  0
 21 22  2  0  0  0  0
 21 23  1  0  0  0  0
 22 24  1  0  0  0  0
 23 25  2  0  0  0  0
 24 26  1  0  0  0  0
 24 27  2  0  0  0  0
 25 28  1  0  0  0  0
 26 29  1  0  0  0  0
 27 30  1  0  0  0  0
 28 31  1  0  0  0  0
 30 32  1  0  0  0  0
  5  6  1  0  0  0  0
  9 11  1  0  0  0  0
 17 19  1  0  0  0  0
 25 27  1  0  0  0  0
M  END
>  <MolRegNo>
482202

>  <m>
=

>  <Value>
440

>  <Unit>
nM

>  <Type>
IC50

>  <pValue>
6.36

>  <Ligand Efficiency>
0

>  <Binding Efficiency>
0

>  <Surface Efficiency>
0

>  <Assay Index>
375002

>  <Assay Category>


>  <Assay Organism>
Homo sapiens

>  <Target ID>
17045

>  <Target Name>
Cytochrome P450 3A4

>  <Target Organism>
Homo sapiens

>  <Target Description>
Target is a single protein chain

>  <Sequence Accession>
P08684

>  <Reference>
J Nat Prod 68 (1), 64-68 (2005)

>  <Pubmed ID>
15679319

>  <DOI>
10.1021/np0401765

$$$$
482203
Actelion Java MolfileCreator 1.0

 32 34  0  0  0  0  0  0  0  0999 V2000
    0.0000   -0.0000   -0.0000 O   0  0  0  0  0  0  0  0  0  0  0  0
   -0.9310    1.2056   -0.0000 C   0  0  0  0  0  0  0  0  0  0  0  0
   -0.8714   -1.2175   -0.0000 C   0  0  0  0  0  0  0  0  0  0  0  0
   -0.5133    2.6499   -0.0000 O   0  0  0  0  0  0  0  0  0  0  0  0
   -2.3395    0.7162   -0.0000 C   0  0  0  0  0  0  0  0  0  0  0  0
   -2.3157   -0.7878   -0.0000 C   0  0  0  0  0  0  0  0  0  0  0  0
   -3.4496    1.7666   -0.0000 C   0  0  0  0  0  0  0  0  0  0  0  0
   -3.5332   -1.6830   -0.0000 C   0  0  0  0  0  0  0  0  0  0  0  0
   -4.9059    1.3488   -0.0000 C   0  0  0  0  0  0  0  0  0  0  0  0
   -3.5213   -3.1632   -0.0000 C   0  0  0  0  0  0  0  0  0  0  0  0
   -6.0040    2.3992   -0.0000 C   0  0  0  0  0  0  0  0  0  0  0  0
   -5.2640   -0.0955   -0.0000 C   0  0  0  0  0  0  0  0  0  0  0  0
   -4.7985   -3.9271   -0.0000 C   0  0  0  0  0  0  0  0  0  0  0  0
   -2.2082   -3.8674   -0.0000 C   0  0  0  0  0  0  0  0  0  0  0  0
   -7.4484    1.9815   -0.0000 C   0  0  0  0  0  0  0  0  0  0  0  0
   -6.7083   -0.5013   -0.0000 C   0  0  0  0  0  0  0  0  0  0  0  0
   -4.7746   -5.4072   -0.0000 C   0  0  0  0  0  0  0  0  0  0  0  0
   -2.1844   -5.3714   -0.0000 C   0  0  0  0  0  0  0  0  0  0  0  0
   -8.7375    2.7812   -0.0000 O   0  0  0  0  0  0  0  0  0  0  0  0
   -7.8064    0.5371   -0.0000 C   0  0  0  0  0  0  0  0  0  0  0  0
   -7.0783   -1.9456   -0.0000 O   0  0  0  0  0  0  0  0  0  0  0  0
   -5.8727   -6.4218   -0.0000 O   0  0  0  0  0  0  0  0  0  0  0  0
   -3.4616   -6.1115   -0.0000 C   0  0  0  0  0  0  0  0  0  0  0  0
   -0.8952   -6.0757   -0.0000 O   0  0  0  0  0  0  0  0  0  0  0  0
   -8.7136    4.2971   -0.0000 C   0  0  0  0  0  0  0  0  0  0  0  0
   -9.3104    0.4297   -0.0000 O   0  0  0  0  0  0  0  0  0  0  0  0
   -8.5346   -2.3515   -0.0000 C   0  0  0  0  0  0  0  0  0  0  0  0
   -7.3170   -5.9802   -0.0000 C   0  0  0  0  0  0  0  0  0  0  0  0
   -3.4377   -7.6035   -0.0000 O   0  0  0  0  0  0  0  0  0  0  0  0
   -0.8714   -7.5558   -0.0000 C   0  0  0  0  0  0  0  0  0  0  0  0
   -9.9669   -0.9191   -0.0000 C   0  0  0  0  0  0  0  0  0  0  0  0
   -4.7388   -8.3675   -0.0000 C   0  0  0  0  0  0  0  0  0  0  0  0
  1  2  1  0  0  0  0
  1  3  1  0  0  0  0
  2  4  1  0  0  0  0
  2  5  1  0  0  0  0
  3  6  1  0  0  0  0
  5  7  1  6  0  0  0
  6  8  1  1  0  0  0
  7  9  1  0  0  0  0
  8 10  1  0  0  0  0
  9 11  2  0  0  0  0
  9 12  1  0  0  0  0
 10 13  2  0  0  0  0
 10 14  1  0  0  0  0
 11 15  1  0  0  0  0
 12 16  2  0  0  0  0
 13 17  1  0  0  0  0
 14 18  2  0  0  0  0
 15 19  1  0  0  0  0
 15 20  2  0  0  0  0
 16 21  1  0  0  0  0
 17 22  1  0  0  0  0
 17 23  2  0  0  0  0
 18 24  1  0  0  0  0
 19 25  1  0  0  0  0
 20 26  1  0  0  0  0
 21 27  1  0  0  0  0
 22 28  1  0  0  0  0
 23 29  1  0  0  0  0
 24 30  1  0  0  0  0
 26 31  1  0  0  0  0
 29 32  1  0  0  0  0
  5  6  1  0  0  0  0
 16 20  1  0  0  0  0
 18 23  1  0  0  0  0
M  END
>  <MolRegNo>
482203

>  <m>
=

>  <Value>
15000

>  <Unit>
nM

>  <Type>
IC50

>  <pValue>
4.82

>  <Ligand Efficiency>
0

>  <Binding Efficiency>
0

>  <Surface Efficiency>
0

>  <Assay Index>
375002

>  <Assay Category>


>  <Assay Organism>
Homo sapiens

>  <Target ID>
17045

>  <Target Name>
Cytochrome P450 3A4

>  <Target Organism>
Homo sapiens

>  <Target Description>
Target is a single protein chain

>  <Sequence Accession>
P08684

>  <Reference>
J Nat Prod 68 (1), 64-68 (2005)

>  <Pubmed ID>
15679319

>  <DOI>
10.1021/np0401765

$$$$
482204
Actelion Java MolfileCreator 1.0

 29 31  0  0  0  0  0  0  0  0999 V2000
    0.0000   -0.0000   -0.0000 O   0  0  0  0  0  0  0  0  0  0  0  0
    1.2769   -0.7710   -0.0000 C   0  0  0  0  0  0  0  0  0  0  0  0
   -1.1564   -0.9637   -0.0000 C   0  0  0  0  0  0  0  0  0  0  0  0
    0.9155   -2.2286   -0.0000 C   0  0  0  0  0  0  0  0  0  0  0  0
    2.7104   -0.3252   -0.0000 C   0  0  0  0  0  0  0  0  0  0  0  0
   -0.5903   -2.3490   -0.0000 O   0  0  0  0  0  0  0  0  0  0  0  0
    1.9997   -3.2645   -0.0000 C   0  0  0  0  0  0  0  0  0  0  0  0
    3.7946   -1.3612   -0.0000 C   0  0  0  0  0  0  0  0  0  0  0  0
    3.4211   -2.8188   -0.0000 C   0  0  0  0  0  0  0  0  0  0  0  0
    5.2281   -0.9276   -0.0000 C   0  0  0  0  0  0  0  0  0  0  0  0
    6.3122   -1.9635   -0.0000 C   0  0  0  0  0  0  0  0  0  0  0  0
    6.3363   -3.4573   -0.0000 C   0  0  0  0  0  0  0  0  0  0  0  0
    7.7096   -1.4576   -0.0000 C   0  0  0  0  0  0  0  0  0  0  0  0
    7.7578   -3.8669   -0.0000 C   0  0  0  0  0  0  0  0  0  0  0  0
    5.1076   -4.3728   -0.0000 C   0  0  0  0  0  0  0  0  0  0  0  0
    8.1312   -0.0000   -0.0000 O   0  0  0  0  0  0  0  0  0  0  0  0
    8.6010   -2.6261   -0.0000 O   0  0  0  0  0  0  0  0  0  0  0  0
    5.1197   -5.8545   -0.0000 C   0  0  0  0  0  0  0  0  0  0  0  0
    3.8428   -6.6255   -0.0000 C   0  0  0  0  0  0  0  0  0  0  0  0
    6.4448   -6.5532   -0.0000 C   0  0  0  0  0  0  0  0  0  0  0  0
    3.8669   -8.1192   -0.0000 C   0  0  0  0  0  0  0  0  0  0  0  0
    6.4689   -8.0710   -0.0000 C   0  0  0  0  0  0  0  0  0  0  0  0
    2.5659   -8.8902   -0.0000 O   0  0  0  0  0  0  0  0  0  0  0  0
    5.1799   -8.8299   -0.0000 C   0  0  0  0  0  0  0  0  0  0  0  0
    7.7819   -8.7817   -0.0000 O   0  0  0  0  0  0  0  0  0  0  0  0
    1.2287   -8.1553   -0.0000 C   0  0  0  0  0  0  0  0  0  0  0  0
    5.2040  -10.3237   -0.0000 O   0  0  0  0  0  0  0  0  0  0  0  0
    9.0468   -7.9867   -0.0000 C   0  0  0  0  0  0  0  0  0  0  0  0
    3.9150  -11.0946   -0.0000 C   0  0  0  0  0  0  0  0  0  0  0  0
  1  2  1  0  0  0  0
  1  3  1  0  0  0  0
  2  4  2  0  0  0  0
  2  5  1  0  0  0  0
  3  6  1  0  0  0  0
  4  7  1  0  0  0  0
  5  8  2  0  0  0  0
  7  9  2  0  0  0  0
  8 10  1  0  0  0  0
 11 10  1  1  0  0  0
 11 12  1  0  0  0  0
 11 13  1  0  0  0  0
 12 14  1  6  0  0  0
 12 15  1  0  0  0  0
 13 16  1  0  0  0  0
 14 17  1  0  0  0  0
 15 18  1  0  0  0  0
 18 19  2  0  0  0  0
 18 20  1  0  0  0  0
 19 21  1  0  0  0  0
 20 22  2  0  0  0  0
 21 23  1  0  0  0  0
 21 24  2  0  0  0  0
 22 25  1  0  0  0  0
 23 26  1  0  0  0  0
 24 27  1  0  0  0  0
 25 28  1  0  0  0  0
 27 29  1  0  0  0  0
  4  6  1  0  0  0  0
  8  9  1  0  0  0  0
 22 24  1  0  0  0  0
M  END
>  <MolRegNo>
482204

>  <m>
=

>  <Value>
800

>  <Unit>
nM

>  <Type>
IC50

>  <pValue>
6.1

>  <Ligand Efficiency>
0

>  <Binding Efficiency>
0

>  <Surface Efficiency>
0

>  <Assay Index>
375002

>  <Assay Category>


>  <Assay Organism>
Homo sapiens

>  <Target ID>
17045

>  <Target Name>
Cytochrome P450 3A4

>  <Target Organism>
Homo sapiens

>  <Target Description>
Target is a single protein chain

>  <Sequence Accession>
P08684

>  <Reference>
J Nat Prod 68 (1), 64-68 (2005)

>  <Pubmed ID>
15679319

>  <DOI>
10.1021/np0401765

$$$$
482205
Actelion Java MolfileCreator 1.0

 17 17  0  0  0  0  0  0  0  0999 V2000
    0.0000   -0.0000   -0.0000 O   0  0  0  0  0  0  0  0  0  0  0  0
   -0.0119   -1.4955   -0.0000 C   0  0  0  0  0  0  0  0  0  0  0  0
    1.2819   -2.2314   -0.0000 C   0  0  0  0  0  0  0  0  0  0  0  0
   -1.3293   -2.2433   -0.0000 C   0  0  0  0  0  0  0  0  0  0  0  0
    2.5756   -1.4599   -0.0000 C   0  0  0  0  0  0  0  0  0  0  0  0
    1.2700   -3.7269   -0.0000 C   0  0  0  0  0  0  0  0  0  0  0  0
   -2.6468   -1.4836   -0.0000 O   0  0  0  0  0  0  0  0  0  0  0  0
   -1.3412   -3.7388   -0.0000 C   0  0  0  0  0  0  0  0  0  0  0  0
    2.5637    0.0593   -0.0000 O   0  0  0  0  0  0  0  0  0  0  0  0
    3.8694   -2.1958   -0.0000 C   0  0  0  0  0  0  0  0  0  0  0  0
    2.5637   -4.4628   -0.0000 C   0  0  0  0  0  0  0  0  0  0  0  0
    3.8575    0.8308   -0.0000 C   0  0  0  0  0  0  0  0  0  0  0  0
    3.8575   -3.6913   -0.0000 C   0  0  0  0  0  0  0  0  0  0  0  0
    2.5519   -5.9583   -0.0000 O   0  0  0  0  0  0  0  0  0  0  0  0
    5.1512   -4.4272   -0.0000 O   0  0  0  0  0  0  0  0  0  0  0  0
    3.8456   -6.6942   -0.0000 C   0  0  0  0  0  0  0  0  0  0  0  0
    6.4450   -3.6557   -0.0000 C   0  0  0  0  0  0  0  0  0  0  0  0
  1  2  2  0  0  0  0
  2  3  1  0  0  0  0
  2  4  1  0  0  0  0
  3  5  2  0  0  0  0
  3  6  1  0  0  0  0
  4  7  2  0  0  0  0
  4  8  1  0  0  0  0
  5  9  1  0  0  0  0
  5 10  1  0  0  0  0
  6 11  2  0  0  0  0
  9 12  1  0  0  0  0
 10 13  2  0  0  0  0
 11 14  1  0  0  0  0
 13 15  1  0  0  0  0
 14 16  1  0  0  0  0
 15 17  1  0  0  0  0
 11 13  1  0  0  0  0
M  END
>  <MolRegNo>
482205

>  <m>
=

>  <Value>
74000

>  <Unit>
nM

>  <Type>
IC50

>  <pValue>
4.13

>  <Ligand Efficiency>
0

>  <Binding Efficiency>
0

>  <Surface Efficiency>
0

>  <Assay Index>
375002

>  <Assay Category>


>  <Assay Organism>
Homo sapiens

>  <Target ID>
17045

>  <Target Name>
Cytochrome P450 3A4

>  <Target Organism>
Homo sapiens

>  <Target Description>
Target is a single protein chain

>  <Sequence Accession>
P08684

>  <Reference>
J Nat Prod 68 (1), 64-68 (2005)

>  <Pubmed ID>
15679319

>  <DOI>
10.1021/np0401765

$$$$
482206
Actelion Java MolfileCreator 1.0

 28 30  0  0  0  0  0  0  0  0999 V2000
    0.0000   -0.0000   -0.0000 O   0  0  0  0  0  0  0  0  0  0  0  0
    0.2482   -1.4653   -0.0000 C   0  0  0  0  0  0  0  0  0  0  0  0
   -0.8154   -2.5289   -0.0000 O   0  0  0  0  0  0  0  0  0  0  0  0
    1.5717   -2.1153   -0.0000 C   0  0  0  0  0  0  0  0  0  0  0  0
   -0.1300   -3.8524   -0.0000 C   0  0  0  0  0  0  0  0  0  0  0  0
    1.3472   -3.5924   -0.0000 C   0  0  0  0  0  0  0  0  0  0  0  0
    2.8952   -1.4063   -0.0000 C   0  0  0  0  0  0  0  0  0  0  0  0
    2.4107   -4.6324   -0.0000 C   0  0  0  0  0  0  0  0  0  0  0  0
    2.9425    0.1064   -0.0000 C   0  0  0  0  0  0  0  0  0  0  0  0
    2.0326   -6.0741   -0.0000 C   0  0  0  0  0  0  0  0  0  0  0  0
    4.2660    0.8154   -0.0000 C   0  0  0  0  0  0  0  0  0  0  0  0
    1.6781    0.9217   -0.0000 C   0  0  0  0  0  0  0  0  0  0  0  0
    0.5672   -6.4522   -0.0000 C   0  0  0  0  0  0  0  0  0  0  0  0
    3.0961   -7.1022   -0.0000 C   0  0  0  0  0  0  0  0  0  0  0  0
    4.3133    2.3280   -0.0000 C   0  0  0  0  0  0  0  0  0  0  0  0
    1.7253    2.4344   -0.0000 C   0  0  0  0  0  0  0  0  0  0  0  0
    0.1891   -7.8939   -0.0000 C   0  0  0  0  0  0  0  0  0  0  0  0
    2.7062   -8.5439   -0.0000 C   0  0  0  0  0  0  0  0  0  0  0  0
    5.6368    3.0370   -0.0000 O   0  0  0  0  0  0  0  0  0  0  0  0
    3.0370    3.1434   -0.0000 C   0  0  0  0  0  0  0  0  0  0  0  0
    0.4372    3.2379   -0.0000 O   0  0  0  0  0  0  0  0  0  0  0  0
   -1.2644   -8.2957   -0.0000 O   0  0  0  0  0  0  0  0  0  0  0  0
    1.2408   -8.9339   -0.0000 C   0  0  0  0  0  0  0  0  0  0  0  0
    6.8895    2.2453   -0.0000 C   0  0  0  0  0  0  0  0  0  0  0  0
    3.0843    4.6560   -0.0000 O   0  0  0  0  0  0  0  0  0  0  0  0
    0.4845    4.7505   -0.0000 C   0  0  0  0  0  0  0  0  0  0  0  0
   -2.3516   -7.2322   -0.0000 C   0  0  0  0  0  0  0  0  0  0  0  0
    0.8627  -10.3756   -0.0000 O   0  0  0  0  0  0  0  0  0  0  0  0
  1  2  2  0  0  0  0
  2  3  1  0  0  0  0
  2  4  1  0  0  0  0
  3  5  1  0  0  0  0
  4  6  1  0  0  0  0
  4  7  1  1  0  0  0
  6  8  1  6  0  0  0
  7  9  1  0  0  0  0
  8 10  1  0  0  0  0
  9 11  2  0  0  0  0
  9 12  1  0  0  0  0
 10 13  2  0  0  0  0
 10 14  1  0  0  0  0
 11 15  1  0  0  0  0
 12 16  2  0  0  0  0
 13 17  1  0  0  0  0
 14 18  2  0  0  0  0
 15 19  1  0  0  0  0
 15 20  2  0  0  0  0
 16 21  1  0  0  0  0
 17 22  1  0  0  0  0
 17 23  2  0  0  0  0
 19 24  1  0  0  0  0
 20 25  1  0  0  0  0
 21 26  1  0  0  0  0
 22 27  1  0  0  0  0
 23 28  1  0  0  0  0
  5  6  1  0  0  0  0
 16 20  1  0  0  0  0
 18 23  1  0  0  0  0
M  END
>  <MolRegNo>
482206

>  <m>
=

>  <Value>
1100

>  <Unit>
nM

>  <Type>
IC50

>  <pValue>
5.96

>  <Ligand Efficiency>
0

>  <Binding Efficiency>
0

>  <Surface Efficiency>
0

>  <Assay Index>
375002

>  <Assay Category>


>  <Assay Organism>
Homo sapiens

>  <Target ID>
17045

>  <Target Name>
Cytochrome P450 3A4

>  <Target Organism>
Homo sapiens

>  <Target Description>
Target is a single protein chain

>  <Sequence Accession>
P08684

>  <Reference>
J Nat Prod 68 (1), 64-68 (2005)

>  <Pubmed ID>
15679319

>  <DOI>
10.1021/np0401765

$$$$
482223
Actelion Java MolfileCreator 1.0

 28 31  0  0  0  0  0  0  0  0999 V2000
    0.0000   -0.0000   -0.0000 O   0  0  0  0  0  0  0  0  0  0  0  0
    0.8985    1.2095   -0.0000 C   0  0  0  0  0  0  0  0  0  0  0  0
    0.8409   -1.2210   -0.0000 C   0  0  0  0  0  0  0  0  0  0  0  0
    0.4493    2.6610   -0.0000 C   0  0  0  0  0  0  0  0  0  0  0  0
    2.3039    0.7257   -0.0000 C   0  0  0  0  0  0  0  0  0  0  0  0
    2.2693   -0.7718   -0.0000 C   0  0  0  0  0  0  0  0  0  0  0  0
    1.4745    3.7668   -0.0000 C   0  0  0  0  0  0  0  0  0  0  0  0
   -1.0137    3.0065   -0.0000 C   0  0  0  0  0  0  0  0  0  0  0  0
    3.7323    1.1635   -0.0000 C   0  0  0  0  0  0  0  0  0  0  0  0
    3.6747   -1.2671   -0.0000 C   0  0  0  0  0  0  0  0  0  0  0  0
    1.0367    5.2183   -0.0000 C   0  0  0  0  0  0  0  0  0  0  0  0
   -1.4514    4.4580   -0.0000 C   0  0  0  0  0  0  0  0  0  0  0  0
    4.5732   -0.0576   -0.0000 O   0  0  0  0  0  0  0  0  0  0  0  0
    4.0894   -2.6955   -0.0000 C   0  0  0  0  0  0  0  0  0  0  0  0
    2.0620    6.3126   -0.0000 O   0  0  0  0  0  0  0  0  0  0  0  0
   -0.4377    5.5754   -0.0000 C   0  0  0  0  0  0  0  0  0  0  0  0
   -2.9259    4.8151   -0.0000 O   0  0  0  0  0  0  0  0  0  0  0  0
    3.0411   -3.7668   -0.0000 C   0  0  0  0  0  0  0  0  0  0  0  0
    5.5293   -3.0296   -0.0000 C   0  0  0  0  0  0  0  0  0  0  0  0
    3.5019    5.9785   -0.0000 C   0  0  0  0  0  0  0  0  0  0  0  0
   -0.8755    7.0268   -0.0000 O   0  0  0  0  0  0  0  0  0  0  0  0
   -3.3752    6.2665   -0.0000 C   0  0  0  0  0  0  0  0  0  0  0  0
    3.4558   -5.1952   -0.0000 C   0  0  0  0  0  0  0  0  0  0  0  0
    5.9440   -4.4580   -0.0000 C   0  0  0  0  0  0  0  0  0  0  0  0
    2.4191   -6.2780   -0.0000 O   0  0  0  0  0  0  0  0  0  0  0  0
    4.9072   -5.5408   -0.0000 C   0  0  0  0  0  0  0  0  0  0  0  0
    0.9446   -5.9209   -0.0000 C   0  0  0  0  0  0  0  0  0  0  0  0
    5.3335   -6.9692   -0.0000 O   0  0  0  0  0  0  0  0  0  0  0  0
  1  2  1  0  0  0  0
  1  3  1  0  0  0  0
  2  4  1  0  0  0  0
  2  5  1  0  0  0  0
  6  3  1  1  0  0  0
  4  7  2  0  0  0  0
  4  8  1  0  0  0  0
  5  9  1  1  0  0  0
  6 10  1  0  0  0  0
  7 11  1  0  0  0  0
  8 12  2  0  0  0  0
  9 13  1  0  0  0  0
 10 14  1  6  0  0  0
 11 15  1  0  0  0  0
 11 16  2  0  0  0  0
 12 17  1  0  0  0  0
 14 18  2  0  0  0  0
 14 19  1  0  0  0  0
 15 20  1  0  0  0  0
 16 21  1  0  0  0  0
 17 22  1  0  0  0  0
 18 23  1  0  0  0  0
 19 24  2  0  0  0  0
 23 25  1  0  0  0  0
 23 26  2  0  0  0  0
 25 27  1  0  0  0  0
 26 28  1  0  0  0  0
  5  6  1  0  0  0  0
 10 13  1  0  0  0  0
 12 16  1  0  0  0  0
 24 26  1  0  0  0  0
M  END
>  <MolRegNo>
482223

>  <m>
=

>  <Value>
13700

>  <Unit>
nM

>  <Type>
IC50

>  <pValue>
4.86

>  <Ligand Efficiency>
0

>  <Binding Efficiency>
0

>  <Surface Efficiency>
0

>  <Assay Index>
375002

>  <Assay Category>


>  <Assay Organism>
Homo sapiens

>  <Target ID>
17045

>  <Target Name>
Cytochrome P450 3A4

>  <Target Organism>
Homo sapiens

>  <Target Description>
Target is a single protein chain

>  <Sequence Accession>
P08684

>  <Reference>
J Nat Prod 68 (1), 64-68 (2005)

>  <Pubmed ID>
15679319

>  <DOI>
10.1021/np0401765

$$$$
481370
Actelion Java MolfileCreator 1.0

 24 29  0  0  0  0  0  0  0  0999 V2000
    0.0000   -0.0000   -0.0000 O   0  0  0  0  0  0  0  0  0  0  0  0
    1.3487    0.4538   -0.0000 C   0  0  0  0  0  0  0  0  0  0  0  0
   -0.8571    1.1723   -0.0000 C   0  0  0  0  0  0  0  0  0  0  0  0
    1.3361    1.9034   -0.0000 C   0  0  0  0  0  0  0  0  0  0  0  0
    2.5714   -0.2521   -0.0000 C   0  0  0  0  0  0  0  0  0  0  0  0
   -0.0252    2.3446   -0.0000 O   0  0  0  0  0  0  0  0  0  0  0  0
    2.5588    2.6345   -0.0000 C   0  0  0  0  0  0  0  0  0  0  0  0
    3.8067    0.4664   -0.0000 C   0  0  0  0  0  0  0  0  0  0  0  0
    3.7815    1.9412   -0.0000 C   0  0  0  0  0  0  0  0  0  0  0  0
    4.8278   -0.5420   -0.0000 C   0  0  0  0  0  0  0  0  0  0  0  0
    4.7899    2.9874   -0.0000 C   0  0  0  0  0  0  0  0  0  0  0  0
    5.5210    1.0714   -0.0000 N   0  0  0  0  0  0  0  0  0  0  0  0
    6.2647   -0.5168   -0.0000 C   0  0  0  0  0  0  0  0  0  0  0  0
    6.2269    3.0126   -0.0000 C   0  0  0  0  0  0  0  0  0  0  0  0
    7.1093   -0.5042   -0.0000 C   0  0  0  0  0  0  0  0  0  0  0  0
    7.2732    0.5294   -0.0000 C   0  0  0  0  0  0  0  0  0  0  0  0
    7.2353    2.0042   -0.0000 C   0  0  0  0  0  0  0  0  0  0  0  0
    8.5211   -0.1639   -0.0000 C   0  0  0  0  0  0  0  0  0  0  0  0
    8.4580    2.7479   -0.0000 C   0  0  0  0  0  0  0  0  0  0  0  0
    9.7564    0.5924   -0.0000 C   0  0  0  0  0  0  0  0  0  0  0  0
    9.7059    2.0546   -0.0000 C   0  0  0  0  0  0  0  0  0  0  0  0
   11.1303    0.1765   -0.0000 O   0  0  0  0  0  0  0  0  0  0  0  0
   11.0673    2.5336   -0.0000 O   0  0  0  0  0  0  0  0  0  0  0  0
   11.9497    1.3740   -0.0000 C   0  0  0  0  0  0  0  0  0  0  0  0
  1  2  1  0  0  0  0
  1  3  1  0  0  0  0
  2  4  2  0  0  0  0
  2  5  1  0  0  0  0
  3  6  1  0  0  0  0
  4  7  1  0  0  0  0
  5  8  2  0  0  0  0
  7  9  2  0  0  0  0
  8 10  1  0  0  0  0
  9 11  1  0  0  0  0
 10 12  1  6  0  0  0
 10 13  1  0  0  0  0
 11 14  1  0  0  0  0
 12 15  1  0  0  0  0
 13 16  1  0  0  0  0
 14 17  1  0  0  0  0
 16 18  1  0  0  0  0
 17 19  1  0  0  0  0
 18 20  2  0  0  0  0
 19 21  2  0  0  0  0
 20 22  1  0  0  0  0
 21 23  1  0  0  0  0
 22 24  1  0  0  0  0
  4  6  1  0  0  0  0
  8  9  1  0  0  0  0
 14 12  1  6  0  0  0
 16 17  2  0  0  0  0
 20 21  1  0  0  0  0
 23 24  1  0  0  0  0
M  END
>  <MolRegNo>
481370

>  <m>
=

>  <Value>
13400

>  <Unit>
nM

>  <Type>
IC50

>  <pValue>
4.87

>  <Ligand Efficiency>
0

>  <Binding Efficiency>
0

>  <Surface Efficiency>
0

>  <Assay Index>
377380

>  <Assay Category>


>  <Assay Organism>


>  <Target ID>
17045

>  <Target Name>
Cytochrome P450 3A4

>  <Target Organism>
Homo sapiens

>  <Target Description>
Target is a single protein chain

>  <Sequence Accession>
P08684

>  <Reference>
J Nat Prod 69 (3), 432-435 (2006)

>  <Pubmed ID>
16562853

>  <DOI>
10.1021/np058114h

$$$$
490632
Actelion Java MolfileCreator 1.0

 29 32  0  0  0  0  0  0  0  0999 V2000
    0.0000   -0.0000   -0.0000 S   0  0  0  0  0  0  0  0  0  0  0  0
    0.7382    1.3097   -0.0000 O   0  0  0  0  0  0  0  0  0  0  0  0
   -0.7501   -1.2978   -0.0000 O   0  0  0  0  0  0  0  0  0  0  0  0
    1.2740   -0.7382   -0.0000 N   0  0  0  0  0  0  0  0  0  0  0  0
   -1.3097    0.7620   -0.0000 C   0  0  0  0  0  0  0  0  0  0  0  0
   -1.3216    2.2860   -0.0000 C   0  0  0  0  0  0  0  0  0  0  0  0
   -2.6313    0.0238   -0.0000 C   0  0  0  0  0  0  0  0  0  0  0  0
   -2.6432    3.0361   -0.0000 C   0  0  0  0  0  0  0  0  0  0  0  0
   -3.9410    0.7858   -0.0000 C   0  0  0  0  0  0  0  0  0  0  0  0
   -2.6670    4.5482   -0.0000 N   0  0  0  0  0  0  0  0  0  0  0  0
   -3.9410    2.2979   -0.0000 C   0  0  0  0  0  0  0  0  0  0  0  0
   -1.3811    5.3221   -0.0000 C   0  0  0  0  0  0  0  0  0  0  0  0
   -0.0952    4.5839   -0.0000 N   0  0  0  0  0  0  0  0  0  0  0  0
   -1.4049    6.8223   -0.0000 N   0  0  0  0  0  0  0  0  0  0  0  0
    1.1906    5.3459   -0.0000 C   0  0  0  0  0  0  0  0  0  0  0  0
   -0.1310    7.5962   -0.0000 C   0  0  0  0  0  0  0  0  0  0  0  0
    2.4765    4.6077   -0.0000 N   0  0  0  0  0  0  0  0  0  0  0  0
    1.1668    6.8580   -0.0000 C   0  0  0  0  0  0  0  0  0  0  0  0
    3.7624    5.3697   -0.0000 C   0  0  0  0  0  0  0  0  0  0  0  0
    2.4765    3.1194   -0.0000 C   0  0  0  0  0  0  0  0  0  0  0  0
    5.0482    4.6315   -0.0000 C   0  0  0  0  0  0  0  0  0  0  0  0
    3.7386    6.8699   -0.0000 C   0  0  0  0  0  0  0  0  0  0  0  0
    6.3341    5.4054   -0.0000 C   0  0  0  0  0  0  0  0  0  0  0  0
    5.0125    7.6438   -0.0000 C   0  0  0  0  0  0  0  0  0  0  0  0
    7.7510    4.9530   -0.0000 N   0  0  0  0  0  0  0  0  0  0  0  0
    6.3222    6.9175   -0.0000 C   0  0  0  0  0  0  0  0  0  0  0  0
    8.6201    6.1793   -0.0000 N   0  0  0  0  0  0  0  0  0  0  0  0
    7.7391    7.3938   -0.0000 C   0  0  0  0  0  0  0  0  0  0  0  0
    8.1915    8.8344   -0.0000 C   0  0  0  0  0  0  0  0  0  0  0  0
  1  2  2  0  0  0  0
  1  3  2  0  0  0  0
  1  4  1  0  0  0  0
  1  5  1  0  0  0  0
  5  6  2  0  0  0  0
  5  7  1  0  0  0  0
  6  8  1  0  0  0  0
  7  9  2  0  0  0  0
  8 10  1  0  0  0  0
  8 11  2  0  0  0  0
 10 12  1  0  0  0  0
 12 13  2  0  0  0  0
 12 14  1  0  0  0  0
 13 15  1  0  0  0  0
 14 16  2  0  0  0  0
 15 17  1  0  0  0  0
 15 18  2  0  0  0  0
 17 19  1  0  0  0  0
 17 20  1  0  0  0  0
 19 21  2  0  0  0  0
 19 22  1  0  0  0  0
 21 23  1  0  0  0  0
 22 24  2  0  0  0  0
 23 25  1  0  0  0  0
 23 26  2  0  0  0  0
 25 27  1  0  0  0  0
 26 28  1  0  0  0  0
 28 29  1  0  0  0  0
  9 11  1  0  0  0  0
 16 18  1  0  0  0  0
 24 26  1  0  0  0  0
 27 28  2  0  0  0  0
M  END
>  <MolRegNo>
490632

>  <m>
=

>  <Value>
7600

>  <Unit>
nM

>  <Type>
IC50

>  <pValue>
5.12

>  <Ligand Efficiency>
0

>  <Binding Efficiency>
0

>  <Surface Efficiency>
0

>  <Assay Index>
338814

>  <Assay Category>


>  <Assay Organism>
Homo sapiens

>  <Target ID>
17045

>  <Target Name>
Cytochrome P450 3A4

>  <Target Organism>
Homo sapiens

>  <Target Description>
Target is a single protein chain

>  <Sequence Accession>
P08684

>  <Reference>
J Med Chem 51 (15), 4632-4640 (2008)

>  <Pubmed ID>
18620382

>  <DOI>
10.1021/jm800566m

$$$$
489524
Actelion Java MolfileCreator 1.0

 30 33  0  0  0  0  0  0  0  0999 V2000
    0.0000   -0.0000   -0.0000 S   0  0  0  0  0  0  0  0  0  0  0  0
    0.7384    1.3100   -0.0000 O   0  0  0  0  0  0  0  0  0  0  0  0
   -0.7503   -1.2981   -0.0000 O   0  0  0  0  0  0  0  0  0  0  0  0
    1.2743   -0.7384   -0.0000 N   0  0  0  0  0  0  0  0  0  0  0  0
   -1.3100    0.7622   -0.0000 C   0  0  0  0  0  0  0  0  0  0  0  0
   -1.3219    2.2865   -0.0000 C   0  0  0  0  0  0  0  0  0  0  0  0
   -2.6319    0.0238   -0.0000 C   0  0  0  0  0  0  0  0  0  0  0  0
   -2.6438    3.0368   -0.0000 C   0  0  0  0  0  0  0  0  0  0  0  0
   -3.9419    0.7860   -0.0000 C   0  0  0  0  0  0  0  0  0  0  0  0
   -2.6676    4.5493   -0.0000 N   0  0  0  0  0  0  0  0  0  0  0  0
   -3.9419    2.2984   -0.0000 C   0  0  0  0  0  0  0  0  0  0  0  0
   -1.3814    5.3233   -0.0000 C   0  0  0  0  0  0  0  0  0  0  0  0
   -0.0953    4.5850   -0.0000 N   0  0  0  0  0  0  0  0  0  0  0  0
   -1.4053    6.8239   -0.0000 N   0  0  0  0  0  0  0  0  0  0  0  0
    1.1909    5.3472   -0.0000 C   0  0  0  0  0  0  0  0  0  0  0  0
   -0.1310    7.5980   -0.0000 C   0  0  0  0  0  0  0  0  0  0  0  0
    2.4771    4.6088   -0.0000 N   0  0  0  0  0  0  0  0  0  0  0  0
    1.1671    6.8596   -0.0000 C   0  0  0  0  0  0  0  0  0  0  0  0
    3.7633    5.3710   -0.0000 C   0  0  0  0  0  0  0  0  0  0  0  0
    2.4771    3.1202   -0.0000 C   0  0  0  0  0  0  0  0  0  0  0  0
    5.0494    4.6326   -0.0000 C   0  0  0  0  0  0  0  0  0  0  0  0
    3.7394    6.8715   -0.0000 C   0  0  0  0  0  0  0  0  0  0  0  0
    6.3356    5.4067   -0.0000 C   0  0  0  0  0  0  0  0  0  0  0  0
    5.0137    7.6456   -0.0000 C   0  0  0  0  0  0  0  0  0  0  0  0
    7.7528    4.9542   -0.0000 N   0  0  0  0  0  0  0  0  0  0  0  0
    6.3237    6.9192   -0.0000 C   0  0  0  0  0  0  0  0  0  0  0  0
    8.6221    6.1808   -0.0000 C   0  0  0  0  0  0  0  0  0  0  0  0
    7.7409    7.3955   -0.0000 N   0  0  0  0  0  0  0  0  0  0  0  0
   10.1108    6.1927   -0.0000 C   0  0  0  0  0  0  0  0  0  0  0  0
    8.1934    8.8365   -0.0000 C   0  0  0  0  0  0  0  0  0  0  0  0
  1  2  2  0  0  0  0
  1  3  2  0  0  0  0
  1  4  1  0  0  0  0
  1  5  1  0  0  0  0
  5  6  2  0  0  0  0
  5  7  1  0  0  0  0
  6  8  1  0  0  0  0
  7  9  2  0  0  0  0
  8 10  1  0  0  0  0
  8 11  2  0  0  0  0
 10 12  1  0  0  0  0
 12 13  2  0  0  0  0
 12 14  1  0  0  0  0
 13 15  1  0  0  0  0
 14 16  2  0  0  0  0
 15 17  1  0  0  0  0
 15 18  2  0  0  0  0
 17 19  1  0  0  0  0
 17 20  1  0  0  0  0
 19 21  2  0  0  0  0
 19 22  1  0  0  0  0
 21 23  1  0  0  0  0
 22 24  2  0  0  0  0
 23 25  1  0  0  0  0
 23 26  2  0  0  0  0
 25 27  2  0  0  0  0
 26 28  1  0  0  0  0
 27 29  1  0  0  0  0
 28 30  1  0  0  0  0
  9 11  1  0  0  0  0
 16 18  1  0  0  0  0
 24 26  1  0  0  0  0
 27 28  1  0  0  0  0
M  END
>  <MolRegNo>
489524

>  <m>
=

>  <Value>
27000

>  <Unit>
nM

>  <Type>
IC50

>  <pValue>
4.57

>  <Ligand Efficiency>
0

>  <Binding Efficiency>
0

>  <Surface Efficiency>
0

>  <Assay Index>
338814

>  <Assay Category>


>  <Assay Organism>
Homo sapiens

>  <Target ID>
17045

>  <Target Name>
Cytochrome P450 3A4

>  <Target Organism>
Homo sapiens

>  <Target Description>
Target is a single protein chain

>  <Sequence Accession>
P08684

>  <Reference>
J Med Chem 51 (15), 4632-4640 (2008)

>  <Pubmed ID>
18620382

>  <DOI>
10.1021/jm800566m

$$$$
489523
Actelion Java MolfileCreator 1.0

 30 33  0  0  0  0  0  0  0  0999 V2000
    0.0000   -0.0000   -0.0000 S   0  0  0  0  0  0  0  0  0  0  0  0
    0.7387    1.3106   -0.0000 O   0  0  0  0  0  0  0  0  0  0  0  0
   -0.7506   -1.2987   -0.0000 O   0  0  0  0  0  0  0  0  0  0  0  0
    1.2749   -0.7387   -0.0000 N   0  0  0  0  0  0  0  0  0  0  0  0
   -1.3106    0.7625   -0.0000 C   0  0  0  0  0  0  0  0  0  0  0  0
   -1.3225    2.2876   -0.0000 C   0  0  0  0  0  0  0  0  0  0  0  0
   -2.6331    0.0238   -0.0000 C   0  0  0  0  0  0  0  0  0  0  0  0
   -2.6450    3.0382   -0.0000 C   0  0  0  0  0  0  0  0  0  0  0  0
   -3.9437    0.7864   -0.0000 C   0  0  0  0  0  0  0  0  0  0  0  0
   -2.6689    4.5513   -0.0000 N   0  0  0  0  0  0  0  0  0  0  0  0
   -3.9437    2.2995   -0.0000 C   0  0  0  0  0  0  0  0  0  0  0  0
   -1.3821    5.3258   -0.0000 C   0  0  0  0  0  0  0  0  0  0  0  0
   -0.0953    4.5871   -0.0000 N   0  0  0  0  0  0  0  0  0  0  0  0
   -1.4059    6.8270   -0.0000 N   0  0  0  0  0  0  0  0  0  0  0  0
    1.1915    5.3496   -0.0000 C   0  0  0  0  0  0  0  0  0  0  0  0
   -0.1311    7.6015   -0.0000 C   0  0  0  0  0  0  0  0  0  0  0  0
    2.4782    4.6109   -0.0000 N   0  0  0  0  0  0  0  0  0  0  0  0
    1.1676    6.8628   -0.0000 C   0  0  0  0  0  0  0  0  0  0  0  0
    3.7650    5.3734   -0.0000 C   0  0  0  0  0  0  0  0  0  0  0  0
    2.4782    3.1216   -0.0000 C   0  0  0  0  0  0  0  0  0  0  0  0
    5.0518    4.6347   -0.0000 C   0  0  0  0  0  0  0  0  0  0  0  0
    3.7412    6.8747   -0.0000 C   0  0  0  0  0  0  0  0  0  0  0  0
    6.3385    5.4092   -0.0000 C   0  0  0  0  0  0  0  0  0  0  0  0
    5.0160    7.6491   -0.0000 C   0  0  0  0  0  0  0  0  0  0  0  0
    7.7563    4.9564   -0.0000 N   0  0  0  0  0  0  0  0  0  0  0  0
    6.3266    6.9223   -0.0000 C   0  0  0  0  0  0  0  0  0  0  0  0
    8.6261    6.1836   -0.0000 C   0  0  0  0  0  0  0  0  0  0  0  0
    8.2091    3.5386   -0.0000 C   0  0  0  0  0  0  0  0  0  0  0  0
    7.7444    7.3989   -0.0000 N   0  0  0  0  0  0  0  0  0  0  0  0
   10.1154    6.1955   -0.0000 C   0  0  0  0  0  0  0  0  0  0  0  0
  1  2  2  0  0  0  0
  1  3  2  0  0  0  0
  1  4  1  0  0  0  0
  1  5  1  0  0  0  0
  5  6  2  0  0  0  0
  5  7  1  0  0  0  0
  6  8  1  0  0  0  0
  7  9  2  0  0  0  0
  8 10  1  0  0  0  0
  8 11  2  0  0  0  0
 10 12  1  0  0  0  0
 12 13  2  0  0  0  0
 12 14  1  0  0  0  0
 13 15  1  0  0  0  0
 14 16  2  0  0  0  0
 15 17  1  0  0  0  0
 15 18  2  0  0  0  0
 17 19  1  0  0  0  0
 17 20  1  0  0  0  0
 19 21  2  0  0  0  0
 19 22  1  0  0  0  0
 21 23  1  0  0  0  0
 22 24  2  0  0  0  0
 23 25  1  0  0  0  0
 23 26  2  0  0  0  0
 25 27  1  0  0  0  0
 25 28  1  0  0  0  0
 26 29  1  0  0  0  0
 27 30  1  0  0  0  0
  9 11  1  0  0  0  0
 16 18  1  0  0  0  0
 24 26  1  0  0  0  0
 27 29  2  0  0  0  0
M  END
>  <MolRegNo>
489523

>  <m>
=

>  <Value>
26000

>  <Unit>
nM

>  <Type>
IC50

>  <pValue>
4.58

>  <Ligand Efficiency>
0

>  <Binding Efficiency>
0

>  <Surface Efficiency>
0

>  <Assay Index>
338814

>  <Assay Category>


>  <Assay Organism>
Homo sapiens

>  <Target ID>
17045

>  <Target Name>
Cytochrome P450 3A4

>  <Target Organism>
Homo sapiens

>  <Target Description>
Target is a single protein chain

>  <Sequence Accession>
P08684

>  <Reference>
J Med Chem 51 (15), 4632-4640 (2008)

>  <Pubmed ID>
18620382

>  <DOI>
10.1021/jm800566m

$$$$
489522
Actelion Java MolfileCreator 1.0

 29 32  0  0  0  0  0  0  0  0999 V2000
    0.0000   -0.0000   -0.0000 S   0  0  0  0  0  0  0  0  0  0  0  0
    0.7385    1.3103   -0.0000 O   0  0  0  0  0  0  0  0  0  0  0  0
   -0.7504   -1.2984   -0.0000 O   0  0  0  0  0  0  0  0  0  0  0  0
    1.2745   -0.7385   -0.0000 N   0  0  0  0  0  0  0  0  0  0  0  0
   -1.3103    0.7623   -0.0000 C   0  0  0  0  0  0  0  0  0  0  0  0
   -1.3222    2.2870   -0.0000 C   0  0  0  0  0  0  0  0  0  0  0  0
   -2.6325    0.0238   -0.0000 C   0  0  0  0  0  0  0  0  0  0  0  0
   -2.6444    3.0375   -0.0000 C   0  0  0  0  0  0  0  0  0  0  0  0
   -3.9427    0.7862   -0.0000 C   0  0  0  0  0  0  0  0  0  0  0  0
   -2.6682    4.5502   -0.0000 N   0  0  0  0  0  0  0  0  0  0  0  0
   -3.9427    2.2989   -0.0000 C   0  0  0  0  0  0  0  0  0  0  0  0
   -1.3817    5.3245   -0.0000 C   0  0  0  0  0  0  0  0  0  0  0  0
   -0.0953    4.5860   -0.0000 N   0  0  0  0  0  0  0  0  0  0  0  0
   -1.4056    6.8254   -0.0000 N   0  0  0  0  0  0  0  0  0  0  0  0
    1.1912    5.3483   -0.0000 C   0  0  0  0  0  0  0  0  0  0  0  0
   -0.1310    7.5996   -0.0000 C   0  0  0  0  0  0  0  0  0  0  0  0
    2.4776    4.6098   -0.0000 N   0  0  0  0  0  0  0  0  0  0  0  0
    1.1673    6.8611   -0.0000 C   0  0  0  0  0  0  0  0  0  0  0  0
    3.7641    5.3721   -0.0000 C   0  0  0  0  0  0  0  0  0  0  0  0
    2.4776    3.1208   -0.0000 C   0  0  0  0  0  0  0  0  0  0  0  0
    5.0505    4.6336   -0.0000 C   0  0  0  0  0  0  0  0  0  0  0  0
    3.7402    6.8730   -0.0000 C   0  0  0  0  0  0  0  0  0  0  0  0
    6.3370    5.4079   -0.0000 C   0  0  0  0  0  0  0  0  0  0  0  0
    5.0148    7.6473   -0.0000 C   0  0  0  0  0  0  0  0  0  0  0  0
    7.7545    4.9552   -0.0000 N   0  0  0  0  0  0  0  0  0  0  0  0
    6.3251    6.9207   -0.0000 C   0  0  0  0  0  0  0  0  0  0  0  0
    8.6240    6.1821   -0.0000 N   0  0  0  0  0  0  0  0  0  0  0  0
    7.7426    7.3971   -0.0000 C   0  0  0  0  0  0  0  0  0  0  0  0
   10.1130    6.1940   -0.0000 C   0  0  0  0  0  0  0  0  0  0  0  0
  1  2  2  0  0  0  0
  1  3  2  0  0  0  0
  1  4  1  0  0  0  0
  1  5  1  0  0  0  0
  5  6  2  0  0  0  0
  5  7  1  0  0  0  0
  6  8  1  0  0  0  0
  7  9  2  0  0  0  0
  8 10  1  0  0  0  0
  8 11  2  0  0  0  0
 10 12  1  0  0  0  0
 12 13  2  0  0  0  0
 12 14  1  0  0  0  0
 13 15  1  0  0  0  0
 14 16  2  0  0  0  0
 15 17  1  0  0  0  0
 15 18  2  0  0  0  0
 17 19  1  0  0  0  0
 17 20  1  0  0  0  0
 19 21  2  0  0  0  0
 19 22  1  0  0  0  0
 21 23  1  0  0  0  0
 22 24  2  0  0  0  0
 23 25  2  0  0  0  0
 23 26  1  0  0  0  0
 25 27  1  0  0  0  0
 26 28  2  0  0  0  0
 27 29  1  0  0  0  0
  9 11  1  0  0  0  0
 16 18  1  0  0  0  0
 24 26  1  0  0  0  0
 27 28  1  0  0  0  0
M  END
>  <MolRegNo>
489522

>  <m>
=

>  <Value>
4700

>  <Unit>
nM

>  <Type>
IC50

>  <pValue>
5.33

>  <Ligand Efficiency>
0

>  <Binding Efficiency>
0

>  <Surface Efficiency>
0

>  <Assay Index>
338814

>  <Assay Category>


>  <Assay Organism>
Homo sapiens

>  <Target ID>
17045

>  <Target Name>
Cytochrome P450 3A4

>  <Target Organism>
Homo sapiens

>  <Target Description>
Target is a single protein chain

>  <Sequence Accession>
P08684

>  <Reference>
J Med Chem 51 (15), 4632-4640 (2008)

>  <Pubmed ID>
18620382

>  <DOI>
10.1021/jm800566m

$$$$
490635
Actelion Java MolfileCreator 1.0

 36 40  0  0  0  0  0  0  0  0999 V2000
    0.0000   -0.0000   -0.0000 S   0  0  0  0  0  0  0  0  0  0  0  0
    0.7391    1.3113   -0.0000 O   0  0  0  0  0  0  0  0  0  0  0  0
   -0.7510   -1.2994   -0.0000 O   0  0  0  0  0  0  0  0  0  0  0  0
    1.2756   -0.7391   -0.0000 N   0  0  0  0  0  0  0  0  0  0  0  0
   -1.3113    0.7630   -0.0000 C   0  0  0  0  0  0  0  0  0  0  0  0
   -1.3232    2.2889   -0.0000 C   0  0  0  0  0  0  0  0  0  0  0  0
   -2.6346    0.0238   -0.0000 C   0  0  0  0  0  0  0  0  0  0  0  0
   -2.6465    3.0399   -0.0000 C   0  0  0  0  0  0  0  0  0  0  0  0
   -3.9459    0.7868   -0.0000 C   0  0  0  0  0  0  0  0  0  0  0  0
   -2.6703    4.5539   -0.0000 N   0  0  0  0  0  0  0  0  0  0  0  0
   -3.9459    2.3008   -0.0000 C   0  0  0  0  0  0  0  0  0  0  0  0
   -1.3829    5.3288   -0.0000 C   0  0  0  0  0  0  0  0  0  0  0  0
   -0.0954    4.5896   -0.0000 N   0  0  0  0  0  0  0  0  0  0  0  0
   -1.4067    6.8308   -0.0000 N   0  0  0  0  0  0  0  0  0  0  0  0
    1.1921    5.3526   -0.0000 C   0  0  0  0  0  0  0  0  0  0  0  0
   -0.1311    7.6057   -0.0000 C   0  0  0  0  0  0  0  0  0  0  0  0
    2.4796    4.6135   -0.0000 N   0  0  0  0  0  0  0  0  0  0  0  0
    1.1683    6.8666   -0.0000 C   0  0  0  0  0  0  0  0  0  0  0  0
    3.7671    5.3764   -0.0000 C   0  0  0  0  0  0  0  0  0  0  0  0
    2.4796    3.1233   -0.0000 C   0  0  0  0  0  0  0  0  0  0  0  0
    5.0546    4.6373   -0.0000 C   0  0  0  0  0  0  0  0  0  0  0  0
    3.7432    6.8785   -0.0000 C   0  0  0  0  0  0  0  0  0  0  0  0
    6.3421    5.4122   -0.0000 C   0  0  0  0  0  0  0  0  0  0  0  0
    5.0188    7.6534   -0.0000 C   0  0  0  0  0  0  0  0  0  0  0  0
    7.7607    4.9592   -0.0000 N   0  0  0  0  0  0  0  0  0  0  0  0
    6.3301    6.9262   -0.0000 C   0  0  0  0  0  0  0  0  0  0  0  0
    8.6309    6.1871   -0.0000 N   0  0  0  0  0  0  0  0  0  0  0  0
    7.7488    7.4030   -0.0000 C   0  0  0  0  0  0  0  0  0  0  0  0
   10.1211    6.1990   -0.0000 C   0  0  0  0  0  0  0  0  0  0  0  0
    8.2018    8.8455   -0.0000 C   0  0  0  0  0  0  0  0  0  0  0  0
   10.8602    4.9115   -0.0000 C   0  0  0  0  0  0  0  0  0  0  0  0
   10.0972    3.6240   -0.0000 C   0  0  0  0  0  0  0  0  0  0  0  0
   12.3503    4.9354   -0.0000 C   0  0  0  0  0  0  0  0  0  0  0  0
   10.8363    2.3365   -0.0000 C   0  0  0  0  0  0  0  0  0  0  0  0
   13.1014    3.6598   -0.0000 C   0  0  0  0  0  0  0  0  0  0  0  0
   12.3265    2.3485   -0.0000 C   0  0  0  0  0  0  0  0  0  0  0  0
  1  2  2  0  0  0  0
  1  3  2  0  0  0  0
  1  4  1  0  0  0  0
  1  5  1  0  0  0  0
  5  6  2  0  0  0  0
  5  7  1  0  0  0  0
  6  8  1  0  0  0  0
  7  9  2  0  0  0  0
  8 10  1  0  0  0  0
  8 11  2  0  0  0  0
 10 12  1  0  0  0  0
 12 13  2  0  0  0  0
 12 14  1  0  0  0  0
 13 15  1  0  0  0  0
 14 16  2  0  0  0  0
 15 17  1  0  0  0  0
 15 18  2  0  0  0  0
 17 19  1  0  0  0  0
 17 20  1  0  0  0  0
 19 21  2  0  0  0  0
 19 22  1  0  0  0  0
 21 23  1  0  0  0  0
 22 24  2  0  0  0  0
 23 25  2  0  0  0  0
 23 26  1  0  0  0  0
 25 27  1  0  0  0  0
 26 28  2  0  0  0  0
 27 29  1  0  0  0  0
 28 30  1  0  0  0  0
 29 31  1  0  0  0  0
 31 32  2  0  0  0  0
 31 33  1  0  0  0  0
 32 34  1  0  0  0  0
 33 35  2  0  0  0  0
 34 36  2  0  0  0  0
  9 11  1  0  0  0  0
 16 18  1  0  0  0  0
 24 26  1  0  0  0  0
 27 28  1  0  0  0  0
 35 36  1  0  0  0  0
M  END
>  <MolRegNo>
490635

>  <m>
=

>  <Value>
74000

>  <Unit>
nM

>  <Type>
IC50

>  <pValue>
4.13

>  <Ligand Efficiency>
0

>  <Binding Efficiency>
0

>  <Surface Efficiency>
0

>  <Assay Index>
338814

>  <Assay Category>


>  <Assay Organism>
Homo sapiens

>  <Target ID>
17045

>  <Target Name>
Cytochrome P450 3A4

>  <Target Organism>
Homo sapiens

>  <Target Description>
Target is a single protein chain

>  <Sequence Accession>
P08684

>  <Reference>
J Med Chem 51 (15), 4632-4640 (2008)

>  <Pubmed ID>
18620382

>  <DOI>
10.1021/jm800566m

$$$$
1157705
Actelion Java MolfileCreator 1.0

 32 33  0  0  0  0  0  0  0  0999 V2000
    0.0000   -0.0000   -0.0000 Cl  0  0  0  0  0  0  0  0  0  0  0  0
   -2.2246   -1.9904   -0.0000 Cl  0  0  0  0  0  0  0  0  0  0  0  0
   14.7525    4.2150   -0.0000 S   0  0  0  0  0  0  0  0  0  0  0  0
   15.4842    2.9271   -0.0000 O   0  0  0  0  0  0  0  0  0  0  0  0
   13.9914    5.5322   -0.0000 O   0  0  0  0  0  0  0  0  0  0  0  0
   16.0404    4.9760   -0.0000 N   0  0  0  0  0  0  0  0  0  0  0  0
   13.4353    3.4832   -0.0000 C   0  0  0  0  0  0  0  0  0  0  0  0
   13.4207    2.0050   -0.0000 C   0  0  0  0  0  0  0  0  0  0  0  0
   12.1181    4.2443   -0.0000 C   0  0  0  0  0  0  0  0  0  0  0  0
   12.1035    1.2733   -0.0000 C   0  0  0  0  0  0  0  0  0  0  0  0
   10.8009    3.5125   -0.0000 C   0  0  0  0  0  0  0  0  0  0  0  0
   12.0888   -0.2049   -0.0000 N   0  0  0  0  0  0  0  0  0  0  0  0
   10.7863    2.0343   -0.0000 C   0  0  0  0  0  0  0  0  0  0  0  0
   10.7717   -0.9367   -0.0000 C   0  0  0  0  0  0  0  0  0  0  0  0
   10.7570   -2.4148   -0.0000 N   0  0  0  0  0  0  0  0  0  0  0  0
    9.4545   -0.1756   -0.0000 N   0  0  0  0  0  0  0  0  0  0  0  0
    9.4398   -3.1466   -0.0000 C   0  0  0  0  0  0  0  0  0  0  0  0
    8.1373   -0.9074   -0.0000 C   0  0  0  0  0  0  0  0  0  0  0  0
    9.4252   -4.6248   -0.0000 N   0  0  0  0  0  0  0  0  0  0  0  0
    8.1226   -2.3856   -0.0000 C   0  0  0  0  0  0  0  0  0  0  0  0
    8.1080   -5.3566   -0.0000 C   0  0  0  0  0  0  0  0  0  0  0  0
   10.7131   -5.3566   -0.0000 C   0  0  0  0  0  0  0  0  0  0  0  0
    6.7908   -4.5955   -0.0000 C   0  0  0  0  0  0  0  0  0  0  0  0
    8.0934   -6.8347   -0.0000 C   0  0  0  0  0  0  0  0  0  0  0  0
    5.4736   -5.3273   -0.0000 C   0  0  0  0  0  0  0  0  0  0  0  0
    6.7762   -7.5665   -0.0000 C   0  0  0  0  0  0  0  0  0  0  0  0
    4.0394   -4.8443   -0.0000 N   0  0  0  0  0  0  0  0  0  0  0  0
    5.4590   -6.8055   -0.0000 C   0  0  0  0  0  0  0  0  0  0  0  0
    3.1466   -6.0444   -0.0000 N   0  0  0  0  0  0  0  0  0  0  0  0
    4.0247   -7.2592   -0.0000 C   0  0  0  0  0  0  0  0  0  0  0  0
    1.6392   -6.0298   -0.0000 C   0  0  0  0  0  0  0  0  0  0  0  0
    3.5418   -8.6642   -0.0000 C   0  0  0  0  0  0  0  0  0  0  0  0
  3  4  2  0  0  0  0
  3  5  2  0  0  0  0
  3  6  1  0  0  0  0
  3  7  1  0  0  0  0
  7  8  2  0  0  0  0
  7  9  1  0  0  0  0
  8 10  1  0  0  0  0
  9 11  2  0  0  0  0
 10 12  1  0  0  0  0
 10 13  2  0  0  0  0
 12 14  1  0  0  0  0
 14 15  2  0  0  0  0
 14 16  1  0  0  0  0
 15 17  1  0  0  0  0
 16 18  2  0  0  0  0
 17 19  1  0  0  0  0
 17 20  2  0  0  0  0
 19 21  1  0  0  0  0
 19 22  1  0  0  0  0
 21 23  2  0  0  0  0
 21 24  1  0  0  0  0
 23 25  1  0  0  0  0
 24 26  2  0  0  0  0
 25 27  2  0  0  0  0
 25 28  1  0  0  0  0
 27 29  1  0  0  0  0
 28 30  2  0  0  0  0
 29 31  1  0  0  0  0
 30 32  1  0  0  0  0
 11 13  1  0  0  0  0
 18 20  1  0  0  0  0
 26 28  1  0  0  0  0
 29 30  1  0  0  0  0
M  END
>  <MolRegNo>
1157705

>  <m>
=

>  <Value>
16000

>  <Unit>
nM

>  <Type>
IC50

>  <pValue>
4.8

>  <Ligand Efficiency>
0

>  <Binding Efficiency>
0

>  <Surface Efficiency>
0

>  <Assay Index>
338814

>  <Assay Category>


>  <Assay Organism>
Homo sapiens

>  <Target ID>
17045

>  <Target Name>
Cytochrome P450 3A4

>  <Target Organism>
Homo sapiens

>  <Target Description>
Target is a single protein chain

>  <Sequence Accession>
P08684

>  <Reference>
J Med Chem 51 (15), 4632-4640 (2008)

>  <Pubmed ID>
18620382

>  <DOI>
10.1021/jm800566m

$$$$
1157704
Actelion Java MolfileCreator 1.0

 31 33  0  0  0  0  0  0  0  0999 V2000
    0.0000   -0.0000   -0.0000 Cl  0  0  0  0  0  0  0  0  0  0  0  0
   14.8968    6.1479   -0.0000 S   0  0  0  0  0  0  0  0  0  0  0  0
   15.6357    4.8621   -0.0000 O   0  0  0  0  0  0  0  0  0  0  0  0
   14.1283    7.4632   -0.0000 O   0  0  0  0  0  0  0  0  0  0  0  0
   16.1825    6.9164   -0.0000 N   0  0  0  0  0  0  0  0  0  0  0  0
   13.5815    5.4089   -0.0000 C   0  0  0  0  0  0  0  0  0  0  0  0
   13.5667    3.9311   -0.0000 C   0  0  0  0  0  0  0  0  0  0  0  0
   12.2662    6.1774   -0.0000 C   0  0  0  0  0  0  0  0  0  0  0  0
   12.2514    3.1922   -0.0000 C   0  0  0  0  0  0  0  0  0  0  0  0
   10.9509    5.4385   -0.0000 C   0  0  0  0  0  0  0  0  0  0  0  0
   12.2366    1.7143   -0.0000 N   0  0  0  0  0  0  0  0  0  0  0  0
   10.9361    3.9606   -0.0000 C   0  0  0  0  0  0  0  0  0  0  0  0
   10.9213    0.9754   -0.0000 C   0  0  0  0  0  0  0  0  0  0  0  0
   10.9066   -0.5025   -0.0000 N   0  0  0  0  0  0  0  0  0  0  0  0
    9.6061    1.7439   -0.0000 N   0  0  0  0  0  0  0  0  0  0  0  0
    9.5913   -1.2414   -0.0000 C   0  0  0  0  0  0  0  0  0  0  0  0
    8.2908    1.0049   -0.0000 C   0  0  0  0  0  0  0  0  0  0  0  0
    9.5765   -2.7193   -0.0000 N   0  0  0  0  0  0  0  0  0  0  0  0
    8.2760   -0.4729   -0.0000 C   0  0  0  0  0  0  0  0  0  0  0  0
    8.2612   -3.4582   -0.0000 C   0  0  0  0  0  0  0  0  0  0  0  0
   10.8622   -3.4582   -0.0000 C   0  0  0  0  0  0  0  0  0  0  0  0
    6.9459   -2.6897   -0.0000 C   0  0  0  0  0  0  0  0  0  0  0  0
    8.2464   -4.9360   -0.0000 C   0  0  0  0  0  0  0  0  0  0  0  0
    5.6306   -3.4286   -0.0000 C   0  0  0  0  0  0  0  0  0  0  0  0
    6.9311   -5.6750   -0.0000 C   0  0  0  0  0  0  0  0  0  0  0  0
    4.1971   -2.9557   -0.0000 N   0  0  0  0  0  0  0  0  0  0  0  0
    5.6158   -4.9065   -0.0000 C   0  0  0  0  0  0  0  0  0  0  0  0
    3.3104   -4.1528   -0.0000 N   0  0  0  0  0  0  0  0  0  0  0  0
    3.7242   -1.5222   -0.0000 C   0  0  0  0  0  0  0  0  0  0  0  0
    4.1823   -5.3498   -0.0000 C   0  0  0  0  0  0  0  0  0  0  0  0
    3.7094   -6.7538   -0.0000 C   0  0  0  0  0  0  0  0  0  0  0  0
  2  3  2  0  0  0  0
  2  4  2  0  0  0  0
  2  5  1  0  0  0  0
  2  6  1  0  0  0  0
  6  7  2  0  0  0  0
  6  8  1  0  0  0  0
  7  9  1  0  0  0  0
  8 10  2  0  0  0  0
  9 11  1  0  0  0  0
  9 12  2  0  0  0  0
 11 13  1  0  0  0  0
 13 14  2  0  0  0  0
 13 15  1  0  0  0  0
 14 16  1  0  0  0  0
 15 17  2  0  0  0  0
 16 18  1  0  0  0  0
 16 19  2  0  0  0  0
 18 20  1  0  0  0  0
 18 21  1  0  0  0  0
 20 22  2  0  0  0  0
 20 23  1  0  0  0  0
 22 24  1  0  0  0  0
 23 25  2  0  0  0  0
 24 26  1  0  0  0  0
 24 27  2  0  0  0  0
 26 28  1  0  0  0  0
 26 29  1  0  0  0  0
 27 30  1  0  0  0  0
 30 31  1  0  0  0  0
 10 12  1  0  0  0  0
 17 19  1  0  0  0  0
 25 27  1  0  0  0  0
 28 30  2  0  0  0  0
M  END
>  <MolRegNo>
1157704

>  <m>
=

>  <Value>
13000

>  <Unit>
nM

>  <Type>
IC50

>  <pValue>
4.89

>  <Ligand Efficiency>
0

>  <Binding Efficiency>
0

>  <Surface Efficiency>
0

>  <Assay Index>
338814

>  <Assay Category>


>  <Assay Organism>
Homo sapiens

>  <Target ID>
17045

>  <Target Name>
Cytochrome P450 3A4

>  <Target Organism>
Homo sapiens

>  <Target Description>
Target is a single protein chain

>  <Sequence Accession>
P08684

>  <Reference>
J Med Chem 51 (15), 4632-4640 (2008)

>  <Pubmed ID>
18620382

>  <DOI>
10.1021/jm800566m

$$$$
489588
Actelion Java MolfileCreator 1.0

 37 41  0  0  0  0  0  0  0  0999 V2000
    0.0000   -0.0000   -0.0000 Cl  0  0  0  0  0  0  0  0  0  0  0  0
   -1.1201   -0.9904   -0.0000 C   0  0  0  0  0  0  0  0  0  0  0  0
   -2.5584   -0.5188   -0.0000 C   0  0  0  0  0  0  0  0  0  0  0  0
   -0.8253   -2.4405   -0.0000 C   0  0  0  0  0  0  0  0  0  0  0  0
   -3.6785   -1.5091   -0.0000 C   0  0  0  0  0  0  0  0  0  0  0  0
   -2.8768    0.9550   -0.0000 C   0  0  0  0  0  0  0  0  0  0  0  0
   -1.9454   -3.4309   -0.0000 C   0  0  0  0  0  0  0  0  0  0  0  0
   -5.1169   -1.0375   -0.0000 Cl  0  0  0  0  0  0  0  0  0  0  0  0
   -3.3837   -2.9593   -0.0000 C   0  0  0  0  0  0  0  0  0  0  0  0
   -1.8864    2.0750   -0.0000 N   0  0  0  0  0  0  0  0  0  0  0  0
   -4.2562    1.5799   -0.0000 C   0  0  0  0  0  0  0  0  0  0  0  0
   -2.6410    3.3837   -0.0000 O   0  0  0  0  0  0  0  0  0  0  0  0
   -4.1147    3.0772   -0.0000 C   0  0  0  0  0  0  0  0  0  0  0  0
   -5.5649    0.8489   -0.0000 C   0  0  0  0  0  0  0  0  0  0  0  0
   -5.2348    4.0911   -0.0000 C   0  0  0  0  0  0  0  0  0  0  0  0
   -6.8736    1.6034   -0.0000 O   0  0  0  0  0  0  0  0  0  0  0  0
   -4.9400    5.5649   -0.0000 C   0  0  0  0  0  0  0  0  0  0  0  0
   -6.6731    3.6431   -0.0000 C   0  0  0  0  0  0  0  0  0  0  0  0
   -8.1823    0.8725   -0.0000 C   0  0  0  0  0  0  0  0  0  0  0  0
   -9.4910    1.6270   -0.0000 C   0  0  0  0  0  0  0  0  0  0  0  0
   -8.1941   -0.6131   -0.0000 C   0  0  0  0  0  0  0  0  0  0  0  0
  -10.7996    0.8960   -0.0000 C   0  0  0  0  0  0  0  0  0  0  0  0
   -9.5027   -1.3441   -0.0000 C   0  0  0  0  0  0  0  0  0  0  0  0
  -10.8114   -0.5895   -0.0000 C   0  0  0  0  0  0  0  0  0  0  0  0
  -12.1201   -1.3205   -0.0000 C   0  0  0  0  0  0  0  0  0  0  0  0
  -13.4288   -0.5659   -0.0000 C   0  0  0  0  0  0  0  0  0  0  0  0
  -12.1319   -2.8060   -0.0000 C   0  0  0  0  0  0  0  0  0  0  0  0
  -14.7375   -1.2969   -0.0000 C   0  0  0  0  0  0  0  0  0  0  0  0
  -13.4406   -3.5370   -0.0000 C   0  0  0  0  0  0  0  0  0  0  0  0
  -14.7493   -2.7824   -0.0000 C   0  0  0  0  0  0  0  0  0  0  0  0
  -16.0462   -0.5423   -0.0000 C   0  0  0  0  0  0  0  0  0  0  0  0
  -16.0580   -3.5134   -0.0000 C   0  0  0  0  0  0  0  0  0  0  0  0
  -17.3549   -1.2733   -0.0000 C   0  0  0  0  0  0  0  0  0  0  0  0
  -16.0698   -4.9990   -0.0000 C   0  0  0  0  0  0  0  0  0  0  0  0
  -17.3667   -2.7589   -0.0000 C   0  0  0  0  0  0  0  0  0  0  0  0
  -14.7847   -5.7299   -0.0000 O   0  0  0  0  0  0  0  0  0  0  0  0
  -17.3785   -5.7299   -0.0000 O   0  0  0  0  0  0  0  0  0  0  0  0
  1  2  1  0  0  0  0
  2  3  2  0  0  0  0
  2  4  1  0  0  0  0
  3  5  1  0  0  0  0
  3  6  1  0  0  0  0
  4  7  2  0  0  0  0
  5  8  1  0  0  0  0
  5  9  2  0  0  0  0
  6 10  2  0  0  0  0
  6 11  1  0  0  0  0
 10 12  1  0  0  0  0
 11 13  2  0  0  0  0
 11 14  1  0  0  0  0
 13 15  1  0  0  0  0
 14 16  1  0  0  0  0
 15 17  1  0  0  0  0
 15 18  1  0  0  0  0
 16 19  1  0  0  0  0
 19 20  2  0  0  0  0
 19 21  1  0  0  0  0
 20 22  1  0  0  0  0
 21 23  2  0  0  0  0
 22 24  2  0  0  0  0
 24 25  1  0  0  0  0
 25 26  2  0  0  0  0
 25 27  1  0  0  0  0
 26 28  1  0  0  0  0
 27 29  2  0  0  0  0
 28 30  1  0  0  0  0
 28 31  2  0  0  0  0
 30 32  2  0  0  0  0
 31 33  1  0  0  0  0
 32 34  1  0  0  0  0
 32 35  1  0  0  0  0
 34 36  2  0  0  0  0
 34 37  1  0  0  0  0
  7  9  1  0  0  0  0
 12 13  1  0  0  0  0
 23 24  1  0  0  0  0
 29 30  1  0  0  0  0
 33 35  2  0  0  0  0
M  END
>  <MolRegNo>
489588

>  <m>
=

>  <Value>
7200

>  <Unit>
nM

>  <Type>
IC50

>  <pValue>
5.14

>  <Ligand Efficiency>
0

>  <Binding Efficiency>
0

>  <Surface Efficiency>
0

>  <Assay Index>
339181

>  <Assay Category>


>  <Assay Organism>
Homo sapiens

>  <Target ID>
17045

>  <Target Name>
Cytochrome P450 3A4

>  <Target Organism>
Homo sapiens

>  <Target Description>
Target is a single protein chain

>  <Sequence Accession>
P08684

>  <Reference>
Bioorg Med Chem Lett 18 (15), 4339-4343 (2008)

>  <Pubmed ID>
18621523

>  <DOI>
10.1016/j.bmcl.2008.06.073

$$$$
488305
Actelion Java MolfileCreator 1.0

 27 29  0  0  0  0  0  0  0  0999 V2000
    0.0000   -0.0000   -0.0000 Cl  0  0  0  0  0  0  0  0  0  0  0  0
    1.2874    0.7629   -0.0000 C   0  0  0  0  0  0  0  0  0  0  0  0
    1.2754    2.2767   -0.0000 C   0  0  0  0  0  0  0  0  0  0  0  0
    2.5747    0.0358   -0.0000 C   0  0  0  0  0  0  0  0  0  0  0  0
   -0.0358    3.0277   -0.0000 O   0  0  0  0  0  0  0  0  0  0  0  0
    2.5509    3.0515   -0.0000 C   0  0  0  0  0  0  0  0  0  0  0  0
    3.8621    0.8106   -0.0000 C   0  0  0  0  0  0  0  0  0  0  0  0
   -1.3470    2.2767   -0.0000 C   0  0  0  0  0  0  0  0  0  0  0  0
    2.5270    4.5653   -0.0000 F   0  0  0  0  0  0  0  0  0  0  0  0
    3.8382    2.3244   -0.0000 C   0  0  0  0  0  0  0  0  0  0  0  0
   -1.3589    0.7748   -0.0000 C   0  0  0  0  0  0  0  0  0  0  0  0
   -2.6701    3.0277   -0.0000 C   0  0  0  0  0  0  0  0  0  0  0  0
    5.1256    3.0992   -0.0000 C   0  0  0  0  0  0  0  0  0  0  0  0
   -2.6820    0.0358   -0.0000 C   0  0  0  0  0  0  0  0  0  0  0  0
   -3.9693    2.2886   -0.0000 C   0  0  0  0  0  0  0  0  0  0  0  0
    6.4249    2.3721   -0.0000 C   0  0  0  0  0  0  0  0  0  0  0  0
   -2.6939   -1.4542   -0.0000 Cl  0  0  0  0  0  0  0  0  0  0  0  0
   -3.9932    0.7986   -0.0000 C   0  0  0  0  0  0  0  0  0  0  0  0
   -5.2805    3.0515   -0.0000 C   0  0  0  0  0  0  0  0  0  0  0  0
    6.4129    0.8821   -0.0000 O   0  0  0  0  0  0  0  0  0  0  0  0
    7.7003    3.1469   -0.0000 N   0  0  0  0  0  0  0  0  0  0  0  0
   -6.5917    3.8144   -0.0000 N   0  0  0  0  0  0  0  0  0  0  0  0
    7.7122    0.1550   -0.0000 C   0  0  0  0  0  0  0  0  0  0  0  0
    8.9996    2.4197   -0.0000 N   0  0  0  0  0  0  0  0  0  0  0  0
    8.9996    0.9298   -0.0000 C   0  0  0  0  0  0  0  0  0  0  0  0
    7.7122   -1.3350   -0.0000 C   0  0  0  0  0  0  0  0  0  0  0  0
   10.2988    0.2026   -0.0000 O   0  0  0  0  0  0  0  0  0  0  0  0
  1  2  1  0  0  0  0
  2  3  2  0  0  0  0
  2  4  1  0  0  0  0
  3  5  1  0  0  0  0
  3  6  1  0  0  0  0
  4  7  2  0  0  0  0
  5  8  1  0  0  0  0
  6  9  1  0  0  0  0
  6 10  2  0  0  0  0
  8 11  2  0  0  0  0
  8 12  1  0  0  0  0
 10 13  1  0  0  0  0
 11 14  1  0  0  0  0
 12 15  2  0  0  0  0
 13 16  1  0  0  0  0
 14 17  1  0  0  0  0
 14 18  2  0  0  0  0
 15 19  1  0  0  0  0
 16 20  1  0  0  0  0
 16 21  2  0  0  0  0
 19 22  3  0  0  0  0
 20 23  1  0  0  0  0
 21 24  1  0  0  0  0
 23 25  1  0  0  0  0
 23 26  1  0  0  0  0
 25 27  2  0  0  0  0
  7 10  1  0  0  0  0
 15 18  1  0  0  0  0
 24 25  1  0  0  0  0
M  END
>  <MolRegNo>
488305

>  <m>
=

>  <Value>
270

>  <Unit>
nM

>  <Type>
IC50

>  <pValue>
6.57

>  <Ligand Efficiency>
0

>  <Binding Efficiency>
0

>  <Surface Efficiency>
0

>  <Assay Index>
339770

>  <Assay Category>


>  <Assay Organism>


>  <Target ID>
17045

>  <Target Name>
Cytochrome P450 3A4

>  <Target Organism>
Homo sapiens

>  <Target Description>
Target is a single protein chain

>  <Sequence Accession>
P08684

>  <Reference>
Bioorg Med Chem Lett 18 (15), 4348-4351 (2008)

>  <Pubmed ID>
18625554

>  <DOI>
10.1016/j.bmcl.2008.06.080

$$$$
488473
Actelion Java MolfileCreator 1.0

 26 28  0  0  0  0  0  0  0  0999 V2000
    0.0000   -0.0000   -0.0000 Cl  0  0  0  0  0  0  0  0  0  0  0  0
   -0.0119    1.5124   -0.0000 C   0  0  0  0  0  0  0  0  0  0  0  0
    1.2861    2.2746   -0.0000 C   0  0  0  0  0  0  0  0  0  0  0  0
   -1.3219    2.2746   -0.0000 C   0  0  0  0  0  0  0  0  0  0  0  0
    1.2742    3.7989   -0.0000 C   0  0  0  0  0  0  0  0  0  0  0  0
   -1.3338    3.7870   -0.0000 C   0  0  0  0  0  0  0  0  0  0  0  0
    2.5604    4.5730   -0.0000 O   0  0  0  0  0  0  0  0  0  0  0  0
   -0.0476    4.5491   -0.0000 C   0  0  0  0  0  0  0  0  0  0  0  0
   -2.6437    4.5491   -0.0000 C   0  0  0  0  0  0  0  0  0  0  0  0
    3.8584    3.8346   -0.0000 C   0  0  0  0  0  0  0  0  0  0  0  0
   -3.9537    5.3113   -0.0000 N   0  0  0  0  0  0  0  0  0  0  0  0
    5.1327    4.6087   -0.0000 C   0  0  0  0  0  0  0  0  0  0  0  0
    3.8465    2.3460   -0.0000 C   0  0  0  0  0  0  0  0  0  0  0  0
    5.1088    6.1211   -0.0000 F   0  0  0  0  0  0  0  0  0  0  0  0
    6.4188    3.8822   -0.0000 C   0  0  0  0  0  0  0  0  0  0  0  0
    5.1327    1.6196   -0.0000 C   0  0  0  0  0  0  0  0  0  0  0  0
    2.5366    1.6077   -0.0000 C   0  0  0  0  0  0  0  0  0  0  0  0
    6.4188    2.3817   -0.0000 C   0  0  0  0  0  0  0  0  0  0  0  0
    7.7050    4.6563   -0.0000 C   0  0  0  0  0  0  0  0  0  0  0  0
    9.0030    3.9299   -0.0000 C   0  0  0  0  0  0  0  0  0  0  0  0
   10.3606    4.5730   -0.0000 N   0  0  0  0  0  0  0  0  0  0  0  0
    9.1578    2.4532   -0.0000 N   0  0  0  0  0  0  0  0  0  0  0  0
   11.3609    3.4774   -0.0000 N   0  0  0  0  0  0  0  0  0  0  0  0
   10.6226    2.1674   -0.0000 C   0  0  0  0  0  0  0  0  0  0  0  0
    8.0384    1.4529   -0.0000 C   0  0  0  0  0  0  0  0  0  0  0  0
   11.2299    0.8098   -0.0000 O   0  0  0  0  0  0  0  0  0  0  0  0
  1  2  1  0  0  0  0
  2  3  2  0  0  0  0
  2  4  1  0  0  0  0
  3  5  1  0  0  0  0
  4  6  2  0  0  0  0
  5  7  1  0  0  0  0
  5  8  2  0  0  0  0
  6  9  1  0  0  0  0
  7 10  1  0  0  0  0
  9 11  3  0  0  0  0
 10 12  2  0  0  0  0
 10 13  1  0  0  0  0
 12 14  1  0  0  0  0
 12 15  1  0  0  0  0
 13 16  2  0  0  0  0
 13 17  1  0  0  0  0
 15 18  2  0  0  0  0
 15 19  1  0  0  0  0
 19 20  1  0  0  0  0
 20 21  2  0  0  0  0
 20 22  1  0  0  0  0
 21 23  1  0  0  0  0
 22 24  1  0  0  0  0
 22 25  1  0  0  0  0
 24 26  2  0  0  0  0
  6  8  1  0  0  0  0
 16 18  1  0  0  0  0
 23 24  1  0  0  0  0
M  END
>  <MolRegNo>
488473

>  <m>
=

>  <Value>
12000

>  <Unit>
nM

>  <Type>
IC50

>  <pValue>
4.92

>  <Ligand Efficiency>
0

>  <Binding Efficiency>
0

>  <Surface Efficiency>
0

>  <Assay Index>
339770

>  <Assay Category>


>  <Assay Organism>


>  <Target ID>
17045

>  <Target Name>
Cytochrome P450 3A4

>  <Target Organism>
Homo sapiens

>  <Target Description>
Target is a single protein chain

>  <Sequence Accession>
P08684

>  <Reference>
Bioorg Med Chem Lett 18 (15), 4348-4351 (2008)

>  <Pubmed ID>
18625554

>  <DOI>
10.1016/j.bmcl.2008.06.080

$$$$
489207
Actelion Java MolfileCreator 1.0

 20 21  0  0  0  0  0  0  0  0999 V2000
    0.0000   -0.0000   -0.0000 Cl  0  0  0  0  0  0  0  0  0  0  0  0
    1.2832    0.7604   -0.0000 C   0  0  0  0  0  0  0  0  0  0  0  0
    2.5782    0.0238   -0.0000 C   0  0  0  0  0  0  0  0  0  0  0  0
    1.2713    2.2693   -0.0000 C   0  0  0  0  0  0  0  0  0  0  0  0
    2.5663   -1.4614   -0.0000 Cl  0  0  0  0  0  0  0  0  0  0  0  0
    3.8614    0.7842   -0.0000 C   0  0  0  0  0  0  0  0  0  0  0  0
    2.5544    3.0297   -0.0000 C   0  0  0  0  0  0  0  0  0  0  0  0
   -0.0356    3.0297   -0.0000 C   0  0  0  0  0  0  0  0  0  0  0  0
    3.8495    2.3049   -0.0000 C   0  0  0  0  0  0  0  0  0  0  0  0
   -0.0475    4.5386   -0.0000 N   0  0  0  0  0  0  0  0  0  0  0  0
   -1.3663    5.2990   -0.0000 C   0  0  0  0  0  0  0  0  0  0  0  0
    1.2356    5.2990   -0.0000 C   0  0  0  0  0  0  0  0  0  0  0  0
   -2.6732    4.5623   -0.0000 O   0  0  0  0  0  0  0  0  0  0  0  0
   -1.3782    6.8079   -0.0000 C   0  0  0  0  0  0  0  0  0  0  0  0
    1.2000    6.8079   -0.0000 C   0  0  0  0  0  0  0  0  0  0  0  0
    2.6495    4.8594   -0.0000 C   0  0  0  0  0  0  0  0  0  0  0  0
   -0.0832    7.5682   -0.0000 C   0  0  0  0  0  0  0  0  0  0  0  0
   -2.6851    7.5682   -0.0000 C   0  0  0  0  0  0  0  0  0  0  0  0
    2.6020    7.2950   -0.0000 N   0  0  0  0  0  0  0  0  0  0  0  0
    3.5049    6.0950   -0.0000 C   0  0  0  0  0  0  0  0  0  0  0  0
  1  2  1  0  0  0  0
  2  3  2  0  0  0  0
  2  4  1  0  0  0  0
  3  5  1  0  0  0  0
  3  6  1  0  0  0  0
  4  7  2  0  0  0  0
  4  8  1  0  0  0  0
  6  9  2  0  0  0  0
  8 10  1  0  0  0  0
 10 11  1  0  0  0  0
 12 10  1  6  0  0  0
 11 13  2  0  0  0  0
 11 14  1  0  0  0  0
 12 15  1  0  0  0  0
 12 16  1  0  0  0  0
 14 17  1  0  0  0  0
 14 18  1  0  0  0  0
 15 19  1  0  0  0  0
 16 20  1  0  0  0  0
  7  9  1  0  0  0  0
 19 20  1  0  0  0  0
M  END
>  <MolRegNo>
489207

>  <m>
=

>  <Value>
17900

>  <Unit>
nM

>  <Type>
IC50

>  <pValue>
4.75

>  <Ligand Efficiency>
0

>  <Binding Efficiency>
0

>  <Surface Efficiency>
0

>  <Assay Index>
362390

>  <Assay Category>


>  <Assay Organism>


>  <Target ID>
17045

>  <Target Name>
Cytochrome P450 3A4

>  <Target Organism>
Homo sapiens

>  <Target Description>
Target is a single protein chain

>  <Sequence Accession>
P08684

>  <Reference>
Bioorg Med Chem Lett 18 (15), 4308-4311 (2008)

>  <Pubmed ID>
18625557

>  <DOI>
10.1016/j.bmcl.2008.06.078

$$$$
489166
Actelion Java MolfileCreator 1.0

 26 29  0  0  0  0  0  0  0  0999 V2000
    0.0000   -0.0000   -0.0000 Cl  0  0  0  0  0  0  0  0  0  0  0  0
    1.2906   -0.7409   -0.0000 C   0  0  0  0  0  0  0  0  0  0  0  0
    2.5812    0.0239   -0.0000 C   0  0  0  0  0  0  0  0  0  0  0  0
    1.2786   -2.2466   -0.0000 C   0  0  0  0  0  0  0  0  0  0  0  0
    3.8718   -0.7170   -0.0000 C   0  0  0  0  0  0  0  0  0  0  0  0
    2.5812   -2.9875   -0.0000 C   0  0  0  0  0  0  0  0  0  0  0  0
    5.1624    0.0478   -0.0000 C   0  0  0  0  0  0  0  0  0  0  0  0
    3.8718   -2.2107   -0.0000 C   0  0  0  0  0  0  0  0  0  0  0  0
    5.1504    1.5654   -0.0000 O   0  0  0  0  0  0  0  0  0  0  0  0
    6.4530   -0.6931   -0.0000 C   0  0  0  0  0  0  0  0  0  0  0  0
    6.4410   -2.1868   -0.0000 C   0  0  0  0  0  0  0  0  0  0  0  0
    7.7436    0.0717   -0.0000 C   0  0  0  0  0  0  0  0  0  0  0  0
    5.3058   -3.1787   -0.0000 O   0  0  0  0  0  0  0  0  0  0  0  0
    7.7316   -2.9397   -0.0000 C   0  0  0  0  0  0  0  0  0  0  0  0
    9.0461   -0.6692   -0.0000 C   0  0  0  0  0  0  0  0  0  0  0  0
    5.9033   -4.5529   -0.0000 C   0  0  0  0  0  0  0  0  0  0  0  0
    9.0341   -2.1749   -0.0000 C   0  0  0  0  0  0  0  0  0  0  0  0
    7.3970   -4.4095   -0.0000 C   0  0  0  0  0  0  0  0  0  0  0  0
   10.3367    0.1075   -0.0000 C   0  0  0  0  0  0  0  0  0  0  0  0
   11.6392   -0.6333   -0.0000 C   0  0  0  0  0  0  0  0  0  0  0  0
   12.9179    0.1434   -0.0000 N   0  0  0  0  0  0  0  0  0  0  0  0
   11.6273   -2.1271   -0.0000 C   0  0  0  0  0  0  0  0  0  0  0  0
   14.2204   -0.5855   -0.0000 N   0  0  0  0  0  0  0  0  0  0  0  0
   12.9298   -2.8680   -0.0000 C   0  0  0  0  0  0  0  0  0  0  0  0
   14.2204   -2.0912   -0.0000 C   0  0  0  0  0  0  0  0  0  0  0  0
   15.5230   -2.8321   -0.0000 O   0  0  0  0  0  0  0  0  0  0  0  0
  1  2  1  0  0  0  0
  2  3  2  0  0  0  0
  2  4  1  0  0  0  0
  3  5  1  0  0  0  0
  4  6  2  0  0  0  0
  5  7  1  0  0  0  0
  5  8  2  0  0  0  0
  7  9  2  0  0  0  0
  7 10  1  0  0  0  0
 10 11  2  0  0  0  0
 10 12  1  0  0  0  0
 11 13  1  0  0  0  0
 11 14  1  0  0  0  0
 12 15  2  0  0  0  0
 13 16  1  0  0  0  0
 14 17  2  0  0  0  0
 14 18  1  0  0  0  0
 15 19  1  0  0  0  0
 19 20  1  0  0  0  0
 20 21  2  0  0  0  0
 20 22  1  0  0  0  0
 21 23  1  0  0  0  0
 22 24  2  0  0  0  0
 23 25  1  0  0  0  0
 25 26  2  0  0  0  0
  6  8  1  0  0  0  0
 15 17  1  0  0  0  0
 16 18  2  0  0  0  0
 24 25  1  0  0  0  0
M  END
>  <MolRegNo>
489166

>  <m>
=

>  <Value>
600

>  <Unit>
nM

>  <Type>
IC50

>  <pValue>
6.22

>  <Ligand Efficiency>
0

>  <Binding Efficiency>
0

>  <Surface Efficiency>
0

>  <Assay Index>
363428

>  <Assay Category>


>  <Assay Organism>


>  <Target ID>
17045

>  <Target Name>
Cytochrome P450 3A4

>  <Target Organism>
Homo sapiens

>  <Target Description>
Target is a single protein chain

>  <Sequence Accession>
P08684

>  <Reference>
Bioorg Med Chem Lett 18 (15), 4352-4354 (2008)

>  <Pubmed ID>
18632268

>  <DOI>
10.1016/j.bmcl.2008.06.072

$$$$
489168
Actelion Java MolfileCreator 1.0

 25 28  0  0  0  0  0  0  0  0999 V2000
    0.0000   -0.0000   -0.0000 Cl  0  0  0  0  0  0  0  0  0  0  0  0
    1.2919   -0.7416   -0.0000 C   0  0  0  0  0  0  0  0  0  0  0  0
    2.5837    0.0239   -0.0000 C   0  0  0  0  0  0  0  0  0  0  0  0
    1.2799   -2.2369   -0.0000 C   0  0  0  0  0  0  0  0  0  0  0  0
    3.8756   -0.7177   -0.0000 C   0  0  0  0  0  0  0  0  0  0  0  0
    2.5837   -2.9785   -0.0000 C   0  0  0  0  0  0  0  0  0  0  0  0
    5.1675    0.0478   -0.0000 O   0  0  0  0  0  0  0  0  0  0  0  0
    3.8756   -2.2129   -0.0000 C   0  0  0  0  0  0  0  0  0  0  0  0
    6.4594   -0.6938   -0.0000 C   0  0  0  0  0  0  0  0  0  0  0  0
    6.4474   -2.1890   -0.0000 C   0  0  0  0  0  0  0  0  0  0  0  0
    7.7512    0.0718   -0.0000 C   0  0  0  0  0  0  0  0  0  0  0  0
    5.3110   -3.1818   -0.0000 O   0  0  0  0  0  0  0  0  0  0  0  0
    7.7393   -2.9426   -0.0000 C   0  0  0  0  0  0  0  0  0  0  0  0
    9.0551   -0.6699   -0.0000 C   0  0  0  0  0  0  0  0  0  0  0  0
    5.9091   -4.5574   -0.0000 C   0  0  0  0  0  0  0  0  0  0  0  0
    9.0431   -2.1770   -0.0000 C   0  0  0  0  0  0  0  0  0  0  0  0
    7.4043   -4.4139   -0.0000 C   0  0  0  0  0  0  0  0  0  0  0  0
   10.3469    0.1077   -0.0000 C   0  0  0  0  0  0  0  0  0  0  0  0
   11.6508   -0.6340   -0.0000 C   0  0  0  0  0  0  0  0  0  0  0  0
   12.9307    0.1435   -0.0000 N   0  0  0  0  0  0  0  0  0  0  0  0
   11.6388   -2.1292   -0.0000 C   0  0  0  0  0  0  0  0  0  0  0  0
   14.2345   -0.5861   -0.0000 N   0  0  0  0  0  0  0  0  0  0  0  0
   12.9427   -2.8708   -0.0000 C   0  0  0  0  0  0  0  0  0  0  0  0
   14.2345   -2.0933   -0.0000 C   0  0  0  0  0  0  0  0  0  0  0  0
   15.5384   -2.8230   -0.0000 O   0  0  0  0  0  0  0  0  0  0  0  0
  1  2  1  0  0  0  0
  2  3  2  0  0  0  0
  2  4  1  0  0  0  0
  3  5  1  0  0  0  0
  4  6  2  0  0  0  0
  5  7  1  0  0  0  0
  5  8  2  0  0  0  0
  7  9  1  0  0  0  0
  9 10  2  0  0  0  0
  9 11  1  0  0  0  0
 10 12  1  0  0  0  0
 10 13  1  0  0  0  0
 11 14  2  0  0  0  0
 12 15  1  0  0  0  0
 13 16  2  0  0  0  0
 13 17  1  0  0  0  0
 14 18  1  0  0  0  0
 18 19  1  0  0  0  0
 19 20  2  0  0  0  0
 19 21  1  0  0  0  0
 20 22  1  0  0  0  0
 21 23  2  0  0  0  0
 22 24  1  0  0  0  0
 24 25  2  0  0  0  0
  6  8  1  0  0  0  0
 14 16  1  0  0  0  0
 15 17  2  0  0  0  0
 23 24  1  0  0  0  0
M  END
>  <MolRegNo>
489168

>  <m>
=

>  <Value>
410

>  <Unit>
nM

>  <Type>
IC50

>  <pValue>
6.39

>  <Ligand Efficiency>
0

>  <Binding Efficiency>
0

>  <Surface Efficiency>
0

>  <Assay Index>
363428

>  <Assay Category>


>  <Assay Organism>


>  <Target ID>
17045

>  <Target Name>
Cytochrome P450 3A4

>  <Target Organism>
Homo sapiens

>  <Target Description>
Target is a single protein chain

>  <Sequence Accession>
P08684

>  <Reference>
Bioorg Med Chem Lett 18 (15), 4352-4354 (2008)

>  <Pubmed ID>
18632268

>  <DOI>
10.1016/j.bmcl.2008.06.072

$$$$
489167
Actelion Java MolfileCreator 1.0

 25 28  0  0  0  0  0  0  0  0999 V2000
    0.0000   -0.0000   -0.0000 Cl  0  0  0  0  0  0  0  0  0  0  0  0
    1.2919   -0.7416   -0.0000 C   0  0  0  0  0  0  0  0  0  0  0  0
    2.5837    0.0239   -0.0000 C   0  0  0  0  0  0  0  0  0  0  0  0
    1.2799   -2.2369   -0.0000 C   0  0  0  0  0  0  0  0  0  0  0  0
    3.8756   -0.7177   -0.0000 C   0  0  0  0  0  0  0  0  0  0  0  0
    2.5837   -2.9785   -0.0000 C   0  0  0  0  0  0  0  0  0  0  0  0
    3.8756   -2.2129   -0.0000 C   0  0  0  0  0  0  0  0  0  0  0  0
    5.1675    0.0478   -0.0000 C   0  0  0  0  0  0  0  0  0  0  0  0
    6.4594   -0.6938   -0.0000 C   0  0  0  0  0  0  0  0  0  0  0  0
    6.4474   -2.1890   -0.0000 C   0  0  0  0  0  0  0  0  0  0  0  0
    7.7512    0.0718   -0.0000 C   0  0  0  0  0  0  0  0  0  0  0  0
    5.3110   -3.1818   -0.0000 O   0  0  0  0  0  0  0  0  0  0  0  0
    7.7393   -2.9426   -0.0000 C   0  0  0  0  0  0  0  0  0  0  0  0
    9.0551   -0.6699   -0.0000 C   0  0  0  0  0  0  0  0  0  0  0  0
    5.9091   -4.5574   -0.0000 C   0  0  0  0  0  0  0  0  0  0  0  0
    9.0431   -2.1770   -0.0000 C   0  0  0  0  0  0  0  0  0  0  0  0
    7.4043   -4.4139   -0.0000 C   0  0  0  0  0  0  0  0  0  0  0  0
   10.3469    0.1077   -0.0000 C   0  0  0  0  0  0  0  0  0  0  0  0
   11.6508   -0.6340   -0.0000 C   0  0  0  0  0  0  0  0  0  0  0  0
   12.9307    0.1435   -0.0000 N   0  0  0  0  0  0  0  0  0  0  0  0
   11.6388   -2.1292   -0.0000 C   0  0  0  0  0  0  0  0  0  0  0  0
   14.2345   -0.5861   -0.0000 N   0  0  0  0  0  0  0  0  0  0  0  0
   12.9427   -2.8708   -0.0000 C   0  0  0  0  0  0  0  0  0  0  0  0
   14.2345   -2.0933   -0.0000 C   0  0  0  0  0  0  0  0  0  0  0  0
   15.5384   -2.8230   -0.0000 O   0  0  0  0  0  0  0  0  0  0  0  0
  1  2  1  0  0  0  0
  2  3  2  0  0  0  0
  2  4  1  0  0  0  0
  3  5  1  0  0  0  0
  4  6  2  0  0  0  0
  5  7  2  0  0  0  0
  5  8  1  0  0  0  0
  8  9  1  0  0  0  0
  9 10  2  0  0  0  0
  9 11  1  0  0  0  0
 10 12  1  0  0  0  0
 10 13  1  0  0  0  0
 11 14  2  0  0  0  0
 12 15  1  0  0  0  0
 13 16  2  0  0  0  0
 13 17  1  0  0  0  0
 14 18  1  0  0  0  0
 18 19  1  0  0  0  0
 19 20  2  0  0  0  0
 19 21  1  0  0  0  0
 20 22  1  0  0  0  0
 21 23  2  0  0  0  0
 22 24  1  0  0  0  0
 24 25  2  0  0  0  0
  6  7  1  0  0  0  0
 14 16  1  0  0  0  0
 15 17  2  0  0  0  0
 23 24  1  0  0  0  0
M  END
>  <MolRegNo>
489167

>  <m>
=

>  <Value>
180

>  <Unit>
nM

>  <Type>
IC50

>  <pValue>
6.75

>  <Ligand Efficiency>
0

>  <Binding Efficiency>
0

>  <Surface Efficiency>
0

>  <Assay Index>
363428

>  <Assay Category>


>  <Assay Organism>


>  <Target ID>
17045

>  <Target Name>
Cytochrome P450 3A4

>  <Target Organism>
Homo sapiens

>  <Target Description>
Target is a single protein chain

>  <Sequence Accession>
P08684

>  <Reference>
Bioorg Med Chem Lett 18 (15), 4352-4354 (2008)

>  <Pubmed ID>
18632268

>  <DOI>
10.1016/j.bmcl.2008.06.072

$$$$
489308
Actelion Java MolfileCreator 1.0

 27 29  0  0  0  0  0  0  0  0999 V2000
    0.0000   -0.0000   -0.0000 Cl  0  0  0  0  0  0  0  0  0  0  0  0
    1.2958    0.7609   -0.0000 C   0  0  0  0  0  0  0  0  0  0  0  0
    1.2839    2.2707   -0.0000 C   0  0  0  0  0  0  0  0  0  0  0  0
    2.5798    0.0119   -0.0000 C   0  0  0  0  0  0  0  0  0  0  0  0
   -0.0238    3.0315   -0.0000 O   0  0  0  0  0  0  0  0  0  0  0  0
    2.5679    3.0315   -0.0000 C   0  0  0  0  0  0  0  0  0  0  0  0
    3.8756    0.7727   -0.0000 C   0  0  0  0  0  0  0  0  0  0  0  0
   -1.3315    2.2944   -0.0000 C   0  0  0  0  0  0  0  0  0  0  0  0
    2.5441    4.5413   -0.0000 F   0  0  0  0  0  0  0  0  0  0  0  0
    3.8637    2.2944   -0.0000 C   0  0  0  0  0  0  0  0  0  0  0  0
   -1.3315    0.8084   -0.0000 C   0  0  0  0  0  0  0  0  0  0  0  0
   -2.6392    3.0553   -0.0000 C   0  0  0  0  0  0  0  0  0  0  0  0
    5.1476    3.0672   -0.0000 C   0  0  0  0  0  0  0  0  0  0  0  0
   -2.6392    0.0594   -0.0000 C   0  0  0  0  0  0  0  0  0  0  0  0
   -3.9469    2.3182   -0.0000 C   0  0  0  0  0  0  0  0  0  0  0  0
    6.4435    2.3301   -0.0000 C   0  0  0  0  0  0  0  0  0  0  0  0
   -2.6392   -1.4266   -0.0000 F   0  0  0  0  0  0  0  0  0  0  0  0
   -3.9588    0.8203   -0.0000 C   0  0  0  0  0  0  0  0  0  0  0  0
   -5.2546    3.0791   -0.0000 C   0  0  0  0  0  0  0  0  0  0  0  0
    7.7155    3.1028   -0.0000 N   0  0  0  0  0  0  0  0  0  0  0  0
    6.4316    0.8441   -0.0000 C   0  0  0  0  0  0  0  0  0  0  0  0
   -6.5742    3.8518   -0.0000 N   0  0  0  0  0  0  0  0  0  0  0  0
    9.0113    2.3777   -0.0000 N   0  0  0  0  0  0  0  0  0  0  0  0
    7.7274    0.1070   -0.0000 C   0  0  0  0  0  0  0  0  0  0  0  0
    9.0113    0.8797   -0.0000 C   0  0  0  0  0  0  0  0  0  0  0  0
    7.7274   -1.3790   -0.0000 C   0  0  0  0  0  0  0  0  0  0  0  0
   10.3072    0.1427   -0.0000 O   0  0  0  0  0  0  0  0  0  0  0  0
  1  2  1  0  0  0  0
  2  3  2  0  0  0  0
  2  4  1  0  0  0  0
  3  5  1  0  0  0  0
  3  6  1  0  0  0  0
  4  7  2  0  0  0  0
  5  8  1  0  0  0  0
  6  9  1  0  0  0  0
  6 10  2  0  0  0  0
  8 11  2  0  0  0  0
  8 12  1  0  0  0  0
 10 13  1  0  0  0  0
 11 14  1  0  0  0  0
 12 15  2  0  0  0  0
 13 16  1  0  0  0  0
 14 17  1  0  0  0  0
 14 18  2  0  0  0  0
 15 19  1  0  0  0  0
 16 20  2  0  0  0  0
 16 21  1  0  0  0  0
 19 22  3  0  0  0  0
 20 23  1  0  0  0  0
 21 24  2  0  0  0  0
 23 25  1  0  0  0  0
 24 26  1  0  0  0  0
 25 27  2  0  0  0  0
  7 10  1  0  0  0  0
 15 18  1  0  0  0  0
 24 25  1  0  0  0  0
M  END
>  <MolRegNo>
489308

>  <m>
=

>  <Value>
24000

>  <Unit>
nM

>  <Type>
IC50

>  <pValue>
4.62

>  <Ligand Efficiency>
0

>  <Binding Efficiency>
0

>  <Surface Efficiency>
0

>  <Assay Index>
363428

>  <Assay Category>


>  <Assay Organism>


>  <Target ID>
17045

>  <Target Name>
Cytochrome P450 3A4

>  <Target Organism>
Homo sapiens

>  <Target Description>
Target is a single protein chain

>  <Sequence Accession>
P08684

>  <Reference>
Bioorg Med Chem Lett 18 (15), 4352-4354 (2008)

>  <Pubmed ID>
18632268

>  <DOI>
10.1016/j.bmcl.2008.06.072

$$$$
454219
Actelion Java MolfileCreator 1.0

 25 28  0  0  0  0  0  0  0  0999 V2000
    0.0000   -0.0000   -0.0000 S   0  0  0  0  0  0  0  0  0  0  0  0
   -1.5030    0.0118   -0.0000 C   0  0  0  0  0  0  0  0  0  0  0  0
    0.4497    1.4320   -0.0000 C   0  0  0  0  0  0  0  0  0  0  0  0
   -2.7338   -0.8639   -0.0000 N   0  0  0  0  0  0  0  0  0  0  0  0
   -1.9764    1.4557   -0.0000 N   0  0  0  0  0  0  0  0  0  0  0  0
   -0.7811    2.3315   -0.0000 C   0  0  0  0  0  0  0  0  0  0  0  0
   -3.9647    0.0355   -0.0000 C   0  0  0  0  0  0  0  0  0  0  0  0
   -3.4913    1.4675   -0.0000 C   0  0  0  0  0  0  0  0  0  0  0  0
   -0.7929    3.8345   -0.0000 C   0  0  0  0  0  0  0  0  0  0  0  0
   -2.0948    4.6037   -0.0000 S   0  0  0  0  0  0  0  0  0  0  0  0
   -2.1066    6.1068   -0.0000 C   0  0  0  0  0  0  0  0  0  0  0  0
   -3.4084    6.8760   -0.0000 N   0  0  0  0  0  0  0  0  0  0  0  0
   -0.8166    6.8642   -0.0000 N   0  0  0  0  0  0  0  0  0  0  0  0
   -4.7221    6.1423   -0.0000 C   0  0  0  0  0  0  0  0  0  0  0  0
    0.4616    6.1186   -0.0000 C   0  0  0  0  0  0  0  0  0  0  0  0
   -6.0239    6.9115   -0.0000 C   0  0  0  0  0  0  0  0  0  0  0  0
   -4.7339    4.6629   -0.0000 C   0  0  0  0  0  0  0  0  0  0  0  0
    0.4379    4.6274   -0.0000 C   0  0  0  0  0  0  0  0  0  0  0  0
    1.7397    6.8760   -0.0000 C   0  0  0  0  0  0  0  0  0  0  0  0
   -7.3258    6.1659   -0.0000 C   0  0  0  0  0  0  0  0  0  0  0  0
   -6.0358    3.9292   -0.0000 C   0  0  0  0  0  0  0  0  0  0  0  0
    1.7161    3.8818   -0.0000 C   0  0  0  0  0  0  0  0  0  0  0  0
    3.0179    6.1304   -0.0000 C   0  0  0  0  0  0  0  0  0  0  0  0
   -7.3376    4.6866   -0.0000 C   0  0  0  0  0  0  0  0  0  0  0  0
    3.0060    4.6274   -0.0000 C   0  0  0  0  0  0  0  0  0  0  0  0
  1  2  1  0  0  0  0
  1  3  1  0  0  0  0
  2  4  2  0  0  0  0
  2  5  1  0  0  0  0
  3  6  2  0  0  0  0
  4  7  1  0  0  0  0
  5  8  1  0  0  0  0
  6  9  1  0  0  0  0
  9 10  1  0  0  0  0
 10 11  1  0  0  0  0
 11 12  2  0  0  0  0
 11 13  1  0  0  0  0
 12 14  1  0  0  0  0
 13 15  1  0  0  0  0
 14 16  1  0  0  0  0
 14 17  1  0  0  0  0
 15 18  1  0  0  0  0
 15 19  1  0  0  0  0
 16 20  1  0  0  0  0
 17 21  1  0  0  0  0
 18 22  1  0  0  0  0
 19 23  1  0  0  0  0
 20 24  1  0  0  0  0
 22 25  1  0  0  0  0
  5  6  1  0  0  0  0
  7  8  1  0  0  0  0
 21 24  1  0  0  0  0
 23 25  1  0  0  0  0
M  END
>  <MolRegNo>
454219

>  <m>
=

>  <Value>
3860

>  <Unit>
nM

>  <Type>
IC50

>  <pValue>
5.41

>  <Ligand Efficiency>
0

>  <Binding Efficiency>
0

>  <Surface Efficiency>
0

>  <Assay Index>
405809

>  <Assay Category>


>  <Assay Organism>


>  <Target ID>
17045

>  <Target Name>
Cytochrome P450 3A4

>  <Target Organism>
Homo sapiens

>  <Target Description>
Target is a single protein chain

>  <Sequence Accession>
P08684

>  <Reference>
J Med Chem 51 (24), 7915-7920 (2008)

>  <Pubmed ID>
19053768

>  <DOI>
10.1021/jm801065q

$$$$
453111
Actelion Java MolfileCreator 1.0

 36 40  0  0  0  0  0  0  0  0999 V2000
    0.0000   -0.0000   -0.0000 F   0  0  0  0  0  0  0  0  0  0  0  0
   -0.7473    1.3166   -0.0000 C   0  0  0  0  0  0  0  0  0  0  0  0
    0.0000    2.6213   -0.0000 C   0  0  0  0  0  0  0  0  0  0  0  0
   -2.2536    1.3403   -0.0000 C   0  0  0  0  0  0  0  0  0  0  0  0
   -0.7591    3.9379   -0.0000 C   0  0  0  0  0  0  0  0  0  0  0  0
   -2.9890    2.6569   -0.0000 C   0  0  0  0  0  0  0  0  0  0  0  0
   -0.0119    5.2426   -0.0000 F   0  0  0  0  0  0  0  0  0  0  0  0
   -2.2655    3.9616   -0.0000 C   0  0  0  0  0  0  0  0  0  0  0  0
   -4.4954    2.6806   -0.0000 C   0  0  0  0  0  0  0  0  0  0  0  0
   -5.2426    3.9972   -0.0000 C   0  0  0  0  0  0  0  0  0  0  0  0
   -6.7490    4.0209   -0.0000 C   0  0  0  0  0  0  0  0  0  0  0  0
   -7.5200    2.7518   -0.0000 O   0  0  0  0  0  0  0  0  0  0  0  0
   -7.4963    5.3375   -0.0000 N   0  0  0  0  0  0  0  0  0  0  0  0
   -9.0026    5.3731   -0.0000 C   0  0  0  0  0  0  0  0  0  0  0  0
   -6.7490    6.6423   -0.0000 C   0  0  0  0  0  0  0  0  0  0  0  0
   -9.7499    6.6778   -0.0000 C   0  0  0  0  0  0  0  0  0  0  0  0
   -7.4963    7.9588   -0.0000 C   0  0  0  0  0  0  0  0  0  0  0  0
   -8.9908    7.9826   -0.0000 C   0  0  0  0  0  0  0  0  0  0  0  0
   -9.7380    9.2992   -0.0000 C   0  0  0  0  0  0  0  0  0  0  0  0
   -8.9789   10.5802   -0.0000 N   0  0  0  0  0  0  0  0  0  0  0  0
  -11.2444    9.3347   -0.0000 C   0  0  0  0  0  0  0  0  0  0  0  0
   -7.4844   10.5683   -0.0000 C   0  0  0  0  0  0  0  0  0  0  0  0
   -9.7262   11.9086   -0.0000 C   0  0  0  0  0  0  0  0  0  0  0  0
  -11.9798   10.6513   -0.0000 O   0  0  0  0  0  0  0  0  0  0  0  0
   -6.7371   11.8730   -0.0000 C   0  0  0  0  0  0  0  0  0  0  0  0
   -8.9670   13.2015   -0.0000 C   0  0  0  0  0  0  0  0  0  0  0  0
   -7.4844   13.2015   -0.0000 C   0  0  0  0  0  0  0  0  0  0  0  0
   -6.7253   14.4943   -0.0000 C   0  0  0  0  0  0  0  0  0  0  0  0
   -5.2545   14.6485   -0.0000 C   0  0  0  0  0  0  0  0  0  0  0  0
   -7.3183   15.8821   -0.0000 C   0  0  0  0  0  0  0  0  0  0  0  0
   -4.9342   16.1075   -0.0000 C   0  0  0  0  0  0  0  0  0  0  0  0
   -4.1751   13.6522   -0.0000 C   0  0  0  0  0  0  0  0  0  0  0  0
   -6.2034   16.8784   -0.0000 N   0  0  0  0  0  0  0  0  0  0  0  0
   -3.5346   16.5582   -0.0000 N   0  0  0  0  0  0  0  0  0  0  0  0
   -2.7637   14.1029   -0.0000 C   0  0  0  0  0  0  0  0  0  0  0  0
   -2.4553   15.5618   -0.0000 C   0  0  0  0  0  0  0  0  0  0  0  0
  1  2  1  0  0  0  0
  2  3  2  0  0  0  0
  2  4  1  0  0  0  0
  3  5  1  0  0  0  0
  4  6  2  0  0  0  0
  5  7  1  0  0  0  0
  5  8  2  0  0  0  0
  6  9  1  0  0  0  0
  9 10  2  0  0  0  0
 10 11  1  0  0  0  0
 11 12  2  0  0  0  0
 11 13  1  0  0  0  0
 13 14  1  0  0  0  0
 13 15  1  0  0  0  0
 14 16  1  0  0  0  0
 15 17  1  0  0  0  0
 16 18  1  0  0  0  0
 18 19  1  0  0  0  0
 19 20  1  6  0  0  0
 19 21  1  0  0  0  0
 20 22  1  0  0  0  0
 20 23  1  0  0  0  0
 21 24  1  0  0  0  0
 22 25  1  0  0  0  0
 23 26  1  0  0  0  0
 25 27  1  0  0  0  0
 27 28  1  0  0  0  0
 28 29  1  0  0  0  0
 28 30  2  0  0  0  0
 29 31  2  0  0  0  0
 29 32  1  0  0  0  0
 30 33  1  0  0  0  0
 31 34  1  0  0  0  0
 32 35  2  0  0  0  0
 34 36  2  0  0  0  0
  6  8  1  0  0  0  0
 17 18  1  0  0  0  0
 26 27  1  0  0  0  0
 31 33  1  0  0  0  0
 35 36  1  0  0  0  0
M  END
>  <MolRegNo>
453111

>  <m>
=

>  <Value>
25200

>  <Unit>
nM

>  <Type>
IC50

>  <pValue>
4.6

>  <Ligand Efficiency>
0

>  <Binding Efficiency>
0

>  <Surface Efficiency>
0

>  <Assay Index>
407988

>  <Assay Category>


>  <Assay Organism>
Homo sapiens

>  <Target ID>
17045

>  <Target Name>
Cytochrome P450 3A4

>  <Target Organism>
Homo sapiens

>  <Target Description>
Target is a single protein chain

>  <Sequence Accession>
P08684

>  <Reference>
Bioorg Med Chem Lett 18 (24), 6468-6470 (2008)

>  <Pubmed ID>
18990568

>  <DOI>
10.1016/j.bmcl.2008.10.061

$$$$
473211
Actelion Java MolfileCreator 1.0

 42 46  0  0  1  0  0  0  0  0999 V2000
    0.0000   -0.0000   -0.0000 O   0  0  0  0  0  0  0  0  0  0  0  0
   -0.0119    1.5080   -0.0000 C   0  0  0  0  0  0  0  0  0  0  0  0
   -1.3181    2.2680   -0.0000 N   0  0  0  0  0  0  0  0  0  0  0  0
    1.2706    2.2680   -0.0000 N   0  0  0  0  0  0  0  0  0  0  0  0
   -2.6242    1.5318   -0.0000 C   0  0  0  0  0  0  0  0  0  0  0  0
   -1.3299    3.7760   -0.0000 C   0  0  0  0  0  0  0  0  0  0  0  0
    2.5530    1.5318   -0.0000 C   0  0  0  0  0  0  0  0  0  0  0  0
   -2.6361    0.0475   -0.0000 C   0  0  0  0  0  0  0  0  0  0  0  0
   -0.0475    4.5360   -0.0000 C   0  0  0  0  0  0  0  0  0  0  0  0
    2.5411    0.0475   -0.0000 C   0  0  0  0  0  0  0  0  0  0  0  0
    3.8235    2.2917   -0.0000 C   0  0  0  0  0  0  0  0  0  0  0  0
   -3.9423   -0.6887   -0.0000 C   0  0  0  0  0  0  0  0  0  0  0  0
   -1.3537   -0.6768   -0.0000 C   0  0  0  0  0  0  0  0  0  0  0  0
   -0.0594    6.0440   -0.0000 C   0  0  0  0  0  0  0  0  0  0  0  0
    3.8235   -0.6887   -0.0000 C   0  0  0  0  0  0  0  0  0  0  0  0
    5.1060    1.5555   -0.0000 C   0  0  0  0  0  0  0  0  0  0  0  0
   -5.2485    0.0712   -0.0000 C   0  0  0  0  0  0  0  0  0  0  0  0
   -3.9542   -2.1730   -0.0000 C   0  0  0  0  0  0  0  0  0  0  0  0
   -1.3537   -2.1730   -0.0000 C   0  0  0  0  0  0  0  0  0  0  0  0
   -1.3655    6.7921   -0.0000 C   0  0  0  0  0  0  0  0  0  0  0  0
    1.2231    6.8040   -0.0000 C   0  0  0  0  0  0  0  0  0  0  0  0
    5.1060    0.0712   -0.0000 C   0  0  0  0  0  0  0  0  0  0  0  0
   -6.5665   -0.6650   -0.0000 C   0  0  0  0  0  0  0  0  0  0  0  0
   -5.2603    1.5912   -0.0000 C   0  0  0  0  0  0  0  0  0  0  0  0
   -2.6717   -2.9092   -0.0000 C   0  0  0  0  0  0  0  0  0  0  0  0
   -1.3893    8.3002   -0.0000 C   0  0  0  0  0  0  0  0  0  0  0  0
    1.2112    8.3120   -0.0000 C   0  0  0  0  0  0  0  0  0  0  0  0
   -7.8727    0.0950   -0.0000 C   0  0  0  0  0  0  0  0  0  0  0  0
   -6.5784    2.3392   -0.0000 C   0  0  0  0  0  0  0  0  0  0  0  0
   -2.7073    9.0482   -0.0000 O   0  0  0  0  0  0  0  0  0  0  0  0
   -0.1069    9.0720   -0.0000 C   0  0  0  0  0  0  0  0  0  0  0  0
   -7.8846    1.6030   -0.0000 C   0  0  0  0  0  0  0  0  0  0  0  0
   -2.7311   10.5563   -0.0000 C   0  0  0  0  0  0  0  0  0  0  0  0
   -9.1907    2.3630   -0.0000 C   0  0  0  0  0  0  0  0  0  0  0  0
   -9.2026    3.8710   -0.0000 N   0  0  0  0  0  0  0  0  0  0  0  0
   -7.9202    4.6310   -0.0000 C   0  0  0  0  0  0  0  0  0  0  0  0
  -10.5088    4.6310   -0.0000 C   0  0  0  0  0  0  0  0  0  0  0  0
   -7.9321    6.1390   -0.0000 C   0  0  0  0  0  0  0  0  0  0  0  0
  -10.5207    6.1390   -0.0000 C   0  0  0  0  0  0  0  0  0  0  0  0
   -9.2382    6.9109   -0.0000 N   0  0  0  0  0  0  0  0  0  0  0  0
   -6.6496    6.8990   -0.0000 C   0  0  0  0  0  0  0  0  0  0  0  0
  -11.8268    6.8990   -0.0000 C   0  0  0  0  0  0  0  0  0  0  0  0
  1  2  2  0  0  0  0
  2  3  1  0  0  0  0
  2  4  1  0  0  0  0
  3  5  1  0  0  0  0
  3  6  1  0  0  0  0
  4  7  1  0  0  0  0
  5  8  1  0  0  0  0
  6  9  1  0  0  0  0
  7 10  1  0  0  0  0
  7 11  1  0  0  0  0
  8 12  2  0  0  0  0
  8 13  1  0  0  0  0
  9 14  1  0  0  0  0
 10 15  1  0  0  0  0
 11 16  1  0  0  0  0
 12 17  1  0  0  0  0
 12 18  1  0  0  0  0
 13 19  2  0  0  0  0
 14 20  2  0  0  0  0
 14 21  1  0  0  0  0
 15 22  1  0  0  0  0
 17 23  2  0  0  0  0
 17 24  1  0  0  0  0
 18 25  2  0  0  0  0
 20 26  1  0  0  0  0
 21 27  2  0  0  0  0
 23 28  1  0  0  0  0
 24 29  2  0  0  0  0
 26 30  1  0  0  0  0
 26 31  2  0  0  0  0
 28 32  2  0  0  0  0
 30 33  1  0  0  0  0
 32 34  1  0  0  0  0
 34 35  1  0  0  0  0
 35 36  1  0  0  0  0
 35 37  1  0  0  0  0
 36 38  1  0  0  0  0
 37 39  1  0  0  0  0
 38 40  1  0  0  0  0
 38 41  1  1  0  0  0
 39 42  1  1  0  0  0
 16 22  1  0  0  0  0
 19 25  1  0  0  0  0
 27 31  1  0  0  0  0
 29 32  1  0  0  0  0
 39 40  1  0  0  0  0
M  END
>  <MolRegNo>
473211

>  <m>
=

>  <Value>
200

>  <Unit>
nM

>  <Type>
IC50

>  <pValue>
6.7

>  <Ligand Efficiency>
0

>  <Binding Efficiency>
0

>  <Surface Efficiency>
0

>  <Assay Index>
408783

>  <Assay Category>


>  <Assay Organism>


>  <Target ID>
17045

>  <Target Name>
Cytochrome P450 3A4

>  <Target Organism>
Homo sapiens

>  <Target Description>
Target is a single protein chain

>  <Sequence Accession>
P08684

>  <Reference>
Bioorg Med Chem Lett 18 (24), 6429-6436 (2008)

>  <Pubmed ID>
19006669

>  <DOI>
10.1016/j.bmcl.2008.10.072

$$$$
473212
Actelion Java MolfileCreator 1.0

 34 37  0  0  1  0  0  0  0  0999 V2000
    0.0000   -0.0000   -0.0000 O   0  0  0  0  0  0  0  0  0  0  0  0
   -0.0119    1.5080   -0.0000 C   0  0  0  0  0  0  0  0  0  0  0  0
   -1.3180    2.2680   -0.0000 N   0  0  0  0  0  0  0  0  0  0  0  0
    1.2705    2.2680   -0.0000 C   0  0  0  0  0  0  0  0  0  0  0  0
   -2.6242    1.5318   -0.0000 C   0  0  0  0  0  0  0  0  0  0  0  0
   -1.3299    3.7760   -0.0000 C   0  0  0  0  0  0  0  0  0  0  0  0
    2.5530    1.5318   -0.0000 O   0  0  0  0  0  0  0  0  0  0  0  0
   -2.6361    0.0475   -0.0000 C   0  0  0  0  0  0  0  0  0  0  0  0
    3.8354    2.2917   -0.0000 C   0  0  0  0  0  0  0  0  0  0  0  0
   -3.9423   -0.6887   -0.0000 C   0  0  0  0  0  0  0  0  0  0  0  0
   -1.3537   -0.6768   -0.0000 C   0  0  0  0  0  0  0  0  0  0  0  0
    5.1178    1.5555   -0.0000 C   0  0  0  0  0  0  0  0  0  0  0  0
    3.8116    3.7879   -0.0000 C   0  0  0  0  0  0  0  0  0  0  0  0
   -5.2484    0.0712   -0.0000 C   0  0  0  0  0  0  0  0  0  0  0  0
   -3.9541   -2.1730   -0.0000 C   0  0  0  0  0  0  0  0  0  0  0  0
   -1.3537   -2.1730   -0.0000 C   0  0  0  0  0  0  0  0  0  0  0  0
    6.4002    2.3155   -0.0000 C   0  0  0  0  0  0  0  0  0  0  0  0
    5.0822    4.5597   -0.0000 C   0  0  0  0  0  0  0  0  0  0  0  0
   -6.5665   -0.6650   -0.0000 C   0  0  0  0  0  0  0  0  0  0  0  0
   -5.2603    1.5912   -0.0000 C   0  0  0  0  0  0  0  0  0  0  0  0
   -2.6717   -2.9092   -0.0000 C   0  0  0  0  0  0  0  0  0  0  0  0
    6.3884    3.8235   -0.0000 C   0  0  0  0  0  0  0  0  0  0  0  0
   -7.8726    0.0950   -0.0000 C   0  0  0  0  0  0  0  0  0  0  0  0
   -6.5783    2.3392   -0.0000 C   0  0  0  0  0  0  0  0  0  0  0  0
   -7.8845    1.6030   -0.0000 C   0  0  0  0  0  0  0  0  0  0  0  0
   -9.1907    2.3630   -0.0000 C   0  0  0  0  0  0  0  0  0  0  0  0
   -9.2026    3.8710   -0.0000 N   0  0  0  0  0  0  0  0  0  0  0  0
   -7.9201    4.6310   -0.0000 C   0  0  0  0  0  0  0  0  0  0  0  0
  -10.5087    4.6310   -0.0000 C   0  0  0  0  0  0  0  0  0  0  0  0
   -7.9320    6.1390   -0.0000 C   0  0  0  0  0  0  0  0  0  0  0  0
  -10.5206    6.1390   -0.0000 C   0  0  0  0  0  0  0  0  0  0  0  0
   -9.2382    6.9108   -0.0000 N   0  0  0  0  0  0  0  0  0  0  0  0
   -6.6496    6.8990   -0.0000 C   0  0  0  0  0  0  0  0  0  0  0  0
  -11.8268    6.8990   -0.0000 C   0  0  0  0  0  0  0  0  0  0  0  0
  1  2  2  0  0  0  0
  2  3  1  0  0  0  0
  2  4  1  0  0  0  0
  3  5  1  0  0  0  0
  3  6  1  0  0  0  0
  4  7  1  0  0  0  0
  5  8  1  0  0  0  0
  7  9  1  0  0  0  0
  8 10  2  0  0  0  0
  8 11  1  0  0  0  0
  9 12  2  0  0  0  0
  9 13  1  0  0  0  0
 10 14  1  0  0  0  0
 10 15  1  0  0  0  0
 11 16  2  0  0  0  0
 12 17  1  0  0  0  0
 13 18  2  0  0  0  0
 14 19  2  0  0  0  0
 14 20  1  0  0  0  0
 15 21  2  0  0  0  0
 17 22  2  0  0  0  0
 19 23  1  0  0  0  0
 20 24  2  0  0  0  0
 23 25  2  0  0  0  0
 25 26  1  0  0  0  0
 26 27  1  0  0  0  0
 27 28  1  0  0  0  0
 27 29  1  0  0  0  0
 28 30  1  0  0  0  0
 29 31  1  0  0  0  0
 30 32  1  0  0  0  0
 30 33  1  1  0  0  0
 31 34  1  1  0  0  0
 16 21  1  0  0  0  0
 18 22  1  0  0  0  0
 24 25  1  0  0  0  0
 31 32  1  0  0  0  0
M  END
>  <MolRegNo>
473212

>  <m>
=

>  <Value>
7000

>  <Unit>
nM

>  <Type>
IC50

>  <pValue>
5.16

>  <Ligand Efficiency>
0

>  <Binding Efficiency>
0

>  <Surface Efficiency>
0

>  <Assay Index>
408783

>  <Assay Category>


>  <Assay Organism>


>  <Target ID>
17045

>  <Target Name>
Cytochrome P450 3A4

>  <Target Organism>
Homo sapiens

>  <Target Description>
Target is a single protein chain

>  <Sequence Accession>
P08684

>  <Reference>
Bioorg Med Chem Lett 18 (24), 6429-6436 (2008)

>  <Pubmed ID>
19006669

>  <DOI>
10.1016/j.bmcl.2008.10.072

$$$$
473213
Actelion Java MolfileCreator 1.0

 35 38  0  0  1  0  0  0  0  0999 V2000
    0.0000   -0.0000   -0.0000 F   0  0  0  0  0  0  0  0  0  0  0  0
   -1.3049   -0.7474   -0.0000 C   0  0  0  0  0  0  0  0  0  0  0  0
   -1.3168   -2.2302   -0.0000 C   0  0  0  0  0  0  0  0  0  0  0  0
   -2.6217    0.0119   -0.0000 C   0  0  0  0  0  0  0  0  0  0  0  0
   -2.6217   -2.9657   -0.0000 C   0  0  0  0  0  0  0  0  0  0  0  0
   -3.9147   -0.7355   -0.0000 C   0  0  0  0  0  0  0  0  0  0  0  0
   -3.9266   -2.2065   -0.0000 C   0  0  0  0  0  0  0  0  0  0  0  0
   -5.2315   -2.9420   -0.0000 O   0  0  0  0  0  0  0  0  0  0  0  0
   -6.5364   -2.1828   -0.0000 C   0  0  0  0  0  0  0  0  0  0  0  0
   -7.8413   -2.9182   -0.0000 C   0  0  0  0  0  0  0  0  0  0  0  0
   -7.8532   -4.4011   -0.0000 O   0  0  0  0  0  0  0  0  0  0  0  0
   -9.1462   -2.1590   -0.0000 N   0  0  0  0  0  0  0  0  0  0  0  0
  -10.4511   -2.8945   -0.0000 C   0  0  0  0  0  0  0  0  0  0  0  0
   -9.1581   -0.6525   -0.0000 C   0  0  0  0  0  0  0  0  0  0  0  0
  -10.4630   -4.3774   -0.0000 C   0  0  0  0  0  0  0  0  0  0  0  0
  -11.7679   -5.1129   -0.0000 C   0  0  0  0  0  0  0  0  0  0  0  0
   -9.1818   -5.1010   -0.0000 C   0  0  0  0  0  0  0  0  0  0  0  0
  -13.0728   -4.3536   -0.0000 C   0  0  0  0  0  0  0  0  0  0  0  0
  -11.7798   -6.5957   -0.0000 C   0  0  0  0  0  0  0  0  0  0  0  0
   -9.1818   -6.5957   -0.0000 C   0  0  0  0  0  0  0  0  0  0  0  0
  -14.3896   -5.0891   -0.0000 C   0  0  0  0  0  0  0  0  0  0  0  0
  -13.0847   -2.8352   -0.0000 C   0  0  0  0  0  0  0  0  0  0  0  0
  -10.4986   -7.3312   -0.0000 C   0  0  0  0  0  0  0  0  0  0  0  0
  -15.6945   -4.3299   -0.0000 C   0  0  0  0  0  0  0  0  0  0  0  0
  -14.4014   -2.0879   -0.0000 C   0  0  0  0  0  0  0  0  0  0  0  0
  -15.7063   -2.8233   -0.0000 C   0  0  0  0  0  0  0  0  0  0  0  0
  -17.0112   -2.0641   -0.0000 C   0  0  0  0  0  0  0  0  0  0  0  0
  -17.0231   -0.5576   -0.0000 N   0  0  0  0  0  0  0  0  0  0  0  0
  -15.7419    0.2017   -0.0000 C   0  0  0  0  0  0  0  0  0  0  0  0
  -18.3280    0.2017   -0.0000 C   0  0  0  0  0  0  0  0  0  0  0  0
  -15.7538    1.7082   -0.0000 C   0  0  0  0  0  0  0  0  0  0  0  0
  -18.3399    1.7082   -0.0000 C   0  0  0  0  0  0  0  0  0  0  0  0
  -17.0587    2.4793   -0.0000 N   0  0  0  0  0  0  0  0  0  0  0  0
  -14.4726    2.4675   -0.0000 C   0  0  0  0  0  0  0  0  0  0  0  0
  -19.6448    2.4675   -0.0000 C   0  0  0  0  0  0  0  0  0  0  0  0
  1  2  1  0  0  0  0
  2  3  2  0  0  0  0
  2  4  1  0  0  0  0
  3  5  1  0  0  0  0
  4  6  2  0  0  0  0
  5  7  2  0  0  0  0
  7  8  1  0  0  0  0
  8  9  1  0  0  0  0
  9 10  1  0  0  0  0
 10 11  2  0  0  0  0
 10 12  1  0  0  0  0
 12 13  1  0  0  0  0
 12 14  1  0  0  0  0
 13 15  1  0  0  0  0
 15 16  2  0  0  0  0
 15 17  1  0  0  0  0
 16 18  1  0  0  0  0
 16 19  1  0  0  0  0
 17 20  2  0  0  0  0
 18 21  2  0  0  0  0
 18 22  1  0  0  0  0
 19 23  2  0  0  0  0
 21 24  1  0  0  0  0
 22 25  2  0  0  0  0
 24 26  2  0  0  0  0
 26 27  1  0  0  0  0
 27 28  1  0  0  0  0
 28 29  1  0  0  0  0
 28 30  1  0  0  0  0
 29 31  1  0  0  0  0
 30 32  1  0  0  0  0
 31 33  1  0  0  0  0
 31 34  1  1  0  0  0
 32 35  1  1  0  0  0
  6  7  1  0  0  0  0
 20 23  1  0  0  0  0
 25 26  1  0  0  0  0
 32 33  1  0  0  0  0
M  END
>  <MolRegNo>
473213

>  <m>
=

>  <Value>
6000

>  <Unit>
nM

>  <Type>
IC50

>  <pValue>
5.22

>  <Ligand Efficiency>
0

>  <Binding Efficiency>
0

>  <Surface Efficiency>
0

>  <Assay Index>
408783

>  <Assay Category>


>  <Assay Organism>


>  <Target ID>
17045

>  <Target Name>
Cytochrome P450 3A4

>  <Target Organism>
Homo sapiens

>  <Target Description>
Target is a single protein chain

>  <Sequence Accession>
P08684

>  <Reference>
Bioorg Med Chem Lett 18 (24), 6429-6436 (2008)

>  <Pubmed ID>
19006669

>  <DOI>
10.1016/j.bmcl.2008.10.072

$$$$
473281
Actelion Java MolfileCreator 1.0

 34 37  0  0  1  0  0  0  0  0999 V2000
    0.0000   -0.0000   -0.0000 Cl  0  0  0  0  0  0  0  0  0  0  0  0
   -1.3048   -0.7473   -0.0000 C   0  0  0  0  0  0  0  0  0  0  0  0
   -2.6096   -0.0000   -0.0000 C   0  0  0  0  0  0  0  0  0  0  0  0
   -1.3048   -2.2419   -0.0000 C   0  0  0  0  0  0  0  0  0  0  0  0
   -3.9026   -0.7473   -0.0000 C   0  0  0  0  0  0  0  0  0  0  0  0
   -2.6096   -2.9774   -0.0000 C   0  0  0  0  0  0  0  0  0  0  0  0
   -3.9145   -2.2301   -0.0000 C   0  0  0  0  0  0  0  0  0  0  0  0
   -5.2074    0.0119   -0.0000 C   0  0  0  0  0  0  0  0  0  0  0  0
   -6.5122   -0.7236   -0.0000 C   0  0  0  0  0  0  0  0  0  0  0  0
   -6.5241   -2.2063   -0.0000 O   0  0  0  0  0  0  0  0  0  0  0  0
   -7.8171    0.0356   -0.0000 N   0  0  0  0  0  0  0  0  0  0  0  0
   -9.1219   -0.6999   -0.0000 C   0  0  0  0  0  0  0  0  0  0  0  0
   -7.8289    1.5421   -0.0000 C   0  0  0  0  0  0  0  0  0  0  0  0
   -9.1338   -2.1826   -0.0000 C   0  0  0  0  0  0  0  0  0  0  0  0
  -10.4386   -2.9181   -0.0000 C   0  0  0  0  0  0  0  0  0  0  0  0
   -7.8527   -2.9062   -0.0000 C   0  0  0  0  0  0  0  0  0  0  0  0
  -11.7434   -2.1589   -0.0000 C   0  0  0  0  0  0  0  0  0  0  0  0
  -10.4504   -4.4008   -0.0000 C   0  0  0  0  0  0  0  0  0  0  0  0
   -7.8527   -4.4008   -0.0000 C   0  0  0  0  0  0  0  0  0  0  0  0
  -13.0601   -2.8943   -0.0000 C   0  0  0  0  0  0  0  0  0  0  0  0
  -11.7553   -0.6405   -0.0000 C   0  0  0  0  0  0  0  0  0  0  0  0
   -9.1693   -5.1363   -0.0000 C   0  0  0  0  0  0  0  0  0  0  0  0
  -14.3649   -2.1352   -0.0000 C   0  0  0  0  0  0  0  0  0  0  0  0
  -13.0719    0.1068   -0.0000 C   0  0  0  0  0  0  0  0  0  0  0  0
  -14.3768   -0.6287   -0.0000 C   0  0  0  0  0  0  0  0  0  0  0  0
  -15.6816    0.1305   -0.0000 C   0  0  0  0  0  0  0  0  0  0  0  0
  -15.6934    1.6370   -0.0000 N   0  0  0  0  0  0  0  0  0  0  0  0
  -14.4123    2.3961   -0.0000 C   0  0  0  0  0  0  0  0  0  0  0  0
  -16.9983    2.3961   -0.0000 C   0  0  0  0  0  0  0  0  0  0  0  0
  -14.4242    3.9026   -0.0000 C   0  0  0  0  0  0  0  0  0  0  0  0
  -17.0101    3.9026   -0.0000 C   0  0  0  0  0  0  0  0  0  0  0  0
  -15.7290    4.6736   -0.0000 N   0  0  0  0  0  0  0  0  0  0  0  0
  -13.1431    4.6618   -0.0000 C   0  0  0  0  0  0  0  0  0  0  0  0
  -18.3149    4.6618   -0.0000 C   0  0  0  0  0  0  0  0  0  0  0  0
  1  2  1  0  0  0  0
  2  3  2  0  0  0  0
  2  4  1  0  0  0  0
  3  5  1  0  0  0  0
  4  6  2  0  0  0  0
  5  7  2  0  0  0  0
  5  8  1  0  0  0  0
  8  9  1  0  0  0  0
  9 10  2  0  0  0  0
  9 11  1  0  0  0  0
 11 12  1  0  0  0  0
 11 13  1  0  0  0  0
 12 14  1  0  0  0  0
 14 15  2  0  0  0  0
 14 16  1  0  0  0  0
 15 17  1  0  0  0  0
 15 18  1  0  0  0  0
 16 19  2  0  0  0  0
 17 20  2  0  0  0  0
 17 21  1  0  0  0  0
 18 22  2  0  0  0  0
 20 23  1  0  0  0  0
 21 24  2  0  0  0  0
 23 25  2  0  0  0  0
 25 26  1  0  0  0  0
 26 27  1  0  0  0  0
 27 28  1  0  0  0  0
 27 29  1  0  0  0  0
 28 30  1  0  0  0  0
 29 31  1  0  0  0  0
 30 32  1  0  0  0  0
 30 33  1  1  0  0  0
 31 34  1  1  0  0  0
  6  7  1  0  0  0  0
 19 22  1  0  0  0  0
 24 25  1  0  0  0  0
 31 32  1  0  0  0  0
M  END
>  <MolRegNo>
473281

>  <m>
=

>  <Value>
1400

>  <Unit>
nM

>  <Type>
IC50

>  <pValue>
5.85

>  <Ligand Efficiency>
0

>  <Binding Efficiency>
0

>  <Surface Efficiency>
0

>  <Assay Index>
408783

>  <Assay Category>


>  <Assay Organism>


>  <Target ID>
17045

>  <Target Name>
Cytochrome P450 3A4

>  <Target Organism>
Homo sapiens

>  <Target Description>
Target is a single protein chain

>  <Sequence Accession>
P08684

>  <Reference>
Bioorg Med Chem Lett 18 (24), 6429-6436 (2008)

>  <Pubmed ID>
19006669

>  <DOI>
10.1016/j.bmcl.2008.10.072

$$$$
473283
Actelion Java MolfileCreator 1.0

 36 39  0  0  1  0  0  0  0  0999 V2000
    0.0000   -0.0000   -0.0000 S   0  0  0  0  0  0  0  0  0  0  0  0
   -0.7605   -1.2834   -0.0000 O   0  0  0  0  0  0  0  0  0  0  0  0
    0.7249    1.3190   -0.0000 O   0  0  0  0  0  0  0  0  0  0  0  0
    1.2834   -0.7368   -0.0000 C   0  0  0  0  0  0  0  0  0  0  0  0
   -1.3072    0.7605   -0.0000 C   0  0  0  0  0  0  0  0  0  0  0  0
    1.2715   -2.2222   -0.0000 C   0  0  0  0  0  0  0  0  0  0  0  0
    2.5549    0.0356   -0.0000 C   0  0  0  0  0  0  0  0  0  0  0  0
   -2.6143    0.0238   -0.0000 C   0  0  0  0  0  0  0  0  0  0  0  0
    2.5549   -2.9589   -0.0000 C   0  0  0  0  0  0  0  0  0  0  0  0
    3.8383   -0.6892   -0.0000 C   0  0  0  0  0  0  0  0  0  0  0  0
   -2.6262   -1.4616   -0.0000 O   0  0  0  0  0  0  0  0  0  0  0  0
   -3.9215    0.7843   -0.0000 N   0  0  0  0  0  0  0  0  0  0  0  0
    3.8383   -2.1865   -0.0000 C   0  0  0  0  0  0  0  0  0  0  0  0
   -5.2286    0.0475   -0.0000 C   0  0  0  0  0  0  0  0  0  0  0  0
   -3.9334    2.2935   -0.0000 C   0  0  0  0  0  0  0  0  0  0  0  0
   -5.2405   -1.4379   -0.0000 C   0  0  0  0  0  0  0  0  0  0  0  0
   -6.5477   -2.1746   -0.0000 C   0  0  0  0  0  0  0  0  0  0  0  0
   -3.9571   -2.1628   -0.0000 C   0  0  0  0  0  0  0  0  0  0  0  0
   -7.8548   -1.4141   -0.0000 C   0  0  0  0  0  0  0  0  0  0  0  0
   -6.5596   -3.6600   -0.0000 C   0  0  0  0  0  0  0  0  0  0  0  0
   -3.9571   -3.6600   -0.0000 C   0  0  0  0  0  0  0  0  0  0  0  0
   -9.1739   -2.1509   -0.0000 C   0  0  0  0  0  0  0  0  0  0  0  0
   -7.8667    0.1069   -0.0000 C   0  0  0  0  0  0  0  0  0  0  0  0
   -5.2762   -4.3968   -0.0000 C   0  0  0  0  0  0  0  0  0  0  0  0
  -10.4810   -1.3903   -0.0000 C   0  0  0  0  0  0  0  0  0  0  0  0
   -9.1858    0.8556   -0.0000 C   0  0  0  0  0  0  0  0  0  0  0  0
  -10.4929    0.1188   -0.0000 C   0  0  0  0  0  0  0  0  0  0  0  0
  -11.8001    0.8794   -0.0000 C   0  0  0  0  0  0  0  0  0  0  0  0
  -11.8120    2.3885   -0.0000 N   0  0  0  0  0  0  0  0  0  0  0  0
  -10.5286    3.1491   -0.0000 C   0  0  0  0  0  0  0  0  0  0  0  0
  -13.1191    3.1491   -0.0000 C   0  0  0  0  0  0  0  0  0  0  0  0
  -10.5405    4.6582   -0.0000 C   0  0  0  0  0  0  0  0  0  0  0  0
  -13.1310    4.6582   -0.0000 C   0  0  0  0  0  0  0  0  0  0  0  0
  -11.8476    5.4307   -0.0000 N   0  0  0  0  0  0  0  0  0  0  0  0
   -9.2571    5.4188   -0.0000 C   0  0  0  0  0  0  0  0  0  0  0  0
  -14.4382    5.4188   -0.0000 C   0  0  0  0  0  0  0  0  0  0  0  0
  1  2  2  0  0  0  0
  1  3  2  0  0  0  0
  1  4  1  0  0  0  0
  1  5  1  0  0  0  0
  4  6  2  0  0  0  0
  4  7  1  0  0  0  0
  5  8  1  0  0  0  0
  6  9  1  0  0  0  0
  7 10  2  0  0  0  0
  8 11  2  0  0  0  0
  8 12  1  0  0  0  0
  9 13  2  0  0  0  0
 12 14  1  0  0  0  0
 12 15  1  0  0  0  0
 14 16  1  0  0  0  0
 16 17  2  0  0  0  0
 16 18  1  0  0  0  0
 17 19  1  0  0  0  0
 17 20  1  0  0  0  0
 18 21  2  0  0  0  0
 19 22  2  0  0  0  0
 19 23  1  0  0  0  0
 20 24  2  0  0  0  0
 22 25  1  0  0  0  0
 23 26  2  0  0  0  0
 25 27  2  0  0  0  0
 27 28  1  0  0  0  0
 28 29  1  0  0  0  0
 29 30  1  0  0  0  0
 29 31  1  0  0  0  0
 30 32  1  0  0  0  0
 31 33  1  0  0  0  0
 32 34  1  0  0  0  0
 32 35  1  1  0  0  0
 33 36  1  1  0  0  0
 10 13  1  0  0  0  0
 21 24  1  0  0  0  0
 26 27  1  0  0  0  0
 33 34  1  0  0  0  0
M  END
>  <MolRegNo>
473283

>  <m>
=

>  <Value>
3000

>  <Unit>
nM

>  <Type>
IC50

>  <pValue>
5.52

>  <Ligand Efficiency>
0

>  <Binding Efficiency>
0

>  <Surface Efficiency>
0

>  <Assay Index>
408783

>  <Assay Category>


>  <Assay Organism>


>  <Target ID>
17045

>  <Target Name>
Cytochrome P450 3A4

>  <Target Organism>
Homo sapiens

>  <Target Description>
Target is a single protein chain

>  <Sequence Accession>
P08684

>  <Reference>
Bioorg Med Chem Lett 18 (24), 6429-6436 (2008)

>  <Pubmed ID>
19006669

>  <DOI>
10.1016/j.bmcl.2008.10.072

$$$$
473349
Actelion Java MolfileCreator 1.0

 33 36  0  0  1  0  0  0  0  0999 V2000
    0.0000   -0.0000   -0.0000 O   0  0  0  0  0  0  0  0  0  0  0  0
   -0.0119    1.5089   -0.0000 C   0  0  0  0  0  0  0  0  0  0  0  0
   -1.3188    2.2693   -0.0000 N   0  0  0  0  0  0  0  0  0  0  0  0
    1.2713    2.2693   -0.0000 C   0  0  0  0  0  0  0  0  0  0  0  0
   -2.6257    1.5327   -0.0000 C   0  0  0  0  0  0  0  0  0  0  0  0
   -1.3307    3.7782   -0.0000 C   0  0  0  0  0  0  0  0  0  0  0  0
    2.5544    1.5327   -0.0000 C   0  0  0  0  0  0  0  0  0  0  0  0
   -2.6376    0.0475   -0.0000 C   0  0  0  0  0  0  0  0  0  0  0  0
    3.9089    2.1624   -0.0000 O   0  0  0  0  0  0  0  0  0  0  0  0
    2.7089    0.0594   -0.0000 C   0  0  0  0  0  0  0  0  0  0  0  0
   -3.9445   -0.6891   -0.0000 C   0  0  0  0  0  0  0  0  0  0  0  0
   -1.3544   -0.6772   -0.0000 C   0  0  0  0  0  0  0  0  0  0  0  0
    4.9069    1.0693   -0.0000 N   0  0  0  0  0  0  0  0  0  0  0  0
    4.1584   -0.2376   -0.0000 C   0  0  0  0  0  0  0  0  0  0  0  0
   -5.2514    0.0713   -0.0000 C   0  0  0  0  0  0  0  0  0  0  0  0
   -3.9564   -2.1742   -0.0000 C   0  0  0  0  0  0  0  0  0  0  0  0
   -1.3544   -2.1742   -0.0000 C   0  0  0  0  0  0  0  0  0  0  0  0
    4.7643   -1.5921   -0.0000 C   0  0  0  0  0  0  0  0  0  0  0  0
   -6.5702   -0.6653   -0.0000 C   0  0  0  0  0  0  0  0  0  0  0  0
   -5.2633    1.5921   -0.0000 C   0  0  0  0  0  0  0  0  0  0  0  0
   -2.6732   -2.9109   -0.0000 C   0  0  0  0  0  0  0  0  0  0  0  0
   -7.8772    0.0950   -0.0000 C   0  0  0  0  0  0  0  0  0  0  0  0
   -6.5821    2.3406   -0.0000 C   0  0  0  0  0  0  0  0  0  0  0  0
   -7.8890    1.6039   -0.0000 C   0  0  0  0  0  0  0  0  0  0  0  0
   -9.1960    2.3643   -0.0000 C   0  0  0  0  0  0  0  0  0  0  0  0
   -9.2078    3.8732   -0.0000 N   0  0  0  0  0  0  0  0  0  0  0  0
   -7.9247    4.6336   -0.0000 C   0  0  0  0  0  0  0  0  0  0  0  0
  -10.5148    4.6336   -0.0000 C   0  0  0  0  0  0  0  0  0  0  0  0
   -7.9366    6.1425   -0.0000 C   0  0  0  0  0  0  0  0  0  0  0  0
  -10.5266    6.1425   -0.0000 C   0  0  0  0  0  0  0  0  0  0  0  0
   -9.2435    6.9148   -0.0000 N   0  0  0  0  0  0  0  0  0  0  0  0
   -6.6534    6.9029   -0.0000 C   0  0  0  0  0  0  0  0  0  0  0  0
  -11.8336    6.9029   -0.0000 C   0  0  0  0  0  0  0  0  0  0  0  0
  1  2  2  0  0  0  0
  2  3  1  0  0  0  0
  2  4  1  0  0  0  0
  3  5  1  0  0  0  0
  3  6  1  0  0  0  0
  4  7  1  0  0  0  0
  5  8  1  0  0  0  0
  7  9  1  0  0  0  0
  7 10  2  0  0  0  0
  8 11  2  0  0  0  0
  8 12  1  0  0  0  0
  9 13  1  0  0  0  0
 10 14  1  0  0  0  0
 11 15  1  0  0  0  0
 11 16  1  0  0  0  0
 12 17  2  0  0  0  0
 14 18  1  0  0  0  0
 15 19  2  0  0  0  0
 15 20  1  0  0  0  0
 16 21  2  0  0  0  0
 19 22  1  0  0  0  0
 20 23  2  0  0  0  0
 22 24  2  0  0  0  0
 24 25  1  0  0  0  0
 25 26  1  0  0  0  0
 26 27  1  0  0  0  0
 26 28  1  0  0  0  0
 27 29  1  0  0  0  0
 28 30  1  0  0  0  0
 29 31  1  0  0  0  0
 29 32  1  1  0  0  0
 30 33  1  1  0  0  0
 13 14  2  0  0  0  0
 17 21  1  0  0  0  0
 23 24  1  0  0  0  0
 30 31  1  0  0  0  0
M  END
>  <MolRegNo>
473349

>  <m>
=

>  <Value>
40000

>  <Unit>
nM

>  <Type>
IC50

>  <pValue>
4.4

>  <Ligand Efficiency>
0

>  <Binding Efficiency>
0

>  <Surface Efficiency>
0

>  <Assay Index>
408783

>  <Assay Category>


>  <Assay Organism>


>  <Target ID>
17045

>  <Target Name>
Cytochrome P450 3A4

>  <Target Organism>
Homo sapiens

>  <Target Description>
Target is a single protein chain

>  <Sequence Accession>
P08684

>  <Reference>
Bioorg Med Chem Lett 18 (24), 6429-6436 (2008)

>  <Pubmed ID>
19006669

>  <DOI>
10.1016/j.bmcl.2008.10.072

$$$$
473350
Actelion Java MolfileCreator 1.0

 34 37  0  0  1  0  0  0  0  0999 V2000
    0.0000   -0.0000   -0.0000 O   0  0  0  0  0  0  0  0  0  0  0  0
    1.2849   -0.7377   -0.0000 C   0  0  0  0  0  0  0  0  0  0  0  0
    2.5699    0.0238   -0.0000 N   0  0  0  0  0  0  0  0  0  0  0  0
    1.2730   -2.2249   -0.0000 C   0  0  0  0  0  0  0  0  0  0  0  0
    3.8548   -0.7139   -0.0000 C   0  0  0  0  0  0  0  0  0  0  0  0
    2.5580    1.5348   -0.0000 C   0  0  0  0  0  0  0  0  0  0  0  0
   -0.0357   -2.9625   -0.0000 C   0  0  0  0  0  0  0  0  0  0  0  0
    2.5580   -2.9506   -0.0000 C   0  0  0  0  0  0  0  0  0  0  0  0
    5.1398    0.0476   -0.0000 C   0  0  0  0  0  0  0  0  0  0  0  0
    3.8429    2.2962   -0.0000 C   0  0  0  0  0  0  0  0  0  0  0  0
   -1.3444   -2.2011   -0.0000 C   0  0  0  0  0  0  0  0  0  0  0  0
   -0.0476   -4.4497   -0.0000 C   0  0  0  0  0  0  0  0  0  0  0  0
    2.5580   -4.4497   -0.0000 C   0  0  0  0  0  0  0  0  0  0  0  0
    6.4247   -0.6901   -0.0000 C   0  0  0  0  0  0  0  0  0  0  0  0
   -2.6651   -2.9387   -0.0000 C   0  0  0  0  0  0  0  0  0  0  0  0
   -1.3563   -0.6782   -0.0000 C   0  0  0  0  0  0  0  0  0  0  0  0
    1.2374   -5.1874   -0.0000 C   0  0  0  0  0  0  0  0  0  0  0  0
    6.4128   -2.1773   -0.0000 C   0  0  0  0  0  0  0  0  0  0  0  0
    7.6978    0.0833   -0.0000 C   0  0  0  0  0  0  0  0  0  0  0  0
   -3.9738   -2.1773   -0.0000 C   0  0  0  0  0  0  0  0  0  0  0  0
   -2.6770    0.0714   -0.0000 C   0  0  0  0  0  0  0  0  0  0  0  0
    7.6978   -2.9149   -0.0000 C   0  0  0  0  0  0  0  0  0  0  0  0
    8.9827   -0.6425   -0.0000 C   0  0  0  0  0  0  0  0  0  0  0  0
   -3.9857   -0.6663   -0.0000 C   0  0  0  0  0  0  0  0  0  0  0  0
    8.9827   -2.1535   -0.0000 C   0  0  0  0  0  0  0  0  0  0  0  0
   -5.2945    0.0952   -0.0000 C   0  0  0  0  0  0  0  0  0  0  0  0
   -5.3064    1.6062   -0.0000 N   0  0  0  0  0  0  0  0  0  0  0  0
   -4.0214    2.3676   -0.0000 C   0  0  0  0  0  0  0  0  0  0  0  0
   -6.6151    2.3676   -0.0000 C   0  0  0  0  0  0  0  0  0  0  0  0
   -4.0333    3.8786   -0.0000 C   0  0  0  0  0  0  0  0  0  0  0  0
   -6.6270    3.8786   -0.0000 C   0  0  0  0  0  0  0  0  0  0  0  0
   -5.3420    4.6520   -0.0000 N   0  0  0  0  0  0  0  0  0  0  0  0
   -2.7484    4.6401   -0.0000 C   0  0  0  0  0  0  0  0  0  0  0  0
   -7.9357    4.6401   -0.0000 C   0  0  0  0  0  0  0  0  0  0  0  0
  1  2  2  0  0  0  0
  2  3  1  0  0  0  0
  2  4  1  0  0  0  0
  3  5  1  0  0  0  0
  3  6  1  0  0  0  0
  4  7  2  0  0  0  0
  4  8  1  0  0  0  0
  5  9  1  0  0  0  0
  6 10  1  0  0  0  0
  7 11  1  0  0  0  0
  7 12  1  0  0  0  0
  8 13  2  0  0  0  0
  9 14  1  0  0  0  0
 11 15  2  0  0  0  0
 11 16  1  0  0  0  0
 12 17  2  0  0  0  0
 14 18  2  0  0  0  0
 14 19  1  0  0  0  0
 15 20  1  0  0  0  0
 16 21  2  0  0  0  0
 18 22  1  0  0  0  0
 19 23  2  0  0  0  0
 20 24  2  0  0  0  0
 22 25  2  0  0  0  0
 24 26  1  0  0  0  0
 26 27  1  0  0  0  0
 27 28  1  0  0  0  0
 27 29  1  0  0  0  0
 28 30  1  0  0  0  0
 29 31  1  0  0  0  0
 30 32  1  0  0  0  0
 30 33  1  1  0  0  0
 31 34  1  1  0  0  0
 13 17  1  0  0  0  0
 21 24  1  0  0  0  0
 23 25  1  0  0  0  0
 31 32  1  0  0  0  0
M  END
>  <MolRegNo>
473350

>  <m>
=

>  <Value>
900

>  <Unit>
nM

>  <Type>
IC50

>  <pValue>
6.05

>  <Ligand Efficiency>
0

>  <Binding Efficiency>
0

>  <Surface Efficiency>
0

>  <Assay Index>
408783

>  <Assay Category>


>  <Assay Organism>


>  <Target ID>
17045

>  <Target Name>
Cytochrome P450 3A4

>  <Target Organism>
Homo sapiens

>  <Target Description>
Target is a single protein chain

>  <Sequence Accession>
P08684

>  <Reference>
Bioorg Med Chem Lett 18 (24), 6429-6436 (2008)

>  <Pubmed ID>
19006669

>  <DOI>
10.1016/j.bmcl.2008.10.072

$$$$
473416
Actelion Java MolfileCreator 1.0

 37 41  0  0  1  0  0  0  0  0999 V2000
    0.0000   -0.0000   -0.0000 F   0  0  0  0  0  0  0  0  0  0  0  0
   -1.3037    0.7585   -0.0000 C   0  0  0  0  0  0  0  0  0  0  0  0
   -2.6073    0.0237   -0.0000 C   0  0  0  0  0  0  0  0  0  0  0  0
   -1.3155    2.2755   -0.0000 C   0  0  0  0  0  0  0  0  0  0  0  0
   -3.9110    0.7822   -0.0000 C   0  0  0  0  0  0  0  0  0  0  0  0
   -2.6192    3.0221   -0.0000 C   0  0  0  0  0  0  0  0  0  0  0  0
   -3.9110    2.2873   -0.0000 C   0  0  0  0  0  0  0  0  0  0  0  0
   -5.2146    3.0458   -0.0000 C   0  0  0  0  0  0  0  0  0  0  0  0
   -6.5183    2.3110   -0.0000 C   0  0  0  0  0  0  0  0  0  0  0  0
   -6.5302    0.8296   -0.0000 C   0  0  0  0  0  0  0  0  0  0  0  0
   -7.8220    3.0695   -0.0000 C   0  0  0  0  0  0  0  0  0  0  0  0
   -7.8338    0.0948   -0.0000 C   0  0  0  0  0  0  0  0  0  0  0  0
   -9.1375    2.3347   -0.0000 C   0  0  0  0  0  0  0  0  0  0  0  0
   -9.1375    0.8533   -0.0000 N   0  0  0  0  0  0  0  0  0  0  0  0
  -10.4411    0.1185   -0.0000 C   0  0  0  0  0  0  0  0  0  0  0  0
  -11.7448    0.8770   -0.0000 O   0  0  0  0  0  0  0  0  0  0  0  0
  -10.4530   -1.3629   -0.0000 C   0  0  0  0  0  0  0  0  0  0  0  0
  -11.7566   -2.0977   -0.0000 C   0  0  0  0  0  0  0  0  0  0  0  0
   -9.1730   -2.0859   -0.0000 C   0  0  0  0  0  0  0  0  0  0  0  0
  -13.0603   -1.3392   -0.0000 C   0  0  0  0  0  0  0  0  0  0  0  0
  -11.7685   -3.5791   -0.0000 C   0  0  0  0  0  0  0  0  0  0  0  0
   -9.1730   -3.5791   -0.0000 C   0  0  0  0  0  0  0  0  0  0  0  0
  -14.3758   -2.0740   -0.0000 C   0  0  0  0  0  0  0  0  0  0  0  0
  -13.0722    0.1778   -0.0000 C   0  0  0  0  0  0  0  0  0  0  0  0
  -10.4885   -4.3139   -0.0000 C   0  0  0  0  0  0  0  0  0  0  0  0
  -15.6795   -1.3155   -0.0000 C   0  0  0  0  0  0  0  0  0  0  0  0
  -14.3877    0.9244   -0.0000 C   0  0  0  0  0  0  0  0  0  0  0  0
  -15.6913    0.1896   -0.0000 C   0  0  0  0  0  0  0  0  0  0  0  0
  -16.9950    0.9481   -0.0000 C   0  0  0  0  0  0  0  0  0  0  0  0
  -17.0068    2.4533   -0.0000 N   0  0  0  0  0  0  0  0  0  0  0  0
  -15.7269    3.2117   -0.0000 C   0  0  0  0  0  0  0  0  0  0  0  0
  -18.3105    3.2117   -0.0000 C   0  0  0  0  0  0  0  0  0  0  0  0
  -15.7387    4.7169   -0.0000 C   0  0  0  0  0  0  0  0  0  0  0  0
  -18.3223    4.7169   -0.0000 C   0  0  0  0  0  0  0  0  0  0  0  0
  -17.0424    5.4872   -0.0000 N   0  0  0  0  0  0  0  0  0  0  0  0
  -14.4588    5.4754   -0.0000 C   0  0  0  0  0  0  0  0  0  0  0  0
  -19.6260    5.4754   -0.0000 C   0  0  0  0  0  0  0  0  0  0  0  0
  1  2  1  0  0  0  0
  2  3  2  0  0  0  0
  2  4  1  0  0  0  0
  3  5  1  0  0  0  0
  4  6  2  0  0  0  0
  5  7  2  0  0  0  0
  7  8  1  0  0  0  0
  8  9  1  0  0  0  0
  9 10  1  0  0  0  0
  9 11  1  0  0  0  0
 10 12  1  0  0  0  0
 11 13  1  0  0  0  0
 12 14  1  0  0  0  0
 14 15  1  0  0  0  0
 15 16  2  0  0  0  0
 15 17  1  0  0  0  0
 17 18  2  0  0  0  0
 17 19  1  0  0  0  0
 18 20  1  0  0  0  0
 18 21  1  0  0  0  0
 19 22  2  0  0  0  0
 20 23  2  0  0  0  0
 20 24  1  0  0  0  0
 21 25  2  0  0  0  0
 23 26  1  0  0  0  0
 24 27  2  0  0  0  0
 26 28  2  0  0  0  0
 28 29  1  0  0  0  0
 29 30  1  0  0  0  0
 30 31  1  0  0  0  0
 30 32  1  0  0  0  0
 31 33  1  0  0  0  0
 32 34  1  0  0  0  0
 33 35  1  0  0  0  0
 33 36  1  1  0  0  0
 34 37  1  1  0  0  0
  6  7  1  0  0  0  0
 13 14  1  0  0  0  0
 22 25  1  0  0  0  0
 27 28  1  0  0  0  0
 34 35  1  0  0  0  0
M  END
>  <MolRegNo>
473416

>  <m>
=

>  <Value>
600

>  <Unit>
nM

>  <Type>
IC50

>  <pValue>
6.22

>  <Ligand Efficiency>
0

>  <Binding Efficiency>
0

>  <Surface Efficiency>
0

>  <Assay Index>
408783

>  <Assay Category>


>  <Assay Organism>


>  <Target ID>
17045

>  <Target Name>
Cytochrome P450 3A4

>  <Target Organism>
Homo sapiens

>  <Target Description>
Target is a single protein chain

>  <Sequence Accession>
P08684

>  <Reference>
Bioorg Med Chem Lett 18 (24), 6429-6436 (2008)

>  <Pubmed ID>
19006669

>  <DOI>
10.1016/j.bmcl.2008.10.072

$$$$
473417
Actelion Java MolfileCreator 1.0

 37 41  0  0  1  0  0  0  0  0999 V2000
    0.0000   -0.0000   -0.0000 F   0  0  0  0  0  0  0  0  0  0  0  0
   -1.3037    0.7585   -0.0000 C   0  0  0  0  0  0  0  0  0  0  0  0
   -2.6073    0.0237   -0.0000 C   0  0  0  0  0  0  0  0  0  0  0  0
   -1.3155    2.2755   -0.0000 C   0  0  0  0  0  0  0  0  0  0  0  0
   -3.9110    0.7822   -0.0000 C   0  0  0  0  0  0  0  0  0  0  0  0
   -2.6192    3.0221   -0.0000 C   0  0  0  0  0  0  0  0  0  0  0  0
   -3.9110    2.2873   -0.0000 C   0  0  0  0  0  0  0  0  0  0  0  0
   -5.2146    3.0458   -0.0000 O   0  0  0  0  0  0  0  0  0  0  0  0
   -6.5183    2.3110   -0.0000 C   0  0  0  0  0  0  0  0  0  0  0  0
   -6.5302    0.8296   -0.0000 C   0  0  0  0  0  0  0  0  0  0  0  0
   -7.8220    3.0695   -0.0000 C   0  0  0  0  0  0  0  0  0  0  0  0
   -7.8338    0.0948   -0.0000 C   0  0  0  0  0  0  0  0  0  0  0  0
   -9.1375    2.3347   -0.0000 C   0  0  0  0  0  0  0  0  0  0  0  0
   -9.1375    0.8533   -0.0000 N   0  0  0  0  0  0  0  0  0  0  0  0
  -10.4411    0.1185   -0.0000 C   0  0  0  0  0  0  0  0  0  0  0  0
  -11.7448    0.8770   -0.0000 O   0  0  0  0  0  0  0  0  0  0  0  0
  -10.4530   -1.3629   -0.0000 C   0  0  0  0  0  0  0  0  0  0  0  0
  -11.7566   -2.0977   -0.0000 C   0  0  0  0  0  0  0  0  0  0  0  0
   -9.1730   -2.0859   -0.0000 C   0  0  0  0  0  0  0  0  0  0  0  0
  -13.0603   -1.3392   -0.0000 C   0  0  0  0  0  0  0  0  0  0  0  0
  -11.7685   -3.5791   -0.0000 C   0  0  0  0  0  0  0  0  0  0  0  0
   -9.1730   -3.5791   -0.0000 C   0  0  0  0  0  0  0  0  0  0  0  0
  -14.3758   -2.0740   -0.0000 C   0  0  0  0  0  0  0  0  0  0  0  0
  -13.0722    0.1778   -0.0000 C   0  0  0  0  0  0  0  0  0  0  0  0
  -10.4885   -4.3139   -0.0000 C   0  0  0  0  0  0  0  0  0  0  0  0
  -15.6795   -1.3155   -0.0000 C   0  0  0  0  0  0  0  0  0  0  0  0
  -14.3877    0.9244   -0.0000 C   0  0  0  0  0  0  0  0  0  0  0  0
  -15.6913    0.1896   -0.0000 C   0  0  0  0  0  0  0  0  0  0  0  0
  -16.9950    0.9481   -0.0000 C   0  0  0  0  0  0  0  0  0  0  0  0
  -17.0068    2.4533   -0.0000 N   0  0  0  0  0  0  0  0  0  0  0  0
  -15.7269    3.2117   -0.0000 C   0  0  0  0  0  0  0  0  0  0  0  0
  -18.3105    3.2117   -0.0000 C   0  0  0  0  0  0  0  0  0  0  0  0
  -15.7387    4.7169   -0.0000 C   0  0  0  0  0  0  0  0  0  0  0  0
  -18.3223    4.7169   -0.0000 C   0  0  0  0  0  0  0  0  0  0  0  0
  -17.0424    5.4872   -0.0000 N   0  0  0  0  0  0  0  0  0  0  0  0
  -14.4588    5.4754   -0.0000 C   0  0  0  0  0  0  0  0  0  0  0  0
  -19.6260    5.4754   -0.0000 C   0  0  0  0  0  0  0  0  0  0  0  0
  1  2  1  0  0  0  0
  2  3  2  0  0  0  0
  2  4  1  0  0  0  0
  3  5  1  0  0  0  0
  4  6  2  0  0  0  0
  5  7  2  0  0  0  0
  7  8  1  0  0  0  0
  8  9  1  0  0  0  0
  9 10  1  0  0  0  0
  9 11  1  0  0  0  0
 10 12  1  0  0  0  0
 11 13  1  0  0  0  0
 12 14  1  0  0  0  0
 14 15  1  0  0  0  0
 15 16  2  0  0  0  0
 15 17  1  0  0  0  0
 17 18  2  0  0  0  0
 17 19  1  0  0  0  0
 18 20  1  0  0  0  0
 18 21  1  0  0  0  0
 19 22  2  0  0  0  0
 20 23  2  0  0  0  0
 20 24  1  0  0  0  0
 21 25  2  0  0  0  0
 23 26  1  0  0  0  0
 24 27  2  0  0  0  0
 26 28  2  0  0  0  0
 28 29  1  0  0  0  0
 29 30  1  0  0  0  0
 30 31  1  0  0  0  0
 30 32  1  0  0  0  0
 31 33  1  0  0  0  0
 32 34  1  0  0  0  0
 33 35  1  0  0  0  0
 33 36  1  1  0  0  0
 34 37  1  1  0  0  0
  6  7  1  0  0  0  0
 13 14  1  0  0  0  0
 22 25  1  0  0  0  0
 27 28  1  0  0  0  0
 34 35  1  0  0  0  0
M  END
>  <MolRegNo>
473417

>  <m>
=

>  <Value>
8400

>  <Unit>
nM

>  <Type>
IC50

>  <pValue>
5.08

>  <Ligand Efficiency>
0

>  <Binding Efficiency>
0

>  <Surface Efficiency>
0

>  <Assay Index>
408783

>  <Assay Category>


>  <Assay Organism>


>  <Target ID>
17045

>  <Target Name>
Cytochrome P450 3A4

>  <Target Organism>
Homo sapiens

>  <Target Description>
Target is a single protein chain

>  <Sequence Accession>
P08684

>  <Reference>
Bioorg Med Chem Lett 18 (24), 6429-6436 (2008)

>  <Pubmed ID>
19006669

>  <DOI>
10.1016/j.bmcl.2008.10.072

$$$$
473418
Actelion Java MolfileCreator 1.0

 36 40  0  0  1  0  0  0  0  0999 V2000
    0.0000   -0.0000   -0.0000 O   0  0  0  0  0  0  0  0  0  0  0  0
    1.2854   -0.7379   -0.0000 C   0  0  0  0  0  0  0  0  0  0  0  0
    2.5708    0.0238   -0.0000 N   0  0  0  0  0  0  0  0  0  0  0  0
    1.2735   -2.2256   -0.0000 C   0  0  0  0  0  0  0  0  0  0  0  0
    3.8562   -0.7141   -0.0000 C   0  0  0  0  0  0  0  0  0  0  0  0
    2.5470    1.5353   -0.0000 C   0  0  0  0  0  0  0  0  0  0  0  0
   -0.0357   -2.9636   -0.0000 C   0  0  0  0  0  0  0  0  0  0  0  0
    2.5589   -2.9517   -0.0000 C   0  0  0  0  0  0  0  0  0  0  0  0
    5.1416    0.0476   -0.0000 C   0  0  0  0  0  0  0  0  0  0  0  0
    3.8443    2.2971   -0.0000 C   0  0  0  0  0  0  0  0  0  0  0  0
   -1.3449   -2.2018   -0.0000 C   0  0  0  0  0  0  0  0  0  0  0  0
   -0.0476   -4.4513   -0.0000 C   0  0  0  0  0  0  0  0  0  0  0  0
    2.5589   -4.4513   -0.0000 C   0  0  0  0  0  0  0  0  0  0  0  0
    5.1297    1.5591   -0.0000 C   0  0  0  0  0  0  0  0  0  0  0  0
   -2.6660   -2.9398   -0.0000 C   0  0  0  0  0  0  0  0  0  0  0  0
   -1.3568   -0.6784   -0.0000 C   0  0  0  0  0  0  0  0  0  0  0  0
    1.2378   -5.1892   -0.0000 C   0  0  0  0  0  0  0  0  0  0  0  0
    6.4151    2.3209   -0.0000 N   0  0  0  0  0  0  0  0  0  0  0  0
   -3.9752   -2.1780   -0.0000 C   0  0  0  0  0  0  0  0  0  0  0  0
   -2.6779    0.0714   -0.0000 C   0  0  0  0  0  0  0  0  0  0  0  0
    7.7005    1.5829   -0.0000 C   0  0  0  0  0  0  0  0  0  0  0  0
   -3.9871   -0.6665   -0.0000 C   0  0  0  0  0  0  0  0  0  0  0  0
    7.6767    0.0952   -0.0000 C   0  0  0  0  0  0  0  0  0  0  0  0
    8.9740    2.3447   -0.0000 C   0  0  0  0  0  0  0  0  0  0  0  0
   -5.2963    0.0952   -0.0000 C   0  0  0  0  0  0  0  0  0  0  0  0
    8.9621   -0.6427   -0.0000 C   0  0  0  0  0  0  0  0  0  0  0  0
   10.2594    1.6187   -0.0000 C   0  0  0  0  0  0  0  0  0  0  0  0
   -5.3082    1.6067   -0.0000 N   0  0  0  0  0  0  0  0  0  0  0  0
   10.2475    0.1190   -0.0000 C   0  0  0  0  0  0  0  0  0  0  0  0
   -4.0228    2.3685   -0.0000 C   0  0  0  0  0  0  0  0  0  0  0  0
   -6.6174    2.3685   -0.0000 C   0  0  0  0  0  0  0  0  0  0  0  0
   -4.0347    3.8800   -0.0000 C   0  0  0  0  0  0  0  0  0  0  0  0
   -6.6293    3.8800   -0.0000 C   0  0  0  0  0  0  0  0  0  0  0  0
   -5.3439    4.6536   -0.0000 N   0  0  0  0  0  0  0  0  0  0  0  0
   -2.7493    4.6417   -0.0000 C   0  0  0  0  0  0  0  0  0  0  0  0
   -7.9385    4.6417   -0.0000 C   0  0  0  0  0  0  0  0  0  0  0  0
  1  2  2  0  0  0  0
  2  3  1  0  0  0  0
  2  4  1  0  0  0  0
  3  5  1  0  0  0  0
  3  6  1  0  0  0  0
  4  7  2  0  0  0  0
  4  8  1  0  0  0  0
  5  9  1  0  0  0  0
  6 10  1  0  0  0  0
  7 11  1  0  0  0  0
  7 12  1  0  0  0  0
  8 13  2  0  0  0  0
  9 14  1  0  0  0  0
 11 15  2  0  0  0  0
 11 16  1  0  0  0  0
 12 17  2  0  0  0  0
 14 18  1  0  0  0  0
 15 19  1  0  0  0  0
 16 20  2  0  0  0  0
 18 21  1  0  0  0  0
 19 22  2  0  0  0  0
 21 23  2  0  0  0  0
 21 24  1  0  0  0  0
 22 25  1  0  0  0  0
 23 26  1  0  0  0  0
 24 27  2  0  0  0  0
 25 28  1  0  0  0  0
 26 29  2  0  0  0  0
 28 30  1  0  0  0  0
 28 31  1  0  0  0  0
 30 32  1  0  0  0  0
 31 33  1  0  0  0  0
 32 34  1  0  0  0  0
 32 35  1  1  0  0  0
 33 36  1  1  0  0  0
 10 14  1  0  0  0  0
 13 17  1  0  0  0  0
 20 22  1  0  0  0  0
 27 29  1  0  0  0  0
 33 34  1  0  0  0  0
M  END
>  <MolRegNo>
473418

>  <m>
=

>  <Value>
12000

>  <Unit>
nM

>  <Type>
IC50

>  <pValue>
4.92

>  <Ligand Efficiency>
0

>  <Binding Efficiency>
0

>  <Surface Efficiency>
0

>  <Assay Index>
408783

>  <Assay Category>


>  <Assay Organism>


>  <Target ID>
17045

>  <Target Name>
Cytochrome P450 3A4

>  <Target Organism>
Homo sapiens

>  <Target Description>
Target is a single protein chain

>  <Sequence Accession>
P08684

>  <Reference>
Bioorg Med Chem Lett 18 (24), 6429-6436 (2008)

>  <Pubmed ID>
19006669

>  <DOI>
10.1016/j.bmcl.2008.10.072

$$$$
473419
Actelion Java MolfileCreator 1.0

 37 41  0  0  1  0  0  0  0  0999 V2000
    0.0000   -0.0000   -0.0000 Cl  0  0  0  0  0  0  0  0  0  0  0  0
   -1.3037    0.7585   -0.0000 C   0  0  0  0  0  0  0  0  0  0  0  0
   -2.6073    0.0237   -0.0000 C   0  0  0  0  0  0  0  0  0  0  0  0
   -1.3155    2.2755   -0.0000 C   0  0  0  0  0  0  0  0  0  0  0  0
   -3.9110    0.7822   -0.0000 C   0  0  0  0  0  0  0  0  0  0  0  0
   -2.6192    3.0221   -0.0000 C   0  0  0  0  0  0  0  0  0  0  0  0
   -3.9110    2.2873   -0.0000 C   0  0  0  0  0  0  0  0  0  0  0  0
   -5.2146    3.0458   -0.0000 N   0  0  0  0  0  0  0  0  0  0  0  0
   -6.5183    2.3110   -0.0000 C   0  0  0  0  0  0  0  0  0  0  0  0
   -6.5302    0.8296   -0.0000 C   0  0  0  0  0  0  0  0  0  0  0  0
   -7.8220    3.0695   -0.0000 C   0  0  0  0  0  0  0  0  0  0  0  0
   -7.8338    0.0948   -0.0000 C   0  0  0  0  0  0  0  0  0  0  0  0
   -9.1375    2.3347   -0.0000 C   0  0  0  0  0  0  0  0  0  0  0  0
   -9.1375    0.8533   -0.0000 N   0  0  0  0  0  0  0  0  0  0  0  0
  -10.4411    0.1185   -0.0000 C   0  0  0  0  0  0  0  0  0  0  0  0
  -11.7448    0.8770   -0.0000 O   0  0  0  0  0  0  0  0  0  0  0  0
  -10.4530   -1.3629   -0.0000 C   0  0  0  0  0  0  0  0  0  0  0  0
  -11.7566   -2.0977   -0.0000 C   0  0  0  0  0  0  0  0  0  0  0  0
   -9.1730   -2.0859   -0.0000 C   0  0  0  0  0  0  0  0  0  0  0  0
  -13.0603   -1.3392   -0.0000 C   0  0  0  0  0  0  0  0  0  0  0  0
  -11.7685   -3.5791   -0.0000 C   0  0  0  0  0  0  0  0  0  0  0  0
   -9.1730   -3.5791   -0.0000 C   0  0  0  0  0  0  0  0  0  0  0  0
  -14.3758   -2.0740   -0.0000 C   0  0  0  0  0  0  0  0  0  0  0  0
  -13.0722    0.1778   -0.0000 C   0  0  0  0  0  0  0  0  0  0  0  0
  -10.4885   -4.3139   -0.0000 C   0  0  0  0  0  0  0  0  0  0  0  0
  -15.6795   -1.3155   -0.0000 C   0  0  0  0  0  0  0  0  0  0  0  0
  -14.3877    0.9244   -0.0000 C   0  0  0  0  0  0  0  0  0  0  0  0
  -15.6913    0.1896   -0.0000 C   0  0  0  0  0  0  0  0  0  0  0  0
  -16.9950    0.9481   -0.0000 C   0  0  0  0  0  0  0  0  0  0  0  0
  -17.0068    2.4533   -0.0000 N   0  0  0  0  0  0  0  0  0  0  0  0
  -15.7269    3.2117   -0.0000 C   0  0  0  0  0  0  0  0  0  0  0  0
  -18.3105    3.2117   -0.0000 C   0  0  0  0  0  0  0  0  0  0  0  0
  -15.7387    4.7169   -0.0000 C   0  0  0  0  0  0  0  0  0  0  0  0
  -18.3223    4.7169   -0.0000 C   0  0  0  0  0  0  0  0  0  0  0  0
  -17.0424    5.4872   -0.0000 N   0  0  0  0  0  0  0  0  0  0  0  0
  -14.4588    5.4754   -0.0000 C   0  0  0  0  0  0  0  0  0  0  0  0
  -19.6260    5.4754   -0.0000 C   0  0  0  0  0  0  0  0  0  0  0  0
  1  2  1  0  0  0  0
  2  3  2  0  0  0  0
  2  4  1  0  0  0  0
  3  5  1  0  0  0  0
  4  6  2  0  0  0  0
  5  7  2  0  0  0  0
  7  8  1  0  0  0  0
  8  9  1  0  0  0  0
  9 10  1  0  0  0  0
  9 11  1  0  0  0  0
 10 12  1  0  0  0  0
 11 13  1  0  0  0  0
 12 14  1  0  0  0  0
 14 15  1  0  0  0  0
 15 16  2  0  0  0  0
 15 17  1  0  0  0  0
 17 18  2  0  0  0  0
 17 19  1  0  0  0  0
 18 20  1  0  0  0  0
 18 21  1  0  0  0  0
 19 22  2  0  0  0  0
 20 23  2  0  0  0  0
 20 24  1  0  0  0  0
 21 25  2  0  0  0  0
 23 26  1  0  0  0  0
 24 27  2  0  0  0  0
 26 28  2  0  0  0  0
 28 29  1  0  0  0  0
 29 30  1  0  0  0  0
 30 31  1  0  0  0  0
 30 32  1  0  0  0  0
 31 33  1  0  0  0  0
 32 34  1  0  0  0  0
 33 35  1  0  0  0  0
 33 36  1  1  0  0  0
 34 37  1  1  0  0  0
  6  7  1  0  0  0  0
 13 14  1  0  0  0  0
 22 25  1  0  0  0  0
 27 28  1  0  0  0  0
 34 35  1  0  0  0  0
M  END
>  <MolRegNo>
473419

>  <m>
=

>  <Value>
5200

>  <Unit>
nM

>  <Type>
IC50

>  <pValue>
5.28

>  <Ligand Efficiency>
0

>  <Binding Efficiency>
0

>  <Surface Efficiency>
0

>  <Assay Index>
408783

>  <Assay Category>


>  <Assay Organism>


>  <Target ID>
17045

>  <Target Name>
Cytochrome P450 3A4

>  <Target Organism>
Homo sapiens

>  <Target Description>
Target is a single protein chain

>  <Sequence Accession>
P08684

>  <Reference>
Bioorg Med Chem Lett 18 (24), 6429-6436 (2008)

>  <Pubmed ID>
19006669

>  <DOI>
10.1016/j.bmcl.2008.10.072

$$$$
473479
Actelion Java MolfileCreator 1.0

 38 42  0  0  1  0  0  0  0  0999 V2000
    0.0000   -0.0000   -0.0000 F   0  0  0  0  0  0  0  0  0  0  0  0
   -1.3036    0.7584   -0.0000 C   0  0  0  0  0  0  0  0  0  0  0  0
   -2.6071    0.0237   -0.0000 C   0  0  0  0  0  0  0  0  0  0  0  0
   -1.3154    2.2753   -0.0000 C   0  0  0  0  0  0  0  0  0  0  0  0
   -3.9107    0.7821   -0.0000 C   0  0  0  0  0  0  0  0  0  0  0  0
   -2.6190    3.0219   -0.0000 C   0  0  0  0  0  0  0  0  0  0  0  0
   -3.9107    2.2871   -0.0000 C   0  0  0  0  0  0  0  0  0  0  0  0
   -5.2142    3.0456   -0.0000 C   0  0  0  0  0  0  0  0  0  0  0  0
   -5.2261    4.5506   -0.0000 O   0  0  0  0  0  0  0  0  0  0  0  0
   -6.5178    2.3108   -0.0000 C   0  0  0  0  0  0  0  0  0  0  0  0
   -6.5296    0.8295   -0.0000 C   0  0  0  0  0  0  0  0  0  0  0  0
   -7.8213    3.0693   -0.0000 C   0  0  0  0  0  0  0  0  0  0  0  0
   -7.8332    0.0948   -0.0000 C   0  0  0  0  0  0  0  0  0  0  0  0
   -9.1367    2.3345   -0.0000 C   0  0  0  0  0  0  0  0  0  0  0  0
   -9.1367    0.8532   -0.0000 N   0  0  0  0  0  0  0  0  0  0  0  0
  -10.4403    0.1185   -0.0000 C   0  0  0  0  0  0  0  0  0  0  0  0
  -11.7438    0.8769   -0.0000 O   0  0  0  0  0  0  0  0  0  0  0  0
  -10.4521   -1.3628   -0.0000 C   0  0  0  0  0  0  0  0  0  0  0  0
  -11.7557   -2.0975   -0.0000 C   0  0  0  0  0  0  0  0  0  0  0  0
   -9.1723   -2.0857   -0.0000 C   0  0  0  0  0  0  0  0  0  0  0  0
  -13.0592   -1.3391   -0.0000 C   0  0  0  0  0  0  0  0  0  0  0  0
  -11.7675   -3.5788   -0.0000 C   0  0  0  0  0  0  0  0  0  0  0  0
   -9.1723   -3.5788   -0.0000 C   0  0  0  0  0  0  0  0  0  0  0  0
  -14.3746   -2.0738   -0.0000 C   0  0  0  0  0  0  0  0  0  0  0  0
  -13.0711    0.1778   -0.0000 C   0  0  0  0  0  0  0  0  0  0  0  0
  -10.4877   -4.3136   -0.0000 C   0  0  0  0  0  0  0  0  0  0  0  0
  -15.6782   -1.3154   -0.0000 C   0  0  0  0  0  0  0  0  0  0  0  0
  -14.3865    0.9243   -0.0000 C   0  0  0  0  0  0  0  0  0  0  0  0
  -15.6900    0.1896   -0.0000 C   0  0  0  0  0  0  0  0  0  0  0  0
  -16.9936    0.9480   -0.0000 C   0  0  0  0  0  0  0  0  0  0  0  0
  -17.0054    2.4530   -0.0000 N   0  0  0  0  0  0  0  0  0  0  0  0
  -15.7256    3.2115   -0.0000 C   0  0  0  0  0  0  0  0  0  0  0  0
  -18.3090    3.2115   -0.0000 C   0  0  0  0  0  0  0  0  0  0  0  0
  -15.7374    4.7165   -0.0000 C   0  0  0  0  0  0  0  0  0  0  0  0
  -18.3208    4.7165   -0.0000 C   0  0  0  0  0  0  0  0  0  0  0  0
  -17.0410    5.4868   -0.0000 N   0  0  0  0  0  0  0  0  0  0  0  0
  -14.4576    5.4749   -0.0000 C   0  0  0  0  0  0  0  0  0  0  0  0
  -19.6244    5.4749   -0.0000 C   0  0  0  0  0  0  0  0  0  0  0  0
  1  2  1  0  0  0  0
  2  3  2  0  0  0  0
  2  4  1  0  0  0  0
  3  5  1  0  0  0  0
  4  6  2  0  0  0  0
  5  7  2  0  0  0  0
  7  8  1  0  0  0  0
  8  9  2  0  0  0  0
  8 10  1  0  0  0  0
 10 11  1  0  0  0  0
 10 12  1  0  0  0  0
 11 13  1  0  0  0  0
 12 14  1  0  0  0  0
 13 15  1  0  0  0  0
 15 16  1  0  0  0  0
 16 17  2  0  0  0  0
 16 18  1  0  0  0  0
 18 19  2  0  0  0  0
 18 20  1  0  0  0  0
 19 21  1  0  0  0  0
 19 22  1  0  0  0  0
 20 23  2  0  0  0  0
 21 24  2  0  0  0  0
 21 25  1  0  0  0  0
 22 26  2  0  0  0  0
 24 27  1  0  0  0  0
 25 28  2  0  0  0  0
 27 29  2  0  0  0  0
 29 30  1  0  0  0  0
 30 31  1  0  0  0  0
 31 32  1  0  0  0  0
 31 33  1  0  0  0  0
 32 34  1  0  0  0  0
 33 35  1  0  0  0  0
 34 36  1  0  0  0  0
 34 37  1  1  0  0  0
 35 38  1  1  0  0  0
  6  7  1  0  0  0  0
 14 15  1  0  0  0  0
 23 26  1  0  0  0  0
 28 29  1  0  0  0  0
 35 36  1  0  0  0  0
M  END
>  <MolRegNo>
473479

>  <m>
=

>  <Value>
4800

>  <Unit>
nM

>  <Type>
IC50

>  <pValue>
5.32

>  <Ligand Efficiency>
0

>  <Binding Efficiency>
0

>  <Surface Efficiency>
0

>  <Assay Index>
408783

>  <Assay Category>


>  <Assay Organism>


>  <Target ID>
17045

>  <Target Name>
Cytochrome P450 3A4

>  <Target Organism>
Homo sapiens

>  <Target Description>
Target is a single protein chain

>  <Sequence Accession>
P08684

>  <Reference>
Bioorg Med Chem Lett 18 (24), 6429-6436 (2008)

>  <Pubmed ID>
19006669

>  <DOI>
10.1016/j.bmcl.2008.10.072

$$$$
473544
Actelion Java MolfileCreator 1.0

 36 40  0  0  1  0  0  0  0  0999 V2000
    0.0000   -0.0000   -0.0000 F   0  0  0  0  0  0  0  0  0  0  0  0
   -1.3044   -0.7352   -0.0000 C   0  0  0  0  0  0  0  0  0  0  0  0
   -2.6088    0.0119   -0.0000 C   0  0  0  0  0  0  0  0  0  0  0  0
   -1.3162   -2.2293   -0.0000 C   0  0  0  0  0  0  0  0  0  0  0  0
   -3.9013   -0.7233   -0.0000 C   0  0  0  0  0  0  0  0  0  0  0  0
   -2.6206   -2.9645   -0.0000 C   0  0  0  0  0  0  0  0  0  0  0  0
   -5.2057    0.0356   -0.0000 N   0  0  0  0  0  0  0  0  0  0  0  0
   -3.9250   -2.2056   -0.0000 C   0  0  0  0  0  0  0  0  0  0  0  0
   -6.5100   -0.6996   -0.0000 C   0  0  0  0  0  0  0  0  0  0  0  0
   -6.5219   -2.1819   -0.0000 C   0  0  0  0  0  0  0  0  0  0  0  0
   -7.8144    0.0593   -0.0000 C   0  0  0  0  0  0  0  0  0  0  0  0
   -7.8263   -2.9171   -0.0000 C   0  0  0  0  0  0  0  0  0  0  0  0
   -9.1307   -0.6759   -0.0000 C   0  0  0  0  0  0  0  0  0  0  0  0
   -9.1307   -2.1582   -0.0000 N   0  0  0  0  0  0  0  0  0  0  0  0
  -10.4350   -2.8934   -0.0000 C   0  0  0  0  0  0  0  0  0  0  0  0
  -11.7394   -2.1344   -0.0000 O   0  0  0  0  0  0  0  0  0  0  0  0
  -10.4350   -4.3756   -0.0000 C   0  0  0  0  0  0  0  0  0  0  0  0
   -9.2255   -5.2412   -0.0000 N   0  0  0  0  0  0  0  0  0  0  0  0
  -11.6446   -5.2531   -0.0000 N   0  0  0  0  0  0  0  0  0  0  0  0
   -9.6880   -6.6523   -0.0000 C   0  0  0  0  0  0  0  0  0  0  0  0
  -12.9489   -4.4942   -0.0000 C   0  0  0  0  0  0  0  0  0  0  0  0
  -11.1940   -6.6642   -0.0000 C   0  0  0  0  0  0  0  0  0  0  0  0
  -14.2652   -5.2294   -0.0000 C   0  0  0  0  0  0  0  0  0  0  0  0
  -12.9608   -2.9764   -0.0000 C   0  0  0  0  0  0  0  0  0  0  0  0
  -15.5696   -4.4705   -0.0000 C   0  0  0  0  0  0  0  0  0  0  0  0
  -14.2770   -2.2293   -0.0000 C   0  0  0  0  0  0  0  0  0  0  0  0
  -15.5814   -2.9645   -0.0000 C   0  0  0  0  0  0  0  0  0  0  0  0
  -16.8858   -2.2056   -0.0000 C   0  0  0  0  0  0  0  0  0  0  0  0
  -16.8977   -0.6996   -0.0000 N   0  0  0  0  0  0  0  0  0  0  0  0
  -15.6170    0.0593   -0.0000 C   0  0  0  0  0  0  0  0  0  0  0  0
  -18.2020    0.0593   -0.0000 C   0  0  0  0  0  0  0  0  0  0  0  0
  -15.6289    1.5653   -0.0000 C   0  0  0  0  0  0  0  0  0  0  0  0
  -18.2139    1.5653   -0.0000 C   0  0  0  0  0  0  0  0  0  0  0  0
  -16.9332    2.3360   -0.0000 N   0  0  0  0  0  0  0  0  0  0  0  0
  -14.3482    2.3242   -0.0000 C   0  0  0  0  0  0  0  0  0  0  0  0
  -19.5183    2.3242   -0.0000 C   0  0  0  0  0  0  0  0  0  0  0  0
  1  2  1  0  0  0  0
  2  3  2  0  0  0  0
  2  4  1  0  0  0  0
  3  5  1  0  0  0  0
  4  6  2  0  0  0  0
  5  7  1  0  0  0  0
  5  8  2  0  0  0  0
  7  9  1  0  0  0  0
  9 10  1  0  0  0  0
  9 11  1  0  0  0  0
 10 12  1  0  0  0  0
 11 13  1  0  0  0  0
 12 14  1  0  0  0  0
 14 15  1  0  0  0  0
 15 16  2  0  0  0  0
 15 17  1  0  0  0  0
 17 18  2  0  0  0  0
 17 19  1  0  0  0  0
 18 20  1  0  0  0  0
 19 21  1  0  0  0  0
 19 22  1  0  0  0  0
 21 23  2  0  0  0  0
 21 24  1  0  0  0  0
 23 25  1  0  0  0  0
 24 26  2  0  0  0  0
 25 27  2  0  0  0  0
 27 28  1  0  0  0  0
 28 29  1  0  0  0  0
 29 30  1  0  0  0  0
 29 31  1  0  0  0  0
 30 32  1  0  0  0  0
 31 33  1  0  0  0  0
 32 34  1  0  0  0  0
 32 35  1  1  0  0  0
 33 36  1  1  0  0  0
  6  8  1  0  0  0  0
 13 14  1  0  0  0  0
 20 22  2  0  0  0  0
 26 27  1  0  0  0  0
 33 34  1  0  0  0  0
M  END
>  <MolRegNo>
473544

>  <m>
=

>  <Value>
58000

>  <Unit>
nM

>  <Type>
IC50

>  <pValue>
4.24

>  <Ligand Efficiency>
0

>  <Binding Efficiency>
0

>  <Surface Efficiency>
0

>  <Assay Index>
408783

>  <Assay Category>


>  <Assay Organism>


>  <Target ID>
17045

>  <Target Name>
Cytochrome P450 3A4

>  <Target Organism>
Homo sapiens

>  <Target Description>
Target is a single protein chain

>  <Sequence Accession>
P08684

>  <Reference>
Bioorg Med Chem Lett 18 (24), 6429-6436 (2008)

>  <Pubmed ID>
19006669

>  <DOI>
10.1016/j.bmcl.2008.10.072

$$$$
473610
Actelion Java MolfileCreator 1.0

 37 41  0  0  1  0  0  0  0  0999 V2000
    0.0000   -0.0000   -0.0000 F   0  0  0  0  0  0  0  0  0  0  0  0
   -1.3037    0.7585   -0.0000 C   0  0  0  0  0  0  0  0  0  0  0  0
   -2.6073    0.0237   -0.0000 C   0  0  0  0  0  0  0  0  0  0  0  0
   -1.3155    2.2755   -0.0000 C   0  0  0  0  0  0  0  0  0  0  0  0
   -3.9110    0.7822   -0.0000 C   0  0  0  0  0  0  0  0  0  0  0  0
   -2.6192    3.0221   -0.0000 C   0  0  0  0  0  0  0  0  0  0  0  0
   -3.9110    2.2873   -0.0000 C   0  0  0  0  0  0  0  0  0  0  0  0
   -5.2146    3.0458   -0.0000 C   0  0  0  0  0  0  0  0  0  0  0  0
   -6.5183    2.3110   -0.0000 C   0  0  0  0  0  0  0  0  0  0  0  0
   -6.5302    0.8296   -0.0000 C   0  0  0  0  0  0  0  0  0  0  0  0
   -7.8220    3.0695   -0.0000 C   0  0  0  0  0  0  0  0  0  0  0  0
   -7.8338    0.0948   -0.0000 C   0  0  0  0  0  0  0  0  0  0  0  0
   -9.1375    2.3347   -0.0000 C   0  0  0  0  0  0  0  0  0  0  0  0
   -9.1375    0.8533   -0.0000 N   0  0  0  0  0  0  0  0  0  0  0  0
  -10.4411    0.1185   -0.0000 C   0  0  0  0  0  0  0  0  0  0  0  0
  -11.7448    0.8770   -0.0000 O   0  0  0  0  0  0  0  0  0  0  0  0
  -10.4530   -1.3629   -0.0000 C   0  0  0  0  0  0  0  0  0  0  0  0
   -9.1730   -2.0859   -0.0000 N   0  0  0  0  0  0  0  0  0  0  0  0
  -11.7566   -2.0977   -0.0000 C   0  0  0  0  0  0  0  0  0  0  0  0
   -9.1730   -3.5791   -0.0000 C   0  0  0  0  0  0  0  0  0  0  0  0
  -13.0603   -1.3392   -0.0000 C   0  0  0  0  0  0  0  0  0  0  0  0
  -11.7685   -3.5791   -0.0000 C   0  0  0  0  0  0  0  0  0  0  0  0
  -10.4767   -4.3139   -0.0000 C   0  0  0  0  0  0  0  0  0  0  0  0
  -14.3758   -2.0740   -0.0000 C   0  0  0  0  0  0  0  0  0  0  0  0
  -13.0722    0.1778   -0.0000 C   0  0  0  0  0  0  0  0  0  0  0  0
  -15.6795   -1.3155   -0.0000 C   0  0  0  0  0  0  0  0  0  0  0  0
  -14.3877    0.9244   -0.0000 C   0  0  0  0  0  0  0  0  0  0  0  0
  -15.6913    0.1896   -0.0000 C   0  0  0  0  0  0  0  0  0  0  0  0
  -16.9950    0.9481   -0.0000 C   0  0  0  0  0  0  0  0  0  0  0  0
  -17.0068    2.4533   -0.0000 N   0  0  0  0  0  0  0  0  0  0  0  0
  -15.7269    3.2117   -0.0000 C   0  0  0  0  0  0  0  0  0  0  0  0
  -18.3105    3.2117   -0.0000 C   0  0  0  0  0  0  0  0  0  0  0  0
  -15.7387    4.7169   -0.0000 C   0  0  0  0  0  0  0  0  0  0  0  0
  -18.3224    4.7169   -0.0000 C   0  0  0  0  0  0  0  0  0  0  0  0
  -17.0424    5.4872   -0.0000 N   0  0  0  0  0  0  0  0  0  0  0  0
  -14.4588    5.4754   -0.0000 C   0  0  0  0  0  0  0  0  0  0  0  0
  -19.6260    5.4754   -0.0000 C   0  0  0  0  0  0  0  0  0  0  0  0
  1  2  1  0  0  0  0
  2  3  2  0  0  0  0
  2  4  1  0  0  0  0
  3  5  1  0  0  0  0
  4  6  2  0  0  0  0
  5  7  2  0  0  0  0
  7  8  1  0  0  0  0
  8  9  1  0  0  0  0
  9 10  1  0  0  0  0
  9 11  1  0  0  0  0
 10 12  1  0  0  0  0
 11 13  1  0  0  0  0
 12 14  1  0  0  0  0
 14 15  1  0  0  0  0
 15 16  2  0  0  0  0
 15 17  1  0  0  0  0
 17 18  2  0  0  0  0
 17 19  1  0  0  0  0
 18 20  1  0  0  0  0
 19 21  1  0  0  0  0
 19 22  2  0  0  0  0
 20 23  2  0  0  0  0
 21 24  2  0  0  0  0
 21 25  1  0  0  0  0
 24 26  1  0  0  0  0
 25 27  2  0  0  0  0
 26 28  2  0  0  0  0
 28 29  1  0  0  0  0
 29 30  1  0  0  0  0
 30 31  1  0  0  0  0
 30 32  1  0  0  0  0
 31 33  1  0  0  0  0
 32 34  1  0  0  0  0
 33 35  1  0  0  0  0
 33 36  1  1  0  0  0
 34 37  1  1  0  0  0
  6  7  1  0  0  0  0
 13 14  1  0  0  0  0
 22 23  1  0  0  0  0
 27 28  1  0  0  0  0
 34 35  1  0  0  0  0
M  END
>  <MolRegNo>
473610

>  <m>
=

>  <Value>
13000

>  <Unit>
nM

>  <Type>
IC50

>  <pValue>
4.89

>  <Ligand Efficiency>
0

>  <Binding Efficiency>
0

>  <Surface Efficiency>
0

>  <Assay Index>
408783

>  <Assay Category>


>  <Assay Organism>


>  <Target ID>
17045

>  <Target Name>
Cytochrome P450 3A4

>  <Target Organism>
Homo sapiens

>  <Target Description>
Target is a single protein chain

>  <Sequence Accession>
P08684

>  <Reference>
Bioorg Med Chem Lett 18 (24), 6429-6436 (2008)

>  <Pubmed ID>
19006669

>  <DOI>
10.1016/j.bmcl.2008.10.072

$$$$
472938
Actelion Java MolfileCreator 1.0

 31 34  0  0  0  0  0  0  0  0999 V2000
    0.0000   -0.0000   -0.0000 F   0  0  0  0  0  0  0  0  0  0  0  0
   -1.3120   -0.7514   -0.0000 C   0  0  0  0  0  0  0  0  0  0  0  0
   -0.5606   -2.0395   -0.0000 F   0  0  0  0  0  0  0  0  0  0  0  0
   -2.0873    0.5606   -0.0000 F   0  0  0  0  0  0  0  0  0  0  0  0
   -2.6240   -1.4909   -0.0000 O   0  0  0  0  0  0  0  0  0  0  0  0
   -2.6359   -2.9818   -0.0000 C   0  0  0  0  0  0  0  0  0  0  0  0
   -1.3478   -3.7213   -0.0000 C   0  0  0  0  0  0  0  0  0  0  0  0
   -3.9479   -3.7213   -0.0000 C   0  0  0  0  0  0  0  0  0  0  0  0
   -1.3597   -5.2241   -0.0000 C   0  0  0  0  0  0  0  0  0  0  0  0
   -3.9598   -5.2241   -0.0000 C   0  0  0  0  0  0  0  0  0  0  0  0
   -0.0716   -5.9636   -0.0000 N   0  0  0  0  0  0  0  0  0  0  0  0
   -2.6836   -5.9636   -0.0000 C   0  0  0  0  0  0  0  0  0  0  0  0
    1.2166   -5.2003   -0.0000 C   0  0  0  0  0  0  0  0  0  0  0  0
    2.5047   -5.9397   -0.0000 N   0  0  0  0  0  0  0  0  0  0  0  0
    1.1927   -3.6855   -0.0000 C   0  0  0  0  0  0  0  0  0  0  0  0
    3.7928   -5.1764   -0.0000 C   0  0  0  0  0  0  0  0  0  0  0  0
    2.4809   -2.9102   -0.0000 C   0  0  0  0  0  0  0  0  0  0  0  0
    3.7809   -3.6616   -0.0000 C   0  0  0  0  0  0  0  0  0  0  0  0
    2.4570   -1.3955   -0.0000 C   0  0  0  0  0  0  0  0  0  0  0  0
    5.0691   -2.8983   -0.0000 C   0  0  0  0  0  0  0  0  0  0  0  0
    3.1846   -0.0835   -0.0000 C   0  0  0  0  0  0  0  0  0  0  0  0
    1.6817   -0.0835   -0.0000 C   0  0  0  0  0  0  0  0  0  0  0  0
    5.0571   -1.3836   -0.0000 O   0  0  0  0  0  0  0  0  0  0  0  0
    6.3572   -3.6378   -0.0000 N   0  0  0  0  0  0  0  0  0  0  0  0
    7.6453   -2.8745   -0.0000 C   0  0  0  0  0  0  0  0  0  0  0  0
    8.9335   -3.6139   -0.0000 C   0  0  0  0  0  0  0  0  0  0  0  0
    8.9215   -5.1048   -0.0000 C   0  0  0  0  0  0  0  0  0  0  0  0
   10.2097   -2.8387   -0.0000 C   0  0  0  0  0  0  0  0  0  0  0  0
   10.2097   -5.8443   -0.0000 C   0  0  0  0  0  0  0  0  0  0  0  0
   11.5097   -3.5782   -0.0000 C   0  0  0  0  0  0  0  0  0  0  0  0
   11.4978   -5.0810   -0.0000 O   0  0  0  0  0  0  0  0  0  0  0  0
  1  2  1  0  0  0  0
  2  3  1  0  0  0  0
  2  4  1  0  0  0  0
  2  5  1  0  0  0  0
  5  6  1  0  0  0  0
  6  7  2  0  0  0  0
  6  8  1  0  0  0  0
  7  9  1  0  0  0  0
  8 10  2  0  0  0  0
  9 11  1  0  0  0  0
  9 12  2  0  0  0  0
 11 13  1  0  0  0  0
 13 14  2  0  0  0  0
 13 15  1  0  0  0  0
 14 16  1  0  0  0  0
 15 17  2  0  0  0  0
 16 18  2  0  0  0  0
 17 19  1  0  0  0  0
 18 20  1  0  0  0  0
 19 21  1  0  0  0  0
 19 22  1  0  0  0  0
 20 23  2  0  0  0  0
 20 24  1  0  0  0  0
 24 25  1  0  0  0  0
 25 26  1  0  0  0  0
 26 27  1  0  0  0  0
 26 28  1  0  0  0  0
 27 29  1  0  0  0  0
 28 30  1  0  0  0  0
 29 31  1  0  0  0  0
 10 12  1  0  0  0  0
 17 18  1  0  0  0  0
 21 22  1  0  0  0  0
 30 31  1  0  0  0  0
M  END
>  <MolRegNo>
472938

>  <m>
=

>  <Value>
57000

>  <Unit>
nM

>  <Type>
IC50

>  <pValue>
4.24

>  <Ligand Efficiency>
0

>  <Binding Efficiency>
0

>  <Surface Efficiency>
0

>  <Assay Index>
409029

>  <Assay Category>


>  <Assay Organism>


>  <Target ID>
17045

>  <Target Name>
Cytochrome P450 3A4

>  <Target Organism>
Homo sapiens

>  <Target Description>
Target is a single protein chain

>  <Sequence Accession>
P08684

>  <Reference>
Bioorg Med Chem Lett 19 (1), 259-263 (2009)

>  <Pubmed ID>
19010671

>  <DOI>
10.1016/j.bmcl.2008.10.118

$$$$
472530
Actelion Java MolfileCreator 1.0

 28 30  0  0  0  0  0  0  0  0999 V2000
    0.0000   -0.0000   -0.0000 Cl  0  0  0  0  0  0  0  0  0  0  0  0
   -0.0119    1.5104   -0.0000 C   0  0  0  0  0  0  0  0  0  0  0  0
    1.2844    2.2716   -0.0000 C   0  0  0  0  0  0  0  0  0  0  0  0
   -1.3201    2.2716   -0.0000 C   0  0  0  0  0  0  0  0  0  0  0  0
    2.5689    1.5342   -0.0000 N   0  0  0  0  0  0  0  0  0  0  0  0
    1.2726    3.7939   -0.0000 C   0  0  0  0  0  0  0  0  0  0  0  0
   -1.3320    3.7939   -0.0000 C   0  0  0  0  0  0  0  0  0  0  0  0
    3.8533    2.2954   -0.0000 C   0  0  0  0  0  0  0  0  0  0  0  0
   -0.0357    4.5550   -0.0000 C   0  0  0  0  0  0  0  0  0  0  0  0
   -2.6403    4.5550   -0.0000 Cl  0  0  0  0  0  0  0  0  0  0  0  0
    5.1378    1.5580   -0.0000 N   0  0  0  0  0  0  0  0  0  0  0  0
    3.8296    3.8058   -0.0000 C   0  0  0  0  0  0  0  0  0  0  0  0
    6.4222    2.3191   -0.0000 C   0  0  0  0  0  0  0  0  0  0  0  0
    5.1140    4.5788   -0.0000 C   0  0  0  0  0  0  0  0  0  0  0  0
    6.4104    3.8296   -0.0000 C   0  0  0  0  0  0  0  0  0  0  0  0
    5.0902    6.0892   -0.0000 C   0  0  0  0  0  0  0  0  0  0  0  0
    7.6948    4.5907   -0.0000 C   0  0  0  0  0  0  0  0  0  0  0  0
    6.3747    6.8623   -0.0000 C   0  0  0  0  0  0  0  0  0  0  0  0
    3.7701    6.8504   -0.0000 C   0  0  0  0  0  0  0  0  0  0  0  0
    7.6829    6.1011   -0.0000 O   0  0  0  0  0  0  0  0  0  0  0  0
    8.9792    3.8533   -0.0000 N   0  0  0  0  0  0  0  0  0  0  0  0
   10.2637    4.6145   -0.0000 C   0  0  0  0  0  0  0  0  0  0  0  0
   11.5481    3.8771   -0.0000 C   0  0  0  0  0  0  0  0  0  0  0  0
   11.5363    2.3905   -0.0000 C   0  0  0  0  0  0  0  0  0  0  0  0
   12.8207    4.6502   -0.0000 C   0  0  0  0  0  0  0  0  0  0  0  0
   12.8207    1.6531   -0.0000 C   0  0  0  0  0  0  0  0  0  0  0  0
   14.1170    3.9128   -0.0000 C   0  0  0  0  0  0  0  0  0  0  0  0
   14.1052    2.4143   -0.0000 O   0  0  0  0  0  0  0  0  0  0  0  0
  1  2  1  0  0  0  0
  2  3  2  0  0  0  0
  2  4  1  0  0  0  0
  3  5  1  0  0  0  0
  3  6  1  0  0  0  0
  4  7  2  0  0  0  0
  5  8  1  0  0  0  0
  6  9  2  0  0  0  0
  7 10  1  0  0  0  0
  8 11  2  0  0  0  0
  8 12  1  0  0  0  0
 11 13  1  0  0  0  0
 12 14  2  0  0  0  0
 13 15  2  0  0  0  0
 14 16  1  0  0  0  0
 15 17  1  0  0  0  0
 16 18  1  0  0  0  0
 16 19  1  0  0  0  0
 17 20  2  0  0  0  0
 17 21  1  0  0  0  0
 21 22  1  0  0  0  0
 22 23  1  0  0  0  0
 23 24  1  0  0  0  0
 23 25  1  0  0  0  0
 24 26  1  0  0  0  0
 25 27  1  0  0  0  0
 26 28  1  0  0  0  0
  7  9  1  0  0  0  0
 14 15  1  0  0  0  0
 27 28  1  0  0  0  0
M  END
>  <MolRegNo>
472530

>  <m>
=

>  <Value>
58000

>  <Unit>
nM

>  <Type>
IC50

>  <pValue>
4.24

>  <Ligand Efficiency>
0

>  <Binding Efficiency>
0

>  <Surface Efficiency>
0

>  <Assay Index>
409029

>  <Assay Category>


>  <Assay Organism>


>  <Target ID>
17045

>  <Target Name>
Cytochrome P450 3A4

>  <Target Organism>
Homo sapiens

>  <Target Description>
Target is a single protein chain

>  <Sequence Accession>
P08684

>  <Reference>
Bioorg Med Chem Lett 19 (1), 259-263 (2009)

>  <Pubmed ID>
19010671

>  <DOI>
10.1016/j.bmcl.2008.10.118

$$$$
472934
Actelion Java MolfileCreator 1.0

 29 31  0  0  0  0  0  0  0  0999 V2000
    0.0000   -0.0000   -0.0000 Cl  0  0  0  0  0  0  0  0  0  0  0  0
   -0.0119    1.5110   -0.0000 C   0  0  0  0  0  0  0  0  0  0  0  0
    1.2850    2.2725   -0.0000 C   0  0  0  0  0  0  0  0  0  0  0  0
   -1.3207    2.2725   -0.0000 C   0  0  0  0  0  0  0  0  0  0  0  0
    2.5700    1.5348   -0.0000 N   0  0  0  0  0  0  0  0  0  0  0  0
    1.2731    3.7955   -0.0000 C   0  0  0  0  0  0  0  0  0  0  0  0
   -1.3326    3.7836   -0.0000 C   0  0  0  0  0  0  0  0  0  0  0  0
    3.8550    2.2963   -0.0000 C   0  0  0  0  0  0  0  0  0  0  0  0
   -0.0357    4.5569   -0.0000 C   0  0  0  0  0  0  0  0  0  0  0  0
   -2.6414    4.5450   -0.0000 Cl  0  0  0  0  0  0  0  0  0  0  0  0
    5.1399    1.5586   -0.0000 N   0  0  0  0  0  0  0  0  0  0  0  0
    3.8312    3.8074   -0.0000 C   0  0  0  0  0  0  0  0  0  0  0  0
    6.4249    2.3201   -0.0000 C   0  0  0  0  0  0  0  0  0  0  0  0
    5.1162    4.5807   -0.0000 C   0  0  0  0  0  0  0  0  0  0  0  0
    6.4130    3.8312   -0.0000 C   0  0  0  0  0  0  0  0  0  0  0  0
    5.0924    6.0918   -0.0000 C   0  0  0  0  0  0  0  0  0  0  0  0
    7.6980    4.5926   -0.0000 C   0  0  0  0  0  0  0  0  0  0  0  0
    5.0686    7.6147   -0.0000 C   0  0  0  0  0  0  0  0  0  0  0  0
    6.5796    6.1156   -0.0000 C   0  0  0  0  0  0  0  0  0  0  0  0
    3.5813    6.0918   -0.0000 C   0  0  0  0  0  0  0  0  0  0  0  0
    7.6861    6.1037   -0.0000 O   0  0  0  0  0  0  0  0  0  0  0  0
    8.9830    3.8550   -0.0000 N   0  0  0  0  0  0  0  0  0  0  0  0
   10.2680    4.6164   -0.0000 C   0  0  0  0  0  0  0  0  0  0  0  0
   11.5530    3.8788   -0.0000 C   0  0  0  0  0  0  0  0  0  0  0  0
   11.5411    2.3915   -0.0000 C   0  0  0  0  0  0  0  0  0  0  0  0
   12.8261    4.6521   -0.0000 C   0  0  0  0  0  0  0  0  0  0  0  0
   12.8261    1.6538   -0.0000 C   0  0  0  0  0  0  0  0  0  0  0  0
   14.1111    3.9144   -0.0000 C   0  0  0  0  0  0  0  0  0  0  0  0
   14.1111    2.4153   -0.0000 O   0  0  0  0  0  0  0  0  0  0  0  0
  1  2  1  0  0  0  0
  2  3  2  0  0  0  0
  2  4  1  0  0  0  0
  3  5  1  0  0  0  0
  3  6  1  0  0  0  0
  4  7  2  0  0  0  0
  5  8  1  0  0  0  0
  6  9  2  0  0  0  0
  7 10  1  0  0  0  0
  8 11  2  0  0  0  0
  8 12  1  0  0  0  0
 11 13  1  0  0  0  0
 12 14  2  0  0  0  0
 13 15  2  0  0  0  0
 14 16  1  0  0  0  0
 15 17  1  0  0  0  0
 16 18  1  0  0  0  0
 16 19  1  0  0  0  0
 16 20  1  0  0  0  0
 17 21  2  0  0  0  0
 17 22  1  0  0  0  0
 22 23  1  0  0  0  0
 23 24  1  0  0  0  0
 24 25  1  0  0  0  0
 24 26  1  0  0  0  0
 25 27  1  0  0  0  0
 26 28  1  0  0  0  0
 27 29  1  0  0  0  0
  7  9  1  0  0  0  0
 14 15  1  0  0  0  0
 28 29  1  0  0  0  0
M  END
>  <MolRegNo>
472934

>  <m>
=

>  <Value>
64000

>  <Unit>
nM

>  <Type>
IC50

>  <pValue>
4.19

>  <Ligand Efficiency>
0

>  <Binding Efficiency>
0

>  <Surface Efficiency>
0

>  <Assay Index>
409029

>  <Assay Category>


>  <Assay Organism>


>  <Target ID>
17045

>  <Target Name>
Cytochrome P450 3A4

>  <Target Organism>
Homo sapiens

>  <Target Description>
Target is a single protein chain

>  <Sequence Accession>
P08684

>  <Reference>
Bioorg Med Chem Lett 19 (1), 259-263 (2009)

>  <Pubmed ID>
19010671

>  <DOI>
10.1016/j.bmcl.2008.10.118

$$$$
513149
Actelion Java MolfileCreator 1.0

 18 20  0  0  0  0  0  0  0  0999 V2000
    0.0000   -0.0000   -0.0000 O   0  0  0  0  0  0  0  0  0  0  0  0
    1.2832    0.7604   -0.0000 C   0  0  0  0  0  0  0  0  0  0  0  0
   -1.3069    0.7604   -0.0000 C   0  0  0  0  0  0  0  0  0  0  0  0
    2.5663    0.0238   -0.0000 C   0  0  0  0  0  0  0  0  0  0  0  0
    1.2713    2.2812   -0.0000 C   0  0  0  0  0  0  0  0  0  0  0  0
    3.8613    0.7841   -0.0000 C   0  0  0  0  0  0  0  0  0  0  0  0
    2.5544    3.0534   -0.0000 C   0  0  0  0  0  0  0  0  0  0  0  0
    3.8495    2.3049   -0.0000 C   0  0  0  0  0  0  0  0  0  0  0  0
    5.1445    0.0475   -0.0000 C   0  0  0  0  0  0  0  0  0  0  0  0
    5.1326    3.0653   -0.0000 C   0  0  0  0  0  0  0  0  0  0  0  0
    6.4395    0.8079   -0.0000 C   0  0  0  0  0  0  0  0  0  0  0  0
    6.4276    2.3287   -0.0000 C   0  0  0  0  0  0  0  0  0  0  0  0
    7.7108    3.1009   -0.0000 C   0  0  0  0  0  0  0  0  0  0  0  0
    7.6870    4.6098   -0.0000 C   0  0  0  0  0  0  0  0  0  0  0  0
    9.0058    2.3643   -0.0000 C   0  0  0  0  0  0  0  0  0  0  0  0
    8.9702    5.3821   -0.0000 N   0  0  0  0  0  0  0  0  0  0  0  0
   10.2890    3.1247   -0.0000 C   0  0  0  0  0  0  0  0  0  0  0  0
   10.2652    4.6455   -0.0000 C   0  0  0  0  0  0  0  0  0  0  0  0
  1  2  1  0  0  0  0
  1  3  1  0  0  0  0
  2  4  1  0  0  0  0
  2  5  1  0  0  0  0
  4  6  1  0  0  0  0
  5  7  1  0  0  0  0
  6  8  2  0  0  0  0
  6  9  1  0  0  0  0
  8 10  1  0  0  0  0
  9 11  2  0  0  0  0
 10 12  2  0  0  0  0
 12 13  1  0  0  0  0
 13 14  2  0  0  0  0
 13 15  1  0  0  0  0
 14 16  1  0  0  0  0
 15 17  2  0  0  0  0
 16 18  2  0  0  0  0
  7  8  1  0  0  0  0
 11 12  1  0  0  0  0
 17 18  1  0  0  0  0
M  END
>  <MolRegNo>
513149

>  <m>
=

>  <Value>
12200

>  <Unit>
nM

>  <Type>
IC50

>  <pValue>
4.91

>  <Ligand Efficiency>
0

>  <Binding Efficiency>
0

>  <Surface Efficiency>
0

>  <Assay Index>
386692

>  <Assay Category>


>  <Assay Organism>
Homo sapiens

>  <Target ID>
17045

>  <Target Name>
Cytochrome P450 3A4

>  <Target Organism>
Homo sapiens

>  <Target Description>
Target is a single protein chain

>  <Sequence Accession>
P08684

>  <Reference>
J Med Chem 51 (24), 8077-8087 (2008)

>  <Pubmed ID>
19049427

>  <DOI>
10.1021/jm800888q

$$$$
513213
Actelion Java MolfileCreator 1.0

 17 19  0  0  0  0  0  0  0  0999 V2000
    0.0000   -0.0000   -0.0000 O   0  0  0  0  0  0  0  0  0  0  0  0
    1.2938    0.7478   -0.0000 C   0  0  0  0  0  0  0  0  0  0  0  0
    2.5876   -0.0119   -0.0000 C   0  0  0  0  0  0  0  0  0  0  0  0
    1.2938    2.2671   -0.0000 C   0  0  0  0  0  0  0  0  0  0  0  0
    3.8814    0.7478   -0.0000 C   0  0  0  0  0  0  0  0  0  0  0  0
    2.5876    3.0149   -0.0000 C   0  0  0  0  0  0  0  0  0  0  0  0
    3.8814    2.2671   -0.0000 C   0  0  0  0  0  0  0  0  0  0  0  0
    5.1752    0.0119   -0.0000 C   0  0  0  0  0  0  0  0  0  0  0  0
    5.1633    3.0268   -0.0000 C   0  0  0  0  0  0  0  0  0  0  0  0
    6.4690    0.7715   -0.0000 C   0  0  0  0  0  0  0  0  0  0  0  0
    6.4571    2.2908   -0.0000 C   0  0  0  0  0  0  0  0  0  0  0  0
    7.7390    3.0624   -0.0000 C   0  0  0  0  0  0  0  0  0  0  0  0
    7.7153    4.5698   -0.0000 C   0  0  0  0  0  0  0  0  0  0  0  0
    9.0328    2.3265   -0.0000 C   0  0  0  0  0  0  0  0  0  0  0  0
    8.9972    5.3414   -0.0000 N   0  0  0  0  0  0  0  0  0  0  0  0
   10.3148    3.0980   -0.0000 C   0  0  0  0  0  0  0  0  0  0  0  0
   10.3029    4.6054   -0.0000 C   0  0  0  0  0  0  0  0  0  0  0  0
  1  2  2  0  0  0  0
  2  3  1  0  0  0  0
  2  4  1  0  0  0  0
  3  5  1  0  0  0  0
  4  6  1  0  0  0  0
  5  7  2  0  0  0  0
  5  8  1  0  0  0  0
  7  9  1  0  0  0  0
  8 10  2  0  0  0  0
  9 11  2  0  0  0  0
 11 12  1  0  0  0  0
 12 13  2  0  0  0  0
 12 14  1  0  0  0  0
 13 15  1  0  0  0  0
 14 16  2  0  0  0  0
 15 17  2  0  0  0  0
  6  7  1  0  0  0  0
 10 11  1  0  0  0  0
 16 17  1  0  0  0  0
M  END
>  <MolRegNo>
513213

>  <m>
=

>  <Value>
6210

>  <Unit>
nM

>  <Type>
IC50

>  <pValue>
5.21

>  <Ligand Efficiency>
0

>  <Binding Efficiency>
0

>  <Surface Efficiency>
0

>  <Assay Index>
386692

>  <Assay Category>


>  <Assay Organism>
Homo sapiens

>  <Target ID>
17045

>  <Target Name>
Cytochrome P450 3A4

>  <Target Organism>
Homo sapiens

>  <Target Description>
Target is a single protein chain

>  <Sequence Accession>
P08684

>  <Reference>
J Med Chem 51 (24), 8077-8087 (2008)

>  <Pubmed ID>
19049427

>  <DOI>
10.1021/jm800888q

$$$$
513215
Actelion Java MolfileCreator 1.0

 19 21  0  0  0  0  0  0  0  0999 V2000
    0.0000   -0.0000   -0.0000 O   0  0  0  0  0  0  0  0  0  0  0  0
    1.2944    0.7482   -0.0000 C   0  0  0  0  0  0  0  0  0  0  0  0
    2.5889   -0.0119   -0.0000 C   0  0  0  0  0  0  0  0  0  0  0  0
    1.2944    2.2683   -0.0000 C   0  0  0  0  0  0  0  0  0  0  0  0
    3.8833    0.7482   -0.0000 C   0  0  0  0  0  0  0  0  0  0  0  0
    2.5889    3.0164   -0.0000 C   0  0  0  0  0  0  0  0  0  0  0  0
    3.8833    2.2683   -0.0000 C   0  0  0  0  0  0  0  0  0  0  0  0
    5.1778    0.0119   -0.0000 C   0  0  0  0  0  0  0  0  0  0  0  0
    5.1659    3.0283   -0.0000 C   0  0  0  0  0  0  0  0  0  0  0  0
    6.4722    0.7719   -0.0000 C   0  0  0  0  0  0  0  0  0  0  0  0
    6.4604    2.2920   -0.0000 C   0  0  0  0  0  0  0  0  0  0  0  0
    7.7429    3.0639   -0.0000 C   0  0  0  0  0  0  0  0  0  0  0  0
    7.7192    4.5721   -0.0000 C   0  0  0  0  0  0  0  0  0  0  0  0
    9.0374    2.3276   -0.0000 C   0  0  0  0  0  0  0  0  0  0  0  0
    9.0018    5.3441   -0.0000 N   0  0  0  0  0  0  0  0  0  0  0  0
   10.3200    3.0996   -0.0000 C   0  0  0  0  0  0  0  0  0  0  0  0
   10.3081    4.6078   -0.0000 C   0  0  0  0  0  0  0  0  0  0  0  0
   11.6144    2.3633   -0.0000 O   0  0  0  0  0  0  0  0  0  0  0  0
   11.6025    0.8669   -0.0000 C   0  0  0  0  0  0  0  0  0  0  0  0
  1  2  2  0  0  0  0
  2  3  1  0  0  0  0
  2  4  1  0  0  0  0
  3  5  1  0  0  0  0
  4  6  1  0  0  0  0
  5  7  2  0  0  0  0
  5  8  1  0  0  0  0
  7  9  1  0  0  0  0
  8 10  2  0  0  0  0
  9 11  2  0  0  0  0
 11 12  1  0  0  0  0
 12 13  2  0  0  0  0
 12 14  1  0  0  0  0
 13 15  1  0  0  0  0
 14 16  2  0  0  0  0
 15 17  2  0  0  0  0
 16 18  1  0  0  0  0
 18 19  1  0  0  0  0
  6  7  1  0  0  0  0
 10 11  1  0  0  0  0
 16 17  1  0  0  0  0
M  END
>  <MolRegNo>
513215

>  <m>
=

>  <Value>
3800

>  <Unit>
nM

>  <Type>
IC50

>  <pValue>
5.42

>  <Ligand Efficiency>
0

>  <Binding Efficiency>
0

>  <Surface Efficiency>
0

>  <Assay Index>
386692

>  <Assay Category>


>  <Assay Organism>
Homo sapiens

>  <Target ID>
17045

>  <Target Name>
Cytochrome P450 3A4

>  <Target Organism>
Homo sapiens

>  <Target Description>
Target is a single protein chain

>  <Sequence Accession>
P08684

>  <Reference>
J Med Chem 51 (24), 8077-8087 (2008)

>  <Pubmed ID>
19049427

>  <DOI>
10.1021/jm800888q

$$$$
99609
Actelion Java MolfileCreator 1.0

 17 19  0  0  0  0  0  0  0  0999 V2000
    0.0000   -0.0000   -0.0000 O   0  0  0  0  0  0  0  0  0  0  0  0
    1.2938    0.7478   -0.0000 C   0  0  0  0  0  0  0  0  0  0  0  0
    2.5876   -0.0119   -0.0000 N   0  0  0  0  0  0  0  0  0  0  0  0
    1.2938    2.2671   -0.0000 C   0  0  0  0  0  0  0  0  0  0  0  0
    3.8814    0.7478   -0.0000 C   0  0  0  0  0  0  0  0  0  0  0  0
    2.5876    3.0149   -0.0000 C   0  0  0  0  0  0  0  0  0  0  0  0
    3.8814    2.2671   -0.0000 C   0  0  0  0  0  0  0  0  0  0  0  0
    5.1752    0.0119   -0.0000 C   0  0  0  0  0  0  0  0  0  0  0  0
    5.1633    3.0268   -0.0000 C   0  0  0  0  0  0  0  0  0  0  0  0
    6.4690    0.7715   -0.0000 C   0  0  0  0  0  0  0  0  0  0  0  0
    6.4571    2.2908   -0.0000 C   0  0  0  0  0  0  0  0  0  0  0  0
    7.7390    3.0624   -0.0000 C   0  0  0  0  0  0  0  0  0  0  0  0
    7.7153    4.5698   -0.0000 C   0  0  0  0  0  0  0  0  0  0  0  0
    9.0328    2.3265   -0.0000 C   0  0  0  0  0  0  0  0  0  0  0  0
    8.9972    5.3414   -0.0000 N   0  0  0  0  0  0  0  0  0  0  0  0
   10.3148    3.0980   -0.0000 C   0  0  0  0  0  0  0  0  0  0  0  0
   10.3029    4.6054   -0.0000 C   0  0  0  0  0  0  0  0  0  0  0  0
  1  2  2  0  0  0  0
  2  3  1  0  0  0  0
  2  4  1  0  0  0  0
  3  5  1  0  0  0  0
  4  6  1  0  0  0  0
  5  7  2  0  0  0  0
  5  8  1  0  0  0  0
  7  9  1  0  0  0  0
  8 10  2  0  0  0  0
  9 11  2  0  0  0  0
 11 12  1  0  0  0  0
 12 13  2  0  0  0  0
 12 14  1  0  0  0  0
 13 15  1  0  0  0  0
 14 16  2  0  0  0  0
 15 17  2  0  0  0  0
  6  7  1  0  0  0  0
 10 11  1  0  0  0  0
 16 17  1  0  0  0  0
M  END
>  <MolRegNo>
99609

>  <m>
=

>  <Value>
127000

>  <Unit>
nM

>  <Type>
IC50

>  <pValue>
0

>  <Ligand Efficiency>
0

>  <Binding Efficiency>
0

>  <Surface Efficiency>
0

>  <Assay Index>
386692

>  <Assay Category>


>  <Assay Organism>
Homo sapiens

>  <Target ID>
17045

>  <Target Name>
Cytochrome P450 3A4

>  <Target Organism>
Homo sapiens

>  <Target Description>
Target is a single protein chain

>  <Sequence Accession>
P08684

>  <Reference>
J Med Chem 51 (24), 8077-8087 (2008)

>  <Pubmed ID>
19049427

>  <DOI>
10.1021/jm800888q

$$$$
56713
Actelion Java MolfileCreator 1.0

 34 38  0  0  1  0  0  0  0  0999 V2000
    0.0000   -0.0000   -0.0000 Cl  0  0  0  0  0  0  0  0  0  0  0  0
   -1.3308   -0.7486   -0.0000 C   0  0  0  0  0  0  0  0  0  0  0  0
   -1.3427   -2.2339   -0.0000 C   0  0  0  0  0  0  0  0  0  0  0  0
   -2.6379   -0.0000   -0.0000 C   0  0  0  0  0  0  0  0  0  0  0  0
   -2.6260   -2.9824   -0.0000 C   0  0  0  0  0  0  0  0  0  0  0  0
   -3.9449   -0.7486   -0.0000 C   0  0  0  0  0  0  0  0  0  0  0  0
   -2.6260   -4.4677   -0.0000 C   0  0  0  0  0  0  0  0  0  0  0  0
   -3.9449   -2.2220   -0.0000 C   0  0  0  0  0  0  0  0  0  0  0  0
   -3.9330   -5.2163   -0.0000 C   0  0  0  0  0  0  0  0  0  0  0  0
   -1.3189   -5.1925   -0.0000 C   0  0  0  0  0  0  0  0  0  0  0  0
   -3.9330   -6.7016   -0.0000 C   0  0  0  0  0  0  0  0  0  0  0  0
   -5.2401   -4.4558   -0.0000 C   0  0  0  0  0  0  0  0  0  0  0  0
   -1.3308   -6.6778   -0.0000 C   0  0  0  0  0  0  0  0  0  0  0  0
   -2.6497   -7.4264   -0.0000 N   0  0  0  0  0  0  0  0  0  0  0  0
   -5.2401   -7.4383   -0.0000 C   0  0  0  0  0  0  0  0  0  0  0  0
   -6.5471   -5.1925   -0.0000 C   0  0  0  0  0  0  0  0  0  0  0  0
   -0.0475   -7.4026   -0.0000 O   0  0  0  0  0  0  0  0  0  0  0  0
   -2.6379   -8.9236   -0.0000 C   0  0  0  0  0  0  0  0  0  0  0  0
   -6.5709   -6.6897   -0.0000 C   0  0  0  0  0  0  0  0  0  0  0  0
   -7.8660   -4.4440   -0.0000 C   0  0  0  0  0  0  0  0  0  0  0  0
   -6.5828   -3.6954   -0.0000 N   0  0  0  0  0  0  0  0  0  0  0  0
   -9.1493   -5.1925   -0.0000 C   0  0  0  0  0  0  0  0  0  0  0  0
   -7.8779   -2.9468   -0.0000 C   0  0  0  0  0  0  0  0  0  0  0  0
  -10.4682   -4.4440   -0.0000 C   0  0  0  0  0  0  0  0  0  0  0  0
   -9.1493   -6.6778   -0.0000 C   0  0  0  0  0  0  0  0  0  0  0  0
   -9.2087   -2.1863   -0.0000 N   0  0  0  0  0  0  0  0  0  0  0  0
   -6.7848   -1.9368   -0.0000 C   0  0  0  0  0  0  0  0  0  0  0  0
  -11.7753   -5.1807   -0.0000 C   0  0  0  0  0  0  0  0  0  0  0  0
  -10.4564   -7.4264   -0.0000 C   0  0  0  0  0  0  0  0  0  0  0  0
   -8.9117   -0.7248   -0.0000 C   0  0  0  0  0  0  0  0  0  0  0  0
  -10.5871   -2.7804   -0.0000 C   0  0  0  0  0  0  0  0  0  0  0  0
   -7.4264   -0.5703   -0.0000 N   0  0  0  0  0  0  0  0  0  0  0  0
  -11.7753   -6.6540   -0.0000 C   0  0  0  0  0  0  0  0  0  0  0  0
  -13.1061   -7.4026   -0.0000 Cl  0  0  0  0  0  0  0  0  0  0  0  0
  1  2  1  0  0  0  0
  2  3  2  0  0  0  0
  2  4  1  0  0  0  0
  3  5  1  0  0  0  0
  4  6  2  0  0  0  0
  5  7  1  0  0  0  0
  5  8  2  0  0  0  0
  7  9  1  0  0  0  0
  7 10  2  0  0  0  0
  9 11  2  0  0  0  0
  9 12  1  0  0  0  0
 10 13  1  0  0  0  0
 11 14  1  0  0  0  0
 11 15  1  0  0  0  0
 12 16  2  0  0  0  0
 13 17  2  0  0  0  0
 14 18  1  0  0  0  0
 15 19  2  0  0  0  0
 16 20  1  0  0  0  0
 20 21  1  1  0  0  0
 20 22  1  0  0  0  0
 20 23  1  0  0  0  0
 22 24  2  0  0  0  0
 22 25  1  0  0  0  0
 23 26  1  0  0  0  0
 23 27  2  0  0  0  0
 24 28  1  0  0  0  0
 25 29  2  0  0  0  0
 26 30  1  0  0  0  0
 26 31  1  0  0  0  0
 27 32  1  0  0  0  0
 28 33  2  0  0  0  0
 33 34  1  0  0  0  0
  6  8  1  0  0  0  0
 13 14  1  0  0  0  0
 16 19  1  0  0  0  0
 29 33  1  0  0  0  0
 30 32  2  0  0  0  0
M  END
>  <MolRegNo>
56713

>  <m>
=

>  <Value>
1700

>  <Unit>
nM

>  <Type>
IC50

>  <pValue>
5.77

>  <Ligand Efficiency>
0

>  <Binding Efficiency>
0

>  <Surface Efficiency>
0

>  <Assay Index>
391702

>  <Assay Category>


>  <Assay Organism>
Homo sapiens

>  <Target ID>
17045

>  <Target Name>
Cytochrome P450 3A4

>  <Target Organism>
Homo sapiens

>  <Target Description>
Target is a single protein chain

>  <Sequence Accession>
P08684

>  <Reference>
J Med Chem 52 (6), 1639-1647 (2009)

>  <Pubmed ID>
19239254

>  <DOI>
10.1021/jm801313t

$$$$
518149
Actelion Java MolfileCreator 1.0

 35 39  0  0  0  0  0  0  0  0999 V2000
    0.0000   -0.0000   -0.0000 Cl  0  0  0  0  0  0  0  0  0  0  0  0
    1.2988   -0.7388   -0.0000 C   0  0  0  0  0  0  0  0  0  0  0  0
    1.2988   -2.2282   -0.0000 C   0  0  0  0  0  0  0  0  0  0  0  0
    2.5976    0.0357   -0.0000 C   0  0  0  0  0  0  0  0  0  0  0  0
    2.5857   -2.9670   -0.0000 C   0  0  0  0  0  0  0  0  0  0  0  0
   -0.0119   -2.9789   -0.0000 C   0  0  0  0  0  0  0  0  0  0  0  0
    3.8964   -0.7030   -0.0000 C   0  0  0  0  0  0  0  0  0  0  0  0
    2.5737   -4.4564   -0.0000 C   0  0  0  0  0  0  0  0  0  0  0  0
    3.8845   -2.2044   -0.0000 C   0  0  0  0  0  0  0  0  0  0  0  0
    3.8725   -5.2071   -0.0000 C   0  0  0  0  0  0  0  0  0  0  0  0
    1.2630   -5.2071   -0.0000 C   0  0  0  0  0  0  0  0  0  0  0  0
    3.8606   -6.7084   -0.0000 C   0  0  0  0  0  0  0  0  0  0  0  0
    5.1594   -4.4445   -0.0000 C   0  0  0  0  0  0  0  0  0  0  0  0
    1.2511   -6.7084   -0.0000 C   0  0  0  0  0  0  0  0  0  0  0  0
    2.5380   -7.4472   -0.0000 N   0  0  0  0  0  0  0  0  0  0  0  0
    5.1475   -7.4472   -0.0000 C   0  0  0  0  0  0  0  0  0  0  0  0
    6.4582   -5.1832   -0.0000 C   0  0  0  0  0  0  0  0  0  0  0  0
   -0.0596   -7.4472   -0.0000 O   0  0  0  0  0  0  0  0  0  0  0  0
    2.5261   -8.9366   -0.0000 C   0  0  0  0  0  0  0  0  0  0  0  0
    6.4463   -6.6846   -0.0000 C   0  0  0  0  0  0  0  0  0  0  0  0
    7.7451   -4.4207   -0.0000 C   0  0  0  0  0  0  0  0  0  0  0  0
    6.4225   -3.6461   -0.0000 N   0  0  0  0  0  0  0  0  0  0  0  0
    9.0439   -5.1594   -0.0000 C   0  0  0  0  0  0  0  0  0  0  0  0
    7.7332   -2.9074   -0.0000 C   0  0  0  0  0  0  0  0  0  0  0  0
    9.0320   -6.6489   -0.0000 C   0  0  0  0  0  0  0  0  0  0  0  0
   10.3188   -4.3849   -0.0000 C   0  0  0  0  0  0  0  0  0  0  0  0
    8.9366   -2.0018   -0.0000 N   0  0  0  0  0  0  0  0  0  0  0  0
    6.5059   -2.0137   -0.0000 C   0  0  0  0  0  0  0  0  0  0  0  0
   10.3188   -7.3876   -0.0000 C   0  0  0  0  0  0  0  0  0  0  0  0
   11.6176   -5.1118   -0.0000 C   0  0  0  0  0  0  0  0  0  0  0  0
    8.4600   -0.5600   -0.0000 C   0  0  0  0  0  0  0  0  0  0  0  0
   10.3546   -2.4546   -0.0000 C   0  0  0  0  0  0  0  0  0  0  0  0
    6.9587   -0.5719   -0.0000 N   0  0  0  0  0  0  0  0  0  0  0  0
   11.6057   -6.6131   -0.0000 C   0  0  0  0  0  0  0  0  0  0  0  0
   12.9045   -7.3519   -0.0000 Cl  0  0  0  0  0  0  0  0  0  0  0  0
  1  2  1  0  0  0  0
  2  3  2  0  0  0  0
  2  4  1  0  0  0  0
  3  5  1  0  0  0  0
  3  6  1  0  0  0  0
  4  7  2  0  0  0  0
  5  8  1  0  0  0  0
  5  9  2  0  0  0  0
  8 10  1  0  0  0  0
  8 11  2  0  0  0  0
 10 12  2  0  0  0  0
 10 13  1  0  0  0  0
 11 14  1  0  0  0  0
 12 15  1  0  0  0  0
 12 16  1  0  0  0  0
 13 17  2  0  0  0  0
 14 18  2  0  0  0  0
 15 19  1  0  0  0  0
 16 20  2  0  0  0  0
 17 21  1  0  0  0  0
 21 22  1  1  0  0  0
 21 23  1  0  0  0  0
 21 24  1  0  0  0  0
 23 25  2  0  0  0  0
 23 26  1  0  0  0  0
 24 27  1  0  0  0  0
 24 28  2  0  0  0  0
 25 29  1  0  0  0  0
 26 30  2  0  0  0  0
 27 31  1  0  0  0  0
 27 32  1  0  0  0  0
 28 33  1  0  0  0  0
 29 34  2  0  0  0  0
 34 35  1  0  0  0  0
  7  9  1  0  0  0  0
 14 15  1  0  0  0  0
 17 20  1  0  0  0  0
 30 34  1  0  0  0  0
 31 33  2  0  0  0  0
M  END
>  <MolRegNo>
518149

>  <m>
=

>  <Value>
1300

>  <Unit>
nM

>  <Type>
IC50

>  <pValue>
5.89

>  <Ligand Efficiency>
0

>  <Binding Efficiency>
0

>  <Surface Efficiency>
0

>  <Assay Index>
391702

>  <Assay Category>


>  <Assay Organism>
Homo sapiens

>  <Target ID>
17045

>  <Target Name>
Cytochrome P450 3A4

>  <Target Organism>
Homo sapiens

>  <Target Description>
Target is a single protein chain

>  <Sequence Accession>
P08684

>  <Reference>
J Med Chem 52 (6), 1639-1647 (2009)

>  <Pubmed ID>
19239254

>  <DOI>
10.1021/jm801313t

$$$$
518150
Actelion Java MolfileCreator 1.0

 34 38  0  0  0  0  0  0  0  0999 V2000
    0.0000   -0.0000   -0.0000 Cl  0  0  0  0  0  0  0  0  0  0  0  0
   -1.3018    0.7574   -0.0000 C   0  0  0  0  0  0  0  0  0  0  0  0
   -2.6035    0.0237   -0.0000 C   0  0  0  0  0  0  0  0  0  0  0  0
   -1.3254    2.2722   -0.0000 C   0  0  0  0  0  0  0  0  0  0  0  0
   -3.9053    0.7811   -0.0000 C   0  0  0  0  0  0  0  0  0  0  0  0
   -2.6272    3.0177   -0.0000 C   0  0  0  0  0  0  0  0  0  0  0  0
   -3.9171    2.2840   -0.0000 C   0  0  0  0  0  0  0  0  0  0  0  0
   -5.2188    3.0414   -0.0000 C   0  0  0  0  0  0  0  0  0  0  0  0
   -6.5324    3.8106   -0.0000 N   0  0  0  0  0  0  0  0  0  0  0  0
   -6.5206    2.3077   -0.0000 C   0  0  0  0  0  0  0  0  0  0  0  0
   -5.2307    4.5443   -0.0000 C   0  0  0  0  0  0  0  0  0  0  0  0
   -7.8224    3.0650   -0.0000 C   0  0  0  0  0  0  0  0  0  0  0  0
   -6.5324    0.8166   -0.0000 C   0  0  0  0  0  0  0  0  0  0  0  0
   -4.0354    5.4437   -0.0000 N   0  0  0  0  0  0  0  0  0  0  0  0
   -6.4496    5.4319   -0.0000 C   0  0  0  0  0  0  0  0  0  0  0  0
   -9.1241    2.3313   -0.0000 C   0  0  0  0  0  0  0  0  0  0  0  0
   -7.8460    0.0828   -0.0000 C   0  0  0  0  0  0  0  0  0  0  0  0
   -4.5088    6.8756   -0.0000 C   0  0  0  0  0  0  0  0  0  0  0  0
   -2.6272    4.9940   -0.0000 C   0  0  0  0  0  0  0  0  0  0  0  0
   -5.9999    6.8638   -0.0000 N   0  0  0  0  0  0  0  0  0  0  0  0
  -10.4377    3.1005   -0.0000 C   0  0  0  0  0  0  0  0  0  0  0  0
   -9.1359    0.8402   -0.0000 C   0  0  0  0  0  0  0  0  0  0  0  0
  -10.4495    4.6035   -0.0000 C   0  0  0  0  0  0  0  0  0  0  0  0
  -11.7394    2.3550   -0.0000 C   0  0  0  0  0  0  0  0  0  0  0  0
  -10.4495    0.1065   -0.0000 N   0  0  0  0  0  0  0  0  0  0  0  0
  -11.7513    5.3490   -0.0000 C   0  0  0  0  0  0  0  0  0  0  0  0
   -9.1714    5.3609   -0.0000 C   0  0  0  0  0  0  0  0  0  0  0  0
  -11.7513    0.8639   -0.0000 C   0  0  0  0  0  0  0  0  0  0  0  0
  -10.4614   -1.3728   -0.0000 C   0  0  0  0  0  0  0  0  0  0  0  0
  -11.7749    6.8520   -0.0000 C   0  0  0  0  0  0  0  0  0  0  0  0
  -13.0530    4.6035   -0.0000 C   0  0  0  0  0  0  0  0  0  0  0  0
   -9.1833    6.8638   -0.0000 C   0  0  0  0  0  0  0  0  0  0  0  0
  -13.0530    0.1302   -0.0000 O   0  0  0  0  0  0  0  0  0  0  0  0
  -10.4969    7.6212   -0.0000 C   0  0  0  0  0  0  0  0  0  0  0  0
  1  2  1  0  0  0  0
  2  3  2  0  0  0  0
  2  4  1  0  0  0  0
  3  5  1  0  0  0  0
  4  6  2  0  0  0  0
  5  7  2  0  0  0  0
  7  8  1  0  0  0  0
  8  9  1  1  0  0  0
  8 10  1  0  0  0  0
  8 11  1  0  0  0  0
 10 12  2  0  0  0  0
 10 13  1  0  0  0  0
 11 14  1  0  0  0  0
 11 15  2  0  0  0  0
 12 16  1  0  0  0  0
 13 17  2  0  0  0  0
 14 18  1  0  0  0  0
 14 19  1  0  0  0  0
 15 20  1  0  0  0  0
 16 21  1  0  0  0  0
 16 22  2  0  0  0  0
 21 23  1  0  0  0  0
 21 24  2  0  0  0  0
 22 25  1  0  0  0  0
 23 26  2  0  0  0  0
 23 27  1  0  0  0  0
 24 28  1  0  0  0  0
 25 29  1  0  0  0  0
 26 30  1  0  0  0  0
 26 31  1  0  0  0  0
 27 32  2  0  0  0  0
 28 33  2  0  0  0  0
 30 34  2  0  0  0  0
  6  7  1  0  0  0  0
 17 22  1  0  0  0  0
 18 20  2  0  0  0  0
 25 28  1  0  0  0  0
 32 34  1  0  0  0  0
M  END
>  <MolRegNo>
518150

>  <m>
=

>  <Value>
1350

>  <Unit>
nM

>  <Type>
IC50

>  <pValue>
5.87

>  <Ligand Efficiency>
0

>  <Binding Efficiency>
0

>  <Surface Efficiency>
0

>  <Assay Index>
391702

>  <Assay Category>


>  <Assay Organism>
Homo sapiens

>  <Target ID>
17045

>  <Target Name>
Cytochrome P450 3A4

>  <Target Organism>
Homo sapiens

>  <Target Description>
Target is a single protein chain

>  <Sequence Accession>
P08684

>  <Reference>
J Med Chem 52 (6), 1639-1647 (2009)

>  <Pubmed ID>
19239254

>  <DOI>
10.1021/jm801313t

$$$$
517579
Actelion Java MolfileCreator 1.0

 37 42  0  0  0  0  0  0  0  0999 V2000
    0.0000   -0.0000   -0.0000 Cl  0  0  0  0  0  0  0  0  0  0  0  0
   -1.3142    0.7577   -0.0000 C   0  0  0  0  0  0  0  0  0  0  0  0
   -2.6166    0.0237   -0.0000 C   0  0  0  0  0  0  0  0  0  0  0  0
   -1.3379    2.2732   -0.0000 C   0  0  0  0  0  0  0  0  0  0  0  0
   -3.9190    0.7814   -0.0000 C   0  0  0  0  0  0  0  0  0  0  0  0
   -2.6403    3.0191   -0.0000 C   0  0  0  0  0  0  0  0  0  0  0  0
   -3.9308    2.2851   -0.0000 C   0  0  0  0  0  0  0  0  0  0  0  0
   -5.2332    3.0428   -0.0000 C   0  0  0  0  0  0  0  0  0  0  0  0
   -6.5474    3.8124   -0.0000 N   0  0  0  0  0  0  0  0  0  0  0  0
   -6.5356    2.3088   -0.0000 C   0  0  0  0  0  0  0  0  0  0  0  0
   -5.2450    4.5465   -0.0000 C   0  0  0  0  0  0  0  0  0  0  0  0
   -7.8379    3.0665   -0.0000 C   0  0  0  0  0  0  0  0  0  0  0  0
   -6.5474    0.8169   -0.0000 C   0  0  0  0  0  0  0  0  0  0  0  0
   -4.0492    5.4463   -0.0000 N   0  0  0  0  0  0  0  0  0  0  0  0
   -6.4645    5.4345   -0.0000 C   0  0  0  0  0  0  0  0  0  0  0  0
   -9.1403    2.3324   -0.0000 C   0  0  0  0  0  0  0  0  0  0  0  0
   -7.8616    0.0829   -0.0000 C   0  0  0  0  0  0  0  0  0  0  0  0
   -4.5228    6.8789   -0.0000 C   0  0  0  0  0  0  0  0  0  0  0  0
   -2.6403    4.9964   -0.0000 C   0  0  0  0  0  0  0  0  0  0  0  0
   -6.0146    6.8671   -0.0000 N   0  0  0  0  0  0  0  0  0  0  0  0
  -10.4545    3.1020   -0.0000 C   0  0  0  0  0  0  0  0  0  0  0  0
   -9.1522    0.8406   -0.0000 C   0  0  0  0  0  0  0  0  0  0  0  0
  -10.4664    4.6057   -0.0000 C   0  0  0  0  0  0  0  0  0  0  0  0
  -11.7569    2.3561   -0.0000 C   0  0  0  0  0  0  0  0  0  0  0  0
  -10.4664    0.1066   -0.0000 N   0  0  0  0  0  0  0  0  0  0  0  0
  -11.7688    5.3516   -0.0000 C   0  0  0  0  0  0  0  0  0  0  0  0
   -9.1877    5.3634   -0.0000 C   0  0  0  0  0  0  0  0  0  0  0  0
  -11.7688    0.8643   -0.0000 C   0  0  0  0  0  0  0  0  0  0  0  0
  -10.4782   -1.3734   -0.0000 C   0  0  0  0  0  0  0  0  0  0  0  0
  -11.7924    6.8552   -0.0000 C   0  0  0  0  0  0  0  0  0  0  0  0
  -13.0593    4.6175   -0.0000 C   0  0  0  0  0  0  0  0  0  0  0  0
   -9.1995    6.8671   -0.0000 C   0  0  0  0  0  0  0  0  0  0  0  0
  -13.0711    0.1302   -0.0000 O   0  0  0  0  0  0  0  0  0  0  0  0
  -10.5137    7.6248   -0.0000 C   0  0  0  0  0  0  0  0  0  0  0  0
  -13.0948    7.5893   -0.0000 C   0  0  0  0  0  0  0  0  0  0  0  0
  -14.3617    5.3516   -0.0000 C   0  0  0  0  0  0  0  0  0  0  0  0
  -14.3854    6.8552   -0.0000 C   0  0  0  0  0  0  0  0  0  0  0  0
  1  2  1  0  0  0  0
  2  3  2  0  0  0  0
  2  4  1  0  0  0  0
  3  5  1  0  0  0  0
  4  6  2  0  0  0  0
  5  7  2  0  0  0  0
  7  8  1  0  0  0  0
  8  9  1  1  0  0  0
  8 10  1  0  0  0  0
  8 11  1  0  0  0  0
 10 12  2  0  0  0  0
 10 13  1  0  0  0  0
 11 14  1  0  0  0  0
 11 15  2  0  0  0  0
 12 16  1  0  0  0  0
 13 17  2  0  0  0  0
 14 18  1  0  0  0  0
 14 19  1  0  0  0  0
 15 20  1  0  0  0  0
 16 21  1  0  0  0  0
 16 22  2  0  0  0  0
 21 23  1  0  0  0  0
 21 24  2  0  0  0  0
 22 25  1  0  0  0  0
 23 26  1  0  0  0  0
 23 27  2  0  0  0  0
 24 28  1  0  0  0  0
 25 29  1  0  0  0  0
 26 30  1  0  0  0  0
 26 31  2  0  0  0  0
 27 32  1  0  0  0  0
 28 33  2  0  0  0  0
 30 34  1  0  0  0  0
 30 35  2  0  0  0  0
 31 36  1  0  0  0  0
 35 37  1  0  0  0  0
  6  7  1  0  0  0  0
 17 22  1  0  0  0  0
 18 20  2  0  0  0  0
 25 28  1  0  0  0  0
 32 34  2  0  0  0  0
 36 37  2  0  0  0  0
M  END
>  <MolRegNo>
517579

>  <m>
=

>  <Value>
550

>  <Unit>
nM

>  <Type>
IC50

>  <pValue>
6.26

>  <Ligand Efficiency>
0

>  <Binding Efficiency>
0

>  <Surface Efficiency>
0

>  <Assay Index>
391702

>  <Assay Category>


>  <Assay Organism>
Homo sapiens

>  <Target ID>
17045

>  <Target Name>
Cytochrome P450 3A4

>  <Target Organism>
Homo sapiens

>  <Target Description>
Target is a single protein chain

>  <Sequence Accession>
P08684

>  <Reference>
J Med Chem 52 (6), 1639-1647 (2009)

>  <Pubmed ID>
19239254

>  <DOI>
10.1021/jm801313t

$$$$
517580
Actelion Java MolfileCreator 1.0

 36 40  0  0  0  0  0  0  0  0999 V2000
    0.0000   -0.0000   -0.0000 Cl  0  0  0  0  0  0  0  0  0  0  0  0
    1.2946   -0.7328   -0.0000 C   0  0  0  0  0  0  0  0  0  0  0  0
    1.2946   -2.2106   -0.0000 C   0  0  0  0  0  0  0  0  0  0  0  0
    2.5893    0.0366   -0.0000 C   0  0  0  0  0  0  0  0  0  0  0  0
    2.5770   -2.9435   -0.0000 C   0  0  0  0  0  0  0  0  0  0  0  0
   -0.0122   -2.9557   -0.0000 C   0  0  0  0  0  0  0  0  0  0  0  0
    3.8839   -0.6962   -0.0000 C   0  0  0  0  0  0  0  0  0  0  0  0
    2.5648   -4.4213   -0.0000 C   0  0  0  0  0  0  0  0  0  0  0  0
    3.8717   -2.1862   -0.0000 C   0  0  0  0  0  0  0  0  0  0  0  0
    3.8595   -5.1663   -0.0000 C   0  0  0  0  0  0  0  0  0  0  0  0
    1.2580   -5.1663   -0.0000 C   0  0  0  0  0  0  0  0  0  0  0  0
    3.8473   -6.6564   -0.0000 C   0  0  0  0  0  0  0  0  0  0  0  0
    5.1297   -4.3846   -0.0000 C   0  0  0  0  0  0  0  0  0  0  0  0
    1.2458   -6.6686   -0.0000 C   0  0  0  0  0  0  0  0  0  0  0  0
    2.5282   -7.4014   -0.0000 N   0  0  0  0  0  0  0  0  0  0  0  0
    5.1297   -7.4014   -0.0000 C   0  0  0  0  0  0  0  0  0  0  0  0
    6.4243   -5.1297   -0.0000 C   0  0  0  0  0  0  0  0  0  0  0  0
   -0.0611   -7.4014   -0.0000 O   0  0  0  0  0  0  0  0  0  0  0  0
    2.5160   -8.8914   -0.0000 C   0  0  0  0  0  0  0  0  0  0  0  0
    6.4243   -6.6319   -0.0000 C   0  0  0  0  0  0  0  0  0  0  0  0
    7.7067   -4.3602   -0.0000 C   0  0  0  0  0  0  0  0  0  0  0  0
    6.3877   -3.5908   -0.0000 O   0  0  0  0  0  0  0  0  0  0  0  0
    9.0014   -5.0930   -0.0000 C   0  0  0  0  0  0  0  0  0  0  0  0
    7.6945   -2.8457   -0.0000 C   0  0  0  0  0  0  0  0  0  0  0  0
    5.3129   -2.5160   -0.0000 C   0  0  0  0  0  0  0  0  0  0  0  0
    8.9891   -6.5831   -0.0000 C   0  0  0  0  0  0  0  0  0  0  0  0
   10.2716   -4.3236   -0.0000 C   0  0  0  0  0  0  0  0  0  0  0  0
    8.9036   -1.9419   -0.0000 N   0  0  0  0  0  0  0  0  0  0  0  0
    6.3877   -2.0763   -0.0000 C   0  0  0  0  0  0  0  0  0  0  0  0
   10.2716   -7.3159   -0.0000 C   0  0  0  0  0  0  0  0  0  0  0  0
   11.5662   -5.0564   -0.0000 C   0  0  0  0  0  0  0  0  0  0  0  0
    8.4273   -0.5008   -0.0000 C   0  0  0  0  0  0  0  0  0  0  0  0
   10.3204   -2.3938   -0.0000 C   0  0  0  0  0  0  0  0  0  0  0  0
    6.9251   -0.5130   -0.0000 N   0  0  0  0  0  0  0  0  0  0  0  0
   11.5540   -6.5464   -0.0000 C   0  0  0  0  0  0  0  0  0  0  0  0
   12.8486   -7.2793   -0.0000 Cl  0  0  0  0  0  0  0  0  0  0  0  0
  1  2  1  0  0  0  0
  2  3  2  0  0  0  0
  2  4  1  0  0  0  0
  3  5  1  0  0  0  0
  3  6  1  0  0  0  0
  4  7  2  0  0  0  0
  5  8  1  0  0  0  0
  5  9  2  0  0  0  0
  8 10  1  0  0  0  0
  8 11  2  0  0  0  0
 10 12  2  0  0  0  0
 10 13  1  0  0  0  0
 11 14  1  0  0  0  0
 12 15  1  0  0  0  0
 12 16  1  0  0  0  0
 13 17  2  0  0  0  0
 14 18  2  0  0  0  0
 15 19  1  0  0  0  0
 16 20  2  0  0  0  0
 17 21  1  0  0  0  0
 21 22  1  1  0  0  0
 21 23  1  0  0  0  0
 21 24  1  0  0  0  0
 22 25  1  0  0  0  0
 23 26  2  0  0  0  0
 23 27  1  0  0  0  0
 24 28  1  0  0  0  0
 24 29  2  0  0  0  0
 26 30  1  0  0  0  0
 27 31  2  0  0  0  0
 28 32  1  0  0  0  0
 28 33  1  0  0  0  0
 29 34  1  0  0  0  0
 30 35  2  0  0  0  0
 35 36  1  0  0  0  0
  7  9  1  0  0  0  0
 14 15  1  0  0  0  0
 17 20  1  0  0  0  0
 31 35  1  0  0  0  0
 32 34  2  0  0  0  0
M  END
>  <MolRegNo>
517580

>  <m>
=

>  <Value>
870

>  <Unit>
nM

>  <Type>
IC50

>  <pValue>
6.06

>  <Ligand Efficiency>
0

>  <Binding Efficiency>
0

>  <Surface Efficiency>
0

>  <Assay Index>
391702

>  <Assay Category>


>  <Assay Organism>
Homo sapiens

>  <Target ID>
17045

>  <Target Name>
Cytochrome P450 3A4

>  <Target Organism>
Homo sapiens

>  <Target Description>
Target is a single protein chain

>  <Sequence Accession>
P08684

>  <Reference>
J Med Chem 52 (6), 1639-1647 (2009)

>  <Pubmed ID>
19239254

>  <DOI>
10.1021/jm801313t

$$$$
334337
Actelion Java MolfileCreator 1.0

 51 57  0  0  1  0  0  0  0  0999 V2000
    0.0000   -0.0000   -0.0000 F   0  0  0  0  0  0  0  0  0  0  0  0
   -0.3680   -1.4483   -0.0000 C   0  0  0  0  0  0  0  0  0  0  0  0
    0.7123   -2.4929   -0.0000 C   0  0  0  0  0  0  0  0  0  0  0  0
   -1.8281   -1.8519   -0.0000 C   0  0  0  0  0  0  0  0  0  0  0  0
    0.3324   -3.9293   -0.0000 C   0  0  0  0  0  0  0  0  0  0  0  0
    2.1487   -2.0656   -0.0000 C   0  0  0  0  0  0  0  0  0  0  0  0
   -2.2199   -3.3001   -0.0000 C   0  0  0  0  0  0  0  0  0  0  0  0
   -1.1396   -4.3329   -0.0000 C   0  0  0  0  0  0  0  0  0  0  0  0
    2.1368   -0.5461   -0.0000 O   0  0  0  0  0  0  0  0  0  0  0  0
    3.5851   -2.5048   -0.0000 C   0  0  0  0  0  0  0  0  0  0  0  0
    1.3296   -3.3001   -0.0000 C   0  0  0  0  0  0  0  0  0  0  0  0
   -3.6800   -3.7038   -0.0000 F   0  0  0  0  0  0  0  0  0  0  0  0
    3.5732   -0.0475   -0.0000 C   0  0  0  0  0  0  0  0  0  0  0  0
    4.4398   -1.2702   -0.0000 C   0  0  0  0  0  0  0  0  0  0  0  0
    1.9943   -4.6534   -0.0000 N   0  0  0  0  0  0  0  0  0  0  0  0
    5.9355   -1.2583   -0.0000 C   0  0  0  0  0  0  0  0  0  0  0  0
    1.2821   -5.9711   -0.0000 N   0  0  0  0  0  0  0  0  0  0  0  0
    3.4663   -4.9027   -0.0000 C   0  0  0  0  0  0  0  0  0  0  0  0
    6.6834    0.0712   -0.0000 O   0  0  0  0  0  0  0  0  0  0  0  0
    2.3267   -7.0158   -0.0000 C   0  0  0  0  0  0  0  0  0  0  0  0
    3.6800   -6.3629   -0.0000 N   0  0  0  0  0  0  0  0  0  0  0  0
    8.1791    0.0831   -0.0000 C   0  0  0  0  0  0  0  0  0  0  0  0
    8.9151   -1.2108   -0.0000 C   0  0  0  0  0  0  0  0  0  0  0  0
    8.9151    1.4127   -0.0000 C   0  0  0  0  0  0  0  0  0  0  0  0
   10.4109   -1.1752   -0.0000 C   0  0  0  0  0  0  0  0  0  0  0  0
   10.3990    1.4245   -0.0000 C   0  0  0  0  0  0  0  0  0  0  0  0
   11.1588    0.1306   -0.0000 C   0  0  0  0  0  0  0  0  0  0  0  0
   12.6308    0.1425   -0.0000 N   0  0  0  0  0  0  0  0  0  0  0  0
   13.3786   -1.1396   -0.0000 C   0  0  0  0  0  0  0  0  0  0  0  0
   13.3549    1.4601   -0.0000 C   0  0  0  0  0  0  0  0  0  0  0  0
   14.8507   -1.1277   -0.0000 C   0  0  0  0  0  0  0  0  0  0  0  0
   14.8507    1.4839   -0.0000 C   0  0  0  0  0  0  0  0  0  0  0  0
   15.6104    0.2018   -0.0000 N   0  0  0  0  0  0  0  0  0  0  0  0
   17.0943    0.2137   -0.0000 C   0  0  0  0  0  0  0  0  0  0  0  0
   17.8303   -1.0803   -0.0000 C   0  0  0  0  0  0  0  0  0  0  0  0
   17.8184    1.5432   -0.0000 C   0  0  0  0  0  0  0  0  0  0  0  0
   19.3260   -1.0684   -0.0000 C   0  0  0  0  0  0  0  0  0  0  0  0
   19.3142    1.5551   -0.0000 C   0  0  0  0  0  0  0  0  0  0  0  0
   20.0502    0.2612   -0.0000 C   0  0  0  0  0  0  0  0  0  0  0  0
   21.5459    0.2968   -0.0000 N   0  0  0  0  0  0  0  0  0  0  0  0
   22.4244    1.5314   -0.0000 C   0  0  0  0  0  0  0  0  0  0  0  0
   22.4244   -0.9141   -0.0000 C   0  0  0  0  0  0  0  0  0  0  0  0
   21.9258    2.9678   -0.0000 O   0  0  0  0  0  0  0  0  0  0  0  0
   23.8370    1.0921   -0.0000 N   0  0  0  0  0  0  0  0  0  0  0  0
   23.8608   -0.4155   -0.0000 N   0  0  0  0  0  0  0  0  0  0  0  0
   25.0479    1.9706   -0.0000 C   0  0  0  0  0  0  0  0  0  0  0  0
   26.4012    1.3889   -0.0000 C   0  0  0  0  0  0  0  0  0  0  0  0
   24.8698    3.4901   -0.0000 C   0  0  0  0  0  0  0  0  0  0  0  0
   27.6120    2.3030   -0.0000 O   0  0  0  0  0  0  0  0  0  0  0  0
   26.5555   -0.0831   -0.0000 C   0  0  0  0  0  0  0  0  0  0  0  0
   26.0807    4.4042   -0.0000 C   0  0  0  0  0  0  0  0  0  0  0  0
  1  2  1  0  0  0  0
  2  3  2  0  0  0  0
  2  4  1  0  0  0  0
  3  5  1  0  0  0  0
  3  6  1  0  0  0  0
  4  7  2  0  0  0  0
  5  8  2  0  0  0  0
  6  9  1  0  0  0  0
  6 10  1  0  0  0  0
  6 11  1  1  0  0  0
  7 12  1  0  0  0  0
  9 13  1  0  0  0  0
 10 14  1  0  0  0  0
 11 15  1  0  0  0  0
 14 16  1  1  0  0  0
 15 17  1  0  0  0  0
 15 18  1  0  0  0  0
 16 19  1  0  0  0  0
 17 20  2  0  0  0  0
 18 21  2  0  0  0  0
 19 22  1  0  0  0  0
 22 23  2  0  0  0  0
 22 24  1  0  0  0  0
 23 25  1  0  0  0  0
 24 26  2  0  0  0  0
 25 27  2  0  0  0  0
 27 28  1  0  0  0  0
 28 29  1  0  0  0  0
 28 30  1  0  0  0  0
 29 31  1  0  0  0  0
 30 32  1  0  0  0  0
 31 33  1  0  0  0  0
 33 34  1  0  0  0  0
 34 35  2  0  0  0  0
 34 36  1  0  0  0  0
 35 37  1  0  0  0  0
 36 38  2  0  0  0  0
 37 39  2  0  0  0  0
 39 40  1  0  0  0  0
 40 41  1  0  0  0  0
 40 42  1  0  0  0  0
 41 43  2  0  0  0  0
 41 44  1  0  0  0  0
 42 45  2  0  0  0  0
 46 44  1  1  0  0  0
 46 47  1  0  0  0  0
 46 48  1  0  0  0  0
 47 49  1  1  0  0  0
 47 50  1  0  0  0  0
 48 51  1  0  0  0  0
  7  8  1  0  0  0  0
 13 14  1  0  0  0  0
 20 21  1  0  0  0  0
 26 27  1  0  0  0  0
 32 33  1  0  0  0  0
 38 39  1  0  0  0  0
 44 45  1  0  0  0  0
M  END
>  <MolRegNo>
334337

>  <m>
=

>  <Value>
350

>  <Unit>
nM

>  <Type>
IC50

>  <pValue>
6.46

>  <Ligand Efficiency>
0

>  <Binding Efficiency>
0

>  <Surface Efficiency>
0

>  <Assay Index>
391702

>  <Assay Category>


>  <Assay Organism>
Homo sapiens

>  <Target ID>
17045

>  <Target Name>
Cytochrome P450 3A4

>  <Target Organism>
Homo sapiens

>  <Target Description>
Target is a single protein chain

>  <Sequence Accession>
P08684

>  <Reference>
J Med Chem 52 (6), 1639-1647 (2009)

>  <Pubmed ID>
19239254

>  <DOI>
10.1021/jm801313t

$$$$
394699
Actelion Java MolfileCreator 1.0

 31 34  0  0  0  0  0  0  0  0999 V2000
    0.0000   -0.0000   -0.0000 Cl  0  0  0  0  0  0  0  0  0  0  0  0
    1.4920    0.0119   -0.0000 C   0  0  0  0  0  0  0  0  0  0  0  0
    2.2320    1.3249   -0.0000 C   0  0  0  0  0  0  0  0  0  0  0  0
    2.2320   -1.2771   -0.0000 C   0  0  0  0  0  0  0  0  0  0  0  0
    3.7239    1.3368   -0.0000 C   0  0  0  0  0  0  0  0  0  0  0  0
    3.7359   -1.2652   -0.0000 C   0  0  0  0  0  0  0  0  0  0  0  0
    4.4640    0.0597   -0.0000 C   0  0  0  0  0  0  0  0  0  0  0  0
    4.5952    2.5662   -0.0000 C   0  0  0  0  0  0  0  0  0  0  0  0
    5.9559    0.0716   -0.0000 O   0  0  0  0  0  0  0  0  0  0  0  0
    6.0872    2.5781   -0.0000 C   0  0  0  0  0  0  0  0  0  0  0  0
    4.1178    4.0104   -0.0000 C   0  0  0  0  0  0  0  0  0  0  0  0
    6.7079   -1.2174   -0.0000 C   0  0  0  0  0  0  0  0  0  0  0  0
    6.9585    1.3726   -0.0000 C   0  0  0  0  0  0  0  0  0  0  0  0
    6.5408    4.0223   -0.0000 C   0  0  0  0  0  0  0  0  0  0  0  0
    5.3233    4.9056   -0.0000 C   0  0  0  0  0  0  0  0  0  0  0  0
    5.9440   -2.5184   -0.0000 C   0  0  0  0  0  0  0  0  0  0  0  0
    8.2476    2.1246   -0.0000 N   0  0  0  0  0  0  0  0  0  0  0  0
    6.9346   -0.1194   -0.0000 C   0  0  0  0  0  0  0  0  0  0  0  0
    6.6959   -3.7956   -0.0000 C   0  0  0  0  0  0  0  0  0  0  0  0
    4.4281   -2.5065   -0.0000 C   0  0  0  0  0  0  0  0  0  0  0  0
    9.5366    1.3845   -0.0000 C   0  0  0  0  0  0  0  0  0  0  0  0
    8.2237   -0.8713   -0.0000 C   0  0  0  0  0  0  0  0  0  0  0  0
    8.1879   -3.7717   -0.0000 F   0  0  0  0  0  0  0  0  0  0  0  0
    5.9440   -5.0965   -0.0000 C   0  0  0  0  0  0  0  0  0  0  0  0
    3.6643   -3.7956   -0.0000 C   0  0  0  0  0  0  0  0  0  0  0  0
   10.8376    2.1484   -0.0000 C   0  0  0  0  0  0  0  0  0  0  0  0
    9.5247   -0.1194   -0.0000 C   0  0  0  0  0  0  0  0  0  0  0  0
    4.4162   -5.0965   -0.0000 C   0  0  0  0  0  0  0  0  0  0  0  0
   10.8257    3.6643   -0.0000 O   0  0  0  0  0  0  0  0  0  0  0  0
   12.1267    1.4084   -0.0000 O   0  0  0  0  0  0  0  0  0  0  0  0
    3.6523   -6.3975   -0.0000 F   0  0  0  0  0  0  0  0  0  0  0  0
  1  2  1  0  0  0  0
  2  3  2  0  0  0  0
  2  4  1  0  0  0  0
  3  5  1  0  0  0  0
  4  6  2  0  0  0  0
  5  7  2  0  0  0  0
  5  8  1  0  0  0  0
  7  9  1  0  0  0  0
  8 10  2  0  0  0  0
  8 11  1  0  0  0  0
  9 12  1  0  0  0  0
 10 13  1  0  0  0  0
 10 14  1  0  0  0  0
 11 15  1  0  0  0  0
 12 16  1  0  0  0  0
 13 17  2  0  0  0  0
 13 18  1  0  0  0  0
 16 19  2  0  0  0  0
 16 20  1  0  0  0  0
 17 21  1  0  0  0  0
 18 22  2  0  0  0  0
 19 23  1  0  0  0  0
 19 24  1  0  0  0  0
 20 25  2  0  0  0  0
 21 26  1  0  0  0  0
 21 27  2  0  0  0  0
 24 28  2  0  0  0  0
 26 29  2  0  0  0  0
 26 30  1  0  0  0  0
 28 31  1  0  0  0  0
  6  7  1  0  0  0  0
 14 15  1  0  0  0  0
 22 27  1  0  0  0  0
 25 28  1  0  0  0  0
M  END
>  <MolRegNo>
394699

>  <m>
=

>  <Value>
89000

>  <Unit>
nM

>  <Type>
IC50

>  <pValue>
4.05

>  <Ligand Efficiency>
0

>  <Binding Efficiency>
0

>  <Surface Efficiency>
0

>  <Assay Index>
393008

>  <Assay Category>


>  <Assay Organism>


>  <Target ID>
17045

>  <Target Name>
Cytochrome P450 3A4

>  <Target Organism>
Homo sapiens

>  <Target Description>
Target is a single protein chain

>  <Sequence Accession>
P08684

>  <Reference>
Bioorg Med Chem Lett 19 (2), 497-501 (2009)

>  <Pubmed ID>
19036582

>  <DOI>
10.1016/j.bmcl.2008.11.032

$$$$
479179
Actelion Java MolfileCreator 1.0

 48 52  0  0  0  0  0  0  0  0999 V2000
    0.0000   -0.0000   -0.0000 Cl  0  0  0  0  0  0  0  0  0  0  0  0
    1.2925    0.7470   -0.0000 C   0  0  0  0  0  0  0  0  0  0  0  0
    1.2925    2.2529   -0.0000 C   0  0  0  0  0  0  0  0  0  0  0  0
    2.5731   -0.0000   -0.0000 C   0  0  0  0  0  0  0  0  0  0  0  0
    2.5731    2.9999   -0.0000 C   0  0  0  0  0  0  0  0  0  0  0  0
   -0.0119    3.0237   -0.0000 C   0  0  0  0  0  0  0  0  0  0  0  0
    3.8655    0.7470   -0.0000 N   0  0  0  0  0  0  0  0  0  0  0  0
    2.5731    4.5058   -0.0000 Cl  0  0  0  0  0  0  0  0  0  0  0  0
    3.8537    2.2648   -0.0000 C   0  0  0  0  0  0  0  0  0  0  0  0
   -0.0119    4.5295   -0.0000 O   0  0  0  0  0  0  0  0  0  0  0  0
   -1.3280    2.3003   -0.0000 N   0  0  0  0  0  0  0  0  0  0  0  0
   -2.6324    3.0711   -0.0000 C   0  0  0  0  0  0  0  0  0  0  0  0
   -3.9485    2.3478   -0.0000 C   0  0  0  0  0  0  0  0  0  0  0  0
   -2.6324    4.5888   -0.0000 C   0  0  0  0  0  0  0  0  0  0  0  0
   -5.2410    3.1185   -0.0000 C   0  0  0  0  0  0  0  0  0  0  0  0
   -3.9130    5.3596   -0.0000 C   0  0  0  0  0  0  0  0  0  0  0  0
   -5.2291    4.6244   -0.0000 C   0  0  0  0  0  0  0  0  0  0  0  0
   -6.5335    5.3951   -0.0000 C   0  0  0  0  0  0  0  0  0  0  0  0
   -6.5335    6.9010   -0.0000 C   0  0  0  0  0  0  0  0  0  0  0  0
   -7.8378    7.6718   -0.0000 N   0  0  0  0  0  0  0  0  0  0  0  0
   -5.2410    7.6481   -0.0000 C   0  0  0  0  0  0  0  0  0  0  0  0
   -9.1540    6.9485   -0.0000 C   0  0  0  0  0  0  0  0  0  0  0  0
   -5.2291    9.1540   -0.0000 O   0  0  0  0  0  0  0  0  0  0  0  0
   -3.9604    6.9010   -0.0000 O   0  0  0  0  0  0  0  0  0  0  0  0
   -9.1777    5.4663   -0.0000 O   0  0  0  0  0  0  0  0  0  0  0  0
  -10.4583    7.7192   -0.0000 C   0  0  0  0  0  0  0  0  0  0  0  0
   -2.6679    7.6481   -0.0000 C   0  0  0  0  0  0  0  0  0  0  0  0
  -11.6796    6.8536   -0.0000 N   0  0  0  0  0  0  0  0  0  0  0  0
  -10.9326    9.1540   -0.0000 C   0  0  0  0  0  0  0  0  0  0  0  0
   -1.3873    6.9010   -0.0000 C   0  0  0  0  0  0  0  0  0  0  0  0
  -11.6914    5.3714   -0.0000 S   0  0  0  0  0  0  0  0  0  0  0  0
  -12.9009    7.7429   -0.0000 C   0  0  0  0  0  0  0  0  0  0  0  0
  -12.4385    9.1658   -0.0000 C   0  0  0  0  0  0  0  0  0  0  0  0
  -10.2567    5.7746   -0.0000 O   0  0  0  0  0  0  0  0  0  0  0  0
  -10.6361    4.3280   -0.0000 O   0  0  0  0  0  0  0  0  0  0  0  0
  -12.9958    4.6244   -0.0000 C   0  0  0  0  0  0  0  0  0  0  0  0
  -13.3396   10.3871   -0.0000 N   0  0  0  0  0  0  0  0  0  0  0  0
  -13.0076    3.1304   -0.0000 C   0  0  0  0  0  0  0  0  0  0  0  0
  -14.3001    5.3833   -0.0000 C   0  0  0  0  0  0  0  0  0  0  0  0
  -12.7468   11.7626   -0.0000 C   0  0  0  0  0  0  0  0  0  0  0  0
  -14.3238    2.3952   -0.0000 C   0  0  0  0  0  0  0  0  0  0  0  0
  -15.6044    4.6481   -0.0000 C   0  0  0  0  0  0  0  0  0  0  0  0
  -11.3594   12.3080   -0.0000 C   0  0  0  0  0  0  0  0  0  0  0  0
  -13.3041   13.1618   -0.0000 C   0  0  0  0  0  0  0  0  0  0  0  0
  -14.3357    0.9130   -0.0000 C   0  0  0  0  0  0  0  0  0  0  0  0
  -15.6281    3.1541   -0.0000 C   0  0  0  0  0  0  0  0  0  0  0  0
  -11.9167   13.7191   -0.0000 C   0  0  0  0  0  0  0  0  0  0  0  0
  -14.3475   -0.5692   -0.0000 N   0  0  0  0  0  0  0  0  0  0  0  0
  1  2  1  0  0  0  0
  2  3  2  0  0  0  0
  2  4  1  0  0  0  0
  3  5  1  0  0  0  0
  3  6  1  0  0  0  0
  4  7  2  0  0  0  0
  5  8  1  0  0  0  0
  5  9  2  0  0  0  0
  6 10  2  0  0  0  0
  6 11  1  0  0  0  0
 11 12  1  0  0  0  0
 12 13  2  0  0  0  0
 12 14  1  0  0  0  0
 13 15  1  0  0  0  0
 14 16  2  0  0  0  0
 15 17  2  0  0  0  0
 17 18  1  0  0  0  0
 18 19  1  0  0  0  0
 19 20  1  6  0  0  0
 19 21  1  0  0  0  0
 20 22  1  0  0  0  0
 21 23  2  0  0  0  0
 21 24  1  0  0  0  0
 22 25  2  0  0  0  0
 26 22  1  1  0  0  0
 24 27  1  0  0  0  0
 26 28  1  0  0  0  0
 26 29  1  0  0  0  0
 27 30  1  0  0  0  0
 28 31  1  0  0  0  0
 28 32  1  0  0  0  0
 29 33  1  0  0  0  0
 31 34  2  0  0  0  0
 31 35  2  0  0  0  0
 31 36  1  0  0  0  0
 33 37  1  6  0  0  0
 36 38  2  0  0  0  0
 36 39  1  0  0  0  0
 37 40  1  0  0  0  0
 38 41  1  0  0  0  0
 39 42  2  0  0  0  0
 40 43  1  0  0  0  0
 40 44  1  0  0  0  0
 41 45  1  0  0  0  0
 41 46  2  0  0  0  0
 43 47  1  0  0  0  0
 45 48  3  0  0  0  0
  7  9  1  0  0  0  0
 16 17  1  0  0  0  0
 32 33  1  0  0  0  0
 42 46  1  0  0  0  0
 44 47  1  0  0  0  0
M  END
>  <MolRegNo>
479179

>  <m>
=

>  <Value>
1700

>  <Unit>
nM

>  <Type>
IC50

>  <pValue>
5.77

>  <Ligand Efficiency>
0

>  <Binding Efficiency>
0

>  <Surface Efficiency>
0

>  <Assay Index>
371676

>  <Assay Category>


>  <Assay Organism>
Homo sapiens

>  <Target ID>
17045

>  <Target Name>
Cytochrome P450 3A4

>  <Target Organism>
Homo sapiens

>  <Target Description>
Target is a single protein chain

>  <Sequence Accession>
P08684

>  <Reference>
J Med Chem 52 (11), 3449-3452 (2009)

>  <Pubmed ID>
19441819

>  <DOI>
10.1021/jm900257b

$$$$
502028
Actelion Java MolfileCreator 1.0

 28 31  0  0  0  0  0  0  0  0999 V2000
    0.0000   -0.0000   -0.0000 O   0  0  0  0  0  0  0  0  0  0  0  0
   -1.3123   -0.7277   -0.0000 C   0  0  0  0  0  0  0  0  0  0  0  0
   -1.3362   -2.2190   -0.0000 N   0  0  0  0  0  0  0  0  0  0  0  0
   -2.6127    0.0477   -0.0000 C   0  0  0  0  0  0  0  0  0  0  0  0
   -0.0477   -2.9706   -0.0000 C   0  0  0  0  0  0  0  0  0  0  0  0
   -2.6485   -2.9587   -0.0000 C   0  0  0  0  0  0  0  0  0  0  0  0
   -3.9370   -0.6800   -0.0000 C   0  0  0  0  0  0  0  0  0  0  0  0
    1.2288   -2.2071   -0.0000 C   0  0  0  0  0  0  0  0  0  0  0  0
   -0.0597   -4.4619   -0.0000 C   0  0  0  0  0  0  0  0  0  0  0  0
   -3.9609   -2.1832   -0.0000 C   0  0  0  0  0  0  0  0  0  0  0  0
    2.5292   -2.9349   -0.0000 N   0  0  0  0  0  0  0  0  0  0  0  0
    1.2288   -5.2016   -0.0000 C   0  0  0  0  0  0  0  0  0  0  0  0
    2.5173   -4.4381   -0.0000 C   0  0  0  0  0  0  0  0  0  0  0  0
    3.9609   -2.4576   -0.0000 C   0  0  0  0  0  0  0  0  0  0  0  0
    1.2169   -6.6929   -0.0000 C   0  0  0  0  0  0  0  0  0  0  0  0
    3.9489   -4.8914   -0.0000 N   0  0  0  0  0  0  0  0  0  0  0  0
    4.8437   -3.6745   -0.0000 C   0  0  0  0  0  0  0  0  0  0  0  0
    4.4142   -1.0141   -0.0000 C   0  0  0  0  0  0  0  0  0  0  0  0
   -0.0954   -7.4326   -0.0000 C   0  0  0  0  0  0  0  0  0  0  0  0
    6.3350   -3.6626   -0.0000 C   0  0  0  0  0  0  0  0  0  0  0  0
   -0.1074   -8.9239   -0.0000 C   0  0  0  0  0  0  0  0  0  0  0  0
    1.1811   -9.6516   -0.0000 C   0  0  0  0  0  0  0  0  0  0  0  0
   -1.4197   -9.6516   -0.0000 C   0  0  0  0  0  0  0  0  0  0  0  0
    1.1692  -11.1429   -0.0000 C   0  0  0  0  0  0  0  0  0  0  0  0
    2.4696   -8.8881   -0.0000 C   0  0  0  0  0  0  0  0  0  0  0  0
   -1.4316  -11.1429   -0.0000 C   0  0  0  0  0  0  0  0  0  0  0  0
   -2.7320   -8.8881   -0.0000 C   0  0  0  0  0  0  0  0  0  0  0  0
   -0.1551  -11.8945   -0.0000 C   0  0  0  0  0  0  0  0  0  0  0  0
  1  2  2  0  0  0  0
  2  3  1  0  0  0  0
  2  4  1  0  0  0  0
  3  5  1  0  0  0  0
  3  6  1  0  0  0  0
  4  7  2  0  0  0  0
  5  8  2  0  0  0  0
  5  9  1  0  0  0  0
  6 10  2  0  0  0  0
  8 11  1  0  0  0  0
  9 12  2  0  0  0  0
 11 13  1  0  0  0  0
 11 14  1  0  0  0  0
 12 15  1  0  0  0  0
 13 16  2  0  0  0  0
 14 17  2  0  0  0  0
 14 18  1  0  0  0  0
 15 19  1  0  0  0  0
 17 20  1  0  0  0  0
 19 21  1  0  0  0  0
 21 22  2  0  0  0  0
 21 23  1  0  0  0  0
 22 24  1  0  0  0  0
 22 25  1  0  0  0  0
 23 26  2  0  0  0  0
 23 27  1  0  0  0  0
 24 28  2  0  0  0  0
  7 10  1  0  0  0  0
 12 13  1  0  0  0  0
 16 17  1  0  0  0  0
 26 28  1  0  0  0  0
M  END
>  <MolRegNo>
502028

>  <m>
=

>  <Value>
31000

>  <Unit>
nM

>  <Type>
IC50

>  <pValue>
4.51

>  <Ligand Efficiency>
0

>  <Binding Efficiency>
0

>  <Surface Efficiency>
0

>  <Assay Index>
368753

>  <Assay Category>


>  <Assay Organism>


>  <Target ID>
17045

>  <Target Name>
Cytochrome P450 3A4

>  <Target Organism>
Homo sapiens

>  <Target Description>
Target is a single protein chain

>  <Sequence Accession>
P08684

>  <Reference>
Bioorg Med Chem Lett 19 (13), 3602-3606 (2009)

>  <Pubmed ID>
19467868

>  <DOI>
10.1016/j.bmcl.2009.04.127

$$$$
501960
Actelion Java MolfileCreator 1.0

 28 31  0  0  0  0  0  0  0  0999 V2000
    0.0000   -0.0000   -0.0000 O   0  0  0  0  0  0  0  0  0  0  0  0
   -1.3128   -0.7280   -0.0000 C   0  0  0  0  0  0  0  0  0  0  0  0
   -1.3367   -2.2199   -0.0000 N   0  0  0  0  0  0  0  0  0  0  0  0
   -2.6137    0.0358   -0.0000 C   0  0  0  0  0  0  0  0  0  0  0  0
   -0.0477   -2.9718   -0.0000 C   0  0  0  0  0  0  0  0  0  0  0  0
   -2.6496   -2.9599   -0.0000 C   0  0  0  0  0  0  0  0  0  0  0  0
   -3.9385   -0.6922   -0.0000 C   0  0  0  0  0  0  0  0  0  0  0  0
    1.2293   -2.2080   -0.0000 C   0  0  0  0  0  0  0  0  0  0  0  0
   -0.0597   -4.4637   -0.0000 C   0  0  0  0  0  0  0  0  0  0  0  0
   -3.9624   -2.1841   -0.0000 C   0  0  0  0  0  0  0  0  0  0  0  0
    2.5302   -2.9360   -0.0000 N   0  0  0  0  0  0  0  0  0  0  0  0
    1.2293   -5.2036   -0.0000 C   0  0  0  0  0  0  0  0  0  0  0  0
    2.5183   -4.4398   -0.0000 C   0  0  0  0  0  0  0  0  0  0  0  0
    3.9624   -2.4586   -0.0000 C   0  0  0  0  0  0  0  0  0  0  0  0
    1.2174   -6.6955   -0.0000 O   0  0  0  0  0  0  0  0  0  0  0  0
    3.9505   -4.8933   -0.0000 N   0  0  0  0  0  0  0  0  0  0  0  0
    4.8456   -3.6760   -0.0000 C   0  0  0  0  0  0  0  0  0  0  0  0
    4.4159   -1.0145   -0.0000 C   0  0  0  0  0  0  0  0  0  0  0  0
   -0.0955   -7.4355   -0.0000 C   0  0  0  0  0  0  0  0  0  0  0  0
    6.3374   -3.6640   -0.0000 C   0  0  0  0  0  0  0  0  0  0  0  0
   -0.1074   -8.9273   -0.0000 C   0  0  0  0  0  0  0  0  0  0  0  0
    1.1816   -9.6553   -0.0000 C   0  0  0  0  0  0  0  0  0  0  0  0
   -1.4203   -9.6553   -0.0000 C   0  0  0  0  0  0  0  0  0  0  0  0
    1.1696  -11.1472   -0.0000 C   0  0  0  0  0  0  0  0  0  0  0  0
    2.4705   -8.8915   -0.0000 C   0  0  0  0  0  0  0  0  0  0  0  0
   -1.4322  -11.1472   -0.0000 C   0  0  0  0  0  0  0  0  0  0  0  0
   -2.7331   -8.8915   -0.0000 C   0  0  0  0  0  0  0  0  0  0  0  0
   -0.1552  -11.8991   -0.0000 C   0  0  0  0  0  0  0  0  0  0  0  0
  1  2  2  0  0  0  0
  2  3  1  0  0  0  0
  2  4  1  0  0  0  0
  3  5  1  0  0  0  0
  3  6  1  0  0  0  0
  4  7  2  0  0  0  0
  5  8  2  0  0  0  0
  5  9  1  0  0  0  0
  6 10  2  0  0  0  0
  8 11  1  0  0  0  0
  9 12  2  0  0  0  0
 11 13  1  0  0  0  0
 11 14  1  0  0  0  0
 12 15  1  0  0  0  0
 13 16  2  0  0  0  0
 14 17  2  0  0  0  0
 14 18  1  0  0  0  0
 15 19  1  0  0  0  0
 17 20  1  0  0  0  0
 19 21  1  0  0  0  0
 21 22  2  0  0  0  0
 21 23  1  0  0  0  0
 22 24  1  0  0  0  0
 22 25  1  0  0  0  0
 23 26  2  0  0  0  0
 23 27  1  0  0  0  0
 24 28  2  0  0  0  0
  7 10  1  0  0  0  0
 12 13  1  0  0  0  0
 16 17  1  0  0  0  0
 26 28  1  0  0  0  0
M  END
>  <MolRegNo>
501960

>  <m>
=

>  <Value>
21000

>  <Unit>
nM

>  <Type>
IC50

>  <pValue>
4.68

>  <Ligand Efficiency>
0

>  <Binding Efficiency>
0

>  <Surface Efficiency>
0

>  <Assay Index>
368753

>  <Assay Category>


>  <Assay Organism>


>  <Target ID>
17045

>  <Target Name>
Cytochrome P450 3A4

>  <Target Organism>
Homo sapiens

>  <Target Description>
Target is a single protein chain

>  <Sequence Accession>
P08684

>  <Reference>
Bioorg Med Chem Lett 19 (13), 3602-3606 (2009)

>  <Pubmed ID>
19467868

>  <DOI>
10.1016/j.bmcl.2009.04.127

$$$$
501959
Actelion Java MolfileCreator 1.0

 26 30  0  0  0  0  0  0  0  0999 V2000
    0.0000   -0.0000   -0.0000 N   0  0  0  0  0  0  0  0  0  0  0  0
   -1.4500    0.4754   -0.0000 C   0  0  0  0  0  0  0  0  0  0  0  0
    0.8795    1.2361   -0.0000 C   0  0  0  0  0  0  0  0  0  0  0  0
   -1.4619    1.9967   -0.0000 N   0  0  0  0  0  0  0  0  0  0  0  0
   -2.7574   -0.2615   -0.0000 C   0  0  0  0  0  0  0  0  0  0  0  0
   -0.0238    2.4721   -0.0000 C   0  0  0  0  0  0  0  0  0  0  0  0
    2.3651    1.2479   -0.0000 C   0  0  0  0  0  0  0  0  0  0  0  0
   -2.7811    2.7455   -0.0000 C   0  0  0  0  0  0  0  0  0  0  0  0
   -2.7692   -1.7352   -0.0000 N   0  0  0  0  0  0  0  0  0  0  0  0
   -4.0528    0.4992   -0.0000 C   0  0  0  0  0  0  0  0  0  0  0  0
    0.4279    3.9102   -0.0000 C   0  0  0  0  0  0  0  0  0  0  0  0
   -4.0766    2.0086   -0.0000 C   0  0  0  0  0  0  0  0  0  0  0  0
   -4.0766   -2.4602   -0.0000 C   0  0  0  0  0  0  0  0  0  0  0  0
   -5.3483   -0.2258   -0.0000 C   0  0  0  0  0  0  0  0  0  0  0  0
   -5.3840    2.7692   -0.0000 N   0  0  0  0  0  0  0  0  0  0  0  0
   -4.1004   -3.9340   -0.0000 C   0  0  0  0  0  0  0  0  0  0  0  0
   -5.3721   -1.6996   -0.0000 C   0  0  0  0  0  0  0  0  0  0  0  0
   -5.5504    4.2668   -0.0000 N   0  0  0  0  0  0  0  0  0  0  0  0
   -6.7626    2.1750   -0.0000 C   0  0  0  0  0  0  0  0  0  0  0  0
   -5.4196   -4.6590   -0.0000 C   0  0  0  0  0  0  0  0  0  0  0  0
   -2.8287   -4.6709   -0.0000 C   0  0  0  0  0  0  0  0  0  0  0  0
   -7.0241    4.5877   -0.0000 C   0  0  0  0  0  0  0  0  0  0  0  0
   -7.7729    3.3041   -0.0000 N   0  0  0  0  0  0  0  0  0  0  0  0
   -5.4434   -6.1446   -0.0000 C   0  0  0  0  0  0  0  0  0  0  0  0
   -2.8405   -6.1565   -0.0000 C   0  0  0  0  0  0  0  0  0  0  0  0
   -4.1598   -6.8934   -0.0000 C   0  0  0  0  0  0  0  0  0  0  0  0
  1  2  2  0  0  0  0
  1  3  1  0  0  0  0
  2  4  1  0  0  0  0
  2  5  1  0  0  0  0
  3  6  2  0  0  0  0
  3  7  1  0  0  0  0
  4  8  1  0  0  0  0
  5  9  1  0  0  0  0
  5 10  2  0  0  0  0
  6 11  1  0  0  0  0
  8 12  2  0  0  0  0
  9 13  1  0  0  0  0
 10 14  1  0  0  0  0
 12 15  1  0  0  0  0
 13 16  1  6  0  0  0
 13 17  1  0  0  0  0
 15 18  1  0  0  0  0
 15 19  1  0  0  0  0
 16 20  2  0  0  0  0
 16 21  1  0  0  0  0
 18 22  2  0  0  0  0
 19 23  2  0  0  0  0
 20 24  1  0  0  0  0
 21 25  2  0  0  0  0
 24 26  2  0  0  0  0
  4  6  1  0  0  0  0
 10 12  1  0  0  0  0
 14 17  1  0  0  0  0
 22 23  1  0  0  0  0
 25 26  1  0  0  0  0
M  END
>  <MolRegNo>
501959

>  <m>
=

>  <Value>
2600

>  <Unit>
nM

>  <Type>
IC50

>  <pValue>
5.58

>  <Ligand Efficiency>
0

>  <Binding Efficiency>
0

>  <Surface Efficiency>
0

>  <Assay Index>
368753

>  <Assay Category>


>  <Assay Organism>


>  <Target ID>
17045

>  <Target Name>
Cytochrome P450 3A4

>  <Target Organism>
Homo sapiens

>  <Target Description>
Target is a single protein chain

>  <Sequence Accession>
P08684

>  <Reference>
Bioorg Med Chem Lett 19 (13), 3602-3606 (2009)

>  <Pubmed ID>
19467868

>  <DOI>
10.1016/j.bmcl.2009.04.127

$$$$
501957
Actelion Java MolfileCreator 1.0

 27 31  0  0  0  0  0  0  0  0999 V2000
    0.0000   -0.0000   -0.0000 O   0  0  0  0  0  0  0  0  0  0  0  0
    0.2979   -1.4538   -0.0000 C   0  0  0  0  0  0  0  0  0  0  0  0
    1.6564   -2.0497   -0.0000 C   0  0  0  0  0  0  0  0  0  0  0  0
   -0.7150   -2.5621   -0.0000 C   0  0  0  0  0  0  0  0  0  0  0  0
    2.9434   -1.2870   -0.0000 N   0  0  0  0  0  0  0  0  0  0  0  0
    1.4896   -3.5392   -0.0000 C   0  0  0  0  0  0  0  0  0  0  0  0
    0.0238   -3.8491   -0.0000 C   0  0  0  0  0  0  0  0  0  0  0  0
    2.9315    0.2264   -0.0000 C   0  0  0  0  0  0  0  0  0  0  0  0
    2.4667   -4.6355   -0.0000 C   0  0  0  0  0  0  0  0  0  0  0  0
   -0.4528   -5.2552   -0.0000 C   0  0  0  0  0  0  0  0  0  0  0  0
    4.2185    0.9891   -0.0000 C   0  0  0  0  0  0  0  0  0  0  0  0
    1.6207    0.9891   -0.0000 C   0  0  0  0  0  0  0  0  0  0  0  0
    1.9901   -6.0417   -0.0000 C   0  0  0  0  0  0  0  0  0  0  0  0
    0.5362   -6.3515   -0.0000 C   0  0  0  0  0  0  0  0  0  0  0  0
    5.6485    0.5362   -0.0000 N   0  0  0  0  0  0  0  0  0  0  0  0
    4.2065    2.5144   -0.0000 N   0  0  0  0  0  0  0  0  0  0  0  0
    1.6087    2.5025   -0.0000 C   0  0  0  0  0  0  0  0  0  0  0  0
    6.5303    1.7756   -0.0000 C   0  0  0  0  0  0  0  0  0  0  0  0
    5.6365    2.9911   -0.0000 C   0  0  0  0  0  0  0  0  0  0  0  0
    2.8838    3.2651   -0.0000 C   0  0  0  0  0  0  0  0  0  0  0  0
    0.3098    3.2651   -0.0000 N   0  0  0  0  0  0  0  0  0  0  0  0
    8.0199    1.7875   -0.0000 C   0  0  0  0  0  0  0  0  0  0  0  0
    6.0894    4.4330   -0.0000 C   0  0  0  0  0  0  0  0  0  0  0  0
    0.1430    4.7666   -0.0000 N   0  0  0  0  0  0  0  0  0  0  0  0
   -1.0725    2.6693   -0.0000 C   0  0  0  0  0  0  0  0  0  0  0  0
   -1.3347    5.0884   -0.0000 C   0  0  0  0  0  0  0  0  0  0  0  0
   -2.0854    3.8014   -0.0000 N   0  0  0  0  0  0  0  0  0  0  0  0
  2  1  1  1  0  0  0
  2  3  1  0  0  0  0
  2  4  1  0  0  0  0
  3  5  1  6  0  0  0
  3  6  1  0  0  0  0
  4  7  1  0  0  0  0
  5  8  1  0  0  0  0
  6  9  1  0  0  0  0
  7 10  1  0  0  0  0
  8 11  1  0  0  0  0
  8 12  2  0  0  0  0
  9 13  2  0  0  0  0
 10 14  2  0  0  0  0
 11 15  2  0  0  0  0
 11 16  1  0  0  0  0
 12 17  1  0  0  0  0
 15 18  1  0  0  0  0
 16 19  1  0  0  0  0
 16 20  1  0  0  0  0
 17 21  1  0  0  0  0
 18 22  1  0  0  0  0
 19 23  1  0  0  0  0
 21 24  1  0  0  0  0
 21 25  1  0  0  0  0
 24 26  2  0  0  0  0
 25 27  2  0  0  0  0
  6  7  2  0  0  0  0
 13 14  1  0  0  0  0
 17 20  2  0  0  0  0
 18 19  2  0  0  0  0
 26 27  1  0  0  0  0
M  END
>  <MolRegNo>
501957

>  <m>
=

>  <Value>
15000

>  <Unit>
nM

>  <Type>
IC50

>  <pValue>
4.82

>  <Ligand Efficiency>
0

>  <Binding Efficiency>
0

>  <Surface Efficiency>
0

>  <Assay Index>
368753

>  <Assay Category>


>  <Assay Organism>


>  <Target ID>
17045

>  <Target Name>
Cytochrome P450 3A4

>  <Target Organism>
Homo sapiens

>  <Target Description>
Target is a single protein chain

>  <Sequence Accession>
P08684

>  <Reference>
Bioorg Med Chem Lett 19 (13), 3602-3606 (2009)

>  <Pubmed ID>
19467868

>  <DOI>
10.1016/j.bmcl.2009.04.127

$$$$
501891
Actelion Java MolfileCreator 1.0

 28 32  0  0  0  0  0  0  0  0999 V2000
    0.0000   -0.0000   -0.0000 O   0  0  0  0  0  0  0  0  0  0  0  0
   -1.3135   -0.7284   -0.0000 C   0  0  0  0  0  0  0  0  0  0  0  0
   -1.3374   -2.2210   -0.0000 N   0  0  0  0  0  0  0  0  0  0  0  0
   -2.6150    0.0358   -0.0000 C   0  0  0  0  0  0  0  0  0  0  0  0
   -0.0478   -2.9733   -0.0000 C   0  0  0  0  0  0  0  0  0  0  0  0
   -2.6509   -2.9613   -0.0000 C   0  0  0  0  0  0  0  0  0  0  0  0
   -3.9405   -0.6926   -0.0000 C   0  0  0  0  0  0  0  0  0  0  0  0
    1.2299   -2.2090   -0.0000 C   0  0  0  0  0  0  0  0  0  0  0  0
   -0.0597   -4.4659   -0.0000 C   0  0  0  0  0  0  0  0  0  0  0  0
   -3.9643   -2.1852   -0.0000 C   0  0  0  0  0  0  0  0  0  0  0  0
    2.5314   -2.9374   -0.0000 N   0  0  0  0  0  0  0  0  0  0  0  0
    1.2299   -5.2062   -0.0000 C   0  0  0  0  0  0  0  0  0  0  0  0
    2.5195   -4.4420   -0.0000 C   0  0  0  0  0  0  0  0  0  0  0  0
    3.9643   -2.4598   -0.0000 C   0  0  0  0  0  0  0  0  0  0  0  0
    1.2180   -6.6988   -0.0000 N   0  0  0  0  0  0  0  0  0  0  0  0
    3.9524   -4.8957   -0.0000 N   0  0  0  0  0  0  0  0  0  0  0  0
    4.8480   -3.6778   -0.0000 C   0  0  0  0  0  0  0  0  0  0  0  0
    4.4181   -1.0150   -0.0000 C   0  0  0  0  0  0  0  0  0  0  0  0
   -0.0955   -7.4391   -0.0000 C   0  0  0  0  0  0  0  0  0  0  0  0
    6.3406   -3.6658   -0.0000 C   0  0  0  0  0  0  0  0  0  0  0  0
   -0.2627   -8.9317   -0.0000 C   0  0  0  0  0  0  0  0  0  0  0  0
   -1.4807   -6.8182   -0.0000 C   0  0  0  0  0  0  0  0  0  0  0  0
   -1.7434   -9.2302   -0.0000 C   0  0  0  0  0  0  0  0  0  0  0  0
    0.7164  -10.0303   -0.0000 C   0  0  0  0  0  0  0  0  0  0  0  0
   -2.4956   -7.9287   -0.0000 C   0  0  0  0  0  0  0  0  0  0  0  0
   -2.2210  -10.6392   -0.0000 C   0  0  0  0  0  0  0  0  0  0  0  0
    0.2388  -11.4393   -0.0000 C   0  0  0  0  0  0  0  0  0  0  0  0
   -1.2299  -11.7378   -0.0000 C   0  0  0  0  0  0  0  0  0  0  0  0
  1  2  2  0  0  0  0
  2  3  1  0  0  0  0
  2  4  1  0  0  0  0
  3  5  1  0  0  0  0
  3  6  1  0  0  0  0
  4  7  2  0  0  0  0
  5  8  2  0  0  0  0
  5  9  1  0  0  0  0
  6 10  2  0  0  0  0
  8 11  1  0  0  0  0
  9 12  2  0  0  0  0
 11 13  1  0  0  0  0
 11 14  1  0  0  0  0
 12 15  1  0  0  0  0
 13 16  2  0  0  0  0
 14 17  2  0  0  0  0
 14 18  1  0  0  0  0
 19 15  1  6  0  0  0
 17 20  1  0  0  0  0
 19 21  1  0  0  0  0
 19 22  1  0  0  0  0
 21 23  2  0  0  0  0
 21 24  1  0  0  0  0
 22 25  1  0  0  0  0
 23 26  1  0  0  0  0
 24 27  2  0  0  0  0
 26 28  2  0  0  0  0
  7 10  1  0  0  0  0
 12 13  1  0  0  0  0
 16 17  1  0  0  0  0
 23 25  1  0  0  0  0
 27 28  1  0  0  0  0
M  END
>  <MolRegNo>
501891

>  <m>
=

>  <Value>
86000

>  <Unit>
nM

>  <Type>
IC50

>  <pValue>
4.07

>  <Ligand Efficiency>
0

>  <Binding Efficiency>
0

>  <Surface Efficiency>
0

>  <Assay Index>
368753

>  <Assay Category>


>  <Assay Organism>


>  <Target ID>
17045

>  <Target Name>
Cytochrome P450 3A4

>  <Target Organism>
Homo sapiens

>  <Target Description>
Target is a single protein chain

>  <Sequence Accession>
P08684

>  <Reference>
Bioorg Med Chem Lett 19 (13), 3602-3606 (2009)

>  <Pubmed ID>
19467868

>  <DOI>
10.1016/j.bmcl.2009.04.127

$$$$
501890
Actelion Java MolfileCreator 1.0

 26 30  0  0  0  0  0  0  0  0999 V2000
    0.0000   -0.0000   -0.0000 N   0  0  0  0  0  0  0  0  0  0  0  0
   -1.4486    0.4750   -0.0000 C   0  0  0  0  0  0  0  0  0  0  0  0
    0.8787    1.2349   -0.0000 C   0  0  0  0  0  0  0  0  0  0  0  0
   -1.4605    1.9948   -0.0000 N   0  0  0  0  0  0  0  0  0  0  0  0
   -2.7547   -0.2612   -0.0000 C   0  0  0  0  0  0  0  0  0  0  0  0
   -0.0237    2.4697   -0.0000 C   0  0  0  0  0  0  0  0  0  0  0  0
    2.3629    1.2467   -0.0000 C   0  0  0  0  0  0  0  0  0  0  0  0
   -2.7785    2.7428   -0.0000 C   0  0  0  0  0  0  0  0  0  0  0  0
   -2.7666   -1.7454   -0.0000 N   0  0  0  0  0  0  0  0  0  0  0  0
   -4.0608    0.4987   -0.0000 C   0  0  0  0  0  0  0  0  0  0  0  0
    0.4275    3.9065   -0.0000 C   0  0  0  0  0  0  0  0  0  0  0  0
   -4.0727    2.0067   -0.0000 C   0  0  0  0  0  0  0  0  0  0  0  0
   -4.0727   -2.4816   -0.0000 C   0  0  0  0  0  0  0  0  0  0  0  0
   -5.3788    2.7666   -0.0000 N   0  0  0  0  0  0  0  0  0  0  0  0
   -4.2389   -3.9658   -0.0000 C   0  0  0  0  0  0  0  0  0  0  0  0
   -5.4501   -1.8642   -0.0000 C   0  0  0  0  0  0  0  0  0  0  0  0
   -5.5451    4.2627   -0.0000 N   0  0  0  0  0  0  0  0  0  0  0  0
   -6.7562    2.1729   -0.0000 C   0  0  0  0  0  0  0  0  0  0  0  0
   -5.7113   -4.2627   -0.0000 C   0  0  0  0  0  0  0  0  0  0  0  0
   -3.2653   -5.0582   -0.0000 C   0  0  0  0  0  0  0  0  0  0  0  0
   -6.4593   -2.9684   -0.0000 C   0  0  0  0  0  0  0  0  0  0  0  0
   -7.0174    4.5833   -0.0000 C   0  0  0  0  0  0  0  0  0  0  0  0
   -7.7654    3.3009   -0.0000 N   0  0  0  0  0  0  0  0  0  0  0  0
   -6.1862   -5.6638   -0.0000 C   0  0  0  0  0  0  0  0  0  0  0  0
   -3.7402   -6.4593   -0.0000 C   0  0  0  0  0  0  0  0  0  0  0  0
   -5.2007   -6.7562   -0.0000 C   0  0  0  0  0  0  0  0  0  0  0  0
  1  2  2  0  0  0  0
  1  3  1  0  0  0  0
  2  4  1  0  0  0  0
  2  5  1  0  0  0  0
  3  6  2  0  0  0  0
  3  7  1  0  0  0  0
  4  8  1  0  0  0  0
  5  9  1  0  0  0  0
  5 10  2  0  0  0  0
  6 11  1  0  0  0  0
  8 12  2  0  0  0  0
 13  9  1  6  0  0  0
 12 14  1  0  0  0  0
 13 15  1  0  0  0  0
 13 16  1  0  0  0  0
 14 17  1  0  0  0  0
 14 18  1  0  0  0  0
 15 19  2  0  0  0  0
 15 20  1  0  0  0  0
 16 21  1  0  0  0  0
 17 22  2  0  0  0  0
 18 23  2  0  0  0  0
 19 24  1  0  0  0  0
 20 25  2  0  0  0  0
 24 26  2  0  0  0  0
  4  6  1  0  0  0  0
 10 12  1  0  0  0  0
 19 21  1  0  0  0  0
 22 23  1  0  0  0  0
 25 26  1  0  0  0  0
M  END
>  <MolRegNo>
501890

>  <m>
=

>  <Value>
5500

>  <Unit>
nM

>  <Type>
IC50

>  <pValue>
5.26

>  <Ligand Efficiency>
0

>  <Binding Efficiency>
0

>  <Surface Efficiency>
0

>  <Assay Index>
368753

>  <Assay Category>


>  <Assay Organism>


>  <Target ID>
17045

>  <Target Name>
Cytochrome P450 3A4

>  <Target Organism>
Homo sapiens

>  <Target Description>
Target is a single protein chain

>  <Sequence Accession>
P08684

>  <Reference>
Bioorg Med Chem Lett 19 (13), 3602-3606 (2009)

>  <Pubmed ID>
19467868

>  <DOI>
10.1016/j.bmcl.2009.04.127

$$$$
501815
Actelion Java MolfileCreator 1.0

 28 31  0  0  0  0  0  0  0  0999 V2000
    0.0000   -0.0000   -0.0000 O   0  0  0  0  0  0  0  0  0  0  0  0
   -1.3138   -0.7285   -0.0000 C   0  0  0  0  0  0  0  0  0  0  0  0
   -1.3376   -2.2215   -0.0000 N   0  0  0  0  0  0  0  0  0  0  0  0
   -2.6156    0.0358   -0.0000 C   0  0  0  0  0  0  0  0  0  0  0  0
   -0.0478   -2.9739   -0.0000 C   0  0  0  0  0  0  0  0  0  0  0  0
   -2.6514   -2.9619   -0.0000 C   0  0  0  0  0  0  0  0  0  0  0  0
   -3.9413   -0.6927   -0.0000 C   0  0  0  0  0  0  0  0  0  0  0  0
    1.2302   -2.2095   -0.0000 C   0  0  0  0  0  0  0  0  0  0  0  0
   -0.0597   -4.4668   -0.0000 C   0  0  0  0  0  0  0  0  0  0  0  0
   -3.9652   -2.1856   -0.0000 C   0  0  0  0  0  0  0  0  0  0  0  0
    2.5320   -2.9381   -0.0000 N   0  0  0  0  0  0  0  0  0  0  0  0
    1.2302   -5.2073   -0.0000 C   0  0  0  0  0  0  0  0  0  0  0  0
    2.5200   -4.4429   -0.0000 C   0  0  0  0  0  0  0  0  0  0  0  0
    3.9652   -2.4603   -0.0000 C   0  0  0  0  0  0  0  0  0  0  0  0
    1.2182   -6.7002   -0.0000 N   0  0  0  0  0  0  0  0  0  0  0  0
    3.9532   -4.8968   -0.0000 N   0  0  0  0  0  0  0  0  0  0  0  0
    4.8490   -3.6785   -0.0000 C   0  0  0  0  0  0  0  0  0  0  0  0
    4.4190   -1.0152   -0.0000 C   0  0  0  0  0  0  0  0  0  0  0  0
   -0.0955   -7.4407   -0.0000 C   0  0  0  0  0  0  0  0  0  0  0  0
    6.3419   -3.6666   -0.0000 C   0  0  0  0  0  0  0  0  0  0  0  0
   -0.1075   -8.9336   -0.0000 C   0  0  0  0  0  0  0  0  0  0  0  0
    1.1824   -9.6621   -0.0000 C   0  0  0  0  0  0  0  0  0  0  0  0
   -1.4213   -9.6621   -0.0000 C   0  0  0  0  0  0  0  0  0  0  0  0
    2.4723   -8.8978   -0.0000 O   0  0  0  0  0  0  0  0  0  0  0  0
    1.1704  -11.1550   -0.0000 C   0  0  0  0  0  0  0  0  0  0  0  0
   -1.4332  -11.1550   -0.0000 C   0  0  0  0  0  0  0  0  0  0  0  0
    3.7621   -9.6382   -0.0000 C   0  0  0  0  0  0  0  0  0  0  0  0
   -0.1553  -11.9075   -0.0000 C   0  0  0  0  0  0  0  0  0  0  0  0
  1  2  2  0  0  0  0
  2  3  1  0  0  0  0
  2  4  1  0  0  0  0
  3  5  1  0  0  0  0
  3  6  1  0  0  0  0
  4  7  2  0  0  0  0
  5  8  2  0  0  0  0
  5  9  1  0  0  0  0
  6 10  2  0  0  0  0
  8 11  1  0  0  0  0
  9 12  2  0  0  0  0
 11 13  1  0  0  0  0
 11 14  1  0  0  0  0
 12 15  1  0  0  0  0
 13 16  2  0  0  0  0
 14 17  2  0  0  0  0
 14 18  1  0  0  0  0
 15 19  1  0  0  0  0
 17 20  1  0  0  0  0
 19 21  1  0  0  0  0
 21 22  2  0  0  0  0
 21 23  1  0  0  0  0
 22 24  1  0  0  0  0
 22 25  1  0  0  0  0
 23 26  2  0  0  0  0
 24 27  1  0  0  0  0
 25 28  2  0  0  0  0
  7 10  1  0  0  0  0
 12 13  1  0  0  0  0
 16 17  1  0  0  0  0
 26 28  1  0  0  0  0
M  END
>  <MolRegNo>
501815

>  <m>
=

>  <Value>
4200

>  <Unit>
nM

>  <Type>
IC50

>  <pValue>
5.38

>  <Ligand Efficiency>
0

>  <Binding Efficiency>
0

>  <Surface Efficiency>
0

>  <Assay Index>
368753

>  <Assay Category>


>  <Assay Organism>


>  <Target ID>
17045

>  <Target Name>
Cytochrome P450 3A4

>  <Target Organism>
Homo sapiens

>  <Target Description>
Target is a single protein chain

>  <Sequence Accession>
P08684

>  <Reference>
Bioorg Med Chem Lett 19 (13), 3602-3606 (2009)

>  <Pubmed ID>
19467868

>  <DOI>
10.1016/j.bmcl.2009.04.127

$$$$
501814
Actelion Java MolfileCreator 1.0

 26 29  0  0  0  0  0  0  0  0999 V2000
    0.0000   -0.0000   -0.0000 O   0  0  0  0  0  0  0  0  0  0  0  0
   -1.3137   -0.7285   -0.0000 C   0  0  0  0  0  0  0  0  0  0  0  0
   -1.3376   -2.2214   -0.0000 N   0  0  0  0  0  0  0  0  0  0  0  0
   -2.6155    0.0358   -0.0000 C   0  0  0  0  0  0  0  0  0  0  0  0
   -0.0478   -2.9738   -0.0000 C   0  0  0  0  0  0  0  0  0  0  0  0
   -2.6513   -2.9618   -0.0000 C   0  0  0  0  0  0  0  0  0  0  0  0
   -3.9412   -0.6927   -0.0000 C   0  0  0  0  0  0  0  0  0  0  0  0
    1.2301   -2.2094   -0.0000 C   0  0  0  0  0  0  0  0  0  0  0  0
   -0.0597   -4.4666   -0.0000 C   0  0  0  0  0  0  0  0  0  0  0  0
   -3.9650   -2.1856   -0.0000 C   0  0  0  0  0  0  0  0  0  0  0  0
    2.5319   -2.9380   -0.0000 N   0  0  0  0  0  0  0  0  0  0  0  0
    1.2301   -5.2071   -0.0000 C   0  0  0  0  0  0  0  0  0  0  0  0
    2.5200   -4.4428   -0.0000 C   0  0  0  0  0  0  0  0  0  0  0  0
    3.9650   -2.4602   -0.0000 C   0  0  0  0  0  0  0  0  0  0  0  0
    1.2182   -6.7000   -0.0000 N   0  0  0  0  0  0  0  0  0  0  0  0
    3.9531   -4.8966   -0.0000 N   0  0  0  0  0  0  0  0  0  0  0  0
    4.8488   -3.6784   -0.0000 C   0  0  0  0  0  0  0  0  0  0  0  0
    4.4189   -1.0151   -0.0000 C   0  0  0  0  0  0  0  0  0  0  0  0
   -0.0955   -7.4404   -0.0000 C   0  0  0  0  0  0  0  0  0  0  0  0
    6.3417   -3.6665   -0.0000 C   0  0  0  0  0  0  0  0  0  0  0  0
   -0.1075   -8.9333   -0.0000 C   0  0  0  0  0  0  0  0  0  0  0  0
   -1.4212   -9.6618   -0.0000 C   0  0  0  0  0  0  0  0  0  0  0  0
    1.1823   -9.6618   -0.0000 C   0  0  0  0  0  0  0  0  0  0  0  0
   -1.4331  -11.1547   -0.0000 C   0  0  0  0  0  0  0  0  0  0  0  0
    1.1704  -11.1547   -0.0000 C   0  0  0  0  0  0  0  0  0  0  0  0
   -0.1433  -11.8951   -0.0000 C   0  0  0  0  0  0  0  0  0  0  0  0
  1  2  2  0  0  0  0
  2  3  1  0  0  0  0
  2  4  1  0  0  0  0
  3  5  1  0  0  0  0
  3  6  1  0  0  0  0
  4  7  2  0  0  0  0
  5  8  2  0  0  0  0
  5  9  1  0  0  0  0
  6 10  2  0  0  0  0
  8 11  1  0  0  0  0
  9 12  2  0  0  0  0
 11 13  1  0  0  0  0
 11 14  1  0  0  0  0
 12 15  1  0  0  0  0
 13 16  2  0  0  0  0
 14 17  2  0  0  0  0
 14 18  1  0  0  0  0
 15 19  1  0  0  0  0
 17 20  1  0  0  0  0
 19 21  1  0  0  0  0
 21 22  2  0  0  0  0
 21 23  1  0  0  0  0
 22 24  1  0  0  0  0
 23 25  2  0  0  0  0
 24 26  2  0  0  0  0
  7 10  1  0  0  0  0
 12 13  1  0  0  0  0
 16 17  1  0  0  0  0
 25 26  1  0  0  0  0
M  END
>  <MolRegNo>
501814

>  <m>
=

>  <Value>
24000

>  <Unit>
nM

>  <Type>
IC50

>  <pValue>
4.62

>  <Ligand Efficiency>
0

>  <Binding Efficiency>
0

>  <Surface Efficiency>
0

>  <Assay Index>
368753

>  <Assay Category>


>  <Assay Organism>


>  <Target ID>
17045

>  <Target Name>
Cytochrome P450 3A4

>  <Target Organism>
Homo sapiens

>  <Target Description>
Target is a single protein chain

>  <Sequence Accession>
P08684

>  <Reference>
Bioorg Med Chem Lett 19 (13), 3602-3606 (2009)

>  <Pubmed ID>
19467868

>  <DOI>
10.1016/j.bmcl.2009.04.127

$$$$
501813
Actelion Java MolfileCreator 1.0

 26 29  0  0  0  0  0  0  0  0999 V2000
    0.0000   -0.0000   -0.0000 Cl  0  0  0  0  0  0  0  0  0  0  0  0
   -1.3053   -0.7357   -0.0000 C   0  0  0  0  0  0  0  0  0  0  0  0
   -2.6107    0.0119   -0.0000 C   0  0  0  0  0  0  0  0  0  0  0  0
   -1.3172   -2.2191   -0.0000 C   0  0  0  0  0  0  0  0  0  0  0  0
   -3.9160   -0.7120   -0.0000 C   0  0  0  0  0  0  0  0  0  0  0  0
   -2.6225    1.5189   -0.0000 C   0  0  0  0  0  0  0  0  0  0  0  0
   -2.6344   -2.9667   -0.0000 C   0  0  0  0  0  0  0  0  0  0  0  0
   -3.9278   -2.1953   -0.0000 C   0  0  0  0  0  0  0  0  0  0  0  0
   -1.3409    2.2784   -0.0000 N   0  0  0  0  0  0  0  0  0  0  0  0
   -2.6463   -4.4500   -0.0000 F   0  0  0  0  0  0  0  0  0  0  0  0
   -1.3528    3.7854   -0.0000 C   0  0  0  0  0  0  0  0  0  0  0  0
   -0.0712    4.5449   -0.0000 C   0  0  0  0  0  0  0  0  0  0  0  0
   -2.6581    4.5449   -0.0000 C   0  0  0  0  0  0  0  0  0  0  0  0
    1.3528    4.0940   -0.0000 N   0  0  0  0  0  0  0  0  0  0  0  0
   -0.0831    6.0638   -0.0000 N   0  0  0  0  0  0  0  0  0  0  0  0
   -2.6700    6.0520   -0.0000 C   0  0  0  0  0  0  0  0  0  0  0  0
    2.2309    5.3281   -0.0000 C   0  0  0  0  0  0  0  0  0  0  0  0
    1.3409    6.5385   -0.0000 C   0  0  0  0  0  0  0  0  0  0  0  0
   -1.4003    6.8114   -0.0000 C   0  0  0  0  0  0  0  0  0  0  0  0
   -3.9753    6.7996   -0.0000 N   0  0  0  0  0  0  0  0  0  0  0  0
    3.7143    5.3400   -0.0000 C   0  0  0  0  0  0  0  0  0  0  0  0
    1.7919    7.9744   -0.0000 C   0  0  0  0  0  0  0  0  0  0  0  0
   -4.1414    8.2948   -0.0000 N   0  0  0  0  0  0  0  0  0  0  0  0
   -5.3518    6.2062   -0.0000 C   0  0  0  0  0  0  0  0  0  0  0  0
   -5.6129    8.6152   -0.0000 C   0  0  0  0  0  0  0  0  0  0  0  0
   -6.3605    7.3336   -0.0000 N   0  0  0  0  0  0  0  0  0  0  0  0
  1  2  1  0  0  0  0
  2  3  2  0  0  0  0
  2  4  1  0  0  0  0
  3  5  1  0  0  0  0
  3  6  1  0  0  0  0
  4  7  2  0  0  0  0
  5  8  2  0  0  0  0
  6  9  1  0  0  0  0
  7 10  1  0  0  0  0
  9 11  1  0  0  0  0
 11 12  1  0  0  0  0
 11 13  2  0  0  0  0
 12 14  2  0  0  0  0
 12 15  1  0  0  0  0
 13 16  1  0  0  0  0
 14 17  1  0  0  0  0
 15 18  1  0  0  0  0
 15 19  1  0  0  0  0
 16 20  1  0  0  0  0
 17 21  1  0  0  0  0
 18 22  1  0  0  0  0
 20 23  1  0  0  0  0
 20 24  1  0  0  0  0
 23 25  2  0  0  0  0
 24 26  2  0  0  0  0
  7  8  1  0  0  0  0
 16 19  2  0  0  0  0
 17 18  2  0  0  0  0
 25 26  1  0  0  0  0
M  END
>  <MolRegNo>
501813

>  <m>
=

>  <Value>
2900

>  <Unit>
nM

>  <Type>
IC50

>  <pValue>
5.54

>  <Ligand Efficiency>
0

>  <Binding Efficiency>
0

>  <Surface Efficiency>
0

>  <Assay Index>
368753

>  <Assay Category>


>  <Assay Organism>


>  <Target ID>
17045

>  <Target Name>
Cytochrome P450 3A4

>  <Target Organism>
Homo sapiens

>  <Target Description>
Target is a single protein chain

>  <Sequence Accession>
P08684

>  <Reference>
Bioorg Med Chem Lett 19 (13), 3602-3606 (2009)

>  <Pubmed ID>
19467868

>  <DOI>
10.1016/j.bmcl.2009.04.127

$$$$
501812
Actelion Java MolfileCreator 1.0

 28 31  0  0  0  0  0  0  0  0999 V2000
    0.0000   -0.0000   -0.0000 Cl  0  0  0  0  0  0  0  0  0  0  0  0
   -1.3047   -0.7354   -0.0000 C   0  0  0  0  0  0  0  0  0  0  0  0
   -2.6094    0.0119   -0.0000 C   0  0  0  0  0  0  0  0  0  0  0  0
   -1.3166   -2.2180   -0.0000 C   0  0  0  0  0  0  0  0  0  0  0  0
   -3.9142   -0.7117   -0.0000 C   0  0  0  0  0  0  0  0  0  0  0  0
   -2.6213    1.5182   -0.0000 C   0  0  0  0  0  0  0  0  0  0  0  0
   -2.6332   -2.9653   -0.0000 C   0  0  0  0  0  0  0  0  0  0  0  0
   -3.9260   -2.1943   -0.0000 C   0  0  0  0  0  0  0  0  0  0  0  0
   -1.3403    2.2773   -0.0000 N   0  0  0  0  0  0  0  0  0  0  0  0
   -2.6450   -4.4479   -0.0000 F   0  0  0  0  0  0  0  0  0  0  0  0
   -1.3522    3.7837   -0.0000 C   0  0  0  0  0  0  0  0  0  0  0  0
   -0.0712    4.5428   -0.0000 C   0  0  0  0  0  0  0  0  0  0  0  0
   -2.6569    4.5428   -0.0000 C   0  0  0  0  0  0  0  0  0  0  0  0
    1.3522    4.0921   -0.0000 N   0  0  0  0  0  0  0  0  0  0  0  0
   -0.0830    6.0610   -0.0000 N   0  0  0  0  0  0  0  0  0  0  0  0
   -2.6687    6.0492   -0.0000 C   0  0  0  0  0  0  0  0  0  0  0  0
    2.2299    5.3256   -0.0000 C   0  0  0  0  0  0  0  0  0  0  0  0
    1.3403    6.5355   -0.0000 C   0  0  0  0  0  0  0  0  0  0  0  0
   -1.3996    6.8083   -0.0000 C   0  0  0  0  0  0  0  0  0  0  0  0
   -3.9735    6.8201   -0.0000 N   0  0  0  0  0  0  0  0  0  0  0  0
    3.7125    5.3375   -0.0000 C   0  0  0  0  0  0  0  0  0  0  0  0
    1.7910    7.9707   -0.0000 C   0  0  0  0  0  0  0  0  0  0  0  0
   -3.9735    8.3265   -0.0000 C   0  0  0  0  0  0  0  0  0  0  0  0
   -5.2782    6.0847   -0.0000 C   0  0  0  0  0  0  0  0  0  0  0  0
   -2.6925    9.0737   -0.0000 O   0  0  0  0  0  0  0  0  0  0  0  0
   -5.2663    9.0856   -0.0000 C   0  0  0  0  0  0  0  0  0  0  0  0
   -6.5829    6.8557   -0.0000 C   0  0  0  0  0  0  0  0  0  0  0  0
   -6.5829    8.3621   -0.0000 C   0  0  0  0  0  0  0  0  0  0  0  0
  1  2  1  0  0  0  0
  2  3  2  0  0  0  0
  2  4  1  0  0  0  0
  3  5  1  0  0  0  0
  3  6  1  0  0  0  0
  4  7  2  0  0  0  0
  5  8  2  0  0  0  0
  6  9  1  0  0  0  0
  7 10  1  0  0  0  0
  9 11  1  0  0  0  0
 11 12  1  0  0  0  0
 11 13  2  0  0  0  0
 12 14  2  0  0  0  0
 12 15  1  0  0  0  0
 13 16  1  0  0  0  0
 14 17  1  0  0  0  0
 15 18  1  0  0  0  0
 15 19  1  0  0  0  0
 16 20  1  0  0  0  0
 17 21  1  0  0  0  0
 18 22  1  0  0  0  0
 20 23  1  0  0  0  0
 20 24  1  0  0  0  0
 23 25  2  0  0  0  0
 23 26  1  0  0  0  0
 24 27  2  0  0  0  0
 26 28  2  0  0  0  0
  7  8  1  0  0  0  0
 16 19  2  0  0  0  0
 17 18  2  0  0  0  0
 27 28  1  0  0  0  0
M  END
>  <MolRegNo>
501812

>  <m>
=

>  <Value>
13000

>  <Unit>
nM

>  <Type>
IC50

>  <pValue>
4.89

>  <Ligand Efficiency>
0

>  <Binding Efficiency>
0

>  <Surface Efficiency>
0

>  <Assay Index>
368753

>  <Assay Category>


>  <Assay Organism>


>  <Target ID>
17045

>  <Target Name>
Cytochrome P450 3A4

>  <Target Organism>
Homo sapiens

>  <Target Description>
Target is a single protein chain

>  <Sequence Accession>
P08684

>  <Reference>
Bioorg Med Chem Lett 19 (13), 3602-3606 (2009)

>  <Pubmed ID>
19467868

>  <DOI>
10.1016/j.bmcl.2009.04.127

$$$$
501811
Actelion Java MolfileCreator 1.0

 25 28  0  0  0  0  0  0  0  0999 V2000
    0.0000   -0.0000   -0.0000 N   0  0  0  0  0  0  0  0  0  0  0  0
   -1.4478    0.4747   -0.0000 C   0  0  0  0  0  0  0  0  0  0  0  0
    0.8782    1.2342   -0.0000 C   0  0  0  0  0  0  0  0  0  0  0  0
   -1.4597    1.9937   -0.0000 N   0  0  0  0  0  0  0  0  0  0  0  0
   -2.7532   -0.2611   -0.0000 C   0  0  0  0  0  0  0  0  0  0  0  0
   -0.0237    2.4684   -0.0000 C   0  0  0  0  0  0  0  0  0  0  0  0
    2.3616    1.2461   -0.0000 C   0  0  0  0  0  0  0  0  0  0  0  0
   -2.7770    2.7414   -0.0000 C   0  0  0  0  0  0  0  0  0  0  0  0
   -2.7651   -1.7445   -0.0000 N   0  0  0  0  0  0  0  0  0  0  0  0
   -4.0586    0.4984   -0.0000 C   0  0  0  0  0  0  0  0  0  0  0  0
    0.4272    3.9044   -0.0000 C   0  0  0  0  0  0  0  0  0  0  0  0
   -4.0705    2.0056   -0.0000 C   0  0  0  0  0  0  0  0  0  0  0  0
   -4.0705   -2.4803   -0.0000 C   0  0  0  0  0  0  0  0  0  0  0  0
   -5.3759    2.7532   -0.0000 N   0  0  0  0  0  0  0  0  0  0  0  0
   -4.0824   -3.9637   -0.0000 C   0  0  0  0  0  0  0  0  0  0  0  0
   -5.5421    4.2485   -0.0000 N   0  0  0  0  0  0  0  0  0  0  0  0
   -6.7525    2.1599   -0.0000 C   0  0  0  0  0  0  0  0  0  0  0  0
   -5.3878   -4.6876   -0.0000 C   0  0  0  0  0  0  0  0  0  0  0  0
   -2.8007   -4.6876   -0.0000 C   0  0  0  0  0  0  0  0  0  0  0  0
   -7.0136    4.5689   -0.0000 C   0  0  0  0  0  0  0  0  0  0  0  0
   -7.7613    3.2873   -0.0000 N   0  0  0  0  0  0  0  0  0  0  0  0
   -5.3996   -6.1710   -0.0000 C   0  0  0  0  0  0  0  0  0  0  0  0
   -6.6932   -3.9281   -0.0000 C   0  0  0  0  0  0  0  0  0  0  0  0
   -2.8126   -6.1710   -0.0000 C   0  0  0  0  0  0  0  0  0  0  0  0
   -4.1180   -6.9068   -0.0000 C   0  0  0  0  0  0  0  0  0  0  0  0
  1  2  2  0  0  0  0
  1  3  1  0  0  0  0
  2  4  1  0  0  0  0
  2  5  1  0  0  0  0
  3  6  2  0  0  0  0
  3  7  1  0  0  0  0
  4  8  1  0  0  0  0
  5  9  1  0  0  0  0
  5 10  2  0  0  0  0
  6 11  1  0  0  0  0
  8 12  2  0  0  0  0
  9 13  1  0  0  0  0
 12 14  1  0  0  0  0
 13 15  1  0  0  0  0
 14 16  1  0  0  0  0
 14 17  1  0  0  0  0
 15 18  2  0  0  0  0
 15 19  1  0  0  0  0
 16 20  2  0  0  0  0
 17 21  2  0  0  0  0
 18 22  1  0  0  0  0
 18 23  1  0  0  0  0
 19 24  2  0  0  0  0
 22 25  2  0  0  0  0
  4  6  1  0  0  0  0
 10 12  1  0  0  0  0
 20 21  1  0  0  0  0
 24 25  1  0  0  0  0
M  END
>  <MolRegNo>
501811

>  <m>
=

>  <Value>
3800

>  <Unit>
nM

>  <Type>
IC50

>  <pValue>
5.42

>  <Ligand Efficiency>
0

>  <Binding Efficiency>
0

>  <Surface Efficiency>
0

>  <Assay Index>
368753

>  <Assay Category>


>  <Assay Organism>


>  <Target ID>
17045

>  <Target Name>
Cytochrome P450 3A4

>  <Target Organism>
Homo sapiens

>  <Target Description>
Target is a single protein chain

>  <Sequence Accession>
P08684

>  <Reference>
Bioorg Med Chem Lett 19 (13), 3602-3606 (2009)

>  <Pubmed ID>
19467868

>  <DOI>
10.1016/j.bmcl.2009.04.127

$$$$
501745
Actelion Java MolfileCreator 1.0

 27 30  0  0  0  0  0  0  0  0999 V2000
    0.0000   -0.0000   -0.0000 O   0  0  0  0  0  0  0  0  0  0  0  0
   -1.3126   -0.7279   -0.0000 C   0  0  0  0  0  0  0  0  0  0  0  0
   -1.3365   -2.2195   -0.0000 N   0  0  0  0  0  0  0  0  0  0  0  0
   -2.6133    0.0477   -0.0000 C   0  0  0  0  0  0  0  0  0  0  0  0
   -0.0477   -2.9713   -0.0000 C   0  0  0  0  0  0  0  0  0  0  0  0
   -2.6491   -2.9593   -0.0000 C   0  0  0  0  0  0  0  0  0  0  0  0
   -3.9378   -0.6802   -0.0000 C   0  0  0  0  0  0  0  0  0  0  0  0
    1.2291   -2.2076   -0.0000 C   0  0  0  0  0  0  0  0  0  0  0  0
   -0.0597   -4.4629   -0.0000 C   0  0  0  0  0  0  0  0  0  0  0  0
   -3.9617   -2.1837   -0.0000 C   0  0  0  0  0  0  0  0  0  0  0  0
    2.5298   -2.9355   -0.0000 N   0  0  0  0  0  0  0  0  0  0  0  0
    1.2291   -5.2027   -0.0000 C   0  0  0  0  0  0  0  0  0  0  0  0
    2.5178   -4.4390   -0.0000 C   0  0  0  0  0  0  0  0  0  0  0  0
    3.9617   -2.4582   -0.0000 C   0  0  0  0  0  0  0  0  0  0  0  0
    1.2172   -6.6943   -0.0000 N   0  0  0  0  0  0  0  0  0  0  0  0
    3.9498   -4.8925   -0.0000 N   0  0  0  0  0  0  0  0  0  0  0  0
    4.8447   -3.6753   -0.0000 C   0  0  0  0  0  0  0  0  0  0  0  0
    4.4152   -1.0143   -0.0000 C   0  0  0  0  0  0  0  0  0  0  0  0
   -0.0955   -7.4342   -0.0000 C   0  0  0  0  0  0  0  0  0  0  0  0
    6.3363   -3.6634   -0.0000 C   0  0  0  0  0  0  0  0  0  0  0  0
   -0.1074   -8.9258   -0.0000 C   0  0  0  0  0  0  0  0  0  0  0  0
   -1.4200   -9.6537   -0.0000 C   0  0  0  0  0  0  0  0  0  0  0  0
    1.1814   -9.6537   -0.0000 C   0  0  0  0  0  0  0  0  0  0  0  0
   -1.4319  -11.1453   -0.0000 C   0  0  0  0  0  0  0  0  0  0  0  0
   -2.7326   -8.8900   -0.0000 C   0  0  0  0  0  0  0  0  0  0  0  0
    1.1694  -11.1453   -0.0000 C   0  0  0  0  0  0  0  0  0  0  0  0
   -0.1432  -11.8851   -0.0000 C   0  0  0  0  0  0  0  0  0  0  0  0
  1  2  2  0  0  0  0
  2  3  1  0  0  0  0
  2  4  1  0  0  0  0
  3  5  1  0  0  0  0
  3  6  1  0  0  0  0
  4  7  2  0  0  0  0
  5  8  2  0  0  0  0
  5  9  1  0  0  0  0
  6 10  2  0  0  0  0
  8 11  1  0  0  0  0
  9 12  2  0  0  0  0
 11 13  1  0  0  0  0
 11 14  1  0  0  0  0
 12 15  1  0  0  0  0
 13 16  2  0  0  0  0
 14 17  2  0  0  0  0
 14 18  1  0  0  0  0
 15 19  1  0  0  0  0
 17 20  1  0  0  0  0
 19 21  1  0  0  0  0
 21 22  2  0  0  0  0
 21 23  1  0  0  0  0
 22 24  1  0  0  0  0
 22 25  1  0  0  0  0
 23 26  2  0  0  0  0
 24 27  2  0  0  0  0
  7 10  1  0  0  0  0
 12 13  1  0  0  0  0
 16 17  1  0  0  0  0
 26 27  1  0  0  0  0
M  END
>  <MolRegNo>
501745

>  <m>
=

>  <Value>
17000

>  <Unit>
nM

>  <Type>
IC50

>  <pValue>
4.77

>  <Ligand Efficiency>
0

>  <Binding Efficiency>
0

>  <Surface Efficiency>
0

>  <Assay Index>
368753

>  <Assay Category>


>  <Assay Organism>


>  <Target ID>
17045

>  <Target Name>
Cytochrome P450 3A4

>  <Target Organism>
Homo sapiens

>  <Target Description>
Target is a single protein chain

>  <Sequence Accession>
P08684

>  <Reference>
Bioorg Med Chem Lett 19 (13), 3602-3606 (2009)

>  <Pubmed ID>
19467868

>  <DOI>
10.1016/j.bmcl.2009.04.127

$$$$
501744
Actelion Java MolfileCreator 1.0

 28 31  0  0  0  0  0  0  0  0999 V2000
    0.0000   -0.0000   -0.0000 O   0  0  0  0  0  0  0  0  0  0  0  0
    1.2919   -0.7536   -0.0000 C   0  0  0  0  0  0  0  0  0  0  0  0
    2.5957   -0.0000   -0.0000 C   0  0  0  0  0  0  0  0  0  0  0  0
    1.2679   -2.2488   -0.0000 C   0  0  0  0  0  0  0  0  0  0  0  0
    3.8756   -0.7416   -0.0000 C   0  0  0  0  0  0  0  0  0  0  0  0
    2.5598   -3.0024   -0.0000 C   0  0  0  0  0  0  0  0  0  0  0  0
    3.8517   -2.2368   -0.0000 N   0  0  0  0  0  0  0  0  0  0  0  0
    5.1435   -2.9904   -0.0000 C   0  0  0  0  0  0  0  0  0  0  0  0
    6.4234   -2.2249   -0.0000 C   0  0  0  0  0  0  0  0  0  0  0  0
    5.1316   -4.4856   -0.0000 C   0  0  0  0  0  0  0  0  0  0  0  0
    7.7272   -2.9545   -0.0000 N   0  0  0  0  0  0  0  0  0  0  0  0
    6.4234   -5.2273   -0.0000 C   0  0  0  0  0  0  0  0  0  0  0  0
    7.7153   -4.4617   -0.0000 C   0  0  0  0  0  0  0  0  0  0  0  0
    9.1626   -2.4761   -0.0000 C   0  0  0  0  0  0  0  0  0  0  0  0
    6.4115   -6.7225   -0.0000 N   0  0  0  0  0  0  0  0  0  0  0  0
    9.1507   -4.9162   -0.0000 N   0  0  0  0  0  0  0  0  0  0  0  0
   10.0478   -3.6962   -0.0000 C   0  0  0  0  0  0  0  0  0  0  0  0
    9.6172   -1.0287   -0.0000 C   0  0  0  0  0  0  0  0  0  0  0  0
    5.0957   -7.4641   -0.0000 C   0  0  0  0  0  0  0  0  0  0  0  0
   11.5430   -3.6842   -0.0000 C   0  0  0  0  0  0  0  0  0  0  0  0
    5.0837   -8.9593   -0.0000 C   0  0  0  0  0  0  0  0  0  0  0  0
    3.7679   -9.6890   -0.0000 C   0  0  0  0  0  0  0  0  0  0  0  0
    6.3756   -9.6890   -0.0000 C   0  0  0  0  0  0  0  0  0  0  0  0
    3.7560  -11.1842   -0.0000 C   0  0  0  0  0  0  0  0  0  0  0  0
    2.4521   -8.9234   -0.0000 C   0  0  0  0  0  0  0  0  0  0  0  0
    6.3636  -11.1842   -0.0000 C   0  0  0  0  0  0  0  0  0  0  0  0
    7.6674   -8.9234   -0.0000 C   0  0  0  0  0  0  0  0  0  0  0  0
    5.0478  -11.9258   -0.0000 C   0  0  0  0  0  0  0  0  0  0  0  0
  1  2  2  0  0  0  0
  2  3  1  0  0  0  0
  2  4  1  0  0  0  0
  3  5  2  0  0  0  0
  4  6  2  0  0  0  0
  5  7  1  0  0  0  0
  7  8  1  0  0  0  0
  8  9  2  0  0  0  0
  8 10  1  0  0  0  0
  9 11  1  0  0  0  0
 10 12  2  0  0  0  0
 11 13  1  0  0  0  0
 11 14  1  0  0  0  0
 12 15  1  0  0  0  0
 13 16  2  0  0  0  0
 14 17  2  0  0  0  0
 14 18  1  0  0  0  0
 15 19  1  0  0  0  0
 17 20  1  0  0  0  0
 19 21  1  0  0  0  0
 21 22  2  0  0  0  0
 21 23  1  0  0  0  0
 22 24  1  0  0  0  0
 22 25  1  0  0  0  0
 23 26  2  0  0  0  0
 23 27  1  0  0  0  0
 24 28  2  0  0  0  0
  6  7  1  0  0  0  0
 12 13  1  0  0  0  0
 16 17  1  0  0  0  0
 26 28  1  0  0  0  0
M  END
>  <MolRegNo>
501744

>  <m>
=

>  <Value>
28000

>  <Unit>
nM

>  <Type>
IC50

>  <pValue>
4.55

>  <Ligand Efficiency>
0

>  <Binding Efficiency>
0

>  <Surface Efficiency>
0

>  <Assay Index>
368753

>  <Assay Category>


>  <Assay Organism>


>  <Target ID>
17045

>  <Target Name>
Cytochrome P450 3A4

>  <Target Organism>
Homo sapiens

>  <Target Description>
Target is a single protein chain

>  <Sequence Accession>
P08684

>  <Reference>
Bioorg Med Chem Lett 19 (13), 3602-3606 (2009)

>  <Pubmed ID>
19467868

>  <DOI>
10.1016/j.bmcl.2009.04.127

$$$$
501743
Actelion Java MolfileCreator 1.0

 28 31  0  0  0  0  0  0  0  0999 V2000
    0.0000   -0.0000   -0.0000 O   0  0  0  0  0  0  0  0  0  0  0  0
   -1.3132   -0.7282   -0.0000 C   0  0  0  0  0  0  0  0  0  0  0  0
   -1.3371   -2.2205   -0.0000 N   0  0  0  0  0  0  0  0  0  0  0  0
   -2.6144    0.0358   -0.0000 C   0  0  0  0  0  0  0  0  0  0  0  0
   -0.0478   -2.9726   -0.0000 C   0  0  0  0  0  0  0  0  0  0  0  0
   -2.6502   -2.9606   -0.0000 C   0  0  0  0  0  0  0  0  0  0  0  0
   -3.9395   -0.6924   -0.0000 C   0  0  0  0  0  0  0  0  0  0  0  0
    1.2296   -2.2085   -0.0000 C   0  0  0  0  0  0  0  0  0  0  0  0
   -0.0597   -4.4648   -0.0000 C   0  0  0  0  0  0  0  0  0  0  0  0
   -3.9634   -2.1847   -0.0000 N   0  0  0  0  0  0  0  0  0  0  0  0
    2.5309   -2.9367   -0.0000 N   0  0  0  0  0  0  0  0  0  0  0  0
    1.2296   -5.2050   -0.0000 C   0  0  0  0  0  0  0  0  0  0  0  0
    2.5189   -4.4409   -0.0000 C   0  0  0  0  0  0  0  0  0  0  0  0
    3.9634   -2.4592   -0.0000 C   0  0  0  0  0  0  0  0  0  0  0  0
    1.2177   -6.6972   -0.0000 N   0  0  0  0  0  0  0  0  0  0  0  0
    3.9515   -4.8946   -0.0000 N   0  0  0  0  0  0  0  0  0  0  0  0
    4.8468   -3.6769   -0.0000 C   0  0  0  0  0  0  0  0  0  0  0  0
    4.4171   -1.0147   -0.0000 C   0  0  0  0  0  0  0  0  0  0  0  0
   -0.0955   -7.4374   -0.0000 C   0  0  0  0  0  0  0  0  0  0  0  0
    6.3391   -3.6650   -0.0000 C   0  0  0  0  0  0  0  0  0  0  0  0
   -0.1074   -8.9296   -0.0000 C   0  0  0  0  0  0  0  0  0  0  0  0
   -1.4206   -9.6578   -0.0000 C   0  0  0  0  0  0  0  0  0  0  0  0
    1.1819   -9.6578   -0.0000 C   0  0  0  0  0  0  0  0  0  0  0  0
   -1.4326  -11.1501   -0.0000 C   0  0  0  0  0  0  0  0  0  0  0  0
   -2.7338   -8.8938   -0.0000 C   0  0  0  0  0  0  0  0  0  0  0  0
    1.1699  -11.1501   -0.0000 C   0  0  0  0  0  0  0  0  0  0  0  0
    2.4712   -8.8938   -0.0000 C   0  0  0  0  0  0  0  0  0  0  0  0
   -0.1433  -11.8902   -0.0000 C   0  0  0  0  0  0  0  0  0  0  0  0
  1  2  2  0  0  0  0
  2  3  1  0  0  0  0
  2  4  1  0  0  0  0
  3  5  1  0  0  0  0
  3  6  1  0  0  0  0
  4  7  2  0  0  0  0
  5  8  2  0  0  0  0
  5  9  1  0  0  0  0
  6 10  2  0  0  0  0
  8 11  1  0  0  0  0
  9 12  2  0  0  0  0
 11 13  1  0  0  0  0
 11 14  1  0  0  0  0
 12 15  1  0  0  0  0
 13 16  2  0  0  0  0
 14 17  2  0  0  0  0
 14 18  1  0  0  0  0
 15 19  1  0  0  0  0
 17 20  1  0  0  0  0
 19 21  1  0  0  0  0
 21 22  2  0  0  0  0
 21 23  1  0  0  0  0
 22 24  1  0  0  0  0
 22 25  1  0  0  0  0
 23 26  2  0  0  0  0
 23 27  1  0  0  0  0
 24 28  2  0  0  0  0
  7 10  1  0  0  0  0
 12 13  1  0  0  0  0
 16 17  1  0  0  0  0
 26 28  1  0  0  0  0
M  END
>  <MolRegNo>
501743

>  <m>
=

>  <Value>
4800

>  <Unit>
nM

>  <Type>
IC50

>  <pValue>
5.32

>  <Ligand Efficiency>
0

>  <Binding Efficiency>
0

>  <Surface Efficiency>
0

>  <Assay Index>
368753

>  <Assay Category>


>  <Assay Organism>


>  <Target ID>
17045

>  <Target Name>
Cytochrome P450 3A4

>  <Target Organism>
Homo sapiens

>  <Target Description>
Target is a single protein chain

>  <Sequence Accession>
P08684

>  <Reference>
Bioorg Med Chem Lett 19 (13), 3602-3606 (2009)

>  <Pubmed ID>
19467868

>  <DOI>
10.1016/j.bmcl.2009.04.127

$$$$
501742
Actelion Java MolfileCreator 1.0

 28 31  0  0  0  0  0  0  0  0999 V2000
    0.0000   -0.0000   -0.0000 O   0  0  0  0  0  0  0  0  0  0  0  0
   -1.3132   -0.7282   -0.0000 C   0  0  0  0  0  0  0  0  0  0  0  0
   -1.3371   -2.2205   -0.0000 N   0  0  0  0  0  0  0  0  0  0  0  0
   -2.6144    0.0358   -0.0000 C   0  0  0  0  0  0  0  0  0  0  0  0
   -2.6502   -2.9606   -0.0000 N   0  0  0  0  0  0  0  0  0  0  0  0
   -0.0478   -2.9726   -0.0000 C   0  0  0  0  0  0  0  0  0  0  0  0
   -3.9395   -0.6924   -0.0000 C   0  0  0  0  0  0  0  0  0  0  0  0
   -3.9634   -2.1847   -0.0000 C   0  0  0  0  0  0  0  0  0  0  0  0
    1.2296   -2.2085   -0.0000 C   0  0  0  0  0  0  0  0  0  0  0  0
   -0.0597   -4.4648   -0.0000 C   0  0  0  0  0  0  0  0  0  0  0  0
    2.5309   -2.9367   -0.0000 N   0  0  0  0  0  0  0  0  0  0  0  0
    1.2296   -5.2050   -0.0000 C   0  0  0  0  0  0  0  0  0  0  0  0
    2.5189   -4.4409   -0.0000 C   0  0  0  0  0  0  0  0  0  0  0  0
    3.9634   -2.4592   -0.0000 C   0  0  0  0  0  0  0  0  0  0  0  0
    1.2177   -6.6972   -0.0000 N   0  0  0  0  0  0  0  0  0  0  0  0
    3.9515   -4.8946   -0.0000 N   0  0  0  0  0  0  0  0  0  0  0  0
    4.8468   -3.6769   -0.0000 C   0  0  0  0  0  0  0  0  0  0  0  0
    4.4171   -1.0147   -0.0000 C   0  0  0  0  0  0  0  0  0  0  0  0
   -0.0955   -7.4374   -0.0000 C   0  0  0  0  0  0  0  0  0  0  0  0
    6.3391   -3.6650   -0.0000 C   0  0  0  0  0  0  0  0  0  0  0  0
   -0.1074   -8.9296   -0.0000 C   0  0  0  0  0  0  0  0  0  0  0  0
   -1.4206   -9.6578   -0.0000 C   0  0  0  0  0  0  0  0  0  0  0  0
    1.1819   -9.6578   -0.0000 C   0  0  0  0  0  0  0  0  0  0  0  0
   -1.4326  -11.1501   -0.0000 C   0  0  0  0  0  0  0  0  0  0  0  0
   -2.7338   -8.8938   -0.0000 C   0  0  0  0  0  0  0  0  0  0  0  0
    1.1699  -11.1501   -0.0000 C   0  0  0  0  0  0  0  0  0  0  0  0
    2.4712   -8.8938   -0.0000 C   0  0  0  0  0  0  0  0  0  0  0  0
   -0.1433  -11.8902   -0.0000 C   0  0  0  0  0  0  0  0  0  0  0  0
  1  2  2  0  0  0  0
  2  3  1  0  0  0  0
  2  4  1  0  0  0  0
  3  5  1  0  0  0  0
  3  6  1  0  0  0  0
  4  7  2  0  0  0  0
  5  8  2  0  0  0  0
  6  9  2  0  0  0  0
  6 10  1  0  0  0  0
  9 11  1  0  0  0  0
 10 12  2  0  0  0  0
 11 13  1  0  0  0  0
 11 14  1  0  0  0  0
 12 15  1  0  0  0  0
 13 16  2  0  0  0  0
 14 17  2  0  0  0  0
 14 18  1  0  0  0  0
 15 19  1  0  0  0  0
 17 20  1  0  0  0  0
 19 21  1  0  0  0  0
 21 22  2  0  0  0  0
 21 23  1  0  0  0  0
 22 24  1  0  0  0  0
 22 25  1  0  0  0  0
 23 26  2  0  0  0  0
 23 27  1  0  0  0  0
 24 28  2  0  0  0  0
  7  8  1  0  0  0  0
 12 13  1  0  0  0  0
 16 17  1  0  0  0  0
 26 28  1  0  0  0  0
M  END
>  <MolRegNo>
501742

>  <m>
=

>  <Value>
8500

>  <Unit>
nM

>  <Type>
IC50

>  <pValue>
5.07

>  <Ligand Efficiency>
0

>  <Binding Efficiency>
0

>  <Surface Efficiency>
0

>  <Assay Index>
368753

>  <Assay Category>


>  <Assay Organism>


>  <Target ID>
17045

>  <Target Name>
Cytochrome P450 3A4

>  <Target Organism>
Homo sapiens

>  <Target Description>
Target is a single protein chain

>  <Sequence Accession>
P08684

>  <Reference>
Bioorg Med Chem Lett 19 (13), 3602-3606 (2009)

>  <Pubmed ID>
19467868

>  <DOI>
10.1016/j.bmcl.2009.04.127

$$$$
501741
Actelion Java MolfileCreator 1.0

 31 34  0  0  0  0  0  0  0  0999 V2000
    0.0000   -0.0000   -0.0000 O   0  0  0  0  0  0  0  0  0  0  0  0
   -1.3124   -0.7278   -0.0000 C   0  0  0  0  0  0  0  0  0  0  0  0
   -1.3363   -2.2192   -0.0000 N   0  0  0  0  0  0  0  0  0  0  0  0
   -2.6129    0.0358   -0.0000 C   0  0  0  0  0  0  0  0  0  0  0  0
   -0.0477   -2.9708   -0.0000 C   0  0  0  0  0  0  0  0  0  0  0  0
   -2.6487   -2.9589   -0.0000 C   0  0  0  0  0  0  0  0  0  0  0  0
   -3.9372   -0.6920   -0.0000 C   0  0  0  0  0  0  0  0  0  0  0  0
    1.2289   -2.2072   -0.0000 C   0  0  0  0  0  0  0  0  0  0  0  0
   -0.0597   -4.4622   -0.0000 C   0  0  0  0  0  0  0  0  0  0  0  0
   -3.9611   -2.1834   -0.0000 C   0  0  0  0  0  0  0  0  0  0  0  0
    2.5294   -2.9350   -0.0000 N   0  0  0  0  0  0  0  0  0  0  0  0
    1.2289   -5.2019   -0.0000 C   0  0  0  0  0  0  0  0  0  0  0  0
   -5.2854   -2.9112   -0.0000 C   0  0  0  0  0  0  0  0  0  0  0  0
    2.5174   -4.4383   -0.0000 C   0  0  0  0  0  0  0  0  0  0  0  0
    3.9611   -2.4578   -0.0000 C   0  0  0  0  0  0  0  0  0  0  0  0
    1.2170   -6.6933   -0.0000 N   0  0  0  0  0  0  0  0  0  0  0  0
   -6.5979   -2.1357   -0.0000 O   0  0  0  0  0  0  0  0  0  0  0  0
   -5.3093   -4.4025   -0.0000 N   0  0  0  0  0  0  0  0  0  0  0  0
    3.9492   -4.8917   -0.0000 N   0  0  0  0  0  0  0  0  0  0  0  0
    4.8440   -3.6748   -0.0000 C   0  0  0  0  0  0  0  0  0  0  0  0
    4.4145   -1.0141   -0.0000 C   0  0  0  0  0  0  0  0  0  0  0  0
   -0.0954   -7.4330   -0.0000 C   0  0  0  0  0  0  0  0  0  0  0  0
    6.3354   -3.6628   -0.0000 C   0  0  0  0  0  0  0  0  0  0  0  0
   -0.1074   -8.9244   -0.0000 C   0  0  0  0  0  0  0  0  0  0  0  0
   -1.4198   -9.6522   -0.0000 C   0  0  0  0  0  0  0  0  0  0  0  0
    1.1812   -9.6522   -0.0000 C   0  0  0  0  0  0  0  0  0  0  0  0
   -1.4317  -11.1436   -0.0000 C   0  0  0  0  0  0  0  0  0  0  0  0
   -2.7322   -8.8886   -0.0000 C   0  0  0  0  0  0  0  0  0  0  0  0
    1.1692  -11.1436   -0.0000 C   0  0  0  0  0  0  0  0  0  0  0  0
    2.4697   -8.8886   -0.0000 C   0  0  0  0  0  0  0  0  0  0  0  0
   -0.1432  -11.8833   -0.0000 C   0  0  0  0  0  0  0  0  0  0  0  0
  1  2  2  0  0  0  0
  2  3  1  0  0  0  0
  2  4  1  0  0  0  0
  3  5  1  0  0  0  0
  3  6  1  0  0  0  0
  4  7  2  0  0  0  0
  5  8  2  0  0  0  0
  5  9  1  0  0  0  0
  6 10  2  0  0  0  0
  8 11  1  0  0  0  0
  9 12  2  0  0  0  0
 10 13  1  0  0  0  0
 11 14  1  0  0  0  0
 11 15  1  0  0  0  0
 12 16  1  0  0  0  0
 13 17  2  0  0  0  0
 13 18  1  0  0  0  0
 14 19  2  0  0  0  0
 15 20  2  0  0  0  0
 15 21  1  0  0  0  0
 16 22  1  0  0  0  0
 20 23  1  0  0  0  0
 22 24  1  0  0  0  0
 24 25  2  0  0  0  0
 24 26  1  0  0  0  0
 25 27  1  0  0  0  0
 25 28  1  0  0  0  0
 26 29  2  0  0  0  0
 26 30  1  0  0  0  0
 27 31  2  0  0  0  0
  7 10  1  0  0  0  0
 12 14  1  0  0  0  0
 19 20  1  0  0  0  0
 29 31  1  0  0  0  0
M  END
>  <MolRegNo>
501741

>  <m>
=

>  <Value>
14000

>  <Unit>
nM

>  <Type>
IC50

>  <pValue>
4.85

>  <Ligand Efficiency>
0

>  <Binding Efficiency>
0

>  <Surface Efficiency>
0

>  <Assay Index>
368753

>  <Assay Category>


>  <Assay Organism>


>  <Target ID>
17045

>  <Target Name>
Cytochrome P450 3A4

>  <Target Organism>
Homo sapiens

>  <Target Description>
Target is a single protein chain

>  <Sequence Accession>
P08684

>  <Reference>
Bioorg Med Chem Lett 19 (13), 3602-3606 (2009)

>  <Pubmed ID>
19467868

>  <DOI>
10.1016/j.bmcl.2009.04.127

$$$$
501677
Actelion Java MolfileCreator 1.0

 28 31  0  0  0  0  0  0  0  0999 V2000
    0.0000   -0.0000   -0.0000 O   0  0  0  0  0  0  0  0  0  0  0  0
    1.4839   -0.1436   -0.0000 C   0  0  0  0  0  0  0  0  0  0  0  0
    2.0822   -1.5078   -0.0000 C   0  0  0  0  0  0  0  0  0  0  0  0
    3.5421   -1.8070   -0.0000 N   0  0  0  0  0  0  0  0  0  0  0  0
    1.3163   -2.8002   -0.0000 N   0  0  0  0  0  0  0  0  0  0  0  0
    3.6857   -3.2908   -0.0000 N   0  0  0  0  0  0  0  0  0  0  0  0
    2.3096   -3.9131   -0.0000 C   0  0  0  0  0  0  0  0  0  0  0  0
    4.9781   -4.0208   -0.0000 C   0  0  0  0  0  0  0  0  0  0  0  0
    6.2586   -3.2549   -0.0000 C   0  0  0  0  0  0  0  0  0  0  0  0
    4.9662   -5.5166   -0.0000 C   0  0  0  0  0  0  0  0  0  0  0  0
    7.5629   -3.9849   -0.0000 N   0  0  0  0  0  0  0  0  0  0  0  0
    6.2586   -6.2586   -0.0000 C   0  0  0  0  0  0  0  0  0  0  0  0
    7.5510   -5.4927   -0.0000 C   0  0  0  0  0  0  0  0  0  0  0  0
    8.9989   -3.5062   -0.0000 C   0  0  0  0  0  0  0  0  0  0  0  0
    6.2466   -7.7544   -0.0000 N   0  0  0  0  0  0  0  0  0  0  0  0
    8.9869   -5.9474   -0.0000 N   0  0  0  0  0  0  0  0  0  0  0  0
    9.8844   -4.7268   -0.0000 C   0  0  0  0  0  0  0  0  0  0  0  0
    9.4536   -2.0583   -0.0000 C   0  0  0  0  0  0  0  0  0  0  0  0
    4.9303   -8.4963   -0.0000 C   0  0  0  0  0  0  0  0  0  0  0  0
   11.3803   -4.7149   -0.0000 C   0  0  0  0  0  0  0  0  0  0  0  0
    4.9183   -9.9921   -0.0000 C   0  0  0  0  0  0  0  0  0  0  0  0
    3.6020  -10.7221   -0.0000 C   0  0  0  0  0  0  0  0  0  0  0  0
    6.2107  -10.7221   -0.0000 C   0  0  0  0  0  0  0  0  0  0  0  0
    3.5900  -12.2179   -0.0000 C   0  0  0  0  0  0  0  0  0  0  0  0
    2.2856   -9.9562   -0.0000 C   0  0  0  0  0  0  0  0  0  0  0  0
    6.1987  -12.2179   -0.0000 C   0  0  0  0  0  0  0  0  0  0  0  0
    7.5031   -9.9562   -0.0000 C   0  0  0  0  0  0  0  0  0  0  0  0
    4.8824  -12.9599   -0.0000 C   0  0  0  0  0  0  0  0  0  0  0  0
  1  2  1  0  0  0  0
  2  3  1  0  0  0  0
  3  4  2  0  0  0  0
  3  5  1  0  0  0  0
  4  6  1  0  0  0  0
  5  7  2  0  0  0  0
  6  8  1  0  0  0  0
  8  9  2  0  0  0  0
  8 10  1  0  0  0  0
  9 11  1  0  0  0  0
 10 12  2  0  0  0  0
 11 13  1  0  0  0  0
 11 14  1  0  0  0  0
 12 15  1  0  0  0  0
 13 16  2  0  0  0  0
 14 17  2  0  0  0  0
 14 18  1  0  0  0  0
 15 19  1  0  0  0  0
 17 20  1  0  0  0  0
 19 21  1  0  0  0  0
 21 22  2  0  0  0  0
 21 23  1  0  0  0  0
 22 24  1  0  0  0  0
 22 25  1  0  0  0  0
 23 26  2  0  0  0  0
 23 27  1  0  0  0  0
 24 28  2  0  0  0  0
  6  7  1  0  0  0  0
 12 13  1  0  0  0  0
 16 17  1  0  0  0  0
 26 28  1  0  0  0  0
M  END
>  <MolRegNo>
501677

>  <m>
=

>  <Value>
15000

>  <Unit>
nM

>  <Type>
IC50

>  <pValue>
4.82

>  <Ligand Efficiency>
0

>  <Binding Efficiency>
0

>  <Surface Efficiency>
0

>  <Assay Index>
368753

>  <Assay Category>


>  <Assay Organism>


>  <Target ID>
17045

>  <Target Name>
Cytochrome P450 3A4

>  <Target Organism>
Homo sapiens

>  <Target Description>
Target is a single protein chain

>  <Sequence Accession>
P08684

>  <Reference>
Bioorg Med Chem Lett 19 (13), 3602-3606 (2009)

>  <Pubmed ID>
19467868

>  <DOI>
10.1016/j.bmcl.2009.04.127

$$$$
501676
Actelion Java MolfileCreator 1.0

 28 31  0  0  0  0  0  0  0  0999 V2000
    0.0000   -0.0000   -0.0000 O   0  0  0  0  0  0  0  0  0  0  0  0
    1.4207    0.4775   -0.0000 C   0  0  0  0  0  0  0  0  0  0  0  0
    1.7191    1.9579   -0.0000 C   0  0  0  0  0  0  0  0  0  0  0  0
    0.7044    3.0920   -0.0000 N   0  0  0  0  0  0  0  0  0  0  0  0
    3.0801    2.5787   -0.0000 N   0  0  0  0  0  0  0  0  0  0  0  0
    1.4445    4.4053   -0.0000 C   0  0  0  0  0  0  0  0  0  0  0  0
    2.9130    4.0829   -0.0000 N   0  0  0  0  0  0  0  0  0  0  0  0
    4.3694    1.8504   -0.0000 C   0  0  0  0  0  0  0  0  0  0  0  0
    5.6468    2.6145   -0.0000 C   0  0  0  0  0  0  0  0  0  0  0  0
    4.3575    0.3582   -0.0000 C   0  0  0  0  0  0  0  0  0  0  0  0
    6.9481    1.8863   -0.0000 N   0  0  0  0  0  0  0  0  0  0  0  0
    5.6468   -0.3820   -0.0000 C   0  0  0  0  0  0  0  0  0  0  0  0
    6.9362    0.3820   -0.0000 C   0  0  0  0  0  0  0  0  0  0  0  0
    8.3807    2.3638   -0.0000 C   0  0  0  0  0  0  0  0  0  0  0  0
    5.6349   -1.8743   -0.0000 N   0  0  0  0  0  0  0  0  0  0  0  0
    8.3688   -0.0716   -0.0000 N   0  0  0  0  0  0  0  0  0  0  0  0
    9.2642    1.1461   -0.0000 C   0  0  0  0  0  0  0  0  0  0  0  0
    8.8344    3.8083   -0.0000 C   0  0  0  0  0  0  0  0  0  0  0  0
    4.3217   -2.6145   -0.0000 C   0  0  0  0  0  0  0  0  0  0  0  0
   10.7565    1.1580   -0.0000 C   0  0  0  0  0  0  0  0  0  0  0  0
    4.3097   -4.1068   -0.0000 C   0  0  0  0  0  0  0  0  0  0  0  0
    2.9965   -4.8350   -0.0000 C   0  0  0  0  0  0  0  0  0  0  0  0
    5.5991   -4.8350   -0.0000 C   0  0  0  0  0  0  0  0  0  0  0  0
    2.9846   -6.3273   -0.0000 C   0  0  0  0  0  0  0  0  0  0  0  0
    1.6833   -4.0710   -0.0000 C   0  0  0  0  0  0  0  0  0  0  0  0
    5.5871   -6.3273   -0.0000 C   0  0  0  0  0  0  0  0  0  0  0  0
    6.8884   -4.0710   -0.0000 C   0  0  0  0  0  0  0  0  0  0  0  0
    4.2739   -7.0675   -0.0000 C   0  0  0  0  0  0  0  0  0  0  0  0
  1  2  1  0  0  0  0
  2  3  1  0  0  0  0
  3  4  2  0  0  0  0
  3  5  1  0  0  0  0
  4  6  1  0  0  0  0
  5  7  1  0  0  0  0
  5  8  1  0  0  0  0
  8  9  2  0  0  0  0
  8 10  1  0  0  0  0
  9 11  1  0  0  0  0
 10 12  2  0  0  0  0
 11 13  1  0  0  0  0
 11 14  1  0  0  0  0
 12 15  1  0  0  0  0
 13 16  2  0  0  0  0
 14 17  2  0  0  0  0
 14 18  1  0  0  0  0
 15 19  1  0  0  0  0
 17 20  1  0  0  0  0
 19 21  1  0  0  0  0
 21 22  2  0  0  0  0
 21 23  1  0  0  0  0
 22 24  1  0  0  0  0
 22 25  1  0  0  0  0
 23 26  2  0  0  0  0
 23 27  1  0  0  0  0
 24 28  2  0  0  0  0
  6  7  2  0  0  0  0
 12 13  1  0  0  0  0
 16 17  1  0  0  0  0
 26 28  1  0  0  0  0
M  END
>  <MolRegNo>
501676

>  <m>
=

>  <Value>
21000

>  <Unit>
nM

>  <Type>
IC50

>  <pValue>
4.68

>  <Ligand Efficiency>
0

>  <Binding Efficiency>
0

>  <Surface Efficiency>
0

>  <Assay Index>
368753

>  <Assay Category>


>  <Assay Organism>


>  <Target ID>
17045

>  <Target Name>
Cytochrome P450 3A4

>  <Target Organism>
Homo sapiens

>  <Target Description>
Target is a single protein chain

>  <Sequence Accession>
P08684

>  <Reference>
Bioorg Med Chem Lett 19 (13), 3602-3606 (2009)

>  <Pubmed ID>
19467868

>  <DOI>
10.1016/j.bmcl.2009.04.127

$$$$
501675
Actelion Java MolfileCreator 1.0

 28 31  0  0  0  0  0  0  0  0999 V2000
    0.0000   -0.0000   -0.0000 N   0  0  0  0  0  0  0  0  0  0  0  0
   -1.4490    0.4751   -0.0000 C   0  0  0  0  0  0  0  0  0  0  0  0
    0.8789    1.2352   -0.0000 C   0  0  0  0  0  0  0  0  0  0  0  0
   -1.4609    1.9953   -0.0000 N   0  0  0  0  0  0  0  0  0  0  0  0
   -2.7555   -0.2613   -0.0000 C   0  0  0  0  0  0  0  0  0  0  0  0
   -0.0238    2.4704   -0.0000 C   0  0  0  0  0  0  0  0  0  0  0  0
    2.3635    1.2471   -0.0000 C   0  0  0  0  0  0  0  0  0  0  0  0
   -2.7792    2.7436   -0.0000 C   0  0  0  0  0  0  0  0  0  0  0  0
   -2.7673   -1.7459   -0.0000 N   0  0  0  0  0  0  0  0  0  0  0  0
   -4.0619    0.4988   -0.0000 C   0  0  0  0  0  0  0  0  0  0  0  0
    0.4276    3.9075   -0.0000 C   0  0  0  0  0  0  0  0  0  0  0  0
   -4.0738    2.0072   -0.0000 C   0  0  0  0  0  0  0  0  0  0  0  0
   -4.0738   -2.4823   -0.0000 C   0  0  0  0  0  0  0  0  0  0  0  0
   -5.3803    2.7555   -0.0000 C   0  0  0  0  0  0  0  0  0  0  0  0
   -4.0857   -3.9669   -0.0000 C   0  0  0  0  0  0  0  0  0  0  0  0
   -5.5465    4.2520   -0.0000 N   0  0  0  0  0  0  0  0  0  0  0  0
   -6.7580    2.1616   -0.0000 N   0  0  0  0  0  0  0  0  0  0  0  0
   -2.8030   -4.6914   -0.0000 C   0  0  0  0  0  0  0  0  0  0  0  0
   -5.3921   -4.6914   -0.0000 C   0  0  0  0  0  0  0  0  0  0  0  0
   -7.0193    4.5726   -0.0000 C   0  0  0  0  0  0  0  0  0  0  0  0
   -7.7675    3.2899   -0.0000 N   0  0  0  0  0  0  0  0  0  0  0  0
   -7.0787    0.7126   -0.0000 C   0  0  0  0  0  0  0  0  0  0  0  0
   -2.8148   -6.1760   -0.0000 C   0  0  0  0  0  0  0  0  0  0  0  0
   -1.5203   -3.9313   -0.0000 C   0  0  0  0  0  0  0  0  0  0  0  0
   -5.4040   -6.1760   -0.0000 C   0  0  0  0  0  0  0  0  0  0  0  0
   -6.6986   -3.9313   -0.0000 C   0  0  0  0  0  0  0  0  0  0  0  0
   -4.1332   -6.9243   -0.0000 C   0  0  0  0  0  0  0  0  0  0  0  0
   -0.2375   -4.6676   -0.0000 C   0  0  0  0  0  0  0  0  0  0  0  0
  1  2  2  0  0  0  0
  1  3  1  0  0  0  0
  2  4  1  0  0  0  0
  2  5  1  0  0  0  0
  3  6  2  0  0  0  0
  3  7  1  0  0  0  0
  4  8  1  0  0  0  0
  5  9  1  0  0  0  0
  5 10  2  0  0  0  0
  6 11  1  0  0  0  0
  8 12  2  0  0  0  0
  9 13  1  0  0  0  0
 12 14  1  0  0  0  0
 13 15  1  0  0  0  0
 14 16  2  0  0  0  0
 14 17  1  0  0  0  0
 15 18  2  0  0  0  0
 15 19  1  0  0  0  0
 16 20  1  0  0  0  0
 17 21  1  0  0  0  0
 17 22  1  0  0  0  0
 18 23  1  0  0  0  0
 18 24  1  0  0  0  0
 19 25  2  0  0  0  0
 19 26  1  0  0  0  0
 23 27  2  0  0  0  0
 24 28  1  0  0  0  0
  4  6  1  0  0  0  0
 10 12  1  0  0  0  0
 20 21  2  0  0  0  0
 25 27  1  0  0  0  0
M  END
>  <MolRegNo>
501675

>  <m>
=

>  <Value>
13000

>  <Unit>
nM

>  <Type>
IC50

>  <pValue>
4.89

>  <Ligand Efficiency>
0

>  <Binding Efficiency>
0

>  <Surface Efficiency>
0

>  <Assay Index>
368753

>  <Assay Category>


>  <Assay Organism>


>  <Target ID>
17045

>  <Target Name>
Cytochrome P450 3A4

>  <Target Organism>
Homo sapiens

>  <Target Description>
Target is a single protein chain

>  <Sequence Accession>
P08684

>  <Reference>
Bioorg Med Chem Lett 19 (13), 3602-3606 (2009)

>  <Pubmed ID>
19467868

>  <DOI>
10.1016/j.bmcl.2009.04.127

$$$$
501674
Actelion Java MolfileCreator 1.0

 27 30  0  0  0  0  0  0  0  0999 V2000
    0.0000   -0.0000   -0.0000 O   0  0  0  0  0  0  0  0  0  0  0  0
   -1.1351   -0.9918   -0.0000 C   0  0  0  0  0  0  0  0  0  0  0  0
   -0.9918   -2.4734   -0.0000 N   0  0  0  0  0  0  0  0  0  0  0  0
   -2.6168   -0.6691   -0.0000 N   0  0  0  0  0  0  0  0  0  0  0  0
    0.2987   -3.2023   -0.0000 C   0  0  0  0  0  0  0  0  0  0  0  0
   -2.3778   -3.0709   -0.0000 C   0  0  0  0  0  0  0  0  0  0  0  0
   -3.3815   -1.9596   -0.0000 C   0  0  0  0  0  0  0  0  0  0  0  0
    1.5773   -2.4376   -0.0000 C   0  0  0  0  0  0  0  0  0  0  0  0
    0.2868   -4.6959   -0.0000 C   0  0  0  0  0  0  0  0  0  0  0  0
    2.8797   -3.1665   -0.0000 N   0  0  0  0  0  0  0  0  0  0  0  0
    1.5773   -5.4368   -0.0000 C   0  0  0  0  0  0  0  0  0  0  0  0
    2.8677   -4.6720   -0.0000 C   0  0  0  0  0  0  0  0  0  0  0  0
    4.3136   -2.6885   -0.0000 C   0  0  0  0  0  0  0  0  0  0  0  0
    1.5653   -6.9304   -0.0000 N   0  0  0  0  0  0  0  0  0  0  0  0
    4.3016   -5.1261   -0.0000 N   0  0  0  0  0  0  0  0  0  0  0  0
    5.1978   -3.9073   -0.0000 C   0  0  0  0  0  0  0  0  0  0  0  0
    4.7676   -1.2427   -0.0000 C   0  0  0  0  0  0  0  0  0  0  0  0
    0.2509   -7.6712   -0.0000 C   0  0  0  0  0  0  0  0  0  0  0  0
    6.6914   -3.8953   -0.0000 C   0  0  0  0  0  0  0  0  0  0  0  0
    0.2390   -9.1648   -0.0000 C   0  0  0  0  0  0  0  0  0  0  0  0
   -1.0754   -9.8937   -0.0000 C   0  0  0  0  0  0  0  0  0  0  0  0
    1.5295   -9.8937   -0.0000 C   0  0  0  0  0  0  0  0  0  0  0  0
   -1.0874  -11.3873   -0.0000 C   0  0  0  0  0  0  0  0  0  0  0  0
   -2.3898   -9.1290   -0.0000 C   0  0  0  0  0  0  0  0  0  0  0  0
    1.5175  -11.3873   -0.0000 C   0  0  0  0  0  0  0  0  0  0  0  0
    2.8199   -9.1290   -0.0000 C   0  0  0  0  0  0  0  0  0  0  0  0
    0.2031  -12.1281   -0.0000 C   0  0  0  0  0  0  0  0  0  0  0  0
  1  2  2  0  0  0  0
  2  3  1  0  0  0  0
  2  4  1  0  0  0  0
  3  5  1  0  0  0  0
  3  6  1  0  0  0  0
  4  7  1  0  0  0  0
  5  8  2  0  0  0  0
  5  9  1  0  0  0  0
  8 10  1  0  0  0  0
  9 11  2  0  0  0  0
 10 12  1  0  0  0  0
 10 13  1  0  0  0  0
 11 14  1  0  0  0  0
 12 15  2  0  0  0  0
 13 16  2  0  0  0  0
 13 17  1  0  0  0  0
 14 18  1  0  0  0  0
 16 19  1  0  0  0  0
 18 20  1  0  0  0  0
 20 21  2  0  0  0  0
 20 22  1  0  0  0  0
 21 23  1  0  0  0  0
 21 24  1  0  0  0  0
 22 25  2  0  0  0  0
 22 26  1  0  0  0  0
 23 27  2  0  0  0  0
  6  7  1  0  0  0  0
 11 12  1  0  0  0  0
 15 16  1  0  0  0  0
 25 27  1  0  0  0  0
M  END
>  <MolRegNo>
501674

>  <m>
=

>  <Value>
5300

>  <Unit>
nM

>  <Type>
IC50

>  <pValue>
5.28

>  <Ligand Efficiency>
0

>  <Binding Efficiency>
0

>  <Surface Efficiency>
0

>  <Assay Index>
368753

>  <Assay Category>


>  <Assay Organism>


>  <Target ID>
17045

>  <Target Name>
Cytochrome P450 3A4

>  <Target Organism>
Homo sapiens

>  <Target Description>
Target is a single protein chain

>  <Sequence Accession>
P08684

>  <Reference>
Bioorg Med Chem Lett 19 (13), 3602-3606 (2009)

>  <Pubmed ID>
19467868

>  <DOI>
10.1016/j.bmcl.2009.04.127

$$$$
501673
Actelion Java MolfileCreator 1.0

 26 29  0  0  0  0  0  0  0  0999 V2000
    0.0000   -0.0000   -0.0000 O   0  0  0  0  0  0  0  0  0  0  0  0
    0.1434   -1.4819   -0.0000 C   0  0  0  0  0  0  0  0  0  0  0  0
   -1.4819    0.3227   -0.0000 C   0  0  0  0  0  0  0  0  0  0  0  0
    1.4341   -2.2109   -0.0000 C   0  0  0  0  0  0  0  0  0  0  0  0
   -1.2429   -2.0795   -0.0000 C   0  0  0  0  0  0  0  0  0  0  0  0
   -2.2468   -0.9680   -0.0000 C   0  0  0  0  0  0  0  0  0  0  0  0
    2.7129   -1.4461   -0.0000 C   0  0  0  0  0  0  0  0  0  0  0  0
    1.4222   -3.7048   -0.0000 C   0  0  0  0  0  0  0  0  0  0  0  0
    4.0155   -2.1751   -0.0000 N   0  0  0  0  0  0  0  0  0  0  0  0
    2.7129   -4.4457   -0.0000 C   0  0  0  0  0  0  0  0  0  0  0  0
    4.0036   -3.6809   -0.0000 C   0  0  0  0  0  0  0  0  0  0  0  0
    5.4496   -1.6970   -0.0000 C   0  0  0  0  0  0  0  0  0  0  0  0
    2.7009   -5.9396   -0.0000 N   0  0  0  0  0  0  0  0  0  0  0  0
    5.4377   -4.1350   -0.0000 N   0  0  0  0  0  0  0  0  0  0  0  0
    6.3340   -2.9160   -0.0000 C   0  0  0  0  0  0  0  0  0  0  0  0
    5.9038   -0.2510   -0.0000 C   0  0  0  0  0  0  0  0  0  0  0  0
    1.3863   -6.6806   -0.0000 C   0  0  0  0  0  0  0  0  0  0  0  0
    7.8279   -2.9041   -0.0000 C   0  0  0  0  0  0  0  0  0  0  0  0
    1.3744   -8.1744   -0.0000 C   0  0  0  0  0  0  0  0  0  0  0  0
    0.0598   -8.9034   -0.0000 C   0  0  0  0  0  0  0  0  0  0  0  0
    2.6651   -8.9034   -0.0000 C   0  0  0  0  0  0  0  0  0  0  0  0
    0.0478  -10.3973   -0.0000 C   0  0  0  0  0  0  0  0  0  0  0  0
   -1.2548   -8.1386   -0.0000 C   0  0  0  0  0  0  0  0  0  0  0  0
    2.6531  -10.3973   -0.0000 C   0  0  0  0  0  0  0  0  0  0  0  0
    3.9558   -8.1386   -0.0000 C   0  0  0  0  0  0  0  0  0  0  0  0
    1.3385  -11.1383   -0.0000 C   0  0  0  0  0  0  0  0  0  0  0  0
  1  2  1  0  0  0  0
  1  3  1  0  0  0  0
  2  4  1  0  0  0  0
  2  5  2  0  0  0  0
  3  6  2  0  0  0  0
  4  7  2  0  0  0  0
  4  8  1  0  0  0  0
  7  9  1  0  0  0  0
  8 10  2  0  0  0  0
  9 11  1  0  0  0  0
  9 12  1  0  0  0  0
 10 13  1  0  0  0  0
 11 14  2  0  0  0  0
 12 15  2  0  0  0  0
 12 16  1  0  0  0  0
 13 17  1  0  0  0  0
 15 18  1  0  0  0  0
 17 19  1  0  0  0  0
 19 20  2  0  0  0  0
 19 21  1  0  0  0  0
 20 22  1  0  0  0  0
 20 23  1  0  0  0  0
 21 24  2  0  0  0  0
 21 25  1  0  0  0  0
 22 26  2  0  0  0  0
  5  6  1  0  0  0  0
 10 11  1  0  0  0  0
 14 15  1  0  0  0  0
 24 26  1  0  0  0  0
M  END
>  <MolRegNo>
501673

>  <m>
=

>  <Value>
1500

>  <Unit>
nM

>  <Type>
IC50

>  <pValue>
5.82

>  <Ligand Efficiency>
0

>  <Binding Efficiency>
0

>  <Surface Efficiency>
0

>  <Assay Index>
368753

>  <Assay Category>


>  <Assay Organism>


>  <Target ID>
17045

>  <Target Name>
Cytochrome P450 3A4

>  <Target Organism>
Homo sapiens

>  <Target Description>
Target is a single protein chain

>  <Sequence Accession>
P08684

>  <Reference>
Bioorg Med Chem Lett 19 (13), 3602-3606 (2009)

>  <Pubmed ID>
19467868

>  <DOI>
10.1016/j.bmcl.2009.04.127

$$$$
501547
Actelion Java MolfileCreator 1.0

 26 29  0  0  0  0  0  0  0  0999 V2000
    0.0000   -0.0000   -0.0000 N   0  0  0  0  0  0  0  0  0  0  0  0
   -1.4482    0.4748   -0.0000 C   0  0  0  0  0  0  0  0  0  0  0  0
    0.8784    1.2345   -0.0000 C   0  0  0  0  0  0  0  0  0  0  0  0
   -1.4600    1.9942   -0.0000 N   0  0  0  0  0  0  0  0  0  0  0  0
   -2.7539   -0.2611   -0.0000 C   0  0  0  0  0  0  0  0  0  0  0  0
   -0.0237    2.4690   -0.0000 C   0  0  0  0  0  0  0  0  0  0  0  0
    2.3622    1.2464   -0.0000 C   0  0  0  0  0  0  0  0  0  0  0  0
   -2.7776    2.7420   -0.0000 C   0  0  0  0  0  0  0  0  0  0  0  0
   -2.7657   -1.7449   -0.0000 N   0  0  0  0  0  0  0  0  0  0  0  0
   -4.0596    0.4985   -0.0000 C   0  0  0  0  0  0  0  0  0  0  0  0
    0.4273    3.9053   -0.0000 C   0  0  0  0  0  0  0  0  0  0  0  0
   -4.0715    2.0061   -0.0000 C   0  0  0  0  0  0  0  0  0  0  0  0
   -4.0715   -2.4809   -0.0000 C   0  0  0  0  0  0  0  0  0  0  0  0
   -5.3772    2.7539   -0.0000 N   0  0  0  0  0  0  0  0  0  0  0  0
   -4.0833   -3.9646   -0.0000 C   0  0  0  0  0  0  0  0  0  0  0  0
   -5.5434    4.2495   -0.0000 N   0  0  0  0  0  0  0  0  0  0  0  0
   -6.7541    2.1604   -0.0000 C   0  0  0  0  0  0  0  0  0  0  0  0
   -5.3890   -4.6887   -0.0000 C   0  0  0  0  0  0  0  0  0  0  0  0
   -2.8014   -4.6887   -0.0000 C   0  0  0  0  0  0  0  0  0  0  0  0
   -7.0153    4.5700   -0.0000 C   0  0  0  0  0  0  0  0  0  0  0  0
   -7.7631    3.2880   -0.0000 N   0  0  0  0  0  0  0  0  0  0  0  0
   -5.4009   -6.1725   -0.0000 C   0  0  0  0  0  0  0  0  0  0  0  0
   -6.6948   -3.9290   -0.0000 C   0  0  0  0  0  0  0  0  0  0  0  0
   -2.8132   -6.1725   -0.0000 C   0  0  0  0  0  0  0  0  0  0  0  0
   -1.5194   -3.9290   -0.0000 C   0  0  0  0  0  0  0  0  0  0  0  0
   -4.1189   -6.9084   -0.0000 C   0  0  0  0  0  0  0  0  0  0  0  0
  1  2  2  0  0  0  0
  1  3  1  0  0  0  0
  2  4  1  0  0  0  0
  2  5  1  0  0  0  0
  3  6  2  0  0  0  0
  3  7  1  0  0  0  0
  4  8  1  0  0  0  0
  5  9  1  0  0  0  0
  5 10  2  0  0  0  0
  6 11  1  0  0  0  0
  8 12  2  0  0  0  0
  9 13  1  0  0  0  0
 12 14  1  0  0  0  0
 13 15  1  0  0  0  0
 14 16  1  0  0  0  0
 14 17  1  0  0  0  0
 15 18  2  0  0  0  0
 15 19  1  0  0  0  0
 16 20  2  0  0  0  0
 17 21  2  0  0  0  0
 18 22  1  0  0  0  0
 18 23  1  0  0  0  0
 19 24  2  0  0  0  0
 19 25  1  0  0  0  0
 22 26  2  0  0  0  0
  4  6  1  0  0  0  0
 10 12  1  0  0  0  0
 20 21  1  0  0  0  0
 24 26  1  0  0  0  0
M  END
>  <MolRegNo>
501547

>  <m>
=

>  <Value>
6700

>  <Unit>
nM

>  <Type>
IC50

>  <pValue>
5.17

>  <Ligand Efficiency>
0

>  <Binding Efficiency>
0

>  <Surface Efficiency>
0

>  <Assay Index>
368753

>  <Assay Category>


>  <Assay Organism>


>  <Target ID>
17045

>  <Target Name>
Cytochrome P450 3A4

>  <Target Organism>
Homo sapiens

>  <Target Description>
Target is a single protein chain

>  <Sequence Accession>
P08684

>  <Reference>
Bioorg Med Chem Lett 19 (13), 3602-3606 (2009)

>  <Pubmed ID>
19467868

>  <DOI>
10.1016/j.bmcl.2009.04.127

$$$$
501546
Actelion Java MolfileCreator 1.0

 27 30  0  0  0  0  0  0  0  0999 V2000
    0.0000   -0.0000   -0.0000 N   0  0  0  0  0  0  0  0  0  0  0  0
   -0.0119   -1.4923   -0.0000 C   0  0  0  0  0  0  0  0  0  0  0  0
   -1.3132    0.7641   -0.0000 C   0  0  0  0  0  0  0  0  0  0  0  0
    1.2774   -2.2325   -0.0000 C   0  0  0  0  0  0  0  0  0  0  0  0
   -1.3252   -2.2325   -0.0000 C   0  0  0  0  0  0  0  0  0  0  0  0
   -2.6265    0.0239   -0.0000 C   0  0  0  0  0  0  0  0  0  0  0  0
    2.5549   -1.4684   -0.0000 C   0  0  0  0  0  0  0  0  0  0  0  0
    1.2655   -3.7248   -0.0000 C   0  0  0  0  0  0  0  0  0  0  0  0
   -2.6384   -1.4804   -0.0000 C   0  0  0  0  0  0  0  0  0  0  0  0
    3.8562   -2.1967   -0.0000 N   0  0  0  0  0  0  0  0  0  0  0  0
    2.5549   -4.4650   -0.0000 C   0  0  0  0  0  0  0  0  0  0  0  0
    3.8442   -3.7010   -0.0000 C   0  0  0  0  0  0  0  0  0  0  0  0
    5.2888   -1.7192   -0.0000 C   0  0  0  0  0  0  0  0  0  0  0  0
    2.5429   -5.9573   -0.0000 N   0  0  0  0  0  0  0  0  0  0  0  0
    5.2769   -4.1546   -0.0000 N   0  0  0  0  0  0  0  0  0  0  0  0
    6.1722   -2.9369   -0.0000 C   0  0  0  0  0  0  0  0  0  0  0  0
    5.7425   -0.2746   -0.0000 C   0  0  0  0  0  0  0  0  0  0  0  0
    1.2297   -6.6975   -0.0000 C   0  0  0  0  0  0  0  0  0  0  0  0
    7.6646   -2.9250   -0.0000 C   0  0  0  0  0  0  0  0  0  0  0  0
    1.2177   -8.1899   -0.0000 C   0  0  0  0  0  0  0  0  0  0  0  0
   -0.0955   -8.9181   -0.0000 C   0  0  0  0  0  0  0  0  0  0  0  0
    2.5071   -8.9181   -0.0000 C   0  0  0  0  0  0  0  0  0  0  0  0
   -0.1074  -10.4104   -0.0000 C   0  0  0  0  0  0  0  0  0  0  0  0
   -1.4088   -8.1540   -0.0000 C   0  0  0  0  0  0  0  0  0  0  0  0
    2.4952  -10.4104   -0.0000 C   0  0  0  0  0  0  0  0  0  0  0  0
    3.7965   -8.1540   -0.0000 C   0  0  0  0  0  0  0  0  0  0  0  0
    1.1819  -11.1506   -0.0000 C   0  0  0  0  0  0  0  0  0  0  0  0
  1  2  2  0  0  0  0
  1  3  1  0  0  0  0
  2  4  1  0  0  0  0
  2  5  1  0  0  0  0
  3  6  2  0  0  0  0
  4  7  2  0  0  0  0
  4  8  1  0  0  0  0
  5  9  2  0  0  0  0
  7 10  1  0  0  0  0
  8 11  2  0  0  0  0
 10 12  1  0  0  0  0
 10 13  1  0  0  0  0
 11 14  1  0  0  0  0
 12 15  2  0  0  0  0
 13 16  2  0  0  0  0
 13 17  1  0  0  0  0
 14 18  1  0  0  0  0
 16 19  1  0  0  0  0
 18 20  1  0  0  0  0
 20 21  2  0  0  0  0
 20 22  1  0  0  0  0
 21 23  1  0  0  0  0
 21 24  1  0  0  0  0
 22 25  2  0  0  0  0
 22 26  1  0  0  0  0
 23 27  2  0  0  0  0
  6  9  1  0  0  0  0
 11 12  1  0  0  0  0
 15 16  1  0  0  0  0
 25 27  1  0  0  0  0
M  END
>  <MolRegNo>
501546

>  <m>
=

>  <Value>
1800

>  <Unit>
nM

>  <Type>
IC50

>  <pValue>
5.75

>  <Ligand Efficiency>
0

>  <Binding Efficiency>
0

>  <Surface Efficiency>
0

>  <Assay Index>
368753

>  <Assay Category>


>  <Assay Organism>


>  <Target ID>
17045

>  <Target Name>
Cytochrome P450 3A4

>  <Target Organism>
Homo sapiens

>  <Target Description>
Target is a single protein chain

>  <Sequence Accession>
P08684

>  <Reference>
Bioorg Med Chem Lett 19 (13), 3602-3606 (2009)

>  <Pubmed ID>
19467868

>  <DOI>
10.1016/j.bmcl.2009.04.127

$$$$
501545
Actelion Java MolfileCreator 1.0

 28 31  0  0  0  0  0  0  0  0999 V2000
    0.0000   -0.0000   -0.0000 O   0  0  0  0  0  0  0  0  0  0  0  0
   -1.3132   -0.7282   -0.0000 C   0  0  0  0  0  0  0  0  0  0  0  0
   -1.3371   -2.2205   -0.0000 N   0  0  0  0  0  0  0  0  0  0  0  0
   -2.6144    0.0358   -0.0000 C   0  0  0  0  0  0  0  0  0  0  0  0
   -0.0478   -2.9726   -0.0000 C   0  0  0  0  0  0  0  0  0  0  0  0
   -2.6502   -2.9606   -0.0000 C   0  0  0  0  0  0  0  0  0  0  0  0
   -3.9395   -0.6924   -0.0000 C   0  0  0  0  0  0  0  0  0  0  0  0
    1.2296   -2.2085   -0.0000 C   0  0  0  0  0  0  0  0  0  0  0  0
   -0.0597   -4.4648   -0.0000 C   0  0  0  0  0  0  0  0  0  0  0  0
   -3.9634   -2.1847   -0.0000 C   0  0  0  0  0  0  0  0  0  0  0  0
    2.5309   -2.9367   -0.0000 N   0  0  0  0  0  0  0  0  0  0  0  0
    1.2296   -5.2050   -0.0000 C   0  0  0  0  0  0  0  0  0  0  0  0
    2.5189   -4.4409   -0.0000 C   0  0  0  0  0  0  0  0  0  0  0  0
    3.9634   -2.4592   -0.0000 C   0  0  0  0  0  0  0  0  0  0  0  0
    1.2177   -6.6972   -0.0000 N   0  0  0  0  0  0  0  0  0  0  0  0
    3.9515   -4.8946   -0.0000 N   0  0  0  0  0  0  0  0  0  0  0  0
    4.8468   -3.6769   -0.0000 C   0  0  0  0  0  0  0  0  0  0  0  0
    4.4171   -1.0147   -0.0000 C   0  0  0  0  0  0  0  0  0  0  0  0
   -0.0955   -7.4374   -0.0000 C   0  0  0  0  0  0  0  0  0  0  0  0
    6.3391   -3.6650   -0.0000 C   0  0  0  0  0  0  0  0  0  0  0  0
   -0.1074   -8.9296   -0.0000 C   0  0  0  0  0  0  0  0  0  0  0  0
   -1.4206   -9.6578   -0.0000 C   0  0  0  0  0  0  0  0  0  0  0  0
    1.1819   -9.6578   -0.0000 C   0  0  0  0  0  0  0  0  0  0  0  0
   -1.4326  -11.1501   -0.0000 C   0  0  0  0  0  0  0  0  0  0  0  0
   -2.7338   -8.8938   -0.0000 C   0  0  0  0  0  0  0  0  0  0  0  0
    1.1699  -11.1501   -0.0000 C   0  0  0  0  0  0  0  0  0  0  0  0
    2.4712   -8.8938   -0.0000 C   0  0  0  0  0  0  0  0  0  0  0  0
   -0.1433  -11.8902   -0.0000 C   0  0  0  0  0  0  0  0  0  0  0  0
  1  2  2  0  0  0  0
  2  3  1  0  0  0  0
  2  4  1  0  0  0  0
  3  5  1  0  0  0  0
  3  6  1  0  0  0  0
  4  7  2  0  0  0  0
  5  8  2  0  0  0  0
  5  9  1  0  0  0  0
  6 10  2  0  0  0  0
  8 11  1  0  0  0  0
  9 12  2  0  0  0  0
 11 13  1  0  0  0  0
 11 14  1  0  0  0  0
 12 15  1  0  0  0  0
 13 16  2  0  0  0  0
 14 17  2  0  0  0  0
 14 18  1  0  0  0  0
 15 19  1  0  0  0  0
 17 20  1  0  0  0  0
 19 21  1  0  0  0  0
 21 22  2  0  0  0  0
 21 23  1  0  0  0  0
 22 24  1  0  0  0  0
 22 25  1  0  0  0  0
 23 26  2  0  0  0  0
 23 27  1  0  0  0  0
 24 28  2  0  0  0  0
  7 10  1  0  0  0  0
 12 13  1  0  0  0  0
 16 17  1  0  0  0  0
 26 28  1  0  0  0  0
M  END
>  <MolRegNo>
501545

>  <m>
=

>  <Value>
48000

>  <Unit>
nM

>  <Type>
IC50

>  <pValue>
4.32

>  <Ligand Efficiency>
0

>  <Binding Efficiency>
0

>  <Surface Efficiency>
0

>  <Assay Index>
368753

>  <Assay Category>


>  <Assay Organism>


>  <Target ID>
17045

>  <Target Name>
Cytochrome P450 3A4

>  <Target Organism>
Homo sapiens

>  <Target Description>
Target is a single protein chain

>  <Sequence Accession>
P08684

>  <Reference>
Bioorg Med Chem Lett 19 (13), 3602-3606 (2009)

>  <Pubmed ID>
19467868

>  <DOI>
10.1016/j.bmcl.2009.04.127

$$$$
501544
Actelion Java MolfileCreator 1.0

 26 29  0  0  0  0  0  0  0  0999 V2000
    0.0000   -0.0000   -0.0000 N   0  0  0  0  0  0  0  0  0  0  0  0
   -1.4482    0.4748   -0.0000 C   0  0  0  0  0  0  0  0  0  0  0  0
    0.8784    1.2345   -0.0000 C   0  0  0  0  0  0  0  0  0  0  0  0
   -1.4600    1.9942   -0.0000 N   0  0  0  0  0  0  0  0  0  0  0  0
   -2.7539   -0.2611   -0.0000 C   0  0  0  0  0  0  0  0  0  0  0  0
   -0.0237    2.4690   -0.0000 C   0  0  0  0  0  0  0  0  0  0  0  0
    2.3622    1.2464   -0.0000 C   0  0  0  0  0  0  0  0  0  0  0  0
   -2.7776    2.7420   -0.0000 C   0  0  0  0  0  0  0  0  0  0  0  0
   -2.7657   -1.7449   -0.0000 N   0  0  0  0  0  0  0  0  0  0  0  0
   -4.0596    0.4985   -0.0000 C   0  0  0  0  0  0  0  0  0  0  0  0
    0.4273    3.9053   -0.0000 C   0  0  0  0  0  0  0  0  0  0  0  0
   -4.0715    2.0061   -0.0000 C   0  0  0  0  0  0  0  0  0  0  0  0
   -4.0715   -2.4809   -0.0000 C   0  0  0  0  0  0  0  0  0  0  0  0
   -5.3772    2.7539   -0.0000 N   0  0  0  0  0  0  0  0  0  0  0  0
   -4.0833   -3.9646   -0.0000 C   0  0  0  0  0  0  0  0  0  0  0  0
   -5.5434    4.2495   -0.0000 N   0  0  0  0  0  0  0  0  0  0  0  0
   -6.7541    2.1604   -0.0000 C   0  0  0  0  0  0  0  0  0  0  0  0
   -5.3890   -4.6887   -0.0000 C   0  0  0  0  0  0  0  0  0  0  0  0
   -2.8014   -4.6887   -0.0000 C   0  0  0  0  0  0  0  0  0  0  0  0
   -7.0153    4.5700   -0.0000 C   0  0  0  0  0  0  0  0  0  0  0  0
   -7.7631    3.2880   -0.0000 C   0  0  0  0  0  0  0  0  0  0  0  0
   -5.4009   -6.1725   -0.0000 C   0  0  0  0  0  0  0  0  0  0  0  0
   -6.6948   -3.9290   -0.0000 C   0  0  0  0  0  0  0  0  0  0  0  0
   -2.8132   -6.1725   -0.0000 C   0  0  0  0  0  0  0  0  0  0  0  0
   -1.5194   -3.9290   -0.0000 C   0  0  0  0  0  0  0  0  0  0  0  0
   -4.1189   -6.9084   -0.0000 C   0  0  0  0  0  0  0  0  0  0  0  0
  1  2  2  0  0  0  0
  1  3  1  0  0  0  0
  2  4  1  0  0  0  0
  2  5  1  0  0  0  0
  3  6  2  0  0  0  0
  3  7  1  0  0  0  0
  4  8  1  0  0  0  0
  5  9  1  0  0  0  0
  5 10  2  0  0  0  0
  6 11  1  0  0  0  0
  8 12  2  0  0  0  0
  9 13  1  0  0  0  0
 12 14  1  0  0  0  0
 13 15  1  0  0  0  0
 14 16  1  0  0  0  0
 14 17  1  0  0  0  0
 15 18  2  0  0  0  0
 15 19  1  0  0  0  0
 16 20  2  0  0  0  0
 17 21  2  0  0  0  0
 18 22  1  0  0  0  0
 18 23  1  0  0  0  0
 19 24  2  0  0  0  0
 19 25  1  0  0  0  0
 22 26  2  0  0  0  0
  4  6  1  0  0  0  0
 10 12  1  0  0  0  0
 20 21  1  0  0  0  0
 24 26  1  0  0  0  0
M  END
>  <MolRegNo>
501544

>  <m>
=

>  <Value>
2100

>  <Unit>
nM

>  <Type>
IC50

>  <pValue>
5.68

>  <Ligand Efficiency>
0

>  <Binding Efficiency>
0

>  <Surface Efficiency>
0

>  <Assay Index>
368753

>  <Assay Category>


>  <Assay Organism>


>  <Target ID>
17045

>  <Target Name>
Cytochrome P450 3A4

>  <Target Organism>
Homo sapiens

>  <Target Description>
Target is a single protein chain

>  <Sequence Accession>
P08684

>  <Reference>
Bioorg Med Chem Lett 19 (13), 3602-3606 (2009)

>  <Pubmed ID>
19467868

>  <DOI>
10.1016/j.bmcl.2009.04.127

$$$$
501543
Actelion Java MolfileCreator 1.0

 28 31  0  0  0  0  0  0  0  0999 V2000
    0.0000   -0.0000   -0.0000 O   0  0  0  0  0  0  0  0  0  0  0  0
   -1.3132   -0.7282   -0.0000 C   0  0  0  0  0  0  0  0  0  0  0  0
   -1.3371   -2.2205   -0.0000 N   0  0  0  0  0  0  0  0  0  0  0  0
   -2.6144    0.0358   -0.0000 C   0  0  0  0  0  0  0  0  0  0  0  0
   -0.0478   -2.9726   -0.0000 C   0  0  0  0  0  0  0  0  0  0  0  0
   -2.6502   -2.9606   -0.0000 C   0  0  0  0  0  0  0  0  0  0  0  0
   -3.9395   -0.6924   -0.0000 C   0  0  0  0  0  0  0  0  0  0  0  0
    1.2296   -2.2085   -0.0000 C   0  0  0  0  0  0  0  0  0  0  0  0
   -0.0597   -4.4648   -0.0000 C   0  0  0  0  0  0  0  0  0  0  0  0
   -3.9634   -2.1847   -0.0000 C   0  0  0  0  0  0  0  0  0  0  0  0
    2.5309   -2.9367   -0.0000 N   0  0  0  0  0  0  0  0  0  0  0  0
    1.2296   -5.2050   -0.0000 C   0  0  0  0  0  0  0  0  0  0  0  0
    2.5189   -4.4409   -0.0000 C   0  0  0  0  0  0  0  0  0  0  0  0
    3.9634   -2.4592   -0.0000 C   0  0  0  0  0  0  0  0  0  0  0  0
    1.2177   -6.6972   -0.0000 N   0  0  0  0  0  0  0  0  0  0  0  0
    3.9515   -4.8946   -0.0000 N   0  0  0  0  0  0  0  0  0  0  0  0
    4.8468   -3.6769   -0.0000 C   0  0  0  0  0  0  0  0  0  0  0  0
    4.4171   -1.0147   -0.0000 C   0  0  0  0  0  0  0  0  0  0  0  0
   -0.0955   -7.4374   -0.0000 C   0  0  0  0  0  0  0  0  0  0  0  0
    6.3391   -3.6650   -0.0000 C   0  0  0  0  0  0  0  0  0  0  0  0
   -0.1074   -8.9296   -0.0000 C   0  0  0  0  0  0  0  0  0  0  0  0
   -1.4206   -9.6578   -0.0000 C   0  0  0  0  0  0  0  0  0  0  0  0
    1.1819   -9.6578   -0.0000 C   0  0  0  0  0  0  0  0  0  0  0  0
   -1.4326  -11.1501   -0.0000 C   0  0  0  0  0  0  0  0  0  0  0  0
   -2.7338   -8.8938   -0.0000 C   0  0  0  0  0  0  0  0  0  0  0  0
    1.1699  -11.1501   -0.0000 C   0  0  0  0  0  0  0  0  0  0  0  0
    2.4712   -8.8938   -0.0000 C   0  0  0  0  0  0  0  0  0  0  0  0
   -0.1433  -11.8902   -0.0000 C   0  0  0  0  0  0  0  0  0  0  0  0
  1  2  2  0  0  0  0
  2  3  1  0  0  0  0
  2  4  1  0  0  0  0
  3  5  1  0  0  0  0
  3  6  1  0  0  0  0
  4  7  1  0  0  0  0
  5  8  2  0  0  0  0
  5  9  1  0  0  0  0
  6 10  1  0  0  0  0
  8 11  1  0  0  0  0
  9 12  2  0  0  0  0
 11 13  1  0  0  0  0
 11 14  1  0  0  0  0
 12 15  1  0  0  0  0
 13 16  2  0  0  0  0
 14 17  2  0  0  0  0
 14 18  1  0  0  0  0
 15 19  1  0  0  0  0
 17 20  1  0  0  0  0
 19 21  1  0  0  0  0
 21 22  2  0  0  0  0
 21 23  1  0  0  0  0
 22 24  1  0  0  0  0
 22 25  1  0  0  0  0
 23 26  2  0  0  0  0
 23 27  1  0  0  0  0
 24 28  2  0  0  0  0
  7 10  1  0  0  0  0
 12 13  1  0  0  0  0
 16 17  1  0  0  0  0
 26 28  1  0  0  0  0
M  END
>  <MolRegNo>
501543

>  <m>
=

>  <Value>
22000

>  <Unit>
nM

>  <Type>
IC50

>  <pValue>
4.66

>  <Ligand Efficiency>
0

>  <Binding Efficiency>
0

>  <Surface Efficiency>
0

>  <Assay Index>
368753

>  <Assay Category>


>  <Assay Organism>


>  <Target ID>
17045

>  <Target Name>
Cytochrome P450 3A4

>  <Target Organism>
Homo sapiens

>  <Target Description>
Target is a single protein chain

>  <Sequence Accession>
P08684

>  <Reference>
Bioorg Med Chem Lett 19 (13), 3602-3606 (2009)

>  <Pubmed ID>
19467868

>  <DOI>
10.1016/j.bmcl.2009.04.127

$$$$
501485
Actelion Java MolfileCreator 1.0

 29 32  0  0  0  0  0  0  0  0999 V2000
    0.0000   -0.0000   -0.0000 O   0  0  0  0  0  0  0  0  0  0  0  0
    1.2917   -0.7415   -0.0000 C   0  0  0  0  0  0  0  0  0  0  0  0
    2.5833    0.0239   -0.0000 N   0  0  0  0  0  0  0  0  0  0  0  0
    1.2797   -2.2365   -0.0000 N   0  0  0  0  0  0  0  0  0  0  0  0
    3.8750   -0.7176   -0.0000 C   0  0  0  0  0  0  0  0  0  0  0  0
    2.5714   -2.9899   -0.0000 C   0  0  0  0  0  0  0  0  0  0  0  0
    5.1666    0.0478   -0.0000 O   0  0  0  0  0  0  0  0  0  0  0  0
    3.8630   -2.2126   -0.0000 C   0  0  0  0  0  0  0  0  0  0  0  0
    5.1547   -2.9660   -0.0000 C   0  0  0  0  0  0  0  0  0  0  0  0
    6.4344   -2.2006   -0.0000 C   0  0  0  0  0  0  0  0  0  0  0  0
    5.1427   -4.4610   -0.0000 C   0  0  0  0  0  0  0  0  0  0  0  0
    7.7380   -2.9301   -0.0000 N   0  0  0  0  0  0  0  0  0  0  0  0
    6.4344   -5.2025   -0.0000 C   0  0  0  0  0  0  0  0  0  0  0  0
    7.7260   -4.4371   -0.0000 C   0  0  0  0  0  0  0  0  0  0  0  0
    9.1732   -2.4518   -0.0000 C   0  0  0  0  0  0  0  0  0  0  0  0
    6.4224   -6.6975   -0.0000 N   0  0  0  0  0  0  0  0  0  0  0  0
    9.1612   -4.8916   -0.0000 N   0  0  0  0  0  0  0  0  0  0  0  0
   10.0582   -3.6717   -0.0000 C   0  0  0  0  0  0  0  0  0  0  0  0
    9.6276   -1.0046   -0.0000 C   0  0  0  0  0  0  0  0  0  0  0  0
    5.1068   -7.4390   -0.0000 C   0  0  0  0  0  0  0  0  0  0  0  0
   11.5531   -3.6597   -0.0000 C   0  0  0  0  0  0  0  0  0  0  0  0
    5.0949   -8.9340   -0.0000 C   0  0  0  0  0  0  0  0  0  0  0  0
    3.7793   -9.6635   -0.0000 C   0  0  0  0  0  0  0  0  0  0  0  0
    6.3865   -9.6635   -0.0000 C   0  0  0  0  0  0  0  0  0  0  0  0
    3.7673  -11.1585   -0.0000 C   0  0  0  0  0  0  0  0  0  0  0  0
    2.4637   -8.8981   -0.0000 C   0  0  0  0  0  0  0  0  0  0  0  0
    6.3746  -11.1585   -0.0000 C   0  0  0  0  0  0  0  0  0  0  0  0
    7.6782   -8.8981   -0.0000 C   0  0  0  0  0  0  0  0  0  0  0  0
    5.0590  -11.9000   -0.0000 C   0  0  0  0  0  0  0  0  0  0  0  0
  1  2  2  0  0  0  0
  2  3  1  0  0  0  0
  2  4  1  0  0  0  0
  3  5  1  0  0  0  0
  4  6  1  0  0  0  0
  5  7  2  0  0  0  0
  5  8  1  0  0  0  0
  8  9  1  0  0  0  0
  9 10  2  0  0  0  0
  9 11  1  0  0  0  0
 10 12  1  0  0  0  0
 11 13  2  0  0  0  0
 12 14  1  0  0  0  0
 12 15  1  0  0  0  0
 13 16  1  0  0  0  0
 14 17  2  0  0  0  0
 15 18  2  0  0  0  0
 15 19  1  0  0  0  0
 16 20  1  0  0  0  0
 18 21  1  0  0  0  0
 20 22  1  0  0  0  0
 22 23  2  0  0  0  0
 22 24  1  0  0  0  0
 23 25  1  0  0  0  0
 23 26  1  0  0  0  0
 24 27  2  0  0  0  0
 24 28  1  0  0  0  0
 25 29  2  0  0  0  0
  6  8  2  0  0  0  0
 13 14  1  0  0  0  0
 17 18  1  0  0  0  0
 27 29  1  0  0  0  0
M  END
>  <MolRegNo>
501485

>  <m>
=

>  <Value>
2600

>  <Unit>
nM

>  <Type>
IC50

>  <pValue>
5.58

>  <Ligand Efficiency>
0

>  <Binding Efficiency>
0

>  <Surface Efficiency>
0

>  <Assay Index>
368753

>  <Assay Category>


>  <Assay Organism>


>  <Target ID>
17045

>  <Target Name>
Cytochrome P450 3A4

>  <Target Organism>
Homo sapiens

>  <Target Description>
Target is a single protein chain

>  <Sequence Accession>
P08684

>  <Reference>
Bioorg Med Chem Lett 19 (13), 3602-3606 (2009)

>  <Pubmed ID>
19467868

>  <DOI>
10.1016/j.bmcl.2009.04.127

$$$$
501484
Actelion Java MolfileCreator 1.0

 22 24  0  0  0  0  0  0  0  0999 V2000
    0.0000   -0.0000   -0.0000 N   0  0  0  0  0  0  0  0  0  0  0  0
   -1.4491    0.4751   -0.0000 C   0  0  0  0  0  0  0  0  0  0  0  0
    0.8789    1.2353   -0.0000 C   0  0  0  0  0  0  0  0  0  0  0  0
   -1.4609    1.9954   -0.0000 N   0  0  0  0  0  0  0  0  0  0  0  0
   -2.7556   -0.2613   -0.0000 C   0  0  0  0  0  0  0  0  0  0  0  0
   -0.0238    2.4705   -0.0000 C   0  0  0  0  0  0  0  0  0  0  0  0
    2.3636    1.2471   -0.0000 C   0  0  0  0  0  0  0  0  0  0  0  0
   -2.7794    2.7437   -0.0000 C   0  0  0  0  0  0  0  0  0  0  0  0
   -2.7675   -1.7460   -0.0000 N   0  0  0  0  0  0  0  0  0  0  0  0
   -4.0621    0.4989   -0.0000 C   0  0  0  0  0  0  0  0  0  0  0  0
    0.4276    3.9077   -0.0000 C   0  0  0  0  0  0  0  0  0  0  0  0
   -4.0740    2.0073   -0.0000 C   0  0  0  0  0  0  0  0  0  0  0  0
   -4.0740   -2.4824   -0.0000 C   0  0  0  0  0  0  0  0  0  0  0  0
   -4.0859   -3.9671   -0.0000 C   0  0  0  0  0  0  0  0  0  0  0  0
   -2.8031   -4.6916   -0.0000 C   0  0  0  0  0  0  0  0  0  0  0  0
   -5.3924   -4.6916   -0.0000 C   0  0  0  0  0  0  0  0  0  0  0  0
   -2.8150   -6.1763   -0.0000 C   0  0  0  0  0  0  0  0  0  0  0  0
   -1.5203   -3.9315   -0.0000 C   0  0  0  0  0  0  0  0  0  0  0  0
   -5.4043   -6.1763   -0.0000 C   0  0  0  0  0  0  0  0  0  0  0  0
   -6.6990   -3.9315   -0.0000 C   0  0  0  0  0  0  0  0  0  0  0  0
   -4.1334   -6.9246   -0.0000 C   0  0  0  0  0  0  0  0  0  0  0  0
   -0.2376   -4.6679   -0.0000 C   0  0  0  0  0  0  0  0  0  0  0  0
  1  2  2  0  0  0  0
  1  3  1  0  0  0  0
  2  4  1  0  0  0  0
  2  5  1  0  0  0  0
  3  6  2  0  0  0  0
  3  7  1  0  0  0  0
  4  8  1  0  0  0  0
  5  9  1  0  0  0  0
  5 10  2  0  0  0  0
  6 11  1  0  0  0  0
  8 12  2  0  0  0  0
  9 13  1  0  0  0  0
 13 14  1  0  0  0  0
 14 15  2  0  0  0  0
 14 16  1  0  0  0  0
 15 17  1  0  0  0  0
 15 18  1  0  0  0  0
 16 19  2  0  0  0  0
 16 20  1  0  0  0  0
 17 21  2  0  0  0  0
 18 22  1  0  0  0  0
  4  6  1  0  0  0  0
 10 12  1  0  0  0  0
 19 21  1  0  0  0  0
M  END
>  <MolRegNo>
501484

>  <m>
=

>  <Value>
6300

>  <Unit>
nM

>  <Type>
IC50

>  <pValue>
5.2

>  <Ligand Efficiency>
0

>  <Binding Efficiency>
0

>  <Surface Efficiency>
0

>  <Assay Index>
368753

>  <Assay Category>


>  <Assay Organism>


>  <Target ID>
17045

>  <Target Name>
Cytochrome P450 3A4

>  <Target Organism>
Homo sapiens

>  <Target Description>
Target is a single protein chain

>  <Sequence Accession>
P08684

>  <Reference>
Bioorg Med Chem Lett 19 (13), 3602-3606 (2009)

>  <Pubmed ID>
19467868

>  <DOI>
10.1016/j.bmcl.2009.04.127

$$$$
501483
Actelion Java MolfileCreator 1.0

 27 29  0  0  0  0  0  0  0  0999 V2000
    0.0000   -0.0000   -0.0000 O   0  0  0  0  0  0  0  0  0  0  0  0
   -0.0118   -1.4904   -0.0000 C   0  0  0  0  0  0  0  0  0  0  0  0
    1.2775   -2.2238   -0.0000 N   0  0  0  0  0  0  0  0  0  0  0  0
   -1.3248   -2.2238   -0.0000 C   0  0  0  0  0  0  0  0  0  0  0  0
    2.5669   -1.4668   -0.0000 C   0  0  0  0  0  0  0  0  0  0  0  0
   -2.6379   -1.4668   -0.0000 C   0  0  0  0  0  0  0  0  0  0  0  0
   -1.3367   -3.7143   -0.0000 C   0  0  0  0  0  0  0  0  0  0  0  0
    3.8562   -2.2002   -0.0000 C   0  0  0  0  0  0  0  0  0  0  0  0
   -3.9509   -2.2002   -0.0000 N   0  0  0  0  0  0  0  0  0  0  0  0
   -2.6497   -4.4477   -0.0000 C   0  0  0  0  0  0  0  0  0  0  0  0
    5.1456   -1.4431   -0.0000 O   0  0  0  0  0  0  0  0  0  0  0  0
   -3.9627   -3.6906   -0.0000 C   0  0  0  0  0  0  0  0  0  0  0  0
   -5.3940   -1.7270   -0.0000 C   0  0  0  0  0  0  0  0  0  0  0  0
   -2.6615   -5.9381   -0.0000 N   0  0  0  0  0  0  0  0  0  0  0  0
   -5.4058   -4.1401   -0.0000 N   0  0  0  0  0  0  0  0  0  0  0  0
   -6.2930   -2.9336   -0.0000 C   0  0  0  0  0  0  0  0  0  0  0  0
   -5.8672   -0.2839   -0.0000 C   0  0  0  0  0  0  0  0  0  0  0  0
   -3.9745   -6.6715   -0.0000 C   0  0  0  0  0  0  0  0  0  0  0  0
   -7.8071   -2.9217   -0.0000 C   0  0  0  0  0  0  0  0  0  0  0  0
   -3.9864   -8.1620   -0.0000 C   0  0  0  0  0  0  0  0  0  0  0  0
   -2.6970   -8.8954   -0.0000 C   0  0  0  0  0  0  0  0  0  0  0  0
   -5.2994   -8.8954   -0.0000 C   0  0  0  0  0  0  0  0  0  0  0  0
   -2.7088  -10.3858   -0.0000 C   0  0  0  0  0  0  0  0  0  0  0  0
   -1.4076   -8.1383   -0.0000 C   0  0  0  0  0  0  0  0  0  0  0  0
   -5.3112  -10.3858   -0.0000 C   0  0  0  0  0  0  0  0  0  0  0  0
   -6.6124   -8.1383   -0.0000 C   0  0  0  0  0  0  0  0  0  0  0  0
   -4.0218  -11.1310   -0.0000 C   0  0  0  0  0  0  0  0  0  0  0  0
  1  2  2  0  0  0  0
  2  3  1  0  0  0  0
  2  4  1  0  0  0  0
  3  5  1  0  0  0  0
  4  6  2  0  0  0  0
  4  7  1  0  0  0  0
  5  8  1  0  0  0  0
  6  9  1  0  0  0  0
  7 10  2  0  0  0  0
  8 11  1  0  0  0  0
  9 12  1  0  0  0  0
  9 13  1  0  0  0  0
 10 14  1  0  0  0  0
 12 15  2  0  0  0  0
 13 16  2  0  0  0  0
 13 17  1  0  0  0  0
 14 18  1  0  0  0  0
 16 19  1  0  0  0  0
 18 20  1  0  0  0  0
 20 21  2  0  0  0  0
 20 22  1  0  0  0  0
 21 23  1  0  0  0  0
 21 24  1  0  0  0  0
 22 25  2  0  0  0  0
 22 26  1  0  0  0  0
 23 27  2  0  0  0  0
 10 12  1  0  0  0  0
 15 16  1  0  0  0  0
 25 27  1  0  0  0  0
M  END
>  <MolRegNo>
501483

>  <m>
=

>  <Value>
14000

>  <Unit>
nM

>  <Type>
IC50

>  <pValue>
4.85

>  <Ligand Efficiency>
0

>  <Binding Efficiency>
0

>  <Surface Efficiency>
0

>  <Assay Index>
368753

>  <Assay Category>


>  <Assay Organism>


>  <Target ID>
17045

>  <Target Name>
Cytochrome P450 3A4

>  <Target Organism>
Homo sapiens

>  <Target Description>
Target is a single protein chain

>  <Sequence Accession>
P08684

>  <Reference>
Bioorg Med Chem Lett 19 (13), 3602-3606 (2009)

>  <Pubmed ID>
19467868

>  <DOI>
10.1016/j.bmcl.2009.04.127

$$$$
401012
Actelion Java MolfileCreator 1.0

 25 27  0  0  0  0  0  0  0  0999 V2000
    0.0000   -0.0000   -0.0000 O   0  0  0  0  0  0  0  0  0  0  0  0
   -0.0120   -1.4952   -0.0000 C   0  0  0  0  0  0  0  0  0  0  0  0
   -1.3278   -2.2369   -0.0000 N   0  0  0  0  0  0  0  0  0  0  0  0
    1.2799   -2.2369   -0.0000 C   0  0  0  0  0  0  0  0  0  0  0  0
    2.5718   -1.4713   -0.0000 C   0  0  0  0  0  0  0  0  0  0  0  0
    1.2680   -3.7321   -0.0000 C   0  0  0  0  0  0  0  0  0  0  0  0
    3.8637   -2.2010   -0.0000 N   0  0  0  0  0  0  0  0  0  0  0  0
    2.5599   -4.4738   -0.0000 C   0  0  0  0  0  0  0  0  0  0  0  0
    3.8518   -3.7082   -0.0000 C   0  0  0  0  0  0  0  0  0  0  0  0
    5.2991   -1.7225   -0.0000 C   0  0  0  0  0  0  0  0  0  0  0  0
    2.5479   -5.9690   -0.0000 N   0  0  0  0  0  0  0  0  0  0  0  0
    5.2872   -4.1628   -0.0000 N   0  0  0  0  0  0  0  0  0  0  0  0
    6.1843   -2.9307   -0.0000 C   0  0  0  0  0  0  0  0  0  0  0  0
    5.7417   -0.2751   -0.0000 C   0  0  0  0  0  0  0  0  0  0  0  0
    1.2321   -6.7107   -0.0000 C   0  0  0  0  0  0  0  0  0  0  0  0
    7.6796   -2.9068   -0.0000 C   0  0  0  0  0  0  0  0  0  0  0  0
    1.2201   -8.2059   -0.0000 C   0  0  0  0  0  0  0  0  0  0  0  0
    2.5120   -8.9356   -0.0000 C   0  0  0  0  0  0  0  0  0  0  0  0
   -0.0957   -8.9356   -0.0000 C   0  0  0  0  0  0  0  0  0  0  0  0
    2.5001  -10.4189   -0.0000 C   0  0  0  0  0  0  0  0  0  0  0  0
    3.8039   -8.1700   -0.0000 C   0  0  0  0  0  0  0  0  0  0  0  0
   -0.1077  -10.4308   -0.0000 C   0  0  0  0  0  0  0  0  0  0  0  0
   -1.4115   -8.1700   -0.0000 C   0  0  0  0  0  0  0  0  0  0  0  0
    1.1842  -11.1605   -0.0000 C   0  0  0  0  0  0  0  0  0  0  0  0
    5.0958   -8.9117   -0.0000 C   0  0  0  0  0  0  0  0  0  0  0  0
  1  2  2  0  0  0  0
  2  3  1  0  0  0  0
  2  4  1  0  0  0  0
  4  5  2  0  0  0  0
  4  6  1  0  0  0  0
  5  7  1  0  0  0  0
  6  8  2  0  0  0  0
  7  9  1  0  0  0  0
  7 10  1  0  0  0  0
  8 11  1  0  0  0  0
  9 12  2  0  0  0  0
 10 13  2  0  0  0  0
 10 14  1  0  0  0  0
 11 15  1  0  0  0  0
 13 16  1  0  0  0  0
 15 17  1  0  0  0  0
 17 18  2  0  0  0  0
 17 19  1  0  0  0  0
 18 20  1  0  0  0  0
 18 21  1  0  0  0  0
 19 22  2  0  0  0  0
 19 23  1  0  0  0  0
 20 24  2  0  0  0  0
 21 25  1  0  0  0  0
  8  9  1  0  0  0  0
 12 13  1  0  0  0  0
 22 24  1  0  0  0  0
M  END
>  <MolRegNo>
401012

>  <m>
=

>  <Value>
3900

>  <Unit>
nM

>  <Type>
IC50

>  <pValue>
5.41

>  <Ligand Efficiency>
0

>  <Binding Efficiency>
0

>  <Surface Efficiency>
0

>  <Assay Index>
368753

>  <Assay Category>


>  <Assay Organism>


>  <Target ID>
17045

>  <Target Name>
Cytochrome P450 3A4

>  <Target Organism>
Homo sapiens

>  <Target Description>
Target is a single protein chain

>  <Sequence Accession>
P08684

>  <Reference>
Bioorg Med Chem Lett 19 (13), 3602-3606 (2009)

>  <Pubmed ID>
19467868

>  <DOI>
10.1016/j.bmcl.2009.04.127

$$$$
501958
Actelion Java MolfileCreator 1.0

 28 32  0  0  0  0  0  0  0  0999 V2000
    0.0000   -0.0000   -0.0000 O   0  0  0  0  0  0  0  0  0  0  0  0
   -1.3199   -0.7373   -0.0000 C   0  0  0  0  0  0  0  0  0  0  0  0
   -1.3437   -2.2356   -0.0000 N   0  0  0  0  0  0  0  0  0  0  0  0
   -2.6280    0.0357   -0.0000 C   0  0  0  0  0  0  0  0  0  0  0  0
   -0.0595   -2.9847   -0.0000 C   0  0  0  0  0  0  0  0  0  0  0  0
   -2.6636   -2.9728   -0.0000 C   0  0  0  0  0  0  0  0  0  0  0  0
   -3.9479   -0.6897   -0.0000 C   0  0  0  0  0  0  0  0  0  0  0  0
   -0.0713   -4.4830   -0.0000 C   0  0  0  0  0  0  0  0  0  0  0  0
    1.2248   -2.2237   -0.0000 C   0  0  0  0  0  0  0  0  0  0  0  0
   -3.9717   -2.1880   -0.0000 C   0  0  0  0  0  0  0  0  0  0  0  0
    1.2129   -5.2203   -0.0000 C   0  0  0  0  0  0  0  0  0  0  0  0
   -1.3794   -5.2084   -0.0000 C   0  0  0  0  0  0  0  0  0  0  0  0
    2.5209   -2.9609   -0.0000 N   0  0  0  0  0  0  0  0  0  0  0  0
    1.2010   -6.7067   -0.0000 N   0  0  0  0  0  0  0  0  0  0  0  0
    2.5091   -4.4592   -0.0000 C   0  0  0  0  0  0  0  0  0  0  0  0
   -1.4032   -6.6948   -0.0000 C   0  0  0  0  0  0  0  0  0  0  0  0
    3.9479   -2.4734   -0.0000 C   0  0  0  0  0  0  0  0  0  0  0  0
   -0.1189   -7.4439   -0.0000 C   0  0  0  0  0  0  0  0  0  0  0  0
    3.9360   -4.9111   -0.0000 N   0  0  0  0  0  0  0  0  0  0  0  0
    4.8278   -3.6863   -0.0000 C   0  0  0  0  0  0  0  0  0  0  0  0
    4.3998   -1.0345   -0.0000 C   0  0  0  0  0  0  0  0  0  0  0  0
   -0.1427   -8.9303   -0.0000 C   0  0  0  0  0  0  0  0  0  0  0  0
    6.3261   -3.6744   -0.0000 C   0  0  0  0  0  0  0  0  0  0  0  0
   -1.4626   -9.6676   -0.0000 C   0  0  0  0  0  0  0  0  0  0  0  0
    1.1416   -9.6676   -0.0000 C   0  0  0  0  0  0  0  0  0  0  0  0
   -1.4864  -11.1659   -0.0000 C   0  0  0  0  0  0  0  0  0  0  0  0
    1.1297  -11.1540   -0.0000 C   0  0  0  0  0  0  0  0  0  0  0  0
   -0.2022  -11.9150   -0.0000 C   0  0  0  0  0  0  0  0  0  0  0  0
  1  2  2  0  0  0  0
  2  3  1  0  0  0  0
  2  4  1  0  0  0  0
  3  5  1  0  0  0  0
  3  6  1  0  0  0  0
  4  7  2  0  0  0  0
  5  8  1  0  0  0  0
  5  9  2  0  0  0  0
  6 10  2  0  0  0  0
  8 11  2  0  0  0  0
  8 12  1  0  0  0  0
  9 13  1  0  0  0  0
 11 14  1  0  0  0  0
 11 15  1  0  0  0  0
 12 16  1  0  0  0  0
 13 17  1  0  0  0  0
 14 18  1  0  0  0  0
 15 19  2  0  0  0  0
 17 20  2  0  0  0  0
 17 21  1  0  0  0  0
 18 22  1  6  0  0  0
 20 23  1  0  0  0  0
 22 24  2  0  0  0  0
 22 25  1  0  0  0  0
 24 26  1  0  0  0  0
 25 27  2  0  0  0  0
 26 28  2  0  0  0  0
  7 10  1  0  0  0  0
 13 15  1  0  0  0  0
 16 18  1  0  0  0  0
 19 20  1  0  0  0  0
 27 28  1  0  0  0  0
M  END
>  <MolRegNo>
501958

>  <m>
=

>  <Value>
7700

>  <Unit>
nM

>  <Type>
IC50

>  <pValue>
5.11

>  <Ligand Efficiency>
0

>  <Binding Efficiency>
0

>  <Surface Efficiency>
0

>  <Assay Index>
368752

>  <Assay Category>


>  <Assay Organism>


>  <Target ID>
17045

>  <Target Name>
Cytochrome P450 3A4

>  <Target Organism>
Homo sapiens

>  <Target Description>
Target is a single protein chain

>  <Sequence Accession>
P08684

>  <Reference>
Bioorg Med Chem Lett 19 (13), 3602-3606 (2009)

>  <Pubmed ID>
19467868

>  <DOI>
10.1016/j.bmcl.2009.04.127

$$$$
501956
Actelion Java MolfileCreator 1.0

 29 33  0  0  0  0  0  0  0  0999 V2000
    0.0000   -0.0000   -0.0000 O   0  0  0  0  0  0  0  0  0  0  0  0
   -1.3128   -0.7280   -0.0000 C   0  0  0  0  0  0  0  0  0  0  0  0
   -1.3367   -2.2198   -0.0000 N   0  0  0  0  0  0  0  0  0  0  0  0
   -2.6136    0.0477   -0.0000 C   0  0  0  0  0  0  0  0  0  0  0  0
   -0.0477   -2.9717   -0.0000 C   0  0  0  0  0  0  0  0  0  0  0  0
   -2.6494   -2.9597   -0.0000 C   0  0  0  0  0  0  0  0  0  0  0  0
   -3.9384   -0.6803   -0.0000 C   0  0  0  0  0  0  0  0  0  0  0  0
    1.2292   -2.2079   -0.0000 C   0  0  0  0  0  0  0  0  0  0  0  0
   -0.0597   -4.4635   -0.0000 C   0  0  0  0  0  0  0  0  0  0  0  0
   -3.9622   -2.1840   -0.0000 C   0  0  0  0  0  0  0  0  0  0  0  0
    2.5301   -2.9359   -0.0000 N   0  0  0  0  0  0  0  0  0  0  0  0
    1.2292   -5.2034   -0.0000 C   0  0  0  0  0  0  0  0  0  0  0  0
    2.5182   -4.4396   -0.0000 C   0  0  0  0  0  0  0  0  0  0  0  0
    3.9622   -2.4585   -0.0000 C   0  0  0  0  0  0  0  0  0  0  0  0
    1.2173   -6.6952   -0.0000 N   0  0  0  0  0  0  0  0  0  0  0  0
    3.9503   -4.8931   -0.0000 N   0  0  0  0  0  0  0  0  0  0  0  0
    4.8454   -3.6758   -0.0000 C   0  0  0  0  0  0  0  0  0  0  0  0
    4.4157   -1.0144   -0.0000 C   0  0  0  0  0  0  0  0  0  0  0  0
   -0.0955   -7.4352   -0.0000 C   0  0  0  0  0  0  0  0  0  0  0  0
    6.3372   -3.6639   -0.0000 C   0  0  0  0  0  0  0  0  0  0  0  0
   -0.2626   -8.9270   -0.0000 C   0  0  0  0  0  0  0  0  0  0  0  0
   -1.4799   -6.8146   -0.0000 C   0  0  0  0  0  0  0  0  0  0  0  0
   -1.7424   -9.2134   -0.0000 C   0  0  0  0  0  0  0  0  0  0  0  0
    0.7161  -10.0249   -0.0000 C   0  0  0  0  0  0  0  0  0  0  0  0
   -1.8021   -5.3347   -0.0000 O   0  0  0  0  0  0  0  0  0  0  0  0
   -2.4943   -7.9245   -0.0000 C   0  0  0  0  0  0  0  0  0  0  0  0
   -2.2198  -10.6216   -0.0000 C   0  0  0  0  0  0  0  0  0  0  0  0
    0.2506  -11.4332   -0.0000 C   0  0  0  0  0  0  0  0  0  0  0  0
   -1.2292  -11.7196   -0.0000 C   0  0  0  0  0  0  0  0  0  0  0  0
  1  2  2  0  0  0  0
  2  3  1  0  0  0  0
  2  4  1  0  0  0  0
  3  5  1  0  0  0  0
  3  6  1  0  0  0  0
  4  7  2  0  0  0  0
  5  8  2  0  0  0  0
  5  9  1  0  0  0  0
  6 10  2  0  0  0  0
  8 11  1  0  0  0  0
  9 12  2  0  0  0  0
 11 13  1  0  0  0  0
 11 14  1  0  0  0  0
 12 15  1  0  0  0  0
 13 16  2  0  0  0  0
 14 17  2  0  0  0  0
 14 18  1  0  0  0  0
 19 15  1  6  0  0  0
 17 20  1  0  0  0  0
 19 21  1  0  0  0  0
 19 22  1  0  0  0  0
 21 23  2  0  0  0  0
 21 24  1  0  0  0  0
 22 25  1  1  0  0  0
 22 26  1  0  0  0  0
 23 27  1  0  0  0  0
 24 28  2  0  0  0  0
 27 29  2  0  0  0  0
  7 10  1  0  0  0  0
 12 13  1  0  0  0  0
 16 17  1  0  0  0  0
 23 26  1  0  0  0  0
 28 29  1  0  0  0  0
M  END
>  <MolRegNo>
501956

>  <m>
=

>  <Value>
62000

>  <Unit>
nM

>  <Type>
IC50

>  <pValue>
4.21

>  <Ligand Efficiency>
0

>  <Binding Efficiency>
0

>  <Surface Efficiency>
0

>  <Assay Index>
368752

>  <Assay Category>


>  <Assay Organism>


>  <Target ID>
17045

>  <Target Name>
Cytochrome P450 3A4

>  <Target Organism>
Homo sapiens

>  <Target Description>
Target is a single protein chain

>  <Sequence Accession>
P08684

>  <Reference>
Bioorg Med Chem Lett 19 (13), 3602-3606 (2009)

>  <Pubmed ID>
19467868

>  <DOI>
10.1016/j.bmcl.2009.04.127

$$$$
480623
Actelion Java MolfileCreator 1.0

 22 24  0  0  0  0  0  0  0  0999 V2000
    0.0000   -0.0000   -0.0000 O   0  0  0  0  0  0  0  0  0  0  0  0
   -0.0118   -1.4888   -0.0000 C   0  0  0  0  0  0  0  0  0  0  0  0
   -1.0870   -2.5403   -0.0000 C   0  0  0  0  0  0  0  0  0  0  0  0
    1.0398   -2.5403   -0.0000 C   0  0  0  0  0  0  0  0  0  0  0  0
   -2.5994   -2.5285   -0.0000 N   0  0  0  0  0  0  0  0  0  0  0  0
   -0.0354   -3.5919   -0.0000 C   0  0  0  0  0  0  0  0  0  0  0  0
    2.5285   -2.5285   -0.0000 O   0  0  0  0  0  0  0  0  0  0  0  0
   -3.3556   -1.2170   -0.0000 C   0  0  0  0  0  0  0  0  0  0  0  0
   -0.0473   -5.0807   -0.0000 N   0  0  0  0  0  0  0  0  0  0  0  0
   -4.8680   -1.2052   -0.0000 C   0  0  0  0  0  0  0  0  0  0  0  0
   -2.6112    0.0945   -0.0000 C   0  0  0  0  0  0  0  0  0  0  0  0
    1.2406   -5.8250   -0.0000 C   0  0  0  0  0  0  0  0  0  0  0  0
   -5.6360    0.1063   -0.0000 C   0  0  0  0  0  0  0  0  0  0  0  0
   -3.3674    1.4060   -0.0000 C   0  0  0  0  0  0  0  0  0  0  0  0
    1.2288   -7.3138   -0.0000 C   0  0  0  0  0  0  0  0  0  0  0  0
    2.5285   -5.0688   -0.0000 C   0  0  0  0  0  0  0  0  0  0  0  0
   -4.8916    1.4179   -0.0000 N   0  0  0  0  0  0  0  0  0  0  0  0
    2.5167   -8.0582   -0.0000 C   0  0  0  0  0  0  0  0  0  0  0  0
   -0.0827   -8.0582   -0.0000 C   0  0  0  0  0  0  0  0  0  0  0  0
    2.5049   -9.5469   -0.0000 C   0  0  0  0  0  0  0  0  0  0  0  0
   -0.0945   -9.5469   -0.0000 C   0  0  0  0  0  0  0  0  0  0  0  0
    1.1934  -10.2913   -0.0000 C   0  0  0  0  0  0  0  0  0  0  0  0
  1  2  2  0  0  0  0
  2  3  1  0  0  0  0
  2  4  1  0  0  0  0
  3  5  1  0  0  0  0
  3  6  2  0  0  0  0
  4  7  2  0  0  0  0
  5  8  1  0  0  0  0
  6  9  1  0  0  0  0
  8 10  2  0  0  0  0
  8 11  1  0  0  0  0
 12  9  1  1  0  0  0
 10 13  1  0  0  0  0
 11 14  2  0  0  0  0
 12 15  1  0  0  0  0
 12 16  1  0  0  0  0
 13 17  2  0  0  0  0
 15 18  2  0  0  0  0
 15 19  1  0  0  0  0
 18 20  1  0  0  0  0
 19 21  2  0  0  0  0
 20 22  2  0  0  0  0
  4  6  1  0  0  0  0
 14 17  1  0  0  0  0
 21 22  1  0  0  0  0
M  END
>  <MolRegNo>
480623

>  <m>
=

>  <Value>
1300

>  <Unit>
nM

>  <Type>
IC50

>  <pValue>
5.89

>  <Ligand Efficiency>
0

>  <Binding Efficiency>
0

>  <Surface Efficiency>
0

>  <Assay Index>
347989

>  <Assay Category>


>  <Assay Organism>


>  <Target ID>
17045

>  <Target Name>
Cytochrome P450 3A4

>  <Target Organism>
Homo sapiens

>  <Target Description>
Target is a single protein chain

>  <Sequence Accession>
P08684

>  <Reference>
Bioorg Med Chem 17 (9), 3342-3351 (2009)

>  <Pubmed ID>
19364658

>  <DOI>
10.1016/j.bmc.2009.03.041

$$$$
480861
Actelion Java MolfileCreator 1.0

 24 26  0  0  0  0  0  0  0  0999 V2000
    0.0000   -0.0000   -0.0000 O   0  0  0  0  0  0  0  0  0  0  0  0
    1.0481   -1.0481   -0.0000 C   0  0  0  0  0  0  0  0  0  0  0  0
    1.0362   -2.5369   -0.0000 C   0  0  0  0  0  0  0  0  0  0  0  0
    2.5369   -1.0362   -0.0000 C   0  0  0  0  0  0  0  0  0  0  0  0
   -0.0357   -3.5850   -0.0000 N   0  0  0  0  0  0  0  0  0  0  0  0
    2.5250   -2.5250   -0.0000 C   0  0  0  0  0  0  0  0  0  0  0  0
    3.5850    0.0357   -0.0000 O   0  0  0  0  0  0  0  0  0  0  0  0
   -1.5602   -3.5731   -0.0000 C   0  0  0  0  0  0  0  0  0  0  0  0
    3.5731   -3.5731   -0.0000 N   0  0  0  0  0  0  0  0  0  0  0  0
   -2.3225   -2.2510   -0.0000 C   0  0  0  0  0  0  0  0  0  0  0  0
   -2.3225   -4.8594   -0.0000 C   0  0  0  0  0  0  0  0  0  0  0  0
    5.0619   -3.5612   -0.0000 C   0  0  0  0  0  0  0  0  0  0  0  0
   -3.8470   -2.2391   -0.0000 C   0  0  0  0  0  0  0  0  0  0  0  0
   -3.8470   -4.8475   -0.0000 C   0  0  0  0  0  0  0  0  0  0  0  0
    5.8003   -4.8475   -0.0000 C   0  0  0  0  0  0  0  0  0  0  0  0
    5.8003   -2.2391   -0.0000 C   0  0  0  0  0  0  0  0  0  0  0  0
   -4.6212   -3.5373   -0.0000 N   0  0  0  0  0  0  0  0  0  0  0  0
    5.0380   -6.1338   -0.0000 C   0  0  0  0  0  0  0  0  0  0  0  0
    7.2891   -4.8237   -0.0000 C   0  0  0  0  0  0  0  0  0  0  0  0
    5.0380   -0.9290   -0.0000 O   0  0  0  0  0  0  0  0  0  0  0  0
    7.2891   -2.2272   -0.0000 N   0  0  0  0  0  0  0  0  0  0  0  0
    5.7765   -7.4201   -0.0000 C   0  0  0  0  0  0  0  0  0  0  0  0
    8.0394   -6.1100   -0.0000 C   0  0  0  0  0  0  0  0  0  0  0  0
    7.2772   -7.4082   -0.0000 C   0  0  0  0  0  0  0  0  0  0  0  0
  1  2  2  0  0  0  0
  2  3  1  0  0  0  0
  2  4  1  0  0  0  0
  3  5  1  0  0  0  0
  3  6  2  0  0  0  0
  4  7  2  0  0  0  0
  5  8  1  0  0  0  0
  6  9  1  0  0  0  0
  8 10  2  0  0  0  0
  8 11  1  0  0  0  0
  9 12  1  0  0  0  0
 10 13  1  0  0  0  0
 11 14  2  0  0  0  0
 12 15  1  0  0  0  0
 12 16  1  0  0  0  0
 13 17  2  0  0  0  0
 15 18  2  0  0  0  0
 15 19  1  0  0  0  0
 16 20  2  0  0  0  0
 16 21  1  0  0  0  0
 18 22  1  0  0  0  0
 19 23  2  0  0  0  0
 22 24  2  0  0  0  0
  4  6  1  0  0  0  0
 14 17  1  0  0  0  0
 23 24  1  0  0  0  0
M  END
>  <MolRegNo>
480861

>  <m>
=

>  <Value>
8600

>  <Unit>
nM

>  <Type>
IC50

>  <pValue>
5.07

>  <Ligand Efficiency>
0

>  <Binding Efficiency>
0

>  <Surface Efficiency>
0

>  <Assay Index>
347989

>  <Assay Category>


>  <Assay Organism>


>  <Target ID>
17045

>  <Target Name>
Cytochrome P450 3A4

>  <Target Organism>
Homo sapiens

>  <Target Description>
Target is a single protein chain

>  <Sequence Accession>
P08684

>  <Reference>
Bioorg Med Chem 17 (9), 3342-3351 (2009)

>  <Pubmed ID>
19364658

>  <DOI>
10.1016/j.bmc.2009.03.041

$$$$
481008
Actelion Java MolfileCreator 1.0

 21 23  0  0  0  0  0  0  0  0999 V2000
    0.0000   -0.0000   -0.0000 O   0  0  0  0  0  0  0  0  0  0  0  0
    1.0483   -1.0483   -0.0000 C   0  0  0  0  0  0  0  0  0  0  0  0
    1.0363   -2.5373   -0.0000 C   0  0  0  0  0  0  0  0  0  0  0  0
    2.5373   -1.0363   -0.0000 C   0  0  0  0  0  0  0  0  0  0  0  0
   -0.0357   -3.5855   -0.0000 N   0  0  0  0  0  0  0  0  0  0  0  0
    2.5253   -2.5253   -0.0000 C   0  0  0  0  0  0  0  0  0  0  0  0
    3.5855    0.0357   -0.0000 O   0  0  0  0  0  0  0  0  0  0  0  0
   -1.5605   -3.5736   -0.0000 C   0  0  0  0  0  0  0  0  0  0  0  0
    3.5736   -3.5736   -0.0000 N   0  0  0  0  0  0  0  0  0  0  0  0
   -2.4658   -2.3467   -0.0000 N   0  0  0  0  0  0  0  0  0  0  0  0
   -2.4658   -4.7886   -0.0000 C   0  0  0  0  0  0  0  0  0  0  0  0
    5.0626   -3.5617   -0.0000 C   0  0  0  0  0  0  0  0  0  0  0  0
   -3.9190   -2.7993   -0.0000 N   0  0  0  0  0  0  0  0  0  0  0  0
   -3.9190   -4.3121   -0.0000 C   0  0  0  0  0  0  0  0  0  0  0  0
    5.8011   -4.8482   -0.0000 C   0  0  0  0  0  0  0  0  0  0  0  0
    5.8011   -2.2395   -0.0000 C   0  0  0  0  0  0  0  0  0  0  0  0
    5.0388   -6.1347   -0.0000 C   0  0  0  0  0  0  0  0  0  0  0  0
    7.2901   -4.8244   -0.0000 C   0  0  0  0  0  0  0  0  0  0  0  0
    5.7773   -7.4212   -0.0000 C   0  0  0  0  0  0  0  0  0  0  0  0
    8.0406   -6.1109   -0.0000 C   0  0  0  0  0  0  0  0  0  0  0  0
    7.2782   -7.4093   -0.0000 C   0  0  0  0  0  0  0  0  0  0  0  0
  1  2  2  0  0  0  0
  2  3  1  0  0  0  0
  2  4  1  0  0  0  0
  3  5  1  0  0  0  0
  3  6  2  0  0  0  0
  4  7  2  0  0  0  0
  5  8  1  0  0  0  0
  6  9  1  0  0  0  0
  8 10  1  0  0  0  0
  8 11  2  0  0  0  0
 12  9  1  1  0  0  0
 10 13  1  0  0  0  0
 11 14  1  0  0  0  0
 12 15  1  0  0  0  0
 12 16  1  0  0  0  0
 15 17  2  0  0  0  0
 15 18  1  0  0  0  0
 17 19  1  0  0  0  0
 18 20  2  0  0  0  0
 19 21  2  0  0  0  0
  4  6  1  0  0  0  0
 13 14  2  0  0  0  0
 20 21  1  0  0  0  0
M  END
>  <MolRegNo>
481008

>  <m>
=

>  <Value>
40000

>  <Unit>
nM

>  <Type>
IC50

>  <pValue>
4.4

>  <Ligand Efficiency>
0

>  <Binding Efficiency>
0

>  <Surface Efficiency>
0

>  <Assay Index>
347989

>  <Assay Category>


>  <Assay Organism>


>  <Target ID>
17045

>  <Target Name>
Cytochrome P450 3A4

>  <Target Organism>
Homo sapiens

>  <Target Description>
Target is a single protein chain

>  <Sequence Accession>
P08684

>  <Reference>
Bioorg Med Chem 17 (9), 3342-3351 (2009)

>  <Pubmed ID>
19364658

>  <DOI>
10.1016/j.bmc.2009.03.041

$$$$
564907
Actelion Java MolfileCreator 1.0

 38 42  0  0  0  0  0  0  0  0999 V2000
    0.0000   -0.0000   -0.0000 Cl  0  0  0  0  0  0  0  0  0  0  0  0
    1.4205    0.4735   -0.0000 C   0  0  0  0  0  0  0  0  0  0  0  0
    1.8703    1.9177   -0.0000 S   0  0  0  0  0  0  0  0  0  0  0  0
    2.6280   -0.4025   -0.0000 C   0  0  0  0  0  0  0  0  0  0  0  0
    3.3619    1.9295   -0.0000 C   0  0  0  0  0  0  0  0  0  0  0  0
    3.8354    0.4972   -0.0000 N   0  0  0  0  0  0  0  0  0  0  0  0
    2.6161   -1.8940   -0.0000 C   0  0  0  0  0  0  0  0  0  0  0  0
    3.9064   -2.6280   -0.0000 C   0  0  0  0  0  0  0  0  0  0  0  0
    1.3021   -2.6280   -0.0000 C   0  0  0  0  0  0  0  0  0  0  0  0
    3.8946   -4.1195   -0.0000 C   0  0  0  0  0  0  0  0  0  0  0  0
    5.1967   -1.8703   -0.0000 C   0  0  0  0  0  0  0  0  0  0  0  0
    1.2903   -4.1195   -0.0000 C   0  0  0  0  0  0  0  0  0  0  0  0
    2.5806   -4.8653   -0.0000 N   0  0  0  0  0  0  0  0  0  0  0  0
    5.1849   -4.8653   -0.0000 C   0  0  0  0  0  0  0  0  0  0  0  0
    6.4870   -2.6043   -0.0000 C   0  0  0  0  0  0  0  0  0  0  0  0
   -0.0237   -4.8653   -0.0000 C   0  0  0  0  0  0  0  0  0  0  0  0
    5.1730   -6.3568   -0.0000 O   0  0  0  0  0  0  0  0  0  0  0  0
    6.4752   -4.1077   -0.0000 C   0  0  0  0  0  0  0  0  0  0  0  0
    3.8591   -7.0907   -0.0000 C   0  0  0  0  0  0  0  0  0  0  0  0
    3.8472   -8.5823   -0.0000 C   0  0  0  0  0  0  0  0  0  0  0  0
    2.5333   -9.3162   -0.0000 C   0  0  0  0  0  0  0  0  0  0  0  0
    5.1375   -9.3162   -0.0000 C   0  0  0  0  0  0  0  0  0  0  0  0
    2.5214  -10.8078   -0.0000 N   0  0  0  0  0  0  0  0  0  0  0  0
    1.2193   -8.5586   -0.0000 C   0  0  0  0  0  0  0  0  0  0  0  0
    5.1257  -10.8078   -0.0000 C   0  0  0  0  0  0  0  0  0  0  0  0
    6.4278   -8.5586   -0.0000 C   0  0  0  0  0  0  0  0  0  0  0  0
    3.8117  -11.5417   -0.0000 C   0  0  0  0  0  0  0  0  0  0  0  0
   -0.0947   -9.2925   -0.0000 N   0  0  0  0  0  0  0  0  0  0  0  0
   -1.4087   -8.5349   -0.0000 C   0  0  0  0  0  0  0  0  0  0  0  0
   -0.1065  -10.7841   -0.0000 C   0  0  0  0  0  0  0  0  0  0  0  0
   -1.4205   -7.0197   -0.0000 O   0  0  0  0  0  0  0  0  0  0  0  0
   -2.7227   -9.2689   -0.0000 C   0  0  0  0  0  0  0  0  0  0  0  0
   -1.4205  -11.5180   -0.0000 C   0  0  0  0  0  0  0  0  0  0  0  0
   -2.7345  -10.7604   -0.0000 C   0  0  0  0  0  0  0  0  0  0  0  0
   -4.0366   -8.5113   -0.0000 C   0  0  0  0  0  0  0  0  0  0  0  0
   -5.3506   -7.7536   -0.0000 F   0  0  0  0  0  0  0  0  0  0  0  0
   -3.3027   -7.1973   -0.0000 F   0  0  0  0  0  0  0  0  0  0  0  0
   -4.7942   -9.8016   -0.0000 F   0  0  0  0  0  0  0  0  0  0  0  0
  1  2  1  0  0  0  0
  2  3  1  0  0  0  0
  2  4  2  0  0  0  0
  3  5  1  0  0  0  0
  4  6  1  0  0  0  0
  4  7  1  0  0  0  0
  7  8  1  0  0  0  0
  7  9  2  0  0  0  0
  8 10  1  0  0  0  0
  8 11  2  0  0  0  0
  9 12  1  0  0  0  0
 10 13  1  0  0  0  0
 10 14  2  0  0  0  0
 11 15  1  0  0  0  0
 12 16  1  0  0  0  0
 14 17  1  0  0  0  0
 14 18  1  0  0  0  0
 17 19  1  0  0  0  0
 19 20  1  0  0  0  0
 20 21  2  0  0  0  0
 20 22  1  0  0  0  0
 21 23  1  0  0  0  0
 21 24  1  0  0  0  0
 22 25  2  0  0  0  0
 22 26  1  0  0  0  0
 23 27  2  0  0  0  0
 24 28  1  0  0  0  0
 28 29  1  0  0  0  0
 28 30  1  0  0  0  0
 29 31  2  0  0  0  0
 29 32  1  0  0  0  0
 30 33  2  0  0  0  0
 32 34  2  0  0  0  0
 32 35  1  0  0  0  0
 35 36  1  0  0  0  0
 35 37  1  0  0  0  0
 35 38  1  0  0  0  0
  5  6  2  0  0  0  0
 12 13  2  0  0  0  0
 15 18  2  0  0  0  0
 25 27  1  0  0  0  0
 33 34  1  0  0  0  0
M  END
>  <MolRegNo>
564907

>  <m>
=

>  <Value>
300

>  <Unit>
nM

>  <Type>
IC50

>  <pValue>
6.52

>  <Ligand Efficiency>
0

>  <Binding Efficiency>
0

>  <Surface Efficiency>
0

>  <Assay Index>
418163

>  <Assay Category>


>  <Assay Organism>
Homo sapiens

>  <Target ID>
17045

>  <Target Name>
Cytochrome P450 3A4

>  <Target Organism>
Homo sapiens

>  <Target Description>
Target is a single protein chain

>  <Sequence Accession>
P08684

>  <Reference>
J Med Chem 52 (14), 4370-4379 (2009)

>  <Pubmed ID>
19552431

>  <DOI>
10.1021/jm9002445

$$$$
559602
Actelion Java MolfileCreator 1.0

 38 42  0  0  0  0  0  0  0  0999 V2000
    0.0000   -0.0000   -0.0000 F   0  0  0  0  0  0  0  0  0  0  0  0
   -1.3093    0.7549   -0.0000 C   0  0  0  0  0  0  0  0  0  0  0  0
   -2.0642   -0.5308   -0.0000 F   0  0  0  0  0  0  0  0  0  0  0  0
   -0.5662    2.0642   -0.0000 F   0  0  0  0  0  0  0  0  0  0  0  0
   -2.6185    1.5098   -0.0000 C   0  0  0  0  0  0  0  0  0  0  0  0
   -3.9278    0.7785   -0.0000 C   0  0  0  0  0  0  0  0  0  0  0  0
   -2.6303    3.0196   -0.0000 C   0  0  0  0  0  0  0  0  0  0  0  0
   -3.9396   -0.7077   -0.0000 O   0  0  0  0  0  0  0  0  0  0  0  0
   -5.2371    1.5334   -0.0000 N   0  0  0  0  0  0  0  0  0  0  0  0
   -3.9396    3.7745   -0.0000 C   0  0  0  0  0  0  0  0  0  0  0  0
   -5.2489    3.0432   -0.0000 C   0  0  0  0  0  0  0  0  0  0  0  0
   -6.5464    0.8021   -0.0000 C   0  0  0  0  0  0  0  0  0  0  0  0
   -7.8556    1.5570   -0.0000 C   0  0  0  0  0  0  0  0  0  0  0  0
   -7.8674    3.0668   -0.0000 N   0  0  0  0  0  0  0  0  0  0  0  0
   -9.1649    0.8257   -0.0000 C   0  0  0  0  0  0  0  0  0  0  0  0
   -9.1767    3.8217   -0.0000 C   0  0  0  0  0  0  0  0  0  0  0  0
  -10.4742    1.5806   -0.0000 C   0  0  0  0  0  0  0  0  0  0  0  0
   -9.1767   -0.6605   -0.0000 C   0  0  0  0  0  0  0  0  0  0  0  0
  -10.4860    3.0904   -0.0000 C   0  0  0  0  0  0  0  0  0  0  0  0
  -11.7835    0.8493   -0.0000 C   0  0  0  0  0  0  0  0  0  0  0  0
  -10.4860   -1.3918   -0.0000 O   0  0  0  0  0  0  0  0  0  0  0  0
  -10.4978   -2.8780   -0.0000 C   0  0  0  0  0  0  0  0  0  0  0  0
  -11.8070   -3.6093   -0.0000 C   0  0  0  0  0  0  0  0  0  0  0  0
   -9.2121   -3.6093   -0.0000 C   0  0  0  0  0  0  0  0  0  0  0  0
  -13.1163   -2.8545   -0.0000 N   0  0  0  0  0  0  0  0  0  0  0  0
  -11.8188   -5.0955   -0.0000 C   0  0  0  0  0  0  0  0  0  0  0  0
   -9.2239   -5.0955   -0.0000 C   0  0  0  0  0  0  0  0  0  0  0  0
  -14.4256   -3.5858   -0.0000 C   0  0  0  0  0  0  0  0  0  0  0  0
  -13.1281   -5.8269   -0.0000 C   0  0  0  0  0  0  0  0  0  0  0  0
  -10.5332   -5.8269   -0.0000 C   0  0  0  0  0  0  0  0  0  0  0  0
  -14.4374   -5.0720   -0.0000 C   0  0  0  0  0  0  0  0  0  0  0  0
  -15.7349   -2.8309   -0.0000 C   0  0  0  0  0  0  0  0  0  0  0  0
  -13.1399   -7.3131   -0.0000 C   0  0  0  0  0  0  0  0  0  0  0  0
  -11.9368   -8.1859   -0.0000 N   0  0  0  0  0  0  0  0  0  0  0  0
  -14.3666   -8.1859   -0.0000 C   0  0  0  0  0  0  0  0  0  0  0  0
  -12.4086   -9.6013   -0.0000 N   0  0  0  0  0  0  0  0  0  0  0  0
  -13.9184   -9.6013   -0.0000 C   0  0  0  0  0  0  0  0  0  0  0  0
  -15.8056   -7.7141   -0.0000 C   0  0  0  0  0  0  0  0  0  0  0  0
  1  2  1  0  0  0  0
  2  3  1  0  0  0  0
  2  4  1  0  0  0  0
  2  5  1  0  0  0  0
  5  6  1  0  0  0  0
  5  7  2  0  0  0  0
  6  8  2  0  0  0  0
  6  9  1  0  0  0  0
  7 10  1  0  0  0  0
  9 11  1  0  0  0  0
  9 12  1  0  0  0  0
 12 13  1  0  0  0  0
 13 14  2  0  0  0  0
 13 15  1  0  0  0  0
 14 16  1  0  0  0  0
 15 17  2  0  0  0  0
 15 18  1  0  0  0  0
 16 19  2  0  0  0  0
 17 20  1  0  0  0  0
 18 21  1  0  0  0  0
 21 22  1  0  0  0  0
 22 23  1  0  0  0  0
 22 24  2  0  0  0  0
 23 25  2  0  0  0  0
 23 26  1  0  0  0  0
 24 27  1  0  0  0  0
 25 28  1  0  0  0  0
 26 29  2  0  0  0  0
 26 30  1  0  0  0  0
 28 31  2  0  0  0  0
 28 32  1  0  0  0  0
 29 33  1  0  0  0  0
 33 34  1  0  0  0  0
 33 35  2  0  0  0  0
 34 36  1  0  0  0  0
 35 37  1  0  0  0  0
 35 38  1  0  0  0  0
 10 11  2  0  0  0  0
 17 19  1  0  0  0  0
 27 30  2  0  0  0  0
 29 31  1  0  0  0  0
 36 37  2  0  0  0  0
M  END
>  <MolRegNo>
559602

>  <m>
=

>  <Value>
3800

>  <Unit>
nM

>  <Type>
IC50

>  <pValue>
5.42

>  <Ligand Efficiency>
0

>  <Binding Efficiency>
0

>  <Surface Efficiency>
0

>  <Assay Index>
418163

>  <Assay Category>


>  <Assay Organism>
Homo sapiens

>  <Target ID>
17045

>  <Target Name>
Cytochrome P450 3A4

>  <Target Organism>
Homo sapiens

>  <Target Description>
Target is a single protein chain

>  <Sequence Accession>
P08684

>  <Reference>
J Med Chem 52 (14), 4370-4379 (2009)

>  <Pubmed ID>
19552431

>  <DOI>
10.1021/jm9002445

$$$$
557819
Actelion Java MolfileCreator 1.0

 36 40  0  0  0  0  0  0  0  0999 V2000
    0.0000   -0.0000   -0.0000 O   0  0  0  0  0  0  0  0  0  0  0  0
   -0.0118   -1.4853   -0.0000 C   0  0  0  0  0  0  0  0  0  0  0  0
   -1.3202   -2.2279   -0.0000 N   0  0  0  0  0  0  0  0  0  0  0  0
    1.2731   -2.2279   -0.0000 C   0  0  0  0  0  0  0  0  0  0  0  0
   -2.6287   -1.4735   -0.0000 C   0  0  0  0  0  0  0  0  0  0  0  0
    2.5580   -1.4735   -0.0000 C   0  0  0  0  0  0  0  0  0  0  0  0
    1.2613   -3.7132   -0.0000 C   0  0  0  0  0  0  0  0  0  0  0  0
   -3.9371   -2.2161   -0.0000 C   0  0  0  0  0  0  0  0  0  0  0  0
    3.8428   -2.2161   -0.0000 C   0  0  0  0  0  0  0  0  0  0  0  0
    2.5462   -4.4440   -0.0000 C   0  0  0  0  0  0  0  0  0  0  0  0
   -3.9489   -3.7014   -0.0000 N   0  0  0  0  0  0  0  0  0  0  0  0
   -5.2456   -1.4617   -0.0000 C   0  0  0  0  0  0  0  0  0  0  0  0
    3.8310   -3.7014   -0.0000 C   0  0  0  0  0  0  0  0  0  0  0  0
   -5.2574   -4.4322   -0.0000 C   0  0  0  0  0  0  0  0  0  0  0  0
   -6.5540   -2.2043   -0.0000 C   0  0  0  0  0  0  0  0  0  0  0  0
   -5.2574    0.0472   -0.0000 C   0  0  0  0  0  0  0  0  0  0  0  0
   -6.5658   -3.6778   -0.0000 C   0  0  0  0  0  0  0  0  0  0  0  0
   -7.8625   -1.4499   -0.0000 C   0  0  0  0  0  0  0  0  0  0  0  0
   -6.5658    0.8016   -0.0000 O   0  0  0  0  0  0  0  0  0  0  0  0
   -6.5776    2.3104   -0.0000 C   0  0  0  0  0  0  0  0  0  0  0  0
   -7.8860    3.0648   -0.0000 C   0  0  0  0  0  0  0  0  0  0  0  0
   -5.2927    3.0648   -0.0000 C   0  0  0  0  0  0  0  0  0  0  0  0
   -9.1945    2.3340   -0.0000 N   0  0  0  0  0  0  0  0  0  0  0  0
   -7.8978    4.5737   -0.0000 C   0  0  0  0  0  0  0  0  0  0  0  0
   -5.3045    4.5737   -0.0000 C   0  0  0  0  0  0  0  0  0  0  0  0
  -10.5029    3.0884   -0.0000 C   0  0  0  0  0  0  0  0  0  0  0  0
   -9.2063    5.3281   -0.0000 C   0  0  0  0  0  0  0  0  0  0  0  0
   -6.6130    5.3281   -0.0000 C   0  0  0  0  0  0  0  0  0  0  0  0
  -10.5147    4.5972   -0.0000 C   0  0  0  0  0  0  0  0  0  0  0  0
  -11.8114    2.3576   -0.0000 C   0  0  0  0  0  0  0  0  0  0  0  0
   -9.2181    6.8369   -0.0000 C   0  0  0  0  0  0  0  0  0  0  0  0
   -8.0157    7.7328   -0.0000 N   0  0  0  0  0  0  0  0  0  0  0  0
  -10.4440    7.7328   -0.0000 C   0  0  0  0  0  0  0  0  0  0  0  0
   -8.4872    9.1709   -0.0000 N   0  0  0  0  0  0  0  0  0  0  0  0
   -6.6012    7.2849   -0.0000 C   0  0  0  0  0  0  0  0  0  0  0  0
   -9.9960    9.1709   -0.0000 C   0  0  0  0  0  0  0  0  0  0  0  0
  1  2  2  0  0  0  0
  2  3  1  0  0  0  0
  2  4  1  0  0  0  0
  3  5  1  0  0  0  0
  4  6  1  0  0  0  0
  4  7  1  0  0  0  0
  5  8  1  0  0  0  0
  6  9  1  0  0  0  0
  7 10  1  0  0  0  0
  8 11  2  0  0  0  0
  8 12  1  0  0  0  0
  9 13  1  0  0  0  0
 11 14  1  0  0  0  0
 12 15  2  0  0  0  0
 12 16  1  0  0  0  0
 14 17  2  0  0  0  0
 15 18  1  0  0  0  0
 16 19  1  0  0  0  0
 19 20  1  0  0  0  0
 20 21  1  0  0  0  0
 20 22  2  0  0  0  0
 21 23  2  0  0  0  0
 21 24  1  0  0  0  0
 22 25  1  0  0  0  0
 23 26  1  0  0  0  0
 24 27  2  0  0  0  0
 24 28  1  0  0  0  0
 26 29  2  0  0  0  0
 26 30  1  0  0  0  0
 27 31  1  0  0  0  0
 31 32  1  0  0  0  0
 31 33  2  0  0  0  0
 32 34  1  0  0  0  0
 32 35  1  0  0  0  0
 33 36  1  0  0  0  0
 10 13  1  0  0  0  0
 15 17  1  0  0  0  0
 25 28  2  0  0  0  0
 27 29  1  0  0  0  0
 34 36  2  0  0  0  0
M  END
>  <MolRegNo>
557819

>  <m>
=

>  <Value>
2500

>  <Unit>
nM

>  <Type>
IC50

>  <pValue>
5.6

>  <Ligand Efficiency>
0

>  <Binding Efficiency>
0

>  <Surface Efficiency>
0

>  <Assay Index>
418163

>  <Assay Category>


>  <Assay Organism>
Homo sapiens

>  <Target ID>
17045

>  <Target Name>
Cytochrome P450 3A4

>  <Target Organism>
Homo sapiens

>  <Target Description>
Target is a single protein chain

>  <Sequence Accession>
P08684

>  <Reference>
J Med Chem 52 (14), 4370-4379 (2009)

>  <Pubmed ID>
19552431

>  <DOI>
10.1021/jm9002445

$$$$
556122
Actelion Java MolfileCreator 1.0

 33 36  0  0  0  0  0  0  0  0999 V2000
    0.0000   -0.0000   -0.0000 O   0  0  0  0  0  0  0  0  0  0  0  0
   -0.0118   -1.4832   -0.0000 C   0  0  0  0  0  0  0  0  0  0  0  0
   -1.3184   -2.2130   -0.0000 N   0  0  0  0  0  0  0  0  0  0  0  0
    1.2713   -2.2130   -0.0000 C   0  0  0  0  0  0  0  0  0  0  0  0
   -2.6251   -1.4597   -0.0000 C   0  0  0  0  0  0  0  0  0  0  0  0
    2.5544   -1.4597   -0.0000 C   0  0  0  0  0  0  0  0  0  0  0  0
    1.2596   -3.6963   -0.0000 C   0  0  0  0  0  0  0  0  0  0  0  0
   -3.9317   -2.1895   -0.0000 C   0  0  0  0  0  0  0  0  0  0  0  0
   -3.9435   -3.6727   -0.0000 N   0  0  0  0  0  0  0  0  0  0  0  0
   -5.2383   -1.4361   -0.0000 C   0  0  0  0  0  0  0  0  0  0  0  0
   -5.2501   -4.4143   -0.0000 C   0  0  0  0  0  0  0  0  0  0  0  0
   -6.5450   -2.1660   -0.0000 C   0  0  0  0  0  0  0  0  0  0  0  0
   -5.2501    0.0706   -0.0000 C   0  0  0  0  0  0  0  0  0  0  0  0
   -6.5567   -3.6609   -0.0000 C   0  0  0  0  0  0  0  0  0  0  0  0
   -7.8516   -1.4126   -0.0000 C   0  0  0  0  0  0  0  0  0  0  0  0
   -6.5567    0.8240   -0.0000 O   0  0  0  0  0  0  0  0  0  0  0  0
   -6.5685    2.3308   -0.0000 C   0  0  0  0  0  0  0  0  0  0  0  0
   -7.8752    3.0841   -0.0000 C   0  0  0  0  0  0  0  0  0  0  0  0
   -5.2854    3.0841   -0.0000 C   0  0  0  0  0  0  0  0  0  0  0  0
   -9.1818    2.3543   -0.0000 N   0  0  0  0  0  0  0  0  0  0  0  0
   -7.8869    4.5909   -0.0000 C   0  0  0  0  0  0  0  0  0  0  0  0
   -5.2972    4.5909   -0.0000 C   0  0  0  0  0  0  0  0  0  0  0  0
  -10.4884    3.1077   -0.0000 C   0  0  0  0  0  0  0  0  0  0  0  0
   -9.1936    5.3443   -0.0000 C   0  0  0  0  0  0  0  0  0  0  0  0
   -6.6038    5.3443   -0.0000 C   0  0  0  0  0  0  0  0  0  0  0  0
  -10.5002    4.6144   -0.0000 C   0  0  0  0  0  0  0  0  0  0  0  0
  -11.7951    2.3779   -0.0000 C   0  0  0  0  0  0  0  0  0  0  0  0
   -9.2053    6.8510   -0.0000 C   0  0  0  0  0  0  0  0  0  0  0  0
   -8.0046    7.7457   -0.0000 N   0  0  0  0  0  0  0  0  0  0  0  0
  -10.4296    7.7457   -0.0000 C   0  0  0  0  0  0  0  0  0  0  0  0
   -8.4755    9.1818   -0.0000 N   0  0  0  0  0  0  0  0  0  0  0  0
   -6.5921    7.2984   -0.0000 C   0  0  0  0  0  0  0  0  0  0  0  0
   -9.9823    9.1818   -0.0000 C   0  0  0  0  0  0  0  0  0  0  0  0
  1  2  2  0  0  0  0
  2  3  1  0  0  0  0
  2  4  1  0  0  0  0
  3  5  1  0  0  0  0
  4  6  1  0  0  0  0
  4  7  1  0  0  0  0
  5  8  1  0  0  0  0
  8  9  2  0  0  0  0
  8 10  1  0  0  0  0
  9 11  1  0  0  0  0
 10 12  2  0  0  0  0
 10 13  1  0  0  0  0
 11 14  2  0  0  0  0
 12 15  1  0  0  0  0
 13 16  1  0  0  0  0
 16 17  1  0  0  0  0
 17 18  1  0  0  0  0
 17 19  2  0  0  0  0
 18 20  2  0  0  0  0
 18 21  1  0  0  0  0
 19 22  1  0  0  0  0
 20 23  1  0  0  0  0
 21 24  2  0  0  0  0
 21 25  1  0  0  0  0
 23 26  2  0  0  0  0
 23 27  1  0  0  0  0
 24 28  1  0  0  0  0
 28 29  1  0  0  0  0
 28 30  2  0  0  0  0
 29 31  1  0  0  0  0
 29 32  1  0  0  0  0
 30 33  1  0  0  0  0
 12 14  1  0  0  0  0
 22 25  2  0  0  0  0
 24 26  1  0  0  0  0
 31 33  2  0  0  0  0
M  END
>  <MolRegNo>
556122

>  <m>
=

>  <Value>
3100

>  <Unit>
nM

>  <Type>
IC50

>  <pValue>
5.51

>  <Ligand Efficiency>
0

>  <Binding Efficiency>
0

>  <Surface Efficiency>
0

>  <Assay Index>
418163

>  <Assay Category>


>  <Assay Organism>
Homo sapiens

>  <Target ID>
17045

>  <Target Name>
Cytochrome P450 3A4

>  <Target Organism>
Homo sapiens

>  <Target Description>
Target is a single protein chain

>  <Sequence Accession>
P08684

>  <Reference>
J Med Chem 52 (14), 4370-4379 (2009)

>  <Pubmed ID>
19552431

>  <DOI>
10.1021/jm9002445

$$$$
565343
Actelion Java MolfileCreator 1.0

 34 39  0  0  0  0  0  0  0  0999 V2000
    0.0000   -0.0000   -0.0000 O   0  0  0  0  0  0  0  0  0  0  0  0
    1.3162   -0.6888   -0.0000 C   0  0  0  0  0  0  0  0  0  0  0  0
   -1.3162   -0.6888   -0.0000 C   0  0  0  0  0  0  0  0  0  0  0  0
    1.3039   -2.2387   -0.0000 C   0  0  0  0  0  0  0  0  0  0  0  0
    2.5954    0.0246   -0.0000 C   0  0  0  0  0  0  0  0  0  0  0  0
   -1.3285   -2.2387   -0.0000 C   0  0  0  0  0  0  0  0  0  0  0  0
   -2.6077    0.1230   -0.0000 C   0  0  0  0  0  0  0  0  0  0  0  0
   -0.0369   -2.9767   -0.0000 O   0  0  0  0  0  0  0  0  0  0  0  0
    2.5831   -2.9767   -0.0000 C   0  0  0  0  0  0  0  0  0  0  0  0
    3.8870   -0.6642   -0.0000 C   0  0  0  0  0  0  0  0  0  0  0  0
    2.5831    1.5499   -0.0000 C   0  0  0  0  0  0  0  0  0  0  0  0
   -2.5708    1.6483   -0.0000 N   0  0  0  0  0  0  0  0  0  0  0  0
    3.8747   -2.2141   -0.0000 C   0  0  0  0  0  0  0  0  0  0  0  0
    5.2031    0.0492   -0.0000 N   0  0  0  0  0  0  0  0  0  0  0  0
    3.8747    2.3371   -0.0000 C   0  0  0  0  0  0  0  0  0  0  0  0
   -3.8624    2.4601   -0.0000 C   0  0  0  0  0  0  0  0  0  0  0  0
   -1.2547    2.3740   -0.0000 C   0  0  0  0  0  0  0  0  0  0  0  0
    5.1908    1.5745   -0.0000 C   0  0  0  0  0  0  0  0  0  0  0  0
   -3.8255    3.9854   -0.0000 C   0  0  0  0  0  0  0  0  0  0  0  0
   -1.2178    3.8993   -0.0000 C   0  0  0  0  0  0  0  0  0  0  0  0
    6.2241    2.1895   -0.0000 C   0  0  0  0  0  0  0  0  0  0  0  0
   -2.5093    4.7111   -0.0000 N   0  0  0  0  0  0  0  0  0  0  0  0
   -2.4724    6.2364   -0.0000 C   0  0  0  0  0  0  0  0  0  0  0  0
   -3.7763    7.0605   -0.0000 N   0  0  0  0  0  0  0  0  0  0  0  0
   -1.1563    6.9621   -0.0000 C   0  0  0  0  0  0  0  0  0  0  0  0
   -3.7394    8.5858   -0.0000 C   0  0  0  0  0  0  0  0  0  0  0  0
   -1.1317    8.4997   -0.0000 C   0  0  0  0  0  0  0  0  0  0  0  0
   -2.4232    9.3115   -0.0000 C   0  0  0  0  0  0  0  0  0  0  0  0
   -5.0309    9.3976   -0.0000 C   0  0  0  0  0  0  0  0  0  0  0  0
   -2.3863   10.8368   -0.0000 C   0  0  0  0  0  0  0  0  0  0  0  0
   -4.9940   10.9229   -0.0000 C   0  0  0  0  0  0  0  0  0  0  0  0
   -3.6779   11.6486   -0.0000 C   0  0  0  0  0  0  0  0  0  0  0  0
   -3.6410   13.1739   -0.0000 C   0  0  0  0  0  0  0  0  0  0  0  0
   -3.6164   14.3917   -0.0000 N   0  0  0  0  0  0  0  0  0  0  0  0
  1  2  1  0  0  0  0
  1  3  1  0  0  0  0
  2  4  2  0  0  0  0
  2  5  1  0  0  0  0
  3  6  1  0  0  0  0
  3  7  1  6  0  0  0
  4  8  1  0  0  0  0
  4  9  1  0  0  0  0
  5 10  1  0  0  0  0
  5 11  2  0  0  0  0
  7 12  1  0  0  0  0
  9 13  2  0  0  0  0
 10 14  2  0  0  0  0
 11 15  1  0  0  0  0
 12 16  1  0  0  0  0
 12 17  1  0  0  0  0
 14 18  1  0  0  0  0
 16 19  1  0  0  0  0
 17 20  1  0  0  0  0
 18 21  1  0  0  0  0
 19 22  1  0  0  0  0
 22 23  1  0  0  0  0
 23 24  2  0  0  0  0
 23 25  1  0  0  0  0
 24 26  1  0  0  0  0
 25 27  2  0  0  0  0
 26 28  1  0  0  0  0
 26 29  2  0  0  0  0
 28 30  2  0  0  0  0
 29 31  1  0  0  0  0
 30 32  1  0  0  0  0
 32 33  1  0  0  0  0
 33 34  3  0  0  0  0
  6  8  1  0  0  0  0
 10 13  1  0  0  0  0
 15 18  2  0  0  0  0
 20 22  1  0  0  0  0
 27 28  1  0  0  0  0
 31 32  2  0  0  0  0
M  END
>  <MolRegNo>
565343

>  <m>
=

>  <Value>
10000

>  <Unit>
nM

>  <Type>
IC50

>  <pValue>
5

>  <Ligand Efficiency>
0

>  <Binding Efficiency>
0

>  <Surface Efficiency>
0

>  <Assay Index>
419750

>  <Assay Category>


>  <Assay Organism>
Homo sapiens

>  <Target ID>
17045

>  <Target Name>
Cytochrome P450 3A4

>  <Target Organism>
Homo sapiens

>  <Target Description>
Target is a single protein chain

>  <Sequence Accession>
P08684

>  <Reference>
J Med Chem 52 (15), 4955-4959 (2009)

>  <Pubmed ID>
19719241

>  <DOI>
10.1021/jm900374r

$$$$
565734
Actelion Java MolfileCreator 1.0

 31 35  0  0  0  0  0  0  0  0999 V2000
    0.0000   -0.0000   -0.0000 O   0  0  0  0  0  0  0  0  0  0  0  0
    0.7339   -1.2902   -0.0000 C   0  0  0  0  0  0  0  0  0  0  0  0
    2.2253   -1.2783   -0.0000 N   0  0  0  0  0  0  0  0  0  0  0  0
   -0.0237   -2.5804   -0.0000 N   0  0  0  0  0  0  0  0  0  0  0  0
    2.9591   -2.5685   -0.0000 C   0  0  0  0  0  0  0  0  0  0  0  0
    2.9591    0.0355   -0.0000 C   0  0  0  0  0  0  0  0  0  0  0  0
   -1.5387   -2.5685   -0.0000 C   0  0  0  0  0  0  0  0  0  0  0  0
    4.4505   -2.5567   -0.0000 C   0  0  0  0  0  0  0  0  0  0  0  0
    4.4505    0.0473   -0.0000 C   0  0  0  0  0  0  0  0  0  0  0  0
   -2.2016   -3.9061   -0.0000 C   0  0  0  0  0  0  0  0  0  0  0  0
   -2.2016   -1.2073   -0.0000 C   0  0  0  0  0  0  0  0  0  0  0  0
    5.1844   -1.2428   -0.0000 C   0  0  0  0  0  0  0  0  0  0  0  0
   -3.6812   -4.2256   -0.0000 C   0  0  0  0  0  0  0  0  0  0  0  0
   -3.6812   -0.8641   -0.0000 C   0  0  0  0  0  0  0  0  0  0  0  0
    6.6758   -1.2310   -0.0000 C   0  0  0  0  0  0  0  0  0  0  0  0
   -4.8648   -3.2787   -0.0000 C   0  0  0  0  0  0  0  0  0  0  0  0
   -4.8648   -1.7873   -0.0000 C   0  0  0  0  0  0  0  0  0  0  0  0
    7.5517   -0.0000   -0.0000 O   0  0  0  0  0  0  0  0  0  0  0  0
    7.5517   -2.4383   -0.0000 N   0  0  0  0  0  0  0  0  0  0  0  0
   -6.1787   -4.0244   -0.0000 C   0  0  0  0  0  0  0  0  0  0  0  0
   -6.1787   -1.0179   -0.0000 C   0  0  0  0  0  0  0  0  0  0  0  0
    8.9721   -0.4498   -0.0000 N   0  0  0  0  0  0  0  0  0  0  0  0
    8.9721   -1.9649   -0.0000 C   0  0  0  0  0  0  0  0  0  0  0  0
   -7.4925   -3.2550   -0.0000 C   0  0  0  0  0  0  0  0  0  0  0  0
   -7.4925   -1.7636   -0.0000 C   0  0  0  0  0  0  0  0  0  0  0  0
   10.1794   -2.8408   -0.0000 C   0  0  0  0  0  0  0  0  0  0  0  0
   10.0137   -4.3203   -0.0000 N   0  0  0  0  0  0  0  0  0  0  0  0
   11.5406   -2.2134   -0.0000 C   0  0  0  0  0  0  0  0  0  0  0  0
   11.2210   -5.1962   -0.0000 C   0  0  0  0  0  0  0  0  0  0  0  0
   12.7479   -3.0893   -0.0000 C   0  0  0  0  0  0  0  0  0  0  0  0
   12.5822   -4.5689   -0.0000 C   0  0  0  0  0  0  0  0  0  0  0  0
  1  2  2  0  0  0  0
  2  3  1  0  0  0  0
  2  4  1  0  0  0  0
  3  5  1  0  0  0  0
  3  6  1  0  0  0  0
  4  7  1  0  0  0  0
  5  8  1  0  0  0  0
  6  9  1  0  0  0  0
  7 10  1  0  0  0  0
  7 11  1  0  0  0  0
  8 12  1  0  0  0  0
 10 13  1  0  0  0  0
 11 14  1  0  0  0  0
 12 15  1  0  0  0  0
 13 16  1  0  0  0  0
 14 17  1  0  0  0  0
 15 18  1  0  0  0  0
 15 19  2  0  0  0  0
 16 20  1  0  0  0  0
 17 21  1  0  0  0  0
 18 22  1  0  0  0  0
 19 23  1  0  0  0  0
 20 24  2  0  0  0  0
 21 25  2  0  0  0  0
 23 26  1  0  0  0  0
 26 27  2  0  0  0  0
 26 28  1  0  0  0  0
 27 29  1  0  0  0  0
 28 30  2  0  0  0  0
 29 31  2  0  0  0  0
  9 12  1  0  0  0  0
 16 17  2  0  0  0  0
 22 23  2  0  0  0  0
 24 25  1  0  0  0  0
 30 31  1  0  0  0  0
M  END
>  <MolRegNo>
565734

>  <m>
=

>  <Value>
10000

>  <Unit>
nM

>  <Type>
IC50

>  <pValue>
5

>  <Ligand Efficiency>
0

>  <Binding Efficiency>
0

>  <Surface Efficiency>
0

>  <Assay Index>
425547

>  <Assay Category>


>  <Assay Organism>


>  <Target ID>
17045

>  <Target Name>
Cytochrome P450 3A4

>  <Target Organism>
Homo sapiens

>  <Target Description>
Target is a single protein chain

>  <Sequence Accession>
P08684

>  <Reference>
J Med Chem 52 (16), 5009-5012 (2009)

>  <Pubmed ID>
19645482

>  <DOI>
10.1021/jm900725r

$$$$
555068
Actelion Java MolfileCreator 1.0

 22 24  0  0  0  0  0  0  0  0999 V2000
    0.0000   -0.0000   -0.0000 Cl  0  0  0  0  0  0  0  0  0  0  0  0
   -0.0118   -1.4908   -0.0000 C   0  0  0  0  0  0  0  0  0  0  0  0
    1.2779   -2.2362   -0.0000 C   0  0  0  0  0  0  0  0  0  0  0  0
   -1.3252   -2.2362   -0.0000 C   0  0  0  0  0  0  0  0  0  0  0  0
    2.5675   -1.4790   -0.0000 O   0  0  0  0  0  0  0  0  0  0  0  0
    1.2660   -3.7271   -0.0000 C   0  0  0  0  0  0  0  0  0  0  0  0
   -1.3370   -3.7271   -0.0000 C   0  0  0  0  0  0  0  0  0  0  0  0
   -0.0473   -4.4606   -0.0000 C   0  0  0  0  0  0  0  0  0  0  0  0
   -2.6504   -4.4606   -0.0000 C   0  0  0  0  0  0  0  0  0  0  0  0
   -3.9637   -3.7034   -0.0000 C   0  0  0  0  0  0  0  0  0  0  0  0
   -2.6622   -5.9515   -0.0000 C   0  0  0  0  0  0  0  0  0  0  0  0
   -5.2771   -4.4370   -0.0000 C   0  0  0  0  0  0  0  0  0  0  0  0
   -3.9755   -6.6851   -0.0000 C   0  0  0  0  0  0  0  0  0  0  0  0
   -5.2889   -5.9278   -0.0000 C   0  0  0  0  0  0  0  0  0  0  0  0
   -6.6022   -6.6614   -0.0000 C   0  0  0  0  0  0  0  0  0  0  0  0
   -6.6141   -8.1522   -0.0000 N   0  0  0  0  0  0  0  0  0  0  0  0
   -7.9156   -5.9041   -0.0000 C   0  0  0  0  0  0  0  0  0  0  0  0
   -7.8446   -9.0278   -0.0000 C   0  0  0  0  0  0  0  0  0  0  0  0
   -5.4072   -9.0278   -0.0000 C   0  0  0  0  0  0  0  0  0  0  0  0
   -9.2289   -6.6377   -0.0000 C   0  0  0  0  0  0  0  0  0  0  0  0
   -7.3950  -10.4476   -0.0000 N   0  0  0  0  0  0  0  0  0  0  0  0
   -5.8805  -10.4476   -0.0000 C   0  0  0  0  0  0  0  0  0  0  0  0
  1  2  1  0  0  0  0
  2  3  2  0  0  0  0
  2  4  1  0  0  0  0
  3  5  1  0  0  0  0
  3  6  1  0  0  0  0
  4  7  2  0  0  0  0
  6  8  2  0  0  0  0
  7  9  1  0  0  0  0
  9 10  2  0  0  0  0
  9 11  1  0  0  0  0
 10 12  1  0  0  0  0
 11 13  2  0  0  0  0
 12 14  2  0  0  0  0
 14 15  1  0  0  0  0
 15 16  1  0  0  0  0
 15 17  1  0  0  0  0
 16 18  1  0  0  0  0
 16 19  1  0  0  0  0
 17 20  1  0  0  0  0
 18 21  2  0  0  0  0
 19 22  2  0  0  0  0
  7  8  1  0  0  0  0
 13 14  1  0  0  0  0
 21 22  1  0  0  0  0
M  END
>  <MolRegNo>
555068

>  <m>
=

>  <Value>
91

>  <Unit>
nM

>  <Type>
IC50

>  <pValue>
7.04

>  <Ligand Efficiency>
0

>  <Binding Efficiency>
0

>  <Surface Efficiency>
0

>  <Assay Index>
423275

>  <Assay Category>


>  <Assay Organism>


>  <Target ID>
17045

>  <Target Name>
Cytochrome P450 3A4

>  <Target Organism>
Homo sapiens

>  <Target Description>
Target is a single protein chain

>  <Sequence Accession>
P08684

>  <Reference>
Eur J Med Chem 44 (7), 2765-2775 (2009)

>  <Pubmed ID>
19211174

>  <DOI>
10.1016/j.ejmech.2009.01.002

$$$$
6579
Actelion Java MolfileCreator 1.0

 22 23  0  0  0  0  0  0  0  0999 V2000
    0.0000   -0.0000   -0.0000 Cl  0  0  0  0  0  0  0  0  0  0  0  0
    1.2731    0.7734   -0.0000 C   0  0  0  0  0  0  0  0  0  0  0  0
    2.5701    0.0476   -0.0000 C   0  0  0  0  0  0  0  0  0  0  0  0
    1.2375    2.2964   -0.0000 C   0  0  0  0  0  0  0  0  0  0  0  0
    3.8551    0.8210   -0.0000 C   0  0  0  0  0  0  0  0  0  0  0  0
    2.5225    3.0698   -0.0000 C   0  0  0  0  0  0  0  0  0  0  0  0
    5.1402    0.0952   -0.0000 N   0  0  0  0  0  0  0  0  0  0  0  0
    3.8194    2.3440   -0.0000 C   0  0  0  0  0  0  0  0  0  0  0  0
    6.4133    0.8686   -0.0000 C   0  0  0  0  0  0  0  0  0  0  0  0
    5.1045    3.1174   -0.0000 C   0  0  0  0  0  0  0  0  0  0  0  0
    6.4014    2.3916   -0.0000 C   0  0  0  0  0  0  0  0  0  0  0  0
    5.0688    4.6285   -0.0000 N   0  0  0  0  0  0  0  0  0  0  0  0
    6.3538    5.4139   -0.0000 C   0  0  0  0  0  0  0  0  0  0  0  0
    7.6508    4.6761   -0.0000 C   0  0  0  0  0  0  0  0  0  0  0  0
    6.3300    6.9250   -0.0000 C   0  0  0  0  0  0  0  0  0  0  0  0
    8.9358    5.4614   -0.0000 C   0  0  0  0  0  0  0  0  0  0  0  0
   10.2328    4.7356   -0.0000 C   0  0  0  0  0  0  0  0  0  0  0  0
   11.5178    5.5090   -0.0000 N   0  0  0  0  0  0  0  0  0  0  0  0
   12.8148    4.7832   -0.0000 C   0  0  0  0  0  0  0  0  0  0  0  0
   11.4821    7.0202   -0.0000 C   0  0  0  0  0  0  0  0  0  0  0  0
   12.8148    3.2959   -0.0000 C   0  0  0  0  0  0  0  0  0  0  0  0
   10.1614    7.7698   -0.0000 C   0  0  0  0  0  0  0  0  0  0  0  0
  1  2  1  0  0  0  0
  2  3  2  0  0  0  0
  2  4  1  0  0  0  0
  3  5  1  0  0  0  0
  4  6  2  0  0  0  0
  5  7  2  0  0  0  0
  5  8  1  0  0  0  0
  7  9  1  0  0  0  0
  8 10  2  0  0  0  0
  9 11  2  0  0  0  0
 10 12  1  0  0  0  0
 12 13  1  0  0  0  0
 13 14  1  0  0  0  0
 13 15  1  0  0  0  0
 14 16  1  0  0  0  0
 16 17  1  0  0  0  0
 17 18  1  0  0  0  0
 18 19  1  0  0  0  0
 18 20  1  0  0  0  0
 19 21  1  0  0  0  0
 20 22  1  0  0  0  0
  6  8  1  0  0  0  0
 10 11  1  0  0  0  0
M  END
>  <MolRegNo>
6579

>  <m>
=

>  <Value>
349950

>  <Unit>
nM

>  <Type>
IC50

>  <pValue>
0

>  <Ligand Efficiency>
0

>  <Binding Efficiency>
0

>  <Surface Efficiency>
0

>  <Assay Index>
425435

>  <Assay Category>


>  <Assay Organism>


>  <Target ID>
17045

>  <Target Name>
Cytochrome P450 3A4

>  <Target Organism>
Homo sapiens

>  <Target Description>
Target is a single protein chain

>  <Sequence Accession>
P08684

>  <Reference>
Eur J Med Chem 44 (7), 2913-2922 (2009)

>  <Pubmed ID>
19128860

>  <DOI>
10.1016/j.ejmech.2008.12.004

$$$$
7065
Actelion Java MolfileCreator 1.0

 43 49  0  0  1  0  0  0  0  0999 V2000
    0.0000   -0.0000   -0.0000 Br  0  0  0  0  0  0  0  0  0  0  0  0
    1.2814    0.8542   -0.0000 C   0  0  0  0  0  0  0  0  0  0  0  0
    1.2692    2.4041   -0.0000 N   0  0  0  0  0  0  0  0  0  0  0  0
    2.6482    0.2929   -0.0000 C   0  0  0  0  0  0  0  0  0  0  0  0
    2.6359    2.8800   -0.0000 C   0  0  0  0  0  0  0  0  0  0  0  0
    3.3804    1.5987   -0.0000 C   0  0  0  0  0  0  0  0  0  0  0  0
    3.3804   -0.9885   -0.0000 C   0  0  0  0  0  0  0  0  0  0  0  0
    3.3682    4.2102   -0.0000 C   0  0  0  0  0  0  0  0  0  0  0  0
    4.8692    1.6109   -0.0000 C   0  0  0  0  0  0  0  0  0  0  0  0
    4.8692   -0.9763   -0.0000 C   0  0  0  0  0  0  0  0  0  0  0  0
    4.8570    4.2224   -0.0000 C   0  0  0  0  0  0  0  0  0  0  0  0
    5.6136    0.3295   -0.0000 C   0  0  0  0  0  0  0  0  0  0  0  0
    5.6136    2.9166   -0.0000 C   0  0  0  0  0  0  0  0  0  0  0  0
    5.6136   -2.2820   -0.0000 N   0  0  0  0  0  0  0  0  0  0  0  0
    7.1146    0.3417   -0.0000 C   0  0  0  0  0  0  0  0  0  0  0  0
    7.1146   -2.2698   -0.0000 C   0  0  0  0  0  0  0  0  0  0  0  0
    4.8448   -3.5634   -0.0000 C   0  0  0  0  0  0  0  0  0  0  0  0
    7.8468   -0.9397   -0.0000 C   0  0  0  0  0  0  0  0  0  0  0  0
    9.3479   -0.9275   -0.0000 C   0  0  0  0  0  0  0  0  0  0  0  0
    9.6896    0.4027   -0.0000 O   0  0  0  0  0  0  0  0  0  0  0  0
   10.0801   -2.2332   -0.0000 N   0  0  0  0  0  0  0  0  0  0  0  0
   11.5689   -2.3065   -0.0000 C   0  0  0  0  0  0  0  0  0  0  0  0
   11.3492   -0.8909   -0.0000 O   0  0  0  0  0  0  0  0  0  0  0  0
   13.1065   -2.5139   -0.0000 C   0  0  0  0  0  0  0  0  0  0  0  0
   11.2394   -3.7831   -0.0000 C   0  0  0  0  0  0  0  0  0  0  0  0
   12.5696   -0.1586   -0.0000 C   0  0  0  0  0  0  0  0  0  0  0  0
   13.8143   -3.8197   -0.0000 O   0  0  0  0  0  0  0  0  0  0  0  0
   13.7533   -1.0983   -0.0000 N   0  0  0  0  0  0  0  0  0  0  0  0
    9.7140   -3.9661   -0.0000 C   0  0  0  0  0  0  0  0  0  0  0  0
   11.8374   -4.8936   -0.0000 C   0  0  0  0  0  0  0  0  0  0  0  0
   11.3248    0.1831   -0.0000 O   0  0  0  0  0  0  0  0  0  0  0  0
   12.8014    1.3790   -0.0000 C   0  0  0  0  0  0  0  0  0  0  0  0
   15.1933   -0.5492   -0.0000 C   0  0  0  0  0  0  0  0  0  0  0  0
   14.1926    1.9281   -0.0000 N   0  0  0  0  0  0  0  0  0  0  0  0
   11.7763    2.6970   -0.0000 C   0  0  0  0  0  0  0  0  0  0  0  0
   15.4008    0.9763   -0.0000 C   0  0  0  0  0  0  0  0  0  0  0  0
   16.3404   -1.4766   -0.0000 C   0  0  0  0  0  0  0  0  0  0  0  0
   14.2048    3.4780   -0.0000 C   0  0  0  0  0  0  0  0  0  0  0  0
   12.7038    4.0638   -0.0000 C   0  0  0  0  0  0  0  0  0  0  0  0
   16.7920    1.5376   -0.0000 O   0  0  0  0  0  0  0  0  0  0  0  0
   17.5974   -0.6712   -0.0000 C   0  0  0  0  0  0  0  0  0  0  0  0
   18.7689   -1.5987   -0.0000 C   0  0  0  0  0  0  0  0  0  0  0  0
   17.6950    0.8420   -0.0000 C   0  0  0  0  0  0  0  0  0  0  0  0
  1  2  1  0  0  0  0
  2  3  1  0  0  0  0
  2  4  2  0  0  0  0
  3  5  1  0  0  0  0
  4  6  1  0  0  0  0
  4  7  1  0  0  0  0
  5  8  1  0  0  0  0
  6  9  1  0  0  0  0
  7 10  1  0  0  0  0
  8 11  2  0  0  0  0
  9 12  1  0  0  0  0
  9 13  2  0  0  0  0
 10 14  1  6  0  0  0
 12 15  2  0  0  0  0
 14 16  1  0  0  0  0
 14 17  1  0  0  0  0
 15 18  1  0  0  0  0
 18 19  1  1  0  0  0
 19 20  2  0  0  0  0
 19 21  1  0  0  0  0
 22 21  1  6  0  0  0
 22 23  1  0  0  0  0
 22 24  1  0  0  0  0
 22 25  1  0  0  0  0
 23 26  1  0  0  0  0
 24 27  2  0  0  0  0
 24 28  1  0  0  0  0
 25 29  1  0  0  0  0
 25 30  1  0  0  0  0
 26 31  1  6  0  0  0
 26 32  1  0  0  0  0
 28 33  1  0  0  0  0
 32 34  1  6  0  0  0
 32 35  1  0  0  0  0
 33 36  1  0  0  0  0
 33 37  1  6  0  0  0
 34 38  1  0  0  0  0
 35 39  1  0  0  0  0
 36 40  2  0  0  0  0
 37 41  1  0  0  0  0
 41 42  1  0  0  0  0
 41 43  1  0  0  0  0
  5  6  2  0  0  0  0
 10 12  1  0  0  0  0
 11 13  1  0  0  0  0
 16 18  1  0  0  0  0
 26 28  1  0  0  0  0
 34 36  1  0  0  0  0
 38 39  1  0  0  0  0
M  END
>  <MolRegNo>
7065

>  <m>
=

>  <Value>
2999.2

>  <Unit>
nM

>  <Type>
IC50

>  <pValue>
5.52

>  <Ligand Efficiency>
0

>  <Binding Efficiency>
0

>  <Surface Efficiency>
0

>  <Assay Index>
425435

>  <Assay Category>


>  <Assay Organism>


>  <Target ID>
17045

>  <Target Name>
Cytochrome P450 3A4

>  <Target Organism>
Homo sapiens

>  <Target Description>
Target is a single protein chain

>  <Sequence Accession>
P08684

>  <Reference>
Eur J Med Chem 44 (7), 2913-2922 (2009)

>  <Pubmed ID>
19128860

>  <DOI>
10.1016/j.ejmech.2008.12.004

$$$$
558566
Actelion Java MolfileCreator 1.0

 43 50  0  0  1  0  0  0  0  0999 V2000
    0.0000   -0.0000   -0.0000 O   0  0  0  0  0  0  0  0  0  0  0  0
   -1.0130    1.1196   -0.0000 C   0  0  0  0  0  0  0  0  0  0  0  0
   -0.5731    2.5324   -0.0000 N   0  0  0  0  0  0  0  0  0  0  0  0
   -2.4657    0.8397   -0.0000 C   0  0  0  0  0  0  0  0  0  0  0  0
   -1.5594    3.6253   -0.0000 C   0  0  0  0  0  0  0  0  0  0  0  0
    0.7331    3.1455   -0.0000 C   0  0  0  0  0  0  0  0  0  0  0  0
   -3.4520    1.9326   -0.0000 N   0  0  0  0  0  0  0  0  0  0  0  0
   -3.2255   -0.4665   -0.0000 C   0  0  0  0  0  0  0  0  0  0  0  0
   -3.0122    3.3454   -0.0000 C   0  0  0  0  0  0  0  0  0  0  0  0
   -0.8530    4.9048   -0.0000 C   0  0  0  0  0  0  0  0  0  0  0  0
    0.5731    4.6116   -0.0000 C   0  0  0  0  0  0  0  0  0  0  0  0
   -4.9715    1.9459   -0.0000 C   0  0  0  0  0  0  0  0  0  0  0  0
   -2.4924   -1.7460   -0.0000 C   0  0  0  0  0  0  0  0  0  0  0  0
   -4.2517    4.2651   -0.0000 O   0  0  0  0  0  0  0  0  0  0  0  0
   -2.6390    4.8115   -0.0000 O   0  0  0  0  0  0  0  0  0  0  0  0
   -5.8511    0.7464   -0.0000 O   0  0  0  0  0  0  0  0  0  0  0  0
   -5.4646    3.3587   -0.0000 C   0  0  0  0  0  0  0  0  0  0  0  0
   -0.9996   -1.7327   -0.0000 C   0  0  0  0  0  0  0  0  0  0  0  0
   -3.2521   -3.0255   -0.0000 C   0  0  0  0  0  0  0  0  0  0  0  0
   -6.7708    4.0651   -0.0000 N   0  0  0  0  0  0  0  0  0  0  0  0
   -5.4779    5.0648   -0.0000 C   0  0  0  0  0  0  0  0  0  0  0  0
   -0.2666   -3.0122   -0.0000 C   0  0  0  0  0  0  0  0  0  0  0  0
   -2.5191   -4.3050   -0.0000 C   0  0  0  0  0  0  0  0  0  0  0  0
   -8.0770    3.3321   -0.0000 C   0  0  0  0  0  0  0  0  0  0  0  0
   -1.0263   -4.2917   -0.0000 C   0  0  0  0  0  0  0  0  0  0  0  0
   -9.3965    4.0918   -0.0000 O   0  0  0  0  0  0  0  0  0  0  0  0
   -8.0903    1.8526   -0.0000 C   0  0  0  0  0  0  0  0  0  0  0  0
   -6.8108    1.1196   -0.0000 C   0  0  0  0  0  0  0  0  0  0  0  0
   -9.4098    1.1196   -0.0000 C   0  0  0  0  0  0  0  0  0  0  0  0
   -6.8241   -0.3599   -0.0000 N   0  0  0  0  0  0  0  0  0  0  0  0
   -9.4231   -0.3599   -0.0000 C   0  0  0  0  0  0  0  0  0  0  0  0
   -8.1303   -1.0929   -0.0000 C   0  0  0  0  0  0  0  0  0  0  0  0
   -5.5446   -1.0929   -0.0000 C   0  0  0  0  0  0  0  0  0  0  0  0
  -10.7293   -1.1196   -0.0000 C   0  0  0  0  0  0  0  0  0  0  0  0
   -8.1436   -2.5724   -0.0000 C   0  0  0  0  0  0  0  0  0  0  0  0
  -10.7426   -2.5857   -0.0000 C   0  0  0  0  0  0  0  0  0  0  0  0
  -12.0621   -0.3332   -0.0000 C   0  0  0  0  0  0  0  0  0  0  0  0
   -9.4631   -3.3321   -0.0000 C   0  0  0  0  0  0  0  0  0  0  0  0
  -12.0755   -3.3454   -0.0000 C   0  0  0  0  0  0  0  0  0  0  0  0
  -13.3683   -1.0929   -0.0000 C   0  0  0  0  0  0  0  0  0  0  0  0
  -10.1029   -4.8248   -0.0000 C   0  0  0  0  0  0  0  0  0  0  0  0
  -11.5956   -4.8382   -0.0000 N   0  0  0  0  0  0  0  0  0  0  0  0
  -13.3816   -2.5590   -0.0000 C   0  0  0  0  0  0  0  0  0  0  0  0
  1  2  2  0  0  0  0
  2  3  1  0  0  0  0
  2  4  1  0  0  0  0
  5  3  1  6  0  0  0
  3  6  1  0  0  0  0
  4  7  1  0  0  0  0
  4  8  1  6  0  0  0
  5  9  1  0  0  0  0
  5 10  1  0  0  0  0
  6 11  1  0  0  0  0
  7 12  1  0  0  0  0
  8 13  1  0  0  0  0
  9 14  1  0  0  0  0
  9 15  1  6  0  0  0
 12 16  2  0  0  0  0
 12 17  1  0  0  0  0
 13 18  2  0  0  0  0
 13 19  1  0  0  0  0
 17 20  1  6  0  0  0
 17 21  1  0  0  0  0
 18 22  1  0  0  0  0
 19 23  2  0  0  0  0
 20 24  1  0  0  0  0
 22 25  2  0  0  0  0
 24 26  2  0  0  0  0
 27 24  1  1  0  0  0
 27 28  1  0  0  0  0
 27 29  1  0  0  0  0
 28 30  1  0  0  0  0
 31 29  1  1  0  0  0
 32 30  1  6  0  0  0
 30 33  1  0  0  0  0
 31 34  1  0  0  0  0
 32 35  1  0  0  0  0
 34 36  2  0  0  0  0
 34 37  1  0  0  0  0
 35 38  1  0  0  0  0
 36 39  1  0  0  0  0
 37 40  2  0  0  0  0
 38 41  2  0  0  0  0
 39 42  1  0  0  0  0
 39 43  2  0  0  0  0
  7  9  1  0  0  0  0
 10 11  1  0  0  0  0
 14 17  1  0  0  0  0
 23 25  1  0  0  0  0
 31 32  1  0  0  0  0
 36 38  1  0  0  0  0
 40 43  1  0  0  0  0
 41 42  1  0  0  0  0
M  END
>  <MolRegNo>
558566

>  <m>
=

>  <Value>
2999.2

>  <Unit>
nM

>  <Type>
IC50

>  <pValue>
5.52

>  <Ligand Efficiency>
0

>  <Binding Efficiency>
0

>  <Surface Efficiency>
0

>  <Assay Index>
425435

>  <Assay Category>


>  <Assay Organism>


>  <Target ID>
17045

>  <Target Name>
Cytochrome P450 3A4

>  <Target Organism>
Homo sapiens

>  <Target Description>
Target is a single protein chain

>  <Sequence Accession>
P08684

>  <Reference>
Eur J Med Chem 44 (7), 2913-2922 (2009)

>  <Pubmed ID>
19128860

>  <DOI>
10.1016/j.ejmech.2008.12.004

$$$$
204115
Actelion Java MolfileCreator 1.0

 17 18  0  0  0  0  0  0  0  0999 V2000
    0.0000   -0.0000   -0.0000 S   0  0  0  0  0  0  0  0  0  0  0  0
    0.7246   -1.2947   -0.0000 O   0  0  0  0  0  0  0  0  0  0  0  0
   -0.7840   -1.2947   -0.0000 O   0  0  0  0  0  0  0  0  0  0  0  0
    1.2828    0.7721   -0.0000 N   0  0  0  0  0  0  0  0  0  0  0  0
   -1.3066    0.7721   -0.0000 C   0  0  0  0  0  0  0  0  0  0  0  0
    2.5657    0.0238   -0.0000 C   0  0  0  0  0  0  0  0  0  0  0  0
   -2.6132    0.0475   -0.0000 C   0  0  0  0  0  0  0  0  0  0  0  0
   -1.3185    2.2925   -0.0000 C   0  0  0  0  0  0  0  0  0  0  0  0
    3.7654    0.9265   -0.0000 S   0  0  0  0  0  0  0  0  0  0  0  0
    3.0052   -1.3779   -0.0000 N   0  0  0  0  0  0  0  0  0  0  0  0
   -3.9198    0.7958   -0.0000 C   0  0  0  0  0  0  0  0  0  0  0  0
   -2.6251    3.0527   -0.0000 C   0  0  0  0  0  0  0  0  0  0  0  0
    4.9650    0.0475   -0.0000 C   0  0  0  0  0  0  0  0  0  0  0  0
    4.5018   -1.3660   -0.0000 N   0  0  0  0  0  0  0  0  0  0  0  0
   -3.9317    2.3162   -0.0000 C   0  0  0  0  0  0  0  0  0  0  0  0
    6.2479    0.8196   -0.0000 C   0  0  0  0  0  0  0  0  0  0  0  0
   -5.2382    3.0764   -0.0000 N   0  0  0  0  0  0  0  0  0  0  0  0
  1  2  2  0  0  0  0
  1  3  2  0  0  0  0
  1  4  1  0  0  0  0
  1  5  1  0  0  0  0
  4  6  1  0  0  0  0
  5  7  2  0  0  0  0
  5  8  1  0  0  0  0
  6  9  1  0  0  0  0
  6 10  2  0  0  0  0
  7 11  1  0  0  0  0
  8 12  2  0  0  0  0
  9 13  1  0  0  0  0
 10 14  1  0  0  0  0
 11 15  2  0  0  0  0
 13 16  1  0  0  0  0
 15 17  1  0  0  0  0
 12 15  1  0  0  0  0
 13 14  2  0  0  0  0
M  END
>  <MolRegNo>
204115

>  <m>
=

>  <Value>
835600

>  <Unit>
nM

>  <Type>
IC50

>  <pValue>
0

>  <Ligand Efficiency>
0

>  <Binding Efficiency>
0

>  <Surface Efficiency>
0

>  <Assay Index>
425435

>  <Assay Category>


>  <Assay Organism>


>  <Target ID>
17045

>  <Target Name>
Cytochrome P450 3A4

>  <Target Organism>
Homo sapiens

>  <Target Description>
Target is a single protein chain

>  <Sequence Accession>
P08684

>  <Reference>
Eur J Med Chem 44 (7), 2913-2922 (2009)

>  <Pubmed ID>
19128860

>  <DOI>
10.1016/j.ejmech.2008.12.004

$$$$
6521
Actelion Java MolfileCreator 1.0

 18 20  0  0  0  0  0  0  0  0999 V2000
    0.0000   -0.0000   -0.0000 S   0  0  0  0  0  0  0  0  0  0  0  0
   -0.2026    1.7288   -0.0000 O   0  0  0  0  0  0  0  0  0  0  0  0
    1.2156   -0.7023   -0.0000 C   0  0  0  0  0  0  0  0  0  0  0  0
   -1.3506   -0.5538   -0.0000 C   0  0  0  0  0  0  0  0  0  0  0  0
    2.5527   -0.0945   -0.0000 N   0  0  0  0  0  0  0  0  0  0  0  0
    1.3776   -2.2015   -0.0000 N   0  0  0  0  0  0  0  0  0  0  0  0
   -1.7018   -1.9719   -0.0000 C   0  0  0  0  0  0  0  0  0  0  0  0
    3.5657   -1.1615   -0.0000 C   0  0  0  0  0  0  0  0  0  0  0  0
    2.8093   -2.4852   -0.0000 C   0  0  0  0  0  0  0  0  0  0  0  0
   -0.6078   -2.8903   -0.0000 N   0  0  0  0  0  0  0  0  0  0  0  0
   -3.1335   -2.4717   -0.0000 C   0  0  0  0  0  0  0  0  0  0  0  0
    5.0919   -1.1075   -0.0000 C   0  0  0  0  0  0  0  0  0  0  0  0
    3.5927   -3.7547   -0.0000 C   0  0  0  0  0  0  0  0  0  0  0  0
   -0.9860   -4.3490   -0.0000 C   0  0  0  0  0  0  0  0  0  0  0  0
   -3.5657   -3.8763   -0.0000 C   0  0  0  0  0  0  0  0  0  0  0  0
    5.8752   -2.4041   -0.0000 C   0  0  0  0  0  0  0  0  0  0  0  0
    5.0919   -3.7547   -0.0000 C   0  0  0  0  0  0  0  0  0  0  0  0
   -2.4446   -4.8082   -0.0000 C   0  0  0  0  0  0  0  0  0  0  0  0
  1  2  2  0  0  0  0
  1  3  1  0  0  0  0
  1  4  1  0  0  0  0
  3  5  2  0  0  0  0
  3  6  1  0  0  0  0
  4  7  1  0  0  0  0
  5  8  1  0  0  0  0
  6  9  1  0  0  0  0
  7 10  2  0  0  0  0
  7 11  1  0  0  0  0
  8 12  1  0  0  0  0
  9 13  1  0  0  0  0
 10 14  1  0  0  0  0
 11 15  2  0  0  0  0
 12 16  2  0  0  0  0
 13 17  2  0  0  0  0
 14 18  2  0  0  0  0
  8  9  2  0  0  0  0
 15 18  1  0  0  0  0
 16 17  1  0  0  0  0
M  END
>  <MolRegNo>
6521

>  <m>
=

>  <Value>
309030

>  <Unit>
nM

>  <Type>
IC50

>  <pValue>
0

>  <Ligand Efficiency>
0

>  <Binding Efficiency>
0

>  <Surface Efficiency>
0

>  <Assay Index>
425435

>  <Assay Category>


>  <Assay Organism>


>  <Target ID>
17045

>  <Target Name>
Cytochrome P450 3A4

>  <Target Organism>
Homo sapiens

>  <Target Description>
Target is a single protein chain

>  <Sequence Accession>
P08684

>  <Reference>
Eur J Med Chem 44 (7), 2913-2922 (2009)

>  <Pubmed ID>
19128860

>  <DOI>
10.1016/j.ejmech.2008.12.004

$$$$
567503
Actelion Java MolfileCreator 1.0

 21 22  0  0  0  0  0  0  0  0999 V2000
    0.0000   -0.0000   -0.0000 O   0  0  0  0  0  0  0  0  0  0  0  0
    1.3934    0.0134   -0.0000 C   0  0  0  0  0  0  0  0  0  0  0  0
    2.1035    1.2862   -0.0000 O   0  0  0  0  0  0  0  0  0  0  0  0
    2.0633   -1.2192   -0.0000 C   0  0  0  0  0  0  0  0  0  0  0  0
    3.7917    1.2996   -0.0000 C   0  0  0  0  0  0  0  0  0  0  0  0
    1.2996   -2.4117   -0.0000 O   0  0  0  0  0  0  0  0  0  0  0  0
    3.5505   -1.2058   -0.0000 N   0  0  0  0  0  0  0  0  0  0  0  0
    4.4616    0.1206   -0.0000 C   0  0  0  0  0  0  0  0  0  0  0  0
    4.1668   -2.5322   -0.0000 C   0  0  0  0  0  0  0  0  0  0  0  0
    6.1497    0.1340   -0.0000 C   0  0  0  0  0  0  0  0  0  0  0  0
    5.5468   -2.5188   -0.0000 C   0  0  0  0  0  0  0  0  0  0  0  0
    3.4031   -3.7381   -0.0000 C   0  0  0  0  0  0  0  0  0  0  0  0
    6.7794    1.3398   -0.0000 C   0  0  0  0  0  0  0  0  0  0  0  0
    6.2301   -3.7783   -0.0000 C   0  0  0  0  0  0  0  0  0  0  0  0
    4.0596   -4.9841   -0.0000 C   0  0  0  0  0  0  0  0  0  0  0  0
    7.7307   -3.7649   -0.0000 C   0  0  0  0  0  0  0  0  0  0  0  0
    5.5066   -4.9707   -0.0000 C   0  0  0  0  0  0  0  0  0  0  0  0
    8.5748   -2.5724   -0.0000 N   0  0  0  0  0  0  0  0  0  0  0  0
    8.4274   -5.2655   -0.0000 N   0  0  0  0  0  0  0  0  0  0  0  0
   10.2094   -3.2557   -0.0000 N   0  0  0  0  0  0  0  0  0  0  0  0
   10.1156   -4.9439   -0.0000 N   0  0  0  0  0  0  0  0  0  0  0  0
  1  2  2  0  0  0  0
  2  3  1  0  0  0  0
  2  4  1  0  0  0  0
  3  5  1  0  0  0  0
  4  6  2  0  0  0  0
  4  7  1  0  0  0  0
  5  8  1  0  0  0  0
  7  9  1  0  0  0  0
  8 10  1  0  0  0  0
  9 11  2  0  0  0  0
  9 12  1  0  0  0  0
 10 13  1  0  0  0  0
 11 14  1  0  0  0  0
 12 15  2  0  0  0  0
 14 16  1  0  0  0  0
 14 17  2  0  0  0  0
 16 18  2  0  0  0  0
 16 19  1  0  0  0  0
 18 20  1  0  0  0  0
 19 21  1  0  0  0  0
 15 17  1  0  0  0  0
 20 21  2  0  0  0  0
M  END
>  <MolRegNo>
567503

>  <m>
=

>  <Value>
289730

>  <Unit>
nM

>  <Type>
IC50

>  <pValue>
0

>  <Ligand Efficiency>
0

>  <Binding Efficiency>
0

>  <Surface Efficiency>
0

>  <Assay Index>
425435

>  <Assay Category>


>  <Assay Organism>


>  <Target ID>
17045

>  <Target Name>
Cytochrome P450 3A4

>  <Target Organism>
Homo sapiens

>  <Target Description>
Target is a single protein chain

>  <Sequence Accession>
P08684

>  <Reference>
Eur J Med Chem 44 (7), 2913-2922 (2009)

>  <Pubmed ID>
19128860

>  <DOI>
10.1016/j.ejmech.2008.12.004

$$$$
99706
Actelion Java MolfileCreator 1.0

  6  6  0  0  0  0  0  0  0  0999 V2000
    0.0000   -0.0000   -0.0000 N   0  0  0  0  0  0  0  0  0  0  0  0
   -0.4874   -1.4622   -0.0000 C   0  0  0  0  0  0  0  0  0  0  0  0
   -1.2673    0.9261   -0.0000 C   0  0  0  0  0  0  0  0  0  0  0  0
   -2.0471   -1.4501   -0.0000 N   0  0  0  0  0  0  0  0  0  0  0  0
    0.2315   -2.4492   -0.0000 C   0  0  0  0  0  0  0  0  0  0  0  0
   -2.5345    0.0244   -0.0000 C   0  0  0  0  0  0  0  0  0  0  0  0
  1  2  2  0  0  0  0
  1  3  1  0  0  0  0
  2  4  1  0  0  0  0
  2  5  1  0  0  0  0
  3  6  2  0  0  0  0
  4  6  1  0  0  0  0
M  END
>  <MolRegNo>
99706

>  <m>
=

>  <Value>
1253100

>  <Unit>
nM

>  <Type>
IC50

>  <pValue>
0

>  <Ligand Efficiency>
0

>  <Binding Efficiency>
0

>  <Surface Efficiency>
0

>  <Assay Index>
425435

>  <Assay Category>


>  <Assay Organism>


>  <Target ID>
17045

>  <Target Name>
Cytochrome P450 3A4

>  <Target Organism>
Homo sapiens

>  <Target Description>
Target is a single protein chain

>  <Sequence Accession>
P08684

>  <Reference>
Eur J Med Chem 44 (7), 2913-2922 (2009)

>  <Pubmed ID>
19128860

>  <DOI>
10.1016/j.ejmech.2008.12.004

$$$$
403883
Actelion Java MolfileCreator 1.0

  7  7  0  0  0  0  0  0  0  0999 V2000
    0.0000   -0.0000   -0.0000 O   0  0  0  0  0  0  0  0  0  0  0  0
    0.0000   -1.4964   -0.0000 C   0  0  0  0  0  0  0  0  0  0  0  0
    1.3048   -2.2266   -0.0000 C   0  0  0  0  0  0  0  0  0  0  0  0
   -1.3048   -2.2386   -0.0000 C   0  0  0  0  0  0  0  0  0  0  0  0
    1.2929   -3.7349   -0.0000 N   0  0  0  0  0  0  0  0  0  0  0  0
   -1.3168   -3.7349   -0.0000 C   0  0  0  0  0  0  0  0  0  0  0  0
   -0.0359   -4.4771   -0.0000 C   0  0  0  0  0  0  0  0  0  0  0  0
  1  2  1  0  0  0  0
  2  3  2  0  0  0  0
  2  4  1  0  0  0  0
  3  5  1  0  0  0  0
  4  6  2  0  0  0  0
  5  7  2  0  0  0  0
  6  7  1  0  0  0  0
M  END
>  <MolRegNo>
403883

>  <m>
=

>  <Value>
767360

>  <Unit>
nM

>  <Type>
IC50

>  <pValue>
0

>  <Ligand Efficiency>
0

>  <Binding Efficiency>
0

>  <Surface Efficiency>
0

>  <Assay Index>
425435

>  <Assay Category>


>  <Assay Organism>


>  <Target ID>
17045

>  <Target Name>
Cytochrome P450 3A4

>  <Target Organism>
Homo sapiens

>  <Target Description>
Target is a single protein chain

>  <Sequence Accession>
P08684

>  <Reference>
Eur J Med Chem 44 (7), 2913-2922 (2009)

>  <Pubmed ID>
19128860

>  <DOI>
10.1016/j.ejmech.2008.12.004

$$$$
442664
Actelion Java MolfileCreator 1.0

 20 21  0  0  0  0  0  0  0  0999 V2000
    0.0000   -0.0000   -0.0000 Cl  0  0  0  0  0  0  0  0  0  0  0  0
    1.2915    0.7583   -0.0000 C   0  0  0  0  0  0  0  0  0  0  0  0
    1.2796    2.2631   -0.0000 C   0  0  0  0  0  0  0  0  0  0  0  0
    2.5830    0.0237   -0.0000 C   0  0  0  0  0  0  0  0  0  0  0  0
    2.5711    3.0332   -0.0000 C   0  0  0  0  0  0  0  0  0  0  0  0
    3.8626    0.7820   -0.0000 C   0  0  0  0  0  0  0  0  0  0  0  0
    3.8508    2.2868   -0.0000 C   0  0  0  0  0  0  0  0  0  0  0  0
    5.1422    3.0451   -0.0000 O   0  0  0  0  0  0  0  0  0  0  0  0
    5.1304    4.5617   -0.0000 C   0  0  0  0  0  0  0  0  0  0  0  0
    3.8152    5.3200   -0.0000 N   0  0  0  0  0  0  0  0  0  0  0  0
    6.4100    5.3200   -0.0000 C   0  0  0  0  0  0  0  0  0  0  0  0
    2.4289    4.7157   -0.0000 N   0  0  0  0  0  0  0  0  0  0  0  0
    3.6493    6.8247   -0.0000 C   0  0  0  0  0  0  0  0  0  0  0  0
    6.3982    6.8247   -0.0000 O   0  0  0  0  0  0  0  0  0  0  0  0
    7.6897    4.5854   -0.0000 C   0  0  0  0  0  0  0  0  0  0  0  0
    1.4100    5.8413   -0.0000 C   0  0  0  0  0  0  0  0  0  0  0  0
    2.1683    7.1446   -0.0000 N   0  0  0  0  0  0  0  0  0  0  0  0
    8.4243    3.3057   -0.0000 C   0  0  0  0  0  0  0  0  0  0  0  0
    8.9811    5.3437   -0.0000 C   0  0  0  0  0  0  0  0  0  0  0  0
    6.9195    3.3057   -0.0000 C   0  0  0  0  0  0  0  0  0  0  0  0
  1  2  1  0  0  0  0
  2  3  2  0  0  0  0
  2  4  1  0  0  0  0
  3  5  1  0  0  0  0
  4  6  2  0  0  0  0
  5  7  2  0  0  0  0
  7  8  1  0  0  0  0
  8  9  1  0  0  0  0
  9 10  1  0  0  0  0
  9 11  1  0  0  0  0
 10 12  1  0  0  0  0
 10 13  1  0  0  0  0
 11 14  2  0  0  0  0
 11 15  1  0  0  0  0
 12 16  2  0  0  0  0
 13 17  2  0  0  0  0
 15 18  1  0  0  0  0
 15 19  1  0  0  0  0
 15 20  1  0  0  0  0
  6  7  1  0  0  0  0
 16 17  1  0  0  0  0
M  END
>  <MolRegNo>
442664

>  <m>
=

>  <Value>
9289.7

>  <Unit>
nM

>  <Type>
IC50

>  <pValue>
5.03

>  <Ligand Efficiency>
0

>  <Binding Efficiency>
0

>  <Surface Efficiency>
0

>  <Assay Index>
425435

>  <Assay Category>


>  <Assay Organism>


>  <Target ID>
17045

>  <Target Name>
Cytochrome P450 3A4

>  <Target Organism>
Homo sapiens

>  <Target Description>
Target is a single protein chain

>  <Sequence Accession>
P08684

>  <Reference>
Eur J Med Chem 44 (7), 2913-2922 (2009)

>  <Pubmed ID>
19128860

>  <DOI>
10.1016/j.ejmech.2008.12.004

$$$$
558576
Actelion Java MolfileCreator 1.0

 22 24  0  0  0  0  0  0  0  0999 V2000
    0.0000   -0.0000   -0.0000 Cl  0  0  0  0  0  0  0  0  0  0  0  0
   -1.4848   -0.3064   -0.0000 C   0  0  0  0  0  0  0  0  0  0  0  0
   -1.9561   -1.7204   -0.0000 C   0  0  0  0  0  0  0  0  0  0  0  0
   -2.4982    0.8249   -0.0000 C   0  0  0  0  0  0  0  0  0  0  0  0
   -3.4408   -2.0268   -0.0000 C   0  0  0  0  0  0  0  0  0  0  0  0
   -0.9663   -2.8281   -0.0000 C   0  0  0  0  0  0  0  0  0  0  0  0
   -3.9829    0.5185   -0.0000 C   0  0  0  0  0  0  0  0  0  0  0  0
   -4.4543   -0.8956   -0.0000 C   0  0  0  0  0  0  0  0  0  0  0  0
    0.2357   -3.7001   -0.0000 O   0  0  0  0  0  0  0  0  0  0  0  0
   -2.1918   -3.7001   -0.0000 O   0  0  0  0  0  0  0  0  0  0  0  0
    0.0236   -1.6969   -0.0000 C   0  0  0  0  0  0  0  0  0  0  0  0
   -4.9963    1.6497   -0.0000 Cl  0  0  0  0  0  0  0  0  0  0  0  0
   -0.2357   -5.1141   -0.0000 C   0  0  0  0  0  0  0  0  0  0  0  0
   -1.7440   -5.1141   -0.0000 C   0  0  0  0  0  0  0  0  0  0  0  0
    1.4848   -2.0032   -0.0000 N   0  0  0  0  0  0  0  0  0  0  0  0
    0.6363   -6.3161   -0.0000 C   0  0  0  0  0  0  0  0  0  0  0  0
    2.5924   -0.9898   -0.0000 N   0  0  0  0  0  0  0  0  0  0  0  0
    2.0857   -3.3701   -0.0000 C   0  0  0  0  0  0  0  0  0  0  0  0
    0.0118   -7.6830   -0.0000 C   0  0  0  0  0  0  0  0  0  0  0  0
    3.8886   -1.7322   -0.0000 C   0  0  0  0  0  0  0  0  0  0  0  0
    3.5705   -3.2052   -0.0000 N   0  0  0  0  0  0  0  0  0  0  0  0
    0.8838   -8.8849   -0.0000 C   0  0  0  0  0  0  0  0  0  0  0  0
  1  2  1  0  0  0  0
  2  3  2  0  0  0  0
  2  4  1  0  0  0  0
  3  5  1  0  0  0  0
  3  6  1  0  0  0  0
  4  7  2  0  0  0  0
  5  8  2  0  0  0  0
  6  9  1  0  0  0  0
  6 10  1  0  0  0  0
  6 11  1  0  0  0  0
  7 12  1  0  0  0  0
  9 13  1  0  0  0  0
 10 14  1  0  0  0  0
 11 15  1  0  0  0  0
 13 16  1  0  0  0  0
 15 17  1  0  0  0  0
 15 18  1  0  0  0  0
 16 19  1  0  0  0  0
 17 20  2  0  0  0  0
 18 21  2  0  0  0  0
 19 22  1  0  0  0  0
  7  8  1  0  0  0  0
 13 14  1  0  0  0  0
 20 21  1  0  0  0  0
M  END
>  <MolRegNo>
558576

>  <m>
=

>  <Value>
1039.9

>  <Unit>
nM

>  <Type>
IC50

>  <pValue>
5.98

>  <Ligand Efficiency>
0

>  <Binding Efficiency>
0

>  <Surface Efficiency>
0

>  <Assay Index>
425435

>  <Assay Category>


>  <Assay Organism>


>  <Target ID>
17045

>  <Target Name>
Cytochrome P450 3A4

>  <Target Organism>
Homo sapiens

>  <Target Description>
Target is a single protein chain

>  <Sequence Accession>
P08684

>  <Reference>
Eur J Med Chem 44 (7), 2913-2922 (2009)

>  <Pubmed ID>
19128860

>  <DOI>
10.1016/j.ejmech.2008.12.004

$$$$
86284
Actelion Java MolfileCreator 1.0

 17 18  0  0  0  0  0  0  0  0999 V2000
    0.0000   -0.0000   -0.0000 O   0  0  0  0  0  0  0  0  0  0  0  0
   -0.0119    1.5054   -0.0000 C   0  0  0  0  0  0  0  0  0  0  0  0
   -1.3158    2.2641   -0.0000 C   0  0  0  0  0  0  0  0  0  0  0  0
    1.2684    2.2878   -0.0000 C   0  0  0  0  0  0  0  0  0  0  0  0
   -1.3276    3.7814   -0.0000 C   0  0  0  0  0  0  0  0  0  0  0  0
   -2.6197    1.5291   -0.0000 C   0  0  0  0  0  0  0  0  0  0  0  0
    2.5486    1.5410   -0.0000 C   0  0  0  0  0  0  0  0  0  0  0  0
    2.0151    3.6036   -0.0000 C   0  0  0  0  0  0  0  0  0  0  0  0
    0.5097    3.5917   -0.0000 C   0  0  0  0  0  0  0  0  0  0  0  0
   -2.6315    4.5519   -0.0000 N   0  0  0  0  0  0  0  0  0  0  0  0
   -3.9236    2.2878   -0.0000 C   0  0  0  0  0  0  0  0  0  0  0  0
    2.5367    0.0593   -0.0000 C   0  0  0  0  0  0  0  0  0  0  0  0
    3.8288    2.3115   -0.0000 C   0  0  0  0  0  0  0  0  0  0  0  0
   -3.9355    3.8051   -0.0000 C   0  0  0  0  0  0  0  0  0  0  0  0
    3.8406   -0.6638   -0.0000 N   0  0  0  0  0  0  0  0  0  0  0  0
    5.1090    1.5884   -0.0000 C   0  0  0  0  0  0  0  0  0  0  0  0
    5.1208    0.0830   -0.0000 C   0  0  0  0  0  0  0  0  0  0  0  0
  1  2  2  0  0  0  0
  2  3  1  0  0  0  0
  2  4  1  0  0  0  0
  3  5  2  0  0  0  0
  3  6  1  0  0  0  0
  4  7  1  0  0  0  0
  4  8  1  0  0  0  0
  4  9  1  0  0  0  0
  5 10  1  0  0  0  0
  6 11  2  0  0  0  0
  7 12  2  0  0  0  0
  7 13  1  0  0  0  0
 10 14  2  0  0  0  0
 12 15  1  0  0  0  0
 13 16  2  0  0  0  0
 15 17  2  0  0  0  0
 11 14  1  0  0  0  0
 16 17  1  0  0  0  0
M  END
>  <MolRegNo>
86284

>  <m>
=

>  <Value>
4931.7

>  <Unit>
nM

>  <Type>
IC50

>  <pValue>
5.31

>  <Ligand Efficiency>
0

>  <Binding Efficiency>
0

>  <Surface Efficiency>
0

>  <Assay Index>
425435

>  <Assay Category>


>  <Assay Organism>


>  <Target ID>
17045

>  <Target Name>
Cytochrome P450 3A4

>  <Target Organism>
Homo sapiens

>  <Target Description>
Target is a single protein chain

>  <Sequence Accession>
P08684

>  <Reference>
Eur J Med Chem 44 (7), 2913-2922 (2009)

>  <Pubmed ID>
19128860

>  <DOI>
10.1016/j.ejmech.2008.12.004

$$$$
139286
Actelion Java MolfileCreator 1.0

 31 33  0  0  0  0  0  0  0  0999 V2000
    0.0000   -0.0000   -0.0000 S   0  0  0  0  0  0  0  0  0  0  0  0
    0.7237    1.3247   -0.0000 O   0  0  0  0  0  0  0  0  0  0  0  0
   -0.7728    1.3247   -0.0000 O   0  0  0  0  0  0  0  0  0  0  0  0
    1.2879   -0.7114   -0.0000 N   0  0  0  0  0  0  0  0  0  0  0  0
   -1.3002   -0.7605   -0.0000 C   0  0  0  0  0  0  0  0  0  0  0  0
    2.5636    0.0613   -0.0000 C   0  0  0  0  0  0  0  0  0  0  0  0
   -2.5758   -0.0245   -0.0000 C   0  0  0  0  0  0  0  0  0  0  0  0
   -1.3125   -2.2569   -0.0000 C   0  0  0  0  0  0  0  0  0  0  0  0
    2.5268    1.5700   -0.0000 O   0  0  0  0  0  0  0  0  0  0  0  0
    3.8515   -0.6624   -0.0000 N   0  0  0  0  0  0  0  0  0  0  0  0
   -3.9128   -0.7605   -0.0000 C   0  0  0  0  0  0  0  0  0  0  0  0
   -2.5881   -3.0051   -0.0000 C   0  0  0  0  0  0  0  0  0  0  0  0
    5.1272    0.1227   -0.0000 C   0  0  0  0  0  0  0  0  0  0  0  0
   -3.9251   -2.2324   -0.0000 C   0  0  0  0  0  0  0  0  0  0  0  0
    5.0781    1.6191   -0.0000 C   0  0  0  0  0  0  0  0  0  0  0  0
    6.4151   -0.6010   -0.0000 C   0  0  0  0  0  0  0  0  0  0  0  0
   -5.1762   -2.9806   -0.0000 C   0  0  0  0  0  0  0  0  0  0  0  0
    6.3537    2.3919   -0.0000 C   0  0  0  0  0  0  0  0  0  0  0  0
    7.6785    0.1717   -0.0000 C   0  0  0  0  0  0  0  0  0  0  0  0
   -6.5132   -2.2324   -0.0000 C   0  0  0  0  0  0  0  0  0  0  0  0
    7.6539    1.6682   -0.0000 C   0  0  0  0  0  0  0  0  0  0  0  0
   -7.8134   -2.9561   -0.0000 N   0  0  0  0  0  0  0  0  0  0  0  0
   -9.0890   -2.1833   -0.0000 C   0  0  0  0  0  0  0  0  0  0  0  0
   -9.1013   -0.6869   -0.0000 O   0  0  0  0  0  0  0  0  0  0  0  0
  -10.4506   -2.9316   -0.0000 C   0  0  0  0  0  0  0  0  0  0  0  0
  -11.7262   -2.2079   -0.0000 N   0  0  0  0  0  0  0  0  0  0  0  0
  -10.4628   -4.4771   -0.0000 C   0  0  0  0  0  0  0  0  0  0  0  0
  -13.0632   -2.9070   -0.0000 C   0  0  0  0  0  0  0  0  0  0  0  0
  -11.7385   -5.1639   -0.0000 N   0  0  0  0  0  0  0  0  0  0  0  0
  -13.0755   -4.4525   -0.0000 C   0  0  0  0  0  0  0  0  0  0  0  0
  -14.4124   -5.2007   -0.0000 C   0  0  0  0  0  0  0  0  0  0  0  0
  1  2  2  0  0  0  0
  1  3  2  0  0  0  0
  1  4  1  0  0  0  0
  1  5  1  0  0  0  0
  4  6  1  0  0  0  0
  5  7  2  0  0  0  0
  5  8  1  0  0  0  0
  6  9  2  0  0  0  0
  6 10  1  0  0  0  0
  7 11  1  0  0  0  0
  8 12  2  0  0  0  0
 10 13  1  0  0  0  0
 11 14  2  0  0  0  0
 13 15  1  0  0  0  0
 13 16  1  0  0  0  0
 14 17  1  0  0  0  0
 15 18  1  0  0  0  0
 16 19  1  0  0  0  0
 17 20  1  0  0  0  0
 18 21  1  0  0  0  0
 20 22  1  0  0  0  0
 22 23  1  0  0  0  0
 23 24  2  0  0  0  0
 23 25  1  0  0  0  0
 25 26  2  0  0  0  0
 25 27  1  0  0  0  0
 26 28  1  0  0  0  0
 27 29  2  0  0  0  0
 28 30  2  0  0  0  0
 30 31  1  0  0  0  0
 12 14  1  0  0  0  0
 19 21  1  0  0  0  0
 29 30  1  0  0  0  0
M  END
>  <MolRegNo>
139286

>  <m>
=

>  <Value>
7447.3

>  <Unit>
nM

>  <Type>
IC50

>  <pValue>
5.13

>  <Ligand Efficiency>
0

>  <Binding Efficiency>
0

>  <Surface Efficiency>
0

>  <Assay Index>
425435

>  <Assay Category>


>  <Assay Organism>


>  <Target ID>
17045

>  <Target Name>
Cytochrome P450 3A4

>  <Target Organism>
Homo sapiens

>  <Target Description>
Target is a single protein chain

>  <Sequence Accession>
P08684

>  <Reference>
Eur J Med Chem 44 (7), 2913-2922 (2009)

>  <Pubmed ID>
19128860

>  <DOI>
10.1016/j.ejmech.2008.12.004

$$$$
13758
Actelion Java MolfileCreator 1.0

 22 24  0  0  0  0  0  0  0  0999 V2000
    0.0000   -0.0000   -0.0000 F   0  0  0  0  0  0  0  0  0  0  0  0
   -0.0118    1.5145   -0.0000 C   0  0  0  0  0  0  0  0  0  0  0  0
    1.2779    2.2718   -0.0000 C   0  0  0  0  0  0  0  0  0  0  0  0
   -1.3252    2.2718   -0.0000 C   0  0  0  0  0  0  0  0  0  0  0  0
    1.2661    3.7864   -0.0000 C   0  0  0  0  0  0  0  0  0  0  0  0
    2.5676    1.5382   -0.0000 C   0  0  0  0  0  0  0  0  0  0  0  0
   -1.3371    3.7864   -0.0000 C   0  0  0  0  0  0  0  0  0  0  0  0
   -0.0473    4.5436   -0.0000 C   0  0  0  0  0  0  0  0  0  0  0  0
    3.3131    2.8516   -0.0000 O   0  0  0  0  0  0  0  0  0  0  0  0
    3.8573    0.8046   -0.0000 C   0  0  0  0  0  0  0  0  0  0  0  0
    1.7985    0.2485   -0.0000 C   0  0  0  0  0  0  0  0  0  0  0  0
   -2.6504    4.5436   -0.0000 F   0  0  0  0  0  0  0  0  0  0  0  0
    5.1471    1.5619   -0.0000 N   0  0  0  0  0  0  0  0  0  0  0  0
    2.5440   -1.0412   -0.0000 N   0  0  0  0  0  0  0  0  0  0  0  0
    5.2891    3.0646   -0.0000 N   0  0  0  0  0  0  0  0  0  0  0  0
    6.5078    0.9584   -0.0000 C   0  0  0  0  0  0  0  0  0  0  0  0
    4.0230   -1.1832   -0.0000 N   0  0  0  0  0  0  0  0  0  0  0  0
    1.9168   -2.4020   -0.0000 C   0  0  0  0  0  0  0  0  0  0  0  0
    6.7444    3.3841   -0.0000 C   0  0  0  0  0  0  0  0  0  0  0  0
    7.5017    2.0825   -0.0000 N   0  0  0  0  0  0  0  0  0  0  0  0
    4.3188   -2.6386   -0.0000 C   0  0  0  0  0  0  0  0  0  0  0  0
    3.0173   -3.3959   -0.0000 N   0  0  0  0  0  0  0  0  0  0  0  0
  1  2  1  0  0  0  0
  2  3  2  0  0  0  0
  2  4  1  0  0  0  0
  3  5  1  0  0  0  0
  3  6  1  0  0  0  0
  4  7  2  0  0  0  0
  5  8  2  0  0  0  0
  6  9  1  0  0  0  0
  6 10  1  0  0  0  0
  6 11  1  0  0  0  0
  7 12  1  0  0  0  0
 10 13  1  0  0  0  0
 11 14  1  0  0  0  0
 13 15  1  0  0  0  0
 13 16  1  0  0  0  0
 14 17  1  0  0  0  0
 14 18  1  0  0  0  0
 15 19  2  0  0  0  0
 16 20  2  0  0  0  0
 17 21  2  0  0  0  0
 18 22  2  0  0  0  0
  7  8  1  0  0  0  0
 19 20  1  0  0  0  0
 21 22  1  0  0  0  0
M  END
>  <MolRegNo>
13758

>  <m>
=

>  <Value>
25003

>  <Unit>
nM

>  <Type>
IC50

>  <pValue>
4.6

>  <Ligand Efficiency>
0

>  <Binding Efficiency>
0

>  <Surface Efficiency>
0

>  <Assay Index>
425435

>  <Assay Category>


>  <Assay Organism>


>  <Target ID>
17045

>  <Target Name>
Cytochrome P450 3A4

>  <Target Organism>
Homo sapiens

>  <Target Description>
Target is a single protein chain

>  <Sequence Accession>
P08684

>  <Reference>
Eur J Med Chem 44 (7), 2913-2922 (2009)

>  <Pubmed ID>
19128860

>  <DOI>
10.1016/j.ejmech.2008.12.004

$$$$
52874
Actelion Java MolfileCreator 1.0

 24 26  0  0  0  0  0  0  0  0999 V2000
    0.0000   -0.0000   -0.0000 Cl  0  0  0  0  0  0  0  0  0  0  0  0
    1.4497    0.0248   -0.0000 C   0  0  0  0  0  0  0  0  0  0  0  0
    2.2056    1.2886   -0.0000 C   0  0  0  0  0  0  0  0  0  0  0  0
    2.1560   -1.2515   -0.0000 C   0  0  0  0  0  0  0  0  0  0  0  0
    3.6677    1.3010   -0.0000 C   0  0  0  0  0  0  0  0  0  0  0  0
    1.4125    2.6516   -0.0000 C   0  0  0  0  0  0  0  0  0  0  0  0
    3.6677   -1.2391   -0.0000 C   0  0  0  0  0  0  0  0  0  0  0  0
    4.3987    0.0124   -0.0000 C   0  0  0  0  0  0  0  0  0  0  0  0
   -0.0867    2.6640   -0.0000 O   0  0  0  0  0  0  0  0  0  0  0  0
    2.1560    3.9403   -0.0000 C   0  0  0  0  0  0  0  0  0  0  0  0
    4.3987   -2.6268   -0.0000 Cl  0  0  0  0  0  0  0  0  0  0  0  0
   -0.8674    1.4002   -0.0000 C   0  0  0  0  0  0  0  0  0  0  0  0
    1.3878    5.2413   -0.0000 N   0  0  0  0  0  0  0  0  0  0  0  0
   -2.3542    1.4125   -0.0000 C   0  0  0  0  0  0  0  0  0  0  0  0
    1.8586    6.6539   -0.0000 C   0  0  0  0  0  0  0  0  0  0  0  0
   -0.0867    5.2537   -0.0000 C   0  0  0  0  0  0  0  0  0  0  0  0
   -3.1101    2.7508   -0.0000 C   0  0  0  0  0  0  0  0  0  0  0  0
   -3.1225    0.1735   -0.0000 C   0  0  0  0  0  0  0  0  0  0  0  0
    0.6567    7.5708   -0.0000 N   0  0  0  0  0  0  0  0  0  0  0  0
   -0.5452    6.7406   -0.0000 C   0  0  0  0  0  0  0  0  0  0  0  0
   -4.6961    2.7508   -0.0000 C   0  0  0  0  0  0  0  0  0  0  0  0
   -4.6713    0.1859   -0.0000 C   0  0  0  0  0  0  0  0  0  0  0  0
   -5.4148    1.4869   -0.0000 C   0  0  0  0  0  0  0  0  0  0  0  0
   -6.9388    1.4869   -0.0000 Cl  0  0  0  0  0  0  0  0  0  0  0  0
  1  2  1  0  0  0  0
  2  3  2  0  0  0  0
  2  4  1  0  0  0  0
  3  5  1  0  0  0  0
  3  6  1  0  0  0  0
  4  7  2  0  0  0  0
  5  8  2  0  0  0  0
  6  9  1  0  0  0  0
  6 10  1  0  0  0  0
  7 11  1  0  0  0  0
  9 12  1  0  0  0  0
 10 13  1  0  0  0  0
 12 14  1  0  0  0  0
 13 15  1  0  0  0  0
 13 16  1  0  0  0  0
 14 17  2  0  0  0  0
 14 18  1  0  0  0  0
 15 19  2  0  0  0  0
 16 20  2  0  0  0  0
 17 21  1  0  0  0  0
 18 22  2  0  0  0  0
 21 23  2  0  0  0  0
 23 24  1  0  0  0  0
  7  8  1  0  0  0  0
 19 20  1  0  0  0  0
 22 23  1  0  0  0  0
M  END
>  <MolRegNo>
52874

>  <m>
=

>  <Value>
430.53

>  <Unit>
nM

>  <Type>
IC50

>  <pValue>
6.37

>  <Ligand Efficiency>
0

>  <Binding Efficiency>
0

>  <Surface Efficiency>
0

>  <Assay Index>
425435

>  <Assay Category>


>  <Assay Organism>


>  <Target ID>
17045

>  <Target Name>
Cytochrome P450 3A4

>  <Target Organism>
Homo sapiens

>  <Target Description>
Target is a single protein chain

>  <Sequence Accession>
P08684

>  <Reference>
Eur J Med Chem 44 (7), 2913-2922 (2009)

>  <Pubmed ID>
19128860

>  <DOI>
10.1016/j.ejmech.2008.12.004

$$$$
11968
Actelion Java MolfileCreator 1.0

 23 25  0  0  0  0  0  0  0  0999 V2000
    0.0000   -0.0000   -0.0000 S   0  0  0  0  0  0  0  0  0  0  0  0
   -0.7616   -1.2852   -0.0000 O   0  0  0  0  0  0  0  0  0  0  0  0
    0.7259   -1.2852   -0.0000 O   0  0  0  0  0  0  0  0  0  0  0  0
    1.2852    0.7616   -0.0000 N   0  0  0  0  0  0  0  0  0  0  0  0
   -1.3209    0.7616   -0.0000 C   0  0  0  0  0  0  0  0  0  0  0  0
    1.2733    2.2729   -0.0000 C   0  0  0  0  0  0  0  0  0  0  0  0
    2.5466    0.0238   -0.0000 C   0  0  0  0  0  0  0  0  0  0  0  0
   -1.3328    2.2729   -0.0000 C   0  0  0  0  0  0  0  0  0  0  0  0
   -2.6299    0.0238   -0.0000 C   0  0  0  0  0  0  0  0  0  0  0  0
   -0.0357    3.0226   -0.0000 C   0  0  0  0  0  0  0  0  0  0  0  0
    2.5347    3.0226   -0.0000 C   0  0  0  0  0  0  0  0  0  0  0  0
   -2.6418    3.0226   -0.0000 C   0  0  0  0  0  0  0  0  0  0  0  0
   -3.9508    0.7854   -0.0000 C   0  0  0  0  0  0  0  0  0  0  0  0
   -0.0476    4.5339   -0.0000 O   0  0  0  0  0  0  0  0  0  0  0  0
    2.5347    4.5339   -0.0000 O   0  0  0  0  0  0  0  0  0  0  0  0
    3.8199    2.2967   -0.0000 N   0  0  0  0  0  0  0  0  0  0  0  0
   -3.9627    2.2967   -0.0000 C   0  0  0  0  0  0  0  0  0  0  0  0
    5.1170    3.0464   -0.0000 C   0  0  0  0  0  0  0  0  0  0  0  0
    6.4021    2.3086   -0.0000 N   0  0  0  0  0  0  0  0  0  0  0  0
    5.1170    4.5696   -0.0000 C   0  0  0  0  0  0  0  0  0  0  0  0
    7.6992    3.0702   -0.0000 C   0  0  0  0  0  0  0  0  0  0  0  0
    6.4021    5.3312   -0.0000 C   0  0  0  0  0  0  0  0  0  0  0  0
    7.6873    4.5815   -0.0000 C   0  0  0  0  0  0  0  0  0  0  0  0
  1  2  2  0  0  0  0
  1  3  2  0  0  0  0
  1  4  1  0  0  0  0
  1  5  1  0  0  0  0
  4  6  1  0  0  0  0
  4  7  1  0  0  0  0
  5  8  2  0  0  0  0
  5  9  1  0  0  0  0
  6 10  2  0  0  0  0
  6 11  1  0  0  0  0
  8 12  1  0  0  0  0
  9 13  2  0  0  0  0
 10 14  1  0  0  0  0
 11 15  2  0  0  0  0
 11 16  1  0  0  0  0
 12 17  2  0  0  0  0
 16 18  1  0  0  0  0
 18 19  2  0  0  0  0
 18 20  1  0  0  0  0
 19 21  1  0  0  0  0
 20 22  2  0  0  0  0
 21 23  2  0  0  0  0
  8 10  1  0  0  0  0
 13 17  1  0  0  0  0
 22 23  1  0  0  0  0
M  END
>  <MolRegNo>
11968

>  <m>
=

>  <Value>
1.0e6

>  <Unit>
nM

>  <Type>
IC50

>  <pValue>
0

>  <Ligand Efficiency>
0

>  <Binding Efficiency>
0

>  <Surface Efficiency>
0

>  <Assay Index>
425435

>  <Assay Category>


>  <Assay Organism>


>  <Target ID>
17045

>  <Target Name>
Cytochrome P450 3A4

>  <Target Organism>
Homo sapiens

>  <Target Description>
Target is a single protein chain

>  <Sequence Accession>
P08684

>  <Reference>
Eur J Med Chem 44 (7), 2913-2922 (2009)

>  <Pubmed ID>
19128860

>  <DOI>
10.1016/j.ejmech.2008.12.004

$$$$
13454
Actelion Java MolfileCreator 1.0

  6  6  0  0  0  0  0  0  0  0999 V2000
    0.0000   -0.0000   -0.0000 N   0  0  0  0  0  0  0  0  0  0  0  0
    0.4455    1.4304   -0.0000 C   0  0  0  0  0  0  0  0  0  0  0  0
   -1.5008    0.0117   -0.0000 C   0  0  0  0  0  0  0  0  0  0  0  0
   -0.7738    2.3215   -0.0000 N   0  0  0  0  0  0  0  0  0  0  0  0
   -1.9698    1.4422   -0.0000 C   0  0  0  0  0  0  0  0  0  0  0  0
   -0.7856    3.8223   -0.0000 C   0  0  0  0  0  0  0  0  0  0  0  0
  1  2  2  0  0  0  0
  1  3  1  0  0  0  0
  2  4  1  0  0  0  0
  3  5  2  0  0  0  0
  4  6  1  0  0  0  0
  4  5  1  0  0  0  0
M  END
>  <MolRegNo>
13454

>  <m>
=

>  <Value>
2697700

>  <Unit>
nM

>  <Type>
IC50

>  <pValue>
0

>  <Ligand Efficiency>
0

>  <Binding Efficiency>
0

>  <Surface Efficiency>
0

>  <Assay Index>
425435

>  <Assay Category>


>  <Assay Organism>


>  <Target ID>
17045

>  <Target Name>
Cytochrome P450 3A4

>  <Target Organism>
Homo sapiens

>  <Target Description>
Target is a single protein chain

>  <Sequence Accession>
P08684

>  <Reference>
Eur J Med Chem 44 (7), 2913-2922 (2009)

>  <Pubmed ID>
19128860

>  <DOI>
10.1016/j.ejmech.2008.12.004

$$$$
556847
Actelion Java MolfileCreator 1.0

 13 14  0  0  0  0  0  0  0  0999 V2000
    0.0000   -0.0000   -0.0000 N   0  0  0  0  0  0  0  0  0  0  0  0
    1.2924    0.7588   -0.0000 C   0  0  0  0  0  0  0  0  0  0  0  0
   -0.0119   -1.4940   -0.0000 C   0  0  0  0  0  0  0  0  0  0  0  0
    1.2805    2.2765   -0.0000 N   0  0  0  0  0  0  0  0  0  0  0  0
    2.5848    0.0237   -0.0000 C   0  0  0  0  0  0  0  0  0  0  0  0
    1.2805   -2.2291   -0.0000 C   0  0  0  0  0  0  0  0  0  0  0  0
    2.5730    3.0354   -0.0000 C   0  0  0  0  0  0  0  0  0  0  0  0
    2.5730   -1.4703   -0.0000 C   0  0  0  0  0  0  0  0  0  0  0  0
    2.5611    4.5531   -0.0000 C   0  0  0  0  0  0  0  0  0  0  0  0
    3.8654    2.2884   -0.0000 C   0  0  0  0  0  0  0  0  0  0  0  0
    3.8535    5.3119   -0.0000 C   0  0  0  0  0  0  0  0  0  0  0  0
    5.1578    3.0472   -0.0000 C   0  0  0  0  0  0  0  0  0  0  0  0
    5.1459    4.5768   -0.0000 C   0  0  0  0  0  0  0  0  0  0  0  0
  1  2  2  0  0  0  0
  1  3  1  0  0  0  0
  2  4  1  0  0  0  0
  2  5  1  0  0  0  0
  3  6  2  0  0  0  0
  4  7  1  0  0  0  0
  5  8  2  0  0  0  0
  7  9  2  0  0  0  0
  7 10  1  0  0  0  0
  9 11  1  0  0  0  0
 10 12  2  0  0  0  0
 11 13  2  0  0  0  0
  6  8  1  0  0  0  0
 12 13  1  0  0  0  0
M  END
>  <MolRegNo>
556847

>  <m>
=

>  <Value>
430530

>  <Unit>
nM

>  <Type>
IC50

>  <pValue>
0

>  <Ligand Efficiency>
0

>  <Binding Efficiency>
0

>  <Surface Efficiency>
0

>  <Assay Index>
425435

>  <Assay Category>


>  <Assay Organism>


>  <Target ID>
17045

>  <Target Name>
Cytochrome P450 3A4

>  <Target Organism>
Homo sapiens

>  <Target Description>
Target is a single protein chain

>  <Sequence Accession>
P08684

>  <Reference>
Eur J Med Chem 44 (7), 2913-2922 (2009)

>  <Pubmed ID>
19128860

>  <DOI>
10.1016/j.ejmech.2008.12.004

$$$$
429662
Actelion Java MolfileCreator 1.0

 20 22  0  0  0  0  0  0  0  0999 V2000
    0.0000   -0.0000   -0.0000 S   0  0  0  0  0  0  0  0  0  0  0  0
   -0.0118   -1.4923   -0.0000 C   0  0  0  0  0  0  0  0  0  0  0  0
    1.2791   -2.2266   -0.0000 N   0  0  0  0  0  0  0  0  0  0  0  0
   -1.3265   -2.2266   -0.0000 N   0  0  0  0  0  0  0  0  0  0  0  0
    1.2673   -3.7189   -0.0000 C   0  0  0  0  0  0  0  0  0  0  0  0
    2.5819   -1.4568   -0.0000 C   0  0  0  0  0  0  0  0  0  0  0  0
   -2.6412   -1.4686   -0.0000 C   0  0  0  0  0  0  0  0  0  0  0  0
    2.5464   -4.4651   -0.0000 C   0  0  0  0  0  0  0  0  0  0  0  0
    3.8729   -2.2029   -0.0000 C   0  0  0  0  0  0  0  0  0  0  0  0
   -3.9440   -2.2029   -0.0000 C   0  0  0  0  0  0  0  0  0  0  0  0
   -2.6530    0.0474   -0.0000 C   0  0  0  0  0  0  0  0  0  0  0  0
    3.8492   -3.7071   -0.0000 C   0  0  0  0  0  0  0  0  0  0  0  0
   -5.2586   -1.4449   -0.0000 C   0  0  0  0  0  0  0  0  0  0  0  0
   -3.9558    0.8172   -0.0000 C   0  0  0  0  0  0  0  0  0  0  0  0
    5.1402   -4.4533   -0.0000 C   0  0  0  0  0  0  0  0  0  0  0  0
   -5.2705    0.0711   -0.0000 C   0  0  0  0  0  0  0  0  0  0  0  0
    5.2823   -5.9337   -0.0000 N   0  0  0  0  0  0  0  0  0  0  0  0
    6.5022   -3.8374   -0.0000 C   0  0  0  0  0  0  0  0  0  0  0  0
    6.7391   -6.2417   -0.0000 C   0  0  0  0  0  0  0  0  0  0  0  0
    7.4853   -4.9388   -0.0000 N   0  0  0  0  0  0  0  0  0  0  0  0
  1  2  2  0  0  0  0
  2  3  1  0  0  0  0
  2  4  1  0  0  0  0
  3  5  1  0  0  0  0
  3  6  1  0  0  0  0
  4  7  1  0  0  0  0
  5  8  1  0  0  0  0
  6  9  1  0  0  0  0
  7 10  1  0  0  0  0
  7 11  1  0  0  0  0
  8 12  1  0  0  0  0
 10 13  1  0  0  0  0
 11 14  1  0  0  0  0
 12 15  1  0  0  0  0
 13 16  1  0  0  0  0
 15 17  1  0  0  0  0
 15 18  2  0  0  0  0
 17 19  1  0  0  0  0
 18 20  1  0  0  0  0
  9 12  1  0  0  0  0
 14 16  1  0  0  0  0
 19 20  2  0  0  0  0
M  END
>  <MolRegNo>
429662

>  <m>
=

>  <Value>
6095.4

>  <Unit>
nM

>  <Type>
IC50

>  <pValue>
5.21

>  <Ligand Efficiency>
0

>  <Binding Efficiency>
0

>  <Surface Efficiency>
0

>  <Assay Index>
425435

>  <Assay Category>


>  <Assay Organism>


>  <Target ID>
17045

>  <Target Name>
Cytochrome P450 3A4

>  <Target Organism>
Homo sapiens

>  <Target Description>
Target is a single protein chain

>  <Sequence Accession>
P08684

>  <Reference>
Eur J Med Chem 44 (7), 2913-2922 (2009)

>  <Pubmed ID>
19128860

>  <DOI>
10.1016/j.ejmech.2008.12.004

$$$$
556754
Actelion Java MolfileCreator 1.0

 30 34  0  0  0  0  0  0  0  0999 V2000
    0.0000   -0.0000   -0.0000 O   0  0  0  0  0  0  0  0  0  0  0  0
   -1.3150   -0.7345   -0.0000 C   0  0  0  0  0  0  0  0  0  0  0  0
    1.2914   -0.7345   -0.0000 C   0  0  0  0  0  0  0  0  0  0  0  0
   -1.3269   -2.2273   -0.0000 C   0  0  0  0  0  0  0  0  0  0  0  0
   -2.6301    0.0237   -0.0000 C   0  0  0  0  0  0  0  0  0  0  0  0
    2.5827    0.0237   -0.0000 C   0  0  0  0  0  0  0  0  0  0  0  0
   -2.6419   -2.9618   -0.0000 C   0  0  0  0  0  0  0  0  0  0  0  0
   -3.9451   -0.7108   -0.0000 C   0  0  0  0  0  0  0  0  0  0  0  0
    3.8741   -0.7108   -0.0000 N   0  0  0  0  0  0  0  0  0  0  0  0
    2.5709    1.5401   -0.0000 C   0  0  0  0  0  0  0  0  0  0  0  0
   -3.9570   -2.2036   -0.0000 C   0  0  0  0  0  0  0  0  0  0  0  0
    5.1654    0.0474   -0.0000 C   0  0  0  0  0  0  0  0  0  0  0  0
    3.8622    2.2984   -0.0000 C   0  0  0  0  0  0  0  0  0  0  0  0
   -5.2720   -2.9381   -0.0000 C   0  0  0  0  0  0  0  0  0  0  0  0
    5.1536    1.5638   -0.0000 C   0  0  0  0  0  0  0  0  0  0  0  0
    6.4568   -0.6871   -0.0000 C   0  0  0  0  0  0  0  0  0  0  0  0
   -6.6582   -2.3102   -0.0000 N   0  0  0  0  0  0  0  0  0  0  0  0
   -5.4379   -4.4190   -0.0000 C   0  0  0  0  0  0  0  0  0  0  0  0
    6.4449    2.3221   -0.0000 C   0  0  0  0  0  0  0  0  0  0  0  0
    7.7481    0.0711   -0.0000 C   0  0  0  0  0  0  0  0  0  0  0  0
   -7.6770   -3.4120   -0.0000 N   0  0  0  0  0  0  0  0  0  0  0  0
   -6.9188   -4.7152   -0.0000 C   0  0  0  0  0  0  0  0  0  0  0  0
   -4.3361   -5.4142   -0.0000 C   0  0  0  0  0  0  0  0  0  0  0  0
    7.7363    1.5875   -0.0000 C   0  0  0  0  0  0  0  0  0  0  0  0
   -4.6560   -6.8714   -0.0000 C   0  0  0  0  0  0  0  0  0  0  0  0
   -3.5542   -7.8666   -0.0000 C   0  0  0  0  0  0  0  0  0  0  0  0
   -6.1014   -7.3216   -0.0000 C   0  0  0  0  0  0  0  0  0  0  0  0
   -3.8741   -9.3238   -0.0000 C   0  0  0  0  0  0  0  0  0  0  0  0
   -6.4212   -8.7788   -0.0000 C   0  0  0  0  0  0  0  0  0  0  0  0
   -5.3194   -9.7740   -0.0000 N   0  0  0  0  0  0  0  0  0  0  0  0
  1  2  1  0  0  0  0
  1  3  1  0  0  0  0
  2  4  2  0  0  0  0
  2  5  1  0  0  0  0
  3  6  1  0  0  0  0
  4  7  1  0  0  0  0
  5  8  2  0  0  0  0
  6  9  2  0  0  0  0
  6 10  1  0  0  0  0
  7 11  2  0  0  0  0
  9 12  1  0  0  0  0
 10 13  2  0  0  0  0
 11 14  1  0  0  0  0
 12 15  1  0  0  0  0
 12 16  2  0  0  0  0
 14 17  2  0  0  0  0
 14 18  1  0  0  0  0
 15 19  2  0  0  0  0
 16 20  1  0  0  0  0
 17 21  1  0  0  0  0
 18 22  2  0  0  0  0
 18 23  1  0  0  0  0
 19 24  1  0  0  0  0
 23 25  1  0  0  0  0
 25 26  2  0  0  0  0
 25 27  1  0  0  0  0
 26 28  1  0  0  0  0
 27 29  2  0  0  0  0
 28 30  2  0  0  0  0
  8 11  1  0  0  0  0
 13 15  1  0  0  0  0
 20 24  2  0  0  0  0
 21 22  1  0  0  0  0
 29 30  1  0  0  0  0
M  END
>  <MolRegNo>
556754

>  <m>
=

>  <Value>
450000

>  <Unit>
nM

>  <Type>
IC50

>  <pValue>
0

>  <Ligand Efficiency>
0

>  <Binding Efficiency>
0

>  <Surface Efficiency>
0

>  <Assay Index>
425503

>  <Assay Category>


>  <Assay Organism>


>  <Target ID>
17045

>  <Target Name>
Cytochrome P450 3A4

>  <Target Organism>
Homo sapiens

>  <Target Description>
Target is a single protein chain

>  <Sequence Accession>
P08684

>  <Reference>
J Med Chem 52 (16), 5188-5196 (2009)

>  <Pubmed ID>
19630403

>  <DOI>
10.1021/jm900521k

$$$$
560213
Actelion Java MolfileCreator 1.0

 32 35  0  0  0  0  0  0  0  0999 V2000
    0.0000   -0.0000   -0.0000 O   0  0  0  0  0  0  0  0  0  0  0  0
    1.3832    0.5556   -0.0000 C   0  0  0  0  0  0  0  0  0  0  0  0
    2.4708   -0.4492   -0.0000 N   0  0  0  0  0  0  0  0  0  0  0  0
    1.4778    2.0689   -0.0000 C   0  0  0  0  0  0  0  0  0  0  0  0
    3.9486   -0.2128   -0.0000 C   0  0  0  0  0  0  0  0  0  0  0  0
    2.0216   -1.8679   -0.0000 C   0  0  0  0  0  0  0  0  0  0  0  0
    0.1655    2.8255   -0.0000 N   0  0  0  0  0  0  0  0  0  0  0  0
    2.7072    2.9319   -0.0000 C   0  0  0  0  0  0  0  0  0  0  0  0
    4.6933    1.0994   -0.0000 C   0  0  0  0  0  0  0  0  0  0  0  0
    3.0264   -2.9555   -0.0000 C   0  0  0  0  0  0  0  0  0  0  0  0
    0.1537    4.3387   -0.0000 C   0  0  0  0  0  0  0  0  0  0  0  0
    4.1259    2.5063   -0.0000 C   0  0  0  0  0  0  0  0  0  0  0  0
    4.4805   -2.6127   -0.0000 O   0  0  0  0  0  0  0  0  0  0  0  0
    2.5772   -4.3741   -0.0000 N   0  0  0  0  0  0  0  0  0  0  0  0
   -1.1586    5.0953   -0.0000 N   0  0  0  0  0  0  0  0  0  0  0  0
    1.4423    5.0953   -0.0000 N   0  0  0  0  0  0  0  0  0  0  0  0
    3.4639   -5.5682   -0.0000 C   0  0  0  0  0  0  0  0  0  0  0  0
    1.1467   -4.8470   -0.0000 C   0  0  0  0  0  0  0  0  0  0  0  0
   -2.4708    4.3505   -0.0000 C   0  0  0  0  0  0  0  0  0  0  0  0
    2.7309    4.3505   -0.0000 C   0  0  0  0  0  0  0  0  0  0  0  0
    2.5890   -6.7858   -0.0000 C   0  0  0  0  0  0  0  0  0  0  0  0
    1.1586   -6.3366   -0.0000 C   0  0  0  0  0  0  0  0  0  0  0  0
   -3.7830    5.1071   -0.0000 C   0  0  0  0  0  0  0  0  0  0  0  0
   -2.4826    2.8609   -0.0000 C   0  0  0  0  0  0  0  0  0  0  0  0
    4.0195    3.6175   -0.0000 N   0  0  0  0  0  0  0  0  0  0  0  0
   -5.0953    4.3623   -0.0000 C   0  0  0  0  0  0  0  0  0  0  0  0
   -3.7949    2.1280   -0.0000 C   0  0  0  0  0  0  0  0  0  0  0  0
   -5.1071    2.8728   -0.0000 C   0  0  0  0  0  0  0  0  0  0  0  0
   -6.5376    4.8352   -0.0000 C   0  0  0  0  0  0  0  0  0  0  0  0
   -6.5494    2.4235   -0.0000 O   0  0  0  0  0  0  0  0  0  0  0  0
   -7.4361    3.6294   -0.0000 C   0  0  0  0  0  0  0  0  0  0  0  0
   -8.9493    3.6412   -0.0000 C   0  0  0  0  0  0  0  0  0  0  0  0
  1  2  2  0  0  0  0
  2  3  1  0  0  0  0
  2  4  1  0  0  0  0
  3  5  1  0  0  0  0
  3  6  1  0  0  0  0
  4  7  1  1  0  0  0
  4  8  1  0  0  0  0
  5  9  1  0  0  0  0
  6 10  1  0  0  0  0
  7 11  1  0  0  0  0
  8 12  1  0  0  0  0
 10 13  2  0  0  0  0
 10 14  1  0  0  0  0
 11 15  2  0  0  0  0
 11 16  1  0  0  0  0
 14 17  1  0  0  0  0
 14 18  1  0  0  0  0
 15 19  1  0  0  0  0
 16 20  1  0  0  0  0
 17 21  1  0  0  0  0
 18 22  1  0  0  0  0
 19 23  2  0  0  0  0
 19 24  1  0  0  0  0
 20 25  3  0  0  0  0
 23 26  1  0  0  0  0
 24 27  2  0  0  0  0
 26 28  2  0  0  0  0
 26 29  1  0  0  0  0
 28 30  1  0  0  0  0
 29 31  2  0  0  0  0
 31 32  1  0  0  0  0
  9 12  1  0  0  0  0
 21 22  1  0  0  0  0
 27 28  1  0  0  0  0
 30 31  1  0  0  0  0
M  END
>  <MolRegNo>
560213

>  <m>
=

>  <Value>
18500

>  <Unit>
nM

>  <Type>
IC50

>  <pValue>
4.73

>  <Ligand Efficiency>
0

>  <Binding Efficiency>
0

>  <Surface Efficiency>
0

>  <Assay Index>
425384

>  <Assay Category>


>  <Assay Organism>


>  <Target ID>
17045

>  <Target Name>
Cytochrome P450 3A4

>  <Target Organism>
Homo sapiens

>  <Target Description>
Target is a single protein chain

>  <Sequence Accession>
P08684

>  <Reference>
Bioorg Med Chem Lett 19 (15), 4034-4041 (2009)

>  <Pubmed ID>
19541481

>  <DOI>
10.1016/j.bmcl.2009.06.014

$$$$
555651
Actelion Java MolfileCreator 1.0

 41 45  0  0  0  0  0  0  0  0999 V2000
    0.0000   -0.0000   -0.0000 S   0  0  0  0  0  0  0  0  0  0  0  0
    0.2958   -1.4553   -0.0000 C   0  0  0  0  0  0  0  0  0  0  0  0
    1.2897    0.7572   -0.0000 C   0  0  0  0  0  0  0  0  0  0  0  0
    1.7748   -1.5973   -0.0000 N   0  0  0  0  0  0  0  0  0  0  0  0
   -0.7217   -2.5557   -0.0000 C   0  0  0  0  0  0  0  0  0  0  0  0
    2.3901   -0.2366   -0.0000 C   0  0  0  0  0  0  0  0  0  0  0  0
   -2.2007   -2.2362   -0.0000 C   0  0  0  0  0  0  0  0  0  0  0  0
   -0.2721   -3.9755   -0.0000 C   0  0  0  0  0  0  0  0  0  0  0  0
   -3.2183   -3.3366   -0.0000 C   0  0  0  0  0  0  0  0  0  0  0  0
   -1.2897   -5.0759   -0.0000 C   0  0  0  0  0  0  0  0  0  0  0  0
   -2.7687   -4.7565   -0.0000 C   0  0  0  0  0  0  0  0  0  0  0  0
   -3.7862   -5.8568   -0.0000 C   0  0  0  0  0  0  0  0  0  0  0  0
   -3.3366   -7.2767   -0.0000 N   0  0  0  0  0  0  0  0  0  0  0  0
   -1.9168   -7.7263   -0.0000 C   0  0  0  0  0  0  0  0  0  0  0  0
   -4.2358   -8.4835   -0.0000 C   0  0  0  0  0  0  0  0  0  0  0  0
   -1.9286   -9.2171   -0.0000 C   0  0  0  0  0  0  0  0  0  0  0  0
   -0.6271   -6.9690   -0.0000 C   0  0  0  0  0  0  0  0  0  0  0  0
   -3.3603   -9.6904   -0.0000 C   0  0  0  0  0  0  0  0  0  0  0  0
   -5.7503   -8.4717   -0.0000 C   0  0  0  0  0  0  0  0  0  0  0  0
   -0.6389   -9.9507   -0.0000 C   0  0  0  0  0  0  0  0  0  0  0  0
    0.6626   -7.7026   -0.0000 C   0  0  0  0  0  0  0  0  0  0  0  0
   -3.8336  -11.1102   -0.0000 S   0  0  0  0  0  0  0  0  0  0  0  0
   -6.5076   -7.1583   -0.0000 C   0  0  0  0  0  0  0  0  0  0  0  0
    0.6508   -9.1934   -0.0000 C   0  0  0  0  0  0  0  0  0  0  0  0
   -5.3126  -11.4060   -0.0000 C   0  0  0  0  0  0  0  0  0  0  0  0
   -7.8209   -7.8919   -0.0000 C   0  0  0  0  0  0  0  0  0  0  0  0
   -5.2179   -6.3893   -0.0000 C   0  0  0  0  0  0  0  0  0  0  0  0
   -7.2767   -5.8450   -0.0000 C   0  0  0  0  0  0  0  0  0  0  0  0
    1.9404   -9.9270   -0.0000 O   0  0  0  0  0  0  0  0  0  0  0  0
   -5.6320   -9.9270   -0.0000 C   0  0  0  0  0  0  0  0  0  0  0  0
   -5.0168  -12.8613   -0.0000 C   0  0  0  0  0  0  0  0  0  0  0  0
   -6.7915  -11.7018   -0.0000 C   0  0  0  0  0  0  0  0  0  0  0  0
   -7.8328   -9.3827   -0.0000 O   0  0  0  0  0  0  0  0  0  0  0  0
   -9.1343   -7.1347   -0.0000 O   0  0  0  0  0  0  0  0  0  0  0  0
    3.2301   -9.1698   -0.0000 C   0  0  0  0  0  0  0  0  0  0  0  0
    3.2183   -7.6553   -0.0000 C   0  0  0  0  0  0  0  0  0  0  0  0
    4.5080   -6.8980   -0.0000 N   0  0  0  0  0  0  0  0  0  0  0  0
    1.9049   -6.8980   -0.0000 C   0  0  0  0  0  0  0  0  0  0  0  0
    4.4961   -5.3835   -0.0000 C   0  0  0  0  0  0  0  0  0  0  0  0
    1.8931   -5.3835   -0.0000 C   0  0  0  0  0  0  0  0  0  0  0  0
    3.1828   -4.6145   -0.0000 C   0  0  0  0  0  0  0  0  0  0  0  0
  1  2  1  0  0  0  0
  1  3  1  0  0  0  0
  2  4  2  0  0  0  0
  2  5  1  0  0  0  0
  3  6  2  0  0  0  0
  5  7  2  0  0  0  0
  5  8  1  0  0  0  0
  7  9  1  0  0  0  0
  8 10  2  0  0  0  0
  9 11  2  0  0  0  0
 11 12  1  0  0  0  0
 12 13  1  0  0  0  0
 13 14  1  0  0  0  0
 13 15  1  0  0  0  0
 14 16  2  0  0  0  0
 14 17  1  0  0  0  0
 15 18  2  0  0  0  0
 15 19  1  0  0  0  0
 16 20  1  0  0  0  0
 17 21  2  0  0  0  0
 18 22  1  0  0  0  0
 19 23  1  0  0  0  0
 20 24  2  0  0  0  0
 22 25  1  0  0  0  0
 23 26  1  0  0  0  0
 23 27  1  0  0  0  0
 23 28  1  0  0  0  0
 24 29  1  0  0  0  0
 25 30  1  0  0  0  0
 25 31  1  0  0  0  0
 25 32  1  0  0  0  0
 26 33  2  0  0  0  0
 26 34  1  0  0  0  0
 29 35  1  0  0  0  0
 35 36  1  0  0  0  0
 36 37  2  0  0  0  0
 36 38  1  0  0  0  0
 37 39  1  0  0  0  0
 38 40  2  0  0  0  0
 39 41  2  0  0  0  0
  4  6  1  0  0  0  0
 10 11  1  0  0  0  0
 16 18  1  0  0  0  0
 21 24  1  0  0  0  0
 40 41  1  0  0  0  0
M  END
>  <MolRegNo>
555651

>  <m>
=

>  <Value>
1.4

>  <Unit>
nM

>  <Type>
IC50

>  <pValue>
8.85

>  <Ligand Efficiency>
0

>  <Binding Efficiency>
0

>  <Surface Efficiency>
0

>  <Assay Index>
428884

>  <Assay Category>


>  <Assay Organism>


>  <Target ID>
17045

>  <Target Name>
Cytochrome P450 3A4

>  <Target Organism>
Homo sapiens

>  <Target Description>
Target is a single protein chain

>  <Sequence Accession>
P08684

>  <Reference>
J Med Chem 52 (19), 5803-5815 (2009)

>  <Pubmed ID>
19739647

>  <DOI>
10.1021/jm900945d

$$$$
557376
Actelion Java MolfileCreator 1.0

 42 46  0  0  0  0  0  0  0  0999 V2000
    0.0000   -0.0000   -0.0000 S   0  0  0  0  0  0  0  0  0  0  0  0
    0.4483    1.4391   -0.0000 C   0  0  0  0  0  0  0  0  0  0  0  0
   -1.4745   -0.2949   -0.0000 C   0  0  0  0  0  0  0  0  0  0  0  0
    1.8638    1.9110   -0.0000 C   0  0  0  0  0  0  0  0  0  0  0  0
   -0.4483    2.6660   -0.0000 C   0  0  0  0  0  0  0  0  0  0  0  0
   -1.7930    1.1796   -0.0000 C   0  0  0  0  0  0  0  0  0  0  0  0
   -1.1796   -1.7459   -0.0000 C   0  0  0  0  0  0  0  0  0  0  0  0
   -2.9491   -0.5898   -0.0000 C   0  0  0  0  0  0  0  0  0  0  0  0
    1.8520    3.4209   -0.0000 C   0  0  0  0  0  0  0  0  0  0  0  0
    3.1496    1.1678   -0.0000 C   0  0  0  0  0  0  0  0  0  0  0  0
    0.4247    3.8928   -0.0000 N   0  0  0  0  0  0  0  0  0  0  0  0
   -1.9582    2.6778   -0.0000 C   0  0  0  0  0  0  0  0  0  0  0  0
    3.1378    4.1759   -0.0000 C   0  0  0  0  0  0  0  0  0  0  0  0
    4.4354    1.9228   -0.0000 C   0  0  0  0  0  0  0  0  0  0  0  0
   -0.0472    5.3319   -0.0000 C   0  0  0  0  0  0  0  0  0  0  0  0
   -2.7131    3.9871   -0.0000 C   0  0  0  0  0  0  0  0  0  0  0  0
    4.4236    3.4327   -0.0000 C   0  0  0  0  0  0  0  0  0  0  0  0
    5.7212    1.1796   -0.0000 O   0  0  0  0  0  0  0  0  0  0  0  0
    0.9437    6.4526   -0.0000 C   0  0  0  0  0  0  0  0  0  0  0  0
   -4.0225    3.2558   -0.0000 C   0  0  0  0  0  0  0  0  0  0  0  0
   -1.4274    4.7421   -0.0000 C   0  0  0  0  0  0  0  0  0  0  0  0
   -3.4681    5.2965   -0.0000 C   0  0  0  0  0  0  0  0  0  0  0  0
    7.0070    1.9346   -0.0000 C   0  0  0  0  0  0  0  0  0  0  0  0
    0.4719    7.8917   -0.0000 C   0  0  0  0  0  0  0  0  0  0  0  0
    2.3946    6.1577   -0.0000 C   0  0  0  0  0  0  0  0  0  0  0  0
   -4.0343    1.7694   -0.0000 O   0  0  0  0  0  0  0  0  0  0  0  0
   -5.3319    4.0107   -0.0000 O   0  0  0  0  0  0  0  0  0  0  0  0
    6.9952    3.4445   -0.0000 C   0  0  0  0  0  0  0  0  0  0  0  0
    1.4627    9.0124   -0.0000 C   0  0  0  0  0  0  0  0  0  0  0  0
    3.3855    7.2783   -0.0000 C   0  0  0  0  0  0  0  0  0  0  0  0
    8.2810    4.1995   -0.0000 N   0  0  0  0  0  0  0  0  0  0  0  0
    5.6858    4.1995   -0.0000 C   0  0  0  0  0  0  0  0  0  0  0  0
    2.9137    8.7175   -0.0000 C   0  0  0  0  0  0  0  0  0  0  0  0
    8.2692    5.7094   -0.0000 C   0  0  0  0  0  0  0  0  0  0  0  0
    5.6740    5.7094   -0.0000 C   0  0  0  0  0  0  0  0  0  0  0  0
    3.9046    9.8381   -0.0000 C   0  0  0  0  0  0  0  0  0  0  0  0
    6.9598    6.4644   -0.0000 C   0  0  0  0  0  0  0  0  0  0  0  0
    5.3555    9.5432   -0.0000 C   0  0  0  0  0  0  0  0  0  0  0  0
    3.4327   11.2773   -0.0000 C   0  0  0  0  0  0  0  0  0  0  0  0
    6.3464   10.6639   -0.0000 N   0  0  0  0  0  0  0  0  0  0  0  0
    4.4236   12.3979   -0.0000 C   0  0  0  0  0  0  0  0  0  0  0  0
    5.8746   12.1030   -0.0000 C   0  0  0  0  0  0  0  0  0  0  0  0
  1  2  1  0  0  0  0
  1  3  1  0  0  0  0
  2  4  1  0  0  0  0
  2  5  2  0  0  0  0
  3  6  1  0  0  0  0
  3  7  1  0  0  0  0
  3  8  1  0  0  0  0
  4  9  2  0  0  0  0
  4 10  1  0  0  0  0
  5 11  1  0  0  0  0
  5 12  1  0  0  0  0
  9 13  1  0  0  0  0
 10 14  2  0  0  0  0
 11 15  1  0  0  0  0
 12 16  1  0  0  0  0
 13 17  2  0  0  0  0
 14 18  1  0  0  0  0
 15 19  1  0  0  0  0
 16 20  1  0  0  0  0
 16 21  1  0  0  0  0
 16 22  1  0  0  0  0
 18 23  1  0  0  0  0
 19 24  2  0  0  0  0
 19 25  1  0  0  0  0
 20 26  2  0  0  0  0
 20 27  1  0  0  0  0
 23 28  1  0  0  0  0
 24 29  1  0  0  0  0
 25 30  2  0  0  0  0
 28 31  2  0  0  0  0
 28 32  1  0  0  0  0
 29 33  2  0  0  0  0
 31 34  1  0  0  0  0
 32 35  2  0  0  0  0
 33 36  1  0  0  0  0
 34 37  2  0  0  0  0
 36 38  2  0  0  0  0
 36 39  1  0  0  0  0
 38 40  1  0  0  0  0
 39 41  2  0  0  0  0
 40 42  2  0  0  0  0
  9 11  1  0  0  0  0
 14 17  1  0  0  0  0
 30 33  1  0  0  0  0
 35 37  1  0  0  0  0
 41 42  1  0  0  0  0
M  END
>  <MolRegNo>
557376

>  <m>
=

>  <Value>
4.7

>  <Unit>
nM

>  <Type>
IC50

>  <pValue>
8.33

>  <Ligand Efficiency>
0

>  <Binding Efficiency>
0

>  <Surface Efficiency>
0

>  <Assay Index>
428884

>  <Assay Category>


>  <Assay Organism>


>  <Target ID>
17045

>  <Target Name>
Cytochrome P450 3A4

>  <Target Organism>
Homo sapiens

>  <Target Description>
Target is a single protein chain

>  <Sequence Accession>
P08684

>  <Reference>
J Med Chem 52 (19), 5803-5815 (2009)

>  <Pubmed ID>
19739647

>  <DOI>
10.1021/jm900945d

$$$$
17620
Actelion Java MolfileCreator 1.0

 41 45  0  0  0  0  0  0  0  0999 V2000
    0.0000   -0.0000   -0.0000 Cl  0  0  0  0  0  0  0  0  0  0  0  0
   -1.4678    0.3207   -0.0000 C   0  0  0  0  0  0  0  0  0  0  0  0
   -1.9735    1.7391   -0.0000 C   0  0  0  0  0  0  0  0  0  0  0  0
   -2.4669   -0.7894   -0.0000 C   0  0  0  0  0  0  0  0  0  0  0  0
   -3.4413    2.0475   -0.0000 C   0  0  0  0  0  0  0  0  0  0  0  0
   -3.9470   -0.4810   -0.0000 C   0  0  0  0  0  0  0  0  0  0  0  0
   -4.4280    0.9497   -0.0000 C   0  0  0  0  0  0  0  0  0  0  0  0
   -5.9081    1.2704   -0.0000 C   0  0  0  0  0  0  0  0  0  0  0  0
   -6.4015    2.6889   -0.0000 N   0  0  0  0  0  0  0  0  0  0  0  0
   -7.8446    3.1452   -0.0000 C   0  0  0  0  0  0  0  0  0  0  0  0
   -5.5381    3.9223   -0.0000 C   0  0  0  0  0  0  0  0  0  0  0  0
   -7.8693    4.6624   -0.0000 C   0  0  0  0  0  0  0  0  0  0  0  0
   -9.1767    2.4052   -0.0000 C   0  0  0  0  0  0  0  0  0  0  0  0
   -6.4508    5.1311   -0.0000 C   0  0  0  0  0  0  0  0  0  0  0  0
   -4.0703    3.9346   -0.0000 C   0  0  0  0  0  0  0  0  0  0  0  0
   -9.1890    5.4148   -0.0000 C   0  0  0  0  0  0  0  0  0  0  0  0
  -10.4718    3.1699   -0.0000 C   0  0  0  0  0  0  0  0  0  0  0  0
   -6.0068    6.5742   -0.0000 S   0  0  0  0  0  0  0  0  0  0  0  0
   -3.1699    5.4148   -0.0000 C   0  0  0  0  0  0  0  0  0  0  0  0
  -10.4841    4.6870   -0.0000 C   0  0  0  0  0  0  0  0  0  0  0  0
   -7.0429    7.6966   -0.0000 C   0  0  0  0  0  0  0  0  0  0  0  0
   -2.0845    4.5267   -0.0000 C   0  0  0  0  0  0  0  0  0  0  0  0
   -4.1073    6.5495   -0.0000 C   0  0  0  0  0  0  0  0  0  0  0  0
   -1.9241    6.0068   -0.0000 C   0  0  0  0  0  0  0  0  0  0  0  0
  -11.7792    5.4394   -0.0000 O   0  0  0  0  0  0  0  0  0  0  0  0
   -6.5865    9.1397   -0.0000 C   0  0  0  0  0  0  0  0  0  0  0  0
   -8.5107    7.3882   -0.0000 C   0  0  0  0  0  0  0  0  0  0  0  0
   -5.7108    8.3873   -0.0000 C   0  0  0  0  0  0  0  0  0  0  0  0
   -2.2572    3.4043   -0.0000 O   0  0  0  0  0  0  0  0  0  0  0  0
   -0.5304    4.5390   -0.0000 O   0  0  0  0  0  0  0  0  0  0  0  0
  -13.0867    4.6994   -0.0000 C   0  0  0  0  0  0  0  0  0  0  0  0
  -14.4064    5.4764   -0.0000 C   0  0  0  0  0  0  0  0  0  0  0  0
  -15.7139    4.7364   -0.0000 N   0  0  0  0  0  0  0  0  0  0  0  0
  -14.3941    6.9935   -0.0000 C   0  0  0  0  0  0  0  0  0  0  0  0
  -17.0337    5.5258   -0.0000 C   0  0  0  0  0  0  0  0  0  0  0  0
  -15.6892    7.7583   -0.0000 C   0  0  0  0  0  0  0  0  0  0  0  0
  -17.0213    7.0429   -0.0000 C   0  0  0  0  0  0  0  0  0  0  0  0
  -18.3411    4.7857   -0.0000 C   0  0  0  0  0  0  0  0  0  0  0  0
  -18.3411    7.8076   -0.0000 C   0  0  0  0  0  0  0  0  0  0  0  0
  -19.6609    5.5628   -0.0000 C   0  0  0  0  0  0  0  0  0  0  0  0
  -19.6485    7.0799   -0.0000 C   0  0  0  0  0  0  0  0  0  0  0  0
  1  2  1  0  0  0  0
  2  3  2  0  0  0  0
  2  4  1  0  0  0  0
  3  5  1  0  0  0  0
  4  6  2  0  0  0  0
  5  7  2  0  0  0  0
  7  8  1  0  0  0  0
  8  9  1  0  0  0  0
  9 10  1  0  0  0  0
  9 11  1  0  0  0  0
 10 12  2  0  0  0  0
 10 13  1  0  0  0  0
 11 14  2  0  0  0  0
 11 15  1  0  0  0  0
 12 16  1  0  0  0  0
 13 17  2  0  0  0  0
 14 18  1  0  0  0  0
 15 19  1  0  0  0  0
 16 20  2  0  0  0  0
 18 21  1  0  0  0  0
 19 22  1  0  0  0  0
 19 23  1  0  0  0  0
 19 24  1  0  0  0  0
 20 25  1  0  0  0  0
 21 26  1  0  0  0  0
 21 27  1  0  0  0  0
 21 28  1  0  0  0  0
 22 29  2  0  0  0  0
 22 30  1  0  0  0  0
 25 31  1  0  0  0  0
 31 32  1  0  0  0  0
 32 33  2  0  0  0  0
 32 34  1  0  0  0  0
 33 35  1  0  0  0  0
 34 36  2  0  0  0  0
 35 37  1  0  0  0  0
 35 38  2  0  0  0  0
 37 39  2  0  0  0  0
 38 40  1  0  0  0  0
 39 41  1  0  0  0  0
  6  7  1  0  0  0  0
 12 14  1  0  0  0  0
 17 20  1  0  0  0  0
 36 37  1  0  0  0  0
 40 41  2  0  0  0  0
M  END
>  <MolRegNo>
17620

>  <m>
=

>  <Value>
5.8

>  <Unit>
nM

>  <Type>
IC50

>  <pValue>
8.24

>  <Ligand Efficiency>
0

>  <Binding Efficiency>
0

>  <Surface Efficiency>
0

>  <Assay Index>
428884

>  <Assay Category>


>  <Assay Organism>


>  <Target ID>
17045

>  <Target Name>
Cytochrome P450 3A4

>  <Target Organism>
Homo sapiens

>  <Target Description>
Target is a single protein chain

>  <Sequence Accession>
P08684

>  <Reference>
J Med Chem 52 (19), 5803-5815 (2009)

>  <Pubmed ID>
19739647

>  <DOI>
10.1021/jm900945d

$$$$
57287
Actelion Java MolfileCreator 1.0

 37 40  0  0  0  0  0  0  0  0999 V2000
    0.0000   -0.0000   -0.0000 Cl  0  0  0  0  0  0  0  0  0  0  0  0
   -1.2794    0.7444   -0.0000 C   0  0  0  0  0  0  0  0  0  0  0  0
   -1.3027    2.2216   -0.0000 C   0  0  0  0  0  0  0  0  0  0  0  0
   -2.5705    0.0233   -0.0000 C   0  0  0  0  0  0  0  0  0  0  0  0
   -2.5705    2.9776   -0.0000 C   0  0  0  0  0  0  0  0  0  0  0  0
   -3.8499    0.7677   -0.0000 C   0  0  0  0  0  0  0  0  0  0  0  0
   -3.8383    2.2448   -0.0000 C   0  0  0  0  0  0  0  0  0  0  0  0
   -5.1177    2.9892   -0.0000 C   0  0  0  0  0  0  0  0  0  0  0  0
   -5.1294    4.4780   -0.0000 N   0  0  0  0  0  0  0  0  0  0  0  0
   -6.4204    5.2340   -0.0000 C   0  0  0  0  0  0  0  0  0  0  0  0
   -3.8848    5.2224   -0.0000 C   0  0  0  0  0  0  0  0  0  0  0  0
   -6.4321    6.7228   -0.0000 C   0  0  0  0  0  0  0  0  0  0  0  0
   -7.6999    4.5013   -0.0000 C   0  0  0  0  0  0  0  0  0  0  0  0
   -3.8965    6.6996   -0.0000 C   0  0  0  0  0  0  0  0  0  0  0  0
   -2.6287    4.5013   -0.0000 C   0  0  0  0  0  0  0  0  0  0  0  0
   -7.7115    7.4672   -0.0000 C   0  0  0  0  0  0  0  0  0  0  0  0
   -8.9909    5.2457   -0.0000 C   0  0  0  0  0  0  0  0  0  0  0  0
   -2.8729    7.7464   -0.0000 S   0  0  0  0  0  0  0  0  0  0  0  0
   -1.6051    5.5481   -0.0000 C   0  0  0  0  0  0  0  0  0  0  0  0
   -9.0025    6.7461   -0.0000 C   0  0  0  0  0  0  0  0  0  0  0  0
   -3.2567    9.1886   -0.0000 C   0  0  0  0  0  0  0  0  0  0  0  0
   -0.3955    4.8967   -0.0000 C   0  0  0  0  0  0  0  0  0  0  0  0
   -2.0238    6.9904   -0.0000 C   0  0  0  0  0  0  0  0  0  0  0  0
   -0.1396    6.0831   -0.0000 C   0  0  0  0  0  0  0  0  0  0  0  0
  -10.2820    7.4672   -0.0000 O   0  0  0  0  0  0  0  0  0  0  0  0
   -4.6757    9.5725   -0.0000 C   0  0  0  0  0  0  0  0  0  0  0  0
   -1.7912    9.2003   -0.0000 C   0  0  0  0  0  0  0  0  0  0  0  0
   -2.2216   10.2355   -0.0000 C   0  0  0  0  0  0  0  0  0  0  0  0
   -0.4769    3.5243   -0.0000 O   0  0  0  0  0  0  0  0  0  0  0  0
    1.0352    5.1643   -0.0000 O   0  0  0  0  0  0  0  0  0  0  0  0
  -11.5730    6.7461   -0.0000 C   0  0  0  0  0  0  0  0  0  0  0  0
  -12.8525    7.4789   -0.0000 C   0  0  0  0  0  0  0  0  0  0  0  0
  -12.8641    8.9560   -0.0000 N   0  0  0  0  0  0  0  0  0  0  0  0
  -14.1203    6.7461   -0.0000 C   0  0  0  0  0  0  0  0  0  0  0  0
  -14.1552    9.7004   -0.0000 C   0  0  0  0  0  0  0  0  0  0  0  0
  -15.3997    7.4789   -0.0000 C   0  0  0  0  0  0  0  0  0  0  0  0
  -15.4230    8.9677   -0.0000 C   0  0  0  0  0  0  0  0  0  0  0  0
  1  2  1  0  0  0  0
  2  3  2  0  0  0  0
  2  4  1  0  0  0  0
  3  5  1  0  0  0  0
  4  6  2  0  0  0  0
  5  7  2  0  0  0  0
  7  8  1  0  0  0  0
  8  9  1  0  0  0  0
  9 10  1  0  0  0  0
  9 11  1  0  0  0  0
 10 12  2  0  0  0  0
 10 13  1  0  0  0  0
 11 14  2  0  0  0  0
 11 15  1  0  0  0  0
 12 16  1  0  0  0  0
 13 17  2  0  0  0  0
 14 18  1  0  0  0  0
 15 19  1  0  0  0  0
 16 20  2  0  0  0  0
 18 21  1  0  0  0  0
 19 22  1  0  0  0  0
 19 23  1  0  0  0  0
 19 24  1  0  0  0  0
 20 25  1  0  0  0  0
 21 26  1  0  0  0  0
 21 27  1  0  0  0  0
 21 28  1  0  0  0  0
 22 29  2  0  0  0  0
 22 30  1  0  0  0  0
 25 31  1  0  0  0  0
 31 32  1  0  0  0  0
 32 33  2  0  0  0  0
 32 34  1  0  0  0  0
 33 35  1  0  0  0  0
 34 36  2  0  0  0  0
 35 37  2  0  0  0  0
  6  7  1  0  0  0  0
 12 14  1  0  0  0  0
 17 20  1  0  0  0  0
 36 37  1  0  0  0  0
M  END
>  <MolRegNo>
57287

>  <m>
=

>  <Value>
11.5

>  <Unit>
nM

>  <Type>
IC50

>  <pValue>
7.94

>  <Ligand Efficiency>
0

>  <Binding Efficiency>
0

>  <Surface Efficiency>
0

>  <Assay Index>
428884

>  <Assay Category>


>  <Assay Organism>


>  <Target ID>
17045

>  <Target Name>
Cytochrome P450 3A4

>  <Target Organism>
Homo sapiens

>  <Target Description>
Target is a single protein chain

>  <Sequence Accession>
P08684

>  <Reference>
J Med Chem 52 (19), 5803-5815 (2009)

>  <Pubmed ID>
19739647

>  <DOI>
10.1021/jm900945d

$$$$
559105
Actelion Java MolfileCreator 1.0

 44 48  0  0  0  0  0  0  0  0999 V2000
    0.0000   -0.0000   -0.0000 S   0  0  0  0  0  0  0  0  0  0  0  0
    0.4479    1.4380   -0.0000 C   0  0  0  0  0  0  0  0  0  0  0  0
   -1.4733   -0.2947   -0.0000 C   0  0  0  0  0  0  0  0  0  0  0  0
    1.8623    1.9095   -0.0000 C   0  0  0  0  0  0  0  0  0  0  0  0
   -0.4479    2.6638   -0.0000 C   0  0  0  0  0  0  0  0  0  0  0  0
   -1.7916    1.1787   -0.0000 C   0  0  0  0  0  0  0  0  0  0  0  0
   -1.1787   -1.7444   -0.0000 C   0  0  0  0  0  0  0  0  0  0  0  0
   -2.9467   -0.5893   -0.0000 C   0  0  0  0  0  0  0  0  0  0  0  0
    1.8505    3.4182   -0.0000 C   0  0  0  0  0  0  0  0  0  0  0  0
    3.1471    1.1669   -0.0000 C   0  0  0  0  0  0  0  0  0  0  0  0
    0.4243    3.8896   -0.0000 N   0  0  0  0  0  0  0  0  0  0  0  0
   -1.9566    2.6756   -0.0000 C   0  0  0  0  0  0  0  0  0  0  0  0
    3.1353    4.1843   -0.0000 C   0  0  0  0  0  0  0  0  0  0  0  0
    4.4318    1.9330   -0.0000 C   0  0  0  0  0  0  0  0  0  0  0  0
   -0.0471    5.3276   -0.0000 C   0  0  0  0  0  0  0  0  0  0  0  0
   -2.7110    3.9839   -0.0000 C   0  0  0  0  0  0  0  0  0  0  0  0
    4.4200    3.4417   -0.0000 C   0  0  0  0  0  0  0  0  0  0  0  0
    5.7166    1.1905   -0.0000 O   0  0  0  0  0  0  0  0  0  0  0  0
    0.9429    6.4474   -0.0000 C   0  0  0  0  0  0  0  0  0  0  0  0
   -4.0193    3.2414   -0.0000 C   0  0  0  0  0  0  0  0  0  0  0  0
   -1.4262    4.7501   -0.0000 C   0  0  0  0  0  0  0  0  0  0  0  0
   -3.4653    5.2923   -0.0000 C   0  0  0  0  0  0  0  0  0  0  0  0
    7.0014    1.9566   -0.0000 C   0  0  0  0  0  0  0  0  0  0  0  0
    0.4715    7.8854   -0.0000 C   0  0  0  0  0  0  0  0  0  0  0  0
    2.3927    6.1527   -0.0000 C   0  0  0  0  0  0  0  0  0  0  0  0
   -4.0311    1.7562   -0.0000 O   0  0  0  0  0  0  0  0  0  0  0  0
   -5.3276    4.0075   -0.0000 O   0  0  0  0  0  0  0  0  0  0  0  0
    6.9896    3.4653   -0.0000 C   0  0  0  0  0  0  0  0  0  0  0  0
    1.4616    9.0051   -0.0000 C   0  0  0  0  0  0  0  0  0  0  0  0
    3.3828    7.2724   -0.0000 C   0  0  0  0  0  0  0  0  0  0  0  0
    8.2743    4.2315   -0.0000 N   0  0  0  0  0  0  0  0  0  0  0  0
    5.6812    4.2315   -0.0000 C   0  0  0  0  0  0  0  0  0  0  0  0
    2.9113    8.7104   -0.0000 C   0  0  0  0  0  0  0  0  0  0  0  0
    8.2625    5.7402   -0.0000 C   0  0  0  0  0  0  0  0  0  0  0  0
    5.6694    5.7402   -0.0000 C   0  0  0  0  0  0  0  0  0  0  0  0
    3.9014    9.8302   -0.0000 C   0  0  0  0  0  0  0  0  0  0  0  0
    6.9542    6.4945   -0.0000 C   0  0  0  0  0  0  0  0  0  0  0  0
    3.4300   11.2682   -0.0000 N   0  0  0  0  0  0  0  0  0  0  0  0
    5.3512    9.5355   -0.0000 C   0  0  0  0  0  0  0  0  0  0  0  0
    4.4200   12.3879   -0.0000 N   0  0  0  0  0  0  0  0  0  0  0  0
    6.3413   10.6553   -0.0000 C   0  0  0  0  0  0  0  0  0  0  0  0
    5.8698   12.0932   -0.0000 C   0  0  0  0  0  0  0  0  0  0  0  0
    6.8599   13.2130   -0.0000 O   0  0  0  0  0  0  0  0  0  0  0  0
    6.3884   14.6510   -0.0000 C   0  0  0  0  0  0  0  0  0  0  0  0
  1  2  1  0  0  0  0
  1  3  1  0  0  0  0
  2  4  1  0  0  0  0
  2  5  2  0  0  0  0
  3  6  1  0  0  0  0
  3  7  1  0  0  0  0
  3  8  1  0  0  0  0
  4  9  2  0  0  0  0
  4 10  1  0  0  0  0
  5 11  1  0  0  0  0
  5 12  1  0  0  0  0
  9 13  1  0  0  0  0
 10 14  2  0  0  0  0
 11 15  1  0  0  0  0
 12 16  1  0  0  0  0
 13 17  2  0  0  0  0
 14 18  1  0  0  0  0
 15 19  1  0  0  0  0
 16 20  1  0  0  0  0
 16 21  1  0  0  0  0
 16 22  1  0  0  0  0
 18 23  1  0  0  0  0
 19 24  2  0  0  0  0
 19 25  1  0  0  0  0
 20 26  2  0  0  0  0
 20 27  1  0  0  0  0
 23 28  1  0  0  0  0
 24 29  1  0  0  0  0
 25 30  2  0  0  0  0
 28 31  2  0  0  0  0
 28 32  1  0  0  0  0
 29 33  2  0  0  0  0
 31 34  1  0  0  0  0
 32 35  2  0  0  0  0
 33 36  1  0  0  0  0
 34 37  2  0  0  0  0
 36 38  2  0  0  0  0
 36 39  1  0  0  0  0
 38 40  1  0  0  0  0
 39 41  2  0  0  0  0
 40 42  2  0  0  0  0
 42 43  1  0  0  0  0
 43 44  1  0  0  0  0
  9 11  1  0  0  0  0
 14 17  1  0  0  0  0
 30 33  1  0  0  0  0
 35 37  1  0  0  0  0
 41 42  1  0  0  0  0
M  END
>  <MolRegNo>
559105

>  <m>
=

>  <Value>
15.1

>  <Unit>
nM

>  <Type>
IC50

>  <pValue>
7.82

>  <Ligand Efficiency>
0

>  <Binding Efficiency>
0

>  <Surface Efficiency>
0

>  <Assay Index>
428884

>  <Assay Category>


>  <Assay Organism>


>  <Target ID>
17045

>  <Target Name>
Cytochrome P450 3A4

>  <Target Organism>
Homo sapiens

>  <Target Description>
Target is a single protein chain

>  <Sequence Accession>
P08684

>  <Reference>
J Med Chem 52 (19), 5803-5815 (2009)

>  <Pubmed ID>
19739647

>  <DOI>
10.1021/jm900945d

$$$$
557248
Actelion Java MolfileCreator 1.0

 29 32  0  0  1  0  0  0  0  0999 V2000
    0.0000   -0.0000   -0.0000 S   0  0  0  0  0  0  0  0  0  0  0  0
    0.2955    1.4773   -0.0000 O   0  0  0  0  0  0  0  0  0  0  0  0
   -0.3191   -1.4537   -0.0000 O   0  0  0  0  0  0  0  0  0  0  0  0
    1.4537   -0.2955   -0.0000 N   0  0  0  0  0  0  0  0  0  0  0  0
   -1.4773    0.3191   -0.0000 C   0  0  0  0  0  0  0  0  0  0  0  0
    2.4465    0.8273   -0.0000 C   0  0  0  0  0  0  0  0  0  0  0  0
    1.9028   -1.7137   -0.0000 C   0  0  0  0  0  0  0  0  0  0  0  0
   -2.4937   -0.7800   -0.0000 C   0  0  0  0  0  0  0  0  0  0  0  0
   -1.9501    1.7610   -0.0000 C   0  0  0  0  0  0  0  0  0  0  0  0
    3.9002    0.5318   -0.0000 C   0  0  0  0  0  0  0  0  0  0  0  0
    1.9737    2.2692   -0.0000 C   0  0  0  0  0  0  0  0  0  0  0  0
   -3.9711   -0.4609   -0.0000 C   0  0  0  0  0  0  0  0  0  0  0  0
   -3.4274    2.0801   -0.0000 C   0  0  0  0  0  0  0  0  0  0  0  0
    4.8929    1.6546   -0.0000 N   0  0  0  0  0  0  0  0  0  0  0  0
    2.9665    3.3920   -0.0000 C   0  0  0  0  0  0  0  0  0  0  0  0
   -4.4438    0.9810   -0.0000 C   0  0  0  0  0  0  0  0  0  0  0  0
    6.3821    1.6664   -0.0000 C   0  0  0  0  0  0  0  0  0  0  0  0
    4.4202    3.0965   -0.0000 C   0  0  0  0  0  0  0  0  0  0  0  0
   -5.9212    1.3001   -0.0000 F   0  0  0  0  0  0  0  0  0  0  0  0
    6.8312    3.1083   -0.0000 C   0  0  0  0  0  0  0  0  0  0  0  0
    7.3749    0.5673   -0.0000 C   0  0  0  0  0  0  0  0  0  0  0  0
    5.6257    3.9947   -0.0000 C   0  0  0  0  0  0  0  0  0  0  0  0
    8.2849    3.4274   -0.0000 C   0  0  0  0  0  0  0  0  0  0  0  0
    8.8286    0.8864   -0.0000 C   0  0  0  0  0  0  0  0  0  0  0  0
    5.6139    5.5075   -0.0000 C   0  0  0  0  0  0  0  0  0  0  0  0
    9.2777    2.3283   -0.0000 C   0  0  0  0  0  0  0  0  0  0  0  0
    6.9021    6.2757   -0.0000 C   0  0  0  0  0  0  0  0  0  0  0  0
    6.8903    7.7885   -0.0000 O   0  0  0  0  0  0  0  0  0  0  0  0
    8.1903    5.5311   -0.0000 O   0  0  0  0  0  0  0  0  0  0  0  0
  1  2  2  0  0  0  0
  1  3  2  0  0  0  0
  1  4  1  0  0  0  0
  1  5  1  0  0  0  0
  6  4  1  6  0  0  0
  4  7  1  0  0  0  0
  5  8  2  0  0  0  0
  5  9  1  0  0  0  0
  6 10  1  0  0  0  0
  6 11  1  0  0  0  0
  8 12  1  0  0  0  0
  9 13  2  0  0  0  0
 10 14  1  0  0  0  0
 11 15  1  0  0  0  0
 12 16  2  0  0  0  0
 14 17  1  0  0  0  0
 14 18  1  0  0  0  0
 16 19  1  0  0  0  0
 17 20  2  0  0  0  0
 17 21  1  0  0  0  0
 18 22  2  0  0  0  0
 20 23  1  0  0  0  0
 21 24  2  0  0  0  0
 22 25  1  0  0  0  0
 23 26  2  0  0  0  0
 25 27  1  0  0  0  0
 27 28  2  0  0  0  0
 27 29  1  0  0  0  0
 13 16  1  0  0  0  0
 15 18  1  0  0  0  0
 20 22  1  0  0  0  0
 24 26  1  0  0  0  0
M  END
>  <MolRegNo>
557248

>  <m>
=

>  <Value>
7000

>  <Unit>
nM

>  <Type>
IC50

>  <pValue>
5.16

>  <Ligand Efficiency>
0

>  <Binding Efficiency>
0

>  <Surface Efficiency>
0

>  <Assay Index>
426491

>  <Assay Category>


>  <Assay Organism>
Homo sapiens

>  <Target ID>
17045

>  <Target Name>
Cytochrome P450 3A4

>  <Target Organism>
Homo sapiens

>  <Target Description>
Target is a single protein chain

>  <Sequence Accession>
P08684

>  <Reference>
Bioorg Med Chem Lett 19 (16), 4647-4651 (2009)

>  <Pubmed ID>
19608418

>  <DOI>
10.1016/j.bmcl.2009.06.085

$$$$
557249
Actelion Java MolfileCreator 1.0

 29 32  0  0  0  0  0  0  0  0999 V2000
    0.0000   -0.0000   -0.0000 S   0  0  0  0  0  0  0  0  0  0  0  0
   -0.0237    1.5071   -0.0000 O   0  0  0  0  0  0  0  0  0  0  0  0
    1.4715    0.0119   -0.0000 O   0  0  0  0  0  0  0  0  0  0  0  0
   -1.4952    0.1543   -0.0000 N   0  0  0  0  0  0  0  0  0  0  0  0
    0.6052   -1.3528   -0.0000 C   0  0  0  0  0  0  0  0  0  0  0  0
   -2.1241    1.5308   -0.0000 C   0  0  0  0  0  0  0  0  0  0  0  0
   -2.3733   -1.0561   -0.0000 C   0  0  0  0  0  0  0  0  0  0  0  0
   -0.2848   -2.5513   -0.0000 C   0  0  0  0  0  0  0  0  0  0  0  0
    2.0767   -1.4715   -0.0000 C   0  0  0  0  0  0  0  0  0  0  0  0
   -3.6312    1.6851   -0.0000 C   0  0  0  0  0  0  0  0  0  0  0  0
   -1.2697    2.7649   -0.0000 C   0  0  0  0  0  0  0  0  0  0  0  0
    0.3204   -3.9041   -0.0000 C   0  0  0  0  0  0  0  0  0  0  0  0
    2.6937   -2.8124   -0.0000 C   0  0  0  0  0  0  0  0  0  0  0  0
   -4.2601    3.0497   -0.0000 C   0  0  0  0  0  0  0  0  0  0  0  0
   -1.9105    4.1415   -0.0000 C   0  0  0  0  0  0  0  0  0  0  0  0
    1.8037   -4.0347   -0.0000 C   0  0  0  0  0  0  0  0  0  0  0  0
   -5.7198    3.5244   -0.0000 C   0  0  0  0  0  0  0  0  0  0  0  0
   -3.4057    4.2839   -0.0000 C   0  0  0  0  0  0  0  0  0  0  0  0
    2.4089   -5.3875   -0.0000 F   0  0  0  0  0  0  0  0  0  0  0  0
   -5.7435    5.0433   -0.0000 N   0  0  0  0  0  0  0  0  0  0  0  0
   -7.0370    2.7887   -0.0000 C   0  0  0  0  0  0  0  0  0  0  0  0
   -4.3076    5.5062   -0.0000 C   0  0  0  0  0  0  0  0  0  0  0  0
   -7.0607    5.7910   -0.0000 C   0  0  0  0  0  0  0  0  0  0  0  0
   -8.3423    3.5481   -0.0000 C   0  0  0  0  0  0  0  0  0  0  0  0
   -3.8685    6.9420   -0.0000 C   0  0  0  0  0  0  0  0  0  0  0  0
   -8.3542    5.0552   -0.0000 C   0  0  0  0  0  0  0  0  0  0  0  0
   -2.4208    7.2743   -0.0000 C   0  0  0  0  0  0  0  0  0  0  0  0
   -1.4240    6.1826   -0.0000 O   0  0  0  0  0  0  0  0  0  0  0  0
   -1.9817    8.7102   -0.0000 O   0  0  0  0  0  0  0  0  0  0  0  0
  1  2  2  0  0  0  0
  1  3  2  0  0  0  0
  1  4  1  0  0  0  0
  1  5  1  0  0  0  0
  6  4  1  6  0  0  0
  4  7  1  0  0  0  0
  5  8  2  0  0  0  0
  5  9  1  0  0  0  0
  6 10  1  0  0  0  0
  6 11  1  0  0  0  0
  8 12  1  0  0  0  0
  9 13  2  0  0  0  0
 10 14  1  0  0  0  0
 11 15  1  0  0  0  0
 12 16  2  0  0  0  0
 14 17  2  0  0  0  0
 14 18  1  0  0  0  0
 16 19  1  0  0  0  0
 17 20  1  0  0  0  0
 17 21  1  0  0  0  0
 18 22  2  0  0  0  0
 20 23  1  0  0  0  0
 21 24  2  0  0  0  0
 22 25  1  0  0  0  0
 23 26  2  0  0  0  0
 25 27  1  0  0  0  0
 27 28  2  0  0  0  0
 27 29  1  0  0  0  0
 13 16  1  0  0  0  0
 15 18  1  0  0  0  0
 20 22  1  0  0  0  0
 24 26  1  0  0  0  0
M  END
>  <MolRegNo>
557249

>  <m>
=

>  <Value>
11000

>  <Unit>
nM

>  <Type>
IC50

>  <pValue>
4.96

>  <Ligand Efficiency>
0

>  <Binding Efficiency>
0

>  <Surface Efficiency>
0

>  <Assay Index>
426491

>  <Assay Category>


>  <Assay Organism>
Homo sapiens

>  <Target ID>
17045

>  <Target Name>
Cytochrome P450 3A4

>  <Target Organism>
Homo sapiens

>  <Target Description>
Target is a single protein chain

>  <Sequence Accession>
P08684

>  <Reference>
Bioorg Med Chem Lett 19 (16), 4647-4651 (2009)

>  <Pubmed ID>
19608418

>  <DOI>
10.1016/j.bmcl.2009.06.085

$$$$
564274
Actelion Java MolfileCreator 1.0

 23 25  0  0  0  0  0  0  0  0999 V2000
    0.0000   -0.0000   -0.0000 F   0  0  0  0  0  0  0  0  0  0  0  0
   -1.3154   -0.7466   -0.0000 C   0  0  0  0  0  0  0  0  0  0  0  0
   -2.6307    0.0237   -0.0000 F   0  0  0  0  0  0  0  0  0  0  0  0
   -1.3272    0.7703   -0.0000 F   0  0  0  0  0  0  0  0  0  0  0  0
   -1.3272   -2.2397   -0.0000 C   0  0  0  0  0  0  0  0  0  0  0  0
   -0.0356   -2.9744   -0.0000 C   0  0  0  0  0  0  0  0  0  0  0  0
   -2.6426   -2.9744   -0.0000 C   0  0  0  0  0  0  0  0  0  0  0  0
    1.2561   -2.2160   -0.0000 C   0  0  0  0  0  0  0  0  0  0  0  0
   -0.0474   -4.4675   -0.0000 C   0  0  0  0  0  0  0  0  0  0  0  0
   -2.6544   -4.4675   -0.0000 C   0  0  0  0  0  0  0  0  0  0  0  0
    1.2443   -0.6992   -0.0000 O   0  0  0  0  0  0  0  0  0  0  0  0
    2.5478   -2.9507   -0.0000 N   0  0  0  0  0  0  0  0  0  0  0  0
   -1.3628   -5.2022   -0.0000 C   0  0  0  0  0  0  0  0  0  0  0  0
    2.5359   -4.4438   -0.0000 C   0  0  0  0  0  0  0  0  0  0  0  0
    3.8394   -2.1923   -0.0000 C   0  0  0  0  0  0  0  0  0  0  0  0
    3.7446   -5.3207   -0.0000 C   0  0  0  0  0  0  0  0  0  0  0  0
    1.3035   -5.3207   -0.0000 C   0  0  0  0  0  0  0  0  0  0  0  0
    5.1311   -2.9270   -0.0000 C   0  0  0  0  0  0  0  0  0  0  0  0
    3.2706   -6.7427   -0.0000 N   0  0  0  0  0  0  0  0  0  0  0  0
    1.7538   -6.7427   -0.0000 C   0  0  0  0  0  0  0  0  0  0  0  0
    5.5103   -4.3727   -0.0000 C   0  0  0  0  0  0  0  0  0  0  0  0
    6.5768   -2.5241   -0.0000 C   0  0  0  0  0  0  0  0  0  0  0  0
    6.9560   -3.9698   -0.0000 C   0  0  0  0  0  0  0  0  0  0  0  0
  1  2  1  0  0  0  0
  2  3  1  0  0  0  0
  2  4  1  0  0  0  0
  2  5  1  0  0  0  0
  5  6  2  0  0  0  0
  5  7  1  0  0  0  0
  6  8  1  0  0  0  0
  6  9  1  0  0  0  0
  7 10  2  0  0  0  0
  8 11  2  0  0  0  0
  8 12  1  0  0  0  0
  9 13  2  0  0  0  0
 14 12  1  6  0  0  0
 12 15  1  0  0  0  0
 14 16  1  0  0  0  0
 14 17  1  0  0  0  0
 15 18  1  0  0  0  0
 16 19  1  0  0  0  0
 17 20  1  0  0  0  0
 18 21  1  0  0  0  0
 18 22  1  0  0  0  0
 21 23  1  0  0  0  0
 10 13  1  0  0  0  0
 19 20  1  0  0  0  0
 22 23  1  0  0  0  0
M  END
>  <MolRegNo>
564274

>  <m>
=

>  <Value>
22000

>  <Unit>
nM

>  <Type>
IC50

>  <pValue>
4.66

>  <Ligand Efficiency>
0

>  <Binding Efficiency>
0

>  <Surface Efficiency>
0

>  <Assay Index>
427142

>  <Assay Category>


>  <Assay Organism>


>  <Target ID>
17045

>  <Target Name>
Cytochrome P450 3A4

>  <Target Organism>
Homo sapiens

>  <Target Description>
Target is a single protein chain

>  <Sequence Accession>
P08684

>  <Reference>
Bioorg Med Chem Lett 19 (16), 4579-4583 (2009)

>  <Pubmed ID>
19616432

>  <DOI>
10.1016/j.bmcl.2009.06.096

$$$$
566407
Actelion Java MolfileCreator 1.0

 39 43  0  0  0  0  0  0  0  0999 V2000
    0.0000   -0.0000   -0.0000 F   0  0  0  0  0  0  0  0  0  0  0  0
   -0.0119   -1.4947   -0.0000 C   0  0  0  0  0  0  0  0  0  0  0  0
   -1.5303   -1.4829   -0.0000 F   0  0  0  0  0  0  0  0  0  0  0  0
    1.4829   -1.4829   -0.0000 F   0  0  0  0  0  0  0  0  0  0  0  0
   -0.0237   -2.9895   -0.0000 C   0  0  0  0  0  0  0  0  0  0  0  0
    1.2693   -3.7250   -0.0000 C   0  0  0  0  0  0  0  0  0  0  0  0
   -1.3405   -3.7250   -0.0000 C   0  0  0  0  0  0  0  0  0  0  0  0
    1.2575   -5.2197   -0.0000 C   0  0  0  0  0  0  0  0  0  0  0  0
   -1.3524   -5.2197   -0.0000 C   0  0  0  0  0  0  0  0  0  0  0  0
   -0.0593   -5.9552   -0.0000 C   0  0  0  0  0  0  0  0  0  0  0  0
   -0.0712   -7.4500   -0.0000 N   0  0  0  0  0  0  0  0  0  0  0  0
    1.1388   -8.3278   -0.0000 C   0  0  0  0  0  0  0  0  0  0  0  0
   -1.3049   -8.3278   -0.0000 C   0  0  0  0  0  0  0  0  0  0  0  0
    0.6643   -9.7514   -0.0000 C   0  0  0  0  0  0  0  0  0  0  0  0
   -0.8541   -9.7514   -0.0000 C   0  0  0  0  0  0  0  0  0  0  0  0
    1.5422  -10.9614   -0.0000 C   0  0  0  0  0  0  0  0  0  0  0  0
    0.9135  -12.3257   -0.0000 N   0  0  0  0  0  0  0  0  0  0  0  0
   -0.5931  -12.4680   -0.0000 C   0  0  0  0  0  0  0  0  0  0  0  0
    1.7913  -13.5357   -0.0000 C   0  0  0  0  0  0  0  0  0  0  0  0
   -1.2219  -13.8323   -0.0000 C   0  0  0  0  0  0  0  0  0  0  0  0
    1.1626  -14.8999   -0.0000 C   0  0  0  0  0  0  0  0  0  0  0  0
   -0.3440  -15.0423   -0.0000 C   0  0  0  0  0  0  0  0  0  0  0  0
   -0.9728  -16.4065   -0.0000 N   0  0  0  0  0  0  0  0  0  0  0  0
   -0.0949  -17.6165   -0.0000 C   0  0  0  0  0  0  0  0  0  0  0  0
    1.3880  -17.4505   -0.0000 O   0  0  0  0  0  0  0  0  0  0  0  0
   -0.7236  -18.9808   -0.0000 N   0  0  0  0  0  0  0  0  0  0  0  0
    0.1542  -20.1908   -0.0000 C   0  0  0  0  0  0  0  0  0  0  0  0
   -0.4745  -21.5551   -0.0000 C   0  0  0  0  0  0  0  0  0  0  0  0
    1.6371  -20.0247   -0.0000 C   0  0  0  0  0  0  0  0  0  0  0  0
    0.4033  -22.7651   -0.0000 C   0  0  0  0  0  0  0  0  0  0  0  0
   -1.9811  -21.6974   -0.0000 C   0  0  0  0  0  0  0  0  0  0  0  0
    2.5150  -21.2348   -0.0000 N   0  0  0  0  0  0  0  0  0  0  0  0
   -0.2254  -24.1293   -0.0000 C   0  0  0  0  0  0  0  0  0  0  0  0
   -2.6099  -23.0617   -0.0000 C   0  0  0  0  0  0  0  0  0  0  0  0
    4.0097  -21.2229   -0.0000 C   0  0  0  0  0  0  0  0  0  0  0  0
    2.0404  -22.6583   -0.0000 C   0  0  0  0  0  0  0  0  0  0  0  0
   -1.7320  -24.2717   -0.0000 C   0  0  0  0  0  0  0  0  0  0  0  0
    4.4605  -22.6465   -0.0000 N   0  0  0  0  0  0  0  0  0  0  0  0
    3.2505  -23.5362   -0.0000 C   0  0  0  0  0  0  0  0  0  0  0  0
  1  2  1  0  0  0  0
  2  3  1  0  0  0  0
  2  4  1  0  0  0  0
  2  5  1  0  0  0  0
  5  6  2  0  0  0  0
  5  7  1  0  0  0  0
  6  8  1  0  0  0  0
  7  9  2  0  0  0  0
  8 10  2  0  0  0  0
 10 11  1  0  0  0  0
 11 12  1  0  0  0  0
 11 13  1  0  0  0  0
 12 14  2  0  0  0  0
 13 15  2  0  0  0  0
 14 16  1  0  0  0  0
 16 17  1  0  0  0  0
 17 18  1  0  0  0  0
 17 19  1  0  0  0  0
 18 20  1  0  0  0  0
 19 21  1  0  0  0  0
 20 22  1  0  0  0  0
 22 23  1  0  0  0  0
 23 24  1  0  0  0  0
 24 25  2  0  0  0  0
 24 26  1  0  0  0  0
 26 27  1  0  0  0  0
 27 28  1  0  0  0  0
 27 29  1  0  0  0  0
 28 30  2  0  0  0  0
 28 31  1  0  0  0  0
 29 32  1  0  0  0  0
 30 33  1  0  0  0  0
 31 34  2  0  0  0  0
 32 35  1  0  0  0  0
 32 36  1  0  0  0  0
 33 37  2  0  0  0  0
 35 38  2  0  0  0  0
 36 39  2  0  0  0  0
  9 10  1  0  0  0  0
 14 15  1  0  0  0  0
 21 22  1  0  0  0  0
 34 37  1  0  0  0  0
 38 39  1  0  0  0  0
M  END
>  <MolRegNo>
566407

>  <m>
=

>  <Value>
40

>  <Unit>
nM

>  <Type>
IC50

>  <pValue>
7.4

>  <Ligand Efficiency>
0

>  <Binding Efficiency>
0

>  <Surface Efficiency>
0

>  <Assay Index>
429223

>  <Assay Category>


>  <Assay Organism>
Homo sapiens

>  <Target ID>
17045

>  <Target Name>
Cytochrome P450 3A4

>  <Target Organism>
Homo sapiens

>  <Target Description>
Target is a single protein chain

>  <Sequence Accession>
P08684

>  <Reference>
Bioorg Med Chem Lett 19 (15), 4274-4279 (2009)

>  <Pubmed ID>
19500982

>  <DOI>
10.1016/j.bmcl.2009.05.066

$$$$
564644
Actelion Java MolfileCreator 1.0

 34 37  0  0  0  0  0  0  0  0999 V2000
    0.0000   -0.0000   -0.0000 F   0  0  0  0  0  0  0  0  0  0  0  0
    0.8757    1.2308   -0.0000 C   0  0  0  0  0  0  0  0  0  0  0  0
    2.0828    0.3550   -0.0000 F   0  0  0  0  0  0  0  0  0  0  0  0
   -0.3550    2.1302   -0.0000 F   0  0  0  0  0  0  0  0  0  0  0  0
    1.7515    2.4615   -0.0000 C   0  0  0  0  0  0  0  0  0  0  0  0
    1.1243    3.8462   -0.0000 C   0  0  0  0  0  0  0  0  0  0  0  0
    3.2308    2.3195   -0.0000 C   0  0  0  0  0  0  0  0  0  0  0  0
    2.0000    5.0769   -0.0000 C   0  0  0  0  0  0  0  0  0  0  0  0
    4.1065    3.5503   -0.0000 C   0  0  0  0  0  0  0  0  0  0  0  0
    3.4793    4.9349   -0.0000 C   0  0  0  0  0  0  0  0  0  0  0  0
    4.3550    6.1657   -0.0000 N   0  0  0  0  0  0  0  0  0  0  0  0
    3.8817    7.6095   -0.0000 C   0  0  0  0  0  0  0  0  0  0  0  0
    5.8462    6.1775   -0.0000 C   0  0  0  0  0  0  0  0  0  0  0  0
    5.0888    8.5089   -0.0000 C   0  0  0  0  0  0  0  0  0  0  0  0
    6.2959    7.6213   -0.0000 C   0  0  0  0  0  0  0  0  0  0  0  0
    5.0769   10.0237   -0.0000 C   0  0  0  0  0  0  0  0  0  0  0  0
    6.3669   10.7811   -0.0000 N   0  0  0  0  0  0  0  0  0  0  0  0
    6.3550   12.2959   -0.0000 C   0  0  0  0  0  0  0  0  0  0  0  0
    7.6568   10.0473   -0.0000 C   0  0  0  0  0  0  0  0  0  0  0  0
    7.6450   13.0533   -0.0000 C   0  0  0  0  0  0  0  0  0  0  0  0
    8.9467   10.8047   -0.0000 C   0  0  0  0  0  0  0  0  0  0  0  0
    8.9349   12.3077   -0.0000 C   0  0  0  0  0  0  0  0  0  0  0  0
   10.2248   13.0651   -0.0000 N   0  0  0  0  0  0  0  0  0  0  0  0
   11.5148   12.3195   -0.0000 C   0  0  0  0  0  0  0  0  0  0  0  0
   11.5030   10.8284   -0.0000 O   0  0  0  0  0  0  0  0  0  0  0  0
   12.8047   13.0769   -0.0000 N   0  0  0  0  0  0  0  0  0  0  0  0
   14.0947   12.3314   -0.0000 C   0  0  0  0  0  0  0  0  0  0  0  0
   15.3846   13.0888   -0.0000 C   0  0  0  0  0  0  0  0  0  0  0  0
   14.0828   10.8402   -0.0000 C   0  0  0  0  0  0  0  0  0  0  0  0
   16.6746   12.3432   -0.0000 N   0  0  0  0  0  0  0  0  0  0  0  0
   18.0355   12.9704   -0.0000 C   0  0  0  0  0  0  0  0  0  0  0  0
   16.8166   10.8639   -0.0000 C   0  0  0  0  0  0  0  0  0  0  0  0
   19.0296   11.8698   -0.0000 N   0  0  0  0  0  0  0  0  0  0  0  0
   18.2722   10.5680   -0.0000 C   0  0  0  0  0  0  0  0  0  0  0  0
  1  2  1  0  0  0  0
  2  3  1  0  0  0  0
  2  4  1  0  0  0  0
  2  5  1  0  0  0  0
  5  6  2  0  0  0  0
  5  7  1  0  0  0  0
  6  8  1  0  0  0  0
  7  9  2  0  0  0  0
  8 10  2  0  0  0  0
 10 11  1  0  0  0  0
 11 12  1  0  0  0  0
 11 13  1  0  0  0  0
 12 14  2  0  0  0  0
 13 15  2  0  0  0  0
 14 16  1  0  0  0  0
 16 17  1  0  0  0  0
 17 18  1  0  0  0  0
 17 19  1  0  0  0  0
 18 20  1  0  0  0  0
 19 21  1  0  0  0  0
 20 22  1  0  0  0  0
 22 23  1  0  0  0  0
 23 24  1  0  0  0  0
 24 25  2  0  0  0  0
 24 26  1  0  0  0  0
 26 27  1  0  0  0  0
 27 28  1  0  0  0  0
 27 29  1  0  0  0  0
 28 30  1  0  0  0  0
 30 31  1  0  0  0  0
 30 32  1  0  0  0  0
 31 33  2  0  0  0  0
 32 34  2  0  0  0  0
  9 10  1  0  0  0  0
 14 15  1  0  0  0  0
 21 22  1  0  0  0  0
 33 34  1  0  0  0  0
M  END
>  <MolRegNo>
564644

>  <m>
=

>  <Value>
320

>  <Unit>
nM

>  <Type>
IC50

>  <pValue>
6.5

>  <Ligand Efficiency>
0

>  <Binding Efficiency>
0

>  <Surface Efficiency>
0

>  <Assay Index>
429223

>  <Assay Category>


>  <Assay Organism>
Homo sapiens

>  <Target ID>
17045

>  <Target Name>
Cytochrome P450 3A4

>  <Target Organism>
Homo sapiens

>  <Target Description>
Target is a single protein chain

>  <Sequence Accession>
P08684

>  <Reference>
Bioorg Med Chem Lett 19 (15), 4274-4279 (2009)

>  <Pubmed ID>
19500982

>  <DOI>
10.1016/j.bmcl.2009.05.066

$$$$
566406
Actelion Java MolfileCreator 1.0

 39 43  0  0  0  0  0  0  0  0999 V2000
    0.0000   -0.0000   -0.0000 F   0  0  0  0  0  0  0  0  0  0  0  0
   -0.0119   -1.4947   -0.0000 C   0  0  0  0  0  0  0  0  0  0  0  0
   -1.5303   -1.4829   -0.0000 F   0  0  0  0  0  0  0  0  0  0  0  0
    1.4829   -1.4829   -0.0000 F   0  0  0  0  0  0  0  0  0  0  0  0
   -0.0237   -2.9895   -0.0000 C   0  0  0  0  0  0  0  0  0  0  0  0
    1.2693   -3.7250   -0.0000 C   0  0  0  0  0  0  0  0  0  0  0  0
   -1.3405   -3.7250   -0.0000 C   0  0  0  0  0  0  0  0  0  0  0  0
    1.2575   -5.2197   -0.0000 C   0  0  0  0  0  0  0  0  0  0  0  0
   -1.3524   -5.2197   -0.0000 C   0  0  0  0  0  0  0  0  0  0  0  0
   -0.0593   -5.9552   -0.0000 C   0  0  0  0  0  0  0  0  0  0  0  0
   -0.0712   -7.4500   -0.0000 N   0  0  0  0  0  0  0  0  0  0  0  0
    1.1388   -8.3278   -0.0000 C   0  0  0  0  0  0  0  0  0  0  0  0
   -1.3049   -8.3278   -0.0000 C   0  0  0  0  0  0  0  0  0  0  0  0
    0.6643   -9.7514   -0.0000 C   0  0  0  0  0  0  0  0  0  0  0  0
   -0.8541   -9.7514   -0.0000 C   0  0  0  0  0  0  0  0  0  0  0  0
    1.5422  -10.9614   -0.0000 C   0  0  0  0  0  0  0  0  0  0  0  0
    0.9135  -12.3257   -0.0000 N   0  0  0  0  0  0  0  0  0  0  0  0
   -0.5931  -12.4680   -0.0000 C   0  0  0  0  0  0  0  0  0  0  0  0
    1.7913  -13.5357   -0.0000 C   0  0  0  0  0  0  0  0  0  0  0  0
   -1.2219  -13.8323   -0.0000 C   0  0  0  0  0  0  0  0  0  0  0  0
    1.1626  -14.8999   -0.0000 C   0  0  0  0  0  0  0  0  0  0  0  0
   -0.3440  -15.0423   -0.0000 C   0  0  0  0  0  0  0  0  0  0  0  0
   -0.9728  -16.4065   -0.0000 N   0  0  0  0  0  0  0  0  0  0  0  0
   -0.0949  -17.6165   -0.0000 C   0  0  0  0  0  0  0  0  0  0  0  0
    1.3880  -17.4505   -0.0000 O   0  0  0  0  0  0  0  0  0  0  0  0
   -0.7236  -18.9808   -0.0000 N   0  0  0  0  0  0  0  0  0  0  0  0
    0.1542  -20.1908   -0.0000 C   0  0  0  0  0  0  0  0  0  0  0  0
   -0.4745  -21.5551   -0.0000 C   0  0  0  0  0  0  0  0  0  0  0  0
    1.6371  -20.0247   -0.0000 C   0  0  0  0  0  0  0  0  0  0  0  0
    0.4033  -22.7651   -0.0000 C   0  0  0  0  0  0  0  0  0  0  0  0
   -1.9811  -21.6974   -0.0000 C   0  0  0  0  0  0  0  0  0  0  0  0
    2.5150  -21.2348   -0.0000 N   0  0  0  0  0  0  0  0  0  0  0  0
   -0.2254  -24.1293   -0.0000 C   0  0  0  0  0  0  0  0  0  0  0  0
   -2.6099  -23.0617   -0.0000 C   0  0  0  0  0  0  0  0  0  0  0  0
    4.0097  -21.2229   -0.0000 N   0  0  0  0  0  0  0  0  0  0  0  0
    2.0404  -22.6583   -0.0000 C   0  0  0  0  0  0  0  0  0  0  0  0
   -1.7320  -24.2717   -0.0000 C   0  0  0  0  0  0  0  0  0  0  0  0
    4.4605  -22.6465   -0.0000 C   0  0  0  0  0  0  0  0  0  0  0  0
    3.2505  -23.5362   -0.0000 N   0  0  0  0  0  0  0  0  0  0  0  0
  1  2  1  0  0  0  0
  2  3  1  0  0  0  0
  2  4  1  0  0  0  0
  2  5  1  0  0  0  0
  5  6  2  0  0  0  0
  5  7  1  0  0  0  0
  6  8  1  0  0  0  0
  7  9  2  0  0  0  0
  8 10  2  0  0  0  0
 10 11  1  0  0  0  0
 11 12  1  0  0  0  0
 11 13  1  0  0  0  0
 12 14  2  0  0  0  0
 13 15  2  0  0  0  0
 14 16  1  0  0  0  0
 16 17  1  0  0  0  0
 17 18  1  0  0  0  0
 17 19  1  0  0  0  0
 18 20  1  0  0  0  0
 19 21  1  0  0  0  0
 20 22  1  0  0  0  0
 22 23  1  0  0  0  0
 23 24  1  0  0  0  0
 24 25  2  0  0  0  0
 24 26  1  0  0  0  0
 26 27  1  0  0  0  0
 27 28  1  0  0  0  0
 27 29  1  0  0  0  0
 28 30  2  0  0  0  0
 28 31  1  0  0  0  0
 29 32  1  0  0  0  0
 30 33  1  0  0  0  0
 31 34  2  0  0  0  0
 32 35  1  0  0  0  0
 32 36  1  0  0  0  0
 33 37  2  0  0  0  0
 35 38  2  0  0  0  0
 36 39  2  0  0  0  0
  9 10  1  0  0  0  0
 14 15  1  0  0  0  0
 21 22  1  0  0  0  0
 34 37  1  0  0  0  0
 38 39  1  0  0  0  0
M  END
>  <MolRegNo>
566406

>  <m>
=

>  <Value>
570

>  <Unit>
nM

>  <Type>
IC50

>  <pValue>
6.24

>  <Ligand Efficiency>
0

>  <Binding Efficiency>
0

>  <Surface Efficiency>
0

>  <Assay Index>
429223

>  <Assay Category>


>  <Assay Organism>
Homo sapiens

>  <Target ID>
17045

>  <Target Name>
Cytochrome P450 3A4

>  <Target Organism>
Homo sapiens

>  <Target Description>
Target is a single protein chain

>  <Sequence Accession>
P08684

>  <Reference>
Bioorg Med Chem Lett 19 (15), 4274-4279 (2009)

>  <Pubmed ID>
19500982

>  <DOI>
10.1016/j.bmcl.2009.05.066

$$$$
568250
Actelion Java MolfileCreator 1.0

 41 45  0  0  0  0  0  0  0  0999 V2000
    0.0000   -0.0000   -0.0000 F   0  0  0  0  0  0  0  0  0  0  0  0
   -0.0118   -1.4919   -0.0000 C   0  0  0  0  0  0  0  0  0  0  0  0
   -1.5274   -1.4801   -0.0000 F   0  0  0  0  0  0  0  0  0  0  0  0
    1.4801   -1.4801   -0.0000 F   0  0  0  0  0  0  0  0  0  0  0  0
   -0.0237   -2.9838   -0.0000 C   0  0  0  0  0  0  0  0  0  0  0  0
    1.2669   -3.7179   -0.0000 C   0  0  0  0  0  0  0  0  0  0  0  0
   -1.3380   -3.7179   -0.0000 C   0  0  0  0  0  0  0  0  0  0  0  0
    1.2551   -5.2099   -0.0000 C   0  0  0  0  0  0  0  0  0  0  0  0
   -1.3498   -5.2099   -0.0000 C   0  0  0  0  0  0  0  0  0  0  0  0
   -0.0592   -5.9440   -0.0000 C   0  0  0  0  0  0  0  0  0  0  0  0
   -0.0710   -7.4359   -0.0000 N   0  0  0  0  0  0  0  0  0  0  0  0
    1.1367   -8.3121   -0.0000 C   0  0  0  0  0  0  0  0  0  0  0  0
   -1.3025   -8.3121   -0.0000 C   0  0  0  0  0  0  0  0  0  0  0  0
    0.6631   -9.7330   -0.0000 C   0  0  0  0  0  0  0  0  0  0  0  0
   -0.8525   -9.7330   -0.0000 C   0  0  0  0  0  0  0  0  0  0  0  0
    1.5393  -10.9407   -0.0000 C   0  0  0  0  0  0  0  0  0  0  0  0
    3.0193  -10.7749   -0.0000 N   0  0  0  0  0  0  0  0  0  0  0  0
    3.8956  -11.9827   -0.0000 C   0  0  0  0  0  0  0  0  0  0  0  0
    3.6232   -9.3896   -0.0000 C   0  0  0  0  0  0  0  0  0  0  0  0
    5.3756  -11.8169   -0.0000 C   0  0  0  0  0  0  0  0  0  0  0  0
    5.1033   -9.2238   -0.0000 C   0  0  0  0  0  0  0  0  0  0  0  0
    5.9795  -10.4315   -0.0000 C   0  0  0  0  0  0  0  0  0  0  0  0
    7.4596  -10.2658   -0.0000 N   0  0  0  0  0  0  0  0  0  0  0  0
    8.0634   -8.8804   -0.0000 C   0  0  0  0  0  0  0  0  0  0  0  0
    9.5435   -8.7147   -0.0000 O   0  0  0  0  0  0  0  0  0  0  0  0
    7.1635   -7.6490   -0.0000 N   0  0  0  0  0  0  0  0  0  0  0  0
    7.7674   -6.2637   -0.0000 C   0  0  0  0  0  0  0  0  0  0  0  0
    9.2475   -6.0979   -0.0000 C   0  0  0  0  0  0  0  0  0  0  0  0
    6.8675   -5.0322   -0.0000 C   0  0  0  0  0  0  0  0  0  0  0  0
    9.8514   -4.7125   -0.0000 C   0  0  0  0  0  0  0  0  0  0  0  0
   10.1237   -7.3056   -0.0000 C   0  0  0  0  0  0  0  0  0  0  0  0
    7.4714   -3.6469   -0.0000 N   0  0  0  0  0  0  0  0  0  0  0  0
   11.3314   -4.5468   -0.0000 C   0  0  0  0  0  0  0  0  0  0  0  0
   11.6038   -7.1399   -0.0000 C   0  0  0  0  0  0  0  0  0  0  0  0
    8.9278   -3.3272   -0.0000 N   0  0  0  0  0  0  0  0  0  0  0  0
    6.7018   -2.3326   -0.0000 C   0  0  0  0  0  0  0  0  0  0  0  0
   12.2076   -5.7545   -0.0000 C   0  0  0  0  0  0  0  0  0  0  0  0
    9.0699   -1.8234   -0.0000 C   0  0  0  0  0  0  0  0  0  0  0  0
    7.6964   -1.2077   -0.0000 C   0  0  0  0  0  0  0  0  0  0  0  0
    5.1980   -2.1668   -0.0000 C   0  0  0  0  0  0  0  0  0  0  0  0
   10.3605   -1.0657   -0.0000 C   0  0  0  0  0  0  0  0  0  0  0  0
  1  2  1  0  0  0  0
  2  3  1  0  0  0  0
  2  4  1  0  0  0  0
  2  5  1  0  0  0  0
  5  6  2  0  0  0  0
  5  7  1  0  0  0  0
  6  8  1  0  0  0  0
  7  9  2  0  0  0  0
  8 10  2  0  0  0  0
 10 11  1  0  0  0  0
 11 12  1  0  0  0  0
 11 13  1  0  0  0  0
 12 14  2  0  0  0  0
 13 15  2  0  0  0  0
 14 16  1  0  0  0  0
 16 17  1  0  0  0  0
 17 18  1  0  0  0  0
 17 19  1  0  0  0  0
 18 20  1  0  0  0  0
 19 21  1  0  0  0  0
 20 22  1  0  0  0  0
 22 23  1  0  0  0  0
 23 24  1  0  0  0  0
 24 25  2  0  0  0  0
 24 26  1  0  0  0  0
 26 27  1  0  0  0  0
 27 28  1  0  0  0  0
 27 29  1  0  0  0  0
 28 30  2  0  0  0  0
 28 31  1  0  0  0  0
 29 32  1  0  0  0  0
 30 33  1  0  0  0  0
 31 34  2  0  0  0  0
 32 35  1  0  0  0  0
 32 36  1  0  0  0  0
 33 37  2  0  0  0  0
 35 38  2  0  0  0  0
 36 39  2  0  0  0  0
 36 40  1  0  0  0  0
 38 41  1  0  0  0  0
  9 10  1  0  0  0  0
 14 15  1  0  0  0  0
 21 22  1  0  0  0  0
 34 37  1  0  0  0  0
 38 39  1  0  0  0  0
M  END
>  <MolRegNo>
568250

>  <m>
=

>  <Value>
790

>  <Unit>
nM

>  <Type>
IC50

>  <pValue>
6.1

>  <Ligand Efficiency>
0

>  <Binding Efficiency>
0

>  <Surface Efficiency>
0

>  <Assay Index>
429223

>  <Assay Category>


>  <Assay Organism>
Homo sapiens

>  <Target ID>
17045

>  <Target Name>
Cytochrome P450 3A4

>  <Target Organism>
Homo sapiens

>  <Target Description>
Target is a single protein chain

>  <Sequence Accession>
P08684

>  <Reference>
Bioorg Med Chem Lett 19 (15), 4274-4279 (2009)

>  <Pubmed ID>
19500982

>  <DOI>
10.1016/j.bmcl.2009.05.066

$$$$
561120
Actelion Java MolfileCreator 1.0

 40 44  0  0  0  0  0  0  0  0999 V2000
    0.0000   -0.0000   -0.0000 F   0  0  0  0  0  0  0  0  0  0  0  0
   -0.0118   -1.4882   -0.0000 C   0  0  0  0  0  0  0  0  0  0  0  0
   -1.5236   -1.4764   -0.0000 F   0  0  0  0  0  0  0  0  0  0  0  0
    1.4764   -1.4764   -0.0000 F   0  0  0  0  0  0  0  0  0  0  0  0
   -0.0236   -2.9764   -0.0000 C   0  0  0  0  0  0  0  0  0  0  0  0
    1.2638   -3.7205   -0.0000 C   0  0  0  0  0  0  0  0  0  0  0  0
   -1.3346   -3.7205   -0.0000 C   0  0  0  0  0  0  0  0  0  0  0  0
    1.2520   -5.2086   -0.0000 C   0  0  0  0  0  0  0  0  0  0  0  0
   -1.3465   -5.2086   -0.0000 C   0  0  0  0  0  0  0  0  0  0  0  0
   -0.0591   -5.9409   -0.0000 C   0  0  0  0  0  0  0  0  0  0  0  0
   -0.0709   -7.4291   -0.0000 N   0  0  0  0  0  0  0  0  0  0  0  0
    1.1339   -8.3031   -0.0000 C   0  0  0  0  0  0  0  0  0  0  0  0
   -1.2992   -8.3031   -0.0000 C   0  0  0  0  0  0  0  0  0  0  0  0
    0.6614   -9.7204   -0.0000 C   0  0  0  0  0  0  0  0  0  0  0  0
   -0.8504   -9.7204   -0.0000 C   0  0  0  0  0  0  0  0  0  0  0  0
    1.5354  -10.9252   -0.0000 C   0  0  0  0  0  0  0  0  0  0  0  0
    0.9094  -12.2834   -0.0000 N   0  0  0  0  0  0  0  0  0  0  0  0
   -0.5905  -12.4252   -0.0000 C   0  0  0  0  0  0  0  0  0  0  0  0
    1.7835  -13.4881   -0.0000 C   0  0  0  0  0  0  0  0  0  0  0  0
   -1.2165  -13.7834   -0.0000 C   0  0  0  0  0  0  0  0  0  0  0  0
    1.1575  -14.8464   -0.0000 C   0  0  0  0  0  0  0  0  0  0  0  0
   -0.3425  -14.9881   -0.0000 C   0  0  0  0  0  0  0  0  0  0  0  0
   -0.9685  -16.3464   -0.0000 N   0  0  0  0  0  0  0  0  0  0  0  0
   -2.4685  -16.4881   -0.0000 C   0  0  0  0  0  0  0  0  0  0  0  0
   -3.0945  -17.8464   -0.0000 O   0  0  0  0  0  0  0  0  0  0  0  0
   -3.3661  -15.2598   -0.0000 N   0  0  0  0  0  0  0  0  0  0  0  0
   -4.8661  -15.4015   -0.0000 C   0  0  0  0  0  0  0  0  0  0  0  0
   -5.7638  -14.1732   -0.0000 C   0  0  0  0  0  0  0  0  0  0  0  0
   -5.4921  -16.7598   -0.0000 C   0  0  0  0  0  0  0  0  0  0  0  0
   -7.2638  -14.3149   -0.0000 C   0  0  0  0  0  0  0  0  0  0  0  0
   -5.1614  -12.7913   -0.0000 C   0  0  0  0  0  0  0  0  0  0  0  0
   -6.9921  -16.9015   -0.0000 N   0  0  0  0  0  0  0  0  0  0  0  0
   -8.1614  -13.0866   -0.0000 C   0  0  0  0  0  0  0  0  0  0  0  0
   -6.0590  -11.5630   -0.0000 C   0  0  0  0  0  0  0  0  0  0  0  0
   -7.7480  -18.1889   -0.0000 C   0  0  0  0  0  0  0  0  0  0  0  0
   -8.0078  -15.7795   -0.0000 C   0  0  0  0  0  0  0  0  0  0  0  0
   -7.5590  -11.7047   -0.0000 C   0  0  0  0  0  0  0  0  0  0  0  0
   -9.2244  -17.8700   -0.0000 N   0  0  0  0  0  0  0  0  0  0  0  0
   -7.1456  -19.5472   -0.0000 C   0  0  0  0  0  0  0  0  0  0  0  0
   -9.3897  -16.3818   -0.0000 C   0  0  0  0  0  0  0  0  0  0  0  0
  1  2  1  0  0  0  0
  2  3  1  0  0  0  0
  2  4  1  0  0  0  0
  2  5  1  0  0  0  0
  5  6  2  0  0  0  0
  5  7  1  0  0  0  0
  6  8  1  0  0  0  0
  7  9  2  0  0  0  0
  8 10  2  0  0  0  0
 10 11  1  0  0  0  0
 11 12  1  0  0  0  0
 11 13  1  0  0  0  0
 12 14  2  0  0  0  0
 13 15  2  0  0  0  0
 14 16  1  0  0  0  0
 16 17  1  0  0  0  0
 17 18  1  0  0  0  0
 17 19  1  0  0  0  0
 18 20  1  0  0  0  0
 19 21  1  0  0  0  0
 20 22  1  0  0  0  0
 22 23  1  0  0  0  0
 23 24  1  0  0  0  0
 24 25  2  0  0  0  0
 24 26  1  0  0  0  0
 26 27  1  0  0  0  0
 27 28  1  0  0  0  0
 27 29  1  0  0  0  0
 28 30  2  0  0  0  0
 28 31  1  0  0  0  0
 29 32  1  0  0  0  0
 30 33  1  0  0  0  0
 31 34  2  0  0  0  0
 32 35  1  0  0  0  0
 32 36  1  0  0  0  0
 33 37  2  0  0  0  0
 35 38  2  0  0  0  0
 35 39  1  0  0  0  0
 36 40  2  0  0  0  0
  9 10  1  0  0  0  0
 14 15  1  0  0  0  0
 21 22  1  0  0  0  0
 34 37  1  0  0  0  0
 38 40  1  0  0  0  0
M  END
>  <MolRegNo>
561120

>  <m>
=

>  <Value>
2020

>  <Unit>
nM

>  <Type>
IC50

>  <pValue>
5.7

>  <Ligand Efficiency>
0

>  <Binding Efficiency>
0

>  <Surface Efficiency>
0

>  <Assay Index>
429223

>  <Assay Category>


>  <Assay Organism>
Homo sapiens

>  <Target ID>
17045

>  <Target Name>
Cytochrome P450 3A4

>  <Target Organism>
Homo sapiens

>  <Target Description>
Target is a single protein chain

>  <Sequence Accession>
P08684

>  <Reference>
Bioorg Med Chem Lett 19 (15), 4274-4279 (2009)

>  <Pubmed ID>
19500982

>  <DOI>
10.1016/j.bmcl.2009.05.066

$$$$
562892
Actelion Java MolfileCreator 1.0

 40 45  0  0  0  0  0  0  0  0999 V2000
    0.0000   -0.0000   -0.0000 F   0  0  0  0  0  0  0  0  0  0  0  0
    0.8706    1.2236   -0.0000 C   0  0  0  0  0  0  0  0  0  0  0  0
    2.0707    0.3530   -0.0000 F   0  0  0  0  0  0  0  0  0  0  0  0
   -0.3530    2.1177   -0.0000 F   0  0  0  0  0  0  0  0  0  0  0  0
    1.7412    2.4471   -0.0000 C   0  0  0  0  0  0  0  0  0  0  0  0
    1.1177    3.8237   -0.0000 C   0  0  0  0  0  0  0  0  0  0  0  0
    3.2119    2.3060   -0.0000 C   0  0  0  0  0  0  0  0  0  0  0  0
    1.9883    5.0472   -0.0000 C   0  0  0  0  0  0  0  0  0  0  0  0
    4.0825    3.5295   -0.0000 C   0  0  0  0  0  0  0  0  0  0  0  0
    3.4589    4.9060   -0.0000 C   0  0  0  0  0  0  0  0  0  0  0  0
    4.3295    6.1296   -0.0000 N   0  0  0  0  0  0  0  0  0  0  0  0
    3.8589    7.5649   -0.0000 C   0  0  0  0  0  0  0  0  0  0  0  0
    5.8119    6.1414   -0.0000 C   0  0  0  0  0  0  0  0  0  0  0  0
    5.0590    8.4591   -0.0000 C   0  0  0  0  0  0  0  0  0  0  0  0
    6.2590    7.5767   -0.0000 C   0  0  0  0  0  0  0  0  0  0  0  0
    5.0472    9.9650   -0.0000 C   0  0  0  0  0  0  0  0  0  0  0  0
    3.7413   10.7298   -0.0000 N   0  0  0  0  0  0  0  0  0  0  0  0
    3.7295   12.2357   -0.0000 C   0  0  0  0  0  0  0  0  0  0  0  0
    2.4354    9.9886   -0.0000 C   0  0  0  0  0  0  0  0  0  0  0  0
    2.4236   13.0004   -0.0000 C   0  0  0  0  0  0  0  0  0  0  0  0
    1.1294   10.7533   -0.0000 C   0  0  0  0  0  0  0  0  0  0  0  0
    1.1177   12.2592   -0.0000 C   0  0  0  0  0  0  0  0  0  0  0  0
   -0.1882   13.0239   -0.0000 N   0  0  0  0  0  0  0  0  0  0  0  0
   -1.4942   12.2827   -0.0000 C   0  0  0  0  0  0  0  0  0  0  0  0
   -1.5059   10.8003   -0.0000 O   0  0  0  0  0  0  0  0  0  0  0  0
   -2.8001   13.0475   -0.0000 N   0  0  0  0  0  0  0  0  0  0  0  0
   -4.1060   12.3063   -0.0000 C   0  0  0  0  0  0  0  0  0  0  0  0
   -2.8119   14.5534   -0.0000 C   0  0  0  0  0  0  0  0  0  0  0  0
   -4.1178   10.8239   -0.0000 C   0  0  0  0  0  0  0  0  0  0  0  0
   -5.4119   13.0710   -0.0000 C   0  0  0  0  0  0  0  0  0  0  0  0
   -4.1178   15.3181   -0.0000 C   0  0  0  0  0  0  0  0  0  0  0  0
   -2.8354   10.0827   -0.0000 C   0  0  0  0  0  0  0  0  0  0  0  0
   -5.4237   10.0827   -0.0000 C   0  0  0  0  0  0  0  0  0  0  0  0
   -5.4237   14.5769   -0.0000 N   0  0  0  0  0  0  0  0  0  0  0  0
   -6.8473   12.6239   -0.0000 C   0  0  0  0  0  0  0  0  0  0  0  0
   -2.8471    8.6003   -0.0000 C   0  0  0  0  0  0  0  0  0  0  0  0
   -5.4355    8.6003   -0.0000 C   0  0  0  0  0  0  0  0  0  0  0  0
   -6.8590   15.0475   -0.0000 C   0  0  0  0  0  0  0  0  0  0  0  0
   -7.7414   13.8475   -0.0000 C   0  0  0  0  0  0  0  0  0  0  0  0
   -4.1531    7.8708   -0.0000 C   0  0  0  0  0  0  0  0  0  0  0  0
  1  2  1  0  0  0  0
  2  3  1  0  0  0  0
  2  4  1  0  0  0  0
  2  5  1  0  0  0  0
  5  6  2  0  0  0  0
  5  7  1  0  0  0  0
  6  8  1  0  0  0  0
  7  9  2  0  0  0  0
  8 10  2  0  0  0  0
 10 11  1  0  0  0  0
 11 12  1  0  0  0  0
 11 13  1  0  0  0  0
 12 14  2  0  0  0  0
 13 15  2  0  0  0  0
 14 16  1  0  0  0  0
 16 17  1  0  0  0  0
 17 18  1  0  0  0  0
 17 19  1  0  0  0  0
 18 20  1  0  0  0  0
 19 21  1  0  0  0  0
 20 22  1  0  0  0  0
 22 23  1  0  0  0  0
 23 24  1  0  0  0  0
 24 25  2  0  0  0  0
 24 26  1  0  0  0  0
 26 27  1  0  0  0  0
 26 28  1  0  0  0  0
 27 29  1  0  0  0  0
 27 30  1  0  0  0  0
 28 31  1  0  0  0  0
 29 32  2  0  0  0  0
 29 33  1  0  0  0  0
 30 34  1  0  0  0  0
 30 35  2  0  0  0  0
 32 36  1  0  0  0  0
 33 37  2  0  0  0  0
 34 38  1  0  0  0  0
 35 39  1  0  0  0  0
 36 40  2  0  0  0  0
  9 10  1  0  0  0  0
 14 15  1  0  0  0  0
 21 22  1  0  0  0  0
 31 34  1  0  0  0  0
 37 40  1  0  0  0  0
 38 39  2  0  0  0  0
M  END
>  <MolRegNo>
562892

>  <m>
=

>  <Value>
2490

>  <Unit>
nM

>  <Type>
IC50

>  <pValue>
5.6

>  <Ligand Efficiency>
0

>  <Binding Efficiency>
0

>  <Surface Efficiency>
0

>  <Assay Index>
429223

>  <Assay Category>


>  <Assay Organism>
Homo sapiens

>  <Target ID>
17045

>  <Target Name>
Cytochrome P450 3A4

>  <Target Organism>
Homo sapiens

>  <Target Description>
Target is a single protein chain

>  <Sequence Accession>
P08684

>  <Reference>
Bioorg Med Chem Lett 19 (15), 4274-4279 (2009)

>  <Pubmed ID>
19500982

>  <DOI>
10.1016/j.bmcl.2009.05.066

$$$$
555851
Actelion Java MolfileCreator 1.0

 40 44  0  0  0  0  0  0  0  0999 V2000
    0.0000   -0.0000   -0.0000 F   0  0  0  0  0  0  0  0  0  0  0  0
   -0.0119   -1.4958   -0.0000 C   0  0  0  0  0  0  0  0  0  0  0  0
   -1.5314   -1.4839   -0.0000 F   0  0  0  0  0  0  0  0  0  0  0  0
    1.4839   -1.4839   -0.0000 F   0  0  0  0  0  0  0  0  0  0  0  0
   -0.0237   -2.9915   -0.0000 C   0  0  0  0  0  0  0  0  0  0  0  0
    1.2702   -3.7275   -0.0000 C   0  0  0  0  0  0  0  0  0  0  0  0
   -1.3414   -3.7275   -0.0000 C   0  0  0  0  0  0  0  0  0  0  0  0
    1.2583   -5.2233   -0.0000 C   0  0  0  0  0  0  0  0  0  0  0  0
   -1.3533   -5.2233   -0.0000 C   0  0  0  0  0  0  0  0  0  0  0  0
   -0.0594   -5.9593   -0.0000 C   0  0  0  0  0  0  0  0  0  0  0  0
   -0.0712   -7.4551   -0.0000 N   0  0  0  0  0  0  0  0  0  0  0  0
    1.1396   -8.3336   -0.0000 C   0  0  0  0  0  0  0  0  0  0  0  0
   -1.3058   -8.3336   -0.0000 C   0  0  0  0  0  0  0  0  0  0  0  0
    0.6648   -9.7581   -0.0000 C   0  0  0  0  0  0  0  0  0  0  0  0
   -0.8547   -9.7581   -0.0000 C   0  0  0  0  0  0  0  0  0  0  0  0
    1.5433  -10.9690   -0.0000 C   0  0  0  0  0  0  0  0  0  0  0  0
    3.0271  -10.8028   -0.0000 N   0  0  0  0  0  0  0  0  0  0  0  0
    3.9056  -12.0136   -0.0000 C   0  0  0  0  0  0  0  0  0  0  0  0
    3.6326   -9.4138   -0.0000 C   0  0  0  0  0  0  0  0  0  0  0  0
    5.3895  -11.8474   -0.0000 C   0  0  0  0  0  0  0  0  0  0  0  0
    5.1165   -9.2476   -0.0000 C   0  0  0  0  0  0  0  0  0  0  0  0
    5.9949  -10.4585   -0.0000 C   0  0  0  0  0  0  0  0  0  0  0  0
    7.4788  -10.2923   -0.0000 N   0  0  0  0  0  0  0  0  0  0  0  0
    8.3573  -11.5032   -0.0000 C   0  0  0  0  0  0  0  0  0  0  0  0
    7.7281  -12.8683   -0.0000 O   0  0  0  0  0  0  0  0  0  0  0  0
    9.8412  -11.3370   -0.0000 N   0  0  0  0  0  0  0  0  0  0  0  0
   10.7197  -12.5478   -0.0000 C   0  0  0  0  0  0  0  0  0  0  0  0
   10.0905  -13.9130   -0.0000 C   0  0  0  0  0  0  0  0  0  0  0  0
   12.2036  -12.3816   -0.0000 C   0  0  0  0  0  0  0  0  0  0  0  0
   10.9690  -15.1239   -0.0000 C   0  0  0  0  0  0  0  0  0  0  0  0
    8.5829  -14.0555   -0.0000 C   0  0  0  0  0  0  0  0  0  0  0  0
   13.0820  -13.5925   -0.0000 C   0  0  0  0  0  0  0  0  0  0  0  0
   10.3398  -16.4891   -0.0000 C   0  0  0  0  0  0  0  0  0  0  0  0
    7.9537  -15.4206   -0.0000 C   0  0  0  0  0  0  0  0  0  0  0  0
   12.4529  -14.9577   -0.0000 N   0  0  0  0  0  0  0  0  0  0  0  0
   14.5659  -13.4263   -0.0000 C   0  0  0  0  0  0  0  0  0  0  0  0
    8.8321  -16.6315   -0.0000 C   0  0  0  0  0  0  0  0  0  0  0  0
   13.3313  -16.1685   -0.0000 C   0  0  0  0  0  0  0  0  0  0  0  0
   15.4444  -14.6371   -0.0000 N   0  0  0  0  0  0  0  0  0  0  0  0
   14.8152  -16.0023   -0.0000 C   0  0  0  0  0  0  0  0  0  0  0  0
  1  2  1  0  0  0  0
  2  3  1  0  0  0  0
  2  4  1  0  0  0  0
  2  5  1  0  0  0  0
  5  6  2  0  0  0  0
  5  7  1  0  0  0  0
  6  8  1  0  0  0  0
  7  9  2  0  0  0  0
  8 10  2  0  0  0  0
 10 11  1  0  0  0  0
 11 12  1  0  0  0  0
 11 13  1  0  0  0  0
 12 14  2  0  0  0  0
 13 15  2  0  0  0  0
 14 16  1  0  0  0  0
 16 17  1  0  0  0  0
 17 18  1  0  0  0  0
 17 19  1  0  0  0  0
 18 20  1  0  0  0  0
 19 21  1  0  0  0  0
 20 22  1  0  0  0  0
 22 23  1  0  0  0  0
 23 24  1  0  0  0  0
 24 25  2  0  0  0  0
 24 26  1  0  0  0  0
 26 27  1  0  0  0  0
 27 28  1  0  0  0  0
 27 29  1  0  0  0  0
 28 30  2  0  0  0  0
 28 31  1  0  0  0  0
 29 32  1  0  0  0  0
 30 33  1  0  0  0  0
 31 34  2  0  0  0  0
 32 35  2  0  0  0  0
 32 36  1  0  0  0  0
 33 37  2  0  0  0  0
 35 38  1  0  0  0  0
 36 39  2  0  0  0  0
 38 40  2  0  0  0  0
  9 10  1  0  0  0  0
 14 15  1  0  0  0  0
 21 22  1  0  0  0  0
 34 37  1  0  0  0  0
 39 40  1  0  0  0  0
M  END
>  <MolRegNo>
555851

>  <m>
=

>  <Value>
3220

>  <Unit>
nM

>  <Type>
IC50

>  <pValue>
5.49

>  <Ligand Efficiency>
0

>  <Binding Efficiency>
0

>  <Surface Efficiency>
0

>  <Assay Index>
429223

>  <Assay Category>


>  <Assay Organism>
Homo sapiens

>  <Target ID>
17045

>  <Target Name>
Cytochrome P450 3A4

>  <Target Organism>
Homo sapiens

>  <Target Description>
Target is a single protein chain

>  <Sequence Accession>
P08684

>  <Reference>
Bioorg Med Chem Lett 19 (15), 4274-4279 (2009)

>  <Pubmed ID>
19500982

>  <DOI>
10.1016/j.bmcl.2009.05.066

$$$$
568249
Actelion Java MolfileCreator 1.0

 39 43  0  0  0  0  0  0  0  0999 V2000
    0.0000   -0.0000   -0.0000 F   0  0  0  0  0  0  0  0  0  0  0  0
   -0.0119   -1.4942   -0.0000 C   0  0  0  0  0  0  0  0  0  0  0  0
   -1.5298   -1.4823   -0.0000 F   0  0  0  0  0  0  0  0  0  0  0  0
    1.4823   -1.4823   -0.0000 F   0  0  0  0  0  0  0  0  0  0  0  0
   -0.0237   -2.9884   -0.0000 C   0  0  0  0  0  0  0  0  0  0  0  0
    1.2689   -3.7355   -0.0000 C   0  0  0  0  0  0  0  0  0  0  0  0
   -1.3400   -3.7355   -0.0000 C   0  0  0  0  0  0  0  0  0  0  0  0
    1.2570   -5.2297   -0.0000 C   0  0  0  0  0  0  0  0  0  0  0  0
   -1.3519   -5.2297   -0.0000 C   0  0  0  0  0  0  0  0  0  0  0  0
   -0.0593   -5.9768   -0.0000 C   0  0  0  0  0  0  0  0  0  0  0  0
   -0.0712   -7.4710   -0.0000 N   0  0  0  0  0  0  0  0  0  0  0  0
    1.1384   -8.3485   -0.0000 C   0  0  0  0  0  0  0  0  0  0  0  0
   -1.3045   -8.3485   -0.0000 C   0  0  0  0  0  0  0  0  0  0  0  0
    0.6641   -9.7716   -0.0000 C   0  0  0  0  0  0  0  0  0  0  0  0
   -0.8538   -9.7716   -0.0000 C   0  0  0  0  0  0  0  0  0  0  0  0
    1.5416  -10.9811   -0.0000 C   0  0  0  0  0  0  0  0  0  0  0  0
    0.9131  -12.3449   -0.0000 N   0  0  0  0  0  0  0  0  0  0  0  0
   -0.5929  -12.4872   -0.0000 C   0  0  0  0  0  0  0  0  0  0  0  0
    1.7907  -13.5545   -0.0000 C   0  0  0  0  0  0  0  0  0  0  0  0
   -1.2214  -13.8509   -0.0000 C   0  0  0  0  0  0  0  0  0  0  0  0
    1.1622  -14.9182   -0.0000 C   0  0  0  0  0  0  0  0  0  0  0  0
   -0.3439  -15.0605   -0.0000 C   0  0  0  0  0  0  0  0  0  0  0  0
   -0.9724  -16.4243   -0.0000 N   0  0  0  0  0  0  0  0  0  0  0  0
   -0.0949  -17.6339   -0.0000 C   0  0  0  0  0  0  0  0  0  0  0  0
    1.3875  -17.4678   -0.0000 O   0  0  0  0  0  0  0  0  0  0  0  0
   -0.7234  -18.9976   -0.0000 N   0  0  0  0  0  0  0  0  0  0  0  0
    0.1542  -20.2072   -0.0000 C   0  0  0  0  0  0  0  0  0  0  0  0
   -0.4743  -21.5709   -0.0000 C   0  0  0  0  0  0  0  0  0  0  0  0
    1.6365  -20.0412   -0.0000 C   0  0  0  0  0  0  0  0  0  0  0  0
    0.4032  -22.7805   -0.0000 C   0  0  0  0  0  0  0  0  0  0  0  0
   -1.9804  -21.7133   -0.0000 C   0  0  0  0  0  0  0  0  0  0  0  0
    2.5140  -21.2508   -0.0000 N   0  0  0  0  0  0  0  0  0  0  0  0
   -0.2253  -24.1443   -0.0000 C   0  0  0  0  0  0  0  0  0  0  0  0
   -2.6089  -23.0770   -0.0000 C   0  0  0  0  0  0  0  0  0  0  0  0
    4.0082  -21.2389   -0.0000 N   0  0  0  0  0  0  0  0  0  0  0  0
    2.0397  -22.6738   -0.0000 C   0  0  0  0  0  0  0  0  0  0  0  0
   -1.7314  -24.2866   -0.0000 C   0  0  0  0  0  0  0  0  0  0  0  0
    4.4589  -22.6619   -0.0000 C   0  0  0  0  0  0  0  0  0  0  0  0
    3.2493  -23.5513   -0.0000 C   0  0  0  0  0  0  0  0  0  0  0  0
  1  2  1  0  0  0  0
  2  3  1  0  0  0  0
  2  4  1  0  0  0  0
  2  5  1  0  0  0  0
  5  6  2  0  0  0  0
  5  7  1  0  0  0  0
  6  8  1  0  0  0  0
  7  9  2  0  0  0  0
  8 10  2  0  0  0  0
 10 11  1  0  0  0  0
 11 12  1  0  0  0  0
 11 13  1  0  0  0  0
 12 14  2  0  0  0  0
 13 15  2  0  0  0  0
 14 16  1  0  0  0  0
 16 17  1  0  0  0  0
 17 18  1  0  0  0  0
 17 19  1  0  0  0  0
 18 20  1  0  0  0  0
 19 21  1  0  0  0  0
 20 22  1  0  0  0  0
 22 23  1  0  0  0  0
 23 24  1  0  0  0  0
 24 25  2  0  0  0  0
 24 26  1  0  0  0  0
 26 27  1  0  0  0  0
 27 28  1  0  0  0  0
 27 29  1  0  0  0  0
 28 30  2  0  0  0  0
 28 31  1  0  0  0  0
 29 32  1  0  0  0  0
 30 33  1  0  0  0  0
 31 34  2  0  0  0  0
 32 35  1  0  0  0  0
 32 36  1  0  0  0  0
 33 37  2  0  0  0  0
 35 38  2  0  0  0  0
 36 39  2  0  0  0  0
  9 10  1  0  0  0  0
 14 15  1  0  0  0  0
 21 22  1  0  0  0  0
 34 37  1  0  0  0  0
 38 39  1  0  0  0  0
M  END
>  <MolRegNo>
568249

>  <m>
=

>  <Value>
4400

>  <Unit>
nM

>  <Type>
IC50

>  <pValue>
5.36

>  <Ligand Efficiency>
0

>  <Binding Efficiency>
0

>  <Surface Efficiency>
0

>  <Assay Index>
429223

>  <Assay Category>


>  <Assay Organism>
Homo sapiens

>  <Target ID>
17045

>  <Target Name>
Cytochrome P450 3A4

>  <Target Organism>
Homo sapiens

>  <Target Description>
Target is a single protein chain

>  <Sequence Accession>
P08684

>  <Reference>
Bioorg Med Chem Lett 19 (15), 4274-4279 (2009)

>  <Pubmed ID>
19500982

>  <DOI>
10.1016/j.bmcl.2009.05.066

$$$$
555862
Actelion Java MolfileCreator 1.0

 38 42  0  0  0  0  0  0  0  0999 V2000
    0.0000   -0.0000   -0.0000 F   0  0  0  0  0  0  0  0  0  0  0  0
   -0.0119   -1.4944   -0.0000 C   0  0  0  0  0  0  0  0  0  0  0  0
   -1.5300   -1.4825   -0.0000 F   0  0  0  0  0  0  0  0  0  0  0  0
    1.4825   -1.4825   -0.0000 F   0  0  0  0  0  0  0  0  0  0  0  0
   -0.0237   -2.9888   -0.0000 C   0  0  0  0  0  0  0  0  0  0  0  0
    1.2691   -3.7241   -0.0000 C   0  0  0  0  0  0  0  0  0  0  0  0
   -1.3402   -3.7241   -0.0000 C   0  0  0  0  0  0  0  0  0  0  0  0
    1.2572   -5.2185   -0.0000 C   0  0  0  0  0  0  0  0  0  0  0  0
   -1.3521   -5.2185   -0.0000 C   0  0  0  0  0  0  0  0  0  0  0  0
   -0.0593   -5.9539   -0.0000 C   0  0  0  0  0  0  0  0  0  0  0  0
   -0.0712   -7.4483   -0.0000 N   0  0  0  0  0  0  0  0  0  0  0  0
    1.1386   -8.3259   -0.0000 C   0  0  0  0  0  0  0  0  0  0  0  0
   -1.3046   -8.3259   -0.0000 C   0  0  0  0  0  0  0  0  0  0  0  0
    0.6642   -9.7492   -0.0000 C   0  0  0  0  0  0  0  0  0  0  0  0
   -0.8539   -9.7492   -0.0000 C   0  0  0  0  0  0  0  0  0  0  0  0
    1.5418  -10.9589   -0.0000 C   0  0  0  0  0  0  0  0  0  0  0  0
    0.9132  -12.3229   -0.0000 N   0  0  0  0  0  0  0  0  0  0  0  0
   -0.5930  -12.4652   -0.0000 C   0  0  0  0  0  0  0  0  0  0  0  0
    1.7909  -13.5326   -0.0000 C   0  0  0  0  0  0  0  0  0  0  0  0
   -1.2216  -13.8291   -0.0000 C   0  0  0  0  0  0  0  0  0  0  0  0
    1.1623  -14.8966   -0.0000 C   0  0  0  0  0  0  0  0  0  0  0  0
   -0.3439  -15.0389   -0.0000 C   0  0  0  0  0  0  0  0  0  0  0  0
   -0.9725  -16.4028   -0.0000 N   0  0  0  0  0  0  0  0  0  0  0  0
   -0.0949  -17.6126   -0.0000 C   0  0  0  0  0  0  0  0  0  0  0  0
    1.3877  -17.4465   -0.0000 O   0  0  0  0  0  0  0  0  0  0  0  0
   -0.7235  -18.9765   -0.0000 N   0  0  0  0  0  0  0  0  0  0  0  0
    0.1542  -20.1863   -0.0000 C   0  0  0  0  0  0  0  0  0  0  0  0
   -0.4744  -21.5502   -0.0000 C   0  0  0  0  0  0  0  0  0  0  0  0
    1.6367  -20.0202   -0.0000 C   0  0  0  0  0  0  0  0  0  0  0  0
    0.4033  -22.7599   -0.0000 C   0  0  0  0  0  0  0  0  0  0  0  0
   -1.9807  -21.6925   -0.0000 C   0  0  0  0  0  0  0  0  0  0  0  0
    2.3839  -18.7037   -0.0000 N   0  0  0  0  0  0  0  0  0  0  0  0
    2.6330  -21.1232   -0.0000 N   0  0  0  0  0  0  0  0  0  0  0  0
   -0.2253  -24.1239   -0.0000 C   0  0  0  0  0  0  0  0  0  0  0  0
   -2.6093  -23.0565   -0.0000 C   0  0  0  0  0  0  0  0  0  0  0  0
    3.8427  -19.0002   -0.0000 C   0  0  0  0  0  0  0  0  0  0  0  0
    3.9969  -20.4946   -0.0000 C   0  0  0  0  0  0  0  0  0  0  0  0
   -1.7316  -24.2662   -0.0000 C   0  0  0  0  0  0  0  0  0  0  0  0
  1  2  1  0  0  0  0
  2  3  1  0  0  0  0
  2  4  1  0  0  0  0
  2  5  1  0  0  0  0
  5  6  2  0  0  0  0
  5  7  1  0  0  0  0
  6  8  1  0  0  0  0
  7  9  2  0  0  0  0
  8 10  2  0  0  0  0
 10 11  1  0  0  0  0
 11 12  1  0  0  0  0
 11 13  1  0  0  0  0
 12 14  2  0  0  0  0
 13 15  2  0  0  0  0
 14 16  1  0  0  0  0
 16 17  1  0  0  0  0
 17 18  1  0  0  0  0
 17 19  1  0  0  0  0
 18 20  1  0  0  0  0
 19 21  1  0  0  0  0
 20 22  1  0  0  0  0
 22 23  1  0  0  0  0
 23 24  1  0  0  0  0
 24 25  2  0  0  0  0
 24 26  1  0  0  0  0
 26 27  1  0  0  0  0
 27 28  1  0  0  0  0
 27 29  1  0  0  0  0
 28 30  2  0  0  0  0
 28 31  1  0  0  0  0
 29 32  2  0  0  0  0
 29 33  1  0  0  0  0
 30 34  1  0  0  0  0
 31 35  2  0  0  0  0
 32 36  1  0  0  0  0
 33 37  1  0  0  0  0
 34 38  2  0  0  0  0
  9 10  1  0  0  0  0
 14 15  1  0  0  0  0
 21 22  1  0  0  0  0
 35 38  1  0  0  0  0
 36 37  2  0  0  0  0
M  END
>  <MolRegNo>
555862

>  <m>
=

>  <Value>
13400

>  <Unit>
nM

>  <Type>
IC50

>  <pValue>
4.87

>  <Ligand Efficiency>
0

>  <Binding Efficiency>
0

>  <Surface Efficiency>
0

>  <Assay Index>
429223

>  <Assay Category>


>  <Assay Organism>
Homo sapiens

>  <Target ID>
17045

>  <Target Name>
Cytochrome P450 3A4

>  <Target Organism>
Homo sapiens

>  <Target Description>
Target is a single protein chain

>  <Sequence Accession>
P08684

>  <Reference>
Bioorg Med Chem Lett 19 (15), 4274-4279 (2009)

>  <Pubmed ID>
19500982

>  <DOI>
10.1016/j.bmcl.2009.05.066

$$$$
561145
Actelion Java MolfileCreator 1.0

 40 44  0  0  0  0  0  0  0  0999 V2000
    0.0000   -0.0000   -0.0000 F   0  0  0  0  0  0  0  0  0  0  0  0
   -0.0119   -1.4955   -0.0000 C   0  0  0  0  0  0  0  0  0  0  0  0
   -1.5311   -1.4836   -0.0000 F   0  0  0  0  0  0  0  0  0  0  0  0
    1.4836   -1.4836   -0.0000 F   0  0  0  0  0  0  0  0  0  0  0  0
   -0.0237   -2.9910   -0.0000 C   0  0  0  0  0  0  0  0  0  0  0  0
    1.2700   -3.7388   -0.0000 C   0  0  0  0  0  0  0  0  0  0  0  0
   -1.3412   -3.7388   -0.0000 C   0  0  0  0  0  0  0  0  0  0  0  0
    1.2581   -5.2343   -0.0000 C   0  0  0  0  0  0  0  0  0  0  0  0
   -1.3531   -5.2343   -0.0000 C   0  0  0  0  0  0  0  0  0  0  0  0
   -0.0593   -5.9701   -0.0000 C   0  0  0  0  0  0  0  0  0  0  0  0
   -0.0712   -7.4656   -0.0000 N   0  0  0  0  0  0  0  0  0  0  0  0
    1.1394   -8.3439   -0.0000 C   0  0  0  0  0  0  0  0  0  0  0  0
   -1.3056   -8.3439   -0.0000 C   0  0  0  0  0  0  0  0  0  0  0  0
    0.6647   -9.7682   -0.0000 C   0  0  0  0  0  0  0  0  0  0  0  0
   -0.8546   -9.7682   -0.0000 C   0  0  0  0  0  0  0  0  0  0  0  0
    1.5430  -10.9789   -0.0000 C   0  0  0  0  0  0  0  0  0  0  0  0
    3.0266  -10.8127   -0.0000 N   0  0  0  0  0  0  0  0  0  0  0  0
    3.9049  -12.0234   -0.0000 C   0  0  0  0  0  0  0  0  0  0  0  0
    3.6319   -9.4240   -0.0000 C   0  0  0  0  0  0  0  0  0  0  0  0
    5.3886  -11.8572   -0.0000 C   0  0  0  0  0  0  0  0  0  0  0  0
    5.1156   -9.2579   -0.0000 C   0  0  0  0  0  0  0  0  0  0  0  0
    5.9939  -10.4685   -0.0000 C   0  0  0  0  0  0  0  0  0  0  0  0
    7.4775  -10.3023   -0.0000 N   0  0  0  0  0  0  0  0  0  0  0  0
    8.3558  -11.5130   -0.0000 C   0  0  0  0  0  0  0  0  0  0  0  0
    7.7268  -12.8779   -0.0000 O   0  0  0  0  0  0  0  0  0  0  0  0
    9.8394  -11.3468   -0.0000 N   0  0  0  0  0  0  0  0  0  0  0  0
   10.7178  -12.5575   -0.0000 C   0  0  0  0  0  0  0  0  0  0  0  0
   10.0887  -13.9224   -0.0000 C   0  0  0  0  0  0  0  0  0  0  0  0
   12.2014  -12.3913   -0.0000 C   0  0  0  0  0  0  0  0  0  0  0  0
   10.9670  -15.1330   -0.0000 C   0  0  0  0  0  0  0  0  0  0  0  0
    8.5813  -14.0648   -0.0000 C   0  0  0  0  0  0  0  0  0  0  0  0
   13.0797  -13.6019   -0.0000 N   0  0  0  0  0  0  0  0  0  0  0  0
   10.3379  -16.4980   -0.0000 C   0  0  0  0  0  0  0  0  0  0  0  0
    7.9523  -15.4298   -0.0000 C   0  0  0  0  0  0  0  0  0  0  0  0
   14.5633  -13.4358   -0.0000 C   0  0  0  0  0  0  0  0  0  0  0  0
   12.4506  -14.9669   -0.0000 C   0  0  0  0  0  0  0  0  0  0  0  0
    8.8306  -16.6404   -0.0000 C   0  0  0  0  0  0  0  0  0  0  0  0
   15.4416  -14.6464   -0.0000 C   0  0  0  0  0  0  0  0  0  0  0  0
   13.3290  -16.1775   -0.0000 C   0  0  0  0  0  0  0  0  0  0  0  0
   14.8126  -16.0114   -0.0000 O   0  0  0  0  0  0  0  0  0  0  0  0
  1  2  1  0  0  0  0
  2  3  1  0  0  0  0
  2  4  1  0  0  0  0
  2  5  1  0  0  0  0
  5  6  2  0  0  0  0
  5  7  1  0  0  0  0
  6  8  1  0  0  0  0
  7  9  2  0  0  0  0
  8 10  2  0  0  0  0
 10 11  1  0  0  0  0
 11 12  1  0  0  0  0
 11 13  1  0  0  0  0
 12 14  2  0  0  0  0
 13 15  2  0  0  0  0
 14 16  1  0  0  0  0
 16 17  1  0  0  0  0
 17 18  1  0  0  0  0
 17 19  1  0  0  0  0
 18 20  1  0  0  0  0
 19 21  1  0  0  0  0
 20 22  1  0  0  0  0
 22 23  1  0  0  0  0
 23 24  1  0  0  0  0
 24 25  2  0  0  0  0
 24 26  1  0  0  0  0
 26 27  1  0  0  0  0
 27 28  1  0  0  0  0
 27 29  1  0  0  0  0
 28 30  2  0  0  0  0
 28 31  1  0  0  0  0
 29 32  1  0  0  0  0
 30 33  1  0  0  0  0
 31 34  2  0  0  0  0
 32 35  1  0  0  0  0
 32 36  1  0  0  0  0
 33 37  2  0  0  0  0
 35 38  1  0  0  0  0
 36 39  1  0  0  0  0
 38 40  1  0  0  0  0
  9 10  1  0  0  0  0
 14 15  1  0  0  0  0
 21 22  1  0  0  0  0
 34 37  1  0  0  0  0
 39 40  1  0  0  0  0
M  END
>  <MolRegNo>
561145

>  <m>
=

>  <Value>
16500

>  <Unit>
nM

>  <Type>
IC50

>  <pValue>
4.78

>  <Ligand Efficiency>
0

>  <Binding Efficiency>
0

>  <Surface Efficiency>
0

>  <Assay Index>
429223

>  <Assay Category>


>  <Assay Organism>
Homo sapiens

>  <Target ID>
17045

>  <Target Name>
Cytochrome P450 3A4

>  <Target Organism>
Homo sapiens

>  <Target Description>
Target is a single protein chain

>  <Sequence Accession>
P08684

>  <Reference>
Bioorg Med Chem Lett 19 (15), 4274-4279 (2009)

>  <Pubmed ID>
19500982

>  <DOI>
10.1016/j.bmcl.2009.05.066

$$$$
568259
Actelion Java MolfileCreator 1.0

 35 38  0  0  0  0  0  0  0  0999 V2000
    0.0000   -0.0000   -0.0000 F   0  0  0  0  0  0  0  0  0  0  0  0
   -0.6231   -1.3521   -0.0000 C   0  0  0  0  0  0  0  0  0  0  0  0
    0.2469   -2.5513   -0.0000 F   0  0  0  0  0  0  0  0  0  0  0  0
    0.8465   -1.1875   -0.0000 F   0  0  0  0  0  0  0  0  0  0  0  0
   -2.1163   -1.4932   -0.0000 C   0  0  0  0  0  0  0  0  0  0  0  0
   -2.7394   -2.8453   -0.0000 C   0  0  0  0  0  0  0  0  0  0  0  0
   -3.0099   -0.2704   -0.0000 C   0  0  0  0  0  0  0  0  0  0  0  0
   -4.2326   -2.9863   -0.0000 C   0  0  0  0  0  0  0  0  0  0  0  0
   -4.5030   -0.4115   -0.0000 C   0  0  0  0  0  0  0  0  0  0  0  0
   -5.1262   -1.7636   -0.0000 C   0  0  0  0  0  0  0  0  0  0  0  0
   -6.6193   -1.9047   -0.0000 N   0  0  0  0  0  0  0  0  0  0  0  0
   -7.6305   -0.7877   -0.0000 C   0  0  0  0  0  0  0  0  0  0  0  0
   -7.3718   -3.1862   -0.0000 C   0  0  0  0  0  0  0  0  0  0  0  0
   -9.0061   -1.3874   -0.0000 C   0  0  0  0  0  0  0  0  0  0  0  0
   -8.8415   -2.8688   -0.0000 C   0  0  0  0  0  0  0  0  0  0  0  0
  -10.3111   -0.6231   -0.0000 C   0  0  0  0  0  0  0  0  0  0  0  0
  -11.6162   -1.3638   -0.0000 N   0  0  0  0  0  0  0  0  0  0  0  0
  -11.6279   -2.8453   -0.0000 C   0  0  0  0  0  0  0  0  0  0  0  0
  -12.9212   -0.5996   -0.0000 C   0  0  0  0  0  0  0  0  0  0  0  0
  -12.9330   -3.5860   -0.0000 C   0  0  0  0  0  0  0  0  0  0  0  0
  -14.2263   -1.3403   -0.0000 C   0  0  0  0  0  0  0  0  0  0  0  0
  -14.2380   -2.8217   -0.0000 C   0  0  0  0  0  0  0  0  0  0  0  0
  -15.5431   -3.5625   -0.0000 N   0  0  0  0  0  0  0  0  0  0  0  0
  -16.8482   -2.7982   -0.0000 C   0  0  0  0  0  0  0  0  0  0  0  0
  -16.8599   -1.2933   -0.0000 O   0  0  0  0  0  0  0  0  0  0  0  0
  -18.1532   -3.5389   -0.0000 N   0  0  0  0  0  0  0  0  0  0  0  0
  -19.4583   -2.7747   -0.0000 C   0  0  0  0  0  0  0  0  0  0  0  0
  -19.4700   -1.2698   -0.0000 C   0  0  0  0  0  0  0  0  0  0  0  0
  -20.7633   -3.5154   -0.0000 C   0  0  0  0  0  0  0  0  0  0  0  0
  -20.7751   -0.5056   -0.0000 C   0  0  0  0  0  0  0  0  0  0  0  0
  -18.1885   -0.5056   -0.0000 C   0  0  0  0  0  0  0  0  0  0  0  0
  -22.0684   -2.7512   -0.0000 O   0  0  0  0  0  0  0  0  0  0  0  0
  -20.7868    0.9994   -0.0000 C   0  0  0  0  0  0  0  0  0  0  0  0
  -18.2002    0.9994   -0.0000 C   0  0  0  0  0  0  0  0  0  0  0  0
  -19.5053    1.7518   -0.0000 C   0  0  0  0  0  0  0  0  0  0  0  0
  1  2  1  0  0  0  0
  2  3  1  0  0  0  0
  2  4  1  0  0  0  0
  2  5  1  0  0  0  0
  5  6  2  0  0  0  0
  5  7  1  0  0  0  0
  6  8  1  0  0  0  0
  7  9  2  0  0  0  0
  8 10  2  0  0  0  0
 10 11  1  0  0  0  0
 11 12  1  0  0  0  0
 11 13  1  0  0  0  0
 12 14  2  0  0  0  0
 13 15  2  0  0  0  0
 14 16  1  0  0  0  0
 16 17  1  0  0  0  0
 17 18  1  0  0  0  0
 17 19  1  0  0  0  0
 18 20  1  0  0  0  0
 19 21  1  0  0  0  0
 20 22  1  0  0  0  0
 22 23  1  0  0  0  0
 23 24  1  0  0  0  0
 24 25  2  0  0  0  0
 24 26  1  0  0  0  0
 27 26  1  1  0  0  0
 27 28  1  0  0  0  0
 27 29  1  0  0  0  0
 28 30  2  0  0  0  0
 28 31  1  0  0  0  0
 29 32  1  0  0  0  0
 30 33  1  0  0  0  0
 31 34  2  0  0  0  0
 33 35  2  0  0  0  0
  9 10  1  0  0  0  0
 14 15  1  0  0  0  0
 21 22  1  0  0  0  0
 34 35  1  0  0  0  0
M  END
>  <MolRegNo>
568259

>  <m>
=

>  <Value>
20600

>  <Unit>
nM

>  <Type>
IC50

>  <pValue>
4.69

>  <Ligand Efficiency>
0

>  <Binding Efficiency>
0

>  <Surface Efficiency>
0

>  <Assay Index>
429223

>  <Assay Category>


>  <Assay Organism>
Homo sapiens

>  <Target ID>
17045

>  <Target Name>
Cytochrome P450 3A4

>  <Target Organism>
Homo sapiens

>  <Target Description>
Target is a single protein chain

>  <Sequence Accession>
P08684

>  <Reference>
Bioorg Med Chem Lett 19 (15), 4274-4279 (2009)

>  <Pubmed ID>
19500982

>  <DOI>
10.1016/j.bmcl.2009.05.066

$$$$
566468
Actelion Java MolfileCreator 1.0

 28 32  0  0  0  0  0  0  0  0999 V2000
    0.0000   -0.0000   -0.0000 F   0  0  0  0  0  0  0  0  0  0  0  0
   -1.0151   -1.0978   -0.0000 C   0  0  0  0  0  0  0  0  0  0  0  0
   -0.5666   -2.5142   -0.0000 C   0  0  0  0  0  0  0  0  0  0  0  0
   -2.4906   -0.7791   -0.0000 C   0  0  0  0  0  0  0  0  0  0  0  0
   -1.5817   -3.6120   -0.0000 C   0  0  0  0  0  0  0  0  0  0  0  0
   -3.5057   -1.8768   -0.0000 C   0  0  0  0  0  0  0  0  0  0  0  0
   -3.0572   -3.2933   -0.0000 C   0  0  0  0  0  0  0  0  0  0  0  0
   -4.0723   -4.3910   -0.0000 C   0  0  0  0  0  0  0  0  0  0  0  0
   -3.6238   -5.8075   -0.0000 N   0  0  0  0  0  0  0  0  0  0  0  0
   -4.5209   -7.0115   -0.0000 C   0  0  0  0  0  0  0  0  0  0  0  0
   -2.2073   -6.2560   -0.0000 C   0  0  0  0  0  0  0  0  0  0  0  0
   -3.6474   -8.2155   -0.0000 N   0  0  0  0  0  0  0  0  0  0  0  0
   -6.0318   -6.9997   -0.0000 N   0  0  0  0  0  0  0  0  0  0  0  0
   -2.2191   -7.7433   -0.0000 C   0  0  0  0  0  0  0  0  0  0  0  0
   -0.9207   -5.4888   -0.0000 C   0  0  0  0  0  0  0  0  0  0  0  0
   -6.7990   -8.2863   -0.0000 C   0  0  0  0  0  0  0  0  0  0  0  0
   -6.7990   -5.6894   -0.0000 C   0  0  0  0  0  0  0  0  0  0  0  0
   -0.9325   -8.4870   -0.0000 C   0  0  0  0  0  0  0  0  0  0  0  0
    0.3659   -6.2324   -0.0000 C   0  0  0  0  0  0  0  0  0  0  0  0
   -8.3099   -8.2745   -0.0000 C   0  0  0  0  0  0  0  0  0  0  0  0
   -8.3099   -5.6776   -0.0000 C   0  0  0  0  0  0  0  0  0  0  0  0
    0.3541   -7.7197   -0.0000 C   0  0  0  0  0  0  0  0  0  0  0  0
   -9.0653   -6.9643   -0.0000 C   0  0  0  0  0  0  0  0  0  0  0  0
  -10.5762   -6.9525   -0.0000 N   0  0  0  0  0  0  0  0  0  0  0  0
  -11.4733   -5.7249   -0.0000 C   0  0  0  0  0  0  0  0  0  0  0  0
  -11.4733   -8.1564   -0.0000 C   0  0  0  0  0  0  0  0  0  0  0  0
  -12.9134   -6.1734   -0.0000 N   0  0  0  0  0  0  0  0  0  0  0  0
  -12.9134   -7.6843   -0.0000 C   0  0  0  0  0  0  0  0  0  0  0  0
  1  2  1  0  0  0  0
  2  3  2  0  0  0  0
  2  4  1  0  0  0  0
  3  5  1  0  0  0  0
  4  6  2  0  0  0  0
  5  7  2  0  0  0  0
  7  8  1  0  0  0  0
  8  9  1  0  0  0  0
  9 10  1  0  0  0  0
  9 11  1  0  0  0  0
 10 12  2  0  0  0  0
 10 13  1  0  0  0  0
 11 14  2  0  0  0  0
 11 15  1  0  0  0  0
 13 16  1  0  0  0  0
 13 17  1  0  0  0  0
 14 18  1  0  0  0  0
 15 19  2  0  0  0  0
 16 20  1  0  0  0  0
 17 21  1  0  0  0  0
 18 22  2  0  0  0  0
 20 23  1  0  0  0  0
 23 24  1  0  0  0  0
 24 25  1  0  0  0  0
 24 26  1  0  0  0  0
 25 27  2  0  0  0  0
 26 28  2  0  0  0  0
  6  7  1  0  0  0  0
 12 14  1  0  0  0  0
 19 22  1  0  0  0  0
 21 23  1  0  0  0  0
 27 28  1  0  0  0  0
M  END
>  <MolRegNo>
566468

>  <m>
=

>  <Value>
72000

>  <Unit>
nM

>  <Type>
IC50

>  <pValue>
4.14

>  <Ligand Efficiency>
0

>  <Binding Efficiency>
0

>  <Surface Efficiency>
0

>  <Assay Index>
429826

>  <Assay Category>


>  <Assay Organism>


>  <Target ID>
17045

>  <Target Name>
Cytochrome P450 3A4

>  <Target Organism>
Homo sapiens

>  <Target Description>
Target is a single protein chain

>  <Sequence Accession>
P08684

>  <Reference>
Bioorg Med Chem Lett 19 (15), 4380-4384 (2009)

>  <Pubmed ID>
19553115

>  <DOI>
10.1016/j.bmcl.2009.05.086

$$$$
570962
Actelion Java MolfileCreator 1.0

 34 39  0  0  0  0  0  0  0  0999 V2000
    0.0000   -0.0000   -0.0000 F   0  0  0  0  0  0  0  0  0  0  0  0
   -1.2227    0.8935   -0.0000 C   0  0  0  0  0  0  0  0  0  0  0  0
   -1.0816    2.3866   -0.0000 N   0  0  0  0  0  0  0  0  0  0  0  0
   -2.5982    0.2939   -0.0000 C   0  0  0  0  0  0  0  0  0  0  0  0
   -2.3043    3.2800   -0.0000 C   0  0  0  0  0  0  0  0  0  0  0  0
   -3.8208    1.1874   -0.0000 C   0  0  0  0  0  0  0  0  0  0  0  0
   -3.6798    2.6805   -0.0000 C   0  0  0  0  0  0  0  0  0  0  0  0
   -4.9024    3.5740   -0.0000 N   0  0  0  0  0  0  0  0  0  0  0  0
   -4.7614    5.0670   -0.0000 C   0  0  0  0  0  0  0  0  0  0  0  0
   -3.4094    5.6901   -0.0000 O   0  0  0  0  0  0  0  0  0  0  0  0
   -5.9840    5.9605   -0.0000 C   0  0  0  0  0  0  0  0  0  0  0  0
   -7.3595    6.5836   -0.0000 N   0  0  0  0  0  0  0  0  0  0  0  0
   -4.9965    7.0774   -0.0000 C   0  0  0  0  0  0  0  0  0  0  0  0
   -6.7482    4.6791   -0.0000 C   0  0  0  0  0  0  0  0  0  0  0  0
   -8.6645    5.8430   -0.0000 C   0  0  0  0  0  0  0  0  0  0  0  0
   -7.2185    8.0767   -0.0000 C   0  0  0  0  0  0  0  0  0  0  0  0
   -5.7607    8.3823   -0.0000 C   0  0  0  0  0  0  0  0  0  0  0  0
   -9.9695    6.6071   -0.0000 N   0  0  0  0  0  0  0  0  0  0  0  0
   -8.6763    4.3616   -0.0000 N   0  0  0  0  0  0  0  0  0  0  0  0
  -11.2744    5.8665   -0.0000 N   0  0  0  0  0  0  0  0  0  0  0  0
   -9.9812    3.6327   -0.0000 C   0  0  0  0  0  0  0  0  0  0  0  0
  -11.2862    4.3852   -0.0000 C   0  0  0  0  0  0  0  0  0  0  0  0
  -12.7087    6.3367   -0.0000 C   0  0  0  0  0  0  0  0  0  0  0  0
   -9.9930    2.1514   -0.0000 N   0  0  0  0  0  0  0  0  0  0  0  0
  -12.7205    3.9384   -0.0000 C   0  0  0  0  0  0  0  0  0  0  0  0
  -13.6022    5.1376   -0.0000 C   0  0  0  0  0  0  0  0  0  0  0  0
  -11.2979    1.4108   -0.0000 C   0  0  0  0  0  0  0  0  0  0  0  0
  -11.4625   -0.0588   -0.0000 N   0  0  0  0  0  0  0  0  0  0  0  0
  -12.6735    2.0339   -0.0000 C   0  0  0  0  0  0  0  0  0  0  0  0
  -12.9321   -0.3527   -0.0000 N   0  0  0  0  0  0  0  0  0  0  0  0
  -13.6845    0.9405   -0.0000 C   0  0  0  0  0  0  0  0  0  0  0  0
  -15.1776    1.1051   -0.0000 C   0  0  0  0  0  0  0  0  0  0  0  0
  -16.4002    1.9986   -0.0000 C   0  0  0  0  0  0  0  0  0  0  0  0
  -16.5531    0.5055   -0.0000 C   0  0  0  0  0  0  0  0  0  0  0  0
  1  2  1  0  0  0  0
  2  3  2  0  0  0  0
  2  4  1  0  0  0  0
  3  5  1  0  0  0  0
  4  6  2  0  0  0  0
  5  7  2  0  0  0  0
  7  8  1  0  0  0  0
  8  9  1  0  0  0  0
  9 10  2  0  0  0  0
  9 11  1  0  0  0  0
 11 12  1  0  0  0  0
 11 13  1  0  0  0  0
 11 14  1  6  0  0  0
 12 15  1  0  0  0  0
 12 16  1  0  0  0  0
 13 17  1  0  0  0  0
 15 18  2  0  0  0  0
 15 19  1  0  0  0  0
 18 20  1  0  0  0  0
 19 21  2  0  0  0  0
 20 22  1  0  0  0  0
 20 23  1  0  0  0  0
 21 24  1  0  0  0  0
 22 25  2  0  0  0  0
 23 26  2  0  0  0  0
 24 27  1  0  0  0  0
 27 28  1  0  0  0  0
 27 29  2  0  0  0  0
 28 30  1  0  0  0  0
 29 31  1  0  0  0  0
 31 32  1  0  0  0  0
 32 33  1  0  0  0  0
 32 34  1  0  0  0  0
  6  7  1  0  0  0  0
 16 17  1  0  0  0  0
 21 22  1  0  0  0  0
 25 26  1  0  0  0  0
 30 31  2  0  0  0  0
 33 34  1  0  0  0  0
M  END
>  <MolRegNo>
570962

>  <m>
=

>  <Value>
7000

>  <Unit>
nM

>  <Type>
IC50

>  <pValue>
5.16

>  <Ligand Efficiency>
0

>  <Binding Efficiency>
0

>  <Surface Efficiency>
0

>  <Assay Index>
437568

>  <Assay Category>


>  <Assay Organism>


>  <Target ID>
17045

>  <Target Name>
Cytochrome P450 3A4

>  <Target Organism>
Homo sapiens

>  <Target Description>
Target is a single protein chain

>  <Sequence Accession>
P08684

>  <Reference>
J Med Chem 52 (23), 7360-7363 (2009)

>  <Pubmed ID>
19778024

>  <DOI>
10.1021/jm900786r

$$$$
1060577
Actelion Java MolfileCreator 1.0

 39 44  0  0  0  0  0  0  0  0999 V2000
    0.0000   -0.0000   -0.0000 F   0  0  0  0  0  0  0  0  0  0  0  0
   -0.7701    1.3033   -0.0000 C   0  0  0  0  0  0  0  0  0  0  0  0
   -2.2748    1.3033   -0.0000 C   0  0  0  0  0  0  0  0  0  0  0  0
   -0.0355    2.6184   -0.0000 C   0  0  0  0  0  0  0  0  0  0  0  0
   -3.0331    2.6066   -0.0000 C   0  0  0  0  0  0  0  0  0  0  0  0
   -0.8057    3.9217   -0.0000 C   0  0  0  0  0  0  0  0  0  0  0  0
   -2.3104    3.9099   -0.0000 C   0  0  0  0  0  0  0  0  0  0  0  0
   -4.5378    2.6066   -0.0000 C   0  0  0  0  0  0  0  0  0  0  0  0
   -5.2961    1.3151   -0.0000 N   0  0  0  0  0  0  0  0  0  0  0  0
   -4.4312    0.1303   -0.0000 N   0  0  0  0  0  0  0  0  0  0  0  0
   -6.7179    0.8649   -0.0000 C   0  0  0  0  0  0  0  0  0  0  0  0
   -5.3079   -1.0663   -0.0000 C   0  0  0  0  0  0  0  0  0  0  0  0
   -6.7179   -0.6161   -0.0000 C   0  0  0  0  0  0  0  0  0  0  0  0
   -8.0330    1.6232   -0.0000 C   0  0  0  0  0  0  0  0  0  0  0  0
   -8.0330   -1.3625   -0.0000 C   0  0  0  0  0  0  0  0  0  0  0  0
   -9.3363    0.8886   -0.0000 C   0  0  0  0  0  0  0  0  0  0  0  0
   -9.3363   -0.6043   -0.0000 C   0  0  0  0  0  0  0  0  0  0  0  0
  -10.6396   -1.3388   -0.0000 N   0  0  0  0  0  0  0  0  0  0  0  0
  -10.6514   -2.8198   -0.0000 C   0  0  0  0  0  0  0  0  0  0  0  0
   -9.3718   -3.5544   -0.0000 N   0  0  0  0  0  0  0  0  0  0  0  0
  -11.9666   -3.5544   -0.0000 C   0  0  0  0  0  0  0  0  0  0  0  0
   -9.3837   -5.0473   -0.0000 C   0  0  0  0  0  0  0  0  0  0  0  0
  -11.9666   -5.0473   -0.0000 N   0  0  0  0  0  0  0  0  0  0  0  0
  -13.4120   -3.0805   -0.0000 C   0  0  0  0  0  0  0  0  0  0  0  0
  -10.6988   -5.7819   -0.0000 N   0  0  0  0  0  0  0  0  0  0  0  0
  -13.4002   -5.5094   -0.0000 C   0  0  0  0  0  0  0  0  0  0  0  0
  -14.3006   -4.2890   -0.0000 C   0  0  0  0  0  0  0  0  0  0  0  0
  -13.8860   -1.6469   -0.0000 C   0  0  0  0  0  0  0  0  0  0  0  0
  -15.8172   -4.2772   -0.0000 N   0  0  0  0  0  0  0  0  0  0  0  0
  -16.5755   -2.9739   -0.0000 C   0  0  0  0  0  0  0  0  0  0  0  0
  -15.8409   -1.6706   -0.0000 O   0  0  0  0  0  0  0  0  0  0  0  0
  -18.0802   -2.9620   -0.0000 O   0  0  0  0  0  0  0  0  0  0  0  0
  -18.8385   -1.6587   -0.0000 C   0  0  0  0  0  0  0  0  0  0  0  0
  -20.3432   -1.6469   -0.0000 C   0  0  0  0  0  0  0  0  0  0  0  0
  -21.1014   -0.3436   -0.0000 N   0  0  0  0  0  0  0  0  0  0  0  0
  -21.1014   -2.9265   -0.0000 C   0  0  0  0  0  0  0  0  0  0  0  0
  -22.6062   -0.3199   -0.0000 C   0  0  0  0  0  0  0  0  0  0  0  0
  -22.6180   -2.9028   -0.0000 O   0  0  0  0  0  0  0  0  0  0  0  0
  -23.3763   -1.5995   -0.0000 C   0  0  0  0  0  0  0  0  0  0  0  0
  1  2  1  0  0  0  0
  2  3  2  0  0  0  0
  2  4  1  0  0  0  0
  3  5  1  0  0  0  0
  4  6  2  0  0  0  0
  5  7  2  0  0  0  0
  5  8  1  0  0  0  0
  8  9  1  0  0  0  0
  9 10  1  0  0  0  0
  9 11  1  0  0  0  0
 10 12  2  0  0  0  0
 11 13  2  0  0  0  0
 11 14  1  0  0  0  0
 13 15  1  0  0  0  0
 14 16  2  0  0  0  0
 15 17  2  0  0  0  0
 17 18  1  0  0  0  0
 18 19  1  0  0  0  0
 19 20  2  0  0  0  0
 19 21  1  0  0  0  0
 20 22  1  0  0  0  0
 21 23  1  0  0  0  0
 21 24  2  0  0  0  0
 22 25  2  0  0  0  0
 23 26  1  0  0  0  0
 24 27  1  0  0  0  0
 24 28  1  0  0  0  0
 27 29  1  0  0  0  0
 29 30  1  0  0  0  0
 30 31  2  0  0  0  0
 30 32  1  0  0  0  0
 32 33  1  0  0  0  0
 34 33  1  1  0  0  0
 34 35  1  0  0  0  0
 34 36  1  0  0  0  0
 35 37  1  0  0  0  0
 36 38  1  0  0  0  0
 37 39  1  0  0  0  0
  6  7  1  0  0  0  0
 12 13  1  0  0  0  0
 16 17  1  0  0  0  0
 23 25  1  0  0  0  0
 26 27  2  0  0  0  0
 38 39  1  0  0  0  0
M  END
>  <MolRegNo>
1060577

>  <m>
=

>  <Value>
1600

>  <Unit>
nM

>  <Type>
IC50

>  <pValue>
5.8

>  <Ligand Efficiency>
0

>  <Binding Efficiency>
0

>  <Surface Efficiency>
0

>  <Assay Index>
436916

>  <Assay Category>


>  <Assay Organism>
Homo sapiens

>  <Target ID>
17045

>  <Target Name>
Cytochrome P450 3A4

>  <Target Organism>
Homo sapiens

>  <Target Description>
Target is a single protein chain

>  <Sequence Accession>
P08684

>  <Reference>
J Med Chem 52 (21), 6527-6530 (2009)

>  <Pubmed ID>
19821562

>  <DOI>
10.1021/jm9010065

$$$$
574940
Actelion Java MolfileCreator 1.0

 20 22  0  0  0  0  0  0  0  0999 V2000
    0.0000   -0.0000   -0.0000 S   0  0  0  0  0  0  0  0  0  0  0  0
   -1.2162    0.8974   -0.0000 C   0  0  0  0  0  0  0  0  0  0  0  0
    1.2044    0.8974   -0.0000 C   0  0  0  0  0  0  0  0  0  0  0  0
   -2.5387    0.1653   -0.0000 C   0  0  0  0  0  0  0  0  0  0  0  0
   -0.7675    2.3380   -0.0000 C   0  0  0  0  0  0  0  0  0  0  0  0
    0.7203    2.3380   -0.0000 C   0  0  0  0  0  0  0  0  0  0  0  0
   -2.5623   -1.3107   -0.0000 C   0  0  0  0  0  0  0  0  0  0  0  0
   -3.8494    0.9446   -0.0000 C   0  0  0  0  0  0  0  0  0  0  0  0
    1.9955    3.1173   -0.0000 C   0  0  0  0  0  0  0  0  0  0  0  0
   -3.8730   -2.0428   -0.0000 C   0  0  0  0  0  0  0  0  0  0  0  0
   -5.1600    0.2125   -0.0000 C   0  0  0  0  0  0  0  0  0  0  0  0
    1.9601    4.6169   -0.0000 C   0  0  0  0  0  0  0  0  0  0  0  0
    3.2944    2.3970   -0.0000 C   0  0  0  0  0  0  0  0  0  0  0  0
   -3.8848   -3.5306   -0.0000 O   0  0  0  0  0  0  0  0  0  0  0  0
   -5.1837   -1.2753   -0.0000 C   0  0  0  0  0  0  0  0  0  0  0  0
    3.2354    5.3962   -0.0000 C   0  0  0  0  0  0  0  0  0  0  0  0
    4.5696    3.1763   -0.0000 C   0  0  0  0  0  0  0  0  0  0  0  0
    4.5342    4.6759   -0.0000 C   0  0  0  0  0  0  0  0  0  0  0  0
    3.1999    6.9076   -0.0000 C   0  0  0  0  0  0  0  0  0  0  0  0
    5.8095    5.4552   -0.0000 O   0  0  0  0  0  0  0  0  0  0  0  0
  1  2  1  0  0  0  0
  1  3  1  0  0  0  0
  2  4  1  0  0  0  0
  2  5  2  0  0  0  0
  3  6  2  0  0  0  0
  4  7  2  0  0  0  0
  4  8  1  0  0  0  0
  6  9  1  0  0  0  0
  7 10  1  0  0  0  0
  8 11  2  0  0  0  0
  9 12  2  0  0  0  0
  9 13  1  0  0  0  0
 10 14  1  0  0  0  0
 10 15  2  0  0  0  0
 12 16  1  0  0  0  0
 13 17  2  0  0  0  0
 16 18  2  0  0  0  0
 16 19  1  0  0  0  0
 18 20  1  0  0  0  0
  5  6  1  0  0  0  0
 11 15  1  0  0  0  0
 17 18  1  0  0  0  0
M  END
>  <MolRegNo>
574940

>  <m>
=

>  <Value>
1500

>  <Unit>
nM

>  <Type>
IC50

>  <pValue>
5.82

>  <Ligand Efficiency>
0

>  <Binding Efficiency>
0

>  <Surface Efficiency>
0

>  <Assay Index>
437926

>  <Assay Category>


>  <Assay Organism>
Homo sapiens

>  <Target ID>
17045

>  <Target Name>
Cytochrome P450 3A4

>  <Target Organism>
Homo sapiens

>  <Target Description>
Target is a single protein chain

>  <Sequence Accession>
P08684

>  <Reference>
J Med Chem 52 (21), 6724-6743 (2009)

>  <Pubmed ID>
19831396

>  <DOI>
10.1021/jm901195w

$$$$
574956
Actelion Java MolfileCreator 1.0

 20 22  0  0  0  0  0  0  0  0999 V2000
    0.0000   -0.0000   -0.0000 S   0  0  0  0  0  0  0  0  0  0  0  0
    1.2092    0.9010   -0.0000 C   0  0  0  0  0  0  0  0  0  0  0  0
   -1.2211    0.9010   -0.0000 C   0  0  0  0  0  0  0  0  0  0  0  0
    2.4895    0.1660   -0.0000 C   0  0  0  0  0  0  0  0  0  0  0  0
    0.7232    2.3473   -0.0000 C   0  0  0  0  0  0  0  0  0  0  0  0
   -2.5488    0.1660   -0.0000 C   0  0  0  0  0  0  0  0  0  0  0  0
   -0.7706    2.3473   -0.0000 C   0  0  0  0  0  0  0  0  0  0  0  0
    3.7699    0.9247   -0.0000 C   0  0  0  0  0  0  0  0  0  0  0  0
    2.4658   -1.3159   -0.0000 C   0  0  0  0  0  0  0  0  0  0  0  0
   -2.5725   -1.3159   -0.0000 C   0  0  0  0  0  0  0  0  0  0  0  0
   -3.8647    0.9484   -0.0000 C   0  0  0  0  0  0  0  0  0  0  0  0
    5.0502    0.1897   -0.0000 C   0  0  0  0  0  0  0  0  0  0  0  0
    3.7462   -2.0509   -0.0000 C   0  0  0  0  0  0  0  0  0  0  0  0
   -3.8884   -2.0509   -0.0000 C   0  0  0  0  0  0  0  0  0  0  0  0
   -5.1806    0.2134   -0.0000 C   0  0  0  0  0  0  0  0  0  0  0  0
    6.3424    0.9602   -0.0000 F   0  0  0  0  0  0  0  0  0  0  0  0
    5.0383   -1.3040   -0.0000 C   0  0  0  0  0  0  0  0  0  0  0  0
   -3.9003   -3.5446   -0.0000 O   0  0  0  0  0  0  0  0  0  0  0  0
   -5.2043   -1.2803   -0.0000 C   0  0  0  0  0  0  0  0  0  0  0  0
    6.3305   -2.0509   -0.0000 O   0  0  0  0  0  0  0  0  0  0  0  0
  1  2  1  0  0  0  0
  1  3  1  0  0  0  0
  2  4  1  0  0  0  0
  2  5  2  0  0  0  0
  3  6  1  0  0  0  0
  3  7  2  0  0  0  0
  4  8  2  0  0  0  0
  4  9  1  0  0  0  0
  6 10  2  0  0  0  0
  6 11  1  0  0  0  0
  8 12  1  0  0  0  0
  9 13  2  0  0  0  0
 10 14  1  0  0  0  0
 11 15  2  0  0  0  0
 12 16  1  0  0  0  0
 12 17  2  0  0  0  0
 14 18  1  0  0  0  0
 14 19  2  0  0  0  0
 17 20  1  0  0  0  0
  5  7  1  0  0  0  0
 13 17  1  0  0  0  0
 15 19  1  0  0  0  0
M  END
>  <MolRegNo>
574956

>  <m>
=

>  <Value>
820

>  <Unit>
nM

>  <Type>
IC50

>  <pValue>
6.09

>  <Ligand Efficiency>
0

>  <Binding Efficiency>
0

>  <Surface Efficiency>
0

>  <Assay Index>
437926

>  <Assay Category>


>  <Assay Organism>
Homo sapiens

>  <Target ID>
17045

>  <Target Name>
Cytochrome P450 3A4

>  <Target Organism>
Homo sapiens

>  <Target Description>
Target is a single protein chain

>  <Sequence Accession>
P08684

>  <Reference>
J Med Chem 52 (21), 6724-6743 (2009)

>  <Pubmed ID>
19831396

>  <DOI>
10.1021/jm901195w

$$$$
574927
Actelion Java MolfileCreator 1.0

 20 22  0  0  0  0  0  0  0  0999 V2000
    0.0000   -0.0000   -0.0000 S   0  0  0  0  0  0  0  0  0  0  0  0
    1.2092    0.9010   -0.0000 C   0  0  0  0  0  0  0  0  0  0  0  0
   -1.2211    0.9010   -0.0000 C   0  0  0  0  0  0  0  0  0  0  0  0
    2.4895    0.1660   -0.0000 C   0  0  0  0  0  0  0  0  0  0  0  0
    0.7232    2.3473   -0.0000 C   0  0  0  0  0  0  0  0  0  0  0  0
   -2.5488    0.1660   -0.0000 C   0  0  0  0  0  0  0  0  0  0  0  0
   -0.7706    2.3473   -0.0000 C   0  0  0  0  0  0  0  0  0  0  0  0
    3.7699    0.9247   -0.0000 C   0  0  0  0  0  0  0  0  0  0  0  0
    2.4658   -1.3159   -0.0000 C   0  0  0  0  0  0  0  0  0  0  0  0
   -2.5725   -1.3159   -0.0000 C   0  0  0  0  0  0  0  0  0  0  0  0
   -3.8647    0.9484   -0.0000 C   0  0  0  0  0  0  0  0  0  0  0  0
    5.0502    0.1897   -0.0000 C   0  0  0  0  0  0  0  0  0  0  0  0
    3.7462   -2.0509   -0.0000 C   0  0  0  0  0  0  0  0  0  0  0  0
   -3.8884   -2.0509   -0.0000 C   0  0  0  0  0  0  0  0  0  0  0  0
   -5.1806    0.2134   -0.0000 C   0  0  0  0  0  0  0  0  0  0  0  0
    5.0383   -1.3040   -0.0000 C   0  0  0  0  0  0  0  0  0  0  0  0
    6.3424    0.9602   -0.0000 C   0  0  0  0  0  0  0  0  0  0  0  0
   -3.9003   -3.5446   -0.0000 O   0  0  0  0  0  0  0  0  0  0  0  0
   -5.2043   -1.2803   -0.0000 C   0  0  0  0  0  0  0  0  0  0  0  0
    6.3305   -2.0509   -0.0000 O   0  0  0  0  0  0  0  0  0  0  0  0
  1  2  1  0  0  0  0
  1  3  1  0  0  0  0
  2  4  1  0  0  0  0
  2  5  2  0  0  0  0
  3  6  1  0  0  0  0
  3  7  2  0  0  0  0
  4  8  2  0  0  0  0
  4  9  1  0  0  0  0
  6 10  2  0  0  0  0
  6 11  1  0  0  0  0
  8 12  1  0  0  0  0
  9 13  2  0  0  0  0
 10 14  1  0  0  0  0
 11 15  2  0  0  0  0
 12 16  2  0  0  0  0
 12 17  1  0  0  0  0
 14 18  1  0  0  0  0
 14 19  2  0  0  0  0
 16 20  1  0  0  0  0
  5  7  1  0  0  0  0
 13 16  1  0  0  0  0
 15 19  1  0  0  0  0
M  END
>  <MolRegNo>
574927

>  <m>
=

>  <Value>
500

>  <Unit>
nM

>  <Type>
IC50

>  <pValue>
6.3

>  <Ligand Efficiency>
0

>  <Binding Efficiency>
0

>  <Surface Efficiency>
0

>  <Assay Index>
437926

>  <Assay Category>


>  <Assay Organism>
Homo sapiens

>  <Target ID>
17045

>  <Target Name>
Cytochrome P450 3A4

>  <Target Organism>
Homo sapiens

>  <Target Description>
Target is a single protein chain

>  <Sequence Accession>
P08684

>  <Reference>
J Med Chem 52 (21), 6724-6743 (2009)

>  <Pubmed ID>
19831396

>  <DOI>
10.1021/jm901195w

$$$$
571406
Actelion Java MolfileCreator 1.0

 24 26  0  0  0  0  0  0  0  0999 V2000
    0.0000   -0.0000   -0.0000 Cl  0  0  0  0  0  0  0  0  0  0  0  0
   -1.3055    0.7645   -0.0000 C   0  0  0  0  0  0  0  0  0  0  0  0
   -2.6110    0.0235   -0.0000 C   0  0  0  0  0  0  0  0  0  0  0  0
   -1.3173    2.2699   -0.0000 C   0  0  0  0  0  0  0  0  0  0  0  0
   -2.6228   -1.4584   -0.0000 C   0  0  0  0  0  0  0  0  0  0  0  0
   -3.9165    0.7880   -0.0000 C   0  0  0  0  0  0  0  0  0  0  0  0
   -2.6228    3.0344   -0.0000 C   0  0  0  0  0  0  0  0  0  0  0  0
   -1.4231   -2.3288   -0.0000 N   0  0  0  0  0  0  0  0  0  0  0  0
   -3.8460   -2.3288   -0.0000 C   0  0  0  0  0  0  0  0  0  0  0  0
   -3.9283    2.2935   -0.0000 C   0  0  0  0  0  0  0  0  0  0  0  0
   -1.8936   -3.7401   -0.0000 O   0  0  0  0  0  0  0  0  0  0  0  0
   -3.3990   -3.7401   -0.0000 C   0  0  0  0  0  0  0  0  0  0  0  0
   -5.2809   -1.8583   -0.0000 C   0  0  0  0  0  0  0  0  0  0  0  0
   -4.2929   -4.9398   -0.0000 C   0  0  0  0  0  0  0  0  0  0  0  0
   -5.5984   -0.3881   -0.0000 O   0  0  0  0  0  0  0  0  0  0  0  0
   -6.3982   -2.8463   -0.0000 N   0  0  0  0  0  0  0  0  0  0  0  0
   -7.8331   -2.3758   -0.0000 C   0  0  0  0  0  0  0  0  0  0  0  0
   -6.1042   -4.2929   -0.0000 C   0  0  0  0  0  0  0  0  0  0  0  0
   -8.9504   -3.3638   -0.0000 C   0  0  0  0  0  0  0  0  0  0  0  0
   -8.1506   -0.9056   -0.0000 C   0  0  0  0  0  0  0  0  0  0  0  0
  -10.3853   -2.8933   -0.0000 C   0  0  0  0  0  0  0  0  0  0  0  0
   -9.5855   -0.4352   -0.0000 C   0  0  0  0  0  0  0  0  0  0  0  0
  -10.7029   -1.4231   -0.0000 C   0  0  0  0  0  0  0  0  0  0  0  0
  -12.1377   -0.9527   -0.0000 Cl  0  0  0  0  0  0  0  0  0  0  0  0
  1  2  1  0  0  0  0
  2  3  2  0  0  0  0
  2  4  1  0  0  0  0
  3  5  1  0  0  0  0
  3  6  1  0  0  0  0
  4  7  2  0  0  0  0
  5  8  2  0  0  0  0
  5  9  1  0  0  0  0
  6 10  2  0  0  0  0
  8 11  1  0  0  0  0
  9 12  2  0  0  0  0
  9 13  1  0  0  0  0
 12 14  1  0  0  0  0
 13 15  2  0  0  0  0
 13 16  1  0  0  0  0
 16 17  1  0  0  0  0
 16 18  1  0  0  0  0
 17 19  2  0  0  0  0
 17 20  1  0  0  0  0
 19 21  1  0  0  0  0
 20 22  2  0  0  0  0
 21 23  2  0  0  0  0
 23 24  1  0  0  0  0
  7 10  1  0  0  0  0
 11 12  1  0  0  0  0
 22 23  1  0  0  0  0
M  END
>  <MolRegNo>
571406

>  <m>
=

>  <Value>
1258.9

>  <Unit>
nM

>  <Type>
IC50

>  <pValue>
5.9

>  <Ligand Efficiency>
0

>  <Binding Efficiency>
0

>  <Surface Efficiency>
0

>  <Assay Index>
438922

>  <Assay Category>


>  <Assay Organism>


>  <Target ID>
17045

>  <Target Name>
Cytochrome P450 3A4

>  <Target Organism>
Homo sapiens

>  <Target Description>
Target is a single protein chain

>  <Sequence Accession>
P08684

>  <Reference>
J Med Chem 52 (24), 7962-7965 (2009)

>  <Pubmed ID>
19902954

>  <DOI>
10.1021/jm901434t

$$$$
571433
Actelion Java MolfileCreator 1.0

 25 27  0  0  0  0  0  0  0  0999 V2000
    0.0000   -0.0000   -0.0000 Cl  0  0  0  0  0  0  0  0  0  0  0  0
    1.0989    1.0162   -0.0000 C   0  0  0  0  0  0  0  0  0  0  0  0
    0.7799    2.4933   -0.0000 C   0  0  0  0  0  0  0  0  0  0  0  0
    2.5169    0.5672   -0.0000 C   0  0  0  0  0  0  0  0  0  0  0  0
    1.8788    3.5095   -0.0000 C   0  0  0  0  0  0  0  0  0  0  0  0
   -0.6617    2.9659   -0.0000 C   0  0  0  0  0  0  0  0  0  0  0  0
    3.6158    1.5834   -0.0000 C   0  0  0  0  0  0  0  0  0  0  0  0
    3.2968    3.0605   -0.0000 C   0  0  0  0  0  0  0  0  0  0  0  0
    5.0338    1.1344   -0.0000 N   0  0  0  0  0  0  0  0  0  0  0  0
    6.1327    2.1506   -0.0000 C   0  0  0  0  0  0  0  0  0  0  0  0
    5.3292   -0.3190   -0.0000 C   0  0  0  0  0  0  0  0  0  0  0  0
    5.8137    3.6276   -0.0000 O   0  0  0  0  0  0  0  0  0  0  0  0
    7.5507    1.7016   -0.0000 C   0  0  0  0  0  0  0  0  0  0  0  0
    8.7560    2.5996   -0.0000 C   0  0  0  0  0  0  0  0  0  0  0  0
    7.9997    0.2836   -0.0000 C   0  0  0  0  0  0  0  0  0  0  0  0
    9.9612    1.7252   -0.0000 N   0  0  0  0  0  0  0  0  0  0  0  0
    8.7442    4.1121   -0.0000 C   0  0  0  0  0  0  0  0  0  0  0  0
    9.4886    0.2954   -0.0000 O   0  0  0  0  0  0  0  0  0  0  0  0
    7.1017   -0.9217   -0.0000 C   0  0  0  0  0  0  0  0  0  0  0  0
   10.0321    4.8802   -0.0000 C   0  0  0  0  0  0  0  0  0  0  0  0
    7.4325    4.8802   -0.0000 C   0  0  0  0  0  0  0  0  0  0  0  0
   11.3201    4.1357   -0.0000 Cl  0  0  0  0  0  0  0  0  0  0  0  0
   10.0203    6.3927   -0.0000 C   0  0  0  0  0  0  0  0  0  0  0  0
    7.4207    6.3927   -0.0000 C   0  0  0  0  0  0  0  0  0  0  0  0
    8.7087    7.1489   -0.0000 C   0  0  0  0  0  0  0  0  0  0  0  0
  1  2  1  0  0  0  0
  2  3  2  0  0  0  0
  2  4  1  0  0  0  0
  3  5  1  0  0  0  0
  3  6  1  0  0  0  0
  4  7  2  0  0  0  0
  5  8  2  0  0  0  0
  7  9  1  0  0  0  0
  9 10  1  0  0  0  0
  9 11  1  0  0  0  0
 10 12  2  0  0  0  0
 10 13  1  0  0  0  0
 13 14  1  0  0  0  0
 13 15  2  0  0  0  0
 14 16  2  0  0  0  0
 14 17  1  0  0  0  0
 15 18  1  0  0  0  0
 15 19  1  0  0  0  0
 17 20  2  0  0  0  0
 17 21  1  0  0  0  0
 20 22  1  0  0  0  0
 20 23  1  0  0  0  0
 21 24  2  0  0  0  0
 23 25  2  0  0  0  0
  7  8  1  0  0  0  0
 16 18  1  0  0  0  0
 24 25  1  0  0  0  0
M  END
>  <MolRegNo>
571433

>  <m>
=

>  <Value>
1258.9

>  <Unit>
nM

>  <Type>
IC50

>  <pValue>
5.9

>  <Ligand Efficiency>
0

>  <Binding Efficiency>
0

>  <Surface Efficiency>
0

>  <Assay Index>
438922

>  <Assay Category>


>  <Assay Organism>


>  <Target ID>
17045

>  <Target Name>
Cytochrome P450 3A4

>  <Target Organism>
Homo sapiens

>  <Target Description>
Target is a single protein chain

>  <Sequence Accession>
P08684

>  <Reference>
J Med Chem 52 (24), 7962-7965 (2009)

>  <Pubmed ID>
19902954

>  <DOI>
10.1021/jm901434t

$$$$
573357
Actelion Java MolfileCreator 1.0

 28 29  0  0  0  0  0  0  0  0999 V2000
    0.0000   -0.0000   -0.0000 Cl  0  0  0  0  0  0  0  0  0  0  0  0
    1.2888   -0.7489   -0.0000 C   0  0  0  0  0  0  0  0  0  0  0  0
    2.5776    0.0174   -0.0000 C   0  0  0  0  0  0  0  0  0  0  0  0
    1.2714   -2.2467   -0.0000 C   0  0  0  0  0  0  0  0  0  0  0  0
    3.8664   -0.7141   -0.0000 C   0  0  0  0  0  0  0  0  0  0  0  0
    2.5776   -2.9782   -0.0000 C   0  0  0  0  0  0  0  0  0  0  0  0
    3.8490   -2.2119   -0.0000 C   0  0  0  0  0  0  0  0  0  0  0  0
    5.1552    0.0522   -0.0000 C   0  0  0  0  0  0  0  0  0  0  0  0
    6.4440   -0.6792   -0.0000 O   0  0  0  0  0  0  0  0  0  0  0  0
    7.7328    0.0871   -0.0000 C   0  0  0  0  0  0  0  0  0  0  0  0
    9.0216   -0.6444   -0.0000 C   0  0  0  0  0  0  0  0  0  0  0  0
    7.7154    1.6197   -0.0000 C   0  0  0  0  0  0  0  0  0  0  0  0
   10.3104    0.1393   -0.0000 C   0  0  0  0  0  0  0  0  0  0  0  0
    9.0042    2.3860   -0.0000 C   0  0  0  0  0  0  0  0  0  0  0  0
   11.5992   -0.5922   -0.0000 O   0  0  0  0  0  0  0  0  0  0  0  0
   10.2930    1.6720   -0.0000 C   0  0  0  0  0  0  0  0  0  0  0  0
   12.8880    0.1916   -0.0000 C   0  0  0  0  0  0  0  0  0  0  0  0
   11.5818    2.4557   -0.0000 C   0  0  0  0  0  0  0  0  0  0  0  0
   14.1768   -0.5399   -0.0000 O   0  0  0  0  0  0  0  0  0  0  0  0
   12.8706    1.7242   -0.0000 C   0  0  0  0  0  0  0  0  0  0  0  0
   11.5644    3.9883   -0.0000 C   0  0  0  0  0  0  0  0  0  0  0  0
   12.8532    4.7721   -0.0000 N   0  0  0  0  0  0  0  0  0  0  0  0
   14.1420    4.0406   -0.0000 C   0  0  0  0  0  0  0  0  0  0  0  0
   17.5556    1.3933   -0.0000 S   0  0  0  0  0  0  0  0  0  0  0  0
   16.2319    2.1596   -0.0000 O   0  0  0  0  0  0  0  0  0  0  0  0
   18.8444    0.6618   -0.0000 O   0  0  0  0  0  0  0  0  0  0  0  0
   18.2871    2.7169   -0.0000 O   0  0  0  0  0  0  0  0  0  0  0  0
   16.7893    0.1045   -0.0000 C   0  0  0  0  0  0  0  0  0  0  0  0
  1  2  1  0  0  0  0
  2  3  2  0  0  0  0
  2  4  1  0  0  0  0
  3  5  1  0  0  0  0
  4  6  2  0  0  0  0
  5  7  2  0  0  0  0
  5  8  1  0  0  0  0
  8  9  1  0  0  0  0
  9 10  1  0  0  0  0
 10 11  2  0  0  0  0
 10 12  1  0  0  0  0
 11 13  1  0  0  0  0
 12 14  2  0  0  0  0
 13 15  1  0  0  0  0
 13 16  2  0  0  0  0
 15 17  1  0  0  0  0
 16 18  1  0  0  0  0
 17 19  2  0  0  0  0
 17 20  1  0  0  0  0
 18 21  1  0  0  0  0
 21 22  1  0  0  0  0
 22 23  1  0  0  0  0
 24 25  2  0  0  0  0
 24 26  2  0  0  0  0
 24 27  1  0  0  0  0
 24 28  1  0  0  0  0
  6  7  1  0  0  0  0
 14 16  1  0  0  0  0
 18 20  2  0  0  0  0
M  END
>  <MolRegNo>
573357

>  <m>
=

>  <Value>
5000

>  <Unit>
nM

>  <Type>
IC50

>  <pValue>
5.3

>  <Ligand Efficiency>
0

>  <Binding Efficiency>
0

>  <Surface Efficiency>
0

>  <Assay Index>
436265

>  <Assay Category>


>  <Assay Organism>
Homo sapiens

>  <Target ID>
17045

>  <Target Name>
Cytochrome P450 3A4

>  <Target Organism>
Homo sapiens

>  <Target Description>
Target is a single protein chain

>  <Sequence Accession>
P08684

>  <Reference>
J Med Chem 52 (21), 6685-6706 (2009)

>  <Pubmed ID>
19810674

>  <DOI>
10.1021/jm9010127

$$$$
581348
Actelion Java MolfileCreator 1.0

 30 33  0  0  0  0  0  0  0  0999 V2000
    0.0000   -0.0000   -0.0000 Cl  0  0  0  0  0  0  0  0  0  0  0  0
    1.2865    0.7624   -0.0000 C   0  0  0  0  0  0  0  0  0  0  0  0
    2.5731    0.0238   -0.0000 C   0  0  0  0  0  0  0  0  0  0  0  0
    1.2865    2.2753   -0.0000 C   0  0  0  0  0  0  0  0  0  0  0  0
    2.5611   -1.4652   -0.0000 F   0  0  0  0  0  0  0  0  0  0  0  0
    3.8596    0.7862   -0.0000 C   0  0  0  0  0  0  0  0  0  0  0  0
   -0.0357    3.0376   -0.0000 O   0  0  0  0  0  0  0  0  0  0  0  0
    2.5611    3.0376   -0.0000 C   0  0  0  0  0  0  0  0  0  0  0  0
    3.8358    2.3110   -0.0000 C   0  0  0  0  0  0  0  0  0  0  0  0
   -0.0476    4.5505   -0.0000 C   0  0  0  0  0  0  0  0  0  0  0  0
    5.1223    3.0853   -0.0000 O   0  0  0  0  0  0  0  0  0  0  0  0
   -1.3580    5.3010   -0.0000 C   0  0  0  0  0  0  0  0  0  0  0  0
    1.2389    5.3129   -0.0000 C   0  0  0  0  0  0  0  0  0  0  0  0
    6.4207    2.3467   -0.0000 C   0  0  0  0  0  0  0  0  0  0  0  0
   -1.3818    6.8138   -0.0000 C   0  0  0  0  0  0  0  0  0  0  0  0
    1.2270    6.8258   -0.0000 C   0  0  0  0  0  0  0  0  0  0  0  0
    7.7073    3.1210   -0.0000 C   0  0  0  0  0  0  0  0  0  0  0  0
   -2.7041    7.5762   -0.0000 Cl  0  0  0  0  0  0  0  0  0  0  0  0
   -0.0953    7.5881   -0.0000 C   0  0  0  0  0  0  0  0  0  0  0  0
    2.5254    7.5881   -0.0000 C   0  0  0  0  0  0  0  0  0  0  0  0
    7.8383    4.6220   -0.0000 N   0  0  0  0  0  0  0  0  0  0  0  0
    9.0653    2.5254   -0.0000 C   0  0  0  0  0  0  0  0  0  0  0  0
    3.8119    8.3505   -0.0000 N   0  0  0  0  0  0  0  0  0  0  0  0
    9.2916    4.9555   -0.0000 N   0  0  0  0  0  0  0  0  0  0  0  0
   10.0540    3.6571   -0.0000 C   0  0  0  0  0  0  0  0  0  0  0  0
    9.5179    1.1198   -0.0000 C   0  0  0  0  0  0  0  0  0  0  0  0
   11.5073    3.3712   -0.0000 N   0  0  0  0  0  0  0  0  0  0  0  0
   10.9712    0.8219   -0.0000 C   0  0  0  0  0  0  0  0  0  0  0  0
   11.9719    1.9655   -0.0000 C   0  0  0  0  0  0  0  0  0  0  0  0
   13.4371    1.6796   -0.0000 N   0  0  0  0  0  0  0  0  0  0  0  0
  1  2  1  0  0  0  0
  2  3  2  0  0  0  0
  2  4  1  0  0  0  0
  3  5  1  0  0  0  0
  3  6  1  0  0  0  0
  4  7  1  0  0  0  0
  4  8  2  0  0  0  0
  6  9  2  0  0  0  0
  7 10  1  0  0  0  0
  9 11  1  0  0  0  0
 10 12  2  0  0  0  0
 10 13  1  0  0  0  0
 11 14  1  0  0  0  0
 12 15  1  0  0  0  0
 13 16  2  0  0  0  0
 14 17  1  0  0  0  0
 15 18  1  0  0  0  0
 15 19  2  0  0  0  0
 16 20  1  0  0  0  0
 17 21  2  0  0  0  0
 17 22  1  0  0  0  0
 20 23  3  0  0  0  0
 21 24  1  0  0  0  0
 22 25  2  0  0  0  0
 22 26  1  0  0  0  0
 25 27  1  0  0  0  0
 26 28  2  0  0  0  0
 27 29  2  0  0  0  0
 29 30  1  0  0  0  0
  8  9  1  0  0  0  0
 16 19  1  0  0  0  0
 24 25  1  0  0  0  0
 28 29  1  0  0  0  0
M  END
>  <MolRegNo>
581348

>  <m>
=

>  <Value>
4400

>  <Unit>
nM

>  <Type>
IC50

>  <pValue>
5.36

>  <Ligand Efficiency>
0

>  <Binding Efficiency>
0

>  <Surface Efficiency>
0

>  <Assay Index>
440402

>  <Assay Category>


>  <Assay Organism>


>  <Target ID>
17045

>  <Target Name>
Cytochrome P450 3A4

>  <Target Organism>
Homo sapiens

>  <Target Description>
Target is a single protein chain

>  <Sequence Accession>
P08684

>  <Reference>
J Med Chem 52 (22), 7163-7169 (2009)

>  <Pubmed ID>
19883100

>  <DOI>
10.1021/jm901230r

$$$$
583292
Actelion Java MolfileCreator 1.0

 38 42  0  0  0  0  0  0  0  0999 V2000
    0.0000   -0.0000   -0.0000 O   0  0  0  0  0  0  0  0  0  0  0  0
    0.2128    1.5014   -0.0000 C   0  0  0  0  0  0  0  0  0  0  0  0
    1.6314    1.9506   -0.0000 N   0  0  0  0  0  0  0  0  0  0  0  0
   -1.0403    2.3644   -0.0000 C   0  0  0  0  0  0  0  0  0  0  0  0
    2.1634    3.3574   -0.0000 C   0  0  0  0  0  0  0  0  0  0  0  0
    2.6363    0.8630   -0.0000 C   0  0  0  0  0  0  0  0  0  0  0  0
   -2.3525    1.6314   -0.0000 N   0  0  0  0  0  0  0  0  0  0  0  0
   -1.1585    3.8775   -0.0000 C   0  0  0  0  0  0  0  0  0  0  0  0
    1.4068    4.6696   -0.0000 C   0  0  0  0  0  0  0  0  0  0  0  0
    4.0903    1.2058   -0.0000 C   0  0  0  0  0  0  0  0  0  0  0  0
   -2.3644    0.1419   -0.0000 C   0  0  0  0  0  0  0  0  0  0  0  0
   -0.0709    4.9060   -0.0000 C   0  0  0  0  0  0  0  0  0  0  0  0
    4.5159    2.6481   -0.0000 O   0  0  0  0  0  0  0  0  0  0  0  0
    5.0952    0.1182   -0.0000 N   0  0  0  0  0  0  0  0  0  0  0  0
   -3.6766   -0.5911   -0.0000 N   0  0  0  0  0  0  0  0  0  0  0  0
   -1.0758   -0.5911   -0.0000 N   0  0  0  0  0  0  0  0  0  0  0  0
    4.7878   -1.3477   -0.0000 C   0  0  0  0  0  0  0  0  0  0  0  0
    6.5729    0.3074   -0.0000 C   0  0  0  0  0  0  0  0  0  0  0  0
   -4.9888    0.1655   -0.0000 C   0  0  0  0  0  0  0  0  0  0  0  0
   -1.0876   -2.0806   -0.0000 C   0  0  0  0  0  0  0  0  0  0  0  0
    6.0882   -2.0688   -0.0000 C   0  0  0  0  0  0  0  0  0  0  0  0
    7.1877   -1.0403   -0.0000 C   0  0  0  0  0  0  0  0  0  0  0  0
   -6.3010   -0.5674   -0.0000 C   0  0  0  0  0  0  0  0  0  0  0  0
   -5.0006    1.6787   -0.0000 C   0  0  0  0  0  0  0  0  0  0  0  0
   -2.3998   -2.8136   -0.0000 O   0  0  0  0  0  0  0  0  0  0  0  0
    0.2010   -2.8136   -0.0000 C   0  0  0  0  0  0  0  0  0  0  0  0
   -7.6132    0.1891   -0.0000 C   0  0  0  0  0  0  0  0  0  0  0  0
   -6.3128    2.4353   -0.0000 C   0  0  0  0  0  0  0  0  0  0  0  0
    1.4895   -2.0570   -0.0000 C   0  0  0  0  0  0  0  0  0  0  0  0
    0.1891   -4.3031   -0.0000 C   0  0  0  0  0  0  0  0  0  0  0  0
   -7.6251    1.7023   -0.0000 C   0  0  0  0  0  0  0  0  0  0  0  0
   -9.0555   -0.2601   -0.0000 C   0  0  0  0  0  0  0  0  0  0  0  0
    2.7781   -2.7899   -0.0000 N   0  0  0  0  0  0  0  0  0  0  0  0
    1.4777   -5.0361   -0.0000 C   0  0  0  0  0  0  0  0  0  0  0  0
   -9.0673    2.1752   -0.0000 O   0  0  0  0  0  0  0  0  0  0  0  0
   -9.9540    0.9694   -0.0000 C   0  0  0  0  0  0  0  0  0  0  0  0
    2.7663   -4.2795   -0.0000 C   0  0  0  0  0  0  0  0  0  0  0  0
  -11.4671    0.9812   -0.0000 C   0  0  0  0  0  0  0  0  0  0  0  0
  1  2  2  0  0  0  0
  2  3  1  0  0  0  0
  2  4  1  0  0  0  0
  3  5  1  0  0  0  0
  3  6  1  0  0  0  0
  4  7  1  1  0  0  0
  4  8  1  0  0  0  0
  5  9  1  0  0  0  0
  6 10  1  0  0  0  0
  7 11  1  0  0  0  0
  8 12  1  0  0  0  0
 10 13  2  0  0  0  0
 10 14  1  0  0  0  0
 11 15  2  0  0  0  0
 11 16  1  0  0  0  0
 14 17  1  0  0  0  0
 14 18  1  0  0  0  0
 15 19  1  0  0  0  0
 16 20  1  0  0  0  0
 17 21  1  0  0  0  0
 18 22  1  0  0  0  0
 19 23  2  0  0  0  0
 19 24  1  0  0  0  0
 20 25  2  0  0  0  0
 20 26  1  0  0  0  0
 23 27  1  0  0  0  0
 24 28  2  0  0  0  0
 26 29  2  0  0  0  0
 26 30  1  0  0  0  0
 27 31  2  0  0  0  0
 27 32  1  0  0  0  0
 29 33  1  0  0  0  0
 30 34  2  0  0  0  0
 31 35  1  0  0  0  0
 32 36  2  0  0  0  0
 33 37  2  0  0  0  0
 36 38  1  0  0  0  0
  9 12  1  0  0  0  0
 21 22  1  0  0  0  0
 28 31  1  0  0  0  0
 34 37  1  0  0  0  0
 35 36  1  0  0  0  0
M  END
>  <MolRegNo>
583292

>  <m>
=

>  <Value>
300

>  <Unit>
nM

>  <Type>
IC50

>  <pValue>
6.52

>  <Ligand Efficiency>
0

>  <Binding Efficiency>
0

>  <Surface Efficiency>
0

>  <Assay Index>
441072

>  <Assay Category>


>  <Assay Organism>


>  <Target ID>
17045

>  <Target Name>
Cytochrome P450 3A4

>  <Target Organism>
Homo sapiens

>  <Target Description>
Target is a single protein chain

>  <Sequence Accession>
P08684

>  <Reference>
Bioorg Med Chem Lett 19 (24), 6882-6889 (2009)

>  <Pubmed ID>
19896847

>  <DOI>
10.1016/j.bmcl.2009.10.084

$$$$
583258
Actelion Java MolfileCreator 1.0

 39 43  0  0  0  0  0  0  0  0999 V2000
    0.0000   -0.0000   -0.0000 O   0  0  0  0  0  0  0  0  0  0  0  0
    0.0474    1.5052   -0.0000 C   0  0  0  0  0  0  0  0  0  0  0  0
   -1.2800    2.2045   -0.0000 N   0  0  0  0  0  0  0  0  0  0  0  0
    1.4104    2.1097   -0.0000 C   0  0  0  0  0  0  0  0  0  0  0  0
   -1.5763    3.7097   -0.0000 C   0  0  0  0  0  0  0  0  0  0  0  0
   -2.5363    1.3748   -0.0000 C   0  0  0  0  0  0  0  0  0  0  0  0
    2.5363    1.1378   -0.0000 N   0  0  0  0  0  0  0  0  0  0  0  0
    1.7778    3.5556   -0.0000 C   0  0  0  0  0  0  0  0  0  0  0  0
   -0.6045    4.8594   -0.0000 C   0  0  0  0  0  0  0  0  0  0  0  0
   -3.9112    1.9793   -0.0000 C   0  0  0  0  0  0  0  0  0  0  0  0
    2.4771   -0.3556   -0.0000 C   0  0  0  0  0  0  0  0  0  0  0  0
    0.9245    4.8238   -0.0000 C   0  0  0  0  0  0  0  0  0  0  0  0
   -4.0890    3.4845   -0.0000 O   0  0  0  0  0  0  0  0  0  0  0  0
   -5.1675    1.1497   -0.0000 N   0  0  0  0  0  0  0  0  0  0  0  0
    1.1378   -1.0548   -0.0000 N   0  0  0  0  0  0  0  0  0  0  0  0
    3.7453   -1.1378   -0.0000 N   0  0  0  0  0  0  0  0  0  0  0  0
   -6.5898    1.6711   -0.0000 C   0  0  0  0  0  0  0  0  0  0  0  0
   -5.2268   -0.3437   -0.0000 C   0  0  0  0  0  0  0  0  0  0  0  0
    1.0785   -2.5363   -0.0000 C   0  0  0  0  0  0  0  0  0  0  0  0
    5.0608   -0.4148   -0.0000 C   0  0  0  0  0  0  0  0  0  0  0  0
   -7.5261    0.4978   -0.0000 C   0  0  0  0  0  0  0  0  0  0  0  0
   -6.6846   -0.7467   -0.0000 C   0  0  0  0  0  0  0  0  0  0  0  0
   -0.2607   -3.2238   -0.0000 O   0  0  0  0  0  0  0  0  0  0  0  0
    2.3349   -3.3186   -0.0000 C   0  0  0  0  0  0  0  0  0  0  0  0
    6.3290   -1.1971   -0.0000 C   0  0  0  0  0  0  0  0  0  0  0  0
    5.0964    1.1022   -0.0000 C   0  0  0  0  0  0  0  0  0  0  0  0
    2.2637   -4.8001   -0.0000 C   0  0  0  0  0  0  0  0  0  0  0  0
    3.6386   -2.5956   -0.0000 C   0  0  0  0  0  0  0  0  0  0  0  0
    7.6327   -0.4859   -0.0000 C   0  0  0  0  0  0  0  0  0  0  0  0
    6.4120    1.8252   -0.0000 C   0  0  0  0  0  0  0  0  0  0  0  0
    3.5201   -5.5823   -0.0000 N   0  0  0  0  0  0  0  0  0  0  0  0
    4.8949   -3.3660   -0.0000 C   0  0  0  0  0  0  0  0  0  0  0  0
    7.6801    1.0311   -0.0000 C   0  0  0  0  0  0  0  0  0  0  0  0
    9.0431   -0.9837   -0.0000 C   0  0  0  0  0  0  0  0  0  0  0  0
    3.4964   -7.0638   -0.0000 O   0  0  0  0  0  0  0  0  0  0  0  0
    4.8356   -4.8712   -0.0000 C   0  0  0  0  0  0  0  0  0  0  0  0
    9.1024    1.4578   -0.0000 O   0  0  0  0  0  0  0  0  0  0  0  0
    9.9557    0.2133   -0.0000 C   0  0  0  0  0  0  0  0  0  0  0  0
   11.4491    0.1778   -0.0000 C   0  0  0  0  0  0  0  0  0  0  0  0
  1  2  2  0  0  0  0
  2  3  1  0  0  0  0
  2  4  1  0  0  0  0
  3  5  1  0  0  0  0
  3  6  1  0  0  0  0
  4  7  1  6  0  0  0
  4  8  1  0  0  0  0
  5  9  1  0  0  0  0
  6 10  1  0  0  0  0
  7 11  1  0  0  0  0
  8 12  1  0  0  0  0
 10 13  2  0  0  0  0
 10 14  1  0  0  0  0
 11 15  2  0  0  0  0
 11 16  1  0  0  0  0
 14 17  1  0  0  0  0
 14 18  1  0  0  0  0
 15 19  1  0  0  0  0
 16 20  1  0  0  0  0
 17 21  1  0  0  0  0
 18 22  1  0  0  0  0
 19 23  2  0  0  0  0
 19 24  1  0  0  0  0
 20 25  2  0  0  0  0
 20 26  1  0  0  0  0
 24 27  2  0  0  0  0
 24 28  1  0  0  0  0
 25 29  1  0  0  0  0
 26 30  2  0  0  0  0
 27 31  1  0  0  0  0
 28 32  2  0  0  0  0
 29 33  2  0  0  0  0
 29 34  1  0  0  0  0
 31 35  1  0  0  0  0
 31 36  2  0  0  0  0
 33 37  1  0  0  0  0
 34 38  2  0  0  0  0
 38 39  1  0  0  0  0
  9 12  1  0  0  0  0
 21 22  1  0  0  0  0
 30 33  1  0  0  0  0
 32 36  1  0  0  0  0
 37 38  1  0  0  0  0
M  CHG  2  31   1  35  -1
M  END
>  <MolRegNo>
583258

>  <m>
=

>  <Value>
900

>  <Unit>
nM

>  <Type>
IC50

>  <pValue>
6.05

>  <Ligand Efficiency>
0

>  <Binding Efficiency>
0

>  <Surface Efficiency>
0

>  <Assay Index>
441072

>  <Assay Category>


>  <Assay Organism>


>  <Target ID>
17045

>  <Target Name>
Cytochrome P450 3A4

>  <Target Organism>
Homo sapiens

>  <Target Description>
Target is a single protein chain

>  <Sequence Accession>
P08684

>  <Reference>
Bioorg Med Chem Lett 19 (24), 6882-6889 (2009)

>  <Pubmed ID>
19896847

>  <DOI>
10.1016/j.bmcl.2009.10.084

$$$$
583259
Actelion Java MolfileCreator 1.0

 41 45  0  0  0  0  0  0  0  0999 V2000
    0.0000   -0.0000   -0.0000 O   0  0  0  0  0  0  0  0  0  0  0  0
    0.0474    1.5057   -0.0000 C   0  0  0  0  0  0  0  0  0  0  0  0
   -1.2804    2.2051   -0.0000 N   0  0  0  0  0  0  0  0  0  0  0  0
    1.4108    2.1103   -0.0000 C   0  0  0  0  0  0  0  0  0  0  0  0
   -1.5768    3.7108   -0.0000 C   0  0  0  0  0  0  0  0  0  0  0  0
   -2.5371    1.3752   -0.0000 C   0  0  0  0  0  0  0  0  0  0  0  0
    2.5371    1.1381   -0.0000 N   0  0  0  0  0  0  0  0  0  0  0  0
    1.7783    3.5567   -0.0000 C   0  0  0  0  0  0  0  0  0  0  0  0
   -0.6046    4.8608   -0.0000 C   0  0  0  0  0  0  0  0  0  0  0  0
   -3.9123    1.9799   -0.0000 C   0  0  0  0  0  0  0  0  0  0  0  0
    2.4778   -0.3557   -0.0000 C   0  0  0  0  0  0  0  0  0  0  0  0
    0.9247    4.8252   -0.0000 C   0  0  0  0  0  0  0  0  0  0  0  0
   -4.0902    3.4855   -0.0000 O   0  0  0  0  0  0  0  0  0  0  0  0
   -5.1690    1.1500   -0.0000 N   0  0  0  0  0  0  0  0  0  0  0  0
    1.1381   -1.0551   -0.0000 N   0  0  0  0  0  0  0  0  0  0  0  0
    3.7464   -1.1381   -0.0000 N   0  0  0  0  0  0  0  0  0  0  0  0
   -6.5917    1.6716   -0.0000 C   0  0  0  0  0  0  0  0  0  0  0  0
   -5.2283   -0.3438   -0.0000 C   0  0  0  0  0  0  0  0  0  0  0  0
    1.0789   -2.5371   -0.0000 C   0  0  0  0  0  0  0  0  0  0  0  0
    5.0623   -0.4149   -0.0000 C   0  0  0  0  0  0  0  0  0  0  0  0
   -7.5283    0.4979   -0.0000 C   0  0  0  0  0  0  0  0  0  0  0  0
   -6.6865   -0.7469   -0.0000 C   0  0  0  0  0  0  0  0  0  0  0  0
   -0.2608   -3.2247   -0.0000 O   0  0  0  0  0  0  0  0  0  0  0  0
    2.3355   -3.3196   -0.0000 C   0  0  0  0  0  0  0  0  0  0  0  0
    6.3309   -1.1974   -0.0000 C   0  0  0  0  0  0  0  0  0  0  0  0
    5.0979    1.1026   -0.0000 C   0  0  0  0  0  0  0  0  0  0  0  0
    3.6397   -2.5964   -0.0000 C   0  0  0  0  0  0  0  0  0  0  0  0
    2.2644   -4.8015   -0.0000 C   0  0  0  0  0  0  0  0  0  0  0  0
    7.6350   -0.4861   -0.0000 C   0  0  0  0  0  0  0  0  0  0  0  0
    6.4139    1.8258   -0.0000 C   0  0  0  0  0  0  0  0  0  0  0  0
    4.8963   -3.3670   -0.0000 N   0  0  0  0  0  0  0  0  0  0  0  0
    3.5211   -5.5840   -0.0000 C   0  0  0  0  0  0  0  0  0  0  0  0
    7.6824    1.0314   -0.0000 C   0  0  0  0  0  0  0  0  0  0  0  0
    9.0458   -0.9840   -0.0000 C   0  0  0  0  0  0  0  0  0  0  0  0
    4.8371   -4.8608   -0.0000 C   0  0  0  0  0  0  0  0  0  0  0  0
    3.4618   -7.0659   -0.0000 C   0  0  0  0  0  0  0  0  0  0  0  0
    9.1051    1.4582   -0.0000 O   0  0  0  0  0  0  0  0  0  0  0  0
    9.9587    0.2134   -0.0000 C   0  0  0  0  0  0  0  0  0  0  0  0
    2.1221   -7.7535   -0.0000 O   0  0  0  0  0  0  0  0  0  0  0  0
    4.7185   -7.8484   -0.0000 N   0  0  0  0  0  0  0  0  0  0  0  0
   11.4525    0.1778   -0.0000 C   0  0  0  0  0  0  0  0  0  0  0  0
  1  2  2  0  0  0  0
  2  3  1  0  0  0  0
  2  4  1  0  0  0  0
  3  5  1  0  0  0  0
  3  6  1  0  0  0  0
  4  7  1  6  0  0  0
  4  8  1  0  0  0  0
  5  9  1  0  0  0  0
  6 10  1  0  0  0  0
  7 11  1  0  0  0  0
  8 12  1  0  0  0  0
 10 13  2  0  0  0  0
 10 14  1  0  0  0  0
 11 15  2  0  0  0  0
 11 16  1  0  0  0  0
 14 17  1  0  0  0  0
 14 18  1  0  0  0  0
 15 19  1  0  0  0  0
 16 20  1  0  0  0  0
 17 21  1  0  0  0  0
 18 22  1  0  0  0  0
 19 23  2  0  0  0  0
 19 24  1  0  0  0  0
 20 25  2  0  0  0  0
 20 26  1  0  0  0  0
 24 27  2  0  0  0  0
 24 28  1  0  0  0  0
 25 29  1  0  0  0  0
 26 30  2  0  0  0  0
 27 31  1  0  0  0  0
 28 32  2  0  0  0  0
 29 33  2  0  0  0  0
 29 34  1  0  0  0  0
 31 35  2  0  0  0  0
 32 36  1  0  0  0  0
 33 37  1  0  0  0  0
 34 38  2  0  0  0  0
 36 39  2  0  0  0  0
 36 40  1  0  0  0  0
 38 41  1  0  0  0  0
  9 12  1  0  0  0  0
 21 22  1  0  0  0  0
 30 33  1  0  0  0  0
 32 35  1  0  0  0  0
 37 38  1  0  0  0  0
M  END
>  <MolRegNo>
583259

>  <m>
=

>  <Value>
400

>  <Unit>
nM

>  <Type>
IC50

>  <pValue>
6.4

>  <Ligand Efficiency>
0

>  <Binding Efficiency>
0

>  <Surface Efficiency>
0

>  <Assay Index>
441072

>  <Assay Category>


>  <Assay Organism>


>  <Target ID>
17045

>  <Target Name>
Cytochrome P450 3A4

>  <Target Organism>
Homo sapiens

>  <Target Description>
Target is a single protein chain

>  <Sequence Accession>
P08684

>  <Reference>
Bioorg Med Chem Lett 19 (24), 6882-6889 (2009)

>  <Pubmed ID>
19896847

>  <DOI>
10.1016/j.bmcl.2009.10.084

$$$$
583267
Actelion Java MolfileCreator 1.0

 39 43  0  0  0  0  0  0  0  0999 V2000
    0.0000   -0.0000   -0.0000 O   0  0  0  0  0  0  0  0  0  0  0  0
    0.0474    1.5054   -0.0000 C   0  0  0  0  0  0  0  0  0  0  0  0
   -1.2802    2.2047   -0.0000 N   0  0  0  0  0  0  0  0  0  0  0  0
    1.4105    2.1099   -0.0000 C   0  0  0  0  0  0  0  0  0  0  0  0
   -1.5765    3.7101   -0.0000 C   0  0  0  0  0  0  0  0  0  0  0  0
   -2.5366    1.3750   -0.0000 C   0  0  0  0  0  0  0  0  0  0  0  0
    2.5366    1.1379   -0.0000 N   0  0  0  0  0  0  0  0  0  0  0  0
    1.7780    3.5560   -0.0000 C   0  0  0  0  0  0  0  0  0  0  0  0
   -0.6045    4.8598   -0.0000 C   0  0  0  0  0  0  0  0  0  0  0  0
   -3.9116    1.9676   -0.0000 C   0  0  0  0  0  0  0  0  0  0  0  0
    2.4773   -0.3556   -0.0000 C   0  0  0  0  0  0  0  0  0  0  0  0
    0.9246    4.8243   -0.0000 C   0  0  0  0  0  0  0  0  0  0  0  0
   -4.0894    3.4730   -0.0000 O   0  0  0  0  0  0  0  0  0  0  0  0
   -5.1680    1.1379   -0.0000 N   0  0  0  0  0  0  0  0  0  0  0  0
    1.1379   -1.0549   -0.0000 N   0  0  0  0  0  0  0  0  0  0  0  0
    3.7456   -1.1379   -0.0000 N   0  0  0  0  0  0  0  0  0  0  0  0
   -6.5904    1.6595   -0.0000 C   0  0  0  0  0  0  0  0  0  0  0  0
   -5.2273   -0.3556   -0.0000 C   0  0  0  0  0  0  0  0  0  0  0  0
    1.0786   -2.5366   -0.0000 C   0  0  0  0  0  0  0  0  0  0  0  0
    5.0613   -0.4149   -0.0000 C   0  0  0  0  0  0  0  0  0  0  0  0
   -7.5268    0.4860   -0.0000 C   0  0  0  0  0  0  0  0  0  0  0  0
   -6.6852   -0.7586   -0.0000 C   0  0  0  0  0  0  0  0  0  0  0  0
   -0.2608   -3.2241   -0.0000 O   0  0  0  0  0  0  0  0  0  0  0  0
    2.3351   -3.3189   -0.0000 C   0  0  0  0  0  0  0  0  0  0  0  0
    6.3296   -1.1972   -0.0000 C   0  0  0  0  0  0  0  0  0  0  0  0
    5.0969    1.1024   -0.0000 C   0  0  0  0  0  0  0  0  0  0  0  0
    2.2640   -4.8006   -0.0000 C   0  0  0  0  0  0  0  0  0  0  0  0
    3.6390   -2.5959   -0.0000 C   0  0  0  0  0  0  0  0  0  0  0  0
    7.6335   -0.4860   -0.0000 C   0  0  0  0  0  0  0  0  0  0  0  0
    6.4126    1.8254   -0.0000 C   0  0  0  0  0  0  0  0  0  0  0  0
    3.5204   -5.5829   -0.0000 N   0  0  0  0  0  0  0  0  0  0  0  0
    4.8954   -3.3663   -0.0000 C   0  0  0  0  0  0  0  0  0  0  0  0
    7.6809    1.0312   -0.0000 C   0  0  0  0  0  0  0  0  0  0  0  0
    9.0440   -0.9838   -0.0000 C   0  0  0  0  0  0  0  0  0  0  0  0
    4.8361   -4.8717   -0.0000 C   0  0  0  0  0  0  0  0  0  0  0  0
    9.1033    1.4580   -0.0000 O   0  0  0  0  0  0  0  0  0  0  0  0
    9.9567    0.2134   -0.0000 C   0  0  0  0  0  0  0  0  0  0  0  0
    6.0926   -5.6540   -0.0000 C   0  0  0  0  0  0  0  0  0  0  0  0
   11.4503    0.1778   -0.0000 C   0  0  0  0  0  0  0  0  0  0  0  0
  1  2  2  0  0  0  0
  2  3  1  0  0  0  0
  2  4  1  0  0  0  0
  3  5  1  0  0  0  0
  3  6  1  0  0  0  0
  4  7  1  6  0  0  0
  4  8  1  0  0  0  0
  5  9  1  0  0  0  0
  6 10  1  0  0  0  0
  7 11  1  0  0  0  0
  8 12  1  0  0  0  0
 10 13  2  0  0  0  0
 10 14  1  0  0  0  0
 11 15  2  0  0  0  0
 11 16  1  0  0  0  0
 14 17  1  0  0  0  0
 14 18  1  0  0  0  0
 15 19  1  0  0  0  0
 16 20  1  0  0  0  0
 17 21  1  0  0  0  0
 18 22  1  0  0  0  0
 19 23  2  0  0  0  0
 19 24  1  0  0  0  0
 20 25  2  0  0  0  0
 20 26  1  0  0  0  0
 24 27  2  0  0  0  0
 24 28  1  0  0  0  0
 25 29  1  0  0  0  0
 26 30  2  0  0  0  0
 27 31  1  0  0  0  0
 28 32  2  0  0  0  0
 29 33  2  0  0  0  0
 29 34  1  0  0  0  0
 31 35  2  0  0  0  0
 33 36  1  0  0  0  0
 34 37  2  0  0  0  0
 35 38  1  0  0  0  0
 37 39  1  0  0  0  0
  9 12  1  0  0  0  0
 21 22  1  0  0  0  0
 30 33  1  0  0  0  0
 32 35  1  0  0  0  0
 36 37  1  0  0  0  0
M  END
>  <MolRegNo>
583267

>  <m>
=

>  <Value>
7000

>  <Unit>
nM

>  <Type>
IC50

>  <pValue>
5.16

>  <Ligand Efficiency>
0

>  <Binding Efficiency>
0

>  <Surface Efficiency>
0

>  <Assay Index>
441072

>  <Assay Category>


>  <Assay Organism>


>  <Target ID>
17045

>  <Target Name>
Cytochrome P450 3A4

>  <Target Organism>
Homo sapiens

>  <Target Description>
Target is a single protein chain

>  <Sequence Accession>
P08684

>  <Reference>
Bioorg Med Chem Lett 19 (24), 6882-6889 (2009)

>  <Pubmed ID>
19896847

>  <DOI>
10.1016/j.bmcl.2009.10.084

$$$$
583283
Actelion Java MolfileCreator 1.0

 39 43  0  0  0  0  0  0  0  0999 V2000
    0.0000   -0.0000   -0.0000 Cl  0  0  0  0  0  0  0  0  0  0  0  0
   -1.2773    0.7998   -0.0000 C   0  0  0  0  0  0  0  0  0  0  0  0
   -2.6024    0.1074   -0.0000 N   0  0  0  0  0  0  0  0  0  0  0  0
   -1.2415    2.3159   -0.0000 C   0  0  0  0  0  0  0  0  0  0  0  0
   -3.8797    0.9073   -0.0000 C   0  0  0  0  0  0  0  0  0  0  0  0
   -2.5188    3.1157   -0.0000 C   0  0  0  0  0  0  0  0  0  0  0  0
   -3.8320    2.4114   -0.0000 C   0  0  0  0  0  0  0  0  0  0  0  0
   -5.1093    3.2112   -0.0000 C   0  0  0  0  0  0  0  0  0  0  0  0
   -6.4344    2.5188   -0.0000 O   0  0  0  0  0  0  0  0  0  0  0  0
   -5.0735    4.7154   -0.0000 N   0  0  0  0  0  0  0  0  0  0  0  0
   -3.7723    5.4316   -0.0000 C   0  0  0  0  0  0  0  0  0  0  0  0
   -2.5069    4.6557   -0.0000 N   0  0  0  0  0  0  0  0  0  0  0  0
   -3.7365    6.9477   -0.0000 N   0  0  0  0  0  0  0  0  0  0  0  0
   -1.1938    5.3719   -0.0000 C   0  0  0  0  0  0  0  0  0  0  0  0
   -4.8825    7.9385   -0.0000 C   0  0  0  0  0  0  0  0  0  0  0  0
    0.0716    4.5960   -0.0000 C   0  0  0  0  0  0  0  0  0  0  0  0
   -1.1579    6.8761   -0.0000 C   0  0  0  0  0  0  0  0  0  0  0  0
   -6.2672    7.3536   -0.0000 C   0  0  0  0  0  0  0  0  0  0  0  0
   -4.5244    9.3710   -0.0000 C   0  0  0  0  0  0  0  0  0  0  0  0
    1.3728    5.3122   -0.0000 C   0  0  0  0  0  0  0  0  0  0  0  0
    0.1552    7.5923   -0.0000 C   0  0  0  0  0  0  0  0  0  0  0  0
   -6.3389    5.8733   -0.0000 O   0  0  0  0  0  0  0  0  0  0  0  0
   -7.5923    8.0579   -0.0000 N   0  0  0  0  0  0  0  0  0  0  0  0
   -5.3839   10.6245   -0.0000 C   0  0  0  0  0  0  0  0  0  0  0  0
    1.4206    6.8283   -0.0000 C   0  0  0  0  0  0  0  0  0  0  0  0
    2.7695    4.8109   -0.0000 C   0  0  0  0  0  0  0  0  0  0  0  0
   -7.8908    9.5620   -0.0000 C   0  0  0  0  0  0  0  0  0  0  0  0
   -8.8458    7.2223   -0.0000 C   0  0  0  0  0  0  0  0  0  0  0  0
   -6.9119   10.6842   -0.0000 C   0  0  0  0  0  0  0  0  0  0  0  0
    2.8412    7.2461   -0.0000 O   0  0  0  0  0  0  0  0  0  0  0  0
    3.6768    6.0046   -0.0000 C   0  0  0  0  0  0  0  0  0  0  0  0
  -10.2186    7.8191   -0.0000 C   0  0  0  0  0  0  0  0  0  0  0  0
    5.1690    5.9688   -0.0000 C   0  0  0  0  0  0  0  0  0  0  0  0
  -10.3857    9.3233   -0.0000 O   0  0  0  0  0  0  0  0  0  0  0  0
  -11.4720    6.9954   -0.0000 N   0  0  0  0  0  0  0  0  0  0  0  0
  -12.8926    7.5207   -0.0000 C   0  0  0  0  0  0  0  0  0  0  0  0
  -11.5317    5.5152   -0.0000 C   0  0  0  0  0  0  0  0  0  0  0  0
  -13.8238    6.3508   -0.0000 C   0  0  0  0  0  0  0  0  0  0  0  0
  -12.9881    5.1093   -0.0000 C   0  0  0  0  0  0  0  0  0  0  0  0
  1  2  1  0  0  0  0
  2  3  2  0  0  0  0
  2  4  1  0  0  0  0
  3  5  1  0  0  0  0
  4  6  2  0  0  0  0
  5  7  2  0  0  0  0
  7  8  1  0  0  0  0
  8  9  2  0  0  0  0
  8 10  1  0  0  0  0
 10 11  2  0  0  0  0
 11 12  1  0  0  0  0
 11 13  1  0  0  0  0
 12 14  1  0  0  0  0
 15 13  1  6  0  0  0
 14 16  2  0  0  0  0
 14 17  1  0  0  0  0
 15 18  1  0  0  0  0
 15 19  1  0  0  0  0
 16 20  1  0  0  0  0
 17 21  2  0  0  0  0
 18 22  2  0  0  0  0
 18 23  1  0  0  0  0
 19 24  1  0  0  0  0
 20 25  2  0  0  0  0
 20 26  1  0  0  0  0
 23 27  1  0  0  0  0
 23 28  1  0  0  0  0
 24 29  1  0  0  0  0
 25 30  1  0  0  0  0
 26 31  2  0  0  0  0
 28 32  1  0  0  0  0
 31 33  1  0  0  0  0
 32 34  2  0  0  0  0
 32 35  1  0  0  0  0
 35 36  1  0  0  0  0
 35 37  1  0  0  0  0
 36 38  1  0  0  0  0
 37 39  1  0  0  0  0
  6  7  1  0  0  0  0
 21 25  1  0  0  0  0
 27 29  1  0  0  0  0
 30 31  1  0  0  0  0
 38 39  1  0  0  0  0
M  END
>  <MolRegNo>
583283

>  <m>
=

>  <Value>
8000

>  <Unit>
nM

>  <Type>
IC50

>  <pValue>
5.1

>  <Ligand Efficiency>
0

>  <Binding Efficiency>
0

>  <Surface Efficiency>
0

>  <Assay Index>
441072

>  <Assay Category>


>  <Assay Organism>


>  <Target ID>
17045

>  <Target Name>
Cytochrome P450 3A4

>  <Target Organism>
Homo sapiens

>  <Target Description>
Target is a single protein chain

>  <Sequence Accession>
P08684

>  <Reference>
Bioorg Med Chem Lett 19 (24), 6882-6889 (2009)

>  <Pubmed ID>
19896847

>  <DOI>
10.1016/j.bmcl.2009.10.084

$$$$
583284
Actelion Java MolfileCreator 1.0

 41 45  0  0  0  0  0  0  0  0999 V2000
    0.0000   -0.0000   -0.0000 O   0  0  0  0  0  0  0  0  0  0  0  0
    0.0474    1.5056   -0.0000 C   0  0  0  0  0  0  0  0  0  0  0  0
   -1.2804    2.2051   -0.0000 N   0  0  0  0  0  0  0  0  0  0  0  0
    1.4108    2.1102   -0.0000 C   0  0  0  0  0  0  0  0  0  0  0  0
   -1.5767    3.7107   -0.0000 C   0  0  0  0  0  0  0  0  0  0  0  0
   -2.5370    1.3752   -0.0000 C   0  0  0  0  0  0  0  0  0  0  0  0
    2.5370    1.1381   -0.0000 N   0  0  0  0  0  0  0  0  0  0  0  0
    1.7783    3.5566   -0.0000 C   0  0  0  0  0  0  0  0  0  0  0  0
   -0.6046    4.8606   -0.0000 C   0  0  0  0  0  0  0  0  0  0  0  0
   -3.9122    1.9798   -0.0000 C   0  0  0  0  0  0  0  0  0  0  0  0
    2.4777   -0.3557   -0.0000 C   0  0  0  0  0  0  0  0  0  0  0  0
    0.9247    4.8251   -0.0000 C   0  0  0  0  0  0  0  0  0  0  0  0
   -4.0901    3.4854   -0.0000 O   0  0  0  0  0  0  0  0  0  0  0  0
   -5.1689    1.1500   -0.0000 N   0  0  0  0  0  0  0  0  0  0  0  0
    1.1381   -1.0551   -0.0000 N   0  0  0  0  0  0  0  0  0  0  0  0
    3.7463   -1.1381   -0.0000 N   0  0  0  0  0  0  0  0  0  0  0  0
   -6.5915    1.6716   -0.0000 C   0  0  0  0  0  0  0  0  0  0  0  0
   -5.2282   -0.3438   -0.0000 C   0  0  0  0  0  0  0  0  0  0  0  0
    1.0788   -2.5370   -0.0000 C   0  0  0  0  0  0  0  0  0  0  0  0
    5.0622   -0.4149   -0.0000 C   0  0  0  0  0  0  0  0  0  0  0  0
   -7.5281    0.4979   -0.0000 C   0  0  0  0  0  0  0  0  0  0  0  0
   -6.6863   -0.7469   -0.0000 C   0  0  0  0  0  0  0  0  0  0  0  0
   -0.2608   -3.2246   -0.0000 O   0  0  0  0  0  0  0  0  0  0  0  0
    2.3355   -3.3195   -0.0000 C   0  0  0  0  0  0  0  0  0  0  0  0
    6.3307   -1.1974   -0.0000 C   0  0  0  0  0  0  0  0  0  0  0  0
    5.0977    1.1025   -0.0000 C   0  0  0  0  0  0  0  0  0  0  0  0
    2.2643   -4.8014   -0.0000 C   0  0  0  0  0  0  0  0  0  0  0  0
    3.6396   -2.5963   -0.0000 C   0  0  0  0  0  0  0  0  0  0  0  0
    7.6348   -0.4861   -0.0000 C   0  0  0  0  0  0  0  0  0  0  0  0
    6.4137    1.8257   -0.0000 C   0  0  0  0  0  0  0  0  0  0  0  0
    3.5210   -5.5838   -0.0000 N   0  0  0  0  0  0  0  0  0  0  0  0
    4.8962   -3.3669   -0.0000 C   0  0  0  0  0  0  0  0  0  0  0  0
    7.6822    1.0314   -0.0000 C   0  0  0  0  0  0  0  0  0  0  0  0
    9.0455   -0.9840   -0.0000 C   0  0  0  0  0  0  0  0  0  0  0  0
    4.8369   -4.8725   -0.0000 C   0  0  0  0  0  0  0  0  0  0  0  0
    9.1048    1.4582   -0.0000 O   0  0  0  0  0  0  0  0  0  0  0  0
    9.9584    0.2134   -0.0000 C   0  0  0  0  0  0  0  0  0  0  0  0
    6.0936   -5.6549   -0.0000 C   0  0  0  0  0  0  0  0  0  0  0  0
   11.4521    0.1778   -0.0000 C   0  0  0  0  0  0  0  0  0  0  0  0
    7.4095   -4.9318   -0.0000 O   0  0  0  0  0  0  0  0  0  0  0  0
    6.0343   -7.1368   -0.0000 O   0  0  0  0  0  0  0  0  0  0  0  0
  1  2  2  0  0  0  0
  2  3  1  0  0  0  0
  2  4  1  0  0  0  0
  3  5  1  0  0  0  0
  3  6  1  0  0  0  0
  4  7  1  6  0  0  0
  4  8  1  0  0  0  0
  5  9  1  0  0  0  0
  6 10  1  0  0  0  0
  7 11  1  0  0  0  0
  8 12  1  0  0  0  0
 10 13  2  0  0  0  0
 10 14  1  0  0  0  0
 11 15  2  0  0  0  0
 11 16  1  0  0  0  0
 14 17  1  0  0  0  0
 14 18  1  0  0  0  0
 15 19  1  0  0  0  0
 16 20  1  0  0  0  0
 17 21  1  0  0  0  0
 18 22  1  0  0  0  0
 19 23  2  0  0  0  0
 19 24  1  0  0  0  0
 20 25  2  0  0  0  0
 20 26  1  0  0  0  0
 24 27  2  0  0  0  0
 24 28  1  0  0  0  0
 25 29  1  0  0  0  0
 26 30  2  0  0  0  0
 27 31  1  0  0  0  0
 28 32  2  0  0  0  0
 29 33  2  0  0  0  0
 29 34  1  0  0  0  0
 31 35  2  0  0  0  0
 33 36  1  0  0  0  0
 34 37  2  0  0  0  0
 35 38  1  0  0  0  0
 37 39  1  0  0  0  0
 38 40  2  0  0  0  0
 38 41  1  0  0  0  0
  9 12  1  0  0  0  0
 21 22  1  0  0  0  0
 30 33  1  0  0  0  0
 32 35  1  0  0  0  0
 36 37  1  0  0  0  0
M  END
>  <MolRegNo>
583284

>  <m>
=

>  <Value>
87000

>  <Unit>
nM

>  <Type>
IC50

>  <pValue>
4.06

>  <Ligand Efficiency>
0

>  <Binding Efficiency>
0

>  <Surface Efficiency>
0

>  <Assay Index>
441072

>  <Assay Category>


>  <Assay Organism>


>  <Target ID>
17045

>  <Target Name>
Cytochrome P450 3A4

>  <Target Organism>
Homo sapiens

>  <Target Description>
Target is a single protein chain

>  <Sequence Accession>
P08684

>  <Reference>
Bioorg Med Chem Lett 19 (24), 6882-6889 (2009)

>  <Pubmed ID>
19896847

>  <DOI>
10.1016/j.bmcl.2009.10.084

$$$$
583285
Actelion Java MolfileCreator 1.0

 41 45  0  0  0  0  0  0  0  0999 V2000
    0.0000   -0.0000   -0.0000 O   0  0  0  0  0  0  0  0  0  0  0  0
    0.0474    1.5058   -0.0000 C   0  0  0  0  0  0  0  0  0  0  0  0
   -1.2806    2.2054   -0.0000 N   0  0  0  0  0  0  0  0  0  0  0  0
    1.4110    2.1106   -0.0000 C   0  0  0  0  0  0  0  0  0  0  0  0
   -1.5770    3.7113   -0.0000 C   0  0  0  0  0  0  0  0  0  0  0  0
   -2.5374    1.3754   -0.0000 C   0  0  0  0  0  0  0  0  0  0  0  0
    2.5374    1.1383   -0.0000 N   0  0  0  0  0  0  0  0  0  0  0  0
    1.7786    3.5571   -0.0000 C   0  0  0  0  0  0  0  0  0  0  0  0
   -0.6047    4.8614   -0.0000 C   0  0  0  0  0  0  0  0  0  0  0  0
   -3.9128    1.9801   -0.0000 C   0  0  0  0  0  0  0  0  0  0  0  0
    2.4781   -0.3557   -0.0000 C   0  0  0  0  0  0  0  0  0  0  0  0
    0.9248    4.8258   -0.0000 C   0  0  0  0  0  0  0  0  0  0  0  0
   -4.0907    3.4860   -0.0000 O   0  0  0  0  0  0  0  0  0  0  0  0
   -5.1697    1.1501   -0.0000 N   0  0  0  0  0  0  0  0  0  0  0  0
    1.1383   -1.0553   -0.0000 N   0  0  0  0  0  0  0  0  0  0  0  0
    3.7468   -1.1383   -0.0000 N   0  0  0  0  0  0  0  0  0  0  0  0
   -6.5925    1.6718   -0.0000 C   0  0  0  0  0  0  0  0  0  0  0  0
   -5.2290   -0.3439   -0.0000 C   0  0  0  0  0  0  0  0  0  0  0  0
    1.0790   -2.5374   -0.0000 C   0  0  0  0  0  0  0  0  0  0  0  0
    5.0630   -0.4150   -0.0000 C   0  0  0  0  0  0  0  0  0  0  0  0
   -7.5292    0.4980   -0.0000 C   0  0  0  0  0  0  0  0  0  0  0  0
   -6.6874   -0.7470   -0.0000 C   0  0  0  0  0  0  0  0  0  0  0  0
   -0.2609   -3.2251   -0.0000 O   0  0  0  0  0  0  0  0  0  0  0  0
    2.3358   -3.3200   -0.0000 C   0  0  0  0  0  0  0  0  0  0  0  0
    6.3317   -1.1976   -0.0000 C   0  0  0  0  0  0  0  0  0  0  0  0
    5.0985    1.1027   -0.0000 C   0  0  0  0  0  0  0  0  0  0  0  0
    2.2647   -4.8021   -0.0000 C   0  0  0  0  0  0  0  0  0  0  0  0
    3.6401   -2.5967   -0.0000 C   0  0  0  0  0  0  0  0  0  0  0  0
    7.6359   -0.4861   -0.0000 C   0  0  0  0  0  0  0  0  0  0  0  0
    6.4147    1.8260   -0.0000 C   0  0  0  0  0  0  0  0  0  0  0  0
    3.5215   -5.5847   -0.0000 N   0  0  0  0  0  0  0  0  0  0  0  0
    4.8970   -3.3674   -0.0000 C   0  0  0  0  0  0  0  0  0  0  0  0
    7.6834    1.0316   -0.0000 C   0  0  0  0  0  0  0  0  0  0  0  0
    9.0469   -0.9841   -0.0000 C   0  0  0  0  0  0  0  0  0  0  0  0
    4.8377   -4.8732   -0.0000 C   0  0  0  0  0  0  0  0  0  0  0  0
    9.1062    1.4584   -0.0000 O   0  0  0  0  0  0  0  0  0  0  0  0
    9.9599    0.2134   -0.0000 C   0  0  0  0  0  0  0  0  0  0  0  0
    6.0945   -5.6558   -0.0000 C   0  0  0  0  0  0  0  0  0  0  0  0
   11.4539    0.1779   -0.0000 C   0  0  0  0  0  0  0  0  0  0  0  0
    6.0352   -7.1379   -0.0000 O   0  0  0  0  0  0  0  0  0  0  0  0
    7.3988   -4.9325   -0.0000 N   0  0  0  0  0  0  0  0  0  0  0  0
  1  2  2  0  0  0  0
  2  3  1  0  0  0  0
  2  4  1  0  0  0  0
  3  5  1  0  0  0  0
  3  6  1  0  0  0  0
  4  7  1  6  0  0  0
  4  8  1  0  0  0  0
  5  9  1  0  0  0  0
  6 10  1  0  0  0  0
  7 11  1  0  0  0  0
  8 12  1  0  0  0  0
 10 13  2  0  0  0  0
 10 14  1  0  0  0  0
 11 15  2  0  0  0  0
 11 16  1  0  0  0  0
 14 17  1  0  0  0  0
 14 18  1  0  0  0  0
 15 19  1  0  0  0  0
 16 20  1  0  0  0  0
 17 21  1  0  0  0  0
 18 22  1  0  0  0  0
 19 23  2  0  0  0  0
 19 24  1  0  0  0  0
 20 25  2  0  0  0  0
 20 26  1  0  0  0  0
 24 27  2  0  0  0  0
 24 28  1  0  0  0  0
 25 29  1  0  0  0  0
 26 30  2  0  0  0  0
 27 31  1  0  0  0  0
 28 32  2  0  0  0  0
 29 33  2  0  0  0  0
 29 34  1  0  0  0  0
 31 35  2  0  0  0  0
 33 36  1  0  0  0  0
 34 37  2  0  0  0  0
 35 38  1  0  0  0  0
 37 39  1  0  0  0  0
 38 40  2  0  0  0  0
 38 41  1  0  0  0  0
  9 12  1  0  0  0  0
 21 22  1  0  0  0  0
 30 33  1  0  0  0  0
 32 35  1  0  0  0  0
 36 37  1  0  0  0  0
M  END
>  <MolRegNo>
583285

>  <m>
=

>  <Value>
18000

>  <Unit>
nM

>  <Type>
IC50

>  <pValue>
4.75

>  <Ligand Efficiency>
0

>  <Binding Efficiency>
0

>  <Surface Efficiency>
0

>  <Assay Index>
441072

>  <Assay Category>


>  <Assay Organism>


>  <Target ID>
17045

>  <Target Name>
Cytochrome P450 3A4

>  <Target Organism>
Homo sapiens

>  <Target Description>
Target is a single protein chain

>  <Sequence Accession>
P08684

>  <Reference>
Bioorg Med Chem Lett 19 (24), 6882-6889 (2009)

>  <Pubmed ID>
19896847

>  <DOI>
10.1016/j.bmcl.2009.10.084

$$$$
583286
Actelion Java MolfileCreator 1.0

 42 46  0  0  0  0  0  0  0  0999 V2000
    0.0000   -0.0000   -0.0000 O   0  0  0  0  0  0  0  0  0  0  0  0
    0.0474    1.5063   -0.0000 C   0  0  0  0  0  0  0  0  0  0  0  0
   -1.2809    2.2060   -0.0000 N   0  0  0  0  0  0  0  0  0  0  0  0
    1.4114    2.1111   -0.0000 C   0  0  0  0  0  0  0  0  0  0  0  0
   -1.5774    3.7123   -0.0000 C   0  0  0  0  0  0  0  0  0  0  0  0
   -2.5381    1.3758   -0.0000 C   0  0  0  0  0  0  0  0  0  0  0  0
    2.5381    1.1386   -0.0000 N   0  0  0  0  0  0  0  0  0  0  0  0
    1.7791    3.5581   -0.0000 C   0  0  0  0  0  0  0  0  0  0  0  0
   -0.6049    4.8628   -0.0000 C   0  0  0  0  0  0  0  0  0  0  0  0
   -3.9139    1.9807   -0.0000 C   0  0  0  0  0  0  0  0  0  0  0  0
    2.4788   -0.3558   -0.0000 C   0  0  0  0  0  0  0  0  0  0  0  0
    0.9251    4.8272   -0.0000 C   0  0  0  0  0  0  0  0  0  0  0  0
   -4.0918    3.4870   -0.0000 O   0  0  0  0  0  0  0  0  0  0  0  0
   -5.1711    1.1505   -0.0000 N   0  0  0  0  0  0  0  0  0  0  0  0
    1.1386   -1.0556   -0.0000 N   0  0  0  0  0  0  0  0  0  0  0  0
    3.7479   -1.1386   -0.0000 N   0  0  0  0  0  0  0  0  0  0  0  0
   -6.5944    1.6723   -0.0000 C   0  0  0  0  0  0  0  0  0  0  0  0
   -5.2304   -0.3440   -0.0000 C   0  0  0  0  0  0  0  0  0  0  0  0
    1.0793   -2.5381   -0.0000 C   0  0  0  0  0  0  0  0  0  0  0  0
    5.0644   -0.4151   -0.0000 C   0  0  0  0  0  0  0  0  0  0  0  0
   -7.5313    0.4981   -0.0000 C   0  0  0  0  0  0  0  0  0  0  0  0
   -6.6893   -0.7472   -0.0000 C   0  0  0  0  0  0  0  0  0  0  0  0
   -0.2609   -3.2260   -0.0000 O   0  0  0  0  0  0  0  0  0  0  0  0
    2.3365   -3.3209   -0.0000 C   0  0  0  0  0  0  0  0  0  0  0  0
    6.3334   -1.1979   -0.0000 C   0  0  0  0  0  0  0  0  0  0  0  0
    5.1000    1.1030   -0.0000 C   0  0  0  0  0  0  0  0  0  0  0  0
    2.2653   -4.8035   -0.0000 C   0  0  0  0  0  0  0  0  0  0  0  0
    3.6411   -2.5974   -0.0000 C   0  0  0  0  0  0  0  0  0  0  0  0
    7.6381   -0.4863   -0.0000 C   0  0  0  0  0  0  0  0  0  0  0  0
    6.4165    1.8265   -0.0000 C   0  0  0  0  0  0  0  0  0  0  0  0
    3.5225   -5.5862   -0.0000 N   0  0  0  0  0  0  0  0  0  0  0  0
    4.8983   -3.3684   -0.0000 C   0  0  0  0  0  0  0  0  0  0  0  0
    7.6855    1.0319   -0.0000 C   0  0  0  0  0  0  0  0  0  0  0  0
    9.0495   -0.9844   -0.0000 C   0  0  0  0  0  0  0  0  0  0  0  0
    4.8390   -4.8746   -0.0000 C   0  0  0  0  0  0  0  0  0  0  0  0
    9.1088    1.4588   -0.0000 O   0  0  0  0  0  0  0  0  0  0  0  0
    9.9627    0.2135   -0.0000 C   0  0  0  0  0  0  0  0  0  0  0  0
    6.0962   -5.6574   -0.0000 C   0  0  0  0  0  0  0  0  0  0  0  0
   11.4571    0.1779   -0.0000 C   0  0  0  0  0  0  0  0  0  0  0  0
    6.0369   -7.1400   -0.0000 O   0  0  0  0  0  0  0  0  0  0  0  0
    7.4009   -4.9339   -0.0000 N   0  0  0  0  0  0  0  0  0  0  0  0
    8.6581   -5.7167   -0.0000 C   0  0  0  0  0  0  0  0  0  0  0  0
  1  2  2  0  0  0  0
  2  3  1  0  0  0  0
  2  4  1  0  0  0  0
  3  5  1  0  0  0  0
  3  6  1  0  0  0  0
  4  7  1  6  0  0  0
  4  8  1  0  0  0  0
  5  9  1  0  0  0  0
  6 10  1  0  0  0  0
  7 11  1  0  0  0  0
  8 12  1  0  0  0  0
 10 13  2  0  0  0  0
 10 14  1  0  0  0  0
 11 15  2  0  0  0  0
 11 16  1  0  0  0  0
 14 17  1  0  0  0  0
 14 18  1  0  0  0  0
 15 19  1  0  0  0  0
 16 20  1  0  0  0  0
 17 21  1  0  0  0  0
 18 22  1  0  0  0  0
 19 23  2  0  0  0  0
 19 24  1  0  0  0  0
 20 25  2  0  0  0  0
 20 26  1  0  0  0  0
 24 27  2  0  0  0  0
 24 28  1  0  0  0  0
 25 29  1  0  0  0  0
 26 30  2  0  0  0  0
 27 31  1  0  0  0  0
 28 32  2  0  0  0  0
 29 33  2  0  0  0  0
 29 34  1  0  0  0  0
 31 35  2  0  0  0  0
 33 36  1  0  0  0  0
 34 37  2  0  0  0  0
 35 38  1  0  0  0  0
 37 39  1  0  0  0  0
 38 40  2  0  0  0  0
 38 41  1  0  0  0  0
 41 42  1  0  0  0  0
  9 12  1  0  0  0  0
 21 22  1  0  0  0  0
 30 33  1  0  0  0  0
 32 35  1  0  0  0  0
 36 37  1  0  0  0  0
M  END
>  <MolRegNo>
583286

>  <m>
=

>  <Value>
18000

>  <Unit>
nM

>  <Type>
IC50

>  <pValue>
4.75

>  <Ligand Efficiency>
0

>  <Binding Efficiency>
0

>  <Surface Efficiency>
0

>  <Assay Index>
441072

>  <Assay Category>


>  <Assay Organism>


>  <Target ID>
17045

>  <Target Name>
Cytochrome P450 3A4

>  <Target Organism>
Homo sapiens

>  <Target Description>
Target is a single protein chain

>  <Sequence Accession>
P08684

>  <Reference>
Bioorg Med Chem Lett 19 (24), 6882-6889 (2009)

>  <Pubmed ID>
19896847

>  <DOI>
10.1016/j.bmcl.2009.10.084

$$$$
583287
Actelion Java MolfileCreator 1.0

 43 47  0  0  0  0  0  0  0  0999 V2000
    0.0000   -0.0000   -0.0000 O   0  0  0  0  0  0  0  0  0  0  0  0
    0.0474    1.5061   -0.0000 C   0  0  0  0  0  0  0  0  0  0  0  0
   -1.2808    2.2058   -0.0000 N   0  0  0  0  0  0  0  0  0  0  0  0
    1.4113    2.1109   -0.0000 C   0  0  0  0  0  0  0  0  0  0  0  0
   -1.5773    3.7120   -0.0000 C   0  0  0  0  0  0  0  0  0  0  0  0
   -2.5379    1.3757   -0.0000 C   0  0  0  0  0  0  0  0  0  0  0  0
    2.5379    1.1385   -0.0000 N   0  0  0  0  0  0  0  0  0  0  0  0
    1.7789    3.5578   -0.0000 C   0  0  0  0  0  0  0  0  0  0  0  0
   -0.6048    4.8623   -0.0000 C   0  0  0  0  0  0  0  0  0  0  0  0
   -3.9136    1.9805   -0.0000 C   0  0  0  0  0  0  0  0  0  0  0  0
    2.4786   -0.3558   -0.0000 C   0  0  0  0  0  0  0  0  0  0  0  0
    0.9250    4.8267   -0.0000 C   0  0  0  0  0  0  0  0  0  0  0  0
   -4.0914    3.4866   -0.0000 O   0  0  0  0  0  0  0  0  0  0  0  0
   -5.1706    1.1503   -0.0000 N   0  0  0  0  0  0  0  0  0  0  0  0
    1.1385   -1.0555   -0.0000 N   0  0  0  0  0  0  0  0  0  0  0  0
    3.7475   -1.1385   -0.0000 N   0  0  0  0  0  0  0  0  0  0  0  0
   -6.5938    1.6722   -0.0000 C   0  0  0  0  0  0  0  0  0  0  0  0
   -5.2299   -0.3439   -0.0000 C   0  0  0  0  0  0  0  0  0  0  0  0
    1.0792   -2.5379   -0.0000 C   0  0  0  0  0  0  0  0  0  0  0  0
    5.0639   -0.4151   -0.0000 C   0  0  0  0  0  0  0  0  0  0  0  0
   -7.5306    0.4981   -0.0000 C   0  0  0  0  0  0  0  0  0  0  0  0
   -6.6886   -0.7471   -0.0000 C   0  0  0  0  0  0  0  0  0  0  0  0
   -0.2609   -3.2257   -0.0000 O   0  0  0  0  0  0  0  0  0  0  0  0
    2.3363   -3.3206   -0.0000 C   0  0  0  0  0  0  0  0  0  0  0  0
    6.3328   -1.1978   -0.0000 C   0  0  0  0  0  0  0  0  0  0  0  0
    5.0995    1.1029   -0.0000 C   0  0  0  0  0  0  0  0  0  0  0  0
    2.2651   -4.8030   -0.0000 C   0  0  0  0  0  0  0  0  0  0  0  0
    3.6408   -2.5972   -0.0000 C   0  0  0  0  0  0  0  0  0  0  0  0
    7.6374   -0.4862   -0.0000 C   0  0  0  0  0  0  0  0  0  0  0  0
    6.4159    1.8263   -0.0000 C   0  0  0  0  0  0  0  0  0  0  0  0
    3.5222   -5.5857   -0.0000 N   0  0  0  0  0  0  0  0  0  0  0  0
    4.8979   -3.3680   -0.0000 C   0  0  0  0  0  0  0  0  0  0  0  0
    7.6848    1.0318   -0.0000 C   0  0  0  0  0  0  0  0  0  0  0  0
    9.0486   -0.9843   -0.0000 C   0  0  0  0  0  0  0  0  0  0  0  0
    4.8386   -4.8742   -0.0000 C   0  0  0  0  0  0  0  0  0  0  0  0
    9.1079    1.4587   -0.0000 O   0  0  0  0  0  0  0  0  0  0  0  0
    9.9618    0.2135   -0.0000 C   0  0  0  0  0  0  0  0  0  0  0  0
    6.0957   -5.6569   -0.0000 C   0  0  0  0  0  0  0  0  0  0  0  0
   11.4561    0.1779   -0.0000 C   0  0  0  0  0  0  0  0  0  0  0  0
    6.0364   -7.1393   -0.0000 O   0  0  0  0  0  0  0  0  0  0  0  0
    7.4002   -4.9335   -0.0000 N   0  0  0  0  0  0  0  0  0  0  0  0
    8.6573   -5.7162   -0.0000 C   0  0  0  0  0  0  0  0  0  0  0  0
    7.4358   -3.4273   -0.0000 C   0  0  0  0  0  0  0  0  0  0  0  0
  1  2  2  0  0  0  0
  2  3  1  0  0  0  0
  2  4  1  0  0  0  0
  3  5  1  0  0  0  0
  3  6  1  0  0  0  0
  4  7  1  6  0  0  0
  4  8  1  0  0  0  0
  5  9  1  0  0  0  0
  6 10  1  0  0  0  0
  7 11  1  0  0  0  0
  8 12  1  0  0  0  0
 10 13  2  0  0  0  0
 10 14  1  0  0  0  0
 11 15  2  0  0  0  0
 11 16  1  0  0  0  0
 14 17  1  0  0  0  0
 14 18  1  0  0  0  0
 15 19  1  0  0  0  0
 16 20  1  0  0  0  0
 17 21  1  0  0  0  0
 18 22  1  0  0  0  0
 19 23  2  0  0  0  0
 19 24  1  0  0  0  0
 20 25  2  0  0  0  0
 20 26  1  0  0  0  0
 24 27  2  0  0  0  0
 24 28  1  0  0  0  0
 25 29  1  0  0  0  0
 26 30  2  0  0  0  0
 27 31  1  0  0  0  0
 28 32  2  0  0  0  0
 29 33  2  0  0  0  0
 29 34  1  0  0  0  0
 31 35  2  0  0  0  0
 33 36  1  0  0  0  0
 34 37  2  0  0  0  0
 35 38  1  0  0  0  0
 37 39  1  0  0  0  0
 38 40  2  0  0  0  0
 38 41  1  0  0  0  0
 41 42  1  0  0  0  0
 41 43  1  0  0  0  0
  9 12  1  0  0  0  0
 21 22  1  0  0  0  0
 30 33  1  0  0  0  0
 32 35  1  0  0  0  0
 36 37  1  0  0  0  0
M  END
>  <MolRegNo>
583287

>  <m>
=

>  <Value>
39000

>  <Unit>
nM

>  <Type>
IC50

>  <pValue>
4.41

>  <Ligand Efficiency>
0

>  <Binding Efficiency>
0

>  <Surface Efficiency>
0

>  <Assay Index>
441072

>  <Assay Category>


>  <Assay Organism>


>  <Target ID>
17045

>  <Target Name>
Cytochrome P450 3A4

>  <Target Organism>
Homo sapiens

>  <Target Description>
Target is a single protein chain

>  <Sequence Accession>
P08684

>  <Reference>
Bioorg Med Chem Lett 19 (24), 6882-6889 (2009)

>  <Pubmed ID>
19896847

>  <DOI>
10.1016/j.bmcl.2009.10.084

$$$$
583423
Actelion Java MolfileCreator 1.0

 35 38  0  0  0  0  0  0  0  0999 V2000
    0.0000   -0.0000   -0.0000 Cl  0  0  0  0  0  0  0  0  0  0  0  0
    1.2844    0.7611   -0.0000 C   0  0  0  0  0  0  0  0  0  0  0  0
    1.2725    2.2715   -0.0000 C   0  0  0  0  0  0  0  0  0  0  0  0
    2.5688    0.0238   -0.0000 C   0  0  0  0  0  0  0  0  0  0  0  0
    2.5450    3.0445   -0.0000 C   0  0  0  0  0  0  0  0  0  0  0  0
   -0.0357    3.0326   -0.0000 C   0  0  0  0  0  0  0  0  0  0  0  0
    3.8532    0.7849   -0.0000 C   0  0  0  0  0  0  0  0  0  0  0  0
    3.8294    2.3191   -0.0000 C   0  0  0  0  0  0  0  0  0  0  0  0
   -1.3439    2.2953   -0.0000 N   0  0  0  0  0  0  0  0  0  0  0  0
    5.1495    0.0476   -0.0000 Cl  0  0  0  0  0  0  0  0  0  0  0  0
   -2.4737    3.3062   -0.0000 C   0  0  0  0  0  0  0  0  0  0  0  0
   -1.9623    0.9276   -0.0000 C   0  0  0  0  0  0  0  0  0  0  0  0
   -2.4856    4.8284   -0.0000 C   0  0  0  0  0  0  0  0  0  0  0  0
   -3.7819    2.5569   -0.0000 C   0  0  0  0  0  0  0  0  0  0  0  0
   -3.4727    1.0941   -0.0000 C   0  0  0  0  0  0  0  0  0  0  0  0
   -3.7938    5.5896   -0.0000 C   0  0  0  0  0  0  0  0  0  0  0  0
   -1.2012    5.5896   -0.0000 C   0  0  0  0  0  0  0  0  0  0  0  0
   -5.0901    3.3300   -0.0000 C   0  0  0  0  0  0  0  0  0  0  0  0
   -4.4835   -0.0119   -0.0000 C   0  0  0  0  0  0  0  0  0  0  0  0
   -5.1020    4.8522   -0.0000 C   0  0  0  0  0  0  0  0  0  0  0  0
    0.0832    4.8522   -0.0000 C   0  0  0  0  0  0  0  0  0  0  0  0
   -6.4102    5.6134   -0.0000 F   0  0  0  0  0  0  0  0  0  0  0  0
    1.3677    5.6134   -0.0000 C   0  0  0  0  0  0  0  0  0  0  0  0
    1.3558    7.1237   -0.0000 O   0  0  0  0  0  0  0  0  0  0  0  0
    2.6521    4.8760   -0.0000 N   0  0  0  0  0  0  0  0  0  0  0  0
    3.9365    5.6371   -0.0000 S   0  0  0  0  0  0  0  0  0  0  0  0
    2.8542    6.7194   -0.0000 O   0  0  0  0  0  0  0  0  0  0  0  0
    4.9830    6.7194   -0.0000 O   0  0  0  0  0  0  0  0  0  0  0  0
    5.2209    4.8998   -0.0000 C   0  0  0  0  0  0  0  0  0  0  0  0
    6.5767    5.5301   -0.0000 S   0  0  0  0  0  0  0  0  0  0  0  0
    5.3755    3.4251   -0.0000 C   0  0  0  0  0  0  0  0  0  0  0  0
    7.5756    4.4360   -0.0000 C   0  0  0  0  0  0  0  0  0  0  0  0
    6.8264    3.1278   -0.0000 C   0  0  0  0  0  0  0  0  0  0  0  0
    9.0503    4.6144   -0.0000 Cl  0  0  0  0  0  0  0  0  0  0  0  0
    7.4329    1.7720   -0.0000 Cl  0  0  0  0  0  0  0  0  0  0  0  0
  1  2  1  0  0  0  0
  2  3  2  0  0  0  0
  2  4  1  0  0  0  0
  3  5  1  0  0  0  0
  3  6  1  0  0  0  0
  4  7  2  0  0  0  0
  5  8  2  0  0  0  0
  6  9  1  0  0  0  0
  7 10  1  0  0  0  0
  9 11  1  0  0  0  0
  9 12  1  0  0  0  0
 11 13  2  0  0  0  0
 11 14  1  0  0  0  0
 12 15  2  0  0  0  0
 13 16  1  0  0  0  0
 13 17  1  0  0  0  0
 14 18  2  0  0  0  0
 15 19  1  0  0  0  0
 16 20  2  0  0  0  0
 17 21  2  0  0  0  0
 20 22  1  0  0  0  0
 21 23  1  0  0  0  0
 23 24  2  0  0  0  0
 23 25  1  0  0  0  0
 25 26  1  0  0  0  0
 26 27  2  0  0  0  0
 26 28  2  0  0  0  0
 26 29  1  0  0  0  0
 29 30  1  0  0  0  0
 29 31  2  0  0  0  0
 30 32  1  0  0  0  0
 31 33  1  0  0  0  0
 32 34  1  0  0  0  0
 33 35  1  0  0  0  0
  7  8  1  0  0  0  0
 14 15  1  0  0  0  0
 18 20  1  0  0  0  0
 32 33  2  0  0  0  0
M  END
>  <MolRegNo>
583423

>  <m>
=

>  <Value>
1500

>  <Unit>
nM

>  <Type>
IC50

>  <pValue>
5.82

>  <Ligand Efficiency>
0

>  <Binding Efficiency>
0

>  <Surface Efficiency>
0

>  <Assay Index>
442335

>  <Assay Category>


>  <Assay Organism>
Homo sapiens

>  <Target ID>
17045

>  <Target Name>
Cytochrome P450 3A4

>  <Target Organism>
Homo sapiens

>  <Target Description>
Target is a single protein chain

>  <Sequence Accession>
P08684

>  <Reference>
J Med Chem 53 (1), 18-36 (2010)

>  <Pubmed ID>
19957930

>  <DOI>
10.1021/jm9005912

$$$$
580374
Actelion Java MolfileCreator 1.0

 36 38  0  0  0  0  0  0  0  0999 V2000
    0.0000   -0.0000   -0.0000 Cl  0  0  0  0  0  0  0  0  0  0  0  0
    1.2878    0.7632   -0.0000 C   0  0  0  0  0  0  0  0  0  0  0  0
    1.2759    2.2776   -0.0000 C   0  0  0  0  0  0  0  0  0  0  0  0
    2.5876    0.0238   -0.0000 C   0  0  0  0  0  0  0  0  0  0  0  0
    2.5637    3.0407   -0.0000 C   0  0  0  0  0  0  0  0  0  0  0  0
    3.8754    0.7989   -0.0000 C   0  0  0  0  0  0  0  0  0  0  0  0
    3.8516    2.3014   -0.0000 C   0  0  0  0  0  0  0  0  0  0  0  0
    5.1394    3.0646   -0.0000 C   0  0  0  0  0  0  0  0  0  0  0  0
    5.1275    4.5790   -0.0000 C   0  0  0  0  0  0  0  0  0  0  0  0
    3.8158    5.3421   -0.0000 C   0  0  0  0  0  0  0  0  0  0  0  0
    6.4153    5.3421   -0.0000 C   0  0  0  0  0  0  0  0  0  0  0  0
    2.4922    4.6028   -0.0000 C   0  0  0  0  0  0  0  0  0  0  0  0
    3.8039    6.8685   -0.0000 C   0  0  0  0  0  0  0  0  0  0  0  0
    7.7032    4.6028   -0.0000 N   0  0  0  0  0  0  0  0  0  0  0  0
    6.4034    6.8565   -0.0000 C   0  0  0  0  0  0  0  0  0  0  0  0
    1.1805    5.3660   -0.0000 C   0  0  0  0  0  0  0  0  0  0  0  0
    2.4922    7.6316   -0.0000 C   0  0  0  0  0  0  0  0  0  0  0  0
    8.9910    5.3660   -0.0000 C   0  0  0  0  0  0  0  0  0  0  0  0
   -0.1312    4.6267   -0.0000 C   0  0  0  0  0  0  0  0  0  0  0  0
    1.1686    6.8923   -0.0000 C   0  0  0  0  0  0  0  0  0  0  0  0
    8.9791    6.8804   -0.0000 O   0  0  0  0  0  0  0  0  0  0  0  0
   10.2788    4.6267   -0.0000 C   0  0  0  0  0  0  0  0  0  0  0  0
   -1.4429    3.8874   -0.0000 N   0  0  0  0  0  0  0  0  0  0  0  0
   11.5667    5.3898   -0.0000 N   0  0  0  0  0  0  0  0  0  0  0  0
   11.0062    3.3388   -0.0000 C   0  0  0  0  0  0  0  0  0  0  0  0
    9.5157    3.3388   -0.0000 C   0  0  0  0  0  0  0  0  0  0  0  0
   12.8545    4.6505   -0.0000 C   0  0  0  0  0  0  0  0  0  0  0  0
   14.1304    5.4256   -0.0000 N   0  0  0  0  0  0  0  0  0  0  0  0
   12.8307    3.1600   -0.0000 C   0  0  0  0  0  0  0  0  0  0  0  0
   15.4183    4.6982   -0.0000 C   0  0  0  0  0  0  0  0  0  0  0  0
   14.1185    2.4207   -0.0000 C   0  0  0  0  0  0  0  0  0  0  0  0
   15.4063    3.1957   -0.0000 C   0  0  0  0  0  0  0  0  0  0  0  0
   16.6942    2.4564   -0.0000 C   0  0  0  0  0  0  0  0  0  0  0  0
   16.6822    0.9659   -0.0000 F   0  0  0  0  0  0  0  0  0  0  0  0
   17.9820    3.2196   -0.0000 F   0  0  0  0  0  0  0  0  0  0  0  0
   17.9701    1.7290   -0.0000 F   0  0  0  0  0  0  0  0  0  0  0  0
  1  2  1  0  0  0  0
  2  3  2  0  0  0  0
  2  4  1  0  0  0  0
  3  5  1  0  0  0  0
  4  6  2  0  0  0  0
  5  7  2  0  0  0  0
  7  8  1  0  0  0  0
  9  8  1  6  0  0  0
  9 10  1  0  0  0  0
  9 11  1  0  0  0  0
 10 12  2  0  0  0  0
 10 13  1  0  0  0  0
 11 14  1  1  0  0  0
 11 15  1  0  0  0  0
 12 16  1  0  0  0  0
 13 17  2  0  0  0  0
 14 18  1  0  0  0  0
 16 19  1  0  0  0  0
 16 20  2  0  0  0  0
 18 21  2  0  0  0  0
 18 22  1  0  0  0  0
 19 23  3  0  0  0  0
 22 24  1  0  0  0  0
 22 25  1  0  0  0  0
 22 26  1  0  0  0  0
 24 27  1  0  0  0  0
 27 28  2  0  0  0  0
 27 29  1  0  0  0  0
 28 30  1  0  0  0  0
 29 31  2  0  0  0  0
 30 32  2  0  0  0  0
 32 33  1  0  0  0  0
 33 34  1  0  0  0  0
 33 35  1  0  0  0  0
 33 36  1  0  0  0  0
  6  7  1  0  0  0  0
 17 20  1  0  0  0  0
 31 32  1  0  0  0  0
M  END
>  <MolRegNo>
580374

>  <m>
=

>  <Value>
2030

>  <Unit>
nM

>  <Type>
IC50

>  <pValue>
5.69

>  <Ligand Efficiency>
0

>  <Binding Efficiency>
0

>  <Surface Efficiency>
0

>  <Assay Index>
443634

>  <Assay Category>


>  <Assay Organism>


>  <Target ID>
17045

>  <Target Name>
Cytochrome P450 3A4

>  <Target Organism>
Homo sapiens

>  <Target Description>
Target is a single protein chain

>  <Sequence Accession>
P08684

>  <Reference>
Bioorg Med Chem Lett 19 (17), 5195-5199 (2009)

>  <Pubmed ID>
19632830

>  <DOI>
10.1016/j.bmcl.2009.07.046

$$$$
582183
Actelion Java MolfileCreator 1.0

 47 54  0  0  0  0  0  0  0  0999 V2000
    0.0000   -0.0000   -0.0000 O   0  0  0  0  0  0  0  0  0  0  0  0
    0.7212   -1.2958   -0.0000 C   0  0  0  0  0  0  0  0  0  0  0  0
   -0.5868   -2.0537   -0.0000 N   0  0  0  0  0  0  0  0  0  0  0  0
    2.2126   -1.3080   -0.0000 C   0  0  0  0  0  0  0  0  0  0  0  0
   -1.9193   -1.3080   -0.0000 C   0  0  0  0  0  0  0  0  0  0  0  0
   -0.5868   -3.5451   -0.0000 C   0  0  0  0  0  0  0  0  0  0  0  0
    3.4962   -1.7848   -0.0000 C   0  0  0  0  0  0  0  0  0  0  0  0
    1.0146   -2.5305   -0.0000 C   0  0  0  0  0  0  0  0  0  0  0  0
    2.2126    0.1589   -0.0000 C   0  0  0  0  0  0  0  0  0  0  0  0
   -3.2273   -2.0537   -0.0000 C   0  0  0  0  0  0  0  0  0  0  0  0
   -1.8948   -4.3030   -0.0000 C   0  0  0  0  0  0  0  0  0  0  0  0
    4.8531   -1.4547   -0.0000 C   0  0  0  0  0  0  0  0  0  0  0  0
    2.4694   -2.1271   -0.0000 C   0  0  0  0  0  0  0  0  0  0  0  0
    3.5207    0.6112   -0.0000 C   0  0  0  0  0  0  0  0  0  0  0  0
   -3.2151   -3.5451   -0.0000 C   0  0  0  0  0  0  0  0  0  0  0  0
   -4.5475   -1.3080   -0.0000 C   0  0  0  0  0  0  0  0  0  0  0  0
    6.3445   -1.3936   -0.0000 C   0  0  0  0  0  0  0  0  0  0  0  0
    3.8385   -2.6772   -0.0000 C   0  0  0  0  0  0  0  0  0  0  0  0
    4.8654    0.0489   -0.0000 C   0  0  0  0  0  0  0  0  0  0  0  0
    2.4694   -0.5623   -0.0000 C   0  0  0  0  0  0  0  0  0  0  0  0
   -4.5109   -4.3030   -0.0000 C   0  0  0  0  0  0  0  0  0  0  0  0
   -5.8556   -2.0659   -0.0000 C   0  0  0  0  0  0  0  0  0  0  0  0
    7.1147   -2.6650   -0.0000 C   0  0  0  0  0  0  0  0  0  0  0  0
    7.0291   -0.0611   -0.0000 C   0  0  0  0  0  0  0  0  0  0  0  0
   -5.8433   -3.5451   -0.0000 C   0  0  0  0  0  0  0  0  0  0  0  0
   -7.1758   -1.3203   -0.0000 O   0  0  0  0  0  0  0  0  0  0  0  0
    8.6061   -2.6038   -0.0000 C   0  0  0  0  0  0  0  0  0  0  0  0
    8.5205   -0.0000   -0.0000 C   0  0  0  0  0  0  0  0  0  0  0  0
   -7.1514   -4.3030   -0.0000 O   0  0  0  0  0  0  0  0  0  0  0  0
   -7.2003    0.1956   -0.0000 C   0  0  0  0  0  0  0  0  0  0  0  0
    9.3029   -1.2714   -0.0000 C   0  0  0  0  0  0  0  0  0  0  0  0
   -7.1514   -5.7944   -0.0000 C   0  0  0  0  0  0  0  0  0  0  0  0
   10.7943   -1.2102   -0.0000 O   0  0  0  0  0  0  0  0  0  0  0  0
   11.4911    0.1222   -0.0000 C   0  0  0  0  0  0  0  0  0  0  0  0
   12.9825    0.1834   -0.0000 C   0  0  0  0  0  0  0  0  0  0  0  0
   13.6793    1.5158   -0.0000 O   0  0  0  0  0  0  0  0  0  0  0  0
   13.7648   -1.0880   -0.0000 N   0  0  0  0  0  0  0  0  0  0  0  0
   15.2562   -1.0269   -0.0000 C   0  0  0  0  0  0  0  0  0  0  0  0
   15.9408    0.3056   -0.0000 C   0  0  0  0  0  0  0  0  0  0  0  0
   16.0264   -2.2982   -0.0000 C   0  0  0  0  0  0  0  0  0  0  0  0
   15.1462    1.5770   -0.0000 N   0  0  0  0  0  0  0  0  0  0  0  0
   17.4200    0.3667   -0.0000 C   0  0  0  0  0  0  0  0  0  0  0  0
   17.5178   -2.2371   -0.0000 C   0  0  0  0  0  0  0  0  0  0  0  0
   15.8430    2.9094   -0.0000 C   0  0  0  0  0  0  0  0  0  0  0  0
   18.1168    1.6870   -0.0000 C   0  0  0  0  0  0  0  0  0  0  0  0
   18.2146   -0.8924   -0.0000 C   0  0  0  0  0  0  0  0  0  0  0  0
   17.3222    2.9706   -0.0000 C   0  0  0  0  0  0  0  0  0  0  0  0
  1  2  2  0  0  0  0
  2  3  1  0  0  0  0
  2  4  1  0  0  0  0
  3  5  1  0  0  0  0
  3  6  1  0  0  0  0
  4  7  1  0  0  0  0
  4  8  1  0  0  0  0
  4  9  1  0  0  0  0
  5 10  1  0  0  0  0
  6 11  1  0  0  0  0
  7 12  1  0  0  0  0
  8 13  1  0  0  0  0
  9 14  1  0  0  0  0
 10 15  2  0  0  0  0
 10 16  1  0  0  0  0
 12 17  1  0  0  0  0
 12 18  1  0  0  0  0
 12 19  1  0  0  0  0
 13 20  1  0  0  0  0
 15 21  1  0  0  0  0
 16 22  2  0  0  0  0
 17 23  2  0  0  0  0
 17 24  1  0  0  0  0
 21 25  2  0  0  0  0
 22 26  1  0  0  0  0
 23 27  1  0  0  0  0
 24 28  2  0  0  0  0
 25 29  1  0  0  0  0
 26 30  1  0  0  0  0
 27 31  2  0  0  0  0
 29 32  1  0  0  0  0
 31 33  1  0  0  0  0
 33 34  1  0  0  0  0
 34 35  1  0  0  0  0
 35 36  2  0  0  0  0
 35 37  1  0  0  0  0
 37 38  1  0  0  0  0
 38 39  1  0  0  0  0
 38 40  2  0  0  0  0
 39 41  2  0  0  0  0
 39 42  1  0  0  0  0
 40 43  1  0  0  0  0
 41 44  1  0  0  0  0
 42 45  2  0  0  0  0
 42 46  1  0  0  0  0
 44 47  2  0  0  0  0
 11 15  1  0  0  0  0
 13 18  1  0  0  0  0
 14 19  1  0  0  0  0
 14 20  1  0  0  0  0
 22 25  1  0  0  0  0
 28 31  1  0  0  0  0
 43 46  2  0  0  0  0
 45 47  1  0  0  0  0
M  END
>  <MolRegNo>
582183

>  <m>
=

>  <Value>
2840

>  <Unit>
nM

>  <Type>
IC50

>  <pValue>
5.55

>  <Ligand Efficiency>
0

>  <Binding Efficiency>
0

>  <Surface Efficiency>
0

>  <Assay Index>
446237

>  <Assay Category>


>  <Assay Organism>
Homo sapiens

>  <Target ID>
17045

>  <Target Name>
Cytochrome P450 3A4

>  <Target Organism>
Homo sapiens

>  <Target Description>
Target is a single protein chain

>  <Sequence Accession>
P08684

>  <Reference>
Bioorg Med Chem Lett 19 (18), 5376-5379 (2009)

>  <Pubmed ID>
19679475

>  <DOI>
10.1016/j.bmcl.2009.07.127

$$$$
582177
Actelion Java MolfileCreator 1.0

 47 53  0  0  0  0  0  0  0  0999 V2000
    0.0000   -0.0000   -0.0000 O   0  0  0  0  0  0  0  0  0  0  0  0
    1.4820    0.0486   -0.0000 C   0  0  0  0  0  0  0  0  0  0  0  0
    2.2473   -1.2147   -0.0000 O   0  0  0  0  0  0  0  0  0  0  0  0
    2.1865    1.3726   -0.0000 C   0  0  0  0  0  0  0  0  0  0  0  0
    1.5184   -2.5145   -0.0000 C   0  0  0  0  0  0  0  0  0  0  0  0
    1.3969    2.6603   -0.0000 C   0  0  0  0  0  0  0  0  0  0  0  0
    3.6685    1.4334   -0.0000 C   0  0  0  0  0  0  0  0  0  0  0  0
   -0.1093    2.6238   -0.0000 N   0  0  0  0  0  0  0  0  0  0  0  0
    2.0772    3.9843   -0.0000 C   0  0  0  0  0  0  0  0  0  0  0  0
    4.3609    2.7574   -0.0000 C   0  0  0  0  0  0  0  0  0  0  0  0
   -0.9110    3.9114   -0.0000 C   0  0  0  0  0  0  0  0  0  0  0  0
    3.5592    4.0451   -0.0000 C   0  0  0  0  0  0  0  0  0  0  0  0
   -0.2187    5.2476   -0.0000 O   0  0  0  0  0  0  0  0  0  0  0  0
   -2.4173    3.8750   -0.0000 C   0  0  0  0  0  0  0  0  0  0  0  0
   -3.1340    2.5752   -0.0000 O   0  0  0  0  0  0  0  0  0  0  0  0
   -4.6403    2.5388   -0.0000 C   0  0  0  0  0  0  0  0  0  0  0  0
   -5.3570    1.2390   -0.0000 C   0  0  0  0  0  0  0  0  0  0  0  0
   -5.4420    3.8264   -0.0000 C   0  0  0  0  0  0  0  0  0  0  0  0
   -6.8632    1.2026   -0.0000 C   0  0  0  0  0  0  0  0  0  0  0  0
   -6.9483    3.7900   -0.0000 C   0  0  0  0  0  0  0  0  0  0  0  0
   -7.6528    2.4902   -0.0000 C   0  0  0  0  0  0  0  0  0  0  0  0
   -9.1591    2.4538   -0.0000 C   0  0  0  0  0  0  0  0  0  0  0  0
  -10.5317    2.1501   -0.0000 C   0  0  0  0  0  0  0  0  0  0  0  0
  -10.1673    1.2390   -0.0000 C   0  0  0  0  0  0  0  0  0  0  0  0
   -9.1469    3.9479   -0.0000 C   0  0  0  0  0  0  0  0  0  0  0  0
  -11.8315    2.6481   -0.0000 C   0  0  0  0  0  0  0  0  0  0  0  0
  -11.5400    1.8100   -0.0000 C   0  0  0  0  0  0  0  0  0  0  0  0
  -10.5074    4.5310   -0.0000 C   0  0  0  0  0  0  0  0  0  0  0  0
  -13.3378    2.6846   -0.0000 C   0  0  0  0  0  0  0  0  0  0  0  0
  -13.0219    1.4334   -0.0000 C   0  0  0  0  0  0  0  0  0  0  0  0
  -11.8315    4.1058   -0.0000 C   0  0  0  0  0  0  0  0  0  0  0  0
  -11.5400    3.3648   -0.0000 C   0  0  0  0  0  0  0  0  0  0  0  0
  -14.0788    3.9965   -0.0000 O   0  0  0  0  0  0  0  0  0  0  0  0
  -14.6375    1.9314   -0.0000 N   0  0  0  0  0  0  0  0  0  0  0  0
  -15.9616    2.6724   -0.0000 C   0  0  0  0  0  0  0  0  0  0  0  0
  -14.6375    0.4495   -0.0000 C   0  0  0  0  0  0  0  0  0  0  0  0
  -17.2614    1.9314   -0.0000 C   0  0  0  0  0  0  0  0  0  0  0  0
  -15.9373   -0.3037   -0.0000 C   0  0  0  0  0  0  0  0  0  0  0  0
  -17.2614    0.4495   -0.0000 C   0  0  0  0  0  0  0  0  0  0  0  0
  -18.5733    2.6724   -0.0000 C   0  0  0  0  0  0  0  0  0  0  0  0
  -18.5490   -0.3037   -0.0000 C   0  0  0  0  0  0  0  0  0  0  0  0
  -19.8730    1.9193   -0.0000 C   0  0  0  0  0  0  0  0  0  0  0  0
  -19.8730    0.4495   -0.0000 C   0  0  0  0  0  0  0  0  0  0  0  0
  -21.1849    2.6603   -0.0000 O   0  0  0  0  0  0  0  0  0  0  0  0
  -21.1728   -0.3037   -0.0000 O   0  0  0  0  0  0  0  0  0  0  0  0
  -21.2092    4.1665   -0.0000 C   0  0  0  0  0  0  0  0  0  0  0  0
  -21.1728   -1.7857   -0.0000 C   0  0  0  0  0  0  0  0  0  0  0  0
  1  2  2  0  0  0  0
  2  3  1  0  0  0  0
  2  4  1  0  0  0  0
  3  5  1  0  0  0  0
  4  6  2  0  0  0  0
  4  7  1  0  0  0  0
  6  8  1  0  0  0  0
  6  9  1  0  0  0  0
  7 10  2  0  0  0  0
  8 11  1  0  0  0  0
  9 12  2  0  0  0  0
 11 13  2  0  0  0  0
 11 14  1  0  0  0  0
 14 15  1  0  0  0  0
 15 16  1  0  0  0  0
 16 17  2  0  0  0  0
 16 18  1  0  0  0  0
 17 19  1  0  0  0  0
 18 20  2  0  0  0  0
 19 21  2  0  0  0  0
 21 22  1  0  0  0  0
 22 23  1  0  0  0  0
 22 24  1  0  0  0  0
 22 25  1  0  0  0  0
 23 26  1  0  0  0  0
 24 27  1  0  0  0  0
 25 28  1  0  0  0  0
 26 29  1  0  0  0  0
 26 30  1  0  0  0  0
 26 31  1  0  0  0  0
 27 32  1  0  0  0  0
 29 33  2  0  0  0  0
 29 34  1  0  0  0  0
 34 35  1  0  0  0  0
 34 36  1  0  0  0  0
 35 37  1  0  0  0  0
 36 38  1  0  0  0  0
 37 39  2  0  0  0  0
 37 40  1  0  0  0  0
 39 41  1  0  0  0  0
 40 42  2  0  0  0  0
 41 43  2  0  0  0  0
 42 44  1  0  0  0  0
 43 45  1  0  0  0  0
 44 46  1  0  0  0  0
 45 47  1  0  0  0  0
 10 12  1  0  0  0  0
 20 21  1  0  0  0  0
 27 30  1  0  0  0  0
 28 31  1  0  0  0  0
 28 32  1  0  0  0  0
 38 39  1  0  0  0  0
 42 43  1  0  0  0  0
M  END
>  <MolRegNo>
582177

>  <m>
=

>  <Value>
3790

>  <Unit>
nM

>  <Type>
IC50

>  <pValue>
5.42

>  <Ligand Efficiency>
0

>  <Binding Efficiency>
0

>  <Surface Efficiency>
0

>  <Assay Index>
446237

>  <Assay Category>


>  <Assay Organism>
Homo sapiens

>  <Target ID>
17045

>  <Target Name>
Cytochrome P450 3A4

>  <Target Organism>
Homo sapiens

>  <Target Description>
Target is a single protein chain

>  <Sequence Accession>
P08684

>  <Reference>
Bioorg Med Chem Lett 19 (18), 5376-5379 (2009)

>  <Pubmed ID>
19679475

>  <DOI>
10.1016/j.bmcl.2009.07.127

$$$$
582176
Actelion Java MolfileCreator 1.0

 48 54  0  0  0  0  0  0  0  0999 V2000
    0.0000   -0.0000   -0.0000 O   0  0  0  0  0  0  0  0  0  0  0  0
   -1.5085   -0.0365   -0.0000 C   0  0  0  0  0  0  0  0  0  0  0  0
   -2.3115    1.2409   -0.0000 O   0  0  0  0  0  0  0  0  0  0  0  0
   -2.2263   -1.3382   -0.0000 C   0  0  0  0  0  0  0  0  0  0  0  0
   -1.6180    2.5669   -0.0000 C   0  0  0  0  0  0  0  0  0  0  0  0
   -3.7348   -1.3747   -0.0000 C   0  0  0  0  0  0  0  0  0  0  0  0
   -1.4477   -2.6034   -0.0000 C   0  0  0  0  0  0  0  0  0  0  0  0
   -4.4405   -2.6764   -0.0000 C   0  0  0  0  0  0  0  0  0  0  0  0
   -2.1655   -3.9052   -0.0000 C   0  0  0  0  0  0  0  0  0  0  0  0
   -5.9490   -2.7129   -0.0000 N   0  0  0  0  0  0  0  0  0  0  0  0
   -3.6740   -3.9417   -0.0000 C   0  0  0  0  0  0  0  0  0  0  0  0
   -6.7519   -1.4234   -0.0000 C   0  0  0  0  0  0  0  0  0  0  0  0
   -6.0585   -0.0973   -0.0000 O   0  0  0  0  0  0  0  0  0  0  0  0
   -8.2605   -1.4599   -0.0000 C   0  0  0  0  0  0  0  0  0  0  0  0
   -8.9782   -2.7616   -0.0000 O   0  0  0  0  0  0  0  0  0  0  0  0
  -10.4868   -2.7981   -0.0000 C   0  0  0  0  0  0  0  0  0  0  0  0
  -11.2045   -4.0998   -0.0000 C   0  0  0  0  0  0  0  0  0  0  0  0
  -11.2897   -1.5085   -0.0000 C   0  0  0  0  0  0  0  0  0  0  0  0
  -12.7131   -4.1363   -0.0000 C   0  0  0  0  0  0  0  0  0  0  0  0
  -12.7982   -1.5450   -0.0000 C   0  0  0  0  0  0  0  0  0  0  0  0
  -13.5038   -2.8468   -0.0000 C   0  0  0  0  0  0  0  0  0  0  0  0
  -15.0124   -2.8833   -0.0000 C   0  0  0  0  0  0  0  0  0  0  0  0
  -16.3871   -3.1874   -0.0000 C   0  0  0  0  0  0  0  0  0  0  0  0
  -16.0221   -4.0998   -0.0000 C   0  0  0  0  0  0  0  0  0  0  0  0
  -15.0002   -1.3869   -0.0000 C   0  0  0  0  0  0  0  0  0  0  0  0
  -17.6888   -2.6886   -0.0000 C   0  0  0  0  0  0  0  0  0  0  0  0
  -17.3968   -3.5280   -0.0000 C   0  0  0  0  0  0  0  0  0  0  0  0
  -16.3628   -0.8029   -0.0000 C   0  0  0  0  0  0  0  0  0  0  0  0
  -19.1974   -2.6521   -0.0000 C   0  0  0  0  0  0  0  0  0  0  0  0
  -18.8810   -3.9052   -0.0000 C   0  0  0  0  0  0  0  0  0  0  0  0
  -17.6888   -1.2287   -0.0000 C   0  0  0  0  0  0  0  0  0  0  0  0
  -17.3968   -1.9708   -0.0000 C   0  0  0  0  0  0  0  0  0  0  0  0
  -19.9395   -1.3382   -0.0000 O   0  0  0  0  0  0  0  0  0  0  0  0
  -20.4991   -3.4064   -0.0000 N   0  0  0  0  0  0  0  0  0  0  0  0
  -20.4991   -4.8906   -0.0000 C   0  0  0  0  0  0  0  0  0  0  0  0
  -21.8251   -2.6643   -0.0000 C   0  0  0  0  0  0  0  0  0  0  0  0
  -21.8008   -5.6448   -0.0000 C   0  0  0  0  0  0  0  0  0  0  0  0
  -23.1268   -3.4064   -0.0000 C   0  0  0  0  0  0  0  0  0  0  0  0
  -23.1147   -4.9027   -0.0000 N   0  0  0  0  0  0  0  0  0  0  0  0
  -24.4164   -5.6570   -0.0000 C   0  0  0  0  0  0  0  0  0  0  0  0
  -24.4164   -7.1412   -0.0000 C   0  0  0  0  0  0  0  0  0  0  0  0
  -25.7181   -7.8833   -0.0000 C   0  0  0  0  0  0  0  0  0  0  0  0
  -23.1268   -7.8590   -0.0000 C   0  0  0  0  0  0  0  0  0  0  0  0
  -25.7181   -9.3675   -0.0000 C   0  0  0  0  0  0  0  0  0  0  0  0
  -23.1147   -9.3432   -0.0000 C   0  0  0  0  0  0  0  0  0  0  0  0
  -27.0198  -10.1218   -0.0000 O   0  0  0  0  0  0  0  0  0  0  0  0
  -24.4286  -10.0853   -0.0000 C   0  0  0  0  0  0  0  0  0  0  0  0
  -27.0198  -11.6060   -0.0000 C   0  0  0  0  0  0  0  0  0  0  0  0
  1  2  2  0  0  0  0
  2  3  1  0  0  0  0
  2  4  1  0  0  0  0
  3  5  1  0  0  0  0
  4  6  2  0  0  0  0
  4  7  1  0  0  0  0
  6  8  1  0  0  0  0
  7  9  2  0  0  0  0
  8 10  1  0  0  0  0
  8 11  2  0  0  0  0
 10 12  1  0  0  0  0
 12 13  2  0  0  0  0
 12 14  1  0  0  0  0
 14 15  1  0  0  0  0
 15 16  1  0  0  0  0
 16 17  2  0  0  0  0
 16 18  1  0  0  0  0
 17 19  1  0  0  0  0
 18 20  2  0  0  0  0
 19 21  2  0  0  0  0
 21 22  1  0  0  0  0
 22 23  1  0  0  0  0
 22 24  1  0  0  0  0
 22 25  1  0  0  0  0
 23 26  1  0  0  0  0
 24 27  1  0  0  0  0
 25 28  1  0  0  0  0
 26 29  1  0  0  0  0
 26 30  1  0  0  0  0
 26 31  1  0  0  0  0
 27 32  1  0  0  0  0
 29 33  2  0  0  0  0
 29 34  1  0  0  0  0
 34 35  1  0  0  0  0
 34 36  1  0  0  0  0
 35 37  1  0  0  0  0
 36 38  1  0  0  0  0
 37 39  1  0  0  0  0
 39 40  1  0  0  0  0
 40 41  1  0  0  0  0
 41 42  2  0  0  0  0
 41 43  1  0  0  0  0
 42 44  1  0  0  0  0
 43 45  2  0  0  0  0
 44 46  1  0  0  0  0
 44 47  2  0  0  0  0
 46 48  1  0  0  0  0
  9 11  1  0  0  0  0
 20 21  1  0  0  0  0
 27 30  1  0  0  0  0
 28 31  1  0  0  0  0
 28 32  1  0  0  0  0
 38 39  1  0  0  0  0
 45 47  1  0  0  0  0
M  END
>  <MolRegNo>
582176

>  <m>
=

>  <Value>
820

>  <Unit>
nM

>  <Type>
IC50

>  <pValue>
6.09

>  <Ligand Efficiency>
0

>  <Binding Efficiency>
0

>  <Surface Efficiency>
0

>  <Assay Index>
446237

>  <Assay Category>


>  <Assay Organism>
Homo sapiens

>  <Target ID>
17045

>  <Target Name>
Cytochrome P450 3A4

>  <Target Organism>
Homo sapiens

>  <Target Description>
Target is a single protein chain

>  <Sequence Accession>
P08684

>  <Reference>
Bioorg Med Chem Lett 19 (18), 5376-5379 (2009)

>  <Pubmed ID>
19679475

>  <DOI>
10.1016/j.bmcl.2009.07.127

$$$$
582175
Actelion Java MolfileCreator 1.0

 48 54  0  0  0  0  0  0  0  0999 V2000
    0.0000   -0.0000   -0.0000 O   0  0  0  0  0  0  0  0  0  0  0  0
   -1.5085   -0.0365   -0.0000 C   0  0  0  0  0  0  0  0  0  0  0  0
   -2.3115    1.2409   -0.0000 O   0  0  0  0  0  0  0  0  0  0  0  0
   -2.2263   -1.3382   -0.0000 C   0  0  0  0  0  0  0  0  0  0  0  0
   -1.6180    2.5669   -0.0000 C   0  0  0  0  0  0  0  0  0  0  0  0
   -3.7348   -1.3747   -0.0000 C   0  0  0  0  0  0  0  0  0  0  0  0
   -1.4477   -2.6034   -0.0000 C   0  0  0  0  0  0  0  0  0  0  0  0
   -4.4404   -2.6764   -0.0000 C   0  0  0  0  0  0  0  0  0  0  0  0
   -2.1655   -3.9052   -0.0000 C   0  0  0  0  0  0  0  0  0  0  0  0
   -5.9490   -2.7129   -0.0000 N   0  0  0  0  0  0  0  0  0  0  0  0
   -3.6740   -3.9417   -0.0000 C   0  0  0  0  0  0  0  0  0  0  0  0
   -6.7519   -1.4234   -0.0000 C   0  0  0  0  0  0  0  0  0  0  0  0
   -6.0585   -0.0973   -0.0000 O   0  0  0  0  0  0  0  0  0  0  0  0
   -8.2605   -1.4599   -0.0000 C   0  0  0  0  0  0  0  0  0  0  0  0
   -8.9782   -2.7616   -0.0000 O   0  0  0  0  0  0  0  0  0  0  0  0
  -10.4868   -2.7981   -0.0000 C   0  0  0  0  0  0  0  0  0  0  0  0
  -11.2045   -4.0998   -0.0000 C   0  0  0  0  0  0  0  0  0  0  0  0
  -11.2897   -1.5085   -0.0000 C   0  0  0  0  0  0  0  0  0  0  0  0
  -12.7131   -4.1363   -0.0000 C   0  0  0  0  0  0  0  0  0  0  0  0
  -12.7982   -1.5450   -0.0000 C   0  0  0  0  0  0  0  0  0  0  0  0
  -13.5038   -2.8468   -0.0000 C   0  0  0  0  0  0  0  0  0  0  0  0
  -15.0124   -2.8833   -0.0000 C   0  0  0  0  0  0  0  0  0  0  0  0
  -16.3871   -3.1874   -0.0000 C   0  0  0  0  0  0  0  0  0  0  0  0
  -16.0221   -4.0998   -0.0000 C   0  0  0  0  0  0  0  0  0  0  0  0
  -15.0002   -1.3869   -0.0000 C   0  0  0  0  0  0  0  0  0  0  0  0
  -17.6888   -2.6886   -0.0000 C   0  0  0  0  0  0  0  0  0  0  0  0
  -17.3968   -3.5280   -0.0000 C   0  0  0  0  0  0  0  0  0  0  0  0
  -16.3628   -0.8029   -0.0000 C   0  0  0  0  0  0  0  0  0  0  0  0
  -19.1973   -2.6521   -0.0000 C   0  0  0  0  0  0  0  0  0  0  0  0
  -18.8810   -3.9052   -0.0000 C   0  0  0  0  0  0  0  0  0  0  0  0
  -17.6888   -1.2287   -0.0000 C   0  0  0  0  0  0  0  0  0  0  0  0
  -17.3968   -1.9708   -0.0000 C   0  0  0  0  0  0  0  0  0  0  0  0
  -19.9394   -1.3382   -0.0000 O   0  0  0  0  0  0  0  0  0  0  0  0
  -20.4991   -3.4064   -0.0000 N   0  0  0  0  0  0  0  0  0  0  0  0
  -20.4991   -4.8906   -0.0000 C   0  0  0  0  0  0  0  0  0  0  0  0
  -21.8251   -2.6643   -0.0000 C   0  0  0  0  0  0  0  0  0  0  0  0
  -21.8008   -5.6448   -0.0000 C   0  0  0  0  0  0  0  0  0  0  0  0
  -23.1268   -3.4064   -0.0000 C   0  0  0  0  0  0  0  0  0  0  0  0
  -23.1147   -4.9027   -0.0000 N   0  0  0  0  0  0  0  0  0  0  0  0
  -24.4164   -5.6570   -0.0000 C   0  0  0  0  0  0  0  0  0  0  0  0
  -24.4164   -7.1412   -0.0000 C   0  0  0  0  0  0  0  0  0  0  0  0
  -25.7181   -7.8833   -0.0000 C   0  0  0  0  0  0  0  0  0  0  0  0
  -23.1268   -7.8590   -0.0000 C   0  0  0  0  0  0  0  0  0  0  0  0
  -25.7181   -9.3675   -0.0000 C   0  0  0  0  0  0  0  0  0  0  0  0
  -23.1147   -9.3432   -0.0000 C   0  0  0  0  0  0  0  0  0  0  0  0
  -24.4286  -10.0853   -0.0000 C   0  0  0  0  0  0  0  0  0  0  0  0
  -24.4164  -11.5695   -0.0000 O   0  0  0  0  0  0  0  0  0  0  0  0
  -25.7181  -12.3238   -0.0000 C   0  0  0  0  0  0  0  0  0  0  0  0
  1  2  2  0  0  0  0
  2  3  1  0  0  0  0
  2  4  1  0  0  0  0
  3  5  1  0  0  0  0
  4  6  2  0  0  0  0
  4  7  1  0  0  0  0
  6  8  1  0  0  0  0
  7  9  2  0  0  0  0
  8 10  1  0  0  0  0
  8 11  2  0  0  0  0
 10 12  1  0  0  0  0
 12 13  2  0  0  0  0
 12 14  1  0  0  0  0
 14 15  1  0  0  0  0
 15 16  1  0  0  0  0
 16 17  2  0  0  0  0
 16 18  1  0  0  0  0
 17 19  1  0  0  0  0
 18 20  2  0  0  0  0
 19 21  2  0  0  0  0
 21 22  1  0  0  0  0
 22 23  1  0  0  0  0
 22 24  1  0  0  0  0
 22 25  1  0  0  0  0
 23 26  1  0  0  0  0
 24 27  1  0  0  0  0
 25 28  1  0  0  0  0
 26 29  1  0  0  0  0
 26 30  1  0  0  0  0
 26 31  1  0  0  0  0
 27 32  1  0  0  0  0
 29 33  2  0  0  0  0
 29 34  1  0  0  0  0
 34 35  1  0  0  0  0
 34 36  1  0  0  0  0
 35 37  1  0  0  0  0
 36 38  1  0  0  0  0
 37 39  1  0  0  0  0
 39 40  1  0  0  0  0
 40 41  1  0  0  0  0
 41 42  2  0  0  0  0
 41 43  1  0  0  0  0
 42 44  1  0  0  0  0
 43 45  2  0  0  0  0
 44 46  2  0  0  0  0
 46 47  1  0  0  0  0
 47 48  1  0  0  0  0
  9 11  1  0  0  0  0
 20 21  1  0  0  0  0
 27 30  1  0  0  0  0
 28 31  1  0  0  0  0
 28 32  1  0  0  0  0
 38 39  1  0  0  0  0
 45 46  1  0  0  0  0
M  END
>  <MolRegNo>
582175

>  <m>
=

>  <Value>
890

>  <Unit>
nM

>  <Type>
IC50

>  <pValue>
6.05

>  <Ligand Efficiency>
0

>  <Binding Efficiency>
0

>  <Surface Efficiency>
0

>  <Assay Index>
446237

>  <Assay Category>


>  <Assay Organism>
Homo sapiens

>  <Target ID>
17045

>  <Target Name>
Cytochrome P450 3A4

>  <Target Organism>
Homo sapiens

>  <Target Description>
Target is a single protein chain

>  <Sequence Accession>
P08684

>  <Reference>
Bioorg Med Chem Lett 19 (18), 5376-5379 (2009)

>  <Pubmed ID>
19679475

>  <DOI>
10.1016/j.bmcl.2009.07.127

$$$$
582174
Actelion Java MolfileCreator 1.0

 50 56  0  0  0  0  0  0  0  0999 V2000
    0.0000   -0.0000   -0.0000 F   0  0  0  0  0  0  0  0  0  0  0  0
    1.4915   -0.0000   -0.0000 C   0  0  0  0  0  0  0  0  0  0  0  0
    2.9829    0.0245   -0.0000 F   0  0  0  0  0  0  0  0  0  0  0  0
    1.5037   -1.4915   -0.0000 F   0  0  0  0  0  0  0  0  0  0  0  0
    1.4548    1.5159   -0.0000 C   0  0  0  0  0  0  0  0  0  0  0  0
    0.1345    2.2617   -0.0000 C   0  0  0  0  0  0  0  0  0  0  0  0
    2.7384    2.2983   -0.0000 C   0  0  0  0  0  0  0  0  0  0  0  0
    0.1100    3.7776   -0.0000 C   0  0  0  0  0  0  0  0  0  0  0  0
    2.7018    3.8143   -0.0000 C   0  0  0  0  0  0  0  0  0  0  0  0
    1.3937    4.5478   -0.0000 C   0  0  0  0  0  0  0  0  0  0  0  0
    1.3692    6.0637   -0.0000 C   0  0  0  0  0  0  0  0  0  0  0  0
    2.6529    6.8461   -0.0000 N   0  0  0  0  0  0  0  0  0  0  0  0
    3.9487    6.1248   -0.0000 C   0  0  0  0  0  0  0  0  0  0  0  0
    2.6162    8.3620   -0.0000 C   0  0  0  0  0  0  0  0  0  0  0  0
    5.2324    6.9072   -0.0000 C   0  0  0  0  0  0  0  0  0  0  0  0
    3.8998    9.1322   -0.0000 C   0  0  0  0  0  0  0  0  0  0  0  0
    5.2079    8.4232   -0.0000 N   0  0  0  0  0  0  0  0  0  0  0  0
    6.4916    9.2056   -0.0000 C   0  0  0  0  0  0  0  0  0  0  0  0
    5.7458   10.5259   -0.0000 O   0  0  0  0  0  0  0  0  0  0  0  0
    7.9831    9.1933   -0.0000 C   0  0  0  0  0  0  0  0  0  0  0  0
    9.2667    8.7166   -0.0000 C   0  0  0  0  0  0  0  0  0  0  0  0
    6.7850    7.9708   -0.0000 C   0  0  0  0  0  0  0  0  0  0  0  0
    7.9831   10.6604   -0.0000 C   0  0  0  0  0  0  0  0  0  0  0  0
   10.6237    9.0466   -0.0000 C   0  0  0  0  0  0  0  0  0  0  0  0
    8.2398    8.3743   -0.0000 C   0  0  0  0  0  0  0  0  0  0  0  0
    9.2911   11.1127   -0.0000 C   0  0  0  0  0  0  0  0  0  0  0  0
   12.1152    9.1078   -0.0000 C   0  0  0  0  0  0  0  0  0  0  0  0
    9.6090    7.8241   -0.0000 C   0  0  0  0  0  0  0  0  0  0  0  0
   10.6359   10.5503   -0.0000 C   0  0  0  0  0  0  0  0  0  0  0  0
    8.2398    9.9391   -0.0000 C   0  0  0  0  0  0  0  0  0  0  0  0
   12.8854    7.8364   -0.0000 C   0  0  0  0  0  0  0  0  0  0  0  0
   12.7998   10.4403   -0.0000 C   0  0  0  0  0  0  0  0  0  0  0  0
   14.3768    7.8975   -0.0000 C   0  0  0  0  0  0  0  0  0  0  0  0
   14.2913   10.5014   -0.0000 C   0  0  0  0  0  0  0  0  0  0  0  0
   15.0737    9.2300   -0.0000 C   0  0  0  0  0  0  0  0  0  0  0  0
   16.5651    9.2911   -0.0000 O   0  0  0  0  0  0  0  0  0  0  0  0
   17.2620   10.6237   -0.0000 C   0  0  0  0  0  0  0  0  0  0  0  0
   18.7534   10.6848   -0.0000 C   0  0  0  0  0  0  0  0  0  0  0  0
   19.4503   12.0174   -0.0000 O   0  0  0  0  0  0  0  0  0  0  0  0
   19.5359    9.4134   -0.0000 N   0  0  0  0  0  0  0  0  0  0  0  0
   21.0273    9.4745   -0.0000 C   0  0  0  0  0  0  0  0  0  0  0  0
   21.7119   10.8071   -0.0000 C   0  0  0  0  0  0  0  0  0  0  0  0
   21.7975    8.2031   -0.0000 C   0  0  0  0  0  0  0  0  0  0  0  0
   23.2034   10.8682   -0.0000 C   0  0  0  0  0  0  0  0  0  0  0  0
   23.2890    8.2642   -0.0000 C   0  0  0  0  0  0  0  0  0  0  0  0
   23.9003   12.2007   -0.0000 C   0  0  0  0  0  0  0  0  0  0  0  0
   23.9858    9.5968   -0.0000 C   0  0  0  0  0  0  0  0  0  0  0  0
   25.3917   12.2619   -0.0000 O   0  0  0  0  0  0  0  0  0  0  0  0
   23.0934   13.4844   -0.0000 O   0  0  0  0  0  0  0  0  0  0  0  0
   23.7902   14.8169   -0.0000 C   0  0  0  0  0  0  0  0  0  0  0  0
  1  2  1  0  0  0  0
  2  3  1  0  0  0  0
  2  4  1  0  0  0  0
  2  5  1  0  0  0  0
  5  6  2  0  0  0  0
  5  7  1  0  0  0  0
  6  8  1  0  0  0  0
  7  9  2  0  0  0  0
  8 10  2  0  0  0  0
 10 11  1  0  0  0  0
 11 12  1  0  0  0  0
 12 13  1  0  0  0  0
 12 14  1  0  0  0  0
 13 15  1  0  0  0  0
 14 16  1  0  0  0  0
 15 17  1  0  0  0  0
 17 18  1  0  0  0  0
 18 19  2  0  0  0  0
 18 20  1  0  0  0  0
 20 21  1  0  0  0  0
 20 22  1  0  0  0  0
 20 23  1  0  0  0  0
 21 24  1  0  0  0  0
 22 25  1  0  0  0  0
 23 26  1  0  0  0  0
 24 27  1  0  0  0  0
 24 28  1  0  0  0  0
 24 29  1  0  0  0  0
 25 30  1  0  0  0  0
 27 31  2  0  0  0  0
 27 32  1  0  0  0  0
 31 33  1  0  0  0  0
 32 34  2  0  0  0  0
 33 35  2  0  0  0  0
 35 36  1  0  0  0  0
 36 37  1  0  0  0  0
 37 38  1  0  0  0  0
 38 39  2  0  0  0  0
 38 40  1  0  0  0  0
 40 41  1  0  0  0  0
 41 42  2  0  0  0  0
 41 43  1  0  0  0  0
 42 44  1  0  0  0  0
 43 45  2  0  0  0  0
 44 46  1  0  0  0  0
 44 47  2  0  0  0  0
 46 48  2  0  0  0  0
 46 49  1  0  0  0  0
 49 50  1  0  0  0  0
  9 10  1  0  0  0  0
 16 17  1  0  0  0  0
 25 28  1  0  0  0  0
 26 29  1  0  0  0  0
 26 30  1  0  0  0  0
 34 35  1  0  0  0  0
 45 47  1  0  0  0  0
M  END
>  <MolRegNo>
582174

>  <m>
=

>  <Value>
2030

>  <Unit>
nM

>  <Type>
IC50

>  <pValue>
5.69

>  <Ligand Efficiency>
0

>  <Binding Efficiency>
0

>  <Surface Efficiency>
0

>  <Assay Index>
446237

>  <Assay Category>


>  <Assay Organism>
Homo sapiens

>  <Target ID>
17045

>  <Target Name>
Cytochrome P450 3A4

>  <Target Organism>
Homo sapiens

>  <Target Description>
Target is a single protein chain

>  <Sequence Accession>
P08684

>  <Reference>
Bioorg Med Chem Lett 19 (18), 5376-5379 (2009)

>  <Pubmed ID>
19679475

>  <DOI>
10.1016/j.bmcl.2009.07.127

$$$$
582422
Actelion Java MolfileCreator 1.0

 26 29  0  0  0  0  0  0  0  0999 V2000
    0.0000   -0.0000   -0.0000 Cl  0  0  0  0  0  0  0  0  0  0  0  0
    1.2873    0.7628   -0.0000 C   0  0  0  0  0  0  0  0  0  0  0  0
    2.5746    0.0238   -0.0000 C   0  0  0  0  0  0  0  0  0  0  0  0
    1.2754    2.2885   -0.0000 C   0  0  0  0  0  0  0  0  0  0  0  0
    3.8500    0.7867   -0.0000 C   0  0  0  0  0  0  0  0  0  0  0  0
    2.5627    3.0514   -0.0000 C   0  0  0  0  0  0  0  0  0  0  0  0
    5.1373    0.0477   -0.0000 N   0  0  0  0  0  0  0  0  0  0  0  0
    3.8500    2.3005   -0.0000 C   0  0  0  0  0  0  0  0  0  0  0  0
    6.4246    0.8105   -0.0000 C   0  0  0  0  0  0  0  0  0  0  0  0
    7.7119    0.0715   -0.0000 N   0  0  0  0  0  0  0  0  0  0  0  0
    6.4127    2.3362   -0.0000 C   0  0  0  0  0  0  0  0  0  0  0  0
    9.0111    0.8344   -0.0000 C   0  0  0  0  0  0  0  0  0  0  0  0
    5.2803    3.3375   -0.0000 N   0  0  0  0  0  0  0  0  0  0  0  0
    7.6881    3.0991   -0.0000 C   0  0  0  0  0  0  0  0  0  0  0  0
    8.9992    2.3601   -0.0000 C   0  0  0  0  0  0  0  0  0  0  0  0
    5.8644    4.7201   -0.0000 C   0  0  0  0  0  0  0  0  0  0  0  0
    7.3543    4.5771   -0.0000 C   0  0  0  0  0  0  0  0  0  0  0  0
   10.2865    3.1229   -0.0000 C   0  0  0  0  0  0  0  0  0  0  0  0
    8.3437    5.7094   -0.0000 C   0  0  0  0  0  0  0  0  0  0  0  0
   10.2746    4.6367   -0.0000 O   0  0  0  0  0  0  0  0  0  0  0  0
   11.5738    2.3839   -0.0000 N   0  0  0  0  0  0  0  0  0  0  0  0
   11.5619    0.8940   -0.0000 C   0  0  0  0  0  0  0  0  0  0  0  0
   12.8611    3.1587   -0.0000 C   0  0  0  0  0  0  0  0  0  0  0  0
   12.8492    0.1550   -0.0000 C   0  0  0  0  0  0  0  0  0  0  0  0
   14.1604    2.4197   -0.0000 C   0  0  0  0  0  0  0  0  0  0  0  0
   14.1365    0.9178   -0.0000 O   0  0  0  0  0  0  0  0  0  0  0  0
  1  2  1  0  0  0  0
  2  3  2  0  0  0  0
  2  4  1  0  0  0  0
  3  5  1  0  0  0  0
  4  6  2  0  0  0  0
  5  7  1  0  0  0  0
  5  8  2  0  0  0  0
  7  9  1  0  0  0  0
  9 10  2  0  0  0  0
  9 11  1  0  0  0  0
 10 12  1  0  0  0  0
 11 13  1  0  0  0  0
 11 14  2  0  0  0  0
 12 15  2  0  0  0  0
 13 16  1  0  0  0  0
 14 17  1  0  0  0  0
 15 18  1  0  0  0  0
 17 19  1  0  0  0  0
 18 20  2  0  0  0  0
 18 21  1  0  0  0  0
 21 22  1  0  0  0  0
 21 23  1  0  0  0  0
 22 24  1  0  0  0  0
 23 25  1  0  0  0  0
 24 26  1  0  0  0  0
  6  8  1  0  0  0  0
 14 15  1  0  0  0  0
 16 17  2  0  0  0  0
 25 26  1  0  0  0  0
M  END
>  <MolRegNo>
582422

>  <m>
=

>  <Value>
48000

>  <Unit>
nM

>  <Type>
IC50

>  <pValue>
4.32

>  <Ligand Efficiency>
0

>  <Binding Efficiency>
0

>  <Surface Efficiency>
0

>  <Assay Index>
442616

>  <Assay Category>


>  <Assay Organism>


>  <Target ID>
17045

>  <Target Name>
Cytochrome P450 3A4

>  <Target Organism>
Homo sapiens

>  <Target Description>
Target is a single protein chain

>  <Sequence Accession>
P08684

>  <Reference>
J Med Chem 52 (19), 5785-5788 (2009)

>  <Pubmed ID>
19743867

>  <DOI>
10.1021/jm9009857

$$$$
582564
Actelion Java MolfileCreator 1.0

 26 29  0  0  0  0  0  0  0  0999 V2000
    0.0000   -0.0000   -0.0000 Cl  0  0  0  0  0  0  0  0  0  0  0  0
    1.2883    0.7634   -0.0000 C   0  0  0  0  0  0  0  0  0  0  0  0
    2.5766    0.0239   -0.0000 C   0  0  0  0  0  0  0  0  0  0  0  0
    1.2764    2.2784   -0.0000 C   0  0  0  0  0  0  0  0  0  0  0  0
    3.8769    0.7873   -0.0000 C   0  0  0  0  0  0  0  0  0  0  0  0
    2.5647    3.0418   -0.0000 C   0  0  0  0  0  0  0  0  0  0  0  0
    5.1652    0.0477   -0.0000 N   0  0  0  0  0  0  0  0  0  0  0  0
    3.8649    2.3142   -0.0000 C   0  0  0  0  0  0  0  0  0  0  0  0
    6.4535    0.8112   -0.0000 C   0  0  0  0  0  0  0  0  0  0  0  0
    7.7418    0.0716   -0.0000 N   0  0  0  0  0  0  0  0  0  0  0  0
    6.4296    2.3261   -0.0000 C   0  0  0  0  0  0  0  0  0  0  0  0
    9.0301    0.8350   -0.0000 C   0  0  0  0  0  0  0  0  0  0  0  0
    7.7060    3.0896   -0.0000 C   0  0  0  0  0  0  0  0  0  0  0  0
    5.3083    3.3281   -0.0000 C   0  0  0  0  0  0  0  0  0  0  0  0
    9.0182    2.3500   -0.0000 C   0  0  0  0  0  0  0  0  0  0  0  0
    7.3720    4.5568   -0.0000 N   0  0  0  0  0  0  0  0  0  0  0  0
    5.8928    4.7119   -0.0000 C   0  0  0  0  0  0  0  0  0  0  0  0
   10.3065    3.1253   -0.0000 C   0  0  0  0  0  0  0  0  0  0  0  0
    8.3621    5.6900   -0.0000 C   0  0  0  0  0  0  0  0  0  0  0  0
   10.2826    4.6403   -0.0000 O   0  0  0  0  0  0  0  0  0  0  0  0
   11.6067    2.3858   -0.0000 N   0  0  0  0  0  0  0  0  0  0  0  0
   11.5948    0.8827   -0.0000 C   0  0  0  0  0  0  0  0  0  0  0  0
   12.8831    3.1611   -0.0000 C   0  0  0  0  0  0  0  0  0  0  0  0
   12.8831    0.1551   -0.0000 C   0  0  0  0  0  0  0  0  0  0  0  0
   14.1833    2.4215   -0.0000 C   0  0  0  0  0  0  0  0  0  0  0  0
   14.1714    0.9185   -0.0000 O   0  0  0  0  0  0  0  0  0  0  0  0
  1  2  1  0  0  0  0
  2  3  2  0  0  0  0
  2  4  1  0  0  0  0
  3  5  1  0  0  0  0
  4  6  2  0  0  0  0
  5  7  1  0  0  0  0
  5  8  2  0  0  0  0
  7  9  1  0  0  0  0
  9 10  2  0  0  0  0
  9 11  1  0  0  0  0
 10 12  1  0  0  0  0
 11 13  2  0  0  0  0
 11 14  1  0  0  0  0
 12 15  2  0  0  0  0
 13 16  1  0  0  0  0
 14 17  2  0  0  0  0
 15 18  1  0  0  0  0
 16 19  1  0  0  0  0
 18 20  2  0  0  0  0
 18 21  1  0  0  0  0
 21 22  1  0  0  0  0
 21 23  1  0  0  0  0
 22 24  1  0  0  0  0
 23 25  1  0  0  0  0
 24 26  1  0  0  0  0
  6  8  1  0  0  0  0
 13 15  1  0  0  0  0
 16 17  1  0  0  0  0
 25 26  1  0  0  0  0
M  END
>  <MolRegNo>
582564

>  <m>
=

>  <Value>
24000

>  <Unit>
nM

>  <Type>
IC50

>  <pValue>
4.62

>  <Ligand Efficiency>
0

>  <Binding Efficiency>
0

>  <Surface Efficiency>
0

>  <Assay Index>
442616

>  <Assay Category>


>  <Assay Organism>


>  <Target ID>
17045

>  <Target Name>
Cytochrome P450 3A4

>  <Target Organism>
Homo sapiens

>  <Target Description>
Target is a single protein chain

>  <Sequence Accession>
P08684

>  <Reference>
J Med Chem 52 (19), 5785-5788 (2009)

>  <Pubmed ID>
19743867

>  <DOI>
10.1021/jm9009857

$$$$
486594
Actelion Java MolfileCreator 1.0

 29 33  0  0  0  0  0  0  0  0999 V2000
    0.0000   -0.0000   -0.0000 O   0  0  0  0  0  0  0  0  0  0  0  0
   -0.4733   -1.4200   -0.0000 C   0  0  0  0  0  0  0  0  0  0  0  0
    1.4556    0.3195   -0.0000 C   0  0  0  0  0  0  0  0  0  0  0  0
   -1.9526   -1.7159   -0.0000 C   0  0  0  0  0  0  0  0  0  0  0  0
    0.5207   -2.5206   -0.0000 C   0  0  0  0  0  0  0  0  0  0  0  0
    1.9052    1.7632   -0.0000 C   0  0  0  0  0  0  0  0  0  0  0  0
   -2.4259   -3.1359   -0.0000 C   0  0  0  0  0  0  0  0  0  0  0  0
   -2.9703   -0.5917   -0.0000 C   0  0  0  0  0  0  0  0  0  0  0  0
    0.0473   -3.9406   -0.0000 C   0  0  0  0  0  0  0  0  0  0  0  0
    1.0059    2.9939   -0.0000 N   0  0  0  0  0  0  0  0  0  0  0  0
    3.3253    2.2366   -0.0000 N   0  0  0  0  0  0  0  0  0  0  0  0
   -1.4319   -4.2365   -0.0000 N   0  0  0  0  0  0  0  0  0  0  0  0
   -3.9051   -3.4318   -0.0000 C   0  0  0  0  0  0  0  0  0  0  0  0
   -4.4495   -0.8875   -0.0000 C   0  0  0  0  0  0  0  0  0  0  0  0
    1.8816    4.2246   -0.0000 N   0  0  0  0  0  0  0  0  0  0  0  0
    4.6152    1.4911   -0.0000 N   0  0  0  0  0  0  0  0  0  0  0  0
    3.3134    3.7513   -0.0000 C   0  0  0  0  0  0  0  0  0  0  0  0
   -4.9228   -2.3076   -0.0000 C   0  0  0  0  0  0  0  0  0  0  0  0
    5.9050    2.2484   -0.0000 C   0  0  0  0  0  0  0  0  0  0  0  0
    4.6033    4.5087   -0.0000 C   0  0  0  0  0  0  0  0  0  0  0  0
   -6.4021   -2.6034   -0.0000 O   0  0  0  0  0  0  0  0  0  0  0  0
    7.1949    1.5029   -0.0000 C   0  0  0  0  0  0  0  0  0  0  0  0
    5.8932    3.7631   -0.0000 C   0  0  0  0  0  0  0  0  0  0  0  0
   -6.8754   -4.0235   -0.0000 C   0  0  0  0  0  0  0  0  0  0  0  0
    8.4848    2.2602   -0.0000 C   0  0  0  0  0  0  0  0  0  0  0  0
    7.1831    0.0118   -0.0000 C   0  0  0  0  0  0  0  0  0  0  0  0
    9.7747    1.5147   -0.0000 C   0  0  0  0  0  0  0  0  0  0  0  0
    8.4730   -0.7219   -0.0000 C   0  0  0  0  0  0  0  0  0  0  0  0
    9.7628    0.0237   -0.0000 C   0  0  0  0  0  0  0  0  0  0  0  0
  1  2  1  0  0  0  0
  1  3  1  0  0  0  0
  2  4  1  0  0  0  0
  2  5  2  0  0  0  0
  3  6  1  0  0  0  0
  4  7  1  0  0  0  0
  4  8  2  0  0  0  0
  5  9  1  0  0  0  0
  6 10  2  0  0  0  0
  6 11  1  0  0  0  0
  7 12  1  0  0  0  0
  7 13  2  0  0  0  0
  8 14  1  0  0  0  0
 10 15  1  0  0  0  0
 11 16  1  0  0  0  0
 11 17  1  0  0  0  0
 13 18  1  0  0  0  0
 16 19  2  0  0  0  0
 17 20  1  0  0  0  0
 18 21  1  0  0  0  0
 19 22  1  0  0  0  0
 19 23  1  0  0  0  0
 21 24  1  0  0  0  0
 22 25  2  0  0  0  0
 22 26  1  0  0  0  0
 25 27  1  0  0  0  0
 26 28  2  0  0  0  0
 27 29  2  0  0  0  0
  9 12  2  0  0  0  0
 14 18  2  0  0  0  0
 15 17  2  0  0  0  0
 20 23  2  0  0  0  0
 28 29  1  0  0  0  0
M  END
>  <MolRegNo>
486594

>  <m>
=

>  <Value>
32000

>  <Unit>
nM

>  <Type>
IC50

>  <pValue>
4.5

>  <Ligand Efficiency>
0

>  <Binding Efficiency>
0

>  <Surface Efficiency>
0

>  <Assay Index>
441152

>  <Assay Category>


>  <Assay Organism>
Homo sapiens

>  <Target ID>
17045

>  <Target Name>
Cytochrome P450 3A4

>  <Target Organism>
Homo sapiens

>  <Target Description>
Target is a single protein chain

>  <Sequence Accession>
P08684

>  <Reference>
Bioorg Med Chem Lett 19 (22), 6307-6312 (2009)

>  <Pubmed ID>
19819693

>  <DOI>
10.1016/j.bmcl.2009.09.096

$$$$
486733
Actelion Java MolfileCreator 1.0

 32 36  0  0  0  0  0  0  0  0999 V2000
    0.0000   -0.0000   -0.0000 F   0  0  0  0  0  0  0  0  0  0  0  0
    1.2838   -0.7370   -0.0000 C   0  0  0  0  0  0  0  0  0  0  0  0
    2.5796    0.0238   -0.0000 C   0  0  0  0  0  0  0  0  0  0  0  0
    1.2720   -2.2348   -0.0000 C   0  0  0  0  0  0  0  0  0  0  0  0
    2.5677    1.5335   -0.0000 F   0  0  0  0  0  0  0  0  0  0  0  0
    3.8634   -0.7132   -0.0000 C   0  0  0  0  0  0  0  0  0  0  0  0
   -0.0357   -2.9838   -0.0000 F   0  0  0  0  0  0  0  0  0  0  0  0
    2.5558   -2.9719   -0.0000 C   0  0  0  0  0  0  0  0  0  0  0  0
    3.8515   -2.2111   -0.0000 C   0  0  0  0  0  0  0  0  0  0  0  0
    5.1354   -2.9481   -0.0000 C   0  0  0  0  0  0  0  0  0  0  0  0
    6.4192   -2.1873   -0.0000 N   0  0  0  0  0  0  0  0  0  0  0  0
    5.1235   -4.4459   -0.0000 C   0  0  0  0  0  0  0  0  0  0  0  0
    7.7150   -2.9243   -0.0000 N   0  0  0  0  0  0  0  0  0  0  0  0
    6.4074   -5.1829   -0.0000 C   0  0  0  0  0  0  0  0  0  0  0  0
    7.7150   -4.4221   -0.0000 C   0  0  0  0  0  0  0  0  0  0  0  0
    9.1296   -2.4369   -0.0000 C   0  0  0  0  0  0  0  0  0  0  0  0
    9.1415   -4.8620   -0.0000 N   0  0  0  0  0  0  0  0  0  0  0  0
   10.0093   -3.6376   -0.0000 N   0  0  0  0  0  0  0  0  0  0  0  0
    9.8547   -1.1174   -0.0000 C   0  0  0  0  0  0  0  0  0  0  0  0
    9.0820    0.1902   -0.0000 O   0  0  0  0  0  0  0  0  0  0  0  0
    9.8072    1.5097   -0.0000 C   0  0  0  0  0  0  0  0  0  0  0  0
    9.0939    2.8411   -0.0000 C   0  0  0  0  0  0  0  0  0  0  0  0
   11.2931    1.4622   -0.0000 C   0  0  0  0  0  0  0  0  0  0  0  0
    9.8666    4.1250   -0.0000 C   0  0  0  0  0  0  0  0  0  0  0  0
    7.5961    2.9005   -0.0000 C   0  0  0  0  0  0  0  0  0  0  0  0
   12.0777    2.7460   -0.0000 C   0  0  0  0  0  0  0  0  0  0  0  0
   11.3644    4.0893   -0.0000 N   0  0  0  0  0  0  0  0  0  0  0  0
    9.1534    5.4564   -0.0000 C   0  0  0  0  0  0  0  0  0  0  0  0
    6.8710    4.2201   -0.0000 C   0  0  0  0  0  0  0  0  0  0  0  0
    7.6437    5.5158   -0.0000 C   0  0  0  0  0  0  0  0  0  0  0  0
    6.9185    6.8472   -0.0000 O   0  0  0  0  0  0  0  0  0  0  0  0
    5.4088    6.9066   -0.0000 C   0  0  0  0  0  0  0  0  0  0  0  0
  1  2  1  0  0  0  0
  2  3  2  0  0  0  0
  2  4  1  0  0  0  0
  3  5  1  0  0  0  0
  3  6  1  0  0  0  0
  4  7  1  0  0  0  0
  4  8  2  0  0  0  0
  6  9  2  0  0  0  0
  9 10  1  0  0  0  0
 10 11  2  0  0  0  0
 10 12  1  0  0  0  0
 11 13  1  0  0  0  0
 12 14  2  0  0  0  0
 13 15  1  0  0  0  0
 13 16  1  0  0  0  0
 15 17  2  0  0  0  0
 16 18  2  0  0  0  0
 16 19  1  0  0  0  0
 19 20  1  0  0  0  0
 20 21  1  0  0  0  0
 21 22  1  0  0  0  0
 21 23  2  0  0  0  0
 22 24  1  0  0  0  0
 22 25  2  0  0  0  0
 23 26  1  0  0  0  0
 24 27  1  0  0  0  0
 24 28  2  0  0  0  0
 25 29  1  0  0  0  0
 28 30  1  0  0  0  0
 30 31  1  0  0  0  0
 31 32  1  0  0  0  0
  8  9  1  0  0  0  0
 14 15  1  0  0  0  0
 17 18  1  0  0  0  0
 26 27  2  0  0  0  0
 29 30  2  0  0  0  0
M  END
>  <MolRegNo>
486733

>  <m>
=

>  <Value>
29000

>  <Unit>
nM

>  <Type>
IC50

>  <pValue>
4.54

>  <Ligand Efficiency>
0

>  <Binding Efficiency>
0

>  <Surface Efficiency>
0

>  <Assay Index>
441152

>  <Assay Category>


>  <Assay Organism>
Homo sapiens

>  <Target ID>
17045

>  <Target Name>
Cytochrome P450 3A4

>  <Target Organism>
Homo sapiens

>  <Target Description>
Target is a single protein chain

>  <Sequence Accession>
P08684

>  <Reference>
Bioorg Med Chem Lett 19 (22), 6307-6312 (2009)

>  <Pubmed ID>
19819693

>  <DOI>
10.1016/j.bmcl.2009.09.096

$$$$
582892
Actelion Java MolfileCreator 1.0

 29 33  0  0  0  0  0  0  0  0999 V2000
    0.0000   -0.0000   -0.0000 S   0  0  0  0  0  0  0  0  0  0  0  0
   -1.5260    0.1682   -0.0000 N   0  0  0  0  0  0  0  0  0  0  0  0
    0.5888    1.4058   -0.0000 C   0  0  0  0  0  0  0  0  0  0  0  0
   -1.8624    1.6702   -0.0000 C   0  0  0  0  0  0  0  0  0  0  0  0
    2.0667    1.7302   -0.0000 C   0  0  0  0  0  0  0  0  0  0  0  0
   -0.5407    2.4392   -0.0000 C   0  0  0  0  0  0  0  0  0  0  0  0
   -2.9919    2.1748   -0.0000 C   0  0  0  0  0  0  0  0  0  0  0  0
    3.0760    0.6128   -0.0000 N   0  0  0  0  0  0  0  0  0  0  0  0
    2.5233    3.1962   -0.0000 C   0  0  0  0  0  0  0  0  0  0  0  0
    4.5539    0.9372   -0.0000 N   0  0  0  0  0  0  0  0  0  0  0  0
    4.0012    3.5206   -0.0000 C   0  0  0  0  0  0  0  0  0  0  0  0
    5.0105    2.4031   -0.0000 C   0  0  0  0  0  0  0  0  0  0  0  0
    5.7795    0.0721   -0.0000 C   0  0  0  0  0  0  0  0  0  0  0  0
    6.5245    2.4151   -0.0000 N   0  0  0  0  0  0  0  0  0  0  0  0
    7.0051    0.9612   -0.0000 N   0  0  0  0  0  0  0  0  0  0  0  0
    5.7675   -1.4419   -0.0000 C   0  0  0  0  0  0  0  0  0  0  0  0
    7.0772   -2.1868   -0.0000 O   0  0  0  0  0  0  0  0  0  0  0  0
    7.0652   -3.7008   -0.0000 C   0  0  0  0  0  0  0  0  0  0  0  0
    8.3749   -4.4458   -0.0000 C   0  0  0  0  0  0  0  0  0  0  0  0
    5.7314   -4.4458   -0.0000 C   0  0  0  0  0  0  0  0  0  0  0  0
    8.3629   -5.9597   -0.0000 C   0  0  0  0  0  0  0  0  0  0  0  0
    9.6846   -3.6768   -0.0000 C   0  0  0  0  0  0  0  0  0  0  0  0
    5.7194   -5.9597   -0.0000 C   0  0  0  0  0  0  0  0  0  0  0  0
    7.0291   -6.7047   -0.0000 N   0  0  0  0  0  0  0  0  0  0  0  0
    9.6726   -6.7047   -0.0000 C   0  0  0  0  0  0  0  0  0  0  0  0
   10.9943   -4.4217   -0.0000 C   0  0  0  0  0  0  0  0  0  0  0  0
   10.9823   -5.9357   -0.0000 C   0  0  0  0  0  0  0  0  0  0  0  0
   12.2920   -6.6927   -0.0000 O   0  0  0  0  0  0  0  0  0  0  0  0
   12.2800   -7.9063   -0.0000 C   0  0  0  0  0  0  0  0  0  0  0  0
  1  2  1  0  0  0  0
  1  3  1  0  0  0  0
  2  4  2  0  0  0  0
  3  5  1  0  0  0  0
  3  6  2  0  0  0  0
  4  7  1  0  0  0  0
  5  8  2  0  0  0  0
  5  9  1  0  0  0  0
  8 10  1  0  0  0  0
  9 11  2  0  0  0  0
 10 12  1  0  0  0  0
 10 13  1  0  0  0  0
 12 14  2  0  0  0  0
 13 15  2  0  0  0  0
 13 16  1  0  0  0  0
 16 17  1  0  0  0  0
 17 18  1  0  0  0  0
 18 19  1  0  0  0  0
 18 20  2  0  0  0  0
 19 21  1  0  0  0  0
 19 22  2  0  0  0  0
 20 23  1  0  0  0  0
 21 24  1  0  0  0  0
 21 25  2  0  0  0  0
 22 26  1  0  0  0  0
 25 27  1  0  0  0  0
 27 28  1  0  0  0  0
 28 29  1  0  0  0  0
  4  6  1  0  0  0  0
 11 12  1  0  0  0  0
 14 15  1  0  0  0  0
 23 24  2  0  0  0  0
 26 27  2  0  0  0  0
M  END
>  <MolRegNo>
582892

>  <m>
=

>  <Value>
17000

>  <Unit>
nM

>  <Type>
IC50

>  <pValue>
4.77

>  <Ligand Efficiency>
0

>  <Binding Efficiency>
0

>  <Surface Efficiency>
0

>  <Assay Index>
441152

>  <Assay Category>


>  <Assay Organism>
Homo sapiens

>  <Target ID>
17045

>  <Target Name>
Cytochrome P450 3A4

>  <Target Organism>
Homo sapiens

>  <Target Description>
Target is a single protein chain

>  <Sequence Accession>
P08684

>  <Reference>
Bioorg Med Chem Lett 19 (22), 6307-6312 (2009)

>  <Pubmed ID>
19819693

>  <DOI>
10.1016/j.bmcl.2009.09.096

$$$$
582816
Actelion Java MolfileCreator 1.0

 30 34  0  0  1  0  0  0  0  0999 V2000
    0.0000   -0.0000   -0.0000 O   0  0  0  0  0  0  0  0  0  0  0  0
   -0.0120   -1.5061   -0.0000 C   0  0  0  0  0  0  0  0  0  0  0  0
   -1.3268    0.7650   -0.0000 C   0  0  0  0  0  0  0  0  0  0  0  0
    1.2909   -2.2471   -0.0000 C   0  0  0  0  0  0  0  0  0  0  0  0
   -1.3387   -2.2471   -0.0000 C   0  0  0  0  0  0  0  0  0  0  0  0
   -1.3387    2.2949   -0.0000 C   0  0  0  0  0  0  0  0  0  0  0  0
   -2.3906    0.1673   -0.0000 C   0  0  0  0  0  0  0  0  0  0  0  0
    1.2790   -3.7532   -0.0000 C   0  0  0  0  0  0  0  0  0  0  0  0
    2.5938   -1.4822   -0.0000 C   0  0  0  0  0  0  0  0  0  0  0  0
   -1.3507   -3.7532   -0.0000 C   0  0  0  0  0  0  0  0  0  0  0  0
   -0.1195    3.1795   -0.0000 N   0  0  0  0  0  0  0  0  0  0  0  0
   -2.5818    3.1795   -0.0000 N   0  0  0  0  0  0  0  0  0  0  0  0
   -0.0478   -4.4943   -0.0000 N   0  0  0  0  0  0  0  0  0  0  0  0
    2.5818   -4.4943   -0.0000 C   0  0  0  0  0  0  0  0  0  0  0  0
    3.8966   -2.2232   -0.0000 C   0  0  0  0  0  0  0  0  0  0  0  0
   -0.5976    4.6377   -0.0000 N   0  0  0  0  0  0  0  0  0  0  0  0
   -4.0759    2.8806   -0.0000 N   0  0  0  0  0  0  0  0  0  0  0  0
   -2.1276    4.6377   -0.0000 C   0  0  0  0  0  0  0  0  0  0  0  0
    3.8847   -3.7293   -0.0000 C   0  0  0  0  0  0  0  0  0  0  0  0
   -5.1039    4.0162   -0.0000 C   0  0  0  0  0  0  0  0  0  0  0  0
   -3.1556    5.7732   -0.0000 C   0  0  0  0  0  0  0  0  0  0  0  0
    5.1875   -4.4823   -0.0000 O   0  0  0  0  0  0  0  0  0  0  0  0
   -6.5980    3.7173   -0.0000 C   0  0  0  0  0  0  0  0  0  0  0  0
   -4.6497    5.4744   -0.0000 C   0  0  0  0  0  0  0  0  0  0  0  0
    5.1756   -5.6896   -0.0000 C   0  0  0  0  0  0  0  0  0  0  0  0
   -7.6259    4.8529   -0.0000 C   0  0  0  0  0  0  0  0  0  0  0  0
   -7.0761    2.2830   -0.0000 C   0  0  0  0  0  0  0  0  0  0  0  0
   -9.1200    4.5421   -0.0000 C   0  0  0  0  0  0  0  0  0  0  0  0
   -8.5702    1.9722   -0.0000 C   0  0  0  0  0  0  0  0  0  0  0  0
   -9.5981    3.1077   -0.0000 C   0  0  0  0  0  0  0  0  0  0  0  0
  1  2  1  0  0  0  0
  3  1  1  1  0  0  0
  2  4  1  0  0  0  0
  2  5  2  0  0  0  0
  3  6  1  0  0  0  0
  3  7  1  0  0  0  0
  4  8  1  0  0  0  0
  4  9  2  0  0  0  0
  5 10  1  0  0  0  0
  6 11  2  0  0  0  0
  6 12  1  0  0  0  0
  8 13  1  0  0  0  0
  8 14  2  0  0  0  0
  9 15  1  0  0  0  0
 11 16  1  0  0  0  0
 12 17  1  0  0  0  0
 12 18  1  0  0  0  0
 14 19  1  0  0  0  0
 17 20  2  0  0  0  0
 18 21  1  0  0  0  0
 19 22  1  0  0  0  0
 20 23  1  0  0  0  0
 20 24  1  0  0  0  0
 22 25  1  0  0  0  0
 23 26  2  0  0  0  0
 23 27  1  0  0  0  0
 26 28  1  0  0  0  0
 27 29  2  0  0  0  0
 28 30  2  0  0  0  0
 10 13  2  0  0  0  0
 15 19  2  0  0  0  0
 16 18  2  0  0  0  0
 21 24  2  0  0  0  0
 29 30  1  0  0  0  0
M  END
>  <MolRegNo>
582816

>  <m>
=

>  <Value>
14000

>  <Unit>
nM

>  <Type>
IC50

>  <pValue>
4.85

>  <Ligand Efficiency>
0

>  <Binding Efficiency>
0

>  <Surface Efficiency>
0

>  <Assay Index>
441152

>  <Assay Category>


>  <Assay Organism>
Homo sapiens

>  <Target ID>
17045

>  <Target Name>
Cytochrome P450 3A4

>  <Target Organism>
Homo sapiens

>  <Target Description>
Target is a single protein chain

>  <Sequence Accession>
P08684

>  <Reference>
Bioorg Med Chem Lett 19 (22), 6307-6312 (2009)

>  <Pubmed ID>
19819693

>  <DOI>
10.1016/j.bmcl.2009.09.096

$$$$
582817
Actelion Java MolfileCreator 1.0

 30 34  0  0  0  0  0  0  0  0999 V2000
    0.0000   -0.0000   -0.0000 O   0  0  0  0  0  0  0  0  0  0  0  0
    0.7220    1.3137   -0.0000 C   0  0  0  0  0  0  0  0  0  0  0  0
    0.7456   -1.2782   -0.0000 C   0  0  0  0  0  0  0  0  0  0  0  0
    0.0118    2.6393   -0.0000 C   0  0  0  0  0  0  0  0  0  0  0  0
    2.2014    1.2664   -0.0000 C   0  0  0  0  0  0  0  0  0  0  0  0
    0.0000   -2.5683   -0.0000 C   0  0  0  0  0  0  0  0  0  0  0  0
    2.2251   -1.2546   -0.0000 C   0  0  0  0  0  0  0  0  0  0  0  0
    0.7930    3.9176   -0.0000 C   0  0  0  0  0  0  0  0  0  0  0  0
   -1.4794    2.6985   -0.0000 C   0  0  0  0  0  0  0  0  0  0  0  0
    2.9826    2.5446   -0.0000 C   0  0  0  0  0  0  0  0  0  0  0  0
    0.8758   -3.7637   -0.0000 N   0  0  0  0  0  0  0  0  0  0  0  0
   -1.4321   -3.0299   -0.0000 N   0  0  0  0  0  0  0  0  0  0  0  0
    2.2843    3.8821   -0.0000 N   0  0  0  0  0  0  0  0  0  0  0  0
    0.0828    5.2432   -0.0000 C   0  0  0  0  0  0  0  0  0  0  0  0
   -2.2014    4.0123   -0.0000 C   0  0  0  0  0  0  0  0  0  0  0  0
   -0.0118   -4.9709   -0.0000 N   0  0  0  0  0  0  0  0  0  0  0  0
   -2.7458   -2.2724   -0.0000 N   0  0  0  0  0  0  0  0  0  0  0  0
   -1.4321   -4.5212   -0.0000 C   0  0  0  0  0  0  0  0  0  0  0  0
   -1.4203    5.3023   -0.0000 C   0  0  0  0  0  0  0  0  0  0  0  0
   -4.0478   -3.0062   -0.0000 C   0  0  0  0  0  0  0  0  0  0  0  0
   -2.7458   -5.2668   -0.0000 C   0  0  0  0  0  0  0  0  0  0  0  0
   -2.1422    6.6279   -0.0000 O   0  0  0  0  0  0  0  0  0  0  0  0
   -5.3497   -2.2488   -0.0000 C   0  0  0  0  0  0  0  0  0  0  0  0
   -4.0596   -4.4975   -0.0000 C   0  0  0  0  0  0  0  0  0  0  0  0
   -3.6454    6.6871   -0.0000 C   0  0  0  0  0  0  0  0  0  0  0  0
   -5.3615   -0.7338   -0.0000 C   0  0  0  0  0  0  0  0  0  0  0  0
   -6.6516   -2.9826   -0.0000 C   0  0  0  0  0  0  0  0  0  0  0  0
   -6.6634    0.0237   -0.0000 C   0  0  0  0  0  0  0  0  0  0  0  0
   -7.9535   -2.2251   -0.0000 C   0  0  0  0  0  0  0  0  0  0  0  0
   -7.9772   -0.7101   -0.0000 C   0  0  0  0  0  0  0  0  0  0  0  0
  1  2  1  0  0  0  0
  3  1  1  1  0  0  0
  2  4  1  0  0  0  0
  2  5  2  0  0  0  0
  3  6  1  0  0  0  0
  3  7  1  0  0  0  0
  4  8  1  0  0  0  0
  4  9  2  0  0  0  0
  5 10  1  0  0  0  0
  6 11  2  0  0  0  0
  6 12  1  0  0  0  0
  8 13  1  0  0  0  0
  8 14  2  0  0  0  0
  9 15  1  0  0  0  0
 11 16  1  0  0  0  0
 12 17  1  0  0  0  0
 12 18  1  0  0  0  0
 14 19  1  0  0  0  0
 17 20  2  0  0  0  0
 18 21  1  0  0  0  0
 19 22  1  0  0  0  0
 20 23  1  0  0  0  0
 20 24  1  0  0  0  0
 22 25  1  0  0  0  0
 23 26  2  0  0  0  0
 23 27  1  0  0  0  0
 26 28  1  0  0  0  0
 27 29  2  0  0  0  0
 28 30  2  0  0  0  0
 10 13  2  0  0  0  0
 15 19  2  0  0  0  0
 16 18  2  0  0  0  0
 21 24  2  0  0  0  0
 29 30  1  0  0  0  0
M  END
>  <MolRegNo>
582817

>  <m>
=

>  <Value>
18000

>  <Unit>
nM

>  <Type>
IC50

>  <pValue>
4.75

>  <Ligand Efficiency>
0

>  <Binding Efficiency>
0

>  <Surface Efficiency>
0

>  <Assay Index>
441152

>  <Assay Category>


>  <Assay Organism>
Homo sapiens

>  <Target ID>
17045

>  <Target Name>
Cytochrome P450 3A4

>  <Target Organism>
Homo sapiens

>  <Target Description>
Target is a single protein chain

>  <Sequence Accession>
P08684

>  <Reference>
Bioorg Med Chem Lett 19 (22), 6307-6312 (2009)

>  <Pubmed ID>
19819693

>  <DOI>
10.1016/j.bmcl.2009.09.096

$$$$
582855
Actelion Java MolfileCreator 1.0

 29 33  0  0  0  0  0  0  0  0999 V2000
    0.0000   -0.0000   -0.0000 S   0  0  0  0  0  0  0  0  0  0  0  0
    0.7217    1.3132   -0.0000 C   0  0  0  0  0  0  0  0  0  0  0  0
    0.7453   -1.2777   -0.0000 C   0  0  0  0  0  0  0  0  0  0  0  0
    0.0118    2.6382   -0.0000 C   0  0  0  0  0  0  0  0  0  0  0  0
    2.2005    1.2659   -0.0000 C   0  0  0  0  0  0  0  0  0  0  0  0
    0.0000   -2.5673   -0.0000 C   0  0  0  0  0  0  0  0  0  0  0  0
    0.7927    3.9160   -0.0000 C   0  0  0  0  0  0  0  0  0  0  0  0
   -1.4788    2.6974   -0.0000 C   0  0  0  0  0  0  0  0  0  0  0  0
    2.9813    2.5436   -0.0000 C   0  0  0  0  0  0  0  0  0  0  0  0
    0.8755   -3.7622   -0.0000 N   0  0  0  0  0  0  0  0  0  0  0  0
   -1.4315   -3.0287   -0.0000 N   0  0  0  0  0  0  0  0  0  0  0  0
    2.2833    3.8805   -0.0000 N   0  0  0  0  0  0  0  0  0  0  0  0
    0.0828    5.2410   -0.0000 C   0  0  0  0  0  0  0  0  0  0  0  0
   -2.2005    4.0106   -0.0000 C   0  0  0  0  0  0  0  0  0  0  0  0
   -0.0118   -4.9689   -0.0000 N   0  0  0  0  0  0  0  0  0  0  0  0
   -2.7447   -2.2715   -0.0000 N   0  0  0  0  0  0  0  0  0  0  0  0
   -1.4315   -4.5193   -0.0000 C   0  0  0  0  0  0  0  0  0  0  0  0
   -1.4197    5.3001   -0.0000 C   0  0  0  0  0  0  0  0  0  0  0  0
   -4.0461   -3.0050   -0.0000 C   0  0  0  0  0  0  0  0  0  0  0  0
   -2.7447   -5.2647   -0.0000 C   0  0  0  0  0  0  0  0  0  0  0  0
   -2.1414    6.6252   -0.0000 O   0  0  0  0  0  0  0  0  0  0  0  0
   -5.3475   -2.2478   -0.0000 C   0  0  0  0  0  0  0  0  0  0  0  0
   -4.0579   -4.4957   -0.0000 C   0  0  0  0  0  0  0  0  0  0  0  0
   -3.6439    6.6843   -0.0000 C   0  0  0  0  0  0  0  0  0  0  0  0
   -5.3593   -0.7335   -0.0000 C   0  0  0  0  0  0  0  0  0  0  0  0
   -6.6488   -2.9813   -0.0000 C   0  0  0  0  0  0  0  0  0  0  0  0
   -6.6607    0.0237   -0.0000 C   0  0  0  0  0  0  0  0  0  0  0  0
   -7.9502   -2.2242   -0.0000 C   0  0  0  0  0  0  0  0  0  0  0  0
   -7.9739   -0.7098   -0.0000 C   0  0  0  0  0  0  0  0  0  0  0  0
  1  2  1  0  0  0  0
  1  3  1  0  0  0  0
  2  4  1  0  0  0  0
  2  5  2  0  0  0  0
  3  6  1  0  0  0  0
  4  7  1  0  0  0  0
  4  8  2  0  0  0  0
  5  9  1  0  0  0  0
  6 10  2  0  0  0  0
  6 11  1  0  0  0  0
  7 12  1  0  0  0  0
  7 13  2  0  0  0  0
  8 14  1  0  0  0  0
 10 15  1  0  0  0  0
 11 16  1  0  0  0  0
 11 17  1  0  0  0  0
 13 18  1  0  0  0  0
 16 19  2  0  0  0  0
 17 20  1  0  0  0  0
 18 21  1  0  0  0  0
 19 22  1  0  0  0  0
 19 23  1  0  0  0  0
 21 24  1  0  0  0  0
 22 25  2  0  0  0  0
 22 26  1  0  0  0  0
 25 27  1  0  0  0  0
 26 28  2  0  0  0  0
 27 29  2  0  0  0  0
  9 12  2  0  0  0  0
 14 18  2  0  0  0  0
 15 17  2  0  0  0  0
 20 23  2  0  0  0  0
 28 29  1  0  0  0  0
M  END
>  <MolRegNo>
582855

>  <m>
=

>  <Value>
4500

>  <Unit>
nM

>  <Type>
IC50

>  <pValue>
5.35

>  <Ligand Efficiency>
0

>  <Binding Efficiency>
0

>  <Surface Efficiency>
0

>  <Assay Index>
441152

>  <Assay Category>


>  <Assay Organism>
Homo sapiens

>  <Target ID>
17045

>  <Target Name>
Cytochrome P450 3A4

>  <Target Organism>
Homo sapiens

>  <Target Description>
Target is a single protein chain

>  <Sequence Accession>
P08684

>  <Reference>
Bioorg Med Chem Lett 19 (22), 6307-6312 (2009)

>  <Pubmed ID>
19819693

>  <DOI>
10.1016/j.bmcl.2009.09.096

$$$$
486669
Actelion Java MolfileCreator 1.0

 31 35  0  0  0  0  0  0  0  0999 V2000
    0.0000   -0.0000   -0.0000 F   0  0  0  0  0  0  0  0  0  0  0  0
    1.2826    0.7719   -0.0000 C   0  0  0  0  0  0  0  0  0  0  0  0
    1.2707    2.2920   -0.0000 C   0  0  0  0  0  0  0  0  0  0  0  0
    2.5652    0.0356   -0.0000 C   0  0  0  0  0  0  0  0  0  0  0  0
   -0.0356    3.0521   -0.0000 F   0  0  0  0  0  0  0  0  0  0  0  0
    2.5652    3.0521   -0.0000 C   0  0  0  0  0  0  0  0  0  0  0  0
    3.8478    0.7957   -0.0000 C   0  0  0  0  0  0  0  0  0  0  0  0
    3.8478    2.3158   -0.0000 C   0  0  0  0  0  0  0  0  0  0  0  0
    5.1304    0.0594   -0.0000 C   0  0  0  0  0  0  0  0  0  0  0  0
    6.4130    0.8194   -0.0000 N   0  0  0  0  0  0  0  0  0  0  0  0
    5.1185   -1.4370   -0.0000 C   0  0  0  0  0  0  0  0  0  0  0  0
    7.7074    0.0831   -0.0000 N   0  0  0  0  0  0  0  0  0  0  0  0
    6.4011   -2.1733   -0.0000 C   0  0  0  0  0  0  0  0  0  0  0  0
    7.7074   -1.4132   -0.0000 C   0  0  0  0  0  0  0  0  0  0  0  0
    9.1206    0.5700   -0.0000 C   0  0  0  0  0  0  0  0  0  0  0  0
    9.1325   -1.8526   -0.0000 N   0  0  0  0  0  0  0  0  0  0  0  0
    9.9995   -0.6294   -0.0000 N   0  0  0  0  0  0  0  0  0  0  0  0
    9.8451    1.8883   -0.0000 C   0  0  0  0  0  0  0  0  0  0  0  0
    9.0731    3.1946   -0.0000 O   0  0  0  0  0  0  0  0  0  0  0  0
    9.7976    4.5128   -0.0000 C   0  0  0  0  0  0  0  0  0  0  0  0
    9.0850    5.8429   -0.0000 C   0  0  0  0  0  0  0  0  0  0  0  0
   11.2820    4.4653   -0.0000 C   0  0  0  0  0  0  0  0  0  0  0  0
    9.8569    7.1255   -0.0000 C   0  0  0  0  0  0  0  0  0  0  0  0
    7.5887    5.9023   -0.0000 C   0  0  0  0  0  0  0  0  0  0  0  0
   12.0658    5.7479   -0.0000 C   0  0  0  0  0  0  0  0  0  0  0  0
   11.3533    7.0899   -0.0000 N   0  0  0  0  0  0  0  0  0  0  0  0
    9.1444    8.4556   -0.0000 C   0  0  0  0  0  0  0  0  0  0  0  0
    6.8642    7.2205   -0.0000 C   0  0  0  0  0  0  0  0  0  0  0  0
    7.6362    8.5150   -0.0000 C   0  0  0  0  0  0  0  0  0  0  0  0
    6.9117    9.8451   -0.0000 O   0  0  0  0  0  0  0  0  0  0  0  0
    5.4035    9.9044   -0.0000 C   0  0  0  0  0  0  0  0  0  0  0  0
  1  2  1  0  0  0  0
  2  3  2  0  0  0  0
  2  4  1  0  0  0  0
  3  5  1  0  0  0  0
  3  6  1  0  0  0  0
  4  7  2  0  0  0  0
  6  8  2  0  0  0  0
  7  9  1  0  0  0  0
  9 10  2  0  0  0  0
  9 11  1  0  0  0  0
 10 12  1  0  0  0  0
 11 13  2  0  0  0  0
 12 14  1  0  0  0  0
 12 15  1  0  0  0  0
 14 16  2  0  0  0  0
 15 17  2  0  0  0  0
 15 18  1  0  0  0  0
 18 19  1  0  0  0  0
 19 20  1  0  0  0  0
 20 21  1  0  0  0  0
 20 22  2  0  0  0  0
 21 23  1  0  0  0  0
 21 24  2  0  0  0  0
 22 25  1  0  0  0  0
 23 26  1  0  0  0  0
 23 27  2  0  0  0  0
 24 28  1  0  0  0  0
 27 29  1  0  0  0  0
 29 30  1  0  0  0  0
 30 31  1  0  0  0  0
  7  8  1  0  0  0  0
 13 14  1  0  0  0  0
 16 17  1  0  0  0  0
 25 26  2  0  0  0  0
 28 29  2  0  0  0  0
M  END
>  <MolRegNo>
486669

>  <m>
=

>  <Value>
6400

>  <Unit>
nM

>  <Type>
IC50

>  <pValue>
5.19

>  <Ligand Efficiency>
0

>  <Binding Efficiency>
0

>  <Surface Efficiency>
0

>  <Assay Index>
441153

>  <Assay Category>


>  <Assay Organism>
Homo sapiens

>  <Target ID>
17045

>  <Target Name>
Cytochrome P450 3A4

>  <Target Organism>
Homo sapiens

>  <Target Description>
Target is a single protein chain

>  <Sequence Accession>
P08684

>  <Reference>
Bioorg Med Chem Lett 19 (22), 6307-6312 (2009)

>  <Pubmed ID>
19819693

>  <DOI>
10.1016/j.bmcl.2009.09.096

$$$$
486670
Actelion Java MolfileCreator 1.0

 31 35  0  0  0  0  0  0  0  0999 V2000
    0.0000   -0.0000   -0.0000 F   0  0  0  0  0  0  0  0  0  0  0  0
   -0.0119   -1.4856   -0.0000 C   0  0  0  0  0  0  0  0  0  0  0  0
   -1.3429   -2.2224   -0.0000 C   0  0  0  0  0  0  0  0  0  0  0  0
    1.2716   -2.2224   -0.0000 C   0  0  0  0  0  0  0  0  0  0  0  0
   -1.3429   -3.7198   -0.0000 C   0  0  0  0  0  0  0  0  0  0  0  0
    1.2598   -3.7198   -0.0000 C   0  0  0  0  0  0  0  0  0  0  0  0
   -2.6383   -4.4685   -0.0000 F   0  0  0  0  0  0  0  0  0  0  0  0
   -0.0475   -4.4567   -0.0000 C   0  0  0  0  0  0  0  0  0  0  0  0
    2.5433   -4.4567   -0.0000 C   0  0  0  0  0  0  0  0  0  0  0  0
    3.8268   -3.6961   -0.0000 N   0  0  0  0  0  0  0  0  0  0  0  0
    2.5314   -5.9541   -0.0000 C   0  0  0  0  0  0  0  0  0  0  0  0
    5.1222   -4.4329   -0.0000 N   0  0  0  0  0  0  0  0  0  0  0  0
    3.8149   -6.6909   -0.0000 C   0  0  0  0  0  0  0  0  0  0  0  0
    5.1222   -5.9303   -0.0000 C   0  0  0  0  0  0  0  0  0  0  0  0
    6.5364   -3.9456   -0.0000 C   0  0  0  0  0  0  0  0  0  0  0  0
    6.5483   -6.3701   -0.0000 N   0  0  0  0  0  0  0  0  0  0  0  0
    7.4159   -5.1460   -0.0000 N   0  0  0  0  0  0  0  0  0  0  0  0
    7.2614   -2.6265   -0.0000 C   0  0  0  0  0  0  0  0  0  0  0  0
    6.4889   -1.3192   -0.0000 O   0  0  0  0  0  0  0  0  0  0  0  0
    7.2139   -0.0000   -0.0000 C   0  0  0  0  0  0  0  0  0  0  0  0
    6.5008    1.3311   -0.0000 C   0  0  0  0  0  0  0  0  0  0  0  0
    8.6994   -0.0475   -0.0000 C   0  0  0  0  0  0  0  0  0  0  0  0
    7.2733    2.6146   -0.0000 C   0  0  0  0  0  0  0  0  0  0  0  0
    5.0033    1.3905   -0.0000 C   0  0  0  0  0  0  0  0  0  0  0  0
    9.4838    1.2360   -0.0000 C   0  0  0  0  0  0  0  0  0  0  0  0
    8.7707    2.5789   -0.0000 N   0  0  0  0  0  0  0  0  0  0  0  0
    6.5602    3.9456   -0.0000 C   0  0  0  0  0  0  0  0  0  0  0  0
    4.2784    2.7097   -0.0000 C   0  0  0  0  0  0  0  0  0  0  0  0
    5.0509    4.0051   -0.0000 C   0  0  0  0  0  0  0  0  0  0  0  0
    4.3259    5.3361   -0.0000 O   0  0  0  0  0  0  0  0  0  0  0  0
    2.8166    5.3955   -0.0000 C   0  0  0  0  0  0  0  0  0  0  0  0
  1  2  1  0  0  0  0
  2  3  2  0  0  0  0
  2  4  1  0  0  0  0
  3  5  1  0  0  0  0
  4  6  2  0  0  0  0
  5  7  1  0  0  0  0
  5  8  2  0  0  0  0
  6  9  1  0  0  0  0
  9 10  2  0  0  0  0
  9 11  1  0  0  0  0
 10 12  1  0  0  0  0
 11 13  2  0  0  0  0
 12 14  1  0  0  0  0
 12 15  1  0  0  0  0
 14 16  2  0  0  0  0
 15 17  2  0  0  0  0
 15 18  1  0  0  0  0
 18 19  1  0  0  0  0
 19 20  1  0  0  0  0
 20 21  1  0  0  0  0
 20 22  2  0  0  0  0
 21 23  1  0  0  0  0
 21 24  2  0  0  0  0
 22 25  1  0  0  0  0
 23 26  1  0  0  0  0
 23 27  2  0  0  0  0
 24 28  1  0  0  0  0
 27 29  1  0  0  0  0
 29 30  1  0  0  0  0
 30 31  1  0  0  0  0
  6  8  1  0  0  0  0
 13 14  1  0  0  0  0
 16 17  1  0  0  0  0
 25 26  2  0  0  0  0
 28 29  2  0  0  0  0
M  END
>  <MolRegNo>
486670

>  <m>
=

>  <Value>
8300

>  <Unit>
nM

>  <Type>
IC50

>  <pValue>
5.08

>  <Ligand Efficiency>
0

>  <Binding Efficiency>
0

>  <Surface Efficiency>
0

>  <Assay Index>
441153

>  <Assay Category>


>  <Assay Organism>
Homo sapiens

>  <Target ID>
17045

>  <Target Name>
Cytochrome P450 3A4

>  <Target Organism>
Homo sapiens

>  <Target Description>
Target is a single protein chain

>  <Sequence Accession>
P08684

>  <Reference>
Bioorg Med Chem Lett 19 (22), 6307-6312 (2009)

>  <Pubmed ID>
19819693

>  <DOI>
10.1016/j.bmcl.2009.09.096

$$$$
582828
Actelion Java MolfileCreator 1.0

 29 33  0  0  0  0  0  0  0  0999 V2000
    0.0000   -0.0000   -0.0000 O   0  0  0  0  0  0  0  0  0  0  0  0
    0.7015   -1.3079   -0.0000 C   0  0  0  0  0  0  0  0  0  0  0  0
   -1.5101    0.0595   -0.0000 C   0  0  0  0  0  0  0  0  0  0  0  0
    2.1878   -1.3436   -0.0000 C   0  0  0  0  0  0  0  0  0  0  0  0
   -0.0951   -2.5802   -0.0000 C   0  0  0  0  0  0  0  0  0  0  0  0
    2.8774   -2.6515   -0.0000 C   0  0  0  0  0  0  0  0  0  0  0  0
    0.6064   -3.8762   -0.0000 C   0  0  0  0  0  0  0  0  0  0  0  0
    4.3756   -2.6872   -0.0000 N   0  0  0  0  0  0  0  0  0  0  0  0
    2.0808   -3.9119   -0.0000 C   0  0  0  0  0  0  0  0  0  0  0  0
    5.0652   -4.0070   -0.0000 C   0  0  0  0  0  0  0  0  0  0  0  0
    2.7704   -5.2198   -0.0000 C   0  0  0  0  0  0  0  0  0  0  0  0
    4.2567   -5.2674   -0.0000 C   0  0  0  0  0  0  0  0  0  0  0  0
    2.0213   -6.5158   -0.0000 N   0  0  0  0  0  0  0  0  0  0  0  0
    2.7704   -7.8000   -0.0000 C   0  0  0  0  0  0  0  0  0  0  0  0
    2.0213   -9.0960   -0.0000 C   0  0  0  0  0  0  0  0  0  0  0  0
    2.9012  -10.2969   -0.0000 N   0  0  0  0  0  0  0  0  0  0  0  0
    0.5826   -9.5597   -0.0000 N   0  0  0  0  0  0  0  0  0  0  0  0
    2.0094  -11.5097   -0.0000 N   0  0  0  0  0  0  0  0  0  0  0  0
   -0.7372   -8.7987   -0.0000 N   0  0  0  0  0  0  0  0  0  0  0  0
    0.5826  -11.0579   -0.0000 C   0  0  0  0  0  0  0  0  0  0  0  0
   -2.0451   -9.5359   -0.0000 C   0  0  0  0  0  0  0  0  0  0  0  0
   -0.7372  -11.8070   -0.0000 C   0  0  0  0  0  0  0  0  0  0  0  0
   -3.3530   -8.7750   -0.0000 C   0  0  0  0  0  0  0  0  0  0  0  0
   -2.0570  -11.0341   -0.0000 C   0  0  0  0  0  0  0  0  0  0  0  0
   -3.3649   -7.2530   -0.0000 C   0  0  0  0  0  0  0  0  0  0  0  0
   -4.6610   -9.5121   -0.0000 C   0  0  0  0  0  0  0  0  0  0  0  0
   -4.6728   -6.4920   -0.0000 C   0  0  0  0  0  0  0  0  0  0  0  0
   -5.9689   -8.7512   -0.0000 C   0  0  0  0  0  0  0  0  0  0  0  0
   -5.9927   -7.2292   -0.0000 C   0  0  0  0  0  0  0  0  0  0  0  0
  1  2  1  0  0  0  0
  1  3  1  0  0  0  0
  2  4  2  0  0  0  0
  2  5  1  0  0  0  0
  4  6  1  0  0  0  0
  5  7  2  0  0  0  0
  6  8  2  0  0  0  0
  6  9  1  0  0  0  0
  8 10  1  0  0  0  0
  9 11  2  0  0  0  0
 10 12  2  0  0  0  0
 11 13  1  0  0  0  0
 13 14  1  0  0  0  0
 14 15  1  0  0  0  0
 15 16  2  0  0  0  0
 15 17  1  0  0  0  0
 16 18  1  0  0  0  0
 17 19  1  0  0  0  0
 17 20  1  0  0  0  0
 19 21  2  0  0  0  0
 20 22  1  0  0  0  0
 21 23  1  0  0  0  0
 21 24  1  0  0  0  0
 23 25  2  0  0  0  0
 23 26  1  0  0  0  0
 25 27  1  0  0  0  0
 26 28  2  0  0  0  0
 27 29  2  0  0  0  0
  7  9  1  0  0  0  0
 11 12  1  0  0  0  0
 18 20  2  0  0  0  0
 22 24  2  0  0  0  0
 28 29  1  0  0  0  0
M  END
>  <MolRegNo>
582828

>  <m>
=

>  <Value>
50000

>  <Unit>
nM

>  <Type>
IC50

>  <pValue>
4.3

>  <Ligand Efficiency>
0

>  <Binding Efficiency>
0

>  <Surface Efficiency>
0

>  <Assay Index>
441153

>  <Assay Category>


>  <Assay Organism>
Homo sapiens

>  <Target ID>
17045

>  <Target Name>
Cytochrome P450 3A4

>  <Target Organism>
Homo sapiens

>  <Target Description>
Target is a single protein chain

>  <Sequence Accession>
P08684

>  <Reference>
Bioorg Med Chem Lett 19 (22), 6307-6312 (2009)

>  <Pubmed ID>
19819693

>  <DOI>
10.1016/j.bmcl.2009.09.096

$$$$
582854
Actelion Java MolfileCreator 1.0

 29 33  0  0  0  0  0  0  0  0999 V2000
    0.0000   -0.0000   -0.0000 O   0  0  0  0  0  0  0  0  0  0  0  0
   -1.3021    0.7625   -0.0000 C   0  0  0  0  0  0  0  0  0  0  0  0
    1.2787    0.7625   -0.0000 C   0  0  0  0  0  0  0  0  0  0  0  0
   -1.3139    2.2641   -0.0000 C   0  0  0  0  0  0  0  0  0  0  0  0
   -2.6042    0.0235   -0.0000 C   0  0  0  0  0  0  0  0  0  0  0  0
   -2.6160    3.0266   -0.0000 N   0  0  0  0  0  0  0  0  0  0  0  0
   -3.9064    0.7860   -0.0000 C   0  0  0  0  0  0  0  0  0  0  0  0
   -3.9181    2.2875   -0.0000 C   0  0  0  0  0  0  0  0  0  0  0  0
   -5.2085    0.0469   -0.0000 N   0  0  0  0  0  0  0  0  0  0  0  0
   -5.2202    3.0500   -0.0000 C   0  0  0  0  0  0  0  0  0  0  0  0
   -6.5106    0.8094   -0.0000 C   0  0  0  0  0  0  0  0  0  0  0  0
   -5.2320    4.5516   -0.0000 N   0  0  0  0  0  0  0  0  0  0  0  0
   -6.5224    2.3110   -0.0000 C   0  0  0  0  0  0  0  0  0  0  0  0
   -6.5341    5.3023   -0.0000 C   0  0  0  0  0  0  0  0  0  0  0  0
   -6.5458    6.8039   -0.0000 C   0  0  0  0  0  0  0  0  0  0  0  0
   -5.3493    7.6954   -0.0000 N   0  0  0  0  0  0  0  0  0  0  0  0
   -7.7658    7.6954   -0.0000 N   0  0  0  0  0  0  0  0  0  0  0  0
   -5.8185    9.1266   -0.0000 N   0  0  0  0  0  0  0  0  0  0  0  0
   -9.2322    7.4022   -0.0000 N   0  0  0  0  0  0  0  0  0  0  0  0
   -7.3200    9.1266   -0.0000 C   0  0  0  0  0  0  0  0  0  0  0  0
  -10.2410    8.5166   -0.0000 C   0  0  0  0  0  0  0  0  0  0  0  0
   -8.3289   10.2410   -0.0000 C   0  0  0  0  0  0  0  0  0  0  0  0
  -11.7074    8.2233   -0.0000 C   0  0  0  0  0  0  0  0  0  0  0  0
   -9.7953    9.9478   -0.0000 C   0  0  0  0  0  0  0  0  0  0  0  0
  -12.1766    6.8156   -0.0000 C   0  0  0  0  0  0  0  0  0  0  0  0
  -12.7162    9.3378   -0.0000 C   0  0  0  0  0  0  0  0  0  0  0  0
  -13.6430    6.5224   -0.0000 C   0  0  0  0  0  0  0  0  0  0  0  0
  -14.1826    9.0445   -0.0000 C   0  0  0  0  0  0  0  0  0  0  0  0
  -14.6518    7.6368   -0.0000 C   0  0  0  0  0  0  0  0  0  0  0  0
  1  2  1  0  0  0  0
  1  3  1  0  0  0  0
  2  4  1  0  0  0  0
  2  5  2  0  0  0  0
  4  6  2  0  0  0  0
  5  7  1  0  0  0  0
  6  8  1  0  0  0  0
  7  9  2  0  0  0  0
  8 10  2  0  0  0  0
  9 11  1  0  0  0  0
 10 12  1  0  0  0  0
 10 13  1  0  0  0  0
 12 14  1  0  0  0  0
 14 15  1  0  0  0  0
 15 16  2  0  0  0  0
 15 17  1  0  0  0  0
 16 18  1  0  0  0  0
 17 19  1  0  0  0  0
 17 20  1  0  0  0  0
 19 21  2  0  0  0  0
 20 22  1  0  0  0  0
 21 23  1  0  0  0  0
 21 24  1  0  0  0  0
 23 25  2  0  0  0  0
 23 26  1  0  0  0  0
 25 27  1  0  0  0  0
 26 28  2  0  0  0  0
 27 29  2  0  0  0  0
  7  8  1  0  0  0  0
 11 13  2  0  0  0  0
 18 20  2  0  0  0  0
 22 24  2  0  0  0  0
 28 29  1  0  0  0  0
M  END
>  <MolRegNo>
582854

>  <m>
=

>  <Value>
41000

>  <Unit>
nM

>  <Type>
IC50

>  <pValue>
4.39

>  <Ligand Efficiency>
0

>  <Binding Efficiency>
0

>  <Surface Efficiency>
0

>  <Assay Index>
441153

>  <Assay Category>


>  <Assay Organism>
Homo sapiens

>  <Target ID>
17045

>  <Target Name>
Cytochrome P450 3A4

>  <Target Organism>
Homo sapiens

>  <Target Description>
Target is a single protein chain

>  <Sequence Accession>
P08684

>  <Reference>
Bioorg Med Chem Lett 19 (22), 6307-6312 (2009)

>  <Pubmed ID>
19819693

>  <DOI>
10.1016/j.bmcl.2009.09.096

$$$$
582860
Actelion Java MolfileCreator 1.0

 31 35  0  0  0  0  0  0  0  0999 V2000
    0.0000   -0.0000   -0.0000 F   0  0  0  0  0  0  0  0  0  0  0  0
    1.2823    0.7718   -0.0000 C   0  0  0  0  0  0  0  0  0  0  0  0
    1.2705    2.2916   -0.0000 C   0  0  0  0  0  0  0  0  0  0  0  0
    2.5647    0.0356   -0.0000 C   0  0  0  0  0  0  0  0  0  0  0  0
   -0.0475    3.0515   -0.0000 F   0  0  0  0  0  0  0  0  0  0  0  0
    2.5647    3.0515   -0.0000 C   0  0  0  0  0  0  0  0  0  0  0  0
    3.8470    0.7955   -0.0000 C   0  0  0  0  0  0  0  0  0  0  0  0
    3.8470    2.3153   -0.0000 C   0  0  0  0  0  0  0  0  0  0  0  0
    5.1294    0.0594   -0.0000 C   0  0  0  0  0  0  0  0  0  0  0  0
    6.4117    0.8193   -0.0000 N   0  0  0  0  0  0  0  0  0  0  0  0
    5.1175   -1.4367   -0.0000 C   0  0  0  0  0  0  0  0  0  0  0  0
    7.7059    0.0831   -0.0000 N   0  0  0  0  0  0  0  0  0  0  0  0
    6.3998   -2.1729   -0.0000 C   0  0  0  0  0  0  0  0  0  0  0  0
    7.7059   -1.4129   -0.0000 C   0  0  0  0  0  0  0  0  0  0  0  0
    9.1189    0.5699   -0.0000 C   0  0  0  0  0  0  0  0  0  0  0  0
    9.1307   -1.8523   -0.0000 N   0  0  0  0  0  0  0  0  0  0  0  0
    9.9975   -0.6293   -0.0000 N   0  0  0  0  0  0  0  0  0  0  0  0
    9.8431    1.8879   -0.0000 C   0  0  0  0  0  0  0  0  0  0  0  0
    9.0714    3.1940   -0.0000 N   0  0  0  0  0  0  0  0  0  0  0  0
    9.7956    4.5119   -0.0000 C   0  0  0  0  0  0  0  0  0  0  0  0
    9.0832    5.8418   -0.0000 C   0  0  0  0  0  0  0  0  0  0  0  0
   11.2798    4.4644   -0.0000 C   0  0  0  0  0  0  0  0  0  0  0  0
    7.5872    5.9011   -0.0000 N   0  0  0  0  0  0  0  0  0  0  0  0
    9.8550    7.1241   -0.0000 C   0  0  0  0  0  0  0  0  0  0  0  0
   12.0635    5.7468   -0.0000 C   0  0  0  0  0  0  0  0  0  0  0  0
    6.8629    7.2191   -0.0000 C   0  0  0  0  0  0  0  0  0  0  0  0
   11.3511    7.0885   -0.0000 N   0  0  0  0  0  0  0  0  0  0  0  0
    9.1426    8.4539   -0.0000 C   0  0  0  0  0  0  0  0  0  0  0  0
    7.6347    8.5133   -0.0000 C   0  0  0  0  0  0  0  0  0  0  0  0
    6.9104    9.8431   -0.0000 O   0  0  0  0  0  0  0  0  0  0  0  0
    5.4024    9.9025   -0.0000 C   0  0  0  0  0  0  0  0  0  0  0  0
  1  2  1  0  0  0  0
  2  3  2  0  0  0  0
  2  4  1  0  0  0  0
  3  5  1  0  0  0  0
  3  6  1  0  0  0  0
  4  7  2  0  0  0  0
  6  8  2  0  0  0  0
  7  9  1  0  0  0  0
  9 10  2  0  0  0  0
  9 11  1  0  0  0  0
 10 12  1  0  0  0  0
 11 13  2  0  0  0  0
 12 14  1  0  0  0  0
 12 15  1  0  0  0  0
 14 16  2  0  0  0  0
 15 17  2  0  0  0  0
 15 18  1  0  0  0  0
 18 19  1  0  0  0  0
 19 20  1  0  0  0  0
 20 21  1  0  0  0  0
 20 22  2  0  0  0  0
 21 23  2  0  0  0  0
 21 24  1  0  0  0  0
 22 25  1  0  0  0  0
 23 26  1  0  0  0  0
 24 27  1  0  0  0  0
 24 28  2  0  0  0  0
 26 29  2  0  0  0  0
 29 30  1  0  0  0  0
 30 31  1  0  0  0  0
  7  8  1  0  0  0  0
 13 14  1  0  0  0  0
 16 17  1  0  0  0  0
 25 27  2  0  0  0  0
 28 29  1  0  0  0  0
M  END
>  <MolRegNo>
582860

>  <m>
=

>  <Value>
9100

>  <Unit>
nM

>  <Type>
IC50

>  <pValue>
5.04

>  <Ligand Efficiency>
0

>  <Binding Efficiency>
0

>  <Surface Efficiency>
0

>  <Assay Index>
441153

>  <Assay Category>


>  <Assay Organism>
Homo sapiens

>  <Target ID>
17045

>  <Target Name>
Cytochrome P450 3A4

>  <Target Organism>
Homo sapiens

>  <Target Description>
Target is a single protein chain

>  <Sequence Accession>
P08684

>  <Reference>
Bioorg Med Chem Lett 19 (22), 6307-6312 (2009)

>  <Pubmed ID>
19819693

>  <DOI>
10.1016/j.bmcl.2009.09.096

$$$$
582878
Actelion Java MolfileCreator 1.0

 32 36  0  0  0  0  0  0  0  0999 V2000
    0.0000   -0.0000   -0.0000 F   0  0  0  0  0  0  0  0  0  0  0  0
    1.1913    0.2674   -0.0000 C   0  0  0  0  0  0  0  0  0  0  0  0
    1.6533    1.7505   -0.0000 C   0  0  0  0  0  0  0  0  0  0  0  0
    2.2125   -0.8631   -0.0000 C   0  0  0  0  0  0  0  0  0  0  0  0
    0.8145    2.6744   -0.0000 F   0  0  0  0  0  0  0  0  0  0  0  0
    3.1485    2.0909   -0.0000 C   0  0  0  0  0  0  0  0  0  0  0  0
    1.8235   -2.0301   -0.0000 F   0  0  0  0  0  0  0  0  0  0  0  0
    3.7077   -0.5227   -0.0000 C   0  0  0  0  0  0  0  0  0  0  0  0
    4.1697    0.9604   -0.0000 C   0  0  0  0  0  0  0  0  0  0  0  0
    5.6649    1.2886   -0.0000 C   0  0  0  0  0  0  0  0  0  0  0  0
    6.6861    0.1580   -0.0000 N   0  0  0  0  0  0  0  0  0  0  0  0
    6.1269    2.7717   -0.0000 C   0  0  0  0  0  0  0  0  0  0  0  0
    8.1813    0.4863   -0.0000 N   0  0  0  0  0  0  0  0  0  0  0  0
    7.6221    3.0999   -0.0000 C   0  0  0  0  0  0  0  0  0  0  0  0
    8.6433    1.9693   -0.0000 C   0  0  0  0  0  0  0  0  0  0  0  0
    9.4213   -0.3890   -0.0000 C   0  0  0  0  0  0  0  0  0  0  0  0
   10.1750    1.9815   -0.0000 N   0  0  0  0  0  0  0  0  0  0  0  0
   10.6612    0.5106   -0.0000 N   0  0  0  0  0  0  0  0  0  0  0  0
    9.4091   -1.9207   -0.0000 C   0  0  0  0  0  0  0  0  0  0  0  0
   10.7342   -2.6744   -0.0000 N   0  0  0  0  0  0  0  0  0  0  0  0
   10.7220   -4.2061   -0.0000 C   0  0  0  0  0  0  0  0  0  0  0  0
   12.0471   -4.9598   -0.0000 C   0  0  0  0  0  0  0  0  0  0  0  0
    9.3726   -4.9598   -0.0000 C   0  0  0  0  0  0  0  0  0  0  0  0
   13.3721   -4.1818   -0.0000 N   0  0  0  0  0  0  0  0  0  0  0  0
   12.0349   -6.4916   -0.0000 C   0  0  0  0  0  0  0  0  0  0  0  0
    9.3605   -6.4916   -0.0000 C   0  0  0  0  0  0  0  0  0  0  0  0
   14.6972   -4.9355   -0.0000 C   0  0  0  0  0  0  0  0  0  0  0  0
   10.6855   -7.2453   -0.0000 N   0  0  0  0  0  0  0  0  0  0  0  0
   13.3600   -7.2453   -0.0000 C   0  0  0  0  0  0  0  0  0  0  0  0
   14.6850   -6.4672   -0.0000 C   0  0  0  0  0  0  0  0  0  0  0  0
   16.0101   -7.2331   -0.0000 O   0  0  0  0  0  0  0  0  0  0  0  0
   15.9979   -8.4609   -0.0000 C   0  0  0  0  0  0  0  0  0  0  0  0
  1  2  1  0  0  0  0
  2  3  2  0  0  0  0
  2  4  1  0  0  0  0
  3  5  1  0  0  0  0
  3  6  1  0  0  0  0
  4  7  1  0  0  0  0
  4  8  2  0  0  0  0
  6  9  2  0  0  0  0
  9 10  1  0  0  0  0
 10 11  2  0  0  0  0
 10 12  1  0  0  0  0
 11 13  1  0  0  0  0
 12 14  2  0  0  0  0
 13 15  1  0  0  0  0
 13 16  1  0  0  0  0
 15 17  2  0  0  0  0
 16 18  2  0  0  0  0
 16 19  1  0  0  0  0
 19 20  1  0  0  0  0
 20 21  1  0  0  0  0
 21 22  1  0  0  0  0
 21 23  2  0  0  0  0
 22 24  2  0  0  0  0
 22 25  1  0  0  0  0
 23 26  1  0  0  0  0
 24 27  1  0  0  0  0
 25 28  1  0  0  0  0
 25 29  2  0  0  0  0
 27 30  2  0  0  0  0
 30 31  1  0  0  0  0
 31 32  1  0  0  0  0
  8  9  1  0  0  0  0
 14 15  1  0  0  0  0
 17 18  1  0  0  0  0
 26 28  2  0  0  0  0
 29 30  1  0  0  0  0
M  END
>  <MolRegNo>
582878

>  <m>
=

>  <Value>
16000

>  <Unit>
nM

>  <Type>
IC50

>  <pValue>
4.8

>  <Ligand Efficiency>
0

>  <Binding Efficiency>
0

>  <Surface Efficiency>
0

>  <Assay Index>
441153

>  <Assay Category>


>  <Assay Organism>
Homo sapiens

>  <Target ID>
17045

>  <Target Name>
Cytochrome P450 3A4

>  <Target Organism>
Homo sapiens

>  <Target Description>
Target is a single protein chain

>  <Sequence Accession>
P08684

>  <Reference>
Bioorg Med Chem Lett 19 (22), 6307-6312 (2009)

>  <Pubmed ID>
19819693

>  <DOI>
10.1016/j.bmcl.2009.09.096

$$$$
582866
Actelion Java MolfileCreator 1.0

 31 35  0  0  0  0  0  0  0  0999 V2000
    0.0000   -0.0000   -0.0000 F   0  0  0  0  0  0  0  0  0  0  0  0
   -0.0119   -1.4856   -0.0000 C   0  0  0  0  0  0  0  0  0  0  0  0
   -1.3311   -2.2224   -0.0000 C   0  0  0  0  0  0  0  0  0  0  0  0
    1.2716   -2.2224   -0.0000 C   0  0  0  0  0  0  0  0  0  0  0  0
   -1.3429   -3.7198   -0.0000 C   0  0  0  0  0  0  0  0  0  0  0  0
    1.2597   -3.7198   -0.0000 C   0  0  0  0  0  0  0  0  0  0  0  0
   -2.6502   -4.4685   -0.0000 F   0  0  0  0  0  0  0  0  0  0  0  0
   -0.0594   -4.4567   -0.0000 C   0  0  0  0  0  0  0  0  0  0  0  0
    2.5433   -4.4567   -0.0000 C   0  0  0  0  0  0  0  0  0  0  0  0
    3.8268   -3.6961   -0.0000 N   0  0  0  0  0  0  0  0  0  0  0  0
    2.5314   -5.9541   -0.0000 C   0  0  0  0  0  0  0  0  0  0  0  0
    5.1222   -4.4329   -0.0000 N   0  0  0  0  0  0  0  0  0  0  0  0
    3.8149   -6.6909   -0.0000 C   0  0  0  0  0  0  0  0  0  0  0  0
    5.1222   -5.9303   -0.0000 C   0  0  0  0  0  0  0  0  0  0  0  0
    6.5364   -3.9456   -0.0000 C   0  0  0  0  0  0  0  0  0  0  0  0
    6.5483   -6.3701   -0.0000 N   0  0  0  0  0  0  0  0  0  0  0  0
    7.4159   -5.1460   -0.0000 N   0  0  0  0  0  0  0  0  0  0  0  0
    7.2614   -2.6265   -0.0000 C   0  0  0  0  0  0  0  0  0  0  0  0
    6.4889   -1.3192   -0.0000 N   0  0  0  0  0  0  0  0  0  0  0  0
    7.2139   -0.0000   -0.0000 C   0  0  0  0  0  0  0  0  0  0  0  0
    6.5008    1.3311   -0.0000 C   0  0  0  0  0  0  0  0  0  0  0  0
    8.6994   -0.0475   -0.0000 C   0  0  0  0  0  0  0  0  0  0  0  0
    5.0033    1.3905   -0.0000 N   0  0  0  0  0  0  0  0  0  0  0  0
    7.2733    2.6146   -0.0000 C   0  0  0  0  0  0  0  0  0  0  0  0
    9.4838    1.2360   -0.0000 C   0  0  0  0  0  0  0  0  0  0  0  0
    4.2784    2.7097   -0.0000 C   0  0  0  0  0  0  0  0  0  0  0  0
    8.7707    2.5789   -0.0000 N   0  0  0  0  0  0  0  0  0  0  0  0
    6.5602    3.9456   -0.0000 C   0  0  0  0  0  0  0  0  0  0  0  0
    5.0509    4.0051   -0.0000 C   0  0  0  0  0  0  0  0  0  0  0  0
    4.3259    5.3361   -0.0000 O   0  0  0  0  0  0  0  0  0  0  0  0
    2.8166    5.3955   -0.0000 C   0  0  0  0  0  0  0  0  0  0  0  0
  1  2  1  0  0  0  0
  2  3  2  0  0  0  0
  2  4  1  0  0  0  0
  3  5  1  0  0  0  0
  4  6  2  0  0  0  0
  5  7  1  0  0  0  0
  5  8  2  0  0  0  0
  6  9  1  0  0  0  0
  9 10  2  0  0  0  0
  9 11  1  0  0  0  0
 10 12  1  0  0  0  0
 11 13  2  0  0  0  0
 12 14  1  0  0  0  0
 12 15  1  0  0  0  0
 14 16  2  0  0  0  0
 15 17  2  0  0  0  0
 15 18  1  0  0  0  0
 18 19  1  0  0  0  0
 19 20  1  0  0  0  0
 20 21  1  0  0  0  0
 20 22  2  0  0  0  0
 21 23  2  0  0  0  0
 21 24  1  0  0  0  0
 22 25  1  0  0  0  0
 23 26  1  0  0  0  0
 24 27  1  0  0  0  0
 24 28  2  0  0  0  0
 26 29  2  0  0  0  0
 29 30  1  0  0  0  0
 30 31  1  0  0  0  0
  6  8  1  0  0  0  0
 13 14  1  0  0  0  0
 16 17  1  0  0  0  0
 25 27  2  0  0  0  0
 28 29  1  0  0  0  0
M  END
>  <MolRegNo>
582866

>  <m>
=

>  <Value>
29000

>  <Unit>
nM

>  <Type>
IC50

>  <pValue>
4.54

>  <Ligand Efficiency>
0

>  <Binding Efficiency>
0

>  <Surface Efficiency>
0

>  <Assay Index>
441153

>  <Assay Category>


>  <Assay Organism>
Homo sapiens

>  <Target ID>
17045

>  <Target Name>
Cytochrome P450 3A4

>  <Target Organism>
Homo sapiens

>  <Target Description>
Target is a single protein chain

>  <Sequence Accession>
P08684

>  <Reference>
Bioorg Med Chem Lett 19 (22), 6307-6312 (2009)

>  <Pubmed ID>
19819693

>  <DOI>
10.1016/j.bmcl.2009.09.096

$$$$
582886
Actelion Java MolfileCreator 1.0

 29 33  0  0  0  0  0  0  0  0999 V2000
    0.0000   -0.0000   -0.0000 S   0  0  0  0  0  0  0  0  0  0  0  0
   -1.5260    0.1682   -0.0000 N   0  0  0  0  0  0  0  0  0  0  0  0
    0.5888    1.4058   -0.0000 C   0  0  0  0  0  0  0  0  0  0  0  0
   -1.8624    1.6702   -0.0000 C   0  0  0  0  0  0  0  0  0  0  0  0
    2.0667    1.7302   -0.0000 C   0  0  0  0  0  0  0  0  0  0  0  0
   -0.5407    2.4392   -0.0000 C   0  0  0  0  0  0  0  0  0  0  0  0
   -2.9919    2.1748   -0.0000 C   0  0  0  0  0  0  0  0  0  0  0  0
    3.0760    0.6128   -0.0000 N   0  0  0  0  0  0  0  0  0  0  0  0
    2.5233    3.1962   -0.0000 C   0  0  0  0  0  0  0  0  0  0  0  0
    4.5539    0.9372   -0.0000 N   0  0  0  0  0  0  0  0  0  0  0  0
    4.0012    3.5206   -0.0000 C   0  0  0  0  0  0  0  0  0  0  0  0
    5.0105    2.4031   -0.0000 C   0  0  0  0  0  0  0  0  0  0  0  0
    5.7795    0.0721   -0.0000 C   0  0  0  0  0  0  0  0  0  0  0  0
    6.5245    2.4151   -0.0000 N   0  0  0  0  0  0  0  0  0  0  0  0
    7.0051    0.9612   -0.0000 N   0  0  0  0  0  0  0  0  0  0  0  0
    5.7675   -1.4419   -0.0000 C   0  0  0  0  0  0  0  0  0  0  0  0
    7.0772   -2.1868   -0.0000 N   0  0  0  0  0  0  0  0  0  0  0  0
    7.0652   -3.7008   -0.0000 C   0  0  0  0  0  0  0  0  0  0  0  0
    8.3749   -4.4458   -0.0000 C   0  0  0  0  0  0  0  0  0  0  0  0
    5.7314   -4.4458   -0.0000 C   0  0  0  0  0  0  0  0  0  0  0  0
    9.6846   -3.6768   -0.0000 N   0  0  0  0  0  0  0  0  0  0  0  0
    8.3629   -5.9597   -0.0000 C   0  0  0  0  0  0  0  0  0  0  0  0
    5.7194   -5.9597   -0.0000 C   0  0  0  0  0  0  0  0  0  0  0  0
   10.9943   -4.4217   -0.0000 C   0  0  0  0  0  0  0  0  0  0  0  0
    7.0291   -6.7047   -0.0000 N   0  0  0  0  0  0  0  0  0  0  0  0
    9.6726   -6.7047   -0.0000 C   0  0  0  0  0  0  0  0  0  0  0  0
   10.9823   -5.9357   -0.0000 C   0  0  0  0  0  0  0  0  0  0  0  0
   12.2920   -6.6927   -0.0000 O   0  0  0  0  0  0  0  0  0  0  0  0
   12.2800   -7.9063   -0.0000 C   0  0  0  0  0  0  0  0  0  0  0  0
  1  2  1  0  0  0  0
  1  3  1  0  0  0  0
  2  4  2  0  0  0  0
  3  5  1  0  0  0  0
  3  6  2  0  0  0  0
  4  7  1  0  0  0  0
  5  8  2  0  0  0  0
  5  9  1  0  0  0  0
  8 10  1  0  0  0  0
  9 11  2  0  0  0  0
 10 12  1  0  0  0  0
 10 13  1  0  0  0  0
 12 14  2  0  0  0  0
 13 15  2  0  0  0  0
 13 16  1  0  0  0  0
 16 17  1  0  0  0  0
 17 18  1  0  0  0  0
 18 19  1  0  0  0  0
 18 20  2  0  0  0  0
 19 21  2  0  0  0  0
 19 22  1  0  0  0  0
 20 23  1  0  0  0  0
 21 24  1  0  0  0  0
 22 25  1  0  0  0  0
 22 26  2  0  0  0  0
 24 27  2  0  0  0  0
 27 28  1  0  0  0  0
 28 29  1  0  0  0  0
  4  6  1  0  0  0  0
 11 12  1  0  0  0  0
 14 15  1  0  0  0  0
 23 25  2  0  0  0  0
 26 27  1  0  0  0  0
M  END
>  <MolRegNo>
582886

>  <m>
=

>  <Value>
26000

>  <Unit>
nM

>  <Type>
IC50

>  <pValue>
4.58

>  <Ligand Efficiency>
0

>  <Binding Efficiency>
0

>  <Surface Efficiency>
0

>  <Assay Index>
441153

>  <Assay Category>


>  <Assay Organism>
Homo sapiens

>  <Target ID>
17045

>  <Target Name>
Cytochrome P450 3A4

>  <Target Organism>
Homo sapiens

>  <Target Description>
Target is a single protein chain

>  <Sequence Accession>
P08684

>  <Reference>
Bioorg Med Chem Lett 19 (22), 6307-6312 (2009)

>  <Pubmed ID>
19819693

>  <DOI>
10.1016/j.bmcl.2009.09.096

$$$$
576615
Actelion Java MolfileCreator 1.0

 24 26  0  0  0  0  0  0  0  0999 V2000
    0.0000   -0.0000   -0.0000 O   0  0  0  0  0  0  0  0  0  0  0  0
   -0.0356    1.5076   -0.0000 C   0  0  0  0  0  0  0  0  0  0  0  0
    1.2464    2.2911   -0.0000 N   0  0  0  0  0  0  0  0  0  0  0  0
   -1.3533    2.2554   -0.0000 C   0  0  0  0  0  0  0  0  0  0  0  0
    2.5403    1.5669   -0.0000 C   0  0  0  0  0  0  0  0  0  0  0  0
   -2.6472    1.5076   -0.0000 C   0  0  0  0  0  0  0  0  0  0  0  0
    3.8224    2.3504   -0.0000 C   0  0  0  0  0  0  0  0  0  0  0  0
   -3.1339    2.9439   -0.0000 O   0  0  0  0  0  0  0  0  0  0  0  0
   -3.8699    0.6292   -0.0000 C   0  0  0  0  0  0  0  0  0  0  0  0
   -1.9231    0.2374   -0.0000 C   0  0  0  0  0  0  0  0  0  0  0  0
    5.1163    1.6263   -0.0000 C   0  0  0  0  0  0  0  0  0  0  0  0
    3.7868    3.8461   -0.0000 C   0  0  0  0  0  0  0  0  0  0  0  0
   -4.6415    2.9439   -0.0000 O   0  0  0  0  0  0  0  0  0  0  0  0
   -5.1044    1.5076   -0.0000 C   0  0  0  0  0  0  0  0  0  0  0  0
    6.3983    2.3979   -0.0000 C   0  0  0  0  0  0  0  0  0  0  0  0
    5.0569    4.6296   -0.0000 C   0  0  0  0  0  0  0  0  0  0  0  0
   -6.4221    2.2792   -0.0000 C   0  0  0  0  0  0  0  0  0  0  0  0
   -5.1163    0.0119   -0.0000 C   0  0  0  0  0  0  0  0  0  0  0  0
    7.6923    1.6738   -0.0000 O   0  0  0  0  0  0  0  0  0  0  0  0
    6.3627    3.9055   -0.0000 C   0  0  0  0  0  0  0  0  0  0  0  0
   -7.7279    1.5313   -0.0000 C   0  0  0  0  0  0  0  0  0  0  0  0
   -6.4340   -0.7241   -0.0000 C   0  0  0  0  0  0  0  0  0  0  0  0
    7.7041    0.1899   -0.0000 C   0  0  0  0  0  0  0  0  0  0  0  0
   -7.7397    0.0356   -0.0000 C   0  0  0  0  0  0  0  0  0  0  0  0
  1  2  2  0  0  0  0
  2  3  1  0  0  0  0
  2  4  1  0  0  0  0
  3  5  1  0  0  0  0
  4  6  1  0  0  0  0
  5  7  1  0  0  0  0
  6  8  1  0  0  0  0
  6  9  1  0  0  0  0
  6 10  1  0  0  0  0
  7 11  2  0  0  0  0
  7 12  1  0  0  0  0
  8 13  1  0  0  0  0
  9 14  1  0  0  0  0
 11 15  1  0  0  0  0
 12 16  2  0  0  0  0
 14 17  1  0  0  0  0
 14 18  1  0  0  0  0
 15 19  1  0  0  0  0
 15 20  2  0  0  0  0
 17 21  1  0  0  0  0
 18 22  1  0  0  0  0
 19 23  1  0  0  0  0
 21 24  1  0  0  0  0
 13 14  1  0  0  0  0
 16 20  1  0  0  0  0
 22 24  1  0  0  0  0
M  END
>  <MolRegNo>
576615

>  <m>
=

>  <Value>
3700

>  <Unit>
nM

>  <Type>
IC50

>  <pValue>
5.43

>  <Ligand Efficiency>
0

>  <Binding Efficiency>
0

>  <Surface Efficiency>
0

>  <Assay Index>
443680

>  <Assay Category>


>  <Assay Organism>
Homo sapiens

>  <Target ID>
17045

>  <Target Name>
Cytochrome P450 3A4

>  <Target Organism>
Homo sapiens

>  <Target Description>
Target is a single protein chain

>  <Sequence Accession>
P08684

>  <Reference>
Bioorg Med Chem Lett 19 (19), 5657-5660 (2009)

>  <Pubmed ID>
19699641

>  <DOI>
10.1016/j.bmcl.2009.08.024

$$$$
576639
Actelion Java MolfileCreator 1.0

 26 28  0  0  0  0  0  0  0  0999 V2000
    0.0000   -0.0000   -0.0000 O   0  0  0  0  0  0  0  0  0  0  0  0
   -0.0356    1.5076   -0.0000 C   0  0  0  0  0  0  0  0  0  0  0  0
    1.2464    2.2910   -0.0000 N   0  0  0  0  0  0  0  0  0  0  0  0
   -1.3533    2.2554   -0.0000 C   0  0  0  0  0  0  0  0  0  0  0  0
    2.5403    1.5669   -0.0000 C   0  0  0  0  0  0  0  0  0  0  0  0
   -2.6472    1.5076   -0.0000 C   0  0  0  0  0  0  0  0  0  0  0  0
    3.8224    2.3504   -0.0000 C   0  0  0  0  0  0  0  0  0  0  0  0
   -3.1339    2.9439   -0.0000 O   0  0  0  0  0  0  0  0  0  0  0  0
   -3.8698    0.6291   -0.0000 C   0  0  0  0  0  0  0  0  0  0  0  0
   -1.9230    0.2374   -0.0000 C   0  0  0  0  0  0  0  0  0  0  0  0
    5.1163    1.6263   -0.0000 C   0  0  0  0  0  0  0  0  0  0  0  0
    3.7867    3.8461   -0.0000 C   0  0  0  0  0  0  0  0  0  0  0  0
   -4.6414    2.9439   -0.0000 O   0  0  0  0  0  0  0  0  0  0  0  0
   -5.1044    1.5076   -0.0000 C   0  0  0  0  0  0  0  0  0  0  0  0
    6.3983    2.3979   -0.0000 C   0  0  0  0  0  0  0  0  0  0  0  0
    5.0569    4.6296   -0.0000 C   0  0  0  0  0  0  0  0  0  0  0  0
   -6.4220    2.2792   -0.0000 C   0  0  0  0  0  0  0  0  0  0  0  0
   -5.1163    0.0119   -0.0000 C   0  0  0  0  0  0  0  0  0  0  0  0
    7.6922    1.6738   -0.0000 O   0  0  0  0  0  0  0  0  0  0  0  0
    6.3627    3.9054   -0.0000 C   0  0  0  0  0  0  0  0  0  0  0  0
    5.0213    6.1371   -0.0000 O   0  0  0  0  0  0  0  0  0  0  0  0
   -7.7278    1.5313   -0.0000 C   0  0  0  0  0  0  0  0  0  0  0  0
   -6.4339   -0.7241   -0.0000 C   0  0  0  0  0  0  0  0  0  0  0  0
    7.7041    0.1899   -0.0000 C   0  0  0  0  0  0  0  0  0  0  0  0
    6.2914    6.9206   -0.0000 C   0  0  0  0  0  0  0  0  0  0  0  0
   -7.7397    0.0356   -0.0000 C   0  0  0  0  0  0  0  0  0  0  0  0
  1  2  2  0  0  0  0
  2  3  1  0  0  0  0
  2  4  1  0  0  0  0
  3  5  1  0  0  0  0
  4  6  1  0  0  0  0
  5  7  1  0  0  0  0
  6  8  1  0  0  0  0
  6  9  1  0  0  0  0
  6 10  1  0  0  0  0
  7 11  2  0  0  0  0
  7 12  1  0  0  0  0
  8 13  1  0  0  0  0
  9 14  1  0  0  0  0
 11 15  1  0  0  0  0
 12 16  2  0  0  0  0
 14 17  1  0  0  0  0
 14 18  1  0  0  0  0
 15 19  1  0  0  0  0
 15 20  2  0  0  0  0
 16 21  1  0  0  0  0
 17 22  1  0  0  0  0
 18 23  1  0  0  0  0
 19 24  1  0  0  0  0
 21 25  1  0  0  0  0
 22 26  1  0  0  0  0
 13 14  1  0  0  0  0
 16 20  1  0  0  0  0
 23 26  1  0  0  0  0
M  END
>  <MolRegNo>
576639

>  <m>
=

>  <Value>
1700

>  <Unit>
nM

>  <Type>
IC50

>  <pValue>
5.77

>  <Ligand Efficiency>
0

>  <Binding Efficiency>
0

>  <Surface Efficiency>
0

>  <Assay Index>
443680

>  <Assay Category>


>  <Assay Organism>
Homo sapiens

>  <Target ID>
17045

>  <Target Name>
Cytochrome P450 3A4

>  <Target Organism>
Homo sapiens

>  <Target Description>
Target is a single protein chain

>  <Sequence Accession>
P08684

>  <Reference>
Bioorg Med Chem Lett 19 (19), 5657-5660 (2009)

>  <Pubmed ID>
19699641

>  <DOI>
10.1016/j.bmcl.2009.08.024

$$$$
576640
Actelion Java MolfileCreator 1.0

 28 30  0  0  0  0  0  0  0  0999 V2000
    0.0000   -0.0000   -0.0000 O   0  0  0  0  0  0  0  0  0  0  0  0
   -0.0356    1.5081   -0.0000 C   0  0  0  0  0  0  0  0  0  0  0  0
    1.2468    2.2918   -0.0000 N   0  0  0  0  0  0  0  0  0  0  0  0
   -1.3537    2.2562   -0.0000 C   0  0  0  0  0  0  0  0  0  0  0  0
    2.5412    1.5674   -0.0000 C   0  0  0  0  0  0  0  0  0  0  0  0
   -2.6480    1.5081   -0.0000 C   0  0  0  0  0  0  0  0  0  0  0  0
    3.8236    2.3512   -0.0000 C   0  0  0  0  0  0  0  0  0  0  0  0
   -3.1349    2.9449   -0.0000 O   0  0  0  0  0  0  0  0  0  0  0  0
   -3.8711    0.6294   -0.0000 C   0  0  0  0  0  0  0  0  0  0  0  0
   -1.9237    0.2375   -0.0000 C   0  0  0  0  0  0  0  0  0  0  0  0
    5.1179    1.6268   -0.0000 C   0  0  0  0  0  0  0  0  0  0  0  0
    3.7880    3.8474   -0.0000 C   0  0  0  0  0  0  0  0  0  0  0  0
   -4.6430    2.9449   -0.0000 O   0  0  0  0  0  0  0  0  0  0  0  0
   -5.1061    1.5081   -0.0000 C   0  0  0  0  0  0  0  0  0  0  0  0
    6.4004    2.3987   -0.0000 C   0  0  0  0  0  0  0  0  0  0  0  0
    5.0586    4.6311   -0.0000 C   0  0  0  0  0  0  0  0  0  0  0  0
   -6.4241    2.2799   -0.0000 C   0  0  0  0  0  0  0  0  0  0  0  0
   -5.1179    0.0119   -0.0000 C   0  0  0  0  0  0  0  0  0  0  0  0
    7.6947    1.6743   -0.0000 O   0  0  0  0  0  0  0  0  0  0  0  0
    6.3648    3.9067   -0.0000 C   0  0  0  0  0  0  0  0  0  0  0  0
    5.0229    6.1391   -0.0000 O   0  0  0  0  0  0  0  0  0  0  0  0
   -7.7303    1.5318   -0.0000 C   0  0  0  0  0  0  0  0  0  0  0  0
   -6.4360   -0.7243   -0.0000 C   0  0  0  0  0  0  0  0  0  0  0  0
    7.7066    0.1900   -0.0000 C   0  0  0  0  0  0  0  0  0  0  0  0
    7.6472    4.6905   -0.0000 O   0  0  0  0  0  0  0  0  0  0  0  0
    6.2935    6.9229   -0.0000 C   0  0  0  0  0  0  0  0  0  0  0  0
   -7.7422    0.0356   -0.0000 C   0  0  0  0  0  0  0  0  0  0  0  0
    8.9415    3.9661   -0.0000 C   0  0  0  0  0  0  0  0  0  0  0  0
  1  2  2  0  0  0  0
  2  3  1  0  0  0  0
  2  4  1  0  0  0  0
  3  5  1  0  0  0  0
  4  6  1  0  0  0  0
  5  7  1  0  0  0  0
  6  8  1  0  0  0  0
  6  9  1  0  0  0  0
  6 10  1  0  0  0  0
  7 11  2  0  0  0  0
  7 12  1  0  0  0  0
  8 13  1  0  0  0  0
  9 14  1  0  0  0  0
 11 15  1  0  0  0  0
 12 16  2  0  0  0  0
 14 17  1  0  0  0  0
 14 18  1  0  0  0  0
 15 19  1  0  0  0  0
 15 20  2  0  0  0  0
 16 21  1  0  0  0  0
 17 22  1  0  0  0  0
 18 23  1  0  0  0  0
 19 24  1  0  0  0  0
 20 25  1  0  0  0  0
 21 26  1  0  0  0  0
 22 27  1  0  0  0  0
 25 28  1  0  0  0  0
 13 14  1  0  0  0  0
 16 20  1  0  0  0  0
 23 27  1  0  0  0  0
M  END
>  <MolRegNo>
576640

>  <m>
=

>  <Value>
1900

>  <Unit>
nM

>  <Type>
IC50

>  <pValue>
5.72

>  <Ligand Efficiency>
0

>  <Binding Efficiency>
0

>  <Surface Efficiency>
0

>  <Assay Index>
443680

>  <Assay Category>


>  <Assay Organism>
Homo sapiens

>  <Target ID>
17045

>  <Target Name>
Cytochrome P450 3A4

>  <Target Organism>
Homo sapiens

>  <Target Description>
Target is a single protein chain

>  <Sequence Accession>
P08684

>  <Reference>
Bioorg Med Chem Lett 19 (19), 5657-5660 (2009)

>  <Pubmed ID>
19699641

>  <DOI>
10.1016/j.bmcl.2009.08.024

$$$$
576507
Actelion Java MolfileCreator 1.0

 26 28  0  0  0  0  0  0  0  0999 V2000
    0.0000   -0.0000   -0.0000 F   0  0  0  0  0  0  0  0  0  0  0  0
   -0.0355    1.5031   -0.0000 C   0  0  0  0  0  0  0  0  0  0  0  0
    1.2427    2.2723   -0.0000 F   0  0  0  0  0  0  0  0  0  0  0  0
    1.2308    0.7693   -0.0000 F   0  0  0  0  0  0  0  0  0  0  0  0
   -1.3492    2.2487   -0.0000 C   0  0  0  0  0  0  0  0  0  0  0  0
   -2.6511    1.5031   -0.0000 C   0  0  0  0  0  0  0  0  0  0  0  0
   -1.3847    3.7517   -0.0000 C   0  0  0  0  0  0  0  0  0  0  0  0
   -3.9647    2.2487   -0.0000 C   0  0  0  0  0  0  0  0  0  0  0  0
   -2.7102    4.4973   -0.0000 C   0  0  0  0  0  0  0  0  0  0  0  0
   -4.0003    3.7399   -0.0000 C   0  0  0  0  0  0  0  0  0  0  0  0
   -5.2666    1.4912   -0.0000 C   0  0  0  0  0  0  0  0  0  0  0  0
   -6.5803    2.2368   -0.0000 N   0  0  0  0  0  0  0  0  0  0  0  0
   -7.8822    1.4794   -0.0000 C   0  0  0  0  0  0  0  0  0  0  0  0
   -7.8703   -0.0000   -0.0000 O   0  0  0  0  0  0  0  0  0  0  0  0
   -9.1958    2.2250   -0.0000 C   0  0  0  0  0  0  0  0  0  0  0  0
  -10.4859    1.4794   -0.0000 C   0  0  0  0  0  0  0  0  0  0  0  0
  -10.9711    2.9114   -0.0000 O   0  0  0  0  0  0  0  0  0  0  0  0
  -11.7049    0.6036   -0.0000 C   0  0  0  0  0  0  0  0  0  0  0  0
   -9.7639    0.2130   -0.0000 C   0  0  0  0  0  0  0  0  0  0  0  0
  -12.4742    2.9114   -0.0000 O   0  0  0  0  0  0  0  0  0  0  0  0
  -12.9357    1.4794   -0.0000 C   0  0  0  0  0  0  0  0  0  0  0  0
  -14.2494    2.2487   -0.0000 C   0  0  0  0  0  0  0  0  0  0  0  0
  -12.9476   -0.0118   -0.0000 C   0  0  0  0  0  0  0  0  0  0  0  0
  -15.5513    1.5031   -0.0000 C   0  0  0  0  0  0  0  0  0  0  0  0
  -14.2613   -0.7456   -0.0000 C   0  0  0  0  0  0  0  0  0  0  0  0
  -15.5631    0.0118   -0.0000 C   0  0  0  0  0  0  0  0  0  0  0  0
  1  2  1  0  0  0  0
  2  3  1  0  0  0  0
  2  4  1  0  0  0  0
  2  5  1  0  0  0  0
  5  6  2  0  0  0  0
  5  7  1  0  0  0  0
  6  8  1  0  0  0  0
  7  9  2  0  0  0  0
  8 10  2  0  0  0  0
  8 11  1  0  0  0  0
 11 12  1  0  0  0  0
 12 13  1  0  0  0  0
 13 14  2  0  0  0  0
 13 15  1  0  0  0  0
 15 16  1  0  0  0  0
 16 17  1  0  0  0  0
 16 18  1  0  0  0  0
 16 19  1  0  0  0  0
 17 20  1  0  0  0  0
 18 21  1  0  0  0  0
 21 22  1  0  0  0  0
 21 23  1  0  0  0  0
 22 24  1  0  0  0  0
 23 25  1  0  0  0  0
 24 26  1  0  0  0  0
  9 10  1  0  0  0  0
 20 21  1  0  0  0  0
 25 26  1  0  0  0  0
M  END
>  <MolRegNo>
576507

>  <m>
=

>  <Value>
3200

>  <Unit>
nM

>  <Type>
IC50

>  <pValue>
5.5

>  <Ligand Efficiency>
0

>  <Binding Efficiency>
0

>  <Surface Efficiency>
0

>  <Assay Index>
443680

>  <Assay Category>


>  <Assay Organism>
Homo sapiens

>  <Target ID>
17045

>  <Target Name>
Cytochrome P450 3A4

>  <Target Organism>
Homo sapiens

>  <Target Description>
Target is a single protein chain

>  <Sequence Accession>
P08684

>  <Reference>
Bioorg Med Chem Lett 19 (19), 5657-5660 (2009)

>  <Pubmed ID>
19699641

>  <DOI>
10.1016/j.bmcl.2009.08.024

$$$$
576525
Actelion Java MolfileCreator 1.0

 27 29  0  0  0  0  0  0  0  0999 V2000
    0.0000   -0.0000   -0.0000 F   0  0  0  0  0  0  0  0  0  0  0  0
   -0.0237    1.5030   -0.0000 C   0  0  0  0  0  0  0  0  0  0  0  0
   -1.3373    2.2486   -0.0000 F   0  0  0  0  0  0  0  0  0  0  0  0
   -1.3373    0.7811   -0.0000 F   0  0  0  0  0  0  0  0  0  0  0  0
    1.2545    2.2723   -0.0000 O   0  0  0  0  0  0  0  0  0  0  0  0
    1.2308    3.7753   -0.0000 C   0  0  0  0  0  0  0  0  0  0  0  0
   -0.0828    4.5208   -0.0000 C   0  0  0  0  0  0  0  0  0  0  0  0
    2.4971    4.5445   -0.0000 C   0  0  0  0  0  0  0  0  0  0  0  0
   -0.1183    6.0120   -0.0000 C   0  0  0  0  0  0  0  0  0  0  0  0
   -1.3847    3.7634   -0.0000 C   0  0  0  0  0  0  0  0  0  0  0  0
    2.4616    6.0475   -0.0000 C   0  0  0  0  0  0  0  0  0  0  0  0
    1.1480    6.7931   -0.0000 C   0  0  0  0  0  0  0  0  0  0  0  0
   -2.6983    4.5090   -0.0000 N   0  0  0  0  0  0  0  0  0  0  0  0
   -4.0001    3.7516   -0.0000 C   0  0  0  0  0  0  0  0  0  0  0  0
   -3.9883    2.2723   -0.0000 O   0  0  0  0  0  0  0  0  0  0  0  0
   -5.3138    4.4972   -0.0000 C   0  0  0  0  0  0  0  0  0  0  0  0
   -6.6037    3.7516   -0.0000 C   0  0  0  0  0  0  0  0  0  0  0  0
   -7.0890    5.1836   -0.0000 O   0  0  0  0  0  0  0  0  0  0  0  0
   -7.8227    2.8758   -0.0000 C   0  0  0  0  0  0  0  0  0  0  0  0
   -5.8818    2.4853   -0.0000 C   0  0  0  0  0  0  0  0  0  0  0  0
   -8.5920    5.1836   -0.0000 O   0  0  0  0  0  0  0  0  0  0  0  0
   -9.0535    3.7516   -0.0000 C   0  0  0  0  0  0  0  0  0  0  0  0
  -10.3672    4.5208   -0.0000 C   0  0  0  0  0  0  0  0  0  0  0  0
   -9.0654    2.2604   -0.0000 C   0  0  0  0  0  0  0  0  0  0  0  0
  -11.6690    3.7753   -0.0000 C   0  0  0  0  0  0  0  0  0  0  0  0
  -10.3790    1.5267   -0.0000 C   0  0  0  0  0  0  0  0  0  0  0  0
  -11.6808    2.2841   -0.0000 C   0  0  0  0  0  0  0  0  0  0  0  0
  1  2  1  0  0  0  0
  2  3  1  0  0  0  0
  2  4  1  0  0  0  0
  2  5  1  0  0  0  0
  5  6  1  0  0  0  0
  6  7  2  0  0  0  0
  6  8  1  0  0  0  0
  7  9  1  0  0  0  0
  7 10  1  0  0  0  0
  8 11  2  0  0  0  0
  9 12  2  0  0  0  0
 10 13  1  0  0  0  0
 13 14  1  0  0  0  0
 14 15  2  0  0  0  0
 14 16  1  0  0  0  0
 16 17  1  0  0  0  0
 17 18  1  0  0  0  0
 17 19  1  0  0  0  0
 17 20  1  0  0  0  0
 18 21  1  0  0  0  0
 19 22  1  0  0  0  0
 22 23  1  0  0  0  0
 22 24  1  0  0  0  0
 23 25  1  0  0  0  0
 24 26  1  0  0  0  0
 25 27  1  0  0  0  0
 11 12  1  0  0  0  0
 21 22  1  0  0  0  0
 26 27  1  0  0  0  0
M  END
>  <MolRegNo>
576525

>  <m>
=

>  <Value>
4200

>  <Unit>
nM

>  <Type>
IC50

>  <pValue>
5.38

>  <Ligand Efficiency>
0

>  <Binding Efficiency>
0

>  <Surface Efficiency>
0

>  <Assay Index>
443680

>  <Assay Category>


>  <Assay Organism>
Homo sapiens

>  <Target ID>
17045

>  <Target Name>
Cytochrome P450 3A4

>  <Target Organism>
Homo sapiens

>  <Target Description>
Target is a single protein chain

>  <Sequence Accession>
P08684

>  <Reference>
Bioorg Med Chem Lett 19 (19), 5657-5660 (2009)

>  <Pubmed ID>
19699641

>  <DOI>
10.1016/j.bmcl.2009.08.024

$$$$
576545
Actelion Java MolfileCreator 1.0

 27 29  0  0  0  0  0  0  0  0999 V2000
    0.0000   -0.0000   -0.0000 F   0  0  0  0  0  0  0  0  0  0  0  0
   -1.3031   -0.7582   -0.0000 C   0  0  0  0  0  0  0  0  0  0  0  0
   -1.2913   -2.2390   -0.0000 F   0  0  0  0  0  0  0  0  0  0  0  0
   -0.0237   -1.4926   -0.0000 F   0  0  0  0  0  0  0  0  0  0  0  0
   -2.6180   -0.0118   -0.0000 O   0  0  0  0  0  0  0  0  0  0  0  0
   -3.9211   -0.7700   -0.0000 C   0  0  0  0  0  0  0  0  0  0  0  0
   -3.9093   -2.2508   -0.0000 C   0  0  0  0  0  0  0  0  0  0  0  0
   -5.2479   -0.0237   -0.0000 C   0  0  0  0  0  0  0  0  0  0  0  0
   -5.2124   -2.9971   -0.0000 C   0  0  0  0  0  0  0  0  0  0  0  0
   -6.5392   -0.7819   -0.0000 C   0  0  0  0  0  0  0  0  0  0  0  0
   -6.5273   -2.2508   -0.0000 C   0  0  0  0  0  0  0  0  0  0  0  0
   -7.8304   -3.0090   -0.0000 C   0  0  0  0  0  0  0  0  0  0  0  0
   -9.1454   -2.2626   -0.0000 N   0  0  0  0  0  0  0  0  0  0  0  0
  -10.4485   -3.0208   -0.0000 C   0  0  0  0  0  0  0  0  0  0  0  0
  -10.4366   -4.5016   -0.0000 O   0  0  0  0  0  0  0  0  0  0  0  0
  -11.7634   -2.2745   -0.0000 C   0  0  0  0  0  0  0  0  0  0  0  0
  -13.0547   -3.0208   -0.0000 C   0  0  0  0  0  0  0  0  0  0  0  0
  -13.5404   -1.5874   -0.0000 O   0  0  0  0  0  0  0  0  0  0  0  0
  -14.2748   -3.8974   -0.0000 C   0  0  0  0  0  0  0  0  0  0  0  0
  -12.3320   -4.2884   -0.0000 C   0  0  0  0  0  0  0  0  0  0  0  0
  -15.0448   -1.5874   -0.0000 O   0  0  0  0  0  0  0  0  0  0  0  0
  -15.5068   -3.0208   -0.0000 C   0  0  0  0  0  0  0  0  0  0  0  0
  -16.8218   -2.2508   -0.0000 C   0  0  0  0  0  0  0  0  0  0  0  0
  -15.5187   -4.5135   -0.0000 C   0  0  0  0  0  0  0  0  0  0  0  0
  -18.1249   -2.9971   -0.0000 C   0  0  0  0  0  0  0  0  0  0  0  0
  -16.8336   -5.2479   -0.0000 C   0  0  0  0  0  0  0  0  0  0  0  0
  -18.1367   -4.4898   -0.0000 C   0  0  0  0  0  0  0  0  0  0  0  0
  1  2  1  0  0  0  0
  2  3  1  0  0  0  0
  2  4  1  0  0  0  0
  2  5  1  0  0  0  0
  5  6  1  0  0  0  0
  6  7  2  0  0  0  0
  6  8  1  0  0  0  0
  7  9  1  0  0  0  0
  8 10  2  0  0  0  0
  9 11  2  0  0  0  0
 11 12  1  0  0  0  0
 12 13  1  0  0  0  0
 13 14  1  0  0  0  0
 14 15  2  0  0  0  0
 14 16  1  0  0  0  0
 16 17  1  0  0  0  0
 17 18  1  0  0  0  0
 17 19  1  0  0  0  0
 17 20  1  0  0  0  0
 18 21  1  0  0  0  0
 19 22  1  0  0  0  0
 22 23  1  0  0  0  0
 22 24  1  0  0  0  0
 23 25  1  0  0  0  0
 24 26  1  0  0  0  0
 25 27  1  0  0  0  0
 10 11  1  0  0  0  0
 21 22  1  0  0  0  0
 26 27  1  0  0  0  0
M  END
>  <MolRegNo>
576545

>  <m>
=

>  <Value>
2900

>  <Unit>
nM

>  <Type>
IC50

>  <pValue>
5.54

>  <Ligand Efficiency>
0

>  <Binding Efficiency>
0

>  <Surface Efficiency>
0

>  <Assay Index>
443680

>  <Assay Category>


>  <Assay Organism>
Homo sapiens

>  <Target ID>
17045

>  <Target Name>
Cytochrome P450 3A4

>  <Target Organism>
Homo sapiens

>  <Target Description>
Target is a single protein chain

>  <Sequence Accession>
P08684

>  <Reference>
Bioorg Med Chem Lett 19 (19), 5657-5660 (2009)

>  <Pubmed ID>
19699641

>  <DOI>
10.1016/j.bmcl.2009.08.024

$$$$
576552
Actelion Java MolfileCreator 1.0

 23 25  0  0  0  0  0  0  0  0999 V2000
    0.0000   -0.0000   -0.0000 Cl  0  0  0  0  0  0  0  0  0  0  0  0
   -1.3123    0.7448   -0.0000 C   0  0  0  0  0  0  0  0  0  0  0  0
   -2.6127   -0.0000   -0.0000 C   0  0  0  0  0  0  0  0  0  0  0  0
   -1.3477    2.2462   -0.0000 C   0  0  0  0  0  0  0  0  0  0  0  0
   -3.9249    0.7448   -0.0000 C   0  0  0  0  0  0  0  0  0  0  0  0
   -2.6718    2.9910   -0.0000 C   0  0  0  0  0  0  0  0  0  0  0  0
   -3.9604    2.2344   -0.0000 C   0  0  0  0  0  0  0  0  0  0  0  0
   -5.2254   -0.0118   -0.0000 C   0  0  0  0  0  0  0  0  0  0  0  0
   -6.5376    0.7330   -0.0000 N   0  0  0  0  0  0  0  0  0  0  0  0
   -7.8381   -0.0236   -0.0000 C   0  0  0  0  0  0  0  0  0  0  0  0
   -7.8262   -1.5014   -0.0000 O   0  0  0  0  0  0  0  0  0  0  0  0
   -9.1503    0.7211   -0.0000 C   0  0  0  0  0  0  0  0  0  0  0  0
  -10.4389   -0.0236   -0.0000 C   0  0  0  0  0  0  0  0  0  0  0  0
  -10.9236    1.4068   -0.0000 O   0  0  0  0  0  0  0  0  0  0  0  0
  -11.6566   -0.8985   -0.0000 C   0  0  0  0  0  0  0  0  0  0  0  0
   -9.7178   -1.2886   -0.0000 C   0  0  0  0  0  0  0  0  0  0  0  0
  -12.4250    1.4068   -0.0000 O   0  0  0  0  0  0  0  0  0  0  0  0
  -12.8861   -0.0236   -0.0000 C   0  0  0  0  0  0  0  0  0  0  0  0
  -14.1984    0.7448   -0.0000 C   0  0  0  0  0  0  0  0  0  0  0  0
  -12.8979   -1.5132   -0.0000 C   0  0  0  0  0  0  0  0  0  0  0  0
  -15.4988   -0.0000   -0.0000 C   0  0  0  0  0  0  0  0  0  0  0  0
  -14.2102   -2.2462   -0.0000 C   0  0  0  0  0  0  0  0  0  0  0  0
  -15.5106   -1.4896   -0.0000 C   0  0  0  0  0  0  0  0  0  0  0  0
  1  2  1  0  0  0  0
  2  3  2  0  0  0  0
  2  4  1  0  0  0  0
  3  5  1  0  0  0  0
  4  6  2  0  0  0  0
  5  7  2  0  0  0  0
  5  8  1  0  0  0  0
  8  9  1  0  0  0  0
  9 10  1  0  0  0  0
 10 11  2  0  0  0  0
 10 12  1  0  0  0  0
 12 13  1  0  0  0  0
 13 14  1  0  0  0  0
 13 15  1  0  0  0  0
 13 16  1  0  0  0  0
 14 17  1  0  0  0  0
 15 18  1  0  0  0  0
 18 19  1  0  0  0  0
 18 20  1  0  0  0  0
 19 21  1  0  0  0  0
 20 22  1  0  0  0  0
 21 23  1  0  0  0  0
  6  7  1  0  0  0  0
 17 18  1  0  0  0  0
 22 23  1  0  0  0  0
M  END
>  <MolRegNo>
576552

>  <m>
=

>  <Value>
4900

>  <Unit>
nM

>  <Type>
IC50

>  <pValue>
5.31

>  <Ligand Efficiency>
0

>  <Binding Efficiency>
0

>  <Surface Efficiency>
0

>  <Assay Index>
443680

>  <Assay Category>


>  <Assay Organism>
Homo sapiens

>  <Target ID>
17045

>  <Target Name>
Cytochrome P450 3A4

>  <Target Organism>
Homo sapiens

>  <Target Description>
Target is a single protein chain

>  <Sequence Accession>
P08684

>  <Reference>
Bioorg Med Chem Lett 19 (19), 5657-5660 (2009)

>  <Pubmed ID>
19699641

>  <DOI>
10.1016/j.bmcl.2009.08.024

$$$$
576616
Actelion Java MolfileCreator 1.0

 24 26  0  0  0  0  0  0  0  0999 V2000
    0.0000   -0.0000   -0.0000 Br  0  0  0  0  0  0  0  0  0  0  0  0
   -1.2920   -0.7586   -0.0000 C   0  0  0  0  0  0  0  0  0  0  0  0
   -1.2801   -2.2402   -0.0000 C   0  0  0  0  0  0  0  0  0  0  0  0
   -2.6195   -0.0119   -0.0000 C   0  0  0  0  0  0  0  0  0  0  0  0
   -2.5720   -2.9869   -0.0000 C   0  0  0  0  0  0  0  0  0  0  0  0
   -3.9114   -0.7704   -0.0000 C   0  0  0  0  0  0  0  0  0  0  0  0
   -2.5720   -4.4685   -0.0000 F   0  0  0  0  0  0  0  0  0  0  0  0
   -3.8877   -2.2402   -0.0000 C   0  0  0  0  0  0  0  0  0  0  0  0
   -5.1915   -2.9987   -0.0000 C   0  0  0  0  0  0  0  0  0  0  0  0
   -6.5072   -2.2520   -0.0000 N   0  0  0  0  0  0  0  0  0  0  0  0
   -7.8110   -2.9987   -0.0000 C   0  0  0  0  0  0  0  0  0  0  0  0
   -7.7991   -4.4803   -0.0000 O   0  0  0  0  0  0  0  0  0  0  0  0
   -9.1266   -2.2520   -0.0000 C   0  0  0  0  0  0  0  0  0  0  0  0
  -10.4186   -2.9987   -0.0000 C   0  0  0  0  0  0  0  0  0  0  0  0
  -10.9045   -1.5646   -0.0000 O   0  0  0  0  0  0  0  0  0  0  0  0
  -11.6394   -3.8759   -0.0000 C   0  0  0  0  0  0  0  0  0  0  0  0
   -9.6956   -4.2670   -0.0000 C   0  0  0  0  0  0  0  0  0  0  0  0
  -12.4098   -1.5646   -0.0000 O   0  0  0  0  0  0  0  0  0  0  0  0
  -12.8721   -2.9987   -0.0000 C   0  0  0  0  0  0  0  0  0  0  0  0
  -14.1878   -2.2283   -0.0000 C   0  0  0  0  0  0  0  0  0  0  0  0
  -12.8839   -4.4922   -0.0000 C   0  0  0  0  0  0  0  0  0  0  0  0
  -15.4916   -2.9750   -0.0000 C   0  0  0  0  0  0  0  0  0  0  0  0
  -14.1996   -5.2271   -0.0000 C   0  0  0  0  0  0  0  0  0  0  0  0
  -15.5034   -4.4685   -0.0000 C   0  0  0  0  0  0  0  0  0  0  0  0
  1  2  1  0  0  0  0
  2  3  2  0  0  0  0
  2  4  1  0  0  0  0
  3  5  1  0  0  0  0
  4  6  2  0  0  0  0
  5  7  1  0  0  0  0
  5  8  2  0  0  0  0
  8  9  1  0  0  0  0
  9 10  1  0  0  0  0
 10 11  1  0  0  0  0
 11 12  2  0  0  0  0
 11 13  1  0  0  0  0
 13 14  1  0  0  0  0
 14 15  1  0  0  0  0
 14 16  1  0  0  0  0
 14 17  1  0  0  0  0
 15 18  1  0  0  0  0
 16 19  1  0  0  0  0
 19 20  1  0  0  0  0
 19 21  1  0  0  0  0
 20 22  1  0  0  0  0
 21 23  1  0  0  0  0
 22 24  1  0  0  0  0
  6  8  1  0  0  0  0
 18 19  1  0  0  0  0
 23 24  1  0  0  0  0
M  END
>  <MolRegNo>
576616

>  <m>
=

>  <Value>
4400

>  <Unit>
nM

>  <Type>
IC50

>  <pValue>
5.36

>  <Ligand Efficiency>
0

>  <Binding Efficiency>
0

>  <Surface Efficiency>
0

>  <Assay Index>
443680

>  <Assay Category>


>  <Assay Organism>
Homo sapiens

>  <Target ID>
17045

>  <Target Name>
Cytochrome P450 3A4

>  <Target Organism>
Homo sapiens

>  <Target Description>
Target is a single protein chain

>  <Sequence Accession>
P08684

>  <Reference>
Bioorg Med Chem Lett 19 (19), 5657-5660 (2009)

>  <Pubmed ID>
19699641

>  <DOI>
10.1016/j.bmcl.2009.08.024

$$$$
576508
Actelion Java MolfileCreator 1.0

 31 33  0  0  0  0  0  0  0  0999 V2000
    0.0000   -0.0000   -0.0000 O   0  0  0  0  0  0  0  0  0  0  0  0
   -0.0356    1.5057   -0.0000 C   0  0  0  0  0  0  0  0  0  0  0  0
    1.2330    2.2882   -0.0000 O   0  0  0  0  0  0  0  0  0  0  0  0
   -1.3516    2.2408   -0.0000 N   0  0  0  0  0  0  0  0  0  0  0  0
    2.5254    1.5769   -0.0000 C   0  0  0  0  0  0  0  0  0  0  0  0
   -2.6439    1.4820   -0.0000 C   0  0  0  0  0  0  0  0  0  0  0  0
    3.7940    2.3594   -0.0000 C   0  0  0  0  0  0  0  0  0  0  0  0
    2.5372    0.0948   -0.0000 C   0  0  0  0  0  0  0  0  0  0  0  0
    3.8058    0.8418   -0.0000 C   0  0  0  0  0  0  0  0  0  0  0  0
   -3.9599    2.2171   -0.0000 C   0  0  0  0  0  0  0  0  0  0  0  0
   -2.6321   -0.0119   -0.0000 C   0  0  0  0  0  0  0  0  0  0  0  0
   -5.2523    1.4702   -0.0000 C   0  0  0  0  0  0  0  0  0  0  0  0
   -3.9362   -0.7706   -0.0000 C   0  0  0  0  0  0  0  0  0  0  0  0
   -5.2523   -0.0119   -0.0000 C   0  0  0  0  0  0  0  0  0  0  0  0
   -6.5683    2.2171   -0.0000 C   0  0  0  0  0  0  0  0  0  0  0  0
   -7.8725    1.4583   -0.0000 C   0  0  0  0  0  0  0  0  0  0  0  0
   -9.1885    2.2052   -0.0000 N   0  0  0  0  0  0  0  0  0  0  0  0
  -10.4927    1.4464   -0.0000 C   0  0  0  0  0  0  0  0  0  0  0  0
  -10.4808   -0.0356   -0.0000 O   0  0  0  0  0  0  0  0  0  0  0  0
  -11.8087    2.1934   -0.0000 C   0  0  0  0  0  0  0  0  0  0  0  0
  -13.1010    1.4464   -0.0000 C   0  0  0  0  0  0  0  0  0  0  0  0
  -13.5871    2.8810   -0.0000 O   0  0  0  0  0  0  0  0  0  0  0  0
  -14.3222    0.5691   -0.0000 C   0  0  0  0  0  0  0  0  0  0  0  0
  -12.3778    0.1778   -0.0000 C   0  0  0  0  0  0  0  0  0  0  0  0
  -15.0928    2.8810   -0.0000 O   0  0  0  0  0  0  0  0  0  0  0  0
  -15.5552    1.4464   -0.0000 C   0  0  0  0  0  0  0  0  0  0  0  0
  -16.8713    2.2171   -0.0000 C   0  0  0  0  0  0  0  0  0  0  0  0
  -15.5671   -0.0474   -0.0000 C   0  0  0  0  0  0  0  0  0  0  0  0
  -18.1754    1.4702   -0.0000 C   0  0  0  0  0  0  0  0  0  0  0  0
  -16.8831   -0.7825   -0.0000 C   0  0  0  0  0  0  0  0  0  0  0  0
  -18.1873   -0.0237   -0.0000 C   0  0  0  0  0  0  0  0  0  0  0  0
  1  2  2  0  0  0  0
  2  3  1  0  0  0  0
  2  4  1  0  0  0  0
  3  5  1  0  0  0  0
  4  6  1  0  0  0  0
  5  7  1  0  0  0  0
  5  8  1  0  0  0  0
  5  9  1  0  0  0  0
  6 10  2  0  0  0  0
  6 11  1  0  0  0  0
 10 12  1  0  0  0  0
 11 13  2  0  0  0  0
 12 14  2  0  0  0  0
 12 15  1  0  0  0  0
 15 16  1  0  0  0  0
 16 17  1  0  0  0  0
 17 18  1  0  0  0  0
 18 19  2  0  0  0  0
 18 20  1  0  0  0  0
 20 21  1  0  0  0  0
 21 22  1  0  0  0  0
 21 23  1  0  0  0  0
 21 24  1  0  0  0  0
 22 25  1  0  0  0  0
 23 26  1  0  0  0  0
 26 27  1  0  0  0  0
 26 28  1  0  0  0  0
 27 29  1  0  0  0  0
 28 30  1  0  0  0  0
 29 31  1  0  0  0  0
 13 14  1  0  0  0  0
 25 26  1  0  0  0  0
 30 31  1  0  0  0  0
M  END
>  <MolRegNo>
576508

>  <m>
=

>  <Value>
1000

>  <Unit>
nM

>  <Type>
IC50

>  <pValue>
6

>  <Ligand Efficiency>
0

>  <Binding Efficiency>
0

>  <Surface Efficiency>
0

>  <Assay Index>
443680

>  <Assay Category>


>  <Assay Organism>
Homo sapiens

>  <Target ID>
17045

>  <Target Name>
Cytochrome P450 3A4

>  <Target Organism>
Homo sapiens

>  <Target Description>
Target is a single protein chain

>  <Sequence Accession>
P08684

>  <Reference>
Bioorg Med Chem Lett 19 (19), 5657-5660 (2009)

>  <Pubmed ID>
19699641

>  <DOI>
10.1016/j.bmcl.2009.08.024

$$$$
576573
Actelion Java MolfileCreator 1.0

 23 25  0  0  0  0  0  0  0  0999 V2000
    0.0000   -0.0000   -0.0000 O   0  0  0  0  0  0  0  0  0  0  0  0
   -0.0356    1.5077   -0.0000 C   0  0  0  0  0  0  0  0  0  0  0  0
    1.2465    2.2913   -0.0000 N   0  0  0  0  0  0  0  0  0  0  0  0
   -1.3534    2.2556   -0.0000 C   0  0  0  0  0  0  0  0  0  0  0  0
    2.5406    1.5671   -0.0000 C   0  0  0  0  0  0  0  0  0  0  0  0
   -2.6474    1.5077   -0.0000 C   0  0  0  0  0  0  0  0  0  0  0  0
    3.8227    2.3506   -0.0000 C   0  0  0  0  0  0  0  0  0  0  0  0
   -3.1342    2.9442   -0.0000 O   0  0  0  0  0  0  0  0  0  0  0  0
   -3.8702    0.6292   -0.0000 C   0  0  0  0  0  0  0  0  0  0  0  0
   -1.9232    0.2374   -0.0000 C   0  0  0  0  0  0  0  0  0  0  0  0
    5.1168    1.6264   -0.0000 C   0  0  0  0  0  0  0  0  0  0  0  0
    3.7871    3.8465   -0.0000 C   0  0  0  0  0  0  0  0  0  0  0  0
   -4.6419    2.9442   -0.0000 O   0  0  0  0  0  0  0  0  0  0  0  0
   -5.1049    1.5077   -0.0000 C   0  0  0  0  0  0  0  0  0  0  0  0
    5.1168    0.1425   -0.0000 N   0  0  0  0  0  0  0  0  0  0  0  0
    6.3870    2.3981   -0.0000 C   0  0  0  0  0  0  0  0  0  0  0  0
    5.0574    4.6300   -0.0000 C   0  0  0  0  0  0  0  0  0  0  0  0
   -6.4227    2.2794   -0.0000 C   0  0  0  0  0  0  0  0  0  0  0  0
   -5.1168    0.0119   -0.0000 C   0  0  0  0  0  0  0  0  0  0  0  0
    6.3514    3.9058   -0.0000 C   0  0  0  0  0  0  0  0  0  0  0  0
   -7.7286    1.5315   -0.0000 C   0  0  0  0  0  0  0  0  0  0  0  0
   -6.4345   -0.7242   -0.0000 C   0  0  0  0  0  0  0  0  0  0  0  0
   -7.7404    0.0356   -0.0000 C   0  0  0  0  0  0  0  0  0  0  0  0
  1  2  2  0  0  0  0
  2  3  1  0  0  0  0
  2  4  1  0  0  0  0
  3  5  1  0  0  0  0
  4  6  1  0  0  0  0
  5  7  1  0  0  0  0
  6  8  1  0  0  0  0
  6  9  1  0  0  0  0
  6 10  1  0  0  0  0
  7 11  2  0  0  0  0
  7 12  1  0  0  0  0
  8 13  1  0  0  0  0
  9 14  1  0  0  0  0
 11 15  1  0  0  0  0
 11 16  1  0  0  0  0
 12 17  2  0  0  0  0
 14 18  1  0  0  0  0
 14 19  1  0  0  0  0
 16 20  2  0  0  0  0
 18 21  1  0  0  0  0
 19 22  1  0  0  0  0
 21 23  1  0  0  0  0
 13 14  1  0  0  0  0
 17 20  1  0  0  0  0
 22 23  1  0  0  0  0
M  END
>  <MolRegNo>
576573

>  <m>
=

>  <Value>
1900

>  <Unit>
nM

>  <Type>
IC50

>  <pValue>
5.72

>  <Ligand Efficiency>
0

>  <Binding Efficiency>
0

>  <Surface Efficiency>
0

>  <Assay Index>
443680

>  <Assay Category>


>  <Assay Organism>
Homo sapiens

>  <Target ID>
17045

>  <Target Name>
Cytochrome P450 3A4

>  <Target Organism>
Homo sapiens

>  <Target Description>
Target is a single protein chain

>  <Sequence Accession>
P08684

>  <Reference>
Bioorg Med Chem Lett 19 (19), 5657-5660 (2009)

>  <Pubmed ID>
19699641

>  <DOI>
10.1016/j.bmcl.2009.08.024

$$$$
576574
Actelion Java MolfileCreator 1.0

 25 27  0  0  0  0  0  0  0  0999 V2000
    0.0000   -0.0000   -0.0000 O   0  0  0  0  0  0  0  0  0  0  0  0
   -0.0356    1.5066   -0.0000 C   0  0  0  0  0  0  0  0  0  0  0  0
    1.2456    2.2896   -0.0000 N   0  0  0  0  0  0  0  0  0  0  0  0
   -1.3524    2.2540   -0.0000 C   0  0  0  0  0  0  0  0  0  0  0  0
    2.5387    1.5659   -0.0000 C   0  0  0  0  0  0  0  0  0  0  0  0
   -2.6454    1.5066   -0.0000 C   0  0  0  0  0  0  0  0  0  0  0  0
    3.8199    2.3489   -0.0000 C   0  0  0  0  0  0  0  0  0  0  0  0
   -3.1318    2.9420   -0.0000 O   0  0  0  0  0  0  0  0  0  0  0  0
   -3.8673    0.6287   -0.0000 C   0  0  0  0  0  0  0  0  0  0  0  0
   -1.9218    0.2373   -0.0000 C   0  0  0  0  0  0  0  0  0  0  0  0
    5.1129    1.6252   -0.0000 C   0  0  0  0  0  0  0  0  0  0  0  0
    3.7843    3.8436   -0.0000 C   0  0  0  0  0  0  0  0  0  0  0  0
   -4.6384    2.9420   -0.0000 O   0  0  0  0  0  0  0  0  0  0  0  0
   -5.1011    1.5066   -0.0000 C   0  0  0  0  0  0  0  0  0  0  0  0
    6.3941    2.3963   -0.0000 C   0  0  0  0  0  0  0  0  0  0  0  0
    5.0536    4.6266   -0.0000 C   0  0  0  0  0  0  0  0  0  0  0  0
   -6.4179    2.2777   -0.0000 C   0  0  0  0  0  0  0  0  0  0  0  0
   -5.1129    0.0119   -0.0000 C   0  0  0  0  0  0  0  0  0  0  0  0
    6.3586    3.9029   -0.0000 C   0  0  0  0  0  0  0  0  0  0  0  0
   -7.7228    1.5303   -0.0000 C   0  0  0  0  0  0  0  0  0  0  0  0
   -6.4297   -0.7236   -0.0000 C   0  0  0  0  0  0  0  0  0  0  0  0
    7.6398    4.6859   -0.0000 N   0  0  0  0  0  0  0  0  0  0  0  0
   -7.7347    0.0356   -0.0000 C   0  0  0  0  0  0  0  0  0  0  0  0
    8.9328    3.9622   -0.0000 C   0  0  0  0  0  0  0  0  0  0  0  0
    7.6042    6.1925   -0.0000 C   0  0  0  0  0  0  0  0  0  0  0  0
  1  2  2  0  0  0  0
  2  3  1  0  0  0  0
  2  4  1  0  0  0  0
  3  5  1  0  0  0  0
  4  6  1  0  0  0  0
  5  7  1  0  0  0  0
  6  8  1  0  0  0  0
  6  9  1  0  0  0  0
  6 10  1  0  0  0  0
  7 11  2  0  0  0  0
  7 12  1  0  0  0  0
  8 13  1  0  0  0  0
  9 14  1  0  0  0  0
 11 15  1  0  0  0  0
 12 16  2  0  0  0  0
 14 17  1  0  0  0  0
 14 18  1  0  0  0  0
 15 19  2  0  0  0  0
 17 20  1  0  0  0  0
 18 21  1  0  0  0  0
 19 22  1  0  0  0  0
 20 23  1  0  0  0  0
 22 24  1  0  0  0  0
 22 25  1  0  0  0  0
 13 14  1  0  0  0  0
 16 19  1  0  0  0  0
 21 23  1  0  0  0  0
M  END
>  <MolRegNo>
576574

>  <m>
=

>  <Value>
4800

>  <Unit>
nM

>  <Type>
IC50

>  <pValue>
5.32

>  <Ligand Efficiency>
0

>  <Binding Efficiency>
0

>  <Surface Efficiency>
0

>  <Assay Index>
443680

>  <Assay Category>


>  <Assay Organism>
Homo sapiens

>  <Target ID>
17045

>  <Target Name>
Cytochrome P450 3A4

>  <Target Organism>
Homo sapiens

>  <Target Description>
Target is a single protein chain

>  <Sequence Accession>
P08684

>  <Reference>
Bioorg Med Chem Lett 19 (19), 5657-5660 (2009)

>  <Pubmed ID>
19699641

>  <DOI>
10.1016/j.bmcl.2009.08.024

$$$$
576641
Actelion Java MolfileCreator 1.0

 28 31  0  0  0  0  0  0  0  0999 V2000
    0.0000   -0.0000   -0.0000 O   0  0  0  0  0  0  0  0  0  0  0  0
   -0.0356    1.5083   -0.0000 C   0  0  0  0  0  0  0  0  0  0  0  0
    1.2470    2.2921   -0.0000 N   0  0  0  0  0  0  0  0  0  0  0  0
   -1.3539    2.2565   -0.0000 C   0  0  0  0  0  0  0  0  0  0  0  0
    2.5416    1.5677   -0.0000 C   0  0  0  0  0  0  0  0  0  0  0  0
   -2.6484    1.5083   -0.0000 C   0  0  0  0  0  0  0  0  0  0  0  0
    3.8242    2.3515   -0.0000 C   0  0  0  0  0  0  0  0  0  0  0  0
   -3.1354    2.9454   -0.0000 O   0  0  0  0  0  0  0  0  0  0  0  0
   -3.8717    0.6295   -0.0000 C   0  0  0  0  0  0  0  0  0  0  0  0
   -1.9240    0.2375   -0.0000 C   0  0  0  0  0  0  0  0  0  0  0  0
    5.1187    1.6271   -0.0000 C   0  0  0  0  0  0  0  0  0  0  0  0
    3.7886    3.8480   -0.0000 C   0  0  0  0  0  0  0  0  0  0  0  0
   -4.6437    2.9454   -0.0000 O   0  0  0  0  0  0  0  0  0  0  0  0
   -5.1069    1.5083   -0.0000 C   0  0  0  0  0  0  0  0  0  0  0  0
    5.1187    0.1425   -0.0000 N   0  0  0  0  0  0  0  0  0  0  0  0
    6.4014    2.3990   -0.0000 C   0  0  0  0  0  0  0  0  0  0  0  0
    5.0594    4.6318   -0.0000 C   0  0  0  0  0  0  0  0  0  0  0  0
   -6.4251    2.2803   -0.0000 C   0  0  0  0  0  0  0  0  0  0  0  0
   -5.1187    0.0119   -0.0000 C   0  0  0  0  0  0  0  0  0  0  0  0
    3.8123   -0.6057   -0.0000 C   0  0  0  0  0  0  0  0  0  0  0  0
    6.4133   -0.5701   -0.0000 C   0  0  0  0  0  0  0  0  0  0  0  0
    6.3658    3.9073   -0.0000 C   0  0  0  0  0  0  0  0  0  0  0  0
   -7.7316    1.5321   -0.0000 C   0  0  0  0  0  0  0  0  0  0  0  0
   -6.4370   -0.7245   -0.0000 C   0  0  0  0  0  0  0  0  0  0  0  0
    3.8123   -2.0903   -0.0000 C   0  0  0  0  0  0  0  0  0  0  0  0
    6.4133   -2.0665   -0.0000 C   0  0  0  0  0  0  0  0  0  0  0  0
   -7.7434    0.0356   -0.0000 C   0  0  0  0  0  0  0  0  0  0  0  0
    5.1069   -2.8266   -0.0000 C   0  0  0  0  0  0  0  0  0  0  0  0
  1  2  2  0  0  0  0
  2  3  1  0  0  0  0
  2  4  1  0  0  0  0
  3  5  1  0  0  0  0
  4  6  1  0  0  0  0
  5  7  1  0  0  0  0
  6  8  1  0  0  0  0
  6  9  1  0  0  0  0
  6 10  1  0  0  0  0
  7 11  2  0  0  0  0
  7 12  1  0  0  0  0
  8 13  1  0  0  0  0
  9 14  1  0  0  0  0
 11 15  1  0  0  0  0
 11 16  1  0  0  0  0
 12 17  2  0  0  0  0
 14 18  1  0  0  0  0
 14 19  1  0  0  0  0
 15 20  1  0  0  0  0
 15 21  1  0  0  0  0
 16 22  2  0  0  0  0
 18 23  1  0  0  0  0
 19 24  1  0  0  0  0
 20 25  1  0  0  0  0
 21 26  1  0  0  0  0
 23 27  1  0  0  0  0
 25 28  1  0  0  0  0
 13 14  1  0  0  0  0
 17 22  1  0  0  0  0
 24 27  1  0  0  0  0
 26 28  1  0  0  0  0
M  END
>  <MolRegNo>
576641

>  <m>
=

>  <Value>
1600

>  <Unit>
nM

>  <Type>
IC50

>  <pValue>
5.8

>  <Ligand Efficiency>
0

>  <Binding Efficiency>
0

>  <Surface Efficiency>
0

>  <Assay Index>
443680

>  <Assay Category>


>  <Assay Organism>
Homo sapiens

>  <Target ID>
17045

>  <Target Name>
Cytochrome P450 3A4

>  <Target Organism>
Homo sapiens

>  <Target Description>
Target is a single protein chain

>  <Sequence Accession>
P08684

>  <Reference>
Bioorg Med Chem Lett 19 (19), 5657-5660 (2009)

>  <Pubmed ID>
19699641

>  <DOI>
10.1016/j.bmcl.2009.08.024

$$$$
576546
Actelion Java MolfileCreator 1.0

 31 34  0  0  0  0  0  0  0  0999 V2000
    0.0000   -0.0000   -0.0000 S   0  0  0  0  0  0  0  0  0  0  0  0
    1.2922   -0.7232   -0.0000 C   0  0  0  0  0  0  0  0  0  0  0  0
   -0.0237    1.5056   -0.0000 C   0  0  0  0  0  0  0  0  0  0  0  0
    1.2804   -2.2051   -0.0000 C   0  0  0  0  0  0  0  0  0  0  0  0
    2.5607    0.0593   -0.0000 C   0  0  0  0  0  0  0  0  0  0  0  0
   -1.3396    2.2525   -0.0000 C   0  0  0  0  0  0  0  0  0  0  0  0
    1.2567    2.2762   -0.0000 C   0  0  0  0  0  0  0  0  0  0  0  0
    2.5726   -2.9282   -0.0000 C   0  0  0  0  0  0  0  0  0  0  0  0
   -0.0237   -2.9519   -0.0000 C   0  0  0  0  0  0  0  0  0  0  0  0
    3.8529   -0.6639   -0.0000 C   0  0  0  0  0  0  0  0  0  0  0  0
   -1.3752    3.7462   -0.0000 C   0  0  0  0  0  0  0  0  0  0  0  0
   -2.6437    1.4938   -0.0000 C   0  0  0  0  0  0  0  0  0  0  0  0
    1.2211    3.7818   -0.0000 C   0  0  0  0  0  0  0  0  0  0  0  0
    3.8529   -2.1576   -0.0000 C   0  0  0  0  0  0  0  0  0  0  0  0
   -1.3396   -2.2051   -0.0000 O   0  0  0  0  0  0  0  0  0  0  0  0
   -0.1067    4.5287   -0.0000 C   0  0  0  0  0  0  0  0  0  0  0  0
   -3.9596    2.2406   -0.0000 N   0  0  0  0  0  0  0  0  0  0  0  0
   -5.2637    1.4819   -0.0000 C   0  0  0  0  0  0  0  0  0  0  0  0
   -5.2519   -0.0000   -0.0000 O   0  0  0  0  0  0  0  0  0  0  0  0
   -6.5796    2.2288   -0.0000 C   0  0  0  0  0  0  0  0  0  0  0  0
   -7.8719    1.4819   -0.0000 C   0  0  0  0  0  0  0  0  0  0  0  0
   -8.3579    2.9164   -0.0000 O   0  0  0  0  0  0  0  0  0  0  0  0
   -9.0929    0.6046   -0.0000 C   0  0  0  0  0  0  0  0  0  0  0  0
   -7.1487    0.2134   -0.0000 C   0  0  0  0  0  0  0  0  0  0  0  0
   -9.8635    2.9164   -0.0000 O   0  0  0  0  0  0  0  0  0  0  0  0
  -10.3259    1.4819   -0.0000 C   0  0  0  0  0  0  0  0  0  0  0  0
  -11.6418    2.2525   -0.0000 C   0  0  0  0  0  0  0  0  0  0  0  0
  -10.3377   -0.0119   -0.0000 C   0  0  0  0  0  0  0  0  0  0  0  0
  -12.9459    1.5056   -0.0000 C   0  0  0  0  0  0  0  0  0  0  0  0
  -11.6537   -0.7469   -0.0000 C   0  0  0  0  0  0  0  0  0  0  0  0
  -12.9577    0.0119   -0.0000 C   0  0  0  0  0  0  0  0  0  0  0  0
  1  2  1  0  0  0  0
  1  3  1  0  0  0  0
  2  4  2  0  0  0  0
  2  5  1  0  0  0  0
  3  6  2  0  0  0  0
  3  7  1  0  0  0  0
  4  8  1  0  0  0  0
  4  9  1  0  0  0  0
  5 10  2  0  0  0  0
  6 11  1  0  0  0  0
  6 12  1  0  0  0  0
  7 13  2  0  0  0  0
  8 14  2  0  0  0  0
  9 15  1  0  0  0  0
 11 16  2  0  0  0  0
 12 17  1  0  0  0  0
 17 18  1  0  0  0  0
 18 19  2  0  0  0  0
 18 20  1  0  0  0  0
 20 21  1  0  0  0  0
 21 22  1  0  0  0  0
 21 23  1  0  0  0  0
 21 24  1  0  0  0  0
 22 25  1  0  0  0  0
 23 26  1  0  0  0  0
 26 27  1  0  0  0  0
 26 28  1  0  0  0  0
 27 29  1  0  0  0  0
 28 30  1  0  0  0  0
 29 31  1  0  0  0  0
 10 14  1  0  0  0  0
 13 16  1  0  0  0  0
 25 26  1  0  0  0  0
 30 31  1  0  0  0  0
M  END
>  <MolRegNo>
576546

>  <m>
=

>  <Value>
1200

>  <Unit>
nM

>  <Type>
IC50

>  <pValue>
5.92

>  <Ligand Efficiency>
0

>  <Binding Efficiency>
0

>  <Surface Efficiency>
0

>  <Assay Index>
443680

>  <Assay Category>


>  <Assay Organism>
Homo sapiens

>  <Target ID>
17045

>  <Target Name>
Cytochrome P450 3A4

>  <Target Organism>
Homo sapiens

>  <Target Description>
Target is a single protein chain

>  <Sequence Accession>
P08684

>  <Reference>
Bioorg Med Chem Lett 19 (19), 5657-5660 (2009)

>  <Pubmed ID>
19699641

>  <DOI>
10.1016/j.bmcl.2009.08.024

$$$$
576547
Actelion Java MolfileCreator 1.0

 25 28  0  0  0  0  0  0  0  0999 V2000
    0.0000   -0.0000   -0.0000 O   0  0  0  0  0  0  0  0  0  0  0  0
   -0.0356    1.5060   -0.0000 C   0  0  0  0  0  0  0  0  0  0  0  0
    1.2451    2.2886   -0.0000 N   0  0  0  0  0  0  0  0  0  0  0  0
   -1.3518    2.2530   -0.0000 C   0  0  0  0  0  0  0  0  0  0  0  0
    2.5376    1.5653   -0.0000 C   0  0  0  0  0  0  0  0  0  0  0  0
   -2.6444    1.5060   -0.0000 C   0  0  0  0  0  0  0  0  0  0  0  0
    3.8183    2.3479   -0.0000 C   0  0  0  0  0  0  0  0  0  0  0  0
   -3.1305    2.9408   -0.0000 O   0  0  0  0  0  0  0  0  0  0  0  0
   -3.8657    0.6285   -0.0000 C   0  0  0  0  0  0  0  0  0  0  0  0
   -1.9210    0.2372   -0.0000 C   0  0  0  0  0  0  0  0  0  0  0  0
    5.1346    1.6601   -0.0000 C   0  0  0  0  0  0  0  0  0  0  0  0
    3.7472    3.8539   -0.0000 C   0  0  0  0  0  0  0  0  0  0  0  0
   -4.6365    2.9408   -0.0000 O   0  0  0  0  0  0  0  0  0  0  0  0
   -5.0990    1.5060   -0.0000 C   0  0  0  0  0  0  0  0  0  0  0  0
    6.3915    2.4783   -0.0000 C   0  0  0  0  0  0  0  0  0  0  0  0
    5.0041    4.6721   -0.0000 C   0  0  0  0  0  0  0  0  0  0  0  0
   -6.4152    2.2768   -0.0000 C   0  0  0  0  0  0  0  0  0  0  0  0
   -5.1108    0.0119   -0.0000 C   0  0  0  0  0  0  0  0  0  0  0  0
    7.8263    2.0870   -0.0000 O   0  0  0  0  0  0  0  0  0  0  0  0
    6.3204    3.9843   -0.0000 C   0  0  0  0  0  0  0  0  0  0  0  0
   -7.7196    1.5297   -0.0000 C   0  0  0  0  0  0  0  0  0  0  0  0
   -6.4271   -0.7233   -0.0000 C   0  0  0  0  0  0  0  0  0  0  0  0
    8.6445    3.3440   -0.0000 C   0  0  0  0  0  0  0  0  0  0  0  0
    7.7196    4.5179   -0.0000 C   0  0  0  0  0  0  0  0  0  0  0  0
   -7.7315    0.0356   -0.0000 C   0  0  0  0  0  0  0  0  0  0  0  0
  1  2  2  0  0  0  0
  2  3  1  0  0  0  0
  2  4  1  0  0  0  0
  3  5  1  0  0  0  0
  4  6  1  0  0  0  0
  5  7  1  0  0  0  0
  6  8  1  0  0  0  0
  6  9  1  0  0  0  0
  6 10  1  0  0  0  0
  7 11  2  0  0  0  0
  7 12  1  0  0  0  0
  8 13  1  0  0  0  0
  9 14  1  0  0  0  0
 11 15  1  0  0  0  0
 12 16  2  0  0  0  0
 14 17  1  0  0  0  0
 14 18  1  0  0  0  0
 15 19  1  0  0  0  0
 15 20  2  0  0  0  0
 17 21  1  0  0  0  0
 18 22  1  0  0  0  0
 19 23  1  0  0  0  0
 20 24  1  0  0  0  0
 21 25  1  0  0  0  0
 13 14  1  0  0  0  0
 16 20  1  0  0  0  0
 22 25  1  0  0  0  0
 23 24  1  0  0  0  0
M  END
>  <MolRegNo>
576547

>  <m>
=

>  <Value>
2600

>  <Unit>
nM

>  <Type>
IC50

>  <pValue>
5.58

>  <Ligand Efficiency>
0

>  <Binding Efficiency>
0

>  <Surface Efficiency>
0

>  <Assay Index>
443680

>  <Assay Category>


>  <Assay Organism>
Homo sapiens

>  <Target ID>
17045

>  <Target Name>
Cytochrome P450 3A4

>  <Target Organism>
Homo sapiens

>  <Target Description>
Target is a single protein chain

>  <Sequence Accession>
P08684

>  <Reference>
Bioorg Med Chem Lett 19 (19), 5657-5660 (2009)

>  <Pubmed ID>
19699641

>  <DOI>
10.1016/j.bmcl.2009.08.024

$$$$
576785
Actelion Java MolfileCreator 1.0

 28 31  0  0  0  0  0  0  0  0999 V2000
    0.0000   -0.0000   -0.0000 O   0  0  0  0  0  0  0  0  0  0  0  0
    0.7469    1.3041   -0.0000 C   0  0  0  0  0  0  0  0  0  0  0  0
    0.0000    2.6200   -0.0000 N   0  0  0  0  0  0  0  0  0  0  0  0
    2.2288    1.3041   -0.0000 C   0  0  0  0  0  0  0  0  0  0  0  0
    0.7469    3.9241   -0.0000 C   0  0  0  0  0  0  0  0  0  0  0  0
   -1.5056    2.6437   -0.0000 C   0  0  0  0  0  0  0  0  0  0  0  0
    2.9520    0.0237   -0.0000 C   0  0  0  0  0  0  0  0  0  0  0  0
    2.9638    2.6082   -0.0000 C   0  0  0  0  0  0  0  0  0  0  0  0
    0.0000    5.2400   -0.0000 C   0  0  0  0  0  0  0  0  0  0  0  0
   -2.2525    3.9478   -0.0000 C   0  0  0  0  0  0  0  0  0  0  0  0
    4.4339    0.0237   -0.0000 C   0  0  0  0  0  0  0  0  0  0  0  0
    4.4457    2.6082   -0.0000 C   0  0  0  0  0  0  0  0  0  0  0  0
   -1.5056    5.2519   -0.0000 N   0  0  0  0  0  0  0  0  0  0  0  0
    0.7469    6.5441   -0.0000 C   0  0  0  0  0  0  0  0  0  0  0  0
    5.1807    1.3278   -0.0000 C   0  0  0  0  0  0  0  0  0  0  0  0
   -2.2525    6.5678   -0.0000 C   0  0  0  0  0  0  0  0  0  0  0  0
   -1.5056    7.8719   -0.0000 O   0  0  0  0  0  0  0  0  0  0  0  0
   -3.7581    6.5915   -0.0000 C   0  0  0  0  0  0  0  0  0  0  0  0
   -4.5050    7.9075   -0.0000 O   0  0  0  0  0  0  0  0  0  0  0  0
   -4.5287    5.3112   -0.0000 C   0  0  0  0  0  0  0  0  0  0  0  0
   -5.9751    4.8607   -0.0000 C   0  0  0  0  0  0  0  0  0  0  0  0
   -3.6514    4.1019   -0.0000 C   0  0  0  0  0  0  0  0  0  0  0  0
   -5.9869    3.3669   -0.0000 C   0  0  0  0  0  0  0  0  0  0  0  0
   -7.2791    5.6194   -0.0000 C   0  0  0  0  0  0  0  0  0  0  0  0
   -4.5524    2.8927   -0.0000 N   0  0  0  0  0  0  0  0  0  0  0  0
   -7.2910    2.6319   -0.0000 C   0  0  0  0  0  0  0  0  0  0  0  0
   -8.5832    4.8844   -0.0000 N   0  0  0  0  0  0  0  0  0  0  0  0
   -8.5951    3.3906   -0.0000 C   0  0  0  0  0  0  0  0  0  0  0  0
  1  2  2  0  0  0  0
  2  3  1  0  0  0  0
  2  4  1  0  0  0  0
  3  5  1  0  0  0  0
  3  6  1  0  0  0  0
  4  7  2  0  0  0  0
  4  8  1  0  0  0  0
  5  9  1  0  0  0  0
  6 10  1  0  0  0  0
  7 11  1  0  0  0  0
  8 12  2  0  0  0  0
  9 13  1  0  0  0  0
  9 14  1  1  0  0  0
 11 15  2  0  0  0  0
 13 16  1  0  0  0  0
 16 17  2  0  0  0  0
 16 18  1  0  0  0  0
 18 19  2  0  0  0  0
 18 20  1  0  0  0  0
 20 21  1  0  0  0  0
 20 22  2  0  0  0  0
 21 23  2  0  0  0  0
 21 24  1  0  0  0  0
 22 25  1  0  0  0  0
 23 26  1  0  0  0  0
 24 27  2  0  0  0  0
 26 28  2  0  0  0  0
 10 13  1  0  0  0  0
 12 15  1  0  0  0  0
 23 25  1  0  0  0  0
 27 28  1  0  0  0  0
M  END
>  <MolRegNo>
576785

>  <m>
=

>  <Value>
18000

>  <Unit>
nM

>  <Type>
IC50

>  <pValue>
4.75

>  <Ligand Efficiency>
0

>  <Binding Efficiency>
0

>  <Surface Efficiency>
0

>  <Assay Index>
443135

>  <Assay Category>


>  <Assay Organism>


>  <Target ID>
17045

>  <Target Name>
Cytochrome P450 3A4

>  <Target Organism>
Homo sapiens

>  <Target Description>
Target is a single protein chain

>  <Sequence Accession>
P08684

>  <Reference>
J Med Chem 52 (23), 7778-7787 (2009)

>  <Pubmed ID>
19769332

>  <DOI>
10.1021/jm900843g

$$$$
452343
Actelion Java MolfileCreator 1.0

 29 32  0  0  0  0  0  0  0  0999 V2000
    0.0000   -0.0000   -0.0000 Cl  0  0  0  0  0  0  0  0  0  0  0  0
   -1.3118    0.7327   -0.0000 C   0  0  0  0  0  0  0  0  0  0  0  0
   -1.3472    2.2335   -0.0000 C   0  0  0  0  0  0  0  0  0  0  0  0
   -2.6117   -0.0236   -0.0000 C   0  0  0  0  0  0  0  0  0  0  0  0
   -2.6590    2.9662   -0.0000 C   0  0  0  0  0  0  0  0  0  0  0  0
   -3.9235    0.7209   -0.0000 C   0  0  0  0  0  0  0  0  0  0  0  0
   -2.6944    4.4671   -0.0000 N   0  0  0  0  0  0  0  0  0  0  0  0
   -3.9589    2.2217   -0.0000 C   0  0  0  0  0  0  0  0  0  0  0  0
   -4.0180    5.2116   -0.0000 C   0  0  0  0  0  0  0  0  0  0  0  0
   -5.2589    2.9662   -0.0000 C   0  0  0  0  0  0  0  0  0  0  0  0
   -5.3062    4.4553   -0.0000 C   0  0  0  0  0  0  0  0  0  0  0  0
   -6.5588    2.2099   -0.0000 N   0  0  0  0  0  0  0  0  0  0  0  0
   -7.8706    2.9544   -0.0000 C   0  0  0  0  0  0  0  0  0  0  0  0
   -9.1706    2.1981   -0.0000 C   0  0  0  0  0  0  0  0  0  0  0  0
  -10.4823    2.9426   -0.0000 N   0  0  0  0  0  0  0  0  0  0  0  0
  -11.7823    2.1863   -0.0000 C   0  0  0  0  0  0  0  0  0  0  0  0
  -11.7705    0.7091   -0.0000 O   0  0  0  0  0  0  0  0  0  0  0  0
  -13.0940    2.9308   -0.0000 C   0  0  0  0  0  0  0  0  0  0  0  0
  -14.3822    2.1863   -0.0000 C   0  0  0  0  0  0  0  0  0  0  0  0
  -14.8667    3.6162   -0.0000 O   0  0  0  0  0  0  0  0  0  0  0  0
  -15.5994    1.3118   -0.0000 C   0  0  0  0  0  0  0  0  0  0  0  0
  -13.6613    0.9218   -0.0000 C   0  0  0  0  0  0  0  0  0  0  0  0
  -16.3675    3.6162   -0.0000 O   0  0  0  0  0  0  0  0  0  0  0  0
  -16.8284    2.1863   -0.0000 C   0  0  0  0  0  0  0  0  0  0  0  0
  -18.1402    2.9544   -0.0000 C   0  0  0  0  0  0  0  0  0  0  0  0
  -16.8403    0.6972   -0.0000 C   0  0  0  0  0  0  0  0  0  0  0  0
  -19.4402    2.2099   -0.0000 C   0  0  0  0  0  0  0  0  0  0  0  0
  -18.1520   -0.0355   -0.0000 C   0  0  0  0  0  0  0  0  0  0  0  0
  -19.4520    0.7209   -0.0000 C   0  0  0  0  0  0  0  0  0  0  0  0
  1  2  1  0  0  0  0
  2  3  2  0  0  0  0
  2  4  1  0  0  0  0
  3  5  1  0  0  0  0
  4  6  2  0  0  0  0
  5  7  2  0  0  0  0
  5  8  1  0  0  0  0
  7  9  1  0  0  0  0
  8 10  2  0  0  0  0
  9 11  2  0  0  0  0
 10 12  1  0  0  0  0
 12 13  1  0  0  0  0
 13 14  1  0  0  0  0
 14 15  1  0  0  0  0
 15 16  1  0  0  0  0
 16 17  2  0  0  0  0
 16 18  1  0  0  0  0
 18 19  1  0  0  0  0
 19 20  1  0  0  0  0
 19 21  1  0  0  0  0
 19 22  1  0  0  0  0
 20 23  1  0  0  0  0
 21 24  1  0  0  0  0
 24 25  1  0  0  0  0
 24 26  1  0  0  0  0
 25 27  1  0  0  0  0
 26 28  1  0  0  0  0
 27 29  1  0  0  0  0
  6  8  1  0  0  0  0
 10 11  1  0  0  0  0
 23 24  1  0  0  0  0
 28 29  1  0  0  0  0
M  END
>  <MolRegNo>
452343

>  <m>
=

>  <Value>
1000

>  <Unit>
nM

>  <Type>
IC50

>  <pValue>
6

>  <Ligand Efficiency>
0

>  <Binding Efficiency>
0

>  <Surface Efficiency>
0

>  <Assay Index>
443680

>  <Assay Category>


>  <Assay Organism>
Homo sapiens

>  <Target ID>
17045

>  <Target Name>
Cytochrome P450 3A4

>  <Target Organism>
Homo sapiens

>  <Target Description>
Target is a single protein chain

>  <Sequence Accession>
P08684

>  <Reference>
Bioorg Med Chem Lett 19 (19), 5657-5660 (2009)

>  <Pubmed ID>
19699641

>  <DOI>
10.1016/j.bmcl.2009.08.024

$$$$
593051
Actelion Java MolfileCreator 1.0

 36 41  0  0  0  0  0  0  0  0999 V2000
    0.0000   -0.0000   -0.0000 O   0  0  0  0  0  0  0  0  0  0  0  0
   -0.4045   -1.4397   -0.0000 C   0  0  0  0  0  0  0  0  0  0  0  0
    1.4873    0.0833   -0.0000 C   0  0  0  0  0  0  0  0  0  0  0  0
    0.8329   -2.2488   -0.0000 C   0  0  0  0  0  0  0  0  0  0  0  0
   -1.8205   -1.9632   -0.0000 C   0  0  0  0  0  0  0  0  0  0  0  0
    2.0108   -1.3088   -0.0000 C   0  0  0  0  0  0  0  0  0  0  0  0
    0.8924   -3.7361   -0.0000 C   0  0  0  0  0  0  0  0  0  0  0  0
   -0.3926   -4.5452   -0.0000 N   0  0  0  0  0  0  0  0  0  0  0  0
    2.2131   -4.4143   -0.0000 C   0  0  0  0  0  0  0  0  0  0  0  0
   -0.3332   -6.0325   -0.0000 C   0  0  0  0  0  0  0  0  0  0  0  0
    3.4624   -3.5933   -0.0000 C   0  0  0  0  0  0  0  0  0  0  0  0
    2.2726   -5.9016   -0.0000 C   0  0  0  0  0  0  0  0  0  0  0  0
    0.9876   -6.6988   -0.0000 C   0  0  0  0  0  0  0  0  0  0  0  0
    4.7832   -4.2715   -0.0000 N   0  0  0  0  0  0  0  0  0  0  0  0
    3.3673   -2.0822   -0.0000 C   0  0  0  0  0  0  0  0  0  0  0  0
    1.0471   -8.1861   -0.0000 O   0  0  0  0  0  0  0  0  0  0  0  0
    6.0325   -3.4505   -0.0000 C   0  0  0  0  0  0  0  0  0  0  0  0
    4.6166   -1.2612   -0.0000 N   0  0  0  0  0  0  0  0  0  0  0  0
   -0.2261   -8.9833   -0.0000 C   0  0  0  0  0  0  0  0  0  0  0  0
    5.9492   -1.9394   -0.0000 C   0  0  0  0  0  0  0  0  0  0  0  0
    7.4603   -3.8313   -0.0000 C   0  0  0  0  0  0  0  0  0  0  0  0
   -1.5706   -8.2813   -0.0000 C   0  0  0  0  0  0  0  0  0  0  0  0
    7.3413   -1.4040   -0.0000 N   0  0  0  0  0  0  0  0  0  0  0  0
    8.2694   -2.5701   -0.0000 N   0  0  0  0  0  0  0  0  0  0  0  0
    7.9838   -5.2234   -0.0000 C   0  0  0  0  0  0  0  0  0  0  0  0
   -1.6539   -6.7702   -0.0000 N   0  0  0  0  0  0  0  0  0  0  0  0
   -2.8437   -9.0785   -0.0000 C   0  0  0  0  0  0  0  0  0  0  0  0
   -4.1882   -8.3765   -0.0000 C   0  0  0  0  0  0  0  0  0  0  0  0
   -5.3067   -9.3879   -0.0000 C   0  0  0  0  0  0  0  0  0  0  0  0
   -4.8308   -6.9963   -0.0000 C   0  0  0  0  0  0  0  0  0  0  0  0
   -6.6274   -8.6264   -0.0000 C   0  0  0  0  0  0  0  0  0  0  0  0
   -5.3186  -10.8871   -0.0000 C   0  0  0  0  0  0  0  0  0  0  0  0
   -6.3300   -7.1510   -0.0000 N   0  0  0  0  0  0  0  0  0  0  0  0
   -7.9363   -9.3641   -0.0000 C   0  0  0  0  0  0  0  0  0  0  0  0
   -6.6393  -11.6248   -0.0000 C   0  0  0  0  0  0  0  0  0  0  0  0
   -7.9481  -10.8633   -0.0000 C   0  0  0  0  0  0  0  0  0  0  0  0
  1  2  1  0  0  0  0
  1  3  1  0  0  0  0
  2  4  2  0  0  0  0
  2  5  1  0  0  0  0
  3  6  2  0  0  0  0
  4  7  1  0  0  0  0
  7  8  2  0  0  0  0
  7  9  1  0  0  0  0
  8 10  1  0  0  0  0
  9 11  1  0  0  0  0
  9 12  2  0  0  0  0
 10 13  2  0  0  0  0
 11 14  2  0  0  0  0
 11 15  1  0  0  0  0
 13 16  1  0  0  0  0
 14 17  1  0  0  0  0
 15 18  2  0  0  0  0
 16 19  1  0  0  0  0
 17 20  2  0  0  0  0
 17 21  1  0  0  0  0
 19 22  1  0  0  0  0
 20 23  1  0  0  0  0
 21 24  2  0  0  0  0
 21 25  1  0  0  0  0
 22 26  1  6  0  0  0
 22 27  1  0  0  0  0
 27 28  1  0  0  0  0
 28 29  1  0  0  0  0
 28 30  2  0  0  0  0
 29 31  2  0  0  0  0
 29 32  1  0  0  0  0
 30 33  1  0  0  0  0
 31 34  1  0  0  0  0
 32 35  2  0  0  0  0
 34 36  2  0  0  0  0
  4  6  1  0  0  0  0
 12 13  1  0  0  0  0
 18 20  1  0  0  0  0
 23 24  1  0  0  0  0
 31 33  1  0  0  0  0
 35 36  1  0  0  0  0
M  END
>  <MolRegNo>
593051

>  <m>
=

>  <Value>
630

>  <Unit>
nM

>  <Type>
IC50

>  <pValue>
6.2

>  <Ligand Efficiency>
0

>  <Binding Efficiency>
0

>  <Surface Efficiency>
0

>  <Assay Index>
451802

>  <Assay Category>


>  <Assay Organism>


>  <Target ID>
17045

>  <Target Name>
Cytochrome P450 3A4

>  <Target Organism>
Homo sapiens

>  <Target Description>
Target is a single protein chain

>  <Sequence Accession>
P08684

>  <Reference>
Bioorg Med Chem Lett 20 (2), 684-688 (2010)

>  <Pubmed ID>
20006500

>  <DOI>
10.1016/j.bmcl.2009.11.061

$$$$
592552
Actelion Java MolfileCreator 1.0

 37 42  0  0  0  0  0  0  0  0999 V2000
    0.0000   -0.0000   -0.0000 O   0  0  0  0  0  0  0  0  0  0  0  0
   -0.4025   -1.4326   -0.0000 C   0  0  0  0  0  0  0  0  0  0  0  0
    1.4918    0.0947   -0.0000 C   0  0  0  0  0  0  0  0  0  0  0  0
    0.8406   -2.2495   -0.0000 C   0  0  0  0  0  0  0  0  0  0  0  0
   -1.8233   -1.9535   -0.0000 C   0  0  0  0  0  0  0  0  0  0  0  0
    2.0127   -1.3023   -0.0000 C   0  0  0  0  0  0  0  0  0  0  0  0
    0.8998   -3.7413   -0.0000 C   0  0  0  0  0  0  0  0  0  0  0  0
   -0.3789   -4.5464   -0.0000 N   0  0  0  0  0  0  0  0  0  0  0  0
    2.2258   -4.4161   -0.0000 C   0  0  0  0  0  0  0  0  0  0  0  0
   -0.3197   -6.0263   -0.0000 C   0  0  0  0  0  0  0  0  0  0  0  0
    3.4808   -3.5992   -0.0000 C   0  0  0  0  0  0  0  0  0  0  0  0
    2.2850   -5.9079   -0.0000 C   0  0  0  0  0  0  0  0  0  0  0  0
   -1.5865   -6.8314   -0.0000 N   0  0  0  0  0  0  0  0  0  0  0  0
    1.0064   -6.6893   -0.0000 C   0  0  0  0  0  0  0  0  0  0  0  0
    4.7950   -4.2741   -0.0000 C   0  0  0  0  0  0  0  0  0  0  0  0
    3.3861   -2.0956   -0.0000 C   0  0  0  0  0  0  0  0  0  0  0  0
    1.0656   -8.1811   -0.0000 O   0  0  0  0  0  0  0  0  0  0  0  0
    6.0500   -3.4453   -0.0000 C   0  0  0  0  0  0  0  0  0  0  0  0
    4.6292   -1.2668   -0.0000 C   0  0  0  0  0  0  0  0  0  0  0  0
   -0.2131   -8.9743   -0.0000 C   0  0  0  0  0  0  0  0  0  0  0  0
    5.9671   -1.9417   -0.0000 C   0  0  0  0  0  0  0  0  0  0  0  0
    7.4826   -3.8360   -0.0000 C   0  0  0  0  0  0  0  0  0  0  0  0
   -0.2605  -10.4661   -0.0000 C   0  0  0  0  0  0  0  0  0  0  0  0
    7.3523   -1.3971   -0.0000 N   0  0  0  0  0  0  0  0  0  0  0  0
    8.2995   -2.5692   -0.0000 N   0  0  0  0  0  0  0  0  0  0  0  0
    8.0035   -5.2330   -0.0000 C   0  0  0  0  0  0  0  0  0  0  0  0
    0.9945  -11.2475   -0.0000 N   0  0  0  0  0  0  0  0  0  0  0  0
   -1.6102  -11.1409   -0.0000 C   0  0  0  0  0  0  0  0  0  0  0  0
   -2.8888  -10.3240   -0.0000 C   0  0  0  0  0  0  0  0  0  0  0  0
   -4.1083  -11.2238   -0.0000 C   0  0  0  0  0  0  0  0  0  0  0  0
   -3.3979   -8.8914   -0.0000 C   0  0  0  0  0  0  0  0  0  0  0  0
   -5.3514  -10.3477   -0.0000 C   0  0  0  0  0  0  0  0  0  0  0  0
   -4.2622  -12.7156   -0.0000 C   0  0  0  0  0  0  0  0  0  0  0  0
   -4.9134   -8.9033   -0.0000 N   0  0  0  0  0  0  0  0  0  0  0  0
   -6.7248  -10.9634   -0.0000 C   0  0  0  0  0  0  0  0  0  0  0  0
   -5.6474  -13.3313   -0.0000 C   0  0  0  0  0  0  0  0  0  0  0  0
   -6.8787  -12.4551   -0.0000 C   0  0  0  0  0  0  0  0  0  0  0  0
  1  2  1  0  0  0  0
  1  3  1  0  0  0  0
  2  4  2  0  0  0  0
  2  5  1  0  0  0  0
  3  6  2  0  0  0  0
  4  7  1  0  0  0  0
  7  8  2  0  0  0  0
  7  9  1  0  0  0  0
  8 10  1  0  0  0  0
  9 11  1  0  0  0  0
  9 12  2  0  0  0  0
 10 13  1  0  0  0  0
 10 14  2  0  0  0  0
 11 15  2  0  0  0  0
 11 16  1  0  0  0  0
 14 17  1  0  0  0  0
 15 18  1  0  0  0  0
 16 19  2  0  0  0  0
 17 20  1  0  0  0  0
 18 21  2  0  0  0  0
 18 22  1  0  0  0  0
 20 23  1  0  0  0  0
 21 24  1  0  0  0  0
 22 25  2  0  0  0  0
 22 26  1  0  0  0  0
 23 27  1  1  0  0  0
 23 28  1  0  0  0  0
 28 29  1  0  0  0  0
 29 30  1  0  0  0  0
 29 31  2  0  0  0  0
 30 32  2  0  0  0  0
 30 33  1  0  0  0  0
 31 34  1  0  0  0  0
 32 35  1  0  0  0  0
 33 36  2  0  0  0  0
 35 37  2  0  0  0  0
  4  6  1  0  0  0  0
 12 14  1  0  0  0  0
 19 21  1  0  0  0  0
 24 25  1  0  0  0  0
 32 34  1  0  0  0  0
 36 37  1  0  0  0  0
M  END
>  <MolRegNo>
592552

>  <m>
=

>  <Value>
100

>  <Unit>
nM

>  <Type>
IC50

>  <pValue>
7

>  <Ligand Efficiency>
0

>  <Binding Efficiency>
0

>  <Surface Efficiency>
0

>  <Assay Index>
451802

>  <Assay Category>


>  <Assay Organism>


>  <Target ID>
17045

>  <Target Name>
Cytochrome P450 3A4

>  <Target Organism>
Homo sapiens

>  <Target Description>
Target is a single protein chain

>  <Sequence Accession>
P08684

>  <Reference>
Bioorg Med Chem Lett 20 (2), 684-688 (2010)

>  <Pubmed ID>
20006500

>  <DOI>
10.1016/j.bmcl.2009.11.061

$$$$
592553
Actelion Java MolfileCreator 1.0

 37 42  0  0  0  0  0  0  0  0999 V2000
    0.0000   -0.0000   -0.0000 O   0  0  0  0  0  0  0  0  0  0  0  0
   -0.4026   -1.4328   -0.0000 C   0  0  0  0  0  0  0  0  0  0  0  0
    1.4920    0.0829   -0.0000 C   0  0  0  0  0  0  0  0  0  0  0  0
    0.8407   -2.2499   -0.0000 C   0  0  0  0  0  0  0  0  0  0  0  0
   -1.8236   -1.9538   -0.0000 C   0  0  0  0  0  0  0  0  0  0  0  0
    2.0130   -1.3144   -0.0000 C   0  0  0  0  0  0  0  0  0  0  0  0
    0.9000   -3.7419   -0.0000 C   0  0  0  0  0  0  0  0  0  0  0  0
   -0.3789   -4.5471   -0.0000 N   0  0  0  0  0  0  0  0  0  0  0  0
    2.2262   -4.4169   -0.0000 C   0  0  0  0  0  0  0  0  0  0  0  0
   -0.3197   -6.0273   -0.0000 C   0  0  0  0  0  0  0  0  0  0  0  0
    3.4814   -3.5998   -0.0000 C   0  0  0  0  0  0  0  0  0  0  0  0
    2.2854   -5.9089   -0.0000 C   0  0  0  0  0  0  0  0  0  0  0  0
   -1.5868   -6.8325   -0.0000 N   0  0  0  0  0  0  0  0  0  0  0  0
    1.0065   -6.6904   -0.0000 C   0  0  0  0  0  0  0  0  0  0  0  0
    3.3867   -2.0959   -0.0000 C   0  0  0  0  0  0  0  0  0  0  0  0
    4.7958   -4.2748   -0.0000 C   0  0  0  0  0  0  0  0  0  0  0  0
    1.0657   -8.1824   -0.0000 O   0  0  0  0  0  0  0  0  0  0  0  0
    4.6300   -1.2670   -0.0000 N   0  0  0  0  0  0  0  0  0  0  0  0
    6.0510   -3.4459   -0.0000 C   0  0  0  0  0  0  0  0  0  0  0  0
   -0.2131   -8.9758   -0.0000 C   0  0  0  0  0  0  0  0  0  0  0  0
    5.9563   -1.9420   -0.0000 C   0  0  0  0  0  0  0  0  0  0  0  0
    7.4838   -3.8366   -0.0000 C   0  0  0  0  0  0  0  0  0  0  0  0
   -0.2605  -10.4678   -0.0000 C   0  0  0  0  0  0  0  0  0  0  0  0
    7.3417   -1.3973   -0.0000 N   0  0  0  0  0  0  0  0  0  0  0  0
    8.3009   -2.5696   -0.0000 N   0  0  0  0  0  0  0  0  0  0  0  0
    8.0048   -5.2339   -0.0000 C   0  0  0  0  0  0  0  0  0  0  0  0
    0.9947  -11.2494   -0.0000 N   0  0  0  0  0  0  0  0  0  0  0  0
   -1.6104  -11.1428   -0.0000 C   0  0  0  0  0  0  0  0  0  0  0  0
   -2.8893  -10.3257   -0.0000 C   0  0  0  0  0  0  0  0  0  0  0  0
   -4.1090  -11.2257   -0.0000 C   0  0  0  0  0  0  0  0  0  0  0  0
   -3.3985   -8.8929   -0.0000 C   0  0  0  0  0  0  0  0  0  0  0  0
   -5.3523  -10.3494   -0.0000 C   0  0  0  0  0  0  0  0  0  0  0  0
   -4.2629  -12.7177   -0.0000 C   0  0  0  0  0  0  0  0  0  0  0  0
   -4.9142   -8.9048   -0.0000 N   0  0  0  0  0  0  0  0  0  0  0  0
   -6.7259  -10.9652   -0.0000 C   0  0  0  0  0  0  0  0  0  0  0  0
   -5.6484  -13.3335   -0.0000 C   0  0  0  0  0  0  0  0  0  0  0  0
   -6.8799  -12.4572   -0.0000 C   0  0  0  0  0  0  0  0  0  0  0  0
  1  2  1  0  0  0  0
  1  3  1  0  0  0  0
  2  4  2  0  0  0  0
  2  5  1  0  0  0  0
  3  6  2  0  0  0  0
  4  7  1  0  0  0  0
  7  8  2  0  0  0  0
  7  9  1  0  0  0  0
  8 10  1  0  0  0  0
  9 11  1  0  0  0  0
  9 12  2  0  0  0  0
 10 13  1  0  0  0  0
 10 14  2  0  0  0  0
 11 15  2  0  0  0  0
 11 16  1  0  0  0  0
 14 17  1  0  0  0  0
 15 18  1  0  0  0  0
 16 19  2  0  0  0  0
 17 20  1  0  0  0  0
 18 21  2  0  0  0  0
 19 22  1  0  0  0  0
 20 23  1  0  0  0  0
 21 24  1  0  0  0  0
 22 25  2  0  0  0  0
 22 26  1  0  0  0  0
 23 27  1  1  0  0  0
 23 28  1  0  0  0  0
 28 29  1  0  0  0  0
 29 30  1  0  0  0  0
 29 31  2  0  0  0  0
 30 32  2  0  0  0  0
 30 33  1  0  0  0  0
 31 34  1  0  0  0  0
 32 35  1  0  0  0  0
 33 36  2  0  0  0  0
 35 37  2  0  0  0  0
  4  6  1  0  0  0  0
 12 14  1  0  0  0  0
 19 21  1  0  0  0  0
 24 25  1  0  0  0  0
 32 34  1  0  0  0  0
 36 37  1  0  0  0  0
M  END
>  <MolRegNo>
592553

>  <m>
=

>  <Value>
1000

>  <Unit>
nM

>  <Type>
IC50

>  <pValue>
6

>  <Ligand Efficiency>
0

>  <Binding Efficiency>
0

>  <Surface Efficiency>
0

>  <Assay Index>
451802

>  <Assay Category>


>  <Assay Organism>


>  <Target ID>
17045

>  <Target Name>
Cytochrome P450 3A4

>  <Target Organism>
Homo sapiens

>  <Target Description>
Target is a single protein chain

>  <Sequence Accession>
P08684

>  <Reference>
Bioorg Med Chem Lett 20 (2), 684-688 (2010)

>  <Pubmed ID>
20006500

>  <DOI>
10.1016/j.bmcl.2009.11.061

$$$$
592554
Actelion Java MolfileCreator 1.0

 37 42  0  0  0  0  0  0  0  0999 V2000
    0.0000   -0.0000   -0.0000 O   0  0  0  0  0  0  0  0  0  0  0  0
   -0.4026   -1.4328   -0.0000 C   0  0  0  0  0  0  0  0  0  0  0  0
    1.4920    0.0829   -0.0000 C   0  0  0  0  0  0  0  0  0  0  0  0
    0.8407   -2.2498   -0.0000 C   0  0  0  0  0  0  0  0  0  0  0  0
   -1.8235   -1.9538   -0.0000 C   0  0  0  0  0  0  0  0  0  0  0  0
    2.0130   -1.3144   -0.0000 C   0  0  0  0  0  0  0  0  0  0  0  0
    0.8999   -3.7418   -0.0000 C   0  0  0  0  0  0  0  0  0  0  0  0
   -0.3789   -4.5469   -0.0000 N   0  0  0  0  0  0  0  0  0  0  0  0
    2.2261   -4.4167   -0.0000 C   0  0  0  0  0  0  0  0  0  0  0  0
   -0.3197   -6.0271   -0.0000 C   0  0  0  0  0  0  0  0  0  0  0  0
    3.4813   -3.5997   -0.0000 C   0  0  0  0  0  0  0  0  0  0  0  0
    2.2853   -5.9087   -0.0000 C   0  0  0  0  0  0  0  0  0  0  0  0
   -1.5867   -6.8323   -0.0000 N   0  0  0  0  0  0  0  0  0  0  0  0
    1.0065   -6.6902   -0.0000 C   0  0  0  0  0  0  0  0  0  0  0  0
    4.7956   -4.2746   -0.0000 N   0  0  0  0  0  0  0  0  0  0  0  0
    3.3865   -2.0959   -0.0000 C   0  0  0  0  0  0  0  0  0  0  0  0
    1.0657   -8.1821   -0.0000 O   0  0  0  0  0  0  0  0  0  0  0  0
    6.0508   -3.4457   -0.0000 C   0  0  0  0  0  0  0  0  0  0  0  0
    4.6298   -1.2670   -0.0000 N   0  0  0  0  0  0  0  0  0  0  0  0
   -0.2131   -8.9755   -0.0000 C   0  0  0  0  0  0  0  0  0  0  0  0
    5.9679   -1.9419   -0.0000 C   0  0  0  0  0  0  0  0  0  0  0  0
    7.4835   -3.8365   -0.0000 C   0  0  0  0  0  0  0  0  0  0  0  0
   -0.2605  -10.4674   -0.0000 C   0  0  0  0  0  0  0  0  0  0  0  0
    7.3533   -1.3972   -0.0000 N   0  0  0  0  0  0  0  0  0  0  0  0
    8.3005   -2.5695   -0.0000 N   0  0  0  0  0  0  0  0  0  0  0  0
    8.0045   -5.2337   -0.0000 C   0  0  0  0  0  0  0  0  0  0  0  0
    0.9946  -11.2490   -0.0000 N   0  0  0  0  0  0  0  0  0  0  0  0
   -1.6104  -11.1424   -0.0000 C   0  0  0  0  0  0  0  0  0  0  0  0
   -2.8892  -10.3254   -0.0000 C   0  0  0  0  0  0  0  0  0  0  0  0
   -4.1088  -11.2253   -0.0000 C   0  0  0  0  0  0  0  0  0  0  0  0
   -3.3984   -8.8926   -0.0000 C   0  0  0  0  0  0  0  0  0  0  0  0
   -5.3521  -10.3490   -0.0000 C   0  0  0  0  0  0  0  0  0  0  0  0
   -4.2628  -12.7172   -0.0000 C   0  0  0  0  0  0  0  0  0  0  0  0
   -4.9140   -8.9044   -0.0000 N   0  0  0  0  0  0  0  0  0  0  0  0
   -6.7257  -10.9648   -0.0000 C   0  0  0  0  0  0  0  0  0  0  0  0
   -5.6482  -13.3330   -0.0000 C   0  0  0  0  0  0  0  0  0  0  0  0
   -6.8796  -12.4567   -0.0000 C   0  0  0  0  0  0  0  0  0  0  0  0
  1  2  1  0  0  0  0
  1  3  1  0  0  0  0
  2  4  2  0  0  0  0
  2  5  1  0  0  0  0
  3  6  2  0  0  0  0
  4  7  1  0  0  0  0
  7  8  2  0  0  0  0
  7  9  1  0  0  0  0
  8 10  1  0  0  0  0
  9 11  1  0  0  0  0
  9 12  2  0  0  0  0
 10 13  1  0  0  0  0
 10 14  2  0  0  0  0
 11 15  2  0  0  0  0
 11 16  1  0  0  0  0
 14 17  1  0  0  0  0
 15 18  1  0  0  0  0
 16 19  2  0  0  0  0
 17 20  1  0  0  0  0
 18 21  2  0  0  0  0
 18 22  1  0  0  0  0
 20 23  1  0  0  0  0
 21 24  1  0  0  0  0
 22 25  2  0  0  0  0
 22 26  1  0  0  0  0
 23 27  1  1  0  0  0
 23 28  1  0  0  0  0
 28 29  1  0  0  0  0
 29 30  1  0  0  0  0
 29 31  2  0  0  0  0
 30 32  2  0  0  0  0
 30 33  1  0  0  0  0
 31 34  1  0  0  0  0
 32 35  1  0  0  0  0
 33 36  2  0  0  0  0
 35 37  2  0  0  0  0
  4  6  1  0  0  0  0
 12 14  1  0  0  0  0
 19 21  1  0  0  0  0
 24 25  1  0  0  0  0
 32 34  1  0  0  0  0
 36 37  1  0  0  0  0
M  END
>  <MolRegNo>
592554

>  <m>
=

>  <Value>
5000

>  <Unit>
nM

>  <Type>
IC50

>  <pValue>
5.3

>  <Ligand Efficiency>
0

>  <Binding Efficiency>
0

>  <Surface Efficiency>
0

>  <Assay Index>
451802

>  <Assay Category>


>  <Assay Organism>


>  <Target ID>
17045

>  <Target Name>
Cytochrome P450 3A4

>  <Target Organism>
Homo sapiens

>  <Target Description>
Target is a single protein chain

>  <Sequence Accession>
P08684

>  <Reference>
Bioorg Med Chem Lett 20 (2), 684-688 (2010)

>  <Pubmed ID>
20006500

>  <DOI>
10.1016/j.bmcl.2009.11.061

$$$$
592577
Actelion Java MolfileCreator 1.0

 37 42  0  0  0  0  0  0  0  0999 V2000
    0.0000   -0.0000   -0.0000 O   0  0  0  0  0  0  0  0  0  0  0  0
   -0.4026   -1.4328   -0.0000 C   0  0  0  0  0  0  0  0  0  0  0  0
    1.4920    0.0829   -0.0000 C   0  0  0  0  0  0  0  0  0  0  0  0
    0.8407   -2.2499   -0.0000 C   0  0  0  0  0  0  0  0  0  0  0  0
   -1.8236   -1.9538   -0.0000 C   0  0  0  0  0  0  0  0  0  0  0  0
    2.0130   -1.3144   -0.0000 C   0  0  0  0  0  0  0  0  0  0  0  0
    0.9000   -3.7419   -0.0000 C   0  0  0  0  0  0  0  0  0  0  0  0
   -0.3789   -4.5471   -0.0000 N   0  0  0  0  0  0  0  0  0  0  0  0
    2.2262   -4.4169   -0.0000 C   0  0  0  0  0  0  0  0  0  0  0  0
   -0.3197   -6.0273   -0.0000 C   0  0  0  0  0  0  0  0  0  0  0  0
    3.4814   -3.5998   -0.0000 C   0  0  0  0  0  0  0  0  0  0  0  0
    2.2854   -5.9089   -0.0000 C   0  0  0  0  0  0  0  0  0  0  0  0
   -1.5868   -6.8325   -0.0000 N   0  0  0  0  0  0  0  0  0  0  0  0
    1.0065   -6.6904   -0.0000 C   0  0  0  0  0  0  0  0  0  0  0  0
    3.3867   -2.0959   -0.0000 N   0  0  0  0  0  0  0  0  0  0  0  0
    4.7958   -4.2748   -0.0000 C   0  0  0  0  0  0  0  0  0  0  0  0
    1.0657   -8.1824   -0.0000 O   0  0  0  0  0  0  0  0  0  0  0  0
    4.6300   -1.2670   -0.0000 C   0  0  0  0  0  0  0  0  0  0  0  0
    6.0510   -3.4459   -0.0000 C   0  0  0  0  0  0  0  0  0  0  0  0
   -0.2131   -8.9758   -0.0000 C   0  0  0  0  0  0  0  0  0  0  0  0
    5.9563   -1.9420   -0.0000 C   0  0  0  0  0  0  0  0  0  0  0  0
    7.4838   -3.8366   -0.0000 C   0  0  0  0  0  0  0  0  0  0  0  0
   -0.2605  -10.4678   -0.0000 C   0  0  0  0  0  0  0  0  0  0  0  0
    7.3417   -1.3973   -0.0000 N   0  0  0  0  0  0  0  0  0  0  0  0
    8.3009   -2.5696   -0.0000 N   0  0  0  0  0  0  0  0  0  0  0  0
    8.0048   -5.2339   -0.0000 C   0  0  0  0  0  0  0  0  0  0  0  0
    0.9947  -11.2494   -0.0000 N   0  0  0  0  0  0  0  0  0  0  0  0
   -1.6104  -11.1428   -0.0000 C   0  0  0  0  0  0  0  0  0  0  0  0
   -2.8893  -10.3257   -0.0000 C   0  0  0  0  0  0  0  0  0  0  0  0
   -4.1090  -11.2257   -0.0000 C   0  0  0  0  0  0  0  0  0  0  0  0
   -3.3985   -8.8929   -0.0000 C   0  0  0  0  0  0  0  0  0  0  0  0
   -5.3523  -10.3494   -0.0000 C   0  0  0  0  0  0  0  0  0  0  0  0
   -4.2629  -12.7177   -0.0000 C   0  0  0  0  0  0  0  0  0  0  0  0
   -4.9142   -8.9048   -0.0000 N   0  0  0  0  0  0  0  0  0  0  0  0
   -6.7259  -10.9652   -0.0000 C   0  0  0  0  0  0  0  0  0  0  0  0
   -5.6484  -13.3335   -0.0000 C   0  0  0  0  0  0  0  0  0  0  0  0
   -6.8799  -12.4572   -0.0000 C   0  0  0  0  0  0  0  0  0  0  0  0
  1  2  1  0  0  0  0
  1  3  1  0  0  0  0
  2  4  2  0  0  0  0
  2  5  1  0  0  0  0
  3  6  2  0  0  0  0
  4  7  1  0  0  0  0
  7  8  2  0  0  0  0
  7  9  1  0  0  0  0
  8 10  1  0  0  0  0
  9 11  1  0  0  0  0
  9 12  2  0  0  0  0
 10 13  1  0  0  0  0
 10 14  2  0  0  0  0
 11 15  2  0  0  0  0
 11 16  1  0  0  0  0
 14 17  1  0  0  0  0
 15 18  1  0  0  0  0
 16 19  2  0  0  0  0
 17 20  1  0  0  0  0
 18 21  2  0  0  0  0
 19 22  1  0  0  0  0
 20 23  1  0  0  0  0
 21 24  1  0  0  0  0
 22 25  2  0  0  0  0
 22 26  1  0  0  0  0
 23 27  1  1  0  0  0
 23 28  1  0  0  0  0
 28 29  1  0  0  0  0
 29 30  1  0  0  0  0
 29 31  2  0  0  0  0
 30 32  2  0  0  0  0
 30 33  1  0  0  0  0
 31 34  1  0  0  0  0
 32 35  1  0  0  0  0
 33 36  2  0  0  0  0
 35 37  2  0  0  0  0
  4  6  1  0  0  0  0
 12 14  1  0  0  0  0
 19 21  1  0  0  0  0
 24 25  1  0  0  0  0
 32 34  1  0  0  0  0
 36 37  1  0  0  0  0
M  END
>  <MolRegNo>
592577

>  <m>
=

>  <Value>
1300

>  <Unit>
nM

>  <Type>
IC50

>  <pValue>
5.89

>  <Ligand Efficiency>
0

>  <Binding Efficiency>
0

>  <Surface Efficiency>
0

>  <Assay Index>
451802

>  <Assay Category>


>  <Assay Organism>


>  <Target ID>
17045

>  <Target Name>
Cytochrome P450 3A4

>  <Target Organism>
Homo sapiens

>  <Target Description>
Target is a single protein chain

>  <Sequence Accession>
P08684

>  <Reference>
Bioorg Med Chem Lett 20 (2), 684-688 (2010)

>  <Pubmed ID>
20006500

>  <DOI>
10.1016/j.bmcl.2009.11.061

$$$$
592578
Actelion Java MolfileCreator 1.0

 37 42  0  0  0  0  0  0  0  0999 V2000
    0.0000   -0.0000   -0.0000 O   0  0  0  0  0  0  0  0  0  0  0  0
   -0.4027   -1.4330   -0.0000 C   0  0  0  0  0  0  0  0  0  0  0  0
    1.4923    0.0829   -0.0000 C   0  0  0  0  0  0  0  0  0  0  0  0
    0.8409   -2.2502   -0.0000 C   0  0  0  0  0  0  0  0  0  0  0  0
    2.0134   -1.3146   -0.0000 C   0  0  0  0  0  0  0  0  0  0  0  0
    0.9001   -3.7425   -0.0000 C   0  0  0  0  0  0  0  0  0  0  0  0
   -0.3790   -4.5478   -0.0000 N   0  0  0  0  0  0  0  0  0  0  0  0
    2.2265   -4.4176   -0.0000 C   0  0  0  0  0  0  0  0  0  0  0  0
   -0.3198   -6.0282   -0.0000 C   0  0  0  0  0  0  0  0  0  0  0  0
    3.4819   -3.6004   -0.0000 C   0  0  0  0  0  0  0  0  0  0  0  0
    2.2858   -5.9098   -0.0000 C   0  0  0  0  0  0  0  0  0  0  0  0
   -1.5870   -6.8336   -0.0000 C   0  0  0  0  0  0  0  0  0  0  0  0
    1.0067   -6.6915   -0.0000 C   0  0  0  0  0  0  0  0  0  0  0  0
    4.7965   -4.2754   -0.0000 N   0  0  0  0  0  0  0  0  0  0  0  0
    3.3872   -2.0963   -0.0000 C   0  0  0  0  0  0  0  0  0  0  0  0
   -2.8542   -7.6389   -0.0000 N   0  0  0  0  0  0  0  0  0  0  0  0
    1.0659   -8.1837   -0.0000 O   0  0  0  0  0  0  0  0  0  0  0  0
    6.0519   -3.4464   -0.0000 C   0  0  0  0  0  0  0  0  0  0  0  0
    4.6307   -1.2672   -0.0000 N   0  0  0  0  0  0  0  0  0  0  0  0
   -0.2132   -8.9772   -0.0000 C   0  0  0  0  0  0  0  0  0  0  0  0
    5.9690   -1.9423   -0.0000 C   0  0  0  0  0  0  0  0  0  0  0  0
    7.4850   -3.8372   -0.0000 C   0  0  0  0  0  0  0  0  0  0  0  0
   -0.2606  -10.4695   -0.0000 C   0  0  0  0  0  0  0  0  0  0  0  0
    7.3547   -1.3975   -0.0000 N   0  0  0  0  0  0  0  0  0  0  0  0
    8.3022   -2.5700   -0.0000 N   0  0  0  0  0  0  0  0  0  0  0  0
    8.0061   -5.2347   -0.0000 C   0  0  0  0  0  0  0  0  0  0  0  0
    0.9948  -11.2511   -0.0000 N   0  0  0  0  0  0  0  0  0  0  0  0
   -1.6107  -11.1445   -0.0000 C   0  0  0  0  0  0  0  0  0  0  0  0
   -2.8898  -10.3274   -0.0000 C   0  0  0  0  0  0  0  0  0  0  0  0
   -4.1096  -11.2275   -0.0000 C   0  0  0  0  0  0  0  0  0  0  0  0
   -3.3990   -8.8943   -0.0000 C   0  0  0  0  0  0  0  0  0  0  0  0
   -5.3532  -10.3510   -0.0000 C   0  0  0  0  0  0  0  0  0  0  0  0
   -4.2636  -12.7197   -0.0000 C   0  0  0  0  0  0  0  0  0  0  0  0
   -4.9150   -8.9062   -0.0000 N   0  0  0  0  0  0  0  0  0  0  0  0
   -6.7270  -10.9669   -0.0000 C   0  0  0  0  0  0  0  0  0  0  0  0
   -5.6493  -13.3356   -0.0000 C   0  0  0  0  0  0  0  0  0  0  0  0
   -6.8810  -12.4592   -0.0000 C   0  0  0  0  0  0  0  0  0  0  0  0
  1  2  1  0  0  0  0
  1  3  1  0  0  0  0
  2  4  2  0  0  0  0
  3  5  2  0  0  0  0
  4  6  1  0  0  0  0
  6  7  2  0  0  0  0
  6  8  1  0  0  0  0
  7  9  1  0  0  0  0
  8 10  1  0  0  0  0
  8 11  2  0  0  0  0
  9 12  1  0  0  0  0
  9 13  2  0  0  0  0
 10 14  2  0  0  0  0
 10 15  1  0  0  0  0
 12 16  3  0  0  0  0
 13 17  1  0  0  0  0
 14 18  1  0  0  0  0
 15 19  2  0  0  0  0
 17 20  1  0  0  0  0
 18 21  2  0  0  0  0
 18 22  1  0  0  0  0
 20 23  1  0  0  0  0
 21 24  1  0  0  0  0
 22 25  2  0  0  0  0
 22 26  1  0  0  0  0
 23 27  1  1  0  0  0
 23 28  1  0  0  0  0
 28 29  1  0  0  0  0
 29 30  1  0  0  0  0
 29 31  2  0  0  0  0
 30 32  2  0  0  0  0
 30 33  1  0  0  0  0
 31 34  1  0  0  0  0
 32 35  1  0  0  0  0
 33 36  2  0  0  0  0
 35 37  2  0  0  0  0
  4  5  1  0  0  0  0
 11 13  1  0  0  0  0
 19 21  1  0  0  0  0
 24 25  1  0  0  0  0
 32 34  1  0  0  0  0
 36 37  1  0  0  0  0
M  END
>  <MolRegNo>
592578

>  <m>
=

>  <Value>
790

>  <Unit>
nM

>  <Type>
IC50

>  <pValue>
6.1

>  <Ligand Efficiency>
0

>  <Binding Efficiency>
0

>  <Surface Efficiency>
0

>  <Assay Index>
451802

>  <Assay Category>


>  <Assay Organism>


>  <Target ID>
17045

>  <Target Name>
Cytochrome P450 3A4

>  <Target Organism>
Homo sapiens

>  <Target Description>
Target is a single protein chain

>  <Sequence Accession>
P08684

>  <Reference>
Bioorg Med Chem Lett 20 (2), 684-688 (2010)

>  <Pubmed ID>
20006500

>  <DOI>
10.1016/j.bmcl.2009.11.061

$$$$
592579
Actelion Java MolfileCreator 1.0

 36 41  0  0  0  0  0  0  0  0999 V2000
    0.0000   -0.0000   -0.0000 O   0  0  0  0  0  0  0  0  0  0  0  0
   -0.4027   -1.4331   -0.0000 C   0  0  0  0  0  0  0  0  0  0  0  0
    1.4923    0.0829   -0.0000 C   0  0  0  0  0  0  0  0  0  0  0  0
    0.8409   -2.2503   -0.0000 C   0  0  0  0  0  0  0  0  0  0  0  0
    2.0134   -1.3146   -0.0000 C   0  0  0  0  0  0  0  0  0  0  0  0
    0.9001   -3.7426   -0.0000 C   0  0  0  0  0  0  0  0  0  0  0  0
   -0.3790   -4.5479   -0.0000 N   0  0  0  0  0  0  0  0  0  0  0  0
    2.2266   -4.4177   -0.0000 C   0  0  0  0  0  0  0  0  0  0  0  0
   -0.3198   -6.0284   -0.0000 C   0  0  0  0  0  0  0  0  0  0  0  0
    3.4820   -3.6005   -0.0000 C   0  0  0  0  0  0  0  0  0  0  0  0
    2.2858   -5.9100   -0.0000 C   0  0  0  0  0  0  0  0  0  0  0  0
    1.0067   -6.6916   -0.0000 C   0  0  0  0  0  0  0  0  0  0  0  0
   -1.5870   -6.8338   -0.0000 C   0  0  0  0  0  0  0  0  0  0  0  0
    4.7967   -4.2755   -0.0000 N   0  0  0  0  0  0  0  0  0  0  0  0
    3.3873   -2.0963   -0.0000 C   0  0  0  0  0  0  0  0  0  0  0  0
    1.0659   -8.1839   -0.0000 O   0  0  0  0  0  0  0  0  0  0  0  0
    6.0521   -3.4465   -0.0000 C   0  0  0  0  0  0  0  0  0  0  0  0
    4.6308   -1.2673   -0.0000 N   0  0  0  0  0  0  0  0  0  0  0  0
   -0.2132   -8.9774   -0.0000 C   0  0  0  0  0  0  0  0  0  0  0  0
    5.9692   -1.9423   -0.0000 C   0  0  0  0  0  0  0  0  0  0  0  0
    7.4851   -3.8373   -0.0000 C   0  0  0  0  0  0  0  0  0  0  0  0
   -0.2606  -10.4697   -0.0000 C   0  0  0  0  0  0  0  0  0  0  0  0
    7.3549   -1.3975   -0.0000 N   0  0  0  0  0  0  0  0  0  0  0  0
    8.3024   -2.5701   -0.0000 N   0  0  0  0  0  0  0  0  0  0  0  0
    8.0063   -5.2349   -0.0000 C   0  0  0  0  0  0  0  0  0  0  0  0
    0.9949  -11.2514   -0.0000 N   0  0  0  0  0  0  0  0  0  0  0  0
   -1.6107  -11.1448   -0.0000 C   0  0  0  0  0  0  0  0  0  0  0  0
   -2.8898  -10.3276   -0.0000 C   0  0  0  0  0  0  0  0  0  0  0  0
   -4.1097  -11.2277   -0.0000 C   0  0  0  0  0  0  0  0  0  0  0  0
   -3.3991   -8.8945   -0.0000 C   0  0  0  0  0  0  0  0  0  0  0  0
   -5.3533  -10.3513   -0.0000 C   0  0  0  0  0  0  0  0  0  0  0  0
   -4.2637  -12.7200   -0.0000 C   0  0  0  0  0  0  0  0  0  0  0  0
   -4.9151   -8.9064   -0.0000 N   0  0  0  0  0  0  0  0  0  0  0  0
   -6.7272  -10.9672   -0.0000 C   0  0  0  0  0  0  0  0  0  0  0  0
   -5.6494  -13.3359   -0.0000 C   0  0  0  0  0  0  0  0  0  0  0  0
   -6.8811  -12.4595   -0.0000 C   0  0  0  0  0  0  0  0  0  0  0  0
  1  2  1  0  0  0  0
  1  3  1  0  0  0  0
  2  4  2  0  0  0  0
  3  5  2  0  0  0  0
  4  6  1  0  0  0  0
  6  7  2  0  0  0  0
  6  8  1  0  0  0  0
  7  9  1  0  0  0  0
  8 10  1  0  0  0  0
  8 11  2  0  0  0  0
  9 12  2  0  0  0  0
  9 13  1  0  0  0  0
 10 14  2  0  0  0  0
 10 15  1  0  0  0  0
 12 16  1  0  0  0  0
 14 17  1  0  0  0  0
 15 18  2  0  0  0  0
 16 19  1  0  0  0  0
 17 20  2  0  0  0  0
 17 21  1  0  0  0  0
 19 22  1  0  0  0  0
 20 23  1  0  0  0  0
 21 24  2  0  0  0  0
 21 25  1  0  0  0  0
 22 26  1  1  0  0  0
 22 27  1  0  0  0  0
 27 28  1  0  0  0  0
 28 29  1  0  0  0  0
 28 30  2  0  0  0  0
 29 31  2  0  0  0  0
 29 32  1  0  0  0  0
 30 33  1  0  0  0  0
 31 34  1  0  0  0  0
 32 35  2  0  0  0  0
 34 36  2  0  0  0  0
  4  5  1  0  0  0  0
 11 12  1  0  0  0  0
 18 20  1  0  0  0  0
 23 24  1  0  0  0  0
 31 33  1  0  0  0  0
 35 36  1  0  0  0  0
M  END
>  <MolRegNo>
592579

>  <m>
=

>  <Value>
630

>  <Unit>
nM

>  <Type>
IC50

>  <pValue>
6.2

>  <Ligand Efficiency>
0

>  <Binding Efficiency>
0

>  <Surface Efficiency>
0

>  <Assay Index>
451802

>  <Assay Category>


>  <Assay Organism>


>  <Target ID>
17045

>  <Target Name>
Cytochrome P450 3A4

>  <Target Organism>
Homo sapiens

>  <Target Description>
Target is a single protein chain

>  <Sequence Accession>
P08684

>  <Reference>
Bioorg Med Chem Lett 20 (2), 684-688 (2010)

>  <Pubmed ID>
20006500

>  <DOI>
10.1016/j.bmcl.2009.11.061

$$$$
592580
Actelion Java MolfileCreator 1.0

 34 38  0  0  0  0  0  0  0  0999 V2000
    0.0000   -0.0000   -0.0000 O   0  0  0  0  0  0  0  0  0  0  0  0
   -0.4018   -1.4418   -0.0000 C   0  0  0  0  0  0  0  0  0  0  0  0
    1.4891    0.0827   -0.0000 C   0  0  0  0  0  0  0  0  0  0  0  0
    0.8391   -2.2573   -0.0000 C   0  0  0  0  0  0  0  0  0  0  0  0
   -1.8200   -1.9619   -0.0000 C   0  0  0  0  0  0  0  0  0  0  0  0
    2.0091   -1.3118   -0.0000 C   0  0  0  0  0  0  0  0  0  0  0  0
    0.8982   -3.7464   -0.0000 C   0  0  0  0  0  0  0  0  0  0  0  0
   -0.3782   -4.5501   -0.0000 N   0  0  0  0  0  0  0  0  0  0  0  0
    2.2219   -4.4201   -0.0000 C   0  0  0  0  0  0  0  0  0  0  0  0
   -0.3191   -6.0392   -0.0000 C   0  0  0  0  0  0  0  0  0  0  0  0
    3.4746   -3.5928   -0.0000 C   0  0  0  0  0  0  0  0  0  0  0  0
    2.2809   -5.9092   -0.0000 C   0  0  0  0  0  0  0  0  0  0  0  0
   -1.5837   -6.8428   -0.0000 N   0  0  0  0  0  0  0  0  0  0  0  0
    1.0046   -6.7128   -0.0000 C   0  0  0  0  0  0  0  0  0  0  0  0
    4.7983   -4.2664   -0.0000 N   0  0  0  0  0  0  0  0  0  0  0  0
    3.3801   -2.0800   -0.0000 C   0  0  0  0  0  0  0  0  0  0  0  0
    1.0637   -8.2020   -0.0000 O   0  0  0  0  0  0  0  0  0  0  0  0
    6.0510   -3.4391   -0.0000 C   0  0  0  0  0  0  0  0  0  0  0  0
    4.6210   -1.2527   -0.0000 N   0  0  0  0  0  0  0  0  0  0  0  0
   -0.2127   -8.9938   -0.0000 C   0  0  0  0  0  0  0  0  0  0  0  0
    5.9683   -1.9264   -0.0000 C   0  0  0  0  0  0  0  0  0  0  0  0
    7.4810   -3.8292   -0.0000 C   0  0  0  0  0  0  0  0  0  0  0  0
   -0.2600  -10.4829   -0.0000 C   0  0  0  0  0  0  0  0  0  0  0  0
    7.3629   -1.3828   -0.0000 N   0  0  0  0  0  0  0  0  0  0  0  0
    8.2965   -2.5646   -0.0000 N   0  0  0  0  0  0  0  0  0  0  0  0
    8.0010   -5.2237   -0.0000 C   0  0  0  0  0  0  0  0  0  0  0  0
    1.0046  -11.2747   -0.0000 N   0  0  0  0  0  0  0  0  0  0  0  0
   -1.6073  -11.1566   -0.0000 C   0  0  0  0  0  0  0  0  0  0  0  0
   -2.8837  -10.3293   -0.0000 C   0  0  0  0  0  0  0  0  0  0  0  0
   -2.8128   -8.8283   -0.0000 C   0  0  0  0  0  0  0  0  0  0  0  0
   -4.2192  -11.0147   -0.0000 C   0  0  0  0  0  0  0  0  0  0  0  0
   -4.0892   -8.0010   -0.0000 C   0  0  0  0  0  0  0  0  0  0  0  0
   -5.4955  -10.1993   -0.0000 C   0  0  0  0  0  0  0  0  0  0  0  0
   -5.4365   -8.6747   -0.0000 C   0  0  0  0  0  0  0  0  0  0  0  0
  1  2  1  0  0  0  0
  1  3  1  0  0  0  0
  2  4  2  0  0  0  0
  2  5  1  0  0  0  0
  3  6  2  0  0  0  0
  4  7  1  0  0  0  0
  7  8  2  0  0  0  0
  7  9  1  0  0  0  0
  8 10  1  0  0  0  0
  9 11  1  0  0  0  0
  9 12  2  0  0  0  0
 10 13  1  0  0  0  0
 10 14  2  0  0  0  0
 11 15  2  0  0  0  0
 11 16  1  0  0  0  0
 14 17  1  0  0  0  0
 15 18  1  0  0  0  0
 16 19  2  0  0  0  0
 17 20  1  0  0  0  0
 18 21  2  0  0  0  0
 18 22  1  0  0  0  0
 20 23  1  0  0  0  0
 21 24  1  0  0  0  0
 22 25  2  0  0  0  0
 22 26  1  0  0  0  0
 23 27  1  1  0  0  0
 23 28  1  0  0  0  0
 28 29  1  0  0  0  0
 29 30  2  0  0  0  0
 29 31  1  0  0  0  0
 30 32  1  0  0  0  0
 31 33  2  0  0  0  0
 32 34  2  0  0  0  0
  4  6  1  0  0  0  0
 12 14  1  0  0  0  0
 19 21  1  0  0  0  0
 24 25  1  0  0  0  0
 33 34  1  0  0  0  0
M  END
>  <MolRegNo>
592580

>  <m>
=

>  <Value>
3200

>  <Unit>
nM

>  <Type>
IC50

>  <pValue>
5.5

>  <Ligand Efficiency>
0

>  <Binding Efficiency>
0

>  <Surface Efficiency>
0

>  <Assay Index>
451802

>  <Assay Category>


>  <Assay Organism>


>  <Target ID>
17045

>  <Target Name>
Cytochrome P450 3A4

>  <Target Organism>
Homo sapiens

>  <Target Description>
Target is a single protein chain

>  <Sequence Accession>
P08684

>  <Reference>
Bioorg Med Chem Lett 20 (2), 684-688 (2010)

>  <Pubmed ID>
20006500

>  <DOI>
10.1016/j.bmcl.2009.11.061

$$$$
592620
Actelion Java MolfileCreator 1.0

 35 39  0  0  0  0  0  0  0  0999 V2000
    0.0000   -0.0000   -0.0000 O   0  0  0  0  0  0  0  0  0  0  0  0
   -0.4019   -1.4422   -0.0000 C   0  0  0  0  0  0  0  0  0  0  0  0
    1.4895    0.0828   -0.0000 C   0  0  0  0  0  0  0  0  0  0  0  0
    0.8393   -2.2579   -0.0000 C   0  0  0  0  0  0  0  0  0  0  0  0
    2.0096   -1.3122   -0.0000 C   0  0  0  0  0  0  0  0  0  0  0  0
    0.8984   -3.7474   -0.0000 C   0  0  0  0  0  0  0  0  0  0  0  0
   -0.3783   -4.5513   -0.0000 N   0  0  0  0  0  0  0  0  0  0  0  0
    2.2224   -4.4212   -0.0000 C   0  0  0  0  0  0  0  0  0  0  0  0
   -0.3192   -6.0408   -0.0000 C   0  0  0  0  0  0  0  0  0  0  0  0
    3.4755   -3.5937   -0.0000 C   0  0  0  0  0  0  0  0  0  0  0  0
    2.2815   -5.9107   -0.0000 C   0  0  0  0  0  0  0  0  0  0  0  0
   -1.5841   -6.8446   -0.0000 N   0  0  0  0  0  0  0  0  0  0  0  0
    1.0048   -6.7146   -0.0000 C   0  0  0  0  0  0  0  0  0  0  0  0
    4.7877   -4.2676   -0.0000 N   0  0  0  0  0  0  0  0  0  0  0  0
    3.3809   -2.0806   -0.0000 C   0  0  0  0  0  0  0  0  0  0  0  0
   -2.9317   -6.1590   -0.0000 C   0  0  0  0  0  0  0  0  0  0  0  0
    1.0639   -8.2041   -0.0000 O   0  0  0  0  0  0  0  0  0  0  0  0
    6.0408   -3.4400   -0.0000 C   0  0  0  0  0  0  0  0  0  0  0  0
    4.6222   -1.2531   -0.0000 N   0  0  0  0  0  0  0  0  0  0  0  0
   -4.1966   -6.9747   -0.0000 C   0  0  0  0  0  0  0  0  0  0  0  0
   -0.2128   -8.9961   -0.0000 C   0  0  0  0  0  0  0  0  0  0  0  0
    5.9580   -1.9269   -0.0000 C   0  0  0  0  0  0  0  0  0  0  0  0
    7.4712   -3.8302   -0.0000 C   0  0  0  0  0  0  0  0  0  0  0  0
   -0.2601  -10.4856   -0.0000 C   0  0  0  0  0  0  0  0  0  0  0  0
    7.3530   -1.3831   -0.0000 N   0  0  0  0  0  0  0  0  0  0  0  0
    8.2868   -2.5653   -0.0000 N   0  0  0  0  0  0  0  0  0  0  0  0
    7.9913   -5.2251   -0.0000 C   0  0  0  0  0  0  0  0  0  0  0  0
    1.0048  -11.2777   -0.0000 N   0  0  0  0  0  0  0  0  0  0  0  0
   -1.6077  -11.1595   -0.0000 C   0  0  0  0  0  0  0  0  0  0  0  0
   -2.8844  -10.3320   -0.0000 C   0  0  0  0  0  0  0  0  0  0  0  0
   -2.8135   -8.8306   -0.0000 C   0  0  0  0  0  0  0  0  0  0  0  0
   -4.2203  -11.0176   -0.0000 C   0  0  0  0  0  0  0  0  0  0  0  0
   -4.0902   -8.0031   -0.0000 C   0  0  0  0  0  0  0  0  0  0  0  0
   -5.4970  -10.2019   -0.0000 C   0  0  0  0  0  0  0  0  0  0  0  0
   -5.4379   -8.6770   -0.0000 C   0  0  0  0  0  0  0  0  0  0  0  0
  1  2  1  0  0  0  0
  1  3  1  0  0  0  0
  2  4  2  0  0  0  0
  3  5  2  0  0  0  0
  4  6  1  0  0  0  0
  6  7  2  0  0  0  0
  6  8  1  0  0  0  0
  7  9  1  0  0  0  0
  8 10  1  0  0  0  0
  8 11  2  0  0  0  0
  9 12  1  0  0  0  0
  9 13  2  0  0  0  0
 10 14  2  0  0  0  0
 10 15  1  0  0  0  0
 12 16  1  0  0  0  0
 13 17  1  0  0  0  0
 14 18  1  0  0  0  0
 15 19  2  0  0  0  0
 16 20  1  0  0  0  0
 17 21  1  0  0  0  0
 18 22  2  0  0  0  0
 18 23  1  0  0  0  0
 21 24  1  0  0  0  0
 22 25  1  0  0  0  0
 23 26  2  0  0  0  0
 23 27  1  0  0  0  0
 24 28  1  1  0  0  0
 24 29  1  0  0  0  0
 29 30  1  0  0  0  0
 30 31  2  0  0  0  0
 30 32  1  0  0  0  0
 31 33  1  0  0  0  0
 32 34  2  0  0  0  0
 33 35  2  0  0  0  0
  4  5  1  0  0  0  0
 11 13  1  0  0  0  0
 19 22  1  0  0  0  0
 25 26  1  0  0  0  0
 34 35  1  0  0  0  0
M  END
>  <MolRegNo>
592620

>  <m>
=

>  <Value>
5000

>  <Unit>
nM

>  <Type>
IC50

>  <pValue>
5.3

>  <Ligand Efficiency>
0

>  <Binding Efficiency>
0

>  <Surface Efficiency>
0

>  <Assay Index>
451802

>  <Assay Category>


>  <Assay Organism>


>  <Target ID>
17045

>  <Target Name>
Cytochrome P450 3A4

>  <Target Organism>
Homo sapiens

>  <Target Description>
Target is a single protein chain

>  <Sequence Accession>
P08684

>  <Reference>
Bioorg Med Chem Lett 20 (2), 684-688 (2010)

>  <Pubmed ID>
20006500

>  <DOI>
10.1016/j.bmcl.2009.11.061

$$$$
592621
Actelion Java MolfileCreator 1.0

 38 43  0  0  0  0  0  0  0  0999 V2000
    0.0000   -0.0000   -0.0000 Cl  0  0  0  0  0  0  0  0  0  0  0  0
   -0.8742   -1.2168   -0.0000 C   0  0  0  0  0  0  0  0  0  0  0  0
   -2.3863   -1.2286   -0.0000 N   0  0  0  0  0  0  0  0  0  0  0  0
   -0.3898   -2.6226   -0.0000 C   0  0  0  0  0  0  0  0  0  0  0  0
   -2.8352   -2.6580   -0.0000 C   0  0  0  0  0  0  0  0  0  0  0  0
   -1.6066   -3.5204   -0.0000 C   0  0  0  0  0  0  0  0  0  0  0  0
    0.8624   -3.4141   -0.0000 C   0  0  0  0  0  0  0  0  0  0  0  0
   -4.2056   -3.2723   -0.0000 C   0  0  0  0  0  0  0  0  0  0  0  0
   -1.7602   -5.0089   -0.0000 C   0  0  0  0  0  0  0  0  0  0  0  0
    2.1855   -2.7171   -0.0000 C   0  0  0  0  0  0  0  0  0  0  0  0
   -4.3592   -4.7608   -0.0000 C   0  0  0  0  0  0  0  0  0  0  0  0
   -3.1424   -5.6232   -0.0000 C   0  0  0  0  0  0  0  0  0  0  0  0
    3.4377   -3.4968   -0.0000 N   0  0  0  0  0  0  0  0  0  0  0  0
    2.2091   -1.2050   -0.0000 C   0  0  0  0  0  0  0  0  0  0  0  0
    3.4613   -0.3898   -0.0000 O   0  0  0  0  0  0  0  0  0  0  0  0
    3.3786    1.1223   -0.0000 C   0  0  0  0  0  0  0  0  0  0  0  0
    2.0319    1.8075   -0.0000 C   0  0  0  0  0  0  0  0  0  0  0  0
    4.6309    1.9374   -0.0000 C   0  0  0  0  0  0  0  0  0  0  0  0
    1.9492    3.3078   -0.0000 N   0  0  0  0  0  0  0  0  0  0  0  0
    0.7679    1.0041   -0.0000 N   0  0  0  0  0  0  0  0  0  0  0  0
    4.5482    3.4495   -0.0000 C   0  0  0  0  0  0  0  0  0  0  0  0
    3.2014    4.1347   -0.0000 C   0  0  0  0  0  0  0  0  0  0  0  0
    5.8004    4.2647   -0.0000 C   0  0  0  0  0  0  0  0  0  0  0  0
    3.1188    5.6468   -0.0000 C   0  0  0  0  0  0  0  0  0  0  0  0
    7.1117    3.5913   -0.0000 N   0  0  0  0  0  0  0  0  0  0  0  0
    5.7059    5.7650   -0.0000 C   0  0  0  0  0  0  0  0  0  0  0  0
    1.8547    6.4856   -0.0000 C   0  0  0  0  0  0  0  0  0  0  0  0
    4.2765    6.6037   -0.0000 C   0  0  0  0  0  0  0  0  0  0  0  0
    8.3639    4.4182   -0.0000 C   0  0  0  0  0  0  0  0  0  0  0  0
    6.9463    6.5919   -0.0000 N   0  0  0  0  0  0  0  0  0  0  0  0
    2.2327    7.9386   -0.0000 O   0  0  0  0  0  0  0  0  0  0  0  0
    0.4371    5.9658   -0.0000 C   0  0  0  0  0  0  0  0  0  0  0  0
    3.7330    8.0213   -0.0000 C   0  0  0  0  0  0  0  0  0  0  0  0
    8.2812    5.9185   -0.0000 C   0  0  0  0  0  0  0  0  0  0  0  0
    9.7933    4.0284   -0.0000 C   0  0  0  0  0  0  0  0  0  0  0  0
    9.6634    6.4620   -0.0000 N   0  0  0  0  0  0  0  0  0  0  0  0
   10.6085    5.2924   -0.0000 N   0  0  0  0  0  0  0  0  0  0  0  0
   10.3131    2.6344   -0.0000 C   0  0  0  0  0  0  0  0  0  0  0  0
  1  2  1  0  0  0  0
  2  3  1  0  0  0  0
  2  4  2  0  0  0  0
  3  5  1  0  0  0  0
  4  6  1  0  0  0  0
  4  7  1  0  0  0  0
  5  8  1  0  0  0  0
  6  9  1  0  0  0  0
  7 10  1  0  0  0  0
  8 11  2  0  0  0  0
  9 12  2  0  0  0  0
 10 13  1  1  0  0  0
 10 14  1  0  0  0  0
 14 15  1  0  0  0  0
 15 16  1  0  0  0  0
 16 17  2  0  0  0  0
 16 18  1  0  0  0  0
 17 19  1  0  0  0  0
 17 20  1  0  0  0  0
 18 21  2  0  0  0  0
 19 22  2  0  0  0  0
 21 23  1  0  0  0  0
 22 24  1  0  0  0  0
 23 25  2  0  0  0  0
 23 26  1  0  0  0  0
 24 27  2  0  0  0  0
 24 28  1  0  0  0  0
 25 29  1  0  0  0  0
 26 30  2  0  0  0  0
 27 31  1  0  0  0  0
 27 32  1  0  0  0  0
 28 33  2  0  0  0  0
 29 34  2  0  0  0  0
 29 35  1  0  0  0  0
 34 36  1  0  0  0  0
 35 37  2  0  0  0  0
 35 38  1  0  0  0  0
  5  6  2  0  0  0  0
 11 12  1  0  0  0  0
 21 22  1  0  0  0  0
 30 34  1  0  0  0  0
 31 33  1  0  0  0  0
 36 37  1  0  0  0  0
M  END
>  <MolRegNo>
592621

>  <m>
=

>  <Value>
500

>  <Unit>
nM

>  <Type>
IC50

>  <pValue>
6.3

>  <Ligand Efficiency>
0

>  <Binding Efficiency>
0

>  <Surface Efficiency>
0

>  <Assay Index>
451802

>  <Assay Category>


>  <Assay Organism>


>  <Target ID>
17045

>  <Target Name>
Cytochrome P450 3A4

>  <Target Organism>
Homo sapiens

>  <Target Description>
Target is a single protein chain

>  <Sequence Accession>
P08684

>  <Reference>
Bioorg Med Chem Lett 20 (2), 684-688 (2010)

>  <Pubmed ID>
20006500

>  <DOI>
10.1016/j.bmcl.2009.11.061

$$$$
592622
Actelion Java MolfileCreator 1.0

 39 44  0  0  0  0  0  0  0  0999 V2000
    0.0000   -0.0000   -0.0000 O   0  0  0  0  0  0  0  0  0  0  0  0
   -0.4025   -1.4323   -0.0000 C   0  0  0  0  0  0  0  0  0  0  0  0
    1.4914    0.0829   -0.0000 C   0  0  0  0  0  0  0  0  0  0  0  0
    0.8404   -2.2490   -0.0000 C   0  0  0  0  0  0  0  0  0  0  0  0
   -1.8229   -1.9531   -0.0000 C   0  0  0  0  0  0  0  0  0  0  0  0
    2.0123   -1.3139   -0.0000 C   0  0  0  0  0  0  0  0  0  0  0  0
    0.8996   -3.7404   -0.0000 C   0  0  0  0  0  0  0  0  0  0  0  0
   -0.3788   -4.5453   -0.0000 N   0  0  0  0  0  0  0  0  0  0  0  0
    2.2253   -4.4151   -0.0000 C   0  0  0  0  0  0  0  0  0  0  0  0
   -0.3196   -6.0249   -0.0000 C   0  0  0  0  0  0  0  0  0  0  0  0
    3.4800   -3.5984   -0.0000 C   0  0  0  0  0  0  0  0  0  0  0  0
    2.2845   -5.9066   -0.0000 C   0  0  0  0  0  0  0  0  0  0  0  0
   -1.5861   -6.8298   -0.0000 N   0  0  0  0  0  0  0  0  0  0  0  0
    1.0061   -6.6878   -0.0000 C   0  0  0  0  0  0  0  0  0  0  0  0
    4.7939   -4.2731   -0.0000 N   0  0  0  0  0  0  0  0  0  0  0  0
    3.3853   -2.0951   -0.0000 C   0  0  0  0  0  0  0  0  0  0  0  0
    1.0653   -8.1792   -0.0000 O   0  0  0  0  0  0  0  0  0  0  0  0
    6.0486   -3.4445   -0.0000 C   0  0  0  0  0  0  0  0  0  0  0  0
    4.6282   -1.2665   -0.0000 N   0  0  0  0  0  0  0  0  0  0  0  0
   -0.2131   -8.9723   -0.0000 C   0  0  0  0  0  0  0  0  0  0  0  0
    5.9658   -1.9412   -0.0000 C   0  0  0  0  0  0  0  0  0  0  0  0
    7.4809   -3.8351   -0.0000 C   0  0  0  0  0  0  0  0  0  0  0  0
   -0.2604  -10.4638   -0.0000 C   0  0  0  0  0  0  0  0  0  0  0  0
    7.3507   -1.3967   -0.0000 N   0  0  0  0  0  0  0  0  0  0  0  0
    8.2976   -2.5686   -0.0000 N   0  0  0  0  0  0  0  0  0  0  0  0
    8.0017   -5.2319   -0.0000 C   0  0  0  0  0  0  0  0  0  0  0  0
    0.9943  -11.2450   -0.0000 N   0  0  0  0  0  0  0  0  0  0  0  0
   -1.6098  -11.1385   -0.0000 C   0  0  0  0  0  0  0  0  0  0  0  0
   -2.8882  -10.3217   -0.0000 C   0  0  0  0  0  0  0  0  0  0  0  0
   -3.3972   -8.8895   -0.0000 C   0  0  0  0  0  0  0  0  0  0  0  0
   -4.1074  -11.2213   -0.0000 C   0  0  0  0  0  0  0  0  0  0  0  0
   -4.9004   -8.9013   -0.0000 N   0  0  0  0  0  0  0  0  0  0  0  0
   -3.4208   -7.3743   -0.0000 C   0  0  0  0  0  0  0  0  0  0  0  0
   -5.3502  -10.3454   -0.0000 C   0  0  0  0  0  0  0  0  0  0  0  0
   -4.2613  -12.7127   -0.0000 C   0  0  0  0  0  0  0  0  0  0  0  0
   -3.4445   -5.8592   -0.0000 N   0  0  0  0  0  0  0  0  0  0  0  0
   -6.7233  -10.9609   -0.0000 C   0  0  0  0  0  0  0  0  0  0  0  0
   -5.6462  -13.3283   -0.0000 C   0  0  0  0  0  0  0  0  0  0  0  0
   -6.8772  -12.4523   -0.0000 C   0  0  0  0  0  0  0  0  0  0  0  0
  1  2  1  0  0  0  0
  1  3  1  0  0  0  0
  2  4  2  0  0  0  0
  2  5  1  0  0  0  0
  3  6  2  0  0  0  0
  4  7  1  0  0  0  0
  7  8  2  0  0  0  0
  7  9  1  0  0  0  0
  8 10  1  0  0  0  0
  9 11  1  0  0  0  0
  9 12  2  0  0  0  0
 10 13  1  0  0  0  0
 10 14  2  0  0  0  0
 11 15  2  0  0  0  0
 11 16  1  0  0  0  0
 14 17  1  0  0  0  0
 15 18  1  0  0  0  0
 16 19  2  0  0  0  0
 17 20  1  0  0  0  0
 18 21  2  0  0  0  0
 18 22  1  0  0  0  0
 20 23  1  0  0  0  0
 21 24  1  0  0  0  0
 22 25  2  0  0  0  0
 22 26  1  0  0  0  0
 23 27  1  1  0  0  0
 23 28  1  0  0  0  0
 28 29  1  0  0  0  0
 29 30  2  0  0  0  0
 29 31  1  0  0  0  0
 30 32  1  0  0  0  0
 30 33  1  0  0  0  0
 31 34  2  0  0  0  0
 31 35  1  0  0  0  0
 33 36  3  0  0  0  0
 34 37  1  0  0  0  0
 35 38  2  0  0  0  0
 37 39  2  0  0  0  0
  4  6  1  0  0  0  0
 12 14  1  0  0  0  0
 19 21  1  0  0  0  0
 24 25  1  0  0  0  0
 32 34  1  0  0  0  0
 38 39  1  0  0  0  0
M  END
>  <MolRegNo>
592622

>  <m>
=

>  <Value>
1600

>  <Unit>
nM

>  <Type>
IC50

>  <pValue>
5.8

>  <Ligand Efficiency>
0

>  <Binding Efficiency>
0

>  <Surface Efficiency>
0

>  <Assay Index>
451802

>  <Assay Category>


>  <Assay Organism>


>  <Target ID>
17045

>  <Target Name>
Cytochrome P450 3A4

>  <Target Organism>
Homo sapiens

>  <Target Description>
Target is a single protein chain

>  <Sequence Accession>
P08684

>  <Reference>
Bioorg Med Chem Lett 20 (2), 684-688 (2010)

>  <Pubmed ID>
20006500

>  <DOI>
10.1016/j.bmcl.2009.11.061

$$$$
592652
Actelion Java MolfileCreator 1.0

 40 45  0  0  0  0  0  0  0  0999 V2000
    0.0000   -0.0000   -0.0000 O   0  0  0  0  0  0  0  0  0  0  0  0
    1.2888   -0.7331   -0.0000 C   0  0  0  0  0  0  0  0  0  0  0  0
    1.6671    0.7331   -0.0000 N   0  0  0  0  0  0  0  0  0  0  0  0
    1.2888   -2.2229   -0.0000 C   0  0  0  0  0  0  0  0  0  0  0  0
   -0.2128   -2.2347   -0.0000 N   0  0  0  0  0  0  0  0  0  0  0  0
    1.7736   -3.6299   -0.0000 C   0  0  0  0  0  0  0  0  0  0  0  0
   -0.6621   -3.6654   -0.0000 C   0  0  0  0  0  0  0  0  0  0  0  0
    0.5557   -4.5285   -0.0000 C   0  0  0  0  0  0  0  0  0  0  0  0
    3.0269   -4.4221   -0.0000 C   0  0  0  0  0  0  0  0  0  0  0  0
   -2.0337   -4.2802   -0.0000 C   0  0  0  0  0  0  0  0  0  0  0  0
    0.4020   -6.0183   -0.0000 C   0  0  0  0  0  0  0  0  0  0  0  0
    4.3511   -3.7245   -0.0000 C   0  0  0  0  0  0  0  0  0  0  0  0
   -2.1874   -5.7700   -0.0000 C   0  0  0  0  0  0  0  0  0  0  0  0
   -0.9814   -6.6331   -0.0000 C   0  0  0  0  0  0  0  0  0  0  0  0
    5.6045   -4.5049   -0.0000 N   0  0  0  0  0  0  0  0  0  0  0  0
    4.3748   -2.2110   -0.0000 C   0  0  0  0  0  0  0  0  0  0  0  0
    5.6281   -1.3952   -0.0000 O   0  0  0  0  0  0  0  0  0  0  0  0
    5.5453    0.1182   -0.0000 C   0  0  0  0  0  0  0  0  0  0  0  0
    4.1974    0.8040   -0.0000 C   0  0  0  0  0  0  0  0  0  0  0  0
    6.7987    0.9341   -0.0000 C   0  0  0  0  0  0  0  0  0  0  0  0
    4.1147    2.3056   -0.0000 N   0  0  0  0  0  0  0  0  0  0  0  0
    2.9323   -0.0000   -0.0000 N   0  0  0  0  0  0  0  0  0  0  0  0
    6.7159    2.4475   -0.0000 C   0  0  0  0  0  0  0  0  0  0  0  0
    5.3680    3.1333   -0.0000 C   0  0  0  0  0  0  0  0  0  0  0  0
    7.9692    3.2634   -0.0000 C   0  0  0  0  0  0  0  0  0  0  0  0
    5.2852    4.6467   -0.0000 C   0  0  0  0  0  0  0  0  0  0  0  0
    9.2816    2.5894   -0.0000 N   0  0  0  0  0  0  0  0  0  0  0  0
    7.8746    4.7650   -0.0000 C   0  0  0  0  0  0  0  0  0  0  0  0
    4.0201    5.4862   -0.0000 C   0  0  0  0  0  0  0  0  0  0  0  0
    6.4439    5.6045   -0.0000 C   0  0  0  0  0  0  0  0  0  0  0  0
   10.5350    3.4171   -0.0000 C   0  0  0  0  0  0  0  0  0  0  0  0
    9.1161    5.5926   -0.0000 N   0  0  0  0  0  0  0  0  0  0  0  0
    4.3984    6.9405   -0.0000 O   0  0  0  0  0  0  0  0  0  0  0  0
    2.6012    4.9660   -0.0000 C   0  0  0  0  0  0  0  0  0  0  0  0
    5.9001    7.0233   -0.0000 C   0  0  0  0  0  0  0  0  0  0  0  0
   10.4522    4.9187   -0.0000 C   0  0  0  0  0  0  0  0  0  0  0  0
   11.9656    3.0387   -0.0000 C   0  0  0  0  0  0  0  0  0  0  0  0
   11.8356    5.4626   -0.0000 N   0  0  0  0  0  0  0  0  0  0  0  0
   12.7815    4.3038   -0.0000 N   0  0  0  0  0  0  0  0  0  0  0  0
   12.4859    1.6435   -0.0000 C   0  0  0  0  0  0  0  0  0  0  0  0
  1  2  2  0  0  0  0
  2  3  1  0  0  0  0
  2  4  1  0  0  0  0
  4  5  1  0  0  0  0
  4  6  2  0  0  0  0
  5  7  1  0  0  0  0
  6  8  1  0  0  0  0
  6  9  1  0  0  0  0
  7 10  1  0  0  0  0
  8 11  1  0  0  0  0
  9 12  1  0  0  0  0
 10 13  2  0  0  0  0
 11 14  2  0  0  0  0
 12 15  1  1  0  0  0
 12 16  1  0  0  0  0
 16 17  1  0  0  0  0
 17 18  1  0  0  0  0
 18 19  2  0  0  0  0
 18 20  1  0  0  0  0
 19 21  1  0  0  0  0
 19 22  1  0  0  0  0
 20 23  2  0  0  0  0
 21 24  2  0  0  0  0
 23 25  1  0  0  0  0
 24 26  1  0  0  0  0
 25 27  2  0  0  0  0
 25 28  1  0  0  0  0
 26 29  2  0  0  0  0
 26 30  1  0  0  0  0
 27 31  1  0  0  0  0
 28 32  2  0  0  0  0
 29 33  1  0  0  0  0
 29 34  1  0  0  0  0
 30 35  2  0  0  0  0
 31 36  2  0  0  0  0
 31 37  1  0  0  0  0
 36 38  1  0  0  0  0
 37 39  2  0  0  0  0
 37 40  1  0  0  0  0
  7  8  2  0  0  0  0
 13 14  1  0  0  0  0
 23 24  1  0  0  0  0
 32 36  1  0  0  0  0
 33 35  1  0  0  0  0
 38 39  1  0  0  0  0
M  END
>  <MolRegNo>
592652

>  <m>
=

>  <Value>
4000

>  <Unit>
nM

>  <Type>
IC50

>  <pValue>
5.4

>  <Ligand Efficiency>
0

>  <Binding Efficiency>
0

>  <Surface Efficiency>
0

>  <Assay Index>
451802

>  <Assay Category>


>  <Assay Organism>


>  <Target ID>
17045

>  <Target Name>
Cytochrome P450 3A4

>  <Target Organism>
Homo sapiens

>  <Target Description>
Target is a single protein chain

>  <Sequence Accession>
P08684

>  <Reference>
Bioorg Med Chem Lett 20 (2), 684-688 (2010)

>  <Pubmed ID>
20006500

>  <DOI>
10.1016/j.bmcl.2009.11.061

$$$$
541743
Actelion Java MolfileCreator 1.0

 21 25  0  0  1  0  0  0  0  0999 V2000
    0.0000   -0.0000   -0.0000 O   0  0  0  0  0  0  0  0  0  0  0  0
    1.4633   -0.2551   -0.0000 O   0  0  0  0  0  0  0  0  0  0  0  0
   -0.7384   -1.3156   -0.0000 C   0  0  0  0  0  0  0  0  0  0  0  0
    1.6513   -1.7318   -0.0000 C   0  0  0  0  0  0  0  0  0  0  0  0
    0.2819   -2.3896   -0.0000 O   0  0  0  0  0  0  0  0  0  0  0  0
   -1.8258   -2.3359   -0.0000 C   0  0  0  0  0  0  0  0  0  0  0  0
   -1.3156    0.0671   -0.0000 C   0  0  0  0  0  0  0  0  0  0  0  0
    1.6647   -3.2220   -0.0000 C   0  0  0  0  0  0  0  0  0  0  0  0
    2.9132   -0.9397   -0.0000 C   0  0  0  0  0  0  0  0  0  0  0  0
   -3.0340   -1.5976   -0.0000 C   0  0  0  0  0  0  0  0  0  0  0  0
   -3.4099   -2.4970   -0.0000 C   0  0  0  0  0  0  0  0  0  0  0  0
   -2.5776    0.6847   -0.0000 C   0  0  0  0  0  0  0  0  0  0  0  0
   -2.8998   -0.0537   -0.0000 C   0  0  0  0  0  0  0  0  0  0  0  0
    2.9669   -3.9335   -0.0000 C   0  0  0  0  0  0  0  0  0  0  0  0
    4.2154   -1.6513   -0.0000 C   0  0  0  0  0  0  0  0  0  0  0  0
   -3.6113   -0.3356   -0.0000 C   0  0  0  0  0  0  0  0  0  0  0  0
   -4.0006   -1.1143   -0.0000 C   0  0  0  0  0  0  0  0  0  0  0  0
    4.2422   -3.1414   -0.0000 C   0  0  0  0  0  0  0  0  0  0  0  0
   -5.3296   -0.3759   -0.0000 C   0  0  0  0  0  0  0  0  0  0  0  0
    5.5444   -3.8529   -0.0000 C   0  0  0  0  0  0  0  0  0  0  0  0
    5.5579   -5.3431   -0.0000 N   0  0  0  0  0  0  0  0  0  0  0  0
  1  2  1  0  0  0  0
  1  3  1  0  0  0  0
  4  2  1  6  0  0  0
  3  5  1  0  0  0  0
  3  6  1  0  0  0  0
  3  7  1  0  0  0  0
  4  8  1  0  0  0  0
  4  9  1  0  0  0  0
  6 10  1  0  0  0  0
  6 11  1  0  0  0  0
  7 12  1  0  0  0  0
  7 13  1  0  0  0  0
  8 14  1  0  0  0  0
  9 15  1  0  0  0  0
 10 16  1  0  0  0  0
 11 17  1  0  0  0  0
 14 18  1  0  0  0  0
 16 19  1  0  0  0  0
 18 20  1  6  0  0  0
 20 21  1  0  0  0  0
  4  5  1  0  0  0  0
 12 16  1  0  0  0  0
 13 17  1  0  0  0  0
 15 18  1  0  0  0  0
 17 19  1  0  0  0  0
M  END
>  <MolRegNo>
541743

>  <m>
=

>  <Value>
9700

>  <Unit>
nM

>  <Type>
IC50

>  <pValue>
5.01

>  <Ligand Efficiency>
0

>  <Binding Efficiency>
0

>  <Surface Efficiency>
0

>  <Assay Index>
449673

>  <Assay Category>


>  <Assay Organism>


>  <Target ID>
17045

>  <Target Name>
Cytochrome P450 3A4

>  <Target Organism>
Homo sapiens

>  <Target Description>
Target is a single protein chain

>  <Sequence Accession>
P08684

>  <Reference>
Bioorg Med Chem Lett 20 (2), 563-566 (2010)

>  <Pubmed ID>
19962893

>  <DOI>
10.1016/j.bmcl.2009.11.088

$$$$
595096
Actelion Java MolfileCreator 1.0

 50 55  0  0  0  0  0  0  0  0999 V2000
    0.0000   -0.0000   -0.0000 S   0  0  0  0  0  0  0  0  0  0  0  0
   -0.4651   -1.4192   -0.0000 C   0  0  0  0  0  0  0  0  0  0  0  0
    1.4549    0.3339   -0.0000 C   0  0  0  0  0  0  0  0  0  0  0  0
   -1.9201   -1.8723   -0.0000 C   0  0  0  0  0  0  0  0  0  0  0  0
    0.4174   -2.6237   -0.0000 C   0  0  0  0  0  0  0  0  0  0  0  0
    1.8962    1.7769   -0.0000 C   0  0  0  0  0  0  0  0  0  0  0  0
    2.4448   -0.7633   -0.0000 C   0  0  0  0  0  0  0  0  0  0  0  0
    2.8860    0.7513   -0.0000 C   0  0  0  0  0  0  0  0  0  0  0  0
   -1.9320   -3.3750   -0.0000 C   0  0  0  0  0  0  0  0  0  0  0  0
   -3.2319   -1.1210   -0.0000 C   0  0  0  0  0  0  0  0  0  0  0  0
   -0.4770   -3.8401   -0.0000 N   0  0  0  0  0  0  0  0  0  0  0  0
    1.9081   -2.5998   -0.0000 C   0  0  0  0  0  0  0  0  0  0  0  0
   -3.2438   -4.1144   -0.0000 C   0  0  0  0  0  0  0  0  0  0  0  0
   -4.5437   -1.8604   -0.0000 C   0  0  0  0  0  0  0  0  0  0  0  0
   -0.0119   -5.2473   -0.0000 C   0  0  0  0  0  0  0  0  0  0  0  0
    2.6475   -3.8878   -0.0000 C   0  0  0  0  0  0  0  0  0  0  0  0
   -4.5557   -3.3511   -0.0000 C   0  0  0  0  0  0  0  0  0  0  0  0
   -5.8556   -1.0972   -0.0000 O   0  0  0  0  0  0  0  0  0  0  0  0
   -0.7990   -6.5234   -0.0000 C   0  0  0  0  0  0  0  0  0  0  0  0
    4.1382   -3.8640   -0.0000 C   0  0  0  0  0  0  0  0  0  0  0  0
    1.8962   -5.1758   -0.0000 C   0  0  0  0  0  0  0  0  0  0  0  0
    3.0172   -5.3189   -0.0000 C   0  0  0  0  0  0  0  0  0  0  0  0
   -7.1674   -1.8366   -0.0000 C   0  0  0  0  0  0  0  0  0  0  0  0
   -2.3136   -6.4757   -0.0000 C   0  0  0  0  0  0  0  0  0  0  0  0
   -0.0835   -7.8114   -0.0000 C   0  0  0  0  0  0  0  0  0  0  0  0
    4.8657   -2.5521   -0.0000 O   0  0  0  0  0  0  0  0  0  0  0  0
    4.8776   -5.1519   -0.0000 O   0  0  0  0  0  0  0  0  0  0  0  0
   -8.4792   -1.0733   -0.0000 C   0  0  0  0  0  0  0  0  0  0  0  0
   -3.1007   -7.7518   -0.0000 C   0  0  0  0  0  0  0  0  0  0  0  0
   -0.8587   -9.0875   -0.0000 C   0  0  0  0  0  0  0  0  0  0  0  0
   -9.6957   -1.9439   -0.0000 N   0  0  0  0  0  0  0  0  0  0  0  0
   -8.9563    0.3697   -0.0000 C   0  0  0  0  0  0  0  0  0  0  0  0
   -2.3852   -9.0517   -0.0000 C   0  0  0  0  0  0  0  0  0  0  0  0
  -10.9240   -1.0614   -0.0000 C   0  0  0  0  0  0  0  0  0  0  0  0
   -9.7076   -3.4346   -0.0000 C   0  0  0  0  0  0  0  0  0  0  0  0
  -10.4708    0.3697   -0.0000 C   0  0  0  0  0  0  0  0  0  0  0  0
   -3.1723  -10.3158   -0.0000 C   0  0  0  0  0  0  0  0  0  0  0  0
  -12.3790   -1.3834   -0.0000 C   0  0  0  0  0  0  0  0  0  0  0  0
  -11.0194   -4.1740   -0.0000 O   0  0  0  0  0  0  0  0  0  0  0  0
   -8.4196   -4.1740   -0.0000 C   0  0  0  0  0  0  0  0  0  0  0  0
  -11.4965    1.4788   -0.0000 C   0  0  0  0  0  0  0  0  0  0  0  0
   -2.4448  -11.6038   -0.0000 N   0  0  0  0  0  0  0  0  0  0  0  0
   -4.6749  -10.2800   -0.0000 N   0  0  0  0  0  0  0  0  0  0  0  0
  -13.4046   -0.2862   -0.0000 C   0  0  0  0  0  0  0  0  0  0  0  0
  -12.9633    1.1568   -0.0000 C   0  0  0  0  0  0  0  0  0  0  0  0
   -3.2200  -12.8799   -0.0000 C   0  0  0  0  0  0  0  0  0  0  0  0
   -5.4620  -11.5561   -0.0000 C   0  0  0  0  0  0  0  0  0  0  0  0
   -4.7345  -12.8441   -0.0000 C   0  0  0  0  0  0  0  0  0  0  0  0
   -5.5216  -14.1201   -0.0000 O   0  0  0  0  0  0  0  0  0  0  0  0
   -7.0362  -14.0844   -0.0000 C   0  0  0  0  0  0  0  0  0  0  0  0
  1  2  1  0  0  0  0
  1  3  1  0  0  0  0
  2  4  1  0  0  0  0
  2  5  2  0  0  0  0
  3  6  1  0  0  0  0
  3  7  1  0  0  0  0
  3  8  1  0  0  0  0
  4  9  2  0  0  0  0
  4 10  1  0  0  0  0
  5 11  1  0  0  0  0
  5 12  1  0  0  0  0
  9 13  1  0  0  0  0
 10 14  2  0  0  0  0
 11 15  1  0  0  0  0
 12 16  1  0  0  0  0
 13 17  2  0  0  0  0
 14 18  1  0  0  0  0
 15 19  1  0  0  0  0
 16 20  1  0  0  0  0
 16 21  1  0  0  0  0
 16 22  1  0  0  0  0
 18 23  1  0  0  0  0
 19 24  2  0  0  0  0
 19 25  1  0  0  0  0
 20 26  2  0  0  0  0
 20 27  1  0  0  0  0
 28 23  1  6  0  0  0
 24 29  1  0  0  0  0
 25 30  2  0  0  0  0
 28 31  1  0  0  0  0
 28 32  1  0  0  0  0
 29 33  2  0  0  0  0
 31 34  1  0  0  0  0
 31 35  1  0  0  0  0
 32 36  1  0  0  0  0
 33 37  1  0  0  0  0
 34 38  1  0  0  0  0
 35 39  2  0  0  0  0
 35 40  1  0  0  0  0
 36 41  1  0  0  0  0
 37 42  2  0  0  0  0
 37 43  1  0  0  0  0
 38 44  2  0  0  0  0
 41 45  2  0  0  0  0
 42 46  1  0  0  0  0
 43 47  2  0  0  0  0
 46 48  2  0  0  0  0
 48 49  1  0  0  0  0
 49 50  1  0  0  0  0
  9 11  1  0  0  0  0
 14 17  1  0  0  0  0
 30 33  1  0  0  0  0
 34 36  2  0  0  0  0
 44 45  1  0  0  0  0
 47 48  1  0  0  0  0
M  END
>  <MolRegNo>
595096

>  <m>
=

>  <Value>
16700

>  <Unit>
nM

>  <Type>
IC50

>  <pValue>
4.78

>  <Ligand Efficiency>
0

>  <Binding Efficiency>
0

>  <Surface Efficiency>
0

>  <Assay Index>
451794

>  <Assay Category>


>  <Assay Organism>


>  <Target ID>
17045

>  <Target Name>
Cytochrome P450 3A4

>  <Target Organism>
Homo sapiens

>  <Target Description>
Target is a single protein chain

>  <Sequence Accession>
P08684

>  <Reference>
Bioorg Med Chem Lett 20 (1), 213-217 (2010)

>  <Pubmed ID>
19914828

>  <DOI>
10.1016/j.bmcl.2009.10.131

$$$$
591470
Actelion Java MolfileCreator 1.0

 28 31  0  0  0  0  0  0  0  0999 V2000
    0.0000   -0.0000   -0.0000 F   0  0  0  0  0  0  0  0  0  0  0  0
   -1.5012   -0.0118   -0.0000 C   0  0  0  0  0  0  0  0  0  0  0  0
   -2.2814    1.2766   -0.0000 F   0  0  0  0  0  0  0  0  0  0  0  0
   -0.7802    1.3003   -0.0000 F   0  0  0  0  0  0  0  0  0  0  0  0
   -2.2459   -1.3003   -0.0000 C   0  0  0  0  0  0  0  0  0  0  0  0
   -3.7472   -1.3121   -0.0000 C   0  0  0  0  0  0  0  0  0  0  0  0
   -1.4894   -2.5651   -0.0000 C   0  0  0  0  0  0  0  0  0  0  0  0
   -4.5155   -0.0118   -0.0000 O   0  0  0  0  0  0  0  0  0  0  0  0
   -4.4919   -2.6006   -0.0000 C   0  0  0  0  0  0  0  0  0  0  0  0
   -2.2341   -3.8654   -0.0000 C   0  0  0  0  0  0  0  0  0  0  0  0
   -6.0168   -0.0118   -0.0000 C   0  0  0  0  0  0  0  0  0  0  0  0
   -3.7472   -3.8772   -0.0000 C   0  0  0  0  0  0  0  0  0  0  0  0
   -6.7615   -1.3003   -0.0000 C   0  0  0  0  0  0  0  0  0  0  0  0
   -6.7851    1.2885   -0.0000 C   0  0  0  0  0  0  0  0  0  0  0  0
   -8.2627   -1.3121   -0.0000 C   0  0  0  0  0  0  0  0  0  0  0  0
   -8.2982    1.2885   -0.0000 C   0  0  0  0  0  0  0  0  0  0  0  0
   -9.0311   -0.0118   -0.0000 N   0  0  0  0  0  0  0  0  0  0  0  0
  -10.5323   -0.0118   -0.0000 C   0  0  0  0  0  0  0  0  0  0  0  0
  -11.2770   -1.3003   -0.0000 N   0  0  0  0  0  0  0  0  0  0  0  0
  -11.3125    1.2885   -0.0000 C   0  0  0  0  0  0  0  0  0  0  0  0
  -12.7901   -1.3121   -0.0000 N   0  0  0  0  0  0  0  0  0  0  0  0
  -12.8255    1.2766   -0.0000 C   0  0  0  0  0  0  0  0  0  0  0  0
  -13.5703   -0.0236   -0.0000 C   0  0  0  0  0  0  0  0  0  0  0  0
  -15.0715   -0.0473   -0.0000 N   0  0  0  0  0  0  0  0  0  0  0  0
  -15.9817    1.1584   -0.0000 C   0  0  0  0  0  0  0  0  0  0  0  0
  -15.9344   -1.2530   -0.0000 C   0  0  0  0  0  0  0  0  0  0  0  0
  -17.4002    0.6856   -0.0000 N   0  0  0  0  0  0  0  0  0  0  0  0
  -17.3766   -0.8038   -0.0000 C   0  0  0  0  0  0  0  0  0  0  0  0
  1  2  1  0  0  0  0
  2  3  1  0  0  0  0
  2  4  1  0  0  0  0
  2  5  1  0  0  0  0
  5  6  2  0  0  0  0
  5  7  1  0  0  0  0
  6  8  1  0  0  0  0
  6  9  1  0  0  0  0
  7 10  2  0  0  0  0
  8 11  1  0  0  0  0
  9 12  2  0  0  0  0
 11 13  1  0  0  0  0
 11 14  1  0  0  0  0
 13 15  1  0  0  0  0
 14 16  1  0  0  0  0
 15 17  1  0  0  0  0
 17 18  1  0  0  0  0
 18 19  2  0  0  0  0
 18 20  1  0  0  0  0
 19 21  1  0  0  0  0
 20 22  2  0  0  0  0
 21 23  2  0  0  0  0
 23 24  1  0  0  0  0
 24 25  1  0  0  0  0
 24 26  1  0  0  0  0
 25 27  2  0  0  0  0
 26 28  2  0  0  0  0
 10 12  1  0  0  0  0
 16 17  1  0  0  0  0
 22 23  1  0  0  0  0
 27 28  1  0  0  0  0
M  END
>  <MolRegNo>
591470

>  <m>
=

>  <Value>
400

>  <Unit>
nM

>  <Type>
IC50

>  <pValue>
6.4

>  <Ligand Efficiency>
0

>  <Binding Efficiency>
0

>  <Surface Efficiency>
0

>  <Assay Index>
450232

>  <Assay Category>


>  <Assay Organism>


>  <Target ID>
17045

>  <Target Name>
Cytochrome P450 3A4

>  <Target Organism>
Homo sapiens

>  <Target Description>
Target is a single protein chain

>  <Sequence Accession>
P08684

>  <Reference>
Bioorg Med Chem Lett 20 (2), 499-502 (2010)

>  <Pubmed ID>
20004097

>  <DOI>
10.1016/j.bmcl.2009.11.111

$$$$
591570
Actelion Java MolfileCreator 1.0

 35 40  0  0  0  0  0  0  0  0999 V2000
    0.0000   -0.0000   -0.0000 O   0  0  0  0  0  0  0  0  0  0  0  0
    0.8762   -1.2078   -0.0000 C   0  0  0  0  0  0  0  0  0  0  0  0
   -1.4446   -0.4500   -0.0000 C   0  0  0  0  0  0  0  0  0  0  0  0
   -0.0237   -2.4156   -0.0000 C   0  0  0  0  0  0  0  0  0  0  0  0
   -1.4565   -1.9419   -0.0000 C   0  0  0  0  0  0  0  0  0  0  0  0
    0.4263   -3.8365   -0.0000 C   0  0  0  0  0  0  0  0  0  0  0  0
    1.8827   -4.1325   -0.0000 N   0  0  0  0  0  0  0  0  0  0  0  0
   -0.5921   -4.9377   -0.0000 C   0  0  0  0  0  0  0  0  0  0  0  0
    2.3327   -5.5535   -0.0000 C   0  0  0  0  0  0  0  0  0  0  0  0
   -2.0722   -4.6180   -0.0000 C   0  0  0  0  0  0  0  0  0  0  0  0
   -0.1421   -6.3587   -0.0000 C   0  0  0  0  0  0  0  0  0  0  0  0
    1.3144   -6.6547   -0.0000 C   0  0  0  0  0  0  0  0  0  0  0  0
   -2.5458   -3.1734   -0.0000 C   0  0  0  0  0  0  0  0  0  0  0  0
   -3.0905   -5.7192   -0.0000 C   0  0  0  0  0  0  0  0  0  0  0  0
    1.7643   -8.0756   -0.0000 O   0  0  0  0  0  0  0  0  0  0  0  0
   -4.0260   -2.8537   -0.0000 C   0  0  0  0  0  0  0  0  0  0  0  0
   -4.5707   -5.3995   -0.0000 C   0  0  0  0  0  0  0  0  0  0  0  0
    3.2208   -8.3716   -0.0000 C   0  0  0  0  0  0  0  0  0  0  0  0
   -5.0443   -3.9549   -0.0000 C   0  0  0  0  0  0  0  0  0  0  0  0
   -4.7838   -1.5393   -0.0000 C   0  0  0  0  0  0  0  0  0  0  0  0
    3.6707   -9.7926   -0.0000 C   0  0  0  0  0  0  0  0  0  0  0  0
   -6.4297   -3.3273   -0.0000 N   0  0  0  0  0  0  0  0  0  0  0  0
   -6.2639   -1.8354   -0.0000 N   0  0  0  0  0  0  0  0  0  0  0  0
   -4.1799   -0.1539   -0.0000 C   0  0  0  0  0  0  0  0  0  0  0  0
    2.6524  -10.8938   -0.0000 N   0  0  0  0  0  0  0  0  0  0  0  0
    5.1272  -10.0886   -0.0000 C   0  0  0  0  0  0  0  0  0  0  0  0
    5.5771  -11.5095   -0.0000 C   0  0  0  0  0  0  0  0  0  0  0  0
    6.9981  -11.9595   -0.0000 C   0  0  0  0  0  0  0  0  0  0  0  0
    4.6772  -12.7173   -0.0000 C   0  0  0  0  0  0  0  0  0  0  0  0
    6.9862  -13.4515   -0.0000 C   0  0  0  0  0  0  0  0  0  0  0  0
    8.2887  -11.2016   -0.0000 C   0  0  0  0  0  0  0  0  0  0  0  0
    5.5535  -13.9251   -0.0000 N   0  0  0  0  0  0  0  0  0  0  0  0
    8.2769  -14.1974   -0.0000 C   0  0  0  0  0  0  0  0  0  0  0  0
    9.5794  -11.9358   -0.0000 C   0  0  0  0  0  0  0  0  0  0  0  0
    9.5676  -13.4278   -0.0000 C   0  0  0  0  0  0  0  0  0  0  0  0
  1  2  1  0  0  0  0
  1  3  1  0  0  0  0
  2  4  2  0  0  0  0
  3  5  2  0  0  0  0
  4  6  1  0  0  0  0
  6  7  2  0  0  0  0
  6  8  1  0  0  0  0
  7  9  1  0  0  0  0
  8 10  1  0  0  0  0
  8 11  2  0  0  0  0
  9 12  2  0  0  0  0
 10 13  2  0  0  0  0
 10 14  1  0  0  0  0
 12 15  1  0  0  0  0
 13 16  1  0  0  0  0
 14 17  2  0  0  0  0
 15 18  1  0  0  0  0
 16 19  1  0  0  0  0
 16 20  2  0  0  0  0
 18 21  1  0  0  0  0
 19 22  2  0  0  0  0
 20 23  1  0  0  0  0
 20 24  1  0  0  0  0
 21 25  1  6  0  0  0
 21 26  1  0  0  0  0
 26 27  1  0  0  0  0
 27 28  1  0  0  0  0
 27 29  2  0  0  0  0
 28 30  2  0  0  0  0
 28 31  1  0  0  0  0
 29 32  1  0  0  0  0
 30 33  1  0  0  0  0
 31 34  2  0  0  0  0
 33 35  2  0  0  0  0
  4  5  1  0  0  0  0
 11 12  1  0  0  0  0
 17 19  1  0  0  0  0
 22 23  1  0  0  0  0
 30 32  1  0  0  0  0
 34 35  1  0  0  0  0
M  END
>  <MolRegNo>
591570

>  <m>
=

>  <Value>
50

>  <Unit>
nM

>  <Type>
IC50

>  <pValue>
7.3

>  <Ligand Efficiency>
0

>  <Binding Efficiency>
0

>  <Surface Efficiency>
0

>  <Assay Index>
450772

>  <Assay Category>


>  <Assay Organism>


>  <Target ID>
17045

>  <Target Name>
Cytochrome P450 3A4

>  <Target Organism>
Homo sapiens

>  <Target Description>
Target is a single protein chain

>  <Sequence Accession>
P08684

>  <Reference>
Bioorg Med Chem Lett 20 (2), 679-683 (2010)

>  <Pubmed ID>
20005102

>  <DOI>
10.1016/j.bmcl.2009.11.060

$$$$
591613
Actelion Java MolfileCreator 1.0

 35 40  0  0  0  0  0  0  0  0999 V2000
    0.0000   -0.0000   -0.0000 O   0  0  0  0  0  0  0  0  0  0  0  0
    0.4639   -1.4156   -0.0000 C   0  0  0  0  0  0  0  0  0  0  0  0
   -1.5108   -0.0000   -0.0000 C   0  0  0  0  0  0  0  0  0  0  0  0
   -0.7613   -2.2959   -0.0000 C   0  0  0  0  0  0  0  0  0  0  0  0
   -1.9747   -1.4156   -0.0000 C   0  0  0  0  0  0  0  0  0  0  0  0
   -0.7613   -3.7829   -0.0000 C   0  0  0  0  0  0  0  0  0  0  0  0
   -2.0580   -4.5205   -0.0000 N   0  0  0  0  0  0  0  0  0  0  0  0
    0.5353   -4.5086   -0.0000 C   0  0  0  0  0  0  0  0  0  0  0  0
   -2.0699   -6.0075   -0.0000 C   0  0  0  0  0  0  0  0  0  0  0  0
    1.8082   -3.7472   -0.0000 C   0  0  0  0  0  0  0  0  0  0  0  0
    0.5234   -6.0075   -0.0000 C   0  0  0  0  0  0  0  0  0  0  0  0
   -0.7851   -6.7450   -0.0000 C   0  0  0  0  0  0  0  0  0  0  0  0
    1.7844   -2.2364   -0.0000 C   0  0  0  0  0  0  0  0  0  0  0  0
    3.1049   -4.4848   -0.0000 C   0  0  0  0  0  0  0  0  0  0  0  0
   -0.7970   -8.2320   -0.0000 O   0  0  0  0  0  0  0  0  0  0  0  0
    3.0573   -1.4632   -0.0000 N   0  0  0  0  0  0  0  0  0  0  0  0
    4.3896   -3.7116   -0.0000 C   0  0  0  0  0  0  0  0  0  0  0  0
   -2.1056   -8.9696   -0.0000 C   0  0  0  0  0  0  0  0  0  0  0  0
    4.3539   -2.1889   -0.0000 C   0  0  0  0  0  0  0  0  0  0  0  0
    5.8052   -4.1517   -0.0000 C   0  0  0  0  0  0  0  0  0  0  0  0
   -3.4142   -8.2082   -0.0000 C   0  0  0  0  0  0  0  0  0  0  0  0
    5.7577   -1.7130   -0.0000 N   0  0  0  0  0  0  0  0  0  0  0  0
    6.6737   -2.9264   -0.0000 N   0  0  0  0  0  0  0  0  0  0  0  0
    6.2573   -5.5673   -0.0000 C   0  0  0  0  0  0  0  0  0  0  0  0
   -3.4260   -6.6974   -0.0000 N   0  0  0  0  0  0  0  0  0  0  0  0
   -4.7227   -8.9458   -0.0000 C   0  0  0  0  0  0  0  0  0  0  0  0
   -6.0313   -8.1844   -0.0000 C   0  0  0  0  0  0  0  0  0  0  0  0
   -7.5064   -8.5056   -0.0000 C   0  0  0  0  0  0  0  0  0  0  0  0
   -5.9123   -6.6737   -0.0000 C   0  0  0  0  0  0  0  0  0  0  0  0
   -8.2915   -7.2090   -0.0000 C   0  0  0  0  0  0  0  0  0  0  0  0
   -8.2320   -9.8023   -0.0000 C   0  0  0  0  0  0  0  0  0  0  0  0
   -7.3041   -6.0789   -0.0000 N   0  0  0  0  0  0  0  0  0  0  0  0
   -9.8023   -7.2209   -0.0000 C   0  0  0  0  0  0  0  0  0  0  0  0
   -9.7309   -9.8261   -0.0000 C   0  0  0  0  0  0  0  0  0  0  0  0
  -10.5399   -8.5175   -0.0000 C   0  0  0  0  0  0  0  0  0  0  0  0
  1  2  1  0  0  0  0
  1  3  1  0  0  0  0
  2  4  2  0  0  0  0
  3  5  2  0  0  0  0
  4  6  1  0  0  0  0
  6  7  2  0  0  0  0
  6  8  1  0  0  0  0
  7  9  1  0  0  0  0
  8 10  1  0  0  0  0
  8 11  2  0  0  0  0
  9 12  2  0  0  0  0
 10 13  2  0  0  0  0
 10 14  1  0  0  0  0
 12 15  1  0  0  0  0
 13 16  1  0  0  0  0
 14 17  2  0  0  0  0
 15 18  1  0  0  0  0
 16 19  2  0  0  0  0
 17 20  1  0  0  0  0
 18 21  1  0  0  0  0
 19 22  1  0  0  0  0
 20 23  2  0  0  0  0
 20 24  1  0  0  0  0
 21 25  1  6  0  0  0
 21 26  1  0  0  0  0
 26 27  1  0  0  0  0
 27 28  1  0  0  0  0
 27 29  2  0  0  0  0
 28 30  2  0  0  0  0
 28 31  1  0  0  0  0
 29 32  1  0  0  0  0
 30 33  1  0  0  0  0
 31 34  2  0  0  0  0
 33 35  2  0  0  0  0
  4  5  1  0  0  0  0
 11 12  1  0  0  0  0
 17 19  1  0  0  0  0
 22 23  1  0  0  0  0
 30 32  1  0  0  0  0
 34 35  1  0  0  0  0
M  END
>  <MolRegNo>
591613

>  <m>
=

>  <Value>
200

>  <Unit>
nM

>  <Type>
IC50

>  <pValue>
6.7

>  <Ligand Efficiency>
0

>  <Binding Efficiency>
0

>  <Surface Efficiency>
0

>  <Assay Index>
450772

>  <Assay Category>


>  <Assay Organism>


>  <Target ID>
17045

>  <Target Name>
Cytochrome P450 3A4

>  <Target Organism>
Homo sapiens

>  <Target Description>
Target is a single protein chain

>  <Sequence Accession>
P08684

>  <Reference>
Bioorg Med Chem Lett 20 (2), 679-683 (2010)

>  <Pubmed ID>
20005102

>  <DOI>
10.1016/j.bmcl.2009.11.060

$$$$
591614
Actelion Java MolfileCreator 1.0

 35 40  0  0  0  0  0  0  0  0999 V2000
    0.0000   -0.0000   -0.0000 O   0  0  0  0  0  0  0  0  0  0  0  0
    0.4640   -1.4159   -0.0000 C   0  0  0  0  0  0  0  0  0  0  0  0
   -1.5111   -0.0000   -0.0000 C   0  0  0  0  0  0  0  0  0  0  0  0
   -0.7615   -2.2964   -0.0000 C   0  0  0  0  0  0  0  0  0  0  0  0
   -1.9752   -1.4159   -0.0000 C   0  0  0  0  0  0  0  0  0  0  0  0
   -0.7615   -3.7837   -0.0000 C   0  0  0  0  0  0  0  0  0  0  0  0
   -2.0584   -4.5214   -0.0000 N   0  0  0  0  0  0  0  0  0  0  0  0
    0.5354   -4.5095   -0.0000 C   0  0  0  0  0  0  0  0  0  0  0  0
   -2.0703   -6.0087   -0.0000 C   0  0  0  0  0  0  0  0  0  0  0  0
    1.8086   -3.7480   -0.0000 C   0  0  0  0  0  0  0  0  0  0  0  0
    0.5235   -6.0087   -0.0000 C   0  0  0  0  0  0  0  0  0  0  0  0
   -0.7853   -6.7464   -0.0000 C   0  0  0  0  0  0  0  0  0  0  0  0
    3.1055   -4.4857   -0.0000 N   0  0  0  0  0  0  0  0  0  0  0  0
    1.7848   -2.2369   -0.0000 C   0  0  0  0  0  0  0  0  0  0  0  0
   -0.7972   -8.2338   -0.0000 O   0  0  0  0  0  0  0  0  0  0  0  0
    4.3905   -3.7123   -0.0000 C   0  0  0  0  0  0  0  0  0  0  0  0
    3.0579   -1.4635   -0.0000 C   0  0  0  0  0  0  0  0  0  0  0  0
   -2.1060   -8.9715   -0.0000 C   0  0  0  0  0  0  0  0  0  0  0  0
    4.3667   -2.2012   -0.0000 C   0  0  0  0  0  0  0  0  0  0  0  0
    5.8065   -4.1526   -0.0000 C   0  0  0  0  0  0  0  0  0  0  0  0
   -3.4149   -8.2100   -0.0000 C   0  0  0  0  0  0  0  0  0  0  0  0
    5.7708   -1.7253   -0.0000 N   0  0  0  0  0  0  0  0  0  0  0  0
    6.6751   -2.9270   -0.0000 N   0  0  0  0  0  0  0  0  0  0  0  0
    6.2586   -5.5685   -0.0000 C   0  0  0  0  0  0  0  0  0  0  0  0
   -3.4268   -6.6989   -0.0000 N   0  0  0  0  0  0  0  0  0  0  0  0
   -4.7237   -8.9477   -0.0000 C   0  0  0  0  0  0  0  0  0  0  0  0
   -6.0325   -8.1862   -0.0000 C   0  0  0  0  0  0  0  0  0  0  0  0
   -7.5080   -8.5074   -0.0000 C   0  0  0  0  0  0  0  0  0  0  0  0
   -5.9136   -6.6751   -0.0000 C   0  0  0  0  0  0  0  0  0  0  0  0
   -8.2933   -7.2105   -0.0000 C   0  0  0  0  0  0  0  0  0  0  0  0
   -8.2338   -9.8044   -0.0000 C   0  0  0  0  0  0  0  0  0  0  0  0
   -7.3057   -6.0801   -0.0000 N   0  0  0  0  0  0  0  0  0  0  0  0
   -9.8044   -7.2224   -0.0000 C   0  0  0  0  0  0  0  0  0  0  0  0
   -9.7330   -9.8282   -0.0000 C   0  0  0  0  0  0  0  0  0  0  0  0
  -10.5421   -8.5193   -0.0000 C   0  0  0  0  0  0  0  0  0  0  0  0
  1  2  1  0  0  0  0
  1  3  1  0  0  0  0
  2  4  2  0  0  0  0
  3  5  2  0  0  0  0
  4  6  1  0  0  0  0
  6  7  2  0  0  0  0
  6  8  1  0  0  0  0
  7  9  1  0  0  0  0
  8 10  1  0  0  0  0
  8 11  2  0  0  0  0
  9 12  2  0  0  0  0
 10 13  2  0  0  0  0
 10 14  1  0  0  0  0
 12 15  1  0  0  0  0
 13 16  1  0  0  0  0
 14 17  2  0  0  0  0
 15 18  1  0  0  0  0
 16 19  2  0  0  0  0
 16 20  1  0  0  0  0
 18 21  1  0  0  0  0
 19 22  1  0  0  0  0
 20 23  2  0  0  0  0
 20 24  1  0  0  0  0
 21 25  1  6  0  0  0
 21 26  1  0  0  0  0
 26 27  1  0  0  0  0
 27 28  1  0  0  0  0
 27 29  2  0  0  0  0
 28 30  2  0  0  0  0
 28 31  1  0  0  0  0
 29 32  1  0  0  0  0
 30 33  1  0  0  0  0
 31 34  2  0  0  0  0
 33 35  2  0  0  0  0
  4  5  1  0  0  0  0
 11 12  1  0  0  0  0
 17 19  1  0  0  0  0
 22 23  1  0  0  0  0
 30 32  1  0  0  0  0
 34 35  1  0  0  0  0
M  END
>  <MolRegNo>
591614

>  <m>
=

>  <Value>
100

>  <Unit>
nM

>  <Type>
IC50

>  <pValue>
7

>  <Ligand Efficiency>
0

>  <Binding Efficiency>
0

>  <Surface Efficiency>
0

>  <Assay Index>
450772

>  <Assay Category>


>  <Assay Organism>


>  <Target ID>
17045

>  <Target Name>
Cytochrome P450 3A4

>  <Target Organism>
Homo sapiens

>  <Target Description>
Target is a single protein chain

>  <Sequence Accession>
P08684

>  <Reference>
Bioorg Med Chem Lett 20 (2), 679-683 (2010)

>  <Pubmed ID>
20005102

>  <DOI>
10.1016/j.bmcl.2009.11.060

$$$$
591615
Actelion Java MolfileCreator 1.0

 35 40  0  0  0  0  0  0  0  0999 V2000
    0.0000   -0.0000   -0.0000 O   0  0  0  0  0  0  0  0  0  0  0  0
   -0.4046   -1.4399   -0.0000 C   0  0  0  0  0  0  0  0  0  0  0  0
    1.4875    0.0833   -0.0000 C   0  0  0  0  0  0  0  0  0  0  0  0
    0.8330   -2.2492   -0.0000 C   0  0  0  0  0  0  0  0  0  0  0  0
    2.0112   -1.3090   -0.0000 C   0  0  0  0  0  0  0  0  0  0  0  0
    0.8925   -3.7367   -0.0000 C   0  0  0  0  0  0  0  0  0  0  0  0
   -0.3927   -4.5459   -0.0000 N   0  0  0  0  0  0  0  0  0  0  0  0
    2.2135   -4.4150   -0.0000 C   0  0  0  0  0  0  0  0  0  0  0  0
   -0.3332   -6.0335   -0.0000 C   0  0  0  0  0  0  0  0  0  0  0  0
    3.4630   -3.5939   -0.0000 C   0  0  0  0  0  0  0  0  0  0  0  0
    2.2730   -5.9026   -0.0000 C   0  0  0  0  0  0  0  0  0  0  0  0
    0.9877   -6.6999   -0.0000 C   0  0  0  0  0  0  0  0  0  0  0  0
    4.7839   -4.2722   -0.0000 N   0  0  0  0  0  0  0  0  0  0  0  0
    3.3678   -2.0826   -0.0000 C   0  0  0  0  0  0  0  0  0  0  0  0
    1.0472   -8.1874   -0.0000 O   0  0  0  0  0  0  0  0  0  0  0  0
    6.0335   -3.4511   -0.0000 C   0  0  0  0  0  0  0  0  0  0  0  0
    4.6173   -1.2614   -0.0000 N   0  0  0  0  0  0  0  0  0  0  0  0
   -0.2261   -8.9848   -0.0000 C   0  0  0  0  0  0  0  0  0  0  0  0
    5.9502   -1.9398   -0.0000 C   0  0  0  0  0  0  0  0  0  0  0  0
    7.4615   -3.8319   -0.0000 C   0  0  0  0  0  0  0  0  0  0  0  0
   -1.5708   -8.2826   -0.0000 C   0  0  0  0  0  0  0  0  0  0  0  0
    7.3425   -1.4042   -0.0000 N   0  0  0  0  0  0  0  0  0  0  0  0
    8.2707   -2.5705   -0.0000 N   0  0  0  0  0  0  0  0  0  0  0  0
    7.9851   -5.2242   -0.0000 C   0  0  0  0  0  0  0  0  0  0  0  0
   -1.6541   -6.7713   -0.0000 N   0  0  0  0  0  0  0  0  0  0  0  0
   -2.8442   -9.0800   -0.0000 C   0  0  0  0  0  0  0  0  0  0  0  0
   -4.1889   -8.3778   -0.0000 C   0  0  0  0  0  0  0  0  0  0  0  0
   -5.3075   -9.3894   -0.0000 C   0  0  0  0  0  0  0  0  0  0  0  0
   -4.8315   -6.9974   -0.0000 C   0  0  0  0  0  0  0  0  0  0  0  0
   -6.6285   -8.6277   -0.0000 C   0  0  0  0  0  0  0  0  0  0  0  0
   -5.3194  -10.8888   -0.0000 C   0  0  0  0  0  0  0  0  0  0  0  0
   -6.3310   -7.1521   -0.0000 N   0  0  0  0  0  0  0  0  0  0  0  0
   -7.9375   -9.3656   -0.0000 C   0  0  0  0  0  0  0  0  0  0  0  0
   -6.6404  -11.6266   -0.0000 C   0  0  0  0  0  0  0  0  0  0  0  0
   -7.9494  -10.8650   -0.0000 C   0  0  0  0  0  0  0  0  0  0  0  0
  1  2  1  0  0  0  0
  1  3  1  0  0  0  0
  2  4  2  0  0  0  0
  3  5  2  0  0  0  0
  4  6  1  0  0  0  0
  6  7  2  0  0  0  0
  6  8  1  0  0  0  0
  7  9  1  0  0  0  0
  8 10  1  0  0  0  0
  8 11  2  0  0  0  0
  9 12  2  0  0  0  0
 10 13  2  0  0  0  0
 10 14  1  0  0  0  0
 12 15  1  0  0  0  0
 13 16  1  0  0  0  0
 14 17  2  0  0  0  0
 15 18  1  0  0  0  0
 16 19  2  0  0  0  0
 16 20  1  0  0  0  0
 18 21  1  0  0  0  0
 19 22  1  0  0  0  0
 20 23  2  0  0  0  0
 20 24  1  0  0  0  0
 21 25  1  6  0  0  0
 21 26  1  0  0  0  0
 26 27  1  0  0  0  0
 27 28  1  0  0  0  0
 27 29  2  0  0  0  0
 28 30  2  0  0  0  0
 28 31  1  0  0  0  0
 29 32  1  0  0  0  0
 30 33  1  0  0  0  0
 31 34  2  0  0  0  0
 33 35  2  0  0  0  0
  4  5  1  0  0  0  0
 11 12  1  0  0  0  0
 17 19  1  0  0  0  0
 22 23  1  0  0  0  0
 30 32  1  0  0  0  0
 34 35  1  0  0  0  0
M  END
>  <MolRegNo>
591615

>  <m>
=

>  <Value>
400

>  <Unit>
nM

>  <Type>
IC50

>  <pValue>
6.4

>  <Ligand Efficiency>
0

>  <Binding Efficiency>
0

>  <Surface Efficiency>
0

>  <Assay Index>
450772

>  <Assay Category>


>  <Assay Organism>


>  <Target ID>
17045

>  <Target Name>
Cytochrome P450 3A4

>  <Target Organism>
Homo sapiens

>  <Target Description>
Target is a single protein chain

>  <Sequence Accession>
P08684

>  <Reference>
Bioorg Med Chem Lett 20 (2), 679-683 (2010)

>  <Pubmed ID>
20005102

>  <DOI>
10.1016/j.bmcl.2009.11.060

$$$$
591616
Actelion Java MolfileCreator 1.0

 35 40  0  0  0  0  0  0  0  0999 V2000
    0.0000   -0.0000   -0.0000 O   0  0  0  0  0  0  0  0  0  0  0  0
    0.4640   -1.4159   -0.0000 C   0  0  0  0  0  0  0  0  0  0  0  0
   -1.5111   -0.0000   -0.0000 C   0  0  0  0  0  0  0  0  0  0  0  0
   -0.7615   -2.2964   -0.0000 C   0  0  0  0  0  0  0  0  0  0  0  0
   -1.9752   -1.4159   -0.0000 C   0  0  0  0  0  0  0  0  0  0  0  0
   -0.7615   -3.7837   -0.0000 C   0  0  0  0  0  0  0  0  0  0  0  0
   -2.0584   -4.5214   -0.0000 N   0  0  0  0  0  0  0  0  0  0  0  0
    0.5354   -4.5095   -0.0000 C   0  0  0  0  0  0  0  0  0  0  0  0
   -2.0703   -6.0087   -0.0000 C   0  0  0  0  0  0  0  0  0  0  0  0
    1.8086   -3.7480   -0.0000 C   0  0  0  0  0  0  0  0  0  0  0  0
    0.5235   -6.0087   -0.0000 C   0  0  0  0  0  0  0  0  0  0  0  0
   -0.7853   -6.7464   -0.0000 C   0  0  0  0  0  0  0  0  0  0  0  0
    3.1055   -4.4857   -0.0000 N   0  0  0  0  0  0  0  0  0  0  0  0
    1.7848   -2.2369   -0.0000 N   0  0  0  0  0  0  0  0  0  0  0  0
   -0.7972   -8.2338   -0.0000 O   0  0  0  0  0  0  0  0  0  0  0  0
    4.3905   -3.7123   -0.0000 C   0  0  0  0  0  0  0  0  0  0  0  0
    3.0579   -1.4635   -0.0000 C   0  0  0  0  0  0  0  0  0  0  0  0
   -2.1060   -8.9715   -0.0000 C   0  0  0  0  0  0  0  0  0  0  0  0
    4.3667   -2.2012   -0.0000 C   0  0  0  0  0  0  0  0  0  0  0  0
    5.8065   -4.1526   -0.0000 C   0  0  0  0  0  0  0  0  0  0  0  0
   -3.4149   -8.2100   -0.0000 C   0  0  0  0  0  0  0  0  0  0  0  0
    5.7708   -1.7253   -0.0000 N   0  0  0  0  0  0  0  0  0  0  0  0
    6.6751   -2.9270   -0.0000 N   0  0  0  0  0  0  0  0  0  0  0  0
    6.2586   -5.5685   -0.0000 C   0  0  0  0  0  0  0  0  0  0  0  0
   -3.4268   -6.6989   -0.0000 N   0  0  0  0  0  0  0  0  0  0  0  0
   -4.7237   -8.9477   -0.0000 C   0  0  0  0  0  0  0  0  0  0  0  0
   -6.0325   -8.1862   -0.0000 C   0  0  0  0  0  0  0  0  0  0  0  0
   -7.5080   -8.5074   -0.0000 C   0  0  0  0  0  0  0  0  0  0  0  0
   -5.9136   -6.6751   -0.0000 C   0  0  0  0  0  0  0  0  0  0  0  0
   -8.2933   -7.2105   -0.0000 C   0  0  0  0  0  0  0  0  0  0  0  0
   -8.2338   -9.8044   -0.0000 C   0  0  0  0  0  0  0  0  0  0  0  0
   -7.3057   -6.0801   -0.0000 N   0  0  0  0  0  0  0  0  0  0  0  0
   -9.8044   -7.2224   -0.0000 C   0  0  0  0  0  0  0  0  0  0  0  0
   -9.7330   -9.8282   -0.0000 C   0  0  0  0  0  0  0  0  0  0  0  0
  -10.5421   -8.5193   -0.0000 C   0  0  0  0  0  0  0  0  0  0  0  0
  1  2  1  0  0  0  0
  1  3  1  0  0  0  0
  2  4  2  0  0  0  0
  3  5  2  0  0  0  0
  4  6  1  0  0  0  0
  6  7  2  0  0  0  0
  6  8  1  0  0  0  0
  7  9  1  0  0  0  0
  8 10  1  0  0  0  0
  8 11  2  0  0  0  0
  9 12  2  0  0  0  0
 10 13  2  0  0  0  0
 10 14  1  0  0  0  0
 12 15  1  0  0  0  0
 13 16  1  0  0  0  0
 14 17  2  0  0  0  0
 15 18  1  0  0  0  0
 16 19  2  0  0  0  0
 16 20  1  0  0  0  0
 18 21  1  0  0  0  0
 19 22  1  0  0  0  0
 20 23  2  0  0  0  0
 20 24  1  0  0  0  0
 21 25  1  6  0  0  0
 21 26  1  0  0  0  0
 26 27  1  0  0  0  0
 27 28  1  0  0  0  0
 27 29  2  0  0  0  0
 28 30  2  0  0  0  0
 28 31  1  0  0  0  0
 29 32  1  0  0  0  0
 30 33  1  0  0  0  0
 31 34  2  0  0  0  0
 33 35  2  0  0  0  0
  4  5  1  0  0  0  0
 11 12  1  0  0  0  0
 17 19  1  0  0  0  0
 22 23  1  0  0  0  0
 30 32  1  0  0  0  0
 34 35  1  0  0  0  0
M  END
>  <MolRegNo>
591616

>  <m>
=

>  <Value>
1300

>  <Unit>
nM

>  <Type>
IC50

>  <pValue>
5.89

>  <Ligand Efficiency>
0

>  <Binding Efficiency>
0

>  <Surface Efficiency>
0

>  <Assay Index>
450772

>  <Assay Category>


>  <Assay Organism>


>  <Target ID>
17045

>  <Target Name>
Cytochrome P450 3A4

>  <Target Organism>
Homo sapiens

>  <Target Description>
Target is a single protein chain

>  <Sequence Accession>
P08684

>  <Reference>
Bioorg Med Chem Lett 20 (2), 679-683 (2010)

>  <Pubmed ID>
20005102

>  <DOI>
10.1016/j.bmcl.2009.11.060

$$$$
591639
Actelion Java MolfileCreator 1.0

 35 40  0  0  0  0  0  0  0  0999 V2000
    0.0000   -0.0000   -0.0000 O   0  0  0  0  0  0  0  0  0  0  0  0
    0.4639   -1.4156   -0.0000 C   0  0  0  0  0  0  0  0  0  0  0  0
   -1.5108   -0.0000   -0.0000 C   0  0  0  0  0  0  0  0  0  0  0  0
   -0.7613   -2.2959   -0.0000 C   0  0  0  0  0  0  0  0  0  0  0  0
   -1.9747   -1.4156   -0.0000 C   0  0  0  0  0  0  0  0  0  0  0  0
   -0.7613   -3.7829   -0.0000 C   0  0  0  0  0  0  0  0  0  0  0  0
   -2.0580   -4.5205   -0.0000 N   0  0  0  0  0  0  0  0  0  0  0  0
    0.5353   -4.5086   -0.0000 C   0  0  0  0  0  0  0  0  0  0  0  0
   -2.0699   -6.0075   -0.0000 C   0  0  0  0  0  0  0  0  0  0  0  0
    1.8082   -3.7472   -0.0000 C   0  0  0  0  0  0  0  0  0  0  0  0
    0.5234   -6.0075   -0.0000 C   0  0  0  0  0  0  0  0  0  0  0  0
   -0.7851   -6.7450   -0.0000 C   0  0  0  0  0  0  0  0  0  0  0  0
    1.7844   -2.2364   -0.0000 N   0  0  0  0  0  0  0  0  0  0  0  0
    3.1049   -4.4848   -0.0000 C   0  0  0  0  0  0  0  0  0  0  0  0
   -0.7970   -8.2320   -0.0000 O   0  0  0  0  0  0  0  0  0  0  0  0
    3.0573   -1.4632   -0.0000 C   0  0  0  0  0  0  0  0  0  0  0  0
    4.3896   -3.7116   -0.0000 C   0  0  0  0  0  0  0  0  0  0  0  0
   -2.1056   -8.9696   -0.0000 C   0  0  0  0  0  0  0  0  0  0  0  0
    4.3539   -2.1889   -0.0000 C   0  0  0  0  0  0  0  0  0  0  0  0
    5.8052   -4.1517   -0.0000 C   0  0  0  0  0  0  0  0  0  0  0  0
   -3.4142   -8.2082   -0.0000 C   0  0  0  0  0  0  0  0  0  0  0  0
    5.7577   -1.7130   -0.0000 N   0  0  0  0  0  0  0  0  0  0  0  0
    6.6737   -2.9264   -0.0000 N   0  0  0  0  0  0  0  0  0  0  0  0
    6.2573   -5.5673   -0.0000 C   0  0  0  0  0  0  0  0  0  0  0  0
   -3.4260   -6.6974   -0.0000 N   0  0  0  0  0  0  0  0  0  0  0  0
   -4.7227   -8.9458   -0.0000 C   0  0  0  0  0  0  0  0  0  0  0  0
   -6.0313   -8.1844   -0.0000 C   0  0  0  0  0  0  0  0  0  0  0  0
   -7.5064   -8.5056   -0.0000 C   0  0  0  0  0  0  0  0  0  0  0  0
   -5.9123   -6.6737   -0.0000 C   0  0  0  0  0  0  0  0  0  0  0  0
   -8.2915   -7.2090   -0.0000 C   0  0  0  0  0  0  0  0  0  0  0  0
   -8.2320   -9.8023   -0.0000 C   0  0  0  0  0  0  0  0  0  0  0  0
   -7.3041   -6.0789   -0.0000 N   0  0  0  0  0  0  0  0  0  0  0  0
   -9.8023   -7.2209   -0.0000 C   0  0  0  0  0  0  0  0  0  0  0  0
   -9.7309   -9.8261   -0.0000 C   0  0  0  0  0  0  0  0  0  0  0  0
  -10.5399   -8.5175   -0.0000 C   0  0  0  0  0  0  0  0  0  0  0  0
  1  2  1  0  0  0  0
  1  3  1  0  0  0  0
  2  4  2  0  0  0  0
  3  5  2  0  0  0  0
  4  6  1  0  0  0  0
  6  7  2  0  0  0  0
  6  8  1  0  0  0  0
  7  9  1  0  0  0  0
  8 10  1  0  0  0  0
  8 11  2  0  0  0  0
  9 12  2  0  0  0  0
 10 13  2  0  0  0  0
 10 14  1  0  0  0  0
 12 15  1  0  0  0  0
 13 16  1  0  0  0  0
 14 17  2  0  0  0  0
 15 18  1  0  0  0  0
 16 19  2  0  0  0  0
 17 20  1  0  0  0  0
 18 21  1  0  0  0  0
 19 22  1  0  0  0  0
 20 23  2  0  0  0  0
 20 24  1  0  0  0  0
 21 25  1  6  0  0  0
 21 26  1  0  0  0  0
 26 27  1  0  0  0  0
 27 28  1  0  0  0  0
 27 29  2  0  0  0  0
 28 30  2  0  0  0  0
 28 31  1  0  0  0  0
 29 32  1  0  0  0  0
 30 33  1  0  0  0  0
 31 34  2  0  0  0  0
 33 35  2  0  0  0  0
  4  5  1  0  0  0  0
 11 12  1  0  0  0  0
 17 19  1  0  0  0  0
 22 23  1  0  0  0  0
 30 32  1  0  0  0  0
 34 35  1  0  0  0  0
M  END
>  <MolRegNo>
591639

>  <m>
=

>  <Value>
16

>  <Unit>
nM

>  <Type>
IC50

>  <pValue>
7.8

>  <Ligand Efficiency>
0

>  <Binding Efficiency>
0

>  <Surface Efficiency>
0

>  <Assay Index>
450772

>  <Assay Category>


>  <Assay Organism>


>  <Target ID>
17045

>  <Target Name>
Cytochrome P450 3A4

>  <Target Organism>
Homo sapiens

>  <Target Description>
Target is a single protein chain

>  <Sequence Accession>
P08684

>  <Reference>
Bioorg Med Chem Lett 20 (2), 679-683 (2010)

>  <Pubmed ID>
20005102

>  <DOI>
10.1016/j.bmcl.2009.11.060

$$$$
374358
Actelion Java MolfileCreator 1.0

 40 46  0  0  0  0  0  0  0  0999 V2000
    0.0000   -0.0000   -0.0000 S   0  0  0  0  0  0  0  0  0  0  0  0
   -1.5116    0.0119   -0.0000 C   0  0  0  0  0  0  0  0  0  0  0  0
    0.4523   -1.4164   -0.0000 C   0  0  0  0  0  0  0  0  0  0  0  0
   -1.9877   -1.4045   -0.0000 N   0  0  0  0  0  0  0  0  0  0  0  0
   -0.7737   -2.2972   -0.0000 C   0  0  0  0  0  0  0  0  0  0  0  0
   -0.7856   -3.7731   -0.0000 C   0  0  0  0  0  0  0  0  0  0  0  0
   -2.0948   -4.5110   -0.0000 N   0  0  0  0  0  0  0  0  0  0  0  0
    0.4999   -4.5110   -0.0000 C   0  0  0  0  0  0  0  0  0  0  0  0
   -3.4041   -3.7493   -0.0000 C   0  0  0  0  0  0  0  0  0  0  0  0
    0.4999   -5.9988   -0.0000 C   0  0  0  0  0  0  0  0  0  0  0  0
   -3.4160   -2.2377   -0.0000 O   0  0  0  0  0  0  0  0  0  0  0  0
   -4.7134   -4.4872   -0.0000 C   0  0  0  0  0  0  0  0  0  0  0  0
    1.9163   -6.4392   -0.0000 C   0  0  0  0  0  0  0  0  0  0  0  0
   -0.3928   -7.1891   -0.0000 C   0  0  0  0  0  0  0  0  0  0  0  0
   -6.0226   -3.7255   -0.0000 C   0  0  0  0  0  0  0  0  0  0  0  0
   -4.7253   -5.9869   -0.0000 C   0  0  0  0  0  0  0  0  0  0  0  0
    1.9044   -7.9270   -0.0000 C   0  0  0  0  0  0  0  0  0  0  0  0
    3.1899   -5.6775   -0.0000 C   0  0  0  0  0  0  0  0  0  0  0  0
    0.4761   -8.3912   -0.0000 N   0  0  0  0  0  0  0  0  0  0  0  0
   -7.3319   -4.4634   -0.0000 C   0  0  0  0  0  0  0  0  0  0  0  0
   -6.0465   -6.7249   -0.0000 C   0  0  0  0  0  0  0  0  0  0  0  0
    3.1899   -8.6650   -0.0000 C   0  0  0  0  0  0  0  0  0  0  0  0
    4.4753   -6.4035   -0.0000 C   0  0  0  0  0  0  0  0  0  0  0  0
   -8.7840   -3.9873   -0.0000 N   0  0  0  0  0  0  0  0  0  0  0  0
   -7.3438   -5.9631   -0.0000 C   0  0  0  0  0  0  0  0  0  0  0  0
    4.4753   -7.9032   -0.0000 C   0  0  0  0  0  0  0  0  0  0  0  0
    5.7608   -5.6299   -0.0000 O   0  0  0  0  0  0  0  0  0  0  0  0
   -9.6886   -5.1895   -0.0000 C   0  0  0  0  0  0  0  0  0  0  0  0
   -8.7959   -6.4154   -0.0000 N   0  0  0  0  0  0  0  0  0  0  0  0
  -11.2002   -5.1776   -0.0000 C   0  0  0  0  0  0  0  0  0  0  0  0
   -9.2720   -7.8318   -0.0000 C   0  0  0  0  0  0  0  0  0  0  0  0
  -12.0929   -6.3797   -0.0000 C   0  0  0  0  0  0  0  0  0  0  0  0
  -12.0929   -3.9516   -0.0000 C   0  0  0  0  0  0  0  0  0  0  0  0
  -10.7836   -7.8199   -0.0000 C   0  0  0  0  0  0  0  0  0  0  0  0
   -8.5341   -9.1173   -0.0000 C   0  0  0  0  0  0  0  0  0  0  0  0
  -13.5331   -5.9036   -0.0000 O   0  0  0  0  0  0  0  0  0  0  0  0
  -13.5331   -4.4039   -0.0000 C   0  0  0  0  0  0  0  0  0  0  0  0
  -11.5454   -9.1054   -0.0000 C   0  0  0  0  0  0  0  0  0  0  0  0
   -9.3077  -10.4028   -0.0000 C   0  0  0  0  0  0  0  0  0  0  0  0
  -10.8074  -10.4028   -0.0000 C   0  0  0  0  0  0  0  0  0  0  0  0
  1  2  1  0  0  0  0
  1  3  1  0  0  0  0
  2  4  2  0  0  0  0
  3  5  2  0  0  0  0
  5  6  1  0  0  0  0
  6  7  1  6  0  0  0
  6  8  1  0  0  0  0
  7  9  1  0  0  0  0
  8 10  1  0  0  0  0
  9 11  2  0  0  0  0
  9 12  1  0  0  0  0
 10 13  1  0  0  0  0
 10 14  2  0  0  0  0
 12 15  2  0  0  0  0
 12 16  1  0  0  0  0
 13 17  2  0  0  0  0
 13 18  1  0  0  0  0
 14 19  1  0  0  0  0
 15 20  1  0  0  0  0
 16 21  2  0  0  0  0
 17 22  1  0  0  0  0
 18 23  2  0  0  0  0
 20 24  1  0  0  0  0
 20 25  2  0  0  0  0
 22 26  2  0  0  0  0
 23 27  1  0  0  0  0
 24 28  2  0  0  0  0
 25 29  1  0  0  0  0
 28 30  1  0  0  0  0
 29 31  1  0  0  0  0
 30 32  2  0  0  0  0
 30 33  1  0  0  0  0
 31 34  1  0  0  0  0
 31 35  1  0  0  0  0
 32 36  1  0  0  0  0
 33 37  2  0  0  0  0
 34 38  1  0  0  0  0
 35 39  1  0  0  0  0
 38 40  1  0  0  0  0
  4  5  1  0  0  0  0
 17 19  1  0  0  0  0
 21 25  1  0  0  0  0
 23 26  1  0  0  0  0
 28 29  1  0  0  0  0
 36 37  1  0  0  0  0
 39 40  1  0  0  0  0
M  END
>  <MolRegNo>
374358

>  <m>
=

>  <Value>
400

>  <Unit>
nM

>  <Type>
IC50

>  <pValue>
6.4

>  <Ligand Efficiency>
0

>  <Binding Efficiency>
0

>  <Surface Efficiency>
0

>  <Assay Index>
448758

>  <Assay Category>


>  <Assay Organism>
Homo sapiens

>  <Target ID>
17045

>  <Target Name>
Cytochrome P450 3A4

>  <Target Organism>
Homo sapiens

>  <Target Description>
Target is a single protein chain

>  <Sequence Accession>
P08684

>  <Reference>
Bioorg Med Chem Lett 20 (1), 196-200 (2010)

>  <Pubmed ID>
19945870

>  <DOI>
10.1016/j.bmcl.2009.10.136

$$$$
590995
Actelion Java MolfileCreator 1.0

 39 43  0  0  0  0  0  0  0  0999 V2000
    0.0000   -0.0000   -0.0000 O   0  0  0  0  0  0  0  0  0  0  0  0
    0.0000   -1.4881   -0.0000 C   0  0  0  0  0  0  0  0  0  0  0  0
    1.2976   -2.2262   -0.0000 N   0  0  0  0  0  0  0  0  0  0  0  0
   -1.3096   -2.2381   -0.0000 C   0  0  0  0  0  0  0  0  0  0  0  0
    2.5834   -1.4524   -0.0000 C   0  0  0  0  0  0  0  0  0  0  0  0
   -2.6310   -1.4762   -0.0000 C   0  0  0  0  0  0  0  0  0  0  0  0
   -1.3215   -3.7382   -0.0000 C   0  0  0  0  0  0  0  0  0  0  0  0
    3.8691   -2.1905   -0.0000 C   0  0  0  0  0  0  0  0  0  0  0  0
    2.5596    0.0595   -0.0000 C   0  0  0  0  0  0  0  0  0  0  0  0
   -3.9406   -2.2262   -0.0000 C   0  0  0  0  0  0  0  0  0  0  0  0
   -2.6429   -4.4763   -0.0000 C   0  0  0  0  0  0  0  0  0  0  0  0
    3.8691   -3.6787   -0.0000 O   0  0  0  0  0  0  0  0  0  0  0  0
    5.1549   -1.4167   -0.0000 N   0  0  0  0  0  0  0  0  0  0  0  0
   -5.3811   -1.7381   -0.0000 N   0  0  0  0  0  0  0  0  0  0  0  0
   -3.9525   -3.7144   -0.0000 C   0  0  0  0  0  0  0  0  0  0  0  0
    6.4525   -2.1548   -0.0000 C   0  0  0  0  0  0  0  0  0  0  0  0
   -6.2739   -2.9405   -0.0000 C   0  0  0  0  0  0  0  0  0  0  0  0
   -5.3930   -4.1668   -0.0000 N   0  0  0  0  0  0  0  0  0  0  0  0
    6.4406   -3.6429   -0.0000 C   0  0  0  0  0  0  0  0  0  0  0  0
    7.7264   -1.3810   -0.0000 C   0  0  0  0  0  0  0  0  0  0  0  0
   -7.7859   -2.9286   -0.0000 C   0  0  0  0  0  0  0  0  0  0  0  0
   -6.1192   -5.4763   -0.0000 C   0  0  0  0  0  0  0  0  0  0  0  0
    7.7264   -4.3691   -0.0000 C   0  0  0  0  0  0  0  0  0  0  0  0
    9.0240   -2.1072   -0.0000 C   0  0  0  0  0  0  0  0  0  0  0  0
   -8.6907   -4.1310   -0.0000 C   0  0  0  0  0  0  0  0  0  0  0  0
   -8.6788   -1.7024   -0.0000 C   0  0  0  0  0  0  0  0  0  0  0  0
   -7.6311   -5.5001   -0.0000 C   0  0  0  0  0  0  0  0  0  0  0  0
   -5.3454   -6.7382   -0.0000 C   0  0  0  0  0  0  0  0  0  0  0  0
    9.0121   -3.6072   -0.0000 C   0  0  0  0  0  0  0  0  0  0  0  0
  -10.1312   -3.6548   -0.0000 O   0  0  0  0  0  0  0  0  0  0  0  0
  -10.1193   -2.1548   -0.0000 C   0  0  0  0  0  0  0  0  0  0  0  0
   -8.3692   -6.7978   -0.0000 C   0  0  0  0  0  0  0  0  0  0  0  0
   -6.0835   -8.0478   -0.0000 C   0  0  0  0  0  0  0  0  0  0  0  0
   10.3097   -4.3334   -0.0000 C   0  0  0  0  0  0  0  0  0  0  0  0
   -7.5954   -8.0716   -0.0000 C   0  0  0  0  0  0  0  0  0  0  0  0
   10.3097   -5.8216   -0.0000 C   0  0  0  0  0  0  0  0  0  0  0  0
   11.6074   -6.5597   -0.0000 C   0  0  0  0  0  0  0  0  0  0  0  0
   11.6074   -8.0478   -0.0000 O   0  0  0  0  0  0  0  0  0  0  0  0
   12.8931   -5.7858   -0.0000 O   0  0  0  0  0  0  0  0  0  0  0  0
  1  2  2  0  0  0  0
  2  3  1  0  0  0  0
  2  4  1  0  0  0  0
  5  3  1  1  0  0  0
  4  6  2  0  0  0  0
  4  7  1  0  0  0  0
  5  8  1  0  0  0  0
  5  9  1  0  0  0  0
  6 10  1  0  0  0  0
  7 11  2  0  0  0  0
  8 12  2  0  0  0  0
  8 13  1  0  0  0  0
 10 14  1  0  0  0  0
 10 15  2  0  0  0  0
 13 16  1  0  0  0  0
 14 17  2  0  0  0  0
 15 18  1  0  0  0  0
 16 19  2  0  0  0  0
 16 20  1  0  0  0  0
 17 21  1  0  0  0  0
 18 22  1  0  0  0  0
 19 23  1  0  0  0  0
 20 24  2  0  0  0  0
 21 25  2  0  0  0  0
 21 26  1  0  0  0  0
 22 27  1  0  0  0  0
 22 28  1  0  0  0  0
 23 29  2  0  0  0  0
 25 30  1  0  0  0  0
 26 31  2  0  0  0  0
 27 32  1  0  0  0  0
 28 33  1  0  0  0  0
 29 34  1  0  0  0  0
 32 35  1  0  0  0  0
 34 36  2  0  0  0  0
 36 37  1  0  0  0  0
 37 38  2  0  0  0  0
 37 39  1  0  0  0  0
 11 15  1  0  0  0  0
 17 18  1  0  0  0  0
 24 29  1  0  0  0  0
 30 31  1  0  0  0  0
 33 35  1  0  0  0  0
M  END
>  <MolRegNo>
590995

>  <m>
=

>  <Value>
12300

>  <Unit>
nM

>  <Type>
IC50

>  <pValue>
4.91

>  <Ligand Efficiency>
0

>  <Binding Efficiency>
0

>  <Surface Efficiency>
0

>  <Assay Index>
448758

>  <Assay Category>


>  <Assay Organism>
Homo sapiens

>  <Target ID>
17045

>  <Target Name>
Cytochrome P450 3A4

>  <Target Organism>
Homo sapiens

>  <Target Description>
Target is a single protein chain

>  <Sequence Accession>
P08684

>  <Reference>
Bioorg Med Chem Lett 20 (1), 196-200 (2010)

>  <Pubmed ID>
19945870

>  <DOI>
10.1016/j.bmcl.2009.10.136

$$$$
600498
Actelion Java MolfileCreator 1.0

 31 34  0  0  1  0  0  0  0  0999 V2000
    0.0000   -0.0000   -0.0000 F   0  0  0  0  0  0  0  0  0  0  0  0
   -1.3179    0.7599   -0.0000 C   0  0  0  0  0  0  0  0  0  0  0  0
   -1.3298    2.2796   -0.0000 C   0  0  0  0  0  0  0  0  0  0  0  0
   -2.6358    0.0237   -0.0000 C   0  0  0  0  0  0  0  0  0  0  0  0
   -2.6358    3.0395   -0.0000 C   0  0  0  0  0  0  0  0  0  0  0  0
   -0.0475    3.0514   -0.0000 C   0  0  0  0  0  0  0  0  0  0  0  0
   -3.9419    0.7836   -0.0000 C   0  0  0  0  0  0  0  0  0  0  0  0
   -3.9419    2.3034   -0.0000 C   0  0  0  0  0  0  0  0  0  0  0  0
    0.9973    4.1319   -0.0000 F   0  0  0  0  0  0  0  0  0  0  0  0
   -0.0594    4.5593   -0.0000 F   0  0  0  0  0  0  0  0  0  0  0  0
    1.2467    2.3153   -0.0000 F   0  0  0  0  0  0  0  0  0  0  0  0
   -5.2479    3.0633   -0.0000 C   0  0  0  0  0  0  0  0  0  0  0  0
   -6.5540    2.3271   -0.0000 N   0  0  0  0  0  0  0  0  0  0  0  0
   -7.8600    3.0870   -0.0000 C   0  0  0  0  0  0  0  0  0  0  0  0
   -6.5659    0.8430   -0.0000 C   0  0  0  0  0  0  0  0  0  0  0  0
   -7.8719    4.5949   -0.0000 O   0  0  0  0  0  0  0  0  0  0  0  0
   -9.1661    2.3509   -0.0000 C   0  0  0  0  0  0  0  0  0  0  0  0
   -5.3548   -0.0237   -0.0000 C   0  0  0  0  0  0  0  0  0  0  0  0
   -7.7888   -0.0237   -0.0000 C   0  0  0  0  0  0  0  0  0  0  0  0
  -10.4128    3.2176   -0.0000 N   0  0  0  0  0  0  0  0  0  0  0  0
   -9.6291    0.9261   -0.0000 C   0  0  0  0  0  0  0  0  0  0  0  0
   -5.8297   -1.4367   -0.0000 C   0  0  0  0  0  0  0  0  0  0  0  0
   -7.3257   -1.4367   -0.0000 C   0  0  0  0  0  0  0  0  0  0  0  0
  -11.6238    2.3271   -0.0000 C   0  0  0  0  0  0  0  0  0  0  0  0
  -11.1370    0.9142   -0.0000 N   0  0  0  0  0  0  0  0  0  0  0  0
   -5.3904   -2.8496   -0.0000 C   0  0  0  0  0  0  0  0  0  0  0  0
   -7.8007   -2.8496   -0.0000 C   0  0  0  0  0  0  0  0  0  0  0  0
  -12.0156   -0.2968   -0.0000 C   0  0  0  0  0  0  0  0  0  0  0  0
   -6.6133   -3.7044   -0.0000 N   0  0  0  0  0  0  0  0  0  0  0  0
   -6.6371   -5.1886   -0.0000 C   0  0  0  0  0  0  0  0  0  0  0  0
   -7.9550   -5.9247   -0.0000 C   0  0  0  0  0  0  0  0  0  0  0  0
  1  2  1  0  0  0  0
  2  3  2  0  0  0  0
  2  4  1  0  0  0  0
  3  5  1  0  0  0  0
  3  6  1  0  0  0  0
  4  7  2  0  0  0  0
  5  8  2  0  0  0  0
  6  9  1  0  0  0  0
  6 10  1  0  0  0  0
  6 11  1  0  0  0  0
  8 12  1  0  0  0  0
 12 13  1  0  0  0  0
 13 14  1  0  0  0  0
 15 13  1  1  0  0  0
 14 16  2  0  0  0  0
 14 17  1  0  0  0  0
 15 18  1  0  0  0  0
 15 19  1  0  0  0  0
 17 20  1  0  0  0  0
 17 21  2  0  0  0  0
 22 18  1  1  0  0  0
 23 19  1  1  0  0  0
 20 24  2  0  0  0  0
 21 25  1  0  0  0  0
 22 26  1  0  0  0  0
 23 27  1  0  0  0  0
 25 28  1  0  0  0  0
 26 29  1  0  0  0  0
 29 30  1  0  0  0  0
 30 31  1  0  0  0  0
  7  8  1  0  0  0  0
 22 23  1  0  0  0  0
 24 25  1  0  0  0  0
 27 29  1  0  0  0  0
M  END
>  <MolRegNo>
600498

>  <m>
=

>  <Value>
5000

>  <Unit>
nM

>  <Type>
IC50

>  <pValue>
5.3

>  <Ligand Efficiency>
0

>  <Binding Efficiency>
0

>  <Surface Efficiency>
0

>  <Assay Index>
457654

>  <Assay Category>


>  <Assay Organism>


>  <Target ID>
17045

>  <Target Name>
Cytochrome P450 3A4

>  <Target Organism>
Homo sapiens

>  <Target Description>
Target is a single protein chain

>  <Sequence Accession>
P08684

>  <Reference>
Bioorg Med Chem Lett 20 (3), 907-911 (2010)

>  <Pubmed ID>
20045321

>  <DOI>
10.1016/j.bmcl.2009.12.071

$$$$
600579
Actelion Java MolfileCreator 1.0

 33 36  0  0  1  0  0  0  0  0999 V2000
    0.0000   -0.0000   -0.0000 F   0  0  0  0  0  0  0  0  0  0  0  0
   -1.3083   -0.7374   -0.0000 C   0  0  0  0  0  0  0  0  0  0  0  0
   -1.3202   -2.2242   -0.0000 F   0  0  0  0  0  0  0  0  0  0  0  0
   -0.0238   -1.4630   -0.0000 F   0  0  0  0  0  0  0  0  0  0  0  0
   -2.6167    0.0238   -0.0000 O   0  0  0  0  0  0  0  0  0  0  0  0
   -3.9250   -0.7136   -0.0000 C   0  0  0  0  0  0  0  0  0  0  0  0
   -5.2334    0.0357   -0.0000 C   0  0  0  0  0  0  0  0  0  0  0  0
   -3.9369   -2.2123   -0.0000 C   0  0  0  0  0  0  0  0  0  0  0  0
   -6.5417   -0.7018   -0.0000 C   0  0  0  0  0  0  0  0  0  0  0  0
   -5.2453   -2.9497   -0.0000 C   0  0  0  0  0  0  0  0  0  0  0  0
   -6.5536   -2.1885   -0.0000 C   0  0  0  0  0  0  0  0  0  0  0  0
   -7.8501    0.0595   -0.0000 C   0  0  0  0  0  0  0  0  0  0  0  0
   -9.1584   -0.6780   -0.0000 N   0  0  0  0  0  0  0  0  0  0  0  0
  -10.4668    0.0833   -0.0000 C   0  0  0  0  0  0  0  0  0  0  0  0
   -9.1703   -2.1647   -0.0000 C   0  0  0  0  0  0  0  0  0  0  0  0
  -10.4787    1.5938   -0.0000 O   0  0  0  0  0  0  0  0  0  0  0  0
  -11.7751   -0.6542   -0.0000 C   0  0  0  0  0  0  0  0  0  0  0  0
   -7.9571   -3.0330   -0.0000 C   0  0  0  0  0  0  0  0  0  0  0  0
  -10.3954   -3.0330   -0.0000 C   0  0  0  0  0  0  0  0  0  0  0  0
  -13.0240    0.2141   -0.0000 N   0  0  0  0  0  0  0  0  0  0  0  0
  -12.2390   -2.0815   -0.0000 C   0  0  0  0  0  0  0  0  0  0  0  0
   -8.4329   -4.4484   -0.0000 C   0  0  0  0  0  0  0  0  0  0  0  0
   -9.9434   -4.4365   -0.0000 C   0  0  0  0  0  0  0  0  0  0  0  0
  -14.2491   -0.6780   -0.0000 C   0  0  0  0  0  0  0  0  0  0  0  0
  -13.7614   -2.0934   -0.0000 N   0  0  0  0  0  0  0  0  0  0  0  0
   -7.9928   -5.8638   -0.0000 C   0  0  0  0  0  0  0  0  0  0  0  0
  -10.4192   -5.8400   -0.0000 C   0  0  0  0  0  0  0  0  0  0  0  0
  -14.6416   -3.3066   -0.0000 C   0  0  0  0  0  0  0  0  0  0  0  0
   -9.2179   -6.7202   -0.0000 N   0  0  0  0  0  0  0  0  0  0  0  0
   -9.2417   -8.2069   -0.0000 C   0  0  0  0  0  0  0  0  0  0  0  0
  -10.5619   -8.9443   -0.0000 C   0  0  0  0  0  0  0  0  0  0  0  0
  -11.8703   -8.1712   -0.0000 F   0  0  0  0  0  0  0  0  0  0  0  0
  -10.5857  -10.4311   -0.0000 C   0  0  0  0  0  0  0  0  0  0  0  0
  1  2  1  0  0  0  0
  2  3  1  0  0  0  0
  2  4  1  0  0  0  0
  2  5  1  0  0  0  0
  5  6  1  0  0  0  0
  6  7  2  0  0  0  0
  6  8  1  0  0  0  0
  7  9  1  0  0  0  0
  8 10  2  0  0  0  0
  9 11  2  0  0  0  0
  9 12  1  0  0  0  0
 12 13  1  0  0  0  0
 13 14  1  0  0  0  0
 15 13  1  1  0  0  0
 14 16  2  0  0  0  0
 14 17  1  0  0  0  0
 15 18  1  0  0  0  0
 15 19  1  0  0  0  0
 17 20  1  0  0  0  0
 17 21  2  0  0  0  0
 22 18  1  1  0  0  0
 23 19  1  1  0  0  0
 20 24  2  0  0  0  0
 21 25  1  0  0  0  0
 22 26  1  0  0  0  0
 23 27  1  0  0  0  0
 25 28  1  0  0  0  0
 26 29  1  0  0  0  0
 29 30  1  0  0  0  0
 30 31  1  0  0  0  0
 31 32  1  0  0  0  0
 31 33  1  0  0  0  0
 10 11  1  0  0  0  0
 22 23  1  0  0  0  0
 24 25  1  0  0  0  0
 27 29  1  0  0  0  0
M  END
>  <MolRegNo>
600579

>  <m>
=

>  <Value>
7900

>  <Unit>
nM

>  <Type>
IC50

>  <pValue>
5.1

>  <Ligand Efficiency>
0

>  <Binding Efficiency>
0

>  <Surface Efficiency>
0

>  <Assay Index>
457654

>  <Assay Category>


>  <Assay Organism>


>  <Target ID>
17045

>  <Target Name>
Cytochrome P450 3A4

>  <Target Organism>
Homo sapiens

>  <Target Description>
Target is a single protein chain

>  <Sequence Accession>
P08684

>  <Reference>
Bioorg Med Chem Lett 20 (3), 907-911 (2010)

>  <Pubmed ID>
20045321

>  <DOI>
10.1016/j.bmcl.2009.12.071

$$$$
600580
Actelion Java MolfileCreator 1.0

 35 38  0  0  1  0  0  0  0  0999 V2000
    0.0000   -0.0000   -0.0000 F   0  0  0  0  0  0  0  0  0  0  0  0
   -1.3066   -0.7483   -0.0000 C   0  0  0  0  0  0  0  0  0  0  0  0
   -1.3185   -2.2332   -0.0000 F   0  0  0  0  0  0  0  0  0  0  0  0
   -0.0238   -1.4848   -0.0000 F   0  0  0  0  0  0  0  0  0  0  0  0
   -2.6251    0.0119   -0.0000 O   0  0  0  0  0  0  0  0  0  0  0  0
   -3.9318   -0.7365   -0.0000 C   0  0  0  0  0  0  0  0  0  0  0  0
   -5.2384    0.0238   -0.0000 C   0  0  0  0  0  0  0  0  0  0  0  0
   -3.9436   -2.2332   -0.0000 C   0  0  0  0  0  0  0  0  0  0  0  0
   -6.5450   -0.7127   -0.0000 C   0  0  0  0  0  0  0  0  0  0  0  0
   -5.2622   -2.9696   -0.0000 C   0  0  0  0  0  0  0  0  0  0  0  0
   -6.5569   -2.2094   -0.0000 C   0  0  0  0  0  0  0  0  0  0  0  0
   -7.8517    0.0475   -0.0000 C   0  0  0  0  0  0  0  0  0  0  0  0
   -9.1583   -0.6890   -0.0000 N   0  0  0  0  0  0  0  0  0  0  0  0
  -10.4649    0.0713   -0.0000 C   0  0  0  0  0  0  0  0  0  0  0  0
   -9.1702   -2.1738   -0.0000 C   0  0  0  0  0  0  0  0  0  0  0  0
  -10.4768    1.5798   -0.0000 O   0  0  0  0  0  0  0  0  0  0  0  0
  -11.7716   -0.6652   -0.0000 C   0  0  0  0  0  0  0  0  0  0  0  0
   -7.9586   -3.0409   -0.0000 C   0  0  0  0  0  0  0  0  0  0  0  0
  -10.3937   -3.0409   -0.0000 C   0  0  0  0  0  0  0  0  0  0  0  0
  -13.0188    0.2019   -0.0000 N   0  0  0  0  0  0  0  0  0  0  0  0
  -12.2348   -2.0906   -0.0000 C   0  0  0  0  0  0  0  0  0  0  0  0
   -8.4337   -4.4544   -0.0000 C   0  0  0  0  0  0  0  0  0  0  0  0
   -9.9304   -4.4544   -0.0000 C   0  0  0  0  0  0  0  0  0  0  0  0
  -14.2304   -0.6890   -0.0000 C   0  0  0  0  0  0  0  0  0  0  0  0
  -13.7434   -2.1025   -0.0000 N   0  0  0  0  0  0  0  0  0  0  0  0
   -7.9942   -5.8680   -0.0000 C   0  0  0  0  0  0  0  0  0  0  0  0
  -10.4055   -5.8680   -0.0000 C   0  0  0  0  0  0  0  0  0  0  0  0
  -14.6224   -3.3141   -0.0000 C   0  0  0  0  0  0  0  0  0  0  0  0
   -9.2177   -6.7232   -0.0000 N   0  0  0  0  0  0  0  0  0  0  0  0
   -9.2414   -8.2080   -0.0000 C   0  0  0  0  0  0  0  0  0  0  0  0
  -10.5600   -8.9445   -0.0000 C   0  0  0  0  0  0  0  0  0  0  0  0
  -11.8666   -8.1724   -0.0000 C   0  0  0  0  0  0  0  0  0  0  0  0
  -13.1851   -7.4122   -0.0000 F   0  0  0  0  0  0  0  0  0  0  0  0
  -11.8666   -6.6638   -0.0000 F   0  0  0  0  0  0  0  0  0  0  0  0
  -13.1851   -8.9088   -0.0000 F   0  0  0  0  0  0  0  0  0  0  0  0
  1  2  1  0  0  0  0
  2  3  1  0  0  0  0
  2  4  1  0  0  0  0
  2  5  1  0  0  0  0
  5  6  1  0  0  0  0
  6  7  2  0  0  0  0
  6  8  1  0  0  0  0
  7  9  1  0  0  0  0
  8 10  2  0  0  0  0
  9 11  2  0  0  0  0
  9 12  1  0  0  0  0
 12 13  1  0  0  0  0
 13 14  1  0  0  0  0
 15 13  1  1  0  0  0
 14 16  2  0  0  0  0
 14 17  1  0  0  0  0
 15 18  1  0  0  0  0
 15 19  1  0  0  0  0
 17 20  1  0  0  0  0
 17 21  2  0  0  0  0
 22 18  1  1  0  0  0
 23 19  1  1  0  0  0
 20 24  2  0  0  0  0
 21 25  1  0  0  0  0
 22 26  1  0  0  0  0
 23 27  1  0  0  0  0
 25 28  1  0  0  0  0
 26 29  1  0  0  0  0
 29 30  1  0  0  0  0
 30 31  1  0  0  0  0
 31 32  1  0  0  0  0
 32 33  1  0  0  0  0
 32 34  1  0  0  0  0
 32 35  1  0  0  0  0
 10 11  1  0  0  0  0
 22 23  1  0  0  0  0
 24 25  1  0  0  0  0
 27 29  1  0  0  0  0
M  END
>  <MolRegNo>
600580

>  <m>
=

>  <Value>
8700

>  <Unit>
nM

>  <Type>
IC50

>  <pValue>
5.06

>  <Ligand Efficiency>
0

>  <Binding Efficiency>
0

>  <Surface Efficiency>
0

>  <Assay Index>
457654

>  <Assay Category>


>  <Assay Organism>


>  <Target ID>
17045

>  <Target Name>
Cytochrome P450 3A4

>  <Target Organism>
Homo sapiens

>  <Target Description>
Target is a single protein chain

>  <Sequence Accession>
P08684

>  <Reference>
Bioorg Med Chem Lett 20 (3), 907-911 (2010)

>  <Pubmed ID>
20045321

>  <DOI>
10.1016/j.bmcl.2009.12.071

$$$$
600662
Actelion Java MolfileCreator 1.0

 29 32  0  0  1  0  0  0  0  0999 V2000
    0.0000   -0.0000   -0.0000 F   0  0  0  0  0  0  0  0  0  0  0  0
   -1.3174    0.7596   -0.0000 C   0  0  0  0  0  0  0  0  0  0  0  0
   -1.3293    2.2787   -0.0000 C   0  0  0  0  0  0  0  0  0  0  0  0
   -2.6348    0.0237   -0.0000 C   0  0  0  0  0  0  0  0  0  0  0  0
   -2.6348    3.0383   -0.0000 C   0  0  0  0  0  0  0  0  0  0  0  0
   -0.0475    3.0502   -0.0000 C   0  0  0  0  0  0  0  0  0  0  0  0
   -3.9403    0.7833   -0.0000 C   0  0  0  0  0  0  0  0  0  0  0  0
   -3.9403    2.3025   -0.0000 C   0  0  0  0  0  0  0  0  0  0  0  0
    0.9969    4.1302   -0.0000 F   0  0  0  0  0  0  0  0  0  0  0  0
    1.2462    2.3143   -0.0000 F   0  0  0  0  0  0  0  0  0  0  0  0
   -0.0593    4.5574   -0.0000 F   0  0  0  0  0  0  0  0  0  0  0  0
   -5.2458    3.0620   -0.0000 C   0  0  0  0  0  0  0  0  0  0  0  0
   -6.5513    2.3262   -0.0000 N   0  0  0  0  0  0  0  0  0  0  0  0
   -7.8568    3.0858   -0.0000 C   0  0  0  0  0  0  0  0  0  0  0  0
   -6.5632    0.8427   -0.0000 C   0  0  0  0  0  0  0  0  0  0  0  0
   -7.8687    4.5930   -0.0000 O   0  0  0  0  0  0  0  0  0  0  0  0
   -9.1623    2.3499   -0.0000 C   0  0  0  0  0  0  0  0  0  0  0  0
   -5.3526   -0.0237   -0.0000 C   0  0  0  0  0  0  0  0  0  0  0  0
   -7.7856   -0.0237   -0.0000 C   0  0  0  0  0  0  0  0  0  0  0  0
  -10.4085    3.2163   -0.0000 N   0  0  0  0  0  0  0  0  0  0  0  0
   -9.6252    0.9257   -0.0000 C   0  0  0  0  0  0  0  0  0  0  0  0
   -5.8273   -1.4361   -0.0000 C   0  0  0  0  0  0  0  0  0  0  0  0
   -7.3228   -1.4361   -0.0000 C   0  0  0  0  0  0  0  0  0  0  0  0
  -11.6191    2.3262   -0.0000 C   0  0  0  0  0  0  0  0  0  0  0  0
  -11.1325    0.9139   -0.0000 N   0  0  0  0  0  0  0  0  0  0  0  0
   -5.3882   -2.8484   -0.0000 C   0  0  0  0  0  0  0  0  0  0  0  0
   -7.8094   -2.8484   -0.0000 C   0  0  0  0  0  0  0  0  0  0  0  0
  -12.0107   -0.2967   -0.0000 C   0  0  0  0  0  0  0  0  0  0  0  0
   -6.6107   -3.7029   -0.0000 N   0  0  0  0  0  0  0  0  0  0  0  0
  1  2  1  0  0  0  0
  2  3  2  0  0  0  0
  2  4  1  0  0  0  0
  3  5  1  0  0  0  0
  3  6  1  0  0  0  0
  4  7  2  0  0  0  0
  5  8  2  0  0  0  0
  6  9  1  0  0  0  0
  6 10  1  0  0  0  0
  6 11  1  0  0  0  0
  8 12  1  0  0  0  0
 12 13  1  0  0  0  0
 13 14  1  0  0  0  0
 15 13  1  6  0  0  0
 14 16  2  0  0  0  0
 14 17  1  0  0  0  0
 15 18  1  0  0  0  0
 15 19  1  0  0  0  0
 17 20  1  0  0  0  0
 17 21  2  0  0  0  0
 22 18  1  1  0  0  0
 23 19  1  1  0  0  0
 20 24  2  0  0  0  0
 21 25  1  0  0  0  0
 22 26  1  0  0  0  0
 23 27  1  0  0  0  0
 25 28  1  0  0  0  0
 26 29  1  0  0  0  0
  7  8  1  0  0  0  0
 22 23  1  0  0  0  0
 24 25  1  0  0  0  0
 27 29  1  0  0  0  0
M  END
>  <MolRegNo>
600662

>  <m>
=

>  <Value>
8200

>  <Unit>
nM

>  <Type>
IC50

>  <pValue>
5.09

>  <Ligand Efficiency>
0

>  <Binding Efficiency>
0

>  <Surface Efficiency>
0

>  <Assay Index>
457654

>  <Assay Category>


>  <Assay Organism>


>  <Target ID>
17045

>  <Target Name>
Cytochrome P450 3A4

>  <Target Organism>
Homo sapiens

>  <Target Description>
Target is a single protein chain

>  <Sequence Accession>
P08684

>  <Reference>
Bioorg Med Chem Lett 20 (3), 907-911 (2010)

>  <Pubmed ID>
20045321

>  <DOI>
10.1016/j.bmcl.2009.12.071

$$$$
597278
Actelion Java MolfileCreator 1.0

 35 37  0  0  0  0  0  0  0  0999 V2000
    0.0000   -0.0000   -0.0000 O   0  0  0  0  0  0  0  0  0  0  0  0
   -1.4411   -0.4489   -0.0000 C   0  0  0  0  0  0  0  0  0  0  0  0
   -1.7600   -1.9018   -0.0000 C   0  0  0  0  0  0  0  0  0  0  0  0
   -2.5633    0.5670   -0.0000 C   0  0  0  0  0  0  0  0  0  0  0  0
   -3.2011   -2.3506   -0.0000 C   0  0  0  0  0  0  0  0  0  0  0  0
   -0.6615   -2.8940   -0.0000 C   0  0  0  0  0  0  0  0  0  0  0  0
   -2.2680    2.0435   -0.0000 N   0  0  0  0  0  0  0  0  0  0  0  0
   -3.5201   -3.8036   -0.0000 C   0  0  0  0  0  0  0  0  0  0  0  0
   -0.9804   -4.3469   -0.0000 C   0  0  0  0  0  0  0  0  0  0  0  0
   -0.9095    2.6696   -0.0000 C   0  0  0  0  0  0  0  0  0  0  0  0
   -3.2838    3.1657   -0.0000 C   0  0  0  0  0  0  0  0  0  0  0  0
   -2.4215   -4.7958   -0.0000 C   0  0  0  0  0  0  0  0  0  0  0  0
   -4.9612   -4.2524   -0.0000 C   0  0  0  0  0  0  0  0  0  0  0  0
    0.1181   -5.3392   -0.0000 C   0  0  0  0  0  0  0  0  0  0  0  0
   -1.0749    4.1697   -0.0000 N   0  0  0  0  0  0  0  0  0  0  0  0
    0.3780    1.9254   -0.0000 N   0  0  0  0  0  0  0  0  0  0  0  0
   -2.5396    4.4769   -0.0000 C   0  0  0  0  0  0  0  0  0  0  0  0
   -4.7958    3.1775   -0.0000 C   0  0  0  0  0  0  0  0  0  0  0  0
   -2.7405   -6.2487   -0.0000 O   0  0  0  0  0  0  0  0  0  0  0  0
   -6.4023   -4.7013   -0.0000 C   0  0  0  0  0  0  0  0  0  0  0  0
   -5.4337   -2.8113   -0.0000 C   0  0  0  0  0  0  0  0  0  0  0  0
   -4.5123   -5.6699   -0.0000 C   0  0  0  0  0  0  0  0  0  0  0  0
    1.2167   -6.3314   -0.0000 C   0  0  0  0  0  0  0  0  0  0  0  0
   -0.8977   -6.4377   -0.0000 C   0  0  0  0  0  0  0  0  0  0  0  0
    1.1104   -4.2170   -0.0000 C   0  0  0  0  0  0  0  0  0  0  0  0
    1.6655    2.6932   -0.0000 C   0  0  0  0  0  0  0  0  0  0  0  0
   -3.2956    5.7880   -0.0000 C   0  0  0  0  0  0  0  0  0  0  0  0
   -5.5636    4.4887   -0.0000 C   0  0  0  0  0  0  0  0  0  0  0  0
   -1.6419   -7.2409   -0.0000 C   0  0  0  0  0  0  0  0  0  0  0  0
    2.9531    1.9490   -0.0000 C   0  0  0  0  0  0  0  0  0  0  0  0
   -4.8076    5.7998   -0.0000 C   0  0  0  0  0  0  0  0  0  0  0  0
   -7.0756    4.5005   -0.0000 C   0  0  0  0  0  0  0  0  0  0  0  0
    4.2406    2.7168   -0.0000 C   0  0  0  0  0  0  0  0  0  0  0  0
   -5.5754    7.1110   -0.0000 C   0  0  0  0  0  0  0  0  0  0  0  0
    5.5282    1.9727   -0.0000 O   0  0  0  0  0  0  0  0  0  0  0  0
  1  2  2  0  0  0  0
  2  3  1  0  0  0  0
  2  4  1  0  0  0  0
  3  5  2  0  0  0  0
  3  6  1  0  0  0  0
  4  7  1  0  0  0  0
  5  8  1  0  0  0  0
  6  9  2  0  0  0  0
  7 10  1  0  0  0  0
  7 11  1  0  0  0  0
  8 12  2  0  0  0  0
  8 13  1  0  0  0  0
  9 14  1  0  0  0  0
 10 15  2  0  0  0  0
 10 16  1  0  0  0  0
 11 17  2  0  0  0  0
 11 18  1  0  0  0  0
 12 19  1  0  0  0  0
 13 20  1  0  0  0  0
 13 21  1  0  0  0  0
 13 22  1  0  0  0  0
 14 23  1  0  0  0  0
 14 24  1  0  0  0  0
 14 25  1  0  0  0  0
 16 26  1  0  0  0  0
 17 27  1  0  0  0  0
 18 28  2  0  0  0  0
 19 29  1  0  0  0  0
 26 30  1  0  0  0  0
 27 31  2  0  0  0  0
 28 32  1  0  0  0  0
 30 33  1  0  0  0  0
 31 34  1  0  0  0  0
 33 35  1  0  0  0  0
  9 12  1  0  0  0  0
 15 17  1  0  0  0  0
 28 31  1  0  0  0  0
M  END
>  <MolRegNo>
597278

>  <m>
=

>  <Value>
67000

>  <Unit>
nM

>  <Type>
IC50

>  <pValue>
4.17

>  <Ligand Efficiency>
0

>  <Binding Efficiency>
0

>  <Surface Efficiency>
0

>  <Assay Index>
454552

>  <Assay Category>


>  <Assay Organism>
Homo sapiens

>  <Target ID>
17045

>  <Target Name>
Cytochrome P450 3A4

>  <Target Organism>
Homo sapiens

>  <Target Description>
Target is a single protein chain

>  <Sequence Accession>
P08684

>  <Reference>
Bioorg Med Chem 18 (5), 1918-1924 (2010)

>  <Pubmed ID>
20153655

>  <DOI>
10.1016/j.bmc.2010.01.039

$$$$
597214
Actelion Java MolfileCreator 1.0

 34 36  0  0  0  0  0  0  0  0999 V2000
    0.0000   -0.0000   -0.0000 O   0  0  0  0  0  0  0  0  0  0  0  0
    1.0995    1.0167   -0.0000 C   0  0  0  0  0  0  0  0  0  0  0  0
    0.7803    2.4946   -0.0000 C   0  0  0  0  0  0  0  0  0  0  0  0
    2.5182    0.5675   -0.0000 C   0  0  0  0  0  0  0  0  0  0  0  0
   -0.6621    2.9675   -0.0000 C   0  0  0  0  0  0  0  0  0  0  0  0
    1.8798    3.5113   -0.0000 C   0  0  0  0  0  0  0  0  0  0  0  0
    2.8138   -0.8867   -0.0000 N   0  0  0  0  0  0  0  0  0  0  0  0
   -0.9813    4.4453   -0.0000 C   0  0  0  0  0  0  0  0  0  0  0  0
    1.5606    4.9892   -0.0000 C   0  0  0  0  0  0  0  0  0  0  0  0
    4.1734   -1.4897   -0.0000 C   0  0  0  0  0  0  0  0  0  0  0  0
    1.7970   -1.9862   -0.0000 C   0  0  0  0  0  0  0  0  0  0  0  0
    0.1182    5.4621   -0.0000 C   0  0  0  0  0  0  0  0  0  0  0  0
   -2.4236    4.9182   -0.0000 C   0  0  0  0  0  0  0  0  0  0  0  0
    2.6601    6.0059   -0.0000 C   0  0  0  0  0  0  0  0  0  0  0  0
    4.0079   -2.9675   -0.0000 N   0  0  0  0  0  0  0  0  0  0  0  0
    5.4621   -0.7330   -0.0000 N   0  0  0  0  0  0  0  0  0  0  0  0
    2.5301   -3.2749   -0.0000 C   0  0  0  0  0  0  0  0  0  0  0  0
    0.2837   -1.9744   -0.0000 C   0  0  0  0  0  0  0  0  0  0  0  0
   -0.2010    6.9399   -0.0000 O   0  0  0  0  0  0  0  0  0  0  0  0
   -3.8660    5.3911   -0.0000 C   0  0  0  0  0  0  0  0  0  0  0  0
   -2.8966    3.4995   -0.0000 C   0  0  0  0  0  0  0  0  0  0  0  0
   -1.9744    6.3606   -0.0000 C   0  0  0  0  0  0  0  0  0  0  0  0
    3.7596    7.0227   -0.0000 C   0  0  0  0  0  0  0  0  0  0  0  0
    3.6532    4.9064   -0.0000 C   0  0  0  0  0  0  0  0  0  0  0  0
    1.6434    7.1291   -0.0000 C   0  0  0  0  0  0  0  0  0  0  0  0
    6.7507   -1.4660   -0.0000 C   0  0  0  0  0  0  0  0  0  0  0  0
    1.7734   -4.5635   -0.0000 C   0  0  0  0  0  0  0  0  0  0  0  0
   -0.4729   -3.2631   -0.0000 C   0  0  0  0  0  0  0  0  0  0  0  0
    8.0394   -0.7094   -0.0000 C   0  0  0  0  0  0  0  0  0  0  0  0
    0.2601   -4.5517   -0.0000 C   0  0  0  0  0  0  0  0  0  0  0  0
   -1.9862   -3.2512   -0.0000 C   0  0  0  0  0  0  0  0  0  0  0  0
    9.3281   -1.4424   -0.0000 C   0  0  0  0  0  0  0  0  0  0  0  0
   -0.4966   -5.8404   -0.0000 C   0  0  0  0  0  0  0  0  0  0  0  0
   10.6168   -0.6857   -0.0000 O   0  0  0  0  0  0  0  0  0  0  0  0
  1  2  2  0  0  0  0
  2  3  1  0  0  0  0
  2  4  1  0  0  0  0
  3  5  2  0  0  0  0
  3  6  1  0  0  0  0
  4  7  1  0  0  0  0
  5  8  1  0  0  0  0
  6  9  2  0  0  0  0
  7 10  1  0  0  0  0
  7 11  1  0  0  0  0
  8 12  2  0  0  0  0
  8 13  1  0  0  0  0
  9 14  1  0  0  0  0
 10 15  2  0  0  0  0
 10 16  1  0  0  0  0
 11 17  2  0  0  0  0
 11 18  1  0  0  0  0
 12 19  1  0  0  0  0
 13 20  1  0  0  0  0
 13 21  1  0  0  0  0
 13 22  1  0  0  0  0
 14 23  1  0  0  0  0
 14 24  1  0  0  0  0
 14 25  1  0  0  0  0
 16 26  1  0  0  0  0
 17 27  1  0  0  0  0
 18 28  2  0  0  0  0
 26 29  1  0  0  0  0
 27 30  2  0  0  0  0
 28 31  1  0  0  0  0
 29 32  1  0  0  0  0
 30 33  1  0  0  0  0
 32 34  1  0  0  0  0
  9 12  1  0  0  0  0
 15 17  1  0  0  0  0
 28 30  1  0  0  0  0
M  END
>  <MolRegNo>
597214

>  <m>
=

>  <Value>
85000

>  <Unit>
nM

>  <Type>
IC50

>  <pValue>
4.07

>  <Ligand Efficiency>
0

>  <Binding Efficiency>
0

>  <Surface Efficiency>
0

>  <Assay Index>
454552

>  <Assay Category>


>  <Assay Organism>
Homo sapiens

>  <Target ID>
17045

>  <Target Name>
Cytochrome P450 3A4

>  <Target Organism>
Homo sapiens

>  <Target Description>
Target is a single protein chain

>  <Sequence Accession>
P08684

>  <Reference>
Bioorg Med Chem 18 (5), 1918-1924 (2010)

>  <Pubmed ID>
20153655

>  <DOI>
10.1016/j.bmc.2010.01.039

$$$$
597279
Actelion Java MolfileCreator 1.0

 35 37  0  0  0  0  0  0  0  0999 V2000
    0.0000   -0.0000   -0.0000 O   0  0  0  0  0  0  0  0  0  0  0  0
    1.0991   -0.9928   -0.0000 C   0  0  0  0  0  0  0  0  0  0  0  0
    0.7800   -2.4465   -0.0000 C   0  0  0  0  0  0  0  0  0  0  0  0
    2.5174   -0.5200   -0.0000 C   0  0  0  0  0  0  0  0  0  0  0  0
   -0.6618   -2.8956   -0.0000 C   0  0  0  0  0  0  0  0  0  0  0  0
    1.8792   -3.4392   -0.0000 C   0  0  0  0  0  0  0  0  0  0  0  0
    2.8128    0.9573   -0.0000 N   0  0  0  0  0  0  0  0  0  0  0  0
   -0.9809   -4.3493   -0.0000 C   0  0  0  0  0  0  0  0  0  0  0  0
    1.5601   -4.8929   -0.0000 C   0  0  0  0  0  0  0  0  0  0  0  0
    4.1720    1.5837   -0.0000 C   0  0  0  0  0  0  0  0  0  0  0  0
    1.7964    2.0801   -0.0000 C   0  0  0  0  0  0  0  0  0  0  0  0
    0.1182   -5.3420   -0.0000 C   0  0  0  0  0  0  0  0  0  0  0  0
   -2.4228   -4.7984   -0.0000 C   0  0  0  0  0  0  0  0  0  0  0  0
    2.6592   -5.8857   -0.0000 C   0  0  0  0  0  0  0  0  0  0  0  0
    4.0065    3.0847   -0.0000 N   0  0  0  0  0  0  0  0  0  0  0  0
    5.4602    0.8391   -0.0000 N   0  0  0  0  0  0  0  0  0  0  0  0
    2.5410    3.3920   -0.0000 C   0  0  0  0  0  0  0  0  0  0  0  0
    0.2836    2.0919   -0.0000 C   0  0  0  0  0  0  0  0  0  0  0  0
   -0.2009   -6.7957   -0.0000 O   0  0  0  0  0  0  0  0  0  0  0  0
   -3.8647   -5.2475   -0.0000 C   0  0  0  0  0  0  0  0  0  0  0  0
   -2.8956   -3.3565   -0.0000 C   0  0  0  0  0  0  0  0  0  0  0  0
   -1.9737   -6.2166   -0.0000 C   0  0  0  0  0  0  0  0  0  0  0  0
    3.7583   -6.8785   -0.0000 C   0  0  0  0  0  0  0  0  0  0  0  0
    1.6428   -6.9848   -0.0000 C   0  0  0  0  0  0  0  0  0  0  0  0
    3.6520   -4.7629   -0.0000 C   0  0  0  0  0  0  0  0  0  0  0  0
    6.7485    1.6073   -0.0000 C   0  0  0  0  0  0  0  0  0  0  0  0
    1.7846    4.7038   -0.0000 C   0  0  0  0  0  0  0  0  0  0  0  0
   -0.4846    3.4038   -0.0000 C   0  0  0  0  0  0  0  0  0  0  0  0
    8.0367    0.8628   -0.0000 C   0  0  0  0  0  0  0  0  0  0  0  0
    0.2718    4.7156   -0.0000 C   0  0  0  0  0  0  0  0  0  0  0  0
   -1.9974    3.4156   -0.0000 C   0  0  0  0  0  0  0  0  0  0  0  0
    9.3249    1.6310   -0.0000 C   0  0  0  0  0  0  0  0  0  0  0  0
   -0.4964    6.0275   -0.0000 C   0  0  0  0  0  0  0  0  0  0  0  0
   10.6132    0.8864   -0.0000 O   0  0  0  0  0  0  0  0  0  0  0  0
   11.9014    1.6546   -0.0000 C   0  0  0  0  0  0  0  0  0  0  0  0
  1  2  2  0  0  0  0
  2  3  1  0  0  0  0
  2  4  1  0  0  0  0
  3  5  2  0  0  0  0
  3  6  1  0  0  0  0
  4  7  1  0  0  0  0
  5  8  1  0  0  0  0
  6  9  2  0  0  0  0
  7 10  1  0  0  0  0
  7 11  1  0  0  0  0
  8 12  2  0  0  0  0
  8 13  1  0  0  0  0
  9 14  1  0  0  0  0
 10 15  2  0  0  0  0
 10 16  1  0  0  0  0
 11 17  2  0  0  0  0
 11 18  1  0  0  0  0
 12 19  1  0  0  0  0
 13 20  1  0  0  0  0
 13 21  1  0  0  0  0
 13 22  1  0  0  0  0
 14 23  1  0  0  0  0
 14 24  1  0  0  0  0
 14 25  1  0  0  0  0
 16 26  1  0  0  0  0
 17 27  1  0  0  0  0
 18 28  2  0  0  0  0
 26 29  1  0  0  0  0
 27 30  2  0  0  0  0
 28 31  1  0  0  0  0
 29 32  1  0  0  0  0
 30 33  1  0  0  0  0
 32 34  1  0  0  0  0
 34 35  1  0  0  0  0
  9 12  1  0  0  0  0
 15 17  1  0  0  0  0
 28 30  1  0  0  0  0
M  END
>  <MolRegNo>
597279

>  <m>
=

>  <Value>
97000

>  <Unit>
nM

>  <Type>
IC50

>  <pValue>
4.01

>  <Ligand Efficiency>
0

>  <Binding Efficiency>
0

>  <Surface Efficiency>
0

>  <Assay Index>
454552

>  <Assay Category>


>  <Assay Organism>
Homo sapiens

>  <Target ID>
17045

>  <Target Name>
Cytochrome P450 3A4

>  <Target Organism>
Homo sapiens

>  <Target Description>
Target is a single protein chain

>  <Sequence Accession>
P08684

>  <Reference>
Bioorg Med Chem 18 (5), 1918-1924 (2010)

>  <Pubmed ID>
20153655

>  <DOI>
10.1016/j.bmc.2010.01.039

$$$$
596971
Actelion Java MolfileCreator 1.0

 20 23  0  0  1  0  0  0  0  0999 V2000
    0.0000   -0.0000   -0.0000 Cl  0  0  0  0  0  0  0  0  0  0  0  0
   -1.2849    0.7898   -0.0000 C   0  0  0  0  0  0  0  0  0  0  0  0
   -1.2613    2.2986   -0.0000 C   0  0  0  0  0  0  0  0  0  0  0  0
   -2.6051    0.0825   -0.0000 C   0  0  0  0  0  0  0  0  0  0  0  0
    0.0354    3.0295   -0.0000 Cl  0  0  0  0  0  0  0  0  0  0  0  0
   -2.5580    3.0884   -0.0000 C   0  0  0  0  0  0  0  0  0  0  0  0
   -3.8900    0.8723   -0.0000 C   0  0  0  0  0  0  0  0  0  0  0  0
   -3.8782    2.3812   -0.0000 C   0  0  0  0  0  0  0  0  0  0  0  0
   -4.9509   -0.1768   -0.0000 C   0  0  0  0  0  0  0  0  0  0  0  0
   -5.6936   -1.4617   -0.0000 C   0  0  0  0  0  0  0  0  0  0  0  0
   -4.2083   -1.4499   -0.0000 C   0  0  0  0  0  0  0  0  0  0  0  0
   -5.7171    1.1316   -0.0000 C   0  0  0  0  0  0  0  0  0  0  0  0
   -6.1651   -2.8762   -0.0000 C   0  0  0  0  0  0  0  0  0  0  0  0
   -3.7368   -2.8645   -0.0000 C   0  0  0  0  0  0  0  0  0  0  0  0
   -7.2260    1.1316   -0.0000 O   0  0  0  0  0  0  0  0  0  0  0  0
   -4.9509   -3.7368   -0.0000 N   0  0  0  0  0  0  0  0  0  0  0  0
   -7.9922    2.4283   -0.0000 C   0  0  0  0  0  0  0  0  0  0  0  0
   -9.4303    2.9116   -0.0000 C   0  0  0  0  0  0  0  0  0  0  0  0
   -7.5325    3.8546   -0.0000 C   0  0  0  0  0  0  0  0  0  0  0  0
   -8.9706    4.3380   -0.0000 C   0  0  0  0  0  0  0  0  0  0  0  0
  1  2  1  0  0  0  0
  2  3  2  0  0  0  0
  2  4  1  0  0  0  0
  3  5  1  0  0  0  0
  3  6  1  0  0  0  0
  4  7  2  0  0  0  0
  6  8  2  0  0  0  0
  7  9  1  0  0  0  0
  9 10  1  0  0  0  0
  9 11  1  6  0  0  0
  9 12  1  0  0  0  0
 10 13  1  6  0  0  0
 11 14  1  6  0  0  0
 12 15  1  0  0  0  0
 13 16  1  0  0  0  0
 15 17  1  0  0  0  0
 17 18  1  0  0  0  0
 17 19  1  0  0  0  0
 18 20  1  0  0  0  0
  7  8  1  0  0  0  0
 10 11  1  0  0  0  0
 14 16  1  0  0  0  0
 19 20  1  0  0  0  0
M  END
>  <MolRegNo>
596971

>  <m>
=

>  <Value>
3000

>  <Unit>
nM

>  <Type>
IC50

>  <pValue>
5.52

>  <Ligand Efficiency>
0

>  <Binding Efficiency>
0

>  <Surface Efficiency>
0

>  <Assay Index>
459218

>  <Assay Category>


>  <Assay Organism>
Homo sapiens

>  <Target ID>
17045

>  <Target Name>
Cytochrome P450 3A4

>  <Target Organism>
Homo sapiens

>  <Target Description>
Target is a single protein chain

>  <Sequence Accession>
P08684

>  <Reference>
J Med Chem 53 (6), 2534-2551 (2010)

>  <Pubmed ID>
20170186

>  <DOI>
10.1021/jm901818u

$$$$
596970
Actelion Java MolfileCreator 1.0

 20 23  0  0  1  0  0  0  0  0999 V2000
    0.0000   -0.0000   -0.0000 Cl  0  0  0  0  0  0  0  0  0  0  0  0
   -1.2857    0.7903   -0.0000 C   0  0  0  0  0  0  0  0  0  0  0  0
   -1.2621    2.3000   -0.0000 C   0  0  0  0  0  0  0  0  0  0  0  0
   -2.6067    0.0826   -0.0000 C   0  0  0  0  0  0  0  0  0  0  0  0
    0.0354    3.0313   -0.0000 Cl  0  0  0  0  0  0  0  0  0  0  0  0
   -2.5595    3.0903   -0.0000 C   0  0  0  0  0  0  0  0  0  0  0  0
   -3.8924    0.8728   -0.0000 C   0  0  0  0  0  0  0  0  0  0  0  0
   -3.8806    2.3826   -0.0000 C   0  0  0  0  0  0  0  0  0  0  0  0
   -4.9539   -0.1769   -0.0000 C   0  0  0  0  0  0  0  0  0  0  0  0
   -5.6970   -1.4626   -0.0000 C   0  0  0  0  0  0  0  0  0  0  0  0
   -4.2108   -1.4508   -0.0000 C   0  0  0  0  0  0  0  0  0  0  0  0
   -5.7206    1.1323   -0.0000 C   0  0  0  0  0  0  0  0  0  0  0  0
   -6.1688   -2.8780   -0.0000 C   0  0  0  0  0  0  0  0  0  0  0  0
   -3.7390   -2.8662   -0.0000 C   0  0  0  0  0  0  0  0  0  0  0  0
   -7.2304    1.1323   -0.0000 O   0  0  0  0  0  0  0  0  0  0  0  0
   -4.9539   -3.7390   -0.0000 N   0  0  0  0  0  0  0  0  0  0  0  0
   -7.9970    2.4298   -0.0000 C   0  0  0  0  0  0  0  0  0  0  0  0
   -9.5068    2.4298   -0.0000 C   0  0  0  0  0  0  0  0  0  0  0  0
  -10.8043    1.6867   -0.0000 C   0  0  0  0  0  0  0  0  0  0  0  0
  -10.8161    3.1847   -0.0000 C   0  0  0  0  0  0  0  0  0  0  0  0
  1  2  1  0  0  0  0
  2  3  2  0  0  0  0
  2  4  1  0  0  0  0
  3  5  1  0  0  0  0
  3  6  1  0  0  0  0
  4  7  2  0  0  0  0
  6  8  2  0  0  0  0
  7  9  1  0  0  0  0
  9 10  1  0  0  0  0
  9 11  1  6  0  0  0
  9 12  1  0  0  0  0
 10 13  1  6  0  0  0
 11 14  1  6  0  0  0
 12 15  1  0  0  0  0
 13 16  1  0  0  0  0
 15 17  1  0  0  0  0
 17 18  1  0  0  0  0
 18 19  1  0  0  0  0
 18 20  1  0  0  0  0
  7  8  1  0  0  0  0
 10 11  1  0  0  0  0
 14 16  1  0  0  0  0
 19 20  1  0  0  0  0
M  END
>  <MolRegNo>
596970

>  <m>
=

>  <Value>
4000

>  <Unit>
nM

>  <Type>
IC50

>  <pValue>
5.4

>  <Ligand Efficiency>
0

>  <Binding Efficiency>
0

>  <Surface Efficiency>
0

>  <Assay Index>
459218

>  <Assay Category>


>  <Assay Organism>
Homo sapiens

>  <Target ID>
17045

>  <Target Name>
Cytochrome P450 3A4

>  <Target Organism>
Homo sapiens

>  <Target Description>
Target is a single protein chain

>  <Sequence Accession>
P08684

>  <Reference>
J Med Chem 53 (6), 2534-2551 (2010)

>  <Pubmed ID>
20170186

>  <DOI>
10.1021/jm901818u

$$$$
598680
Actelion Java MolfileCreator 1.0

 32 34  0  0  0  0  0  0  0  0999 V2000
    0.0000   -0.0000   -0.0000 O   0  0  0  0  0  0  0  0  0  0  0  0
   -0.0119    1.5056   -0.0000 C   0  0  0  0  0  0  0  0  0  0  0  0
    1.2685    2.2644   -0.0000 N   0  0  0  0  0  0  0  0  0  0  0  0
   -1.3160    2.2644   -0.0000 C   0  0  0  0  0  0  0  0  0  0  0  0
    2.5489    1.5294   -0.0000 C   0  0  0  0  0  0  0  0  0  0  0  0
   -2.6201    1.5294   -0.0000 C   0  0  0  0  0  0  0  0  0  0  0  0
   -1.3278    3.7700   -0.0000 C   0  0  0  0  0  0  0  0  0  0  0  0
    2.5371    0.0474   -0.0000 C   0  0  0  0  0  0  0  0  0  0  0  0
    3.8293    2.3000   -0.0000 C   0  0  0  0  0  0  0  0  0  0  0  0
   -3.9242    2.2881   -0.0000 C   0  0  0  0  0  0  0  0  0  0  0  0
   -2.6438    4.5288   -0.0000 C   0  0  0  0  0  0  0  0  0  0  0  0
    3.8175   -0.6876   -0.0000 C   0  0  0  0  0  0  0  0  0  0  0  0
    5.1097    1.5768   -0.0000 C   0  0  0  0  0  0  0  0  0  0  0  0
   -3.9479    3.7937   -0.0000 C   0  0  0  0  0  0  0  0  0  0  0  0
   -5.2283    1.5531   -0.0000 C   0  0  0  0  0  0  0  0  0  0  0  0
    5.0978    0.0711   -0.0000 C   0  0  0  0  0  0  0  0  0  0  0  0
   -6.5442    2.3118   -0.0000 N   0  0  0  0  0  0  0  0  0  0  0  0
    6.3901   -0.6639   -0.0000 C   0  0  0  0  0  0  0  0  0  0  0  0
   -7.8483    1.5768   -0.0000 C   0  0  0  0  0  0  0  0  0  0  0  0
    7.6705    0.0948   -0.0000 N   0  0  0  0  0  0  0  0  0  0  0  0
   -7.8602    0.0948   -0.0000 O   0  0  0  0  0  0  0  0  0  0  0  0
   -9.1643    2.3355   -0.0000 C   0  0  0  0  0  0  0  0  0  0  0  0
    8.9627   -0.6402   -0.0000 C   0  0  0  0  0  0  0  0  0  0  0  0
    7.6586    1.6005   -0.0000 C   0  0  0  0  0  0  0  0  0  0  0  0
  -10.4684    1.5886   -0.0000 C   0  0  0  0  0  0  0  0  0  0  0  0
   -9.1880    3.8412   -0.0000 C   0  0  0  0  0  0  0  0  0  0  0  0
  -11.7843    2.3355   -0.0000 C   0  0  0  0  0  0  0  0  0  0  0  0
  -10.4921    4.5999   -0.0000 C   0  0  0  0  0  0  0  0  0  0  0  0
  -11.8080    3.8530   -0.0000 C   0  0  0  0  0  0  0  0  0  0  0  0
  -13.0884    1.5886   -0.0000 C   0  0  0  0  0  0  0  0  0  0  0  0
  -13.1240    4.6118   -0.0000 O   0  0  0  0  0  0  0  0  0  0  0  0
  -13.1358    6.1174   -0.0000 C   0  0  0  0  0  0  0  0  0  0  0  0
  1  2  2  0  0  0  0
  2  3  1  0  0  0  0
  2  4  1  0  0  0  0
  3  5  1  0  0  0  0
  4  6  2  0  0  0  0
  4  7  1  0  0  0  0
  5  8  2  0  0  0  0
  5  9  1  0  0  0  0
  6 10  1  0  0  0  0
  7 11  2  0  0  0  0
  8 12  1  0  0  0  0
  9 13  2  0  0  0  0
 10 14  2  0  0  0  0
 10 15  1  0  0  0  0
 12 16  2  0  0  0  0
 15 17  1  0  0  0  0
 16 18  1  0  0  0  0
 17 19  1  0  0  0  0
 18 20  1  0  0  0  0
 19 21  2  0  0  0  0
 19 22  1  0  0  0  0
 20 23  1  0  0  0  0
 20 24  1  0  0  0  0
 22 25  2  0  0  0  0
 22 26  1  0  0  0  0
 25 27  1  0  0  0  0
 26 28  2  0  0  0  0
 27 29  2  0  0  0  0
 27 30  1  0  0  0  0
 29 31  1  0  0  0  0
 31 32  1  0  0  0  0
 11 14  1  0  0  0  0
 13 16  1  0  0  0  0
 28 29  1  0  0  0  0
M  END
>  <MolRegNo>
598680

>  <m>
=

>  <Value>
13500

>  <Unit>
nM

>  <Type>
IC50

>  <pValue>
4.87

>  <Ligand Efficiency>
0

>  <Binding Efficiency>
0

>  <Surface Efficiency>
0

>  <Assay Index>
457187

>  <Assay Category>


>  <Assay Organism>
Homo sapiens

>  <Target ID>
17045

>  <Target Name>
Cytochrome P450 3A4

>  <Target Organism>
Homo sapiens

>  <Target Description>
Target is a single protein chain

>  <Sequence Accession>
P08684

>  <Reference>
J Med Chem 53 (2), 759-777 (2010)

>  <Pubmed ID>
20000469

>  <DOI>
10.1021/jm9014263

$$$$
598896
Actelion Java MolfileCreator 1.0

 32 35  0  0  0  0  0  0  0  0999 V2000
    0.0000   -0.0000   -0.0000 O   0  0  0  0  0  0  0  0  0  0  0  0
   -0.0119    1.5144   -0.0000 C   0  0  0  0  0  0  0  0  0  0  0  0
   -1.3236    2.2776   -0.0000 N   0  0  0  0  0  0  0  0  0  0  0  0
    1.2759    2.2776   -0.0000 N   0  0  0  0  0  0  0  0  0  0  0  0
   -2.6353    1.5383   -0.0000 C   0  0  0  0  0  0  0  0  0  0  0  0
    2.5638    1.5383   -0.0000 C   0  0  0  0  0  0  0  0  0  0  0  0
   -3.9470    2.3014   -0.0000 C   0  0  0  0  0  0  0  0  0  0  0  0
   -2.6473    0.0358   -0.0000 C   0  0  0  0  0  0  0  0  0  0  0  0
    3.8516    2.3014   -0.0000 C   0  0  0  0  0  0  0  0  0  0  0  0
   -5.2588    1.5621   -0.0000 C   0  0  0  0  0  0  0  0  0  0  0  0
   -3.9709   -0.7036   -0.0000 C   0  0  0  0  0  0  0  0  0  0  0  0
    5.1395    1.5621   -0.0000 C   0  0  0  0  0  0  0  0  0  0  0  0
    3.8278    3.8159   -0.0000 C   0  0  0  0  0  0  0  0  0  0  0  0
   -5.2707    0.0596   -0.0000 C   0  0  0  0  0  0  0  0  0  0  0  0
    6.4274    2.3253   -0.0000 C   0  0  0  0  0  0  0  0  0  0  0  0
    5.1037    4.5910   -0.0000 C   0  0  0  0  0  0  0  0  0  0  0  0
   -6.5824   -0.6797   -0.0000 C   0  0  0  0  0  0  0  0  0  0  0  0
    7.7152    1.5860   -0.0000 C   0  0  0  0  0  0  0  0  0  0  0  0
    6.4154    3.8397   -0.0000 C   0  0  0  0  0  0  0  0  0  0  0  0
   -7.9060   -1.4071   -0.0000 N   0  0  0  0  0  0  0  0  0  0  0  0
    7.7033    0.0954   -0.0000 O   0  0  0  0  0  0  0  0  0  0  0  0
    9.0031    2.3491   -0.0000 N   0  0  0  0  0  0  0  0  0  0  0  0
   10.2909    1.6098   -0.0000 C   0  0  0  0  0  0  0  0  0  0  0  0
   11.5669    2.3849   -0.0000 C   0  0  0  0  0  0  0  0  0  0  0  0
   10.2790    0.1192   -0.0000 C   0  0  0  0  0  0  0  0  0  0  0  0
   12.8547    1.6575   -0.0000 C   0  0  0  0  0  0  0  0  0  0  0  0
   11.5669   -0.6201   -0.0000 C   0  0  0  0  0  0  0  0  0  0  0  0
   12.8428    0.1550   -0.0000 C   0  0  0  0  0  0  0  0  0  0  0  0
   14.1426    2.4326   -0.0000 C   0  0  0  0  0  0  0  0  0  0  0  0
   14.1307   -0.5843   -0.0000 C   0  0  0  0  0  0  0  0  0  0  0  0
   15.4424    1.6814   -0.0000 N   0  0  0  0  0  0  0  0  0  0  0  0
   15.4304    0.1789   -0.0000 C   0  0  0  0  0  0  0  0  0  0  0  0
  1  2  2  0  0  0  0
  2  3  1  0  0  0  0
  2  4  1  0  0  0  0
  3  5  1  0  0  0  0
  4  6  1  0  0  0  0
  5  7  2  0  0  0  0
  5  8  1  0  0  0  0
  6  9  1  0  0  0  0
  7 10  1  0  0  0  0
  8 11  2  0  0  0  0
  9 12  2  0  0  0  0
  9 13  1  0  0  0  0
 10 14  2  0  0  0  0
 12 15  1  0  0  0  0
 13 16  2  0  0  0  0
 14 17  1  0  0  0  0
 15 18  1  0  0  0  0
 15 19  2  0  0  0  0
 17 20  3  0  0  0  0
 18 21  2  0  0  0  0
 18 22  1  0  0  0  0
 22 23  1  0  0  0  0
 23 24  2  0  0  0  0
 23 25  1  0  0  0  0
 24 26  1  0  0  0  0
 25 27  2  0  0  0  0
 26 28  2  0  0  0  0
 26 29  1  0  0  0  0
 28 30  1  0  0  0  0
 29 31  1  0  0  0  0
 30 32  1  0  0  0  0
 11 14  1  0  0  0  0
 16 19  1  0  0  0  0
 27 28  1  0  0  0  0
 31 32  1  0  0  0  0
M  END
>  <MolRegNo>
598896

>  <m>
=

>  <Value>
5900

>  <Unit>
nM

>  <Type>
IC50

>  <pValue>
5.23

>  <Ligand Efficiency>
0

>  <Binding Efficiency>
0

>  <Surface Efficiency>
0

>  <Assay Index>
457188

>  <Assay Category>


>  <Assay Organism>
Homo sapiens

>  <Target ID>
17045

>  <Target Name>
Cytochrome P450 3A4

>  <Target Organism>
Homo sapiens

>  <Target Description>
Target is a single protein chain

>  <Sequence Accession>
P08684

>  <Reference>
J Med Chem 53 (2), 759-777 (2010)

>  <Pubmed ID>
20000469

>  <DOI>
10.1021/jm9014263

$$$$
599591
Actelion Java MolfileCreator 1.0

 33 35  0  0  0  0  0  0  0  0999 V2000
    0.0000   -0.0000   -0.0000 O   0  0  0  0  0  0  0  0  0  0  0  0
   -0.0119    1.5073   -0.0000 C   0  0  0  0  0  0  0  0  0  0  0  0
    1.2699    2.2669   -0.0000 N   0  0  0  0  0  0  0  0  0  0  0  0
   -1.3174    2.2669   -0.0000 C   0  0  0  0  0  0  0  0  0  0  0  0
    2.5517    1.5310   -0.0000 C   0  0  0  0  0  0  0  0  0  0  0  0
   -2.6229    1.5310   -0.0000 C   0  0  0  0  0  0  0  0  0  0  0  0
   -1.3293    3.7742   -0.0000 C   0  0  0  0  0  0  0  0  0  0  0  0
    2.5399    0.0475   -0.0000 C   0  0  0  0  0  0  0  0  0  0  0  0
    3.8335    2.3025   -0.0000 C   0  0  0  0  0  0  0  0  0  0  0  0
   -3.9285    2.2906   -0.0000 C   0  0  0  0  0  0  0  0  0  0  0  0
   -2.6467    4.5338   -0.0000 C   0  0  0  0  0  0  0  0  0  0  0  0
    3.8217   -0.6884   -0.0000 C   0  0  0  0  0  0  0  0  0  0  0  0
    5.1153    1.5785   -0.0000 C   0  0  0  0  0  0  0  0  0  0  0  0
   -3.9522    3.7979   -0.0000 C   0  0  0  0  0  0  0  0  0  0  0  0
   -5.2340    1.5548   -0.0000 C   0  0  0  0  0  0  0  0  0  0  0  0
    5.1034    0.0712   -0.0000 C   0  0  0  0  0  0  0  0  0  0  0  0
   -6.5395    2.3144   -0.0000 N   0  0  0  0  0  0  0  0  0  0  0  0
    6.3852   -0.6646   -0.0000 C   0  0  0  0  0  0  0  0  0  0  0  0
   -7.8451    1.5785   -0.0000 C   0  0  0  0  0  0  0  0  0  0  0  0
    6.3734   -2.1482   -0.0000 N   0  0  0  0  0  0  0  0  0  0  0  0
   -7.8569    0.0949   -0.0000 O   0  0  0  0  0  0  0  0  0  0  0  0
   -9.1506    2.3381   -0.0000 C   0  0  0  0  0  0  0  0  0  0  0  0
    7.6552   -2.8840   -0.0000 C   0  0  0  0  0  0  0  0  0  0  0  0
    5.0678   -2.8840   -0.0000 C   0  0  0  0  0  0  0  0  0  0  0  0
  -10.4680    1.6022   -0.0000 C   0  0  0  0  0  0  0  0  0  0  0  0
   -9.1625    3.8573   -0.0000 C   0  0  0  0  0  0  0  0  0  0  0  0
  -11.7735    2.3618   -0.0000 C   0  0  0  0  0  0  0  0  0  0  0  0
  -10.4680    4.6168   -0.0000 C   0  0  0  0  0  0  0  0  0  0  0  0
  -13.0791    1.6260   -0.0000 O   0  0  0  0  0  0  0  0  0  0  0  0
  -11.7854    3.8810   -0.0000 C   0  0  0  0  0  0  0  0  0  0  0  0
  -14.3846    2.3856   -0.0000 C   0  0  0  0  0  0  0  0  0  0  0  0
  -13.0909    4.6406   -0.0000 O   0  0  0  0  0  0  0  0  0  0  0  0
  -13.1028    6.1479   -0.0000 C   0  0  0  0  0  0  0  0  0  0  0  0
  1  2  2  0  0  0  0
  2  3  1  0  0  0  0
  2  4  1  0  0  0  0
  3  5  1  0  0  0  0
  4  6  2  0  0  0  0
  4  7  1  0  0  0  0
  5  8  2  0  0  0  0
  5  9  1  0  0  0  0
  6 10  1  0  0  0  0
  7 11  2  0  0  0  0
  8 12  1  0  0  0  0
  9 13  2  0  0  0  0
 10 14  2  0  0  0  0
 10 15  1  0  0  0  0
 12 16  2  0  0  0  0
 15 17  1  0  0  0  0
 16 18  1  0  0  0  0
 17 19  1  0  0  0  0
 18 20  1  0  0  0  0
 19 21  2  0  0  0  0
 19 22  1  0  0  0  0
 20 23  1  0  0  0  0
 20 24  1  0  0  0  0
 22 25  2  0  0  0  0
 22 26  1  0  0  0  0
 25 27  1  0  0  0  0
 26 28  2  0  0  0  0
 27 29  1  0  0  0  0
 27 30  2  0  0  0  0
 29 31  1  0  0  0  0
 30 32  1  0  0  0  0
 32 33  1  0  0  0  0
 11 14  1  0  0  0  0
 13 16  1  0  0  0  0
 28 30  1  0  0  0  0
M  END
>  <MolRegNo>
599591

>  <m>
=

>  <Value>
8100

>  <Unit>
nM

>  <Type>
IC50

>  <pValue>
5.09

>  <Ligand Efficiency>
0

>  <Binding Efficiency>
0

>  <Surface Efficiency>
0

>  <Assay Index>
457188

>  <Assay Category>


>  <Assay Organism>
Homo sapiens

>  <Target ID>
17045

>  <Target Name>
Cytochrome P450 3A4

>  <Target Organism>
Homo sapiens

>  <Target Description>
Target is a single protein chain

>  <Sequence Accession>
P08684

>  <Reference>
J Med Chem 53 (2), 759-777 (2010)

>  <Pubmed ID>
20000469

>  <DOI>
10.1021/jm9014263

$$$$
599590
Actelion Java MolfileCreator 1.0

 34 37  0  0  0  0  0  0  0  0999 V2000
    0.0000   -0.0000   -0.0000 O   0  0  0  0  0  0  0  0  0  0  0  0
   -0.0119    1.5067   -0.0000 C   0  0  0  0  0  0  0  0  0  0  0  0
    1.2694    2.2660   -0.0000 N   0  0  0  0  0  0  0  0  0  0  0  0
   -1.3169    2.2660   -0.0000 C   0  0  0  0  0  0  0  0  0  0  0  0
    2.5507    1.5304   -0.0000 C   0  0  0  0  0  0  0  0  0  0  0  0
   -2.6219    1.5304   -0.0000 C   0  0  0  0  0  0  0  0  0  0  0  0
   -1.3287    3.7727   -0.0000 C   0  0  0  0  0  0  0  0  0  0  0  0
    3.8320    2.3016   -0.0000 C   0  0  0  0  0  0  0  0  0  0  0  0
    2.5388    0.0475   -0.0000 C   0  0  0  0  0  0  0  0  0  0  0  0
   -3.9269    2.2897   -0.0000 C   0  0  0  0  0  0  0  0  0  0  0  0
   -2.6456    4.5319   -0.0000 C   0  0  0  0  0  0  0  0  0  0  0  0
    5.1133    1.5779   -0.0000 C   0  0  0  0  0  0  0  0  0  0  0  0
    3.8201   -0.6881   -0.0000 C   0  0  0  0  0  0  0  0  0  0  0  0
   -3.9506    3.7964   -0.0000 C   0  0  0  0  0  0  0  0  0  0  0  0
   -5.2319    1.5541   -0.0000 C   0  0  0  0  0  0  0  0  0  0  0  0
    5.1014    0.0830   -0.0000 C   0  0  0  0  0  0  0  0  0  0  0  0
    6.3946    2.3490   -0.0000 C   0  0  0  0  0  0  0  0  0  0  0  0
   -6.5369    2.3134   -0.0000 N   0  0  0  0  0  0  0  0  0  0  0  0
    6.3946   -0.6525   -0.0000 C   0  0  0  0  0  0  0  0  0  0  0  0
    7.6877    1.6253   -0.0000 N   0  0  0  0  0  0  0  0  0  0  0  0
   -7.8419    1.5779   -0.0000 C   0  0  0  0  0  0  0  0  0  0  0  0
    7.6758    0.1186   -0.0000 C   0  0  0  0  0  0  0  0  0  0  0  0
    8.9690    2.3965   -0.0000 C   0  0  0  0  0  0  0  0  0  0  0  0
   -7.8538    0.0949   -0.0000 O   0  0  0  0  0  0  0  0  0  0  0  0
   -9.1469    2.3372   -0.0000 C   0  0  0  0  0  0  0  0  0  0  0  0
  -10.4638    1.6016   -0.0000 C   0  0  0  0  0  0  0  0  0  0  0  0
   -9.1588    3.8557   -0.0000 C   0  0  0  0  0  0  0  0  0  0  0  0
  -11.7688    2.3609   -0.0000 C   0  0  0  0  0  0  0  0  0  0  0  0
  -10.4638    4.6150   -0.0000 C   0  0  0  0  0  0  0  0  0  0  0  0
  -13.0738    1.6253   -0.0000 O   0  0  0  0  0  0  0  0  0  0  0  0
  -11.7807    3.8794   -0.0000 C   0  0  0  0  0  0  0  0  0  0  0  0
  -14.3788    2.3846   -0.0000 C   0  0  0  0  0  0  0  0  0  0  0  0
  -13.0857    4.6387   -0.0000 O   0  0  0  0  0  0  0  0  0  0  0  0
  -13.0976    6.1454   -0.0000 C   0  0  0  0  0  0  0  0  0  0  0  0
  1  2  2  0  0  0  0
  2  3  1  0  0  0  0
  2  4  1  0  0  0  0
  3  5  1  0  0  0  0
  4  6  2  0  0  0  0
  4  7  1  0  0  0  0
  5  8  2  0  0  0  0
  5  9  1  0  0  0  0
  6 10  1  0  0  0  0
  7 11  2  0  0  0  0
  8 12  1  0  0  0  0
  9 13  2  0  0  0  0
 10 14  2  0  0  0  0
 10 15  1  0  0  0  0
 12 16  2  0  0  0  0
 12 17  1  0  0  0  0
 15 18  1  0  0  0  0
 16 19  1  0  0  0  0
 17 20  1  0  0  0  0
 18 21  1  0  0  0  0
 19 22  1  0  0  0  0
 20 23  1  0  0  0  0
 21 24  2  0  0  0  0
 21 25  1  0  0  0  0
 25 26  2  0  0  0  0
 25 27  1  0  0  0  0
 26 28  1  0  0  0  0
 27 29  2  0  0  0  0
 28 30  1  0  0  0  0
 28 31  2  0  0  0  0
 30 32  1  0  0  0  0
 31 33  1  0  0  0  0
 33 34  1  0  0  0  0
 11 14  1  0  0  0  0
 13 16  1  0  0  0  0
 20 22  1  0  0  0  0
 29 31  1  0  0  0  0
M  END
>  <MolRegNo>
599590

>  <m>
=

>  <Value>
1700

>  <Unit>
nM

>  <Type>
IC50

>  <pValue>
5.77

>  <Ligand Efficiency>
0

>  <Binding Efficiency>
0

>  <Surface Efficiency>
0

>  <Assay Index>
457188

>  <Assay Category>


>  <Assay Organism>
Homo sapiens

>  <Target ID>
17045

>  <Target Name>
Cytochrome P450 3A4

>  <Target Organism>
Homo sapiens

>  <Target Description>
Target is a single protein chain

>  <Sequence Accession>
P08684

>  <Reference>
J Med Chem 53 (2), 759-777 (2010)

>  <Pubmed ID>
20000469

>  <DOI>
10.1021/jm9014263

$$$$
599315
Actelion Java MolfileCreator 1.0

 31 33  0  0  0  0  0  0  0  0999 V2000
    0.0000   -0.0000   -0.0000 O   0  0  0  0  0  0  0  0  0  0  0  0
   -0.0119    1.5116   -0.0000 C   0  0  0  0  0  0  0  0  0  0  0  0
    1.2735    2.2733   -0.0000 N   0  0  0  0  0  0  0  0  0  0  0  0
   -1.3212    2.2733   -0.0000 C   0  0  0  0  0  0  0  0  0  0  0  0
    2.5590    1.5354   -0.0000 C   0  0  0  0  0  0  0  0  0  0  0  0
   -2.6423    1.5354   -0.0000 C   0  0  0  0  0  0  0  0  0  0  0  0
   -1.3331    3.7968   -0.0000 C   0  0  0  0  0  0  0  0  0  0  0  0
    3.8444    2.2971   -0.0000 C   0  0  0  0  0  0  0  0  0  0  0  0
   -3.9516    2.2971   -0.0000 C   0  0  0  0  0  0  0  0  0  0  0  0
   -2.6423    4.5586   -0.0000 C   0  0  0  0  0  0  0  0  0  0  0  0
    5.1299    1.5592   -0.0000 C   0  0  0  0  0  0  0  0  0  0  0  0
    3.8206    3.8087   -0.0000 C   0  0  0  0  0  0  0  0  0  0  0  0
   -5.2608    1.5592   -0.0000 O   0  0  0  0  0  0  0  0  0  0  0  0
   -3.9635    3.8206   -0.0000 C   0  0  0  0  0  0  0  0  0  0  0  0
    6.4153    2.3209   -0.0000 C   0  0  0  0  0  0  0  0  0  0  0  0
    5.1061    4.5824   -0.0000 C   0  0  0  0  0  0  0  0  0  0  0  0
   -6.5701    2.3209   -0.0000 C   0  0  0  0  0  0  0  0  0  0  0  0
   -5.2727    4.5824   -0.0000 O   0  0  0  0  0  0  0  0  0  0  0  0
    7.7008    1.5830   -0.0000 C   0  0  0  0  0  0  0  0  0  0  0  0
    6.4034    3.8325   -0.0000 C   0  0  0  0  0  0  0  0  0  0  0  0
   -5.2846    6.0940   -0.0000 C   0  0  0  0  0  0  0  0  0  0  0  0
    7.6889    0.0952   -0.0000 O   0  0  0  0  0  0  0  0  0  0  0  0
    8.9862    2.3448   -0.0000 N   0  0  0  0  0  0  0  0  0  0  0  0
   10.2717    1.6068   -0.0000 C   0  0  0  0  0  0  0  0  0  0  0  0
   11.5571    2.3686   -0.0000 C   0  0  0  0  0  0  0  0  0  0  0  0
   12.8426    1.6306   -0.0000 C   0  0  0  0  0  0  0  0  0  0  0  0
   12.8307    0.1428   -0.0000 C   0  0  0  0  0  0  0  0  0  0  0  0
   14.1280    2.3924   -0.0000 C   0  0  0  0  0  0  0  0  0  0  0  0
   14.1161   -0.5951   -0.0000 C   0  0  0  0  0  0  0  0  0  0  0  0
   15.4135    1.6663   -0.0000 C   0  0  0  0  0  0  0  0  0  0  0  0
   15.4016    0.1666   -0.0000 N   0  0  0  0  0  0  0  0  0  0  0  0
  1  2  2  0  0  0  0
  2  3  1  0  0  0  0
  2  4  1  0  0  0  0
  3  5  1  0  0  0  0
  4  6  2  0  0  0  0
  4  7  1  0  0  0  0
  5  8  1  0  0  0  0
  6  9  1  0  0  0  0
  7 10  2  0  0  0  0
  8 11  2  0  0  0  0
  8 12  1  0  0  0  0
  9 13  1  0  0  0  0
  9 14  2  0  0  0  0
 11 15  1  0  0  0  0
 12 16  2  0  0  0  0
 13 17  1  0  0  0  0
 14 18  1  0  0  0  0
 15 19  1  0  0  0  0
 15 20  2  0  0  0  0
 18 21  1  0  0  0  0
 19 22  2  0  0  0  0
 19 23  1  0  0  0  0
 23 24  1  0  0  0  0
 24 25  1  0  0  0  0
 25 26  1  0  0  0  0
 26 27  2  0  0  0  0
 26 28  1  0  0  0  0
 27 29  1  0  0  0  0
 28 30  2  0  0  0  0
 29 31  2  0  0  0  0
 10 14  1  0  0  0  0
 16 20  1  0  0  0  0
 30 31  1  0  0  0  0
M  END
>  <MolRegNo>
599315

>  <m>
=

>  <Value>
4000

>  <Unit>
nM

>  <Type>
IC50

>  <pValue>
5.4

>  <Ligand Efficiency>
0

>  <Binding Efficiency>
0

>  <Surface Efficiency>
0

>  <Assay Index>
457188

>  <Assay Category>


>  <Assay Organism>
Homo sapiens

>  <Target ID>
17045

>  <Target Name>
Cytochrome P450 3A4

>  <Target Organism>
Homo sapiens

>  <Target Description>
Target is a single protein chain

>  <Sequence Accession>
P08684

>  <Reference>
J Med Chem 53 (2), 759-777 (2010)

>  <Pubmed ID>
20000469

>  <DOI>
10.1021/jm9014263

$$$$
616295
Actelion Java MolfileCreator 1.0

 34 38  0  0  0  0  0  0  0  0999 V2000
    0.0000   -0.0000   -0.0000 Cl  0  0  0  0  0  0  0  0  0  0  0  0
   -1.3081   -0.7425   -0.0000 C   0  0  0  0  0  0  0  0  0  0  0  0
   -2.6163    0.0236   -0.0000 C   0  0  0  0  0  0  0  0  0  0  0  0
   -1.3199   -2.2156   -0.0000 C   0  0  0  0  0  0  0  0  0  0  0  0
   -3.9244   -0.7189   -0.0000 C   0  0  0  0  0  0  0  0  0  0  0  0
   -2.6281   -2.9580   -0.0000 C   0  0  0  0  0  0  0  0  0  0  0  0
   -3.9362   -2.1920   -0.0000 C   0  0  0  0  0  0  0  0  0  0  0  0
   -5.2326    0.0471   -0.0000 C   0  0  0  0  0  0  0  0  0  0  0  0
   -6.5407   -0.6953   -0.0000 O   0  0  0  0  0  0  0  0  0  0  0  0
   -5.2444    1.5556   -0.0000 C   0  0  0  0  0  0  0  0  0  0  0  0
   -6.5407    2.3099   -0.0000 N   0  0  0  0  0  0  0  0  0  0  0  0
   -6.5525    3.8066   -0.0000 C   0  0  0  0  0  0  0  0  0  0  0  0
   -7.8606    4.5726   -0.0000 C   0  0  0  0  0  0  0  0  0  0  0  0
   -5.2679    4.5726   -0.0000 C   0  0  0  0  0  0  0  0  0  0  0  0
   -7.8724    6.0693   -0.0000 C   0  0  0  0  0  0  0  0  0  0  0  0
   -9.1688    3.8301   -0.0000 C   0  0  0  0  0  0  0  0  0  0  0  0
   -5.2797    6.0693   -0.0000 C   0  0  0  0  0  0  0  0  0  0  0  0
   -9.1806    6.8353   -0.0000 O   0  0  0  0  0  0  0  0  0  0  0  0
   -6.5878    6.8353   -0.0000 N   0  0  0  0  0  0  0  0  0  0  0  0
   -9.3338    2.3570   -0.0000 N   0  0  0  0  0  0  0  0  0  0  0  0
  -10.5476    4.4430   -0.0000 N   0  0  0  0  0  0  0  0  0  0  0  0
  -10.8069    2.0624   -0.0000 C   0  0  0  0  0  0  0  0  0  0  0  0
  -11.5611    3.3470   -0.0000 C   0  0  0  0  0  0  0  0  0  0  0  0
  -11.5729    0.7778   -0.0000 C   0  0  0  0  0  0  0  0  0  0  0  0
  -13.0578    3.3587   -0.0000 C   0  0  0  0  0  0  0  0  0  0  0  0
  -13.0696    0.7896   -0.0000 C   0  0  0  0  0  0  0  0  0  0  0  0
  -10.8305   -0.5068   -0.0000 C   0  0  0  0  0  0  0  0  0  0  0  0
  -13.8239    2.0742   -0.0000 C   0  0  0  0  0  0  0  0  0  0  0  0
  -15.3206    2.0860   -0.0000 N   0  0  0  0  0  0  0  0  0  0  0  0
  -16.0866    0.8014   -0.0000 C   0  0  0  0  0  0  0  0  0  0  0  0
  -16.0866    3.3941   -0.0000 C   0  0  0  0  0  0  0  0  0  0  0  0
  -17.5833    0.8132   -0.0000 C   0  0  0  0  0  0  0  0  0  0  0  0
  -17.5833    3.4059   -0.0000 C   0  0  0  0  0  0  0  0  0  0  0  0
  -18.3493    2.1213   -0.0000 N   0  0  0  0  0  0  0  0  0  0  0  0
  1  2  1  0  0  0  0
  2  3  2  0  0  0  0
  2  4  1  0  0  0  0
  3  5  1  0  0  0  0
  4  6  2  0  0  0  0
  5  7  2  0  0  0  0
  5  8  1  0  0  0  0
  8  9  1  1  0  0  0
  8 10  1  0  0  0  0
 10 11  1  0  0  0  0
 11 12  1  0  0  0  0
 12 13  2  0  0  0  0
 12 14  1  0  0  0  0
 13 15  1  0  0  0  0
 13 16  1  0  0  0  0
 14 17  2  0  0  0  0
 15 18  2  0  0  0  0
 15 19  1  0  0  0  0
 16 20  2  0  0  0  0
 16 21  1  0  0  0  0
 20 22  1  0  0  0  0
 21 23  1  0  0  0  0
 22 24  1  0  0  0  0
 23 25  1  0  0  0  0
 24 26  2  0  0  0  0
 24 27  1  0  0  0  0
 25 28  2  0  0  0  0
 28 29  1  0  0  0  0
 29 30  1  0  0  0  0
 29 31  1  0  0  0  0
 30 32  1  0  0  0  0
 31 33  1  0  0  0  0
 32 34  1  0  0  0  0
  6  7  1  0  0  0  0
 17 19  1  0  0  0  0
 22 23  2  0  0  0  0
 26 28  1  0  0  0  0
 33 34  1  0  0  0  0
M  END
>  <MolRegNo>
616295

>  <m>
=

>  <Value>
3000

>  <Unit>
nM

>  <Type>
IC50

>  <pValue>
5.52

>  <Ligand Efficiency>
0

>  <Binding Efficiency>
0

>  <Surface Efficiency>
0

>  <Assay Index>
463132

>  <Assay Category>


>  <Assay Organism>


>  <Target ID>
17045

>  <Target Name>
Cytochrome P450 3A4

>  <Target Organism>
Homo sapiens

>  <Target Description>
Target is a single protein chain

>  <Sequence Accession>
P08684

>  <Reference>
Bioorg Med Chem Lett 20 (5), 1744-1748 (2010)

>  <Pubmed ID>
20153189

>  <DOI>
10.1016/j.bmcl.2010.01.087

$$$$
616296
Actelion Java MolfileCreator 1.0

 35 39  0  0  0  0  0  0  0  0999 V2000
    0.0000   -0.0000   -0.0000 Cl  0  0  0  0  0  0  0  0  0  0  0  0
   -1.3080   -0.7424   -0.0000 C   0  0  0  0  0  0  0  0  0  0  0  0
   -2.6159    0.0236   -0.0000 C   0  0  0  0  0  0  0  0  0  0  0  0
   -1.3197   -2.2153   -0.0000 C   0  0  0  0  0  0  0  0  0  0  0  0
   -3.9239   -0.7188   -0.0000 C   0  0  0  0  0  0  0  0  0  0  0  0
   -2.6277   -2.9576   -0.0000 C   0  0  0  0  0  0  0  0  0  0  0  0
   -3.9356   -2.1917   -0.0000 C   0  0  0  0  0  0  0  0  0  0  0  0
   -5.2318    0.0471   -0.0000 C   0  0  0  0  0  0  0  0  0  0  0  0
   -6.5398   -0.6952   -0.0000 O   0  0  0  0  0  0  0  0  0  0  0  0
   -5.2436    1.5554   -0.0000 C   0  0  0  0  0  0  0  0  0  0  0  0
   -6.5398    2.3095   -0.0000 N   0  0  0  0  0  0  0  0  0  0  0  0
   -6.5515    3.8060   -0.0000 C   0  0  0  0  0  0  0  0  0  0  0  0
   -7.8595    4.5719   -0.0000 C   0  0  0  0  0  0  0  0  0  0  0  0
   -5.2672    4.5719   -0.0000 C   0  0  0  0  0  0  0  0  0  0  0  0
   -7.8713    6.0684   -0.0000 C   0  0  0  0  0  0  0  0  0  0  0  0
   -9.1674    3.8296   -0.0000 C   0  0  0  0  0  0  0  0  0  0  0  0
   -5.2789    6.0684   -0.0000 C   0  0  0  0  0  0  0  0  0  0  0  0
   -9.1792    6.8343   -0.0000 O   0  0  0  0  0  0  0  0  0  0  0  0
   -6.5869    6.8343   -0.0000 N   0  0  0  0  0  0  0  0  0  0  0  0
   -9.3324    2.3567   -0.0000 N   0  0  0  0  0  0  0  0  0  0  0  0
  -10.5461    4.4423   -0.0000 N   0  0  0  0  0  0  0  0  0  0  0  0
  -10.8053    2.0621   -0.0000 C   0  0  0  0  0  0  0  0  0  0  0  0
  -11.5595    3.3465   -0.0000 C   0  0  0  0  0  0  0  0  0  0  0  0
  -11.5712    0.7777   -0.0000 C   0  0  0  0  0  0  0  0  0  0  0  0
  -13.0559    3.3583   -0.0000 C   0  0  0  0  0  0  0  0  0  0  0  0
  -13.0677    0.7895   -0.0000 C   0  0  0  0  0  0  0  0  0  0  0  0
  -10.8289   -0.5067   -0.0000 C   0  0  0  0  0  0  0  0  0  0  0  0
  -13.8219    2.0739   -0.0000 C   0  0  0  0  0  0  0  0  0  0  0  0
  -15.3183    2.0857   -0.0000 N   0  0  0  0  0  0  0  0  0  0  0  0
  -16.0843    0.8013   -0.0000 C   0  0  0  0  0  0  0  0  0  0  0  0
  -16.0843    3.3936   -0.0000 C   0  0  0  0  0  0  0  0  0  0  0  0
  -17.5807    0.8131   -0.0000 C   0  0  0  0  0  0  0  0  0  0  0  0
  -17.5807    3.4054   -0.0000 C   0  0  0  0  0  0  0  0  0  0  0  0
  -18.3467    2.1210   -0.0000 N   0  0  0  0  0  0  0  0  0  0  0  0
  -19.8549    2.1328   -0.0000 C   0  0  0  0  0  0  0  0  0  0  0  0
  1  2  1  0  0  0  0
  2  3  2  0  0  0  0
  2  4  1  0  0  0  0
  3  5  1  0  0  0  0
  4  6  2  0  0  0  0
  5  7  2  0  0  0  0
  5  8  1  0  0  0  0
  8  9  1  1  0  0  0
  8 10  1  0  0  0  0
 10 11  1  0  0  0  0
 11 12  1  0  0  0  0
 12 13  2  0  0  0  0
 12 14  1  0  0  0  0
 13 15  1  0  0  0  0
 13 16  1  0  0  0  0
 14 17  2  0  0  0  0
 15 18  2  0  0  0  0
 15 19  1  0  0  0  0
 16 20  2  0  0  0  0
 16 21  1  0  0  0  0
 20 22  1  0  0  0  0
 21 23  1  0  0  0  0
 22 24  1  0  0  0  0
 23 25  1  0  0  0  0
 24 26  2  0  0  0  0
 24 27  1  0  0  0  0
 25 28  2  0  0  0  0
 28 29  1  0  0  0  0
 29 30  1  0  0  0  0
 29 31  1  0  0  0  0
 30 32  1  0  0  0  0
 31 33  1  0  0  0  0
 32 34  1  0  0  0  0
 34 35  1  0  0  0  0
  6  7  1  0  0  0  0
 17 19  1  0  0  0  0
 22 23  2  0  0  0  0
 26 28  1  0  0  0  0
 33 34  1  0  0  0  0
M  END
>  <MolRegNo>
616296

>  <m>
=

>  <Value>
3500

>  <Unit>
nM

>  <Type>
IC50

>  <pValue>
5.46

>  <Ligand Efficiency>
0

>  <Binding Efficiency>
0

>  <Surface Efficiency>
0

>  <Assay Index>
463132

>  <Assay Category>


>  <Assay Organism>


>  <Target ID>
17045

>  <Target Name>
Cytochrome P450 3A4

>  <Target Organism>
Homo sapiens

>  <Target Description>
Target is a single protein chain

>  <Sequence Accession>
P08684

>  <Reference>
Bioorg Med Chem Lett 20 (5), 1744-1748 (2010)

>  <Pubmed ID>
20153189

>  <DOI>
10.1016/j.bmcl.2010.01.087

$$$$
616361
Actelion Java MolfileCreator 1.0

 37 41  0  0  0  0  0  0  0  0999 V2000
    0.0000   -0.0000   -0.0000 Cl  0  0  0  0  0  0  0  0  0  0  0  0
   -1.3075   -0.7421   -0.0000 C   0  0  0  0  0  0  0  0  0  0  0  0
   -2.6150    0.0236   -0.0000 C   0  0  0  0  0  0  0  0  0  0  0  0
   -1.3193   -2.2145   -0.0000 C   0  0  0  0  0  0  0  0  0  0  0  0
   -3.9225   -0.7185   -0.0000 C   0  0  0  0  0  0  0  0  0  0  0  0
   -2.6268   -2.9566   -0.0000 C   0  0  0  0  0  0  0  0  0  0  0  0
   -3.9343   -2.1909   -0.0000 C   0  0  0  0  0  0  0  0  0  0  0  0
   -5.2300    0.0471   -0.0000 C   0  0  0  0  0  0  0  0  0  0  0  0
   -6.5375   -0.6950   -0.0000 O   0  0  0  0  0  0  0  0  0  0  0  0
   -5.2418    1.5549   -0.0000 C   0  0  0  0  0  0  0  0  0  0  0  0
   -6.5375    2.3087   -0.0000 N   0  0  0  0  0  0  0  0  0  0  0  0
   -6.5493    3.8047   -0.0000 C   0  0  0  0  0  0  0  0  0  0  0  0
   -7.8568    4.5704   -0.0000 C   0  0  0  0  0  0  0  0  0  0  0  0
   -5.2653    4.5704   -0.0000 C   0  0  0  0  0  0  0  0  0  0  0  0
   -7.8685    6.0663   -0.0000 C   0  0  0  0  0  0  0  0  0  0  0  0
   -9.1643    3.8283   -0.0000 C   0  0  0  0  0  0  0  0  0  0  0  0
   -5.2771    6.0663   -0.0000 C   0  0  0  0  0  0  0  0  0  0  0  0
   -9.1760    6.8320   -0.0000 O   0  0  0  0  0  0  0  0  0  0  0  0
   -6.5846    6.8320   -0.0000 N   0  0  0  0  0  0  0  0  0  0  0  0
   -9.3292    2.3559   -0.0000 N   0  0  0  0  0  0  0  0  0  0  0  0
  -10.5424    4.4526   -0.0000 N   0  0  0  0  0  0  0  0  0  0  0  0
  -10.8016    2.0614   -0.0000 C   0  0  0  0  0  0  0  0  0  0  0  0
  -11.5555    3.3571   -0.0000 C   0  0  0  0  0  0  0  0  0  0  0  0
  -11.5672    0.7774   -0.0000 C   0  0  0  0  0  0  0  0  0  0  0  0
  -13.0514    3.3689   -0.0000 C   0  0  0  0  0  0  0  0  0  0  0  0
  -13.0632    0.7892   -0.0000 C   0  0  0  0  0  0  0  0  0  0  0  0
  -10.8251   -0.5065   -0.0000 C   0  0  0  0  0  0  0  0  0  0  0  0
  -13.8171    2.0849   -0.0000 C   0  0  0  0  0  0  0  0  0  0  0  0
  -15.3130    2.0967   -0.0000 N   0  0  0  0  0  0  0  0  0  0  0  0
  -16.0787    0.8128   -0.0000 C   0  0  0  0  0  0  0  0  0  0  0  0
  -16.0787    3.4042   -0.0000 C   0  0  0  0  0  0  0  0  0  0  0  0
  -17.5747    0.8245   -0.0000 C   0  0  0  0  0  0  0  0  0  0  0  0
  -17.5747    3.4160   -0.0000 C   0  0  0  0  0  0  0  0  0  0  0  0
  -18.3403    2.1320   -0.0000 N   0  0  0  0  0  0  0  0  0  0  0  0
  -19.8481    2.1438   -0.0000 C   0  0  0  0  0  0  0  0  0  0  0  0
  -20.6019    3.4395   -0.0000 C   0  0  0  0  0  0  0  0  0  0  0  0
  -22.0979    3.4513   -0.0000 F   0  0  0  0  0  0  0  0  0  0  0  0
  1  2  1  0  0  0  0
  2  3  2  0  0  0  0
  2  4  1  0  0  0  0
  3  5  1  0  0  0  0
  4  6  2  0  0  0  0
  5  7  2  0  0  0  0
  5  8  1  0  0  0  0
  8  9  1  1  0  0  0
  8 10  1  0  0  0  0
 10 11  1  0  0  0  0
 11 12  1  0  0  0  0
 12 13  2  0  0  0  0
 12 14  1  0  0  0  0
 13 15  1  0  0  0  0
 13 16  1  0  0  0  0
 14 17  2  0  0  0  0
 15 18  2  0  0  0  0
 15 19  1  0  0  0  0
 16 20  2  0  0  0  0
 16 21  1  0  0  0  0
 20 22  1  0  0  0  0
 21 23  1  0  0  0  0
 22 24  1  0  0  0  0
 23 25  1  0  0  0  0
 24 26  2  0  0  0  0
 24 27  1  0  0  0  0
 25 28  2  0  0  0  0
 28 29  1  0  0  0  0
 29 30  1  0  0  0  0
 29 31  1  0  0  0  0
 30 32  1  0  0  0  0
 31 33  1  0  0  0  0
 32 34  1  0  0  0  0
 34 35  1  0  0  0  0
 35 36  1  0  0  0  0
 36 37  1  0  0  0  0
  6  7  1  0  0  0  0
 17 19  1  0  0  0  0
 22 23  2  0  0  0  0
 26 28  1  0  0  0  0
 33 34  1  0  0  0  0
M  END
>  <MolRegNo>
616361

>  <m>
=

>  <Value>
800

>  <Unit>
nM

>  <Type>
IC50

>  <pValue>
6.1

>  <Ligand Efficiency>
0

>  <Binding Efficiency>
0

>  <Surface Efficiency>
0

>  <Assay Index>
463132

>  <Assay Category>


>  <Assay Organism>


>  <Target ID>
17045

>  <Target Name>
Cytochrome P450 3A4

>  <Target Organism>
Homo sapiens

>  <Target Description>
Target is a single protein chain

>  <Sequence Accession>
P08684

>  <Reference>
Bioorg Med Chem Lett 20 (5), 1744-1748 (2010)

>  <Pubmed ID>
20153189

>  <DOI>
10.1016/j.bmcl.2010.01.087

$$$$
616362
Actelion Java MolfileCreator 1.0

 34 38  0  0  0  0  0  0  0  0999 V2000
    0.0000   -0.0000   -0.0000 Cl  0  0  0  0  0  0  0  0  0  0  0  0
   -1.5030   -0.0000   -0.0000 C   0  0  0  0  0  0  0  0  0  0  0  0
   -2.2662    1.2916   -0.0000 C   0  0  0  0  0  0  0  0  0  0  0  0
   -2.2545   -1.2916   -0.0000 C   0  0  0  0  0  0  0  0  0  0  0  0
   -3.7575    1.2916   -0.0000 C   0  0  0  0  0  0  0  0  0  0  0  0
   -3.7575   -1.2799   -0.0000 C   0  0  0  0  0  0  0  0  0  0  0  0
   -4.5090    0.0117   -0.0000 C   0  0  0  0  0  0  0  0  0  0  0  0
   -4.5207    2.5950   -0.0000 C   0  0  0  0  0  0  0  0  0  0  0  0
   -6.0237    2.5246   -0.0000 O   0  0  0  0  0  0  0  0  0  0  0  0
   -3.7810    3.8984   -0.0000 C   0  0  0  0  0  0  0  0  0  0  0  0
   -4.5325    5.2018   -0.0000 N   0  0  0  0  0  0  0  0  0  0  0  0
   -3.7927    6.5051   -0.0000 C   0  0  0  0  0  0  0  0  0  0  0  0
   -4.5442    7.8085   -0.0000 C   0  0  0  0  0  0  0  0  0  0  0  0
   -2.3132    6.5169   -0.0000 C   0  0  0  0  0  0  0  0  0  0  0  0
   -3.8162    9.1119   -0.0000 C   0  0  0  0  0  0  0  0  0  0  0  0
   -6.0355    7.8203   -0.0000 C   0  0  0  0  0  0  0  0  0  0  0  0
   -1.5734    7.8203   -0.0000 C   0  0  0  0  0  0  0  0  0  0  0  0
   -4.5794   10.4153   -0.0000 O   0  0  0  0  0  0  0  0  0  0  0  0
   -2.3367    9.1354   -0.0000 N   0  0  0  0  0  0  0  0  0  0  0  0
   -6.9279    6.6108   -0.0000 N   0  0  0  0  0  0  0  0  0  0  0  0
   -6.9279    9.0414   -0.0000 N   0  0  0  0  0  0  0  0  0  0  0  0
   -8.3721    7.0923   -0.0000 C   0  0  0  0  0  0  0  0  0  0  0  0
   -8.3721    8.5835   -0.0000 C   0  0  0  0  0  0  0  0  0  0  0  0
   -9.6755    6.3525   -0.0000 C   0  0  0  0  0  0  0  0  0  0  0  0
   -9.6755    9.3350   -0.0000 C   0  0  0  0  0  0  0  0  0  0  0  0
  -10.9789    7.1157   -0.0000 C   0  0  0  0  0  0  0  0  0  0  0  0
   -9.6873    4.8730   -0.0000 C   0  0  0  0  0  0  0  0  0  0  0  0
  -10.9789    8.5952   -0.0000 C   0  0  0  0  0  0  0  0  0  0  0  0
  -12.2823    9.3467   -0.0000 N   0  0  0  0  0  0  0  0  0  0  0  0
  -12.4467   10.8497   -0.0000 C   0  0  0  0  0  0  0  0  0  0  0  0
  -13.6561    8.7596   -0.0000 C   0  0  0  0  0  0  0  0  0  0  0  0
  -13.9144   11.1668   -0.0000 C   0  0  0  0  0  0  0  0  0  0  0  0
  -14.6659    9.8751   -0.0000 C   0  0  0  0  0  0  0  0  0  0  0  0
  -14.5368   12.5406   -0.0000 N   0  0  0  0  0  0  0  0  0  0  0  0
  1  2  1  0  0  0  0
  2  3  2  0  0  0  0
  2  4  1  0  0  0  0
  3  5  1  0  0  0  0
  4  6  2  0  0  0  0
  5  7  2  0  0  0  0
  5  8  1  0  0  0  0
  8  9  1  1  0  0  0
  8 10  1  0  0  0  0
 10 11  1  0  0  0  0
 11 12  1  0  0  0  0
 12 13  2  0  0  0  0
 12 14  1  0  0  0  0
 13 15  1  0  0  0  0
 13 16  1  0  0  0  0
 14 17  2  0  0  0  0
 15 18  2  0  0  0  0
 15 19  1  0  0  0  0
 16 20  2  0  0  0  0
 16 21  1  0  0  0  0
 20 22  1  0  0  0  0
 21 23  1  0  0  0  0
 22 24  1  0  0  0  0
 23 25  1  0  0  0  0
 24 26  2  0  0  0  0
 24 27  1  0  0  0  0
 25 28  2  0  0  0  0
 28 29  1  0  0  0  0
 29 30  1  0  0  0  0
 29 31  1  0  0  0  0
 30 32  1  0  0  0  0
 31 33  1  0  0  0  0
 32 34  1  6  0  0  0
  6  7  1  0  0  0  0
 17 19  1  0  0  0  0
 22 23  2  0  0  0  0
 26 28  1  0  0  0  0
 32 33  1  0  0  0  0
M  END
>  <MolRegNo>
616362

>  <m>
=

>  <Value>
18000

>  <Unit>
nM

>  <Type>
IC50

>  <pValue>
4.75

>  <Ligand Efficiency>
0

>  <Binding Efficiency>
0

>  <Surface Efficiency>
0

>  <Assay Index>
463132

>  <Assay Category>


>  <Assay Organism>


>  <Target ID>
17045

>  <Target Name>
Cytochrome P450 3A4

>  <Target Organism>
Homo sapiens

>  <Target Description>
Target is a single protein chain

>  <Sequence Accession>
P08684

>  <Reference>
Bioorg Med Chem Lett 20 (5), 1744-1748 (2010)

>  <Pubmed ID>
20153189

>  <DOI>
10.1016/j.bmcl.2010.01.087

$$$$
616364
Actelion Java MolfileCreator 1.0

 42 46  0  0  0  0  0  0  0  0999 V2000
    0.0000   -0.0000   -0.0000 Cl  0  0  0  0  0  0  0  0  0  0  0  0
   -1.5019   -0.0000   -0.0000 C   0  0  0  0  0  0  0  0  0  0  0  0
   -2.2706    1.2890   -0.0000 C   0  0  0  0  0  0  0  0  0  0  0  0
   -2.2588   -1.2890   -0.0000 C   0  0  0  0  0  0  0  0  0  0  0  0
   -3.7607    1.2890   -0.0000 C   0  0  0  0  0  0  0  0  0  0  0  0
   -3.7607   -1.2772   -0.0000 C   0  0  0  0  0  0  0  0  0  0  0  0
   -4.5176    0.0118   -0.0000 C   0  0  0  0  0  0  0  0  0  0  0  0
   -4.5176    2.5899   -0.0000 C   0  0  0  0  0  0  0  0  0  0  0  0
   -6.0195    2.5190   -0.0000 O   0  0  0  0  0  0  0  0  0  0  0  0
   -3.7844    3.8908   -0.0000 C   0  0  0  0  0  0  0  0  0  0  0  0
   -4.5412    5.1917   -0.0000 N   0  0  0  0  0  0  0  0  0  0  0  0
   -3.8080    6.4925   -0.0000 C   0  0  0  0  0  0  0  0  0  0  0  0
   -4.5649    7.8052   -0.0000 C   0  0  0  0  0  0  0  0  0  0  0  0
   -2.3297    6.5044   -0.0000 C   0  0  0  0  0  0  0  0  0  0  0  0
   -3.8317    9.1061   -0.0000 C   0  0  0  0  0  0  0  0  0  0  0  0
   -6.0668    7.8171   -0.0000 C   0  0  0  0  0  0  0  0  0  0  0  0
   -1.5965    7.8052   -0.0000 C   0  0  0  0  0  0  0  0  0  0  0  0
   -4.5885   10.4070   -0.0000 O   0  0  0  0  0  0  0  0  0  0  0  0
   -2.3534    9.1298   -0.0000 N   0  0  0  0  0  0  0  0  0  0  0  0
   -6.9656    6.6108   -0.0000 N   0  0  0  0  0  0  0  0  0  0  0  0
   -6.9656    9.0470   -0.0000 N   0  0  0  0  0  0  0  0  0  0  0  0
   -8.4084    7.0838   -0.0000 C   0  0  0  0  0  0  0  0  0  0  0  0
   -8.4084    8.5976   -0.0000 C   0  0  0  0  0  0  0  0  0  0  0  0
   -9.7092    6.3506   -0.0000 C   0  0  0  0  0  0  0  0  0  0  0  0
   -9.7092    9.3545   -0.0000 C   0  0  0  0  0  0  0  0  0  0  0  0
  -11.0101    7.1075   -0.0000 C   0  0  0  0  0  0  0  0  0  0  0  0
   -9.7211    4.8724   -0.0000 C   0  0  0  0  0  0  0  0  0  0  0  0
  -11.0101    8.6212   -0.0000 C   0  0  0  0  0  0  0  0  0  0  0  0
  -12.3110    9.3781   -0.0000 N   0  0  0  0  0  0  0  0  0  0  0  0
  -12.3228   10.8918   -0.0000 C   0  0  0  0  0  0  0  0  0  0  0  0
  -13.6237    8.6449   -0.0000 C   0  0  0  0  0  0  0  0  0  0  0  0
  -13.6237   11.6487   -0.0000 C   0  0  0  0  0  0  0  0  0  0  0  0
  -14.9246    9.4136   -0.0000 C   0  0  0  0  0  0  0  0  0  0  0  0
  -14.9364   10.9155   -0.0000 C   0  0  0  0  0  0  0  0  0  0  0  0
  -16.2372   11.6724   -0.0000 N   0  0  0  0  0  0  0  0  0  0  0  0
  -17.5381   10.9392   -0.0000 C   0  0  0  0  0  0  0  0  0  0  0  0
  -17.5499    9.4609   -0.0000 O   0  0  0  0  0  0  0  0  0  0  0  0
  -18.8390   11.6960   -0.0000 O   0  0  0  0  0  0  0  0  0  0  0  0
  -20.1517   10.9746   -0.0000 C   0  0  0  0  0  0  0  0  0  0  0  0
  -19.4303    9.6974   -0.0000 C   0  0  0  0  0  0  0  0  0  0  0  0
  -20.9086    9.6974   -0.0000 C   0  0  0  0  0  0  0  0  0  0  0  0
  -21.4526   11.7315   -0.0000 C   0  0  0  0  0  0  0  0  0  0  0  0
  1  2  1  0  0  0  0
  2  3  2  0  0  0  0
  2  4  1  0  0  0  0
  3  5  1  0  0  0  0
  4  6  2  0  0  0  0
  5  7  2  0  0  0  0
  5  8  1  0  0  0  0
  8  9  1  1  0  0  0
  8 10  1  0  0  0  0
 10 11  1  0  0  0  0
 11 12  1  0  0  0  0
 12 13  2  0  0  0  0
 12 14  1  0  0  0  0
 13 15  1  0  0  0  0
 13 16  1  0  0  0  0
 14 17  2  0  0  0  0
 15 18  2  0  0  0  0
 15 19  1  0  0  0  0
 16 20  2  0  0  0  0
 16 21  1  0  0  0  0
 20 22  1  0  0  0  0
 21 23  1  0  0  0  0
 22 24  1  0  0  0  0
 23 25  1  0  0  0  0
 24 26  2  0  0  0  0
 24 27  1  0  0  0  0
 25 28  2  0  0  0  0
 28 29  1  0  0  0  0
 29 30  1  0  0  0  0
 29 31  1  0  0  0  0
 30 32  1  0  0  0  0
 31 33  1  0  0  0  0
 32 34  1  0  0  0  0
 34 35  1  0  0  0  0
 35 36  1  0  0  0  0
 36 37  2  0  0  0  0
 36 38  1  0  0  0  0
 38 39  1  0  0  0  0
 39 40  1  0  0  0  0
 39 41  1  0  0  0  0
 39 42  1  0  0  0  0
  6  7  1  0  0  0  0
 17 19  1  0  0  0  0
 22 23  2  0  0  0  0
 26 28  1  0  0  0  0
 33 34  1  0  0  0  0
M  END
>  <MolRegNo>
616364

>  <m>
=

>  <Value>
16000

>  <Unit>
nM

>  <Type>
IC50

>  <pValue>
4.8

>  <Ligand Efficiency>
0

>  <Binding Efficiency>
0

>  <Surface Efficiency>
0

>  <Assay Index>
463132

>  <Assay Category>


>  <Assay Organism>


>  <Target ID>
17045

>  <Target Name>
Cytochrome P450 3A4

>  <Target Organism>
Homo sapiens

>  <Target Description>
Target is a single protein chain

>  <Sequence Accession>
P08684

>  <Reference>
Bioorg Med Chem Lett 20 (5), 1744-1748 (2010)

>  <Pubmed ID>
20153189

>  <DOI>
10.1016/j.bmcl.2010.01.087

$$$$
616438
Actelion Java MolfileCreator 1.0

 41 47  0  0  0  0  0  0  0  0999 V2000
    0.0000   -0.0000   -0.0000 Cl  0  0  0  0  0  0  0  0  0  0  0  0
   -1.5035   -0.0000   -0.0000 C   0  0  0  0  0  0  0  0  0  0  0  0
   -2.2613    1.2957   -0.0000 C   0  0  0  0  0  0  0  0  0  0  0  0
   -2.2491   -1.2834   -0.0000 C   0  0  0  0  0  0  0  0  0  0  0  0
   -3.7526    1.2957   -0.0000 C   0  0  0  0  0  0  0  0  0  0  0  0
   -3.7526   -1.2712   -0.0000 C   0  0  0  0  0  0  0  0  0  0  0  0
   -4.5104    0.0244   -0.0000 C   0  0  0  0  0  0  0  0  0  0  0  0
   -4.5104    2.5913   -0.0000 C   0  0  0  0  0  0  0  0  0  0  0  0
   -6.0139    2.5302   -0.0000 O   0  0  0  0  0  0  0  0  0  0  0  0
   -3.7770    3.8870   -0.0000 C   0  0  0  0  0  0  0  0  0  0  0  0
   -4.5348    5.1949   -0.0000 N   0  0  0  0  0  0  0  0  0  0  0  0
   -3.8014    6.4906   -0.0000 C   0  0  0  0  0  0  0  0  0  0  0  0
   -4.5593    7.7985   -0.0000 C   0  0  0  0  0  0  0  0  0  0  0  0
   -2.3224    6.5028   -0.0000 C   0  0  0  0  0  0  0  0  0  0  0  0
   -3.8381    9.0941   -0.0000 C   0  0  0  0  0  0  0  0  0  0  0  0
   -6.0505    7.8107   -0.0000 C   0  0  0  0  0  0  0  0  0  0  0  0
   -1.5890    7.8107   -0.0000 C   0  0  0  0  0  0  0  0  0  0  0  0
   -4.5960   10.3898   -0.0000 O   0  0  0  0  0  0  0  0  0  0  0  0
   -2.3591    9.1186   -0.0000 N   0  0  0  0  0  0  0  0  0  0  0  0
   -6.9428    6.6128   -0.0000 N   0  0  0  0  0  0  0  0  0  0  0  0
   -6.9428    9.0330   -0.0000 N   0  0  0  0  0  0  0  0  0  0  0  0
   -8.3852    7.0895   -0.0000 C   0  0  0  0  0  0  0  0  0  0  0  0
   -8.3852    8.5808   -0.0000 C   0  0  0  0  0  0  0  0  0  0  0  0
   -9.6809    6.3561   -0.0000 C   0  0  0  0  0  0  0  0  0  0  0  0
   -9.6931    9.3264   -0.0000 C   0  0  0  0  0  0  0  0  0  0  0  0
  -10.9887    7.1140   -0.0000 C   0  0  0  0  0  0  0  0  0  0  0  0
   -9.6931    4.8771   -0.0000 C   0  0  0  0  0  0  0  0  0  0  0  0
  -10.9887    8.5930   -0.0000 C   0  0  0  0  0  0  0  0  0  0  0  0
  -12.2966    9.3508   -0.0000 N   0  0  0  0  0  0  0  0  0  0  0  0
  -12.3089   10.8665   -0.0000 C   0  0  0  0  0  0  0  0  0  0  0  0
  -13.6045    8.6296   -0.0000 C   0  0  0  0  0  0  0  0  0  0  0  0
  -13.6045   11.6244   -0.0000 C   0  0  0  0  0  0  0  0  0  0  0  0
  -14.9124    9.3997   -0.0000 C   0  0  0  0  0  0  0  0  0  0  0  0
  -14.9124   10.9032   -0.0000 C   0  0  0  0  0  0  0  0  0  0  0  0
  -16.2081   11.6610   -0.0000 N   0  0  0  0  0  0  0  0  0  0  0  0
  -17.5038   10.9398   -0.0000 C   0  0  0  0  0  0  0  0  0  0  0  0
  -16.2081   13.1645   -0.0000 C   0  0  0  0  0  0  0  0  0  0  0  0
  -18.7994   11.7099   -0.0000 C   0  0  0  0  0  0  0  0  0  0  0  0
  -17.8949   12.5044   -0.0000 C   0  0  0  0  0  0  0  0  0  0  0  0
  -17.5038   13.9223   -0.0000 C   0  0  0  0  0  0  0  0  0  0  0  0
  -18.7994   13.2134   -0.0000 O   0  0  0  0  0  0  0  0  0  0  0  0
  1  2  1  0  0  0  0
  2  3  2  0  0  0  0
  2  4  1  0  0  0  0
  3  5  1  0  0  0  0
  4  6  2  0  0  0  0
  5  7  2  0  0  0  0
  5  8  1  0  0  0  0
  8  9  1  6  0  0  0
  8 10  1  0  0  0  0
 10 11  1  0  0  0  0
 11 12  1  0  0  0  0
 12 13  2  0  0  0  0
 12 14  1  0  0  0  0
 13 15  1  0  0  0  0
 13 16  1  0  0  0  0
 14 17  2  0  0  0  0
 15 18  2  0  0  0  0
 15 19  1  0  0  0  0
 16 20  2  0  0  0  0
 16 21  1  0  0  0  0
 20 22  1  0  0  0  0
 21 23  1  0  0  0  0
 22 24  1  0  0  0  0
 23 25  1  0  0  0  0
 24 26  2  0  0  0  0
 24 27  1  0  0  0  0
 25 28  2  0  0  0  0
 28 29  1  0  0  0  0
 29 30  1  0  0  0  0
 29 31  1  0  0  0  0
 30 32  1  0  0  0  0
 31 33  1  0  0  0  0
 32 34  1  0  0  0  0
 34 35  1  0  0  0  0
 36 35  1  6  0  0  0
 35 37  1  0  0  0  0
 36 38  1  0  0  0  0
 36 39  1  0  0  0  0
 37 40  1  0  0  0  0
 38 41  1  0  0  0  0
  6  7  1  0  0  0  0
 17 19  1  0  0  0  0
 22 23  2  0  0  0  0
 26 28  1  0  0  0  0
 33 34  1  0  0  0  0
 39 40  1  0  0  0  0
 40 41  1  6  0  0  0
M  END
>  <MolRegNo>
616438

>  <m>
=

>  <Value>
500

>  <Unit>
nM

>  <Type>
IC50

>  <pValue>
6.3

>  <Ligand Efficiency>
0

>  <Binding Efficiency>
0

>  <Surface Efficiency>
0

>  <Assay Index>
463132

>  <Assay Category>


>  <Assay Organism>


>  <Target ID>
17045

>  <Target Name>
Cytochrome P450 3A4

>  <Target Organism>
Homo sapiens

>  <Target Description>
Target is a single protein chain

>  <Sequence Accession>
P08684

>  <Reference>
Bioorg Med Chem Lett 20 (5), 1744-1748 (2010)

>  <Pubmed ID>
20153189

>  <DOI>
10.1016/j.bmcl.2010.01.087

$$$$
424453
Actelion Java MolfileCreator 1.0

 32 36  0  0  0  0  0  0  0  0999 V2000
    0.0000   -0.0000   -0.0000 Cl  0  0  0  0  0  0  0  0  0  0  0  0
   -1.3701    0.6142   -0.0000 C   0  0  0  0  0  0  0  0  0  0  0  0
   -2.6694   -0.1181   -0.0000 C   0  0  0  0  0  0  0  0  0  0  0  0
   -1.6890    2.0788   -0.0000 C   0  0  0  0  0  0  0  0  0  0  0  0
   -3.7914    0.8858   -0.0000 N   0  0  0  0  0  0  0  0  0  0  0  0
   -3.1772    2.2442   -0.0000 N   0  0  0  0  0  0  0  0  0  0  0  0
   -3.9332    3.5434   -0.0000 C   0  0  0  0  0  0  0  0  0  0  0  0
   -3.2009    4.8426   -0.0000 C   0  0  0  0  0  0  0  0  0  0  0  0
   -3.9568    6.1419   -0.0000 N   0  0  0  0  0  0  0  0  0  0  0  0
   -3.2245    7.4411   -0.0000 C   0  0  0  0  0  0  0  0  0  0  0  0
   -3.9804    8.7404   -0.0000 C   0  0  0  0  0  0  0  0  0  0  0  0
   -1.7481    7.4529   -0.0000 C   0  0  0  0  0  0  0  0  0  0  0  0
   -3.2481   10.0396   -0.0000 C   0  0  0  0  0  0  0  0  0  0  0  0
   -5.4805    8.7522   -0.0000 C   0  0  0  0  0  0  0  0  0  0  0  0
   -1.0158    8.7522   -0.0000 C   0  0  0  0  0  0  0  0  0  0  0  0
   -4.0040   11.3389   -0.0000 O   0  0  0  0  0  0  0  0  0  0  0  0
   -1.7717   10.0633   -0.0000 N   0  0  0  0  0  0  0  0  0  0  0  0
   -6.3781    7.5474   -0.0000 N   0  0  0  0  0  0  0  0  0  0  0  0
   -6.3781    9.9806   -0.0000 N   0  0  0  0  0  0  0  0  0  0  0  0
   -7.8191    8.0199   -0.0000 C   0  0  0  0  0  0  0  0  0  0  0  0
   -7.8191    9.5317   -0.0000 C   0  0  0  0  0  0  0  0  0  0  0  0
   -9.1183    7.2876   -0.0000 C   0  0  0  0  0  0  0  0  0  0  0  0
   -9.1183   10.2877   -0.0000 C   0  0  0  0  0  0  0  0  0  0  0  0
  -10.4176    8.0435   -0.0000 C   0  0  0  0  0  0  0  0  0  0  0  0
   -9.1302    5.8112   -0.0000 C   0  0  0  0  0  0  0  0  0  0  0  0
  -10.4176    9.5554   -0.0000 C   0  0  0  0  0  0  0  0  0  0  0  0
  -11.7168   10.3113   -0.0000 N   0  0  0  0  0  0  0  0  0  0  0  0
  -11.7286   11.8231   -0.0000 C   0  0  0  0  0  0  0  0  0  0  0  0
  -13.0279    9.5790   -0.0000 C   0  0  0  0  0  0  0  0  0  0  0  0
  -13.0279   12.5791   -0.0000 C   0  0  0  0  0  0  0  0  0  0  0  0
  -14.3271   10.3467   -0.0000 C   0  0  0  0  0  0  0  0  0  0  0  0
  -14.3390   11.8468   -0.0000 O   0  0  0  0  0  0  0  0  0  0  0  0
  1  2  1  0  0  0  0
  2  3  1  0  0  0  0
  2  4  2  0  0  0  0
  3  5  2  0  0  0  0
  4  6  1  0  0  0  0
  6  7  1  0  0  0  0
  7  8  1  0  0  0  0
  8  9  1  0  0  0  0
  9 10  1  0  0  0  0
 10 11  2  0  0  0  0
 10 12  1  0  0  0  0
 11 13  1  0  0  0  0
 11 14  1  0  0  0  0
 12 15  2  0  0  0  0
 13 16  2  0  0  0  0
 13 17  1  0  0  0  0
 14 18  2  0  0  0  0
 14 19  1  0  0  0  0
 18 20  1  0  0  0  0
 19 21  1  0  0  0  0
 20 22  1  0  0  0  0
 21 23  1  0  0  0  0
 22 24  2  0  0  0  0
 22 25  1  0  0  0  0
 23 26  2  0  0  0  0
 26 27  1  0  0  0  0
 27 28  1  0  0  0  0
 27 29  1  0  0  0  0
 28 30  1  0  0  0  0
 29 31  1  0  0  0  0
 30 32  1  0  0  0  0
  5  6  1  0  0  0  0
 15 17  1  0  0  0  0
 20 21  2  0  0  0  0
 24 26  1  0  0  0  0
 31 32  1  0  0  0  0
M  END
>  <MolRegNo>
424453

>  <m>
=

>  <Value>
2100

>  <Unit>
nM

>  <Type>
IC50

>  <pValue>
5.68

>  <Ligand Efficiency>
0

>  <Binding Efficiency>
0

>  <Surface Efficiency>
0

>  <Assay Index>
463132

>  <Assay Category>


>  <Assay Organism>


>  <Target ID>
17045

>  <Target Name>
Cytochrome P450 3A4

>  <Target Organism>
Homo sapiens

>  <Target Description>
Target is a single protein chain

>  <Sequence Accession>
P08684

>  <Reference>
Bioorg Med Chem Lett 20 (5), 1744-1748 (2010)

>  <Pubmed ID>
20153189

>  <DOI>
10.1016/j.bmcl.2010.01.087

$$$$
424434
Actelion Java MolfileCreator 1.0

 33 37  0  0  0  0  0  0  0  0999 V2000
    0.0000   -0.0000   -0.0000 Cl  0  0  0  0  0  0  0  0  0  0  0  0
    1.4075    0.4613   -0.0000 C   0  0  0  0  0  0  0  0  0  0  0  0
    2.6022   -0.4140   -0.0000 N   0  0  0  0  0  0  0  0  0  0  0  0
    1.8688    1.8925   -0.0000 C   0  0  0  0  0  0  0  0  0  0  0  0
    3.7968    0.4731   -0.0000 C   0  0  0  0  0  0  0  0  0  0  0  0
    2.5785   -1.8925   -0.0000 C   0  0  0  0  0  0  0  0  0  0  0  0
    3.3473    1.8925   -0.0000 N   0  0  0  0  0  0  0  0  0  0  0  0
    0.9817    3.1108   -0.0000 C   0  0  0  0  0  0  0  0  0  0  0  0
    1.7151    4.4118   -0.0000 C   0  0  0  0  0  0  0  0  0  0  0  0
    0.9581    5.7129   -0.0000 N   0  0  0  0  0  0  0  0  0  0  0  0
    1.6914    7.0140   -0.0000 C   0  0  0  0  0  0  0  0  0  0  0  0
    0.9344    8.3269   -0.0000 C   0  0  0  0  0  0  0  0  0  0  0  0
    3.1699    7.0258   -0.0000 C   0  0  0  0  0  0  0  0  0  0  0  0
    1.6677    9.6280   -0.0000 C   0  0  0  0  0  0  0  0  0  0  0  0
   -0.5677    8.3387   -0.0000 C   0  0  0  0  0  0  0  0  0  0  0  0
    3.9032    8.3269   -0.0000 C   0  0  0  0  0  0  0  0  0  0  0  0
    0.9108   10.9291   -0.0000 O   0  0  0  0  0  0  0  0  0  0  0  0
    3.1462    9.6516   -0.0000 N   0  0  0  0  0  0  0  0  0  0  0  0
   -1.4667    7.1323   -0.0000 N   0  0  0  0  0  0  0  0  0  0  0  0
   -1.4667    9.5688   -0.0000 N   0  0  0  0  0  0  0  0  0  0  0  0
   -2.9097    7.6054   -0.0000 C   0  0  0  0  0  0  0  0  0  0  0  0
   -2.9097    9.1194   -0.0000 C   0  0  0  0  0  0  0  0  0  0  0  0
   -4.2108    6.8721   -0.0000 C   0  0  0  0  0  0  0  0  0  0  0  0
   -4.2108    9.8764   -0.0000 C   0  0  0  0  0  0  0  0  0  0  0  0
   -5.5118    7.6290   -0.0000 C   0  0  0  0  0  0  0  0  0  0  0  0
   -4.2226    5.3936   -0.0000 C   0  0  0  0  0  0  0  0  0  0  0  0
   -5.5118    9.1430   -0.0000 C   0  0  0  0  0  0  0  0  0  0  0  0
   -6.8129    9.9000   -0.0000 N   0  0  0  0  0  0  0  0  0  0  0  0
   -6.8247   11.4140   -0.0000 C   0  0  0  0  0  0  0  0  0  0  0  0
   -8.1258    9.1667   -0.0000 C   0  0  0  0  0  0  0  0  0  0  0  0
   -8.1258   12.1710   -0.0000 C   0  0  0  0  0  0  0  0  0  0  0  0
   -9.4269    9.9355   -0.0000 C   0  0  0  0  0  0  0  0  0  0  0  0
   -9.4387   11.4377   -0.0000 O   0  0  0  0  0  0  0  0  0  0  0  0
  1  2  1  0  0  0  0
  2  3  1  0  0  0  0
  2  4  2  0  0  0  0
  3  5  1  0  0  0  0
  3  6  1  0  0  0  0
  4  7  1  0  0  0  0
  4  8  1  0  0  0  0
  8  9  1  0  0  0  0
  9 10  1  0  0  0  0
 10 11  1  0  0  0  0
 11 12  2  0  0  0  0
 11 13  1  0  0  0  0
 12 14  1  0  0  0  0
 12 15  1  0  0  0  0
 13 16  2  0  0  0  0
 14 17  2  0  0  0  0
 14 18  1  0  0  0  0
 15 19  2  0  0  0  0
 15 20  1  0  0  0  0
 19 21  1  0  0  0  0
 20 22  1  0  0  0  0
 21 23  1  0  0  0  0
 22 24  1  0  0  0  0
 23 25  2  0  0  0  0
 23 26  1  0  0  0  0
 24 27  2  0  0  0  0
 27 28  1  0  0  0  0
 28 29  1  0  0  0  0
 28 30  1  0  0  0  0
 29 31  1  0  0  0  0
 30 32  1  0  0  0  0
 31 33  1  0  0  0  0
  5  7  2  0  0  0  0
 16 18  1  0  0  0  0
 21 22  2  0  0  0  0
 25 27  1  0  0  0  0
 32 33  1  0  0  0  0
M  END
>  <MolRegNo>
424434

>  <m>
=

>  <Value>
1900

>  <Unit>
nM

>  <Type>
IC50

>  <pValue>
5.72

>  <Ligand Efficiency>
0

>  <Binding Efficiency>
0

>  <Surface Efficiency>
0

>  <Assay Index>
463132

>  <Assay Category>


>  <Assay Organism>


>  <Target ID>
17045

>  <Target Name>
Cytochrome P450 3A4

>  <Target Organism>
Homo sapiens

>  <Target Description>
Target is a single protein chain

>  <Sequence Accession>
P08684

>  <Reference>
Bioorg Med Chem Lett 20 (5), 1744-1748 (2010)

>  <Pubmed ID>
20153189

>  <DOI>
10.1016/j.bmcl.2010.01.087

$$$$
616439
Actelion Java MolfileCreator 1.0

 42 47  0  0  0  0  0  0  0  0999 V2000
    0.0000   -0.0000   -0.0000 Cl  0  0  0  0  0  0  0  0  0  0  0  0
   -1.3692    0.6138   -0.0000 C   0  0  0  0  0  0  0  0  0  0  0  0
   -2.6677   -0.1180   -0.0000 C   0  0  0  0  0  0  0  0  0  0  0  0
   -1.6998    2.0775   -0.0000 C   0  0  0  0  0  0  0  0  0  0  0  0
   -3.7890    0.8853   -0.0000 N   0  0  0  0  0  0  0  0  0  0  0  0
   -3.1870    2.2427   -0.0000 N   0  0  0  0  0  0  0  0  0  0  0  0
   -3.9425    3.5412   -0.0000 C   0  0  0  0  0  0  0  0  0  0  0  0
   -3.2106    4.8396   -0.0000 C   0  0  0  0  0  0  0  0  0  0  0  0
   -3.9661    6.1380   -0.0000 N   0  0  0  0  0  0  0  0  0  0  0  0
   -3.2343    7.4364   -0.0000 C   0  0  0  0  0  0  0  0  0  0  0  0
   -3.9897    8.7467   -0.0000 C   0  0  0  0  0  0  0  0  0  0  0  0
   -1.7588    7.4482   -0.0000 C   0  0  0  0  0  0  0  0  0  0  0  0
   -3.2579   10.0451   -0.0000 C   0  0  0  0  0  0  0  0  0  0  0  0
   -5.4888    8.7585   -0.0000 C   0  0  0  0  0  0  0  0  0  0  0  0
   -1.0269    8.7467   -0.0000 C   0  0  0  0  0  0  0  0  0  0  0  0
   -4.0133   11.3435   -0.0000 O   0  0  0  0  0  0  0  0  0  0  0  0
   -1.7824   10.0687   -0.0000 N   0  0  0  0  0  0  0  0  0  0  0  0
   -6.3859    7.5545   -0.0000 N   0  0  0  0  0  0  0  0  0  0  0  0
   -6.3859    9.9861   -0.0000 N   0  0  0  0  0  0  0  0  0  0  0  0
   -7.8260    8.0266   -0.0000 C   0  0  0  0  0  0  0  0  0  0  0  0
   -7.8260    9.5375   -0.0000 C   0  0  0  0  0  0  0  0  0  0  0  0
   -9.1244    7.2948   -0.0000 C   0  0  0  0  0  0  0  0  0  0  0  0
   -9.1244   10.2930   -0.0000 C   0  0  0  0  0  0  0  0  0  0  0  0
  -10.4228    8.0502   -0.0000 C   0  0  0  0  0  0  0  0  0  0  0  0
   -9.1362    5.8193   -0.0000 C   0  0  0  0  0  0  0  0  0  0  0  0
  -10.4228    9.5611   -0.0000 C   0  0  0  0  0  0  0  0  0  0  0  0
  -11.7212   10.3166   -0.0000 N   0  0  0  0  0  0  0  0  0  0  0  0
  -11.7330   11.8275   -0.0000 C   0  0  0  0  0  0  0  0  0  0  0  0
  -13.0314    9.5847   -0.0000 C   0  0  0  0  0  0  0  0  0  0  0  0
  -13.0314   12.5829   -0.0000 C   0  0  0  0  0  0  0  0  0  0  0  0
  -14.3299   10.3520   -0.0000 C   0  0  0  0  0  0  0  0  0  0  0  0
  -14.3299   11.8629   -0.0000 C   0  0  0  0  0  0  0  0  0  0  0  0
  -15.6283   12.6301   -0.0000 N   0  0  0  0  0  0  0  0  0  0  0  0
  -15.6283   14.1292   -0.0000 C   0  0  0  0  0  0  0  0  0  0  0  0
  -16.9267   11.8983   -0.0000 C   0  0  0  0  0  0  0  0  0  0  0  0
  -16.9149   14.8965   -0.0000 C   0  0  0  0  0  0  0  0  0  0  0  0
  -18.2251   12.6655   -0.0000 C   0  0  0  0  0  0  0  0  0  0  0  0
  -18.2251   14.1764   -0.0000 N   0  0  0  0  0  0  0  0  0  0  0  0
  -19.5236   14.9437   -0.0000 C   0  0  0  0  0  0  0  0  0  0  0  0
  -19.5236   16.4428   -0.0000 O   0  0  0  0  0  0  0  0  0  0  0  0
  -20.8338   14.2236   -0.0000 O   0  0  0  0  0  0  0  0  0  0  0  0
  -22.1322   14.9909   -0.0000 C   0  0  0  0  0  0  0  0  0  0  0  0
  1  2  1  0  0  0  0
  2  3  1  0  0  0  0
  2  4  2  0  0  0  0
  3  5  2  0  0  0  0
  4  6  1  0  0  0  0
  6  7  1  0  0  0  0
  7  8  1  0  0  0  0
  8  9  1  0  0  0  0
  9 10  1  0  0  0  0
 10 11  2  0  0  0  0
 10 12  1  0  0  0  0
 11 13  1  0  0  0  0
 11 14  1  0  0  0  0
 12 15  2  0  0  0  0
 13 16  2  0  0  0  0
 13 17  1  0  0  0  0
 14 18  2  0  0  0  0
 14 19  1  0  0  0  0
 18 20  1  0  0  0  0
 19 21  1  0  0  0  0
 20 22  1  0  0  0  0
 21 23  1  0  0  0  0
 22 24  2  0  0  0  0
 22 25  1  0  0  0  0
 23 26  2  0  0  0  0
 26 27  1  0  0  0  0
 27 28  1  0  0  0  0
 27 29  1  0  0  0  0
 28 30  1  0  0  0  0
 29 31  1  0  0  0  0
 30 32  1  0  0  0  0
 32 33  1  0  0  0  0
 33 34  1  0  0  0  0
 33 35  1  0  0  0  0
 34 36  1  0  0  0  0
 35 37  1  0  0  0  0
 36 38  1  0  0  0  0
 38 39  1  0  0  0  0
 39 40  2  0  0  0  0
 39 41  1  0  0  0  0
 41 42  1  0  0  0  0
  5  6  1  0  0  0  0
 15 17  1  0  0  0  0
 20 21  2  0  0  0  0
 24 26  1  0  0  0  0
 31 32  1  0  0  0  0
 37 38  1  0  0  0  0
M  END
>  <MolRegNo>
616439

>  <m>
=

>  <Value>
1000

>  <Unit>
nM

>  <Type>
IC50

>  <pValue>
6

>  <Ligand Efficiency>
0

>  <Binding Efficiency>
0

>  <Surface Efficiency>
0

>  <Assay Index>
463132

>  <Assay Category>


>  <Assay Organism>


>  <Target ID>
17045

>  <Target Name>
Cytochrome P450 3A4

>  <Target Organism>
Homo sapiens

>  <Target Description>
Target is a single protein chain

>  <Sequence Accession>
P08684

>  <Reference>
Bioorg Med Chem Lett 20 (5), 1744-1748 (2010)

>  <Pubmed ID>
20153189

>  <DOI>
10.1016/j.bmcl.2010.01.087

$$$$
616440
Actelion Java MolfileCreator 1.0

 43 48  0  0  0  0  0  0  0  0999 V2000
    0.0000   -0.0000   -0.0000 Cl  0  0  0  0  0  0  0  0  0  0  0  0
   -1.0053   -1.0999   -0.0000 C   0  0  0  0  0  0  0  0  0  0  0  0
   -0.7096   -2.5429   -0.0000 N   0  0  0  0  0  0  0  0  0  0  0  0
   -2.4956   -0.9344   -0.0000 C   0  0  0  0  0  0  0  0  0  0  0  0
   -2.0106   -3.2762   -0.0000 C   0  0  0  0  0  0  0  0  0  0  0  0
    0.6387   -3.1342   -0.0000 C   0  0  0  0  0  0  0  0  0  0  0  0
   -3.1106   -2.2827   -0.0000 N   0  0  0  0  0  0  0  0  0  0  0  0
   -3.2525    0.3666   -0.0000 C   0  0  0  0  0  0  0  0  0  0  0  0
   -2.5192    1.6676   -0.0000 C   0  0  0  0  0  0  0  0  0  0  0  0
   -3.2762    2.9686   -0.0000 N   0  0  0  0  0  0  0  0  0  0  0  0
   -2.5429    4.2696   -0.0000 C   0  0  0  0  0  0  0  0  0  0  0  0
   -3.2998    5.5706   -0.0000 C   0  0  0  0  0  0  0  0  0  0  0  0
   -1.0645    4.2815   -0.0000 C   0  0  0  0  0  0  0  0  0  0  0  0
   -2.5665    6.8716   -0.0000 C   0  0  0  0  0  0  0  0  0  0  0  0
   -4.8019    5.5825   -0.0000 C   0  0  0  0  0  0  0  0  0  0  0  0
   -0.3312    5.5825   -0.0000 C   0  0  0  0  0  0  0  0  0  0  0  0
   -3.3235    8.1726   -0.0000 O   0  0  0  0  0  0  0  0  0  0  0  0
   -1.0881    6.8953   -0.0000 N   0  0  0  0  0  0  0  0  0  0  0  0
   -5.7007    4.3761   -0.0000 N   0  0  0  0  0  0  0  0  0  0  0  0
   -5.7007    6.8125   -0.0000 N   0  0  0  0  0  0  0  0  0  0  0  0
   -7.1437    4.8492   -0.0000 C   0  0  0  0  0  0  0  0  0  0  0  0
   -7.1437    6.3631   -0.0000 C   0  0  0  0  0  0  0  0  0  0  0  0
   -8.4447    4.1159   -0.0000 C   0  0  0  0  0  0  0  0  0  0  0  0
   -8.4447    7.1200   -0.0000 C   0  0  0  0  0  0  0  0  0  0  0  0
   -9.7457    4.8728   -0.0000 C   0  0  0  0  0  0  0  0  0  0  0  0
   -8.4565    2.6375   -0.0000 C   0  0  0  0  0  0  0  0  0  0  0  0
   -9.7457    6.3867   -0.0000 C   0  0  0  0  0  0  0  0  0  0  0  0
  -11.0467    7.1437   -0.0000 N   0  0  0  0  0  0  0  0  0  0  0  0
  -11.0585    8.6576   -0.0000 C   0  0  0  0  0  0  0  0  0  0  0  0
  -12.3477    6.4104   -0.0000 C   0  0  0  0  0  0  0  0  0  0  0  0
  -12.3595    9.4145   -0.0000 C   0  0  0  0  0  0  0  0  0  0  0  0
  -13.6487    7.1791   -0.0000 C   0  0  0  0  0  0  0  0  0  0  0  0
  -13.6605    8.6930   -0.0000 C   0  0  0  0  0  0  0  0  0  0  0  0
  -14.9615    9.4500   -0.0000 N   0  0  0  0  0  0  0  0  0  0  0  0
  -14.9615   10.9520   -0.0000 C   0  0  0  0  0  0  0  0  0  0  0  0
  -16.2625    8.7167   -0.0000 C   0  0  0  0  0  0  0  0  0  0  0  0
  -16.2507   11.7208   -0.0000 C   0  0  0  0  0  0  0  0  0  0  0  0
  -17.5635    9.4855   -0.0000 C   0  0  0  0  0  0  0  0  0  0  0  0
  -17.5635   10.9994   -0.0000 N   0  0  0  0  0  0  0  0  0  0  0  0
  -18.8645   11.7681   -0.0000 C   0  0  0  0  0  0  0  0  0  0  0  0
  -18.8645   13.2702   -0.0000 O   0  0  0  0  0  0  0  0  0  0  0  0
  -20.1773   11.0467   -0.0000 O   0  0  0  0  0  0  0  0  0  0  0  0
  -21.4783   11.8154   -0.0000 C   0  0  0  0  0  0  0  0  0  0  0  0
  1  2  1  0  0  0  0
  2  3  1  0  0  0  0
  2  4  2  0  0  0  0
  3  5  1  0  0  0  0
  3  6  1  0  0  0  0
  4  7  1  0  0  0  0
  4  8  1  0  0  0  0
  8  9  1  0  0  0  0
  9 10  1  0  0  0  0
 10 11  1  0  0  0  0
 11 12  2  0  0  0  0
 11 13  1  0  0  0  0
 12 14  1  0  0  0  0
 12 15  1  0  0  0  0
 13 16  2  0  0  0  0
 14 17  2  0  0  0  0
 14 18  1  0  0  0  0
 15 19  2  0  0  0  0
 15 20  1  0  0  0  0
 19 21  1  0  0  0  0
 20 22  1  0  0  0  0
 21 23  1  0  0  0  0
 22 24  1  0  0  0  0
 23 25  2  0  0  0  0
 23 26  1  0  0  0  0
 24 27  2  0  0  0  0
 27 28  1  0  0  0  0
 28 29  1  0  0  0  0
 28 30  1  0  0  0  0
 29 31  1  0  0  0  0
 30 32  1  0  0  0  0
 31 33  1  0  0  0  0
 33 34  1  0  0  0  0
 34 35  1  0  0  0  0
 34 36  1  0  0  0  0
 35 37  1  0  0  0  0
 36 38  1  0  0  0  0
 37 39  1  0  0  0  0
 39 40  1  0  0  0  0
 40 41  2  0  0  0  0
 40 42  1  0  0  0  0
 42 43  1  0  0  0  0
  5  7  2  0  0  0  0
 16 18  1  0  0  0  0
 21 22  2  0  0  0  0
 25 27  1  0  0  0  0
 32 33  1  0  0  0  0
 38 39  1  0  0  0  0
M  END
>  <MolRegNo>
616440

>  <m>
=

>  <Value>
700

>  <Unit>
nM

>  <Type>
IC50

>  <pValue>
6.16

>  <Ligand Efficiency>
0

>  <Binding Efficiency>
0

>  <Surface Efficiency>
0

>  <Assay Index>
463132

>  <Assay Category>


>  <Assay Organism>


>  <Target ID>
17045

>  <Target Name>
Cytochrome P450 3A4

>  <Target Organism>
Homo sapiens

>  <Target Description>
Target is a single protein chain

>  <Sequence Accession>
P08684

>  <Reference>
Bioorg Med Chem Lett 20 (5), 1744-1748 (2010)

>  <Pubmed ID>
20153189

>  <DOI>
10.1016/j.bmcl.2010.01.087

$$$$
616412
Actelion Java MolfileCreator 1.0

 42 47  0  0  0  0  0  0  0  0999 V2000
    0.0000   -0.0000   -0.0000 O   0  0  0  0  0  0  0  0  0  0  0  0
   -0.0119   -1.4886   -0.0000 C   0  0  0  0  0  0  0  0  0  0  0  0
    1.2742   -2.2269   -0.0000 N   0  0  0  0  0  0  0  0  0  0  0  0
   -1.3219   -2.2269   -0.0000 C   0  0  0  0  0  0  0  0  0  0  0  0
    2.5604   -1.4409   -0.0000 C   0  0  0  0  0  0  0  0  0  0  0  0
   -2.6318   -1.4648   -0.0000 C   0  0  0  0  0  0  0  0  0  0  0  0
   -1.3338   -3.7274   -0.0000 C   0  0  0  0  0  0  0  0  0  0  0  0
    3.8584   -2.1912   -0.0000 C   0  0  0  0  0  0  0  0  0  0  0  0
    3.7155   -0.4883   -0.0000 C   0  0  0  0  0  0  0  0  0  0  0  0
    1.2980   -0.6073   -0.0000 C   0  0  0  0  0  0  0  0  0  0  0  0
   -3.9418   -2.2031   -0.0000 C   0  0  0  0  0  0  0  0  0  0  0  0
   -2.6556   -4.4657   -0.0000 C   0  0  0  0  0  0  0  0  0  0  0  0
    3.8465   -3.6798   -0.0000 O   0  0  0  0  0  0  0  0  0  0  0  0
    5.1445   -1.4290   -0.0000 N   0  0  0  0  0  0  0  0  0  0  0  0
    3.1677    0.9289   -0.0000 C   0  0  0  0  0  0  0  0  0  0  0  0
    1.6791    0.8574   -0.0000 C   0  0  0  0  0  0  0  0  0  0  0  0
   -5.3827   -1.7268   -0.0000 N   0  0  0  0  0  0  0  0  0  0  0  0
   -3.9537   -3.7036   -0.0000 C   0  0  0  0  0  0  0  0  0  0  0  0
    6.4307   -2.1674   -0.0000 C   0  0  0  0  0  0  0  0  0  0  0  0
   -6.2878   -2.9295   -0.0000 C   0  0  0  0  0  0  0  0  0  0  0  0
   -5.4065   -4.1561   -0.0000 N   0  0  0  0  0  0  0  0  0  0  0  0
    6.4187   -3.6559   -0.0000 C   0  0  0  0  0  0  0  0  0  0  0  0
    7.7049   -1.4052   -0.0000 C   0  0  0  0  0  0  0  0  0  0  0  0
   -7.8001   -2.9176   -0.0000 C   0  0  0  0  0  0  0  0  0  0  0  0
   -5.8829   -5.5732   -0.0000 C   0  0  0  0  0  0  0  0  0  0  0  0
    7.7049   -4.3943   -0.0000 C   0  0  0  0  0  0  0  0  0  0  0  0
    8.9910   -2.1316   -0.0000 C   0  0  0  0  0  0  0  0  0  0  0  0
   -8.7052   -4.1204   -0.0000 C   0  0  0  0  0  0  0  0  0  0  0  0
   -8.6933   -1.6910   -0.0000 C   0  0  0  0  0  0  0  0  0  0  0  0
   -7.3953   -5.5494   -0.0000 C   0  0  0  0  0  0  0  0  0  0  0  0
   -5.1445   -6.8594   -0.0000 C   0  0  0  0  0  0  0  0  0  0  0  0
    8.9910   -3.6321   -0.0000 C   0  0  0  0  0  0  0  0  0  0  0  0
  -10.1461   -3.6440   -0.0000 O   0  0  0  0  0  0  0  0  0  0  0  0
  -10.1342   -2.1436   -0.0000 C   0  0  0  0  0  0  0  0  0  0  0  0
   -8.1574   -6.8236   -0.0000 C   0  0  0  0  0  0  0  0  0  0  0  0
   -5.9186   -8.1455   -0.0000 C   0  0  0  0  0  0  0  0  0  0  0  0
   10.2771   -4.3705   -0.0000 C   0  0  0  0  0  0  0  0  0  0  0  0
   -7.4310   -8.1217   -0.0000 C   0  0  0  0  0  0  0  0  0  0  0  0
   11.5633   -3.6083   -0.0000 C   0  0  0  0  0  0  0  0  0  0  0  0
   12.8494   -4.3466   -0.0000 C   0  0  0  0  0  0  0  0  0  0  0  0
   14.1474   -3.5845   -0.0000 O   0  0  0  0  0  0  0  0  0  0  0  0
   12.8494   -5.8352   -0.0000 O   0  0  0  0  0  0  0  0  0  0  0  0
  1  2  2  0  0  0  0
  2  3  1  0  0  0  0
  2  4  1  0  0  0  0
  3  5  1  0  0  0  0
  4  6  2  0  0  0  0
  4  7  1  0  0  0  0
  5  8  1  0  0  0  0
  5  9  1  0  0  0  0
  5 10  1  0  0  0  0
  6 11  1  0  0  0  0
  7 12  2  0  0  0  0
  8 13  2  0  0  0  0
  8 14  1  0  0  0  0
  9 15  1  0  0  0  0
 10 16  1  0  0  0  0
 11 17  1  0  0  0  0
 11 18  2  0  0  0  0
 14 19  1  0  0  0  0
 17 20  2  0  0  0  0
 18 21  1  0  0  0  0
 19 22  2  0  0  0  0
 19 23  1  0  0  0  0
 20 24  1  0  0  0  0
 21 25  1  0  0  0  0
 22 26  1  0  0  0  0
 23 27  2  0  0  0  0
 24 28  2  0  0  0  0
 24 29  1  0  0  0  0
 25 30  1  0  0  0  0
 25 31  1  0  0  0  0
 26 32  2  0  0  0  0
 28 33  1  0  0  0  0
 29 34  2  0  0  0  0
 30 35  1  0  0  0  0
 31 36  1  0  0  0  0
 32 37  1  0  0  0  0
 35 38  1  0  0  0  0
 37 39  2  0  0  0  0
 39 40  1  0  0  0  0
 40 41  2  0  0  0  0
 40 42  1  0  0  0  0
 12 18  1  0  0  0  0
 15 16  1  0  0  0  0
 20 21  1  0  0  0  0
 27 32  1  0  0  0  0
 33 34  1  0  0  0  0
 36 38  1  0  0  0  0
M  END
>  <MolRegNo>
616412

>  <m>
=

>  <Value>
30000

>  <Unit>
nM

>  <Type>
IC50

>  <pValue>
4.52

>  <Ligand Efficiency>
0

>  <Binding Efficiency>
0

>  <Surface Efficiency>
0

>  <Assay Index>
461199

>  <Assay Category>


>  <Assay Organism>


>  <Target ID>
17045

>  <Target Name>
Cytochrome P450 3A4

>  <Target Organism>
Homo sapiens

>  <Target Description>
Target is a single protein chain

>  <Sequence Accession>
P08684

>  <Reference>
Bioorg Med Chem Lett 20 (6), 1825-1829 (2010)

>  <Pubmed ID>
20185309

>  <DOI>
10.1016/j.bmcl.2010.02.003

$$$$
616413
Actelion Java MolfileCreator 1.0

 43 48  0  0  0  0  0  0  0  0999 V2000
    0.0000   -0.0000   -0.0000 O   0  0  0  0  0  0  0  0  0  0  0  0
   -0.0119   -1.4880   -0.0000 C   0  0  0  0  0  0  0  0  0  0  0  0
    1.2738   -2.2261   -0.0000 N   0  0  0  0  0  0  0  0  0  0  0  0
   -1.3214   -2.2261   -0.0000 C   0  0  0  0  0  0  0  0  0  0  0  0
    2.5594   -1.4404   -0.0000 C   0  0  0  0  0  0  0  0  0  0  0  0
   -2.6308   -1.4642   -0.0000 C   0  0  0  0  0  0  0  0  0  0  0  0
   -1.3333   -3.7260   -0.0000 C   0  0  0  0  0  0  0  0  0  0  0  0
    3.8570   -2.1904   -0.0000 C   0  0  0  0  0  0  0  0  0  0  0  0
    3.7617   -0.5476   -0.0000 C   0  0  0  0  0  0  0  0  0  0  0  0
    1.3333   -0.5476   -0.0000 C   0  0  0  0  0  0  0  0  0  0  0  0
   -3.9403   -2.2023   -0.0000 C   0  0  0  0  0  0  0  0  0  0  0  0
   -2.6547   -4.4641   -0.0000 C   0  0  0  0  0  0  0  0  0  0  0  0
    3.8451   -3.6784   -0.0000 O   0  0  0  0  0  0  0  0  0  0  0  0
    5.1426   -1.4285   -0.0000 N   0  0  0  0  0  0  0  0  0  0  0  0
    3.2856    0.8928   -0.0000 C   0  0  0  0  0  0  0  0  0  0  0  0
    1.7856    0.8928   -0.0000 C   0  0  0  0  0  0  0  0  0  0  0  0
   -5.3807   -1.7261   -0.0000 N   0  0  0  0  0  0  0  0  0  0  0  0
   -3.9522   -3.7022   -0.0000 C   0  0  0  0  0  0  0  0  0  0  0  0
    6.4283   -2.1666   -0.0000 C   0  0  0  0  0  0  0  0  0  0  0  0
   -6.2855   -2.9284   -0.0000 C   0  0  0  0  0  0  0  0  0  0  0  0
   -5.4045   -4.1546   -0.0000 N   0  0  0  0  0  0  0  0  0  0  0  0
    6.4164   -3.6546   -0.0000 C   0  0  0  0  0  0  0  0  0  0  0  0
    7.7021   -1.4047   -0.0000 C   0  0  0  0  0  0  0  0  0  0  0  0
   -7.7973   -2.9165   -0.0000 C   0  0  0  0  0  0  0  0  0  0  0  0
   -5.8807   -5.5712   -0.0000 C   0  0  0  0  0  0  0  0  0  0  0  0
    7.7021   -4.3927   -0.0000 C   0  0  0  0  0  0  0  0  0  0  0  0
    8.9877   -2.1309   -0.0000 C   0  0  0  0  0  0  0  0  0  0  0  0
   -8.5473   -4.2022   -0.0000 N   0  0  0  0  0  0  0  0  0  0  0  0
   -8.5473   -1.5952   -0.0000 C   0  0  0  0  0  0  0  0  0  0  0  0
   -7.3925   -5.5474   -0.0000 C   0  0  0  0  0  0  0  0  0  0  0  0
   -5.1426   -6.8569   -0.0000 C   0  0  0  0  0  0  0  0  0  0  0  0
    8.9877   -3.6308   -0.0000 C   0  0  0  0  0  0  0  0  0  0  0  0
  -10.0591   -4.1903   -0.0000 C   0  0  0  0  0  0  0  0  0  0  0  0
  -10.0591   -1.5833   -0.0000 C   0  0  0  0  0  0  0  0  0  0  0  0
   -8.1544   -6.8211   -0.0000 C   0  0  0  0  0  0  0  0  0  0  0  0
   -5.9164   -8.1425   -0.0000 C   0  0  0  0  0  0  0  0  0  0  0  0
   10.2734   -4.3689   -0.0000 C   0  0  0  0  0  0  0  0  0  0  0  0
  -10.8329   -2.8689   -0.0000 C   0  0  0  0  0  0  0  0  0  0  0  0
   -7.4283   -8.1187   -0.0000 C   0  0  0  0  0  0  0  0  0  0  0  0
   11.5590   -3.6070   -0.0000 C   0  0  0  0  0  0  0  0  0  0  0  0
   12.8447   -4.3451   -0.0000 C   0  0  0  0  0  0  0  0  0  0  0  0
   14.1423   -3.5832   -0.0000 O   0  0  0  0  0  0  0  0  0  0  0  0
   12.8447   -5.8331   -0.0000 O   0  0  0  0  0  0  0  0  0  0  0  0
  1  2  2  0  0  0  0
  2  3  1  0  0  0  0
  2  4  1  0  0  0  0
  3  5  1  0  0  0  0
  4  6  2  0  0  0  0
  4  7  1  0  0  0  0
  5  8  1  0  0  0  0
  5  9  1  0  0  0  0
  5 10  1  0  0  0  0
  6 11  1  0  0  0  0
  7 12  2  0  0  0  0
  8 13  2  0  0  0  0
  8 14  1  0  0  0  0
  9 15  1  0  0  0  0
 10 16  1  0  0  0  0
 11 17  1  0  0  0  0
 11 18  2  0  0  0  0
 14 19  1  0  0  0  0
 17 20  2  0  0  0  0
 18 21  1  0  0  0  0
 19 22  2  0  0  0  0
 19 23  1  0  0  0  0
 20 24  1  0  0  0  0
 21 25  1  0  0  0  0
 22 26  1  0  0  0  0
 23 27  2  0  0  0  0
 24 28  2  0  0  0  0
 24 29  1  0  0  0  0
 25 30  1  0  0  0  0
 25 31  1  0  0  0  0
 26 32  2  0  0  0  0
 28 33  1  0  0  0  0
 29 34  2  0  0  0  0
 30 35  1  0  0  0  0
 31 36  1  0  0  0  0
 32 37  1  0  0  0  0
 33 38  2  0  0  0  0
 35 39  1  0  0  0  0
 37 40  2  0  0  0  0
 40 41  1  0  0  0  0
 41 42  2  0  0  0  0
 41 43  1  0  0  0  0
 12 18  1  0  0  0  0
 15 16  1  0  0  0  0
 20 21  1  0  0  0  0
 27 32  1  0  0  0  0
 34 38  1  0  0  0  0
 36 39  1  0  0  0  0
M  END
>  <MolRegNo>
616413

>  <m>
=

>  <Value>
30000

>  <Unit>
nM

>  <Type>
IC50

>  <pValue>
4.52

>  <Ligand Efficiency>
0

>  <Binding Efficiency>
0

>  <Surface Efficiency>
0

>  <Assay Index>
461199

>  <Assay Category>


>  <Assay Organism>


>  <Target ID>
17045

>  <Target Name>
Cytochrome P450 3A4

>  <Target Organism>
Homo sapiens

>  <Target Description>
Target is a single protein chain

>  <Sequence Accession>
P08684

>  <Reference>
Bioorg Med Chem Lett 20 (6), 1825-1829 (2010)

>  <Pubmed ID>
20185309

>  <DOI>
10.1016/j.bmcl.2010.02.003

$$$$
610449
Actelion Java MolfileCreator 1.0

 18 20  0  0  0  0  0  0  0  0999 V2000
    0.0000   -0.0000   -0.0000 O   0  0  0  0  0  0  0  0  0  0  0  0
    1.2872   -0.7440   -0.0000 C   0  0  0  0  0  0  0  0  0  0  0  0
   -1.3108   -0.7321   -0.0000 C   0  0  0  0  0  0  0  0  0  0  0  0
    2.5743    0.0118   -0.0000 C   0  0  0  0  0  0  0  0  0  0  0  0
    1.2635   -2.2319   -0.0000 C   0  0  0  0  0  0  0  0  0  0  0  0
   -2.6216    0.0472   -0.0000 C   0  0  0  0  0  0  0  0  0  0  0  0
    3.8615   -0.7440   -0.0000 C   0  0  0  0  0  0  0  0  0  0  0  0
    2.5507   -2.9758   -0.0000 C   0  0  0  0  0  0  0  0  0  0  0  0
   -3.9442   -0.6849   -0.0000 C   0  0  0  0  0  0  0  0  0  0  0  0
   -2.6216    1.5588   -0.0000 C   0  0  0  0  0  0  0  0  0  0  0  0
    5.1605    0.0118   -0.0000 N   0  0  0  0  0  0  0  0  0  0  0  0
    3.8379   -2.2319   -0.0000 C   0  0  0  0  0  0  0  0  0  0  0  0
   -5.2549    0.0945   -0.0000 C   0  0  0  0  0  0  0  0  0  0  0  0
   -3.9324    2.3263   -0.0000 C   0  0  0  0  0  0  0  0  0  0  0  0
    6.4476   -0.7440   -0.0000 C   0  0  0  0  0  0  0  0  0  0  0  0
    5.1250   -2.9758   -0.0000 C   0  0  0  0  0  0  0  0  0  0  0  0
   -5.2549    1.6060   -0.0000 C   0  0  0  0  0  0  0  0  0  0  0  0
    6.4240   -2.2319   -0.0000 C   0  0  0  0  0  0  0  0  0  0  0  0
  1  2  1  0  0  0  0
  1  3  1  0  0  0  0
  2  4  2  0  0  0  0
  2  5  1  0  0  0  0
  3  6  1  0  0  0  0
  4  7  1  0  0  0  0
  5  8  2  0  0  0  0
  6  9  2  0  0  0  0
  6 10  1  0  0  0  0
  7 11  2  0  0  0  0
  7 12  1  0  0  0  0
  9 13  1  0  0  0  0
 10 14  2  0  0  0  0
 11 15  1  0  0  0  0
 12 16  2  0  0  0  0
 13 17  2  0  0  0  0
 15 18  2  0  0  0  0
  8 12  1  0  0  0  0
 14 17  1  0  0  0  0
 16 18  1  0  0  0  0
M  END
>  <MolRegNo>
610449

>  <m>
=

>  <Value>
25000

>  <Unit>
nM

>  <Type>
IC50

>  <pValue>
4.6

>  <Ligand Efficiency>
0

>  <Binding Efficiency>
0

>  <Surface Efficiency>
0

>  <Assay Index>
467451

>  <Assay Category>


>  <Assay Organism>
Homo sapiens

>  <Target ID>
17045

>  <Target Name>
Cytochrome P450 3A4

>  <Target Organism>
Homo sapiens

>  <Target Description>
Target is a single protein chain

>  <Sequence Accession>
P08684

>  <Reference>
J Med Chem 53 (1), 374-391 (2010)

>  <Pubmed ID>
19891474

>  <DOI>
10.1021/jm901319p

$$$$
611749
Actelion Java MolfileCreator 1.0

 31 34  0  0  0  0  0  0  0  0999 V2000
    0.0000   -0.0000   -0.0000 O   0  0  0  0  0  0  0  0  0  0  0  0
   -1.3124   -0.7397   -0.0000 C   0  0  0  0  0  0  0  0  0  0  0  0
   -1.3243   -2.2311   -0.0000 N   0  0  0  0  0  0  0  0  0  0  0  0
   -2.6248    0.0239   -0.0000 C   0  0  0  0  0  0  0  0  0  0  0  0
   -0.0358   -2.9708   -0.0000 C   0  0  0  0  0  0  0  0  0  0  0  0
   -2.6248   -2.9708   -0.0000 C   0  0  0  0  0  0  0  0  0  0  0  0
   -3.9372   -0.7158   -0.0000 O   0  0  0  0  0  0  0  0  0  0  0  0
   -0.0477   -4.4740   -0.0000 N   0  0  0  0  0  0  0  0  0  0  0  0
    1.2527   -2.2072   -0.0000 C   0  0  0  0  0  0  0  0  0  0  0  0
   -3.9372   -2.2191   -0.0000 C   0  0  0  0  0  0  0  0  0  0  0  0
    1.2408   -5.2138   -0.0000 C   0  0  0  0  0  0  0  0  0  0  0  0
    2.5413   -2.9469   -0.0000 C   0  0  0  0  0  0  0  0  0  0  0  0
    1.2289   -6.7051   -0.0000 N   0  0  0  0  0  0  0  0  0  0  0  0
    2.5293   -4.4502   -0.0000 C   0  0  0  0  0  0  0  0  0  0  0  0
    3.9730   -2.4577   -0.0000 C   0  0  0  0  0  0  0  0  0  0  0  0
   -0.0835   -7.4448   -0.0000 C   0  0  0  0  0  0  0  0  0  0  0  0
    3.9730   -4.9036   -0.0000 N   0  0  0  0  0  0  0  0  0  0  0  0
    4.8558   -3.6628   -0.0000 C   0  0  0  0  0  0  0  0  0  0  0  0
    4.4263   -1.0141   -0.0000 C   0  0  0  0  0  0  0  0  0  0  0  0
   -0.0954   -8.9362   -0.0000 C   0  0  0  0  0  0  0  0  0  0  0  0
    4.7127   -6.1921   -0.0000 C   0  0  0  0  0  0  0  0  0  0  0  0
    6.3472   -3.6389   -0.0000 C   0  0  0  0  0  0  0  0  0  0  0  0
    1.1931   -9.6639   -0.0000 C   0  0  0  0  0  0  0  0  0  0  0  0
   -1.4078   -9.6639   -0.0000 C   0  0  0  0  0  0  0  0  0  0  0  0
    3.9491   -7.4806   -0.0000 C   0  0  0  0  0  0  0  0  0  0  0  0
    1.1931  -11.1553   -0.0000 C   0  0  0  0  0  0  0  0  0  0  0  0
    2.4816   -8.8884   -0.0000 C   0  0  0  0  0  0  0  0  0  0  0  0
   -1.4198  -11.1553   -0.0000 C   0  0  0  0  0  0  0  0  0  0  0  0
   -2.7202   -8.9004   -0.0000 C   0  0  0  0  0  0  0  0  0  0  0  0
    4.6888   -8.7691   -0.0000 O   0  0  0  0  0  0  0  0  0  0  0  0
   -0.1312  -11.9069   -0.0000 C   0  0  0  0  0  0  0  0  0  0  0  0
  1  2  2  0  0  0  0
  2  3  1  0  0  0  0
  2  4  1  0  0  0  0
  3  5  1  0  0  0  0
  3  6  1  0  0  0  0
  4  7  1  0  0  0  0
  5  8  2  0  0  0  0
  5  9  1  0  0  0  0
  6 10  1  0  0  0  0
  8 11  1  0  0  0  0
  9 12  2  0  0  0  0
 11 13  1  0  0  0  0
 11 14  2  0  0  0  0
 12 15  1  0  0  0  0
 13 16  1  0  0  0  0
 14 17  1  0  0  0  0
 15 18  2  0  0  0  0
 15 19  1  0  0  0  0
 16 20  1  0  0  0  0
 17 21  1  0  0  0  0
 18 22  1  0  0  0  0
 20 23  2  0  0  0  0
 20 24  1  0  0  0  0
 21 25  1  0  0  0  0
 23 26  1  0  0  0  0
 23 27  1  0  0  0  0
 24 28  2  0  0  0  0
 24 29  1  0  0  0  0
 25 30  1  0  0  0  0
 26 31  2  0  0  0  0
  7 10  1  0  0  0  0
 12 14  1  0  0  0  0
 17 18  1  0  0  0  0
 28 31  1  0  0  0  0
M  END
>  <MolRegNo>
611749

>  <m>
=

>  <Value>
11000

>  <Unit>
nM

>  <Type>
IC50

>  <pValue>
4.96

>  <Ligand Efficiency>
0

>  <Binding Efficiency>
0

>  <Surface Efficiency>
0

>  <Assay Index>
464699

>  <Assay Category>


>  <Assay Organism>


>  <Target ID>
17045

>  <Target Name>
Cytochrome P450 3A4

>  <Target Organism>
Homo sapiens

>  <Target Description>
Target is a single protein chain

>  <Sequence Accession>
P08684

>  <Reference>
Bioorg Med Chem Lett 19 (23), 6813-6817 (2009)

>  <Pubmed ID>
19846298

>  <DOI>
10.1016/j.bmcl.2009.07.002

$$$$
611746
Actelion Java MolfileCreator 1.0

 27 30  0  0  0  0  0  0  0  0999 V2000
    0.0000   -0.0000   -0.0000 O   0  0  0  0  0  0  0  0  0  0  0  0
   -1.1335   -0.9903   -0.0000 C   0  0  0  0  0  0  0  0  0  0  0  0
   -0.9903   -2.4698   -0.0000 N   0  0  0  0  0  0  0  0  0  0  0  0
   -2.6130   -0.6682   -0.0000 N   0  0  0  0  0  0  0  0  0  0  0  0
    0.2983   -3.2096   -0.0000 C   0  0  0  0  0  0  0  0  0  0  0  0
   -2.3744   -3.0664   -0.0000 C   0  0  0  0  0  0  0  0  0  0  0  0
   -3.3766   -1.9568   -0.0000 C   0  0  0  0  0  0  0  0  0  0  0  0
    0.2864   -4.7129   -0.0000 N   0  0  0  0  0  0  0  0  0  0  0  0
    1.5869   -2.4460   -0.0000 C   0  0  0  0  0  0  0  0  0  0  0  0
    1.5750   -5.4527   -0.0000 C   0  0  0  0  0  0  0  0  0  0  0  0
    2.8755   -3.1857   -0.0000 C   0  0  0  0  0  0  0  0  0  0  0  0
    1.5630   -6.9441   -0.0000 N   0  0  0  0  0  0  0  0  0  0  0  0
    2.8636   -4.6891   -0.0000 C   0  0  0  0  0  0  0  0  0  0  0  0
    4.3073   -2.6965   -0.0000 C   0  0  0  0  0  0  0  0  0  0  0  0
    0.2506   -7.6839   -0.0000 C   0  0  0  0  0  0  0  0  0  0  0  0
    4.2953   -5.1425   -0.0000 N   0  0  0  0  0  0  0  0  0  0  0  0
    5.1902   -3.9016   -0.0000 C   0  0  0  0  0  0  0  0  0  0  0  0
    4.7607   -1.2528   -0.0000 C   0  0  0  0  0  0  0  0  0  0  0  0
    0.2386   -9.1753   -0.0000 C   0  0  0  0  0  0  0  0  0  0  0  0
    6.6816   -3.8777   -0.0000 C   0  0  0  0  0  0  0  0  0  0  0  0
    1.5272   -9.9032   -0.0000 C   0  0  0  0  0  0  0  0  0  0  0  0
   -1.0738   -9.9032   -0.0000 C   0  0  0  0  0  0  0  0  0  0  0  0
    1.5272  -11.3946   -0.0000 C   0  0  0  0  0  0  0  0  0  0  0  0
    2.8158   -9.1276   -0.0000 C   0  0  0  0  0  0  0  0  0  0  0  0
   -1.0858  -11.3946   -0.0000 C   0  0  0  0  0  0  0  0  0  0  0  0
   -2.3863   -9.1395   -0.0000 C   0  0  0  0  0  0  0  0  0  0  0  0
    0.2028  -12.1463   -0.0000 C   0  0  0  0  0  0  0  0  0  0  0  0
  1  2  2  0  0  0  0
  2  3  1  0  0  0  0
  2  4  1  0  0  0  0
  3  5  1  0  0  0  0
  3  6  1  0  0  0  0
  4  7  1  0  0  0  0
  5  8  2  0  0  0  0
  5  9  1  0  0  0  0
  8 10  1  0  0  0  0
  9 11  2  0  0  0  0
 10 12  1  0  0  0  0
 10 13  2  0  0  0  0
 11 14  1  0  0  0  0
 12 15  1  0  0  0  0
 13 16  1  0  0  0  0
 14 17  2  0  0  0  0
 14 18  1  0  0  0  0
 15 19  1  0  0  0  0
 17 20  1  0  0  0  0
 19 21  2  0  0  0  0
 19 22  1  0  0  0  0
 21 23  1  0  0  0  0
 21 24  1  0  0  0  0
 22 25  2  0  0  0  0
 22 26  1  0  0  0  0
 23 27  2  0  0  0  0
  6  7  1  0  0  0  0
 11 13  1  0  0  0  0
 16 17  1  0  0  0  0
 25 27  1  0  0  0  0
M  END
>  <MolRegNo>
611746

>  <m>
=

>  <Value>
1600

>  <Unit>
nM

>  <Type>
IC50

>  <pValue>
5.8

>  <Ligand Efficiency>
0

>  <Binding Efficiency>
0

>  <Surface Efficiency>
0

>  <Assay Index>
464699

>  <Assay Category>


>  <Assay Organism>


>  <Target ID>
17045

>  <Target Name>
Cytochrome P450 3A4

>  <Target Organism>
Homo sapiens

>  <Target Description>
Target is a single protein chain

>  <Sequence Accession>
P08684

>  <Reference>
Bioorg Med Chem Lett 19 (23), 6813-6817 (2009)

>  <Pubmed ID>
19846298

>  <DOI>
10.1016/j.bmcl.2009.07.002

$$$$
611678
Actelion Java MolfileCreator 1.0

 28 31  0  0  0  0  0  0  0  0999 V2000
    0.0000   -0.0000   -0.0000 O   0  0  0  0  0  0  0  0  0  0  0  0
    1.2893    0.7640   -0.0000 C   0  0  0  0  0  0  0  0  0  0  0  0
    2.5786    0.0358   -0.0000 N   0  0  0  0  0  0  0  0  0  0  0  0
    1.2773    2.2921   -0.0000 C   0  0  0  0  0  0  0  0  0  0  0  0
    3.8559    0.7998   -0.0000 C   0  0  0  0  0  0  0  0  0  0  0  0
    2.5666    3.0561   -0.0000 C   0  0  0  0  0  0  0  0  0  0  0  0
    5.1452    0.0597   -0.0000 C   0  0  0  0  0  0  0  0  0  0  0  0
    3.8440    2.3159   -0.0000 C   0  0  0  0  0  0  0  0  0  0  0  0
    5.1333   -1.4445   -0.0000 N   0  0  0  0  0  0  0  0  0  0  0  0
    6.4345    0.8237   -0.0000 C   0  0  0  0  0  0  0  0  0  0  0  0
    6.4226   -2.1846   -0.0000 C   0  0  0  0  0  0  0  0  0  0  0  0
    7.7238    0.0836   -0.0000 C   0  0  0  0  0  0  0  0  0  0  0  0
    6.4106   -3.6769   -0.0000 N   0  0  0  0  0  0  0  0  0  0  0  0
    7.7118   -1.4206   -0.0000 C   0  0  0  0  0  0  0  0  0  0  0  0
    9.1563    0.5730   -0.0000 C   0  0  0  0  0  0  0  0  0  0  0  0
    5.0975   -4.4170   -0.0000 C   0  0  0  0  0  0  0  0  0  0  0  0
    9.1444   -1.8742   -0.0000 N   0  0  0  0  0  0  0  0  0  0  0  0
   10.0397   -0.6327   -0.0000 C   0  0  0  0  0  0  0  0  0  0  0  0
    9.6100    2.0175   -0.0000 C   0  0  0  0  0  0  0  0  0  0  0  0
    5.0855   -5.9092   -0.0000 C   0  0  0  0  0  0  0  0  0  0  0  0
   11.5319   -0.6088   -0.0000 C   0  0  0  0  0  0  0  0  0  0  0  0
    6.3748   -6.6374   -0.0000 C   0  0  0  0  0  0  0  0  0  0  0  0
    3.7724   -6.6374   -0.0000 C   0  0  0  0  0  0  0  0  0  0  0  0
    6.3748   -8.1297   -0.0000 C   0  0  0  0  0  0  0  0  0  0  0  0
    7.6641   -5.8615   -0.0000 C   0  0  0  0  0  0  0  0  0  0  0  0
    3.7604   -8.1297   -0.0000 C   0  0  0  0  0  0  0  0  0  0  0  0
    2.4592   -5.8734   -0.0000 C   0  0  0  0  0  0  0  0  0  0  0  0
    5.0497   -8.8817   -0.0000 C   0  0  0  0  0  0  0  0  0  0  0  0
  1  2  2  0  0  0  0
  2  3  1  0  0  0  0
  2  4  1  0  0  0  0
  3  5  1  0  0  0  0
  4  6  2  0  0  0  0
  5  7  1  0  0  0  0
  5  8  2  0  0  0  0
  7  9  2  0  0  0  0
  7 10  1  0  0  0  0
  9 11  1  0  0  0  0
 10 12  2  0  0  0  0
 11 13  1  0  0  0  0
 11 14  2  0  0  0  0
 12 15  1  0  0  0  0
 13 16  1  0  0  0  0
 14 17  1  0  0  0  0
 15 18  2  0  0  0  0
 15 19  1  0  0  0  0
 16 20  1  0  0  0  0
 18 21  1  0  0  0  0
 20 22  2  0  0  0  0
 20 23  1  0  0  0  0
 22 24  1  0  0  0  0
 22 25  1  0  0  0  0
 23 26  2  0  0  0  0
 23 27  1  0  0  0  0
 24 28  2  0  0  0  0
  6  8  1  0  0  0  0
 12 14  1  0  0  0  0
 17 18  1  0  0  0  0
 26 28  1  0  0  0  0
M  END
>  <MolRegNo>
611678

>  <m>
=

>  <Value>
2200

>  <Unit>
nM

>  <Type>
IC50

>  <pValue>
5.66

>  <Ligand Efficiency>
0

>  <Binding Efficiency>
0

>  <Surface Efficiency>
0

>  <Assay Index>
464699

>  <Assay Category>


>  <Assay Organism>


>  <Target ID>
17045

>  <Target Name>
Cytochrome P450 3A4

>  <Target Organism>
Homo sapiens

>  <Target Description>
Target is a single protein chain

>  <Sequence Accession>
P08684

>  <Reference>
Bioorg Med Chem Lett 19 (23), 6813-6817 (2009)

>  <Pubmed ID>
19846298

>  <DOI>
10.1016/j.bmcl.2009.07.002

$$$$
611677
Actelion Java MolfileCreator 1.0

 28 31  0  0  0  0  0  0  0  0999 V2000
    0.0000   -0.0000   -0.0000 O   0  0  0  0  0  0  0  0  0  0  0  0
   -1.3116   -0.7393   -0.0000 C   0  0  0  0  0  0  0  0  0  0  0  0
   -1.3236   -2.2298   -0.0000 N   0  0  0  0  0  0  0  0  0  0  0  0
   -2.6233    0.0238   -0.0000 C   0  0  0  0  0  0  0  0  0  0  0  0
   -0.0358   -2.9691   -0.0000 C   0  0  0  0  0  0  0  0  0  0  0  0
   -2.6233   -2.9691   -0.0000 C   0  0  0  0  0  0  0  0  0  0  0  0
   -3.9349   -0.7154   -0.0000 O   0  0  0  0  0  0  0  0  0  0  0  0
   -0.0477   -4.4715   -0.0000 N   0  0  0  0  0  0  0  0  0  0  0  0
    1.2520   -2.2059   -0.0000 C   0  0  0  0  0  0  0  0  0  0  0  0
   -3.9349   -2.2179   -0.0000 C   0  0  0  0  0  0  0  0  0  0  0  0
    1.2401   -5.2108   -0.0000 C   0  0  0  0  0  0  0  0  0  0  0  0
    2.5398   -2.9452   -0.0000 C   0  0  0  0  0  0  0  0  0  0  0  0
    1.2282   -6.7013   -0.0000 N   0  0  0  0  0  0  0  0  0  0  0  0
    2.5279   -4.4477   -0.0000 C   0  0  0  0  0  0  0  0  0  0  0  0
    3.9707   -2.4564   -0.0000 C   0  0  0  0  0  0  0  0  0  0  0  0
   -0.0835   -7.4406   -0.0000 C   0  0  0  0  0  0  0  0  0  0  0  0
    3.9588   -4.9008   -0.0000 N   0  0  0  0  0  0  0  0  0  0  0  0
    4.8531   -3.6607   -0.0000 C   0  0  0  0  0  0  0  0  0  0  0  0
    4.4238   -1.0135   -0.0000 C   0  0  0  0  0  0  0  0  0  0  0  0
   -0.0954   -8.9311   -0.0000 C   0  0  0  0  0  0  0  0  0  0  0  0
    6.3436   -3.6368   -0.0000 C   0  0  0  0  0  0  0  0  0  0  0  0
    1.1924   -9.6585   -0.0000 C   0  0  0  0  0  0  0  0  0  0  0  0
   -1.4070   -9.6585   -0.0000 C   0  0  0  0  0  0  0  0  0  0  0  0
    1.1924  -11.1490   -0.0000 C   0  0  0  0  0  0  0  0  0  0  0  0
    2.4802   -8.8834   -0.0000 C   0  0  0  0  0  0  0  0  0  0  0  0
   -1.4190  -11.1490   -0.0000 C   0  0  0  0  0  0  0  0  0  0  0  0
   -2.7187   -8.8953   -0.0000 C   0  0  0  0  0  0  0  0  0  0  0  0
   -0.1312  -11.9002   -0.0000 C   0  0  0  0  0  0  0  0  0  0  0  0
  1  2  2  0  0  0  0
  2  3  1  0  0  0  0
  2  4  1  0  0  0  0
  3  5  1  0  0  0  0
  3  6  1  0  0  0  0
  4  7  1  0  0  0  0
  5  8  2  0  0  0  0
  5  9  1  0  0  0  0
  6 10  1  0  0  0  0
  8 11  1  0  0  0  0
  9 12  2  0  0  0  0
 11 13  1  0  0  0  0
 11 14  2  0  0  0  0
 12 15  1  0  0  0  0
 13 16  1  0  0  0  0
 14 17  1  0  0  0  0
 15 18  2  0  0  0  0
 15 19  1  0  0  0  0
 16 20  1  0  0  0  0
 18 21  1  0  0  0  0
 20 22  2  0  0  0  0
 20 23  1  0  0  0  0
 22 24  1  0  0  0  0
 22 25  1  0  0  0  0
 23 26  2  0  0  0  0
 23 27  1  0  0  0  0
 24 28  2  0  0  0  0
  7 10  1  0  0  0  0
 12 14  1  0  0  0  0
 17 18  1  0  0  0  0
 26 28  1  0  0  0  0
M  END
>  <MolRegNo>
611677

>  <m>
=

>  <Value>
22000

>  <Unit>
nM

>  <Type>
IC50

>  <pValue>
4.66

>  <Ligand Efficiency>
0

>  <Binding Efficiency>
0

>  <Surface Efficiency>
0

>  <Assay Index>
464699

>  <Assay Category>


>  <Assay Organism>


>  <Target ID>
17045

>  <Target Name>
Cytochrome P450 3A4

>  <Target Organism>
Homo sapiens

>  <Target Description>
Target is a single protein chain

>  <Sequence Accession>
P08684

>  <Reference>
Bioorg Med Chem Lett 19 (23), 6813-6817 (2009)

>  <Pubmed ID>
19846298

>  <DOI>
10.1016/j.bmcl.2009.07.002

$$$$
611676
Actelion Java MolfileCreator 1.0

 27 30  0  0  0  0  0  0  0  0999 V2000
    0.0000   -0.0000   -0.0000 O   0  0  0  0  0  0  0  0  0  0  0  0
   -1.1335   -0.9903   -0.0000 C   0  0  0  0  0  0  0  0  0  0  0  0
   -0.9903   -2.4698   -0.0000 N   0  0  0  0  0  0  0  0  0  0  0  0
   -2.6130   -0.6682   -0.0000 C   0  0  0  0  0  0  0  0  0  0  0  0
    0.2983   -3.2096   -0.0000 C   0  0  0  0  0  0  0  0  0  0  0  0
   -2.3744   -3.0664   -0.0000 C   0  0  0  0  0  0  0  0  0  0  0  0
   -3.3766   -1.9568   -0.0000 C   0  0  0  0  0  0  0  0  0  0  0  0
    0.2864   -4.7129   -0.0000 N   0  0  0  0  0  0  0  0  0  0  0  0
    1.5869   -2.4460   -0.0000 C   0  0  0  0  0  0  0  0  0  0  0  0
    1.5750   -5.4527   -0.0000 C   0  0  0  0  0  0  0  0  0  0  0  0
    2.8755   -3.1857   -0.0000 C   0  0  0  0  0  0  0  0  0  0  0  0
    1.5630   -6.9441   -0.0000 N   0  0  0  0  0  0  0  0  0  0  0  0
    2.8636   -4.6891   -0.0000 C   0  0  0  0  0  0  0  0  0  0  0  0
    4.3073   -2.6965   -0.0000 C   0  0  0  0  0  0  0  0  0  0  0  0
    0.2506   -7.6839   -0.0000 C   0  0  0  0  0  0  0  0  0  0  0  0
    4.2953   -5.1425   -0.0000 N   0  0  0  0  0  0  0  0  0  0  0  0
    5.1902   -3.9016   -0.0000 C   0  0  0  0  0  0  0  0  0  0  0  0
    4.7607   -1.2528   -0.0000 C   0  0  0  0  0  0  0  0  0  0  0  0
    0.2386   -9.1753   -0.0000 C   0  0  0  0  0  0  0  0  0  0  0  0
    6.6816   -3.8777   -0.0000 C   0  0  0  0  0  0  0  0  0  0  0  0
    1.5272   -9.9032   -0.0000 C   0  0  0  0  0  0  0  0  0  0  0  0
   -1.0738   -9.9032   -0.0000 C   0  0  0  0  0  0  0  0  0  0  0  0
    1.5272  -11.3946   -0.0000 C   0  0  0  0  0  0  0  0  0  0  0  0
    2.8158   -9.1276   -0.0000 C   0  0  0  0  0  0  0  0  0  0  0  0
   -1.0858  -11.3946   -0.0000 C   0  0  0  0  0  0  0  0  0  0  0  0
   -2.3863   -9.1395   -0.0000 C   0  0  0  0  0  0  0  0  0  0  0  0
    0.2028  -12.1463   -0.0000 C   0  0  0  0  0  0  0  0  0  0  0  0
  1  2  2  0  0  0  0
  2  3  1  0  0  0  0
  2  4  1  0  0  0  0
  3  5  1  0  0  0  0
  3  6  1  0  0  0  0
  4  7  1  0  0  0  0
  5  8  2  0  0  0  0
  5  9  1  0  0  0  0
  8 10  1  0  0  0  0
  9 11  2  0  0  0  0
 10 12  1  0  0  0  0
 10 13  2  0  0  0  0
 11 14  1  0  0  0  0
 12 15  1  0  0  0  0
 13 16  1  0  0  0  0
 14 17  2  0  0  0  0
 14 18  1  0  0  0  0
 15 19  1  0  0  0  0
 17 20  1  0  0  0  0
 19 21  2  0  0  0  0
 19 22  1  0  0  0  0
 21 23  1  0  0  0  0
 21 24  1  0  0  0  0
 22 25  2  0  0  0  0
 22 26  1  0  0  0  0
 23 27  2  0  0  0  0
  6  7  1  0  0  0  0
 11 13  1  0  0  0  0
 16 17  1  0  0  0  0
 25 27  1  0  0  0  0
M  END
>  <MolRegNo>
611676

>  <m>
=

>  <Value>
1800

>  <Unit>
nM

>  <Type>
IC50

>  <pValue>
5.75

>  <Ligand Efficiency>
0

>  <Binding Efficiency>
0

>  <Surface Efficiency>
0

>  <Assay Index>
464699

>  <Assay Category>


>  <Assay Organism>


>  <Target ID>
17045

>  <Target Name>
Cytochrome P450 3A4

>  <Target Organism>
Homo sapiens

>  <Target Description>
Target is a single protein chain

>  <Sequence Accession>
P08684

>  <Reference>
Bioorg Med Chem Lett 19 (23), 6813-6817 (2009)

>  <Pubmed ID>
19846298

>  <DOI>
10.1016/j.bmcl.2009.07.002

$$$$
611675
Actelion Java MolfileCreator 1.0

 27 30  0  0  0  0  0  0  0  0999 V2000
    0.0000   -0.0000   -0.0000 N   0  0  0  0  0  0  0  0  0  0  0  0
    1.2856   -0.7262   -0.0000 C   0  0  0  0  0  0  0  0  0  0  0  0
   -0.0119    1.5237   -0.0000 C   0  0  0  0  0  0  0  0  0  0  0  0
    1.2737   -2.2142   -0.0000 N   0  0  0  0  0  0  0  0  0  0  0  0
    2.5713    0.0357   -0.0000 C   0  0  0  0  0  0  0  0  0  0  0  0
   -1.3214    2.2856   -0.0000 C   0  0  0  0  0  0  0  0  0  0  0  0
    1.2737    2.2856   -0.0000 C   0  0  0  0  0  0  0  0  0  0  0  0
   -0.0357   -2.9522   -0.0000 C   0  0  0  0  0  0  0  0  0  0  0  0
    3.9998   -0.4166   -0.0000 N   0  0  0  0  0  0  0  0  0  0  0  0
    2.5594    1.5594   -0.0000 C   0  0  0  0  0  0  0  0  0  0  0  0
   -1.3333    3.7974   -0.0000 C   0  0  0  0  0  0  0  0  0  0  0  0
   -2.6189    1.5475   -0.0000 C   0  0  0  0  0  0  0  0  0  0  0  0
   -0.0476   -4.4403   -0.0000 C   0  0  0  0  0  0  0  0  0  0  0  0
    4.8688    0.8214   -0.0000 C   0  0  0  0  0  0  0  0  0  0  0  0
    3.9879    2.0356   -0.0000 C   0  0  0  0  0  0  0  0  0  0  0  0
   -2.6427    4.5593   -0.0000 C   0  0  0  0  0  0  0  0  0  0  0  0
   -3.9284    2.2975   -0.0000 C   0  0  0  0  0  0  0  0  0  0  0  0
    1.2380   -5.1664   -0.0000 C   0  0  0  0  0  0  0  0  0  0  0  0
   -1.3571   -5.1664   -0.0000 C   0  0  0  0  0  0  0  0  0  0  0  0
    6.3568    0.8452   -0.0000 C   0  0  0  0  0  0  0  0  0  0  0  0
    4.4283    3.4760   -0.0000 C   0  0  0  0  0  0  0  0  0  0  0  0
   -3.9522    3.8212   -0.0000 C   0  0  0  0  0  0  0  0  0  0  0  0
    1.2380   -6.6425   -0.0000 C   0  0  0  0  0  0  0  0  0  0  0  0
    2.5237   -4.4045   -0.0000 C   0  0  0  0  0  0  0  0  0  0  0  0
   -1.3690   -6.6544   -0.0000 C   0  0  0  0  0  0  0  0  0  0  0  0
   -2.6665   -4.4045   -0.0000 C   0  0  0  0  0  0  0  0  0  0  0  0
   -0.0714   -7.3925   -0.0000 C   0  0  0  0  0  0  0  0  0  0  0  0
  1  2  2  0  0  0  0
  1  3  1  0  0  0  0
  2  4  1  0  0  0  0
  2  5  1  0  0  0  0
  3  6  1  0  0  0  0
  3  7  2  0  0  0  0
  4  8  1  0  0  0  0
  5  9  1  0  0  0  0
  5 10  2  0  0  0  0
  6 11  2  0  0  0  0
  6 12  1  0  0  0  0
  8 13  1  0  0  0  0
  9 14  1  0  0  0  0
 10 15  1  0  0  0  0
 11 16  1  0  0  0  0
 12 17  2  0  0  0  0
 13 18  2  0  0  0  0
 13 19  1  0  0  0  0
 14 20  1  0  0  0  0
 15 21  1  0  0  0  0
 16 22  2  0  0  0  0
 18 23  1  0  0  0  0
 18 24  1  0  0  0  0
 19 25  2  0  0  0  0
 19 26  1  0  0  0  0
 23 27  2  0  0  0  0
  7 10  1  0  0  0  0
 14 15  2  0  0  0  0
 17 22  1  0  0  0  0
 25 27  1  0  0  0  0
M  END
>  <MolRegNo>
611675

>  <m>
=

>  <Value>
6600

>  <Unit>
nM

>  <Type>
IC50

>  <pValue>
5.18

>  <Ligand Efficiency>
0

>  <Binding Efficiency>
0

>  <Surface Efficiency>
0

>  <Assay Index>
464699

>  <Assay Category>


>  <Assay Organism>


>  <Target ID>
17045

>  <Target Name>
Cytochrome P450 3A4

>  <Target Organism>
Homo sapiens

>  <Target Description>
Target is a single protein chain

>  <Sequence Accession>
P08684

>  <Reference>
Bioorg Med Chem Lett 19 (23), 6813-6817 (2009)

>  <Pubmed ID>
19846298

>  <DOI>
10.1016/j.bmcl.2009.07.002

$$$$
611674
Actelion Java MolfileCreator 1.0

 28 31  0  0  0  0  0  0  0  0999 V2000
    0.0000   -0.0000   -0.0000 O   0  0  0  0  0  0  0  0  0  0  0  0
   -1.3116   -0.7393   -0.0000 C   0  0  0  0  0  0  0  0  0  0  0  0
   -1.3236   -2.2298   -0.0000 N   0  0  0  0  0  0  0  0  0  0  0  0
   -2.6233    0.0238   -0.0000 C   0  0  0  0  0  0  0  0  0  0  0  0
   -0.0358   -2.9691   -0.0000 C   0  0  0  0  0  0  0  0  0  0  0  0
   -2.6233   -2.9691   -0.0000 C   0  0  0  0  0  0  0  0  0  0  0  0
   -3.9349   -0.7154   -0.0000 C   0  0  0  0  0  0  0  0  0  0  0  0
   -0.0477   -4.4715   -0.0000 N   0  0  0  0  0  0  0  0  0  0  0  0
    1.2520   -2.2059   -0.0000 C   0  0  0  0  0  0  0  0  0  0  0  0
   -3.9349   -2.2179   -0.0000 C   0  0  0  0  0  0  0  0  0  0  0  0
    1.2401   -5.2108   -0.0000 C   0  0  0  0  0  0  0  0  0  0  0  0
    2.5398   -2.9452   -0.0000 C   0  0  0  0  0  0  0  0  0  0  0  0
    1.2282   -6.7013   -0.0000 N   0  0  0  0  0  0  0  0  0  0  0  0
    2.5279   -4.4477   -0.0000 C   0  0  0  0  0  0  0  0  0  0  0  0
    3.9707   -2.4564   -0.0000 C   0  0  0  0  0  0  0  0  0  0  0  0
   -0.0835   -7.4406   -0.0000 C   0  0  0  0  0  0  0  0  0  0  0  0
    3.9588   -4.9008   -0.0000 N   0  0  0  0  0  0  0  0  0  0  0  0
    4.8531   -3.6607   -0.0000 C   0  0  0  0  0  0  0  0  0  0  0  0
    4.4238   -1.0135   -0.0000 C   0  0  0  0  0  0  0  0  0  0  0  0
   -0.0954   -8.9311   -0.0000 C   0  0  0  0  0  0  0  0  0  0  0  0
    6.3436   -3.6368   -0.0000 C   0  0  0  0  0  0  0  0  0  0  0  0
    1.1924   -9.6585   -0.0000 C   0  0  0  0  0  0  0  0  0  0  0  0
   -1.4070   -9.6585   -0.0000 C   0  0  0  0  0  0  0  0  0  0  0  0
    1.1924  -11.1490   -0.0000 C   0  0  0  0  0  0  0  0  0  0  0  0
    2.4802   -8.8834   -0.0000 C   0  0  0  0  0  0  0  0  0  0  0  0
   -1.4190  -11.1490   -0.0000 C   0  0  0  0  0  0  0  0  0  0  0  0
   -2.7187   -8.8953   -0.0000 C   0  0  0  0  0  0  0  0  0  0  0  0
   -0.1312  -11.9002   -0.0000 C   0  0  0  0  0  0  0  0  0  0  0  0
  1  2  2  0  0  0  0
  2  3  1  0  0  0  0
  2  4  1  0  0  0  0
  3  5  1  0  0  0  0
  3  6  1  0  0  0  0
  4  7  2  0  0  0  0
  5  8  2  0  0  0  0
  5  9  1  0  0  0  0
  6 10  2  0  0  0  0
  8 11  1  0  0  0  0
  9 12  2  0  0  0  0
 11 13  1  0  0  0  0
 11 14  2  0  0  0  0
 12 15  1  0  0  0  0
 13 16  1  0  0  0  0
 14 17  1  0  0  0  0
 15 18  2  0  0  0  0
 15 19  1  0  0  0  0
 16 20  1  0  0  0  0
 18 21  1  0  0  0  0
 20 22  2  0  0  0  0
 20 23  1  0  0  0  0
 22 24  1  0  0  0  0
 22 25  1  0  0  0  0
 23 26  2  0  0  0  0
 23 27  1  0  0  0  0
 24 28  2  0  0  0  0
  7 10  1  0  0  0  0
 12 14  1  0  0  0  0
 17 18  1  0  0  0  0
 26 28  1  0  0  0  0
M  END
>  <MolRegNo>
611674

>  <m>
=

>  <Value>
90000

>  <Unit>
nM

>  <Type>
IC50

>  <pValue>
4.05

>  <Ligand Efficiency>
0

>  <Binding Efficiency>
0

>  <Surface Efficiency>
0

>  <Assay Index>
464699

>  <Assay Category>


>  <Assay Organism>


>  <Target ID>
17045

>  <Target Name>
Cytochrome P450 3A4

>  <Target Organism>
Homo sapiens

>  <Target Description>
Target is a single protein chain

>  <Sequence Accession>
P08684

>  <Reference>
Bioorg Med Chem Lett 19 (23), 6813-6817 (2009)

>  <Pubmed ID>
19846298

>  <DOI>
10.1016/j.bmcl.2009.07.002

$$$$
611817
Actelion Java MolfileCreator 1.0

 31 34  0  0  0  0  0  0  0  0999 V2000
    0.0000   -0.0000   -0.0000 O   0  0  0  0  0  0  0  0  0  0  0  0
   -1.3125   -0.7398   -0.0000 C   0  0  0  0  0  0  0  0  0  0  0  0
   -1.3244   -2.2313   -0.0000 N   0  0  0  0  0  0  0  0  0  0  0  0
   -2.6250    0.0239   -0.0000 C   0  0  0  0  0  0  0  0  0  0  0  0
   -0.0358   -2.9710   -0.0000 C   0  0  0  0  0  0  0  0  0  0  0  0
   -2.6250   -2.9710   -0.0000 C   0  0  0  0  0  0  0  0  0  0  0  0
   -3.9375   -0.7159   -0.0000 C   0  0  0  0  0  0  0  0  0  0  0  0
   -0.0477   -4.4744   -0.0000 N   0  0  0  0  0  0  0  0  0  0  0  0
    1.2528   -2.2074   -0.0000 C   0  0  0  0  0  0  0  0  0  0  0  0
   -3.9375   -2.2193   -0.0000 C   0  0  0  0  0  0  0  0  0  0  0  0
    1.2409   -5.2142   -0.0000 C   0  0  0  0  0  0  0  0  0  0  0  0
    2.5415   -2.9472   -0.0000 C   0  0  0  0  0  0  0  0  0  0  0  0
    1.2290   -6.7057   -0.0000 N   0  0  0  0  0  0  0  0  0  0  0  0
    2.5295   -4.4506   -0.0000 C   0  0  0  0  0  0  0  0  0  0  0  0
    3.9733   -2.4580   -0.0000 C   0  0  0  0  0  0  0  0  0  0  0  0
   -0.0835   -7.4455   -0.0000 C   0  0  0  0  0  0  0  0  0  0  0  0
    3.9614   -4.9040   -0.0000 N   0  0  0  0  0  0  0  0  0  0  0  0
    4.8563   -3.6631   -0.0000 C   0  0  0  0  0  0  0  0  0  0  0  0
    4.4267   -1.0142   -0.0000 C   0  0  0  0  0  0  0  0  0  0  0  0
   -0.0955   -8.9369   -0.0000 C   0  0  0  0  0  0  0  0  0  0  0  0
    4.7011   -6.1926   -0.0000 C   0  0  0  0  0  0  0  0  0  0  0  0
    6.3477   -3.6392   -0.0000 C   0  0  0  0  0  0  0  0  0  0  0  0
    1.1932   -9.6648   -0.0000 C   0  0  0  0  0  0  0  0  0  0  0  0
   -1.4080   -9.6648   -0.0000 C   0  0  0  0  0  0  0  0  0  0  0  0
    3.9375   -7.4813   -0.0000 C   0  0  0  0  0  0  0  0  0  0  0  0
    1.1932  -11.1563   -0.0000 C   0  0  0  0  0  0  0  0  0  0  0  0
    2.4818   -8.8892   -0.0000 C   0  0  0  0  0  0  0  0  0  0  0  0
   -1.4199  -11.1563   -0.0000 C   0  0  0  0  0  0  0  0  0  0  0  0
   -2.7205   -8.9011   -0.0000 C   0  0  0  0  0  0  0  0  0  0  0  0
    4.6773   -8.7699   -0.0000 C   0  0  0  0  0  0  0  0  0  0  0  0
   -0.1313  -11.9080   -0.0000 C   0  0  0  0  0  0  0  0  0  0  0  0
  1  2  2  0  0  0  0
  2  3  1  0  0  0  0
  2  4  1  0  0  0  0
  3  5  1  0  0  0  0
  3  6  1  0  0  0  0
  4  7  2  0  0  0  0
  5  8  2  0  0  0  0
  5  9  1  0  0  0  0
  6 10  2  0  0  0  0
  8 11  1  0  0  0  0
  9 12  2  0  0  0  0
 11 13  1  0  0  0  0
 11 14  2  0  0  0  0
 12 15  1  0  0  0  0
 13 16  1  0  0  0  0
 14 17  1  0  0  0  0
 15 18  2  0  0  0  0
 15 19  1  0  0  0  0
 16 20  1  0  0  0  0
 17 21  1  0  0  0  0
 18 22  1  0  0  0  0
 20 23  2  0  0  0  0
 20 24  1  0  0  0  0
 21 25  1  0  0  0  0
 23 26  1  0  0  0  0
 23 27  1  0  0  0  0
 24 28  2  0  0  0  0
 24 29  1  0  0  0  0
 25 30  2  0  0  0  0
 26 31  2  0  0  0  0
  7 10  1  0  0  0  0
 12 14  1  0  0  0  0
 17 18  1  0  0  0  0
 28 31  1  0  0  0  0
M  END
>  <MolRegNo>
611817

>  <m>
=

>  <Value>
2400

>  <Unit>
nM

>  <Type>
IC50

>  <pValue>
5.62

>  <Ligand Efficiency>
0

>  <Binding Efficiency>
0

>  <Surface Efficiency>
0

>  <Assay Index>
464698

>  <Assay Category>


>  <Assay Organism>


>  <Target ID>
17045

>  <Target Name>
Cytochrome P450 3A4

>  <Target Organism>
Homo sapiens

>  <Target Description>
Target is a single protein chain

>  <Sequence Accession>
P08684

>  <Reference>
Bioorg Med Chem Lett 19 (23), 6813-6817 (2009)

>  <Pubmed ID>
19846298

>  <DOI>
10.1016/j.bmcl.2009.07.002

$$$$
611748
Actelion Java MolfileCreator 1.0

 31 34  0  0  0  0  0  0  0  0999 V2000
    0.0000   -0.0000   -0.0000 O   0  0  0  0  0  0  0  0  0  0  0  0
   -1.3119   -0.7395   -0.0000 C   0  0  0  0  0  0  0  0  0  0  0  0
   -1.3239   -2.2303   -0.0000 N   0  0  0  0  0  0  0  0  0  0  0  0
   -2.6239    0.0239   -0.0000 C   0  0  0  0  0  0  0  0  0  0  0  0
   -0.0358   -2.9697   -0.0000 C   0  0  0  0  0  0  0  0  0  0  0  0
   -2.6239   -2.9697   -0.0000 C   0  0  0  0  0  0  0  0  0  0  0  0
   -3.9358   -0.7156   -0.0000 C   0  0  0  0  0  0  0  0  0  0  0  0
   -0.0477   -4.4725   -0.0000 N   0  0  0  0  0  0  0  0  0  0  0  0
    1.2523   -2.2064   -0.0000 C   0  0  0  0  0  0  0  0  0  0  0  0
   -3.9358   -2.2184   -0.0000 C   0  0  0  0  0  0  0  0  0  0  0  0
    1.2404   -5.2120   -0.0000 C   0  0  0  0  0  0  0  0  0  0  0  0
    2.5404   -2.9459   -0.0000 C   0  0  0  0  0  0  0  0  0  0  0  0
    1.2284   -6.7028   -0.0000 N   0  0  0  0  0  0  0  0  0  0  0  0
    2.5285   -4.4486   -0.0000 C   0  0  0  0  0  0  0  0  0  0  0  0
    3.9716   -2.4569   -0.0000 C   0  0  0  0  0  0  0  0  0  0  0  0
   -0.0835   -7.4422   -0.0000 C   0  0  0  0  0  0  0  0  0  0  0  0
    3.9597   -4.9019   -0.0000 N   0  0  0  0  0  0  0  0  0  0  0  0
    4.8542   -3.6615   -0.0000 C   0  0  0  0  0  0  0  0  0  0  0  0
    4.4248   -1.0138   -0.0000 C   0  0  0  0  0  0  0  0  0  0  0  0
   -0.0954   -8.9331   -0.0000 C   0  0  0  0  0  0  0  0  0  0  0  0
    4.4248   -6.3211   -0.0000 C   0  0  0  0  0  0  0  0  0  0  0  0
    6.3450   -3.6376   -0.0000 C   0  0  0  0  0  0  0  0  0  0  0  0
    1.1927   -9.6606   -0.0000 C   0  0  0  0  0  0  0  0  0  0  0  0
   -1.4073   -9.6606   -0.0000 C   0  0  0  0  0  0  0  0  0  0  0  0
    3.4110   -7.4303   -0.0000 C   0  0  0  0  0  0  0  0  0  0  0  0
    1.1927  -11.1514   -0.0000 C   0  0  0  0  0  0  0  0  0  0  0  0
    2.4807   -8.8854   -0.0000 C   0  0  0  0  0  0  0  0  0  0  0  0
   -1.4193  -11.1514   -0.0000 C   0  0  0  0  0  0  0  0  0  0  0  0
   -2.7193   -8.8973   -0.0000 C   0  0  0  0  0  0  0  0  0  0  0  0
    3.8762   -8.8496   -0.0000 O   0  0  0  0  0  0  0  0  0  0  0  0
   -0.1312  -11.9028   -0.0000 C   0  0  0  0  0  0  0  0  0  0  0  0
  1  2  2  0  0  0  0
  2  3  1  0  0  0  0
  2  4  1  0  0  0  0
  3  5  1  0  0  0  0
  3  6  1  0  0  0  0
  4  7  2  0  0  0  0
  5  8  2  0  0  0  0
  5  9  1  0  0  0  0
  6 10  2  0  0  0  0
  8 11  1  0  0  0  0
  9 12  2  0  0  0  0
 11 13  1  0  0  0  0
 11 14  2  0  0  0  0
 12 15  1  0  0  0  0
 13 16  1  0  0  0  0
 14 17  1  0  0  0  0
 15 18  2  0  0  0  0
 15 19  1  0  0  0  0
 16 20  1  0  0  0  0
 17 21  1  0  0  0  0
 18 22  1  0  0  0  0
 20 23  2  0  0  0  0
 20 24  1  0  0  0  0
 21 25  1  0  0  0  0
 23 26  1  0  0  0  0
 23 27  1  0  0  0  0
 24 28  2  0  0  0  0
 24 29  1  0  0  0  0
 25 30  1  0  0  0  0
 26 31  2  0  0  0  0
  7 10  1  0  0  0  0
 12 14  1  0  0  0  0
 17 18  1  0  0  0  0
 28 31  1  0  0  0  0
M  END
>  <MolRegNo>
611748

>  <m>
=

>  <Value>
5600

>  <Unit>
nM

>  <Type>
IC50

>  <pValue>
5.25

>  <Ligand Efficiency>
0

>  <Binding Efficiency>
0

>  <Surface Efficiency>
0

>  <Assay Index>
464698

>  <Assay Category>


>  <Assay Organism>


>  <Target ID>
17045

>  <Target Name>
Cytochrome P450 3A4

>  <Target Organism>
Homo sapiens

>  <Target Description>
Target is a single protein chain

>  <Sequence Accession>
P08684

>  <Reference>
Bioorg Med Chem Lett 19 (23), 6813-6817 (2009)

>  <Pubmed ID>
19846298

>  <DOI>
10.1016/j.bmcl.2009.07.002

$$$$
611747
Actelion Java MolfileCreator 1.0

 30 33  0  0  0  0  0  0  0  0999 V2000
    0.0000   -0.0000   -0.0000 O   0  0  0  0  0  0  0  0  0  0  0  0
   -1.3118   -0.7394   -0.0000 C   0  0  0  0  0  0  0  0  0  0  0  0
   -1.3237   -2.2300   -0.0000 N   0  0  0  0  0  0  0  0  0  0  0  0
   -2.6235    0.0239   -0.0000 C   0  0  0  0  0  0  0  0  0  0  0  0
   -0.0358   -2.9694   -0.0000 C   0  0  0  0  0  0  0  0  0  0  0  0
   -2.6235   -2.9694   -0.0000 C   0  0  0  0  0  0  0  0  0  0  0  0
   -3.9353   -0.7155   -0.0000 C   0  0  0  0  0  0  0  0  0  0  0  0
   -0.0477   -4.4719   -0.0000 N   0  0  0  0  0  0  0  0  0  0  0  0
    1.2521   -2.2061   -0.0000 C   0  0  0  0  0  0  0  0  0  0  0  0
   -3.9353   -2.2181   -0.0000 C   0  0  0  0  0  0  0  0  0  0  0  0
    1.2402   -5.2113   -0.0000 C   0  0  0  0  0  0  0  0  0  0  0  0
    2.5400   -2.9455   -0.0000 C   0  0  0  0  0  0  0  0  0  0  0  0
    1.2283   -6.7019   -0.0000 N   0  0  0  0  0  0  0  0  0  0  0  0
    2.5281   -4.4481   -0.0000 C   0  0  0  0  0  0  0  0  0  0  0  0
    3.9711   -2.4566   -0.0000 C   0  0  0  0  0  0  0  0  0  0  0  0
   -0.0835   -7.4413   -0.0000 C   0  0  0  0  0  0  0  0  0  0  0  0
    3.9591   -4.9012   -0.0000 N   0  0  0  0  0  0  0  0  0  0  0  0
    4.8535   -3.6610   -0.0000 C   0  0  0  0  0  0  0  0  0  0  0  0
    4.4242   -1.0136   -0.0000 C   0  0  0  0  0  0  0  0  0  0  0  0
   -0.0954   -8.9319   -0.0000 C   0  0  0  0  0  0  0  0  0  0  0  0
    4.4242   -6.3203   -0.0000 C   0  0  0  0  0  0  0  0  0  0  0  0
    6.3442   -3.6372   -0.0000 C   0  0  0  0  0  0  0  0  0  0  0  0
    1.1925   -9.6593   -0.0000 C   0  0  0  0  0  0  0  0  0  0  0  0
   -1.4072   -9.6593   -0.0000 C   0  0  0  0  0  0  0  0  0  0  0  0
    3.4106   -7.4293   -0.0000 C   0  0  0  0  0  0  0  0  0  0  0  0
    1.1925  -11.1500   -0.0000 C   0  0  0  0  0  0  0  0  0  0  0  0
    2.4804   -8.8842   -0.0000 C   0  0  0  0  0  0  0  0  0  0  0  0
   -1.4191  -11.1500   -0.0000 C   0  0  0  0  0  0  0  0  0  0  0  0
   -2.7189   -8.8961   -0.0000 C   0  0  0  0  0  0  0  0  0  0  0  0
   -0.1312  -11.9013   -0.0000 C   0  0  0  0  0  0  0  0  0  0  0  0
  1  2  2  0  0  0  0
  2  3  1  0  0  0  0
  2  4  1  0  0  0  0
  3  5  1  0  0  0  0
  3  6  1  0  0  0  0
  4  7  2  0  0  0  0
  5  8  2  0  0  0  0
  5  9  1  0  0  0  0
  6 10  2  0  0  0  0
  8 11  1  0  0  0  0
  9 12  2  0  0  0  0
 11 13  1  0  0  0  0
 11 14  2  0  0  0  0
 12 15  1  0  0  0  0
 13 16  1  0  0  0  0
 14 17  1  0  0  0  0
 15 18  2  0  0  0  0
 15 19  1  0  0  0  0
 16 20  1  0  0  0  0
 17 21  1  0  0  0  0
 18 22  1  0  0  0  0
 20 23  2  0  0  0  0
 20 24  1  0  0  0  0
 21 25  1  0  0  0  0
 23 26  1  0  0  0  0
 23 27  1  0  0  0  0
 24 28  2  0  0  0  0
 24 29  1  0  0  0  0
 26 30  2  0  0  0  0
  7 10  1  0  0  0  0
 12 14  1  0  0  0  0
 17 18  1  0  0  0  0
 28 30  1  0  0  0  0
M  END
>  <MolRegNo>
611747

>  <m>
=

>  <Value>
2900

>  <Unit>
nM

>  <Type>
IC50

>  <pValue>
5.54

>  <Ligand Efficiency>
0

>  <Binding Efficiency>
0

>  <Surface Efficiency>
0

>  <Assay Index>
464698

>  <Assay Category>


>  <Assay Organism>


>  <Target ID>
17045

>  <Target Name>
Cytochrome P450 3A4

>  <Target Organism>
Homo sapiens

>  <Target Description>
Target is a single protein chain

>  <Sequence Accession>
P08684

>  <Reference>
Bioorg Med Chem Lett 19 (23), 6813-6817 (2009)

>  <Pubmed ID>
19846298

>  <DOI>
10.1016/j.bmcl.2009.07.002

$$$$
611584
Actelion Java MolfileCreator 1.0

 21 23  0  0  0  0  0  0  0  0999 V2000
    0.0000   -0.0000   -0.0000 N   0  0  0  0  0  0  0  0  0  0  0  0
    1.2883   -0.7276   -0.0000 C   0  0  0  0  0  0  0  0  0  0  0  0
   -0.0119    1.5269   -0.0000 C   0  0  0  0  0  0  0  0  0  0  0  0
    1.2764   -2.2187   -0.0000 N   0  0  0  0  0  0  0  0  0  0  0  0
    2.5766    0.0358   -0.0000 C   0  0  0  0  0  0  0  0  0  0  0  0
    1.2764    2.2903   -0.0000 C   0  0  0  0  0  0  0  0  0  0  0  0
   -0.0358   -2.9583   -0.0000 C   0  0  0  0  0  0  0  0  0  0  0  0
    4.0080   -0.4175   -0.0000 N   0  0  0  0  0  0  0  0  0  0  0  0
    2.5646    1.5626   -0.0000 C   0  0  0  0  0  0  0  0  0  0  0  0
   -0.0477   -4.4494   -0.0000 C   0  0  0  0  0  0  0  0  0  0  0  0
    4.8788    0.8231   -0.0000 C   0  0  0  0  0  0  0  0  0  0  0  0
    3.9961    2.0398   -0.0000 C   0  0  0  0  0  0  0  0  0  0  0  0
    1.2406   -5.1770   -0.0000 C   0  0  0  0  0  0  0  0  0  0  0  0
   -1.3599   -5.1770   -0.0000 C   0  0  0  0  0  0  0  0  0  0  0  0
    6.3699    0.8469   -0.0000 C   0  0  0  0  0  0  0  0  0  0  0  0
    4.4374    3.4831   -0.0000 C   0  0  0  0  0  0  0  0  0  0  0  0
    1.2406   -6.6562   -0.0000 C   0  0  0  0  0  0  0  0  0  0  0  0
    2.5289   -4.4136   -0.0000 C   0  0  0  0  0  0  0  0  0  0  0  0
   -1.3718   -6.6681   -0.0000 C   0  0  0  0  0  0  0  0  0  0  0  0
   -2.6720   -4.4136   -0.0000 C   0  0  0  0  0  0  0  0  0  0  0  0
   -0.0716   -7.4077   -0.0000 C   0  0  0  0  0  0  0  0  0  0  0  0
  1  2  2  0  0  0  0
  1  3  1  0  0  0  0
  2  4  1  0  0  0  0
  2  5  1  0  0  0  0
  3  6  2  0  0  0  0
  4  7  1  0  0  0  0
  5  8  1  0  0  0  0
  5  9  2  0  0  0  0
  7 10  1  0  0  0  0
  8 11  1  0  0  0  0
  9 12  1  0  0  0  0
 10 13  2  0  0  0  0
 10 14  1  0  0  0  0
 11 15  1  0  0  0  0
 12 16  1  0  0  0  0
 13 17  1  0  0  0  0
 13 18  1  0  0  0  0
 14 19  2  0  0  0  0
 14 20  1  0  0  0  0
 17 21  2  0  0  0  0
  6  9  1  0  0  0  0
 11 12  2  0  0  0  0
 19 21  1  0  0  0  0
M  END
>  <MolRegNo>
611584

>  <m>
=

>  <Value>
9600

>  <Unit>
nM

>  <Type>
IC50

>  <pValue>
5.02

>  <Ligand Efficiency>
0

>  <Binding Efficiency>
0

>  <Surface Efficiency>
0

>  <Assay Index>
464699

>  <Assay Category>


>  <Assay Organism>


>  <Target ID>
17045

>  <Target Name>
Cytochrome P450 3A4

>  <Target Organism>
Homo sapiens

>  <Target Description>
Target is a single protein chain

>  <Sequence Accession>
P08684

>  <Reference>
Bioorg Med Chem Lett 19 (23), 6813-6817 (2009)

>  <Pubmed ID>
19846298

>  <DOI>
10.1016/j.bmcl.2009.07.002

$$$$
611516
Actelion Java MolfileCreator 1.0

 21 23  0  0  0  0  0  0  0  0999 V2000
    0.0000   -0.0000   -0.0000 N   0  0  0  0  0  0  0  0  0  0  0  0
    1.2883   -0.7276   -0.0000 C   0  0  0  0  0  0  0  0  0  0  0  0
   -0.0119    1.5269   -0.0000 C   0  0  0  0  0  0  0  0  0  0  0  0
    1.2764   -2.2187   -0.0000 N   0  0  0  0  0  0  0  0  0  0  0  0
    2.5766    0.0358   -0.0000 C   0  0  0  0  0  0  0  0  0  0  0  0
    1.2764    2.2903   -0.0000 C   0  0  0  0  0  0  0  0  0  0  0  0
   -0.0358   -2.9583   -0.0000 C   0  0  0  0  0  0  0  0  0  0  0  0
    2.5646    1.5626   -0.0000 C   0  0  0  0  0  0  0  0  0  0  0  0
    4.0080   -0.4175   -0.0000 C   0  0  0  0  0  0  0  0  0  0  0  0
   -0.0477   -4.4494   -0.0000 C   0  0  0  0  0  0  0  0  0  0  0  0
    3.9961    2.0398   -0.0000 N   0  0  0  0  0  0  0  0  0  0  0  0
    4.8788    0.8231   -0.0000 C   0  0  0  0  0  0  0  0  0  0  0  0
    1.2406   -5.1770   -0.0000 C   0  0  0  0  0  0  0  0  0  0  0  0
   -1.3599   -5.1770   -0.0000 C   0  0  0  0  0  0  0  0  0  0  0  0
    4.4374    3.4831   -0.0000 C   0  0  0  0  0  0  0  0  0  0  0  0
    6.3699    0.8469   -0.0000 C   0  0  0  0  0  0  0  0  0  0  0  0
    1.2406   -6.6562   -0.0000 C   0  0  0  0  0  0  0  0  0  0  0  0
    2.5289   -4.4136   -0.0000 C   0  0  0  0  0  0  0  0  0  0  0  0
   -1.3718   -6.6681   -0.0000 C   0  0  0  0  0  0  0  0  0  0  0  0
   -2.6720   -4.4136   -0.0000 C   0  0  0  0  0  0  0  0  0  0  0  0
   -0.0716   -7.4077   -0.0000 C   0  0  0  0  0  0  0  0  0  0  0  0
  1  2  2  0  0  0  0
  1  3  1  0  0  0  0
  2  4  1  0  0  0  0
  2  5  1  0  0  0  0
  3  6  2  0  0  0  0
  4  7  1  0  0  0  0
  5  8  2  0  0  0  0
  5  9  1  0  0  0  0
  7 10  1  0  0  0  0
  8 11  1  0  0  0  0
  9 12  2  0  0  0  0
 10 13  2  0  0  0  0
 10 14  1  0  0  0  0
 11 15  1  0  0  0  0
 12 16  1  0  0  0  0
 13 17  1  0  0  0  0
 13 18  1  0  0  0  0
 14 19  2  0  0  0  0
 14 20  1  0  0  0  0
 17 21  2  0  0  0  0
  6  8  1  0  0  0  0
 11 12  1  0  0  0  0
 19 21  1  0  0  0  0
M  END
>  <MolRegNo>
611516

>  <m>
=

>  <Value>
4300

>  <Unit>
nM

>  <Type>
IC50

>  <pValue>
5.37

>  <Ligand Efficiency>
0

>  <Binding Efficiency>
0

>  <Surface Efficiency>
0

>  <Assay Index>
464699

>  <Assay Category>


>  <Assay Organism>


>  <Target ID>
17045

>  <Target Name>
Cytochrome P450 3A4

>  <Target Organism>
Homo sapiens

>  <Target Description>
Target is a single protein chain

>  <Sequence Accession>
P08684

>  <Reference>
Bioorg Med Chem Lett 19 (23), 6813-6817 (2009)

>  <Pubmed ID>
19846298

>  <DOI>
10.1016/j.bmcl.2009.07.002

$$$$
611514
Actelion Java MolfileCreator 1.0

 21 23  0  0  0  0  0  0  0  0999 V2000
    0.0000   -0.0000   -0.0000 N   0  0  0  0  0  0  0  0  0  0  0  0
    1.2883   -0.7276   -0.0000 C   0  0  0  0  0  0  0  0  0  0  0  0
   -0.0119    1.5269   -0.0000 C   0  0  0  0  0  0  0  0  0  0  0  0
    1.2764   -2.2187   -0.0000 N   0  0  0  0  0  0  0  0  0  0  0  0
    2.5766    0.0358   -0.0000 C   0  0  0  0  0  0  0  0  0  0  0  0
    1.2764    2.2903   -0.0000 C   0  0  0  0  0  0  0  0  0  0  0  0
   -0.0358   -2.9583   -0.0000 C   0  0  0  0  0  0  0  0  0  0  0  0
    4.0080   -0.4175   -0.0000 N   0  0  0  0  0  0  0  0  0  0  0  0
    2.5646    1.5626   -0.0000 C   0  0  0  0  0  0  0  0  0  0  0  0
   -0.0477   -4.4494   -0.0000 C   0  0  0  0  0  0  0  0  0  0  0  0
    4.8788    0.8231   -0.0000 C   0  0  0  0  0  0  0  0  0  0  0  0
    3.9961    2.0398   -0.0000 N   0  0  0  0  0  0  0  0  0  0  0  0
    1.2406   -5.1770   -0.0000 C   0  0  0  0  0  0  0  0  0  0  0  0
   -1.3599   -5.1770   -0.0000 C   0  0  0  0  0  0  0  0  0  0  0  0
    6.3699    0.8469   -0.0000 C   0  0  0  0  0  0  0  0  0  0  0  0
    4.4374    3.4831   -0.0000 C   0  0  0  0  0  0  0  0  0  0  0  0
    1.2406   -6.6562   -0.0000 C   0  0  0  0  0  0  0  0  0  0  0  0
    2.5289   -4.4136   -0.0000 C   0  0  0  0  0  0  0  0  0  0  0  0
   -1.3718   -6.6681   -0.0000 C   0  0  0  0  0  0  0  0  0  0  0  0
   -2.6720   -4.4136   -0.0000 C   0  0  0  0  0  0  0  0  0  0  0  0
   -0.0716   -7.4077   -0.0000 C   0  0  0  0  0  0  0  0  0  0  0  0
  1  2  2  0  0  0  0
  1  3  1  0  0  0  0
  2  4  1  0  0  0  0
  2  5  1  0  0  0  0
  3  6  2  0  0  0  0
  4  7  1  0  0  0  0
  5  8  1  0  0  0  0
  5  9  2  0  0  0  0
  7 10  1  0  0  0  0
  8 11  2  0  0  0  0
  9 12  1  0  0  0  0
 10 13  2  0  0  0  0
 10 14  1  0  0  0  0
 11 15  1  0  0  0  0
 12 16  1  0  0  0  0
 13 17  1  0  0  0  0
 13 18  1  0  0  0  0
 14 19  2  0  0  0  0
 14 20  1  0  0  0  0
 17 21  2  0  0  0  0
  6  9  1  0  0  0  0
 11 12  1  0  0  0  0
 19 21  1  0  0  0  0
M  END
>  <MolRegNo>
611514

>  <m>
=

>  <Value>
21000

>  <Unit>
nM

>  <Type>
IC50

>  <pValue>
4.68

>  <Ligand Efficiency>
0

>  <Binding Efficiency>
0

>  <Surface Efficiency>
0

>  <Assay Index>
464699

>  <Assay Category>


>  <Assay Organism>


>  <Target ID>
17045

>  <Target Name>
Cytochrome P450 3A4

>  <Target Organism>
Homo sapiens

>  <Target Description>
Target is a single protein chain

>  <Sequence Accession>
P08684

>  <Reference>
Bioorg Med Chem Lett 19 (23), 6813-6817 (2009)

>  <Pubmed ID>
19846298

>  <DOI>
10.1016/j.bmcl.2009.07.002

$$$$
611512
Actelion Java MolfileCreator 1.0

 21 23  0  0  0  0  0  0  0  0999 V2000
    0.0000   -0.0000   -0.0000 N   0  0  0  0  0  0  0  0  0  0  0  0
   -1.4497    0.4753   -0.0000 C   0  0  0  0  0  0  0  0  0  0  0  0
    0.8675    1.2358   -0.0000 C   0  0  0  0  0  0  0  0  0  0  0  0
   -2.7568   -0.2614   -0.0000 C   0  0  0  0  0  0  0  0  0  0  0  0
   -1.4616    1.9963   -0.0000 C   0  0  0  0  0  0  0  0  0  0  0  0
   -0.0356    2.4598   -0.0000 N   0  0  0  0  0  0  0  0  0  0  0  0
    2.3528    1.2596   -0.0000 C   0  0  0  0  0  0  0  0  0  0  0  0
   -2.7687   -1.7468   -0.0000 N   0  0  0  0  0  0  0  0  0  0  0  0
   -4.0640    0.4872   -0.0000 C   0  0  0  0  0  0  0  0  0  0  0  0
   -2.7687    2.7450   -0.0000 C   0  0  0  0  0  0  0  0  0  0  0  0
    0.4040    3.8976   -0.0000 C   0  0  0  0  0  0  0  0  0  0  0  0
   -4.0759   -2.4835   -0.0000 C   0  0  0  0  0  0  0  0  0  0  0  0
   -4.0759    2.0082   -0.0000 C   0  0  0  0  0  0  0  0  0  0  0  0
   -4.0877   -3.9689   -0.0000 C   0  0  0  0  0  0  0  0  0  0  0  0
   -2.8044   -4.6938   -0.0000 C   0  0  0  0  0  0  0  0  0  0  0  0
   -5.3949   -4.6938   -0.0000 C   0  0  0  0  0  0  0  0  0  0  0  0
   -2.8044   -6.1672   -0.0000 C   0  0  0  0  0  0  0  0  0  0  0  0
   -1.5210   -3.9333   -0.0000 C   0  0  0  0  0  0  0  0  0  0  0  0
   -5.4067   -6.1791   -0.0000 C   0  0  0  0  0  0  0  0  0  0  0  0
   -6.7020   -3.9333   -0.0000 C   0  0  0  0  0  0  0  0  0  0  0  0
   -4.1115   -6.9159   -0.0000 C   0  0  0  0  0  0  0  0  0  0  0  0
  1  2  1  0  0  0  0
  1  3  2  0  0  0  0
  2  4  2  0  0  0  0
  2  5  1  0  0  0  0
  3  6  1  0  0  0  0
  3  7  1  0  0  0  0
  4  8  1  0  0  0  0
  4  9  1  0  0  0  0
  5 10  2  0  0  0  0
  6 11  1  0  0  0  0
  8 12  1  0  0  0  0
  9 13  2  0  0  0  0
 12 14  1  0  0  0  0
 14 15  2  0  0  0  0
 14 16  1  0  0  0  0
 15 17  1  0  0  0  0
 15 18  1  0  0  0  0
 16 19  2  0  0  0  0
 16 20  1  0  0  0  0
 17 21  2  0  0  0  0
  5  6  1  0  0  0  0
 10 13  1  0  0  0  0
 19 21  1  0  0  0  0
M  END
>  <MolRegNo>
611512

>  <m>
=

>  <Value>
9000

>  <Unit>
nM

>  <Type>
IC50

>  <pValue>
5.05

>  <Ligand Efficiency>
0

>  <Binding Efficiency>
0

>  <Surface Efficiency>
0

>  <Assay Index>
464699

>  <Assay Category>


>  <Assay Organism>


>  <Target ID>
17045

>  <Target Name>
Cytochrome P450 3A4

>  <Target Organism>
Homo sapiens

>  <Target Description>
Target is a single protein chain

>  <Sequence Accession>
P08684

>  <Reference>
Bioorg Med Chem Lett 19 (23), 6813-6817 (2009)

>  <Pubmed ID>
19846298

>  <DOI>
10.1016/j.bmcl.2009.07.002

$$$$
612687
Actelion Java MolfileCreator 1.0

 21 23  0  0  0  0  0  0  0  0999 V2000
    0.0000   -0.0000   -0.0000 N   0  0  0  0  0  0  0  0  0  0  0  0
    1.2883   -0.7276   -0.0000 C   0  0  0  0  0  0  0  0  0  0  0  0
   -0.0119    1.5269   -0.0000 C   0  0  0  0  0  0  0  0  0  0  0  0
    1.2764   -2.2187   -0.0000 N   0  0  0  0  0  0  0  0  0  0  0  0
    2.5766    0.0358   -0.0000 C   0  0  0  0  0  0  0  0  0  0  0  0
    1.2764    2.2903   -0.0000 C   0  0  0  0  0  0  0  0  0  0  0  0
   -0.0358   -2.9583   -0.0000 C   0  0  0  0  0  0  0  0  0  0  0  0
    2.5646    1.5626   -0.0000 N   0  0  0  0  0  0  0  0  0  0  0  0
    4.0080   -0.4175   -0.0000 C   0  0  0  0  0  0  0  0  0  0  0  0
   -0.0477   -4.4494   -0.0000 C   0  0  0  0  0  0  0  0  0  0  0  0
    3.9961    2.0398   -0.0000 C   0  0  0  0  0  0  0  0  0  0  0  0
    4.8788    0.8231   -0.0000 C   0  0  0  0  0  0  0  0  0  0  0  0
    1.2406   -5.1770   -0.0000 C   0  0  0  0  0  0  0  0  0  0  0  0
   -1.3599   -5.1770   -0.0000 C   0  0  0  0  0  0  0  0  0  0  0  0
    4.4374    3.4831   -0.0000 C   0  0  0  0  0  0  0  0  0  0  0  0
    6.3699    0.8469   -0.0000 C   0  0  0  0  0  0  0  0  0  0  0  0
    1.2406   -6.6562   -0.0000 C   0  0  0  0  0  0  0  0  0  0  0  0
    2.5289   -4.4136   -0.0000 C   0  0  0  0  0  0  0  0  0  0  0  0
   -1.3718   -6.6681   -0.0000 C   0  0  0  0  0  0  0  0  0  0  0  0
   -2.6720   -4.4136   -0.0000 C   0  0  0  0  0  0  0  0  0  0  0  0
   -0.0716   -7.4077   -0.0000 C   0  0  0  0  0  0  0  0  0  0  0  0
  1  2  2  0  0  0  0
  1  3  1  0  0  0  0
  2  4  1  0  0  0  0
  2  5  1  0  0  0  0
  3  6  2  0  0  0  0
  4  7  1  0  0  0  0
  5  8  1  0  0  0  0
  5  9  2  0  0  0  0
  7 10  1  0  0  0  0
  8 11  1  0  0  0  0
  9 12  1  0  0  0  0
 10 13  2  0  0  0  0
 10 14  1  0  0  0  0
 11 15  1  0  0  0  0
 12 16  1  0  0  0  0
 13 17  1  0  0  0  0
 13 18  1  0  0  0  0
 14 19  2  0  0  0  0
 14 20  1  0  0  0  0
 17 21  2  0  0  0  0
  6  8  1  0  0  0  0
 11 12  2  0  0  0  0
 19 21  1  0  0  0  0
M  END
>  <MolRegNo>
612687

>  <m>
=

>  <Value>
1600

>  <Unit>
nM

>  <Type>
IC50

>  <pValue>
5.8

>  <Ligand Efficiency>
0

>  <Binding Efficiency>
0

>  <Surface Efficiency>
0

>  <Assay Index>
464699

>  <Assay Category>


>  <Assay Organism>


>  <Target ID>
17045

>  <Target Name>
Cytochrome P450 3A4

>  <Target Organism>
Homo sapiens

>  <Target Description>
Target is a single protein chain

>  <Sequence Accession>
P08684

>  <Reference>
Bioorg Med Chem Lett 19 (23), 6813-6817 (2009)

>  <Pubmed ID>
19846298

>  <DOI>
10.1016/j.bmcl.2009.07.002

$$$$
612685
Actelion Java MolfileCreator 1.0

 21 23  0  0  0  0  0  0  0  0999 V2000
    0.0000   -0.0000   -0.0000 O   0  0  0  0  0  0  0  0  0  0  0  0
   -0.0119    1.5110   -0.0000 C   0  0  0  0  0  0  0  0  0  0  0  0
   -1.3088   -0.7377   -0.0000 C   0  0  0  0  0  0  0  0  0  0  0  0
    1.2731    2.2725   -0.0000 C   0  0  0  0  0  0  0  0  0  0  0  0
   -1.3207    2.2606   -0.0000 C   0  0  0  0  0  0  0  0  0  0  0  0
   -1.3207   -2.2249   -0.0000 C   0  0  0  0  0  0  0  0  0  0  0  0
    2.7008    1.8204   -0.0000 N   0  0  0  0  0  0  0  0  0  0  0  0
    1.2612    3.7954   -0.0000 N   0  0  0  0  0  0  0  0  0  0  0  0
   -1.3326    3.7835   -0.0000 C   0  0  0  0  0  0  0  0  0  0  0  0
   -0.0357   -2.9507   -0.0000 C   0  0  0  0  0  0  0  0  0  0  0  0
   -2.6294   -2.9507   -0.0000 C   0  0  0  0  0  0  0  0  0  0  0  0
    3.5694    3.0578   -0.0000 C   0  0  0  0  0  0  0  0  0  0  0  0
    2.6889    4.2714   -0.0000 C   0  0  0  0  0  0  0  0  0  0  0  0
   -0.0476    4.5450   -0.0000 C   0  0  0  0  0  0  0  0  0  0  0  0
   -0.0357   -4.4260   -0.0000 C   0  0  0  0  0  0  0  0  0  0  0  0
    1.2493   -2.1892   -0.0000 C   0  0  0  0  0  0  0  0  0  0  0  0
   -2.6413   -4.4379   -0.0000 C   0  0  0  0  0  0  0  0  0  0  0  0
   -3.9382   -2.1892   -0.0000 C   0  0  0  0  0  0  0  0  0  0  0  0
    5.0566    3.0816   -0.0000 C   0  0  0  0  0  0  0  0  0  0  0  0
    3.1292    5.7110   -0.0000 C   0  0  0  0  0  0  0  0  0  0  0  0
   -1.3445   -5.1756   -0.0000 C   0  0  0  0  0  0  0  0  0  0  0  0
  1  2  1  0  0  0  0
  1  3  1  0  0  0  0
  2  4  1  0  0  0  0
  2  5  2  0  0  0  0
  3  6  1  0  0  0  0
  4  7  2  0  0  0  0
  4  8  1  0  0  0  0
  5  9  1  0  0  0  0
  6 10  2  0  0  0  0
  6 11  1  0  0  0  0
  7 12  1  0  0  0  0
  8 13  1  0  0  0  0
  8 14  1  0  0  0  0
 10 15  1  0  0  0  0
 10 16  1  0  0  0  0
 11 17  2  0  0  0  0
 11 18  1  0  0  0  0
 12 19  1  0  0  0  0
 13 20  1  0  0  0  0
 15 21  2  0  0  0  0
  9 14  2  0  0  0  0
 12 13  2  0  0  0  0
 17 21  1  0  0  0  0
M  END
>  <MolRegNo>
612685

>  <m>
=

>  <Value>
18000

>  <Unit>
nM

>  <Type>
IC50

>  <pValue>
4.75

>  <Ligand Efficiency>
0

>  <Binding Efficiency>
0

>  <Surface Efficiency>
0

>  <Assay Index>
464699

>  <Assay Category>


>  <Assay Organism>


>  <Target ID>
17045

>  <Target Name>
Cytochrome P450 3A4

>  <Target Organism>
Homo sapiens

>  <Target Description>
Target is a single protein chain

>  <Sequence Accession>
P08684

>  <Reference>
Bioorg Med Chem Lett 19 (23), 6813-6817 (2009)

>  <Pubmed ID>
19846298

>  <DOI>
10.1016/j.bmcl.2009.07.002

$$$$
611511
Actelion Java MolfileCreator 1.0

 21 23  0  0  0  0  0  0  0  0999 V2000
    0.0000   -0.0000   -0.0000 N   0  0  0  0  0  0  0  0  0  0  0  0
    1.2883   -0.7276   -0.0000 C   0  0  0  0  0  0  0  0  0  0  0  0
   -0.0119    1.5269   -0.0000 C   0  0  0  0  0  0  0  0  0  0  0  0
    1.2764   -2.2187   -0.0000 N   0  0  0  0  0  0  0  0  0  0  0  0
    2.5766    0.0358   -0.0000 C   0  0  0  0  0  0  0  0  0  0  0  0
    1.2764    2.2903   -0.0000 N   0  0  0  0  0  0  0  0  0  0  0  0
   -0.0358   -2.9583   -0.0000 C   0  0  0  0  0  0  0  0  0  0  0  0
    4.0080   -0.4175   -0.0000 N   0  0  0  0  0  0  0  0  0  0  0  0
    2.5646    1.5626   -0.0000 C   0  0  0  0  0  0  0  0  0  0  0  0
   -0.0477   -4.4494   -0.0000 C   0  0  0  0  0  0  0  0  0  0  0  0
    4.8788    0.8231   -0.0000 C   0  0  0  0  0  0  0  0  0  0  0  0
    3.9961    2.0398   -0.0000 C   0  0  0  0  0  0  0  0  0  0  0  0
    1.2406   -5.1770   -0.0000 C   0  0  0  0  0  0  0  0  0  0  0  0
   -1.3599   -5.1770   -0.0000 C   0  0  0  0  0  0  0  0  0  0  0  0
    6.3699    0.8469   -0.0000 C   0  0  0  0  0  0  0  0  0  0  0  0
    4.4374    3.4831   -0.0000 C   0  0  0  0  0  0  0  0  0  0  0  0
    1.2406   -6.6562   -0.0000 C   0  0  0  0  0  0  0  0  0  0  0  0
    2.5289   -4.4136   -0.0000 C   0  0  0  0  0  0  0  0  0  0  0  0
   -1.3718   -6.6681   -0.0000 C   0  0  0  0  0  0  0  0  0  0  0  0
   -2.6720   -4.4136   -0.0000 C   0  0  0  0  0  0  0  0  0  0  0  0
   -0.0716   -7.4077   -0.0000 C   0  0  0  0  0  0  0  0  0  0  0  0
  1  2  2  0  0  0  0
  1  3  1  0  0  0  0
  2  4  1  0  0  0  0
  2  5  1  0  0  0  0
  3  6  2  0  0  0  0
  4  7  1  0  0  0  0
  5  8  1  0  0  0  0
  5  9  2  0  0  0  0
  7 10  1  0  0  0  0
  8 11  1  0  0  0  0
  9 12  1  0  0  0  0
 10 13  2  0  0  0  0
 10 14  1  0  0  0  0
 11 15  1  0  0  0  0
 12 16  1  0  0  0  0
 13 17  1  0  0  0  0
 13 18  1  0  0  0  0
 14 19  2  0  0  0  0
 14 20  1  0  0  0  0
 17 21  2  0  0  0  0
  6  9  1  0  0  0  0
 11 12  2  0  0  0  0
 19 21  1  0  0  0  0
M  END
>  <MolRegNo>
611511

>  <m>
=

>  <Value>
8800

>  <Unit>
nM

>  <Type>
IC50

>  <pValue>
5.06

>  <Ligand Efficiency>
0

>  <Binding Efficiency>
0

>  <Surface Efficiency>
0

>  <Assay Index>
464698

>  <Assay Category>


>  <Assay Organism>


>  <Target ID>
17045

>  <Target Name>
Cytochrome P450 3A4

>  <Target Organism>
Homo sapiens

>  <Target Description>
Target is a single protein chain

>  <Sequence Accession>
P08684

>  <Reference>
Bioorg Med Chem Lett 19 (23), 6813-6817 (2009)

>  <Pubmed ID>
19846298

>  <DOI>
10.1016/j.bmcl.2009.07.002

$$$$
612592
Actelion Java MolfileCreator 1.0

 25 28  0  0  0  0  0  0  0  0999 V2000
    0.0000   -0.0000   -0.0000 F   0  0  0  0  0  0  0  0  0  0  0  0
   -0.0119    1.5109   -0.0000 C   0  0  0  0  0  0  0  0  0  0  0  0
   -1.3206    2.2723   -0.0000 C   0  0  0  0  0  0  0  0  0  0  0  0
    1.2730    2.2723   -0.0000 C   0  0  0  0  0  0  0  0  0  0  0  0
   -1.3324    3.7832   -0.0000 C   0  0  0  0  0  0  0  0  0  0  0  0
    1.2611    3.7713   -0.0000 C   0  0  0  0  0  0  0  0  0  0  0  0
   -0.0476    4.5327   -0.0000 C   0  0  0  0  0  0  0  0  0  0  0  0
   -0.0595    6.0436   -0.0000 C   0  0  0  0  0  0  0  0  0  0  0  0
    1.2254    6.8050   -0.0000 O   0  0  0  0  0  0  0  0  0  0  0  0
    1.2135    8.3159   -0.0000 C   0  0  0  0  0  0  0  0  0  0  0  0
   -0.0952    9.0773   -0.0000 N   0  0  0  0  0  0  0  0  0  0  0  0
    2.4983    9.0773   -0.0000 C   0  0  0  0  0  0  0  0  0  0  0  0
   -0.1071   10.5882   -0.0000 N   0  0  0  0  0  0  0  0  0  0  0  0
    3.9260    8.6252   -0.0000 N   0  0  0  0  0  0  0  0  0  0  0  0
    2.4864   10.6001   -0.0000 C   0  0  0  0  0  0  0  0  0  0  0  0
    1.1659   11.3496   -0.0000 C   0  0  0  0  0  0  0  0  0  0  0  0
    4.7944    9.8625   -0.0000 C   0  0  0  0  0  0  0  0  0  0  0  0
    4.6279    7.3285   -0.0000 C   0  0  0  0  0  0  0  0  0  0  0  0
    3.9141   11.0760   -0.0000 C   0  0  0  0  0  0  0  0  0  0  0  0
    6.2815    9.8863   -0.0000 C   0  0  0  0  0  0  0  0  0  0  0  0
    6.1031    7.3523   -0.0000 C   0  0  0  0  0  0  0  0  0  0  0  0
    4.3542   12.5155   -0.0000 C   0  0  0  0  0  0  0  0  0  0  0  0
    7.3879    6.6265   -0.0000 C   0  0  0  0  0  0  0  0  0  0  0  0
    7.3879    8.1255   -0.0000 C   0  0  0  0  0  0  0  0  0  0  0  0
    8.1255    5.3417   -0.0000 C   0  0  0  0  0  0  0  0  0  0  0  0
  1  2  1  0  0  0  0
  2  3  2  0  0  0  0
  2  4  1  0  0  0  0
  3  5  1  0  0  0  0
  4  6  2  0  0  0  0
  5  7  2  0  0  0  0
  7  8  1  0  0  0  0
  8  9  1  0  0  0  0
  9 10  1  0  0  0  0
 10 11  2  0  0  0  0
 10 12  1  0  0  0  0
 11 13  1  0  0  0  0
 12 14  1  0  0  0  0
 12 15  2  0  0  0  0
 13 16  2  0  0  0  0
 14 17  1  0  0  0  0
 14 18  1  0  0  0  0
 15 19  1  0  0  0  0
 17 20  1  0  0  0  0
 21 18  1  1  0  0  0
 19 22  1  0  0  0  0
 21 23  1  0  0  0  0
 21 24  1  0  0  0  0
 23 25  1  6  0  0  0
  6  7  1  0  0  0  0
 15 16  1  0  0  0  0
 17 19  2  0  0  0  0
 23 24  1  0  0  0  0
M  END
>  <MolRegNo>
612592

>  <m>
=

>  <Value>
56.23

>  <Unit>
nM

>  <Type>
IC50

>  <pValue>
7.25

>  <Ligand Efficiency>
0

>  <Binding Efficiency>
0

>  <Surface Efficiency>
0

>  <Assay Index>
464701

>  <Assay Category>


>  <Assay Organism>


>  <Target ID>
17045

>  <Target Name>
Cytochrome P450 3A4

>  <Target Organism>
Homo sapiens

>  <Target Description>
Target is a single protein chain

>  <Sequence Accession>
P08684

>  <Reference>
Bioorg Med Chem Lett 19 (23), 6813-6817 (2009)

>  <Pubmed ID>
19846298

>  <DOI>
10.1016/j.bmcl.2009.07.002

$$$$
617182
Actelion Java MolfileCreator 1.0

 31 34  0  0  0  0  0  0  0  0999 V2000
    0.0000   -0.0000   -0.0000 S   0  0  0  0  0  0  0  0  0  0  0  0
    0.7033    1.2810   -0.0000 O   0  0  0  0  0  0  0  0  0  0  0  0
   -0.7535    1.2810   -0.0000 O   0  0  0  0  0  0  0  0  0  0  0  0
    1.2559   -0.7158   -0.0000 N   0  0  0  0  0  0  0  0  0  0  0  0
   -1.2810   -0.7033   -0.0000 C   0  0  0  0  0  0  0  0  0  0  0  0
    2.5117    0.0251   -0.0000 C   0  0  0  0  0  0  0  0  0  0  0  0
   -2.5494    0.0502   -0.0000 C   0  0  0  0  0  0  0  0  0  0  0  0
   -1.3061   -2.1475   -0.0000 C   0  0  0  0  0  0  0  0  0  0  0  0
    3.7550   -0.6907   -0.0000 C   0  0  0  0  0  0  0  0  0  0  0  0
    2.4992    1.5070   -0.0000 C   0  0  0  0  0  0  0  0  0  0  0  0
   -3.8304   -0.6531   -0.0000 C   0  0  0  0  0  0  0  0  0  0  0  0
   -2.5871   -2.8634   -0.0000 C   0  0  0  0  0  0  0  0  0  0  0  0
    5.0235    0.0502   -0.0000 C   0  0  0  0  0  0  0  0  0  0  0  0
    3.7425    2.2480   -0.0000 C   0  0  0  0  0  0  0  0  0  0  0  0
   -3.8555   -2.0973   -0.0000 C   0  0  0  0  0  0  0  0  0  0  0  0
    4.9984    1.5322   -0.0000 C   0  0  0  0  0  0  0  0  0  0  0  0
    6.2668   -0.9293   -0.0000 C   0  0  0  0  0  0  0  0  0  0  0  0
   -5.1365   -2.8131   -0.0000 C   0  0  0  0  0  0  0  0  0  0  0  0
    6.1537    2.4992   -0.0000 C   0  0  0  0  0  0  0  0  0  0  0  0
    7.7487   -0.5651   -0.0000 C   0  0  0  0  0  0  0  0  0  0  0  0
   -6.4049   -2.0596   -0.0000 C   0  0  0  0  0  0  0  0  0  0  0  0
    7.6231    2.2606   -0.0000 C   0  0  0  0  0  0  0  0  0  0  0  0
    8.3766    0.8665   -0.0000 N   0  0  0  0  0  0  0  0  0  0  0  0
   -7.6859   -2.7755   -0.0000 C   0  0  0  0  0  0  0  0  0  0  0  0
    9.9465    0.9293   -0.0000 C   0  0  0  0  0  0  0  0  0  0  0  0
   -8.9543   -2.0219   -0.0000 C   0  0  0  0  0  0  0  0  0  0  0  0
   10.7753   -0.4019   -0.0000 C   0  0  0  0  0  0  0  0  0  0  0  0
   12.3577   -0.3391   -0.0000 N   0  0  0  0  0  0  0  0  0  0  0  0
   10.3232   -1.9089   -0.0000 C   0  0  0  0  0  0  0  0  0  0  0  0
   12.8726   -1.8210   -0.0000 N   0  0  0  0  0  0  0  0  0  0  0  0
   11.6168   -2.7880   -0.0000 C   0  0  0  0  0  0  0  0  0  0  0  0
  1  2  2  0  0  0  0
  1  3  2  0  0  0  0
  1  4  1  0  0  0  0
  1  5  1  0  0  0  0
  4  6  1  0  0  0  0
  5  7  2  0  0  0  0
  5  8  1  0  0  0  0
  6  9  2  0  0  0  0
  6 10  1  0  0  0  0
  7 11  1  0  0  0  0
  8 12  2  0  0  0  0
  9 13  1  0  0  0  0
 10 14  2  0  0  0  0
 11 15  2  0  0  0  0
 13 16  2  0  0  0  0
 13 17  1  0  0  0  0
 15 18  1  0  0  0  0
 16 19  1  0  0  0  0
 17 20  1  0  0  0  0
 18 21  1  0  0  0  0
 19 22  1  0  0  0  0
 20 23  1  0  0  0  0
 21 24  1  0  0  0  0
 23 25  1  0  0  0  0
 24 26  1  0  0  0  0
 25 27  1  0  0  0  0
 27 28  2  0  0  0  0
 27 29  1  0  0  0  0
 28 30  1  0  0  0  0
 29 31  2  0  0  0  0
 12 15  1  0  0  0  0
 14 16  1  0  0  0  0
 22 23  1  0  0  0  0
 30 31  1  0  0  0  0
M  END
>  <MolRegNo>
617182

>  <m>
=

>  <Value>
800

>  <Unit>
nM

>  <Type>
IC50

>  <pValue>
6.1

>  <Ligand Efficiency>
0

>  <Binding Efficiency>
0

>  <Surface Efficiency>
0

>  <Assay Index>
468008

>  <Assay Category>


>  <Assay Organism>
Homo sapiens

>  <Target ID>
17045

>  <Target Name>
Cytochrome P450 3A4

>  <Target Organism>
Homo sapiens

>  <Target Description>
Target is a single protein chain

>  <Sequence Accession>
P08684

>  <Reference>
Bioorg Med Chem Lett 19 (22), 6452-6458 (2009)

>  <Pubmed ID>
19804969

>  <DOI>
10.1016/j.bmcl.2009.09.027

$$$$
612471
Actelion Java MolfileCreator 1.0

 40 44  0  0  0  0  0  0  0  0999 V2000
    0.0000   -0.0000   -0.0000 Cl  0  0  0  0  0  0  0  0  0  0  0  0
    1.2871    0.7746   -0.0000 C   0  0  0  0  0  0  0  0  0  0  0  0
    2.5742    0.0477   -0.0000 C   0  0  0  0  0  0  0  0  0  0  0  0
    1.2633    2.2882   -0.0000 C   0  0  0  0  0  0  0  0  0  0  0  0
    2.5623   -1.4420   -0.0000 O   0  0  0  0  0  0  0  0  0  0  0  0
    3.8732    0.8104   -0.0000 C   0  0  0  0  0  0  0  0  0  0  0  0
   -0.0596    3.0509   -0.0000 F   0  0  0  0  0  0  0  0  0  0  0  0
    2.5623    3.0628   -0.0000 C   0  0  0  0  0  0  0  0  0  0  0  0
    3.8494   -2.1809   -0.0000 C   0  0  0  0  0  0  0  0  0  0  0  0
    5.1603    0.0715   -0.0000 F   0  0  0  0  0  0  0  0  0  0  0  0
    3.8613    2.3239   -0.0000 C   0  0  0  0  0  0  0  0  0  0  0  0
    3.8375   -3.6706   -0.0000 C   0  0  0  0  0  0  0  0  0  0  0  0
    5.1246   -4.4095   -0.0000 C   0  0  0  0  0  0  0  0  0  0  0  0
    5.1127   -5.8992   -0.0000 C   0  0  0  0  0  0  0  0  0  0  0  0
    6.4117   -6.6381   -0.0000 C   0  0  0  0  0  0  0  0  0  0  0  0
    3.8017   -6.6381   -0.0000 C   0  0  0  0  0  0  0  0  0  0  0  0
    6.3998   -8.1278   -0.0000 C   0  0  0  0  0  0  0  0  0  0  0  0
    3.7898   -8.1278   -0.0000 C   0  0  0  0  0  0  0  0  0  0  0  0
    5.0769   -8.8667   -0.0000 C   0  0  0  0  0  0  0  0  0  0  0  0
    5.0650  -10.3564   -0.0000 C   0  0  0  0  0  0  0  0  0  0  0  0
    3.7541  -11.0953   -0.0000 C   0  0  0  0  0  0  0  0  0  0  0  0
    6.3521  -11.0953   -0.0000 C   0  0  0  0  0  0  0  0  0  0  0  0
    2.4431  -10.3326   -0.0000 C   0  0  0  0  0  0  0  0  0  0  0  0
    3.7421  -12.5850   -0.0000 C   0  0  0  0  0  0  0  0  0  0  0  0
    6.3402  -12.5850   -0.0000 C   0  0  0  0  0  0  0  0  0  0  0  0
    2.4312   -8.8191   -0.0000 O   0  0  0  0  0  0  0  0  0  0  0  0
    1.1322  -11.0715   -0.0000 N   0  0  0  0  0  0  0  0  0  0  0  0
    5.0412  -13.3239   -0.0000 N   0  0  0  0  0  0  0  0  0  0  0  0
    1.1322  -12.5612   -0.0000 C   0  0  0  0  0  0  0  0  0  0  0  0
   -0.1788  -10.3088   -0.0000 C   0  0  0  0  0  0  0  0  0  0  0  0
    0.3694  -13.8483   -0.0000 C   0  0  0  0  0  0  0  0  0  0  0  0
    1.8711  -13.8483   -0.0000 C   0  0  0  0  0  0  0  0  0  0  0  0
   -1.4897  -11.0477   -0.0000 C   0  0  0  0  0  0  0  0  0  0  0  0
   -2.8006  -10.2849   -0.0000 C   0  0  0  0  0  0  0  0  0  0  0  0
   -1.5016  -12.5493   -0.0000 C   0  0  0  0  0  0  0  0  0  0  0  0
   -2.8126   -8.7714   -0.0000 Cl  0  0  0  0  0  0  0  0  0  0  0  0
   -4.1116  -11.0238   -0.0000 C   0  0  0  0  0  0  0  0  0  0  0  0
   -2.8245  -13.2882   -0.0000 C   0  0  0  0  0  0  0  0  0  0  0  0
   -5.4225  -10.2611   -0.0000 Cl  0  0  0  0  0  0  0  0  0  0  0  0
   -4.1235  -12.5255   -0.0000 C   0  0  0  0  0  0  0  0  0  0  0  0
  1  2  1  0  0  0  0
  2  3  2  0  0  0  0
  2  4  1  0  0  0  0
  3  5  1  0  0  0  0
  3  6  1  0  0  0  0
  4  7  1  0  0  0  0
  4  8  2  0  0  0  0
  5  9  1  0  0  0  0
  6 10  1  0  0  0  0
  6 11  2  0  0  0  0
  9 12  1  0  0  0  0
 12 13  1  0  0  0  0
 13 14  1  0  0  0  0
 14 15  2  0  0  0  0
 14 16  1  0  0  0  0
 15 17  1  0  0  0  0
 16 18  2  0  0  0  0
 17 19  2  0  0  0  0
 19 20  1  0  0  0  0
 20 21  2  0  0  0  0
 20 22  1  0  0  0  0
 21 23  1  0  0  0  0
 21 24  1  0  0  0  0
 22 25  1  0  0  0  0
 23 26  2  0  0  0  0
 23 27  1  0  0  0  0
 24 28  1  0  0  0  0
 27 29  1  0  0  0  0
 27 30  1  0  0  0  0
 29 31  1  0  0  0  0
 29 32  1  0  0  0  0
 30 33  1  0  0  0  0
 33 34  2  0  0  0  0
 33 35  1  0  0  0  0
 34 36  1  0  0  0  0
 34 37  1  0  0  0  0
 35 38  2  0  0  0  0
 37 39  1  0  0  0  0
 37 40  2  0  0  0  0
  8 11  1  0  0  0  0
 18 19  1  0  0  0  0
 25 28  1  0  0  0  0
 31 32  1  0  0  0  0
 38 40  1  0  0  0  0
M  END
>  <MolRegNo>
612471

>  <m>
=

>  <Value>
1300

>  <Unit>
nM

>  <Type>
IC50

>  <pValue>
5.89

>  <Ligand Efficiency>
0

>  <Binding Efficiency>
0

>  <Surface Efficiency>
0

>  <Assay Index>
465344

>  <Assay Category>


>  <Assay Organism>


>  <Target ID>
17045

>  <Target Name>
Cytochrome P450 3A4

>  <Target Organism>
Homo sapiens

>  <Target Description>
Target is a single protein chain

>  <Sequence Accession>
P08684

>  <Reference>
Bioorg Med Chem Lett 19 (23), 6762-6765 (2009)

>  <Pubmed ID>
19853442

>  <DOI>
10.1016/j.bmcl.2009.09.104

$$$$
612470
Actelion Java MolfileCreator 1.0

 42 47  0  0  0  0  0  0  0  0999 V2000
    0.0000   -0.0000   -0.0000 Cl  0  0  0  0  0  0  0  0  0  0  0  0
   -0.0132    1.4916   -0.0000 C   0  0  0  0  0  0  0  0  0  0  0  0
    1.2540    2.2441   -0.0000 C   0  0  0  0  0  0  0  0  0  0  0  0
   -1.3068    2.2441   -0.0000 C   0  0  0  0  0  0  0  0  0  0  0  0
    2.5213    1.5180   -0.0000 O   0  0  0  0  0  0  0  0  0  0  0  0
    1.2408    3.7357   -0.0000 C   0  0  0  0  0  0  0  0  0  0  0  0
   -2.6005    1.5180   -0.0000 F   0  0  0  0  0  0  0  0  0  0  0  0
   -1.3200    3.7489   -0.0000 C   0  0  0  0  0  0  0  0  0  0  0  0
    2.5081    0.0528   -0.0000 C   0  0  0  0  0  0  0  0  0  0  0  0
    2.5081    4.4881   -0.0000 F   0  0  0  0  0  0  0  0  0  0  0  0
   -0.0528    4.4881   -0.0000 C   0  0  0  0  0  0  0  0  0  0  0  0
    1.2144   -0.6732   -0.0000 C   0  0  0  0  0  0  0  0  0  0  0  0
    1.2012   -2.1385   -0.0000 C   0  0  0  0  0  0  0  0  0  0  0  0
   -0.0924   -2.8645   -0.0000 C   0  0  0  0  0  0  0  0  0  0  0  0
   -0.1056   -4.3297   -0.0000 C   0  0  0  0  0  0  0  0  0  0  0  0
   -1.3992   -2.1121   -0.0000 C   0  0  0  0  0  0  0  0  0  0  0  0
   -1.3992   -5.0558   -0.0000 C   0  0  0  0  0  0  0  0  0  0  0  0
   -2.6929   -2.8381   -0.0000 C   0  0  0  0  0  0  0  0  0  0  0  0
   -2.6929   -4.2901   -0.0000 C   0  0  0  0  0  0  0  0  0  0  0  0
   -3.9337   -5.0954   -0.0000 C   0  0  0  0  0  0  0  0  0  0  0  0
   -5.6234   -5.7554   -0.0000 C   0  0  0  0  0  0  0  0  0  0  0  0
   -5.3330   -6.4814   -0.0000 C   0  0  0  0  0  0  0  0  0  0  0  0
   -6.7190   -5.0162   -0.0000 C   0  0  0  0  0  0  0  0  0  0  0  0
   -5.6234   -7.1678   -0.0000 C   0  0  0  0  0  0  0  0  0  0  0  0
   -5.3462   -7.9863   -0.0000 C   0  0  0  0  0  0  0  0  0  0  0  0
   -8.0127   -5.7422   -0.0000 O   0  0  0  0  0  0  0  0  0  0  0  0
   -6.7190   -3.5245   -0.0000 N   0  0  0  0  0  0  0  0  0  0  0  0
   -7.1678   -8.4087   -0.0000 N   0  0  0  0  0  0  0  0  0  0  0  0
   -4.3561   -7.6298   -0.0000 C   0  0  0  0  0  0  0  0  0  0  0  0
   -4.0129   -8.5143   -0.0000 C   0  0  0  0  0  0  0  0  0  0  0  0
   -5.4518   -2.7985   -0.0000 C   0  0  0  0  0  0  0  0  0  0  0  0
   -8.0127   -2.7721   -0.0000 C   0  0  0  0  0  0  0  0  0  0  0  0
   -4.6729   -1.5444   -0.0000 C   0  0  0  0  0  0  0  0  0  0  0  0
   -3.9865   -2.8513   -0.0000 C   0  0  0  0  0  0  0  0  0  0  0  0
   -8.0259   -1.2804   -0.0000 C   0  0  0  0  0  0  0  0  0  0  0  0
   -9.3195   -0.5280   -0.0000 C   0  0  0  0  0  0  0  0  0  0  0  0
   -6.7454   -0.5280   -0.0000 C   0  0  0  0  0  0  0  0  0  0  0  0
  -10.6131   -1.2540   -0.0000 Cl  0  0  0  0  0  0  0  0  0  0  0  0
   -9.3327    0.9636   -0.0000 C   0  0  0  0  0  0  0  0  0  0  0  0
   -6.7586    0.9636   -0.0000 C   0  0  0  0  0  0  0  0  0  0  0  0
  -10.6263    1.7161   -0.0000 Cl  0  0  0  0  0  0  0  0  0  0  0  0
   -8.0655    1.7293   -0.0000 C   0  0  0  0  0  0  0  0  0  0  0  0
  1  2  1  0  0  0  0
  2  3  2  0  0  0  0
  2  4  1  0  0  0  0
  3  5  1  0  0  0  0
  3  6  1  0  0  0  0
  4  7  1  0  0  0  0
  4  8  2  0  0  0  0
  5  9  1  0  0  0  0
  6 10  1  0  0  0  0
  6 11  2  0  0  0  0
  9 12  1  0  0  0  0
 12 13  1  0  0  0  0
 13 14  1  0  0  0  0
 14 15  2  0  0  0  0
 14 16  1  0  0  0  0
 15 17  1  0  0  0  0
 16 18  2  0  0  0  0
 17 19  2  0  0  0  0
 19 20  1  0  0  0  0
 20 21  2  0  0  0  0
 20 22  1  0  0  0  0
 21 23  1  0  0  0  0
 21 24  1  0  0  0  0
 22 25  1  0  0  0  0
 23 26  2  0  0  0  0
 23 27  1  0  0  0  0
 24 28  1  6  0  0  0
 24 29  1  0  0  0  0
 25 30  1  0  0  0  0
 27 31  1  0  0  0  0
 27 32  1  0  0  0  0
 31 33  1  0  0  0  0
 31 34  1  0  0  0  0
 32 35  1  0  0  0  0
 35 36  2  0  0  0  0
 35 37  1  0  0  0  0
 36 38  1  0  0  0  0
 36 39  1  0  0  0  0
 37 40  2  0  0  0  0
 39 41  1  0  0  0  0
 39 42  2  0  0  0  0
  8 11  1  0  0  0  0
 18 19  1  0  0  0  0
 25 28  1  6  0  0  0
 29 30  1  0  0  0  0
 33 34  1  0  0  0  0
 40 42  1  0  0  0  0
M  END
>  <MolRegNo>
612470

>  <m>
=

>  <Value>
1900

>  <Unit>
nM

>  <Type>
IC50

>  <pValue>
5.72

>  <Ligand Efficiency>
0

>  <Binding Efficiency>
0

>  <Surface Efficiency>
0

>  <Assay Index>
465344

>  <Assay Category>


>  <Assay Organism>


>  <Target ID>
17045

>  <Target Name>
Cytochrome P450 3A4

>  <Target Organism>
Homo sapiens

>  <Target Description>
Target is a single protein chain

>  <Sequence Accession>
P08684

>  <Reference>
Bioorg Med Chem Lett 19 (23), 6762-6765 (2009)

>  <Pubmed ID>
19853442

>  <DOI>
10.1016/j.bmcl.2009.09.104

$$$$
612475
Actelion Java MolfileCreator 1.0

 44 49  0  0  0  0  0  0  0  0999 V2000
    0.0000   -0.0000   -0.0000 Cl  0  0  0  0  0  0  0  0  0  0  0  0
   -0.0130    1.4683   -0.0000 C   0  0  0  0  0  0  0  0  0  0  0  0
    1.2344    2.2089   -0.0000 C   0  0  0  0  0  0  0  0  0  0  0  0
   -1.2864    2.2089   -0.0000 C   0  0  0  0  0  0  0  0  0  0  0  0
    2.4818    1.4943   -0.0000 O   0  0  0  0  0  0  0  0  0  0  0  0
    1.2214    3.6772   -0.0000 C   0  0  0  0  0  0  0  0  0  0  0  0
   -2.5598    1.4943   -0.0000 F   0  0  0  0  0  0  0  0  0  0  0  0
   -1.2994    3.6902   -0.0000 C   0  0  0  0  0  0  0  0  0  0  0  0
    2.4688    0.0520   -0.0000 C   0  0  0  0  0  0  0  0  0  0  0  0
    2.4688    4.4179   -0.0000 F   0  0  0  0  0  0  0  0  0  0  0  0
   -0.0520    4.4179   -0.0000 C   0  0  0  0  0  0  0  0  0  0  0  0
    1.1954   -0.6627   -0.0000 C   0  0  0  0  0  0  0  0  0  0  0  0
    1.1824   -2.1050   -0.0000 C   0  0  0  0  0  0  0  0  0  0  0  0
   -0.0910   -2.8197   -0.0000 C   0  0  0  0  0  0  0  0  0  0  0  0
   -0.1040   -4.2620   -0.0000 C   0  0  0  0  0  0  0  0  0  0  0  0
   -1.3773   -2.0790   -0.0000 C   0  0  0  0  0  0  0  0  0  0  0  0
   -1.3773   -4.9766   -0.0000 C   0  0  0  0  0  0  0  0  0  0  0  0
   -2.6507   -2.7937   -0.0000 C   0  0  0  0  0  0  0  0  0  0  0  0
   -2.6507   -4.2230   -0.0000 C   0  0  0  0  0  0  0  0  0  0  0  0
   -3.8722   -5.0156   -0.0000 C   0  0  0  0  0  0  0  0  0  0  0  0
   -5.5354   -5.6653   -0.0000 C   0  0  0  0  0  0  0  0  0  0  0  0
   -5.2495   -6.3800   -0.0000 C   0  0  0  0  0  0  0  0  0  0  0  0
   -6.6139   -4.9376   -0.0000 C   0  0  0  0  0  0  0  0  0  0  0  0
   -5.5354   -7.0556   -0.0000 C   0  0  0  0  0  0  0  0  0  0  0  0
   -5.2625   -7.8613   -0.0000 C   0  0  0  0  0  0  0  0  0  0  0  0
   -7.8872   -5.6523   -0.0000 O   0  0  0  0  0  0  0  0  0  0  0  0
   -6.6139   -3.4693   -0.0000 N   0  0  0  0  0  0  0  0  0  0  0  0
   -7.0556   -8.2771   -0.0000 N   0  0  0  0  0  0  0  0  0  0  0  0
   -4.2880   -7.5104   -0.0000 C   0  0  0  0  0  0  0  0  0  0  0  0
   -3.9501   -8.3810   -0.0000 C   0  0  0  0  0  0  0  0  0  0  0  0
   -5.3664   -2.7547   -0.0000 C   0  0  0  0  0  0  0  0  0  0  0  0
   -7.8872   -2.7287   -0.0000 C   0  0  0  0  0  0  0  0  0  0  0  0
   -2.7547   -6.8867   -0.0000 O   0  0  0  0  0  0  0  0  0  0  0  0
   -4.5998   -1.5203   -0.0000 C   0  0  0  0  0  0  0  0  0  0  0  0
   -3.9241   -2.8067   -0.0000 C   0  0  0  0  0  0  0  0  0  0  0  0
   -7.9002   -1.2604   -0.0000 C   0  0  0  0  0  0  0  0  0  0  0  0
   -9.1736   -0.5198   -0.0000 C   0  0  0  0  0  0  0  0  0  0  0  0
   -6.6398   -0.5198   -0.0000 C   0  0  0  0  0  0  0  0  0  0  0  0
   -9.1866    0.9485   -0.0000 C   0  0  0  0  0  0  0  0  0  0  0  0
  -10.4470   -1.2344   -0.0000 C   0  0  0  0  0  0  0  0  0  0  0  0
   -6.6528    0.9485   -0.0000 C   0  0  0  0  0  0  0  0  0  0  0  0
  -10.4600    1.6892   -0.0000 O   0  0  0  0  0  0  0  0  0  0  0  0
   -7.9392    1.7022   -0.0000 C   0  0  0  0  0  0  0  0  0  0  0  0
  -10.4730    3.1575   -0.0000 C   0  0  0  0  0  0  0  0  0  0  0  0
  1  2  1  0  0  0  0
  2  3  2  0  0  0  0
  2  4  1  0  0  0  0
  3  5  1  0  0  0  0
  3  6  1  0  0  0  0
  4  7  1  0  0  0  0
  4  8  2  0  0  0  0
  5  9  1  0  0  0  0
  6 10  1  0  0  0  0
  6 11  2  0  0  0  0
  9 12  1  0  0  0  0
 12 13  1  0  0  0  0
 13 14  1  0  0  0  0
 14 15  2  0  0  0  0
 14 16  1  0  0  0  0
 15 17  1  0  0  0  0
 16 18  2  0  0  0  0
 17 19  2  0  0  0  0
 19 20  1  0  0  0  0
 20 21  2  0  0  0  0
 20 22  1  0  0  0  0
 21 23  1  0  0  0  0
 21 24  1  0  0  0  0
 22 25  1  0  0  0  0
 23 26  2  0  0  0  0
 23 27  1  0  0  0  0
 24 28  1  6  0  0  0
 24 29  1  0  0  0  0
 25 30  1  0  0  0  0
 27 31  1  0  0  0  0
 27 32  1  0  0  0  0
 29 33  1  0  0  0  0
 31 34  1  0  0  0  0
 31 35  1  0  0  0  0
 32 36  1  0  0  0  0
 36 37  2  0  0  0  0
 36 38  1  0  0  0  0
 37 39  1  0  0  0  0
 37 40  1  0  0  0  0
 38 41  2  0  0  0  0
 39 42  1  0  0  0  0
 39 43  2  0  0  0  0
 42 44  1  0  0  0  0
  8 11  1  0  0  0  0
 18 19  1  0  0  0  0
 25 28  1  6  0  0  0
 30 33  1  0  0  0  0
 34 35  1  0  0  0  0
 41 43  1  0  0  0  0
M  END
>  <MolRegNo>
612475

>  <m>
=

>  <Value>
1000

>  <Unit>
nM

>  <Type>
IC50

>  <pValue>
6

>  <Ligand Efficiency>
0

>  <Binding Efficiency>
0

>  <Surface Efficiency>
0

>  <Assay Index>
465344

>  <Assay Category>


>  <Assay Organism>


>  <Target ID>
17045

>  <Target Name>
Cytochrome P450 3A4

>  <Target Organism>
Homo sapiens

>  <Target Description>
Target is a single protein chain

>  <Sequence Accession>
P08684

>  <Reference>
Bioorg Med Chem Lett 19 (23), 6762-6765 (2009)

>  <Pubmed ID>
19853442

>  <DOI>
10.1016/j.bmcl.2009.09.104

$$$$
618469
Actelion Java MolfileCreator 1.0

 39 42  0  0  0  0  0  0  0  0999 V2000
    0.0000   -0.0000   -0.0000 S   0  0  0  0  0  0  0  0  0  0  0  0
    0.0473   -1.4913   -0.0000 C   0  0  0  0  0  0  0  0  0  0  0  0
    1.3966    0.5326   -0.0000 C   0  0  0  0  0  0  0  0  0  0  0  0
    1.4676   -1.8937   -0.0000 C   0  0  0  0  0  0  0  0  0  0  0  0
   -1.2664   -2.2132   -0.0000 C   0  0  0  0  0  0  0  0  0  0  0  0
    2.3079   -0.6391   -0.0000 N   0  0  0  0  0  0  0  0  0  0  0  0
   -2.5683   -1.4439   -0.0000 O   0  0  0  0  0  0  0  0  0  0  0  0
   -3.8820   -2.1659   -0.0000 C   0  0  0  0  0  0  0  0  0  0  0  0
   -3.9057   -3.6571   -0.0000 O   0  0  0  0  0  0  0  0  0  0  0  0
   -5.1839   -1.3966   -0.0000 N   0  0  0  0  0  0  0  0  0  0  0  0
   -6.4976   -2.1185   -0.0000 C   0  0  0  0  0  0  0  0  0  0  0  0
   -7.7995   -1.3492   -0.0000 C   0  0  0  0  0  0  0  0  0  0  0  0
   -6.5213   -3.6098   -0.0000 C   0  0  0  0  0  0  0  0  0  0  0  0
   -9.1132   -2.0712   -0.0000 N   0  0  0  0  0  0  0  0  0  0  0  0
   -7.8350   -4.3318   -0.0000 C   0  0  0  0  0  0  0  0  0  0  0  0
  -10.4151   -1.3019   -0.0000 C   0  0  0  0  0  0  0  0  0  0  0  0
   -9.1369   -3.5506   -0.0000 C   0  0  0  0  0  0  0  0  0  0  0  0
   -7.8587   -5.8112   -0.0000 C   0  0  0  0  0  0  0  0  0  0  0  0
  -11.7289   -2.0239   -0.0000 C   0  0  0  0  0  0  0  0  0  0  0  0
  -10.4506   -4.2726   -0.0000 C   0  0  0  0  0  0  0  0  0  0  0  0
   -9.1724   -6.5450   -0.0000 C   0  0  0  0  0  0  0  0  0  0  0  0
  -13.0308   -1.2546   -0.0000 N   0  0  0  0  0  0  0  0  0  0  0  0
  -11.7644   -3.5033   -0.0000 C   0  0  0  0  0  0  0  0  0  0  0  0
  -10.4743   -5.7638   -0.0000 C   0  0  0  0  0  0  0  0  0  0  0  0
  -14.3445   -1.9765   -0.0000 C   0  0  0  0  0  0  0  0  0  0  0  0
  -12.5218   -4.7933   -0.0000 C   0  0  0  0  0  0  0  0  0  0  0  0
  -14.3682   -3.4678   -0.0000 O   0  0  0  0  0  0  0  0  0  0  0  0
  -15.6464   -1.2072   -0.0000 O   0  0  0  0  0  0  0  0  0  0  0  0
  -14.0249   -4.7815   -0.0000 C   0  0  0  0  0  0  0  0  0  0  0  0
  -11.7762   -6.0597   -0.0000 C   0  0  0  0  0  0  0  0  0  0  0  0
  -16.9601   -1.9292   -0.0000 C   0  0  0  0  0  0  0  0  0  0  0  0
  -14.7824   -6.0597   -0.0000 C   0  0  0  0  0  0  0  0  0  0  0  0
  -12.5218   -7.3498   -0.0000 C   0  0  0  0  0  0  0  0  0  0  0  0
  -18.2620   -1.1599   -0.0000 C   0  0  0  0  0  0  0  0  0  0  0  0
  -14.0368   -7.3379   -0.0000 C   0  0  0  0  0  0  0  0  0  0  0  0
  -18.7591    0.2722   -0.0000 S   0  0  0  0  0  0  0  0  0  0  0  0
  -19.4810   -2.0475   -0.0000 N   0  0  0  0  0  0  0  0  0  0  0  0
  -20.2740    0.2604   -0.0000 C   0  0  0  0  0  0  0  0  0  0  0  0
  -20.7238   -1.1717   -0.0000 C   0  0  0  0  0  0  0  0  0  0  0  0
  1  2  1  0  0  0  0
  1  3  1  0  0  0  0
  2  4  2  0  0  0  0
  2  5  1  0  0  0  0
  3  6  2  0  0  0  0
  5  7  1  0  0  0  0
  7  8  1  0  0  0  0
  8  9  2  0  0  0  0
  8 10  1  0  0  0  0
 11 10  1  1  0  0  0
 11 12  1  0  0  0  0
 11 13  1  0  0  0  0
 12 14  1  0  0  0  0
 13 15  1  0  0  0  0
 14 16  1  0  0  0  0
 15 17  2  0  0  0  0
 15 18  1  0  0  0  0
 16 19  1  0  0  0  0
 17 20  1  0  0  0  0
 18 21  2  0  0  0  0
 19 22  1  6  0  0  0
 19 23  1  0  0  0  0
 20 24  2  0  0  0  0
 22 25  1  0  0  0  0
 23 26  1  0  0  0  0
 25 27  2  0  0  0  0
 25 28  1  0  0  0  0
 26 29  2  0  0  0  0
 26 30  1  0  0  0  0
 28 31  1  0  0  0  0
 29 32  1  0  0  0  0
 30 33  2  0  0  0  0
 31 34  1  0  0  0  0
 32 35  2  0  0  0  0
 34 36  1  0  0  0  0
 34 37  2  0  0  0  0
 36 38  1  0  0  0  0
 37 39  1  0  0  0  0
  4  6  1  0  0  0  0
 21 24  1  0  0  0  0
 33 35  1  0  0  0  0
 38 39  2  0  0  0  0
M  END
>  <MolRegNo>
618469

>  <m>
=

>  <Value>
148

>  <Unit>
nM

>  <Type>
IC50

>  <pValue>
6.83

>  <Ligand Efficiency>
0

>  <Binding Efficiency>
0

>  <Surface Efficiency>
0

>  <Assay Index>
466899

>  <Assay Category>


>  <Assay Organism>
Homo sapiens

>  <Target ID>
17045

>  <Target Name>
Cytochrome P450 3A4

>  <Target Organism>
Homo sapiens

>  <Target Description>
Target is a single protein chain

>  <Sequence Accession>
P08684

>  <Reference>
Bioorg Med Chem Lett 19 (18), 5444-5448 (2009)

>  <Pubmed ID>
19679477

>  <DOI>
10.1016/j.bmcl.2009.07.118

$$$$
618470
Actelion Java MolfileCreator 1.0

 39 42  0  0  0  0  0  0  0  0999 V2000
    0.0000   -0.0000   -0.0000 S   0  0  0  0  0  0  0  0  0  0  0  0
    0.0476   -1.4986   -0.0000 C   0  0  0  0  0  0  0  0  0  0  0  0
    1.3916    0.5233   -0.0000 C   0  0  0  0  0  0  0  0  0  0  0  0
    1.4748   -1.8911   -0.0000 C   0  0  0  0  0  0  0  0  0  0  0  0
   -1.2726   -2.2242   -0.0000 C   0  0  0  0  0  0  0  0  0  0  0  0
    2.3074   -0.6542   -0.0000 N   0  0  0  0  0  0  0  0  0  0  0  0
   -2.5691   -1.4511   -0.0000 O   0  0  0  0  0  0  0  0  0  0  0  0
   -3.8893   -2.1766   -0.0000 C   0  0  0  0  0  0  0  0  0  0  0  0
   -3.9131   -3.6633   -0.0000 O   0  0  0  0  0  0  0  0  0  0  0  0
   -5.1857   -1.4035   -0.0000 N   0  0  0  0  0  0  0  0  0  0  0  0
   -6.5059   -2.1290   -0.0000 C   0  0  0  0  0  0  0  0  0  0  0  0
   -7.8024   -1.3559   -0.0000 C   0  0  0  0  0  0  0  0  0  0  0  0
   -6.5297   -3.6157   -0.0000 C   0  0  0  0  0  0  0  0  0  0  0  0
   -9.1226   -2.0814   -0.0000 N   0  0  0  0  0  0  0  0  0  0  0  0
   -7.8500   -4.3413   -0.0000 C   0  0  0  0  0  0  0  0  0  0  0  0
  -10.4190   -1.3083   -0.0000 C   0  0  0  0  0  0  0  0  0  0  0  0
   -9.1464   -3.5682   -0.0000 C   0  0  0  0  0  0  0  0  0  0  0  0
   -7.8737   -5.8161   -0.0000 C   0  0  0  0  0  0  0  0  0  0  0  0
  -11.7392   -2.0339   -0.0000 C   0  0  0  0  0  0  0  0  0  0  0  0
  -10.4666   -4.2937   -0.0000 C   0  0  0  0  0  0  0  0  0  0  0  0
   -9.1821   -6.5416   -0.0000 C   0  0  0  0  0  0  0  0  0  0  0  0
  -13.0357   -1.2607   -0.0000 N   0  0  0  0  0  0  0  0  0  0  0  0
  -11.7749   -3.5087   -0.0000 C   0  0  0  0  0  0  0  0  0  0  0  0
  -10.4904   -5.7804   -0.0000 C   0  0  0  0  0  0  0  0  0  0  0  0
  -14.3559   -1.9863   -0.0000 C   0  0  0  0  0  0  0  0  0  0  0  0
  -12.5242   -4.7932   -0.0000 C   0  0  0  0  0  0  0  0  0  0  0  0
  -14.3797   -3.4730   -0.0000 O   0  0  0  0  0  0  0  0  0  0  0  0
  -15.6523   -1.2132   -0.0000 O   0  0  0  0  0  0  0  0  0  0  0  0
  -14.0348   -4.7813   -0.0000 C   0  0  0  0  0  0  0  0  0  0  0  0
  -11.7868   -6.0659   -0.0000 C   0  0  0  0  0  0  0  0  0  0  0  0
  -16.9725   -1.9387   -0.0000 C   0  0  0  0  0  0  0  0  0  0  0  0
  -14.7841   -6.0659   -0.0000 C   0  0  0  0  0  0  0  0  0  0  0  0
  -12.5361   -7.3504   -0.0000 C   0  0  0  0  0  0  0  0  0  0  0  0
  -18.2690   -1.1656   -0.0000 C   0  0  0  0  0  0  0  0  0  0  0  0
  -14.0467   -7.3385   -0.0000 C   0  0  0  0  0  0  0  0  0  0  0  0
  -18.7685    0.2855   -0.0000 S   0  0  0  0  0  0  0  0  0  0  0  0
  -19.4821   -2.0576   -0.0000 N   0  0  0  0  0  0  0  0  0  0  0  0
  -20.2790    0.2736   -0.0000 C   0  0  0  0  0  0  0  0  0  0  0  0
  -20.7191   -1.1775   -0.0000 C   0  0  0  0  0  0  0  0  0  0  0  0
  1  2  1  0  0  0  0
  1  3  1  0  0  0  0
  2  4  2  0  0  0  0
  2  5  1  0  0  0  0
  3  6  2  0  0  0  0
  5  7  1  0  0  0  0
  7  8  1  0  0  0  0
  8  9  2  0  0  0  0
  8 10  1  0  0  0  0
 11 10  1  6  0  0  0
 11 12  1  0  0  0  0
 11 13  1  0  0  0  0
 12 14  1  0  0  0  0
 13 15  1  0  0  0  0
 14 16  1  0  0  0  0
 15 17  2  0  0  0  0
 15 18  1  0  0  0  0
 16 19  1  0  0  0  0
 17 20  1  0  0  0  0
 18 21  2  0  0  0  0
 19 22  1  6  0  0  0
 19 23  1  0  0  0  0
 20 24  2  0  0  0  0
 22 25  1  0  0  0  0
 23 26  1  0  0  0  0
 25 27  2  0  0  0  0
 25 28  1  0  0  0  0
 26 29  2  0  0  0  0
 26 30  1  0  0  0  0
 28 31  1  0  0  0  0
 29 32  1  0  0  0  0
 30 33  2  0  0  0  0
 31 34  1  0  0  0  0
 32 35  2  0  0  0  0
 34 36  1  0  0  0  0
 34 37  2  0  0  0  0
 36 38  1  0  0  0  0
 37 39  1  0  0  0  0
  4  6  1  0  0  0  0
 21 24  1  0  0  0  0
 33 35  1  0  0  0  0
 38 39  2  0  0  0  0
M  END
>  <MolRegNo>
618470

>  <m>
=

>  <Value>
90

>  <Unit>
nM

>  <Type>
IC50

>  <pValue>
7.05

>  <Ligand Efficiency>
0

>  <Binding Efficiency>
0

>  <Surface Efficiency>
0

>  <Assay Index>
466899

>  <Assay Category>


>  <Assay Organism>
Homo sapiens

>  <Target ID>
17045

>  <Target Name>
Cytochrome P450 3A4

>  <Target Organism>
Homo sapiens

>  <Target Description>
Target is a single protein chain

>  <Sequence Accession>
P08684

>  <Reference>
Bioorg Med Chem Lett 19 (18), 5444-5448 (2009)

>  <Pubmed ID>
19679477

>  <DOI>
10.1016/j.bmcl.2009.07.118

$$$$
618472
Actelion Java MolfileCreator 1.0

 58 63  0  0  0  0  0  0  0  0999 V2000
    0.0000   -0.0000   -0.0000 S   0  0  0  0  0  0  0  0  0  0  0  0
    1.2473    0.8315   -0.0000 C   0  0  0  0  0  0  0  0  0  0  0  0
   -1.1760    0.9622   -0.0000 C   0  0  0  0  0  0  0  0  0  0  0  0
    0.8434    2.2927   -0.0000 C   0  0  0  0  0  0  0  0  0  0  0  0
    2.5421    0.0950   -0.0000 C   0  0  0  0  0  0  0  0  0  0  0  0
   -0.6533    2.3758   -0.0000 N   0  0  0  0  0  0  0  0  0  0  0  0
    2.5421   -1.4017   -0.0000 O   0  0  0  0  0  0  0  0  0  0  0  0
    3.8369   -2.1382   -0.0000 C   0  0  0  0  0  0  0  0  0  0  0  0
    5.1199   -1.3661   -0.0000 O   0  0  0  0  0  0  0  0  0  0  0  0
    3.8369   -3.6350   -0.0000 N   0  0  0  0  0  0  0  0  0  0  0  0
    5.1318   -4.3715   -0.0000 C   0  0  0  0  0  0  0  0  0  0  0  0
    5.1318   -5.8683   -0.0000 C   0  0  0  0  0  0  0  0  0  0  0  0
    6.4147   -3.5994   -0.0000 C   0  0  0  0  0  0  0  0  0  0  0  0
    3.8132   -6.6048   -0.0000 N   0  0  0  0  0  0  0  0  0  0  0  0
    7.7095   -4.3359   -0.0000 C   0  0  0  0  0  0  0  0  0  0  0  0
    2.5065   -5.8326   -0.0000 C   0  0  0  0  0  0  0  0  0  0  0  0
    3.7894   -8.1015   -0.0000 C   0  0  0  0  0  0  0  0  0  0  0  0
    7.6976   -5.8207   -0.0000 C   0  0  0  0  0  0  0  0  0  0  0  0
    8.9806   -3.5518   -0.0000 C   0  0  0  0  0  0  0  0  0  0  0  0
    1.1879   -6.5572   -0.0000 C   0  0  0  0  0  0  0  0  0  0  0  0
    5.0724   -8.8499   -0.0000 C   0  0  0  0  0  0  0  0  0  0  0  0
    8.9925   -6.5572   -0.0000 C   0  0  0  0  0  0  0  0  0  0  0  0
   10.2754   -4.2765   -0.0000 C   0  0  0  0  0  0  0  0  0  0  0  0
   -0.1188   -5.7851   -0.0000 N   0  0  0  0  0  0  0  0  0  0  0  0
    1.1523   -8.0421   -0.0000 C   0  0  0  0  0  0  0  0  0  0  0  0
    5.0486  -10.3467   -0.0000 N   0  0  0  0  0  0  0  0  0  0  0  0
    6.3672   -8.1015   -0.0000 C   0  0  0  0  0  0  0  0  0  0  0  0
   10.2754   -5.7851   -0.0000 C   0  0  0  0  0  0  0  0  0  0  0  0
   -1.4374   -6.5097   -0.0000 C   0  0  0  0  0  0  0  0  0  0  0  0
    0.3920   -9.3370   -0.0000 C   0  0  0  0  0  0  0  0  0  0  0  0
    3.7300  -11.0713   -0.0000 C   0  0  0  0  0  0  0  0  0  0  0  0
    7.6501   -8.8499   -0.0000 C   0  0  0  0  0  0  0  0  0  0  0  0
   -1.4611   -8.0065   -0.0000 O   0  0  0  0  0  0  0  0  0  0  0  0
   -2.7441   -5.7376   -0.0000 O   0  0  0  0  0  0  0  0  0  0  0  0
   -1.1166   -9.3251   -0.0000 C   0  0  0  0  0  0  0  0  0  0  0  0
    1.1404  -10.6080   -0.0000 C   0  0  0  0  0  0  0  0  0  0  0  0
    2.4233  -10.2992   -0.0000 O   0  0  0  0  0  0  0  0  0  0  0  0
    3.7063  -12.5681   -0.0000 O   0  0  0  0  0  0  0  0  0  0  0  0
    7.6145  -10.3467   -0.0000 C   0  0  0  0  0  0  0  0  0  0  0  0
    8.9449   -8.1015   -0.0000 C   0  0  0  0  0  0  0  0  0  0  0  0
   -4.0626   -6.4622   -0.0000 C   0  0  0  0  0  0  0  0  0  0  0  0
   -1.8769  -10.6080   -0.0000 C   0  0  0  0  0  0  0  0  0  0  0  0
    0.3920  -11.9028   -0.0000 C   0  0  0  0  0  0  0  0  0  0  0  0
    2.3877  -13.2927   -0.0000 C   0  0  0  0  0  0  0  0  0  0  0  0
    8.8974  -11.0951   -0.0000 C   0  0  0  0  0  0  0  0  0  0  0  0
   10.2279   -8.8499   -0.0000 C   0  0  0  0  0  0  0  0  0  0  0  0
   -5.3693   -5.6901   -0.0000 C   0  0  0  0  0  0  0  0  0  0  0  0
   -1.1285  -11.8910   -0.0000 C   0  0  0  0  0  0  0  0  0  0  0  0
    2.3639  -14.7894   -0.0000 C   0  0  0  0  0  0  0  0  0  0  0  0
   10.1922  -10.3467   -0.0000 C   0  0  0  0  0  0  0  0  0  0  0  0
   -5.8683   -4.2527   -0.0000 S   0  0  0  0  0  0  0  0  0  0  0  0
   -6.5929   -6.5810   -0.0000 N   0  0  0  0  0  0  0  0  0  0  0  0
    3.5637  -15.6804   -0.0000 S   0  0  0  0  0  0  0  0  0  0  0  0
    1.1404  -15.6566   -0.0000 C   0  0  0  0  0  0  0  0  0  0  0  0
   -7.3888   -4.2646   -0.0000 C   0  0  0  0  0  0  0  0  0  0  0  0
   -7.8402   -5.7020   -0.0000 C   0  0  0  0  0  0  0  0  0  0  0  0
    3.0767  -17.0940   -0.0000 C   0  0  0  0  0  0  0  0  0  0  0  0
    1.5799  -17.0821   -0.0000 N   0  0  0  0  0  0  0  0  0  0  0  0
  1  2  1  0  0  0  0
  1  3  1  0  0  0  0
  2  4  2  0  0  0  0
  2  5  1  0  0  0  0
  3  6  2  0  0  0  0
  5  7  1  0  0  0  0
  7  8  1  0  0  0  0
  8  9  2  0  0  0  0
  8 10  1  0  0  0  0
 10 11  1  0  0  0  0
 11 12  1  0  0  0  0
 11 13  1  0  0  0  0
 12 14  1  0  0  0  0
 13 15  1  0  0  0  0
 14 16  1  0  0  0  0
 14 17  1  0  0  0  0
 15 18  2  0  0  0  0
 15 19  1  0  0  0  0
 16 20  1  0  0  0  0
 17 21  1  0  0  0  0
 18 22  1  0  0  0  0
 19 23  2  0  0  0  0
 20 24  1  0  0  0  0
 20 25  1  0  0  0  0
 21 26  1  0  0  0  0
 21 27  1  0  0  0  0
 22 28  2  0  0  0  0
 24 29  1  0  0  0  0
 25 30  1  0  0  0  0
 26 31  1  0  0  0  0
 27 32  1  0  0  0  0
 29 33  2  0  0  0  0
 29 34  1  0  0  0  0
 30 35  2  0  0  0  0
 30 36  1  0  0  0  0
 31 37  2  0  0  0  0
 31 38  1  0  0  0  0
 32 39  2  0  0  0  0
 32 40  1  0  0  0  0
 34 41  1  0  0  0  0
 35 42  1  0  0  0  0
 36 43  2  0  0  0  0
 38 44  1  0  0  0  0
 39 45  1  0  0  0  0
 40 46  2  0  0  0  0
 41 47  1  0  0  0  0
 42 48  2  0  0  0  0
 44 49  1  0  0  0  0
 45 50  2  0  0  0  0
 47 51  1  0  0  0  0
 47 52  2  0  0  0  0
 49 53  1  0  0  0  0
 49 54  2  0  0  0  0
 51 55  1  0  0  0  0
 52 56  1  0  0  0  0
 53 57  1  0  0  0  0
 54 58  1  0  0  0  0
  4  6  1  0  0  0  0
 23 28  1  0  0  0  0
 43 48  1  0  0  0  0
 46 50  1  0  0  0  0
 55 56  2  0  0  0  0
 57 58  2  0  0  0  0
M  END
>  <MolRegNo>
618472

>  <m>
=

>  <Value>
65

>  <Unit>
nM

>  <Type>
IC50

>  <pValue>
7.19

>  <Ligand Efficiency>
0

>  <Binding Efficiency>
0

>  <Surface Efficiency>
0

>  <Assay Index>
466899

>  <Assay Category>


>  <Assay Organism>
Homo sapiens

>  <Target ID>
17045

>  <Target Name>
Cytochrome P450 3A4

>  <Target Organism>
Homo sapiens

>  <Target Description>
Target is a single protein chain

>  <Sequence Accession>
P08684

>  <Reference>
Bioorg Med Chem Lett 19 (18), 5444-5448 (2009)

>  <Pubmed ID>
19679477

>  <DOI>
10.1016/j.bmcl.2009.07.118

$$$$
618473
Actelion Java MolfileCreator 1.0

 44 47  0  0  0  0  0  0  0  0999 V2000
    0.0000   -0.0000   -0.0000 S   0  0  0  0  0  0  0  0  0  0  0  0
    1.2229    0.8667   -0.0000 C   0  0  0  0  0  0  0  0  0  0  0  0
   -1.2111    0.9261   -0.0000 C   0  0  0  0  0  0  0  0  0  0  0  0
    0.7836    2.3153   -0.0000 C   0  0  0  0  0  0  0  0  0  0  0  0
    2.5408    0.1781   -0.0000 C   0  0  0  0  0  0  0  0  0  0  0  0
   -0.7243    2.3509   -0.0000 N   0  0  0  0  0  0  0  0  0  0  0  0
    2.5883   -1.3060   -0.0000 O   0  0  0  0  0  0  0  0  0  0  0  0
    3.9062   -1.9947   -0.0000 C   0  0  0  0  0  0  0  0  0  0  0  0
    5.1648   -1.1873   -0.0000 O   0  0  0  0  0  0  0  0  0  0  0  0
    3.9537   -3.4788   -0.0000 N   0  0  0  0  0  0  0  0  0  0  0  0
    5.2717   -4.1675   -0.0000 C   0  0  0  0  0  0  0  0  0  0  0  0
    5.3191   -5.6635   -0.0000 C   0  0  0  0  0  0  0  0  0  0  0  0
    6.5302   -3.3601   -0.0000 C   0  0  0  0  0  0  0  0  0  0  0  0
    4.0012   -6.3877   -0.0000 N   0  0  0  0  0  0  0  0  0  0  0  0
    7.8481   -4.0487   -0.0000 C   0  0  0  0  0  0  0  0  0  0  0  0
    3.9775   -7.8837   -0.0000 C   0  0  0  0  0  0  0  0  0  0  0  0
    2.6952   -5.6160   -0.0000 C   0  0  0  0  0  0  0  0  0  0  0  0
    7.8837   -5.5447   -0.0000 C   0  0  0  0  0  0  0  0  0  0  0  0
    9.0948   -3.2414   -0.0000 C   0  0  0  0  0  0  0  0  0  0  0  0
    5.2598   -8.6317   -0.0000 C   0  0  0  0  0  0  0  0  0  0  0  0
    1.3773   -6.3402   -0.0000 C   0  0  0  0  0  0  0  0  0  0  0  0
    9.2016   -6.2334   -0.0000 C   0  0  0  0  0  0  0  0  0  0  0  0
   10.4127   -3.9300   -0.0000 C   0  0  0  0  0  0  0  0  0  0  0  0
    5.2360  -10.1278   -0.0000 C   0  0  0  0  0  0  0  0  0  0  0  0
    6.5539   -7.8837   -0.0000 C   0  0  0  0  0  0  0  0  0  0  0  0
    4.1793   -9.6766   -0.0000 C   0  0  0  0  0  0  0  0  0  0  0  0
    0.0712   -5.5685   -0.0000 N   0  0  0  0  0  0  0  0  0  0  0  0
    1.3535   -7.8362   -0.0000 C   0  0  0  0  0  0  0  0  0  0  0  0
   10.4602   -5.4260   -0.0000 C   0  0  0  0  0  0  0  0  0  0  0  0
   -1.2467   -6.2927   -0.0000 C   0  0  0  0  0  0  0  0  0  0  0  0
    0.6174   -9.1423   -0.0000 C   0  0  0  0  0  0  0  0  0  0  0  0
   -1.2704   -7.7888   -0.0000 O   0  0  0  0  0  0  0  0  0  0  0  0
   -2.5527   -5.5210   -0.0000 O   0  0  0  0  0  0  0  0  0  0  0  0
   -0.8905   -9.1779   -0.0000 C   0  0  0  0  0  0  0  0  0  0  0  0
    1.3892  -10.4008   -0.0000 C   0  0  0  0  0  0  0  0  0  0  0  0
   -3.8706   -6.2452   -0.0000 C   0  0  0  0  0  0  0  0  0  0  0  0
   -1.6147  -10.4839   -0.0000 C   0  0  0  0  0  0  0  0  0  0  0  0
    0.6768  -11.7069   -0.0000 C   0  0  0  0  0  0  0  0  0  0  0  0
   -5.1767   -5.4735   -0.0000 C   0  0  0  0  0  0  0  0  0  0  0  0
   -0.8430  -11.7425   -0.0000 C   0  0  0  0  0  0  0  0  0  0  0  0
   -5.6753   -4.0369   -0.0000 S   0  0  0  0  0  0  0  0  0  0  0  0
   -6.3996   -6.3640   -0.0000 N   0  0  0  0  0  0  0  0  0  0  0  0
   -7.1951   -4.0487   -0.0000 C   0  0  0  0  0  0  0  0  0  0  0  0
   -7.6463   -5.4854   -0.0000 C   0  0  0  0  0  0  0  0  0  0  0  0
  1  2  1  0  0  0  0
  1  3  1  0  0  0  0
  2  4  2  0  0  0  0
  2  5  1  0  0  0  0
  3  6  2  0  0  0  0
  5  7  1  0  0  0  0
  7  8  1  0  0  0  0
  8  9  2  0  0  0  0
  8 10  1  0  0  0  0
 10 11  1  0  0  0  0
 11 12  1  0  0  0  0
 11 13  1  0  0  0  0
 12 14  1  0  0  0  0
 13 15  1  0  0  0  0
 14 16  1  0  0  0  0
 14 17  1  0  0  0  0
 15 18  2  0  0  0  0
 15 19  1  0  0  0  0
 16 20  1  0  0  0  0
 17 21  1  0  0  0  0
 18 22  1  0  0  0  0
 19 23  2  0  0  0  0
 20 24  1  0  0  0  0
 20 25  1  0  0  0  0
 20 26  1  0  0  0  0
 21 27  1  0  0  0  0
 21 28  1  0  0  0  0
 22 29  2  0  0  0  0
 27 30  1  0  0  0  0
 28 31  1  0  0  0  0
 30 32  2  0  0  0  0
 30 33  1  0  0  0  0
 31 34  2  0  0  0  0
 31 35  1  0  0  0  0
 33 36  1  0  0  0  0
 34 37  1  0  0  0  0
 35 38  2  0  0  0  0
 36 39  1  0  0  0  0
 37 40  2  0  0  0  0
 39 41  1  0  0  0  0
 39 42  2  0  0  0  0
 41 43  1  0  0  0  0
 42 44  1  0  0  0  0
  4  6  1  0  0  0  0
 23 29  1  0  0  0  0
 38 40  1  0  0  0  0
 43 44  2  0  0  0  0
M  END
>  <MolRegNo>
618473

>  <m>
=

>  <Value>
110

>  <Unit>
nM

>  <Type>
IC50

>  <pValue>
6.96

>  <Ligand Efficiency>
0

>  <Binding Efficiency>
0

>  <Surface Efficiency>
0

>  <Assay Index>
466899

>  <Assay Category>


>  <Assay Organism>
Homo sapiens

>  <Target ID>
17045

>  <Target Name>
Cytochrome P450 3A4

>  <Target Organism>
Homo sapiens

>  <Target Description>
Target is a single protein chain

>  <Sequence Accession>
P08684

>  <Reference>
Bioorg Med Chem Lett 19 (18), 5444-5448 (2009)

>  <Pubmed ID>
19679477

>  <DOI>
10.1016/j.bmcl.2009.07.118

$$$$
618474
Actelion Java MolfileCreator 1.0

 44 47  0  0  0  0  0  0  0  0999 V2000
    0.0000   -0.0000   -0.0000 S   0  0  0  0  0  0  0  0  0  0  0  0
    1.2376    0.8449   -0.0000 C   0  0  0  0  0  0  0  0  0  0  0  0
   -1.1900    0.9401   -0.0000 C   0  0  0  0  0  0  0  0  0  0  0  0
    0.8211    2.2966   -0.0000 C   0  0  0  0  0  0  0  0  0  0  0  0
    2.5465    0.1309   -0.0000 C   0  0  0  0  0  0  0  0  0  0  0  0
   -0.6783    2.3561   -0.0000 N   0  0  0  0  0  0  0  0  0  0  0  0
    2.5584   -1.3566   -0.0000 O   0  0  0  0  0  0  0  0  0  0  0  0
    3.8674   -2.0705   -0.0000 C   0  0  0  0  0  0  0  0  0  0  0  0
    5.1407   -1.2852   -0.0000 O   0  0  0  0  0  0  0  0  0  0  0  0
    3.8793   -3.5580   -0.0000 N   0  0  0  0  0  0  0  0  0  0  0  0
    5.1883   -4.2720   -0.0000 C   0  0  0  0  0  0  0  0  0  0  0  0
    5.2121   -5.7713   -0.0000 C   0  0  0  0  0  0  0  0  0  0  0  0
    6.4615   -3.4866   -0.0000 C   0  0  0  0  0  0  0  0  0  0  0  0
    3.8912   -6.4972   -0.0000 N   0  0  0  0  0  0  0  0  0  0  0  0
    7.7705   -4.2006   -0.0000 C   0  0  0  0  0  0  0  0  0  0  0  0
    3.8674   -7.9847   -0.0000 C   0  0  0  0  0  0  0  0  0  0  0  0
    2.5822   -5.7237   -0.0000 C   0  0  0  0  0  0  0  0  0  0  0  0
    7.7824   -5.6880   -0.0000 C   0  0  0  0  0  0  0  0  0  0  0  0
    9.0437   -3.4152   -0.0000 C   0  0  0  0  0  0  0  0  0  0  0  0
    5.1526   -8.7344   -0.0000 C   0  0  0  0  0  0  0  0  0  0  0  0
    1.2614   -6.4496   -0.0000 C   0  0  0  0  0  0  0  0  0  0  0  0
    9.0794   -6.4020   -0.0000 C   0  0  0  0  0  0  0  0  0  0  0  0
   10.3408   -4.1292   -0.0000 C   0  0  0  0  0  0  0  0  0  0  0  0
    5.1288  -10.2218   -0.0000 C   0  0  0  0  0  0  0  0  0  0  0  0
    6.4496   -7.9847   -0.0000 C   0  0  0  0  0  0  0  0  0  0  0  0
    4.0697   -9.7696   -0.0000 C   0  0  0  0  0  0  0  0  0  0  0  0
   -0.0476   -5.6761   -0.0000 N   0  0  0  0  0  0  0  0  0  0  0  0
    1.2257   -7.9371   -0.0000 C   0  0  0  0  0  0  0  0  0  0  0  0
   10.3527   -5.6166   -0.0000 C   0  0  0  0  0  0  0  0  0  0  0  0
   -1.3685   -6.4020   -0.0000 C   0  0  0  0  0  0  0  0  0  0  0  0
    0.4641   -9.2341   -0.0000 C   0  0  0  0  0  0  0  0  0  0  0  0
   -1.3923   -7.8895   -0.0000 O   0  0  0  0  0  0  0  0  0  0  0  0
   -2.6774   -5.6285   -0.0000 O   0  0  0  0  0  0  0  0  0  0  0  0
   -1.0472   -9.2222   -0.0000 C   0  0  0  0  0  0  0  0  0  0  0  0
    1.2019  -10.5074   -0.0000 C   0  0  0  0  0  0  0  0  0  0  0  0
   -3.9983   -6.3544   -0.0000 C   0  0  0  0  0  0  0  0  0  0  0  0
   -1.7968  -10.5074   -0.0000 C   0  0  0  0  0  0  0  0  0  0  0  0
    0.4522  -11.7926   -0.0000 C   0  0  0  0  0  0  0  0  0  0  0  0
   -5.3072   -5.5809   -0.0000 C   0  0  0  0  0  0  0  0  0  0  0  0
   -1.0472  -11.7926   -0.0000 C   0  0  0  0  0  0  0  0  0  0  0  0
   -5.8070   -4.1411   -0.0000 S   0  0  0  0  0  0  0  0  0  0  0  0
   -6.5448   -6.4734   -0.0000 N   0  0  0  0  0  0  0  0  0  0  0  0
   -7.3302   -4.1530   -0.0000 C   0  0  0  0  0  0  0  0  0  0  0  0
   -7.7943   -5.5928   -0.0000 C   0  0  0  0  0  0  0  0  0  0  0  0
  1  2  1  0  0  0  0
  1  3  1  0  0  0  0
  2  4  2  0  0  0  0
  2  5  1  0  0  0  0
  3  6  2  0  0  0  0
  5  7  1  0  0  0  0
  7  8  1  0  0  0  0
  8  9  2  0  0  0  0
  8 10  1  0  0  0  0
 11 10  1  6  0  0  0
 11 12  1  0  0  0  0
 11 13  1  0  0  0  0
 12 14  1  0  0  0  0
 13 15  1  0  0  0  0
 14 16  1  0  0  0  0
 14 17  1  0  0  0  0
 15 18  2  0  0  0  0
 15 19  1  0  0  0  0
 16 20  1  0  0  0  0
 17 21  1  0  0  0  0
 18 22  1  0  0  0  0
 19 23  2  0  0  0  0
 20 24  1  0  0  0  0
 20 25  1  0  0  0  0
 20 26  1  0  0  0  0
 21 27  1  6  0  0  0
 21 28  1  0  0  0  0
 22 29  2  0  0  0  0
 27 30  1  0  0  0  0
 28 31  1  0  0  0  0
 30 32  2  0  0  0  0
 30 33  1  0  0  0  0
 31 34  2  0  0  0  0
 31 35  1  0  0  0  0
 33 36  1  0  0  0  0
 34 37  1  0  0  0  0
 35 38  2  0  0  0  0
 36 39  1  0  0  0  0
 37 40  2  0  0  0  0
 39 41  1  0  0  0  0
 39 42  2  0  0  0  0
 41 43  1  0  0  0  0
 42 44  1  0  0  0  0
  4  6  1  0  0  0  0
 23 29  1  0  0  0  0
 38 40  1  0  0  0  0
 43 44  2  0  0  0  0
M  END
>  <MolRegNo>
618474

>  <m>
=

>  <Value>
100

>  <Unit>
nM

>  <Type>
IC50

>  <pValue>
7

>  <Ligand Efficiency>
0

>  <Binding Efficiency>
0

>  <Surface Efficiency>
0

>  <Assay Index>
466899

>  <Assay Category>


>  <Assay Organism>
Homo sapiens

>  <Target ID>
17045

>  <Target Name>
Cytochrome P450 3A4

>  <Target Organism>
Homo sapiens

>  <Target Description>
Target is a single protein chain

>  <Sequence Accession>
P08684

>  <Reference>
Bioorg Med Chem Lett 19 (18), 5444-5448 (2009)

>  <Pubmed ID>
19679477

>  <DOI>
10.1016/j.bmcl.2009.07.118

$$$$
618641
Actelion Java MolfileCreator 1.0

 41 44  0  0  0  0  0  0  0  0999 V2000
    0.0000   -0.0000   -0.0000 S   0  0  0  0  0  0  0  0  0  0  0  0
    0.0474   -1.4942   -0.0000 C   0  0  0  0  0  0  0  0  0  0  0  0
    1.3993    0.5336   -0.0000 C   0  0  0  0  0  0  0  0  0  0  0  0
    1.4705   -1.8974   -0.0000 C   0  0  0  0  0  0  0  0  0  0  0  0
   -1.2689   -2.2176   -0.0000 C   0  0  0  0  0  0  0  0  0  0  0  0
    2.3124   -0.6404   -0.0000 N   0  0  0  0  0  0  0  0  0  0  0  0
   -2.5733   -1.4468   -0.0000 O   0  0  0  0  0  0  0  0  0  0  0  0
   -3.8896   -2.1701   -0.0000 C   0  0  0  0  0  0  0  0  0  0  0  0
   -3.9133   -3.6643   -0.0000 O   0  0  0  0  0  0  0  0  0  0  0  0
   -5.1941   -1.3993   -0.0000 N   0  0  0  0  0  0  0  0  0  0  0  0
   -6.5104   -2.1227   -0.0000 C   0  0  0  0  0  0  0  0  0  0  0  0
   -7.8148   -1.3519   -0.0000 C   0  0  0  0  0  0  0  0  0  0  0  0
   -6.5341   -3.6169   -0.0000 C   0  0  0  0  0  0  0  0  0  0  0  0
   -9.1311   -2.0753   -0.0000 N   0  0  0  0  0  0  0  0  0  0  0  0
   -5.7989   -4.8976   -0.0000 C   0  0  0  0  0  0  0  0  0  0  0  0
  -10.4356   -1.3044   -0.0000 C   0  0  0  0  0  0  0  0  0  0  0  0
   -9.1549   -3.5694   -0.0000 C   0  0  0  0  0  0  0  0  0  0  0  0
   -6.5697   -6.1783   -0.0000 C   0  0  0  0  0  0  0  0  0  0  0  0
   -4.3165   -4.8858   -0.0000 C   0  0  0  0  0  0  0  0  0  0  0  0
  -11.7519   -2.0278   -0.0000 C   0  0  0  0  0  0  0  0  0  0  0  0
  -10.4712   -4.2928   -0.0000 C   0  0  0  0  0  0  0  0  0  0  0  0
   -5.8344   -7.4709   -0.0000 C   0  0  0  0  0  0  0  0  0  0  0  0
   -3.5813   -6.1665   -0.0000 C   0  0  0  0  0  0  0  0  0  0  0  0
  -13.0564   -1.2570   -0.0000 N   0  0  0  0  0  0  0  0  0  0  0  0
  -11.7875   -3.5102   -0.0000 C   0  0  0  0  0  0  0  0  0  0  0  0
   -4.3403   -7.4591   -0.0000 C   0  0  0  0  0  0  0  0  0  0  0  0
  -14.3727   -1.9804   -0.0000 C   0  0  0  0  0  0  0  0  0  0  0  0
  -12.5464   -4.8027   -0.0000 C   0  0  0  0  0  0  0  0  0  0  0  0
  -14.3964   -3.4746   -0.0000 O   0  0  0  0  0  0  0  0  0  0  0  0
  -15.6771   -1.2096   -0.0000 O   0  0  0  0  0  0  0  0  0  0  0  0
  -14.0525   -4.7909   -0.0000 C   0  0  0  0  0  0  0  0  0  0  0  0
  -11.7993   -6.0716   -0.0000 C   0  0  0  0  0  0  0  0  0  0  0  0
  -16.9934   -1.9330   -0.0000 C   0  0  0  0  0  0  0  0  0  0  0  0
  -14.8114   -6.0716   -0.0000 C   0  0  0  0  0  0  0  0  0  0  0  0
  -12.5464   -7.3642   -0.0000 C   0  0  0  0  0  0  0  0  0  0  0  0
  -18.2979   -1.1621   -0.0000 C   0  0  0  0  0  0  0  0  0  0  0  0
  -14.0643   -7.3524   -0.0000 C   0  0  0  0  0  0  0  0  0  0  0  0
  -18.7959    0.2727   -0.0000 S   0  0  0  0  0  0  0  0  0  0  0  0
  -19.5193   -2.0515   -0.0000 N   0  0  0  0  0  0  0  0  0  0  0  0
  -20.3138    0.2609   -0.0000 C   0  0  0  0  0  0  0  0  0  0  0  0
  -20.7645   -1.1740   -0.0000 C   0  0  0  0  0  0  0  0  0  0  0  0
  1  2  1  0  0  0  0
  1  3  1  0  0  0  0
  2  4  2  0  0  0  0
  2  5  1  0  0  0  0
  3  6  2  0  0  0  0
  5  7  1  0  0  0  0
  7  8  1  0  0  0  0
  8  9  2  0  0  0  0
  8 10  1  0  0  0  0
 11 10  1  1  0  0  0
 11 12  1  0  0  0  0
 11 13  1  0  0  0  0
 12 14  1  0  0  0  0
 13 15  1  0  0  0  0
 14 16  1  0  0  0  0
 14 17  1  0  0  0  0
 15 18  2  0  0  0  0
 15 19  1  0  0  0  0
 16 20  1  0  0  0  0
 17 21  1  0  0  0  0
 18 22  1  0  0  0  0
 19 23  2  0  0  0  0
 20 24  1  6  0  0  0
 20 25  1  0  0  0  0
 22 26  2  0  0  0  0
 24 27  1  0  0  0  0
 25 28  1  0  0  0  0
 27 29  2  0  0  0  0
 27 30  1  0  0  0  0
 28 31  2  0  0  0  0
 28 32  1  0  0  0  0
 30 33  1  0  0  0  0
 31 34  1  0  0  0  0
 32 35  2  0  0  0  0
 33 36  1  0  0  0  0
 34 37  2  0  0  0  0
 36 38  1  0  0  0  0
 36 39  2  0  0  0  0
 38 40  1  0  0  0  0
 39 41  1  0  0  0  0
  4  6  1  0  0  0  0
 23 26  1  0  0  0  0
 35 37  1  0  0  0  0
 40 41  2  0  0  0  0
M  END
>  <MolRegNo>
618641

>  <m>
=

>  <Value>
150

>  <Unit>
nM

>  <Type>
IC50

>  <pValue>
6.82

>  <Ligand Efficiency>
0

>  <Binding Efficiency>
0

>  <Surface Efficiency>
0

>  <Assay Index>
466899

>  <Assay Category>


>  <Assay Organism>
Homo sapiens

>  <Target ID>
17045

>  <Target Name>
Cytochrome P450 3A4

>  <Target Organism>
Homo sapiens

>  <Target Description>
Target is a single protein chain

>  <Sequence Accession>
P08684

>  <Reference>
Bioorg Med Chem Lett 19 (18), 5444-5448 (2009)

>  <Pubmed ID>
19679477

>  <DOI>
10.1016/j.bmcl.2009.07.118

$$$$
618642
Actelion Java MolfileCreator 1.0

 41 44  0  0  0  0  0  0  0  0999 V2000
    0.0000   -0.0000   -0.0000 S   0  0  0  0  0  0  0  0  0  0  0  0
    0.0474   -1.4942   -0.0000 C   0  0  0  0  0  0  0  0  0  0  0  0
    1.3993    0.5336   -0.0000 C   0  0  0  0  0  0  0  0  0  0  0  0
    1.4705   -1.8974   -0.0000 C   0  0  0  0  0  0  0  0  0  0  0  0
   -1.2689   -2.2176   -0.0000 C   0  0  0  0  0  0  0  0  0  0  0  0
    2.3124   -0.6404   -0.0000 N   0  0  0  0  0  0  0  0  0  0  0  0
   -2.5733   -1.4468   -0.0000 O   0  0  0  0  0  0  0  0  0  0  0  0
   -3.8896   -2.1701   -0.0000 C   0  0  0  0  0  0  0  0  0  0  0  0
   -3.9133   -3.6643   -0.0000 O   0  0  0  0  0  0  0  0  0  0  0  0
   -5.1941   -1.3993   -0.0000 N   0  0  0  0  0  0  0  0  0  0  0  0
   -6.5104   -2.1227   -0.0000 C   0  0  0  0  0  0  0  0  0  0  0  0
   -7.8148   -1.3519   -0.0000 C   0  0  0  0  0  0  0  0  0  0  0  0
   -6.5341   -3.6169   -0.0000 C   0  0  0  0  0  0  0  0  0  0  0  0
   -9.1311   -2.0753   -0.0000 N   0  0  0  0  0  0  0  0  0  0  0  0
   -5.7989   -4.8976   -0.0000 C   0  0  0  0  0  0  0  0  0  0  0  0
  -10.4356   -1.3044   -0.0000 C   0  0  0  0  0  0  0  0  0  0  0  0
   -9.1549   -3.5694   -0.0000 C   0  0  0  0  0  0  0  0  0  0  0  0
   -6.5697   -6.1783   -0.0000 C   0  0  0  0  0  0  0  0  0  0  0  0
   -4.3165   -4.8858   -0.0000 C   0  0  0  0  0  0  0  0  0  0  0  0
  -11.7519   -2.0278   -0.0000 C   0  0  0  0  0  0  0  0  0  0  0  0
  -10.4712   -4.2928   -0.0000 C   0  0  0  0  0  0  0  0  0  0  0  0
   -5.8344   -7.4709   -0.0000 C   0  0  0  0  0  0  0  0  0  0  0  0
   -3.5813   -6.1665   -0.0000 C   0  0  0  0  0  0  0  0  0  0  0  0
  -13.0564   -1.2570   -0.0000 N   0  0  0  0  0  0  0  0  0  0  0  0
  -11.7875   -3.5102   -0.0000 C   0  0  0  0  0  0  0  0  0  0  0  0
   -4.3403   -7.4591   -0.0000 C   0  0  0  0  0  0  0  0  0  0  0  0
  -14.3727   -1.9804   -0.0000 C   0  0  0  0  0  0  0  0  0  0  0  0
  -12.5464   -4.8027   -0.0000 C   0  0  0  0  0  0  0  0  0  0  0  0
  -14.3964   -3.4746   -0.0000 O   0  0  0  0  0  0  0  0  0  0  0  0
  -15.6771   -1.2096   -0.0000 O   0  0  0  0  0  0  0  0  0  0  0  0
  -14.0525   -4.7909   -0.0000 C   0  0  0  0  0  0  0  0  0  0  0  0
  -11.7993   -6.0716   -0.0000 C   0  0  0  0  0  0  0  0  0  0  0  0
  -16.9934   -1.9330   -0.0000 C   0  0  0  0  0  0  0  0  0  0  0  0
  -14.8114   -6.0716   -0.0000 C   0  0  0  0  0  0  0  0  0  0  0  0
  -12.5464   -7.3642   -0.0000 C   0  0  0  0  0  0  0  0  0  0  0  0
  -18.2979   -1.1621   -0.0000 C   0  0  0  0  0  0  0  0  0  0  0  0
  -14.0643   -7.3524   -0.0000 C   0  0  0  0  0  0  0  0  0  0  0  0
  -18.7959    0.2727   -0.0000 S   0  0  0  0  0  0  0  0  0  0  0  0
  -19.5193   -2.0515   -0.0000 N   0  0  0  0  0  0  0  0  0  0  0  0
  -20.3138    0.2609   -0.0000 C   0  0  0  0  0  0  0  0  0  0  0  0
  -20.7645   -1.1740   -0.0000 C   0  0  0  0  0  0  0  0  0  0  0  0
  1  2  1  0  0  0  0
  1  3  1  0  0  0  0
  2  4  2  0  0  0  0
  2  5  1  0  0  0  0
  3  6  2  0  0  0  0
  5  7  1  0  0  0  0
  7  8  1  0  0  0  0
  8  9  2  0  0  0  0
  8 10  1  0  0  0  0
 11 10  1  6  0  0  0
 11 12  1  0  0  0  0
 11 13  1  0  0  0  0
 12 14  1  0  0  0  0
 13 15  1  0  0  0  0
 14 16  1  0  0  0  0
 14 17  1  0  0  0  0
 15 18  2  0  0  0  0
 15 19  1  0  0  0  0
 16 20  1  0  0  0  0
 17 21  1  0  0  0  0
 18 22  1  0  0  0  0
 19 23  2  0  0  0  0
 20 24  1  6  0  0  0
 20 25  1  0  0  0  0
 22 26  2  0  0  0  0
 24 27  1  0  0  0  0
 25 28  1  0  0  0  0
 27 29  2  0  0  0  0
 27 30  1  0  0  0  0
 28 31  2  0  0  0  0
 28 32  1  0  0  0  0
 30 33  1  0  0  0  0
 31 34  1  0  0  0  0
 32 35  2  0  0  0  0
 33 36  1  0  0  0  0
 34 37  2  0  0  0  0
 36 38  1  0  0  0  0
 36 39  2  0  0  0  0
 38 40  1  0  0  0  0
 39 41  1  0  0  0  0
  4  6  1  0  0  0  0
 23 26  1  0  0  0  0
 35 37  1  0  0  0  0
 40 41  2  0  0  0  0
M  END
>  <MolRegNo>
618642

>  <m>
=

>  <Value>
110

>  <Unit>
nM

>  <Type>
IC50

>  <pValue>
6.96

>  <Ligand Efficiency>
0

>  <Binding Efficiency>
0

>  <Surface Efficiency>
0

>  <Assay Index>
466899

>  <Assay Category>


>  <Assay Organism>
Homo sapiens

>  <Target ID>
17045

>  <Target Name>
Cytochrome P450 3A4

>  <Target Organism>
Homo sapiens

>  <Target Description>
Target is a single protein chain

>  <Sequence Accession>
P08684

>  <Reference>
Bioorg Med Chem Lett 19 (18), 5444-5448 (2009)

>  <Pubmed ID>
19679477

>  <DOI>
10.1016/j.bmcl.2009.07.118

$$$$
618644
Actelion Java MolfileCreator 1.0

 43 46  0  0  0  0  0  0  0  0999 V2000
    0.0000   -0.0000   -0.0000 S   0  0  0  0  0  0  0  0  0  0  0  0
    0.0474   -1.4935   -0.0000 C   0  0  0  0  0  0  0  0  0  0  0  0
    1.3987    0.5334   -0.0000 C   0  0  0  0  0  0  0  0  0  0  0  0
    1.4698   -1.8966   -0.0000 C   0  0  0  0  0  0  0  0  0  0  0  0
   -1.2683   -2.2166   -0.0000 C   0  0  0  0  0  0  0  0  0  0  0  0
    2.3114   -0.6401   -0.0000 N   0  0  0  0  0  0  0  0  0  0  0  0
   -2.5722   -1.4461   -0.0000 O   0  0  0  0  0  0  0  0  0  0  0  0
   -3.8879   -2.1692   -0.0000 C   0  0  0  0  0  0  0  0  0  0  0  0
   -3.9116   -3.6627   -0.0000 O   0  0  0  0  0  0  0  0  0  0  0  0
   -5.1918   -1.3987   -0.0000 N   0  0  0  0  0  0  0  0  0  0  0  0
   -6.5076   -2.1218   -0.0000 C   0  0  0  0  0  0  0  0  0  0  0  0
   -7.8114   -1.3513   -0.0000 C   0  0  0  0  0  0  0  0  0  0  0  0
   -6.5313   -3.6153   -0.0000 C   0  0  0  0  0  0  0  0  0  0  0  0
   -9.1272   -2.0744   -0.0000 N   0  0  0  0  0  0  0  0  0  0  0  0
   -5.7964   -4.8955   -0.0000 C   0  0  0  0  0  0  0  0  0  0  0  0
  -10.4311   -1.3039   -0.0000 C   0  0  0  0  0  0  0  0  0  0  0  0
   -9.1509   -3.5679   -0.0000 C   0  0  0  0  0  0  0  0  0  0  0  0
   -6.5668   -6.1757   -0.0000 C   0  0  0  0  0  0  0  0  0  0  0  0
   -4.3147   -4.8836   -0.0000 C   0  0  0  0  0  0  0  0  0  0  0  0
  -11.7468   -2.0269   -0.0000 C   0  0  0  0  0  0  0  0  0  0  0  0
  -10.4666   -4.2910   -0.0000 C   0  0  0  0  0  0  0  0  0  0  0  0
   -5.8319   -7.4677   -0.0000 C   0  0  0  0  0  0  0  0  0  0  0  0
   -3.5798   -6.1638   -0.0000 C   0  0  0  0  0  0  0  0  0  0  0  0
  -13.0507   -1.2565   -0.0000 N   0  0  0  0  0  0  0  0  0  0  0  0
  -11.7824   -3.5086   -0.0000 C   0  0  0  0  0  0  0  0  0  0  0  0
  -10.4903   -5.7845   -0.0000 C   0  0  0  0  0  0  0  0  0  0  0  0
  -11.2371   -2.9634   -0.0000 C   0  0  0  0  0  0  0  0  0  0  0  0
   -4.3384   -7.4558   -0.0000 C   0  0  0  0  0  0  0  0  0  0  0  0
  -14.3664   -1.9795   -0.0000 C   0  0  0  0  0  0  0  0  0  0  0  0
  -12.5410   -4.8007   -0.0000 C   0  0  0  0  0  0  0  0  0  0  0  0
  -14.3901   -3.4731   -0.0000 O   0  0  0  0  0  0  0  0  0  0  0  0
  -15.6703   -1.2091   -0.0000 O   0  0  0  0  0  0  0  0  0  0  0  0
  -14.0464   -4.7888   -0.0000 C   0  0  0  0  0  0  0  0  0  0  0  0
  -11.7942   -6.0690   -0.0000 C   0  0  0  0  0  0  0  0  0  0  0  0
  -16.9860   -1.9321   -0.0000 C   0  0  0  0  0  0  0  0  0  0  0  0
  -14.8050   -6.0690   -0.0000 C   0  0  0  0  0  0  0  0  0  0  0  0
  -12.5410   -7.3610   -0.0000 C   0  0  0  0  0  0  0  0  0  0  0  0
  -18.2899   -1.1616   -0.0000 C   0  0  0  0  0  0  0  0  0  0  0  0
  -14.0582   -7.3492   -0.0000 C   0  0  0  0  0  0  0  0  0  0  0  0
  -18.7878    0.2726   -0.0000 S   0  0  0  0  0  0  0  0  0  0  0  0
  -19.5108   -2.0507   -0.0000 N   0  0  0  0  0  0  0  0  0  0  0  0
  -20.3050    0.2608   -0.0000 C   0  0  0  0  0  0  0  0  0  0  0  0
  -20.7554   -1.1735   -0.0000 C   0  0  0  0  0  0  0  0  0  0  0  0
  1  2  1  0  0  0  0
  1  3  1  0  0  0  0
  2  4  2  0  0  0  0
  2  5  1  0  0  0  0
  3  6  2  0  0  0  0
  5  7  1  0  0  0  0
  7  8  1  0  0  0  0
  8  9  2  0  0  0  0
  8 10  1  0  0  0  0
 11 10  1  1  0  0  0
 11 12  1  0  0  0  0
 11 13  1  0  0  0  0
 12 14  1  0  0  0  0
 13 15  1  0  0  0  0
 14 16  1  0  0  0  0
 14 17  1  0  0  0  0
 15 18  2  0  0  0  0
 15 19  1  0  0  0  0
 16 20  1  0  0  0  0
 17 21  1  0  0  0  0
 18 22  1  0  0  0  0
 19 23  2  0  0  0  0
 20 24  1  6  0  0  0
 20 25  1  0  0  0  0
 21 26  1  0  0  0  0
 21 27  1  0  0  0  0
 22 28  2  0  0  0  0
 24 29  1  0  0  0  0
 25 30  1  0  0  0  0
 29 31  2  0  0  0  0
 29 32  1  0  0  0  0
 30 33  2  0  0  0  0
 30 34  1  0  0  0  0
 32 35  1  0  0  0  0
 33 36  1  0  0  0  0
 34 37  2  0  0  0  0
 35 38  1  0  0  0  0
 36 39  2  0  0  0  0
 38 40  1  0  0  0  0
 38 41  2  0  0  0  0
 40 42  1  0  0  0  0
 41 43  1  0  0  0  0
  4  6  1  0  0  0  0
 23 28  1  0  0  0  0
 37 39  1  0  0  0  0
 42 43  2  0  0  0  0
M  END
>  <MolRegNo>
618644

>  <m>
=

>  <Value>
110

>  <Unit>
nM

>  <Type>
IC50

>  <pValue>
6.96

>  <Ligand Efficiency>
0

>  <Binding Efficiency>
0

>  <Surface Efficiency>
0

>  <Assay Index>
466899

>  <Assay Category>


>  <Assay Organism>
Homo sapiens

>  <Target ID>
17045

>  <Target Name>
Cytochrome P450 3A4

>  <Target Organism>
Homo sapiens

>  <Target Description>
Target is a single protein chain

>  <Sequence Accession>
P08684

>  <Reference>
Bioorg Med Chem Lett 19 (18), 5444-5448 (2009)

>  <Pubmed ID>
19679477

>  <DOI>
10.1016/j.bmcl.2009.07.118

$$$$
618645
Actelion Java MolfileCreator 1.0

 43 46  0  0  0  0  0  0  0  0999 V2000
    0.0000   -0.0000   -0.0000 S   0  0  0  0  0  0  0  0  0  0  0  0
    0.0474   -1.4935   -0.0000 C   0  0  0  0  0  0  0  0  0  0  0  0
    1.3987    0.5334   -0.0000 C   0  0  0  0  0  0  0  0  0  0  0  0
    1.4698   -1.8966   -0.0000 C   0  0  0  0  0  0  0  0  0  0  0  0
   -1.2683   -2.2166   -0.0000 C   0  0  0  0  0  0  0  0  0  0  0  0
    2.3114   -0.6401   -0.0000 N   0  0  0  0  0  0  0  0  0  0  0  0
   -2.5722   -1.4461   -0.0000 O   0  0  0  0  0  0  0  0  0  0  0  0
   -3.8879   -2.1692   -0.0000 C   0  0  0  0  0  0  0  0  0  0  0  0
   -3.9116   -3.6627   -0.0000 O   0  0  0  0  0  0  0  0  0  0  0  0
   -5.1918   -1.3987   -0.0000 N   0  0  0  0  0  0  0  0  0  0  0  0
   -6.5076   -2.1218   -0.0000 C   0  0  0  0  0  0  0  0  0  0  0  0
   -7.8114   -1.3513   -0.0000 C   0  0  0  0  0  0  0  0  0  0  0  0
   -6.5313   -3.6153   -0.0000 C   0  0  0  0  0  0  0  0  0  0  0  0
   -9.1272   -2.0744   -0.0000 N   0  0  0  0  0  0  0  0  0  0  0  0
   -5.7964   -4.8955   -0.0000 C   0  0  0  0  0  0  0  0  0  0  0  0
  -10.4311   -1.3039   -0.0000 C   0  0  0  0  0  0  0  0  0  0  0  0
   -9.1509   -3.5679   -0.0000 C   0  0  0  0  0  0  0  0  0  0  0  0
   -6.5668   -6.1757   -0.0000 C   0  0  0  0  0  0  0  0  0  0  0  0
   -4.3147   -4.8836   -0.0000 C   0  0  0  0  0  0  0  0  0  0  0  0
  -11.7468   -2.0269   -0.0000 C   0  0  0  0  0  0  0  0  0  0  0  0
  -10.4666   -4.2910   -0.0000 C   0  0  0  0  0  0  0  0  0  0  0  0
   -5.8319   -7.4677   -0.0000 C   0  0  0  0  0  0  0  0  0  0  0  0
   -3.5798   -6.1638   -0.0000 C   0  0  0  0  0  0  0  0  0  0  0  0
  -13.0507   -1.2565   -0.0000 N   0  0  0  0  0  0  0  0  0  0  0  0
  -11.7824   -3.5086   -0.0000 C   0  0  0  0  0  0  0  0  0  0  0  0
  -10.4903   -5.7845   -0.0000 C   0  0  0  0  0  0  0  0  0  0  0  0
  -11.2371   -2.9634   -0.0000 C   0  0  0  0  0  0  0  0  0  0  0  0
   -4.3384   -7.4558   -0.0000 C   0  0  0  0  0  0  0  0  0  0  0  0
  -14.3664   -1.9795   -0.0000 C   0  0  0  0  0  0  0  0  0  0  0  0
  -12.5410   -4.8007   -0.0000 C   0  0  0  0  0  0  0  0  0  0  0  0
  -14.3901   -3.4731   -0.0000 O   0  0  0  0  0  0  0  0  0  0  0  0
  -15.6703   -1.2091   -0.0000 O   0  0  0  0  0  0  0  0  0  0  0  0
  -14.0464   -4.7888   -0.0000 C   0  0  0  0  0  0  0  0  0  0  0  0
  -11.7942   -6.0690   -0.0000 C   0  0  0  0  0  0  0  0  0  0  0  0
  -16.9860   -1.9321   -0.0000 C   0  0  0  0  0  0  0  0  0  0  0  0
  -14.8050   -6.0690   -0.0000 C   0  0  0  0  0  0  0  0  0  0  0  0
  -12.5410   -7.3610   -0.0000 C   0  0  0  0  0  0  0  0  0  0  0  0
  -18.2899   -1.1616   -0.0000 C   0  0  0  0  0  0  0  0  0  0  0  0
  -14.0582   -7.3492   -0.0000 C   0  0  0  0  0  0  0  0  0  0  0  0
  -18.7878    0.2726   -0.0000 S   0  0  0  0  0  0  0  0  0  0  0  0
  -19.5108   -2.0507   -0.0000 N   0  0  0  0  0  0  0  0  0  0  0  0
  -20.3050    0.2608   -0.0000 C   0  0  0  0  0  0  0  0  0  0  0  0
  -20.7554   -1.1735   -0.0000 C   0  0  0  0  0  0  0  0  0  0  0  0
  1  2  1  0  0  0  0
  1  3  1  0  0  0  0
  2  4  2  0  0  0  0
  2  5  1  0  0  0  0
  3  6  2  0  0  0  0
  5  7  1  0  0  0  0
  7  8  1  0  0  0  0
  8  9  2  0  0  0  0
  8 10  1  0  0  0  0
 11 10  1  6  0  0  0
 11 12  1  0  0  0  0
 11 13  1  0  0  0  0
 12 14  1  0  0  0  0
 13 15  1  0  0  0  0
 14 16  1  0  0  0  0
 14 17  1  0  0  0  0
 15 18  2  0  0  0  0
 15 19  1  0  0  0  0
 16 20  1  0  0  0  0
 17 21  1  0  0  0  0
 18 22  1  0  0  0  0
 19 23  2  0  0  0  0
 20 24  1  6  0  0  0
 20 25  1  0  0  0  0
 21 26  1  0  0  0  0
 21 27  1  0  0  0  0
 22 28  2  0  0  0  0
 24 29  1  0  0  0  0
 25 30  1  0  0  0  0
 29 31  2  0  0  0  0
 29 32  1  0  0  0  0
 30 33  2  0  0  0  0
 30 34  1  0  0  0  0
 32 35  1  0  0  0  0
 33 36  1  0  0  0  0
 34 37  2  0  0  0  0
 35 38  1  0  0  0  0
 36 39  2  0  0  0  0
 38 40  1  0  0  0  0
 38 41  2  0  0  0  0
 40 42  1  0  0  0  0
 41 43  1  0  0  0  0
  4  6  1  0  0  0  0
 23 28  1  0  0  0  0
 37 39  1  0  0  0  0
 42 43  2  0  0  0  0
M  END
>  <MolRegNo>
618645

>  <m>
=

>  <Value>
90

>  <Unit>
nM

>  <Type>
IC50

>  <pValue>
7.05

>  <Ligand Efficiency>
0

>  <Binding Efficiency>
0

>  <Surface Efficiency>
0

>  <Assay Index>
466899

>  <Assay Category>


>  <Assay Organism>
Homo sapiens

>  <Target ID>
17045

>  <Target Name>
Cytochrome P450 3A4

>  <Target Organism>
Homo sapiens

>  <Target Description>
Target is a single protein chain

>  <Sequence Accession>
P08684

>  <Reference>
Bioorg Med Chem Lett 19 (18), 5444-5448 (2009)

>  <Pubmed ID>
19679477

>  <DOI>
10.1016/j.bmcl.2009.07.118

$$$$
618647
Actelion Java MolfileCreator 1.0

 43 47  0  0  0  0  0  0  0  0999 V2000
    0.0000   -0.0000   -0.0000 S   0  0  0  0  0  0  0  0  0  0  0  0
    0.0474   -1.4943   -0.0000 C   0  0  0  0  0  0  0  0  0  0  0  0
    1.3994    0.5337   -0.0000 C   0  0  0  0  0  0  0  0  0  0  0  0
    1.4706   -1.8975   -0.0000 C   0  0  0  0  0  0  0  0  0  0  0  0
   -1.2690   -2.2178   -0.0000 C   0  0  0  0  0  0  0  0  0  0  0  0
    2.3126   -0.6404   -0.0000 N   0  0  0  0  0  0  0  0  0  0  0  0
   -2.5735   -1.4469   -0.0000 O   0  0  0  0  0  0  0  0  0  0  0  0
   -3.8900   -2.1703   -0.0000 C   0  0  0  0  0  0  0  0  0  0  0  0
   -3.9137   -3.6646   -0.0000 O   0  0  0  0  0  0  0  0  0  0  0  0
   -5.1945   -1.3994   -0.0000 N   0  0  0  0  0  0  0  0  0  0  0  0
   -6.5110   -2.1229   -0.0000 C   0  0  0  0  0  0  0  0  0  0  0  0
   -7.8155   -1.3520   -0.0000 C   0  0  0  0  0  0  0  0  0  0  0  0
   -6.5347   -3.6172   -0.0000 C   0  0  0  0  0  0  0  0  0  0  0  0
   -9.1319   -2.0754   -0.0000 N   0  0  0  0  0  0  0  0  0  0  0  0
   -5.7994   -4.8980   -0.0000 C   0  0  0  0  0  0  0  0  0  0  0  0
   -9.1557   -3.5698   -0.0000 C   0  0  0  0  0  0  0  0  0  0  0  0
  -10.4365   -1.3046   -0.0000 C   0  0  0  0  0  0  0  0  0  0  0  0
   -6.5703   -6.1789   -0.0000 C   0  0  0  0  0  0  0  0  0  0  0  0
   -4.3169   -4.8862   -0.0000 C   0  0  0  0  0  0  0  0  0  0  0  0
   -9.9265   -4.8506   -0.0000 C   0  0  0  0  0  0  0  0  0  0  0  0
  -11.7529   -2.0280   -0.0000 C   0  0  0  0  0  0  0  0  0  0  0  0
   -5.8350   -7.4716   -0.0000 C   0  0  0  0  0  0  0  0  0  0  0  0
   -3.5816   -6.1670   -0.0000 C   0  0  0  0  0  0  0  0  0  0  0  0
   -9.9503   -6.3449   -0.0000 C   0  0  0  0  0  0  0  0  0  0  0  0
  -11.2430   -5.5859   -0.0000 C   0  0  0  0  0  0  0  0  0  0  0  0
  -13.0575   -1.2571   -0.0000 N   0  0  0  0  0  0  0  0  0  0  0  0
  -11.7885   -3.5105   -0.0000 C   0  0  0  0  0  0  0  0  0  0  0  0
   -4.3406   -7.4597   -0.0000 C   0  0  0  0  0  0  0  0  0  0  0  0
  -14.3739   -1.9806   -0.0000 C   0  0  0  0  0  0  0  0  0  0  0  0
  -12.5475   -4.8032   -0.0000 C   0  0  0  0  0  0  0  0  0  0  0  0
  -14.3976   -3.4749   -0.0000 O   0  0  0  0  0  0  0  0  0  0  0  0
  -15.6785   -1.2097   -0.0000 O   0  0  0  0  0  0  0  0  0  0  0  0
  -14.0537   -4.7913   -0.0000 C   0  0  0  0  0  0  0  0  0  0  0  0
  -11.8004   -6.0721   -0.0000 C   0  0  0  0  0  0  0  0  0  0  0  0
  -16.9949   -1.9331   -0.0000 C   0  0  0  0  0  0  0  0  0  0  0  0
  -14.8127   -6.0721   -0.0000 C   0  0  0  0  0  0  0  0  0  0  0  0
  -12.5475   -7.3649   -0.0000 C   0  0  0  0  0  0  0  0  0  0  0  0
  -18.2995   -1.1622   -0.0000 C   0  0  0  0  0  0  0  0  0  0  0  0
  -14.0656   -7.3530   -0.0000 C   0  0  0  0  0  0  0  0  0  0  0  0
  -18.7976    0.2728   -0.0000 S   0  0  0  0  0  0  0  0  0  0  0  0
  -19.5210   -2.0517   -0.0000 N   0  0  0  0  0  0  0  0  0  0  0  0
  -20.3156    0.2609   -0.0000 C   0  0  0  0  0  0  0  0  0  0  0  0
  -20.7663   -1.1741   -0.0000 C   0  0  0  0  0  0  0  0  0  0  0  0
  1  2  1  0  0  0  0
  1  3  1  0  0  0  0
  2  4  2  0  0  0  0
  2  5  1  0  0  0  0
  3  6  2  0  0  0  0
  5  7  1  0  0  0  0
  7  8  1  0  0  0  0
  8  9  2  0  0  0  0
  8 10  1  0  0  0  0
 11 10  1  1  0  0  0
 11 12  1  0  0  0  0
 11 13  1  0  0  0  0
 12 14  1  0  0  0  0
 13 15  1  0  0  0  0
 14 16  1  0  0  0  0
 14 17  1  0  0  0  0
 15 18  2  0  0  0  0
 15 19  1  0  0  0  0
 16 20  1  0  0  0  0
 17 21  1  0  0  0  0
 18 22  1  0  0  0  0
 19 23  2  0  0  0  0
 20 24  1  0  0  0  0
 20 25  1  0  0  0  0
 21 26  1  6  0  0  0
 21 27  1  0  0  0  0
 22 28  2  0  0  0  0
 26 29  1  0  0  0  0
 27 30  1  0  0  0  0
 29 31  2  0  0  0  0
 29 32  1  0  0  0  0
 30 33  2  0  0  0  0
 30 34  1  0  0  0  0
 32 35  1  0  0  0  0
 33 36  1  0  0  0  0
 34 37  2  0  0  0  0
 35 38  1  0  0  0  0
 36 39  2  0  0  0  0
 38 40  1  0  0  0  0
 38 41  2  0  0  0  0
 40 42  1  0  0  0  0
 41 43  1  0  0  0  0
  4  6  1  0  0  0  0
 23 28  1  0  0  0  0
 24 25  1  0  0  0  0
 37 39  1  0  0  0  0
 42 43  2  0  0  0  0
M  END
>  <MolRegNo>
618647

>  <m>
=

>  <Value>
52

>  <Unit>
nM

>  <Type>
IC50

>  <pValue>
7.28

>  <Ligand Efficiency>
0

>  <Binding Efficiency>
0

>  <Surface Efficiency>
0

>  <Assay Index>
466899

>  <Assay Category>


>  <Assay Organism>
Homo sapiens

>  <Target ID>
17045

>  <Target Name>
Cytochrome P450 3A4

>  <Target Organism>
Homo sapiens

>  <Target Description>
Target is a single protein chain

>  <Sequence Accession>
P08684

>  <Reference>
Bioorg Med Chem Lett 19 (18), 5444-5448 (2009)

>  <Pubmed ID>
19679477

>  <DOI>
10.1016/j.bmcl.2009.07.118

$$$$
618648
Actelion Java MolfileCreator 1.0

 44 47  0  0  0  0  0  0  0  0999 V2000
    0.0000   -0.0000   -0.0000 S   0  0  0  0  0  0  0  0  0  0  0  0
    0.0474   -1.4937   -0.0000 C   0  0  0  0  0  0  0  0  0  0  0  0
    1.3988    0.5334   -0.0000 C   0  0  0  0  0  0  0  0  0  0  0  0
    1.4699   -1.8967   -0.0000 C   0  0  0  0  0  0  0  0  0  0  0  0
   -1.2684   -2.2168   -0.0000 C   0  0  0  0  0  0  0  0  0  0  0  0
    2.3116   -0.6401   -0.0000 N   0  0  0  0  0  0  0  0  0  0  0  0
   -2.5724   -1.4462   -0.0000 O   0  0  0  0  0  0  0  0  0  0  0  0
   -3.8882   -2.1694   -0.0000 C   0  0  0  0  0  0  0  0  0  0  0  0
   -3.9120   -3.6630   -0.0000 O   0  0  0  0  0  0  0  0  0  0  0  0
   -5.1922   -1.3988   -0.0000 N   0  0  0  0  0  0  0  0  0  0  0  0
   -6.5081   -2.1219   -0.0000 C   0  0  0  0  0  0  0  0  0  0  0  0
   -7.8121   -1.3514   -0.0000 C   0  0  0  0  0  0  0  0  0  0  0  0
   -6.5318   -3.6156   -0.0000 C   0  0  0  0  0  0  0  0  0  0  0  0
   -9.1279   -2.0745   -0.0000 N   0  0  0  0  0  0  0  0  0  0  0  0
   -5.7968   -4.8959   -0.0000 C   0  0  0  0  0  0  0  0  0  0  0  0
  -10.4319   -1.3040   -0.0000 C   0  0  0  0  0  0  0  0  0  0  0  0
   -9.1516   -3.5682   -0.0000 C   0  0  0  0  0  0  0  0  0  0  0  0
   -6.5673   -6.1761   -0.0000 C   0  0  0  0  0  0  0  0  0  0  0  0
   -4.3150   -4.8840   -0.0000 C   0  0  0  0  0  0  0  0  0  0  0  0
  -11.7477   -2.0271   -0.0000 C   0  0  0  0  0  0  0  0  0  0  0  0
  -10.4674   -4.2913   -0.0000 C   0  0  0  0  0  0  0  0  0  0  0  0
   -5.8324   -7.4683   -0.0000 C   0  0  0  0  0  0  0  0  0  0  0  0
   -3.5800   -6.1643   -0.0000 C   0  0  0  0  0  0  0  0  0  0  0  0
  -13.0517   -1.2566   -0.0000 N   0  0  0  0  0  0  0  0  0  0  0  0
  -11.7833   -3.5089   -0.0000 C   0  0  0  0  0  0  0  0  0  0  0  0
  -10.4912   -5.7850   -0.0000 C   0  0  0  0  0  0  0  0  0  0  0  0
   -4.3387   -7.4564   -0.0000 C   0  0  0  0  0  0  0  0  0  0  0  0
  -14.3675   -1.9797   -0.0000 C   0  0  0  0  0  0  0  0  0  0  0  0
  -12.5538   -4.7892   -0.0000 C   0  0  0  0  0  0  0  0  0  0  0  0
  -11.8070   -6.5081   -0.0000 C   0  0  0  0  0  0  0  0  0  0  0  0
   -9.2109   -6.5318   -0.0000 C   0  0  0  0  0  0  0  0  0  0  0  0
  -14.3913   -3.4733   -0.0000 O   0  0  0  0  0  0  0  0  0  0  0  0
  -15.6715   -1.2092   -0.0000 O   0  0  0  0  0  0  0  0  0  0  0  0
  -13.8815   -4.0542   -0.0000 C   0  0  0  0  0  0  0  0  0  0  0  0
  -12.5301   -6.2710   -0.0000 C   0  0  0  0  0  0  0  0  0  0  0  0
  -16.9874   -1.9323   -0.0000 C   0  0  0  0  0  0  0  0  0  0  0  0
  -15.1736   -4.8129   -0.0000 C   0  0  0  0  0  0  0  0  0  0  0  0
  -13.8104   -7.0415   -0.0000 C   0  0  0  0  0  0  0  0  0  0  0  0
  -18.2914   -1.1617   -0.0000 C   0  0  0  0  0  0  0  0  0  0  0  0
  -15.1499   -6.2947   -0.0000 C   0  0  0  0  0  0  0  0  0  0  0  0
  -18.7892    0.2727   -0.0000 S   0  0  0  0  0  0  0  0  0  0  0  0
  -19.5124   -2.0508   -0.0000 N   0  0  0  0  0  0  0  0  0  0  0  0
  -20.3066    0.2608   -0.0000 C   0  0  0  0  0  0  0  0  0  0  0  0
  -20.7571   -1.1736   -0.0000 C   0  0  0  0  0  0  0  0  0  0  0  0
  1  2  1  0  0  0  0
  1  3  1  0  0  0  0
  2  4  2  0  0  0  0
  2  5  1  0  0  0  0
  3  6  2  0  0  0  0
  5  7  1  0  0  0  0
  7  8  1  0  0  0  0
  8  9  2  0  0  0  0
  8 10  1  0  0  0  0
 11 10  1  1  0  0  0
 11 12  1  0  0  0  0
 11 13  1  0  0  0  0
 12 14  1  0  0  0  0
 13 15  1  0  0  0  0
 14 16  1  0  0  0  0
 14 17  1  0  0  0  0
 15 18  2  0  0  0  0
 15 19  1  0  0  0  0
 16 20  1  0  0  0  0
 17 21  1  0  0  0  0
 18 22  1  0  0  0  0
 19 23  2  0  0  0  0
 20 24  1  6  0  0  0
 20 25  1  0  0  0  0
 21 26  1  0  0  0  0
 22 27  2  0  0  0  0
 24 28  1  0  0  0  0
 25 29  1  0  0  0  0
 26 30  1  0  0  0  0
 26 31  1  0  0  0  0
 28 32  2  0  0  0  0
 28 33  1  0  0  0  0
 29 34  2  0  0  0  0
 29 35  1  0  0  0  0
 33 36  1  0  0  0  0
 34 37  1  0  0  0  0
 35 38  2  0  0  0  0
 36 39  1  0  0  0  0
 37 40  2  0  0  0  0
 39 41  1  0  0  0  0
 39 42  2  0  0  0  0
 41 43  1  0  0  0  0
 42 44  1  0  0  0  0
  4  6  1  0  0  0  0
 23 27  1  0  0  0  0
 38 40  1  0  0  0  0
 43 44  2  0  0  0  0
M  END
>  <MolRegNo>
618648

>  <m>
=

>  <Value>
50

>  <Unit>
nM

>  <Type>
IC50

>  <pValue>
7.3

>  <Ligand Efficiency>
0

>  <Binding Efficiency>
0

>  <Surface Efficiency>
0

>  <Assay Index>
466899

>  <Assay Category>


>  <Assay Organism>
Homo sapiens

>  <Target ID>
17045

>  <Target Name>
Cytochrome P450 3A4

>  <Target Organism>
Homo sapiens

>  <Target Description>
Target is a single protein chain

>  <Sequence Accession>
P08684

>  <Reference>
Bioorg Med Chem Lett 19 (18), 5444-5448 (2009)

>  <Pubmed ID>
19679477

>  <DOI>
10.1016/j.bmcl.2009.07.118

$$$$
618649
Actelion Java MolfileCreator 1.0

 46 50  0  0  0  0  0  0  0  0999 V2000
    0.0000   -0.0000   -0.0000 S   0  0  0  0  0  0  0  0  0  0  0  0
    1.2597    0.8081   -0.0000 C   0  0  0  0  0  0  0  0  0  0  0  0
   -1.1646    0.9745   -0.0000 C   0  0  0  0  0  0  0  0  0  0  0  0
    0.8913    2.2698   -0.0000 C   0  0  0  0  0  0  0  0  0  0  0  0
    2.5432    0.0475   -0.0000 C   0  0  0  0  0  0  0  0  0  0  0  0
   -0.6061    2.3768   -0.0000 N   0  0  0  0  0  0  0  0  0  0  0  0
    2.5075   -1.4380   -0.0000 O   0  0  0  0  0  0  0  0  0  0  0  0
    3.7910   -2.1985   -0.0000 C   0  0  0  0  0  0  0  0  0  0  0  0
    5.0863   -1.4498   -0.0000 O   0  0  0  0  0  0  0  0  0  0  0  0
    3.7553   -3.6840   -0.0000 N   0  0  0  0  0  0  0  0  0  0  0  0
    5.0388   -4.4446   -0.0000 C   0  0  0  0  0  0  0  0  0  0  0  0
    5.0150   -5.9420   -0.0000 C   0  0  0  0  0  0  0  0  0  0  0  0
    6.3342   -3.6959   -0.0000 C   0  0  0  0  0  0  0  0  0  0  0  0
    3.6959   -6.6669   -0.0000 N   0  0  0  0  0  0  0  0  0  0  0  0
    7.0710   -2.3887   -0.0000 C   0  0  0  0  0  0  0  0  0  0  0  0
    3.6722   -8.1524   -0.0000 C   0  0  0  0  0  0  0  0  0  0  0  0
    2.3887   -5.8945   -0.0000 C   0  0  0  0  0  0  0  0  0  0  0  0
    8.5565   -2.3887   -0.0000 C   0  0  0  0  0  0  0  0  0  0  0  0
    6.3104   -1.0814   -0.0000 C   0  0  0  0  0  0  0  0  0  0  0  0
    4.9556   -8.9011   -0.0000 C   0  0  0  0  0  0  0  0  0  0  0  0
    1.0696   -6.6194   -0.0000 C   0  0  0  0  0  0  0  0  0  0  0  0
    9.3052   -1.0814   -0.0000 C   0  0  0  0  0  0  0  0  0  0  0  0
    7.0472    0.2258   -0.0000 C   0  0  0  0  0  0  0  0  0  0  0  0
    4.9200  -10.3866   -0.0000 C   0  0  0  0  0  0  0  0  0  0  0  0
    6.2391   -8.1524   -0.0000 C   0  0  0  0  0  0  0  0  0  0  0  0
   -0.2377   -5.8469   -0.0000 N   0  0  0  0  0  0  0  0  0  0  0  0
    1.0339   -8.1049   -0.0000 C   0  0  0  0  0  0  0  0  0  0  0  0
    8.5446    0.2377   -0.0000 C   0  0  0  0  0  0  0  0  0  0  0  0
    6.2034  -11.1353   -0.0000 C   0  0  0  0  0  0  0  0  0  0  0  0
    7.5226   -8.9011   -0.0000 C   0  0  0  0  0  0  0  0  0  0  0  0
   -1.5568   -6.5718   -0.0000 C   0  0  0  0  0  0  0  0  0  0  0  0
    0.2733   -9.4002   -0.0000 C   0  0  0  0  0  0  0  0  0  0  0  0
    7.4988  -10.3866   -0.0000 C   0  0  0  0  0  0  0  0  0  0  0  0
   -1.5806   -8.0573   -0.0000 O   0  0  0  0  0  0  0  0  0  0  0  0
   -2.8640   -5.7994   -0.0000 O   0  0  0  0  0  0  0  0  0  0  0  0
   -1.2359   -9.3883   -0.0000 C   0  0  0  0  0  0  0  0  0  0  0  0
    1.0101  -10.6718   -0.0000 C   0  0  0  0  0  0  0  0  0  0  0  0
   -4.1832   -6.5243   -0.0000 C   0  0  0  0  0  0  0  0  0  0  0  0
   -1.9846  -10.6718   -0.0000 C   0  0  0  0  0  0  0  0  0  0  0  0
    0.2614  -11.9553   -0.0000 C   0  0  0  0  0  0  0  0  0  0  0  0
   -5.4904   -5.7518   -0.0000 C   0  0  0  0  0  0  0  0  0  0  0  0
   -1.2359  -11.9553   -0.0000 C   0  0  0  0  0  0  0  0  0  0  0  0
   -5.9895   -4.3139   -0.0000 S   0  0  0  0  0  0  0  0  0  0  0  0
   -6.7144   -6.6431   -0.0000 N   0  0  0  0  0  0  0  0  0  0  0  0
   -7.5107   -4.3258   -0.0000 C   0  0  0  0  0  0  0  0  0  0  0  0
   -7.9742   -5.7637   -0.0000 C   0  0  0  0  0  0  0  0  0  0  0  0
  1  2  1  0  0  0  0
  1  3  1  0  0  0  0
  2  4  2  0  0  0  0
  2  5  1  0  0  0  0
  3  6  2  0  0  0  0
  5  7  1  0  0  0  0
  7  8  1  0  0  0  0
  8  9  2  0  0  0  0
  8 10  1  0  0  0  0
 11 10  1  1  0  0  0
 11 12  1  0  0  0  0
 11 13  1  0  0  0  0
 12 14  1  0  0  0  0
 13 15  1  0  0  0  0
 14 16  1  0  0  0  0
 14 17  1  0  0  0  0
 15 18  2  0  0  0  0
 15 19  1  0  0  0  0
 16 20  1  0  0  0  0
 17 21  1  0  0  0  0
 18 22  1  0  0  0  0
 19 23  2  0  0  0  0
 20 24  2  0  0  0  0
 20 25  1  0  0  0  0
 21 26  1  6  0  0  0
 21 27  1  0  0  0  0
 22 28  2  0  0  0  0
 24 29  1  0  0  0  0
 25 30  2  0  0  0  0
 26 31  1  0  0  0  0
 27 32  1  0  0  0  0
 29 33  2  0  0  0  0
 31 34  2  0  0  0  0
 31 35  1  0  0  0  0
 32 36  2  0  0  0  0
 32 37  1  0  0  0  0
 35 38  1  0  0  0  0
 36 39  1  0  0  0  0
 37 40  2  0  0  0  0
 38 41  1  0  0  0  0
 39 42  2  0  0  0  0
 41 43  1  0  0  0  0
 41 44  2  0  0  0  0
 43 45  1  0  0  0  0
 44 46  1  0  0  0  0
  4  6  1  0  0  0  0
 23 28  1  0  0  0  0
 30 33  1  0  0  0  0
 40 42  1  0  0  0  0
 45 46  2  0  0  0  0
M  END
>  <MolRegNo>
618649

>  <m>
=

>  <Value>
135

>  <Unit>
nM

>  <Type>
IC50

>  <pValue>
6.87

>  <Ligand Efficiency>
0

>  <Binding Efficiency>
0

>  <Surface Efficiency>
0

>  <Assay Index>
466899

>  <Assay Category>


>  <Assay Organism>
Homo sapiens

>  <Target ID>
17045

>  <Target Name>
Cytochrome P450 3A4

>  <Target Organism>
Homo sapiens

>  <Target Description>
Target is a single protein chain

>  <Sequence Accession>
P08684

>  <Reference>
Bioorg Med Chem Lett 19 (18), 5444-5448 (2009)

>  <Pubmed ID>
19679477

>  <DOI>
10.1016/j.bmcl.2009.07.118

$$$$
618650
Actelion Java MolfileCreator 1.0

 46 50  0  0  0  0  0  0  0  0999 V2000
    0.0000   -0.0000   -0.0000 S   0  0  0  0  0  0  0  0  0  0  0  0
    1.2591    0.8077   -0.0000 C   0  0  0  0  0  0  0  0  0  0  0  0
   -1.1641    0.9740   -0.0000 C   0  0  0  0  0  0  0  0  0  0  0  0
    0.8909    2.2688   -0.0000 C   0  0  0  0  0  0  0  0  0  0  0  0
    2.5420    0.0475   -0.0000 C   0  0  0  0  0  0  0  0  0  0  0  0
   -0.6058    2.3757   -0.0000 N   0  0  0  0  0  0  0  0  0  0  0  0
    2.5064   -1.4373   -0.0000 O   0  0  0  0  0  0  0  0  0  0  0  0
    3.7893   -2.1975   -0.0000 C   0  0  0  0  0  0  0  0  0  0  0  0
    5.0840   -1.4492   -0.0000 O   0  0  0  0  0  0  0  0  0  0  0  0
    3.7536   -3.6824   -0.0000 N   0  0  0  0  0  0  0  0  0  0  0  0
    5.0365   -4.4426   -0.0000 C   0  0  0  0  0  0  0  0  0  0  0  0
    5.0128   -5.9393   -0.0000 C   0  0  0  0  0  0  0  0  0  0  0  0
    6.3313   -3.6942   -0.0000 C   0  0  0  0  0  0  0  0  0  0  0  0
    3.6942   -6.6639   -0.0000 N   0  0  0  0  0  0  0  0  0  0  0  0
    7.0677   -2.3876   -0.0000 C   0  0  0  0  0  0  0  0  0  0  0  0
    3.6705   -8.1487   -0.0000 C   0  0  0  0  0  0  0  0  0  0  0  0
    2.3876   -5.8918   -0.0000 C   0  0  0  0  0  0  0  0  0  0  0  0
    8.5644   -2.3876   -0.0000 C   0  0  0  0  0  0  0  0  0  0  0  0
    6.3075   -1.0809   -0.0000 C   0  0  0  0  0  0  0  0  0  0  0  0
    4.9534   -8.8970   -0.0000 C   0  0  0  0  0  0  0  0  0  0  0  0
    1.0691   -6.6164   -0.0000 C   0  0  0  0  0  0  0  0  0  0  0  0
    9.3128   -1.0809   -0.0000 C   0  0  0  0  0  0  0  0  0  0  0  0
    7.0440    0.2257   -0.0000 C   0  0  0  0  0  0  0  0  0  0  0  0
    4.9177  -10.3937   -0.0000 C   0  0  0  0  0  0  0  0  0  0  0  0
    6.2362   -8.1487   -0.0000 C   0  0  0  0  0  0  0  0  0  0  0  0
   -0.2376   -5.8443   -0.0000 N   0  0  0  0  0  0  0  0  0  0  0  0
    1.0334   -8.1012   -0.0000 C   0  0  0  0  0  0  0  0  0  0  0  0
    8.5526    0.2376   -0.0000 C   0  0  0  0  0  0  0  0  0  0  0  0
    6.2006  -11.1421   -0.0000 C   0  0  0  0  0  0  0  0  0  0  0  0
    7.5191   -8.8970   -0.0000 C   0  0  0  0  0  0  0  0  0  0  0  0
   -1.5561   -6.5688   -0.0000 C   0  0  0  0  0  0  0  0  0  0  0  0
    0.2732   -9.3959   -0.0000 C   0  0  0  0  0  0  0  0  0  0  0  0
    7.4954  -10.3937   -0.0000 C   0  0  0  0  0  0  0  0  0  0  0  0
   -1.5798   -8.0537   -0.0000 O   0  0  0  0  0  0  0  0  0  0  0  0
   -2.8627   -5.7967   -0.0000 O   0  0  0  0  0  0  0  0  0  0  0  0
   -1.2354   -9.3841   -0.0000 C   0  0  0  0  0  0  0  0  0  0  0  0
    1.0097  -10.6670   -0.0000 C   0  0  0  0  0  0  0  0  0  0  0  0
   -4.1813   -6.5213   -0.0000 C   0  0  0  0  0  0  0  0  0  0  0  0
   -1.9837  -10.6670   -0.0000 C   0  0  0  0  0  0  0  0  0  0  0  0
    0.2613  -11.9498   -0.0000 C   0  0  0  0  0  0  0  0  0  0  0  0
   -5.4879   -5.7492   -0.0000 C   0  0  0  0  0  0  0  0  0  0  0  0
   -1.2354  -11.9498   -0.0000 C   0  0  0  0  0  0  0  0  0  0  0  0
   -5.9868   -4.3119   -0.0000 S   0  0  0  0  0  0  0  0  0  0  0  0
   -6.7114   -6.6401   -0.0000 N   0  0  0  0  0  0  0  0  0  0  0  0
   -7.5073   -4.3238   -0.0000 C   0  0  0  0  0  0  0  0  0  0  0  0
   -7.9586   -5.7611   -0.0000 C   0  0  0  0  0  0  0  0  0  0  0  0
  1  2  1  0  0  0  0
  1  3  1  0  0  0  0
  2  4  2  0  0  0  0
  2  5  1  0  0  0  0
  3  6  2  0  0  0  0
  5  7  1  0  0  0  0
  7  8  1  0  0  0  0
  8  9  2  0  0  0  0
  8 10  1  0  0  0  0
 11 10  1  6  0  0  0
 11 12  1  0  0  0  0
 11 13  1  0  0  0  0
 12 14  1  0  0  0  0
 13 15  1  0  0  0  0
 14 16  1  0  0  0  0
 14 17  1  0  0  0  0
 15 18  2  0  0  0  0
 15 19  1  0  0  0  0
 16 20  1  0  0  0  0
 17 21  1  0  0  0  0
 18 22  1  0  0  0  0
 19 23  2  0  0  0  0
 20 24  2  0  0  0  0
 20 25  1  0  0  0  0
 21 26  1  6  0  0  0
 21 27  1  0  0  0  0
 22 28  2  0  0  0  0
 24 29  1  0  0  0  0
 25 30  2  0  0  0  0
 26 31  1  0  0  0  0
 27 32  1  0  0  0  0
 29 33  2  0  0  0  0
 31 34  2  0  0  0  0
 31 35  1  0  0  0  0
 32 36  2  0  0  0  0
 32 37  1  0  0  0  0
 35 38  1  0  0  0  0
 36 39  1  0  0  0  0
 37 40  2  0  0  0  0
 38 41  1  0  0  0  0
 39 42  2  0  0  0  0
 41 43  1  0  0  0  0
 41 44  2  0  0  0  0
 43 45  1  0  0  0  0
 44 46  1  0  0  0  0
  4  6  1  0  0  0  0
 23 28  1  0  0  0  0
 30 33  1  0  0  0  0
 40 42  1  0  0  0  0
 45 46  2  0  0  0  0
M  END
>  <MolRegNo>
618650

>  <m>
=

>  <Value>
87

>  <Unit>
nM

>  <Type>
IC50

>  <pValue>
7.06

>  <Ligand Efficiency>
0

>  <Binding Efficiency>
0

>  <Surface Efficiency>
0

>  <Assay Index>
466899

>  <Assay Category>


>  <Assay Organism>
Homo sapiens

>  <Target ID>
17045

>  <Target Name>
Cytochrome P450 3A4

>  <Target Organism>
Homo sapiens

>  <Target Description>
Target is a single protein chain

>  <Sequence Accession>
P08684

>  <Reference>
Bioorg Med Chem Lett 19 (18), 5444-5448 (2009)

>  <Pubmed ID>
19679477

>  <DOI>
10.1016/j.bmcl.2009.07.118

$$$$
618652
Actelion Java MolfileCreator 1.0

 48 52  0  0  0  0  0  0  0  0999 V2000
    0.0000   -0.0000   -0.0000 S   0  0  0  0  0  0  0  0  0  0  0  0
    1.1884    0.9151   -0.0000 C   0  0  0  0  0  0  0  0  0  0  0  0
   -1.2359    0.8794   -0.0000 C   0  0  0  0  0  0  0  0  0  0  0  0
    0.7012    2.3412   -0.0000 C   0  0  0  0  0  0  0  0  0  0  0  0
    2.5313    0.2733   -0.0000 C   0  0  0  0  0  0  0  0  0  0  0  0
   -0.7962    2.3293   -0.0000 N   0  0  0  0  0  0  0  0  0  0  0  0
    2.4957   -1.2122   -0.0000 O   0  0  0  0  0  0  0  0  0  0  0  0
    3.7791   -1.9728   -0.0000 C   0  0  0  0  0  0  0  0  0  0  0  0
    5.0745   -1.2241   -0.0000 O   0  0  0  0  0  0  0  0  0  0  0  0
    3.7435   -3.4583   -0.0000 N   0  0  0  0  0  0  0  0  0  0  0  0
    5.0270   -4.2188   -0.0000 C   0  0  0  0  0  0  0  0  0  0  0  0
    5.0032   -5.7162   -0.0000 C   0  0  0  0  0  0  0  0  0  0  0  0
    6.3223   -3.4702   -0.0000 C   0  0  0  0  0  0  0  0  0  0  0  0
    3.6841   -6.4412   -0.0000 N   0  0  0  0  0  0  0  0  0  0  0  0
    7.0591   -2.1629   -0.0000 C   0  0  0  0  0  0  0  0  0  0  0  0
    3.6603   -7.9267   -0.0000 C   0  0  0  0  0  0  0  0  0  0  0  0
    2.3768   -5.6687   -0.0000 C   0  0  0  0  0  0  0  0  0  0  0  0
    8.5447   -2.1629   -0.0000 C   0  0  0  0  0  0  0  0  0  0  0  0
    6.2986   -0.8557   -0.0000 C   0  0  0  0  0  0  0  0  0  0  0  0
    4.9438   -8.6754   -0.0000 C   0  0  0  0  0  0  0  0  0  0  0  0
    1.0577   -6.3936   -0.0000 C   0  0  0  0  0  0  0  0  0  0  0  0
    9.2934   -0.8557   -0.0000 C   0  0  0  0  0  0  0  0  0  0  0  0
    7.0354    0.4516   -0.0000 C   0  0  0  0  0  0  0  0  0  0  0  0
    6.2273   -7.9267   -0.0000 C   0  0  0  0  0  0  0  0  0  0  0  0
    4.9081  -10.1609   -0.0000 C   0  0  0  0  0  0  0  0  0  0  0  0
   -0.2496   -5.6212   -0.0000 N   0  0  0  0  0  0  0  0  0  0  0  0
    1.0220   -7.8791   -0.0000 C   0  0  0  0  0  0  0  0  0  0  0  0
    8.5328    0.4635   -0.0000 C   0  0  0  0  0  0  0  0  0  0  0  0
    7.5107   -8.6754   -0.0000 C   0  0  0  0  0  0  0  0  0  0  0  0
    6.1916  -10.9096   -0.0000 C   0  0  0  0  0  0  0  0  0  0  0  0
   -1.5687   -6.3461   -0.0000 C   0  0  0  0  0  0  0  0  0  0  0  0
    0.2614   -9.1745   -0.0000 C   0  0  0  0  0  0  0  0  0  0  0  0
    8.8061   -7.9148   -0.0000 O   0  0  0  0  0  0  0  0  0  0  0  0
    7.4870  -10.1728   -0.0000 C   0  0  0  0  0  0  0  0  0  0  0  0
   -1.5925   -7.8316   -0.0000 O   0  0  0  0  0  0  0  0  0  0  0  0
   -2.8759   -5.5736   -0.0000 O   0  0  0  0  0  0  0  0  0  0  0  0
   -1.2478   -9.1626   -0.0000 C   0  0  0  0  0  0  0  0  0  0  0  0
    0.9983  -10.4461   -0.0000 C   0  0  0  0  0  0  0  0  0  0  0  0
   10.0896   -8.6635   -0.0000 C   0  0  0  0  0  0  0  0  0  0  0  0
   -4.1951   -6.2986   -0.0000 C   0  0  0  0  0  0  0  0  0  0  0  0
   -1.9965  -10.4461   -0.0000 C   0  0  0  0  0  0  0  0  0  0  0  0
    0.2496  -11.7296   -0.0000 C   0  0  0  0  0  0  0  0  0  0  0  0
   -5.5023   -5.5261   -0.0000 C   0  0  0  0  0  0  0  0  0  0  0  0
   -1.2597  -11.7296   -0.0000 C   0  0  0  0  0  0  0  0  0  0  0  0
   -6.0015   -4.0881   -0.0000 S   0  0  0  0  0  0  0  0  0  0  0  0
   -6.7264   -6.4174   -0.0000 N   0  0  0  0  0  0  0  0  0  0  0  0
   -7.5226   -4.1000   -0.0000 C   0  0  0  0  0  0  0  0  0  0  0  0
   -7.9861   -5.5380   -0.0000 C   0  0  0  0  0  0  0  0  0  0  0  0
  1  2  1  0  0  0  0
  1  3  1  0  0  0  0
  2  4  2  0  0  0  0
  2  5  1  0  0  0  0
  3  6  2  0  0  0  0
  5  7  1  0  0  0  0
  7  8  1  0  0  0  0
  8  9  2  0  0  0  0
  8 10  1  0  0  0  0
 11 10  1  6  0  0  0
 11 12  1  0  0  0  0
 11 13  1  0  0  0  0
 12 14  1  0  0  0  0
 13 15  1  0  0  0  0
 14 16  1  0  0  0  0
 14 17  1  0  0  0  0
 15 18  2  0  0  0  0
 15 19  1  0  0  0  0
 16 20  1  0  0  0  0
 17 21  1  0  0  0  0
 18 22  1  0  0  0  0
 19 23  2  0  0  0  0
 20 24  2  0  0  0  0
 20 25  1  0  0  0  0
 21 26  1  6  0  0  0
 21 27  1  0  0  0  0
 22 28  2  0  0  0  0
 24 29  1  0  0  0  0
 25 30  2  0  0  0  0
 26 31  1  0  0  0  0
 27 32  1  0  0  0  0
 29 33  1  0  0  0  0
 29 34  2  0  0  0  0
 31 35  2  0  0  0  0
 31 36  1  0  0  0  0
 32 37  2  0  0  0  0
 32 38  1  0  0  0  0
 33 39  1  0  0  0  0
 36 40  1  0  0  0  0
 37 41  1  0  0  0  0
 38 42  2  0  0  0  0
 40 43  1  0  0  0  0
 41 44  2  0  0  0  0
 43 45  1  0  0  0  0
 43 46  2  0  0  0  0
 45 47  1  0  0  0  0
 46 48  1  0  0  0  0
  4  6  1  0  0  0  0
 23 28  1  0  0  0  0
 30 34  1  0  0  0  0
 42 44  1  0  0  0  0
 47 48  2  0  0  0  0
M  END
>  <MolRegNo>
618652

>  <m>
=

>  <Value>
50

>  <Unit>
nM

>  <Type>
IC50

>  <pValue>
7.3

>  <Ligand Efficiency>
0

>  <Binding Efficiency>
0

>  <Surface Efficiency>
0

>  <Assay Index>
466899

>  <Assay Category>


>  <Assay Organism>
Homo sapiens

>  <Target ID>
17045

>  <Target Name>
Cytochrome P450 3A4

>  <Target Organism>
Homo sapiens

>  <Target Description>
Target is a single protein chain

>  <Sequence Accession>
P08684

>  <Reference>
Bioorg Med Chem Lett 19 (18), 5444-5448 (2009)

>  <Pubmed ID>
19679477

>  <DOI>
10.1016/j.bmcl.2009.07.118

$$$$
618653
Actelion Java MolfileCreator 1.0

 46 50  0  0  0  0  0  0  0  0999 V2000
    0.0000   -0.0000   -0.0000 S   0  0  0  0  0  0  0  0  0  0  0  0
    1.1884    0.9151   -0.0000 C   0  0  0  0  0  0  0  0  0  0  0  0
   -1.2360    0.8794   -0.0000 C   0  0  0  0  0  0  0  0  0  0  0  0
    0.7012    2.3412   -0.0000 C   0  0  0  0  0  0  0  0  0  0  0  0
    2.5314    0.2733   -0.0000 C   0  0  0  0  0  0  0  0  0  0  0  0
   -0.7962    2.3293   -0.0000 N   0  0  0  0  0  0  0  0  0  0  0  0
    2.4957   -1.2122   -0.0000 O   0  0  0  0  0  0  0  0  0  0  0  0
    3.7792   -1.9728   -0.0000 C   0  0  0  0  0  0  0  0  0  0  0  0
    5.0746   -1.2241   -0.0000 O   0  0  0  0  0  0  0  0  0  0  0  0
    3.7436   -3.4583   -0.0000 N   0  0  0  0  0  0  0  0  0  0  0  0
    5.0271   -4.2189   -0.0000 C   0  0  0  0  0  0  0  0  0  0  0  0
    5.0033   -5.7163   -0.0000 C   0  0  0  0  0  0  0  0  0  0  0  0
    6.3224   -3.4702   -0.0000 C   0  0  0  0  0  0  0  0  0  0  0  0
    3.6841   -6.4413   -0.0000 N   0  0  0  0  0  0  0  0  0  0  0  0
    7.0593   -2.1629   -0.0000 C   0  0  0  0  0  0  0  0  0  0  0  0
    3.6604   -7.9268   -0.0000 C   0  0  0  0  0  0  0  0  0  0  0  0
    2.3769   -5.6688   -0.0000 C   0  0  0  0  0  0  0  0  0  0  0  0
    8.5448   -2.1629   -0.0000 C   0  0  0  0  0  0  0  0  0  0  0  0
    6.2987   -0.8557   -0.0000 C   0  0  0  0  0  0  0  0  0  0  0  0
    4.9439   -8.6755   -0.0000 C   0  0  0  0  0  0  0  0  0  0  0  0
    1.0577   -6.3938   -0.0000 C   0  0  0  0  0  0  0  0  0  0  0  0
    9.2935   -0.8557   -0.0000 C   0  0  0  0  0  0  0  0  0  0  0  0
    7.0355    0.4516   -0.0000 C   0  0  0  0  0  0  0  0  0  0  0  0
    6.2274   -7.9268   -0.0000 C   0  0  0  0  0  0  0  0  0  0  0  0
    4.9082  -10.1611   -0.0000 C   0  0  0  0  0  0  0  0  0  0  0  0
   -0.2496   -5.6213   -0.0000 N   0  0  0  0  0  0  0  0  0  0  0  0
    1.0220   -7.8793   -0.0000 C   0  0  0  0  0  0  0  0  0  0  0  0
    8.5329    0.4635   -0.0000 C   0  0  0  0  0  0  0  0  0  0  0  0
    7.5109   -8.6755   -0.0000 N   0  0  0  0  0  0  0  0  0  0  0  0
    6.1917  -10.9098   -0.0000 C   0  0  0  0  0  0  0  0  0  0  0  0
   -1.5687   -6.3462   -0.0000 C   0  0  0  0  0  0  0  0  0  0  0  0
    0.2615   -9.1747   -0.0000 C   0  0  0  0  0  0  0  0  0  0  0  0
    7.4871  -10.1730   -0.0000 C   0  0  0  0  0  0  0  0  0  0  0  0
   -1.5925   -7.8318   -0.0000 O   0  0  0  0  0  0  0  0  0  0  0  0
   -2.8760   -5.5737   -0.0000 O   0  0  0  0  0  0  0  0  0  0  0  0
   -1.2479   -9.1628   -0.0000 C   0  0  0  0  0  0  0  0  0  0  0  0
    0.9983  -10.4463   -0.0000 C   0  0  0  0  0  0  0  0  0  0  0  0
   -4.1952   -6.2987   -0.0000 C   0  0  0  0  0  0  0  0  0  0  0  0
   -1.9966  -10.4463   -0.0000 C   0  0  0  0  0  0  0  0  0  0  0  0
    0.2496  -11.7298   -0.0000 C   0  0  0  0  0  0  0  0  0  0  0  0
   -5.5024   -5.5262   -0.0000 C   0  0  0  0  0  0  0  0  0  0  0  0
   -1.2597  -11.7298   -0.0000 C   0  0  0  0  0  0  0  0  0  0  0  0
   -6.0016   -4.0882   -0.0000 S   0  0  0  0  0  0  0  0  0  0  0  0
   -6.7265   -6.4175   -0.0000 N   0  0  0  0  0  0  0  0  0  0  0  0
   -7.5228   -4.1001   -0.0000 C   0  0  0  0  0  0  0  0  0  0  0  0
   -7.9744   -5.5381   -0.0000 C   0  0  0  0  0  0  0  0  0  0  0  0
  1  2  1  0  0  0  0
  1  3  1  0  0  0  0
  2  4  2  0  0  0  0
  2  5  1  0  0  0  0
  3  6  2  0  0  0  0
  5  7  1  0  0  0  0
  7  8  1  0  0  0  0
  8  9  2  0  0  0  0
  8 10  1  0  0  0  0
 11 10  1  1  0  0  0
 11 12  1  0  0  0  0
 11 13  1  0  0  0  0
 12 14  1  0  0  0  0
 13 15  1  0  0  0  0
 14 16  1  0  0  0  0
 14 17  1  0  0  0  0
 15 18  2  0  0  0  0
 15 19  1  0  0  0  0
 16 20  1  0  0  0  0
 17 21  1  0  0  0  0
 18 22  1  0  0  0  0
 19 23  2  0  0  0  0
 20 24  2  0  0  0  0
 20 25  1  0  0  0  0
 21 26  1  6  0  0  0
 21 27  1  0  0  0  0
 22 28  2  0  0  0  0
 24 29  1  0  0  0  0
 25 30  2  0  0  0  0
 26 31  1  0  0  0  0
 27 32  1  0  0  0  0
 29 33  2  0  0  0  0
 31 34  2  0  0  0  0
 31 35  1  0  0  0  0
 32 36  2  0  0  0  0
 32 37  1  0  0  0  0
 35 38  1  0  0  0  0
 36 39  1  0  0  0  0
 37 40  2  0  0  0  0
 38 41  1  0  0  0  0
 39 42  2  0  0  0  0
 41 43  1  0  0  0  0
 41 44  2  0  0  0  0
 43 45  1  0  0  0  0
 44 46  1  0  0  0  0
  4  6  1  0  0  0  0
 23 28  1  0  0  0  0
 30 33  1  0  0  0  0
 40 42  1  0  0  0  0
 45 46  2  0  0  0  0
M  END
>  <MolRegNo>
618653

>  <m>
=

>  <Value>
66

>  <Unit>
nM

>  <Type>
IC50

>  <pValue>
7.18

>  <Ligand Efficiency>
0

>  <Binding Efficiency>
0

>  <Surface Efficiency>
0

>  <Assay Index>
466899

>  <Assay Category>


>  <Assay Organism>
Homo sapiens

>  <Target ID>
17045

>  <Target Name>
Cytochrome P450 3A4

>  <Target Organism>
Homo sapiens

>  <Target Description>
Target is a single protein chain

>  <Sequence Accession>
P08684

>  <Reference>
Bioorg Med Chem Lett 19 (18), 5444-5448 (2009)

>  <Pubmed ID>
19679477

>  <DOI>
10.1016/j.bmcl.2009.07.118

$$$$
618654
Actelion Java MolfileCreator 1.0

 46 50  0  0  0  0  0  0  0  0999 V2000
    0.0000   -0.0000   -0.0000 S   0  0  0  0  0  0  0  0  0  0  0  0
    1.1876    0.9145   -0.0000 C   0  0  0  0  0  0  0  0  0  0  0  0
   -1.2351    0.8788   -0.0000 C   0  0  0  0  0  0  0  0  0  0  0  0
    0.7007    2.3515   -0.0000 C   0  0  0  0  0  0  0  0  0  0  0  0
    2.5296    0.2613   -0.0000 C   0  0  0  0  0  0  0  0  0  0  0  0
   -0.7957    2.3277   -0.0000 N   0  0  0  0  0  0  0  0  0  0  0  0
    2.4940   -1.2232   -0.0000 O   0  0  0  0  0  0  0  0  0  0  0  0
    3.7766   -1.9833   -0.0000 C   0  0  0  0  0  0  0  0  0  0  0  0
    5.0711   -1.2351   -0.0000 O   0  0  0  0  0  0  0  0  0  0  0  0
    3.7410   -3.4678   -0.0000 N   0  0  0  0  0  0  0  0  0  0  0  0
    5.0236   -4.2279   -0.0000 C   0  0  0  0  0  0  0  0  0  0  0  0
    4.9998   -5.7242   -0.0000 C   0  0  0  0  0  0  0  0  0  0  0  0
    6.3181   -3.4797   -0.0000 C   0  0  0  0  0  0  0  0  0  0  0  0
    3.6816   -6.4487   -0.0000 N   0  0  0  0  0  0  0  0  0  0  0  0
    7.0544   -2.1733   -0.0000 C   0  0  0  0  0  0  0  0  0  0  0  0
    3.6578   -7.9332   -0.0000 C   0  0  0  0  0  0  0  0  0  0  0  0
    2.3752   -5.6767   -0.0000 C   0  0  0  0  0  0  0  0  0  0  0  0
    8.5507   -2.1733   -0.0000 C   0  0  0  0  0  0  0  0  0  0  0  0
    6.2943   -0.8670   -0.0000 C   0  0  0  0  0  0  0  0  0  0  0  0
    4.9404   -8.6814   -0.0000 C   0  0  0  0  0  0  0  0  0  0  0  0
    1.0570   -6.4012   -0.0000 C   0  0  0  0  0  0  0  0  0  0  0  0
    9.2989   -0.8670   -0.0000 C   0  0  0  0  0  0  0  0  0  0  0  0
    7.0306    0.4394   -0.0000 C   0  0  0  0  0  0  0  0  0  0  0  0
    4.9048  -10.1778   -0.0000 C   0  0  0  0  0  0  0  0  0  0  0  0
    6.2230   -7.9332   -0.0000 C   0  0  0  0  0  0  0  0  0  0  0  0
   -0.2494   -5.6292   -0.0000 N   0  0  0  0  0  0  0  0  0  0  0  0
    1.0213   -7.8857   -0.0000 C   0  0  0  0  0  0  0  0  0  0  0  0
    8.5389    0.4513   -0.0000 C   0  0  0  0  0  0  0  0  0  0  0  0
    6.1874  -10.9260   -0.0000 C   0  0  0  0  0  0  0  0  0  0  0  0
    7.5057   -8.6814   -0.0000 C   0  0  0  0  0  0  0  0  0  0  0  0
   -1.5676   -6.3537   -0.0000 C   0  0  0  0  0  0  0  0  0  0  0  0
    0.2613   -9.1802   -0.0000 C   0  0  0  0  0  0  0  0  0  0  0  0
    7.4819  -10.1778   -0.0000 N   0  0  0  0  0  0  0  0  0  0  0  0
   -1.5914   -7.8382   -0.0000 O   0  0  0  0  0  0  0  0  0  0  0  0
   -2.8740   -5.5817   -0.0000 O   0  0  0  0  0  0  0  0  0  0  0  0
   -1.2470   -9.1683   -0.0000 C   0  0  0  0  0  0  0  0  0  0  0  0
    0.9976  -10.4509   -0.0000 C   0  0  0  0  0  0  0  0  0  0  0  0
   -4.1922   -6.3062   -0.0000 C   0  0  0  0  0  0  0  0  0  0  0  0
   -1.9952  -10.4509   -0.0000 C   0  0  0  0  0  0  0  0  0  0  0  0
    0.2494  -11.7335   -0.0000 C   0  0  0  0  0  0  0  0  0  0  0  0
   -5.4986   -5.5342   -0.0000 C   0  0  0  0  0  0  0  0  0  0  0  0
   -1.2470  -11.7335   -0.0000 C   0  0  0  0  0  0  0  0  0  0  0  0
   -5.9974   -4.0972   -0.0000 S   0  0  0  0  0  0  0  0  0  0  0  0
   -6.7218   -6.4249   -0.0000 N   0  0  0  0  0  0  0  0  0  0  0  0
   -7.5175   -4.1091   -0.0000 C   0  0  0  0  0  0  0  0  0  0  0  0
   -7.9688   -5.5461   -0.0000 C   0  0  0  0  0  0  0  0  0  0  0  0
  1  2  1  0  0  0  0
  1  3  1  0  0  0  0
  2  4  2  0  0  0  0
  2  5  1  0  0  0  0
  3  6  2  0  0  0  0
  5  7  1  0  0  0  0
  7  8  1  0  0  0  0
  8  9  2  0  0  0  0
  8 10  1  0  0  0  0
 11 10  1  1  0  0  0
 11 12  1  0  0  0  0
 11 13  1  0  0  0  0
 12 14  1  0  0  0  0
 13 15  1  0  0  0  0
 14 16  1  0  0  0  0
 14 17  1  0  0  0  0
 15 18  2  0  0  0  0
 15 19  1  0  0  0  0
 16 20  1  0  0  0  0
 17 21  1  0  0  0  0
 18 22  1  0  0  0  0
 19 23  2  0  0  0  0
 20 24  2  0  0  0  0
 20 25  1  0  0  0  0
 21 26  1  6  0  0  0
 21 27  1  0  0  0  0
 22 28  2  0  0  0  0
 24 29  1  0  0  0  0
 25 30  2  0  0  0  0
 26 31  1  0  0  0  0
 27 32  1  0  0  0  0
 29 33  2  0  0  0  0
 31 34  2  0  0  0  0
 31 35  1  0  0  0  0
 32 36  2  0  0  0  0
 32 37  1  0  0  0  0
 35 38  1  0  0  0  0
 36 39  1  0  0  0  0
 37 40  2  0  0  0  0
 38 41  1  0  0  0  0
 39 42  2  0  0  0  0
 41 43  1  0  0  0  0
 41 44  2  0  0  0  0
 43 45  1  0  0  0  0
 44 46  1  0  0  0  0
  4  6  1  0  0  0  0
 23 28  1  0  0  0  0
 30 33  1  0  0  0  0
 40 42  1  0  0  0  0
 45 46  2  0  0  0  0
M  END
>  <MolRegNo>
618654

>  <m>
=

>  <Value>
49

>  <Unit>
nM

>  <Type>
IC50

>  <pValue>
7.31

>  <Ligand Efficiency>
0

>  <Binding Efficiency>
0

>  <Surface Efficiency>
0

>  <Assay Index>
466899

>  <Assay Category>


>  <Assay Organism>
Homo sapiens

>  <Target ID>
17045

>  <Target Name>
Cytochrome P450 3A4

>  <Target Organism>
Homo sapiens

>  <Target Description>
Target is a single protein chain

>  <Sequence Accession>
P08684

>  <Reference>
Bioorg Med Chem Lett 19 (18), 5444-5448 (2009)

>  <Pubmed ID>
19679477

>  <DOI>
10.1016/j.bmcl.2009.07.118

$$$$
618655
Actelion Java MolfileCreator 1.0

 45 49  0  0  0  0  0  0  0  0999 V2000
    0.0000   -0.0000   -0.0000 S   0  0  0  0  0  0  0  0  0  0  0  0
    1.1874    0.9143   -0.0000 C   0  0  0  0  0  0  0  0  0  0  0  0
   -1.2349    0.8787   -0.0000 C   0  0  0  0  0  0  0  0  0  0  0  0
    0.7006    2.3511   -0.0000 C   0  0  0  0  0  0  0  0  0  0  0  0
    2.5292    0.2612   -0.0000 C   0  0  0  0  0  0  0  0  0  0  0  0
   -0.7956    2.3273   -0.0000 N   0  0  0  0  0  0  0  0  0  0  0  0
    2.4936   -1.2230   -0.0000 O   0  0  0  0  0  0  0  0  0  0  0  0
    3.7760   -1.9830   -0.0000 C   0  0  0  0  0  0  0  0  0  0  0  0
    5.0702   -1.2349   -0.0000 O   0  0  0  0  0  0  0  0  0  0  0  0
    3.7403   -3.4672   -0.0000 N   0  0  0  0  0  0  0  0  0  0  0  0
    5.0227   -4.2272   -0.0000 C   0  0  0  0  0  0  0  0  0  0  0  0
    4.9990   -5.7233   -0.0000 C   0  0  0  0  0  0  0  0  0  0  0  0
    6.3170   -3.4791   -0.0000 C   0  0  0  0  0  0  0  0  0  0  0  0
    3.6810   -6.4476   -0.0000 N   0  0  0  0  0  0  0  0  0  0  0  0
    7.0532   -2.1730   -0.0000 C   0  0  0  0  0  0  0  0  0  0  0  0
    3.6572   -7.9319   -0.0000 C   0  0  0  0  0  0  0  0  0  0  0  0
    2.3748   -5.6758   -0.0000 C   0  0  0  0  0  0  0  0  0  0  0  0
    8.5494   -2.1730   -0.0000 C   0  0  0  0  0  0  0  0  0  0  0  0
    6.2933   -0.8668   -0.0000 C   0  0  0  0  0  0  0  0  0  0  0  0
    4.9396   -8.6800   -0.0000 C   0  0  0  0  0  0  0  0  0  0  0  0
    1.0568   -6.4001   -0.0000 C   0  0  0  0  0  0  0  0  0  0  0  0
    9.2974   -0.8668   -0.0000 C   0  0  0  0  0  0  0  0  0  0  0  0
    7.0295    0.4393   -0.0000 C   0  0  0  0  0  0  0  0  0  0  0  0
    6.1508   -7.7894   -0.0000 N   0  0  0  0  0  0  0  0  0  0  0  0
    5.3671  -10.0930   -0.0000 C   0  0  0  0  0  0  0  0  0  0  0  0
   -0.2494   -5.6283   -0.0000 N   0  0  0  0  0  0  0  0  0  0  0  0
    1.0212   -7.8844   -0.0000 C   0  0  0  0  0  0  0  0  0  0  0  0
    8.5375    0.4512   -0.0000 C   0  0  0  0  0  0  0  0  0  0  0  0
    7.3382   -8.6800   -0.0000 C   0  0  0  0  0  0  0  0  0  0  0  0
    6.8514  -10.1049   -0.0000 N   0  0  0  0  0  0  0  0  0  0  0  0
   -1.5674   -6.3526   -0.0000 C   0  0  0  0  0  0  0  0  0  0  0  0
    0.2612   -9.1787   -0.0000 C   0  0  0  0  0  0  0  0  0  0  0  0
   -1.5911   -7.8369   -0.0000 O   0  0  0  0  0  0  0  0  0  0  0  0
   -2.8735   -5.5808   -0.0000 O   0  0  0  0  0  0  0  0  0  0  0  0
   -1.2468   -9.1668   -0.0000 C   0  0  0  0  0  0  0  0  0  0  0  0
    0.9974  -10.4492   -0.0000 C   0  0  0  0  0  0  0  0  0  0  0  0
   -4.1916   -6.3051   -0.0000 C   0  0  0  0  0  0  0  0  0  0  0  0
   -1.9948  -10.4492   -0.0000 C   0  0  0  0  0  0  0  0  0  0  0  0
    0.2494  -11.7316   -0.0000 C   0  0  0  0  0  0  0  0  0  0  0  0
   -5.4977   -5.5333   -0.0000 C   0  0  0  0  0  0  0  0  0  0  0  0
   -1.2468  -11.7316   -0.0000 C   0  0  0  0  0  0  0  0  0  0  0  0
   -5.9964   -4.0966   -0.0000 S   0  0  0  0  0  0  0  0  0  0  0  0
   -6.7207   -6.4239   -0.0000 N   0  0  0  0  0  0  0  0  0  0  0  0
   -7.5163   -4.1084   -0.0000 C   0  0  0  0  0  0  0  0  0  0  0  0
   -7.9675   -5.5452   -0.0000 C   0  0  0  0  0  0  0  0  0  0  0  0
  1  2  1  0  0  0  0
  1  3  1  0  0  0  0
  2  4  2  0  0  0  0
  2  5  1  0  0  0  0
  3  6  2  0  0  0  0
  5  7  1  0  0  0  0
  7  8  1  0  0  0  0
  8  9  2  0  0  0  0
  8 10  1  0  0  0  0
 11 10  1  1  0  0  0
 11 12  1  0  0  0  0
 11 13  1  0  0  0  0
 12 14  1  0  0  0  0
 13 15  1  0  0  0  0
 14 16  1  0  0  0  0
 14 17  1  0  0  0  0
 15 18  2  0  0  0  0
 15 19  1  0  0  0  0
 16 20  1  0  0  0  0
 17 21  1  0  0  0  0
 18 22  1  0  0  0  0
 19 23  2  0  0  0  0
 20 24  1  0  0  0  0
 20 25  2  0  0  0  0
 21 26  1  6  0  0  0
 21 27  1  0  0  0  0
 22 28  2  0  0  0  0
 24 29  2  0  0  0  0
 25 30  1  0  0  0  0
 26 31  1  0  0  0  0
 27 32  1  0  0  0  0
 31 33  2  0  0  0  0
 31 34  1  0  0  0  0
 32 35  2  0  0  0  0
 32 36  1  0  0  0  0
 34 37  1  0  0  0  0
 35 38  1  0  0  0  0
 36 39  2  0  0  0  0
 37 40  1  0  0  0  0
 38 41  2  0  0  0  0
 40 42  1  0  0  0  0
 40 43  2  0  0  0  0
 42 44  1  0  0  0  0
 43 45  1  0  0  0  0
  4  6  1  0  0  0  0
 23 28  1  0  0  0  0
 29 30  1  0  0  0  0
 39 41  1  0  0  0  0
 44 45  2  0  0  0  0
M  END
>  <MolRegNo>
618655

>  <m>
=

>  <Value>
66

>  <Unit>
nM

>  <Type>
IC50

>  <pValue>
7.18

>  <Ligand Efficiency>
0

>  <Binding Efficiency>
0

>  <Surface Efficiency>
0

>  <Assay Index>
466899

>  <Assay Category>


>  <Assay Organism>
Homo sapiens

>  <Target ID>
17045

>  <Target Name>
Cytochrome P450 3A4

>  <Target Organism>
Homo sapiens

>  <Target Description>
Target is a single protein chain

>  <Sequence Accession>
P08684

>  <Reference>
Bioorg Med Chem Lett 19 (18), 5444-5448 (2009)

>  <Pubmed ID>
19679477

>  <DOI>
10.1016/j.bmcl.2009.07.118

$$$$
618656
Actelion Java MolfileCreator 1.0

 50 55  0  0  0  0  0  0  0  0999 V2000
    0.0000   -0.0000   -0.0000 S   0  0  0  0  0  0  0  0  0  0  0  0
    1.1885    0.9151   -0.0000 C   0  0  0  0  0  0  0  0  0  0  0  0
   -1.2360    0.8795   -0.0000 C   0  0  0  0  0  0  0  0  0  0  0  0
    0.7012    2.3532   -0.0000 C   0  0  0  0  0  0  0  0  0  0  0  0
    2.5314    0.2615   -0.0000 C   0  0  0  0  0  0  0  0  0  0  0  0
   -0.7963    2.3294   -0.0000 N   0  0  0  0  0  0  0  0  0  0  0  0
    2.4958   -1.2241   -0.0000 O   0  0  0  0  0  0  0  0  0  0  0  0
    3.7793   -1.9847   -0.0000 C   0  0  0  0  0  0  0  0  0  0  0  0
    5.0747   -1.2360   -0.0000 O   0  0  0  0  0  0  0  0  0  0  0  0
    3.7436   -3.4703   -0.0000 N   0  0  0  0  0  0  0  0  0  0  0  0
    5.0272   -4.2309   -0.0000 C   0  0  0  0  0  0  0  0  0  0  0  0
    5.0034   -5.7284   -0.0000 C   0  0  0  0  0  0  0  0  0  0  0  0
    6.3226   -3.4822   -0.0000 C   0  0  0  0  0  0  0  0  0  0  0  0
    3.6842   -6.4533   -0.0000 N   0  0  0  0  0  0  0  0  0  0  0  0
    7.0595   -2.1749   -0.0000 C   0  0  0  0  0  0  0  0  0  0  0  0
    3.6605   -7.9389   -0.0000 C   0  0  0  0  0  0  0  0  0  0  0  0
    2.3769   -5.6808   -0.0000 C   0  0  0  0  0  0  0  0  0  0  0  0
    8.5569   -2.1749   -0.0000 C   0  0  0  0  0  0  0  0  0  0  0  0
    6.2988   -0.8676   -0.0000 C   0  0  0  0  0  0  0  0  0  0  0  0
    4.9440   -8.6876   -0.0000 C   0  0  0  0  0  0  0  0  0  0  0  0
    1.0577   -6.4058   -0.0000 C   0  0  0  0  0  0  0  0  0  0  0  0
    9.3056   -0.8676   -0.0000 C   0  0  0  0  0  0  0  0  0  0  0  0
    7.0357    0.4397   -0.0000 C   0  0  0  0  0  0  0  0  0  0  0  0
    4.9083  -10.1732   -0.0000 C   0  0  0  0  0  0  0  0  0  0  0  0
    6.2275   -7.9270   -0.0000 C   0  0  0  0  0  0  0  0  0  0  0  0
   -0.2496   -5.6333   -0.0000 N   0  0  0  0  0  0  0  0  0  0  0  0
    1.0221   -7.8914   -0.0000 C   0  0  0  0  0  0  0  0  0  0  0  0
    8.5450    0.4516   -0.0000 C   0  0  0  0  0  0  0  0  0  0  0  0
    6.1919  -10.9219   -0.0000 N   0  0  0  0  0  0  0  0  0  0  0  0
    7.5111   -8.6758   -0.0000 C   0  0  0  0  0  0  0  0  0  0  0  0
   -1.5688   -6.3583   -0.0000 C   0  0  0  0  0  0  0  0  0  0  0  0
    0.2615   -9.1868   -0.0000 C   0  0  0  0  0  0  0  0  0  0  0  0
    7.4873  -10.1613   -0.0000 C   0  0  0  0  0  0  0  0  0  0  0  0
    8.7946   -7.9151   -0.0000 C   0  0  0  0  0  0  0  0  0  0  0  0
   -1.5925   -7.8438   -0.0000 O   0  0  0  0  0  0  0  0  0  0  0  0
   -2.8761   -5.5858   -0.0000 O   0  0  0  0  0  0  0  0  0  0  0  0
   -1.2479   -9.1749   -0.0000 C   0  0  0  0  0  0  0  0  0  0  0  0
    0.9983  -10.4584   -0.0000 C   0  0  0  0  0  0  0  0  0  0  0  0
    8.7708  -10.9101   -0.0000 C   0  0  0  0  0  0  0  0  0  0  0  0
   10.0781   -8.6520   -0.0000 C   0  0  0  0  0  0  0  0  0  0  0  0
   -4.1953   -6.3107   -0.0000 C   0  0  0  0  0  0  0  0  0  0  0  0
   -1.9966  -10.4584   -0.0000 C   0  0  0  0  0  0  0  0  0  0  0  0
    0.2496  -11.7420   -0.0000 C   0  0  0  0  0  0  0  0  0  0  0  0
   10.0663  -10.1494   -0.0000 C   0  0  0  0  0  0  0  0  0  0  0  0
   -5.5026   -5.5382   -0.0000 C   0  0  0  0  0  0  0  0  0  0  0  0
   -1.2479  -11.7420   -0.0000 C   0  0  0  0  0  0  0  0  0  0  0  0
   -6.0017   -4.1002   -0.0000 S   0  0  0  0  0  0  0  0  0  0  0  0
   -6.7267   -6.4296   -0.0000 N   0  0  0  0  0  0  0  0  0  0  0  0
   -7.5230   -4.1121   -0.0000 C   0  0  0  0  0  0  0  0  0  0  0  0
   -7.9746   -5.5501   -0.0000 C   0  0  0  0  0  0  0  0  0  0  0  0
  1  2  1  0  0  0  0
  1  3  1  0  0  0  0
  2  4  2  0  0  0  0
  2  5  1  0  0  0  0
  3  6  2  0  0  0  0
  5  7  1  0  0  0  0
  7  8  1  0  0  0  0
  8  9  2  0  0  0  0
  8 10  1  0  0  0  0
 11 10  1  6  0  0  0
 11 12  1  0  0  0  0
 11 13  1  0  0  0  0
 12 14  1  0  0  0  0
 13 15  1  0  0  0  0
 14 16  1  0  0  0  0
 14 17  1  0  0  0  0
 15 18  2  0  0  0  0
 15 19  1  0  0  0  0
 16 20  1  0  0  0  0
 17 21  1  0  0  0  0
 18 22  1  0  0  0  0
 19 23  2  0  0  0  0
 20 24  1  0  0  0  0
 20 25  2  0  0  0  0
 21 26  1  6  0  0  0
 21 27  1  0  0  0  0
 22 28  2  0  0  0  0
 24 29  2  0  0  0  0
 25 30  1  0  0  0  0
 26 31  1  0  0  0  0
 27 32  1  0  0  0  0
 29 33  1  0  0  0  0
 30 34  2  0  0  0  0
 31 35  2  0  0  0  0
 31 36  1  0  0  0  0
 32 37  2  0  0  0  0
 32 38  1  0  0  0  0
 33 39  2  0  0  0  0
 34 40  1  0  0  0  0
 36 41  1  0  0  0  0
 37 42  1  0  0  0  0
 38 43  2  0  0  0  0
 39 44  1  0  0  0  0
 41 45  1  0  0  0  0
 42 46  2  0  0  0  0
 45 47  1  0  0  0  0
 45 48  2  0  0  0  0
 47 49  1  0  0  0  0
 48 50  1  0  0  0  0
  4  6  1  0  0  0  0
 23 28  1  0  0  0  0
 30 33  1  0  0  0  0
 40 44  2  0  0  0  0
 43 46  1  0  0  0  0
 49 50  2  0  0  0  0
M  END
>  <MolRegNo>
618656

>  <m>
=

>  <Value>
70

>  <Unit>
nM

>  <Type>
IC50

>  <pValue>
7.16

>  <Ligand Efficiency>
0

>  <Binding Efficiency>
0

>  <Surface Efficiency>
0

>  <Assay Index>
466899

>  <Assay Category>


>  <Assay Organism>
Homo sapiens

>  <Target ID>
17045

>  <Target Name>
Cytochrome P450 3A4

>  <Target Organism>
Homo sapiens

>  <Target Description>
Target is a single protein chain

>  <Sequence Accession>
P08684

>  <Reference>
Bioorg Med Chem Lett 19 (18), 5444-5448 (2009)

>  <Pubmed ID>
19679477

>  <DOI>
10.1016/j.bmcl.2009.07.118

$$$$
618710
Actelion Java MolfileCreator 1.0

 29 30  0  0  0  0  0  0  0  0999 V2000
    0.0000   -0.0000   -0.0000 S   0  0  0  0  0  0  0  0  0  0  0  0
   -0.4847   -1.4067   -0.0000 C   0  0  0  0  0  0  0  0  0  0  0  0
    1.4895   -0.0000   -0.0000 C   0  0  0  0  0  0  0  0  0  0  0  0
    0.7093   -2.2815   -0.0000 C   0  0  0  0  0  0  0  0  0  0  0  0
   -1.7377   -2.2224   -0.0000 C   0  0  0  0  0  0  0  0  0  0  0  0
    1.9269   -1.4186   -0.0000 N   0  0  0  0  0  0  0  0  0  0  0  0
   -3.0381   -1.4422   -0.0000 O   0  0  0  0  0  0  0  0  0  0  0  0
   -4.3621   -2.1633   -0.0000 C   0  0  0  0  0  0  0  0  0  0  0  0
   -4.3975   -3.6528   -0.0000 O   0  0  0  0  0  0  0  0  0  0  0  0
   -5.6624   -1.3831   -0.0000 N   0  0  0  0  0  0  0  0  0  0  0  0
   -6.9864   -2.1042   -0.0000 C   0  0  0  0  0  0  0  0  0  0  0  0
   -8.2867   -1.3240   -0.0000 C   0  0  0  0  0  0  0  0  0  0  0  0
   -7.0218   -3.5937   -0.0000 C   0  0  0  0  0  0  0  0  0  0  0  0
   -9.5871   -2.0451   -0.0000 N   0  0  0  0  0  0  0  0  0  0  0  0
  -10.8874   -1.2767   -0.0000 C   0  0  0  0  0  0  0  0  0  0  0  0
   -9.6107   -3.5346   -0.0000 C   0  0  0  0  0  0  0  0  0  0  0  0
  -12.1996   -1.9978   -0.0000 C   0  0  0  0  0  0  0  0  0  0  0  0
  -10.9229   -4.2557   -0.0000 C   0  0  0  0  0  0  0  0  0  0  0  0
  -13.4999   -1.2294   -0.0000 N   0  0  0  0  0  0  0  0  0  0  0  0
  -12.2350   -3.4755   -0.0000 C   0  0  0  0  0  0  0  0  0  0  0  0
  -14.8121   -1.9505   -0.0000 C   0  0  0  0  0  0  0  0  0  0  0  0
  -14.8357   -3.4400   -0.0000 O   0  0  0  0  0  0  0  0  0  0  0  0
  -16.1124   -1.1821   -0.0000 O   0  0  0  0  0  0  0  0  0  0  0  0
  -17.4246   -1.9032   -0.0000 C   0  0  0  0  0  0  0  0  0  0  0  0
  -18.7249   -1.1348   -0.0000 C   0  0  0  0  0  0  0  0  0  0  0  0
  -19.2214    0.2955   -0.0000 S   0  0  0  0  0  0  0  0  0  0  0  0
  -19.9425   -2.0214   -0.0000 N   0  0  0  0  0  0  0  0  0  0  0  0
  -20.7345    0.2837   -0.0000 C   0  0  0  0  0  0  0  0  0  0  0  0
  -21.1837   -1.1467   -0.0000 C   0  0  0  0  0  0  0  0  0  0  0  0
  1  2  1  0  0  0  0
  1  3  1  0  0  0  0
  2  4  2  0  0  0  0
  2  5  1  0  0  0  0
  3  6  2  0  0  0  0
  5  7  1  0  0  0  0
  7  8  1  0  0  0  0
  8  9  2  0  0  0  0
  8 10  1  0  0  0  0
 11 10  1  6  0  0  0
 11 12  1  0  0  0  0
 11 13  1  0  0  0  0
 12 14  1  0  0  0  0
 14 15  1  0  0  0  0
 14 16  1  0  0  0  0
 15 17  1  0  0  0  0
 16 18  1  0  0  0  0
 17 19  1  6  0  0  0
 17 20  1  0  0  0  0
 19 21  1  0  0  0  0
 21 22  2  0  0  0  0
 21 23  1  0  0  0  0
 23 24  1  0  0  0  0
 24 25  1  0  0  0  0
 25 26  1  0  0  0  0
 25 27  2  0  0  0  0
 26 28  1  0  0  0  0
 27 29  1  0  0  0  0
  4  6  1  0  0  0  0
 28 29  2  0  0  0  0
M  END
>  <MolRegNo>
618710

>  <m>
=

>  <Value>
1790

>  <Unit>
nM

>  <Type>
IC50

>  <pValue>
5.75

>  <Ligand Efficiency>
0

>  <Binding Efficiency>
0

>  <Surface Efficiency>
0

>  <Assay Index>
466899

>  <Assay Category>


>  <Assay Organism>
Homo sapiens

>  <Target ID>
17045

>  <Target Name>
Cytochrome P450 3A4

>  <Target Organism>
Homo sapiens

>  <Target Description>
Target is a single protein chain

>  <Sequence Accession>
P08684

>  <Reference>
Bioorg Med Chem Lett 19 (18), 5444-5448 (2009)

>  <Pubmed ID>
19679477

>  <DOI>
10.1016/j.bmcl.2009.07.118

$$$$
618711
Actelion Java MolfileCreator 1.0

 29 30  0  0  0  0  0  0  0  0999 V2000
    0.0000   -0.0000   -0.0000 S   0  0  0  0  0  0  0  0  0  0  0  0
   -0.4847   -1.4067   -0.0000 C   0  0  0  0  0  0  0  0  0  0  0  0
    1.4895   -0.0000   -0.0000 C   0  0  0  0  0  0  0  0  0  0  0  0
    0.7093   -2.2815   -0.0000 C   0  0  0  0  0  0  0  0  0  0  0  0
   -1.7377   -2.2224   -0.0000 C   0  0  0  0  0  0  0  0  0  0  0  0
    1.9269   -1.4186   -0.0000 N   0  0  0  0  0  0  0  0  0  0  0  0
   -3.0381   -1.4422   -0.0000 O   0  0  0  0  0  0  0  0  0  0  0  0
   -4.3621   -2.1633   -0.0000 C   0  0  0  0  0  0  0  0  0  0  0  0
   -4.3975   -3.6528   -0.0000 O   0  0  0  0  0  0  0  0  0  0  0  0
   -5.6624   -1.3831   -0.0000 N   0  0  0  0  0  0  0  0  0  0  0  0
   -6.9864   -2.1042   -0.0000 C   0  0  0  0  0  0  0  0  0  0  0  0
   -8.2867   -1.3240   -0.0000 C   0  0  0  0  0  0  0  0  0  0  0  0
   -7.0218   -3.5937   -0.0000 C   0  0  0  0  0  0  0  0  0  0  0  0
   -9.5871   -2.0451   -0.0000 N   0  0  0  0  0  0  0  0  0  0  0  0
  -10.8874   -1.2767   -0.0000 C   0  0  0  0  0  0  0  0  0  0  0  0
   -9.6107   -3.5346   -0.0000 C   0  0  0  0  0  0  0  0  0  0  0  0
  -12.1996   -1.9978   -0.0000 C   0  0  0  0  0  0  0  0  0  0  0  0
  -10.9229   -4.2557   -0.0000 C   0  0  0  0  0  0  0  0  0  0  0  0
  -13.4999   -1.2294   -0.0000 N   0  0  0  0  0  0  0  0  0  0  0  0
  -12.2350   -3.4755   -0.0000 C   0  0  0  0  0  0  0  0  0  0  0  0
  -14.8121   -1.9505   -0.0000 C   0  0  0  0  0  0  0  0  0  0  0  0
  -14.8357   -3.4400   -0.0000 O   0  0  0  0  0  0  0  0  0  0  0  0
  -16.1124   -1.1821   -0.0000 O   0  0  0  0  0  0  0  0  0  0  0  0
  -17.4246   -1.9032   -0.0000 C   0  0  0  0  0  0  0  0  0  0  0  0
  -18.7249   -1.1348   -0.0000 C   0  0  0  0  0  0  0  0  0  0  0  0
  -19.2214    0.2955   -0.0000 S   0  0  0  0  0  0  0  0  0  0  0  0
  -19.9425   -2.0214   -0.0000 N   0  0  0  0  0  0  0  0  0  0  0  0
  -20.7345    0.2837   -0.0000 C   0  0  0  0  0  0  0  0  0  0  0  0
  -21.1837   -1.1467   -0.0000 C   0  0  0  0  0  0  0  0  0  0  0  0
  1  2  1  0  0  0  0
  1  3  1  0  0  0  0
  2  4  2  0  0  0  0
  2  5  1  0  0  0  0
  3  6  2  0  0  0  0
  5  7  1  0  0  0  0
  7  8  1  0  0  0  0
  8  9  2  0  0  0  0
  8 10  1  0  0  0  0
 11 10  1  1  0  0  0
 11 12  1  0  0  0  0
 11 13  1  0  0  0  0
 12 14  1  0  0  0  0
 14 15  1  0  0  0  0
 14 16  1  0  0  0  0
 15 17  1  0  0  0  0
 16 18  1  0  0  0  0
 17 19  1  6  0  0  0
 17 20  1  0  0  0  0
 19 21  1  0  0  0  0
 21 22  2  0  0  0  0
 21 23  1  0  0  0  0
 23 24  1  0  0  0  0
 24 25  1  0  0  0  0
 25 26  1  0  0  0  0
 25 27  2  0  0  0  0
 26 28  1  0  0  0  0
 27 29  1  0  0  0  0
  4  6  1  0  0  0  0
 28 29  2  0  0  0  0
M  END
>  <MolRegNo>
618711

>  <m>
=

>  <Value>
1330

>  <Unit>
nM

>  <Type>
IC50

>  <pValue>
5.88

>  <Ligand Efficiency>
0

>  <Binding Efficiency>
0

>  <Surface Efficiency>
0

>  <Assay Index>
466899

>  <Assay Category>


>  <Assay Organism>
Homo sapiens

>  <Target ID>
17045

>  <Target Name>
Cytochrome P450 3A4

>  <Target Organism>
Homo sapiens

>  <Target Description>
Target is a single protein chain

>  <Sequence Accession>
P08684

>  <Reference>
Bioorg Med Chem Lett 19 (18), 5444-5448 (2009)

>  <Pubmed ID>
19679477

>  <DOI>
10.1016/j.bmcl.2009.07.118

$$$$
618712
Actelion Java MolfileCreator 1.0

 35 36  0  0  0  0  0  0  0  0999 V2000
    0.0000   -0.0000   -0.0000 S   0  0  0  0  0  0  0  0  0  0  0  0
    1.2297    0.8596   -0.0000 C   0  0  0  0  0  0  0  0  0  0  0  0
   -1.1939    0.9312   -0.0000 C   0  0  0  0  0  0  0  0  0  0  0  0
    0.7999    2.3042   -0.0000 C   0  0  0  0  0  0  0  0  0  0  0  0
    2.5907    0.2627   -0.0000 C   0  0  0  0  0  0  0  0  0  0  0  0
   -0.6924    2.3519   -0.0000 N   0  0  0  0  0  0  0  0  0  0  0  0
    2.6146   -1.2297   -0.0000 O   0  0  0  0  0  0  0  0  0  0  0  0
    3.9159   -1.9341   -0.0000 C   0  0  0  0  0  0  0  0  0  0  0  0
    5.1814   -1.1342   -0.0000 O   0  0  0  0  0  0  0  0  0  0  0  0
    3.9398   -3.4264   -0.0000 N   0  0  0  0  0  0  0  0  0  0  0  0
    5.2411   -4.1308   -0.0000 C   0  0  0  0  0  0  0  0  0  0  0  0
    5.2769   -5.6350   -0.0000 C   0  0  0  0  0  0  0  0  0  0  0  0
    6.5066   -3.3309   -0.0000 C   0  0  0  0  0  0  0  0  0  0  0  0
    3.9636   -6.3633   -0.0000 N   0  0  0  0  0  0  0  0  0  0  0  0
    7.8079   -4.0353   -0.0000 C   0  0  0  0  0  0  0  0  0  0  0  0
    2.6623   -5.5873   -0.0000 C   0  0  0  0  0  0  0  0  0  0  0  0
    3.9398   -7.8556   -0.0000 C   0  0  0  0  0  0  0  0  0  0  0  0
    7.8317   -5.5276   -0.0000 C   0  0  0  0  0  0  0  0  0  0  0  0
    9.0734   -3.2354   -0.0000 C   0  0  0  0  0  0  0  0  0  0  0  0
    1.3491   -6.3155   -0.0000 C   0  0  0  0  0  0  0  0  0  0  0  0
    5.2172   -8.6078   -0.0000 C   0  0  0  0  0  0  0  0  0  0  0  0
    0.0478   -5.5395   -0.0000 N   0  0  0  0  0  0  0  0  0  0  0  0
    1.3133   -7.7959   -0.0000 C   0  0  0  0  0  0  0  0  0  0  0  0
   -1.2655   -6.2678   -0.0000 C   0  0  0  0  0  0  0  0  0  0  0  0
    2.5907   -8.5481   -0.0000 C   0  0  0  0  0  0  0  0  0  0  0  0
   -1.3013   -7.7362   -0.0000 O   0  0  0  0  0  0  0  0  0  0  0  0
   -2.5668   -5.4918   -0.0000 O   0  0  0  0  0  0  0  0  0  0  0  0
    2.5549  -10.0404   -0.0000 C   0  0  0  0  0  0  0  0  0  0  0  0
    3.6293   -7.4616   -0.0000 C   0  0  0  0  0  0  0  0  0  0  0  0
   -3.8801   -6.2200   -0.0000 C   0  0  0  0  0  0  0  0  0  0  0  0
   -5.1814   -5.4440   -0.0000 C   0  0  0  0  0  0  0  0  0  0  0  0
   -5.6947   -3.9994   -0.0000 S   0  0  0  0  0  0  0  0  0  0  0  0
   -6.4110   -6.3394   -0.0000 N   0  0  0  0  0  0  0  0  0  0  0  0
   -7.1990   -4.0114   -0.0000 C   0  0  0  0  0  0  0  0  0  0  0  0
   -7.6646   -5.4560   -0.0000 C   0  0  0  0  0  0  0  0  0  0  0  0
  1  2  1  0  0  0  0
  1  3  1  0  0  0  0
  2  4  2  0  0  0  0
  2  5  1  0  0  0  0
  3  6  2  0  0  0  0
  5  7  1  0  0  0  0
  7  8  1  0  0  0  0
  8  9  2  0  0  0  0
  8 10  1  0  0  0  0
 11 10  1  1  0  0  0
 11 12  1  0  0  0  0
 11 13  1  0  0  0  0
 12 14  1  0  0  0  0
 13 15  1  0  0  0  0
 14 16  1  0  0  0  0
 14 17  1  0  0  0  0
 15 18  1  0  0  0  0
 15 19  1  0  0  0  0
 16 20  1  0  0  0  0
 17 21  1  0  0  0  0
 20 22  1  6  0  0  0
 20 23  1  0  0  0  0
 22 24  1  0  0  0  0
 23 25  1  0  0  0  0
 24 26  2  0  0  0  0
 24 27  1  0  0  0  0
 25 28  1  0  0  0  0
 25 29  1  0  0  0  0
 27 30  1  0  0  0  0
 30 31  1  0  0  0  0
 31 32  1  0  0  0  0
 31 33  2  0  0  0  0
 32 34  1  0  0  0  0
 33 35  1  0  0  0  0
  4  6  1  0  0  0  0
 34 35  2  0  0  0  0
M  END
>  <MolRegNo>
618712

>  <m>
=

>  <Value>
136

>  <Unit>
nM

>  <Type>
IC50

>  <pValue>
6.87

>  <Ligand Efficiency>
0

>  <Binding Efficiency>
0

>  <Surface Efficiency>
0

>  <Assay Index>
466899

>  <Assay Category>


>  <Assay Organism>
Homo sapiens

>  <Target ID>
17045

>  <Target Name>
Cytochrome P450 3A4

>  <Target Organism>
Homo sapiens

>  <Target Description>
Target is a single protein chain

>  <Sequence Accession>
P08684

>  <Reference>
Bioorg Med Chem Lett 19 (18), 5444-5448 (2009)

>  <Pubmed ID>
19679477

>  <DOI>
10.1016/j.bmcl.2009.07.118

$$$$
618763
Actelion Java MolfileCreator 1.0

 37 38  0  0  0  0  0  0  0  0999 V2000
    0.0000   -0.0000   -0.0000 S   0  0  0  0  0  0  0  0  0  0  0  0
    1.2293    0.8593   -0.0000 C   0  0  0  0  0  0  0  0  0  0  0  0
   -1.1935    0.9310   -0.0000 C   0  0  0  0  0  0  0  0  0  0  0  0
    0.7997    2.3035   -0.0000 C   0  0  0  0  0  0  0  0  0  0  0  0
    2.5900    0.2626   -0.0000 C   0  0  0  0  0  0  0  0  0  0  0  0
   -0.6922    2.3512   -0.0000 N   0  0  0  0  0  0  0  0  0  0  0  0
    2.6138   -1.2293   -0.0000 O   0  0  0  0  0  0  0  0  0  0  0  0
    3.9148   -1.9335   -0.0000 C   0  0  0  0  0  0  0  0  0  0  0  0
    5.1799   -1.1338   -0.0000 O   0  0  0  0  0  0  0  0  0  0  0  0
    3.9386   -3.4254   -0.0000 N   0  0  0  0  0  0  0  0  0  0  0  0
    5.2396   -4.1296   -0.0000 C   0  0  0  0  0  0  0  0  0  0  0  0
    5.2754   -5.6334   -0.0000 C   0  0  0  0  0  0  0  0  0  0  0  0
    6.5047   -3.3299   -0.0000 C   0  0  0  0  0  0  0  0  0  0  0  0
    3.9625   -6.3615   -0.0000 N   0  0  0  0  0  0  0  0  0  0  0  0
    7.8057   -4.0341   -0.0000 C   0  0  0  0  0  0  0  0  0  0  0  0
    2.6616   -5.5857   -0.0000 C   0  0  0  0  0  0  0  0  0  0  0  0
    3.9386   -7.8534   -0.0000 C   0  0  0  0  0  0  0  0  0  0  0  0
    7.8295   -5.5260   -0.0000 O   0  0  0  0  0  0  0  0  0  0  0  0
    9.0708   -3.2345   -0.0000 O   0  0  0  0  0  0  0  0  0  0  0  0
    1.3487   -6.3138   -0.0000 C   0  0  0  0  0  0  0  0  0  0  0  0
    5.2157   -8.6053   -0.0000 C   0  0  0  0  0  0  0  0  0  0  0  0
    9.0231   -1.7187   -0.0000 C   0  0  0  0  0  0  0  0  0  0  0  0
    0.0477   -5.5380   -0.0000 N   0  0  0  0  0  0  0  0  0  0  0  0
    1.3129   -7.7937   -0.0000 C   0  0  0  0  0  0  0  0  0  0  0  0
   -1.2651   -6.2660   -0.0000 C   0  0  0  0  0  0  0  0  0  0  0  0
    2.5900   -8.5456   -0.0000 C   0  0  0  0  0  0  0  0  0  0  0  0
   -1.3009   -7.7340   -0.0000 O   0  0  0  0  0  0  0  0  0  0  0  0
   -2.5661   -5.4902   -0.0000 O   0  0  0  0  0  0  0  0  0  0  0  0
    3.1748   -7.1492   -0.0000 O   0  0  0  0  0  0  0  0  0  0  0  0
    2.5541  -10.0376   -0.0000 O   0  0  0  0  0  0  0  0  0  0  0  0
   -3.8790   -6.2183   -0.0000 C   0  0  0  0  0  0  0  0  0  0  0  0
    1.2293  -10.7537   -0.0000 C   0  0  0  0  0  0  0  0  0  0  0  0
   -5.1799   -5.4425   -0.0000 C   0  0  0  0  0  0  0  0  0  0  0  0
   -5.6812   -3.9983   -0.0000 S   0  0  0  0  0  0  0  0  0  0  0  0
   -6.3973   -6.3376   -0.0000 N   0  0  0  0  0  0  0  0  0  0  0  0
   -7.1970   -4.0102   -0.0000 C   0  0  0  0  0  0  0  0  0  0  0  0
   -7.6386   -5.4544   -0.0000 C   0  0  0  0  0  0  0  0  0  0  0  0
  1  2  1  0  0  0  0
  1  3  1  0  0  0  0
  2  4  2  0  0  0  0
  2  5  1  0  0  0  0
  3  6  2  0  0  0  0
  5  7  1  0  0  0  0
  7  8  1  0  0  0  0
  8  9  2  0  0  0  0
  8 10  1  0  0  0  0
 10 11  1  0  0  0  0
 11 12  1  0  0  0  0
 11 13  1  0  0  0  0
 12 14  1  0  0  0  0
 13 15  1  0  0  0  0
 14 16  1  0  0  0  0
 14 17  1  0  0  0  0
 15 18  2  0  0  0  0
 15 19  1  0  0  0  0
 16 20  1  0  0  0  0
 17 21  1  0  0  0  0
 19 22  1  0  0  0  0
 20 23  1  0  0  0  0
 20 24  1  0  0  0  0
 23 25  1  0  0  0  0
 24 26  1  0  0  0  0
 25 27  2  0  0  0  0
 25 28  1  0  0  0  0
 26 29  2  0  0  0  0
 26 30  1  0  0  0  0
 28 31  1  0  0  0  0
 30 32  1  0  0  0  0
 31 33  1  0  0  0  0
 33 34  1  0  0  0  0
 33 35  2  0  0  0  0
 34 36  1  0  0  0  0
 35 37  1  0  0  0  0
  4  6  1  0  0  0  0
 36 37  2  0  0  0  0
M  END
>  <MolRegNo>
618763

>  <m>
=

>  <Value>
88

>  <Unit>
nM

>  <Type>
IC50

>  <pValue>
7.06

>  <Ligand Efficiency>
0

>  <Binding Efficiency>
0

>  <Surface Efficiency>
0

>  <Assay Index>
466899

>  <Assay Category>


>  <Assay Organism>
Homo sapiens

>  <Target ID>
17045

>  <Target Name>
Cytochrome P450 3A4

>  <Target Organism>
Homo sapiens

>  <Target Description>
Target is a single protein chain

>  <Sequence Accession>
P08684

>  <Reference>
Bioorg Med Chem Lett 19 (18), 5444-5448 (2009)

>  <Pubmed ID>
19679477

>  <DOI>
10.1016/j.bmcl.2009.07.118

$$$$
618764
Actelion Java MolfileCreator 1.0

 41 44  0  0  0  0  0  0  0  0999 V2000
    0.0000   -0.0000   -0.0000 S   0  0  0  0  0  0  0  0  0  0  0  0
    1.2325    0.8616   -0.0000 C   0  0  0  0  0  0  0  0  0  0  0  0
   -1.1966    0.9334   -0.0000 C   0  0  0  0  0  0  0  0  0  0  0  0
    0.8018    2.3095   -0.0000 C   0  0  0  0  0  0  0  0  0  0  0  0
    2.5967    0.2633   -0.0000 C   0  0  0  0  0  0  0  0  0  0  0  0
   -0.6941    2.3574   -0.0000 N   0  0  0  0  0  0  0  0  0  0  0  0
    2.6207   -1.2325   -0.0000 O   0  0  0  0  0  0  0  0  0  0  0  0
    3.9250   -1.9386   -0.0000 C   0  0  0  0  0  0  0  0  0  0  0  0
    5.1934   -1.1368   -0.0000 O   0  0  0  0  0  0  0  0  0  0  0  0
    3.9489   -3.4344   -0.0000 N   0  0  0  0  0  0  0  0  0  0  0  0
    5.2533   -4.1404   -0.0000 C   0  0  0  0  0  0  0  0  0  0  0  0
    5.2892   -5.6482   -0.0000 C   0  0  0  0  0  0  0  0  0  0  0  0
    6.5217   -3.3386   -0.0000 C   0  0  0  0  0  0  0  0  0  0  0  0
    3.9729   -6.3781   -0.0000 N   0  0  0  0  0  0  0  0  0  0  0  0
    7.8261   -4.0447   -0.0000 C   0  0  0  0  0  0  0  0  0  0  0  0
    2.6685   -5.6003   -0.0000 C   0  0  0  0  0  0  0  0  0  0  0  0
    3.9489   -7.8739   -0.0000 C   0  0  0  0  0  0  0  0  0  0  0  0
    7.8380   -5.5285   -0.0000 C   0  0  0  0  0  0  0  0  0  0  0  0
    9.0825   -3.2429   -0.0000 C   0  0  0  0  0  0  0  0  0  0  0  0
    1.3522   -6.3303   -0.0000 C   0  0  0  0  0  0  0  0  0  0  0  0
    5.2293   -8.6278   -0.0000 C   0  0  0  0  0  0  0  0  0  0  0  0
    9.1424   -6.2345   -0.0000 C   0  0  0  0  0  0  0  0  0  0  0  0
   10.3988   -3.9609   -0.0000 C   0  0  0  0  0  0  0  0  0  0  0  0
    0.0479   -5.5524   -0.0000 N   0  0  0  0  0  0  0  0  0  0  0  0
    1.3163   -7.8141   -0.0000 C   0  0  0  0  0  0  0  0  0  0  0  0
   10.4228   -5.4447   -0.0000 C   0  0  0  0  0  0  0  0  0  0  0  0
   -1.2684   -6.2824   -0.0000 C   0  0  0  0  0  0  0  0  0  0  0  0
    2.5848   -8.5680   -0.0000 C   0  0  0  0  0  0  0  0  0  0  0  0
   -1.3043   -7.7543   -0.0000 O   0  0  0  0  0  0  0  0  0  0  0  0
   -2.5728   -5.5046   -0.0000 O   0  0  0  0  0  0  0  0  0  0  0  0
    1.8189   -9.8604   -0.0000 C   0  0  0  0  0  0  0  0  0  0  0  0
    4.0686   -8.5560   -0.0000 C   0  0  0  0  0  0  0  0  0  0  0  0
   -3.8891   -6.2345   -0.0000 C   0  0  0  0  0  0  0  0  0  0  0  0
    2.5489  -11.1527   -0.0000 C   0  0  0  0  0  0  0  0  0  0  0  0
    4.7985   -9.8604   -0.0000 C   0  0  0  0  0  0  0  0  0  0  0  0
   -5.1934   -5.4567   -0.0000 C   0  0  0  0  0  0  0  0  0  0  0  0
    4.0447  -11.1527   -0.0000 C   0  0  0  0  0  0  0  0  0  0  0  0
   -5.6960   -4.0088   -0.0000 S   0  0  0  0  0  0  0  0  0  0  0  0
   -6.4140   -6.3542   -0.0000 N   0  0  0  0  0  0  0  0  0  0  0  0
   -7.2158   -4.0207   -0.0000 C   0  0  0  0  0  0  0  0  0  0  0  0
   -7.6585   -5.4687   -0.0000 C   0  0  0  0  0  0  0  0  0  0  0  0
  1  2  1  0  0  0  0
  1  3  1  0  0  0  0
  2  4  2  0  0  0  0
  2  5  1  0  0  0  0
  3  6  2  0  0  0  0
  5  7  1  0  0  0  0
  7  8  1  0  0  0  0
  8  9  2  0  0  0  0
  8 10  1  0  0  0  0
 10 11  1  0  0  0  0
 11 12  1  0  0  0  0
 11 13  1  0  0  0  0
 12 14  1  0  0  0  0
 13 15  1  0  0  0  0
 14 16  1  0  0  0  0
 14 17  1  0  0  0  0
 15 18  1  0  0  0  0
 15 19  1  0  0  0  0
 16 20  1  0  0  0  0
 17 21  1  0  0  0  0
 18 22  1  0  0  0  0
 19 23  1  0  0  0  0
 20 24  1  0  0  0  0
 20 25  1  0  0  0  0
 22 26  1  0  0  0  0
 24 27  1  0  0  0  0
 25 28  1  0  0  0  0
 27 29  2  0  0  0  0
 27 30  1  0  0  0  0
 28 31  1  0  0  0  0
 28 32  1  0  0  0  0
 30 33  1  0  0  0  0
 31 34  1  0  0  0  0
 32 35  1  0  0  0  0
 33 36  1  0  0  0  0
 34 37  1  0  0  0  0
 36 38  1  0  0  0  0
 36 39  2  0  0  0  0
 38 40  1  0  0  0  0
 39 41  1  0  0  0  0
  4  6  1  0  0  0  0
 23 26  1  0  0  0  0
 35 37  1  0  0  0  0
 40 41  2  0  0  0  0
M  END
>  <MolRegNo>
618764

>  <m>
=

>  <Value>
66

>  <Unit>
nM

>  <Type>
IC50

>  <pValue>
7.18

>  <Ligand Efficiency>
0

>  <Binding Efficiency>
0

>  <Surface Efficiency>
0

>  <Assay Index>
466899

>  <Assay Category>


>  <Assay Organism>
Homo sapiens

>  <Target ID>
17045

>  <Target Name>
Cytochrome P450 3A4

>  <Target Organism>
Homo sapiens

>  <Target Description>
Target is a single protein chain

>  <Sequence Accession>
P08684

>  <Reference>
Bioorg Med Chem Lett 19 (18), 5444-5448 (2009)

>  <Pubmed ID>
19679477

>  <DOI>
10.1016/j.bmcl.2009.07.118

$$$$
618765
Actelion Java MolfileCreator 1.0

 45 48  0  0  0  0  0  0  0  0999 V2000
    0.0000   -0.0000   -0.0000 S   0  0  0  0  0  0  0  0  0  0  0  0
   -0.4507   -1.4232   -0.0000 C   0  0  0  0  0  0  0  0  0  0  0  0
    1.4943    0.0356   -0.0000 C   0  0  0  0  0  0  0  0  0  0  0  0
    0.7590   -2.2771   -0.0000 C   0  0  0  0  0  0  0  0  0  0  0  0
   -1.6841   -2.2771   -0.0000 C   0  0  0  0  0  0  0  0  0  0  0  0
    1.9687   -1.3757   -0.0000 N   0  0  0  0  0  0  0  0  0  0  0  0
   -3.0005   -1.5299   -0.0000 O   0  0  0  0  0  0  0  0  0  0  0  0
   -4.3051   -2.2771   -0.0000 C   0  0  0  0  0  0  0  0  0  0  0  0
   -4.3051   -3.7714   -0.0000 O   0  0  0  0  0  0  0  0  0  0  0  0
   -5.6215   -1.5299   -0.0000 N   0  0  0  0  0  0  0  0  0  0  0  0
   -6.9261   -2.2771   -0.0000 C   0  0  0  0  0  0  0  0  0  0  0  0
   -6.9261   -3.7714   -0.0000 C   0  0  0  0  0  0  0  0  0  0  0  0
   -8.2662   -1.5299   -0.0000 C   0  0  0  0  0  0  0  0  0  0  0  0
   -5.6334   -4.4948   -0.0000 O   0  0  0  0  0  0  0  0  0  0  0  0
   -9.5708   -2.2533   -0.0000 N   0  0  0  0  0  0  0  0  0  0  0  0
   -5.6334   -5.9892   -0.0000 C   0  0  0  0  0  0  0  0  0  0  0  0
  -10.8754   -1.4825   -0.0000 C   0  0  0  0  0  0  0  0  0  0  0  0
   -9.5945   -3.7477   -0.0000 C   0  0  0  0  0  0  0  0  0  0  0  0
   -4.3407   -6.7126   -0.0000 C   0  0  0  0  0  0  0  0  0  0  0  0
  -12.1918   -2.2059   -0.0000 C   0  0  0  0  0  0  0  0  0  0  0  0
   -8.3137   -4.4948   -0.0000 C   0  0  0  0  0  0  0  0  0  0  0  0
   -4.3407   -8.1951   -0.0000 C   0  0  0  0  0  0  0  0  0  0  0  0
   -3.0717   -5.9299   -0.0000 C   0  0  0  0  0  0  0  0  0  0  0  0
  -13.4964   -1.4350   -0.0000 N   0  0  0  0  0  0  0  0  0  0  0  0
  -12.2274   -3.6884   -0.0000 C   0  0  0  0  0  0  0  0  0  0  0  0
   -3.0480   -8.9185   -0.0000 C   0  0  0  0  0  0  0  0  0  0  0  0
   -1.7790   -6.6533   -0.0000 C   0  0  0  0  0  0  0  0  0  0  0  0
  -14.8128   -2.1585   -0.0000 C   0  0  0  0  0  0  0  0  0  0  0  0
  -13.5557   -4.4118   -0.0000 O   0  0  0  0  0  0  0  0  0  0  0  0
   -1.7671   -8.1476   -0.0000 C   0  0  0  0  0  0  0  0  0  0  0  0
  -14.8484   -3.6291   -0.0000 O   0  0  0  0  0  0  0  0  0  0  0  0
  -16.1174   -1.3876   -0.0000 O   0  0  0  0  0  0  0  0  0  0  0  0
  -13.5913   -5.9061   -0.0000 C   0  0  0  0  0  0  0  0  0  0  0  0
  -17.4338   -2.1110   -0.0000 C   0  0  0  0  0  0  0  0  0  0  0  0
  -14.9195   -6.6296   -0.0000 C   0  0  0  0  0  0  0  0  0  0  0  0
  -18.7384   -1.3401   -0.0000 C   0  0  0  0  0  0  0  0  0  0  0  0
  -16.2123   -5.8468   -0.0000 C   0  0  0  0  0  0  0  0  0  0  0  0
  -14.9433   -8.1121   -0.0000 C   0  0  0  0  0  0  0  0  0  0  0  0
  -19.2365    0.0949   -0.0000 S   0  0  0  0  0  0  0  0  0  0  0  0
  -19.9599   -2.2296   -0.0000 N   0  0  0  0  0  0  0  0  0  0  0  0
  -17.5287   -6.5703   -0.0000 C   0  0  0  0  0  0  0  0  0  0  0  0
  -16.2597   -8.8355   -0.0000 C   0  0  0  0  0  0  0  0  0  0  0  0
  -20.7545    0.0830   -0.0000 C   0  0  0  0  0  0  0  0  0  0  0  0
  -21.2052   -1.3520   -0.0000 C   0  0  0  0  0  0  0  0  0  0  0  0
  -17.5643   -8.0646   -0.0000 C   0  0  0  0  0  0  0  0  0  0  0  0
  1  2  1  0  0  0  0
  1  3  1  0  0  0  0
  2  4  2  0  0  0  0
  2  5  1  0  0  0  0
  3  6  2  0  0  0  0
  5  7  1  0  0  0  0
  7  8  1  0  0  0  0
  8  9  2  0  0  0  0
  8 10  1  0  0  0  0
 10 11  1  0  0  0  0
 11 12  1  0  0  0  0
 11 13  1  0  0  0  0
 12 14  1  0  0  0  0
 13 15  1  0  0  0  0
 14 16  1  0  0  0  0
 15 17  1  0  0  0  0
 15 18  1  0  0  0  0
 16 19  1  0  0  0  0
 17 20  1  0  0  0  0
 18 21  1  0  0  0  0
 19 22  2  0  0  0  0
 19 23  1  0  0  0  0
 20 24  1  0  0  0  0
 20 25  1  0  0  0  0
 22 26  1  0  0  0  0
 23 27  2  0  0  0  0
 24 28  1  0  0  0  0
 25 29  1  0  0  0  0
 26 30  2  0  0  0  0
 28 31  2  0  0  0  0
 28 32  1  0  0  0  0
 29 33  1  0  0  0  0
 32 34  1  0  0  0  0
 33 35  1  0  0  0  0
 34 36  1  0  0  0  0
 35 37  2  0  0  0  0
 35 38  1  0  0  0  0
 36 39  1  0  0  0  0
 36 40  2  0  0  0  0
 37 41  1  0  0  0  0
 38 42  2  0  0  0  0
 39 43  1  0  0  0  0
 40 44  1  0  0  0  0
 41 45  2  0  0  0  0
  4  6  1  0  0  0  0
 27 30  1  0  0  0  0
 42 45  1  0  0  0  0
 43 44  2  0  0  0  0
M  END
>  <MolRegNo>
618765

>  <m>
=

>  <Value>
135

>  <Unit>
nM

>  <Type>
IC50

>  <pValue>
6.87

>  <Ligand Efficiency>
0

>  <Binding Efficiency>
0

>  <Surface Efficiency>
0

>  <Assay Index>
466899

>  <Assay Category>


>  <Assay Organism>
Homo sapiens

>  <Target ID>
17045

>  <Target Name>
Cytochrome P450 3A4

>  <Target Organism>
Homo sapiens

>  <Target Description>
Target is a single protein chain

>  <Sequence Accession>
P08684

>  <Reference>
Bioorg Med Chem Lett 19 (18), 5444-5448 (2009)

>  <Pubmed ID>
19679477

>  <DOI>
10.1016/j.bmcl.2009.07.118

$$$$
618766
Actelion Java MolfileCreator 1.0

 43 46  0  0  0  0  0  0  0  0999 V2000
    0.0000   -0.0000   -0.0000 S   0  0  0  0  0  0  0  0  0  0  0  0
    1.2331    0.8620   -0.0000 C   0  0  0  0  0  0  0  0  0  0  0  0
   -1.1972    0.9338   -0.0000 C   0  0  0  0  0  0  0  0  0  0  0  0
    0.8021    2.3106   -0.0000 C   0  0  0  0  0  0  0  0  0  0  0  0
    2.5979    0.2634   -0.0000 C   0  0  0  0  0  0  0  0  0  0  0  0
   -0.6944    2.3585   -0.0000 N   0  0  0  0  0  0  0  0  0  0  0  0
    2.6219   -1.2331   -0.0000 O   0  0  0  0  0  0  0  0  0  0  0  0
    3.9268   -1.9395   -0.0000 C   0  0  0  0  0  0  0  0  0  0  0  0
    5.1959   -1.1373   -0.0000 O   0  0  0  0  0  0  0  0  0  0  0  0
    3.9508   -3.4360   -0.0000 N   0  0  0  0  0  0  0  0  0  0  0  0
    5.2558   -4.1423   -0.0000 C   0  0  0  0  0  0  0  0  0  0  0  0
    5.2917   -5.6508   -0.0000 C   0  0  0  0  0  0  0  0  0  0  0  0
    6.5248   -3.3402   -0.0000 C   0  0  0  0  0  0  0  0  0  0  0  0
    3.9747   -6.3811   -0.0000 N   0  0  0  0  0  0  0  0  0  0  0  0
    7.8298   -4.0466   -0.0000 C   0  0  0  0  0  0  0  0  0  0  0  0
    2.6698   -5.6029   -0.0000 C   0  0  0  0  0  0  0  0  0  0  0  0
    3.9508   -7.8776   -0.0000 C   0  0  0  0  0  0  0  0  0  0  0  0
    7.8417   -5.5311   -0.0000 C   0  0  0  0  0  0  0  0  0  0  0  0
    9.0868   -3.2444   -0.0000 C   0  0  0  0  0  0  0  0  0  0  0  0
    1.3528   -6.3332   -0.0000 C   0  0  0  0  0  0  0  0  0  0  0  0
    5.2318   -8.6319   -0.0000 C   0  0  0  0  0  0  0  0  0  0  0  0
    9.1467   -6.2375   -0.0000 C   0  0  0  0  0  0  0  0  0  0  0  0
   10.4038   -3.9628   -0.0000 C   0  0  0  0  0  0  0  0  0  0  0  0
    0.0479   -5.5551   -0.0000 N   0  0  0  0  0  0  0  0  0  0  0  0
    1.3169   -7.8178   -0.0000 C   0  0  0  0  0  0  0  0  0  0  0  0
   10.4277   -5.4473   -0.0000 C   0  0  0  0  0  0  0  0  0  0  0  0
   -1.2690   -6.2854   -0.0000 C   0  0  0  0  0  0  0  0  0  0  0  0
    2.5860   -8.5720   -0.0000 C   0  0  0  0  0  0  0  0  0  0  0  0
   11.7327   -6.1537   -0.0000 O   0  0  0  0  0  0  0  0  0  0  0  0
   -1.3050   -7.7579   -0.0000 O   0  0  0  0  0  0  0  0  0  0  0  0
   -2.5740   -5.5072   -0.0000 O   0  0  0  0  0  0  0  0  0  0  0  0
    1.8198   -9.8650   -0.0000 C   0  0  0  0  0  0  0  0  0  0  0  0
    4.0705   -8.5600   -0.0000 C   0  0  0  0  0  0  0  0  0  0  0  0
   -3.8909   -6.2375   -0.0000 C   0  0  0  0  0  0  0  0  0  0  0  0
    2.5501  -11.1580   -0.0000 C   0  0  0  0  0  0  0  0  0  0  0  0
    4.8008   -9.8650   -0.0000 C   0  0  0  0  0  0  0  0  0  0  0  0
   -5.1959   -5.4593   -0.0000 C   0  0  0  0  0  0  0  0  0  0  0  0
    4.0466  -11.1580   -0.0000 C   0  0  0  0  0  0  0  0  0  0  0  0
   -5.6987   -4.0107   -0.0000 S   0  0  0  0  0  0  0  0  0  0  0  0
   -6.4170   -6.3572   -0.0000 N   0  0  0  0  0  0  0  0  0  0  0  0
    4.7769  -12.4510   -0.0000 O   0  0  0  0  0  0  0  0  0  0  0  0
   -7.2192   -4.0226   -0.0000 C   0  0  0  0  0  0  0  0  0  0  0  0
   -7.6621   -5.4712   -0.0000 C   0  0  0  0  0  0  0  0  0  0  0  0
  1  2  1  0  0  0  0
  1  3  1  0  0  0  0
  2  4  2  0  0  0  0
  2  5  1  0  0  0  0
  3  6  2  0  0  0  0
  5  7  1  0  0  0  0
  7  8  1  0  0  0  0
  8  9  2  0  0  0  0
  8 10  1  0  0  0  0
 10 11  1  0  0  0  0
 11 12  1  0  0  0  0
 11 13  1  0  0  0  0
 12 14  1  0  0  0  0
 13 15  1  0  0  0  0
 14 16  1  0  0  0  0
 14 17  1  0  0  0  0
 15 18  2  0  0  0  0
 15 19  1  0  0  0  0
 16 20  1  0  0  0  0
 17 21  1  0  0  0  0
 18 22  1  0  0  0  0
 19 23  2  0  0  0  0
 20 24  1  0  0  0  0
 20 25  1  0  0  0  0
 22 26  2  0  0  0  0
 24 27  1  0  0  0  0
 25 28  1  0  0  0  0
 26 29  1  0  0  0  0
 27 30  2  0  0  0  0
 27 31  1  0  0  0  0
 28 32  2  0  0  0  0
 28 33  1  0  0  0  0
 31 34  1  0  0  0  0
 32 35  1  0  0  0  0
 33 36  2  0  0  0  0
 34 37  1  0  0  0  0
 35 38  2  0  0  0  0
 37 39  1  0  0  0  0
 37 40  2  0  0  0  0
 38 41  1  0  0  0  0
 39 42  1  0  0  0  0
 40 43  1  0  0  0  0
  4  6  1  0  0  0  0
 23 26  1  0  0  0  0
 36 38  1  0  0  0  0
 42 43  2  0  0  0  0
M  END
>  <MolRegNo>
618766

>  <m>
=

>  <Value>
91

>  <Unit>
nM

>  <Type>
IC50

>  <pValue>
7.04

>  <Ligand Efficiency>
0

>  <Binding Efficiency>
0

>  <Surface Efficiency>
0

>  <Assay Index>
466899

>  <Assay Category>


>  <Assay Organism>
Homo sapiens

>  <Target ID>
17045

>  <Target Name>
Cytochrome P450 3A4

>  <Target Organism>
Homo sapiens

>  <Target Description>
Target is a single protein chain

>  <Sequence Accession>
P08684

>  <Reference>
Bioorg Med Chem Lett 19 (18), 5444-5448 (2009)

>  <Pubmed ID>
19679477

>  <DOI>
10.1016/j.bmcl.2009.07.118

$$$$
618767
Actelion Java MolfileCreator 1.0

 57 62  0  0  0  0  0  0  0  0999 V2000
    0.0000   -0.0000   -0.0000 S   0  0  0  0  0  0  0  0  0  0  0  0
    1.2326    0.8616   -0.0000 C   0  0  0  0  0  0  0  0  0  0  0  0
   -1.1967    0.9334   -0.0000 C   0  0  0  0  0  0  0  0  0  0  0  0
    0.8018    2.3096   -0.0000 C   0  0  0  0  0  0  0  0  0  0  0  0
    2.5968    0.2633   -0.0000 C   0  0  0  0  0  0  0  0  0  0  0  0
   -0.6941    2.3575   -0.0000 N   0  0  0  0  0  0  0  0  0  0  0  0
    2.6208   -1.2326   -0.0000 O   0  0  0  0  0  0  0  0  0  0  0  0
    3.9252   -1.9387   -0.0000 C   0  0  0  0  0  0  0  0  0  0  0  0
    5.1937   -1.1369   -0.0000 O   0  0  0  0  0  0  0  0  0  0  0  0
    3.9491   -3.4345   -0.0000 N   0  0  0  0  0  0  0  0  0  0  0  0
    5.2535   -4.1406   -0.0000 C   0  0  0  0  0  0  0  0  0  0  0  0
    5.2894   -5.6484   -0.0000 C   0  0  0  0  0  0  0  0  0  0  0  0
    6.5220   -3.3388   -0.0000 C   0  0  0  0  0  0  0  0  0  0  0  0
    3.9731   -6.3784   -0.0000 N   0  0  0  0  0  0  0  0  0  0  0  0
    7.8264   -4.0449   -0.0000 C   0  0  0  0  0  0  0  0  0  0  0  0
    2.6686   -5.6006   -0.0000 C   0  0  0  0  0  0  0  0  0  0  0  0
    3.9491   -7.8743   -0.0000 C   0  0  0  0  0  0  0  0  0  0  0  0
    7.8384   -5.5288   -0.0000 C   0  0  0  0  0  0  0  0  0  0  0  0
    9.0830   -3.2431   -0.0000 C   0  0  0  0  0  0  0  0  0  0  0  0
    1.3523   -6.3306   -0.0000 C   0  0  0  0  0  0  0  0  0  0  0  0
    5.2296   -8.6282   -0.0000 C   0  0  0  0  0  0  0  0  0  0  0  0
    9.1428   -6.2348   -0.0000 C   0  0  0  0  0  0  0  0  0  0  0  0
   10.3993   -3.9611   -0.0000 C   0  0  0  0  0  0  0  0  0  0  0  0
    0.0479   -5.5527   -0.0000 N   0  0  0  0  0  0  0  0  0  0  0  0
    1.3164   -7.8145   -0.0000 C   0  0  0  0  0  0  0  0  0  0  0  0
   10.4233   -5.4450   -0.0000 C   0  0  0  0  0  0  0  0  0  0  0  0
   -1.2685   -6.2827   -0.0000 C   0  0  0  0  0  0  0  0  0  0  0  0
    2.5849   -8.5684   -0.0000 C   0  0  0  0  0  0  0  0  0  0  0  0
   11.7277   -6.1511   -0.0000 O   0  0  0  0  0  0  0  0  0  0  0  0
   -1.3044   -7.7546   -0.0000 O   0  0  0  0  0  0  0  0  0  0  0  0
   -2.5729   -5.5048   -0.0000 O   0  0  0  0  0  0  0  0  0  0  0  0
    1.8190   -9.8608   -0.0000 C   0  0  0  0  0  0  0  0  0  0  0  0
    4.0688   -8.5564   -0.0000 C   0  0  0  0  0  0  0  0  0  0  0  0
   11.7516   -7.6469   -0.0000 C   0  0  0  0  0  0  0  0  0  0  0  0
   -3.8893   -6.2348   -0.0000 C   0  0  0  0  0  0  0  0  0  0  0  0
    2.5490  -11.1533   -0.0000 C   0  0  0  0  0  0  0  0  0  0  0  0
    4.7988   -9.8608   -0.0000 C   0  0  0  0  0  0  0  0  0  0  0  0
   13.0560   -8.3530   -0.0000 C   0  0  0  0  0  0  0  0  0  0  0  0
   -5.1937   -5.4570   -0.0000 C   0  0  0  0  0  0  0  0  0  0  0  0
    4.0449  -11.1533   -0.0000 C   0  0  0  0  0  0  0  0  0  0  0  0
   13.0680   -9.8489   -0.0000 C   0  0  0  0  0  0  0  0  0  0  0  0
   14.3245   -7.5632   -0.0000 C   0  0  0  0  0  0  0  0  0  0  0  0
   -5.6963   -4.0090   -0.0000 S   0  0  0  0  0  0  0  0  0  0  0  0
   -6.4143   -6.3545   -0.0000 N   0  0  0  0  0  0  0  0  0  0  0  0
    4.7748  -12.4457   -0.0000 O   0  0  0  0  0  0  0  0  0  0  0  0
   14.3724  -10.5549   -0.0000 C   0  0  0  0  0  0  0  0  0  0  0  0
   15.6289   -8.2692   -0.0000 C   0  0  0  0  0  0  0  0  0  0  0  0
   -7.2161   -4.0209   -0.0000 C   0  0  0  0  0  0  0  0  0  0  0  0
   -7.6589   -5.4689   -0.0000 C   0  0  0  0  0  0  0  0  0  0  0  0
    3.9970  -13.7262   -0.0000 C   0  0  0  0  0  0  0  0  0  0  0  0
   15.6529   -9.7651   -0.0000 C   0  0  0  0  0  0  0  0  0  0  0  0
    2.4772  -13.7022   -0.0000 C   0  0  0  0  0  0  0  0  0  0  0  0
    1.7233  -12.3859   -0.0000 C   0  0  0  0  0  0  0  0  0  0  0  0
    1.7113  -14.9827   -0.0000 C   0  0  0  0  0  0  0  0  0  0  0  0
    0.2034  -12.3619   -0.0000 C   0  0  0  0  0  0  0  0  0  0  0  0
    0.2034  -14.9707   -0.0000 C   0  0  0  0  0  0  0  0  0  0  0  0
   -0.5744  -13.6424   -0.0000 C   0  0  0  0  0  0  0  0  0  0  0  0
  1  2  1  0  0  0  0
  1  3  1  0  0  0  0
  2  4  2  0  0  0  0
  2  5  1  0  0  0  0
  3  6  2  0  0  0  0
  5  7  1  0  0  0  0
  7  8  1  0  0  0  0
  8  9  2  0  0  0  0
  8 10  1  0  0  0  0
 10 11  1  0  0  0  0
 11 12  1  0  0  0  0
 11 13  1  0  0  0  0
 12 14  1  0  0  0  0
 13 15  1  0  0  0  0
 14 16  1  0  0  0  0
 14 17  1  0  0  0  0
 15 18  2  0  0  0  0
 15 19  1  0  0  0  0
 16 20  1  0  0  0  0
 17 21  1  0  0  0  0
 18 22  1  0  0  0  0
 19 23  2  0  0  0  0
 20 24  1  0  0  0  0
 20 25  1  0  0  0  0
 22 26  2  0  0  0  0
 24 27  1  0  0  0  0
 25 28  1  0  0  0  0
 26 29  1  0  0  0  0
 27 30  2  0  0  0  0
 27 31  1  0  0  0  0
 28 32  2  0  0  0  0
 28 33  1  0  0  0  0
 29 34  1  0  0  0  0
 31 35  1  0  0  0  0
 32 36  1  0  0  0  0
 33 37  2  0  0  0  0
 34 38  1  0  0  0  0
 35 39  1  0  0  0  0
 36 40  2  0  0  0  0
 38 41  2  0  0  0  0
 38 42  1  0  0  0  0
 39 43  1  0  0  0  0
 39 44  2  0  0  0  0
 40 45  1  0  0  0  0
 41 46  1  0  0  0  0
 42 47  2  0  0  0  0
 43 48  1  0  0  0  0
 44 49  1  0  0  0  0
 45 50  1  0  0  0  0
 46 51  2  0  0  0  0
 50 52  1  0  0  0  0
 52 53  2  0  0  0  0
 52 54  1  0  0  0  0
 53 55  1  0  0  0  0
 54 56  2  0  0  0  0
 55 57  2  0  0  0  0
  4  6  1  0  0  0  0
 23 26  1  0  0  0  0
 37 40  1  0  0  0  0
 47 51  1  0  0  0  0
 48 49  2  0  0  0  0
 56 57  1  0  0  0  0
M  END
>  <MolRegNo>
618767

>  <m>
=

>  <Value>
300

>  <Unit>
nM

>  <Type>
IC50

>  <pValue>
6.52

>  <Ligand Efficiency>
0

>  <Binding Efficiency>
0

>  <Surface Efficiency>
0

>  <Assay Index>
466899

>  <Assay Category>


>  <Assay Organism>
Homo sapiens

>  <Target ID>
17045

>  <Target Name>
Cytochrome P450 3A4

>  <Target Organism>
Homo sapiens

>  <Target Description>
Target is a single protein chain

>  <Sequence Accession>
P08684

>  <Reference>
Bioorg Med Chem Lett 19 (18), 5444-5448 (2009)

>  <Pubmed ID>
19679477

>  <DOI>
10.1016/j.bmcl.2009.07.118

$$$$
618768
Actelion Java MolfileCreator 1.0

 41 44  0  0  0  0  0  0  0  0999 V2000
    0.0000   -0.0000   -0.0000 O   0  0  0  0  0  0  0  0  0  0  0  0
    0.0119    1.4995   -0.0000 C   0  0  0  0  0  0  0  0  0  0  0  0
   -1.2972    2.2730   -0.0000 O   0  0  0  0  0  0  0  0  0  0  0  0
    1.3091    2.2492   -0.0000 N   0  0  0  0  0  0  0  0  0  0  0  0
   -2.6181    1.5471   -0.0000 C   0  0  0  0  0  0  0  0  0  0  0  0
    2.5943    1.4995   -0.0000 C   0  0  0  0  0  0  0  0  0  0  0  0
   -3.9272    2.3206   -0.0000 C   0  0  0  0  0  0  0  0  0  0  0  0
    3.8915    2.2492   -0.0000 C   0  0  0  0  0  0  0  0  0  0  0  0
    2.5586    0.0119   -0.0000 C   0  0  0  0  0  0  0  0  0  0  0  0
   -3.8915    3.8439   -0.0000 O   0  0  0  0  0  0  0  0  0  0  0  0
   -5.3791    1.9160   -0.0000 N   0  0  0  0  0  0  0  0  0  0  0  0
    5.1768    1.4995   -0.0000 N   0  0  0  0  0  0  0  0  0  0  0  0
    1.7851   -1.2734   -0.0000 C   0  0  0  0  0  0  0  0  0  0  0  0
   -5.3196    4.3556   -0.0000 C   0  0  0  0  0  0  0  0  0  0  0  0
   -6.2478    3.1656   -0.0000 C   0  0  0  0  0  0  0  0  0  0  0  0
    6.4501    2.2492   -0.0000 C   0  0  0  0  0  0  0  0  0  0  0  0
    5.1530    0.0119   -0.0000 C   0  0  0  0  0  0  0  0  0  0  0  0
    0.2618   -1.2377   -0.0000 C   0  0  0  0  0  0  0  0  0  0  0  0
    2.5110   -2.5586   -0.0000 C   0  0  0  0  0  0  0  0  0  0  0  0
    7.7711    1.5233   -0.0000 C   0  0  0  0  0  0  0  0  0  0  0  0
    3.8320   -0.7140   -0.0000 C   0  0  0  0  0  0  0  0  0  0  0  0
   -0.5117   -2.5229   -0.0000 C   0  0  0  0  0  0  0  0  0  0  0  0
    1.7375   -3.8439   -0.0000 C   0  0  0  0  0  0  0  0  0  0  0  0
    9.0564    2.2968   -0.0000 N   0  0  0  0  0  0  0  0  0  0  0  0
    7.7711    0.0357   -0.0000 C   0  0  0  0  0  0  0  0  0  0  0  0
    0.2142   -3.8201   -0.0000 C   0  0  0  0  0  0  0  0  0  0  0  0
   10.3536    1.5709   -0.0000 C   0  0  0  0  0  0  0  0  0  0  0  0
    6.9976   -1.2496   -0.0000 C   0  0  0  0  0  0  0  0  0  0  0  0
   10.3536    0.0833   -0.0000 O   0  0  0  0  0  0  0  0  0  0  0  0
   11.6388    2.3444   -0.0000 O   0  0  0  0  0  0  0  0  0  0  0  0
    5.4862   -1.2258   -0.0000 C   0  0  0  0  0  0  0  0  0  0  0  0
    7.7235   -2.5348   -0.0000 C   0  0  0  0  0  0  0  0  0  0  0  0
   12.9360    1.6185   -0.0000 C   0  0  0  0  0  0  0  0  0  0  0  0
    4.7127   -2.5110   -0.0000 C   0  0  0  0  0  0  0  0  0  0  0  0
    6.9619   -3.8201   -0.0000 C   0  0  0  0  0  0  0  0  0  0  0  0
   14.1499    2.4991   -0.0000 C   0  0  0  0  0  0  0  0  0  0  0  0
    5.4386   -3.8082   -0.0000 C   0  0  0  0  0  0  0  0  0  0  0  0
   14.1499    4.0105   -0.0000 O   0  0  0  0  0  0  0  0  0  0  0  0
   15.5541    2.0231   -0.0000 C   0  0  0  0  0  0  0  0  0  0  0  0
   15.5660    4.4627   -0.0000 C   0  0  0  0  0  0  0  0  0  0  0  0
   16.4348    3.2370   -0.0000 N   0  0  0  0  0  0  0  0  0  0  0  0
  1  2  2  0  0  0  0
  2  3  1  0  0  0  0
  2  4  1  0  0  0  0
  3  5  1  0  0  0  0
  6  4  1  6  0  0  0
  5  7  1  0  0  0  0
  6  8  1  0  0  0  0
  6  9  1  0  0  0  0
  7 10  1  0  0  0  0
  7 11  2  0  0  0  0
  8 12  1  0  0  0  0
  9 13  1  0  0  0  0
 10 14  1  0  0  0  0
 11 15  1  0  0  0  0
 12 16  1  0  0  0  0
 12 17  1  0  0  0  0
 13 18  2  0  0  0  0
 13 19  1  0  0  0  0
 16 20  1  0  0  0  0
 17 21  1  0  0  0  0
 18 22  1  0  0  0  0
 19 23  2  0  0  0  0
 20 24  1  1  0  0  0
 20 25  1  0  0  0  0
 22 26  2  0  0  0  0
 24 27  1  0  0  0  0
 25 28  1  0  0  0  0
 27 29  2  0  0  0  0
 27 30  1  0  0  0  0
 28 31  2  0  0  0  0
 28 32  1  0  0  0  0
 30 33  1  0  0  0  0
 31 34  1  0  0  0  0
 32 35  2  0  0  0  0
 33 36  1  0  0  0  0
 34 37  2  0  0  0  0
 36 38  1  0  0  0  0
 36 39  2  0  0  0  0
 38 40  1  0  0  0  0
 39 41  1  0  0  0  0
 14 15  2  0  0  0  0
 23 26  1  0  0  0  0
 35 37  1  0  0  0  0
 40 41  2  0  0  0  0
M  END
>  <MolRegNo>
618768

>  <m>
=

>  <Value>
274

>  <Unit>
nM

>  <Type>
IC50

>  <pValue>
6.56

>  <Ligand Efficiency>
0

>  <Binding Efficiency>
0

>  <Surface Efficiency>
0

>  <Assay Index>
466899

>  <Assay Category>


>  <Assay Organism>
Homo sapiens

>  <Target ID>
17045

>  <Target Name>
Cytochrome P450 3A4

>  <Target Organism>
Homo sapiens

>  <Target Description>
Target is a single protein chain

>  <Sequence Accession>
P08684

>  <Reference>
Bioorg Med Chem Lett 19 (18), 5444-5448 (2009)

>  <Pubmed ID>
19679477

>  <DOI>
10.1016/j.bmcl.2009.07.118

$$$$
618820
Actelion Java MolfileCreator 1.0

 41 44  0  0  0  0  0  0  0  0999 V2000
    0.0000   -0.0000   -0.0000 O   0  0  0  0  0  0  0  0  0  0  0  0
    0.0119    1.4995   -0.0000 C   0  0  0  0  0  0  0  0  0  0  0  0
   -1.2972    2.2730   -0.0000 O   0  0  0  0  0  0  0  0  0  0  0  0
    1.3091    2.2492   -0.0000 N   0  0  0  0  0  0  0  0  0  0  0  0
   -2.6181    1.5471   -0.0000 C   0  0  0  0  0  0  0  0  0  0  0  0
    2.5943    1.4995   -0.0000 C   0  0  0  0  0  0  0  0  0  0  0  0
   -3.9272    2.3206   -0.0000 C   0  0  0  0  0  0  0  0  0  0  0  0
    3.8915    2.2492   -0.0000 C   0  0  0  0  0  0  0  0  0  0  0  0
    2.5586    0.0119   -0.0000 C   0  0  0  0  0  0  0  0  0  0  0  0
   -5.3791    1.9160   -0.0000 N   0  0  0  0  0  0  0  0  0  0  0  0
   -3.8915    3.8439   -0.0000 N   0  0  0  0  0  0  0  0  0  0  0  0
    5.1768    1.4995   -0.0000 N   0  0  0  0  0  0  0  0  0  0  0  0
    1.7851   -1.2734   -0.0000 C   0  0  0  0  0  0  0  0  0  0  0  0
   -6.2478    3.1656   -0.0000 C   0  0  0  0  0  0  0  0  0  0  0  0
   -5.3196    4.3556   -0.0000 C   0  0  0  0  0  0  0  0  0  0  0  0
    6.4501    2.2492   -0.0000 C   0  0  0  0  0  0  0  0  0  0  0  0
    5.1530    0.0119   -0.0000 C   0  0  0  0  0  0  0  0  0  0  0  0
    0.2618   -1.2377   -0.0000 C   0  0  0  0  0  0  0  0  0  0  0  0
    2.5110   -2.5586   -0.0000 C   0  0  0  0  0  0  0  0  0  0  0  0
    7.7711    1.5233   -0.0000 C   0  0  0  0  0  0  0  0  0  0  0  0
    3.8320   -0.7140   -0.0000 C   0  0  0  0  0  0  0  0  0  0  0  0
   -0.5117   -2.5229   -0.0000 C   0  0  0  0  0  0  0  0  0  0  0  0
    1.7375   -3.8439   -0.0000 C   0  0  0  0  0  0  0  0  0  0  0  0
    9.0564    2.2968   -0.0000 N   0  0  0  0  0  0  0  0  0  0  0  0
    7.7711    0.0357   -0.0000 C   0  0  0  0  0  0  0  0  0  0  0  0
    0.2142   -3.8201   -0.0000 C   0  0  0  0  0  0  0  0  0  0  0  0
   10.3536    1.5709   -0.0000 C   0  0  0  0  0  0  0  0  0  0  0  0
    6.9976   -1.2496   -0.0000 C   0  0  0  0  0  0  0  0  0  0  0  0
   10.3536    0.0833   -0.0000 O   0  0  0  0  0  0  0  0  0  0  0  0
   11.6388    2.3444   -0.0000 O   0  0  0  0  0  0  0  0  0  0  0  0
    5.4862   -1.2258   -0.0000 C   0  0  0  0  0  0  0  0  0  0  0  0
    7.7235   -2.5348   -0.0000 C   0  0  0  0  0  0  0  0  0  0  0  0
   12.9360    1.6185   -0.0000 C   0  0  0  0  0  0  0  0  0  0  0  0
    4.7127   -2.5110   -0.0000 C   0  0  0  0  0  0  0  0  0  0  0  0
    6.9619   -3.8201   -0.0000 C   0  0  0  0  0  0  0  0  0  0  0  0
   14.1499    2.4991   -0.0000 C   0  0  0  0  0  0  0  0  0  0  0  0
    5.4386   -3.8082   -0.0000 C   0  0  0  0  0  0  0  0  0  0  0  0
   14.1499    4.0105   -0.0000 N   0  0  0  0  0  0  0  0  0  0  0  0
   15.5541    2.0231   -0.0000 C   0  0  0  0  0  0  0  0  0  0  0  0
   15.5660    4.4627   -0.0000 C   0  0  0  0  0  0  0  0  0  0  0  0
   16.4348    3.2370   -0.0000 N   0  0  0  0  0  0  0  0  0  0  0  0
  1  2  2  0  0  0  0
  2  3  1  0  0  0  0
  2  4  1  0  0  0  0
  3  5  1  0  0  0  0
  6  4  1  6  0  0  0
  5  7  1  0  0  0  0
  6  8  1  0  0  0  0
  6  9  1  0  0  0  0
  7 10  2  0  0  0  0
  7 11  1  0  0  0  0
  8 12  1  0  0  0  0
  9 13  1  0  0  0  0
 10 14  1  0  0  0  0
 11 15  1  0  0  0  0
 12 16  1  0  0  0  0
 12 17  1  0  0  0  0
 13 18  2  0  0  0  0
 13 19  1  0  0  0  0
 16 20  1  0  0  0  0
 17 21  1  0  0  0  0
 18 22  1  0  0  0  0
 19 23  2  0  0  0  0
 20 24  1  1  0  0  0
 20 25  1  0  0  0  0
 22 26  2  0  0  0  0
 24 27  1  0  0  0  0
 25 28  1  0  0  0  0
 27 29  2  0  0  0  0
 27 30  1  0  0  0  0
 28 31  2  0  0  0  0
 28 32  1  0  0  0  0
 30 33  1  0  0  0  0
 31 34  1  0  0  0  0
 32 35  2  0  0  0  0
 33 36  1  0  0  0  0
 34 37  2  0  0  0  0
 36 38  1  0  0  0  0
 36 39  2  0  0  0  0
 38 40  1  0  0  0  0
 39 41  1  0  0  0  0
 14 15  2  0  0  0  0
 23 26  1  0  0  0  0
 35 37  1  0  0  0  0
 40 41  2  0  0  0  0
M  END
>  <MolRegNo>
618820

>  <m>
=

>  <Value>
348

>  <Unit>
nM

>  <Type>
IC50

>  <pValue>
6.46

>  <Ligand Efficiency>
0

>  <Binding Efficiency>
0

>  <Surface Efficiency>
0

>  <Assay Index>
466899

>  <Assay Category>


>  <Assay Organism>
Homo sapiens

>  <Target ID>
17045

>  <Target Name>
Cytochrome P450 3A4

>  <Target Organism>
Homo sapiens

>  <Target Description>
Target is a single protein chain

>  <Sequence Accession>
P08684

>  <Reference>
Bioorg Med Chem Lett 19 (18), 5444-5448 (2009)

>  <Pubmed ID>
19679477

>  <DOI>
10.1016/j.bmcl.2009.07.118

$$$$
618821
Actelion Java MolfileCreator 1.0

 41 44  0  0  0  0  0  0  0  0999 V2000
    0.0000   -0.0000   -0.0000 S   0  0  0  0  0  0  0  0  0  0  0  0
   -0.0596   -1.5029   -0.0000 C   0  0  0  0  0  0  0  0  0  0  0  0
   -1.4432    0.5129   -0.0000 C   0  0  0  0  0  0  0  0  0  0  0  0
   -1.5148   -1.9084   -0.0000 C   0  0  0  0  0  0  0  0  0  0  0  0
    1.2166   -2.2543   -0.0000 C   0  0  0  0  0  0  0  0  0  0  0  0
   -2.3617   -0.6679   -0.0000 C   0  0  0  0  0  0  0  0  0  0  0  0
    2.5287   -1.5029   -0.0000 O   0  0  0  0  0  0  0  0  0  0  0  0
    3.8168   -2.2543   -0.0000 C   0  0  0  0  0  0  0  0  0  0  0  0
    3.7811   -3.7334   -0.0000 O   0  0  0  0  0  0  0  0  0  0  0  0
    5.1170   -1.5029   -0.0000 N   0  0  0  0  0  0  0  0  0  0  0  0
    6.4051   -2.2543   -0.0000 C   0  0  0  0  0  0  0  0  0  0  0  0
    7.7053   -1.5029   -0.0000 C   0  0  0  0  0  0  0  0  0  0  0  0
    6.3694   -3.7453   -0.0000 C   0  0  0  0  0  0  0  0  0  0  0  0
    8.9934   -2.2543   -0.0000 N   0  0  0  0  0  0  0  0  0  0  0  0
    5.5941   -5.0335   -0.0000 C   0  0  0  0  0  0  0  0  0  0  0  0
   10.2697   -1.5029   -0.0000 C   0  0  0  0  0  0  0  0  0  0  0  0
    8.9696   -3.7453   -0.0000 C   0  0  0  0  0  0  0  0  0  0  0  0
    4.0673   -4.9977   -0.0000 C   0  0  0  0  0  0  0  0  0  0  0  0
    6.3216   -6.3216   -0.0000 C   0  0  0  0  0  0  0  0  0  0  0  0
   11.5937   -2.2305   -0.0000 C   0  0  0  0  0  0  0  0  0  0  0  0
    7.6456   -4.4729   -0.0000 C   0  0  0  0  0  0  0  0  0  0  0  0
    3.2920   -6.2859   -0.0000 C   0  0  0  0  0  0  0  0  0  0  0  0
    5.5464   -7.6098   -0.0000 C   0  0  0  0  0  0  0  0  0  0  0  0
   12.8818   -1.4552   -0.0000 N   0  0  0  0  0  0  0  0  0  0  0  0
   11.5937   -3.7214   -0.0000 C   0  0  0  0  0  0  0  0  0  0  0  0
    4.0196   -7.5860   -0.0000 C   0  0  0  0  0  0  0  0  0  0  0  0
   14.1820   -2.1828   -0.0000 C   0  0  0  0  0  0  0  0  0  0  0  0
   10.8184   -5.0096   -0.0000 C   0  0  0  0  0  0  0  0  0  0  0  0
   14.1820   -3.6737   -0.0000 O   0  0  0  0  0  0  0  0  0  0  0  0
   15.4701   -1.4075   -0.0000 O   0  0  0  0  0  0  0  0  0  0  0  0
    9.3036   -4.9858   -0.0000 C   0  0  0  0  0  0  0  0  0  0  0  0
   11.5460   -6.2978   -0.0000 C   0  0  0  0  0  0  0  0  0  0  0  0
   16.7703   -2.1350   -0.0000 C   0  0  0  0  0  0  0  0  0  0  0  0
    8.5283   -6.2739   -0.0000 C   0  0  0  0  0  0  0  0  0  0  0  0
   10.7826   -7.5860   -0.0000 C   0  0  0  0  0  0  0  0  0  0  0  0
   17.9869   -1.2524   -0.0000 C   0  0  0  0  0  0  0  0  0  0  0  0
    9.2558   -7.5741   -0.0000 C   0  0  0  0  0  0  0  0  0  0  0  0
   17.9869    0.2624   -0.0000 S   0  0  0  0  0  0  0  0  0  0  0  0
   19.3943   -1.7295   -0.0000 C   0  0  0  0  0  0  0  0  0  0  0  0
   19.4063    0.7157   -0.0000 C   0  0  0  0  0  0  0  0  0  0  0  0
   20.2770   -0.5129   -0.0000 C   0  0  0  0  0  0  0  0  0  0  0  0
  1  2  1  0  0  0  0
  1  3  1  0  0  0  0
  2  4  2  0  0  0  0
  2  5  1  0  0  0  0
  3  6  2  0  0  0  0
  5  7  1  0  0  0  0
  7  8  1  0  0  0  0
  8  9  2  0  0  0  0
  8 10  1  0  0  0  0
 11 10  1  6  0  0  0
 11 12  1  0  0  0  0
 11 13  1  0  0  0  0
 12 14  1  0  0  0  0
 13 15  1  0  0  0  0
 14 16  1  0  0  0  0
 14 17  1  0  0  0  0
 15 18  2  0  0  0  0
 15 19  1  0  0  0  0
 16 20  1  0  0  0  0
 17 21  1  0  0  0  0
 18 22  1  0  0  0  0
 19 23  2  0  0  0  0
 20 24  1  1  0  0  0
 20 25  1  0  0  0  0
 22 26  2  0  0  0  0
 24 27  1  0  0  0  0
 25 28  1  0  0  0  0
 27 29  2  0  0  0  0
 27 30  1  0  0  0  0
 28 31  2  0  0  0  0
 28 32  1  0  0  0  0
 30 33  1  0  0  0  0
 31 34  1  0  0  0  0
 32 35  2  0  0  0  0
 33 36  1  0  0  0  0
 34 37  2  0  0  0  0
 36 38  1  0  0  0  0
 36 39  2  0  0  0  0
 38 40  1  0  0  0  0
 39 41  1  0  0  0  0
  4  6  1  0  0  0  0
 23 26  1  0  0  0  0
 35 37  1  0  0  0  0
 40 41  2  0  0  0  0
M  END
>  <MolRegNo>
618821

>  <m>
=

>  <Value>
741

>  <Unit>
nM

>  <Type>
IC50

>  <pValue>
6.13

>  <Ligand Efficiency>
0

>  <Binding Efficiency>
0

>  <Surface Efficiency>
0

>  <Assay Index>
466899

>  <Assay Category>


>  <Assay Organism>
Homo sapiens

>  <Target ID>
17045

>  <Target Name>
Cytochrome P450 3A4

>  <Target Organism>
Homo sapiens

>  <Target Description>
Target is a single protein chain

>  <Sequence Accession>
P08684

>  <Reference>
Bioorg Med Chem Lett 19 (18), 5444-5448 (2009)

>  <Pubmed ID>
19679477

>  <DOI>
10.1016/j.bmcl.2009.07.118

$$$$
618822
Actelion Java MolfileCreator 1.0

 43 46  0  0  0  0  0  0  0  0999 V2000
    0.0000   -0.0000   -0.0000 O   0  0  0  0  0  0  0  0  0  0  0  0
    0.0119    1.5004   -0.0000 C   0  0  0  0  0  0  0  0  0  0  0  0
   -1.2979    2.2744   -0.0000 O   0  0  0  0  0  0  0  0  0  0  0  0
    1.3098    2.2505   -0.0000 N   0  0  0  0  0  0  0  0  0  0  0  0
   -2.6197    1.5480   -0.0000 C   0  0  0  0  0  0  0  0  0  0  0  0
    2.5959    1.5004   -0.0000 C   0  0  0  0  0  0  0  0  0  0  0  0
   -3.9295    2.3220   -0.0000 C   0  0  0  0  0  0  0  0  0  0  0  0
    3.8938    2.2505   -0.0000 C   0  0  0  0  0  0  0  0  0  0  0  0
    2.5601    0.0119   -0.0000 C   0  0  0  0  0  0  0  0  0  0  0  0
   -5.2394    1.5956   -0.0000 C   0  0  0  0  0  0  0  0  0  0  0  0
   -3.9176    3.8343   -0.0000 C   0  0  0  0  0  0  0  0  0  0  0  0
    5.1798    1.5004   -0.0000 N   0  0  0  0  0  0  0  0  0  0  0  0
    1.7861   -1.2741   -0.0000 C   0  0  0  0  0  0  0  0  0  0  0  0
   -6.5492    2.3696   -0.0000 N   0  0  0  0  0  0  0  0  0  0  0  0
   -5.2275    4.6083   -0.0000 C   0  0  0  0  0  0  0  0  0  0  0  0
    6.4539    2.2505   -0.0000 C   0  0  0  0  0  0  0  0  0  0  0  0
    5.1560    0.0119   -0.0000 C   0  0  0  0  0  0  0  0  0  0  0  0
    0.2620   -1.2384   -0.0000 C   0  0  0  0  0  0  0  0  0  0  0  0
    2.5125   -2.5601   -0.0000 C   0  0  0  0  0  0  0  0  0  0  0  0
   -6.5492    3.8938   -0.0000 C   0  0  0  0  0  0  0  0  0  0  0  0
    7.7757    1.5242   -0.0000 C   0  0  0  0  0  0  0  0  0  0  0  0
    3.8343   -0.7145   -0.0000 C   0  0  0  0  0  0  0  0  0  0  0  0
   -0.5120   -2.5244   -0.0000 C   0  0  0  0  0  0  0  0  0  0  0  0
    1.7385   -3.8462   -0.0000 C   0  0  0  0  0  0  0  0  0  0  0  0
    9.0617    2.2982   -0.0000 N   0  0  0  0  0  0  0  0  0  0  0  0
    7.7757    0.0357   -0.0000 C   0  0  0  0  0  0  0  0  0  0  0  0
    0.2143   -3.8224   -0.0000 C   0  0  0  0  0  0  0  0  0  0  0  0
   10.3597    1.5718   -0.0000 C   0  0  0  0  0  0  0  0  0  0  0  0
    7.0017   -1.2503   -0.0000 C   0  0  0  0  0  0  0  0  0  0  0  0
   10.3597    0.0834   -0.0000 O   0  0  0  0  0  0  0  0  0  0  0  0
   11.6457    2.3458   -0.0000 O   0  0  0  0  0  0  0  0  0  0  0  0
    5.4894   -1.2265   -0.0000 C   0  0  0  0  0  0  0  0  0  0  0  0
    7.7281   -2.5363   -0.0000 C   0  0  0  0  0  0  0  0  0  0  0  0
   12.9436    1.6194   -0.0000 C   0  0  0  0  0  0  0  0  0  0  0  0
    4.7154   -2.5125   -0.0000 C   0  0  0  0  0  0  0  0  0  0  0  0
    6.9660   -3.8224   -0.0000 C   0  0  0  0  0  0  0  0  0  0  0  0
   14.1582    2.5006   -0.0000 C   0  0  0  0  0  0  0  0  0  0  0  0
    5.4418   -3.8104   -0.0000 C   0  0  0  0  0  0  0  0  0  0  0  0
   15.4204    1.7385   -0.0000 C   0  0  0  0  0  0  0  0  0  0  0  0
   14.1701    4.0010   -0.0000 C   0  0  0  0  0  0  0  0  0  0  0  0
   16.7183    2.4768   -0.0000 N   0  0  0  0  0  0  0  0  0  0  0  0
   15.4680    4.7392   -0.0000 C   0  0  0  0  0  0  0  0  0  0  0  0
   16.7422    3.9891   -0.0000 C   0  0  0  0  0  0  0  0  0  0  0  0
  1  2  2  0  0  0  0
  2  3  1  0  0  0  0
  2  4  1  0  0  0  0
  3  5  1  0  0  0  0
  6  4  1  6  0  0  0
  5  7  1  0  0  0  0
  6  8  1  0  0  0  0
  6  9  1  0  0  0  0
  7 10  2  0  0  0  0
  7 11  1  0  0  0  0
  8 12  1  0  0  0  0
  9 13  1  0  0  0  0
 10 14  1  0  0  0  0
 11 15  2  0  0  0  0
 12 16  1  0  0  0  0
 12 17  1  0  0  0  0
 13 18  2  0  0  0  0
 13 19  1  0  0  0  0
 14 20  2  0  0  0  0
 16 21  1  0  0  0  0
 17 22  1  0  0  0  0
 18 23  1  0  0  0  0
 19 24  2  0  0  0  0
 21 25  1  1  0  0  0
 21 26  1  0  0  0  0
 23 27  2  0  0  0  0
 25 28  1  0  0  0  0
 26 29  1  0  0  0  0
 28 30  2  0  0  0  0
 28 31  1  0  0  0  0
 29 32  2  0  0  0  0
 29 33  1  0  0  0  0
 31 34  1  0  0  0  0
 32 35  1  0  0  0  0
 33 36  2  0  0  0  0
 34 37  1  0  0  0  0
 35 38  2  0  0  0  0
 37 39  2  0  0  0  0
 37 40  1  0  0  0  0
 39 41  1  0  0  0  0
 40 42  2  0  0  0  0
 41 43  2  0  0  0  0
 15 20  1  0  0  0  0
 24 27  1  0  0  0  0
 36 38  1  0  0  0  0
 42 43  1  0  0  0  0
M  END
>  <MolRegNo>
618822

>  <m>
=

>  <Value>
3000

>  <Unit>
nM

>  <Type>
IC50

>  <pValue>
5.52

>  <Ligand Efficiency>
0

>  <Binding Efficiency>
0

>  <Surface Efficiency>
0

>  <Assay Index>
466899

>  <Assay Category>


>  <Assay Organism>
Homo sapiens

>  <Target ID>
17045

>  <Target Name>
Cytochrome P450 3A4

>  <Target Organism>
Homo sapiens

>  <Target Description>
Target is a single protein chain

>  <Sequence Accession>
P08684

>  <Reference>
Bioorg Med Chem Lett 19 (18), 5444-5448 (2009)

>  <Pubmed ID>
19679477

>  <DOI>
10.1016/j.bmcl.2009.07.118

$$$$
618055
Actelion Java MolfileCreator 1.0

 28 30  0  0  0  0  0  0  0  0999 V2000
    0.0000   -0.0000   -0.0000 Cl  0  0  0  0  0  0  0  0  0  0  0  0
    1.2923    0.7706   -0.0000 C   0  0  0  0  0  0  0  0  0  0  0  0
    1.2804    2.2881   -0.0000 C   0  0  0  0  0  0  0  0  0  0  0  0
    2.5964    0.0356   -0.0000 C   0  0  0  0  0  0  0  0  0  0  0  0
    2.5727    3.0469   -0.0000 C   0  0  0  0  0  0  0  0  0  0  0  0
    3.8768    0.8062   -0.0000 C   0  0  0  0  0  0  0  0  0  0  0  0
    3.8649    2.3118   -0.0000 C   0  0  0  0  0  0  0  0  0  0  0  0
    5.1572    3.0824   -0.0000 N   0  0  0  0  0  0  0  0  0  0  0  0
    6.4494    2.3474   -0.0000 C   0  0  0  0  0  0  0  0  0  0  0  0
    6.4376    0.8536   -0.0000 O   0  0  0  0  0  0  0  0  0  0  0  0
    7.7417    3.1180   -0.0000 N   0  0  0  0  0  0  0  0  0  0  0  0
    9.0339    2.3830   -0.0000 C   0  0  0  0  0  0  0  0  0  0  0  0
    7.7298    4.6355   -0.0000 C   0  0  0  0  0  0  0  0  0  0  0  0
   10.3262    3.1417   -0.0000 C   0  0  0  0  0  0  0  0  0  0  0  0
    9.0221    5.4061   -0.0000 C   0  0  0  0  0  0  0  0  0  0  0  0
   11.6184    2.3948   -0.0000 C   0  0  0  0  0  0  0  0  0  0  0  0
   10.3143    4.6592   -0.0000 C   0  0  0  0  0  0  0  0  0  0  0  0
   11.6066    3.9123   -0.0000 C   0  0  0  0  0  0  0  0  0  0  0  0
   11.5947    0.9010   -0.0000 C   0  0  0  0  0  0  0  0  0  0  0  0
   12.8988    3.1536   -0.0000 C   0  0  0  0  0  0  0  0  0  0  0  0
   11.5829    5.4298   -0.0000 C   0  0  0  0  0  0  0  0  0  0  0  0
   12.8870    0.1541   -0.0000 C   0  0  0  0  0  0  0  0  0  0  0  0
   14.1911    2.4185   -0.0000 C   0  0  0  0  0  0  0  0  0  0  0  0
   12.8633    6.2005   -0.0000 C   0  0  0  0  0  0  0  0  0  0  0  0
   14.1792    0.9129   -0.0000 C   0  0  0  0  0  0  0  0  0  0  0  0
   14.1555    5.4654   -0.0000 O   0  0  0  0  0  0  0  0  0  0  0  0
   12.8396    7.7180   -0.0000 N   0  0  0  0  0  0  0  0  0  0  0  0
   11.5236    8.4767   -0.0000 C   0  0  0  0  0  0  0  0  0  0  0  0
  1  2  1  0  0  0  0
  2  3  2  0  0  0  0
  2  4  1  0  0  0  0
  3  5  1  0  0  0  0
  4  6  2  0  0  0  0
  5  7  2  0  0  0  0
  7  8  1  0  0  0  0
  8  9  1  0  0  0  0
  9 10  2  0  0  0  0
  9 11  1  0  0  0  0
 11 12  1  0  0  0  0
 11 13  1  0  0  0  0
 12 14  1  0  0  0  0
 13 15  1  0  0  0  0
 14 16  1  0  0  0  0
 14 17  1  0  0  0  0
 14 18  1  0  0  0  0
 16 19  2  0  0  0  0
 16 20  1  0  0  0  0
 18 21  1  0  0  0  0
 19 22  1  0  0  0  0
 20 23  2  0  0  0  0
 21 24  1  0  0  0  0
 22 25  2  0  0  0  0
 24 26  2  0  0  0  0
 24 27  1  0  0  0  0
 27 28  1  0  0  0  0
  6  7  1  0  0  0  0
 15 17  1  0  0  0  0
 23 25  1  0  0  0  0
M  END
>  <MolRegNo>
618055

>  <m>
=

>  <Value>
10000

>  <Unit>
nM

>  <Type>
IC50

>  <pValue>
5

>  <Ligand Efficiency>
0

>  <Binding Efficiency>
0

>  <Surface Efficiency>
0

>  <Assay Index>
466912

>  <Assay Category>


>  <Assay Organism>


>  <Target ID>
17045

>  <Target Name>
Cytochrome P450 3A4

>  <Target Organism>
Homo sapiens

>  <Target Description>
Target is a single protein chain

>  <Sequence Accession>
P08684

>  <Reference>
Bioorg Med Chem Lett 19 (18), 5314-5320 (2009)

>  <Pubmed ID>
19682899

>  <DOI>
10.1016/j.bmcl.2009.07.138

$$$$
618322
Actelion Java MolfileCreator 1.0

 25 27  0  0  0  0  0  0  0  0999 V2000
    0.0000   -0.0000   -0.0000 O   0  0  0  0  0  0  0  0  0  0  0  0
   -1.3583   -0.7268   -0.0000 C   0  0  0  0  0  0  0  0  0  0  0  0
   -2.6689    0.0477   -0.0000 O   0  0  0  0  0  0  0  0  0  0  0  0
   -1.3702   -2.1923   -0.0000 C   0  0  0  0  0  0  0  0  0  0  0  0
   -3.9796   -0.6911   -0.0000 C   0  0  0  0  0  0  0  0  0  0  0  0
   -2.6809   -2.9430   -0.0000 C   0  0  0  0  0  0  0  0  0  0  0  0
   -3.9915   -2.1804   -0.0000 C   0  0  0  0  0  0  0  0  0  0  0  0
   -5.2902    0.0715   -0.0000 C   0  0  0  0  0  0  0  0  0  0  0  0
   -5.3021   -2.9192   -0.0000 C   0  0  0  0  0  0  0  0  0  0  0  0
   -6.6128   -0.6672   -0.0000 C   0  0  0  0  0  0  0  0  0  0  0  0
   -5.3141   -4.4085   -0.0000 O   0  0  0  0  0  0  0  0  0  0  0  0
   -6.6247   -2.1566   -0.0000 C   0  0  0  0  0  0  0  0  0  0  0  0
   -8.0545   -0.1906   -0.0000 O   0  0  0  0  0  0  0  0  0  0  0  0
   -4.0272   -5.1472   -0.0000 C   0  0  0  0  0  0  0  0  0  0  0  0
   -8.0664   -2.6094   -0.0000 C   0  0  0  0  0  0  0  0  0  0  0  0
   -8.9362   -1.3940   -0.0000 C   0  0  0  0  0  0  0  0  0  0  0  0
   -4.0392   -6.6485   -0.0000 C   0  0  0  0  0  0  0  0  0  0  0  0
   -2.7523   -7.3873   -0.0000 C   0  0  0  0  0  0  0  0  0  0  0  0
   -2.7762   -8.8885   -0.0000 C   0  0  0  0  0  0  0  0  0  0  0  0
   -1.4775   -6.6247   -0.0000 C   0  0  0  0  0  0  0  0  0  0  0  0
   -1.4894   -9.6273   -0.0000 C   0  0  0  0  0  0  0  0  0  0  0  0
   -1.5013  -11.1166   -0.0000 C   0  0  0  0  0  0  0  0  0  0  0  0
   -0.2145  -11.8553   -0.0000 C   0  0  0  0  0  0  0  0  0  0  0  0
   -0.2383  -13.3566   -0.0000 C   0  0  0  0  0  0  0  0  0  0  0  0
    1.0604  -11.1047   -0.0000 C   0  0  0  0  0  0  0  0  0  0  0  0
  1  2  2  0  0  0  0
  2  3  1  0  0  0  0
  2  4  1  0  0  0  0
  3  5  1  0  0  0  0
  4  6  2  0  0  0  0
  5  7  2  0  0  0  0
  5  8  1  0  0  0  0
  7  9  1  0  0  0  0
  8 10  2  0  0  0  0
  9 11  1  0  0  0  0
  9 12  2  0  0  0  0
 10 13  1  0  0  0  0
 11 14  1  0  0  0  0
 12 15  1  0  0  0  0
 13 16  1  0  0  0  0
 14 17  1  0  0  0  0
 17 18  2  0  0  0  0
 18 19  1  0  0  0  0
 18 20  1  0  0  0  0
 19 21  1  0  0  0  0
 21 22  1  0  0  0  0
 22 23  2  0  0  0  0
 23 24  1  0  0  0  0
 23 25  1  0  0  0  0
  6  7  1  0  0  0  0
 10 12  1  0  0  0  0
 15 16  2  0  0  0  0
M  END
>  <MolRegNo>
618322

>  <m>
=

>  <Value>
2420

>  <Unit>
nM

>  <Type>
IC50

>  <pValue>
5.62

>  <Ligand Efficiency>
0

>  <Binding Efficiency>
0

>  <Surface Efficiency>
0

>  <Assay Index>
466957

>  <Assay Category>


>  <Assay Organism>


>  <Target ID>
17045

>  <Target Name>
Cytochrome P450 3A4

>  <Target Organism>
Homo sapiens

>  <Target Description>
Target is a single protein chain

>  <Sequence Accession>
P08684

>  <Reference>
J Nat Prod 72 (9), 1702-1704 (2009)

>  <Pubmed ID>
19689106

>  <DOI>
10.1021/np900266m

$$$$
618400
Actelion Java MolfileCreator 1.0

 27 29  0  0  0  0  0  0  0  0999 V2000
    0.0000   -0.0000   -0.0000 O   0  0  0  0  0  0  0  0  0  0  0  0
   -1.3002   -0.7396   -0.0000 C   0  0  0  0  0  0  0  0  0  0  0  0
   -2.6124    0.0119   -0.0000 O   0  0  0  0  0  0  0  0  0  0  0  0
   -1.3002   -2.2307   -0.0000 C   0  0  0  0  0  0  0  0  0  0  0  0
   -3.9126   -0.7277   -0.0000 C   0  0  0  0  0  0  0  0  0  0  0  0
   -2.6124   -2.9703   -0.0000 C   0  0  0  0  0  0  0  0  0  0  0  0
   -3.9246   -2.2187   -0.0000 C   0  0  0  0  0  0  0  0  0  0  0  0
   -5.2248    0.0239   -0.0000 C   0  0  0  0  0  0  0  0  0  0  0  0
   -5.2248   -2.9583   -0.0000 C   0  0  0  0  0  0  0  0  0  0  0  0
   -6.5370   -0.7038   -0.0000 C   0  0  0  0  0  0  0  0  0  0  0  0
   -5.2367   -4.4375   -0.0000 O   0  0  0  0  0  0  0  0  0  0  0  0
   -6.5250   -2.2068   -0.0000 C   0  0  0  0  0  0  0  0  0  0  0  0
   -7.9684   -0.2386   -0.0000 O   0  0  0  0  0  0  0  0  0  0  0  0
   -6.5608   -5.1413   -0.0000 C   0  0  0  0  0  0  0  0  0  0  0  0
   -7.9565   -2.6601   -0.0000 C   0  0  0  0  0  0  0  0  0  0  0  0
   -8.8511   -1.4434   -0.0000 C   0  0  0  0  0  0  0  0  0  0  0  0
   -7.8730   -4.3898   -0.0000 C   0  0  0  0  0  0  0  0  0  0  0  0
   -9.1851   -5.1055   -0.0000 C   0  0  0  0  0  0  0  0  0  0  0  0
  -10.4377   -4.2705   -0.0000 C   0  0  0  0  0  0  0  0  0  0  0  0
   -9.2567   -6.5847   -0.0000 C   0  0  0  0  0  0  0  0  0  0  0  0
  -11.7856   -4.9266   -0.0000 C   0  0  0  0  0  0  0  0  0  0  0  0
  -13.0381   -4.0796   -0.0000 C   0  0  0  0  0  0  0  0  0  0  0  0
  -13.0023   -2.5528   -0.0000 O   0  0  0  0  0  0  0  0  0  0  0  0
  -14.2668   -4.9266   -0.0000 C   0  0  0  0  0  0  0  0  0  0  0  0
  -15.4716   -4.0200   -0.0000 O   0  0  0  0  0  0  0  0  0  0  0  0
  -14.8990   -6.2745   -0.0000 C   0  0  0  0  0  0  0  0  0  0  0  0
  -13.4198   -6.1314   -0.0000 C   0  0  0  0  0  0  0  0  0  0  0  0
  1  2  2  0  0  0  0
  2  3  1  0  0  0  0
  2  4  1  0  0  0  0
  3  5  1  0  0  0  0
  4  6  2  0  0  0  0
  5  7  2  0  0  0  0
  5  8  1  0  0  0  0
  7  9  1  0  0  0  0
  8 10  2  0  0  0  0
  9 11  1  0  0  0  0
  9 12  2  0  0  0  0
 10 13  1  0  0  0  0
 11 14  1  0  0  0  0
 12 15  1  0  0  0  0
 13 16  1  0  0  0  0
 14 17  1  0  0  0  0
 17 18  2  0  0  0  0
 18 19  1  0  0  0  0
 18 20  1  0  0  0  0
 19 21  1  0  0  0  0
 21 22  1  0  0  0  0
 22 23  1  1  0  0  0
 22 24  1  0  0  0  0
 24 25  1  0  0  0  0
 24 26  1  0  0  0  0
 24 27  1  0  0  0  0
  6  7  1  0  0  0  0
 10 12  1  0  0  0  0
 15 16  2  0  0  0  0
M  END
>  <MolRegNo>
618400

>  <m>
=

>  <Value>
1580

>  <Unit>
nM

>  <Type>
IC50

>  <pValue>
5.8

>  <Ligand Efficiency>
0

>  <Binding Efficiency>
0

>  <Surface Efficiency>
0

>  <Assay Index>
466957

>  <Assay Category>


>  <Assay Organism>


>  <Target ID>
17045

>  <Target Name>
Cytochrome P450 3A4

>  <Target Organism>
Homo sapiens

>  <Target Description>
Target is a single protein chain

>  <Sequence Accession>
P08684

>  <Reference>
J Nat Prod 72 (9), 1702-1704 (2009)

>  <Pubmed ID>
19689106

>  <DOI>
10.1021/np900266m

$$$$
618399
Actelion Java MolfileCreator 1.0

 37 40  0  0  0  0  0  0  0  0999 V2000
    0.0000   -0.0000   -0.0000 O   0  0  0  0  0  0  0  0  0  0  0  0
   -1.3017   -0.7523   -0.0000 C   0  0  0  0  0  0  0  0  0  0  0  0
   -2.6153   -0.0119   -0.0000 O   0  0  0  0  0  0  0  0  0  0  0  0
   -1.3017   -2.2451   -0.0000 C   0  0  0  0  0  0  0  0  0  0  0  0
   -3.9170   -0.7523   -0.0000 C   0  0  0  0  0  0  0  0  0  0  0  0
   -2.6034   -2.9855   -0.0000 C   0  0  0  0  0  0  0  0  0  0  0  0
   -3.9170   -2.2451   -0.0000 C   0  0  0  0  0  0  0  0  0  0  0  0
   -5.2306   -0.0119   -0.0000 C   0  0  0  0  0  0  0  0  0  0  0  0
   -5.2187   -2.9855   -0.0000 C   0  0  0  0  0  0  0  0  0  0  0  0
   -6.5323   -0.7523   -0.0000 C   0  0  0  0  0  0  0  0  0  0  0  0
   -5.2187   -4.4902   -0.0000 O   0  0  0  0  0  0  0  0  0  0  0  0
   -6.5323   -2.2332   -0.0000 C   0  0  0  0  0  0  0  0  0  0  0  0
   -7.9653   -0.2747   -0.0000 O   0  0  0  0  0  0  0  0  0  0  0  0
   -6.5442   -5.1948   -0.0000 C   0  0  0  0  0  0  0  0  0  0  0  0
   -7.9653   -2.6870   -0.0000 C   0  0  0  0  0  0  0  0  0  0  0  0
   -8.8491   -1.4689   -0.0000 C   0  0  0  0  0  0  0  0  0  0  0  0
   -7.8579   -4.4424   -0.0000 C   0  0  0  0  0  0  0  0  0  0  0  0
   -9.1715   -5.1590   -0.0000 C   0  0  0  0  0  0  0  0  0  0  0  0
  -10.4254   -4.3230   -0.0000 C   0  0  0  0  0  0  0  0  0  0  0  0
   -9.2431   -6.6398   -0.0000 C   0  0  0  0  0  0  0  0  0  0  0  0
  -11.7749   -4.9798   -0.0000 C   0  0  0  0  0  0  0  0  0  0  0  0
  -13.0288   -4.1320   -0.0000 C   0  0  0  0  0  0  0  0  0  0  0  0
  -12.5750   -2.7108   -0.0000 O   0  0  0  0  0  0  0  0  0  0  0  0
  -14.5335   -4.1200   -0.0000 C   0  0  0  0  0  0  0  0  0  0  0  0
  -13.7931   -1.8152   -0.0000 C   0  0  0  0  0  0  0  0  0  0  0  0
  -14.9992   -2.6870   -0.0000 O   0  0  0  0  0  0  0  0  0  0  0  0
  -15.8352   -4.8604   -0.0000 C   0  0  0  0  0  0  0  0  0  0  0  0
  -14.5454   -5.6008   -0.0000 C   0  0  0  0  0  0  0  0  0  0  0  0
  -13.8050   -0.3105   -0.0000 C   0  0  0  0  0  0  0  0  0  0  0  0
  -12.5153    0.4419   -0.0000 C   0  0  0  0  0  0  0  0  0  0  0  0
  -12.5272    1.9466   -0.0000 C   0  0  0  0  0  0  0  0  0  0  0  0
  -11.2375    2.6989   -0.0000 C   0  0  0  0  0  0  0  0  0  0  0  0
  -11.2494    4.2036   -0.0000 C   0  0  0  0  0  0  0  0  0  0  0  0
   -9.9597    4.9560   -0.0000 C   0  0  0  0  0  0  0  0  0  0  0  0
   -9.9716    6.4607   -0.0000 C   0  0  0  0  0  0  0  0  0  0  0  0
   -8.6819    7.2130   -0.0000 C   0  0  0  0  0  0  0  0  0  0  0  0
   -8.6938    8.7177   -0.0000 C   0  0  0  0  0  0  0  0  0  0  0  0
  1  2  2  0  0  0  0
  2  3  1  0  0  0  0
  2  4  1  0  0  0  0
  3  5  1  0  0  0  0
  4  6  2  0  0  0  0
  5  7  2  0  0  0  0
  5  8  1  0  0  0  0
  7  9  1  0  0  0  0
  8 10  2  0  0  0  0
  9 11  1  0  0  0  0
  9 12  2  0  0  0  0
 10 13  1  0  0  0  0
 11 14  1  0  0  0  0
 12 15  1  0  0  0  0
 13 16  1  0  0  0  0
 14 17  1  0  0  0  0
 17 18  2  0  0  0  0
 18 19  1  0  0  0  0
 18 20  1  0  0  0  0
 19 21  1  0  0  0  0
 22 21  1  1  0  0  0
 22 23  1  0  0  0  0
 22 24  1  0  0  0  0
 23 25  1  0  0  0  0
 24 26  1  0  0  0  0
 24 27  1  0  0  0  0
 24 28  1  0  0  0  0
 25 29  1  0  0  0  0
 29 30  1  0  0  0  0
 30 31  1  0  0  0  0
 31 32  1  0  0  0  0
 32 33  1  0  0  0  0
 33 34  1  0  0  0  0
 34 35  1  0  0  0  0
 35 36  1  0  0  0  0
 36 37  1  0  0  0  0
  6  7  1  0  0  0  0
 10 12  1  0  0  0  0
 15 16  2  0  0  0  0
 25 26  1  0  0  0  0
M  END
>  <MolRegNo>
618399

>  <m>
=

>  <Value>
270

>  <Unit>
nM

>  <Type>
IC50

>  <pValue>
6.57

>  <Ligand Efficiency>
0

>  <Binding Efficiency>
0

>  <Surface Efficiency>
0

>  <Assay Index>
466957

>  <Assay Category>


>  <Assay Organism>


>  <Target ID>
17045

>  <Target Name>
Cytochrome P450 3A4

>  <Target Organism>
Homo sapiens

>  <Target Description>
Target is a single protein chain

>  <Sequence Accession>
P08684

>  <Reference>
J Nat Prod 72 (9), 1702-1704 (2009)

>  <Pubmed ID>
19689106

>  <DOI>
10.1021/np900266m

$$$$
618398
Actelion Java MolfileCreator 1.0

 35 38  0  0  0  0  0  0  0  0999 V2000
    0.0000   -0.0000   -0.0000 O   0  0  0  0  0  0  0  0  0  0  0  0
   -1.3021   -0.7458   -0.0000 C   0  0  0  0  0  0  0  0  0  0  0  0
   -2.6161   -0.0000   -0.0000 O   0  0  0  0  0  0  0  0  0  0  0  0
   -1.3021   -2.2373   -0.0000 C   0  0  0  0  0  0  0  0  0  0  0  0
   -3.9182   -0.7339   -0.0000 C   0  0  0  0  0  0  0  0  0  0  0  0
   -2.6043   -2.9831   -0.0000 C   0  0  0  0  0  0  0  0  0  0  0  0
   -3.9301   -2.2255   -0.0000 C   0  0  0  0  0  0  0  0  0  0  0  0
   -5.2204    0.0118   -0.0000 C   0  0  0  0  0  0  0  0  0  0  0  0
   -5.2322   -2.9594   -0.0000 C   0  0  0  0  0  0  0  0  0  0  0  0
   -6.5225   -0.7103   -0.0000 C   0  0  0  0  0  0  0  0  0  0  0  0
   -5.2440   -4.4273   -0.0000 O   0  0  0  0  0  0  0  0  0  0  0  0
   -6.5343   -2.2018   -0.0000 C   0  0  0  0  0  0  0  0  0  0  0  0
   -7.9667   -0.2368   -0.0000 O   0  0  0  0  0  0  0  0  0  0  0  0
   -6.5699   -5.1375   -0.0000 C   0  0  0  0  0  0  0  0  0  0  0  0
   -7.9785   -2.6635   -0.0000 C   0  0  0  0  0  0  0  0  0  0  0  0
   -8.8545   -1.4442   -0.0000 C   0  0  0  0  0  0  0  0  0  0  0  0
   -7.8720   -4.3799   -0.0000 C   0  0  0  0  0  0  0  0  0  0  0  0
   -9.1860   -5.1020   -0.0000 C   0  0  0  0  0  0  0  0  0  0  0  0
  -10.4407   -4.2615   -0.0000 C   0  0  0  0  0  0  0  0  0  0  0  0
   -9.2570   -6.5817   -0.0000 C   0  0  0  0  0  0  0  0  0  0  0  0
  -11.7902   -4.9126   -0.0000 C   0  0  0  0  0  0  0  0  0  0  0  0
  -13.0450   -4.0721   -0.0000 C   0  0  0  0  0  0  0  0  0  0  0  0
  -12.5597   -2.6516   -0.0000 O   0  0  0  0  0  0  0  0  0  0  0  0
  -14.5484   -4.0248   -0.0000 C   0  0  0  0  0  0  0  0  0  0  0  0
  -13.7553   -1.7401   -0.0000 C   0  0  0  0  0  0  0  0  0  0  0  0
  -14.9864   -2.5924   -0.0000 O   0  0  0  0  0  0  0  0  0  0  0  0
  -15.8742   -4.7350   -0.0000 C   0  0  0  0  0  0  0  0  0  0  0  0
  -14.5957   -5.5045   -0.0000 C   0  0  0  0  0  0  0  0  0  0  0  0
  -13.7316   -0.2368   -0.0000 C   0  0  0  0  0  0  0  0  0  0  0  0
  -12.4295    0.4972   -0.0000 C   0  0  0  0  0  0  0  0  0  0  0  0
  -12.4058    2.0006   -0.0000 C   0  0  0  0  0  0  0  0  0  0  0  0
  -11.1036    2.7345   -0.0000 C   0  0  0  0  0  0  0  0  0  0  0  0
  -11.0800    4.2379   -0.0000 C   0  0  0  0  0  0  0  0  0  0  0  0
   -9.7778    4.9718   -0.0000 C   0  0  0  0  0  0  0  0  0  0  0  0
   -9.7542    6.4752   -0.0000 C   0  0  0  0  0  0  0  0  0  0  0  0
  1  2  2  0  0  0  0
  2  3  1  0  0  0  0
  2  4  1  0  0  0  0
  3  5  1  0  0  0  0
  4  6  2  0  0  0  0
  5  7  2  0  0  0  0
  5  8  1  0  0  0  0
  7  9  1  0  0  0  0
  8 10  2  0  0  0  0
  9 11  1  0  0  0  0
  9 12  2  0  0  0  0
 10 13  1  0  0  0  0
 11 14  1  0  0  0  0
 12 15  1  0  0  0  0
 13 16  1  0  0  0  0
 14 17  1  0  0  0  0
 17 18  2  0  0  0  0
 18 19  1  0  0  0  0
 18 20  1  0  0  0  0
 19 21  1  0  0  0  0
 22 21  1  1  0  0  0
 22 23  1  0  0  0  0
 22 24  1  0  0  0  0
 23 25  1  0  0  0  0
 24 26  1  0  0  0  0
 24 27  1  0  0  0  0
 24 28  1  0  0  0  0
 25 29  1  0  0  0  0
 29 30  1  0  0  0  0
 30 31  1  0  0  0  0
 31 32  1  0  0  0  0
 32 33  1  0  0  0  0
 33 34  1  0  0  0  0
 34 35  1  0  0  0  0
  6  7  1  0  0  0  0
 10 12  1  0  0  0  0
 15 16  2  0  0  0  0
 25 26  1  0  0  0  0
M  END
>  <MolRegNo>
618398

>  <m>
=

>  <Value>
130

>  <Unit>
nM

>  <Type>
IC50

>  <pValue>
6.89

>  <Ligand Efficiency>
0

>  <Binding Efficiency>
0

>  <Surface Efficiency>
0

>  <Assay Index>
466957

>  <Assay Category>


>  <Assay Organism>


>  <Target ID>
17045

>  <Target Name>
Cytochrome P450 3A4

>  <Target Organism>
Homo sapiens

>  <Target Description>
Target is a single protein chain

>  <Sequence Accession>
P08684

>  <Reference>
J Nat Prod 72 (9), 1702-1704 (2009)

>  <Pubmed ID>
19689106

>  <DOI>
10.1021/np900266m

$$$$
619911
Actelion Java MolfileCreator 1.0

 22 24  0  0  0  0  0  0  0  0999 V2000
    0.0000   -0.0000   -0.0000 S   0  0  0  0  0  0  0  0  0  0  0  0
   -1.4531   -0.4526   -0.0000 C   0  0  0  0  0  0  0  0  0  0  0  0
    0.8814   -1.2029   -0.0000 C   0  0  0  0  0  0  0  0  0  0  0  0
   -1.4650   -1.9533   -0.0000 C   0  0  0  0  0  0  0  0  0  0  0  0
   -2.7632    0.2978   -0.0000 C   0  0  0  0  0  0  0  0  0  0  0  0
   -0.0119   -2.4178   -0.0000 C   0  0  0  0  0  0  0  0  0  0  0  0
    2.3702   -1.1791   -0.0000 C   0  0  0  0  0  0  0  0  0  0  0  0
   -2.7751   -2.6917   -0.0000 C   0  0  0  0  0  0  0  0  0  0  0  0
   -4.0733   -0.4407   -0.0000 C   0  0  0  0  0  0  0  0  0  0  0  0
    0.4526   -3.8232   -0.0000 C   0  0  0  0  0  0  0  0  0  0  0  0
    3.1205   -2.4654   -0.0000 C   0  0  0  0  0  0  0  0  0  0  0  0
   -4.0853   -1.9295   -0.0000 C   0  0  0  0  0  0  0  0  0  0  0  0
   -0.8575   -4.5617   -0.0000 C   0  0  0  0  0  0  0  0  0  0  0  0
    1.9057   -4.1091   -0.0000 C   0  0  0  0  0  0  0  0  0  0  0  0
    4.6093   -2.4416   -0.0000 N   0  0  0  0  0  0  0  0  0  0  0  0
   -0.8575   -6.0386   -0.0000 C   0  0  0  0  0  0  0  0  0  0  0  0
   -2.1677   -3.7994   -0.0000 C   0  0  0  0  0  0  0  0  0  0  0  0
    5.3478   -3.7279   -0.0000 C   0  0  0  0  0  0  0  0  0  0  0  0
    5.3358   -1.1315   -0.0000 C   0  0  0  0  0  0  0  0  0  0  0  0
   -2.1558   -6.7889   -0.0000 N   0  0  0  0  0  0  0  0  0  0  0  0
   -3.4778   -4.5379   -0.0000 C   0  0  0  0  0  0  0  0  0  0  0  0
   -3.4778   -6.0386   -0.0000 C   0  0  0  0  0  0  0  0  0  0  0  0
  1  2  1  0  0  0  0
  1  3  1  0  0  0  0
  2  4  2  0  0  0  0
  2  5  1  0  0  0  0
  3  6  2  0  0  0  0
  3  7  1  0  0  0  0
  4  8  1  0  0  0  0
  5  9  2  0  0  0  0
  6 10  1  0  0  0  0
  7 11  1  0  0  0  0
  8 12  2  0  0  0  0
 10 13  1  0  0  0  0
 10 14  1  6  0  0  0
 11 15  1  0  0  0  0
 13 16  2  0  0  0  0
 13 17  1  0  0  0  0
 15 18  1  0  0  0  0
 15 19  1  0  0  0  0
 16 20  1  0  0  0  0
 17 21  2  0  0  0  0
 20 22  2  0  0  0  0
  4  6  1  0  0  0  0
  9 12  1  0  0  0  0
 21 22  1  0  0  0  0
M  END
>  <MolRegNo>
619911

>  <m>
=

>  <Value>
4000

>  <Unit>
nM

>  <Type>
IC50

>  <pValue>
5.4

>  <Ligand Efficiency>
0

>  <Binding Efficiency>
0

>  <Surface Efficiency>
0

>  <Assay Index>
469729

>  <Assay Category>


>  <Assay Organism>


>  <Target ID>
17045

>  <Target Name>
Cytochrome P450 3A4

>  <Target Organism>
Homo sapiens

>  <Target Description>
Target is a single protein chain

>  <Sequence Accession>
P08684

>  <Reference>
Bioorg Med Chem Lett 20 (7), 2316-2320 (2010)

>  <Pubmed ID>
20188547

>  <DOI>
10.1016/j.bmcl.2010.01.134

$$$$
620004
Actelion Java MolfileCreator 1.0

 22 24  0  0  0  0  0  0  0  0999 V2000
    0.0000   -0.0000   -0.0000 S   0  0  0  0  0  0  0  0  0  0  0  0
   -1.4533   -0.4527   -0.0000 C   0  0  0  0  0  0  0  0  0  0  0  0
    0.8815   -1.2031   -0.0000 C   0  0  0  0  0  0  0  0  0  0  0  0
   -1.4652   -1.9536   -0.0000 C   0  0  0  0  0  0  0  0  0  0  0  0
   -2.7637    0.2978   -0.0000 C   0  0  0  0  0  0  0  0  0  0  0  0
   -0.0119   -2.4182   -0.0000 C   0  0  0  0  0  0  0  0  0  0  0  0
    2.3706   -1.1793   -0.0000 C   0  0  0  0  0  0  0  0  0  0  0  0
   -2.7756   -2.6922   -0.0000 C   0  0  0  0  0  0  0  0  0  0  0  0
   -4.0740   -0.4408   -0.0000 C   0  0  0  0  0  0  0  0  0  0  0  0
    0.4527   -3.8239   -0.0000 C   0  0  0  0  0  0  0  0  0  0  0  0
    3.1210   -2.4659   -0.0000 C   0  0  0  0  0  0  0  0  0  0  0  0
   -4.0859   -1.9298   -0.0000 C   0  0  0  0  0  0  0  0  0  0  0  0
   -0.8577   -4.5624   -0.0000 C   0  0  0  0  0  0  0  0  0  0  0  0
    1.9060   -4.1098   -0.0000 C   0  0  0  0  0  0  0  0  0  0  0  0
    4.6101   -2.4420   -0.0000 N   0  0  0  0  0  0  0  0  0  0  0  0
   -2.1680   -3.8000   -0.0000 C   0  0  0  0  0  0  0  0  0  0  0  0
   -0.8577   -6.0396   -0.0000 C   0  0  0  0  0  0  0  0  0  0  0  0
    5.3486   -3.7286   -0.0000 C   0  0  0  0  0  0  0  0  0  0  0  0
    5.3367   -1.1317   -0.0000 C   0  0  0  0  0  0  0  0  0  0  0  0
   -3.4784   -4.5386   -0.0000 C   0  0  0  0  0  0  0  0  0  0  0  0
   -2.1561   -6.7900   -0.0000 C   0  0  0  0  0  0  0  0  0  0  0  0
   -3.4784   -6.0277   -0.0000 N   0  0  0  0  0  0  0  0  0  0  0  0
  1  2  1  0  0  0  0
  1  3  1  0  0  0  0
  2  4  2  0  0  0  0
  2  5  1  0  0  0  0
  3  6  2  0  0  0  0
  3  7  1  0  0  0  0
  4  8  1  0  0  0  0
  5  9  2  0  0  0  0
  6 10  1  0  0  0  0
  7 11  1  0  0  0  0
  8 12  2  0  0  0  0
 10 13  1  0  0  0  0
 10 14  1  0  0  0  0
 11 15  1  0  0  0  0
 13 16  2  0  0  0  0
 13 17  1  0  0  0  0
 15 18  1  0  0  0  0
 15 19  1  0  0  0  0
 16 20  1  0  0  0  0
 17 21  2  0  0  0  0
 20 22  2  0  0  0  0
  4  6  1  0  0  0  0
  9 12  1  0  0  0  0
 21 22  1  0  0  0  0
M  END
>  <MolRegNo>
620004

>  <m>
=

>  <Value>
2800

>  <Unit>
nM

>  <Type>
IC50

>  <pValue>
5.55

>  <Ligand Efficiency>
0

>  <Binding Efficiency>
0

>  <Surface Efficiency>
0

>  <Assay Index>
469729

>  <Assay Category>


>  <Assay Organism>


>  <Target ID>
17045

>  <Target Name>
Cytochrome P450 3A4

>  <Target Organism>
Homo sapiens

>  <Target Description>
Target is a single protein chain

>  <Sequence Accession>
P08684

>  <Reference>
Bioorg Med Chem Lett 20 (7), 2316-2320 (2010)

>  <Pubmed ID>
20188547

>  <DOI>
10.1016/j.bmcl.2010.01.134

$$$$
620235
Actelion Java MolfileCreator 1.0

 21 23  0  0  0  0  0  0  0  0999 V2000
    0.0000   -0.0000   -0.0000 S   0  0  0  0  0  0  0  0  0  0  0  0
   -1.4542   -0.4529   -0.0000 C   0  0  0  0  0  0  0  0  0  0  0  0
    0.8820   -1.2039   -0.0000 C   0  0  0  0  0  0  0  0  0  0  0  0
   -1.4661   -1.9548   -0.0000 C   0  0  0  0  0  0  0  0  0  0  0  0
   -2.7653    0.2980   -0.0000 C   0  0  0  0  0  0  0  0  0  0  0  0
   -0.0119   -2.4197   -0.0000 C   0  0  0  0  0  0  0  0  0  0  0  0
    2.3720   -1.1800   -0.0000 C   0  0  0  0  0  0  0  0  0  0  0  0
   -2.7773   -2.6938   -0.0000 C   0  0  0  0  0  0  0  0  0  0  0  0
   -4.0765   -0.4410   -0.0000 C   0  0  0  0  0  0  0  0  0  0  0  0
    0.4529   -3.8262   -0.0000 C   0  0  0  0  0  0  0  0  0  0  0  0
    3.1229   -2.4674   -0.0000 C   0  0  0  0  0  0  0  0  0  0  0  0
   -4.0884   -1.9310   -0.0000 C   0  0  0  0  0  0  0  0  0  0  0  0
   -0.5602   -4.9347   -0.0000 N   0  0  0  0  0  0  0  0  0  0  0  0
    1.9071   -4.1123   -0.0000 C   0  0  0  0  0  0  0  0  0  0  0  0
    4.6129   -2.4435   -0.0000 N   0  0  0  0  0  0  0  0  0  0  0  0
   -0.2503   -6.3889   -0.0000 C   0  0  0  0  0  0  0  0  0  0  0  0
   -2.0621   -4.7678   -0.0000 C   0  0  0  0  0  0  0  0  0  0  0  0
    5.3519   -3.7308   -0.0000 C   0  0  0  0  0  0  0  0  0  0  0  0
    5.3400   -1.1324   -0.0000 C   0  0  0  0  0  0  0  0  0  0  0  0
   -1.5615   -7.1398   -0.0000 N   0  0  0  0  0  0  0  0  0  0  0  0
   -2.6700   -6.1267   -0.0000 C   0  0  0  0  0  0  0  0  0  0  0  0
  1  2  1  0  0  0  0
  1  3  1  0  0  0  0
  2  4  2  0  0  0  0
  2  5  1  0  0  0  0
  3  6  2  0  0  0  0
  3  7  1  0  0  0  0
  4  8  1  0  0  0  0
  5  9  2  0  0  0  0
  6 10  1  0  0  0  0
  7 11  1  0  0  0  0
  8 12  2  0  0  0  0
 10 13  1  0  0  0  0
 10 14  1  0  0  0  0
 11 15  1  0  0  0  0
 13 16  1  0  0  0  0
 13 17  1  0  0  0  0
 15 18  1  0  0  0  0
 15 19  1  0  0  0  0
 16 20  2  0  0  0  0
 17 21  2  0  0  0  0
  4  6  1  0  0  0  0
  9 12  1  0  0  0  0
 20 21  1  0  0  0  0
M  END
>  <MolRegNo>
620235

>  <m>
=

>  <Value>
5200

>  <Unit>
nM

>  <Type>
IC50

>  <pValue>
5.28

>  <Ligand Efficiency>
0

>  <Binding Efficiency>
0

>  <Surface Efficiency>
0

>  <Assay Index>
469729

>  <Assay Category>


>  <Assay Organism>


>  <Target ID>
17045

>  <Target Name>
Cytochrome P450 3A4

>  <Target Organism>
Homo sapiens

>  <Target Description>
Target is a single protein chain

>  <Sequence Accession>
P08684

>  <Reference>
Bioorg Med Chem Lett 20 (7), 2316-2320 (2010)

>  <Pubmed ID>
20188547

>  <DOI>
10.1016/j.bmcl.2010.01.134

$$$$
621404
Actelion Java MolfileCreator 1.0

 27 30  0  0  0  0  0  0  0  0999 V2000
    0.0000   -0.0000   -0.0000 Cl  0  0  0  0  0  0  0  0  0  0  0  0
   -0.0257    1.4418   -0.0000 C   0  0  0  0  0  0  0  0  0  0  0  0
   -1.2873    2.1627   -0.0000 C   0  0  0  0  0  0  0  0  0  0  0  0
    1.1843    2.1884   -0.0000 C   0  0  0  0  0  0  0  0  0  0  0  0
   -1.3131    3.6045   -0.0000 C   0  0  0  0  0  0  0  0  0  0  0  0
    1.1328    3.6302   -0.0000 C   0  0  0  0  0  0  0  0  0  0  0  0
   -0.1030    4.3511   -0.0000 C   0  0  0  0  0  0  0  0  0  0  0  0
   -0.1287    5.7929   -0.0000 S   0  0  0  0  0  0  0  0  0  0  0  0
   -1.4675    5.0720   -0.0000 O   0  0  0  0  0  0  0  0  0  0  0  0
   -1.4675    6.5910   -0.0000 O   0  0  0  0  0  0  0  0  0  0  0  0
    2.1112    9.0884   -0.0000 C   0  0  0  0  0  0  0  0  0  0  0  0
    0.9011    9.8351   -0.0000 C   0  0  0  0  0  0  0  0  0  0  0  0
    3.3213    9.7836   -0.0000 C   0  0  0  0  0  0  0  0  0  0  0  0
    2.0597    7.7239   -0.0000 C   0  0  0  0  0  0  0  0  0  0  0  0
    0.9011   11.2511   -0.0000 C   0  0  0  0  0  0  0  0  0  0  0  0
   -0.3347    9.2172   -0.0000 C   0  0  0  0  0  0  0  0  0  0  0  0
    3.3470   11.1996   -0.0000 C   0  0  0  0  0  0  0  0  0  0  0  0
    4.4799    9.0884   -0.0000 C   0  0  0  0  0  0  0  0  0  0  0  0
    3.2183    7.0287   -0.0000 C   0  0  0  0  0  0  0  0  0  0  0  0
    2.0854   11.9463   -0.0000 O   0  0  0  0  0  0  0  0  0  0  0  0
   -0.3090   11.9978   -0.0000 C   0  0  0  0  0  0  0  0  0  0  0  0
   -0.4119    7.8526   -0.0000 F   0  0  0  0  0  0  0  0  0  0  0  0
   -1.5448    9.9638   -0.0000 C   0  0  0  0  0  0  0  0  0  0  0  0
    4.4026    7.7239   -0.0000 C   0  0  0  0  0  0  0  0  0  0  0  0
   -0.3090   13.4138   -0.0000 F   0  0  0  0  0  0  0  0  0  0  0  0
   -1.5448   11.3541   -0.0000 C   0  0  0  0  0  0  0  0  0  0  0  0
    5.5612    7.0287   -0.0000 O   0  0  0  0  0  0  0  0  0  0  0  0
  1  2  1  0  0  0  0
  2  3  2  0  0  0  0
  2  4  1  0  0  0  0
  3  5  1  0  0  0  0
  4  6  2  0  0  0  0
  5  7  2  0  0  0  0
  7  8  1  0  0  0  0
  8  9  2  0  0  0  0
  8 10  2  0  0  0  0
  8 11  1  0  0  0  0
 11 12  1  0  0  0  0
 11 13  1  0  0  0  0
 11 14  1  0  0  0  0
 12 15  2  0  0  0  0
 12 16  1  0  0  0  0
 13 17  1  0  0  0  0
 13 18  1  0  0  0  0
 14 19  1  0  0  0  0
 15 20  1  0  0  0  0
 15 21  1  0  0  0  0
 16 22  1  0  0  0  0
 16 23  2  0  0  0  0
 18 24  1  0  0  0  0
 21 25  1  0  0  0  0
 21 26  2  0  0  0  0
 24 27  2  0  0  0  0
  6  7  1  0  0  0  0
 17 20  1  0  0  0  0
 19 24  1  0  0  0  0
 23 26  1  0  0  0  0
M  END
>  <MolRegNo>
621404

>  <m>
=

>  <Value>
1200

>  <Unit>
nM

>  <Type>
IC50

>  <pValue>
5.92

>  <Ligand Efficiency>
0

>  <Binding Efficiency>
0

>  <Surface Efficiency>
0

>  <Assay Index>
471378

>  <Assay Category>


>  <Assay Organism>


>  <Target ID>
17045

>  <Target Name>
Cytochrome P450 3A4

>  <Target Organism>
Homo sapiens

>  <Target Description>
Target is a single protein chain

>  <Sequence Accession>
P08684

>  <Reference>
Bioorg Med Chem Lett 20 (8), 2591-2596 (2010)

>  <Pubmed ID>
20236824

>  <DOI>
10.1016/j.bmcl.2010.02.080

$$$$
621405
Actelion Java MolfileCreator 1.0

 27 30  0  0  0  0  0  0  0  0999 V2000
    0.0000   -0.0000   -0.0000 Cl  0  0  0  0  0  0  0  0  0  0  0  0
   -0.0257    1.4418   -0.0000 C   0  0  0  0  0  0  0  0  0  0  0  0
   -1.2873    2.1627   -0.0000 C   0  0  0  0  0  0  0  0  0  0  0  0
    1.1843    2.1884   -0.0000 C   0  0  0  0  0  0  0  0  0  0  0  0
   -1.3131    3.6045   -0.0000 C   0  0  0  0  0  0  0  0  0  0  0  0
    1.1328    3.6302   -0.0000 C   0  0  0  0  0  0  0  0  0  0  0  0
   -0.1030    4.3511   -0.0000 C   0  0  0  0  0  0  0  0  0  0  0  0
   -0.1287    5.7929   -0.0000 S   0  0  0  0  0  0  0  0  0  0  0  0
   -1.4675    5.0720   -0.0000 O   0  0  0  0  0  0  0  0  0  0  0  0
   -1.4675    6.5910   -0.0000 O   0  0  0  0  0  0  0  0  0  0  0  0
    2.1112    9.0884   -0.0000 C   0  0  0  0  0  0  0  0  0  0  0  0
    0.9011    9.8351   -0.0000 C   0  0  0  0  0  0  0  0  0  0  0  0
    3.3213    9.7836   -0.0000 C   0  0  0  0  0  0  0  0  0  0  0  0
    2.0597    7.7239   -0.0000 C   0  0  0  0  0  0  0  0  0  0  0  0
    0.9011   11.2511   -0.0000 C   0  0  0  0  0  0  0  0  0  0  0  0
   -0.3347    9.2172   -0.0000 C   0  0  0  0  0  0  0  0  0  0  0  0
    3.3470   11.1996   -0.0000 C   0  0  0  0  0  0  0  0  0  0  0  0
    4.4799    9.0884   -0.0000 C   0  0  0  0  0  0  0  0  0  0  0  0
    3.2183    7.0287   -0.0000 C   0  0  0  0  0  0  0  0  0  0  0  0
    2.0854   11.9463   -0.0000 O   0  0  0  0  0  0  0  0  0  0  0  0
   -0.3090   11.9978   -0.0000 C   0  0  0  0  0  0  0  0  0  0  0  0
   -0.4119    7.8526   -0.0000 F   0  0  0  0  0  0  0  0  0  0  0  0
   -1.5448    9.9638   -0.0000 C   0  0  0  0  0  0  0  0  0  0  0  0
    4.4026    7.7239   -0.0000 C   0  0  0  0  0  0  0  0  0  0  0  0
   -0.3090   13.4138   -0.0000 F   0  0  0  0  0  0  0  0  0  0  0  0
   -1.5448   11.3541   -0.0000 C   0  0  0  0  0  0  0  0  0  0  0  0
    5.5612    7.0287   -0.0000 O   0  0  0  0  0  0  0  0  0  0  0  0
  1  2  1  0  0  0  0
  2  3  2  0  0  0  0
  2  4  1  0  0  0  0
  3  5  1  0  0  0  0
  4  6  2  0  0  0  0
  5  7  2  0  0  0  0
  7  8  1  0  0  0  0
  8  9  2  0  0  0  0
  8 10  2  0  0  0  0
  8 11  1  0  0  0  0
 11 12  1  0  0  0  0
 11 13  1  0  0  0  0
 11 14  1  0  0  0  0
 12 15  2  0  0  0  0
 12 16  1  0  0  0  0
 13 17  1  0  0  0  0
 13 18  1  0  0  0  0
 14 19  1  0  0  0  0
 15 20  1  0  0  0  0
 15 21  1  0  0  0  0
 16 22  1  0  0  0  0
 16 23  2  0  0  0  0
 18 24  1  0  0  0  0
 21 25  1  0  0  0  0
 21 26  2  0  0  0  0
 24 27  1  0  0  0  0
  6  7  1  0  0  0  0
 17 20  1  0  0  0  0
 19 24  1  0  0  0  0
 23 26  1  0  0  0  0
M  END
>  <MolRegNo>
621405

>  <m>
=

>  <Value>
9100

>  <Unit>
nM

>  <Type>
IC50

>  <pValue>
5.04

>  <Ligand Efficiency>
0

>  <Binding Efficiency>
0

>  <Surface Efficiency>
0

>  <Assay Index>
471378

>  <Assay Category>


>  <Assay Organism>


>  <Target ID>
17045

>  <Target Name>
Cytochrome P450 3A4

>  <Target Organism>
Homo sapiens

>  <Target Description>
Target is a single protein chain

>  <Sequence Accession>
P08684

>  <Reference>
Bioorg Med Chem Lett 20 (8), 2591-2596 (2010)

>  <Pubmed ID>
20236824

>  <DOI>
10.1016/j.bmcl.2010.02.080

$$$$
620842
Actelion Java MolfileCreator 1.0

 33 37  0  0  0  0  0  0  0  0999 V2000
    0.0000   -0.0000   -0.0000 F   0  0  0  0  0  0  0  0  0  0  0  0
   -1.0002    1.1296   -0.0000 C   0  0  0  0  0  0  0  0  0  0  0  0
   -2.4710    0.8472   -0.0000 C   0  0  0  0  0  0  0  0  0  0  0  0
   -0.5295    2.5534   -0.0000 C   0  0  0  0  0  0  0  0  0  0  0  0
   -2.9652   -0.5530   -0.0000 N   0  0  0  0  0  0  0  0  0  0  0  0
   -3.4712    1.9768   -0.0000 C   0  0  0  0  0  0  0  0  0  0  0  0
   -1.5297    3.6830   -0.0000 C   0  0  0  0  0  0  0  0  0  0  0  0
   -2.1063   -1.7650   -0.0000 N   0  0  0  0  0  0  0  0  0  0  0  0
   -4.4008   -0.9884   -0.0000 C   0  0  0  0  0  0  0  0  0  0  0  0
   -3.0005    3.4006   -0.0000 C   0  0  0  0  0  0  0  0  0  0  0  0
   -1.0590    5.1068   -0.0000 F   0  0  0  0  0  0  0  0  0  0  0  0
   -3.0123   -2.9535   -0.0000 C   0  0  0  0  0  0  0  0  0  0  0  0
   -5.6952   -0.2118   -0.0000 N   0  0  0  0  0  0  0  0  0  0  0  0
   -4.4243   -2.4710   -0.0000 C   0  0  0  0  0  0  0  0  0  0  0  0
   -7.0130   -0.9296   -0.0000 C   0  0  0  0  0  0  0  0  0  0  0  0
   -5.6952    1.2944   -0.0000 C   0  0  0  0  0  0  0  0  0  0  0  0
   -5.7422   -3.1888   -0.0000 C   0  0  0  0  0  0  0  0  0  0  0  0
   -8.3074   -0.1530   -0.0000 O   0  0  0  0  0  0  0  0  0  0  0  0
   -7.0366   -2.4122   -0.0000 C   0  0  0  0  0  0  0  0  0  0  0  0
   -6.9895    2.0710   -0.0000 C   0  0  0  0  0  0  0  0  0  0  0  0
   -8.3545   -3.1300   -0.0000 C   0  0  0  0  0  0  0  0  0  0  0  0
   -8.3780   -4.6126   -0.0000 C   0  0  0  0  0  0  0  0  0  0  0  0
   -9.6488   -2.3534   -0.0000 C   0  0  0  0  0  0  0  0  0  0  0  0
   -9.6959   -5.3304   -0.0000 C   0  0  0  0  0  0  0  0  0  0  0  0
   -7.1072   -5.3657   -0.0000 C   0  0  0  0  0  0  0  0  0  0  0  0
  -10.9667   -3.0711   -0.0000 C   0  0  0  0  0  0  0  0  0  0  0  0
  -10.9902   -4.5538   -0.0000 C   0  0  0  0  0  0  0  0  0  0  0  0
  -12.2611   -2.2945   -0.0000 C   0  0  0  0  0  0  0  0  0  0  0  0
  -12.2611   -0.7884   -0.0000 O   0  0  0  0  0  0  0  0  0  0  0  0
  -13.5789   -3.0123   -0.0000 N   0  0  0  0  0  0  0  0  0  0  0  0
  -14.8733   -2.2357   -0.0000 C   0  0  0  0  0  0  0  0  0  0  0  0
  -16.3795   -2.2122   -0.0000 C   0  0  0  0  0  0  0  0  0  0  0  0
  -15.6146   -0.9178   -0.0000 C   0  0  0  0  0  0  0  0  0  0  0  0
  1  2  1  0  0  0  0
  2  3  2  0  0  0  0
  2  4  1  0  0  0  0
  3  5  1  0  0  0  0
  3  6  1  0  0  0  0
  4  7  2  0  0  0  0
  5  8  1  0  0  0  0
  5  9  1  0  0  0  0
  6 10  2  0  0  0  0
  7 11  1  0  0  0  0
  8 12  2  0  0  0  0
  9 13  1  0  0  0  0
  9 14  2  0  0  0  0
 13 15  1  0  0  0  0
 13 16  1  0  0  0  0
 14 17  1  0  0  0  0
 15 18  2  0  0  0  0
 15 19  1  0  0  0  0
 16 20  1  0  0  0  0
 19 21  1  0  0  0  0
 21 22  2  0  0  0  0
 21 23  1  0  0  0  0
 22 24  1  0  0  0  0
 22 25  1  0  0  0  0
 23 26  2  0  0  0  0
 24 27  2  0  0  0  0
 26 28  1  0  0  0  0
 28 29  2  0  0  0  0
 28 30  1  0  0  0  0
 30 31  1  0  0  0  0
 31 32  1  0  0  0  0
 31 33  1  0  0  0  0
  7 10  1  0  0  0  0
 12 14  1  0  0  0  0
 17 19  2  0  0  0  0
 26 27  1  0  0  0  0
 32 33  1  0  0  0  0
M  END
>  <MolRegNo>
620842

>  <m>
=

>  <Value>
1600

>  <Unit>
nM

>  <Type>
IC50

>  <pValue>
5.8

>  <Ligand Efficiency>
0

>  <Binding Efficiency>
0

>  <Surface Efficiency>
0

>  <Assay Index>
472444

>  <Assay Category>


>  <Assay Organism>


>  <Target ID>
17045

>  <Target Name>
Cytochrome P450 3A4

>  <Target Organism>
Homo sapiens

>  <Target Description>
Target is a single protein chain

>  <Sequence Accession>
P08684

>  <Reference>
J Med Chem 53 (7), 2973-2985 (2010)

>  <Pubmed ID>
20218619

>  <DOI>
10.1021/jm100095x

$$$$
619490
Actelion Java MolfileCreator 1.0

 42 45  0  0  0  0  0  0  0  0999 V2000
    0.0000   -0.0000   -0.0000 Cl  0  0  0  0  0  0  0  0  0  0  0  0
    1.3016    0.7643   -0.0000 C   0  0  0  0  0  0  0  0  0  0  0  0
    1.2897    2.2809   -0.0000 C   0  0  0  0  0  0  0  0  0  0  0  0
    2.5794    0.0358   -0.0000 C   0  0  0  0  0  0  0  0  0  0  0  0
   -0.0358    3.0451   -0.0000 O   0  0  0  0  0  0  0  0  0  0  0  0
    2.5555    3.0571   -0.0000 C   0  0  0  0  0  0  0  0  0  0  0  0
    3.8691    0.8001   -0.0000 C   0  0  0  0  0  0  0  0  0  0  0  0
   -1.3494    2.2928   -0.0000 C   0  0  0  0  0  0  0  0  0  0  0  0
    2.5316    4.5737   -0.0000 Cl  0  0  0  0  0  0  0  0  0  0  0  0
    3.8452    2.3286   -0.0000 C   0  0  0  0  0  0  0  0  0  0  0  0
    5.1708    0.0717   -0.0000 C   0  0  0  0  0  0  0  0  0  0  0  0
   -2.6749    3.0571   -0.0000 C   0  0  0  0  0  0  0  0  0  0  0  0
   -3.9885    2.3048   -0.0000 C   0  0  0  0  0  0  0  0  0  0  0  0
   -4.0005    0.8120   -0.0000 C   0  0  0  0  0  0  0  0  0  0  0  0
   -5.3141    0.0717   -0.0000 C   0  0  0  0  0  0  0  0  0  0  0  0
   -2.7108    0.0836   -0.0000 C   0  0  0  0  0  0  0  0  0  0  0  0
   -5.3260   -1.4211   -0.0000 C   0  0  0  0  0  0  0  0  0  0  0  0
   -2.7227   -1.4211   -0.0000 C   0  0  0  0  0  0  0  0  0  0  0  0
   -4.0244   -2.1615   -0.0000 C   0  0  0  0  0  0  0  0  0  0  0  0
   -4.0363   -3.6542   -0.0000 C   0  0  0  0  0  0  0  0  0  0  0  0
   -2.7466   -4.3946   -0.0000 C   0  0  0  0  0  0  0  0  0  0  0  0
   -1.4449   -3.6303   -0.0000 C   0  0  0  0  0  0  0  0  0  0  0  0
   -2.7585   -5.8873   -0.0000 C   0  0  0  0  0  0  0  0  0  0  0  0
   -1.4569   -2.1137   -0.0000 O   0  0  0  0  0  0  0  0  0  0  0  0
   -0.1552   -4.3707   -0.0000 N   0  0  0  0  0  0  0  0  0  0  0  0
   -4.0721   -6.6277   -0.0000 N   0  0  0  0  0  0  0  0  0  0  0  0
   -0.1672   -5.8634   -0.0000 C   0  0  0  0  0  0  0  0  0  0  0  0
    1.1345   -3.6064   -0.0000 C   0  0  0  0  0  0  0  0  0  0  0  0
   -0.9315   -7.1531   -0.0000 C   0  0  0  0  0  0  0  0  0  0  0  0
    0.5732   -7.1531   -0.0000 C   0  0  0  0  0  0  0  0  0  0  0  0
    2.4242   -4.3468   -0.0000 C   0  0  0  0  0  0  0  0  0  0  0  0
    3.7019   -3.5825   -0.0000 C   0  0  0  0  0  0  0  0  0  0  0  0
    2.4003   -5.8395   -0.0000 C   0  0  0  0  0  0  0  0  0  0  0  0
    3.6780   -2.0659   -0.0000 Cl  0  0  0  0  0  0  0  0  0  0  0  0
    5.0036   -4.3110   -0.0000 C   0  0  0  0  0  0  0  0  0  0  0  0
    3.6900   -6.5799   -0.0000 C   0  0  0  0  0  0  0  0  0  0  0  0
    4.9916   -5.8156   -0.0000 C   0  0  0  0  0  0  0  0  0  0  0  0
    3.6780   -8.0726   -0.0000 C   0  0  0  0  0  0  0  0  0  0  0  0
    2.3645   -8.8130   -0.0000 C   0  0  0  0  0  0  0  0  0  0  0  0
    2.3525  -10.3057   -0.0000 C   0  0  0  0  0  0  0  0  0  0  0  0
    1.0509  -11.0461   -0.0000 O   0  0  0  0  0  0  0  0  0  0  0  0
    1.0389  -12.5388   -0.0000 C   0  0  0  0  0  0  0  0  0  0  0  0
  1  2  1  0  0  0  0
  2  3  2  0  0  0  0
  2  4  1  0  0  0  0
  3  5  1  0  0  0  0
  3  6  1  0  0  0  0
  4  7  2  0  0  0  0
  5  8  1  0  0  0  0
  6  9  1  0  0  0  0
  6 10  2  0  0  0  0
  7 11  1  0  0  0  0
  8 12  1  0  0  0  0
 12 13  1  0  0  0  0
 13 14  1  0  0  0  0
 14 15  2  0  0  0  0
 14 16  1  0  0  0  0
 15 17  1  0  0  0  0
 16 18  2  0  0  0  0
 17 19  2  0  0  0  0
 19 20  1  0  0  0  0
 21 20  1  6  0  0  0
 21 22  1  0  0  0  0
 21 23  1  0  0  0  0
 22 24  2  0  0  0  0
 22 25  1  0  0  0  0
 23 26  1  0  0  0  0
 25 27  1  0  0  0  0
 25 28  1  0  0  0  0
 27 29  1  0  0  0  0
 27 30  1  0  0  0  0
 28 31  1  0  0  0  0
 31 32  2  0  0  0  0
 31 33  1  0  0  0  0
 32 34  1  0  0  0  0
 32 35  1  0  0  0  0
 33 36  2  0  0  0  0
 35 37  2  0  0  0  0
 36 38  1  0  0  0  0
 38 39  1  0  0  0  0
 39 40  1  0  0  0  0
 40 41  1  0  0  0  0
 41 42  1  0  0  0  0
  7 10  1  0  0  0  0
 18 19  1  0  0  0  0
 29 30  1  0  0  0  0
 36 37  1  0  0  0  0
M  END
>  <MolRegNo>
619490

>  <m>
=

>  <Value>
130

>  <Unit>
nM

>  <Type>
IC50

>  <pValue>
6.89

>  <Ligand Efficiency>
0

>  <Binding Efficiency>
0

>  <Surface Efficiency>
0

>  <Assay Index>
471044

>  <Assay Category>


>  <Assay Organism>


>  <Target ID>
17045

>  <Target Name>
Cytochrome P450 3A4

>  <Target Organism>
Homo sapiens

>  <Target Description>
Target is a single protein chain

>  <Sequence Accession>
P08684

>  <Reference>
Bioorg Med Chem Lett 20 (7), 2204-2209 (2010)

>  <Pubmed ID>
20206513

>  <DOI>
10.1016/j.bmcl.2010.02.036

$$$$
619570
Actelion Java MolfileCreator 1.0

 46 49  0  0  0  0  0  0  0  0999 V2000
    0.0000   -0.0000   -0.0000 Cl  0  0  0  0  0  0  0  0  0  0  0  0
    1.2895    0.7642   -0.0000 C   0  0  0  0  0  0  0  0  0  0  0  0
    1.2776    2.2806   -0.0000 C   0  0  0  0  0  0  0  0  0  0  0  0
    2.5910    0.0239   -0.0000 C   0  0  0  0  0  0  0  0  0  0  0  0
   -0.0358    3.0447   -0.0000 O   0  0  0  0  0  0  0  0  0  0  0  0
    2.5671    3.0567   -0.0000 C   0  0  0  0  0  0  0  0  0  0  0  0
    3.8805    0.7880   -0.0000 C   0  0  0  0  0  0  0  0  0  0  0  0
   -1.3492    2.3044   -0.0000 C   0  0  0  0  0  0  0  0  0  0  0  0
    2.5432    4.5731   -0.0000 Cl  0  0  0  0  0  0  0  0  0  0  0  0
    3.8567    2.3283   -0.0000 C   0  0  0  0  0  0  0  0  0  0  0  0
    5.1820    0.0478   -0.0000 C   0  0  0  0  0  0  0  0  0  0  0  0
   -2.6746    3.0686   -0.0000 C   0  0  0  0  0  0  0  0  0  0  0  0
   -3.9880    2.3283   -0.0000 C   0  0  0  0  0  0  0  0  0  0  0  0
   -3.9999    0.8358   -0.0000 C   0  0  0  0  0  0  0  0  0  0  0  0
   -5.3133    0.0955   -0.0000 C   0  0  0  0  0  0  0  0  0  0  0  0
   -2.7104    0.1075   -0.0000 C   0  0  0  0  0  0  0  0  0  0  0  0
   -5.3253   -1.3970   -0.0000 C   0  0  0  0  0  0  0  0  0  0  0  0
   -2.7223   -1.3970   -0.0000 C   0  0  0  0  0  0  0  0  0  0  0  0
   -4.0238   -2.1373   -0.0000 C   0  0  0  0  0  0  0  0  0  0  0  0
   -4.0358   -3.6298   -0.0000 C   0  0  0  0  0  0  0  0  0  0  0  0
   -2.7462   -4.3701   -0.0000 C   0  0  0  0  0  0  0  0  0  0  0  0
   -1.4448   -3.6059   -0.0000 C   0  0  0  0  0  0  0  0  0  0  0  0
   -2.7582   -5.8626   -0.0000 C   0  0  0  0  0  0  0  0  0  0  0  0
   -1.4567   -2.0895   -0.0000 O   0  0  0  0  0  0  0  0  0  0  0  0
   -0.1552   -4.3462   -0.0000 N   0  0  0  0  0  0  0  0  0  0  0  0
   -4.0716   -6.6029   -0.0000 N   0  0  0  0  0  0  0  0  0  0  0  0
   -0.1672   -5.8387   -0.0000 C   0  0  0  0  0  0  0  0  0  0  0  0
    1.1343   -3.5820   -0.0000 C   0  0  0  0  0  0  0  0  0  0  0  0
   -0.9194   -7.1282   -0.0000 C   0  0  0  0  0  0  0  0  0  0  0  0
    0.5851   -7.1282   -0.0000 C   0  0  0  0  0  0  0  0  0  0  0  0
    2.4358   -4.3223   -0.0000 C   0  0  0  0  0  0  0  0  0  0  0  0
    3.7134   -3.5462   -0.0000 C   0  0  0  0  0  0  0  0  0  0  0  0
    2.4119   -5.8148   -0.0000 C   0  0  0  0  0  0  0  0  0  0  0  0
    5.0148   -4.2746   -0.0000 C   0  0  0  0  0  0  0  0  0  0  0  0
    3.7014   -6.5551   -0.0000 C   0  0  0  0  0  0  0  0  0  0  0  0
    6.3044   -3.4985   -0.0000 O   0  0  0  0  0  0  0  0  0  0  0  0
    5.0029   -5.7790   -0.0000 C   0  0  0  0  0  0  0  0  0  0  0  0
    3.6895   -8.0476   -0.0000 C   0  0  0  0  0  0  0  0  0  0  0  0
    7.5939   -4.2387   -0.0000 C   0  0  0  0  0  0  0  0  0  0  0  0
    4.9790   -8.7879   -0.0000 C   0  0  0  0  0  0  0  0  0  0  0  0
    8.8834   -3.4626   -0.0000 C   0  0  0  0  0  0  0  0  0  0  0  0
    6.2686   -8.0238   -0.0000 C   0  0  0  0  0  0  0  0  0  0  0  0
   10.1730   -4.2029   -0.0000 O   0  0  0  0  0  0  0  0  0  0  0  0
    7.5581   -8.7640   -0.0000 O   0  0  0  0  0  0  0  0  0  0  0  0
   11.4625   -3.4268   -0.0000 C   0  0  0  0  0  0  0  0  0  0  0  0
    8.8476   -7.9999   -0.0000 C   0  0  0  0  0  0  0  0  0  0  0  0
  1  2  1  0  0  0  0
  2  3  2  0  0  0  0
  2  4  1  0  0  0  0
  3  5  1  0  0  0  0
  3  6  1  0  0  0  0
  4  7  2  0  0  0  0
  5  8  1  0  0  0  0
  6  9  1  0  0  0  0
  6 10  2  0  0  0  0
  7 11  1  0  0  0  0
  8 12  1  0  0  0  0
 12 13  1  0  0  0  0
 13 14  1  0  0  0  0
 14 15  2  0  0  0  0
 14 16  1  0  0  0  0
 15 17  1  0  0  0  0
 16 18  2  0  0  0  0
 17 19  2  0  0  0  0
 19 20  1  0  0  0  0
 21 20  1  6  0  0  0
 21 22  1  0  0  0  0
 21 23  1  0  0  0  0
 22 24  2  0  0  0  0
 22 25  1  0  0  0  0
 23 26  1  0  0  0  0
 25 27  1  0  0  0  0
 25 28  1  0  0  0  0
 27 29  1  0  0  0  0
 27 30  1  0  0  0  0
 28 31  1  0  0  0  0
 31 32  2  0  0  0  0
 31 33  1  0  0  0  0
 32 34  1  0  0  0  0
 33 35  2  0  0  0  0
 34 36  1  0  0  0  0
 34 37  2  0  0  0  0
 35 38  1  0  0  0  0
 36 39  1  0  0  0  0
 38 40  1  0  0  0  0
 39 41  1  0  0  0  0
 40 42  1  0  0  0  0
 41 43  1  0  0  0  0
 42 44  1  0  0  0  0
 43 45  1  0  0  0  0
 44 46  1  0  0  0  0
  7 10  1  0  0  0  0
 18 19  1  0  0  0  0
 29 30  1  0  0  0  0
 35 37  1  0  0  0  0
M  END
>  <MolRegNo>
619570

>  <m>
=

>  <Value>
1300

>  <Unit>
nM

>  <Type>
IC50

>  <pValue>
5.89

>  <Ligand Efficiency>
0

>  <Binding Efficiency>
0

>  <Surface Efficiency>
0

>  <Assay Index>
471044

>  <Assay Category>


>  <Assay Organism>


>  <Target ID>
17045

>  <Target Name>
Cytochrome P450 3A4

>  <Target Organism>
Homo sapiens

>  <Target Description>
Target is a single protein chain

>  <Sequence Accession>
P08684

>  <Reference>
Bioorg Med Chem Lett 20 (7), 2204-2209 (2010)

>  <Pubmed ID>
20206513

>  <DOI>
10.1016/j.bmcl.2010.02.036

$$$$
628729
Actelion Java MolfileCreator 1.0

 34 36  0  0  0  0  0  0  0  0999 V2000
    0.0000   -0.0000   -0.0000 S   0  0  0  0  0  0  0  0  0  0  0  0
   -0.9889   -1.1185   -0.0000 C   0  0  0  0  0  0  0  0  0  0  0  0
   -0.7888    1.2951   -0.0000 C   0  0  0  0  0  0  0  0  0  0  0  0
   -2.3782   -0.5180   -0.0000 C   0  0  0  0  0  0  0  0  0  0  0  0
   -1.1185   -2.6019   -0.0000 C   0  0  0  0  0  0  0  0  0  0  0  0
   -2.2487    0.9772   -0.0000 N   0  0  0  0  0  0  0  0  0  0  0  0
   -3.3789   -1.6365   -0.0000 C   0  0  0  0  0  0  0  0  0  0  0  0
   -2.6019   -2.9315   -0.0000 C   0  0  0  0  0  0  0  0  0  0  0  0
   -4.8859   -1.6600   -0.0000 C   0  0  0  0  0  0  0  0  0  0  0  0
   -3.3318   -4.2266   -0.0000 C   0  0  0  0  0  0  0  0  0  0  0  0
   -5.6747   -0.3767   -0.0000 O   0  0  0  0  0  0  0  0  0  0  0  0
   -5.6158   -2.9551   -0.0000 C   0  0  0  0  0  0  0  0  0  0  0  0
   -4.8388   -4.2501   -0.0000 C   0  0  0  0  0  0  0  0  0  0  0  0
   -2.5666   -5.4981   -0.0000 C   0  0  0  0  0  0  0  0  0  0  0  0
   -7.1816   -0.4003   -0.0000 C   0  0  0  0  0  0  0  0  0  0  0  0
   -5.5687   -5.5452   -0.0000 C   0  0  0  0  0  0  0  0  0  0  0  0
   -7.9705    0.8830   -0.0000 P   0  0  0  0  0  0  0  0  0  0  0  0
   -7.2641    2.2016   -0.0000 O   0  0  0  0  0  0  0  0  0  0  0  0
   -9.4774    0.8594   -0.0000 N   0  0  0  0  0  0  0  0  0  0  0  0
   -8.7475   -0.3885   -0.0000 N   0  0  0  0  0  0  0  0  0  0  0  0
  -10.2662    2.1427   -0.0000 C   0  0  0  0  0  0  0  0  0  0  0  0
  -10.2545   -0.3650   -0.0000 C   0  0  0  0  0  0  0  0  0  0  0  0
  -11.7732    2.1192   -0.0000 C   0  0  0  0  0  0  0  0  0  0  0  0
   -9.5598    3.4613   -0.0000 C   0  0  0  0  0  0  0  0  0  0  0  0
  -11.0315   -1.6365   -0.0000 C   0  0  0  0  0  0  0  0  0  0  0  0
  -10.9962    0.9536   -0.0000 C   0  0  0  0  0  0  0  0  0  0  0  0
  -12.5620    3.4025   -0.0000 O   0  0  0  0  0  0  0  0  0  0  0  0
  -12.5031    0.8241   -0.0000 O   0  0  0  0  0  0  0  0  0  0  0  0
  -10.3133   -2.9198   -0.0000 O   0  0  0  0  0  0  0  0  0  0  0  0
  -12.5385   -1.6129   -0.0000 O   0  0  0  0  0  0  0  0  0  0  0  0
  -14.0101    0.8006   -0.0000 C   0  0  0  0  0  0  0  0  0  0  0  0
  -13.3155   -2.8844   -0.0000 C   0  0  0  0  0  0  0  0  0  0  0  0
  -14.7400   -0.4945   -0.0000 C   0  0  0  0  0  0  0  0  0  0  0  0
  -14.8225   -2.8609   -0.0000 C   0  0  0  0  0  0  0  0  0  0  0  0
  1  2  1  0  0  0  0
  1  3  1  0  0  0  0
  2  4  2  0  0  0  0
  2  5  1  0  0  0  0
  3  6  2  0  0  0  0
  4  7  1  0  0  0  0
  5  8  1  0  0  0  0
  7  9  1  0  0  0  0
  8 10  1  0  0  0  0
  9 11  1  0  0  0  0
  9 12  2  0  0  0  0
 10 13  2  0  0  0  0
 10 14  1  0  0  0  0
 11 15  1  0  0  0  0
 13 16  1  0  0  0  0
 15 17  1  0  0  0  0
 17 18  2  0  0  0  0
 17 19  1  0  0  0  0
 17 20  1  0  0  0  0
 21 19  1  6  0  0  0
 22 20  1  6  0  0  0
 21 23  1  0  0  0  0
 21 24  1  0  0  0  0
 22 25  1  0  0  0  0
 22 26  1  0  0  0  0
 23 27  2  0  0  0  0
 23 28  1  0  0  0  0
 25 29  2  0  0  0  0
 25 30  1  0  0  0  0
 28 31  1  0  0  0  0
 30 32  1  0  0  0  0
 31 33  1  0  0  0  0
 32 34  1  0  0  0  0
  4  6  1  0  0  0  0
  7  8  2  0  0  0  0
 12 13  1  0  0  0  0
M  END
>  <MolRegNo>
628729

>  <m>
=

>  <Value>
580

>  <Unit>
nM

>  <Type>
IC50

>  <pValue>
6.24

>  <Ligand Efficiency>
0

>  <Binding Efficiency>
0

>  <Surface Efficiency>
0

>  <Assay Index>
476330

>  <Assay Category>


>  <Assay Organism>


>  <Target ID>
17045

>  <Target Name>
Cytochrome P450 3A4

>  <Target Organism>
Homo sapiens

>  <Target Description>
Target is a single protein chain

>  <Sequence Accession>
P08684

>  <Reference>
Bioorg Med Chem Lett 20 (9), 2938-2941 (2010)

>  <Pubmed ID>
20359891

>  <DOI>
10.1016/j.bmcl.2010.03.017

$$$$
628730
Actelion Java MolfileCreator 1.0

 30 34  0  0  0  0  0  0  0  0999 V2000
    0.0000   -0.0000   -0.0000 Cl  0  0  0  0  0  0  0  0  0  0  0  0
    0.7932    1.2786   -0.0000 C   0  0  0  0  0  0  0  0  0  0  0  0
    2.2849    1.2312   -0.0000 C   0  0  0  0  0  0  0  0  0  0  0  0
    0.0829    2.6282   -0.0000 C   0  0  0  0  0  0  0  0  0  0  0  0
    3.0781    2.5098   -0.0000 C   0  0  0  0  0  0  0  0  0  0  0  0
    0.8761    3.9068   -0.0000 C   0  0  0  0  0  0  0  0  0  0  0  0
    2.3796    3.8595   -0.0000 C   0  0  0  0  0  0  0  0  0  0  0  0
    4.5698    2.5572   -0.0000 C   0  0  0  0  0  0  0  0  0  0  0  0
    5.3393    1.2786   -0.0000 O   0  0  0  0  0  0  0  0  0  0  0  0
    5.2801    3.8831   -0.0000 C   0  0  0  0  0  0  0  0  0  0  0  0
    6.8192    1.3259   -0.0000 P   0  0  0  0  0  0  0  0  0  0  0  0
    6.7718    3.9187   -0.0000 C   0  0  0  0  0  0  0  0  0  0  0  0
    6.0496    0.0474   -0.0000 O   0  0  0  0  0  0  0  0  0  0  0  0
    7.5413    2.6637   -0.0000 O   0  0  0  0  0  0  0  0  0  0  0  0
    7.5887    0.0592   -0.0000 C   0  0  0  0  0  0  0  0  0  0  0  0
    9.0804    0.1065   -0.0000 O   0  0  0  0  0  0  0  0  0  0  0  0
    9.8499   -1.1602   -0.0000 C   0  0  0  0  0  0  0  0  0  0  0  0
   11.3416   -1.1129   -0.0000 C   0  0  0  0  0  0  0  0  0  0  0  0
    9.1159   -2.4625   -0.0000 C   0  0  0  0  0  0  0  0  0  0  0  0
   12.3242    0.0474   -0.0000 C   0  0  0  0  0  0  0  0  0  0  0  0
   12.1111   -2.4033   -0.0000 C   0  0  0  0  0  0  0  0  0  0  0  0
    9.8854   -3.7411   -0.0000 C   0  0  0  0  0  0  0  0  0  0  0  0
   12.4426    1.5627   -0.0000 N   0  0  0  0  0  0  0  0  0  0  0  0
   13.6975   -0.5327   -0.0000 C   0  0  0  0  0  0  0  0  0  0  0  0
   11.3771   -3.7056   -0.0000 C   0  0  0  0  0  0  0  0  0  0  0  0
   13.5791   -2.0481   -0.0000 C   0  0  0  0  0  0  0  0  0  0  0  0
    9.1514   -5.0433   -0.0000 C   0  0  0  0  0  0  0  0  0  0  0  0
   13.8869    1.9179   -0.0000 C   0  0  0  0  0  0  0  0  0  0  0  0
   14.6801    0.6156   -0.0000 S   0  0  0  0  0  0  0  0  0  0  0  0
   12.1466   -4.9841   -0.0000 C   0  0  0  0  0  0  0  0  0  0  0  0
  1  2  1  0  0  0  0
  2  3  2  0  0  0  0
  2  4  1  0  0  0  0
  3  5  1  0  0  0  0
  4  6  2  0  0  0  0
  5  7  2  0  0  0  0
  8  5  1  1  0  0  0
  8  9  1  0  0  0  0
  8 10  1  0  0  0  0
  9 11  1  0  0  0  0
 10 12  1  0  0  0  0
 11 13  2  0  0  0  0
 11 14  1  0  0  0  0
 11 15  1  1  0  0  0
 15 16  1  0  0  0  0
 16 17  1  0  0  0  0
 17 18  2  0  0  0  0
 17 19  1  0  0  0  0
 18 20  1  0  0  0  0
 18 21  1  0  0  0  0
 19 22  2  0  0  0  0
 20 23  1  0  0  0  0
 20 24  2  0  0  0  0
 21 25  2  0  0  0  0
 21 26  1  0  0  0  0
 22 27  1  0  0  0  0
 23 28  2  0  0  0  0
 24 29  1  0  0  0  0
 25 30  1  0  0  0  0
  6  7  1  0  0  0  0
 12 14  1  0  0  0  0
 22 25  1  0  0  0  0
 24 26  1  0  0  0  0
 28 29  1  0  0  0  0
M  END
>  <MolRegNo>
628730

>  <m>
=

>  <Value>
420

>  <Unit>
nM

>  <Type>
IC50

>  <pValue>
6.38

>  <Ligand Efficiency>
0

>  <Binding Efficiency>
0

>  <Surface Efficiency>
0

>  <Assay Index>
476330

>  <Assay Category>


>  <Assay Organism>


>  <Target ID>
17045

>  <Target Name>
Cytochrome P450 3A4

>  <Target Organism>
Homo sapiens

>  <Target Description>
Target is a single protein chain

>  <Sequence Accession>
P08684

>  <Reference>
Bioorg Med Chem Lett 20 (9), 2938-2941 (2010)

>  <Pubmed ID>
20359891

>  <DOI>
10.1016/j.bmcl.2010.03.017

$$$$
628800
Actelion Java MolfileCreator 1.0

 30 34  0  0  0  0  0  0  0  0999 V2000
    0.0000   -0.0000   -0.0000 Cl  0  0  0  0  0  0  0  0  0  0  0  0
    0.7934    1.2789   -0.0000 C   0  0  0  0  0  0  0  0  0  0  0  0
    2.2855    1.2316   -0.0000 C   0  0  0  0  0  0  0  0  0  0  0  0
    0.0829    2.6289   -0.0000 C   0  0  0  0  0  0  0  0  0  0  0  0
    3.0789    2.5105   -0.0000 C   0  0  0  0  0  0  0  0  0  0  0  0
    0.8763    3.9079   -0.0000 C   0  0  0  0  0  0  0  0  0  0  0  0
    2.3802    3.8605   -0.0000 C   0  0  0  0  0  0  0  0  0  0  0  0
    4.5710    2.5579   -0.0000 C   0  0  0  0  0  0  0  0  0  0  0  0
    5.3408    1.2789   -0.0000 O   0  0  0  0  0  0  0  0  0  0  0  0
    5.2815    3.8842   -0.0000 C   0  0  0  0  0  0  0  0  0  0  0  0
    6.8210    1.3263   -0.0000 P   0  0  0  0  0  0  0  0  0  0  0  0
    6.7736    3.9197   -0.0000 C   0  0  0  0  0  0  0  0  0  0  0  0
    6.0513    0.0474   -0.0000 O   0  0  0  0  0  0  0  0  0  0  0  0
    7.5434    2.6645   -0.0000 O   0  0  0  0  0  0  0  0  0  0  0  0
    7.5907    0.0592   -0.0000 C   0  0  0  0  0  0  0  0  0  0  0  0
    9.0828    0.1066   -0.0000 O   0  0  0  0  0  0  0  0  0  0  0  0
    9.8526   -1.1605   -0.0000 C   0  0  0  0  0  0  0  0  0  0  0  0
   11.3447   -1.1132   -0.0000 C   0  0  0  0  0  0  0  0  0  0  0  0
    9.1184   -2.4631   -0.0000 C   0  0  0  0  0  0  0  0  0  0  0  0
   12.3276    0.0474   -0.0000 C   0  0  0  0  0  0  0  0  0  0  0  0
   12.1144   -2.4039   -0.0000 C   0  0  0  0  0  0  0  0  0  0  0  0
    9.8881   -3.7421   -0.0000 C   0  0  0  0  0  0  0  0  0  0  0  0
   12.4460    1.5631   -0.0000 N   0  0  0  0  0  0  0  0  0  0  0  0
   13.7012   -0.5329   -0.0000 C   0  0  0  0  0  0  0  0  0  0  0  0
   11.3802   -3.7066   -0.0000 C   0  0  0  0  0  0  0  0  0  0  0  0
   13.5828   -2.0487   -0.0000 C   0  0  0  0  0  0  0  0  0  0  0  0
    9.1539   -5.0447   -0.0000 C   0  0  0  0  0  0  0  0  0  0  0  0
   13.8907    1.9184   -0.0000 C   0  0  0  0  0  0  0  0  0  0  0  0
   14.6723    0.6158   -0.0000 S   0  0  0  0  0  0  0  0  0  0  0  0
   12.1499   -4.9855   -0.0000 C   0  0  0  0  0  0  0  0  0  0  0  0
  1  2  1  0  0  0  0
  2  3  2  0  0  0  0
  2  4  1  0  0  0  0
  3  5  1  0  0  0  0
  4  6  2  0  0  0  0
  5  7  2  0  0  0  0
  8  5  1  6  0  0  0
  8  9  1  0  0  0  0
  8 10  1  0  0  0  0
  9 11  1  0  0  0  0
 10 12  1  0  0  0  0
 11 13  2  0  0  0  0
 11 14  1  0  0  0  0
 11 15  1  1  0  0  0
 15 16  1  0  0  0  0
 16 17  1  0  0  0  0
 17 18  2  0  0  0  0
 17 19  1  0  0  0  0
 18 20  1  0  0  0  0
 18 21  1  0  0  0  0
 19 22  2  0  0  0  0
 20 23  1  0  0  0  0
 20 24  2  0  0  0  0
 21 25  2  0  0  0  0
 21 26  1  0  0  0  0
 22 27  1  0  0  0  0
 23 28  2  0  0  0  0
 24 29  1  0  0  0  0
 25 30  1  0  0  0  0
  6  7  1  0  0  0  0
 12 14  1  0  0  0  0
 22 25  1  0  0  0  0
 24 26  1  0  0  0  0
 28 29  1  0  0  0  0
M  END
>  <MolRegNo>
628800

>  <m>
=

>  <Value>
2700

>  <Unit>
nM

>  <Type>
IC50

>  <pValue>
5.57

>  <Ligand Efficiency>
0

>  <Binding Efficiency>
0

>  <Surface Efficiency>
0

>  <Assay Index>
476330

>  <Assay Category>


>  <Assay Organism>


>  <Target ID>
17045

>  <Target Name>
Cytochrome P450 3A4

>  <Target Organism>
Homo sapiens

>  <Target Description>
Target is a single protein chain

>  <Sequence Accession>
P08684

>  <Reference>
Bioorg Med Chem Lett 20 (9), 2938-2941 (2010)

>  <Pubmed ID>
20359891

>  <DOI>
10.1016/j.bmcl.2010.03.017

$$$$
628801
Actelion Java MolfileCreator 1.0

 30 34  0  0  0  0  0  0  0  0999 V2000
    0.0000   -0.0000   -0.0000 Cl  0  0  0  0  0  0  0  0  0  0  0  0
    1.4955   -0.0475   -0.0000 C   0  0  0  0  0  0  0  0  0  0  0  0
    2.2908    1.2344   -0.0000 C   0  0  0  0  0  0  0  0  0  0  0  0
    2.1839   -1.3768   -0.0000 C   0  0  0  0  0  0  0  0  0  0  0  0
    3.7863    1.1750   -0.0000 C   0  0  0  0  0  0  0  0  0  0  0  0
    3.6794   -1.4243   -0.0000 C   0  0  0  0  0  0  0  0  0  0  0  0
    4.4628   -0.1543   -0.0000 C   0  0  0  0  0  0  0  0  0  0  0  0
    5.9583   -0.1068   -0.0000 C   0  0  0  0  0  0  0  0  0  0  0  0
    6.7298   -1.3887   -0.0000 O   0  0  0  0  0  0  0  0  0  0  0  0
    6.6705    1.2225   -0.0000 C   0  0  0  0  0  0  0  0  0  0  0  0
    8.2135   -1.3412   -0.0000 P   0  0  0  0  0  0  0  0  0  0  0  0
    8.1660    1.2581   -0.0000 C   0  0  0  0  0  0  0  0  0  0  0  0
    7.4420   -2.6231   -0.0000 O   0  0  0  0  0  0  0  0  0  0  0  0
    8.9375   -0.0000   -0.0000 O   0  0  0  0  0  0  0  0  0  0  0  0
    8.9850   -2.6112   -0.0000 C   0  0  0  0  0  0  0  0  0  0  0  0
   10.4805   -2.5637   -0.0000 O   0  0  0  0  0  0  0  0  0  0  0  0
   11.2520   -3.8337   -0.0000 C   0  0  0  0  0  0  0  0  0  0  0  0
   12.7475   -3.7863   -0.0000 C   0  0  0  0  0  0  0  0  0  0  0  0
   10.5161   -5.1394   -0.0000 C   0  0  0  0  0  0  0  0  0  0  0  0
   13.7327   -2.6231   -0.0000 C   0  0  0  0  0  0  0  0  0  0  0  0
   13.5190   -5.0800   -0.0000 C   0  0  0  0  0  0  0  0  0  0  0  0
   11.2876   -6.4212   -0.0000 C   0  0  0  0  0  0  0  0  0  0  0  0
   13.8513   -1.1038   -0.0000 N   0  0  0  0  0  0  0  0  0  0  0  0
   15.1095   -3.2047   -0.0000 C   0  0  0  0  0  0  0  0  0  0  0  0
   12.7831   -6.3856   -0.0000 C   0  0  0  0  0  0  0  0  0  0  0  0
   14.9908   -4.7239   -0.0000 C   0  0  0  0  0  0  0  0  0  0  0  0
   10.5517   -7.7268   -0.0000 C   0  0  0  0  0  0  0  0  0  0  0  0
   15.2994   -0.7596   -0.0000 C   0  0  0  0  0  0  0  0  0  0  0  0
   16.0828   -2.0534   -0.0000 S   0  0  0  0  0  0  0  0  0  0  0  0
   13.5546   -7.6675   -0.0000 C   0  0  0  0  0  0  0  0  0  0  0  0
  1  2  1  0  0  0  0
  2  3  2  0  0  0  0
  2  4  1  0  0  0  0
  3  5  1  0  0  0  0
  4  6  2  0  0  0  0
  5  7  2  0  0  0  0
  8  7  1  1  0  0  0
  8  9  1  0  0  0  0
  8 10  1  0  0  0  0
  9 11  1  0  0  0  0
 10 12  1  0  0  0  0
 11 13  2  0  0  0  0
 11 14  1  0  0  0  0
 11 15  1  1  0  0  0
 15 16  1  0  0  0  0
 16 17  1  0  0  0  0
 17 18  2  0  0  0  0
 17 19  1  0  0  0  0
 18 20  1  0  0  0  0
 18 21  1  0  0  0  0
 19 22  2  0  0  0  0
 20 23  1  0  0  0  0
 20 24  2  0  0  0  0
 21 25  2  0  0  0  0
 21 26  1  0  0  0  0
 22 27  1  0  0  0  0
 23 28  2  0  0  0  0
 24 29  1  0  0  0  0
 25 30  1  0  0  0  0
  6  7  1  0  0  0  0
 12 14  1  0  0  0  0
 22 25  1  0  0  0  0
 24 26  1  0  0  0  0
 28 29  1  0  0  0  0
M  END
>  <MolRegNo>
628801

>  <m>
=

>  <Value>
650

>  <Unit>
nM

>  <Type>
IC50

>  <pValue>
6.19

>  <Ligand Efficiency>
0

>  <Binding Efficiency>
0

>  <Surface Efficiency>
0

>  <Assay Index>
476330

>  <Assay Category>


>  <Assay Organism>


>  <Target ID>
17045

>  <Target Name>
Cytochrome P450 3A4

>  <Target Organism>
Homo sapiens

>  <Target Description>
Target is a single protein chain

>  <Sequence Accession>
P08684

>  <Reference>
Bioorg Med Chem Lett 20 (9), 2938-2941 (2010)

>  <Pubmed ID>
20359891

>  <DOI>
10.1016/j.bmcl.2010.03.017

$$$$
628802
Actelion Java MolfileCreator 1.0

 30 34  0  0  0  0  0  0  0  0999 V2000
    0.0000   -0.0000   -0.0000 Cl  0  0  0  0  0  0  0  0  0  0  0  0
    1.4955   -0.0475   -0.0000 C   0  0  0  0  0  0  0  0  0  0  0  0
    2.2908    1.2344   -0.0000 C   0  0  0  0  0  0  0  0  0  0  0  0
    2.1839   -1.3768   -0.0000 C   0  0  0  0  0  0  0  0  0  0  0  0
    3.7863    1.1750   -0.0000 C   0  0  0  0  0  0  0  0  0  0  0  0
    3.6794   -1.4243   -0.0000 C   0  0  0  0  0  0  0  0  0  0  0  0
    4.4628   -0.1543   -0.0000 C   0  0  0  0  0  0  0  0  0  0  0  0
    5.9583   -0.1068   -0.0000 C   0  0  0  0  0  0  0  0  0  0  0  0
    6.7298   -1.3887   -0.0000 O   0  0  0  0  0  0  0  0  0  0  0  0
    6.6705    1.2225   -0.0000 C   0  0  0  0  0  0  0  0  0  0  0  0
    8.2135   -1.3412   -0.0000 P   0  0  0  0  0  0  0  0  0  0  0  0
    8.1660    1.2581   -0.0000 C   0  0  0  0  0  0  0  0  0  0  0  0
    7.4420   -2.6231   -0.0000 O   0  0  0  0  0  0  0  0  0  0  0  0
    8.9375   -0.0000   -0.0000 O   0  0  0  0  0  0  0  0  0  0  0  0
    8.9850   -2.6112   -0.0000 C   0  0  0  0  0  0  0  0  0  0  0  0
   10.4805   -2.5637   -0.0000 O   0  0  0  0  0  0  0  0  0  0  0  0
   11.2520   -3.8337   -0.0000 C   0  0  0  0  0  0  0  0  0  0  0  0
   12.7475   -3.7863   -0.0000 C   0  0  0  0  0  0  0  0  0  0  0  0
   10.5161   -5.1394   -0.0000 C   0  0  0  0  0  0  0  0  0  0  0  0
   13.7327   -2.6231   -0.0000 C   0  0  0  0  0  0  0  0  0  0  0  0
   13.5190   -5.0800   -0.0000 C   0  0  0  0  0  0  0  0  0  0  0  0
   11.2876   -6.4212   -0.0000 C   0  0  0  0  0  0  0  0  0  0  0  0
   13.8513   -1.1038   -0.0000 N   0  0  0  0  0  0  0  0  0  0  0  0
   15.1095   -3.2047   -0.0000 C   0  0  0  0  0  0  0  0  0  0  0  0
   12.7831   -6.3856   -0.0000 C   0  0  0  0  0  0  0  0  0  0  0  0
   14.9908   -4.7239   -0.0000 C   0  0  0  0  0  0  0  0  0  0  0  0
   10.5517   -7.7268   -0.0000 C   0  0  0  0  0  0  0  0  0  0  0  0
   15.2994   -0.7596   -0.0000 C   0  0  0  0  0  0  0  0  0  0  0  0
   16.0828   -2.0534   -0.0000 S   0  0  0  0  0  0  0  0  0  0  0  0
   13.5546   -7.6675   -0.0000 C   0  0  0  0  0  0  0  0  0  0  0  0
  1  2  1  0  0  0  0
  2  3  2  0  0  0  0
  2  4  1  0  0  0  0
  3  5  1  0  0  0  0
  4  6  2  0  0  0  0
  5  7  2  0  0  0  0
  8  7  1  6  0  0  0
  8  9  1  0  0  0  0
  8 10  1  0  0  0  0
  9 11  1  0  0  0  0
 10 12  1  0  0  0  0
 11 13  2  0  0  0  0
 11 14  1  0  0  0  0
 11 15  1  1  0  0  0
 15 16  1  0  0  0  0
 16 17  1  0  0  0  0
 17 18  2  0  0  0  0
 17 19  1  0  0  0  0
 18 20  1  0  0  0  0
 18 21  1  0  0  0  0
 19 22  2  0  0  0  0
 20 23  1  0  0  0  0
 20 24  2  0  0  0  0
 21 25  2  0  0  0  0
 21 26  1  0  0  0  0
 22 27  1  0  0  0  0
 23 28  2  0  0  0  0
 24 29  1  0  0  0  0
 25 30  1  0  0  0  0
  6  7  1  0  0  0  0
 12 14  1  0  0  0  0
 22 25  1  0  0  0  0
 24 26  1  0  0  0  0
 28 29  1  0  0  0  0
M  END
>  <MolRegNo>
628802

>  <m>
=

>  <Value>
730

>  <Unit>
nM

>  <Type>
IC50

>  <pValue>
6.14

>  <Ligand Efficiency>
0

>  <Binding Efficiency>
0

>  <Surface Efficiency>
0

>  <Assay Index>
476330

>  <Assay Category>


>  <Assay Organism>


>  <Target ID>
17045

>  <Target Name>
Cytochrome P450 3A4

>  <Target Organism>
Homo sapiens

>  <Target Description>
Target is a single protein chain

>  <Sequence Accession>
P08684

>  <Reference>
Bioorg Med Chem Lett 20 (9), 2938-2941 (2010)

>  <Pubmed ID>
20359891

>  <DOI>
10.1016/j.bmcl.2010.03.017

$$$$
628803
Actelion Java MolfileCreator 1.0

 31 35  0  0  0  0  0  0  0  0999 V2000
    0.0000   -0.0000   -0.0000 S   0  0  0  0  0  0  0  0  0  0  0  0
   -0.9875   -1.1169   -0.0000 C   0  0  0  0  0  0  0  0  0  0  0  0
   -0.7877    1.2932   -0.0000 C   0  0  0  0  0  0  0  0  0  0  0  0
   -2.3748   -0.5173   -0.0000 C   0  0  0  0  0  0  0  0  0  0  0  0
   -1.1169   -2.5982   -0.0000 C   0  0  0  0  0  0  0  0  0  0  0  0
   -2.2455    0.9758   -0.0000 N   0  0  0  0  0  0  0  0  0  0  0  0
   -3.3741   -1.6341   -0.0000 C   0  0  0  0  0  0  0  0  0  0  0  0
   -2.5982   -2.9273   -0.0000 C   0  0  0  0  0  0  0  0  0  0  0  0
   -4.8789   -1.6576   -0.0000 C   0  0  0  0  0  0  0  0  0  0  0  0
   -3.3271   -4.2205   -0.0000 C   0  0  0  0  0  0  0  0  0  0  0  0
   -5.6666   -0.3762   -0.0000 O   0  0  0  0  0  0  0  0  0  0  0  0
   -5.6078   -2.9509   -0.0000 C   0  0  0  0  0  0  0  0  0  0  0  0
   -4.8319   -4.2441   -0.0000 C   0  0  0  0  0  0  0  0  0  0  0  0
   -2.5629   -5.4902   -0.0000 C   0  0  0  0  0  0  0  0  0  0  0  0
   -7.1714   -0.3997   -0.0000 C   0  0  0  0  0  0  0  0  0  0  0  0
   -5.5608   -5.5373   -0.0000 C   0  0  0  0  0  0  0  0  0  0  0  0
   -7.9591    0.8817   -0.0000 P   0  0  0  0  0  0  0  0  0  0  0  0
   -8.7232   -0.3880   -0.0000 O   0  0  0  0  0  0  0  0  0  0  0  0
   -9.4521    0.8582   -0.0000 O   0  0  0  0  0  0  0  0  0  0  0  0
   -7.2419    2.2102   -0.0000 O   0  0  0  0  0  0  0  0  0  0  0  0
  -10.2398    2.1514   -0.0000 C   0  0  0  0  0  0  0  0  0  0  0  0
   -8.0179    3.4916   -0.0000 C   0  0  0  0  0  0  0  0  0  0  0  0
  -11.7446    2.1279   -0.0000 C   0  0  0  0  0  0  0  0  0  0  0  0
   -9.5344    3.4681   -0.0000 C   0  0  0  0  0  0  0  0  0  0  0  0
  -12.5558    0.8817   -0.0000 C   0  0  0  0  0  0  0  0  0  0  0  0
  -12.4383    3.4681   -0.0000 C   0  0  0  0  0  0  0  0  0  0  0  0
  -14.0489    0.9523   -0.0000 C   0  0  0  0  0  0  0  0  0  0  0  0
  -13.9431    3.5504   -0.0000 C   0  0  0  0  0  0  0  0  0  0  0  0
  -14.8601   -0.2939   -0.0000 O   0  0  0  0  0  0  0  0  0  0  0  0
  -14.7543    2.2925   -0.0000 C   0  0  0  0  0  0  0  0  0  0  0  0
  -16.3649   -0.2234   -0.0000 C   0  0  0  0  0  0  0  0  0  0  0  0
  1  2  1  0  0  0  0
  1  3  1  0  0  0  0
  2  4  2  0  0  0  0
  2  5  1  0  0  0  0
  3  6  2  0  0  0  0
  4  7  1  0  0  0  0
  5  8  1  0  0  0  0
  7  9  1  0  0  0  0
  8 10  1  0  0  0  0
  9 11  1  0  0  0  0
  9 12  2  0  0  0  0
 10 13  2  0  0  0  0
 10 14  1  0  0  0  0
 11 15  1  0  0  0  0
 13 16  1  0  0  0  0
 17 15  1  1  0  0  0
 17 18  2  0  0  0  0
 17 19  1  0  0  0  0
 17 20  1  0  0  0  0
 19 21  1  0  0  0  0
 20 22  1  0  0  0  0
 21 23  1  1  0  0  0
 21 24  1  0  0  0  0
 23 25  2  0  0  0  0
 23 26  1  0  0  0  0
 25 27  1  0  0  0  0
 26 28  2  0  0  0  0
 27 29  1  0  0  0  0
 27 30  2  0  0  0  0
 29 31  1  0  0  0  0
  4  6  1  0  0  0  0
  7  8  2  0  0  0  0
 12 13  1  0  0  0  0
 22 24  1  0  0  0  0
 28 30  1  0  0  0  0
M  END
>  <MolRegNo>
628803

>  <m>
=

>  <Value>
270

>  <Unit>
nM

>  <Type>
IC50

>  <pValue>
6.57

>  <Ligand Efficiency>
0

>  <Binding Efficiency>
0

>  <Surface Efficiency>
0

>  <Assay Index>
476330

>  <Assay Category>


>  <Assay Organism>


>  <Target ID>
17045

>  <Target Name>
Cytochrome P450 3A4

>  <Target Organism>
Homo sapiens

>  <Target Description>
Target is a single protein chain

>  <Sequence Accession>
P08684

>  <Reference>
Bioorg Med Chem Lett 20 (9), 2938-2941 (2010)

>  <Pubmed ID>
20359891

>  <DOI>
10.1016/j.bmcl.2010.03.017

$$$$
628869
Actelion Java MolfileCreator 1.0

 31 35  0  0  0  0  0  0  0  0999 V2000
    0.0000   -0.0000   -0.0000 S   0  0  0  0  0  0  0  0  0  0  0  0
   -0.9875   -1.1169   -0.0000 C   0  0  0  0  0  0  0  0  0  0  0  0
   -0.7877    1.2932   -0.0000 C   0  0  0  0  0  0  0  0  0  0  0  0
   -2.3748   -0.5173   -0.0000 C   0  0  0  0  0  0  0  0  0  0  0  0
   -1.1169   -2.5982   -0.0000 C   0  0  0  0  0  0  0  0  0  0  0  0
   -2.2455    0.9758   -0.0000 N   0  0  0  0  0  0  0  0  0  0  0  0
   -3.3741   -1.6341   -0.0000 C   0  0  0  0  0  0  0  0  0  0  0  0
   -2.5982   -2.9273   -0.0000 C   0  0  0  0  0  0  0  0  0  0  0  0
   -4.8789   -1.6576   -0.0000 C   0  0  0  0  0  0  0  0  0  0  0  0
   -3.3271   -4.2205   -0.0000 C   0  0  0  0  0  0  0  0  0  0  0  0
   -5.6666   -0.3762   -0.0000 O   0  0  0  0  0  0  0  0  0  0  0  0
   -5.6078   -2.9509   -0.0000 C   0  0  0  0  0  0  0  0  0  0  0  0
   -4.8319   -4.2441   -0.0000 C   0  0  0  0  0  0  0  0  0  0  0  0
   -2.5629   -5.4902   -0.0000 C   0  0  0  0  0  0  0  0  0  0  0  0
   -7.1714   -0.3997   -0.0000 C   0  0  0  0  0  0  0  0  0  0  0  0
   -5.5608   -5.5373   -0.0000 C   0  0  0  0  0  0  0  0  0  0  0  0
   -7.9591    0.8817   -0.0000 P   0  0  0  0  0  0  0  0  0  0  0  0
   -8.7232   -0.3880   -0.0000 O   0  0  0  0  0  0  0  0  0  0  0  0
   -9.4521    0.8582   -0.0000 O   0  0  0  0  0  0  0  0  0  0  0  0
   -7.2419    2.2102   -0.0000 O   0  0  0  0  0  0  0  0  0  0  0  0
  -10.2398    2.1514   -0.0000 C   0  0  0  0  0  0  0  0  0  0  0  0
   -8.0179    3.4916   -0.0000 C   0  0  0  0  0  0  0  0  0  0  0  0
  -11.7446    2.1279   -0.0000 C   0  0  0  0  0  0  0  0  0  0  0  0
   -9.5344    3.4681   -0.0000 C   0  0  0  0  0  0  0  0  0  0  0  0
  -12.5558    0.8817   -0.0000 C   0  0  0  0  0  0  0  0  0  0  0  0
  -12.4383    3.4681   -0.0000 C   0  0  0  0  0  0  0  0  0  0  0  0
  -14.0489    0.9523   -0.0000 C   0  0  0  0  0  0  0  0  0  0  0  0
  -13.9431    3.5504   -0.0000 C   0  0  0  0  0  0  0  0  0  0  0  0
  -14.8601   -0.2939   -0.0000 O   0  0  0  0  0  0  0  0  0  0  0  0
  -14.7543    2.2925   -0.0000 C   0  0  0  0  0  0  0  0  0  0  0  0
  -16.3649   -0.2234   -0.0000 C   0  0  0  0  0  0  0  0  0  0  0  0
  1  2  1  0  0  0  0
  1  3  1  0  0  0  0
  2  4  2  0  0  0  0
  2  5  1  0  0  0  0
  3  6  2  0  0  0  0
  4  7  1  0  0  0  0
  5  8  1  0  0  0  0
  7  9  1  0  0  0  0
  8 10  1  0  0  0  0
  9 11  1  0  0  0  0
  9 12  2  0  0  0  0
 10 13  2  0  0  0  0
 10 14  1  0  0  0  0
 11 15  1  0  0  0  0
 13 16  1  0  0  0  0
 17 15  1  1  0  0  0
 17 18  2  0  0  0  0
 17 19  1  0  0  0  0
 17 20  1  0  0  0  0
 19 21  1  0  0  0  0
 20 22  1  0  0  0  0
 21 23  1  6  0  0  0
 21 24  1  0  0  0  0
 23 25  2  0  0  0  0
 23 26  1  0  0  0  0
 25 27  1  0  0  0  0
 26 28  2  0  0  0  0
 27 29  1  0  0  0  0
 27 30  2  0  0  0  0
 29 31  1  0  0  0  0
  4  6  1  0  0  0  0
  7  8  2  0  0  0  0
 12 13  1  0  0  0  0
 22 24  1  0  0  0  0
 28 30  1  0  0  0  0
M  END
>  <MolRegNo>
628869

>  <m>
=

>  <Value>
300

>  <Unit>
nM

>  <Type>
IC50

>  <pValue>
6.52

>  <Ligand Efficiency>
0

>  <Binding Efficiency>
0

>  <Surface Efficiency>
0

>  <Assay Index>
476330

>  <Assay Category>


>  <Assay Organism>


>  <Target ID>
17045

>  <Target Name>
Cytochrome P450 3A4

>  <Target Organism>
Homo sapiens

>  <Target Description>
Target is a single protein chain

>  <Sequence Accession>
P08684

>  <Reference>
Bioorg Med Chem Lett 20 (9), 2938-2941 (2010)

>  <Pubmed ID>
20359891

>  <DOI>
10.1016/j.bmcl.2010.03.017

$$$$
628870
Actelion Java MolfileCreator 1.0

 29 33  0  0  0  0  0  0  0  0999 V2000
    0.0000   -0.0000   -0.0000 S   0  0  0  0  0  0  0  0  0  0  0  0
   -0.9874   -1.1167   -0.0000 C   0  0  0  0  0  0  0  0  0  0  0  0
   -0.7876    1.2930   -0.0000 C   0  0  0  0  0  0  0  0  0  0  0  0
   -2.3745   -0.5172   -0.0000 C   0  0  0  0  0  0  0  0  0  0  0  0
   -1.1167   -2.5978   -0.0000 C   0  0  0  0  0  0  0  0  0  0  0  0
   -2.2452    0.9756   -0.0000 N   0  0  0  0  0  0  0  0  0  0  0  0
   -3.3736   -1.6339   -0.0000 C   0  0  0  0  0  0  0  0  0  0  0  0
   -2.5978   -2.9269   -0.0000 C   0  0  0  0  0  0  0  0  0  0  0  0
   -4.8782   -1.6574   -0.0000 C   0  0  0  0  0  0  0  0  0  0  0  0
   -3.3266   -4.2200   -0.0000 C   0  0  0  0  0  0  0  0  0  0  0  0
   -5.6658   -0.3762   -0.0000 O   0  0  0  0  0  0  0  0  0  0  0  0
   -5.6070   -2.9505   -0.0000 C   0  0  0  0  0  0  0  0  0  0  0  0
   -4.8312   -4.2435   -0.0000 C   0  0  0  0  0  0  0  0  0  0  0  0
   -2.5625   -5.4895   -0.0000 C   0  0  0  0  0  0  0  0  0  0  0  0
   -7.1704   -0.3997   -0.0000 C   0  0  0  0  0  0  0  0  0  0  0  0
   -5.5600   -5.5365   -0.0000 C   0  0  0  0  0  0  0  0  0  0  0  0
   -7.9580    0.8816   -0.0000 P   0  0  0  0  0  0  0  0  0  0  0  0
   -8.7221   -0.3879   -0.0000 O   0  0  0  0  0  0  0  0  0  0  0  0
   -9.4509    0.8581   -0.0000 O   0  0  0  0  0  0  0  0  0  0  0  0
   -7.2410    2.2099   -0.0000 O   0  0  0  0  0  0  0  0  0  0  0  0
  -10.2384    2.1511   -0.0000 C   0  0  0  0  0  0  0  0  0  0  0  0
   -8.0168    3.4912   -0.0000 C   0  0  0  0  0  0  0  0  0  0  0  0
  -11.7431    2.1276   -0.0000 C   0  0  0  0  0  0  0  0  0  0  0  0
   -9.5332    3.4677   -0.0000 C   0  0  0  0  0  0  0  0  0  0  0  0
  -12.5541    0.8816   -0.0000 N   0  0  0  0  0  0  0  0  0  0  0  0
  -12.4366    3.4677   -0.0000 C   0  0  0  0  0  0  0  0  0  0  0  0
  -14.0470    0.9521   -0.0000 C   0  0  0  0  0  0  0  0  0  0  0  0
  -13.9412    3.5500   -0.0000 C   0  0  0  0  0  0  0  0  0  0  0  0
  -14.7523    2.2922   -0.0000 C   0  0  0  0  0  0  0  0  0  0  0  0
  1  2  1  0  0  0  0
  1  3  1  0  0  0  0
  2  4  2  0  0  0  0
  2  5  1  0  0  0  0
  3  6  2  0  0  0  0
  4  7  1  0  0  0  0
  5  8  1  0  0  0  0
  7  9  1  0  0  0  0
  8 10  1  0  0  0  0
  9 11  1  0  0  0  0
  9 12  2  0  0  0  0
 10 13  2  0  0  0  0
 10 14  1  0  0  0  0
 11 15  1  0  0  0  0
 13 16  1  0  0  0  0
 17 15  1  1  0  0  0
 17 18  2  0  0  0  0
 17 19  1  0  0  0  0
 17 20  1  0  0  0  0
 19 21  1  0  0  0  0
 20 22  1  0  0  0  0
 21 23  1  1  0  0  0
 21 24  1  0  0  0  0
 23 25  2  0  0  0  0
 23 26  1  0  0  0  0
 25 27  1  0  0  0  0
 26 28  2  0  0  0  0
 27 29  2  0  0  0  0
  4  6  1  0  0  0  0
  7  8  2  0  0  0  0
 12 13  1  0  0  0  0
 22 24  1  0  0  0  0
 28 29  1  0  0  0  0
M  END
>  <MolRegNo>
628870

>  <m>
=

>  <Value>
8400

>  <Unit>
nM

>  <Type>
IC50

>  <pValue>
5.08

>  <Ligand Efficiency>
0

>  <Binding Efficiency>
0

>  <Surface Efficiency>
0

>  <Assay Index>
476330

>  <Assay Category>


>  <Assay Organism>


>  <Target ID>
17045

>  <Target Name>
Cytochrome P450 3A4

>  <Target Organism>
Homo sapiens

>  <Target Description>
Target is a single protein chain

>  <Sequence Accession>
P08684

>  <Reference>
Bioorg Med Chem Lett 20 (9), 2938-2941 (2010)

>  <Pubmed ID>
20359891

>  <DOI>
10.1016/j.bmcl.2010.03.017

$$$$
628871
Actelion Java MolfileCreator 1.0

 29 33  0  0  0  0  0  0  0  0999 V2000
    0.0000   -0.0000   -0.0000 S   0  0  0  0  0  0  0  0  0  0  0  0
   -0.9874   -1.1167   -0.0000 C   0  0  0  0  0  0  0  0  0  0  0  0
   -0.7876    1.2930   -0.0000 C   0  0  0  0  0  0  0  0  0  0  0  0
   -2.3745   -0.5172   -0.0000 C   0  0  0  0  0  0  0  0  0  0  0  0
   -1.1167   -2.5978   -0.0000 C   0  0  0  0  0  0  0  0  0  0  0  0
   -2.2452    0.9756   -0.0000 N   0  0  0  0  0  0  0  0  0  0  0  0
   -3.3736   -1.6339   -0.0000 C   0  0  0  0  0  0  0  0  0  0  0  0
   -2.5978   -2.9269   -0.0000 C   0  0  0  0  0  0  0  0  0  0  0  0
   -4.8782   -1.6574   -0.0000 C   0  0  0  0  0  0  0  0  0  0  0  0
   -3.3266   -4.2200   -0.0000 C   0  0  0  0  0  0  0  0  0  0  0  0
   -5.6658   -0.3762   -0.0000 O   0  0  0  0  0  0  0  0  0  0  0  0
   -5.6070   -2.9505   -0.0000 C   0  0  0  0  0  0  0  0  0  0  0  0
   -4.8312   -4.2435   -0.0000 C   0  0  0  0  0  0  0  0  0  0  0  0
   -2.5625   -5.4895   -0.0000 C   0  0  0  0  0  0  0  0  0  0  0  0
   -7.1704   -0.3997   -0.0000 C   0  0  0  0  0  0  0  0  0  0  0  0
   -5.5600   -5.5365   -0.0000 C   0  0  0  0  0  0  0  0  0  0  0  0
   -7.9580    0.8816   -0.0000 P   0  0  0  0  0  0  0  0  0  0  0  0
   -8.7221   -0.3879   -0.0000 O   0  0  0  0  0  0  0  0  0  0  0  0
   -9.4509    0.8581   -0.0000 O   0  0  0  0  0  0  0  0  0  0  0  0
   -7.2410    2.2099   -0.0000 O   0  0  0  0  0  0  0  0  0  0  0  0
  -10.2384    2.1511   -0.0000 C   0  0  0  0  0  0  0  0  0  0  0  0
   -8.0168    3.4912   -0.0000 C   0  0  0  0  0  0  0  0  0  0  0  0
  -11.7431    2.1276   -0.0000 C   0  0  0  0  0  0  0  0  0  0  0  0
   -9.5332    3.4677   -0.0000 C   0  0  0  0  0  0  0  0  0  0  0  0
  -12.5541    0.8816   -0.0000 C   0  0  0  0  0  0  0  0  0  0  0  0
  -12.4366    3.4677   -0.0000 C   0  0  0  0  0  0  0  0  0  0  0  0
  -14.0470    0.9521   -0.0000 N   0  0  0  0  0  0  0  0  0  0  0  0
  -13.9412    3.5500   -0.0000 C   0  0  0  0  0  0  0  0  0  0  0  0
  -14.7523    2.2922   -0.0000 C   0  0  0  0  0  0  0  0  0  0  0  0
  1  2  1  0  0  0  0
  1  3  1  0  0  0  0
  2  4  2  0  0  0  0
  2  5  1  0  0  0  0
  3  6  2  0  0  0  0
  4  7  1  0  0  0  0
  5  8  1  0  0  0  0
  7  9  1  0  0  0  0
  8 10  1  0  0  0  0
  9 11  1  0  0  0  0
  9 12  2  0  0  0  0
 10 13  2  0  0  0  0
 10 14  1  0  0  0  0
 11 15  1  0  0  0  0
 13 16  1  0  0  0  0
 17 15  1  1  0  0  0
 17 18  2  0  0  0  0
 17 19  1  0  0  0  0
 17 20  1  0  0  0  0
 19 21  1  0  0  0  0
 20 22  1  0  0  0  0
 21 23  1  1  0  0  0
 21 24  1  0  0  0  0
 23 25  2  0  0  0  0
 23 26  1  0  0  0  0
 25 27  1  0  0  0  0
 26 28  2  0  0  0  0
 27 29  2  0  0  0  0
  4  6  1  0  0  0  0
  7  8  2  0  0  0  0
 12 13  1  0  0  0  0
 22 24  1  0  0  0  0
 28 29  1  0  0  0  0
M  END
>  <MolRegNo>
628871

>  <m>
=

>  <Value>
2900

>  <Unit>
nM

>  <Type>
IC50

>  <pValue>
5.54

>  <Ligand Efficiency>
0

>  <Binding Efficiency>
0

>  <Surface Efficiency>
0

>  <Assay Index>
476330

>  <Assay Category>


>  <Assay Organism>


>  <Target ID>
17045

>  <Target Name>
Cytochrome P450 3A4

>  <Target Organism>
Homo sapiens

>  <Target Description>
Target is a single protein chain

>  <Sequence Accession>
P08684

>  <Reference>
Bioorg Med Chem Lett 20 (9), 2938-2941 (2010)

>  <Pubmed ID>
20359891

>  <DOI>
10.1016/j.bmcl.2010.03.017

$$$$
628872
Actelion Java MolfileCreator 1.0

 29 33  0  0  0  0  0  0  0  0999 V2000
    0.0000   -0.0000   -0.0000 S   0  0  0  0  0  0  0  0  0  0  0  0
   -0.9874   -1.1167   -0.0000 C   0  0  0  0  0  0  0  0  0  0  0  0
   -0.7876    1.2930   -0.0000 C   0  0  0  0  0  0  0  0  0  0  0  0
   -2.3744   -0.5172   -0.0000 C   0  0  0  0  0  0  0  0  0  0  0  0
   -1.1167   -2.5978   -0.0000 C   0  0  0  0  0  0  0  0  0  0  0  0
   -2.2451    0.9756   -0.0000 N   0  0  0  0  0  0  0  0  0  0  0  0
   -3.3736   -1.6339   -0.0000 C   0  0  0  0  0  0  0  0  0  0  0  0
   -2.5978   -2.9269   -0.0000 C   0  0  0  0  0  0  0  0  0  0  0  0
   -4.8782   -1.6574   -0.0000 C   0  0  0  0  0  0  0  0  0  0  0  0
   -3.3266   -4.2199   -0.0000 C   0  0  0  0  0  0  0  0  0  0  0  0
   -5.6658   -0.3761   -0.0000 O   0  0  0  0  0  0  0  0  0  0  0  0
   -5.6070   -2.9504   -0.0000 C   0  0  0  0  0  0  0  0  0  0  0  0
   -4.8312   -4.2434   -0.0000 C   0  0  0  0  0  0  0  0  0  0  0  0
   -2.5625   -5.4894   -0.0000 C   0  0  0  0  0  0  0  0  0  0  0  0
   -7.1704   -0.3997   -0.0000 C   0  0  0  0  0  0  0  0  0  0  0  0
   -5.5600   -5.5365   -0.0000 C   0  0  0  0  0  0  0  0  0  0  0  0
   -7.9579    0.8816   -0.0000 P   0  0  0  0  0  0  0  0  0  0  0  0
   -8.7220   -0.3879   -0.0000 O   0  0  0  0  0  0  0  0  0  0  0  0
   -9.4508    0.8581   -0.0000 O   0  0  0  0  0  0  0  0  0  0  0  0
   -7.2409    2.2099   -0.0000 O   0  0  0  0  0  0  0  0  0  0  0  0
  -10.2383    2.1511   -0.0000 C   0  0  0  0  0  0  0  0  0  0  0  0
   -8.0167    3.4911   -0.0000 C   0  0  0  0  0  0  0  0  0  0  0  0
  -11.7429    2.1276   -0.0000 C   0  0  0  0  0  0  0  0  0  0  0  0
   -9.5330    3.4676   -0.0000 C   0  0  0  0  0  0  0  0  0  0  0  0
  -12.4365    3.4676   -0.0000 C   0  0  0  0  0  0  0  0  0  0  0  0
  -12.5540    0.8816   -0.0000 C   0  0  0  0  0  0  0  0  0  0  0  0
  -13.9411    3.5499   -0.0000 C   0  0  0  0  0  0  0  0  0  0  0  0
  -14.0468    0.9521   -0.0000 C   0  0  0  0  0  0  0  0  0  0  0  0
  -14.7521    2.3039   -0.0000 N   0  0  0  0  0  0  0  0  0  0  0  0
  1  2  1  0  0  0  0
  1  3  1  0  0  0  0
  2  4  2  0  0  0  0
  2  5  1  0  0  0  0
  3  6  2  0  0  0  0
  4  7  1  0  0  0  0
  5  8  1  0  0  0  0
  7  9  1  0  0  0  0
  8 10  1  0  0  0  0
  9 11  1  0  0  0  0
  9 12  2  0  0  0  0
 10 13  2  0  0  0  0
 10 14  1  0  0  0  0
 11 15  1  0  0  0  0
 13 16  1  0  0  0  0
 17 15  1  1  0  0  0
 17 18  2  0  0  0  0
 17 19  1  0  0  0  0
 17 20  1  0  0  0  0
 19 21  1  0  0  0  0
 20 22  1  0  0  0  0
 21 23  1  1  0  0  0
 21 24  1  0  0  0  0
 23 25  2  0  0  0  0
 23 26  1  0  0  0  0
 25 27  1  0  0  0  0
 26 28  2  0  0  0  0
 27 29  2  0  0  0  0
  4  6  1  0  0  0  0
  7  8  2  0  0  0  0
 12 13  1  0  0  0  0
 22 24  1  0  0  0  0
 28 29  1  0  0  0  0
M  END
>  <MolRegNo>
628872

>  <m>
=

>  <Value>
2200

>  <Unit>
nM

>  <Type>
IC50

>  <pValue>
5.66

>  <Ligand Efficiency>
0

>  <Binding Efficiency>
0

>  <Surface Efficiency>
0

>  <Assay Index>
476330

>  <Assay Category>


>  <Assay Organism>


>  <Target ID>
17045

>  <Target Name>
Cytochrome P450 3A4

>  <Target Organism>
Homo sapiens

>  <Target Description>
Target is a single protein chain

>  <Sequence Accession>
P08684

>  <Reference>
Bioorg Med Chem Lett 20 (9), 2938-2941 (2010)

>  <Pubmed ID>
20359891

>  <DOI>
10.1016/j.bmcl.2010.03.017

$$$$
628946
Actelion Java MolfileCreator 1.0

 30 34  0  0  0  0  0  0  0  0999 V2000
    0.0000   -0.0000   -0.0000 S   0  0  0  0  0  0  0  0  0  0  0  0
   -0.9879   -1.1173   -0.0000 C   0  0  0  0  0  0  0  0  0  0  0  0
   -0.7880    1.2937   -0.0000 C   0  0  0  0  0  0  0  0  0  0  0  0
   -2.3758   -0.5175   -0.0000 C   0  0  0  0  0  0  0  0  0  0  0  0
   -1.1173   -2.5992   -0.0000 C   0  0  0  0  0  0  0  0  0  0  0  0
   -2.2464    0.9762   -0.0000 N   0  0  0  0  0  0  0  0  0  0  0  0
   -3.3755   -1.6348   -0.0000 C   0  0  0  0  0  0  0  0  0  0  0  0
   -2.5992   -2.9285   -0.0000 C   0  0  0  0  0  0  0  0  0  0  0  0
   -4.8809   -1.6583   -0.0000 C   0  0  0  0  0  0  0  0  0  0  0  0
   -3.3284   -4.2223   -0.0000 C   0  0  0  0  0  0  0  0  0  0  0  0
   -5.6689   -0.3764   -0.0000 O   0  0  0  0  0  0  0  0  0  0  0  0
   -5.6101   -2.9521   -0.0000 C   0  0  0  0  0  0  0  0  0  0  0  0
   -4.8339   -4.2458   -0.0000 C   0  0  0  0  0  0  0  0  0  0  0  0
   -2.5639   -5.4925   -0.0000 C   0  0  0  0  0  0  0  0  0  0  0  0
   -7.1744   -0.3999   -0.0000 C   0  0  0  0  0  0  0  0  0  0  0  0
   -5.5631   -5.5395   -0.0000 C   0  0  0  0  0  0  0  0  0  0  0  0
   -7.9624    0.8821   -0.0000 P   0  0  0  0  0  0  0  0  0  0  0  0
   -8.7268   -0.3881   -0.0000 O   0  0  0  0  0  0  0  0  0  0  0  0
   -9.4560    0.8586   -0.0000 O   0  0  0  0  0  0  0  0  0  0  0  0
   -7.2449    2.2111   -0.0000 O   0  0  0  0  0  0  0  0  0  0  0  0
  -10.2440    2.1523   -0.0000 C   0  0  0  0  0  0  0  0  0  0  0  0
   -8.0212    3.4931   -0.0000 C   0  0  0  0  0  0  0  0  0  0  0  0
  -11.7495    2.1288   -0.0000 C   0  0  0  0  0  0  0  0  0  0  0  0
   -9.5384    3.4696   -0.0000 C   0  0  0  0  0  0  0  0  0  0  0  0
  -12.5610    0.8821   -0.0000 C   0  0  0  0  0  0  0  0  0  0  0  0
  -12.4434    3.4696   -0.0000 C   0  0  0  0  0  0  0  0  0  0  0  0
  -14.0547    0.9527   -0.0000 N   0  0  0  0  0  0  0  0  0  0  0  0
  -11.8788   -0.4234   -0.0000 C   0  0  0  0  0  0  0  0  0  0  0  0
  -13.9488    3.5519   -0.0000 C   0  0  0  0  0  0  0  0  0  0  0  0
  -14.7603    2.2934   -0.0000 C   0  0  0  0  0  0  0  0  0  0  0  0
  1  2  1  0  0  0  0
  1  3  1  0  0  0  0
  2  4  2  0  0  0  0
  2  5  1  0  0  0  0
  3  6  2  0  0  0  0
  4  7  1  0  0  0  0
  5  8  1  0  0  0  0
  7  9  1  0  0  0  0
  8 10  1  0  0  0  0
  9 11  1  0  0  0  0
  9 12  2  0  0  0  0
 10 13  2  0  0  0  0
 10 14  1  0  0  0  0
 11 15  1  0  0  0  0
 13 16  1  0  0  0  0
 17 15  1  1  0  0  0
 17 18  2  0  0  0  0
 17 19  1  0  0  0  0
 17 20  1  0  0  0  0
 19 21  1  0  0  0  0
 20 22  1  0  0  0  0
 21 23  1  1  0  0  0
 21 24  1  0  0  0  0
 23 25  2  0  0  0  0
 23 26  1  0  0  0  0
 25 27  1  0  0  0  0
 25 28  1  0  0  0  0
 26 29  2  0  0  0  0
 27 30  2  0  0  0  0
  4  6  1  0  0  0  0
  7  8  2  0  0  0  0
 12 13  1  0  0  0  0
 22 24  1  0  0  0  0
 29 30  1  0  0  0  0
M  END
>  <MolRegNo>
628946

>  <m>
=

>  <Value>
5800

>  <Unit>
nM

>  <Type>
IC50

>  <pValue>
5.24

>  <Ligand Efficiency>
0

>  <Binding Efficiency>
0

>  <Surface Efficiency>
0

>  <Assay Index>
476330

>  <Assay Category>


>  <Assay Organism>


>  <Target ID>
17045

>  <Target Name>
Cytochrome P450 3A4

>  <Target Organism>
Homo sapiens

>  <Target Description>
Target is a single protein chain

>  <Sequence Accession>
P08684

>  <Reference>
Bioorg Med Chem Lett 20 (9), 2938-2941 (2010)

>  <Pubmed ID>
20359891

>  <DOI>
10.1016/j.bmcl.2010.03.017

$$$$
628947
Actelion Java MolfileCreator 1.0

 30 34  0  0  0  0  0  0  0  0999 V2000
    0.0000   -0.0000   -0.0000 S   0  0  0  0  0  0  0  0  0  0  0  0
   -0.9875   -1.1168   -0.0000 C   0  0  0  0  0  0  0  0  0  0  0  0
   -0.7877    1.2932   -0.0000 C   0  0  0  0  0  0  0  0  0  0  0  0
   -2.3747   -0.5173   -0.0000 C   0  0  0  0  0  0  0  0  0  0  0  0
   -1.1168   -2.5981   -0.0000 C   0  0  0  0  0  0  0  0  0  0  0  0
   -2.2454    0.9758   -0.0000 N   0  0  0  0  0  0  0  0  0  0  0  0
   -3.3740   -1.6341   -0.0000 C   0  0  0  0  0  0  0  0  0  0  0  0
   -2.5981   -2.9273   -0.0000 C   0  0  0  0  0  0  0  0  0  0  0  0
   -4.8788   -1.6576   -0.0000 C   0  0  0  0  0  0  0  0  0  0  0  0
   -3.3270   -4.2204   -0.0000 C   0  0  0  0  0  0  0  0  0  0  0  0
   -5.6664   -0.3762   -0.0000 O   0  0  0  0  0  0  0  0  0  0  0  0
   -5.6076   -2.9508   -0.0000 C   0  0  0  0  0  0  0  0  0  0  0  0
   -4.8317   -4.2439   -0.0000 C   0  0  0  0  0  0  0  0  0  0  0  0
   -2.5628   -5.4901   -0.0000 C   0  0  0  0  0  0  0  0  0  0  0  0
   -7.1712   -0.3997   -0.0000 C   0  0  0  0  0  0  0  0  0  0  0  0
   -5.5606   -5.5371   -0.0000 C   0  0  0  0  0  0  0  0  0  0  0  0
   -7.9589    0.8817   -0.0000 P   0  0  0  0  0  0  0  0  0  0  0  0
   -8.7230   -0.3880   -0.0000 O   0  0  0  0  0  0  0  0  0  0  0  0
   -9.4519    0.8582   -0.0000 O   0  0  0  0  0  0  0  0  0  0  0  0
   -7.2417    2.2101   -0.0000 O   0  0  0  0  0  0  0  0  0  0  0  0
  -10.2395    2.1514   -0.0000 C   0  0  0  0  0  0  0  0  0  0  0  0
   -8.0176    3.4916   -0.0000 C   0  0  0  0  0  0  0  0  0  0  0  0
  -11.7443    2.1278   -0.0000 C   0  0  0  0  0  0  0  0  0  0  0  0
   -9.5342    3.4680   -0.0000 C   0  0  0  0  0  0  0  0  0  0  0  0
  -12.5555    0.8817   -0.0000 C   0  0  0  0  0  0  0  0  0  0  0  0
  -12.4379    3.4680   -0.0000 C   0  0  0  0  0  0  0  0  0  0  0  0
  -14.0485    0.9522   -0.0000 N   0  0  0  0  0  0  0  0  0  0  0  0
  -13.9427    3.5503   -0.0000 C   0  0  0  0  0  0  0  0  0  0  0  0
  -14.7539    2.2924   -0.0000 C   0  0  0  0  0  0  0  0  0  0  0  0
  -16.2469    2.3630   -0.0000 C   0  0  0  0  0  0  0  0  0  0  0  0
  1  2  1  0  0  0  0
  1  3  1  0  0  0  0
  2  4  2  0  0  0  0
  2  5  1  0  0  0  0
  3  6  2  0  0  0  0
  4  7  1  0  0  0  0
  5  8  1  0  0  0  0
  7  9  1  0  0  0  0
  8 10  1  0  0  0  0
  9 11  1  0  0  0  0
  9 12  2  0  0  0  0
 10 13  2  0  0  0  0
 10 14  1  0  0  0  0
 11 15  1  0  0  0  0
 13 16  1  0  0  0  0
 17 15  1  1  0  0  0
 17 18  2  0  0  0  0
 17 19  1  0  0  0  0
 17 20  1  0  0  0  0
 19 21  1  0  0  0  0
 20 22  1  0  0  0  0
 21 23  1  1  0  0  0
 21 24  1  0  0  0  0
 23 25  2  0  0  0  0
 23 26  1  0  0  0  0
 25 27  1  0  0  0  0
 26 28  2  0  0  0  0
 27 29  2  0  0  0  0
 29 30  1  0  0  0  0
  4  6  1  0  0  0  0
  7  8  2  0  0  0  0
 12 13  1  0  0  0  0
 22 24  1  0  0  0  0
 28 29  1  0  0  0  0
M  END
>  <MolRegNo>
628947

>  <m>
=

>  <Value>
5200

>  <Unit>
nM

>  <Type>
IC50

>  <pValue>
5.28

>  <Ligand Efficiency>
0

>  <Binding Efficiency>
0

>  <Surface Efficiency>
0

>  <Assay Index>
476330

>  <Assay Category>


>  <Assay Organism>


>  <Target ID>
17045

>  <Target Name>
Cytochrome P450 3A4

>  <Target Organism>
Homo sapiens

>  <Target Description>
Target is a single protein chain

>  <Sequence Accession>
P08684

>  <Reference>
Bioorg Med Chem Lett 20 (9), 2938-2941 (2010)

>  <Pubmed ID>
20359891

>  <DOI>
10.1016/j.bmcl.2010.03.017

$$$$
628785
Actelion Java MolfileCreator 1.0

 30 34  0  0  0  0  0  0  0  0999 V2000
    0.0000   -0.0000   -0.0000 O   0  0  0  0  0  0  0  0  0  0  0  0
    1.2736    0.7618   -0.0000 C   0  0  0  0  0  0  0  0  0  0  0  0
   -1.3212    0.7499   -0.0000 C   0  0  0  0  0  0  0  0  0  0  0  0
    1.2617    2.2853   -0.0000 C   0  0  0  0  0  0  0  0  0  0  0  0
    2.5710    0.0357   -0.0000 C   0  0  0  0  0  0  0  0  0  0  0  0
    2.5472    3.0471   -0.0000 C   0  0  0  0  0  0  0  0  0  0  0  0
    3.8446    0.8094   -0.0000 C   0  0  0  0  0  0  0  0  0  0  0  0
    3.8208    2.3092   -0.0000 C   0  0  0  0  0  0  0  0  0  0  0  0
    5.1063    3.0709   -0.0000 C   0  0  0  0  0  0  0  0  0  0  0  0
    5.0111    4.5826   -0.0000 N   0  0  0  0  0  0  0  0  0  0  0  0
    3.5709    5.0587   -0.0000 C   0  0  0  0  0  0  0  0  0  0  0  0
    5.8919    5.8086   -0.0000 C   0  0  0  0  0  0  0  0  0  0  0  0
    3.5590    6.5823   -0.0000 C   0  0  0  0  0  0  0  0  0  0  0  0
    2.2615    4.3207   -0.0000 C   0  0  0  0  0  0  0  0  0  0  0  0
    4.9873    7.0465   -0.0000 N   0  0  0  0  0  0  0  0  0  0  0  0
    7.3798    5.8205   -0.0000 C   0  0  0  0  0  0  0  0  0  0  0  0
    2.2377    7.3322   -0.0000 C   0  0  0  0  0  0  0  0  0  0  0  0
    0.9641    5.0825   -0.0000 C   0  0  0  0  0  0  0  0  0  0  0  0
    8.1058    7.1417   -0.0000 C   0  0  0  0  0  0  0  0  0  0  0  0
    8.1058    4.5350   -0.0000 C   0  0  0  0  0  0  0  0  0  0  0  0
    0.9403    6.5942   -0.0000 C   0  0  0  0  0  0  0  0  0  0  0  0
    9.6056    7.1298   -0.0000 N   0  0  0  0  0  0  0  0  0  0  0  0
    9.5818    4.5469   -0.0000 C   0  0  0  0  0  0  0  0  0  0  0  0
   10.3436    8.4391   -0.0000 C   0  0  0  0  0  0  0  0  0  0  0  0
   10.3317    5.8324   -0.0000 C   0  0  0  0  0  0  0  0  0  0  0  0
   11.8314    8.4272   -0.0000 C   0  0  0  0  0  0  0  0  0  0  0  0
    9.6056    9.7484   -0.0000 C   0  0  0  0  0  0  0  0  0  0  0  0
   12.5813    9.7127   -0.0000 C   0  0  0  0  0  0  0  0  0  0  0  0
   10.3674   11.0458   -0.0000 C   0  0  0  0  0  0  0  0  0  0  0  0
   11.8552   11.0339   -0.0000 C   0  0  0  0  0  0  0  0  0  0  0  0
  1  2  1  0  0  0  0
  1  3  1  0  0  0  0
  2  4  2  0  0  0  0
  2  5  1  0  0  0  0
  4  6  1  0  0  0  0
  5  7  2  0  0  0  0
  6  8  2  0  0  0  0
  8  9  1  0  0  0  0
  9 10  1  0  0  0  0
 10 11  1  0  0  0  0
 10 12  1  0  0  0  0
 11 13  2  0  0  0  0
 11 14  1  0  0  0  0
 12 15  2  0  0  0  0
 12 16  1  0  0  0  0
 13 17  1  0  0  0  0
 14 18  2  0  0  0  0
 16 19  1  0  0  0  0
 16 20  1  0  0  0  0
 17 21  2  0  0  0  0
 19 22  1  0  0  0  0
 20 23  1  0  0  0  0
 22 24  1  0  0  0  0
 22 25  1  0  0  0  0
 24 26  1  0  0  0  0
 24 27  1  0  0  0  0
 26 28  1  0  0  0  0
 27 29  1  0  0  0  0
 28 30  1  0  0  0  0
  7  8  1  0  0  0  0
 13 15  1  0  0  0  0
 18 21  1  0  0  0  0
 23 25  1  0  0  0  0
 29 30  1  0  0  0  0
M  END
>  <MolRegNo>
628785

>  <m>
=

>  <Value>
3300

>  <Unit>
nM

>  <Type>
IC50

>  <pValue>
5.48

>  <Ligand Efficiency>
0

>  <Binding Efficiency>
0

>  <Surface Efficiency>
0

>  <Assay Index>
475530

>  <Assay Category>


>  <Assay Organism>


>  <Target ID>
17045

>  <Target Name>
Cytochrome P450 3A4

>  <Target Organism>
Homo sapiens

>  <Target Description>
Target is a single protein chain

>  <Sequence Accession>
P08684

>  <Reference>
Bioorg Med Chem Lett 20 (9), 2916-2919 (2010)

>  <Pubmed ID>
20347297

>  <DOI>
10.1016/j.bmcl.2010.03.027

$$$$
482170
Actelion Java MolfileCreator 1.0

 40 45  0  0  0  0  0  0  0  0999 V2000
    0.0000   -0.0000   -0.0000 O   0  0  0  0  0  0  0  0  0  0  0  0
   -0.0206    1.4847   -0.0000 C   0  0  0  0  0  0  0  0  0  0  0  0
    1.2166    2.2271   -0.0000 C   0  0  0  0  0  0  0  0  0  0  0  0
   -1.2991    2.2271   -0.0000 C   0  0  0  0  0  0  0  0  0  0  0  0
    1.1960    3.7118   -0.0000 C   0  0  0  0  0  0  0  0  0  0  0  0
    3.8149    0.3299   -0.0000 C   0  0  0  0  0  0  0  0  0  0  0  0
   -1.3197    3.7118   -0.0000 C   0  0  0  0  0  0  0  0  0  0  0  0
   -2.5776    1.5053   -0.0000 C   0  0  0  0  0  0  0  0  0  0  0  0
   -0.0825    4.4541   -0.0000 O   0  0  0  0  0  0  0  0  0  0  0  0
    2.4333    4.4541   -0.0000 C   0  0  0  0  0  0  0  0  0  0  0  0
    5.2583    0.3712   -0.0000 C   0  0  0  0  0  0  0  0  0  0  0  0
    3.0725   -0.9073   -0.0000 C   0  0  0  0  0  0  0  0  0  0  0  0
   -2.5982    4.4541   -0.0000 C   0  0  0  0  0  0  0  0  0  0  0  0
   -2.5776    0.0619   -0.0000 O   0  0  0  0  0  0  0  0  0  0  0  0
   -3.8767    2.2477   -0.0000 C   0  0  0  0  0  0  0  0  0  0  0  0
    2.4126    5.9388   -0.0000 C   0  0  0  0  0  0  0  0  0  0  0  0
    3.6705    3.7324   -0.0000 C   0  0  0  0  0  0  0  0  0  0  0  0
    5.9388    1.6497   -0.0000 O   0  0  0  0  0  0  0  0  0  0  0  0
    5.9801   -0.8661   -0.0000 C   0  0  0  0  0  0  0  0  0  0  0  0
    1.5878   -0.8867   -0.0000 O   0  0  0  0  0  0  0  0  0  0  0  0
    3.7942   -2.1446   -0.0000 C   0  0  0  0  0  0  0  0  0  0  0  0
   -3.8767    3.7324   -0.0000 C   0  0  0  0  0  0  0  0  0  0  0  0
    3.6499    6.6812   -0.0000 C   0  0  0  0  0  0  0  0  0  0  0  0
    4.9284    4.4747   -0.0000 C   0  0  0  0  0  0  0  0  0  0  0  0
    7.3823    1.6703   -0.0000 C   0  0  0  0  0  0  0  0  0  0  0  0
    7.4029   -0.8455   -0.0000 C   0  0  0  0  0  0  0  0  0  0  0  0
    5.2377   -2.1240   -0.0000 C   0  0  0  0  0  0  0  0  0  0  0  0
   -5.1758    4.4747   -0.0000 O   0  0  0  0  0  0  0  0  0  0  0  0
    4.9078    5.9801   -0.0000 C   0  0  0  0  0  0  0  0  0  0  0  0
    8.0834    2.9694   -0.0000 C   0  0  0  0  0  0  0  0  0  0  0  0
    8.1040    0.4330   -0.0000 C   0  0  0  0  0  0  0  0  0  0  0  0
    8.1246   -2.0827   -0.0000 O   0  0  0  0  0  0  0  0  0  0  0  0
    5.9594   -3.3612   -0.0000 O   0  0  0  0  0  0  0  0  0  0  0  0
    6.1656    6.7224   -0.0000 O   0  0  0  0  0  0  0  0  0  0  0  0
    9.5269    2.9900   -0.0000 C   0  0  0  0  0  0  0  0  0  0  0  0
    7.3204    4.2479   -0.0000 C   0  0  0  0  0  0  0  0  0  0  0  0
   10.2280    4.2891   -0.0000 C   0  0  0  0  0  0  0  0  0  0  0  0
    8.0215    5.5470   -0.0000 C   0  0  0  0  0  0  0  0  0  0  0  0
    9.4650    5.5676   -0.0000 C   0  0  0  0  0  0  0  0  0  0  0  0
   10.1661    6.8668   -0.0000 O   0  0  0  0  0  0  0  0  0  0  0  0
  1  2  2  0  0  0  0
  2  3  1  0  0  0  0
  2  4  1  0  0  0  0
  3  5  2  0  0  0  0
  3  6  1  0  0  0  0
  4  7  2  0  0  0  0
  4  8  1  0  0  0  0
  5  9  1  0  0  0  0
  5 10  1  0  0  0  0
  6 11  2  0  0  0  0
  6 12  1  0  0  0  0
  7 13  1  0  0  0  0
  8 14  1  0  0  0  0
  8 15  2  0  0  0  0
 10 16  2  0  0  0  0
 10 17  1  0  0  0  0
 11 18  1  0  0  0  0
 11 19  1  0  0  0  0
 12 20  1  0  0  0  0
 12 21  2  0  0  0  0
 13 22  2  0  0  0  0
 16 23  1  0  0  0  0
 17 24  2  0  0  0  0
 18 25  1  0  0  0  0
 19 26  1  0  0  0  0
 19 27  2  0  0  0  0
 22 28  1  0  0  0  0
 23 29  2  0  0  0  0
 25 30  1  0  0  0  0
 25 31  2  0  0  0  0
 26 32  2  0  0  0  0
 27 33  1  0  0  0  0
 29 34  1  0  0  0  0
 30 35  2  0  0  0  0
 30 36  1  0  0  0  0
 35 37  1  0  0  0  0
 36 38  2  0  0  0  0
 37 39  2  0  0  0  0
 39 40  1  0  0  0  0
  7  9  1  0  0  0  0
 15 22  1  0  0  0  0
 21 27  1  0  0  0  0
 24 29  1  0  0  0  0
 26 31  1  0  0  0  0
 38 39  1  0  0  0  0
M  END
>  <MolRegNo>
482170

>  <m>
=

>  <Value>
80

>  <Unit>
nM

>  <Type>
IC50

>  <pValue>
7.1

>  <Ligand Efficiency>
0

>  <Binding Efficiency>
0

>  <Surface Efficiency>
0

>  <Assay Index>
474999

>  <Assay Category>


>  <Assay Organism>


>  <Target ID>
17045

>  <Target Name>
Cytochrome P450 3A4

>  <Target Organism>
Homo sapiens

>  <Target Description>
Target is a single protein chain

>  <Sequence Accession>
P08684

>  <Reference>
J Nat Prod 73 (5), 1015-1021 (2010)

>  <Pubmed ID>
20408551

>  <DOI>
10.1021/np1000329

$$$$
36295
Actelion Java MolfileCreator 1.0

 38 45  0  0  0  0  0  0  0  0999 V2000
    0.0000   -0.0000   -0.0000 O   0  0  0  0  0  0  0  0  0  0  0  0
   -0.0119   -1.4954   -0.0000 C   0  0  0  0  0  0  0  0  0  0  0  0
    1.2817   -2.2312   -0.0000 C   0  0  0  0  0  0  0  0  0  0  0  0
   -1.3292   -2.2312   -0.0000 C   0  0  0  0  0  0  0  0  0  0  0  0
    1.2699   -3.7265   -0.0000 C   0  0  0  0  0  0  0  0  0  0  0  0
    2.5753   -1.4716   -0.0000 C   0  0  0  0  0  0  0  0  0  0  0  0
   -1.3411   -3.7265   -0.0000 C   0  0  0  0  0  0  0  0  0  0  0  0
   -2.6465   -1.4716   -0.0000 C   0  0  0  0  0  0  0  0  0  0  0  0
   -0.0475   -4.4623   -0.0000 C   0  0  0  0  0  0  0  0  0  0  0  0
    2.5635   -4.4623   -0.0000 C   0  0  0  0  0  0  0  0  0  0  0  0
    2.5635    0.0475   -0.0000 O   0  0  0  0  0  0  0  0  0  0  0  0
    3.8689   -2.2074   -0.0000 C   0  0  0  0  0  0  0  0  0  0  0  0
   -2.6584   -4.4623   -0.0000 C   0  0  0  0  0  0  0  0  0  0  0  0
   -2.6584    0.0475   -0.0000 O   0  0  0  0  0  0  0  0  0  0  0  0
   -3.9639   -2.2074   -0.0000 C   0  0  0  0  0  0  0  0  0  0  0  0
   -0.0593   -5.9577   -0.0000 C   0  0  0  0  0  0  0  0  0  0  0  0
    2.5516   -5.9577   -0.0000 C   0  0  0  0  0  0  0  0  0  0  0  0
    3.8571   -3.7028   -0.0000 C   0  0  0  0  0  0  0  0  0  0  0  0
   -2.6703   -5.9577   -0.0000 C   0  0  0  0  0  0  0  0  0  0  0  0
   -3.9758   -3.7028   -0.0000 C   0  0  0  0  0  0  0  0  0  0  0  0
    1.2343   -6.6935   -0.0000 C   0  0  0  0  0  0  0  0  0  0  0  0
   -1.3767   -6.6935   -0.0000 C   0  0  0  0  0  0  0  0  0  0  0  0
    3.8452   -6.6935   -0.0000 C   0  0  0  0  0  0  0  0  0  0  0  0
    5.1507   -4.4386   -0.0000 O   0  0  0  0  0  0  0  0  0  0  0  0
   -3.9876   -6.6935   -0.0000 C   0  0  0  0  0  0  0  0  0  0  0  0
   -5.2931   -4.4386   -0.0000 C   0  0  0  0  0  0  0  0  0  0  0  0
    1.2224   -8.1889   -0.0000 C   0  0  0  0  0  0  0  0  0  0  0  0
   -1.3885   -8.1889   -0.0000 C   0  0  0  0  0  0  0  0  0  0  0  0
    5.1388   -5.9340   -0.0000 O   0  0  0  0  0  0  0  0  0  0  0  0
    3.8333   -8.1889   -0.0000 C   0  0  0  0  0  0  0  0  0  0  0  0
   -3.9995   -8.1889   -0.0000 C   0  0  0  0  0  0  0  0  0  0  0  0
   -5.3050   -5.9340   -0.0000 C   0  0  0  0  0  0  0  0  0  0  0  0
   -0.0949   -8.9247   -0.0000 C   0  0  0  0  0  0  0  0  0  0  0  0
    2.5160   -8.9247   -0.0000 C   0  0  0  0  0  0  0  0  0  0  0  0
   -2.7059   -8.9247   -0.0000 C   0  0  0  0  0  0  0  0  0  0  0  0
   -0.1068  -10.4200   -0.0000 O   0  0  0  0  0  0  0  0  0  0  0  0
    2.5041  -10.4200   -0.0000 O   0  0  0  0  0  0  0  0  0  0  0  0
   -2.7178  -10.4200   -0.0000 O   0  0  0  0  0  0  0  0  0  0  0  0
  1  2  2  0  0  0  0
  2  3  1  0  0  0  0
  2  4  1  0  0  0  0
  3  5  1  0  0  0  0
  3  6  2  0  0  0  0
  4  7  2  0  0  0  0
  4  8  1  0  0  0  0
  5  9  2  0  0  0  0
  5 10  1  0  0  0  0
  6 11  1  0  0  0  0
  6 12  1  0  0  0  0
  7 13  1  0  0  0  0
  8 14  1  0  0  0  0
  8 15  2  0  0  0  0
  9 16  1  0  0  0  0
 10 17  2  0  0  0  0
 10 18  1  0  0  0  0
 13 19  1  0  0  0  0
 13 20  2  0  0  0  0
 16 21  2  0  0  0  0
 16 22  1  0  0  0  0
 17 23  1  0  0  0  0
 18 24  1  0  0  0  0
 19 25  2  0  0  0  0
 20 26  1  0  0  0  0
 21 27  1  0  0  0  0
 22 28  2  0  0  0  0
 23 29  1  0  0  0  0
 23 30  2  0  0  0  0
 25 31  1  0  0  0  0
 25 32  1  0  0  0  0
 27 33  1  0  0  0  0
 27 34  2  0  0  0  0
 28 35  1  0  0  0  0
 33 36  2  0  0  0  0
 34 37  1  0  0  0  0
 35 38  1  0  0  0  0
  7  9  1  0  0  0  0
 12 18  2  0  0  0  0
 15 20  1  0  0  0  0
 17 21  1  0  0  0  0
 19 22  1  0  0  0  0
 28 33  1  0  0  0  0
 30 34  1  0  0  0  0
 31 35  2  0  0  0  0
M  END
>  <MolRegNo>
36295

>  <m>
=

>  <Value>
8700

>  <Unit>
nM

>  <Type>
IC50

>  <pValue>
5.06

>  <Ligand Efficiency>
0

>  <Binding Efficiency>
0

>  <Surface Efficiency>
0

>  <Assay Index>
474999

>  <Assay Category>


>  <Assay Organism>


>  <Target ID>
17045

>  <Target Name>
Cytochrome P450 3A4

>  <Target Organism>
Homo sapiens

>  <Target Description>
Target is a single protein chain

>  <Sequence Accession>
P08684

>  <Reference>
J Nat Prod 73 (5), 1015-1021 (2010)

>  <Pubmed ID>
20408551

>  <DOI>
10.1021/np1000329

$$$$
502148
Actelion Java MolfileCreator 1.0

 39 40  0  0  1  0  0  0  0  0999 V2000
    0.0000   -0.0000   -0.0000 O   0  0  0  0  0  0  0  0  0  0  0  0
   -1.3088   -0.7377   -0.0000 C   0  0  0  0  0  0  0  0  0  0  0  0
   -2.6295    0.0357   -0.0000 C   0  0  0  0  0  0  0  0  0  0  0  0
   -1.3207   -2.2369   -0.0000 C   0  0  0  0  0  0  0  0  0  0  0  0
   -3.9383   -0.7139   -0.0000 C   0  0  0  0  0  0  0  0  0  0  0  0
   -2.6414    1.5468   -0.0000 C   0  0  0  0  0  0  0  0  0  0  0  0
   -2.6414   -2.9746   -0.0000 C   0  0  0  0  0  0  0  0  0  0  0  0
   -0.0357   -2.9746   -0.0000 C   0  0  0  0  0  0  0  0  0  0  0  0
   -1.3445   -3.7241   -0.0000 C   0  0  0  0  0  0  0  0  0  0  0  0
   -5.2590    0.0476   -0.0000 O   0  0  0  0  0  0  0  0  0  0  0  0
   -3.9502   -2.2131   -0.0000 C   0  0  0  0  0  0  0  0  0  0  0  0
   -1.3564    2.3083   -0.0000 C   0  0  0  0  0  0  0  0  0  0  0  0
   -2.6652   -1.4635   -0.0000 O   0  0  0  0  0  0  0  0  0  0  0  0
    1.0113   -4.0216   -0.0000 O   0  0  0  0  0  0  0  0  0  0  0  0
    1.2493   -2.2131   -0.0000 C   0  0  0  0  0  0  0  0  0  0  0  0
   -2.6652   -4.4499   -0.0000 C   0  0  0  0  0  0  0  0  0  0  0  0
   -0.0595   -4.4737   -0.0000 C   0  0  0  0  0  0  0  0  0  0  0  0
   -1.3683   -5.2114   -0.0000 C   0  0  0  0  0  0  0  0  0  0  0  0
   -3.9740   -3.7003   -0.0000 C   0  0  0  0  0  0  0  0  0  0  0  0
   -5.2590   -2.9508   -0.0000 C   0  0  0  0  0  0  0  0  0  0  0  0
   -1.3683    3.8193   -0.0000 C   0  0  0  0  0  0  0  0  0  0  0  0
    2.5343   -2.9508   -0.0000 C   0  0  0  0  0  0  0  0  0  0  0  0
    1.2374   -0.7020   -0.0000 C   0  0  0  0  0  0  0  0  0  0  0  0
   -2.6771   -5.9372   -0.0000 C   0  0  0  0  0  0  0  0  0  0  0  0
   -0.0833   -5.9610   -0.0000 C   0  0  0  0  0  0  0  0  0  0  0  0
   -6.5678   -2.1893   -0.0000 C   0  0  0  0  0  0  0  0  0  0  0  0
   -0.0833    4.5808   -0.0000 C   0  0  0  0  0  0  0  0  0  0  0  0
   -2.6771    4.5808   -0.0000 C   0  0  0  0  0  0  0  0  0  0  0  0
   -3.9978   -6.6749   -0.0000 C   0  0  0  0  0  0  0  0  0  0  0  0
    1.2017   -6.7106   -0.0000 C   0  0  0  0  0  0  0  0  0  0  0  0
   -7.8766   -2.9270   -0.0000 C   0  0  0  0  0  0  0  0  0  0  0  0
   -4.0097   -8.1622   -0.0000 C   0  0  0  0  0  0  0  0  0  0  0  0
    1.1779   -8.1979   -0.0000 C   0  0  0  0  0  0  0  0  0  0  0  0
   -9.1854   -2.1655   -0.0000 C   0  0  0  0  0  0  0  0  0  0  0  0
   -7.8885   -4.4142   -0.0000 C   0  0  0  0  0  0  0  0  0  0  0  0
   -5.3304   -8.8999   -0.0000 C   0  0  0  0  0  0  0  0  0  0  0  0
   -2.7247   -8.8999   -0.0000 C   0  0  0  0  0  0  0  0  0  0  0  0
    2.4629   -8.9475   -0.0000 C   0  0  0  0  0  0  0  0  0  0  0  0
   -0.1428   -8.9237   -0.0000 C   0  0  0  0  0  0  0  0  0  0  0  0
  1  2  2  0  0  0  0
  2  3  1  0  0  0  0
  2  4  1  0  0  0  0
  3  5  2  0  0  0  0
  3  6  1  0  0  0  0
  4  7  1  0  0  0  0
  4  8  1  0  0  0  0
  4  9  1  6  0  0  0
  5 10  1  0  0  0  0
  5 11  1  0  0  0  0
  6 12  1  0  0  0  0
  7 13  2  0  0  0  0
  8 14  2  0  0  0  0
  8 15  1  0  0  0  0
  9 16  1  0  0  0  0
  9 17  1  0  0  0  0
  9 18  1  1  0  0  0
 11 19  1  6  0  0  0
 11 20  1  0  0  0  0
 12 21  2  0  0  0  0
 15 22  1  0  0  0  0
 15 23  1  0  0  0  0
 16 24  1  1  0  0  0
 17 25  1  0  0  0  0
 20 26  1  0  0  0  0
 21 27  1  0  0  0  0
 21 28  1  0  0  0  0
 24 29  1  0  0  0  0
 25 30  1  0  0  0  0
 26 31  2  0  0  0  0
 29 32  2  0  0  0  0
 30 33  2  0  0  0  0
 31 34  1  0  0  0  0
 31 35  1  0  0  0  0
 32 36  1  0  0  0  0
 32 37  1  0  0  0  0
 33 38  1  0  0  0  0
 33 39  1  0  0  0  0
  7 11  1  0  0  0  0
 16 19  1  0  0  0  0
M  END
>  <MolRegNo>
502148

>  <m>
=

>  <Value>
2300

>  <Unit>
nM

>  <Type>
IC50

>  <pValue>
5.64

>  <Ligand Efficiency>
0

>  <Binding Efficiency>
0

>  <Surface Efficiency>
0

>  <Assay Index>
474999

>  <Assay Category>


>  <Assay Organism>


>  <Target ID>
17045

>  <Target Name>
Cytochrome P450 3A4

>  <Target Organism>
Homo sapiens

>  <Target Description>
Target is a single protein chain

>  <Sequence Accession>
P08684

>  <Reference>
J Nat Prod 73 (5), 1015-1021 (2010)

>  <Pubmed ID>
20408551

>  <DOI>
10.1021/np1000329

$$$$
626427
Actelion Java MolfileCreator 1.0

 36 40  0  0  0  0  0  0  0  0999 V2000
    0.0000   -0.0000   -0.0000 Cl  0  0  0  0  0  0  0  0  0  0  0  0
   -1.3074   -0.7420   -0.0000 C   0  0  0  0  0  0  0  0  0  0  0  0
   -2.6148    0.0236   -0.0000 C   0  0  0  0  0  0  0  0  0  0  0  0
   -1.3192   -2.2144   -0.0000 C   0  0  0  0  0  0  0  0  0  0  0  0
   -3.9222   -0.7185   -0.0000 C   0  0  0  0  0  0  0  0  0  0  0  0
   -2.6266   -2.9564   -0.0000 C   0  0  0  0  0  0  0  0  0  0  0  0
   -3.9340   -2.1908   -0.0000 C   0  0  0  0  0  0  0  0  0  0  0  0
   -5.2296    0.0471   -0.0000 C   0  0  0  0  0  0  0  0  0  0  0  0
   -6.5371   -0.6949   -0.0000 O   0  0  0  0  0  0  0  0  0  0  0  0
   -5.2414    1.5548   -0.0000 C   0  0  0  0  0  0  0  0  0  0  0  0
   -6.5371    2.3086   -0.0000 N   0  0  0  0  0  0  0  0  0  0  0  0
   -6.5488    3.8044   -0.0000 C   0  0  0  0  0  0  0  0  0  0  0  0
   -7.8562    4.5700   -0.0000 C   0  0  0  0  0  0  0  0  0  0  0  0
   -5.2650    4.5700   -0.0000 C   0  0  0  0  0  0  0  0  0  0  0  0
   -7.8680    6.0659   -0.0000 C   0  0  0  0  0  0  0  0  0  0  0  0
   -9.1637    3.8280   -0.0000 C   0  0  0  0  0  0  0  0  0  0  0  0
   -5.2768    6.0659   -0.0000 C   0  0  0  0  0  0  0  0  0  0  0  0
   -9.1754    6.8315   -0.0000 O   0  0  0  0  0  0  0  0  0  0  0  0
   -6.5842    6.8315   -0.0000 N   0  0  0  0  0  0  0  0  0  0  0  0
   -9.3286    2.3557   -0.0000 N   0  0  0  0  0  0  0  0  0  0  0  0
  -10.5417    4.4523   -0.0000 N   0  0  0  0  0  0  0  0  0  0  0  0
  -10.8009    2.0612   -0.0000 C   0  0  0  0  0  0  0  0  0  0  0  0
  -11.5547    3.3569   -0.0000 C   0  0  0  0  0  0  0  0  0  0  0  0
  -11.5665    0.7774   -0.0000 C   0  0  0  0  0  0  0  0  0  0  0  0
  -13.0506    3.3686   -0.0000 C   0  0  0  0  0  0  0  0  0  0  0  0
  -13.0623    0.7892   -0.0000 C   0  0  0  0  0  0  0  0  0  0  0  0
  -10.8244   -0.5065   -0.0000 C   0  0  0  0  0  0  0  0  0  0  0  0
  -13.8162    2.0848   -0.0000 C   0  0  0  0  0  0  0  0  0  0  0  0
  -15.3120    2.0966   -0.0000 N   0  0  0  0  0  0  0  0  0  0  0  0
  -16.0776    0.8127   -0.0000 C   0  0  0  0  0  0  0  0  0  0  0  0
  -16.0776    3.4040   -0.0000 C   0  0  0  0  0  0  0  0  0  0  0  0
  -17.5735    0.8245   -0.0000 C   0  0  0  0  0  0  0  0  0  0  0  0
  -17.5735    3.4158   -0.0000 C   0  0  0  0  0  0  0  0  0  0  0  0
  -18.3391    2.1319   -0.0000 N   0  0  0  0  0  0  0  0  0  0  0  0
  -19.8467    2.1437   -0.0000 C   0  0  0  0  0  0  0  0  0  0  0  0
  -20.6006    3.4393   -0.0000 C   0  0  0  0  0  0  0  0  0  0  0  0
  1  2  1  0  0  0  0
  2  3  2  0  0  0  0
  2  4  1  0  0  0  0
  3  5  1  0  0  0  0
  4  6  2  0  0  0  0
  5  7  2  0  0  0  0
  5  8  1  0  0  0  0
  8  9  1  1  0  0  0
  8 10  1  0  0  0  0
 10 11  1  0  0  0  0
 11 12  1  0  0  0  0
 12 13  2  0  0  0  0
 12 14  1  0  0  0  0
 13 15  1  0  0  0  0
 13 16  1  0  0  0  0
 14 17  2  0  0  0  0
 15 18  2  0  0  0  0
 15 19  1  0  0  0  0
 16 20  2  0  0  0  0
 16 21  1  0  0  0  0
 20 22  1  0  0  0  0
 21 23  1  0  0  0  0
 22 24  1  0  0  0  0
 23 25  1  0  0  0  0
 24 26  2  0  0  0  0
 24 27  1  0  0  0  0
 25 28  2  0  0  0  0
 28 29  1  0  0  0  0
 29 30  1  0  0  0  0
 29 31  1  0  0  0  0
 30 32  1  0  0  0  0
 31 33  1  0  0  0  0
 32 34  1  0  0  0  0
 34 35  1  0  0  0  0
 35 36  1  0  0  0  0
  6  7  1  0  0  0  0
 17 19  1  0  0  0  0
 22 23  2  0  0  0  0
 26 28  1  0  0  0  0
 33 34  1  0  0  0  0
M  END
>  <MolRegNo>
626427

>  <m>
=

>  <Value>
2200

>  <Unit>
nM

>  <Type>
IC50

>  <pValue>
5.66

>  <Ligand Efficiency>
0

>  <Binding Efficiency>
0

>  <Surface Efficiency>
0

>  <Assay Index>
477539

>  <Assay Category>


>  <Assay Organism>


>  <Target ID>
17045

>  <Target Name>
Cytochrome P450 3A4

>  <Target Organism>
Homo sapiens

>  <Target Description>
Target is a single protein chain

>  <Sequence Accession>
P08684

>  <Reference>
Bioorg Med Chem Lett 20 (10), 3182-3185 (2010)

>  <Pubmed ID>
20399649

>  <DOI>
10.1016/j.bmcl.2010.03.057

$$$$
626428
Actelion Java MolfileCreator 1.0

 37 41  0  0  0  0  0  0  0  0999 V2000
    0.0000   -0.0000   -0.0000 Cl  0  0  0  0  0  0  0  0  0  0  0  0
   -1.3079   -0.7423   -0.0000 C   0  0  0  0  0  0  0  0  0  0  0  0
   -2.6157    0.0236   -0.0000 C   0  0  0  0  0  0  0  0  0  0  0  0
   -1.3196   -2.2151   -0.0000 C   0  0  0  0  0  0  0  0  0  0  0  0
   -3.9236   -0.7187   -0.0000 C   0  0  0  0  0  0  0  0  0  0  0  0
   -2.6275   -2.9574   -0.0000 C   0  0  0  0  0  0  0  0  0  0  0  0
   -3.9354   -2.1916   -0.0000 C   0  0  0  0  0  0  0  0  0  0  0  0
   -5.2315    0.0471   -0.0000 C   0  0  0  0  0  0  0  0  0  0  0  0
   -6.5393   -0.6952   -0.0000 O   0  0  0  0  0  0  0  0  0  0  0  0
   -5.2432    1.5553   -0.0000 C   0  0  0  0  0  0  0  0  0  0  0  0
   -6.5393    2.3094   -0.0000 N   0  0  0  0  0  0  0  0  0  0  0  0
   -6.5511    3.8058   -0.0000 C   0  0  0  0  0  0  0  0  0  0  0  0
   -7.8590    4.5716   -0.0000 C   0  0  0  0  0  0  0  0  0  0  0  0
   -5.2668    4.5716   -0.0000 C   0  0  0  0  0  0  0  0  0  0  0  0
   -7.8708    6.0680   -0.0000 C   0  0  0  0  0  0  0  0  0  0  0  0
   -9.1668    3.8293   -0.0000 C   0  0  0  0  0  0  0  0  0  0  0  0
   -5.2786    6.0680   -0.0000 C   0  0  0  0  0  0  0  0  0  0  0  0
   -9.1786    6.8339   -0.0000 O   0  0  0  0  0  0  0  0  0  0  0  0
   -6.5865    6.8339   -0.0000 N   0  0  0  0  0  0  0  0  0  0  0  0
   -9.3318    2.3565   -0.0000 N   0  0  0  0  0  0  0  0  0  0  0  0
  -10.5454    4.4538   -0.0000 N   0  0  0  0  0  0  0  0  0  0  0  0
  -10.8046    2.0619   -0.0000 C   0  0  0  0  0  0  0  0  0  0  0  0
  -11.5587    3.3580   -0.0000 C   0  0  0  0  0  0  0  0  0  0  0  0
  -11.5705    0.7776   -0.0000 C   0  0  0  0  0  0  0  0  0  0  0  0
  -13.0551    3.3698   -0.0000 C   0  0  0  0  0  0  0  0  0  0  0  0
  -13.0669    0.7894   -0.0000 C   0  0  0  0  0  0  0  0  0  0  0  0
  -10.8282   -0.5067   -0.0000 C   0  0  0  0  0  0  0  0  0  0  0  0
  -13.8210    2.0855   -0.0000 C   0  0  0  0  0  0  0  0  0  0  0  0
  -15.3173    2.0973   -0.0000 N   0  0  0  0  0  0  0  0  0  0  0  0
  -16.0832    0.8130   -0.0000 C   0  0  0  0  0  0  0  0  0  0  0  0
  -16.0832    3.4052   -0.0000 C   0  0  0  0  0  0  0  0  0  0  0  0
  -17.5796    0.8248   -0.0000 C   0  0  0  0  0  0  0  0  0  0  0  0
  -17.5796    3.4169   -0.0000 C   0  0  0  0  0  0  0  0  0  0  0  0
  -18.3455    2.1326   -0.0000 N   0  0  0  0  0  0  0  0  0  0  0  0
  -19.8536    2.1444   -0.0000 C   0  0  0  0  0  0  0  0  0  0  0  0
  -20.6077    0.8719   -0.0000 O   0  0  0  0  0  0  0  0  0  0  0  0
  -20.6077    3.4405   -0.0000 C   0  0  0  0  0  0  0  0  0  0  0  0
  1  2  1  0  0  0  0
  2  3  2  0  0  0  0
  2  4  1  0  0  0  0
  3  5  1  0  0  0  0
  4  6  2  0  0  0  0
  5  7  2  0  0  0  0
  5  8  1  0  0  0  0
  8  9  1  1  0  0  0
  8 10  1  0  0  0  0
 10 11  1  0  0  0  0
 11 12  1  0  0  0  0
 12 13  2  0  0  0  0
 12 14  1  0  0  0  0
 13 15  1  0  0  0  0
 13 16  1  0  0  0  0
 14 17  2  0  0  0  0
 15 18  2  0  0  0  0
 15 19  1  0  0  0  0
 16 20  2  0  0  0  0
 16 21  1  0  0  0  0
 20 22  1  0  0  0  0
 21 23  1  0  0  0  0
 22 24  1  0  0  0  0
 23 25  1  0  0  0  0
 24 26  2  0  0  0  0
 24 27  1  0  0  0  0
 25 28  2  0  0  0  0
 28 29  1  0  0  0  0
 29 30  1  0  0  0  0
 29 31  1  0  0  0  0
 30 32  1  0  0  0  0
 31 33  1  0  0  0  0
 32 34  1  0  0  0  0
 34 35  1  0  0  0  0
 35 36  2  0  0  0  0
 35 37  1  0  0  0  0
  6  7  1  0  0  0  0
 17 19  1  0  0  0  0
 22 23  2  0  0  0  0
 26 28  1  0  0  0  0
 33 34  1  0  0  0  0
M  END
>  <MolRegNo>
626428

>  <m>
=

>  <Value>
1100

>  <Unit>
nM

>  <Type>
IC50

>  <pValue>
5.96

>  <Ligand Efficiency>
0

>  <Binding Efficiency>
0

>  <Surface Efficiency>
0

>  <Assay Index>
477539

>  <Assay Category>


>  <Assay Organism>


>  <Target ID>
17045

>  <Target Name>
Cytochrome P450 3A4

>  <Target Organism>
Homo sapiens

>  <Target Description>
Target is a single protein chain

>  <Sequence Accession>
P08684

>  <Reference>
Bioorg Med Chem Lett 20 (10), 3182-3185 (2010)

>  <Pubmed ID>
20399649

>  <DOI>
10.1016/j.bmcl.2010.03.057

$$$$
626429
Actelion Java MolfileCreator 1.0

 39 43  0  0  0  0  0  0  0  0999 V2000
    0.0000   -0.0000   -0.0000 Cl  0  0  0  0  0  0  0  0  0  0  0  0
   -1.3086   -0.7427   -0.0000 C   0  0  0  0  0  0  0  0  0  0  0  0
   -2.6173    0.0236   -0.0000 C   0  0  0  0  0  0  0  0  0  0  0  0
   -1.3204   -2.2164   -0.0000 C   0  0  0  0  0  0  0  0  0  0  0  0
   -3.9259   -0.7192   -0.0000 C   0  0  0  0  0  0  0  0  0  0  0  0
   -2.6291   -2.9592   -0.0000 C   0  0  0  0  0  0  0  0  0  0  0  0
   -3.9377   -2.1928   -0.0000 C   0  0  0  0  0  0  0  0  0  0  0  0
   -5.2345    0.0472   -0.0000 C   0  0  0  0  0  0  0  0  0  0  0  0
   -6.5432   -0.6956   -0.0000 O   0  0  0  0  0  0  0  0  0  0  0  0
   -5.2463    1.5562   -0.0000 C   0  0  0  0  0  0  0  0  0  0  0  0
   -6.5432    2.3107   -0.0000 N   0  0  0  0  0  0  0  0  0  0  0  0
   -6.5550    3.8080   -0.0000 C   0  0  0  0  0  0  0  0  0  0  0  0
   -7.8636    4.5743   -0.0000 C   0  0  0  0  0  0  0  0  0  0  0  0
   -5.2699    4.5743   -0.0000 C   0  0  0  0  0  0  0  0  0  0  0  0
   -7.8754    6.0716   -0.0000 C   0  0  0  0  0  0  0  0  0  0  0  0
   -9.1722    3.8316   -0.0000 C   0  0  0  0  0  0  0  0  0  0  0  0
   -5.2817    6.0716   -0.0000 C   0  0  0  0  0  0  0  0  0  0  0  0
   -9.1840    6.8379   -0.0000 O   0  0  0  0  0  0  0  0  0  0  0  0
   -6.5903    6.8379   -0.0000 N   0  0  0  0  0  0  0  0  0  0  0  0
   -9.3373    2.3579   -0.0000 N   0  0  0  0  0  0  0  0  0  0  0  0
  -10.5516    4.4446   -0.0000 N   0  0  0  0  0  0  0  0  0  0  0  0
  -10.8110    2.0632   -0.0000 C   0  0  0  0  0  0  0  0  0  0  0  0
  -11.5655    3.3482   -0.0000 C   0  0  0  0  0  0  0  0  0  0  0  0
  -11.5773    0.7781   -0.0000 C   0  0  0  0  0  0  0  0  0  0  0  0
  -13.0628    3.3600   -0.0000 C   0  0  0  0  0  0  0  0  0  0  0  0
  -13.0745    0.7899   -0.0000 C   0  0  0  0  0  0  0  0  0  0  0  0
  -10.8345   -0.5069   -0.0000 C   0  0  0  0  0  0  0  0  0  0  0  0
  -13.8291    2.0750   -0.0000 C   0  0  0  0  0  0  0  0  0  0  0  0
  -15.3263    2.0867   -0.0000 N   0  0  0  0  0  0  0  0  0  0  0  0
  -16.0927    0.8017   -0.0000 C   0  0  0  0  0  0  0  0  0  0  0  0
  -16.0927    3.3954   -0.0000 C   0  0  0  0  0  0  0  0  0  0  0  0
  -17.5899    0.8135   -0.0000 C   0  0  0  0  0  0  0  0  0  0  0  0
  -17.5899    3.4072   -0.0000 C   0  0  0  0  0  0  0  0  0  0  0  0
  -18.3562    2.1221   -0.0000 N   0  0  0  0  0  0  0  0  0  0  0  0
  -19.8653    2.1339   -0.0000 C   0  0  0  0  0  0  0  0  0  0  0  0
  -20.6198    0.8606   -0.0000 O   0  0  0  0  0  0  0  0  0  0  0  0
  -20.6198    3.4307   -0.0000 C   0  0  0  0  0  0  0  0  0  0  0  0
  -19.8889    4.7276   -0.0000 O   0  0  0  0  0  0  0  0  0  0  0  0
  -20.6434    6.0244   -0.0000 C   0  0  0  0  0  0  0  0  0  0  0  0
  1  2  1  0  0  0  0
  2  3  2  0  0  0  0
  2  4  1  0  0  0  0
  3  5  1  0  0  0  0
  4  6  2  0  0  0  0
  5  7  2  0  0  0  0
  5  8  1  0  0  0  0
  8  9  1  1  0  0  0
  8 10  1  0  0  0  0
 10 11  1  0  0  0  0
 11 12  1  0  0  0  0
 12 13  2  0  0  0  0
 12 14  1  0  0  0  0
 13 15  1  0  0  0  0
 13 16  1  0  0  0  0
 14 17  2  0  0  0  0
 15 18  2  0  0  0  0
 15 19  1  0  0  0  0
 16 20  2  0  0  0  0
 16 21  1  0  0  0  0
 20 22  1  0  0  0  0
 21 23  1  0  0  0  0
 22 24  1  0  0  0  0
 23 25  1  0  0  0  0
 24 26  2  0  0  0  0
 24 27  1  0  0  0  0
 25 28  2  0  0  0  0
 28 29  1  0  0  0  0
 29 30  1  0  0  0  0
 29 31  1  0  0  0  0
 30 32  1  0  0  0  0
 31 33  1  0  0  0  0
 32 34  1  0  0  0  0
 34 35  1  0  0  0  0
 35 36  2  0  0  0  0
 35 37  1  0  0  0  0
 37 38  1  0  0  0  0
 38 39  1  0  0  0  0
  6  7  1  0  0  0  0
 17 19  1  0  0  0  0
 22 23  2  0  0  0  0
 26 28  1  0  0  0  0
 33 34  1  0  0  0  0
M  END
>  <MolRegNo>
626429

>  <m>
=

>  <Value>
800

>  <Unit>
nM

>  <Type>
IC50

>  <pValue>
6.1

>  <Ligand Efficiency>
0

>  <Binding Efficiency>
0

>  <Surface Efficiency>
0

>  <Assay Index>
477539

>  <Assay Category>


>  <Assay Organism>


>  <Target ID>
17045

>  <Target Name>
Cytochrome P450 3A4

>  <Target Organism>
Homo sapiens

>  <Target Description>
Target is a single protein chain

>  <Sequence Accession>
P08684

>  <Reference>
Bioorg Med Chem Lett 20 (10), 3182-3185 (2010)

>  <Pubmed ID>
20399649

>  <DOI>
10.1016/j.bmcl.2010.03.057

$$$$
626521
Actelion Java MolfileCreator 1.0

 40 44  0  0  0  0  0  0  0  0999 V2000
    0.0000   -0.0000   -0.0000 Cl  0  0  0  0  0  0  0  0  0  0  0  0
   -1.3089   -0.7429   -0.0000 C   0  0  0  0  0  0  0  0  0  0  0  0
   -2.6177    0.0236   -0.0000 C   0  0  0  0  0  0  0  0  0  0  0  0
   -1.3207   -2.2168   -0.0000 C   0  0  0  0  0  0  0  0  0  0  0  0
   -3.9266   -0.7193   -0.0000 C   0  0  0  0  0  0  0  0  0  0  0  0
   -2.6295   -2.9597   -0.0000 C   0  0  0  0  0  0  0  0  0  0  0  0
   -3.9384   -2.1932   -0.0000 C   0  0  0  0  0  0  0  0  0  0  0  0
   -5.2354    0.0472   -0.0000 C   0  0  0  0  0  0  0  0  0  0  0  0
   -6.5443   -0.6957   -0.0000 O   0  0  0  0  0  0  0  0  0  0  0  0
   -5.2472    1.5565   -0.0000 C   0  0  0  0  0  0  0  0  0  0  0  0
   -6.5443    2.3111   -0.0000 N   0  0  0  0  0  0  0  0  0  0  0  0
   -6.5561    3.8087   -0.0000 C   0  0  0  0  0  0  0  0  0  0  0  0
   -7.8649    4.5751   -0.0000 C   0  0  0  0  0  0  0  0  0  0  0  0
   -5.2708    4.5751   -0.0000 C   0  0  0  0  0  0  0  0  0  0  0  0
   -7.8767    6.0726   -0.0000 C   0  0  0  0  0  0  0  0  0  0  0  0
   -9.1738    3.8322   -0.0000 C   0  0  0  0  0  0  0  0  0  0  0  0
   -5.2826    6.0726   -0.0000 C   0  0  0  0  0  0  0  0  0  0  0  0
   -9.1856    6.8391   -0.0000 O   0  0  0  0  0  0  0  0  0  0  0  0
   -6.5915    6.8391   -0.0000 N   0  0  0  0  0  0  0  0  0  0  0  0
   -9.3389    2.3583   -0.0000 N   0  0  0  0  0  0  0  0  0  0  0  0
  -10.5534    4.4454   -0.0000 N   0  0  0  0  0  0  0  0  0  0  0  0
  -10.8128    2.0635   -0.0000 C   0  0  0  0  0  0  0  0  0  0  0  0
  -11.5675    3.3488   -0.0000 C   0  0  0  0  0  0  0  0  0  0  0  0
  -11.5793    0.7782   -0.0000 C   0  0  0  0  0  0  0  0  0  0  0  0
  -13.0650    3.3606   -0.0000 C   0  0  0  0  0  0  0  0  0  0  0  0
  -13.0768    0.7900   -0.0000 C   0  0  0  0  0  0  0  0  0  0  0  0
  -10.8364   -0.5070   -0.0000 C   0  0  0  0  0  0  0  0  0  0  0  0
  -13.8315    2.0753   -0.0000 C   0  0  0  0  0  0  0  0  0  0  0  0
  -15.3290    2.0871   -0.0000 N   0  0  0  0  0  0  0  0  0  0  0  0
  -16.0954    0.8018   -0.0000 C   0  0  0  0  0  0  0  0  0  0  0  0
  -16.0954    3.3960   -0.0000 C   0  0  0  0  0  0  0  0  0  0  0  0
  -17.5930    0.8136   -0.0000 C   0  0  0  0  0  0  0  0  0  0  0  0
  -17.5930    3.4077   -0.0000 C   0  0  0  0  0  0  0  0  0  0  0  0
  -18.3594    2.1225   -0.0000 N   0  0  0  0  0  0  0  0  0  0  0  0
  -19.8687    2.1343   -0.0000 C   0  0  0  0  0  0  0  0  0  0  0  0
  -20.6234    0.8608   -0.0000 O   0  0  0  0  0  0  0  0  0  0  0  0
  -20.6234    3.4313   -0.0000 C   0  0  0  0  0  0  0  0  0  0  0  0
  -19.8923    4.7284   -0.0000 C   0  0  0  0  0  0  0  0  0  0  0  0
  -20.6470    6.0255   -0.0000 C   0  0  0  0  0  0  0  0  0  0  0  0
  -19.9159    7.3225   -0.0000 F   0  0  0  0  0  0  0  0  0  0  0  0
  1  2  1  0  0  0  0
  2  3  2  0  0  0  0
  2  4  1  0  0  0  0
  3  5  1  0  0  0  0
  4  6  2  0  0  0  0
  5  7  2  0  0  0  0
  5  8  1  0  0  0  0
  8  9  1  1  0  0  0
  8 10  1  0  0  0  0
 10 11  1  0  0  0  0
 11 12  1  0  0  0  0
 12 13  2  0  0  0  0
 12 14  1  0  0  0  0
 13 15  1  0  0  0  0
 13 16  1  0  0  0  0
 14 17  2  0  0  0  0
 15 18  2  0  0  0  0
 15 19  1  0  0  0  0
 16 20  2  0  0  0  0
 16 21  1  0  0  0  0
 20 22  1  0  0  0  0
 21 23  1  0  0  0  0
 22 24  1  0  0  0  0
 23 25  1  0  0  0  0
 24 26  2  0  0  0  0
 24 27  1  0  0  0  0
 25 28  2  0  0  0  0
 28 29  1  0  0  0  0
 29 30  1  0  0  0  0
 29 31  1  0  0  0  0
 30 32  1  0  0  0  0
 31 33  1  0  0  0  0
 32 34  1  0  0  0  0
 34 35  1  0  0  0  0
 35 36  2  0  0  0  0
 35 37  1  0  0  0  0
 37 38  1  0  0  0  0
 38 39  1  0  0  0  0
 39 40  1  0  0  0  0
  6  7  1  0  0  0  0
 17 19  1  0  0  0  0
 22 23  2  0  0  0  0
 26 28  1  0  0  0  0
 33 34  1  0  0  0  0
M  END
>  <MolRegNo>
626521

>  <m>
=

>  <Value>
800

>  <Unit>
nM

>  <Type>
IC50

>  <pValue>
6.1

>  <Ligand Efficiency>
0

>  <Binding Efficiency>
0

>  <Surface Efficiency>
0

>  <Assay Index>
477539

>  <Assay Category>


>  <Assay Organism>


>  <Target ID>
17045

>  <Target Name>
Cytochrome P450 3A4

>  <Target Organism>
Homo sapiens

>  <Target Description>
Target is a single protein chain

>  <Sequence Accession>
P08684

>  <Reference>
Bioorg Med Chem Lett 20 (10), 3182-3185 (2010)

>  <Pubmed ID>
20399649

>  <DOI>
10.1016/j.bmcl.2010.03.057

$$$$
626522
Actelion Java MolfileCreator 1.0

 41 45  0  0  0  0  0  0  0  0999 V2000
    0.0000   -0.0000   -0.0000 Cl  0  0  0  0  0  0  0  0  0  0  0  0
   -1.3084   -0.7426   -0.0000 C   0  0  0  0  0  0  0  0  0  0  0  0
   -2.6168    0.0236   -0.0000 C   0  0  0  0  0  0  0  0  0  0  0  0
   -1.3202   -2.2161   -0.0000 C   0  0  0  0  0  0  0  0  0  0  0  0
   -3.9253   -0.7190   -0.0000 C   0  0  0  0  0  0  0  0  0  0  0  0
   -2.6286   -2.9587   -0.0000 C   0  0  0  0  0  0  0  0  0  0  0  0
   -3.9370   -2.1925   -0.0000 C   0  0  0  0  0  0  0  0  0  0  0  0
   -5.2337    0.0472   -0.0000 C   0  0  0  0  0  0  0  0  0  0  0  0
   -6.5421   -0.6955   -0.0000 O   0  0  0  0  0  0  0  0  0  0  0  0
   -5.2455    1.5560   -0.0000 C   0  0  0  0  0  0  0  0  0  0  0  0
   -6.5421    2.3104   -0.0000 N   0  0  0  0  0  0  0  0  0  0  0  0
   -6.5539    3.8074   -0.0000 C   0  0  0  0  0  0  0  0  0  0  0  0
   -7.8623    4.5736   -0.0000 C   0  0  0  0  0  0  0  0  0  0  0  0
   -5.2690    4.5736   -0.0000 C   0  0  0  0  0  0  0  0  0  0  0  0
   -7.8741    6.0706   -0.0000 C   0  0  0  0  0  0  0  0  0  0  0  0
   -9.1707    3.8310   -0.0000 C   0  0  0  0  0  0  0  0  0  0  0  0
   -5.2808    6.0706   -0.0000 C   0  0  0  0  0  0  0  0  0  0  0  0
   -9.1825    6.8368   -0.0000 O   0  0  0  0  0  0  0  0  0  0  0  0
   -6.5892    6.8368   -0.0000 N   0  0  0  0  0  0  0  0  0  0  0  0
   -9.3357    2.3575   -0.0000 N   0  0  0  0  0  0  0  0  0  0  0  0
  -10.5498    4.4557   -0.0000 N   0  0  0  0  0  0  0  0  0  0  0  0
  -10.8092    2.0628   -0.0000 C   0  0  0  0  0  0  0  0  0  0  0  0
  -11.5636    3.3594   -0.0000 C   0  0  0  0  0  0  0  0  0  0  0  0
  -11.5754    0.7780   -0.0000 C   0  0  0  0  0  0  0  0  0  0  0  0
  -13.0606    3.3712   -0.0000 C   0  0  0  0  0  0  0  0  0  0  0  0
  -13.0724    0.7898   -0.0000 C   0  0  0  0  0  0  0  0  0  0  0  0
  -10.8327   -0.5069   -0.0000 C   0  0  0  0  0  0  0  0  0  0  0  0
  -13.8268    2.0864   -0.0000 C   0  0  0  0  0  0  0  0  0  0  0  0
  -15.3238    2.0982   -0.0000 N   0  0  0  0  0  0  0  0  0  0  0  0
  -16.0900    0.8133   -0.0000 C   0  0  0  0  0  0  0  0  0  0  0  0
  -16.0900    3.4066   -0.0000 C   0  0  0  0  0  0  0  0  0  0  0  0
  -17.5870    0.8251   -0.0000 C   0  0  0  0  0  0  0  0  0  0  0  0
  -17.5870    3.4184   -0.0000 C   0  0  0  0  0  0  0  0  0  0  0  0
  -18.3532    2.1335   -0.0000 N   0  0  0  0  0  0  0  0  0  0  0  0
  -19.8620    2.1453   -0.0000 C   0  0  0  0  0  0  0  0  0  0  0  0
  -20.6164    0.8723   -0.0000 O   0  0  0  0  0  0  0  0  0  0  0  0
  -20.6164    3.4420   -0.0000 O   0  0  0  0  0  0  0  0  0  0  0  0
  -22.1134    3.4537   -0.0000 C   0  0  0  0  0  0  0  0  0  0  0  0
  -22.8678    4.7504   -0.0000 C   0  0  0  0  0  0  0  0  0  0  0  0
  -22.8678    2.1807   -0.0000 C   0  0  0  0  0  0  0  0  0  0  0  0
  -23.6104    3.4655   -0.0000 C   0  0  0  0  0  0  0  0  0  0  0  0
  1  2  1  0  0  0  0
  2  3  2  0  0  0  0
  2  4  1  0  0  0  0
  3  5  1  0  0  0  0
  4  6  2  0  0  0  0
  5  7  2  0  0  0  0
  5  8  1  0  0  0  0
  8  9  1  1  0  0  0
  8 10  1  0  0  0  0
 10 11  1  0  0  0  0
 11 12  1  0  0  0  0
 12 13  2  0  0  0  0
 12 14  1  0  0  0  0
 13 15  1  0  0  0  0
 13 16  1  0  0  0  0
 14 17  2  0  0  0  0
 15 18  2  0  0  0  0
 15 19  1  0  0  0  0
 16 20  2  0  0  0  0
 16 21  1  0  0  0  0
 20 22  1  0  0  0  0
 21 23  1  0  0  0  0
 22 24  1  0  0  0  0
 23 25  1  0  0  0  0
 24 26  2  0  0  0  0
 24 27  1  0  0  0  0
 25 28  2  0  0  0  0
 28 29  1  0  0  0  0
 29 30  1  0  0  0  0
 29 31  1  0  0  0  0
 30 32  1  0  0  0  0
 31 33  1  0  0  0  0
 32 34  1  0  0  0  0
 34 35  1  0  0  0  0
 35 36  2  0  0  0  0
 35 37  1  0  0  0  0
 37 38  1  0  0  0  0
 38 39  1  0  0  0  0
 38 40  1  0  0  0  0
 38 41  1  0  0  0  0
  6  7  1  0  0  0  0
 17 19  1  0  0  0  0
 22 23  2  0  0  0  0
 26 28  1  0  0  0  0
 33 34  1  0  0  0  0
M  END
>  <MolRegNo>
626522

>  <m>
=

>  <Value>
1900

>  <Unit>
nM

>  <Type>
IC50

>  <pValue>
5.72

>  <Ligand Efficiency>
0

>  <Binding Efficiency>
0

>  <Surface Efficiency>
0

>  <Assay Index>
477539

>  <Assay Category>


>  <Assay Organism>


>  <Target ID>
17045

>  <Target Name>
Cytochrome P450 3A4

>  <Target Organism>
Homo sapiens

>  <Target Description>
Target is a single protein chain

>  <Sequence Accession>
P08684

>  <Reference>
Bioorg Med Chem Lett 20 (10), 3182-3185 (2010)

>  <Pubmed ID>
20399649

>  <DOI>
10.1016/j.bmcl.2010.03.057

$$$$
626523
Actelion Java MolfileCreator 1.0

 38 42  0  0  0  0  0  0  0  0999 V2000
    0.0000   -0.0000   -0.0000 Cl  0  0  0  0  0  0  0  0  0  0  0  0
   -1.3085   -0.7426   -0.0000 C   0  0  0  0  0  0  0  0  0  0  0  0
   -2.6169    0.0236   -0.0000 C   0  0  0  0  0  0  0  0  0  0  0  0
   -1.3202   -2.2161   -0.0000 C   0  0  0  0  0  0  0  0  0  0  0  0
   -3.9254   -0.7191   -0.0000 C   0  0  0  0  0  0  0  0  0  0  0  0
   -2.6287   -2.9588   -0.0000 C   0  0  0  0  0  0  0  0  0  0  0  0
   -3.9372   -2.1926   -0.0000 C   0  0  0  0  0  0  0  0  0  0  0  0
   -5.2338    0.0472   -0.0000 C   0  0  0  0  0  0  0  0  0  0  0  0
   -6.5423   -0.6955   -0.0000 O   0  0  0  0  0  0  0  0  0  0  0  0
   -5.2456    1.5560   -0.0000 C   0  0  0  0  0  0  0  0  0  0  0  0
   -6.5423    2.3104   -0.0000 N   0  0  0  0  0  0  0  0  0  0  0  0
   -6.5541    3.8075   -0.0000 C   0  0  0  0  0  0  0  0  0  0  0  0
   -7.8626    4.5737   -0.0000 C   0  0  0  0  0  0  0  0  0  0  0  0
   -5.2692    4.5737   -0.0000 C   0  0  0  0  0  0  0  0  0  0  0  0
   -7.8743    6.0708   -0.0000 C   0  0  0  0  0  0  0  0  0  0  0  0
   -9.1710    3.8311   -0.0000 C   0  0  0  0  0  0  0  0  0  0  0  0
   -5.2810    6.0708   -0.0000 C   0  0  0  0  0  0  0  0  0  0  0  0
   -9.1828    6.8370   -0.0000 O   0  0  0  0  0  0  0  0  0  0  0  0
   -6.5895    6.8370   -0.0000 N   0  0  0  0  0  0  0  0  0  0  0  0
   -9.3361    2.3576   -0.0000 N   0  0  0  0  0  0  0  0  0  0  0  0
  -10.5502    4.4441   -0.0000 N   0  0  0  0  0  0  0  0  0  0  0  0
  -10.8095    2.0629   -0.0000 C   0  0  0  0  0  0  0  0  0  0  0  0
  -11.5640    3.3478   -0.0000 C   0  0  0  0  0  0  0  0  0  0  0  0
  -11.5758    0.7780   -0.0000 C   0  0  0  0  0  0  0  0  0  0  0  0
  -13.0610    3.3596   -0.0000 C   0  0  0  0  0  0  0  0  0  0  0  0
  -13.0728    0.7898   -0.0000 C   0  0  0  0  0  0  0  0  0  0  0  0
  -10.8331   -0.5069   -0.0000 C   0  0  0  0  0  0  0  0  0  0  0  0
  -13.8273    2.0747   -0.0000 C   0  0  0  0  0  0  0  0  0  0  0  0
  -15.3243    2.0865   -0.0000 N   0  0  0  0  0  0  0  0  0  0  0  0
  -16.0905    0.8016   -0.0000 C   0  0  0  0  0  0  0  0  0  0  0  0
  -16.0905    3.3949   -0.0000 C   0  0  0  0  0  0  0  0  0  0  0  0
  -17.5876    0.8134   -0.0000 C   0  0  0  0  0  0  0  0  0  0  0  0
  -17.5876    3.4067   -0.0000 C   0  0  0  0  0  0  0  0  0  0  0  0
  -18.3538    2.1218   -0.0000 N   0  0  0  0  0  0  0  0  0  0  0  0
  -19.8627    2.1336   -0.0000 C   0  0  0  0  0  0  0  0  0  0  0  0
  -20.6171    0.8605   -0.0000 O   0  0  0  0  0  0  0  0  0  0  0  0
  -20.6171    3.4303   -0.0000 O   0  0  0  0  0  0  0  0  0  0  0  0
  -22.1142    3.4421   -0.0000 C   0  0  0  0  0  0  0  0  0  0  0  0
  1  2  1  0  0  0  0
  2  3  2  0  0  0  0
  2  4  1  0  0  0  0
  3  5  1  0  0  0  0
  4  6  2  0  0  0  0
  5  7  2  0  0  0  0
  5  8  1  0  0  0  0
  8  9  1  1  0  0  0
  8 10  1  0  0  0  0
 10 11  1  0  0  0  0
 11 12  1  0  0  0  0
 12 13  2  0  0  0  0
 12 14  1  0  0  0  0
 13 15  1  0  0  0  0
 13 16  1  0  0  0  0
 14 17  2  0  0  0  0
 15 18  2  0  0  0  0
 15 19  1  0  0  0  0
 16 20  2  0  0  0  0
 16 21  1  0  0  0  0
 20 22  1  0  0  0  0
 21 23  1  0  0  0  0
 22 24  1  0  0  0  0
 23 25  1  0  0  0  0
 24 26  2  0  0  0  0
 24 27  1  0  0  0  0
 25 28  2  0  0  0  0
 28 29  1  0  0  0  0
 29 30  1  0  0  0  0
 29 31  1  0  0  0  0
 30 32  1  0  0  0  0
 31 33  1  0  0  0  0
 32 34  1  0  0  0  0
 34 35  1  0  0  0  0
 35 36  2  0  0  0  0
 35 37  1  0  0  0  0
 37 38  1  0  0  0  0
  6  7  1  0  0  0  0
 17 19  1  0  0  0  0
 22 23  2  0  0  0  0
 26 28  1  0  0  0  0
 33 34  1  0  0  0  0
M  END
>  <MolRegNo>
626523

>  <m>
=

>  <Value>
700

>  <Unit>
nM

>  <Type>
IC50

>  <pValue>
6.16

>  <Ligand Efficiency>
0

>  <Binding Efficiency>
0

>  <Surface Efficiency>
0

>  <Assay Index>
477539

>  <Assay Category>


>  <Assay Organism>


>  <Target ID>
17045

>  <Target Name>
Cytochrome P450 3A4

>  <Target Organism>
Homo sapiens

>  <Target Description>
Target is a single protein chain

>  <Sequence Accession>
P08684

>  <Reference>
Bioorg Med Chem Lett 20 (10), 3182-3185 (2010)

>  <Pubmed ID>
20399649

>  <DOI>
10.1016/j.bmcl.2010.03.057

$$$$
626524
Actelion Java MolfileCreator 1.0

 39 43  0  0  0  0  0  0  0  0999 V2000
    0.0000   -0.0000   -0.0000 Cl  0  0  0  0  0  0  0  0  0  0  0  0
   -1.3079   -0.7423   -0.0000 C   0  0  0  0  0  0  0  0  0  0  0  0
   -2.6159    0.0236   -0.0000 C   0  0  0  0  0  0  0  0  0  0  0  0
   -1.3197   -2.2153   -0.0000 C   0  0  0  0  0  0  0  0  0  0  0  0
   -3.9238   -0.7188   -0.0000 C   0  0  0  0  0  0  0  0  0  0  0  0
   -2.6277   -2.9576   -0.0000 C   0  0  0  0  0  0  0  0  0  0  0  0
   -3.9356   -2.1917   -0.0000 C   0  0  0  0  0  0  0  0  0  0  0  0
   -5.2318    0.0471   -0.0000 C   0  0  0  0  0  0  0  0  0  0  0  0
   -6.5397   -0.6952   -0.0000 O   0  0  0  0  0  0  0  0  0  0  0  0
   -5.2436    1.5554   -0.0000 C   0  0  0  0  0  0  0  0  0  0  0  0
   -6.5397    2.3095   -0.0000 N   0  0  0  0  0  0  0  0  0  0  0  0
   -6.5515    3.8060   -0.0000 C   0  0  0  0  0  0  0  0  0  0  0  0
   -7.8595    4.5719   -0.0000 C   0  0  0  0  0  0  0  0  0  0  0  0
   -5.2671    4.5719   -0.0000 C   0  0  0  0  0  0  0  0  0  0  0  0
   -7.8713    6.0684   -0.0000 C   0  0  0  0  0  0  0  0  0  0  0  0
   -9.1674    3.8296   -0.0000 C   0  0  0  0  0  0  0  0  0  0  0  0
   -5.2789    6.0684   -0.0000 C   0  0  0  0  0  0  0  0  0  0  0  0
   -9.1792    6.8343   -0.0000 O   0  0  0  0  0  0  0  0  0  0  0  0
   -6.5869    6.8343   -0.0000 N   0  0  0  0  0  0  0  0  0  0  0  0
   -9.3324    2.3567   -0.0000 N   0  0  0  0  0  0  0  0  0  0  0  0
  -10.5461    4.4541   -0.0000 N   0  0  0  0  0  0  0  0  0  0  0  0
  -10.8053    2.0621   -0.0000 C   0  0  0  0  0  0  0  0  0  0  0  0
  -11.5594    3.3582   -0.0000 C   0  0  0  0  0  0  0  0  0  0  0  0
  -11.5712    0.7777   -0.0000 C   0  0  0  0  0  0  0  0  0  0  0  0
  -13.0559    3.3700   -0.0000 C   0  0  0  0  0  0  0  0  0  0  0  0
  -13.0677    0.7895   -0.0000 C   0  0  0  0  0  0  0  0  0  0  0  0
  -10.8289   -0.5067   -0.0000 C   0  0  0  0  0  0  0  0  0  0  0  0
  -13.8218    2.0856   -0.0000 C   0  0  0  0  0  0  0  0  0  0  0  0
  -15.3183    2.0974   -0.0000 N   0  0  0  0  0  0  0  0  0  0  0  0
  -16.0842    0.8130   -0.0000 C   0  0  0  0  0  0  0  0  0  0  0  0
  -16.0842    3.4054   -0.0000 C   0  0  0  0  0  0  0  0  0  0  0  0
  -17.5807    0.8248   -0.0000 C   0  0  0  0  0  0  0  0  0  0  0  0
  -17.5807    3.4172   -0.0000 C   0  0  0  0  0  0  0  0  0  0  0  0
  -18.3466    2.1328   -0.0000 N   0  0  0  0  0  0  0  0  0  0  0  0
  -19.8549    2.1446   -0.0000 C   0  0  0  0  0  0  0  0  0  0  0  0
  -20.6090    0.8720   -0.0000 O   0  0  0  0  0  0  0  0  0  0  0  0
  -20.6090    3.4407   -0.0000 O   0  0  0  0  0  0  0  0  0  0  0  0
  -22.1055    3.4525   -0.0000 C   0  0  0  0  0  0  0  0  0  0  0  0
  -22.8596    4.7487   -0.0000 C   0  0  0  0  0  0  0  0  0  0  0  0
  1  2  1  0  0  0  0
  2  3  2  0  0  0  0
  2  4  1  0  0  0  0
  3  5  1  0  0  0  0
  4  6  2  0  0  0  0
  5  7  2  0  0  0  0
  5  8  1  0  0  0  0
  8  9  1  1  0  0  0
  8 10  1  0  0  0  0
 10 11  1  0  0  0  0
 11 12  1  0  0  0  0
 12 13  2  0  0  0  0
 12 14  1  0  0  0  0
 13 15  1  0  0  0  0
 13 16  1  0  0  0  0
 14 17  2  0  0  0  0
 15 18  2  0  0  0  0
 15 19  1  0  0  0  0
 16 20  2  0  0  0  0
 16 21  1  0  0  0  0
 20 22  1  0  0  0  0
 21 23  1  0  0  0  0
 22 24  1  0  0  0  0
 23 25  1  0  0  0  0
 24 26  2  0  0  0  0
 24 27  1  0  0  0  0
 25 28  2  0  0  0  0
 28 29  1  0  0  0  0
 29 30  1  0  0  0  0
 29 31  1  0  0  0  0
 30 32  1  0  0  0  0
 31 33  1  0  0  0  0
 32 34  1  0  0  0  0
 34 35  1  0  0  0  0
 35 36  2  0  0  0  0
 35 37  1  0  0  0  0
 37 38  1  0  0  0  0
 38 39  1  0  0  0  0
  6  7  1  0  0  0  0
 17 19  1  0  0  0  0
 22 23  2  0  0  0  0
 26 28  1  0  0  0  0
 33 34  1  0  0  0  0
M  END
>  <MolRegNo>
626524

>  <m>
=

>  <Value>
1000

>  <Unit>
nM

>  <Type>
IC50

>  <pValue>
6

>  <Ligand Efficiency>
0

>  <Binding Efficiency>
0

>  <Surface Efficiency>
0

>  <Assay Index>
477539

>  <Assay Category>


>  <Assay Organism>


>  <Target ID>
17045

>  <Target Name>
Cytochrome P450 3A4

>  <Target Organism>
Homo sapiens

>  <Target Description>
Target is a single protein chain

>  <Sequence Accession>
P08684

>  <Reference>
Bioorg Med Chem Lett 20 (10), 3182-3185 (2010)

>  <Pubmed ID>
20399649

>  <DOI>
10.1016/j.bmcl.2010.03.057

$$$$
625283
Actelion Java MolfileCreator 1.0

 38 42  0  0  0  0  0  0  0  0999 V2000
    0.0000   -0.0000   -0.0000 Cl  0  0  0  0  0  0  0  0  0  0  0  0
   -1.3085   -0.7426   -0.0000 C   0  0  0  0  0  0  0  0  0  0  0  0
   -2.6169    0.0236   -0.0000 C   0  0  0  0  0  0  0  0  0  0  0  0
   -1.3202   -2.2161   -0.0000 C   0  0  0  0  0  0  0  0  0  0  0  0
   -3.9254   -0.7191   -0.0000 C   0  0  0  0  0  0  0  0  0  0  0  0
   -2.6287   -2.9588   -0.0000 C   0  0  0  0  0  0  0  0  0  0  0  0
   -3.9372   -2.1926   -0.0000 C   0  0  0  0  0  0  0  0  0  0  0  0
   -5.2338    0.0472   -0.0000 C   0  0  0  0  0  0  0  0  0  0  0  0
   -6.5423   -0.6955   -0.0000 O   0  0  0  0  0  0  0  0  0  0  0  0
   -5.2456    1.5560   -0.0000 C   0  0  0  0  0  0  0  0  0  0  0  0
   -6.5423    2.3104   -0.0000 N   0  0  0  0  0  0  0  0  0  0  0  0
   -6.5541    3.8075   -0.0000 C   0  0  0  0  0  0  0  0  0  0  0  0
   -7.8626    4.5737   -0.0000 C   0  0  0  0  0  0  0  0  0  0  0  0
   -5.2692    4.5737   -0.0000 C   0  0  0  0  0  0  0  0  0  0  0  0
   -7.8743    6.0708   -0.0000 C   0  0  0  0  0  0  0  0  0  0  0  0
   -9.1710    3.8311   -0.0000 C   0  0  0  0  0  0  0  0  0  0  0  0
   -5.2810    6.0708   -0.0000 C   0  0  0  0  0  0  0  0  0  0  0  0
   -9.1828    6.8370   -0.0000 O   0  0  0  0  0  0  0  0  0  0  0  0
   -6.5895    6.8370   -0.0000 N   0  0  0  0  0  0  0  0  0  0  0  0
   -9.3361    2.3576   -0.0000 N   0  0  0  0  0  0  0  0  0  0  0  0
  -10.5502    4.4441   -0.0000 N   0  0  0  0  0  0  0  0  0  0  0  0
  -10.8095    2.0629   -0.0000 C   0  0  0  0  0  0  0  0  0  0  0  0
  -11.5640    3.3478   -0.0000 C   0  0  0  0  0  0  0  0  0  0  0  0
  -11.5758    0.7780   -0.0000 C   0  0  0  0  0  0  0  0  0  0  0  0
  -13.0610    3.3596   -0.0000 C   0  0  0  0  0  0  0  0  0  0  0  0
  -13.0728    0.7898   -0.0000 C   0  0  0  0  0  0  0  0  0  0  0  0
  -10.8331   -0.5069   -0.0000 C   0  0  0  0  0  0  0  0  0  0  0  0
  -13.8273    2.0747   -0.0000 C   0  0  0  0  0  0  0  0  0  0  0  0
  -15.3243    2.0865   -0.0000 N   0  0  0  0  0  0  0  0  0  0  0  0
  -16.0905    0.8016   -0.0000 C   0  0  0  0  0  0  0  0  0  0  0  0
  -16.0905    3.3949   -0.0000 C   0  0  0  0  0  0  0  0  0  0  0  0
  -17.5876    0.8134   -0.0000 C   0  0  0  0  0  0  0  0  0  0  0  0
  -17.5876    3.4067   -0.0000 C   0  0  0  0  0  0  0  0  0  0  0  0
  -18.3538    2.1218   -0.0000 N   0  0  0  0  0  0  0  0  0  0  0  0
  -19.8627    2.1336   -0.0000 S   0  0  0  0  0  0  0  0  0  0  0  0
  -20.6171    3.4303   -0.0000 O   0  0  0  0  0  0  0  0  0  0  0  0
  -20.6171    0.8605   -0.0000 O   0  0  0  0  0  0  0  0  0  0  0  0
  -21.3598    2.1454   -0.0000 C   0  0  0  0  0  0  0  0  0  0  0  0
  1  2  1  0  0  0  0
  2  3  2  0  0  0  0
  2  4  1  0  0  0  0
  3  5  1  0  0  0  0
  4  6  2  0  0  0  0
  5  7  2  0  0  0  0
  5  8  1  0  0  0  0
  8  9  1  1  0  0  0
  8 10  1  0  0  0  0
 10 11  1  0  0  0  0
 11 12  1  0  0  0  0
 12 13  2  0  0  0  0
 12 14  1  0  0  0  0
 13 15  1  0  0  0  0
 13 16  1  0  0  0  0
 14 17  2  0  0  0  0
 15 18  2  0  0  0  0
 15 19  1  0  0  0  0
 16 20  2  0  0  0  0
 16 21  1  0  0  0  0
 20 22  1  0  0  0  0
 21 23  1  0  0  0  0
 22 24  1  0  0  0  0
 23 25  1  0  0  0  0
 24 26  2  0  0  0  0
 24 27  1  0  0  0  0
 25 28  2  0  0  0  0
 28 29  1  0  0  0  0
 29 30  1  0  0  0  0
 29 31  1  0  0  0  0
 30 32  1  0  0  0  0
 31 33  1  0  0  0  0
 32 34  1  0  0  0  0
 34 35  1  0  0  0  0
 35 36  2  0  0  0  0
 35 37  2  0  0  0  0
 35 38  1  0  0  0  0
  6  7  1  0  0  0  0
 17 19  1  0  0  0  0
 22 23  2  0  0  0  0
 26 28  1  0  0  0  0
 33 34  1  0  0  0  0
M  END
>  <MolRegNo>
625283

>  <m>
=

>  <Value>
600

>  <Unit>
nM

>  <Type>
IC50

>  <pValue>
6.22

>  <Ligand Efficiency>
0

>  <Binding Efficiency>
0

>  <Surface Efficiency>
0

>  <Assay Index>
477539

>  <Assay Category>


>  <Assay Organism>


>  <Target ID>
17045

>  <Target Name>
Cytochrome P450 3A4

>  <Target Organism>
Homo sapiens

>  <Target Description>
Target is a single protein chain

>  <Sequence Accession>
P08684

>  <Reference>
Bioorg Med Chem Lett 20 (10), 3182-3185 (2010)

>  <Pubmed ID>
20399649

>  <DOI>
10.1016/j.bmcl.2010.03.057

$$$$
625284
Actelion Java MolfileCreator 1.0

 37 41  0  0  0  0  0  0  0  0999 V2000
    0.0000   -0.0000   -0.0000 Cl  0  0  0  0  0  0  0  0  0  0  0  0
   -1.3080   -0.7424   -0.0000 C   0  0  0  0  0  0  0  0  0  0  0  0
   -2.6161    0.0236   -0.0000 C   0  0  0  0  0  0  0  0  0  0  0  0
   -1.3198   -2.2154   -0.0000 C   0  0  0  0  0  0  0  0  0  0  0  0
   -3.9241   -0.7188   -0.0000 C   0  0  0  0  0  0  0  0  0  0  0  0
   -2.6279   -2.9578   -0.0000 C   0  0  0  0  0  0  0  0  0  0  0  0
   -3.9359   -2.1918   -0.0000 C   0  0  0  0  0  0  0  0  0  0  0  0
   -5.2321    0.0471   -0.0000 C   0  0  0  0  0  0  0  0  0  0  0  0
   -6.5402   -0.6953   -0.0000 O   0  0  0  0  0  0  0  0  0  0  0  0
   -5.2439    1.5555   -0.0000 C   0  0  0  0  0  0  0  0  0  0  0  0
   -6.5402    2.3097   -0.0000 N   0  0  0  0  0  0  0  0  0  0  0  0
   -6.5519    3.8063   -0.0000 C   0  0  0  0  0  0  0  0  0  0  0  0
   -7.8600    4.5722   -0.0000 C   0  0  0  0  0  0  0  0  0  0  0  0
   -5.2675    4.5722   -0.0000 C   0  0  0  0  0  0  0  0  0  0  0  0
   -7.8718    6.0688   -0.0000 C   0  0  0  0  0  0  0  0  0  0  0  0
   -9.1680    3.8298   -0.0000 C   0  0  0  0  0  0  0  0  0  0  0  0
   -5.2793    6.0688   -0.0000 C   0  0  0  0  0  0  0  0  0  0  0  0
   -9.1798    6.8348   -0.0000 O   0  0  0  0  0  0  0  0  0  0  0  0
   -6.5873    6.8348   -0.0000 N   0  0  0  0  0  0  0  0  0  0  0  0
   -9.3330    2.3568   -0.0000 N   0  0  0  0  0  0  0  0  0  0  0  0
  -10.5468    4.4426   -0.0000 N   0  0  0  0  0  0  0  0  0  0  0  0
  -10.8060    2.0622   -0.0000 C   0  0  0  0  0  0  0  0  0  0  0  0
  -11.5602    3.3467   -0.0000 C   0  0  0  0  0  0  0  0  0  0  0  0
  -11.5720    0.7777   -0.0000 C   0  0  0  0  0  0  0  0  0  0  0  0
  -13.0568    3.3585   -0.0000 C   0  0  0  0  0  0  0  0  0  0  0  0
  -13.0685    0.7895   -0.0000 C   0  0  0  0  0  0  0  0  0  0  0  0
  -10.8296   -0.5067   -0.0000 C   0  0  0  0  0  0  0  0  0  0  0  0
  -13.8227    2.0740   -0.0000 C   0  0  0  0  0  0  0  0  0  0  0  0
  -15.3193    2.0858   -0.0000 N   0  0  0  0  0  0  0  0  0  0  0  0
  -16.0853    0.8013   -0.0000 C   0  0  0  0  0  0  0  0  0  0  0  0
  -16.0853    3.3938   -0.0000 C   0  0  0  0  0  0  0  0  0  0  0  0
  -17.5819    0.8131   -0.0000 C   0  0  0  0  0  0  0  0  0  0  0  0
  -17.5819    3.4056   -0.0000 C   0  0  0  0  0  0  0  0  0  0  0  0
  -18.3478    2.1211   -0.0000 N   0  0  0  0  0  0  0  0  0  0  0  0
  -19.8562    2.1329   -0.0000 C   0  0  0  0  0  0  0  0  0  0  0  0
  -20.6104    3.4292   -0.0000 C   0  0  0  0  0  0  0  0  0  0  0  0
  -22.1069    3.4410   -0.0000 O   0  0  0  0  0  0  0  0  0  0  0  0
  1  2  1  0  0  0  0
  2  3  2  0  0  0  0
  2  4  1  0  0  0  0
  3  5  1  0  0  0  0
  4  6  2  0  0  0  0
  5  7  2  0  0  0  0
  5  8  1  0  0  0  0
  8  9  1  1  0  0  0
  8 10  1  0  0  0  0
 10 11  1  0  0  0  0
 11 12  1  0  0  0  0
 12 13  2  0  0  0  0
 12 14  1  0  0  0  0
 13 15  1  0  0  0  0
 13 16  1  0  0  0  0
 14 17  2  0  0  0  0
 15 18  2  0  0  0  0
 15 19  1  0  0  0  0
 16 20  2  0  0  0  0
 16 21  1  0  0  0  0
 20 22  1  0  0  0  0
 21 23  1  0  0  0  0
 22 24  1  0  0  0  0
 23 25  1  0  0  0  0
 24 26  2  0  0  0  0
 24 27  1  0  0  0  0
 25 28  2  0  0  0  0
 28 29  1  0  0  0  0
 29 30  1  0  0  0  0
 29 31  1  0  0  0  0
 30 32  1  0  0  0  0
 31 33  1  0  0  0  0
 32 34  1  0  0  0  0
 34 35  1  0  0  0  0
 35 36  1  0  0  0  0
 36 37  1  0  0  0  0
  6  7  1  0  0  0  0
 17 19  1  0  0  0  0
 22 23  2  0  0  0  0
 26 28  1  0  0  0  0
 33 34  1  0  0  0  0
M  END
>  <MolRegNo>
625284

>  <m>
=

>  <Value>
3300

>  <Unit>
nM

>  <Type>
IC50

>  <pValue>
5.48

>  <Ligand Efficiency>
0

>  <Binding Efficiency>
0

>  <Surface Efficiency>
0

>  <Assay Index>
477539

>  <Assay Category>


>  <Assay Organism>


>  <Target ID>
17045

>  <Target Name>
Cytochrome P450 3A4

>  <Target Organism>
Homo sapiens

>  <Target Description>
Target is a single protein chain

>  <Sequence Accession>
P08684

>  <Reference>
Bioorg Med Chem Lett 20 (10), 3182-3185 (2010)

>  <Pubmed ID>
20399649

>  <DOI>
10.1016/j.bmcl.2010.03.057

$$$$
625285
Actelion Java MolfileCreator 1.0

 38 42  0  0  0  0  0  0  0  0999 V2000
    0.0000   -0.0000   -0.0000 Cl  0  0  0  0  0  0  0  0  0  0  0  0
   -1.3075   -0.7421   -0.0000 C   0  0  0  0  0  0  0  0  0  0  0  0
   -2.6150    0.0236   -0.0000 C   0  0  0  0  0  0  0  0  0  0  0  0
   -1.3193   -2.2145   -0.0000 C   0  0  0  0  0  0  0  0  0  0  0  0
   -3.9226   -0.7185   -0.0000 C   0  0  0  0  0  0  0  0  0  0  0  0
   -2.6268   -2.9566   -0.0000 C   0  0  0  0  0  0  0  0  0  0  0  0
   -3.9343   -2.1910   -0.0000 C   0  0  0  0  0  0  0  0  0  0  0  0
   -5.2301    0.0471   -0.0000 C   0  0  0  0  0  0  0  0  0  0  0  0
   -6.5376   -0.6950   -0.0000 O   0  0  0  0  0  0  0  0  0  0  0  0
   -5.2418    1.5549   -0.0000 C   0  0  0  0  0  0  0  0  0  0  0  0
   -6.5376    2.3088   -0.0000 N   0  0  0  0  0  0  0  0  0  0  0  0
   -6.5494    3.8048   -0.0000 C   0  0  0  0  0  0  0  0  0  0  0  0
   -7.8569    4.5704   -0.0000 C   0  0  0  0  0  0  0  0  0  0  0  0
   -5.2654    4.5704   -0.0000 C   0  0  0  0  0  0  0  0  0  0  0  0
   -7.8687    6.0664   -0.0000 C   0  0  0  0  0  0  0  0  0  0  0  0
   -9.1644    3.8283   -0.0000 C   0  0  0  0  0  0  0  0  0  0  0  0
   -5.2772    6.0664   -0.0000 C   0  0  0  0  0  0  0  0  0  0  0  0
   -9.1762    6.8321   -0.0000 O   0  0  0  0  0  0  0  0  0  0  0  0
   -6.5847    6.8321   -0.0000 N   0  0  0  0  0  0  0  0  0  0  0  0
   -9.3293    2.3559   -0.0000 N   0  0  0  0  0  0  0  0  0  0  0  0
  -10.5426    4.4526   -0.0000 N   0  0  0  0  0  0  0  0  0  0  0  0
  -10.8017    2.0614   -0.0000 C   0  0  0  0  0  0  0  0  0  0  0  0
  -11.5556    3.3571   -0.0000 C   0  0  0  0  0  0  0  0  0  0  0  0
  -11.5674    0.7774   -0.0000 C   0  0  0  0  0  0  0  0  0  0  0  0
  -13.0516    3.3689   -0.0000 C   0  0  0  0  0  0  0  0  0  0  0  0
  -13.0634    0.7892   -0.0000 C   0  0  0  0  0  0  0  0  0  0  0  0
  -10.8253   -0.5065   -0.0000 C   0  0  0  0  0  0  0  0  0  0  0  0
  -13.8173    2.0850   -0.0000 C   0  0  0  0  0  0  0  0  0  0  0  0
  -15.3133    2.0967   -0.0000 N   0  0  0  0  0  0  0  0  0  0  0  0
  -16.0789    0.8128   -0.0000 C   0  0  0  0  0  0  0  0  0  0  0  0
  -16.0789    3.4043   -0.0000 C   0  0  0  0  0  0  0  0  0  0  0  0
  -17.5749    0.8246   -0.0000 C   0  0  0  0  0  0  0  0  0  0  0  0
  -17.5749    3.4160   -0.0000 C   0  0  0  0  0  0  0  0  0  0  0  0
  -18.3406    2.1321   -0.0000 N   0  0  0  0  0  0  0  0  0  0  0  0
  -19.8483    2.1439   -0.0000 C   0  0  0  0  0  0  0  0  0  0  0  0
  -20.6022    3.4396   -0.0000 C   0  0  0  0  0  0  0  0  0  0  0  0
  -22.0982    3.4514   -0.0000 C   0  0  0  0  0  0  0  0  0  0  0  0
  -22.8521    4.7471   -0.0000 O   0  0  0  0  0  0  0  0  0  0  0  0
  1  2  1  0  0  0  0
  2  3  2  0  0  0  0
  2  4  1  0  0  0  0
  3  5  1  0  0  0  0
  4  6  2  0  0  0  0
  5  7  2  0  0  0  0
  5  8  1  0  0  0  0
  8  9  1  1  0  0  0
  8 10  1  0  0  0  0
 10 11  1  0  0  0  0
 11 12  1  0  0  0  0
 12 13  2  0  0  0  0
 12 14  1  0  0  0  0
 13 15  1  0  0  0  0
 13 16  1  0  0  0  0
 14 17  2  0  0  0  0
 15 18  2  0  0  0  0
 15 19  1  0  0  0  0
 16 20  2  0  0  0  0
 16 21  1  0  0  0  0
 20 22  1  0  0  0  0
 21 23  1  0  0  0  0
 22 24  1  0  0  0  0
 23 25  1  0  0  0  0
 24 26  2  0  0  0  0
 24 27  1  0  0  0  0
 25 28  2  0  0  0  0
 28 29  1  0  0  0  0
 29 30  1  0  0  0  0
 29 31  1  0  0  0  0
 30 32  1  0  0  0  0
 31 33  1  0  0  0  0
 32 34  1  0  0  0  0
 34 35  1  0  0  0  0
 35 36  1  0  0  0  0
 36 37  1  0  0  0  0
 37 38  1  0  0  0  0
  6  7  1  0  0  0  0
 17 19  1  0  0  0  0
 22 23  2  0  0  0  0
 26 28  1  0  0  0  0
 33 34  1  0  0  0  0
M  END
>  <MolRegNo>
625285

>  <m>
=

>  <Value>
1900

>  <Unit>
nM

>  <Type>
IC50

>  <pValue>
5.72

>  <Ligand Efficiency>
0

>  <Binding Efficiency>
0

>  <Surface Efficiency>
0

>  <Assay Index>
477539

>  <Assay Category>


>  <Assay Organism>


>  <Target ID>
17045

>  <Target Name>
Cytochrome P450 3A4

>  <Target Organism>
Homo sapiens

>  <Target Description>
Target is a single protein chain

>  <Sequence Accession>
P08684

>  <Reference>
Bioorg Med Chem Lett 20 (10), 3182-3185 (2010)

>  <Pubmed ID>
20399649

>  <DOI>
10.1016/j.bmcl.2010.03.057

$$$$
625407
Actelion Java MolfileCreator 1.0

 39 43  0  0  0  0  0  0  0  0999 V2000
    0.0000   -0.0000   -0.0000 Cl  0  0  0  0  0  0  0  0  0  0  0  0
   -1.3083   -0.7425   -0.0000 C   0  0  0  0  0  0  0  0  0  0  0  0
   -2.6166    0.0236   -0.0000 C   0  0  0  0  0  0  0  0  0  0  0  0
   -1.3201   -2.2158   -0.0000 C   0  0  0  0  0  0  0  0  0  0  0  0
   -3.9249   -0.7190   -0.0000 C   0  0  0  0  0  0  0  0  0  0  0  0
   -2.6284   -2.9584   -0.0000 C   0  0  0  0  0  0  0  0  0  0  0  0
   -3.9366   -2.1923   -0.0000 C   0  0  0  0  0  0  0  0  0  0  0  0
   -5.2331    0.0471   -0.0000 C   0  0  0  0  0  0  0  0  0  0  0  0
   -6.5414   -0.6954   -0.0000 O   0  0  0  0  0  0  0  0  0  0  0  0
   -5.2449    1.5558   -0.0000 C   0  0  0  0  0  0  0  0  0  0  0  0
   -6.5414    2.3101   -0.0000 N   0  0  0  0  0  0  0  0  0  0  0  0
   -6.5532    3.8070   -0.0000 C   0  0  0  0  0  0  0  0  0  0  0  0
   -7.8615    4.5731   -0.0000 C   0  0  0  0  0  0  0  0  0  0  0  0
   -5.2685    4.5731   -0.0000 C   0  0  0  0  0  0  0  0  0  0  0  0
   -7.8733    6.0700   -0.0000 C   0  0  0  0  0  0  0  0  0  0  0  0
   -9.1698    3.8306   -0.0000 C   0  0  0  0  0  0  0  0  0  0  0  0
   -5.2803    6.0700   -0.0000 C   0  0  0  0  0  0  0  0  0  0  0  0
   -9.1816    6.8361   -0.0000 O   0  0  0  0  0  0  0  0  0  0  0  0
   -6.5886    6.8361   -0.0000 N   0  0  0  0  0  0  0  0  0  0  0  0
   -9.3348    2.3573   -0.0000 N   0  0  0  0  0  0  0  0  0  0  0  0
  -10.5488    4.4434   -0.0000 N   0  0  0  0  0  0  0  0  0  0  0  0
  -10.8081    2.0626   -0.0000 C   0  0  0  0  0  0  0  0  0  0  0  0
  -11.5624    3.3473   -0.0000 C   0  0  0  0  0  0  0  0  0  0  0  0
  -11.5742    0.7779   -0.0000 C   0  0  0  0  0  0  0  0  0  0  0  0
  -13.0593    3.3591   -0.0000 C   0  0  0  0  0  0  0  0  0  0  0  0
  -13.0710    0.7897   -0.0000 C   0  0  0  0  0  0  0  0  0  0  0  0
  -10.8316   -0.5068   -0.0000 C   0  0  0  0  0  0  0  0  0  0  0  0
  -13.8254    2.0744   -0.0000 C   0  0  0  0  0  0  0  0  0  0  0  0
  -15.3222    2.0862   -0.0000 N   0  0  0  0  0  0  0  0  0  0  0  0
  -16.0884    0.8015   -0.0000 C   0  0  0  0  0  0  0  0  0  0  0  0
  -16.0884    3.3945   -0.0000 C   0  0  0  0  0  0  0  0  0  0  0  0
  -17.5852    0.8133   -0.0000 C   0  0  0  0  0  0  0  0  0  0  0  0
  -17.5852    3.4063   -0.0000 C   0  0  0  0  0  0  0  0  0  0  0  0
  -18.3513    2.1215   -0.0000 N   0  0  0  0  0  0  0  0  0  0  0  0
  -19.8600    2.1333   -0.0000 C   0  0  0  0  0  0  0  0  0  0  0  0
  -20.6143    3.4298   -0.0000 C   0  0  0  0  0  0  0  0  0  0  0  0
  -19.8836    4.7263   -0.0000 O   0  0  0  0  0  0  0  0  0  0  0  0
  -22.1112    3.4416   -0.0000 N   0  0  0  0  0  0  0  0  0  0  0  0
  -22.8655    4.7381   -0.0000 C   0  0  0  0  0  0  0  0  0  0  0  0
  1  2  1  0  0  0  0
  2  3  2  0  0  0  0
  2  4  1  0  0  0  0
  3  5  1  0  0  0  0
  4  6  2  0  0  0  0
  5  7  2  0  0  0  0
  5  8  1  0  0  0  0
  8  9  1  1  0  0  0
  8 10  1  0  0  0  0
 10 11  1  0  0  0  0
 11 12  1  0  0  0  0
 12 13  2  0  0  0  0
 12 14  1  0  0  0  0
 13 15  1  0  0  0  0
 13 16  1  0  0  0  0
 14 17  2  0  0  0  0
 15 18  2  0  0  0  0
 15 19  1  0  0  0  0
 16 20  2  0  0  0  0
 16 21  1  0  0  0  0
 20 22  1  0  0  0  0
 21 23  1  0  0  0  0
 22 24  1  0  0  0  0
 23 25  1  0  0  0  0
 24 26  2  0  0  0  0
 24 27  1  0  0  0  0
 25 28  2  0  0  0  0
 28 29  1  0  0  0  0
 29 30  1  0  0  0  0
 29 31  1  0  0  0  0
 30 32  1  0  0  0  0
 31 33  1  0  0  0  0
 32 34  1  0  0  0  0
 34 35  1  0  0  0  0
 35 36  1  0  0  0  0
 36 37  2  0  0  0  0
 36 38  1  0  0  0  0
 38 39  1  0  0  0  0
  6  7  1  0  0  0  0
 17 19  1  0  0  0  0
 22 23  2  0  0  0  0
 26 28  1  0  0  0  0
 33 34  1  0  0  0  0
M  END
>  <MolRegNo>
625407

>  <m>
=

>  <Value>
2600

>  <Unit>
nM

>  <Type>
IC50

>  <pValue>
5.58

>  <Ligand Efficiency>
0

>  <Binding Efficiency>
0

>  <Surface Efficiency>
0

>  <Assay Index>
477539

>  <Assay Category>


>  <Assay Organism>


>  <Target ID>
17045

>  <Target Name>
Cytochrome P450 3A4

>  <Target Organism>
Homo sapiens

>  <Target Description>
Target is a single protein chain

>  <Sequence Accession>
P08684

>  <Reference>
Bioorg Med Chem Lett 20 (10), 3182-3185 (2010)

>  <Pubmed ID>
20399649

>  <DOI>
10.1016/j.bmcl.2010.03.057

$$$$
625408
Actelion Java MolfileCreator 1.0

 41 45  0  0  0  0  0  0  0  0999 V2000
    0.0000   -0.0000   -0.0000 Cl  0  0  0  0  0  0  0  0  0  0  0  0
   -1.3085   -0.7427   -0.0000 C   0  0  0  0  0  0  0  0  0  0  0  0
   -2.6170    0.0236   -0.0000 C   0  0  0  0  0  0  0  0  0  0  0  0
   -1.3203   -2.2162   -0.0000 C   0  0  0  0  0  0  0  0  0  0  0  0
   -3.9255   -0.7191   -0.0000 C   0  0  0  0  0  0  0  0  0  0  0  0
   -2.6288   -2.9589   -0.0000 C   0  0  0  0  0  0  0  0  0  0  0  0
   -3.9373   -2.1926   -0.0000 C   0  0  0  0  0  0  0  0  0  0  0  0
   -5.2340    0.0472   -0.0000 C   0  0  0  0  0  0  0  0  0  0  0  0
   -6.5426   -0.6955   -0.0000 O   0  0  0  0  0  0  0  0  0  0  0  0
   -5.2458    1.5561   -0.0000 C   0  0  0  0  0  0  0  0  0  0  0  0
   -6.5426    2.3105   -0.0000 N   0  0  0  0  0  0  0  0  0  0  0  0
   -6.5543    3.8077   -0.0000 C   0  0  0  0  0  0  0  0  0  0  0  0
   -7.8629    4.5739   -0.0000 C   0  0  0  0  0  0  0  0  0  0  0  0
   -5.2694    4.5739   -0.0000 C   0  0  0  0  0  0  0  0  0  0  0  0
   -7.8746    6.0710   -0.0000 C   0  0  0  0  0  0  0  0  0  0  0  0
   -9.1714    3.8312   -0.0000 C   0  0  0  0  0  0  0  0  0  0  0  0
   -5.2812    6.0710   -0.0000 C   0  0  0  0  0  0  0  0  0  0  0  0
   -9.1832    6.8373   -0.0000 O   0  0  0  0  0  0  0  0  0  0  0  0
   -6.5897    6.8373   -0.0000 N   0  0  0  0  0  0  0  0  0  0  0  0
   -9.3364    2.3577   -0.0000 N   0  0  0  0  0  0  0  0  0  0  0  0
  -10.5506    4.4442   -0.0000 N   0  0  0  0  0  0  0  0  0  0  0  0
  -10.8100    2.0630   -0.0000 C   0  0  0  0  0  0  0  0  0  0  0  0
  -11.5644    3.3479   -0.0000 C   0  0  0  0  0  0  0  0  0  0  0  0
  -11.5762    0.7780   -0.0000 C   0  0  0  0  0  0  0  0  0  0  0  0
  -13.0615    3.3597   -0.0000 C   0  0  0  0  0  0  0  0  0  0  0  0
  -13.0733    0.7898   -0.0000 C   0  0  0  0  0  0  0  0  0  0  0  0
  -10.8335   -0.5069   -0.0000 C   0  0  0  0  0  0  0  0  0  0  0  0
  -13.8278    2.0748   -0.0000 C   0  0  0  0  0  0  0  0  0  0  0  0
  -15.3249    2.0865   -0.0000 N   0  0  0  0  0  0  0  0  0  0  0  0
  -16.0912    0.8016   -0.0000 C   0  0  0  0  0  0  0  0  0  0  0  0
  -16.0912    3.3951   -0.0000 C   0  0  0  0  0  0  0  0  0  0  0  0
  -17.5883    0.8134   -0.0000 C   0  0  0  0  0  0  0  0  0  0  0  0
  -17.5883    3.4068   -0.0000 C   0  0  0  0  0  0  0  0  0  0  0  0
  -18.3545    2.1219   -0.0000 N   0  0  0  0  0  0  0  0  0  0  0  0
  -19.8634    2.1337   -0.0000 C   0  0  0  0  0  0  0  0  0  0  0  0
  -20.6179    3.4304   -0.0000 C   0  0  0  0  0  0  0  0  0  0  0  0
  -19.8870    4.7271   -0.0000 O   0  0  0  0  0  0  0  0  0  0  0  0
  -22.1150    3.4422   -0.0000 N   0  0  0  0  0  0  0  0  0  0  0  0
  -22.8695    4.7389   -0.0000 C   0  0  0  0  0  0  0  0  0  0  0  0
  -22.1386    6.0357   -0.0000 C   0  0  0  0  0  0  0  0  0  0  0  0
  -22.8931    7.3324   -0.0000 F   0  0  0  0  0  0  0  0  0  0  0  0
  1  2  1  0  0  0  0
  2  3  2  0  0  0  0
  2  4  1  0  0  0  0
  3  5  1  0  0  0  0
  4  6  2  0  0  0  0
  5  7  2  0  0  0  0
  5  8  1  0  0  0  0
  8  9  1  1  0  0  0
  8 10  1  0  0  0  0
 10 11  1  0  0  0  0
 11 12  1  0  0  0  0
 12 13  2  0  0  0  0
 12 14  1  0  0  0  0
 13 15  1  0  0  0  0
 13 16  1  0  0  0  0
 14 17  2  0  0  0  0
 15 18  2  0  0  0  0
 15 19  1  0  0  0  0
 16 20  2  0  0  0  0
 16 21  1  0  0  0  0
 20 22  1  0  0  0  0
 21 23  1  0  0  0  0
 22 24  1  0  0  0  0
 23 25  1  0  0  0  0
 24 26  2  0  0  0  0
 24 27  1  0  0  0  0
 25 28  2  0  0  0  0
 28 29  1  0  0  0  0
 29 30  1  0  0  0  0
 29 31  1  0  0  0  0
 30 32  1  0  0  0  0
 31 33  1  0  0  0  0
 32 34  1  0  0  0  0
 34 35  1  0  0  0  0
 35 36  1  0  0  0  0
 36 37  2  0  0  0  0
 36 38  1  0  0  0  0
 38 39  1  0  0  0  0
 39 40  1  0  0  0  0
 40 41  1  0  0  0  0
  6  7  1  0  0  0  0
 17 19  1  0  0  0  0
 22 23  2  0  0  0  0
 26 28  1  0  0  0  0
 33 34  1  0  0  0  0
M  END
>  <MolRegNo>
625408

>  <m>
=

>  <Value>
2400

>  <Unit>
nM

>  <Type>
IC50

>  <pValue>
5.62

>  <Ligand Efficiency>
0

>  <Binding Efficiency>
0

>  <Surface Efficiency>
0

>  <Assay Index>
477539

>  <Assay Category>


>  <Assay Organism>


>  <Target ID>
17045

>  <Target Name>
Cytochrome P450 3A4

>  <Target Organism>
Homo sapiens

>  <Target Description>
Target is a single protein chain

>  <Sequence Accession>
P08684

>  <Reference>
Bioorg Med Chem Lett 20 (10), 3182-3185 (2010)

>  <Pubmed ID>
20399649

>  <DOI>
10.1016/j.bmcl.2010.03.057

$$$$
625409
Actelion Java MolfileCreator 1.0

 38 42  0  0  0  0  0  0  0  0999 V2000
    0.0000   -0.0000   -0.0000 Cl  0  0  0  0  0  0  0  0  0  0  0  0
   -1.3075   -0.7421   -0.0000 C   0  0  0  0  0  0  0  0  0  0  0  0
   -2.6150    0.0236   -0.0000 C   0  0  0  0  0  0  0  0  0  0  0  0
   -1.3193   -2.2145   -0.0000 C   0  0  0  0  0  0  0  0  0  0  0  0
   -3.9226   -0.7185   -0.0000 C   0  0  0  0  0  0  0  0  0  0  0  0
   -2.6268   -2.9566   -0.0000 C   0  0  0  0  0  0  0  0  0  0  0  0
   -3.9343   -2.1910   -0.0000 C   0  0  0  0  0  0  0  0  0  0  0  0
   -5.2301    0.0471   -0.0000 C   0  0  0  0  0  0  0  0  0  0  0  0
   -6.5376   -0.6950   -0.0000 O   0  0  0  0  0  0  0  0  0  0  0  0
   -5.2418    1.5549   -0.0000 C   0  0  0  0  0  0  0  0  0  0  0  0
   -6.5376    2.3088   -0.0000 N   0  0  0  0  0  0  0  0  0  0  0  0
   -6.5494    3.8048   -0.0000 C   0  0  0  0  0  0  0  0  0  0  0  0
   -7.8569    4.5704   -0.0000 C   0  0  0  0  0  0  0  0  0  0  0  0
   -5.2654    4.5704   -0.0000 C   0  0  0  0  0  0  0  0  0  0  0  0
   -7.8687    6.0664   -0.0000 C   0  0  0  0  0  0  0  0  0  0  0  0
   -9.1644    3.8283   -0.0000 C   0  0  0  0  0  0  0  0  0  0  0  0
   -5.2772    6.0664   -0.0000 C   0  0  0  0  0  0  0  0  0  0  0  0
   -9.1762    6.8321   -0.0000 O   0  0  0  0  0  0  0  0  0  0  0  0
   -6.5847    6.8321   -0.0000 N   0  0  0  0  0  0  0  0  0  0  0  0
   -9.3293    2.3559   -0.0000 N   0  0  0  0  0  0  0  0  0  0  0  0
  -10.5426    4.4526   -0.0000 N   0  0  0  0  0  0  0  0  0  0  0  0
  -10.8017    2.0614   -0.0000 C   0  0  0  0  0  0  0  0  0  0  0  0
  -11.5556    3.3571   -0.0000 C   0  0  0  0  0  0  0  0  0  0  0  0
  -11.5674    0.7774   -0.0000 C   0  0  0  0  0  0  0  0  0  0  0  0
  -13.0516    3.3689   -0.0000 C   0  0  0  0  0  0  0  0  0  0  0  0
  -13.0634    0.7892   -0.0000 C   0  0  0  0  0  0  0  0  0  0  0  0
  -10.8253   -0.5065   -0.0000 C   0  0  0  0  0  0  0  0  0  0  0  0
  -13.8173    2.0850   -0.0000 C   0  0  0  0  0  0  0  0  0  0  0  0
  -15.3133    2.0967   -0.0000 N   0  0  0  0  0  0  0  0  0  0  0  0
  -16.0789    0.8128   -0.0000 C   0  0  0  0  0  0  0  0  0  0  0  0
  -16.0789    3.4043   -0.0000 C   0  0  0  0  0  0  0  0  0  0  0  0
  -17.5749    0.8246   -0.0000 C   0  0  0  0  0  0  0  0  0  0  0  0
  -17.5749    3.4160   -0.0000 C   0  0  0  0  0  0  0  0  0  0  0  0
  -18.3406    2.1321   -0.0000 N   0  0  0  0  0  0  0  0  0  0  0  0
  -19.8483    2.1439   -0.0000 C   0  0  0  0  0  0  0  0  0  0  0  0
  -20.6022    3.4396   -0.0000 C   0  0  0  0  0  0  0  0  0  0  0  0
  -22.0982    3.4514   -0.0000 C   0  0  0  0  0  0  0  0  0  0  0  0
  -22.8521    4.7471   -0.0000 F   0  0  0  0  0  0  0  0  0  0  0  0
  1  2  1  0  0  0  0
  2  3  2  0  0  0  0
  2  4  1  0  0  0  0
  3  5  1  0  0  0  0
  4  6  2  0  0  0  0
  5  7  2  0  0  0  0
  5  8  1  0  0  0  0
  8  9  1  1  0  0  0
  8 10  1  0  0  0  0
 10 11  1  0  0  0  0
 11 12  1  0  0  0  0
 12 13  2  0  0  0  0
 12 14  1  0  0  0  0
 13 15  1  0  0  0  0
 13 16  1  0  0  0  0
 14 17  2  0  0  0  0
 15 18  2  0  0  0  0
 15 19  1  0  0  0  0
 16 20  2  0  0  0  0
 16 21  1  0  0  0  0
 20 22  1  0  0  0  0
 21 23  1  0  0  0  0
 22 24  1  0  0  0  0
 23 25  1  0  0  0  0
 24 26  2  0  0  0  0
 24 27  1  0  0  0  0
 25 28  2  0  0  0  0
 28 29  1  0  0  0  0
 29 30  1  0  0  0  0
 29 31  1  0  0  0  0
 30 32  1  0  0  0  0
 31 33  1  0  0  0  0
 32 34  1  0  0  0  0
 34 35  1  0  0  0  0
 35 36  1  0  0  0  0
 36 37  1  0  0  0  0
 37 38  1  0  0  0  0
  6  7  1  0  0  0  0
 17 19  1  0  0  0  0
 22 23  2  0  0  0  0
 26 28  1  0  0  0  0
 33 34  1  0  0  0  0
M  END
>  <MolRegNo>
625409

>  <m>
=

>  <Value>
450

>  <Unit>
nM

>  <Type>
IC50

>  <pValue>
6.35

>  <Ligand Efficiency>
0

>  <Binding Efficiency>
0

>  <Surface Efficiency>
0

>  <Assay Index>
477539

>  <Assay Category>


>  <Assay Organism>


>  <Target ID>
17045

>  <Target Name>
Cytochrome P450 3A4

>  <Target Organism>
Homo sapiens

>  <Target Description>
Target is a single protein chain

>  <Sequence Accession>
P08684

>  <Reference>
Bioorg Med Chem Lett 20 (10), 3182-3185 (2010)

>  <Pubmed ID>
20399649

>  <DOI>
10.1016/j.bmcl.2010.03.057

$$$$
625513
Actelion Java MolfileCreator 1.0

 37 41  0  0  0  0  0  0  0  0999 V2000
    0.0000   -0.0000   -0.0000 Cl  0  0  0  0  0  0  0  0  0  0  0  0
   -1.3080   -0.7424   -0.0000 C   0  0  0  0  0  0  0  0  0  0  0  0
   -2.6159    0.0236   -0.0000 C   0  0  0  0  0  0  0  0  0  0  0  0
   -1.3198   -2.2153   -0.0000 C   0  0  0  0  0  0  0  0  0  0  0  0
   -3.9239   -0.7188   -0.0000 C   0  0  0  0  0  0  0  0  0  0  0  0
   -2.6277   -2.9577   -0.0000 C   0  0  0  0  0  0  0  0  0  0  0  0
   -3.9357   -2.1917   -0.0000 C   0  0  0  0  0  0  0  0  0  0  0  0
   -5.2319    0.0471   -0.0000 C   0  0  0  0  0  0  0  0  0  0  0  0
   -6.5398   -0.6952   -0.0000 O   0  0  0  0  0  0  0  0  0  0  0  0
   -5.2437    1.5554   -0.0000 C   0  0  0  0  0  0  0  0  0  0  0  0
   -6.5398    2.3096   -0.0000 N   0  0  0  0  0  0  0  0  0  0  0  0
   -6.5516    3.8061   -0.0000 C   0  0  0  0  0  0  0  0  0  0  0  0
   -7.8596    4.5720   -0.0000 C   0  0  0  0  0  0  0  0  0  0  0  0
   -5.2672    4.5720   -0.0000 C   0  0  0  0  0  0  0  0  0  0  0  0
   -7.8714    6.0685   -0.0000 C   0  0  0  0  0  0  0  0  0  0  0  0
   -9.1676    3.8296   -0.0000 C   0  0  0  0  0  0  0  0  0  0  0  0
   -5.2790    6.0685   -0.0000 C   0  0  0  0  0  0  0  0  0  0  0  0
   -9.1793    6.8344   -0.0000 O   0  0  0  0  0  0  0  0  0  0  0  0
   -6.5870    6.8344   -0.0000 N   0  0  0  0  0  0  0  0  0  0  0  0
   -9.3325    2.3567   -0.0000 N   0  0  0  0  0  0  0  0  0  0  0  0
  -10.5462    4.4424   -0.0000 N   0  0  0  0  0  0  0  0  0  0  0  0
  -10.8055    2.0621   -0.0000 C   0  0  0  0  0  0  0  0  0  0  0  0
  -11.5596    3.3465   -0.0000 C   0  0  0  0  0  0  0  0  0  0  0  0
  -11.5714    0.7777   -0.0000 C   0  0  0  0  0  0  0  0  0  0  0  0
  -13.0561    3.3583   -0.0000 C   0  0  0  0  0  0  0  0  0  0  0  0
  -13.0679    0.7895   -0.0000 C   0  0  0  0  0  0  0  0  0  0  0  0
  -10.8290   -0.5067   -0.0000 C   0  0  0  0  0  0  0  0  0  0  0  0
  -13.8220    2.0739   -0.0000 C   0  0  0  0  0  0  0  0  0  0  0  0
  -15.3185    2.0857   -0.0000 N   0  0  0  0  0  0  0  0  0  0  0  0
  -16.0845    0.8013   -0.0000 C   0  0  0  0  0  0  0  0  0  0  0  0
  -16.0845    3.3936   -0.0000 C   0  0  0  0  0  0  0  0  0  0  0  0
  -17.5810    0.8131   -0.0000 C   0  0  0  0  0  0  0  0  0  0  0  0
  -17.5810    3.4054   -0.0000 C   0  0  0  0  0  0  0  0  0  0  0  0
  -18.3469    2.1210   -0.0000 N   0  0  0  0  0  0  0  0  0  0  0  0
  -19.8552    2.1328   -0.0000 C   0  0  0  0  0  0  0  0  0  0  0  0
  -20.6093    3.4290   -0.0000 C   0  0  0  0  0  0  0  0  0  0  0  0
  -21.3635    4.7252   -0.0000 N   0  0  0  0  0  0  0  0  0  0  0  0
  1  2  1  0  0  0  0
  2  3  2  0  0  0  0
  2  4  1  0  0  0  0
  3  5  1  0  0  0  0
  4  6  2  0  0  0  0
  5  7  2  0  0  0  0
  5  8  1  0  0  0  0
  8  9  1  1  0  0  0
  8 10  1  0  0  0  0
 10 11  1  0  0  0  0
 11 12  1  0  0  0  0
 12 13  2  0  0  0  0
 12 14  1  0  0  0  0
 13 15  1  0  0  0  0
 13 16  1  0  0  0  0
 14 17  2  0  0  0  0
 15 18  2  0  0  0  0
 15 19  1  0  0  0  0
 16 20  2  0  0  0  0
 16 21  1  0  0  0  0
 20 22  1  0  0  0  0
 21 23  1  0  0  0  0
 22 24  1  0  0  0  0
 23 25  1  0  0  0  0
 24 26  2  0  0  0  0
 24 27  1  0  0  0  0
 25 28  2  0  0  0  0
 28 29  1  0  0  0  0
 29 30  1  0  0  0  0
 29 31  1  0  0  0  0
 30 32  1  0  0  0  0
 31 33  1  0  0  0  0
 32 34  1  0  0  0  0
 34 35  1  0  0  0  0
 35 36  1  0  0  0  0
 36 37  3  0  0  0  0
  6  7  1  0  0  0  0
 17 19  1  0  0  0  0
 22 23  2  0  0  0  0
 26 28  1  0  0  0  0
 33 34  1  0  0  0  0
M  END
>  <MolRegNo>
625513

>  <m>
=

>  <Value>
1400

>  <Unit>
nM

>  <Type>
IC50

>  <pValue>
5.85

>  <Ligand Efficiency>
0

>  <Binding Efficiency>
0

>  <Surface Efficiency>
0

>  <Assay Index>
477539

>  <Assay Category>


>  <Assay Organism>


>  <Target ID>
17045

>  <Target Name>
Cytochrome P450 3A4

>  <Target Organism>
Homo sapiens

>  <Target Description>
Target is a single protein chain

>  <Sequence Accession>
P08684

>  <Reference>
Bioorg Med Chem Lett 20 (10), 3182-3185 (2010)

>  <Pubmed ID>
20399649

>  <DOI>
10.1016/j.bmcl.2010.03.057

$$$$
625514
Actelion Java MolfileCreator 1.0

 38 42  0  0  0  0  0  0  0  0999 V2000
    0.0000   -0.0000   -0.0000 Cl  0  0  0  0  0  0  0  0  0  0  0  0
   -1.3082   -0.7425   -0.0000 C   0  0  0  0  0  0  0  0  0  0  0  0
   -2.6165    0.0236   -0.0000 C   0  0  0  0  0  0  0  0  0  0  0  0
   -1.3200   -2.2158   -0.0000 C   0  0  0  0  0  0  0  0  0  0  0  0
   -3.9247   -0.7189   -0.0000 C   0  0  0  0  0  0  0  0  0  0  0  0
   -2.6283   -2.9583   -0.0000 C   0  0  0  0  0  0  0  0  0  0  0  0
   -3.9365   -2.1922   -0.0000 C   0  0  0  0  0  0  0  0  0  0  0  0
   -5.2330    0.0471   -0.0000 C   0  0  0  0  0  0  0  0  0  0  0  0
   -6.5412   -0.6954   -0.0000 O   0  0  0  0  0  0  0  0  0  0  0  0
   -5.2448    1.5558   -0.0000 C   0  0  0  0  0  0  0  0  0  0  0  0
   -6.5412    2.3101   -0.0000 N   0  0  0  0  0  0  0  0  0  0  0  0
   -6.5530    3.8069   -0.0000 C   0  0  0  0  0  0  0  0  0  0  0  0
   -7.8613    4.5730   -0.0000 C   0  0  0  0  0  0  0  0  0  0  0  0
   -5.2684    4.5730   -0.0000 C   0  0  0  0  0  0  0  0  0  0  0  0
   -7.8731    6.0698   -0.0000 C   0  0  0  0  0  0  0  0  0  0  0  0
   -9.1695    3.8305   -0.0000 C   0  0  0  0  0  0  0  0  0  0  0  0
   -5.2801    6.0698   -0.0000 C   0  0  0  0  0  0  0  0  0  0  0  0
   -9.1813    6.8359   -0.0000 O   0  0  0  0  0  0  0  0  0  0  0  0
   -6.5884    6.8359   -0.0000 N   0  0  0  0  0  0  0  0  0  0  0  0
   -9.3345    2.3572   -0.0000 N   0  0  0  0  0  0  0  0  0  0  0  0
  -10.5485    4.4433   -0.0000 N   0  0  0  0  0  0  0  0  0  0  0  0
  -10.8078    2.0626   -0.0000 C   0  0  0  0  0  0  0  0  0  0  0  0
  -11.5621    3.3472   -0.0000 C   0  0  0  0  0  0  0  0  0  0  0  0
  -11.5739    0.7779   -0.0000 C   0  0  0  0  0  0  0  0  0  0  0  0
  -13.0589    3.3590   -0.0000 C   0  0  0  0  0  0  0  0  0  0  0  0
  -13.0707    0.7897   -0.0000 C   0  0  0  0  0  0  0  0  0  0  0  0
  -10.8314   -0.5068   -0.0000 C   0  0  0  0  0  0  0  0  0  0  0  0
  -13.8250    2.0743   -0.0000 C   0  0  0  0  0  0  0  0  0  0  0  0
  -15.3218    2.0861   -0.0000 N   0  0  0  0  0  0  0  0  0  0  0  0
  -16.0879    0.8014   -0.0000 C   0  0  0  0  0  0  0  0  0  0  0  0
  -16.0879    3.3944   -0.0000 C   0  0  0  0  0  0  0  0  0  0  0  0
  -17.5848    0.8132   -0.0000 C   0  0  0  0  0  0  0  0  0  0  0  0
  -17.5848    3.4062   -0.0000 C   0  0  0  0  0  0  0  0  0  0  0  0
  -18.3508    2.1215   -0.0000 N   0  0  0  0  0  0  0  0  0  0  0  0
  -19.8595    2.1333   -0.0000 C   0  0  0  0  0  0  0  0  0  0  0  0
  -20.6138    3.4297   -0.0000 C   0  0  0  0  0  0  0  0  0  0  0  0
  -19.8830    4.7262   -0.0000 C   0  0  0  0  0  0  0  0  0  0  0  0
  -19.1523    6.0344   -0.0000 N   0  0  0  0  0  0  0  0  0  0  0  0
  1  2  1  0  0  0  0
  2  3  2  0  0  0  0
  2  4  1  0  0  0  0
  3  5  1  0  0  0  0
  4  6  2  0  0  0  0
  5  7  2  0  0  0  0
  5  8  1  0  0  0  0
  8  9  1  1  0  0  0
  8 10  1  0  0  0  0
 10 11  1  0  0  0  0
 11 12  1  0  0  0  0
 12 13  2  0  0  0  0
 12 14  1  0  0  0  0
 13 15  1  0  0  0  0
 13 16  1  0  0  0  0
 14 17  2  0  0  0  0
 15 18  2  0  0  0  0
 15 19  1  0  0  0  0
 16 20  2  0  0  0  0
 16 21  1  0  0  0  0
 20 22  1  0  0  0  0
 21 23  1  0  0  0  0
 22 24  1  0  0  0  0
 23 25  1  0  0  0  0
 24 26  2  0  0  0  0
 24 27  1  0  0  0  0
 25 28  2  0  0  0  0
 28 29  1  0  0  0  0
 29 30  1  0  0  0  0
 29 31  1  0  0  0  0
 30 32  1  0  0  0  0
 31 33  1  0  0  0  0
 32 34  1  0  0  0  0
 34 35  1  0  0  0  0
 35 36  1  0  0  0  0
 36 37  1  0  0  0  0
 37 38  3  0  0  0  0
  6  7  1  0  0  0  0
 17 19  1  0  0  0  0
 22 23  2  0  0  0  0
 26 28  1  0  0  0  0
 33 34  1  0  0  0  0
M  END
>  <MolRegNo>
625514

>  <m>
=

>  <Value>
1100

>  <Unit>
nM

>  <Type>
IC50

>  <pValue>
5.96

>  <Ligand Efficiency>
0

>  <Binding Efficiency>
0

>  <Surface Efficiency>
0

>  <Assay Index>
477539

>  <Assay Category>


>  <Assay Organism>


>  <Target ID>
17045

>  <Target Name>
Cytochrome P450 3A4

>  <Target Organism>
Homo sapiens

>  <Target Description>
Target is a single protein chain

>  <Sequence Accession>
P08684

>  <Reference>
Bioorg Med Chem Lett 20 (10), 3182-3185 (2010)

>  <Pubmed ID>
20399649

>  <DOI>
10.1016/j.bmcl.2010.03.057

$$$$
625515
Actelion Java MolfileCreator 1.0

 38 42  0  0  0  0  0  0  0  0999 V2000
    0.0000   -0.0000   -0.0000 Cl  0  0  0  0  0  0  0  0  0  0  0  0
   -1.3088   -0.7428   -0.0000 C   0  0  0  0  0  0  0  0  0  0  0  0
   -2.6175    0.0236   -0.0000 C   0  0  0  0  0  0  0  0  0  0  0  0
   -1.3206   -2.2167   -0.0000 C   0  0  0  0  0  0  0  0  0  0  0  0
   -3.9263   -0.7192   -0.0000 C   0  0  0  0  0  0  0  0  0  0  0  0
   -2.6293   -2.9595   -0.0000 C   0  0  0  0  0  0  0  0  0  0  0  0
   -3.9381   -2.1931   -0.0000 C   0  0  0  0  0  0  0  0  0  0  0  0
   -5.2351    0.0472   -0.0000 C   0  0  0  0  0  0  0  0  0  0  0  0
   -6.5439   -0.6957   -0.0000 O   0  0  0  0  0  0  0  0  0  0  0  0
   -5.2469    1.5564   -0.0000 C   0  0  0  0  0  0  0  0  0  0  0  0
   -6.5439    2.3110   -0.0000 N   0  0  0  0  0  0  0  0  0  0  0  0
   -6.5557    3.8084   -0.0000 C   0  0  0  0  0  0  0  0  0  0  0  0
   -7.8644    4.5748   -0.0000 C   0  0  0  0  0  0  0  0  0  0  0  0
   -5.2705    4.5748   -0.0000 C   0  0  0  0  0  0  0  0  0  0  0  0
   -7.8762    6.0722   -0.0000 C   0  0  0  0  0  0  0  0  0  0  0  0
   -9.1732    3.8320   -0.0000 C   0  0  0  0  0  0  0  0  0  0  0  0
   -5.2823    6.0722   -0.0000 C   0  0  0  0  0  0  0  0  0  0  0  0
   -9.1850    6.8386   -0.0000 O   0  0  0  0  0  0  0  0  0  0  0  0
   -6.5910    6.8386   -0.0000 N   0  0  0  0  0  0  0  0  0  0  0  0
   -9.3383    2.3581   -0.0000 N   0  0  0  0  0  0  0  0  0  0  0  0
  -10.5527    4.4451   -0.0000 N   0  0  0  0  0  0  0  0  0  0  0  0
  -10.8121    2.0634   -0.0000 C   0  0  0  0  0  0  0  0  0  0  0  0
  -11.5667    3.3486   -0.0000 C   0  0  0  0  0  0  0  0  0  0  0  0
  -11.5785    0.7782   -0.0000 C   0  0  0  0  0  0  0  0  0  0  0  0
  -13.0641    3.3604   -0.0000 C   0  0  0  0  0  0  0  0  0  0  0  0
  -13.0759    0.7900   -0.0000 C   0  0  0  0  0  0  0  0  0  0  0  0
  -10.8357   -0.5070   -0.0000 C   0  0  0  0  0  0  0  0  0  0  0  0
  -13.8305    2.0752   -0.0000 C   0  0  0  0  0  0  0  0  0  0  0  0
  -15.3280    2.0870   -0.0000 N   0  0  0  0  0  0  0  0  0  0  0  0
  -16.0944    0.8018   -0.0000 C   0  0  0  0  0  0  0  0  0  0  0  0
  -16.0944    3.3957   -0.0000 C   0  0  0  0  0  0  0  0  0  0  0  0
  -17.5918    0.8136   -0.0000 C   0  0  0  0  0  0  0  0  0  0  0  0
  -17.5918    3.4075   -0.0000 C   0  0  0  0  0  0  0  0  0  0  0  0
  -18.3582    2.1223   -0.0000 N   0  0  0  0  0  0  0  0  0  0  0  0
  -19.8674    2.1341   -0.0000 C   0  0  0  0  0  0  0  0  0  0  0  0
  -20.6220    3.4311   -0.0000 C   0  0  0  0  0  0  0  0  0  0  0  0
  -19.8910    4.7281   -0.0000 O   0  0  0  0  0  0  0  0  0  0  0  0
  -18.4171    4.7399   -0.0000 C   0  0  0  0  0  0  0  0  0  0  0  0
  1  2  1  0  0  0  0
  2  3  2  0  0  0  0
  2  4  1  0  0  0  0
  3  5  1  0  0  0  0
  4  6  2  0  0  0  0
  5  7  2  0  0  0  0
  5  8  1  0  0  0  0
  8  9  1  1  0  0  0
  8 10  1  0  0  0  0
 10 11  1  0  0  0  0
 11 12  1  0  0  0  0
 12 13  2  0  0  0  0
 12 14  1  0  0  0  0
 13 15  1  0  0  0  0
 13 16  1  0  0  0  0
 14 17  2  0  0  0  0
 15 18  2  0  0  0  0
 15 19  1  0  0  0  0
 16 20  2  0  0  0  0
 16 21  1  0  0  0  0
 20 22  1  0  0  0  0
 21 23  1  0  0  0  0
 22 24  1  0  0  0  0
 23 25  1  0  0  0  0
 24 26  2  0  0  0  0
 24 27  1  0  0  0  0
 25 28  2  0  0  0  0
 28 29  1  0  0  0  0
 29 30  1  0  0  0  0
 29 31  1  0  0  0  0
 30 32  1  0  0  0  0
 31 33  1  0  0  0  0
 32 34  1  0  0  0  0
 34 35  1  0  0  0  0
 35 36  1  0  0  0  0
 36 37  1  0  0  0  0
 37 38  1  0  0  0  0
  6  7  1  0  0  0  0
 17 19  1  0  0  0  0
 22 23  2  0  0  0  0
 26 28  1  0  0  0  0
 33 34  1  0  0  0  0
M  END
>  <MolRegNo>
625515

>  <m>
=

>  <Value>
2900

>  <Unit>
nM

>  <Type>
IC50

>  <pValue>
5.54

>  <Ligand Efficiency>
0

>  <Binding Efficiency>
0

>  <Surface Efficiency>
0

>  <Assay Index>
477539

>  <Assay Category>


>  <Assay Organism>


>  <Target ID>
17045

>  <Target Name>
Cytochrome P450 3A4

>  <Target Organism>
Homo sapiens

>  <Target Description>
Target is a single protein chain

>  <Sequence Accession>
P08684

>  <Reference>
Bioorg Med Chem Lett 20 (10), 3182-3185 (2010)

>  <Pubmed ID>
20399649

>  <DOI>
10.1016/j.bmcl.2010.03.057

$$$$
622556
Actelion Java MolfileCreator 1.0

 38 42  0  0  0  0  0  0  0  0999 V2000
    0.0000   -0.0000   -0.0000 O   0  0  0  0  0  0  0  0  0  0  0  0
   -1.3096    0.7669   -0.0000 C   0  0  0  0  0  0  0  0  0  0  0  0
   -1.3096    2.2771   -0.0000 N   0  0  0  0  0  0  0  0  0  0  0  0
   -2.6074    0.0472   -0.0000 N   0  0  0  0  0  0  0  0  0  0  0  0
   -0.0236    3.0203   -0.0000 C   0  0  0  0  0  0  0  0  0  0  0  0
   -2.6074    3.0439   -0.0000 C   0  0  0  0  0  0  0  0  0  0  0  0
   -3.9170    0.8141   -0.0000 C   0  0  0  0  0  0  0  0  0  0  0  0
   -3.9288    2.3242   -0.0000 C   0  0  0  0  0  0  0  0  0  0  0  0
   -5.2266    0.0944   -0.0000 C   0  0  0  0  0  0  0  0  0  0  0  0
   -5.2266    3.0911   -0.0000 C   0  0  0  0  0  0  0  0  0  0  0  0
   -6.5244    0.8613   -0.0000 C   0  0  0  0  0  0  0  0  0  0  0  0
   -6.5362    2.3714   -0.0000 C   0  0  0  0  0  0  0  0  0  0  0  0
   -7.8458    3.1383   -0.0000 C   0  0  0  0  0  0  0  0  0  0  0  0
   -8.3177    4.5659   -0.0000 N   0  0  0  0  0  0  0  0  0  0  0  0
   -9.0610    2.2653   -0.0000 C   0  0  0  0  0  0  0  0  0  0  0  0
   -9.8279    4.5777   -0.0000 N   0  0  0  0  0  0  0  0  0  0  0  0
   -9.0728    0.7787   -0.0000 C   0  0  0  0  0  0  0  0  0  0  0  0
  -10.2880    3.1501   -0.0000 C   0  0  0  0  0  0  0  0  0  0  0  0
  -10.7128    5.7929   -0.0000 C   0  0  0  0  0  0  0  0  0  0  0  0
  -10.3824    0.0472   -0.0000 C   0  0  0  0  0  0  0  0  0  0  0  0
   -7.7868    0.0590   -0.0000 C   0  0  0  0  0  0  0  0  0  0  0  0
  -10.1229    7.1733   -0.0000 C   0  0  0  0  0  0  0  0  0  0  0  0
  -10.3942   -1.4394   -0.0000 C   0  0  0  0  0  0  0  0  0  0  0  0
  -11.8100    0.5073   -0.0000 C   0  0  0  0  0  0  0  0  0  0  0  0
   -7.7986   -1.4276   -0.0000 C   0  0  0  0  0  0  0  0  0  0  0  0
   -9.1082   -2.1709   -0.0000 N   0  0  0  0  0  0  0  0  0  0  0  0
  -11.8336   -1.8877   -0.0000 N   0  0  0  0  0  0  0  0  0  0  0  0
  -12.6949   -0.6843   -0.0000 C   0  0  0  0  0  0  0  0  0  0  0  0
  -14.2050   -0.6725   -0.0000 C   0  0  0  0  0  0  0  0  0  0  0  0
  -14.9601   -1.9585   -0.0000 C   0  0  0  0  0  0  0  0  0  0  0  0
  -14.9719    0.6371   -0.0000 C   0  0  0  0  0  0  0  0  0  0  0  0
  -16.4585   -1.9467   -0.0000 C   0  0  0  0  0  0  0  0  0  0  0  0
  -16.4703    0.6489   -0.0000 C   0  0  0  0  0  0  0  0  0  0  0  0
  -17.2254   -0.6371   -0.0000 C   0  0  0  0  0  0  0  0  0  0  0  0
  -17.2254   -3.2327   -0.0000 C   0  0  0  0  0  0  0  0  0  0  0  0
  -18.7237   -3.2209   -0.0000 N   0  0  0  0  0  0  0  0  0  0  0  0
  -19.5496   -4.4597   -0.0000 C   0  0  0  0  0  0  0  0  0  0  0  0
  -19.4080   -1.8759   -0.0000 C   0  0  0  0  0  0  0  0  0  0  0  0
  1  2  2  0  0  0  0
  2  3  1  0  0  0  0
  2  4  1  0  0  0  0
  3  5  1  0  0  0  0
  3  6  1  0  0  0  0
  4  7  1  0  0  0  0
  7  8  2  0  0  0  0
  7  9  1  0  0  0  0
  8 10  1  0  0  0  0
  9 11  2  0  0  0  0
 10 12  2  0  0  0  0
 12 13  1  0  0  0  0
 13 14  2  0  0  0  0
 13 15  1  0  0  0  0
 14 16  1  0  0  0  0
 15 17  1  0  0  0  0
 15 18  2  0  0  0  0
 16 19  1  0  0  0  0
 17 20  2  0  0  0  0
 17 21  1  0  0  0  0
 19 22  1  0  0  0  0
 20 23  1  0  0  0  0
 20 24  1  0  0  0  0
 21 25  2  0  0  0  0
 23 26  2  0  0  0  0
 23 27  1  0  0  0  0
 24 28  2  0  0  0  0
 28 29  1  0  0  0  0
 29 30  2  0  0  0  0
 29 31  1  0  0  0  0
 30 32  1  0  0  0  0
 31 33  2  0  0  0  0
 32 34  2  0  0  0  0
 32 35  1  0  0  0  0
 35 36  1  0  0  0  0
 36 37  1  0  0  0  0
 36 38  1  0  0  0  0
 11 12  1  0  0  0  0
 16 18  1  0  0  0  0
 25 26  1  0  0  0  0
 27 28  1  0  0  0  0
 33 34  1  0  0  0  0
M  END
>  <MolRegNo>
622556

>  <m>
=

>  <Value>
15000

>  <Unit>
nM

>  <Type>
IC50

>  <pValue>
4.82

>  <Ligand Efficiency>
0

>  <Binding Efficiency>
0

>  <Surface Efficiency>
0

>  <Assay Index>
475988

>  <Assay Category>


>  <Assay Organism>
Homo sapiens

>  <Target ID>
17045

>  <Target Name>
Cytochrome P450 3A4

>  <Target Organism>
Homo sapiens

>  <Target Description>
Target is a single protein chain

>  <Sequence Accession>
P08684

>  <Reference>
J Med Chem 53 (10), 3973-4001 (2010)

>  <Pubmed ID>
20420387

>  <DOI>
10.1021/jm901870q

$$$$
627910
Actelion Java MolfileCreator 1.0

 36 40  0  0  0  0  0  0  0  0999 V2000
    0.0000   -0.0000   -0.0000 Cl  0  0  0  0  0  0  0  0  0  0  0  0
   -1.3090    0.7665   -0.0000 C   0  0  0  0  0  0  0  0  0  0  0  0
   -1.3208    2.2760   -0.0000 C   0  0  0  0  0  0  0  0  0  0  0  0
   -2.6180    0.0236   -0.0000 C   0  0  0  0  0  0  0  0  0  0  0  0
   -0.0354    3.0308   -0.0000 C   0  0  0  0  0  0  0  0  0  0  0  0
   -2.6298    3.0308   -0.0000 C   0  0  0  0  0  0  0  0  0  0  0  0
   -3.9152    0.7901   -0.0000 C   0  0  0  0  0  0  0  0  0  0  0  0
    1.2383    2.2996   -0.0000 N   0  0  0  0  0  0  0  0  0  0  0  0
   -0.0472    4.5403   -0.0000 C   0  0  0  0  0  0  0  0  0  0  0  0
   -3.9270    2.2996   -0.0000 C   0  0  0  0  0  0  0  0  0  0  0  0
   -5.2360    0.0472   -0.0000 Cl  0  0  0  0  0  0  0  0  0  0  0  0
    2.5237    3.0544   -0.0000 C   0  0  0  0  0  0  0  0  0  0  0  0
   -1.3562    5.3068   -0.0000 C   0  0  0  0  0  0  0  0  0  0  0  0
    1.2265    5.3068   -0.0000 C   0  0  0  0  0  0  0  0  0  0  0  0
    3.8091    2.3232   -0.0000 O   0  0  0  0  0  0  0  0  0  0  0  0
    2.5119    4.5639   -0.0000 C   0  0  0  0  0  0  0  0  0  0  0  0
   -2.6652    4.5639   -0.0000 C   0  0  0  0  0  0  0  0  0  0  0  0
   -1.3680    6.8163   -0.0000 C   0  0  0  0  0  0  0  0  0  0  0  0
    5.0945    3.0779   -0.0000 C   0  0  0  0  0  0  0  0  0  0  0  0
    3.7973    5.3304   -0.0000 C   0  0  0  0  0  0  0  0  0  0  0  0
   -3.9624    5.3304   -0.0000 C   0  0  0  0  0  0  0  0  0  0  0  0
   -2.6770    7.5710   -0.0000 C   0  0  0  0  0  0  0  0  0  0  0  0
    5.0827    4.5874   -0.0000 C   0  0  0  0  0  0  0  0  0  0  0  0
    6.5451    3.3610   -0.0000 C   0  0  0  0  0  0  0  0  0  0  0  0
    5.5898    1.6864   -0.0000 C   0  0  0  0  0  0  0  0  0  0  0  0
    3.7855    6.8399   -0.0000 N   0  0  0  0  0  0  0  0  0  0  0  0
   -3.9742    6.8399   -0.0000 C   0  0  0  0  0  0  0  0  0  0  0  0
    5.0709    7.5946   -0.0000 C   0  0  0  0  0  0  0  0  0  0  0  0
   -5.2950    7.5946   -0.0000 Cl  0  0  0  0  0  0  0  0  0  0  0  0
    6.3446    6.8635   -0.0000 O   0  0  0  0  0  0  0  0  0  0  0  0
    5.0592    9.1041   -0.0000 C   0  0  0  0  0  0  0  0  0  0  0  0
    3.8327   10.0004   -0.0000 N   0  0  0  0  0  0  0  0  0  0  0  0
    6.2502   10.0004   -0.0000 C   0  0  0  0  0  0  0  0  0  0  0  0
    4.2808   11.4391   -0.0000 N   0  0  0  0  0  0  0  0  0  0  0  0
    5.7785   11.4391   -0.0000 C   0  0  0  0  0  0  0  0  0  0  0  0
    6.6512   12.6656   -0.0000 C   0  0  0  0  0  0  0  0  0  0  0  0
  1  2  1  0  0  0  0
  2  3  2  0  0  0  0
  2  4  1  0  0  0  0
  3  5  1  0  0  0  0
  3  6  1  0  0  0  0
  4  7  2  0  0  0  0
  5  8  2  0  0  0  0
  5  9  1  0  0  0  0
  6 10  2  0  0  0  0
  7 11  1  0  0  0  0
  8 12  1  0  0  0  0
  9 13  1  0  0  0  0
  9 14  2  0  0  0  0
 12 15  1  0  0  0  0
 12 16  2  0  0  0  0
 13 17  2  0  0  0  0
 13 18  1  0  0  0  0
 15 19  1  0  0  0  0
 16 20  1  0  0  0  0
 17 21  1  0  0  0  0
 18 22  2  0  0  0  0
 19 23  1  0  0  0  0
 19 24  1  0  0  0  0
 19 25  1  0  0  0  0
 20 26  1  1  0  0  0
 21 27  2  0  0  0  0
 26 28  1  0  0  0  0
 27 29  1  0  0  0  0
 28 30  2  0  0  0  0
 28 31  1  0  0  0  0
 31 32  2  0  0  0  0
 31 33  1  0  0  0  0
 32 34  1  0  0  0  0
 33 35  2  0  0  0  0
 35 36  1  0  0  0  0
  7 10  1  0  0  0  0
 14 16  1  0  0  0  0
 20 23  1  0  0  0  0
 22 27  1  0  0  0  0
 34 35  1  0  0  0  0
M  END
>  <MolRegNo>
627910

>  <m>
=

>  <Value>
3300

>  <Unit>
nM

>  <Type>
IC50

>  <pValue>
5.48

>  <Ligand Efficiency>
0

>  <Binding Efficiency>
0

>  <Surface Efficiency>
0

>  <Assay Index>
476442

>  <Assay Category>


>  <Assay Organism>


>  <Target ID>
17045

>  <Target Name>
Cytochrome P450 3A4

>  <Target Organism>
Homo sapiens

>  <Target Description>
Target is a single protein chain

>  <Sequence Accession>
P08684

>  <Reference>
J Med Chem 53 (10), 4028-4037 (2010)

>  <Pubmed ID>
20423086

>  <DOI>
10.1021/jm100023j

$$$$
627260
Actelion Java MolfileCreator 1.0

 18 19  0  0  0  0  0  0  0  0999 V2000
    0.0000   -0.0000   -0.0000 S   0  0  0  0  0  0  0  0  0  0  0  0
    1.2869    0.7674   -0.0000 C   0  0  0  0  0  0  0  0  0  0  0  0
   -1.3105    0.7556   -0.0000 C   0  0  0  0  0  0  0  0  0  0  0  0
    2.5619    0.0236   -0.0000 C   0  0  0  0  0  0  0  0  0  0  0  0
    1.2633    2.2786   -0.0000 C   0  0  0  0  0  0  0  0  0  0  0  0
   -2.6210    0.0118   -0.0000 C   0  0  0  0  0  0  0  0  0  0  0  0
    3.8370    0.7792   -0.0000 C   0  0  0  0  0  0  0  0  0  0  0  0
    2.5501    3.0342   -0.0000 C   0  0  0  0  0  0  0  0  0  0  0  0
   -3.9314    0.7674   -0.0000 C   0  0  0  0  0  0  0  0  0  0  0  0
    3.8252    2.2904   -0.0000 C   0  0  0  0  0  0  0  0  0  0  0  0
   -5.3128    0.1653   -0.0000 N   0  0  0  0  0  0  0  0  0  0  0  0
   -4.1085    2.2668   -0.0000 C   0  0  0  0  0  0  0  0  0  0  0  0
    5.1121    3.0460   -0.0000 C   0  0  0  0  0  0  0  0  0  0  0  0
   -6.3281    1.2869   -0.0000 C   0  0  0  0  0  0  0  0  0  0  0  0
   -5.5843    2.5855   -0.0000 N   0  0  0  0  0  0  0  0  0  0  0  0
    6.3989    2.3022   -0.0000 C   0  0  0  0  0  0  0  0  0  0  0  0
    5.1003    4.5572   -0.0000 C   0  0  0  0  0  0  0  0  0  0  0  0
    6.3871    3.8252   -0.0000 C   0  0  0  0  0  0  0  0  0  0  0  0
  1  2  1  0  0  0  0
  1  3  1  0  0  0  0
  2  4  2  0  0  0  0
  2  5  1  0  0  0  0
  3  6  1  0  0  0  0
  4  7  1  0  0  0  0
  5  8  2  0  0  0  0
  6  9  1  0  0  0  0
  7 10  2  0  0  0  0
  9 11  1  0  0  0  0
  9 12  2  0  0  0  0
 10 13  1  0  0  0  0
 11 14  2  0  0  0  0
 12 15  1  0  0  0  0
 13 16  1  0  0  0  0
 13 17  1  0  0  0  0
 13 18  1  0  0  0  0
  8 10  1  0  0  0  0
 14 15  1  0  0  0  0
M  END
>  <MolRegNo>
627260

>  <m>
=

>  <Value>
470

>  <Unit>
nM

>  <Type>
IC50

>  <pValue>
6.33

>  <Ligand Efficiency>
0

>  <Binding Efficiency>
0

>  <Surface Efficiency>
0

>  <Assay Index>
475583

>  <Assay Category>


>  <Assay Organism>
Homo sapiens

>  <Target ID>
17045

>  <Target Name>
Cytochrome P450 3A4

>  <Target Organism>
Homo sapiens

>  <Target Description>
Target is a single protein chain

>  <Sequence Accession>
P08684

>  <Reference>
J Med Chem 53 (9), 3840-3844 (2010)

>  <Pubmed ID>
20384344

>  <DOI>
10.1021/jm901890s

$$$$
628260
Actelion Java MolfileCreator 1.0

 34 38  0  0  0  0  0  0  0  0999 V2000
    0.0000   -0.0000   -0.0000 Cl  0  0  0  0  0  0  0  0  0  0  0  0
   -1.3131    0.7453   -0.0000 C   0  0  0  0  0  0  0  0  0  0  0  0
   -2.6143   -0.0000   -0.0000 C   0  0  0  0  0  0  0  0  0  0  0  0
   -1.3367    2.2594   -0.0000 C   0  0  0  0  0  0  0  0  0  0  0  0
   -3.9274    0.7453   -0.0000 C   0  0  0  0  0  0  0  0  0  0  0  0
   -2.6498    3.0047   -0.0000 C   0  0  0  0  0  0  0  0  0  0  0  0
   -3.9392    2.2476   -0.0000 C   0  0  0  0  0  0  0  0  0  0  0  0
   -5.2523    2.9928   -0.0000 C   0  0  0  0  0  0  0  0  0  0  0  0
   -5.2759    1.5142   -0.0000 O   0  0  0  0  0  0  0  0  0  0  0  0
   -6.5535    2.2476   -0.0000 C   0  0  0  0  0  0  0  0  0  0  0  0
   -5.2759    4.4952   -0.0000 C   0  0  0  0  0  0  0  0  0  0  0  0
   -6.0448    0.2366   -0.0000 C   0  0  0  0  0  0  0  0  0  0  0  0
   -7.8666    2.9928   -0.0000 C   0  0  0  0  0  0  0  0  0  0  0  0
   -6.5535    0.7571   -0.0000 C   0  0  0  0  0  0  0  0  0  0  0  0
   -4.0930    5.3942   -0.0000 N   0  0  0  0  0  0  0  0  0  0  0  0
   -6.5062    5.3824   -0.0000 C   0  0  0  0  0  0  0  0  0  0  0  0
   -9.1678    2.2594   -0.0000 C   0  0  0  0  0  0  0  0  0  0  0  0
   -7.8547    0.0237   -0.0000 C   0  0  0  0  0  0  0  0  0  0  0  0
   -4.5780    6.8256   -0.0000 C   0  0  0  0  0  0  0  0  0  0  0  0
   -2.6853    4.9565   -0.0000 C   0  0  0  0  0  0  0  0  0  0  0  0
   -6.0685    6.8256   -0.0000 N   0  0  0  0  0  0  0  0  0  0  0  0
  -10.4690    3.0165   -0.0000 C   0  0  0  0  0  0  0  0  0  0  0  0
   -9.1796    0.7689   -0.0000 C   0  0  0  0  0  0  0  0  0  0  0  0
  -10.4808    4.5188   -0.0000 C   0  0  0  0  0  0  0  0  0  0  0  0
  -11.7703    2.2831   -0.0000 C   0  0  0  0  0  0  0  0  0  0  0  0
  -10.4808    0.0237   -0.0000 N   0  0  0  0  0  0  0  0  0  0  0  0
   -9.2033    5.2759   -0.0000 C   0  0  0  0  0  0  0  0  0  0  0  0
  -11.7939    5.2641   -0.0000 C   0  0  0  0  0  0  0  0  0  0  0  0
  -11.7821    0.7926   -0.0000 C   0  0  0  0  0  0  0  0  0  0  0  0
  -10.4927   -1.4550   -0.0000 C   0  0  0  0  0  0  0  0  0  0  0  0
   -9.2151    6.7782   -0.0000 C   0  0  0  0  0  0  0  0  0  0  0  0
  -11.8176    6.7664   -0.0000 C   0  0  0  0  0  0  0  0  0  0  0  0
  -13.0833    0.0591   -0.0000 O   0  0  0  0  0  0  0  0  0  0  0  0
  -10.5282    7.5353   -0.0000 C   0  0  0  0  0  0  0  0  0  0  0  0
  1  2  1  0  0  0  0
  2  3  2  0  0  0  0
  2  4  1  0  0  0  0
  3  5  1  0  0  0  0
  4  6  2  0  0  0  0
  5  7  2  0  0  0  0
  7  8  1  0  0  0  0
  8  9  1  0  0  0  0
  8 10  1  0  0  0  0
  8 11  1  0  0  0  0
  9 12  1  0  0  0  0
 10 13  2  0  0  0  0
 10 14  1  0  0  0  0
 11 15  1  0  0  0  0
 11 16  2  0  0  0  0
 13 17  1  0  0  0  0
 14 18  2  0  0  0  0
 15 19  1  0  0  0  0
 15 20  1  0  0  0  0
 16 21  1  0  0  0  0
 17 22  1  0  0  0  0
 17 23  2  0  0  0  0
 22 24  1  0  0  0  0
 22 25  2  0  0  0  0
 23 26  1  0  0  0  0
 24 27  2  0  0  0  0
 24 28  1  0  0  0  0
 25 29  1  0  0  0  0
 26 30  1  0  0  0  0
 27 31  1  0  0  0  0
 28 32  2  0  0  0  0
 29 33  2  0  0  0  0
 31 34  2  0  0  0  0
  6  7  1  0  0  0  0
 18 23  1  0  0  0  0
 19 21  2  0  0  0  0
 26 29  1  0  0  0  0
 32 34  1  0  0  0  0
M  END
>  <MolRegNo>
628260

>  <m>
=

>  <Value>
2345

>  <Unit>
nM

>  <Type>
IC50

>  <pValue>
5.63

>  <Ligand Efficiency>
0

>  <Binding Efficiency>
0

>  <Surface Efficiency>
0

>  <Assay Index>
476892

>  <Assay Category>


>  <Assay Organism>
Homo sapiens

>  <Target ID>
17045

>  <Target Name>
Cytochrome P450 3A4

>  <Target Organism>
Homo sapiens

>  <Target Description>
Target is a single protein chain

>  <Sequence Accession>
P08684

>  <Reference>
J Med Chem 53 (10), 3887-3898 (2010)

>  <Pubmed ID>
20429511

>  <DOI>
10.1021/jm9013136

$$$$
628312
Actelion Java MolfileCreator 1.0

 35 39  0  0  0  0  0  0  0  0999 V2000
    0.0000   -0.0000   -0.0000 Cl  0  0  0  0  0  0  0  0  0  0  0  0
    0.0000   -1.4982   -0.0000 C   0  0  0  0  0  0  0  0  0  0  0  0
    1.2961   -2.2354   -0.0000 C   0  0  0  0  0  0  0  0  0  0  0  0
   -1.3198   -2.2473   -0.0000 C   0  0  0  0  0  0  0  0  0  0  0  0
    1.2842   -3.7336   -0.0000 C   0  0  0  0  0  0  0  0  0  0  0  0
   -1.3198   -3.7336   -0.0000 C   0  0  0  0  0  0  0  0  0  0  0  0
   -0.0238   -4.4708   -0.0000 C   0  0  0  0  0  0  0  0  0  0  0  0
   -0.0357   -5.9690   -0.0000 C   0  0  0  0  0  0  0  0  0  0  0  0
    1.2604   -6.7062   -0.0000 C   0  0  0  0  0  0  0  0  0  0  0  0
   -1.3436   -6.7062   -0.0000 C   0  0  0  0  0  0  0  0  0  0  0  0
    1.2485   -8.2045   -0.0000 C   0  0  0  0  0  0  0  0  0  0  0  0
    2.5446   -5.9334   -0.0000 C   0  0  0  0  0  0  0  0  0  0  0  0
   -1.3555   -8.2045   -0.0000 C   0  0  0  0  0  0  0  0  0  0  0  0
   -0.0713   -8.9536   -0.0000 N   0  0  0  0  0  0  0  0  0  0  0  0
    2.5446   -8.9417   -0.0000 C   0  0  0  0  0  0  0  0  0  0  0  0
    3.8406   -6.6706   -0.0000 C   0  0  0  0  0  0  0  0  0  0  0  0
   -2.6754   -8.9417   -0.0000 O   0  0  0  0  0  0  0  0  0  0  0  0
   -0.0832  -10.4518   -0.0000 C   0  0  0  0  0  0  0  0  0  0  0  0
    3.8406   -8.1688   -0.0000 C   0  0  0  0  0  0  0  0  0  0  0  0
    5.1248   -5.8977   -0.0000 C   0  0  0  0  0  0  0  0  0  0  0  0
    5.1010   -7.3840   -0.0000 O   0  0  0  0  0  0  0  0  0  0  0  0
    6.4209   -6.6349   -0.0000 C   0  0  0  0  0  0  0  0  0  0  0  0
    5.1010   -4.3757   -0.0000 C   0  0  0  0  0  0  0  0  0  0  0  0
    4.3281   -8.6682   -0.0000 C   0  0  0  0  0  0  0  0  0  0  0  0
    6.4090   -8.1331   -0.0000 C   0  0  0  0  0  0  0  0  0  0  0  0
    7.6932   -5.8620   -0.0000 C   0  0  0  0  0  0  0  0  0  0  0  0
    6.3020   -3.4720   -0.0000 N   0  0  0  0  0  0  0  0  0  0  0  0
    3.8644   -3.4839   -0.0000 C   0  0  0  0  0  0  0  0  0  0  0  0
    7.7051   -8.8703   -0.0000 C   0  0  0  0  0  0  0  0  0  0  0  0
    8.9892   -6.5873   -0.0000 C   0  0  0  0  0  0  0  0  0  0  0  0
    5.8145   -2.0333   -0.0000 C   0  0  0  0  0  0  0  0  0  0  0  0
    7.7288   -3.9120   -0.0000 C   0  0  0  0  0  0  0  0  0  0  0  0
    4.3044   -2.0333   -0.0000 N   0  0  0  0  0  0  0  0  0  0  0  0
    8.9892   -8.0974   -0.0000 C   0  0  0  0  0  0  0  0  0  0  0  0
   10.2853   -8.8346   -0.0000 Cl  0  0  0  0  0  0  0  0  0  0  0  0
  1  2  1  0  0  0  0
  2  3  2  0  0  0  0
  2  4  1  0  0  0  0
  3  5  1  0  0  0  0
  4  6  2  0  0  0  0
  5  7  2  0  0  0  0
  7  8  1  0  0  0  0
  8  9  1  0  0  0  0
  8 10  2  0  0  0  0
  9 11  2  0  0  0  0
  9 12  1  0  0  0  0
 10 13  1  0  0  0  0
 11 14  1  0  0  0  0
 11 15  1  0  0  0  0
 12 16  2  0  0  0  0
 13 17  2  0  0  0  0
 14 18  1  0  0  0  0
 15 19  2  0  0  0  0
 16 20  1  0  0  0  0
 20 21  1  0  0  0  0
 20 22  1  0  0  0  0
 20 23  1  0  0  0  0
 21 24  1  0  0  0  0
 22 25  2  0  0  0  0
 22 26  1  0  0  0  0
 23 27  1  0  0  0  0
 23 28  2  0  0  0  0
 25 29  1  0  0  0  0
 26 30  2  0  0  0  0
 27 31  1  0  0  0  0
 27 32  1  0  0  0  0
 28 33  1  0  0  0  0
 29 34  2  0  0  0  0
 34 35  1  0  0  0  0
  6  7  1  0  0  0  0
 13 14  1  0  0  0  0
 16 19  1  0  0  0  0
 30 34  1  0  0  0  0
 31 33  2  0  0  0  0
M  END
>  <MolRegNo>
628312

>  <m>
=

>  <Value>
923

>  <Unit>
nM

>  <Type>
IC50

>  <pValue>
6.04

>  <Ligand Efficiency>
0

>  <Binding Efficiency>
0

>  <Surface Efficiency>
0

>  <Assay Index>
476892

>  <Assay Category>


>  <Assay Organism>
Homo sapiens

>  <Target ID>
17045

>  <Target Name>
Cytochrome P450 3A4

>  <Target Organism>
Homo sapiens

>  <Target Description>
Target is a single protein chain

>  <Sequence Accession>
P08684

>  <Reference>
J Med Chem 53 (10), 3887-3898 (2010)

>  <Pubmed ID>
20429511

>  <DOI>
10.1021/jm9013136

$$$$
628313
Actelion Java MolfileCreator 1.0

 35 39  0  0  0  0  0  0  0  0999 V2000
    0.0000   -0.0000   -0.0000 Cl  0  0  0  0  0  0  0  0  0  0  0  0
   -1.3130    0.7452   -0.0000 C   0  0  0  0  0  0  0  0  0  0  0  0
   -2.6142   -0.0000   -0.0000 C   0  0  0  0  0  0  0  0  0  0  0  0
   -1.3367    2.2593   -0.0000 C   0  0  0  0  0  0  0  0  0  0  0  0
   -3.9272    0.7452   -0.0000 C   0  0  0  0  0  0  0  0  0  0  0  0
   -2.6497    3.0045   -0.0000 C   0  0  0  0  0  0  0  0  0  0  0  0
   -3.9390    2.2475   -0.0000 C   0  0  0  0  0  0  0  0  0  0  0  0
   -5.2520    2.9927   -0.0000 C   0  0  0  0  0  0  0  0  0  0  0  0
   -5.2757    1.5141   -0.0000 O   0  0  0  0  0  0  0  0  0  0  0  0
   -6.5532    2.2475   -0.0000 C   0  0  0  0  0  0  0  0  0  0  0  0
   -5.2757    4.4950   -0.0000 C   0  0  0  0  0  0  0  0  0  0  0  0
   -6.0446    0.2366   -0.0000 C   0  0  0  0  0  0  0  0  0  0  0  0
   -7.8662    2.9927   -0.0000 C   0  0  0  0  0  0  0  0  0  0  0  0
   -6.5532    0.7570   -0.0000 C   0  0  0  0  0  0  0  0  0  0  0  0
   -4.0928    5.3940   -0.0000 N   0  0  0  0  0  0  0  0  0  0  0  0
   -6.5059    5.3821   -0.0000 C   0  0  0  0  0  0  0  0  0  0  0  0
   -9.1674    2.2593   -0.0000 C   0  0  0  0  0  0  0  0  0  0  0  0
   -7.8544    0.0237   -0.0000 C   0  0  0  0  0  0  0  0  0  0  0  0
   -4.5778    6.8253   -0.0000 C   0  0  0  0  0  0  0  0  0  0  0  0
   -2.6852    4.9563   -0.0000 C   0  0  0  0  0  0  0  0  0  0  0  0
   -6.0682    6.8253   -0.0000 N   0  0  0  0  0  0  0  0  0  0  0  0
  -10.4686    3.0164   -0.0000 C   0  0  0  0  0  0  0  0  0  0  0  0
   -9.1792    0.7689   -0.0000 C   0  0  0  0  0  0  0  0  0  0  0  0
  -10.4804    4.5186   -0.0000 C   0  0  0  0  0  0  0  0  0  0  0  0
  -11.7697    2.2830   -0.0000 C   0  0  0  0  0  0  0  0  0  0  0  0
  -10.4804    0.0237   -0.0000 N   0  0  0  0  0  0  0  0  0  0  0  0
   -9.2029    5.2757   -0.0000 C   0  0  0  0  0  0  0  0  0  0  0  0
  -11.7934    5.2639   -0.0000 C   0  0  0  0  0  0  0  0  0  0  0  0
  -11.7816    0.7925   -0.0000 C   0  0  0  0  0  0  0  0  0  0  0  0
  -10.4922   -1.4550   -0.0000 C   0  0  0  0  0  0  0  0  0  0  0  0
   -9.2147    6.7780   -0.0000 C   0  0  0  0  0  0  0  0  0  0  0  0
  -11.8171    6.7661   -0.0000 C   0  0  0  0  0  0  0  0  0  0  0  0
  -13.0828    0.0591   -0.0000 O   0  0  0  0  0  0  0  0  0  0  0  0
  -10.5277    7.5350   -0.0000 C   0  0  0  0  0  0  0  0  0  0  0  0
  -10.5514    9.0373   -0.0000 F   0  0  0  0  0  0  0  0  0  0  0  0
  1  2  1  0  0  0  0
  2  3  2  0  0  0  0
  2  4  1  0  0  0  0
  3  5  1  0  0  0  0
  4  6  2  0  0  0  0
  5  7  2  0  0  0  0
  7  8  1  0  0  0  0
  8  9  1  0  0  0  0
  8 10  1  0  0  0  0
  8 11  1  0  0  0  0
  9 12  1  0  0  0  0
 10 13  2  0  0  0  0
 10 14  1  0  0  0  0
 11 15  1  0  0  0  0
 11 16  2  0  0  0  0
 13 17  1  0  0  0  0
 14 18  2  0  0  0  0
 15 19  1  0  0  0  0
 15 20  1  0  0  0  0
 16 21  1  0  0  0  0
 17 22  1  0  0  0  0
 17 23  2  0  0  0  0
 22 24  1  0  0  0  0
 22 25  2  0  0  0  0
 23 26  1  0  0  0  0
 24 27  2  0  0  0  0
 24 28  1  0  0  0  0
 25 29  1  0  0  0  0
 26 30  1  0  0  0  0
 27 31  1  0  0  0  0
 28 32  2  0  0  0  0
 29 33  2  0  0  0  0
 31 34  2  0  0  0  0
 34 35  1  0  0  0  0
  6  7  1  0  0  0  0
 18 23  1  0  0  0  0
 19 21  2  0  0  0  0
 26 29  1  0  0  0  0
 32 34  1  0  0  0  0
M  END
>  <MolRegNo>
628313

>  <m>
=

>  <Value>
1628

>  <Unit>
nM

>  <Type>
IC50

>  <pValue>
5.79

>  <Ligand Efficiency>
0

>  <Binding Efficiency>
0

>  <Surface Efficiency>
0

>  <Assay Index>
476892

>  <Assay Category>


>  <Assay Organism>
Homo sapiens

>  <Target ID>
17045

>  <Target Name>
Cytochrome P450 3A4

>  <Target Organism>
Homo sapiens

>  <Target Description>
Target is a single protein chain

>  <Sequence Accession>
P08684

>  <Reference>
J Med Chem 53 (10), 3887-3898 (2010)

>  <Pubmed ID>
20429511

>  <DOI>
10.1021/jm9013136

$$$$
628364
Actelion Java MolfileCreator 1.0

 36 40  0  0  0  0  0  0  0  0999 V2000
    0.0000   -0.0000   -0.0000 Cl  0  0  0  0  0  0  0  0  0  0  0  0
   -1.3137    0.7456   -0.0000 C   0  0  0  0  0  0  0  0  0  0  0  0
   -2.6155   -0.0000   -0.0000 C   0  0  0  0  0  0  0  0  0  0  0  0
   -1.3373    2.2604   -0.0000 C   0  0  0  0  0  0  0  0  0  0  0  0
   -3.9292    0.7456   -0.0000 C   0  0  0  0  0  0  0  0  0  0  0  0
   -2.6510    3.0060   -0.0000 C   0  0  0  0  0  0  0  0  0  0  0  0
   -3.9410    2.2486   -0.0000 C   0  0  0  0  0  0  0  0  0  0  0  0
   -5.2546    2.9942   -0.0000 C   0  0  0  0  0  0  0  0  0  0  0  0
   -5.2783    1.5149   -0.0000 O   0  0  0  0  0  0  0  0  0  0  0  0
   -6.5565    2.2486   -0.0000 C   0  0  0  0  0  0  0  0  0  0  0  0
   -5.2783    4.4972   -0.0000 C   0  0  0  0  0  0  0  0  0  0  0  0
   -6.0476    0.2367   -0.0000 C   0  0  0  0  0  0  0  0  0  0  0  0
   -7.8701    2.9942   -0.0000 C   0  0  0  0  0  0  0  0  0  0  0  0
   -6.5565    0.7574   -0.0000 C   0  0  0  0  0  0  0  0  0  0  0  0
   -4.0948    5.3967   -0.0000 N   0  0  0  0  0  0  0  0  0  0  0  0
   -6.5091    5.3848   -0.0000 C   0  0  0  0  0  0  0  0  0  0  0  0
   -9.1720    2.2604   -0.0000 C   0  0  0  0  0  0  0  0  0  0  0  0
   -7.8583    0.0237   -0.0000 C   0  0  0  0  0  0  0  0  0  0  0  0
   -4.5801    6.8287   -0.0000 C   0  0  0  0  0  0  0  0  0  0  0  0
   -2.6865    4.9588   -0.0000 C   0  0  0  0  0  0  0  0  0  0  0  0
   -6.0712    6.8287   -0.0000 N   0  0  0  0  0  0  0  0  0  0  0  0
  -10.4738    3.0179   -0.0000 C   0  0  0  0  0  0  0  0  0  0  0  0
   -9.1838    0.7693   -0.0000 C   0  0  0  0  0  0  0  0  0  0  0  0
  -10.4856    4.5209   -0.0000 C   0  0  0  0  0  0  0  0  0  0  0  0
  -11.7756    2.2841   -0.0000 C   0  0  0  0  0  0  0  0  0  0  0  0
  -10.4856    0.0237   -0.0000 N   0  0  0  0  0  0  0  0  0  0  0  0
   -9.2075    5.2783   -0.0000 C   0  0  0  0  0  0  0  0  0  0  0  0
  -11.7993    5.2665   -0.0000 C   0  0  0  0  0  0  0  0  0  0  0  0
  -11.7875    0.7929   -0.0000 C   0  0  0  0  0  0  0  0  0  0  0  0
  -10.4975   -1.4557   -0.0000 C   0  0  0  0  0  0  0  0  0  0  0  0
   -7.9293    4.5446   -0.0000 F   0  0  0  0  0  0  0  0  0  0  0  0
   -9.2193    6.7813   -0.0000 C   0  0  0  0  0  0  0  0  0  0  0  0
  -13.1011    4.5209   -0.0000 F   0  0  0  0  0  0  0  0  0  0  0  0
  -11.8230    6.7695   -0.0000 C   0  0  0  0  0  0  0  0  0  0  0  0
  -13.0893    0.0592   -0.0000 O   0  0  0  0  0  0  0  0  0  0  0  0
  -10.5330    7.5388   -0.0000 C   0  0  0  0  0  0  0  0  0  0  0  0
  1  2  1  0  0  0  0
  2  3  2  0  0  0  0
  2  4  1  0  0  0  0
  3  5  1  0  0  0  0
  4  6  2  0  0  0  0
  5  7  2  0  0  0  0
  7  8  1  0  0  0  0
  8  9  1  0  0  0  0
  8 10  1  0  0  0  0
  8 11  1  0  0  0  0
  9 12  1  0  0  0  0
 10 13  2  0  0  0  0
 10 14  1  0  0  0  0
 11 15  1  0  0  0  0
 11 16  2  0  0  0  0
 13 17  1  0  0  0  0
 14 18  2  0  0  0  0
 15 19  1  0  0  0  0
 15 20  1  0  0  0  0
 16 21  1  0  0  0  0
 17 22  1  0  0  0  0
 17 23  2  0  0  0  0
 22 24  1  0  0  0  0
 22 25  2  0  0  0  0
 23 26  1  0  0  0  0
 24 27  2  0  0  0  0
 24 28  1  0  0  0  0
 25 29  1  0  0  0  0
 26 30  1  0  0  0  0
 27 31  1  0  0  0  0
 27 32  1  0  0  0  0
 28 33  1  0  0  0  0
 28 34  2  0  0  0  0
 29 35  2  0  0  0  0
 32 36  2  0  0  0  0
  6  7  1  0  0  0  0
 18 23  1  0  0  0  0
 19 21  2  0  0  0  0
 26 29  1  0  0  0  0
 34 36  1  0  0  0  0
M  END
>  <MolRegNo>
628364

>  <m>
=

>  <Value>
275

>  <Unit>
nM

>  <Type>
IC50

>  <pValue>
6.56

>  <Ligand Efficiency>
0

>  <Binding Efficiency>
0

>  <Surface Efficiency>
0

>  <Assay Index>
476892

>  <Assay Category>


>  <Assay Organism>
Homo sapiens

>  <Target ID>
17045

>  <Target Name>
Cytochrome P450 3A4

>  <Target Organism>
Homo sapiens

>  <Target Description>
Target is a single protein chain

>  <Sequence Accession>
P08684

>  <Reference>
J Med Chem 53 (10), 3887-3898 (2010)

>  <Pubmed ID>
20429511

>  <DOI>
10.1021/jm9013136

$$$$
427175
Actelion Java MolfileCreator 1.0

 23 25  0  0  0  0  0  0  0  0999 V2000
    0.0000   -0.0000   -0.0000 O   0  0  0  0  0  0  0  0  0  0  0  0
   -0.0119   -1.5009   -0.0000 C   0  0  0  0  0  0  0  0  0  0  0  0
    1.2984    0.7624   -0.0000 C   0  0  0  0  0  0  0  0  0  0  0  0
   -1.3342   -2.2395   -0.0000 C   0  0  0  0  0  0  0  0  0  0  0  0
    1.2865   -2.2514   -0.0000 C   0  0  0  0  0  0  0  0  0  0  0  0
    1.2865    1.9894   -0.0000 C   0  0  0  0  0  0  0  0  0  0  0  0
   -1.3461   -3.7405   -0.0000 C   0  0  0  0  0  0  0  0  0  0  0  0
   -2.6564   -1.4771   -0.0000 C   0  0  0  0  0  0  0  0  0  0  0  0
    1.2746   -3.7524   -0.0000 C   0  0  0  0  0  0  0  0  0  0  0  0
   -0.0476   -4.4909   -0.0000 C   0  0  0  0  0  0  0  0  0  0  0  0
   -3.9787   -2.2276   -0.0000 C   0  0  0  0  0  0  0  0  0  0  0  0
   -3.9906   -3.7285   -0.0000 N   0  0  0  0  0  0  0  0  0  0  0  0
   -5.3010   -1.4652   -0.0000 C   0  0  0  0  0  0  0  0  0  0  0  0
   -2.6922   -4.4671   -0.0000 C   0  0  0  0  0  0  0  0  0  0  0  0
   -5.3129   -4.4671   -0.0000 C   0  0  0  0  0  0  0  0  0  0  0  0
   -5.3129    0.0596   -0.0000 C   0  0  0  0  0  0  0  0  0  0  0  0
   -6.6232   -2.2157   -0.0000 C   0  0  0  0  0  0  0  0  0  0  0  0
   -2.7041   -5.9681   -0.0000 C   0  0  0  0  0  0  0  0  0  0  0  0
   -5.3248   -5.9681   -0.0000 C   0  0  0  0  0  0  0  0  0  0  0  0
   -6.6351    0.8219   -0.0000 C   0  0  0  0  0  0  0  0  0  0  0  0
   -7.9455   -1.4533   -0.0000 C   0  0  0  0  0  0  0  0  0  0  0  0
   -4.0264   -6.7066   -0.0000 N   0  0  0  0  0  0  0  0  0  0  0  0
   -7.9574    0.0715   -0.0000 C   0  0  0  0  0  0  0  0  0  0  0  0
  1  2  1  0  0  0  0
  1  3  1  0  0  0  0
  2  4  2  0  0  0  0
  2  5  1  0  0  0  0
  3  6  1  0  0  0  0
  4  7  1  0  0  0  0
  4  8  1  0  0  0  0
  5  9  2  0  0  0  0
  7 10  2  0  0  0  0
  8 11  1  0  0  0  0
 11 12  1  6  0  0  0
 11 13  1  0  0  0  0
 12 14  1  0  0  0  0
 12 15  1  0  0  0  0
 13 16  2  0  0  0  0
 13 17  1  0  0  0  0
 14 18  1  0  0  0  0
 15 19  1  0  0  0  0
 16 20  1  0  0  0  0
 17 21  2  0  0  0  0
 18 22  1  0  0  0  0
 20 23  2  0  0  0  0
  9 10  1  0  0  0  0
 19 22  1  0  0  0  0
 21 23  1  0  0  0  0
M  END
>  <MolRegNo>
427175

>  <m>
=

>  <Value>
30000

>  <Unit>
nM

>  <Type>
IC50

>  <pValue>
4.52

>  <Ligand Efficiency>
0

>  <Binding Efficiency>
0

>  <Surface Efficiency>
0

>  <Assay Index>
480319

>  <Assay Category>


>  <Assay Organism>


>  <Target ID>
17045

>  <Target Name>
Cytochrome P450 3A4

>  <Target Organism>
Homo sapiens

>  <Target Description>
Target is a single protein chain

>  <Sequence Accession>
P08684

>  <Reference>
Bioorg Med Chem Lett 20 (12), 3788-3792 (2010)

>  <Pubmed ID>
20471260

>  <DOI>
10.1016/j.bmcl.2010.04.052

$$$$
355158
Actelion Java MolfileCreator 1.0

 22 24  0  0  0  0  0  0  0  0999 V2000
    0.0000   -0.0000   -0.0000 O   0  0  0  0  0  0  0  0  0  0  0  0
    1.2819    0.7596   -0.0000 C   0  0  0  0  0  0  0  0  0  0  0  0
   -1.3056    0.7596   -0.0000 C   0  0  0  0  0  0  0  0  0  0  0  0
    1.2819    2.2671   -0.0000 C   0  0  0  0  0  0  0  0  0  0  0  0
    2.5638    0.0237   -0.0000 C   0  0  0  0  0  0  0  0  0  0  0  0
    2.5519    3.0386   -0.0000 C   0  0  0  0  0  0  0  0  0  0  0  0
   -0.0237    3.0267   -0.0000 C   0  0  0  0  0  0  0  0  0  0  0  0
    3.8457    0.7834   -0.0000 C   0  0  0  0  0  0  0  0  0  0  0  0
    3.8338    2.3027   -0.0000 C   0  0  0  0  0  0  0  0  0  0  0  0
   -0.0356    4.5341   -0.0000 C   0  0  0  0  0  0  0  0  0  0  0  0
    1.2463    5.2938   -0.0000 N   0  0  0  0  0  0  0  0  0  0  0  0
   -1.3412    5.2938   -0.0000 C   0  0  0  0  0  0  0  0  0  0  0  0
    2.5282    4.5579   -0.0000 C   0  0  0  0  0  0  0  0  0  0  0  0
    1.2225    6.7893   -0.0000 C   0  0  0  0  0  0  0  0  0  0  0  0
   -2.6587    4.5579   -0.0000 C   0  0  0  0  0  0  0  0  0  0  0  0
   -1.3531    6.8130   -0.0000 C   0  0  0  0  0  0  0  0  0  0  0  0
    3.8101    5.3056   -0.0000 C   0  0  0  0  0  0  0  0  0  0  0  0
    2.5163    7.5489   -0.0000 C   0  0  0  0  0  0  0  0  0  0  0  0
   -3.9644    5.3175   -0.0000 C   0  0  0  0  0  0  0  0  0  0  0  0
   -2.6587    7.5727   -0.0000 C   0  0  0  0  0  0  0  0  0  0  0  0
    3.7982    6.8130   -0.0000 N   0  0  0  0  0  0  0  0  0  0  0  0
   -3.9763    6.8368   -0.0000 C   0  0  0  0  0  0  0  0  0  0  0  0
  1  2  1  0  0  0  0
  1  3  1  0  0  0  0
  2  4  2  0  0  0  0
  2  5  1  0  0  0  0
  4  6  1  0  0  0  0
  4  7  1  0  0  0  0
  5  8  2  0  0  0  0
  6  9  2  0  0  0  0
  7 10  1  0  0  0  0
 10 11  1  0  0  0  0
 10 12  1  0  0  0  0
 11 13  1  0  0  0  0
 11 14  1  0  0  0  0
 12 15  2  0  0  0  0
 12 16  1  0  0  0  0
 13 17  1  0  0  0  0
 14 18  1  0  0  0  0
 15 19  1  0  0  0  0
 16 20  2  0  0  0  0
 17 21  1  0  0  0  0
 19 22  2  0  0  0  0
  8  9  1  0  0  0  0
 18 21  1  0  0  0  0
 20 22  1  0  0  0  0
M  END
>  <MolRegNo>
355158

>  <m>
=

>  <Value>
194000

>  <Unit>
nM

>  <Type>
IC50

>  <pValue>
0

>  <Ligand Efficiency>
0

>  <Binding Efficiency>
0

>  <Surface Efficiency>
0

>  <Assay Index>
480319

>  <Assay Category>


>  <Assay Organism>


>  <Target ID>
17045

>  <Target Name>
Cytochrome P450 3A4

>  <Target Organism>
Homo sapiens

>  <Target Description>
Target is a single protein chain

>  <Sequence Accession>
P08684

>  <Reference>
Bioorg Med Chem Lett 20 (12), 3788-3792 (2010)

>  <Pubmed ID>
20471260

>  <DOI>
10.1016/j.bmcl.2010.04.052

$$$$
648537
Actelion Java MolfileCreator 1.0

 29 31  0  0  0  0  0  0  0  0999 V2000
    0.0000   -0.0000   -0.0000 Cl  0  0  0  0  0  0  0  0  0  0  0  0
   -1.2943   -0.7481   -0.0000 C   0  0  0  0  0  0  0  0  0  0  0  0
   -1.2824   -2.2442   -0.0000 C   0  0  0  0  0  0  0  0  0  0  0  0
   -2.6123   -0.0000   -0.0000 C   0  0  0  0  0  0  0  0  0  0  0  0
    0.0119   -2.9686   -0.0000 Cl  0  0  0  0  0  0  0  0  0  0  0  0
   -2.5886   -2.9923   -0.0000 C   0  0  0  0  0  0  0  0  0  0  0  0
   -3.9066   -0.7481   -0.0000 C   0  0  0  0  0  0  0  0  0  0  0  0
   -3.9066   -2.2442   -0.0000 C   0  0  0  0  0  0  0  0  0  0  0  0
   -5.2247   -0.0000   -0.0000 S   0  0  0  0  0  0  0  0  0  0  0  0
   -6.3052    1.0806   -0.0000 O   0  0  0  0  0  0  0  0  0  0  0  0
   -4.5003    1.3180   -0.0000 O   0  0  0  0  0  0  0  0  0  0  0  0
   -6.5308   -0.7481   -0.0000 N   0  0  0  0  0  0  0  0  0  0  0  0
   -6.5308   -2.2324   -0.0000 C   0  0  0  0  0  0  0  0  0  0  0  0
   -7.8251   -2.9804   -0.0000 C   0  0  0  0  0  0  0  0  0  0  0  0
   -5.2484   -2.9567   -0.0000 C   0  0  0  0  0  0  0  0  0  0  0  0
   -9.1313   -2.2205   -0.0000 O   0  0  0  0  0  0  0  0  0  0  0  0
   -7.8370   -4.4647   -0.0000 N   0  0  0  0  0  0  0  0  0  0  0  0
   -5.2484   -4.4528   -0.0000 C   0  0  0  0  0  0  0  0  0  0  0  0
  -10.4375   -2.9567   -0.0000 C   0  0  0  0  0  0  0  0  0  0  0  0
   -6.5546   -5.2009   -0.0000 C   0  0  0  0  0  0  0  0  0  0  0  0
   -3.9541   -5.1890   -0.0000 Cl  0  0  0  0  0  0  0  0  0  0  0  0
  -11.7436   -2.1967   -0.0000 C   0  0  0  0  0  0  0  0  0  0  0  0
  -10.4493   -4.4528   -0.0000 C   0  0  0  0  0  0  0  0  0  0  0  0
  -11.7555   -0.6768   -0.0000 C   0  0  0  0  0  0  0  0  0  0  0  0
  -13.0498   -2.9329   -0.0000 C   0  0  0  0  0  0  0  0  0  0  0  0
  -11.7674   -5.1890   -0.0000 C   0  0  0  0  0  0  0  0  0  0  0  0
  -13.0617    0.0831   -0.0000 O   0  0  0  0  0  0  0  0  0  0  0  0
  -10.4731    0.0831   -0.0000 O   0  0  0  0  0  0  0  0  0  0  0  0
  -13.0617   -4.4172   -0.0000 C   0  0  0  0  0  0  0  0  0  0  0  0
  1  2  1  0  0  0  0
  2  3  2  0  0  0  0
  2  4  1  0  0  0  0
  3  5  1  0  0  0  0
  3  6  1  0  0  0  0
  4  7  2  0  0  0  0
  6  8  2  0  0  0  0
  7  9  1  0  0  0  0
  9 10  2  0  0  0  0
  9 11  2  0  0  0  0
  9 12  1  0  0  0  0
 12 13  1  0  0  0  0
 13 14  2  0  0  0  0
 13 15  1  0  0  0  0
 14 16  1  0  0  0  0
 14 17  1  0  0  0  0
 15 18  2  0  0  0  0
 16 19  1  0  0  0  0
 17 20  2  0  0  0  0
 18 21  1  0  0  0  0
 19 22  2  0  0  0  0
 19 23  1  0  0  0  0
 22 24  1  0  0  0  0
 22 25  1  0  0  0  0
 23 26  2  0  0  0  0
 24 27  2  0  0  0  0
 24 28  1  0  0  0  0
 25 29  2  0  0  0  0
  7  8  1  0  0  0  0
 18 20  1  0  0  0  0
 26 29  1  0  0  0  0
M  END
>  <MolRegNo>
648537

>  <m>
=

>  <Value>
1.0e5

>  <Unit>
nM

>  <Type>
IC50

>  <pValue>
4

>  <Ligand Efficiency>
0

>  <Binding Efficiency>
0

>  <Surface Efficiency>
0

>  <Assay Index>
485137

>  <Assay Category>


>  <Assay Organism>


>  <Target ID>
17045

>  <Target Name>
Cytochrome P450 3A4

>  <Target Organism>
Homo sapiens

>  <Target Description>
Target is a single protein chain

>  <Sequence Accession>
P08684

>  <Reference>
Bioorg Med Chem Lett 20 (13), 3961-3964 (2010)

>  <Pubmed ID>
20627722

>  <DOI>
10.1016/j.bmcl.2010.04.142

$$$$
648581
Actelion Java MolfileCreator 1.0

 32 34  0  0  0  0  0  0  0  0999 V2000
    0.0000   -0.0000   -0.0000 Cl  0  0  0  0  0  0  0  0  0  0  0  0
   -1.2936   -0.7477   -0.0000 C   0  0  0  0  0  0  0  0  0  0  0  0
   -1.2817   -2.2430   -0.0000 C   0  0  0  0  0  0  0  0  0  0  0  0
   -2.6109   -0.0000   -0.0000 C   0  0  0  0  0  0  0  0  0  0  0  0
    0.0119   -2.9670   -0.0000 Cl  0  0  0  0  0  0  0  0  0  0  0  0
   -2.5872   -2.9907   -0.0000 C   0  0  0  0  0  0  0  0  0  0  0  0
   -3.9045   -0.7477   -0.0000 C   0  0  0  0  0  0  0  0  0  0  0  0
   -3.9045   -2.2430   -0.0000 C   0  0  0  0  0  0  0  0  0  0  0  0
   -5.2219   -0.0000   -0.0000 S   0  0  0  0  0  0  0  0  0  0  0  0
   -6.3018    1.0800   -0.0000 O   0  0  0  0  0  0  0  0  0  0  0  0
   -4.4979    1.3173   -0.0000 O   0  0  0  0  0  0  0  0  0  0  0  0
   -6.5273   -0.7477   -0.0000 N   0  0  0  0  0  0  0  0  0  0  0  0
   -6.5273   -2.2312   -0.0000 C   0  0  0  0  0  0  0  0  0  0  0  0
   -7.8209   -2.9788   -0.0000 C   0  0  0  0  0  0  0  0  0  0  0  0
   -5.2456   -2.9551   -0.0000 C   0  0  0  0  0  0  0  0  0  0  0  0
   -9.1264   -2.2193   -0.0000 O   0  0  0  0  0  0  0  0  0  0  0  0
   -7.8328   -4.4623   -0.0000 N   0  0  0  0  0  0  0  0  0  0  0  0
   -5.2456   -4.4505   -0.0000 C   0  0  0  0  0  0  0  0  0  0  0  0
  -10.4319   -2.9551   -0.0000 C   0  0  0  0  0  0  0  0  0  0  0  0
   -6.5511   -5.1981   -0.0000 C   0  0  0  0  0  0  0  0  0  0  0  0
   -3.9520   -5.1863   -0.0000 Cl  0  0  0  0  0  0  0  0  0  0  0  0
  -11.7373   -2.1956   -0.0000 C   0  0  0  0  0  0  0  0  0  0  0  0
  -10.4437   -4.4505   -0.0000 C   0  0  0  0  0  0  0  0  0  0  0  0
  -11.7492   -0.6765   -0.0000 C   0  0  0  0  0  0  0  0  0  0  0  0
  -13.0428   -2.9314   -0.0000 C   0  0  0  0  0  0  0  0  0  0  0  0
  -11.7611   -5.1863   -0.0000 C   0  0  0  0  0  0  0  0  0  0  0  0
  -10.4675    0.0831   -0.0000 O   0  0  0  0  0  0  0  0  0  0  0  0
  -13.0547    0.0831   -0.0000 N   0  0  0  0  0  0  0  0  0  0  0  0
  -13.0547   -4.4149   -0.0000 C   0  0  0  0  0  0  0  0  0  0  0  0
  -13.0665    1.5903   -0.0000 C   0  0  0  0  0  0  0  0  0  0  0  0
  -14.3720    2.3498   -0.0000 C   0  0  0  0  0  0  0  0  0  0  0  0
  -14.3839    3.8571   -0.0000 O   0  0  0  0  0  0  0  0  0  0  0  0
  1  2  1  0  0  0  0
  2  3  2  0  0  0  0
  2  4  1  0  0  0  0
  3  5  1  0  0  0  0
  3  6  1  0  0  0  0
  4  7  2  0  0  0  0
  6  8  2  0  0  0  0
  7  9  1  0  0  0  0
  9 10  2  0  0  0  0
  9 11  2  0  0  0  0
  9 12  1  0  0  0  0
 12 13  1  0  0  0  0
 13 14  2  0  0  0  0
 13 15  1  0  0  0  0
 14 16  1  0  0  0  0
 14 17  1  0  0  0  0
 15 18  2  0  0  0  0
 16 19  1  0  0  0  0
 17 20  2  0  0  0  0
 18 21  1  0  0  0  0
 19 22  2  0  0  0  0
 19 23  1  0  0  0  0
 22 24  1  0  0  0  0
 22 25  1  0  0  0  0
 23 26  2  0  0  0  0
 24 27  2  0  0  0  0
 24 28  1  0  0  0  0
 25 29  2  0  0  0  0
 28 30  1  0  0  0  0
 30 31  1  0  0  0  0
 31 32  1  0  0  0  0
  7  8  1  0  0  0  0
 18 20  1  0  0  0  0
 26 29  1  0  0  0  0
M  END
>  <MolRegNo>
648581

>  <m>
=

>  <Value>
20417

>  <Unit>
nM

>  <Type>
IC50

>  <pValue>
4.69

>  <Ligand Efficiency>
0

>  <Binding Efficiency>
0

>  <Surface Efficiency>
0

>  <Assay Index>
485137

>  <Assay Category>


>  <Assay Organism>


>  <Target ID>
17045

>  <Target Name>
Cytochrome P450 3A4

>  <Target Organism>
Homo sapiens

>  <Target Description>
Target is a single protein chain

>  <Sequence Accession>
P08684

>  <Reference>
Bioorg Med Chem Lett 20 (13), 3961-3964 (2010)

>  <Pubmed ID>
20627722

>  <DOI>
10.1016/j.bmcl.2010.04.142

$$$$
648479
Actelion Java MolfileCreator 1.0

 29 31  0  0  0  0  0  0  0  0999 V2000
    0.0000   -0.0000   -0.0000 Cl  0  0  0  0  0  0  0  0  0  0  0  0
   -1.2943   -0.7481   -0.0000 C   0  0  0  0  0  0  0  0  0  0  0  0
   -1.2824   -2.2442   -0.0000 C   0  0  0  0  0  0  0  0  0  0  0  0
   -2.6123   -0.0000   -0.0000 C   0  0  0  0  0  0  0  0  0  0  0  0
    0.0119   -2.9686   -0.0000 Cl  0  0  0  0  0  0  0  0  0  0  0  0
   -2.5886   -2.9923   -0.0000 C   0  0  0  0  0  0  0  0  0  0  0  0
   -3.9066   -0.7481   -0.0000 C   0  0  0  0  0  0  0  0  0  0  0  0
   -3.9066   -2.2442   -0.0000 C   0  0  0  0  0  0  0  0  0  0  0  0
   -5.2247   -0.0000   -0.0000 S   0  0  0  0  0  0  0  0  0  0  0  0
   -6.3052    1.0806   -0.0000 O   0  0  0  0  0  0  0  0  0  0  0  0
   -4.5003    1.3180   -0.0000 O   0  0  0  0  0  0  0  0  0  0  0  0
   -6.5308   -0.7481   -0.0000 N   0  0  0  0  0  0  0  0  0  0  0  0
   -6.5308   -2.2324   -0.0000 C   0  0  0  0  0  0  0  0  0  0  0  0
   -7.8251   -2.9804   -0.0000 C   0  0  0  0  0  0  0  0  0  0  0  0
   -5.2484   -2.9567   -0.0000 C   0  0  0  0  0  0  0  0  0  0  0  0
   -9.1313   -2.2205   -0.0000 O   0  0  0  0  0  0  0  0  0  0  0  0
   -7.8370   -4.4647   -0.0000 C   0  0  0  0  0  0  0  0  0  0  0  0
   -5.2484   -4.4528   -0.0000 C   0  0  0  0  0  0  0  0  0  0  0  0
  -10.4375   -2.9567   -0.0000 C   0  0  0  0  0  0  0  0  0  0  0  0
   -6.5546   -5.2009   -0.0000 C   0  0  0  0  0  0  0  0  0  0  0  0
   -3.9541   -5.1890   -0.0000 Cl  0  0  0  0  0  0  0  0  0  0  0  0
  -11.7436   -2.1967   -0.0000 C   0  0  0  0  0  0  0  0  0  0  0  0
  -10.4493   -4.4528   -0.0000 C   0  0  0  0  0  0  0  0  0  0  0  0
  -11.7555   -0.6768   -0.0000 C   0  0  0  0  0  0  0  0  0  0  0  0
  -13.0498   -2.9329   -0.0000 C   0  0  0  0  0  0  0  0  0  0  0  0
  -11.7674   -5.1890   -0.0000 C   0  0  0  0  0  0  0  0  0  0  0  0
  -13.0617    0.0831   -0.0000 O   0  0  0  0  0  0  0  0  0  0  0  0
  -10.4731    0.0831   -0.0000 O   0  0  0  0  0  0  0  0  0  0  0  0
  -13.0617   -4.4172   -0.0000 C   0  0  0  0  0  0  0  0  0  0  0  0
  1  2  1  0  0  0  0
  2  3  2  0  0  0  0
  2  4  1  0  0  0  0
  3  5  1  0  0  0  0
  3  6  1  0  0  0  0
  4  7  2  0  0  0  0
  6  8  2  0  0  0  0
  7  9  1  0  0  0  0
  9 10  2  0  0  0  0
  9 11  2  0  0  0  0
  9 12  1  0  0  0  0
 12 13  1  0  0  0  0
 13 14  2  0  0  0  0
 13 15  1  0  0  0  0
 14 16  1  0  0  0  0
 14 17  1  0  0  0  0
 15 18  2  0  0  0  0
 16 19  1  0  0  0  0
 17 20  2  0  0  0  0
 18 21  1  0  0  0  0
 19 22  2  0  0  0  0
 19 23  1  0  0  0  0
 22 24  1  0  0  0  0
 22 25  1  0  0  0  0
 23 26  2  0  0  0  0
 24 27  2  0  0  0  0
 24 28  1  0  0  0  0
 25 29  2  0  0  0  0
  7  8  1  0  0  0  0
 18 20  1  0  0  0  0
 26 29  1  0  0  0  0
M  END
>  <MolRegNo>
648479

>  <m>
=

>  <Value>
10000

>  <Unit>
nM

>  <Type>
IC50

>  <pValue>
5

>  <Ligand Efficiency>
0

>  <Binding Efficiency>
0

>  <Surface Efficiency>
0

>  <Assay Index>
485137

>  <Assay Category>


>  <Assay Organism>


>  <Target ID>
17045

>  <Target Name>
Cytochrome P450 3A4

>  <Target Organism>
Homo sapiens

>  <Target Description>
Target is a single protein chain

>  <Sequence Accession>
P08684

>  <Reference>
Bioorg Med Chem Lett 20 (13), 3961-3964 (2010)

>  <Pubmed ID>
20627722

>  <DOI>
10.1016/j.bmcl.2010.04.142

$$$$
648614
Actelion Java MolfileCreator 1.0

 27 29  0  0  0  0  0  0  0  0999 V2000
    0.0000   -0.0000   -0.0000 Cl  0  0  0  0  0  0  0  0  0  0  0  0
   -1.2941   -0.7480   -0.0000 C   0  0  0  0  0  0  0  0  0  0  0  0
   -1.2823   -2.2439   -0.0000 C   0  0  0  0  0  0  0  0  0  0  0  0
   -2.6120   -0.0000   -0.0000 C   0  0  0  0  0  0  0  0  0  0  0  0
    0.0119   -2.9682   -0.0000 Cl  0  0  0  0  0  0  0  0  0  0  0  0
   -2.5882   -2.9919   -0.0000 C   0  0  0  0  0  0  0  0  0  0  0  0
   -3.9061   -0.7480   -0.0000 C   0  0  0  0  0  0  0  0  0  0  0  0
   -3.9061   -2.2439   -0.0000 C   0  0  0  0  0  0  0  0  0  0  0  0
   -5.2240   -0.0000   -0.0000 S   0  0  0  0  0  0  0  0  0  0  0  0
   -6.3044    1.0804   -0.0000 O   0  0  0  0  0  0  0  0  0  0  0  0
   -4.4998    1.3179   -0.0000 O   0  0  0  0  0  0  0  0  0  0  0  0
   -6.5300   -0.7480   -0.0000 N   0  0  0  0  0  0  0  0  0  0  0  0
   -6.5300   -2.2321   -0.0000 C   0  0  0  0  0  0  0  0  0  0  0  0
   -7.8241   -2.9800   -0.0000 C   0  0  0  0  0  0  0  0  0  0  0  0
   -5.2477   -2.9563   -0.0000 C   0  0  0  0  0  0  0  0  0  0  0  0
   -9.1301   -2.2202   -0.0000 O   0  0  0  0  0  0  0  0  0  0  0  0
   -7.8360   -4.4641   -0.0000 N   0  0  0  0  0  0  0  0  0  0  0  0
   -5.2477   -4.4523   -0.0000 C   0  0  0  0  0  0  0  0  0  0  0  0
  -10.4361   -2.9563   -0.0000 C   0  0  0  0  0  0  0  0  0  0  0  0
   -6.5537   -5.2002   -0.0000 C   0  0  0  0  0  0  0  0  0  0  0  0
   -3.9536   -5.1884   -0.0000 Cl  0  0  0  0  0  0  0  0  0  0  0  0
  -10.4480   -4.4523   -0.0000 C   0  0  0  0  0  0  0  0  0  0  0  0
  -11.7421   -2.1965   -0.0000 C   0  0  0  0  0  0  0  0  0  0  0  0
  -11.7659   -5.1884   -0.0000 N   0  0  0  0  0  0  0  0  0  0  0  0
  -13.0481   -2.9326   -0.0000 C   0  0  0  0  0  0  0  0  0  0  0  0
  -13.0718   -4.4285   -0.0000 C   0  0  0  0  0  0  0  0  0  0  0  0
  -14.3541   -2.1727   -0.0000 Cl  0  0  0  0  0  0  0  0  0  0  0  0
  1  2  1  0  0  0  0
  2  3  2  0  0  0  0
  2  4  1  0  0  0  0
  3  5  1  0  0  0  0
  3  6  1  0  0  0  0
  4  7  2  0  0  0  0
  6  8  2  0  0  0  0
  7  9  1  0  0  0  0
  9 10  2  0  0  0  0
  9 11  2  0  0  0  0
  9 12  1  0  0  0  0
 12 13  1  0  0  0  0
 13 14  2  0  0  0  0
 13 15  1  0  0  0  0
 14 16  1  0  0  0  0
 14 17  1  0  0  0  0
 15 18  2  0  0  0  0
 16 19  1  0  0  0  0
 17 20  2  0  0  0  0
 18 21  1  0  0  0  0
 19 22  2  0  0  0  0
 19 23  1  0  0  0  0
 22 24  1  0  0  0  0
 23 25  2  0  0  0  0
 24 26  2  0  0  0  0
 25 27  1  0  0  0  0
  7  8  1  0  0  0  0
 18 20  1  0  0  0  0
 25 26  1  0  0  0  0
M  END
>  <MolRegNo>
648614

>  <m>
=

>  <Value>
436.52

>  <Unit>
nM

>  <Type>
IC50

>  <pValue>
6.36

>  <Ligand Efficiency>
0

>  <Binding Efficiency>
0

>  <Surface Efficiency>
0

>  <Assay Index>
485137

>  <Assay Category>


>  <Assay Organism>


>  <Target ID>
17045

>  <Target Name>
Cytochrome P450 3A4

>  <Target Organism>
Homo sapiens

>  <Target Description>
Target is a single protein chain

>  <Sequence Accession>
P08684

>  <Reference>
Bioorg Med Chem Lett 20 (13), 3961-3964 (2010)

>  <Pubmed ID>
20627722

>  <DOI>
10.1016/j.bmcl.2010.04.142

$$$$
648612
Actelion Java MolfileCreator 1.0

 27 29  0  0  0  0  0  0  0  0999 V2000
    0.0000   -0.0000   -0.0000 Cl  0  0  0  0  0  0  0  0  0  0  0  0
   -1.2951   -0.7485   -0.0000 C   0  0  0  0  0  0  0  0  0  0  0  0
   -1.2832   -2.2456   -0.0000 C   0  0  0  0  0  0  0  0  0  0  0  0
   -2.6139   -0.0000   -0.0000 C   0  0  0  0  0  0  0  0  0  0  0  0
    0.0119   -2.9704   -0.0000 Cl  0  0  0  0  0  0  0  0  0  0  0  0
   -2.5902   -2.9942   -0.0000 C   0  0  0  0  0  0  0  0  0  0  0  0
   -3.9090   -0.7485   -0.0000 C   0  0  0  0  0  0  0  0  0  0  0  0
   -3.9090   -2.2456   -0.0000 C   0  0  0  0  0  0  0  0  0  0  0  0
   -5.2279   -0.0000   -0.0000 S   0  0  0  0  0  0  0  0  0  0  0  0
   -6.3091    1.0812   -0.0000 O   0  0  0  0  0  0  0  0  0  0  0  0
   -4.5031    1.3189   -0.0000 O   0  0  0  0  0  0  0  0  0  0  0  0
   -6.5349   -0.7485   -0.0000 N   0  0  0  0  0  0  0  0  0  0  0  0
   -6.5349   -2.2337   -0.0000 C   0  0  0  0  0  0  0  0  0  0  0  0
   -7.8300   -2.9823   -0.0000 C   0  0  0  0  0  0  0  0  0  0  0  0
   -5.2517   -2.9585   -0.0000 C   0  0  0  0  0  0  0  0  0  0  0  0
   -9.1369   -2.2219   -0.0000 O   0  0  0  0  0  0  0  0  0  0  0  0
   -7.8418   -4.4675   -0.0000 N   0  0  0  0  0  0  0  0  0  0  0  0
   -5.2517   -4.4556   -0.0000 C   0  0  0  0  0  0  0  0  0  0  0  0
  -10.4439   -2.9585   -0.0000 C   0  0  0  0  0  0  0  0  0  0  0  0
   -6.5586   -5.2041   -0.0000 C   0  0  0  0  0  0  0  0  0  0  0  0
   -3.9566   -5.1922   -0.0000 Cl  0  0  0  0  0  0  0  0  0  0  0  0
  -10.4558   -4.4556   -0.0000 C   0  0  0  0  0  0  0  0  0  0  0  0
  -11.7509   -2.1981   -0.0000 C   0  0  0  0  0  0  0  0  0  0  0  0
  -11.7746   -5.1922   -0.0000 N   0  0  0  0  0  0  0  0  0  0  0  0
   -9.1726   -5.1922   -0.0000 C   0  0  0  0  0  0  0  0  0  0  0  0
  -13.0578   -2.9347   -0.0000 C   0  0  0  0  0  0  0  0  0  0  0  0
  -13.0816   -4.4318   -0.0000 C   0  0  0  0  0  0  0  0  0  0  0  0
  1  2  1  0  0  0  0
  2  3  2  0  0  0  0
  2  4  1  0  0  0  0
  3  5  1  0  0  0  0
  3  6  1  0  0  0  0
  4  7  2  0  0  0  0
  6  8  2  0  0  0  0
  7  9  1  0  0  0  0
  9 10  2  0  0  0  0
  9 11  2  0  0  0  0
  9 12  1  0  0  0  0
 12 13  1  0  0  0  0
 13 14  2  0  0  0  0
 13 15  1  0  0  0  0
 14 16  1  0  0  0  0
 14 17  1  0  0  0  0
 15 18  2  0  0  0  0
 16 19  1  0  0  0  0
 17 20  2  0  0  0  0
 18 21  1  0  0  0  0
 19 22  2  0  0  0  0
 19 23  1  0  0  0  0
 22 24  1  0  0  0  0
 22 25  1  0  0  0  0
 23 26  2  0  0  0  0
 24 27  2  0  0  0  0
  7  8  1  0  0  0  0
 18 20  1  0  0  0  0
 26 27  1  0  0  0  0
M  END
>  <MolRegNo>
648612

>  <m>
=

>  <Value>
19498

>  <Unit>
nM

>  <Type>
IC50

>  <pValue>
4.71

>  <Ligand Efficiency>
0

>  <Binding Efficiency>
0

>  <Surface Efficiency>
0

>  <Assay Index>
485137

>  <Assay Category>


>  <Assay Organism>


>  <Target ID>
17045

>  <Target Name>
Cytochrome P450 3A4

>  <Target Organism>
Homo sapiens

>  <Target Description>
Target is a single protein chain

>  <Sequence Accession>
P08684

>  <Reference>
Bioorg Med Chem Lett 20 (13), 3961-3964 (2010)

>  <Pubmed ID>
20627722

>  <DOI>
10.1016/j.bmcl.2010.04.142

$$$$
648618
Actelion Java MolfileCreator 1.0

 28 31  0  0  0  0  0  0  0  0999 V2000
    0.0000   -0.0000   -0.0000 O   0  0  0  0  0  0  0  0  0  0  0  0
   -0.0119    1.5077   -0.0000 C   0  0  0  0  0  0  0  0  0  0  0  0
   -1.3177    2.2674   -0.0000 N   0  0  0  0  0  0  0  0  0  0  0  0
    1.2702    2.2674   -0.0000 C   0  0  0  0  0  0  0  0  0  0  0  0
   -2.6236    1.5314   -0.0000 C   0  0  0  0  0  0  0  0  0  0  0  0
    1.4008    3.7632   -0.0000 N   0  0  0  0  0  0  0  0  0  0  0  0
    2.6236    1.6739   -0.0000 N   0  0  0  0  0  0  0  0  0  0  0  0
   -3.9294    2.2912   -0.0000 C   0  0  0  0  0  0  0  0  0  0  0  0
   -2.6355    0.0356   -0.0000 C   0  0  0  0  0  0  0  0  0  0  0  0
    2.8491    4.0956   -0.0000 C   0  0  0  0  0  0  0  0  0  0  0  0
    3.6089    2.8017   -0.0000 C   0  0  0  0  0  0  0  0  0  0  0  0
   -3.9413    3.7989   -0.0000 C   0  0  0  0  0  0  0  0  0  0  0  0
   -5.2353    1.5552   -0.0000 C   0  0  0  0  0  0  0  0  0  0  0  0
   -3.9532   -0.7004   -0.0000 C   0  0  0  0  0  0  0  0  0  0  0  0
    3.4308    5.4727   -0.0000 C   0  0  0  0  0  0  0  0  0  0  0  0
   -2.6592    4.5586   -0.0000 C   0  0  0  0  0  0  0  0  0  0  0  0
   -5.2472    4.5468   -0.0000 C   0  0  0  0  0  0  0  0  0  0  0  0
   -5.2472    0.0712   -0.0000 C   0  0  0  0  0  0  0  0  0  0  0  0
    4.0244    6.8617   -0.0000 N   0  0  0  0  0  0  0  0  0  0  0  0
   -2.6711    6.0663   -0.0000 C   0  0  0  0  0  0  0  0  0  0  0  0
   -5.2590    6.0663   -0.0000 C   0  0  0  0  0  0  0  0  0  0  0  0
   -6.5530   -0.6648   -0.0000 C   0  0  0  0  0  0  0  0  0  0  0  0
   -3.9769    6.8261   -0.0000 C   0  0  0  0  0  0  0  0  0  0  0  0
   -7.8589    0.0950   -0.0000 C   0  0  0  0  0  0  0  0  0  0  0  0
   -6.5649   -2.1487   -0.0000 C   0  0  0  0  0  0  0  0  0  0  0  0
   -9.1647   -0.6411   -0.0000 C   0  0  0  0  0  0  0  0  0  0  0  0
   -7.8707   -2.8848   -0.0000 C   0  0  0  0  0  0  0  0  0  0  0  0
   -9.1766   -2.1250   -0.0000 N   0  0  0  0  0  0  0  0  0  0  0  0
  1  2  2  0  0  0  0
  2  3  1  0  0  0  0
  2  4  1  0  0  0  0
  3  5  1  0  0  0  0
  4  6  2  0  0  0  0
  4  7  1  0  0  0  0
  5  8  2  0  0  0  0
  5  9  1  0  0  0  0
  6 10  1  0  0  0  0
  7 11  1  0  0  0  0
  8 12  1  0  0  0  0
  8 13  1  0  0  0  0
  9 14  2  0  0  0  0
 10 15  1  0  0  0  0
 12 16  2  0  0  0  0
 12 17  1  0  0  0  0
 13 18  2  0  0  0  0
 15 19  3  0  0  0  0
 16 20  1  0  0  0  0
 17 21  1  0  0  0  0
 18 22  1  0  0  0  0
 20 23  1  0  0  0  0
 22 24  2  0  0  0  0
 22 25  1  0  0  0  0
 24 26  1  0  0  0  0
 25 27  2  0  0  0  0
 26 28  2  0  0  0  0
 10 11  2  0  0  0  0
 14 18  1  0  0  0  0
 21 23  1  0  0  0  0
 27 28  1  0  0  0  0
M  END
>  <MolRegNo>
648618

>  <m>
=

>  <Value>
87

>  <Unit>
nM

>  <Type>
IC50

>  <pValue>
7.06

>  <Ligand Efficiency>
0

>  <Binding Efficiency>
0

>  <Surface Efficiency>
0

>  <Assay Index>
485309

>  <Assay Category>


>  <Assay Organism>


>  <Target ID>
17045

>  <Target Name>
Cytochrome P450 3A4

>  <Target Organism>
Homo sapiens

>  <Target Description>
Target is a single protein chain

>  <Sequence Accession>
P08684

>  <Reference>
Bioorg Med Chem Lett 20 (13), 3925-3929 (2010)

>  <Pubmed ID>
20570147

>  <DOI>
10.1016/j.bmcl.2010.05.013

$$$$
650220
Actelion Java MolfileCreator 1.0

 21 23  0  0  0  0  0  0  0  0999 V2000
    0.0000   -0.0000   -0.0000 Cl  0  0  0  0  0  0  0  0  0  0  0  0
   -0.7523   -1.2897   -0.0000 C   0  0  0  0  0  0  0  0  0  0  0  0
   -2.2808   -1.2897   -0.0000 C   0  0  0  0  0  0  0  0  0  0  0  0
    0.0000   -2.5793   -0.0000 C   0  0  0  0  0  0  0  0  0  0  0  0
   -3.0570    0.0239   -0.0000 Cl  0  0  0  0  0  0  0  0  0  0  0  0
   -3.0451   -2.6032   -0.0000 C   0  0  0  0  0  0  0  0  0  0  0  0
   -0.7642   -3.8810   -0.0000 C   0  0  0  0  0  0  0  0  0  0  0  0
   -2.2927   -3.8929   -0.0000 C   0  0  0  0  0  0  0  0  0  0  0  0
   -0.0119   -5.1706   -0.0000 C   0  0  0  0  0  0  0  0  0  0  0  0
    1.2658   -5.9110   -0.0000 C   0  0  0  0  0  0  0  0  0  0  0  0
   -1.3255   -5.9229   -0.0000 C   0  0  0  0  0  0  0  0  0  0  0  0
    1.2777   -4.4183   -0.0000 C   0  0  0  0  0  0  0  0  0  0  0  0
    2.7585   -5.8990   -0.0000 C   0  0  0  0  0  0  0  0  0  0  0  0
    1.2538   -7.4037   -0.0000 C   0  0  0  0  0  0  0  0  0  0  0  0
   -1.3374   -7.4156   -0.0000 C   0  0  0  0  0  0  0  0  0  0  0  0
    3.4988   -7.1887   -0.0000 O   0  0  0  0  0  0  0  0  0  0  0  0
    3.4988   -4.5855   -0.0000 C   0  0  0  0  0  0  0  0  0  0  0  0
   -0.0597   -8.1321   -0.0000 N   0  0  0  0  0  0  0  0  0  0  0  0
    2.7346   -8.4784   -0.0000 C   0  0  0  0  0  0  0  0  0  0  0  0
    4.9915   -4.5736   -0.0000 C   0  0  0  0  0  0  0  0  0  0  0  0
    5.7319   -3.2600   -0.0000 C   0  0  0  0  0  0  0  0  0  0  0  0
  1  2  1  0  0  0  0
  2  3  2  0  0  0  0
  2  4  1  0  0  0  0
  3  5  1  0  0  0  0
  3  6  1  0  0  0  0
  4  7  2  0  0  0  0
  6  8  2  0  0  0  0
  7  9  1  0  0  0  0
  9 10  1  0  0  0  0
  9 11  1  0  0  0  0
  9 12  1  1  0  0  0
 10 13  1  0  0  0  0
 10 14  1  0  0  0  0
 11 15  1  0  0  0  0
 13 16  1  0  0  0  0
 13 17  1  0  0  0  0
 14 18  1  0  0  0  0
 16 19  1  0  0  0  0
 17 20  1  0  0  0  0
 20 21  2  0  0  0  0
  7  8  1  0  0  0  0
 10 12  1  6  0  0  0
 15 18  1  0  0  0  0
M  END
>  <MolRegNo>
650220

>  <m>
=

>  <Value>
3000

>  <Unit>
nM

>  <Type>
IC50

>  <pValue>
5.52

>  <Ligand Efficiency>
0

>  <Binding Efficiency>
0

>  <Surface Efficiency>
0

>  <Assay Index>
487210

>  <Assay Category>


>  <Assay Organism>
Homo sapiens

>  <Target ID>
17045

>  <Target Name>
Cytochrome P450 3A4

>  <Target Organism>
Homo sapiens

>  <Target Description>
Target is a single protein chain

>  <Sequence Accession>
P08684

>  <Reference>
J Med Chem 53 (13), 4989-5001 (2010)

>  <Pubmed ID>
20527970

>  <DOI>
10.1021/jm100481d

$$$$
650331
Actelion Java MolfileCreator 1.0

 20 23  0  0  0  0  0  0  0  0999 V2000
    0.0000   -0.0000   -0.0000 O   0  0  0  0  0  0  0  0  0  0  0  0
   -0.7575    1.3020   -0.0000 C   0  0  0  0  0  0  0  0  0  0  0  0
    1.4795    0.0118   -0.0000 C   0  0  0  0  0  0  0  0  0  0  0  0
   -2.2607    1.3138   -0.0000 C   0  0  0  0  0  0  0  0  0  0  0  0
   -3.5508    2.0713   -0.0000 C   0  0  0  0  0  0  0  0  0  0  0  0
   -2.2725   -0.1657   -0.0000 C   0  0  0  0  0  0  0  0  0  0  0  0
   -2.2607    2.8052   -0.0000 C   0  0  0  0  0  0  0  0  0  0  0  0
   -4.3202    3.3733   -0.0000 C   0  0  0  0  0  0  0  0  0  0  0  0
   -4.8528    1.3256   -0.0000 C   0  0  0  0  0  0  0  0  0  0  0  0
   -3.5745   -0.8877   -0.0000 N   0  0  0  0  0  0  0  0  0  0  0  0
   -5.8234    3.3733   -0.0000 C   0  0  0  0  0  0  0  0  0  0  0  0
   -3.5863    4.6871   -0.0000 C   0  0  0  0  0  0  0  0  0  0  0  0
   -4.8646   -0.1539   -0.0000 C   0  0  0  0  0  0  0  0  0  0  0  0
   -6.5927    4.6753   -0.0000 C   0  0  0  0  0  0  0  0  0  0  0  0
   -4.3557    5.9891   -0.0000 C   0  0  0  0  0  0  0  0  0  0  0  0
   -5.8589    5.9891   -0.0000 C   0  0  0  0  0  0  0  0  0  0  0  0
   -8.0959    4.6753   -0.0000 C   0  0  0  0  0  0  0  0  0  0  0  0
   -6.6282    7.2910   -0.0000 C   0  0  0  0  0  0  0  0  0  0  0  0
   -8.8771    5.9772   -0.0000 C   0  0  0  0  0  0  0  0  0  0  0  0
   -8.1433    7.2910   -0.0000 C   0  0  0  0  0  0  0  0  0  0  0  0
  1  2  1  0  0  0  0
  1  3  1  0  0  0  0
  2  4  1  0  0  0  0
  4  5  1  0  0  0  0
  4  6  1  0  0  0  0
  4  7  1  1  0  0  0
  5  8  1  0  0  0  0
  5  9  1  0  0  0  0
  6 10  1  0  0  0  0
  8 11  2  0  0  0  0
  8 12  1  0  0  0  0
  9 13  1  0  0  0  0
 11 14  1  0  0  0  0
 12 15  2  0  0  0  0
 14 16  1  0  0  0  0
 14 17  2  0  0  0  0
 16 18  2  0  0  0  0
 17 19  1  0  0  0  0
 18 20  1  0  0  0  0
  5  7  1  1  0  0  0
 10 13  1  0  0  0  0
 15 16  1  0  0  0  0
 19 20  2  0  0  0  0
M  END
>  <MolRegNo>
650331

>  <m>
=

>  <Value>
8000

>  <Unit>
nM

>  <Type>
IC50

>  <pValue>
5.1

>  <Ligand Efficiency>
0

>  <Binding Efficiency>
0

>  <Surface Efficiency>
0

>  <Assay Index>
487210

>  <Assay Category>


>  <Assay Organism>
Homo sapiens

>  <Target ID>
17045

>  <Target Name>
Cytochrome P450 3A4

>  <Target Organism>
Homo sapiens

>  <Target Description>
Target is a single protein chain

>  <Sequence Accession>
P08684

>  <Reference>
J Med Chem 53 (13), 4989-5001 (2010)

>  <Pubmed ID>
20527970

>  <DOI>
10.1021/jm100481d

$$$$
650400
Actelion Java MolfileCreator 1.0

 18 20  0  0  0  0  0  0  0  0999 V2000
    0.0000   -0.0000   -0.0000 Cl  0  0  0  0  0  0  0  0  0  0  0  0
   -0.0119   -1.4922   -0.0000 C   0  0  0  0  0  0  0  0  0  0  0  0
   -1.3251   -2.2324   -0.0000 C   0  0  0  0  0  0  0  0  0  0  0  0
    1.2774   -2.2324   -0.0000 C   0  0  0  0  0  0  0  0  0  0  0  0
   -2.6383   -1.4684   -0.0000 Cl  0  0  0  0  0  0  0  0  0  0  0  0
   -1.3371   -3.7366   -0.0000 C   0  0  0  0  0  0  0  0  0  0  0  0
    1.2654   -3.7366   -0.0000 C   0  0  0  0  0  0  0  0  0  0  0  0
   -0.0478   -4.4767   -0.0000 C   0  0  0  0  0  0  0  0  0  0  0  0
    2.5547   -4.4887   -0.0000 C   0  0  0  0  0  0  0  0  0  0  0  0
    3.8440   -3.7246   -0.0000 C   0  0  0  0  0  0  0  0  0  0  0  0
    2.5428   -5.9809   -0.0000 C   0  0  0  0  0  0  0  0  0  0  0  0
    2.5308   -2.9725   -0.0000 C   0  0  0  0  0  0  0  0  0  0  0  0
    5.1333   -4.4767   -0.0000 C   0  0  0  0  0  0  0  0  0  0  0  0
    4.6080   -2.4115   -0.0000 C   0  0  0  0  0  0  0  0  0  0  0  0
    3.8321   -6.7211   -0.0000 C   0  0  0  0  0  0  0  0  0  0  0  0
    5.1214   -5.9690   -0.0000 N   0  0  0  0  0  0  0  0  0  0  0  0
    6.1003   -2.4234   -0.0000 O   0  0  0  0  0  0  0  0  0  0  0  0
    6.8524   -1.1222   -0.0000 C   0  0  0  0  0  0  0  0  0  0  0  0
  1  2  1  0  0  0  0
  2  3  2  0  0  0  0
  2  4  1  0  0  0  0
  3  5  1  0  0  0  0
  3  6  1  0  0  0  0
  4  7  2  0  0  0  0
  6  8  2  0  0  0  0
  7  9  1  0  0  0  0
  9 10  1  0  0  0  0
  9 11  1  0  0  0  0
  9 12  1  1  0  0  0
 10 13  1  0  0  0  0
 10 14  1  0  0  0  0
 11 15  1  0  0  0  0
 13 16  1  0  0  0  0
 14 17  1  0  0  0  0
 17 18  1  0  0  0  0
  7  8  1  0  0  0  0
 10 12  1  1  0  0  0
 15 16  1  0  0  0  0
M  END
>  <MolRegNo>
650400

>  <m>
=

>  <Value>
10000

>  <Unit>
nM

>  <Type>
IC50

>  <pValue>
5

>  <Ligand Efficiency>
0

>  <Binding Efficiency>
0

>  <Surface Efficiency>
0

>  <Assay Index>
487210

>  <Assay Category>


>  <Assay Organism>
Homo sapiens

>  <Target ID>
17045

>  <Target Name>
Cytochrome P450 3A4

>  <Target Organism>
Homo sapiens

>  <Target Description>
Target is a single protein chain

>  <Sequence Accession>
P08684

>  <Reference>
J Med Chem 53 (13), 4989-5001 (2010)

>  <Pubmed ID>
20527970

>  <DOI>
10.1021/jm100481d

$$$$
650065
Actelion Java MolfileCreator 1.0

 20 22  0  0  0  0  0  0  0  0999 V2000
    0.0000   -0.0000   -0.0000 O   0  0  0  0  0  0  0  0  0  0  0  0
   -0.0119   -1.4975   -0.0000 C   0  0  0  0  0  0  0  0  0  0  0  0
    1.2836   -2.2344   -0.0000 C   0  0  0  0  0  0  0  0  0  0  0  0
   -1.3311   -2.2344   -0.0000 C   0  0  0  0  0  0  0  0  0  0  0  0
    1.2717   -3.7320   -0.0000 C   0  0  0  0  0  0  0  0  0  0  0  0
   -1.3430   -3.7320   -0.0000 C   0  0  0  0  0  0  0  0  0  0  0  0
    2.5672   -4.4807   -0.0000 C   0  0  0  0  0  0  0  0  0  0  0  0
   -0.0475   -4.4807   -0.0000 C   0  0  0  0  0  0  0  0  0  0  0  0
    2.5553   -5.9783   -0.0000 C   0  0  0  0  0  0  0  0  0  0  0  0
    3.8627   -3.7201   -0.0000 C   0  0  0  0  0  0  0  0  0  0  0  0
    3.8508   -6.7270   -0.0000 C   0  0  0  0  0  0  0  0  0  0  0  0
    5.1582   -4.4688   -0.0000 C   0  0  0  0  0  0  0  0  0  0  0  0
    5.1463   -5.9664   -0.0000 C   0  0  0  0  0  0  0  0  0  0  0  0
    6.4418   -6.7151   -0.0000 C   0  0  0  0  0  0  0  0  0  0  0  0
    6.4299   -8.2127   -0.0000 C   0  0  0  0  0  0  0  0  0  0  0  0
    7.7254   -8.9496   -0.0000 C   0  0  0  0  0  0  0  0  0  0  0  0
    5.1106   -8.9496   -0.0000 C   0  0  0  0  0  0  0  0  0  0  0  0
    7.7135  -10.4471   -0.0000 C   0  0  0  0  0  0  0  0  0  0  0  0
    5.0988  -10.4471   -0.0000 C   0  0  0  0  0  0  0  0  0  0  0  0
    6.3942  -11.1959   -0.0000 N   0  0  0  0  0  0  0  0  0  0  0  0
  1  2  1  0  0  0  0
  2  3  2  0  0  0  0
  2  4  1  0  0  0  0
  3  5  1  0  0  0  0
  4  6  2  0  0  0  0
  5  7  1  0  0  0  0
  5  8  2  0  0  0  0
  7  9  2  0  0  0  0
  7 10  1  0  0  0  0
  9 11  1  0  0  0  0
 10 12  2  0  0  0  0
 11 13  2  0  0  0  0
 13 14  1  0  0  0  0
 14 15  1  0  0  0  0
 15 16  2  0  0  0  0
 15 17  1  0  0  0  0
 16 18  1  0  0  0  0
 17 19  2  0  0  0  0
 18 20  2  0  0  0  0
  6  8  1  0  0  0  0
 12 13  1  0  0  0  0
 19 20  1  0  0  0  0
M  END
>  <MolRegNo>
650065

>  <m>
=

>  <Value>
538

>  <Unit>
nM

>  <Type>
IC50

>  <pValue>
6.27

>  <Ligand Efficiency>
0.43

>  <Binding Efficiency>
23.99

>  <Surface Efficiency>
18.93

>  <Assay Index>
487403

>  <Assay Category>


>  <Assay Organism>


>  <Target ID>
17045

>  <Target Name>
Cytochrome P450 3A4

>  <Target Organism>
Homo sapiens

>  <Target Description>
Target is a single protein chain

>  <Sequence Accession>
P08684

>  <Reference>
J Med Chem 53 (13), 5049-5053 (2010)

>  <Pubmed ID>
20550118

>  <DOI>
10.1021/jm100400a

$$$$
650886
Actelion Java MolfileCreator 1.0

 23 25  0  0  0  0  0  0  0  0999 V2000
    0.0000   -0.0000   -0.0000 O   0  0  0  0  0  0  0  0  0  0  0  0
   -0.0119   -1.4977   -0.0000 C   0  0  0  0  0  0  0  0  0  0  0  0
    1.2837   -2.2346   -0.0000 C   0  0  0  0  0  0  0  0  0  0  0  0
   -1.3313   -2.2346   -0.0000 C   0  0  0  0  0  0  0  0  0  0  0  0
    1.2718   -3.7323   -0.0000 C   0  0  0  0  0  0  0  0  0  0  0  0
   -1.3432   -3.7323   -0.0000 C   0  0  0  0  0  0  0  0  0  0  0  0
    2.5674   -4.4811   -0.0000 C   0  0  0  0  0  0  0  0  0  0  0  0
   -0.0475   -4.4811   -0.0000 C   0  0  0  0  0  0  0  0  0  0  0  0
    2.5556   -5.9788   -0.0000 C   0  0  0  0  0  0  0  0  0  0  0  0
    3.8631   -3.7085   -0.0000 C   0  0  0  0  0  0  0  0  0  0  0  0
    3.8512   -6.7158   -0.0000 C   0  0  0  0  0  0  0  0  0  0  0  0
    5.1587   -4.4574   -0.0000 C   0  0  0  0  0  0  0  0  0  0  0  0
    5.1468   -5.9550   -0.0000 C   0  0  0  0  0  0  0  0  0  0  0  0
    6.4424   -6.6920   -0.0000 C   0  0  0  0  0  0  0  0  0  0  0  0
    6.4305   -8.1897   -0.0000 C   0  0  0  0  0  0  0  0  0  0  0  0
    7.7380   -5.9313   -0.0000 C   0  0  0  0  0  0  0  0  0  0  0  0
    7.7261   -8.9266   -0.0000 C   0  0  0  0  0  0  0  0  0  0  0  0
    5.1111   -8.9266   -0.0000 C   0  0  0  0  0  0  0  0  0  0  0  0
    7.7261   -4.4098   -0.0000 C   0  0  0  0  0  0  0  0  0  0  0  0
    9.0336   -6.6682   -0.0000 C   0  0  0  0  0  0  0  0  0  0  0  0
    7.7142  -10.4243   -0.0000 C   0  0  0  0  0  0  0  0  0  0  0  0
    5.0992  -10.4243   -0.0000 C   0  0  0  0  0  0  0  0  0  0  0  0
    6.3948  -11.1612   -0.0000 N   0  0  0  0  0  0  0  0  0  0  0  0
  1  2  1  0  0  0  0
  2  3  2  0  0  0  0
  2  4  1  0  0  0  0
  3  5  1  0  0  0  0
  4  6  2  0  0  0  0
  5  7  1  0  0  0  0
  5  8  2  0  0  0  0
  7  9  2  0  0  0  0
  7 10  1  0  0  0  0
  9 11  1  0  0  0  0
 10 12  2  0  0  0  0
 11 13  2  0  0  0  0
 13 14  1  0  0  0  0
 14 15  1  0  0  0  0
 14 16  2  0  0  0  0
 15 17  2  0  0  0  0
 15 18  1  0  0  0  0
 16 19  1  0  0  0  0
 16 20  1  0  0  0  0
 17 21  1  0  0  0  0
 18 22  2  0  0  0  0
 21 23  2  0  0  0  0
  6  8  1  0  0  0  0
 12 13  1  0  0  0  0
 22 23  1  0  0  0  0
M  END
>  <MolRegNo>
650886

>  <m>
=

>  <Value>
730

>  <Unit>
nM

>  <Type>
IC50

>  <pValue>
6.14

>  <Ligand Efficiency>
0.36

>  <Binding Efficiency>
20.36

>  <Surface Efficiency>
18.53

>  <Assay Index>
487403

>  <Assay Category>


>  <Assay Organism>


>  <Target ID>
17045

>  <Target Name>
Cytochrome P450 3A4

>  <Target Organism>
Homo sapiens

>  <Target Description>
Target is a single protein chain

>  <Sequence Accession>
P08684

>  <Reference>
J Med Chem 53 (13), 5049-5053 (2010)

>  <Pubmed ID>
20550118

>  <DOI>
10.1021/jm100400a

$$$$
650887
Actelion Java MolfileCreator 1.0

 21 23  0  0  0  0  0  0  0  0999 V2000
    0.0000   -0.0000   -0.0000 F   0  0  0  0  0  0  0  0  0  0  0  0
   -0.0119   -1.4937   -0.0000 C   0  0  0  0  0  0  0  0  0  0  0  0
   -1.3278   -2.2287   -0.0000 C   0  0  0  0  0  0  0  0  0  0  0  0
    1.2803   -2.2287   -0.0000 C   0  0  0  0  0  0  0  0  0  0  0  0
   -2.6437   -1.4700   -0.0000 O   0  0  0  0  0  0  0  0  0  0  0  0
   -1.3396   -3.7225   -0.0000 C   0  0  0  0  0  0  0  0  0  0  0  0
    1.2685   -3.7225   -0.0000 C   0  0  0  0  0  0  0  0  0  0  0  0
   -0.0474   -4.4694   -0.0000 C   0  0  0  0  0  0  0  0  0  0  0  0
    2.5607   -4.4694   -0.0000 C   0  0  0  0  0  0  0  0  0  0  0  0
    2.5488   -5.9631   -0.0000 C   0  0  0  0  0  0  0  0  0  0  0  0
    3.8529   -3.6988   -0.0000 C   0  0  0  0  0  0  0  0  0  0  0  0
    3.8410   -6.7100   -0.0000 C   0  0  0  0  0  0  0  0  0  0  0  0
    5.1451   -4.4456   -0.0000 C   0  0  0  0  0  0  0  0  0  0  0  0
    5.1332   -5.9394   -0.0000 C   0  0  0  0  0  0  0  0  0  0  0  0
    6.4254   -6.6862   -0.0000 C   0  0  0  0  0  0  0  0  0  0  0  0
    7.7176   -5.9157   -0.0000 C   0  0  0  0  0  0  0  0  0  0  0  0
    7.7058   -4.3982   -0.0000 C   0  0  0  0  0  0  0  0  0  0  0  0
    9.0098   -6.6625   -0.0000 C   0  0  0  0  0  0  0  0  0  0  0  0
    8.9980   -3.6276   -0.0000 C   0  0  0  0  0  0  0  0  0  0  0  0
   10.3020   -5.8920   -0.0000 C   0  0  0  0  0  0  0  0  0  0  0  0
   10.2902   -4.3745   -0.0000 N   0  0  0  0  0  0  0  0  0  0  0  0
  1  2  1  0  0  0  0
  2  3  2  0  0  0  0
  2  4  1  0  0  0  0
  3  5  1  0  0  0  0
  3  6  1  0  0  0  0
  4  7  2  0  0  0  0
  6  8  2  0  0  0  0
  7  9  1  0  0  0  0
  9 10  2  0  0  0  0
  9 11  1  0  0  0  0
 10 12  1  0  0  0  0
 11 13  2  0  0  0  0
 12 14  2  0  0  0  0
 14 15  1  0  0  0  0
 15 16  1  0  0  0  0
 16 17  2  0  0  0  0
 16 18  1  0  0  0  0
 17 19  1  0  0  0  0
 18 20  2  0  0  0  0
 19 21  2  0  0  0  0
  7  8  1  0  0  0  0
 13 14  1  0  0  0  0
 20 21  1  0  0  0  0
M  END
>  <MolRegNo>
650887

>  <m>
=

>  <Value>
896

>  <Unit>
nM

>  <Type>
IC50

>  <pValue>
6.05

>  <Ligand Efficiency>
0.39

>  <Binding Efficiency>
21.65

>  <Surface Efficiency>
18.26

>  <Assay Index>
487403

>  <Assay Category>


>  <Assay Organism>


>  <Target ID>
17045

>  <Target Name>
Cytochrome P450 3A4

>  <Target Organism>
Homo sapiens

>  <Target Description>
Target is a single protein chain

>  <Sequence Accession>
P08684

>  <Reference>
J Med Chem 53 (13), 5049-5053 (2010)

>  <Pubmed ID>
20550118

>  <DOI>
10.1021/jm100400a

$$$$
650889
Actelion Java MolfileCreator 1.0

 24 26  0  0  0  0  0  0  0  0999 V2000
    0.0000   -0.0000   -0.0000 F   0  0  0  0  0  0  0  0  0  0  0  0
   -1.3065    0.7533   -0.0000 C   0  0  0  0  0  0  0  0  0  0  0  0
   -2.6129    0.0118   -0.0000 C   0  0  0  0  0  0  0  0  0  0  0  0
   -1.3182    2.2598   -0.0000 C   0  0  0  0  0  0  0  0  0  0  0  0
   -2.6247   -1.4713   -0.0000 O   0  0  0  0  0  0  0  0  0  0  0  0
   -3.9194    0.7651   -0.0000 C   0  0  0  0  0  0  0  0  0  0  0  0
   -2.6247    3.0131   -0.0000 C   0  0  0  0  0  0  0  0  0  0  0  0
   -3.9312    2.2716   -0.0000 C   0  0  0  0  0  0  0  0  0  0  0  0
   -2.6365    4.5197   -0.0000 C   0  0  0  0  0  0  0  0  0  0  0  0
   -1.3536    5.2730   -0.0000 C   0  0  0  0  0  0  0  0  0  0  0  0
   -3.9430    5.2730   -0.0000 C   0  0  0  0  0  0  0  0  0  0  0  0
   -1.3653    6.7795   -0.0000 C   0  0  0  0  0  0  0  0  0  0  0  0
   -3.9547    6.7795   -0.0000 C   0  0  0  0  0  0  0  0  0  0  0  0
   -2.6718    7.5328   -0.0000 C   0  0  0  0  0  0  0  0  0  0  0  0
   -2.6836    9.0394   -0.0000 C   0  0  0  0  0  0  0  0  0  0  0  0
   -1.4006    9.7927   -0.0000 C   0  0  0  0  0  0  0  0  0  0  0  0
   -3.9900    9.7927   -0.0000 C   0  0  0  0  0  0  0  0  0  0  0  0
   -1.4124   11.2992   -0.0000 C   0  0  0  0  0  0  0  0  0  0  0  0
   -0.1177    9.0511   -0.0000 C   0  0  0  0  0  0  0  0  0  0  0  0
   -5.2965    9.0511   -0.0000 C   0  0  0  0  0  0  0  0  0  0  0  0
   -4.0018   11.2992   -0.0000 C   0  0  0  0  0  0  0  0  0  0  0  0
   -0.1295   12.0525   -0.0000 C   0  0  0  0  0  0  0  0  0  0  0  0
    1.1652    9.8044   -0.0000 C   0  0  0  0  0  0  0  0  0  0  0  0
    1.1535   11.3110   -0.0000 N   0  0  0  0  0  0  0  0  0  0  0  0
  1  2  1  0  0  0  0
  2  3  2  0  0  0  0
  2  4  1  0  0  0  0
  3  5  1  0  0  0  0
  3  6  1  0  0  0  0
  4  7  2  0  0  0  0
  6  8  2  0  0  0  0
  7  9  1  0  0  0  0
  9 10  2  0  0  0  0
  9 11  1  0  0  0  0
 10 12  1  0  0  0  0
 11 13  2  0  0  0  0
 12 14  2  0  0  0  0
 14 15  1  0  0  0  0
 15 16  1  0  0  0  0
 15 17  2  0  0  0  0
 16 18  2  0  0  0  0
 16 19  1  0  0  0  0
 17 20  1  0  0  0  0
 17 21  1  0  0  0  0
 18 22  1  0  0  0  0
 19 23  2  0  0  0  0
 22 24  2  0  0  0  0
  7  8  1  0  0  0  0
 13 14  1  0  0  0  0
 23 24  1  0  0  0  0
M  END
>  <MolRegNo>
650889

>  <m>
=

>  <Value>
17650

>  <Unit>
nM

>  <Type>
IC50

>  <pValue>
4.75

>  <Ligand Efficiency>
0.27

>  <Binding Efficiency>
14.88

>  <Surface Efficiency>
14.35

>  <Assay Index>
487403

>  <Assay Category>


>  <Assay Organism>


>  <Target ID>
17045

>  <Target Name>
Cytochrome P450 3A4

>  <Target Organism>
Homo sapiens

>  <Target Description>
Target is a single protein chain

>  <Sequence Accession>
P08684

>  <Reference>
J Med Chem 53 (13), 5049-5053 (2010)

>  <Pubmed ID>
20550118

>  <DOI>
10.1021/jm100400a

$$$$
650964
Actelion Java MolfileCreator 1.0

 21 23  0  0  0  0  0  0  0  0999 V2000
    0.0000   -0.0000   -0.0000 O   0  0  0  0  0  0  0  0  0  0  0  0
   -0.0119   -1.4968   -0.0000 C   0  0  0  0  0  0  0  0  0  0  0  0
   -1.3305   -2.2334   -0.0000 C   0  0  0  0  0  0  0  0  0  0  0  0
    1.2830   -2.2334   -0.0000 C   0  0  0  0  0  0  0  0  0  0  0  0
   -2.6492   -1.4731   -0.0000 O   0  0  0  0  0  0  0  0  0  0  0  0
   -1.3424   -3.7302   -0.0000 C   0  0  0  0  0  0  0  0  0  0  0  0
    1.2711   -3.7302   -0.0000 C   0  0  0  0  0  0  0  0  0  0  0  0
   -0.0475   -4.4786   -0.0000 C   0  0  0  0  0  0  0  0  0  0  0  0
    2.5660   -4.4786   -0.0000 C   0  0  0  0  0  0  0  0  0  0  0  0
    2.5541   -5.9755   -0.0000 C   0  0  0  0  0  0  0  0  0  0  0  0
    3.8609   -3.7183   -0.0000 C   0  0  0  0  0  0  0  0  0  0  0  0
    3.8490   -6.7120   -0.0000 C   0  0  0  0  0  0  0  0  0  0  0  0
    5.1558   -4.4668   -0.0000 C   0  0  0  0  0  0  0  0  0  0  0  0
    5.1439   -5.9517   -0.0000 C   0  0  0  0  0  0  0  0  0  0  0  0
    6.4388   -6.6883   -0.0000 C   0  0  0  0  0  0  0  0  0  0  0  0
    7.7337   -5.9280   -0.0000 C   0  0  0  0  0  0  0  0  0  0  0  0
    7.7218   -4.4074   -0.0000 C   0  0  0  0  0  0  0  0  0  0  0  0
    9.0286   -6.6645   -0.0000 C   0  0  0  0  0  0  0  0  0  0  0  0
    9.0167   -3.6471   -0.0000 C   0  0  0  0  0  0  0  0  0  0  0  0
   10.3235   -5.9042   -0.0000 C   0  0  0  0  0  0  0  0  0  0  0  0
   10.3116   -4.3955   -0.0000 N   0  0  0  0  0  0  0  0  0  0  0  0
  1  2  1  0  0  0  0
  2  3  2  0  0  0  0
  2  4  1  0  0  0  0
  3  5  1  0  0  0  0
  3  6  1  0  0  0  0
  4  7  2  0  0  0  0
  6  8  2  0  0  0  0
  7  9  1  0  0  0  0
  9 10  2  0  0  0  0
  9 11  1  0  0  0  0
 10 12  1  0  0  0  0
 11 13  2  0  0  0  0
 12 14  2  0  0  0  0
 14 15  1  0  0  0  0
 15 16  1  0  0  0  0
 16 17  2  0  0  0  0
 16 18  1  0  0  0  0
 17 19  1  0  0  0  0
 18 20  2  0  0  0  0
 19 21  2  0  0  0  0
  7  8  1  0  0  0  0
 13 14  1  0  0  0  0
 20 21  1  0  0  0  0
M  END
>  <MolRegNo>
650964

>  <m>
=

>  <Value>
7580

>  <Unit>
nM

>  <Type>
IC50

>  <pValue>
5.12

>  <Ligand Efficiency>
0.33

>  <Binding Efficiency>
18.46

>  <Surface Efficiency>
9.6

>  <Assay Index>
487403

>  <Assay Category>


>  <Assay Organism>


>  <Target ID>
17045

>  <Target Name>
Cytochrome P450 3A4

>  <Target Organism>
Homo sapiens

>  <Target Description>
Target is a single protein chain

>  <Sequence Accession>
P08684

>  <Reference>
J Med Chem 53 (13), 5049-5053 (2010)

>  <Pubmed ID>
20550118

>  <DOI>
10.1021/jm100400a

$$$$
650965
Actelion Java MolfileCreator 1.0

 24 26  0  0  0  0  0  0  0  0999 V2000
    0.0000   -0.0000   -0.0000 O   0  0  0  0  0  0  0  0  0  0  0  0
   -1.3074    0.7538   -0.0000 C   0  0  0  0  0  0  0  0  0  0  0  0
   -2.6149    0.0236   -0.0000 C   0  0  0  0  0  0  0  0  0  0  0  0
   -1.3192    2.2615   -0.0000 C   0  0  0  0  0  0  0  0  0  0  0  0
   -2.6267   -1.4606   -0.0000 O   0  0  0  0  0  0  0  0  0  0  0  0
   -3.9223    0.7774   -0.0000 C   0  0  0  0  0  0  0  0  0  0  0  0
   -2.6267    3.0154   -0.0000 C   0  0  0  0  0  0  0  0  0  0  0  0
   -3.9341    2.2851   -0.0000 C   0  0  0  0  0  0  0  0  0  0  0  0
   -2.6384    4.5231   -0.0000 C   0  0  0  0  0  0  0  0  0  0  0  0
   -1.3546    5.2769   -0.0000 C   0  0  0  0  0  0  0  0  0  0  0  0
   -3.9459    5.2769   -0.0000 C   0  0  0  0  0  0  0  0  0  0  0  0
   -1.3663    6.7846   -0.0000 C   0  0  0  0  0  0  0  0  0  0  0  0
   -3.9577    6.7846   -0.0000 C   0  0  0  0  0  0  0  0  0  0  0  0
   -2.6738    7.5384   -0.0000 C   0  0  0  0  0  0  0  0  0  0  0  0
   -2.6856    9.0461   -0.0000 C   0  0  0  0  0  0  0  0  0  0  0  0
   -1.4017    9.8000   -0.0000 C   0  0  0  0  0  0  0  0  0  0  0  0
   -3.9930    9.8000   -0.0000 C   0  0  0  0  0  0  0  0  0  0  0  0
   -1.4135   11.3076   -0.0000 C   0  0  0  0  0  0  0  0  0  0  0  0
   -0.1178    9.0697   -0.0000 C   0  0  0  0  0  0  0  0  0  0  0  0
   -5.3005    9.0697   -0.0000 C   0  0  0  0  0  0  0  0  0  0  0  0
   -4.0048   11.3076   -0.0000 C   0  0  0  0  0  0  0  0  0  0  0  0
   -0.1296   12.0615   -0.0000 C   0  0  0  0  0  0  0  0  0  0  0  0
    1.1661    9.8235   -0.0000 C   0  0  0  0  0  0  0  0  0  0  0  0
    1.1543   11.3312   -0.0000 N   0  0  0  0  0  0  0  0  0  0  0  0
  1  2  1  0  0  0  0
  2  3  2  0  0  0  0
  2  4  1  0  0  0  0
  3  5  1  0  0  0  0
  3  6  1  0  0  0  0
  4  7  2  0  0  0  0
  6  8  2  0  0  0  0
  7  9  1  0  0  0  0
  9 10  2  0  0  0  0
  9 11  1  0  0  0  0
 10 12  1  0  0  0  0
 11 13  2  0  0  0  0
 12 14  2  0  0  0  0
 14 15  1  0  0  0  0
 15 16  1  0  0  0  0
 15 17  2  0  0  0  0
 16 18  2  0  0  0  0
 16 19  1  0  0  0  0
 17 20  1  0  0  0  0
 17 21  1  0  0  0  0
 18 22  1  0  0  0  0
 19 23  2  0  0  0  0
 22 24  2  0  0  0  0
  7  8  1  0  0  0  0
 13 14  1  0  0  0  0
 23 24  1  0  0  0  0
M  END
>  <MolRegNo>
650965

>  <m>
=

>  <Value>
464

>  <Unit>
nM

>  <Type>
IC50

>  <pValue>
6.33

>  <Ligand Efficiency>
0.36

>  <Binding Efficiency>
19.95

>  <Surface Efficiency>
11.87

>  <Assay Index>
487403

>  <Assay Category>


>  <Assay Organism>


>  <Target ID>
17045

>  <Target Name>
Cytochrome P450 3A4

>  <Target Organism>
Homo sapiens

>  <Target Description>
Target is a single protein chain

>  <Sequence Accession>
P08684

>  <Reference>
J Med Chem 53 (13), 5049-5053 (2010)

>  <Pubmed ID>
20550118

>  <DOI>
10.1021/jm100400a

$$$$
650720
Actelion Java MolfileCreator 1.0

 20 22  0  0  0  0  0  0  0  0999 V2000
    0.0000   -0.0000   -0.0000 N   0  0  0  0  0  0  0  0  0  0  0  0
    1.2785    0.7624   -0.0000 C   0  0  0  0  0  0  0  0  0  0  0  0
   -1.3020    0.7624   -0.0000 C   0  0  0  0  0  0  0  0  0  0  0  0
    1.2668    2.2638   -0.0000 C   0  0  0  0  0  0  0  0  0  0  0  0
   -1.3137    2.2638   -0.0000 C   0  0  0  0  0  0  0  0  0  0  0  0
   -0.0352    3.0262   -0.0000 C   0  0  0  0  0  0  0  0  0  0  0  0
   -0.0469    4.5276   -0.0000 C   0  0  0  0  0  0  0  0  0  0  0  0
   -1.3489    5.2782   -0.0000 C   0  0  0  0  0  0  0  0  0  0  0  0
   -2.6509    4.5393   -0.0000 C   0  0  0  0  0  0  0  0  0  0  0  0
   -1.3606    6.7796   -0.0000 C   0  0  0  0  0  0  0  0  0  0  0  0
   -3.9528    5.2900   -0.0000 C   0  0  0  0  0  0  0  0  0  0  0  0
   -2.6626    7.5303   -0.0000 C   0  0  0  0  0  0  0  0  0  0  0  0
   -3.9646    6.7913   -0.0000 C   0  0  0  0  0  0  0  0  0  0  0  0
   -5.2665    7.5420   -0.0000 C   0  0  0  0  0  0  0  0  0  0  0  0
   -5.2782    9.0434   -0.0000 C   0  0  0  0  0  0  0  0  0  0  0  0
   -6.5685    6.8148   -0.0000 C   0  0  0  0  0  0  0  0  0  0  0  0
   -6.5802    9.7941   -0.0000 C   0  0  0  0  0  0  0  0  0  0  0  0
   -7.8705    7.5655   -0.0000 C   0  0  0  0  0  0  0  0  0  0  0  0
   -6.5919   11.2955   -0.0000 N   0  0  0  0  0  0  0  0  0  0  0  0
   -7.8822    9.0669   -0.0000 C   0  0  0  0  0  0  0  0  0  0  0  0
  1  2  2  0  0  0  0
  1  3  1  0  0  0  0
  2  4  1  0  0  0  0
  3  5  2  0  0  0  0
  4  6  2  0  0  0  0
  6  7  1  0  0  0  0
  7  8  1  0  0  0  0
  8  9  2  0  0  0  0
  8 10  1  0  0  0  0
  9 11  1  0  0  0  0
 10 12  2  0  0  0  0
 11 13  2  0  0  0  0
 13 14  1  0  0  0  0
 14 15  2  0  0  0  0
 14 16  1  0  0  0  0
 15 17  1  0  0  0  0
 16 18  2  0  0  0  0
 17 19  1  0  0  0  0
 17 20  2  0  0  0  0
  5  6  1  0  0  0  0
 12 13  1  0  0  0  0
 18 20  1  0  0  0  0
M  END
>  <MolRegNo>
650720

>  <m>
=

>  <Value>
1520

>  <Unit>
nM

>  <Type>
IC50

>  <pValue>
5.82

>  <Ligand Efficiency>
0.4

>  <Binding Efficiency>
22.35

>  <Surface Efficiency>
14.95

>  <Assay Index>
487403

>  <Assay Category>


>  <Assay Organism>


>  <Target ID>
17045

>  <Target Name>
Cytochrome P450 3A4

>  <Target Organism>
Homo sapiens

>  <Target Description>
Target is a single protein chain

>  <Sequence Accession>
P08684

>  <Reference>
J Med Chem 53 (13), 5049-5053 (2010)

>  <Pubmed ID>
20550118

>  <DOI>
10.1021/jm100400a

$$$$
650721
Actelion Java MolfileCreator 1.0

 23 25  0  0  0  0  0  0  0  0999 V2000
    0.0000   -0.0000   -0.0000 N   0  0  0  0  0  0  0  0  0  0  0  0
    1.2805    0.7518   -0.0000 C   0  0  0  0  0  0  0  0  0  0  0  0
   -1.3039    0.7518   -0.0000 C   0  0  0  0  0  0  0  0  0  0  0  0
    1.2687    2.2555   -0.0000 C   0  0  0  0  0  0  0  0  0  0  0  0
   -1.3157    2.2555   -0.0000 C   0  0  0  0  0  0  0  0  0  0  0  0
   -0.0352    3.0191   -0.0000 C   0  0  0  0  0  0  0  0  0  0  0  0
   -0.0470    4.5227   -0.0000 C   0  0  0  0  0  0  0  0  0  0  0  0
   -1.3509    5.2745   -0.0000 C   0  0  0  0  0  0  0  0  0  0  0  0
    1.2335    5.2745   -0.0000 C   0  0  0  0  0  0  0  0  0  0  0  0
   -2.6549    4.5462   -0.0000 C   0  0  0  0  0  0  0  0  0  0  0  0
   -1.3627    6.7782   -0.0000 C   0  0  0  0  0  0  0  0  0  0  0  0
    1.2217    6.7782   -0.0000 C   0  0  0  0  0  0  0  0  0  0  0  0
    2.5139    4.5462   -0.0000 C   0  0  0  0  0  0  0  0  0  0  0  0
   -3.9588    5.2980   -0.0000 C   0  0  0  0  0  0  0  0  0  0  0  0
   -2.6666    7.5300   -0.0000 C   0  0  0  0  0  0  0  0  0  0  0  0
   -3.9706    6.8017   -0.0000 C   0  0  0  0  0  0  0  0  0  0  0  0
   -5.2745    7.5535   -0.0000 C   0  0  0  0  0  0  0  0  0  0  0  0
   -5.2863    9.0572   -0.0000 C   0  0  0  0  0  0  0  0  0  0  0  0
   -6.5785    6.8134   -0.0000 C   0  0  0  0  0  0  0  0  0  0  0  0
   -6.5902    9.8090   -0.0000 C   0  0  0  0  0  0  0  0  0  0  0  0
   -7.8824    7.5653   -0.0000 C   0  0  0  0  0  0  0  0  0  0  0  0
   -6.6020   11.3126   -0.0000 N   0  0  0  0  0  0  0  0  0  0  0  0
   -7.8942    9.0689   -0.0000 C   0  0  0  0  0  0  0  0  0  0  0  0
  1  2  2  0  0  0  0
  1  3  1  0  0  0  0
  2  4  1  0  0  0  0
  3  5  2  0  0  0  0
  4  6  2  0  0  0  0
  6  7  1  0  0  0  0
  7  8  1  0  0  0  0
  7  9  2  0  0  0  0
  8 10  2  0  0  0  0
  8 11  1  0  0  0  0
  9 12  1  0  0  0  0
  9 13  1  0  0  0  0
 10 14  1  0  0  0  0
 11 15  2  0  0  0  0
 14 16  2  0  0  0  0
 16 17  1  0  0  0  0
 17 18  2  0  0  0  0
 17 19  1  0  0  0  0
 18 20  1  0  0  0  0
 19 21  2  0  0  0  0
 20 22  1  0  0  0  0
 20 23  2  0  0  0  0
  5  6  1  0  0  0  0
 15 16  1  0  0  0  0
 21 23  1  0  0  0  0
M  END
>  <MolRegNo>
650721

>  <m>
=

>  <Value>
1330

>  <Unit>
nM

>  <Type>
IC50

>  <pValue>
5.88

>  <Ligand Efficiency>
0.35

>  <Binding Efficiency>
19.56

>  <Surface Efficiency>
15.1

>  <Assay Index>
487403

>  <Assay Category>


>  <Assay Organism>


>  <Target ID>
17045

>  <Target Name>
Cytochrome P450 3A4

>  <Target Organism>
Homo sapiens

>  <Target Description>
Target is a single protein chain

>  <Sequence Accession>
P08684

>  <Reference>
J Med Chem 53 (13), 5049-5053 (2010)

>  <Pubmed ID>
20550118

>  <DOI>
10.1021/jm100400a

$$$$
650766
Actelion Java MolfileCreator 1.0

 24 26  0  0  0  0  0  0  0  0999 V2000
    0.0000   -0.0000   -0.0000 N   0  0  0  0  0  0  0  0  0  0  0  0
   -1.3156    0.7585   -0.0000 C   0  0  0  0  0  0  0  0  0  0  0  0
   -0.0119   -1.4934   -0.0000 C   0  0  0  0  0  0  0  0  0  0  0  0
   -2.6312    0.0237   -0.0000 C   0  0  0  0  0  0  0  0  0  0  0  0
   -1.3274   -2.2282   -0.0000 C   0  0  0  0  0  0  0  0  0  0  0  0
   -2.6430   -1.4697   -0.0000 C   0  0  0  0  0  0  0  0  0  0  0  0
   -3.9586   -2.2045   -0.0000 C   0  0  0  0  0  0  0  0  0  0  0  0
   -3.9705   -3.6979   -0.0000 C   0  0  0  0  0  0  0  0  0  0  0  0
   -5.2742   -1.4460   -0.0000 C   0  0  0  0  0  0  0  0  0  0  0  0
   -2.6786   -4.4327   -0.0000 C   0  0  0  0  0  0  0  0  0  0  0  0
   -5.2860   -4.4327   -0.0000 C   0  0  0  0  0  0  0  0  0  0  0  0
   -6.5898   -2.1808   -0.0000 C   0  0  0  0  0  0  0  0  0  0  0  0
   -5.2860    0.0711   -0.0000 C   0  0  0  0  0  0  0  0  0  0  0  0
   -2.6904   -5.9260   -0.0000 C   0  0  0  0  0  0  0  0  0  0  0  0
   -5.2979   -5.9260   -0.0000 C   0  0  0  0  0  0  0  0  0  0  0  0
   -4.0060   -6.6609   -0.0000 C   0  0  0  0  0  0  0  0  0  0  0  0
   -4.0179   -8.1542   -0.0000 C   0  0  0  0  0  0  0  0  0  0  0  0
   -2.7260   -8.8891   -0.0000 C   0  0  0  0  0  0  0  0  0  0  0  0
   -5.3334   -8.8891   -0.0000 C   0  0  0  0  0  0  0  0  0  0  0  0
   -2.7378  -10.3824   -0.0000 C   0  0  0  0  0  0  0  0  0  0  0  0
   -5.3453  -10.3824   -0.0000 C   0  0  0  0  0  0  0  0  0  0  0  0
   -1.4460  -11.1173   -0.0000 N   0  0  0  0  0  0  0  0  0  0  0  0
   -4.0534  -11.1173   -0.0000 C   0  0  0  0  0  0  0  0  0  0  0  0
   -4.0653  -12.6106   -0.0000 N   0  0  0  0  0  0  0  0  0  0  0  0
  1  2  2  0  0  0  0
  1  3  1  0  0  0  0
  2  4  1  0  0  0  0
  3  5  2  0  0  0  0
  4  6  2  0  0  0  0
  6  7  1  0  0  0  0
  7  8  1  0  0  0  0
  7  9  2  0  0  0  0
  8 10  2  0  0  0  0
  8 11  1  0  0  0  0
  9 12  1  0  0  0  0
  9 13  1  0  0  0  0
 10 14  1  0  0  0  0
 11 15  2  0  0  0  0
 14 16  2  0  0  0  0
 16 17  1  0  0  0  0
 17 18  2  0  0  0  0
 17 19  1  0  0  0  0
 18 20  1  0  0  0  0
 19 21  2  0  0  0  0
 20 22  1  0  0  0  0
 20 23  2  0  0  0  0
 23 24  1  0  0  0  0
  5  6  1  0  0  0  0
 15 16  1  0  0  0  0
 21 23  1  0  0  0  0
M  END
>  <MolRegNo>
650766

>  <m>
=

>  <Value>
1770

>  <Unit>
nM

>  <Type>
IC50

>  <pValue>
5.75

>  <Ligand Efficiency>
0.33

>  <Binding Efficiency>
18.24

>  <Surface Efficiency>
8.86

>  <Assay Index>
487403

>  <Assay Category>


>  <Assay Organism>


>  <Target ID>
17045

>  <Target Name>
Cytochrome P450 3A4

>  <Target Organism>
Homo sapiens

>  <Target Description>
Target is a single protein chain

>  <Sequence Accession>
P08684

>  <Reference>
J Med Chem 53 (13), 5049-5053 (2010)

>  <Pubmed ID>
20550118

>  <DOI>
10.1021/jm100400a

$$$$
684236
Actelion Java MolfileCreator 1.0

 46 49  0  0  0  0  0  0  0  0999 V2000
    0.0000   -0.0000   -0.0000 S   0  0  0  0  0  0  0  0  0  0  0  0
    0.0000   -1.4928   -0.0000 C   0  0  0  0  0  0  0  0  0  0  0  0
   -1.3151    0.7464   -0.0000 C   0  0  0  0  0  0  0  0  0  0  0  0
   -1.0189   -2.5947   -0.0000 C   0  0  0  0  0  0  0  0  0  0  0  0
    1.3625   -2.0970   -0.0000 C   0  0  0  0  0  0  0  0  0  0  0  0
   -1.3388    2.2511   -0.0000 C   0  0  0  0  0  0  0  0  0  0  0  0
   -2.6183   -0.0000   -0.0000 C   0  0  0  0  0  0  0  0  0  0  0  0
   -2.6776    1.4454   -0.0000 C   0  0  0  0  0  0  0  0  0  0  0  0
   -0.2843   -3.8861   -0.0000 C   0  0  0  0  0  0  0  0  0  0  0  0
   -2.5354   -2.5828   -0.0000 C   0  0  0  0  0  0  0  0  0  0  0  0
    1.1848   -3.5780   -0.0000 N   0  0  0  0  0  0  0  0  0  0  0  0
    2.6539   -1.3506   -0.0000 C   0  0  0  0  0  0  0  0  0  0  0  0
   -1.0426   -5.1775   -0.0000 C   0  0  0  0  0  0  0  0  0  0  0  0
   -3.2937   -3.8742   -0.0000 C   0  0  0  0  0  0  0  0  0  0  0  0
    1.8956   -4.8813   -0.0000 C   0  0  0  0  0  0  0  0  0  0  0  0
    2.6539    0.1540   -0.0000 C   0  0  0  0  0  0  0  0  0  0  0  0
   -2.5591   -5.1656   -0.0000 C   0  0  0  0  0  0  0  0  0  0  0  0
   -4.8102   -3.8624   -0.0000 O   0  0  0  0  0  0  0  0  0  0  0  0
    3.3766   -4.9050   -0.0000 C   0  0  0  0  0  0  0  0  0  0  0  0
    3.9453    0.9004   -0.0000 C   0  0  0  0  0  0  0  0  0  0  0  0
    1.1492    0.2014   -0.0000 C   0  0  0  0  0  0  0  0  0  0  0  0
    1.9075    1.4810   -0.0000 C   0  0  0  0  0  0  0  0  0  0  0  0
   -5.5803   -5.1419   -0.0000 C   0  0  0  0  0  0  0  0  0  0  0  0
    4.1349   -6.1845   -0.0000 C   0  0  0  0  0  0  0  0  0  0  0  0
    4.1112   -3.5899   -0.0000 C   0  0  0  0  0  0  0  0  0  0  0  0
    3.9453    2.4051   -0.0000 O   0  0  0  0  0  0  0  0  0  0  0  0
    5.2249    0.1540   -0.0000 O   0  0  0  0  0  0  0  0  0  0  0  0
   -7.0968   -5.1182   -0.0000 C   0  0  0  0  0  0  0  0  0  0  0  0
    5.6277   -6.1608   -0.0000 C   0  0  0  0  0  0  0  0  0  0  0  0
    5.5921   -3.5543   -0.0000 C   0  0  0  0  0  0  0  0  0  0  0  0
   -7.8669   -6.3978   -0.0000 N   0  0  0  0  0  0  0  0  0  0  0  0
   -7.8432   -3.8031   -0.0000 C   0  0  0  0  0  0  0  0  0  0  0  0
    6.3504   -4.8339   -0.0000 C   0  0  0  0  0  0  0  0  0  0  0  0
   -9.3834   -6.3741   -0.0000 C   0  0  0  0  0  0  0  0  0  0  0  0
   -9.3597   -3.7794   -0.0000 C   0  0  0  0  0  0  0  0  0  0  0  0
    7.8314   -4.7983   -0.0000 C   0  0  0  0  0  0  0  0  0  0  0  0
  -10.1298   -5.0471   -0.0000 C   0  0  0  0  0  0  0  0  0  0  0  0
    8.5896   -6.0779   -0.0000 N   0  0  0  0  0  0  0  0  0  0  0  0
    8.5541   -3.4714   -0.0000 N   0  0  0  0  0  0  0  0  0  0  0  0
  -11.6463   -5.0116   -0.0000 C   0  0  0  0  0  0  0  0  0  0  0  0
   10.0824   -6.0542   -0.0000 C   0  0  0  0  0  0  0  0  0  0  0  0
   10.0469   -3.4358   -0.0000 C   0  0  0  0  0  0  0  0  0  0  0  0
   10.8051   -4.7272   -0.0000 C   0  0  0  0  0  0  0  0  0  0  0  0
   12.2979   -4.7036   -0.0000 O   0  0  0  0  0  0  0  0  0  0  0  0
   12.9851   -6.0186   -0.0000 C   0  0  0  0  0  0  0  0  0  0  0  0
    6.5399    3.3174   -0.0000 Na  0  0  0  0  0  0  0  0  0  0  0  0
  1  2  1  0  0  0  0
  1  3  1  0  0  0  0
  2  4  1  0  0  0  0
  2  5  2  0  0  0  0
  3  6  1  0  0  0  0
  3  7  1  0  0  0  0
  3  8  1  0  0  0  0
  4  9  2  0  0  0  0
  4 10  1  0  0  0  0
  5 11  1  0  0  0  0
  5 12  1  0  0  0  0
  9 13  1  0  0  0  0
 10 14  2  0  0  0  0
 11 15  1  0  0  0  0
 12 16  1  0  0  0  0
 13 17  2  0  0  0  0
 14 18  1  0  0  0  0
 15 19  1  0  0  0  0
 16 20  1  0  0  0  0
 16 21  1  0  0  0  0
 16 22  1  0  0  0  0
 18 23  1  0  0  0  0
 19 24  2  0  0  0  0
 19 25  1  0  0  0  0
 20 26  2  0  0  0  0
 20 27  1  0  0  0  0
 23 28  1  0  0  0  0
 24 29  1  0  0  0  0
 25 30  2  0  0  0  0
 28 31  2  0  0  0  0
 28 32  1  0  0  0  0
 29 33  2  0  0  0  0
 31 34  1  0  0  0  0
 32 35  2  0  0  0  0
 33 36  1  0  0  0  0
 34 37  2  0  0  0  0
 36 38  2  0  0  0  0
 36 39  1  0  0  0  0
 37 40  1  0  0  0  0
 38 41  1  0  0  0  0
 39 42  2  0  0  0  0
 41 43  2  0  0  0  0
 43 44  1  0  0  0  0
 44 45  1  0  0  0  0
  9 11  1  0  0  0  0
 14 17  1  0  0  0  0
 30 33  1  0  0  0  0
 35 37  1  0  0  0  0
 42 43  1  0  0  0  0
M  CHG  2  27  -1  46   1
M  END
>  <MolRegNo>
684236

>  <m>
=

>  <Value>
8800

>  <Unit>
nM

>  <Type>
IC50

>  <pValue>
5.06

>  <Ligand Efficiency>
0

>  <Binding Efficiency>
0

>  <Surface Efficiency>
0

>  <Assay Index>
489572

>  <Assay Category>


>  <Assay Organism>


>  <Target ID>
17045

>  <Target Name>
Cytochrome P450 3A4

>  <Target Organism>
Homo sapiens

>  <Target Description>
Target is a single protein chain

>  <Sequence Accession>
P08684

>  <Reference>
Bioorg Med Chem Lett 20 (15), 4598-4601 (2010)

>  <Pubmed ID>
20566292

>  <DOI>
10.1016/j.bmcl.2010.06.011

$$$$
684247
Actelion Java MolfileCreator 1.0

 48 52  0  0  0  0  0  0  0  0999 V2000
    0.0000   -0.0000   -0.0000 S   0  0  0  0  0  0  0  0  0  0  0  0
    1.0522    1.0761   -0.0000 O   0  0  0  0  0  0  0  0  0  0  0  0
    1.4468   -0.3826   -0.0000 O   0  0  0  0  0  0  0  0  0  0  0  0
   -0.0120   -1.5066   -0.0000 N   0  0  0  0  0  0  0  0  0  0  0  0
   -1.3153    0.7653   -0.0000 C   0  0  0  0  0  0  0  0  0  0  0  0
    1.2794   -2.2480   -0.0000 C   0  0  0  0  0  0  0  0  0  0  0  0
   -1.3273   -2.2480   -0.0000 C   0  0  0  0  0  0  0  0  0  0  0  0
    2.5708   -1.4827   -0.0000 C   0  0  0  0  0  0  0  0  0  0  0  0
    1.2675   -3.7546   -0.0000 C   0  0  0  0  0  0  0  0  0  0  0  0
   -2.6425   -1.4707   -0.0000 C   0  0  0  0  0  0  0  0  0  0  0  0
   -1.3392   -3.7426   -0.0000 C   0  0  0  0  0  0  0  0  0  0  0  0
    3.8622   -2.2240   -0.0000 C   0  0  0  0  0  0  0  0  0  0  0  0
    2.5588   -4.4959   -0.0000 C   0  0  0  0  0  0  0  0  0  0  0  0
   -3.9578   -2.2121   -0.0000 C   0  0  0  0  0  0  0  0  0  0  0  0
   -2.6545   -4.4959   -0.0000 C   0  0  0  0  0  0  0  0  0  0  0  0
    5.1536   -1.4588   -0.0000 C   0  0  0  0  0  0  0  0  0  0  0  0
    3.8502   -3.7307   -0.0000 C   0  0  0  0  0  0  0  0  0  0  0  0
    2.5469   -5.9906   -0.0000 C   0  0  0  0  0  0  0  0  0  0  0  0
   -3.9698   -3.7067   -0.0000 C   0  0  0  0  0  0  0  0  0  0  0  0
    5.1416    0.0598   -0.0000 O   0  0  0  0  0  0  0  0  0  0  0  0
    6.4449   -2.2001   -0.0000 N   0  0  0  0  0  0  0  0  0  0  0  0
    1.3273   -6.8634   -0.0000 C   0  0  0  0  0  0  0  0  0  0  0  0
    3.7546   -6.8634   -0.0000 C   0  0  0  0  0  0  0  0  0  0  0  0
    7.7363   -1.4349   -0.0000 C   0  0  0  0  0  0  0  0  0  0  0  0
    1.7816   -8.2744   -0.0000 C   0  0  0  0  0  0  0  0  0  0  0  0
    3.2763   -8.2744   -0.0000 C   0  0  0  0  0  0  0  0  0  0  0  0
    9.0277   -2.1762   -0.0000 C   0  0  0  0  0  0  0  0  0  0  0  0
    7.7244    0.0837   -0.0000 C   0  0  0  0  0  0  0  0  0  0  0  0
    9.0157   -3.6589   -0.0000 O   0  0  0  0  0  0  0  0  0  0  0  0
   10.3310   -1.3990   -0.0000 C   0  0  0  0  0  0  0  0  0  0  0  0
    9.0157    0.8490   -0.0000 C   0  0  0  0  0  0  0  0  0  0  0  0
   11.6105   -2.1284   -0.0000 N   0  0  0  0  0  0  0  0  0  0  0  0
   10.3191    0.1076   -0.0000 C   0  0  0  0  0  0  0  0  0  0  0  0
    9.0038    2.3556   -0.0000 C   0  0  0  0  0  0  0  0  0  0  0  0
   12.9018   -1.3631   -0.0000 C   0  0  0  0  0  0  0  0  0  0  0  0
   11.6105    0.8729   -0.0000 C   0  0  0  0  0  0  0  0  0  0  0  0
   10.2952    3.1208   -0.0000 C   0  0  0  0  0  0  0  0  0  0  0  0
   14.1932   -2.1045   -0.0000 C   0  0  0  0  0  0  0  0  0  0  0  0
   11.5985    2.3914   -0.0000 C   0  0  0  0  0  0  0  0  0  0  0  0
   15.4726   -1.3392   -0.0000 C   0  0  0  0  0  0  0  0  0  0  0  0
   14.1813   -3.5991   -0.0000 C   0  0  0  0  0  0  0  0  0  0  0  0
   16.7640   -2.0686   -0.0000 C   0  0  0  0  0  0  0  0  0  0  0  0
   15.4726   -4.3405   -0.0000 C   0  0  0  0  0  0  0  0  0  0  0  0
   16.7521   -3.5633   -0.0000 C   0  0  0  0  0  0  0  0  0  0  0  0
   18.0434   -1.3033   -0.0000 C   0  0  0  0  0  0  0  0  0  0  0  0
   19.3348   -2.0327   -0.0000 F   0  0  0  0  0  0  0  0  0  0  0  0
   18.0315    0.2152   -0.0000 F   0  0  0  0  0  0  0  0  0  0  0  0
   19.0837   -0.2152   -0.0000 F   0  0  0  0  0  0  0  0  0  0  0  0
  1  2  2  0  0  0  0
  1  3  2  0  0  0  0
  1  4  1  0  0  0  0
  1  5  1  0  0  0  0
  4  6  1  0  0  0  0
  4  7  1  0  0  0  0
  6  8  2  0  0  0  0
  6  9  1  0  0  0  0
  7 10  2  0  0  0  0
  7 11  1  0  0  0  0
  8 12  1  0  0  0  0
  9 13  2  0  0  0  0
 10 14  1  0  0  0  0
 11 15  2  0  0  0  0
 12 16  1  0  0  0  0
 12 17  2  0  0  0  0
 13 18  1  0  0  0  0
 14 19  2  0  0  0  0
 16 20  2  0  0  0  0
 16 21  1  0  0  0  0
 18 22  1  0  0  0  0
 18 23  1  0  0  0  0
 24 21  1  6  0  0  0
 22 25  1  0  0  0  0
 23 26  1  0  0  0  0
 24 27  1  0  0  0  0
 24 28  1  0  0  0  0
 27 29  1  6  0  0  0
 27 30  1  0  0  0  0
 28 31  1  0  0  0  0
 30 32  1  0  0  0  0
 31 33  2  0  0  0  0
 31 34  1  0  0  0  0
 32 35  1  0  0  0  0
 33 36  1  0  0  0  0
 34 37  2  0  0  0  0
 35 38  1  0  0  0  0
 36 39  2  0  0  0  0
 38 40  2  0  0  0  0
 38 41  1  0  0  0  0
 40 42  1  0  0  0  0
 41 43  2  0  0  0  0
 42 44  2  0  0  0  0
 42 45  1  0  0  0  0
 45 46  1  0  0  0  0
 45 47  1  0  0  0  0
 45 48  1  0  0  0  0
 13 17  1  0  0  0  0
 15 19  1  0  0  0  0
 25 26  1  0  0  0  0
 37 39  1  0  0  0  0
 43 44  1  0  0  0  0
M  END
>  <MolRegNo>
684247

>  <m>
=

>  <Value>
300

>  <Unit>
nM

>  <Type>
IC50

>  <pValue>
6.52

>  <Ligand Efficiency>
0

>  <Binding Efficiency>
0

>  <Surface Efficiency>
0

>  <Assay Index>
489673

>  <Assay Category>


>  <Assay Organism>


>  <Target ID>
17045

>  <Target Name>
Cytochrome P450 3A4

>  <Target Organism>
Homo sapiens

>  <Target Description>
Target is a single protein chain

>  <Sequence Accession>
P08684

>  <Reference>
Bioorg Med Chem Lett 20 (15), 4639-4644 (2010)

>  <Pubmed ID>
20579874

>  <DOI>
10.1016/j.bmcl.2010.05.111

$$$$
682691
Actelion Java MolfileCreator 1.0

 39 44  0  0  0  0  0  0  0  0999 V2000
    0.0000   -0.0000   -0.0000 Cl  0  0  0  0  0  0  0  0  0  0  0  0
    1.4871   -0.0000   -0.0000 C   0  0  0  0  0  0  0  0  0  0  0  0
    2.2306    1.2982   -0.0000 C   0  0  0  0  0  0  0  0  0  0  0  0
    2.2188   -1.2864   -0.0000 C   0  0  0  0  0  0  0  0  0  0  0  0
    3.7059    1.3100   -0.0000 C   0  0  0  0  0  0  0  0  0  0  0  0
    1.4753    2.6083   -0.0000 C   0  0  0  0  0  0  0  0  0  0  0  0
    3.7059   -1.2864   -0.0000 C   0  0  0  0  0  0  0  0  0  0  0  0
    4.4376    0.0354   -0.0000 C   0  0  0  0  0  0  0  0  0  0  0  0
    2.2188    3.9065   -0.0000 O   0  0  0  0  0  0  0  0  0  0  0  0
   -0.0354    2.6319   -0.0000 C   0  0  0  0  0  0  0  0  0  0  0  0
    1.3336    5.1340   -0.0000 C   0  0  0  0  0  0  0  0  0  0  0  0
    1.7939    6.5738   -0.0000 C   0  0  0  0  0  0  0  0  0  0  0  0
   -0.1770    5.1458   -0.0000 C   0  0  0  0  0  0  0  0  0  0  0  0
    0.5783    7.4590   -0.0000 S   0  0  0  0  0  0  0  0  0  0  0  0
    3.1040    7.2820   -0.0000 C   0  0  0  0  0  0  0  0  0  0  0  0
   -0.6491    6.5856   -0.0000 C   0  0  0  0  0  0  0  0  0  0  0  0
    3.1630    8.7926   -0.0000 O   0  0  0  0  0  0  0  0  0  0  0  0
    4.3550    6.4912   -0.0000 N   0  0  0  0  0  0  0  0  0  0  0  0
   -2.0772    7.0577   -0.0000 N   0  0  0  0  0  0  0  0  0  0  0  0
   -3.1984    6.0781   -0.0000 C   0  0  0  0  0  0  0  0  0  0  0  0
   -2.6791    8.4386   -0.0000 C   0  0  0  0  0  0  0  0  0  0  0  0
   -4.5084    6.8453   -0.0000 C   0  0  0  0  0  0  0  0  0  0  0  0
   -3.2102    4.6029   -0.0000 C   0  0  0  0  0  0  0  0  0  0  0  0
   -4.1780    8.3087   -0.0000 N   0  0  0  0  0  0  0  0  0  0  0  0
   -5.8185    6.1135   -0.0000 C   0  0  0  0  0  0  0  0  0  0  0  0
   -4.5202    3.8711   -0.0000 C   0  0  0  0  0  0  0  0  0  0  0  0
   -5.8303    4.6265   -0.0000 C   0  0  0  0  0  0  0  0  0  0  0  0
   -7.1285    3.8947   -0.0000 C   0  0  0  0  0  0  0  0  0  0  0  0
   -8.4386    4.6619   -0.0000 C   0  0  0  0  0  0  0  0  0  0  0  0
   -7.1403    2.4195   -0.0000 C   0  0  0  0  0  0  0  0  0  0  0  0
   -9.7486    3.9301   -0.0000 C   0  0  0  0  0  0  0  0  0  0  0  0
   -8.4386    1.6877   -0.0000 C   0  0  0  0  0  0  0  0  0  0  0  0
   -9.7604    2.4431   -0.0000 N   0  0  0  0  0  0  0  0  0  0  0  0
  -11.0587    4.6855   -0.0000 N   0  0  0  0  0  0  0  0  0  0  0  0
  -11.0587    6.1962   -0.0000 C   0  0  0  0  0  0  0  0  0  0  0  0
  -12.3569    3.9537   -0.0000 C   0  0  0  0  0  0  0  0  0  0  0  0
  -12.3569    6.9633   -0.0000 C   0  0  0  0  0  0  0  0  0  0  0  0
  -13.6669    4.7209   -0.0000 C   0  0  0  0  0  0  0  0  0  0  0  0
  -13.6669    6.2316   -0.0000 N   0  0  0  0  0  0  0  0  0  0  0  0
  1  2  1  0  0  0  0
  2  3  2  0  0  0  0
  2  4  1  0  0  0  0
  3  5  1  0  0  0  0
  3  6  1  0  0  0  0
  4  7  2  0  0  0  0
  5  8  2  0  0  0  0
  6  9  1  6  0  0  0
  6 10  1  0  0  0  0
  9 11  1  0  0  0  0
 11 12  2  0  0  0  0
 11 13  1  0  0  0  0
 12 14  1  0  0  0  0
 12 15  1  0  0  0  0
 13 16  2  0  0  0  0
 15 17  2  0  0  0  0
 15 18  1  0  0  0  0
 16 19  1  0  0  0  0
 19 20  1  0  0  0  0
 19 21  1  0  0  0  0
 20 22  2  0  0  0  0
 20 23  1  0  0  0  0
 21 24  2  0  0  0  0
 22 25  1  0  0  0  0
 23 26  2  0  0  0  0
 25 27  2  0  0  0  0
 27 28  1  0  0  0  0
 28 29  2  0  0  0  0
 28 30  1  0  0  0  0
 29 31  1  0  0  0  0
 30 32  2  0  0  0  0
 31 33  2  0  0  0  0
 31 34  1  0  0  0  0
 34 35  1  0  0  0  0
 34 36  1  0  0  0  0
 35 37  1  0  0  0  0
 36 38  1  0  0  0  0
 37 39  1  0  0  0  0
  7  8  1  0  0  0  0
 14 16  1  0  0  0  0
 22 24  1  0  0  0  0
 26 27  1  0  0  0  0
 32 33  1  0  0  0  0
 38 39  1  0  0  0  0
M  END
>  <MolRegNo>
682691

>  <m>
=

>  <Value>
1400

>  <Unit>
nM

>  <Type>
IC50

>  <pValue>
5.85

>  <Ligand Efficiency>
0

>  <Binding Efficiency>
0

>  <Surface Efficiency>
0

>  <Assay Index>
488688

>  <Assay Category>


>  <Assay Organism>
Homo sapiens

>  <Target ID>
17045

>  <Target Name>
Cytochrome P450 3A4

>  <Target Organism>
Homo sapiens

>  <Target Description>
Target is a single protein chain

>  <Sequence Accession>
P08684

>  <Reference>
Bioorg Med Chem Lett 20 (15), 4587-4592 (2010)

>  <Pubmed ID>
20594842

>  <DOI>
10.1016/j.bmcl.2010.06.009

$$$$
682756
Actelion Java MolfileCreator 1.0

 40 45  0  0  0  0  0  0  0  0999 V2000
    0.0000   -0.0000   -0.0000 Cl  0  0  0  0  0  0  0  0  0  0  0  0
    1.4871   -0.0000   -0.0000 C   0  0  0  0  0  0  0  0  0  0  0  0
    2.2307    1.2983   -0.0000 C   0  0  0  0  0  0  0  0  0  0  0  0
    2.2189   -1.2865   -0.0000 C   0  0  0  0  0  0  0  0  0  0  0  0
    3.7061    1.3101   -0.0000 C   0  0  0  0  0  0  0  0  0  0  0  0
    1.4753    2.6084   -0.0000 C   0  0  0  0  0  0  0  0  0  0  0  0
    3.7061   -1.2865   -0.0000 C   0  0  0  0  0  0  0  0  0  0  0  0
    4.4378    0.0354   -0.0000 C   0  0  0  0  0  0  0  0  0  0  0  0
    2.2189    3.9067   -0.0000 O   0  0  0  0  0  0  0  0  0  0  0  0
   -0.0354    2.6320   -0.0000 C   0  0  0  0  0  0  0  0  0  0  0  0
    1.3337    5.1342   -0.0000 C   0  0  0  0  0  0  0  0  0  0  0  0
    1.7940    6.5741   -0.0000 C   0  0  0  0  0  0  0  0  0  0  0  0
   -0.1770    5.1460   -0.0000 C   0  0  0  0  0  0  0  0  0  0  0  0
    0.5665    7.4593   -0.0000 S   0  0  0  0  0  0  0  0  0  0  0  0
    3.1277    7.2351   -0.0000 C   0  0  0  0  0  0  0  0  0  0  0  0
   -0.6492    6.5859   -0.0000 C   0  0  0  0  0  0  0  0  0  0  0  0
    3.2222    8.7340   -0.0000 O   0  0  0  0  0  0  0  0  0  0  0  0
    4.3552    6.4089   -0.0000 N   0  0  0  0  0  0  0  0  0  0  0  0
   -2.0773    7.0581   -0.0000 N   0  0  0  0  0  0  0  0  0  0  0  0
   -3.1986    6.0784   -0.0000 C   0  0  0  0  0  0  0  0  0  0  0  0
   -2.6792    8.4390   -0.0000 C   0  0  0  0  0  0  0  0  0  0  0  0
   -4.5087    6.8456   -0.0000 C   0  0  0  0  0  0  0  0  0  0  0  0
   -3.2104    4.6031   -0.0000 C   0  0  0  0  0  0  0  0  0  0  0  0
   -4.1782    8.3091   -0.0000 N   0  0  0  0  0  0  0  0  0  0  0  0
   -5.8188    6.1138   -0.0000 C   0  0  0  0  0  0  0  0  0  0  0  0
   -4.5205    3.8713   -0.0000 C   0  0  0  0  0  0  0  0  0  0  0  0
   -5.8306    4.6267   -0.0000 C   0  0  0  0  0  0  0  0  0  0  0  0
   -7.1289    3.8949   -0.0000 C   0  0  0  0  0  0  0  0  0  0  0  0
   -8.4390    4.6621   -0.0000 C   0  0  0  0  0  0  0  0  0  0  0  0
   -7.1407    2.4196   -0.0000 C   0  0  0  0  0  0  0  0  0  0  0  0
   -9.7491    3.9303   -0.0000 C   0  0  0  0  0  0  0  0  0  0  0  0
   -8.4390    1.6878   -0.0000 C   0  0  0  0  0  0  0  0  0  0  0  0
   -9.7609    2.4432   -0.0000 N   0  0  0  0  0  0  0  0  0  0  0  0
  -11.0592    4.6857   -0.0000 N   0  0  0  0  0  0  0  0  0  0  0  0
  -11.0592    6.1965   -0.0000 C   0  0  0  0  0  0  0  0  0  0  0  0
  -12.3575    3.9539   -0.0000 C   0  0  0  0  0  0  0  0  0  0  0  0
  -12.3575    6.9636   -0.0000 C   0  0  0  0  0  0  0  0  0  0  0  0
  -13.6676    4.7211   -0.0000 C   0  0  0  0  0  0  0  0  0  0  0  0
  -13.6676    6.2319   -0.0000 N   0  0  0  0  0  0  0  0  0  0  0  0
  -14.9659    6.9990   -0.0000 C   0  0  0  0  0  0  0  0  0  0  0  0
  1  2  1  0  0  0  0
  2  3  2  0  0  0  0
  2  4  1  0  0  0  0
  3  5  1  0  0  0  0
  3  6  1  0  0  0  0
  4  7  2  0  0  0  0
  5  8  2  0  0  0  0
  6  9  1  6  0  0  0
  6 10  1  0  0  0  0
  9 11  1  0  0  0  0
 11 12  2  0  0  0  0
 11 13  1  0  0  0  0
 12 14  1  0  0  0  0
 12 15  1  0  0  0  0
 13 16  2  0  0  0  0
 15 17  2  0  0  0  0
 15 18  1  0  0  0  0
 16 19  1  0  0  0  0
 19 20  1  0  0  0  0
 19 21  1  0  0  0  0
 20 22  2  0  0  0  0
 20 23  1  0  0  0  0
 21 24  2  0  0  0  0
 22 25  1  0  0  0  0
 23 26  2  0  0  0  0
 25 27  2  0  0  0  0
 27 28  1  0  0  0  0
 28 29  2  0  0  0  0
 28 30  1  0  0  0  0
 29 31  1  0  0  0  0
 30 32  2  0  0  0  0
 31 33  2  0  0  0  0
 31 34  1  0  0  0  0
 34 35  1  0  0  0  0
 34 36  1  0  0  0  0
 35 37  1  0  0  0  0
 36 38  1  0  0  0  0
 37 39  1  0  0  0  0
 39 40  1  0  0  0  0
  7  8  1  0  0  0  0
 14 16  1  0  0  0  0
 22 24  1  0  0  0  0
 26 27  1  0  0  0  0
 32 33  1  0  0  0  0
 38 39  1  0  0  0  0
M  END
>  <MolRegNo>
682756

>  <m>
=

>  <Value>
1100

>  <Unit>
nM

>  <Type>
IC50

>  <pValue>
5.96

>  <Ligand Efficiency>
0

>  <Binding Efficiency>
0

>  <Surface Efficiency>
0

>  <Assay Index>
488688

>  <Assay Category>


>  <Assay Organism>
Homo sapiens

>  <Target ID>
17045

>  <Target Name>
Cytochrome P450 3A4

>  <Target Organism>
Homo sapiens

>  <Target Description>
Target is a single protein chain

>  <Sequence Accession>
P08684

>  <Reference>
Bioorg Med Chem Lett 20 (15), 4587-4592 (2010)

>  <Pubmed ID>
20594842

>  <DOI>
10.1016/j.bmcl.2010.06.009

$$$$
682757
Actelion Java MolfileCreator 1.0

 43 48  0  0  0  0  0  0  0  0999 V2000
    0.0000   -0.0000   -0.0000 S   0  0  0  0  0  0  0  0  0  0  0  0
    1.1960   -0.8644   -0.0000 C   0  0  0  0  0  0  0  0  0  0  0  0
   -1.2315   -0.8644   -0.0000 C   0  0  0  0  0  0  0  0  0  0  0  0
    0.7105   -2.2853   -0.0000 C   0  0  0  0  0  0  0  0  0  0  0  0
    2.4748   -0.0947   -0.0000 C   0  0  0  0  0  0  0  0  0  0  0  0
   -2.6643   -0.3908   -0.0000 N   0  0  0  0  0  0  0  0  0  0  0  0
   -0.7815   -2.2853   -0.0000 C   0  0  0  0  0  0  0  0  0  0  0  0
    1.5749   -3.4931   -0.0000 O   0  0  0  0  0  0  0  0  0  0  0  0
    2.4630    1.4091   -0.0000 O   0  0  0  0  0  0  0  0  0  0  0  0
    3.7655   -0.8289   -0.0000 N   0  0  0  0  0  0  0  0  0  0  0  0
   -3.7892   -1.3736   -0.0000 C   0  0  0  0  0  0  0  0  0  0  0  0
   -3.2682    0.9947   -0.0000 C   0  0  0  0  0  0  0  0  0  0  0  0
    0.8052   -4.7720   -0.0000 C   0  0  0  0  0  0  0  0  0  0  0  0
   -5.1035   -0.6039   -0.0000 C   0  0  0  0  0  0  0  0  0  0  0  0
   -3.8010   -2.8537   -0.0000 C   0  0  0  0  0  0  0  0  0  0  0  0
   -4.7720    0.8644   -0.0000 N   0  0  0  0  0  0  0  0  0  0  0  0
    1.5393   -6.0627   -0.0000 C   0  0  0  0  0  0  0  0  0  0  0  0
   -0.6986   -4.7483   -0.0000 C   0  0  0  0  0  0  0  0  0  0  0  0
   -6.4179   -1.3380   -0.0000 C   0  0  0  0  0  0  0  0  0  0  0  0
   -5.1035   -3.5879   -0.0000 C   0  0  0  0  0  0  0  0  0  0  0  0
    0.7697   -7.3415   -0.0000 C   0  0  0  0  0  0  0  0  0  0  0  0
    3.0195   -6.0508   -0.0000 C   0  0  0  0  0  0  0  0  0  0  0  0
   -6.4297   -2.8300   -0.0000 C   0  0  0  0  0  0  0  0  0  0  0  0
    1.5038   -8.6322   -0.0000 C   0  0  0  0  0  0  0  0  0  0  0  0
   -0.7342   -7.3178   -0.0000 C   0  0  0  0  0  0  0  0  0  0  0  0
    3.7536   -7.3297   -0.0000 C   0  0  0  0  0  0  0  0  0  0  0  0
   -7.7323   -3.5642   -0.0000 C   0  0  0  0  0  0  0  0  0  0  0  0
    2.9958   -8.6322   -0.0000 C   0  0  0  0  0  0  0  0  0  0  0  0
   -1.4920   -6.0035   -0.0000 F   0  0  0  0  0  0  0  0  0  0  0  0
   -1.5038   -8.5967   -0.0000 F   0  0  0  0  0  0  0  0  0  0  0  0
   -2.2498   -7.2941   -0.0000 F   0  0  0  0  0  0  0  0  0  0  0  0
   -9.0348   -2.7945   -0.0000 C   0  0  0  0  0  0  0  0  0  0  0  0
   -7.7441   -5.0443   -0.0000 C   0  0  0  0  0  0  0  0  0  0  0  0
  -10.3492   -3.5287   -0.0000 C   0  0  0  0  0  0  0  0  0  0  0  0
   -9.0466   -5.7785   -0.0000 C   0  0  0  0  0  0  0  0  0  0  0  0
  -10.3610   -5.0206   -0.0000 N   0  0  0  0  0  0  0  0  0  0  0  0
  -11.6635   -2.7708   -0.0000 N   0  0  0  0  0  0  0  0  0  0  0  0
  -11.6635   -1.2552   -0.0000 C   0  0  0  0  0  0  0  0  0  0  0  0
  -12.9660   -3.5050   -0.0000 C   0  0  0  0  0  0  0  0  0  0  0  0
  -12.9660   -0.4973   -0.0000 C   0  0  0  0  0  0  0  0  0  0  0  0
  -14.2686   -2.7353   -0.0000 C   0  0  0  0  0  0  0  0  0  0  0  0
  -14.2804   -1.2196   -0.0000 N   0  0  0  0  0  0  0  0  0  0  0  0
  -15.5829   -0.4500   -0.0000 C   0  0  0  0  0  0  0  0  0  0  0  0
  1  2  1  0  0  0  0
  1  3  1  0  0  0  0
  2  4  2  0  0  0  0
  2  5  1  0  0  0  0
  3  6  1  0  0  0  0
  3  7  2  0  0  0  0
  4  8  1  0  0  0  0
  5  9  2  0  0  0  0
  5 10  1  0  0  0  0
  6 11  1  0  0  0  0
  6 12  1  0  0  0  0
 13  8  1  6  0  0  0
 11 14  2  0  0  0  0
 11 15  1  0  0  0  0
 12 16  2  0  0  0  0
 13 17  1  0  0  0  0
 13 18  1  0  0  0  0
 14 19  1  0  0  0  0
 15 20  2  0  0  0  0
 17 21  2  0  0  0  0
 17 22  1  0  0  0  0
 19 23  2  0  0  0  0
 21 24  1  0  0  0  0
 21 25  1  0  0  0  0
 22 26  2  0  0  0  0
 23 27  1  0  0  0  0
 24 28  2  0  0  0  0
 25 29  1  0  0  0  0
 25 30  1  0  0  0  0
 25 31  1  0  0  0  0
 27 32  2  0  0  0  0
 27 33  1  0  0  0  0
 32 34  1  0  0  0  0
 33 35  2  0  0  0  0
 34 36  2  0  0  0  0
 34 37  1  0  0  0  0
 37 38  1  0  0  0  0
 37 39  1  0  0  0  0
 38 40  1  0  0  0  0
 39 41  1  0  0  0  0
 40 42  1  0  0  0  0
 42 43  1  0  0  0  0
  4  7  1  0  0  0  0
 14 16  1  0  0  0  0
 20 23  1  0  0  0  0
 26 28  1  0  0  0  0
 35 36  1  0  0  0  0
 41 42  1  0  0  0  0
M  END
>  <MolRegNo>
682757

>  <m>
=

>  <Value>
400

>  <Unit>
nM

>  <Type>
IC50

>  <pValue>
6.4

>  <Ligand Efficiency>
0

>  <Binding Efficiency>
0

>  <Surface Efficiency>
0

>  <Assay Index>
488688

>  <Assay Category>


>  <Assay Organism>
Homo sapiens

>  <Target ID>
17045

>  <Target Name>
Cytochrome P450 3A4

>  <Target Organism>
Homo sapiens

>  <Target Description>
Target is a single protein chain

>  <Sequence Accession>
P08684

>  <Reference>
Bioorg Med Chem Lett 20 (15), 4587-4592 (2010)

>  <Pubmed ID>
20594842

>  <DOI>
10.1016/j.bmcl.2010.06.009

$$$$
682758
Actelion Java MolfileCreator 1.0

 42 47  0  0  0  0  0  0  0  0999 V2000
    0.0000   -0.0000   -0.0000 S   0  0  0  0  0  0  0  0  0  0  0  0
    1.1962   -0.8646   -0.0000 C   0  0  0  0  0  0  0  0  0  0  0  0
   -1.2317   -0.8646   -0.0000 C   0  0  0  0  0  0  0  0  0  0  0  0
    0.7106   -2.2858   -0.0000 C   0  0  0  0  0  0  0  0  0  0  0  0
    2.4753   -0.0947   -0.0000 C   0  0  0  0  0  0  0  0  0  0  0  0
   -2.6648   -0.3908   -0.0000 N   0  0  0  0  0  0  0  0  0  0  0  0
   -0.7817   -2.2858   -0.0000 C   0  0  0  0  0  0  0  0  0  0  0  0
    1.5752   -3.4938   -0.0000 O   0  0  0  0  0  0  0  0  0  0  0  0
    2.4634    1.4094   -0.0000 O   0  0  0  0  0  0  0  0  0  0  0  0
    3.7662   -0.8290   -0.0000 N   0  0  0  0  0  0  0  0  0  0  0  0
   -3.7899   -1.3738   -0.0000 C   0  0  0  0  0  0  0  0  0  0  0  0
   -3.2688    0.9948   -0.0000 C   0  0  0  0  0  0  0  0  0  0  0  0
    0.8053   -4.7729   -0.0000 C   0  0  0  0  0  0  0  0  0  0  0  0
   -5.1045   -0.6040   -0.0000 C   0  0  0  0  0  0  0  0  0  0  0  0
   -3.8017   -2.8542   -0.0000 C   0  0  0  0  0  0  0  0  0  0  0  0
   -4.7729    0.8646   -0.0000 N   0  0  0  0  0  0  0  0  0  0  0  0
    1.5396   -6.0638   -0.0000 C   0  0  0  0  0  0  0  0  0  0  0  0
   -0.6988   -4.7492   -0.0000 C   0  0  0  0  0  0  0  0  0  0  0  0
   -6.4191   -1.3383   -0.0000 C   0  0  0  0  0  0  0  0  0  0  0  0
   -5.1045   -3.5885   -0.0000 C   0  0  0  0  0  0  0  0  0  0  0  0
    0.7698   -7.3429   -0.0000 C   0  0  0  0  0  0  0  0  0  0  0  0
    3.0201   -6.0519   -0.0000 C   0  0  0  0  0  0  0  0  0  0  0  0
   -6.4309   -2.8306   -0.0000 C   0  0  0  0  0  0  0  0  0  0  0  0
    1.5041   -8.6338   -0.0000 C   0  0  0  0  0  0  0  0  0  0  0  0
   -0.7343   -7.3192   -0.0000 C   0  0  0  0  0  0  0  0  0  0  0  0
    3.7543   -7.3310   -0.0000 C   0  0  0  0  0  0  0  0  0  0  0  0
   -7.7337   -3.5648   -0.0000 C   0  0  0  0  0  0  0  0  0  0  0  0
    2.9964   -8.6338   -0.0000 C   0  0  0  0  0  0  0  0  0  0  0  0
   -1.4923   -6.0046   -0.0000 F   0  0  0  0  0  0  0  0  0  0  0  0
   -1.5041   -8.5983   -0.0000 F   0  0  0  0  0  0  0  0  0  0  0  0
   -2.2502   -7.3073   -0.0000 F   0  0  0  0  0  0  0  0  0  0  0  0
   -9.0365   -2.7950   -0.0000 C   0  0  0  0  0  0  0  0  0  0  0  0
   -7.7455   -5.0453   -0.0000 C   0  0  0  0  0  0  0  0  0  0  0  0
  -10.3511   -3.5293   -0.0000 C   0  0  0  0  0  0  0  0  0  0  0  0
   -9.0483   -5.7795   -0.0000 C   0  0  0  0  0  0  0  0  0  0  0  0
  -10.3629   -5.0216   -0.0000 N   0  0  0  0  0  0  0  0  0  0  0  0
  -11.6657   -2.7713   -0.0000 N   0  0  0  0  0  0  0  0  0  0  0  0
  -11.6657   -1.2554   -0.0000 C   0  0  0  0  0  0  0  0  0  0  0  0
  -12.9685   -3.5056   -0.0000 C   0  0  0  0  0  0  0  0  0  0  0  0
  -12.9685   -0.4974   -0.0000 C   0  0  0  0  0  0  0  0  0  0  0  0
  -14.2712   -2.7358   -0.0000 C   0  0  0  0  0  0  0  0  0  0  0  0
  -14.2831   -1.2199   -0.0000 O   0  0  0  0  0  0  0  0  0  0  0  0
  1  2  1  0  0  0  0
  1  3  1  0  0  0  0
  2  4  2  0  0  0  0
  2  5  1  0  0  0  0
  3  6  1  0  0  0  0
  3  7  2  0  0  0  0
  4  8  1  0  0  0  0
  5  9  2  0  0  0  0
  5 10  1  0  0  0  0
  6 11  1  0  0  0  0
  6 12  1  0  0  0  0
 13  8  1  6  0  0  0
 11 14  2  0  0  0  0
 11 15  1  0  0  0  0
 12 16  2  0  0  0  0
 13 17  1  0  0  0  0
 13 18  1  0  0  0  0
 14 19  1  0  0  0  0
 15 20  2  0  0  0  0
 17 21  2  0  0  0  0
 17 22  1  0  0  0  0
 19 23  2  0  0  0  0
 21 24  1  0  0  0  0
 21 25  1  0  0  0  0
 22 26  2  0  0  0  0
 23 27  1  0  0  0  0
 24 28  2  0  0  0  0
 25 29  1  0  0  0  0
 25 30  1  0  0  0  0
 25 31  1  0  0  0  0
 27 32  2  0  0  0  0
 27 33  1  0  0  0  0
 32 34  1  0  0  0  0
 33 35  2  0  0  0  0
 34 36  2  0  0  0  0
 34 37  1  0  0  0  0
 37 38  1  0  0  0  0
 37 39  1  0  0  0  0
 38 40  1  0  0  0  0
 39 41  1  0  0  0  0
 40 42  1  0  0  0  0
  4  7  1  0  0  0  0
 14 16  1  0  0  0  0
 20 23  1  0  0  0  0
 26 28  1  0  0  0  0
 35 36  1  0  0  0  0
 41 42  1  0  0  0  0
M  END
>  <MolRegNo>
682758

>  <m>
=

>  <Value>
20000

>  <Unit>
nM

>  <Type>
IC50

>  <pValue>
4.7

>  <Ligand Efficiency>
0

>  <Binding Efficiency>
0

>  <Surface Efficiency>
0

>  <Assay Index>
488688

>  <Assay Category>


>  <Assay Organism>
Homo sapiens

>  <Target ID>
17045

>  <Target Name>
Cytochrome P450 3A4

>  <Target Organism>
Homo sapiens

>  <Target Description>
Target is a single protein chain

>  <Sequence Accession>
P08684

>  <Reference>
Bioorg Med Chem Lett 20 (15), 4587-4592 (2010)

>  <Pubmed ID>
20594842

>  <DOI>
10.1016/j.bmcl.2010.06.009

$$$$
682759
Actelion Java MolfileCreator 1.0

 42 46  0  0  0  0  0  0  0  0999 V2000
    0.0000   -0.0000   -0.0000 S   0  0  0  0  0  0  0  0  0  0  0  0
    1.1970   -0.8652   -0.0000 C   0  0  0  0  0  0  0  0  0  0  0  0
   -1.2326   -0.8652   -0.0000 C   0  0  0  0  0  0  0  0  0  0  0  0
    0.7111   -2.2874   -0.0000 C   0  0  0  0  0  0  0  0  0  0  0  0
    2.4652   -0.0711   -0.0000 C   0  0  0  0  0  0  0  0  0  0  0  0
   -2.6667   -0.3911   -0.0000 N   0  0  0  0  0  0  0  0  0  0  0  0
   -0.7822   -2.2874   -0.0000 C   0  0  0  0  0  0  0  0  0  0  0  0
    1.5763   -3.4963   -0.0000 O   0  0  0  0  0  0  0  0  0  0  0  0
    2.4178    1.4341   -0.0000 O   0  0  0  0  0  0  0  0  0  0  0  0
    3.7689   -0.7822   -0.0000 N   0  0  0  0  0  0  0  0  0  0  0  0
   -3.7926   -1.3748   -0.0000 C   0  0  0  0  0  0  0  0  0  0  0  0
   -3.2711    0.9956   -0.0000 C   0  0  0  0  0  0  0  0  0  0  0  0
    0.8059   -4.7763   -0.0000 C   0  0  0  0  0  0  0  0  0  0  0  0
   -5.1082   -0.6044   -0.0000 C   0  0  0  0  0  0  0  0  0  0  0  0
   -3.8045   -2.8563   -0.0000 C   0  0  0  0  0  0  0  0  0  0  0  0
   -4.7763    0.8652   -0.0000 N   0  0  0  0  0  0  0  0  0  0  0  0
    1.5407   -6.0682   -0.0000 C   0  0  0  0  0  0  0  0  0  0  0  0
   -0.6993   -4.7526   -0.0000 C   0  0  0  0  0  0  0  0  0  0  0  0
   -6.4237   -1.3393   -0.0000 C   0  0  0  0  0  0  0  0  0  0  0  0
   -5.1082   -3.5911   -0.0000 C   0  0  0  0  0  0  0  0  0  0  0  0
    0.7704   -7.3482   -0.0000 C   0  0  0  0  0  0  0  0  0  0  0  0
    3.0222   -6.0563   -0.0000 C   0  0  0  0  0  0  0  0  0  0  0  0
   -6.4356   -2.8326   -0.0000 C   0  0  0  0  0  0  0  0  0  0  0  0
    1.5052   -8.6400   -0.0000 C   0  0  0  0  0  0  0  0  0  0  0  0
   -0.7348   -7.3245   -0.0000 C   0  0  0  0  0  0  0  0  0  0  0  0
    3.7570   -7.3363   -0.0000 C   0  0  0  0  0  0  0  0  0  0  0  0
   -7.7393   -3.5674   -0.0000 C   0  0  0  0  0  0  0  0  0  0  0  0
    2.9985   -8.6400   -0.0000 C   0  0  0  0  0  0  0  0  0  0  0  0
   -1.4933   -6.0089   -0.0000 F   0  0  0  0  0  0  0  0  0  0  0  0
   -1.5052   -8.6045   -0.0000 F   0  0  0  0  0  0  0  0  0  0  0  0
   -2.2519   -7.3008   -0.0000 F   0  0  0  0  0  0  0  0  0  0  0  0
   -9.0430   -2.7970   -0.0000 C   0  0  0  0  0  0  0  0  0  0  0  0
   -7.7511   -5.0489   -0.0000 C   0  0  0  0  0  0  0  0  0  0  0  0
  -10.3585   -3.5319   -0.0000 C   0  0  0  0  0  0  0  0  0  0  0  0
   -9.0548   -5.7837   -0.0000 C   0  0  0  0  0  0  0  0  0  0  0  0
  -10.3704   -5.0252   -0.0000 N   0  0  0  0  0  0  0  0  0  0  0  0
  -11.6622   -2.7733   -0.0000 N   0  0  0  0  0  0  0  0  0  0  0  0
  -12.9778   -3.5082   -0.0000 C   0  0  0  0  0  0  0  0  0  0  0  0
  -14.2815   -2.7496   -0.0000 C   0  0  0  0  0  0  0  0  0  0  0  0
  -15.5971   -3.4844   -0.0000 N   0  0  0  0  0  0  0  0  0  0  0  0
  -16.9008   -2.7259   -0.0000 C   0  0  0  0  0  0  0  0  0  0  0  0
  -15.6089   -4.9659   -0.0000 C   0  0  0  0  0  0  0  0  0  0  0  0
  1  2  1  0  0  0  0
  1  3  1  0  0  0  0
  2  4  2  0  0  0  0
  2  5  1  0  0  0  0
  3  6  1  0  0  0  0
  3  7  2  0  0  0  0
  4  8  1  0  0  0  0
  5  9  2  0  0  0  0
  5 10  1  0  0  0  0
  6 11  1  0  0  0  0
  6 12  1  0  0  0  0
 13  8  1  6  0  0  0
 11 14  2  0  0  0  0
 11 15  1  0  0  0  0
 12 16  2  0  0  0  0
 13 17  1  0  0  0  0
 13 18  1  0  0  0  0
 14 19  1  0  0  0  0
 15 20  2  0  0  0  0
 17 21  2  0  0  0  0
 17 22  1  0  0  0  0
 19 23  2  0  0  0  0
 21 24  1  0  0  0  0
 21 25  1  0  0  0  0
 22 26  2  0  0  0  0
 23 27  1  0  0  0  0
 24 28  2  0  0  0  0
 25 29  1  0  0  0  0
 25 30  1  0  0  0  0
 25 31  1  0  0  0  0
 27 32  2  0  0  0  0
 27 33  1  0  0  0  0
 32 34  1  0  0  0  0
 33 35  2  0  0  0  0
 34 36  2  0  0  0  0
 34 37  1  0  0  0  0
 37 38  1  0  0  0  0
 38 39  1  0  0  0  0
 39 40  1  0  0  0  0
 40 41  1  0  0  0  0
 40 42  1  0  0  0  0
  4  7  1  0  0  0  0
 14 16  1  0  0  0  0
 20 23  1  0  0  0  0
 26 28  1  0  0  0  0
 35 36  1  0  0  0  0
M  END
>  <MolRegNo>
682759

>  <m>
=

>  <Value>
800

>  <Unit>
nM

>  <Type>
IC50

>  <pValue>
6.1

>  <Ligand Efficiency>
0

>  <Binding Efficiency>
0

>  <Surface Efficiency>
0

>  <Assay Index>
488688

>  <Assay Category>


>  <Assay Organism>
Homo sapiens

>  <Target ID>
17045

>  <Target Name>
Cytochrome P450 3A4

>  <Target Organism>
Homo sapiens

>  <Target Description>
Target is a single protein chain

>  <Sequence Accession>
P08684

>  <Reference>
Bioorg Med Chem Lett 20 (15), 4587-4592 (2010)

>  <Pubmed ID>
20594842

>  <DOI>
10.1016/j.bmcl.2010.06.009

$$$$
682762
Actelion Java MolfileCreator 1.0

 41 46  0  0  0  0  0  0  0  0999 V2000
    0.0000   -0.0000   -0.0000 Cl  0  0  0  0  0  0  0  0  0  0  0  0
    1.4886   -0.0000   -0.0000 C   0  0  0  0  0  0  0  0  0  0  0  0
    2.2329    1.2996   -0.0000 C   0  0  0  0  0  0  0  0  0  0  0  0
    2.2211   -1.2878   -0.0000 C   0  0  0  0  0  0  0  0  0  0  0  0
    3.7097    1.3114   -0.0000 C   0  0  0  0  0  0  0  0  0  0  0  0
    1.4768    2.6110   -0.0000 C   0  0  0  0  0  0  0  0  0  0  0  0
    3.7097   -1.2878   -0.0000 C   0  0  0  0  0  0  0  0  0  0  0  0
    4.4422    0.0354   -0.0000 C   0  0  0  0  0  0  0  0  0  0  0  0
    2.2211    3.9105   -0.0000 O   0  0  0  0  0  0  0  0  0  0  0  0
   -0.0354    2.6346   -0.0000 C   0  0  0  0  0  0  0  0  0  0  0  0
    1.3350    5.1392   -0.0000 C   0  0  0  0  0  0  0  0  0  0  0  0
    1.7958    6.5806   -0.0000 C   0  0  0  0  0  0  0  0  0  0  0  0
   -0.1772    5.1510   -0.0000 C   0  0  0  0  0  0  0  0  0  0  0  0
    0.5789    7.4666   -0.0000 S   0  0  0  0  0  0  0  0  0  0  0  0
    3.0835    7.3249   -0.0000 C   0  0  0  0  0  0  0  0  0  0  0  0
   -0.6498    6.5924   -0.0000 C   0  0  0  0  0  0  0  0  0  0  0  0
    3.0835    8.8371   -0.0000 O   0  0  0  0  0  0  0  0  0  0  0  0
    4.3595    6.5688   -0.0000 N   0  0  0  0  0  0  0  0  0  0  0  0
   -2.0793    7.0650   -0.0000 N   0  0  0  0  0  0  0  0  0  0  0  0
   -3.2017    6.0844   -0.0000 C   0  0  0  0  0  0  0  0  0  0  0  0
   -2.6818    8.4472   -0.0000 C   0  0  0  0  0  0  0  0  0  0  0  0
   -4.5131    6.8523   -0.0000 C   0  0  0  0  0  0  0  0  0  0  0  0
   -3.2135    4.6076   -0.0000 C   0  0  0  0  0  0  0  0  0  0  0  0
   -4.1823    8.3173   -0.0000 N   0  0  0  0  0  0  0  0  0  0  0  0
   -5.8245    6.1198   -0.0000 C   0  0  0  0  0  0  0  0  0  0  0  0
   -4.5249    3.8751   -0.0000 C   0  0  0  0  0  0  0  0  0  0  0  0
   -5.8363    4.6312   -0.0000 C   0  0  0  0  0  0  0  0  0  0  0  0
   -7.1358    3.8987   -0.0000 C   0  0  0  0  0  0  0  0  0  0  0  0
   -8.4472    4.6667   -0.0000 C   0  0  0  0  0  0  0  0  0  0  0  0
   -7.1477    2.4219   -0.0000 C   0  0  0  0  0  0  0  0  0  0  0  0
   -9.7586    3.9342   -0.0000 C   0  0  0  0  0  0  0  0  0  0  0  0
   -8.4472    1.6894   -0.0000 C   0  0  0  0  0  0  0  0  0  0  0  0
   -9.7704    2.4456   -0.0000 N   0  0  0  0  0  0  0  0  0  0  0  0
  -11.0700    4.7021   -0.0000 N   0  0  0  0  0  0  0  0  0  0  0  0
  -12.3814    3.9696   -0.0000 C   0  0  0  0  0  0  0  0  0  0  0  0
  -13.6810    4.7375   -0.0000 C   0  0  0  0  0  0  0  0  0  0  0  0
  -12.3932    2.4928   -0.0000 C   0  0  0  0  0  0  0  0  0  0  0  0
  -14.9805    4.0051   -0.0000 C   0  0  0  0  0  0  0  0  0  0  0  0
  -13.7046    1.7603   -0.0000 C   0  0  0  0  0  0  0  0  0  0  0  0
  -15.0042    2.5164   -0.0000 N   0  0  0  0  0  0  0  0  0  0  0  0
  -16.3156    1.7840   -0.0000 C   0  0  0  0  0  0  0  0  0  0  0  0
  1  2  1  0  0  0  0
  2  3  2  0  0  0  0
  2  4  1  0  0  0  0
  3  5  1  0  0  0  0
  3  6  1  0  0  0  0
  4  7  2  0  0  0  0
  5  8  2  0  0  0  0
  6  9  1  6  0  0  0
  6 10  1  0  0  0  0
  9 11  1  0  0  0  0
 11 12  2  0  0  0  0
 11 13  1  0  0  0  0
 12 14  1  0  0  0  0
 12 15  1  0  0  0  0
 13 16  2  0  0  0  0
 15 17  2  0  0  0  0
 15 18  1  0  0  0  0
 16 19  1  0  0  0  0
 19 20  1  0  0  0  0
 19 21  1  0  0  0  0
 20 22  2  0  0  0  0
 20 23  1  0  0  0  0
 21 24  2  0  0  0  0
 22 25  1  0  0  0  0
 23 26  2  0  0  0  0
 25 27  2  0  0  0  0
 27 28  1  0  0  0  0
 28 29  2  0  0  0  0
 28 30  1  0  0  0  0
 29 31  1  0  0  0  0
 30 32  2  0  0  0  0
 31 33  2  0  0  0  0
 31 34  1  0  0  0  0
 34 35  1  0  0  0  0
 35 36  1  0  0  0  0
 35 37  1  0  0  0  0
 36 38  1  0  0  0  0
 37 39  1  0  0  0  0
 38 40  1  0  0  0  0
 40 41  1  0  0  0  0
  7  8  1  0  0  0  0
 14 16  1  0  0  0  0
 22 24  1  0  0  0  0
 26 27  1  0  0  0  0
 32 33  1  0  0  0  0
 39 40  1  0  0  0  0
M  END
>  <MolRegNo>
682762

>  <m>
=

>  <Value>
1100

>  <Unit>
nM

>  <Type>
IC50

>  <pValue>
5.96

>  <Ligand Efficiency>
0

>  <Binding Efficiency>
0

>  <Surface Efficiency>
0

>  <Assay Index>
488688

>  <Assay Category>


>  <Assay Organism>
Homo sapiens

>  <Target ID>
17045

>  <Target Name>
Cytochrome P450 3A4

>  <Target Organism>
Homo sapiens

>  <Target Description>
Target is a single protein chain

>  <Sequence Accession>
P08684

>  <Reference>
Bioorg Med Chem Lett 20 (15), 4587-4592 (2010)

>  <Pubmed ID>
20594842

>  <DOI>
10.1016/j.bmcl.2010.06.009

$$$$
682763
Actelion Java MolfileCreator 1.0

 41 46  0  0  0  0  0  0  0  0999 V2000
    0.0000   -0.0000   -0.0000 Cl  0  0  0  0  0  0  0  0  0  0  0  0
    1.4876   -0.0000   -0.0000 C   0  0  0  0  0  0  0  0  0  0  0  0
    2.2315    1.2987   -0.0000 C   0  0  0  0  0  0  0  0  0  0  0  0
    2.2197   -1.2869   -0.0000 C   0  0  0  0  0  0  0  0  0  0  0  0
    3.7073    1.3105   -0.0000 C   0  0  0  0  0  0  0  0  0  0  0  0
    1.4758    2.6093   -0.0000 C   0  0  0  0  0  0  0  0  0  0  0  0
    3.7073   -1.2869   -0.0000 C   0  0  0  0  0  0  0  0  0  0  0  0
    4.4393    0.0354   -0.0000 C   0  0  0  0  0  0  0  0  0  0  0  0
    2.2197    3.9080   -0.0000 O   0  0  0  0  0  0  0  0  0  0  0  0
   -0.0354    2.6329   -0.0000 C   0  0  0  0  0  0  0  0  0  0  0  0
    1.3342    5.1359   -0.0000 C   0  0  0  0  0  0  0  0  0  0  0  0
    1.7946    6.5763   -0.0000 C   0  0  0  0  0  0  0  0  0  0  0  0
   -0.1771    5.1477   -0.0000 C   0  0  0  0  0  0  0  0  0  0  0  0
    0.5785    7.4618   -0.0000 S   0  0  0  0  0  0  0  0  0  0  0  0
    3.2823    6.6472   -0.0000 C   0  0  0  0  0  0  0  0  0  0  0  0
   -0.6494    6.5881   -0.0000 C   0  0  0  0  0  0  0  0  0  0  0  0
    3.9671    7.9813   -0.0000 O   0  0  0  0  0  0  0  0  0  0  0  0
    4.0733    5.3957   -0.0000 N   0  0  0  0  0  0  0  0  0  0  0  0
   -2.0780    7.0604   -0.0000 N   0  0  0  0  0  0  0  0  0  0  0  0
   -3.1996    6.0805   -0.0000 C   0  0  0  0  0  0  0  0  0  0  0  0
   -2.6801    8.4418   -0.0000 C   0  0  0  0  0  0  0  0  0  0  0  0
   -4.5102    6.8479   -0.0000 C   0  0  0  0  0  0  0  0  0  0  0  0
   -3.2114    4.6046   -0.0000 C   0  0  0  0  0  0  0  0  0  0  0  0
   -4.1796    8.3119   -0.0000 N   0  0  0  0  0  0  0  0  0  0  0  0
   -5.8207    6.1159   -0.0000 C   0  0  0  0  0  0  0  0  0  0  0  0
   -4.5220    3.8726   -0.0000 C   0  0  0  0  0  0  0  0  0  0  0  0
   -5.8325    4.6282   -0.0000 C   0  0  0  0  0  0  0  0  0  0  0  0
   -7.1313    3.8962   -0.0000 C   0  0  0  0  0  0  0  0  0  0  0  0
   -8.4418    4.6637   -0.0000 C   0  0  0  0  0  0  0  0  0  0  0  0
   -7.1431    2.4204   -0.0000 C   0  0  0  0  0  0  0  0  0  0  0  0
   -9.7523    3.9316   -0.0000 N   0  0  0  0  0  0  0  0  0  0  0  0
   -8.4418    1.6884   -0.0000 C   0  0  0  0  0  0  0  0  0  0  0  0
   -9.7642    2.4440   -0.0000 C   0  0  0  0  0  0  0  0  0  0  0  0
  -11.0747    1.7120   -0.0000 N   0  0  0  0  0  0  0  0  0  0  0  0
  -12.3734    2.4912   -0.0000 C   0  0  0  0  0  0  0  0  0  0  0  0
  -12.3852    3.9907   -0.0000 C   0  0  0  0  0  0  0  0  0  0  0  0
  -13.6840    1.7592   -0.0000 C   0  0  0  0  0  0  0  0  0  0  0  0
  -13.6840    4.7581   -0.0000 C   0  0  0  0  0  0  0  0  0  0  0  0
  -14.9945    2.5266   -0.0000 C   0  0  0  0  0  0  0  0  0  0  0  0
  -14.9827    4.0261   -0.0000 N   0  0  0  0  0  0  0  0  0  0  0  0
  -16.2815    4.7935   -0.0000 C   0  0  0  0  0  0  0  0  0  0  0  0
  1  2  1  0  0  0  0
  2  3  2  0  0  0  0
  2  4  1  0  0  0  0
  3  5  1  0  0  0  0
  3  6  1  0  0  0  0
  4  7  2  0  0  0  0
  5  8  2  0  0  0  0
  6  9  1  6  0  0  0
  6 10  1  0  0  0  0
  9 11  1  0  0  0  0
 11 12  2  0  0  0  0
 11 13  1  0  0  0  0
 12 14  1  0  0  0  0
 12 15  1  0  0  0  0
 13 16  2  0  0  0  0
 15 17  2  0  0  0  0
 15 18  1  0  0  0  0
 16 19  1  0  0  0  0
 19 20  1  0  0  0  0
 19 21  1  0  0  0  0
 20 22  2  0  0  0  0
 20 23  1  0  0  0  0
 21 24  2  0  0  0  0
 22 25  1  0  0  0  0
 23 26  2  0  0  0  0
 25 27  2  0  0  0  0
 27 28  1  0  0  0  0
 28 29  2  0  0  0  0
 28 30  1  0  0  0  0
 29 31  1  0  0  0  0
 30 32  2  0  0  0  0
 31 33  2  0  0  0  0
 33 34  1  0  0  0  0
 34 35  1  0  0  0  0
 35 36  1  0  0  0  0
 35 37  1  0  0  0  0
 36 38  1  0  0  0  0
 37 39  1  0  0  0  0
 38 40  1  0  0  0  0
 40 41  1  0  0  0  0
  7  8  1  0  0  0  0
 14 16  1  0  0  0  0
 22 24  1  0  0  0  0
 26 27  1  0  0  0  0
 32 33  1  0  0  0  0
 39 40  1  0  0  0  0
M  END
>  <MolRegNo>
682763

>  <m>
=

>  <Value>
3400

>  <Unit>
nM

>  <Type>
IC50

>  <pValue>
5.47

>  <Ligand Efficiency>
0

>  <Binding Efficiency>
0

>  <Surface Efficiency>
0

>  <Assay Index>
488688

>  <Assay Category>


>  <Assay Organism>
Homo sapiens

>  <Target ID>
17045

>  <Target Name>
Cytochrome P450 3A4

>  <Target Organism>
Homo sapiens

>  <Target Description>
Target is a single protein chain

>  <Sequence Accession>
P08684

>  <Reference>
Bioorg Med Chem Lett 20 (15), 4587-4592 (2010)

>  <Pubmed ID>
20594842

>  <DOI>
10.1016/j.bmcl.2010.06.009

$$$$
682764
Actelion Java MolfileCreator 1.0

 41 46  0  0  0  0  0  0  0  0999 V2000
    0.0000   -0.0000   -0.0000 Cl  0  0  0  0  0  0  0  0  0  0  0  0
    1.4882   -0.0000   -0.0000 C   0  0  0  0  0  0  0  0  0  0  0  0
    2.2322    1.2992   -0.0000 C   0  0  0  0  0  0  0  0  0  0  0  0
    2.2204   -1.2874   -0.0000 C   0  0  0  0  0  0  0  0  0  0  0  0
    3.7086    1.3110   -0.0000 C   0  0  0  0  0  0  0  0  0  0  0  0
    1.4763    2.6102   -0.0000 C   0  0  0  0  0  0  0  0  0  0  0  0
    3.7086   -1.2874   -0.0000 C   0  0  0  0  0  0  0  0  0  0  0  0
    4.4408    0.0354   -0.0000 C   0  0  0  0  0  0  0  0  0  0  0  0
    2.2204    3.9094   -0.0000 O   0  0  0  0  0  0  0  0  0  0  0  0
   -0.0354    2.6338   -0.0000 C   0  0  0  0  0  0  0  0  0  0  0  0
    1.3346    5.1377   -0.0000 C   0  0  0  0  0  0  0  0  0  0  0  0
    1.7952    6.5786   -0.0000 C   0  0  0  0  0  0  0  0  0  0  0  0
   -0.1772    5.1495   -0.0000 C   0  0  0  0  0  0  0  0  0  0  0  0
    0.5787    7.4644   -0.0000 S   0  0  0  0  0  0  0  0  0  0  0  0
    3.0826    7.3463   -0.0000 C   0  0  0  0  0  0  0  0  0  0  0  0
   -0.6496    6.5904   -0.0000 C   0  0  0  0  0  0  0  0  0  0  0  0
    3.0708    8.8581   -0.0000 O   0  0  0  0  0  0  0  0  0  0  0  0
    4.3700    6.6140   -0.0000 N   0  0  0  0  0  0  0  0  0  0  0  0
   -2.0787    7.0628   -0.0000 N   0  0  0  0  0  0  0  0  0  0  0  0
   -3.2007    6.0825   -0.0000 C   0  0  0  0  0  0  0  0  0  0  0  0
   -2.6810    8.4447   -0.0000 C   0  0  0  0  0  0  0  0  0  0  0  0
   -4.5117    6.8502   -0.0000 C   0  0  0  0  0  0  0  0  0  0  0  0
   -3.2125    4.6062   -0.0000 C   0  0  0  0  0  0  0  0  0  0  0  0
   -4.1810    8.3148   -0.0000 N   0  0  0  0  0  0  0  0  0  0  0  0
   -5.8227    6.1180   -0.0000 C   0  0  0  0  0  0  0  0  0  0  0  0
   -4.5235    3.8739   -0.0000 C   0  0  0  0  0  0  0  0  0  0  0  0
   -5.8345    4.6298   -0.0000 C   0  0  0  0  0  0  0  0  0  0  0  0
   -7.1337    3.8976   -0.0000 C   0  0  0  0  0  0  0  0  0  0  0  0
   -8.4447    4.6653   -0.0000 N   0  0  0  0  0  0  0  0  0  0  0  0
   -7.1455    2.4212   -0.0000 C   0  0  0  0  0  0  0  0  0  0  0  0
   -9.7557    3.9330   -0.0000 C   0  0  0  0  0  0  0  0  0  0  0  0
   -8.4447    1.6889   -0.0000 C   0  0  0  0  0  0  0  0  0  0  0  0
   -9.7675    2.4448   -0.0000 N   0  0  0  0  0  0  0  0  0  0  0  0
  -11.0667    4.7007   -0.0000 N   0  0  0  0  0  0  0  0  0  0  0  0
  -12.3777    3.9684   -0.0000 C   0  0  0  0  0  0  0  0  0  0  0  0
  -13.6769    4.7361   -0.0000 C   0  0  0  0  0  0  0  0  0  0  0  0
  -12.3895    2.4921   -0.0000 C   0  0  0  0  0  0  0  0  0  0  0  0
  -14.9761    4.0039   -0.0000 C   0  0  0  0  0  0  0  0  0  0  0  0
  -13.7005    1.7598   -0.0000 C   0  0  0  0  0  0  0  0  0  0  0  0
  -14.9997    2.5157   -0.0000 N   0  0  0  0  0  0  0  0  0  0  0  0
  -16.3225    1.7834   -0.0000 C   0  0  0  0  0  0  0  0  0  0  0  0
  1  2  1  0  0  0  0
  2  3  2  0  0  0  0
  2  4  1  0  0  0  0
  3  5  1  0  0  0  0
  3  6  1  0  0  0  0
  4  7  2  0  0  0  0
  5  8  2  0  0  0  0
  6  9  1  6  0  0  0
  6 10  1  0  0  0  0
  9 11  1  0  0  0  0
 11 12  2  0  0  0  0
 11 13  1  0  0  0  0
 12 14  1  0  0  0  0
 12 15  1  0  0  0  0
 13 16  2  0  0  0  0
 15 17  2  0  0  0  0
 15 18  1  0  0  0  0
 16 19  1  0  0  0  0
 19 20  1  0  0  0  0
 19 21  1  0  0  0  0
 20 22  2  0  0  0  0
 20 23  1  0  0  0  0
 21 24  2  0  0  0  0
 22 25  1  0  0  0  0
 23 26  2  0  0  0  0
 25 27  2  0  0  0  0
 27 28  1  0  0  0  0
 28 29  2  0  0  0  0
 28 30  1  0  0  0  0
 29 31  1  0  0  0  0
 30 32  2  0  0  0  0
 31 33  2  0  0  0  0
 31 34  1  0  0  0  0
 34 35  1  0  0  0  0
 35 36  1  0  0  0  0
 35 37  1  0  0  0  0
 36 38  1  0  0  0  0
 37 39  1  0  0  0  0
 38 40  1  0  0  0  0
 40 41  1  0  0  0  0
  7  8  1  0  0  0  0
 14 16  1  0  0  0  0
 22 24  1  0  0  0  0
 26 27  1  0  0  0  0
 32 33  1  0  0  0  0
 39 40  1  0  0  0  0
M  END
>  <MolRegNo>
682764

>  <m>
=

>  <Value>
1000

>  <Unit>
nM

>  <Type>
IC50

>  <pValue>
6

>  <Ligand Efficiency>
0

>  <Binding Efficiency>
0

>  <Surface Efficiency>
0

>  <Assay Index>
488688

>  <Assay Category>


>  <Assay Organism>
Homo sapiens

>  <Target ID>
17045

>  <Target Name>
Cytochrome P450 3A4

>  <Target Organism>
Homo sapiens

>  <Target Description>
Target is a single protein chain

>  <Sequence Accession>
P08684

>  <Reference>
Bioorg Med Chem Lett 20 (15), 4587-4592 (2010)

>  <Pubmed ID>
20594842

>  <DOI>
10.1016/j.bmcl.2010.06.009

$$$$
682815
Actelion Java MolfileCreator 1.0

 41 46  0  0  0  0  0  0  0  0999 V2000
    0.0000   -0.0000   -0.0000 Cl  0  0  0  0  0  0  0  0  0  0  0  0
    1.4871   -0.0000   -0.0000 C   0  0  0  0  0  0  0  0  0  0  0  0
    2.2306    1.2983   -0.0000 C   0  0  0  0  0  0  0  0  0  0  0  0
    2.2188   -1.2865   -0.0000 C   0  0  0  0  0  0  0  0  0  0  0  0
    3.7059    1.3101   -0.0000 C   0  0  0  0  0  0  0  0  0  0  0  0
    1.4753    2.6083   -0.0000 C   0  0  0  0  0  0  0  0  0  0  0  0
    3.7059   -1.2865   -0.0000 C   0  0  0  0  0  0  0  0  0  0  0  0
    4.4377    0.0354   -0.0000 C   0  0  0  0  0  0  0  0  0  0  0  0
    2.2188    3.9066   -0.0000 O   0  0  0  0  0  0  0  0  0  0  0  0
   -0.0354    2.6319   -0.0000 C   0  0  0  0  0  0  0  0  0  0  0  0
    1.3337    5.1340   -0.0000 C   0  0  0  0  0  0  0  0  0  0  0  0
    1.7940    6.5739   -0.0000 C   0  0  0  0  0  0  0  0  0  0  0  0
   -0.1770    5.1458   -0.0000 C   0  0  0  0  0  0  0  0  0  0  0  0
    0.5783    7.4591   -0.0000 S   0  0  0  0  0  0  0  0  0  0  0  0
    3.2810    6.6447   -0.0000 C   0  0  0  0  0  0  0  0  0  0  0  0
   -0.6491    6.5857   -0.0000 C   0  0  0  0  0  0  0  0  0  0  0  0
    3.9656    7.9784   -0.0000 O   0  0  0  0  0  0  0  0  0  0  0  0
    4.0718    5.3937   -0.0000 N   0  0  0  0  0  0  0  0  0  0  0  0
   -2.0772    7.0578   -0.0000 N   0  0  0  0  0  0  0  0  0  0  0  0
   -3.1984    6.0782   -0.0000 C   0  0  0  0  0  0  0  0  0  0  0  0
   -2.6791    8.4387   -0.0000 C   0  0  0  0  0  0  0  0  0  0  0  0
   -4.5085    6.8453   -0.0000 C   0  0  0  0  0  0  0  0  0  0  0  0
   -3.2102    4.6029   -0.0000 C   0  0  0  0  0  0  0  0  0  0  0  0
   -4.1780    8.3088   -0.0000 N   0  0  0  0  0  0  0  0  0  0  0  0
   -5.8185    6.1136   -0.0000 C   0  0  0  0  0  0  0  0  0  0  0  0
   -4.5203    3.8712   -0.0000 C   0  0  0  0  0  0  0  0  0  0  0  0
   -5.8303    4.6265   -0.0000 C   0  0  0  0  0  0  0  0  0  0  0  0
   -7.0578    3.7767   -0.0000 C   0  0  0  0  0  0  0  0  0  0  0  0
   -7.0814    2.3015   -0.0000 C   0  0  0  0  0  0  0  0  0  0  0  0
   -8.4859    4.2606   -0.0000 C   0  0  0  0  0  0  0  0  0  0  0  0
   -8.5213    1.8530   -0.0000 N   0  0  0  0  0  0  0  0  0  0  0  0
   -9.3828    3.0686   -0.0000 N   0  0  0  0  0  0  0  0  0  0  0  0
  -10.8935    3.0922   -0.0000 C   0  0  0  0  0  0  0  0  0  0  0  0
  -11.6489    4.4023   -0.0000 C   0  0  0  0  0  0  0  0  0  0  0  0
  -13.1596    4.4259   -0.0000 N   0  0  0  0  0  0  0  0  0  0  0  0
  -13.9149    5.7359   -0.0000 C   0  0  0  0  0  0  0  0  0  0  0  0
  -13.9267    3.1394   -0.0000 C   0  0  0  0  0  0  0  0  0  0  0  0
  -15.4138    5.7595   -0.0000 C   0  0  0  0  0  0  0  0  0  0  0  0
  -15.4374    3.1630   -0.0000 C   0  0  0  0  0  0  0  0  0  0  0  0
  -16.1928    4.4849   -0.0000 N   0  0  0  0  0  0  0  0  0  0  0  0
  -17.7035    4.5085   -0.0000 C   0  0  0  0  0  0  0  0  0  0  0  0
  1  2  1  0  0  0  0
  2  3  2  0  0  0  0
  2  4  1  0  0  0  0
  3  5  1  0  0  0  0
  3  6  1  0  0  0  0
  4  7  2  0  0  0  0
  5  8  2  0  0  0  0
  6  9  1  6  0  0  0
  6 10  1  0  0  0  0
  9 11  1  0  0  0  0
 11 12  2  0  0  0  0
 11 13  1  0  0  0  0
 12 14  1  0  0  0  0
 12 15  1  0  0  0  0
 13 16  2  0  0  0  0
 15 17  2  0  0  0  0
 15 18  1  0  0  0  0
 16 19  1  0  0  0  0
 19 20  1  0  0  0  0
 19 21  1  0  0  0  0
 20 22  2  0  0  0  0
 20 23  1  0  0  0  0
 21 24  2  0  0  0  0
 22 25  1  0  0  0  0
 23 26  2  0  0  0  0
 25 27  2  0  0  0  0
 27 28  1  0  0  0  0
 28 29  1  0  0  0  0
 28 30  2  0  0  0  0
 29 31  2  0  0  0  0
 30 32  1  0  0  0  0
 32 33  1  0  0  0  0
 33 34  1  0  0  0  0
 34 35  1  0  0  0  0
 35 36  1  0  0  0  0
 35 37  1  0  0  0  0
 36 38  1  0  0  0  0
 37 39  1  0  0  0  0
 38 40  1  0  0  0  0
 40 41  1  0  0  0  0
  7  8  1  0  0  0  0
 14 16  1  0  0  0  0
 22 24  1  0  0  0  0
 26 27  1  0  0  0  0
 31 32  1  0  0  0  0
 39 40  1  0  0  0  0
M  END
>  <MolRegNo>
682815

>  <m>
=

>  <Value>
200

>  <Unit>
nM

>  <Type>
IC50

>  <pValue>
6.7

>  <Ligand Efficiency>
0

>  <Binding Efficiency>
0

>  <Surface Efficiency>
0

>  <Assay Index>
488688

>  <Assay Category>


>  <Assay Organism>
Homo sapiens

>  <Target ID>
17045

>  <Target Name>
Cytochrome P450 3A4

>  <Target Organism>
Homo sapiens

>  <Target Description>
Target is a single protein chain

>  <Sequence Accession>
P08684

>  <Reference>
Bioorg Med Chem Lett 20 (15), 4587-4592 (2010)

>  <Pubmed ID>
20594842

>  <DOI>
10.1016/j.bmcl.2010.06.009

$$$$
682816
Actelion Java MolfileCreator 1.0

 38 42  0  0  0  0  0  0  0  0999 V2000
    0.0000   -0.0000   -0.0000 Cl  0  0  0  0  0  0  0  0  0  0  0  0
    1.4875   -0.0000   -0.0000 C   0  0  0  0  0  0  0  0  0  0  0  0
    2.2313    1.2986   -0.0000 C   0  0  0  0  0  0  0  0  0  0  0  0
    2.2195   -1.2868   -0.0000 C   0  0  0  0  0  0  0  0  0  0  0  0
    3.7070    1.3104   -0.0000 C   0  0  0  0  0  0  0  0  0  0  0  0
    1.4757    2.6090   -0.0000 C   0  0  0  0  0  0  0  0  0  0  0  0
    3.7070   -1.2868   -0.0000 C   0  0  0  0  0  0  0  0  0  0  0  0
    4.4389    0.0236   -0.0000 C   0  0  0  0  0  0  0  0  0  0  0  0
    2.2195    3.9077   -0.0000 O   0  0  0  0  0  0  0  0  0  0  0  0
   -0.0354    2.6327   -0.0000 C   0  0  0  0  0  0  0  0  0  0  0  0
    1.3340    5.1355   -0.0000 C   0  0  0  0  0  0  0  0  0  0  0  0
    1.7945    6.5757   -0.0000 C   0  0  0  0  0  0  0  0  0  0  0  0
   -0.1771    5.1473   -0.0000 C   0  0  0  0  0  0  0  0  0  0  0  0
    0.5667    7.4612   -0.0000 S   0  0  0  0  0  0  0  0  0  0  0  0
    3.0813    7.3313   -0.0000 C   0  0  0  0  0  0  0  0  0  0  0  0
   -0.6493    6.5876   -0.0000 C   0  0  0  0  0  0  0  0  0  0  0  0
    3.0813    8.8424   -0.0000 O   0  0  0  0  0  0  0  0  0  0  0  0
    4.3563    6.5876   -0.0000 N   0  0  0  0  0  0  0  0  0  0  0  0
   -2.0778    7.0598   -0.0000 N   0  0  0  0  0  0  0  0  0  0  0  0
   -3.1993    6.0799   -0.0000 C   0  0  0  0  0  0  0  0  0  0  0  0
   -2.6799    8.4410   -0.0000 C   0  0  0  0  0  0  0  0  0  0  0  0
   -4.5098    6.8473   -0.0000 C   0  0  0  0  0  0  0  0  0  0  0  0
   -3.2111    4.6042   -0.0000 C   0  0  0  0  0  0  0  0  0  0  0  0
   -4.1792    8.3112   -0.0000 N   0  0  0  0  0  0  0  0  0  0  0  0
   -5.8202    6.1153   -0.0000 C   0  0  0  0  0  0  0  0  0  0  0  0
   -4.5216    3.8723   -0.0000 C   0  0  0  0  0  0  0  0  0  0  0  0
   -5.8320    4.6278   -0.0000 C   0  0  0  0  0  0  0  0  0  0  0  0
   -7.0598    3.7778   -0.0000 C   0  0  0  0  0  0  0  0  0  0  0  0
   -7.0834    2.3021   -0.0000 C   0  0  0  0  0  0  0  0  0  0  0  0
   -8.4883    4.2618   -0.0000 C   0  0  0  0  0  0  0  0  0  0  0  0
   -8.5237    1.8535   -0.0000 N   0  0  0  0  0  0  0  0  0  0  0  0
   -9.3855    3.0695   -0.0000 N   0  0  0  0  0  0  0  0  0  0  0  0
  -10.8966    3.0931   -0.0000 C   0  0  0  0  0  0  0  0  0  0  0  0
  -11.6522    4.4035   -0.0000 C   0  0  0  0  0  0  0  0  0  0  0  0
  -13.1633    4.4271   -0.0000 C   0  0  0  0  0  0  0  0  0  0  0  0
  -13.9189    5.7375   -0.0000 N   0  0  0  0  0  0  0  0  0  0  0  0
  -13.1751    7.0362   -0.0000 C   0  0  0  0  0  0  0  0  0  0  0  0
  -15.4300    5.7612   -0.0000 C   0  0  0  0  0  0  0  0  0  0  0  0
  1  2  1  0  0  0  0
  2  3  2  0  0  0  0
  2  4  1  0  0  0  0
  3  5  1  0  0  0  0
  3  6  1  0  0  0  0
  4  7  2  0  0  0  0
  5  8  2  0  0  0  0
  6  9  1  6  0  0  0
  6 10  1  0  0  0  0
  9 11  1  0  0  0  0
 11 12  2  0  0  0  0
 11 13  1  0  0  0  0
 12 14  1  0  0  0  0
 12 15  1  0  0  0  0
 13 16  2  0  0  0  0
 15 17  2  0  0  0  0
 15 18  1  0  0  0  0
 16 19  1  0  0  0  0
 19 20  1  0  0  0  0
 19 21  1  0  0  0  0
 20 22  2  0  0  0  0
 20 23  1  0  0  0  0
 21 24  2  0  0  0  0
 22 25  1  0  0  0  0
 23 26  2  0  0  0  0
 25 27  2  0  0  0  0
 27 28  1  0  0  0  0
 28 29  1  0  0  0  0
 28 30  2  0  0  0  0
 29 31  2  0  0  0  0
 30 32  1  0  0  0  0
 32 33  1  0  0  0  0
 33 34  1  0  0  0  0
 34 35  1  0  0  0  0
 35 36  1  0  0  0  0
 36 37  1  0  0  0  0
 36 38  1  0  0  0  0
  7  8  1  0  0  0  0
 14 16  1  0  0  0  0
 22 24  1  0  0  0  0
 26 27  1  0  0  0  0
 31 32  1  0  0  0  0
M  END
>  <MolRegNo>
682816

>  <m>
=

>  <Value>
900

>  <Unit>
nM

>  <Type>
IC50

>  <pValue>
6.05

>  <Ligand Efficiency>
0

>  <Binding Efficiency>
0

>  <Surface Efficiency>
0

>  <Assay Index>
488688

>  <Assay Category>


>  <Assay Organism>
Homo sapiens

>  <Target ID>
17045

>  <Target Name>
Cytochrome P450 3A4

>  <Target Organism>
Homo sapiens

>  <Target Description>
Target is a single protein chain

>  <Sequence Accession>
P08684

>  <Reference>
Bioorg Med Chem Lett 20 (15), 4587-4592 (2010)

>  <Pubmed ID>
20594842

>  <DOI>
10.1016/j.bmcl.2010.06.009

$$$$
682817
Actelion Java MolfileCreator 1.0

 43 48  0  0  0  0  0  0  0  0999 V2000
    0.0000   -0.0000   -0.0000 Cl  0  0  0  0  0  0  0  0  0  0  0  0
    1.4865   -0.0000   -0.0000 C   0  0  0  0  0  0  0  0  0  0  0  0
    2.2297    1.2977   -0.0000 C   0  0  0  0  0  0  0  0  0  0  0  0
    2.2179   -1.2859   -0.0000 C   0  0  0  0  0  0  0  0  0  0  0  0
    3.7044    1.3095   -0.0000 C   0  0  0  0  0  0  0  0  0  0  0  0
    1.4747    2.6072   -0.0000 C   0  0  0  0  0  0  0  0  0  0  0  0
    3.7044   -1.2859   -0.0000 C   0  0  0  0  0  0  0  0  0  0  0  0
    4.4358    0.0236   -0.0000 C   0  0  0  0  0  0  0  0  0  0  0  0
    2.2179    3.9050   -0.0000 O   0  0  0  0  0  0  0  0  0  0  0  0
   -0.0354    2.6308   -0.0000 C   0  0  0  0  0  0  0  0  0  0  0  0
    1.3331    5.1319   -0.0000 C   0  0  0  0  0  0  0  0  0  0  0  0
    1.7932    6.5712   -0.0000 C   0  0  0  0  0  0  0  0  0  0  0  0
   -0.1770    5.1437   -0.0000 C   0  0  0  0  0  0  0  0  0  0  0  0
    0.5663    7.4560   -0.0000 S   0  0  0  0  0  0  0  0  0  0  0  0
    3.0791    7.3380   -0.0000 C   0  0  0  0  0  0  0  0  0  0  0  0
   -0.6489    6.5830   -0.0000 C   0  0  0  0  0  0  0  0  0  0  0  0
    3.0673    8.8481   -0.0000 O   0  0  0  0  0  0  0  0  0  0  0  0
    4.3651    6.6066   -0.0000 N   0  0  0  0  0  0  0  0  0  0  0  0
   -2.0764    7.0549   -0.0000 N   0  0  0  0  0  0  0  0  0  0  0  0
   -3.1971    6.0757   -0.0000 C   0  0  0  0  0  0  0  0  0  0  0  0
   -2.6780    8.4352   -0.0000 C   0  0  0  0  0  0  0  0  0  0  0  0
   -4.5066    6.8425   -0.0000 C   0  0  0  0  0  0  0  0  0  0  0  0
   -3.2089    4.6010   -0.0000 C   0  0  0  0  0  0  0  0  0  0  0  0
   -4.1763    8.3054   -0.0000 N   0  0  0  0  0  0  0  0  0  0  0  0
   -5.8162    6.1111   -0.0000 C   0  0  0  0  0  0  0  0  0  0  0  0
   -4.5184    3.8696   -0.0000 C   0  0  0  0  0  0  0  0  0  0  0  0
   -5.8280    4.6246   -0.0000 C   0  0  0  0  0  0  0  0  0  0  0  0
   -7.0549    3.7752   -0.0000 C   0  0  0  0  0  0  0  0  0  0  0  0
   -7.0785    2.3005   -0.0000 C   0  0  0  0  0  0  0  0  0  0  0  0
   -8.4824    4.2589   -0.0000 C   0  0  0  0  0  0  0  0  0  0  0  0
   -8.5178    1.8522   -0.0000 N   0  0  0  0  0  0  0  0  0  0  0  0
   -9.3790    3.0673   -0.0000 N   0  0  0  0  0  0  0  0  0  0  0  0
  -10.8891    3.0909   -0.0000 C   0  0  0  0  0  0  0  0  0  0  0  0
  -11.6441    4.4005   -0.0000 C   0  0  0  0  0  0  0  0  0  0  0  0
  -13.1542    4.4241   -0.0000 C   0  0  0  0  0  0  0  0  0  0  0  0
  -13.9092    5.7336   -0.0000 N   0  0  0  0  0  0  0  0  0  0  0  0
  -13.1660    7.0313   -0.0000 C   0  0  0  0  0  0  0  0  0  0  0  0
  -15.4193    5.7572   -0.0000 C   0  0  0  0  0  0  0  0  0  0  0  0
  -13.9092    8.3408   -0.0000 C   0  0  0  0  0  0  0  0  0  0  0  0
  -16.1625    7.0785   -0.0000 C   0  0  0  0  0  0  0  0  0  0  0  0
  -15.4193    8.3644   -0.0000 N   0  0  0  0  0  0  0  0  0  0  0  0
  -16.1625    9.6739   -0.0000 C   0  0  0  0  0  0  0  0  0  0  0  0
  -17.6726    9.6975   -0.0000 C   0  0  0  0  0  0  0  0  0  0  0  0
  1  2  1  0  0  0  0
  2  3  2  0  0  0  0
  2  4  1  0  0  0  0
  3  5  1  0  0  0  0
  3  6  1  0  0  0  0
  4  7  2  0  0  0  0
  5  8  2  0  0  0  0
  6  9  1  6  0  0  0
  6 10  1  0  0  0  0
  9 11  1  0  0  0  0
 11 12  2  0  0  0  0
 11 13  1  0  0  0  0
 12 14  1  0  0  0  0
 12 15  1  0  0  0  0
 13 16  2  0  0  0  0
 15 17  2  0  0  0  0
 15 18  1  0  0  0  0
 16 19  1  0  0  0  0
 19 20  1  0  0  0  0
 19 21  1  0  0  0  0
 20 22  2  0  0  0  0
 20 23  1  0  0  0  0
 21 24  2  0  0  0  0
 22 25  1  0  0  0  0
 23 26  2  0  0  0  0
 25 27  2  0  0  0  0
 27 28  1  0  0  0  0
 28 29  1  0  0  0  0
 28 30  2  0  0  0  0
 29 31  2  0  0  0  0
 30 32  1  0  0  0  0
 32 33  1  0  0  0  0
 33 34  1  0  0  0  0
 34 35  1  0  0  0  0
 35 36  1  0  0  0  0
 36 37  1  0  0  0  0
 36 38  1  0  0  0  0
 37 39  1  0  0  0  0
 38 40  1  0  0  0  0
 39 41  1  0  0  0  0
 41 42  1  0  0  0  0
 42 43  1  0  0  0  0
  7  8  1  0  0  0  0
 14 16  1  0  0  0  0
 22 24  1  0  0  0  0
 26 27  1  0  0  0  0
 31 32  1  0  0  0  0
 40 41  1  0  0  0  0
M  END
>  <MolRegNo>
682817

>  <m>
=

>  <Value>
1000

>  <Unit>
nM

>  <Type>
IC50

>  <pValue>
6

>  <Ligand Efficiency>
0

>  <Binding Efficiency>
0

>  <Surface Efficiency>
0

>  <Assay Index>
488688

>  <Assay Category>


>  <Assay Organism>
Homo sapiens

>  <Target ID>
17045

>  <Target Name>
Cytochrome P450 3A4

>  <Target Organism>
Homo sapiens

>  <Target Description>
Target is a single protein chain

>  <Sequence Accession>
P08684

>  <Reference>
Bioorg Med Chem Lett 20 (15), 4587-4592 (2010)

>  <Pubmed ID>
20594842

>  <DOI>
10.1016/j.bmcl.2010.06.009

$$$$
682760
Actelion Java MolfileCreator 1.0

 40 44  0  0  0  0  0  0  0  0999 V2000
    0.0000   -0.0000   -0.0000 Cl  0  0  0  0  0  0  0  0  0  0  0  0
    1.4880   -0.0000   -0.0000 C   0  0  0  0  0  0  0  0  0  0  0  0
    2.2320    1.2990   -0.0000 C   0  0  0  0  0  0  0  0  0  0  0  0
    2.2202   -1.2872   -0.0000 C   0  0  0  0  0  0  0  0  0  0  0  0
    3.7081    1.3108   -0.0000 C   0  0  0  0  0  0  0  0  0  0  0  0
    1.4762    2.6099   -0.0000 C   0  0  0  0  0  0  0  0  0  0  0  0
    3.7081   -1.2872   -0.0000 C   0  0  0  0  0  0  0  0  0  0  0  0
    4.4403    0.0354   -0.0000 C   0  0  0  0  0  0  0  0  0  0  0  0
    2.2202    3.9089   -0.0000 O   0  0  0  0  0  0  0  0  0  0  0  0
   -0.0354    2.6335   -0.0000 C   0  0  0  0  0  0  0  0  0  0  0  0
    1.3345    5.1371   -0.0000 C   0  0  0  0  0  0  0  0  0  0  0  0
    1.7950    6.5778   -0.0000 C   0  0  0  0  0  0  0  0  0  0  0  0
   -0.1771    5.1489   -0.0000 C   0  0  0  0  0  0  0  0  0  0  0  0
    0.5787    7.4635   -0.0000 S   0  0  0  0  0  0  0  0  0  0  0  0
    3.0822    7.3336   -0.0000 C   0  0  0  0  0  0  0  0  0  0  0  0
   -0.6495    6.5896   -0.0000 C   0  0  0  0  0  0  0  0  0  0  0  0
    3.0704    8.8452   -0.0000 O   0  0  0  0  0  0  0  0  0  0  0  0
    4.3577    6.5896   -0.0000 N   0  0  0  0  0  0  0  0  0  0  0  0
   -2.0784    7.0620   -0.0000 N   0  0  0  0  0  0  0  0  0  0  0  0
   -3.2003    6.0818   -0.0000 C   0  0  0  0  0  0  0  0  0  0  0  0
   -2.6807    8.4437   -0.0000 C   0  0  0  0  0  0  0  0  0  0  0  0
   -4.5112    6.8494   -0.0000 C   0  0  0  0  0  0  0  0  0  0  0  0
   -3.2121    4.6057   -0.0000 C   0  0  0  0  0  0  0  0  0  0  0  0
   -4.1805    8.3138   -0.0000 N   0  0  0  0  0  0  0  0  0  0  0  0
   -5.8220    6.1173   -0.0000 C   0  0  0  0  0  0  0  0  0  0  0  0
   -4.5230    3.8735   -0.0000 C   0  0  0  0  0  0  0  0  0  0  0  0
   -5.8338    4.6293   -0.0000 C   0  0  0  0  0  0  0  0  0  0  0  0
   -7.1329    3.8971   -0.0000 C   0  0  0  0  0  0  0  0  0  0  0  0
   -8.4437    4.6647   -0.0000 C   0  0  0  0  0  0  0  0  0  0  0  0
   -7.1447    2.4209   -0.0000 C   0  0  0  0  0  0  0  0  0  0  0  0
   -9.7545    3.9325   -0.0000 C   0  0  0  0  0  0  0  0  0  0  0  0
   -8.4437    1.6887   -0.0000 C   0  0  0  0  0  0  0  0  0  0  0  0
   -9.7664    2.4445   -0.0000 N   0  0  0  0  0  0  0  0  0  0  0  0
  -11.0654    4.7001   -0.0000 N   0  0  0  0  0  0  0  0  0  0  0  0
  -12.3762    3.9679   -0.0000 C   0  0  0  0  0  0  0  0  0  0  0  0
  -13.6871    4.7356   -0.0000 C   0  0  0  0  0  0  0  0  0  0  0  0
  -14.9979    4.0034   -0.0000 S   0  0  0  0  0  0  0  0  0  0  0  0
  -15.7773    2.7280   -0.0000 O   0  0  0  0  0  0  0  0  0  0  0  0
  -14.2775    2.7280   -0.0000 O   0  0  0  0  0  0  0  0  0  0  0  0
  -16.3087    4.7710   -0.0000 C   0  0  0  0  0  0  0  0  0  0  0  0
  1  2  1  0  0  0  0
  2  3  2  0  0  0  0
  2  4  1  0  0  0  0
  3  5  1  0  0  0  0
  3  6  1  0  0  0  0
  4  7  2  0  0  0  0
  5  8  2  0  0  0  0
  6  9  1  6  0  0  0
  6 10  1  0  0  0  0
  9 11  1  0  0  0  0
 11 12  2  0  0  0  0
 11 13  1  0  0  0  0
 12 14  1  0  0  0  0
 12 15  1  0  0  0  0
 13 16  2  0  0  0  0
 15 17  2  0  0  0  0
 15 18  1  0  0  0  0
 16 19  1  0  0  0  0
 19 20  1  0  0  0  0
 19 21  1  0  0  0  0
 20 22  2  0  0  0  0
 20 23  1  0  0  0  0
 21 24  2  0  0  0  0
 22 25  1  0  0  0  0
 23 26  2  0  0  0  0
 25 27  2  0  0  0  0
 27 28  1  0  0  0  0
 28 29  2  0  0  0  0
 28 30  1  0  0  0  0
 29 31  1  0  0  0  0
 30 32  2  0  0  0  0
 31 33  2  0  0  0  0
 31 34  1  0  0  0  0
 34 35  1  0  0  0  0
 35 36  1  0  0  0  0
 36 37  1  0  0  0  0
 37 38  2  0  0  0  0
 37 39  2  0  0  0  0
 37 40  1  0  0  0  0
  7  8  1  0  0  0  0
 14 16  1  0  0  0  0
 22 24  1  0  0  0  0
 26 27  1  0  0  0  0
 32 33  1  0  0  0  0
M  END
>  <MolRegNo>
682760

>  <m>
=

>  <Value>
3500

>  <Unit>
nM

>  <Type>
IC50

>  <pValue>
5.46

>  <Ligand Efficiency>
0

>  <Binding Efficiency>
0

>  <Surface Efficiency>
0

>  <Assay Index>
488689

>  <Assay Category>


>  <Assay Organism>
Homo sapiens

>  <Target ID>
17045

>  <Target Name>
Cytochrome P450 3A4

>  <Target Organism>
Homo sapiens

>  <Target Description>
Target is a single protein chain

>  <Sequence Accession>
P08684

>  <Reference>
Bioorg Med Chem Lett 20 (15), 4587-4592 (2010)

>  <Pubmed ID>
20594842

>  <DOI>
10.1016/j.bmcl.2010.06.009

$$$$
682761
Actelion Java MolfileCreator 1.0

 37 41  0  0  0  0  0  0  0  0999 V2000
    0.0000   -0.0000   -0.0000 Cl  0  0  0  0  0  0  0  0  0  0  0  0
    1.4872   -0.0000   -0.0000 C   0  0  0  0  0  0  0  0  0  0  0  0
    2.2308    1.2984   -0.0000 C   0  0  0  0  0  0  0  0  0  0  0  0
    2.2190   -1.2866   -0.0000 C   0  0  0  0  0  0  0  0  0  0  0  0
    3.7062    1.3102   -0.0000 C   0  0  0  0  0  0  0  0  0  0  0  0
    1.4754    2.6085   -0.0000 C   0  0  0  0  0  0  0  0  0  0  0  0
    3.7062   -1.2866   -0.0000 C   0  0  0  0  0  0  0  0  0  0  0  0
    4.4380    0.0354   -0.0000 C   0  0  0  0  0  0  0  0  0  0  0  0
    2.2190    3.9069   -0.0000 O   0  0  0  0  0  0  0  0  0  0  0  0
   -0.0354    2.6321   -0.0000 C   0  0  0  0  0  0  0  0  0  0  0  0
    1.3338    5.1344   -0.0000 C   0  0  0  0  0  0  0  0  0  0  0  0
    1.7941    6.5744   -0.0000 C   0  0  0  0  0  0  0  0  0  0  0  0
   -0.1770    5.1462   -0.0000 C   0  0  0  0  0  0  0  0  0  0  0  0
    0.5784    7.4597   -0.0000 S   0  0  0  0  0  0  0  0  0  0  0  0
    3.0807    7.3298   -0.0000 C   0  0  0  0  0  0  0  0  0  0  0  0
   -0.6492    6.5862   -0.0000 C   0  0  0  0  0  0  0  0  0  0  0  0
    3.0689    8.8407   -0.0000 O   0  0  0  0  0  0  0  0  0  0  0  0
    4.3554    6.5862   -0.0000 N   0  0  0  0  0  0  0  0  0  0  0  0
   -2.0774    7.0584   -0.0000 N   0  0  0  0  0  0  0  0  0  0  0  0
   -3.1987    6.0787   -0.0000 C   0  0  0  0  0  0  0  0  0  0  0  0
   -2.6793    8.4393   -0.0000 C   0  0  0  0  0  0  0  0  0  0  0  0
   -4.5089    6.8459   -0.0000 C   0  0  0  0  0  0  0  0  0  0  0  0
   -3.2105    4.6033   -0.0000 C   0  0  0  0  0  0  0  0  0  0  0  0
   -4.1784    8.3095   -0.0000 N   0  0  0  0  0  0  0  0  0  0  0  0
   -5.8190    6.1141   -0.0000 C   0  0  0  0  0  0  0  0  0  0  0  0
   -4.5207    3.8715   -0.0000 C   0  0  0  0  0  0  0  0  0  0  0  0
   -5.8308    4.6269   -0.0000 C   0  0  0  0  0  0  0  0  0  0  0  0
   -7.1292    3.8951   -0.0000 C   0  0  0  0  0  0  0  0  0  0  0  0
   -8.4393    4.6623   -0.0000 C   0  0  0  0  0  0  0  0  0  0  0  0
   -7.1410    2.4197   -0.0000 C   0  0  0  0  0  0  0  0  0  0  0  0
   -9.7495    3.9305   -0.0000 C   0  0  0  0  0  0  0  0  0  0  0  0
   -8.4393    1.6879   -0.0000 C   0  0  0  0  0  0  0  0  0  0  0  0
   -9.7613    2.4433   -0.0000 N   0  0  0  0  0  0  0  0  0  0  0  0
  -11.0597    4.6977   -0.0000 N   0  0  0  0  0  0  0  0  0  0  0  0
  -12.3698    3.9659   -0.0000 C   0  0  0  0  0  0  0  0  0  0  0  0
  -13.6800    4.7331   -0.0000 C   0  0  0  0  0  0  0  0  0  0  0  0
  -15.0020    4.0013   -0.0000 O   0  0  0  0  0  0  0  0  0  0  0  0
  1  2  1  0  0  0  0
  2  3  2  0  0  0  0
  2  4  1  0  0  0  0
  3  5  1  0  0  0  0
  3  6  1  0  0  0  0
  4  7  2  0  0  0  0
  5  8  2  0  0  0  0
  6  9  1  6  0  0  0
  6 10  1  0  0  0  0
  9 11  1  0  0  0  0
 11 12  2  0  0  0  0
 11 13  1  0  0  0  0
 12 14  1  0  0  0  0
 12 15  1  0  0  0  0
 13 16  2  0  0  0  0
 15 17  2  0  0  0  0
 15 18  1  0  0  0  0
 16 19  1  0  0  0  0
 19 20  1  0  0  0  0
 19 21  1  0  0  0  0
 20 22  2  0  0  0  0
 20 23  1  0  0  0  0
 21 24  2  0  0  0  0
 22 25  1  0  0  0  0
 23 26  2  0  0  0  0
 25 27  2  0  0  0  0
 27 28  1  0  0  0  0
 28 29  2  0  0  0  0
 28 30  1  0  0  0  0
 29 31  1  0  0  0  0
 30 32  2  0  0  0  0
 31 33  2  0  0  0  0
 31 34  1  0  0  0  0
 34 35  1  0  0  0  0
 35 36  1  0  0  0  0
 36 37  1  0  0  0  0
  7  8  1  0  0  0  0
 14 16  1  0  0  0  0
 22 24  1  0  0  0  0
 26 27  1  0  0  0  0
 32 33  1  0  0  0  0
M  END
>  <MolRegNo>
682761

>  <m>
=

>  <Value>
3700

>  <Unit>
nM

>  <Type>
IC50

>  <pValue>
5.43

>  <Ligand Efficiency>
0

>  <Binding Efficiency>
0

>  <Surface Efficiency>
0

>  <Assay Index>
488689

>  <Assay Category>


>  <Assay Organism>
Homo sapiens

>  <Target ID>
17045

>  <Target Name>
Cytochrome P450 3A4

>  <Target Organism>
Homo sapiens

>  <Target Description>
Target is a single protein chain

>  <Sequence Accession>
P08684

>  <Reference>
Bioorg Med Chem Lett 20 (15), 4587-4592 (2010)

>  <Pubmed ID>
20594842

>  <DOI>
10.1016/j.bmcl.2010.06.009

$$$$
682814
Actelion Java MolfileCreator 1.0

 40 45  0  0  0  0  0  0  0  0999 V2000
    0.0000   -0.0000   -0.0000 Cl  0  0  0  0  0  0  0  0  0  0  0  0
    1.4871   -0.0000   -0.0000 C   0  0  0  0  0  0  0  0  0  0  0  0
    2.2307    1.2983   -0.0000 C   0  0  0  0  0  0  0  0  0  0  0  0
    2.2189   -1.2865   -0.0000 C   0  0  0  0  0  0  0  0  0  0  0  0
    3.7061    1.3101   -0.0000 C   0  0  0  0  0  0  0  0  0  0  0  0
    1.4753    2.6084   -0.0000 C   0  0  0  0  0  0  0  0  0  0  0  0
    3.7061   -1.2865   -0.0000 C   0  0  0  0  0  0  0  0  0  0  0  0
    4.4378    0.0354   -0.0000 C   0  0  0  0  0  0  0  0  0  0  0  0
    2.2189    3.9067   -0.0000 O   0  0  0  0  0  0  0  0  0  0  0  0
   -0.0354    2.6320   -0.0000 C   0  0  0  0  0  0  0  0  0  0  0  0
    1.3337    5.1342   -0.0000 C   0  0  0  0  0  0  0  0  0  0  0  0
    1.7940    6.5741   -0.0000 C   0  0  0  0  0  0  0  0  0  0  0  0
   -0.1770    5.1460   -0.0000 C   0  0  0  0  0  0  0  0  0  0  0  0
    0.5665    7.4593   -0.0000 S   0  0  0  0  0  0  0  0  0  0  0  0
    3.0451    7.3767   -0.0000 C   0  0  0  0  0  0  0  0  0  0  0  0
   -0.6492    6.5859   -0.0000 C   0  0  0  0  0  0  0  0  0  0  0  0
    2.9861    8.8875   -0.0000 O   0  0  0  0  0  0  0  0  0  0  0  0
    4.3552    6.6922   -0.0000 N   0  0  0  0  0  0  0  0  0  0  0  0
   -2.0773    7.0580   -0.0000 N   0  0  0  0  0  0  0  0  0  0  0  0
   -3.1985    6.0784   -0.0000 C   0  0  0  0  0  0  0  0  0  0  0  0
   -2.6792    8.4390   -0.0000 C   0  0  0  0  0  0  0  0  0  0  0  0
   -4.5087    6.8456   -0.0000 C   0  0  0  0  0  0  0  0  0  0  0  0
   -3.2103    4.6031   -0.0000 C   0  0  0  0  0  0  0  0  0  0  0  0
   -4.1782    8.3091   -0.0000 N   0  0  0  0  0  0  0  0  0  0  0  0
   -5.8188    6.1138   -0.0000 C   0  0  0  0  0  0  0  0  0  0  0  0
   -4.5205    3.8713   -0.0000 C   0  0  0  0  0  0  0  0  0  0  0  0
   -5.8306    4.6267   -0.0000 C   0  0  0  0  0  0  0  0  0  0  0  0
   -7.0580    3.7769   -0.0000 C   0  0  0  0  0  0  0  0  0  0  0  0
   -7.0817    2.3015   -0.0000 C   0  0  0  0  0  0  0  0  0  0  0  0
   -8.4862    4.2608   -0.0000 C   0  0  0  0  0  0  0  0  0  0  0  0
   -8.5216    1.8530   -0.0000 N   0  0  0  0  0  0  0  0  0  0  0  0
   -9.3832    3.0687   -0.0000 N   0  0  0  0  0  0  0  0  0  0  0  0
  -10.8939    3.0923   -0.0000 C   0  0  0  0  0  0  0  0  0  0  0  0
  -11.6493    4.4024   -0.0000 C   0  0  0  0  0  0  0  0  0  0  0  0
  -13.1601    4.4260   -0.0000 N   0  0  0  0  0  0  0  0  0  0  0  0
  -13.9155    5.7361   -0.0000 C   0  0  0  0  0  0  0  0  0  0  0  0
  -13.9273    3.1395   -0.0000 C   0  0  0  0  0  0  0  0  0  0  0  0
  -15.4144    5.7597   -0.0000 C   0  0  0  0  0  0  0  0  0  0  0  0
  -15.4380    3.1631   -0.0000 C   0  0  0  0  0  0  0  0  0  0  0  0
  -16.1934    4.4850   -0.0000 O   0  0  0  0  0  0  0  0  0  0  0  0
  1  2  1  0  0  0  0
  2  3  2  0  0  0  0
  2  4  1  0  0  0  0
  3  5  1  0  0  0  0
  3  6  1  0  0  0  0
  4  7  2  0  0  0  0
  5  8  2  0  0  0  0
  6  9  1  6  0  0  0
  6 10  1  0  0  0  0
  9 11  1  0  0  0  0
 11 12  2  0  0  0  0
 11 13  1  0  0  0  0
 12 14  1  0  0  0  0
 12 15  1  0  0  0  0
 13 16  2  0  0  0  0
 15 17  2  0  0  0  0
 15 18  1  0  0  0  0
 16 19  1  0  0  0  0
 19 20  1  0  0  0  0
 19 21  1  0  0  0  0
 20 22  2  0  0  0  0
 20 23  1  0  0  0  0
 21 24  2  0  0  0  0
 22 25  1  0  0  0  0
 23 26  2  0  0  0  0
 25 27  2  0  0  0  0
 27 28  1  0  0  0  0
 28 29  1  0  0  0  0
 28 30  2  0  0  0  0
 29 31  2  0  0  0  0
 30 32  1  0  0  0  0
 32 33  1  0  0  0  0
 33 34  1  0  0  0  0
 34 35  1  0  0  0  0
 35 36  1  0  0  0  0
 35 37  1  0  0  0  0
 36 38  1  0  0  0  0
 37 39  1  0  0  0  0
 38 40  1  0  0  0  0
  7  8  1  0  0  0  0
 14 16  1  0  0  0  0
 22 24  1  0  0  0  0
 26 27  1  0  0  0  0
 31 32  1  0  0  0  0
 39 40  1  0  0  0  0
M  END
>  <MolRegNo>
682814

>  <m>
=

>  <Value>
2100

>  <Unit>
nM

>  <Type>
IC50

>  <pValue>
5.68

>  <Ligand Efficiency>
0

>  <Binding Efficiency>
0

>  <Surface Efficiency>
0

>  <Assay Index>
488689

>  <Assay Category>


>  <Assay Organism>
Homo sapiens

>  <Target ID>
17045

>  <Target Name>
Cytochrome P450 3A4

>  <Target Organism>
Homo sapiens

>  <Target Description>
Target is a single protein chain

>  <Sequence Accession>
P08684

>  <Reference>
Bioorg Med Chem Lett 20 (15), 4587-4592 (2010)

>  <Pubmed ID>
20594842

>  <DOI>
10.1016/j.bmcl.2010.06.009

$$$$
683649
Actelion Java MolfileCreator 1.0

 33 37  0  0  0  0  0  0  0  0999 V2000
    0.0000   -0.0000   -0.0000 Cl  0  0  0  0  0  0  0  0  0  0  0  0
    1.4878   -0.0000   -0.0000 C   0  0  0  0  0  0  0  0  0  0  0  0
    2.2318    1.2989   -0.0000 C   0  0  0  0  0  0  0  0  0  0  0  0
    2.2199   -1.2871   -0.0000 C   0  0  0  0  0  0  0  0  0  0  0  0
    3.7078    1.3107   -0.0000 C   0  0  0  0  0  0  0  0  0  0  0  0
    1.4760    2.6096   -0.0000 C   0  0  0  0  0  0  0  0  0  0  0  0
    3.7078   -1.2871   -0.0000 C   0  0  0  0  0  0  0  0  0  0  0  0
    4.4399    0.0236   -0.0000 C   0  0  0  0  0  0  0  0  0  0  0  0
    2.2199    3.9085   -0.0000 O   0  0  0  0  0  0  0  0  0  0  0  0
   -0.0354    2.6332   -0.0000 C   0  0  0  0  0  0  0  0  0  0  0  0
    1.3343    5.1366   -0.0000 C   0  0  0  0  0  0  0  0  0  0  0  0
    1.7949    6.5772   -0.0000 C   0  0  0  0  0  0  0  0  0  0  0  0
   -0.1771    5.1484   -0.0000 C   0  0  0  0  0  0  0  0  0  0  0  0
    0.5668    7.4628   -0.0000 S   0  0  0  0  0  0  0  0  0  0  0  0
    3.0819    7.3447   -0.0000 C   0  0  0  0  0  0  0  0  0  0  0  0
   -0.6495    6.5890   -0.0000 C   0  0  0  0  0  0  0  0  0  0  0  0
    3.0701    8.8562   -0.0000 O   0  0  0  0  0  0  0  0  0  0  0  0
    4.3690    6.6126   -0.0000 N   0  0  0  0  0  0  0  0  0  0  0  0
   -2.0782    7.0613   -0.0000 N   0  0  0  0  0  0  0  0  0  0  0  0
   -3.2000    6.0812   -0.0000 C   0  0  0  0  0  0  0  0  0  0  0  0
   -2.6805    8.4429   -0.0000 C   0  0  0  0  0  0  0  0  0  0  0  0
   -4.5107    6.8488   -0.0000 C   0  0  0  0  0  0  0  0  0  0  0  0
   -3.2118    4.6052   -0.0000 C   0  0  0  0  0  0  0  0  0  0  0  0
   -4.1801    8.3130   -0.0000 N   0  0  0  0  0  0  0  0  0  0  0  0
   -5.8215    6.1167   -0.0000 C   0  0  0  0  0  0  0  0  0  0  0  0
   -4.5226    3.8731   -0.0000 C   0  0  0  0  0  0  0  0  0  0  0  0
   -5.8333    4.6288   -0.0000 C   0  0  0  0  0  0  0  0  0  0  0  0
   -7.0613    3.7550   -0.0000 C   0  0  0  0  0  0  0  0  0  0  0  0
   -7.0849    2.2672   -0.0000 C   0  0  0  0  0  0  0  0  0  0  0  0
   -8.4901    4.2392   -0.0000 C   0  0  0  0  0  0  0  0  0  0  0  0
   -8.5255    1.8303   -0.0000 N   0  0  0  0  0  0  0  0  0  0  0  0
   -9.3875    3.0465   -0.0000 N   0  0  0  0  0  0  0  0  0  0  0  0
  -10.8990    3.0701   -0.0000 C   0  0  0  0  0  0  0  0  0  0  0  0
  1  2  1  0  0  0  0
  2  3  2  0  0  0  0
  2  4  1  0  0  0  0
  3  5  1  0  0  0  0
  3  6  1  0  0  0  0
  4  7  2  0  0  0  0
  5  8  2  0  0  0  0
  6  9  1  6  0  0  0
  6 10  1  0  0  0  0
  9 11  1  0  0  0  0
 11 12  2  0  0  0  0
 11 13  1  0  0  0  0
 12 14  1  0  0  0  0
 12 15  1  0  0  0  0
 13 16  2  0  0  0  0
 15 17  2  0  0  0  0
 15 18  1  0  0  0  0
 16 19  1  0  0  0  0
 19 20  1  0  0  0  0
 19 21  1  0  0  0  0
 20 22  2  0  0  0  0
 20 23  1  0  0  0  0
 21 24  2  0  0  0  0
 22 25  1  0  0  0  0
 23 26  2  0  0  0  0
 25 27  2  0  0  0  0
 27 28  1  0  0  0  0
 28 29  1  0  0  0  0
 28 30  2  0  0  0  0
 29 31  2  0  0  0  0
 30 32  1  0  0  0  0
 32 33  1  0  0  0  0
  7  8  1  0  0  0  0
 14 16  1  0  0  0  0
 22 24  1  0  0  0  0
 26 27  1  0  0  0  0
 31 32  1  0  0  0  0
M  END
>  <MolRegNo>
683649

>  <m>
=

>  <Value>
200

>  <Unit>
nM

>  <Type>
IC50

>  <pValue>
6.7

>  <Ligand Efficiency>
0

>  <Binding Efficiency>
0

>  <Surface Efficiency>
0

>  <Assay Index>
488688

>  <Assay Category>


>  <Assay Organism>
Homo sapiens

>  <Target ID>
17045

>  <Target Name>
Cytochrome P450 3A4

>  <Target Organism>
Homo sapiens

>  <Target Description>
Target is a single protein chain

>  <Sequence Accession>
P08684

>  <Reference>
Bioorg Med Chem Lett 20 (15), 4587-4592 (2010)

>  <Pubmed ID>
20594842

>  <DOI>
10.1016/j.bmcl.2010.06.009

$$$$
682632
Actelion Java MolfileCreator 1.0

 37 41  0  0  0  0  0  0  0  0999 V2000
    0.0000   -0.0000   -0.0000 S   0  0  0  0  0  0  0  0  0  0  0  0
    1.1971   -0.8652   -0.0000 C   0  0  0  0  0  0  0  0  0  0  0  0
   -1.2327   -0.8652   -0.0000 C   0  0  0  0  0  0  0  0  0  0  0  0
    0.7112   -2.2875   -0.0000 C   0  0  0  0  0  0  0  0  0  0  0  0
    2.4890   -0.0948   -0.0000 C   0  0  0  0  0  0  0  0  0  0  0  0
   -2.6668   -0.3911   -0.0000 N   0  0  0  0  0  0  0  0  0  0  0  0
   -0.7823   -2.2875   -0.0000 C   0  0  0  0  0  0  0  0  0  0  0  0
    1.5764   -3.4965   -0.0000 O   0  0  0  0  0  0  0  0  0  0  0  0
    2.4772    1.4105   -0.0000 O   0  0  0  0  0  0  0  0  0  0  0  0
    3.7810   -0.8297   -0.0000 N   0  0  0  0  0  0  0  0  0  0  0  0
   -3.7928   -1.3749   -0.0000 C   0  0  0  0  0  0  0  0  0  0  0  0
   -3.2713    0.9956   -0.0000 C   0  0  0  0  0  0  0  0  0  0  0  0
    0.8060   -4.7766   -0.0000 C   0  0  0  0  0  0  0  0  0  0  0  0
   -5.1085   -0.6045   -0.0000 C   0  0  0  0  0  0  0  0  0  0  0  0
   -3.8047   -2.8565   -0.0000 C   0  0  0  0  0  0  0  0  0  0  0  0
   -4.7766    0.8652   -0.0000 N   0  0  0  0  0  0  0  0  0  0  0  0
    1.5408   -6.0685   -0.0000 C   0  0  0  0  0  0  0  0  0  0  0  0
   -0.6993   -4.7529   -0.0000 C   0  0  0  0  0  0  0  0  0  0  0  0
   -6.4241   -1.3393   -0.0000 C   0  0  0  0  0  0  0  0  0  0  0  0
   -5.1085   -3.5913   -0.0000 C   0  0  0  0  0  0  0  0  0  0  0  0
    0.7704   -7.3486   -0.0000 C   0  0  0  0  0  0  0  0  0  0  0  0
    3.0224   -6.0567   -0.0000 C   0  0  0  0  0  0  0  0  0  0  0  0
   -6.4359   -2.8328   -0.0000 C   0  0  0  0  0  0  0  0  0  0  0  0
    1.5053   -8.6405   -0.0000 C   0  0  0  0  0  0  0  0  0  0  0  0
   -0.7349   -7.3249   -0.0000 C   0  0  0  0  0  0  0  0  0  0  0  0
    3.7573   -7.3367   -0.0000 C   0  0  0  0  0  0  0  0  0  0  0  0
   -7.7397   -3.5676   -0.0000 C   0  0  0  0  0  0  0  0  0  0  0  0
    2.9987   -8.6405   -0.0000 C   0  0  0  0  0  0  0  0  0  0  0  0
   -1.4934   -6.0092   -0.0000 F   0  0  0  0  0  0  0  0  0  0  0  0
   -1.5053   -8.6050   -0.0000 F   0  0  0  0  0  0  0  0  0  0  0  0
   -2.2520   -7.3012   -0.0000 F   0  0  0  0  0  0  0  0  0  0  0  0
   -9.0435   -2.7972   -0.0000 C   0  0  0  0  0  0  0  0  0  0  0  0
   -7.7516   -5.0492   -0.0000 C   0  0  0  0  0  0  0  0  0  0  0  0
  -10.3591   -3.5321   -0.0000 C   0  0  0  0  0  0  0  0  0  0  0  0
   -9.0553   -5.7840   -0.0000 C   0  0  0  0  0  0  0  0  0  0  0  0
  -10.3710   -5.0255   -0.0000 N   0  0  0  0  0  0  0  0  0  0  0  0
  -11.6629   -2.7735   -0.0000 N   0  0  0  0  0  0  0  0  0  0  0  0
  1  2  1  0  0  0  0
  1  3  1  0  0  0  0
  2  4  2  0  0  0  0
  2  5  1  0  0  0  0
  3  6  1  0  0  0  0
  3  7  2  0  0  0  0
  4  8  1  0  0  0  0
  5  9  2  0  0  0  0
  5 10  1  0  0  0  0
  6 11  1  0  0  0  0
  6 12  1  0  0  0  0
 13  8  1  6  0  0  0
 11 14  2  0  0  0  0
 11 15  1  0  0  0  0
 12 16  2  0  0  0  0
 13 17  1  0  0  0  0
 13 18  1  0  0  0  0
 14 19  1  0  0  0  0
 15 20  2  0  0  0  0
 17 21  2  0  0  0  0
 17 22  1  0  0  0  0
 19 23  2  0  0  0  0
 21 24  1  0  0  0  0
 21 25  1  0  0  0  0
 22 26  2  0  0  0  0
 23 27  1  0  0  0  0
 24 28  2  0  0  0  0
 25 29  1  0  0  0  0
 25 30  1  0  0  0  0
 25 31  1  0  0  0  0
 27 32  2  0  0  0  0
 27 33  1  0  0  0  0
 32 34  1  0  0  0  0
 33 35  2  0  0  0  0
 34 36  2  0  0  0  0
 34 37  1  0  0  0  0
  4  7  1  0  0  0  0
 14 16  1  0  0  0  0
 20 23  1  0  0  0  0
 26 28  1  0  0  0  0
 35 36  1  0  0  0  0
M  END
>  <MolRegNo>
682632

>  <m>
=

>  <Value>
6500

>  <Unit>
nM

>  <Type>
IC50

>  <pValue>
5.19

>  <Ligand Efficiency>
0

>  <Binding Efficiency>
0

>  <Surface Efficiency>
0

>  <Assay Index>
488691

>  <Assay Category>


>  <Assay Organism>
Homo sapiens

>  <Target ID>
17045

>  <Target Name>
Cytochrome P450 3A4

>  <Target Organism>
Homo sapiens

>  <Target Description>
Target is a single protein chain

>  <Sequence Accession>
P08684

>  <Reference>
Bioorg Med Chem Lett 20 (15), 4587-4592 (2010)

>  <Pubmed ID>
20594842

>  <DOI>
10.1016/j.bmcl.2010.06.009

$$$$
682689
Actelion Java MolfileCreator 1.0

 37 41  0  0  0  0  0  0  0  0999 V2000
    0.0000   -0.0000   -0.0000 S   0  0  0  0  0  0  0  0  0  0  0  0
    1.1973   -0.8654   -0.0000 C   0  0  0  0  0  0  0  0  0  0  0  0
   -1.2328   -0.8654   -0.0000 C   0  0  0  0  0  0  0  0  0  0  0  0
    0.7112   -2.2879   -0.0000 C   0  0  0  0  0  0  0  0  0  0  0  0
    2.4657   -0.0711   -0.0000 C   0  0  0  0  0  0  0  0  0  0  0  0
   -2.6672   -0.3912   -0.0000 N   0  0  0  0  0  0  0  0  0  0  0  0
   -0.7824   -2.2879   -0.0000 C   0  0  0  0  0  0  0  0  0  0  0  0
    1.5766   -3.4970   -0.0000 O   0  0  0  0  0  0  0  0  0  0  0  0
    2.4182    1.4344   -0.0000 O   0  0  0  0  0  0  0  0  0  0  0  0
    3.7696   -0.7824   -0.0000 N   0  0  0  0  0  0  0  0  0  0  0  0
   -3.7933   -1.3751   -0.0000 C   0  0  0  0  0  0  0  0  0  0  0  0
   -3.2717    0.9957   -0.0000 C   0  0  0  0  0  0  0  0  0  0  0  0
    0.8061   -4.7772   -0.0000 C   0  0  0  0  0  0  0  0  0  0  0  0
   -5.1091   -0.6046   -0.0000 C   0  0  0  0  0  0  0  0  0  0  0  0
   -3.8052   -2.8569   -0.0000 C   0  0  0  0  0  0  0  0  0  0  0  0
   -4.7772    0.8654   -0.0000 N   0  0  0  0  0  0  0  0  0  0  0  0
    1.5410   -6.0693   -0.0000 C   0  0  0  0  0  0  0  0  0  0  0  0
   -0.6994   -4.7535   -0.0000 C   0  0  0  0  0  0  0  0  0  0  0  0
   -6.4250   -1.3395   -0.0000 C   0  0  0  0  0  0  0  0  0  0  0  0
   -5.1091   -3.5918   -0.0000 C   0  0  0  0  0  0  0  0  0  0  0  0
    0.7705   -7.3496   -0.0000 C   0  0  0  0  0  0  0  0  0  0  0  0
    3.0228   -6.0575   -0.0000 C   0  0  0  0  0  0  0  0  0  0  0  0
   -6.4368   -2.8331   -0.0000 C   0  0  0  0  0  0  0  0  0  0  0  0
    1.5055   -8.6417   -0.0000 C   0  0  0  0  0  0  0  0  0  0  0  0
   -0.7350   -7.3259   -0.0000 C   0  0  0  0  0  0  0  0  0  0  0  0
    3.7578   -7.3377   -0.0000 C   0  0  0  0  0  0  0  0  0  0  0  0
   -7.7408   -3.5681   -0.0000 C   0  0  0  0  0  0  0  0  0  0  0  0
    2.9991   -8.6417   -0.0000 C   0  0  0  0  0  0  0  0  0  0  0  0
   -1.4936   -6.0101   -0.0000 F   0  0  0  0  0  0  0  0  0  0  0  0
   -1.5055   -8.6061   -0.0000 F   0  0  0  0  0  0  0  0  0  0  0  0
   -2.2523   -7.3022   -0.0000 F   0  0  0  0  0  0  0  0  0  0  0  0
   -9.0447   -2.7976   -0.0000 N   0  0  0  0  0  0  0  0  0  0  0  0
   -7.7526   -5.0499   -0.0000 C   0  0  0  0  0  0  0  0  0  0  0  0
  -10.3605   -3.5325   -0.0000 C   0  0  0  0  0  0  0  0  0  0  0  0
   -9.0566   -5.7848   -0.0000 C   0  0  0  0  0  0  0  0  0  0  0  0
  -10.3724   -5.0262   -0.0000 N   0  0  0  0  0  0  0  0  0  0  0  0
  -11.6645   -2.7739   -0.0000 N   0  0  0  0  0  0  0  0  0  0  0  0
  1  2  1  0  0  0  0
  1  3  1  0  0  0  0
  2  4  2  0  0  0  0
  2  5  1  0  0  0  0
  3  6  1  0  0  0  0
  3  7  2  0  0  0  0
  4  8  1  0  0  0  0
  5  9  2  0  0  0  0
  5 10  1  0  0  0  0
  6 11  1  0  0  0  0
  6 12  1  0  0  0  0
 13  8  1  6  0  0  0
 11 14  2  0  0  0  0
 11 15  1  0  0  0  0
 12 16  2  0  0  0  0
 13 17  1  0  0  0  0
 13 18  1  0  0  0  0
 14 19  1  0  0  0  0
 15 20  2  0  0  0  0
 17 21  2  0  0  0  0
 17 22  1  0  0  0  0
 19 23  2  0  0  0  0
 21 24  1  0  0  0  0
 21 25  1  0  0  0  0
 22 26  2  0  0  0  0
 23 27  1  0  0  0  0
 24 28  2  0  0  0  0
 25 29  1  0  0  0  0
 25 30  1  0  0  0  0
 25 31  1  0  0  0  0
 27 32  2  0  0  0  0
 27 33  1  0  0  0  0
 32 34  1  0  0  0  0
 33 35  2  0  0  0  0
 34 36  2  0  0  0  0
 34 37  1  0  0  0  0
  4  7  1  0  0  0  0
 14 16  1  0  0  0  0
 20 23  1  0  0  0  0
 26 28  1  0  0  0  0
 35 36  1  0  0  0  0
M  END
>  <MolRegNo>
682689

>  <m>
=

>  <Value>
6800

>  <Unit>
nM

>  <Type>
IC50

>  <pValue>
5.17

>  <Ligand Efficiency>
0

>  <Binding Efficiency>
0

>  <Surface Efficiency>
0

>  <Assay Index>
488688

>  <Assay Category>


>  <Assay Organism>
Homo sapiens

>  <Target ID>
17045

>  <Target Name>
Cytochrome P450 3A4

>  <Target Organism>
Homo sapiens

>  <Target Description>
Target is a single protein chain

>  <Sequence Accession>
P08684

>  <Reference>
Bioorg Med Chem Lett 20 (15), 4587-4592 (2010)

>  <Pubmed ID>
20594842

>  <DOI>
10.1016/j.bmcl.2010.06.009

$$$$
683342
Actelion Java MolfileCreator 1.0

 26 29  0  0  0  0  0  0  0  0999 V2000
    0.0000   -0.0000   -0.0000 Cl  0  0  0  0  0  0  0  0  0  0  0  0
   -1.3044   -0.7471   -0.0000 C   0  0  0  0  0  0  0  0  0  0  0  0
   -2.6089    0.0119   -0.0000 C   0  0  0  0  0  0  0  0  0  0  0  0
   -1.3163   -2.2413   -0.0000 C   0  0  0  0  0  0  0  0  0  0  0  0
   -2.6326    1.5179   -0.0000 C   0  0  0  0  0  0  0  0  0  0  0  0
   -3.9133   -0.7234   -0.0000 C   0  0  0  0  0  0  0  0  0  0  0  0
   -2.6326   -2.9765   -0.0000 C   0  0  0  0  0  0  0  0  0  0  0  0
   -3.9371    2.2650   -0.0000 N   0  0  0  0  0  0  0  0  0  0  0  0
   -1.3519    2.2769   -0.0000 C   0  0  0  0  0  0  0  0  0  0  0  0
   -3.9252   -2.2176   -0.0000 C   0  0  0  0  0  0  0  0  0  0  0  0
   -2.6445   -4.4588   -0.0000 Cl  0  0  0  0  0  0  0  0  0  0  0  0
   -5.3719    1.8025   -0.0000 N   0  0  0  0  0  0  0  0  0  0  0  0
   -3.9608    3.7710   -0.0000 C   0  0  0  0  0  0  0  0  0  0  0  0
   -1.3637    3.7829   -0.0000 C   0  0  0  0  0  0  0  0  0  0  0  0
   -0.0712    1.5416   -0.0000 C   0  0  0  0  0  0  0  0  0  0  0  0
   -6.2732    3.0239   -0.0000 C   0  0  0  0  0  0  0  0  0  0  0  0
   -2.6800    4.5300   -0.0000 N   0  0  0  0  0  0  0  0  0  0  0  0
   -5.4075    4.2335   -0.0000 C   0  0  0  0  0  0  0  0  0  0  0  0
   -0.0830    4.5418   -0.0000 C   0  0  0  0  0  0  0  0  0  0  0  0
    1.2096    2.3006   -0.0000 N   0  0  0  0  0  0  0  0  0  0  0  0
   -7.7792    3.0239   -0.0000 C   0  0  0  0  0  0  0  0  0  0  0  0
   -8.5501    4.3284   -0.0000 C   0  0  0  0  0  0  0  0  0  0  0  0
   -8.5263    1.7432   -0.0000 C   0  0  0  0  0  0  0  0  0  0  0  0
  -10.0561    4.3284   -0.0000 C   0  0  0  0  0  0  0  0  0  0  0  0
  -10.0324    1.7432   -0.0000 C   0  0  0  0  0  0  0  0  0  0  0  0
  -10.8032    3.0358   -0.0000 C   0  0  0  0  0  0  0  0  0  0  0  0
  1  2  1  0  0  0  0
  2  3  2  0  0  0  0
  2  4  1  0  0  0  0
  3  5  1  0  0  0  0
  3  6  1  0  0  0  0
  4  7  2  0  0  0  0
  5  8  1  0  0  0  0
  5  9  2  0  0  0  0
  6 10  2  0  0  0  0
  7 11  1  0  0  0  0
  8 12  1  0  0  0  0
  8 13  1  0  0  0  0
  9 14  1  0  0  0  0
  9 15  1  0  0  0  0
 12 16  2  0  0  0  0
 13 17  1  0  0  0  0
 13 18  2  0  0  0  0
 14 19  1  0  0  0  0
 15 20  1  0  0  0  0
 16 21  1  0  0  0  0
 21 22  2  0  0  0  0
 21 23  1  0  0  0  0
 22 24  1  0  0  0  0
 23 25  2  0  0  0  0
 24 26  2  0  0  0  0
  7 10  1  0  0  0  0
 14 17  2  0  0  0  0
 16 18  1  0  0  0  0
 25 26  1  0  0  0  0
M  END
>  <MolRegNo>
683342

>  <m>
=

>  <Value>
1000

>  <Unit>
nM

>  <Type>
IC50

>  <pValue>
6

>  <Ligand Efficiency>
0

>  <Binding Efficiency>
0

>  <Surface Efficiency>
0

>  <Assay Index>
488824

>  <Assay Category>


>  <Assay Organism>


>  <Target ID>
17045

>  <Target Name>
Cytochrome P450 3A4

>  <Target Organism>
Homo sapiens

>  <Target Description>
Target is a single protein chain

>  <Sequence Accession>
P08684

>  <Reference>
Bioorg Med Chem Lett 20 (15), 4395-4398 (2010)

>  <Pubmed ID>
20598534

>  <DOI>
10.1016/j.bmcl.2010.06.063

$$$$
683660
Actelion Java MolfileCreator 1.0

 26 29  0  0  0  0  0  0  0  0999 V2000
    0.0000   -0.0000   -0.0000 Cl  0  0  0  0  0  0  0  0  0  0  0  0
   -1.3046   -0.7353   -0.0000 C   0  0  0  0  0  0  0  0  0  0  0  0
   -2.6092    0.0237   -0.0000 C   0  0  0  0  0  0  0  0  0  0  0  0
   -1.3165   -2.2297   -0.0000 C   0  0  0  0  0  0  0  0  0  0  0  0
   -2.6330    1.5300   -0.0000 C   0  0  0  0  0  0  0  0  0  0  0  0
   -3.9139   -0.7116   -0.0000 C   0  0  0  0  0  0  0  0  0  0  0  0
   -2.6330   -2.9651   -0.0000 C   0  0  0  0  0  0  0  0  0  0  0  0
   -3.9376    2.2772   -0.0000 N   0  0  0  0  0  0  0  0  0  0  0  0
   -1.3521    2.2890   -0.0000 C   0  0  0  0  0  0  0  0  0  0  0  0
   -3.9257   -2.2060   -0.0000 C   0  0  0  0  0  0  0  0  0  0  0  0
   -2.6448   -4.4476   -0.0000 Cl  0  0  0  0  0  0  0  0  0  0  0  0
   -3.9613    3.7834   -0.0000 C   0  0  0  0  0  0  0  0  0  0  0  0
   -5.3727    1.8146   -0.0000 C   0  0  0  0  0  0  0  0  0  0  0  0
   -1.3639    3.7953   -0.0000 C   0  0  0  0  0  0  0  0  0  0  0  0
   -0.0712    1.5537   -0.0000 C   0  0  0  0  0  0  0  0  0  0  0  0
   -2.6804    4.5425   -0.0000 N   0  0  0  0  0  0  0  0  0  0  0  0
   -5.4083    4.2460   -0.0000 N   0  0  0  0  0  0  0  0  0  0  0  0
   -6.2740    3.0362   -0.0000 C   0  0  0  0  0  0  0  0  0  0  0  0
   -0.0830    4.5543   -0.0000 C   0  0  0  0  0  0  0  0  0  0  0  0
    1.2097    2.3127   -0.0000 N   0  0  0  0  0  0  0  0  0  0  0  0
   -7.7803    3.0362   -0.0000 C   0  0  0  0  0  0  0  0  0  0  0  0
   -8.5512    4.3408   -0.0000 C   0  0  0  0  0  0  0  0  0  0  0  0
   -8.5275    1.7553   -0.0000 C   0  0  0  0  0  0  0  0  0  0  0  0
  -10.0575    4.3408   -0.0000 C   0  0  0  0  0  0  0  0  0  0  0  0
  -10.0337    1.7553   -0.0000 C   0  0  0  0  0  0  0  0  0  0  0  0
  -10.8046    3.0481   -0.0000 C   0  0  0  0  0  0  0  0  0  0  0  0
  1  2  1  0  0  0  0
  2  3  2  0  0  0  0
  2  4  1  0  0  0  0
  3  5  1  0  0  0  0
  3  6  1  0  0  0  0
  4  7  2  0  0  0  0
  5  8  1  0  0  0  0
  5  9  2  0  0  0  0
  6 10  2  0  0  0  0
  7 11  1  0  0  0  0
  8 12  1  0  0  0  0
  8 13  1  0  0  0  0
  9 14  1  0  0  0  0
  9 15  1  0  0  0  0
 12 16  1  0  0  0  0
 12 17  2  0  0  0  0
 13 18  2  0  0  0  0
 14 19  1  0  0  0  0
 15 20  1  0  0  0  0
 18 21  1  0  0  0  0
 21 22  2  0  0  0  0
 21 23  1  0  0  0  0
 22 24  1  0  0  0  0
 23 25  2  0  0  0  0
 24 26  2  0  0  0  0
  7 10  1  0  0  0  0
 14 16  2  0  0  0  0
 17 18  1  0  0  0  0
 25 26  1  0  0  0  0
M  END
>  <MolRegNo>
683660

>  <m>
=

>  <Value>
1000

>  <Unit>
nM

>  <Type>
IC50

>  <pValue>
6

>  <Ligand Efficiency>
0

>  <Binding Efficiency>
0

>  <Surface Efficiency>
0

>  <Assay Index>
488824

>  <Assay Category>


>  <Assay Organism>


>  <Target ID>
17045

>  <Target Name>
Cytochrome P450 3A4

>  <Target Organism>
Homo sapiens

>  <Target Description>
Target is a single protein chain

>  <Sequence Accession>
P08684

>  <Reference>
Bioorg Med Chem Lett 20 (15), 4395-4398 (2010)

>  <Pubmed ID>
20598534

>  <DOI>
10.1016/j.bmcl.2010.06.063

$$$$
683490
Actelion Java MolfileCreator 1.0

 30 33  0  0  0  0  0  0  0  0999 V2000
    0.0000   -0.0000   -0.0000 O   0  0  0  0  0  0  0  0  0  0  0  0
   -0.0119   -1.4833   -0.0000 C   0  0  0  0  0  0  0  0  0  0  0  0
   -1.3171   -2.2190   -0.0000 N   0  0  0  0  0  0  0  0  0  0  0  0
    1.2222   -2.3020   -0.0000 C   0  0  0  0  0  0  0  0  0  0  0  0
   -2.6224   -1.4595   -0.0000 C   0  0  0  0  0  0  0  0  0  0  0  0
    1.6613   -3.7141   -0.0000 N   0  0  0  0  0  0  0  0  0  0  0  0
    2.4207   -1.4239   -0.0000 C   0  0  0  0  0  0  0  0  0  0  0  0
   -3.9277   -2.1952   -0.0000 C   0  0  0  0  0  0  0  0  0  0  0  0
   -2.6343    0.0475   -0.0000 C   0  0  0  0  0  0  0  0  0  0  0  0
    3.1445   -3.7141   -0.0000 C   0  0  0  0  0  0  0  0  0  0  0  0
    2.4207    0.0831   -0.0000 O   0  0  0  0  0  0  0  0  0  0  0  0
    3.6192   -2.3020   -0.0000 C   0  0  0  0  0  0  0  0  0  0  0  0
   -3.9395   -3.6904   -0.0000 C   0  0  0  0  0  0  0  0  0  0  0  0
   -5.2330   -1.4358   -0.0000 C   0  0  0  0  0  0  0  0  0  0  0  0
   -5.2567   -4.4261   -0.0000 C   0  0  0  0  0  0  0  0  0  0  0  0
   -6.5382   -2.1715   -0.0000 C   0  0  0  0  0  0  0  0  0  0  0  0
   -6.5620   -3.6666   -0.0000 C   0  0  0  0  0  0  0  0  0  0  0  0
   -7.8079   -4.5091   -0.0000 C   0  0  0  0  0  0  0  0  0  0  0  0
   -7.8435   -5.9924   -0.0000 N   0  0  0  0  0  0  0  0  0  0  0  0
   -9.2318   -3.9989   -0.0000 N   0  0  0  0  0  0  0  0  0  0  0  0
   -9.2912   -6.4077   -0.0000 O   0  0  0  0  0  0  0  0  0  0  0  0
  -10.1455   -5.1736   -0.0000 C   0  0  0  0  0  0  0  0  0  0  0  0
  -11.6525   -5.1262   -0.0000 C   0  0  0  0  0  0  0  0  0  0  0  0
  -12.3882   -3.7972   -0.0000 C   0  0  0  0  0  0  0  0  0  0  0  0
  -13.8952   -3.7497   -0.0000 C   0  0  0  0  0  0  0  0  0  0  0  0
  -14.6190   -2.4207   -0.0000 C   0  0  0  0  0  0  0  0  0  0  0  0
  -14.6784   -5.0194   -0.0000 C   0  0  0  0  0  0  0  0  0  0  0  0
  -16.1260   -2.3732   -0.0000 C   0  0  0  0  0  0  0  0  0  0  0  0
  -16.1972   -4.9719   -0.0000 C   0  0  0  0  0  0  0  0  0  0  0  0
  -16.9211   -3.6429   -0.0000 C   0  0  0  0  0  0  0  0  0  0  0  0
  1  2  2  0  0  0  0
  2  3  1  0  0  0  0
  4  2  1  6  0  0  0
  5  3  1  6  0  0  0
  4  6  1  0  0  0  0
  4  7  1  0  0  0  0
  5  8  1  0  0  0  0
  5  9  1  0  0  0  0
  6 10  1  0  0  0  0
  7 11  1  1  0  0  0
  7 12  1  0  0  0  0
  8 13  2  0  0  0  0
  8 14  1  0  0  0  0
 13 15  1  0  0  0  0
 14 16  2  0  0  0  0
 15 17  2  0  0  0  0
 17 18  1  0  0  0  0
 18 19  2  0  0  0  0
 18 20  1  0  0  0  0
 19 21  1  0  0  0  0
 20 22  2  0  0  0  0
 22 23  1  0  0  0  0
 23 24  1  0  0  0  0
 24 25  1  0  0  0  0
 25 26  1  0  0  0  0
 25 27  1  0  0  0  0
 26 28  1  0  0  0  0
 27 29  1  0  0  0  0
 28 30  1  0  0  0  0
 10 12  1  0  0  0  0
 16 17  1  0  0  0  0
 21 22  1  0  0  0  0
 29 30  1  0  0  0  0
M  END
>  <MolRegNo>
683490

>  <m>
=

>  <Value>
4300

>  <Unit>
nM

>  <Type>
IC50

>  <pValue>
5.37

>  <Ligand Efficiency>
0

>  <Binding Efficiency>
0

>  <Surface Efficiency>
0

>  <Assay Index>
488847

>  <Assay Category>


>  <Assay Organism>


>  <Target ID>
17045

>  <Target Name>
Cytochrome P450 3A4

>  <Target Organism>
Homo sapiens

>  <Target Description>
Target is a single protein chain

>  <Sequence Accession>
P08684

>  <Reference>
Bioorg Med Chem Lett 20 (15), 4550-4554 (2010)

>  <Pubmed ID>
20598880

>  <DOI>
10.1016/j.bmcl.2010.06.019

$$$$
683357
Actelion Java MolfileCreator 1.0

 23 25  0  0  0  0  0  0  0  0999 V2000
    0.0000   -0.0000   -0.0000 Cl  0  0  0  0  0  0  0  0  0  0  0  0
   -0.0119   -1.4928   -0.0000 C   0  0  0  0  0  0  0  0  0  0  0  0
    1.2898   -2.2333   -0.0000 C   0  0  0  0  0  0  0  0  0  0  0  0
   -1.3376   -2.2452   -0.0000 C   0  0  0  0  0  0  0  0  0  0  0  0
    1.2779   -3.7261   -0.0000 C   0  0  0  0  0  0  0  0  0  0  0  0
   -1.3376   -3.7381   -0.0000 C   0  0  0  0  0  0  0  0  0  0  0  0
   -0.0478   -4.4666   -0.0000 C   0  0  0  0  0  0  0  0  0  0  0  0
   -0.0597   -5.9594   -0.0000 C   0  0  0  0  0  0  0  0  0  0  0  0
    1.2420   -6.6999   -0.0000 N   0  0  0  0  0  0  0  0  0  0  0  0
    1.2301   -8.2047   -0.0000 S   0  0  0  0  0  0  0  0  0  0  0  0
    2.5319   -5.9236   -0.0000 C   0  0  0  0  0  0  0  0  0  0  0  0
   -0.0836   -7.4403   -0.0000 O   0  0  0  0  0  0  0  0  0  0  0  0
    0.4538   -9.4945   -0.0000 O   0  0  0  0  0  0  0  0  0  0  0  0
    2.5199   -8.9451   -0.0000 C   0  0  0  0  0  0  0  0  0  0  0  0
    3.8336   -6.6760   -0.0000 C   0  0  0  0  0  0  0  0  0  0  0  0
    3.8336   -8.1689   -0.0000 N   0  0  0  0  0  0  0  0  0  0  0  0
    2.5080  -10.4380   -0.0000 C   0  0  0  0  0  0  0  0  0  0  0  0
    5.2548   -6.1864   -0.0000 C   0  0  0  0  0  0  0  0  0  0  0  0
    5.2548   -8.6107   -0.0000 C   0  0  0  0  0  0  0  0  0  0  0  0
    3.7978  -11.1784   -0.0000 C   0  0  0  0  0  0  0  0  0  0  0  0
    6.1386   -7.3926   -0.0000 N   0  0  0  0  0  0  0  0  0  0  0  0
    3.7859  -12.6713   -0.0000 C   0  0  0  0  0  0  0  0  0  0  0  0
    5.0876  -10.4141   -0.0000 C   0  0  0  0  0  0  0  0  0  0  0  0
  1  2  1  0  0  0  0
  2  3  2  0  0  0  0
  2  4  1  0  0  0  0
  3  5  1  0  0  0  0
  4  6  2  0  0  0  0
  5  7  2  0  0  0  0
  7  8  1  0  0  0  0
  8  9  1  0  0  0  0
  9 10  1  0  0  0  0
  9 11  1  0  0  0  0
 10 12  2  0  0  0  0
 10 13  2  0  0  0  0
 10 14  1  0  0  0  0
 11 15  1  0  0  0  0
 14 16  1  0  0  0  0
 14 17  1  0  0  0  0
 15 18  2  0  0  0  0
 16 19  1  0  0  0  0
 17 20  1  0  0  0  0
 18 21  1  0  0  0  0
 20 22  1  0  0  0  0
 20 23  1  0  0  0  0
  6  7  1  0  0  0  0
 15 16  1  0  0  0  0
 19 21  2  0  0  0  0
M  END
>  <MolRegNo>
683357

>  <m>
=

>  <Value>
87

>  <Unit>
nM

>  <Type>
IC50

>  <pValue>
7.06

>  <Ligand Efficiency>
0

>  <Binding Efficiency>
0

>  <Surface Efficiency>
0

>  <Assay Index>
488946

>  <Assay Category>


>  <Assay Organism>
Homo sapiens

>  <Target ID>
17045

>  <Target Name>
Cytochrome P450 3A4

>  <Target Organism>
Homo sapiens

>  <Target Description>
Target is a single protein chain

>  <Sequence Accession>
P08684

>  <Reference>
Bioorg Med Chem Lett 20 (15), 4324-4327 (2010)

>  <Pubmed ID>
20615692

>  <DOI>
10.1016/j.bmcl.2010.06.086

$$$$
683358
Actelion Java MolfileCreator 1.0

 22 24  0  0  0  0  0  0  0  0999 V2000
    0.0000   -0.0000   -0.0000 S   0  0  0  0  0  0  0  0  0  0  0  0
   -1.3055    0.7596   -0.0000 O   0  0  0  0  0  0  0  0  0  0  0  0
   -0.7714   -1.2817   -0.0000 O   0  0  0  0  0  0  0  0  0  0  0  0
   -0.0119    1.5191   -0.0000 N   0  0  0  0  0  0  0  0  0  0  0  0
    1.2817   -0.7358   -0.0000 C   0  0  0  0  0  0  0  0  0  0  0  0
    1.2699    2.2905   -0.0000 C   0  0  0  0  0  0  0  0  0  0  0  0
   -1.3292    2.2787   -0.0000 C   0  0  0  0  0  0  0  0  0  0  0  0
    2.5872    0.0356   -0.0000 N   0  0  0  0  0  0  0  0  0  0  0  0
    1.2699   -2.2193   -0.0000 C   0  0  0  0  0  0  0  0  0  0  0  0
    2.5635    1.5428   -0.0000 C   0  0  0  0  0  0  0  0  0  0  0  0
   -1.3411    3.7859   -0.0000 C   0  0  0  0  0  0  0  0  0  0  0  0
    3.9995   -0.4035   -0.0000 C   0  0  0  0  0  0  0  0  0  0  0  0
    2.5516   -2.9551   -0.0000 C   0  0  0  0  0  0  0  0  0  0  0  0
    3.9758    2.0294   -0.0000 C   0  0  0  0  0  0  0  0  0  0  0  0
   -0.0475    4.5454   -0.0000 C   0  0  0  0  0  0  0  0  0  0  0  0
   -2.6466    4.5336   -0.0000 C   0  0  0  0  0  0  0  0  0  0  0  0
    4.8659    0.8308   -0.0000 N   0  0  0  0  0  0  0  0  0  0  0  0
    2.5398   -4.4386   -0.0000 C   0  0  0  0  0  0  0  0  0  0  0  0
    3.8334   -2.1956   -0.0000 C   0  0  0  0  0  0  0  0  0  0  0  0
   -0.0593    6.0527   -0.0000 C   0  0  0  0  0  0  0  0  0  0  0  0
   -2.6703    6.0408   -0.0000 C   0  0  0  0  0  0  0  0  0  0  0  0
   -1.3767    6.8122   -0.0000 C   0  0  0  0  0  0  0  0  0  0  0  0
  1  2  2  0  0  0  0
  1  3  2  0  0  0  0
  1  4  1  0  0  0  0
  1  5  1  0  0  0  0
  4  6  1  0  0  0  0
  4  7  1  0  0  0  0
  5  8  1  0  0  0  0
  5  9  1  0  0  0  0
  6 10  1  0  0  0  0
  7 11  1  0  0  0  0
  8 12  1  0  0  0  0
  9 13  1  0  0  0  0
 10 14  2  0  0  0  0
 11 15  2  0  0  0  0
 11 16  1  0  0  0  0
 12 17  2  0  0  0  0
 13 18  1  0  0  0  0
 13 19  1  0  0  0  0
 15 20  1  0  0  0  0
 16 21  2  0  0  0  0
 20 22  2  0  0  0  0
  8 10  1  0  0  0  0
 14 17  1  0  0  0  0
 21 22  1  0  0  0  0
M  END
>  <MolRegNo>
683358

>  <m>
=

>  <Value>
1400

>  <Unit>
nM

>  <Type>
IC50

>  <pValue>
5.85

>  <Ligand Efficiency>
0

>  <Binding Efficiency>
0

>  <Surface Efficiency>
0

>  <Assay Index>
488946

>  <Assay Category>


>  <Assay Organism>
Homo sapiens

>  <Target ID>
17045

>  <Target Name>
Cytochrome P450 3A4

>  <Target Organism>
Homo sapiens

>  <Target Description>
Target is a single protein chain

>  <Sequence Accession>
P08684

>  <Reference>
Bioorg Med Chem Lett 20 (15), 4324-4327 (2010)

>  <Pubmed ID>
20615692

>  <DOI>
10.1016/j.bmcl.2010.06.086

$$$$
683359
Actelion Java MolfileCreator 1.0

 27 29  0  0  0  0  0  0  0  0999 V2000
    0.0000   -0.0000   -0.0000 S   0  0  0  0  0  0  0  0  0  0  0  0
   -1.3066    0.7602   -0.0000 O   0  0  0  0  0  0  0  0  0  0  0  0
   -0.7721   -1.2828   -0.0000 O   0  0  0  0  0  0  0  0  0  0  0  0
   -0.0119    1.5204   -0.0000 N   0  0  0  0  0  0  0  0  0  0  0  0
    1.2828   -0.7364   -0.0000 C   0  0  0  0  0  0  0  0  0  0  0  0
    1.2709    2.2924   -0.0000 C   0  0  0  0  0  0  0  0  0  0  0  0
   -1.3303    2.2805   -0.0000 C   0  0  0  0  0  0  0  0  0  0  0  0
    2.5894    0.0356   -0.0000 N   0  0  0  0  0  0  0  0  0  0  0  0
    1.2709   -2.2211   -0.0000 C   0  0  0  0  0  0  0  0  0  0  0  0
    2.5656    1.5441   -0.0000 C   0  0  0  0  0  0  0  0  0  0  0  0
   -1.3422    3.7890   -0.0000 C   0  0  0  0  0  0  0  0  0  0  0  0
    4.0028   -0.4038   -0.0000 C   0  0  0  0  0  0  0  0  0  0  0  0
    2.5537   -2.9576   -0.0000 C   0  0  0  0  0  0  0  0  0  0  0  0
    3.9791    2.0311   -0.0000 C   0  0  0  0  0  0  0  0  0  0  0  0
   -0.0594    4.5492   -0.0000 C   0  0  0  0  0  0  0  0  0  0  0  0
   -2.6487    4.5373   -0.0000 C   0  0  0  0  0  0  0  0  0  0  0  0
    4.8699    0.8314   -0.0000 N   0  0  0  0  0  0  0  0  0  0  0  0
    2.5418   -4.4423   -0.0000 C   0  0  0  0  0  0  0  0  0  0  0  0
    3.8365   -2.1974   -0.0000 C   0  0  0  0  0  0  0  0  0  0  0  0
   -0.0713    6.0577   -0.0000 C   0  0  0  0  0  0  0  0  0  0  0  0
   -2.6725    6.0458   -0.0000 C   0  0  0  0  0  0  0  0  0  0  0  0
   -1.3897    6.8178   -0.0000 C   0  0  0  0  0  0  0  0  0  0  0  0
   -1.4016    8.3263   -0.0000 O   0  0  0  0  0  0  0  0  0  0  0  0
   -0.1188    9.0984   -0.0000 C   0  0  0  0  0  0  0  0  0  0  0  0
   -0.1307   10.6069   -0.0000 F   0  0  0  0  0  0  0  0  0  0  0  0
    1.1759    8.3620   -0.0000 F   0  0  0  0  0  0  0  0  0  0  0  0
    1.1521    9.8704   -0.0000 F   0  0  0  0  0  0  0  0  0  0  0  0
  1  2  2  0  0  0  0
  1  3  2  0  0  0  0
  1  4  1  0  0  0  0
  1  5  1  0  0  0  0
  4  6  1  0  0  0  0
  4  7  1  0  0  0  0
  5  8  1  0  0  0  0
  5  9  1  0  0  0  0
  6 10  1  0  0  0  0
  7 11  1  0  0  0  0
  8 12  1  0  0  0  0
  9 13  1  0  0  0  0
 10 14  2  0  0  0  0
 11 15  2  0  0  0  0
 11 16  1  0  0  0  0
 12 17  2  0  0  0  0
 13 18  1  0  0  0  0
 13 19  1  0  0  0  0
 15 20  1  0  0  0  0
 16 21  2  0  0  0  0
 20 22  2  0  0  0  0
 22 23  1  0  0  0  0
 23 24  1  0  0  0  0
 24 25  1  0  0  0  0
 24 26  1  0  0  0  0
 24 27  1  0  0  0  0
  8 10  1  0  0  0  0
 14 17  1  0  0  0  0
 21 22  1  0  0  0  0
M  END
>  <MolRegNo>
683359

>  <m>
=

>  <Value>
490

>  <Unit>
nM

>  <Type>
IC50

>  <pValue>
6.31

>  <Ligand Efficiency>
0

>  <Binding Efficiency>
0

>  <Surface Efficiency>
0

>  <Assay Index>
488946

>  <Assay Category>


>  <Assay Organism>
Homo sapiens

>  <Target ID>
17045

>  <Target Name>
Cytochrome P450 3A4

>  <Target Organism>
Homo sapiens

>  <Target Description>
Target is a single protein chain

>  <Sequence Accession>
P08684

>  <Reference>
Bioorg Med Chem Lett 20 (15), 4324-4327 (2010)

>  <Pubmed ID>
20615692

>  <DOI>
10.1016/j.bmcl.2010.06.086

$$$$
683360
Actelion Java MolfileCreator 1.0

 26 28  0  0  0  0  0  0  0  0999 V2000
    0.0000   -0.0000   -0.0000 S   0  0  0  0  0  0  0  0  0  0  0  0
   -1.3045    0.7590   -0.0000 O   0  0  0  0  0  0  0  0  0  0  0  0
   -0.7708   -1.2808   -0.0000 O   0  0  0  0  0  0  0  0  0  0  0  0
   -0.0119    1.5180   -0.0000 N   0  0  0  0  0  0  0  0  0  0  0  0
    1.2808   -0.7353   -0.0000 C   0  0  0  0  0  0  0  0  0  0  0  0
    1.2689    2.2888   -0.0000 C   0  0  0  0  0  0  0  0  0  0  0  0
   -1.3282    2.2770   -0.0000 C   0  0  0  0  0  0  0  0  0  0  0  0
    2.5853    0.0356   -0.0000 N   0  0  0  0  0  0  0  0  0  0  0  0
    1.2689   -2.2177   -0.0000 C   0  0  0  0  0  0  0  0  0  0  0  0
    2.5616    1.5417   -0.0000 C   0  0  0  0  0  0  0  0  0  0  0  0
   -1.3401    3.7831   -0.0000 C   0  0  0  0  0  0  0  0  0  0  0  0
    3.9965   -0.4032   -0.0000 C   0  0  0  0  0  0  0  0  0  0  0  0
    2.5497   -2.9529   -0.0000 C   0  0  0  0  0  0  0  0  0  0  0  0
    3.9728    2.0279   -0.0000 C   0  0  0  0  0  0  0  0  0  0  0  0
   -0.0474    4.5421   -0.0000 C   0  0  0  0  0  0  0  0  0  0  0  0
   -2.6446    4.5302   -0.0000 C   0  0  0  0  0  0  0  0  0  0  0  0
    4.8623    0.8301   -0.0000 N   0  0  0  0  0  0  0  0  0  0  0  0
    2.5379   -4.4353   -0.0000 C   0  0  0  0  0  0  0  0  0  0  0  0
    3.8305   -2.1939   -0.0000 C   0  0  0  0  0  0  0  0  0  0  0  0
   -0.0593    6.0482   -0.0000 C   0  0  0  0  0  0  0  0  0  0  0  0
   -2.6683    6.0363   -0.0000 C   0  0  0  0  0  0  0  0  0  0  0  0
   -1.3757    6.8072   -0.0000 C   0  0  0  0  0  0  0  0  0  0  0  0
   -1.3875    8.3133   -0.0000 C   0  0  0  0  0  0  0  0  0  0  0  0
   -0.1067    9.0841   -0.0000 F   0  0  0  0  0  0  0  0  0  0  0  0
   -2.7039    9.0723   -0.0000 F   0  0  0  0  0  0  0  0  0  0  0  0
   -1.4112    9.8194   -0.0000 F   0  0  0  0  0  0  0  0  0  0  0  0
  1  2  2  0  0  0  0
  1  3  2  0  0  0  0
  1  4  1  0  0  0  0
  1  5  1  0  0  0  0
  4  6  1  0  0  0  0
  4  7  1  0  0  0  0
  5  8  1  0  0  0  0
  5  9  1  0  0  0  0
  6 10  1  0  0  0  0
  7 11  1  0  0  0  0
  8 12  1  0  0  0  0
  9 13  1  0  0  0  0
 10 14  2  0  0  0  0
 11 15  2  0  0  0  0
 11 16  1  0  0  0  0
 12 17  2  0  0  0  0
 13 18  1  0  0  0  0
 13 19  1  0  0  0  0
 15 20  1  0  0  0  0
 16 21  2  0  0  0  0
 20 22  2  0  0  0  0
 22 23  1  0  0  0  0
 23 24  1  0  0  0  0
 23 25  1  0  0  0  0
 23 26  1  0  0  0  0
  8 10  1  0  0  0  0
 14 17  1  0  0  0  0
 21 22  1  0  0  0  0
M  END
>  <MolRegNo>
683360

>  <m>
=

>  <Value>
280

>  <Unit>
nM

>  <Type>
IC50

>  <pValue>
6.55

>  <Ligand Efficiency>
0

>  <Binding Efficiency>
0

>  <Surface Efficiency>
0

>  <Assay Index>
488946

>  <Assay Category>


>  <Assay Organism>
Homo sapiens

>  <Target ID>
17045

>  <Target Name>
Cytochrome P450 3A4

>  <Target Organism>
Homo sapiens

>  <Target Description>
Target is a single protein chain

>  <Sequence Accession>
P08684

>  <Reference>
Bioorg Med Chem Lett 20 (15), 4324-4327 (2010)

>  <Pubmed ID>
20615692

>  <DOI>
10.1016/j.bmcl.2010.06.086

$$$$
683428
Actelion Java MolfileCreator 1.0

 21 23  0  0  0  0  0  0  0  0999 V2000
    0.0000   -0.0000   -0.0000 S   0  0  0  0  0  0  0  0  0  0  0  0
   -1.3063    0.7600   -0.0000 O   0  0  0  0  0  0  0  0  0  0  0  0
   -0.7719   -1.2825   -0.0000 O   0  0  0  0  0  0  0  0  0  0  0  0
   -0.0119    1.5200   -0.0000 N   0  0  0  0  0  0  0  0  0  0  0  0
    1.2825   -0.7363   -0.0000 C   0  0  0  0  0  0  0  0  0  0  0  0
    1.2706    2.2919   -0.0000 C   0  0  0  0  0  0  0  0  0  0  0  0
   -1.3300    2.2800   -0.0000 C   0  0  0  0  0  0  0  0  0  0  0  0
    2.5888    0.0356   -0.0000 N   0  0  0  0  0  0  0  0  0  0  0  0
    1.2706   -2.2207   -0.0000 C   0  0  0  0  0  0  0  0  0  0  0  0
    2.5650    1.5438   -0.0000 C   0  0  0  0  0  0  0  0  0  0  0  0
   -1.3419    3.7882   -0.0000 C   0  0  0  0  0  0  0  0  0  0  0  0
    4.0019   -0.4038   -0.0000 C   0  0  0  0  0  0  0  0  0  0  0  0
    2.5532   -2.9569   -0.0000 C   0  0  0  0  0  0  0  0  0  0  0  0
    3.9782    2.0307   -0.0000 C   0  0  0  0  0  0  0  0  0  0  0  0
   -0.1425    4.6907   -0.0000 S   0  0  0  0  0  0  0  0  0  0  0  0
   -2.5650    4.6788   -0.0000 C   0  0  0  0  0  0  0  0  0  0  0  0
    4.8688    0.8313   -0.0000 N   0  0  0  0  0  0  0  0  0  0  0  0
    2.5413   -4.4413   -0.0000 C   0  0  0  0  0  0  0  0  0  0  0  0
    3.8357   -2.1969   -0.0000 C   0  0  0  0  0  0  0  0  0  0  0  0
   -0.6175    6.1276   -0.0000 C   0  0  0  0  0  0  0  0  0  0  0  0
   -2.1138    6.1157   -0.0000 C   0  0  0  0  0  0  0  0  0  0  0  0
  1  2  2  0  0  0  0
  1  3  2  0  0  0  0
  1  4  1  0  0  0  0
  1  5  1  0  0  0  0
  4  6  1  0  0  0  0
  4  7  1  0  0  0  0
  5  8  1  0  0  0  0
  5  9  1  0  0  0  0
  6 10  1  0  0  0  0
  7 11  1  0  0  0  0
  8 12  1  0  0  0  0
  9 13  1  0  0  0  0
 10 14  2  0  0  0  0
 11 15  1  0  0  0  0
 11 16  2  0  0  0  0
 12 17  2  0  0  0  0
 13 18  1  0  0  0  0
 13 19  1  0  0  0  0
 15 20  1  0  0  0  0
 16 21  1  0  0  0  0
  8 10  1  0  0  0  0
 14 17  1  0  0  0  0
 20 21  2  0  0  0  0
M  END
>  <MolRegNo>
683428

>  <m>
=

>  <Value>
1160

>  <Unit>
nM

>  <Type>
IC50

>  <pValue>
5.94

>  <Ligand Efficiency>
0

>  <Binding Efficiency>
0

>  <Surface Efficiency>
0

>  <Assay Index>
488946

>  <Assay Category>


>  <Assay Organism>
Homo sapiens

>  <Target ID>
17045

>  <Target Name>
Cytochrome P450 3A4

>  <Target Organism>
Homo sapiens

>  <Target Description>
Target is a single protein chain

>  <Sequence Accession>
P08684

>  <Reference>
Bioorg Med Chem Lett 20 (15), 4324-4327 (2010)

>  <Pubmed ID>
20615692

>  <DOI>
10.1016/j.bmcl.2010.06.086

$$$$
683498
Actelion Java MolfileCreator 1.0

 26 28  0  0  0  0  0  0  0  0999 V2000
    0.0000   -0.0000   -0.0000 Cl  0  0  0  0  0  0  0  0  0  0  0  0
   -0.0119   -1.4934   -0.0000 C   0  0  0  0  0  0  0  0  0  0  0  0
    1.2903   -2.2341   -0.0000 C   0  0  0  0  0  0  0  0  0  0  0  0
   -1.3381   -2.2460   -0.0000 C   0  0  0  0  0  0  0  0  0  0  0  0
    1.2783   -3.7274   -0.0000 C   0  0  0  0  0  0  0  0  0  0  0  0
   -1.3381   -3.7394   -0.0000 C   0  0  0  0  0  0  0  0  0  0  0  0
   -0.0478   -4.4681   -0.0000 C   0  0  0  0  0  0  0  0  0  0  0  0
   -0.0597   -5.9615   -0.0000 C   0  0  0  0  0  0  0  0  0  0  0  0
    1.2425   -6.7022   -0.0000 N   0  0  0  0  0  0  0  0  0  0  0  0
   -1.3739   -6.7022   -0.0000 C   0  0  0  0  0  0  0  0  0  0  0  0
    1.2305   -8.2075   -0.0000 S   0  0  0  0  0  0  0  0  0  0  0  0
    2.5327   -5.9257   -0.0000 C   0  0  0  0  0  0  0  0  0  0  0  0
   -0.0836   -7.4429   -0.0000 O   0  0  0  0  0  0  0  0  0  0  0  0
    0.4540   -9.4978   -0.0000 O   0  0  0  0  0  0  0  0  0  0  0  0
    2.5208   -8.9482   -0.0000 C   0  0  0  0  0  0  0  0  0  0  0  0
    3.8350   -6.6783   -0.0000 C   0  0  0  0  0  0  0  0  0  0  0  0
    3.8350   -8.1717   -0.0000 N   0  0  0  0  0  0  0  0  0  0  0  0
    2.5088  -10.4416   -0.0000 C   0  0  0  0  0  0  0  0  0  0  0  0
    5.2566   -6.1885   -0.0000 C   0  0  0  0  0  0  0  0  0  0  0  0
    5.2566   -8.6137   -0.0000 C   0  0  0  0  0  0  0  0  0  0  0  0
    3.7991  -11.1823   -0.0000 C   0  0  0  0  0  0  0  0  0  0  0  0
    6.1407   -7.3951   -0.0000 N   0  0  0  0  0  0  0  0  0  0  0  0
    3.7872  -12.6757   -0.0000 O   0  0  0  0  0  0  0  0  0  0  0  0
    4.5279   -9.8562   -0.0000 C   0  0  0  0  0  0  0  0  0  0  0  0
    5.0774  -11.9230   -0.0000 C   0  0  0  0  0  0  0  0  0  0  0  0
    5.0774  -13.4164   -0.0000 C   0  0  0  0  0  0  0  0  0  0  0  0
  1  2  1  0  0  0  0
  2  3  2  0  0  0  0
  2  4  1  0  0  0  0
  3  5  1  0  0  0  0
  4  6  2  0  0  0  0
  5  7  2  0  0  0  0
  7  8  1  0  0  0  0
  8  9  1  1  0  0  0
  8 10  1  0  0  0  0
  9 11  1  0  0  0  0
  9 12  1  0  0  0  0
 11 13  2  0  0  0  0
 11 14  2  0  0  0  0
 11 15  1  0  0  0  0
 12 16  1  0  0  0  0
 15 17  1  0  0  0  0
 15 18  1  0  0  0  0
 16 19  2  0  0  0  0
 17 20  1  0  0  0  0
 18 21  1  0  0  0  0
 19 22  1  0  0  0  0
 21 23  1  0  0  0  0
 21 24  1  0  0  0  0
 21 25  1  0  0  0  0
 23 26  1  0  0  0  0
  6  7  1  0  0  0  0
 16 17  1  0  0  0  0
 20 22  2  0  0  0  0
M  END
>  <MolRegNo>
683498

>  <m>
=

>  <Value>
530

>  <Unit>
nM

>  <Type>
IC50

>  <pValue>
6.28

>  <Ligand Efficiency>
0

>  <Binding Efficiency>
0

>  <Surface Efficiency>
0

>  <Assay Index>
488946

>  <Assay Category>


>  <Assay Organism>
Homo sapiens

>  <Target ID>
17045

>  <Target Name>
Cytochrome P450 3A4

>  <Target Organism>
Homo sapiens

>  <Target Description>
Target is a single protein chain

>  <Sequence Accession>
P08684

>  <Reference>
Bioorg Med Chem Lett 20 (15), 4324-4327 (2010)

>  <Pubmed ID>
20615692

>  <DOI>
10.1016/j.bmcl.2010.06.086

$$$$
683499
Actelion Java MolfileCreator 1.0

 25 27  0  0  0  0  0  0  0  0999 V2000
    0.0000   -0.0000   -0.0000 Cl  0  0  0  0  0  0  0  0  0  0  0  0
   -0.0119   -1.4927   -0.0000 C   0  0  0  0  0  0  0  0  0  0  0  0
    1.2897   -2.2331   -0.0000 C   0  0  0  0  0  0  0  0  0  0  0  0
   -1.3375   -2.2450   -0.0000 C   0  0  0  0  0  0  0  0  0  0  0  0
    1.2778   -3.7258   -0.0000 C   0  0  0  0  0  0  0  0  0  0  0  0
   -1.3375   -3.7377   -0.0000 C   0  0  0  0  0  0  0  0  0  0  0  0
   -0.0478   -4.4662   -0.0000 C   0  0  0  0  0  0  0  0  0  0  0  0
   -0.0597   -5.9589   -0.0000 C   0  0  0  0  0  0  0  0  0  0  0  0
    1.2419   -6.6992   -0.0000 N   0  0  0  0  0  0  0  0  0  0  0  0
   -1.3733   -6.6992   -0.0000 C   0  0  0  0  0  0  0  0  0  0  0  0
    1.2300   -8.2039   -0.0000 S   0  0  0  0  0  0  0  0  0  0  0  0
    2.5316   -5.9230   -0.0000 C   0  0  0  0  0  0  0  0  0  0  0  0
   -0.0836   -7.4396   -0.0000 O   0  0  0  0  0  0  0  0  0  0  0  0
    0.4538   -9.4936   -0.0000 O   0  0  0  0  0  0  0  0  0  0  0  0
    2.5197   -8.9443   -0.0000 C   0  0  0  0  0  0  0  0  0  0  0  0
    3.8333   -6.6754   -0.0000 C   0  0  0  0  0  0  0  0  0  0  0  0
    3.8333   -8.1681   -0.0000 N   0  0  0  0  0  0  0  0  0  0  0  0
    2.5077  -10.4370   -0.0000 C   0  0  0  0  0  0  0  0  0  0  0  0
    5.2543   -6.1857   -0.0000 C   0  0  0  0  0  0  0  0  0  0  0  0
    5.2543   -8.6099   -0.0000 C   0  0  0  0  0  0  0  0  0  0  0  0
    3.7974  -11.1773   -0.0000 O   0  0  0  0  0  0  0  0  0  0  0  0
    6.1380   -7.3918   -0.0000 N   0  0  0  0  0  0  0  0  0  0  0  0
    3.7855  -12.6700   -0.0000 C   0  0  0  0  0  0  0  0  0  0  0  0
    5.0752  -13.4104   -0.0000 C   0  0  0  0  0  0  0  0  0  0  0  0
    2.4719  -13.4104   -0.0000 C   0  0  0  0  0  0  0  0  0  0  0  0
  1  2  1  0  0  0  0
  2  3  2  0  0  0  0
  2  4  1  0  0  0  0
  3  5  1  0  0  0  0
  4  6  2  0  0  0  0
  5  7  2  0  0  0  0
  7  8  1  0  0  0  0
  8  9  1  1  0  0  0
  8 10  1  0  0  0  0
  9 11  1  0  0  0  0
  9 12  1  0  0  0  0
 11 13  2  0  0  0  0
 11 14  2  0  0  0  0
 11 15  1  0  0  0  0
 12 16  1  0  0  0  0
 15 17  1  0  0  0  0
 15 18  1  0  0  0  0
 16 19  2  0  0  0  0
 17 20  1  0  0  0  0
 18 21  1  0  0  0  0
 19 22  1  0  0  0  0
 21 23  1  0  0  0  0
 23 24  1  0  0  0  0
 23 25  1  0  0  0  0
  6  7  1  0  0  0  0
 16 17  1  0  0  0  0
 20 22  2  0  0  0  0
M  END
>  <MolRegNo>
683499

>  <m>
=

>  <Value>
120

>  <Unit>
nM

>  <Type>
IC50

>  <pValue>
6.92

>  <Ligand Efficiency>
0

>  <Binding Efficiency>
0

>  <Surface Efficiency>
0

>  <Assay Index>
488946

>  <Assay Category>


>  <Assay Organism>
Homo sapiens

>  <Target ID>
17045

>  <Target Name>
Cytochrome P450 3A4

>  <Target Organism>
Homo sapiens

>  <Target Description>
Target is a single protein chain

>  <Sequence Accession>
P08684

>  <Reference>
Bioorg Med Chem Lett 20 (15), 4324-4327 (2010)

>  <Pubmed ID>
20615692

>  <DOI>
10.1016/j.bmcl.2010.06.086

$$$$
683500
Actelion Java MolfileCreator 1.0

 24 27  0  0  0  0  0  0  0  0999 V2000
    0.0000   -0.0000   -0.0000 Cl  0  0  0  0  0  0  0  0  0  0  0  0
   -0.0119   -1.4929   -0.0000 C   0  0  0  0  0  0  0  0  0  0  0  0
    1.2898   -2.2333   -0.0000 C   0  0  0  0  0  0  0  0  0  0  0  0
   -1.3376   -2.2453   -0.0000 C   0  0  0  0  0  0  0  0  0  0  0  0
    1.2779   -3.7262   -0.0000 C   0  0  0  0  0  0  0  0  0  0  0  0
   -1.3376   -3.7381   -0.0000 C   0  0  0  0  0  0  0  0  0  0  0  0
   -0.0478   -4.4666   -0.0000 C   0  0  0  0  0  0  0  0  0  0  0  0
   -0.0597   -5.9595   -0.0000 C   0  0  0  0  0  0  0  0  0  0  0  0
    1.2421   -6.7000   -0.0000 N   0  0  0  0  0  0  0  0  0  0  0  0
   -1.3734   -6.7000   -0.0000 C   0  0  0  0  0  0  0  0  0  0  0  0
    1.2301   -8.2048   -0.0000 S   0  0  0  0  0  0  0  0  0  0  0  0
    2.5319   -5.9237   -0.0000 C   0  0  0  0  0  0  0  0  0  0  0  0
   -0.0836   -7.4404   -0.0000 O   0  0  0  0  0  0  0  0  0  0  0  0
    0.4538   -9.4946   -0.0000 O   0  0  0  0  0  0  0  0  0  0  0  0
    2.5200   -8.9452   -0.0000 C   0  0  0  0  0  0  0  0  0  0  0  0
    3.8337   -6.6761   -0.0000 C   0  0  0  0  0  0  0  0  0  0  0  0
    3.8337   -8.1689   -0.0000 N   0  0  0  0  0  0  0  0  0  0  0  0
    2.5080  -10.4381   -0.0000 C   0  0  0  0  0  0  0  0  0  0  0  0
    5.2549   -6.1864   -0.0000 C   0  0  0  0  0  0  0  0  0  0  0  0
    5.2549   -8.6108   -0.0000 C   0  0  0  0  0  0  0  0  0  0  0  0
    3.7978  -11.1786   -0.0000 C   0  0  0  0  0  0  0  0  0  0  0  0
    6.1387   -7.3927   -0.0000 N   0  0  0  0  0  0  0  0  0  0  0  0
    4.5383  -12.4684   -0.0000 C   0  0  0  0  0  0  0  0  0  0  0  0
    5.2907  -11.1666   -0.0000 C   0  0  0  0  0  0  0  0  0  0  0  0
  1  2  1  0  0  0  0
  2  3  2  0  0  0  0
  2  4  1  0  0  0  0
  3  5  1  0  0  0  0
  4  6  2  0  0  0  0
  5  7  2  0  0  0  0
  7  8  1  0  0  0  0
  8  9  1  1  0  0  0
  8 10  1  0  0  0  0
  9 11  1  0  0  0  0
  9 12  1  0  0  0  0
 11 13  2  0  0  0  0
 11 14  2  0  0  0  0
 11 15  1  0  0  0  0
 12 16  1  0  0  0  0
 15 17  1  0  0  0  0
 15 18  1  0  0  0  0
 16 19  2  0  0  0  0
 17 20  1  0  0  0  0
 18 21  1  0  0  0  0
 19 22  1  0  0  0  0
 21 23  1  0  0  0  0
 21 24  1  0  0  0  0
  6  7  1  0  0  0  0
 16 17  1  0  0  0  0
 20 22  2  0  0  0  0
 23 24  1  0  0  0  0
M  END
>  <MolRegNo>
683500

>  <m>
=

>  <Value>
180

>  <Unit>
nM

>  <Type>
IC50

>  <pValue>
6.75

>  <Ligand Efficiency>
0

>  <Binding Efficiency>
0

>  <Surface Efficiency>
0

>  <Assay Index>
488946

>  <Assay Category>


>  <Assay Organism>
Homo sapiens

>  <Target ID>
17045

>  <Target Name>
Cytochrome P450 3A4

>  <Target Organism>
Homo sapiens

>  <Target Description>
Target is a single protein chain

>  <Sequence Accession>
P08684

>  <Reference>
Bioorg Med Chem Lett 20 (15), 4324-4327 (2010)

>  <Pubmed ID>
20615692

>  <DOI>
10.1016/j.bmcl.2010.06.086

$$$$
683501
Actelion Java MolfileCreator 1.0

 29 32  0  0  0  0  0  0  0  0999 V2000
    0.0000   -0.0000   -0.0000 Cl  0  0  0  0  0  0  0  0  0  0  0  0
   -0.0119   -1.4927   -0.0000 C   0  0  0  0  0  0  0  0  0  0  0  0
    1.2897   -2.2331   -0.0000 C   0  0  0  0  0  0  0  0  0  0  0  0
   -1.3374   -2.2450   -0.0000 C   0  0  0  0  0  0  0  0  0  0  0  0
    1.2777   -3.7257   -0.0000 C   0  0  0  0  0  0  0  0  0  0  0  0
   -1.3374   -3.7377   -0.0000 C   0  0  0  0  0  0  0  0  0  0  0  0
   -0.0478   -4.4661   -0.0000 C   0  0  0  0  0  0  0  0  0  0  0  0
   -0.0597   -5.9588   -0.0000 C   0  0  0  0  0  0  0  0  0  0  0  0
    1.2419   -6.6992   -0.0000 N   0  0  0  0  0  0  0  0  0  0  0  0
   -1.3733   -6.6992   -0.0000 C   0  0  0  0  0  0  0  0  0  0  0  0
    1.2300   -8.2038   -0.0000 S   0  0  0  0  0  0  0  0  0  0  0  0
    2.5316   -5.9230   -0.0000 C   0  0  0  0  0  0  0  0  0  0  0  0
   -0.0836   -7.4396   -0.0000 O   0  0  0  0  0  0  0  0  0  0  0  0
    0.4538   -9.4935   -0.0000 O   0  0  0  0  0  0  0  0  0  0  0  0
    2.5197   -8.9442   -0.0000 C   0  0  0  0  0  0  0  0  0  0  0  0
    3.8332   -6.6753   -0.0000 C   0  0  0  0  0  0  0  0  0  0  0  0
    3.8332   -8.1680   -0.0000 N   0  0  0  0  0  0  0  0  0  0  0  0
    2.5077  -10.4369   -0.0000 C   0  0  0  0  0  0  0  0  0  0  0  0
    5.2543   -6.1857   -0.0000 C   0  0  0  0  0  0  0  0  0  0  0  0
    5.2543   -8.6098   -0.0000 C   0  0  0  0  0  0  0  0  0  0  0  0
    3.7974  -11.1772   -0.0000 C   0  0  0  0  0  0  0  0  0  0  0  0
    6.1379   -7.3918   -0.0000 N   0  0  0  0  0  0  0  0  0  0  0  0
    5.0871  -10.4130   -0.0000 O   0  0  0  0  0  0  0  0  0  0  0  0
    3.7855  -12.6699   -0.0000 C   0  0  0  0  0  0  0  0  0  0  0  0
    2.4600  -13.4103   -0.0000 C   0  0  0  0  0  0  0  0  0  0  0  0
    5.0751  -13.3984   -0.0000 C   0  0  0  0  0  0  0  0  0  0  0  0
    2.4480  -14.9030   -0.0000 C   0  0  0  0  0  0  0  0  0  0  0  0
    5.0632  -14.8911   -0.0000 C   0  0  0  0  0  0  0  0  0  0  0  0
    3.7377  -15.6434   -0.0000 C   0  0  0  0  0  0  0  0  0  0  0  0
  1  2  1  0  0  0  0
  2  3  2  0  0  0  0
  2  4  1  0  0  0  0
  3  5  1  0  0  0  0
  4  6  2  0  0  0  0
  5  7  2  0  0  0  0
  7  8  1  0  0  0  0
  8  9  1  6  0  0  0
  8 10  1  0  0  0  0
  9 11  1  0  0  0  0
  9 12  1  0  0  0  0
 11 13  2  0  0  0  0
 11 14  2  0  0  0  0
 11 15  1  0  0  0  0
 12 16  1  0  0  0  0
 15 17  1  0  0  0  0
 15 18  1  0  0  0  0
 16 19  2  0  0  0  0
 17 20  1  0  0  0  0
 18 21  1  0  0  0  0
 19 22  1  0  0  0  0
 21 23  1  6  0  0  0
 21 24  1  0  0  0  0
 24 25  2  0  0  0  0
 24 26  1  0  0  0  0
 25 27  1  0  0  0  0
 26 28  2  0  0  0  0
 27 29  2  0  0  0  0
  6  7  1  0  0  0  0
 16 17  1  0  0  0  0
 20 22  2  0  0  0  0
 28 29  1  0  0  0  0
M  END
>  <MolRegNo>
683501

>  <m>
=

>  <Value>
900

>  <Unit>
nM

>  <Type>
IC50

>  <pValue>
6.05

>  <Ligand Efficiency>
0

>  <Binding Efficiency>
0

>  <Surface Efficiency>
0

>  <Assay Index>
488946

>  <Assay Category>


>  <Assay Organism>
Homo sapiens

>  <Target ID>
17045

>  <Target Name>
Cytochrome P450 3A4

>  <Target Organism>
Homo sapiens

>  <Target Description>
Target is a single protein chain

>  <Sequence Accession>
P08684

>  <Reference>
Bioorg Med Chem Lett 20 (15), 4324-4327 (2010)

>  <Pubmed ID>
20615692

>  <DOI>
10.1016/j.bmcl.2010.06.086

$$$$
683502
Actelion Java MolfileCreator 1.0

 29 32  0  0  0  0  0  0  0  0999 V2000
    0.0000   -0.0000   -0.0000 Cl  0  0  0  0  0  0  0  0  0  0  0  0
   -0.0119   -1.4926   -0.0000 C   0  0  0  0  0  0  0  0  0  0  0  0
    1.2896   -2.2329   -0.0000 C   0  0  0  0  0  0  0  0  0  0  0  0
   -1.3373   -2.2448   -0.0000 C   0  0  0  0  0  0  0  0  0  0  0  0
    1.2776   -3.7254   -0.0000 C   0  0  0  0  0  0  0  0  0  0  0  0
   -1.3373   -3.7373   -0.0000 C   0  0  0  0  0  0  0  0  0  0  0  0
   -0.0478   -4.4657   -0.0000 C   0  0  0  0  0  0  0  0  0  0  0  0
   -0.0597   -5.9583   -0.0000 C   0  0  0  0  0  0  0  0  0  0  0  0
    1.2418   -6.6986   -0.0000 N   0  0  0  0  0  0  0  0  0  0  0  0
   -1.3731   -6.6986   -0.0000 C   0  0  0  0  0  0  0  0  0  0  0  0
    1.2299   -8.2031   -0.0000 S   0  0  0  0  0  0  0  0  0  0  0  0
    2.5314   -5.9224   -0.0000 C   0  0  0  0  0  0  0  0  0  0  0  0
   -0.0836   -7.4389   -0.0000 O   0  0  0  0  0  0  0  0  0  0  0  0
    0.4537   -9.4926   -0.0000 O   0  0  0  0  0  0  0  0  0  0  0  0
    2.5194   -8.9434   -0.0000 C   0  0  0  0  0  0  0  0  0  0  0  0
    3.8329   -6.6747   -0.0000 C   0  0  0  0  0  0  0  0  0  0  0  0
    3.8329   -8.1672   -0.0000 N   0  0  0  0  0  0  0  0  0  0  0  0
    2.5075  -10.4359   -0.0000 C   0  0  0  0  0  0  0  0  0  0  0  0
    5.2538   -6.1851   -0.0000 C   0  0  0  0  0  0  0  0  0  0  0  0
    5.2657   -8.6090   -0.0000 C   0  0  0  0  0  0  0  0  0  0  0  0
    3.7970  -11.1762   -0.0000 C   0  0  0  0  0  0  0  0  0  0  0  0
    6.1374   -7.3911   -0.0000 N   0  0  0  0  0  0  0  0  0  0  0  0
    5.0866  -10.4120   -0.0000 O   0  0  0  0  0  0  0  0  0  0  0  0
    3.7851  -12.6688   -0.0000 C   0  0  0  0  0  0  0  0  0  0  0  0
    2.4597  -13.4091   -0.0000 C   0  0  0  0  0  0  0  0  0  0  0  0
    5.0747  -13.3971   -0.0000 C   0  0  0  0  0  0  0  0  0  0  0  0
    2.4478  -14.9016   -0.0000 C   0  0  0  0  0  0  0  0  0  0  0  0
    5.0627  -14.8897   -0.0000 C   0  0  0  0  0  0  0  0  0  0  0  0
    3.7373  -15.6419   -0.0000 C   0  0  0  0  0  0  0  0  0  0  0  0
  1  2  1  0  0  0  0
  2  3  2  0  0  0  0
  2  4  1  0  0  0  0
  3  5  1  0  0  0  0
  4  6  2  0  0  0  0
  5  7  2  0  0  0  0
  7  8  1  0  0  0  0
  8  9  1  1  0  0  0
  8 10  1  0  0  0  0
  9 11  1  0  0  0  0
  9 12  1  0  0  0  0
 11 13  2  0  0  0  0
 11 14  2  0  0  0  0
 11 15  1  0  0  0  0
 12 16  1  0  0  0  0
 15 17  1  0  0  0  0
 15 18  1  0  0  0  0
 16 19  2  0  0  0  0
 17 20  1  0  0  0  0
 18 21  1  0  0  0  0
 19 22  1  0  0  0  0
 21 23  1  6  0  0  0
 21 24  1  0  0  0  0
 24 25  2  0  0  0  0
 24 26  1  0  0  0  0
 25 27  1  0  0  0  0
 26 28  2  0  0  0  0
 27 29  2  0  0  0  0
  6  7  1  0  0  0  0
 16 17  1  0  0  0  0
 20 22  2  0  0  0  0
 28 29  1  0  0  0  0
M  END
>  <MolRegNo>
683502

>  <m>
=

>  <Value>
1920

>  <Unit>
nM

>  <Type>
IC50

>  <pValue>
5.72

>  <Ligand Efficiency>
0

>  <Binding Efficiency>
0

>  <Surface Efficiency>
0

>  <Assay Index>
488946

>  <Assay Category>


>  <Assay Organism>
Homo sapiens

>  <Target ID>
17045

>  <Target Name>
Cytochrome P450 3A4

>  <Target Organism>
Homo sapiens

>  <Target Description>
Target is a single protein chain

>  <Sequence Accession>
P08684

>  <Reference>
Bioorg Med Chem Lett 20 (15), 4324-4327 (2010)

>  <Pubmed ID>
20615692

>  <DOI>
10.1016/j.bmcl.2010.06.086

$$$$
684461
Actelion Java MolfileCreator 1.0

 27 29  0  0  0  0  0  0  0  0999 V2000
    0.0000   -0.0000   -0.0000 Br  0  0  0  0  0  0  0  0  0  0  0  0
   -1.3088    0.7615   -0.0000 C   0  0  0  0  0  0  0  0  0  0  0  0
   -1.3207    2.2844   -0.0000 C   0  0  0  0  0  0  0  0  0  0  0  0
   -2.6294    0.0238   -0.0000 C   0  0  0  0  0  0  0  0  0  0  0  0
   -0.0357    3.0458   -0.0000 N   0  0  0  0  0  0  0  0  0  0  0  0
   -2.6294    3.0458   -0.0000 C   0  0  0  0  0  0  0  0  0  0  0  0
   -3.9382    0.7853   -0.0000 C   0  0  0  0  0  0  0  0  0  0  0  0
    1.2493    2.3082   -0.0000 S   0  0  0  0  0  0  0  0  0  0  0  0
   -3.9382    2.3082   -0.0000 C   0  0  0  0  0  0  0  0  0  0  0  0
    0.1666    1.2612   -0.0000 O   0  0  0  0  0  0  0  0  0  0  0  0
    2.2963    1.2612   -0.0000 O   0  0  0  0  0  0  0  0  0  0  0  0
    2.5461    3.0577   -0.0000 C   0  0  0  0  0  0  0  0  0  0  0  0
    3.8192    2.3082   -0.0000 C   0  0  0  0  0  0  0  0  0  0  0  0
    2.5461    4.5568   -0.0000 C   0  0  0  0  0  0  0  0  0  0  0  0
    5.1160    3.0696   -0.0000 C   0  0  0  0  0  0  0  0  0  0  0  0
    3.8311    5.3183   -0.0000 C   0  0  0  0  0  0  0  0  0  0  0  0
    6.4010    2.3201   -0.0000 N   0  0  0  0  0  0  0  0  0  0  0  0
    5.1041    4.5806   -0.0000 C   0  0  0  0  0  0  0  0  0  0  0  0
    7.6979    3.0815   -0.0000 C   0  0  0  0  0  0  0  0  0  0  0  0
    6.3891    5.3421   -0.0000 C   0  0  0  0  0  0  0  0  0  0  0  0
    8.9709    2.3320   -0.0000 C   0  0  0  0  0  0  0  0  0  0  0  0
    7.6860    4.6044   -0.0000 C   0  0  0  0  0  0  0  0  0  0  0  0
    6.3772    6.8531   -0.0000 C   0  0  0  0  0  0  0  0  0  0  0  0
   10.2678    3.0934   -0.0000 C   0  0  0  0  0  0  0  0  0  0  0  0
    8.9590    5.3540   -0.0000 C   0  0  0  0  0  0  0  0  0  0  0  0
   10.2559    4.6044   -0.0000 N   0  0  0  0  0  0  0  0  0  0  0  0
   11.5408    5.3659   -0.0000 C   0  0  0  0  0  0  0  0  0  0  0  0
  1  2  1  0  0  0  0
  2  3  2  0  0  0  0
  2  4  1  0  0  0  0
  3  5  1  0  0  0  0
  3  6  1  0  0  0  0
  4  7  2  0  0  0  0
  5  8  1  0  0  0  0
  6  9  2  0  0  0  0
  8 10  2  0  0  0  0
  8 11  2  0  0  0  0
  8 12  1  0  0  0  0
 12 13  2  0  0  0  0
 12 14  1  0  0  0  0
 13 15  1  0  0  0  0
 14 16  2  0  0  0  0
 15 17  1  0  0  0  0
 15 18  2  0  0  0  0
 17 19  1  0  0  0  0
 18 20  1  0  0  0  0
 19 21  1  0  0  0  0
 19 22  1  0  0  0  0
 20 23  1  0  0  0  0
 21 24  1  0  0  0  0
 22 25  1  0  0  0  0
 24 26  1  0  0  0  0
 26 27  1  0  0  0  0
  7  9  1  0  0  0  0
 16 18  1  0  0  0  0
 25 26  1  0  0  0  0
M  END
>  <MolRegNo>
684461

>  <m>
=

>  <Value>
9620

>  <Unit>
nM

>  <Type>
IC50

>  <pValue>
5.02

>  <Ligand Efficiency>
0

>  <Binding Efficiency>
0

>  <Surface Efficiency>
0

>  <Assay Index>
488663

>  <Assay Category>


>  <Assay Organism>
Homo sapiens

>  <Target ID>
17045

>  <Target Name>
Cytochrome P450 3A4

>  <Target Organism>
Homo sapiens

>  <Target Description>
Target is a single protein chain

>  <Sequence Accession>
P08684

>  <Reference>
Bioorg Med Chem Lett 20 (15), 4440-4443 (2010)

>  <Pubmed ID>
20594839

>  <DOI>
10.1016/j.bmcl.2010.06.060

$$$$
684463
Actelion Java MolfileCreator 1.0

 30 32  0  0  0  0  0  0  0  0999 V2000
    0.0000   -0.0000   -0.0000 Cl  0  0  0  0  0  0  0  0  0  0  0  0
   -0.0119    1.5122   -0.0000 C   0  0  0  0  0  0  0  0  0  0  0  0
    1.2860    2.2743   -0.0000 C   0  0  0  0  0  0  0  0  0  0  0  0
   -1.3217    2.2743   -0.0000 C   0  0  0  0  0  0  0  0  0  0  0  0
    2.5720    1.5361   -0.0000 O   0  0  0  0  0  0  0  0  0  0  0  0
    1.2741    3.7985   -0.0000 C   0  0  0  0  0  0  0  0  0  0  0  0
   -1.3336    3.7866   -0.0000 C   0  0  0  0  0  0  0  0  0  0  0  0
    2.5601    0.0476   -0.0000 C   0  0  0  0  0  0  0  0  0  0  0  0
    2.5601    4.5606   -0.0000 N   0  0  0  0  0  0  0  0  0  0  0  0
   -0.0357    4.5606   -0.0000 C   0  0  0  0  0  0  0  0  0  0  0  0
   -2.6435    4.5487   -0.0000 Cl  0  0  0  0  0  0  0  0  0  0  0  0
    3.8461    3.8223   -0.0000 S   0  0  0  0  0  0  0  0  0  0  0  0
    2.7625    2.7744   -0.0000 O   0  0  0  0  0  0  0  0  0  0  0  0
    4.8940    2.7744   -0.0000 O   0  0  0  0  0  0  0  0  0  0  0  0
    5.1440    4.5725   -0.0000 C   0  0  0  0  0  0  0  0  0  0  0  0
    6.4181    3.8223   -0.0000 C   0  0  0  0  0  0  0  0  0  0  0  0
    5.1440    6.0728   -0.0000 C   0  0  0  0  0  0  0  0  0  0  0  0
    7.7160    4.5844   -0.0000 C   0  0  0  0  0  0  0  0  0  0  0  0
    6.4300    6.8349   -0.0000 C   0  0  0  0  0  0  0  0  0  0  0  0
    9.0020    3.8342   -0.0000 N   0  0  0  0  0  0  0  0  0  0  0  0
    7.7041    6.0966   -0.0000 C   0  0  0  0  0  0  0  0  0  0  0  0
   10.3000    4.5844   -0.0000 C   0  0  0  0  0  0  0  0  0  0  0  0
    8.9901    6.8587   -0.0000 O   0  0  0  0  0  0  0  0  0  0  0  0
   11.5741    3.8342   -0.0000 C   0  0  0  0  0  0  0  0  0  0  0  0
   10.2880    6.1085   -0.0000 C   0  0  0  0  0  0  0  0  0  0  0  0
    8.9782    8.3709   -0.0000 C   0  0  0  0  0  0  0  0  0  0  0  0
   12.8720    4.5963   -0.0000 C   0  0  0  0  0  0  0  0  0  0  0  0
   11.5621    6.8587   -0.0000 C   0  0  0  0  0  0  0  0  0  0  0  0
   12.8601    6.1085   -0.0000 N   0  0  0  0  0  0  0  0  0  0  0  0
   14.1461    6.8706   -0.0000 C   0  0  0  0  0  0  0  0  0  0  0  0
  1  2  1  0  0  0  0
  2  3  2  0  0  0  0
  2  4  1  0  0  0  0
  3  5  1  0  0  0  0
  3  6  1  0  0  0  0
  4  7  2  0  0  0  0
  5  8  1  0  0  0  0
  6  9  1  0  0  0  0
  6 10  2  0  0  0  0
  7 11  1  0  0  0  0
  9 12  1  0  0  0  0
 12 13  2  0  0  0  0
 12 14  2  0  0  0  0
 12 15  1  0  0  0  0
 15 16  2  0  0  0  0
 15 17  1  0  0  0  0
 16 18  1  0  0  0  0
 17 19  2  0  0  0  0
 18 20  1  0  0  0  0
 18 21  2  0  0  0  0
 20 22  1  0  0  0  0
 21 23  1  0  0  0  0
 22 24  1  0  0  0  0
 22 25  1  0  0  0  0
 23 26  1  0  0  0  0
 24 27  1  0  0  0  0
 25 28  1  0  0  0  0
 27 29  1  0  0  0  0
 29 30  1  0  0  0  0
  7 10  1  0  0  0  0
 19 21  1  0  0  0  0
 28 29  1  0  0  0  0
M  END
>  <MolRegNo>
684463

>  <m>
=

>  <Value>
8440

>  <Unit>
nM

>  <Type>
IC50

>  <pValue>
5.07

>  <Ligand Efficiency>
0

>  <Binding Efficiency>
0

>  <Surface Efficiency>
0

>  <Assay Index>
488663

>  <Assay Category>


>  <Assay Organism>
Homo sapiens

>  <Target ID>
17045

>  <Target Name>
Cytochrome P450 3A4

>  <Target Organism>
Homo sapiens

>  <Target Description>
Target is a single protein chain

>  <Sequence Accession>
P08684

>  <Reference>
Bioorg Med Chem Lett 20 (15), 4440-4443 (2010)

>  <Pubmed ID>
20594839

>  <DOI>
10.1016/j.bmcl.2010.06.060

$$$$
708831
Actelion Java MolfileCreator 1.0

 92 92  0  0  0  0  0  0  0  0999 V2000
    0.0000   -0.0000   -0.0000 S   0  0  0  0  0  0  0  0  0  0  0  0
   -1.3630   -0.6990   -0.0000 C   0  0  0  0  0  0  0  0  0  0  0  0
    1.2057   -0.8213   -0.0000 C   0  0  0  0  0  0  0  0  0  0  0  0
   -2.6386    0.7689   -0.0000 N   0  0  0  0  0  0  0  0  0  0  0  0
   -1.0310   -2.9007   -0.0000 C   0  0  0  0  0  0  0  0  0  0  0  0
    2.5337   -0.1573   -0.0000 C   0  0  0  0  0  0  0  0  0  0  0  0
   -3.9317    1.5202   -0.0000 C   0  0  0  0  0  0  0  0  0  0  0  0
   -1.7299    1.9396   -0.0000 C   0  0  0  0  0  0  0  0  0  0  0  0
    0.4369   -2.8832   -0.0000 O   0  0  0  0  0  0  0  0  0  0  0  0
   -1.3455   -4.4035   -0.0000 N   0  0  0  0  0  0  0  0  0  0  0  0
    3.7394   -0.9785   -0.0000 N   0  0  0  0  0  0  0  0  0  0  0  0
   -3.9491    3.0405   -0.0000 O   0  0  0  0  0  0  0  0  0  0  0  0
   -5.2422    0.8038   -0.0000 C   0  0  0  0  0  0  0  0  0  0  0  0
   -2.6561   -5.1199   -0.0000 C   0  0  0  0  0  0  0  0  0  0  0  0
   -0.0699   -5.1199   -0.0000 C   0  0  0  0  0  0  0  0  0  0  0  0
    5.0675   -0.3145   -0.0000 C   0  0  0  0  0  0  0  0  0  0  0  0
    3.5997   -2.4464   -0.0000 C   0  0  0  0  0  0  0  0  0  0  0  0
   -6.5353    1.5552   -0.0000 N   0  0  0  0  0  0  0  0  0  0  0  0
   -5.2597   -0.6640   -0.0000 C   0  0  0  0  0  0  0  0  0  0  0  0
   -3.9317   -4.3685   -0.0000 C   0  0  0  0  0  0  0  0  0  0  0  0
   -2.6735   -6.5877   -0.0000 C   0  0  0  0  0  0  0  0  0  0  0  0
   -7.8458    0.8388   -0.0000 C   0  0  0  0  0  0  0  0  0  0  0  0
   -3.9841   -1.3979   -0.0000 C   0  0  0  0  0  0  0  0  0  0  0  0
   -3.9841   -2.8657   -0.0000 O   0  0  0  0  0  0  0  0  0  0  0  0
   -5.2597   -5.1199   -0.0000 N   0  0  0  0  0  0  0  0  0  0  0  0
   -1.3979   -7.3042   -0.0000 C   0  0  0  0  0  0  0  0  0  0  0  0
   -7.8633   -0.6291   -0.0000 O   0  0  0  0  0  0  0  0  0  0  0  0
   -9.1389    1.5901   -0.0000 C   0  0  0  0  0  0  0  0  0  0  0  0
   -6.5702   -4.3336   -0.0000 C   0  0  0  0  0  0  0  0  0  0  0  0
   -1.4154   -8.7720   -0.0000 O   0  0  0  0  0  0  0  0  0  0  0  0
   -0.6815   -5.9936   -0.0000 C   0  0  0  0  0  0  0  0  0  0  0  0
    0.0874   -7.2867   -0.0000 C   0  0  0  0  0  0  0  0  0  0  0  0
  -10.4495    0.8737   -0.0000 N   0  0  0  0  0  0  0  0  0  0  0  0
   -9.1564    3.1104   -0.0000 C   0  0  0  0  0  0  0  0  0  0  0  0
   -7.8808   -5.0500   -0.0000 C   0  0  0  0  0  0  0  0  0  0  0  0
   -6.5877   -2.8308   -0.0000 C   0  0  0  0  0  0  0  0  0  0  0  0
  -11.7600    1.6251   -0.0000 C   0  0  0  0  0  0  0  0  0  0  0  0
  -10.4670   -0.5941   -0.0000 C   0  0  0  0  0  0  0  0  0  0  0  0
  -10.4670    3.8443   -0.0000 O   0  0  0  0  0  0  0  0  0  0  0  0
   -7.8983    3.8443   -0.0000 C   0  0  0  0  0  0  0  0  0  0  0  0
   -7.8983   -6.5178   -0.0000 O   0  0  0  0  0  0  0  0  0  0  0  0
   -9.1739   -4.2986   -0.0000 N   0  0  0  0  0  0  0  0  0  0  0  0
   -5.3296   -2.0794   -0.0000 C   0  0  0  0  0  0  0  0  0  0  0  0
   -7.8983   -2.0794   -0.0000 C   0  0  0  0  0  0  0  0  0  0  0  0
  -11.7775    3.1453   -0.0000 O   0  0  0  0  0  0  0  0  0  0  0  0
  -13.0531    0.9087   -0.0000 C   0  0  0  0  0  0  0  0  0  0  0  0
   -7.9157    5.3471   -0.0000 C   0  0  0  0  0  0  0  0  0  0  0  0
   -6.6227    3.1453   -0.0000 C   0  0  0  0  0  0  0  0  0  0  0  0
  -10.4844   -5.0151   -0.0000 C   0  0  0  0  0  0  0  0  0  0  0  0
   -9.1914   -2.7958   -0.0000 C   0  0  0  0  0  0  0  0  0  0  0  0
  -14.3637    1.6600   -0.0000 N   0  0  0  0  0  0  0  0  0  0  0  0
  -13.0706   -0.5592   -0.0000 C   0  0  0  0  0  0  0  0  0  0  0  0
   -9.2088    6.1334   -0.0000 C   0  0  0  0  0  0  0  0  0  0  0  0
  -11.7426   -4.2637   -0.0000 C   0  0  0  0  0  0  0  0  0  0  0  0
  -10.5019   -6.4829   -0.0000 C   0  0  0  0  0  0  0  0  0  0  0  0
  -15.6742    0.9436   -0.0000 C   0  0  0  0  0  0  0  0  0  0  0  0
  -14.3811    3.1803   -0.0000 C   0  0  0  0  0  0  0  0  0  0  0  0
  -14.3811   -1.2931   -0.0000 C   0  0  0  0  0  0  0  0  0  0  0  0
  -11.8125   -1.2931   -0.0000 C   0  0  0  0  0  0  0  0  0  0  0  0
   -9.2263    7.6362   -0.0000 C   0  0  0  0  0  0  0  0  0  0  0  0
  -11.8125   -2.7609   -0.0000 O   0  0  0  0  0  0  0  0  0  0  0  0
  -13.0706   -4.9452   -0.0000 N   0  0  0  0  0  0  0  0  0  0  0  0
  -11.7950   -7.1993   -0.0000 C   0  0  0  0  0  0  0  0  0  0  0  0
  -15.6917   -0.5242   -0.0000 O   0  0  0  0  0  0  0  0  0  0  0  0
  -16.9848    1.6950   -0.0000 C   0  0  0  0  0  0  0  0  0  0  0  0
  -10.5369    8.3875   -0.0000 C   0  0  0  0  0  0  0  0  0  0  0  0
  -14.3986   -4.2287   -0.0000 C   0  0  0  0  0  0  0  0  0  0  0  0
  -11.8125   -8.6671   -0.0000 C   0  0  0  0  0  0  0  0  0  0  0  0
  -12.8784   -6.5528   -0.0000 C   0  0  0  0  0  0  0  0  0  0  0  0
  -18.2779    0.9960   -0.0000 N   0  0  0  0  0  0  0  0  0  0  0  0
  -17.0023    3.2152   -0.0000 C   0  0  0  0  0  0  0  0  0  0  0  0
  -15.6917   -4.9452   -0.0000 C   0  0  0  0  0  0  0  0  0  0  0  0
  -14.4161   -2.7260   -0.0000 C   0  0  0  0  0  0  0  0  0  0  0  0
  -18.3128   -0.4718   -0.0000 C   0  0  0  0  0  0  0  0  0  0  0  0
  -19.5884    1.7649   -0.0000 C   0  0  0  0  0  0  0  0  0  0  0  0
  -18.3128    3.9491   -0.0000 C   0  0  0  0  0  0  0  0  0  0  0  0
  -15.7092   -6.4130   -0.0000 O   0  0  0  0  0  0  0  0  0  0  0  0
  -17.0023   -4.1763   -0.0000 N   0  0  0  0  0  0  0  0  0  0  0  0
  -17.0721   -1.2057   -0.0000 O   0  0  0  0  0  0  0  0  0  0  0  0
  -19.6234   -1.1708   -0.0000 C   0  0  0  0  0  0  0  0  0  0  0  0
  -19.6234    3.2502   -0.0000 C   0  0  0  0  0  0  0  0  0  0  0  0
  -18.3303    5.4519   -0.0000 C   0  0  0  0  0  0  0  0  0  0  0  0
  -18.2953   -4.9102   -0.0000 C   0  0  0  0  0  0  0  0  0  0  0  0
  -19.6583   -2.6386   -0.0000 N   0  0  0  0  0  0  0  0  0  0  0  0
  -20.8990   -0.4019   -0.0000 C   0  0  0  0  0  0  0  0  0  0  0  0
  -18.3652   -3.4074   -0.0000 C   0  0  0  0  0  0  0  0  0  0  0  0
  -19.0292   -6.2033   -0.0000 C   0  0  0  0  0  0  0  0  0  0  0  0
  -20.9689   -3.3550   -0.0000 C   0  0  0  0  0  0  0  0  0  0  0  0
  -22.2095   -1.1183   -0.0000 C   0  0  0  0  0  0  0  0  0  0  0  0
  -17.1071   -2.6386   -0.0000 O   0  0  0  0  0  0  0  0  0  0  0  0
  -23.4851   -0.3320   -0.0000 C   0  0  0  0  0  0  0  0  0  0  0  0
  -22.2445   -2.5862   -0.0000 C   0  0  0  0  0  0  0  0  0  0  0  0
  2  1  1  1  0  0  0
  1  3  1  0  0  0  0
  2  4  1  0  0  0  0
  2  5  1  0  0  0  0
  3  6  1  0  0  0  0
  4  7  1  0  0  0  0
  4  8  1  0  0  0  0
  5  9  2  0  0  0  0
  5 10  1  0  0  0  0
  6 11  1  0  0  0  0
  7 12  2  0  0  0  0
  7 13  1  0  0  0  0
 10 14  1  0  0  0  0
 10 15  1  0  0  0  0
 11 16  1  0  0  0  0
 11 17  1  0  0  0  0
 13 18  1  0  0  0  0
 13 19  1  1  0  0  0
 14 20  1  0  0  0  0
 14 21  1  6  0  0  0
 18 22  1  0  0  0  0
 19 23  1  0  0  0  0
 20 24  2  0  0  0  0
 20 25  1  0  0  0  0
 21 26  1  0  0  0  0
 22 27  2  0  0  0  0
 22 28  1  0  0  0  0
 25 29  1  0  0  0  0
 26 30  1  0  0  0  0
 26 31  1  0  0  0  0
 26 32  1  0  0  0  0
 28 33  1  6  0  0  0
 28 34  1  0  0  0  0
 29 35  1  0  0  0  0
 29 36  1  1  0  0  0
 33 37  1  0  0  0  0
 33 38  1  0  0  0  0
 34 39  1  1  0  0  0
 34 40  1  0  0  0  0
 35 41  2  0  0  0  0
 35 42  1  0  0  0  0
 36 43  1  0  0  0  0
 36 44  1  0  0  0  0
 37 45  2  0  0  0  0
 37 46  1  0  0  0  0
 40 47  1  0  0  0  0
 40 48  1  6  0  0  0
 42 49  1  0  0  0  0
 42 50  1  0  0  0  0
 46 51  1  0  0  0  0
 46 52  1  1  0  0  0
 47 53  1  0  0  0  0
 49 54  1  0  0  0  0
 49 55  1  6  0  0  0
 51 56  1  0  0  0  0
 51 57  1  0  0  0  0
 52 58  1  0  0  0  0
 52 59  1  0  0  0  0
 53 60  2  0  0  0  0
 54 61  2  0  0  0  0
 54 62  1  0  0  0  0
 55 63  1  0  0  0  0
 56 64  2  0  0  0  0
 56 65  1  0  0  0  0
 60 66  1  0  0  0  0
 62 67  1  0  0  0  0
 63 68  1  0  0  0  0
 63 69  1  0  0  0  0
 65 70  1  0  0  0  0
 65 71  1  6  0  0  0
 67 72  1  0  0  0  0
 67 73  1  1  0  0  0
 70 74  1  0  0  0  0
 70 75  1  0  0  0  0
 71 76  1  0  0  0  0
 72 77  2  0  0  0  0
 72 78  1  0  0  0  0
 74 79  2  0  0  0  0
 74 80  1  0  0  0  0
 76 81  1  0  0  0  0
 76 82  1  0  0  0  0
 78 83  1  0  0  0  0
 80 84  1  0  0  0  0
 80 85  1  6  0  0  0
 83 86  1  0  0  0  0
 83 87  1  1  0  0  0
 84 88  1  0  0  0  0
 85 89  1  0  0  0  0
 86 90  2  0  0  0  0
 89 91  1  0  0  0  0
 89 92  1  0  0  0  0
 84 86  1  0  0  0  0
M  END
>  <MolRegNo>
708831

>  <m>
=

>  <Value>
58500

>  <Unit>
nM

>  <Type>
IC50

>  <pValue>
4.23

>  <Ligand Efficiency>
0

>  <Binding Efficiency>
0

>  <Surface Efficiency>
0

>  <Assay Index>
491055

>  <Assay Category>


>  <Assay Organism>
Homo sapiens

>  <Target ID>
17045

>  <Target Name>
Cytochrome P450 3A4

>  <Target Organism>
Homo sapiens

>  <Target Description>
Target is a single protein chain

>  <Sequence Accession>
P08684

>  <Reference>
Antimicrob Agents Chemother 54 (2), 660-672 (2010)

>  <Pubmed ID>
19933795

>  <DOI>
10.1128/aac.00660-09

$$$$
687418
Actelion Java MolfileCreator 1.0

 27 29  0  0  0  0  0  0  0  0999 V2000
    0.0000   -0.0000   -0.0000 Cl  0  0  0  0  0  0  0  0  0  0  0  0
   -1.3181    0.7718   -0.0000 C   0  0  0  0  0  0  0  0  0  0  0  0
   -2.6361    0.0356   -0.0000 C   0  0  0  0  0  0  0  0  0  0  0  0
   -1.3299    2.2799   -0.0000 C   0  0  0  0  0  0  0  0  0  0  0  0
   -3.9423    0.7956   -0.0000 C   0  0  0  0  0  0  0  0  0  0  0  0
   -2.6599   -1.4606   -0.0000 C   0  0  0  0  0  0  0  0  0  0  0  0
   -2.6361    3.0399   -0.0000 C   0  0  0  0  0  0  0  0  0  0  0  0
   -3.9542    2.3036   -0.0000 C   0  0  0  0  0  0  0  0  0  0  0  0
   -1.3774   -2.1968   -0.0000 C   0  0  0  0  0  0  0  0  0  0  0  0
   -3.9661   -2.1968   -0.0000 C   0  0  0  0  0  0  0  0  0  0  0  0
   -2.6599    4.5479   -0.0000 F   0  0  0  0  0  0  0  0  0  0  0  0
   -0.0831   -1.4368   -0.0000 C   0  0  0  0  0  0  0  0  0  0  0  0
   -1.3893   -3.6811   -0.0000 C   0  0  0  0  0  0  0  0  0  0  0  0
   -3.9779   -3.6811   -0.0000 C   0  0  0  0  0  0  0  0  0  0  0  0
   -5.2723   -1.4368   -0.0000 C   0  0  0  0  0  0  0  0  0  0  0  0
    1.2112   -0.6768   -0.0000 N   0  0  0  0  0  0  0  0  0  0  0  0
   -2.6955   -4.4173   -0.0000 N   0  0  0  0  0  0  0  0  0  0  0  0
   -0.0950   -4.4292   -0.0000 C   0  0  0  0  0  0  0  0  0  0  0  0
   -5.2841   -4.4292   -0.0000 C   0  0  0  0  0  0  0  0  0  0  0  0
   -6.5903   -2.1730   -0.0000 O   0  0  0  0  0  0  0  0  0  0  0  0
   -5.2960    0.0712   -0.0000 O   0  0  0  0  0  0  0  0  0  0  0  0
   -5.2841   -5.9135   -0.0000 N   0  0  0  0  0  0  0  0  0  0  0  0
   -6.6141    0.8431   -0.0000 C   0  0  0  0  0  0  0  0  0  0  0  0
   -4.0967   -6.7922   -0.0000 C   0  0  0  0  0  0  0  0  0  0  0  0
   -6.5191   -6.7684   -0.0000 C   0  0  0  0  0  0  0  0  0  0  0  0
   -4.5954   -8.1934   -0.0000 N   0  0  0  0  0  0  0  0  0  0  0  0
   -6.0797   -8.1934   -0.0000 C   0  0  0  0  0  0  0  0  0  0  0  0
  1  2  1  0  0  0  0
  2  3  2  0  0  0  0
  2  4  1  0  0  0  0
  3  5  1  0  0  0  0
  3  6  1  0  0  0  0
  4  7  2  0  0  0  0
  5  8  2  0  0  0  0
  6  9  1  0  0  0  0
  6 10  1  0  0  0  0
  7 11  1  0  0  0  0
  9 12  1  0  0  0  0
  9 13  2  0  0  0  0
 10 14  2  0  0  0  0
 10 15  1  0  0  0  0
 12 16  3  0  0  0  0
 13 17  1  0  0  0  0
 13 18  1  0  0  0  0
 14 19  1  0  0  0  0
 15 20  2  0  0  0  0
 15 21  1  0  0  0  0
 19 22  1  0  0  0  0
 21 23  1  0  0  0  0
 22 24  1  0  0  0  0
 22 25  1  0  0  0  0
 24 26  2  0  0  0  0
 25 27  2  0  0  0  0
  7  8  1  0  0  0  0
 14 17  1  0  0  0  0
 26 27  1  0  0  0  0
M  END
>  <MolRegNo>
687418

>  <m>
=

>  <Value>
200

>  <Unit>
nM

>  <Type>
IC50

>  <pValue>
6.7

>  <Ligand Efficiency>
0

>  <Binding Efficiency>
0

>  <Surface Efficiency>
0

>  <Assay Index>
494853

>  <Assay Category>


>  <Assay Organism>


>  <Target ID>
17045

>  <Target Name>
Cytochrome P450 3A4

>  <Target Organism>
Homo sapiens

>  <Target Description>
Target is a single protein chain

>  <Sequence Accession>
P08684

>  <Reference>
J Med Chem 53 (16), 5970-5978 (2010)

>  <Pubmed ID>
20672820

>  <DOI>
10.1021/jm100506y

$$$$
687486
Actelion Java MolfileCreator 1.0

 27 29  0  0  0  0  0  0  0  0999 V2000
    0.0000   -0.0000   -0.0000 Cl  0  0  0  0  0  0  0  0  0  0  0  0
   -1.3175    0.7715   -0.0000 C   0  0  0  0  0  0  0  0  0  0  0  0
   -2.6350    0.0356   -0.0000 C   0  0  0  0  0  0  0  0  0  0  0  0
   -1.3293    2.2789   -0.0000 C   0  0  0  0  0  0  0  0  0  0  0  0
   -3.9406    0.7952   -0.0000 C   0  0  0  0  0  0  0  0  0  0  0  0
   -2.6587   -1.4599   -0.0000 C   0  0  0  0  0  0  0  0  0  0  0  0
   -2.6350    3.0385   -0.0000 C   0  0  0  0  0  0  0  0  0  0  0  0
   -3.9524    2.3026   -0.0000 C   0  0  0  0  0  0  0  0  0  0  0  0
   -1.3768   -2.1958   -0.0000 C   0  0  0  0  0  0  0  0  0  0  0  0
   -3.9524   -2.1958   -0.0000 C   0  0  0  0  0  0  0  0  0  0  0  0
   -2.6587    4.5459   -0.0000 F   0  0  0  0  0  0  0  0  0  0  0  0
   -0.0831   -1.4362   -0.0000 C   0  0  0  0  0  0  0  0  0  0  0  0
   -1.3887   -3.6794   -0.0000 C   0  0  0  0  0  0  0  0  0  0  0  0
   -3.9643   -3.6794   -0.0000 C   0  0  0  0  0  0  0  0  0  0  0  0
   -5.2699   -1.4362   -0.0000 C   0  0  0  0  0  0  0  0  0  0  0  0
    1.2107   -0.6765   -0.0000 N   0  0  0  0  0  0  0  0  0  0  0  0
   -2.6943   -4.4153   -0.0000 N   0  0  0  0  0  0  0  0  0  0  0  0
   -0.0950   -4.4272   -0.0000 C   0  0  0  0  0  0  0  0  0  0  0  0
   -5.2818   -4.4272   -0.0000 C   0  0  0  0  0  0  0  0  0  0  0  0
   -6.5874   -2.1721   -0.0000 O   0  0  0  0  0  0  0  0  0  0  0  0
   -5.2937    0.0712   -0.0000 O   0  0  0  0  0  0  0  0  0  0  0  0
   -5.3055   -5.9109   -0.0000 N   0  0  0  0  0  0  0  0  0  0  0  0
   -6.6111    0.8427   -0.0000 C   0  0  0  0  0  0  0  0  0  0  0  0
   -4.1186   -6.7892   -0.0000 N   0  0  0  0  0  0  0  0  0  0  0  0
   -6.5399   -6.7654   -0.0000 C   0  0  0  0  0  0  0  0  0  0  0  0
   -4.6052   -8.2016   -0.0000 C   0  0  0  0  0  0  0  0  0  0  0  0
   -6.1008   -8.1897   -0.0000 C   0  0  0  0  0  0  0  0  0  0  0  0
  1  2  1  0  0  0  0
  2  3  2  0  0  0  0
  2  4  1  0  0  0  0
  3  5  1  0  0  0  0
  3  6  1  0  0  0  0
  4  7  2  0  0  0  0
  5  8  2  0  0  0  0
  6  9  1  0  0  0  0
  6 10  1  0  0  0  0
  7 11  1  0  0  0  0
  9 12  1  0  0  0  0
  9 13  2  0  0  0  0
 10 14  2  0  0  0  0
 10 15  1  0  0  0  0
 12 16  3  0  0  0  0
 13 17  1  0  0  0  0
 13 18  1  0  0  0  0
 14 19  1  0  0  0  0
 15 20  2  0  0  0  0
 15 21  1  0  0  0  0
 19 22  1  0  0  0  0
 21 23  1  0  0  0  0
 22 24  1  0  0  0  0
 22 25  1  0  0  0  0
 24 26  2  0  0  0  0
 25 27  2  0  0  0  0
  7  8  1  0  0  0  0
 14 17  1  0  0  0  0
 26 27  1  0  0  0  0
M  END
>  <MolRegNo>
687486

>  <m>
=

>  <Value>
1100

>  <Unit>
nM

>  <Type>
IC50

>  <pValue>
5.96

>  <Ligand Efficiency>
0

>  <Binding Efficiency>
0

>  <Surface Efficiency>
0

>  <Assay Index>
494853

>  <Assay Category>


>  <Assay Organism>


>  <Target ID>
17045

>  <Target Name>
Cytochrome P450 3A4

>  <Target Organism>
Homo sapiens

>  <Target Description>
Target is a single protein chain

>  <Sequence Accession>
P08684

>  <Reference>
J Med Chem 53 (16), 5970-5978 (2010)

>  <Pubmed ID>
20672820

>  <DOI>
10.1021/jm100506y

$$$$
687487
Actelion Java MolfileCreator 1.0

 27 29  0  0  0  0  0  0  0  0999 V2000
    0.0000   -0.0000   -0.0000 Cl  0  0  0  0  0  0  0  0  0  0  0  0
   -1.3181    0.7718   -0.0000 C   0  0  0  0  0  0  0  0  0  0  0  0
   -2.6361    0.0356   -0.0000 C   0  0  0  0  0  0  0  0  0  0  0  0
   -1.3299    2.2799   -0.0000 C   0  0  0  0  0  0  0  0  0  0  0  0
   -3.9423    0.7956   -0.0000 C   0  0  0  0  0  0  0  0  0  0  0  0
   -2.6599   -1.4606   -0.0000 C   0  0  0  0  0  0  0  0  0  0  0  0
   -2.6361    3.0399   -0.0000 C   0  0  0  0  0  0  0  0  0  0  0  0
   -3.9542    2.3036   -0.0000 C   0  0  0  0  0  0  0  0  0  0  0  0
   -1.3774   -2.1968   -0.0000 C   0  0  0  0  0  0  0  0  0  0  0  0
   -3.9661   -2.1968   -0.0000 C   0  0  0  0  0  0  0  0  0  0  0  0
   -2.6599    4.5479   -0.0000 F   0  0  0  0  0  0  0  0  0  0  0  0
   -0.0831   -1.4368   -0.0000 C   0  0  0  0  0  0  0  0  0  0  0  0
   -1.3893   -3.6811   -0.0000 C   0  0  0  0  0  0  0  0  0  0  0  0
   -3.9779   -3.6811   -0.0000 C   0  0  0  0  0  0  0  0  0  0  0  0
   -5.2723   -1.4368   -0.0000 C   0  0  0  0  0  0  0  0  0  0  0  0
    1.2112   -0.6768   -0.0000 N   0  0  0  0  0  0  0  0  0  0  0  0
   -2.6955   -4.4173   -0.0000 N   0  0  0  0  0  0  0  0  0  0  0  0
   -0.0950   -4.4292   -0.0000 C   0  0  0  0  0  0  0  0  0  0  0  0
   -5.2841   -4.4292   -0.0000 C   0  0  0  0  0  0  0  0  0  0  0  0
   -6.5903   -2.1730   -0.0000 O   0  0  0  0  0  0  0  0  0  0  0  0
   -5.2960    0.0712   -0.0000 O   0  0  0  0  0  0  0  0  0  0  0  0
   -5.2841   -5.9135   -0.0000 N   0  0  0  0  0  0  0  0  0  0  0  0
   -6.6141    0.8431   -0.0000 C   0  0  0  0  0  0  0  0  0  0  0  0
   -4.0967   -6.7922   -0.0000 N   0  0  0  0  0  0  0  0  0  0  0  0
   -6.5191   -6.7684   -0.0000 C   0  0  0  0  0  0  0  0  0  0  0  0
   -4.5954   -8.1934   -0.0000 C   0  0  0  0  0  0  0  0  0  0  0  0
   -6.0797   -8.1934   -0.0000 N   0  0  0  0  0  0  0  0  0  0  0  0
  1  2  1  0  0  0  0
  2  3  2  0  0  0  0
  2  4  1  0  0  0  0
  3  5  1  0  0  0  0
  3  6  1  0  0  0  0
  4  7  2  0  0  0  0
  5  8  2  0  0  0  0
  6  9  1  0  0  0  0
  6 10  1  0  0  0  0
  7 11  1  0  0  0  0
  9 12  1  0  0  0  0
  9 13  2  0  0  0  0
 10 14  2  0  0  0  0
 10 15  1  0  0  0  0
 12 16  3  0  0  0  0
 13 17  1  0  0  0  0
 13 18  1  0  0  0  0
 14 19  1  0  0  0  0
 15 20  2  0  0  0  0
 15 21  1  0  0  0  0
 19 22  1  0  0  0  0
 21 23  1  0  0  0  0
 22 24  1  0  0  0  0
 22 25  1  0  0  0  0
 24 26  2  0  0  0  0
 25 27  2  0  0  0  0
  7  8  1  0  0  0  0
 14 17  1  0  0  0  0
 26 27  1  0  0  0  0
M  END
>  <MolRegNo>
687487

>  <m>
=

>  <Value>
800

>  <Unit>
nM

>  <Type>
IC50

>  <pValue>
6.1

>  <Ligand Efficiency>
0

>  <Binding Efficiency>
0

>  <Surface Efficiency>
0

>  <Assay Index>
494853

>  <Assay Category>


>  <Assay Organism>


>  <Target ID>
17045

>  <Target Name>
Cytochrome P450 3A4

>  <Target Organism>
Homo sapiens

>  <Target Description>
Target is a single protein chain

>  <Sequence Accession>
P08684

>  <Reference>
J Med Chem 53 (16), 5970-5978 (2010)

>  <Pubmed ID>
20672820

>  <DOI>
10.1021/jm100506y

$$$$
687488
Actelion Java MolfileCreator 1.0

 27 29  0  0  0  0  0  0  0  0999 V2000
    0.0000   -0.0000   -0.0000 Cl  0  0  0  0  0  0  0  0  0  0  0  0
   -1.3181    0.7718   -0.0000 C   0  0  0  0  0  0  0  0  0  0  0  0
   -2.6361    0.0356   -0.0000 C   0  0  0  0  0  0  0  0  0  0  0  0
   -1.3299    2.2799   -0.0000 C   0  0  0  0  0  0  0  0  0  0  0  0
   -3.9423    0.7956   -0.0000 C   0  0  0  0  0  0  0  0  0  0  0  0
   -2.6599   -1.4606   -0.0000 C   0  0  0  0  0  0  0  0  0  0  0  0
   -2.6361    3.0399   -0.0000 C   0  0  0  0  0  0  0  0  0  0  0  0
   -3.9542    2.3036   -0.0000 C   0  0  0  0  0  0  0  0  0  0  0  0
   -1.3774   -2.1968   -0.0000 C   0  0  0  0  0  0  0  0  0  0  0  0
   -3.9661   -2.1968   -0.0000 C   0  0  0  0  0  0  0  0  0  0  0  0
   -2.6599    4.5479   -0.0000 F   0  0  0  0  0  0  0  0  0  0  0  0
   -0.0831   -1.4368   -0.0000 C   0  0  0  0  0  0  0  0  0  0  0  0
   -1.3893   -3.6811   -0.0000 C   0  0  0  0  0  0  0  0  0  0  0  0
   -3.9779   -3.6811   -0.0000 C   0  0  0  0  0  0  0  0  0  0  0  0
   -5.2723   -1.4368   -0.0000 C   0  0  0  0  0  0  0  0  0  0  0  0
    1.2112   -0.6768   -0.0000 N   0  0  0  0  0  0  0  0  0  0  0  0
   -2.6955   -4.4173   -0.0000 N   0  0  0  0  0  0  0  0  0  0  0  0
   -0.0950   -4.4292   -0.0000 C   0  0  0  0  0  0  0  0  0  0  0  0
   -5.2841   -4.4292   -0.0000 C   0  0  0  0  0  0  0  0  0  0  0  0
   -6.5903   -2.1730   -0.0000 O   0  0  0  0  0  0  0  0  0  0  0  0
   -5.2960    0.0712   -0.0000 O   0  0  0  0  0  0  0  0  0  0  0  0
   -5.2841   -5.9135   -0.0000 N   0  0  0  0  0  0  0  0  0  0  0  0
   -6.6141    0.8431   -0.0000 C   0  0  0  0  0  0  0  0  0  0  0  0
   -4.0967   -6.7922   -0.0000 N   0  0  0  0  0  0  0  0  0  0  0  0
   -6.5191   -6.7684   -0.0000 C   0  0  0  0  0  0  0  0  0  0  0  0
   -4.5954   -8.1934   -0.0000 N   0  0  0  0  0  0  0  0  0  0  0  0
   -6.0797   -8.1934   -0.0000 N   0  0  0  0  0  0  0  0  0  0  0  0
  1  2  1  0  0  0  0
  2  3  2  0  0  0  0
  2  4  1  0  0  0  0
  3  5  1  0  0  0  0
  3  6  1  0  0  0  0
  4  7  2  0  0  0  0
  5  8  2  0  0  0  0
  6  9  1  0  0  0  0
  6 10  1  0  0  0  0
  7 11  1  0  0  0  0
  9 12  1  0  0  0  0
  9 13  2  0  0  0  0
 10 14  2  0  0  0  0
 10 15  1  0  0  0  0
 12 16  3  0  0  0  0
 13 17  1  0  0  0  0
 13 18  1  0  0  0  0
 14 19  1  0  0  0  0
 15 20  2  0  0  0  0
 15 21  1  0  0  0  0
 19 22  1  0  0  0  0
 21 23  1  0  0  0  0
 22 24  1  0  0  0  0
 22 25  1  0  0  0  0
 24 26  2  0  0  0  0
 25 27  2  0  0  0  0
  7  8  1  0  0  0  0
 14 17  1  0  0  0  0
 26 27  1  0  0  0  0
M  END
>  <MolRegNo>
687488

>  <m>
=

>  <Value>
1200

>  <Unit>
nM

>  <Type>
IC50

>  <pValue>
5.92

>  <Ligand Efficiency>
0

>  <Binding Efficiency>
0

>  <Surface Efficiency>
0

>  <Assay Index>
494853

>  <Assay Category>


>  <Assay Organism>


>  <Target ID>
17045

>  <Target Name>
Cytochrome P450 3A4

>  <Target Organism>
Homo sapiens

>  <Target Description>
Target is a single protein chain

>  <Sequence Accession>
P08684

>  <Reference>
J Med Chem 53 (16), 5970-5978 (2010)

>  <Pubmed ID>
20672820

>  <DOI>
10.1021/jm100506y

$$$$
687531
Actelion Java MolfileCreator 1.0

 21 23  0  0  0  0  0  0  0  0999 V2000
    0.0000   -0.0000   -0.0000 O   0  0  0  0  0  0  0  0  0  0  0  0
    1.2976    0.7619   -0.0000 C   0  0  0  0  0  0  0  0  0  0  0  0
    1.2857    2.2858   -0.0000 C   0  0  0  0  0  0  0  0  0  0  0  0
    2.5834    0.0238   -0.0000 C   0  0  0  0  0  0  0  0  0  0  0  0
    2.5715    3.0477   -0.0000 C   0  0  0  0  0  0  0  0  0  0  0  0
    3.8810    0.7857   -0.0000 C   0  0  0  0  0  0  0  0  0  0  0  0
    3.8691    2.3096   -0.0000 C   0  0  0  0  0  0  0  0  0  0  0  0
    5.1430    3.0834   -0.0000 C   0  0  0  0  0  0  0  0  0  0  0  0
    6.4406    2.3453   -0.0000 C   0  0  0  0  0  0  0  0  0  0  0  0
    5.1192    4.5953   -0.0000 C   0  0  0  0  0  0  0  0  0  0  0  0
    7.7264    3.1072   -0.0000 C   0  0  0  0  0  0  0  0  0  0  0  0
    6.3930    5.3692   -0.0000 C   0  0  0  0  0  0  0  0  0  0  0  0
    7.7026    4.6311   -0.0000 C   0  0  0  0  0  0  0  0  0  0  0  0
    8.9883    5.4049   -0.0000 C   0  0  0  0  0  0  0  0  0  0  0  0
    8.9645    6.9168   -0.0000 O   0  0  0  0  0  0  0  0  0  0  0  0
   10.2859    4.6668   -0.0000 C   0  0  0  0  0  0  0  0  0  0  0  0
   10.2859    3.1786   -0.0000 C   0  0  0  0  0  0  0  0  0  0  0  0
   11.5598    5.4406   -0.0000 C   0  0  0  0  0  0  0  0  0  0  0  0
   11.5836    2.4405   -0.0000 C   0  0  0  0  0  0  0  0  0  0  0  0
   12.8574    4.7144   -0.0000 C   0  0  0  0  0  0  0  0  0  0  0  0
   12.8693    3.2144   -0.0000 N   0  0  0  0  0  0  0  0  0  0  0  0
  1  2  1  0  0  0  0
  2  3  2  0  0  0  0
  2  4  1  0  0  0  0
  3  5  1  0  0  0  0
  4  6  2  0  0  0  0
  5  7  2  0  0  0  0
  7  8  1  0  0  0  0
  8  9  2  0  0  0  0
  8 10  1  0  0  0  0
  9 11  1  0  0  0  0
 10 12  2  0  0  0  0
 11 13  2  0  0  0  0
 13 14  1  0  0  0  0
 14 15  1  0  0  0  0
 14 16  1  0  0  0  0
 16 17  2  0  0  0  0
 16 18  1  0  0  0  0
 17 19  1  0  0  0  0
 18 20  2  0  0  0  0
 19 21  2  0  0  0  0
  6  7  1  0  0  0  0
 12 13  1  0  0  0  0
 20 21  1  0  0  0  0
M  END
>  <MolRegNo>
687531

>  <m>
=

>  <Value>
3210

>  <Unit>
nM

>  <Type>
IC50

>  <pValue>
5.49

>  <Ligand Efficiency>
0

>  <Binding Efficiency>
0

>  <Surface Efficiency>
0

>  <Assay Index>
494548

>  <Assay Category>


>  <Assay Organism>


>  <Target ID>
17045

>  <Target Name>
Cytochrome P450 3A4

>  <Target Organism>
Homo sapiens

>  <Target Description>
Target is a single protein chain

>  <Sequence Accession>
P08684

>  <Reference>
J Med Chem 53 (15), 5749-5758 (2010)

>  <Pubmed ID>
20684610

>  <DOI>
10.1021/jm100317b

$$$$
687532
Actelion Java MolfileCreator 1.0

 20 22  0  0  0  0  0  0  0  0999 V2000
    0.0000   -0.0000   -0.0000 N   0  0  0  0  0  0  0  0  0  0  0  0
   -1.2999   -0.7445   -0.0000 C   0  0  0  0  0  0  0  0  0  0  0  0
   -0.0236    1.5126   -0.0000 C   0  0  0  0  0  0  0  0  0  0  0  0
   -2.6116    0.0118   -0.0000 C   0  0  0  0  0  0  0  0  0  0  0  0
   -1.3354    2.2571   -0.0000 C   0  0  0  0  0  0  0  0  0  0  0  0
   -2.6353    1.5126   -0.0000 C   0  0  0  0  0  0  0  0  0  0  0  0
   -3.9470    2.2689   -0.0000 C   0  0  0  0  0  0  0  0  0  0  0  0
   -5.2469    1.5244   -0.0000 C   0  0  0  0  0  0  0  0  0  0  0  0
   -5.2469    0.0355   -0.0000 C   0  0  0  0  0  0  0  0  0  0  0  0
   -6.5587    2.2808   -0.0000 C   0  0  0  0  0  0  0  0  0  0  0  0
   -6.5468   -0.6972   -0.0000 C   0  0  0  0  0  0  0  0  0  0  0  0
   -7.8468    1.5363   -0.0000 C   0  0  0  0  0  0  0  0  0  0  0  0
   -7.8586    0.0591   -0.0000 C   0  0  0  0  0  0  0  0  0  0  0  0
   -9.1467   -0.6854   -0.0000 C   0  0  0  0  0  0  0  0  0  0  0  0
   -9.1585   -2.1744   -0.0000 C   0  0  0  0  0  0  0  0  0  0  0  0
  -10.4584    0.0709   -0.0000 C   0  0  0  0  0  0  0  0  0  0  0  0
  -10.4702   -2.9071   -0.0000 C   0  0  0  0  0  0  0  0  0  0  0  0
  -11.7583   -0.6618   -0.0000 C   0  0  0  0  0  0  0  0  0  0  0  0
  -11.7701   -2.1508   -0.0000 C   0  0  0  0  0  0  0  0  0  0  0  0
  -13.0819   -2.8834   -0.0000 N   0  0  0  0  0  0  0  0  0  0  0  0
  1  2  2  0  0  0  0
  1  3  1  0  0  0  0
  2  4  1  0  0  0  0
  3  5  2  0  0  0  0
  4  6  2  0  0  0  0
  6  7  1  0  0  0  0
  7  8  1  0  0  0  0
  8  9  2  0  0  0  0
  8 10  1  0  0  0  0
  9 11  1  0  0  0  0
 10 12  2  0  0  0  0
 11 13  2  0  0  0  0
 13 14  1  0  0  0  0
 14 15  2  0  0  0  0
 14 16  1  0  0  0  0
 15 17  1  0  0  0  0
 16 18  2  0  0  0  0
 17 19  2  0  0  0  0
 19 20  1  0  0  0  0
  5  6  1  0  0  0  0
 12 13  1  0  0  0  0
 18 19  1  0  0  0  0
M  END
>  <MolRegNo>
687532

>  <m>
=

>  <Value>
2450

>  <Unit>
nM

>  <Type>
IC50

>  <pValue>
5.61

>  <Ligand Efficiency>
0

>  <Binding Efficiency>
0

>  <Surface Efficiency>
0

>  <Assay Index>
494548

>  <Assay Category>


>  <Assay Organism>


>  <Target ID>
17045

>  <Target Name>
Cytochrome P450 3A4

>  <Target Organism>
Homo sapiens

>  <Target Description>
Target is a single protein chain

>  <Sequence Accession>
P08684

>  <Reference>
J Med Chem 53 (15), 5749-5758 (2010)

>  <Pubmed ID>
20684610

>  <DOI>
10.1021/jm100317b

$$$$
687599
Actelion Java MolfileCreator 1.0

 20 22  0  0  0  0  0  0  0  0999 V2000
    0.0000   -0.0000   -0.0000 F   0  0  0  0  0  0  0  0  0  0  0  0
    1.2897   -0.7404   -0.0000 C   0  0  0  0  0  0  0  0  0  0  0  0
    2.5795    0.0239   -0.0000 C   0  0  0  0  0  0  0  0  0  0  0  0
    1.2778   -2.2451   -0.0000 C   0  0  0  0  0  0  0  0  0  0  0  0
    3.8812   -0.7165   -0.0000 C   0  0  0  0  0  0  0  0  0  0  0  0
    2.5675   -2.9855   -0.0000 C   0  0  0  0  0  0  0  0  0  0  0  0
    5.1590    0.0597   -0.0000 C   0  0  0  0  0  0  0  0  0  0  0  0
    3.8692   -2.2212   -0.0000 C   0  0  0  0  0  0  0  0  0  0  0  0
    5.1351    1.5764   -0.0000 C   0  0  0  0  0  0  0  0  0  0  0  0
    6.4607   -0.6807   -0.0000 C   0  0  0  0  0  0  0  0  0  0  0  0
    6.4129    2.3526   -0.0000 C   0  0  0  0  0  0  0  0  0  0  0  0
    7.7504    0.0836   -0.0000 C   0  0  0  0  0  0  0  0  0  0  0  0
    7.7146    1.6122   -0.0000 C   0  0  0  0  0  0  0  0  0  0  0  0
    9.0043    2.3884   -0.0000 C   0  0  0  0  0  0  0  0  0  0  0  0
   10.3060    1.6480   -0.0000 C   0  0  0  0  0  0  0  0  0  0  0  0
   11.5838    2.4242   -0.0000 C   0  0  0  0  0  0  0  0  0  0  0  0
   10.3060    0.1552   -0.0000 C   0  0  0  0  0  0  0  0  0  0  0  0
   12.8855    1.6958   -0.0000 C   0  0  0  0  0  0  0  0  0  0  0  0
   11.6077   -0.5852   -0.0000 C   0  0  0  0  0  0  0  0  0  0  0  0
   12.8855    0.1911   -0.0000 N   0  0  0  0  0  0  0  0  0  0  0  0
  1  2  1  0  0  0  0
  2  3  2  0  0  0  0
  2  4  1  0  0  0  0
  3  5  1  0  0  0  0
  4  6  2  0  0  0  0
  5  7  1  0  0  0  0
  5  8  2  0  0  0  0
  7  9  2  0  0  0  0
  7 10  1  0  0  0  0
  9 11  1  0  0  0  0
 10 12  2  0  0  0  0
 11 13  2  0  0  0  0
 13 14  1  0  0  0  0
 14 15  1  0  0  0  0
 15 16  2  0  0  0  0
 15 17  1  0  0  0  0
 16 18  1  0  0  0  0
 17 19  2  0  0  0  0
 18 20  2  0  0  0  0
  6  8  1  0  0  0  0
 12 13  1  0  0  0  0
 19 20  1  0  0  0  0
M  END
>  <MolRegNo>
687599

>  <m>
=

>  <Value>
668

>  <Unit>
nM

>  <Type>
IC50

>  <pValue>
6.17

>  <Ligand Efficiency>
0

>  <Binding Efficiency>
0

>  <Surface Efficiency>
0

>  <Assay Index>
494548

>  <Assay Category>


>  <Assay Organism>


>  <Target ID>
17045

>  <Target Name>
Cytochrome P450 3A4

>  <Target Organism>
Homo sapiens

>  <Target Description>
Target is a single protein chain

>  <Sequence Accession>
P08684

>  <Reference>
J Med Chem 53 (15), 5749-5758 (2010)

>  <Pubmed ID>
20684610

>  <DOI>
10.1021/jm100317b

$$$$
686595
Actelion Java MolfileCreator 1.0

 24 27  0  0  0  0  0  0  0  0999 V2000
    0.0000   -0.0000   -0.0000 O   0  0  0  0  0  0  0  0  0  0  0  0
    1.2866    0.7744   -0.0000 C   0  0  0  0  0  0  0  0  0  0  0  0
    2.5733    0.0477   -0.0000 C   0  0  0  0  0  0  0  0  0  0  0  0
    1.2628    2.2993   -0.0000 C   0  0  0  0  0  0  0  0  0  0  0  0
    3.8480    0.8220   -0.0000 C   0  0  0  0  0  0  0  0  0  0  0  0
    2.5494    3.0617   -0.0000 C   0  0  0  0  0  0  0  0  0  0  0  0
    3.8242    2.3350   -0.0000 C   0  0  0  0  0  0  0  0  0  0  0  0
    5.1465    0.0715   -0.0000 C   0  0  0  0  0  0  0  0  0  0  0  0
    5.1227    3.1094   -0.0000 C   0  0  0  0  0  0  0  0  0  0  0  0
    6.4332    0.8458   -0.0000 C   0  0  0  0  0  0  0  0  0  0  0  0
    6.4213    2.3588   -0.0000 C   0  0  0  0  0  0  0  0  0  0  0  0
    7.7079    3.1213   -0.0000 C   0  0  0  0  0  0  0  0  0  0  0  0
    9.0064    2.3707   -0.0000 C   0  0  0  0  0  0  0  0  0  0  0  0
    7.7079    4.6343   -0.0000 C   0  0  0  0  0  0  0  0  0  0  0  0
   10.3050    3.1451   -0.0000 C   0  0  0  0  0  0  0  0  0  0  0  0
    8.9945    5.4086   -0.0000 C   0  0  0  0  0  0  0  0  0  0  0  0
   10.2812    4.6700   -0.0000 C   0  0  0  0  0  0  0  0  0  0  0  0
   11.5797    5.4444   -0.0000 C   0  0  0  0  0  0  0  0  0  0  0  0
   12.8783    4.7057   -0.0000 C   0  0  0  0  0  0  0  0  0  0  0  0
   14.1530    5.4801   -0.0000 C   0  0  0  0  0  0  0  0  0  0  0  0
   12.8663    3.2166   -0.0000 C   0  0  0  0  0  0  0  0  0  0  0  0
   15.4515    4.7415   -0.0000 C   0  0  0  0  0  0  0  0  0  0  0  0
   14.1649    2.4780   -0.0000 C   0  0  0  0  0  0  0  0  0  0  0  0
   15.4515    3.2404   -0.0000 N   0  0  0  0  0  0  0  0  0  0  0  0
  1  2  1  0  0  0  0
  2  3  2  0  0  0  0
  2  4  1  0  0  0  0
  3  5  1  0  0  0  0
  4  6  2  0  0  0  0
  5  7  1  0  0  0  0
  5  8  2  0  0  0  0
  7  9  2  0  0  0  0
  8 10  1  0  0  0  0
  9 11  1  0  0  0  0
 11 12  1  0  0  0  0
 12 13  2  0  0  0  0
 12 14  1  0  0  0  0
 13 15  1  0  0  0  0
 14 16  2  0  0  0  0
 15 17  2  0  0  0  0
 17 18  1  0  0  0  0
 18 19  1  0  0  0  0
 19 20  2  0  0  0  0
 19 21  1  0  0  0  0
 20 22  1  0  0  0  0
 21 23  2  0  0  0  0
 22 24  2  0  0  0  0
  6  7  1  0  0  0  0
 10 11  2  0  0  0  0
 16 17  1  0  0  0  0
 23 24  1  0  0  0  0
M  END
>  <MolRegNo>
686595

>  <m>
=

>  <Value>
1140

>  <Unit>
nM

>  <Type>
IC50

>  <pValue>
5.94

>  <Ligand Efficiency>
0

>  <Binding Efficiency>
0

>  <Surface Efficiency>
0

>  <Assay Index>
494548

>  <Assay Category>


>  <Assay Organism>


>  <Target ID>
17045

>  <Target Name>
Cytochrome P450 3A4

>  <Target Organism>
Homo sapiens

>  <Target Description>
Target is a single protein chain

>  <Sequence Accession>
P08684

>  <Reference>
J Med Chem 53 (15), 5749-5758 (2010)

>  <Pubmed ID>
20684610

>  <DOI>
10.1021/jm100317b

$$$$
689445
Actelion Java MolfileCreator 1.0

 40 45  0  0  0  0  0  0  0  0999 V2000
    0.0000   -0.0000   -0.0000 O   0  0  0  0  0  0  0  0  0  0  0  0
    0.2857   -1.4642   -0.0000 C   0  0  0  0  0  0  0  0  0  0  0  0
    1.6427   -2.0712   -0.0000 N   0  0  0  0  0  0  0  0  0  0  0  0
   -0.7380   -2.5593   -0.0000 N   0  0  0  0  0  0  0  0  0  0  0  0
    1.4523   -3.5473   -0.0000 C   0  0  0  0  0  0  0  0  0  0  0  0
    2.9402   -1.3213   -0.0000 C   0  0  0  0  0  0  0  0  0  0  0  0
    0.0000   -3.8568   -0.0000 C   0  0  0  0  0  0  0  0  0  0  0  0
   -2.2498   -2.3807   -0.0000 C   0  0  0  0  0  0  0  0  0  0  0  0
    2.4403   -4.6424   -0.0000 C   0  0  0  0  0  0  0  0  0  0  0  0
    2.9402    0.1905   -0.0000 C   0  0  0  0  0  0  0  0  0  0  0  0
    4.2258   -2.0712   -0.0000 C   0  0  0  0  0  0  0  0  0  0  0  0
   -0.4761   -5.2614   -0.0000 C   0  0  0  0  0  0  0  0  0  0  0  0
   -2.8688   -0.9880   -0.0000 C   0  0  0  0  0  0  0  0  0  0  0  0
    1.9641   -6.0471   -0.0000 C   0  0  0  0  0  0  0  0  0  0  0  0
    4.2258    0.9404   -0.0000 C   0  0  0  0  0  0  0  0  0  0  0  0
    5.5233   -1.3213   -0.0000 C   0  0  0  0  0  0  0  0  0  0  0  0
    0.5119   -6.3685   -0.0000 C   0  0  0  0  0  0  0  0  0  0  0  0
   -1.9760    0.2262   -0.0000 C   0  0  0  0  0  0  0  0  0  0  0  0
   -4.3687   -0.8095   -0.0000 C   0  0  0  0  0  0  0  0  0  0  0  0
    5.5233    0.1905   -0.0000 N   0  0  0  0  0  0  0  0  0  0  0  0
   -2.5831    1.6189   -0.0000 C   0  0  0  0  0  0  0  0  0  0  0  0
   -4.9877    0.5714   -0.0000 C   0  0  0  0  0  0  0  0  0  0  0  0
    6.8208    0.9523   -0.0000 C   0  0  0  0  0  0  0  0  0  0  0  0
   -4.0949    1.7975   -0.0000 C   0  0  0  0  0  0  0  0  0  0  0  0
    6.8208    2.4641   -0.0000 O   0  0  0  0  0  0  0  0  0  0  0  0
    8.1064    0.2024   -0.0000 C   0  0  0  0  0  0  0  0  0  0  0  0
   -4.7139    3.1902   -0.0000 O   0  0  0  0  0  0  0  0  0  0  0  0
    9.4039    0.9642   -0.0000 C   0  0  0  0  0  0  0  0  0  0  0  0
    8.0945   -1.2975   -0.0000 C   0  0  0  0  0  0  0  0  0  0  0  0
   -3.8330    4.4163   -0.0000 C   0  0  0  0  0  0  0  0  0  0  0  0
   10.6895    0.2262   -0.0000 C   0  0  0  0  0  0  0  0  0  0  0  0
    9.3801   -2.0474   -0.0000 C   0  0  0  0  0  0  0  0  0  0  0  0
   10.6657   -1.2737   -0.0000 N   0  0  0  0  0  0  0  0  0  0  0  0
   11.9513   -2.0117   -0.0000 C   0  0  0  0  0  0  0  0  0  0  0  0
   13.2369   -1.2499   -0.0000 C   0  0  0  0  0  0  0  0  0  0  0  0
   13.2250    0.2738   -0.0000 C   0  0  0  0  0  0  0  0  0  0  0  0
   14.5225   -1.9879   -0.0000 C   0  0  0  0  0  0  0  0  0  0  0  0
   14.5106    1.0356   -0.0000 C   0  0  0  0  0  0  0  0  0  0  0  0
   15.8200   -1.2261   -0.0000 C   0  0  0  0  0  0  0  0  0  0  0  0
   15.8081    0.2976   -0.0000 N   0  0  0  0  0  0  0  0  0  0  0  0
  1  2  2  0  0  0  0
  2  3  1  0  0  0  0
  2  4  1  0  0  0  0
  3  5  1  0  0  0  0
  3  6  1  0  0  0  0
  4  7  1  0  0  0  0
  4  8  1  0  0  0  0
  5  9  1  0  0  0  0
  6 10  1  0  0  0  0
  6 11  1  0  0  0  0
  7 12  1  0  0  0  0
  8 13  1  0  0  0  0
  9 14  2  0  0  0  0
 10 15  1  0  0  0  0
 11 16  1  0  0  0  0
 12 17  2  0  0  0  0
 13 18  2  0  0  0  0
 13 19  1  0  0  0  0
 15 20  1  0  0  0  0
 18 21  1  0  0  0  0
 19 22  2  0  0  0  0
 20 23  1  0  0  0  0
 21 24  2  0  0  0  0
 23 25  2  0  0  0  0
 23 26  1  0  0  0  0
 24 27  1  0  0  0  0
 26 28  1  0  0  0  0
 26 29  1  0  0  0  0
 27 30  1  0  0  0  0
 28 31  1  0  0  0  0
 29 32  1  0  0  0  0
 31 33  1  0  0  0  0
 33 34  1  0  0  0  0
 34 35  1  0  0  0  0
 35 36  2  0  0  0  0
 35 37  1  0  0  0  0
 36 38  1  0  0  0  0
 37 39  2  0  0  0  0
 38 40  2  0  0  0  0
  5  7  2  0  0  0  0
 14 17  1  0  0  0  0
 16 20  1  0  0  0  0
 22 24  1  0  0  0  0
 32 33  1  0  0  0  0
 39 40  1  0  0  0  0
M  END
>  <MolRegNo>
689445

>  <m>
=

>  <Value>
400

>  <Unit>
nM

>  <Type>
IC50

>  <pValue>
6.4

>  <Ligand Efficiency>
0

>  <Binding Efficiency>
0

>  <Surface Efficiency>
0

>  <Assay Index>
497180

>  <Assay Category>


>  <Assay Organism>
Homo sapiens

>  <Target ID>
17045

>  <Target Name>
Cytochrome P450 3A4

>  <Target Organism>
Homo sapiens

>  <Target Description>
Target is a single protein chain

>  <Sequence Accession>
P08684

>  <Reference>
Bioorg Med Chem Lett 20 (17), 5004-5008 (2010)

>  <Pubmed ID>
20685118

>  <DOI>
10.1016/j.bmcl.2010.07.052

$$$$
689444
Actelion Java MolfileCreator 1.0

 40 45  0  0  0  0  0  0  0  0999 V2000
    0.0000   -0.0000   -0.0000 O   0  0  0  0  0  0  0  0  0  0  0  0
    0.2858   -1.4648   -0.0000 C   0  0  0  0  0  0  0  0  0  0  0  0
    1.6434   -2.0721   -0.0000 N   0  0  0  0  0  0  0  0  0  0  0  0
   -0.7383   -2.5604   -0.0000 N   0  0  0  0  0  0  0  0  0  0  0  0
    1.4529   -3.5488   -0.0000 C   0  0  0  0  0  0  0  0  0  0  0  0
    2.9414   -1.3219   -0.0000 C   0  0  0  0  0  0  0  0  0  0  0  0
    0.0000   -3.8584   -0.0000 C   0  0  0  0  0  0  0  0  0  0  0  0
   -2.2507   -2.3817   -0.0000 C   0  0  0  0  0  0  0  0  0  0  0  0
    2.4413   -4.6444   -0.0000 C   0  0  0  0  0  0  0  0  0  0  0  0
    2.9414    0.1905   -0.0000 C   0  0  0  0  0  0  0  0  0  0  0  0
    4.2276   -2.0721   -0.0000 C   0  0  0  0  0  0  0  0  0  0  0  0
   -0.4763   -5.2636   -0.0000 C   0  0  0  0  0  0  0  0  0  0  0  0
   -2.8700   -0.9884   -0.0000 C   0  0  0  0  0  0  0  0  0  0  0  0
    1.9649   -6.0496   -0.0000 C   0  0  0  0  0  0  0  0  0  0  0  0
    4.2276    0.9408   -0.0000 C   0  0  0  0  0  0  0  0  0  0  0  0
    5.5256   -1.3219   -0.0000 C   0  0  0  0  0  0  0  0  0  0  0  0
    0.5121   -6.3711   -0.0000 C   0  0  0  0  0  0  0  0  0  0  0  0
   -1.9768    0.2263   -0.0000 C   0  0  0  0  0  0  0  0  0  0  0  0
   -4.3705   -0.8098   -0.0000 C   0  0  0  0  0  0  0  0  0  0  0  0
    5.5256    0.1905   -0.0000 N   0  0  0  0  0  0  0  0  0  0  0  0
   -2.5842    1.6196   -0.0000 C   0  0  0  0  0  0  0  0  0  0  0  0
   -4.9897    0.5716   -0.0000 C   0  0  0  0  0  0  0  0  0  0  0  0
    6.8237    0.9527   -0.0000 C   0  0  0  0  0  0  0  0  0  0  0  0
   -1.7029    2.8462   -0.0000 O   0  0  0  0  0  0  0  0  0  0  0  0
   -4.0966    1.7982   -0.0000 C   0  0  0  0  0  0  0  0  0  0  0  0
    6.8237    2.4651   -0.0000 O   0  0  0  0  0  0  0  0  0  0  0  0
    8.1098    0.2024   -0.0000 C   0  0  0  0  0  0  0  0  0  0  0  0
   -0.2144    2.6914   -0.0000 C   0  0  0  0  0  0  0  0  0  0  0  0
    9.4078    0.9646   -0.0000 C   0  0  0  0  0  0  0  0  0  0  0  0
    8.0979   -1.2980   -0.0000 C   0  0  0  0  0  0  0  0  0  0  0  0
   10.6940    0.2263   -0.0000 C   0  0  0  0  0  0  0  0  0  0  0  0
    9.3840   -2.0483   -0.0000 C   0  0  0  0  0  0  0  0  0  0  0  0
   10.6702   -1.2742   -0.0000 N   0  0  0  0  0  0  0  0  0  0  0  0
   11.9563   -2.0126   -0.0000 C   0  0  0  0  0  0  0  0  0  0  0  0
   13.2424   -1.2504   -0.0000 C   0  0  0  0  0  0  0  0  0  0  0  0
   13.2305    0.2739   -0.0000 C   0  0  0  0  0  0  0  0  0  0  0  0
   14.5286   -1.9887   -0.0000 C   0  0  0  0  0  0  0  0  0  0  0  0
   14.5167    1.0361   -0.0000 C   0  0  0  0  0  0  0  0  0  0  0  0
   15.8266   -1.2266   -0.0000 C   0  0  0  0  0  0  0  0  0  0  0  0
   15.8147    0.2977   -0.0000 N   0  0  0  0  0  0  0  0  0  0  0  0
  1  2  2  0  0  0  0
  2  3  1  0  0  0  0
  2  4  1  0  0  0  0
  3  5  1  0  0  0  0
  3  6  1  0  0  0  0
  4  7  1  0  0  0  0
  4  8  1  0  0  0  0
  5  9  1  0  0  0  0
  6 10  1  0  0  0  0
  6 11  1  0  0  0  0
  7 12  1  0  0  0  0
  8 13  1  0  0  0  0
  9 14  2  0  0  0  0
 10 15  1  0  0  0  0
 11 16  1  0  0  0  0
 12 17  2  0  0  0  0
 13 18  2  0  0  0  0
 13 19  1  0  0  0  0
 15 20  1  0  0  0  0
 18 21  1  0  0  0  0
 19 22  2  0  0  0  0
 20 23  1  0  0  0  0
 21 24  1  0  0  0  0
 21 25  2  0  0  0  0
 23 26  2  0  0  0  0
 23 27  1  0  0  0  0
 24 28  1  0  0  0  0
 27 29  1  0  0  0  0
 27 30  1  0  0  0  0
 29 31  1  0  0  0  0
 30 32  1  0  0  0  0
 31 33  1  0  0  0  0
 33 34  1  0  0  0  0
 34 35  1  0  0  0  0
 35 36  2  0  0  0  0
 35 37  1  0  0  0  0
 36 38  1  0  0  0  0
 37 39  2  0  0  0  0
 38 40  2  0  0  0  0
  5  7  2  0  0  0  0
 14 17  1  0  0  0  0
 16 20  1  0  0  0  0
 22 25  1  0  0  0  0
 32 33  1  0  0  0  0
 39 40  1  0  0  0  0
M  END
>  <MolRegNo>
689444

>  <m>
=

>  <Value>
200

>  <Unit>
nM

>  <Type>
IC50

>  <pValue>
6.7

>  <Ligand Efficiency>
0

>  <Binding Efficiency>
0

>  <Surface Efficiency>
0

>  <Assay Index>
497180

>  <Assay Category>


>  <Assay Organism>
Homo sapiens

>  <Target ID>
17045

>  <Target Name>
Cytochrome P450 3A4

>  <Target Organism>
Homo sapiens

>  <Target Description>
Target is a single protein chain

>  <Sequence Accession>
P08684

>  <Reference>
Bioorg Med Chem Lett 20 (17), 5004-5008 (2010)

>  <Pubmed ID>
20685118

>  <DOI>
10.1016/j.bmcl.2010.07.052

$$$$
689443
Actelion Java MolfileCreator 1.0

 39 44  0  0  0  0  0  0  0  0999 V2000
    0.0000   -0.0000   -0.0000 Cl  0  0  0  0  0  0  0  0  0  0  0  0
    0.5968   -1.3727   -0.0000 C   0  0  0  0  0  0  0  0  0  0  0  0
    2.0890   -1.5279   -0.0000 C   0  0  0  0  0  0  0  0  0  0  0  0
   -0.3104   -2.5784   -0.0000 C   0  0  0  0  0  0  0  0  0  0  0  0
    2.6739   -2.9007   -0.0000 C   0  0  0  0  0  0  0  0  0  0  0  0
    0.2865   -3.9392   -0.0000 C   0  0  0  0  0  0  0  0  0  0  0  0
    1.7667   -4.1063   -0.0000 C   0  0  0  0  0  0  0  0  0  0  0  0
    2.3635   -5.4790   -0.0000 C   0  0  0  0  0  0  0  0  0  0  0  0
    3.8556   -5.6342   -0.0000 N   0  0  0  0  0  0  0  0  0  0  0  0
    4.8583   -4.5121   -0.0000 C   0  0  0  0  0  0  0  0  0  0  0  0
    4.5957   -6.9353   -0.0000 C   0  0  0  0  0  0  0  0  0  0  0  0
    4.5480   -3.0200   -0.0000 O   0  0  0  0  0  0  0  0  0  0  0  0
    6.2191   -5.1209   -0.0000 N   0  0  0  0  0  0  0  0  0  0  0  0
    6.0520   -6.6130   -0.0000 C   0  0  0  0  0  0  0  0  0  0  0  0
    4.1182   -8.3439   -0.0000 C   0  0  0  0  0  0  0  0  0  0  0  0
    7.5202   -4.3689   -0.0000 C   0  0  0  0  0  0  0  0  0  0  0  0
    7.0428   -7.7112   -0.0000 C   0  0  0  0  0  0  0  0  0  0  0  0
    5.1090   -9.4540   -0.0000 C   0  0  0  0  0  0  0  0  0  0  0  0
    7.5202   -2.8529   -0.0000 C   0  0  0  0  0  0  0  0  0  0  0  0
    8.8094   -5.1209   -0.0000 C   0  0  0  0  0  0  0  0  0  0  0  0
    6.5653   -9.1198   -0.0000 C   0  0  0  0  0  0  0  0  0  0  0  0
    8.8094   -2.1009   -0.0000 C   0  0  0  0  0  0  0  0  0  0  0  0
   10.1106   -4.3689   -0.0000 C   0  0  0  0  0  0  0  0  0  0  0  0
   10.1106   -2.8529   -0.0000 N   0  0  0  0  0  0  0  0  0  0  0  0
   11.4117   -2.0890   -0.0000 C   0  0  0  0  0  0  0  0  0  0  0  0
   11.4117   -0.5730   -0.0000 O   0  0  0  0  0  0  0  0  0  0  0  0
   12.7009   -2.8410   -0.0000 C   0  0  0  0  0  0  0  0  0  0  0  0
   14.0020   -2.0770   -0.0000 C   0  0  0  0  0  0  0  0  0  0  0  0
   12.6889   -4.3450   -0.0000 C   0  0  0  0  0  0  0  0  0  0  0  0
   15.2912   -2.8171   -0.0000 C   0  0  0  0  0  0  0  0  0  0  0  0
   13.9781   -5.0971   -0.0000 C   0  0  0  0  0  0  0  0  0  0  0  0
   15.2673   -4.3212   -0.0000 N   0  0  0  0  0  0  0  0  0  0  0  0
   16.5565   -5.0612   -0.0000 C   0  0  0  0  0  0  0  0  0  0  0  0
   17.8457   -4.2973   -0.0000 C   0  0  0  0  0  0  0  0  0  0  0  0
   17.8337   -2.7694   -0.0000 C   0  0  0  0  0  0  0  0  0  0  0  0
   19.1349   -5.0374   -0.0000 C   0  0  0  0  0  0  0  0  0  0  0  0
   19.1229   -2.0054   -0.0000 C   0  0  0  0  0  0  0  0  0  0  0  0
   20.4360   -4.2734   -0.0000 C   0  0  0  0  0  0  0  0  0  0  0  0
   20.4240   -2.7455   -0.0000 N   0  0  0  0  0  0  0  0  0  0  0  0
  1  2  1  0  0  0  0
  2  3  2  0  0  0  0
  2  4  1  0  0  0  0
  3  5  1  0  0  0  0
  4  6  2  0  0  0  0
  5  7  2  0  0  0  0
  7  8  1  0  0  0  0
  8  9  1  0  0  0  0
  9 10  1  0  0  0  0
  9 11  1  0  0  0  0
 10 12  2  0  0  0  0
 10 13  1  0  0  0  0
 11 14  2  0  0  0  0
 11 15  1  0  0  0  0
 13 16  1  0  0  0  0
 14 17  1  0  0  0  0
 15 18  2  0  0  0  0
 16 19  1  0  0  0  0
 16 20  1  0  0  0  0
 17 21  2  0  0  0  0
 19 22  1  0  0  0  0
 20 23  1  0  0  0  0
 22 24  1  0  0  0  0
 24 25  1  0  0  0  0
 25 26  2  0  0  0  0
 25 27  1  0  0  0  0
 27 28  1  0  0  0  0
 27 29  1  0  0  0  0
 28 30  1  0  0  0  0
 29 31  1  0  0  0  0
 30 32  1  0  0  0  0
 32 33  1  0  0  0  0
 33 34  1  0  0  0  0
 34 35  2  0  0  0  0
 34 36  1  0  0  0  0
 35 37  1  0  0  0  0
 36 38  2  0  0  0  0
 37 39  2  0  0  0  0
  6  7  1  0  0  0  0
 13 14  1  0  0  0  0
 18 21  1  0  0  0  0
 23 24  1  0  0  0  0
 31 32  1  0  0  0  0
 38 39  1  0  0  0  0
M  END
>  <MolRegNo>
689443

>  <m>
=

>  <Value>
400

>  <Unit>
nM

>  <Type>
IC50

>  <pValue>
6.4

>  <Ligand Efficiency>
0

>  <Binding Efficiency>
0

>  <Surface Efficiency>
0

>  <Assay Index>
497180

>  <Assay Category>


>  <Assay Organism>
Homo sapiens

>  <Target ID>
17045

>  <Target Name>
Cytochrome P450 3A4

>  <Target Organism>
Homo sapiens

>  <Target Description>
Target is a single protein chain

>  <Sequence Accession>
P08684

>  <Reference>
Bioorg Med Chem Lett 20 (17), 5004-5008 (2010)

>  <Pubmed ID>
20685118

>  <DOI>
10.1016/j.bmcl.2010.07.052

$$$$
689381
Actelion Java MolfileCreator 1.0

 39 44  0  0  0  0  0  0  0  0999 V2000
    0.0000   -0.0000   -0.0000 Cl  0  0  0  0  0  0  0  0  0  0  0  0
   -0.9064   -1.2046   -0.0000 C   0  0  0  0  0  0  0  0  0  0  0  0
   -0.3220   -2.5762   -0.0000 C   0  0  0  0  0  0  0  0  0  0  0  0
   -2.4211   -1.0257   -0.0000 C   0  0  0  0  0  0  0  0  0  0  0  0
   -1.2404   -3.7688   -0.0000 C   0  0  0  0  0  0  0  0  0  0  0  0
   -3.3276   -2.2303   -0.0000 C   0  0  0  0  0  0  0  0  0  0  0  0
   -2.7431   -3.5899   -0.0000 C   0  0  0  0  0  0  0  0  0  0  0  0
   -0.6440   -5.1404   -0.0000 C   0  0  0  0  0  0  0  0  0  0  0  0
    0.8468   -5.2955   -0.0000 N   0  0  0  0  0  0  0  0  0  0  0  0
    1.8486   -4.1744   -0.0000 C   0  0  0  0  0  0  0  0  0  0  0  0
    1.5863   -6.5955   -0.0000 C   0  0  0  0  0  0  0  0  0  0  0  0
    1.5385   -2.6835   -0.0000 O   0  0  0  0  0  0  0  0  0  0  0  0
    3.2083   -4.7826   -0.0000 N   0  0  0  0  0  0  0  0  0  0  0  0
    3.0413   -6.2735   -0.0000 C   0  0  0  0  0  0  0  0  0  0  0  0
    1.1092   -8.0028   -0.0000 C   0  0  0  0  0  0  0  0  0  0  0  0
    4.5083   -4.0312   -0.0000 C   0  0  0  0  0  0  0  0  0  0  0  0
    4.0312   -7.3707   -0.0000 C   0  0  0  0  0  0  0  0  0  0  0  0
    2.0991   -9.1120   -0.0000 C   0  0  0  0  0  0  0  0  0  0  0  0
    4.5083   -2.5165   -0.0000 C   0  0  0  0  0  0  0  0  0  0  0  0
    5.7964   -4.7826   -0.0000 C   0  0  0  0  0  0  0  0  0  0  0  0
    3.5542   -8.7781   -0.0000 C   0  0  0  0  0  0  0  0  0  0  0  0
    5.7964   -1.7652   -0.0000 C   0  0  0  0  0  0  0  0  0  0  0  0
    7.0964   -4.0312   -0.0000 C   0  0  0  0  0  0  0  0  0  0  0  0
    7.0964   -2.5165   -0.0000 N   0  0  0  0  0  0  0  0  0  0  0  0
    8.3964   -1.7532   -0.0000 C   0  0  0  0  0  0  0  0  0  0  0  0
    8.3964   -0.2385   -0.0000 O   0  0  0  0  0  0  0  0  0  0  0  0
    9.6845   -2.5046   -0.0000 C   0  0  0  0  0  0  0  0  0  0  0  0
   10.9845   -1.7413   -0.0000 C   0  0  0  0  0  0  0  0  0  0  0  0
    9.6726   -4.0074   -0.0000 C   0  0  0  0  0  0  0  0  0  0  0  0
   12.2726   -2.4808   -0.0000 C   0  0  0  0  0  0  0  0  0  0  0  0
   10.9607   -4.7588   -0.0000 C   0  0  0  0  0  0  0  0  0  0  0  0
   12.2487   -3.9835   -0.0000 N   0  0  0  0  0  0  0  0  0  0  0  0
   13.5368   -4.7230   -0.0000 C   0  0  0  0  0  0  0  0  0  0  0  0
   14.8249   -3.9597   -0.0000 C   0  0  0  0  0  0  0  0  0  0  0  0
   14.8130   -2.4331   -0.0000 C   0  0  0  0  0  0  0  0  0  0  0  0
   16.1130   -4.6991   -0.0000 C   0  0  0  0  0  0  0  0  0  0  0  0
   16.1011   -1.6697   -0.0000 C   0  0  0  0  0  0  0  0  0  0  0  0
   17.4130   -3.9358   -0.0000 C   0  0  0  0  0  0  0  0  0  0  0  0
   17.4011   -2.4092   -0.0000 N   0  0  0  0  0  0  0  0  0  0  0  0
  1  2  1  0  0  0  0
  2  3  2  0  0  0  0
  2  4  1  0  0  0  0
  3  5  1  0  0  0  0
  4  6  2  0  0  0  0
  5  7  2  0  0  0  0
  5  8  1  0  0  0  0
  8  9  1  0  0  0  0
  9 10  1  0  0  0  0
  9 11  1  0  0  0  0
 10 12  2  0  0  0  0
 10 13  1  0  0  0  0
 11 14  2  0  0  0  0
 11 15  1  0  0  0  0
 13 16  1  0  0  0  0
 14 17  1  0  0  0  0
 15 18  2  0  0  0  0
 16 19  1  0  0  0  0
 16 20  1  0  0  0  0
 17 21  2  0  0  0  0
 19 22  1  0  0  0  0
 20 23  1  0  0  0  0
 22 24  1  0  0  0  0
 24 25  1  0  0  0  0
 25 26  2  0  0  0  0
 25 27  1  0  0  0  0
 27 28  1  0  0  0  0
 27 29  1  0  0  0  0
 28 30  1  0  0  0  0
 29 31  1  0  0  0  0
 30 32  1  0  0  0  0
 32 33  1  0  0  0  0
 33 34  1  0  0  0  0
 34 35  2  0  0  0  0
 34 36  1  0  0  0  0
 35 37  1  0  0  0  0
 36 38  2  0  0  0  0
 37 39  2  0  0  0  0
  6  7  1  0  0  0  0
 13 14  1  0  0  0  0
 18 21  1  0  0  0  0
 23 24  1  0  0  0  0
 31 32  1  0  0  0  0
 38 39  1  0  0  0  0
M  END
>  <MolRegNo>
689381

>  <m>
=

>  <Value>
300

>  <Unit>
nM

>  <Type>
IC50

>  <pValue>
6.52

>  <Ligand Efficiency>
0

>  <Binding Efficiency>
0

>  <Surface Efficiency>
0

>  <Assay Index>
497180

>  <Assay Category>


>  <Assay Organism>
Homo sapiens

>  <Target ID>
17045

>  <Target Name>
Cytochrome P450 3A4

>  <Target Organism>
Homo sapiens

>  <Target Description>
Target is a single protein chain

>  <Sequence Accession>
P08684

>  <Reference>
Bioorg Med Chem Lett 20 (17), 5004-5008 (2010)

>  <Pubmed ID>
20685118

>  <DOI>
10.1016/j.bmcl.2010.07.052

$$$$
689380
Actelion Java MolfileCreator 1.0

 39 44  0  0  0  0  0  0  0  0999 V2000
    0.0000   -0.0000   -0.0000 Cl  0  0  0  0  0  0  0  0  0  0  0  0
    0.8820    1.2277   -0.0000 C   0  0  0  0  0  0  0  0  0  0  0  0
    2.3600    1.0727   -0.0000 C   0  0  0  0  0  0  0  0  0  0  0  0
    0.2622    2.6103   -0.0000 C   0  0  0  0  0  0  0  0  0  0  0  0
    3.2539    2.2885   -0.0000 C   0  0  0  0  0  0  0  0  0  0  0  0
    2.9560   -0.2980   -0.0000 C   0  0  0  0  0  0  0  0  0  0  0  0
    1.1442    3.8380   -0.0000 C   0  0  0  0  0  0  0  0  0  0  0  0
    2.6461    3.6830   -0.0000 C   0  0  0  0  0  0  0  0  0  0  0  0
    4.4459   -0.4529   -0.0000 N   0  0  0  0  0  0  0  0  0  0  0  0
    5.4471    0.6675   -0.0000 C   0  0  0  0  0  0  0  0  0  0  0  0
    5.1849   -1.7521   -0.0000 C   0  0  0  0  0  0  0  0  0  0  0  0
    5.1372    2.1574   -0.0000 O   0  0  0  0  0  0  0  0  0  0  0  0
    6.8059    0.0596   -0.0000 N   0  0  0  0  0  0  0  0  0  0  0  0
    6.6390   -1.4303   -0.0000 C   0  0  0  0  0  0  0  0  0  0  0  0
    4.7081   -3.1586   -0.0000 C   0  0  0  0  0  0  0  0  0  0  0  0
    8.1051    0.8105   -0.0000 C   0  0  0  0  0  0  0  0  0  0  0  0
    7.6283   -2.5269   -0.0000 C   0  0  0  0  0  0  0  0  0  0  0  0
    5.6974   -4.2671   -0.0000 C   0  0  0  0  0  0  0  0  0  0  0  0
    8.1051    2.3242   -0.0000 C   0  0  0  0  0  0  0  0  0  0  0  0
    9.3923    0.0596   -0.0000 C   0  0  0  0  0  0  0  0  0  0  0  0
    7.1515   -3.9333   -0.0000 C   0  0  0  0  0  0  0  0  0  0  0  0
    9.3923    3.0752   -0.0000 C   0  0  0  0  0  0  0  0  0  0  0  0
   10.6915    0.8105   -0.0000 C   0  0  0  0  0  0  0  0  0  0  0  0
   10.6915    2.3242   -0.0000 N   0  0  0  0  0  0  0  0  0  0  0  0
   11.9907    3.0871   -0.0000 C   0  0  0  0  0  0  0  0  0  0  0  0
   11.9907    4.6008   -0.0000 O   0  0  0  0  0  0  0  0  0  0  0  0
   13.2780    2.3362   -0.0000 C   0  0  0  0  0  0  0  0  0  0  0  0
   14.5772    3.0990   -0.0000 C   0  0  0  0  0  0  0  0  0  0  0  0
   13.2661    0.8343   -0.0000 C   0  0  0  0  0  0  0  0  0  0  0  0
   15.8645    2.3600   -0.0000 C   0  0  0  0  0  0  0  0  0  0  0  0
   14.5533    0.0834   -0.0000 C   0  0  0  0  0  0  0  0  0  0  0  0
   15.8406    0.8582   -0.0000 N   0  0  0  0  0  0  0  0  0  0  0  0
   17.1279    0.1192   -0.0000 C   0  0  0  0  0  0  0  0  0  0  0  0
   18.4152    0.8820   -0.0000 C   0  0  0  0  0  0  0  0  0  0  0  0
   18.4032    2.4077   -0.0000 C   0  0  0  0  0  0  0  0  0  0  0  0
   19.7024    0.1430   -0.0000 C   0  0  0  0  0  0  0  0  0  0  0  0
   19.6905    3.1705   -0.0000 C   0  0  0  0  0  0  0  0  0  0  0  0
   21.0016    0.9059   -0.0000 C   0  0  0  0  0  0  0  0  0  0  0  0
   20.9897    2.4315   -0.0000 N   0  0  0  0  0  0  0  0  0  0  0  0
  1  2  1  0  0  0  0
  2  3  2  0  0  0  0
  2  4  1  0  0  0  0
  3  5  1  0  0  0  0
  3  6  1  0  0  0  0
  4  7  2  0  0  0  0
  5  8  2  0  0  0  0
  6  9  1  0  0  0  0
  9 10  1  0  0  0  0
  9 11  1  0  0  0  0
 10 12  2  0  0  0  0
 10 13  1  0  0  0  0
 11 14  2  0  0  0  0
 11 15  1  0  0  0  0
 13 16  1  0  0  0  0
 14 17  1  0  0  0  0
 15 18  2  0  0  0  0
 16 19  1  0  0  0  0
 16 20  1  0  0  0  0
 17 21  2  0  0  0  0
 19 22  1  0  0  0  0
 20 23  1  0  0  0  0
 22 24  1  0  0  0  0
 24 25  1  0  0  0  0
 25 26  2  0  0  0  0
 25 27  1  0  0  0  0
 27 28  1  0  0  0  0
 27 29  1  0  0  0  0
 28 30  1  0  0  0  0
 29 31  1  0  0  0  0
 30 32  1  0  0  0  0
 32 33  1  0  0  0  0
 33 34  1  0  0  0  0
 34 35  2  0  0  0  0
 34 36  1  0  0  0  0
 35 37  1  0  0  0  0
 36 38  2  0  0  0  0
 37 39  2  0  0  0  0
  7  8  1  0  0  0  0
 13 14  1  0  0  0  0
 18 21  1  0  0  0  0
 23 24  1  0  0  0  0
 31 32  1  0  0  0  0
 38 39  1  0  0  0  0
M  END
>  <MolRegNo>
689380

>  <m>
=

>  <Value>
500

>  <Unit>
nM

>  <Type>
IC50

>  <pValue>
6.3

>  <Ligand Efficiency>
0

>  <Binding Efficiency>
0

>  <Surface Efficiency>
0

>  <Assay Index>
497180

>  <Assay Category>


>  <Assay Organism>
Homo sapiens

>  <Target ID>
17045

>  <Target Name>
Cytochrome P450 3A4

>  <Target Organism>
Homo sapiens

>  <Target Description>
Target is a single protein chain

>  <Sequence Accession>
P08684

>  <Reference>
Bioorg Med Chem Lett 20 (17), 5004-5008 (2010)

>  <Pubmed ID>
20685118

>  <DOI>
10.1016/j.bmcl.2010.07.052

$$$$
689379
Actelion Java MolfileCreator 1.0

 38 43  0  0  0  0  0  0  0  0999 V2000
    0.0000   -0.0000   -0.0000 O   0  0  0  0  0  0  0  0  0  0  0  0
    0.2859   -1.4653   -0.0000 C   0  0  0  0  0  0  0  0  0  0  0  0
    1.6440   -2.0729   -0.0000 N   0  0  0  0  0  0  0  0  0  0  0  0
   -0.7386   -2.5614   -0.0000 N   0  0  0  0  0  0  0  0  0  0  0  0
    1.4534   -3.5502   -0.0000 C   0  0  0  0  0  0  0  0  0  0  0  0
    2.9426   -1.3224   -0.0000 C   0  0  0  0  0  0  0  0  0  0  0  0
    0.0000   -3.8599   -0.0000 C   0  0  0  0  0  0  0  0  0  0  0  0
   -2.2516   -2.3827   -0.0000 C   0  0  0  0  0  0  0  0  0  0  0  0
    2.4422   -4.6462   -0.0000 C   0  0  0  0  0  0  0  0  0  0  0  0
    2.9426    0.1906   -0.0000 C   0  0  0  0  0  0  0  0  0  0  0  0
    4.2292   -2.0729   -0.0000 C   0  0  0  0  0  0  0  0  0  0  0  0
   -0.4765   -5.2657   -0.0000 C   0  0  0  0  0  0  0  0  0  0  0  0
   -2.8711   -0.9888   -0.0000 C   0  0  0  0  0  0  0  0  0  0  0  0
    1.9657   -6.0519   -0.0000 C   0  0  0  0  0  0  0  0  0  0  0  0
    4.2292    0.9411   -0.0000 C   0  0  0  0  0  0  0  0  0  0  0  0
    5.5278   -1.3224   -0.0000 C   0  0  0  0  0  0  0  0  0  0  0  0
    0.5123   -6.3736   -0.0000 C   0  0  0  0  0  0  0  0  0  0  0  0
   -1.9776    0.2264   -0.0000 C   0  0  0  0  0  0  0  0  0  0  0  0
   -4.3722   -0.8101   -0.0000 C   0  0  0  0  0  0  0  0  0  0  0  0
    5.5278    0.1906   -0.0000 N   0  0  0  0  0  0  0  0  0  0  0  0
   -2.5852    1.6202   -0.0000 C   0  0  0  0  0  0  0  0  0  0  0  0
   -4.9917    0.5718   -0.0000 C   0  0  0  0  0  0  0  0  0  0  0  0
    6.8263    0.9531   -0.0000 C   0  0  0  0  0  0  0  0  0  0  0  0
   -4.0982    1.7989   -0.0000 C   0  0  0  0  0  0  0  0  0  0  0  0
    6.8263    2.4660   -0.0000 O   0  0  0  0  0  0  0  0  0  0  0  0
    8.1129    0.2025   -0.0000 C   0  0  0  0  0  0  0  0  0  0  0  0
    9.4115    0.9650   -0.0000 C   0  0  0  0  0  0  0  0  0  0  0  0
    8.1010   -1.2866   -0.0000 C   0  0  0  0  0  0  0  0  0  0  0  0
   10.6981    0.2264   -0.0000 C   0  0  0  0  0  0  0  0  0  0  0  0
    9.3877   -2.0372   -0.0000 C   0  0  0  0  0  0  0  0  0  0  0  0
   10.6743   -1.2747   -0.0000 N   0  0  0  0  0  0  0  0  0  0  0  0
   11.9609   -2.0133   -0.0000 C   0  0  0  0  0  0  0  0  0  0  0  0
   13.2476   -1.2509   -0.0000 C   0  0  0  0  0  0  0  0  0  0  0  0
   13.2356    0.2740   -0.0000 C   0  0  0  0  0  0  0  0  0  0  0  0
   14.5342   -1.9895   -0.0000 C   0  0  0  0  0  0  0  0  0  0  0  0
   14.5223    1.0365   -0.0000 C   0  0  0  0  0  0  0  0  0  0  0  0
   15.8327   -1.2271   -0.0000 C   0  0  0  0  0  0  0  0  0  0  0  0
   15.8208    0.2978   -0.0000 N   0  0  0  0  0  0  0  0  0  0  0  0
  1  2  2  0  0  0  0
  2  3  1  0  0  0  0
  2  4  1  0  0  0  0
  3  5  1  0  0  0  0
  3  6  1  0  0  0  0
  4  7  1  0  0  0  0
  4  8  1  0  0  0  0
  5  9  1  0  0  0  0
  6 10  1  0  0  0  0
  6 11  1  0  0  0  0
  7 12  1  0  0  0  0
  8 13  1  0  0  0  0
  9 14  2  0  0  0  0
 10 15  1  0  0  0  0
 11 16  1  0  0  0  0
 12 17  2  0  0  0  0
 13 18  2  0  0  0  0
 13 19  1  0  0  0  0
 15 20  1  0  0  0  0
 18 21  1  0  0  0  0
 19 22  2  0  0  0  0
 20 23  1  0  0  0  0
 21 24  2  0  0  0  0
 23 25  2  0  0  0  0
 23 26  1  0  0  0  0
 26 27  1  0  0  0  0
 26 28  1  0  0  0  0
 27 29  1  0  0  0  0
 28 30  1  0  0  0  0
 29 31  1  0  0  0  0
 31 32  1  0  0  0  0
 32 33  1  0  0  0  0
 33 34  2  0  0  0  0
 33 35  1  0  0  0  0
 34 36  1  0  0  0  0
 35 37  2  0  0  0  0
 36 38  2  0  0  0  0
  5  7  2  0  0  0  0
 14 17  1  0  0  0  0
 16 20  1  0  0  0  0
 22 24  1  0  0  0  0
 30 31  1  0  0  0  0
 37 38  1  0  0  0  0
M  END
>  <MolRegNo>
689379

>  <m>
=

>  <Value>
400

>  <Unit>
nM

>  <Type>
IC50

>  <pValue>
6.4

>  <Ligand Efficiency>
0

>  <Binding Efficiency>
0

>  <Surface Efficiency>
0

>  <Assay Index>
497180

>  <Assay Category>


>  <Assay Organism>
Homo sapiens

>  <Target ID>
17045

>  <Target Name>
Cytochrome P450 3A4

>  <Target Organism>
Homo sapiens

>  <Target Description>
Target is a single protein chain

>  <Sequence Accession>
P08684

>  <Reference>
Bioorg Med Chem Lett 20 (17), 5004-5008 (2010)

>  <Pubmed ID>
20685118

>  <DOI>
10.1016/j.bmcl.2010.07.052

$$$$
689305
Actelion Java MolfileCreator 1.0

 39 44  0  0  0  0  0  0  0  0999 V2000
    0.0000   -0.0000   -0.0000 O   0  0  0  0  0  0  0  0  0  0  0  0
    0.2859   -1.4651   -0.0000 C   0  0  0  0  0  0  0  0  0  0  0  0
    1.6437   -2.0725   -0.0000 N   0  0  0  0  0  0  0  0  0  0  0  0
   -0.7385   -2.5609   -0.0000 N   0  0  0  0  0  0  0  0  0  0  0  0
    1.4532   -3.5495   -0.0000 C   0  0  0  0  0  0  0  0  0  0  0  0
    2.9420   -1.3221   -0.0000 C   0  0  0  0  0  0  0  0  0  0  0  0
    0.0000   -3.8592   -0.0000 C   0  0  0  0  0  0  0  0  0  0  0  0
   -2.2512   -2.3822   -0.0000 C   0  0  0  0  0  0  0  0  0  0  0  0
    2.4418   -4.6453   -0.0000 C   0  0  0  0  0  0  0  0  0  0  0  0
    2.9420    0.1906   -0.0000 C   0  0  0  0  0  0  0  0  0  0  0  0
    4.2284   -2.0725   -0.0000 C   0  0  0  0  0  0  0  0  0  0  0  0
   -0.4764   -5.2647   -0.0000 C   0  0  0  0  0  0  0  0  0  0  0  0
   -2.8706   -0.9886   -0.0000 C   0  0  0  0  0  0  0  0  0  0  0  0
    1.9653   -6.0508   -0.0000 C   0  0  0  0  0  0  0  0  0  0  0  0
    4.2284    0.9410   -0.0000 C   0  0  0  0  0  0  0  0  0  0  0  0
    5.5268   -1.3221   -0.0000 C   0  0  0  0  0  0  0  0  0  0  0  0
    0.5122   -6.3724   -0.0000 C   0  0  0  0  0  0  0  0  0  0  0  0
   -4.3833   -0.8100   -0.0000 N   0  0  0  0  0  0  0  0  0  0  0  0
    5.5268    0.1906   -0.0000 N   0  0  0  0  0  0  0  0  0  0  0  0
   -4.9908    0.5836   -0.0000 C   0  0  0  0  0  0  0  0  0  0  0  0
   -5.2766   -2.0130   -0.0000 C   0  0  0  0  0  0  0  0  0  0  0  0
    6.8251    0.9529   -0.0000 C   0  0  0  0  0  0  0  0  0  0  0  0
   -6.4916    0.7623   -0.0000 C   0  0  0  0  0  0  0  0  0  0  0  0
   -6.7893   -1.8224   -0.0000 C   0  0  0  0  0  0  0  0  0  0  0  0
    6.8251    2.4656   -0.0000 O   0  0  0  0  0  0  0  0  0  0  0  0
    8.1115    0.2025   -0.0000 C   0  0  0  0  0  0  0  0  0  0  0  0
   -7.4087   -0.4288   -0.0000 O   0  0  0  0  0  0  0  0  0  0  0  0
    9.4098    0.9648   -0.0000 C   0  0  0  0  0  0  0  0  0  0  0  0
    8.0996   -1.2864   -0.0000 C   0  0  0  0  0  0  0  0  0  0  0  0
   10.6962    0.2263   -0.0000 C   0  0  0  0  0  0  0  0  0  0  0  0
    9.3860   -2.0368   -0.0000 C   0  0  0  0  0  0  0  0  0  0  0  0
   10.6724   -1.2745   -0.0000 N   0  0  0  0  0  0  0  0  0  0  0  0
   11.9588   -2.0130   -0.0000 C   0  0  0  0  0  0  0  0  0  0  0  0
   13.2452   -1.2507   -0.0000 C   0  0  0  0  0  0  0  0  0  0  0  0
   13.2333    0.2740   -0.0000 C   0  0  0  0  0  0  0  0  0  0  0  0
   14.5316   -1.9892   -0.0000 C   0  0  0  0  0  0  0  0  0  0  0  0
   14.5197    1.0363   -0.0000 C   0  0  0  0  0  0  0  0  0  0  0  0
   15.8299   -1.2268   -0.0000 C   0  0  0  0  0  0  0  0  0  0  0  0
   15.8180    0.2978   -0.0000 N   0  0  0  0  0  0  0  0  0  0  0  0
  1  2  2  0  0  0  0
  2  3  1  0  0  0  0
  2  4  1  0  0  0  0
  3  5  1  0  0  0  0
  3  6  1  0  0  0  0
  4  7  1  0  0  0  0
  4  8  1  0  0  0  0
  5  9  1  0  0  0  0
  6 10  1  0  0  0  0
  6 11  1  0  0  0  0
  7 12  1  0  0  0  0
  8 13  1  0  0  0  0
  9 14  2  0  0  0  0
 10 15  1  0  0  0  0
 11 16  1  0  0  0  0
 12 17  2  0  0  0  0
 13 18  1  0  0  0  0
 15 19  1  0  0  0  0
 18 20  1  0  0  0  0
 18 21  1  0  0  0  0
 19 22  1  0  0  0  0
 20 23  1  0  0  0  0
 21 24  1  0  0  0  0
 22 25  2  0  0  0  0
 22 26  1  0  0  0  0
 23 27  1  0  0  0  0
 26 28  1  0  0  0  0
 26 29  1  0  0  0  0
 28 30  1  0  0  0  0
 29 31  1  0  0  0  0
 30 32  1  0  0  0  0
 32 33  1  0  0  0  0
 33 34  1  0  0  0  0
 34 35  2  0  0  0  0
 34 36  1  0  0  0  0
 35 37  1  0  0  0  0
 36 38  2  0  0  0  0
 37 39  2  0  0  0  0
  5  7  2  0  0  0  0
 14 17  1  0  0  0  0
 16 19  1  0  0  0  0
 24 27  1  0  0  0  0
 31 32  1  0  0  0  0
 38 39  1  0  0  0  0
M  END
>  <MolRegNo>
689305

>  <m>
=

>  <Value>
30000

>  <Unit>
nM

>  <Type>
IC50

>  <pValue>
4.52

>  <Ligand Efficiency>
0

>  <Binding Efficiency>
0

>  <Surface Efficiency>
0

>  <Assay Index>
497180

>  <Assay Category>


>  <Assay Organism>
Homo sapiens

>  <Target ID>
17045

>  <Target Name>
Cytochrome P450 3A4

>  <Target Organism>
Homo sapiens

>  <Target Description>
Target is a single protein chain

>  <Sequence Accession>
P08684

>  <Reference>
Bioorg Med Chem Lett 20 (17), 5004-5008 (2010)

>  <Pubmed ID>
20685118

>  <DOI>
10.1016/j.bmcl.2010.07.052

$$$$
689304
Actelion Java MolfileCreator 1.0

 39 44  0  0  0  0  0  0  0  0999 V2000
    0.0000   -0.0000   -0.0000 O   0  0  0  0  0  0  0  0  0  0  0  0
    0.2859   -1.4651   -0.0000 C   0  0  0  0  0  0  0  0  0  0  0  0
    1.6438   -2.0726   -0.0000 N   0  0  0  0  0  0  0  0  0  0  0  0
   -0.7385   -2.5609   -0.0000 N   0  0  0  0  0  0  0  0  0  0  0  0
    1.4532   -3.5496   -0.0000 C   0  0  0  0  0  0  0  0  0  0  0  0
    2.9421   -1.3222   -0.0000 C   0  0  0  0  0  0  0  0  0  0  0  0
    0.0000   -3.8593   -0.0000 C   0  0  0  0  0  0  0  0  0  0  0  0
   -2.2513   -2.3823   -0.0000 C   0  0  0  0  0  0  0  0  0  0  0  0
    2.4418   -4.6454   -0.0000 C   0  0  0  0  0  0  0  0  0  0  0  0
    2.9421    0.1906   -0.0000 C   0  0  0  0  0  0  0  0  0  0  0  0
    4.2285   -2.0726   -0.0000 C   0  0  0  0  0  0  0  0  0  0  0  0
   -0.4765   -5.2648   -0.0000 C   0  0  0  0  0  0  0  0  0  0  0  0
   -2.8706   -0.9886   -0.0000 C   0  0  0  0  0  0  0  0  0  0  0  0
    1.9654   -6.0510   -0.0000 C   0  0  0  0  0  0  0  0  0  0  0  0
    4.2285    0.9410   -0.0000 C   0  0  0  0  0  0  0  0  0  0  0  0
    5.5269   -1.3222   -0.0000 C   0  0  0  0  0  0  0  0  0  0  0  0
    0.5122   -6.3726   -0.0000 C   0  0  0  0  0  0  0  0  0  0  0  0
   -4.3834   -0.8100   -0.0000 N   0  0  0  0  0  0  0  0  0  0  0  0
    5.5269    0.1906   -0.0000 N   0  0  0  0  0  0  0  0  0  0  0  0
   -4.9909    0.5717   -0.0000 C   0  0  0  0  0  0  0  0  0  0  0  0
   -5.2887   -2.0130   -0.0000 C   0  0  0  0  0  0  0  0  0  0  0  0
    6.8252    0.9529   -0.0000 C   0  0  0  0  0  0  0  0  0  0  0  0
   -6.4917    0.7504   -0.0000 C   0  0  0  0  0  0  0  0  0  0  0  0
   -6.8014   -1.8224   -0.0000 C   0  0  0  0  0  0  0  0  0  0  0  0
    6.8252    2.4657   -0.0000 O   0  0  0  0  0  0  0  0  0  0  0  0
    8.1117    0.2025   -0.0000 C   0  0  0  0  0  0  0  0  0  0  0  0
   -7.4089   -0.4407   -0.0000 C   0  0  0  0  0  0  0  0  0  0  0  0
    9.4100    0.9648   -0.0000 C   0  0  0  0  0  0  0  0  0  0  0  0
    8.0997   -1.2983   -0.0000 C   0  0  0  0  0  0  0  0  0  0  0  0
   10.6964    0.2263   -0.0000 C   0  0  0  0  0  0  0  0  0  0  0  0
    9.3862   -2.0488   -0.0000 C   0  0  0  0  0  0  0  0  0  0  0  0
   10.6726   -1.2745   -0.0000 N   0  0  0  0  0  0  0  0  0  0  0  0
   11.9590   -2.0130   -0.0000 C   0  0  0  0  0  0  0  0  0  0  0  0
   13.2455   -1.2507   -0.0000 C   0  0  0  0  0  0  0  0  0  0  0  0
   13.2335    0.2740   -0.0000 C   0  0  0  0  0  0  0  0  0  0  0  0
   14.5319   -1.9892   -0.0000 C   0  0  0  0  0  0  0  0  0  0  0  0
   14.5200    1.0363   -0.0000 C   0  0  0  0  0  0  0  0  0  0  0  0
   15.8302   -1.2269   -0.0000 C   0  0  0  0  0  0  0  0  0  0  0  0
   15.8183    0.2978   -0.0000 N   0  0  0  0  0  0  0  0  0  0  0  0
  1  2  2  0  0  0  0
  2  3  1  0  0  0  0
  2  4  1  0  0  0  0
  3  5  1  0  0  0  0
  3  6  1  0  0  0  0
  4  7  1  0  0  0  0
  4  8  1  0  0  0  0
  5  9  1  0  0  0  0
  6 10  1  0  0  0  0
  6 11  1  0  0  0  0
  7 12  1  0  0  0  0
  8 13  1  0  0  0  0
  9 14  2  0  0  0  0
 10 15  1  0  0  0  0
 11 16  1  0  0  0  0
 12 17  2  0  0  0  0
 13 18  1  0  0  0  0
 15 19  1  0  0  0  0
 18 20  1  0  0  0  0
 18 21  1  0  0  0  0
 19 22  1  0  0  0  0
 20 23  1  0  0  0  0
 21 24  1  0  0  0  0
 22 25  2  0  0  0  0
 22 26  1  0  0  0  0
 23 27  1  0  0  0  0
 26 28  1  0  0  0  0
 26 29  1  0  0  0  0
 28 30  1  0  0  0  0
 29 31  1  0  0  0  0
 30 32  1  0  0  0  0
 32 33  1  0  0  0  0
 33 34  1  0  0  0  0
 34 35  2  0  0  0  0
 34 36  1  0  0  0  0
 35 37  1  0  0  0  0
 36 38  2  0  0  0  0
 37 39  2  0  0  0  0
  5  7  2  0  0  0  0
 14 17  1  0  0  0  0
 16 19  1  0  0  0  0
 24 27  1  0  0  0  0
 31 32  1  0  0  0  0
 38 39  1  0  0  0  0
M  END
>  <MolRegNo>
689304

>  <m>
=

>  <Value>
30000

>  <Unit>
nM

>  <Type>
IC50

>  <pValue>
4.52

>  <Ligand Efficiency>
0

>  <Binding Efficiency>
0

>  <Surface Efficiency>
0

>  <Assay Index>
497180

>  <Assay Category>


>  <Assay Organism>
Homo sapiens

>  <Target ID>
17045

>  <Target Name>
Cytochrome P450 3A4

>  <Target Organism>
Homo sapiens

>  <Target Description>
Target is a single protein chain

>  <Sequence Accession>
P08684

>  <Reference>
Bioorg Med Chem Lett 20 (17), 5004-5008 (2010)

>  <Pubmed ID>
20685118

>  <DOI>
10.1016/j.bmcl.2010.07.052

$$$$
689239
Actelion Java MolfileCreator 1.0

 37 41  0  0  0  0  0  0  0  0999 V2000
    0.0000   -0.0000   -0.0000 O   0  0  0  0  0  0  0  0  0  0  0  0
    0.2858   -1.4649   -0.0000 C   0  0  0  0  0  0  0  0  0  0  0  0
    1.6435   -2.0723   -0.0000 N   0  0  0  0  0  0  0  0  0  0  0  0
   -0.7384   -2.5605   -0.0000 N   0  0  0  0  0  0  0  0  0  0  0  0
    1.4530   -3.5490   -0.0000 C   0  0  0  0  0  0  0  0  0  0  0  0
    2.9417   -1.3220   -0.0000 C   0  0  0  0  0  0  0  0  0  0  0  0
    0.0000   -3.8587   -0.0000 C   0  0  0  0  0  0  0  0  0  0  0  0
   -2.2509   -2.3819   -0.0000 C   0  0  0  0  0  0  0  0  0  0  0  0
    2.4415   -4.6447   -0.0000 C   0  0  0  0  0  0  0  0  0  0  0  0
    2.9417    0.1906   -0.0000 C   0  0  0  0  0  0  0  0  0  0  0  0
    4.2279   -2.0723   -0.0000 C   0  0  0  0  0  0  0  0  0  0  0  0
   -0.4764   -5.2640   -0.0000 C   0  0  0  0  0  0  0  0  0  0  0  0
   -2.8702   -0.9885   -0.0000 C   0  0  0  0  0  0  0  0  0  0  0  0
    1.9651   -6.0500   -0.0000 C   0  0  0  0  0  0  0  0  0  0  0  0
    4.2279    0.9409   -0.0000 C   0  0  0  0  0  0  0  0  0  0  0  0
    5.5260   -1.3220   -0.0000 C   0  0  0  0  0  0  0  0  0  0  0  0
    0.5121   -6.3716   -0.0000 C   0  0  0  0  0  0  0  0  0  0  0  0
   -4.3827   -0.8098   -0.0000 C   0  0  0  0  0  0  0  0  0  0  0  0
    5.5260    0.1906   -0.0000 N   0  0  0  0  0  0  0  0  0  0  0  0
   -5.0020    0.5836   -0.0000 O   0  0  0  0  0  0  0  0  0  0  0  0
    6.8242    0.9528   -0.0000 C   0  0  0  0  0  0  0  0  0  0  0  0
   -6.5145    0.7622   -0.0000 C   0  0  0  0  0  0  0  0  0  0  0  0
    6.8242    2.4653   -0.0000 O   0  0  0  0  0  0  0  0  0  0  0  0
    8.1104    0.2025   -0.0000 C   0  0  0  0  0  0  0  0  0  0  0  0
   -7.1338    2.1556   -0.0000 C   0  0  0  0  0  0  0  0  0  0  0  0
    9.4085    0.9647   -0.0000 C   0  0  0  0  0  0  0  0  0  0  0  0
    8.0985   -1.2981   -0.0000 C   0  0  0  0  0  0  0  0  0  0  0  0
   10.6948    0.2263   -0.0000 C   0  0  0  0  0  0  0  0  0  0  0  0
    9.3847   -2.0484   -0.0000 C   0  0  0  0  0  0  0  0  0  0  0  0
   10.6709   -1.2743   -0.0000 N   0  0  0  0  0  0  0  0  0  0  0  0
   11.9572   -2.0127   -0.0000 C   0  0  0  0  0  0  0  0  0  0  0  0
   13.2434   -1.2505   -0.0000 C   0  0  0  0  0  0  0  0  0  0  0  0
   13.2315    0.2739   -0.0000 C   0  0  0  0  0  0  0  0  0  0  0  0
   14.5296   -1.9889   -0.0000 C   0  0  0  0  0  0  0  0  0  0  0  0
   14.5177    1.0361   -0.0000 C   0  0  0  0  0  0  0  0  0  0  0  0
   15.8278   -1.2267   -0.0000 C   0  0  0  0  0  0  0  0  0  0  0  0
   15.8158    0.2977   -0.0000 N   0  0  0  0  0  0  0  0  0  0  0  0
  1  2  2  0  0  0  0
  2  3  1  0  0  0  0
  2  4  1  0  0  0  0
  3  5  1  0  0  0  0
  3  6  1  0  0  0  0
  4  7  1  0  0  0  0
  4  8  1  0  0  0  0
  5  9  1  0  0  0  0
  6 10  1  0  0  0  0
  6 11  1  0  0  0  0
  7 12  1  0  0  0  0
  8 13  1  0  0  0  0
  9 14  2  0  0  0  0
 10 15  1  0  0  0  0
 11 16  1  0  0  0  0
 12 17  2  0  0  0  0
 13 18  1  0  0  0  0
 15 19  1  0  0  0  0
 18 20  1  0  0  0  0
 19 21  1  0  0  0  0
 20 22  1  0  0  0  0
 21 23  2  0  0  0  0
 21 24  1  0  0  0  0
 22 25  1  0  0  0  0
 24 26  1  0  0  0  0
 24 27  1  0  0  0  0
 26 28  1  0  0  0  0
 27 29  1  0  0  0  0
 28 30  1  0  0  0  0
 30 31  1  0  0  0  0
 31 32  1  0  0  0  0
 32 33  2  0  0  0  0
 32 34  1  0  0  0  0
 33 35  1  0  0  0  0
 34 36  2  0  0  0  0
 35 37  2  0  0  0  0
  5  7  2  0  0  0  0
 14 17  1  0  0  0  0
 16 19  1  0  0  0  0
 29 30  1  0  0  0  0
 36 37  1  0  0  0  0
M  END
>  <MolRegNo>
689239

>  <m>
=

>  <Value>
10600

>  <Unit>
nM

>  <Type>
IC50

>  <pValue>
4.97

>  <Ligand Efficiency>
0

>  <Binding Efficiency>
0

>  <Surface Efficiency>
0

>  <Assay Index>
497180

>  <Assay Category>


>  <Assay Organism>
Homo sapiens

>  <Target ID>
17045

>  <Target Name>
Cytochrome P450 3A4

>  <Target Organism>
Homo sapiens

>  <Target Description>
Target is a single protein chain

>  <Sequence Accession>
P08684

>  <Reference>
Bioorg Med Chem Lett 20 (17), 5004-5008 (2010)

>  <Pubmed ID>
20685118

>  <DOI>
10.1016/j.bmcl.2010.07.052

$$$$
689238
Actelion Java MolfileCreator 1.0

 40 45  0  0  0  0  0  0  0  0999 V2000
    0.0000   -0.0000   -0.0000 O   0  0  0  0  0  0  0  0  0  0  0  0
    0.2856   -1.4638   -0.0000 C   0  0  0  0  0  0  0  0  0  0  0  0
    1.6423   -2.0707   -0.0000 N   0  0  0  0  0  0  0  0  0  0  0  0
   -0.7378   -2.5586   -0.0000 N   0  0  0  0  0  0  0  0  0  0  0  0
    1.4519   -3.5464   -0.0000 C   0  0  0  0  0  0  0  0  0  0  0  0
    2.9394   -1.3210   -0.0000 C   0  0  0  0  0  0  0  0  0  0  0  0
    0.0000   -3.8558   -0.0000 C   0  0  0  0  0  0  0  0  0  0  0  0
   -2.2492   -2.3801   -0.0000 C   0  0  0  0  0  0  0  0  0  0  0  0
    2.4396   -4.6412   -0.0000 C   0  0  0  0  0  0  0  0  0  0  0  0
    2.9394    0.1904   -0.0000 C   0  0  0  0  0  0  0  0  0  0  0  0
    4.2247   -2.0707   -0.0000 C   0  0  0  0  0  0  0  0  0  0  0  0
   -0.4760   -5.2600   -0.0000 C   0  0  0  0  0  0  0  0  0  0  0  0
   -2.8680   -0.9877   -0.0000 C   0  0  0  0  0  0  0  0  0  0  0  0
    1.9636   -6.0455   -0.0000 C   0  0  0  0  0  0  0  0  0  0  0  0
    4.2247    0.9401   -0.0000 C   0  0  0  0  0  0  0  0  0  0  0  0
    5.5219   -1.3210   -0.0000 C   0  0  0  0  0  0  0  0  0  0  0  0
    0.5117   -6.3668   -0.0000 C   0  0  0  0  0  0  0  0  0  0  0  0
   -4.3794   -0.8092   -0.0000 O   0  0  0  0  0  0  0  0  0  0  0  0
    5.5219    0.1904   -0.0000 N   0  0  0  0  0  0  0  0  0  0  0  0
   -4.9982    0.5831   -0.0000 C   0  0  0  0  0  0  0  0  0  0  0  0
    6.8190    0.9520   -0.0000 C   0  0  0  0  0  0  0  0  0  0  0  0
   -4.1176    1.8089   -0.0000 C   0  0  0  0  0  0  0  0  0  0  0  0
   -6.4977    0.7616   -0.0000 C   0  0  0  0  0  0  0  0  0  0  0  0
    6.8190    2.4634   -0.0000 O   0  0  0  0  0  0  0  0  0  0  0  0
    8.1043    0.2023   -0.0000 C   0  0  0  0  0  0  0  0  0  0  0  0
   -4.7245    3.2012   -0.0000 C   0  0  0  0  0  0  0  0  0  0  0  0
   -7.1165    2.1421   -0.0000 C   0  0  0  0  0  0  0  0  0  0  0  0
    9.4014    0.9639   -0.0000 C   0  0  0  0  0  0  0  0  0  0  0  0
    8.0924   -1.2972   -0.0000 C   0  0  0  0  0  0  0  0  0  0  0  0
   -6.2359    3.3798   -0.0000 C   0  0  0  0  0  0  0  0  0  0  0  0
   10.6867    0.2261   -0.0000 C   0  0  0  0  0  0  0  0  0  0  0  0
    9.3776   -2.0469   -0.0000 C   0  0  0  0  0  0  0  0  0  0  0  0
   10.6629   -1.2734   -0.0000 N   0  0  0  0  0  0  0  0  0  0  0  0
   11.9481   -2.0112   -0.0000 C   0  0  0  0  0  0  0  0  0  0  0  0
   13.2334   -1.2496   -0.0000 C   0  0  0  0  0  0  0  0  0  0  0  0
   13.2215    0.2737   -0.0000 C   0  0  0  0  0  0  0  0  0  0  0  0
   14.5187   -1.9874   -0.0000 C   0  0  0  0  0  0  0  0  0  0  0  0
   14.5068    1.0353   -0.0000 C   0  0  0  0  0  0  0  0  0  0  0  0
   15.8158   -1.2258   -0.0000 C   0  0  0  0  0  0  0  0  0  0  0  0
   15.8039    0.2975   -0.0000 N   0  0  0  0  0  0  0  0  0  0  0  0
  1  2  2  0  0  0  0
  2  3  1  0  0  0  0
  2  4  1  0  0  0  0
  3  5  1  0  0  0  0
  3  6  1  0  0  0  0
  4  7  1  0  0  0  0
  4  8  1  0  0  0  0
  5  9  1  0  0  0  0
  6 10  1  0  0  0  0
  6 11  1  0  0  0  0
  7 12  1  0  0  0  0
  8 13  1  0  0  0  0
  9 14  2  0  0  0  0
 10 15  1  0  0  0  0
 11 16  1  0  0  0  0
 12 17  2  0  0  0  0
 13 18  1  0  0  0  0
 15 19  1  0  0  0  0
 18 20  1  0  0  0  0
 19 21  1  0  0  0  0
 20 22  2  0  0  0  0
 20 23  1  0  0  0  0
 21 24  2  0  0  0  0
 21 25  1  0  0  0  0
 22 26  1  0  0  0  0
 23 27  2  0  0  0  0
 25 28  1  0  0  0  0
 25 29  1  0  0  0  0
 26 30  2  0  0  0  0
 28 31  1  0  0  0  0
 29 32  1  0  0  0  0
 31 33  1  0  0  0  0
 33 34  1  0  0  0  0
 34 35  1  0  0  0  0
 35 36  2  0  0  0  0
 35 37  1  0  0  0  0
 36 38  1  0  0  0  0
 37 39  2  0  0  0  0
 38 40  2  0  0  0  0
  5  7  2  0  0  0  0
 14 17  1  0  0  0  0
 16 19  1  0  0  0  0
 27 30  1  0  0  0  0
 32 33  1  0  0  0  0
 39 40  1  0  0  0  0
M  END
>  <MolRegNo>
689238

>  <m>
=

>  <Value>
9000

>  <Unit>
nM

>  <Type>
IC50

>  <pValue>
5.05

>  <Ligand Efficiency>
0

>  <Binding Efficiency>
0

>  <Surface Efficiency>
0

>  <Assay Index>
497180

>  <Assay Category>


>  <Assay Organism>
Homo sapiens

>  <Target ID>
17045

>  <Target Name>
Cytochrome P450 3A4

>  <Target Organism>
Homo sapiens

>  <Target Description>
Target is a single protein chain

>  <Sequence Accession>
P08684

>  <Reference>
Bioorg Med Chem Lett 20 (17), 5004-5008 (2010)

>  <Pubmed ID>
20685118

>  <DOI>
10.1016/j.bmcl.2010.07.052

$$$$
689158
Actelion Java MolfileCreator 1.0

 37 41  0  0  0  0  0  0  0  0999 V2000
    0.0000   -0.0000   -0.0000 O   0  0  0  0  0  0  0  0  0  0  0  0
    0.2859   -1.4652   -0.0000 C   0  0  0  0  0  0  0  0  0  0  0  0
    1.6439   -2.0727   -0.0000 N   0  0  0  0  0  0  0  0  0  0  0  0
   -0.7386   -2.5611   -0.0000 N   0  0  0  0  0  0  0  0  0  0  0  0
    1.4533   -3.5499   -0.0000 C   0  0  0  0  0  0  0  0  0  0  0  0
    2.9423   -1.3223   -0.0000 C   0  0  0  0  0  0  0  0  0  0  0  0
    0.0000   -3.8596   -0.0000 C   0  0  0  0  0  0  0  0  0  0  0  0
   -2.2514   -2.3825   -0.0000 C   0  0  0  0  0  0  0  0  0  0  0  0
    2.4420   -4.6458   -0.0000 C   0  0  0  0  0  0  0  0  0  0  0  0
    2.9423    0.1906   -0.0000 C   0  0  0  0  0  0  0  0  0  0  0  0
    4.2289   -2.0727   -0.0000 C   0  0  0  0  0  0  0  0  0  0  0  0
   -0.4765   -5.2652   -0.0000 C   0  0  0  0  0  0  0  0  0  0  0  0
   -2.8709   -0.9887   -0.0000 C   0  0  0  0  0  0  0  0  0  0  0  0
    1.9655   -6.0515   -0.0000 C   0  0  0  0  0  0  0  0  0  0  0  0
    4.2289    0.9411   -0.0000 C   0  0  0  0  0  0  0  0  0  0  0  0
    5.5273   -1.3223   -0.0000 C   0  0  0  0  0  0  0  0  0  0  0  0
    0.5122   -6.3731   -0.0000 C   0  0  0  0  0  0  0  0  0  0  0  0
   -4.3837   -0.8100   -0.0000 O   0  0  0  0  0  0  0  0  0  0  0  0
    5.5273    0.1906   -0.0000 N   0  0  0  0  0  0  0  0  0  0  0  0
   -5.0032    0.5837   -0.0000 C   0  0  0  0  0  0  0  0  0  0  0  0
    6.8258    0.9530   -0.0000 C   0  0  0  0  0  0  0  0  0  0  0  0
   -6.5160    0.7624   -0.0000 C   0  0  0  0  0  0  0  0  0  0  0  0
   -4.1217    1.8107   -0.0000 C   0  0  0  0  0  0  0  0  0  0  0  0
    6.8258    2.4658   -0.0000 O   0  0  0  0  0  0  0  0  0  0  0  0
    8.1123    0.2025   -0.0000 C   0  0  0  0  0  0  0  0  0  0  0  0
    9.4107    0.9649   -0.0000 C   0  0  0  0  0  0  0  0  0  0  0  0
    8.1004   -1.2984   -0.0000 C   0  0  0  0  0  0  0  0  0  0  0  0
   10.6973    0.2263   -0.0000 C   0  0  0  0  0  0  0  0  0  0  0  0
    9.3869   -2.0489   -0.0000 C   0  0  0  0  0  0  0  0  0  0  0  0
   10.6734   -1.2746   -0.0000 N   0  0  0  0  0  0  0  0  0  0  0  0
   11.9600   -2.0132   -0.0000 C   0  0  0  0  0  0  0  0  0  0  0  0
   13.2465   -1.2508   -0.0000 C   0  0  0  0  0  0  0  0  0  0  0  0
   13.2346    0.2740   -0.0000 C   0  0  0  0  0  0  0  0  0  0  0  0
   14.5330   -1.9894   -0.0000 C   0  0  0  0  0  0  0  0  0  0  0  0
   14.5211    1.0364   -0.0000 C   0  0  0  0  0  0  0  0  0  0  0  0
   15.8315   -1.2270   -0.0000 C   0  0  0  0  0  0  0  0  0  0  0  0
   15.8195    0.2978   -0.0000 N   0  0  0  0  0  0  0  0  0  0  0  0
  1  2  2  0  0  0  0
  2  3  1  0  0  0  0
  2  4  1  0  0  0  0
  3  5  1  0  0  0  0
  3  6  1  0  0  0  0
  4  7  1  0  0  0  0
  4  8  1  0  0  0  0
  5  9  1  0  0  0  0
  6 10  1  0  0  0  0
  6 11  1  0  0  0  0
  7 12  1  0  0  0  0
  8 13  1  0  0  0  0
  9 14  2  0  0  0  0
 10 15  1  0  0  0  0
 11 16  1  0  0  0  0
 12 17  2  0  0  0  0
 13 18  1  0  0  0  0
 15 19  1  0  0  0  0
 18 20  1  0  0  0  0
 19 21  1  0  0  0  0
 20 22  1  0  0  0  0
 20 23  1  0  0  0  0
 21 24  2  0  0  0  0
 21 25  1  0  0  0  0
 25 26  1  0  0  0  0
 25 27  1  0  0  0  0
 26 28  1  0  0  0  0
 27 29  1  0  0  0  0
 28 30  1  0  0  0  0
 30 31  1  0  0  0  0
 31 32  1  0  0  0  0
 32 33  2  0  0  0  0
 32 34  1  0  0  0  0
 33 35  1  0  0  0  0
 34 36  2  0  0  0  0
 35 37  2  0  0  0  0
  5  7  2  0  0  0  0
 14 17  1  0  0  0  0
 16 19  1  0  0  0  0
 29 30  1  0  0  0  0
 36 37  1  0  0  0  0
M  END
>  <MolRegNo>
689158

>  <m>
=

>  <Value>
6000

>  <Unit>
nM

>  <Type>
IC50

>  <pValue>
5.22

>  <Ligand Efficiency>
0

>  <Binding Efficiency>
0

>  <Surface Efficiency>
0

>  <Assay Index>
497180

>  <Assay Category>


>  <Assay Organism>
Homo sapiens

>  <Target ID>
17045

>  <Target Name>
Cytochrome P450 3A4

>  <Target Organism>
Homo sapiens

>  <Target Description>
Target is a single protein chain

>  <Sequence Accession>
P08684

>  <Reference>
Bioorg Med Chem Lett 20 (17), 5004-5008 (2010)

>  <Pubmed ID>
20685118

>  <DOI>
10.1016/j.bmcl.2010.07.052

$$$$
689157
Actelion Java MolfileCreator 1.0

 36 40  0  0  0  0  0  0  0  0999 V2000
    0.0000   -0.0000   -0.0000 O   0  0  0  0  0  0  0  0  0  0  0  0
    0.2859   -1.4655   -0.0000 C   0  0  0  0  0  0  0  0  0  0  0  0
    1.6442   -2.0731   -0.0000 N   0  0  0  0  0  0  0  0  0  0  0  0
   -0.7387   -2.5616   -0.0000 N   0  0  0  0  0  0  0  0  0  0  0  0
    1.4536   -3.5505   -0.0000 C   0  0  0  0  0  0  0  0  0  0  0  0
    2.9429   -1.3225   -0.0000 C   0  0  0  0  0  0  0  0  0  0  0  0
    0.0000   -3.8603   -0.0000 C   0  0  0  0  0  0  0  0  0  0  0  0
   -2.2518   -2.3829   -0.0000 C   0  0  0  0  0  0  0  0  0  0  0  0
    2.4425   -4.6466   -0.0000 C   0  0  0  0  0  0  0  0  0  0  0  0
    2.9429    0.1906   -0.0000 C   0  0  0  0  0  0  0  0  0  0  0  0
    4.2296   -2.0731   -0.0000 C   0  0  0  0  0  0  0  0  0  0  0  0
   -0.4766   -5.2662   -0.0000 C   0  0  0  0  0  0  0  0  0  0  0  0
   -2.8714   -0.9889   -0.0000 C   0  0  0  0  0  0  0  0  0  0  0  0
    1.9659   -6.0525   -0.0000 C   0  0  0  0  0  0  0  0  0  0  0  0
    4.2296    0.9412   -0.0000 C   0  0  0  0  0  0  0  0  0  0  0  0
    5.5283   -1.3225   -0.0000 C   0  0  0  0  0  0  0  0  0  0  0  0
    0.5123   -6.3742   -0.0000 C   0  0  0  0  0  0  0  0  0  0  0  0
   -4.3845   -0.8102   -0.0000 O   0  0  0  0  0  0  0  0  0  0  0  0
    5.5283    0.1906   -0.0000 N   0  0  0  0  0  0  0  0  0  0  0  0
   -5.0041    0.5838   -0.0000 C   0  0  0  0  0  0  0  0  0  0  0  0
    6.8270    0.9532   -0.0000 C   0  0  0  0  0  0  0  0  0  0  0  0
   -6.5172    0.7625   -0.0000 C   0  0  0  0  0  0  0  0  0  0  0  0
    6.8270    2.4663   -0.0000 O   0  0  0  0  0  0  0  0  0  0  0  0
    8.1137    0.2025   -0.0000 C   0  0  0  0  0  0  0  0  0  0  0  0
    9.4124    0.9651   -0.0000 C   0  0  0  0  0  0  0  0  0  0  0  0
    8.1018   -1.2987   -0.0000 C   0  0  0  0  0  0  0  0  0  0  0  0
   10.6992    0.2264   -0.0000 C   0  0  0  0  0  0  0  0  0  0  0  0
    9.3886   -2.0493   -0.0000 C   0  0  0  0  0  0  0  0  0  0  0  0
   10.6754   -1.2748   -0.0000 N   0  0  0  0  0  0  0  0  0  0  0  0
   11.9621   -2.0135   -0.0000 C   0  0  0  0  0  0  0  0  0  0  0  0
   13.2489   -1.2510   -0.0000 C   0  0  0  0  0  0  0  0  0  0  0  0
   13.2370    0.2740   -0.0000 C   0  0  0  0  0  0  0  0  0  0  0  0
   14.5356   -1.9897   -0.0000 C   0  0  0  0  0  0  0  0  0  0  0  0
   14.5237    1.0366   -0.0000 C   0  0  0  0  0  0  0  0  0  0  0  0
   15.8343   -1.2272   -0.0000 C   0  0  0  0  0  0  0  0  0  0  0  0
   15.8224    0.2979   -0.0000 N   0  0  0  0  0  0  0  0  0  0  0  0
  1  2  2  0  0  0  0
  2  3  1  0  0  0  0
  2  4  1  0  0  0  0
  3  5  1  0  0  0  0
  3  6  1  0  0  0  0
  4  7  1  0  0  0  0
  4  8  1  0  0  0  0
  5  9  1  0  0  0  0
  6 10  1  0  0  0  0
  6 11  1  0  0  0  0
  7 12  1  0  0  0  0
  8 13  1  0  0  0  0
  9 14  2  0  0  0  0
 10 15  1  0  0  0  0
 11 16  1  0  0  0  0
 12 17  2  0  0  0  0
 13 18  1  0  0  0  0
 15 19  1  0  0  0  0
 18 20  1  0  0  0  0
 19 21  1  0  0  0  0
 20 22  1  0  0  0  0
 21 23  2  0  0  0  0
 21 24  1  0  0  0  0
 24 25  1  0  0  0  0
 24 26  1  0  0  0  0
 25 27  1  0  0  0  0
 26 28  1  0  0  0  0
 27 29  1  0  0  0  0
 29 30  1  0  0  0  0
 30 31  1  0  0  0  0
 31 32  2  0  0  0  0
 31 33  1  0  0  0  0
 32 34  1  0  0  0  0
 33 35  2  0  0  0  0
 34 36  2  0  0  0  0
  5  7  2  0  0  0  0
 14 17  1  0  0  0  0
 16 19  1  0  0  0  0
 28 29  1  0  0  0  0
 35 36  1  0  0  0  0
M  END
>  <MolRegNo>
689157

>  <m>
=

>  <Value>
13500

>  <Unit>
nM

>  <Type>
IC50

>  <pValue>
4.87

>  <Ligand Efficiency>
0

>  <Binding Efficiency>
0

>  <Surface Efficiency>
0

>  <Assay Index>
497180

>  <Assay Category>


>  <Assay Organism>
Homo sapiens

>  <Target ID>
17045

>  <Target Name>
Cytochrome P450 3A4

>  <Target Organism>
Homo sapiens

>  <Target Description>
Target is a single protein chain

>  <Sequence Accession>
P08684

>  <Reference>
Bioorg Med Chem Lett 20 (17), 5004-5008 (2010)

>  <Pubmed ID>
20685118

>  <DOI>
10.1016/j.bmcl.2010.07.052

$$$$
689156
Actelion Java MolfileCreator 1.0

 35 39  0  0  0  0  0  0  0  0999 V2000
    0.0000   -0.0000   -0.0000 O   0  0  0  0  0  0  0  0  0  0  0  0
    0.2861   -1.4661   -0.0000 C   0  0  0  0  0  0  0  0  0  0  0  0
    1.6449   -2.0740   -0.0000 N   0  0  0  0  0  0  0  0  0  0  0  0
   -0.7390   -2.5626   -0.0000 N   0  0  0  0  0  0  0  0  0  0  0  0
    1.4542   -3.5519   -0.0000 C   0  0  0  0  0  0  0  0  0  0  0  0
    2.9441   -1.3230   -0.0000 C   0  0  0  0  0  0  0  0  0  0  0  0
    0.0000   -3.8618   -0.0000 C   0  0  0  0  0  0  0  0  0  0  0  0
   -2.2527   -2.3839   -0.0000 C   0  0  0  0  0  0  0  0  0  0  0  0
    2.4435   -4.6485   -0.0000 C   0  0  0  0  0  0  0  0  0  0  0  0
    2.9441    0.1907   -0.0000 C   0  0  0  0  0  0  0  0  0  0  0  0
    4.2313   -2.0740   -0.0000 C   0  0  0  0  0  0  0  0  0  0  0  0
   -0.4768   -5.2683   -0.0000 C   0  0  0  0  0  0  0  0  0  0  0  0
   -2.8725   -0.9893   -0.0000 C   0  0  0  0  0  0  0  0  0  0  0  0
    1.9667   -6.0550   -0.0000 C   0  0  0  0  0  0  0  0  0  0  0  0
    4.2313    0.9416   -0.0000 C   0  0  0  0  0  0  0  0  0  0  0  0
    5.5305   -1.3230   -0.0000 C   0  0  0  0  0  0  0  0  0  0  0  0
    0.5125   -6.3768   -0.0000 C   0  0  0  0  0  0  0  0  0  0  0  0
   -4.3863   -0.8105   -0.0000 O   0  0  0  0  0  0  0  0  0  0  0  0
    5.5305    0.1907   -0.0000 N   0  0  0  0  0  0  0  0  0  0  0  0
   -5.0061    0.5840   -0.0000 C   0  0  0  0  0  0  0  0  0  0  0  0
    6.8297    0.9535   -0.0000 C   0  0  0  0  0  0  0  0  0  0  0  0
    6.8297    2.4673   -0.0000 O   0  0  0  0  0  0  0  0  0  0  0  0
    8.1170    0.2026   -0.0000 C   0  0  0  0  0  0  0  0  0  0  0  0
    9.4162    0.9655   -0.0000 C   0  0  0  0  0  0  0  0  0  0  0  0
    8.1051   -1.2992   -0.0000 C   0  0  0  0  0  0  0  0  0  0  0  0
   10.7035    0.2265   -0.0000 C   0  0  0  0  0  0  0  0  0  0  0  0
    9.3924   -2.0501   -0.0000 C   0  0  0  0  0  0  0  0  0  0  0  0
   10.6797   -1.2754   -0.0000 N   0  0  0  0  0  0  0  0  0  0  0  0
   11.9670   -2.0144   -0.0000 C   0  0  0  0  0  0  0  0  0  0  0  0
   13.2542   -1.2515   -0.0000 C   0  0  0  0  0  0  0  0  0  0  0  0
   13.2423    0.2741   -0.0000 C   0  0  0  0  0  0  0  0  0  0  0  0
   14.5415   -1.9905   -0.0000 C   0  0  0  0  0  0  0  0  0  0  0  0
   14.5296    1.0370   -0.0000 C   0  0  0  0  0  0  0  0  0  0  0  0
   15.8407   -1.2277   -0.0000 C   0  0  0  0  0  0  0  0  0  0  0  0
   15.8288    0.2980   -0.0000 N   0  0  0  0  0  0  0  0  0  0  0  0
  1  2  2  0  0  0  0
  2  3  1  0  0  0  0
  2  4  1  0  0  0  0
  3  5  1  0  0  0  0
  3  6  1  0  0  0  0
  4  7  1  0  0  0  0
  4  8  1  0  0  0  0
  5  9  1  0  0  0  0
  6 10  1  0  0  0  0
  6 11  1  0  0  0  0
  7 12  1  0  0  0  0
  8 13  1  0  0  0  0
  9 14  2  0  0  0  0
 10 15  1  0  0  0  0
 11 16  1  0  0  0  0
 12 17  2  0  0  0  0
 13 18  1  0  0  0  0
 15 19  1  0  0  0  0
 18 20  1  0  0  0  0
 19 21  1  0  0  0  0
 21 22  2  0  0  0  0
 21 23  1  0  0  0  0
 23 24  1  0  0  0  0
 23 25  1  0  0  0  0
 24 26  1  0  0  0  0
 25 27  1  0  0  0  0
 26 28  1  0  0  0  0
 28 29  1  0  0  0  0
 29 30  1  0  0  0  0
 30 31  2  0  0  0  0
 30 32  1  0  0  0  0
 31 33  1  0  0  0  0
 32 34  2  0  0  0  0
 33 35  2  0  0  0  0
  5  7  2  0  0  0  0
 14 17  1  0  0  0  0
 16 19  1  0  0  0  0
 27 28  1  0  0  0  0
 34 35  1  0  0  0  0
M  END
>  <MolRegNo>
689156

>  <m>
=

>  <Value>
11000

>  <Unit>
nM

>  <Type>
IC50

>  <pValue>
4.96

>  <Ligand Efficiency>
0

>  <Binding Efficiency>
0

>  <Surface Efficiency>
0

>  <Assay Index>
497180

>  <Assay Category>


>  <Assay Organism>
Homo sapiens

>  <Target ID>
17045

>  <Target Name>
Cytochrome P450 3A4

>  <Target Organism>
Homo sapiens

>  <Target Description>
Target is a single protein chain

>  <Sequence Accession>
P08684

>  <Reference>
Bioorg Med Chem Lett 20 (17), 5004-5008 (2010)

>  <Pubmed ID>
20685118

>  <DOI>
10.1016/j.bmcl.2010.07.052

$$$$
689088
Actelion Java MolfileCreator 1.0

 35 39  0  0  0  0  0  0  0  0999 V2000
    0.0000   -0.0000   -0.0000 O   0  0  0  0  0  0  0  0  0  0  0  0
    0.2861   -1.4664   -0.0000 C   0  0  0  0  0  0  0  0  0  0  0  0
    1.6453   -2.0745   -0.0000 N   0  0  0  0  0  0  0  0  0  0  0  0
   -0.7392   -2.5633   -0.0000 N   0  0  0  0  0  0  0  0  0  0  0  0
    1.4545   -3.5528   -0.0000 C   0  0  0  0  0  0  0  0  0  0  0  0
    2.9448   -1.3234   -0.0000 C   0  0  0  0  0  0  0  0  0  0  0  0
    0.0000   -3.8628   -0.0000 C   0  0  0  0  0  0  0  0  0  0  0  0
   -2.2533   -2.3844   -0.0000 C   0  0  0  0  0  0  0  0  0  0  0  0
    2.4441   -4.6497   -0.0000 C   0  0  0  0  0  0  0  0  0  0  0  0
    2.9448    0.1908   -0.0000 C   0  0  0  0  0  0  0  0  0  0  0  0
    4.2324   -2.0745   -0.0000 C   0  0  0  0  0  0  0  0  0  0  0  0
   -0.4769   -5.2696   -0.0000 C   0  0  0  0  0  0  0  0  0  0  0  0
   -2.8733   -0.9895   -0.0000 C   0  0  0  0  0  0  0  0  0  0  0  0
    1.9672   -6.0565   -0.0000 C   0  0  0  0  0  0  0  0  0  0  0  0
    4.2324    0.9419   -0.0000 C   0  0  0  0  0  0  0  0  0  0  0  0
    5.5319   -1.3234   -0.0000 C   0  0  0  0  0  0  0  0  0  0  0  0
    0.5127   -6.3784   -0.0000 C   0  0  0  0  0  0  0  0  0  0  0  0
   -4.3874   -0.8107   -0.0000 C   0  0  0  0  0  0  0  0  0  0  0  0
   -1.9910    0.2384   -0.0000 C   0  0  0  0  0  0  0  0  0  0  0  0
    5.5319    0.1908   -0.0000 N   0  0  0  0  0  0  0  0  0  0  0  0
    6.8314    0.9538   -0.0000 C   0  0  0  0  0  0  0  0  0  0  0  0
    6.8314    2.4679   -0.0000 O   0  0  0  0  0  0  0  0  0  0  0  0
    8.1190    0.2027   -0.0000 C   0  0  0  0  0  0  0  0  0  0  0  0
    9.4185    0.9657   -0.0000 C   0  0  0  0  0  0  0  0  0  0  0  0
    8.1071   -1.2995   -0.0000 C   0  0  0  0  0  0  0  0  0  0  0  0
   10.7061    0.2265   -0.0000 C   0  0  0  0  0  0  0  0  0  0  0  0
    9.3947   -2.0506   -0.0000 C   0  0  0  0  0  0  0  0  0  0  0  0
   10.6823   -1.2757   -0.0000 N   0  0  0  0  0  0  0  0  0  0  0  0
   11.9699   -2.0149   -0.0000 C   0  0  0  0  0  0  0  0  0  0  0  0
   13.2575   -1.2518   -0.0000 C   0  0  0  0  0  0  0  0  0  0  0  0
   13.2456    0.2742   -0.0000 C   0  0  0  0  0  0  0  0  0  0  0  0
   14.5451   -1.9910   -0.0000 C   0  0  0  0  0  0  0  0  0  0  0  0
   14.5332    1.0372   -0.0000 C   0  0  0  0  0  0  0  0  0  0  0  0
   15.8446   -1.2280   -0.0000 C   0  0  0  0  0  0  0  0  0  0  0  0
   15.8327    0.2981   -0.0000 N   0  0  0  0  0  0  0  0  0  0  0  0
  1  2  2  0  0  0  0
  2  3  1  0  0  0  0
  2  4  1  0  0  0  0
  3  5  1  0  0  0  0
  3  6  1  0  0  0  0
  4  7  1  0  0  0  0
  4  8  1  0  0  0  0
  5  9  1  0  0  0  0
  6 10  1  0  0  0  0
  6 11  1  0  0  0  0
  7 12  1  0  0  0  0
  8 13  1  0  0  0  0
  9 14  2  0  0  0  0
 10 15  1  0  0  0  0
 11 16  1  0  0  0  0
 12 17  2  0  0  0  0
 13 18  1  0  0  0  0
 13 19  1  0  0  0  0
 15 20  1  0  0  0  0
 20 21  1  0  0  0  0
 21 22  2  0  0  0  0
 21 23  1  0  0  0  0
 23 24  1  0  0  0  0
 23 25  1  0  0  0  0
 24 26  1  0  0  0  0
 25 27  1  0  0  0  0
 26 28  1  0  0  0  0
 28 29  1  0  0  0  0
 29 30  1  0  0  0  0
 30 31  2  0  0  0  0
 30 32  1  0  0  0  0
 31 33  1  0  0  0  0
 32 34  2  0  0  0  0
 33 35  2  0  0  0  0
  5  7  2  0  0  0  0
 14 17  1  0  0  0  0
 16 20  1  0  0  0  0
 27 28  1  0  0  0  0
 34 35  1  0  0  0  0
M  END
>  <MolRegNo>
689088

>  <m>
=

>  <Value>
1500

>  <Unit>
nM

>  <Type>
IC50

>  <pValue>
5.82

>  <Ligand Efficiency>
0

>  <Binding Efficiency>
0

>  <Surface Efficiency>
0

>  <Assay Index>
497180

>  <Assay Category>


>  <Assay Organism>
Homo sapiens

>  <Target ID>
17045

>  <Target Name>
Cytochrome P450 3A4

>  <Target Organism>
Homo sapiens

>  <Target Description>
Target is a single protein chain

>  <Sequence Accession>
P08684

>  <Reference>
Bioorg Med Chem Lett 20 (17), 5004-5008 (2010)

>  <Pubmed ID>
20685118

>  <DOI>
10.1016/j.bmcl.2010.07.052

$$$$
689087
Actelion Java MolfileCreator 1.0

 32 36  0  0  0  0  0  0  0  0999 V2000
    0.0000   -0.0000   -0.0000 O   0  0  0  0  0  0  0  0  0  0  0  0
    0.2866   -1.4686   -0.0000 C   0  0  0  0  0  0  0  0  0  0  0  0
    1.6477   -2.0776   -0.0000 N   0  0  0  0  0  0  0  0  0  0  0  0
   -0.7403   -2.5671   -0.0000 N   0  0  0  0  0  0  0  0  0  0  0  0
    1.4567   -3.5582   -0.0000 C   0  0  0  0  0  0  0  0  0  0  0  0
    2.9492   -1.3254   -0.0000 C   0  0  0  0  0  0  0  0  0  0  0  0
    0.0000   -3.8686   -0.0000 C   0  0  0  0  0  0  0  0  0  0  0  0
   -2.2567   -2.3880   -0.0000 C   0  0  0  0  0  0  0  0  0  0  0  0
    2.4477   -4.6567   -0.0000 C   0  0  0  0  0  0  0  0  0  0  0  0
    2.9492    0.1910   -0.0000 C   0  0  0  0  0  0  0  0  0  0  0  0
    4.2388   -2.0776   -0.0000 C   0  0  0  0  0  0  0  0  0  0  0  0
   -0.4776   -5.2776   -0.0000 C   0  0  0  0  0  0  0  0  0  0  0  0
    1.9701   -6.0656   -0.0000 C   0  0  0  0  0  0  0  0  0  0  0  0
    4.2388    0.9433   -0.0000 C   0  0  0  0  0  0  0  0  0  0  0  0
    5.5402   -1.3254   -0.0000 C   0  0  0  0  0  0  0  0  0  0  0  0
    0.5134   -6.3880   -0.0000 C   0  0  0  0  0  0  0  0  0  0  0  0
    5.5402    0.1910   -0.0000 N   0  0  0  0  0  0  0  0  0  0  0  0
    6.8417    0.9552   -0.0000 C   0  0  0  0  0  0  0  0  0  0  0  0
    6.8417    2.4716   -0.0000 O   0  0  0  0  0  0  0  0  0  0  0  0
    8.1313    0.2030   -0.0000 C   0  0  0  0  0  0  0  0  0  0  0  0
    9.4327    0.9672   -0.0000 C   0  0  0  0  0  0  0  0  0  0  0  0
    8.1193   -1.2895   -0.0000 C   0  0  0  0  0  0  0  0  0  0  0  0
   10.7223    0.2269   -0.0000 C   0  0  0  0  0  0  0  0  0  0  0  0
    9.4088   -2.0418   -0.0000 C   0  0  0  0  0  0  0  0  0  0  0  0
   10.6984   -1.2776   -0.0000 N   0  0  0  0  0  0  0  0  0  0  0  0
   11.9879   -2.0179   -0.0000 C   0  0  0  0  0  0  0  0  0  0  0  0
   13.2775   -1.2537   -0.0000 C   0  0  0  0  0  0  0  0  0  0  0  0
   13.2655    0.2746   -0.0000 C   0  0  0  0  0  0  0  0  0  0  0  0
   14.5670   -1.9940   -0.0000 C   0  0  0  0  0  0  0  0  0  0  0  0
   14.5551    1.0388   -0.0000 C   0  0  0  0  0  0  0  0  0  0  0  0
   15.8685   -1.2298   -0.0000 C   0  0  0  0  0  0  0  0  0  0  0  0
   15.8565    0.2985   -0.0000 N   0  0  0  0  0  0  0  0  0  0  0  0
  1  2  2  0  0  0  0
  2  3  1  0  0  0  0
  2  4  1  0  0  0  0
  3  5  1  0  0  0  0
  3  6  1  0  0  0  0
  4  7  1  0  0  0  0
  4  8  1  0  0  0  0
  5  9  1  0  0  0  0
  6 10  1  0  0  0  0
  6 11  1  0  0  0  0
  7 12  1  0  0  0  0
  9 13  2  0  0  0  0
 10 14  1  0  0  0  0
 11 15  1  0  0  0  0
 12 16  2  0  0  0  0
 14 17  1  0  0  0  0
 17 18  1  0  0  0  0
 18 19  2  0  0  0  0
 18 20  1  0  0  0  0
 20 21  1  0  0  0  0
 20 22  1  0  0  0  0
 21 23  1  0  0  0  0
 22 24  1  0  0  0  0
 23 25  1  0  0  0  0
 25 26  1  0  0  0  0
 26 27  1  0  0  0  0
 27 28  2  0  0  0  0
 27 29  1  0  0  0  0
 28 30  1  0  0  0  0
 29 31  2  0  0  0  0
 30 32  2  0  0  0  0
  5  7  2  0  0  0  0
 13 16  1  0  0  0  0
 15 17  1  0  0  0  0
 24 25  1  0  0  0  0
 31 32  1  0  0  0  0
M  END
>  <MolRegNo>
689087

>  <m>
=

>  <Value>
7500

>  <Unit>
nM

>  <Type>
IC50

>  <pValue>
5.12

>  <Ligand Efficiency>
0

>  <Binding Efficiency>
0

>  <Surface Efficiency>
0

>  <Assay Index>
497180

>  <Assay Category>


>  <Assay Organism>
Homo sapiens

>  <Target ID>
17045

>  <Target Name>
Cytochrome P450 3A4

>  <Target Organism>
Homo sapiens

>  <Target Description>
Target is a single protein chain

>  <Sequence Accession>
P08684

>  <Reference>
Bioorg Med Chem Lett 20 (17), 5004-5008 (2010)

>  <Pubmed ID>
20685118

>  <DOI>
10.1016/j.bmcl.2010.07.052

$$$$
688922
Actelion Java MolfileCreator 1.0

 31 35  0  0  0  0  0  0  0  0999 V2000
    0.0000   -0.0000   -0.0000 O   0  0  0  0  0  0  0  0  0  0  0  0
    0.2866   -1.4690   -0.0000 C   0  0  0  0  0  0  0  0  0  0  0  0
    1.6362   -2.0781   -0.0000 N   0  0  0  0  0  0  0  0  0  0  0  0
   -0.7405   -2.5677   -0.0000 N   0  0  0  0  0  0  0  0  0  0  0  0
    1.4570   -3.5709   -0.0000 C   0  0  0  0  0  0  0  0  0  0  0  0
    2.9380   -1.3257   -0.0000 C   0  0  0  0  0  0  0  0  0  0  0  0
    0.0000   -3.8695   -0.0000 C   0  0  0  0  0  0  0  0  0  0  0  0
    2.4364   -4.6816   -0.0000 C   0  0  0  0  0  0  0  0  0  0  0  0
    2.9380    0.1911   -0.0000 C   0  0  0  0  0  0  0  0  0  0  0  0
    4.2278   -2.0781   -0.0000 C   0  0  0  0  0  0  0  0  0  0  0  0
   -0.4897   -5.2788   -0.0000 C   0  0  0  0  0  0  0  0  0  0  0  0
    1.9586   -6.0909   -0.0000 C   0  0  0  0  0  0  0  0  0  0  0  0
    4.2278    0.9435   -0.0000 C   0  0  0  0  0  0  0  0  0  0  0  0
    5.5296   -1.3257   -0.0000 C   0  0  0  0  0  0  0  0  0  0  0  0
    0.5016   -6.3895   -0.0000 C   0  0  0  0  0  0  0  0  0  0  0  0
    5.5176    0.1911   -0.0000 N   0  0  0  0  0  0  0  0  0  0  0  0
    6.8194    0.9554   -0.0000 C   0  0  0  0  0  0  0  0  0  0  0  0
    6.8194    2.4722   -0.0000 O   0  0  0  0  0  0  0  0  0  0  0  0
    8.1092    0.2030   -0.0000 C   0  0  0  0  0  0  0  0  0  0  0  0
    9.4110    0.9674   -0.0000 C   0  0  0  0  0  0  0  0  0  0  0  0
    8.0973   -1.3018   -0.0000 C   0  0  0  0  0  0  0  0  0  0  0  0
   10.7009    0.2269   -0.0000 C   0  0  0  0  0  0  0  0  0  0  0  0
    9.3871   -2.0542   -0.0000 C   0  0  0  0  0  0  0  0  0  0  0  0
   10.6889   -1.2779   -0.0000 N   0  0  0  0  0  0  0  0  0  0  0  0
   11.9788   -2.0184   -0.0000 C   0  0  0  0  0  0  0  0  0  0  0  0
   13.2686   -1.2540   -0.0000 C   0  0  0  0  0  0  0  0  0  0  0  0
   13.2567    0.2747   -0.0000 C   0  0  0  0  0  0  0  0  0  0  0  0
   14.5584   -1.9945   -0.0000 C   0  0  0  0  0  0  0  0  0  0  0  0
   14.5465    1.0390   -0.0000 C   0  0  0  0  0  0  0  0  0  0  0  0
   15.8602   -1.2301   -0.0000 C   0  0  0  0  0  0  0  0  0  0  0  0
   15.8483    0.2986   -0.0000 N   0  0  0  0  0  0  0  0  0  0  0  0
  1  2  2  0  0  0  0
  2  3  1  0  0  0  0
  2  4  1  0  0  0  0
  3  5  1  0  0  0  0
  3  6  1  0  0  0  0
  4  7  1  0  0  0  0
  5  8  1  0  0  0  0
  6  9  1  0  0  0  0
  6 10  1  0  0  0  0
  7 11  1  0  0  0  0
  8 12  2  0  0  0  0
  9 13  1  0  0  0  0
 10 14  1  0  0  0  0
 11 15  2  0  0  0  0
 13 16  1  0  0  0  0
 16 17  1  0  0  0  0
 17 18  2  0  0  0  0
 17 19  1  0  0  0  0
 19 20  1  0  0  0  0
 19 21  1  0  0  0  0
 20 22  1  0  0  0  0
 21 23  1  0  0  0  0
 22 24  1  0  0  0  0
 24 25  1  0  0  0  0
 25 26  1  0  0  0  0
 26 27  2  0  0  0  0
 26 28  1  0  0  0  0
 27 29  1  0  0  0  0
 28 30  2  0  0  0  0
 29 31  2  0  0  0  0
  5  7  2  0  0  0  0
 12 15  1  0  0  0  0
 14 16  1  0  0  0  0
 23 24  1  0  0  0  0
 30 31  1  0  0  0  0
M  END
>  <MolRegNo>
688922

>  <m>
=

>  <Value>
9500

>  <Unit>
nM

>  <Type>
IC50

>  <pValue>
5.02

>  <Ligand Efficiency>
0

>  <Binding Efficiency>
0

>  <Surface Efficiency>
0

>  <Assay Index>
497180

>  <Assay Category>


>  <Assay Organism>
Homo sapiens

>  <Target ID>
17045

>  <Target Name>
Cytochrome P450 3A4

>  <Target Organism>
Homo sapiens

>  <Target Description>
Target is a single protein chain

>  <Sequence Accession>
P08684

>  <Reference>
Bioorg Med Chem Lett 20 (17), 5004-5008 (2010)

>  <Pubmed ID>
20685118

>  <DOI>
10.1016/j.bmcl.2010.07.052

$$$$
690649
Actelion Java MolfileCreator 1.0

 29 31  0  0  0  0  0  0  0  0999 V2000
    0.0000   -0.0000   -0.0000 F   0  0  0  0  0  0  0  0  0  0  0  0
   -1.3132   -0.7402   -0.0000 C   0  0  0  0  0  0  0  0  0  0  0  0
   -2.6265    0.0239   -0.0000 F   0  0  0  0  0  0  0  0  0  0  0  0
   -1.3371    0.7879   -0.0000 F   0  0  0  0  0  0  0  0  0  0  0  0
   -1.3252   -2.2325   -0.0000 C   0  0  0  0  0  0  0  0  0  0  0  0
   -0.0358   -2.9727   -0.0000 C   0  0  0  0  0  0  0  0  0  0  0  0
   -2.6384   -2.9727   -0.0000 C   0  0  0  0  0  0  0  0  0  0  0  0
    1.2535   -2.2086   -0.0000 C   0  0  0  0  0  0  0  0  0  0  0  0
   -0.0478   -4.4769   -0.0000 C   0  0  0  0  0  0  0  0  0  0  0  0
   -2.6503   -4.4769   -0.0000 C   0  0  0  0  0  0  0  0  0  0  0  0
    2.5429   -2.9488   -0.0000 C   0  0  0  0  0  0  0  0  0  0  0  0
    1.2297   -0.7044   -0.0000 C   0  0  0  0  0  0  0  0  0  0  0  0
   -1.3729   -5.2171   -0.0000 C   0  0  0  0  0  0  0  0  0  0  0  0
    3.8323   -2.1847   -0.0000 C   0  0  0  0  0  0  0  0  0  0  0  0
    2.5071    0.0716   -0.0000 C   0  0  0  0  0  0  0  0  0  0  0  0
   -1.3849   -6.7094   -0.0000 C   0  0  0  0  0  0  0  0  0  0  0  0
    5.1216   -2.9249   -0.0000 N   0  0  0  0  0  0  0  0  0  0  0  0
    3.8203   -0.6686   -0.0000 C   0  0  0  0  0  0  0  0  0  0  0  0
   -2.6981   -7.4496   -0.0000 F   0  0  0  0  0  0  0  0  0  0  0  0
   -0.0955   -7.4496   -0.0000 F   0  0  0  0  0  0  0  0  0  0  0  0
   -1.4087   -8.2018   -0.0000 F   0  0  0  0  0  0  0  0  0  0  0  0
    6.4826   -2.3041   -0.0000 N   0  0  0  0  0  0  0  0  0  0  0  0
    5.2768   -4.4172   -0.0000 C   0  0  0  0  0  0  0  0  0  0  0  0
    7.4854   -3.4025   -0.0000 C   0  0  0  0  0  0  0  0  0  0  0  0
    6.7333   -4.7157   -0.0000 C   0  0  0  0  0  0  0  0  0  0  0  0
    4.1546   -5.4201   -0.0000 C   0  0  0  0  0  0  0  0  0  0  0  0
    8.9658   -3.2234   -0.0000 C   0  0  0  0  0  0  0  0  0  0  0  0
    9.5627   -1.8385   -0.0000 O   0  0  0  0  0  0  0  0  0  0  0  0
    9.8493   -4.4292   -0.0000 N   0  0  0  0  0  0  0  0  0  0  0  0
  1  2  1  0  0  0  0
  2  3  1  0  0  0  0
  2  4  1  0  0  0  0
  2  5  1  0  0  0  0
  5  6  2  0  0  0  0
  5  7  1  0  0  0  0
  6  8  1  0  0  0  0
  6  9  1  0  0  0  0
  7 10  2  0  0  0  0
  8 11  2  0  0  0  0
  8 12  1  0  0  0  0
  9 13  2  0  0  0  0
 11 14  1  0  0  0  0
 12 15  2  0  0  0  0
 13 16  1  0  0  0  0
 14 17  1  0  0  0  0
 14 18  2  0  0  0  0
 16 19  1  0  0  0  0
 16 20  1  0  0  0  0
 16 21  1  0  0  0  0
 17 22  1  0  0  0  0
 17 23  1  0  0  0  0
 22 24  2  0  0  0  0
 23 25  2  0  0  0  0
 23 26  1  0  0  0  0
 24 27  1  0  0  0  0
 27 28  2  0  0  0  0
 27 29  1  0  0  0  0
 10 13  1  0  0  0  0
 15 18  1  0  0  0  0
 24 25  1  0  0  0  0
M  END
>  <MolRegNo>
690649

>  <m>
=

>  <Value>
51000

>  <Unit>
nM

>  <Type>
IC50

>  <pValue>
4.29

>  <Ligand Efficiency>
0

>  <Binding Efficiency>
0

>  <Surface Efficiency>
0

>  <Assay Index>
497600

>  <Assay Category>


>  <Assay Organism>


>  <Target ID>
17045

>  <Target Name>
Cytochrome P450 3A4

>  <Target Organism>
Homo sapiens

>  <Target Description>
Target is a single protein chain

>  <Sequence Accession>
P08684

>  <Reference>
Bioorg Med Chem Lett 20 (18), 5480-5483 (2010)

>  <Pubmed ID>
20709545

>  <DOI>
10.1016/j.bmcl.2010.07.080

$$$$
690651
Actelion Java MolfileCreator 1.0

 25 27  0  0  0  0  0  0  0  0999 V2000
    0.0000   -0.0000   -0.0000 S   0  0  0  0  0  0  0  0  0  0  0  0
   -0.7606   -1.2835   -0.0000 C   0  0  0  0  0  0  0  0  0  0  0  0
   -1.0220    1.1171   -0.0000 C   0  0  0  0  0  0  0  0  0  0  0  0
   -2.2342   -0.9626   -0.0000 N   0  0  0  0  0  0  0  0  0  0  0  0
   -0.1545   -2.6383   -0.0000 C   0  0  0  0  0  0  0  0  0  0  0  0
   -2.4006    0.5110   -0.0000 C   0  0  0  0  0  0  0  0  0  0  0  0
   -1.0458   -3.8386   -0.0000 O   0  0  0  0  0  0  0  0  0  0  0  0
    1.3310   -2.7809   -0.0000 N   0  0  0  0  0  0  0  0  0  0  0  0
   -3.7078    1.2716   -0.0000 C   0  0  0  0  0  0  0  0  0  0  0  0
   -5.0151    0.5348   -0.0000 C   0  0  0  0  0  0  0  0  0  0  0  0
   -3.7197    2.7809   -0.0000 C   0  0  0  0  0  0  0  0  0  0  0  0
   -6.3224    1.2954   -0.0000 C   0  0  0  0  0  0  0  0  0  0  0  0
   -5.0389    3.5415   -0.0000 C   0  0  0  0  0  0  0  0  0  0  0  0
   -7.6296    0.5586   -0.0000 C   0  0  0  0  0  0  0  0  0  0  0  0
   -6.3461    2.7928   -0.0000 C   0  0  0  0  0  0  0  0  0  0  0  0
   -7.6415   -0.9388   -0.0000 C   0  0  0  0  0  0  0  0  0  0  0  0
   -8.9369    1.3191   -0.0000 C   0  0  0  0  0  0  0  0  0  0  0  0
   -6.3580   -1.6757   -0.0000 O   0  0  0  0  0  0  0  0  0  0  0  0
   -8.9606   -1.6757   -0.0000 C   0  0  0  0  0  0  0  0  0  0  0  0
  -10.2441    0.5823   -0.0000 C   0  0  0  0  0  0  0  0  0  0  0  0
   -6.3699   -3.1612   -0.0000 C   0  0  0  0  0  0  0  0  0  0  0  0
  -10.2679   -0.9151   -0.0000 C   0  0  0  0  0  0  0  0  0  0  0  0
   -5.0864   -3.8980   -0.0000 F   0  0  0  0  0  0  0  0  0  0  0  0
   -7.6771   -3.8980   -0.0000 F   0  0  0  0  0  0  0  0  0  0  0  0
   -6.3937   -4.6467   -0.0000 F   0  0  0  0  0  0  0  0  0  0  0  0
  1  2  1  0  0  0  0
  1  3  1  0  0  0  0
  2  4  2  0  0  0  0
  2  5  1  0  0  0  0
  3  6  2  0  0  0  0
  5  7  2  0  0  0  0
  5  8  1  0  0  0  0
  6  9  1  0  0  0  0
  9 10  2  0  0  0  0
  9 11  1  0  0  0  0
 10 12  1  0  0  0  0
 11 13  2  0  0  0  0
 12 14  1  0  0  0  0
 12 15  2  0  0  0  0
 14 16  2  0  0  0  0
 14 17  1  0  0  0  0
 16 18  1  0  0  0  0
 16 19  1  0  0  0  0
 17 20  2  0  0  0  0
 18 21  1  0  0  0  0
 19 22  2  0  0  0  0
 21 23  1  0  0  0  0
 21 24  1  0  0  0  0
 21 25  1  0  0  0  0
  4  6  1  0  0  0  0
 13 15  1  0  0  0  0
 20 22  1  0  0  0  0
M  END
>  <MolRegNo>
690651

>  <m>
=

>  <Value>
18000

>  <Unit>
nM

>  <Type>
IC50

>  <pValue>
4.75

>  <Ligand Efficiency>
0

>  <Binding Efficiency>
0

>  <Surface Efficiency>
0

>  <Assay Index>
497860

>  <Assay Category>


>  <Assay Organism>


>  <Target ID>
17045

>  <Target Name>
Cytochrome P450 3A4

>  <Target Organism>
Homo sapiens

>  <Target Description>
Target is a single protein chain

>  <Sequence Accession>
P08684

>  <Reference>
Bioorg Med Chem Lett 20 (18), 5536-5540 (2010)

>  <Pubmed ID>
20709552

>  <DOI>
10.1016/j.bmcl.2010.07.064

$$$$
689679
Actelion Java MolfileCreator 1.0

 35 40  0  0  0  0  0  0  0  0999 V2000
    0.0000   -0.0000   -0.0000 N   0  0  0  0  0  0  0  0  0  0  0  0
   -1.4773   -0.2955   -0.0000 N   0  0  0  0  0  0  0  0  0  0  0  0
    0.7387   -1.2926   -0.0000 N   0  0  0  0  0  0  0  0  0  0  0  0
   -1.6497   -1.7851   -0.0000 N   0  0  0  0  0  0  0  0  0  0  0  0
   -0.2832   -2.4006   -0.0000 C   0  0  0  0  0  0  0  0  0  0  0  0
   -2.9546   -2.5237   -0.0000 C   0  0  0  0  0  0  0  0  0  0  0  0
    0.0246   -3.8533   -0.0000 C   0  0  0  0  0  0  0  0  0  0  0  0
   -4.2596   -1.7605   -0.0000 C   0  0  0  0  0  0  0  0  0  0  0  0
   -1.0957   -4.8505   -0.0000 N   0  0  0  0  0  0  0  0  0  0  0  0
    1.4404   -4.2965   -0.0000 C   0  0  0  0  0  0  0  0  0  0  0  0
   -4.2842   -0.2585   -0.0000 C   0  0  0  0  0  0  0  0  0  0  0  0
   -5.5645   -2.5114   -0.0000 C   0  0  0  0  0  0  0  0  0  0  0  0
   -2.5484   -4.2596   -0.0000 C   0  0  0  0  0  0  0  0  0  0  0  0
   -0.6894   -6.2909   -0.0000 C   0  0  0  0  0  0  0  0  0  0  0  0
    1.7358   -5.7492   -0.0000 C   0  0  0  0  0  0  0  0  0  0  0  0
    2.5237   -3.2747   -0.0000 C   0  0  0  0  0  0  0  0  0  0  0  0
   -5.5892    0.5047   -0.0000 C   0  0  0  0  0  0  0  0  0  0  0  0
   -6.8818   -1.7605   -0.0000 C   0  0  0  0  0  0  0  0  0  0  0  0
   -3.8287   -4.9859   -0.0000 C   0  0  0  0  0  0  0  0  0  0  0  0
   -1.5881   -7.4850   -0.0000 C   0  0  0  0  0  0  0  0  0  0  0  0
    3.1516   -6.1924   -0.0000 C   0  0  0  0  0  0  0  0  0  0  0  0
    3.9395   -3.7179   -0.0000 C   0  0  0  0  0  0  0  0  0  0  0  0
   -6.9064   -0.2339   -0.0000 C   0  0  0  0  0  0  0  0  0  0  0  0
   -4.1119   -6.4263   -0.0000 N   0  0  0  0  0  0  0  0  0  0  0  0
   -3.1639   -7.5343   -0.0000 C   0  0  0  0  0  0  0  0  0  0  0  0
    4.2473   -5.1706   -0.0000 C   0  0  0  0  0  0  0  0  0  0  0  0
   -5.5645   -6.8079   -0.0000 C   0  0  0  0  0  0  0  0  0  0  0  0
    5.6630   -5.6138   -0.0000 N   0  0  0  0  0  0  0  0  0  0  0  0
   -6.8818   -6.0447   -0.0000 C   0  0  0  0  0  0  0  0  0  0  0  0
   -6.3278   -8.1006   -0.0000 C   0  0  0  0  0  0  0  0  0  0  0  0
    6.8695   -4.7028   -0.0000 N   0  0  0  0  0  0  0  0  0  0  0  0
    6.1185   -7.0172   -0.0000 C   0  0  0  0  0  0  0  0  0  0  0  0
   -7.6451   -7.3250   -0.0000 C   0  0  0  0  0  0  0  0  0  0  0  0
    8.0760   -5.5645   -0.0000 C   0  0  0  0  0  0  0  0  0  0  0  0
    7.6082   -6.9926   -0.0000 N   0  0  0  0  0  0  0  0  0  0  0  0
  1  2  2  0  0  0  0
  1  3  1  0  0  0  0
  2  4  1  0  0  0  0
  3  5  2  0  0  0  0
  4  6  1  0  0  0  0
  5  7  1  0  0  0  0
  6  8  1  0  0  0  0
  7  9  1  0  0  0  0
  7 10  1  0  0  0  0
  8 11  2  0  0  0  0
  8 12  1  0  0  0  0
  9 13  1  0  0  0  0
  9 14  1  0  0  0  0
 10 15  2  0  0  0  0
 10 16  1  0  0  0  0
 11 17  1  0  0  0  0
 12 18  2  0  0  0  0
 13 19  1  0  0  0  0
 14 20  1  0  0  0  0
 15 21  1  0  0  0  0
 16 22  2  0  0  0  0
 17 23  2  0  0  0  0
 19 24  1  0  0  0  0
 20 25  1  0  0  0  0
 21 26  2  0  0  0  0
 24 27  1  0  0  0  0
 26 28  1  0  0  0  0
 27 29  1  0  0  0  0
 27 30  1  0  0  0  0
 28 31  1  0  0  0  0
 28 32  1  0  0  0  0
 29 33  1  0  0  0  0
 31 34  2  0  0  0  0
 32 35  2  0  0  0  0
  4  5  1  0  0  0  0
 18 23  1  0  0  0  0
 22 26  1  0  0  0  0
 24 25  1  0  0  0  0
 30 33  1  0  0  0  0
 34 35  1  0  0  0  0
M  END
>  <MolRegNo>
689679

>  <m>
=

>  <Value>
29000

>  <Unit>
nM

>  <Type>
IC50

>  <pValue>
4.54

>  <Ligand Efficiency>
0

>  <Binding Efficiency>
0

>  <Surface Efficiency>
0

>  <Assay Index>
496612

>  <Assay Category>


>  <Assay Organism>


>  <Target ID>
17045

>  <Target Name>
Cytochrome P450 3A4

>  <Target Organism>
Homo sapiens

>  <Target Description>
Target is a single protein chain

>  <Sequence Accession>
P08684

>  <Reference>
Bioorg Med Chem Lett 20 (17), 5165-5169 (2010)

>  <Pubmed ID>
20667729

>  <DOI>
10.1016/j.bmcl.2010.07.009

$$$$
689680
Actelion Java MolfileCreator 1.0

 36 41  0  0  0  0  0  0  0  0999 V2000
    0.0000   -0.0000   -0.0000 N   0  0  0  0  0  0  0  0  0  0  0  0
   -1.4756   -0.2951   -0.0000 N   0  0  0  0  0  0  0  0  0  0  0  0
    0.7501   -1.2911   -0.0000 N   0  0  0  0  0  0  0  0  0  0  0  0
   -1.6477   -1.7830   -0.0000 N   0  0  0  0  0  0  0  0  0  0  0  0
   -0.2705   -2.3855   -0.0000 C   0  0  0  0  0  0  0  0  0  0  0  0
   -2.9512   -2.5208   -0.0000 C   0  0  0  0  0  0  0  0  0  0  0  0
    0.0246   -3.8365   -0.0000 C   0  0  0  0  0  0  0  0  0  0  0  0
   -4.2546   -1.7584   -0.0000 C   0  0  0  0  0  0  0  0  0  0  0  0
   -1.1067   -4.8202   -0.0000 N   0  0  0  0  0  0  0  0  0  0  0  0
    1.4387   -4.2915   -0.0000 C   0  0  0  0  0  0  0  0  0  0  0  0
   -4.2669   -0.2459   -0.0000 C   0  0  0  0  0  0  0  0  0  0  0  0
   -5.5580   -2.4962   -0.0000 C   0  0  0  0  0  0  0  0  0  0  0  0
   -2.5577   -4.2300   -0.0000 C   0  0  0  0  0  0  0  0  0  0  0  0
   -0.7009   -6.2589   -0.0000 C   0  0  0  0  0  0  0  0  0  0  0  0
    1.7215   -5.7425   -0.0000 C   0  0  0  0  0  0  0  0  0  0  0  0
    2.5208   -3.2709   -0.0000 C   0  0  0  0  0  0  0  0  0  0  0  0
   -5.5826    0.5165   -0.0000 C   0  0  0  0  0  0  0  0  0  0  0  0
   -6.8737   -1.7461   -0.0000 C   0  0  0  0  0  0  0  0  0  0  0  0
   -3.8365   -4.9678   -0.0000 C   0  0  0  0  0  0  0  0  0  0  0  0
   -1.5985   -7.4517   -0.0000 C   0  0  0  0  0  0  0  0  0  0  0  0
    3.1356   -6.1851   -0.0000 C   0  0  0  0  0  0  0  0  0  0  0  0
    3.9349   -3.7135   -0.0000 C   0  0  0  0  0  0  0  0  0  0  0  0
   -6.8983   -0.2213   -0.0000 C   0  0  0  0  0  0  0  0  0  0  0  0
   -4.1193   -6.4065   -0.0000 N   0  0  0  0  0  0  0  0  0  0  0  0
   -3.1725   -7.5009   -0.0000 C   0  0  0  0  0  0  0  0  0  0  0  0
    4.2300   -5.1645   -0.0000 C   0  0  0  0  0  0  0  0  0  0  0  0
   -5.5826   -6.7754   -0.0000 C   0  0  0  0  0  0  0  0  0  0  0  0
    5.6441   -5.6195   -0.0000 C   0  0  0  0  0  0  0  0  0  0  0  0
   -6.8983   -6.0130   -0.0000 C   0  0  0  0  0  0  0  0  0  0  0  0
   -6.3450   -8.0665   -0.0000 C   0  0  0  0  0  0  0  0  0  0  0  0
    6.7508   -4.6112   -0.0000 N   0  0  0  0  0  0  0  0  0  0  0  0
   -7.6607   -7.3041   -0.0000 C   0  0  0  0  0  0  0  0  0  0  0  0
    6.5786   -3.0987   -0.0000 N   0  0  0  0  0  0  0  0  0  0  0  0
    8.2018   -4.9063   -0.0000 C   0  0  0  0  0  0  0  0  0  0  0  0
    7.9435   -2.4839   -0.0000 C   0  0  0  0  0  0  0  0  0  0  0  0
    8.9396   -3.6029   -0.0000 N   0  0  0  0  0  0  0  0  0  0  0  0
  1  2  2  0  0  0  0
  1  3  1  0  0  0  0
  2  4  1  0  0  0  0
  3  5  2  0  0  0  0
  4  6  1  0  0  0  0
  5  7  1  0  0  0  0
  6  8  1  0  0  0  0
  7  9  1  0  0  0  0
  7 10  1  0  0  0  0
  8 11  2  0  0  0  0
  8 12  1  0  0  0  0
  9 13  1  0  0  0  0
  9 14  1  0  0  0  0
 10 15  2  0  0  0  0
 10 16  1  0  0  0  0
 11 17  1  0  0  0  0
 12 18  2  0  0  0  0
 13 19  1  0  0  0  0
 14 20  1  0  0  0  0
 15 21  1  0  0  0  0
 16 22  2  0  0  0  0
 17 23  2  0  0  0  0
 19 24  1  0  0  0  0
 20 25  1  0  0  0  0
 21 26  2  0  0  0  0
 24 27  1  0  0  0  0
 26 28  1  0  0  0  0
 27 29  1  0  0  0  0
 27 30  1  0  0  0  0
 28 31  1  0  0  0  0
 29 32  1  0  0  0  0
 31 33  1  0  0  0  0
 31 34  1  0  0  0  0
 33 35  2  0  0  0  0
 34 36  2  0  0  0  0
  4  5  1  0  0  0  0
 18 23  1  0  0  0  0
 22 26  1  0  0  0  0
 24 25  1  0  0  0  0
 30 32  1  0  0  0  0
 35 36  1  0  0  0  0
M  END
>  <MolRegNo>
689680

>  <m>
=

>  <Value>
12000

>  <Unit>
nM

>  <Type>
IC50

>  <pValue>
4.92

>  <Ligand Efficiency>
0

>  <Binding Efficiency>
0

>  <Surface Efficiency>
0

>  <Assay Index>
496612

>  <Assay Category>


>  <Assay Organism>


>  <Target ID>
17045

>  <Target Name>
Cytochrome P450 3A4

>  <Target Organism>
Homo sapiens

>  <Target Description>
Target is a single protein chain

>  <Sequence Accession>
P08684

>  <Reference>
Bioorg Med Chem Lett 20 (17), 5165-5169 (2010)

>  <Pubmed ID>
20667729

>  <DOI>
10.1016/j.bmcl.2010.07.009

$$$$
689681
Actelion Java MolfileCreator 1.0

 33 38  0  0  0  0  0  0  0  0999 V2000
    0.0000   -0.0000   -0.0000 O   0  0  0  0  0  0  0  0  0  0  0  0
   -1.4936    0.1714   -0.0000 C   0  0  0  0  0  0  0  0  0  0  0  0
    0.5876    1.3712   -0.0000 C   0  0  0  0  0  0  0  0  0  0  0  0
   -1.8119    1.6405   -0.0000 C   0  0  0  0  0  0  0  0  0  0  0  0
   -2.5954   -0.8203   -0.0000 C   0  0  0  0  0  0  0  0  0  0  0  0
   -0.5387    2.3751   -0.0000 C   0  0  0  0  0  0  0  0  0  0  0  0
   -3.2443    2.1057   -0.0000 C   0  0  0  0  0  0  0  0  0  0  0  0
   -4.0278   -0.3550   -0.0000 C   0  0  0  0  0  0  0  0  0  0  0  0
   -4.3461    1.1141   -0.0000 C   0  0  0  0  0  0  0  0  0  0  0  0
   -5.7785    1.5793   -0.0000 C   0  0  0  0  0  0  0  0  0  0  0  0
   -6.8926    0.5876   -0.0000 N   0  0  0  0  0  0  0  0  0  0  0  0
   -6.1091    3.0484   -0.0000 C   0  0  0  0  0  0  0  0  0  0  0  0
   -8.3373    1.1753   -0.0000 C   0  0  0  0  0  0  0  0  0  0  0  0
   -6.4886   -0.8447   -0.0000 C   0  0  0  0  0  0  0  0  0  0  0  0
   -5.1174    4.1747   -0.0000 N   0  0  0  0  0  0  0  0  0  0  0  0
   -7.4925    3.6606   -0.0000 N   0  0  0  0  0  0  0  0  0  0  0  0
   -9.6105    0.4530   -0.0000 C   0  0  0  0  0  0  0  0  0  0  0  0
   -7.3823   -2.0323   -0.0000 C   0  0  0  0  0  0  0  0  0  0  0  0
   -5.8765    5.4847   -0.0000 N   0  0  0  0  0  0  0  0  0  0  0  0
   -7.3456    5.1664   -0.0000 N   0  0  0  0  0  0  0  0  0  0  0  0
   -8.7902    2.9260   -0.0000 C   0  0  0  0  0  0  0  0  0  0  0  0
   -9.8921   -0.9794   -0.0000 N   0  0  0  0  0  0  0  0  0  0  0  0
   -8.9494   -2.0813   -0.0000 C   0  0  0  0  0  0  0  0  0  0  0  0
  -10.0880    3.6850   -0.0000 C   0  0  0  0  0  0  0  0  0  0  0  0
  -11.3367   -1.3589   -0.0000 C   0  0  0  0  0  0  0  0  0  0  0  0
  -10.1124    5.1786   -0.0000 C   0  0  0  0  0  0  0  0  0  0  0  0
  -11.3857    2.9382   -0.0000 C   0  0  0  0  0  0  0  0  0  0  0  0
  -12.6467   -0.5999   -0.0000 C   0  0  0  0  0  0  0  0  0  0  0  0
  -12.0958   -2.6444   -0.0000 C   0  0  0  0  0  0  0  0  0  0  0  0
  -11.4102    5.9377   -0.0000 C   0  0  0  0  0  0  0  0  0  0  0  0
  -12.6956    3.6850   -0.0000 C   0  0  0  0  0  0  0  0  0  0  0  0
  -13.4057   -1.8731   -0.0000 C   0  0  0  0  0  0  0  0  0  0  0  0
  -12.7201    5.2031   -0.0000 C   0  0  0  0  0  0  0  0  0  0  0  0
  1  2  1  0  0  0  0
  1  3  1  0  0  0  0
  2  4  2  0  0  0  0
  2  5  1  0  0  0  0
  3  6  2  0  0  0  0
  4  7  1  0  0  0  0
  5  8  2  0  0  0  0
  7  9  2  0  0  0  0
  9 10  1  0  0  0  0
 10 11  1  0  0  0  0
 10 12  1  0  0  0  0
 11 13  1  0  0  0  0
 11 14  1  0  0  0  0
 12 15  2  0  0  0  0
 12 16  1  0  0  0  0
 13 17  1  0  0  0  0
 14 18  1  0  0  0  0
 15 19  1  0  0  0  0
 16 20  1  0  0  0  0
 16 21  1  0  0  0  0
 17 22  1  0  0  0  0
 18 23  1  0  0  0  0
 21 24  1  0  0  0  0
 22 25  1  0  0  0  0
 24 26  2  0  0  0  0
 24 27  1  0  0  0  0
 25 28  1  0  0  0  0
 25 29  1  0  0  0  0
 26 30  1  0  0  0  0
 27 31  2  0  0  0  0
 28 32  1  0  0  0  0
 30 33  2  0  0  0  0
  4  6  1  0  0  0  0
  8  9  1  0  0  0  0
 19 20  2  0  0  0  0
 22 23  1  0  0  0  0
 29 32  1  0  0  0  0
 31 33  1  0  0  0  0
M  END
>  <MolRegNo>
689681

>  <m>
=

>  <Value>
2400

>  <Unit>
nM

>  <Type>
IC50

>  <pValue>
5.62

>  <Ligand Efficiency>
0

>  <Binding Efficiency>
0

>  <Surface Efficiency>
0

>  <Assay Index>
496612

>  <Assay Category>


>  <Assay Organism>


>  <Target ID>
17045

>  <Target Name>
Cytochrome P450 3A4

>  <Target Organism>
Homo sapiens

>  <Target Description>
Target is a single protein chain

>  <Sequence Accession>
P08684

>  <Reference>
Bioorg Med Chem Lett 20 (17), 5165-5169 (2010)

>  <Pubmed ID>
20667729

>  <DOI>
10.1016/j.bmcl.2010.07.009

$$$$
701137
Actelion Java MolfileCreator 1.0

 35 40  0  0  0  0  0  0  0  0999 V2000
    0.0000   -0.0000   -0.0000 O   0  0  0  0  0  0  0  0  0  0  0  0
   -1.0220   -1.1052   -0.0000 C   0  0  0  0  0  0  0  0  0  0  0  0
   -0.5704   -2.5194   -0.0000 N   0  0  0  0  0  0  0  0  0  0  0  0
   -2.5075   -0.7843   -0.0000 C   0  0  0  0  0  0  0  0  0  0  0  0
   -3.1254    0.5942   -0.0000 N   0  0  0  0  0  0  0  0  0  0  0  0
   -3.6245   -1.7707   -0.0000 C   0  0  0  0  0  0  0  0  0  0  0  0
   -4.6228    0.4516   -0.0000 C   0  0  0  0  0  0  0  0  0  0  0  0
   -4.9318   -1.0101   -0.0000 N   0  0  0  0  0  0  0  0  0  0  0  0
   -3.6245   -3.2561   -0.0000 C   0  0  0  0  0  0  0  0  0  0  0  0
   -6.2271   -1.7469   -0.0000 C   0  0  0  0  0  0  0  0  0  0  0  0
   -4.9318   -3.9929   -0.0000 O   0  0  0  0  0  0  0  0  0  0  0  0
   -6.2390   -3.2324   -0.0000 C   0  0  0  0  0  0  0  0  0  0  0  0
   -7.5462   -0.9745   -0.0000 C   0  0  0  0  0  0  0  0  0  0  0  0
   -7.5581   -3.9573   -0.0000 C   0  0  0  0  0  0  0  0  0  0  0  0
   -8.8653   -1.7231   -0.0000 C   0  0  0  0  0  0  0  0  0  0  0  0
   -8.8653   -3.2086   -0.0000 C   0  0  0  0  0  0  0  0  0  0  0  0
   -7.5699   -5.4546   -0.0000 C   0  0  0  0  0  0  0  0  0  0  0  0
   -8.8890   -6.1914   -0.0000 C   0  0  0  0  0  0  0  0  0  0  0  0
   -8.9009   -7.6888   -0.0000 N   0  0  0  0  0  0  0  0  0  0  0  0
   -7.6056   -8.4375   -0.0000 C   0  0  0  0  0  0  0  0  0  0  0  0
  -10.2200   -8.4256   -0.0000 C   0  0  0  0  0  0  0  0  0  0  0  0
   -7.6175   -9.9229   -0.0000 C   0  0  0  0  0  0  0  0  0  0  0  0
  -10.2319   -9.9229   -0.0000 C   0  0  0  0  0  0  0  0  0  0  0  0
   -8.9247  -10.6597   -0.0000 N   0  0  0  0  0  0  0  0  0  0  0  0
   -8.9366  -12.1571   -0.0000 C   0  0  0  0  0  0  0  0  0  0  0  0
   -7.6412  -12.8939   -0.0000 C   0  0  0  0  0  0  0  0  0  0  0  0
  -10.2438  -12.8939   -0.0000 C   0  0  0  0  0  0  0  0  0  0  0  0
   -7.6531  -14.3912   -0.0000 C   0  0  0  0  0  0  0  0  0  0  0  0
   -6.3578  -12.1214   -0.0000 C   0  0  0  0  0  0  0  0  0  0  0  0
  -10.2557  -14.3912   -0.0000 C   0  0  0  0  0  0  0  0  0  0  0  0
   -6.3578  -15.1280   -0.0000 N   0  0  0  0  0  0  0  0  0  0  0  0
   -8.9722  -15.1399   -0.0000 C   0  0  0  0  0  0  0  0  0  0  0  0
   -5.0625  -12.8463   -0.0000 C   0  0  0  0  0  0  0  0  0  0  0  0
   -5.0625  -14.3556   -0.0000 C   0  0  0  0  0  0  0  0  0  0  0  0
   -3.7671  -15.0924   -0.0000 C   0  0  0  0  0  0  0  0  0  0  0  0
  1  2  2  0  0  0  0
  2  3  1  0  0  0  0
  2  4  1  0  0  0  0
  4  5  1  0  0  0  0
  4  6  2  0  0  0  0
  5  7  2  0  0  0  0
  6  8  1  0  0  0  0
  6  9  1  0  0  0  0
  8 10  1  0  0  0  0
  9 11  1  0  0  0  0
 10 12  2  0  0  0  0
 10 13  1  0  0  0  0
 12 14  1  0  0  0  0
 13 15  2  0  0  0  0
 14 16  2  0  0  0  0
 14 17  1  0  0  0  0
 17 18  1  0  0  0  0
 18 19  1  0  0  0  0
 19 20  1  0  0  0  0
 19 21  1  0  0  0  0
 20 22  1  0  0  0  0
 21 23  1  0  0  0  0
 22 24  1  0  0  0  0
 24 25  1  0  0  0  0
 25 26  1  0  0  0  0
 25 27  2  0  0  0  0
 26 28  1  0  0  0  0
 26 29  2  0  0  0  0
 27 30  1  0  0  0  0
 28 31  2  0  0  0  0
 28 32  1  0  0  0  0
 29 33  1  0  0  0  0
 31 34  1  0  0  0  0
 34 35  1  0  0  0  0
  7  8  1  0  0  0  0
 11 12  1  0  0  0  0
 15 16  1  0  0  0  0
 23 24  1  0  0  0  0
 30 32  2  0  0  0  0
 33 34  2  0  0  0  0
M  END
>  <MolRegNo>
701137

>  <m>
=

>  <Value>
1.0e5

>  <Unit>
nM

>  <Type>
IC50

>  <pValue>
4

>  <Ligand Efficiency>
0

>  <Binding Efficiency>
0

>  <Surface Efficiency>
0

>  <Assay Index>
502945

>  <Assay Category>


>  <Assay Organism>
Homo sapiens

>  <Target ID>
17045

>  <Target Name>
Cytochrome P450 3A4

>  <Target Organism>
Homo sapiens

>  <Target Description>
Target is a single protein chain

>  <Sequence Accession>
P08684

>  <Reference>
J Med Chem 53 (15), 5827-5843 (2010)

>  <Pubmed ID>
20590088

>  <DOI>
10.1021/jm100482n

$$$$
701136
Actelion Java MolfileCreator 1.0

 36 41  0  0  0  0  0  0  0  0999 V2000
    0.0000   -0.0000   -0.0000 O   0  0  0  0  0  0  0  0  0  0  0  0
   -1.0221   -1.1053   -0.0000 C   0  0  0  0  0  0  0  0  0  0  0  0
   -0.5705   -2.5197   -0.0000 N   0  0  0  0  0  0  0  0  0  0  0  0
   -2.5078   -0.7844   -0.0000 C   0  0  0  0  0  0  0  0  0  0  0  0
    0.8914   -2.8168   -0.0000 C   0  0  0  0  0  0  0  0  0  0  0  0
   -3.1259    0.5943   -0.0000 N   0  0  0  0  0  0  0  0  0  0  0  0
   -3.6250   -1.7709   -0.0000 C   0  0  0  0  0  0  0  0  0  0  0  0
   -4.6234    0.4516   -0.0000 C   0  0  0  0  0  0  0  0  0  0  0  0
   -4.9324   -1.0103   -0.0000 N   0  0  0  0  0  0  0  0  0  0  0  0
   -3.6250   -3.2566   -0.0000 C   0  0  0  0  0  0  0  0  0  0  0  0
   -6.2279   -1.7471   -0.0000 C   0  0  0  0  0  0  0  0  0  0  0  0
   -4.9324   -3.9935   -0.0000 O   0  0  0  0  0  0  0  0  0  0  0  0
   -6.2398   -3.2328   -0.0000 C   0  0  0  0  0  0  0  0  0  0  0  0
   -7.5472   -0.9746   -0.0000 C   0  0  0  0  0  0  0  0  0  0  0  0
   -7.5591   -3.9578   -0.0000 C   0  0  0  0  0  0  0  0  0  0  0  0
   -8.8665   -1.7234   -0.0000 C   0  0  0  0  0  0  0  0  0  0  0  0
   -8.8665   -3.2091   -0.0000 C   0  0  0  0  0  0  0  0  0  0  0  0
   -7.5710   -5.4554   -0.0000 C   0  0  0  0  0  0  0  0  0  0  0  0
   -8.8903   -6.1923   -0.0000 C   0  0  0  0  0  0  0  0  0  0  0  0
   -8.9021   -7.6898   -0.0000 N   0  0  0  0  0  0  0  0  0  0  0  0
   -7.6066   -8.4386   -0.0000 C   0  0  0  0  0  0  0  0  0  0  0  0
  -10.2214   -8.4267   -0.0000 C   0  0  0  0  0  0  0  0  0  0  0  0
   -7.6185   -9.9243   -0.0000 C   0  0  0  0  0  0  0  0  0  0  0  0
  -10.2333   -9.9243   -0.0000 C   0  0  0  0  0  0  0  0  0  0  0  0
   -8.9259  -10.6612   -0.0000 N   0  0  0  0  0  0  0  0  0  0  0  0
   -8.9378  -12.1587   -0.0000 C   0  0  0  0  0  0  0  0  0  0  0  0
   -7.6423  -12.8956   -0.0000 C   0  0  0  0  0  0  0  0  0  0  0  0
  -10.2452  -12.8956   -0.0000 C   0  0  0  0  0  0  0  0  0  0  0  0
   -7.6542  -14.3932   -0.0000 C   0  0  0  0  0  0  0  0  0  0  0  0
   -6.3587  -12.1231   -0.0000 C   0  0  0  0  0  0  0  0  0  0  0  0
  -10.2571  -14.3932   -0.0000 C   0  0  0  0  0  0  0  0  0  0  0  0
   -6.3587  -15.1301   -0.0000 N   0  0  0  0  0  0  0  0  0  0  0  0
   -8.9735  -15.1420   -0.0000 C   0  0  0  0  0  0  0  0  0  0  0  0
   -5.0632  -12.8481   -0.0000 C   0  0  0  0  0  0  0  0  0  0  0  0
   -5.0632  -14.3575   -0.0000 C   0  0  0  0  0  0  0  0  0  0  0  0
   -3.7677  -15.0944   -0.0000 C   0  0  0  0  0  0  0  0  0  0  0  0
  1  2  2  0  0  0  0
  2  3  1  0  0  0  0
  2  4  1  0  0  0  0
  3  5  1  0  0  0  0
  4  6  1  0  0  0  0
  4  7  2  0  0  0  0
  6  8  2  0  0  0  0
  7  9  1  0  0  0  0
  7 10  1  0  0  0  0
  9 11  1  0  0  0  0
 10 12  1  0  0  0  0
 11 13  2  0  0  0  0
 11 14  1  0  0  0  0
 13 15  1  0  0  0  0
 14 16  2  0  0  0  0
 15 17  2  0  0  0  0
 15 18  1  0  0  0  0
 18 19  1  0  0  0  0
 19 20  1  0  0  0  0
 20 21  1  0  0  0  0
 20 22  1  0  0  0  0
 21 23  1  0  0  0  0
 22 24  1  0  0  0  0
 23 25  1  0  0  0  0
 25 26  1  0  0  0  0
 26 27  1  0  0  0  0
 26 28  2  0  0  0  0
 27 29  1  0  0  0  0
 27 30  2  0  0  0  0
 28 31  1  0  0  0  0
 29 32  2  0  0  0  0
 29 33  1  0  0  0  0
 30 34  1  0  0  0  0
 32 35  1  0  0  0  0
 35 36  1  0  0  0  0
  8  9  1  0  0  0  0
 12 13  1  0  0  0  0
 16 17  1  0  0  0  0
 24 25  1  0  0  0  0
 31 33  2  0  0  0  0
 34 35  2  0  0  0  0
M  END
>  <MolRegNo>
701136

>  <m>
=

>  <Value>
21000

>  <Unit>
nM

>  <Type>
IC50

>  <pValue>
4.68

>  <Ligand Efficiency>
0

>  <Binding Efficiency>
0

>  <Surface Efficiency>
0

>  <Assay Index>
502945

>  <Assay Category>


>  <Assay Organism>
Homo sapiens

>  <Target ID>
17045

>  <Target Name>
Cytochrome P450 3A4

>  <Target Organism>
Homo sapiens

>  <Target Description>
Target is a single protein chain

>  <Sequence Accession>
P08684

>  <Reference>
J Med Chem 53 (15), 5827-5843 (2010)

>  <Pubmed ID>
20590088

>  <DOI>
10.1021/jm100482n

$$$$
700863
Actelion Java MolfileCreator 1.0

 32 37  0  0  0  0  0  0  0  0999 V2000
    0.0000   -0.0000   -0.0000 O   0  0  0  0  0  0  0  0  0  0  0  0
   -1.2951    0.7604   -0.0000 C   0  0  0  0  0  0  0  0  0  0  0  0
    1.2832    0.7604   -0.0000 C   0  0  0  0  0  0  0  0  0  0  0  0
   -1.3070    2.2694   -0.0000 C   0  0  0  0  0  0  0  0  0  0  0  0
   -2.6140    0.0356   -0.0000 C   0  0  0  0  0  0  0  0  0  0  0  0
    1.2595    2.2694   -0.0000 C   0  0  0  0  0  0  0  0  0  0  0  0
   -0.0356    3.0298   -0.0000 N   0  0  0  0  0  0  0  0  0  0  0  0
   -2.6259    3.0417   -0.0000 C   0  0  0  0  0  0  0  0  0  0  0  0
   -3.9210    0.7842   -0.0000 C   0  0  0  0  0  0  0  0  0  0  0  0
   -2.6259   -1.4615   -0.0000 C   0  0  0  0  0  0  0  0  0  0  0  0
    2.3526    3.2794   -0.0000 C   0  0  0  0  0  0  0  0  0  0  0  0
    0.2614    4.5032   -0.0000 C   0  0  0  0  0  0  0  0  0  0  0  0
   -3.9447    2.2932   -0.0000 C   0  0  0  0  0  0  0  0  0  0  0  0
   -3.9447   -2.1981   -0.0000 C   0  0  0  0  0  0  0  0  0  0  0  0
    1.7347    4.6576   -0.0000 N   0  0  0  0  0  0  0  0  0  0  0  0
   -3.9566   -3.6952   -0.0000 N   0  0  0  0  0  0  0  0  0  0  0  0
   -2.6615   -4.4438   -0.0000 C   0  0  0  0  0  0  0  0  0  0  0  0
   -5.2755   -4.4319   -0.0000 C   0  0  0  0  0  0  0  0  0  0  0  0
   -2.6734   -5.9290   -0.0000 C   0  0  0  0  0  0  0  0  0  0  0  0
   -5.2874   -5.9290   -0.0000 C   0  0  0  0  0  0  0  0  0  0  0  0
   -3.9804   -6.6656   -0.0000 N   0  0  0  0  0  0  0  0  0  0  0  0
   -3.9923   -8.1627   -0.0000 C   0  0  0  0  0  0  0  0  0  0  0  0
   -2.6972   -8.8994   -0.0000 C   0  0  0  0  0  0  0  0  0  0  0  0
   -5.2992   -8.8994   -0.0000 C   0  0  0  0  0  0  0  0  0  0  0  0
   -2.7090  -10.3965   -0.0000 C   0  0  0  0  0  0  0  0  0  0  0  0
   -1.4139   -8.1271   -0.0000 C   0  0  0  0  0  0  0  0  0  0  0  0
   -5.3111  -10.3965   -0.0000 C   0  0  0  0  0  0  0  0  0  0  0  0
   -1.4139  -11.1332   -0.0000 N   0  0  0  0  0  0  0  0  0  0  0  0
   -4.0279  -11.1451   -0.0000 C   0  0  0  0  0  0  0  0  0  0  0  0
   -0.1188   -8.8519   -0.0000 C   0  0  0  0  0  0  0  0  0  0  0  0
   -0.1188  -10.3609   -0.0000 C   0  0  0  0  0  0  0  0  0  0  0  0
    1.1763  -11.0975   -0.0000 C   0  0  0  0  0  0  0  0  0  0  0  0
  1  2  1  0  0  0  0
  1  3  1  0  0  0  0
  2  4  2  0  0  0  0
  2  5  1  0  0  0  0
  3  6  1  0  0  0  0
  4  7  1  0  0  0  0
  4  8  1  0  0  0  0
  5  9  2  0  0  0  0
  5 10  1  0  0  0  0
  6 11  2  0  0  0  0
  7 12  1  0  0  0  0
  8 13  2  0  0  0  0
 10 14  1  0  0  0  0
 11 15  1  0  0  0  0
 14 16  1  0  0  0  0
 16 17  1  0  0  0  0
 16 18  1  0  0  0  0
 17 19  1  0  0  0  0
 18 20  1  0  0  0  0
 19 21  1  0  0  0  0
 21 22  1  0  0  0  0
 22 23  1  0  0  0  0
 22 24  2  0  0  0  0
 23 25  1  0  0  0  0
 23 26  2  0  0  0  0
 24 27  1  0  0  0  0
 25 28  2  0  0  0  0
 25 29  1  0  0  0  0
 26 30  1  0  0  0  0
 28 31  1  0  0  0  0
 31 32  1  0  0  0  0
  6  7  1  0  0  0  0
  9 13  1  0  0  0  0
 12 15  2  0  0  0  0
 20 21  1  0  0  0  0
 27 29  2  0  0  0  0
 30 31  2  0  0  0  0
M  END
>  <MolRegNo>
700863

>  <m>
=

>  <Value>
100

>  <Unit>
nM

>  <Type>
IC50

>  <pValue>
7

>  <Ligand Efficiency>
0

>  <Binding Efficiency>
0

>  <Surface Efficiency>
0

>  <Assay Index>
502941

>  <Assay Category>


>  <Assay Organism>
Homo sapiens

>  <Target ID>
17045

>  <Target Name>
Cytochrome P450 3A4

>  <Target Organism>
Homo sapiens

>  <Target Description>
Target is a single protein chain

>  <Sequence Accession>
P08684

>  <Reference>
J Med Chem 53 (15), 5827-5843 (2010)

>  <Pubmed ID>
20590088

>  <DOI>
10.1021/jm100482n

$$$$
701048
Actelion Java MolfileCreator 1.0

 34 39  0  0  0  0  0  0  0  0999 V2000
    0.0000   -0.0000   -0.0000 O   0  0  0  0  0  0  0  0  0  0  0  0
   -1.2955    0.7607   -0.0000 C   0  0  0  0  0  0  0  0  0  0  0  0
    1.2836    0.7607   -0.0000 C   0  0  0  0  0  0  0  0  0  0  0  0
   -1.3074    2.2701   -0.0000 C   0  0  0  0  0  0  0  0  0  0  0  0
   -2.6148    0.0357   -0.0000 C   0  0  0  0  0  0  0  0  0  0  0  0
    1.2598    2.2701   -0.0000 C   0  0  0  0  0  0  0  0  0  0  0  0
   -0.0357    3.0307   -0.0000 N   0  0  0  0  0  0  0  0  0  0  0  0
   -2.6266    3.0426   -0.0000 C   0  0  0  0  0  0  0  0  0  0  0  0
   -3.9221    0.7844   -0.0000 C   0  0  0  0  0  0  0  0  0  0  0  0
   -2.6266   -1.4619   -0.0000 C   0  0  0  0  0  0  0  0  0  0  0  0
    2.3533    3.2803   -0.0000 C   0  0  0  0  0  0  0  0  0  0  0  0
    0.2615    4.5045   -0.0000 C   0  0  0  0  0  0  0  0  0  0  0  0
   -3.9459    2.2939   -0.0000 C   0  0  0  0  0  0  0  0  0  0  0  0
   -3.9459   -2.1988   -0.0000 C   0  0  0  0  0  0  0  0  0  0  0  0
    1.7352    4.6590   -0.0000 N   0  0  0  0  0  0  0  0  0  0  0  0
    3.8152    2.9832   -0.0000 C   0  0  0  0  0  0  0  0  0  0  0  0
   -3.9578   -3.6963   -0.0000 N   0  0  0  0  0  0  0  0  0  0  0  0
    5.2770    2.6861   -0.0000 N   0  0  0  0  0  0  0  0  0  0  0  0
   -2.6623   -4.4451   -0.0000 C   0  0  0  0  0  0  0  0  0  0  0  0
   -5.2770   -4.4332   -0.0000 C   0  0  0  0  0  0  0  0  0  0  0  0
   -2.6742   -5.9307   -0.0000 C   0  0  0  0  0  0  0  0  0  0  0  0
   -5.2889   -5.9307   -0.0000 C   0  0  0  0  0  0  0  0  0  0  0  0
   -3.9816   -6.6676   -0.0000 N   0  0  0  0  0  0  0  0  0  0  0  0
   -3.9934   -8.1652   -0.0000 C   0  0  0  0  0  0  0  0  0  0  0  0
   -2.6980   -8.9021   -0.0000 C   0  0  0  0  0  0  0  0  0  0  0  0
   -5.3008   -8.9021   -0.0000 C   0  0  0  0  0  0  0  0  0  0  0  0
   -2.7098  -10.3996   -0.0000 C   0  0  0  0  0  0  0  0  0  0  0  0
   -1.4143   -8.1295   -0.0000 C   0  0  0  0  0  0  0  0  0  0  0  0
   -5.3127  -10.3996   -0.0000 C   0  0  0  0  0  0  0  0  0  0  0  0
   -1.4143  -11.1365   -0.0000 N   0  0  0  0  0  0  0  0  0  0  0  0
   -4.0291  -11.1484   -0.0000 C   0  0  0  0  0  0  0  0  0  0  0  0
   -0.1189   -8.8545   -0.0000 C   0  0  0  0  0  0  0  0  0  0  0  0
   -0.1189  -10.3639   -0.0000 C   0  0  0  0  0  0  0  0  0  0  0  0
    1.1766  -11.1008   -0.0000 C   0  0  0  0  0  0  0  0  0  0  0  0
  1  2  1  0  0  0  0
  1  3  1  0  0  0  0
  2  4  2  0  0  0  0
  2  5  1  0  0  0  0
  3  6  1  0  0  0  0
  4  7  1  0  0  0  0
  4  8  1  0  0  0  0
  5  9  2  0  0  0  0
  5 10  1  0  0  0  0
  6 11  2  0  0  0  0
  7 12  1  0  0  0  0
  8 13  2  0  0  0  0
 10 14  1  0  0  0  0
 11 15  1  0  0  0  0
 11 16  1  0  0  0  0
 14 17  1  0  0  0  0
 16 18  3  0  0  0  0
 17 19  1  0  0  0  0
 17 20  1  0  0  0  0
 19 21  1  0  0  0  0
 20 22  1  0  0  0  0
 21 23  1  0  0  0  0
 23 24  1  0  0  0  0
 24 25  1  0  0  0  0
 24 26  2  0  0  0  0
 25 27  1  0  0  0  0
 25 28  2  0  0  0  0
 26 29  1  0  0  0  0
 27 30  2  0  0  0  0
 27 31  1  0  0  0  0
 28 32  1  0  0  0  0
 30 33  1  0  0  0  0
 33 34  1  0  0  0  0
  6  7  1  0  0  0  0
  9 13  1  0  0  0  0
 12 15  2  0  0  0  0
 22 23  1  0  0  0  0
 29 31  2  0  0  0  0
 32 33  2  0  0  0  0
M  END
>  <MolRegNo>
701048

>  <m>
=

>  <Value>
4000

>  <Unit>
nM

>  <Type>
IC50

>  <pValue>
5.4

>  <Ligand Efficiency>
0

>  <Binding Efficiency>
0

>  <Surface Efficiency>
0

>  <Assay Index>
502941

>  <Assay Category>


>  <Assay Organism>
Homo sapiens

>  <Target ID>
17045

>  <Target Name>
Cytochrome P450 3A4

>  <Target Organism>
Homo sapiens

>  <Target Description>
Target is a single protein chain

>  <Sequence Accession>
P08684

>  <Reference>
J Med Chem 53 (15), 5827-5843 (2010)

>  <Pubmed ID>
20590088

>  <DOI>
10.1021/jm100482n

$$$$
702543
Actelion Java MolfileCreator 1.0

 24 26  0  0  0  0  0  0  0  0999 V2000
    0.0000   -0.0000   -0.0000 S   0  0  0  0  0  0  0  0  0  0  0  0
    1.2924   -0.7233   -0.0000 C   0  0  0  0  0  0  0  0  0  0  0  0
   -1.3043   -0.7589   -0.0000 C   0  0  0  0  0  0  0  0  0  0  0  0
    2.5730    0.0593   -0.0000 C   0  0  0  0  0  0  0  0  0  0  0  0
    1.2924   -2.2173   -0.0000 C   0  0  0  0  0  0  0  0  0  0  0  0
   -2.6204   -0.0119   -0.0000 C   0  0  0  0  0  0  0  0  0  0  0  0
    3.8654   -0.6640   -0.0000 C   0  0  0  0  0  0  0  0  0  0  0  0
    2.5849   -2.9406   -0.0000 C   0  0  0  0  0  0  0  0  0  0  0  0
   -3.8654   -0.8537   -0.0000 C   0  0  0  0  0  0  0  0  0  0  0  0
   -2.6560    1.5059   -0.0000 C   0  0  0  0  0  0  0  0  0  0  0  0
    3.8773   -2.1461   -0.0000 C   0  0  0  0  0  0  0  0  0  0  0  0
   -3.9129   -2.3477   -0.0000 N   0  0  0  0  0  0  0  0  0  0  0  0
   -5.2883   -0.3439   -0.0000 C   0  0  0  0  0  0  0  0  0  0  0  0
   -1.3754    2.2766   -0.0000 C   0  0  0  0  0  0  0  0  0  0  0  0
   -3.9840    2.2529   -0.0000 C   0  0  0  0  0  0  0  0  0  0  0  0
    5.1697   -2.8694   -0.0000 C   0  0  0  0  0  0  0  0  0  0  0  0
   -5.3594   -2.7627   -0.0000 C   0  0  0  0  0  0  0  0  0  0  0  0
   -6.2013   -1.5296   -0.0000 N   0  0  0  0  0  0  0  0  0  0  0  0
   -1.3991    3.7824   -0.0000 C   0  0  0  0  0  0  0  0  0  0  0  0
   -4.0077    3.7706   -0.0000 C   0  0  0  0  0  0  0  0  0  0  0  0
    5.1816   -4.3634   -0.0000 F   0  0  0  0  0  0  0  0  0  0  0  0
    6.4503   -2.0869   -0.0000 F   0  0  0  0  0  0  0  0  0  0  0  0
    6.4503   -3.6046   -0.0000 F   0  0  0  0  0  0  0  0  0  0  0  0
   -2.7153    4.5413   -0.0000 N   0  0  0  0  0  0  0  0  0  0  0  0
  1  2  1  0  0  0  0
  1  3  1  0  0  0  0
  2  4  2  0  0  0  0
  2  5  1  0  0  0  0
  3  6  1  0  0  0  0
  4  7  1  0  0  0  0
  5  8  2  0  0  0  0
  6  9  1  0  0  0  0
  6 10  1  0  0  0  0
  7 11  2  0  0  0  0
  9 12  1  0  0  0  0
  9 13  2  0  0  0  0
 10 14  1  0  0  0  0
 10 15  1  0  0  0  0
 11 16  1  0  0  0  0
 12 17  2  0  0  0  0
 13 18  1  0  0  0  0
 14 19  1  0  0  0  0
 15 20  1  0  0  0  0
 16 21  1  0  0  0  0
 16 22  1  0  0  0  0
 16 23  1  0  0  0  0
 19 24  1  0  0  0  0
  8 11  1  0  0  0  0
 17 18  1  0  0  0  0
 20 24  1  0  0  0  0
M  END
>  <MolRegNo>
702543

>  <m>
=

>  <Value>
17000

>  <Unit>
nM

>  <Type>
IC50

>  <pValue>
4.77

>  <Ligand Efficiency>
0

>  <Binding Efficiency>
0

>  <Surface Efficiency>
0

>  <Assay Index>
504917

>  <Assay Category>


>  <Assay Organism>


>  <Target ID>
17045

>  <Target Name>
Cytochrome P450 3A4

>  <Target Organism>
Homo sapiens

>  <Target Description>
Target is a single protein chain

>  <Sequence Accession>
P08684

>  <Reference>
J Med Chem 53 (17), 6445-6456 (2010)

>  <Pubmed ID>
20690643

>  <DOI>
10.1021/jm100643t

$$$$
702571
Actelion Java MolfileCreator 1.0

 24 26  0  0  0  0  0  0  0  0999 V2000
    0.0000   -0.0000   -0.0000 S   0  0  0  0  0  0  0  0  0  0  0  0
    1.2930   -0.7236   -0.0000 C   0  0  0  0  0  0  0  0  0  0  0  0
   -1.3049   -0.7473   -0.0000 C   0  0  0  0  0  0  0  0  0  0  0  0
    2.5742    0.0475   -0.0000 C   0  0  0  0  0  0  0  0  0  0  0  0
    1.2930   -2.2183   -0.0000 C   0  0  0  0  0  0  0  0  0  0  0  0
   -2.6216   -0.0000   -0.0000 C   0  0  0  0  0  0  0  0  0  0  0  0
    3.8672   -0.6762   -0.0000 C   0  0  0  0  0  0  0  0  0  0  0  0
    2.5861   -2.9419   -0.0000 C   0  0  0  0  0  0  0  0  0  0  0  0
   -3.8672   -0.8422   -0.0000 C   0  0  0  0  0  0  0  0  0  0  0  0
   -2.6572    1.5184   -0.0000 C   0  0  0  0  0  0  0  0  0  0  0  0
    3.8791   -2.1590   -0.0000 C   0  0  0  0  0  0  0  0  0  0  0  0
   -3.9147   -2.3369   -0.0000 N   0  0  0  0  0  0  0  0  0  0  0  0
   -5.2907   -0.3322   -0.0000 C   0  0  0  0  0  0  0  0  0  0  0  0
   -1.3761    2.3013   -0.0000 C   0  0  0  0  0  0  0  0  0  0  0  0
   -3.9858    2.2658   -0.0000 C   0  0  0  0  0  0  0  0  0  0  0  0
    5.1721   -2.8826   -0.0000 C   0  0  0  0  0  0  0  0  0  0  0  0
   -5.3619   -2.7521   -0.0000 C   0  0  0  0  0  0  0  0  0  0  0  0
   -6.2042   -1.5184   -0.0000 N   0  0  0  0  0  0  0  0  0  0  0  0
   -1.3998    3.8079   -0.0000 C   0  0  0  0  0  0  0  0  0  0  0  0
   -4.0096    3.7842   -0.0000 C   0  0  0  0  0  0  0  0  0  0  0  0
    5.1840   -4.3773   -0.0000 C   0  0  0  0  0  0  0  0  0  0  0  0
    6.4533   -2.0997   -0.0000 C   0  0  0  0  0  0  0  0  0  0  0  0
    6.4533   -3.6181   -0.0000 C   0  0  0  0  0  0  0  0  0  0  0  0
   -2.7165    4.5552   -0.0000 N   0  0  0  0  0  0  0  0  0  0  0  0
  1  2  1  0  0  0  0
  1  3  1  0  0  0  0
  2  4  2  0  0  0  0
  2  5  1  0  0  0  0
  3  6  1  0  0  0  0
  4  7  1  0  0  0  0
  5  8  2  0  0  0  0
  6  9  1  0  0  0  0
  6 10  1  0  0  0  0
  7 11  2  0  0  0  0
  9 12  1  0  0  0  0
  9 13  2  0  0  0  0
 10 14  1  0  0  0  0
 10 15  1  0  0  0  0
 11 16  1  0  0  0  0
 12 17  2  0  0  0  0
 13 18  1  0  0  0  0
 14 19  1  0  0  0  0
 15 20  1  0  0  0  0
 16 21  1  0  0  0  0
 16 22  1  0  0  0  0
 16 23  1  0  0  0  0
 19 24  1  0  0  0  0
  8 11  1  0  0  0  0
 17 18  1  0  0  0  0
 20 24  1  0  0  0  0
M  END
>  <MolRegNo>
702571

>  <m>
=

>  <Value>
6500

>  <Unit>
nM

>  <Type>
IC50

>  <pValue>
5.19

>  <Ligand Efficiency>
0

>  <Binding Efficiency>
0

>  <Surface Efficiency>
0

>  <Assay Index>
504917

>  <Assay Category>


>  <Assay Organism>


>  <Target ID>
17045

>  <Target Name>
Cytochrome P450 3A4

>  <Target Organism>
Homo sapiens

>  <Target Description>
Target is a single protein chain

>  <Sequence Accession>
P08684

>  <Reference>
J Med Chem 53 (17), 6445-6456 (2010)

>  <Pubmed ID>
20690643

>  <DOI>
10.1021/jm100643t

$$$$
702573
Actelion Java MolfileCreator 1.0

 24 26  0  0  0  0  0  0  0  0999 V2000
    0.0000   -0.0000   -0.0000 S   0  0  0  0  0  0  0  0  0  0  0  0
    1.2930   -0.7236   -0.0000 C   0  0  0  0  0  0  0  0  0  0  0  0
   -1.3049   -0.7473   -0.0000 C   0  0  0  0  0  0  0  0  0  0  0  0
    2.5742    0.0475   -0.0000 C   0  0  0  0  0  0  0  0  0  0  0  0
    1.2930   -2.2183   -0.0000 C   0  0  0  0  0  0  0  0  0  0  0  0
   -2.6216   -0.0000   -0.0000 C   0  0  0  0  0  0  0  0  0  0  0  0
    3.8672   -0.6762   -0.0000 C   0  0  0  0  0  0  0  0  0  0  0  0
    2.5861   -2.9419   -0.0000 C   0  0  0  0  0  0  0  0  0  0  0  0
   -2.6572    1.5184   -0.0000 C   0  0  0  0  0  0  0  0  0  0  0  0
   -3.8672   -0.8422   -0.0000 C   0  0  0  0  0  0  0  0  0  0  0  0
    3.8791   -2.1590   -0.0000 C   0  0  0  0  0  0  0  0  0  0  0  0
   -1.3761    2.3013   -0.0000 N   0  0  0  0  0  0  0  0  0  0  0  0
   -3.9858    2.2658   -0.0000 C   0  0  0  0  0  0  0  0  0  0  0  0
   -3.9147   -2.3369   -0.0000 N   0  0  0  0  0  0  0  0  0  0  0  0
   -5.2907   -0.3322   -0.0000 C   0  0  0  0  0  0  0  0  0  0  0  0
    5.1721   -2.8826   -0.0000 C   0  0  0  0  0  0  0  0  0  0  0  0
   -1.3998    3.8079   -0.0000 C   0  0  0  0  0  0  0  0  0  0  0  0
   -4.0096    3.7842   -0.0000 C   0  0  0  0  0  0  0  0  0  0  0  0
   -5.3619   -2.7521   -0.0000 C   0  0  0  0  0  0  0  0  0  0  0  0
   -6.2042   -1.5184   -0.0000 N   0  0  0  0  0  0  0  0  0  0  0  0
    5.1840   -4.3773   -0.0000 C   0  0  0  0  0  0  0  0  0  0  0  0
    6.4533   -2.0997   -0.0000 C   0  0  0  0  0  0  0  0  0  0  0  0
    6.4533   -3.6181   -0.0000 C   0  0  0  0  0  0  0  0  0  0  0  0
   -2.7165    4.5552   -0.0000 C   0  0  0  0  0  0  0  0  0  0  0  0
  1  2  1  0  0  0  0
  1  3  1  0  0  0  0
  2  4  2  0  0  0  0
  2  5  1  0  0  0  0
  3  6  1  0  0  0  0
  4  7  1  0  0  0  0
  5  8  2  0  0  0  0
  6  9  1  0  0  0  0
  6 10  1  0  0  0  0
  7 11  2  0  0  0  0
  9 12  2  0  0  0  0
  9 13  1  0  0  0  0
 10 14  1  0  0  0  0
 10 15  2  0  0  0  0
 11 16  1  0  0  0  0
 12 17  1  0  0  0  0
 13 18  2  0  0  0  0
 14 19  2  0  0  0  0
 15 20  1  0  0  0  0
 16 21  1  0  0  0  0
 16 22  1  0  0  0  0
 16 23  1  0  0  0  0
 17 24  2  0  0  0  0
  8 11  1  0  0  0  0
 18 24  1  0  0  0  0
 19 20  1  0  0  0  0
M  END
>  <MolRegNo>
702573

>  <m>
=

>  <Value>
270

>  <Unit>
nM

>  <Type>
IC50

>  <pValue>
6.57

>  <Ligand Efficiency>
0

>  <Binding Efficiency>
0

>  <Surface Efficiency>
0

>  <Assay Index>
504917

>  <Assay Category>


>  <Assay Organism>


>  <Target ID>
17045

>  <Target Name>
Cytochrome P450 3A4

>  <Target Organism>
Homo sapiens

>  <Target Description>
Target is a single protein chain

>  <Sequence Accession>
P08684

>  <Reference>
J Med Chem 53 (17), 6445-6456 (2010)

>  <Pubmed ID>
20690643

>  <DOI>
10.1021/jm100643t

$$$$
702606
Actelion Java MolfileCreator 1.0

 24 26  0  0  0  0  0  0  0  0999 V2000
    0.0000   -0.0000   -0.0000 S   0  0  0  0  0  0  0  0  0  0  0  0
    1.2924   -0.7233   -0.0000 C   0  0  0  0  0  0  0  0  0  0  0  0
   -1.3043   -0.7589   -0.0000 C   0  0  0  0  0  0  0  0  0  0  0  0
    2.5730    0.0593   -0.0000 C   0  0  0  0  0  0  0  0  0  0  0  0
    1.2924   -2.2173   -0.0000 C   0  0  0  0  0  0  0  0  0  0  0  0
   -2.6204   -0.0119   -0.0000 C   0  0  0  0  0  0  0  0  0  0  0  0
    3.8654   -0.6640   -0.0000 C   0  0  0  0  0  0  0  0  0  0  0  0
    2.5849   -2.9406   -0.0000 C   0  0  0  0  0  0  0  0  0  0  0  0
   -2.6560    1.5059   -0.0000 C   0  0  0  0  0  0  0  0  0  0  0  0
   -3.8654   -0.8537   -0.0000 C   0  0  0  0  0  0  0  0  0  0  0  0
    3.8773   -2.1461   -0.0000 C   0  0  0  0  0  0  0  0  0  0  0  0
   -1.3754    2.2766   -0.0000 C   0  0  0  0  0  0  0  0  0  0  0  0
   -3.9840    2.2529   -0.0000 C   0  0  0  0  0  0  0  0  0  0  0  0
   -3.9129   -2.3477   -0.0000 N   0  0  0  0  0  0  0  0  0  0  0  0
   -5.2883   -0.3439   -0.0000 C   0  0  0  0  0  0  0  0  0  0  0  0
    5.1697   -2.8694   -0.0000 C   0  0  0  0  0  0  0  0  0  0  0  0
   -1.3991    3.7824   -0.0000 C   0  0  0  0  0  0  0  0  0  0  0  0
   -4.0077    3.7706   -0.0000 C   0  0  0  0  0  0  0  0  0  0  0  0
   -5.3594   -2.7627   -0.0000 C   0  0  0  0  0  0  0  0  0  0  0  0
   -6.2013   -1.5296   -0.0000 N   0  0  0  0  0  0  0  0  0  0  0  0
    5.1816   -4.3634   -0.0000 F   0  0  0  0  0  0  0  0  0  0  0  0
    6.4503   -2.0869   -0.0000 F   0  0  0  0  0  0  0  0  0  0  0  0
    6.4503   -3.6046   -0.0000 F   0  0  0  0  0  0  0  0  0  0  0  0
   -2.7153    4.5413   -0.0000 N   0  0  0  0  0  0  0  0  0  0  0  0
  1  2  1  0  0  0  0
  1  3  1  0  0  0  0
  2  4  2  0  0  0  0
  2  5  1  0  0  0  0
  3  6  1  0  0  0  0
  4  7  1  0  0  0  0
  5  8  2  0  0  0  0
  6  9  1  0  0  0  0
  6 10  1  0  0  0  0
  7 11  2  0  0  0  0
  9 12  2  0  0  0  0
  9 13  1  0  0  0  0
 10 14  1  0  0  0  0
 10 15  2  0  0  0  0
 11 16  1  0  0  0  0
 12 17  1  0  0  0  0
 13 18  2  0  0  0  0
 14 19  2  0  0  0  0
 15 20  1  0  0  0  0
 16 21  1  0  0  0  0
 16 22  1  0  0  0  0
 16 23  1  0  0  0  0
 17 24  2  0  0  0  0
  8 11  1  0  0  0  0
 18 24  1  0  0  0  0
 19 20  1  0  0  0  0
M  END
>  <MolRegNo>
702606

>  <m>
=

>  <Value>
350

>  <Unit>
nM

>  <Type>
IC50

>  <pValue>
6.46

>  <Ligand Efficiency>
0

>  <Binding Efficiency>
0

>  <Surface Efficiency>
0

>  <Assay Index>
504917

>  <Assay Category>


>  <Assay Organism>


>  <Target ID>
17045

>  <Target Name>
Cytochrome P450 3A4

>  <Target Organism>
Homo sapiens

>  <Target Description>
Target is a single protein chain

>  <Sequence Accession>
P08684

>  <Reference>
J Med Chem 53 (17), 6445-6456 (2010)

>  <Pubmed ID>
20690643

>  <DOI>
10.1021/jm100643t

$$$$
692415
Actelion Java MolfileCreator 1.0

 30 33  0  0  0  0  0  0  0  0999 V2000
    0.0000   -0.0000   -0.0000 O   0  0  0  0  0  0  0  0  0  0  0  0
    1.2832    0.7535   -0.0000 C   0  0  0  0  0  0  0  0  0  0  0  0
    2.5665    0.0235   -0.0000 N   0  0  0  0  0  0  0  0  0  0  0  0
    1.2715    2.2604   -0.0000 C   0  0  0  0  0  0  0  0  0  0  0  0
    2.5547   -1.4598   -0.0000 C   0  0  0  0  0  0  0  0  0  0  0  0
   -0.0353    3.0138   -0.0000 C   0  0  0  0  0  0  0  0  0  0  0  0
    2.5547    3.0138   -0.0000 C   0  0  0  0  0  0  0  0  0  0  0  0
    1.7895   -2.7430   -0.0000 C   0  0  0  0  0  0  0  0  0  0  0  0
    3.2846   -2.7430   -0.0000 C   0  0  0  0  0  0  0  0  0  0  0  0
   -0.0471    4.5207   -0.0000 C   0  0  0  0  0  0  0  0  0  0  0  0
    2.5429    4.5207   -0.0000 C   0  0  0  0  0  0  0  0  0  0  0  0
   -1.3539    5.2742   -0.0000 N   0  0  0  0  0  0  0  0  0  0  0  0
    1.2361    5.2742   -0.0000 C   0  0  0  0  0  0  0  0  0  0  0  0
   -1.3656    6.7811   -0.0000 C   0  0  0  0  0  0  0  0  0  0  0  0
    1.2244    6.7811   -0.0000 C   0  0  0  0  0  0  0  0  0  0  0  0
   -0.0824    7.5345   -0.0000 N   0  0  0  0  0  0  0  0  0  0  0  0
   -2.6724    7.5345   -0.0000 C   0  0  0  0  0  0  0  0  0  0  0  0
   -0.0942    9.0415   -0.0000 C   0  0  0  0  0  0  0  0  0  0  0  0
   -2.6842    9.0415   -0.0000 N   0  0  0  0  0  0  0  0  0  0  0  0
   -4.1087    7.0872   -0.0000 C   0  0  0  0  0  0  0  0  0  0  0  0
   -1.4010    9.7949   -0.0000 N   0  0  0  0  0  0  0  0  0  0  0  0
   -4.1205    9.5124   -0.0000 C   0  0  0  0  0  0  0  0  0  0  0  0
   -5.0034    8.3115   -0.0000 C   0  0  0  0  0  0  0  0  0  0  0  0
   -4.5796    5.6745   -0.0000 C   0  0  0  0  0  0  0  0  0  0  0  0
   -6.5103    8.3233   -0.0000 C   0  0  0  0  0  0  0  0  0  0  0  0
   -7.2638    7.0401   -0.0000 O   0  0  0  0  0  0  0  0  0  0  0  0
   -7.2638    9.6301   -0.0000 N   0  0  0  0  0  0  0  0  0  0  0  0
   -8.7707    9.6419   -0.0000 C   0  0  0  0  0  0  0  0  0  0  0  0
   -9.5359   10.9486   -0.0000 C   0  0  0  0  0  0  0  0  0  0  0  0
  -11.0428   10.9604   -0.0000 C   0  0  0  0  0  0  0  0  0  0  0  0
  1  2  2  0  0  0  0
  2  3  1  0  0  0  0
  2  4  1  0  0  0  0
  3  5  1  0  0  0  0
  4  6  2  0  0  0  0
  4  7  1  0  0  0  0
  5  8  1  0  0  0  0
  5  9  1  0  0  0  0
  6 10  1  0  0  0  0
  7 11  2  0  0  0  0
 10 12  1  0  0  0  0
 10 13  2  0  0  0  0
 12 14  1  0  0  0  0
 13 15  1  0  0  0  0
 14 16  2  0  0  0  0
 14 17  1  0  0  0  0
 16 18  1  0  0  0  0
 17 19  1  0  0  0  0
 17 20  2  0  0  0  0
 18 21  2  0  0  0  0
 19 22  1  0  0  0  0
 20 23  1  0  0  0  0
 20 24  1  0  0  0  0
 23 25  1  0  0  0  0
 25 26  2  0  0  0  0
 25 27  1  0  0  0  0
 27 28  1  0  0  0  0
 28 29  1  0  0  0  0
 29 30  1  0  0  0  0
  8  9  1  0  0  0  0
 11 13  1  0  0  0  0
 19 21  1  0  0  0  0
 22 23  2  0  0  0  0
M  END
>  <MolRegNo>
692415

>  <m>
=

>  <Value>
18000

>  <Unit>
nM

>  <Type>
IC50

>  <pValue>
4.75

>  <Ligand Efficiency>
0

>  <Binding Efficiency>
0

>  <Surface Efficiency>
0

>  <Assay Index>
508453

>  <Assay Category>


>  <Assay Organism>


>  <Target ID>
17045

>  <Target Name>
Cytochrome P450 3A4

>  <Target Organism>
Homo sapiens

>  <Target Description>
Target is a single protein chain

>  <Sequence Accession>
P08684

>  <Reference>
J Med Chem 53 (18), 6629-6639 (2010)

>  <Pubmed ID>
20804198

>  <DOI>
10.1021/jm100540x

$$$$
706709
Actelion Java MolfileCreator 1.0

 38 42  0  0  0  0  0  0  0  0999 V2000
    0.0000   -0.0000   -0.0000 F   0  0  0  0  0  0  0  0  0  0  0  0
   -1.3279    0.7351   -0.0000 C   0  0  0  0  0  0  0  0  0  0  0  0
   -2.6201   -0.0356   -0.0000 C   0  0  0  0  0  0  0  0  0  0  0  0
   -1.3871    2.2526   -0.0000 C   0  0  0  0  0  0  0  0  0  0  0  0
   -3.9480    0.6995   -0.0000 C   0  0  0  0  0  0  0  0  0  0  0  0
   -2.7150    2.9758   -0.0000 C   0  0  0  0  0  0  0  0  0  0  0  0
   -3.9954    2.2052   -0.0000 C   0  0  0  0  0  0  0  0  0  0  0  0
   -5.3233    2.9284   -0.0000 C   0  0  0  0  0  0  0  0  0  0  0  0
   -6.5326    2.0511   -0.0000 C   0  0  0  0  0  0  0  0  0  0  0  0
   -5.8094    4.3630   -0.0000 C   0  0  0  0  0  0  0  0  0  0  0  0
   -7.7656    2.9284   -0.0000 N   0  0  0  0  0  0  0  0  0  0  0  0
   -7.0068    0.6402   -0.0000 C   0  0  0  0  0  0  0  0  0  0  0  0
   -4.9439    5.5960   -0.0000 O   0  0  0  0  0  0  0  0  0  0  0  0
   -7.3151    4.3630   -0.0000 C   0  0  0  0  0  0  0  0  0  0  0  0
   -8.9867    2.0629   -0.0000 C   0  0  0  0  0  0  0  0  0  0  0  0
   -8.5125    0.6284   -0.0000 C   0  0  0  0  0  0  0  0  0  0  0  0
   -6.5326   -0.7706   -0.0000 C   0  0  0  0  0  0  0  0  0  0  0  0
   -4.9676    7.1135   -0.0000 C   0  0  0  0  0  0  0  0  0  0  0  0
  -10.4213    2.5253   -0.0000 O   0  0  0  0  0  0  0  0  0  0  0  0
   -8.9630   -0.7943   -0.0000 C   0  0  0  0  0  0  0  0  0  0  0  0
   -7.7419   -1.6598   -0.0000 C   0  0  0  0  0  0  0  0  0  0  0  0
   -3.6872    7.8841   -0.0000 C   0  0  0  0  0  0  0  0  0  0  0  0
   -6.2836    7.8604   -0.0000 C   0  0  0  0  0  0  0  0  0  0  0  0
   -7.7300   -3.1418   -0.0000 O   0  0  0  0  0  0  0  0  0  0  0  0
   -6.4733   -2.3830   -0.0000 C   0  0  0  0  0  0  0  0  0  0  0  0
   -2.4067    7.1609   -0.0000 C   0  0  0  0  0  0  0  0  0  0  0  0
   -3.7227    9.3898   -0.0000 C   0  0  0  0  0  0  0  0  0  0  0  0
   -1.1263    7.9197   -0.0000 C   0  0  0  0  0  0  0  0  0  0  0  0
   -2.4542   10.1605   -0.0000 C   0  0  0  0  0  0  0  0  0  0  0  0
   -1.1500    9.4373   -0.0000 C   0  0  0  0  0  0  0  0  0  0  0  0
    0.1660    7.1965   -0.0000 C   0  0  0  0  0  0  0  0  0  0  0  0
   -2.4779   11.6662   -0.0000 C   0  0  0  0  0  0  0  0  0  0  0  0
    0.1660    5.7145   -0.0000 F   0  0  0  0  0  0  0  0  0  0  0  0
    1.4464    7.9671   -0.0000 F   0  0  0  0  0  0  0  0  0  0  0  0
    1.4464    6.4614   -0.0000 F   0  0  0  0  0  0  0  0  0  0  0  0
   -1.1974   12.4368   -0.0000 F   0  0  0  0  0  0  0  0  0  0  0  0
   -3.7939   12.4131   -0.0000 F   0  0  0  0  0  0  0  0  0  0  0  0
   -2.5016   13.1837   -0.0000 F   0  0  0  0  0  0  0  0  0  0  0  0
  1  2  1  0  0  0  0
  2  3  2  0  0  0  0
  2  4  1  0  0  0  0
  3  5  1  0  0  0  0
  4  6  2  0  0  0  0
  5  7  2  0  0  0  0
  8  7  1  1  0  0  0
  8  9  1  0  0  0  0
  8 10  1  0  0  0  0
  9 11  1  6  0  0  0
  9 12  1  0  0  0  0
 10 13  1  6  0  0  0
 10 14  1  0  0  0  0
 11 15  1  0  0  0  0
 12 16  1  0  0  0  0
 12 17  1  6  0  0  0
 18 13  1  6  0  0  0
 15 19  2  0  0  0  0
 16 20  1  6  0  0  0
 17 21  1  0  0  0  0
 18 22  1  0  0  0  0
 18 23  1  0  0  0  0
 21 24  1  6  0  0  0
 21 25  1  0  0  0  0
 22 26  2  0  0  0  0
 22 27  1  0  0  0  0
 26 28  1  0  0  0  0
 27 29  2  0  0  0  0
 28 30  2  0  0  0  0
 28 31  1  0  0  0  0
 29 32  1  0  0  0  0
 31 33  1  0  0  0  0
 31 34  1  0  0  0  0
 31 35  1  0  0  0  0
 32 36  1  0  0  0  0
 32 37  1  0  0  0  0
 32 38  1  0  0  0  0
  6  7  1  0  0  0  0
 11 14  1  0  0  0  0
 15 16  1  0  0  0  0
 20 21  1  0  0  0  0
 29 30  1  0  0  0  0
M  END
>  <MolRegNo>
706709

>  <m>
=

>  <Value>
22680

>  <Unit>
nM

>  <Type>
IC50

>  <pValue>
4.64

>  <Ligand Efficiency>
0

>  <Binding Efficiency>
0

>  <Surface Efficiency>
0

>  <Assay Index>
509378

>  <Assay Category>


>  <Assay Organism>


>  <Target ID>
17045

>  <Target Name>
Cytochrome P450 3A4

>  <Target Organism>
Homo sapiens

>  <Target Description>
Target is a single protein chain

>  <Sequence Accession>
P08684

>  <Reference>
Bioorg Med Chem Lett 20 (19), 5925-5932 (2010)

>  <Pubmed ID>
20729082

>  <DOI>
10.1016/j.bmcl.2010.07.058

$$$$
706487
Actelion Java MolfileCreator 1.0

 31 35  0  0  0  0  0  0  0  0999 V2000
    0.0000   -0.0000   -0.0000 O   0  0  0  0  0  0  0  0  0  0  0  0
   -0.8730   -1.2033   -0.0000 C   0  0  0  0  0  0  0  0  0  0  0  0
   -0.2595   -2.5600   -0.0000 N   0  0  0  0  0  0  0  0  0  0  0  0
   -2.3830   -1.0499   -0.0000 C   0  0  0  0  0  0  0  0  0  0  0  0
   -1.1443   -3.7751   -0.0000 C   0  0  0  0  0  0  0  0  0  0  0  0
    1.2269   -2.5364   -0.0000 C   0  0  0  0  0  0  0  0  0  0  0  0
   -3.2678   -2.2651   -0.0000 N   0  0  0  0  0  0  0  0  0  0  0  0
   -3.2914    0.1770   -0.0000 C   0  0  0  0  0  0  0  0  0  0  0  0
   -2.6544   -3.6099   -0.0000 C   0  0  0  0  0  0  0  0  0  0  0  0
    1.9701   -3.8341   -0.0000 C   0  0  0  0  0  0  0  0  0  0  0  0
   -4.7189   -1.7932   -0.0000 C   0  0  0  0  0  0  0  0  0  0  0  0
   -4.7307   -0.2831   -0.0000 C   0  0  0  0  0  0  0  0  0  0  0  0
    3.4566   -3.8223   -0.0000 C   0  0  0  0  0  0  0  0  0  0  0  0
    1.2151   -5.1082   -0.0000 C   0  0  0  0  0  0  0  0  0  0  0  0
   -6.0283   -2.5246   -0.0000 C   0  0  0  0  0  0  0  0  0  0  0  0
   -6.0401    0.4719   -0.0000 C   0  0  0  0  0  0  0  0  0  0  0  0
    4.1880   -5.0964   -0.0000 C   0  0  0  0  0  0  0  0  0  0  0  0
    1.9465   -6.3823   -0.0000 C   0  0  0  0  0  0  0  0  0  0  0  0
   -7.3378   -1.7696   -0.0000 C   0  0  0  0  0  0  0  0  0  0  0  0
   -7.3378   -0.2595   -0.0000 C   0  0  0  0  0  0  0  0  0  0  0  0
    3.4330   -6.3705   -0.0000 N   0  0  0  0  0  0  0  0  0  0  0  0
   -8.6473    0.4955   -0.0000 O   0  0  0  0  0  0  0  0  0  0  0  0
   -8.6591    2.0055   -0.0000 C   0  0  0  0  0  0  0  0  0  0  0  0
   -7.3732    2.7723   -0.0000 C   0  0  0  0  0  0  0  0  0  0  0  0
   -9.9686    2.7605   -0.0000 C   0  0  0  0  0  0  0  0  0  0  0  0
   -7.3850    4.2706   -0.0000 C   0  0  0  0  0  0  0  0  0  0  0  0
   -9.9686    4.2706   -0.0000 C   0  0  0  0  0  0  0  0  0  0  0  0
   -8.6827    5.0374   -0.0000 N   0  0  0  0  0  0  0  0  0  0  0  0
   -8.6945    6.5474   -0.0000 C   0  0  0  0  0  0  0  0  0  0  0  0
   -7.4086    7.3024   -0.0000 C   0  0  0  0  0  0  0  0  0  0  0  0
   -9.9922    7.3142   -0.0000 C   0  0  0  0  0  0  0  0  0  0  0  0
  1  2  2  0  0  0  0
  2  3  1  0  0  0  0
  2  4  1  0  0  0  0
  3  5  1  0  0  0  0
  3  6  1  0  0  0  0
  4  7  1  0  0  0  0
  4  8  2  0  0  0  0
  5  9  1  0  0  0  0
  6 10  1  0  0  0  0
  7 11  1  0  0  0  0
  8 12  1  0  0  0  0
 10 13  2  0  0  0  0
 10 14  1  0  0  0  0
 11 15  1  0  0  0  0
 12 16  1  0  0  0  0
 13 17  1  0  0  0  0
 14 18  2  0  0  0  0
 15 19  2  0  0  0  0
 16 20  2  0  0  0  0
 17 21  2  0  0  0  0
 20 22  1  0  0  0  0
 22 23  1  0  0  0  0
 23 24  1  0  0  0  0
 23 25  1  0  0  0  0
 24 26  1  0  0  0  0
 25 27  1  0  0  0  0
 26 28  1  0  0  0  0
 28 29  1  0  0  0  0
 29 30  1  0  0  0  0
 29 31  1  0  0  0  0
  7  9  1  0  0  0  0
 11 12  2  0  0  0  0
 18 21  1  0  0  0  0
 19 20  1  0  0  0  0
 27 28  1  0  0  0  0
M  END
>  <MolRegNo>
706487

>  <m>
=

>  <Value>
6000

>  <Unit>
nM

>  <Type>
IC50

>  <pValue>
5.22

>  <Ligand Efficiency>
0

>  <Binding Efficiency>
0

>  <Surface Efficiency>
0

>  <Assay Index>
509561

>  <Assay Category>


>  <Assay Organism>


>  <Target ID>
17045

>  <Target Name>
Cytochrome P450 3A4

>  <Target Organism>
Homo sapiens

>  <Target Description>
Target is a single protein chain

>  <Sequence Accession>
P08684

>  <Reference>
Bioorg Med Chem Lett 20 (19), 5713-5717 (2010)

>  <Pubmed ID>
20801030

>  <DOI>
10.1016/j.bmcl.2010.08.009

$$$$
706969
Actelion Java MolfileCreator 1.0

 25 28  0  0  0  0  0  0  0  0999 V2000
    0.0000   -0.0000   -0.0000 O   0  0  0  0  0  0  0  0  0  0  0  0
   -0.8701   -1.1994   -0.0000 C   0  0  0  0  0  0  0  0  0  0  0  0
   -0.2587   -2.5516   -0.0000 N   0  0  0  0  0  0  0  0  0  0  0  0
   -2.3752   -1.0465   -0.0000 C   0  0  0  0  0  0  0  0  0  0  0  0
   -1.1406   -3.7627   -0.0000 C   0  0  0  0  0  0  0  0  0  0  0  0
   -3.2571   -2.2576   -0.0000 N   0  0  0  0  0  0  0  0  0  0  0  0
   -3.2806    0.1764   -0.0000 C   0  0  0  0  0  0  0  0  0  0  0  0
   -2.6456   -3.5981   -0.0000 C   0  0  0  0  0  0  0  0  0  0  0  0
   -4.7034   -1.7873   -0.0000 C   0  0  0  0  0  0  0  0  0  0  0  0
   -4.7151   -0.2822   -0.0000 C   0  0  0  0  0  0  0  0  0  0  0  0
   -3.5275   -4.7974   -0.0000 C   0  0  0  0  0  0  0  0  0  0  0  0
   -6.0086   -2.5163   -0.0000 C   0  0  0  0  0  0  0  0  0  0  0  0
   -6.0203    0.4703   -0.0000 C   0  0  0  0  0  0  0  0  0  0  0  0
   -7.3137   -1.7638   -0.0000 C   0  0  0  0  0  0  0  0  0  0  0  0
   -7.3137   -0.2587   -0.0000 C   0  0  0  0  0  0  0  0  0  0  0  0
   -8.6189    0.4939   -0.0000 O   0  0  0  0  0  0  0  0  0  0  0  0
   -8.6307    1.9989   -0.0000 C   0  0  0  0  0  0  0  0  0  0  0  0
   -7.3490    2.7632   -0.0000 C   0  0  0  0  0  0  0  0  0  0  0  0
   -9.9359    2.7515   -0.0000 C   0  0  0  0  0  0  0  0  0  0  0  0
   -7.3608    4.2566   -0.0000 C   0  0  0  0  0  0  0  0  0  0  0  0
   -9.9359    4.2566   -0.0000 C   0  0  0  0  0  0  0  0  0  0  0  0
   -8.6542    5.0209   -0.0000 N   0  0  0  0  0  0  0  0  0  0  0  0
   -8.6660    6.5259   -0.0000 C   0  0  0  0  0  0  0  0  0  0  0  0
   -7.3843    7.2785   -0.0000 C   0  0  0  0  0  0  0  0  0  0  0  0
   -9.9594    7.2902   -0.0000 C   0  0  0  0  0  0  0  0  0  0  0  0
  1  2  2  0  0  0  0
  2  3  1  0  0  0  0
  2  4  1  0  0  0  0
  3  5  1  0  0  0  0
  4  6  1  0  0  0  0
  4  7  2  0  0  0  0
  5  8  1  0  0  0  0
  6  9  1  0  0  0  0
  7 10  1  0  0  0  0
  8 11  1  6  0  0  0
  9 12  1  0  0  0  0
 10 13  1  0  0  0  0
 12 14  2  0  0  0  0
 13 15  2  0  0  0  0
 15 16  1  0  0  0  0
 16 17  1  0  0  0  0
 17 18  1  0  0  0  0
 17 19  1  0  0  0  0
 18 20  1  0  0  0  0
 19 21  1  0  0  0  0
 20 22  1  0  0  0  0
 22 23  1  0  0  0  0
 23 24  1  0  0  0  0
 23 25  1  0  0  0  0
  6  8  1  0  0  0  0
  9 10  2  0  0  0  0
 14 15  1  0  0  0  0
 21 22  1  0  0  0  0
M  END
>  <MolRegNo>
706969

>  <m>
=

>  <Value>
26000

>  <Unit>
nM

>  <Type>
IC50

>  <pValue>
4.58

>  <Ligand Efficiency>
0

>  <Binding Efficiency>
0

>  <Surface Efficiency>
0

>  <Assay Index>
509561

>  <Assay Category>


>  <Assay Organism>


>  <Target ID>
17045

>  <Target Name>
Cytochrome P450 3A4

>  <Target Organism>
Homo sapiens

>  <Target Description>
Target is a single protein chain

>  <Sequence Accession>
P08684

>  <Reference>
Bioorg Med Chem Lett 20 (19), 5713-5717 (2010)

>  <Pubmed ID>
20801030

>  <DOI>
10.1016/j.bmcl.2010.08.009

$$$$
706568
Actelion Java MolfileCreator 1.0

 29 33  0  0  0  0  0  0  0  0999 V2000
    0.0000   -0.0000   -0.0000 O   0  0  0  0  0  0  0  0  0  0  0  0
    0.8915   -1.1887   -0.0000 C   0  0  0  0  0  0  0  0  0  0  0  0
    0.4279   -2.6152   -0.0000 O   0  0  0  0  0  0  0  0  0  0  0  0
    2.3774   -1.1649   -0.0000 C   0  0  0  0  0  0  0  0  0  0  0  0
    1.6523   -3.4710   -0.0000 C   0  0  0  0  0  0  0  0  0  0  0  0
    2.8410   -2.5795   -0.0000 C   0  0  0  0  0  0  0  0  0  0  0  0
    3.3522   -0.0238   -0.0000 C   0  0  0  0  0  0  0  0  0  0  0  0
    0.3447   -4.2318   -0.0000 C   0  0  0  0  0  0  0  0  0  0  0  0
    2.9480   -4.1962   -0.0000 C   0  0  0  0  0  0  0  0  0  0  0  0
    4.3031   -2.8648   -0.0000 C   0  0  0  0  0  0  0  0  0  0  0  0
    4.8262   -0.3091   -0.0000 C   0  0  0  0  0  0  0  0  0  0  0  0
    0.3447   -5.7296   -0.0000 C   0  0  0  0  0  0  0  0  0  0  0  0
   -0.9747   -3.4829   -0.0000 C   0  0  0  0  0  0  0  0  0  0  0  0
    2.9480   -5.6939   -0.0000 C   0  0  0  0  0  0  0  0  0  0  0  0
    4.2318   -3.4116   -0.0000 C   0  0  0  0  0  0  0  0  0  0  0  0
    5.2898   -1.7117   -0.0000 C   0  0  0  0  0  0  0  0  0  0  0  0
    1.6404   -6.4547   -0.0000 O   0  0  0  0  0  0  0  0  0  0  0  0
   -0.9629   -6.4904   -0.0000 C   0  0  0  0  0  0  0  0  0  0  0  0
   -2.2823   -4.2437   -0.0000 C   0  0  0  0  0  0  0  0  0  0  0  0
    4.2437   -6.4191   -0.0000 C   0  0  0  0  0  0  0  0  0  0  0  0
    5.5275   -4.1367   -0.0000 C   0  0  0  0  0  0  0  0  0  0  0  0
   -2.2823   -5.7415   -0.0000 C   0  0  0  0  0  0  0  0  0  0  0  0
    5.5275   -5.6345   -0.0000 C   0  0  0  0  0  0  0  0  0  0  0  0
   -3.5899   -6.5023   -0.0000 O   0  0  0  0  0  0  0  0  0  0  0  0
    6.8351   -6.3596   -0.0000 O   0  0  0  0  0  0  0  0  0  0  0  0
   -4.9213   -5.7534   -0.0000 C   0  0  0  0  0  0  0  0  0  0  0  0
    8.1189   -5.5751   -0.0000 C   0  0  0  0  0  0  0  0  0  0  0  0
   -6.2289   -6.5142   -0.0000 C   0  0  0  0  0  0  0  0  0  0  0  0
    9.4265   -6.3002   -0.0000 C   0  0  0  0  0  0  0  0  0  0  0  0
  1  2  2  0  0  0  0
  2  3  1  0  0  0  0
  2  4  1  0  0  0  0
  3  5  1  0  0  0  0
  4  6  2  0  0  0  0
  4  7  1  0  0  0  0
  5  8  1  0  0  0  0
  5  9  1  0  0  0  0
  6 10  1  0  0  0  0
  7 11  2  0  0  0  0
  8 12  2  0  0  0  0
  8 13  1  0  0  0  0
  9 14  2  0  0  0  0
  9 15  1  0  0  0  0
 10 16  2  0  0  0  0
 12 17  1  0  0  0  0
 12 18  1  0  0  0  0
 13 19  2  0  0  0  0
 14 20  1  0  0  0  0
 15 21  2  0  0  0  0
 18 22  2  0  0  0  0
 20 23  2  0  0  0  0
 22 24  1  0  0  0  0
 23 25  1  0  0  0  0
 24 26  1  0  0  0  0
 25 27  1  0  0  0  0
 26 28  1  0  0  0  0
 27 29  1  0  0  0  0
  5  6  1  0  0  0  0
 11 16  1  0  0  0  0
 14 17  1  0  0  0  0
 19 22  1  0  0  0  0
 21 23  1  0  0  0  0
M  END
>  <MolRegNo>
706568

>  <m>
=

>  <Value>
1000

>  <Unit>
nM

>  <Type>
IC50

>  <pValue>
6

>  <Ligand Efficiency>
0

>  <Binding Efficiency>
0

>  <Surface Efficiency>
0

>  <Assay Index>
510511

>  <Assay Category>


>  <Assay Organism>
Homo sapiens

>  <Target ID>
17045

>  <Target Name>
Cytochrome P450 3A4

>  <Target Organism>
Homo sapiens

>  <Target Description>
Target is a single protein chain

>  <Sequence Accession>
P08684

>  <Reference>
J Med Chem 53 (19), 7129-7139 (2010)

>  <Pubmed ID>
20839775

>  <DOI>
10.1021/jm100832d

$$$$
709604
Actelion Java MolfileCreator 1.0

 33 35  0  0  0  0  0  0  0  0999 V2000
    0.0000   -0.0000   -0.0000 F   0  0  0  0  0  0  0  0  0  0  0  0
    1.2869    0.7626   -0.0000 C   0  0  0  0  0  0  0  0  0  0  0  0
    1.2750    2.2878   -0.0000 C   0  0  0  0  0  0  0  0  0  0  0  0
    2.5737    0.0238   -0.0000 C   0  0  0  0  0  0  0  0  0  0  0  0
    2.5618    3.0504   -0.0000 C   0  0  0  0  0  0  0  0  0  0  0  0
    3.8725    0.7864   -0.0000 C   0  0  0  0  0  0  0  0  0  0  0  0
    2.5499    4.5636   -0.0000 F   0  0  0  0  0  0  0  0  0  0  0  0
    3.8606    2.3116   -0.0000 C   0  0  0  0  0  0  0  0  0  0  0  0
    5.1713    0.0477   -0.0000 C   0  0  0  0  0  0  0  0  0  0  0  0
    6.4582    0.8103   -0.0000 C   0  0  0  0  0  0  0  0  0  0  0  0
    6.4463    2.3235   -0.0000 N   0  0  0  0  0  0  0  0  0  0  0  0
    7.7451    0.0715   -0.0000 C   0  0  0  0  0  0  0  0  0  0  0  0
    7.7332    3.0861   -0.0000 C   0  0  0  0  0  0  0  0  0  0  0  0
    7.7332   -1.4179   -0.0000 O   0  0  0  0  0  0  0  0  0  0  0  0
    9.0320    0.8341   -0.0000 C   0  0  0  0  0  0  0  0  0  0  0  0
    7.7212    4.5994   -0.0000 O   0  0  0  0  0  0  0  0  0  0  0  0
    9.0200    2.3474   -0.0000 C   0  0  0  0  0  0  0  0  0  0  0  0
   10.3188    0.0953   -0.0000 N   0  0  0  0  0  0  0  0  0  0  0  0
   11.6057    0.8579   -0.0000 C   0  0  0  0  0  0  0  0  0  0  0  0
   12.8926    0.1072   -0.0000 C   0  0  0  0  0  0  0  0  0  0  0  0
   10.8789    2.1925   -0.0000 C   0  0  0  0  0  0  0  0  0  0  0  0
   12.3921    2.1567   -0.0000 C   0  0  0  0  0  0  0  0  0  0  0  0
   14.1794    0.8698   -0.0000 C   0  0  0  0  0  0  0  0  0  0  0  0
   12.8687   -1.3822   -0.0000 C   0  0  0  0  0  0  0  0  0  0  0  0
   15.4663    0.1311   -0.0000 C   0  0  0  0  0  0  0  0  0  0  0  0
   14.1556   -2.1329   -0.0000 C   0  0  0  0  0  0  0  0  0  0  0  0
   15.4544   -1.3703   -0.0000 C   0  0  0  0  0  0  0  0  0  0  0  0
   16.7532    0.8937   -0.0000 C   0  0  0  0  0  0  0  0  0  0  0  0
   18.0401    0.1549   -0.0000 C   0  0  0  0  0  0  0  0  0  0  0  0
   15.6689    1.9780   -0.0000 C   0  0  0  0  0  0  0  0  0  0  0  0
   17.8018    1.9780   -0.0000 C   0  0  0  0  0  0  0  0  0  0  0  0
   19.3269    0.9175   -0.0000 F   0  0  0  0  0  0  0  0  0  0  0  0
   18.0282   -1.3345   -0.0000 F   0  0  0  0  0  0  0  0  0  0  0  0
  1  2  1  0  0  0  0
  2  3  2  0  0  0  0
  2  4  1  0  0  0  0
  3  5  1  0  0  0  0
  4  6  2  0  0  0  0
  5  7  1  0  0  0  0
  5  8  2  0  0  0  0
  6  9  1  0  0  0  0
  9 10  1  0  0  0  0
 10 11  1  1  0  0  0
 10 12  1  0  0  0  0
 11 13  1  0  0  0  0
 12 14  1  6  0  0  0
 12 15  1  0  0  0  0
 13 16  2  0  0  0  0
 13 17  1  0  0  0  0
 15 18  1  0  0  0  0
 18 19  1  0  0  0  0
 19 20  1  0  0  0  0
 19 21  1  0  0  0  0
 19 22  1  0  0  0  0
 20 23  2  0  0  0  0
 20 24  1  0  0  0  0
 23 25  1  0  0  0  0
 24 26  2  0  0  0  0
 25 27  2  0  0  0  0
 25 28  1  0  0  0  0
 28 29  1  0  0  0  0
 28 30  1  0  0  0  0
 28 31  1  0  0  0  0
 29 32  1  0  0  0  0
 29 33  1  0  0  0  0
  6  8  1  0  0  0  0
 21 22  1  0  0  0  0
 26 27  1  0  0  0  0
M  END
>  <MolRegNo>
709604

>  <m>
=

>  <Value>
110

>  <Unit>
nM

>  <Type>
IC50

>  <pValue>
6.96

>  <Ligand Efficiency>
0

>  <Binding Efficiency>
0

>  <Surface Efficiency>
0

>  <Assay Index>
518699

>  <Assay Category>


>  <Assay Organism>


>  <Target ID>
17045

>  <Target Name>
Cytochrome P450 3A4

>  <Target Organism>
Homo sapiens

>  <Target Description>
Target is a single protein chain

>  <Sequence Accession>
P08684

>  <Reference>
Bioorg Med Chem Lett 20 (21), 6231-6236 (2010)

>  <Pubmed ID>
20833041

>  <DOI>
10.1016/j.bmcl.2010.08.102

$$$$
708906
Actelion Java MolfileCreator 1.0

 44 48  0  0  0  0  0  0  0  0999 V2000
    0.0000   -0.0000   -0.0000 Cl  0  0  0  0  0  0  0  0  0  0  0  0
    1.2921    0.7657   -0.0000 C   0  0  0  0  0  0  0  0  0  0  0  0
    2.5842    0.0239   -0.0000 C   0  0  0  0  0  0  0  0  0  0  0  0
    1.2801    2.2851   -0.0000 C   0  0  0  0  0  0  0  0  0  0  0  0
    2.5722   -1.4716   -0.0000 O   0  0  0  0  0  0  0  0  0  0  0  0
    3.8883    0.7896   -0.0000 C   0  0  0  0  0  0  0  0  0  0  0  0
    2.5722    3.0508   -0.0000 C   0  0  0  0  0  0  0  0  0  0  0  0
    3.8643   -2.2133   -0.0000 C   0  0  0  0  0  0  0  0  0  0  0  0
    5.1804    0.0479   -0.0000 Cl  0  0  0  0  0  0  0  0  0  0  0  0
    3.8763    2.3210   -0.0000 C   0  0  0  0  0  0  0  0  0  0  0  0
    2.5603    4.5702   -0.0000 C   0  0  0  0  0  0  0  0  0  0  0  0
    3.8524   -3.7088   -0.0000 C   0  0  0  0  0  0  0  0  0  0  0  0
    5.1445   -4.4506   -0.0000 O   0  0  0  0  0  0  0  0  0  0  0  0
    5.1325   -5.9461   -0.0000 C   0  0  0  0  0  0  0  0  0  0  0  0
    3.8165   -6.6878   -0.0000 C   0  0  0  0  0  0  0  0  0  0  0  0
    6.4246   -6.6759   -0.0000 C   0  0  0  0  0  0  0  0  0  0  0  0
    3.8045   -8.1833   -0.0000 C   0  0  0  0  0  0  0  0  0  0  0  0
    6.4127   -8.1713   -0.0000 C   0  0  0  0  0  0  0  0  0  0  0  0
    5.0966   -8.9251   -0.0000 C   0  0  0  0  0  0  0  0  0  0  0  0
    5.0847  -10.4206   -0.0000 C   0  0  0  0  0  0  0  0  0  0  0  0
    6.3768  -11.1504   -0.0000 C   0  0  0  0  0  0  0  0  0  0  0  0
    3.7686  -11.1623   -0.0000 C   0  0  0  0  0  0  0  0  0  0  0  0
    7.6689  -10.3847   -0.0000 C   0  0  0  0  0  0  0  0  0  0  0  0
    6.3648  -12.6578   -0.0000 C   0  0  0  0  0  0  0  0  0  0  0  0
    3.7567  -12.6578   -0.0000 C   0  0  0  0  0  0  0  0  0  0  0  0
    7.6569   -8.8653   -0.0000 O   0  0  0  0  0  0  0  0  0  0  0  0
    8.9610  -11.1264   -0.0000 N   0  0  0  0  0  0  0  0  0  0  0  0
    5.0488  -13.3996   -0.0000 N   0  0  0  0  0  0  0  0  0  0  0  0
    8.9490  -12.6219   -0.0000 C   0  0  0  0  0  0  0  0  0  0  0  0
   10.2531  -10.3607   -0.0000 C   0  0  0  0  0  0  0  0  0  0  0  0
    8.1833  -13.9140   -0.0000 C   0  0  0  0  0  0  0  0  0  0  0  0
    9.6908  -13.9140   -0.0000 C   0  0  0  0  0  0  0  0  0  0  0  0
   11.5452  -11.1025   -0.0000 C   0  0  0  0  0  0  0  0  0  0  0  0
   12.8373  -10.3249   -0.0000 C   0  0  0  0  0  0  0  0  0  0  0  0
   11.5332  -12.5980   -0.0000 C   0  0  0  0  0  0  0  0  0  0  0  0
   12.8133   -8.8054   -0.0000 Cl  0  0  0  0  0  0  0  0  0  0  0  0
   14.1294  -11.0546   -0.0000 C   0  0  0  0  0  0  0  0  0  0  0  0
   12.8253  -13.3398   -0.0000 C   0  0  0  0  0  0  0  0  0  0  0  0
   14.1294  -12.5621   -0.0000 C   0  0  0  0  0  0  0  0  0  0  0  0
   12.8133  -14.8352   -0.0000 C   0  0  0  0  0  0  0  0  0  0  0  0
   14.1054  -15.5770   -0.0000 C   0  0  0  0  0  0  0  0  0  0  0  0
   14.0935  -17.0725   -0.0000 C   0  0  0  0  0  0  0  0  0  0  0  0
   15.3856  -17.8143   -0.0000 O   0  0  0  0  0  0  0  0  0  0  0  0
   15.3736  -19.3097   -0.0000 C   0  0  0  0  0  0  0  0  0  0  0  0
  1  2  1  0  0  0  0
  2  3  2  0  0  0  0
  2  4  1  0  0  0  0
  3  5  1  0  0  0  0
  3  6  1  0  0  0  0
  4  7  2  0  0  0  0
  5  8  1  0  0  0  0
  6  9  1  0  0  0  0
  6 10  2  0  0  0  0
  7 11  1  0  0  0  0
  8 12  1  0  0  0  0
 12 13  1  0  0  0  0
 13 14  1  0  0  0  0
 14 15  2  0  0  0  0
 14 16  1  0  0  0  0
 15 17  1  0  0  0  0
 16 18  2  0  0  0  0
 17 19  2  0  0  0  0
 20 19  1  6  0  0  0
 20 21  1  0  0  0  0
 20 22  1  0  0  0  0
 21 23  1  1  0  0  0
 21 24  1  0  0  0  0
 22 25  1  0  0  0  0
 23 26  2  0  0  0  0
 23 27  1  0  0  0  0
 24 28  1  0  0  0  0
 27 29  1  0  0  0  0
 27 30  1  0  0  0  0
 29 31  1  0  0  0  0
 29 32  1  0  0  0  0
 30 33  1  0  0  0  0
 33 34  2  0  0  0  0
 33 35  1  0  0  0  0
 34 36  1  0  0  0  0
 34 37  1  0  0  0  0
 35 38  2  0  0  0  0
 37 39  2  0  0  0  0
 38 40  1  0  0  0  0
 40 41  1  0  0  0  0
 41 42  1  0  0  0  0
 42 43  1  0  0  0  0
 43 44  1  0  0  0  0
  7 10  1  0  0  0  0
 18 19  1  0  0  0  0
 25 28  1  0  0  0  0
 31 32  1  0  0  0  0
 38 39  1  0  0  0  0
M  END
>  <MolRegNo>
708906

>  <m>
=

>  <Value>
4800

>  <Unit>
nM

>  <Type>
IC50

>  <pValue>
5.32

>  <Ligand Efficiency>
0

>  <Binding Efficiency>
0

>  <Surface Efficiency>
0

>  <Assay Index>
518879

>  <Assay Category>


>  <Assay Organism>


>  <Target ID>
17045

>  <Target Name>
Cytochrome P450 3A4

>  <Target Organism>
Homo sapiens

>  <Target Description>
Target is a single protein chain

>  <Sequence Accession>
P08684

>  <Reference>
Bioorg Med Chem Lett 20 (21), 6286-6290 (2010)

>  <Pubmed ID>
20843686

>  <DOI>
10.1016/j.bmcl.2010.08.086

$$$$
709906
Actelion Java MolfileCreator 1.0

 40 44  0  0  0  0  0  0  0  0999 V2000
    0.0000   -0.0000   -0.0000 Cl  0  0  0  0  0  0  0  0  0  0  0  0
    1.2915    0.7653   -0.0000 C   0  0  0  0  0  0  0  0  0  0  0  0
    2.5830    0.0239   -0.0000 C   0  0  0  0  0  0  0  0  0  0  0  0
    1.2795    2.2840   -0.0000 C   0  0  0  0  0  0  0  0  0  0  0  0
    2.5710   -1.4709   -0.0000 O   0  0  0  0  0  0  0  0  0  0  0  0
    3.8864    0.7892   -0.0000 C   0  0  0  0  0  0  0  0  0  0  0  0
    2.5710    3.0493   -0.0000 C   0  0  0  0  0  0  0  0  0  0  0  0
    3.8625   -2.2123   -0.0000 C   0  0  0  0  0  0  0  0  0  0  0  0
    5.1779    0.0478   -0.0000 Cl  0  0  0  0  0  0  0  0  0  0  0  0
    3.8745    2.3199   -0.0000 C   0  0  0  0  0  0  0  0  0  0  0  0
    2.5591    4.5680   -0.0000 C   0  0  0  0  0  0  0  0  0  0  0  0
    3.8505   -3.7070   -0.0000 C   0  0  0  0  0  0  0  0  0  0  0  0
    5.1420   -4.4485   -0.0000 O   0  0  0  0  0  0  0  0  0  0  0  0
    5.1301   -5.9432   -0.0000 C   0  0  0  0  0  0  0  0  0  0  0  0
    3.8147   -6.6846   -0.0000 C   0  0  0  0  0  0  0  0  0  0  0  0
    6.4216   -6.6727   -0.0000 C   0  0  0  0  0  0  0  0  0  0  0  0
    3.8027   -8.1794   -0.0000 C   0  0  0  0  0  0  0  0  0  0  0  0
    6.4096   -8.1675   -0.0000 C   0  0  0  0  0  0  0  0  0  0  0  0
    5.0942   -8.9208   -0.0000 C   0  0  0  0  0  0  0  0  0  0  0  0
    5.0822  -10.4156   -0.0000 C   0  0  0  0  0  0  0  0  0  0  0  0
    6.3737  -11.1450   -0.0000 C   0  0  0  0  0  0  0  0  0  0  0  0
    3.7668  -11.1570   -0.0000 C   0  0  0  0  0  0  0  0  0  0  0  0
    7.6652  -10.3797   -0.0000 C   0  0  0  0  0  0  0  0  0  0  0  0
    6.3618  -12.6518   -0.0000 C   0  0  0  0  0  0  0  0  0  0  0  0
    3.7549  -12.6518   -0.0000 C   0  0  0  0  0  0  0  0  0  0  0  0
    7.6532   -8.8610   -0.0000 O   0  0  0  0  0  0  0  0  0  0  0  0
    8.9567  -11.1211   -0.0000 N   0  0  0  0  0  0  0  0  0  0  0  0
    5.0464  -13.3932   -0.0000 N   0  0  0  0  0  0  0  0  0  0  0  0
    8.9447  -12.6159   -0.0000 C   0  0  0  0  0  0  0  0  0  0  0  0
   10.2482  -10.3558   -0.0000 C   0  0  0  0  0  0  0  0  0  0  0  0
    8.1794  -13.9074   -0.0000 C   0  0  0  0  0  0  0  0  0  0  0  0
    9.6861  -13.9074   -0.0000 C   0  0  0  0  0  0  0  0  0  0  0  0
   11.5397  -11.0972   -0.0000 C   0  0  0  0  0  0  0  0  0  0  0  0
   12.8311  -10.3199   -0.0000 C   0  0  0  0  0  0  0  0  0  0  0  0
   11.5277  -12.5920   -0.0000 C   0  0  0  0  0  0  0  0  0  0  0  0
   14.1226  -11.0494   -0.0000 C   0  0  0  0  0  0  0  0  0  0  0  0
   12.8072   -8.8012   -0.0000 C   0  0  0  0  0  0  0  0  0  0  0  0
   12.8192  -13.3334   -0.0000 C   0  0  0  0  0  0  0  0  0  0  0  0
   14.1107  -12.5561   -0.0000 C   0  0  0  0  0  0  0  0  0  0  0  0
   15.4141  -10.2721   -0.0000 C   0  0  0  0  0  0  0  0  0  0  0  0
  1  2  1  0  0  0  0
  2  3  2  0  0  0  0
  2  4  1  0  0  0  0
  3  5  1  0  0  0  0
  3  6  1  0  0  0  0
  4  7  2  0  0  0  0
  5  8  1  0  0  0  0
  6  9  1  0  0  0  0
  6 10  2  0  0  0  0
  7 11  1  0  0  0  0
  8 12  1  0  0  0  0
 12 13  1  0  0  0  0
 13 14  1  0  0  0  0
 14 15  2  0  0  0  0
 14 16  1  0  0  0  0
 15 17  1  0  0  0  0
 16 18  2  0  0  0  0
 17 19  2  0  0  0  0
 20 19  1  6  0  0  0
 20 21  1  0  0  0  0
 20 22  1  0  0  0  0
 21 23  1  1  0  0  0
 21 24  1  0  0  0  0
 22 25  1  0  0  0  0
 23 26  2  0  0  0  0
 23 27  1  0  0  0  0
 24 28  1  0  0  0  0
 27 29  1  0  0  0  0
 27 30  1  0  0  0  0
 29 31  1  0  0  0  0
 29 32  1  0  0  0  0
 30 33  1  0  0  0  0
 33 34  2  0  0  0  0
 33 35  1  0  0  0  0
 34 36  1  0  0  0  0
 34 37  1  0  0  0  0
 35 38  2  0  0  0  0
 36 39  2  0  0  0  0
 36 40  1  0  0  0  0
  7 10  1  0  0  0  0
 18 19  1  0  0  0  0
 25 28  1  0  0  0  0
 31 32  1  0  0  0  0
 38 39  1  0  0  0  0
M  END
>  <MolRegNo>
709906

>  <m>
=

>  <Value>
7400

>  <Unit>
nM

>  <Type>
IC50

>  <pValue>
5.13

>  <Ligand Efficiency>
0

>  <Binding Efficiency>
0

>  <Surface Efficiency>
0

>  <Assay Index>
518879

>  <Assay Category>


>  <Assay Organism>


>  <Target ID>
17045

>  <Target Name>
Cytochrome P450 3A4

>  <Target Organism>
Homo sapiens

>  <Target Description>
Target is a single protein chain

>  <Sequence Accession>
P08684

>  <Reference>
Bioorg Med Chem Lett 20 (21), 6286-6290 (2010)

>  <Pubmed ID>
20843686

>  <DOI>
10.1016/j.bmcl.2010.08.086

$$$$
708907
Actelion Java MolfileCreator 1.0

 43 47  0  0  0  0  0  0  0  0999 V2000
    0.0000   -0.0000   -0.0000 Cl  0  0  0  0  0  0  0  0  0  0  0  0
    1.2919    0.7656   -0.0000 C   0  0  0  0  0  0  0  0  0  0  0  0
    2.5838    0.0239   -0.0000 C   0  0  0  0  0  0  0  0  0  0  0  0
    1.2799    2.2967   -0.0000 C   0  0  0  0  0  0  0  0  0  0  0  0
    2.5718   -1.4713   -0.0000 O   0  0  0  0  0  0  0  0  0  0  0  0
    3.8876    0.7895   -0.0000 C   0  0  0  0  0  0  0  0  0  0  0  0
    2.5718    3.0622   -0.0000 C   0  0  0  0  0  0  0  0  0  0  0  0
    3.8637   -2.2129   -0.0000 C   0  0  0  0  0  0  0  0  0  0  0  0
    5.1795    0.0478   -0.0000 Cl  0  0  0  0  0  0  0  0  0  0  0  0
    3.8756    2.3206   -0.0000 C   0  0  0  0  0  0  0  0  0  0  0  0
    2.5598    4.5814   -0.0000 C   0  0  0  0  0  0  0  0  0  0  0  0
    3.8517   -3.7082   -0.0000 C   0  0  0  0  0  0  0  0  0  0  0  0
    5.1436   -4.4498   -0.0000 O   0  0  0  0  0  0  0  0  0  0  0  0
    5.1316   -5.9450   -0.0000 C   0  0  0  0  0  0  0  0  0  0  0  0
    3.8158   -6.6867   -0.0000 C   0  0  0  0  0  0  0  0  0  0  0  0
    6.4235   -6.6747   -0.0000 C   0  0  0  0  0  0  0  0  0  0  0  0
    3.8039   -8.1819   -0.0000 C   0  0  0  0  0  0  0  0  0  0  0  0
    6.4116   -8.1699   -0.0000 C   0  0  0  0  0  0  0  0  0  0  0  0
    5.0958   -8.9235   -0.0000 C   0  0  0  0  0  0  0  0  0  0  0  0
    5.0838  -10.4188   -0.0000 C   0  0  0  0  0  0  0  0  0  0  0  0
    6.3757  -11.1484   -0.0000 C   0  0  0  0  0  0  0  0  0  0  0  0
    3.7680  -11.1604   -0.0000 C   0  0  0  0  0  0  0  0  0  0  0  0
    7.6675  -10.3829   -0.0000 C   0  0  0  0  0  0  0  0  0  0  0  0
    6.3637  -12.6556   -0.0000 C   0  0  0  0  0  0  0  0  0  0  0  0
    3.7560  -12.6556   -0.0000 C   0  0  0  0  0  0  0  0  0  0  0  0
    7.6556   -8.8637   -0.0000 O   0  0  0  0  0  0  0  0  0  0  0  0
    8.9594  -11.1245   -0.0000 N   0  0  0  0  0  0  0  0  0  0  0  0
    5.0479  -13.3973   -0.0000 N   0  0  0  0  0  0  0  0  0  0  0  0
    8.9475  -12.6198   -0.0000 C   0  0  0  0  0  0  0  0  0  0  0  0
   10.2513  -10.3590   -0.0000 C   0  0  0  0  0  0  0  0  0  0  0  0
    8.1819  -13.9116   -0.0000 C   0  0  0  0  0  0  0  0  0  0  0  0
    9.6891  -13.9116   -0.0000 C   0  0  0  0  0  0  0  0  0  0  0  0
   11.5432  -11.1006   -0.0000 C   0  0  0  0  0  0  0  0  0  0  0  0
   12.8351  -10.3231   -0.0000 C   0  0  0  0  0  0  0  0  0  0  0  0
   11.5312  -12.5958   -0.0000 C   0  0  0  0  0  0  0  0  0  0  0  0
   12.8111   -8.8039   -0.0000 Cl  0  0  0  0  0  0  0  0  0  0  0  0
   14.1270  -11.0528   -0.0000 C   0  0  0  0  0  0  0  0  0  0  0  0
   12.8231  -13.3375   -0.0000 C   0  0  0  0  0  0  0  0  0  0  0  0
   14.1150  -12.5599   -0.0000 C   0  0  0  0  0  0  0  0  0  0  0  0
   12.8111  -14.8327   -0.0000 C   0  0  0  0  0  0  0  0  0  0  0  0
   14.1030  -15.5743   -0.0000 C   0  0  0  0  0  0  0  0  0  0  0  0
   14.0911  -17.0696   -0.0000 O   0  0  0  0  0  0  0  0  0  0  0  0
   15.3829  -17.8112   -0.0000 C   0  0  0  0  0  0  0  0  0  0  0  0
  1  2  1  0  0  0  0
  2  3  2  0  0  0  0
  2  4  1  0  0  0  0
  3  5  1  0  0  0  0
  3  6  1  0  0  0  0
  4  7  2  0  0  0  0
  5  8  1  0  0  0  0
  6  9  1  0  0  0  0
  6 10  2  0  0  0  0
  7 11  1  0  0  0  0
  8 12  1  0  0  0  0
 12 13  1  0  0  0  0
 13 14  1  0  0  0  0
 14 15  2  0  0  0  0
 14 16  1  0  0  0  0
 15 17  1  0  0  0  0
 16 18  2  0  0  0  0
 17 19  2  0  0  0  0
 20 19  1  6  0  0  0
 20 21  1  0  0  0  0
 20 22  1  0  0  0  0
 21 23  1  1  0  0  0
 21 24  1  0  0  0  0
 22 25  1  0  0  0  0
 23 26  2  0  0  0  0
 23 27  1  0  0  0  0
 24 28  1  0  0  0  0
 27 29  1  0  0  0  0
 27 30  1  0  0  0  0
 29 31  1  0  0  0  0
 29 32  1  0  0  0  0
 30 33  1  0  0  0  0
 33 34  2  0  0  0  0
 33 35  1  0  0  0  0
 34 36  1  0  0  0  0
 34 37  1  0  0  0  0
 35 38  2  0  0  0  0
 37 39  2  0  0  0  0
 38 40  1  0  0  0  0
 40 41  1  0  0  0  0
 41 42  1  0  0  0  0
 42 43  1  0  0  0  0
  7 10  1  0  0  0  0
 18 19  1  0  0  0  0
 25 28  1  0  0  0  0
 31 32  1  0  0  0  0
 38 39  1  0  0  0  0
M  END
>  <MolRegNo>
708907

>  <m>
=

>  <Value>
3200

>  <Unit>
nM

>  <Type>
IC50

>  <pValue>
5.5

>  <Ligand Efficiency>
0

>  <Binding Efficiency>
0

>  <Surface Efficiency>
0

>  <Assay Index>
518879

>  <Assay Category>


>  <Assay Organism>


>  <Target ID>
17045

>  <Target Name>
Cytochrome P450 3A4

>  <Target Organism>
Homo sapiens

>  <Target Description>
Target is a single protein chain

>  <Sequence Accession>
P08684

>  <Reference>
Bioorg Med Chem Lett 20 (21), 6286-6290 (2010)

>  <Pubmed ID>
20843686

>  <DOI>
10.1016/j.bmcl.2010.08.086

$$$$
708910
Actelion Java MolfileCreator 1.0

 43 47  0  0  0  0  0  0  0  0999 V2000
    0.0000   -0.0000   -0.0000 Cl  0  0  0  0  0  0  0  0  0  0  0  0
    1.2920    0.7656   -0.0000 C   0  0  0  0  0  0  0  0  0  0  0  0
    2.5840    0.0239   -0.0000 C   0  0  0  0  0  0  0  0  0  0  0  0
    1.2801    2.2850   -0.0000 C   0  0  0  0  0  0  0  0  0  0  0  0
    2.5721   -1.4715   -0.0000 O   0  0  0  0  0  0  0  0  0  0  0  0
    3.8880    0.7896   -0.0000 C   0  0  0  0  0  0  0  0  0  0  0  0
    2.5721    3.0506   -0.0000 C   0  0  0  0  0  0  0  0  0  0  0  0
    3.8641   -2.2132   -0.0000 C   0  0  0  0  0  0  0  0  0  0  0  0
    5.1800    0.0479   -0.0000 Cl  0  0  0  0  0  0  0  0  0  0  0  0
    3.8761    2.3209   -0.0000 C   0  0  0  0  0  0  0  0  0  0  0  0
    2.5601    4.5699   -0.0000 C   0  0  0  0  0  0  0  0  0  0  0  0
    3.8521   -3.7086   -0.0000 C   0  0  0  0  0  0  0  0  0  0  0  0
    5.1442   -4.4503   -0.0000 O   0  0  0  0  0  0  0  0  0  0  0  0
    5.1322   -5.9457   -0.0000 C   0  0  0  0  0  0  0  0  0  0  0  0
    3.8162   -6.6874   -0.0000 C   0  0  0  0  0  0  0  0  0  0  0  0
    6.4242   -6.6754   -0.0000 C   0  0  0  0  0  0  0  0  0  0  0  0
    3.8043   -8.1828   -0.0000 C   0  0  0  0  0  0  0  0  0  0  0  0
    6.4122   -8.1708   -0.0000 C   0  0  0  0  0  0  0  0  0  0  0  0
    5.0963   -8.9245   -0.0000 C   0  0  0  0  0  0  0  0  0  0  0  0
    5.0843  -10.4199   -0.0000 C   0  0  0  0  0  0  0  0  0  0  0  0
    6.3764  -11.1497   -0.0000 C   0  0  0  0  0  0  0  0  0  0  0  0
    3.7684  -11.1616   -0.0000 C   0  0  0  0  0  0  0  0  0  0  0  0
    7.6684  -10.3840   -0.0000 C   0  0  0  0  0  0  0  0  0  0  0  0
    6.3644  -12.6570   -0.0000 C   0  0  0  0  0  0  0  0  0  0  0  0
    3.7564  -12.6570   -0.0000 C   0  0  0  0  0  0  0  0  0  0  0  0
    7.6564   -8.8647   -0.0000 O   0  0  0  0  0  0  0  0  0  0  0  0
    8.9604  -11.1257   -0.0000 N   0  0  0  0  0  0  0  0  0  0  0  0
    5.0484  -13.3987   -0.0000 N   0  0  0  0  0  0  0  0  0  0  0  0
    8.9484  -12.6211   -0.0000 C   0  0  0  0  0  0  0  0  0  0  0  0
   10.2524  -10.3601   -0.0000 C   0  0  0  0  0  0  0  0  0  0  0  0
    8.1828  -13.9131   -0.0000 C   0  0  0  0  0  0  0  0  0  0  0  0
    9.6902  -13.9131   -0.0000 C   0  0  0  0  0  0  0  0  0  0  0  0
   11.5444  -11.1018   -0.0000 C   0  0  0  0  0  0  0  0  0  0  0  0
   12.8365  -10.3242   -0.0000 C   0  0  0  0  0  0  0  0  0  0  0  0
   11.5325  -12.5972   -0.0000 C   0  0  0  0  0  0  0  0  0  0  0  0
   12.8125   -8.8049   -0.0000 Cl  0  0  0  0  0  0  0  0  0  0  0  0
   14.1285  -11.0539   -0.0000 C   0  0  0  0  0  0  0  0  0  0  0  0
   12.8245  -13.3389   -0.0000 C   0  0  0  0  0  0  0  0  0  0  0  0
   14.1285  -12.5613   -0.0000 C   0  0  0  0  0  0  0  0  0  0  0  0
   12.8125  -14.8343   -0.0000 C   0  0  0  0  0  0  0  0  0  0  0  0
   14.1046  -15.5760   -0.0000 N   0  0  0  0  0  0  0  0  0  0  0  0
   14.0926  -17.0714   -0.0000 C   0  0  0  0  0  0  0  0  0  0  0  0
   15.3846  -17.8131   -0.0000 C   0  0  0  0  0  0  0  0  0  0  0  0
  1  2  1  0  0  0  0
  2  3  2  0  0  0  0
  2  4  1  0  0  0  0
  3  5  1  0  0  0  0
  3  6  1  0  0  0  0
  4  7  2  0  0  0  0
  5  8  1  0  0  0  0
  6  9  1  0  0  0  0
  6 10  2  0  0  0  0
  7 11  1  0  0  0  0
  8 12  1  0  0  0  0
 12 13  1  0  0  0  0
 13 14  1  0  0  0  0
 14 15  2  0  0  0  0
 14 16  1  0  0  0  0
 15 17  1  0  0  0  0
 16 18  2  0  0  0  0
 17 19  2  0  0  0  0
 20 19  1  6  0  0  0
 20 21  1  0  0  0  0
 20 22  1  0  0  0  0
 21 23  1  1  0  0  0
 21 24  1  0  0  0  0
 22 25  1  0  0  0  0
 23 26  2  0  0  0  0
 23 27  1  0  0  0  0
 24 28  1  0  0  0  0
 27 29  1  0  0  0  0
 27 30  1  0  0  0  0
 29 31  1  0  0  0  0
 29 32  1  0  0  0  0
 30 33  1  0  0  0  0
 33 34  2  0  0  0  0
 33 35  1  0  0  0  0
 34 36  1  0  0  0  0
 34 37  1  0  0  0  0
 35 38  2  0  0  0  0
 37 39  2  0  0  0  0
 38 40  1  0  0  0  0
 40 41  1  0  0  0  0
 41 42  1  0  0  0  0
 42 43  1  0  0  0  0
  7 10  1  0  0  0  0
 18 19  1  0  0  0  0
 25 28  1  0  0  0  0
 31 32  1  0  0  0  0
 38 39  1  0  0  0  0
M  END
>  <MolRegNo>
708910

>  <m>
=

>  <Value>
14000

>  <Unit>
nM

>  <Type>
IC50

>  <pValue>
4.85

>  <Ligand Efficiency>
0

>  <Binding Efficiency>
0

>  <Surface Efficiency>
0

>  <Assay Index>
518879

>  <Assay Category>


>  <Assay Organism>


>  <Target ID>
17045

>  <Target Name>
Cytochrome P450 3A4

>  <Target Organism>
Homo sapiens

>  <Target Description>
Target is a single protein chain

>  <Sequence Accession>
P08684

>  <Reference>
Bioorg Med Chem Lett 20 (21), 6286-6290 (2010)

>  <Pubmed ID>
20843686

>  <DOI>
10.1016/j.bmcl.2010.08.086

$$$$
612537
Actelion Java MolfileCreator 1.0

 40 44  0  0  0  0  0  0  0  0999 V2000
    0.0000   -0.0000   -0.0000 Cl  0  0  0  0  0  0  0  0  0  0  0  0
   -0.0119   -1.4866   -0.0000 C   0  0  0  0  0  0  0  0  0  0  0  0
   -1.3201   -2.2239   -0.0000 C   0  0  0  0  0  0  0  0  0  0  0  0
    1.2725   -2.2239   -0.0000 C   0  0  0  0  0  0  0  0  0  0  0  0
   -2.6283   -1.4628   -0.0000 Cl  0  0  0  0  0  0  0  0  0  0  0  0
   -1.3320   -3.7224   -0.0000 C   0  0  0  0  0  0  0  0  0  0  0  0
    1.2606   -3.7224   -0.0000 C   0  0  0  0  0  0  0  0  0  0  0  0
    2.5569   -1.4628   -0.0000 C   0  0  0  0  0  0  0  0  0  0  0  0
   -0.0476   -4.4597   -0.0000 C   0  0  0  0  0  0  0  0  0  0  0  0
    3.8413   -2.2001   -0.0000 N   0  0  0  0  0  0  0  0  0  0  0  0
    5.1257   -1.4390   -0.0000 C   0  0  0  0  0  0  0  0  0  0  0  0
    3.8413   -3.6867   -0.0000 C   0  0  0  0  0  0  0  0  0  0  0  0
    5.1138    0.0714   -0.0000 O   0  0  0  0  0  0  0  0  0  0  0  0
    6.4101   -2.1764   -0.0000 C   0  0  0  0  0  0  0  0  0  0  0  0
    3.0802   -4.9711   -0.0000 C   0  0  0  0  0  0  0  0  0  0  0  0
    4.5787   -4.9711   -0.0000 C   0  0  0  0  0  0  0  0  0  0  0  0
    7.6945   -1.4152   -0.0000 C   0  0  0  0  0  0  0  0  0  0  0  0
    6.3982   -3.6629   -0.0000 C   0  0  0  0  0  0  0  0  0  0  0  0
    7.6826    0.0951   -0.0000 C   0  0  0  0  0  0  0  0  0  0  0  0
    8.9789   -2.1526   -0.0000 C   0  0  0  0  0  0  0  0  0  0  0  0
    7.6945   -4.4003   -0.0000 N   0  0  0  0  0  0  0  0  0  0  0  0
    6.3745    0.8682   -0.0000 C   0  0  0  0  0  0  0  0  0  0  0  0
    8.9789    0.8563   -0.0000 C   0  0  0  0  0  0  0  0  0  0  0  0
    8.9670   -3.6391   -0.0000 C   0  0  0  0  0  0  0  0  0  0  0  0
    6.3626    2.3785   -0.0000 C   0  0  0  0  0  0  0  0  0  0  0  0
    8.9670    2.3666   -0.0000 C   0  0  0  0  0  0  0  0  0  0  0  0
    7.6470    3.1397   -0.0000 C   0  0  0  0  0  0  0  0  0  0  0  0
    7.6351    4.6500   -0.0000 O   0  0  0  0  0  0  0  0  0  0  0  0
    6.3269    5.4111   -0.0000 C   0  0  0  0  0  0  0  0  0  0  0  0
    6.3150    6.9215   -0.0000 C   0  0  0  0  0  0  0  0  0  0  0  0
    5.0068    7.6826   -0.0000 O   0  0  0  0  0  0  0  0  0  0  0  0
    4.9949    9.1930   -0.0000 C   0  0  0  0  0  0  0  0  0  0  0  0
    6.2912    9.9541   -0.0000 C   0  0  0  0  0  0  0  0  0  0  0  0
    3.6867    9.9422   -0.0000 C   0  0  0  0  0  0  0  0  0  0  0  0
    7.5756    9.2168   -0.0000 Cl  0  0  0  0  0  0  0  0  0  0  0  0
    6.2793   11.4645   -0.0000 C   0  0  0  0  0  0  0  0  0  0  0  0
    2.3785    9.1930   -0.0000 Cl  0  0  0  0  0  0  0  0  0  0  0  0
    3.6629   11.4526   -0.0000 C   0  0  0  0  0  0  0  0  0  0  0  0
    4.9711   12.2256   -0.0000 C   0  0  0  0  0  0  0  0  0  0  0  0
    4.9592   13.7360   -0.0000 C   0  0  0  0  0  0  0  0  0  0  0  0
  1  2  1  0  0  0  0
  2  3  2  0  0  0  0
  2  4  1  0  0  0  0
  3  5  1  0  0  0  0
  3  6  1  0  0  0  0
  4  7  2  0  0  0  0
  4  8  1  0  0  0  0
  6  9  2  0  0  0  0
  8 10  1  0  0  0  0
 10 11  1  0  0  0  0
 10 12  1  0  0  0  0
 11 13  2  0  0  0  0
 11 14  1  0  0  0  0
 12 15  1  0  0  0  0
 12 16  1  0  0  0  0
 14 17  2  0  0  0  0
 14 18  1  0  0  0  0
 17 19  1  0  0  0  0
 17 20  1  0  0  0  0
 18 21  1  0  0  0  0
 19 22  2  0  0  0  0
 19 23  1  0  0  0  0
 20 24  1  0  0  0  0
 22 25  1  0  0  0  0
 23 26  2  0  0  0  0
 25 27  2  0  0  0  0
 27 28  1  0  0  0  0
 28 29  1  0  0  0  0
 29 30  1  0  0  0  0
 30 31  1  0  0  0  0
 31 32  1  0  0  0  0
 32 33  2  0  0  0  0
 32 34  1  0  0  0  0
 33 35  1  0  0  0  0
 33 36  1  0  0  0  0
 34 37  1  0  0  0  0
 34 38  2  0  0  0  0
 36 39  2  0  0  0  0
 39 40  1  0  0  0  0
  7  9  1  0  0  0  0
 15 16  1  0  0  0  0
 21 24  1  0  0  0  0
 26 27  1  0  0  0  0
 38 39  1  0  0  0  0
M  END
>  <MolRegNo>
612537

>  <m>
=

>  <Value>
800

>  <Unit>
nM

>  <Type>
IC50

>  <pValue>
6.1

>  <Ligand Efficiency>
0

>  <Binding Efficiency>
0

>  <Surface Efficiency>
0

>  <Assay Index>
518877

>  <Assay Category>


>  <Assay Organism>


>  <Target ID>
17045

>  <Target Name>
Cytochrome P450 3A4

>  <Target Organism>
Homo sapiens

>  <Target Description>
Target is a single protein chain

>  <Sequence Accession>
P08684

>  <Reference>
Bioorg Med Chem Lett 20 (21), 6286-6290 (2010)

>  <Pubmed ID>
20843686

>  <DOI>
10.1016/j.bmcl.2010.08.086

$$$$
709510
Actelion Java MolfileCreator 1.0

 28 29  0  0  0  0  0  0  0  0999 V2000
    0.0000   -0.0000   -0.0000 F   0  0  0  0  0  0  0  0  0  0  0  0
   -0.0119   -1.4936   -0.0000 C   0  0  0  0  0  0  0  0  0  0  0  0
   -1.3263   -2.2344   -0.0000 F   0  0  0  0  0  0  0  0  0  0  0  0
   -1.3382   -0.7289   -0.0000 F   0  0  0  0  0  0  0  0  0  0  0  0
    1.2785   -2.2344   -0.0000 C   0  0  0  0  0  0  0  0  0  0  0  0
    2.5689   -1.4697   -0.0000 C   0  0  0  0  0  0  0  0  0  0  0  0
    1.2665   -3.7279   -0.0000 C   0  0  0  0  0  0  0  0  0  0  0  0
    3.8594   -2.2105   -0.0000 C   0  0  0  0  0  0  0  0  0  0  0  0
    2.5570   -4.4687   -0.0000 C   0  0  0  0  0  0  0  0  0  0  0  0
    5.1498   -1.4458   -0.0000 C   0  0  0  0  0  0  0  0  0  0  0  0
    3.8474   -3.7160   -0.0000 C   0  0  0  0  0  0  0  0  0  0  0  0
    5.1259    0.0597   -0.0000 N   0  0  0  0  0  0  0  0  0  0  0  0
    6.4402   -2.1866   -0.0000 C   0  0  0  0  0  0  0  0  0  0  0  0
    6.4044    0.8364   -0.0000 C   0  0  0  0  0  0  0  0  0  0  0  0
    7.7307   -1.4219   -0.0000 C   0  0  0  0  0  0  0  0  0  0  0  0
    7.7068    0.0956   -0.0000 N   0  0  0  0  0  0  0  0  0  0  0  0
    6.3805    2.3539   -0.0000 C   0  0  0  0  0  0  0  0  0  0  0  0
    9.0211   -2.1627   -0.0000 C   0  0  0  0  0  0  0  0  0  0  0  0
    6.3566    3.8713   -0.0000 N   0  0  0  0  0  0  0  0  0  0  0  0
   10.3115   -1.3980   -0.0000 C   0  0  0  0  0  0  0  0  0  0  0  0
   11.6020   -2.1388   -0.0000 C   0  0  0  0  0  0  0  0  0  0  0  0
   12.8924   -1.3741   -0.0000 N   0  0  0  0  0  0  0  0  0  0  0  0
   14.1829   -2.1149   -0.0000 C   0  0  0  0  0  0  0  0  0  0  0  0
   15.4733   -1.3502   -0.0000 C   0  0  0  0  0  0  0  0  0  0  0  0
   13.0955   -3.1663   -0.0000 C   0  0  0  0  0  0  0  0  0  0  0  0
   15.2343   -3.1663   -0.0000 C   0  0  0  0  0  0  0  0  0  0  0  0
   15.4613    0.1673   -0.0000 O   0  0  0  0  0  0  0  0  0  0  0  0
   16.7637   -2.0910   -0.0000 N   0  0  0  0  0  0  0  0  0  0  0  0
  1  2  1  0  0  0  0
  2  3  1  0  0  0  0
  2  4  1  0  0  0  0
  2  5  1  0  0  0  0
  5  6  2  0  0  0  0
  5  7  1  0  0  0  0
  6  8  1  0  0  0  0
  7  9  2  0  0  0  0
  8 10  1  0  0  0  0
  8 11  2  0  0  0  0
 10 12  2  0  0  0  0
 10 13  1  0  0  0  0
 12 14  1  0  0  0  0
 13 15  2  0  0  0  0
 14 16  2  0  0  0  0
 14 17  1  0  0  0  0
 15 18  1  0  0  0  0
 17 19  3  0  0  0  0
 18 20  1  0  0  0  0
 20 21  1  0  0  0  0
 21 22  1  0  0  0  0
 22 23  1  0  0  0  0
 23 24  1  0  0  0  0
 23 25  1  0  0  0  0
 23 26  1  0  0  0  0
 24 27  2  0  0  0  0
 24 28  1  0  0  0  0
  9 11  1  0  0  0  0
 15 16  1  0  0  0  0
M  END
>  <MolRegNo>
709510

>  <m>
=

>  <Value>
35000

>  <Unit>
nM

>  <Type>
IC50

>  <pValue>
4.46

>  <Ligand Efficiency>
0

>  <Binding Efficiency>
0

>  <Surface Efficiency>
0

>  <Assay Index>
518895

>  <Assay Category>


>  <Assay Organism>


>  <Target ID>
17045

>  <Target Name>
Cytochrome P450 3A4

>  <Target Organism>
Homo sapiens

>  <Target Description>
Target is a single protein chain

>  <Sequence Accession>
P08684

>  <Reference>
Bioorg Med Chem Lett 20 (21), 6237-6241 (2010)

>  <Pubmed ID>
20843687

>  <DOI>
10.1016/j.bmcl.2010.08.101

$$$$
425898
Actelion Java MolfileCreator 1.0

 28 31  0  0  0  0  0  0  0  0999 V2000
    0.0000   -0.0000   -0.0000 Cl  0  0  0  0  0  0  0  0  0  0  0  0
   -1.3088    0.7546   -0.0000 C   0  0  0  0  0  0  0  0  0  0  0  0
   -2.6176    0.0236   -0.0000 C   0  0  0  0  0  0  0  0  0  0  0  0
   -1.3206    2.2639   -0.0000 C   0  0  0  0  0  0  0  0  0  0  0  0
   -2.6294   -1.4621   -0.0000 N   0  0  0  0  0  0  0  0  0  0  0  0
   -3.9264    0.7782   -0.0000 C   0  0  0  0  0  0  0  0  0  0  0  0
   -2.6294    3.0185   -0.0000 C   0  0  0  0  0  0  0  0  0  0  0  0
   -3.9382   -2.2049   -0.0000 C   0  0  0  0  0  0  0  0  0  0  0  0
   -5.3650    0.3302   -0.0000 O   0  0  0  0  0  0  0  0  0  0  0  0
   -3.9382    2.2875   -0.0000 C   0  0  0  0  0  0  0  0  0  0  0  0
   -3.9500   -3.6906   -0.0000 N   0  0  0  0  0  0  0  0  0  0  0  0
   -5.2470   -1.4503   -0.0000 C   0  0  0  0  0  0  0  0  0  0  0  0
   -6.2611    1.5564   -0.0000 C   0  0  0  0  0  0  0  0  0  0  0  0
   -5.3767    2.7591   -0.0000 O   0  0  0  0  0  0  0  0  0  0  0  0
   -5.2588   -4.4217   -0.0000 C   0  0  0  0  0  0  0  0  0  0  0  0
   -6.5559   -2.1931   -0.0000 C   0  0  0  0  0  0  0  0  0  0  0  0
   -6.5676   -3.6670   -0.0000 N   0  0  0  0  0  0  0  0  0  0  0  0
   -5.2706   -5.9073   -0.0000 N   0  0  0  0  0  0  0  0  0  0  0  0
   -6.5794   -6.6384   -0.0000 C   0  0  0  0  0  0  0  0  0  0  0  0
   -6.5912   -8.1241   -0.0000 C   0  0  0  0  0  0  0  0  0  0  0  0
   -7.8882   -5.8838   -0.0000 C   0  0  0  0  0  0  0  0  0  0  0  0
   -7.9000   -8.8551   -0.0000 C   0  0  0  0  0  0  0  0  0  0  0  0
   -9.1971   -6.6148   -0.0000 C   0  0  0  0  0  0  0  0  0  0  0  0
   -7.9118  -10.3408   -0.0000 S   0  0  0  0  0  0  0  0  0  0  0  0
   -9.2089   -8.1005   -0.0000 C   0  0  0  0  0  0  0  0  0  0  0  0
   -9.4211  -10.3290   -0.0000 O   0  0  0  0  0  0  0  0  0  0  0  0
   -6.4262  -10.3290   -0.0000 O   0  0  0  0  0  0  0  0  0  0  0  0
   -7.9236  -11.8265   -0.0000 C   0  0  0  0  0  0  0  0  0  0  0  0
  1  2  1  0  0  0  0
  2  3  2  0  0  0  0
  2  4  1  0  0  0  0
  3  5  1  0  0  0  0
  3  6  1  0  0  0  0
  4  7  2  0  0  0  0
  5  8  1  0  0  0  0
  6  9  1  0  0  0  0
  6 10  2  0  0  0  0
  8 11  2  0  0  0  0
  8 12  1  0  0  0  0
  9 13  1  0  0  0  0
 10 14  1  0  0  0  0
 11 15  1  0  0  0  0
 12 16  2  0  0  0  0
 15 17  2  0  0  0  0
 15 18  1  0  0  0  0
 18 19  1  0  0  0  0
 19 20  2  0  0  0  0
 19 21  1  0  0  0  0
 20 22  1  0  0  0  0
 21 23  2  0  0  0  0
 22 24  1  0  0  0  0
 22 25  2  0  0  0  0
 24 26  2  0  0  0  0
 24 27  2  0  0  0  0
 24 28  1  0  0  0  0
  7 10  1  0  0  0  0
 13 14  1  0  0  0  0
 16 17  1  0  0  0  0
 23 25  1  0  0  0  0
M  END
>  <MolRegNo>
425898

>  <m>
=

>  <Value>
2600

>  <Unit>
nM

>  <Type>
IC50

>  <pValue>
5.58

>  <Ligand Efficiency>
0

>  <Binding Efficiency>
0

>  <Surface Efficiency>
0

>  <Assay Index>
519083

>  <Assay Category>


>  <Assay Organism>
Homo sapiens

>  <Target ID>
17045

>  <Target Name>
Cytochrome P450 3A4

>  <Target Organism>
Homo sapiens

>  <Target Description>
Target is a single protein chain

>  <Sequence Accession>
P08684

>  <Reference>
Bioorg Med Chem Lett 20 (21), 6242-6245 (2010)

>  <Pubmed ID>
20850301

>  <DOI>
10.1016/j.bmcl.2010.08.100

$$$$
495245
Actelion Java MolfileCreator 1.0

 36 41  0  0  0  0  0  0  0  0999 V2000
    0.0000   -0.0000   -0.0000 Cl  0  0  0  0  0  0  0  0  0  0  0  0
   -0.0119    1.5069   -0.0000 C   0  0  0  0  0  0  0  0  0  0  0  0
   -1.3171    2.2663   -0.0000 C   0  0  0  0  0  0  0  0  0  0  0  0
    1.2696    2.2663   -0.0000 C   0  0  0  0  0  0  0  0  0  0  0  0
   -2.6223    1.5188   -0.0000 N   0  0  0  0  0  0  0  0  0  0  0  0
   -1.3408    3.7614   -0.0000 C   0  0  0  0  0  0  0  0  0  0  0  0
    1.2578    3.7733   -0.0000 C   0  0  0  0  0  0  0  0  0  0  0  0
   -2.6223    0.0356   -0.0000 C   0  0  0  0  0  0  0  0  0  0  0  0
   -2.4680    4.7581   -0.0000 O   0  0  0  0  0  0  0  0  0  0  0  0
   -0.0712    4.5208   -0.0000 C   0  0  0  0  0  0  0  0  0  0  0  0
   -3.9275   -0.7001   -0.0000 N   0  0  0  0  0  0  0  0  0  0  0  0
   -1.3289   -0.7001   -0.0000 C   0  0  0  0  0  0  0  0  0  0  0  0
   -1.8866    6.1345   -0.0000 C   0  0  0  0  0  0  0  0  0  0  0  0
   -0.4034    5.9921   -0.0000 O   0  0  0  0  0  0  0  0  0  0  0  0
   -3.9275   -2.1714   -0.0000 C   0  0  0  0  0  0  0  0  0  0  0  0
   -1.3408   -2.1833   -0.0000 C   0  0  0  0  0  0  0  0  0  0  0  0
   -2.6460   -2.9189   -0.0000 N   0  0  0  0  0  0  0  0  0  0  0  0
   -5.2327   -2.9071   -0.0000 N   0  0  0  0  0  0  0  0  0  0  0  0
   -6.5379   -2.1477   -0.0000 C   0  0  0  0  0  0  0  0  0  0  0  0
   -6.5498   -0.6289   -0.0000 C   0  0  0  0  0  0  0  0  0  0  0  0
   -7.8550   -2.8833   -0.0000 C   0  0  0  0  0  0  0  0  0  0  0  0
   -7.8669    0.1187   -0.0000 C   0  0  0  0  0  0  0  0  0  0  0  0
   -9.1602   -2.1239   -0.0000 C   0  0  0  0  0  0  0  0  0  0  0  0
   -7.8906    1.6256   -0.0000 N   0  0  0  0  0  0  0  0  0  0  0  0
   -9.1602   -0.6170   -0.0000 C   0  0  0  0  0  0  0  0  0  0  0  0
  -10.4654   -2.8596   -0.0000 N   0  0  0  0  0  0  0  0  0  0  0  0
   -6.6091    2.3850   -0.0000 C   0  0  0  0  0  0  0  0  0  0  0  0
   -9.1958    2.3731   -0.0000 C   0  0  0  0  0  0  0  0  0  0  0  0
  -11.7707   -2.0883   -0.0000 C   0  0  0  0  0  0  0  0  0  0  0  0
  -10.4773   -4.3428   -0.0000 C   0  0  0  0  0  0  0  0  0  0  0  0
   -6.6210    3.8919   -0.0000 C   0  0  0  0  0  0  0  0  0  0  0  0
   -9.2077    3.8800   -0.0000 C   0  0  0  0  0  0  0  0  0  0  0  0
  -13.0759   -2.8121   -0.0000 C   0  0  0  0  0  0  0  0  0  0  0  0
  -11.7944   -5.0785   -0.0000 C   0  0  0  0  0  0  0  0  0  0  0  0
   -7.9262    4.6513   -0.0000 O   0  0  0  0  0  0  0  0  0  0  0  0
  -13.0996   -4.2953   -0.0000 O   0  0  0  0  0  0  0  0  0  0  0  0
  1  2  1  0  0  0  0
  2  3  2  0  0  0  0
  2  4  1  0  0  0  0
  3  5  1  0  0  0  0
  3  6  1  0  0  0  0
  4  7  2  0  0  0  0
  5  8  1  0  0  0  0
  6  9  1  0  0  0  0
  6 10  2  0  0  0  0
  8 11  2  0  0  0  0
  8 12  1  0  0  0  0
  9 13  1  0  0  0  0
 10 14  1  0  0  0  0
 11 15  1  0  0  0  0
 12 16  2  0  0  0  0
 15 17  2  0  0  0  0
 15 18  1  0  0  0  0
 18 19  1  0  0  0  0
 19 20  2  0  0  0  0
 19 21  1  0  0  0  0
 20 22  1  0  0  0  0
 21 23  2  0  0  0  0
 22 24  1  0  0  0  0
 22 25  2  0  0  0  0
 23 26  1  0  0  0  0
 24 27  1  0  0  0  0
 24 28  1  0  0  0  0
 26 29  1  0  0  0  0
 26 30  1  0  0  0  0
 27 31  1  0  0  0  0
 28 32  1  0  0  0  0
 29 33  1  0  0  0  0
 30 34  1  0  0  0  0
 31 35  1  0  0  0  0
 33 36  1  0  0  0  0
  7 10  1  0  0  0  0
 13 14  1  0  0  0  0
 16 17  1  0  0  0  0
 23 25  1  0  0  0  0
 32 35  1  0  0  0  0
 34 36  1  0  0  0  0
M  END
>  <MolRegNo>
495245

>  <m>
=

>  <Value>
900

>  <Unit>
nM

>  <Type>
IC50

>  <pValue>
6.05

>  <Ligand Efficiency>
0

>  <Binding Efficiency>
0

>  <Surface Efficiency>
0

>  <Assay Index>
519083

>  <Assay Category>


>  <Assay Organism>
Homo sapiens

>  <Target ID>
17045

>  <Target Name>
Cytochrome P450 3A4

>  <Target Organism>
Homo sapiens

>  <Target Description>
Target is a single protein chain

>  <Sequence Accession>
P08684

>  <Reference>
Bioorg Med Chem Lett 20 (21), 6242-6245 (2010)

>  <Pubmed ID>
20850301

>  <DOI>
10.1016/j.bmcl.2010.08.100

$$$$
709094
Actelion Java MolfileCreator 1.0

 36 41  0  0  0  0  0  0  0  0999 V2000
    0.0000   -0.0000   -0.0000 O   0  0  0  0  0  0  0  0  0  0  0  0
    1.2862   -0.7503   -0.0000 C   0  0  0  0  0  0  0  0  0  0  0  0
   -1.3219   -0.7384   -0.0000 C   0  0  0  0  0  0  0  0  0  0  0  0
    1.2743   -2.2389   -0.0000 C   0  0  0  0  0  0  0  0  0  0  0  0
   -1.3457   -2.2389   -0.0000 C   0  0  0  0  0  0  0  0  0  0  0  0
   -0.0476   -2.9654   -0.0000 N   0  0  0  0  0  0  0  0  0  0  0  0
   -0.0595   -4.4540   -0.0000 C   0  0  0  0  0  0  0  0  0  0  0  0
   -1.3815   -5.1924   -0.0000 C   0  0  0  0  0  0  0  0  0  0  0  0
    1.2266   -5.1924   -0.0000 C   0  0  0  0  0  0  0  0  0  0  0  0
   -1.3934   -6.6929   -0.0000 C   0  0  0  0  0  0  0  0  0  0  0  0
    1.2028   -6.6810   -0.0000 C   0  0  0  0  0  0  0  0  0  0  0  0
   -2.7034   -7.4313   -0.0000 N   0  0  0  0  0  0  0  0  0  0  0  0
   -0.1072   -7.4313   -0.0000 C   0  0  0  0  0  0  0  0  0  0  0  0
    2.4890   -7.4194   -0.0000 N   0  0  0  0  0  0  0  0  0  0  0  0
   -4.0134   -6.6572   -0.0000 C   0  0  0  0  0  0  0  0  0  0  0  0
   -2.7034   -8.9199   -0.0000 C   0  0  0  0  0  0  0  0  0  0  0  0
    3.7752   -6.6572   -0.0000 C   0  0  0  0  0  0  0  0  0  0  0  0
   -5.3234   -7.3955   -0.0000 C   0  0  0  0  0  0  0  0  0  0  0  0
   -4.0253   -9.6583   -0.0000 C   0  0  0  0  0  0  0  0  0  0  0  0
    3.7633   -5.1328   -0.0000 N   0  0  0  0  0  0  0  0  0  0  0  0
    5.0614   -7.3955   -0.0000 N   0  0  0  0  0  0  0  0  0  0  0  0
   -5.3353   -8.8842   -0.0000 O   0  0  0  0  0  0  0  0  0  0  0  0
    5.0495   -4.3706   -0.0000 C   0  0  0  0  0  0  0  0  0  0  0  0
    6.3595   -6.6334   -0.0000 C   0  0  0  0  0  0  0  0  0  0  0  0
    5.0375   -2.8582   -0.0000 N   0  0  0  0  0  0  0  0  0  0  0  0
    6.3475   -5.1090   -0.0000 C   0  0  0  0  0  0  0  0  0  0  0  0
    6.3237   -2.0841   -0.0000 C   0  0  0  0  0  0  0  0  0  0  0  0
    3.7156   -2.0960   -0.0000 C   0  0  0  0  0  0  0  0  0  0  0  0
    7.6099   -2.8225   -0.0000 C   0  0  0  0  0  0  0  0  0  0  0  0
    6.2999   -0.5716   -0.0000 C   0  0  0  0  0  0  0  0  0  0  0  0
    8.8961   -2.0603   -0.0000 C   0  0  0  0  0  0  0  0  0  0  0  0
    7.9076   -4.2754   -0.0000 C   0  0  0  0  0  0  0  0  0  0  0  0
    7.5861    0.2025   -0.0000 C   0  0  0  0  0  0  0  0  0  0  0  0
   10.0036   -3.0487   -0.0000 N   0  0  0  0  0  0  0  0  0  0  0  0
    8.8842   -0.5478   -0.0000 C   0  0  0  0  0  0  0  0  0  0  0  0
    9.3844   -4.4183   -0.0000 N   0  0  0  0  0  0  0  0  0  0  0  0
  1  2  1  0  0  0  0
  1  3  1  0  0  0  0
  2  4  1  0  0  0  0
  3  5  1  0  0  0  0
  4  6  1  0  0  0  0
  6  7  1  0  0  0  0
  7  8  2  0  0  0  0
  7  9  1  0  0  0  0
  8 10  1  0  0  0  0
  9 11  2  0  0  0  0
 10 12  1  0  0  0  0
 10 13  2  0  0  0  0
 11 14  1  0  0  0  0
 12 15  1  0  0  0  0
 12 16  1  0  0  0  0
 14 17  1  0  0  0  0
 15 18  1  0  0  0  0
 16 19  1  0  0  0  0
 17 20  2  0  0  0  0
 17 21  1  0  0  0  0
 18 22  1  0  0  0  0
 20 23  1  0  0  0  0
 21 24  2  0  0  0  0
 23 25  1  0  0  0  0
 23 26  2  0  0  0  0
 25 27  1  0  0  0  0
 25 28  1  0  0  0  0
 27 29  2  0  0  0  0
 27 30  1  0  0  0  0
 29 31  1  0  0  0  0
 29 32  1  0  0  0  0
 30 33  2  0  0  0  0
 31 34  1  0  0  0  0
 31 35  2  0  0  0  0
 32 36  2  0  0  0  0
  5  6  1  0  0  0  0
 11 13  1  0  0  0  0
 19 22  1  0  0  0  0
 24 26  1  0  0  0  0
 33 35  1  0  0  0  0
 34 36  1  0  0  0  0
M  END
>  <MolRegNo>
709094

>  <m>
=

>  <Value>
5000

>  <Unit>
nM

>  <Type>
IC50

>  <pValue>
5.3

>  <Ligand Efficiency>
0

>  <Binding Efficiency>
0

>  <Surface Efficiency>
0

>  <Assay Index>
519083

>  <Assay Category>


>  <Assay Organism>
Homo sapiens

>  <Target ID>
17045

>  <Target Name>
Cytochrome P450 3A4

>  <Target Organism>
Homo sapiens

>  <Target Description>
Target is a single protein chain

>  <Sequence Accession>
P08684

>  <Reference>
Bioorg Med Chem Lett 20 (21), 6242-6245 (2010)

>  <Pubmed ID>
20850301

>  <DOI>
10.1016/j.bmcl.2010.08.100

$$$$
1594668
Actelion Java MolfileCreator 1.0

 30 34  0  0  1  0  0  0  0  0999 V2000
    0.0000   -0.0000   -0.0000 O   0  0  0  0  0  0  0  0  0  0  0  0
    1.3054   -0.7459   -0.0000 C   0  0  0  0  0  0  0  0  0  0  0  0
    2.5984    0.0249   -0.0000 N   0  0  0  0  0  0  0  0  0  0  0  0
    1.2930   -2.2502   -0.0000 C   0  0  0  0  0  0  0  0  0  0  0  0
    2.5859    1.0940   -0.0000 C   0  0  0  0  0  0  0  0  0  0  0  0
    2.5984   -2.9838   -0.0000 C   0  0  0  0  0  0  0  0  0  0  0  0
   -0.0249   -2.9962   -0.0000 C   0  0  0  0  0  0  0  0  0  0  0  0
    2.1508    2.5113   -0.0000 C   0  0  0  0  0  0  0  0  0  0  0  0
    3.0708    2.2005   -0.0000 C   0  0  0  0  0  0  0  0  0  0  0  0
    4.0405   -2.4989   -0.0000 N   0  0  0  0  0  0  0  0  0  0  0  0
    2.5859   -4.5005   -0.0000 C   0  0  0  0  0  0  0  0  0  0  0  0
   -0.0373   -4.5005   -0.0000 C   0  0  0  0  0  0  0  0  0  0  0  0
    3.6427    3.2448   -0.0000 C   0  0  0  0  0  0  0  0  0  0  0  0
    4.6248    2.9838   -0.0000 C   0  0  0  0  0  0  0  0  0  0  0  0
    4.9232   -3.7173   -0.0000 C   0  0  0  0  0  0  0  0  0  0  0  0
    4.0281   -4.9605   -0.0000 O   0  0  0  0  0  0  0  0  0  0  0  0
    1.2681   -5.2464   -0.0000 C   0  0  0  0  0  0  0  0  0  0  0  0
    4.1897    4.4010   -0.0000 N   0  0  0  0  0  0  0  0  0  0  0  0
    4.4756    1.7530   -0.0000 C   0  0  0  0  0  0  0  0  0  0  0  0
    5.4578    1.4173   -0.0000 C   0  0  0  0  0  0  0  0  0  0  0  0
    6.4275   -3.7048   -0.0000 C   0  0  0  0  0  0  0  0  0  0  0  0
    4.3140    5.9178   -0.0000 C   0  0  0  0  0  0  0  0  0  0  0  0
    4.2394    0.4849   -0.0000 C   0  0  0  0  0  0  0  0  0  0  0  0
    7.1610   -2.3870   -0.0000 C   0  0  0  0  0  0  0  0  0  0  0  0
    7.1734   -5.0102   -0.0000 C   0  0  0  0  0  0  0  0  0  0  0  0
    6.3902   -1.0692   -0.0000 O   0  0  0  0  0  0  0  0  0  0  0  0
    8.6653   -2.3621   -0.0000 C   0  0  0  0  0  0  0  0  0  0  0  0
    8.6778   -4.9978   -0.0000 C   0  0  0  0  0  0  0  0  0  0  0  0
    7.1361    0.2611   -0.0000 C   0  0  0  0  0  0  0  0  0  0  0  0
    9.4237   -3.6675   -0.0000 C   0  0  0  0  0  0  0  0  0  0  0  0
  1  2  2  0  0  0  0
  2  3  1  0  0  0  0
  2  4  1  0  0  0  0
  5  3  1  1  0  0  0
  4  6  2  0  0  0  0
  4  7  1  0  0  0  0
  5  8  1  0  0  0  0
  5  9  1  0  0  0  0
  6 10  1  0  0  0  0
  6 11  1  0  0  0  0
  7 12  2  0  0  0  0
  8 13  1  0  0  0  0
  9 14  1  0  0  0  0
 10 15  2  0  0  0  0
 11 16  1  0  0  0  0
 11 17  2  0  0  0  0
 13 18  1  1  0  0  0
 13 19  1  0  0  0  0
 14 20  1  0  0  0  0
 15 21  1  0  0  0  0
 18 22  1  0  0  0  0
 19 23  1  0  0  0  0
 21 24  2  0  0  0  0
 21 25  1  0  0  0  0
 24 26  1  0  0  0  0
 24 27  1  0  0  0  0
 25 28  2  0  0  0  0
 26 29  1  0  0  0  0
 27 30  2  0  0  0  0
 12 17  1  0  0  0  0
 14 18  1  6  0  0  0
 15 16  1  0  0  0  0
 20 23  1  0  0  0  0
 28 30  1  0  0  0  0
M  END
>  <MolRegNo>
1594668

>  <m>
=

>  <Value>
1100

>  <Unit>
nM

>  <Type>
IC50

>  <pValue>
5.96

>  <Ligand Efficiency>
0

>  <Binding Efficiency>
0

>  <Surface Efficiency>
0

>  <Assay Index>
519261

>  <Assay Category>


>  <Assay Organism>
Homo sapiens

>  <Target ID>
17045

>  <Target Name>
Cytochrome P450 3A4

>  <Target Organism>
Homo sapiens

>  <Target Description>
Target is a single protein chain

>  <Sequence Accession>
P08684

>  <Reference>
Bioorg Med Chem Lett 20 (22), 6538-6541 (2010)

>  <Pubmed ID>
20889341

>  <DOI>
10.1016/j.bmcl.2010.09.038

$$$$
3183
Actelion Java MolfileCreator 1.0

 22 25  0  0  0  0  0  0  0  0999 V2000
    0.0000   -0.0000   -0.0000 O   0  0  0  0  0  0  0  0  0  0  0  0
   -0.0120   -1.4706   -0.0000 C   0  0  0  0  0  0  0  0  0  0  0  0
   -1.3151   -2.2238   -0.0000 C   0  0  0  0  0  0  0  0  0  0  0  0
    1.2793   -2.1879   -0.0000 C   0  0  0  0  0  0  0  0  0  0  0  0
   -2.7379   -1.7814   -0.0000 C   0  0  0  0  0  0  0  0  0  0  0  0
   -1.3510   -3.7182   -0.0000 C   0  0  0  0  0  0  0  0  0  0  0  0
    1.2793   -3.6943   -0.0000 C   0  0  0  0  0  0  0  0  0  0  0  0
    2.5346   -1.3988   -0.0000 C   0  0  0  0  0  0  0  0  0  0  0  0
   -3.6704   -2.8933   -0.0000 C   0  0  0  0  0  0  0  0  0  0  0  0
   -3.2759   -0.3467   -0.0000 C   0  0  0  0  0  0  0  0  0  0  0  0
   -2.7977   -4.1606   -0.0000 N   0  0  0  0  0  0  0  0  0  0  0  0
   -0.0598   -4.4356   -0.0000 C   0  0  0  0  0  0  0  0  0  0  0  0
    3.8498   -2.0564   -0.0000 N   0  0  0  0  0  0  0  0  0  0  0  0
   -5.1769   -2.6901   -0.0000 C   0  0  0  0  0  0  0  0  0  0  0  0
   -4.7823   -0.0956   -0.0000 C   0  0  0  0  0  0  0  0  0  0  0  0
   -3.2639   -5.6073   -0.0000 C   0  0  0  0  0  0  0  0  0  0  0  0
    4.2563   -3.5150   -0.0000 C   0  0  0  0  0  0  0  0  0  0  0  0
    5.0334   -1.2314   -0.0000 C   0  0  0  0  0  0  0  0  0  0  0  0
   -5.7746   -1.2793   -0.0000 C   0  0  0  0  0  0  0  0  0  0  0  0
    5.7507   -3.5150   -0.0000 N   0  0  0  0  0  0  0  0  0  0  0  0
    3.4911   -4.7943   -0.0000 C   0  0  0  0  0  0  0  0  0  0  0  0
    6.2170   -2.0564   -0.0000 C   0  0  0  0  0  0  0  0  0  0  0  0
  1  2  2  0  0  0  0
  2  3  1  0  0  0  0
  2  4  1  0  0  0  0
  3  5  1  0  0  0  0
  3  6  2  0  0  0  0
  4  7  1  0  0  0  0
  4  8  1  0  0  0  0
  5  9  2  0  0  0  0
  5 10  1  0  0  0  0
  6 11  1  0  0  0  0
  6 12  1  0  0  0  0
  8 13  1  0  0  0  0
  9 14  1  0  0  0  0
 10 15  2  0  0  0  0
 11 16  1  0  0  0  0
 13 17  1  0  0  0  0
 13 18  1  0  0  0  0
 14 19  2  0  0  0  0
 17 20  2  0  0  0  0
 17 21  1  0  0  0  0
 18 22  2  0  0  0  0
  7 12  1  0  0  0  0
  9 11  1  0  0  0  0
 15 19  1  0  0  0  0
 20 22  1  0  0  0  0
M  END
>  <MolRegNo>
3183

>  <m>
=

>  <Value>
11000

>  <Unit>
nM

>  <Type>
IC50

>  <pValue>
4.96

>  <Ligand Efficiency>
0

>  <Binding Efficiency>
0

>  <Surface Efficiency>
0

>  <Assay Index>
519261

>  <Assay Category>


>  <Assay Organism>
Homo sapiens

>  <Target ID>
17045

>  <Target Name>
Cytochrome P450 3A4

>  <Target Organism>
Homo sapiens

>  <Target Description>
Target is a single protein chain

>  <Sequence Accession>
P08684

>  <Reference>
Bioorg Med Chem Lett 20 (22), 6538-6541 (2010)

>  <Pubmed ID>
20889341

>  <DOI>
10.1016/j.bmcl.2010.09.038

$$$$
153342
Actelion Java MolfileCreator 1.0

 22 25  0  0  0  0  0  0  0  0999 V2000
    0.0000   -0.0000   -0.0000 O   0  0  0  0  0  0  0  0  0  0  0  0
   -0.0237   -1.4933   -0.0000 C   0  0  0  0  0  0  0  0  0  0  0  0
    1.2681   -2.2280   -0.0000 N   0  0  0  0  0  0  0  0  0  0  0  0
   -1.3392   -2.2399   -0.0000 C   0  0  0  0  0  0  0  0  0  0  0  0
    1.2562   -3.7213   -0.0000 C   0  0  0  0  0  0  0  0  0  0  0  0
    2.5717   -1.4696   -0.0000 C   0  0  0  0  0  0  0  0  0  0  0  0
   -2.7850   -1.7658   -0.0000 C   0  0  0  0  0  0  0  0  0  0  0  0
   -1.3510   -3.7213   -0.0000 C   0  0  0  0  0  0  0  0  0  0  0  0
   -0.0593   -4.4679   -0.0000 C   0  0  0  0  0  0  0  0  0  0  0  0
    3.8517   -2.2162   -0.0000 C   0  0  0  0  0  0  0  0  0  0  0  0
   -3.6857   -2.9628   -0.0000 C   0  0  0  0  0  0  0  0  0  0  0  0
   -3.4013   -0.3911   -0.0000 C   0  0  0  0  0  0  0  0  0  0  0  0
   -2.7850   -4.1835   -0.0000 N   0  0  0  0  0  0  0  0  0  0  0  0
    5.0486   -1.3036   -0.0000 N   0  0  0  0  0  0  0  0  0  0  0  0
    4.3020   -3.6265   -0.0000 C   0  0  0  0  0  0  0  0  0  0  0  0
   -5.1790   -2.7969   -0.0000 C   0  0  0  0  0  0  0  0  0  0  0  0
   -4.9064   -0.2252   -0.0000 C   0  0  0  0  0  0  0  0  0  0  0  0
   -3.2591   -5.6057   -0.0000 C   0  0  0  0  0  0  0  0  0  0  0  0
    6.2575   -2.1925   -0.0000 C   0  0  0  0  0  0  0  0  0  0  0  0
    5.7953   -3.6146   -0.0000 N   0  0  0  0  0  0  0  0  0  0  0  0
    3.5198   -4.8946   -0.0000 C   0  0  0  0  0  0  0  0  0  0  0  0
   -5.8071   -1.4340   -0.0000 C   0  0  0  0  0  0  0  0  0  0  0  0
  1  2  2  0  0  0  0
  2  3  1  0  0  0  0
  2  4  1  0  0  0  0
  3  5  1  0  0  0  0
  3  6  1  0  0  0  0
  4  7  1  0  0  0  0
  4  8  2  0  0  0  0
  5  9  1  0  0  0  0
  6 10  1  0  0  0  0
  7 11  2  0  0  0  0
  7 12  1  0  0  0  0
  8 13  1  0  0  0  0
 10 14  1  0  0  0  0
 10 15  2  0  0  0  0
 11 16  1  0  0  0  0
 12 17  2  0  0  0  0
 13 18  1  0  0  0  0
 14 19  2  0  0  0  0
 15 20  1  0  0  0  0
 15 21  1  0  0  0  0
 16 22  2  0  0  0  0
  8  9  1  0  0  0  0
 11 13  1  0  0  0  0
 17 22  1  0  0  0  0
 19 20  1  0  0  0  0
M  END
>  <MolRegNo>
153342

>  <m>
=

>  <Value>
600

>  <Unit>
nM

>  <Type>
IC50

>  <pValue>
6.22

>  <Ligand Efficiency>
0

>  <Binding Efficiency>
0

>  <Surface Efficiency>
0

>  <Assay Index>
519261

>  <Assay Category>


>  <Assay Organism>
Homo sapiens

>  <Target ID>
17045

>  <Target Name>
Cytochrome P450 3A4

>  <Target Organism>
Homo sapiens

>  <Target Description>
Target is a single protein chain

>  <Sequence Accession>
P08684

>  <Reference>
Bioorg Med Chem Lett 20 (22), 6538-6541 (2010)

>  <Pubmed ID>
20889341

>  <DOI>
10.1016/j.bmcl.2010.09.038

$$$$
710468
Actelion Java MolfileCreator 1.0

 32 36  0  0  1  0  0  0  0  0999 V2000
    0.0000   -0.0000   -0.0000 F   0  0  0  0  0  0  0  0  0  0  0  0
    0.7654    1.2952   -0.0000 C   0  0  0  0  0  0  0  0  0  0  0  0
    2.2490    1.2834   -0.0000 F   0  0  0  0  0  0  0  0  0  0  0  0
    1.4954    0.0235   -0.0000 F   0  0  0  0  0  0  0  0  0  0  0  0
    0.0353    2.6140   -0.0000 C   0  0  0  0  0  0  0  0  0  0  0  0
   -1.4718    2.6611   -0.0000 C   0  0  0  0  0  0  0  0  0  0  0  0
    0.7889    3.9092   -0.0000 C   0  0  0  0  0  0  0  0  0  0  0  0
   -2.2136    3.9681   -0.0000 N   0  0  0  0  0  0  0  0  0  0  0  0
   -2.2490    1.3894   -0.0000 N   0  0  0  0  0  0  0  0  0  0  0  0
    0.0471    5.2280   -0.0000 C   0  0  0  0  0  0  0  0  0  0  0  0
   -1.4601    5.2633   -0.0000 C   0  0  0  0  0  0  0  0  0  0  0  0
   -3.7561    1.4247   -0.0000 C   0  0  0  0  0  0  0  0  0  0  0  0
   -4.6628    0.2355   -0.0000 C   0  0  0  0  0  0  0  0  0  0  0  0
   -4.6275    2.6611   -0.0000 C   0  0  0  0  0  0  0  0  0  0  0  0
   -6.0875    0.7300   -0.0000 N   0  0  0  0  0  0  0  0  0  0  0  0
   -6.0640    2.2372   -0.0000 C   0  0  0  0  0  0  0  0  0  0  0  0
   -7.4063    0.0118   -0.0000 C   0  0  0  0  0  0  0  0  0  0  0  0
   -7.4299   -1.4718   -0.0000 O   0  0  0  0  0  0  0  0  0  0  0  0
   -8.7015    0.7889   -0.0000 O   0  0  0  0  0  0  0  0  0  0  0  0
  -10.0203    0.0706   -0.0000 C   0  0  0  0  0  0  0  0  0  0  0  0
  -10.0438   -1.4012   -0.0000 C   0  0  0  0  0  0  0  0  0  0  0  0
  -11.3862    0.6476   -0.0000 C   0  0  0  0  0  0  0  0  0  0  0  0
  -11.4097   -1.7309   -0.0000 C   0  0  0  0  0  0  0  0  0  0  0  0
  -11.0447   -2.6258   -0.0000 C   0  0  0  0  0  0  0  0  0  0  0  0
  -12.7049    0.2002   -0.0000 C   0  0  0  0  0  0  0  0  0  0  0  0
  -12.4106   -0.5416   -0.0000 C   0  0  0  0  0  0  0  0  0  0  0  0
  -12.7049   -1.2481   -0.0000 C   0  0  0  0  0  0  0  0  0  0  0  0
  -12.4223   -2.0606   -0.0000 C   0  0  0  0  0  0  0  0  0  0  0  0
  -14.0119   -0.4828   -0.0000 C   0  0  0  0  0  0  0  0  0  0  0  0
  -13.8824   -2.4727   -0.0000 C   0  0  0  0  0  0  0  0  0  0  0  0
  -14.0237    1.0244   -0.0000 O   0  0  0  0  0  0  0  0  0  0  0  0
  -15.3307   -1.2246   -0.0000 N   0  0  0  0  0  0  0  0  0  0  0  0
  1  2  1  0  0  0  0
  2  3  1  0  0  0  0
  2  4  1  0  0  0  0
  2  5  1  0  0  0  0
  5  6  2  0  0  0  0
  5  7  1  0  0  0  0
  6  8  1  0  0  0  0
  6  9  1  0  0  0  0
  7 10  2  0  0  0  0
  8 11  2  0  0  0  0
 12  9  1  6  0  0  0
 12 13  1  0  0  0  0
 12 14  1  0  0  0  0
 13 15  1  0  0  0  0
 14 16  1  0  0  0  0
 15 17  1  0  0  0  0
 17 18  2  0  0  0  0
 17 19  1  0  0  0  0
 20 19  1  1  0  0  0
 20 21  1  0  0  0  0
 20 22  1  0  0  0  0
 21 23  1  0  0  0  0
 21 24  1  0  0  0  0
 22 25  1  0  0  0  0
 22 26  1  0  0  0  0
 23 27  1  0  0  0  0
 24 28  1  0  0  0  0
 27 29  1  6  0  0  0
 27 30  1  0  0  0  0
 29 31  2  0  0  0  0
 29 32  1  0  0  0  0
 10 11  1  0  0  0  0
 15 16  1  0  0  0  0
 25 27  1  0  0  0  0
 26 28  1  0  0  0  0
 28 30  1  0  0  0  0
M  END
>  <MolRegNo>
710468

>  <m>
=

>  <Value>
3300

>  <Unit>
nM

>  <Type>
IC50

>  <pValue>
5.48

>  <Ligand Efficiency>
0

>  <Binding Efficiency>
0

>  <Surface Efficiency>
0

>  <Assay Index>
520334

>  <Assay Category>


>  <Assay Organism>


>  <Target ID>
17045

>  <Target Name>
Cytochrome P450 3A4

>  <Target Organism>
Homo sapiens

>  <Target Description>
Target is a single protein chain

>  <Sequence Accession>
P08684

>  <Reference>
Bioorg Med Chem Lett 20 (22), 6725-6729 (2010)

>  <Pubmed ID>
20864344

>  <DOI>
10.1016/j.bmcl.2010.08.142

$$$$
710571
Actelion Java MolfileCreator 1.0

 32 36  0  0  1  0  0  0  0  0999 V2000
    0.0000   -0.0000   -0.0000 F   0  0  0  0  0  0  0  0  0  0  0  0
   -1.5045    0.0355   -0.0000 C   0  0  0  0  0  0  0  0  0  0  0  0
   -2.2509    1.3505   -0.0000 F   0  0  0  0  0  0  0  0  0  0  0  0
   -0.7819    1.3505   -0.0000 F   0  0  0  0  0  0  0  0  0  0  0  0
   -2.2864   -1.2321   -0.0000 C   0  0  0  0  0  0  0  0  0  0  0  0
   -3.8028   -1.1965   -0.0000 C   0  0  0  0  0  0  0  0  0  0  0  0
   -1.5756   -2.5352   -0.0000 C   0  0  0  0  0  0  0  0  0  0  0  0
   -4.5729   -2.4641   -0.0000 N   0  0  0  0  0  0  0  0  0  0  0  0
   -2.3575   -3.8028   -0.0000 C   0  0  0  0  0  0  0  0  0  0  0  0
   -3.8502   -3.7436   -0.0000 C   0  0  0  0  0  0  0  0  0  0  0  0
   -4.6321   -5.0112   -0.0000 N   0  0  0  0  0  0  0  0  0  0  0  0
   -6.1366   -4.9757   -0.0000 C   0  0  0  0  0  0  0  0  0  0  0  0
   -7.0488   -6.1603   -0.0000 C   0  0  0  0  0  0  0  0  0  0  0  0
   -7.0133   -3.7436   -0.0000 C   0  0  0  0  0  0  0  0  0  0  0  0
   -8.4823   -5.6746   -0.0000 N   0  0  0  0  0  0  0  0  0  0  0  0
   -8.4586   -4.1701   -0.0000 C   0  0  0  0  0  0  0  0  0  0  0  0
   -9.7973   -6.3973   -0.0000 C   0  0  0  0  0  0  0  0  0  0  0  0
   -9.8210   -7.8781   -0.0000 O   0  0  0  0  0  0  0  0  0  0  0  0
  -11.1004   -5.6272   -0.0000 O   0  0  0  0  0  0  0  0  0  0  0  0
  -12.4154   -6.3499   -0.0000 C   0  0  0  0  0  0  0  0  0  0  0  0
  -12.4391   -7.8189   -0.0000 C   0  0  0  0  0  0  0  0  0  0  0  0
  -13.7897   -5.7694   -0.0000 C   0  0  0  0  0  0  0  0  0  0  0  0
  -13.8134   -8.1387   -0.0000 C   0  0  0  0  0  0  0  0  0  0  0  0
  -13.4343   -9.0510   -0.0000 C   0  0  0  0  0  0  0  0  0  0  0  0
  -15.1165   -6.2196   -0.0000 C   0  0  0  0  0  0  0  0  0  0  0  0
  -14.8085   -6.9541   -0.0000 C   0  0  0  0  0  0  0  0  0  0  0  0
  -15.1165   -7.6530   -0.0000 C   0  0  0  0  0  0  0  0  0  0  0  0
  -14.8085   -8.4942   -0.0000 C   0  0  0  0  0  0  0  0  0  0  0  0
  -16.4315   -6.8830   -0.0000 C   0  0  0  0  0  0  0  0  0  0  0  0
  -16.2893   -8.8851   -0.0000 C   0  0  0  0  0  0  0  0  0  0  0  0
  -16.4434   -5.3784   -0.0000 O   0  0  0  0  0  0  0  0  0  0  0  0
  -17.7465   -7.6175   -0.0000 N   0  0  0  0  0  0  0  0  0  0  0  0
  1  2  1  0  0  0  0
  2  3  1  0  0  0  0
  2  4  1  0  0  0  0
  2  5  1  0  0  0  0
  5  6  2  0  0  0  0
  5  7  1  0  0  0  0
  6  8  1  0  0  0  0
  7  9  2  0  0  0  0
  8 10  2  0  0  0  0
 10 11  1  0  0  0  0
 12 11  1  6  0  0  0
 12 13  1  0  0  0  0
 12 14  1  0  0  0  0
 13 15  1  0  0  0  0
 14 16  1  0  0  0  0
 15 17  1  0  0  0  0
 17 18  2  0  0  0  0
 17 19  1  0  0  0  0
 20 19  1  1  0  0  0
 20 21  1  0  0  0  0
 20 22  1  0  0  0  0
 21 23  1  0  0  0  0
 21 24  1  0  0  0  0
 22 25  1  0  0  0  0
 22 26  1  0  0  0  0
 23 27  1  0  0  0  0
 24 28  1  0  0  0  0
 27 29  1  6  0  0  0
 27 30  1  0  0  0  0
 29 31  2  0  0  0  0
 29 32  1  0  0  0  0
  9 10  1  0  0  0  0
 15 16  1  0  0  0  0
 25 27  1  0  0  0  0
 26 28  1  0  0  0  0
 28 30  1  0  0  0  0
M  END
>  <MolRegNo>
710571

>  <m>
=

>  <Value>
7200

>  <Unit>
nM

>  <Type>
IC50

>  <pValue>
5.14

>  <Ligand Efficiency>
0

>  <Binding Efficiency>
0

>  <Surface Efficiency>
0

>  <Assay Index>
520334

>  <Assay Category>


>  <Assay Organism>


>  <Target ID>
17045

>  <Target Name>
Cytochrome P450 3A4

>  <Target Organism>
Homo sapiens

>  <Target Description>
Target is a single protein chain

>  <Sequence Accession>
P08684

>  <Reference>
Bioorg Med Chem Lett 20 (22), 6725-6729 (2010)

>  <Pubmed ID>
20864344

>  <DOI>
10.1016/j.bmcl.2010.08.142

$$$$
710679
Actelion Java MolfileCreator 1.0

 32 36  0  0  1  0  0  0  0  0999 V2000
    0.0000   -0.0000   -0.0000 F   0  0  0  0  0  0  0  0  0  0  0  0
   -0.7826   -1.2807   -0.0000 C   0  0  0  0  0  0  0  0  0  0  0  0
   -2.2886   -1.2451   -0.0000 F   0  0  0  0  0  0  0  0  0  0  0  0
   -1.5534    0.0356   -0.0000 F   0  0  0  0  0  0  0  0  0  0  0  0
   -0.0593   -2.5732   -0.0000 C   0  0  0  0  0  0  0  0  0  0  0  0
   -0.8301   -3.8420   -0.0000 N   0  0  0  0  0  0  0  0  0  0  0  0
    1.4348   -2.5851   -0.0000 C   0  0  0  0  0  0  0  0  0  0  0  0
   -0.1186   -5.1227   -0.0000 C   0  0  0  0  0  0  0  0  0  0  0  0
    2.1463   -3.8895   -0.0000 C   0  0  0  0  0  0  0  0  0  0  0  0
   -0.9012   -6.3915   -0.0000 N   0  0  0  0  0  0  0  0  0  0  0  0
    1.3637   -5.1464   -0.0000 C   0  0  0  0  0  0  0  0  0  0  0  0
   -2.4072   -6.3559   -0.0000 C   0  0  0  0  0  0  0  0  0  0  0  0
   -3.3203   -7.5418   -0.0000 C   0  0  0  0  0  0  0  0  0  0  0  0
   -3.2847   -5.1227   -0.0000 C   0  0  0  0  0  0  0  0  0  0  0  0
   -4.7551   -7.0556   -0.0000 N   0  0  0  0  0  0  0  0  0  0  0  0
   -4.7314   -5.5496   -0.0000 C   0  0  0  0  0  0  0  0  0  0  0  0
   -6.0714   -7.7789   -0.0000 C   0  0  0  0  0  0  0  0  0  0  0  0
   -6.0951   -9.2612   -0.0000 O   0  0  0  0  0  0  0  0  0  0  0  0
   -7.3757   -7.0081   -0.0000 O   0  0  0  0  0  0  0  0  0  0  0  0
   -8.6920   -7.7315   -0.0000 C   0  0  0  0  0  0  0  0  0  0  0  0
   -8.7157   -9.2019   -0.0000 C   0  0  0  0  0  0  0  0  0  0  0  0
  -10.0675   -7.1504   -0.0000 C   0  0  0  0  0  0  0  0  0  0  0  0
  -10.0913   -9.5221   -0.0000 C   0  0  0  0  0  0  0  0  0  0  0  0
   -9.7118  -10.4351   -0.0000 C   0  0  0  0  0  0  0  0  0  0  0  0
  -11.3956   -7.6011   -0.0000 C   0  0  0  0  0  0  0  0  0  0  0  0
  -11.0873   -8.3363   -0.0000 C   0  0  0  0  0  0  0  0  0  0  0  0
  -11.3956   -9.0359   -0.0000 C   0  0  0  0  0  0  0  0  0  0  0  0
  -11.0873   -9.8778   -0.0000 C   0  0  0  0  0  0  0  0  0  0  0  0
  -12.7119   -8.2651   -0.0000 C   0  0  0  0  0  0  0  0  0  0  0  0
  -12.5696  -10.2691   -0.0000 C   0  0  0  0  0  0  0  0  0  0  0  0
  -12.7238   -6.7591   -0.0000 O   0  0  0  0  0  0  0  0  0  0  0  0
  -14.0282   -9.0003   -0.0000 N   0  0  0  0  0  0  0  0  0  0  0  0
  1  2  1  0  0  0  0
  2  3  1  0  0  0  0
  2  4  1  0  0  0  0
  2  5  1  0  0  0  0
  5  6  2  0  0  0  0
  5  7  1  0  0  0  0
  6  8  1  0  0  0  0
  7  9  2  0  0  0  0
  8 10  1  0  0  0  0
  8 11  2  0  0  0  0
 12 10  1  6  0  0  0
 12 13  1  0  0  0  0
 12 14  1  0  0  0  0
 13 15  1  0  0  0  0
 14 16  1  0  0  0  0
 15 17  1  0  0  0  0
 17 18  2  0  0  0  0
 17 19  1  0  0  0  0
 20 19  1  1  0  0  0
 20 21  1  0  0  0  0
 20 22  1  0  0  0  0
 21 23  1  0  0  0  0
 21 24  1  0  0  0  0
 22 25  1  0  0  0  0
 22 26  1  0  0  0  0
 23 27  1  0  0  0  0
 24 28  1  0  0  0  0
 27 29  1  6  0  0  0
 27 30  1  0  0  0  0
 29 31  2  0  0  0  0
 29 32  1  0  0  0  0
  9 11  1  0  0  0  0
 15 16  1  0  0  0  0
 25 27  1  0  0  0  0
 26 28  1  0  0  0  0
 28 30  1  0  0  0  0
M  END
>  <MolRegNo>
710679

>  <m>
=

>  <Value>
4800

>  <Unit>
nM

>  <Type>
IC50

>  <pValue>
5.32

>  <Ligand Efficiency>
0

>  <Binding Efficiency>
0

>  <Surface Efficiency>
0

>  <Assay Index>
520334

>  <Assay Category>


>  <Assay Organism>


>  <Target ID>
17045

>  <Target Name>
Cytochrome P450 3A4

>  <Target Organism>
Homo sapiens

>  <Target Description>
Target is a single protein chain

>  <Sequence Accession>
P08684

>  <Reference>
Bioorg Med Chem Lett 20 (22), 6725-6729 (2010)

>  <Pubmed ID>
20864344

>  <DOI>
10.1016/j.bmcl.2010.08.142

$$$$
710680
Actelion Java MolfileCreator 1.0

 32 36  0  0  1  0  0  0  0  0999 V2000
    0.0000   -0.0000   -0.0000 F   0  0  0  0  0  0  0  0  0  0  0  0
    0.7632    1.2962   -0.0000 C   0  0  0  0  0  0  0  0  0  0  0  0
    2.2411    1.2841   -0.0000 F   0  0  0  0  0  0  0  0  0  0  0  0
    1.4900    0.0242   -0.0000 F   0  0  0  0  0  0  0  0  0  0  0  0
    0.0242    2.6166   -0.0000 C   0  0  0  0  0  0  0  0  0  0  0  0
   -1.4779    2.6651   -0.0000 C   0  0  0  0  0  0  0  0  0  0  0  0
    0.7753    3.9128   -0.0000 C   0  0  0  0  0  0  0  0  0  0  0  0
   -2.2168    3.9734   -0.0000 N   0  0  0  0  0  0  0  0  0  0  0  0
   -2.2532    1.3931   -0.0000 N   0  0  0  0  0  0  0  0  0  0  0  0
    0.0363    5.2332   -0.0000 C   0  0  0  0  0  0  0  0  0  0  0  0
   -1.4658    5.2695   -0.0000 C   0  0  0  0  0  0  0  0  0  0  0  0
   -3.7553    1.4294   -0.0000 C   0  0  0  0  0  0  0  0  0  0  0  0
   -4.6639    0.2423   -0.0000 C   0  0  0  0  0  0  0  0  0  0  0  0
   -4.6275    2.6651   -0.0000 C   0  0  0  0  0  0  0  0  0  0  0  0
   -6.0933    0.7389   -0.0000 N   0  0  0  0  0  0  0  0  0  0  0  0
   -6.0691    2.2411   -0.0000 C   0  0  0  0  0  0  0  0  0  0  0  0
   -7.4137    0.0121   -0.0000 C   0  0  0  0  0  0  0  0  0  0  0  0
   -7.4379   -1.4779   -0.0000 O   0  0  0  0  0  0  0  0  0  0  0  0
   -8.7099    0.7874   -0.0000 O   0  0  0  0  0  0  0  0  0  0  0  0
  -10.0303    0.0606   -0.0000 C   0  0  0  0  0  0  0  0  0  0  0  0
  -11.3992    0.6299   -0.0000 C   0  0  0  0  0  0  0  0  0  0  0  0
  -10.0545   -1.4173   -0.0000 C   0  0  0  0  0  0  0  0  0  0  0  0
  -12.7196    0.1817   -0.0000 C   0  0  0  0  0  0  0  0  0  0  0  0
  -12.4167   -0.5572   -0.0000 C   0  0  0  0  0  0  0  0  0  0  0  0
  -11.4234   -1.7444   -0.0000 C   0  0  0  0  0  0  0  0  0  0  0  0
  -11.0479   -2.6408   -0.0000 C   0  0  0  0  0  0  0  0  0  0  0  0
  -12.7196   -1.2477   -0.0000 C   0  0  0  0  0  0  0  0  0  0  0  0
  -12.4289   -2.0836   -0.0000 C   0  0  0  0  0  0  0  0  0  0  0  0
  -14.0279   -0.4846   -0.0000 C   0  0  0  0  0  0  0  0  0  0  0  0
  -13.8946   -2.4712   -0.0000 C   0  0  0  0  0  0  0  0  0  0  0  0
  -14.0400    1.0297   -0.0000 O   0  0  0  0  0  0  0  0  0  0  0  0
  -15.3483   -1.2235   -0.0000 N   0  0  0  0  0  0  0  0  0  0  0  0
  1  2  1  0  0  0  0
  2  3  1  0  0  0  0
  2  4  1  0  0  0  0
  2  5  1  0  0  0  0
  5  6  2  0  0  0  0
  5  7  1  0  0  0  0
  6  8  1  0  0  0  0
  6  9  1  0  0  0  0
  7 10  2  0  0  0  0
  8 11  2  0  0  0  0
 12  9  1  6  0  0  0
 12 13  1  0  0  0  0
 12 14  1  0  0  0  0
 13 15  1  0  0  0  0
 14 16  1  0  0  0  0
 15 17  1  0  0  0  0
 17 18  2  0  0  0  0
 17 19  1  0  0  0  0
 20 19  1  1  0  0  0
 20 21  1  0  0  0  0
 20 22  1  0  0  0  0
 21 23  1  0  0  0  0
 21 24  1  0  0  0  0
 22 25  1  0  0  0  0
 22 26  1  0  0  0  0
 23 27  1  0  0  0  0
 24 28  1  0  0  0  0
 27 29  1  1  0  0  0
 27 30  1  0  0  0  0
 29 31  2  0  0  0  0
 29 32  1  0  0  0  0
 10 11  1  0  0  0  0
 15 16  1  0  0  0  0
 25 27  1  0  0  0  0
 26 28  1  0  0  0  0
 28 30  1  0  0  0  0
M  END
>  <MolRegNo>
710680

>  <m>
=

>  <Value>
8500

>  <Unit>
nM

>  <Type>
IC50

>  <pValue>
5.07

>  <Ligand Efficiency>
0

>  <Binding Efficiency>
0

>  <Surface Efficiency>
0

>  <Assay Index>
520334

>  <Assay Category>


>  <Assay Organism>


>  <Target ID>
17045

>  <Target Name>
Cytochrome P450 3A4

>  <Target Organism>
Homo sapiens

>  <Target Description>
Target is a single protein chain

>  <Sequence Accession>
P08684

>  <Reference>
Bioorg Med Chem Lett 20 (22), 6725-6729 (2010)

>  <Pubmed ID>
20864344

>  <DOI>
10.1016/j.bmcl.2010.08.142

$$$$
709132
Actelion Java MolfileCreator 1.0

 30 34  0  0  1  0  0  0  0  0999 V2000
    0.0000   -0.0000   -0.0000 O   0  0  0  0  0  0  0  0  0  0  0  0
    0.0000    1.5064   -0.0000 C   0  0  0  0  0  0  0  0  0  0  0  0
   -1.3047    2.2774   -0.0000 O   0  0  0  0  0  0  0  0  0  0  0  0
    1.2929    2.2536   -0.0000 N   0  0  0  0  0  0  0  0  0  0  0  0
   -2.6213    1.5538   -0.0000 C   0  0  0  0  0  0  0  0  0  0  0  0
    2.7044    1.7911   -0.0000 C   0  0  0  0  0  0  0  0  0  0  0  0
    1.3047    3.7719   -0.0000 C   0  0  0  0  0  0  0  0  0  0  0  0
   -2.6451    0.0830   -0.0000 C   0  0  0  0  0  0  0  0  0  0  0  0
   -3.9972    2.1350   -0.0000 C   0  0  0  0  0  0  0  0  0  0  0  0
    3.5940    3.0009   -0.0000 C   0  0  0  0  0  0  0  0  0  0  0  0
    2.7281    4.2226   -0.0000 C   0  0  0  0  0  0  0  0  0  0  0  0
   -4.0210   -0.2372   -0.0000 C   0  0  0  0  0  0  0  0  0  0  0  0
   -3.6414   -1.1505   -0.0000 C   0  0  0  0  0  0  0  0  0  0  0  0
   -5.3257    1.6843   -0.0000 C   0  0  0  0  0  0  0  0  0  0  0  0
   -5.0173    0.9489   -0.0000 C   0  0  0  0  0  0  0  0  0  0  0  0
    5.0766    2.9890   -0.0000 N   0  0  0  0  0  0  0  0  0  0  0  0
   -5.3257    0.2491   -0.0000 C   0  0  0  0  0  0  0  0  0  0  0  0
   -5.0173   -0.5931   -0.0000 C   0  0  0  0  0  0  0  0  0  0  0  0
    5.8357    4.2819   -0.0000 C   0  0  0  0  0  0  0  0  0  0  0  0
   -6.6423    1.0201   -0.0000 C   0  0  0  0  0  0  0  0  0  0  0  0
   -6.5000   -0.9845   -0.0000 C   0  0  0  0  0  0  0  0  0  0  0  0
    5.1003    5.5867   -0.0000 N   0  0  0  0  0  0  0  0  0  0  0  0
    7.3184    4.2582   -0.0000 C   0  0  0  0  0  0  0  0  0  0  0  0
   -6.6542    2.5264   -0.0000 O   0  0  0  0  0  0  0  0  0  0  0  0
   -7.9589    0.2847   -0.0000 N   0  0  0  0  0  0  0  0  0  0  0  0
    5.8476    6.8795   -0.0000 C   0  0  0  0  0  0  0  0  0  0  0  0
    8.0419    2.9653   -0.0000 C   0  0  0  0  0  0  0  0  0  0  0  0
    8.0775    5.5511   -0.0000 C   0  0  0  0  0  0  0  0  0  0  0  0
    7.3421    6.8677   -0.0000 C   0  0  0  0  0  0  0  0  0  0  0  0
    8.7536    1.6606   -0.0000 N   0  0  0  0  0  0  0  0  0  0  0  0
  1  2  2  0  0  0  0
  2  3  1  0  0  0  0
  2  4  1  0  0  0  0
  5  3  1  1  0  0  0
  4  6  1  0  0  0  0
  4  7  1  0  0  0  0
  5  8  1  0  0  0  0
  5  9  1  0  0  0  0
  6 10  1  0  0  0  0
  7 11  1  0  0  0  0
  8 12  1  0  0  0  0
  8 13  1  0  0  0  0
  9 14  1  0  0  0  0
  9 15  1  0  0  0  0
 10 16  1  6  0  0  0
 12 17  1  0  0  0  0
 13 18  1  0  0  0  0
 16 19  1  0  0  0  0
 17 20  1  6  0  0  0
 17 21  1  0  0  0  0
 19 22  2  0  0  0  0
 19 23  1  0  0  0  0
 20 24  2  0  0  0  0
 20 25  1  0  0  0  0
 22 26  1  0  0  0  0
 23 27  1  0  0  0  0
 23 28  2  0  0  0  0
 26 29  2  0  0  0  0
 27 30  3  0  0  0  0
 10 11  1  0  0  0  0
 14 17  1  0  0  0  0
 15 18  1  0  0  0  0
 18 21  1  0  0  0  0
 28 29  1  0  0  0  0
M  END
>  <MolRegNo>
709132

>  <m>
=

>  <Value>
17100

>  <Unit>
nM

>  <Type>
IC50

>  <pValue>
4.77

>  <Ligand Efficiency>
0

>  <Binding Efficiency>
0

>  <Surface Efficiency>
0

>  <Assay Index>
520334

>  <Assay Category>


>  <Assay Organism>


>  <Target ID>
17045

>  <Target Name>
Cytochrome P450 3A4

>  <Target Organism>
Homo sapiens

>  <Target Description>
Target is a single protein chain

>  <Sequence Accession>
P08684

>  <Reference>
Bioorg Med Chem Lett 20 (22), 6725-6729 (2010)

>  <Pubmed ID>
20864344

>  <DOI>
10.1016/j.bmcl.2010.08.142

$$$$
709239
Actelion Java MolfileCreator 1.0

 30 34  0  0  1  0  0  0  0  0999 V2000
    0.0000   -0.0000   -0.0000 O   0  0  0  0  0  0  0  0  0  0  0  0
    0.0000    1.5056   -0.0000 C   0  0  0  0  0  0  0  0  0  0  0  0
   -1.3041    2.2763   -0.0000 O   0  0  0  0  0  0  0  0  0  0  0  0
    1.2923    2.2525   -0.0000 N   0  0  0  0  0  0  0  0  0  0  0  0
   -2.6201    1.5531   -0.0000 C   0  0  0  0  0  0  0  0  0  0  0  0
    2.7031    1.7902   -0.0000 C   0  0  0  0  0  0  0  0  0  0  0  0
    1.3041    3.7701   -0.0000 C   0  0  0  0  0  0  0  0  0  0  0  0
   -2.6438    0.0830   -0.0000 C   0  0  0  0  0  0  0  0  0  0  0  0
   -3.9953    2.1340   -0.0000 C   0  0  0  0  0  0  0  0  0  0  0  0
    3.5922    2.9994   -0.0000 C   0  0  0  0  0  0  0  0  0  0  0  0
    2.7268    4.2206   -0.0000 C   0  0  0  0  0  0  0  0  0  0  0  0
   -4.0190   -0.2371   -0.0000 C   0  0  0  0  0  0  0  0  0  0  0  0
   -3.6396   -1.1500   -0.0000 C   0  0  0  0  0  0  0  0  0  0  0  0
   -5.3231    1.6835   -0.0000 C   0  0  0  0  0  0  0  0  0  0  0  0
   -5.0149    0.9484   -0.0000 C   0  0  0  0  0  0  0  0  0  0  0  0
    5.0742    2.9876   -0.0000 N   0  0  0  0  0  0  0  0  0  0  0  0
   -5.3231    0.2490   -0.0000 C   0  0  0  0  0  0  0  0  0  0  0  0
   -5.0149   -0.5928   -0.0000 C   0  0  0  0  0  0  0  0  0  0  0  0
    5.8329    4.2798   -0.0000 C   0  0  0  0  0  0  0  0  0  0  0  0
   -6.6391    1.0196   -0.0000 C   0  0  0  0  0  0  0  0  0  0  0  0
   -6.4968   -0.9840   -0.0000 C   0  0  0  0  0  0  0  0  0  0  0  0
    5.0979    5.5839   -0.0000 N   0  0  0  0  0  0  0  0  0  0  0  0
    7.3148    4.2561   -0.0000 C   0  0  0  0  0  0  0  0  0  0  0  0
   -6.6509    2.5252   -0.0000 O   0  0  0  0  0  0  0  0  0  0  0  0
   -7.9550    0.2845   -0.0000 N   0  0  0  0  0  0  0  0  0  0  0  0
    5.8448    6.8762   -0.0000 C   0  0  0  0  0  0  0  0  0  0  0  0
    8.0736    5.5484   -0.0000 C   0  0  0  0  0  0  0  0  0  0  0  0
    7.3386    6.8643   -0.0000 C   0  0  0  0  0  0  0  0  0  0  0  0
    8.0855    8.1566   -0.0000 C   0  0  0  0  0  0  0  0  0  0  0  0
    8.8442    9.4488   -0.0000 N   0  0  0  0  0  0  0  0  0  0  0  0
  1  2  2  0  0  0  0
  2  3  1  0  0  0  0
  2  4  1  0  0  0  0
  5  3  1  1  0  0  0
  4  6  1  0  0  0  0
  4  7  1  0  0  0  0
  5  8  1  0  0  0  0
  5  9  1  0  0  0  0
  6 10  1  0  0  0  0
  7 11  1  0  0  0  0
  8 12  1  0  0  0  0
  8 13  1  0  0  0  0
  9 14  1  0  0  0  0
  9 15  1  0  0  0  0
 10 16  1  6  0  0  0
 12 17  1  0  0  0  0
 13 18  1  0  0  0  0
 16 19  1  0  0  0  0
 17 20  1  6  0  0  0
 17 21  1  0  0  0  0
 19 22  2  0  0  0  0
 19 23  1  0  0  0  0
 20 24  2  0  0  0  0
 20 25  1  0  0  0  0
 22 26  1  0  0  0  0
 23 27  2  0  0  0  0
 26 28  2  0  0  0  0
 28 29  1  0  0  0  0
 29 30  3  0  0  0  0
 10 11  1  0  0  0  0
 14 17  1  0  0  0  0
 15 18  1  0  0  0  0
 18 21  1  0  0  0  0
 27 28  1  0  0  0  0
M  END
>  <MolRegNo>
709239

>  <m>
=

>  <Value>
14200

>  <Unit>
nM

>  <Type>
IC50

>  <pValue>
4.85

>  <Ligand Efficiency>
0

>  <Binding Efficiency>
0

>  <Surface Efficiency>
0

>  <Assay Index>
520334

>  <Assay Category>


>  <Assay Organism>


>  <Target ID>
17045

>  <Target Name>
Cytochrome P450 3A4

>  <Target Organism>
Homo sapiens

>  <Target Description>
Target is a single protein chain

>  <Sequence Accession>
P08684

>  <Reference>
Bioorg Med Chem Lett 20 (22), 6725-6729 (2010)

>  <Pubmed ID>
20864344

>  <DOI>
10.1016/j.bmcl.2010.08.142

$$$$
710496
Actelion Java MolfileCreator 1.0

 29 32  0  0  0  0  0  0  0  0999 V2000
    0.0000   -0.0000   -0.0000 F   0  0  0  0  0  0  0  0  0  0  0  0
   -1.2752    0.8029   -0.0000 C   0  0  0  0  0  0  0  0  0  0  0  0
   -1.2398    2.3025   -0.0000 F   0  0  0  0  0  0  0  0  0  0  0  0
   -2.6095    0.1181   -0.0000 O   0  0  0  0  0  0  0  0  0  0  0  0
   -3.8848    0.9210   -0.0000 C   0  0  0  0  0  0  0  0  0  0  0  0
   -5.2191    0.2362   -0.0000 C   0  0  0  0  0  0  0  0  0  0  0  0
   -3.8494    2.4324   -0.0000 C   0  0  0  0  0  0  0  0  0  0  0  0
   -6.4943    1.0391   -0.0000 C   0  0  0  0  0  0  0  0  0  0  0  0
   -5.1246    3.2354   -0.0000 C   0  0  0  0  0  0  0  0  0  0  0  0
   -6.4471    2.5387   -0.0000 C   0  0  0  0  0  0  0  0  0  0  0  0
   -7.7223    3.3416   -0.0000 C   0  0  0  0  0  0  0  0  0  0  0  0
   -8.9385    4.2390   -0.0000 N   0  0  0  0  0  0  0  0  0  0  0  0
   -8.9149    2.4560   -0.0000 C   0  0  0  0  0  0  0  0  0  0  0  0
   -6.5179    4.2390   -0.0000 C   0  0  0  0  0  0  0  0  0  0  0  0
   -8.4898    5.6678   -0.0000 C   0  0  0  0  0  0  0  0  0  0  0  0
  -10.3083    3.0464   -0.0000 C   0  0  0  0  0  0  0  0  0  0  0  0
   -8.7378    0.9919   -0.0000 C   0  0  0  0  0  0  0  0  0  0  0  0
   -5.1128    3.7903   -0.0000 O   0  0  0  0  0  0  0  0  0  0  0  0
   -7.0021    5.6678   -0.0000 N   0  0  0  0  0  0  0  0  0  0  0  0
   -9.3754    6.8840   -0.0000 N   0  0  0  0  0  0  0  0  0  0  0  0
  -11.5009    2.1490   -0.0000 C   0  0  0  0  0  0  0  0  0  0  0  0
   -9.9304    0.0945   -0.0000 C   0  0  0  0  0  0  0  0  0  0  0  0
   -6.0338    6.8013   -0.0000 C   0  0  0  0  0  0  0  0  0  0  0  0
  -12.8942    2.7394   -0.0000 C   0  0  0  0  0  0  0  0  0  0  0  0
  -11.3237    0.6730   -0.0000 C   0  0  0  0  0  0  0  0  0  0  0  0
  -14.2875    3.3298   -0.0000 C   0  0  0  0  0  0  0  0  0  0  0  0
  -15.6808    3.9202   -0.0000 C   0  0  0  0  0  0  0  0  0  0  0  0
  -16.6018    5.1128   -0.0000 C   0  0  0  0  0  0  0  0  0  0  0  0
  -17.1686    3.7431   -0.0000 C   0  0  0  0  0  0  0  0  0  0  0  0
  1  2  1  0  0  0  0
  2  3  1  0  0  0  0
  2  4  1  0  0  0  0
  4  5  1  0  0  0  0
  5  6  2  0  0  0  0
  5  7  1  0  0  0  0
  6  8  1  0  0  0  0
  7  9  2  0  0  0  0
  8 10  2  0  0  0  0
 10 11  1  0  0  0  0
 11 12  1  1  0  0  0
 11 13  1  0  0  0  0
 11 14  1  0  0  0  0
 12 15  2  0  0  0  0
 13 16  2  0  0  0  0
 13 17  1  0  0  0  0
 14 18  2  0  0  0  0
 14 19  1  0  0  0  0
 15 20  1  0  0  0  0
 16 21  1  0  0  0  0
 17 22  2  0  0  0  0
 19 23  1  0  0  0  0
 21 24  1  0  0  0  0
 21 25  2  0  0  0  0
 24 26  3  0  0  0  0
 26 27  1  0  0  0  0
 27 28  1  0  0  0  0
 27 29  1  0  0  0  0
  9 10  1  0  0  0  0
 15 19  1  0  0  0  0
 22 25  1  0  0  0  0
 28 29  1  0  0  0  0
M  END
>  <MolRegNo>
710496

>  <m>
=

>  <Value>
100

>  <Unit>
nM

>  <Type>
IC50

>  <pValue>
7

>  <Ligand Efficiency>
0

>  <Binding Efficiency>
0

>  <Surface Efficiency>
0

>  <Assay Index>
519659

>  <Assay Category>


>  <Assay Organism>


>  <Target ID>
17045

>  <Target Name>
Cytochrome P450 3A4

>  <Target Organism>
Homo sapiens

>  <Target Description>
Target is a single protein chain

>  <Sequence Accession>
P08684

>  <Reference>
Bioorg Med Chem Lett 20 (22), 6597-6605 (2010)

>  <Pubmed ID>
20880704

>  <DOI>
10.1016/j.bmcl.2010.09.029

$$$$
709576
Actelion Java MolfileCreator 1.0

 30 33  0  0  0  0  0  0  0  0999 V2000
    0.0000   -0.0000   -0.0000 F   0  0  0  0  0  0  0  0  0  0  0  0
    1.1826    0.9224   -0.0000 C   0  0  0  0  0  0  0  0  0  0  0  0
    0.9816    2.4243   -0.0000 C   0  0  0  0  0  0  0  0  0  0  0  0
    2.5662    0.3548   -0.0000 C   0  0  0  0  0  0  0  0  0  0  0  0
   -0.4139    3.0156   -0.0000 C   0  0  0  0  0  0  0  0  0  0  0  0
    2.1641    3.3467   -0.0000 C   0  0  0  0  0  0  0  0  0  0  0  0
    3.7370    1.2772   -0.0000 C   0  0  0  0  0  0  0  0  0  0  0  0
   -1.8094    3.6069   -0.0000 C   0  0  0  0  0  0  0  0  0  0  0  0
    3.5359    2.7791   -0.0000 C   0  0  0  0  0  0  0  0  0  0  0  0
   -3.2048    4.1982   -0.0000 C   0  0  0  0  0  0  0  0  0  0  0  0
    4.7185    3.6897   -0.0000 C   0  0  0  0  0  0  0  0  0  0  0  0
   -4.1272    5.4044   -0.0000 C   0  0  0  0  0  0  0  0  0  0  0  0
   -4.7067    4.0208   -0.0000 C   0  0  0  0  0  0  0  0  0  0  0  0
    3.5005    4.5885   -0.0000 N   0  0  0  0  0  0  0  0  0  0  0  0
    5.9721    2.9092   -0.0000 C   0  0  0  0  0  0  0  0  0  0  0  0
    5.9248    4.5885   -0.0000 C   0  0  0  0  0  0  0  0  0  0  0  0
    3.9499    6.0312   -0.0000 C   0  0  0  0  0  0  0  0  0  0  0  0
    5.9011    1.4191   -0.0000 C   0  0  0  0  0  0  0  0  0  0  0  0
    7.2848    3.6187   -0.0000 C   0  0  0  0  0  0  0  0  0  0  0  0
    7.3439    4.1391   -0.0000 O   0  0  0  0  0  0  0  0  0  0  0  0
    5.4399    6.0194   -0.0000 N   0  0  0  0  0  0  0  0  0  0  0  0
    3.0511    7.2611   -0.0000 N   0  0  0  0  0  0  0  0  0  0  0  0
    7.1547    0.6386   -0.0000 C   0  0  0  0  0  0  0  0  0  0  0  0
    8.5501    2.8382   -0.0000 C   0  0  0  0  0  0  0  0  0  0  0  0
    6.4096    7.1547   -0.0000 C   0  0  0  0  0  0  0  0  0  0  0  0
    8.4674    1.3482   -0.0000 C   0  0  0  0  0  0  0  0  0  0  0  0
    9.7327    0.5676   -0.0000 O   0  0  0  0  0  0  0  0  0  0  0  0
   11.0454    1.2890   -0.0000 C   0  0  0  0  0  0  0  0  0  0  0  0
   12.3108    0.5085   -0.0000 F   0  0  0  0  0  0  0  0  0  0  0  0
   11.0809    2.8027   -0.0000 F   0  0  0  0  0  0  0  0  0  0  0  0
  1  2  1  0  0  0  0
  2  3  2  0  0  0  0
  2  4  1  0  0  0  0
  3  5  1  0  0  0  0
  3  6  1  0  0  0  0
  4  7  2  0  0  0  0
  5  8  3  0  0  0  0
  6  9  2  0  0  0  0
  8 10  1  0  0  0  0
  9 11  1  0  0  0  0
 10 12  1  0  0  0  0
 10 13  1  0  0  0  0
 11 14  1  0  0  0  0
 11 15  1  1  0  0  0
 11 16  1  0  0  0  0
 14 17  2  0  0  0  0
 15 18  2  0  0  0  0
 15 19  1  0  0  0  0
 16 20  2  0  0  0  0
 16 21  1  0  0  0  0
 17 22  1  0  0  0  0
 18 23  1  0  0  0  0
 19 24  2  0  0  0  0
 21 25  1  0  0  0  0
 23 26  2  0  0  0  0
 26 27  1  0  0  0  0
 27 28  1  0  0  0  0
 28 29  1  0  0  0  0
 28 30  1  0  0  0  0
  7  9  1  0  0  0  0
 12 13  1  0  0  0  0
 17 21  1  0  0  0  0
 24 26  1  0  0  0  0
M  END
>  <MolRegNo>
709576

>  <m>
=

>  <Value>
10000

>  <Unit>
nM

>  <Type>
IC50

>  <pValue>
5

>  <Ligand Efficiency>
0

>  <Binding Efficiency>
0

>  <Surface Efficiency>
0

>  <Assay Index>
519659

>  <Assay Category>


>  <Assay Organism>


>  <Target ID>
17045

>  <Target Name>
Cytochrome P450 3A4

>  <Target Organism>
Homo sapiens

>  <Target Description>
Target is a single protein chain

>  <Sequence Accession>
P08684

>  <Reference>
Bioorg Med Chem Lett 20 (22), 6597-6605 (2010)

>  <Pubmed ID>
20880704

>  <DOI>
10.1016/j.bmcl.2010.09.029

$$$$
709674
Actelion Java MolfileCreator 1.0

 31 34  0  0  0  0  0  0  0  0999 V2000
    0.0000   -0.0000   -0.0000 F   0  0  0  0  0  0  0  0  0  0  0  0
    1.1826    0.9224   -0.0000 C   0  0  0  0  0  0  0  0  0  0  0  0
    0.9816    2.4243   -0.0000 C   0  0  0  0  0  0  0  0  0  0  0  0
    2.5663    0.3548   -0.0000 C   0  0  0  0  0  0  0  0  0  0  0  0
   -0.4139    3.0156   -0.0000 C   0  0  0  0  0  0  0  0  0  0  0  0
    2.1642    3.3468   -0.0000 C   0  0  0  0  0  0  0  0  0  0  0  0
    3.7370    1.2772   -0.0000 C   0  0  0  0  0  0  0  0  0  0  0  0
   -1.8094    3.6069   -0.0000 C   0  0  0  0  0  0  0  0  0  0  0  0
    3.5360    2.7791   -0.0000 C   0  0  0  0  0  0  0  0  0  0  0  0
   -3.2049    4.1982   -0.0000 C   0  0  0  0  0  0  0  0  0  0  0  0
    4.7186    3.6897   -0.0000 C   0  0  0  0  0  0  0  0  0  0  0  0
   -4.1273    5.4045   -0.0000 C   0  0  0  0  0  0  0  0  0  0  0  0
   -4.7068    4.0209   -0.0000 C   0  0  0  0  0  0  0  0  0  0  0  0
    3.5005    4.5885   -0.0000 N   0  0  0  0  0  0  0  0  0  0  0  0
    5.9722    2.9092   -0.0000 C   0  0  0  0  0  0  0  0  0  0  0  0
    5.9248    4.5885   -0.0000 C   0  0  0  0  0  0  0  0  0  0  0  0
    3.9499    6.0313   -0.0000 C   0  0  0  0  0  0  0  0  0  0  0  0
    5.9012    1.4191   -0.0000 C   0  0  0  0  0  0  0  0  0  0  0  0
    7.2848    3.6188   -0.0000 C   0  0  0  0  0  0  0  0  0  0  0  0
    7.3440    4.1391   -0.0000 O   0  0  0  0  0  0  0  0  0  0  0  0
    5.4400    6.0195   -0.0000 N   0  0  0  0  0  0  0  0  0  0  0  0
    3.0511    7.2612   -0.0000 N   0  0  0  0  0  0  0  0  0  0  0  0
    7.1548    0.6386   -0.0000 C   0  0  0  0  0  0  0  0  0  0  0  0
    8.5502    2.8383   -0.0000 C   0  0  0  0  0  0  0  0  0  0  0  0
    6.4215    7.1548   -0.0000 C   0  0  0  0  0  0  0  0  0  0  0  0
    8.4674    1.3482   -0.0000 C   0  0  0  0  0  0  0  0  0  0  0  0
    7.0838   -0.8515   -0.0000 C   0  0  0  0  0  0  0  0  0  0  0  0
    9.7328    0.5677   -0.0000 O   0  0  0  0  0  0  0  0  0  0  0  0
   11.0455    1.2890   -0.0000 C   0  0  0  0  0  0  0  0  0  0  0  0
   12.3109    0.5085   -0.0000 F   0  0  0  0  0  0  0  0  0  0  0  0
   11.0810    2.8028   -0.0000 F   0  0  0  0  0  0  0  0  0  0  0  0
  1  2  1  0  0  0  0
  2  3  2  0  0  0  0
  2  4  1  0  0  0  0
  3  5  1  0  0  0  0
  3  6  1  0  0  0  0
  4  7  2  0  0  0  0
  5  8  3  0  0  0  0
  6  9  2  0  0  0  0
  8 10  1  0  0  0  0
  9 11  1  0  0  0  0
 10 12  1  0  0  0  0
 10 13  1  0  0  0  0
 11 14  1  0  0  0  0
 11 15  1  1  0  0  0
 11 16  1  0  0  0  0
 14 17  2  0  0  0  0
 15 18  2  0  0  0  0
 15 19  1  0  0  0  0
 16 20  2  0  0  0  0
 16 21  1  0  0  0  0
 17 22  1  0  0  0  0
 18 23  1  0  0  0  0
 19 24  2  0  0  0  0
 21 25  1  0  0  0  0
 23 26  2  0  0  0  0
 23 27  1  0  0  0  0
 26 28  1  0  0  0  0
 28 29  1  0  0  0  0
 29 30  1  0  0  0  0
 29 31  1  0  0  0  0
  7  9  1  0  0  0  0
 12 13  1  0  0  0  0
 17 21  1  0  0  0  0
 24 26  1  0  0  0  0
M  END
>  <MolRegNo>
709674

>  <m>
=

>  <Value>
4100

>  <Unit>
nM

>  <Type>
IC50

>  <pValue>
5.39

>  <Ligand Efficiency>
0

>  <Binding Efficiency>
0

>  <Surface Efficiency>
0

>  <Assay Index>
519659

>  <Assay Category>


>  <Assay Organism>


>  <Target ID>
17045

>  <Target Name>
Cytochrome P450 3A4

>  <Target Organism>
Homo sapiens

>  <Target Description>
Target is a single protein chain

>  <Sequence Accession>
P08684

>  <Reference>
Bioorg Med Chem Lett 20 (22), 6597-6605 (2010)

>  <Pubmed ID>
20880704

>  <DOI>
10.1016/j.bmcl.2010.09.029

$$$$
709874
Actelion Java MolfileCreator 1.0

 30 33  0  0  0  0  0  0  0  0999 V2000
    0.0000   -0.0000   -0.0000 F   0  0  0  0  0  0  0  0  0  0  0  0
   -1.2758    0.8033   -0.0000 C   0  0  0  0  0  0  0  0  0  0  0  0
   -1.2404    2.3036   -0.0000 F   0  0  0  0  0  0  0  0  0  0  0  0
   -2.6107    0.1181   -0.0000 O   0  0  0  0  0  0  0  0  0  0  0  0
   -3.8865    0.9214   -0.0000 C   0  0  0  0  0  0  0  0  0  0  0  0
   -5.2214    0.2363   -0.0000 C   0  0  0  0  0  0  0  0  0  0  0  0
   -3.8511    2.4335   -0.0000 C   0  0  0  0  0  0  0  0  0  0  0  0
   -6.4973    1.0396   -0.0000 C   0  0  0  0  0  0  0  0  0  0  0  0
   -5.2923   -1.2404   -0.0000 C   0  0  0  0  0  0  0  0  0  0  0  0
   -5.1269    3.2368   -0.0000 C   0  0  0  0  0  0  0  0  0  0  0  0
   -6.4500    2.5398   -0.0000 C   0  0  0  0  0  0  0  0  0  0  0  0
   -7.7258    3.3431   -0.0000 C   0  0  0  0  0  0  0  0  0  0  0  0
   -8.9426    4.2409   -0.0000 N   0  0  0  0  0  0  0  0  0  0  0  0
   -8.9190    2.4571   -0.0000 C   0  0  0  0  0  0  0  0  0  0  0  0
   -6.5209    4.2409   -0.0000 C   0  0  0  0  0  0  0  0  0  0  0  0
   -8.4937    5.6703   -0.0000 C   0  0  0  0  0  0  0  0  0  0  0  0
  -10.3129    3.0478   -0.0000 C   0  0  0  0  0  0  0  0  0  0  0  0
   -8.7418    0.9923   -0.0000 C   0  0  0  0  0  0  0  0  0  0  0  0
   -5.1151    3.7920   -0.0000 O   0  0  0  0  0  0  0  0  0  0  0  0
   -7.0052    5.6703   -0.0000 N   0  0  0  0  0  0  0  0  0  0  0  0
   -9.3797    6.8871   -0.0000 N   0  0  0  0  0  0  0  0  0  0  0  0
  -11.5060    2.1500   -0.0000 C   0  0  0  0  0  0  0  0  0  0  0  0
   -9.9349    0.0945   -0.0000 C   0  0  0  0  0  0  0  0  0  0  0  0
   -6.0365    6.8044   -0.0000 C   0  0  0  0  0  0  0  0  0  0  0  0
  -12.9000    2.7407   -0.0000 C   0  0  0  0  0  0  0  0  0  0  0  0
  -11.3288    0.6734   -0.0000 C   0  0  0  0  0  0  0  0  0  0  0  0
  -14.2940    3.3313   -0.0000 C   0  0  0  0  0  0  0  0  0  0  0  0
  -15.6879    3.9220   -0.0000 C   0  0  0  0  0  0  0  0  0  0  0  0
  -16.6093    5.1151   -0.0000 C   0  0  0  0  0  0  0  0  0  0  0  0
  -17.1764    3.7448   -0.0000 C   0  0  0  0  0  0  0  0  0  0  0  0
  1  2  1  0  0  0  0
  2  3  1  0  0  0  0
  2  4  1  0  0  0  0
  4  5  1  0  0  0  0
  5  6  2  0  0  0  0
  5  7  1  0  0  0  0
  6  8  1  0  0  0  0
  6  9  1  0  0  0  0
  7 10  2  0  0  0  0
  8 11  2  0  0  0  0
 11 12  1  0  0  0  0
 12 13  1  6  0  0  0
 12 14  1  0  0  0  0
 12 15  1  0  0  0  0
 13 16  2  0  0  0  0
 14 17  2  0  0  0  0
 14 18  1  0  0  0  0
 15 19  2  0  0  0  0
 15 20  1  0  0  0  0
 16 21  1  0  0  0  0
 17 22  1  0  0  0  0
 18 23  2  0  0  0  0
 20 24  1  0  0  0  0
 22 25  1  0  0  0  0
 22 26  2  0  0  0  0
 25 27  3  0  0  0  0
 27 28  1  0  0  0  0
 28 29  1  0  0  0  0
 28 30  1  0  0  0  0
 10 11  1  0  0  0  0
 16 20  1  0  0  0  0
 23 26  1  0  0  0  0
 29 30  1  0  0  0  0
M  END
>  <MolRegNo>
709874

>  <m>
=

>  <Value>
100

>  <Unit>
nM

>  <Type>
IC50

>  <pValue>
7

>  <Ligand Efficiency>
0

>  <Binding Efficiency>
0

>  <Surface Efficiency>
0

>  <Assay Index>
519659

>  <Assay Category>


>  <Assay Organism>


>  <Target ID>
17045

>  <Target Name>
Cytochrome P450 3A4

>  <Target Organism>
Homo sapiens

>  <Target Description>
Target is a single protein chain

>  <Sequence Accession>
P08684

>  <Reference>
Bioorg Med Chem Lett 20 (22), 6597-6605 (2010)

>  <Pubmed ID>
20880704

>  <DOI>
10.1016/j.bmcl.2010.09.029

$$$$
710080
Actelion Java MolfileCreator 1.0

 31 33  0  0  0  0  0  0  0  0999 V2000
    0.0000   -0.0000   -0.0000 F   0  0  0  0  0  0  0  0  0  0  0  0
    1.1829    0.9226   -0.0000 C   0  0  0  0  0  0  0  0  0  0  0  0
    0.9818    2.4249   -0.0000 C   0  0  0  0  0  0  0  0  0  0  0  0
    2.5668    0.3549   -0.0000 C   0  0  0  0  0  0  0  0  0  0  0  0
   -0.4140    3.0163   -0.0000 C   0  0  0  0  0  0  0  0  0  0  0  0
    2.1647    3.3475   -0.0000 C   0  0  0  0  0  0  0  0  0  0  0  0
    3.7379    1.2775   -0.0000 C   0  0  0  0  0  0  0  0  0  0  0  0
   -1.8098    3.6078   -0.0000 C   0  0  0  0  0  0  0  0  0  0  0  0
    3.5368    2.7797   -0.0000 C   0  0  0  0  0  0  0  0  0  0  0  0
   -3.2056    4.1992   -0.0000 C   0  0  0  0  0  0  0  0  0  0  0  0
    4.7196    3.6906   -0.0000 C   0  0  0  0  0  0  0  0  0  0  0  0
   -4.4121    3.3002   -0.0000 C   0  0  0  0  0  0  0  0  0  0  0  0
    3.5013    4.5895   -0.0000 N   0  0  0  0  0  0  0  0  0  0  0  0
    5.9735    2.9099   -0.0000 C   0  0  0  0  0  0  0  0  0  0  0  0
    5.9262    4.5895   -0.0000 C   0  0  0  0  0  0  0  0  0  0  0  0
   -5.8079    3.8916   -0.0000 C   0  0  0  0  0  0  0  0  0  0  0  0
    3.9508    6.0326   -0.0000 C   0  0  0  0  0  0  0  0  0  0  0  0
    5.9025    1.4194   -0.0000 C   0  0  0  0  0  0  0  0  0  0  0  0
    7.2865    3.6196   -0.0000 C   0  0  0  0  0  0  0  0  0  0  0  0
    7.3456    4.1400   -0.0000 O   0  0  0  0  0  0  0  0  0  0  0  0
    5.4412    6.0208   -0.0000 N   0  0  0  0  0  0  0  0  0  0  0  0
    3.0518    7.2628   -0.0000 N   0  0  0  0  0  0  0  0  0  0  0  0
    7.1564    0.6387   -0.0000 C   0  0  0  0  0  0  0  0  0  0  0  0
    8.5521    2.8389   -0.0000 C   0  0  0  0  0  0  0  0  0  0  0  0
    6.4230    7.1564   -0.0000 C   0  0  0  0  0  0  0  0  0  0  0  0
    8.4693    1.3485   -0.0000 C   0  0  0  0  0  0  0  0  0  0  0  0
    7.0854   -0.8517   -0.0000 C   0  0  0  0  0  0  0  0  0  0  0  0
    9.7350    0.5678   -0.0000 O   0  0  0  0  0  0  0  0  0  0  0  0
   11.0480    1.2893   -0.0000 C   0  0  0  0  0  0  0  0  0  0  0  0
   12.3137    0.5086   -0.0000 F   0  0  0  0  0  0  0  0  0  0  0  0
   11.0835    2.8034   -0.0000 F   0  0  0  0  0  0  0  0  0  0  0  0
  1  2  1  0  0  0  0
  2  3  2  0  0  0  0
  2  4  1  0  0  0  0
  3  5  1  0  0  0  0
  3  6  1  0  0  0  0
  4  7  2  0  0  0  0
  5  8  3  0  0  0  0
  6  9  2  0  0  0  0
  8 10  1  0  0  0  0
  9 11  1  0  0  0  0
 10 12  1  0  0  0  0
 11 13  1  0  0  0  0
 11 14  1  1  0  0  0
 11 15  1  0  0  0  0
 12 16  1  0  0  0  0
 13 17  2  0  0  0  0
 14 18  2  0  0  0  0
 14 19  1  0  0  0  0
 15 20  2  0  0  0  0
 15 21  1  0  0  0  0
 17 22  1  0  0  0  0
 18 23  1  0  0  0  0
 19 24  2  0  0  0  0
 21 25  1  0  0  0  0
 23 26  2  0  0  0  0
 23 27  1  0  0  0  0
 26 28  1  0  0  0  0
 28 29  1  0  0  0  0
 29 30  1  0  0  0  0
 29 31  1  0  0  0  0
  7  9  1  0  0  0  0
 17 21  1  0  0  0  0
 24 26  1  0  0  0  0
M  END
>  <MolRegNo>
710080

>  <m>
=

>  <Value>
3400

>  <Unit>
nM

>  <Type>
IC50

>  <pValue>
5.47

>  <Ligand Efficiency>
0

>  <Binding Efficiency>
0

>  <Surface Efficiency>
0

>  <Assay Index>
519659

>  <Assay Category>


>  <Assay Organism>


>  <Target ID>
17045

>  <Target Name>
Cytochrome P450 3A4

>  <Target Organism>
Homo sapiens

>  <Target Description>
Target is a single protein chain

>  <Sequence Accession>
P08684

>  <Reference>
Bioorg Med Chem Lett 20 (22), 6597-6605 (2010)

>  <Pubmed ID>
20880704

>  <DOI>
10.1016/j.bmcl.2010.09.029

$$$$
710081
Actelion Java MolfileCreator 1.0

 31 33  0  0  0  0  0  0  0  0999 V2000
    0.0000   -0.0000   -0.0000 F   0  0  0  0  0  0  0  0  0  0  0  0
    1.1822    0.9221   -0.0000 C   0  0  0  0  0  0  0  0  0  0  0  0
    0.9813    2.4236   -0.0000 C   0  0  0  0  0  0  0  0  0  0  0  0
    2.5654    0.3547   -0.0000 C   0  0  0  0  0  0  0  0  0  0  0  0
   -0.4138    3.0147   -0.0000 C   0  0  0  0  0  0  0  0  0  0  0  0
    2.1635    3.3457   -0.0000 C   0  0  0  0  0  0  0  0  0  0  0  0
    3.7359    1.2768   -0.0000 C   0  0  0  0  0  0  0  0  0  0  0  0
   -1.8088    3.6058   -0.0000 C   0  0  0  0  0  0  0  0  0  0  0  0
    3.5349    2.7783   -0.0000 C   0  0  0  0  0  0  0  0  0  0  0  0
   -3.2157    4.1969   -0.0000 C   0  0  0  0  0  0  0  0  0  0  0  0
    4.7171    3.6886   -0.0000 C   0  0  0  0  0  0  0  0  0  0  0  0
   -4.4216    3.2984   -0.0000 C   0  0  0  0  0  0  0  0  0  0  0  0
    3.4994    4.5871   -0.0000 N   0  0  0  0  0  0  0  0  0  0  0  0
    5.9703    2.9083   -0.0000 C   0  0  0  0  0  0  0  0  0  0  0  0
    5.9230    4.5871   -0.0000 C   0  0  0  0  0  0  0  0  0  0  0  0
   -5.8284    3.8896   -0.0000 C   0  0  0  0  0  0  0  0  0  0  0  0
    3.9487    6.0294   -0.0000 C   0  0  0  0  0  0  0  0  0  0  0  0
    5.8993    1.4187   -0.0000 C   0  0  0  0  0  0  0  0  0  0  0  0
    7.2826    3.6176   -0.0000 C   0  0  0  0  0  0  0  0  0  0  0  0
    7.3417    4.1378   -0.0000 O   0  0  0  0  0  0  0  0  0  0  0  0
    5.4383    6.0176   -0.0000 N   0  0  0  0  0  0  0  0  0  0  0  0
   -7.0343    2.9911   -0.0000 F   0  0  0  0  0  0  0  0  0  0  0  0
    3.0502    7.2589   -0.0000 N   0  0  0  0  0  0  0  0  0  0  0  0
    7.1525    0.6384   -0.0000 C   0  0  0  0  0  0  0  0  0  0  0  0
    8.5476    2.8374   -0.0000 C   0  0  0  0  0  0  0  0  0  0  0  0
    6.4077    7.1525   -0.0000 C   0  0  0  0  0  0  0  0  0  0  0  0
    8.4648    1.3477   -0.0000 C   0  0  0  0  0  0  0  0  0  0  0  0
    9.7298    0.5675   -0.0000 O   0  0  0  0  0  0  0  0  0  0  0  0
   11.0421    1.2886   -0.0000 C   0  0  0  0  0  0  0  0  0  0  0  0
   12.3071    0.5084   -0.0000 F   0  0  0  0  0  0  0  0  0  0  0  0
   11.0775    2.8019   -0.0000 F   0  0  0  0  0  0  0  0  0  0  0  0
  1  2  1  0  0  0  0
  2  3  2  0  0  0  0
  2  4  1  0  0  0  0
  3  5  1  0  0  0  0
  3  6  1  0  0  0  0
  4  7  2  0  0  0  0
  5  8  3  0  0  0  0
  6  9  2  0  0  0  0
  8 10  1  0  0  0  0
  9 11  1  0  0  0  0
 10 12  1  0  0  0  0
 11 13  1  0  0  0  0
 11 14  1  1  0  0  0
 11 15  1  0  0  0  0
 12 16  1  0  0  0  0
 13 17  2  0  0  0  0
 14 18  2  0  0  0  0
 14 19  1  0  0  0  0
 15 20  2  0  0  0  0
 15 21  1  0  0  0  0
 16 22  1  0  0  0  0
 17 23  1  0  0  0  0
 18 24  1  0  0  0  0
 19 25  2  0  0  0  0
 21 26  1  0  0  0  0
 24 27  2  0  0  0  0
 27 28  1  0  0  0  0
 28 29  1  0  0  0  0
 29 30  1  0  0  0  0
 29 31  1  0  0  0  0
  7  9  1  0  0  0  0
 17 21  1  0  0  0  0
 25 27  1  0  0  0  0
M  END
>  <MolRegNo>
710081

>  <m>
=

>  <Value>
900

>  <Unit>
nM

>  <Type>
IC50

>  <pValue>
6.05

>  <Ligand Efficiency>
0

>  <Binding Efficiency>
0

>  <Surface Efficiency>
0

>  <Assay Index>
519659

>  <Assay Category>


>  <Assay Organism>


>  <Target ID>
17045

>  <Target Name>
Cytochrome P450 3A4

>  <Target Organism>
Homo sapiens

>  <Target Description>
Target is a single protein chain

>  <Sequence Accession>
P08684

>  <Reference>
Bioorg Med Chem Lett 20 (22), 6597-6605 (2010)

>  <Pubmed ID>
20880704

>  <DOI>
10.1016/j.bmcl.2010.09.029

$$$$
710183
Actelion Java MolfileCreator 1.0

 28 30  0  0  0  0  0  0  0  0999 V2000
    0.0000   -0.0000   -0.0000 F   0  0  0  0  0  0  0  0  0  0  0  0
    1.1834    0.9231   -0.0000 C   0  0  0  0  0  0  0  0  0  0  0  0
    0.9822    2.4260   -0.0000 C   0  0  0  0  0  0  0  0  0  0  0  0
    2.5680    0.3550   -0.0000 C   0  0  0  0  0  0  0  0  0  0  0  0
   -0.4142    3.0177   -0.0000 C   0  0  0  0  0  0  0  0  0  0  0  0
    2.1656    3.3490   -0.0000 C   0  0  0  0  0  0  0  0  0  0  0  0
    3.7396    1.2781   -0.0000 C   0  0  0  0  0  0  0  0  0  0  0  0
   -1.8106    3.6094   -0.0000 C   0  0  0  0  0  0  0  0  0  0  0  0
    3.5384    2.7810   -0.0000 C   0  0  0  0  0  0  0  0  0  0  0  0
   -3.2070    4.2011   -0.0000 C   0  0  0  0  0  0  0  0  0  0  0  0
    4.7218    3.6922   -0.0000 C   0  0  0  0  0  0  0  0  0  0  0  0
    3.5029    4.5916   -0.0000 N   0  0  0  0  0  0  0  0  0  0  0  0
    5.9762    2.9112   -0.0000 C   0  0  0  0  0  0  0  0  0  0  0  0
    5.9289    4.5916   -0.0000 C   0  0  0  0  0  0  0  0  0  0  0  0
    3.9526    6.0354   -0.0000 C   0  0  0  0  0  0  0  0  0  0  0  0
    5.9052    1.4201   -0.0000 C   0  0  0  0  0  0  0  0  0  0  0  0
    7.2898    3.6212   -0.0000 C   0  0  0  0  0  0  0  0  0  0  0  0
    7.3489    4.1419   -0.0000 O   0  0  0  0  0  0  0  0  0  0  0  0
    5.4437    6.0235   -0.0000 N   0  0  0  0  0  0  0  0  0  0  0  0
    3.0532    7.2661   -0.0000 N   0  0  0  0  0  0  0  0  0  0  0  0
    7.1596    0.6390   -0.0000 C   0  0  0  0  0  0  0  0  0  0  0  0
    8.5560    2.8402   -0.0000 C   0  0  0  0  0  0  0  0  0  0  0  0
    6.4141    7.1596   -0.0000 C   0  0  0  0  0  0  0  0  0  0  0  0
    8.4732    1.3491   -0.0000 C   0  0  0  0  0  0  0  0  0  0  0  0
    9.7394    0.5680   -0.0000 O   0  0  0  0  0  0  0  0  0  0  0  0
   11.0530    1.2899   -0.0000 C   0  0  0  0  0  0  0  0  0  0  0  0
   12.3192    0.5089   -0.0000 F   0  0  0  0  0  0  0  0  0  0  0  0
   11.0885    2.8047   -0.0000 F   0  0  0  0  0  0  0  0  0  0  0  0
  1  2  1  0  0  0  0
  2  3  2  0  0  0  0
  2  4  1  0  0  0  0
  3  5  1  0  0  0  0
  3  6  1  0  0  0  0
  4  7  2  0  0  0  0
  5  8  3  0  0  0  0
  6  9  2  0  0  0  0
  8 10  1  0  0  0  0
  9 11  1  0  0  0  0
 11 12  1  0  0  0  0
 11 13  1  1  0  0  0
 11 14  1  0  0  0  0
 12 15  2  0  0  0  0
 13 16  2  0  0  0  0
 13 17  1  0  0  0  0
 14 18  2  0  0  0  0
 14 19  1  0  0  0  0
 15 20  1  0  0  0  0
 16 21  1  0  0  0  0
 17 22  2  0  0  0  0
 19 23  1  0  0  0  0
 21 24  2  0  0  0  0
 24 25  1  0  0  0  0
 25 26  1  0  0  0  0
 26 27  1  0  0  0  0
 26 28  1  0  0  0  0
  7  9  1  0  0  0  0
 15 19  1  0  0  0  0
 22 24  1  0  0  0  0
M  END
>  <MolRegNo>
710183

>  <m>
=

>  <Value>
1000

>  <Unit>
nM

>  <Type>
IC50

>  <pValue>
6

>  <Ligand Efficiency>
0

>  <Binding Efficiency>
0

>  <Surface Efficiency>
0

>  <Assay Index>
519659

>  <Assay Category>


>  <Assay Organism>


>  <Target ID>
17045

>  <Target Name>
Cytochrome P450 3A4

>  <Target Organism>
Homo sapiens

>  <Target Description>
Target is a single protein chain

>  <Sequence Accession>
P08684

>  <Reference>
Bioorg Med Chem Lett 20 (22), 6597-6605 (2010)

>  <Pubmed ID>
20880704

>  <DOI>
10.1016/j.bmcl.2010.09.029

$$$$
710742
Actelion Java MolfileCreator 1.0

 30 33  0  0  0  0  0  0  0  0999 V2000
    0.0000   -0.0000   -0.0000 S   0  0  0  0  0  0  0  0  0  0  0  0
    1.2052    0.8980   -0.0000 C   0  0  0  0  0  0  0  0  0  0  0  0
   -1.3115    0.7562   -0.0000 C   0  0  0  0  0  0  0  0  0  0  0  0
    1.1934    2.4103   -0.0000 N   0  0  0  0  0  0  0  0  0  0  0  0
    2.6112    0.4490   -0.0000 N   0  0  0  0  0  0  0  0  0  0  0  0
   -2.6230    0.0236   -0.0000 C   0  0  0  0  0  0  0  0  0  0  0  0
    2.6112    2.8830   -0.0000 N   0  0  0  0  0  0  0  0  0  0  0  0
    3.4855    1.6778   -0.0000 C   0  0  0  0  0  0  0  0  0  0  0  0
    2.6112   -1.0398   -0.0000 C   0  0  0  0  0  0  0  0  0  0  0  0
   -2.6348   -1.4651   -0.0000 O   0  0  0  0  0  0  0  0  0  0  0  0
   -3.9345    0.7798   -0.0000 N   0  0  0  0  0  0  0  0  0  0  0  0
    4.9625    1.8196   -0.0000 C   0  0  0  0  0  0  0  0  0  0  0  0
    1.2997   -1.7841   -0.0000 C   0  0  0  0  0  0  0  0  0  0  0  0
   -5.2460    0.0473   -0.0000 C   0  0  0  0  0  0  0  0  0  0  0  0
    5.9313    0.6971   -0.0000 C   0  0  0  0  0  0  0  0  0  0  0  0
    5.7186    3.1193   -0.0000 C   0  0  0  0  0  0  0  0  0  0  0  0
    1.1461   -3.2729   -0.0000 O   0  0  0  0  0  0  0  0  0  0  0  0
   -0.0827   -1.1697   -0.0000 C   0  0  0  0  0  0  0  0  0  0  0  0
   -6.5575    0.8153   -0.0000 C   0  0  0  0  0  0  0  0  0  0  0  0
   -5.2578   -1.4297   -0.0000 C   0  0  0  0  0  0  0  0  0  0  0  0
    7.3019    1.2997   -0.0000 O   0  0  0  0  0  0  0  0  0  0  0  0
    5.5769   -0.7562   -0.0000 C   0  0  0  0  0  0  0  0  0  0  0  0
    7.1719    2.7884   -0.0000 C   0  0  0  0  0  0  0  0  0  0  0  0
   -0.3308   -3.5801   -0.0000 C   0  0  0  0  0  0  0  0  0  0  0  0
   -1.0988   -2.2804   -0.0000 C   0  0  0  0  0  0  0  0  0  0  0  0
   -7.8690    0.0827   -0.0000 C   0  0  0  0  0  0  0  0  0  0  0  0
   -6.5575   -2.1740   -0.0000 C   0  0  0  0  0  0  0  0  0  0  0  0
   -7.8809   -1.4060   -0.0000 C   0  0  0  0  0  0  0  0  0  0  0  0
   -9.1805    0.8389   -0.0000 C   0  0  0  0  0  0  0  0  0  0  0  0
   -6.5693   -3.6628   -0.0000 C   0  0  0  0  0  0  0  0  0  0  0  0
  1  2  1  0  0  0  0
  1  3  1  0  0  0  0
  2  4  2  0  0  0  0
  2  5  1  0  0  0  0
  3  6  1  0  0  0  0
  4  7  1  0  0  0  0
  5  8  1  0  0  0  0
  5  9  1  0  0  0  0
  6 10  2  0  0  0  0
  6 11  1  0  0  0  0
  8 12  1  0  0  0  0
  9 13  1  0  0  0  0
 11 14  1  0  0  0  0
 12 15  2  0  0  0  0
 12 16  1  0  0  0  0
 13 17  1  0  0  0  0
 13 18  2  0  0  0  0
 14 19  2  0  0  0  0
 14 20  1  0  0  0  0
 15 21  1  0  0  0  0
 15 22  1  0  0  0  0
 16 23  2  0  0  0  0
 17 24  1  0  0  0  0
 18 25  1  0  0  0  0
 19 26  1  0  0  0  0
 20 27  2  0  0  0  0
 26 28  2  0  0  0  0
 26 29  1  0  0  0  0
 27 30  1  0  0  0  0
  7  8  2  0  0  0  0
 21 23  1  0  0  0  0
 24 25  2  0  0  0  0
 27 28  1  0  0  0  0
M  END
>  <MolRegNo>
710742

>  <m>
=

>  <Value>
2000

>  <Unit>
nM

>  <Type>
IC50

>  <pValue>
5.7

>  <Ligand Efficiency>
0

>  <Binding Efficiency>
0

>  <Surface Efficiency>
0

>  <Assay Index>
520988

>  <Assay Category>


>  <Assay Organism>


>  <Target ID>
17045

>  <Target Name>
Cytochrome P450 3A4

>  <Target Organism>
Homo sapiens

>  <Target Description>
Target is a single protein chain

>  <Sequence Accession>
P08684

>  <Reference>
Bioorg Med Chem Lett 20 (22), 6405-6407 (2010)

>  <Pubmed ID>
20933413

>  <DOI>
10.1016/j.bmcl.2010.09.090

$$$$
710797
Actelion Java MolfileCreator 1.0

 33 37  0  0  0  0  0  0  0  0999 V2000
    0.0000   -0.0000   -0.0000 Cl  0  0  0  0  0  0  0  0  0  0  0  0
   -1.2913    0.7476   -0.0000 C   0  0  0  0  0  0  0  0  0  0  0  0
   -2.5827    0.0272   -0.0000 C   0  0  0  0  0  0  0  0  0  0  0  0
   -1.3049    2.2429   -0.0000 C   0  0  0  0  0  0  0  0  0  0  0  0
   -3.8740    0.7748   -0.0000 C   0  0  0  0  0  0  0  0  0  0  0  0
   -2.5963    2.9905   -0.0000 C   0  0  0  0  0  0  0  0  0  0  0  0
   -3.8740    2.2700   -0.0000 C   0  0  0  0  0  0  0  0  0  0  0  0
   -5.1654    3.0177   -0.0000 S   0  0  0  0  0  0  0  0  0  0  0  0
   -6.9053    3.0177   -0.0000 O   0  0  0  0  0  0  0  0  0  0  0  0
   -5.1654    1.3457   -0.0000 O   0  0  0  0  0  0  0  0  0  0  0  0
   -5.1790    4.5129   -0.0000 N   0  0  0  0  0  0  0  0  0  0  0  0
   -3.9148    5.2605   -0.0000 C   0  0  0  0  0  0  0  0  0  0  0  0
   -6.4703    5.2605   -0.0000 C   0  0  0  0  0  0  0  0  0  0  0  0
   -2.6507    4.5265   -0.0000 C   0  0  0  0  0  0  0  0  0  0  0  0
   -3.9284    6.7558   -0.0000 C   0  0  0  0  0  0  0  0  0  0  0  0
   -7.8704    4.5945   -0.0000 C   0  0  0  0  0  0  0  0  0  0  0  0
   -6.4839    6.7558   -0.0000 C   0  0  0  0  0  0  0  0  0  0  0  0
   -2.2836    5.9810   -0.0000 O   0  0  0  0  0  0  0  0  0  0  0  0
   -1.9302    3.2487   -0.0000 C   0  0  0  0  0  0  0  0  0  0  0  0
   -1.1962    4.5401   -0.0000 C   0  0  0  0  0  0  0  0  0  0  0  0
   -5.2197    7.5170   -0.0000 O   0  0  0  0  0  0  0  0  0  0  0  0
   -9.1210    5.4372   -0.0000 C   0  0  0  0  0  0  0  0  0  0  0  0
   -8.2782    3.1808   -0.0000 C   0  0  0  0  0  0  0  0  0  0  0  0
   -0.8700    6.3887   -0.0000 C   0  0  0  0  0  0  0  0  0  0  0  0
    0.1631    5.3557   -0.0000 O   0  0  0  0  0  0  0  0  0  0  0  0
   -0.5029    7.8296   -0.0000 N   0  0  0  0  0  0  0  0  0  0  0  0
   -0.7340    9.0394   -0.0000 C   0  0  0  0  0  0  0  0  0  0  0  0
    0.2583    9.1346   -0.0000 C   0  0  0  0  0  0  0  0  0  0  0  0
   -2.0933   10.2084   -0.0000 C   0  0  0  0  0  0  0  0  0  0  0  0
   -1.0603   10.2220   -0.0000 C   0  0  0  0  0  0  0  0  0  0  0  0
   -1.3321   11.5133   -0.0000 N   0  0  0  0  0  0  0  0  0  0  0  0
   -3.6701    9.8550   -0.0000 C   0  0  0  0  0  0  0  0  0  0  0  0
   -2.3516    9.6375   -0.0000 C   0  0  0  0  0  0  0  0  0  0  0  0
  1  2  1  0  0  0  0
  2  3  2  0  0  0  0
  2  4  1  0  0  0  0
  3  5  1  0  0  0  0
  4  6  2  0  0  0  0
  5  7  2  0  0  0  0
  7  8  1  0  0  0  0
  8  9  2  0  0  0  0
  8 10  2  0  0  0  0
  8 11  1  0  0  0  0
 11 12  1  0  0  0  0
 11 13  1  0  0  0  0
 12 14  1  1  0  0  0
 12 15  1  0  0  0  0
 13 16  1  1  0  0  0
 13 17  1  0  0  0  0
 14 18  1  0  0  0  0
 14 19  1  0  0  0  0
 14 20  1  0  0  0  0
 15 21  1  0  0  0  0
 16 22  1  0  0  0  0
 16 23  1  0  0  0  0
 18 24  1  0  0  0  0
 24 25  2  0  0  0  0
 24 26  1  0  0  0  0
 26 27  1  0  0  0  0
 26 28  1  0  0  0  0
 27 29  1  0  0  0  0
 28 30  1  0  0  0  0
 29 31  1  0  0  0  0
 29 32  1  0  0  0  0
 30 33  1  0  0  0  0
  6  7  1  0  0  0  0
 17 21  1  0  0  0  0
 19 20  1  0  0  0  0
 30 31  1  0  0  0  0
 32 33  1  0  0  0  0
M  END
>  <MolRegNo>
710797

>  <m>
=

>  <Value>
0.5

>  <Unit>
nM

>  <Type>
IC50

>  <pValue>
9.3

>  <Ligand Efficiency>
0

>  <Binding Efficiency>
0

>  <Surface Efficiency>
0

>  <Assay Index>
520992

>  <Assay Category>


>  <Assay Organism>


>  <Target ID>
17045

>  <Target Name>
Cytochrome P450 3A4

>  <Target Organism>
Homo sapiens

>  <Target Description>
Target is a single protein chain

>  <Sequence Accession>
P08684

>  <Reference>
Bioorg Med Chem Lett 20 (22), 6606-6609 (2010)

>  <Pubmed ID>
20933414

>  <DOI>
10.1016/j.bmcl.2010.09.028

$$$$
710854
Actelion Java MolfileCreator 1.0

 31 34  0  0  0  0  0  0  0  0999 V2000
    0.0000   -0.0000   -0.0000 Cl  0  0  0  0  0  0  0  0  0  0  0  0
   -1.2356    0.8554   -0.0000 C   0  0  0  0  0  0  0  0  0  0  0  0
   -2.5935    0.2308   -0.0000 C   0  0  0  0  0  0  0  0  0  0  0  0
   -1.1270    2.3491   -0.0000 C   0  0  0  0  0  0  0  0  0  0  0  0
   -3.8155    1.0863   -0.0000 C   0  0  0  0  0  0  0  0  0  0  0  0
   -2.3626    3.1909   -0.0000 C   0  0  0  0  0  0  0  0  0  0  0  0
   -3.7069    2.5799   -0.0000 C   0  0  0  0  0  0  0  0  0  0  0  0
   -4.9425    3.4353   -0.0000 S   0  0  0  0  0  0  0  0  0  0  0  0
   -6.6806    3.4353   -0.0000 O   0  0  0  0  0  0  0  0  0  0  0  0
   -5.3635    1.7923   -0.0000 O   0  0  0  0  0  0  0  0  0  0  0  0
   -4.9561    4.9290   -0.0000 N   0  0  0  0  0  0  0  0  0  0  0  0
   -3.6933    5.6758   -0.0000 C   0  0  0  0  0  0  0  0  0  0  0  0
   -6.2461    5.6758   -0.0000 C   0  0  0  0  0  0  0  0  0  0  0  0
   -2.4305    4.9561   -0.0000 C   0  0  0  0  0  0  0  0  0  0  0  0
   -3.7069    7.1694   -0.0000 C   0  0  0  0  0  0  0  0  0  0  0  0
   -7.6446    5.0104   -0.0000 C   0  0  0  0  0  0  0  0  0  0  0  0
   -6.2596    7.1694   -0.0000 C   0  0  0  0  0  0  0  0  0  0  0  0
   -2.0639    6.4090   -0.0000 O   0  0  0  0  0  0  0  0  0  0  0  0
   -2.6342    3.5032   -0.0000 C   0  0  0  0  0  0  0  0  0  0  0  0
   -1.2628    4.0871   -0.0000 C   0  0  0  0  0  0  0  0  0  0  0  0
   -4.9969    7.9298   -0.0000 O   0  0  0  0  0  0  0  0  0  0  0  0
   -8.8939    5.8523   -0.0000 C   0  0  0  0  0  0  0  0  0  0  0  0
   -8.0520    3.5983   -0.0000 C   0  0  0  0  0  0  0  0  0  0  0  0
   -0.6518    6.8164   -0.0000 C   0  0  0  0  0  0  0  0  0  0  0  0
    0.3802    5.7844   -0.0000 O   0  0  0  0  0  0  0  0  0  0  0  0
   -0.2851    8.2557   -0.0000 N   0  0  0  0  0  0  0  0  0  0  0  0
    1.0727    8.7988   -0.0000 C   0  0  0  0  0  0  0  0  0  0  0  0
   -1.2356    9.4098   -0.0000 C   0  0  0  0  0  0  0  0  0  0  0  0
    0.9776   10.2924   -0.0000 C   0  0  0  0  0  0  0  0  0  0  0  0
   -0.4481   10.6726   -0.0000 C   0  0  0  0  0  0  0  0  0  0  0  0
    2.1047   11.2429   -0.0000 O   0  0  0  0  0  0  0  0  0  0  0  0
  1  2  1  0  0  0  0
  2  3  2  0  0  0  0
  2  4  1  0  0  0  0
  3  5  1  0  0  0  0
  4  6  2  0  0  0  0
  5  7  2  0  0  0  0
  7  8  1  0  0  0  0
  8  9  2  0  0  0  0
  8 10  2  0  0  0  0
  8 11  1  0  0  0  0
 11 12  1  0  0  0  0
 11 13  1  0  0  0  0
 12 14  1  1  0  0  0
 12 15  1  0  0  0  0
 13 16  1  1  0  0  0
 13 17  1  0  0  0  0
 14 18  1  0  0  0  0
 14 19  1  0  0  0  0
 14 20  1  0  0  0  0
 15 21  1  0  0  0  0
 16 22  1  0  0  0  0
 16 23  1  0  0  0  0
 18 24  1  0  0  0  0
 24 25  2  0  0  0  0
 24 26  1  0  0  0  0
 26 27  1  0  0  0  0
 26 28  1  0  0  0  0
 27 29  1  0  0  0  0
 28 30  1  0  0  0  0
 29 31  1  6  0  0  0
  6  7  1  0  0  0  0
 17 21  1  0  0  0  0
 19 20  1  0  0  0  0
 29 30  1  0  0  0  0
M  END
>  <MolRegNo>
710854

>  <m>
=

>  <Value>
13.6

>  <Unit>
nM

>  <Type>
IC50

>  <pValue>
7.87

>  <Ligand Efficiency>
0

>  <Binding Efficiency>
0

>  <Surface Efficiency>
0

>  <Assay Index>
520992

>  <Assay Category>


>  <Assay Organism>


>  <Target ID>
17045

>  <Target Name>
Cytochrome P450 3A4

>  <Target Organism>
Homo sapiens

>  <Target Description>
Target is a single protein chain

>  <Sequence Accession>
P08684

>  <Reference>
Bioorg Med Chem Lett 20 (22), 6606-6609 (2010)

>  <Pubmed ID>
20933414

>  <DOI>
10.1016/j.bmcl.2010.09.028

$$$$
710855
Actelion Java MolfileCreator 1.0

 33 36  0  0  0  0  0  0  0  0999 V2000
    0.0000   -0.0000   -0.0000 Cl  0  0  0  0  0  0  0  0  0  0  0  0
   -1.2405    0.6952   -0.0000 C   0  0  0  0  0  0  0  0  0  0  0  0
   -2.5356   -0.0273   -0.0000 C   0  0  0  0  0  0  0  0  0  0  0  0
   -1.2542    2.1948   -0.0000 C   0  0  0  0  0  0  0  0  0  0  0  0
   -3.8307    0.7225   -0.0000 C   0  0  0  0  0  0  0  0  0  0  0  0
   -2.5492    2.9446   -0.0000 C   0  0  0  0  0  0  0  0  0  0  0  0
   -3.8307    2.2221   -0.0000 C   0  0  0  0  0  0  0  0  0  0  0  0
   -5.1258    2.9719   -0.0000 S   0  0  0  0  0  0  0  0  0  0  0  0
   -6.8707    2.9719   -0.0000 O   0  0  0  0  0  0  0  0  0  0  0  0
   -5.1258    1.2951   -0.0000 O   0  0  0  0  0  0  0  0  0  0  0  0
   -5.1394    4.4714   -0.0000 N   0  0  0  0  0  0  0  0  0  0  0  0
   -3.8716    5.2212   -0.0000 C   0  0  0  0  0  0  0  0  0  0  0  0
   -6.4345    5.2212   -0.0000 C   0  0  0  0  0  0  0  0  0  0  0  0
   -2.6038    4.4850   -0.0000 C   0  0  0  0  0  0  0  0  0  0  0  0
   -3.8852    6.7207   -0.0000 C   0  0  0  0  0  0  0  0  0  0  0  0
   -7.8386    4.5532   -0.0000 C   0  0  0  0  0  0  0  0  0  0  0  0
   -6.4481    6.7207   -0.0000 C   0  0  0  0  0  0  0  0  0  0  0  0
   -2.2357    5.9437   -0.0000 O   0  0  0  0  0  0  0  0  0  0  0  0
   -2.9310    3.0536   -0.0000 C   0  0  0  0  0  0  0  0  0  0  0  0
   -1.5268    3.5035   -0.0000 C   0  0  0  0  0  0  0  0  0  0  0  0
   -5.1803    7.4842   -0.0000 O   0  0  0  0  0  0  0  0  0  0  0  0
   -9.0928    5.3984   -0.0000 C   0  0  0  0  0  0  0  0  0  0  0  0
   -8.2476    3.1354   -0.0000 C   0  0  0  0  0  0  0  0  0  0  0  0
   -0.8179    6.3527   -0.0000 C   0  0  0  0  0  0  0  0  0  0  0  0
    0.2181    5.3166   -0.0000 O   0  0  0  0  0  0  0  0  0  0  0  0
   -0.4499    7.7977   -0.0000 N   0  0  0  0  0  0  0  0  0  0  0  0
    0.9815    8.1930   -0.0000 C   0  0  0  0  0  0  0  0  0  0  0  0
   -1.5132    8.8474   -0.0000 C   0  0  0  0  0  0  0  0  0  0  0  0
    1.3496    9.6381   -0.0000 C   0  0  0  0  0  0  0  0  0  0  0  0
   -1.1451   10.2924   -0.0000 C   0  0  0  0  0  0  0  0  0  0  0  0
    0.2863   10.7014   -0.0000 C   0  0  0  0  0  0  0  0  0  0  0  0
    0.6544   12.1464   -0.0000 C   0  0  0  0  0  0  0  0  0  0  0  0
    2.0721   12.5418   -0.0000 O   0  0  0  0  0  0  0  0  0  0  0  0
  1  2  1  0  0  0  0
  2  3  2  0  0  0  0
  2  4  1  0  0  0  0
  3  5  1  0  0  0  0
  4  6  2  0  0  0  0
  5  7  2  0  0  0  0
  7  8  1  0  0  0  0
  8  9  2  0  0  0  0
  8 10  2  0  0  0  0
  8 11  1  0  0  0  0
 11 12  1  0  0  0  0
 11 13  1  0  0  0  0
 12 14  1  1  0  0  0
 12 15  1  0  0  0  0
 13 16  1  1  0  0  0
 13 17  1  0  0  0  0
 14 18  1  0  0  0  0
 14 19  1  0  0  0  0
 14 20  1  0  0  0  0
 15 21  1  0  0  0  0
 16 22  1  0  0  0  0
 16 23  1  0  0  0  0
 18 24  1  0  0  0  0
 24 25  2  0  0  0  0
 24 26  1  0  0  0  0
 26 27  1  0  0  0  0
 26 28  1  0  0  0  0
 27 29  1  0  0  0  0
 28 30  1  0  0  0  0
 29 31  1  0  0  0  0
 31 32  1  0  0  0  0
 32 33  1  0  0  0  0
  6  7  1  0  0  0  0
 17 21  1  0  0  0  0
 19 20  1  0  0  0  0
 30 31  1  0  0  0  0
M  END
>  <MolRegNo>
710855

>  <m>
=

>  <Value>
13.8

>  <Unit>
nM

>  <Type>
IC50

>  <pValue>
7.86

>  <Ligand Efficiency>
0

>  <Binding Efficiency>
0

>  <Surface Efficiency>
0

>  <Assay Index>
520992

>  <Assay Category>


>  <Assay Organism>


>  <Target ID>
17045

>  <Target Name>
Cytochrome P450 3A4

>  <Target Organism>
Homo sapiens

>  <Target Description>
Target is a single protein chain

>  <Sequence Accession>
P08684

>  <Reference>
Bioorg Med Chem Lett 20 (22), 6606-6609 (2010)

>  <Pubmed ID>
20933414

>  <DOI>
10.1016/j.bmcl.2010.09.028

$$$$
710906
Actelion Java MolfileCreator 1.0

 31 34  0  0  0  0  0  0  0  0999 V2000
    0.0000   -0.0000   -0.0000 Cl  0  0  0  0  0  0  0  0  0  0  0  0
   -1.2926    0.7484   -0.0000 C   0  0  0  0  0  0  0  0  0  0  0  0
   -2.5852    0.0272   -0.0000 C   0  0  0  0  0  0  0  0  0  0  0  0
   -1.3062    2.2451   -0.0000 C   0  0  0  0  0  0  0  0  0  0  0  0
   -3.8778    0.7756   -0.0000 C   0  0  0  0  0  0  0  0  0  0  0  0
   -2.5988    2.9934   -0.0000 C   0  0  0  0  0  0  0  0  0  0  0  0
   -3.8778    2.2723   -0.0000 C   0  0  0  0  0  0  0  0  0  0  0  0
   -5.1705    3.0206   -0.0000 S   0  0  0  0  0  0  0  0  0  0  0  0
   -6.9121    3.0206   -0.0000 O   0  0  0  0  0  0  0  0  0  0  0  0
   -5.1705    1.3470   -0.0000 O   0  0  0  0  0  0  0  0  0  0  0  0
   -5.1841    4.5173   -0.0000 N   0  0  0  0  0  0  0  0  0  0  0  0
   -3.9187    5.2657   -0.0000 C   0  0  0  0  0  0  0  0  0  0  0  0
   -6.4767    5.2657   -0.0000 C   0  0  0  0  0  0  0  0  0  0  0  0
   -2.6533    4.5446   -0.0000 C   0  0  0  0  0  0  0  0  0  0  0  0
   -3.9323    6.7624   -0.0000 C   0  0  0  0  0  0  0  0  0  0  0  0
   -7.8781    4.5990   -0.0000 C   0  0  0  0  0  0  0  0  0  0  0  0
   -6.4903    6.7624   -0.0000 C   0  0  0  0  0  0  0  0  0  0  0  0
   -2.2859    6.0005   -0.0000 O   0  0  0  0  0  0  0  0  0  0  0  0
   -3.0342    3.1295   -0.0000 C   0  0  0  0  0  0  0  0  0  0  0  0
   -1.6056    3.5241   -0.0000 C   0  0  0  0  0  0  0  0  0  0  0  0
   -5.2249    7.5244   -0.0000 O   0  0  0  0  0  0  0  0  0  0  0  0
   -9.1299    5.4426   -0.0000 C   0  0  0  0  0  0  0  0  0  0  0  0
   -8.2863    3.1839   -0.0000 C   0  0  0  0  0  0  0  0  0  0  0  0
   -0.8708    6.4086   -0.0000 C   0  0  0  0  0  0  0  0  0  0  0  0
    0.1633    5.3746   -0.0000 O   0  0  0  0  0  0  0  0  0  0  0  0
   -0.5034    7.8509   -0.0000 N   0  0  0  0  0  0  0  0  0  0  0  0
    0.8572    8.3952   -0.0000 C   0  0  0  0  0  0  0  0  0  0  0  0
   -1.4559    9.0075   -0.0000 C   0  0  0  0  0  0  0  0  0  0  0  0
    0.7620    9.8919   -0.0000 C   0  0  0  0  0  0  0  0  0  0  0  0
   -0.6667   10.2729   -0.0000 C   0  0  0  0  0  0  0  0  0  0  0  0
    1.8913   10.8444   -0.0000 O   0  0  0  0  0  0  0  0  0  0  0  0
  1  2  1  0  0  0  0
  2  3  2  0  0  0  0
  2  4  1  0  0  0  0
  3  5  1  0  0  0  0
  4  6  2  0  0  0  0
  5  7  2  0  0  0  0
  7  8  1  0  0  0  0
  8  9  2  0  0  0  0
  8 10  2  0  0  0  0
  8 11  1  0  0  0  0
 11 12  1  0  0  0  0
 11 13  1  0  0  0  0
 12 14  1  1  0  0  0
 12 15  1  0  0  0  0
 13 16  1  1  0  0  0
 13 17  1  0  0  0  0
 14 18  1  0  0  0  0
 14 19  1  0  0  0  0
 14 20  1  0  0  0  0
 15 21  1  0  0  0  0
 16 22  1  0  0  0  0
 16 23  1  0  0  0  0
 18 24  1  0  0  0  0
 24 25  2  0  0  0  0
 24 26  1  0  0  0  0
 26 27  1  0  0  0  0
 26 28  1  0  0  0  0
 27 29  1  0  0  0  0
 28 30  1  0  0  0  0
 29 31  1  1  0  0  0
  6  7  1  0  0  0  0
 17 21  1  0  0  0  0
 19 20  1  0  0  0  0
 29 30  1  0  0  0  0
M  END
>  <MolRegNo>
710906

>  <m>
=

>  <Value>
30

>  <Unit>
nM

>  <Type>
IC50

>  <pValue>
7.52

>  <Ligand Efficiency>
0

>  <Binding Efficiency>
0

>  <Surface Efficiency>
0

>  <Assay Index>
520992

>  <Assay Category>


>  <Assay Organism>


>  <Target ID>
17045

>  <Target Name>
Cytochrome P450 3A4

>  <Target Organism>
Homo sapiens

>  <Target Description>
Target is a single protein chain

>  <Sequence Accession>
P08684

>  <Reference>
Bioorg Med Chem Lett 20 (22), 6606-6609 (2010)

>  <Pubmed ID>
20933414

>  <DOI>
10.1016/j.bmcl.2010.09.028

$$$$
710907
Actelion Java MolfileCreator 1.0

 33 37  0  0  0  0  0  0  0  0999 V2000
    0.0000   -0.0000   -0.0000 Cl  0  0  0  0  0  0  0  0  0  0  0  0
   -1.2936    0.7489   -0.0000 C   0  0  0  0  0  0  0  0  0  0  0  0
   -2.5871    0.0272   -0.0000 C   0  0  0  0  0  0  0  0  0  0  0  0
   -1.3072    2.2467   -0.0000 C   0  0  0  0  0  0  0  0  0  0  0  0
   -3.8807    0.7761   -0.0000 C   0  0  0  0  0  0  0  0  0  0  0  0
   -2.6008    2.9956   -0.0000 C   0  0  0  0  0  0  0  0  0  0  0  0
   -3.8807    2.2740   -0.0000 C   0  0  0  0  0  0  0  0  0  0  0  0
   -5.1743    3.0229   -0.0000 S   0  0  0  0  0  0  0  0  0  0  0  0
   -6.9172    3.0229   -0.0000 O   0  0  0  0  0  0  0  0  0  0  0  0
   -5.1743    1.3480   -0.0000 O   0  0  0  0  0  0  0  0  0  0  0  0
   -5.1879    4.5207   -0.0000 N   0  0  0  0  0  0  0  0  0  0  0  0
   -3.9216    5.2696   -0.0000 C   0  0  0  0  0  0  0  0  0  0  0  0
   -6.4815    5.2696   -0.0000 C   0  0  0  0  0  0  0  0  0  0  0  0
   -2.6552    4.5343   -0.0000 C   0  0  0  0  0  0  0  0  0  0  0  0
   -3.9352    6.7674   -0.0000 C   0  0  0  0  0  0  0  0  0  0  0  0
   -7.8840    4.6024   -0.0000 C   0  0  0  0  0  0  0  0  0  0  0  0
   -6.4951    6.7674   -0.0000 C   0  0  0  0  0  0  0  0  0  0  0  0
   -2.2876    5.9913   -0.0000 O   0  0  0  0  0  0  0  0  0  0  0  0
   -3.0365    3.1182   -0.0000 C   0  0  0  0  0  0  0  0  0  0  0  0
   -1.6067    3.5131   -0.0000 C   0  0  0  0  0  0  0  0  0  0  0  0
   -5.2287    7.5299   -0.0000 O   0  0  0  0  0  0  0  0  0  0  0  0
   -9.1367    5.4466   -0.0000 C   0  0  0  0  0  0  0  0  0  0  0  0
   -8.2925    3.1863   -0.0000 C   0  0  0  0  0  0  0  0  0  0  0  0
   -0.8715    6.3998   -0.0000 C   0  0  0  0  0  0  0  0  0  0  0  0
    0.1634    5.3649   -0.0000 O   0  0  0  0  0  0  0  0  0  0  0  0
   -0.5038    7.8431   -0.0000 N   0  0  0  0  0  0  0  0  0  0  0  0
    0.8578    8.3878   -0.0000 C   0  0  0  0  0  0  0  0  0  0  0  0
   -1.4570    9.0005   -0.0000 C   0  0  0  0  0  0  0  0  0  0  0  0
    0.7625    9.8856   -0.0000 C   0  0  0  0  0  0  0  0  0  0  0  0
   -0.6672   10.2668   -0.0000 C   0  0  0  0  0  0  0  0  0  0  0  0
    1.5523   11.1383   -0.0000 C   0  0  0  0  0  0  0  0  0  0  0  0
   -0.7625   11.7510   -0.0000 C   0  0  0  0  0  0  0  0  0  0  0  0
    0.5991   12.2957   -0.0000 N   0  0  0  0  0  0  0  0  0  0  0  0
  1  2  1  0  0  0  0
  2  3  2  0  0  0  0
  2  4  1  0  0  0  0
  3  5  1  0  0  0  0
  4  6  2  0  0  0  0
  5  7  2  0  0  0  0
  7  8  1  0  0  0  0
  8  9  2  0  0  0  0
  8 10  2  0  0  0  0
  8 11  1  0  0  0  0
 11 12  1  0  0  0  0
 11 13  1  0  0  0  0
 12 14  1  1  0  0  0
 12 15  1  0  0  0  0
 13 16  1  1  0  0  0
 13 17  1  0  0  0  0
 14 18  1  0  0  0  0
 14 19  1  0  0  0  0
 14 20  1  0  0  0  0
 15 21  1  0  0  0  0
 16 22  1  0  0  0  0
 16 23  1  0  0  0  0
 18 24  1  0  0  0  0
 24 25  2  0  0  0  0
 24 26  1  0  0  0  0
 26 27  1  0  0  0  0
 26 28  1  0  0  0  0
 27 29  1  0  0  0  0
 28 30  1  0  0  0  0
 29 31  1  0  0  0  0
 30 32  1  0  0  0  0
 31 33  1  0  0  0  0
  6  7  1  0  0  0  0
 17 21  1  0  0  0  0
 19 20  1  0  0  0  0
 29 30  1  0  0  0  0
 32 33  1  0  0  0  0
M  END
>  <MolRegNo>
710907

>  <m>
=

>  <Value>
6.4

>  <Unit>
nM

>  <Type>
IC50

>  <pValue>
8.19

>  <Ligand Efficiency>
0

>  <Binding Efficiency>
0

>  <Surface Efficiency>
0

>  <Assay Index>
520992

>  <Assay Category>


>  <Assay Organism>


>  <Target ID>
17045

>  <Target Name>
Cytochrome P450 3A4

>  <Target Organism>
Homo sapiens

>  <Target Description>
Target is a single protein chain

>  <Sequence Accession>
P08684

>  <Reference>
Bioorg Med Chem Lett 20 (22), 6606-6609 (2010)

>  <Pubmed ID>
20933414

>  <DOI>
10.1016/j.bmcl.2010.09.028

$$$$
710958
Actelion Java MolfileCreator 1.0

 31 34  0  0  0  0  0  0  0  0999 V2000
    0.0000   -0.0000   -0.0000 Cl  0  0  0  0  0  0  0  0  0  0  0  0
   -1.2923    0.7482   -0.0000 C   0  0  0  0  0  0  0  0  0  0  0  0
   -2.5846    0.0272   -0.0000 C   0  0  0  0  0  0  0  0  0  0  0  0
   -1.3059    2.2445   -0.0000 C   0  0  0  0  0  0  0  0  0  0  0  0
   -3.8769    0.7754   -0.0000 C   0  0  0  0  0  0  0  0  0  0  0  0
   -2.5982    2.9927   -0.0000 C   0  0  0  0  0  0  0  0  0  0  0  0
   -3.8769    2.2717   -0.0000 C   0  0  0  0  0  0  0  0  0  0  0  0
   -5.1692    3.0199   -0.0000 S   0  0  0  0  0  0  0  0  0  0  0  0
   -6.9104    3.0199   -0.0000 O   0  0  0  0  0  0  0  0  0  0  0  0
   -5.1692    1.3467   -0.0000 O   0  0  0  0  0  0  0  0  0  0  0  0
   -5.1828    4.5162   -0.0000 N   0  0  0  0  0  0  0  0  0  0  0  0
   -3.9177    5.2644   -0.0000 C   0  0  0  0  0  0  0  0  0  0  0  0
   -6.4751    5.2644   -0.0000 C   0  0  0  0  0  0  0  0  0  0  0  0
   -2.6526    4.5298   -0.0000 C   0  0  0  0  0  0  0  0  0  0  0  0
   -3.9313    6.7608   -0.0000 C   0  0  0  0  0  0  0  0  0  0  0  0
   -7.8762    4.5979   -0.0000 C   0  0  0  0  0  0  0  0  0  0  0  0
   -6.4887    6.7608   -0.0000 C   0  0  0  0  0  0  0  0  0  0  0  0
   -2.2853    5.9854   -0.0000 O   0  0  0  0  0  0  0  0  0  0  0  0
   -3.0879    3.1287   -0.0000 C   0  0  0  0  0  0  0  0  0  0  0  0
   -1.6596    3.4688   -0.0000 C   0  0  0  0  0  0  0  0  0  0  0  0
   -5.2236    7.5225   -0.0000 O   0  0  0  0  0  0  0  0  0  0  0  0
   -9.1277    5.4412   -0.0000 C   0  0  0  0  0  0  0  0  0  0  0  0
   -8.2843    3.1831   -0.0000 C   0  0  0  0  0  0  0  0  0  0  0  0
   -0.8706    6.3935   -0.0000 C   0  0  0  0  0  0  0  0  0  0  0  0
    0.1632    5.3596   -0.0000 O   0  0  0  0  0  0  0  0  0  0  0  0
   -0.5033    7.8354   -0.0000 N   0  0  0  0  0  0  0  0  0  0  0  0
    0.9250    8.2299   -0.0000 C   0  0  0  0  0  0  0  0  0  0  0  0
   -1.5644    8.8828   -0.0000 C   0  0  0  0  0  0  0  0  0  0  0  0
    1.2923    9.6718   -0.0000 C   0  0  0  0  0  0  0  0  0  0  0  0
   -1.1971   10.3248   -0.0000 C   0  0  0  0  0  0  0  0  0  0  0  0
    0.2313   10.7329   -0.0000 N   0  0  0  0  0  0  0  0  0  0  0  0
  1  2  1  0  0  0  0
  2  3  2  0  0  0  0
  2  4  1  0  0  0  0
  3  5  1  0  0  0  0
  4  6  2  0  0  0  0
  5  7  2  0  0  0  0
  7  8  1  0  0  0  0
  8  9  2  0  0  0  0
  8 10  2  0  0  0  0
  8 11  1  0  0  0  0
 11 12  1  0  0  0  0
 11 13  1  0  0  0  0
 12 14  1  1  0  0  0
 12 15  1  0  0  0  0
 13 16  1  1  0  0  0
 13 17  1  0  0  0  0
 14 18  1  0  0  0  0
 14 19  1  0  0  0  0
 14 20  1  0  0  0  0
 15 21  1  0  0  0  0
 16 22  1  0  0  0  0
 16 23  1  0  0  0  0
 18 24  1  0  0  0  0
 24 25  2  0  0  0  0
 24 26  1  0  0  0  0
 26 27  1  0  0  0  0
 26 28  1  0  0  0  0
 27 29  1  0  0  0  0
 28 30  1  0  0  0  0
 29 31  1  0  0  0  0
  6  7  1  0  0  0  0
 17 21  1  0  0  0  0
 19 20  1  0  0  0  0
 30 31  1  0  0  0  0
M  END
>  <MolRegNo>
710958

>  <m>
=

>  <Value>
0.3

>  <Unit>
nM

>  <Type>
IC50

>  <pValue>
9.52

>  <Ligand Efficiency>
0

>  <Binding Efficiency>
0

>  <Surface Efficiency>
0

>  <Assay Index>
520992

>  <Assay Category>


>  <Assay Organism>


>  <Target ID>
17045

>  <Target Name>
Cytochrome P450 3A4

>  <Target Organism>
Homo sapiens

>  <Target Description>
Target is a single protein chain

>  <Sequence Accession>
P08684

>  <Reference>
Bioorg Med Chem Lett 20 (22), 6606-6609 (2010)

>  <Pubmed ID>
20933414

>  <DOI>
10.1016/j.bmcl.2010.09.028

$$$$
710959
Actelion Java MolfileCreator 1.0

 35 37  0  0  0  0  0  0  0  0999 V2000
    0.0000   -0.0000   -0.0000 Cl  0  0  0  0  0  0  0  0  0  0  0  0
   -1.3093    0.7587   -0.0000 C   0  0  0  0  0  0  0  0  0  0  0  0
   -2.6187    0.0245   -0.0000 C   0  0  0  0  0  0  0  0  0  0  0  0
   -1.3216    2.2761   -0.0000 C   0  0  0  0  0  0  0  0  0  0  0  0
   -3.9280    0.7832   -0.0000 C   0  0  0  0  0  0  0  0  0  0  0  0
   -2.6309    3.0347   -0.0000 C   0  0  0  0  0  0  0  0  0  0  0  0
   -3.9280    2.2883   -0.0000 C   0  0  0  0  0  0  0  0  0  0  0  0
   -5.2374    3.0470   -0.0000 S   0  0  0  0  0  0  0  0  0  0  0  0
   -6.8037    3.7690   -0.0000 O   0  0  0  0  0  0  0  0  0  0  0  0
   -5.8982    1.8478   -0.0000 O   0  0  0  0  0  0  0  0  0  0  0  0
   -5.2496    4.5521   -0.0000 N   0  0  0  0  0  0  0  0  0  0  0  0
   -6.5467    5.2986   -0.0000 C   0  0  0  0  0  0  0  0  0  0  0  0
   -3.9770    5.2986   -0.0000 C   0  0  0  0  0  0  0  0  0  0  0  0
   -7.8561    4.5644   -0.0000 C   0  0  0  0  0  0  0  0  0  0  0  0
   -6.5590    6.8037   -0.0000 C   0  0  0  0  0  0  0  0  0  0  0  0
   -3.9892    6.8037   -0.0000 C   0  0  0  0  0  0  0  0  0  0  0  0
   -2.6921    4.5644   -0.0000 C   0  0  0  0  0  0  0  0  0  0  0  0
   -9.1654    5.3230   -0.0000 C   0  0  0  0  0  0  0  0  0  0  0  0
   -7.8683    3.0837   -0.0000 C   0  0  0  0  0  0  0  0  0  0  0  0
   -9.1777    3.8424   -0.0000 C   0  0  0  0  0  0  0  0  0  0  0  0
   -5.2863    7.5746   -0.0000 O   0  0  0  0  0  0  0  0  0  0  0  0
   -1.4072    5.3230   -0.0000 O   0  0  0  0  0  0  0  0  0  0  0  0
   -0.1224    4.5888   -0.0000 C   0  0  0  0  0  0  0  0  0  0  0  0
   -0.1346    3.1082   -0.0000 O   0  0  0  0  0  0  0  0  0  0  0  0
    1.1625    5.3475   -0.0000 N   0  0  0  0  0  0  0  0  0  0  0  0
    2.4474    4.6011   -0.0000 C   0  0  0  0  0  0  0  0  0  0  0  0
    1.1503    6.8404   -0.0000 C   0  0  0  0  0  0  0  0  0  0  0  0
    3.7322    5.3475   -0.0000 C   0  0  0  0  0  0  0  0  0  0  0  0
    2.4474    7.5991   -0.0000 C   0  0  0  0  0  0  0  0  0  0  0  0
    3.7322    6.8527   -0.0000 N   0  0  0  0  0  0  0  0  0  0  0  0
    5.0171    7.5991   -0.0000 C   0  0  0  0  0  0  0  0  0  0  0  0
    6.2898    6.8527   -0.0000 C   0  0  0  0  0  0  0  0  0  0  0  0
    4.2462    8.9084   -0.0000 C   0  0  0  0  0  0  0  0  0  0  0  0
    6.0573    8.6759   -0.0000 C   0  0  0  0  0  0  0  0  0  0  0  0
    7.5746    7.5991   -0.0000 O   0  0  0  0  0  0  0  0  0  0  0  0
  1  2  1  0  0  0  0
  2  3  2  0  0  0  0
  2  4  1  0  0  0  0
  3  5  1  0  0  0  0
  4  6  2  0  0  0  0
  5  7  2  0  0  0  0
  7  8  1  0  0  0  0
  8  9  2  0  0  0  0
  8 10  2  0  0  0  0
  8 11  1  0  0  0  0
 11 12  1  0  0  0  0
 11 13  1  0  0  0  0
 12 14  1  6  0  0  0
 12 15  1  0  0  0  0
 13 16  1  0  0  0  0
 13 17  1  6  0  0  0
 14 18  1  0  0  0  0
 14 19  1  0  0  0  0
 14 20  1  0  0  0  0
 15 21  1  0  0  0  0
 17 22  1  0  0  0  0
 22 23  1  0  0  0  0
 23 24  2  0  0  0  0
 23 25  1  0  0  0  0
 25 26  1  0  0  0  0
 25 27  1  0  0  0  0
 26 28  1  0  0  0  0
 27 29  1  0  0  0  0
 28 30  1  0  0  0  0
 30 31  1  0  0  0  0
 31 32  1  0  0  0  0
 31 33  1  0  0  0  0
 31 34  1  0  0  0  0
 32 35  1  0  0  0  0
  6  7  1  0  0  0  0
 16 21  1  0  0  0  0
 29 30  1  0  0  0  0
M  END
>  <MolRegNo>
710959

>  <m>
=

>  <Value>
23.8

>  <Unit>
nM

>  <Type>
IC50

>  <pValue>
7.62

>  <Ligand Efficiency>
0

>  <Binding Efficiency>
0

>  <Surface Efficiency>
0

>  <Assay Index>
520992

>  <Assay Category>


>  <Assay Organism>


>  <Target ID>
17045

>  <Target Name>
Cytochrome P450 3A4

>  <Target Organism>
Homo sapiens

>  <Target Description>
Target is a single protein chain

>  <Sequence Accession>
P08684

>  <Reference>
Bioorg Med Chem Lett 20 (22), 6606-6609 (2010)

>  <Pubmed ID>
20933414

>  <DOI>
10.1016/j.bmcl.2010.09.028

$$$$
711018
Actelion Java MolfileCreator 1.0

 32 34  0  0  0  0  0  0  0  0999 V2000
    0.0000   -0.0000   -0.0000 Cl  0  0  0  0  0  0  0  0  0  0  0  0
   -1.3097    0.7589   -0.0000 C   0  0  0  0  0  0  0  0  0  0  0  0
   -2.6194    0.0245   -0.0000 C   0  0  0  0  0  0  0  0  0  0  0  0
   -1.3220    2.2767   -0.0000 C   0  0  0  0  0  0  0  0  0  0  0  0
   -3.9292    0.7834   -0.0000 C   0  0  0  0  0  0  0  0  0  0  0  0
   -2.6317    3.0234   -0.0000 C   0  0  0  0  0  0  0  0  0  0  0  0
   -3.9292    2.2890   -0.0000 C   0  0  0  0  0  0  0  0  0  0  0  0
   -5.2389    3.0479   -0.0000 S   0  0  0  0  0  0  0  0  0  0  0  0
   -6.8057    3.7700   -0.0000 O   0  0  0  0  0  0  0  0  0  0  0  0
   -5.8999    1.8483   -0.0000 O   0  0  0  0  0  0  0  0  0  0  0  0
   -5.2511    4.5534   -0.0000 N   0  0  0  0  0  0  0  0  0  0  0  0
   -6.5486    5.3001   -0.0000 C   0  0  0  0  0  0  0  0  0  0  0  0
   -3.9781    5.3001   -0.0000 C   0  0  0  0  0  0  0  0  0  0  0  0
   -7.8583    4.5657   -0.0000 C   0  0  0  0  0  0  0  0  0  0  0  0
   -6.5609    6.8057   -0.0000 C   0  0  0  0  0  0  0  0  0  0  0  0
   -3.9904    6.8057   -0.0000 C   0  0  0  0  0  0  0  0  0  0  0  0
   -2.6929    4.5657   -0.0000 C   0  0  0  0  0  0  0  0  0  0  0  0
   -9.1681    5.3246   -0.0000 C   0  0  0  0  0  0  0  0  0  0  0  0
   -7.8706    3.0846   -0.0000 C   0  0  0  0  0  0  0  0  0  0  0  0
   -9.1803    3.8435   -0.0000 C   0  0  0  0  0  0  0  0  0  0  0  0
   -5.2879    7.5768   -0.0000 O   0  0  0  0  0  0  0  0  0  0  0  0
   -1.4076    5.3246   -0.0000 O   0  0  0  0  0  0  0  0  0  0  0  0
   -0.1224    4.5902   -0.0000 C   0  0  0  0  0  0  0  0  0  0  0  0
   -0.1346    3.1091   -0.0000 O   0  0  0  0  0  0  0  0  0  0  0  0
    1.1628    5.3491   -0.0000 N   0  0  0  0  0  0  0  0  0  0  0  0
    2.4481    4.6024   -0.0000 C   0  0  0  0  0  0  0  0  0  0  0  0
    1.1506    6.8424   -0.0000 C   0  0  0  0  0  0  0  0  0  0  0  0
    3.7333    5.3491   -0.0000 C   0  0  0  0  0  0  0  0  0  0  0  0
    2.4358    7.6013   -0.0000 C   0  0  0  0  0  0  0  0  0  0  0  0
    3.7333    6.8546   -0.0000 C   0  0  0  0  0  0  0  0  0  0  0  0
    5.0186    7.6013   -0.0000 C   0  0  0  0  0  0  0  0  0  0  0  0
    6.2916    6.8546   -0.0000 O   0  0  0  0  0  0  0  0  0  0  0  0
  1  2  1  0  0  0  0
  2  3  2  0  0  0  0
  2  4  1  0  0  0  0
  3  5  1  0  0  0  0
  4  6  2  0  0  0  0
  5  7  2  0  0  0  0
  7  8  1  0  0  0  0
  8  9  2  0  0  0  0
  8 10  2  0  0  0  0
  8 11  1  0  0  0  0
 11 12  1  0  0  0  0
 11 13  1  0  0  0  0
 12 14  1  6  0  0  0
 12 15  1  0  0  0  0
 13 16  1  0  0  0  0
 13 17  1  6  0  0  0
 14 18  1  0  0  0  0
 14 19  1  0  0  0  0
 14 20  1  0  0  0  0
 15 21  1  0  0  0  0
 17 22  1  0  0  0  0
 22 23  1  0  0  0  0
 23 24  2  0  0  0  0
 23 25  1  0  0  0  0
 25 26  1  0  0  0  0
 25 27  1  0  0  0  0
 26 28  1  0  0  0  0
 27 29  1  0  0  0  0
 28 30  1  0  0  0  0
 30 31  1  0  0  0  0
 31 32  1  0  0  0  0
  6  7  1  0  0  0  0
 16 21  1  0  0  0  0
 29 30  1  0  0  0  0
M  END
>  <MolRegNo>
711018

>  <m>
=

>  <Value>
7.1

>  <Unit>
nM

>  <Type>
IC50

>  <pValue>
8.15

>  <Ligand Efficiency>
0

>  <Binding Efficiency>
0

>  <Surface Efficiency>
0

>  <Assay Index>
520992

>  <Assay Category>


>  <Assay Organism>


>  <Target ID>
17045

>  <Target Name>
Cytochrome P450 3A4

>  <Target Organism>
Homo sapiens

>  <Target Description>
Target is a single protein chain

>  <Sequence Accession>
P08684

>  <Reference>
Bioorg Med Chem Lett 20 (22), 6606-6609 (2010)

>  <Pubmed ID>
20933414

>  <DOI>
10.1016/j.bmcl.2010.09.028

$$$$
711019
Actelion Java MolfileCreator 1.0

 32 35  0  0  0  0  0  0  0  0999 V2000
    0.0000   -0.0000   -0.0000 Cl  0  0  0  0  0  0  0  0  0  0  0  0
   -1.3100    0.7590   -0.0000 C   0  0  0  0  0  0  0  0  0  0  0  0
   -2.6199    0.0245   -0.0000 C   0  0  0  0  0  0  0  0  0  0  0  0
   -1.3222    2.2771   -0.0000 C   0  0  0  0  0  0  0  0  0  0  0  0
   -3.9299    0.7835   -0.0000 C   0  0  0  0  0  0  0  0  0  0  0  0
   -2.6321    3.0361   -0.0000 C   0  0  0  0  0  0  0  0  0  0  0  0
   -3.9299    2.2894   -0.0000 C   0  0  0  0  0  0  0  0  0  0  0  0
   -5.2398    3.0484   -0.0000 S   0  0  0  0  0  0  0  0  0  0  0  0
   -6.8069    3.7707   -0.0000 O   0  0  0  0  0  0  0  0  0  0  0  0
   -5.9009    1.8486   -0.0000 O   0  0  0  0  0  0  0  0  0  0  0  0
   -5.2520    4.5542   -0.0000 N   0  0  0  0  0  0  0  0  0  0  0  0
   -6.5498    5.3010   -0.0000 C   0  0  0  0  0  0  0  0  0  0  0  0
   -3.9788    5.3010   -0.0000 C   0  0  0  0  0  0  0  0  0  0  0  0
   -7.8597    4.5665   -0.0000 C   0  0  0  0  0  0  0  0  0  0  0  0
   -6.5620    6.8069   -0.0000 C   0  0  0  0  0  0  0  0  0  0  0  0
   -3.9911    6.8069   -0.0000 C   0  0  0  0  0  0  0  0  0  0  0  0
   -2.6934    4.5665   -0.0000 C   0  0  0  0  0  0  0  0  0  0  0  0
   -8.6187    3.2810   -0.0000 C   0  0  0  0  0  0  0  0  0  0  0  0
   -7.1252    3.2810   -0.0000 C   0  0  0  0  0  0  0  0  0  0  0  0
   -9.1697    5.3255   -0.0000 C   0  0  0  0  0  0  0  0  0  0  0  0
   -5.2888    7.5781   -0.0000 O   0  0  0  0  0  0  0  0  0  0  0  0
   -1.4079    5.3255   -0.0000 O   0  0  0  0  0  0  0  0  0  0  0  0
   -0.1224    4.5910   -0.0000 C   0  0  0  0  0  0  0  0  0  0  0  0
   -0.1347    3.1096   -0.0000 O   0  0  0  0  0  0  0  0  0  0  0  0
    1.1630    5.3500   -0.0000 N   0  0  0  0  0  0  0  0  0  0  0  0
    2.4485    4.6032   -0.0000 C   0  0  0  0  0  0  0  0  0  0  0  0
    1.1508    6.8436   -0.0000 C   0  0  0  0  0  0  0  0  0  0  0  0
    3.7340    5.3500   -0.0000 C   0  0  0  0  0  0  0  0  0  0  0  0
    2.4363    7.6026   -0.0000 C   0  0  0  0  0  0  0  0  0  0  0  0
    3.7340    6.8558   -0.0000 C   0  0  0  0  0  0  0  0  0  0  0  0
    5.0194    7.6026   -0.0000 C   0  0  0  0  0  0  0  0  0  0  0  0
    6.2927    6.8558   -0.0000 O   0  0  0  0  0  0  0  0  0  0  0  0
  1  2  1  0  0  0  0
  2  3  2  0  0  0  0
  2  4  1  0  0  0  0
  3  5  1  0  0  0  0
  4  6  2  0  0  0  0
  5  7  2  0  0  0  0
  7  8  1  0  0  0  0
  8  9  2  0  0  0  0
  8 10  2  0  0  0  0
  8 11  1  0  0  0  0
 11 12  1  0  0  0  0
 11 13  1  0  0  0  0
 12 14  1  6  0  0  0
 12 15  1  0  0  0  0
 13 16  1  0  0  0  0
 13 17  1  6  0  0  0
 14 18  1  0  0  0  0
 14 19  1  0  0  0  0
 14 20  1  0  0  0  0
 15 21  1  0  0  0  0
 17 22  1  0  0  0  0
 22 23  1  0  0  0  0
 23 24  2  0  0  0  0
 23 25  1  0  0  0  0
 25 26  1  0  0  0  0
 25 27  1  0  0  0  0
 26 28  1  0  0  0  0
 27 29  1  0  0  0  0
 28 30  1  0  0  0  0
 30 31  1  0  0  0  0
 31 32  1  0  0  0  0
  6  7  1  0  0  0  0
 16 21  1  0  0  0  0
 18 19  1  0  0  0  0
 29 30  1  0  0  0  0
M  END
>  <MolRegNo>
711019

>  <m>
=

>  <Value>
5.5

>  <Unit>
nM

>  <Type>
IC50

>  <pValue>
8.26

>  <Ligand Efficiency>
0

>  <Binding Efficiency>
0

>  <Surface Efficiency>
0

>  <Assay Index>
520992

>  <Assay Category>


>  <Assay Organism>


>  <Target ID>
17045

>  <Target Name>
Cytochrome P450 3A4

>  <Target Organism>
Homo sapiens

>  <Target Description>
Target is a single protein chain

>  <Sequence Accession>
P08684

>  <Reference>
Bioorg Med Chem Lett 20 (22), 6606-6609 (2010)

>  <Pubmed ID>
20933414

>  <DOI>
10.1016/j.bmcl.2010.09.028

$$$$
711077
Actelion Java MolfileCreator 1.0

 36 40  0  0  0  0  0  0  0  0999 V2000
    0.0000   -0.0000   -0.0000 Cl  0  0  0  0  0  0  0  0  0  0  0  0
   -1.3106    0.7594   -0.0000 C   0  0  0  0  0  0  0  0  0  0  0  0
   -2.6211    0.0245   -0.0000 C   0  0  0  0  0  0  0  0  0  0  0  0
   -1.3228    2.2782   -0.0000 C   0  0  0  0  0  0  0  0  0  0  0  0
   -3.9317    0.7839   -0.0000 C   0  0  0  0  0  0  0  0  0  0  0  0
   -2.6334    3.0376   -0.0000 C   0  0  0  0  0  0  0  0  0  0  0  0
   -3.9317    2.2904   -0.0000 C   0  0  0  0  0  0  0  0  0  0  0  0
   -5.2423    3.0498   -0.0000 S   0  0  0  0  0  0  0  0  0  0  0  0
   -6.8101    3.7725   -0.0000 O   0  0  0  0  0  0  0  0  0  0  0  0
   -5.9037    1.8495   -0.0000 O   0  0  0  0  0  0  0  0  0  0  0  0
   -5.2545    4.5564   -0.0000 N   0  0  0  0  0  0  0  0  0  0  0  0
   -6.5529    5.3035   -0.0000 C   0  0  0  0  0  0  0  0  0  0  0  0
   -3.9807    5.3035   -0.0000 C   0  0  0  0  0  0  0  0  0  0  0  0
   -7.8634    4.5686   -0.0000 C   0  0  0  0  0  0  0  0  0  0  0  0
   -6.5651    6.8101   -0.0000 C   0  0  0  0  0  0  0  0  0  0  0  0
   -3.9930    6.8101   -0.0000 C   0  0  0  0  0  0  0  0  0  0  0  0
   -2.6946    4.5686   -0.0000 C   0  0  0  0  0  0  0  0  0  0  0  0
   -8.6228    3.2825   -0.0000 C   0  0  0  0  0  0  0  0  0  0  0  0
   -7.1285    3.2825   -0.0000 C   0  0  0  0  0  0  0  0  0  0  0  0
   -9.1740    5.3280   -0.0000 C   0  0  0  0  0  0  0  0  0  0  0  0
   -5.2913    7.5817   -0.0000 O   0  0  0  0  0  0  0  0  0  0  0  0
   -1.4086    5.3280   -0.0000 O   0  0  0  0  0  0  0  0  0  0  0  0
   -0.1225    4.5931   -0.0000 C   0  0  0  0  0  0  0  0  0  0  0  0
   -0.1347    3.1111   -0.0000 O   0  0  0  0  0  0  0  0  0  0  0  0
    1.1636    5.3525   -0.0000 N   0  0  0  0  0  0  0  0  0  0  0  0
    2.4497    4.6054   -0.0000 C   0  0  0  0  0  0  0  0  0  0  0  0
    1.1513    6.8468   -0.0000 C   0  0  0  0  0  0  0  0  0  0  0  0
    3.7357    5.3525   -0.0000 C   0  0  0  0  0  0  0  0  0  0  0  0
    2.4374    7.6062   -0.0000 C   0  0  0  0  0  0  0  0  0  0  0  0
    3.7357    6.8591   -0.0000 C   0  0  0  0  0  0  0  0  0  0  0  0
    5.0218    7.6062   -0.0000 N   0  0  0  0  0  0  0  0  0  0  0  0
    6.2956    6.8591   -0.0000 C   0  0  0  0  0  0  0  0  0  0  0  0
    5.0096    9.1127   -0.0000 C   0  0  0  0  0  0  0  0  0  0  0  0
    7.5817    7.6062   -0.0000 C   0  0  0  0  0  0  0  0  0  0  0  0
    6.3079    9.8599   -0.0000 C   0  0  0  0  0  0  0  0  0  0  0  0
    7.5817    9.1127   -0.0000 C   0  0  0  0  0  0  0  0  0  0  0  0
  1  2  1  0  0  0  0
  2  3  2  0  0  0  0
  2  4  1  0  0  0  0
  3  5  1  0  0  0  0
  4  6  2  0  0  0  0
  5  7  2  0  0  0  0
  7  8  1  0  0  0  0
  8  9  2  0  0  0  0
  8 10  2  0  0  0  0
  8 11  1  0  0  0  0
 11 12  1  0  0  0  0
 11 13  1  0  0  0  0
 12 14  1  6  0  0  0
 12 15  1  0  0  0  0
 13 16  1  0  0  0  0
 13 17  1  6  0  0  0
 14 18  1  0  0  0  0
 14 19  1  0  0  0  0
 14 20  1  0  0  0  0
 15 21  1  0  0  0  0
 17 22  1  0  0  0  0
 22 23  1  0  0  0  0
 23 24  2  0  0  0  0
 23 25  1  0  0  0  0
 25 26  1  0  0  0  0
 25 27  1  0  0  0  0
 26 28  1  0  0  0  0
 27 29  1  0  0  0  0
 28 30  1  0  0  0  0
 30 31  1  0  0  0  0
 31 32  1  0  0  0  0
 31 33  1  0  0  0  0
 32 34  1  0  0  0  0
 33 35  1  0  0  0  0
 34 36  1  0  0  0  0
  6  7  1  0  0  0  0
 16 21  1  0  0  0  0
 18 19  1  0  0  0  0
 29 30  1  0  0  0  0
 35 36  1  0  0  0  0
M  END
>  <MolRegNo>
711077

>  <m>
=

>  <Value>
1.5

>  <Unit>
nM

>  <Type>
IC50

>  <pValue>
8.82

>  <Ligand Efficiency>
0

>  <Binding Efficiency>
0

>  <Surface Efficiency>
0

>  <Assay Index>
520992

>  <Assay Category>


>  <Assay Organism>


>  <Target ID>
17045

>  <Target Name>
Cytochrome P450 3A4

>  <Target Organism>
Homo sapiens

>  <Target Description>
Target is a single protein chain

>  <Sequence Accession>
P08684

>  <Reference>
Bioorg Med Chem Lett 20 (22), 6606-6609 (2010)

>  <Pubmed ID>
20933414

>  <DOI>
10.1016/j.bmcl.2010.09.028

$$$$
711078
Actelion Java MolfileCreator 1.0

 35 38  0  0  0  0  0  0  0  0999 V2000
    0.0000   -0.0000   -0.0000 Cl  0  0  0  0  0  0  0  0  0  0  0  0
   -1.3098    0.7590   -0.0000 C   0  0  0  0  0  0  0  0  0  0  0  0
   -2.6197    0.0245   -0.0000 C   0  0  0  0  0  0  0  0  0  0  0  0
   -1.3221    2.2769   -0.0000 C   0  0  0  0  0  0  0  0  0  0  0  0
   -3.9295    0.7835   -0.0000 C   0  0  0  0  0  0  0  0  0  0  0  0
   -2.6319    3.0359   -0.0000 C   0  0  0  0  0  0  0  0  0  0  0  0
   -3.9295    2.2892   -0.0000 C   0  0  0  0  0  0  0  0  0  0  0  0
   -5.2394    3.0481   -0.0000 S   0  0  0  0  0  0  0  0  0  0  0  0
   -6.8063    3.7704   -0.0000 O   0  0  0  0  0  0  0  0  0  0  0  0
   -5.9004    1.8485   -0.0000 O   0  0  0  0  0  0  0  0  0  0  0  0
   -5.2516    4.5539   -0.0000 N   0  0  0  0  0  0  0  0  0  0  0  0
   -6.5492    5.3006   -0.0000 C   0  0  0  0  0  0  0  0  0  0  0  0
   -3.9785    5.3006   -0.0000 C   0  0  0  0  0  0  0  0  0  0  0  0
   -7.8591    4.5661   -0.0000 C   0  0  0  0  0  0  0  0  0  0  0  0
   -6.5615    6.8063   -0.0000 C   0  0  0  0  0  0  0  0  0  0  0  0
   -3.9907    6.8063   -0.0000 C   0  0  0  0  0  0  0  0  0  0  0  0
   -2.6931    4.5661   -0.0000 C   0  0  0  0  0  0  0  0  0  0  0  0
   -8.6181    3.2807   -0.0000 C   0  0  0  0  0  0  0  0  0  0  0  0
   -7.1246    3.2807   -0.0000 C   0  0  0  0  0  0  0  0  0  0  0  0
   -9.1689    5.3251   -0.0000 C   0  0  0  0  0  0  0  0  0  0  0  0
   -5.2883    7.5775   -0.0000 O   0  0  0  0  0  0  0  0  0  0  0  0
   -1.4078    5.3251   -0.0000 O   0  0  0  0  0  0  0  0  0  0  0  0
   -0.1224    4.5906   -0.0000 C   0  0  0  0  0  0  0  0  0  0  0  0
   -0.1347    3.1094   -0.0000 O   0  0  0  0  0  0  0  0  0  0  0  0
    1.1629    5.3496   -0.0000 N   0  0  0  0  0  0  0  0  0  0  0  0
    2.4483    4.6028   -0.0000 C   0  0  0  0  0  0  0  0  0  0  0  0
    1.1507    6.8430   -0.0000 C   0  0  0  0  0  0  0  0  0  0  0  0
    3.7337    5.3496   -0.0000 C   0  0  0  0  0  0  0  0  0  0  0  0
    2.4483    7.6020   -0.0000 C   0  0  0  0  0  0  0  0  0  0  0  0
    3.7337    6.8553   -0.0000 N   0  0  0  0  0  0  0  0  0  0  0  0
    5.0190    7.6020   -0.0000 C   0  0  0  0  0  0  0  0  0  0  0  0
    6.2922    6.8553   -0.0000 C   0  0  0  0  0  0  0  0  0  0  0  0
    4.2478    8.9118   -0.0000 C   0  0  0  0  0  0  0  0  0  0  0  0
    6.0596    8.6793   -0.0000 C   0  0  0  0  0  0  0  0  0  0  0  0
    7.5775    7.6020   -0.0000 O   0  0  0  0  0  0  0  0  0  0  0  0
  1  2  1  0  0  0  0
  2  3  2  0  0  0  0
  2  4  1  0  0  0  0
  3  5  1  0  0  0  0
  4  6  2  0  0  0  0
  5  7  2  0  0  0  0
  7  8  1  0  0  0  0
  8  9  2  0  0  0  0
  8 10  2  0  0  0  0
  8 11  1  0  0  0  0
 11 12  1  0  0  0  0
 11 13  1  0  0  0  0
 12 14  1  6  0  0  0
 12 15  1  0  0  0  0
 13 16  1  0  0  0  0
 13 17  1  6  0  0  0
 14 18  1  0  0  0  0
 14 19  1  0  0  0  0
 14 20  1  0  0  0  0
 15 21  1  0  0  0  0
 17 22  1  0  0  0  0
 22 23  1  0  0  0  0
 23 24  2  0  0  0  0
 23 25  1  0  0  0  0
 25 26  1  0  0  0  0
 25 27  1  0  0  0  0
 26 28  1  0  0  0  0
 27 29  1  0  0  0  0
 28 30  1  0  0  0  0
 30 31  1  0  0  0  0
 31 32  1  0  0  0  0
 31 33  1  0  0  0  0
 31 34  1  0  0  0  0
 32 35  1  0  0  0  0
  6  7  1  0  0  0  0
 16 21  1  0  0  0  0
 18 19  1  0  0  0  0
 29 30  1  0  0  0  0
M  END
>  <MolRegNo>
711078

>  <m>
=

>  <Value>
0.5

>  <Unit>
nM

>  <Type>
IC50

>  <pValue>
9.3

>  <Ligand Efficiency>
0

>  <Binding Efficiency>
0

>  <Surface Efficiency>
0

>  <Assay Index>
520992

>  <Assay Category>


>  <Assay Organism>


>  <Target ID>
17045

>  <Target Name>
Cytochrome P450 3A4

>  <Target Organism>
Homo sapiens

>  <Target Description>
Target is a single protein chain

>  <Sequence Accession>
P08684

>  <Reference>
Bioorg Med Chem Lett 20 (22), 6606-6609 (2010)

>  <Pubmed ID>
20933414

>  <DOI>
10.1016/j.bmcl.2010.09.028

$$$$
711136
Actelion Java MolfileCreator 1.0

 34 39  0  0  0  0  0  0  0  0999 V2000
    0.0000   -0.0000   -0.0000 Cl  0  0  0  0  0  0  0  0  0  0  0  0
   -1.3384    0.6965   -0.0000 C   0  0  0  0  0  0  0  0  0  0  0  0
   -2.5948   -0.0956   -0.0000 C   0  0  0  0  0  0  0  0  0  0  0  0
   -1.4340    2.1987   -0.0000 C   0  0  0  0  0  0  0  0  0  0  0  0
   -3.9195    0.6009   -0.0000 C   0  0  0  0  0  0  0  0  0  0  0  0
   -2.7587    2.8816   -0.0000 C   0  0  0  0  0  0  0  0  0  0  0  0
   -4.0014    2.1031   -0.0000 C   0  0  0  0  0  0  0  0  0  0  0  0
   -5.3398    2.7996   -0.0000 S   0  0  0  0  0  0  0  0  0  0  0  0
   -7.0742    2.7177   -0.0000 O   0  0  0  0  0  0  0  0  0  0  0  0
   -5.2578    1.1199   -0.0000 O   0  0  0  0  0  0  0  0  0  0  0  0
   -5.4217    4.3019   -0.0000 N   0  0  0  0  0  0  0  0  0  0  0  0
   -4.1926    5.1076   -0.0000 C   0  0  0  0  0  0  0  0  0  0  0  0
   -6.7464    4.9847   -0.0000 C   0  0  0  0  0  0  0  0  0  0  0  0
   -2.8952    4.4384   -0.0000 C   0  0  0  0  0  0  0  0  0  0  0  0
   -4.2746    6.5962   -0.0000 C   0  0  0  0  0  0  0  0  0  0  0  0
   -6.8284    6.4733   -0.0000 C   0  0  0  0  0  0  0  0  0  0  0  0
   -8.1121    4.2472   -0.0000 C   0  0  0  0  0  0  0  0  0  0  0  0
   -1.6661    5.2578   -0.0000 O   0  0  0  0  0  0  0  0  0  0  0  0
   -3.6464    3.1684   -0.0000 C   0  0  0  0  0  0  0  0  0  0  0  0
   -2.1714    3.1684   -0.0000 C   0  0  0  0  0  0  0  0  0  0  0  0
   -5.5993    7.2927   -0.0000 O   0  0  0  0  0  0  0  0  0  0  0  0
   -9.3958    5.0257   -0.0000 C   0  0  0  0  0  0  0  0  0  0  0  0
   -0.3687    4.5887   -0.0000 C   0  0  0  0  0  0  0  0  0  0  0  0
  -10.1333    6.3367   -0.0000 C   0  0  0  0  0  0  0  0  0  0  0  0
  -10.8981    5.0667   -0.0000 C   0  0  0  0  0  0  0  0  0  0  0  0
   -0.3141    3.1137   -0.0000 O   0  0  0  0  0  0  0  0  0  0  0  0
    0.8604    5.4081   -0.0000 N   0  0  0  0  0  0  0  0  0  0  0  0
    1.4203    6.5006   -0.0000 C   0  0  0  0  0  0  0  0  0  0  0  0
    2.2534    5.9817   -0.0000 C   0  0  0  0  0  0  0  0  0  0  0  0
    1.0379    8.2487   -0.0000 C   0  0  0  0  0  0  0  0  0  0  0  0
    1.8573    7.6478   -0.0000 C   0  0  0  0  0  0  0  0  0  0  0  0
    2.4172    8.8086   -0.0000 N   0  0  0  0  0  0  0  0  0  0  0  0
   -0.4370    8.9315   -0.0000 C   0  0  0  0  0  0  0  0  0  0  0  0
    0.4643    7.9619   -0.0000 C   0  0  0  0  0  0  0  0  0  0  0  0
  1  2  1  0  0  0  0
  2  3  2  0  0  0  0
  2  4  1  0  0  0  0
  3  5  1  0  0  0  0
  4  6  2  0  0  0  0
  5  7  2  0  0  0  0
  7  8  1  0  0  0  0
  8  9  2  0  0  0  0
  8 10  2  0  0  0  0
  8 11  1  0  0  0  0
 11 12  1  0  0  0  0
 11 13  1  0  0  0  0
 12 14  1  1  0  0  0
 12 15  1  0  0  0  0
 13 16  1  0  0  0  0
 13 17  1  1  0  0  0
 14 18  1  0  0  0  0
 14 19  1  0  0  0  0
 14 20  1  0  0  0  0
 15 21  1  0  0  0  0
 17 22  1  0  0  0  0
 18 23  1  0  0  0  0
 22 24  1  0  0  0  0
 22 25  1  0  0  0  0
 23 26  2  0  0  0  0
 23 27  1  0  0  0  0
 27 28  1  0  0  0  0
 27 29  1  0  0  0  0
 28 30  1  0  0  0  0
 29 31  1  0  0  0  0
 30 32  1  0  0  0  0
 30 33  1  0  0  0  0
 31 34  1  0  0  0  0
  6  7  1  0  0  0  0
 16 21  1  0  0  0  0
 19 20  1  0  0  0  0
 24 25  1  0  0  0  0
 31 32  1  0  0  0  0
 33 34  1  0  0  0  0
M  END
>  <MolRegNo>
711136

>  <m>
=

>  <Value>
0.8

>  <Unit>
nM

>  <Type>
IC50

>  <pValue>
9.1

>  <Ligand Efficiency>
0

>  <Binding Efficiency>
0

>  <Surface Efficiency>
0

>  <Assay Index>
520992

>  <Assay Category>


>  <Assay Organism>


>  <Target ID>
17045

>  <Target Name>
Cytochrome P450 3A4

>  <Target Organism>
Homo sapiens

>  <Target Description>
Target is a single protein chain

>  <Sequence Accession>
P08684

>  <Reference>
Bioorg Med Chem Lett 20 (22), 6606-6609 (2010)

>  <Pubmed ID>
20933414

>  <DOI>
10.1016/j.bmcl.2010.09.028

$$$$
711137
Actelion Java MolfileCreator 1.0

 37 42  0  0  0  0  0  0  0  0999 V2000
    0.0000   -0.0000   -0.0000 Cl  0  0  0  0  0  0  0  0  0  0  0  0
   -1.3399    0.6973   -0.0000 C   0  0  0  0  0  0  0  0  0  0  0  0
   -2.5977   -0.0957   -0.0000 C   0  0  0  0  0  0  0  0  0  0  0  0
   -1.4356    2.2012   -0.0000 C   0  0  0  0  0  0  0  0  0  0  0  0
   -3.9239    0.6016   -0.0000 C   0  0  0  0  0  0  0  0  0  0  0  0
   -2.7618    2.8848   -0.0000 C   0  0  0  0  0  0  0  0  0  0  0  0
   -4.0059    2.1055   -0.0000 C   0  0  0  0  0  0  0  0  0  0  0  0
   -5.3458    2.8028   -0.0000 S   0  0  0  0  0  0  0  0  0  0  0  0
   -7.0821    2.7207   -0.0000 O   0  0  0  0  0  0  0  0  0  0  0  0
   -5.2637    1.1211   -0.0000 O   0  0  0  0  0  0  0  0  0  0  0  0
   -5.4278    4.3067   -0.0000 N   0  0  0  0  0  0  0  0  0  0  0  0
   -4.1973    5.1133   -0.0000 C   0  0  0  0  0  0  0  0  0  0  0  0
   -6.7540    4.9903   -0.0000 C   0  0  0  0  0  0  0  0  0  0  0  0
   -2.8985    4.4434   -0.0000 C   0  0  0  0  0  0  0  0  0  0  0  0
   -4.2794    6.6036   -0.0000 C   0  0  0  0  0  0  0  0  0  0  0  0
   -6.8360    6.4805   -0.0000 C   0  0  0  0  0  0  0  0  0  0  0  0
   -8.1212    4.2520   -0.0000 C   0  0  0  0  0  0  0  0  0  0  0  0
   -1.6680    5.2637   -0.0000 O   0  0  0  0  0  0  0  0  0  0  0  0
   -3.6504    3.1719   -0.0000 C   0  0  0  0  0  0  0  0  0  0  0  0
   -2.1739    3.1719   -0.0000 C   0  0  0  0  0  0  0  0  0  0  0  0
   -5.6055    7.3009   -0.0000 O   0  0  0  0  0  0  0  0  0  0  0  0
   -9.4064    5.0313   -0.0000 C   0  0  0  0  0  0  0  0  0  0  0  0
   -0.3691    4.5938   -0.0000 C   0  0  0  0  0  0  0  0  0  0  0  0
  -10.1447    6.3438   -0.0000 C   0  0  0  0  0  0  0  0  0  0  0  0
  -10.9103    5.0723   -0.0000 C   0  0  0  0  0  0  0  0  0  0  0  0
   -0.3145    3.1172   -0.0000 O   0  0  0  0  0  0  0  0  0  0  0  0
    0.8613    5.4141   -0.0000 N   0  0  0  0  0  0  0  0  0  0  0  0
    1.4219    6.5079   -0.0000 C   0  0  0  0  0  0  0  0  0  0  0  0
    2.2559    5.9884   -0.0000 C   0  0  0  0  0  0  0  0  0  0  0  0
    1.0391    8.2579   -0.0000 C   0  0  0  0  0  0  0  0  0  0  0  0
    1.8594    7.6563   -0.0000 C   0  0  0  0  0  0  0  0  0  0  0  0
    2.4200    8.8185   -0.0000 N   0  0  0  0  0  0  0  0  0  0  0  0
   -0.4375    8.9415   -0.0000 C   0  0  0  0  0  0  0  0  0  0  0  0
    0.4648    7.9708   -0.0000 C   0  0  0  0  0  0  0  0  0  0  0  0
    3.5000    9.8302   -0.0000 C   0  0  0  0  0  0  0  0  0  0  0  0
    4.9083    9.3927   -0.0000 C   0  0  0  0  0  0  0  0  0  0  0  0
    5.9884   10.4044   -0.0000 O   0  0  0  0  0  0  0  0  0  0  0  0
  1  2  1  0  0  0  0
  2  3  2  0  0  0  0
  2  4  1  0  0  0  0
  3  5  1  0  0  0  0
  4  6  2  0  0  0  0
  5  7  2  0  0  0  0
  7  8  1  0  0  0  0
  8  9  2  0  0  0  0
  8 10  2  0  0  0  0
  8 11  1  0  0  0  0
 11 12  1  0  0  0  0
 11 13  1  0  0  0  0
 12 14  1  1  0  0  0
 12 15  1  0  0  0  0
 13 16  1  0  0  0  0
 13 17  1  1  0  0  0
 14 18  1  0  0  0  0
 14 19  1  0  0  0  0
 14 20  1  0  0  0  0
 15 21  1  0  0  0  0
 17 22  1  0  0  0  0
 18 23  1  0  0  0  0
 22 24  1  0  0  0  0
 22 25  1  0  0  0  0
 23 26  2  0  0  0  0
 23 27  1  0  0  0  0
 27 28  1  0  0  0  0
 27 29  1  0  0  0  0
 28 30  1  0  0  0  0
 29 31  1  0  0  0  0
 30 32  1  0  0  0  0
 30 33  1  0  0  0  0
 31 34  1  0  0  0  0
 32 35  1  0  0  0  0
 35 36  1  0  0  0  0
 36 37  1  0  0  0  0
  6  7  1  0  0  0  0
 16 21  1  0  0  0  0
 19 20  1  0  0  0  0
 24 25  1  0  0  0  0
 31 32  1  0  0  0  0
 33 34  1  0  0  0  0
M  END
>  <MolRegNo>
711137

>  <m>
=

>  <Value>
2.3

>  <Unit>
nM

>  <Type>
IC50

>  <pValue>
8.64

>  <Ligand Efficiency>
0

>  <Binding Efficiency>
0

>  <Surface Efficiency>
0

>  <Assay Index>
520992

>  <Assay Category>


>  <Assay Organism>


>  <Target ID>
17045

>  <Target Name>
Cytochrome P450 3A4

>  <Target Organism>
Homo sapiens

>  <Target Description>
Target is a single protein chain

>  <Sequence Accession>
P08684

>  <Reference>
Bioorg Med Chem Lett 20 (22), 6606-6609 (2010)

>  <Pubmed ID>
20933414

>  <DOI>
10.1016/j.bmcl.2010.09.028

$$$$
711304
Actelion Java MolfileCreator 1.0

 36 41  0  0  0  0  0  0  0  0999 V2000
    0.0000   -0.0000   -0.0000 Cl  0  0  0  0  0  0  0  0  0  0  0  0
   -1.3333    0.6965   -0.0000 C   0  0  0  0  0  0  0  0  0  0  0  0
   -2.6070   -0.0796   -0.0000 C   0  0  0  0  0  0  0  0  0  0  0  0
   -1.4328    2.2090   -0.0000 C   0  0  0  0  0  0  0  0  0  0  0  0
   -3.9403    0.6169   -0.0000 C   0  0  0  0  0  0  0  0  0  0  0  0
   -2.7662    2.9055   -0.0000 C   0  0  0  0  0  0  0  0  0  0  0  0
   -4.0199    2.1294   -0.0000 C   0  0  0  0  0  0  0  0  0  0  0  0
   -5.3533    2.8259   -0.0000 S   0  0  0  0  0  0  0  0  0  0  0  0
   -7.1045    2.7463   -0.0000 O   0  0  0  0  0  0  0  0  0  0  0  0
   -5.2936    1.1542   -0.0000 O   0  0  0  0  0  0  0  0  0  0  0  0
   -5.4528    4.3383   -0.0000 N   0  0  0  0  0  0  0  0  0  0  0  0
   -4.2189    5.1543   -0.0000 C   0  0  0  0  0  0  0  0  0  0  0  0
   -6.7861    5.0349   -0.0000 C   0  0  0  0  0  0  0  0  0  0  0  0
   -2.9254    4.4975   -0.0000 C   0  0  0  0  0  0  0  0  0  0  0  0
   -4.3184    6.6667   -0.0000 C   0  0  0  0  0  0  0  0  0  0  0  0
   -6.8856    6.5473   -0.0000 C   0  0  0  0  0  0  0  0  0  0  0  0
   -8.1593    4.2985   -0.0000 C   0  0  0  0  0  0  0  0  0  0  0  0
   -1.6916    5.3135   -0.0000 O   0  0  0  0  0  0  0  0  0  0  0  0
   -3.6816    3.2239   -0.0000 C   0  0  0  0  0  0  0  0  0  0  0  0
   -2.2090    3.2239   -0.0000 C   0  0  0  0  0  0  0  0  0  0  0  0
   -5.6518    7.3831   -0.0000 O   0  0  0  0  0  0  0  0  0  0  0  0
   -9.4528    5.0747   -0.0000 C   0  0  0  0  0  0  0  0  0  0  0  0
   -0.3980    4.6568   -0.0000 C   0  0  0  0  0  0  0  0  0  0  0  0
  -10.1891    6.3881   -0.0000 C   0  0  0  0  0  0  0  0  0  0  0  0
  -10.9653    5.1145   -0.0000 C   0  0  0  0  0  0  0  0  0  0  0  0
   -0.3582    3.1841   -0.0000 O   0  0  0  0  0  0  0  0  0  0  0  0
    0.8358    5.4727   -0.0000 N   0  0  0  0  0  0  0  0  0  0  0  0
    2.0896    6.1294   -0.0000 C   0  0  0  0  0  0  0  0  0  0  0  0
    1.4328    6.5871   -0.0000 C   0  0  0  0  0  0  0  0  0  0  0  0
    3.2637    5.5324   -0.0000 C   0  0  0  0  0  0  0  0  0  0  0  0
    2.1891    8.6767   -0.0000 C   0  0  0  0  0  0  0  0  0  0  0  0
    2.4677    7.3433   -0.0000 C   0  0  0  0  0  0  0  0  0  0  0  0
    3.7214    6.5871   -0.0000 N   0  0  0  0  0  0  0  0  0  0  0  0
    5.1145    7.0448   -0.0000 C   0  0  0  0  0  0  0  0  0  0  0  0
    6.1891    6.0498   -0.0000 C   0  0  0  0  0  0  0  0  0  0  0  0
    7.5822    6.5075   -0.0000 O   0  0  0  0  0  0  0  0  0  0  0  0
  1  2  1  0  0  0  0
  2  3  2  0  0  0  0
  2  4  1  0  0  0  0
  3  5  1  0  0  0  0
  4  6  2  0  0  0  0
  5  7  2  0  0  0  0
  7  8  1  0  0  0  0
  8  9  2  0  0  0  0
  8 10  2  0  0  0  0
  8 11  1  0  0  0  0
 11 12  1  0  0  0  0
 11 13  1  0  0  0  0
 12 14  1  1  0  0  0
 12 15  1  0  0  0  0
 13 16  1  0  0  0  0
 13 17  1  1  0  0  0
 14 18  1  0  0  0  0
 14 19  1  0  0  0  0
 14 20  1  0  0  0  0
 15 21  1  0  0  0  0
 17 22  1  0  0  0  0
 18 23  1  0  0  0  0
 22 24  1  0  0  0  0
 22 25  1  0  0  0  0
 23 26  2  0  0  0  0
 23 27  1  0  0  0  0
 27 28  1  0  0  0  0
 27 29  1  0  0  0  0
 28 30  1  0  0  0  0
 28 31  1  0  0  0  0
 29 32  1  0  0  0  0
 30 33  1  0  0  0  0
 33 34  1  0  0  0  0
 34 35  1  0  0  0  0
 35 36  1  0  0  0  0
  6  7  1  0  0  0  0
 16 21  1  0  0  0  0
 19 20  1  0  0  0  0
 24 25  1  0  0  0  0
 31 32  1  0  0  0  0
 32 33  1  0  0  0  0
M  END
>  <MolRegNo>
711304

>  <m>
=

>  <Value>
3.2

>  <Unit>
nM

>  <Type>
IC50

>  <pValue>
8.49

>  <Ligand Efficiency>
0

>  <Binding Efficiency>
0

>  <Surface Efficiency>
0

>  <Assay Index>
520992

>  <Assay Category>


>  <Assay Organism>


>  <Target ID>
17045

>  <Target Name>
Cytochrome P450 3A4

>  <Target Organism>
Homo sapiens

>  <Target Description>
Target is a single protein chain

>  <Sequence Accession>
P08684

>  <Reference>
Bioorg Med Chem Lett 20 (22), 6606-6609 (2010)

>  <Pubmed ID>
20933414

>  <DOI>
10.1016/j.bmcl.2010.09.028

$$$$
711305
Actelion Java MolfileCreator 1.0

 37 41  0  0  1  0  0  0  0  0999 V2000
    0.0000   -0.0000   -0.0000 Cl  0  0  0  0  0  0  0  0  0  0  0  0
   -1.3332    0.6938   -0.0000 C   0  0  0  0  0  0  0  0  0  0  0  0
   -2.5984   -0.0952   -0.0000 C   0  0  0  0  0  0  0  0  0  0  0  0
   -1.4284    2.1902   -0.0000 C   0  0  0  0  0  0  0  0  0  0  0  0
   -3.9316    0.5986   -0.0000 C   0  0  0  0  0  0  0  0  0  0  0  0
   -2.7616    2.8704   -0.0000 C   0  0  0  0  0  0  0  0  0  0  0  0
   -4.0132    2.0950   -0.0000 C   0  0  0  0  0  0  0  0  0  0  0  0
   -5.3464    2.7888   -0.0000 S   0  0  0  0  0  0  0  0  0  0  0  0
   -7.0877    2.7072   -0.0000 O   0  0  0  0  0  0  0  0  0  0  0  0
   -5.2648    1.1155   -0.0000 O   0  0  0  0  0  0  0  0  0  0  0  0
   -5.4280    4.2853   -0.0000 N   0  0  0  0  0  0  0  0  0  0  0  0
   -4.2036    5.0879   -0.0000 C   0  0  0  0  0  0  0  0  0  0  0  0
   -6.7612    4.9655   -0.0000 C   0  0  0  0  0  0  0  0  0  0  0  0
   -2.8977    4.4213   -0.0000 C   0  0  0  0  0  0  0  0  0  0  0  0
   -4.2853    6.5843   -0.0000 C   0  0  0  0  0  0  0  0  0  0  0  0
   -6.8428    6.4619   -0.0000 C   0  0  0  0  0  0  0  0  0  0  0  0
   -8.1352    4.2308   -0.0000 C   0  0  0  0  0  0  0  0  0  0  0  0
   -1.6597    5.2375   -0.0000 O   0  0  0  0  0  0  0  0  0  0  0  0
   -3.6595    3.1425   -0.0000 C   0  0  0  0  0  0  0  0  0  0  0  0
   -2.1630    3.1425   -0.0000 C   0  0  0  0  0  0  0  0  0  0  0  0
   -5.6185    7.2918   -0.0000 O   0  0  0  0  0  0  0  0  0  0  0  0
   -9.4140    5.0063   -0.0000 C   0  0  0  0  0  0  0  0  0  0  0  0
   -0.3537    4.5709   -0.0000 C   0  0  0  0  0  0  0  0  0  0  0  0
  -10.1486    6.3123   -0.0000 C   0  0  0  0  0  0  0  0  0  0  0  0
  -10.9104    5.0471   -0.0000 C   0  0  0  0  0  0  0  0  0  0  0  0
   -0.2993    3.1017   -0.0000 O   0  0  0  0  0  0  0  0  0  0  0  0
    0.8843    5.3872   -0.0000 N   0  0  0  0  0  0  0  0  0  0  0  0
    2.1902    4.7206   -0.0000 C   0  0  0  0  0  0  0  0  0  0  0  0
    0.7890    6.8836   -0.0000 C   0  0  0  0  0  0  0  0  0  0  0  0
    3.4282    5.5232   -0.0000 C   0  0  0  0  0  0  0  0  0  0  0  0
    2.0270    7.6999   -0.0000 C   0  0  0  0  0  0  0  0  0  0  0  0
    3.3602    7.0197   -0.0000 N   0  0  0  0  0  0  0  0  0  0  0  0
    4.7342    4.8566   -0.0000 C   0  0  0  0  0  0  0  0  0  0  0  0
    1.9454    9.1963   -0.0000 C   0  0  0  0  0  0  0  0  0  0  0  0
    4.5982    7.8359   -0.0000 C   0  0  0  0  0  0  0  0  0  0  0  0
    5.9041    7.1693   -0.0000 C   0  0  0  0  0  0  0  0  0  0  0  0
    7.1421    7.9856   -0.0000 O   0  0  0  0  0  0  0  0  0  0  0  0
  1  2  1  0  0  0  0
  2  3  2  0  0  0  0
  2  4  1  0  0  0  0
  3  5  1  0  0  0  0
  4  6  2  0  0  0  0
  5  7  2  0  0  0  0
  7  8  1  0  0  0  0
  8  9  2  0  0  0  0
  8 10  2  0  0  0  0
  8 11  1  0  0  0  0
 11 12  1  0  0  0  0
 11 13  1  0  0  0  0
 12 14  1  1  0  0  0
 12 15  1  0  0  0  0
 13 16  1  0  0  0  0
 13 17  1  1  0  0  0
 14 18  1  0  0  0  0
 14 19  1  0  0  0  0
 14 20  1  0  0  0  0
 15 21  1  0  0  0  0
 17 22  1  0  0  0  0
 18 23  1  0  0  0  0
 22 24  1  0  0  0  0
 22 25  1  0  0  0  0
 23 26  2  0  0  0  0
 23 27  1  0  0  0  0
 27 28  1  0  0  0  0
 27 29  1  0  0  0  0
 28 30  1  0  0  0  0
 29 31  1  0  0  0  0
 30 32  1  0  0  0  0
 30 33  1  1  0  0  0
 31 34  1  1  0  0  0
 32 35  1  0  0  0  0
 35 36  1  0  0  0  0
 36 37  1  0  0  0  0
  6  7  1  0  0  0  0
 16 21  1  0  0  0  0
 19 20  1  0  0  0  0
 24 25  1  0  0  0  0
 31 32  1  0  0  0  0
M  END
>  <MolRegNo>
711305

>  <m>
=

>  <Value>
2

>  <Unit>
nM

>  <Type>
IC50

>  <pValue>
8.7

>  <Ligand Efficiency>
0

>  <Binding Efficiency>
0

>  <Surface Efficiency>
0

>  <Assay Index>
520992

>  <Assay Category>


>  <Assay Organism>


>  <Target ID>
17045

>  <Target Name>
Cytochrome P450 3A4

>  <Target Organism>
Homo sapiens

>  <Target Description>
Target is a single protein chain

>  <Sequence Accession>
P08684

>  <Reference>
Bioorg Med Chem Lett 20 (22), 6606-6609 (2010)

>  <Pubmed ID>
20933414

>  <DOI>
10.1016/j.bmcl.2010.09.028

$$$$
711356
Actelion Java MolfileCreator 1.0

 34 38  0  0  0  0  0  0  0  0999 V2000
    0.0000   -0.0000   -0.0000 Cl  0  0  0  0  0  0  0  0  0  0  0  0
   -1.3317    0.6930   -0.0000 C   0  0  0  0  0  0  0  0  0  0  0  0
   -2.5954   -0.0951   -0.0000 C   0  0  0  0  0  0  0  0  0  0  0  0
   -1.4268    2.1878   -0.0000 C   0  0  0  0  0  0  0  0  0  0  0  0
   -3.9271    0.5979   -0.0000 C   0  0  0  0  0  0  0  0  0  0  0  0
   -2.7585    2.8672   -0.0000 C   0  0  0  0  0  0  0  0  0  0  0  0
   -4.0086    2.0926   -0.0000 C   0  0  0  0  0  0  0  0  0  0  0  0
   -5.3403    2.7857   -0.0000 S   0  0  0  0  0  0  0  0  0  0  0  0
   -7.0797    2.7041   -0.0000 O   0  0  0  0  0  0  0  0  0  0  0  0
   -5.2588    1.1143   -0.0000 O   0  0  0  0  0  0  0  0  0  0  0  0
   -5.4218    4.2804   -0.0000 N   0  0  0  0  0  0  0  0  0  0  0  0
   -4.1989    5.0821   -0.0000 C   0  0  0  0  0  0  0  0  0  0  0  0
   -6.7535    4.9598   -0.0000 C   0  0  0  0  0  0  0  0  0  0  0  0
   -2.8944    4.4163   -0.0000 C   0  0  0  0  0  0  0  0  0  0  0  0
   -4.2804    6.5769   -0.0000 C   0  0  0  0  0  0  0  0  0  0  0  0
   -6.8351    6.4546   -0.0000 C   0  0  0  0  0  0  0  0  0  0  0  0
   -8.1260    4.2261   -0.0000 C   0  0  0  0  0  0  0  0  0  0  0  0
   -1.6578    5.2316   -0.0000 O   0  0  0  0  0  0  0  0  0  0  0  0
   -3.6553    3.1390   -0.0000 C   0  0  0  0  0  0  0  0  0  0  0  0
   -2.1606    3.1390   -0.0000 C   0  0  0  0  0  0  0  0  0  0  0  0
   -5.6121    7.2835   -0.0000 O   0  0  0  0  0  0  0  0  0  0  0  0
   -9.4033    5.0006   -0.0000 C   0  0  0  0  0  0  0  0  0  0  0  0
   -0.3533    4.5658   -0.0000 C   0  0  0  0  0  0  0  0  0  0  0  0
  -10.1371    6.3051   -0.0000 C   0  0  0  0  0  0  0  0  0  0  0  0
  -10.8980    5.0414   -0.0000 C   0  0  0  0  0  0  0  0  0  0  0  0
   -0.2989    3.0982   -0.0000 O   0  0  0  0  0  0  0  0  0  0  0  0
    0.8833    5.3811   -0.0000 N   0  0  0  0  0  0  0  0  0  0  0  0
    2.1878    4.7017   -0.0000 C   0  0  0  0  0  0  0  0  0  0  0  0
    0.7881    6.8758   -0.0000 C   0  0  0  0  0  0  0  0  0  0  0  0
    3.4243    5.5034   -0.0000 C   0  0  0  0  0  0  0  0  0  0  0  0
    2.0247    7.6911   -0.0000 C   0  0  0  0  0  0  0  0  0  0  0  0
    4.7288    4.8375   -0.0000 O   0  0  0  0  0  0  0  0  0  0  0  0
    3.3564    6.9981   -0.0000 N   0  0  0  0  0  0  0  0  0  0  0  0
    4.5929    7.8134   -0.0000 C   0  0  0  0  0  0  0  0  0  0  0  0
  1  2  1  0  0  0  0
  2  3  2  0  0  0  0
  2  4  1  0  0  0  0
  3  5  1  0  0  0  0
  4  6  2  0  0  0  0
  5  7  2  0  0  0  0
  7  8  1  0  0  0  0
  8  9  2  0  0  0  0
  8 10  2  0  0  0  0
  8 11  1  0  0  0  0
 11 12  1  0  0  0  0
 11 13  1  0  0  0  0
 12 14  1  1  0  0  0
 12 15  1  0  0  0  0
 13 16  1  0  0  0  0
 13 17  1  1  0  0  0
 14 18  1  0  0  0  0
 14 19  1  0  0  0  0
 14 20  1  0  0  0  0
 15 21  1  0  0  0  0
 17 22  1  0  0  0  0
 18 23  1  0  0  0  0
 22 24  1  0  0  0  0
 22 25  1  0  0  0  0
 23 26  2  0  0  0  0
 23 27  1  0  0  0  0
 27 28  1  0  0  0  0
 27 29  1  0  0  0  0
 28 30  1  0  0  0  0
 29 31  1  0  0  0  0
 30 32  2  0  0  0  0
 30 33  1  0  0  0  0
 33 34  1  0  0  0  0
  6  7  1  0  0  0  0
 16 21  1  0  0  0  0
 19 20  1  0  0  0  0
 24 25  1  0  0  0  0
 31 33  1  0  0  0  0
M  END
>  <MolRegNo>
711356

>  <m>
=

>  <Value>
1.4

>  <Unit>
nM

>  <Type>
IC50

>  <pValue>
8.85

>  <Ligand Efficiency>
0

>  <Binding Efficiency>
0

>  <Surface Efficiency>
0

>  <Assay Index>
520992

>  <Assay Category>


>  <Assay Organism>


>  <Target ID>
17045

>  <Target Name>
Cytochrome P450 3A4

>  <Target Organism>
Homo sapiens

>  <Target Description>
Target is a single protein chain

>  <Sequence Accession>
P08684

>  <Reference>
Bioorg Med Chem Lett 20 (22), 6606-6609 (2010)

>  <Pubmed ID>
20933414

>  <DOI>
10.1016/j.bmcl.2010.09.028

$$$$
711413
Actelion Java MolfileCreator 1.0

 35 40  0  0  0  0  0  0  0  0999 V2000
    0.0000   -0.0000   -0.0000 Cl  0  0  0  0  0  0  0  0  0  0  0  0
   -1.3321    0.6933   -0.0000 C   0  0  0  0  0  0  0  0  0  0  0  0
   -2.5963   -0.0952   -0.0000 C   0  0  0  0  0  0  0  0  0  0  0  0
   -1.4273    2.1885   -0.0000 C   0  0  0  0  0  0  0  0  0  0  0  0
   -3.9285    0.5981   -0.0000 C   0  0  0  0  0  0  0  0  0  0  0  0
   -2.7594    2.8682   -0.0000 C   0  0  0  0  0  0  0  0  0  0  0  0
   -4.0100    2.0934   -0.0000 C   0  0  0  0  0  0  0  0  0  0  0  0
   -5.3422    2.7866   -0.0000 S   0  0  0  0  0  0  0  0  0  0  0  0
   -7.0821    2.7051   -0.0000 O   0  0  0  0  0  0  0  0  0  0  0  0
   -5.2606    1.1147   -0.0000 O   0  0  0  0  0  0  0  0  0  0  0  0
   -5.4237    4.2819   -0.0000 N   0  0  0  0  0  0  0  0  0  0  0  0
   -4.2003    5.0839   -0.0000 C   0  0  0  0  0  0  0  0  0  0  0  0
   -6.7559    4.9616   -0.0000 C   0  0  0  0  0  0  0  0  0  0  0  0
   -2.8954    4.4178   -0.0000 C   0  0  0  0  0  0  0  0  0  0  0  0
   -4.2819    6.5792   -0.0000 C   0  0  0  0  0  0  0  0  0  0  0  0
   -6.8374    6.4568   -0.0000 C   0  0  0  0  0  0  0  0  0  0  0  0
   -8.1288    4.2275   -0.0000 C   0  0  0  0  0  0  0  0  0  0  0  0
   -1.6584    5.2334   -0.0000 O   0  0  0  0  0  0  0  0  0  0  0  0
   -3.6566    3.1401   -0.0000 C   0  0  0  0  0  0  0  0  0  0  0  0
   -2.1613    3.1401   -0.0000 C   0  0  0  0  0  0  0  0  0  0  0  0
   -5.6140    7.2860   -0.0000 O   0  0  0  0  0  0  0  0  0  0  0  0
   -9.4066    5.0023   -0.0000 C   0  0  0  0  0  0  0  0  0  0  0  0
   -0.3534    4.5674   -0.0000 C   0  0  0  0  0  0  0  0  0  0  0  0
  -10.1406    6.3073   -0.0000 C   0  0  0  0  0  0  0  0  0  0  0  0
  -10.9018    5.0431   -0.0000 C   0  0  0  0  0  0  0  0  0  0  0  0
   -0.2991    3.0993   -0.0000 O   0  0  0  0  0  0  0  0  0  0  0  0
    0.8836    5.3830   -0.0000 N   0  0  0  0  0  0  0  0  0  0  0  0
    2.1885    4.7033   -0.0000 C   0  0  0  0  0  0  0  0  0  0  0  0
    0.7884    6.8782   -0.0000 C   0  0  0  0  0  0  0  0  0  0  0  0
    3.4255    5.5053   -0.0000 C   0  0  0  0  0  0  0  0  0  0  0  0
    2.0254    7.6938   -0.0000 C   0  0  0  0  0  0  0  0  0  0  0  0
    3.3576    7.0006   -0.0000 C   0  0  0  0  0  0  0  0  0  0  0  0
    4.8256    7.0142   -0.0000 N   0  0  0  0  0  0  0  0  0  0  0  0
    3.3440    8.4958   -0.0000 C   0  0  0  0  0  0  0  0  0  0  0  0
    4.8120    8.5094   -0.0000 C   0  0  0  0  0  0  0  0  0  0  0  0
  1  2  1  0  0  0  0
  2  3  2  0  0  0  0
  2  4  1  0  0  0  0
  3  5  1  0  0  0  0
  4  6  2  0  0  0  0
  5  7  2  0  0  0  0
  7  8  1  0  0  0  0
  8  9  2  0  0  0  0
  8 10  2  0  0  0  0
  8 11  1  0  0  0  0
 11 12  1  0  0  0  0
 11 13  1  0  0  0  0
 12 14  1  1  0  0  0
 12 15  1  0  0  0  0
 13 16  1  0  0  0  0
 13 17  1  1  0  0  0
 14 18  1  0  0  0  0
 14 19  1  0  0  0  0
 14 20  1  0  0  0  0
 15 21  1  0  0  0  0
 17 22  1  0  0  0  0
 18 23  1  0  0  0  0
 22 24  1  0  0  0  0
 22 25  1  0  0  0  0
 23 26  2  0  0  0  0
 23 27  1  0  0  0  0
 27 28  1  0  0  0  0
 27 29  1  0  0  0  0
 28 30  1  0  0  0  0
 29 31  1  0  0  0  0
 30 32  1  0  0  0  0
 32 33  1  0  0  0  0
 32 34  1  0  0  0  0
 33 35  1  0  0  0  0
  6  7  1  0  0  0  0
 16 21  1  0  0  0  0
 19 20  1  0  0  0  0
 24 25  1  0  0  0  0
 31 32  1  0  0  0  0
 34 35  1  0  0  0  0
M  END
>  <MolRegNo>
711413

>  <m>
=

>  <Value>
11.3

>  <Unit>
nM

>  <Type>
IC50

>  <pValue>
7.95

>  <Ligand Efficiency>
0

>  <Binding Efficiency>
0

>  <Surface Efficiency>
0

>  <Assay Index>
520992

>  <Assay Category>


>  <Assay Organism>


>  <Target ID>
17045

>  <Target Name>
Cytochrome P450 3A4

>  <Target Organism>
Homo sapiens

>  <Target Description>
Target is a single protein chain

>  <Sequence Accession>
P08684

>  <Reference>
Bioorg Med Chem Lett 20 (22), 6606-6609 (2010)

>  <Pubmed ID>
20933414

>  <DOI>
10.1016/j.bmcl.2010.09.028

$$$$
711467
Actelion Java MolfileCreator 1.0

 36 41  0  0  0  0  0  0  0  0999 V2000
    0.0000   -0.0000   -0.0000 Cl  0  0  0  0  0  0  0  0  0  0  0  0
   -1.3333    0.6938   -0.0000 C   0  0  0  0  0  0  0  0  0  0  0  0
   -2.5985   -0.0952   -0.0000 C   0  0  0  0  0  0  0  0  0  0  0  0
   -1.4285    2.1904   -0.0000 C   0  0  0  0  0  0  0  0  0  0  0  0
   -3.9318    0.5986   -0.0000 C   0  0  0  0  0  0  0  0  0  0  0  0
   -2.7618    2.8706   -0.0000 C   0  0  0  0  0  0  0  0  0  0  0  0
   -4.0134    2.0951   -0.0000 C   0  0  0  0  0  0  0  0  0  0  0  0
   -5.3466    2.7890   -0.0000 S   0  0  0  0  0  0  0  0  0  0  0  0
   -7.0881    2.7073   -0.0000 O   0  0  0  0  0  0  0  0  0  0  0  0
   -5.2650    1.1156   -0.0000 O   0  0  0  0  0  0  0  0  0  0  0  0
   -5.4283    4.2855   -0.0000 N   0  0  0  0  0  0  0  0  0  0  0  0
   -4.2039    5.0882   -0.0000 C   0  0  0  0  0  0  0  0  0  0  0  0
   -6.7615    4.9657   -0.0000 C   0  0  0  0  0  0  0  0  0  0  0  0
   -2.8978    4.4215   -0.0000 C   0  0  0  0  0  0  0  0  0  0  0  0
   -4.2855    6.5847   -0.0000 C   0  0  0  0  0  0  0  0  0  0  0  0
   -6.8432    6.4622   -0.0000 C   0  0  0  0  0  0  0  0  0  0  0  0
   -8.1356    4.2311   -0.0000 C   0  0  0  0  0  0  0  0  0  0  0  0
   -1.6598    5.2378   -0.0000 O   0  0  0  0  0  0  0  0  0  0  0  0
   -3.6597    3.1427   -0.0000 C   0  0  0  0  0  0  0  0  0  0  0  0
   -2.1631    3.1427   -0.0000 C   0  0  0  0  0  0  0  0  0  0  0  0
   -5.6187    7.2921   -0.0000 O   0  0  0  0  0  0  0  0  0  0  0  0
   -9.4145    5.0065   -0.0000 C   0  0  0  0  0  0  0  0  0  0  0  0
   -0.3537    4.5712   -0.0000 C   0  0  0  0  0  0  0  0  0  0  0  0
  -10.1491    6.3126   -0.0000 C   0  0  0  0  0  0  0  0  0  0  0  0
  -10.9110    5.0473   -0.0000 C   0  0  0  0  0  0  0  0  0  0  0  0
   -0.2993    3.1019   -0.0000 O   0  0  0  0  0  0  0  0  0  0  0  0
    0.8843    5.3875   -0.0000 N   0  0  0  0  0  0  0  0  0  0  0  0
    2.1904    4.7208   -0.0000 C   0  0  0  0  0  0  0  0  0  0  0  0
    0.7891    6.8840   -0.0000 C   0  0  0  0  0  0  0  0  0  0  0  0
    3.4284    5.5235   -0.0000 C   0  0  0  0  0  0  0  0  0  0  0  0
    2.0271    7.7003   -0.0000 C   0  0  0  0  0  0  0  0  0  0  0  0
    3.3604    7.0200   -0.0000 C   0  0  0  0  0  0  0  0  0  0  0  0
    4.8297    7.0336   -0.0000 N   0  0  0  0  0  0  0  0  0  0  0  0
    3.3468    8.5165   -0.0000 C   0  0  0  0  0  0  0  0  0  0  0  0
    4.8161    8.5301   -0.0000 C   0  0  0  0  0  0  0  0  0  0  0  0
    5.8636    5.9997   -0.0000 C   0  0  0  0  0  0  0  0  0  0  0  0
  1  2  1  0  0  0  0
  2  3  2  0  0  0  0
  2  4  1  0  0  0  0
  3  5  1  0  0  0  0
  4  6  2  0  0  0  0
  5  7  2  0  0  0  0
  7  8  1  0  0  0  0
  8  9  2  0  0  0  0
  8 10  2  0  0  0  0
  8 11  1  0  0  0  0
 11 12  1  0  0  0  0
 11 13  1  0  0  0  0
 12 14  1  1  0  0  0
 12 15  1  0  0  0  0
 13 16  1  0  0  0  0
 13 17  1  1  0  0  0
 14 18  1  0  0  0  0
 14 19  1  0  0  0  0
 14 20  1  0  0  0  0
 15 21  1  0  0  0  0
 17 22  1  0  0  0  0
 18 23  1  0  0  0  0
 22 24  1  0  0  0  0
 22 25  1  0  0  0  0
 23 26  2  0  0  0  0
 23 27  1  0  0  0  0
 27 28  1  0  0  0  0
 27 29  1  0  0  0  0
 28 30  1  0  0  0  0
 29 31  1  0  0  0  0
 30 32  1  0  0  0  0
 32 33  1  0  0  0  0
 32 34  1  0  0  0  0
 33 35  1  0  0  0  0
 33 36  1  0  0  0  0
  6  7  1  0  0  0  0
 16 21  1  0  0  0  0
 19 20  1  0  0  0  0
 24 25  1  0  0  0  0
 31 32  1  0  0  0  0
 34 35  1  0  0  0  0
M  END
>  <MolRegNo>
711467

>  <m>
=

>  <Value>
30

>  <Unit>
nM

>  <Type>
IC50

>  <pValue>
7.52

>  <Ligand Efficiency>
0

>  <Binding Efficiency>
0

>  <Surface Efficiency>
0

>  <Assay Index>
520992

>  <Assay Category>


>  <Assay Organism>


>  <Target ID>
17045

>  <Target Name>
Cytochrome P450 3A4

>  <Target Organism>
Homo sapiens

>  <Target Description>
Target is a single protein chain

>  <Sequence Accession>
P08684

>  <Reference>
Bioorg Med Chem Lett 20 (22), 6606-6609 (2010)

>  <Pubmed ID>
20933414

>  <DOI>
10.1016/j.bmcl.2010.09.028

$$$$
712623
Actelion Java MolfileCreator 1.0

 34 39  0  0  0  0  0  0  0  0999 V2000
    0.0000   -0.0000   -0.0000 F   0  0  0  0  0  0  0  0  0  0  0  0
   -0.0119    1.5149   -0.0000 C   0  0  0  0  0  0  0  0  0  0  0  0
    1.2764    2.2784   -0.0000 C   0  0  0  0  0  0  0  0  0  0  0  0
   -1.3241    2.2784   -0.0000 C   0  0  0  0  0  0  0  0  0  0  0  0
    1.2644    3.8052   -0.0000 C   0  0  0  0  0  0  0  0  0  0  0  0
    2.5647    1.5388   -0.0000 C   0  0  0  0  0  0  0  0  0  0  0  0
   -1.3360    3.7933   -0.0000 C   0  0  0  0  0  0  0  0  0  0  0  0
    2.5527    4.5806   -0.0000 O   0  0  0  0  0  0  0  0  0  0  0  0
   -0.0477    4.5568   -0.0000 C   0  0  0  0  0  0  0  0  0  0  0  0
    3.8649    2.3022   -0.0000 C   0  0  0  0  0  0  0  0  0  0  0  0
    3.8530    3.8291   -0.0000 C   0  0  0  0  0  0  0  0  0  0  0  0
    5.2844    3.4593   -0.0000 C   0  0  0  0  0  0  0  0  0  0  0  0
    3.4474    5.2844   -0.0000 C   0  0  0  0  0  0  0  0  0  0  0  0
    6.3222    4.5210   -0.0000 C   0  0  0  0  0  0  0  0  0  0  0  0
    4.4971    6.3580   -0.0000 C   0  0  0  0  0  0  0  0  0  0  0  0
    5.9285    5.9763   -0.0000 N   0  0  0  0  0  0  0  0  0  0  0  0
    6.9783    7.0498   -0.0000 C   0  0  0  0  0  0  0  0  0  0  0  0
    8.4216    6.6681   -0.0000 N   0  0  0  0  0  0  0  0  0  0  0  0
    6.5727    8.5051   -0.0000 C   0  0  0  0  0  0  0  0  0  0  0  0
    9.4714    7.7417   -0.0000 N   0  0  0  0  0  0  0  0  0  0  0  0
    7.6105    9.5787   -0.0000 C   0  0  0  0  0  0  0  0  0  0  0  0
    9.0777    9.2089   -0.0000 C   0  0  0  0  0  0  0  0  0  0  0  0
   10.1274   10.2825   -0.0000 C   0  0  0  0  0  0  0  0  0  0  0  0
   11.5947   10.0678   -0.0000 O   0  0  0  0  0  0  0  0  0  0  0  0
    9.8769   11.7855   -0.0000 N   0  0  0  0  0  0  0  0  0  0  0  0
   12.2627   11.4157   -0.0000 C   0  0  0  0  0  0  0  0  0  0  0  0
   11.2010   12.4655   -0.0000 N   0  0  0  0  0  0  0  0  0  0  0  0
   13.7299   11.6662   -0.0000 C   0  0  0  0  0  0  0  0  0  0  0  0
   14.6723   10.5211   -0.0000 C   0  0  0  0  0  0  0  0  0  0  0  0
   16.1276   10.7835   -0.0000 C   0  0  0  0  0  0  0  0  0  0  0  0
   14.1235    9.1254   -0.0000 C   0  0  0  0  0  0  0  0  0  0  0  0
   17.0699    9.6384   -0.0000 N   0  0  0  0  0  0  0  0  0  0  0  0
   15.0659    7.9803   -0.0000 C   0  0  0  0  0  0  0  0  0  0  0  0
   16.5331    8.2427   -0.0000 C   0  0  0  0  0  0  0  0  0  0  0  0
  1  2  1  0  0  0  0
  2  3  2  0  0  0  0
  2  4  1  0  0  0  0
  3  5  1  0  0  0  0
  3  6  1  0  0  0  0
  4  7  2  0  0  0  0
  5  8  1  0  0  0  0
  5  9  2  0  0  0  0
  6 10  1  0  0  0  0
  8 11  1  0  0  0  0
 11 12  1  0  0  0  0
 11 13  1  0  0  0  0
 12 14  1  0  0  0  0
 13 15  1  0  0  0  0
 14 16  1  0  0  0  0
 16 17  1  0  0  0  0
 17 18  2  0  0  0  0
 17 19  1  0  0  0  0
 18 20  1  0  0  0  0
 19 21  2  0  0  0  0
 20 22  2  0  0  0  0
 22 23  1  0  0  0  0
 23 24  1  0  0  0  0
 23 25  2  0  0  0  0
 24 26  1  0  0  0  0
 25 27  1  0  0  0  0
 26 28  1  0  0  0  0
 28 29  1  0  0  0  0
 29 30  2  0  0  0  0
 29 31  1  0  0  0  0
 30 32  1  0  0  0  0
 31 33  2  0  0  0  0
 32 34  2  0  0  0  0
  7  9  1  0  0  0  0
 10 11  1  0  0  0  0
 15 16  1  0  0  0  0
 21 22  1  0  0  0  0
 26 27  2  0  0  0  0
 33 34  1  0  0  0  0
M  END
>  <MolRegNo>
712623

>  <m>
=

>  <Value>
1600

>  <Unit>
nM

>  <Type>
IC50

>  <pValue>
5.8

>  <Ligand Efficiency>
0

>  <Binding Efficiency>
0

>  <Surface Efficiency>
0

>  <Assay Index>
528765

>  <Assay Category>


>  <Assay Organism>


>  <Target ID>
17045

>  <Target Name>
Cytochrome P450 3A4

>  <Target Organism>
Homo sapiens

>  <Target Description>
Target is a single protein chain

>  <Sequence Accession>
P08684

>  <Reference>
Eur J Med Chem 45 (11), 4788-4796 (2010)

>  <Pubmed ID>
20801551

>  <DOI>
10.1016/j.ejmech.2010.07.044

$$$$
713656
Actelion Java MolfileCreator 1.0

 34 38  0  0  0  0  0  0  0  0999 V2000
    0.0000   -0.0000   -0.0000 Cl  0  0  0  0  0  0  0  0  0  0  0  0
   -0.7677    1.3110   -0.0000 C   0  0  0  0  0  0  0  0  0  0  0  0
   -0.0354    2.6220   -0.0000 C   0  0  0  0  0  0  0  0  0  0  0  0
   -2.2795    1.3228   -0.0000 C   0  0  0  0  0  0  0  0  0  0  0  0
    1.4527    2.6338   -0.0000 N   0  0  0  0  0  0  0  0  0  0  0  0
   -0.7913    3.9330   -0.0000 C   0  0  0  0  0  0  0  0  0  0  0  0
   -3.0472    2.6338   -0.0000 C   0  0  0  0  0  0  0  0  0  0  0  0
    2.3149    1.4291   -0.0000 N   0  0  0  0  0  0  0  0  0  0  0  0
    2.3267    3.8622   -0.0000 C   0  0  0  0  0  0  0  0  0  0  0  0
   -2.3031    3.9448   -0.0000 C   0  0  0  0  0  0  0  0  0  0  0  0
    3.7322    1.9015   -0.0000 C   0  0  0  0  0  0  0  0  0  0  0  0
    1.8543    5.3031   -0.0000 O   0  0  0  0  0  0  0  0  0  0  0  0
    3.7440    3.4133   -0.0000 C   0  0  0  0  0  0  0  0  0  0  0  0
    5.0196    1.1575   -0.0000 C   0  0  0  0  0  0  0  0  0  0  0  0
    5.0314    4.1810   -0.0000 C   0  0  0  0  0  0  0  0  0  0  0  0
    6.3070    1.9252   -0.0000 C   0  0  0  0  0  0  0  0  0  0  0  0
    6.3188    3.4488   -0.0000 N   0  0  0  0  0  0  0  0  0  0  0  0
    5.0078    5.6928   -0.0000 C   0  0  0  0  0  0  0  0  0  0  0  0
    7.5944    1.1929   -0.0000 O   0  0  0  0  0  0  0  0  0  0  0  0
    7.6062    4.2165   -0.0000 C   0  0  0  0  0  0  0  0  0  0  0  0
    6.2952    6.4605   -0.0000 N   0  0  0  0  0  0  0  0  0  0  0  0
    8.8936    3.4842   -0.0000 C   0  0  0  0  0  0  0  0  0  0  0  0
    6.2716    7.9723   -0.0000 C   0  0  0  0  0  0  0  0  0  0  0  0
    7.5826    5.7283   -0.0000 C   0  0  0  0  0  0  0  0  0  0  0  0
    8.8818    1.9960   -0.0000 C   0  0  0  0  0  0  0  0  0  0  0  0
   10.1692    4.2519   -0.0000 C   0  0  0  0  0  0  0  0  0  0  0  0
    7.5590    8.7400   -0.0000 C   0  0  0  0  0  0  0  0  0  0  0  0
    4.9606    8.7164   -0.0000 C   0  0  0  0  0  0  0  0  0  0  0  0
   10.1692    1.2638   -0.0000 C   0  0  0  0  0  0  0  0  0  0  0  0
   11.4565    3.5196   -0.0000 C   0  0  0  0  0  0  0  0  0  0  0  0
    7.5353   10.2518   -0.0000 C   0  0  0  0  0  0  0  0  0  0  0  0
    4.9369   10.2282   -0.0000 C   0  0  0  0  0  0  0  0  0  0  0  0
   11.4565    2.0315   -0.0000 N   0  0  0  0  0  0  0  0  0  0  0  0
    6.2243   11.0077   -0.0000 C   0  0  0  0  0  0  0  0  0  0  0  0
  1  2  1  0  0  0  0
  2  3  2  0  0  0  0
  2  4  1  0  0  0  0
  3  5  1  0  0  0  0
  3  6  1  0  0  0  0
  4  7  2  0  0  0  0
  5  8  1  0  0  0  0
  5  9  1  0  0  0  0
  6 10  2  0  0  0  0
  8 11  1  0  0  0  0
  9 12  2  0  0  0  0
  9 13  1  0  0  0  0
 11 14  2  0  0  0  0
 13 15  2  0  0  0  0
 14 16  1  0  0  0  0
 15 17  1  0  0  0  0
 15 18  1  0  0  0  0
 16 19  2  0  0  0  0
 17 20  1  0  0  0  0
 18 21  1  0  0  0  0
 20 22  1  0  0  0  0
 21 23  1  0  0  0  0
 21 24  1  0  0  0  0
 22 25  2  0  0  0  0
 22 26  1  0  0  0  0
 23 27  2  0  0  0  0
 23 28  1  0  0  0  0
 25 29  1  0  0  0  0
 26 30  2  0  0  0  0
 27 31  1  0  0  0  0
 28 32  2  0  0  0  0
 29 33  2  0  0  0  0
 31 34  2  0  0  0  0
  7 10  1  0  0  0  0
 11 13  1  0  0  0  0
 16 17  1  0  0  0  0
 30 33  1  0  0  0  0
 32 34  1  0  0  0  0
M  END
>  <MolRegNo>
713656

>  <m>
=

>  <Value>
1100

>  <Unit>
nM

>  <Type>
IC50

>  <pValue>
5.96

>  <Ligand Efficiency>
0

>  <Binding Efficiency>
0

>  <Surface Efficiency>
0

>  <Assay Index>
530090

>  <Assay Category>


>  <Assay Organism>
Homo sapiens

>  <Target ID>
17045

>  <Target Name>
Cytochrome P450 3A4

>  <Target Organism>
Homo sapiens

>  <Target Description>
Target is a single protein chain

>  <Sequence Accession>
P08684

>  <Reference>
J Med Chem 53 (21), 7715-7730 (2010)

>  <Pubmed ID>
20942471

>  <DOI>
10.1021/jm100773e

$$$$
712918
Actelion Java MolfileCreator 1.0

 26 29  0  0  0  0  0  0  0  0999 V2000
    0.0000   -0.0000   -0.0000 Cl  0  0  0  0  0  0  0  0  0  0  0  0
   -0.7737    1.3094   -0.0000 C   0  0  0  0  0  0  0  0  0  0  0  0
   -0.0476    2.6187   -0.0000 C   0  0  0  0  0  0  0  0  0  0  0  0
   -2.2854    1.3213   -0.0000 C   0  0  0  0  0  0  0  0  0  0  0  0
    1.4403    2.6306   -0.0000 N   0  0  0  0  0  0  0  0  0  0  0  0
   -0.7975    3.9281   -0.0000 C   0  0  0  0  0  0  0  0  0  0  0  0
   -3.0592    2.6425   -0.0000 C   0  0  0  0  0  0  0  0  0  0  0  0
    2.3093    1.4284   -0.0000 N   0  0  0  0  0  0  0  0  0  0  0  0
    2.3093    3.8567   -0.0000 C   0  0  0  0  0  0  0  0  0  0  0  0
   -2.3093    3.9400   -0.0000 C   0  0  0  0  0  0  0  0  0  0  0  0
    3.7258    1.9045   -0.0000 C   0  0  0  0  0  0  0  0  0  0  0  0
    1.8331    5.2970   -0.0000 O   0  0  0  0  0  0  0  0  0  0  0  0
    3.7258    3.4044   -0.0000 C   0  0  0  0  0  0  0  0  0  0  0  0
    5.0113    1.1665   -0.0000 C   0  0  0  0  0  0  0  0  0  0  0  0
    5.0113    4.1781   -0.0000 C   0  0  0  0  0  0  0  0  0  0  0  0
    6.3088    1.9283   -0.0000 C   0  0  0  0  0  0  0  0  0  0  0  0
    6.3088    3.4401   -0.0000 N   0  0  0  0  0  0  0  0  0  0  0  0
    4.9875    5.6898   -0.0000 C   0  0  0  0  0  0  0  0  0  0  0  0
    7.6062    1.1903   -0.0000 O   0  0  0  0  0  0  0  0  0  0  0  0
    7.5943    4.2138   -0.0000 C   0  0  0  0  0  0  0  0  0  0  0  0
    8.8918    3.4758   -0.0000 C   0  0  0  0  0  0  0  0  0  0  0  0
   10.1655    4.2495   -0.0000 N   0  0  0  0  0  0  0  0  0  0  0  0
    8.8799    1.9879   -0.0000 C   0  0  0  0  0  0  0  0  0  0  0  0
   11.4629    3.5234   -0.0000 C   0  0  0  0  0  0  0  0  0  0  0  0
   10.1774    1.2499   -0.0000 C   0  0  0  0  0  0  0  0  0  0  0  0
   11.4629    2.0236   -0.0000 C   0  0  0  0  0  0  0  0  0  0  0  0
  1  2  1  0  0  0  0
  2  3  2  0  0  0  0
  2  4  1  0  0  0  0
  3  5  1  0  0  0  0
  3  6  1  0  0  0  0
  4  7  2  0  0  0  0
  5  8  1  0  0  0  0
  5  9  1  0  0  0  0
  6 10  2  0  0  0  0
  8 11  1  0  0  0  0
  9 12  2  0  0  0  0
  9 13  1  0  0  0  0
 11 14  2  0  0  0  0
 13 15  2  0  0  0  0
 14 16  1  0  0  0  0
 15 17  1  0  0  0  0
 15 18  1  0  0  0  0
 16 19  2  0  0  0  0
 17 20  1  0  0  0  0
 20 21  1  0  0  0  0
 21 22  2  0  0  0  0
 21 23  1  0  0  0  0
 22 24  1  0  0  0  0
 23 25  2  0  0  0  0
 24 26  2  0  0  0  0
  7 10  1  0  0  0  0
 11 13  1  0  0  0  0
 16 17  1  0  0  0  0
 25 26  1  0  0  0  0
M  END
>  <MolRegNo>
712918

>  <m>
=

>  <Value>
20900

>  <Unit>
nM

>  <Type>
IC50

>  <pValue>
4.68

>  <Ligand Efficiency>
0

>  <Binding Efficiency>
0

>  <Surface Efficiency>
0

>  <Assay Index>
530090

>  <Assay Category>


>  <Assay Organism>
Homo sapiens

>  <Target ID>
17045

>  <Target Name>
Cytochrome P450 3A4

>  <Target Organism>
Homo sapiens

>  <Target Description>
Target is a single protein chain

>  <Sequence Accession>
P08684

>  <Reference>
J Med Chem 53 (21), 7715-7730 (2010)

>  <Pubmed ID>
20942471

>  <DOI>
10.1021/jm100773e

$$$$
358648
Actelion Java MolfileCreator 1.0

 33 37  0  0  0  0  0  0  0  0999 V2000
    0.0000   -0.0000   -0.0000 Cl  0  0  0  0  0  0  0  0  0  0  0  0
    1.4943    0.0119   -0.0000 C   0  0  0  0  0  0  0  0  0  0  0  0
    2.2415    1.3283   -0.0000 C   0  0  0  0  0  0  0  0  0  0  0  0
    2.2415   -1.2809   -0.0000 C   0  0  0  0  0  0  0  0  0  0  0  0
    3.7358    1.3401   -0.0000 C   0  0  0  0  0  0  0  0  0  0  0  0
    3.7358   -1.2690   -0.0000 C   0  0  0  0  0  0  0  0  0  0  0  0
    4.4711    0.0474   -0.0000 C   0  0  0  0  0  0  0  0  0  0  0  0
    5.9654    0.0593   -0.0000 C   0  0  0  0  0  0  0  0  0  0  0  0
    6.8431    1.2927   -0.0000 S   0  0  0  0  0  0  0  0  0  0  0  0
    6.8431   -1.1504   -0.0000 C   0  0  0  0  0  0  0  0  0  0  0  0
    8.2662    0.8302   -0.0000 C   0  0  0  0  0  0  0  0  0  0  0  0
    8.2662   -0.6760   -0.0000 C   0  0  0  0  0  0  0  0  0  0  0  0
    9.5471    1.5892   -0.0000 C   0  0  0  0  0  0  0  0  0  0  0  0
    9.5589   -1.4232   -0.0000 N   0  0  0  0  0  0  0  0  0  0  0  0
    9.5352    3.1072   -0.0000 O   0  0  0  0  0  0  0  0  0  0  0  0
   10.8517    0.8539   -0.0000 N   0  0  0  0  0  0  0  0  0  0  0  0
   10.8635   -0.6523   -0.0000 C   0  0  0  0  0  0  0  0  0  0  0  0
   12.1444    1.6248   -0.0000 C   0  0  0  0  0  0  0  0  0  0  0  0
   12.1206    3.1310   -0.0000 C   0  0  0  0  0  0  0  0  0  0  0  0
   13.4371    0.8776   -0.0000 C   0  0  0  0  0  0  0  0  0  0  0  0
   13.4015    3.9019   -0.0000 C   0  0  0  0  0  0  0  0  0  0  0  0
   14.7298    1.6485   -0.0000 C   0  0  0  0  0  0  0  0  0  0  0  0
   13.3778    5.4199   -0.0000 O   0  0  0  0  0  0  0  0  0  0  0  0
   14.7061    3.1665   -0.0000 C   0  0  0  0  0  0  0  0  0  0  0  0
   14.6586    6.1908   -0.0000 C   0  0  0  0  0  0  0  0  0  0  0  0
   15.9988    3.9374   -0.0000 O   0  0  0  0  0  0  0  0  0  0  0  0
   17.2915    3.2021   -0.0000 C   0  0  0  0  0  0  0  0  0  0  0  0
   18.5842    3.9730   -0.0000 C   0  0  0  0  0  0  0  0  0  0  0  0
   19.8769    3.2377   -0.0000 N   0  0  0  0  0  0  0  0  0  0  0  0
   19.8532    1.7434   -0.0000 C   0  0  0  0  0  0  0  0  0  0  0  0
   21.3001    3.7002   -0.0000 C   0  0  0  0  0  0  0  0  0  0  0  0
   21.2645    1.2809   -0.0000 C   0  0  0  0  0  0  0  0  0  0  0  0
   22.1658    2.4905   -0.0000 C   0  0  0  0  0  0  0  0  0  0  0  0
  1  2  1  0  0  0  0
  2  3  2  0  0  0  0
  2  4  1  0  0  0  0
  3  5  1  0  0  0  0
  4  6  2  0  0  0  0
  5  7  2  0  0  0  0
  7  8  1  0  0  0  0
  8  9  1  0  0  0  0
  8 10  2  0  0  0  0
  9 11  1  0  0  0  0
 10 12  1  0  0  0  0
 11 13  1  0  0  0  0
 12 14  1  0  0  0  0
 13 15  2  0  0  0  0
 13 16  1  0  0  0  0
 14 17  2  0  0  0  0
 16 18  1  0  0  0  0
 18 19  2  0  0  0  0
 18 20  1  0  0  0  0
 19 21  1  0  0  0  0
 20 22  2  0  0  0  0
 21 23  1  0  0  0  0
 21 24  2  0  0  0  0
 23 25  1  0  0  0  0
 24 26  1  0  0  0  0
 26 27  1  0  0  0  0
 27 28  1  0  0  0  0
 28 29  1  0  0  0  0
 29 30  1  0  0  0  0
 29 31  1  0  0  0  0
 30 32  1  0  0  0  0
 31 33  1  0  0  0  0
  6  7  1  0  0  0  0
 11 12  2  0  0  0  0
 16 17  1  0  0  0  0
 22 24  1  0  0  0  0
 32 33  1  0  0  0  0
M  END
>  <MolRegNo>
358648

>  <m>
=

>  <Value>
1600

>  <Unit>
nM

>  <Type>
IC50

>  <pValue>
5.8

>  <Ligand Efficiency>
0

>  <Binding Efficiency>
0

>  <Surface Efficiency>
0

>  <Assay Index>
531274

>  <Assay Category>


>  <Assay Organism>


>  <Target ID>
17045

>  <Target Name>
Cytochrome P450 3A4

>  <Target Organism>
Homo sapiens

>  <Target Description>
Target is a single protein chain

>  <Sequence Accession>
P08684

>  <Reference>
Bioorg Med Chem Lett 20 (23), 7020-7023 (2010)

>  <Pubmed ID>
20951036

>  <DOI>
10.1016/j.bmcl.2010.09.037

$$$$
716453
Actelion Java MolfileCreator 1.0

 33 37  0  0  0  0  0  0  0  0999 V2000
    0.0000   -0.0000   -0.0000 F   0  0  0  0  0  0  0  0  0  0  0  0
    1.2820   -0.7478   -0.0000 C   0  0  0  0  0  0  0  0  0  0  0  0
    1.2701   -2.2434   -0.0000 F   0  0  0  0  0  0  0  0  0  0  0  0
    0.2018   -1.7924   -0.0000 F   0  0  0  0  0  0  0  0  0  0  0  0
    2.5758    0.0119   -0.0000 C   0  0  0  0  0  0  0  0  0  0  0  0
    2.5758    1.5312   -0.0000 C   0  0  0  0  0  0  0  0  0  0  0  0
    3.8696   -0.7359   -0.0000 C   0  0  0  0  0  0  0  0  0  0  0  0
    3.8696    2.2909   -0.0000 C   0  0  0  0  0  0  0  0  0  0  0  0
    5.1515    0.0237   -0.0000 C   0  0  0  0  0  0  0  0  0  0  0  0
    5.1515    1.5431   -0.0000 C   0  0  0  0  0  0  0  0  0  0  0  0
    6.4454    2.3028   -0.0000 C   0  0  0  0  0  0  0  0  0  0  0  0
    6.4454    3.8221   -0.0000 C   0  0  0  0  0  0  0  0  0  0  0  0
    7.7392    1.5550   -0.0000 C   0  0  0  0  0  0  0  0  0  0  0  0
    7.7273    4.5818   -0.0000 C   0  0  0  0  0  0  0  0  0  0  0  0
    9.0330    2.3146   -0.0000 C   0  0  0  0  0  0  0  0  0  0  0  0
    7.7273    6.1011   -0.0000 O   0  0  0  0  0  0  0  0  0  0  0  0
    9.0093    3.8340   -0.0000 N   0  0  0  0  0  0  0  0  0  0  0  0
   10.3031    4.5937   -0.0000 C   0  0  0  0  0  0  0  0  0  0  0  0
   11.5969    3.8577   -0.0000 C   0  0  0  0  0  0  0  0  0  0  0  0
   10.2912    6.1130   -0.0000 C   0  0  0  0  0  0  0  0  0  0  0  0
   12.8907    4.6293   -0.0000 C   0  0  0  0  0  0  0  0  0  0  0  0
   11.5732    6.8727   -0.0000 C   0  0  0  0  0  0  0  0  0  0  0  0
   12.8670    6.1486   -0.0000 C   0  0  0  0  0  0  0  0  0  0  0  0
   14.3151    4.1782   -0.0000 C   0  0  0  0  0  0  0  0  0  0  0  0
   14.2795    6.6353   -0.0000 N   0  0  0  0  0  0  0  0  0  0  0  0
   15.1816    5.4127   -0.0000 N   0  0  0  0  0  0  0  0  0  0  0  0
   14.7187    8.0834   -0.0000 C   0  0  0  0  0  0  0  0  0  0  0  0
   16.1787    8.4158   -0.0000 C   0  0  0  0  0  0  0  0  0  0  0  0
   17.1758    7.3119   -0.0000 N   0  0  0  0  0  0  0  0  0  0  0  0
   16.8672    5.8519   -0.0000 C   0  0  0  0  0  0  0  0  0  0  0  0
   18.6595    7.4899   -0.0000 C   0  0  0  0  0  0  0  0  0  0  0  0
   18.1610    5.1159   -0.0000 C   0  0  0  0  0  0  0  0  0  0  0  0
   19.2649    6.1368   -0.0000 C   0  0  0  0  0  0  0  0  0  0  0  0
  1  2  1  0  0  0  0
  2  3  1  0  0  0  0
  2  4  1  0  0  0  0
  2  5  1  0  0  0  0
  5  6  2  0  0  0  0
  5  7  1  0  0  0  0
  6  8  1  0  0  0  0
  7  9  2  0  0  0  0
  8 10  2  0  0  0  0
 10 11  1  0  0  0  0
 11 12  2  0  0  0  0
 11 13  1  0  0  0  0
 12 14  1  0  0  0  0
 13 15  2  0  0  0  0
 14 16  2  0  0  0  0
 14 17  1  0  0  0  0
 17 18  1  0  0  0  0
 18 19  2  0  0  0  0
 18 20  1  0  0  0  0
 19 21  1  0  0  0  0
 20 22  2  0  0  0  0
 21 23  2  0  0  0  0
 21 24  1  0  0  0  0
 23 25  1  0  0  0  0
 24 26  2  0  0  0  0
 25 27  1  0  0  0  0
 27 28  1  0  0  0  0
 28 29  1  0  0  0  0
 29 30  1  0  0  0  0
 29 31  1  0  0  0  0
 30 32  1  0  0  0  0
 31 33  1  0  0  0  0
  9 10  1  0  0  0  0
 15 17  1  0  0  0  0
 22 23  1  0  0  0  0
 25 26  1  0  0  0  0
 32 33  1  0  0  0  0
M  END
>  <MolRegNo>
716453

>  <m>
=

>  <Value>
2000

>  <Unit>
nM

>  <Type>
IC50

>  <pValue>
5.7

>  <Ligand Efficiency>
0

>  <Binding Efficiency>
0

>  <Surface Efficiency>
0

>  <Assay Index>
531274

>  <Assay Category>


>  <Assay Organism>


>  <Target ID>
17045

>  <Target Name>
Cytochrome P450 3A4

>  <Target Organism>
Homo sapiens

>  <Target Description>
Target is a single protein chain

>  <Sequence Accession>
P08684

>  <Reference>
Bioorg Med Chem Lett 20 (23), 7020-7023 (2010)

>  <Pubmed ID>
20951036

>  <DOI>
10.1016/j.bmcl.2010.09.037

$$$$
716563
Actelion Java MolfileCreator 1.0

 31 35  0  0  0  0  0  0  0  0999 V2000
    0.0000   -0.0000   -0.0000 Cl  0  0  0  0  0  0  0  0  0  0  0  0
   -1.3152    0.7583   -0.0000 C   0  0  0  0  0  0  0  0  0  0  0  0
   -1.3271    2.2631   -0.0000 C   0  0  0  0  0  0  0  0  0  0  0  0
   -2.6186    0.0237   -0.0000 C   0  0  0  0  0  0  0  0  0  0  0  0
   -0.0355    3.0215   -0.0000 C   0  0  0  0  0  0  0  0  0  0  0  0
   -2.6305    3.0333   -0.0000 C   0  0  0  0  0  0  0  0  0  0  0  0
   -3.9338    0.7939   -0.0000 C   0  0  0  0  0  0  0  0  0  0  0  0
   -0.0355    4.5381   -0.0000 C   0  0  0  0  0  0  0  0  0  0  0  0
    1.2560    2.2750   -0.0000 C   0  0  0  0  0  0  0  0  0  0  0  0
   -3.9457    2.2987   -0.0000 C   0  0  0  0  0  0  0  0  0  0  0  0
   -5.2491    0.0592   -0.0000 Cl  0  0  0  0  0  0  0  0  0  0  0  0
    1.2441    5.2965   -0.0000 C   0  0  0  0  0  0  0  0  0  0  0  0
    2.5475    3.0333   -0.0000 C   0  0  0  0  0  0  0  0  0  0  0  0
    1.2441    6.8131   -0.0000 O   0  0  0  0  0  0  0  0  0  0  0  0
    2.5238    4.5500   -0.0000 N   0  0  0  0  0  0  0  0  0  0  0  0
    3.8154    5.3083   -0.0000 C   0  0  0  0  0  0  0  0  0  0  0  0
    5.1069    4.5737   -0.0000 C   0  0  0  0  0  0  0  0  0  0  0  0
    3.8035    6.8250   -0.0000 C   0  0  0  0  0  0  0  0  0  0  0  0
    6.3984    5.3439   -0.0000 C   0  0  0  0  0  0  0  0  0  0  0  0
    5.0832    7.5833   -0.0000 C   0  0  0  0  0  0  0  0  0  0  0  0
    6.3747    6.8605   -0.0000 C   0  0  0  0  0  0  0  0  0  0  0  0
    7.8203    4.9055   -0.0000 C   0  0  0  0  0  0  0  0  0  0  0  0
    7.7848    7.3463   -0.0000 N   0  0  0  0  0  0  0  0  0  0  0  0
    8.6853    6.1377   -0.0000 N   0  0  0  0  0  0  0  0  0  0  0  0
    8.2232    8.7919   -0.0000 C   0  0  0  0  0  0  0  0  0  0  0  0
    9.6806    9.1237   -0.0000 C   0  0  0  0  0  0  0  0  0  0  0  0
   10.6759    8.0217   -0.0000 N   0  0  0  0  0  0  0  0  0  0  0  0
   10.3678    6.5643   -0.0000 C   0  0  0  0  0  0  0  0  0  0  0  0
   12.1570    8.1995   -0.0000 C   0  0  0  0  0  0  0  0  0  0  0  0
   11.6594    5.8297   -0.0000 C   0  0  0  0  0  0  0  0  0  0  0  0
   12.7613    6.8487   -0.0000 C   0  0  0  0  0  0  0  0  0  0  0  0
  1  2  1  0  0  0  0
  2  3  2  0  0  0  0
  2  4  1  0  0  0  0
  3  5  1  0  0  0  0
  3  6  1  0  0  0  0
  4  7  2  0  0  0  0
  5  8  2  0  0  0  0
  5  9  1  0  0  0  0
  6 10  2  0  0  0  0
  7 11  1  0  0  0  0
  8 12  1  0  0  0  0
  9 13  2  0  0  0  0
 12 14  2  0  0  0  0
 12 15  1  0  0  0  0
 15 16  1  0  0  0  0
 16 17  2  0  0  0  0
 16 18  1  0  0  0  0
 17 19  1  0  0  0  0
 18 20  2  0  0  0  0
 19 21  2  0  0  0  0
 19 22  1  0  0  0  0
 21 23  1  0  0  0  0
 22 24  2  0  0  0  0
 23 25  1  0  0  0  0
 25 26  1  0  0  0  0
 26 27  1  0  0  0  0
 27 28  1  0  0  0  0
 27 29  1  0  0  0  0
 28 30  1  0  0  0  0
 29 31  1  0  0  0  0
  7 10  1  0  0  0  0
 13 15  1  0  0  0  0
 20 21  1  0  0  0  0
 23 24  1  0  0  0  0
 30 31  1  0  0  0  0
M  END
>  <MolRegNo>
716563

>  <m>
=

>  <Value>
1700

>  <Unit>
nM

>  <Type>
IC50

>  <pValue>
5.77

>  <Ligand Efficiency>
0

>  <Binding Efficiency>
0

>  <Surface Efficiency>
0

>  <Assay Index>
531274

>  <Assay Category>


>  <Assay Organism>


>  <Target ID>
17045

>  <Target Name>
Cytochrome P450 3A4

>  <Target Organism>
Homo sapiens

>  <Target Description>
Target is a single protein chain

>  <Sequence Accession>
P08684

>  <Reference>
Bioorg Med Chem Lett 20 (23), 7020-7023 (2010)

>  <Pubmed ID>
20951036

>  <DOI>
10.1016/j.bmcl.2010.09.037

$$$$
715687
Actelion Java MolfileCreator 1.0

 31 35  0  0  0  0  0  0  0  0999 V2000
    0.0000   -0.0000   -0.0000 O   0  0  0  0  0  0  0  0  0  0  0  0
   -0.0119   -1.4945   -0.0000 C   0  0  0  0  0  0  0  0  0  0  0  0
    1.2810   -2.2418   -0.0000 N   0  0  0  0  0  0  0  0  0  0  0  0
   -1.3285   -2.2300   -0.0000 C   0  0  0  0  0  0  0  0  0  0  0  0
    2.5621   -1.4827   -0.0000 C   0  0  0  0  0  0  0  0  0  0  0  0
    1.2692   -3.7245   -0.0000 C   0  0  0  0  0  0  0  0  0  0  0  0
   -1.3403   -3.7245   -0.0000 C   0  0  0  0  0  0  0  0  0  0  0  0
    3.8550   -2.2181   -0.0000 C   0  0  0  0  0  0  0  0  0  0  0  0
    2.5502    0.0356   -0.0000 C   0  0  0  0  0  0  0  0  0  0  0  0
   -0.0356   -4.4599   -0.0000 C   0  0  0  0  0  0  0  0  0  0  0  0
   -2.6570   -4.4599   -0.0000 O   0  0  0  0  0  0  0  0  0  0  0  0
    5.1479   -1.4471   -0.0000 C   0  0  0  0  0  0  0  0  0  0  0  0
    3.8313    0.7947   -0.0000 C   0  0  0  0  0  0  0  0  0  0  0  0
   -3.9736   -3.7008   -0.0000 C   0  0  0  0  0  0  0  0  0  0  0  0
    5.1360    0.0712   -0.0000 C   0  0  0  0  0  0  0  0  0  0  0  0
    6.5712   -1.8978   -0.0000 C   0  0  0  0  0  0  0  0  0  0  0  0
   -5.2902   -4.4362   -0.0000 C   0  0  0  0  0  0  0  0  0  0  0  0
    6.5594    0.5456   -0.0000 N   0  0  0  0  0  0  0  0  0  0  0  0
    7.4490   -0.6642   -0.0000 N   0  0  0  0  0  0  0  0  0  0  0  0
   -6.6068   -3.6652   -0.0000 C   0  0  0  0  0  0  0  0  0  0  0  0
   -5.3021   -5.9189   -0.0000 C   0  0  0  0  0  0  0  0  0  0  0  0
    7.0101    1.9809   -0.0000 C   0  0  0  0  0  0  0  0  0  0  0  0
   -7.9235   -4.4006   -0.0000 C   0  0  0  0  0  0  0  0  0  0  0  0
   -6.6068   -6.6661   -0.0000 C   0  0  0  0  0  0  0  0  0  0  0  0
    8.4691    2.3011   -0.0000 C   0  0  0  0  0  0  0  0  0  0  0  0
   -7.9353   -5.8951   -0.0000 C   0  0  0  0  0  0  0  0  0  0  0  0
    9.4654    1.1980   -0.0000 N   0  0  0  0  0  0  0  0  0  0  0  0
    9.1333   -0.2610   -0.0000 C   0  0  0  0  0  0  0  0  0  0  0  0
   10.9363    1.3641   -0.0000 C   0  0  0  0  0  0  0  0  0  0  0  0
   10.4262   -0.9964   -0.0000 C   0  0  0  0  0  0  0  0  0  0  0  0
   11.5412   -0.0000   -0.0000 C   0  0  0  0  0  0  0  0  0  0  0  0
  1  2  2  0  0  0  0
  2  3  1  0  0  0  0
  2  4  1  0  0  0  0
  3  5  1  0  0  0  0
  3  6  1  0  0  0  0
  4  7  2  0  0  0  0
  5  8  2  0  0  0  0
  5  9  1  0  0  0  0
  6 10  2  0  0  0  0
  7 11  1  0  0  0  0
  8 12  1  0  0  0  0
  9 13  2  0  0  0  0
 11 14  1  0  0  0  0
 12 15  2  0  0  0  0
 12 16  1  0  0  0  0
 14 17  1  0  0  0  0
 15 18  1  0  0  0  0
 16 19  2  0  0  0  0
 17 20  2  0  0  0  0
 17 21  1  0  0  0  0
 18 22  1  0  0  0  0
 20 23  1  0  0  0  0
 21 24  2  0  0  0  0
 22 25  1  0  0  0  0
 23 26  2  0  0  0  0
 25 27  1  0  0  0  0
 27 28  1  0  0  0  0
 27 29  1  0  0  0  0
 28 30  1  0  0  0  0
 29 31  1  0  0  0  0
  7 10  1  0  0  0  0
 13 15  1  0  0  0  0
 18 19  1  0  0  0  0
 24 26  1  0  0  0  0
 30 31  1  0  0  0  0
M  END
>  <MolRegNo>
715687

>  <m>
=

>  <Value>
10000

>  <Unit>
nM

>  <Type>
IC50

>  <pValue>
5

>  <Ligand Efficiency>
0

>  <Binding Efficiency>
0

>  <Surface Efficiency>
0

>  <Assay Index>
531406

>  <Assay Category>


>  <Assay Organism>


>  <Target ID>
17045

>  <Target Name>
Cytochrome P450 3A4

>  <Target Organism>
Homo sapiens

>  <Target Description>
Target is a single protein chain

>  <Sequence Accession>
P08684

>  <Reference>
Bioorg Med Chem Lett 20 (23), 7024-7028 (2010)

>  <Pubmed ID>
20952195

>  <DOI>
10.1016/j.bmcl.2010.09.122

$$$$
716568
Actelion Java MolfileCreator 1.0

 28 32  0  0  0  0  0  0  0  0999 V2000
    0.0000   -0.0000   -0.0000 O   0  0  0  0  0  0  0  0  0  0  0  0
   -0.0118   -1.4916   -0.0000 C   0  0  0  0  0  0  0  0  0  0  0  0
    1.2786   -2.2375   -0.0000 N   0  0  0  0  0  0  0  0  0  0  0  0
   -1.3259   -2.2256   -0.0000 C   0  0  0  0  0  0  0  0  0  0  0  0
    2.5571   -1.4798   -0.0000 C   0  0  0  0  0  0  0  0  0  0  0  0
    1.2667   -3.7173   -0.0000 C   0  0  0  0  0  0  0  0  0  0  0  0
   -1.3377   -3.7173   -0.0000 C   0  0  0  0  0  0  0  0  0  0  0  0
    3.8475   -2.2138   -0.0000 C   0  0  0  0  0  0  0  0  0  0  0  0
    2.5453    0.0355   -0.0000 C   0  0  0  0  0  0  0  0  0  0  0  0
   -0.0355   -4.4513   -0.0000 C   0  0  0  0  0  0  0  0  0  0  0  0
   -2.6518   -4.4513   -0.0000 O   0  0  0  0  0  0  0  0  0  0  0  0
    5.1379   -1.4443   -0.0000 C   0  0  0  0  0  0  0  0  0  0  0  0
    3.8238    0.7932   -0.0000 C   0  0  0  0  0  0  0  0  0  0  0  0
   -3.9659   -3.6936   -0.0000 C   0  0  0  0  0  0  0  0  0  0  0  0
    6.5585   -1.8942   -0.0000 N   0  0  0  0  0  0  0  0  0  0  0  0
    5.1142    0.0710   -0.0000 C   0  0  0  0  0  0  0  0  0  0  0  0
   -5.2800   -4.4276   -0.0000 C   0  0  0  0  0  0  0  0  0  0  0  0
    7.4227   -0.6630   -0.0000 C   0  0  0  0  0  0  0  0  0  0  0  0
    6.5348    0.5564   -0.0000 C   0  0  0  0  0  0  0  0  0  0  0  0
   -6.5940   -3.6581   -0.0000 C   0  0  0  0  0  0  0  0  0  0  0  0
   -5.2918   -5.9074   -0.0000 C   0  0  0  0  0  0  0  0  0  0  0  0
    8.9025   -0.4854   -0.0000 C   0  0  0  0  0  0  0  0  0  0  0  0
    7.1268    1.9415   -0.0000 C   0  0  0  0  0  0  0  0  0  0  0  0
   -7.9081   -4.3921   -0.0000 C   0  0  0  0  0  0  0  0  0  0  0  0
   -6.5940   -6.6532   -0.0000 C   0  0  0  0  0  0  0  0  0  0  0  0
    9.5063    0.8997   -0.0000 C   0  0  0  0  0  0  0  0  0  0  0  0
    8.6184    2.1191   -0.0000 N   0  0  0  0  0  0  0  0  0  0  0  0
   -7.9199   -5.8837   -0.0000 C   0  0  0  0  0  0  0  0  0  0  0  0
  1  2  2  0  0  0  0
  2  3  1  0  0  0  0
  2  4  1  0  0  0  0
  3  5  1  0  0  0  0
  3  6  1  0  0  0  0
  4  7  2  0  0  0  0
  5  8  2  0  0  0  0
  5  9  1  0  0  0  0
  6 10  2  0  0  0  0
  7 11  1  0  0  0  0
  8 12  1  0  0  0  0
  9 13  2  0  0  0  0
 11 14  1  0  0  0  0
 12 15  1  0  0  0  0
 12 16  2  0  0  0  0
 14 17  1  0  0  0  0
 15 18  1  0  0  0  0
 16 19  1  0  0  0  0
 17 20  2  0  0  0  0
 17 21  1  0  0  0  0
 18 22  1  0  0  0  0
 19 23  1  0  0  0  0
 20 24  1  0  0  0  0
 21 25  2  0  0  0  0
 22 26  1  0  0  0  0
 23 27  1  0  0  0  0
 24 28  2  0  0  0  0
  7 10  1  0  0  0  0
 13 16  1  0  0  0  0
 18 19  2  0  0  0  0
 25 28  1  0  0  0  0
 26 27  1  0  0  0  0
M  END
>  <MolRegNo>
716568

>  <m>
=

>  <Value>
68000

>  <Unit>
nM

>  <Type>
IC50

>  <pValue>
4.17

>  <Ligand Efficiency>
0

>  <Binding Efficiency>
0

>  <Surface Efficiency>
0

>  <Assay Index>
531406

>  <Assay Category>


>  <Assay Organism>


>  <Target ID>
17045

>  <Target Name>
Cytochrome P450 3A4

>  <Target Organism>
Homo sapiens

>  <Target Description>
Target is a single protein chain

>  <Sequence Accession>
P08684

>  <Reference>
Bioorg Med Chem Lett 20 (23), 7024-7028 (2010)

>  <Pubmed ID>
20952195

>  <DOI>
10.1016/j.bmcl.2010.09.122

$$$$
716678
Actelion Java MolfileCreator 1.0

 30 34  0  0  0  0  0  0  0  0999 V2000
    0.0000   -0.0000   -0.0000 O   0  0  0  0  0  0  0  0  0  0  0  0
   -0.0118   -1.4920   -0.0000 C   0  0  0  0  0  0  0  0  0  0  0  0
    1.2788   -2.2380   -0.0000 N   0  0  0  0  0  0  0  0  0  0  0  0
   -1.3262   -2.2261   -0.0000 C   0  0  0  0  0  0  0  0  0  0  0  0
    2.5577   -1.4801   -0.0000 C   0  0  0  0  0  0  0  0  0  0  0  0
    1.2670   -3.7181   -0.0000 C   0  0  0  0  0  0  0  0  0  0  0  0
   -1.3380   -3.7181   -0.0000 C   0  0  0  0  0  0  0  0  0  0  0  0
    3.8483   -2.2143   -0.0000 C   0  0  0  0  0  0  0  0  0  0  0  0
    2.5458    0.0355   -0.0000 C   0  0  0  0  0  0  0  0  0  0  0  0
   -0.0355   -4.4522   -0.0000 C   0  0  0  0  0  0  0  0  0  0  0  0
   -2.6524   -4.4522   -0.0000 O   0  0  0  0  0  0  0  0  0  0  0  0
    5.1390   -1.4446   -0.0000 C   0  0  0  0  0  0  0  0  0  0  0  0
    3.8247    0.7934   -0.0000 C   0  0  0  0  0  0  0  0  0  0  0  0
   -3.9668   -3.6944   -0.0000 C   0  0  0  0  0  0  0  0  0  0  0  0
    6.5599   -1.8946   -0.0000 N   0  0  0  0  0  0  0  0  0  0  0  0
    5.1153    0.0710   -0.0000 C   0  0  0  0  0  0  0  0  0  0  0  0
   -5.2811   -4.4286   -0.0000 C   0  0  0  0  0  0  0  0  0  0  0  0
    7.4243   -0.6631   -0.0000 C   0  0  0  0  0  0  0  0  0  0  0  0
    7.0217   -3.3037   -0.0000 C   0  0  0  0  0  0  0  0  0  0  0  0
    6.5363    0.5565   -0.0000 C   0  0  0  0  0  0  0  0  0  0  0  0
   -6.5955   -3.6589   -0.0000 C   0  0  0  0  0  0  0  0  0  0  0  0
   -5.2930   -5.9087   -0.0000 C   0  0  0  0  0  0  0  0  0  0  0  0
    8.9045   -0.4855   -0.0000 C   0  0  0  0  0  0  0  0  0  0  0  0
    7.1283    1.9419   -0.0000 C   0  0  0  0  0  0  0  0  0  0  0  0
   -7.9098   -4.3930   -0.0000 C   0  0  0  0  0  0  0  0  0  0  0  0
   -6.5955   -6.6547   -0.0000 C   0  0  0  0  0  0  0  0  0  0  0  0
    9.5084    0.8999   -0.0000 C   0  0  0  0  0  0  0  0  0  0  0  0
    8.6203    2.1196   -0.0000 N   0  0  0  0  0  0  0  0  0  0  0  0
   -7.9217   -5.8850   -0.0000 C   0  0  0  0  0  0  0  0  0  0  0  0
    9.2123    3.5050   -0.0000 C   0  0  0  0  0  0  0  0  0  0  0  0
  1  2  2  0  0  0  0
  2  3  1  0  0  0  0
  2  4  1  0  0  0  0
  3  5  1  0  0  0  0
  3  6  1  0  0  0  0
  4  7  2  0  0  0  0
  5  8  2  0  0  0  0
  5  9  1  0  0  0  0
  6 10  2  0  0  0  0
  7 11  1  0  0  0  0
  8 12  1  0  0  0  0
  9 13  2  0  0  0  0
 11 14  1  0  0  0  0
 12 15  1  0  0  0  0
 12 16  2  0  0  0  0
 14 17  1  0  0  0  0
 15 18  1  0  0  0  0
 15 19  1  0  0  0  0
 16 20  1  0  0  0  0
 17 21  2  0  0  0  0
 17 22  1  0  0  0  0
 18 23  1  0  0  0  0
 20 24  1  0  0  0  0
 21 25  1  0  0  0  0
 22 26  2  0  0  0  0
 23 27  1  0  0  0  0
 24 28  1  0  0  0  0
 25 29  2  0  0  0  0
 28 30  1  0  0  0  0
  7 10  1  0  0  0  0
 13 16  1  0  0  0  0
 18 20  2  0  0  0  0
 26 29  1  0  0  0  0
 27 28  1  0  0  0  0
M  END
>  <MolRegNo>
716678

>  <m>
=

>  <Value>
67000

>  <Unit>
nM

>  <Type>
IC50

>  <pValue>
4.17

>  <Ligand Efficiency>
0

>  <Binding Efficiency>
0

>  <Surface Efficiency>
0

>  <Assay Index>
531406

>  <Assay Category>


>  <Assay Organism>


>  <Target ID>
17045

>  <Target Name>
Cytochrome P450 3A4

>  <Target Organism>
Homo sapiens

>  <Target Description>
Target is a single protein chain

>  <Sequence Accession>
P08684

>  <Reference>
Bioorg Med Chem Lett 20 (23), 7024-7028 (2010)

>  <Pubmed ID>
20952195

>  <DOI>
10.1016/j.bmcl.2010.09.122

$$$$
715801
Actelion Java MolfileCreator 1.0

 29 33  0  0  0  0  0  0  0  0999 V2000
    0.0000   -0.0000   -0.0000 O   0  0  0  0  0  0  0  0  0  0  0  0
   -0.0118   -1.4922   -0.0000 C   0  0  0  0  0  0  0  0  0  0  0  0
    1.2790   -2.2383   -0.0000 N   0  0  0  0  0  0  0  0  0  0  0  0
   -1.3264   -2.2264   -0.0000 C   0  0  0  0  0  0  0  0  0  0  0  0
    2.5580   -1.4803   -0.0000 C   0  0  0  0  0  0  0  0  0  0  0  0
    1.2672   -3.7186   -0.0000 C   0  0  0  0  0  0  0  0  0  0  0  0
   -1.3382   -3.7186   -0.0000 C   0  0  0  0  0  0  0  0  0  0  0  0
    3.8489   -2.2146   -0.0000 C   0  0  0  0  0  0  0  0  0  0  0  0
    2.5462    0.0355   -0.0000 C   0  0  0  0  0  0  0  0  0  0  0  0
   -0.0355   -4.4528   -0.0000 C   0  0  0  0  0  0  0  0  0  0  0  0
   -2.6528   -4.4528   -0.0000 O   0  0  0  0  0  0  0  0  0  0  0  0
    5.1397   -1.4448   -0.0000 C   0  0  0  0  0  0  0  0  0  0  0  0
    3.8252    0.7935   -0.0000 C   0  0  0  0  0  0  0  0  0  0  0  0
   -3.9673   -3.6949   -0.0000 C   0  0  0  0  0  0  0  0  0  0  0  0
    6.5608   -1.8948   -0.0000 N   0  0  0  0  0  0  0  0  0  0  0  0
    5.1160    0.0711   -0.0000 C   0  0  0  0  0  0  0  0  0  0  0  0
   -5.2818   -4.4291   -0.0000 C   0  0  0  0  0  0  0  0  0  0  0  0
    7.4253   -0.6632   -0.0000 C   0  0  0  0  0  0  0  0  0  0  0  0
    7.0227   -3.3041   -0.0000 C   0  0  0  0  0  0  0  0  0  0  0  0
    6.5371    0.5566   -0.0000 C   0  0  0  0  0  0  0  0  0  0  0  0
   -6.5964   -3.6594   -0.0000 C   0  0  0  0  0  0  0  0  0  0  0  0
   -5.2937   -5.9095   -0.0000 C   0  0  0  0  0  0  0  0  0  0  0  0
    8.9057   -0.4855   -0.0000 C   0  0  0  0  0  0  0  0  0  0  0  0
    7.1293    1.9422   -0.0000 C   0  0  0  0  0  0  0  0  0  0  0  0
   -7.9109   -4.3936   -0.0000 C   0  0  0  0  0  0  0  0  0  0  0  0
   -6.5964   -6.6556   -0.0000 C   0  0  0  0  0  0  0  0  0  0  0  0
    9.5096    0.9000   -0.0000 N   0  0  0  0  0  0  0  0  0  0  0  0
    8.6214    2.1198   -0.0000 C   0  0  0  0  0  0  0  0  0  0  0  0
   -7.9227   -5.8858   -0.0000 C   0  0  0  0  0  0  0  0  0  0  0  0
  1  2  2  0  0  0  0
  2  3  1  0  0  0  0
  2  4  1  0  0  0  0
  3  5  1  0  0  0  0
  3  6  1  0  0  0  0
  4  7  2  0  0  0  0
  5  8  2  0  0  0  0
  5  9  1  0  0  0  0
  6 10  2  0  0  0  0
  7 11  1  0  0  0  0
  8 12  1  0  0  0  0
  9 13  2  0  0  0  0
 11 14  1  0  0  0  0
 12 15  1  0  0  0  0
 12 16  2  0  0  0  0
 14 17  1  0  0  0  0
 15 18  1  0  0  0  0
 15 19  1  0  0  0  0
 16 20  1  0  0  0  0
 17 21  2  0  0  0  0
 17 22  1  0  0  0  0
 18 23  1  0  0  0  0
 20 24  1  0  0  0  0
 21 25  1  0  0  0  0
 22 26  2  0  0  0  0
 23 27  1  0  0  0  0
 24 28  1  0  0  0  0
 25 29  2  0  0  0  0
  7 10  1  0  0  0  0
 13 16  1  0  0  0  0
 18 20  2  0  0  0  0
 26 29  1  0  0  0  0
 27 28  1  0  0  0  0
M  END
>  <MolRegNo>
715801

>  <m>
=

>  <Value>
12000

>  <Unit>
nM

>  <Type>
IC50

>  <pValue>
4.92

>  <Ligand Efficiency>
0

>  <Binding Efficiency>
0

>  <Surface Efficiency>
0

>  <Assay Index>
531406

>  <Assay Category>


>  <Assay Organism>


>  <Target ID>
17045

>  <Target Name>
Cytochrome P450 3A4

>  <Target Organism>
Homo sapiens

>  <Target Description>
Target is a single protein chain

>  <Sequence Accession>
P08684

>  <Reference>
Bioorg Med Chem Lett 20 (23), 7024-7028 (2010)

>  <Pubmed ID>
20952195

>  <DOI>
10.1016/j.bmcl.2010.09.122

$$$$
715802
Actelion Java MolfileCreator 1.0

 30 34  0  0  0  0  0  0  0  0999 V2000
    0.0000   -0.0000   -0.0000 O   0  0  0  0  0  0  0  0  0  0  0  0
   -0.0118   -1.4921   -0.0000 C   0  0  0  0  0  0  0  0  0  0  0  0
    1.2789   -2.2381   -0.0000 N   0  0  0  0  0  0  0  0  0  0  0  0
   -1.3263   -2.2263   -0.0000 C   0  0  0  0  0  0  0  0  0  0  0  0
    2.5579   -1.4803   -0.0000 C   0  0  0  0  0  0  0  0  0  0  0  0
    1.2671   -3.7184   -0.0000 C   0  0  0  0  0  0  0  0  0  0  0  0
   -1.3381   -3.7184   -0.0000 C   0  0  0  0  0  0  0  0  0  0  0  0
    3.8487   -2.2145   -0.0000 C   0  0  0  0  0  0  0  0  0  0  0  0
    2.5460    0.0355   -0.0000 C   0  0  0  0  0  0  0  0  0  0  0  0
   -0.0355   -4.4644   -0.0000 C   0  0  0  0  0  0  0  0  0  0  0  0
   -2.6526   -4.4526   -0.0000 O   0  0  0  0  0  0  0  0  0  0  0  0
    5.1394   -1.4447   -0.0000 C   0  0  0  0  0  0  0  0  0  0  0  0
    3.8250    0.7934   -0.0000 C   0  0  0  0  0  0  0  0  0  0  0  0
   -3.9671   -3.6947   -0.0000 C   0  0  0  0  0  0  0  0  0  0  0  0
    6.5605   -1.8947   -0.0000 N   0  0  0  0  0  0  0  0  0  0  0  0
    5.1158    0.0711   -0.0000 C   0  0  0  0  0  0  0  0  0  0  0  0
   -5.2815   -4.4289   -0.0000 C   0  0  0  0  0  0  0  0  0  0  0  0
    7.4250   -0.6632   -0.0000 C   0  0  0  0  0  0  0  0  0  0  0  0
    7.0223   -3.3039   -0.0000 C   0  0  0  0  0  0  0  0  0  0  0  0
    6.5368    0.5566   -0.0000 C   0  0  0  0  0  0  0  0  0  0  0  0
   -6.5960   -3.6592   -0.0000 C   0  0  0  0  0  0  0  0  0  0  0  0
   -5.2934   -5.9092   -0.0000 C   0  0  0  0  0  0  0  0  0  0  0  0
    8.9052   -0.4855   -0.0000 C   0  0  0  0  0  0  0  0  0  0  0  0
    7.1289    1.9421   -0.0000 C   0  0  0  0  0  0  0  0  0  0  0  0
   -7.9105   -4.3934   -0.0000 C   0  0  0  0  0  0  0  0  0  0  0  0
   -6.5960   -6.6552   -0.0000 C   0  0  0  0  0  0  0  0  0  0  0  0
    9.5091    0.9000   -0.0000 N   0  0  0  0  0  0  0  0  0  0  0  0
    8.6210    2.1197   -0.0000 C   0  0  0  0  0  0  0  0  0  0  0  0
   -7.9223   -5.8855   -0.0000 C   0  0  0  0  0  0  0  0  0  0  0  0
   10.9894    1.0776   -0.0000 C   0  0  0  0  0  0  0  0  0  0  0  0
  1  2  2  0  0  0  0
  2  3  1  0  0  0  0
  2  4  1  0  0  0  0
  3  5  1  0  0  0  0
  3  6  1  0  0  0  0
  4  7  2  0  0  0  0
  5  8  2  0  0  0  0
  5  9  1  0  0  0  0
  6 10  2  0  0  0  0
  7 11  1  0  0  0  0
  8 12  1  0  0  0  0
  9 13  2  0  0  0  0
 11 14  1  0  0  0  0
 12 15  1  0  0  0  0
 12 16  2  0  0  0  0
 14 17  1  0  0  0  0
 15 18  1  0  0  0  0
 15 19  1  0  0  0  0
 16 20  1  0  0  0  0
 17 21  2  0  0  0  0
 17 22  1  0  0  0  0
 18 23  1  0  0  0  0
 20 24  1  0  0  0  0
 21 25  1  0  0  0  0
 22 26  2  0  0  0  0
 23 27  1  0  0  0  0
 24 28  1  0  0  0  0
 25 29  2  0  0  0  0
 27 30  1  0  0  0  0
  7 10  1  0  0  0  0
 13 16  1  0  0  0  0
 18 20  2  0  0  0  0
 26 29  1  0  0  0  0
 27 28  1  0  0  0  0
M  END
>  <MolRegNo>
715802

>  <m>
=

>  <Value>
24000

>  <Unit>
nM

>  <Type>
IC50

>  <pValue>
4.62

>  <Ligand Efficiency>
0

>  <Binding Efficiency>
0

>  <Surface Efficiency>
0

>  <Assay Index>
531406

>  <Assay Category>


>  <Assay Organism>


>  <Target ID>
17045

>  <Target Name>
Cytochrome P450 3A4

>  <Target Organism>
Homo sapiens

>  <Target Description>
Target is a single protein chain

>  <Sequence Accession>
P08684

>  <Reference>
Bioorg Med Chem Lett 20 (23), 7024-7028 (2010)

>  <Pubmed ID>
20952195

>  <DOI>
10.1016/j.bmcl.2010.09.122

$$$$
715922
Actelion Java MolfileCreator 1.0

 32 36  0  0  0  0  0  0  0  0999 V2000
    0.0000   -0.0000   -0.0000 O   0  0  0  0  0  0  0  0  0  0  0  0
    0.0000   -1.4872   -0.0000 C   0  0  0  0  0  0  0  0  0  0  0  0
    1.2968   -2.2248   -0.0000 N   0  0  0  0  0  0  0  0  0  0  0  0
   -1.2968   -2.2367   -0.0000 C   0  0  0  0  0  0  0  0  0  0  0  0
    2.5818   -1.4515   -0.0000 C   0  0  0  0  0  0  0  0  0  0  0  0
    1.2849   -3.7120   -0.0000 C   0  0  0  0  0  0  0  0  0  0  0  0
   -1.2968   -3.7120   -0.0000 C   0  0  0  0  0  0  0  0  0  0  0  0
    3.8667   -2.1891   -0.0000 C   0  0  0  0  0  0  0  0  0  0  0  0
    2.5580    0.0595   -0.0000 C   0  0  0  0  0  0  0  0  0  0  0  0
   -0.0238   -4.4497   -0.0000 C   0  0  0  0  0  0  0  0  0  0  0  0
   -2.6056   -4.4497   -0.0000 O   0  0  0  0  0  0  0  0  0  0  0  0
    5.1516   -1.4277   -0.0000 C   0  0  0  0  0  0  0  0  0  0  0  0
    3.8310    0.8328   -0.0000 C   0  0  0  0  0  0  0  0  0  0  0  0
   -3.9143   -3.6882   -0.0000 C   0  0  0  0  0  0  0  0  0  0  0  0
    5.1397    0.0952   -0.0000 C   0  0  0  0  0  0  0  0  0  0  0  0
    6.5793   -1.8679   -0.0000 C   0  0  0  0  0  0  0  0  0  0  0  0
   -5.2230   -4.4259   -0.0000 C   0  0  0  0  0  0  0  0  0  0  0  0
    6.5555    0.5711   -0.0000 N   0  0  0  0  0  0  0  0  0  0  0  0
    7.4479   -0.6306   -0.0000 N   0  0  0  0  0  0  0  0  0  0  0  0
   -6.5317   -3.6644   -0.0000 C   0  0  0  0  0  0  0  0  0  0  0  0
   -5.2349   -5.9250   -0.0000 C   0  0  0  0  0  0  0  0  0  0  0  0
    7.0077    2.0107   -0.0000 C   0  0  0  0  0  0  0  0  0  0  0  0
   -7.8405   -4.4021   -0.0000 C   0  0  0  0  0  0  0  0  0  0  0  0
   -6.5555   -6.6626   -0.0000 C   0  0  0  0  0  0  0  0  0  0  0  0
    8.4592    2.3438   -0.0000 C   0  0  0  0  0  0  0  0  0  0  0  0
   -7.8524   -5.9012   -0.0000 C   0  0  0  0  0  0  0  0  0  0  0  0
    8.9113    3.7834   -0.0000 N   0  0  0  0  0  0  0  0  0  0  0  0
   10.3271    4.2593   -0.0000 C   0  0  0  0  0  0  0  0  0  0  0  0
    8.0070    4.9970   -0.0000 C   0  0  0  0  0  0  0  0  0  0  0  0
   10.3152    5.7703   -0.0000 C   0  0  0  0  0  0  0  0  0  0  0  0
    8.8756    6.2224   -0.0000 C   0  0  0  0  0  0  0  0  0  0  0  0
   11.5168    6.6745   -0.0000 O   0  0  0  0  0  0  0  0  0  0  0  0
  1  2  2  0  0  0  0
  2  3  1  0  0  0  0
  2  4  1  0  0  0  0
  3  5  1  0  0  0  0
  3  6  1  0  0  0  0
  4  7  2  0  0  0  0
  5  8  2  0  0  0  0
  5  9  1  0  0  0  0
  6 10  2  0  0  0  0
  7 11  1  0  0  0  0
  8 12  1  0  0  0  0
  9 13  2  0  0  0  0
 11 14  1  0  0  0  0
 12 15  2  0  0  0  0
 12 16  1  0  0  0  0
 14 17  1  0  0  0  0
 15 18  1  0  0  0  0
 16 19  2  0  0  0  0
 17 20  2  0  0  0  0
 17 21  1  0  0  0  0
 18 22  1  0  0  0  0
 20 23  1  0  0  0  0
 21 24  2  0  0  0  0
 22 25  1  0  0  0  0
 23 26  2  0  0  0  0
 25 27  1  0  0  0  0
 27 28  1  0  0  0  0
 27 29  1  0  0  0  0
 28 30  1  0  0  0  0
 29 31  1  0  0  0  0
 30 32  1  6  0  0  0
  7 10  1  0  0  0  0
 13 15  1  0  0  0  0
 18 19  1  0  0  0  0
 24 26  1  0  0  0  0
 30 31  1  0  0  0  0
M  END
>  <MolRegNo>
715922

>  <m>
=

>  <Value>
7700

>  <Unit>
nM

>  <Type>
IC50

>  <pValue>
5.11

>  <Ligand Efficiency>
0

>  <Binding Efficiency>
0

>  <Surface Efficiency>
0

>  <Assay Index>
531432

>  <Assay Category>


>  <Assay Organism>


>  <Target ID>
17045

>  <Target Name>
Cytochrome P450 3A4

>  <Target Organism>
Homo sapiens

>  <Target Description>
Target is a single protein chain

>  <Sequence Accession>
P08684

>  <Reference>
Bioorg Med Chem Lett 20 (23), 7015-7019 (2010)

>  <Pubmed ID>
20961756

>  <DOI>
10.1016/j.bmcl.2010.09.039

$$$$
715455
Actelion Java MolfileCreator 1.0

 30 34  0  0  0  0  0  0  0  0999 V2000
    0.0000   -0.0000   -0.0000 O   0  0  0  0  0  0  0  0  0  0  0  0
    0.0000   -1.4886   -0.0000 C   0  0  0  0  0  0  0  0  0  0  0  0
    1.2981   -2.2270   -0.0000 N   0  0  0  0  0  0  0  0  0  0  0  0
   -1.2981   -2.2389   -0.0000 C   0  0  0  0  0  0  0  0  0  0  0  0
    2.5843   -1.4529   -0.0000 C   0  0  0  0  0  0  0  0  0  0  0  0
    1.2862   -3.7157   -0.0000 C   0  0  0  0  0  0  0  0  0  0  0  0
   -1.2981   -3.7157   -0.0000 C   0  0  0  0  0  0  0  0  0  0  0  0
    3.8705   -2.1913   -0.0000 C   0  0  0  0  0  0  0  0  0  0  0  0
    2.5605    0.0595   -0.0000 C   0  0  0  0  0  0  0  0  0  0  0  0
   -0.0238   -4.4540   -0.0000 C   0  0  0  0  0  0  0  0  0  0  0  0
   -2.6081   -4.4540   -0.0000 O   0  0  0  0  0  0  0  0  0  0  0  0
    5.1567   -1.4291   -0.0000 C   0  0  0  0  0  0  0  0  0  0  0  0
    3.8348    0.8336   -0.0000 C   0  0  0  0  0  0  0  0  0  0  0  0
   -3.9181   -3.6919   -0.0000 C   0  0  0  0  0  0  0  0  0  0  0  0
    5.1448    0.0953   -0.0000 C   0  0  0  0  0  0  0  0  0  0  0  0
    6.5858   -1.8697   -0.0000 C   0  0  0  0  0  0  0  0  0  0  0  0
   -5.2281   -4.4302   -0.0000 C   0  0  0  0  0  0  0  0  0  0  0  0
    6.5620    0.5716   -0.0000 N   0  0  0  0  0  0  0  0  0  0  0  0
    7.4552   -0.6312   -0.0000 N   0  0  0  0  0  0  0  0  0  0  0  0
   -6.5381   -3.6680   -0.0000 C   0  0  0  0  0  0  0  0  0  0  0  0
   -5.2400   -5.9308   -0.0000 C   0  0  0  0  0  0  0  0  0  0  0  0
    7.0145    2.0127   -0.0000 C   0  0  0  0  0  0  0  0  0  0  0  0
   -7.8482   -4.4064   -0.0000 C   0  0  0  0  0  0  0  0  0  0  0  0
   -6.5620   -6.6692   -0.0000 C   0  0  0  0  0  0  0  0  0  0  0  0
    8.4674    2.3461   -0.0000 C   0  0  0  0  0  0  0  0  0  0  0  0
   -7.8601   -5.9070   -0.0000 C   0  0  0  0  0  0  0  0  0  0  0  0
    9.0629    3.7395   -0.0000 N   0  0  0  0  0  0  0  0  0  0  0  0
    9.5750    1.3576   -0.0000 N   0  0  0  0  0  0  0  0  0  0  0  0
   10.5515    3.5966   -0.0000 C   0  0  0  0  0  0  0  0  0  0  0  0
   10.8612    2.1198   -0.0000 C   0  0  0  0  0  0  0  0  0  0  0  0
  1  2  2  0  0  0  0
  2  3  1  0  0  0  0
  2  4  1  0  0  0  0
  3  5  1  0  0  0  0
  3  6  1  0  0  0  0
  4  7  2  0  0  0  0
  5  8  2  0  0  0  0
  5  9  1  0  0  0  0
  6 10  2  0  0  0  0
  7 11  1  0  0  0  0
  8 12  1  0  0  0  0
  9 13  2  0  0  0  0
 11 14  1  0  0  0  0
 12 15  2  0  0  0  0
 12 16  1  0  0  0  0
 14 17  1  0  0  0  0
 15 18  1  0  0  0  0
 16 19  2  0  0  0  0
 17 20  2  0  0  0  0
 17 21  1  0  0  0  0
 18 22  1  0  0  0  0
 20 23  1  0  0  0  0
 21 24  2  0  0  0  0
 22 25  1  0  0  0  0
 23 26  2  0  0  0  0
 25 27  2  0  0  0  0
 25 28  1  0  0  0  0
 27 29  1  0  0  0  0
 28 30  1  0  0  0  0
  7 10  1  0  0  0  0
 13 15  1  0  0  0  0
 18 19  1  0  0  0  0
 24 26  1  0  0  0  0
 29 30  1  0  0  0  0
M  END
>  <MolRegNo>
715455

>  <m>
=

>  <Value>
38000

>  <Unit>
nM

>  <Type>
IC50

>  <pValue>
4.42

>  <Ligand Efficiency>
0

>  <Binding Efficiency>
0

>  <Surface Efficiency>
0

>  <Assay Index>
531432

>  <Assay Category>


>  <Assay Organism>


>  <Target ID>
17045

>  <Target Name>
Cytochrome P450 3A4

>  <Target Organism>
Homo sapiens

>  <Target Description>
Target is a single protein chain

>  <Sequence Accession>
P08684

>  <Reference>
Bioorg Med Chem Lett 20 (23), 7015-7019 (2010)

>  <Pubmed ID>
20961756

>  <DOI>
10.1016/j.bmcl.2010.09.039

$$$$
714654
Actelion Java MolfileCreator 1.0

 31 33  0  0  0  0  0  0  0  0999 V2000
    0.0000   -0.0000   -0.0000 Cl  0  0  0  0  0  0  0  0  0  0  0  0
   -1.5095    0.0119   -0.0000 C   0  0  0  0  0  0  0  0  0  0  0  0
   -2.2702   -1.2718   -0.0000 C   0  0  0  0  0  0  0  0  0  0  0  0
   -2.2702    1.3193   -0.0000 C   0  0  0  0  0  0  0  0  0  0  0  0
   -3.7797   -1.2718   -0.0000 C   0  0  0  0  0  0  0  0  0  0  0  0
   -1.2718   -2.3653   -0.0000 C   0  0  0  0  0  0  0  0  0  0  0  0
   -3.7797    1.3312   -0.0000 C   0  0  0  0  0  0  0  0  0  0  0  0
   -4.5404    0.0357   -0.0000 C   0  0  0  0  0  0  0  0  0  0  0  0
   -1.7353   -3.7797   -0.0000 N   0  0  0  0  0  0  0  0  0  0  0  0
   -6.0499    0.0475   -0.0000 F   0  0  0  0  0  0  0  0  0  0  0  0
   -3.1735   -4.2433   -0.0000 C   0  0  0  0  0  0  0  0  0  0  0  0
   -0.8558   -4.9802   -0.0000 C   0  0  0  0  0  0  0  0  0  0  0  0
   -4.4810   -3.4707   -0.0000 C   0  0  0  0  0  0  0  0  0  0  0  0
   -3.1735   -5.7290   -0.0000 C   0  0  0  0  0  0  0  0  0  0  0  0
    0.6300   -4.9564   -0.0000 N   0  0  0  0  0  0  0  0  0  0  0  0
   -1.7472   -6.1925   -0.0000 C   0  0  0  0  0  0  0  0  0  0  0  0
   -4.4929   -1.9612   -0.0000 O   0  0  0  0  0  0  0  0  0  0  0  0
   -5.7884   -4.2195   -0.0000 N   0  0  0  0  0  0  0  0  0  0  0  0
   -4.4929   -6.4540   -0.0000 N   0  0  0  0  0  0  0  0  0  0  0  0
    1.3550   -3.6371   -0.0000 C   0  0  0  0  0  0  0  0  0  0  0  0
    1.3669   -6.2401   -0.0000 C   0  0  0  0  0  0  0  0  0  0  0  0
   -5.8003   -5.7052   -0.0000 C   0  0  0  0  0  0  0  0  0  0  0  0
   -7.0959   -3.4588   -0.0000 C   0  0  0  0  0  0  0  0  0  0  0  0
   -4.5047   -7.9398   -0.0000 C   0  0  0  0  0  0  0  0  0  0  0  0
    2.8407   -3.6252   -0.0000 C   0  0  0  0  0  0  0  0  0  0  0  0
    2.8526   -6.2282   -0.0000 C   0  0  0  0  0  0  0  0  0  0  0  0
   -7.1077   -6.4421   -0.0000 O   0  0  0  0  0  0  0  0  0  0  0  0
    4.2670   -3.1973   -0.0000 N   0  0  0  0  0  0  0  0  0  0  0  0
    3.5895   -4.9089   -0.0000 C   0  0  0  0  0  0  0  0  0  0  0  0
    2.8051   -2.1038   -0.0000 C   0  0  0  0  0  0  0  0  0  0  0  0
    8.5578   -2.1870   -0.0000 Cl  0  0  0  0  0  0  0  0  0  0  0  0
  1  2  1  0  0  0  0
  2  3  2  0  0  0  0
  2  4  1  0  0  0  0
  3  5  1  0  0  0  0
  3  6  1  0  0  0  0
  4  7  2  0  0  0  0
  5  8  2  0  0  0  0
  6  9  1  0  0  0  0
  8 10  1  0  0  0  0
  9 11  1  0  0  0  0
  9 12  1  0  0  0  0
 11 13  1  0  0  0  0
 11 14  2  0  0  0  0
 12 15  1  0  0  0  0
 12 16  2  0  0  0  0
 13 17  2  0  0  0  0
 13 18  1  0  0  0  0
 14 19  1  0  0  0  0
 15 20  1  0  0  0  0
 15 21  1  0  0  0  0
 18 22  1  0  0  0  0
 18 23  1  0  0  0  0
 19 24  1  0  0  0  0
 20 25  1  0  0  0  0
 21 26  1  0  0  0  0
 22 27  2  0  0  0  0
 25 28  1  1  0  0  0
 25 29  1  0  0  0  0
 25 30  1  0  0  0  0
  7  8  1  0  0  0  0
 14 16  1  0  0  0  0
 19 22  1  0  0  0  0
 26 29  1  0  0  0  0
M  END
>  <MolRegNo>
714654

>  <m>
=

>  <Value>
10200

>  <Unit>
nM

>  <Type>
IC50

>  <pValue>
4.99

>  <Ligand Efficiency>
0

>  <Binding Efficiency>
0

>  <Surface Efficiency>
0

>  <Assay Index>
532943

>  <Assay Category>


>  <Assay Organism>
Homo sapiens

>  <Target ID>
17045

>  <Target Name>
Cytochrome P450 3A4

>  <Target Organism>
Homo sapiens

>  <Target Description>
Target is a single protein chain

>  <Sequence Accession>
P08684

>  <Reference>
Bioorg Med Chem Lett 20 (24), 7246-7249 (2010)

>  <Pubmed ID>
21074430

>  <DOI>
10.1016/j.bmcl.2010.10.101

$$$$
714655
Actelion Java MolfileCreator 1.0

 31 33  0  0  0  0  0  0  0  0999 V2000
    0.0000   -0.0000   -0.0000 Cl  0  0  0  0  0  0  0  0  0  0  0  0
  -13.4301    1.4689   -0.0000 F   0  0  0  0  0  0  0  0  0  0  0  0
  -11.9349    1.4820   -0.0000 C   0  0  0  0  0  0  0  0  0  0  0  0
  -11.1874    0.1967   -0.0000 C   0  0  0  0  0  0  0  0  0  0  0  0
  -11.2005    2.8067   -0.0000 C   0  0  0  0  0  0  0  0  0  0  0  0
   -9.7053    0.2230   -0.0000 C   0  0  0  0  0  0  0  0  0  0  0  0
   -9.7053    2.8198   -0.0000 C   0  0  0  0  0  0  0  0  0  0  0  0
   -8.9709    1.5345   -0.0000 C   0  0  0  0  0  0  0  0  0  0  0  0
   -8.7086   -0.8787   -0.0000 C   0  0  0  0  0  0  0  0  0  0  0  0
   -7.4757    1.5476   -0.0000 C   0  0  0  0  0  0  0  0  0  0  0  0
   -9.1807   -2.2952   -0.0000 N   0  0  0  0  0  0  0  0  0  0  0  0
  -10.6234   -2.7542   -0.0000 C   0  0  0  0  0  0  0  0  0  0  0  0
   -8.3020   -3.4887   -0.0000 C   0  0  0  0  0  0  0  0  0  0  0  0
  -11.9349   -1.9804   -0.0000 C   0  0  0  0  0  0  0  0  0  0  0  0
  -10.6234   -4.2494   -0.0000 C   0  0  0  0  0  0  0  0  0  0  0  0
   -6.8068   -3.4624   -0.0000 N   0  0  0  0  0  0  0  0  0  0  0  0
   -9.1938   -4.6953   -0.0000 C   0  0  0  0  0  0  0  0  0  0  0  0
  -11.9480   -0.4590   -0.0000 O   0  0  0  0  0  0  0  0  0  0  0  0
  -13.2465   -2.7280   -0.0000 N   0  0  0  0  0  0  0  0  0  0  0  0
  -11.9480   -4.9838   -0.0000 N   0  0  0  0  0  0  0  0  0  0  0  0
   -6.0855   -2.1378   -0.0000 C   0  0  0  0  0  0  0  0  0  0  0  0
   -6.0724   -4.7477   -0.0000 C   0  0  0  0  0  0  0  0  0  0  0  0
  -13.2596   -4.2231   -0.0000 C   0  0  0  0  0  0  0  0  0  0  0  0
  -14.5580   -1.9673   -0.0000 C   0  0  0  0  0  0  0  0  0  0  0  0
  -11.9612   -6.4790   -0.0000 C   0  0  0  0  0  0  0  0  0  0  0  0
   -4.5904   -2.1247   -0.0000 C   0  0  0  0  0  0  0  0  0  0  0  0
   -4.5904   -4.7346   -0.0000 C   0  0  0  0  0  0  0  0  0  0  0  0
  -14.5711   -4.9576   -0.0000 O   0  0  0  0  0  0  0  0  0  0  0  0
   -3.1608   -1.6919   -0.0000 N   0  0  0  0  0  0  0  0  0  0  0  0
   -3.8428   -3.4100   -0.0000 C   0  0  0  0  0  0  0  0  0  0  0  0
   -4.6297   -0.6033   -0.0000 C   0  0  0  0  0  0  0  0  0  0  0  0
  2  3  1  0  0  0  0
  3  4  2  0  0  0  0
  3  5  1  0  0  0  0
  4  6  1  0  0  0  0
  5  7  2  0  0  0  0
  6  8  2  0  0  0  0
  6  9  1  0  0  0  0
  8 10  1  0  0  0  0
  9 11  1  0  0  0  0
 11 12  1  0  0  0  0
 11 13  1  0  0  0  0
 12 14  1  0  0  0  0
 12 15  2  0  0  0  0
 13 16  1  0  0  0  0
 13 17  2  0  0  0  0
 14 18  2  0  0  0  0
 14 19  1  0  0  0  0
 15 20  1  0  0  0  0
 16 21  1  0  0  0  0
 16 22  1  0  0  0  0
 19 23  1  0  0  0  0
 19 24  1  0  0  0  0
 20 25  1  0  0  0  0
 21 26  1  0  0  0  0
 22 27  1  0  0  0  0
 23 28  2  0  0  0  0
 26 29  1  1  0  0  0
 26 30  1  0  0  0  0
 26 31  1  0  0  0  0
  7  8  1  0  0  0  0
 15 17  1  0  0  0  0
 20 23  1  0  0  0  0
 27 30  1  0  0  0  0
M  END
>  <MolRegNo>
714655

>  <m>
=

>  <Value>
20200

>  <Unit>
nM

>  <Type>
IC50

>  <pValue>
4.7

>  <Ligand Efficiency>
0

>  <Binding Efficiency>
0

>  <Surface Efficiency>
0

>  <Assay Index>
532943

>  <Assay Category>


>  <Assay Organism>
Homo sapiens

>  <Target ID>
17045

>  <Target Name>
Cytochrome P450 3A4

>  <Target Organism>
Homo sapiens

>  <Target Description>
Target is a single protein chain

>  <Sequence Accession>
P08684

>  <Reference>
Bioorg Med Chem Lett 20 (24), 7246-7249 (2010)

>  <Pubmed ID>
21074430

>  <DOI>
10.1016/j.bmcl.2010.10.101

$$$$
714682
Actelion Java MolfileCreator 1.0

 33 35  0  0  0  0  0  0  0  0999 V2000
    0.0000   -0.0000   -0.0000 Cl  0  0  0  0  0  0  0  0  0  0  0  0
  -13.4077    1.6760   -0.0000 F   0  0  0  0  0  0  0  0  0  0  0  0
  -11.9151    1.6891   -0.0000 C   0  0  0  0  0  0  0  0  0  0  0  0
  -11.1688    0.4059   -0.0000 C   0  0  0  0  0  0  0  0  0  0  0  0
  -11.1818    3.0115   -0.0000 C   0  0  0  0  0  0  0  0  0  0  0  0
   -9.6761    0.4321   -0.0000 C   0  0  0  0  0  0  0  0  0  0  0  0
   -9.6892    3.0246   -0.0000 C   0  0  0  0  0  0  0  0  0  0  0  0
   -8.9298    1.7414   -0.0000 C   0  0  0  0  0  0  0  0  0  0  0  0
   -8.6810   -0.6678   -0.0000 C   0  0  0  0  0  0  0  0  0  0  0  0
   -7.4502    1.7414   -0.0000 C   0  0  0  0  0  0  0  0  0  0  0  0
   -9.1524   -2.0950   -0.0000 N   0  0  0  0  0  0  0  0  0  0  0  0
   -5.9575    1.7545   -0.0000 N   0  0  0  0  0  0  0  0  0  0  0  0
  -10.5926   -2.5532   -0.0000 C   0  0  0  0  0  0  0  0  0  0  0  0
   -8.2751   -3.2996   -0.0000 C   0  0  0  0  0  0  0  0  0  0  0  0
  -11.9020   -1.7807   -0.0000 C   0  0  0  0  0  0  0  0  0  0  0  0
  -10.5926   -4.0459   -0.0000 C   0  0  0  0  0  0  0  0  0  0  0  0
   -6.7824   -3.2734   -0.0000 N   0  0  0  0  0  0  0  0  0  0  0  0
   -9.1654   -4.5042   -0.0000 C   0  0  0  0  0  0  0  0  0  0  0  0
  -11.9151   -0.2619   -0.0000 O   0  0  0  0  0  0  0  0  0  0  0  0
  -13.2113   -2.5270   -0.0000 N   0  0  0  0  0  0  0  0  0  0  0  0
  -11.9151   -4.7791   -0.0000 N   0  0  0  0  0  0  0  0  0  0  0  0
   -6.0623   -1.9509   -0.0000 C   0  0  0  0  0  0  0  0  0  0  0  0
   -6.0361   -4.5565   -0.0000 C   0  0  0  0  0  0  0  0  0  0  0  0
  -13.2244   -4.0197   -0.0000 C   0  0  0  0  0  0  0  0  0  0  0  0
  -14.5338   -1.7676   -0.0000 C   0  0  0  0  0  0  0  0  0  0  0  0
  -11.9282   -6.2718   -0.0000 C   0  0  0  0  0  0  0  0  0  0  0  0
   -4.5696   -1.9378   -0.0000 C   0  0  0  0  0  0  0  0  0  0  0  0
   -4.5565   -4.5434   -0.0000 C   0  0  0  0  0  0  0  0  0  0  0  0
  -14.5338   -4.7660   -0.0000 O   0  0  0  0  0  0  0  0  0  0  0  0
  -13.2506   -7.0050   -0.0000 C   0  0  0  0  0  0  0  0  0  0  0  0
   -3.1424   -1.5058   -0.0000 N   0  0  0  0  0  0  0  0  0  0  0  0
   -3.8233   -3.2210   -0.0000 C   0  0  0  0  0  0  0  0  0  0  0  0
   -4.6089   -0.4059   -0.0000 C   0  0  0  0  0  0  0  0  0  0  0  0
  2  3  1  0  0  0  0
  3  4  2  0  0  0  0
  3  5  1  0  0  0  0
  4  6  1  0  0  0  0
  5  7  2  0  0  0  0
  6  8  2  0  0  0  0
  6  9  1  0  0  0  0
  8 10  1  0  0  0  0
  9 11  1  0  0  0  0
 10 12  3  0  0  0  0
 11 13  1  0  0  0  0
 11 14  1  0  0  0  0
 13 15  1  0  0  0  0
 13 16  2  0  0  0  0
 14 17  1  0  0  0  0
 14 18  2  0  0  0  0
 15 19  2  0  0  0  0
 15 20  1  0  0  0  0
 16 21  1  0  0  0  0
 17 22  1  0  0  0  0
 17 23  1  0  0  0  0
 20 24  1  0  0  0  0
 20 25  1  0  0  0  0
 21 26  1  0  0  0  0
 22 27  1  0  0  0  0
 23 28  1  0  0  0  0
 24 29  2  0  0  0  0
 26 30  1  0  0  0  0
 27 31  1  1  0  0  0
 27 32  1  0  0  0  0
 27 33  1  0  0  0  0
  7  8  1  0  0  0  0
 16 18  1  0  0  0  0
 21 24  1  0  0  0  0
 28 32  1  0  0  0  0
M  END
>  <MolRegNo>
714682

>  <m>
=

>  <Value>
9400

>  <Unit>
nM

>  <Type>
IC50

>  <pValue>
5.03

>  <Ligand Efficiency>
0

>  <Binding Efficiency>
0

>  <Surface Efficiency>
0

>  <Assay Index>
532943

>  <Assay Category>


>  <Assay Organism>
Homo sapiens

>  <Target ID>
17045

>  <Target Name>
Cytochrome P450 3A4

>  <Target Organism>
Homo sapiens

>  <Target Description>
Target is a single protein chain

>  <Sequence Accession>
P08684

>  <Reference>
Bioorg Med Chem Lett 20 (24), 7246-7249 (2010)

>  <Pubmed ID>
21074430

>  <DOI>
10.1016/j.bmcl.2010.10.101

$$$$
714683
Actelion Java MolfileCreator 1.0

 36 38  0  0  0  0  0  0  0  0999 V2000
    0.0000   -0.0000   -0.0000 Cl  0  0  0  0  0  0  0  0  0  0  0  0
   -1.5100    0.0119   -0.0000 C   0  0  0  0  0  0  0  0  0  0  0  0
   -2.2710   -1.2722   -0.0000 C   0  0  0  0  0  0  0  0  0  0  0  0
   -2.2710    1.3198   -0.0000 C   0  0  0  0  0  0  0  0  0  0  0  0
   -3.7810   -1.2722   -0.0000 C   0  0  0  0  0  0  0  0  0  0  0  0
   -1.2722   -2.3661   -0.0000 C   0  0  0  0  0  0  0  0  0  0  0  0
   -3.7810    1.3317   -0.0000 C   0  0  0  0  0  0  0  0  0  0  0  0
   -4.5420    0.0357   -0.0000 C   0  0  0  0  0  0  0  0  0  0  0  0
   -1.7359   -3.7810   -0.0000 N   0  0  0  0  0  0  0  0  0  0  0  0
   -6.0520    0.0476   -0.0000 F   0  0  0  0  0  0  0  0  0  0  0  0
   -3.1746   -4.2447   -0.0000 C   0  0  0  0  0  0  0  0  0  0  0  0
   -0.8561   -4.9819   -0.0000 C   0  0  0  0  0  0  0  0  0  0  0  0
   -4.4825   -3.4719   -0.0000 C   0  0  0  0  0  0  0  0  0  0  0  0
   -3.1746   -5.7310   -0.0000 C   0  0  0  0  0  0  0  0  0  0  0  0
    0.6302   -4.9581   -0.0000 N   0  0  0  0  0  0  0  0  0  0  0  0
   -1.7478   -6.1947   -0.0000 C   0  0  0  0  0  0  0  0  0  0  0  0
   -4.4944   -1.9618   -0.0000 O   0  0  0  0  0  0  0  0  0  0  0  0
   -5.7904   -4.2209   -0.0000 N   0  0  0  0  0  0  0  0  0  0  0  0
   -4.4944   -6.4563   -0.0000 N   0  0  0  0  0  0  0  0  0  0  0  0
    1.3555   -3.6383   -0.0000 C   0  0  0  0  0  0  0  0  0  0  0  0
    1.3673   -6.2422   -0.0000 C   0  0  0  0  0  0  0  0  0  0  0  0
   -5.8023   -5.7072   -0.0000 C   0  0  0  0  0  0  0  0  0  0  0  0
   -7.0983   -3.4600   -0.0000 C   0  0  0  0  0  0  0  0  0  0  0  0
   -4.5063   -7.9425   -0.0000 C   0  0  0  0  0  0  0  0  0  0  0  0
    2.8417   -3.6264   -0.0000 C   0  0  0  0  0  0  0  0  0  0  0  0
    2.8536   -6.2304   -0.0000 C   0  0  0  0  0  0  0  0  0  0  0  0
   -7.1102   -6.4444   -0.0000 O   0  0  0  0  0  0  0  0  0  0  0  0
   -5.8142   -8.6797   -0.0000 C   0  0  0  0  0  0  0  0  0  0  0  0
    4.2685   -3.1984   -0.0000 N   0  0  0  0  0  0  0  0  0  0  0  0
    3.5908   -4.9106   -0.0000 C   0  0  0  0  0  0  0  0  0  0  0  0
    2.8060   -2.1045   -0.0000 C   0  0  0  0  0  0  0  0  0  0  0  0
   -7.1221   -7.9187   -0.0000 O   0  0  0  0  0  0  0  0  0  0  0  0
   -5.8261  -10.1659   -0.0000 N   0  0  0  0  0  0  0  0  0  0  0  0
   -7.1340  -10.9031   -0.0000 C   0  0  0  0  0  0  0  0  0  0  0  0
   -4.5420  -10.9031   -0.0000 C   0  0  0  0  0  0  0  0  0  0  0  0
    7.4194   -2.7585   -0.0000 Cl  0  0  0  0  0  0  0  0  0  0  0  0
  1  2  1  0  0  0  0
  2  3  2  0  0  0  0
  2  4  1  0  0  0  0
  3  5  1  0  0  0  0
  3  6  1  0  0  0  0
  4  7  2  0  0  0  0
  5  8  2  0  0  0  0
  6  9  1  0  0  0  0
  8 10  1  0  0  0  0
  9 11  1  0  0  0  0
  9 12  1  0  0  0  0
 11 13  1  0  0  0  0
 11 14  2  0  0  0  0
 12 15  1  0  0  0  0
 12 16  2  0  0  0  0
 13 17  2  0  0  0  0
 13 18  1  0  0  0  0
 14 19  1  0  0  0  0
 15 20  1  0  0  0  0
 15 21  1  0  0  0  0
 18 22  1  0  0  0  0
 18 23  1  0  0  0  0
 19 24  1  0  0  0  0
 20 25  1  0  0  0  0
 21 26  1  0  0  0  0
 22 27  2  0  0  0  0
 24 28  1  0  0  0  0
 25 29  1  1  0  0  0
 25 30  1  0  0  0  0
 25 31  1  0  0  0  0
 28 32  2  0  0  0  0
 28 33  1  0  0  0  0
 33 34  1  0  0  0  0
 33 35  1  0  0  0  0
  7  8  1  0  0  0  0
 14 16  1  0  0  0  0
 19 22  1  0  0  0  0
 26 30  1  0  0  0  0
M  END
>  <MolRegNo>
714683

>  <m>
=

>  <Value>
13400

>  <Unit>
nM

>  <Type>
IC50

>  <pValue>
4.87

>  <Ligand Efficiency>
0

>  <Binding Efficiency>
0

>  <Surface Efficiency>
0

>  <Assay Index>
532943

>  <Assay Category>


>  <Assay Organism>
Homo sapiens

>  <Target ID>
17045

>  <Target Name>
Cytochrome P450 3A4

>  <Target Organism>
Homo sapiens

>  <Target Description>
Target is a single protein chain

>  <Sequence Accession>
P08684

>  <Reference>
Bioorg Med Chem Lett 20 (24), 7246-7249 (2010)

>  <Pubmed ID>
21074430

>  <DOI>
10.1016/j.bmcl.2010.10.101

$$$$
714234
Actelion Java MolfileCreator 1.0

 34 36  0  0  0  0  0  0  0  0999 V2000
    0.0000   -0.0000   -0.0000 Cl  0  0  0  0  0  0  0  0  0  0  0  0
   -1.5099    0.0119   -0.0000 C   0  0  0  0  0  0  0  0  0  0  0  0
   -2.2707   -1.2721   -0.0000 C   0  0  0  0  0  0  0  0  0  0  0  0
   -2.2707    1.3196   -0.0000 C   0  0  0  0  0  0  0  0  0  0  0  0
   -3.7806   -1.2721   -0.0000 C   0  0  0  0  0  0  0  0  0  0  0  0
   -1.2721   -2.3658   -0.0000 C   0  0  0  0  0  0  0  0  0  0  0  0
   -3.7806    1.3315   -0.0000 C   0  0  0  0  0  0  0  0  0  0  0  0
   -4.5415    0.0357   -0.0000 C   0  0  0  0  0  0  0  0  0  0  0  0
   -1.7357   -3.7806   -0.0000 N   0  0  0  0  0  0  0  0  0  0  0  0
   -6.0513    0.0476   -0.0000 F   0  0  0  0  0  0  0  0  0  0  0  0
   -3.1743   -4.2442   -0.0000 C   0  0  0  0  0  0  0  0  0  0  0  0
   -0.8560   -4.9813   -0.0000 C   0  0  0  0  0  0  0  0  0  0  0  0
   -4.4820   -3.4715   -0.0000 C   0  0  0  0  0  0  0  0  0  0  0  0
   -3.1743   -5.7303   -0.0000 C   0  0  0  0  0  0  0  0  0  0  0  0
    0.6301   -4.9576   -0.0000 N   0  0  0  0  0  0  0  0  0  0  0  0
   -1.7476   -6.1940   -0.0000 C   0  0  0  0  0  0  0  0  0  0  0  0
   -4.4939   -1.9616   -0.0000 O   0  0  0  0  0  0  0  0  0  0  0  0
   -5.7898   -4.2205   -0.0000 N   0  0  0  0  0  0  0  0  0  0  0  0
   -4.4939   -6.4555   -0.0000 N   0  0  0  0  0  0  0  0  0  0  0  0
    1.3553   -3.6379   -0.0000 C   0  0  0  0  0  0  0  0  0  0  0  0
    1.3672   -6.2415   -0.0000 C   0  0  0  0  0  0  0  0  0  0  0  0
   -5.8017   -5.7065   -0.0000 C   0  0  0  0  0  0  0  0  0  0  0  0
   -7.0975   -3.4596   -0.0000 C   0  0  0  0  0  0  0  0  0  0  0  0
   -4.5058   -7.9416   -0.0000 C   0  0  0  0  0  0  0  0  0  0  0  0
    2.8414   -3.6260   -0.0000 C   0  0  0  0  0  0  0  0  0  0  0  0
    2.8533   -6.2296   -0.0000 C   0  0  0  0  0  0  0  0  0  0  0  0
   -7.1094   -6.4436   -0.0000 O   0  0  0  0  0  0  0  0  0  0  0  0
   -5.8135   -8.6787   -0.0000 C   0  0  0  0  0  0  0  0  0  0  0  0
    4.2680   -3.1980   -0.0000 N   0  0  0  0  0  0  0  0  0  0  0  0
    3.5904   -4.9100   -0.0000 C   0  0  0  0  0  0  0  0  0  0  0  0
    2.8057   -2.1043   -0.0000 C   0  0  0  0  0  0  0  0  0  0  0  0
   -5.8254  -10.1648   -0.0000 C   0  0  0  0  0  0  0  0  0  0  0  0
   -7.1332  -10.9019   -0.0000 O   0  0  0  0  0  0  0  0  0  0  0  0
    7.7989   -2.6631   -0.0000 Cl  0  0  0  0  0  0  0  0  0  0  0  0
  1  2  1  0  0  0  0
  2  3  2  0  0  0  0
  2  4  1  0  0  0  0
  3  5  1  0  0  0  0
  3  6  1  0  0  0  0
  4  7  2  0  0  0  0
  5  8  2  0  0  0  0
  6  9  1  0  0  0  0
  8 10  1  0  0  0  0
  9 11  1  0  0  0  0
  9 12  1  0  0  0  0
 11 13  1  0  0  0  0
 11 14  2  0  0  0  0
 12 15  1  0  0  0  0
 12 16  2  0  0  0  0
 13 17  2  0  0  0  0
 13 18  1  0  0  0  0
 14 19  1  0  0  0  0
 15 20  1  0  0  0  0
 15 21  1  0  0  0  0
 18 22  1  0  0  0  0
 18 23  1  0  0  0  0
 19 24  1  0  0  0  0
 20 25  1  0  0  0  0
 21 26  1  0  0  0  0
 22 27  2  0  0  0  0
 24 28  1  0  0  0  0
 25 29  1  1  0  0  0
 25 30  1  0  0  0  0
 25 31  1  0  0  0  0
 28 32  1  0  0  0  0
 32 33  1  0  0  0  0
  7  8  1  0  0  0  0
 14 16  1  0  0  0  0
 19 22  1  0  0  0  0
 26 30  1  0  0  0  0
M  END
>  <MolRegNo>
714234

>  <m>
=

>  <Value>
7700

>  <Unit>
nM

>  <Type>
IC50

>  <pValue>
5.11

>  <Ligand Efficiency>
0

>  <Binding Efficiency>
0

>  <Surface Efficiency>
0

>  <Assay Index>
532943

>  <Assay Category>


>  <Assay Organism>
Homo sapiens

>  <Target ID>
17045

>  <Target Name>
Cytochrome P450 3A4

>  <Target Organism>
Homo sapiens

>  <Target Description>
Target is a single protein chain

>  <Sequence Accession>
P08684

>  <Reference>
Bioorg Med Chem Lett 20 (24), 7246-7249 (2010)

>  <Pubmed ID>
21074430

>  <DOI>
10.1016/j.bmcl.2010.10.101

$$$$
714291
Actelion Java MolfileCreator 1.0

 29 31  0  0  0  0  0  0  0  0999 V2000
    0.0000   -0.0000   -0.0000 Cl  0  0  0  0  0  0  0  0  0  0  0  0
  -13.8558    1.7320   -0.0000 F   0  0  0  0  0  0  0  0  0  0  0  0
  -12.3673    1.7455   -0.0000 C   0  0  0  0  0  0  0  0  0  0  0  0
  -11.6231    0.4601   -0.0000 C   0  0  0  0  0  0  0  0  0  0  0  0
  -11.6231    3.0715   -0.0000 C   0  0  0  0  0  0  0  0  0  0  0  0
  -10.1347    0.4871   -0.0000 C   0  0  0  0  0  0  0  0  0  0  0  0
  -10.1347    3.0851   -0.0000 C   0  0  0  0  0  0  0  0  0  0  0  0
   -9.3905    1.7996   -0.0000 C   0  0  0  0  0  0  0  0  0  0  0  0
   -9.1334   -0.6089   -0.0000 C   0  0  0  0  0  0  0  0  0  0  0  0
   -7.9021    1.8132   -0.0000 C   0  0  0  0  0  0  0  0  0  0  0  0
   -9.6070   -2.0297   -0.0000 N   0  0  0  0  0  0  0  0  0  0  0  0
  -11.0548   -2.4897   -0.0000 C   0  0  0  0  0  0  0  0  0  0  0  0
   -8.7275   -3.2339   -0.0000 C   0  0  0  0  0  0  0  0  0  0  0  0
  -12.3673   -1.7184   -0.0000 C   0  0  0  0  0  0  0  0  0  0  0  0
  -11.0548   -3.9781   -0.0000 C   0  0  0  0  0  0  0  0  0  0  0  0
   -7.2391   -3.2069   -0.0000 N   0  0  0  0  0  0  0  0  0  0  0  0
   -9.6206   -4.4382   -0.0000 C   0  0  0  0  0  0  0  0  0  0  0  0
  -12.3809   -0.2030   -0.0000 O   0  0  0  0  0  0  0  0  0  0  0  0
  -13.6799   -2.4626   -0.0000 N   0  0  0  0  0  0  0  0  0  0  0  0
  -12.3809   -4.7088   -0.0000 N   0  0  0  0  0  0  0  0  0  0  0  0
   -6.5219   -1.8808   -0.0000 C   0  0  0  0  0  0  0  0  0  0  0  0
   -6.4949   -4.4923   -0.0000 C   0  0  0  0  0  0  0  0  0  0  0  0
  -13.6934   -3.9511   -0.0000 C   0  0  0  0  0  0  0  0  0  0  0  0
  -14.9924   -1.7049   -0.0000 C   0  0  0  0  0  0  0  0  0  0  0  0
   -5.0335   -1.8673   -0.0000 C   0  0  0  0  0  0  0  0  0  0  0  0
   -5.0065   -4.4788   -0.0000 C   0  0  0  0  0  0  0  0  0  0  0  0
   -3.5993   -1.4343   -0.0000 N   0  0  0  0  0  0  0  0  0  0  0  0
   -4.2893   -3.1527   -0.0000 C   0  0  0  0  0  0  0  0  0  0  0  0
   -5.0741   -0.3383   -0.0000 C   0  0  0  0  0  0  0  0  0  0  0  0
  2  3  1  0  0  0  0
  3  4  2  0  0  0  0
  3  5  1  0  0  0  0
  4  6  1  0  0  0  0
  5  7  2  0  0  0  0
  6  8  2  0  0  0  0
  6  9  1  0  0  0  0
  8 10  1  0  0  0  0
  9 11  1  0  0  0  0
 11 12  1  0  0  0  0
 11 13  1  0  0  0  0
 12 14  1  0  0  0  0
 12 15  2  0  0  0  0
 13 16  1  0  0  0  0
 13 17  2  0  0  0  0
 14 18  2  0  0  0  0
 14 19  1  0  0  0  0
 15 20  1  0  0  0  0
 16 21  1  0  0  0  0
 16 22  1  0  0  0  0
 19 23  1  0  0  0  0
 19 24  1  0  0  0  0
 21 25  1  0  0  0  0
 22 26  1  0  0  0  0
 25 27  1  1  0  0  0
 25 28  1  0  0  0  0
 25 29  1  0  0  0  0
  7  8  1  0  0  0  0
 15 17  1  0  0  0  0
 20 23  2  0  0  0  0
 26 28  1  0  0  0  0
M  END
>  <MolRegNo>
714291

>  <m>
=

>  <Value>
11900

>  <Unit>
nM

>  <Type>
IC50

>  <pValue>
4.92

>  <Ligand Efficiency>
0

>  <Binding Efficiency>
0

>  <Surface Efficiency>
0

>  <Assay Index>
532943

>  <Assay Category>


>  <Assay Organism>
Homo sapiens

>  <Target ID>
17045

>  <Target Name>
Cytochrome P450 3A4

>  <Target Organism>
Homo sapiens

>  <Target Description>
Target is a single protein chain

>  <Sequence Accession>
P08684

>  <Reference>
Bioorg Med Chem Lett 20 (24), 7246-7249 (2010)

>  <Pubmed ID>
21074430

>  <DOI>
10.1016/j.bmcl.2010.10.101

$$$$
714236
Actelion Java MolfileCreator 1.0

 30 34  0  0  0  0  0  0  0  0999 V2000
    0.0000   -0.0000   -0.0000 O   0  0  0  0  0  0  0  0  0  0  0  0
    1.3012   -0.7401   -0.0000 C   0  0  0  0  0  0  0  0  0  0  0  0
    2.5786    0.0358   -0.0000 N   0  0  0  0  0  0  0  0  0  0  0  0
    1.3012   -2.2324   -0.0000 C   0  0  0  0  0  0  0  0  0  0  0  0
    2.5547    1.5519   -0.0000 C   0  0  0  0  0  0  0  0  0  0  0  0
    3.8679   -0.7043   -0.0000 C   0  0  0  0  0  0  0  0  0  0  0  0
   -0.1552   -2.6979   -0.0000 C   0  0  0  0  0  0  0  0  0  0  0  0
    2.1846   -3.4381   -0.0000 C   0  0  0  0  0  0  0  0  0  0  0  0
    3.8440    2.3040   -0.0000 C   0  0  0  0  0  0  0  0  0  0  0  0
    5.1571    0.0597   -0.0000 C   0  0  0  0  0  0  0  0  0  0  0  0
   -0.1552   -4.2021   -0.0000 C   0  0  0  0  0  0  0  0  0  0  0  0
   -1.4684   -1.9339   -0.0000 C   0  0  0  0  0  0  0  0  0  0  0  0
    1.2893   -4.6558   -0.0000 N   0  0  0  0  0  0  0  0  0  0  0  0
    5.1333    1.5758   -0.0000 N   0  0  0  0  0  0  0  0  0  0  0  0
    3.8201    3.8082   -0.0000 C   0  0  0  0  0  0  0  0  0  0  0  0
   -1.4803   -4.9423   -0.0000 C   0  0  0  0  0  0  0  0  0  0  0  0
   -2.7815   -2.6741   -0.0000 C   0  0  0  0  0  0  0  0  0  0  0  0
    1.7429   -6.0764   -0.0000 C   0  0  0  0  0  0  0  0  0  0  0  0
    6.4106    2.3279   -0.0000 C   0  0  0  0  0  0  0  0  0  0  0  0
    5.1094    4.5722   -0.0000 C   0  0  0  0  0  0  0  0  0  0  0  0
   -1.4922   -6.4345   -0.0000 O   0  0  0  0  0  0  0  0  0  0  0  0
   -2.7935   -4.1782   -0.0000 C   0  0  0  0  0  0  0  0  0  0  0  0
    3.2351   -6.0644   -0.0000 C   0  0  0  0  0  0  0  0  0  0  0  0
    6.3987    3.8320   -0.0000 C   0  0  0  0  0  0  0  0  0  0  0  0
   -2.8054   -7.1746   -0.0000 C   0  0  0  0  0  0  0  0  0  0  0  0
    3.9634   -7.3537   -0.0000 C   0  0  0  0  0  0  0  0  0  0  0  0
    3.9634   -4.7513   -0.0000 C   0  0  0  0  0  0  0  0  0  0  0  0
    5.4436   -7.3418   -0.0000 C   0  0  0  0  0  0  0  0  0  0  0  0
    5.4556   -4.7513   -0.0000 C   0  0  0  0  0  0  0  0  0  0  0  0
    6.1957   -6.0286   -0.0000 C   0  0  0  0  0  0  0  0  0  0  0  0
  1  2  2  0  0  0  0
  2  3  1  0  0  0  0
  2  4  1  0  0  0  0
  3  5  1  0  0  0  0
  3  6  1  0  0  0  0
  4  7  1  0  0  0  0
  4  8  2  0  0  0  0
  5  9  1  0  0  0  0
  6 10  1  0  0  0  0
  7 11  2  0  0  0  0
  7 12  1  0  0  0  0
  8 13  1  0  0  0  0
  9 14  1  6  0  0  0
  9 15  1  0  0  0  0
 11 16  1  0  0  0  0
 12 17  2  0  0  0  0
 13 18  1  0  0  0  0
 14 19  1  0  0  0  0
 15 20  1  0  0  0  0
 16 21  1  0  0  0  0
 16 22  2  0  0  0  0
 18 23  1  0  0  0  0
 19 24  1  0  0  0  0
 21 25  1  0  0  0  0
 23 26  1  0  0  0  0
 23 27  1  0  0  0  0
 26 28  1  0  0  0  0
 27 29  1  0  0  0  0
 28 30  1  0  0  0  0
 10 14  1  0  0  0  0
 11 13  1  0  0  0  0
 17 22  1  0  0  0  0
 20 24  1  0  0  0  0
 29 30  1  0  0  0  0
M  END
>  <MolRegNo>
714236

>  <m>
=

>  <Value>
6000

>  <Unit>
nM

>  <Type>
IC50

>  <pValue>
5.22

>  <Ligand Efficiency>
0

>  <Binding Efficiency>
0

>  <Surface Efficiency>
0

>  <Assay Index>
530713

>  <Assay Category>


>  <Assay Organism>
Homo sapiens

>  <Target ID>
17045

>  <Target Name>
Cytochrome P450 3A4

>  <Target Organism>
Homo sapiens

>  <Target Description>
Target is a single protein chain

>  <Sequence Accession>
P08684

>  <Reference>
Bioorg Med Chem Lett 20 (24), 7327-7330 (2010)

>  <Pubmed ID>
21074434

>  <DOI>
10.1016/j.bmcl.2010.10.061

$$$$
1054194
Actelion Java MolfileCreator 1.0

 31 35  0  0  0  0  0  0  0  0999 V2000
    0.0000   -0.0000   -0.0000 O   0  0  0  0  0  0  0  0  0  0  0  0
   -0.2517    1.1986   -0.0000 C   0  0  0  0  0  0  0  0  0  0  0  0
   -1.6301    1.8459   -0.0000 N   0  0  0  0  0  0  0  0  0  0  0  0
    0.7551    2.3373   -0.0000 N   0  0  0  0  0  0  0  0  0  0  0  0
   -2.9606    1.1027   -0.0000 C   0  0  0  0  0  0  0  0  0  0  0  0
   -1.4983    3.3561   -0.0000 C   0  0  0  0  0  0  0  0  0  0  0  0
   -0.0120    3.6677   -0.0000 C   0  0  0  0  0  0  0  0  0  0  0  0
   -2.9725   -0.4075   -0.0000 C   0  0  0  0  0  0  0  0  0  0  0  0
   -4.2910    1.8818   -0.0000 C   0  0  0  0  0  0  0  0  0  0  0  0
   -4.3030   -1.1507   -0.0000 C   0  0  0  0  0  0  0  0  0  0  0  0
   -5.6215    1.1387   -0.0000 C   0  0  0  0  0  0  0  0  0  0  0  0
   -5.6335   -0.3716   -0.0000 C   0  0  0  0  0  0  0  0  0  0  0  0
   -4.3270   -2.6609   -0.0000 C   0  0  0  0  0  0  0  0  0  0  0  0
   -5.6574   -3.4040   -0.0000 C   0  0  0  0  0  0  0  0  0  0  0  0
   -5.6814   -4.9143   -0.0000 N   0  0  0  0  0  0  0  0  0  0  0  0
   -7.0119   -5.6574   -0.0000 C   0  0  0  0  0  0  0  0  0  0  0  0
   -4.3749   -5.6694   -0.0000 C   0  0  0  0  0  0  0  0  0  0  0  0
   -7.0238   -7.1677   -0.0000 C   0  0  0  0  0  0  0  0  0  0  0  0
   -4.3869   -7.1797   -0.0000 C   0  0  0  0  0  0  0  0  0  0  0  0
   -5.7174   -7.9228   -0.0000 N   0  0  0  0  0  0  0  0  0  0  0  0
   -5.7293   -9.4330   -0.0000 C   0  0  0  0  0  0  0  0  0  0  0  0
   -4.4229  -10.1762   -0.0000 C   0  0  0  0  0  0  0  0  0  0  0  0
   -7.0718  -10.1762   -0.0000 C   0  0  0  0  0  0  0  0  0  0  0  0
   -4.4348  -11.6864   -0.0000 C   0  0  0  0  0  0  0  0  0  0  0  0
   -3.1164   -9.4091   -0.0000 C   0  0  0  0  0  0  0  0  0  0  0  0
   -7.0838  -11.6864   -0.0000 C   0  0  0  0  0  0  0  0  0  0  0  0
   -3.1284  -12.4296   -0.0000 N   0  0  0  0  0  0  0  0  0  0  0  0
   -5.7653  -12.4296   -0.0000 C   0  0  0  0  0  0  0  0  0  0  0  0
   -1.8099  -10.1522   -0.0000 C   0  0  0  0  0  0  0  0  0  0  0  0
   -1.8219  -11.6625   -0.0000 C   0  0  0  0  0  0  0  0  0  0  0  0
   -0.7791  -12.2618   -0.0000 C   0  0  0  0  0  0  0  0  0  0  0  0
  1  2  2  0  0  0  0
  2  3  1  0  0  0  0
  2  4  1  0  0  0  0
  3  5  1  0  0  0  0
  3  6  1  0  0  0  0
  4  7  1  0  0  0  0
  5  8  2  0  0  0  0
  5  9  1  0  0  0  0
  8 10  1  0  0  0  0
  9 11  2  0  0  0  0
 10 12  2  0  0  0  0
 10 13  1  0  0  0  0
 13 14  1  0  0  0  0
 14 15  1  0  0  0  0
 15 16  1  0  0  0  0
 15 17  1  0  0  0  0
 16 18  1  0  0  0  0
 17 19  1  0  0  0  0
 18 20  1  0  0  0  0
 20 21  1  0  0  0  0
 21 22  1  0  0  0  0
 21 23  2  0  0  0  0
 22 24  1  0  0  0  0
 22 25  2  0  0  0  0
 23 26  1  0  0  0  0
 24 27  2  0  0  0  0
 24 28  1  0  0  0  0
 25 29  1  0  0  0  0
 27 30  1  0  0  0  0
 30 31  1  0  0  0  0
  6  7  1  0  0  0  0
 11 12  1  0  0  0  0
 19 20  1  0  0  0  0
 26 28  2  0  0  0  0
 29 30  2  0  0  0  0
M  END
>  <MolRegNo>
1054194

>  <m>
=

>  <Value>
21000

>  <Unit>
nM

>  <Type>
IC50

>  <pValue>
4.68

>  <Ligand Efficiency>
0

>  <Binding Efficiency>
0

>  <Surface Efficiency>
0

>  <Assay Index>
534124

>  <Assay Category>


>  <Assay Organism>
Homo sapiens

>  <Target ID>
17045

>  <Target Name>
Cytochrome P450 3A4

>  <Target Organism>
Homo sapiens

>  <Target Description>
Target is a single protein chain

>  <Sequence Accession>
P08684

>  <Reference>
J Med Chem 53 (23), 8228-8240 (2010)

>  <Pubmed ID>
21053897

>  <DOI>
10.1021/jm100714c

$$$$
1054835
Actelion Java MolfileCreator 1.0

 29 32  0  0  0  0  0  0  0  0999 V2000
    0.0000   -0.0000   -0.0000 F   0  0  0  0  0  0  0  0  0  0  0  0
    0.0122   -1.4389   -0.0000 C   0  0  0  0  0  0  0  0  0  0  0  0
   -1.2438   -2.1705   -0.0000 F   0  0  0  0  0  0  0  0  0  0  0  0
   -1.2560   -0.6951   -0.0000 F   0  0  0  0  0  0  0  0  0  0  0  0
    1.2682   -2.1339   -0.0000 C   0  0  0  0  0  0  0  0  0  0  0  0
    1.2682   -3.5728   -0.0000 C   0  0  0  0  0  0  0  0  0  0  0  0
    2.4998   -1.3779   -0.0000 C   0  0  0  0  0  0  0  0  0  0  0  0
    2.5241   -4.2679   -0.0000 C   0  0  0  0  0  0  0  0  0  0  0  0
    0.0122   -4.3045   -0.0000 C   0  0  0  0  0  0  0  0  0  0  0  0
    3.7557   -2.0730   -0.0000 C   0  0  0  0  0  0  0  0  0  0  0  0
    3.7679   -3.5118   -0.0000 C   0  0  0  0  0  0  0  0  0  0  0  0
    4.9020   -1.0975   -0.0000 N   0  0  0  0  0  0  0  0  0  0  0  0
    5.0239   -4.4630   -0.0000 N   0  0  0  0  0  0  0  0  0  0  0  0
    6.3652   -1.3169   -0.0000 C   0  0  0  0  0  0  0  0  0  0  0  0
    6.4872   -4.0850   -0.0000 C   0  0  0  0  0  0  0  0  0  0  0  0
    7.1822   -0.1219   -0.0000 O   0  0  0  0  0  0  0  0  0  0  0  0
    7.1213   -2.6827   -0.0000 C   0  0  0  0  0  0  0  0  0  0  0  0
    7.2432   -5.4019   -0.0000 C   0  0  0  0  0  0  0  0  0  0  0  0
    8.7674   -5.3897   -0.0000 C   0  0  0  0  0  0  0  0  0  0  0  0
    6.4506   -6.7189   -0.0000 C   0  0  0  0  0  0  0  0  0  0  0  0
    9.5235   -6.7067   -0.0000 C   0  0  0  0  0  0  0  0  0  0  0  0
    7.2066   -8.0480   -0.0000 C   0  0  0  0  0  0  0  0  0  0  0  0
   11.0599   -6.6945   -0.0000 C   0  0  0  0  0  0  0  0  0  0  0  0
    8.7308   -8.0358   -0.0000 C   0  0  0  0  0  0  0  0  0  0  0  0
   11.8159   -8.0236   -0.0000 C   0  0  0  0  0  0  0  0  0  0  0  0
   11.8159   -5.3409   -0.0000 C   0  0  0  0  0  0  0  0  0  0  0  0
   13.3523   -8.0114   -0.0000 C   0  0  0  0  0  0  0  0  0  0  0  0
   13.3523   -5.3287   -0.0000 C   0  0  0  0  0  0  0  0  0  0  0  0
   14.1206   -6.6579   -0.0000 N   0  0  0  0  0  0  0  0  0  0  0  0
  1  2  1  0  0  0  0
  2  3  1  0  0  0  0
  2  4  1  0  0  0  0
  2  5  1  0  0  0  0
  5  6  2  0  0  0  0
  5  7  1  0  0  0  0
  6  8  1  0  0  0  0
  6  9  1  0  0  0  0
  7 10  2  0  0  0  0
  8 11  2  0  0  0  0
 10 12  1  0  0  0  0
 11 13  1  0  0  0  0
 12 14  1  0  0  0  0
 13 15  2  0  0  0  0
 14 16  2  0  0  0  0
 14 17  1  0  0  0  0
 15 18  1  0  0  0  0
 18 19  2  0  0  0  0
 18 20  1  0  0  0  0
 19 21  1  0  0  0  0
 20 22  2  0  0  0  0
 21 23  1  0  0  0  0
 21 24  2  0  0  0  0
 23 25  2  0  0  0  0
 23 26  1  0  0  0  0
 25 27  1  0  0  0  0
 26 28  2  0  0  0  0
 27 29  2  0  0  0  0
 10 11  1  0  0  0  0
 15 17  1  0  0  0  0
 22 24  1  0  0  0  0
 28 29  1  0  0  0  0
M  END
>  <MolRegNo>
1054835

>  <m>
=

>  <Value>
200

>  <Unit>
nM

>  <Type>
IC50

>  <pValue>
6.7

>  <Ligand Efficiency>
0

>  <Binding Efficiency>
0

>  <Surface Efficiency>
0

>  <Assay Index>
540598

>  <Assay Category>


>  <Assay Organism>


>  <Target ID>
17045

>  <Target Name>
Cytochrome P450 3A4

>  <Target Organism>
Homo sapiens

>  <Target Description>
Target is a single protein chain

>  <Sequence Accession>
P08684

>  <Reference>
Bioorg Med Chem Lett 20 (23), 6969-6974 (2010)

>  <Pubmed ID>
20971004

>  <DOI>
10.1016/j.bmcl.2010.09.125

$$$$
1054853
Actelion Java MolfileCreator 1.0

 29 32  0  0  0  0  0  0  0  0999 V2000
    0.0000   -0.0000   -0.0000 F   0  0  0  0  0  0  0  0  0  0  0  0
    0.0118   -1.4383   -0.0000 C   0  0  0  0  0  0  0  0  0  0  0  0
   -1.2496   -2.1692   -0.0000 F   0  0  0  0  0  0  0  0  0  0  0  0
   -1.2614   -0.6956   -0.0000 F   0  0  0  0  0  0  0  0  0  0  0  0
    1.2614   -2.1338   -0.0000 C   0  0  0  0  0  0  0  0  0  0  0  0
    1.2614   -3.5721   -0.0000 C   0  0  0  0  0  0  0  0  0  0  0  0
    2.4875   -1.3793   -0.0000 C   0  0  0  0  0  0  0  0  0  0  0  0
    2.5111   -4.2677   -0.0000 C   0  0  0  0  0  0  0  0  0  0  0  0
    0.0000   -4.3030   -0.0000 C   0  0  0  0  0  0  0  0  0  0  0  0
    3.7371   -2.0749   -0.0000 C   0  0  0  0  0  0  0  0  0  0  0  0
    3.7489   -3.5132   -0.0000 C   0  0  0  0  0  0  0  0  0  0  0  0
    4.8807   -1.0964   -0.0000 N   0  0  0  0  0  0  0  0  0  0  0  0
    4.9986   -4.4681   -0.0000 N   0  0  0  0  0  0  0  0  0  0  0  0
    6.3425   -1.3204   -0.0000 C   0  0  0  0  0  0  0  0  0  0  0  0
    6.4604   -4.0790   -0.0000 C   0  0  0  0  0  0  0  0  0  0  0  0
    7.1678   -0.1179   -0.0000 O   0  0  0  0  0  0  0  0  0  0  0  0
    7.0970   -2.6879   -0.0000 C   0  0  0  0  0  0  0  0  0  0  0  0
    7.5332   -5.1636   -0.0000 C   0  0  0  0  0  0  0  0  0  0  0  0
    9.0069   -4.7628   -0.0000 C   0  0  0  0  0  0  0  0  0  0  0  0
    7.1088   -6.6373   -0.0000 C   0  0  0  0  0  0  0  0  0  0  0  0
   10.0797   -5.8474   -0.0000 C   0  0  0  0  0  0  0  0  0  0  0  0
    8.1698   -7.7219   -0.0000 C   0  0  0  0  0  0  0  0  0  0  0  0
   11.5651   -5.4466   -0.0000 C   0  0  0  0  0  0  0  0  0  0  0  0
    9.6553   -7.3328   -0.0000 C   0  0  0  0  0  0  0  0  0  0  0  0
   12.6379   -6.5430   -0.0000 C   0  0  0  0  0  0  0  0  0  0  0  0
   11.9659   -3.9493   -0.0000 C   0  0  0  0  0  0  0  0  0  0  0  0
   14.1233   -6.1421   -0.0000 N   0  0  0  0  0  0  0  0  0  0  0  0
   13.4514   -3.5485   -0.0000 C   0  0  0  0  0  0  0  0  0  0  0  0
   14.5242   -4.6331   -0.0000 C   0  0  0  0  0  0  0  0  0  0  0  0
  1  2  1  0  0  0  0
  2  3  1  0  0  0  0
  2  4  1  0  0  0  0
  2  5  1  0  0  0  0
  5  6  2  0  0  0  0
  5  7  1  0  0  0  0
  6  8  1  0  0  0  0
  6  9  1  0  0  0  0
  7 10  2  0  0  0  0
  8 11  2  0  0  0  0
 10 12  1  0  0  0  0
 11 13  1  0  0  0  0
 12 14  1  0  0  0  0
 13 15  2  0  0  0  0
 14 16  2  0  0  0  0
 14 17  1  0  0  0  0
 15 18  1  0  0  0  0
 18 19  2  0  0  0  0
 18 20  1  0  0  0  0
 19 21  1  0  0  0  0
 20 22  2  0  0  0  0
 21 23  1  0  0  0  0
 21 24  2  0  0  0  0
 23 25  2  0  0  0  0
 23 26  1  0  0  0  0
 25 27  1  0  0  0  0
 26 28  2  0  0  0  0
 27 29  2  0  0  0  0
 10 11  1  0  0  0  0
 15 17  1  0  0  0  0
 22 24  1  0  0  0  0
 28 29  1  0  0  0  0
M  END
>  <MolRegNo>
1054853

>  <m>
=

>  <Value>
1800

>  <Unit>
nM

>  <Type>
IC50

>  <pValue>
5.75

>  <Ligand Efficiency>
0

>  <Binding Efficiency>
0

>  <Surface Efficiency>
0

>  <Assay Index>
540598

>  <Assay Category>


>  <Assay Organism>


>  <Target ID>
17045

>  <Target Name>
Cytochrome P450 3A4

>  <Target Organism>
Homo sapiens

>  <Target Description>
Target is a single protein chain

>  <Sequence Accession>
P08684

>  <Reference>
Bioorg Med Chem Lett 20 (23), 6969-6974 (2010)

>  <Pubmed ID>
20971004

>  <DOI>
10.1016/j.bmcl.2010.09.125

$$$$
1054836
Actelion Java MolfileCreator 1.0

 30 33  0  0  0  0  0  0  0  0999 V2000
    0.0000   -0.0000   -0.0000 F   0  0  0  0  0  0  0  0  0  0  0  0
    0.0122   -1.4383   -0.0000 C   0  0  0  0  0  0  0  0  0  0  0  0
   -1.2433   -2.1697   -0.0000 F   0  0  0  0  0  0  0  0  0  0  0  0
   -1.2555   -0.6948   -0.0000 F   0  0  0  0  0  0  0  0  0  0  0  0
    1.2677   -2.1331   -0.0000 C   0  0  0  0  0  0  0  0  0  0  0  0
    1.2677   -3.5715   -0.0000 C   0  0  0  0  0  0  0  0  0  0  0  0
    2.4988   -1.3774   -0.0000 C   0  0  0  0  0  0  0  0  0  0  0  0
    2.5232   -4.2663   -0.0000 C   0  0  0  0  0  0  0  0  0  0  0  0
    0.0122   -4.3028   -0.0000 C   0  0  0  0  0  0  0  0  0  0  0  0
    3.7543   -2.0722   -0.0000 C   0  0  0  0  0  0  0  0  0  0  0  0
    3.7665   -3.5105   -0.0000 C   0  0  0  0  0  0  0  0  0  0  0  0
    4.9001   -1.0970   -0.0000 N   0  0  0  0  0  0  0  0  0  0  0  0
    5.0220   -4.4613   -0.0000 N   0  0  0  0  0  0  0  0  0  0  0  0
    6.3628   -1.3165   -0.0000 C   0  0  0  0  0  0  0  0  0  0  0  0
    6.4847   -4.0834   -0.0000 C   0  0  0  0  0  0  0  0  0  0  0  0
    7.1795   -0.1219   -0.0000 O   0  0  0  0  0  0  0  0  0  0  0  0
    7.1186   -2.6817   -0.0000 C   0  0  0  0  0  0  0  0  0  0  0  0
    7.2405   -5.3999   -0.0000 C   0  0  0  0  0  0  0  0  0  0  0  0
    8.7642   -5.3877   -0.0000 C   0  0  0  0  0  0  0  0  0  0  0  0
    6.4482   -6.7163   -0.0000 C   0  0  0  0  0  0  0  0  0  0  0  0
    9.5199   -6.7041   -0.0000 C   0  0  0  0  0  0  0  0  0  0  0  0
    7.2039   -8.0450   -0.0000 C   0  0  0  0  0  0  0  0  0  0  0  0
   11.0557   -6.6920   -0.0000 C   0  0  0  0  0  0  0  0  0  0  0  0
    8.7276   -8.0328   -0.0000 C   0  0  0  0  0  0  0  0  0  0  0  0
   11.8115   -8.0206   -0.0000 C   0  0  0  0  0  0  0  0  0  0  0  0
   11.8115   -5.3389   -0.0000 C   0  0  0  0  0  0  0  0  0  0  0  0
   13.3473   -8.0084   -0.0000 C   0  0  0  0  0  0  0  0  0  0  0  0
   13.3473   -5.3268   -0.0000 C   0  0  0  0  0  0  0  0  0  0  0  0
   14.1153   -6.6554   -0.0000 N   0  0  0  0  0  0  0  0  0  0  0  0
   14.1031   -9.3249   -0.0000 C   0  0  0  0  0  0  0  0  0  0  0  0
  1  2  1  0  0  0  0
  2  3  1  0  0  0  0
  2  4  1  0  0  0  0
  2  5  1  0  0  0  0
  5  6  2  0  0  0  0
  5  7  1  0  0  0  0
  6  8  1  0  0  0  0
  6  9  1  0  0  0  0
  7 10  2  0  0  0  0
  8 11  2  0  0  0  0
 10 12  1  0  0  0  0
 11 13  1  0  0  0  0
 12 14  1  0  0  0  0
 13 15  2  0  0  0  0
 14 16  2  0  0  0  0
 14 17  1  0  0  0  0
 15 18  1  0  0  0  0
 18 19  2  0  0  0  0
 18 20  1  0  0  0  0
 19 21  1  0  0  0  0
 20 22  2  0  0  0  0
 21 23  1  0  0  0  0
 21 24  2  0  0  0  0
 23 25  2  0  0  0  0
 23 26  1  0  0  0  0
 25 27  1  0  0  0  0
 26 28  2  0  0  0  0
 27 29  2  0  0  0  0
 27 30  1  0  0  0  0
 10 11  1  0  0  0  0
 15 17  1  0  0  0  0
 22 24  1  0  0  0  0
 28 29  1  0  0  0  0
M  END
>  <MolRegNo>
1054836

>  <m>
=

>  <Value>
1900

>  <Unit>
nM

>  <Type>
IC50

>  <pValue>
5.72

>  <Ligand Efficiency>
0

>  <Binding Efficiency>
0

>  <Surface Efficiency>
0

>  <Assay Index>
540598

>  <Assay Category>


>  <Assay Organism>


>  <Target ID>
17045

>  <Target Name>
Cytochrome P450 3A4

>  <Target Organism>
Homo sapiens

>  <Target Description>
Target is a single protein chain

>  <Sequence Accession>
P08684

>  <Reference>
Bioorg Med Chem Lett 20 (23), 6969-6974 (2010)

>  <Pubmed ID>
20971004

>  <DOI>
10.1016/j.bmcl.2010.09.125

$$$$
1051710
Actelion Java MolfileCreator 1.0

 31 34  0  0  0  0  0  0  0  0999 V2000
    0.0000   -0.0000   -0.0000 F   0  0  0  0  0  0  0  0  0  0  0  0
   -0.0236   -1.4397   -0.0000 C   0  0  0  0  0  0  0  0  0  0  0  0
   -1.2981   -2.1360   -0.0000 F   0  0  0  0  0  0  0  0  0  0  0  0
   -1.2745   -0.6727   -0.0000 F   0  0  0  0  0  0  0  0  0  0  0  0
    1.2155   -2.1596   -0.0000 C   0  0  0  0  0  0  0  0  0  0  0  0
    1.1919   -3.5994   -0.0000 C   0  0  0  0  0  0  0  0  0  0  0  0
    2.4546   -1.4397   -0.0000 C   0  0  0  0  0  0  0  0  0  0  0  0
    2.4310   -4.3192   -0.0000 C   0  0  0  0  0  0  0  0  0  0  0  0
   -0.0826   -4.2956   -0.0000 C   0  0  0  0  0  0  0  0  0  0  0  0
    3.6938   -2.1596   -0.0000 C   0  0  0  0  0  0  0  0  0  0  0  0
    3.6820   -3.5994   -0.0000 C   0  0  0  0  0  0  0  0  0  0  0  0
    4.8503   -1.2155   -0.0000 N   0  0  0  0  0  0  0  0  0  0  0  0
    4.9093   -4.5789   -0.0000 N   0  0  0  0  0  0  0  0  0  0  0  0
    6.3018   -1.4633   -0.0000 C   0  0  0  0  0  0  0  0  0  0  0  0
    6.3844   -4.2248   -0.0000 C   0  0  0  0  0  0  0  0  0  0  0  0
    7.1515   -0.2832   -0.0000 O   0  0  0  0  0  0  0  0  0  0  0  0
    7.0217   -2.8441   -0.0000 C   0  0  0  0  0  0  0  0  0  0  0  0
    7.4465   -5.3105   -0.0000 C   0  0  0  0  0  0  0  0  0  0  0  0
    8.9217   -4.9211   -0.0000 C   0  0  0  0  0  0  0  0  0  0  0  0
    7.0217   -6.7857   -0.0000 C   0  0  0  0  0  0  0  0  0  0  0  0
    9.9838   -6.0068   -0.0000 C   0  0  0  0  0  0  0  0  0  0  0  0
    8.0838   -7.8714   -0.0000 C   0  0  0  0  0  0  0  0  0  0  0  0
   11.4589   -5.6056   -0.0000 C   0  0  0  0  0  0  0  0  0  0  0  0
    9.5589   -7.4819   -0.0000 C   0  0  0  0  0  0  0  0  0  0  0  0
   11.8602   -4.1068   -0.0000 C   0  0  0  0  0  0  0  0  0  0  0  0
   12.5328   -6.7031   -0.0000 C   0  0  0  0  0  0  0  0  0  0  0  0
   13.3353   -3.7056   -0.0000 C   0  0  0  0  0  0  0  0  0  0  0  0
   14.0198   -6.3018   -0.0000 C   0  0  0  0  0  0  0  0  0  0  0  0
   14.4210   -4.8031   -0.0000 N   0  0  0  0  0  0  0  0  0  0  0  0
   13.7366   -2.1950   -0.0000 C   0  0  0  0  0  0  0  0  0  0  0  0
   15.0937   -7.3875   -0.0000 C   0  0  0  0  0  0  0  0  0  0  0  0
  1  2  1  0  0  0  0
  2  3  1  0  0  0  0
  2  4  1  0  0  0  0
  2  5  1  0  0  0  0
  5  6  2  0  0  0  0
  5  7  1  0  0  0  0
  6  8  1  0  0  0  0
  6  9  1  0  0  0  0
  7 10  2  0  0  0  0
  8 11  2  0  0  0  0
 10 12  1  0  0  0  0
 11 13  1  0  0  0  0
 12 14  1  0  0  0  0
 13 15  2  0  0  0  0
 14 16  2  0  0  0  0
 14 17  1  0  0  0  0
 15 18  1  0  0  0  0
 18 19  2  0  0  0  0
 18 20  1  0  0  0  0
 19 21  1  0  0  0  0
 20 22  2  0  0  0  0
 21 23  1  0  0  0  0
 21 24  2  0  0  0  0
 23 25  2  0  0  0  0
 23 26  1  0  0  0  0
 25 27  1  0  0  0  0
 26 28  2  0  0  0  0
 27 29  2  0  0  0  0
 27 30  1  0  0  0  0
 28 31  1  0  0  0  0
 10 11  1  0  0  0  0
 15 17  1  0  0  0  0
 22 24  1  0  0  0  0
 28 29  1  0  0  0  0
M  END
>  <MolRegNo>
1051710

>  <m>
=

>  <Value>
4800

>  <Unit>
nM

>  <Type>
IC50

>  <pValue>
5.32

>  <Ligand Efficiency>
0

>  <Binding Efficiency>
0

>  <Surface Efficiency>
0

>  <Assay Index>
540598

>  <Assay Category>


>  <Assay Organism>


>  <Target ID>
17045

>  <Target Name>
Cytochrome P450 3A4

>  <Target Organism>
Homo sapiens

>  <Target Description>
Target is a single protein chain

>  <Sequence Accession>
P08684

>  <Reference>
Bioorg Med Chem Lett 20 (23), 6969-6974 (2010)

>  <Pubmed ID>
20971004

>  <DOI>
10.1016/j.bmcl.2010.09.125

$$$$
1058590
Actelion Java MolfileCreator 1.0

 21 24  0  0  1  0  0  0  0  0999 V2000
    0.0000   -0.0000   -0.0000 S   0  0  0  0  0  0  0  0  0  0  0  0
   -1.4512    0.4058   -0.0000 C   0  0  0  0  0  0  0  0  0  0  0  0
    0.7994    1.1683   -0.0000 C   0  0  0  0  0  0  0  0  0  0  0  0
   -2.8163   -0.3567   -0.0000 C   0  0  0  0  0  0  0  0  0  0  0  0
   -1.4635    1.9800   -0.0000 C   0  0  0  0  0  0  0  0  0  0  0  0
   -0.0246    2.3613   -0.0000 C   0  0  0  0  0  0  0  0  0  0  0  0
   -2.8286   -1.8201   -0.0000 O   0  0  0  0  0  0  0  0  0  0  0  0
   -4.1445    0.4304   -0.0000 C   0  0  0  0  0  0  0  0  0  0  0  0
   -2.8286    2.7671   -0.0000 N   0  0  0  0  0  0  0  0  0  0  0  0
   -5.4850   -0.3321   -0.0000 C   0  0  0  0  0  0  0  0  0  0  0  0
   -4.1568    1.9923   -0.0000 C   0  0  0  0  0  0  0  0  0  0  0  0
   -5.4973   -1.8324   -0.0000 O   0  0  0  0  0  0  0  0  0  0  0  0
   -6.8378    0.4304   -0.0000 N   0  0  0  0  0  0  0  0  0  0  0  0
   -8.2153   -0.3689   -0.0000 C   0  0  0  0  0  0  0  0  0  0  0  0
   -9.5435    0.4058   -0.0000 C   0  0  0  0  0  0  0  0  0  0  0  0
   -8.2275   -1.8939   -0.0000 C   0  0  0  0  0  0  0  0  0  0  0  0
  -10.9086   -0.3689   -0.0000 C   0  0  0  0  0  0  0  0  0  0  0  0
  -10.1092   -0.8240   -0.0000 C   0  0  0  0  0  0  0  0  0  0  0  0
   -9.5558   -2.6564   -0.0000 N   0  0  0  0  0  0  0  0  0  0  0  0
  -10.9209   -1.8693   -0.0000 C   0  0  0  0  0  0  0  0  0  0  0  0
   -9.0638   -1.4143   -0.0000 C   0  0  0  0  0  0  0  0  0  0  0  0
  1  2  1  0  0  0  0
  1  3  1  0  0  0  0
  2  4  1  0  0  0  0
  2  5  2  0  0  0  0
  3  6  2  0  0  0  0
  4  7  2  0  0  0  0
  4  8  1  0  0  0  0
  5  9  1  0  0  0  0
  8 10  1  0  0  0  0
  8 11  2  0  0  0  0
 10 12  2  0  0  0  0
 10 13  1  0  0  0  0
 14 13  1  1  0  0  0
 14 15  1  0  0  0  0
 14 16  1  0  0  0  0
 15 17  1  0  0  0  0
 15 18  1  0  0  0  0
 16 19  1  0  0  0  0
 17 20  1  0  0  0  0
 18 21  1  0  0  0  0
  5  6  1  0  0  0  0
  9 11  1  0  0  0  0
 19 20  1  0  0  0  0
 19 21  1  0  0  0  0
M  END
>  <MolRegNo>
1058590

>  <m>
=

>  <Value>
9300

>  <Unit>
nM

>  <Type>
IC50

>  <pValue>
5.03

>  <Ligand Efficiency>
0

>  <Binding Efficiency>
0

>  <Surface Efficiency>
0

>  <Assay Index>
545206

>  <Assay Category>


>  <Assay Organism>
Homo sapiens

>  <Target ID>
17045

>  <Target Name>
Cytochrome P450 3A4

>  <Target Organism>
Homo sapiens

>  <Target Description>
Target is a single protein chain

>  <Sequence Accession>
P08684

>  <Reference>
Bioorg Med Chem Lett 21 (1), 58-61 (2011)

>  <Pubmed ID>
21146988

>  <DOI>
10.1016/j.bmcl.2010.11.080

$$$$
1056655
Actelion Java MolfileCreator 1.0

 42 46  0  0  0  0  0  0  0  0999 V2000
    0.0000   -0.0000   -0.0000 Cl  0  0  0  0  0  0  0  0  0  0  0  0
   -1.3119   -0.7514   -0.0000 C   0  0  0  0  0  0  0  0  0  0  0  0
   -1.3238   -2.2541   -0.0000 C   0  0  0  0  0  0  0  0  0  0  0  0
   -2.6238    0.0119   -0.0000 C   0  0  0  0  0  0  0  0  0  0  0  0
   -2.6476   -2.9935   -0.0000 N   0  0  0  0  0  0  0  0  0  0  0  0
   -0.0358   -2.9935   -0.0000 N   0  0  0  0  0  0  0  0  0  0  0  0
   -3.9357   -0.7275   -0.0000 N   0  0  0  0  0  0  0  0  0  0  0  0
   -3.9595   -2.2302   -0.0000 C   0  0  0  0  0  0  0  0  0  0  0  0
    1.2523   -2.2302   -0.0000 C   0  0  0  0  0  0  0  0  0  0  0  0
   -5.2714   -2.9696   -0.0000 N   0  0  0  0  0  0  0  0  0  0  0  0
    2.5403   -2.9696   -0.0000 C   0  0  0  0  0  0  0  0  0  0  0  0
    1.2284   -0.7156   -0.0000 C   0  0  0  0  0  0  0  0  0  0  0  0
   -6.5833   -2.2064   -0.0000 C   0  0  0  0  0  0  0  0  0  0  0  0
    2.5284   -4.4604   -0.0000 O   0  0  0  0  0  0  0  0  0  0  0  0
    3.8283   -2.2064   -0.0000 C   0  0  0  0  0  0  0  0  0  0  0  0
    2.5164    0.0596   -0.0000 C   0  0  0  0  0  0  0  0  0  0  0  0
   -6.5833   -0.6917   -0.0000 C   0  0  0  0  0  0  0  0  0  0  0  0
   -7.8832   -2.9458   -0.0000 C   0  0  0  0  0  0  0  0  0  0  0  0
    1.2165   -5.1998   -0.0000 C   0  0  0  0  0  0  0  0  0  0  0  0
    3.8164   -0.6917   -0.0000 C   0  0  0  0  0  0  0  0  0  0  0  0
   -5.2953    0.0716   -0.0000 O   0  0  0  0  0  0  0  0  0  0  0  0
   -7.8952    0.0716   -0.0000 C   0  0  0  0  0  0  0  0  0  0  0  0
   -9.1951   -2.1825   -0.0000 C   0  0  0  0  0  0  0  0  0  0  0  0
    5.1044    0.0716   -0.0000 N   0  0  0  0  0  0  0  0  0  0  0  0
   -5.3072    1.5862   -0.0000 C   0  0  0  0  0  0  0  0  0  0  0  0
   -9.2071   -0.6679   -0.0000 C   0  0  0  0  0  0  0  0  0  0  0  0
  -10.3758   -3.0650   -0.0000 C   0  0  0  0  0  0  0  0  0  0  0  0
    6.3925   -0.6798   -0.0000 C   0  0  0  0  0  0  0  0  0  0  0  0
    5.0806    1.5743   -0.0000 C   0  0  0  0  0  0  0  0  0  0  0  0
  -10.3520    0.2147   -0.0000 C   0  0  0  0  0  0  0  0  0  0  0  0
  -11.7951   -2.6834   -0.0000 C   0  0  0  0  0  0  0  0  0  0  0  0
    7.6805    0.0835   -0.0000 C   0  0  0  0  0  0  0  0  0  0  0  0
    6.3805    2.3375   -0.0000 C   0  0  0  0  0  0  0  0  0  0  0  0
  -11.7712   -0.0477   -0.0000 C   0  0  0  0  0  0  0  0  0  0  0  0
  -12.4152   -1.2761   -0.0000 N   0  0  0  0  0  0  0  0  0  0  0  0
    7.6686    1.5981   -0.0000 O   0  0  0  0  0  0  0  0  0  0  0  0
  -13.9298   -1.2165   -0.0000 C   0  0  0  0  0  0  0  0  0  0  0  0
  -14.6454    0.1193   -0.0000 C   0  0  0  0  0  0  0  0  0  0  0  0
  -13.8583    1.4073   -0.0000 O   0  0  0  0  0  0  0  0  0  0  0  0
  -16.1601    0.1789   -0.0000 N   0  0  0  0  0  0  0  0  0  0  0  0
  -16.8756    1.5146   -0.0000 C   0  0  0  0  0  0  0  0  0  0  0  0
  -16.9710   -1.0853   -0.0000 C   0  0  0  0  0  0  0  0  0  0  0  0
  1  2  1  0  0  0  0
  2  3  2  0  0  0  0
  2  4  1  0  0  0  0
  3  5  1  0  0  0  0
  3  6  1  0  0  0  0
  4  7  2  0  0  0  0
  5  8  2  0  0  0  0
  6  9  1  0  0  0  0
  8 10  1  0  0  0  0
  9 11  2  0  0  0  0
  9 12  1  0  0  0  0
 10 13  1  0  0  0  0
 11 14  1  0  0  0  0
 11 15  1  0  0  0  0
 12 16  2  0  0  0  0
 13 17  2  0  0  0  0
 13 18  1  0  0  0  0
 14 19  1  0  0  0  0
 15 20  2  0  0  0  0
 17 21  1  0  0  0  0
 17 22  1  0  0  0  0
 18 23  2  0  0  0  0
 20 24  1  0  0  0  0
 21 25  1  0  0  0  0
 22 26  2  0  0  0  0
 23 27  1  0  0  0  0
 24 28  1  0  0  0  0
 24 29  1  0  0  0  0
 26 30  1  0  0  0  0
 27 31  1  0  0  0  0
 28 32  1  0  0  0  0
 29 33  1  0  0  0  0
 30 34  1  0  0  0  0
 31 35  1  0  0  0  0
 32 36  1  0  0  0  0
 35 37  1  0  0  0  0
 37 38  1  0  0  0  0
 38 39  2  0  0  0  0
 38 40  1  0  0  0  0
 40 41  1  0  0  0  0
 40 42  1  0  0  0  0
  7  8  1  0  0  0  0
 16 20  1  0  0  0  0
 23 26  1  0  0  0  0
 33 36  1  0  0  0  0
 34 35  1  0  0  0  0
M  END
>  <MolRegNo>
1056655

>  <m>
=

>  <Value>
2000

>  <Unit>
nM

>  <Type>
IC50

>  <pValue>
5.7

>  <Ligand Efficiency>
0

>  <Binding Efficiency>
0

>  <Surface Efficiency>
0

>  <Assay Index>
543364

>  <Assay Category>


>  <Assay Organism>


>  <Target ID>
17045

>  <Target Name>
Cytochrome P450 3A4

>  <Target Organism>
Homo sapiens

>  <Target Description>
Target is a single protein chain

>  <Sequence Accession>
P08684

>  <Reference>
Bioorg Med Chem Lett 21 (1), 463-466 (2011)

>  <Pubmed ID>
21074994

>  <DOI>
10.1016/j.bmcl.2010.10.115

$$$$
1058955
Actelion Java MolfileCreator 1.0

 39 42  0  0  0  0  0  0  0  0999 V2000
    0.0000   -0.0000   -0.0000 Cl  0  0  0  0  0  0  0  0  0  0  0  0
    1.2015   -0.8803   -0.0000 C   0  0  0  0  0  0  0  0  0  0  0  0
    1.0231   -2.3674   -0.0000 C   0  0  0  0  0  0  0  0  0  0  0  0
    2.5696   -0.2617   -0.0000 C   0  0  0  0  0  0  0  0  0  0  0  0
    2.2365   -3.2477   -0.0000 C   0  0  0  0  0  0  0  0  0  0  0  0
    3.7712   -1.1540   -0.0000 C   0  0  0  0  0  0  0  0  0  0  0  0
    2.0581   -4.7348   -0.0000 Cl  0  0  0  0  0  0  0  0  0  0  0  0
    3.6046   -2.6291   -0.0000 C   0  0  0  0  0  0  0  0  0  0  0  0
    5.1393   -0.5353   -0.0000 C   0  0  0  0  0  0  0  0  0  0  0  0
    5.4486    0.9517   -0.0000 N   0  0  0  0  0  0  0  0  0  0  0  0
    6.4360   -1.2848   -0.0000 C   0  0  0  0  0  0  0  0  0  0  0  0
    6.9356    1.1064   -0.0000 N   0  0  0  0  0  0  0  0  0  0  0  0
    7.5542   -0.2736   -0.0000 C   0  0  0  0  0  0  0  0  0  0  0  0
    7.6851    2.4269   -0.0000 C   0  0  0  0  0  0  0  0  0  0  0  0
    9.0056   -0.5829   -0.0000 C   0  0  0  0  0  0  0  0  0  0  0  0
    9.1841    2.4269   -0.0000 C   0  0  0  0  0  0  0  0  0  0  0  0
    9.4458   -2.0105   -0.0000 C   0  0  0  0  0  0  0  0  0  0  0  0
   10.0049    0.5472   -0.0000 C   0  0  0  0  0  0  0  0  0  0  0  0
    9.9335    3.7355   -0.0000 C   0  0  0  0  0  0  0  0  0  0  0  0
    9.9216    1.1302   -0.0000 C   0  0  0  0  0  0  0  0  0  0  0  0
   10.9090   -2.3198   -0.0000 C   0  0  0  0  0  0  0  0  0  0  0  0
   11.4682    0.2379   -0.0000 C   0  0  0  0  0  0  0  0  0  0  0  0
   11.4206    3.7474   -0.0000 C   0  0  0  0  0  0  0  0  0  0  0  0
   11.4206    1.1302   -0.0000 C   0  0  0  0  0  0  0  0  0  0  0  0
   11.9202   -1.1896   -0.0000 C   0  0  0  0  0  0  0  0  0  0  0  0
   12.1582    2.4626   -0.0000 C   0  0  0  0  0  0  0  0  0  0  0  0
   13.3835   -1.4990   -0.0000 O   0  0  0  0  0  0  0  0  0  0  0  0
   13.6571    2.4745   -0.0000 C   0  0  0  0  0  0  0  0  0  0  0  0
   13.8356   -2.9265   -0.0000 C   0  0  0  0  0  0  0  0  0  0  0  0
   14.4066    3.7950   -0.0000 O   0  0  0  0  0  0  0  0  0  0  0  0
   14.3947    1.1777   -0.0000 N   0  0  0  0  0  0  0  0  0  0  0  0
   15.2988   -3.2358   -0.0000 F   0  0  0  0  0  0  0  0  0  0  0  0
   12.8125   -4.0329   -0.0000 F   0  0  0  0  0  0  0  0  0  0  0  0
   14.2162   -4.3660   -0.0000 F   0  0  0  0  0  0  0  0  0  0  0  0
   15.8936    1.1896   -0.0000 C   0  0  0  0  0  0  0  0  0  0  0  0
   16.6312   -0.1071   -0.0000 C   0  0  0  0  0  0  0  0  0  0  0  0
   18.1302   -0.0952   -0.0000 C   0  0  0  0  0  0  0  0  0  0  0  0
   18.8796    1.2253   -0.0000 O   0  0  0  0  0  0  0  0  0  0  0  0
   18.8796   -1.3919   -0.0000 O   0  0  0  0  0  0  0  0  0  0  0  0
  1  2  1  0  0  0  0
  2  3  2  0  0  0  0
  2  4  1  0  0  0  0
  3  5  1  0  0  0  0
  4  6  2  0  0  0  0
  5  7  1  0  0  0  0
  5  8  2  0  0  0  0
  6  9  1  0  0  0  0
  9 10  2  0  0  0  0
  9 11  1  0  0  0  0
 10 12  1  0  0  0  0
 11 13  2  0  0  0  0
 12 14  1  0  0  0  0
 13 15  1  0  0  0  0
 14 16  1  0  0  0  0
 15 17  2  0  0  0  0
 15 18  1  0  0  0  0
 16 19  2  0  0  0  0
 16 20  1  0  0  0  0
 17 21  1  0  0  0  0
 18 22  2  0  0  0  0
 19 23  1  0  0  0  0
 20 24  2  0  0  0  0
 21 25  2  0  0  0  0
 23 26  2  0  0  0  0
 25 27  1  0  0  0  0
 26 28  1  0  0  0  0
 27 29  1  0  0  0  0
 28 30  2  0  0  0  0
 28 31  1  0  0  0  0
 29 32  1  0  0  0  0
 29 33  1  0  0  0  0
 29 34  1  0  0  0  0
 31 35  1  0  0  0  0
 35 36  1  0  0  0  0
 36 37  1  0  0  0  0
 37 38  2  0  0  0  0
 37 39  1  0  0  0  0
  6  8  1  0  0  0  0
 12 13  1  0  0  0  0
 22 25  1  0  0  0  0
 24 26  1  0  0  0  0
M  END
>  <MolRegNo>
1058955

>  <m>
=

>  <Value>
39000

>  <Unit>
nM

>  <Type>
IC50

>  <pValue>
4.41

>  <Ligand Efficiency>
0

>  <Binding Efficiency>
0

>  <Surface Efficiency>
0

>  <Assay Index>
545537

>  <Assay Category>


>  <Assay Organism>


>  <Target ID>
17045

>  <Target Name>
Cytochrome P450 3A4

>  <Target Organism>
Homo sapiens

>  <Target Description>
Target is a single protein chain

>  <Sequence Accession>
P08684

>  <Reference>
Bioorg Med Chem Lett 21 (1), 76-81 (2011)

>  <Pubmed ID>
21147532

>  <DOI>
10.1016/j.bmcl.2010.11.074

$$$$
53616
Actelion Java MolfileCreator 1.0

 20 22  0  0  1  0  0  0  0  0999 V2000
    0.0000   -0.0000   -0.0000 Cl  0  0  0  0  0  0  0  0  0  0  0  0
   -1.2480    0.7591   -0.0000 C   0  0  0  0  0  0  0  0  0  0  0  0
   -2.5733    0.0257   -0.0000 C   0  0  0  0  0  0  0  0  0  0  0  0
   -1.2609    2.2387   -0.0000 C   0  0  0  0  0  0  0  0  0  0  0  0
   -2.5861   -1.5440   -0.0000 Cl  0  0  0  0  0  0  0  0  0  0  0  0
   -3.7827    0.8363   -0.0000 C   0  0  0  0  0  0  0  0  0  0  0  0
   -2.5604    3.0107   -0.0000 C   0  0  0  0  0  0  0  0  0  0  0  0
   -3.7956    2.3031   -0.0000 C   0  0  0  0  0  0  0  0  0  0  0  0
   -2.5733    4.4775   -0.0000 C   0  0  0  0  0  0  0  0  0  0  0  0
   -3.8728    5.2237   -0.0000 C   0  0  0  0  0  0  0  0  0  0  0  0
   -1.2738    5.2237   -0.0000 C   0  0  0  0  0  0  0  0  0  0  0  0
   -3.8856    6.7162   -0.0000 C   0  0  0  0  0  0  0  0  0  0  0  0
   -5.1980    4.5032   -0.0000 C   0  0  0  0  0  0  0  0  0  0  0  0
   -1.2866    6.7162   -0.0000 C   0  0  0  0  0  0  0  0  0  0  0  0
   -5.2108    7.4625   -0.0000 C   0  0  0  0  0  0  0  0  0  0  0  0
   -2.6119    7.4625   -0.0000 C   0  0  0  0  0  0  0  0  0  0  0  0
   -6.4975    5.2494   -0.0000 C   0  0  0  0  0  0  0  0  0  0  0  0
   -6.5103    6.7419   -0.0000 C   0  0  0  0  0  0  0  0  0  0  0  0
   -2.6247    9.1093   -0.0000 N   0  0  0  0  0  0  0  0  0  0  0  0
   -1.3252    9.8942   -0.0000 C   0  0  0  0  0  0  0  0  0  0  0  0
  1  2  1  0  0  0  0
  2  3  2  0  0  0  0
  2  4  1  0  0  0  0
  3  5  1  0  0  0  0
  3  6  1  0  0  0  0
  4  7  2  0  0  0  0
  6  8  2  0  0  0  0
  9  7  1  1  0  0  0
  9 10  1  0  0  0  0
  9 11  1  0  0  0  0
 10 12  2  0  0  0  0
 10 13  1  0  0  0  0
 11 14  1  0  0  0  0
 12 15  1  0  0  0  0
 12 16  1  0  0  0  0
 13 17  2  0  0  0  0
 15 18  2  0  0  0  0
 16 19  1  1  0  0  0
 19 20  1  0  0  0  0
  7  8  1  0  0  0  0
 14 16  1  0  0  0  0
 17 18  1  0  0  0  0
M  END
>  <MolRegNo>
53616

>  <m>
=

>  <Value>
800

>  <Unit>
nM

>  <Type>
IC50

>  <pValue>
6.1

>  <Ligand Efficiency>
0

>  <Binding Efficiency>
0

>  <Surface Efficiency>
0

>  <Assay Index>
543695

>  <Assay Category>


>  <Assay Organism>


>  <Target ID>
17045

>  <Target Name>
Cytochrome P450 3A4

>  <Target Organism>
Homo sapiens

>  <Target Description>
Target is a single protein chain

>  <Sequence Accession>
P08684

>  <Reference>
Bioorg Med Chem 19 (1), 663-676 (2011)

>  <Pubmed ID>
21093273

>  <DOI>
10.1016/j.bmc.2010.10.034

$$$$
1057379
Actelion Java MolfileCreator 1.0

 20 22  0  0  0  0  0  0  0  0999 V2000
    0.0000   -0.0000   -0.0000 Cl  0  0  0  0  0  0  0  0  0  0  0  0
   -1.3024    0.7459   -0.0000 C   0  0  0  0  0  0  0  0  0  0  0  0
   -2.6047   -0.0000   -0.0000 C   0  0  0  0  0  0  0  0  0  0  0  0
   -1.3260    2.2377   -0.0000 C   0  0  0  0  0  0  0  0  0  0  0  0
   -2.6047   -1.4800   -0.0000 Cl  0  0  0  0  0  0  0  0  0  0  0  0
   -3.9071    0.7577   -0.0000 C   0  0  0  0  0  0  0  0  0  0  0  0
   -2.6284    2.9836   -0.0000 C   0  0  0  0  0  0  0  0  0  0  0  0
   -3.9189    2.2614   -0.0000 C   0  0  0  0  0  0  0  0  0  0  0  0
   -2.6402    4.4872   -0.0000 C   0  0  0  0  0  0  0  0  0  0  0  0
   -3.9544    5.2449   -0.0000 C   0  0  0  0  0  0  0  0  0  0  0  0
   -1.3497    5.2568   -0.0000 C   0  0  0  0  0  0  0  0  0  0  0  0
   -3.9781    6.7604   -0.0000 C   0  0  0  0  0  0  0  0  0  0  0  0
   -5.2568    4.5109   -0.0000 C   0  0  0  0  0  0  0  0  0  0  0  0
   -1.3734    6.7723   -0.0000 C   0  0  0  0  0  0  0  0  0  0  0  0
   -5.2805    7.5063   -0.0000 C   0  0  0  0  0  0  0  0  0  0  0  0
   -2.6994    7.5300   -0.0000 C   0  0  0  0  0  0  0  0  0  0  0  0
   -6.5591    5.2686   -0.0000 C   0  0  0  0  0  0  0  0  0  0  0  0
   -0.0947    7.5300   -0.0000 N   0  0  0  0  0  0  0  0  0  0  0  0
   -6.5828    6.7723   -0.0000 C   0  0  0  0  0  0  0  0  0  0  0  0
    1.1840    6.7959   -0.0000 C   0  0  0  0  0  0  0  0  0  0  0  0
  1  2  1  0  0  0  0
  2  3  2  0  0  0  0
  2  4  1  0  0  0  0
  3  5  1  0  0  0  0
  3  6  1  0  0  0  0
  4  7  2  0  0  0  0
  6  8  2  0  0  0  0
  9  7  1  1  0  0  0
  9 10  1  0  0  0  0
  9 11  1  0  0  0  0
 10 12  2  0  0  0  0
 10 13  1  0  0  0  0
 11 14  1  0  0  0  0
 12 15  1  0  0  0  0
 12 16  1  0  0  0  0
 13 17  2  0  0  0  0
 14 18  1  1  0  0  0
 15 19  2  0  0  0  0
 18 20  1  0  0  0  0
  7  8  1  0  0  0  0
 14 16  1  0  0  0  0
 17 19  1  0  0  0  0
M  END
>  <MolRegNo>
1057379

>  <m>
=

>  <Value>
17100

>  <Unit>
nM

>  <Type>
IC50

>  <pValue>
4.77

>  <Ligand Efficiency>
0

>  <Binding Efficiency>
0

>  <Surface Efficiency>
0

>  <Assay Index>
543695

>  <Assay Category>


>  <Assay Organism>


>  <Target ID>
17045

>  <Target Name>
Cytochrome P450 3A4

>  <Target Organism>
Homo sapiens

>  <Target Description>
Target is a single protein chain

>  <Sequence Accession>
P08684

>  <Reference>
Bioorg Med Chem 19 (1), 663-676 (2011)

>  <Pubmed ID>
21093273

>  <DOI>
10.1016/j.bmc.2010.10.034

$$$$
1057388
Actelion Java MolfileCreator 1.0

 21 23  0  0  0  0  0  0  0  0999 V2000
    0.0000   -0.0000   -0.0000 Cl  0  0  0  0  0  0  0  0  0  0  0  0
   -1.3070    0.7536   -0.0000 C   0  0  0  0  0  0  0  0  0  0  0  0
   -2.6140    0.0118   -0.0000 C   0  0  0  0  0  0  0  0  0  0  0  0
   -1.3188    2.2607   -0.0000 C   0  0  0  0  0  0  0  0  0  0  0  0
   -2.6258   -1.4718   -0.0000 Cl  0  0  0  0  0  0  0  0  0  0  0  0
   -3.9210    0.7771   -0.0000 C   0  0  0  0  0  0  0  0  0  0  0  0
   -2.6258    3.0143   -0.0000 C   0  0  0  0  0  0  0  0  0  0  0  0
   -3.9327    2.2843   -0.0000 C   0  0  0  0  0  0  0  0  0  0  0  0
   -2.6375    4.5215   -0.0000 C   0  0  0  0  0  0  0  0  0  0  0  0
   -3.9445    5.2751   -0.0000 C   0  0  0  0  0  0  0  0  0  0  0  0
   -1.3541    5.2751   -0.0000 C   0  0  0  0  0  0  0  0  0  0  0  0
   -3.9563    6.7822   -0.0000 C   0  0  0  0  0  0  0  0  0  0  0  0
   -5.2397    4.5450   -0.0000 C   0  0  0  0  0  0  0  0  0  0  0  0
   -1.3659    6.7822   -0.0000 C   0  0  0  0  0  0  0  0  0  0  0  0
   -5.2515    7.5358   -0.0000 C   0  0  0  0  0  0  0  0  0  0  0  0
   -2.6846    7.5476   -0.0000 C   0  0  0  0  0  0  0  0  0  0  0  0
   -6.5349    5.2986   -0.0000 C   0  0  0  0  0  0  0  0  0  0  0  0
   -0.0824    7.5358   -0.0000 C   0  0  0  0  0  0  0  0  0  0  0  0
   -6.5585    6.8058   -0.0000 C   0  0  0  0  0  0  0  0  0  0  0  0
    1.2010    6.7940   -0.0000 N   0  0  0  0  0  0  0  0  0  0  0  0
    1.1892    5.3104   -0.0000 C   0  0  0  0  0  0  0  0  0  0  0  0
  1  2  1  0  0  0  0
  2  3  2  0  0  0  0
  2  4  1  0  0  0  0
  3  5  1  0  0  0  0
  3  6  1  0  0  0  0
  4  7  2  0  0  0  0
  6  8  2  0  0  0  0
  9  7  1  1  0  0  0
  9 10  1  0  0  0  0
  9 11  1  0  0  0  0
 10 12  2  0  0  0  0
 10 13  1  0  0  0  0
 11 14  1  0  0  0  0
 12 15  1  0  0  0  0
 12 16  1  0  0  0  0
 13 17  2  0  0  0  0
 14 18  1  6  0  0  0
 15 19  2  0  0  0  0
 18 20  1  0  0  0  0
 20 21  1  0  0  0  0
  7  8  1  0  0  0  0
 14 16  1  0  0  0  0
 17 19  1  0  0  0  0
M  END
>  <MolRegNo>
1057388

>  <m>
=

>  <Value>
20100

>  <Unit>
nM

>  <Type>
IC50

>  <pValue>
4.7

>  <Ligand Efficiency>
0

>  <Binding Efficiency>
0

>  <Surface Efficiency>
0

>  <Assay Index>
543695

>  <Assay Category>


>  <Assay Organism>


>  <Target ID>
17045

>  <Target Name>
Cytochrome P450 3A4

>  <Target Organism>
Homo sapiens

>  <Target Description>
Target is a single protein chain

>  <Sequence Accession>
P08684

>  <Reference>
Bioorg Med Chem 19 (1), 663-676 (2011)

>  <Pubmed ID>
21093273

>  <DOI>
10.1016/j.bmc.2010.10.034

$$$$
1056822
Actelion Java MolfileCreator 1.0

 28 31  0  0  0  0  0  0  0  0999 V2000
    0.0000   -0.0000   -0.0000 S   0  0  0  0  0  0  0  0  0  0  0  0
    0.3677   -1.4235   -0.0000 O   0  0  0  0  0  0  0  0  0  0  0  0
    1.4353    0.4033   -0.0000 O   0  0  0  0  0  0  0  0  0  0  0  0
   -0.0119    1.5065   -0.0000 N   0  0  0  0  0  0  0  0  0  0  0  0
   -1.3048   -0.7355   -0.0000 C   0  0  0  0  0  0  0  0  0  0  0  0
   -1.2455    2.3962   -0.0000 C   0  0  0  0  0  0  0  0  0  0  0  0
    1.1744    2.4080   -0.0000 C   0  0  0  0  0  0  0  0  0  0  0  0
   -2.6097    0.0237   -0.0000 C   0  0  0  0  0  0  0  0  0  0  0  0
   -1.3167   -2.2301   -0.0000 C   0  0  0  0  0  0  0  0  0  0  0  0
   -0.7948    3.8315   -0.0000 C   0  0  0  0  0  0  0  0  0  0  0  0
   -2.7046    2.0878   -0.0000 C   0  0  0  0  0  0  0  0  0  0  0  0
    0.6999    3.8434   -0.0000 C   0  0  0  0  0  0  0  0  0  0  0  0
   -3.9145   -0.7117   -0.0000 C   0  0  0  0  0  0  0  0  0  0  0  0
   -2.6334   -2.9656   -0.0000 C   0  0  0  0  0  0  0  0  0  0  0  0
   -1.8031    4.9466   -0.0000 C   0  0  0  0  0  0  0  0  0  0  0  0
   -3.7247    3.1909   -0.0000 C   0  0  0  0  0  0  0  0  0  0  0  0
    1.5658    5.0652   -0.0000 N   0  0  0  0  0  0  0  0  0  0  0  0
   -3.9264   -2.2064   -0.0000 C   0  0  0  0  0  0  0  0  0  0  0  0
   -3.2740    4.6381   -0.0000 C   0  0  0  0  0  0  0  0  0  0  0  0
    3.0486    4.9228   -0.0000 C   0  0  0  0  0  0  0  0  0  0  0  0
    0.9371    6.4412   -0.0000 C   0  0  0  0  0  0  0  0  0  0  0  0
   -5.2313   -2.9418   -0.0000 C   0  0  0  0  0  0  0  0  0  0  0  0
    3.9145    6.1447   -0.0000 C   0  0  0  0  0  0  0  0  0  0  0  0
    1.8031    7.6630   -0.0000 C   0  0  0  0  0  0  0  0  0  0  0  0
   -6.5361   -2.1827   -0.0000 C   0  0  0  0  0  0  0  0  0  0  0  0
   -5.2431   -4.4246   -0.0000 C   0  0  0  0  0  0  0  0  0  0  0  0
    3.2977    7.5207   -0.0000 N   0  0  0  0  0  0  0  0  0  0  0  0
    4.1637    8.7425   -0.0000 C   0  0  0  0  0  0  0  0  0  0  0  0
  1  2  2  0  0  0  0
  1  3  2  0  0  0  0
  1  4  1  0  0  0  0
  1  5  1  0  0  0  0
  4  6  1  0  0  0  0
  4  7  1  0  0  0  0
  5  8  2  0  0  0  0
  5  9  1  0  0  0  0
  6 10  2  0  0  0  0
  6 11  1  0  0  0  0
  7 12  2  0  0  0  0
  8 13  1  0  0  0  0
  9 14  2  0  0  0  0
 10 15  1  0  0  0  0
 11 16  2  0  0  0  0
 12 17  1  0  0  0  0
 13 18  2  0  0  0  0
 15 19  2  0  0  0  0
 17 20  1  0  0  0  0
 17 21  1  0  0  0  0
 18 22  1  0  0  0  0
 20 23  1  0  0  0  0
 21 24  1  0  0  0  0
 22 25  1  0  0  0  0
 22 26  1  0  0  0  0
 23 27  1  0  0  0  0
 27 28  1  0  0  0  0
 10 12  1  0  0  0  0
 14 18  1  0  0  0  0
 16 19  1  0  0  0  0
 24 27  1  0  0  0  0
M  END
>  <MolRegNo>
1056822

>  <m>
=

>  <Value>
5540

>  <Unit>
nM

>  <Type>
IC50

>  <pValue>
5.26

>  <Ligand Efficiency>
0

>  <Binding Efficiency>
0

>  <Surface Efficiency>
0

>  <Assay Index>
543974

>  <Assay Category>


>  <Assay Organism>
Homo sapiens

>  <Target ID>
17045

>  <Target Name>
Cytochrome P450 3A4

>  <Target Organism>
Homo sapiens

>  <Target Description>
Target is a single protein chain

>  <Sequence Accession>
P08684

>  <Reference>
Bioorg Med Chem Lett 21 (1), 346-349 (2011)

>  <Pubmed ID>
21134749

>  <DOI>
10.1016/j.bmcl.2010.11.001

$$$$
1056823
Actelion Java MolfileCreator 1.0

 26 29  0  0  0  0  0  0  0  0999 V2000
    0.0000   -0.0000   -0.0000 S   0  0  0  0  0  0  0  0  0  0  0  0
    0.3677   -1.4232   -0.0000 O   0  0  0  0  0  0  0  0  0  0  0  0
    1.4351    0.4032   -0.0000 O   0  0  0  0  0  0  0  0  0  0  0  0
   -0.0119    1.5062   -0.0000 N   0  0  0  0  0  0  0  0  0  0  0  0
   -1.3046   -0.7353   -0.0000 C   0  0  0  0  0  0  0  0  0  0  0  0
   -1.2453    2.3958   -0.0000 C   0  0  0  0  0  0  0  0  0  0  0  0
    1.1742    2.4076   -0.0000 C   0  0  0  0  0  0  0  0  0  0  0  0
   -2.6092    0.0237   -0.0000 C   0  0  0  0  0  0  0  0  0  0  0  0
   -1.3165   -2.2297   -0.0000 C   0  0  0  0  0  0  0  0  0  0  0  0
   -0.7946    3.8308   -0.0000 C   0  0  0  0  0  0  0  0  0  0  0  0
   -2.7041    2.0874   -0.0000 C   0  0  0  0  0  0  0  0  0  0  0  0
    0.6998    3.8427   -0.0000 C   0  0  0  0  0  0  0  0  0  0  0  0
   -3.9139   -0.7116   -0.0000 C   0  0  0  0  0  0  0  0  0  0  0  0
   -2.6330   -2.9651   -0.0000 C   0  0  0  0  0  0  0  0  0  0  0  0
   -1.8028    4.9457   -0.0000 C   0  0  0  0  0  0  0  0  0  0  0  0
   -3.7241    3.1904   -0.0000 C   0  0  0  0  0  0  0  0  0  0  0  0
    1.5655    5.0643   -0.0000 N   0  0  0  0  0  0  0  0  0  0  0  0
   -3.9257   -2.2060   -0.0000 C   0  0  0  0  0  0  0  0  0  0  0  0
   -3.2734    4.6373   -0.0000 C   0  0  0  0  0  0  0  0  0  0  0  0
    3.0481    4.9220   -0.0000 C   0  0  0  0  0  0  0  0  0  0  0  0
    0.9370    6.4401   -0.0000 C   0  0  0  0  0  0  0  0  0  0  0  0
   -5.2303   -2.9413   -0.0000 F   0  0  0  0  0  0  0  0  0  0  0  0
    3.9139    6.1436   -0.0000 C   0  0  0  0  0  0  0  0  0  0  0  0
    1.8028    7.6617   -0.0000 C   0  0  0  0  0  0  0  0  0  0  0  0
    3.2971    7.5194   -0.0000 N   0  0  0  0  0  0  0  0  0  0  0  0
    4.1629    8.7410   -0.0000 C   0  0  0  0  0  0  0  0  0  0  0  0
  1  2  2  0  0  0  0
  1  3  2  0  0  0  0
  1  4  1  0  0  0  0
  1  5  1  0  0  0  0
  4  6  1  0  0  0  0
  4  7  1  0  0  0  0
  5  8  2  0  0  0  0
  5  9  1  0  0  0  0
  6 10  2  0  0  0  0
  6 11  1  0  0  0  0
  7 12  2  0  0  0  0
  8 13  1  0  0  0  0
  9 14  2  0  0  0  0
 10 15  1  0  0  0  0
 11 16  2  0  0  0  0
 12 17  1  0  0  0  0
 13 18  2  0  0  0  0
 15 19  2  0  0  0  0
 17 20  1  0  0  0  0
 17 21  1  0  0  0  0
 18 22  1  0  0  0  0
 20 23  1  0  0  0  0
 21 24  1  0  0  0  0
 23 25  1  0  0  0  0
 25 26  1  0  0  0  0
 10 12  1  0  0  0  0
 14 18  1  0  0  0  0
 16 19  1  0  0  0  0
 24 25  1  0  0  0  0
M  END
>  <MolRegNo>
1056823

>  <m>
=

>  <Value>
4770

>  <Unit>
nM

>  <Type>
IC50

>  <pValue>
5.32

>  <Ligand Efficiency>
0

>  <Binding Efficiency>
0

>  <Surface Efficiency>
0

>  <Assay Index>
543974

>  <Assay Category>


>  <Assay Organism>
Homo sapiens

>  <Target ID>
17045

>  <Target Name>
Cytochrome P450 3A4

>  <Target Organism>
Homo sapiens

>  <Target Description>
Target is a single protein chain

>  <Sequence Accession>
P08684

>  <Reference>
Bioorg Med Chem Lett 21 (1), 346-349 (2011)

>  <Pubmed ID>
21134749

>  <DOI>
10.1016/j.bmcl.2010.11.001

$$$$
1056829
Actelion Java MolfileCreator 1.0

 27 30  0  0  0  0  0  0  0  0999 V2000
    0.0000   -0.0000   -0.0000 Br  0  0  0  0  0  0  0  0  0  0  0  0
    1.0025   -1.0980   -0.0000 C   0  0  0  0  0  0  0  0  0  0  0  0
    2.4586   -0.7638   -0.0000 C   0  0  0  0  0  0  0  0  0  0  0  0
    0.5371   -2.5182   -0.0000 C   0  0  0  0  0  0  0  0  0  0  0  0
    3.4492   -1.8618   -0.0000 C   0  0  0  0  0  0  0  0  0  0  0  0
    1.5396   -3.6043   -0.0000 C   0  0  0  0  0  0  0  0  0  0  0  0
    2.9718   -3.2821   -0.0000 C   0  0  0  0  0  0  0  0  0  0  0  0
    4.9410   -1.8380   -0.0000 C   0  0  0  0  0  0  0  0  0  0  0  0
    4.1891   -4.1533   -0.0000 N   0  0  0  0  0  0  0  0  0  0  0  0
    5.8123   -0.6087   -0.0000 N   0  0  0  0  0  0  0  0  0  0  0  0
    5.3945   -3.2582   -0.0000 C   0  0  0  0  0  0  0  0  0  0  0  0
    4.1772   -5.6452   -0.0000 S   0  0  0  0  0  0  0  0  0  0  0  0
    7.3041   -0.7519   -0.0000 C   0  0  0  0  0  0  0  0  0  0  0  0
    5.1797    0.7758   -0.0000 C   0  0  0  0  0  0  0  0  0  0  0  0
    4.5472   -7.0774   -0.0000 O   0  0  0  0  0  0  0  0  0  0  0  0
    5.6213   -5.2394   -0.0000 O   0  0  0  0  0  0  0  0  0  0  0  0
    2.8644   -6.3851   -0.0000 C   0  0  0  0  0  0  0  0  0  0  0  0
    8.1754    0.4774   -0.0000 C   0  0  0  0  0  0  0  0  0  0  0  0
    6.0510    2.0051   -0.0000 C   0  0  0  0  0  0  0  0  0  0  0  0
    1.5515   -5.6213   -0.0000 C   0  0  0  0  0  0  0  0  0  0  0  0
    2.8524   -7.8889   -0.0000 C   0  0  0  0  0  0  0  0  0  0  0  0
    7.5547    1.8618   -0.0000 N   0  0  0  0  0  0  0  0  0  0  0  0
    0.2387   -6.3613   -0.0000 C   0  0  0  0  0  0  0  0  0  0  0  0
    1.5277   -8.6289   -0.0000 C   0  0  0  0  0  0  0  0  0  0  0  0
    8.4260    3.0911   -0.0000 C   0  0  0  0  0  0  0  0  0  0  0  0
    0.2268   -7.8651   -0.0000 C   0  0  0  0  0  0  0  0  0  0  0  0
   -1.0861   -8.6050   -0.0000 F   0  0  0  0  0  0  0  0  0  0  0  0
  1  2  1  0  0  0  0
  2  3  2  0  0  0  0
  2  4  1  0  0  0  0
  3  5  1  0  0  0  0
  4  6  2  0  0  0  0
  5  7  2  0  0  0  0
  5  8  1  0  0  0  0
  7  9  1  0  0  0  0
  8 10  1  0  0  0  0
  8 11  2  0  0  0  0
  9 12  1  0  0  0  0
 10 13  1  0  0  0  0
 10 14  1  0  0  0  0
 12 15  2  0  0  0  0
 12 16  2  0  0  0  0
 12 17  1  0  0  0  0
 13 18  1  0  0  0  0
 14 19  1  0  0  0  0
 17 20  2  0  0  0  0
 17 21  1  0  0  0  0
 18 22  1  0  0  0  0
 20 23  1  0  0  0  0
 21 24  2  0  0  0  0
 22 25  1  0  0  0  0
 23 26  2  0  0  0  0
 26 27  1  0  0  0  0
  6  7  1  0  0  0  0
  9 11  1  0  0  0  0
 19 22  1  0  0  0  0
 24 26  1  0  0  0  0
M  END
>  <MolRegNo>
1056829

>  <m>
=

>  <Value>
4610

>  <Unit>
nM

>  <Type>
IC50

>  <pValue>
5.34

>  <Ligand Efficiency>
0

>  <Binding Efficiency>
0

>  <Surface Efficiency>
0

>  <Assay Index>
543974

>  <Assay Category>


>  <Assay Organism>
Homo sapiens

>  <Target ID>
17045

>  <Target Name>
Cytochrome P450 3A4

>  <Target Organism>
Homo sapiens

>  <Target Description>
Target is a single protein chain

>  <Sequence Accession>
P08684

>  <Reference>
Bioorg Med Chem Lett 21 (1), 346-349 (2011)

>  <Pubmed ID>
21134749

>  <DOI>
10.1016/j.bmcl.2010.11.001

$$$$
1063958
Actelion Java MolfileCreator 1.0

 33 36  0  0  0  0  0  0  0  0999 V2000
    0.0000   -0.0000   -0.0000 F   0  0  0  0  0  0  0  0  0  0  0  0
    0.7353    1.3165   -0.0000 C   0  0  0  0  0  0  0  0  0  0  0  0
    1.4707    2.6330   -0.0000 F   0  0  0  0  0  0  0  0  0  0  0  0
   -0.5811    2.0755   -0.0000 F   0  0  0  0  0  0  0  0  0  0  0  0
    2.0281    0.5811   -0.0000 C   0  0  0  0  0  0  0  0  0  0  0  0
    3.3209    1.3402   -0.0000 C   0  0  0  0  0  0  0  0  0  0  0  0
    2.0162   -0.9132   -0.0000 C   0  0  0  0  0  0  0  0  0  0  0  0
    4.6136    0.6049   -0.0000 N   0  0  0  0  0  0  0  0  0  0  0  0
    3.3090   -1.6486   -0.0000 C   0  0  0  0  0  0  0  0  0  0  0  0
    4.6018   -0.8895   -0.0000 C   0  0  0  0  0  0  0  0  0  0  0  0
    5.8945   -1.6248   -0.0000 O   0  0  0  0  0  0  0  0  0  0  0  0
    7.1873   -0.8658   -0.0000 C   0  0  0  0  0  0  0  0  0  0  0  0
    8.4800   -1.6011   -0.0000 C   0  0  0  0  0  0  0  0  0  0  0  0
    7.1754    0.6523   -0.0000 C   0  0  0  0  0  0  0  0  0  0  0  0
    9.7728   -0.8421   -0.0000 C   0  0  0  0  0  0  0  0  0  0  0  0
    8.4682    1.4114   -0.0000 C   0  0  0  0  0  0  0  0  0  0  0  0
    9.7609    0.6760   -0.0000 C   0  0  0  0  0  0  0  0  0  0  0  0
   11.0656   -1.5774   -0.0000 C   0  0  0  0  0  0  0  0  0  0  0  0
   12.3583   -0.8184   -0.0000 C   0  0  0  0  0  0  0  0  0  0  0  0
   13.6511   -1.5537   -0.0000 C   0  0  0  0  0  0  0  0  0  0  0  0
   12.3465    0.6998   -0.0000 C   0  0  0  0  0  0  0  0  0  0  0  0
   14.9438   -0.7946   -0.0000 C   0  0  0  0  0  0  0  0  0  0  0  0
   13.6392    1.4588   -0.0000 C   0  0  0  0  0  0  0  0  0  0  0  0
   14.9320    0.7235   -0.0000 N   0  0  0  0  0  0  0  0  0  0  0  0
   16.2247    1.4825   -0.0000 C   0  0  0  0  0  0  0  0  0  0  0  0
   16.2129    3.0006   -0.0000 O   0  0  0  0  0  0  0  0  0  0  0  0
   17.5175    0.7472   -0.0000 N   0  0  0  0  0  0  0  0  0  0  0  0
   18.8103    1.5062   -0.0000 C   0  0  0  0  0  0  0  0  0  0  0  0
   20.1030    0.7709   -0.0000 N   0  0  0  0  0  0  0  0  0  0  0  0
   18.7984    3.0243   -0.0000 C   0  0  0  0  0  0  0  0  0  0  0  0
   21.3958    1.5300   -0.0000 N   0  0  0  0  0  0  0  0  0  0  0  0
   20.0912    3.7953   -0.0000 C   0  0  0  0  0  0  0  0  0  0  0  0
   21.3839    3.0481   -0.0000 C   0  0  0  0  0  0  0  0  0  0  0  0
  1  2  1  0  0  0  0
  2  3  1  0  0  0  0
  2  4  1  0  0  0  0
  2  5  1  0  0  0  0
  5  6  2  0  0  0  0
  5  7  1  0  0  0  0
  6  8  1  0  0  0  0
  7  9  2  0  0  0  0
  8 10  2  0  0  0  0
 10 11  1  0  0  0  0
 11 12  1  0  0  0  0
 12 13  2  0  0  0  0
 12 14  1  0  0  0  0
 13 15  1  0  0  0  0
 14 16  2  0  0  0  0
 15 17  2  0  0  0  0
 15 18  1  0  0  0  0
 18 19  2  0  0  0  0
 19 20  1  0  0  0  0
 19 21  1  0  0  0  0
 20 22  1  0  0  0  0
 21 23  1  0  0  0  0
 22 24  1  0  0  0  0
 24 25  1  0  0  0  0
 25 26  2  0  0  0  0
 25 27  1  0  0  0  0
 27 28  1  0  0  0  0
 28 29  2  0  0  0  0
 28 30  1  0  0  0  0
 29 31  1  0  0  0  0
 30 32  2  0  0  0  0
 31 33  2  0  0  0  0
  9 10  1  0  0  0  0
 16 17  1  0  0  0  0
 23 24  1  0  0  0  0
 32 33  1  0  0  0  0
M  END
>  <MolRegNo>
1063958

>  <m>
=

>  <Value>
30000

>  <Unit>
nM

>  <Type>
IC50

>  <pValue>
4.52

>  <Ligand Efficiency>
0

>  <Binding Efficiency>
0

>  <Surface Efficiency>
0

>  <Assay Index>
546126

>  <Assay Category>


>  <Assay Organism>


>  <Target ID>
17045

>  <Target Name>
Cytochrome P450 3A4

>  <Target Organism>
Homo sapiens

>  <Target Description>
Target is a single protein chain

>  <Sequence Accession>
P08684

>  <Reference>
ACS Med Chem Lett 2 (2), 91-96 (2011)

>  <Pubmed ID>
21666860

>  <DOI>
10.1021/ml100190t

$$$$
1063957
Actelion Java MolfileCreator 1.0

 33 36  0  0  0  0  0  0  0  0999 V2000
    0.0000   -0.0000   -0.0000 F   0  0  0  0  0  0  0  0  0  0  0  0
   -0.0119   -1.4979   -0.0000 C   0  0  0  0  0  0  0  0  0  0  0  0
   -1.3314   -2.2349   -0.0000 F   0  0  0  0  0  0  0  0  0  0  0  0
   -1.3314   -0.7370   -0.0000 F   0  0  0  0  0  0  0  0  0  0  0  0
    1.2839   -2.2349   -0.0000 C   0  0  0  0  0  0  0  0  0  0  0  0
    1.2720   -3.7327   -0.0000 C   0  0  0  0  0  0  0  0  0  0  0  0
    2.5677   -1.4741   -0.0000 C   0  0  0  0  0  0  0  0  0  0  0  0
    2.5677   -4.4698   -0.0000 N   0  0  0  0  0  0  0  0  0  0  0  0
    3.8635   -2.2111   -0.0000 C   0  0  0  0  0  0  0  0  0  0  0  0
    3.8635   -3.7090   -0.0000 C   0  0  0  0  0  0  0  0  0  0  0  0
    5.1593   -4.4460   -0.0000 O   0  0  0  0  0  0  0  0  0  0  0  0
    6.4550   -3.6852   -0.0000 C   0  0  0  0  0  0  0  0  0  0  0  0
    7.7389   -4.4222   -0.0000 C   0  0  0  0  0  0  0  0  0  0  0  0
    6.4313   -2.1755   -0.0000 C   0  0  0  0  0  0  0  0  0  0  0  0
    9.0228   -3.6614   -0.0000 C   0  0  0  0  0  0  0  0  0  0  0  0
    7.7151   -1.4027   -0.0000 C   0  0  0  0  0  0  0  0  0  0  0  0
    9.0109   -2.1398   -0.0000 C   0  0  0  0  0  0  0  0  0  0  0  0
   10.3185   -4.3985   -0.0000 C   0  0  0  0  0  0  0  0  0  0  0  0
   11.6143   -3.6376   -0.0000 C   0  0  0  0  0  0  0  0  0  0  0  0
   12.9101   -4.3866   -0.0000 C   0  0  0  0  0  0  0  0  0  0  0  0
   11.6024   -2.1279   -0.0000 C   0  0  0  0  0  0  0  0  0  0  0  0
   14.1939   -3.6258   -0.0000 C   0  0  0  0  0  0  0  0  0  0  0  0
   12.8982   -1.3671   -0.0000 C   0  0  0  0  0  0  0  0  0  0  0  0
   14.1939   -2.1041   -0.0000 N   0  0  0  0  0  0  0  0  0  0  0  0
   15.4897   -1.3433   -0.0000 C   0  0  0  0  0  0  0  0  0  0  0  0
   15.4778    0.1783   -0.0000 O   0  0  0  0  0  0  0  0  0  0  0  0
   16.7736   -2.0922   -0.0000 N   0  0  0  0  0  0  0  0  0  0  0  0
   18.0693   -1.3314   -0.0000 C   0  0  0  0  0  0  0  0  0  0  0  0
   18.0574    0.1783   -0.0000 N   0  0  0  0  0  0  0  0  0  0  0  0
   19.3532   -2.0803   -0.0000 C   0  0  0  0  0  0  0  0  0  0  0  0
   19.3413    0.9391   -0.0000 C   0  0  0  0  0  0  0  0  0  0  0  0
   20.6490   -1.3195   -0.0000 N   0  0  0  0  0  0  0  0  0  0  0  0
   20.6371    0.1902   -0.0000 C   0  0  0  0  0  0  0  0  0  0  0  0
  1  2  1  0  0  0  0
  2  3  1  0  0  0  0
  2  4  1  0  0  0  0
  2  5  1  0  0  0  0
  5  6  2  0  0  0  0
  5  7  1  0  0  0  0
  6  8  1  0  0  0  0
  7  9  2  0  0  0  0
  8 10  2  0  0  0  0
 10 11  1  0  0  0  0
 11 12  1  0  0  0  0
 12 13  2  0  0  0  0
 12 14  1  0  0  0  0
 13 15  1  0  0  0  0
 14 16  2  0  0  0  0
 15 17  2  0  0  0  0
 15 18  1  0  0  0  0
 18 19  2  0  0  0  0
 19 20  1  0  0  0  0
 19 21  1  0  0  0  0
 20 22  1  0  0  0  0
 21 23  1  0  0  0  0
 22 24  1  0  0  0  0
 24 25  1  0  0  0  0
 25 26  2  0  0  0  0
 25 27  1  0  0  0  0
 27 28  1  0  0  0  0
 28 29  2  0  0  0  0
 28 30  1  0  0  0  0
 29 31  1  0  0  0  0
 30 32  2  0  0  0  0
 31 33  2  0  0  0  0
  9 10  1  0  0  0  0
 16 17  1  0  0  0  0
 23 24  1  0  0  0  0
 32 33  1  0  0  0  0
M  END
>  <MolRegNo>
1063957

>  <m>
=

>  <Value>
23500

>  <Unit>
nM

>  <Type>
IC50

>  <pValue>
4.63

>  <Ligand Efficiency>
0

>  <Binding Efficiency>
0

>  <Surface Efficiency>
0

>  <Assay Index>
546126

>  <Assay Category>


>  <Assay Organism>


>  <Target ID>
17045

>  <Target Name>
Cytochrome P450 3A4

>  <Target Organism>
Homo sapiens

>  <Target Description>
Target is a single protein chain

>  <Sequence Accession>
P08684

>  <Reference>
ACS Med Chem Lett 2 (2), 91-96 (2011)

>  <Pubmed ID>
21666860

>  <DOI>
10.1021/ml100190t

$$$$
1063956
Actelion Java MolfileCreator 1.0

 34 37  0  0  0  0  0  0  0  0999 V2000
    0.0000   -0.0000   -0.0000 F   0  0  0  0  0  0  0  0  0  0  0  0
   -0.0119   -1.4973   -0.0000 C   0  0  0  0  0  0  0  0  0  0  0  0
   -1.3310   -2.2341   -0.0000 F   0  0  0  0  0  0  0  0  0  0  0  0
   -1.3310   -0.7368   -0.0000 F   0  0  0  0  0  0  0  0  0  0  0  0
    1.2834   -2.2341   -0.0000 C   0  0  0  0  0  0  0  0  0  0  0  0
    1.2716   -3.7315   -0.0000 C   0  0  0  0  0  0  0  0  0  0  0  0
    2.5669   -1.4736   -0.0000 C   0  0  0  0  0  0  0  0  0  0  0  0
    2.5669   -4.4683   -0.0000 N   0  0  0  0  0  0  0  0  0  0  0  0
    3.8622   -2.2104   -0.0000 C   0  0  0  0  0  0  0  0  0  0  0  0
    3.8622   -3.7077   -0.0000 C   0  0  0  0  0  0  0  0  0  0  0  0
    5.1575   -4.4445   -0.0000 O   0  0  0  0  0  0  0  0  0  0  0  0
    6.4528   -3.6839   -0.0000 C   0  0  0  0  0  0  0  0  0  0  0  0
    7.7363   -4.4207   -0.0000 C   0  0  0  0  0  0  0  0  0  0  0  0
    6.4291   -2.1747   -0.0000 C   0  0  0  0  0  0  0  0  0  0  0  0
    9.0197   -3.6602   -0.0000 C   0  0  0  0  0  0  0  0  0  0  0  0
    7.7125   -1.4023   -0.0000 C   0  0  0  0  0  0  0  0  0  0  0  0
    9.0078   -2.1391   -0.0000 C   0  0  0  0  0  0  0  0  0  0  0  0
   10.3150   -4.3970   -0.0000 C   0  0  0  0  0  0  0  0  0  0  0  0
   11.6103   -3.6364   -0.0000 C   0  0  0  0  0  0  0  0  0  0  0  0
   12.9057   -4.3851   -0.0000 C   0  0  0  0  0  0  0  0  0  0  0  0
   11.5985   -2.1272   -0.0000 C   0  0  0  0  0  0  0  0  0  0  0  0
   14.1891   -3.6245   -0.0000 C   0  0  0  0  0  0  0  0  0  0  0  0
   12.8938   -1.3666   -0.0000 C   0  0  0  0  0  0  0  0  0  0  0  0
   14.1891   -2.1034   -0.0000 N   0  0  0  0  0  0  0  0  0  0  0  0
   15.4844   -1.3429   -0.0000 C   0  0  0  0  0  0  0  0  0  0  0  0
   15.4725    0.1783   -0.0000 O   0  0  0  0  0  0  0  0  0  0  0  0
   16.7797   -2.0915   -0.0000 N   0  0  0  0  0  0  0  0  0  0  0  0
   18.0751   -1.3310   -0.0000 C   0  0  0  0  0  0  0  0  0  0  0  0
   19.3585   -2.0796   -0.0000 C   0  0  0  0  0  0  0  0  0  0  0  0
   18.0632    0.1783   -0.0000 C   0  0  0  0  0  0  0  0  0  0  0  0
   20.6538   -1.3191   -0.0000 N   0  0  0  0  0  0  0  0  0  0  0  0
   19.3466    0.9388   -0.0000 C   0  0  0  0  0  0  0  0  0  0  0  0
   20.6419    0.2020   -0.0000 C   0  0  0  0  0  0  0  0  0  0  0  0
   21.9373    0.9626   -0.0000 C   0  0  0  0  0  0  0  0  0  0  0  0
  1  2  1  0  0  0  0
  2  3  1  0  0  0  0
  2  4  1  0  0  0  0
  2  5  1  0  0  0  0
  5  6  2  0  0  0  0
  5  7  1  0  0  0  0
  6  8  1  0  0  0  0
  7  9  2  0  0  0  0
  8 10  2  0  0  0  0
 10 11  1  0  0  0  0
 11 12  1  0  0  0  0
 12 13  2  0  0  0  0
 12 14  1  0  0  0  0
 13 15  1  0  0  0  0
 14 16  2  0  0  0  0
 15 17  2  0  0  0  0
 15 18  1  0  0  0  0
 18 19  2  0  0  0  0
 19 20  1  0  0  0  0
 19 21  1  0  0  0  0
 20 22  1  0  0  0  0
 21 23  1  0  0  0  0
 22 24  1  0  0  0  0
 24 25  1  0  0  0  0
 25 26  2  0  0  0  0
 25 27  1  0  0  0  0
 27 28  1  0  0  0  0
 28 29  2  0  0  0  0
 28 30  1  0  0  0  0
 29 31  1  0  0  0  0
 30 32  2  0  0  0  0
 31 33  2  0  0  0  0
 33 34  1  0  0  0  0
  9 10  1  0  0  0  0
 16 17  1  0  0  0  0
 23 24  1  0  0  0  0
 32 33  1  0  0  0  0
M  END
>  <MolRegNo>
1063956

>  <m>
=

>  <Value>
3000

>  <Unit>
nM

>  <Type>
IC50

>  <pValue>
5.52

>  <Ligand Efficiency>
0

>  <Binding Efficiency>
0

>  <Surface Efficiency>
0

>  <Assay Index>
546126

>  <Assay Category>


>  <Assay Organism>


>  <Target ID>
17045

>  <Target Name>
Cytochrome P450 3A4

>  <Target Organism>
Homo sapiens

>  <Target Description>
Target is a single protein chain

>  <Sequence Accession>
P08684

>  <Reference>
ACS Med Chem Lett 2 (2), 91-96 (2011)

>  <Pubmed ID>
21666860

>  <DOI>
10.1021/ml100190t

$$$$
1063949
Actelion Java MolfileCreator 1.0

 33 36  0  0  0  0  0  0  0  0999 V2000
    0.0000   -0.0000   -0.0000 F   0  0  0  0  0  0  0  0  0  0  0  0
   -0.0119   -1.4977   -0.0000 C   0  0  0  0  0  0  0  0  0  0  0  0
   -1.3313   -2.2346   -0.0000 F   0  0  0  0  0  0  0  0  0  0  0  0
   -1.3313   -0.7370   -0.0000 F   0  0  0  0  0  0  0  0  0  0  0  0
    1.2837   -2.2346   -0.0000 C   0  0  0  0  0  0  0  0  0  0  0  0
    1.2718   -3.7323   -0.0000 C   0  0  0  0  0  0  0  0  0  0  0  0
    2.5675   -1.4739   -0.0000 C   0  0  0  0  0  0  0  0  0  0  0  0
    2.5675   -4.4693   -0.0000 N   0  0  0  0  0  0  0  0  0  0  0  0
    3.8631   -2.2109   -0.0000 C   0  0  0  0  0  0  0  0  0  0  0  0
    3.8631   -3.7086   -0.0000 C   0  0  0  0  0  0  0  0  0  0  0  0
    5.1587   -4.4455   -0.0000 O   0  0  0  0  0  0  0  0  0  0  0  0
    6.4543   -3.6848   -0.0000 C   0  0  0  0  0  0  0  0  0  0  0  0
    7.7380   -4.4217   -0.0000 C   0  0  0  0  0  0  0  0  0  0  0  0
    6.4305   -2.1752   -0.0000 C   0  0  0  0  0  0  0  0  0  0  0  0
    9.0218   -3.6610   -0.0000 C   0  0  0  0  0  0  0  0  0  0  0  0
    7.7143   -1.4026   -0.0000 C   0  0  0  0  0  0  0  0  0  0  0  0
    9.0099   -2.1396   -0.0000 C   0  0  0  0  0  0  0  0  0  0  0  0
   10.3174   -4.3980   -0.0000 C   0  0  0  0  0  0  0  0  0  0  0  0
   11.6130   -3.6372   -0.0000 C   0  0  0  0  0  0  0  0  0  0  0  0
   12.9086   -4.3861   -0.0000 C   0  0  0  0  0  0  0  0  0  0  0  0
   11.6011   -2.1277   -0.0000 C   0  0  0  0  0  0  0  0  0  0  0  0
   14.1924   -3.6254   -0.0000 C   0  0  0  0  0  0  0  0  0  0  0  0
   12.8967   -1.3669   -0.0000 C   0  0  0  0  0  0  0  0  0  0  0  0
   14.1924   -2.1039   -0.0000 N   0  0  0  0  0  0  0  0  0  0  0  0
   15.4880   -1.3432   -0.0000 C   0  0  0  0  0  0  0  0  0  0  0  0
   15.4761    0.1783   -0.0000 O   0  0  0  0  0  0  0  0  0  0  0  0
   16.7717   -2.0920   -0.0000 N   0  0  0  0  0  0  0  0  0  0  0  0
   18.0673   -1.3313   -0.0000 C   0  0  0  0  0  0  0  0  0  0  0  0
   19.3511   -2.0801   -0.0000 C   0  0  0  0  0  0  0  0  0  0  0  0
   18.0554    0.1783   -0.0000 C   0  0  0  0  0  0  0  0  0  0  0  0
   20.6467   -1.3194   -0.0000 N   0  0  0  0  0  0  0  0  0  0  0  0
   19.3392    0.9390   -0.0000 C   0  0  0  0  0  0  0  0  0  0  0  0
   20.6348    0.2021   -0.0000 C   0  0  0  0  0  0  0  0  0  0  0  0
  1  2  1  0  0  0  0
  2  3  1  0  0  0  0
  2  4  1  0  0  0  0
  2  5  1  0  0  0  0
  5  6  2  0  0  0  0
  5  7  1  0  0  0  0
  6  8  1  0  0  0  0
  7  9  2  0  0  0  0
  8 10  2  0  0  0  0
 10 11  1  0  0  0  0
 11 12  1  0  0  0  0
 12 13  2  0  0  0  0
 12 14  1  0  0  0  0
 13 15  1  0  0  0  0
 14 16  2  0  0  0  0
 15 17  2  0  0  0  0
 15 18  1  0  0  0  0
 18 19  2  0  0  0  0
 19 20  1  0  0  0  0
 19 21  1  0  0  0  0
 20 22  1  0  0  0  0
 21 23  1  0  0  0  0
 22 24  1  0  0  0  0
 24 25  1  0  0  0  0
 25 26  2  0  0  0  0
 25 27  1  0  0  0  0
 27 28  1  0  0  0  0
 28 29  2  0  0  0  0
 28 30  1  0  0  0  0
 29 31  1  0  0  0  0
 30 32  2  0  0  0  0
 31 33  2  0  0  0  0
  9 10  1  0  0  0  0
 16 17  1  0  0  0  0
 23 24  1  0  0  0  0
 32 33  1  0  0  0  0
M  END
>  <MolRegNo>
1063949

>  <m>
=

>  <Value>
800

>  <Unit>
nM

>  <Type>
IC50

>  <pValue>
6.1

>  <Ligand Efficiency>
0

>  <Binding Efficiency>
0

>  <Surface Efficiency>
0

>  <Assay Index>
546126

>  <Assay Category>


>  <Assay Organism>


>  <Target ID>
17045

>  <Target Name>
Cytochrome P450 3A4

>  <Target Organism>
Homo sapiens

>  <Target Description>
Target is a single protein chain

>  <Sequence Accession>
P08684

>  <Reference>
ACS Med Chem Lett 2 (2), 91-96 (2011)

>  <Pubmed ID>
21666860

>  <DOI>
10.1021/ml100190t

$$$$
1060818
Actelion Java MolfileCreator 1.0

 29 33  0  0  0  0  0  0  0  0999 V2000
    0.0000   -0.0000   -0.0000 F   0  0  0  0  0  0  0  0  0  0  0  0
    0.9901    1.1198   -0.0000 C   0  0  0  0  0  0  0  0  0  0  0  0
    2.4399    0.8251   -0.0000 F   0  0  0  0  0  0  0  0  0  0  0  0
    1.7916   -0.1179   -0.0000 F   0  0  0  0  0  0  0  0  0  0  0  0
    0.5186    2.5578   -0.0000 C   0  0  0  0  0  0  0  0  0  0  0  0
    1.3909    3.7836   -0.0000 N   0  0  0  0  0  0  0  0  0  0  0  0
   -0.9194    3.0293   -0.0000 C   0  0  0  0  0  0  0  0  0  0  0  0
    0.4951    5.0095   -0.0000 N   0  0  0  0  0  0  0  0  0  0  0  0
   -0.9312    4.5380   -0.0000 C   0  0  0  0  0  0  0  0  0  0  0  0
   -2.2160    2.2985   -0.0000 C   0  0  0  0  0  0  0  0  0  0  0  0
    0.9430    6.4475   -0.0000 C   0  0  0  0  0  0  0  0  0  0  0  0
   -2.2278    5.3042   -0.0000 C   0  0  0  0  0  0  0  0  0  0  0  0
   -3.5125    3.0528   -0.0000 C   0  0  0  0  0  0  0  0  0  0  0  0
    2.4046    6.7658   -0.0000 C   0  0  0  0  0  0  0  0  0  0  0  0
   -0.0707    7.5673   -0.0000 C   0  0  0  0  0  0  0  0  0  0  0  0
   -3.5243    4.5616   -0.0000 C   0  0  0  0  0  0  0  0  0  0  0  0
    2.8525    8.1920   -0.0000 C   0  0  0  0  0  0  0  0  0  0  0  0
    0.3890    9.0053   -0.0000 C   0  0  0  0  0  0  0  0  0  0  0  0
    1.8506    9.3236   -0.0000 C   0  0  0  0  0  0  0  0  0  0  0  0
    2.3103   10.7498   -0.0000 C   0  0  0  0  0  0  0  0  0  0  0  0
    3.7601   11.0681   -0.0000 C   0  0  0  0  0  0  0  0  0  0  0  0
    1.6502   12.1053   -0.0000 C   0  0  0  0  0  0  0  0  0  0  0  0
    0.8015   10.8795   -0.0000 C   0  0  0  0  0  0  0  0  0  0  0  0
    4.7502    9.9601   -0.0000 O   0  0  0  0  0  0  0  0  0  0  0  0
    4.2198   12.4943   -0.0000 N   0  0  0  0  0  0  0  0  0  0  0  0
    5.6224   12.9658   -0.0000 C   0  0  0  0  0  0  0  0  0  0  0  0
    3.3240   13.7201   -0.0000 C   0  0  0  0  0  0  0  0  0  0  0  0
    5.6106   14.4745   -0.0000 C   0  0  0  0  0  0  0  0  0  0  0  0
    4.1962   14.9342   -0.0000 C   0  0  0  0  0  0  0  0  0  0  0  0
  1  2  1  0  0  0  0
  2  3  1  0  0  0  0
  2  4  1  0  0  0  0
  2  5  1  0  0  0  0
  5  6  2  0  0  0  0
  5  7  1  0  0  0  0
  6  8  1  0  0  0  0
  7  9  2  0  0  0  0
  7 10  1  0  0  0  0
  8 11  1  0  0  0  0
  9 12  1  0  0  0  0
 10 13  1  0  0  0  0
 11 14  2  0  0  0  0
 11 15  1  0  0  0  0
 12 16  1  0  0  0  0
 14 17  1  0  0  0  0
 15 18  2  0  0  0  0
 17 19  2  0  0  0  0
 19 20  1  0  0  0  0
 20 21  1  0  0  0  0
 20 22  1  0  0  0  0
 20 23  1  0  0  0  0
 21 24  2  0  0  0  0
 21 25  1  0  0  0  0
 25 26  1  0  0  0  0
 25 27  1  0  0  0  0
 26 28  1  0  0  0  0
 27 29  1  0  0  0  0
  8  9  1  0  0  0  0
 13 16  1  0  0  0  0
 18 19  1  0  0  0  0
 22 23  1  0  0  0  0
 28 29  1  0  0  0  0
M  END
>  <MolRegNo>
1060818

>  <m>
=

>  <Value>
6000

>  <Unit>
nM

>  <Type>
IC50

>  <pValue>
5.22

>  <Ligand Efficiency>
0

>  <Binding Efficiency>
0

>  <Surface Efficiency>
0

>  <Assay Index>
546850

>  <Assay Category>


>  <Assay Organism>
Homo sapiens

>  <Target ID>
17045

>  <Target Name>
Cytochrome P450 3A4

>  <Target Organism>
Homo sapiens

>  <Target Description>
Target is a single protein chain

>  <Sequence Accession>
P08684

>  <Reference>
J Med Chem 54 (1), 78-94 (2011)

>  <Pubmed ID>
21128618

>  <DOI>
10.1021/jm100679e

$$$$
1060816
Actelion Java MolfileCreator 1.0

 28 31  0  0  0  0  0  0  0  0999 V2000
    0.0000   -0.0000   -0.0000 F   0  0  0  0  0  0  0  0  0  0  0  0
    0.9916    1.1215   -0.0000 C   0  0  0  0  0  0  0  0  0  0  0  0
    2.4437    0.8264   -0.0000 F   0  0  0  0  0  0  0  0  0  0  0  0
    1.7944   -0.1181   -0.0000 F   0  0  0  0  0  0  0  0  0  0  0  0
    0.5194    2.5617   -0.0000 C   0  0  0  0  0  0  0  0  0  0  0  0
    1.3930    3.7895   -0.0000 N   0  0  0  0  0  0  0  0  0  0  0  0
   -0.9208    3.0339   -0.0000 C   0  0  0  0  0  0  0  0  0  0  0  0
    0.4958    5.0172   -0.0000 N   0  0  0  0  0  0  0  0  0  0  0  0
   -0.9326    4.5450   -0.0000 C   0  0  0  0  0  0  0  0  0  0  0  0
   -2.2194    2.3020   -0.0000 C   0  0  0  0  0  0  0  0  0  0  0  0
    0.9444    6.4575   -0.0000 C   0  0  0  0  0  0  0  0  0  0  0  0
   -2.2312    5.3123   -0.0000 C   0  0  0  0  0  0  0  0  0  0  0  0
   -3.5180    3.0576   -0.0000 C   0  0  0  0  0  0  0  0  0  0  0  0
    2.4083    6.7762   -0.0000 C   0  0  0  0  0  0  0  0  0  0  0  0
   -0.0708    7.5789   -0.0000 C   0  0  0  0  0  0  0  0  0  0  0  0
   -3.5298    4.5686   -0.0000 C   0  0  0  0  0  0  0  0  0  0  0  0
    2.8569    8.2046   -0.0000 C   0  0  0  0  0  0  0  0  0  0  0  0
    0.3896    9.0192   -0.0000 C   0  0  0  0  0  0  0  0  0  0  0  0
    1.8534    9.3379   -0.0000 C   0  0  0  0  0  0  0  0  0  0  0  0
    2.3138   10.7664   -0.0000 C   0  0  0  0  0  0  0  0  0  0  0  0
    3.7659   11.0851   -0.0000 C   0  0  0  0  0  0  0  0  0  0  0  0
    4.7575    9.9754   -0.0000 O   0  0  0  0  0  0  0  0  0  0  0  0
    4.2263   12.5135   -0.0000 N   0  0  0  0  0  0  0  0  0  0  0  0
    5.6783   12.8323   -0.0000 C   0  0  0  0  0  0  0  0  0  0  0  0
    6.7762   11.8406   -0.0000 C   0  0  0  0  0  0  0  0  0  0  0  0
    6.2804   14.2135   -0.0000 C   0  0  0  0  0  0  0  0  0  0  0  0
    8.0630   12.5962   -0.0000 C   0  0  0  0  0  0  0  0  0  0  0  0
    7.7560   14.0600   -0.0000 C   0  0  0  0  0  0  0  0  0  0  0  0
  1  2  1  0  0  0  0
  2  3  1  0  0  0  0
  2  4  1  0  0  0  0
  2  5  1  0  0  0  0
  5  6  2  0  0  0  0
  5  7  1  0  0  0  0
  6  8  1  0  0  0  0
  7  9  2  0  0  0  0
  7 10  1  0  0  0  0
  8 11  1  0  0  0  0
  9 12  1  0  0  0  0
 10 13  1  0  0  0  0
 11 14  2  0  0  0  0
 11 15  1  0  0  0  0
 12 16  1  0  0  0  0
 14 17  1  0  0  0  0
 15 18  2  0  0  0  0
 17 19  2  0  0  0  0
 19 20  1  0  0  0  0
 20 21  1  0  0  0  0
 21 22  2  0  0  0  0
 21 23  1  0  0  0  0
 23 24  1  0  0  0  0
 24 25  1  0  0  0  0
 24 26  1  0  0  0  0
 25 27  1  0  0  0  0
 26 28  1  0  0  0  0
  8  9  1  0  0  0  0
 13 16  1  0  0  0  0
 18 19  1  0  0  0  0
 27 28  1  0  0  0  0
M  END
>  <MolRegNo>
1060816

>  <m>
=

>  <Value>
700

>  <Unit>
nM

>  <Type>
IC50

>  <pValue>
6.16

>  <Ligand Efficiency>
0

>  <Binding Efficiency>
0

>  <Surface Efficiency>
0

>  <Assay Index>
546850

>  <Assay Category>


>  <Assay Organism>
Homo sapiens

>  <Target ID>
17045

>  <Target Name>
Cytochrome P450 3A4

>  <Target Organism>
Homo sapiens

>  <Target Description>
Target is a single protein chain

>  <Sequence Accession>
P08684

>  <Reference>
J Med Chem 54 (1), 78-94 (2011)

>  <Pubmed ID>
21128618

>  <DOI>
10.1021/jm100679e

$$$$
488556
Actelion Java MolfileCreator 1.0

 24 27  0  0  0  0  0  0  0  0999 V2000
    0.0000   -0.0000   -0.0000 O   0  0  0  0  0  0  0  0  0  0  0  0
    1.2944    0.7600   -0.0000 C   0  0  0  0  0  0  0  0  0  0  0  0
    2.5889    0.0238   -0.0000 C   0  0  0  0  0  0  0  0  0  0  0  0
    1.2826    2.2801   -0.0000 C   0  0  0  0  0  0  0  0  0  0  0  0
    3.8833    0.7957   -0.0000 C   0  0  0  0  0  0  0  0  0  0  0  0
    2.5770   -1.4607   -0.0000 C   0  0  0  0  0  0  0  0  0  0  0  0
    2.5651    3.0401   -0.0000 C   0  0  0  0  0  0  0  0  0  0  0  0
    3.8714    2.3157   -0.0000 C   0  0  0  0  0  0  0  0  0  0  0  0
    5.1777    0.0594   -0.0000 C   0  0  0  0  0  0  0  0  0  0  0  0
    1.2588   -2.1970   -0.0000 C   0  0  0  0  0  0  0  0  0  0  0  0
    3.8595   -2.1970   -0.0000 C   0  0  0  0  0  0  0  0  0  0  0  0
    5.1540    3.0876   -0.0000 C   0  0  0  0  0  0  0  0  0  0  0  0
    6.4721    0.8313   -0.0000 C   0  0  0  0  0  0  0  0  0  0  0  0
    1.2469   -3.6933   -0.0000 C   0  0  0  0  0  0  0  0  0  0  0  0
    3.8595   -3.6814   -0.0000 C   0  0  0  0  0  0  0  0  0  0  0  0
    6.4484    2.3513   -0.0000 C   0  0  0  0  0  0  0  0  0  0  0  0
    2.5414   -4.4296   -0.0000 C   0  0  0  0  0  0  0  0  0  0  0  0
    7.7309    3.1233   -0.0000 C   0  0  0  0  0  0  0  0  0  0  0  0
    7.7072    4.6314   -0.0000 C   0  0  0  0  0  0  0  0  0  0  0  0
    9.0254    2.3870   -0.0000 C   0  0  0  0  0  0  0  0  0  0  0  0
    8.9898    5.4034   -0.0000 C   0  0  0  0  0  0  0  0  0  0  0  0
   10.3079    3.1589   -0.0000 C   0  0  0  0  0  0  0  0  0  0  0  0
    8.9660    6.9234   -0.0000 O   0  0  0  0  0  0  0  0  0  0  0  0
   10.2961    4.6671   -0.0000 C   0  0  0  0  0  0  0  0  0  0  0  0
  1  2  1  0  0  0  0
  2  3  2  0  0  0  0
  2  4  1  0  0  0  0
  3  5  1  0  0  0  0
  3  6  1  0  0  0  0
  4  7  2  0  0  0  0
  5  8  1  0  0  0  0
  5  9  2  0  0  0  0
  6 10  2  0  0  0  0
  6 11  1  0  0  0  0
  8 12  2  0  0  0  0
  9 13  1  0  0  0  0
 10 14  1  0  0  0  0
 11 15  2  0  0  0  0
 12 16  1  0  0  0  0
 14 17  2  0  0  0  0
 16 18  1  0  0  0  0
 18 19  2  0  0  0  0
 18 20  1  0  0  0  0
 19 21  1  0  0  0  0
 20 22  2  0  0  0  0
 21 23  1  0  0  0  0
 21 24  2  0  0  0  0
  7  8  1  0  0  0  0
 13 16  2  0  0  0  0
 15 17  1  0  0  0  0
 22 24  1  0  0  0  0
M  END
>  <MolRegNo>
488556

>  <m>
=

>  <Value>
2770

>  <Unit>
nM

>  <Type>
IC50

>  <pValue>
5.56

>  <Ligand Efficiency>
0

>  <Binding Efficiency>
0

>  <Surface Efficiency>
0

>  <Assay Index>
559699

>  <Assay Category>


>  <Assay Organism>
Homo sapiens

>  <Target ID>
17045

>  <Target Name>
Cytochrome P450 3A4

>  <Target Organism>
Homo sapiens

>  <Target Description>
Target is a single protein chain

>  <Sequence Accession>
P08684

>  <Reference>
J Med Chem 54 (2), 534-547 (2011)

>  <Pubmed ID>
21189020

>  <DOI>
10.1021/jm1009082

$$$$
1062570
Actelion Java MolfileCreator 1.0

 24 27  0  0  0  0  0  0  0  0999 V2000
    0.0000   -0.0000   -0.0000 O   0  0  0  0  0  0  0  0  0  0  0  0
    1.2816    0.7713   -0.0000 C   0  0  0  0  0  0  0  0  0  0  0  0
    2.5751    0.0237   -0.0000 C   0  0  0  0  0  0  0  0  0  0  0  0
    1.2697    2.2903   -0.0000 C   0  0  0  0  0  0  0  0  0  0  0  0
    3.8686    0.7951   -0.0000 C   0  0  0  0  0  0  0  0  0  0  0  0
    2.5632   -1.4596   -0.0000 C   0  0  0  0  0  0  0  0  0  0  0  0
    2.5513    3.0498   -0.0000 C   0  0  0  0  0  0  0  0  0  0  0  0
    3.8567    2.3140   -0.0000 C   0  0  0  0  0  0  0  0  0  0  0  0
    5.1620    0.0593   -0.0000 C   0  0  0  0  0  0  0  0  0  0  0  0
    1.2460   -2.1953   -0.0000 C   0  0  0  0  0  0  0  0  0  0  0  0
    3.8567   -2.1835   -0.0000 C   0  0  0  0  0  0  0  0  0  0  0  0
    5.1383    3.0735   -0.0000 C   0  0  0  0  0  0  0  0  0  0  0  0
    6.4555    0.8307   -0.0000 C   0  0  0  0  0  0  0  0  0  0  0  0
    1.2341   -3.6906   -0.0000 N   0  0  0  0  0  0  0  0  0  0  0  0
    3.8567   -3.6668   -0.0000 C   0  0  0  0  0  0  0  0  0  0  0  0
    6.4318    2.3496   -0.0000 C   0  0  0  0  0  0  0  0  0  0  0  0
    2.5276   -4.4382   -0.0000 C   0  0  0  0  0  0  0  0  0  0  0  0
    7.7134    3.1091   -0.0000 C   0  0  0  0  0  0  0  0  0  0  0  0
    7.6896    4.6162   -0.0000 C   0  0  0  0  0  0  0  0  0  0  0  0
    9.0069    2.3733   -0.0000 C   0  0  0  0  0  0  0  0  0  0  0  0
    8.9713    5.3994   -0.0000 C   0  0  0  0  0  0  0  0  0  0  0  0
   10.2885    3.1447   -0.0000 C   0  0  0  0  0  0  0  0  0  0  0  0
    8.9475    6.9183   -0.0000 O   0  0  0  0  0  0  0  0  0  0  0  0
   10.2647    4.6636   -0.0000 C   0  0  0  0  0  0  0  0  0  0  0  0
  1  2  1  0  0  0  0
  2  3  2  0  0  0  0
  2  4  1  0  0  0  0
  3  5  1  0  0  0  0
  3  6  1  0  0  0  0
  4  7  2  0  0  0  0
  5  8  1  0  0  0  0
  5  9  2  0  0  0  0
  6 10  2  0  0  0  0
  6 11  1  0  0  0  0
  8 12  2  0  0  0  0
  9 13  1  0  0  0  0
 10 14  1  0  0  0  0
 11 15  2  0  0  0  0
 12 16  1  0  0  0  0
 14 17  2  0  0  0  0
 16 18  1  0  0  0  0
 18 19  2  0  0  0  0
 18 20  1  0  0  0  0
 19 21  1  0  0  0  0
 20 22  2  0  0  0  0
 21 23  1  0  0  0  0
 21 24  2  0  0  0  0
  7  8  1  0  0  0  0
 13 16  2  0  0  0  0
 15 17  1  0  0  0  0
 22 24  1  0  0  0  0
M  END
>  <MolRegNo>
1062570

>  <m>
=

>  <Value>
220

>  <Unit>
nM

>  <Type>
IC50

>  <pValue>
6.66

>  <Ligand Efficiency>
0

>  <Binding Efficiency>
0

>  <Surface Efficiency>
0

>  <Assay Index>
559699

>  <Assay Category>


>  <Assay Organism>
Homo sapiens

>  <Target ID>
17045

>  <Target Name>
Cytochrome P450 3A4

>  <Target Organism>
Homo sapiens

>  <Target Description>
Target is a single protein chain

>  <Sequence Accession>
P08684

>  <Reference>
J Med Chem 54 (2), 534-547 (2011)

>  <Pubmed ID>
21189020

>  <DOI>
10.1021/jm1009082

$$$$
1062577
Actelion Java MolfileCreator 1.0

 25 28  0  0  0  0  0  0  0  0999 V2000
    0.0000   -0.0000   -0.0000 O   0  0  0  0  0  0  0  0  0  0  0  0
    1.2825    0.7719   -0.0000 C   0  0  0  0  0  0  0  0  0  0  0  0
    2.5769    0.0238   -0.0000 C   0  0  0  0  0  0  0  0  0  0  0  0
    1.2706    2.2919   -0.0000 C   0  0  0  0  0  0  0  0  0  0  0  0
    3.8713    0.7956   -0.0000 C   0  0  0  0  0  0  0  0  0  0  0  0
    2.5650   -1.4606   -0.0000 C   0  0  0  0  0  0  0  0  0  0  0  0
    2.5531    3.0519   -0.0000 C   0  0  0  0  0  0  0  0  0  0  0  0
    3.8594    2.3156   -0.0000 C   0  0  0  0  0  0  0  0  0  0  0  0
    5.1657    0.0594   -0.0000 C   0  0  0  0  0  0  0  0  0  0  0  0
    3.8594   -2.1850   -0.0000 C   0  0  0  0  0  0  0  0  0  0  0  0
    1.2469   -2.1969   -0.0000 C   0  0  0  0  0  0  0  0  0  0  0  0
    5.1419    3.0756   -0.0000 C   0  0  0  0  0  0  0  0  0  0  0  0
    6.4600    0.8313   -0.0000 C   0  0  0  0  0  0  0  0  0  0  0  0
    3.8594   -3.6694   -0.0000 C   0  0  0  0  0  0  0  0  0  0  0  0
    1.2350   -3.6932   -0.0000 C   0  0  0  0  0  0  0  0  0  0  0  0
    6.4363    2.3513   -0.0000 C   0  0  0  0  0  0  0  0  0  0  0  0
    5.1538   -4.3938   -0.0000 O   0  0  0  0  0  0  0  0  0  0  0  0
    2.5413   -4.4294   -0.0000 C   0  0  0  0  0  0  0  0  0  0  0  0
    7.7188    3.1113   -0.0000 C   0  0  0  0  0  0  0  0  0  0  0  0
    7.6951    4.6194   -0.0000 C   0  0  0  0  0  0  0  0  0  0  0  0
    9.0132    2.3750   -0.0000 C   0  0  0  0  0  0  0  0  0  0  0  0
    8.9776    5.4032   -0.0000 C   0  0  0  0  0  0  0  0  0  0  0  0
   10.2957    3.1469   -0.0000 C   0  0  0  0  0  0  0  0  0  0  0  0
    8.9538    6.9232   -0.0000 O   0  0  0  0  0  0  0  0  0  0  0  0
   10.2720    4.6669   -0.0000 C   0  0  0  0  0  0  0  0  0  0  0  0
  1  2  1  0  0  0  0
  2  3  2  0  0  0  0
  2  4  1  0  0  0  0
  3  5  1  0  0  0  0
  3  6  1  0  0  0  0
  4  7  2  0  0  0  0
  5  8  1  0  0  0  0
  5  9  2  0  0  0  0
  6 10  2  0  0  0  0
  6 11  1  0  0  0  0
  8 12  2  0  0  0  0
  9 13  1  0  0  0  0
 10 14  1  0  0  0  0
 11 15  2  0  0  0  0
 12 16  1  0  0  0  0
 14 17  1  0  0  0  0
 14 18  2  0  0  0  0
 16 19  1  0  0  0  0
 19 20  2  0  0  0  0
 19 21  1  0  0  0  0
 20 22  1  0  0  0  0
 21 23  2  0  0  0  0
 22 24  1  0  0  0  0
 22 25  2  0  0  0  0
  7  8  1  0  0  0  0
 13 16  2  0  0  0  0
 15 18  1  0  0  0  0
 23 25  1  0  0  0  0
M  END
>  <MolRegNo>
1062577

>  <m>
=

>  <Value>
40

>  <Unit>
nM

>  <Type>
IC50

>  <pValue>
7.4

>  <Ligand Efficiency>
0

>  <Binding Efficiency>
0

>  <Surface Efficiency>
0

>  <Assay Index>
559699

>  <Assay Category>


>  <Assay Organism>
Homo sapiens

>  <Target ID>
17045

>  <Target Name>
Cytochrome P450 3A4

>  <Target Organism>
Homo sapiens

>  <Target Description>
Target is a single protein chain

>  <Sequence Accession>
P08684

>  <Reference>
J Med Chem 54 (2), 534-547 (2011)

>  <Pubmed ID>
21189020

>  <DOI>
10.1021/jm1009082

$$$$
1062579
Actelion Java MolfileCreator 1.0

 25 28  0  0  0  0  0  0  0  0999 V2000
    0.0000   -0.0000   -0.0000 O   0  0  0  0  0  0  0  0  0  0  0  0
    1.2825    0.7719   -0.0000 C   0  0  0  0  0  0  0  0  0  0  0  0
    2.5769    0.0238   -0.0000 C   0  0  0  0  0  0  0  0  0  0  0  0
    1.2706    2.2919   -0.0000 C   0  0  0  0  0  0  0  0  0  0  0  0
    3.8713    0.7956   -0.0000 C   0  0  0  0  0  0  0  0  0  0  0  0
    2.5650   -1.4606   -0.0000 C   0  0  0  0  0  0  0  0  0  0  0  0
    2.5531    3.0519   -0.0000 C   0  0  0  0  0  0  0  0  0  0  0  0
    3.8594    2.3156   -0.0000 C   0  0  0  0  0  0  0  0  0  0  0  0
    5.1657    0.0594   -0.0000 C   0  0  0  0  0  0  0  0  0  0  0  0
    3.8594   -2.1850   -0.0000 C   0  0  0  0  0  0  0  0  0  0  0  0
    1.2469   -2.1969   -0.0000 C   0  0  0  0  0  0  0  0  0  0  0  0
    5.1419    3.0756   -0.0000 C   0  0  0  0  0  0  0  0  0  0  0  0
    6.4600    0.8313   -0.0000 C   0  0  0  0  0  0  0  0  0  0  0  0
    3.8594   -3.6694   -0.0000 C   0  0  0  0  0  0  0  0  0  0  0  0
    1.2350   -3.6932   -0.0000 C   0  0  0  0  0  0  0  0  0  0  0  0
    6.4363    2.3513   -0.0000 C   0  0  0  0  0  0  0  0  0  0  0  0
    5.1538   -4.3938   -0.0000 N   0  0  0  0  0  0  0  0  0  0  0  0
    2.5413   -4.4294   -0.0000 C   0  0  0  0  0  0  0  0  0  0  0  0
    7.7188    3.1113   -0.0000 C   0  0  0  0  0  0  0  0  0  0  0  0
    7.6951    4.6194   -0.0000 C   0  0  0  0  0  0  0  0  0  0  0  0
    9.0132    2.3750   -0.0000 C   0  0  0  0  0  0  0  0  0  0  0  0
    8.9776    5.4032   -0.0000 C   0  0  0  0  0  0  0  0  0  0  0  0
   10.2957    3.1469   -0.0000 C   0  0  0  0  0  0  0  0  0  0  0  0
    8.9538    6.9232   -0.0000 O   0  0  0  0  0  0  0  0  0  0  0  0
   10.2720    4.6669   -0.0000 C   0  0  0  0  0  0  0  0  0  0  0  0
  1  2  1  0  0  0  0
  2  3  2  0  0  0  0
  2  4  1  0  0  0  0
  3  5  1  0  0  0  0
  3  6  1  0  0  0  0
  4  7  2  0  0  0  0
  5  8  1  0  0  0  0
  5  9  2  0  0  0  0
  6 10  2  0  0  0  0
  6 11  1  0  0  0  0
  8 12  2  0  0  0  0
  9 13  1  0  0  0  0
 10 14  1  0  0  0  0
 11 15  2  0  0  0  0
 12 16  1  0  0  0  0
 14 17  1  0  0  0  0
 14 18  2  0  0  0  0
 16 19  1  0  0  0  0
 19 20  2  0  0  0  0
 19 21  1  0  0  0  0
 20 22  1  0  0  0  0
 21 23  2  0  0  0  0
 22 24  1  0  0  0  0
 22 25  2  0  0  0  0
  7  8  1  0  0  0  0
 13 16  2  0  0  0  0
 15 18  1  0  0  0  0
 23 25  1  0  0  0  0
M  END
>  <MolRegNo>
1062579

>  <m>
=

>  <Value>
1070

>  <Unit>
nM

>  <Type>
IC50

>  <pValue>
5.97

>  <Ligand Efficiency>
0

>  <Binding Efficiency>
0

>  <Surface Efficiency>
0

>  <Assay Index>
559699

>  <Assay Category>


>  <Assay Organism>
Homo sapiens

>  <Target ID>
17045

>  <Target Name>
Cytochrome P450 3A4

>  <Target Organism>
Homo sapiens

>  <Target Description>
Target is a single protein chain

>  <Sequence Accession>
P08684

>  <Reference>
J Med Chem 54 (2), 534-547 (2011)

>  <Pubmed ID>
21189020

>  <DOI>
10.1021/jm1009082

$$$$
1068355
Actelion Java MolfileCreator 1.0

 23 25  0  0  0  0  0  0  0  0999 V2000
    0.0000   -0.0000   -0.0000 N   0  0  0  0  0  0  0  0  0  0  0  0
   -0.4736    1.4208   -0.0000 C   0  0  0  0  0  0  0  0  0  0  0  0
   -1.0064   -1.1011   -0.0000 C   0  0  0  0  0  0  0  0  0  0  0  0
   -1.9417    1.7405   -0.0000 C   0  0  0  0  0  0  0  0  0  0  0  0
    0.5091    2.5456   -0.0000 C   0  0  0  0  0  0  0  0  0  0  0  0
   -2.4864   -0.7814   -0.0000 C   0  0  0  0  0  0  0  0  0  0  0  0
   -2.9481    0.6394   -0.0000 N   0  0  0  0  0  0  0  0  0  0  0  0
    0.0355    3.9782   -0.0000 C   0  0  0  0  0  0  0  0  0  0  0  0
   -1.4089    4.4518   -0.0000 C   0  0  0  0  0  0  0  0  0  0  0  0
    0.9117    5.2096   -0.0000 C   0  0  0  0  0  0  0  0  0  0  0  0
   -1.4208    5.9673   -0.0000 C   0  0  0  0  0  0  0  0  0  0  0  0
   -2.7113    3.7177   -0.0000 C   0  0  0  0  0  0  0  0  0  0  0  0
    0.0118    6.4409   -0.0000 C   0  0  0  0  0  0  0  0  0  0  0  0
    2.3917    5.2214   -0.0000 C   0  0  0  0  0  0  0  0  0  0  0  0
   -2.7232    6.7251   -0.0000 C   0  0  0  0  0  0  0  0  0  0  0  0
   -4.0137    4.4755   -0.0000 C   0  0  0  0  0  0  0  0  0  0  0  0
    3.1257    3.9427   -0.0000 C   0  0  0  0  0  0  0  0  0  0  0  0
   -4.0256    5.9910   -0.0000 C   0  0  0  0  0  0  0  0  0  0  0  0
    4.6057    3.9545   -0.0000 N   0  0  0  0  0  0  0  0  0  0  0  0
    5.3398    5.2569   -0.0000 C   0  0  0  0  0  0  0  0  0  0  0  0
    5.3398    2.6758   -0.0000 C   0  0  0  0  0  0  0  0  0  0  0  0
    4.5820    6.5593   -0.0000 C   0  0  0  0  0  0  0  0  0  0  0  0
    5.3161    7.8617   -0.0000 C   0  0  0  0  0  0  0  0  0  0  0  0
  1  2  2  0  0  0  0
  1  3  1  0  0  0  0
  2  4  1  0  0  0  0
  2  5  1  0  0  0  0
  3  6  2  0  0  0  0
  4  7  2  0  0  0  0
  5  8  1  0  0  0  0
  8  9  1  0  0  0  0
  8 10  2  0  0  0  0
  9 11  2  0  0  0  0
  9 12  1  0  0  0  0
 10 13  1  0  0  0  0
 10 14  1  0  0  0  0
 11 15  1  0  0  0  0
 12 16  2  0  0  0  0
 14 17  1  0  0  0  0
 15 18  2  0  0  0  0
 17 19  1  0  0  0  0
 19 20  1  0  0  0  0
 19 21  1  0  0  0  0
 20 22  1  0  0  0  0
 22 23  1  0  0  0  0
  6  7  1  0  0  0  0
 11 13  1  0  0  0  0
 16 18  1  0  0  0  0
M  END
>  <MolRegNo>
1068355

>  <m>
=

>  <Value>
4038

>  <Unit>
nM

>  <Type>
IC50

>  <pValue>
5.39

>  <Ligand Efficiency>
0

>  <Binding Efficiency>
0

>  <Surface Efficiency>
0

>  <Assay Index>
562465

>  <Assay Category>


>  <Assay Organism>


>  <Target ID>
17045

>  <Target Name>
Cytochrome P450 3A4

>  <Target Organism>
Homo sapiens

>  <Target Description>
Target is a single protein chain

>  <Sequence Accession>
P08684

>  <Reference>
Bioorg Med Chem Lett 21 (3), 947-951 (2011)

>  <Pubmed ID>
21232954

>  <DOI>
10.1016/j.bmcl.2010.12.053

$$$$
1068365
Actelion Java MolfileCreator 1.0

 24 27  0  0  0  0  0  0  0  0999 V2000
    0.0000   -0.0000   -0.0000 F   0  0  0  0  0  0  0  0  0  0  0  0
   -1.0700   -1.0582   -0.0000 C   0  0  0  0  0  0  0  0  0  0  0  0
   -0.0235   -2.1046   -0.0000 F   0  0  0  0  0  0  0  0  0  0  0  0
   -2.1399   -2.1046   -0.0000 C   0  0  0  0  0  0  0  0  0  0  0  0
   -2.1399    0.0118   -0.0000 C   0  0  0  0  0  0  0  0  0  0  0  0
   -3.2099   -1.0347   -0.0000 N   0  0  0  0  0  0  0  0  0  0  0  0
   -4.7148   -1.0229   -0.0000 C   0  0  0  0  0  0  0  0  0  0  0  0
   -5.4791    0.2822   -0.0000 C   0  0  0  0  0  0  0  0  0  0  0  0
   -6.9841    0.2939   -0.0000 C   0  0  0  0  0  0  0  0  0  0  0  0
   -7.8777   -0.9171   -0.0000 C   0  0  0  0  0  0  0  0  0  0  0  0
   -7.8777    1.5167   -0.0000 C   0  0  0  0  0  0  0  0  0  0  0  0
   -9.3239   -0.4350   -0.0000 C   0  0  0  0  0  0  0  0  0  0  0  0
   -7.4309   -2.3280   -0.0000 C   0  0  0  0  0  0  0  0  0  0  0  0
   -9.3239    1.0582   -0.0000 C   0  0  0  0  0  0  0  0  0  0  0  0
  -10.6290   -1.1758   -0.0000 C   0  0  0  0  0  0  0  0  0  0  0  0
   -8.4420   -3.4215   -0.0000 C   0  0  0  0  0  0  0  0  0  0  0  0
  -10.6290    1.8107   -0.0000 C   0  0  0  0  0  0  0  0  0  0  0  0
  -11.9341   -0.4115   -0.0000 C   0  0  0  0  0  0  0  0  0  0  0  0
   -7.9835   -4.8207   -0.0000 N   0  0  0  0  0  0  0  0  0  0  0  0
   -9.9118   -3.0923   -0.0000 C   0  0  0  0  0  0  0  0  0  0  0  0
  -11.9341    1.0700   -0.0000 C   0  0  0  0  0  0  0  0  0  0  0  0
   -8.9829   -5.9141   -0.0000 C   0  0  0  0  0  0  0  0  0  0  0  0
  -10.9229   -4.1857   -0.0000 N   0  0  0  0  0  0  0  0  0  0  0  0
  -10.4644   -5.5967   -0.0000 C   0  0  0  0  0  0  0  0  0  0  0  0
  1  2  1  0  0  0  0
  2  3  1  0  0  0  0
  2  4  1  0  0  0  0
  2  5  1  0  0  0  0
  4  6  1  0  0  0  0
  6  7  1  0  0  0  0
  7  8  1  0  0  0  0
  8  9  1  0  0  0  0
  9 10  2  0  0  0  0
  9 11  1  0  0  0  0
 10 12  1  0  0  0  0
 10 13  1  0  0  0  0
 11 14  1  0  0  0  0
 12 15  1  0  0  0  0
 13 16  1  0  0  0  0
 14 17  1  0  0  0  0
 15 18  2  0  0  0  0
 16 19  2  0  0  0  0
 16 20  1  0  0  0  0
 17 21  2  0  0  0  0
 19 22  1  0  0  0  0
 20 23  2  0  0  0  0
 22 24  2  0  0  0  0
  5  6  1  0  0  0  0
 12 14  2  0  0  0  0
 18 21  1  0  0  0  0
 23 24  1  0  0  0  0
M  END
>  <MolRegNo>
1068365

>  <m>
=

>  <Value>
3871

>  <Unit>
nM

>  <Type>
IC50

>  <pValue>
5.41

>  <Ligand Efficiency>
0

>  <Binding Efficiency>
0

>  <Surface Efficiency>
0

>  <Assay Index>
562465

>  <Assay Category>


>  <Assay Organism>


>  <Target ID>
17045

>  <Target Name>
Cytochrome P450 3A4

>  <Target Organism>
Homo sapiens

>  <Target Description>
Target is a single protein chain

>  <Sequence Accession>
P08684

>  <Reference>
Bioorg Med Chem Lett 21 (3), 947-951 (2011)

>  <Pubmed ID>
21232954

>  <DOI>
10.1016/j.bmcl.2010.12.053

$$$$
1068366
Actelion Java MolfileCreator 1.0

 25 28  0  0  0  0  0  0  0  0999 V2000
    0.0000   -0.0000   -0.0000 F   0  0  0  0  0  0  0  0  0  0  0  0
   -0.3886   -1.4483   -0.0000 C   0  0  0  0  0  0  0  0  0  0  0  0
    1.0362   -1.8133   -0.0000 F   0  0  0  0  0  0  0  0  0  0  0  0
   -1.8251   -0.9773   -0.0000 C   0  0  0  0  0  0  0  0  0  0  0  0
   -0.4003   -2.9319   -0.0000 C   0  0  0  0  0  0  0  0  0  0  0  0
   -2.7200   -2.1783   -0.0000 N   0  0  0  0  0  0  0  0  0  0  0  0
   -1.8369   -3.3793   -0.0000 C   0  0  0  0  0  0  0  0  0  0  0  0
   -4.2271   -2.1665   -0.0000 C   0  0  0  0  0  0  0  0  0  0  0  0
   -4.9925   -0.8596   -0.0000 C   0  0  0  0  0  0  0  0  0  0  0  0
   -6.4996   -0.8478   -0.0000 C   0  0  0  0  0  0  0  0  0  0  0  0
   -7.3945   -2.0606   -0.0000 C   0  0  0  0  0  0  0  0  0  0  0  0
   -7.3945    0.3768   -0.0000 C   0  0  0  0  0  0  0  0  0  0  0  0
   -8.8428   -1.5778   -0.0000 C   0  0  0  0  0  0  0  0  0  0  0  0
   -6.9471   -3.4735   -0.0000 C   0  0  0  0  0  0  0  0  0  0  0  0
   -8.8428   -0.0824   -0.0000 C   0  0  0  0  0  0  0  0  0  0  0  0
  -10.1498   -2.3196   -0.0000 C   0  0  0  0  0  0  0  0  0  0  0  0
   -7.9597   -4.5686   -0.0000 C   0  0  0  0  0  0  0  0  0  0  0  0
  -10.1498    0.6712   -0.0000 C   0  0  0  0  0  0  0  0  0  0  0  0
  -11.4568   -1.5543   -0.0000 C   0  0  0  0  0  0  0  0  0  0  0  0
   -7.5005   -5.9698   -0.0000 N   0  0  0  0  0  0  0  0  0  0  0  0
   -9.4315   -4.2389   -0.0000 C   0  0  0  0  0  0  0  0  0  0  0  0
  -11.4568   -0.0706   -0.0000 C   0  0  0  0  0  0  0  0  0  0  0  0
   -8.5013   -7.0648   -0.0000 C   0  0  0  0  0  0  0  0  0  0  0  0
  -10.4442   -5.3339   -0.0000 N   0  0  0  0  0  0  0  0  0  0  0  0
   -9.9849   -6.7469   -0.0000 C   0  0  0  0  0  0  0  0  0  0  0  0
  1  2  1  0  0  0  0
  2  3  1  0  0  0  0
  2  4  1  0  0  0  0
  2  5  1  0  0  0  0
  4  6  1  0  0  0  0
  5  7  1  0  0  0  0
  6  8  1  0  0  0  0
  8  9  1  0  0  0  0
  9 10  1  0  0  0  0
 10 11  2  0  0  0  0
 10 12  1  0  0  0  0
 11 13  1  0  0  0  0
 11 14  1  0  0  0  0
 12 15  1  0  0  0  0
 13 16  1  0  0  0  0
 14 17  1  0  0  0  0
 15 18  1  0  0  0  0
 16 19  2  0  0  0  0
 17 20  2  0  0  0  0
 17 21  1  0  0  0  0
 18 22  2  0  0  0  0
 20 23  1  0  0  0  0
 21 24  2  0  0  0  0
 23 25  2  0  0  0  0
  6  7  1  0  0  0  0
 13 15  2  0  0  0  0
 19 22  1  0  0  0  0
 24 25  1  0  0  0  0
M  END
>  <MolRegNo>
1068366

>  <m>
=

>  <Value>
1405

>  <Unit>
nM

>  <Type>
IC50

>  <pValue>
5.85

>  <Ligand Efficiency>
0

>  <Binding Efficiency>
0

>  <Surface Efficiency>
0

>  <Assay Index>
562465

>  <Assay Category>


>  <Assay Organism>


>  <Target ID>
17045

>  <Target Name>
Cytochrome P450 3A4

>  <Target Organism>
Homo sapiens

>  <Target Description>
Target is a single protein chain

>  <Sequence Accession>
P08684

>  <Reference>
Bioorg Med Chem Lett 21 (3), 947-951 (2011)

>  <Pubmed ID>
21232954

>  <DOI>
10.1016/j.bmcl.2010.12.053

$$$$
1068368
Actelion Java MolfileCreator 1.0

 27 30  0  0  0  0  0  0  0  0999 V2000
    0.0000   -0.0000   -0.0000 O   0  0  0  0  0  0  0  0  0  0  0  0
   -0.8836    1.2252   -0.0000 C   0  0  0  0  0  0  0  0  0  0  0  0
    1.4137    0.4712   -0.0000 C   0  0  0  0  0  0  0  0  0  0  0  0
   -0.0236    2.4387   -0.0000 C   0  0  0  0  0  0  0  0  0  0  0  0
   -2.3915    1.2370   -0.0000 C   0  0  0  0  0  0  0  0  0  0  0  0
    1.4019    1.9792   -0.0000 C   0  0  0  0  0  0  0  0  0  0  0  0
   -3.1455    2.5447   -0.0000 N   0  0  0  0  0  0  0  0  0  0  0  0
   -4.6535    2.5565   -0.0000 C   0  0  0  0  0  0  0  0  0  0  0  0
   -2.4151    3.8524   -0.0000 C   0  0  0  0  0  0  0  0  0  0  0  0
   -5.4075    3.8642   -0.0000 C   0  0  0  0  0  0  0  0  0  0  0  0
   -6.9155    3.8760   -0.0000 C   0  0  0  0  0  0  0  0  0  0  0  0
   -7.8108    2.6743   -0.0000 C   0  0  0  0  0  0  0  0  0  0  0  0
   -7.8108    5.1012   -0.0000 C   0  0  0  0  0  0  0  0  0  0  0  0
   -9.2599    3.1455   -0.0000 C   0  0  0  0  0  0  0  0  0  0  0  0
   -7.3631    1.2606   -0.0000 C   0  0  0  0  0  0  0  0  0  0  0  0
   -9.2481    4.6417   -0.0000 C   0  0  0  0  0  0  0  0  0  0  0  0
  -10.5676    2.4151   -0.0000 C   0  0  0  0  0  0  0  0  0  0  0  0
   -8.3763    0.1649   -0.0000 C   0  0  0  0  0  0  0  0  0  0  0  0
   -5.9141    0.9660   -0.0000 C   0  0  0  0  0  0  0  0  0  0  0  0
  -10.5558    5.3957   -0.0000 C   0  0  0  0  0  0  0  0  0  0  0  0
  -11.8753    3.1691   -0.0000 C   0  0  0  0  0  0  0  0  0  0  0  0
   -7.9168   -1.2370   -0.0000 N   0  0  0  0  0  0  0  0  0  0  0  0
   -9.8489    0.4948   -0.0000 C   0  0  0  0  0  0  0  0  0  0  0  0
  -11.8517    4.6653   -0.0000 C   0  0  0  0  0  0  0  0  0  0  0  0
   -8.9182   -2.3326   -0.0000 C   0  0  0  0  0  0  0  0  0  0  0  0
  -10.8621   -0.6008   -0.0000 N   0  0  0  0  0  0  0  0  0  0  0  0
  -10.4026   -2.0146   -0.0000 C   0  0  0  0  0  0  0  0  0  0  0  0
  1  2  1  0  0  0  0
  1  3  1  0  0  0  0
  2  4  2  0  0  0  0
  2  5  1  0  0  0  0
  3  6  2  0  0  0  0
  5  7  1  0  0  0  0
  7  8  1  0  0  0  0
  7  9  1  0  0  0  0
  8 10  1  0  0  0  0
 10 11  1  0  0  0  0
 11 12  2  0  0  0  0
 11 13  1  0  0  0  0
 12 14  1  0  0  0  0
 12 15  1  0  0  0  0
 13 16  1  0  0  0  0
 14 17  1  0  0  0  0
 15 18  1  0  0  0  0
 15 19  1  6  0  0  0
 16 20  1  0  0  0  0
 17 21  2  0  0  0  0
 18 22  2  0  0  0  0
 18 23  1  0  0  0  0
 20 24  2  0  0  0  0
 22 25  1  0  0  0  0
 23 26  2  0  0  0  0
 25 27  2  0  0  0  0
  4  6  1  0  0  0  0
 14 16  2  0  0  0  0
 21 24  1  0  0  0  0
 26 27  1  0  0  0  0
M  END
>  <MolRegNo>
1068368

>  <m>
=

>  <Value>
2751

>  <Unit>
nM

>  <Type>
IC50

>  <pValue>
5.56

>  <Ligand Efficiency>
0

>  <Binding Efficiency>
0

>  <Surface Efficiency>
0

>  <Assay Index>
562465

>  <Assay Category>


>  <Assay Organism>


>  <Target ID>
17045

>  <Target Name>
Cytochrome P450 3A4

>  <Target Organism>
Homo sapiens

>  <Target Description>
Target is a single protein chain

>  <Sequence Accession>
P08684

>  <Reference>
Bioorg Med Chem Lett 21 (3), 947-951 (2011)

>  <Pubmed ID>
21232954

>  <DOI>
10.1016/j.bmcl.2010.12.053

$$$$
1068369
Actelion Java MolfileCreator 1.0

 27 30  0  0  0  0  0  0  0  0999 V2000
    0.0000   -0.0000   -0.0000 S   0  0  0  0  0  0  0  0  0  0  0  0
   -0.8836    1.2252   -0.0000 C   0  0  0  0  0  0  0  0  0  0  0  0
    1.4137    0.4712   -0.0000 C   0  0  0  0  0  0  0  0  0  0  0  0
   -0.0236    2.4387   -0.0000 C   0  0  0  0  0  0  0  0  0  0  0  0
   -2.3915    1.2370   -0.0000 C   0  0  0  0  0  0  0  0  0  0  0  0
    1.4019    1.9792   -0.0000 C   0  0  0  0  0  0  0  0  0  0  0  0
   -3.1455    2.5447   -0.0000 N   0  0  0  0  0  0  0  0  0  0  0  0
   -4.6535    2.5565   -0.0000 C   0  0  0  0  0  0  0  0  0  0  0  0
   -2.4151    3.8524   -0.0000 C   0  0  0  0  0  0  0  0  0  0  0  0
   -5.4075    3.8642   -0.0000 C   0  0  0  0  0  0  0  0  0  0  0  0
   -6.9155    3.8760   -0.0000 C   0  0  0  0  0  0  0  0  0  0  0  0
   -7.8108    2.6743   -0.0000 C   0  0  0  0  0  0  0  0  0  0  0  0
   -7.8108    5.1012   -0.0000 C   0  0  0  0  0  0  0  0  0  0  0  0
   -9.2599    3.1455   -0.0000 C   0  0  0  0  0  0  0  0  0  0  0  0
   -7.3631    1.2606   -0.0000 C   0  0  0  0  0  0  0  0  0  0  0  0
   -9.2481    4.6417   -0.0000 C   0  0  0  0  0  0  0  0  0  0  0  0
  -10.5676    2.4151   -0.0000 C   0  0  0  0  0  0  0  0  0  0  0  0
   -8.3763    0.1649   -0.0000 C   0  0  0  0  0  0  0  0  0  0  0  0
   -5.9141    0.9660   -0.0000 C   0  0  0  0  0  0  0  0  0  0  0  0
  -10.5558    5.3957   -0.0000 C   0  0  0  0  0  0  0  0  0  0  0  0
  -11.8753    3.1691   -0.0000 C   0  0  0  0  0  0  0  0  0  0  0  0
   -7.9168   -1.2370   -0.0000 N   0  0  0  0  0  0  0  0  0  0  0  0
   -9.8489    0.4948   -0.0000 C   0  0  0  0  0  0  0  0  0  0  0  0
  -11.8517    4.6653   -0.0000 C   0  0  0  0  0  0  0  0  0  0  0  0
   -8.9182   -2.3326   -0.0000 C   0  0  0  0  0  0  0  0  0  0  0  0
  -10.8621   -0.6008   -0.0000 N   0  0  0  0  0  0  0  0  0  0  0  0
  -10.4026   -2.0146   -0.0000 C   0  0  0  0  0  0  0  0  0  0  0  0
  1  2  1  0  0  0  0
  1  3  1  0  0  0  0
  2  4  2  0  0  0  0
  2  5  1  0  0  0  0
  3  6  2  0  0  0  0
  5  7  1  0  0  0  0
  7  8  1  0  0  0  0
  7  9  1  0  0  0  0
  8 10  1  0  0  0  0
 10 11  1  0  0  0  0
 11 12  2  0  0  0  0
 11 13  1  0  0  0  0
 12 14  1  0  0  0  0
 12 15  1  0  0  0  0
 13 16  1  0  0  0  0
 14 17  1  0  0  0  0
 15 18  1  0  0  0  0
 15 19  1  6  0  0  0
 16 20  1  0  0  0  0
 17 21  2  0  0  0  0
 18 22  2  0  0  0  0
 18 23  1  0  0  0  0
 20 24  2  0  0  0  0
 22 25  1  0  0  0  0
 23 26  2  0  0  0  0
 25 27  2  0  0  0  0
  4  6  1  0  0  0  0
 14 16  2  0  0  0  0
 21 24  1  0  0  0  0
 26 27  1  0  0  0  0
M  END
>  <MolRegNo>
1068369

>  <m>
=

>  <Value>
1826

>  <Unit>
nM

>  <Type>
IC50

>  <pValue>
5.74

>  <Ligand Efficiency>
0

>  <Binding Efficiency>
0

>  <Surface Efficiency>
0

>  <Assay Index>
562465

>  <Assay Category>


>  <Assay Organism>


>  <Target ID>
17045

>  <Target Name>
Cytochrome P450 3A4

>  <Target Organism>
Homo sapiens

>  <Target Description>
Target is a single protein chain

>  <Sequence Accession>
P08684

>  <Reference>
Bioorg Med Chem Lett 21 (3), 947-951 (2011)

>  <Pubmed ID>
21232954

>  <DOI>
10.1016/j.bmcl.2010.12.053

$$$$
1068370
Actelion Java MolfileCreator 1.0

 27 30  0  0  0  0  0  0  0  0999 V2000
    0.0000   -0.0000   -0.0000 S   0  0  0  0  0  0  0  0  0  0  0  0
   -0.8838    1.2255   -0.0000 C   0  0  0  0  0  0  0  0  0  0  0  0
    1.4141    0.4714   -0.0000 C   0  0  0  0  0  0  0  0  0  0  0  0
   -0.0236    2.4393   -0.0000 N   0  0  0  0  0  0  0  0  0  0  0  0
   -2.3921    1.2373   -0.0000 C   0  0  0  0  0  0  0  0  0  0  0  0
    1.4023    1.9797   -0.0000 C   0  0  0  0  0  0  0  0  0  0  0  0
   -3.1463    2.5453   -0.0000 N   0  0  0  0  0  0  0  0  0  0  0  0
   -4.6547    2.5571   -0.0000 C   0  0  0  0  0  0  0  0  0  0  0  0
   -2.4157    3.8534   -0.0000 C   0  0  0  0  0  0  0  0  0  0  0  0
   -5.4088    3.8651   -0.0000 C   0  0  0  0  0  0  0  0  0  0  0  0
   -6.9172    3.8769   -0.0000 C   0  0  0  0  0  0  0  0  0  0  0  0
   -7.8128    2.6750   -0.0000 C   0  0  0  0  0  0  0  0  0  0  0  0
   -7.8128    5.1025   -0.0000 C   0  0  0  0  0  0  0  0  0  0  0  0
   -9.2504    3.1463   -0.0000 C   0  0  0  0  0  0  0  0  0  0  0  0
   -7.3650    1.2609   -0.0000 C   0  0  0  0  0  0  0  0  0  0  0  0
   -9.2504    4.6429   -0.0000 C   0  0  0  0  0  0  0  0  0  0  0  0
  -10.5585    2.4157   -0.0000 C   0  0  0  0  0  0  0  0  0  0  0  0
   -8.3784    0.1650   -0.0000 C   0  0  0  0  0  0  0  0  0  0  0  0
   -5.9156    0.9663   -0.0000 C   0  0  0  0  0  0  0  0  0  0  0  0
  -10.5585    5.3971   -0.0000 C   0  0  0  0  0  0  0  0  0  0  0  0
  -11.8665    3.1699   -0.0000 C   0  0  0  0  0  0  0  0  0  0  0  0
   -7.9188   -1.2373   -0.0000 N   0  0  0  0  0  0  0  0  0  0  0  0
   -9.8514    0.4949   -0.0000 C   0  0  0  0  0  0  0  0  0  0  0  0
  -11.8547    4.6665   -0.0000 C   0  0  0  0  0  0  0  0  0  0  0  0
   -8.9205   -2.3332   -0.0000 C   0  0  0  0  0  0  0  0  0  0  0  0
  -10.8648   -0.6010   -0.0000 N   0  0  0  0  0  0  0  0  0  0  0  0
  -10.4053   -2.0151   -0.0000 C   0  0  0  0  0  0  0  0  0  0  0  0
  1  2  1  0  0  0  0
  1  3  1  0  0  0  0
  2  4  2  0  0  0  0
  2  5  1  0  0  0  0
  3  6  2  0  0  0  0
  5  7  1  0  0  0  0
  7  8  1  0  0  0  0
  7  9  1  0  0  0  0
  8 10  1  0  0  0  0
 10 11  1  0  0  0  0
 11 12  2  0  0  0  0
 11 13  1  0  0  0  0
 12 14  1  0  0  0  0
 12 15  1  0  0  0  0
 13 16  1  0  0  0  0
 14 17  1  0  0  0  0
 15 18  1  0  0  0  0
 15 19  1  6  0  0  0
 16 20  1  0  0  0  0
 17 21  2  0  0  0  0
 18 22  2  0  0  0  0
 18 23  1  0  0  0  0
 20 24  2  0  0  0  0
 22 25  1  0  0  0  0
 23 26  2  0  0  0  0
 25 27  2  0  0  0  0
  4  6  1  0  0  0  0
 14 16  2  0  0  0  0
 21 24  1  0  0  0  0
 26 27  1  0  0  0  0
M  END
>  <MolRegNo>
1068370

>  <m>
=

>  <Value>
2820

>  <Unit>
nM

>  <Type>
IC50

>  <pValue>
5.55

>  <Ligand Efficiency>
0

>  <Binding Efficiency>
0

>  <Surface Efficiency>
0

>  <Assay Index>
562465

>  <Assay Category>


>  <Assay Organism>


>  <Target ID>
17045

>  <Target Name>
Cytochrome P450 3A4

>  <Target Organism>
Homo sapiens

>  <Target Description>
Target is a single protein chain

>  <Sequence Accession>
P08684

>  <Reference>
Bioorg Med Chem Lett 21 (3), 947-951 (2011)

>  <Pubmed ID>
21232954

>  <DOI>
10.1016/j.bmcl.2010.12.053

$$$$
1068371
Actelion Java MolfileCreator 1.0

 27 30  0  0  0  0  0  0  0  0999 V2000
    0.0000   -0.0000   -0.0000 O   0  0  0  0  0  0  0  0  0  0  0  0
   -0.8834    1.2249   -0.0000 C   0  0  0  0  0  0  0  0  0  0  0  0
    1.4134    0.4711   -0.0000 C   0  0  0  0  0  0  0  0  0  0  0  0
   -0.0236    2.4381   -0.0000 N   0  0  0  0  0  0  0  0  0  0  0  0
   -2.3910    1.2367   -0.0000 C   0  0  0  0  0  0  0  0  0  0  0  0
    1.4016    1.9787   -0.0000 C   0  0  0  0  0  0  0  0  0  0  0  0
   -3.1448    2.5441   -0.0000 N   0  0  0  0  0  0  0  0  0  0  0  0
   -4.6524    2.5559   -0.0000 C   0  0  0  0  0  0  0  0  0  0  0  0
   -2.4145    3.8514   -0.0000 C   0  0  0  0  0  0  0  0  0  0  0  0
   -5.4062    3.8632   -0.0000 C   0  0  0  0  0  0  0  0  0  0  0  0
   -6.9138    3.8750   -0.0000 C   0  0  0  0  0  0  0  0  0  0  0  0
   -7.8089    2.6736   -0.0000 C   0  0  0  0  0  0  0  0  0  0  0  0
   -7.8089    5.0999   -0.0000 C   0  0  0  0  0  0  0  0  0  0  0  0
   -9.2576    3.1448   -0.0000 C   0  0  0  0  0  0  0  0  0  0  0  0
   -7.3613    1.2603   -0.0000 C   0  0  0  0  0  0  0  0  0  0  0  0
   -9.2576    4.6406   -0.0000 C   0  0  0  0  0  0  0  0  0  0  0  0
  -10.5650    2.4145   -0.0000 C   0  0  0  0  0  0  0  0  0  0  0  0
   -8.3742    0.1649   -0.0000 C   0  0  0  0  0  0  0  0  0  0  0  0
   -5.9126    0.9658   -0.0000 C   0  0  0  0  0  0  0  0  0  0  0  0
  -10.5650    5.3944   -0.0000 C   0  0  0  0  0  0  0  0  0  0  0  0
  -11.8723    3.1683   -0.0000 C   0  0  0  0  0  0  0  0  0  0  0  0
   -7.9149   -1.2367   -0.0000 N   0  0  0  0  0  0  0  0  0  0  0  0
   -9.8465    0.4947   -0.0000 C   0  0  0  0  0  0  0  0  0  0  0  0
  -11.8606    4.6641   -0.0000 C   0  0  0  0  0  0  0  0  0  0  0  0
   -8.9160   -2.3321   -0.0000 C   0  0  0  0  0  0  0  0  0  0  0  0
  -10.8594   -0.6007   -0.0000 N   0  0  0  0  0  0  0  0  0  0  0  0
  -10.4001   -2.0141   -0.0000 C   0  0  0  0  0  0  0  0  0  0  0  0
  1  2  1  0  0  0  0
  1  3  1  0  0  0  0
  2  4  2  0  0  0  0
  2  5  1  0  0  0  0
  3  6  2  0  0  0  0
  5  7  1  0  0  0  0
  7  8  1  0  0  0  0
  7  9  1  0  0  0  0
  8 10  1  0  0  0  0
 10 11  1  0  0  0  0
 11 12  2  0  0  0  0
 11 13  1  0  0  0  0
 12 14  1  0  0  0  0
 12 15  1  0  0  0  0
 13 16  1  0  0  0  0
 14 17  1  0  0  0  0
 15 18  1  0  0  0  0
 15 19  1  6  0  0  0
 16 20  1  0  0  0  0
 17 21  2  0  0  0  0
 18 22  2  0  0  0  0
 18 23  1  0  0  0  0
 20 24  2  0  0  0  0
 22 25  1  0  0  0  0
 23 26  2  0  0  0  0
 25 27  2  0  0  0  0
  4  6  1  0  0  0  0
 14 16  2  0  0  0  0
 21 24  1  0  0  0  0
 26 27  1  0  0  0  0
M  END
>  <MolRegNo>
1068371

>  <m>
=

>  <Value>
4840

>  <Unit>
nM

>  <Type>
IC50

>  <pValue>
5.32

>  <Ligand Efficiency>
0

>  <Binding Efficiency>
0

>  <Surface Efficiency>
0

>  <Assay Index>
562465

>  <Assay Category>


>  <Assay Organism>


>  <Target ID>
17045

>  <Target Name>
Cytochrome P450 3A4

>  <Target Organism>
Homo sapiens

>  <Target Description>
Target is a single protein chain

>  <Sequence Accession>
P08684

>  <Reference>
Bioorg Med Chem Lett 21 (3), 947-951 (2011)

>  <Pubmed ID>
21232954

>  <DOI>
10.1016/j.bmcl.2010.12.053

$$$$
1068372
Actelion Java MolfileCreator 1.0

 27 30  0  0  0  0  0  0  0  0999 V2000
    0.0000   -0.0000   -0.0000 N   0  0  0  0  0  0  0  0  0  0  0  0
   -0.4749    1.4248   -0.0000 C   0  0  0  0  0  0  0  0  0  0  0  0
   -1.0092   -1.1042   -0.0000 C   0  0  0  0  0  0  0  0  0  0  0  0
   -1.9472    1.7454   -0.0000 C   0  0  0  0  0  0  0  0  0  0  0  0
    0.5106    2.5528   -0.0000 C   0  0  0  0  0  0  0  0  0  0  0  0
   -2.4934   -0.7836   -0.0000 C   0  0  0  0  0  0  0  0  0  0  0  0
   -2.9564    0.6412   -0.0000 N   0  0  0  0  0  0  0  0  0  0  0  0
    0.0356    3.9894   -0.0000 C   0  0  0  0  0  0  0  0  0  0  0  0
    1.9591    2.2559   -0.0000 C   0  0  0  0  0  0  0  0  0  0  0  0
   -1.4129    4.4644   -0.0000 C   0  0  0  0  0  0  0  0  0  0  0  0
    0.9142    5.2242   -0.0000 C   0  0  0  0  0  0  0  0  0  0  0  0
   -1.4248    5.9841   -0.0000 C   0  0  0  0  0  0  0  0  0  0  0  0
   -2.7190    3.7282   -0.0000 C   0  0  0  0  0  0  0  0  0  0  0  0
    0.0119    6.4591   -0.0000 C   0  0  0  0  0  0  0  0  0  0  0  0
    2.3984    5.2361   -0.0000 C   0  0  0  0  0  0  0  0  0  0  0  0
   -2.7309    6.7440   -0.0000 C   0  0  0  0  0  0  0  0  0  0  0  0
   -4.0250    4.4881   -0.0000 C   0  0  0  0  0  0  0  0  0  0  0  0
    3.1345    3.9538   -0.0000 C   0  0  0  0  0  0  0  0  0  0  0  0
   -4.0369    6.0079   -0.0000 C   0  0  0  0  0  0  0  0  0  0  0  0
    4.6187    3.9657   -0.0000 N   0  0  0  0  0  0  0  0  0  0  0  0
    5.3548    2.6834   -0.0000 C   0  0  0  0  0  0  0  0  0  0  0  0
    5.3548    5.2717   -0.0000 C   0  0  0  0  0  0  0  0  0  0  0  0
    6.8390    2.6952   -0.0000 C   0  0  0  0  0  0  0  0  0  0  0  0
    7.6939    3.9182   -0.0000 N   0  0  0  0  0  0  0  0  0  0  0  0
    7.7058    1.4960   -0.0000 N   0  0  0  0  0  0  0  0  0  0  0  0
    9.1068    3.4670   -0.0000 C   0  0  0  0  0  0  0  0  0  0  0  0
    9.1187    1.9710   -0.0000 C   0  0  0  0  0  0  0  0  0  0  0  0
  1  2  2  0  0  0  0
  1  3  1  0  0  0  0
  2  4  1  0  0  0  0
  2  5  1  0  0  0  0
  3  6  2  0  0  0  0
  4  7  2  0  0  0  0
  5  8  1  0  0  0  0
  5  9  1  6  0  0  0
  8 10  1  0  0  0  0
  8 11  2  0  0  0  0
 10 12  2  0  0  0  0
 10 13  1  0  0  0  0
 11 14  1  0  0  0  0
 11 15  1  0  0  0  0
 12 16  1  0  0  0  0
 13 17  2  0  0  0  0
 15 18  1  0  0  0  0
 16 19  2  0  0  0  0
 18 20  1  0  0  0  0
 20 21  1  0  0  0  0
 20 22  1  0  0  0  0
 21 23  1  0  0  0  0
 23 24  2  0  0  0  0
 23 25  1  0  0  0  0
 24 26  1  0  0  0  0
 25 27  1  0  0  0  0
  6  7  1  0  0  0  0
 12 14  1  0  0  0  0
 17 19  1  0  0  0  0
 26 27  2  0  0  0  0
M  END
>  <MolRegNo>
1068372

>  <m>
=

>  <Value>
4416

>  <Unit>
nM

>  <Type>
IC50

>  <pValue>
5.36

>  <Ligand Efficiency>
0

>  <Binding Efficiency>
0

>  <Surface Efficiency>
0

>  <Assay Index>
562465

>  <Assay Category>


>  <Assay Organism>


>  <Target ID>
17045

>  <Target Name>
Cytochrome P450 3A4

>  <Target Organism>
Homo sapiens

>  <Target Description>
Target is a single protein chain

>  <Sequence Accession>
P08684

>  <Reference>
Bioorg Med Chem Lett 21 (3), 947-951 (2011)

>  <Pubmed ID>
21232954

>  <DOI>
10.1016/j.bmcl.2010.12.053

$$$$
1068373
Actelion Java MolfileCreator 1.0

 28 31  0  0  0  0  0  0  0  0999 V2000
    0.0000   -0.0000   -0.0000 N   0  0  0  0  0  0  0  0  0  0  0  0
   -0.4750    1.4251   -0.0000 C   0  0  0  0  0  0  0  0  0  0  0  0
   -1.0094   -1.1044   -0.0000 C   0  0  0  0  0  0  0  0  0  0  0  0
   -1.9476    1.7457   -0.0000 C   0  0  0  0  0  0  0  0  0  0  0  0
    0.5107    2.5533   -0.0000 C   0  0  0  0  0  0  0  0  0  0  0  0
   -2.4939   -0.7838   -0.0000 C   0  0  0  0  0  0  0  0  0  0  0  0
   -2.9570    0.6413   -0.0000 N   0  0  0  0  0  0  0  0  0  0  0  0
    0.0356    3.9902   -0.0000 C   0  0  0  0  0  0  0  0  0  0  0  0
    1.9595    2.2564   -0.0000 C   0  0  0  0  0  0  0  0  0  0  0  0
   -1.4132    4.4653   -0.0000 C   0  0  0  0  0  0  0  0  0  0  0  0
    0.9144    5.2253   -0.0000 C   0  0  0  0  0  0  0  0  0  0  0  0
   -1.4251    5.9853   -0.0000 C   0  0  0  0  0  0  0  0  0  0  0  0
   -2.7195    3.7290   -0.0000 C   0  0  0  0  0  0  0  0  0  0  0  0
    0.0119    6.4604   -0.0000 C   0  0  0  0  0  0  0  0  0  0  0  0
    2.3989    5.2372   -0.0000 C   0  0  0  0  0  0  0  0  0  0  0  0
   -2.7314    6.7454   -0.0000 C   0  0  0  0  0  0  0  0  0  0  0  0
   -4.0259    4.4890   -0.0000 C   0  0  0  0  0  0  0  0  0  0  0  0
    3.1352    3.9546   -0.0000 C   0  0  0  0  0  0  0  0  0  0  0  0
   -4.0377    6.0091   -0.0000 C   0  0  0  0  0  0  0  0  0  0  0  0
    4.6196    3.9665   -0.0000 N   0  0  0  0  0  0  0  0  0  0  0  0
    5.3559    2.6839   -0.0000 C   0  0  0  0  0  0  0  0  0  0  0  0
    5.3559    5.2728   -0.0000 C   0  0  0  0  0  0  0  0  0  0  0  0
    6.8404    2.6958   -0.0000 C   0  0  0  0  0  0  0  0  0  0  0  0
    7.6954    3.9190   -0.0000 N   0  0  0  0  0  0  0  0  0  0  0  0
    7.7073    1.4963   -0.0000 N   0  0  0  0  0  0  0  0  0  0  0  0
    9.1086    3.4677   -0.0000 C   0  0  0  0  0  0  0  0  0  0  0  0
    9.1205    1.9714   -0.0000 C   0  0  0  0  0  0  0  0  0  0  0  0
    7.2323    0.0831   -0.0000 C   0  0  0  0  0  0  0  0  0  0  0  0
  1  2  2  0  0  0  0
  1  3  1  0  0  0  0
  2  4  1  0  0  0  0
  2  5  1  0  0  0  0
  3  6  2  0  0  0  0
  4  7  2  0  0  0  0
  5  8  1  0  0  0  0
  5  9  1  6  0  0  0
  8 10  1  0  0  0  0
  8 11  2  0  0  0  0
 10 12  2  0  0  0  0
 10 13  1  0  0  0  0
 11 14  1  0  0  0  0
 11 15  1  0  0  0  0
 12 16  1  0  0  0  0
 13 17  2  0  0  0  0
 15 18  1  0  0  0  0
 16 19  2  0  0  0  0
 18 20  1  0  0  0  0
 20 21  1  0  0  0  0
 20 22  1  0  0  0  0
 21 23  1  0  0  0  0
 23 24  2  0  0  0  0
 23 25  1  0  0  0  0
 24 26  1  0  0  0  0
 25 27  1  0  0  0  0
 25 28  1  0  0  0  0
  6  7  1  0  0  0  0
 12 14  1  0  0  0  0
 17 19  1  0  0  0  0
 26 27  2  0  0  0  0
M  END
>  <MolRegNo>
1068373

>  <m>
=

>  <Value>
1535

>  <Unit>
nM

>  <Type>
IC50

>  <pValue>
5.81

>  <Ligand Efficiency>
0

>  <Binding Efficiency>
0

>  <Surface Efficiency>
0

>  <Assay Index>
562465

>  <Assay Category>


>  <Assay Organism>


>  <Target ID>
17045

>  <Target Name>
Cytochrome P450 3A4

>  <Target Organism>
Homo sapiens

>  <Target Description>
Target is a single protein chain

>  <Sequence Accession>
P08684

>  <Reference>
Bioorg Med Chem Lett 21 (3), 947-951 (2011)

>  <Pubmed ID>
21232954

>  <DOI>
10.1016/j.bmcl.2010.12.053

$$$$
1068374
Actelion Java MolfileCreator 1.0

 28 31  0  0  0  0  0  0  0  0999 V2000
    0.0000   -0.0000   -0.0000 N   0  0  0  0  0  0  0  0  0  0  0  0
   -0.4749    1.4247   -0.0000 C   0  0  0  0  0  0  0  0  0  0  0  0
   -1.0092   -1.1042   -0.0000 C   0  0  0  0  0  0  0  0  0  0  0  0
   -1.9471    1.7453   -0.0000 C   0  0  0  0  0  0  0  0  0  0  0  0
    0.5105    2.5527   -0.0000 C   0  0  0  0  0  0  0  0  0  0  0  0
   -2.4933   -0.7836   -0.0000 C   0  0  0  0  0  0  0  0  0  0  0  0
   -2.9563    0.6411   -0.0000 N   0  0  0  0  0  0  0  0  0  0  0  0
    0.0356    3.9893   -0.0000 C   0  0  0  0  0  0  0  0  0  0  0  0
    1.9590    2.2558   -0.0000 C   0  0  0  0  0  0  0  0  0  0  0  0
   -1.4129    4.4642   -0.0000 C   0  0  0  0  0  0  0  0  0  0  0  0
    0.9142    5.2240   -0.0000 C   0  0  0  0  0  0  0  0  0  0  0  0
   -1.4247    5.9839   -0.0000 C   0  0  0  0  0  0  0  0  0  0  0  0
   -2.7189    3.7281   -0.0000 C   0  0  0  0  0  0  0  0  0  0  0  0
    0.0119    6.4588   -0.0000 C   0  0  0  0  0  0  0  0  0  0  0  0
    2.3983    5.2359   -0.0000 C   0  0  0  0  0  0  0  0  0  0  0  0
   -2.7307    6.7438   -0.0000 C   0  0  0  0  0  0  0  0  0  0  0  0
   -4.0368    4.4879   -0.0000 C   0  0  0  0  0  0  0  0  0  0  0  0
    3.1344    3.9536   -0.0000 C   0  0  0  0  0  0  0  0  0  0  0  0
   -4.0486    6.0076   -0.0000 C   0  0  0  0  0  0  0  0  0  0  0  0
    4.6185    3.9655   -0.0000 N   0  0  0  0  0  0  0  0  0  0  0  0
    5.3546    2.6833   -0.0000 C   0  0  0  0  0  0  0  0  0  0  0  0
    5.3546    5.2715   -0.0000 C   0  0  0  0  0  0  0  0  0  0  0  0
    6.8387    2.6951   -0.0000 C   0  0  0  0  0  0  0  0  0  0  0  0
    7.5630    1.4129   -0.0000 N   0  0  0  0  0  0  0  0  0  0  0  0
    7.5630    4.0011   -0.0000 C   0  0  0  0  0  0  0  0  0  0  0  0
    9.0471    1.4247   -0.0000 C   0  0  0  0  0  0  0  0  0  0  0  0
    9.0471    4.0249   -0.0000 C   0  0  0  0  0  0  0  0  0  0  0  0
    9.7832    2.7307   -0.0000 C   0  0  0  0  0  0  0  0  0  0  0  0
  1  2  2  0  0  0  0
  1  3  1  0  0  0  0
  2  4  1  0  0  0  0
  2  5  1  0  0  0  0
  3  6  2  0  0  0  0
  4  7  2  0  0  0  0
  5  8  1  0  0  0  0
  5  9  1  6  0  0  0
  8 10  1  0  0  0  0
  8 11  2  0  0  0  0
 10 12  2  0  0  0  0
 10 13  1  0  0  0  0
 11 14  1  0  0  0  0
 11 15  1  0  0  0  0
 12 16  1  0  0  0  0
 13 17  2  0  0  0  0
 15 18  1  0  0  0  0
 16 19  2  0  0  0  0
 18 20  1  0  0  0  0
 20 21  1  0  0  0  0
 20 22  1  0  0  0  0
 21 23  1  0  0  0  0
 23 24  2  0  0  0  0
 23 25  1  0  0  0  0
 24 26  1  0  0  0  0
 25 27  2  0  0  0  0
 26 28  2  0  0  0  0
  6  7  1  0  0  0  0
 12 14  1  0  0  0  0
 17 19  1  0  0  0  0
 27 28  1  0  0  0  0
M  END
>  <MolRegNo>
1068374

>  <m>
=

>  <Value>
4783

>  <Unit>
nM

>  <Type>
IC50

>  <pValue>
5.32

>  <Ligand Efficiency>
0

>  <Binding Efficiency>
0

>  <Surface Efficiency>
0

>  <Assay Index>
562465

>  <Assay Category>


>  <Assay Organism>


>  <Target ID>
17045

>  <Target Name>
Cytochrome P450 3A4

>  <Target Organism>
Homo sapiens

>  <Target Description>
Target is a single protein chain

>  <Sequence Accession>
P08684

>  <Reference>
Bioorg Med Chem Lett 21 (3), 947-951 (2011)

>  <Pubmed ID>
21232954

>  <DOI>
10.1016/j.bmcl.2010.12.053

$$$$
1068375
Actelion Java MolfileCreator 1.0

 28 31  0  0  0  0  0  0  0  0999 V2000
    0.0000   -0.0000   -0.0000 N   0  0  0  0  0  0  0  0  0  0  0  0
   -0.4751    1.4254   -0.0000 C   0  0  0  0  0  0  0  0  0  0  0  0
   -1.0096   -1.1047   -0.0000 C   0  0  0  0  0  0  0  0  0  0  0  0
   -1.9480    1.7461   -0.0000 C   0  0  0  0  0  0  0  0  0  0  0  0
    0.5108    2.5538   -0.0000 C   0  0  0  0  0  0  0  0  0  0  0  0
   -2.4944   -0.7840   -0.0000 C   0  0  0  0  0  0  0  0  0  0  0  0
   -2.9576    0.6414   -0.0000 N   0  0  0  0  0  0  0  0  0  0  0  0
    0.0356    3.9910   -0.0000 C   0  0  0  0  0  0  0  0  0  0  0  0
    1.9599    2.2568   -0.0000 C   0  0  0  0  0  0  0  0  0  0  0  0
   -1.4135    4.4662   -0.0000 C   0  0  0  0  0  0  0  0  0  0  0  0
    0.9146    5.2264   -0.0000 C   0  0  0  0  0  0  0  0  0  0  0  0
   -1.4254    5.9866   -0.0000 C   0  0  0  0  0  0  0  0  0  0  0  0
   -2.7201    3.7297   -0.0000 C   0  0  0  0  0  0  0  0  0  0  0  0
    0.0119    6.4617   -0.0000 C   0  0  0  0  0  0  0  0  0  0  0  0
    2.3994    5.2382   -0.0000 C   0  0  0  0  0  0  0  0  0  0  0  0
   -2.7320    6.7468   -0.0000 C   0  0  0  0  0  0  0  0  0  0  0  0
   -4.0267    4.4899   -0.0000 C   0  0  0  0  0  0  0  0  0  0  0  0
    3.1358    3.9554   -0.0000 C   0  0  0  0  0  0  0  0  0  0  0  0
   -4.0385    6.0103   -0.0000 C   0  0  0  0  0  0  0  0  0  0  0  0
    4.6206    3.9673   -0.0000 N   0  0  0  0  0  0  0  0  0  0  0  0
    5.3570    2.6844   -0.0000 C   0  0  0  0  0  0  0  0  0  0  0  0
    5.3570    5.2739   -0.0000 C   0  0  0  0  0  0  0  0  0  0  0  0
    6.8418    2.6963   -0.0000 C   0  0  0  0  0  0  0  0  0  0  0  0
    7.5663    1.4135   -0.0000 C   0  0  0  0  0  0  0  0  0  0  0  0
    7.5663    4.0029   -0.0000 C   0  0  0  0  0  0  0  0  0  0  0  0
    9.0511    1.4254   -0.0000 C   0  0  0  0  0  0  0  0  0  0  0  0
    9.0511    4.0267   -0.0000 C   0  0  0  0  0  0  0  0  0  0  0  0
    9.7875    2.7320   -0.0000 N   0  0  0  0  0  0  0  0  0  0  0  0
  1  2  2  0  0  0  0
  1  3  1  0  0  0  0
  2  4  1  0  0  0  0
  2  5  1  0  0  0  0
  3  6  2  0  0  0  0
  4  7  2  0  0  0  0
  5  8  1  0  0  0  0
  5  9  1  6  0  0  0
  8 10  1  0  0  0  0
  8 11  2  0  0  0  0
 10 12  2  0  0  0  0
 10 13  1  0  0  0  0
 11 14  1  0  0  0  0
 11 15  1  0  0  0  0
 12 16  1  0  0  0  0
 13 17  2  0  0  0  0
 15 18  1  0  0  0  0
 16 19  2  0  0  0  0
 18 20  1  0  0  0  0
 20 21  1  0  0  0  0
 20 22  1  0  0  0  0
 21 23  1  0  0  0  0
 23 24  2  0  0  0  0
 23 25  1  0  0  0  0
 24 26  1  0  0  0  0
 25 27  2  0  0  0  0
 26 28  2  0  0  0  0
  6  7  1  0  0  0  0
 12 14  1  0  0  0  0
 17 19  1  0  0  0  0
 27 28  1  0  0  0  0
M  END
>  <MolRegNo>
1068375

>  <m>
=

>  <Value>
1281

>  <Unit>
nM

>  <Type>
IC50

>  <pValue>
5.89

>  <Ligand Efficiency>
0

>  <Binding Efficiency>
0

>  <Surface Efficiency>
0

>  <Assay Index>
562465

>  <Assay Category>


>  <Assay Organism>


>  <Target ID>
17045

>  <Target Name>
Cytochrome P450 3A4

>  <Target Organism>
Homo sapiens

>  <Target Description>
Target is a single protein chain

>  <Sequence Accession>
P08684

>  <Reference>
Bioorg Med Chem Lett 21 (3), 947-951 (2011)

>  <Pubmed ID>
21232954

>  <DOI>
10.1016/j.bmcl.2010.12.053

$$$$
549420
Actelion Java MolfileCreator 1.0

 36 38  0  0  0  0  0  0  0  0999 V2000
    0.0000   -0.0000   -0.0000 Cl  0  0  0  0  0  0  0  0  0  0  0  0
   -5.8473   -9.9027   -0.0000 O   0  0  0  0  0  0  0  0  0  0  0  0
   -5.1282   -8.5941   -0.0000 C   0  0  0  0  0  0  0  0  0  0  0  0
   -3.6546   -8.5706   -0.0000 N   0  0  0  0  0  0  0  0  0  0  0  0
   -5.8945   -7.2973   -0.0000 C   0  0  0  0  0  0  0  0  0  0  0  0
   -2.9237   -7.2620   -0.0000 C   0  0  0  0  0  0  0  0  0  0  0  0
   -5.1753   -5.9888   -0.0000 N   0  0  0  0  0  0  0  0  0  0  0  0
   -6.6607   -6.0006   -0.0000 C   0  0  0  0  0  0  0  0  0  0  0  0
   -6.6607   -8.5823   -0.0000 C   0  0  0  0  0  0  0  0  0  0  0  0
   -3.6899   -5.9652   -0.0000 C   0  0  0  0  0  0  0  0  0  0  0  0
   -1.4382   -7.2384   -0.0000 C   0  0  0  0  0  0  0  0  0  0  0  0
   -5.9534   -4.6920   -0.0000 C   0  0  0  0  0  0  0  0  0  0  0  0
   -8.1697   -6.0006   -0.0000 C   0  0  0  0  0  0  0  0  0  0  0  0
   -8.1697   -8.5823   -0.0000 C   0  0  0  0  0  0  0  0  0  0  0  0
   -2.9708   -4.6566   -0.0000 O   0  0  0  0  0  0  0  0  0  0  0  0
   -0.7191   -5.9298   -0.0000 C   0  0  0  0  0  0  0  0  0  0  0  0
   -5.2343   -3.3834   -0.0000 C   0  0  0  0  0  0  0  0  0  0  0  0
   -8.9124   -7.2856   -0.0000 N   0  0  0  0  0  0  0  0  0  0  0  0
    0.7663   -5.9063   -0.0000 C   0  0  0  0  0  0  0  0  0  0  0  0
   -1.4972   -4.6331   -0.0000 C   0  0  0  0  0  0  0  0  0  0  0  0
   -6.0124   -2.0866   -0.0000 C   0  0  0  0  0  0  0  0  0  0  0  0
  -10.4214   -7.2738   -0.0000 C   0  0  0  0  0  0  0  0  0  0  0  0
   -5.2932   -0.7781   -0.0000 C   0  0  0  0  0  0  0  0  0  0  0  0
  -11.1641   -5.9652   -0.0000 C   0  0  0  0  0  0  0  0  0  0  0  0
  -10.4096   -4.6684   -0.0000 C   0  0  0  0  0  0  0  0  0  0  0  0
  -12.6613   -5.9416   -0.0000 C   0  0  0  0  0  0  0  0  0  0  0  0
  -11.1523   -3.3598   -0.0000 C   0  0  0  0  0  0  0  0  0  0  0  0
  -13.4158   -4.6331   -0.0000 C   0  0  0  0  0  0  0  0  0  0  0  0
  -12.6613   -3.3363   -0.0000 C   0  0  0  0  0  0  0  0  0  0  0  0
  -13.4040   -2.0159   -0.0000 O   0  0  0  0  0  0  0  0  0  0  0  0
  -14.9130   -2.0041   -0.0000 C   0  0  0  0  0  0  0  0  0  0  0  0
  -15.6675   -0.6955   -0.0000 C   0  0  0  0  0  0  0  0  0  0  0  0
  -15.6439   -3.2773   -0.0000 C   0  0  0  0  0  0  0  0  0  0  0  0
  -17.1647   -0.6838   -0.0000 C   0  0  0  0  0  0  0  0  0  0  0  0
  -17.1529   -3.2773   -0.0000 C   0  0  0  0  0  0  0  0  0  0  0  0
  -17.9310   -1.9688   -0.0000 C   0  0  0  0  0  0  0  0  0  0  0  0
  2  3  2  0  0  0  0
  3  4  1  0  0  0  0
  3  5  1  0  0  0  0
  4  6  1  0  0  0  0
  5  7  1  0  0  0  0
  5  8  1  0  0  0  0
  5  9  1  0  0  0  0
  6 10  1  0  0  0  0
  6 11  1  0  0  0  0
  7 12  1  0  0  0  0
  8 13  1  0  0  0  0
  9 14  1  0  0  0  0
 10 15  2  0  0  0  0
 11 16  1  0  0  0  0
 12 17  1  0  0  0  0
 13 18  1  0  0  0  0
 16 19  1  0  0  0  0
 16 20  1  0  0  0  0
 17 21  1  0  0  0  0
 18 22  1  0  0  0  0
 21 23  1  0  0  0  0
 22 24  1  0  0  0  0
 24 25  2  0  0  0  0
 24 26  1  0  0  0  0
 25 27  1  0  0  0  0
 26 28  2  0  0  0  0
 27 29  2  0  0  0  0
 29 30  1  0  0  0  0
 30 31  1  0  0  0  0
 31 32  2  0  0  0  0
 31 33  1  0  0  0  0
 32 34  1  0  0  0  0
 33 35  2  0  0  0  0
 34 36  2  0  0  0  0
  7 10  1  0  0  0  0
 14 18  1  0  0  0  0
 28 29  1  0  0  0  0
 35 36  1  0  0  0  0
M  END
>  <MolRegNo>
549420

>  <m>
=

>  <Value>
19700

>  <Unit>
nM

>  <Type>
IC50

>  <pValue>
4.71

>  <Ligand Efficiency>
0

>  <Binding Efficiency>
0

>  <Surface Efficiency>
0

>  <Assay Index>
561084

>  <Assay Category>


>  <Assay Organism>


>  <Target ID>
17045

>  <Target Name>
Cytochrome P450 3A4

>  <Target Organism>
Homo sapiens

>  <Target Description>
Target is a single protein chain

>  <Sequence Accession>
P08684

>  <Reference>
Bioorg Med Chem Lett 21 (4), 1141-1145 (2011)

>  <Pubmed ID>
21256008

>  <DOI>
10.1016/j.bmcl.2010.12.109

$$$$
651414
Actelion Java MolfileCreator 1.0

 42 45  0  0  0  0  0  0  0  0999 V2000
    0.0000   -0.0000   -0.0000 Cl  0  0  0  0  0  0  0  0  0  0  0  0
   -5.7396   -0.5937   -0.0000 O   0  0  0  0  0  0  0  0  0  0  0  0
   -6.8157   -1.1875   -0.0000 C   0  0  0  0  0  0  0  0  0  0  0  0
   -6.8281   -2.7090   -0.0000 N   0  0  0  0  0  0  0  0  0  0  0  0
   -8.1269   -0.4082   -0.0000 C   0  0  0  0  0  0  0  0  0  0  0  0
   -8.1393   -3.4883   -0.0000 C   0  0  0  0  0  0  0  0  0  0  0  0
   -9.4629   -1.1628   -0.0000 N   0  0  0  0  0  0  0  0  0  0  0  0
   -6.8405    0.3464   -0.0000 C   0  0  0  0  0  0  0  0  0  0  0  0
   -9.4629    0.3464   -0.0000 C   0  0  0  0  0  0  0  0  0  0  0  0
   -9.4752   -2.6842   -0.0000 C   0  0  0  0  0  0  0  0  0  0  0  0
   -8.1393   -5.0098   -0.0000 C   0  0  0  0  0  0  0  0  0  0  0  0
  -10.7988   -0.3835   -0.0000 C   0  0  0  0  0  0  0  0  0  0  0  0
   -6.8528    1.9297   -0.0000 C   0  0  0  0  0  0  0  0  0  0  0  0
   -9.4752    1.9297   -0.0000 C   0  0  0  0  0  0  0  0  0  0  0  0
  -10.5514   -3.2780   -0.0000 O   0  0  0  0  0  0  0  0  0  0  0  0
   -6.8157   -5.7519   -0.0000 C   0  0  0  0  0  0  0  0  0  0  0  0
  -12.1347   -1.1380   -0.0000 C   0  0  0  0  0  0  0  0  0  0  0  0
   -8.1640    2.6842   -0.0000 N   0  0  0  0  0  0  0  0  0  0  0  0
   -6.8157   -7.2734   -0.0000 C   0  0  0  0  0  0  0  0  0  0  0  0
   -5.5169   -4.9603   -0.0000 C   0  0  0  0  0  0  0  0  0  0  0  0
  -13.4707   -0.3587   -0.0000 C   0  0  0  0  0  0  0  0  0  0  0  0
   -8.1640    4.2305   -0.0000 C   0  0  0  0  0  0  0  0  0  0  0  0
   -5.4922   -8.0156   -0.0000 C   0  0  0  0  0  0  0  0  0  0  0  0
   -4.1933   -5.7025   -0.0000 C   0  0  0  0  0  0  0  0  0  0  0  0
  -14.5468   -0.9648   -0.0000 C   0  0  0  0  0  0  0  0  0  0  0  0
   -9.5000    5.0098   -0.0000 C   0  0  0  0  0  0  0  0  0  0  0  0
   -4.1933   -7.2239   -0.0000 C   0  0  0  0  0  0  0  0  0  0  0  0
   -9.5123    6.5560   -0.0000 C   0  0  0  0  0  0  0  0  0  0  0  0
  -10.8359    4.2676   -0.0000 C   0  0  0  0  0  0  0  0  0  0  0  0
  -10.8483    7.3353   -0.0000 C   0  0  0  0  0  0  0  0  0  0  0  0
  -12.1718    5.0469   -0.0000 C   0  0  0  0  0  0  0  0  0  0  0  0
  -12.1842    6.5931   -0.0000 C   0  0  0  0  0  0  0  0  0  0  0  0
  -13.5201    7.3724   -0.0000 O   0  0  0  0  0  0  0  0  0  0  0  0
  -14.8561    6.6178   -0.0000 C   0  0  0  0  0  0  0  0  0  0  0  0
  -16.1920    7.3971   -0.0000 C   0  0  0  0  0  0  0  0  0  0  0  0
  -14.8684    5.0963   -0.0000 C   0  0  0  0  0  0  0  0  0  0  0  0
  -17.5279    6.6426   -0.0000 C   0  0  0  0  0  0  0  0  0  0  0  0
  -16.2044    4.3418   -0.0000 C   0  0  0  0  0  0  0  0  0  0  0  0
  -17.5403    5.1211   -0.0000 C   0  0  0  0  0  0  0  0  0  0  0  0
  -18.8762    4.3665   -0.0000 C   0  0  0  0  0  0  0  0  0  0  0  0
  -19.9524    4.9974   -0.0000 O   0  0  0  0  0  0  0  0  0  0  0  0
  -18.8886    3.1543   -0.0000 O   0  0  0  0  0  0  0  0  0  0  0  0
  2  3  2  0  0  0  0
  3  4  1  0  0  0  0
  3  5  1  0  0  0  0
  4  6  1  0  0  0  0
  5  7  1  0  0  0  0
  5  8  1  0  0  0  0
  5  9  1  0  0  0  0
  6 10  1  0  0  0  0
  6 11  1  1  0  0  0
  7 12  1  0  0  0  0
  8 13  1  0  0  0  0
  9 14  1  0  0  0  0
 10 15  2  0  0  0  0
 11 16  1  0  0  0  0
 12 17  1  0  0  0  0
 13 18  1  0  0  0  0
 16 19  1  0  0  0  0
 16 20  1  0  0  0  0
 17 21  1  0  0  0  0
 18 22  1  0  0  0  0
 19 23  1  0  0  0  0
 20 24  1  0  0  0  0
 21 25  1  0  0  0  0
 22 26  1  0  0  0  0
 23 27  1  0  0  0  0
 26 28  2  0  0  0  0
 26 29  1  0  0  0  0
 28 30  1  0  0  0  0
 29 31  2  0  0  0  0
 30 32  2  0  0  0  0
 32 33  1  0  0  0  0
 33 34  1  0  0  0  0
 34 35  2  0  0  0  0
 34 36  1  0  0  0  0
 35 37  1  0  0  0  0
 36 38  2  0  0  0  0
 37 39  2  0  0  0  0
 39 40  1  0  0  0  0
 40 41  2  0  0  0  0
 40 42  1  0  0  0  0
  7 10  1  0  0  0  0
 14 18  1  0  0  0  0
 24 27  1  0  0  0  0
 31 32  1  0  0  0  0
 38 39  1  0  0  0  0
M  END
>  <MolRegNo>
651414

>  <m>
=

>  <Value>
24900

>  <Unit>
nM

>  <Type>
IC50

>  <pValue>
4.6

>  <Ligand Efficiency>
0

>  <Binding Efficiency>
0

>  <Surface Efficiency>
0

>  <Assay Index>
561084

>  <Assay Category>


>  <Assay Organism>


>  <Target ID>
17045

>  <Target Name>
Cytochrome P450 3A4

>  <Target Organism>
Homo sapiens

>  <Target Description>
Target is a single protein chain

>  <Sequence Accession>
P08684

>  <Reference>
Bioorg Med Chem Lett 21 (4), 1141-1145 (2011)

>  <Pubmed ID>
21256008

>  <DOI>
10.1016/j.bmcl.2010.12.109

$$$$
1067719
Actelion Java MolfileCreator 1.0

 37 39  0  0  0  0  0  0  0  0999 V2000
    0.0000   -0.0000   -0.0000 Na  0  0  0  0  0  0  0  0  0  0  0  0
   -5.9783   -6.8323   -0.0000 O   0  0  0  0  0  0  0  0  0  0  0  0
   -5.9902   -5.3259   -0.0000 C   0  0  0  0  0  0  0  0  0  0  0  0
   -7.2949   -4.5668   -0.0000 N   0  0  0  0  0  0  0  0  0  0  0  0
   -4.7091   -4.5668   -0.0000 C   0  0  0  0  0  0  0  0  0  0  0  0
   -7.3068   -3.0603   -0.0000 C   0  0  0  0  0  0  0  0  0  0  0  0
   -8.5997   -5.3022   -0.0000 C   0  0  0  0  0  0  0  0  0  0  0  0
   -3.2264   -4.5430   -0.0000 C   0  0  0  0  0  0  0  0  0  0  0  0
   -3.9855   -3.2501   -0.0000 C   0  0  0  0  0  0  0  0  0  0  0  0
   -8.6116   -2.3012   -0.0000 C   0  0  0  0  0  0  0  0  0  0  0  0
   -8.6116   -6.7849   -0.0000 C   0  0  0  0  0  0  0  0  0  0  0  0
   -8.6235   -0.7829   -0.0000 C   0  0  0  0  0  0  0  0  0  0  0  0
   -9.9282   -3.0366   -0.0000 C   0  0  0  0  0  0  0  0  0  0  0  0
   -7.3424   -0.0237   -0.0000 C   0  0  0  0  0  0  0  0  0  0  0  0
   -9.9282   -0.0237   -0.0000 C   0  0  0  0  0  0  0  0  0  0  0  0
  -11.2330   -2.2774   -0.0000 C   0  0  0  0  0  0  0  0  0  0  0  0
   -7.3661    1.4827   -0.0000 C   0  0  0  0  0  0  0  0  0  0  0  0
   -6.0495   -0.7591   -0.0000 C   0  0  0  0  0  0  0  0  0  0  0  0
  -11.2330   -0.7591   -0.0000 C   0  0  0  0  0  0  0  0  0  0  0  0
  -12.5615   -2.9773   -0.0000 C   0  0  0  0  0  0  0  0  0  0  0  0
   -8.6828    2.2300   -0.0000 O   0  0  0  0  0  0  0  0  0  0  0  0
   -6.0969    2.2537   -0.0000 C   0  0  0  0  0  0  0  0  0  0  0  0
   -4.7684   -0.0000   -0.0000 C   0  0  0  0  0  0  0  0  0  0  0  0
  -12.5971   -4.4600   -0.0000 C   0  0  0  0  0  0  0  0  0  0  0  0
  -13.8426   -2.1826   -0.0000 C   0  0  0  0  0  0  0  0  0  0  0  0
   -8.7065    3.7364   -0.0000 C   0  0  0  0  0  0  0  0  0  0  0  0
   -4.8040    1.5183   -0.0000 C   0  0  0  0  0  0  0  0  0  0  0  0
   -3.4873   -0.7354   -0.0000 C   0  0  0  0  0  0  0  0  0  0  0  0
  -13.9138   -5.1717   -0.0000 N   0  0  0  0  0  0  0  0  0  0  0  0
  -15.1593   -2.8943   -0.0000 C   0  0  0  0  0  0  0  0  0  0  0  0
   -2.2063    0.0237   -0.0000 C   0  0  0  0  0  0  0  0  0  0  0  0
  -15.2186   -4.3770   -0.0000 C   0  0  0  0  0  0  0  0  0  0  0  0
   -2.2181    1.5302   -0.0000 O   0  0  0  0  0  0  0  0  0  0  0  0
   -0.9252   -0.7117   -0.0000 O   0  0  0  0  0  0  0  0  0  0  0  0
  -16.5471   -5.0768   -0.0000 O   0  0  0  0  0  0  0  0  0  0  0  0
  -17.8400   -4.2821   -0.0000 C   0  0  0  0  0  0  0  0  0  0  0  0
  -19.1685   -4.9819   -0.0000 C   0  0  0  0  0  0  0  0  0  0  0  0
  2  3  2  0  0  0  0
  3  4  1  0  0  0  0
  3  5  1  0  0  0  0
  4  6  1  0  0  0  0
  4  7  1  0  0  0  0
  5  8  1  0  0  0  0
  5  9  1  0  0  0  0
  6 10  1  0  0  0  0
  7 11  1  0  0  0  0
 10 12  2  0  0  0  0
 10 13  1  0  0  0  0
 12 14  1  0  0  0  0
 12 15  1  0  0  0  0
 13 16  2  0  0  0  0
 14 17  2  0  0  0  0
 14 18  1  0  0  0  0
 15 19  2  0  0  0  0
 16 20  1  0  0  0  0
 17 21  1  0  0  0  0
 17 22  1  0  0  0  0
 18 23  2  0  0  0  0
 20 24  2  0  0  0  0
 20 25  1  0  0  0  0
 21 26  1  0  0  0  0
 22 27  2  0  0  0  0
 23 28  1  0  0  0  0
 24 29  1  0  0  0  0
 25 30  2  0  0  0  0
 28 31  1  0  0  0  0
 29 32  2  0  0  0  0
 31 33  2  0  0  0  0
 31 34  1  0  0  0  0
 32 35  1  0  0  0  0
 35 36  1  0  0  0  0
 36 37  1  0  0  0  0
  8  9  1  0  0  0  0
 16 19  1  0  0  0  0
 23 27  1  0  0  0  0
 30 32  1  0  0  0  0
M  CHG  2   1   1  34  -1
M  END
>  <MolRegNo>
1067719

>  <m>
=

>  <Value>
2

>  <Unit>
nM

>  <Type>
IC50

>  <pValue>
8.7

>  <Ligand Efficiency>
0

>  <Binding Efficiency>
0

>  <Surface Efficiency>
0

>  <Assay Index>
561321

>  <Assay Category>


>  <Assay Organism>
Homo sapiens

>  <Target ID>
17045

>  <Target Name>
Cytochrome P450 3A4

>  <Target Organism>
Homo sapiens

>  <Target Description>
Target is a single protein chain

>  <Sequence Accession>
P08684

>  <Reference>
Bioorg Med Chem Lett 21 (3), 1036-1040 (2011)

>  <Pubmed ID>
21211969

>  <DOI>
10.1016/j.bmcl.2010.12.016

$$$$
1067736
Actelion Java MolfileCreator 1.0

 26 29  0  0  0  0  0  0  0  0999 V2000
    0.0000   -0.0000   -0.0000 S   0  0  0  0  0  0  0  0  0  0  0  0
    0.8626    1.2289   -0.0000 C   0  0  0  0  0  0  0  0  0  0  0  0
   -1.4416    0.4727   -0.0000 C   0  0  0  0  0  0  0  0  0  0  0  0
   -0.0354    2.4460   -0.0000 C   0  0  0  0  0  0  0  0  0  0  0  0
    2.3397    1.2526   -0.0000 C   0  0  0  0  0  0  0  0  0  0  0  0
   -1.4653    1.9852   -0.0000 C   0  0  0  0  0  0  0  0  0  0  0  0
   -2.7533   -0.2600   -0.0000 C   0  0  0  0  0  0  0  0  0  0  0  0
    0.4018    3.8758   -0.0000 N   0  0  0  0  0  0  0  0  0  0  0  0
    3.0841   -0.0236   -0.0000 O   0  0  0  0  0  0  0  0  0  0  0  0
    3.0605    2.5642   -0.0000 O   0  0  0  0  0  0  0  0  0  0  0  0
   -2.7651    2.7414   -0.0000 C   0  0  0  0  0  0  0  0  0  0  0  0
   -4.0531    0.4963   -0.0000 N   0  0  0  0  0  0  0  0  0  0  0  0
   -0.3663    5.1638   -0.0000 C   0  0  0  0  0  0  0  0  0  0  0  0
    4.5376    2.5878   -0.0000 C   0  0  0  0  0  0  0  0  0  0  0  0
   -4.0649    2.0088   -0.0000 C   0  0  0  0  0  0  0  0  0  0  0  0
   -1.8552    5.1520   -0.0000 C   0  0  0  0  0  0  0  0  0  0  0  0
    0.3545    6.4755   -0.0000 C   0  0  0  0  0  0  0  0  0  0  0  0
    5.2584    3.8995   -0.0000 C   0  0  0  0  0  0  0  0  0  0  0  0
   -2.6351    6.4400   -0.0000 C   0  0  0  0  0  0  0  0  0  0  0  0
   -0.4136    7.7635   -0.0000 C   0  0  0  0  0  0  0  0  0  0  0  0
   -1.9261    7.7635   -0.0000 C   0  0  0  0  0  0  0  0  0  0  0  0
   -4.1122    6.7354   -0.0000 C   0  0  0  0  0  0  0  0  0  0  0  0
   -2.9660    8.8742   -0.0000 C   0  0  0  0  0  0  0  0  0  0  0  0
   -4.3130    8.2361   -0.0000 C   0  0  0  0  0  0  0  0  0  0  0  0
   -2.6942   10.3513   -0.0000 N   0  0  0  0  0  0  0  0  0  0  0  0
   -1.2998   10.8476   -0.0000 O   0  0  0  0  0  0  0  0  0  0  0  0
  1  2  1  0  0  0  0
  1  3  1  0  0  0  0
  2  4  2  0  0  0  0
  2  5  1  0  0  0  0
  3  6  2  0  0  0  0
  3  7  1  0  0  0  0
  4  8  1  0  0  0  0
  5  9  2  0  0  0  0
  5 10  1  0  0  0  0
  6 11  1  0  0  0  0
  7 12  2  0  0  0  0
  8 13  1  0  0  0  0
 10 14  1  0  0  0  0
 11 15  2  0  0  0  0
 13 16  2  0  0  0  0
 13 17  1  0  0  0  0
 14 18  1  0  0  0  0
 16 19  1  0  0  0  0
 17 20  2  0  0  0  0
 19 21  2  0  0  0  0
 19 22  1  0  0  0  0
 21 23  1  0  0  0  0
 22 24  1  0  0  0  0
 23 25  2  0  0  0  0
 25 26  1  0  0  0  0
  4  6  1  0  0  0  0
 12 15  1  0  0  0  0
 20 21  1  0  0  0  0
 23 24  1  0  0  0  0
M  END
>  <MolRegNo>
1067736

>  <m>
=

>  <Value>
50

>  <Unit>
nM

>  <Type>
IC50

>  <pValue>
7.3

>  <Ligand Efficiency>
0

>  <Binding Efficiency>
0

>  <Surface Efficiency>
0

>  <Assay Index>
561355

>  <Assay Category>


>  <Assay Organism>


>  <Target ID>
17045

>  <Target Name>
Cytochrome P450 3A4

>  <Target Organism>
Homo sapiens

>  <Target Description>
Target is a single protein chain

>  <Sequence Accession>
P08684

>  <Reference>
Bioorg Med Chem Lett 21 (4), 1248-1252 (2011)

>  <Pubmed ID>
21211972

>  <DOI>
10.1016/j.bmcl.2010.12.039

$$$$
1066402
Actelion Java MolfileCreator 1.0

 26 29  0  0  0  0  0  0  0  0999 V2000
    0.0000   -0.0000   -0.0000 O   0  0  0  0  0  0  0  0  0  0  0  0
   -0.7619    1.3011   -0.0000 C   0  0  0  0  0  0  0  0  0  0  0  0
   -0.0352    2.6022   -0.0000 O   0  0  0  0  0  0  0  0  0  0  0  0
   -2.2623    1.3011   -0.0000 C   0  0  0  0  0  0  0  0  0  0  0  0
    1.4417    2.6256   -0.0000 C   0  0  0  0  0  0  0  0  0  0  0  0
   -3.1531    0.0938   -0.0000 O   0  0  0  0  0  0  0  0  0  0  0  0
   -3.1648    2.5201   -0.0000 C   0  0  0  0  0  0  0  0  0  0  0  0
    2.1685    3.9267   -0.0000 C   0  0  0  0  0  0  0  0  0  0  0  0
   -4.5948    0.5626   -0.0000 C   0  0  0  0  0  0  0  0  0  0  0  0
   -2.7311    3.9502   -0.0000 N   0  0  0  0  0  0  0  0  0  0  0  0
   -4.5948    2.0630   -0.0000 C   0  0  0  0  0  0  0  0  0  0  0  0
   -5.9076   -0.1758   -0.0000 C   0  0  0  0  0  0  0  0  0  0  0  0
   -3.5047    5.2395   -0.0000 C   0  0  0  0  0  0  0  0  0  0  0  0
   -5.8959    2.8132   -0.0000 C   0  0  0  0  0  0  0  0  0  0  0  0
   -7.2087    0.5861   -0.0000 N   0  0  0  0  0  0  0  0  0  0  0  0
   -4.9934    5.2278   -0.0000 C   0  0  0  0  0  0  0  0  0  0  0  0
   -2.7780    6.5406   -0.0000 C   0  0  0  0  0  0  0  0  0  0  0  0
   -7.1970    2.0747   -0.0000 C   0  0  0  0  0  0  0  0  0  0  0  0
   -5.7670    6.5172   -0.0000 C   0  0  0  0  0  0  0  0  0  0  0  0
   -3.5516    7.8300   -0.0000 C   0  0  0  0  0  0  0  0  0  0  0  0
   -5.0520    7.8417   -0.0000 C   0  0  0  0  0  0  0  0  0  0  0  0
   -7.2439    6.8102   -0.0000 C   0  0  0  0  0  0  0  0  0  0  0  0
   -6.0835    8.9435   -0.0000 C   0  0  0  0  0  0  0  0  0  0  0  0
   -7.4432    8.3106   -0.0000 C   0  0  0  0  0  0  0  0  0  0  0  0
   -5.8139   10.4204   -0.0000 N   0  0  0  0  0  0  0  0  0  0  0  0
   -4.4190   10.9127   -0.0000 O   0  0  0  0  0  0  0  0  0  0  0  0
  1  2  2  0  0  0  0
  2  3  1  0  0  0  0
  2  4  1  0  0  0  0
  3  5  1  0  0  0  0
  4  6  1  0  0  0  0
  4  7  2  0  0  0  0
  5  8  1  0  0  0  0
  6  9  1  0  0  0  0
  7 10  1  0  0  0  0
  7 11  1  0  0  0  0
  9 12  1  0  0  0  0
 10 13  1  0  0  0  0
 11 14  1  0  0  0  0
 12 15  2  0  0  0  0
 13 16  2  0  0  0  0
 13 17  1  0  0  0  0
 14 18  2  0  0  0  0
 16 19  1  0  0  0  0
 17 20  2  0  0  0  0
 19 21  2  0  0  0  0
 19 22  1  0  0  0  0
 21 23  1  0  0  0  0
 22 24  1  0  0  0  0
 23 25  2  0  0  0  0
 25 26  1  0  0  0  0
  9 11  2  0  0  0  0
 15 18  1  0  0  0  0
 20 21  1  0  0  0  0
 23 24  1  0  0  0  0
M  END
>  <MolRegNo>
1066402

>  <m>
=

>  <Value>
8300

>  <Unit>
nM

>  <Type>
IC50

>  <pValue>
5.08

>  <Ligand Efficiency>
0

>  <Binding Efficiency>
0

>  <Surface Efficiency>
0

>  <Assay Index>
561355

>  <Assay Category>


>  <Assay Organism>


>  <Target ID>
17045

>  <Target Name>
Cytochrome P450 3A4

>  <Target Organism>
Homo sapiens

>  <Target Description>
Target is a single protein chain

>  <Sequence Accession>
P08684

>  <Reference>
Bioorg Med Chem Lett 21 (4), 1248-1252 (2011)

>  <Pubmed ID>
21211972

>  <DOI>
10.1016/j.bmcl.2010.12.039

$$$$
1066859
Actelion Java MolfileCreator 1.0

 34 38  0  0  0  0  0  0  0  0999 V2000
    0.0000   -0.0000   -0.0000 Cl  0  0  0  0  0  0  0  0  0  0  0  0
   -1.5079   -0.0000   -0.0000 C   0  0  0  0  0  0  0  0  0  0  0  0
   -2.2619   -1.2841   -0.0000 C   0  0  0  0  0  0  0  0  0  0  0  0
   -2.2854    1.3076   -0.0000 C   0  0  0  0  0  0  0  0  0  0  0  0
   -3.7698   -1.2841   -0.0000 C   0  0  0  0  0  0  0  0  0  0  0  0
   -3.7933    1.3076   -0.0000 C   0  0  0  0  0  0  0  0  0  0  0  0
   -4.5355    0.0236   -0.0000 C   0  0  0  0  0  0  0  0  0  0  0  0
   -6.0434    0.0236   -0.0000 C   0  0  0  0  0  0  0  0  0  0  0  0
   -6.9505    1.2487   -0.0000 N   0  0  0  0  0  0  0  0  0  0  0  0
   -6.9387   -1.1898   -0.0000 N   0  0  0  0  0  0  0  0  0  0  0  0
   -8.3878    0.7893   -0.0000 C   0  0  0  0  0  0  0  0  0  0  0  0
   -8.3878   -0.7186   -0.0000 C   0  0  0  0  0  0  0  0  0  0  0  0
   -6.9623   -2.6742   -0.0000 C   0  0  0  0  0  0  0  0  0  0  0  0
   -9.6954    1.5433   -0.0000 C   0  0  0  0  0  0  0  0  0  0  0  0
   -9.7072   -1.4608   -0.0000 C   0  0  0  0  0  0  0  0  0  0  0  0
   -8.2699   -3.4046   -0.0000 C   0  0  0  0  0  0  0  0  0  0  0  0
   -5.6900   -3.4164   -0.0000 C   0  0  0  0  0  0  0  0  0  0  0  0
  -11.0030    0.8011   -0.0000 C   0  0  0  0  0  0  0  0  0  0  0  0
  -11.0148   -0.6951   -0.0000 C   0  0  0  0  0  0  0  0  0  0  0  0
   -8.2935   -4.8889   -0.0000 O   0  0  0  0  0  0  0  0  0  0  0  0
   -9.5658   -2.6388   -0.0000 N   0  0  0  0  0  0  0  0  0  0  0  0
   -5.7253   -4.9007   -0.0000 C   0  0  0  0  0  0  0  0  0  0  0  0
   -4.4059   -2.6624   -0.0000 C   0  0  0  0  0  0  0  0  0  0  0  0
  -12.3107    1.5550   -0.0000 F   0  0  0  0  0  0  0  0  0  0  0  0
  -12.3225   -1.4254   -0.0000 F   0  0  0  0  0  0  0  0  0  0  0  0
  -10.8735   -3.3692   -0.0000 C   0  0  0  0  0  0  0  0  0  0  0  0
   -4.4530   -5.6429   -0.0000 C   0  0  0  0  0  0  0  0  0  0  0  0
   -3.1218   -3.4164   -0.0000 C   0  0  0  0  0  0  0  0  0  0  0  0
  -12.1693   -2.6035   -0.0000 C   0  0  0  0  0  0  0  0  0  0  0  0
  -10.8852   -4.8536   -0.0000 C   0  0  0  0  0  0  0  0  0  0  0  0
   -3.1572   -4.9007   -0.0000 C   0  0  0  0  0  0  0  0  0  0  0  0
  -13.4770   -3.3221   -0.0000 C   0  0  0  0  0  0  0  0  0  0  0  0
  -12.2047   -5.5722   -0.0000 C   0  0  0  0  0  0  0  0  0  0  0  0
  -13.5123   -4.8065   -0.0000 C   0  0  0  0  0  0  0  0  0  0  0  0
  1  2  1  0  0  0  0
  2  3  2  0  0  0  0
  2  4  1  0  0  0  0
  3  5  1  0  0  0  0
  4  6  2  0  0  0  0
  5  7  2  0  0  0  0
  7  8  1  0  0  0  0
  8  9  2  0  0  0  0
  8 10  1  0  0  0  0
  9 11  1  0  0  0  0
 10 12  1  0  0  0  0
 13 10  1  1  0  0  0
 11 14  1  0  0  0  0
 12 15  1  0  0  0  0
 13 16  1  0  0  0  0
 13 17  1  0  0  0  0
 14 18  2  0  0  0  0
 15 19  2  0  0  0  0
 16 20  2  0  0  0  0
 16 21  1  0  0  0  0
 17 22  1  0  0  0  0
 17 23  1  0  0  0  0
 18 24  1  0  0  0  0
 19 25  1  0  0  0  0
 21 26  1  0  0  0  0
 22 27  1  0  0  0  0
 23 28  1  0  0  0  0
 26 29  1  0  0  0  0
 26 30  1  0  0  0  0
 27 31  1  0  0  0  0
 29 32  1  0  0  0  0
 30 33  1  0  0  0  0
 32 34  1  0  0  0  0
  6  7  1  0  0  0  0
 11 12  2  0  0  0  0
 18 19  1  0  0  0  0
 28 31  1  0  0  0  0
 33 34  1  0  0  0  0
M  END
>  <MolRegNo>
1066859

>  <m>
=

>  <Value>
7600

>  <Unit>
nM

>  <Type>
IC50

>  <pValue>
5.12

>  <Ligand Efficiency>
0

>  <Binding Efficiency>
0

>  <Surface Efficiency>
0

>  <Assay Index>
561156

>  <Assay Category>


>  <Assay Organism>


>  <Target ID>
17045

>  <Target Name>
Cytochrome P450 3A4

>  <Target Organism>
Homo sapiens

>  <Target Description>
Target is a single protein chain

>  <Sequence Accession>
P08684

>  <Reference>
Bioorg Med Chem Lett 21 (4), 1134-1140 (2011)

>  <Pubmed ID>
21269824

>  <DOI>
10.1016/j.bmcl.2010.12.123

$$$$
1066860
Actelion Java MolfileCreator 1.0

 35 39  0  0  1  0  0  0  0  0999 V2000
    0.0000   -0.0000   -0.0000 Cl  0  0  0  0  0  0  0  0  0  0  0  0
   -1.5077   -0.0000   -0.0000 C   0  0  0  0  0  0  0  0  0  0  0  0
   -2.2616   -1.2839   -0.0000 C   0  0  0  0  0  0  0  0  0  0  0  0
   -2.2852    1.3075   -0.0000 C   0  0  0  0  0  0  0  0  0  0  0  0
   -3.7694   -1.2839   -0.0000 C   0  0  0  0  0  0  0  0  0  0  0  0
   -3.7929    1.3075   -0.0000 C   0  0  0  0  0  0  0  0  0  0  0  0
   -4.5350    0.0236   -0.0000 C   0  0  0  0  0  0  0  0  0  0  0  0
   -6.0427    0.0236   -0.0000 C   0  0  0  0  0  0  0  0  0  0  0  0
   -6.9497    1.2486   -0.0000 N   0  0  0  0  0  0  0  0  0  0  0  0
   -6.9380   -1.1897   -0.0000 N   0  0  0  0  0  0  0  0  0  0  0  0
   -8.3868    0.7892   -0.0000 C   0  0  0  0  0  0  0  0  0  0  0  0
   -8.3868   -0.7185   -0.0000 C   0  0  0  0  0  0  0  0  0  0  0  0
   -6.9615   -2.6739   -0.0000 C   0  0  0  0  0  0  0  0  0  0  0  0
   -9.6943    1.5431   -0.0000 C   0  0  0  0  0  0  0  0  0  0  0  0
   -9.7061   -1.4606   -0.0000 C   0  0  0  0  0  0  0  0  0  0  0  0
   -8.2690   -3.4042   -0.0000 C   0  0  0  0  0  0  0  0  0  0  0  0
   -5.6776   -3.4160   -0.0000 C   0  0  0  0  0  0  0  0  0  0  0  0
  -11.0018    0.8010   -0.0000 C   0  0  0  0  0  0  0  0  0  0  0  0
  -11.0136   -0.6950   -0.0000 C   0  0  0  0  0  0  0  0  0  0  0  0
   -8.2926   -4.8884   -0.0000 O   0  0  0  0  0  0  0  0  0  0  0  0
   -9.5765   -2.6385   -0.0000 N   0  0  0  0  0  0  0  0  0  0  0  0
   -5.7129   -4.9002   -0.0000 C   0  0  0  0  0  0  0  0  0  0  0  0
   -4.3936   -2.6621   -0.0000 C   0  0  0  0  0  0  0  0  0  0  0  0
  -12.3093    1.5549   -0.0000 F   0  0  0  0  0  0  0  0  0  0  0  0
  -12.3211   -1.4253   -0.0000 F   0  0  0  0  0  0  0  0  0  0  0  0
  -10.8840   -3.3689   -0.0000 C   0  0  0  0  0  0  0  0  0  0  0  0
   -4.4408   -5.6422   -0.0000 C   0  0  0  0  0  0  0  0  0  0  0  0
   -3.1097   -3.4160   -0.0000 C   0  0  0  0  0  0  0  0  0  0  0  0
  -10.8958   -4.8530   -0.0000 C   0  0  0  0  0  0  0  0  0  0  0  0
  -12.1797   -2.6032   -0.0000 C   0  0  0  0  0  0  0  0  0  0  0  0
   -3.1451   -4.9002   -0.0000 C   0  0  0  0  0  0  0  0  0  0  0  0
  -12.2151   -5.5716   -0.0000 C   0  0  0  0  0  0  0  0  0  0  0  0
  -13.4872   -3.3217   -0.0000 C   0  0  0  0  0  0  0  0  0  0  0  0
  -13.5108   -4.7941   -0.0000 C   0  0  0  0  0  0  0  0  0  0  0  0
  -14.8300   -5.5127   -0.0000 O   0  0  0  0  0  0  0  0  0  0  0  0
  1  2  1  0  0  0  0
  2  3  2  0  0  0  0
  2  4  1  0  0  0  0
  3  5  1  0  0  0  0
  4  6  2  0  0  0  0
  5  7  2  0  0  0  0
  7  8  1  0  0  0  0
  8  9  2  0  0  0  0
  8 10  1  0  0  0  0
  9 11  1  0  0  0  0
 10 12  1  0  0  0  0
 13 10  1  1  0  0  0
 11 14  1  0  0  0  0
 12 15  1  0  0  0  0
 13 16  1  0  0  0  0
 13 17  1  0  0  0  0
 14 18  2  0  0  0  0
 15 19  2  0  0  0  0
 16 20  2  0  0  0  0
 16 21  1  0  0  0  0
 17 22  1  0  0  0  0
 17 23  1  0  0  0  0
 18 24  1  0  0  0  0
 19 25  1  0  0  0  0
 26 21  1  1  0  0  0
 22 27  1  0  0  0  0
 23 28  1  0  0  0  0
 26 29  1  0  0  0  0
 26 30  1  0  0  0  0
 27 31  1  0  0  0  0
 29 32  1  0  0  0  0
 30 33  1  0  0  0  0
 32 34  1  0  0  0  0
 34 35  1  6  0  0  0
  6  7  1  0  0  0  0
 11 12  2  0  0  0  0
 18 19  1  0  0  0  0
 28 31  1  0  0  0  0
 33 34  1  0  0  0  0
M  END
>  <MolRegNo>
1066860

>  <m>
=

>  <Value>
33000

>  <Unit>
nM

>  <Type>
IC50

>  <pValue>
4.48

>  <Ligand Efficiency>
0

>  <Binding Efficiency>
0

>  <Surface Efficiency>
0

>  <Assay Index>
561156

>  <Assay Category>


>  <Assay Organism>


>  <Target ID>
17045

>  <Target Name>
Cytochrome P450 3A4

>  <Target Organism>
Homo sapiens

>  <Target Description>
Target is a single protein chain

>  <Sequence Accession>
P08684

>  <Reference>
Bioorg Med Chem Lett 21 (4), 1134-1140 (2011)

>  <Pubmed ID>
21269824

>  <DOI>
10.1016/j.bmcl.2010.12.123

$$$$
1038164
Actelion Java MolfileCreator 1.0

 37 41  0  0  0  0  0  0  0  0999 V2000
    0.0000   -0.0000   -0.0000 Cl  0  0  0  0  0  0  0  0  0  0  0  0
    1.4949    0.0119   -0.0000 C   0  0  0  0  0  0  0  0  0  0  0  0
    2.2306   -1.2814   -0.0000 C   0  0  0  0  0  0  0  0  0  0  0  0
    2.2306    1.3288   -0.0000 C   0  0  0  0  0  0  0  0  0  0  0  0
    3.7255   -1.2695   -0.0000 C   0  0  0  0  0  0  0  0  0  0  0  0
    3.7255    1.3407   -0.0000 C   0  0  0  0  0  0  0  0  0  0  0  0
    4.4730    0.0475   -0.0000 C   0  0  0  0  0  0  0  0  0  0  0  0
    5.9679    0.0593   -0.0000 C   0  0  0  0  0  0  0  0  0  0  0  0
    6.8459    1.2932   -0.0000 N   0  0  0  0  0  0  0  0  0  0  0  0
    6.8459   -1.1509   -0.0000 N   0  0  0  0  0  0  0  0  0  0  0  0
    8.2697    0.8424   -0.0000 C   0  0  0  0  0  0  0  0  0  0  0  0
    8.2697   -0.6763   -0.0000 C   0  0  0  0  0  0  0  0  0  0  0  0
    6.3713   -2.5746   -0.0000 C   0  0  0  0  0  0  0  0  0  0  0  0
    9.5629    1.6017   -0.0000 C   0  0  0  0  0  0  0  0  0  0  0  0
    9.5629   -1.4238   -0.0000 C   0  0  0  0  0  0  0  0  0  0  0  0
    7.3680   -3.6780   -0.0000 C   0  0  0  0  0  0  0  0  0  0  0  0
    4.8882   -2.8712   -0.0000 C   0  0  0  0  0  0  0  0  0  0  0  0
   10.8562    0.8543   -0.0000 C   0  0  0  0  0  0  0  0  0  0  0  0
   10.8562   -0.6644   -0.0000 C   0  0  0  0  0  0  0  0  0  0  0  0
    8.8273   -3.3577   -0.0000 O   0  0  0  0  0  0  0  0  0  0  0  0
    6.8934   -5.1018   -0.0000 N   0  0  0  0  0  0  0  0  0  0  0  0
    3.8679   -1.7441   -0.0000 C   0  0  0  0  0  0  0  0  0  0  0  0
    4.4137   -4.2950   -0.0000 C   0  0  0  0  0  0  0  0  0  0  0  0
   12.1494    1.6136   -0.0000 F   0  0  0  0  0  0  0  0  0  0  0  0
   12.1494   -1.4119   -0.0000 F   0  0  0  0  0  0  0  0  0  0  0  0
    7.8900   -6.2052   -0.0000 C   0  0  0  0  0  0  0  0  0  0  0  0
    2.3848   -2.0407   -0.0000 C   0  0  0  0  0  0  0  0  0  0  0  0
    2.9306   -4.5916   -0.0000 C   0  0  0  0  0  0  0  0  0  0  0  0
    7.4154   -7.6290   -0.0000 C   0  0  0  0  0  0  0  0  0  0  0  0
    9.3493   -5.8849   -0.0000 C   0  0  0  0  0  0  0  0  0  0  0  0
    1.9102   -3.4645   -0.0000 C   0  0  0  0  0  0  0  0  0  0  0  0
    8.4120   -8.7324   -0.0000 C   0  0  0  0  0  0  0  0  0  0  0  0
   10.3460   -6.9883   -0.0000 C   0  0  0  0  0  0  0  0  0  0  0  0
    9.8714   -8.4120   -0.0000 C   0  0  0  0  0  0  0  0  0  0  0  0
   10.8680   -9.5155   -0.0000 C   0  0  0  0  0  0  0  0  0  0  0  0
   12.3274   -9.1951   -0.0000 O   0  0  0  0  0  0  0  0  0  0  0  0
   10.3934  -10.9392   -0.0000 O   0  0  0  0  0  0  0  0  0  0  0  0
  1  2  1  0  0  0  0
  2  3  2  0  0  0  0
  2  4  1  0  0  0  0
  3  5  1  0  0  0  0
  4  6  2  0  0  0  0
  5  7  2  0  0  0  0
  7  8  1  0  0  0  0
  8  9  2  0  0  0  0
  8 10  1  0  0  0  0
  9 11  1  0  0  0  0
 10 12  1  0  0  0  0
 13 10  1  6  0  0  0
 11 14  1  0  0  0  0
 12 15  1  0  0  0  0
 13 16  1  0  0  0  0
 13 17  1  0  0  0  0
 14 18  2  0  0  0  0
 15 19  2  0  0  0  0
 16 20  2  0  0  0  0
 16 21  1  0  0  0  0
 17 22  1  0  0  0  0
 17 23  1  0  0  0  0
 18 24  1  0  0  0  0
 19 25  1  0  0  0  0
 21 26  1  0  0  0  0
 22 27  1  0  0  0  0
 23 28  1  0  0  0  0
 26 29  2  0  0  0  0
 26 30  1  0  0  0  0
 27 31  1  0  0  0  0
 29 32  1  0  0  0  0
 30 33  2  0  0  0  0
 32 34  2  0  0  0  0
 34 35  1  0  0  0  0
 35 36  2  0  0  0  0
 35 37  1  0  0  0  0
  6  7  1  0  0  0  0
 11 12  2  0  0  0  0
 18 19  1  0  0  0  0
 28 31  1  0  0  0  0
 33 34  1  0  0  0  0
M  END
>  <MolRegNo>
1038164

>  <m>
=

>  <Value>
37000

>  <Unit>
nM

>  <Type>
IC50

>  <pValue>
4.43

>  <Ligand Efficiency>
0

>  <Binding Efficiency>
0

>  <Surface Efficiency>
0

>  <Assay Index>
561156

>  <Assay Category>


>  <Assay Organism>


>  <Target ID>
17045

>  <Target Name>
Cytochrome P450 3A4

>  <Target Organism>
Homo sapiens

>  <Target Description>
Target is a single protein chain

>  <Sequence Accession>
P08684

>  <Reference>
Bioorg Med Chem Lett 21 (4), 1134-1140 (2011)

>  <Pubmed ID>
21269824

>  <DOI>
10.1016/j.bmcl.2010.12.123

$$$$
1038163
Actelion Java MolfileCreator 1.0

 38 42  0  0  0  0  0  0  0  0999 V2000
    0.0000   -0.0000   -0.0000 Cl  0  0  0  0  0  0  0  0  0  0  0  0
    1.4951    0.0119   -0.0000 C   0  0  0  0  0  0  0  0  0  0  0  0
    2.2427   -1.2815   -0.0000 C   0  0  0  0  0  0  0  0  0  0  0  0
    2.2427    1.3290   -0.0000 C   0  0  0  0  0  0  0  0  0  0  0  0
    3.7378   -1.2697   -0.0000 C   0  0  0  0  0  0  0  0  0  0  0  0
    3.7378    1.3409   -0.0000 C   0  0  0  0  0  0  0  0  0  0  0  0
    4.4735    0.0475   -0.0000 C   0  0  0  0  0  0  0  0  0  0  0  0
    5.9686    0.0593   -0.0000 C   0  0  0  0  0  0  0  0  0  0  0  0
    6.8467    1.2934   -0.0000 N   0  0  0  0  0  0  0  0  0  0  0  0
    6.8467   -1.1510   -0.0000 N   0  0  0  0  0  0  0  0  0  0  0  0
    8.2707    0.8425   -0.0000 C   0  0  0  0  0  0  0  0  0  0  0  0
    8.2707   -0.6764   -0.0000 C   0  0  0  0  0  0  0  0  0  0  0  0
    6.3721   -2.5749   -0.0000 C   0  0  0  0  0  0  0  0  0  0  0  0
    9.5641    1.6019   -0.0000 C   0  0  0  0  0  0  0  0  0  0  0  0
    9.5641   -1.4121   -0.0000 C   0  0  0  0  0  0  0  0  0  0  0  0
    7.3688   -3.6785   -0.0000 C   0  0  0  0  0  0  0  0  0  0  0  0
    4.8888   -2.8716   -0.0000 C   0  0  0  0  0  0  0  0  0  0  0  0
   10.8575    0.8544   -0.0000 C   0  0  0  0  0  0  0  0  0  0  0  0
   10.8575   -0.6526   -0.0000 C   0  0  0  0  0  0  0  0  0  0  0  0
    8.8284   -3.3581   -0.0000 O   0  0  0  0  0  0  0  0  0  0  0  0
    6.8942   -5.1024   -0.0000 N   0  0  0  0  0  0  0  0  0  0  0  0
    3.8683   -1.7443   -0.0000 C   0  0  0  0  0  0  0  0  0  0  0  0
    4.4142   -4.2955   -0.0000 C   0  0  0  0  0  0  0  0  0  0  0  0
   12.1509    1.6138   -0.0000 F   0  0  0  0  0  0  0  0  0  0  0  0
   12.1509   -1.3883   -0.0000 F   0  0  0  0  0  0  0  0  0  0  0  0
    7.8909   -6.2060   -0.0000 C   0  0  0  0  0  0  0  0  0  0  0  0
    2.3851   -2.0410   -0.0000 C   0  0  0  0  0  0  0  0  0  0  0  0
    2.9309   -4.5922   -0.0000 C   0  0  0  0  0  0  0  0  0  0  0  0
    9.3505   -5.8856   -0.0000 C   0  0  0  0  0  0  0  0  0  0  0  0
    7.4163   -7.6299   -0.0000 C   0  0  0  0  0  0  0  0  0  0  0  0
    1.9104   -3.4649   -0.0000 C   0  0  0  0  0  0  0  0  0  0  0  0
    9.8014   -4.4379   -0.0000 F   0  0  0  0  0  0  0  0  0  0  0  0
   10.3472   -6.9891   -0.0000 C   0  0  0  0  0  0  0  0  0  0  0  0
    8.4131   -8.7334   -0.0000 C   0  0  0  0  0  0  0  0  0  0  0  0
    9.8726   -8.4131   -0.0000 C   0  0  0  0  0  0  0  0  0  0  0  0
   10.8693   -9.5166   -0.0000 C   0  0  0  0  0  0  0  0  0  0  0  0
   10.3947  -10.9405   -0.0000 O   0  0  0  0  0  0  0  0  0  0  0  0
   12.3289   -9.1962   -0.0000 O   0  0  0  0  0  0  0  0  0  0  0  0
  1  2  1  0  0  0  0
  2  3  2  0  0  0  0
  2  4  1  0  0  0  0
  3  5  1  0  0  0  0
  4  6  2  0  0  0  0
  5  7  2  0  0  0  0
  7  8  1  0  0  0  0
  8  9  2  0  0  0  0
  8 10  1  0  0  0  0
  9 11  1  0  0  0  0
 10 12  1  0  0  0  0
 13 10  1  6  0  0  0
 11 14  1  0  0  0  0
 12 15  1  0  0  0  0
 13 16  1  0  0  0  0
 13 17  1  0  0  0  0
 14 18  2  0  0  0  0
 15 19  2  0  0  0  0
 16 20  2  0  0  0  0
 16 21  1  0  0  0  0
 17 22  1  0  0  0  0
 17 23  1  0  0  0  0
 18 24  1  0  0  0  0
 19 25  1  0  0  0  0
 21 26  1  0  0  0  0
 22 27  1  0  0  0  0
 23 28  1  0  0  0  0
 26 29  2  0  0  0  0
 26 30  1  0  0  0  0
 27 31  1  0  0  0  0
 29 32  1  0  0  0  0
 29 33  1  0  0  0  0
 30 34  2  0  0  0  0
 33 35  2  0  0  0  0
 35 36  1  0  0  0  0
 36 37  2  0  0  0  0
 36 38  1  0  0  0  0
  6  7  1  0  0  0  0
 11 12  2  0  0  0  0
 18 19  1  0  0  0  0
 28 31  1  0  0  0  0
 34 35  1  0  0  0  0
M  END
>  <MolRegNo>
1038163

>  <m>
=

>  <Value>
39000

>  <Unit>
nM

>  <Type>
IC50

>  <pValue>
4.41

>  <Ligand Efficiency>
0

>  <Binding Efficiency>
0

>  <Surface Efficiency>
0

>  <Assay Index>
561156

>  <Assay Category>


>  <Assay Organism>


>  <Target ID>
17045

>  <Target Name>
Cytochrome P450 3A4

>  <Target Organism>
Homo sapiens

>  <Target Description>
Target is a single protein chain

>  <Sequence Accession>
P08684

>  <Reference>
Bioorg Med Chem Lett 21 (4), 1134-1140 (2011)

>  <Pubmed ID>
21269824

>  <DOI>
10.1016/j.bmcl.2010.12.123

$$$$
1066864
Actelion Java MolfileCreator 1.0

 38 42  0  0  0  0  0  0  0  0999 V2000
    0.0000   -0.0000   -0.0000 Cl  0  0  0  0  0  0  0  0  0  0  0  0
   -1.3064    0.7720   -0.0000 C   0  0  0  0  0  0  0  0  0  0  0  0
   -1.3183    2.2802   -0.0000 C   0  0  0  0  0  0  0  0  0  0  0  0
   -2.6247    0.0475   -0.0000 C   0  0  0  0  0  0  0  0  0  0  0  0
   -0.0238    3.0285   -0.0000 N   0  0  0  0  0  0  0  0  0  0  0  0
   -2.6247    3.0522   -0.0000 C   0  0  0  0  0  0  0  0  0  0  0  0
   -3.9310    0.8195   -0.0000 C   0  0  0  0  0  0  0  0  0  0  0  0
    1.2589    2.2802   -0.0000 C   0  0  0  0  0  0  0  0  0  0  0  0
   -3.9310    2.3278   -0.0000 C   0  0  0  0  0  0  0  0  0  0  0  0
   -5.2493    0.0950   -0.0000 C   0  0  0  0  0  0  0  0  0  0  0  0
    1.2351    0.7957   -0.0000 O   0  0  0  0  0  0  0  0  0  0  0  0
    2.5534    3.0285   -0.0000 C   0  0  0  0  0  0  0  0  0  0  0  0
   -5.2731   -1.3895   -0.0000 O   0  0  0  0  0  0  0  0  0  0  0  0
   -6.5438    0.8670   -0.0000 O   0  0  0  0  0  0  0  0  0  0  0  0
    2.5534    4.5367   -0.0000 N   0  0  0  0  0  0  0  0  0  0  0  0
    3.8360    2.2802   -0.0000 C   0  0  0  0  0  0  0  0  0  0  0  0
    3.4204    5.7719   -0.0000 C   0  0  0  0  0  0  0  0  0  0  0  0
    1.1045    5.0118   -0.0000 C   0  0  0  0  0  0  0  0  0  0  0  0
    3.8004    0.7957   -0.0000 C   0  0  0  0  0  0  0  0  0  0  0  0
    5.1187    3.0403   -0.0000 C   0  0  0  0  0  0  0  0  0  0  0  0
    2.5178    6.9951   -0.0000 N   0  0  0  0  0  0  0  0  0  0  0  0
    4.9049    5.7956   -0.0000 C   0  0  0  0  0  0  0  0  0  0  0  0
    1.0807    6.5320   -0.0000 C   0  0  0  0  0  0  0  0  0  0  0  0
   -0.2138    4.2755   -0.0000 C   0  0  0  0  0  0  0  0  0  0  0  0
    5.0712    0.0475   -0.0000 C   0  0  0  0  0  0  0  0  0  0  0  0
    6.4013    2.2921   -0.0000 C   0  0  0  0  0  0  0  0  0  0  0  0
    5.6531    4.5130   -0.0000 C   0  0  0  0  0  0  0  0  0  0  0  0
    5.6294    7.1020   -0.0000 C   0  0  0  0  0  0  0  0  0  0  0  0
   -0.2256    7.2920   -0.0000 C   0  0  0  0  0  0  0  0  0  0  0  0
   -1.5202    5.0355   -0.0000 C   0  0  0  0  0  0  0  0  0  0  0  0
    6.3657    0.7957   -0.0000 C   0  0  0  0  0  0  0  0  0  0  0  0
    7.1376    4.5367   -0.0000 C   0  0  0  0  0  0  0  0  0  0  0  0
    7.1139    7.1258   -0.0000 C   0  0  0  0  0  0  0  0  0  0  0  0
   -1.5320    6.5557   -0.0000 C   0  0  0  0  0  0  0  0  0  0  0  0
   -2.8266    4.2992   -0.0000 F   0  0  0  0  0  0  0  0  0  0  0  0
    7.8740    5.8550   -0.0000 C   0  0  0  0  0  0  0  0  0  0  0  0
   -2.8384    7.3158   -0.0000 F   0  0  0  0  0  0  0  0  0  0  0  0
    9.3585    5.8788   -0.0000 Cl  0  0  0  0  0  0  0  0  0  0  0  0
  1  2  1  0  0  0  0
  2  3  2  0  0  0  0
  2  4  1  0  0  0  0
  3  5  1  0  0  0  0
  3  6  1  0  0  0  0
  4  7  2  0  0  0  0
  5  8  1  0  0  0  0
  6  9  2  0  0  0  0
  7 10  1  0  0  0  0
  8 11  2  0  0  0  0
  8 12  1  0  0  0  0
 10 13  2  0  0  0  0
 10 14  1  0  0  0  0
 12 15  1  1  0  0  0
 12 16  1  0  0  0  0
 15 17  1  0  0  0  0
 15 18  1  0  0  0  0
 16 19  1  0  0  0  0
 16 20  1  0  0  0  0
 17 21  2  0  0  0  0
 17 22  1  0  0  0  0
 18 23  2  0  0  0  0
 18 24  1  0  0  0  0
 19 25  1  0  0  0  0
 20 26  1  0  0  0  0
 22 27  2  0  0  0  0
 22 28  1  0  0  0  0
 23 29  1  0  0  0  0
 24 30  2  0  0  0  0
 25 31  1  0  0  0  0
 27 32  1  0  0  0  0
 28 33  2  0  0  0  0
 29 34  2  0  0  0  0
 30 35  1  0  0  0  0
 32 36  2  0  0  0  0
 34 37  1  0  0  0  0
 36 38  1  0  0  0  0
  7  9  1  0  0  0  0
 21 23  1  0  0  0  0
 26 31  1  0  0  0  0
 30 34  1  0  0  0  0
 33 36  1  0  0  0  0
M  END
>  <MolRegNo>
1066864

>  <m>
=

>  <Value>
23000

>  <Unit>
nM

>  <Type>
IC50

>  <pValue>
4.64

>  <Ligand Efficiency>
0

>  <Binding Efficiency>
0

>  <Surface Efficiency>
0

>  <Assay Index>
561156

>  <Assay Category>


>  <Assay Organism>


>  <Target ID>
17045

>  <Target Name>
Cytochrome P450 3A4

>  <Target Organism>
Homo sapiens

>  <Target Description>
Target is a single protein chain

>  <Sequence Accession>
P08684

>  <Reference>
Bioorg Med Chem Lett 21 (4), 1134-1140 (2011)

>  <Pubmed ID>
21269824

>  <DOI>
10.1016/j.bmcl.2010.12.123

$$$$
1066878
Actelion Java MolfileCreator 1.0

 40 45  0  0  0  0  0  0  0  0999 V2000
    0.0000   -0.0000   -0.0000 Cl  0  0  0  0  0  0  0  0  0  0  0  0
   -1.5088   -0.0000   -0.0000 C   0  0  0  0  0  0  0  0  0  0  0  0
   -2.2632   -1.2848   -0.0000 C   0  0  0  0  0  0  0  0  0  0  0  0
   -2.2867    1.3084   -0.0000 C   0  0  0  0  0  0  0  0  0  0  0  0
   -3.7719   -1.2848   -0.0000 C   0  0  0  0  0  0  0  0  0  0  0  0
   -3.7955    1.3084   -0.0000 C   0  0  0  0  0  0  0  0  0  0  0  0
   -4.5381    0.0236   -0.0000 C   0  0  0  0  0  0  0  0  0  0  0  0
   -6.0469    0.0236   -0.0000 C   0  0  0  0  0  0  0  0  0  0  0  0
   -6.9545    1.2494   -0.0000 N   0  0  0  0  0  0  0  0  0  0  0  0
   -6.9427   -1.1905   -0.0000 N   0  0  0  0  0  0  0  0  0  0  0  0
   -8.3925    0.7897   -0.0000 C   0  0  0  0  0  0  0  0  0  0  0  0
   -8.3925   -0.7190   -0.0000 C   0  0  0  0  0  0  0  0  0  0  0  0
   -6.9663   -2.6757   -0.0000 C   0  0  0  0  0  0  0  0  0  0  0  0
   -9.7009    1.5441   -0.0000 C   0  0  0  0  0  0  0  0  0  0  0  0
   -9.7127   -1.4616   -0.0000 C   0  0  0  0  0  0  0  0  0  0  0  0
   -8.2747   -3.4065   -0.0000 C   0  0  0  0  0  0  0  0  0  0  0  0
   -5.6815   -3.4183   -0.0000 C   0  0  0  0  0  0  0  0  0  0  0  0
  -11.0093    0.8015   -0.0000 C   0  0  0  0  0  0  0  0  0  0  0  0
  -11.0211   -0.6954   -0.0000 C   0  0  0  0  0  0  0  0  0  0  0  0
   -8.2982   -4.8917   -0.0000 O   0  0  0  0  0  0  0  0  0  0  0  0
   -9.5830   -2.6403   -0.0000 N   0  0  0  0  0  0  0  0  0  0  0  0
   -5.7168   -4.9035   -0.0000 C   0  0  0  0  0  0  0  0  0  0  0  0
   -4.3966   -2.6639   -0.0000 C   0  0  0  0  0  0  0  0  0  0  0  0
  -12.3177    1.5559   -0.0000 F   0  0  0  0  0  0  0  0  0  0  0  0
  -12.3295   -1.4263   -0.0000 F   0  0  0  0  0  0  0  0  0  0  0  0
  -10.8914   -3.3712   -0.0000 C   0  0  0  0  0  0  0  0  0  0  0  0
   -4.4438   -5.6461   -0.0000 C   0  0  0  0  0  0  0  0  0  0  0  0
   -3.1118   -3.4183   -0.0000 C   0  0  0  0  0  0  0  0  0  0  0  0
  -10.9032   -4.8563   -0.0000 C   0  0  0  0  0  0  0  0  0  0  0  0
  -12.1880   -2.6050   -0.0000 C   0  0  0  0  0  0  0  0  0  0  0  0
   -3.1472   -4.9035   -0.0000 C   0  0  0  0  0  0  0  0  0  0  0  0
   -9.6184   -5.5989   -0.0000 F   0  0  0  0  0  0  0  0  0  0  0  0
  -12.2234   -5.5754   -0.0000 C   0  0  0  0  0  0  0  0  0  0  0  0
  -13.4964   -3.3240   -0.0000 C   0  0  0  0  0  0  0  0  0  0  0  0
  -13.5200   -4.7974   -0.0000 C   0  0  0  0  0  0  0  0  0  0  0  0
  -14.8284   -5.5282   -0.0000 C   0  0  0  0  0  0  0  0  0  0  0  0
  -16.2782   -5.1039   -0.0000 N   0  0  0  0  0  0  0  0  0  0  0  0
  -14.7930   -7.0134   -0.0000 N   0  0  0  0  0  0  0  0  0  0  0  0
  -17.1269   -6.3298   -0.0000 N   0  0  0  0  0  0  0  0  0  0  0  0
  -16.2075   -7.5085   -0.0000 N   0  0  0  0  0  0  0  0  0  0  0  0
  1  2  1  0  0  0  0
  2  3  2  0  0  0  0
  2  4  1  0  0  0  0
  3  5  1  0  0  0  0
  4  6  2  0  0  0  0
  5  7  2  0  0  0  0
  7  8  1  0  0  0  0
  8  9  2  0  0  0  0
  8 10  1  0  0  0  0
  9 11  1  0  0  0  0
 10 12  1  0  0  0  0
 13 10  1  1  0  0  0
 11 14  1  0  0  0  0
 12 15  1  0  0  0  0
 13 16  1  0  0  0  0
 13 17  1  0  0  0  0
 14 18  2  0  0  0  0
 15 19  2  0  0  0  0
 16 20  2  0  0  0  0
 16 21  1  0  0  0  0
 17 22  1  0  0  0  0
 17 23  1  0  0  0  0
 18 24  1  0  0  0  0
 19 25  1  0  0  0  0
 21 26  1  0  0  0  0
 22 27  1  0  0  0  0
 23 28  1  0  0  0  0
 26 29  2  0  0  0  0
 26 30  1  0  0  0  0
 27 31  1  0  0  0  0
 29 32  1  0  0  0  0
 29 33  1  0  0  0  0
 30 34  2  0  0  0  0
 33 35  2  0  0  0  0
 35 36  1  0  0  0  0
 36 37  2  0  0  0  0
 36 38  1  0  0  0  0
 37 39  1  0  0  0  0
 38 40  1  0  0  0  0
  6  7  1  0  0  0  0
 11 12  2  0  0  0  0
 18 19  1  0  0  0  0
 28 31  1  0  0  0  0
 34 35  1  0  0  0  0
 39 40  2  0  0  0  0
M  END
>  <MolRegNo>
1066878

>  <m>
=

>  <Value>
7700

>  <Unit>
nM

>  <Type>
IC50

>  <pValue>
5.11

>  <Ligand Efficiency>
0

>  <Binding Efficiency>
0

>  <Surface Efficiency>
0

>  <Assay Index>
561156

>  <Assay Category>


>  <Assay Organism>


>  <Target ID>
17045

>  <Target Name>
Cytochrome P450 3A4

>  <Target Organism>
Homo sapiens

>  <Target Description>
Target is a single protein chain

>  <Sequence Accession>
P08684

>  <Reference>
Bioorg Med Chem Lett 21 (4), 1134-1140 (2011)

>  <Pubmed ID>
21269824

>  <DOI>
10.1016/j.bmcl.2010.12.123

$$$$
1066880
Actelion Java MolfileCreator 1.0

 39 43  0  0  0  0  0  0  0  0999 V2000
    0.0000   -0.0000   -0.0000 Cl  0  0  0  0  0  0  0  0  0  0  0  0
   -1.5093   -0.0000   -0.0000 C   0  0  0  0  0  0  0  0  0  0  0  0
   -2.2640   -1.2853   -0.0000 C   0  0  0  0  0  0  0  0  0  0  0  0
   -2.2876    1.3089   -0.0000 C   0  0  0  0  0  0  0  0  0  0  0  0
   -3.7733   -1.2853   -0.0000 C   0  0  0  0  0  0  0  0  0  0  0  0
   -3.7969    1.3089   -0.0000 C   0  0  0  0  0  0  0  0  0  0  0  0
   -4.5398    0.0236   -0.0000 C   0  0  0  0  0  0  0  0  0  0  0  0
   -6.0491    0.0236   -0.0000 C   0  0  0  0  0  0  0  0  0  0  0  0
   -6.9570    1.2499   -0.0000 N   0  0  0  0  0  0  0  0  0  0  0  0
   -6.9452   -1.1909   -0.0000 N   0  0  0  0  0  0  0  0  0  0  0  0
   -8.3956    0.7900   -0.0000 C   0  0  0  0  0  0  0  0  0  0  0  0
   -8.3956   -0.7193   -0.0000 C   0  0  0  0  0  0  0  0  0  0  0  0
   -6.9688   -2.6767   -0.0000 C   0  0  0  0  0  0  0  0  0  0  0  0
   -9.7045    1.5447   -0.0000 C   0  0  0  0  0  0  0  0  0  0  0  0
   -9.7163   -1.4622   -0.0000 C   0  0  0  0  0  0  0  0  0  0  0  0
   -8.2777   -3.4078   -0.0000 C   0  0  0  0  0  0  0  0  0  0  0  0
   -5.6835   -3.4196   -0.0000 C   0  0  0  0  0  0  0  0  0  0  0  0
  -11.0133    0.8018   -0.0000 C   0  0  0  0  0  0  0  0  0  0  0  0
  -11.0251   -0.6957   -0.0000 C   0  0  0  0  0  0  0  0  0  0  0  0
   -9.5865   -2.6413   -0.0000 O   0  0  0  0  0  0  0  0  0  0  0  0
   -8.3013   -4.8935   -0.0000 N   0  0  0  0  0  0  0  0  0  0  0  0
   -5.7189   -4.9053   -0.0000 C   0  0  0  0  0  0  0  0  0  0  0  0
   -4.3983   -2.6649   -0.0000 C   0  0  0  0  0  0  0  0  0  0  0  0
   -9.6101   -5.6246   -0.0000 C   0  0  0  0  0  0  0  0  0  0  0  0
   -4.4454   -5.6482   -0.0000 C   0  0  0  0  0  0  0  0  0  0  0  0
   -3.1130   -3.4196   -0.0000 C   0  0  0  0  0  0  0  0  0  0  0  0
   -9.6219   -7.0985   -0.0000 C   0  0  0  0  0  0  0  0  0  0  0  0
  -10.9072   -4.8463   -0.0000 C   0  0  0  0  0  0  0  0  0  0  0  0
   -3.1483   -4.9053   -0.0000 C   0  0  0  0  0  0  0  0  0  0  0  0
  -10.9308   -7.8296   -0.0000 C   0  0  0  0  0  0  0  0  0  0  0  0
   -8.3366   -7.8414   -0.0000 C   0  0  0  0  0  0  0  0  0  0  0  0
  -12.2161   -5.5774   -0.0000 C   0  0  0  0  0  0  0  0  0  0  0  0
  -12.2396   -7.0631   -0.0000 C   0  0  0  0  0  0  0  0  0  0  0  0
   -8.3484   -9.3271   -0.0000 F   0  0  0  0  0  0  0  0  0  0  0  0
   -7.0514   -7.0867   -0.0000 F   0  0  0  0  0  0  0  0  0  0  0  0
   -7.0514   -8.5725   -0.0000 F   0  0  0  0  0  0  0  0  0  0  0  0
  -13.5485   -7.7942   -0.0000 C   0  0  0  0  0  0  0  0  0  0  0  0
  -13.5721   -9.2800   -0.0000 O   0  0  0  0  0  0  0  0  0  0  0  0
  -14.8574   -7.0278   -0.0000 O   0  0  0  0  0  0  0  0  0  0  0  0
  1  2  1  0  0  0  0
  2  3  2  0  0  0  0
  2  4  1  0  0  0  0
  3  5  1  0  0  0  0
  4  6  2  0  0  0  0
  5  7  2  0  0  0  0
  7  8  1  0  0  0  0
  8  9  2  0  0  0  0
  8 10  1  0  0  0  0
  9 11  1  0  0  0  0
 10 12  1  0  0  0  0
 13 10  1  1  0  0  0
 11 14  1  0  0  0  0
 12 15  1  0  0  0  0
 13 16  1  0  0  0  0
 13 17  1  0  0  0  0
 14 18  2  0  0  0  0
 15 19  2  0  0  0  0
 16 20  2  0  0  0  0
 16 21  1  0  0  0  0
 17 22  1  0  0  0  0
 17 23  1  0  0  0  0
 21 24  1  0  0  0  0
 22 25  1  0  0  0  0
 23 26  1  0  0  0  0
 24 27  2  0  0  0  0
 24 28  1  0  0  0  0
 25 29  1  0  0  0  0
 27 30  1  0  0  0  0
 27 31  1  0  0  0  0
 28 32  2  0  0  0  0
 30 33  2  0  0  0  0
 31 34  1  0  0  0  0
 31 35  1  0  0  0  0
 31 36  1  0  0  0  0
 33 37  1  0  0  0  0
 37 38  2  0  0  0  0
 37 39  1  0  0  0  0
  6  7  1  0  0  0  0
 11 12  2  0  0  0  0
 18 19  1  0  0  0  0
 26 29  1  0  0  0  0
 32 33  1  0  0  0  0
M  END
>  <MolRegNo>
1066880

>  <m>
=

>  <Value>
49000

>  <Unit>
nM

>  <Type>
IC50

>  <pValue>
4.31

>  <Ligand Efficiency>
0

>  <Binding Efficiency>
0

>  <Surface Efficiency>
0

>  <Assay Index>
561156

>  <Assay Category>


>  <Assay Organism>


>  <Target ID>
17045

>  <Target Name>
Cytochrome P450 3A4

>  <Target Organism>
Homo sapiens

>  <Target Description>
Target is a single protein chain

>  <Sequence Accession>
P08684

>  <Reference>
Bioorg Med Chem Lett 21 (4), 1134-1140 (2011)

>  <Pubmed ID>
21269824

>  <DOI>
10.1016/j.bmcl.2010.12.123

$$$$
1066681
Actelion Java MolfileCreator 1.0

 20 22  0  0  0  0  0  0  0  0999 V2000
    0.0000   -0.0000   -0.0000 O   0  0  0  0  0  0  0  0  0  0  0  0
   -1.3102   -0.7504   -0.0000 C   0  0  0  0  0  0  0  0  0  0  0  0
    1.2983   -0.7385   -0.0000 C   0  0  0  0  0  0  0  0  0  0  0  0
   -1.3221   -2.2512   -0.0000 C   0  0  0  0  0  0  0  0  0  0  0  0
   -2.6204    0.0119   -0.0000 C   0  0  0  0  0  0  0  0  0  0  0  0
    1.2864   -2.2393   -0.0000 C   0  0  0  0  0  0  0  0  0  0  0  0
   -2.6442   -3.0016   -0.0000 C   0  0  0  0  0  0  0  0  0  0  0  0
   -0.0357   -2.9897   -0.0000 C   0  0  0  0  0  0  0  0  0  0  0  0
   -3.9306   -0.7266   -0.0000 C   0  0  0  0  0  0  0  0  0  0  0  0
    2.5847   -2.9777   -0.0000 C   0  0  0  0  0  0  0  0  0  0  0  0
   -3.9544   -2.2393   -0.0000 C   0  0  0  0  0  0  0  0  0  0  0  0
   -0.0476   -4.4785   -0.0000 O   0  0  0  0  0  0  0  0  0  0  0  0
    3.8592   -2.2154   -0.0000 C   0  0  0  0  0  0  0  0  0  0  0  0
    2.5728   -4.4666   -0.0000 C   0  0  0  0  0  0  0  0  0  0  0  0
    5.1574   -2.9420   -0.0000 C   0  0  0  0  0  0  0  0  0  0  0  0
    3.8592   -5.2051   -0.0000 C   0  0  0  0  0  0  0  0  0  0  0  0
    6.4438   -2.1678   -0.0000 O   0  0  0  0  0  0  0  0  0  0  0  0
    5.1574   -4.4428   -0.0000 C   0  0  0  0  0  0  0  0  0  0  0  0
    7.7421   -2.9063   -0.0000 C   0  0  0  0  0  0  0  0  0  0  0  0
    6.4557   -5.1813   -0.0000 O   0  0  0  0  0  0  0  0  0  0  0  0
  1  2  1  0  0  0  0
  1  3  1  0  0  0  0
  2  4  2  0  0  0  0
  2  5  1  0  0  0  0
  3  6  1  0  0  0  0
  4  7  1  0  0  0  0
  4  8  1  0  0  0  0
  5  9  2  0  0  0  0
  6 10  1  1  0  0  0
  7 11  2  0  0  0  0
  8 12  1  6  0  0  0
 10 13  2  0  0  0  0
 10 14  1  0  0  0  0
 13 15  1  0  0  0  0
 14 16  2  0  0  0  0
 15 17  1  0  0  0  0
 15 18  2  0  0  0  0
 17 19  1  0  0  0  0
 18 20  1  0  0  0  0
  6  8  1  0  0  0  0
  9 11  1  0  0  0  0
 16 18  1  0  0  0  0
M  END
>  <MolRegNo>
1066681

>  <m>
=

>  <Value>
99500

>  <Unit>
nM

>  <Type>
IC50

>  <pValue>
4

>  <Ligand Efficiency>
0

>  <Binding Efficiency>
0

>  <Surface Efficiency>
0

>  <Assay Index>
561653

>  <Assay Category>


>  <Assay Organism>


>  <Target ID>
17045

>  <Target Name>
Cytochrome P450 3A4

>  <Target Organism>
Homo sapiens

>  <Target Description>
Target is a single protein chain

>  <Sequence Accession>
P08684

>  <Reference>
J Nat Prod 74 (1), 102-105 (2011)

>  <Pubmed ID>
21138310

>  <DOI>
10.1021/np100665j

$$$$
1066685
Actelion Java MolfileCreator 1.0

 27 29  0  0  0  0  0  0  0  0999 V2000
    0.0000   -0.0000   -0.0000 O   0  0  0  0  0  0  0  0  0  0  0  0
   -0.7614    1.3087   -0.0000 C   0  0  0  0  0  0  0  0  0  0  0  0
    1.4515    0.3212   -0.0000 C   0  0  0  0  0  0  0  0  0  0  0  0
   -2.2724    1.4753   -0.0000 C   0  0  0  0  0  0  0  0  0  0  0  0
    0.2260    2.4389   -0.0000 C   0  0  0  0  0  0  0  0  0  0  0  0
    1.5942    1.8322   -0.0000 C   0  0  0  0  0  0  0  0  0  0  0  0
   -3.1528    0.2736   -0.0000 C   0  0  0  0  0  0  0  0  0  0  0  0
   -2.8910    2.8553   -0.0000 C   0  0  0  0  0  0  0  0  0  0  0  0
   -0.0952    3.9142   -0.0000 C   0  0  0  0  0  0  0  0  0  0  0  0
    2.8791    2.5936   -0.0000 C   0  0  0  0  0  0  0  0  0  0  0  0
   -4.6518    0.4402   -0.0000 C   0  0  0  0  0  0  0  0  0  0  0  0
   -4.3901    3.0219   -0.0000 C   0  0  0  0  0  0  0  0  0  0  0  0
   -1.5347    4.3901   -0.0000 O   0  0  0  0  0  0  0  0  0  0  0  0
    2.8672    4.1045   -0.0000 O   0  0  0  0  0  0  0  0  0  0  0  0
    4.1640    1.8560   -0.0000 C   0  0  0  0  0  0  0  0  0  0  0  0
   -5.5441   -0.7614   -0.0000 O   0  0  0  0  0  0  0  0  0  0  0  0
   -5.2824    1.8322   -0.0000 C   0  0  0  0  0  0  0  0  0  0  0  0
    5.4489    2.6174   -0.0000 C   0  0  0  0  0  0  0  0  0  0  0  0
    4.1521    0.3569   -0.0000 C   0  0  0  0  0  0  0  0  0  0  0  0
   -4.9373   -2.1177   -0.0000 C   0  0  0  0  0  0  0  0  0  0  0  0
   -6.7933    1.9987   -0.0000 O   0  0  0  0  0  0  0  0  0  0  0  0
    6.7338    1.8798   -0.0000 C   0  0  0  0  0  0  0  0  0  0  0  0
    5.4370   -0.3807   -0.0000 C   0  0  0  0  0  0  0  0  0  0  0  0
    8.0187    2.6412   -0.0000 O   0  0  0  0  0  0  0  0  0  0  0  0
    6.7219    0.3807   -0.0000 C   0  0  0  0  0  0  0  0  0  0  0  0
    9.3155    1.9036   -0.0000 C   0  0  0  0  0  0  0  0  0  0  0  0
    8.0068   -0.3569   -0.0000 O   0  0  0  0  0  0  0  0  0  0  0  0
  1  2  1  0  0  0  0
  1  3  1  0  0  0  0
  2  4  1  6  0  0  0
  2  5  1  0  0  0  0
  6  3  1  1  0  0  0
  4  7  2  0  0  0  0
  4  8  1  0  0  0  0
  5  9  1  1  0  0  0
  6 10  1  0  0  0  0
  7 11  1  0  0  0  0
  8 12  2  0  0  0  0
  9 13  1  0  0  0  0
 10 14  1  1  0  0  0
 10 15  1  0  0  0  0
 11 16  1  0  0  0  0
 11 17  2  0  0  0  0
 15 18  2  0  0  0  0
 15 19  1  0  0  0  0
 16 20  1  0  0  0  0
 17 21  1  0  0  0  0
 18 22  1  0  0  0  0
 19 23  2  0  0  0  0
 22 24  1  0  0  0  0
 22 25  2  0  0  0  0
 24 26  1  0  0  0  0
 25 27  1  0  0  0  0
  5  6  1  0  0  0  0
 12 17  1  0  0  0  0
 23 25  1  0  0  0  0
M  END
>  <MolRegNo>
1066685

>  <m>
=

>  <Value>
66500

>  <Unit>
nM

>  <Type>
IC50

>  <pValue>
4.18

>  <Ligand Efficiency>
0

>  <Binding Efficiency>
0

>  <Surface Efficiency>
0

>  <Assay Index>
561653

>  <Assay Category>


>  <Assay Organism>


>  <Target ID>
17045

>  <Target Name>
Cytochrome P450 3A4

>  <Target Organism>
Homo sapiens

>  <Target Description>
Target is a single protein chain

>  <Sequence Accession>
P08684

>  <Reference>
J Nat Prod 74 (1), 102-105 (2011)

>  <Pubmed ID>
21138310

>  <DOI>
10.1021/np100665j

$$$$
1066688
Actelion Java MolfileCreator 1.0

 25 27  0  0  0  0  0  0  0  0999 V2000
    0.0000   -0.0000   -0.0000 O   0  0  0  0  0  0  0  0  0  0  0  0
   -0.7616    1.3089   -0.0000 C   0  0  0  0  0  0  0  0  0  0  0  0
    1.4517    0.3213   -0.0000 C   0  0  0  0  0  0  0  0  0  0  0  0
   -2.2728    1.4755   -0.0000 C   0  0  0  0  0  0  0  0  0  0  0  0
    0.2261    2.4394   -0.0000 C   0  0  0  0  0  0  0  0  0  0  0  0
    1.5945    1.8325   -0.0000 C   0  0  0  0  0  0  0  0  0  0  0  0
   -3.1533    0.2737   -0.0000 C   0  0  0  0  0  0  0  0  0  0  0  0
   -2.8915    2.8558   -0.0000 C   0  0  0  0  0  0  0  0  0  0  0  0
   -0.0952    3.9149   -0.0000 C   0  0  0  0  0  0  0  0  0  0  0  0
    2.8796    2.5940   -0.0000 C   0  0  0  0  0  0  0  0  0  0  0  0
   -4.6526    0.4403   -0.0000 C   0  0  0  0  0  0  0  0  0  0  0  0
   -4.3908    3.0224   -0.0000 C   0  0  0  0  0  0  0  0  0  0  0  0
   -1.5350    4.3908   -0.0000 O   0  0  0  0  0  0  0  0  0  0  0  0
    4.1648    1.8563   -0.0000 C   0  0  0  0  0  0  0  0  0  0  0  0
   -5.5451   -0.7616   -0.0000 O   0  0  0  0  0  0  0  0  0  0  0  0
   -5.2833    1.8325   -0.0000 C   0  0  0  0  0  0  0  0  0  0  0  0
    5.4499    2.6178   -0.0000 C   0  0  0  0  0  0  0  0  0  0  0  0
    4.1529    0.3570   -0.0000 C   0  0  0  0  0  0  0  0  0  0  0  0
   -6.7945    1.9991   -0.0000 O   0  0  0  0  0  0  0  0  0  0  0  0
    6.7350    1.8801   -0.0000 C   0  0  0  0  0  0  0  0  0  0  0  0
    5.4380   -0.3808   -0.0000 C   0  0  0  0  0  0  0  0  0  0  0  0
    8.0201    2.6416   -0.0000 O   0  0  0  0  0  0  0  0  0  0  0  0
    6.7231    0.3808   -0.0000 C   0  0  0  0  0  0  0  0  0  0  0  0
    9.3052    1.9039   -0.0000 C   0  0  0  0  0  0  0  0  0  0  0  0
    8.0082   -0.3570   -0.0000 O   0  0  0  0  0  0  0  0  0  0  0  0
  1  2  1  0  0  0  0
  1  3  1  0  0  0  0
  2  4  1  6  0  0  0
  2  5  1  0  0  0  0
  3  6  1  0  0  0  0
  4  7  2  0  0  0  0
  4  8  1  0  0  0  0
  5  9  1  1  0  0  0
  6 10  1  1  0  0  0
  7 11  1  0  0  0  0
  8 12  2  0  0  0  0
  9 13  1  0  0  0  0
 10 14  1  0  0  0  0
 11 15  1  0  0  0  0
 11 16  2  0  0  0  0
 14 17  2  0  0  0  0
 14 18  1  0  0  0  0
 16 19  1  0  0  0  0
 17 20  1  0  0  0  0
 18 21  2  0  0  0  0
 20 22  1  0  0  0  0
 20 23  2  0  0  0  0
 22 24  1  0  0  0  0
 23 25  1  0  0  0  0
  5  6  1  0  0  0  0
 12 16  1  0  0  0  0
 21 23  1  0  0  0  0
M  END
>  <MolRegNo>
1066688

>  <m>
=

>  <Value>
85600

>  <Unit>
nM

>  <Type>
IC50

>  <pValue>
4.07

>  <Ligand Efficiency>
0

>  <Binding Efficiency>
0

>  <Surface Efficiency>
0

>  <Assay Index>
561653

>  <Assay Category>


>  <Assay Organism>


>  <Target ID>
17045

>  <Target Name>
Cytochrome P450 3A4

>  <Target Organism>
Homo sapiens

>  <Target Description>
Target is a single protein chain

>  <Sequence Accession>
P08684

>  <Reference>
J Nat Prod 74 (1), 102-105 (2011)

>  <Pubmed ID>
21138310

>  <DOI>
10.1021/np100665j

$$$$
288587
Actelion Java MolfileCreator 1.0

 26 27  0  0  0  0  0  0  0  0999 V2000
    0.0000   -0.0000   -0.0000 O   0  0  0  0  0  0  0  0  0  0  0  0
   -1.3127    0.7569   -0.0000 C   0  0  0  0  0  0  0  0  0  0  0  0
   -0.0118   -1.4782   -0.0000 C   0  0  0  0  0  0  0  0  0  0  0  0
   -2.6253    0.0118   -0.0000 C   0  0  0  0  0  0  0  0  0  0  0  0
   -1.3245    2.2587   -0.0000 C   0  0  0  0  0  0  0  0  0  0  0  0
   -2.6372   -1.4664   -0.0000 O   0  0  0  0  0  0  0  0  0  0  0  0
   -3.9262    0.7805   -0.0000 C   0  0  0  0  0  0  0  0  0  0  0  0
   -2.6253    3.0156   -0.0000 C   0  0  0  0  0  0  0  0  0  0  0  0
   -3.9380    2.2824   -0.0000 C   0  0  0  0  0  0  0  0  0  0  0  0
   -2.6372    4.5175   -0.0000 C   0  0  0  0  0  0  0  0  0  0  0  0
   -1.3482    5.2743   -0.0000 C   0  0  0  0  0  0  0  0  0  0  0  0
   -1.3482    6.7881   -0.0000 C   0  0  0  0  0  0  0  0  0  0  0  0
   -0.0591    4.5411   -0.0000 C   0  0  0  0  0  0  0  0  0  0  0  0
   -0.0591    7.5449   -0.0000 C   0  0  0  0  0  0  0  0  0  0  0  0
   -2.6608    7.5567   -0.0000 C   0  0  0  0  0  0  0  0  0  0  0  0
    1.2299    5.2980   -0.0000 O   0  0  0  0  0  0  0  0  0  0  0  0
    1.2181    6.8117   -0.0000 O   0  0  0  0  0  0  0  0  0  0  0  0
   -3.9617    6.8117   -0.0000 C   0  0  0  0  0  0  0  0  0  0  0  0
   -5.2743    7.5686   -0.0000 C   0  0  0  0  0  0  0  0  0  0  0  0
   -3.9735    5.3216   -0.0000 C   0  0  0  0  0  0  0  0  0  0  0  0
   -6.5752    6.8354   -0.0000 C   0  0  0  0  0  0  0  0  0  0  0  0
   -5.2743    4.5766   -0.0000 C   0  0  0  0  0  0  0  0  0  0  0  0
   -7.8760    7.5922   -0.0000 O   0  0  0  0  0  0  0  0  0  0  0  0
   -6.5870    5.3453   -0.0000 C   0  0  0  0  0  0  0  0  0  0  0  0
   -7.8879    9.0941   -0.0000 C   0  0  0  0  0  0  0  0  0  0  0  0
   -7.8997    4.6121   -0.0000 O   0  0  0  0  0  0  0  0  0  0  0  0
  1  2  1  0  0  0  0
  1  3  1  0  0  0  0
  2  4  2  0  0  0  0
  2  5  1  0  0  0  0
  4  6  1  0  0  0  0
  4  7  1  0  0  0  0
  5  8  2  0  0  0  0
  7  9  2  0  0  0  0
  8 10  1  0  0  0  0
 11 10  1  6  0  0  0
 11 12  1  0  0  0  0
 11 13  1  0  0  0  0
 12 14  1  1  0  0  0
 12 15  1  0  0  0  0
 13 16  1  0  0  0  0
 14 17  1  0  0  0  0
 15 18  1  0  0  0  0
 18 19  2  0  0  0  0
 18 20  1  0  0  0  0
 19 21  1  0  0  0  0
 20 22  2  0  0  0  0
 21 23  1  0  0  0  0
 21 24  2  0  0  0  0
 23 25  1  0  0  0  0
 24 26  1  0  0  0  0
  8  9  1  0  0  0  0
 22 24  1  0  0  0  0
M  END
>  <MolRegNo>
288587

>  <m>
=

>  <Value>
47300

>  <Unit>
nM

>  <Type>
IC50

>  <pValue>
4.33

>  <Ligand Efficiency>
0

>  <Binding Efficiency>
0

>  <Surface Efficiency>
0

>  <Assay Index>
561653

>  <Assay Category>


>  <Assay Organism>


>  <Target ID>
17045

>  <Target Name>
Cytochrome P450 3A4

>  <Target Organism>
Homo sapiens

>  <Target Description>
Target is a single protein chain

>  <Sequence Accession>
P08684

>  <Reference>
J Nat Prod 74 (1), 102-105 (2011)

>  <Pubmed ID>
21138310

>  <DOI>
10.1021/np100665j

$$$$
463558
Actelion Java MolfileCreator 1.0

 26 28  0  0  0  0  0  0  0  0999 V2000
    0.0000   -0.0000   -0.0000 O   0  0  0  0  0  0  0  0  0  0  0  0
   -1.2275    0.8970   -0.0000 C   0  0  0  0  0  0  0  0  0  0  0  0
   -0.4721   -1.4163   -0.0000 C   0  0  0  0  0  0  0  0  0  0  0  0
   -1.2393    2.4078   -0.0000 C   0  0  0  0  0  0  0  0  0  0  0  0
   -2.4550    0.0236   -0.0000 C   0  0  0  0  0  0  0  0  0  0  0  0
   -1.9829   -1.4045   -0.0000 C   0  0  0  0  0  0  0  0  0  0  0  0
    0.0472    3.1631   -0.0000 C   0  0  0  0  0  0  0  0  0  0  0  0
   -2.5494    3.1631   -0.0000 C   0  0  0  0  0  0  0  0  0  0  0  0
   -3.8949    0.4957   -0.0000 C   0  0  0  0  0  0  0  0  0  0  0  0
   -2.8799   -2.6084   -0.0000 C   0  0  0  0  0  0  0  0  0  0  0  0
    0.0354    4.6739   -0.0000 C   0  0  0  0  0  0  0  0  0  0  0  0
   -2.5612    4.6739   -0.0000 C   0  0  0  0  0  0  0  0  0  0  0  0
   -4.2136    1.9711   -0.0000 O   0  0  0  0  0  0  0  0  0  0  0  0
   -2.2779   -3.9657   -0.0000 C   0  0  0  0  0  0  0  0  0  0  0  0
    1.3219    5.4410   -0.0000 O   0  0  0  0  0  0  0  0  0  0  0  0
   -1.2747    5.4410   -0.0000 C   0  0  0  0  0  0  0  0  0  0  0  0
   -3.1749   -5.1696   -0.0000 C   0  0  0  0  0  0  0  0  0  0  0  0
   -0.8026   -4.1073   -0.0000 C   0  0  0  0  0  0  0  0  0  0  0  0
    2.6084    4.6975   -0.0000 C   0  0  0  0  0  0  0  0  0  0  0  0
   -1.2865    6.9518   -0.0000 O   0  0  0  0  0  0  0  0  0  0  0  0
   -2.5730   -6.5269   -0.0000 C   0  0  0  0  0  0  0  0  0  0  0  0
   -0.2006   -5.4646   -0.0000 C   0  0  0  0  0  0  0  0  0  0  0  0
   -3.4700   -7.7308   -0.0000 O   0  0  0  0  0  0  0  0  0  0  0  0
   -1.0977   -6.6685   -0.0000 C   0  0  0  0  0  0  0  0  0  0  0  0
   -2.8681   -9.0881   -0.0000 C   0  0  0  0  0  0  0  0  0  0  0  0
   -0.4957   -8.0258   -0.0000 O   0  0  0  0  0  0  0  0  0  0  0  0
  1  2  1  0  0  0  0
  1  3  1  0  0  0  0
  2  4  1  1  0  0  0
  2  5  1  0  0  0  0
  3  6  1  0  0  0  0
  4  7  2  0  0  0  0
  4  8  1  0  0  0  0
  5  9  1  6  0  0  0
  6 10  1  6  0  0  0
  7 11  1  0  0  0  0
  8 12  2  0  0  0  0
  9 13  1  0  0  0  0
 10 14  1  0  0  0  0
 11 15  1  0  0  0  0
 11 16  2  0  0  0  0
 14 17  2  0  0  0  0
 14 18  1  0  0  0  0
 15 19  1  0  0  0  0
 16 20  1  0  0  0  0
 17 21  1  0  0  0  0
 18 22  2  0  0  0  0
 21 23  1  0  0  0  0
 21 24  2  0  0  0  0
 23 25  1  0  0  0  0
 24 26  1  0  0  0  0
  5  6  1  0  0  0  0
 12 16  1  0  0  0  0
 22 24  1  0  0  0  0
M  END
>  <MolRegNo>
463558

>  <m>
=

>  <Value>
25600

>  <Unit>
nM

>  <Type>
IC50

>  <pValue>
4.59

>  <Ligand Efficiency>
0

>  <Binding Efficiency>
0

>  <Surface Efficiency>
0

>  <Assay Index>
561653

>  <Assay Category>


>  <Assay Organism>


>  <Target ID>
17045

>  <Target Name>
Cytochrome P450 3A4

>  <Target Organism>
Homo sapiens

>  <Target Description>
Target is a single protein chain

>  <Sequence Accession>
P08684

>  <Reference>
J Nat Prod 74 (1), 102-105 (2011)

>  <Pubmed ID>
21138310

>  <DOI>
10.1021/np100665j

$$$$
1066691
Actelion Java MolfileCreator 1.0

 25 27  0  0  0  0  0  0  0  0999 V2000
    0.0000   -0.0000   -0.0000 O   0  0  0  0  0  0  0  0  0  0  0  0
    1.2771    0.7568   -0.0000 C   0  0  0  0  0  0  0  0  0  0  0  0
   -1.3007    0.7686   -0.0000 C   0  0  0  0  0  0  0  0  0  0  0  0
    1.2771    2.2704   -0.0000 C   0  0  0  0  0  0  0  0  0  0  0  0
    2.5660    0.0236   -0.0000 C   0  0  0  0  0  0  0  0  0  0  0  0
   -2.6133    0.0355   -0.0000 C   0  0  0  0  0  0  0  0  0  0  0  0
   -1.3007    2.2822   -0.0000 C   0  0  0  0  0  0  0  0  0  0  0  0
   -0.0236    3.0271   -0.0000 O   0  0  0  0  0  0  0  0  0  0  0  0
    2.5542    3.0390   -0.0000 C   0  0  0  0  0  0  0  0  0  0  0  0
    3.8549    0.7923   -0.0000 C   0  0  0  0  0  0  0  0  0  0  0  0
   -3.9140    0.8041   -0.0000 C   0  0  0  0  0  0  0  0  0  0  0  0
   -2.6251   -1.4426   -0.0000 C   0  0  0  0  0  0  0  0  0  0  0  0
   -2.6015    3.0508   -0.0000 C   0  0  0  0  0  0  0  0  0  0  0  0
    3.8431    2.3058   -0.0000 C   0  0  0  0  0  0  0  0  0  0  0  0
    5.1438    0.0591   -0.0000 C   0  0  0  0  0  0  0  0  0  0  0  0
   -5.2266    0.0709   -0.0000 C   0  0  0  0  0  0  0  0  0  0  0  0
   -3.9377   -2.1758   -0.0000 C   0  0  0  0  0  0  0  0  0  0  0  0
   -2.6015    4.5644   -0.0000 O   0  0  0  0  0  0  0  0  0  0  0  0
    6.4327    0.8277   -0.0000 C   0  0  0  0  0  0  0  0  0  0  0  0
   -6.5273    0.8396   -0.0000 O   0  0  0  0  0  0  0  0  0  0  0  0
   -5.2502   -1.4190   -0.0000 C   0  0  0  0  0  0  0  0  0  0  0  0
    7.7216    0.0946   -0.0000 C   0  0  0  0  0  0  0  0  0  0  0  0
   -6.5273    2.3531   -0.0000 C   0  0  0  0  0  0  0  0  0  0  0  0
   -6.5628   -2.1521   -0.0000 O   0  0  0  0  0  0  0  0  0  0  0  0
    9.0105    0.8632   -0.0000 O   0  0  0  0  0  0  0  0  0  0  0  0
  1  2  1  0  0  0  0
  1  3  1  0  0  0  0
  2  4  2  0  0  0  0
  2  5  1  0  0  0  0
  3  6  1  6  0  0  0
  3  7  1  0  0  0  0
  4  8  1  0  0  0  0
  4  9  1  0  0  0  0
  5 10  2  0  0  0  0
  6 11  2  0  0  0  0
  6 12  1  0  0  0  0
  7 13  1  1  0  0  0
  9 14  2  0  0  0  0
 10 15  1  0  0  0  0
 11 16  1  0  0  0  0
 12 17  2  0  0  0  0
 13 18  1  0  0  0  0
 15 19  1  0  0  0  0
 16 20  1  0  0  0  0
 16 21  2  0  0  0  0
 19 22  1  0  0  0  0
 20 23  1  0  0  0  0
 21 24  1  0  0  0  0
 22 25  1  0  0  0  0
  7  8  1  0  0  0  0
 10 14  1  0  0  0  0
 17 21  1  0  0  0  0
M  END
>  <MolRegNo>
1066691

>  <m>
=

>  <Value>
54200

>  <Unit>
nM

>  <Type>
IC50

>  <pValue>
4.27

>  <Ligand Efficiency>
0

>  <Binding Efficiency>
0

>  <Surface Efficiency>
0

>  <Assay Index>
561653

>  <Assay Category>


>  <Assay Organism>


>  <Target ID>
17045

>  <Target Name>
Cytochrome P450 3A4

>  <Target Organism>
Homo sapiens

>  <Target Description>
Target is a single protein chain

>  <Sequence Accession>
P08684

>  <Reference>
J Nat Prod 74 (1), 102-105 (2011)

>  <Pubmed ID>
21138310

>  <DOI>
10.1021/np100665j

$$$$
465370
Actelion Java MolfileCreator 1.0

 26 29  0  0  0  0  0  0  0  0999 V2000
    0.0000   -0.0000   -0.0000 O   0  0  0  0  0  0  0  0  0  0  0  0
    0.4537   -1.4209   -0.0000 C   0  0  0  0  0  0  0  0  0  0  0  0
   -0.4418   -2.6270   -0.0000 O   0  0  0  0  0  0  0  0  0  0  0  0
    1.8747   -1.8747   -0.0000 C   0  0  0  0  0  0  0  0  0  0  0  0
    0.4299   -3.8449   -0.0000 C   0  0  0  0  0  0  0  0  0  0  0  0
    1.8628   -3.3673   -0.0000 C   0  0  0  0  0  0  0  0  0  0  0  0
    3.1762   -1.1105   -0.0000 C   0  0  0  0  0  0  0  0  0  0  0  0
    3.1643   -4.1076   -0.0000 C   0  0  0  0  0  0  0  0  0  0  0  0
    4.4778   -1.8508   -0.0000 C   0  0  0  0  0  0  0  0  0  0  0  0
    4.4658   -3.3434   -0.0000 C   0  0  0  0  0  0  0  0  0  0  0  0
    3.1524   -5.6121   -0.0000 C   0  0  0  0  0  0  0  0  0  0  0  0
    5.7674   -1.0866   -0.0000 C   0  0  0  0  0  0  0  0  0  0  0  0
    5.7554   -4.0837   -0.0000 C   0  0  0  0  0  0  0  0  0  0  0  0
    1.8269   -6.3525   -0.0000 C   0  0  0  0  0  0  0  0  0  0  0  0
    4.4539   -6.3525   -0.0000 C   0  0  0  0  0  0  0  0  0  0  0  0
    7.0689   -1.8269   -0.0000 C   0  0  0  0  0  0  0  0  0  0  0  0
    7.0570   -3.3195   -0.0000 C   0  0  0  0  0  0  0  0  0  0  0  0
    1.8150   -7.8451   -0.0000 C   0  0  0  0  0  0  0  0  0  0  0  0
    4.4420   -7.8451   -0.0000 C   0  0  0  0  0  0  0  0  0  0  0  0
    8.3585   -1.0627   -0.0000 O   0  0  0  0  0  0  0  0  0  0  0  0
    8.3466   -4.0718   -0.0000 O   0  0  0  0  0  0  0  0  0  0  0  0
    0.5015   -8.5854   -0.0000 O   0  0  0  0  0  0  0  0  0  0  0  0
    3.1165   -8.5854   -0.0000 C   0  0  0  0  0  0  0  0  0  0  0  0
    8.3466    0.4537   -0.0000 C   0  0  0  0  0  0  0  0  0  0  0  0
    0.4896  -10.0780   -0.0000 C   0  0  0  0  0  0  0  0  0  0  0  0
    3.1046  -10.0780   -0.0000 O   0  0  0  0  0  0  0  0  0  0  0  0
  1  2  2  0  0  0  0
  2  3  1  0  0  0  0
  2  4  1  0  0  0  0
  3  5  1  0  0  0  0
  4  6  1  0  0  0  0
  4  7  1  6  0  0  0
  6  8  1  0  0  0  0
  7  9  1  0  0  0  0
  8 10  1  0  0  0  0
  8 11  1  6  0  0  0
  9 12  1  0  0  0  0
 10 13  1  0  0  0  0
 11 14  2  0  0  0  0
 11 15  1  0  0  0  0
 12 16  2  0  0  0  0
 13 17  2  0  0  0  0
 14 18  1  0  0  0  0
 15 19  2  0  0  0  0
 16 20  1  0  0  0  0
 17 21  1  0  0  0  0
 18 22  1  0  0  0  0
 18 23  2  0  0  0  0
 20 24  1  0  0  0  0
 22 25  1  0  0  0  0
 23 26  1  0  0  0  0
  6  5  1  1  0  0  0
  9 10  2  0  0  0  0
 16 17  1  0  0  0  0
 19 23  1  0  0  0  0
M  END
>  <MolRegNo>
465370

>  <m>
=

>  <Value>
200

>  <Unit>
nM

>  <Type>
IC50

>  <pValue>
6.7

>  <Ligand Efficiency>
0

>  <Binding Efficiency>
0

>  <Surface Efficiency>
0

>  <Assay Index>
561653

>  <Assay Category>


>  <Assay Organism>


>  <Target ID>
17045

>  <Target Name>
Cytochrome P450 3A4

>  <Target Organism>
Homo sapiens

>  <Target Description>
Target is a single protein chain

>  <Sequence Accession>
P08684

>  <Reference>
J Nat Prod 74 (1), 102-105 (2011)

>  <Pubmed ID>
21138310

>  <DOI>
10.1021/np100665j

$$$$
1068940
Actelion Java MolfileCreator 1.0

 24 26  0  0  0  0  0  0  0  0999 V2000
    0.0000   -0.0000   -0.0000 S   0  0  0  0  0  0  0  0  0  0  0  0
   -0.0239   -1.4910   -0.0000 C   0  0  0  0  0  0  0  0  0  0  0  0
   -1.4433    0.4890   -0.0000 C   0  0  0  0  0  0  0  0  0  0  0  0
   -1.4791   -1.9323   -0.0000 N   0  0  0  0  0  0  0  0  0  0  0  0
    1.2644   -2.2305   -0.0000 N   0  0  0  0  0  0  0  0  0  0  0  0
   -2.3498   -0.7157   -0.0000 C   0  0  0  0  0  0  0  0  0  0  0  0
    2.5526   -1.4671   -0.0000 C   0  0  0  0  0  0  0  0  0  0  0  0
    2.5407    0.0477   -0.0000 O   0  0  0  0  0  0  0  0  0  0  0  0
    3.8408   -2.2067   -0.0000 C   0  0  0  0  0  0  0  0  0  0  0  0
    3.8289   -3.7096   -0.0000 C   0  0  0  0  0  0  0  0  0  0  0  0
    5.1290   -1.4433   -0.0000 C   0  0  0  0  0  0  0  0  0  0  0  0
    5.1171   -4.4491   -0.0000 C   0  0  0  0  0  0  0  0  0  0  0  0
    6.4292   -2.1828   -0.0000 C   0  0  0  0  0  0  0  0  0  0  0  0
    6.4173   -3.6857   -0.0000 C   0  0  0  0  0  0  0  0  0  0  0  0
    7.7174   -4.4253   -0.0000 N   0  0  0  0  0  0  0  0  0  0  0  0
    9.0056   -3.6619   -0.0000 C   0  0  0  0  0  0  0  0  0  0  0  0
    8.9937   -2.1470   -0.0000 O   0  0  0  0  0  0  0  0  0  0  0  0
   10.3058   -4.4014   -0.0000 C   0  0  0  0  0  0  0  0  0  0  0  0
   11.5821   -3.6261   -0.0000 C   0  0  0  0  0  0  0  0  0  0  0  0
   10.2819   -5.8924   -0.0000 C   0  0  0  0  0  0  0  0  0  0  0  0
   12.8703   -4.3537   -0.0000 C   0  0  0  0  0  0  0  0  0  0  0  0
   11.5582   -2.1113   -0.0000 C   0  0  0  0  0  0  0  0  0  0  0  0
   11.5701   -6.6320   -0.0000 C   0  0  0  0  0  0  0  0  0  0  0  0
   12.8703   -5.8566   -0.0000 C   0  0  0  0  0  0  0  0  0  0  0  0
  1  2  1  0  0  0  0
  1  3  1  0  0  0  0
  2  4  2  0  0  0  0
  2  5  1  0  0  0  0
  3  6  2  0  0  0  0
  5  7  1  0  0  0  0
  7  8  2  0  0  0  0
  7  9  1  0  0  0  0
  9 10  2  0  0  0  0
  9 11  1  0  0  0  0
 10 12  1  0  0  0  0
 11 13  2  0  0  0  0
 12 14  2  0  0  0  0
 14 15  1  0  0  0  0
 15 16  1  0  0  0  0
 16 17  2  0  0  0  0
 16 18  1  0  0  0  0
 18 19  2  0  0  0  0
 18 20  1  0  0  0  0
 19 21  1  0  0  0  0
 19 22  1  0  0  0  0
 20 23  2  0  0  0  0
 21 24  2  0  0  0  0
  4  6  1  0  0  0  0
 13 14  1  0  0  0  0
 23 24  1  0  0  0  0
M  END
>  <MolRegNo>
1068940

>  <m>
=

>  <Value>
1400

>  <Unit>
nM

>  <Type>
IC50

>  <pValue>
5.85

>  <Ligand Efficiency>
0

>  <Binding Efficiency>
0

>  <Surface Efficiency>
0

>  <Assay Index>
562582

>  <Assay Category>


>  <Assay Organism>


>  <Target ID>
17045

>  <Target Name>
Cytochrome P450 3A4

>  <Target Organism>
Homo sapiens

>  <Target Description>
Target is a single protein chain

>  <Sequence Accession>
P08684

>  <Reference>
J Med Chem 54 (3), 751-764 (2011)

>  <Pubmed ID>
21210664

>  <DOI>
10.1021/jm1008659

$$$$
1068998
Actelion Java MolfileCreator 1.0

 28 30  0  0  0  0  0  0  0  0999 V2000
    0.0000   -0.0000   -0.0000 Cl  0  0  0  0  0  0  0  0  0  0  0  0
   -0.0119   -1.4909   -0.0000 C   0  0  0  0  0  0  0  0  0  0  0  0
    1.2762   -2.2304   -0.0000 C   0  0  0  0  0  0  0  0  0  0  0  0
   -1.3239   -2.2304   -0.0000 C   0  0  0  0  0  0  0  0  0  0  0  0
    2.5643   -1.4670   -0.0000 O   0  0  0  0  0  0  0  0  0  0  0  0
    1.2643   -3.7332   -0.0000 C   0  0  0  0  0  0  0  0  0  0  0  0
   -1.3358   -3.7332   -0.0000 C   0  0  0  0  0  0  0  0  0  0  0  0
    3.8644   -2.2065   -0.0000 C   0  0  0  0  0  0  0  0  0  0  0  0
   -0.0477   -4.4726   -0.0000 C   0  0  0  0  0  0  0  0  0  0  0  0
   -2.6478   -4.4726   -0.0000 C   0  0  0  0  0  0  0  0  0  0  0  0
    5.1405   -1.4312   -0.0000 C   0  0  0  0  0  0  0  0  0  0  0  0
    3.8524   -3.6974   -0.0000 C   0  0  0  0  0  0  0  0  0  0  0  0
   -2.6597   -5.9635   -0.0000 O   0  0  0  0  0  0  0  0  0  0  0  0
   -3.9598   -3.7093   -0.0000 O   0  0  0  0  0  0  0  0  0  0  0  0
    5.1167    0.0835   -0.0000 O   0  0  0  0  0  0  0  0  0  0  0  0
    6.4287   -2.1588   -0.0000 C   0  0  0  0  0  0  0  0  0  0  0  0
    5.1405   -4.4368   -0.0000 C   0  0  0  0  0  0  0  0  0  0  0  0
   -3.9717   -2.1946   -0.0000 C   0  0  0  0  0  0  0  0  0  0  0  0
    6.4048    0.8587   -0.0000 C   0  0  0  0  0  0  0  0  0  0  0  0
    6.4287   -3.6616   -0.0000 C   0  0  0  0  0  0  0  0  0  0  0  0
    7.7287   -4.4011   -0.0000 C   0  0  0  0  0  0  0  0  0  0  0  0
    9.0168   -3.6258   -0.0000 C   0  0  0  0  0  0  0  0  0  0  0  0
    9.1480   -2.1111   -0.0000 S   0  0  0  0  0  0  0  0  0  0  0  0
   10.3765   -4.2222   -0.0000 C   0  0  0  0  0  0  0  0  0  0  0  0
   10.6031   -1.7771   -0.0000 C   0  0  0  0  0  0  0  0  0  0  0  0
   10.6866   -5.6773   -0.0000 O   0  0  0  0  0  0  0  0  0  0  0  0
   11.3664   -3.0891   -0.0000 N   0  0  0  0  0  0  0  0  0  0  0  0
   11.1995   -0.3817   -0.0000 O   0  0  0  0  0  0  0  0  0  0  0  0
  1  2  1  0  0  0  0
  2  3  2  0  0  0  0
  2  4  1  0  0  0  0
  3  5  1  0  0  0  0
  3  6  1  0  0  0  0
  4  7  2  0  0  0  0
  5  8  1  0  0  0  0
  6  9  2  0  0  0  0
  7 10  1  0  0  0  0
  8 11  2  0  0  0  0
  8 12  1  0  0  0  0
 10 13  2  0  0  0  0
 10 14  1  0  0  0  0
 11 15  1  0  0  0  0
 11 16  1  0  0  0  0
 12 17  2  0  0  0  0
 14 18  1  0  0  0  0
 15 19  1  0  0  0  0
 16 20  2  0  0  0  0
 20 21  1  0  0  0  0
 21 22  2  0  0  0  0
 22 23  1  0  0  0  0
 22 24  1  0  0  0  0
 23 25  1  0  0  0  0
 24 26  2  0  0  0  0
 24 27  1  0  0  0  0
 25 28  2  0  0  0  0
  7  9  1  0  0  0  0
 17 20  1  0  0  0  0
 25 27  1  0  0  0  0
M  END
>  <MolRegNo>
1068998

>  <m>
=

>  <Value>
2500

>  <Unit>
nM

>  <Type>
IC50

>  <pValue>
5.6

>  <Ligand Efficiency>
0

>  <Binding Efficiency>
0

>  <Surface Efficiency>
0

>  <Assay Index>
562708

>  <Assay Category>


>  <Assay Organism>


>  <Target ID>
17045

>  <Target Name>
Cytochrome P450 3A4

>  <Target Organism>
Homo sapiens

>  <Target Description>
Target is a single protein chain

>  <Sequence Accession>
P08684

>  <Reference>
J Med Chem 54 (3), 788-808 (2011)

>  <Pubmed ID>
21218783

>  <DOI>
10.1021/jm101063h

$$$$
1069002
Actelion Java MolfileCreator 1.0

 28 30  0  0  0  0  0  0  0  0999 V2000
    0.0000   -0.0000   -0.0000 Br  0  0  0  0  0  0  0  0  0  0  0  0
   -0.0119   -1.4910   -0.0000 C   0  0  0  0  0  0  0  0  0  0  0  0
    1.2763   -2.2306   -0.0000 C   0  0  0  0  0  0  0  0  0  0  0  0
   -1.3240   -2.2306   -0.0000 C   0  0  0  0  0  0  0  0  0  0  0  0
    2.5645   -1.4672   -0.0000 O   0  0  0  0  0  0  0  0  0  0  0  0
    1.2644   -3.7335   -0.0000 C   0  0  0  0  0  0  0  0  0  0  0  0
   -1.3359   -3.7335   -0.0000 C   0  0  0  0  0  0  0  0  0  0  0  0
    3.8647   -2.2067   -0.0000 C   0  0  0  0  0  0  0  0  0  0  0  0
   -0.0477   -4.4730   -0.0000 C   0  0  0  0  0  0  0  0  0  0  0  0
   -2.6480   -4.4730   -0.0000 C   0  0  0  0  0  0  0  0  0  0  0  0
    5.1410   -1.4314   -0.0000 C   0  0  0  0  0  0  0  0  0  0  0  0
    3.8528   -3.6977   -0.0000 C   0  0  0  0  0  0  0  0  0  0  0  0
   -3.9601   -3.7096   -0.0000 F   0  0  0  0  0  0  0  0  0  0  0  0
   -2.6600   -5.9641   -0.0000 F   0  0  0  0  0  0  0  0  0  0  0  0
   -3.9721   -5.2007   -0.0000 F   0  0  0  0  0  0  0  0  0  0  0  0
    5.1172    0.0835   -0.0000 O   0  0  0  0  0  0  0  0  0  0  0  0
    6.4292   -2.1590   -0.0000 C   0  0  0  0  0  0  0  0  0  0  0  0
    5.1410   -4.4373   -0.0000 C   0  0  0  0  0  0  0  0  0  0  0  0
    6.4054    0.8588   -0.0000 C   0  0  0  0  0  0  0  0  0  0  0  0
    6.4292   -3.6619   -0.0000 C   0  0  0  0  0  0  0  0  0  0  0  0
    7.7294   -4.4015   -0.0000 C   0  0  0  0  0  0  0  0  0  0  0  0
    9.0176   -3.6261   -0.0000 C   0  0  0  0  0  0  0  0  0  0  0  0
    9.1489   -2.1113   -0.0000 S   0  0  0  0  0  0  0  0  0  0  0  0
   10.3775   -4.2225   -0.0000 C   0  0  0  0  0  0  0  0  0  0  0  0
   10.6041   -1.7773   -0.0000 C   0  0  0  0  0  0  0  0  0  0  0  0
   10.6876   -5.6778   -0.0000 O   0  0  0  0  0  0  0  0  0  0  0  0
   11.3675   -3.0894   -0.0000 N   0  0  0  0  0  0  0  0  0  0  0  0
   11.2005   -0.3817   -0.0000 O   0  0  0  0  0  0  0  0  0  0  0  0
  1  2  1  0  0  0  0
  2  3  2  0  0  0  0
  2  4  1  0  0  0  0
  3  5  1  0  0  0  0
  3  6  1  0  0  0  0
  4  7  2  0  0  0  0
  5  8  1  0  0  0  0
  6  9  2  0  0  0  0
  7 10  1  0  0  0  0
  8 11  2  0  0  0  0
  8 12  1  0  0  0  0
 10 13  1  0  0  0  0
 10 14  1  0  0  0  0
 10 15  1  0  0  0  0
 11 16  1  0  0  0  0
 11 17  1  0  0  0  0
 12 18  2  0  0  0  0
 16 19  1  0  0  0  0
 17 20  2  0  0  0  0
 20 21  1  0  0  0  0
 21 22  2  0  0  0  0
 22 23  1  0  0  0  0
 22 24  1  0  0  0  0
 23 25  1  0  0  0  0
 24 26  2  0  0  0  0
 24 27  1  0  0  0  0
 25 28  2  0  0  0  0
  7  9  1  0  0  0  0
 18 20  1  0  0  0  0
 25 27  1  0  0  0  0
M  END
>  <MolRegNo>
1069002

>  <m>
=

>  <Value>
3800

>  <Unit>
nM

>  <Type>
IC50

>  <pValue>
5.42

>  <Ligand Efficiency>
0

>  <Binding Efficiency>
0

>  <Surface Efficiency>
0

>  <Assay Index>
562708

>  <Assay Category>


>  <Assay Organism>


>  <Target ID>
17045

>  <Target Name>
Cytochrome P450 3A4

>  <Target Organism>
Homo sapiens

>  <Target Description>
Target is a single protein chain

>  <Sequence Accession>
P08684

>  <Reference>
J Med Chem 54 (3), 788-808 (2011)

>  <Pubmed ID>
21218783

>  <DOI>
10.1021/jm101063h

$$$$
1069004
Actelion Java MolfileCreator 1.0

 31 33  0  0  0  0  0  0  0  0999 V2000
    0.0000   -0.0000   -0.0000 S   0  0  0  0  0  0  0  0  0  0  0  0
    1.4471    0.3321   -0.0000 C   0  0  0  0  0  0  0  0  0  0  0  0
   -0.1542   -1.4826   -0.0000 C   0  0  0  0  0  0  0  0  0  0  0  0
    2.0401    1.7199   -0.0000 O   0  0  0  0  0  0  0  0  0  0  0  0
    2.1943   -0.9489   -0.0000 N   0  0  0  0  0  0  0  0  0  0  0  0
    1.1980   -2.0757   -0.0000 C   0  0  0  0  0  0  0  0  0  0  0  0
   -1.4589   -2.2299   -0.0000 C   0  0  0  0  0  0  0  0  0  0  0  0
    1.5064   -3.5228   -0.0000 O   0  0  0  0  0  0  0  0  0  0  0  0
   -2.7755   -1.4708   -0.0000 C   0  0  0  0  0  0  0  0  0  0  0  0
   -2.7992    0.0474   -0.0000 C   0  0  0  0  0  0  0  0  0  0  0  0
   -4.0802   -2.2062   -0.0000 C   0  0  0  0  0  0  0  0  0  0  0  0
   -4.1040    0.7947   -0.0000 C   0  0  0  0  0  0  0  0  0  0  0  0
   -5.3850   -1.4471   -0.0000 C   0  0  0  0  0  0  0  0  0  0  0  0
   -4.1277    2.3011   -0.0000 O   0  0  0  0  0  0  0  0  0  0  0  0
   -5.3968    0.0474   -0.0000 C   0  0  0  0  0  0  0  0  0  0  0  0
   -2.8467    3.0720   -0.0000 C   0  0  0  0  0  0  0  0  0  0  0  0
   -6.7015    0.8066   -0.0000 O   0  0  0  0  0  0  0  0  0  0  0  0
   -8.0063    0.0712   -0.0000 C   0  0  0  0  0  0  0  0  0  0  0  0
   -9.3110    0.8303   -0.0000 C   0  0  0  0  0  0  0  0  0  0  0  0
   -8.0181   -1.4233   -0.0000 C   0  0  0  0  0  0  0  0  0  0  0  0
  -10.6157    0.0949   -0.0000 C   0  0  0  0  0  0  0  0  0  0  0  0
   -9.3229    2.3366   -0.0000 C   0  0  0  0  0  0  0  0  0  0  0  0
   -9.3229   -2.1587   -0.0000 C   0  0  0  0  0  0  0  0  0  0  0  0
  -10.6276   -1.3996   -0.0000 C   0  0  0  0  0  0  0  0  0  0  0  0
   -8.0419    3.0958   -0.0000 F   0  0  0  0  0  0  0  0  0  0  0  0
  -10.6276    3.0958   -0.0000 F   0  0  0  0  0  0  0  0  0  0  0  0
   -9.3466    3.8549   -0.0000 F   0  0  0  0  0  0  0  0  0  0  0  0
  -11.9323   -2.1350   -0.0000 C   0  0  0  0  0  0  0  0  0  0  0  0
  -11.9442   -3.6176   -0.0000 O   0  0  0  0  0  0  0  0  0  0  0  0
  -13.2370   -1.3759   -0.0000 O   0  0  0  0  0  0  0  0  0  0  0  0
  -13.2489    0.1305   -0.0000 C   0  0  0  0  0  0  0  0  0  0  0  0
  1  2  1  0  0  0  0
  1  3  1  0  0  0  0
  2  4  2  0  0  0  0
  2  5  1  0  0  0  0
  3  6  1  0  0  0  0
  3  7  2  0  0  0  0
  6  8  2  0  0  0  0
  7  9  1  0  0  0  0
  9 10  2  0  0  0  0
  9 11  1  0  0  0  0
 10 12  1  0  0  0  0
 11 13  2  0  0  0  0
 12 14  1  0  0  0  0
 12 15  2  0  0  0  0
 14 16  1  0  0  0  0
 15 17  1  0  0  0  0
 17 18  1  0  0  0  0
 18 19  2  0  0  0  0
 18 20  1  0  0  0  0
 19 21  1  0  0  0  0
 19 22  1  0  0  0  0
 20 23  2  0  0  0  0
 21 24  2  0  0  0  0
 22 25  1  0  0  0  0
 22 26  1  0  0  0  0
 22 27  1  0  0  0  0
 24 28  1  0  0  0  0
 28 29  2  0  0  0  0
 28 30  1  0  0  0  0
 30 31  1  0  0  0  0
  5  6  1  0  0  0  0
 13 15  1  0  0  0  0
 23 24  1  0  0  0  0
M  END
>  <MolRegNo>
1069004

>  <m>
=

>  <Value>
9800

>  <Unit>
nM

>  <Type>
IC50

>  <pValue>
5.01

>  <Ligand Efficiency>
0

>  <Binding Efficiency>
0

>  <Surface Efficiency>
0

>  <Assay Index>
562708

>  <Assay Category>


>  <Assay Organism>


>  <Target ID>
17045

>  <Target Name>
Cytochrome P450 3A4

>  <Target Organism>
Homo sapiens

>  <Target Description>
Target is a single protein chain

>  <Sequence Accession>
P08684

>  <Reference>
J Med Chem 54 (3), 788-808 (2011)

>  <Pubmed ID>
21218783

>  <DOI>
10.1021/jm101063h

$$$$
1069007
Actelion Java MolfileCreator 1.0

 27 29  0  0  0  0  0  0  0  0999 V2000
    0.0000   -0.0000   -0.0000 S   0  0  0  0  0  0  0  0  0  0  0  0
    1.4469    0.3321   -0.0000 C   0  0  0  0  0  0  0  0  0  0  0  0
   -0.1542   -1.4825   -0.0000 C   0  0  0  0  0  0  0  0  0  0  0  0
    2.0399    1.7197   -0.0000 O   0  0  0  0  0  0  0  0  0  0  0  0
    2.1941   -0.9488   -0.0000 N   0  0  0  0  0  0  0  0  0  0  0  0
    1.1979   -2.0755   -0.0000 C   0  0  0  0  0  0  0  0  0  0  0  0
   -1.4588   -2.2297   -0.0000 C   0  0  0  0  0  0  0  0  0  0  0  0
    1.5062   -3.5225   -0.0000 O   0  0  0  0  0  0  0  0  0  0  0  0
   -2.7753   -1.4707   -0.0000 C   0  0  0  0  0  0  0  0  0  0  0  0
   -2.7990    0.0474   -0.0000 C   0  0  0  0  0  0  0  0  0  0  0  0
   -4.0799   -2.2060   -0.0000 C   0  0  0  0  0  0  0  0  0  0  0  0
   -4.1036    0.7946   -0.0000 C   0  0  0  0  0  0  0  0  0  0  0  0
   -5.3845   -1.4469   -0.0000 C   0  0  0  0  0  0  0  0  0  0  0  0
   -4.1273    2.3009   -0.0000 O   0  0  0  0  0  0  0  0  0  0  0  0
   -5.3964    0.0474   -0.0000 C   0  0  0  0  0  0  0  0  0  0  0  0
   -2.8464    3.0718   -0.0000 C   0  0  0  0  0  0  0  0  0  0  0  0
   -6.7010    0.8065   -0.0000 O   0  0  0  0  0  0  0  0  0  0  0  0
   -8.0056    0.0712   -0.0000 C   0  0  0  0  0  0  0  0  0  0  0  0
   -9.3102    0.8302   -0.0000 C   0  0  0  0  0  0  0  0  0  0  0  0
   -8.0175   -1.4232   -0.0000 C   0  0  0  0  0  0  0  0  0  0  0  0
  -10.6148    0.0949   -0.0000 C   0  0  0  0  0  0  0  0  0  0  0  0
   -9.3221    2.3364   -0.0000 C   0  0  0  0  0  0  0  0  0  0  0  0
   -9.3221   -2.1585   -0.0000 C   0  0  0  0  0  0  0  0  0  0  0  0
  -10.6267   -1.3995   -0.0000 C   0  0  0  0  0  0  0  0  0  0  0  0
   -8.0412    3.0955   -0.0000 F   0  0  0  0  0  0  0  0  0  0  0  0
  -10.6267    3.0955   -0.0000 F   0  0  0  0  0  0  0  0  0  0  0  0
   -9.3458    3.8545   -0.0000 F   0  0  0  0  0  0  0  0  0  0  0  0
  1  2  1  0  0  0  0
  1  3  1  0  0  0  0
  2  4  2  0  0  0  0
  2  5  1  0  0  0  0
  3  6  1  0  0  0  0
  3  7  2  0  0  0  0
  6  8  2  0  0  0  0
  7  9  1  0  0  0  0
  9 10  2  0  0  0  0
  9 11  1  0  0  0  0
 10 12  1  0  0  0  0
 11 13  2  0  0  0  0
 12 14  1  0  0  0  0
 12 15  2  0  0  0  0
 14 16  1  0  0  0  0
 15 17  1  0  0  0  0
 17 18  1  0  0  0  0
 18 19  2  0  0  0  0
 18 20  1  0  0  0  0
 19 21  1  0  0  0  0
 19 22  1  0  0  0  0
 20 23  2  0  0  0  0
 21 24  2  0  0  0  0
 22 25  1  0  0  0  0
 22 26  1  0  0  0  0
 22 27  1  0  0  0  0
  5  6  1  0  0  0  0
 13 15  1  0  0  0  0
 23 24  1  0  0  0  0
M  END
>  <MolRegNo>
1069007

>  <m>
=

>  <Value>
1900

>  <Unit>
nM

>  <Type>
IC50

>  <pValue>
5.72

>  <Ligand Efficiency>
0

>  <Binding Efficiency>
0

>  <Surface Efficiency>
0

>  <Assay Index>
562708

>  <Assay Category>


>  <Assay Organism>


>  <Target ID>
17045

>  <Target Name>
Cytochrome P450 3A4

>  <Target Organism>
Homo sapiens

>  <Target Description>
Target is a single protein chain

>  <Sequence Accession>
P08684

>  <Reference>
J Med Chem 54 (3), 788-808 (2011)

>  <Pubmed ID>
21218783

>  <DOI>
10.1021/jm101063h

$$$$
1069016
Actelion Java MolfileCreator 1.0

 29 32  0  0  0  0  0  0  0  0999 V2000
    0.0000   -0.0000   -0.0000 S   0  0  0  0  0  0  0  0  0  0  0  0
    1.4474    0.3322   -0.0000 C   0  0  0  0  0  0  0  0  0  0  0  0
   -0.1542   -1.4829   -0.0000 C   0  0  0  0  0  0  0  0  0  0  0  0
    2.0405    1.7202   -0.0000 O   0  0  0  0  0  0  0  0  0  0  0  0
    2.1948   -0.9491   -0.0000 N   0  0  0  0  0  0  0  0  0  0  0  0
    1.1982   -2.0761   -0.0000 C   0  0  0  0  0  0  0  0  0  0  0  0
   -1.4592   -2.2303   -0.0000 C   0  0  0  0  0  0  0  0  0  0  0  0
    1.5067   -3.5235   -0.0000 O   0  0  0  0  0  0  0  0  0  0  0  0
   -2.7761   -1.4711   -0.0000 C   0  0  0  0  0  0  0  0  0  0  0  0
   -2.7998    0.0475   -0.0000 C   0  0  0  0  0  0  0  0  0  0  0  0
   -4.0811   -2.2066   -0.0000 C   0  0  0  0  0  0  0  0  0  0  0  0
   -4.1048    0.7949   -0.0000 C   0  0  0  0  0  0  0  0  0  0  0  0
   -5.3860   -1.4474   -0.0000 C   0  0  0  0  0  0  0  0  0  0  0  0
   -4.1285    2.3015   -0.0000 O   0  0  0  0  0  0  0  0  0  0  0  0
   -5.3979    0.0475   -0.0000 C   0  0  0  0  0  0  0  0  0  0  0  0
   -2.8472    3.0727   -0.0000 C   0  0  0  0  0  0  0  0  0  0  0  0
   -6.7148    0.8067   -0.0000 O   0  0  0  0  0  0  0  0  0  0  0  0
   -8.0197    0.0712   -0.0000 C   0  0  0  0  0  0  0  0  0  0  0  0
   -9.3366    0.8186   -0.0000 C   0  0  0  0  0  0  0  0  0  0  0  0
   -8.0316   -1.4236   -0.0000 C   0  0  0  0  0  0  0  0  0  0  0  0
  -10.6416    0.0830   -0.0000 C   0  0  0  0  0  0  0  0  0  0  0  0
   -9.3485    2.3134   -0.0000 C   0  0  0  0  0  0  0  0  0  0  0  0
   -9.3366   -2.1592   -0.0000 C   0  0  0  0  0  0  0  0  0  0  0  0
  -10.6535   -1.4118   -0.0000 C   0  0  0  0  0  0  0  0  0  0  0  0
  -11.9347    0.8304   -0.0000 C   0  0  0  0  0  0  0  0  0  0  0  0
  -10.6535    3.0727   -0.0000 C   0  0  0  0  0  0  0  0  0  0  0  0
  -11.9584   -2.1473   -0.0000 C   0  0  0  0  0  0  0  0  0  0  0  0
  -11.9584    2.3253   -0.0000 C   0  0  0  0  0  0  0  0  0  0  0  0
  -13.2634   -2.8828   -0.0000 N   0  0  0  0  0  0  0  0  0  0  0  0
  1  2  1  0  0  0  0
  1  3  1  0  0  0  0
  2  4  2  0  0  0  0
  2  5  1  0  0  0  0
  3  6  1  0  0  0  0
  3  7  2  0  0  0  0
  6  8  2  0  0  0  0
  7  9  1  0  0  0  0
  9 10  2  0  0  0  0
  9 11  1  0  0  0  0
 10 12  1  0  0  0  0
 11 13  2  0  0  0  0
 12 14  1  0  0  0  0
 12 15  2  0  0  0  0
 14 16  1  0  0  0  0
 15 17  1  0  0  0  0
 17 18  1  0  0  0  0
 18 19  1  0  0  0  0
 18 20  2  0  0  0  0
 19 21  1  0  0  0  0
 19 22  2  0  0  0  0
 20 23  1  0  0  0  0
 21 24  1  0  0  0  0
 21 25  2  0  0  0  0
 22 26  1  0  0  0  0
 24 27  1  0  0  0  0
 25 28  1  0  0  0  0
 27 29  3  0  0  0  0
  5  6  1  0  0  0  0
 13 15  1  0  0  0  0
 23 24  2  0  0  0  0
 26 28  2  0  0  0  0
M  END
>  <MolRegNo>
1069016

>  <m>
=

>  <Value>
4500

>  <Unit>
nM

>  <Type>
IC50

>  <pValue>
5.35

>  <Ligand Efficiency>
0

>  <Binding Efficiency>
0

>  <Surface Efficiency>
0

>  <Assay Index>
562708

>  <Assay Category>


>  <Assay Organism>


>  <Target ID>
17045

>  <Target Name>
Cytochrome P450 3A4

>  <Target Organism>
Homo sapiens

>  <Target Description>
Target is a single protein chain

>  <Sequence Accession>
P08684

>  <Reference>
J Med Chem 54 (3), 788-808 (2011)

>  <Pubmed ID>
21218783

>  <DOI>
10.1021/jm101063h

$$$$
1069017
Actelion Java MolfileCreator 1.0

 31 34  0  0  0  0  0  0  0  0999 V2000
    0.0000   -0.0000   -0.0000 S   0  0  0  0  0  0  0  0  0  0  0  0
    1.4473    0.3322   -0.0000 C   0  0  0  0  0  0  0  0  0  0  0  0
   -0.1542   -1.4829   -0.0000 C   0  0  0  0  0  0  0  0  0  0  0  0
    2.0405    1.7202   -0.0000 O   0  0  0  0  0  0  0  0  0  0  0  0
    2.1947   -0.9491   -0.0000 N   0  0  0  0  0  0  0  0  0  0  0  0
    1.1982   -2.0761   -0.0000 C   0  0  0  0  0  0  0  0  0  0  0  0
   -1.4592   -2.2303   -0.0000 C   0  0  0  0  0  0  0  0  0  0  0  0
    1.5066   -3.5234   -0.0000 O   0  0  0  0  0  0  0  0  0  0  0  0
   -2.7760   -1.4710   -0.0000 C   0  0  0  0  0  0  0  0  0  0  0  0
   -2.7997    0.0475   -0.0000 C   0  0  0  0  0  0  0  0  0  0  0  0
   -4.0809   -2.2066   -0.0000 C   0  0  0  0  0  0  0  0  0  0  0  0
   -4.1047    0.7948   -0.0000 C   0  0  0  0  0  0  0  0  0  0  0  0
   -5.3859   -1.4473   -0.0000 C   0  0  0  0  0  0  0  0  0  0  0  0
   -4.1284    2.3015   -0.0000 O   0  0  0  0  0  0  0  0  0  0  0  0
   -5.3977    0.0475   -0.0000 C   0  0  0  0  0  0  0  0  0  0  0  0
   -2.8472    3.0726   -0.0000 C   0  0  0  0  0  0  0  0  0  0  0  0
   -6.7146    0.8067   -0.0000 O   0  0  0  0  0  0  0  0  0  0  0  0
   -8.0195    0.0712   -0.0000 C   0  0  0  0  0  0  0  0  0  0  0  0
   -9.3363    0.8186   -0.0000 C   0  0  0  0  0  0  0  0  0  0  0  0
   -8.0314   -1.4236   -0.0000 C   0  0  0  0  0  0  0  0  0  0  0  0
  -10.6413    0.0830   -0.0000 C   0  0  0  0  0  0  0  0  0  0  0  0
   -9.3482    2.3133   -0.0000 C   0  0  0  0  0  0  0  0  0  0  0  0
   -9.3482   -2.1591   -0.0000 C   0  0  0  0  0  0  0  0  0  0  0  0
  -10.6531   -1.4117   -0.0000 C   0  0  0  0  0  0  0  0  0  0  0  0
  -11.9344    0.8304   -0.0000 C   0  0  0  0  0  0  0  0  0  0  0  0
  -10.6531    3.0726   -0.0000 C   0  0  0  0  0  0  0  0  0  0  0  0
  -11.9581   -2.1472   -0.0000 C   0  0  0  0  0  0  0  0  0  0  0  0
  -11.9581    2.3252   -0.0000 C   0  0  0  0  0  0  0  0  0  0  0  0
  -11.9699   -3.6301   -0.0000 O   0  0  0  0  0  0  0  0  0  0  0  0
  -13.2630   -1.3880   -0.0000 O   0  0  0  0  0  0  0  0  0  0  0  0
  -13.2749    0.1186   -0.0000 C   0  0  0  0  0  0  0  0  0  0  0  0
  1  2  1  0  0  0  0
  1  3  1  0  0  0  0
  2  4  2  0  0  0  0
  2  5  1  0  0  0  0
  3  6  1  0  0  0  0
  3  7  2  0  0  0  0
  6  8  2  0  0  0  0
  7  9  1  0  0  0  0
  9 10  2  0  0  0  0
  9 11  1  0  0  0  0
 10 12  1  0  0  0  0
 11 13  2  0  0  0  0
 12 14  1  0  0  0  0
 12 15  2  0  0  0  0
 14 16  1  0  0  0  0
 15 17  1  0  0  0  0
 17 18  1  0  0  0  0
 18 19  1  0  0  0  0
 18 20  2  0  0  0  0
 19 21  1  0  0  0  0
 19 22  2  0  0  0  0
 20 23  1  0  0  0  0
 21 24  1  0  0  0  0
 21 25  2  0  0  0  0
 22 26  1  0  0  0  0
 24 27  1  0  0  0  0
 25 28  1  0  0  0  0
 27 29  2  0  0  0  0
 27 30  1  0  0  0  0
 30 31  1  0  0  0  0
  5  6  1  0  0  0  0
 13 15  1  0  0  0  0
 23 24  2  0  0  0  0
 26 28  2  0  0  0  0
M  END
>  <MolRegNo>
1069017

>  <m>
=

>  <Value>
800

>  <Unit>
nM

>  <Type>
IC50

>  <pValue>
6.1

>  <Ligand Efficiency>
0

>  <Binding Efficiency>
0

>  <Surface Efficiency>
0

>  <Assay Index>
562708

>  <Assay Category>


>  <Assay Organism>


>  <Target ID>
17045

>  <Target Name>
Cytochrome P450 3A4

>  <Target Organism>
Homo sapiens

>  <Target Description>
Target is a single protein chain

>  <Sequence Accession>
P08684

>  <Reference>
J Med Chem 54 (3), 788-808 (2011)

>  <Pubmed ID>
21218783

>  <DOI>
10.1021/jm101063h

$$$$
1070013
Actelion Java MolfileCreator 1.0

 23 26  0  0  0  0  0  0  0  0999 V2000
    0.0000   -0.0000   -0.0000 O   0  0  0  0  0  0  0  0  0  0  0  0
   -0.0119   -1.4834   -0.0000 C   0  0  0  0  0  0  0  0  0  0  0  0
   -1.3173   -2.2192   -0.0000 N   0  0  0  0  0  0  0  0  0  0  0  0
    1.2698   -2.2192   -0.0000 C   0  0  0  0  0  0  0  0  0  0  0  0
   -2.6227   -1.4597   -0.0000 C   0  0  0  0  0  0  0  0  0  0  0  0
    2.0056   -3.5009   -0.0000 C   0  0  0  0  0  0  0  0  0  0  0  0
    2.7532   -2.2073   -0.0000 C   0  0  0  0  0  0  0  0  0  0  0  0
   -3.9399   -2.1955   -0.0000 N   0  0  0  0  0  0  0  0  0  0  0  0
   -2.6345    0.0593   -0.0000 C   0  0  0  0  0  0  0  0  0  0  0  0
   -5.2453   -1.4359   -0.0000 C   0  0  0  0  0  0  0  0  0  0  0  0
   -3.9399    0.8188   -0.0000 N   0  0  0  0  0  0  0  0  0  0  0  0
   -5.2572    0.0712   -0.0000 C   0  0  0  0  0  0  0  0  0  0  0  0
   -6.5507   -2.1717   -0.0000 C   0  0  0  0  0  0  0  0  0  0  0  0
   -6.5626    0.8307   -0.0000 C   0  0  0  0  0  0  0  0  0  0  0  0
   -6.7169   -3.6433   -0.0000 O   0  0  0  0  0  0  0  0  0  0  0  0
   -7.9155   -1.5427   -0.0000 C   0  0  0  0  0  0  0  0  0  0  0  0
   -6.5626    2.3379   -0.0000 C   0  0  0  0  0  0  0  0  0  0  0  0
   -7.8562    0.0949   -0.0000 C   0  0  0  0  0  0  0  0  0  0  0  0
   -8.1884   -3.9399   -0.0000 C   0  0  0  0  0  0  0  0  0  0  0  0
   -8.9242   -2.6464   -0.0000 C   0  0  0  0  0  0  0  0  0  0  0  0
   -7.8680    3.0974   -0.0000 C   0  0  0  0  0  0  0  0  0  0  0  0
   -9.1616    0.8426   -0.0000 C   0  0  0  0  0  0  0  0  0  0  0  0
   -9.1734    2.3616   -0.0000 N   0  0  0  0  0  0  0  0  0  0  0  0
  1  2  2  0  0  0  0
  2  3  1  0  0  0  0
  2  4  1  0  0  0  0
  3  5  1  0  0  0  0
  4  6  1  0  0  0  0
  4  7  1  0  0  0  0
  5  8  2  0  0  0  0
  5  9  1  0  0  0  0
  8 10  1  0  0  0  0
  9 11  2  0  0  0  0
 10 12  2  0  0  0  0
 10 13  1  0  0  0  0
 12 14  1  0  0  0  0
 13 15  1  0  0  0  0
 13 16  2  0  0  0  0
 14 17  2  0  0  0  0
 14 18  1  0  0  0  0
 15 19  1  0  0  0  0
 16 20  1  0  0  0  0
 17 21  1  0  0  0  0
 18 22  2  0  0  0  0
 21 23  2  0  0  0  0
  6  7  1  0  0  0  0
 11 12  1  0  0  0  0
 19 20  2  0  0  0  0
 22 23  1  0  0  0  0
M  END
>  <MolRegNo>
1070013

>  <m>
=

>  <Value>
25000

>  <Unit>
nM

>  <Type>
IC50

>  <pValue>
4.6

>  <Ligand Efficiency>
0

>  <Binding Efficiency>
0

>  <Surface Efficiency>
0

>  <Assay Index>
563393

>  <Assay Category>


>  <Assay Organism>
Homo sapiens

>  <Target ID>
17045

>  <Target Name>
Cytochrome P450 3A4

>  <Target Organism>
Homo sapiens

>  <Target Description>
Target is a single protein chain

>  <Sequence Accession>
P08684

>  <Reference>
ACS Med Chem Lett 2 (3), 213-218 (2011)

>  <Pubmed ID>
24900298

>  <DOI>
10.1021/ml100249e

$$$$
1070023
Actelion Java MolfileCreator 1.0

 24 27  0  0  0  0  0  0  0  0999 V2000
    0.0000   -0.0000   -0.0000 O   0  0  0  0  0  0  0  0  0  0  0  0
    1.4936    0.0119   -0.0000 C   0  0  0  0  0  0  0  0  0  0  0  0
    2.2286    1.3277   -0.0000 N   0  0  0  0  0  0  0  0  0  0  0  0
    2.2286   -1.2802   -0.0000 C   0  0  0  0  0  0  0  0  0  0  0  0
    3.7222    1.3395   -0.0000 C   0  0  0  0  0  0  0  0  0  0  0  0
    2.2167   -2.7739   -0.0000 C   0  0  0  0  0  0  0  0  0  0  0  0
    3.5207   -2.0152   -0.0000 C   0  0  0  0  0  0  0  0  0  0  0  0
    4.4571    2.6553   -0.0000 N   0  0  0  0  0  0  0  0  0  0  0  0
    4.4571    0.0474   -0.0000 C   0  0  0  0  0  0  0  0  0  0  0  0
    5.9507    2.6672   -0.0000 C   0  0  0  0  0  0  0  0  0  0  0  0
    5.9507    0.0593   -0.0000 N   0  0  0  0  0  0  0  0  0  0  0  0
    6.6975    1.3751   -0.0000 C   0  0  0  0  0  0  0  0  0  0  0  0
    6.6975    3.9830   -0.0000 C   0  0  0  0  0  0  0  0  0  0  0  0
    8.1912    1.3869   -0.0000 C   0  0  0  0  0  0  0  0  0  0  0  0
    5.9270    5.2988   -0.0000 C   0  0  0  0  0  0  0  0  0  0  0  0
    8.1912    3.9948   -0.0000 C   0  0  0  0  0  0  0  0  0  0  0  0
    8.9261    0.0948   -0.0000 C   0  0  0  0  0  0  0  0  0  0  0  0
    8.9261    2.7027   -0.0000 C   0  0  0  0  0  0  0  0  0  0  0  0
    6.6738    6.6146   -0.0000 N   0  0  0  0  0  0  0  0  0  0  0  0
    8.9261    5.3106   -0.0000 C   0  0  0  0  0  0  0  0  0  0  0  0
   10.4197    0.1067   -0.0000 C   0  0  0  0  0  0  0  0  0  0  0  0
   10.4197    2.7146   -0.0000 C   0  0  0  0  0  0  0  0  0  0  0  0
    8.1674    6.6264   -0.0000 C   0  0  0  0  0  0  0  0  0  0  0  0
   11.1665    1.4225   -0.0000 N   0  0  0  0  0  0  0  0  0  0  0  0
  1  2  2  0  0  0  0
  2  3  1  0  0  0  0
  2  4  1  0  0  0  0
  3  5  1  0  0  0  0
  4  6  1  0  0  0  0
  4  7  1  0  0  0  0
  5  8  2  0  0  0  0
  5  9  1  0  0  0  0
  8 10  1  0  0  0  0
  9 11  2  0  0  0  0
 10 12  2  0  0  0  0
 10 13  1  0  0  0  0
 12 14  1  0  0  0  0
 13 15  2  0  0  0  0
 13 16  1  0  0  0  0
 14 17  2  0  0  0  0
 14 18  1  0  0  0  0
 15 19  1  0  0  0  0
 16 20  2  0  0  0  0
 17 21  1  0  0  0  0
 18 22  2  0  0  0  0
 19 23  2  0  0  0  0
 21 24  2  0  0  0  0
  6  7  1  0  0  0  0
 11 12  1  0  0  0  0
 20 23  1  0  0  0  0
 22 24  1  0  0  0  0
M  END
>  <MolRegNo>
1070023

>  <m>
=

>  <Value>
5000

>  <Unit>
nM

>  <Type>
IC50

>  <pValue>
5.3

>  <Ligand Efficiency>
0

>  <Binding Efficiency>
0

>  <Surface Efficiency>
0

>  <Assay Index>
563393

>  <Assay Category>


>  <Assay Organism>
Homo sapiens

>  <Target ID>
17045

>  <Target Name>
Cytochrome P450 3A4

>  <Target Organism>
Homo sapiens

>  <Target Description>
Target is a single protein chain

>  <Sequence Accession>
P08684

>  <Reference>
ACS Med Chem Lett 2 (3), 213-218 (2011)

>  <Pubmed ID>
24900298

>  <DOI>
10.1021/ml100249e

$$$$
1070024
Actelion Java MolfileCreator 1.0

 24 27  0  0  0  0  0  0  0  0999 V2000
    0.0000   -0.0000   -0.0000 O   0  0  0  0  0  0  0  0  0  0  0  0
   -0.0119   -1.4822   -0.0000 C   0  0  0  0  0  0  0  0  0  0  0  0
   -1.3162   -2.2174   -0.0000 N   0  0  0  0  0  0  0  0  0  0  0  0
    1.2688   -2.2174   -0.0000 C   0  0  0  0  0  0  0  0  0  0  0  0
   -2.6206   -1.4585   -0.0000 C   0  0  0  0  0  0  0  0  0  0  0  0
    2.0040   -3.4980   -0.0000 C   0  0  0  0  0  0  0  0  0  0  0  0
    2.7510   -2.1937   -0.0000 C   0  0  0  0  0  0  0  0  0  0  0  0
   -3.9368   -2.1937   -0.0000 N   0  0  0  0  0  0  0  0  0  0  0  0
   -2.6324    0.0593   -0.0000 C   0  0  0  0  0  0  0  0  0  0  0  0
   -5.2411   -1.4348   -0.0000 C   0  0  0  0  0  0  0  0  0  0  0  0
   -3.9368    0.8182   -0.0000 N   0  0  0  0  0  0  0  0  0  0  0  0
   -5.2530    0.0830   -0.0000 C   0  0  0  0  0  0  0  0  0  0  0  0
   -6.5454   -2.1700   -0.0000 C   0  0  0  0  0  0  0  0  0  0  0  0
   -6.5573    0.8419   -0.0000 C   0  0  0  0  0  0  0  0  0  0  0  0
   -7.8498   -1.4111   -0.0000 C   0  0  0  0  0  0  0  0  0  0  0  0
   -6.5573   -3.6522   -0.0000 C   0  0  0  0  0  0  0  0  0  0  0  0
   -6.5573    2.3478   -0.0000 C   0  0  0  0  0  0  0  0  0  0  0  0
   -7.8498    0.1067   -0.0000 C   0  0  0  0  0  0  0  0  0  0  0  0
   -9.1541   -2.1462   -0.0000 C   0  0  0  0  0  0  0  0  0  0  0  0
   -7.8617   -4.3873   -0.0000 C   0  0  0  0  0  0  0  0  0  0  0  0
   -7.8617    3.1067   -0.0000 C   0  0  0  0  0  0  0  0  0  0  0  0
   -9.1541    0.8538   -0.0000 C   0  0  0  0  0  0  0  0  0  0  0  0
   -9.1660   -3.6285   -0.0000 N   0  0  0  0  0  0  0  0  0  0  0  0
   -9.1660    2.3715   -0.0000 N   0  0  0  0  0  0  0  0  0  0  0  0
  1  2  2  0  0  0  0
  2  3  1  0  0  0  0
  2  4  1  0  0  0  0
  3  5  1  0  0  0  0
  4  6  1  0  0  0  0
  4  7  1  0  0  0  0
  5  8  2  0  0  0  0
  5  9  1  0  0  0  0
  8 10  1  0  0  0  0
  9 11  2  0  0  0  0
 10 12  2  0  0  0  0
 10 13  1  0  0  0  0
 12 14  1  0  0  0  0
 13 15  2  0  0  0  0
 13 16  1  0  0  0  0
 14 17  2  0  0  0  0
 14 18  1  0  0  0  0
 15 19  1  0  0  0  0
 16 20  2  0  0  0  0
 17 21  1  0  0  0  0
 18 22  2  0  0  0  0
 19 23  2  0  0  0  0
 21 24  2  0  0  0  0
  6  7  1  0  0  0  0
 11 12  1  0  0  0  0
 20 23  1  0  0  0  0
 22 24  1  0  0  0  0
M  END
>  <MolRegNo>
1070024

>  <m>
=

>  <Value>
1000

>  <Unit>
nM

>  <Type>
IC50

>  <pValue>
6

>  <Ligand Efficiency>
0

>  <Binding Efficiency>
0

>  <Surface Efficiency>
0

>  <Assay Index>
563393

>  <Assay Category>


>  <Assay Organism>
Homo sapiens

>  <Target ID>
17045

>  <Target Name>
Cytochrome P450 3A4

>  <Target Organism>
Homo sapiens

>  <Target Description>
Target is a single protein chain

>  <Sequence Accession>
P08684

>  <Reference>
ACS Med Chem Lett 2 (3), 213-218 (2011)

>  <Pubmed ID>
24900298

>  <DOI>
10.1021/ml100249e

$$$$
1070029
Actelion Java MolfileCreator 1.0

 25 28  0  0  0  0  0  0  0  0999 V2000
    0.0000   -0.0000   -0.0000 F   0  0  0  0  0  0  0  0  0  0  0  0
   -1.3214   -0.7619   -0.0000 C   0  0  0  0  0  0  0  0  0  0  0  0
   -1.3333   -2.2500   -0.0000 C   0  0  0  0  0  0  0  0  0  0  0  0
   -2.6310   -0.0000   -0.0000 C   0  0  0  0  0  0  0  0  0  0  0  0
   -0.0357   -3.0000   -0.0000 C   0  0  0  0  0  0  0  0  0  0  0  0
   -2.6429   -3.0000   -0.0000 C   0  0  0  0  0  0  0  0  0  0  0  0
   -3.9405   -0.7381   -0.0000 N   0  0  0  0  0  0  0  0  0  0  0  0
    1.2500   -2.2381   -0.0000 N   0  0  0  0  0  0  0  0  0  0  0  0
   -0.0476   -4.4881   -0.0000 C   0  0  0  0  0  0  0  0  0  0  0  0
   -3.9524   -2.2381   -0.0000 C   0  0  0  0  0  0  0  0  0  0  0  0
    2.5357   -2.9643   -0.0000 C   0  0  0  0  0  0  0  0  0  0  0  0
    1.2381   -5.2262   -0.0000 N   0  0  0  0  0  0  0  0  0  0  0  0
   -1.3572   -5.2262   -0.0000 C   0  0  0  0  0  0  0  0  0  0  0  0
    2.5238   -4.4524   -0.0000 C   0  0  0  0  0  0  0  0  0  0  0  0
   -1.3691   -6.7262   -0.0000 C   0  0  0  0  0  0  0  0  0  0  0  0
   -2.6667   -4.4643   -0.0000 C   0  0  0  0  0  0  0  0  0  0  0  0
    3.8215   -5.2024   -0.0000 N   0  0  0  0  0  0  0  0  0  0  0  0
   -2.6786   -7.4643   -0.0000 N   0  0  0  0  0  0  0  0  0  0  0  0
   -3.9762   -5.2024   -0.0000 C   0  0  0  0  0  0  0  0  0  0  0  0
    3.8096   -6.7024   -0.0000 C   0  0  0  0  0  0  0  0  0  0  0  0
   -3.9881   -6.7024   -0.0000 C   0  0  0  0  0  0  0  0  0  0  0  0
    5.0953   -7.4405   -0.0000 O   0  0  0  0  0  0  0  0  0  0  0  0
    2.5000   -7.4405   -0.0000 C   0  0  0  0  0  0  0  0  0  0  0  0
    1.1905   -8.1786   -0.0000 C   0  0  0  0  0  0  0  0  0  0  0  0
    2.4881   -8.9286   -0.0000 C   0  0  0  0  0  0  0  0  0  0  0  0
  1  2  1  0  0  0  0
  2  3  2  0  0  0  0
  2  4  1  0  0  0  0
  3  5  1  0  0  0  0
  3  6  1  0  0  0  0
  4  7  2  0  0  0  0
  5  8  2  0  0  0  0
  5  9  1  0  0  0  0
  6 10  2  0  0  0  0
  8 11  1  0  0  0  0
  9 12  2  0  0  0  0
  9 13  1  0  0  0  0
 11 14  2  0  0  0  0
 13 15  2  0  0  0  0
 13 16  1  0  0  0  0
 14 17  1  0  0  0  0
 15 18  1  0  0  0  0
 16 19  2  0  0  0  0
 17 20  1  0  0  0  0
 18 21  2  0  0  0  0
 20 22  2  0  0  0  0
 20 23  1  0  0  0  0
 23 24  1  0  0  0  0
 23 25  1  0  0  0  0
  7 10  1  0  0  0  0
 12 14  1  0  0  0  0
 19 21  1  0  0  0  0
 24 25  1  0  0  0  0
M  END
>  <MolRegNo>
1070029

>  <m>
=

>  <Value>
5000

>  <Unit>
nM

>  <Type>
IC50

>  <pValue>
5.3

>  <Ligand Efficiency>
0

>  <Binding Efficiency>
0

>  <Surface Efficiency>
0

>  <Assay Index>
563393

>  <Assay Category>


>  <Assay Organism>
Homo sapiens

>  <Target ID>
17045

>  <Target Name>
Cytochrome P450 3A4

>  <Target Organism>
Homo sapiens

>  <Target Description>
Target is a single protein chain

>  <Sequence Accession>
P08684

>  <Reference>
ACS Med Chem Lett 2 (3), 213-218 (2011)

>  <Pubmed ID>
24900298

>  <DOI>
10.1021/ml100249e

$$$$
1070032
Actelion Java MolfileCreator 1.0

 25 28  0  0  0  0  0  0  0  0999 V2000
    0.0000   -0.0000   -0.0000 F   0  0  0  0  0  0  0  0  0  0  0  0
   -1.3122   -0.7396   -0.0000 C   0  0  0  0  0  0  0  0  0  0  0  0
   -1.3360   -2.2307   -0.0000 C   0  0  0  0  0  0  0  0  0  0  0  0
   -2.6243    0.0239   -0.0000 C   0  0  0  0  0  0  0  0  0  0  0  0
   -0.0477   -2.9702   -0.0000 C   0  0  0  0  0  0  0  0  0  0  0  0
   -2.6362   -2.9702   -0.0000 C   0  0  0  0  0  0  0  0  0  0  0  0
   -3.9365   -0.7157   -0.0000 N   0  0  0  0  0  0  0  0  0  0  0  0
    1.2406   -2.2068   -0.0000 N   0  0  0  0  0  0  0  0  0  0  0  0
   -0.0596   -4.4733   -0.0000 C   0  0  0  0  0  0  0  0  0  0  0  0
   -3.9484   -2.2187   -0.0000 C   0  0  0  0  0  0  0  0  0  0  0  0
    2.5289   -2.9464   -0.0000 C   0  0  0  0  0  0  0  0  0  0  0  0
    1.2287   -5.2128   -0.0000 N   0  0  0  0  0  0  0  0  0  0  0  0
   -1.3718   -5.2128   -0.0000 C   0  0  0  0  0  0  0  0  0  0  0  0
    2.5170   -4.4494   -0.0000 C   0  0  0  0  0  0  0  0  0  0  0  0
   -2.6840   -4.4494   -0.0000 C   0  0  0  0  0  0  0  0  0  0  0  0
   -1.3837   -6.7039   -0.0000 C   0  0  0  0  0  0  0  0  0  0  0  0
    3.8053   -5.1890   -0.0000 N   0  0  0  0  0  0  0  0  0  0  0  0
   -3.9961   -5.1890   -0.0000 C   0  0  0  0  0  0  0  0  0  0  0  0
   -2.6959   -7.4435   -0.0000 C   0  0  0  0  0  0  0  0  0  0  0  0
    5.0935   -4.4255   -0.0000 C   0  0  0  0  0  0  0  0  0  0  0  0
   -4.0080   -6.6801   -0.0000 N   0  0  0  0  0  0  0  0  0  0  0  0
    5.0816   -2.9106   -0.0000 O   0  0  0  0  0  0  0  0  0  0  0  0
    6.3818   -5.1651   -0.0000 C   0  0  0  0  0  0  0  0  0  0  0  0
    7.1214   -6.4534   -0.0000 C   0  0  0  0  0  0  0  0  0  0  0  0
    7.8729   -5.1413   -0.0000 C   0  0  0  0  0  0  0  0  0  0  0  0
  1  2  1  0  0  0  0
  2  3  2  0  0  0  0
  2  4  1  0  0  0  0
  3  5  1  0  0  0  0
  3  6  1  0  0  0  0
  4  7  2  0  0  0  0
  5  8  2  0  0  0  0
  5  9  1  0  0  0  0
  6 10  2  0  0  0  0
  8 11  1  0  0  0  0
  9 12  2  0  0  0  0
  9 13  1  0  0  0  0
 11 14  2  0  0  0  0
 13 15  2  0  0  0  0
 13 16  1  0  0  0  0
 14 17  1  0  0  0  0
 15 18  1  0  0  0  0
 16 19  2  0  0  0  0
 17 20  1  0  0  0  0
 18 21  2  0  0  0  0
 20 22  2  0  0  0  0
 20 23  1  0  0  0  0
 23 24  1  0  0  0  0
 23 25  1  0  0  0  0
  7 10  1  0  0  0  0
 12 14  1  0  0  0  0
 19 21  1  0  0  0  0
 24 25  1  0  0  0  0
M  END
>  <MolRegNo>
1070032

>  <m>
=

>  <Value>
1000

>  <Unit>
nM

>  <Type>
IC50

>  <pValue>
6

>  <Ligand Efficiency>
0

>  <Binding Efficiency>
0

>  <Surface Efficiency>
0

>  <Assay Index>
563393

>  <Assay Category>


>  <Assay Organism>
Homo sapiens

>  <Target ID>
17045

>  <Target Name>
Cytochrome P450 3A4

>  <Target Organism>
Homo sapiens

>  <Target Description>
Target is a single protein chain

>  <Sequence Accession>
P08684

>  <Reference>
ACS Med Chem Lett 2 (3), 213-218 (2011)

>  <Pubmed ID>
24900298

>  <DOI>
10.1021/ml100249e

$$$$
1070035
Actelion Java MolfileCreator 1.0

 24 27  0  0  0  0  0  0  0  0999 V2000
    0.0000   -0.0000   -0.0000 F   0  0  0  0  0  0  0  0  0  0  0  0
   -1.3117   -0.7393   -0.0000 C   0  0  0  0  0  0  0  0  0  0  0  0
   -1.3356   -2.2299   -0.0000 C   0  0  0  0  0  0  0  0  0  0  0  0
   -2.6234    0.0238   -0.0000 C   0  0  0  0  0  0  0  0  0  0  0  0
   -0.0477   -2.9692   -0.0000 C   0  0  0  0  0  0  0  0  0  0  0  0
   -2.6354   -2.9692   -0.0000 C   0  0  0  0  0  0  0  0  0  0  0  0
   -3.9351   -0.7155   -0.0000 N   0  0  0  0  0  0  0  0  0  0  0  0
    1.2402   -2.2061   -0.0000 N   0  0  0  0  0  0  0  0  0  0  0  0
   -0.0596   -4.4718   -0.0000 C   0  0  0  0  0  0  0  0  0  0  0  0
   -3.9471   -2.2180   -0.0000 C   0  0  0  0  0  0  0  0  0  0  0  0
    2.5280   -2.9454   -0.0000 C   0  0  0  0  0  0  0  0  0  0  0  0
    1.2282   -5.2111   -0.0000 N   0  0  0  0  0  0  0  0  0  0  0  0
   -1.3713   -5.2111   -0.0000 C   0  0  0  0  0  0  0  0  0  0  0  0
    2.5161   -4.4479   -0.0000 C   0  0  0  0  0  0  0  0  0  0  0  0
   -1.5383   -6.7017   -0.0000 O   0  0  0  0  0  0  0  0  0  0  0  0
   -2.7546   -4.5910   -0.0000 C   0  0  0  0  0  0  0  0  0  0  0  0
    3.8040   -5.1872   -0.0000 N   0  0  0  0  0  0  0  0  0  0  0  0
   -3.0169   -6.9998   -0.0000 C   0  0  0  0  0  0  0  0  0  0  0  0
   -3.7801   -5.7000   -0.0000 N   0  0  0  0  0  0  0  0  0  0  0  0
    5.0918   -4.4241   -0.0000 C   0  0  0  0  0  0  0  0  0  0  0  0
    5.0799   -2.9096   -0.0000 O   0  0  0  0  0  0  0  0  0  0  0  0
    6.3797   -5.1634   -0.0000 C   0  0  0  0  0  0  0  0  0  0  0  0
    7.1190   -6.4513   -0.0000 C   0  0  0  0  0  0  0  0  0  0  0  0
    7.8703   -5.1395   -0.0000 C   0  0  0  0  0  0  0  0  0  0  0  0
  1  2  1  0  0  0  0
  2  3  2  0  0  0  0
  2  4  1  0  0  0  0
  3  5  1  0  0  0  0
  3  6  1  0  0  0  0
  4  7  2  0  0  0  0
  5  8  2  0  0  0  0
  5  9  1  0  0  0  0
  6 10  2  0  0  0  0
  8 11  1  0  0  0  0
  9 12  2  0  0  0  0
  9 13  1  0  0  0  0
 11 14  2  0  0  0  0
 13 15  1  0  0  0  0
 13 16  2  0  0  0  0
 14 17  1  0  0  0  0
 15 18  1  0  0  0  0
 16 19  1  0  0  0  0
 17 20  1  0  0  0  0
 20 21  2  0  0  0  0
 20 22  1  0  0  0  0
 22 23  1  0  0  0  0
 22 24  1  0  0  0  0
  7 10  1  0  0  0  0
 12 14  1  0  0  0  0
 18 19  2  0  0  0  0
 23 24  1  0  0  0  0
M  END
>  <MolRegNo>
1070035

>  <m>
=

>  <Value>
5000

>  <Unit>
nM

>  <Type>
IC50

>  <pValue>
5.3

>  <Ligand Efficiency>
0

>  <Binding Efficiency>
0

>  <Surface Efficiency>
0

>  <Assay Index>
563393

>  <Assay Category>


>  <Assay Organism>
Homo sapiens

>  <Target ID>
17045

>  <Target Name>
Cytochrome P450 3A4

>  <Target Organism>
Homo sapiens

>  <Target Description>
Target is a single protein chain

>  <Sequence Accession>
P08684

>  <Reference>
ACS Med Chem Lett 2 (3), 213-218 (2011)

>  <Pubmed ID>
24900298

>  <DOI>
10.1021/ml100249e

$$$$
417180
Actelion Java MolfileCreator 1.0

 41 44  0  0  1  0  0  0  0  0999 V2000
    0.0000   -0.0000   -0.0000 F   0  0  0  0  0  0  0  0  0  0  0  0
    1.3475   -0.7486   -0.0000 C   0  0  0  0  0  0  0  0  0  0  0  0
    1.3351   -2.2459   -0.0000 C   0  0  0  0  0  0  0  0  0  0  0  0
    2.6452    0.0250   -0.0000 C   0  0  0  0  0  0  0  0  0  0  0  0
    2.6327   -2.9946   -0.0000 C   0  0  0  0  0  0  0  0  0  0  0  0
    3.9054   -0.7237   -0.0000 C   0  0  0  0  0  0  0  0  0  0  0  0
    3.8929   -2.2210   -0.0000 C   0  0  0  0  0  0  0  0  0  0  0  0
    5.2529   -2.9197   -0.0000 C   0  0  0  0  0  0  0  0  0  0  0  0
    6.4508   -2.0088   -0.0000 N   0  0  0  0  0  0  0  0  0  0  0  0
    5.7271   -4.2797   -0.0000 C   0  0  0  0  0  0  0  0  0  0  0  0
    7.6236   -2.8947   -0.0000 C   0  0  0  0  0  0  0  0  0  0  0  0
    6.4508   -0.5116   -0.0000 C   0  0  0  0  0  0  0  0  0  0  0  0
    4.4170   -4.9784   -0.0000 C   0  0  0  0  0  0  0  0  0  0  0  0
    7.1869   -4.2672   -0.0000 C   0  0  0  0  0  0  0  0  0  0  0  0
    8.9337   -2.1461   -0.0000 C   0  0  0  0  0  0  0  0  0  0  0  0
    7.7359    0.2121   -0.0000 C   0  0  0  0  0  0  0  0  0  0  0  0
    4.4045   -6.4757   -0.0000 C   0  0  0  0  0  0  0  0  0  0  0  0
    3.1068   -4.2298   -0.0000 C   0  0  0  0  0  0  0  0  0  0  0  0
    8.4471   -5.0907   -0.0000 C   0  0  0  0  0  0  0  0  0  0  0  0
   10.2189   -2.8698   -0.0000 C   0  0  0  0  0  0  0  0  0  0  0  0
    8.9213   -0.5989   -0.0000 C   0  0  0  0  0  0  0  0  0  0  0  0
    7.7234    1.8092   -0.0000 C   0  0  0  0  0  0  0  0  0  0  0  0
    3.0944   -7.2244   -0.0000 C   0  0  0  0  0  0  0  0  0  0  0  0
    1.7343   -4.9535   -0.0000 C   0  0  0  0  0  0  0  0  0  0  0  0
    8.4222   -6.5256   -0.0000 O   0  0  0  0  0  0  0  0  0  0  0  0
    9.7198   -4.2922   -0.0000 N   0  0  0  0  0  0  0  0  0  0  0  0
    8.9961    2.4081   -0.0000 O   0  0  0  0  0  0  0  0  0  0  0  0
    6.4133    2.5578   -0.0000 C   0  0  0  0  0  0  0  0  0  0  0  0
    1.7219   -6.4508   -0.0000 C   0  0  0  0  0  0  0  0  0  0  0  0
   11.0050   -5.0408   -0.0000 C   0  0  0  0  0  0  0  0  0  0  0  0
    6.4009    4.1050   -0.0000 C   0  0  0  0  0  0  0  0  0  0  0  0
   10.9925   -6.5381   -0.0000 C   0  0  0  0  0  0  0  0  0  0  0  0
   12.3026   -4.2672   -0.0000 C   0  0  0  0  0  0  0  0  0  0  0  0
    7.6236    4.9161   -0.0000 O   0  0  0  0  0  0  0  0  0  0  0  0
    5.0907    4.9161   -0.0000 C   0  0  0  0  0  0  0  0  0  0  0  0
   12.2901   -7.2867   -0.0000 C   0  0  0  0  0  0  0  0  0  0  0  0
   13.5878   -4.9909   -0.0000 C   0  0  0  0  0  0  0  0  0  0  0  0
    3.7931    4.1924   -0.0000 C   0  0  0  0  0  0  0  0  0  0  0  0
   13.5753   -6.5132   -0.0000 C   0  0  0  0  0  0  0  0  0  0  0  0
    3.7806    2.6951   -0.0000 O   0  0  0  0  0  0  0  0  0  0  0  0
    2.4456    4.9660   -0.0000 O   0  0  0  0  0  0  0  0  0  0  0  0
  1  2  1  0  0  0  0
  2  3  2  0  0  0  0
  2  4  1  0  0  0  0
  3  5  1  0  0  0  0
  4  6  2  0  0  0  0
  5  7  2  0  0  0  0
  7  8  1  0  0  0  0
  8  9  1  0  0  0  0
  8 10  2  0  0  0  0
  9 11  1  0  0  0  0
  9 12  1  0  0  0  0
 10 13  1  0  0  0  0
 10 14  1  0  0  0  0
 11 15  1  0  0  0  0
 12 16  1  0  0  0  0
 13 17  2  0  0  0  0
 13 18  1  0  0  0  0
 14 19  1  0  0  0  0
 15 20  1  0  0  0  0
 15 21  1  0  0  0  0
 16 22  1  0  0  0  0
 17 23  1  0  0  0  0
 18 24  2  0  0  0  0
 19 25  2  0  0  0  0
 19 26  1  0  0  0  0
 22 27  1  6  0  0  0
 22 28  1  0  0  0  0
 23 29  2  0  0  0  0
 26 30  1  0  0  0  0
 28 31  1  0  0  0  0
 30 32  2  0  0  0  0
 30 33  1  0  0  0  0
 31 34  1  6  0  0  0
 31 35  1  0  0  0  0
 32 36  1  0  0  0  0
 33 37  2  0  0  0  0
 35 38  1  0  0  0  0
 36 39  2  0  0  0  0
 38 40  2  0  0  0  0
 38 41  1  0  0  0  0
  6  7  1  0  0  0  0
 11 14  2  0  0  0  0
 24 29  1  0  0  0  0
 37 39  1  0  0  0  0
M  END
>  <MolRegNo>
417180

>  <m>
=

>  <Value>
5100

>  <Unit>
nM

>  <Type>
IC50

>  <pValue>
5.29

>  <Ligand Efficiency>
0.18

>  <Binding Efficiency>
9.47

>  <Surface Efficiency>
4.73

>  <Assay Index>
570484

>  <Assay Category>


>  <Assay Organism>
Homo sapiens

>  <Target ID>
17045

>  <Target Name>
Cytochrome P450 3A4

>  <Target Organism>
Homo sapiens

>  <Target Description>
Target is a single protein chain

>  <Sequence Accession>
P08684

>  <Reference>
Bioorg Med Chem Lett 21 (4), 1206-1213 (2011)

>  <Pubmed ID>
21256005

>  <DOI>
10.1016/j.bmcl.2010.12.089

$$$$
1072961
Actelion Java MolfileCreator 1.0

 23 25  0  0  0  0  0  0  0  0999 V2000
    0.0000   -0.0000   -0.0000 O   0  0  0  0  0  0  0  0  0  0  0  0
   -0.0119    1.5176   -0.0000 C   0  0  0  0  0  0  0  0  0  0  0  0
    1.2804    2.2763   -0.0000 C   0  0  0  0  0  0  0  0  0  0  0  0
   -1.3279    2.2763   -0.0000 C   0  0  0  0  0  0  0  0  0  0  0  0
    2.5727    1.5413   -0.0000 C   0  0  0  0  0  0  0  0  0  0  0  0
    1.2686    3.7939   -0.0000 C   0  0  0  0  0  0  0  0  0  0  0  0
    3.8650    2.3119   -0.0000 C   0  0  0  0  0  0  0  0  0  0  0  0
    2.5490    4.5527   -0.0000 C   0  0  0  0  0  0  0  0  0  0  0  0
    3.8532    3.8295   -0.0000 C   0  0  0  0  0  0  0  0  0  0  0  0
    5.1573    1.5768   -0.0000 C   0  0  0  0  0  0  0  0  0  0  0  0
    5.1336    4.6001   -0.0000 C   0  0  0  0  0  0  0  0  0  0  0  0
    6.4496    2.3475   -0.0000 C   0  0  0  0  0  0  0  0  0  0  0  0
    6.4259    3.8650   -0.0000 C   0  0  0  0  0  0  0  0  0  0  0  0
    7.7064    4.6357   -0.0000 C   0  0  0  0  0  0  0  0  0  0  0  0
    6.9357    5.9517   -0.0000 O   0  0  0  0  0  0  0  0  0  0  0  0
    8.9987    3.9006   -0.0000 C   0  0  0  0  0  0  0  0  0  0  0  0
    8.4296    5.9517   -0.0000 C   0  0  0  0  0  0  0  0  0  0  0  0
   10.3503    4.5290   -0.0000 N   0  0  0  0  0  0  0  0  0  0  0  0
    9.1528    2.4186   -0.0000 C   0  0  0  0  0  0  0  0  0  0  0  0
    7.6590    7.2558   -0.0000 C   0  0  0  0  0  0  0  0  0  0  0  0
    9.9234    5.9754   -0.0000 C   0  0  0  0  0  0  0  0  0  0  0  0
   11.3462    3.4264   -0.0000 C   0  0  0  0  0  0  0  0  0  0  0  0
   10.6111    2.1222   -0.0000 N   0  0  0  0  0  0  0  0  0  0  0  0
  1  2  2  0  0  0  0
  2  3  1  0  0  0  0
  2  4  1  0  0  0  0
  3  5  2  0  0  0  0
  3  6  1  0  0  0  0
  5  7  1  0  0  0  0
  6  8  2  0  0  0  0
  7  9  1  0  0  0  0
  7 10  2  0  0  0  0
  9 11  2  0  0  0  0
 10 12  1  0  0  0  0
 11 13  1  0  0  0  0
 13 14  1  0  0  0  0
 14 15  1  0  0  0  0
 14 16  1  0  0  0  0
 14 17  1  0  0  0  0
 16 18  1  0  0  0  0
 16 19  2  0  0  0  0
 17 20  1  0  0  0  0
 17 21  1  0  0  0  0
 18 22  2  0  0  0  0
 19 23  1  0  0  0  0
  8  9  1  0  0  0  0
 12 13  2  0  0  0  0
 22 23  1  0  0  0  0
M  END
>  <MolRegNo>
1072961

>  <m>
=

>  <Value>
1400

>  <Unit>
nM

>  <Type>
IC50

>  <pValue>
5.85

>  <Ligand Efficiency>
0

>  <Binding Efficiency>
0

>  <Surface Efficiency>
0

>  <Assay Index>
572516

>  <Assay Category>


>  <Assay Organism>
Homo sapiens

>  <Target ID>
17045

>  <Target Name>
Cytochrome P450 3A4

>  <Target Organism>
Homo sapiens

>  <Target Description>
Target is a single protein chain

>  <Sequence Accession>
P08684

>  <Reference>
Bioorg Med Chem 19 (5), 1751-1770 (2011)

>  <Pubmed ID>
21316976

>  <DOI>
10.1016/j.bmc.2011.01.017

$$$$
1072964
Actelion Java MolfileCreator 1.0

 24 26  0  0  0  0  0  0  0  0999 V2000
    0.0000   -0.0000   -0.0000 O   0  0  0  0  0  0  0  0  0  0  0  0
   -0.0119    1.5173   -0.0000 C   0  0  0  0  0  0  0  0  0  0  0  0
   -1.3276    2.2759   -0.0000 O   0  0  0  0  0  0  0  0  0  0  0  0
    1.2802    2.2759   -0.0000 C   0  0  0  0  0  0  0  0  0  0  0  0
   -2.6434    1.5410   -0.0000 C   0  0  0  0  0  0  0  0  0  0  0  0
    2.5723    1.5410   -0.0000 C   0  0  0  0  0  0  0  0  0  0  0  0
    1.2683    3.7932   -0.0000 C   0  0  0  0  0  0  0  0  0  0  0  0
    3.8643    2.3115   -0.0000 C   0  0  0  0  0  0  0  0  0  0  0  0
    2.5485    4.5518   -0.0000 C   0  0  0  0  0  0  0  0  0  0  0  0
    3.8525    3.8288   -0.0000 C   0  0  0  0  0  0  0  0  0  0  0  0
    5.1564    1.5765   -0.0000 C   0  0  0  0  0  0  0  0  0  0  0  0
    5.1327    4.5992   -0.0000 C   0  0  0  0  0  0  0  0  0  0  0  0
    6.4484    2.3470   -0.0000 C   0  0  0  0  0  0  0  0  0  0  0  0
    6.4247    3.8643   -0.0000 C   0  0  0  0  0  0  0  0  0  0  0  0
    7.7049    4.6348   -0.0000 C   0  0  0  0  0  0  0  0  0  0  0  0
    6.9344    5.9506   -0.0000 O   0  0  0  0  0  0  0  0  0  0  0  0
    8.9970    3.8999   -0.0000 C   0  0  0  0  0  0  0  0  0  0  0  0
    8.4280    5.9506   -0.0000 C   0  0  0  0  0  0  0  0  0  0  0  0
   10.3483    4.5281   -0.0000 N   0  0  0  0  0  0  0  0  0  0  0  0
    9.1511    2.4182   -0.0000 C   0  0  0  0  0  0  0  0  0  0  0  0
    7.6575    7.2545   -0.0000 C   0  0  0  0  0  0  0  0  0  0  0  0
    9.9216    5.9743   -0.0000 C   0  0  0  0  0  0  0  0  0  0  0  0
   11.3440    3.4257   -0.0000 C   0  0  0  0  0  0  0  0  0  0  0  0
   10.6091    2.1218   -0.0000 N   0  0  0  0  0  0  0  0  0  0  0  0
  1  2  2  0  0  0  0
  2  3  1  0  0  0  0
  2  4  1  0  0  0  0
  3  5  1  0  0  0  0
  4  6  2  0  0  0  0
  4  7  1  0  0  0  0
  6  8  1  0  0  0  0
  7  9  2  0  0  0  0
  8 10  1  0  0  0  0
  8 11  2  0  0  0  0
 10 12  2  0  0  0  0
 11 13  1  0  0  0  0
 12 14  1  0  0  0  0
 14 15  1  0  0  0  0
 15 16  1  0  0  0  0
 15 17  1  0  0  0  0
 15 18  1  0  0  0  0
 17 19  1  0  0  0  0
 17 20  2  0  0  0  0
 18 21  1  0  0  0  0
 18 22  1  0  0  0  0
 19 23  2  0  0  0  0
 20 24  1  0  0  0  0
  9 10  1  0  0  0  0
 13 14  2  0  0  0  0
 23 24  1  0  0  0  0
M  END
>  <MolRegNo>
1072964

>  <m>
=

>  <Value>
1400

>  <Unit>
nM

>  <Type>
IC50

>  <pValue>
5.85

>  <Ligand Efficiency>
0

>  <Binding Efficiency>
0

>  <Surface Efficiency>
0

>  <Assay Index>
572516

>  <Assay Category>


>  <Assay Organism>
Homo sapiens

>  <Target ID>
17045

>  <Target Name>
Cytochrome P450 3A4

>  <Target Organism>
Homo sapiens

>  <Target Description>
Target is a single protein chain

>  <Sequence Accession>
P08684

>  <Reference>
Bioorg Med Chem 19 (5), 1751-1770 (2011)

>  <Pubmed ID>
21316976

>  <DOI>
10.1016/j.bmc.2011.01.017

$$$$
1072968
Actelion Java MolfileCreator 1.0

 26 28  0  0  0  0  0  0  0  0999 V2000
    0.0000   -0.0000   -0.0000 O   0  0  0  0  0  0  0  0  0  0  0  0
   -0.0118    1.5163   -0.0000 C   0  0  0  0  0  0  0  0  0  0  0  0
   -1.3268    2.2745   -0.0000 N   0  0  0  0  0  0  0  0  0  0  0  0
    1.2794    2.2745   -0.0000 C   0  0  0  0  0  0  0  0  0  0  0  0
   -2.6417    1.5400   -0.0000 C   0  0  0  0  0  0  0  0  0  0  0  0
    2.5707    1.5400   -0.0000 C   0  0  0  0  0  0  0  0  0  0  0  0
    1.2676    3.7909   -0.0000 C   0  0  0  0  0  0  0  0  0  0  0  0
   -3.9567    2.2982   -0.0000 C   0  0  0  0  0  0  0  0  0  0  0  0
    3.8619    2.3100   -0.0000 C   0  0  0  0  0  0  0  0  0  0  0  0
    2.5470    4.5490   -0.0000 C   0  0  0  0  0  0  0  0  0  0  0  0
   -5.2717    1.5637   -0.0000 C   0  0  0  0  0  0  0  0  0  0  0  0
    3.8501    3.8264   -0.0000 C   0  0  0  0  0  0  0  0  0  0  0  0
    5.1532    1.5756   -0.0000 C   0  0  0  0  0  0  0  0  0  0  0  0
    5.1295    4.5964   -0.0000 C   0  0  0  0  0  0  0  0  0  0  0  0
    6.4444    2.3456   -0.0000 C   0  0  0  0  0  0  0  0  0  0  0  0
    6.4208    3.8619   -0.0000 C   0  0  0  0  0  0  0  0  0  0  0  0
    7.7002    4.6319   -0.0000 C   0  0  0  0  0  0  0  0  0  0  0  0
    6.9301    5.9469   -0.0000 O   0  0  0  0  0  0  0  0  0  0  0  0
    8.9914    3.8975   -0.0000 C   0  0  0  0  0  0  0  0  0  0  0  0
    8.4228    5.9469   -0.0000 C   0  0  0  0  0  0  0  0  0  0  0  0
   10.3419    4.5253   -0.0000 N   0  0  0  0  0  0  0  0  0  0  0  0
    9.1454    2.4167   -0.0000 C   0  0  0  0  0  0  0  0  0  0  0  0
    7.6528    7.2500   -0.0000 C   0  0  0  0  0  0  0  0  0  0  0  0
    9.9154    5.9706   -0.0000 C   0  0  0  0  0  0  0  0  0  0  0  0
   11.3370    3.4236   -0.0000 C   0  0  0  0  0  0  0  0  0  0  0  0
   10.6025    2.1205   -0.0000 N   0  0  0  0  0  0  0  0  0  0  0  0
  1  2  2  0  0  0  0
  2  3  1  0  0  0  0
  2  4  1  0  0  0  0
  3  5  1  0  0  0  0
  4  6  2  0  0  0  0
  4  7  1  0  0  0  0
  5  8  1  0  0  0  0
  6  9  1  0  0  0  0
  7 10  2  0  0  0  0
  8 11  1  0  0  0  0
  9 12  1  0  0  0  0
  9 13  2  0  0  0  0
 12 14  2  0  0  0  0
 13 15  1  0  0  0  0
 14 16  1  0  0  0  0
 16 17  1  0  0  0  0
 17 18  1  0  0  0  0
 17 19  1  0  0  0  0
 17 20  1  0  0  0  0
 19 21  1  0  0  0  0
 19 22  2  0  0  0  0
 20 23  1  0  0  0  0
 20 24  1  0  0  0  0
 21 25  2  0  0  0  0
 22 26  1  0  0  0  0
 10 12  1  0  0  0  0
 15 16  2  0  0  0  0
 25 26  1  0  0  0  0
M  END
>  <MolRegNo>
1072968

>  <m>
=

>  <Value>
3400

>  <Unit>
nM

>  <Type>
IC50

>  <pValue>
5.47

>  <Ligand Efficiency>
0

>  <Binding Efficiency>
0

>  <Surface Efficiency>
0

>  <Assay Index>
572516

>  <Assay Category>


>  <Assay Organism>
Homo sapiens

>  <Target ID>
17045

>  <Target Name>
Cytochrome P450 3A4

>  <Target Organism>
Homo sapiens

>  <Target Description>
Target is a single protein chain

>  <Sequence Accession>
P08684

>  <Reference>
Bioorg Med Chem 19 (5), 1751-1770 (2011)

>  <Pubmed ID>
21316976

>  <DOI>
10.1016/j.bmc.2011.01.017

$$$$
1072966
Actelion Java MolfileCreator 1.0

 24 26  0  0  0  0  0  0  0  0999 V2000
    0.0000   -0.0000   -0.0000 O   0  0  0  0  0  0  0  0  0  0  0  0
   -0.0119    1.5173   -0.0000 C   0  0  0  0  0  0  0  0  0  0  0  0
   -1.3276    2.2759   -0.0000 N   0  0  0  0  0  0  0  0  0  0  0  0
    1.2802    2.2759   -0.0000 C   0  0  0  0  0  0  0  0  0  0  0  0
   -2.6434    1.5410   -0.0000 C   0  0  0  0  0  0  0  0  0  0  0  0
    2.5723    1.5410   -0.0000 C   0  0  0  0  0  0  0  0  0  0  0  0
    1.2683    3.7932   -0.0000 C   0  0  0  0  0  0  0  0  0  0  0  0
    3.8643    2.3115   -0.0000 C   0  0  0  0  0  0  0  0  0  0  0  0
    2.5485    4.5518   -0.0000 C   0  0  0  0  0  0  0  0  0  0  0  0
    3.8525    3.8288   -0.0000 C   0  0  0  0  0  0  0  0  0  0  0  0
    5.1564    1.5765   -0.0000 C   0  0  0  0  0  0  0  0  0  0  0  0
    5.1327    4.5992   -0.0000 C   0  0  0  0  0  0  0  0  0  0  0  0
    6.4484    2.3470   -0.0000 C   0  0  0  0  0  0  0  0  0  0  0  0
    6.4247    3.8643   -0.0000 C   0  0  0  0  0  0  0  0  0  0  0  0
    7.7049    4.6348   -0.0000 C   0  0  0  0  0  0  0  0  0  0  0  0
    6.9344    5.9506   -0.0000 O   0  0  0  0  0  0  0  0  0  0  0  0
    8.9970    3.8999   -0.0000 C   0  0  0  0  0  0  0  0  0  0  0  0
    8.4280    5.9506   -0.0000 C   0  0  0  0  0  0  0  0  0  0  0  0
   10.3483    4.5281   -0.0000 N   0  0  0  0  0  0  0  0  0  0  0  0
    9.1511    2.4182   -0.0000 C   0  0  0  0  0  0  0  0  0  0  0  0
    7.6575    7.2545   -0.0000 C   0  0  0  0  0  0  0  0  0  0  0  0
    9.9216    5.9743   -0.0000 C   0  0  0  0  0  0  0  0  0  0  0  0
   11.3440    3.4257   -0.0000 C   0  0  0  0  0  0  0  0  0  0  0  0
   10.6091    2.1218   -0.0000 N   0  0  0  0  0  0  0  0  0  0  0  0
  1  2  2  0  0  0  0
  2  3  1  0  0  0  0
  2  4  1  0  0  0  0
  3  5  1  0  0  0  0
  4  6  2  0  0  0  0
  4  7  1  0  0  0  0
  6  8  1  0  0  0  0
  7  9  2  0  0  0  0
  8 10  1  0  0  0  0
  8 11  2  0  0  0  0
 10 12  2  0  0  0  0
 11 13  1  0  0  0  0
 12 14  1  0  0  0  0
 14 15  1  0  0  0  0
 15 16  1  0  0  0  0
 15 17  1  0  0  0  0
 15 18  1  0  0  0  0
 17 19  1  0  0  0  0
 17 20  2  0  0  0  0
 18 21  1  0  0  0  0
 18 22  1  0  0  0  0
 19 23  2  0  0  0  0
 20 24  1  0  0  0  0
  9 10  1  0  0  0  0
 13 14  2  0  0  0  0
 23 24  1  0  0  0  0
M  END
>  <MolRegNo>
1072966

>  <m>
=

>  <Value>
3600

>  <Unit>
nM

>  <Type>
IC50

>  <pValue>
5.44

>  <Ligand Efficiency>
0

>  <Binding Efficiency>
0

>  <Surface Efficiency>
0

>  <Assay Index>
572516

>  <Assay Category>


>  <Assay Organism>
Homo sapiens

>  <Target ID>
17045

>  <Target Name>
Cytochrome P450 3A4

>  <Target Organism>
Homo sapiens

>  <Target Description>
Target is a single protein chain

>  <Sequence Accession>
P08684

>  <Reference>
Bioorg Med Chem 19 (5), 1751-1770 (2011)

>  <Pubmed ID>
21316976

>  <DOI>
10.1016/j.bmc.2011.01.017

$$$$
1072972
Actelion Java MolfileCreator 1.0

 25 27  0  0  0  0  0  0  0  0999 V2000
    0.0000   -0.0000   -0.0000 O   0  0  0  0  0  0  0  0  0  0  0  0
   -0.0119    1.5176   -0.0000 C   0  0  0  0  0  0  0  0  0  0  0  0
   -1.3279    2.2764   -0.0000 N   0  0  0  0  0  0  0  0  0  0  0  0
    1.2805    2.2764   -0.0000 C   0  0  0  0  0  0  0  0  0  0  0  0
   -2.6440    1.5413   -0.0000 C   0  0  0  0  0  0  0  0  0  0  0  0
    1.2686    3.7940   -0.0000 C   0  0  0  0  0  0  0  0  0  0  0  0
    2.5728    1.5413   -0.0000 C   0  0  0  0  0  0  0  0  0  0  0  0
    2.5491    4.5528   -0.0000 C   0  0  0  0  0  0  0  0  0  0  0  0
   -0.0474    4.5528   -0.0000 C   0  0  0  0  0  0  0  0  0  0  0  0
    3.8652    2.3120   -0.0000 C   0  0  0  0  0  0  0  0  0  0  0  0
    3.8415    3.8178   -0.0000 C   0  0  0  0  0  0  0  0  0  0  0  0
    5.1575    1.5769   -0.0000 C   0  0  0  0  0  0  0  0  0  0  0  0
    5.1220    4.5884   -0.0000 C   0  0  0  0  0  0  0  0  0  0  0  0
    6.4499    2.3476   -0.0000 C   0  0  0  0  0  0  0  0  0  0  0  0
    6.4143    3.8533   -0.0000 C   0  0  0  0  0  0  0  0  0  0  0  0
    7.6948    4.6240   -0.0000 C   0  0  0  0  0  0  0  0  0  0  0  0
    6.9241    5.9400   -0.0000 O   0  0  0  0  0  0  0  0  0  0  0  0
    8.9871    3.8889   -0.0000 C   0  0  0  0  0  0  0  0  0  0  0  0
    8.4180    5.9400   -0.0000 C   0  0  0  0  0  0  0  0  0  0  0  0
   10.3388    4.5173   -0.0000 N   0  0  0  0  0  0  0  0  0  0  0  0
    9.1413    2.4068   -0.0000 C   0  0  0  0  0  0  0  0  0  0  0  0
    7.6474    7.2442   -0.0000 C   0  0  0  0  0  0  0  0  0  0  0  0
    9.9119    5.9638   -0.0000 C   0  0  0  0  0  0  0  0  0  0  0  0
   11.3347    3.4146   -0.0000 C   0  0  0  0  0  0  0  0  0  0  0  0
   10.5996    2.1104   -0.0000 N   0  0  0  0  0  0  0  0  0  0  0  0
  1  2  2  0  0  0  0
  2  3  1  0  0  0  0
  2  4  1  0  0  0  0
  3  5  1  0  0  0  0
  4  6  1  0  0  0  0
  4  7  2  0  0  0  0
  6  8  2  0  0  0  0
  6  9  1  0  0  0  0
  7 10  1  0  0  0  0
  8 11  1  0  0  0  0
 10 12  2  0  0  0  0
 11 13  2  0  0  0  0
 12 14  1  0  0  0  0
 13 15  1  0  0  0  0
 15 16  1  0  0  0  0
 16 17  1  0  0  0  0
 16 18  1  0  0  0  0
 16 19  1  0  0  0  0
 18 20  1  0  0  0  0
 18 21  2  0  0  0  0
 19 22  1  0  0  0  0
 19 23  1  0  0  0  0
 20 24  2  0  0  0  0
 21 25  1  0  0  0  0
 10 11  1  0  0  0  0
 14 15  2  0  0  0  0
 24 25  1  0  0  0  0
M  END
>  <MolRegNo>
1072972

>  <m>
=

>  <Value>
3600

>  <Unit>
nM

>  <Type>
IC50

>  <pValue>
5.44

>  <Ligand Efficiency>
0

>  <Binding Efficiency>
0

>  <Surface Efficiency>
0

>  <Assay Index>
572516

>  <Assay Category>


>  <Assay Organism>
Homo sapiens

>  <Target ID>
17045

>  <Target Name>
Cytochrome P450 3A4

>  <Target Organism>
Homo sapiens

>  <Target Description>
Target is a single protein chain

>  <Sequence Accession>
P08684

>  <Reference>
Bioorg Med Chem 19 (5), 1751-1770 (2011)

>  <Pubmed ID>
21316976

>  <DOI>
10.1016/j.bmc.2011.01.017

$$$$
1072965
Actelion Java MolfileCreator 1.0

 23 25  0  0  0  0  0  0  0  0999 V2000
    0.0000   -0.0000   -0.0000 O   0  0  0  0  0  0  0  0  0  0  0  0
   -0.0119    1.5176   -0.0000 C   0  0  0  0  0  0  0  0  0  0  0  0
   -1.3279    2.2763   -0.0000 N   0  0  0  0  0  0  0  0  0  0  0  0
    1.2804    2.2763   -0.0000 C   0  0  0  0  0  0  0  0  0  0  0  0
    2.5727    1.5413   -0.0000 C   0  0  0  0  0  0  0  0  0  0  0  0
    1.2686    3.7939   -0.0000 C   0  0  0  0  0  0  0  0  0  0  0  0
    3.8650    2.3119   -0.0000 C   0  0  0  0  0  0  0  0  0  0  0  0
    2.5490    4.5527   -0.0000 C   0  0  0  0  0  0  0  0  0  0  0  0
    3.8532    3.8295   -0.0000 C   0  0  0  0  0  0  0  0  0  0  0  0
    5.1573    1.5768   -0.0000 C   0  0  0  0  0  0  0  0  0  0  0  0
    5.1336    4.6001   -0.0000 C   0  0  0  0  0  0  0  0  0  0  0  0
    6.4496    2.3475   -0.0000 C   0  0  0  0  0  0  0  0  0  0  0  0
    6.4259    3.8650   -0.0000 C   0  0  0  0  0  0  0  0  0  0  0  0
    7.7064    4.6357   -0.0000 C   0  0  0  0  0  0  0  0  0  0  0  0
    6.9357    5.9517   -0.0000 O   0  0  0  0  0  0  0  0  0  0  0  0
    8.9987    3.9006   -0.0000 C   0  0  0  0  0  0  0  0  0  0  0  0
    8.4296    5.9517   -0.0000 C   0  0  0  0  0  0  0  0  0  0  0  0
   10.3503    4.5290   -0.0000 N   0  0  0  0  0  0  0  0  0  0  0  0
    9.1528    2.4186   -0.0000 C   0  0  0  0  0  0  0  0  0  0  0  0
    7.6590    7.2558   -0.0000 C   0  0  0  0  0  0  0  0  0  0  0  0
    9.9234    5.9754   -0.0000 C   0  0  0  0  0  0  0  0  0  0  0  0
   11.3462    3.4264   -0.0000 C   0  0  0  0  0  0  0  0  0  0  0  0
   10.6111    2.1222   -0.0000 N   0  0  0  0  0  0  0  0  0  0  0  0
  1  2  2  0  0  0  0
  2  3  1  0  0  0  0
  2  4  1  0  0  0  0
  4  5  2  0  0  0  0
  4  6  1  0  0  0  0
  5  7  1  0  0  0  0
  6  8  2  0  0  0  0
  7  9  1  0  0  0  0
  7 10  2  0  0  0  0
  9 11  2  0  0  0  0
 10 12  1  0  0  0  0
 11 13  1  0  0  0  0
 13 14  1  0  0  0  0
 14 15  1  0  0  0  0
 14 16  1  0  0  0  0
 14 17  1  0  0  0  0
 16 18  1  0  0  0  0
 16 19  2  0  0  0  0
 17 20  1  0  0  0  0
 17 21  1  0  0  0  0
 18 22  2  0  0  0  0
 19 23  1  0  0  0  0
  8  9  1  0  0  0  0
 12 13  2  0  0  0  0
 22 23  1  0  0  0  0
M  END
>  <MolRegNo>
1072965

>  <m>
=

>  <Value>
3700

>  <Unit>
nM

>  <Type>
IC50

>  <pValue>
5.43

>  <Ligand Efficiency>
0

>  <Binding Efficiency>
0

>  <Surface Efficiency>
0

>  <Assay Index>
572516

>  <Assay Category>


>  <Assay Organism>
Homo sapiens

>  <Target ID>
17045

>  <Target Name>
Cytochrome P450 3A4

>  <Target Organism>
Homo sapiens

>  <Target Description>
Target is a single protein chain

>  <Sequence Accession>
P08684

>  <Reference>
Bioorg Med Chem 19 (5), 1751-1770 (2011)

>  <Pubmed ID>
21316976

>  <DOI>
10.1016/j.bmc.2011.01.017

$$$$
1072976
Actelion Java MolfileCreator 1.0

 25 28  0  0  0  0  0  0  0  0999 V2000
    0.0000   -0.0000   -0.0000 O   0  0  0  0  0  0  0  0  0  0  0  0
    0.4404    1.4402   -0.0000 C   0  0  0  0  0  0  0  0  0  0  0  0
   -0.4642    2.6662   -0.0000 N   0  0  0  0  0  0  0  0  0  0  0  0
    1.8687    1.9282   -0.0000 C   0  0  0  0  0  0  0  0  0  0  0  0
    0.4047    3.9041   -0.0000 C   0  0  0  0  0  0  0  0  0  0  0  0
   -1.9758    2.6662   -0.0000 C   0  0  0  0  0  0  0  0  0  0  0  0
    1.8449    3.4518   -0.0000 C   0  0  0  0  0  0  0  0  0  0  0  0
    3.1542    1.1903   -0.0000 C   0  0  0  0  0  0  0  0  0  0  0  0
    3.1304    4.2136   -0.0000 C   0  0  0  0  0  0  0  0  0  0  0  0
    4.4397    1.9639   -0.0000 C   0  0  0  0  0  0  0  0  0  0  0  0
    4.4159    3.4875   -0.0000 C   0  0  0  0  0  0  0  0  0  0  0  0
    5.7252    1.2260   -0.0000 C   0  0  0  0  0  0  0  0  0  0  0  0
    5.6895    4.2493   -0.0000 C   0  0  0  0  0  0  0  0  0  0  0  0
    7.0107    1.9878   -0.0000 C   0  0  0  0  0  0  0  0  0  0  0  0
    6.9750    3.5232   -0.0000 C   0  0  0  0  0  0  0  0  0  0  0  0
    8.2605    4.2969   -0.0000 C   0  0  0  0  0  0  0  0  0  0  0  0
    7.4868    5.6181   -0.0000 O   0  0  0  0  0  0  0  0  0  0  0  0
    9.5460    3.5708   -0.0000 C   0  0  0  0  0  0  0  0  0  0  0  0
    8.9865    5.6181   -0.0000 C   0  0  0  0  0  0  0  0  0  0  0  0
   10.8910    4.2017   -0.0000 N   0  0  0  0  0  0  0  0  0  0  0  0
    9.6888    2.0949   -0.0000 C   0  0  0  0  0  0  0  0  0  0  0  0
    8.2129    6.9274   -0.0000 C   0  0  0  0  0  0  0  0  0  0  0  0
   10.4744    5.6419   -0.0000 C   0  0  0  0  0  0  0  0  0  0  0  0
   11.8908    3.1066   -0.0000 C   0  0  0  0  0  0  0  0  0  0  0  0
   11.1409    1.8092   -0.0000 N   0  0  0  0  0  0  0  0  0  0  0  0
  1  2  2  0  0  0  0
  2  3  1  0  0  0  0
  2  4  1  0  0  0  0
  3  5  1  0  0  0  0
  3  6  1  0  0  0  0
  4  7  1  0  0  0  0
  4  8  2  0  0  0  0
  7  9  2  0  0  0  0
  8 10  1  0  0  0  0
  9 11  1  0  0  0  0
 10 12  2  0  0  0  0
 11 13  2  0  0  0  0
 12 14  1  0  0  0  0
 13 15  1  0  0  0  0
 15 16  1  0  0  0  0
 16 17  1  0  0  0  0
 16 18  1  0  0  0  0
 16 19  1  0  0  0  0
 18 20  1  0  0  0  0
 18 21  2  0  0  0  0
 19 22  1  0  0  0  0
 19 23  1  0  0  0  0
 20 24  2  0  0  0  0
 21 25  1  0  0  0  0
  5  7  1  0  0  0  0
 10 11  1  0  0  0  0
 14 15  2  0  0  0  0
 24 25  1  0  0  0  0
M  END
>  <MolRegNo>
1072976

>  <m>
=

>  <Value>
5400

>  <Unit>
nM

>  <Type>
IC50

>  <pValue>
5.27

>  <Ligand Efficiency>
0

>  <Binding Efficiency>
0

>  <Surface Efficiency>
0

>  <Assay Index>
572516

>  <Assay Category>


>  <Assay Organism>
Homo sapiens

>  <Target ID>
17045

>  <Target Name>
Cytochrome P450 3A4

>  <Target Organism>
Homo sapiens

>  <Target Description>
Target is a single protein chain

>  <Sequence Accession>
P08684

>  <Reference>
Bioorg Med Chem 19 (5), 1751-1770 (2011)

>  <Pubmed ID>
21316976

>  <DOI>
10.1016/j.bmc.2011.01.017

$$$$
1072967
Actelion Java MolfileCreator 1.0

 25 27  0  0  0  0  0  0  0  0999 V2000
    0.0000   -0.0000   -0.0000 O   0  0  0  0  0  0  0  0  0  0  0  0
   -0.0118    1.5166   -0.0000 C   0  0  0  0  0  0  0  0  0  0  0  0
   -1.3270    2.2749   -0.0000 N   0  0  0  0  0  0  0  0  0  0  0  0
    1.2796    2.2749   -0.0000 C   0  0  0  0  0  0  0  0  0  0  0  0
   -2.6422    1.5403   -0.0000 C   0  0  0  0  0  0  0  0  0  0  0  0
    2.5711    1.5403   -0.0000 C   0  0  0  0  0  0  0  0  0  0  0  0
    1.2678    3.7914   -0.0000 C   0  0  0  0  0  0  0  0  0  0  0  0
   -3.9573    2.2986   -0.0000 C   0  0  0  0  0  0  0  0  0  0  0  0
    3.8625    2.3104   -0.0000 C   0  0  0  0  0  0  0  0  0  0  0  0
    2.5474    4.5497   -0.0000 C   0  0  0  0  0  0  0  0  0  0  0  0
    3.8507    3.8270   -0.0000 C   0  0  0  0  0  0  0  0  0  0  0  0
    5.1540    1.5758   -0.0000 C   0  0  0  0  0  0  0  0  0  0  0  0
    5.1303    4.5971   -0.0000 C   0  0  0  0  0  0  0  0  0  0  0  0
    6.4454    2.3459   -0.0000 C   0  0  0  0  0  0  0  0  0  0  0  0
    6.4217    3.8625   -0.0000 C   0  0  0  0  0  0  0  0  0  0  0  0
    7.7013    4.6327   -0.0000 C   0  0  0  0  0  0  0  0  0  0  0  0
    6.9312    5.9478   -0.0000 O   0  0  0  0  0  0  0  0  0  0  0  0
    8.9928    3.8981   -0.0000 C   0  0  0  0  0  0  0  0  0  0  0  0
    8.4241    5.9478   -0.0000 C   0  0  0  0  0  0  0  0  0  0  0  0
   10.3435    4.5260   -0.0000 N   0  0  0  0  0  0  0  0  0  0  0  0
    9.1468    2.4170   -0.0000 C   0  0  0  0  0  0  0  0  0  0  0  0
    7.6539    7.2511   -0.0000 C   0  0  0  0  0  0  0  0  0  0  0  0
    9.9170    5.9715   -0.0000 C   0  0  0  0  0  0  0  0  0  0  0  0
   11.3387    3.4241   -0.0000 C   0  0  0  0  0  0  0  0  0  0  0  0
   10.6042    2.1208   -0.0000 N   0  0  0  0  0  0  0  0  0  0  0  0
  1  2  2  0  0  0  0
  2  3  1  0  0  0  0
  2  4  1  0  0  0  0
  3  5  1  0  0  0  0
  4  6  2  0  0  0  0
  4  7  1  0  0  0  0
  5  8  1  0  0  0  0
  6  9  1  0  0  0  0
  7 10  2  0  0  0  0
  9 11  1  0  0  0  0
  9 12  2  0  0  0  0
 11 13  2  0  0  0  0
 12 14  1  0  0  0  0
 13 15  1  0  0  0  0
 15 16  1  0  0  0  0
 16 17  1  0  0  0  0
 16 18  1  0  0  0  0
 16 19  1  0  0  0  0
 18 20  1  0  0  0  0
 18 21  2  0  0  0  0
 19 22  1  0  0  0  0
 19 23  1  0  0  0  0
 20 24  2  0  0  0  0
 21 25  1  0  0  0  0
 10 11  1  0  0  0  0
 14 15  2  0  0  0  0
 24 25  1  0  0  0  0
M  END
>  <MolRegNo>
1072967

>  <m>
=

>  <Value>
5700

>  <Unit>
nM

>  <Type>
IC50

>  <pValue>
5.24

>  <Ligand Efficiency>
0

>  <Binding Efficiency>
0

>  <Surface Efficiency>
0

>  <Assay Index>
572516

>  <Assay Category>


>  <Assay Organism>
Homo sapiens

>  <Target ID>
17045

>  <Target Name>
Cytochrome P450 3A4

>  <Target Organism>
Homo sapiens

>  <Target Description>
Target is a single protein chain

>  <Sequence Accession>
P08684

>  <Reference>
Bioorg Med Chem 19 (5), 1751-1770 (2011)

>  <Pubmed ID>
21316976

>  <DOI>
10.1016/j.bmc.2011.01.017

$$$$
1072973
Actelion Java MolfileCreator 1.0

 24 27  0  0  0  0  0  0  0  0999 V2000
    0.0000   -0.0000   -0.0000 O   0  0  0  0  0  0  0  0  0  0  0  0
    1.4563   -0.2984   -0.0000 C   0  0  0  0  0  0  0  0  0  0  0  0
    2.0651   -1.6592   -0.0000 N   0  0  0  0  0  0  0  0  0  0  0  0
    2.5545    0.7282   -0.0000 C   0  0  0  0  0  0  0  0  0  0  0  0
    3.5453   -1.4802   -0.0000 C   0  0  0  0  0  0  0  0  0  0  0  0
    3.8437   -0.0119   -0.0000 C   0  0  0  0  0  0  0  0  0  0  0  0
    2.5426    2.2561   -0.0000 C   0  0  0  0  0  0  0  0  0  0  0  0
    5.1329    0.7640   -0.0000 C   0  0  0  0  0  0  0  0  0  0  0  0
    3.8318    3.0201   -0.0000 C   0  0  0  0  0  0  0  0  0  0  0  0
    5.1210    2.2800   -0.0000 C   0  0  0  0  0  0  0  0  0  0  0  0
    6.4221    0.0239   -0.0000 C   0  0  0  0  0  0  0  0  0  0  0  0
    6.4102    3.0439   -0.0000 C   0  0  0  0  0  0  0  0  0  0  0  0
    7.7113    0.7878   -0.0000 C   0  0  0  0  0  0  0  0  0  0  0  0
    7.6994    2.3158   -0.0000 C   0  0  0  0  0  0  0  0  0  0  0  0
    8.9886    3.0917   -0.0000 C   0  0  0  0  0  0  0  0  0  0  0  0
    8.2127    4.4167   -0.0000 O   0  0  0  0  0  0  0  0  0  0  0  0
   10.2897    2.3635   -0.0000 C   0  0  0  0  0  0  0  0  0  0  0  0
    9.7167    4.4167   -0.0000 C   0  0  0  0  0  0  0  0  0  0  0  0
   11.6386    2.9962   -0.0000 N   0  0  0  0  0  0  0  0  0  0  0  0
   10.4329    0.8833   -0.0000 C   0  0  0  0  0  0  0  0  0  0  0  0
    8.9408    5.7298   -0.0000 C   0  0  0  0  0  0  0  0  0  0  0  0
   11.2088    4.4406   -0.0000 C   0  0  0  0  0  0  0  0  0  0  0  0
   12.6413    1.8980   -0.0000 C   0  0  0  0  0  0  0  0  0  0  0  0
   11.9012    0.5969   -0.0000 N   0  0  0  0  0  0  0  0  0  0  0  0
  1  2  2  0  0  0  0
  2  3  1  0  0  0  0
  2  4  1  0  0  0  0
  3  5  1  0  0  0  0
  4  6  2  0  0  0  0
  4  7  1  0  0  0  0
  6  8  1  0  0  0  0
  7  9  2  0  0  0  0
  8 10  1  0  0  0  0
  8 11  2  0  0  0  0
 10 12  2  0  0  0  0
 11 13  1  0  0  0  0
 12 14  1  0  0  0  0
 14 15  1  0  0  0  0
 15 16  1  0  0  0  0
 15 17  1  0  0  0  0
 15 18  1  0  0  0  0
 17 19  1  0  0  0  0
 17 20  2  0  0  0  0
 18 21  1  0  0  0  0
 18 22  1  0  0  0  0
 19 23  2  0  0  0  0
 20 24  1  0  0  0  0
  5  6  1  0  0  0  0
  9 10  1  0  0  0  0
 13 14  2  0  0  0  0
 23 24  1  0  0  0  0
M  END
>  <MolRegNo>
1072973

>  <m>
=

>  <Value>
6700

>  <Unit>
nM

>  <Type>
IC50

>  <pValue>
5.17

>  <Ligand Efficiency>
0

>  <Binding Efficiency>
0

>  <Surface Efficiency>
0

>  <Assay Index>
572516

>  <Assay Category>


>  <Assay Organism>
Homo sapiens

>  <Target ID>
17045

>  <Target Name>
Cytochrome P450 3A4

>  <Target Organism>
Homo sapiens

>  <Target Description>
Target is a single protein chain

>  <Sequence Accession>
P08684

>  <Reference>
Bioorg Med Chem 19 (5), 1751-1770 (2011)

>  <Pubmed ID>
21316976

>  <DOI>
10.1016/j.bmc.2011.01.017

$$$$
1072969
Actelion Java MolfileCreator 1.0

 26 28  0  0  0  0  0  0  0  0999 V2000
    0.0000   -0.0000   -0.0000 O   0  0  0  0  0  0  0  0  0  0  0  0
   -0.0119    1.5168   -0.0000 C   0  0  0  0  0  0  0  0  0  0  0  0
   -1.3272    2.2752   -0.0000 N   0  0  0  0  0  0  0  0  0  0  0  0
    1.2798    2.2752   -0.0000 C   0  0  0  0  0  0  0  0  0  0  0  0
   -2.6426    1.5405   -0.0000 C   0  0  0  0  0  0  0  0  0  0  0  0
    2.5715    1.5405   -0.0000 C   0  0  0  0  0  0  0  0  0  0  0  0
    1.2680    3.7921   -0.0000 C   0  0  0  0  0  0  0  0  0  0  0  0
   -3.9580    2.2989   -0.0000 C   0  0  0  0  0  0  0  0  0  0  0  0
   -2.6544    0.0474   -0.0000 C   0  0  0  0  0  0  0  0  0  0  0  0
    3.8632    2.3108   -0.0000 C   0  0  0  0  0  0  0  0  0  0  0  0
    2.5478    4.5505   -0.0000 C   0  0  0  0  0  0  0  0  0  0  0  0
    3.8513    3.8276   -0.0000 C   0  0  0  0  0  0  0  0  0  0  0  0
    5.1548    1.5761   -0.0000 C   0  0  0  0  0  0  0  0  0  0  0  0
    5.1311    4.5979   -0.0000 C   0  0  0  0  0  0  0  0  0  0  0  0
    6.4465    2.3463   -0.0000 C   0  0  0  0  0  0  0  0  0  0  0  0
    6.4228    3.8632   -0.0000 C   0  0  0  0  0  0  0  0  0  0  0  0
    7.7026    4.6334   -0.0000 C   0  0  0  0  0  0  0  0  0  0  0  0
    6.9324    5.9488   -0.0000 O   0  0  0  0  0  0  0  0  0  0  0  0
    8.9943    3.8987   -0.0000 C   0  0  0  0  0  0  0  0  0  0  0  0
    8.4255    5.9488   -0.0000 C   0  0  0  0  0  0  0  0  0  0  0  0
   10.3452    4.5268   -0.0000 N   0  0  0  0  0  0  0  0  0  0  0  0
    9.1484    2.4174   -0.0000 C   0  0  0  0  0  0  0  0  0  0  0  0
    7.6552    7.2523   -0.0000 C   0  0  0  0  0  0  0  0  0  0  0  0
    9.9186    5.9725   -0.0000 C   0  0  0  0  0  0  0  0  0  0  0  0
   11.3407    3.4247   -0.0000 C   0  0  0  0  0  0  0  0  0  0  0  0
   10.6059    2.1212   -0.0000 N   0  0  0  0  0  0  0  0  0  0  0  0
  1  2  2  0  0  0  0
  2  3  1  0  0  0  0
  2  4  1  0  0  0  0
  3  5  1  0  0  0  0
  4  6  2  0  0  0  0
  4  7  1  0  0  0  0
  5  8  1  0  0  0  0
  5  9  1  0  0  0  0
  6 10  1  0  0  0  0
  7 11  2  0  0  0  0
 10 12  1  0  0  0  0
 10 13  2  0  0  0  0
 12 14  2  0  0  0  0
 13 15  1  0  0  0  0
 14 16  1  0  0  0  0
 16 17  1  0  0  0  0
 17 18  1  0  0  0  0
 17 19  1  0  0  0  0
 17 20  1  0  0  0  0
 19 21  1  0  0  0  0
 19 22  2  0  0  0  0
 20 23  1  0  0  0  0
 20 24  1  0  0  0  0
 21 25  2  0  0  0  0
 22 26  1  0  0  0  0
 11 12  1  0  0  0  0
 15 16  2  0  0  0  0
 25 26  1  0  0  0  0
M  END
>  <MolRegNo>
1072969

>  <m>
=

>  <Value>
9300

>  <Unit>
nM

>  <Type>
IC50

>  <pValue>
5.03

>  <Ligand Efficiency>
0

>  <Binding Efficiency>
0

>  <Surface Efficiency>
0

>  <Assay Index>
572516

>  <Assay Category>


>  <Assay Organism>
Homo sapiens

>  <Target ID>
17045

>  <Target Name>
Cytochrome P450 3A4

>  <Target Organism>
Homo sapiens

>  <Target Description>
Target is a single protein chain

>  <Sequence Accession>
P08684

>  <Reference>
Bioorg Med Chem 19 (5), 1751-1770 (2011)

>  <Pubmed ID>
21316976

>  <DOI>
10.1016/j.bmc.2011.01.017

$$$$
1073551
Actelion Java MolfileCreator 1.0

 32 34  0  0  0  0  0  0  0  0999 V2000
    0.0000   -0.0000   -0.0000 S   0  0  0  0  0  0  0  0  0  0  0  0
   -0.4020    1.4661   -0.0000 O   0  0  0  0  0  0  0  0  0  0  0  0
    1.2769    0.7685   -0.0000 O   0  0  0  0  0  0  0  0  0  0  0  0
   -1.5134    0.0236   -0.0000 N   0  0  0  0  0  0  0  0  0  0  0  0
    0.7330   -1.2887   -0.0000 C   0  0  0  0  0  0  0  0  0  0  0  0
   -2.2819   -1.2533   -0.0000 C   0  0  0  0  0  0  0  0  0  0  0  0
   -2.2701    1.3360   -0.0000 C   0  0  0  0  0  0  0  0  0  0  0  0
    2.2228   -1.2887   -0.0000 C   0  0  0  0  0  0  0  0  0  0  0  0
   -3.7834   -1.2296   -0.0000 C   0  0  0  0  0  0  0  0  0  0  0  0
   -3.7834    1.3597   -0.0000 C   0  0  0  0  0  0  0  0  0  0  0  0
    2.9558   -2.5775   -0.0000 N   0  0  0  0  0  0  0  0  0  0  0  0
    2.9676    0.0118   -0.0000 C   0  0  0  0  0  0  0  0  0  0  0  0
   -4.5401    0.0946   -0.0000 N   0  0  0  0  0  0  0  0  0  0  0  0
    4.4455   -2.5775   -0.0000 O   0  0  0  0  0  0  0  0  0  0  0  0
    2.1873   -3.8544   -0.0000 C   0  0  0  0  0  0  0  0  0  0  0  0
    4.4574    0.0118   -0.0000 C   0  0  0  0  0  0  0  0  0  0  0  0
   -6.0535    0.1064   -0.0000 C   0  0  0  0  0  0  0  0  0  0  0  0
    0.6739   -3.8307   -0.0000 O   0  0  0  0  0  0  0  0  0  0  0  0
    5.2022    1.3124   -0.0000 C   0  0  0  0  0  0  0  0  0  0  0  0
    5.1904   -1.2769   -0.0000 C   0  0  0  0  0  0  0  0  0  0  0  0
   -6.8102    1.4070   -0.0000 C   0  0  0  0  0  0  0  0  0  0  0  0
   -6.8102   -1.1705   -0.0000 C   0  0  0  0  0  0  0  0  0  0  0  0
    6.6920    1.3124   -0.0000 N   0  0  0  0  0  0  0  0  0  0  0  0
    4.4455    2.6129   -0.0000 N   0  0  0  0  0  0  0  0  0  0  0  0
   -8.3117    1.4306   -0.0000 C   0  0  0  0  0  0  0  0  0  0  0  0
   -8.3236   -1.1587   -0.0000 C   0  0  0  0  0  0  0  0  0  0  0  0
    7.4368    2.6129   -0.0000 C   0  0  0  0  0  0  0  0  0  0  0  0
    5.1786    3.9135   -0.0000 C   0  0  0  0  0  0  0  0  0  0  0  0
   -9.0802    0.1537   -0.0000 C   0  0  0  0  0  0  0  0  0  0  0  0
    6.6801    3.9253   -0.0000 C   0  0  0  0  0  0  0  0  0  0  0  0
  -10.5936    0.1773   -0.0000 F   0  0  0  0  0  0  0  0  0  0  0  0
    7.4250    5.2259   -0.0000 F   0  0  0  0  0  0  0  0  0  0  0  0
  1  2  2  0  0  0  0
  1  3  2  0  0  0  0
  1  4  1  0  0  0  0
  1  5  1  0  0  0  0
  4  6  1  0  0  0  0
  4  7  1  0  0  0  0
  5  8  1  0  0  0  0
  6  9  1  0  0  0  0
  7 10  1  0  0  0  0
  8 11  1  6  0  0  0
  8 12  1  0  0  0  0
  9 13  1  0  0  0  0
 11 14  1  0  0  0  0
 11 15  1  0  0  0  0
 12 16  1  0  0  0  0
 13 17  1  0  0  0  0
 15 18  2  0  0  0  0
 16 19  1  0  0  0  0
 16 20  1  1  0  0  0
 17 21  2  0  0  0  0
 17 22  1  0  0  0  0
 19 23  2  0  0  0  0
 19 24  1  0  0  0  0
 21 25  1  0  0  0  0
 22 26  2  0  0  0  0
 23 27  1  0  0  0  0
 24 28  2  0  0  0  0
 25 29  2  0  0  0  0
 27 30  2  0  0  0  0
 29 31  1  0  0  0  0
 30 32  1  0  0  0  0
 10 13  1  0  0  0  0
 26 29  1  0  0  0  0
 28 30  1  0  0  0  0
M  END
>  <MolRegNo>
1073551

>  <m>
=

>  <Value>
1.4

>  <Unit>
nM

>  <Type>
IC50

>  <pValue>
8.85

>  <Ligand Efficiency>
0

>  <Binding Efficiency>
0

>  <Surface Efficiency>
0

>  <Assay Index>
571109

>  <Assay Category>


>  <Assay Organism>


>  <Target ID>
17045

>  <Target Name>
Cytochrome P450 3A4

>  <Target Organism>
Homo sapiens

>  <Target Description>
Target is a single protein chain

>  <Sequence Accession>
P08684

>  <Reference>
Bioorg Med Chem Lett 21 (5), 1376-1381 (2011)

>  <Pubmed ID>
21300546

>  <DOI>
10.1016/j.bmcl.2011.01.036

$$$$
1073080
Actelion Java MolfileCreator 1.0

 30 34  0  0  0  0  0  0  0  0999 V2000
    0.0000   -0.0000   -0.0000 O   0  0  0  0  0  0  0  0  0  0  0  0
   -0.0119    1.5128   -0.0000 C   0  0  0  0  0  0  0  0  0  0  0  0
   -1.3222    2.2752   -0.0000 N   0  0  0  0  0  0  0  0  0  0  0  0
    1.2746    2.2752   -0.0000 C   0  0  0  0  0  0  0  0  0  0  0  0
   -2.6326    1.5366   -0.0000 C   0  0  0  0  0  0  0  0  0  0  0  0
    2.5611    1.5366   -0.0000 C   0  0  0  0  0  0  0  0  0  0  0  0
    1.2508    3.7761   -0.0000 C   0  0  0  0  0  0  0  0  0  0  0  0
   -3.9548    2.2990   -0.0000 N   0  0  0  0  0  0  0  0  0  0  0  0
   -2.6326    0.0357   -0.0000 C   0  0  0  0  0  0  0  0  0  0  0  0
    3.8357    2.2990   -0.0000 C   0  0  0  0  0  0  0  0  0  0  0  0
    2.5253    4.5385   -0.0000 C   0  0  0  0  0  0  0  0  0  0  0  0
   -5.2651    1.5486   -0.0000 C   0  0  0  0  0  0  0  0  0  0  0  0
   -3.9548   -0.7147   -0.0000 C   0  0  0  0  0  0  0  0  0  0  0  0
    5.2413    1.8464   -0.0000 N   0  0  0  0  0  0  0  0  0  0  0  0
    3.8238    3.8118   -0.0000 C   0  0  0  0  0  0  0  0  0  0  0  0
   -5.2651    0.0476   -0.0000 C   0  0  0  0  0  0  0  0  0  0  0  0
   -6.5754    2.2990   -0.0000 C   0  0  0  0  0  0  0  0  0  0  0  0
    6.1109    3.0733   -0.0000 C   0  0  0  0  0  0  0  0  0  0  0  0
    5.2294    4.2883   -0.0000 N   0  0  0  0  0  0  0  0  0  0  0  0
   -6.5754   -0.6909   -0.0000 C   0  0  0  0  0  0  0  0  0  0  0  0
   -7.8857    1.5605   -0.0000 C   0  0  0  0  0  0  0  0  0  0  0  0
    7.5999    3.0852   -0.0000 C   0  0  0  0  0  0  0  0  0  0  0  0
   -7.8857    0.0715   -0.0000 C   0  0  0  0  0  0  0  0  0  0  0  0
    8.3265    4.3955   -0.0000 C   0  0  0  0  0  0  0  0  0  0  0  0
    8.3265    1.7987   -0.0000 C   0  0  0  0  0  0  0  0  0  0  0  0
    9.8036    4.4194   -0.0000 C   0  0  0  0  0  0  0  0  0  0  0  0
    7.5522    5.7058   -0.0000 C   0  0  0  0  0  0  0  0  0  0  0  0
    9.8155    1.8106   -0.0000 C   0  0  0  0  0  0  0  0  0  0  0  0
    7.5641    0.5122   -0.0000 C   0  0  0  0  0  0  0  0  0  0  0  0
   10.5540    3.1329   -0.0000 C   0  0  0  0  0  0  0  0  0  0  0  0
  1  2  2  0  0  0  0
  2  3  1  0  0  0  0
  2  4  1  0  0  0  0
  3  5  1  0  0  0  0
  4  6  2  0  0  0  0
  4  7  1  0  0  0  0
  5  8  2  0  0  0  0
  5  9  1  0  0  0  0
  6 10  1  0  0  0  0
  7 11  2  0  0  0  0
  8 12  1  0  0  0  0
  9 13  2  0  0  0  0
 10 14  1  0  0  0  0
 10 15  2  0  0  0  0
 12 16  1  0  0  0  0
 12 17  2  0  0  0  0
 14 18  1  0  0  0  0
 15 19  1  0  0  0  0
 16 20  2  0  0  0  0
 17 21  1  0  0  0  0
 18 22  1  0  0  0  0
 20 23  1  0  0  0  0
 22 24  2  0  0  0  0
 22 25  1  0  0  0  0
 24 26  1  0  0  0  0
 24 27  1  0  0  0  0
 25 28  2  0  0  0  0
 25 29  1  0  0  0  0
 26 30  2  0  0  0  0
 11 15  1  0  0  0  0
 13 16  1  0  0  0  0
 18 19  2  0  0  0  0
 21 23  2  0  0  0  0
 28 30  1  0  0  0  0
M  END
>  <MolRegNo>
1073080

>  <m>
=

>  <Value>
7300

>  <Unit>
nM

>  <Type>
IC50

>  <pValue>
5.14

>  <Ligand Efficiency>
0

>  <Binding Efficiency>
0

>  <Surface Efficiency>
0

>  <Assay Index>
572803

>  <Assay Category>


>  <Assay Organism>


>  <Target ID>
17045

>  <Target Name>
Cytochrome P450 3A4

>  <Target Organism>
Homo sapiens

>  <Target Description>
Target is a single protein chain

>  <Sequence Accession>
P08684

>  <Reference>
Bioorg Med Chem Lett 21 (5), 1422-1424 (2011)

>  <Pubmed ID>
21295471

>  <DOI>
10.1016/j.bmcl.2011.01.023

$$$$
1138070
Actelion Java MolfileCreator 1.0

 29 33  0  0  0  0  0  0  0  0999 V2000
    0.0000   -0.0000   -0.0000 Cl  0  0  0  0  0  0  0  0  0  0  0  0
    1.2934    0.7594   -0.0000 C   0  0  0  0  0  0  0  0  0  0  0  0
    1.2815    2.2783   -0.0000 C   0  0  0  0  0  0  0  0  0  0  0  0
    2.5749    0.0237   -0.0000 C   0  0  0  0  0  0  0  0  0  0  0  0
    2.5749    3.0377   -0.0000 C   0  0  0  0  0  0  0  0  0  0  0  0
    3.8683    0.7832   -0.0000 C   0  0  0  0  0  0  0  0  0  0  0  0
    3.8683    2.3020   -0.0000 C   0  0  0  0  0  0  0  0  0  0  0  0
    5.1498    3.0614   -0.0000 C   0  0  0  0  0  0  0  0  0  0  0  0
    6.4432    2.3257   -0.0000 C   0  0  0  0  0  0  0  0  0  0  0  0
    5.8855    4.3785   -0.0000 C   0  0  0  0  0  0  0  0  0  0  0  0
    3.8327    3.8208   -0.0000 C   0  0  0  0  0  0  0  0  0  0  0  0
    6.8822    0.9018   -0.0000 N   0  0  0  0  0  0  0  0  0  0  0  0
    7.6417    3.2275   -0.0000 N   0  0  0  0  0  0  0  0  0  0  0  0
    4.5684    5.1380   -0.0000 C   0  0  0  0  0  0  0  0  0  0  0  0
    8.3774    0.9137   -0.0000 N   0  0  0  0  0  0  0  0  0  0  0  0
    8.8401    2.3376   -0.0000 C   0  0  0  0  0  0  0  0  0  0  0  0
    7.6298    4.7464   -0.0000 C   0  0  0  0  0  0  0  0  0  0  0  0
   10.1335    3.0851   -0.0000 C   0  0  0  0  0  0  0  0  0  0  0  0
   10.1335    4.6040   -0.0000 C   0  0  0  0  0  0  0  0  0  0  0  0
   11.4032    2.3376   -0.0000 C   0  0  0  0  0  0  0  0  0  0  0  0
   11.4269    5.3515   -0.0000 C   0  0  0  0  0  0  0  0  0  0  0  0
   12.6966    3.0851   -0.0000 C   0  0  0  0  0  0  0  0  0  0  0  0
   12.7084    4.6040   -0.0000 C   0  0  0  0  0  0  0  0  0  0  0  0
   14.0018    5.3515   -0.0000 C   0  0  0  0  0  0  0  0  0  0  0  0
   14.0018    6.8585   -0.0000 N   0  0  0  0  0  0  0  0  0  0  0  0
   15.2833    4.5921   -0.0000 C   0  0  0  0  0  0  0  0  0  0  0  0
   15.2952    7.6061   -0.0000 C   0  0  0  0  0  0  0  0  0  0  0  0
   16.5767    5.3397   -0.0000 N   0  0  0  0  0  0  0  0  0  0  0  0
   16.5886    6.8585   -0.0000 C   0  0  0  0  0  0  0  0  0  0  0  0
  1  2  1  0  0  0  0
  2  3  2  0  0  0  0
  2  4  1  0  0  0  0
  3  5  1  0  0  0  0
  4  6  2  0  0  0  0
  5  7  2  0  0  0  0
  7  8  1  0  0  0  0
  8  9  1  0  0  0  0
  8 10  1  0  0  0  0
  8 11  1  0  0  0  0
  9 12  2  0  0  0  0
  9 13  1  0  0  0  0
 10 14  1  0  0  0  0
 12 15  1  0  0  0  0
 13 16  1  0  0  0  0
 13 17  1  0  0  0  0
 16 18  1  0  0  0  0
 18 19  2  0  0  0  0
 18 20  1  0  0  0  0
 19 21  1  0  0  0  0
 20 22  2  0  0  0  0
 21 23  2  0  0  0  0
 23 24  1  0  0  0  0
 24 25  2  0  0  0  0
 24 26  1  0  0  0  0
 25 27  1  0  0  0  0
 26 28  2  0  0  0  0
 27 29  2  0  0  0  0
  6  7  1  0  0  0  0
 11 14  1  0  0  0  0
 15 16  2  0  0  0  0
 22 23  1  0  0  0  0
 28 29  1  0  0  0  0
M  END
>  <MolRegNo>
1138070

>  <m>
=

>  <Value>
10000

>  <Unit>
nM

>  <Type>
IC50

>  <pValue>
5

>  <Ligand Efficiency>
0

>  <Binding Efficiency>
0

>  <Surface Efficiency>
0

>  <Assay Index>
583231

>  <Assay Category>


>  <Assay Organism>


>  <Target ID>
17045

>  <Target Name>
Cytochrome P450 3A4

>  <Target Organism>
Homo sapiens

>  <Target Description>
Target is a single protein chain

>  <Sequence Accession>
P08684

>  <Reference>
Bioorg Med Chem Lett 21 (7), 2141-2145 (2011)

>  <Pubmed ID>
21334894

>  <DOI>
10.1016/j.bmcl.2011.01.125

$$$$
1138085
Actelion Java MolfileCreator 1.0

 31 35  0  0  0  0  0  0  0  0999 V2000
    0.0000   -0.0000   -0.0000 Cl  0  0  0  0  0  0  0  0  0  0  0  0
    1.2821   -0.7479   -0.0000 C   0  0  0  0  0  0  0  0  0  0  0  0
    1.2584   -2.2319   -0.0000 C   0  0  0  0  0  0  0  0  0  0  0  0
    2.5762   -0.0000   -0.0000 C   0  0  0  0  0  0  0  0  0  0  0  0
   -0.0475   -2.9560   -0.0000 C   0  0  0  0  0  0  0  0  0  0  0  0
    2.5287   -2.9798   -0.0000 C   0  0  0  0  0  0  0  0  0  0  0  0
    3.8583   -0.7479   -0.0000 C   0  0  0  0  0  0  0  0  0  0  0  0
   -0.5224   -4.3688   -0.0000 N   0  0  0  0  0  0  0  0  0  0  0  0
   -1.2703   -2.0538   -0.0000 N   0  0  0  0  0  0  0  0  0  0  0  0
    3.8227   -2.2437   -0.0000 C   0  0  0  0  0  0  0  0  0  0  0  0
    5.1404   -0.0000   -0.0000 C   0  0  0  0  0  0  0  0  0  0  0  0
   -2.0419   -4.3569   -0.0000 N   0  0  0  0  0  0  0  0  0  0  0  0
   -2.4931   -2.9323   -0.0000 C   0  0  0  0  0  0  0  0  0  0  0  0
   -1.2821   -0.5461   -0.0000 C   0  0  0  0  0  0  0  0  0  0  0  0
    5.1404    1.5077   -0.0000 N   0  0  0  0  0  0  0  0  0  0  0  0
    6.4226   -0.7598   -0.0000 C   0  0  0  0  0  0  0  0  0  0  0  0
   -3.8108   -2.1725   -0.0000 C   0  0  0  0  0  0  0  0  0  0  0  0
    6.4226    2.2556   -0.0000 C   0  0  0  0  0  0  0  0  0  0  0  0
    7.7166   -0.0119   -0.0000 N   0  0  0  0  0  0  0  0  0  0  0  0
   -5.1167   -2.9086   -0.0000 C   0  0  0  0  0  0  0  0  0  0  0  0
   -2.7661   -1.0922   -0.0000 C   0  0  0  0  0  0  0  0  0  0  0  0
   -4.8911   -1.1041   -0.0000 C   0  0  0  0  0  0  0  0  0  0  0  0
    7.7047    1.5077   -0.0000 C   0  0  0  0  0  0  0  0  0  0  0  0
   -6.4345   -2.1488   -0.0000 C   0  0  0  0  0  0  0  0  0  0  0  0
   -5.1286   -4.4044   -0.0000 C   0  0  0  0  0  0  0  0  0  0  0  0
   -3.8464   -0.0237   -0.0000 C   0  0  0  0  0  0  0  0  0  0  0  0
   -7.7403   -2.8848   -0.0000 C   0  0  0  0  0  0  0  0  0  0  0  0
   -6.4345   -5.1404   -0.0000 C   0  0  0  0  0  0  0  0  0  0  0  0
   -3.8583    1.4840   -0.0000 F   0  0  0  0  0  0  0  0  0  0  0  0
   -7.7522   -4.3688   -0.0000 C   0  0  0  0  0  0  0  0  0  0  0  0
   -9.0581   -5.1048   -0.0000 Cl  0  0  0  0  0  0  0  0  0  0  0  0
  1  2  1  0  0  0  0
  2  3  2  0  0  0  0
  2  4  1  0  0  0  0
  3  5  1  0  0  0  0
  3  6  1  0  0  0  0
  4  7  2  0  0  0  0
  5  8  2  0  0  0  0
  5  9  1  0  0  0  0
  6 10  2  0  0  0  0
  7 11  1  0  0  0  0
  8 12  1  0  0  0  0
  9 13  1  0  0  0  0
  9 14  1  0  0  0  0
 11 15  2  0  0  0  0
 11 16  1  0  0  0  0
 13 17  1  0  0  0  0
 15 18  1  0  0  0  0
 16 19  2  0  0  0  0
 17 20  1  0  0  0  0
 17 21  1  0  0  0  0
 17 22  1  0  0  0  0
 18 23  2  0  0  0  0
 20 24  2  0  0  0  0
 20 25  1  0  0  0  0
 21 26  1  0  0  0  0
 24 27  1  0  0  0  0
 25 28  2  0  0  0  0
 26 29  1  0  0  0  0
 27 30  2  0  0  0  0
 30 31  1  0  0  0  0
  7 10  1  0  0  0  0
 12 13  2  0  0  0  0
 19 23  1  0  0  0  0
 22 26  1  0  0  0  0
 28 30  1  0  0  0  0
M  END
>  <MolRegNo>
1138085

>  <m>
=

>  <Value>
36000

>  <Unit>
nM

>  <Type>
IC50

>  <pValue>
4.44

>  <Ligand Efficiency>
0

>  <Binding Efficiency>
0

>  <Surface Efficiency>
0

>  <Assay Index>
583231

>  <Assay Category>


>  <Assay Organism>


>  <Target ID>
17045

>  <Target Name>
Cytochrome P450 3A4

>  <Target Organism>
Homo sapiens

>  <Target Description>
Target is a single protein chain

>  <Sequence Accession>
P08684

>  <Reference>
Bioorg Med Chem Lett 21 (7), 2141-2145 (2011)

>  <Pubmed ID>
21334894

>  <DOI>
10.1016/j.bmcl.2011.01.125

$$$$
1137610
Actelion Java MolfileCreator 1.0

 28 31  0  0  0  0  0  0  0  0999 V2000
    0.0000   -0.0000   -0.0000 Cl  0  0  0  0  0  0  0  0  0  0  0  0
   -0.4852    1.4318   -0.0000 C   0  0  0  0  0  0  0  0  0  0  0  0
   -1.9643    1.7394   -0.0000 C   0  0  0  0  0  0  0  0  0  0  0  0
    0.4970    2.5677   -0.0000 C   0  0  0  0  0  0  0  0  0  0  0  0
   -2.4494    3.1712   -0.0000 C   0  0  0  0  0  0  0  0  0  0  0  0
    0.0000    3.9877   -0.0000 C   0  0  0  0  0  0  0  0  0  0  0  0
   -1.4673    4.3072   -0.0000 C   0  0  0  0  0  0  0  0  0  0  0  0
   -1.9524    5.7271   -0.0000 C   0  0  0  0  0  0  0  0  0  0  0  0
   -1.1005    6.9578   -0.0000 N   0  0  0  0  0  0  0  0  0  0  0  0
   -3.3842    6.1886   -0.0000 C   0  0  0  0  0  0  0  0  0  0  0  0
   -1.9998    8.1647   -0.0000 N   0  0  0  0  0  0  0  0  0  0  0  0
   -3.4079    7.6914   -0.0000 C   0  0  0  0  0  0  0  0  0  0  0  0
   -4.6385    8.5670   -0.0000 C   0  0  0  0  0  0  0  0  0  0  0  0
   -4.6503   10.0698   -0.0000 O   0  0  0  0  0  0  0  0  0  0  0  0
   -5.9401    7.8334   -0.0000 N   0  0  0  0  0  0  0  0  0  0  0  0
   -5.9520    6.3543   -0.0000 C   0  0  0  0  0  0  0  0  0  0  0  0
   -7.2418    8.5907   -0.0000 C   0  0  0  0  0  0  0  0  0  0  0  0
   -7.2536    5.6206   -0.0000 C   0  0  0  0  0  0  0  0  0  0  0  0
   -8.5552    7.8571   -0.0000 C   0  0  0  0  0  0  0  0  0  0  0  0
   -8.5552    6.3779   -0.0000 N   0  0  0  0  0  0  0  0  0  0  0  0
   -9.8568    5.6443   -0.0000 C   0  0  0  0  0  0  0  0  0  0  0  0
  -11.1585    6.4016   -0.0000 C   0  0  0  0  0  0  0  0  0  0  0  0
   -9.8687    4.1534   -0.0000 C   0  0  0  0  0  0  0  0  0  0  0  0
  -11.1703    7.9044   -0.0000 O   0  0  0  0  0  0  0  0  0  0  0  0
  -12.4601    5.6680   -0.0000 C   0  0  0  0  0  0  0  0  0  0  0  0
  -11.1821    3.4197   -0.0000 C   0  0  0  0  0  0  0  0  0  0  0  0
  -12.4719    8.6617   -0.0000 C   0  0  0  0  0  0  0  0  0  0  0  0
  -12.4719    4.1770   -0.0000 C   0  0  0  0  0  0  0  0  0  0  0  0
  1  2  1  0  0  0  0
  2  3  2  0  0  0  0
  2  4  1  0  0  0  0
  3  5  1  0  0  0  0
  4  6  2  0  0  0  0
  5  7  2  0  0  0  0
  7  8  1  0  0  0  0
  8  9  2  0  0  0  0
  8 10  1  0  0  0  0
  9 11  1  0  0  0  0
 10 12  2  0  0  0  0
 12 13  1  0  0  0  0
 13 14  2  0  0  0  0
 13 15  1  0  0  0  0
 15 16  1  0  0  0  0
 15 17  1  0  0  0  0
 16 18  1  0  0  0  0
 17 19  1  0  0  0  0
 18 20  1  0  0  0  0
 20 21  1  0  0  0  0
 21 22  2  0  0  0  0
 21 23  1  0  0  0  0
 22 24  1  0  0  0  0
 22 25  1  0  0  0  0
 23 26  2  0  0  0  0
 24 27  1  0  0  0  0
 25 28  2  0  0  0  0
  6  7  1  0  0  0  0
 11 12  1  0  0  0  0
 19 20  1  0  0  0  0
 26 28  1  0  0  0  0
M  END
>  <MolRegNo>
1137610

>  <m>
=

>  <Value>
8000

>  <Unit>
nM

>  <Type>
IC50

>  <pValue>
5.1

>  <Ligand Efficiency>
0

>  <Binding Efficiency>
0

>  <Surface Efficiency>
0

>  <Assay Index>
582744

>  <Assay Category>


>  <Assay Organism>


>  <Target ID>
17045

>  <Target Name>
Cytochrome P450 3A4

>  <Target Organism>
Homo sapiens

>  <Target Description>
Target is a single protein chain

>  <Sequence Accession>
P08684

>  <Reference>
Bioorg Med Chem Lett 21 (7), 1991-1996 (2011)

>  <Pubmed ID>
21376585

>  <DOI>
10.1016/j.bmcl.2011.02.033

$$$$
1137475
Actelion Java MolfileCreator 1.0

 29 32  0  0  0  0  0  0  0  0999 V2000
    0.0000   -0.0000   -0.0000 Cl  0  0  0  0  0  0  0  0  0  0  0  0
   -0.4851    1.4316   -0.0000 C   0  0  0  0  0  0  0  0  0  0  0  0
   -1.9641    1.7393   -0.0000 C   0  0  0  0  0  0  0  0  0  0  0  0
    0.4969    2.5675   -0.0000 C   0  0  0  0  0  0  0  0  0  0  0  0
   -2.4492    3.1709   -0.0000 C   0  0  0  0  0  0  0  0  0  0  0  0
    0.0000    3.9873   -0.0000 C   0  0  0  0  0  0  0  0  0  0  0  0
   -1.4671    4.3067   -0.0000 C   0  0  0  0  0  0  0  0  0  0  0  0
   -1.9522    5.7265   -0.0000 C   0  0  0  0  0  0  0  0  0  0  0  0
   -1.1003    6.9570   -0.0000 N   0  0  0  0  0  0  0  0  0  0  0  0
   -3.3839    6.1880   -0.0000 C   0  0  0  0  0  0  0  0  0  0  0  0
   -1.9996    8.1639   -0.0000 N   0  0  0  0  0  0  0  0  0  0  0  0
   -3.4075    7.6906   -0.0000 C   0  0  0  0  0  0  0  0  0  0  0  0
   -1.5736    9.6073   -0.0000 C   0  0  0  0  0  0  0  0  0  0  0  0
   -4.6380    8.5661   -0.0000 C   0  0  0  0  0  0  0  0  0  0  0  0
   -4.6499   10.0688   -0.0000 O   0  0  0  0  0  0  0  0  0  0  0  0
   -5.9395    7.8326   -0.0000 N   0  0  0  0  0  0  0  0  0  0  0  0
   -5.9513    6.3536   -0.0000 C   0  0  0  0  0  0  0  0  0  0  0  0
   -7.2410    8.5898   -0.0000 C   0  0  0  0  0  0  0  0  0  0  0  0
   -7.2528    5.6201   -0.0000 C   0  0  0  0  0  0  0  0  0  0  0  0
   -8.5543    7.8562   -0.0000 C   0  0  0  0  0  0  0  0  0  0  0  0
   -8.5543    6.3773   -0.0000 N   0  0  0  0  0  0  0  0  0  0  0  0
   -9.8558    5.6437   -0.0000 C   0  0  0  0  0  0  0  0  0  0  0  0
  -11.1573    6.4009   -0.0000 C   0  0  0  0  0  0  0  0  0  0  0  0
   -9.8676    4.1529   -0.0000 C   0  0  0  0  0  0  0  0  0  0  0  0
  -11.1691    7.9036   -0.0000 O   0  0  0  0  0  0  0  0  0  0  0  0
  -12.4588    5.6674   -0.0000 C   0  0  0  0  0  0  0  0  0  0  0  0
  -11.1691    3.4194   -0.0000 C   0  0  0  0  0  0  0  0  0  0  0  0
  -12.4706    8.6608   -0.0000 C   0  0  0  0  0  0  0  0  0  0  0  0
  -12.4706    4.1766   -0.0000 C   0  0  0  0  0  0  0  0  0  0  0  0
  1  2  1  0  0  0  0
  2  3  2  0  0  0  0
  2  4  1  0  0  0  0
  3  5  1  0  0  0  0
  4  6  2  0  0  0  0
  5  7  2  0  0  0  0
  7  8  1  0  0  0  0
  8  9  2  0  0  0  0
  8 10  1  0  0  0  0
  9 11  1  0  0  0  0
 10 12  2  0  0  0  0
 11 13  1  0  0  0  0
 12 14  1  0  0  0  0
 14 15  2  0  0  0  0
 14 16  1  0  0  0  0
 16 17  1  0  0  0  0
 16 18  1  0  0  0  0
 17 19  1  0  0  0  0
 18 20  1  0  0  0  0
 19 21  1  0  0  0  0
 21 22  1  0  0  0  0
 22 23  2  0  0  0  0
 22 24  1  0  0  0  0
 23 25  1  0  0  0  0
 23 26  1  0  0  0  0
 24 27  2  0  0  0  0
 25 28  1  0  0  0  0
 26 29  2  0  0  0  0
  6  7  1  0  0  0  0
 11 12  1  0  0  0  0
 20 21  1  0  0  0  0
 27 29  1  0  0  0  0
M  END
>  <MolRegNo>
1137475

>  <m>
=

>  <Value>
12000

>  <Unit>
nM

>  <Type>
IC50

>  <pValue>
4.92

>  <Ligand Efficiency>
0

>  <Binding Efficiency>
0

>  <Surface Efficiency>
0

>  <Assay Index>
582744

>  <Assay Category>


>  <Assay Organism>


>  <Target ID>
17045

>  <Target Name>
Cytochrome P450 3A4

>  <Target Organism>
Homo sapiens

>  <Target Description>
Target is a single protein chain

>  <Sequence Accession>
P08684

>  <Reference>
Bioorg Med Chem Lett 21 (7), 1991-1996 (2011)

>  <Pubmed ID>
21376585

>  <DOI>
10.1016/j.bmcl.2011.02.033

$$$$
1137476
Actelion Java MolfileCreator 1.0

 29 32  0  0  0  0  0  0  0  0999 V2000
    0.0000   -0.0000   -0.0000 Cl  0  0  0  0  0  0  0  0  0  0  0  0
   -0.4854    1.4324   -0.0000 C   0  0  0  0  0  0  0  0  0  0  0  0
   -1.9651    1.7402   -0.0000 C   0  0  0  0  0  0  0  0  0  0  0  0
    0.4972    2.5689   -0.0000 C   0  0  0  0  0  0  0  0  0  0  0  0
   -2.4505    3.1726   -0.0000 C   0  0  0  0  0  0  0  0  0  0  0  0
    0.0000    3.9894   -0.0000 C   0  0  0  0  0  0  0  0  0  0  0  0
   -1.4679    4.3090   -0.0000 C   0  0  0  0  0  0  0  0  0  0  0  0
   -1.9533    5.7296   -0.0000 C   0  0  0  0  0  0  0  0  0  0  0  0
   -1.1009    6.9608   -0.0000 N   0  0  0  0  0  0  0  0  0  0  0  0
   -3.3857    6.1913   -0.0000 C   0  0  0  0  0  0  0  0  0  0  0  0
   -2.0006    8.1682   -0.0000 N   0  0  0  0  0  0  0  0  0  0  0  0
    0.3788    6.9844   -0.0000 C   0  0  0  0  0  0  0  0  0  0  0  0
   -3.4094    7.6947   -0.0000 C   0  0  0  0  0  0  0  0  0  0  0  0
   -4.6405    8.5707   -0.0000 C   0  0  0  0  0  0  0  0  0  0  0  0
   -4.6523   10.0742   -0.0000 O   0  0  0  0  0  0  0  0  0  0  0  0
   -5.9427    7.8368   -0.0000 N   0  0  0  0  0  0  0  0  0  0  0  0
   -5.9545    6.3570   -0.0000 C   0  0  0  0  0  0  0  0  0  0  0  0
   -7.2449    8.5944   -0.0000 C   0  0  0  0  0  0  0  0  0  0  0  0
   -7.2567    5.6231   -0.0000 C   0  0  0  0  0  0  0  0  0  0  0  0
   -8.5589    7.8605   -0.0000 C   0  0  0  0  0  0  0  0  0  0  0  0
   -8.5589    6.3807   -0.0000 N   0  0  0  0  0  0  0  0  0  0  0  0
   -9.8611    5.6467   -0.0000 C   0  0  0  0  0  0  0  0  0  0  0  0
  -11.1633    6.4044   -0.0000 C   0  0  0  0  0  0  0  0  0  0  0  0
   -9.8729    4.1551   -0.0000 C   0  0  0  0  0  0  0  0  0  0  0  0
  -11.1751    7.9078   -0.0000 O   0  0  0  0  0  0  0  0  0  0  0  0
  -12.4654    5.6704   -0.0000 C   0  0  0  0  0  0  0  0  0  0  0  0
  -11.1869    3.4212   -0.0000 C   0  0  0  0  0  0  0  0  0  0  0  0
  -12.4773    8.6654   -0.0000 C   0  0  0  0  0  0  0  0  0  0  0  0
  -12.4773    4.1788   -0.0000 C   0  0  0  0  0  0  0  0  0  0  0  0
  1  2  1  0  0  0  0
  2  3  2  0  0  0  0
  2  4  1  0  0  0  0
  3  5  1  0  0  0  0
  4  6  2  0  0  0  0
  5  7  2  0  0  0  0
  7  8  1  0  0  0  0
  8  9  1  0  0  0  0
  8 10  2  0  0  0  0
  9 11  1  0  0  0  0
  9 12  1  0  0  0  0
 10 13  1  0  0  0  0
 13 14  1  0  0  0  0
 14 15  2  0  0  0  0
 14 16  1  0  0  0  0
 16 17  1  0  0  0  0
 16 18  1  0  0  0  0
 17 19  1  0  0  0  0
 18 20  1  0  0  0  0
 19 21  1  0  0  0  0
 21 22  1  0  0  0  0
 22 23  2  0  0  0  0
 22 24  1  0  0  0  0
 23 25  1  0  0  0  0
 23 26  1  0  0  0  0
 24 27  2  0  0  0  0
 25 28  1  0  0  0  0
 26 29  2  0  0  0  0
  6  7  1  0  0  0  0
 11 13  2  0  0  0  0
 20 21  1  0  0  0  0
 27 29  1  0  0  0  0
M  END
>  <MolRegNo>
1137476

>  <m>
=

>  <Value>
20000

>  <Unit>
nM

>  <Type>
IC50

>  <pValue>
4.7

>  <Ligand Efficiency>
0

>  <Binding Efficiency>
0

>  <Surface Efficiency>
0

>  <Assay Index>
582744

>  <Assay Category>


>  <Assay Organism>


>  <Target ID>
17045

>  <Target Name>
Cytochrome P450 3A4

>  <Target Organism>
Homo sapiens

>  <Target Description>
Target is a single protein chain

>  <Sequence Accession>
P08684

>  <Reference>
Bioorg Med Chem Lett 21 (7), 1991-1996 (2011)

>  <Pubmed ID>
21376585

>  <DOI>
10.1016/j.bmcl.2011.02.033

$$$$
6760
Actelion Java MolfileCreator 1.0

 29 32  0  0  1  0  0  0  0  0999 V2000
    0.0000   -0.0000   -0.0000 O   0  0  0  0  0  0  0  0  0  0  0  0
    1.2992   -0.7285   -0.0000 C   0  0  0  0  0  0  0  0  0  0  0  0
    2.5620    0.0243   -0.0000 N   0  0  0  0  0  0  0  0  0  0  0  0
    1.2628   -2.1491   -0.0000 C   0  0  0  0  0  0  0  0  0  0  0  0
    2.5498    1.4085   -0.0000 C   0  0  0  0  0  0  0  0  0  0  0  0
    2.5741   -2.9019   -0.0000 C   0  0  0  0  0  0  0  0  0  0  0  0
   -0.0607   -2.9019   -0.0000 C   0  0  0  0  0  0  0  0  0  0  0  0
    3.8369    2.1491   -0.0000 C   0  0  0  0  0  0  0  0  0  0  0  0
    1.2628    2.1491   -0.0000 C   0  0  0  0  0  0  0  0  0  0  0  0
    3.8490   -2.1370   -0.0000 O   0  0  0  0  0  0  0  0  0  0  0  0
    2.5620   -4.4318   -0.0000 C   0  0  0  0  0  0  0  0  0  0  0  0
   -0.0729   -4.4318   -0.0000 C   0  0  0  0  0  0  0  0  0  0  0  0
   -1.3963   -2.1249   -0.0000 C   0  0  0  0  0  0  0  0  0  0  0  0
    5.1482    1.3963   -0.0000 C   0  0  0  0  0  0  0  0  0  0  0  0
    3.8247    3.6547   -0.0000 C   0  0  0  0  0  0  0  0  0  0  0  0
   -0.0607    1.4328   -0.0000 C   0  0  0  0  0  0  0  0  0  0  0  0
    1.2263   -5.1846   -0.0000 N   0  0  0  0  0  0  0  0  0  0  0  0
    3.8612   -5.1846   -0.0000 C   0  0  0  0  0  0  0  0  0  0  0  0
   -1.4085   -5.1846   -0.0000 C   0  0  0  0  0  0  0  0  0  0  0  0
   -2.7198   -2.8777   -0.0000 C   0  0  0  0  0  0  0  0  0  0  0  0
    6.3988    2.1734   -0.0000 C   0  0  0  0  0  0  0  0  0  0  0  0
    5.1361    4.4440   -0.0000 C   0  0  0  0  0  0  0  0  0  0  0  0
    5.1604   -4.4075   -0.0000 C   0  0  0  0  0  0  0  0  0  0  0  0
    3.8490   -6.6781   -0.0000 C   0  0  0  0  0  0  0  0  0  0  0  0
   -2.7320   -4.4075   -0.0000 C   0  0  0  0  0  0  0  0  0  0  0  0
    6.3867    3.6790   -0.0000 C   0  0  0  0  0  0  0  0  0  0  0  0
    6.4474   -5.1604   -0.0000 C   0  0  0  0  0  0  0  0  0  0  0  0
    5.1482   -7.4188   -0.0000 C   0  0  0  0  0  0  0  0  0  0  0  0
    6.4353   -6.6538   -0.0000 C   0  0  0  0  0  0  0  0  0  0  0  0
  1  2  2  0  0  0  0
  2  3  1  0  0  0  0
  2  4  1  0  0  0  0
  5  3  1  1  0  0  0
  4  6  2  0  0  0  0
  4  7  1  0  0  0  0
  5  8  1  0  0  0  0
  5  9  1  0  0  0  0
  6 10  1  0  0  0  0
  6 11  1  0  0  0  0
  7 12  1  0  0  0  0
  7 13  2  0  0  0  0
  8 14  2  0  0  0  0
  8 15  1  0  0  0  0
  9 16  1  0  0  0  0
 11 17  2  0  0  0  0
 11 18  1  0  0  0  0
 12 19  2  0  0  0  0
 13 20  1  0  0  0  0
 14 21  1  0  0  0  0
 15 22  2  0  0  0  0
 18 23  2  0  0  0  0
 18 24  1  0  0  0  0
 19 25  1  0  0  0  0
 21 26  2  0  0  0  0
 23 27  1  0  0  0  0
 24 28  2  0  0  0  0
 27 29  2  0  0  0  0
 12 17  1  0  0  0  0
 20 25  2  0  0  0  0
 22 26  1  0  0  0  0
 28 29  1  0  0  0  0
M  END
>  <MolRegNo>
6760

>  <m>
=

>  <Value>
4000

>  <Unit>
nM

>  <Type>
IC50

>  <pValue>
5.4

>  <Ligand Efficiency>
0

>  <Binding Efficiency>
0

>  <Surface Efficiency>
0

>  <Assay Index>
582744

>  <Assay Category>


>  <Assay Organism>


>  <Target ID>
17045

>  <Target Name>
Cytochrome P450 3A4

>  <Target Organism>
Homo sapiens

>  <Target Description>
Target is a single protein chain

>  <Sequence Accession>
P08684

>  <Reference>
Bioorg Med Chem Lett 21 (7), 1991-1996 (2011)

>  <Pubmed ID>
21376585

>  <DOI>
10.1016/j.bmcl.2011.02.033

$$$$
254086
Actelion Java MolfileCreator 1.0

 42 46  0  0  1  0  0  0  0  0999 V2000
    0.0000   -0.0000   -0.0000 Cl  0  0  0  0  0  0  0  0  0  0  0  0
   -1.2625    0.8116   -0.0000 C   0  0  0  0  0  0  0  0  0  0  0  0
   -2.5379    0.1159   -0.0000 C   0  0  0  0  0  0  0  0  0  0  0  0
   -1.2754    2.3447   -0.0000 C   0  0  0  0  0  0  0  0  0  0  0  0
   -2.5250   -1.3656   -0.0000 Cl  0  0  0  0  0  0  0  0  0  0  0  0
   -3.8262    0.8374   -0.0000 C   0  0  0  0  0  0  0  0  0  0  0  0
   -2.5508    3.1177   -0.0000 C   0  0  0  0  0  0  0  0  0  0  0  0
   -3.8391    2.3705   -0.0000 C   0  0  0  0  0  0  0  0  0  0  0  0
   -2.5637    4.7667   -0.0000 C   0  0  0  0  0  0  0  0  0  0  0  0
   -3.8520    4.0452   -0.0000 C   0  0  0  0  0  0  0  0  0  0  0  0
   -2.5766    6.2869   -0.0000 C   0  0  0  0  0  0  0  0  0  0  0  0
   -1.3141    3.9937   -0.0000 C   0  0  0  0  0  0  0  0  0  0  0  0
   -5.1403    4.8697   -0.0000 N   0  0  0  0  0  0  0  0  0  0  0  0
   -3.8649    7.0856   -0.0000 C   0  0  0  0  0  0  0  0  0  0  0  0
   -0.0515    4.7409   -0.0000 C   0  0  0  0  0  0  0  0  0  0  0  0
   -6.4414    4.1483   -0.0000 C   0  0  0  0  0  0  0  0  0  0  0  0
   -5.1532    6.2997   -0.0000 C   0  0  0  0  0  0  0  0  0  0  0  0
    1.2625    4.0195   -0.0000 C   0  0  0  0  0  0  0  0  0  0  0  0
   -6.4543    2.6796   -0.0000 O   0  0  0  0  0  0  0  0  0  0  0  0
   -7.7555    4.8955   -0.0000 C   0  0  0  0  0  0  0  0  0  0  0  0
    2.6023    4.8182   -0.0000 N   0  0  0  0  0  0  0  0  0  0  0  0
   -7.7684    6.4028   -0.0000 C   0  0  0  0  0  0  0  0  0  0  0  0
   -9.0953    4.0968   -0.0000 C   0  0  0  0  0  0  0  0  0  0  0  0
    2.5895    6.2997   -0.0000 C   0  0  0  0  0  0  0  0  0  0  0  0
    3.8906    4.0452   -0.0000 C   0  0  0  0  0  0  0  0  0  0  0  0
   -9.1082    7.1758   -0.0000 C   0  0  0  0  0  0  0  0  0  0  0  0
  -10.3965    4.8697   -0.0000 C   0  0  0  0  0  0  0  0  0  0  0  0
    3.8778    7.0469   -0.0000 C   0  0  0  0  0  0  0  0  0  0  0  0
    5.1532    4.7924   -0.0000 C   0  0  0  0  0  0  0  0  0  0  0  0
  -10.4094    6.4028   -0.0000 C   0  0  0  0  0  0  0  0  0  0  0  0
    5.1403    6.3641   -0.0000 C   0  0  0  0  0  0  0  0  0  0  0  0
    6.6733    5.7458   -0.0000 N   0  0  0  0  0  0  0  0  0  0  0  0
    5.0114    7.8199   -0.0000 C   0  0  0  0  0  0  0  0  0  0  0  0
    7.8714    6.4930   -0.0000 C   0  0  0  0  0  0  0  0  0  0  0  0
    6.6605    4.2900   -0.0000 C   0  0  0  0  0  0  0  0  0  0  0  0
    3.7103    8.5542   -0.0000 C   0  0  0  0  0  0  0  0  0  0  0  0
    6.2740    8.5542   -0.0000 C   0  0  0  0  0  0  0  0  0  0  0  0
    7.8586    7.9101   -0.0000 O   0  0  0  0  0  0  0  0  0  0  0  0
    9.1597    5.7715   -0.0000 C   0  0  0  0  0  0  0  0  0  0  0  0
    3.6974   10.0615   -0.0000 C   0  0  0  0  0  0  0  0  0  0  0  0
    6.2611   10.0615   -0.0000 C   0  0  0  0  0  0  0  0  0  0  0  0
    4.9986   10.8216   -0.0000 C   0  0  0  0  0  0  0  0  0  0  0  0
  1  2  1  0  0  0  0
  2  3  2  0  0  0  0
  2  4  1  0  0  0  0
  3  5  1  0  0  0  0
  3  6  1  0  0  0  0
  4  7  2  0  0  0  0
  6  8  2  0  0  0  0
  9  7  1  6  0  0  0
  9 10  1  0  0  0  0
  9 11  1  0  0  0  0
  9 12  1  0  0  0  0
 10 13  1  0  0  0  0
 11 14  1  0  0  0  0
 12 15  1  0  0  0  0
 13 16  1  0  0  0  0
 13 17  1  0  0  0  0
 15 18  1  0  0  0  0
 16 19  2  0  0  0  0
 16 20  1  0  0  0  0
 18 21  1  0  0  0  0
 20 22  2  0  0  0  0
 20 23  1  0  0  0  0
 21 24  1  0  0  0  0
 21 25  1  0  0  0  0
 22 26  1  0  0  0  0
 23 27  2  0  0  0  0
 24 28  1  0  0  0  0
 25 29  1  0  0  0  0
 26 30  2  0  0  0  0
 28 31  1  0  0  0  0
 31 32  1  0  0  0  0
 31 33  1  0  0  0  0
 32 34  1  0  0  0  0
 32 35  1  0  0  0  0
 33 36  2  0  0  0  0
 33 37  1  0  0  0  0
 34 38  2  0  0  0  0
 34 39  1  0  0  0  0
 36 40  1  0  0  0  0
 37 41  2  0  0  0  0
 40 42  2  0  0  0  0
  7  8  1  0  0  0  0
 14 17  1  0  0  0  0
 27 30  1  0  0  0  0
 29 31  1  0  0  0  0
 41 42  1  0  0  0  0
M  END
>  <MolRegNo>
254086

>  <m>
=

>  <Value>
1000

>  <Unit>
nM

>  <Type>
IC50

>  <pValue>
6

>  <Ligand Efficiency>
0

>  <Binding Efficiency>
0

>  <Surface Efficiency>
0

>  <Assay Index>
582744

>  <Assay Category>


>  <Assay Organism>


>  <Target ID>
17045

>  <Target Name>
Cytochrome P450 3A4

>  <Target Organism>
Homo sapiens

>  <Target Description>
Target is a single protein chain

>  <Sequence Accession>
P08684

>  <Reference>
Bioorg Med Chem Lett 21 (7), 1991-1996 (2011)

>  <Pubmed ID>
21376585

>  <DOI>
10.1016/j.bmcl.2011.02.033

$$$$
1138802
Actelion Java MolfileCreator 1.0

 51 56  0  0  0  0  0  0  0  0999 V2000
    0.0000   -0.0000   -0.0000 Cl  0  0  0  0  0  0  0  0  0  0  0  0
    1.2891    0.7639   -0.0000 C   0  0  0  0  0  0  0  0  0  0  0  0
    1.2771    2.2798   -0.0000 C   0  0  0  0  0  0  0  0  0  0  0  0
    2.5782    0.0239   -0.0000 C   0  0  0  0  0  0  0  0  0  0  0  0
   -0.0358    3.0437   -0.0000 O   0  0  0  0  0  0  0  0  0  0  0  0
    2.5543    3.0437   -0.0000 C   0  0  0  0  0  0  0  0  0  0  0  0
    3.8672    0.7878   -0.0000 C   0  0  0  0  0  0  0  0  0  0  0  0
   -1.3488    2.3036   -0.0000 C   0  0  0  0  0  0  0  0  0  0  0  0
    2.5304    4.5595   -0.0000 Cl  0  0  0  0  0  0  0  0  0  0  0  0
    3.8434    2.3156   -0.0000 C   0  0  0  0  0  0  0  0  0  0  0  0
    5.1683    0.0477   -0.0000 C   0  0  0  0  0  0  0  0  0  0  0  0
   -2.6617    3.0675   -0.0000 C   0  0  0  0  0  0  0  0  0  0  0  0
   -3.9747    2.3275   -0.0000 O   0  0  0  0  0  0  0  0  0  0  0  0
   -3.9866    0.8355   -0.0000 C   0  0  0  0  0  0  0  0  0  0  0  0
   -5.2996    0.0955   -0.0000 C   0  0  0  0  0  0  0  0  0  0  0  0
   -2.6975    0.0955   -0.0000 C   0  0  0  0  0  0  0  0  0  0  0  0
   -5.3115   -1.4084   -0.0000 C   0  0  0  0  0  0  0  0  0  0  0  0
   -2.7095   -1.4084   -0.0000 C   0  0  0  0  0  0  0  0  0  0  0  0
   -4.0224   -2.1485   -0.0000 C   0  0  0  0  0  0  0  0  0  0  0  0
   -4.0343   -3.6405   -0.0000 C   0  0  0  0  0  0  0  0  0  0  0  0
   -2.7453   -4.3805   -0.0000 C   0  0  0  0  0  0  0  0  0  0  0  0
   -5.3592   -4.3805   -0.0000 C   0  0  0  0  0  0  0  0  0  0  0  0
   -1.4562   -3.6166   -0.0000 C   0  0  0  0  0  0  0  0  0  0  0  0
   -2.7691   -5.8844   -0.0000 C   0  0  0  0  0  0  0  0  0  0  0  0
   -5.3712   -5.8725   -0.0000 C   0  0  0  0  0  0  0  0  0  0  0  0
   -1.4681   -2.1007   -0.0000 O   0  0  0  0  0  0  0  0  0  0  0  0
   -0.1671   -4.3566   -0.0000 N   0  0  0  0  0  0  0  0  0  0  0  0
   -4.0940   -6.6244   -0.0000 N   0  0  0  0  0  0  0  0  0  0  0  0
   -0.1790   -5.8486   -0.0000 C   0  0  0  0  0  0  0  0  0  0  0  0
    1.1220   -3.5927   -0.0000 C   0  0  0  0  0  0  0  0  0  0  0  0
   -0.9429   -7.1496   -0.0000 C   0  0  0  0  0  0  0  0  0  0  0  0
    0.5610   -7.1496   -0.0000 C   0  0  0  0  0  0  0  0  0  0  0  0
    2.4111   -4.3327   -0.0000 C   0  0  0  0  0  0  0  0  0  0  0  0
    3.7001   -3.5688   -0.0000 C   0  0  0  0  0  0  0  0  0  0  0  0
    2.3872   -5.8247   -0.0000 C   0  0  0  0  0  0  0  0  0  0  0  0
    4.9892   -4.3089   -0.0000 C   0  0  0  0  0  0  0  0  0  0  0  0
    3.6763   -6.5648   -0.0000 C   0  0  0  0  0  0  0  0  0  0  0  0
    6.2783   -3.5450   -0.0000 O   0  0  0  0  0  0  0  0  0  0  0  0
    4.9773   -5.8128   -0.0000 C   0  0  0  0  0  0  0  0  0  0  0  0
    3.6643   -8.0568   -0.0000 C   0  0  0  0  0  0  0  0  0  0  0  0
    7.5674   -4.2850   -0.0000 C   0  0  0  0  0  0  0  0  0  0  0  0
    4.9534   -8.7968   -0.0000 C   0  0  0  0  0  0  0  0  0  0  0  0
    8.8565   -3.5092   -0.0000 C   0  0  0  0  0  0  0  0  0  0  0  0
    6.2425   -8.0329   -0.0000 C   0  0  0  0  0  0  0  0  0  0  0  0
    8.0806   -2.1843   -0.0000 C   0  0  0  0  0  0  0  0  0  0  0  0
    9.5965   -2.1843   -0.0000 C   0  0  0  0  0  0  0  0  0  0  0  0
   10.1575   -4.2492   -0.0000 C   0  0  0  0  0  0  0  0  0  0  0  0
    7.5316   -8.7729   -0.0000 O   0  0  0  0  0  0  0  0  0  0  0  0
   11.4466   -3.4853   -0.0000 C   0  0  0  0  0  0  0  0  0  0  0  0
    8.8207   -8.0090   -0.0000 C   0  0  0  0  0  0  0  0  0  0  0  0
   12.7237   -2.7214   -0.0000 N   0  0  0  0  0  0  0  0  0  0  0  0
  1  2  1  0  0  0  0
  2  3  2  0  0  0  0
  2  4  1  0  0  0  0
  3  5  1  0  0  0  0
  3  6  1  0  0  0  0
  4  7  2  0  0  0  0
  5  8  1  0  0  0  0
  6  9  1  0  0  0  0
  6 10  2  0  0  0  0
  7 11  1  0  0  0  0
  8 12  1  0  0  0  0
 12 13  1  0  0  0  0
 13 14  1  0  0  0  0
 14 15  2  0  0  0  0
 14 16  1  0  0  0  0
 15 17  1  0  0  0  0
 16 18  2  0  0  0  0
 17 19  2  0  0  0  0
 20 19  1  6  0  0  0
 20 21  1  0  0  0  0
 20 22  1  0  0  0  0
 21 23  1  1  0  0  0
 21 24  1  0  0  0  0
 22 25  1  0  0  0  0
 23 26  2  0  0  0  0
 23 27  1  0  0  0  0
 24 28  1  0  0  0  0
 27 29  1  0  0  0  0
 27 30  1  0  0  0  0
 29 31  1  0  0  0  0
 29 32  1  0  0  0  0
 30 33  1  0  0  0  0
 33 34  2  0  0  0  0
 33 35  1  0  0  0  0
 34 36  1  0  0  0  0
 35 37  2  0  0  0  0
 36 38  1  0  0  0  0
 36 39  2  0  0  0  0
 37 40  1  0  0  0  0
 38 41  1  0  0  0  0
 40 42  1  0  0  0  0
 41 43  1  0  0  0  0
 42 44  1  0  0  0  0
 43 45  1  0  0  0  0
 43 46  1  0  0  0  0
 43 47  1  0  0  0  0
 44 48  1  0  0  0  0
 47 49  1  0  0  0  0
 48 50  1  0  0  0  0
 49 51  3  0  0  0  0
  7 10  1  0  0  0  0
 18 19  1  0  0  0  0
 25 28  1  0  0  0  0
 31 32  1  0  0  0  0
 37 39  1  0  0  0  0
 45 46  1  0  0  0  0
M  END
>  <MolRegNo>
1138802

>  <m>
=

>  <Value>
19600

>  <Unit>
nM

>  <Type>
IC50

>  <pValue>
4.71

>  <Ligand Efficiency>
0

>  <Binding Efficiency>
0

>  <Surface Efficiency>
0

>  <Assay Index>
583711

>  <Assay Category>


>  <Assay Organism>
Homo sapiens

>  <Target ID>
17045

>  <Target Name>
Cytochrome P450 3A4

>  <Target Organism>
Homo sapiens

>  <Target Description>
Target is a single protein chain

>  <Sequence Accession>
P08684

>  <Reference>
Bioorg Med Chem Lett 21 (8), 2430-2436 (2011)

>  <Pubmed ID>
21429746

>  <DOI>
10.1016/j.bmcl.2011.02.067

$$$$
1138803
Actelion Java MolfileCreator 1.0

 48 52  0  0  0  0  0  0  0  0999 V2000
    0.0000   -0.0000   -0.0000 Cl  0  0  0  0  0  0  0  0  0  0  0  0
    1.2906    0.7648   -0.0000 C   0  0  0  0  0  0  0  0  0  0  0  0
    1.2787    2.2825   -0.0000 C   0  0  0  0  0  0  0  0  0  0  0  0
    2.5813    0.0239   -0.0000 C   0  0  0  0  0  0  0  0  0  0  0  0
   -0.0359    3.0473   -0.0000 O   0  0  0  0  0  0  0  0  0  0  0  0
    2.5574    3.0593   -0.0000 C   0  0  0  0  0  0  0  0  0  0  0  0
    3.8719    0.7887   -0.0000 C   0  0  0  0  0  0  0  0  0  0  0  0
   -1.3504    2.3064   -0.0000 C   0  0  0  0  0  0  0  0  0  0  0  0
    2.5335    4.5770   -0.0000 Cl  0  0  0  0  0  0  0  0  0  0  0  0
    3.8480    2.3303   -0.0000 C   0  0  0  0  0  0  0  0  0  0  0  0
    5.1745    0.0478   -0.0000 C   0  0  0  0  0  0  0  0  0  0  0  0
   -2.6649    3.0712   -0.0000 C   0  0  0  0  0  0  0  0  0  0  0  0
   -3.9794    2.3303   -0.0000 O   0  0  0  0  0  0  0  0  0  0  0  0
   -3.9914    0.8365   -0.0000 C   0  0  0  0  0  0  0  0  0  0  0  0
   -5.3059    0.0956   -0.0000 C   0  0  0  0  0  0  0  0  0  0  0  0
   -2.7008    0.0956   -0.0000 C   0  0  0  0  0  0  0  0  0  0  0  0
   -5.3179   -1.3982   -0.0000 C   0  0  0  0  0  0  0  0  0  0  0  0
   -2.7127   -1.4101   -0.0000 C   0  0  0  0  0  0  0  0  0  0  0  0
   -4.0273   -2.1391   -0.0000 C   0  0  0  0  0  0  0  0  0  0  0  0
   -4.0392   -3.6329   -0.0000 C   0  0  0  0  0  0  0  0  0  0  0  0
   -2.7486   -4.3738   -0.0000 C   0  0  0  0  0  0  0  0  0  0  0  0
   -5.3657   -4.3738   -0.0000 C   0  0  0  0  0  0  0  0  0  0  0  0
   -1.4579   -3.6090   -0.0000 C   0  0  0  0  0  0  0  0  0  0  0  0
   -2.7725   -5.8795   -0.0000 C   0  0  0  0  0  0  0  0  0  0  0  0
   -5.3776   -5.8676   -0.0000 C   0  0  0  0  0  0  0  0  0  0  0  0
   -1.4699   -2.0913   -0.0000 O   0  0  0  0  0  0  0  0  0  0  0  0
   -0.1673   -4.3499   -0.0000 N   0  0  0  0  0  0  0  0  0  0  0  0
   -4.0990   -6.6205   -0.0000 N   0  0  0  0  0  0  0  0  0  0  0  0
   -0.1793   -5.8437   -0.0000 C   0  0  0  0  0  0  0  0  0  0  0  0
    1.1233   -3.5851   -0.0000 C   0  0  0  0  0  0  0  0  0  0  0  0
   -0.9441   -7.1343   -0.0000 C   0  0  0  0  0  0  0  0  0  0  0  0
    0.5617   -7.1343   -0.0000 C   0  0  0  0  0  0  0  0  0  0  0  0
    2.4140   -4.3260   -0.0000 C   0  0  0  0  0  0  0  0  0  0  0  0
    3.7046   -3.5612   -0.0000 C   0  0  0  0  0  0  0  0  0  0  0  0
    2.3901   -5.8198   -0.0000 C   0  0  0  0  0  0  0  0  0  0  0  0
    4.9952   -4.3021   -0.0000 C   0  0  0  0  0  0  0  0  0  0  0  0
    3.6807   -6.5607   -0.0000 C   0  0  0  0  0  0  0  0  0  0  0  0
    6.2859   -3.5373   -0.0000 O   0  0  0  0  0  0  0  0  0  0  0  0
    4.9833   -5.8078   -0.0000 C   0  0  0  0  0  0  0  0  0  0  0  0
    3.6687   -8.0545   -0.0000 C   0  0  0  0  0  0  0  0  0  0  0  0
    7.5765   -4.2782   -0.0000 C   0  0  0  0  0  0  0  0  0  0  0  0
    4.9594   -8.7954   -0.0000 C   0  0  0  0  0  0  0  0  0  0  0  0
    8.8671   -3.5134   -0.0000 C   0  0  0  0  0  0  0  0  0  0  0  0
    6.2500   -8.0306   -0.0000 C   0  0  0  0  0  0  0  0  0  0  0  0
   10.1578   -4.2543   -0.0000 O   0  0  0  0  0  0  0  0  0  0  0  0
    7.5406   -8.7715   -0.0000 O   0  0  0  0  0  0  0  0  0  0  0  0
   11.4484   -3.4895   -0.0000 C   0  0  0  0  0  0  0  0  0  0  0  0
    8.8313   -8.0067   -0.0000 C   0  0  0  0  0  0  0  0  0  0  0  0
  1  2  1  0  0  0  0
  2  3  2  0  0  0  0
  2  4  1  0  0  0  0
  3  5  1  0  0  0  0
  3  6  1  0  0  0  0
  4  7  2  0  0  0  0
  5  8  1  0  0  0  0
  6  9  1  0  0  0  0
  6 10  2  0  0  0  0
  7 11  1  0  0  0  0
  8 12  1  0  0  0  0
 12 13  1  0  0  0  0
 13 14  1  0  0  0  0
 14 15  2  0  0  0  0
 14 16  1  0  0  0  0
 15 17  1  0  0  0  0
 16 18  2  0  0  0  0
 17 19  2  0  0  0  0
 20 19  1  6  0  0  0
 20 21  1  0  0  0  0
 20 22  1  0  0  0  0
 21 23  1  1  0  0  0
 21 24  1  0  0  0  0
 22 25  1  0  0  0  0
 23 26  2  0  0  0  0
 23 27  1  0  0  0  0
 24 28  1  0  0  0  0
 27 29  1  0  0  0  0
 27 30  1  0  0  0  0
 29 31  1  0  0  0  0
 29 32  1  0  0  0  0
 30 33  1  0  0  0  0
 33 34  2  0  0  0  0
 33 35  1  0  0  0  0
 34 36  1  0  0  0  0
 35 37  2  0  0  0  0
 36 38  1  0  0  0  0
 36 39  2  0  0  0  0
 37 40  1  0  0  0  0
 38 41  1  0  0  0  0
 40 42  1  0  0  0  0
 41 43  1  0  0  0  0
 42 44  1  0  0  0  0
 43 45  1  0  0  0  0
 44 46  1  0  0  0  0
 45 47  1  0  0  0  0
 46 48  1  0  0  0  0
  7 10  1  0  0  0  0
 18 19  1  0  0  0  0
 25 28  1  0  0  0  0
 31 32  1  0  0  0  0
 37 39  1  0  0  0  0
M  END
>  <MolRegNo>
1138803

>  <m>
=

>  <Value>
21600

>  <Unit>
nM

>  <Type>
IC50

>  <pValue>
4.67

>  <Ligand Efficiency>
0

>  <Binding Efficiency>
0

>  <Surface Efficiency>
0

>  <Assay Index>
583711

>  <Assay Category>


>  <Assay Organism>
Homo sapiens

>  <Target ID>
17045

>  <Target Name>
Cytochrome P450 3A4

>  <Target Organism>
Homo sapiens

>  <Target Description>
Target is a single protein chain

>  <Sequence Accession>
P08684

>  <Reference>
Bioorg Med Chem Lett 21 (8), 2430-2436 (2011)

>  <Pubmed ID>
21429746

>  <DOI>
10.1016/j.bmcl.2011.02.067

$$$$
1138804
Actelion Java MolfileCreator 1.0

 49 53  0  0  0  0  0  0  0  0999 V2000
    0.0000   -0.0000   -0.0000 Cl  0  0  0  0  0  0  0  0  0  0  0  0
    1.2907    0.7649   -0.0000 C   0  0  0  0  0  0  0  0  0  0  0  0
    1.2788    2.2827   -0.0000 C   0  0  0  0  0  0  0  0  0  0  0  0
    2.5815    0.0239   -0.0000 C   0  0  0  0  0  0  0  0  0  0  0  0
   -0.0359    3.0476   -0.0000 O   0  0  0  0  0  0  0  0  0  0  0  0
    2.5576    3.0476   -0.0000 C   0  0  0  0  0  0  0  0  0  0  0  0
    3.8722    0.7888   -0.0000 C   0  0  0  0  0  0  0  0  0  0  0  0
   -1.3505    2.3066   -0.0000 C   0  0  0  0  0  0  0  0  0  0  0  0
    2.5337    4.5654   -0.0000 Cl  0  0  0  0  0  0  0  0  0  0  0  0
    3.8483    2.3185   -0.0000 C   0  0  0  0  0  0  0  0  0  0  0  0
    5.1749    0.0478   -0.0000 C   0  0  0  0  0  0  0  0  0  0  0  0
   -2.6651    3.0715   -0.0000 C   0  0  0  0  0  0  0  0  0  0  0  0
   -3.9798    2.3305   -0.0000 O   0  0  0  0  0  0  0  0  0  0  0  0
   -3.9917    0.8366   -0.0000 C   0  0  0  0  0  0  0  0  0  0  0  0
   -5.3064    0.0956   -0.0000 C   0  0  0  0  0  0  0  0  0  0  0  0
   -2.7010    0.0956   -0.0000 C   0  0  0  0  0  0  0  0  0  0  0  0
   -5.3183   -1.4103   -0.0000 C   0  0  0  0  0  0  0  0  0  0  0  0
   -2.7129   -1.4103   -0.0000 C   0  0  0  0  0  0  0  0  0  0  0  0
   -4.0276   -2.1512   -0.0000 C   0  0  0  0  0  0  0  0  0  0  0  0
   -4.0395   -3.6451   -0.0000 C   0  0  0  0  0  0  0  0  0  0  0  0
   -2.7488   -4.3861   -0.0000 C   0  0  0  0  0  0  0  0  0  0  0  0
   -5.3661   -4.3861   -0.0000 C   0  0  0  0  0  0  0  0  0  0  0  0
   -1.4581   -3.6212   -0.0000 C   0  0  0  0  0  0  0  0  0  0  0  0
   -2.7727   -5.8920   -0.0000 C   0  0  0  0  0  0  0  0  0  0  0  0
   -5.3781   -5.8800   -0.0000 C   0  0  0  0  0  0  0  0  0  0  0  0
   -1.4700   -2.1034   -0.0000 O   0  0  0  0  0  0  0  0  0  0  0  0
   -0.1673   -4.3622   -0.0000 N   0  0  0  0  0  0  0  0  0  0  0  0
   -4.0993   -6.6330   -0.0000 N   0  0  0  0  0  0  0  0  0  0  0  0
   -0.1793   -5.8561   -0.0000 C   0  0  0  0  0  0  0  0  0  0  0  0
    1.1234   -3.5973   -0.0000 C   0  0  0  0  0  0  0  0  0  0  0  0
   -0.9322   -7.1469   -0.0000 C   0  0  0  0  0  0  0  0  0  0  0  0
    0.5737   -7.1469   -0.0000 C   0  0  0  0  0  0  0  0  0  0  0  0
    2.4142   -4.3383   -0.0000 C   0  0  0  0  0  0  0  0  0  0  0  0
    3.7049   -3.5734   -0.0000 C   0  0  0  0  0  0  0  0  0  0  0  0
    2.3903   -5.8322   -0.0000 C   0  0  0  0  0  0  0  0  0  0  0  0
    4.9956   -4.3144   -0.0000 C   0  0  0  0  0  0  0  0  0  0  0  0
    3.6810   -6.5732   -0.0000 C   0  0  0  0  0  0  0  0  0  0  0  0
    6.2864   -3.5495   -0.0000 O   0  0  0  0  0  0  0  0  0  0  0  0
    4.9837   -5.8203   -0.0000 C   0  0  0  0  0  0  0  0  0  0  0  0
    3.6690   -8.0671   -0.0000 C   0  0  0  0  0  0  0  0  0  0  0  0
    7.5771   -4.2905   -0.0000 C   0  0  0  0  0  0  0  0  0  0  0  0
    4.9598   -8.8081   -0.0000 C   0  0  0  0  0  0  0  0  0  0  0  0
    8.8679   -3.5256   -0.0000 C   0  0  0  0  0  0  0  0  0  0  0  0
    6.2505   -8.0432   -0.0000 C   0  0  0  0  0  0  0  0  0  0  0  0
   10.1586   -4.2666   -0.0000 N   0  0  0  0  0  0  0  0  0  0  0  0
    7.5413   -8.7842   -0.0000 O   0  0  0  0  0  0  0  0  0  0  0  0
   11.4493   -3.5017   -0.0000 C   0  0  0  0  0  0  0  0  0  0  0  0
   10.1466   -5.7605   -0.0000 C   0  0  0  0  0  0  0  0  0  0  0  0
    8.8320   -8.0193   -0.0000 C   0  0  0  0  0  0  0  0  0  0  0  0
  1  2  1  0  0  0  0
  2  3  2  0  0  0  0
  2  4  1  0  0  0  0
  3  5  1  0  0  0  0
  3  6  1  0  0  0  0
  4  7  2  0  0  0  0
  5  8  1  0  0  0  0
  6  9  1  0  0  0  0
  6 10  2  0  0  0  0
  7 11  1  0  0  0  0
  8 12  1  0  0  0  0
 12 13  1  0  0  0  0
 13 14  1  0  0  0  0
 14 15  2  0  0  0  0
 14 16  1  0  0  0  0
 15 17  1  0  0  0  0
 16 18  2  0  0  0  0
 17 19  2  0  0  0  0
 20 19  1  6  0  0  0
 20 21  1  0  0  0  0
 20 22  1  0  0  0  0
 21 23  1  1  0  0  0
 21 24  1  0  0  0  0
 22 25  1  0  0  0  0
 23 26  2  0  0  0  0
 23 27  1  0  0  0  0
 24 28  1  0  0  0  0
 27 29  1  0  0  0  0
 27 30  1  0  0  0  0
 29 31  1  0  0  0  0
 29 32  1  0  0  0  0
 30 33  1  0  0  0  0
 33 34  2  0  0  0  0
 33 35  1  0  0  0  0
 34 36  1  0  0  0  0
 35 37  2  0  0  0  0
 36 38  1  0  0  0  0
 36 39  2  0  0  0  0
 37 40  1  0  0  0  0
 38 41  1  0  0  0  0
 40 42  1  0  0  0  0
 41 43  1  0  0  0  0
 42 44  1  0  0  0  0
 43 45  1  0  0  0  0
 44 46  1  0  0  0  0
 45 47  1  0  0  0  0
 45 48  1  0  0  0  0
 46 49  1  0  0  0  0
  7 10  1  0  0  0  0
 18 19  1  0  0  0  0
 25 28  1  0  0  0  0
 31 32  1  0  0  0  0
 37 39  1  0  0  0  0
M  END
>  <MolRegNo>
1138804

>  <m>
=

>  <Value>
22700

>  <Unit>
nM

>  <Type>
IC50

>  <pValue>
4.64

>  <Ligand Efficiency>
0

>  <Binding Efficiency>
0

>  <Surface Efficiency>
0

>  <Assay Index>
583711

>  <Assay Category>


>  <Assay Organism>
Homo sapiens

>  <Target ID>
17045

>  <Target Name>
Cytochrome P450 3A4

>  <Target Organism>
Homo sapiens

>  <Target Description>
Target is a single protein chain

>  <Sequence Accession>
P08684

>  <Reference>
Bioorg Med Chem Lett 21 (8), 2430-2436 (2011)

>  <Pubmed ID>
21429746

>  <DOI>
10.1016/j.bmcl.2011.02.067

$$$$
1138805
Actelion Java MolfileCreator 1.0

 52 56  0  0  0  0  0  0  0  0999 V2000
    0.0000   -0.0000   -0.0000 Cl  0  0  0  0  0  0  0  0  0  0  0  0
    1.2914    0.7652   -0.0000 C   0  0  0  0  0  0  0  0  0  0  0  0
    1.2794    2.2838   -0.0000 C   0  0  0  0  0  0  0  0  0  0  0  0
    2.5827    0.0239   -0.0000 C   0  0  0  0  0  0  0  0  0  0  0  0
   -0.0359    3.0490   -0.0000 O   0  0  0  0  0  0  0  0  0  0  0  0
    2.5588    3.0490   -0.0000 C   0  0  0  0  0  0  0  0  0  0  0  0
    3.8741    0.7892   -0.0000 C   0  0  0  0  0  0  0  0  0  0  0  0
   -1.3511    2.3077   -0.0000 C   0  0  0  0  0  0  0  0  0  0  0  0
    2.5349    4.5676   -0.0000 Cl  0  0  0  0  0  0  0  0  0  0  0  0
    3.8502    2.3197   -0.0000 C   0  0  0  0  0  0  0  0  0  0  0  0
    5.1774    0.0478   -0.0000 C   0  0  0  0  0  0  0  0  0  0  0  0
   -2.6664    3.0730   -0.0000 C   0  0  0  0  0  0  0  0  0  0  0  0
   -3.9817    2.3316   -0.0000 O   0  0  0  0  0  0  0  0  0  0  0  0
   -3.9936    0.8370   -0.0000 C   0  0  0  0  0  0  0  0  0  0  0  0
   -5.3089    0.0957   -0.0000 C   0  0  0  0  0  0  0  0  0  0  0  0
   -2.7023    0.0957   -0.0000 C   0  0  0  0  0  0  0  0  0  0  0  0
   -5.3209   -1.3990   -0.0000 C   0  0  0  0  0  0  0  0  0  0  0  0
   -2.7142   -1.4109   -0.0000 C   0  0  0  0  0  0  0  0  0  0  0  0
   -4.0295   -2.1403   -0.0000 C   0  0  0  0  0  0  0  0  0  0  0  0
   -4.0415   -3.6349   -0.0000 C   0  0  0  0  0  0  0  0  0  0  0  0
   -2.7501   -4.3763   -0.0000 C   0  0  0  0  0  0  0  0  0  0  0  0
   -5.3687   -4.3763   -0.0000 C   0  0  0  0  0  0  0  0  0  0  0  0
   -1.4588   -3.6110   -0.0000 C   0  0  0  0  0  0  0  0  0  0  0  0
   -2.7740   -5.8829   -0.0000 C   0  0  0  0  0  0  0  0  0  0  0  0
   -5.3807   -5.8709   -0.0000 C   0  0  0  0  0  0  0  0  0  0  0  0
   -1.4707   -2.0925   -0.0000 O   0  0  0  0  0  0  0  0  0  0  0  0
   -0.1674   -4.3524   -0.0000 N   0  0  0  0  0  0  0  0  0  0  0  0
   -4.1013   -6.6242   -0.0000 N   0  0  0  0  0  0  0  0  0  0  0  0
   -0.1794   -5.8470   -0.0000 C   0  0  0  0  0  0  0  0  0  0  0  0
    1.1240   -3.5871   -0.0000 C   0  0  0  0  0  0  0  0  0  0  0  0
   -0.9326   -7.1383   -0.0000 C   0  0  0  0  0  0  0  0  0  0  0  0
    0.5739   -7.1383   -0.0000 C   0  0  0  0  0  0  0  0  0  0  0  0
    2.4153   -4.3284   -0.0000 C   0  0  0  0  0  0  0  0  0  0  0  0
    3.7067   -3.5632   -0.0000 C   0  0  0  0  0  0  0  0  0  0  0  0
    2.3914   -5.8231   -0.0000 C   0  0  0  0  0  0  0  0  0  0  0  0
    4.9980   -4.3045   -0.0000 C   0  0  0  0  0  0  0  0  0  0  0  0
    3.6828   -6.5644   -0.0000 C   0  0  0  0  0  0  0  0  0  0  0  0
    6.2894   -3.5393   -0.0000 O   0  0  0  0  0  0  0  0  0  0  0  0
    4.9861   -5.8111   -0.0000 C   0  0  0  0  0  0  0  0  0  0  0  0
    3.6708   -8.0590   -0.0000 C   0  0  0  0  0  0  0  0  0  0  0  0
    7.5808   -4.2806   -0.0000 C   0  0  0  0  0  0  0  0  0  0  0  0
    4.9622   -8.8004   -0.0000 C   0  0  0  0  0  0  0  0  0  0  0  0
    8.8721   -3.5154   -0.0000 C   0  0  0  0  0  0  0  0  0  0  0  0
    6.2535   -8.0351   -0.0000 C   0  0  0  0  0  0  0  0  0  0  0  0
   10.1635   -4.2567   -0.0000 C   0  0  0  0  0  0  0  0  0  0  0  0
    7.5449   -8.7765   -0.0000 O   0  0  0  0  0  0  0  0  0  0  0  0
   11.4548   -3.4915   -0.0000 N   0  0  0  0  0  0  0  0  0  0  0  0
    8.8362   -8.0112   -0.0000 C   0  0  0  0  0  0  0  0  0  0  0  0
   12.7462   -4.2328   -0.0000 S   0  0  0  0  0  0  0  0  0  0  0  0
   13.4756   -5.5241   -0.0000 O   0  0  0  0  0  0  0  0  0  0  0  0
   11.9809   -5.5241   -0.0000 O   0  0  0  0  0  0  0  0  0  0  0  0
   14.0376   -3.4675   -0.0000 C   0  0  0  0  0  0  0  0  0  0  0  0
  1  2  1  0  0  0  0
  2  3  2  0  0  0  0
  2  4  1  0  0  0  0
  3  5  1  0  0  0  0
  3  6  1  0  0  0  0
  4  7  2  0  0  0  0
  5  8  1  0  0  0  0
  6  9  1  0  0  0  0
  6 10  2  0  0  0  0
  7 11  1  0  0  0  0
  8 12  1  0  0  0  0
 12 13  1  0  0  0  0
 13 14  1  0  0  0  0
 14 15  2  0  0  0  0
 14 16  1  0  0  0  0
 15 17  1  0  0  0  0
 16 18  2  0  0  0  0
 17 19  2  0  0  0  0
 20 19  1  6  0  0  0
 20 21  1  0  0  0  0
 20 22  1  0  0  0  0
 21 23  1  1  0  0  0
 21 24  1  0  0  0  0
 22 25  1  0  0  0  0
 23 26  2  0  0  0  0
 23 27  1  0  0  0  0
 24 28  1  0  0  0  0
 27 29  1  0  0  0  0
 27 30  1  0  0  0  0
 29 31  1  0  0  0  0
 29 32  1  0  0  0  0
 30 33  1  0  0  0  0
 33 34  2  0  0  0  0
 33 35  1  0  0  0  0
 34 36  1  0  0  0  0
 35 37  2  0  0  0  0
 36 38  1  0  0  0  0
 36 39  2  0  0  0  0
 37 40  1  0  0  0  0
 38 41  1  0  0  0  0
 40 42  1  0  0  0  0
 41 43  1  0  0  0  0
 42 44  1  0  0  0  0
 43 45  1  0  0  0  0
 44 46  1  0  0  0  0
 45 47  1  0  0  0  0
 46 48  1  0  0  0  0
 47 49  1  0  0  0  0
 49 50  2  0  0  0  0
 49 51  2  0  0  0  0
 49 52  1  0  0  0  0
  7 10  1  0  0  0  0
 18 19  1  0  0  0  0
 25 28  1  0  0  0  0
 31 32  1  0  0  0  0
 37 39  1  0  0  0  0
M  END
>  <MolRegNo>
1138805

>  <m>
=

>  <Value>
27600

>  <Unit>
nM

>  <Type>
IC50

>  <pValue>
4.56

>  <Ligand Efficiency>
0

>  <Binding Efficiency>
0

>  <Surface Efficiency>
0

>  <Assay Index>
583711

>  <Assay Category>


>  <Assay Organism>
Homo sapiens

>  <Target ID>
17045

>  <Target Name>
Cytochrome P450 3A4

>  <Target Organism>
Homo sapiens

>  <Target Description>
Target is a single protein chain

>  <Sequence Accession>
P08684

>  <Reference>
Bioorg Med Chem Lett 21 (8), 2430-2436 (2011)

>  <Pubmed ID>
21429746

>  <DOI>
10.1016/j.bmcl.2011.02.067

$$$$
1138806
Actelion Java MolfileCreator 1.0

 53 57  0  0  0  0  0  0  0  0999 V2000
    0.0000   -0.0000   -0.0000 Cl  0  0  0  0  0  0  0  0  0  0  0  0
    1.2914    0.7652   -0.0000 C   0  0  0  0  0  0  0  0  0  0  0  0
    1.2794    2.2838   -0.0000 C   0  0  0  0  0  0  0  0  0  0  0  0
    2.5827    0.0239   -0.0000 C   0  0  0  0  0  0  0  0  0  0  0  0
   -0.0359    3.0490   -0.0000 O   0  0  0  0  0  0  0  0  0  0  0  0
    2.5588    3.0490   -0.0000 C   0  0  0  0  0  0  0  0  0  0  0  0
    3.8741    0.7892   -0.0000 C   0  0  0  0  0  0  0  0  0  0  0  0
   -1.3511    2.3077   -0.0000 C   0  0  0  0  0  0  0  0  0  0  0  0
    2.5349    4.5676   -0.0000 Cl  0  0  0  0  0  0  0  0  0  0  0  0
    3.8501    2.3196   -0.0000 C   0  0  0  0  0  0  0  0  0  0  0  0
    5.1774    0.0478   -0.0000 C   0  0  0  0  0  0  0  0  0  0  0  0
   -2.6664    3.0729   -0.0000 C   0  0  0  0  0  0  0  0  0  0  0  0
   -3.9817    2.3316   -0.0000 O   0  0  0  0  0  0  0  0  0  0  0  0
   -3.9936    0.8370   -0.0000 C   0  0  0  0  0  0  0  0  0  0  0  0
   -5.3089    0.0957   -0.0000 C   0  0  0  0  0  0  0  0  0  0  0  0
   -2.7023    0.0957   -0.0000 C   0  0  0  0  0  0  0  0  0  0  0  0
   -5.3208   -1.3990   -0.0000 C   0  0  0  0  0  0  0  0  0  0  0  0
   -2.7142   -1.4109   -0.0000 C   0  0  0  0  0  0  0  0  0  0  0  0
   -4.0295   -2.1403   -0.0000 C   0  0  0  0  0  0  0  0  0  0  0  0
   -4.0414   -3.6349   -0.0000 C   0  0  0  0  0  0  0  0  0  0  0  0
   -2.7501   -4.3762   -0.0000 C   0  0  0  0  0  0  0  0  0  0  0  0
   -5.3687   -4.3762   -0.0000 C   0  0  0  0  0  0  0  0  0  0  0  0
   -1.4587   -3.6110   -0.0000 C   0  0  0  0  0  0  0  0  0  0  0  0
   -2.7740   -5.8828   -0.0000 C   0  0  0  0  0  0  0  0  0  0  0  0
   -5.3806   -5.8709   -0.0000 C   0  0  0  0  0  0  0  0  0  0  0  0
   -1.4707   -2.0925   -0.0000 O   0  0  0  0  0  0  0  0  0  0  0  0
   -0.1674   -4.3523   -0.0000 N   0  0  0  0  0  0  0  0  0  0  0  0
   -4.1012   -6.6241   -0.0000 N   0  0  0  0  0  0  0  0  0  0  0  0
   -0.1794   -5.8469   -0.0000 C   0  0  0  0  0  0  0  0  0  0  0  0
    1.1240   -3.5871   -0.0000 C   0  0  0  0  0  0  0  0  0  0  0  0
   -0.9326   -7.1383   -0.0000 C   0  0  0  0  0  0  0  0  0  0  0  0
    0.5739   -7.1383   -0.0000 C   0  0  0  0  0  0  0  0  0  0  0  0
    2.4153   -4.3284   -0.0000 C   0  0  0  0  0  0  0  0  0  0  0  0
    3.7067   -3.5632   -0.0000 C   0  0  0  0  0  0  0  0  0  0  0  0
    2.3914   -5.8230   -0.0000 C   0  0  0  0  0  0  0  0  0  0  0  0
    4.9980   -4.3045   -0.0000 C   0  0  0  0  0  0  0  0  0  0  0  0
    3.6827   -6.5644   -0.0000 C   0  0  0  0  0  0  0  0  0  0  0  0
    6.2894   -3.5393   -0.0000 O   0  0  0  0  0  0  0  0  0  0  0  0
    4.9860   -5.8111   -0.0000 C   0  0  0  0  0  0  0  0  0  0  0  0
    3.6708   -8.0590   -0.0000 C   0  0  0  0  0  0  0  0  0  0  0  0
    7.5807   -4.2806   -0.0000 C   0  0  0  0  0  0  0  0  0  0  0  0
    4.9621   -8.8003   -0.0000 C   0  0  0  0  0  0  0  0  0  0  0  0
    8.8721   -3.5153   -0.0000 C   0  0  0  0  0  0  0  0  0  0  0  0
    6.2535   -8.0351   -0.0000 C   0  0  0  0  0  0  0  0  0  0  0  0
   10.1634   -4.2567   -0.0000 C   0  0  0  0  0  0  0  0  0  0  0  0
    7.5448   -8.7764   -0.0000 O   0  0  0  0  0  0  0  0  0  0  0  0
   11.4548   -3.4914   -0.0000 N   0  0  0  0  0  0  0  0  0  0  0  0
    8.8362   -8.0112   -0.0000 C   0  0  0  0  0  0  0  0  0  0  0  0
   12.7461   -4.2328   -0.0000 C   0  0  0  0  0  0  0  0  0  0  0  0
   12.7341   -5.7274   -0.0000 O   0  0  0  0  0  0  0  0  0  0  0  0
   14.0375   -3.4675   -0.0000 N   0  0  0  0  0  0  0  0  0  0  0  0
   15.3288   -4.2088   -0.0000 C   0  0  0  0  0  0  0  0  0  0  0  0
   16.6202   -3.4436   -0.0000 C   0  0  0  0  0  0  0  0  0  0  0  0
  1  2  1  0  0  0  0
  2  3  2  0  0  0  0
  2  4  1  0  0  0  0
  3  5  1  0  0  0  0
  3  6  1  0  0  0  0
  4  7  2  0  0  0  0
  5  8  1  0  0  0  0
  6  9  1  0  0  0  0
  6 10  2  0  0  0  0
  7 11  1  0  0  0  0
  8 12  1  0  0  0  0
 12 13  1  0  0  0  0
 13 14  1  0  0  0  0
 14 15  2  0  0  0  0
 14 16  1  0  0  0  0
 15 17  1  0  0  0  0
 16 18  2  0  0  0  0
 17 19  2  0  0  0  0
 20 19  1  6  0  0  0
 20 21  1  0  0  0  0
 20 22  1  0  0  0  0
 21 23  1  1  0  0  0
 21 24  1  0  0  0  0
 22 25  1  0  0  0  0
 23 26  2  0  0  0  0
 23 27  1  0  0  0  0
 24 28  1  0  0  0  0
 27 29  1  0  0  0  0
 27 30  1  0  0  0  0
 29 31  1  0  0  0  0
 29 32  1  0  0  0  0
 30 33  1  0  0  0  0
 33 34  2  0  0  0  0
 33 35  1  0  0  0  0
 34 36  1  0  0  0  0
 35 37  2  0  0  0  0
 36 38  1  0  0  0  0
 36 39  2  0  0  0  0
 37 40  1  0  0  0  0
 38 41  1  0  0  0  0
 40 42  1  0  0  0  0
 41 43  1  0  0  0  0
 42 44  1  0  0  0  0
 43 45  1  0  0  0  0
 44 46  1  0  0  0  0
 45 47  1  0  0  0  0
 46 48  1  0  0  0  0
 47 49  1  0  0  0  0
 49 50  2  0  0  0  0
 49 51  1  0  0  0  0
 51 52  1  0  0  0  0
 52 53  1  0  0  0  0
  7 10  1  0  0  0  0
 18 19  1  0  0  0  0
 25 28  1  0  0  0  0
 31 32  1  0  0  0  0
 37 39  1  0  0  0  0
M  END
>  <MolRegNo>
1138806

>  <m>
=

>  <Value>
6300

>  <Unit>
nM

>  <Type>
IC50

>  <pValue>
5.2

>  <Ligand Efficiency>
0

>  <Binding Efficiency>
0

>  <Surface Efficiency>
0

>  <Assay Index>
583711

>  <Assay Category>


>  <Assay Organism>
Homo sapiens

>  <Target ID>
17045

>  <Target Name>
Cytochrome P450 3A4

>  <Target Organism>
Homo sapiens

>  <Target Description>
Target is a single protein chain

>  <Sequence Accession>
P08684

>  <Reference>
Bioorg Med Chem Lett 21 (8), 2430-2436 (2011)

>  <Pubmed ID>
21429746

>  <DOI>
10.1016/j.bmcl.2011.02.067

$$$$
1138808
Actelion Java MolfileCreator 1.0

 53 58  0  0  0  0  0  0  0  0999 V2000
    0.0000   -0.0000   -0.0000 Cl  0  0  0  0  0  0  0  0  0  0  0  0
    1.2891    0.7639   -0.0000 C   0  0  0  0  0  0  0  0  0  0  0  0
    1.2771    2.2797   -0.0000 C   0  0  0  0  0  0  0  0  0  0  0  0
    2.5781    0.0239   -0.0000 C   0  0  0  0  0  0  0  0  0  0  0  0
   -0.0358    3.0436   -0.0000 O   0  0  0  0  0  0  0  0  0  0  0  0
    2.5542    3.0436   -0.0000 C   0  0  0  0  0  0  0  0  0  0  0  0
    3.8672    0.7878   -0.0000 C   0  0  0  0  0  0  0  0  0  0  0  0
   -1.3487    2.3036   -0.0000 C   0  0  0  0  0  0  0  0  0  0  0  0
    2.5304    4.5595   -0.0000 Cl  0  0  0  0  0  0  0  0  0  0  0  0
    3.8433    2.3155   -0.0000 C   0  0  0  0  0  0  0  0  0  0  0  0
    5.1682    0.0477   -0.0000 C   0  0  0  0  0  0  0  0  0  0  0  0
   -2.6617    3.0675   -0.0000 C   0  0  0  0  0  0  0  0  0  0  0  0
   -3.9746    2.3275   -0.0000 O   0  0  0  0  0  0  0  0  0  0  0  0
   -3.9865    0.8355   -0.0000 C   0  0  0  0  0  0  0  0  0  0  0  0
   -5.2995    0.0955   -0.0000 C   0  0  0  0  0  0  0  0  0  0  0  0
   -2.6975    0.0955   -0.0000 C   0  0  0  0  0  0  0  0  0  0  0  0
   -5.3114   -1.4084   -0.0000 C   0  0  0  0  0  0  0  0  0  0  0  0
   -2.7094   -1.4084   -0.0000 C   0  0  0  0  0  0  0  0  0  0  0  0
   -4.0223   -2.1484   -0.0000 C   0  0  0  0  0  0  0  0  0  0  0  0
   -4.0343   -3.6404   -0.0000 C   0  0  0  0  0  0  0  0  0  0  0  0
   -2.7452   -4.3804   -0.0000 C   0  0  0  0  0  0  0  0  0  0  0  0
   -5.3591   -4.3804   -0.0000 C   0  0  0  0  0  0  0  0  0  0  0  0
   -1.4562   -3.6165   -0.0000 C   0  0  0  0  0  0  0  0  0  0  0  0
   -2.7691   -5.8843   -0.0000 C   0  0  0  0  0  0  0  0  0  0  0  0
   -5.3711   -5.8724   -0.0000 C   0  0  0  0  0  0  0  0  0  0  0  0
   -1.4681   -2.1007   -0.0000 O   0  0  0  0  0  0  0  0  0  0  0  0
   -0.1671   -4.3565   -0.0000 N   0  0  0  0  0  0  0  0  0  0  0  0
   -4.0940   -6.6243   -0.0000 N   0  0  0  0  0  0  0  0  0  0  0  0
   -0.1790   -5.8485   -0.0000 C   0  0  0  0  0  0  0  0  0  0  0  0
    1.1220   -3.5927   -0.0000 C   0  0  0  0  0  0  0  0  0  0  0  0
   -0.9310   -7.1376   -0.0000 C   0  0  0  0  0  0  0  0  0  0  0  0
    0.5729   -7.1376   -0.0000 C   0  0  0  0  0  0  0  0  0  0  0  0
    2.4110   -4.3327   -0.0000 C   0  0  0  0  0  0  0  0  0  0  0  0
    3.7001   -3.5688   -0.0000 C   0  0  0  0  0  0  0  0  0  0  0  0
    2.3871   -5.8246   -0.0000 C   0  0  0  0  0  0  0  0  0  0  0  0
    4.9891   -4.3088   -0.0000 C   0  0  0  0  0  0  0  0  0  0  0  0
    3.6762   -6.5647   -0.0000 C   0  0  0  0  0  0  0  0  0  0  0  0
    6.2782   -3.5449   -0.0000 O   0  0  0  0  0  0  0  0  0  0  0  0
    4.9772   -5.8127   -0.0000 C   0  0  0  0  0  0  0  0  0  0  0  0
    3.6643   -8.0566   -0.0000 C   0  0  0  0  0  0  0  0  0  0  0  0
    7.5792   -4.2849   -0.0000 C   0  0  0  0  0  0  0  0  0  0  0  0
    4.9533   -8.7966   -0.0000 C   0  0  0  0  0  0  0  0  0  0  0  0
    8.8683   -3.5091   -0.0000 C   0  0  0  0  0  0  0  0  0  0  0  0
    6.2424   -8.0328   -0.0000 C   0  0  0  0  0  0  0  0  0  0  0  0
    9.5963   -2.1842   -0.0000 C   0  0  0  0  0  0  0  0  0  0  0  0
   10.3602   -3.4852   -0.0000 C   0  0  0  0  0  0  0  0  0  0  0  0
    7.5315   -8.7728   -0.0000 O   0  0  0  0  0  0  0  0  0  0  0  0
    9.5725   -0.6684   -0.0000 C   0  0  0  0  0  0  0  0  0  0  0  0
    8.8205   -8.0089   -0.0000 C   0  0  0  0  0  0  0  0  0  0  0  0
    8.2476    0.0955   -0.0000 O   0  0  0  0  0  0  0  0  0  0  0  0
   10.8615    0.1074   -0.0000 O   0  0  0  0  0  0  0  0  0  0  0  0
   12.1625   -0.6326   -0.0000 C   0  0  0  0  0  0  0  0  0  0  0  0
   13.4516    0.1432   -0.0000 C   0  0  0  0  0  0  0  0  0  0  0  0
  1  2  1  0  0  0  0
  2  3  2  0  0  0  0
  2  4  1  0  0  0  0
  3  5  1  0  0  0  0
  3  6  1  0  0  0  0
  4  7  2  0  0  0  0
  5  8  1  0  0  0  0
  6  9  1  0  0  0  0
  6 10  2  0  0  0  0
  7 11  1  0  0  0  0
  8 12  1  0  0  0  0
 12 13  1  0  0  0  0
 13 14  1  0  0  0  0
 14 15  2  0  0  0  0
 14 16  1  0  0  0  0
 15 17  1  0  0  0  0
 16 18  2  0  0  0  0
 17 19  2  0  0  0  0
 20 19  1  6  0  0  0
 20 21  1  0  0  0  0
 20 22  1  0  0  0  0
 21 23  1  1  0  0  0
 21 24  1  0  0  0  0
 22 25  1  0  0  0  0
 23 26  2  0  0  0  0
 23 27  1  0  0  0  0
 24 28  1  0  0  0  0
 27 29  1  0  0  0  0
 27 30  1  0  0  0  0
 29 31  1  0  0  0  0
 29 32  1  0  0  0  0
 30 33  1  0  0  0  0
 33 34  2  0  0  0  0
 33 35  1  0  0  0  0
 34 36  1  0  0  0  0
 35 37  2  0  0  0  0
 36 38  1  0  0  0  0
 36 39  2  0  0  0  0
 37 40  1  0  0  0  0
 38 41  1  0  0  0  0
 40 42  1  0  0  0  0
 43 41  1  6  0  0  0
 42 44  1  0  0  0  0
 43 45  1  0  0  0  0
 43 46  1  0  0  0  0
 44 47  1  0  0  0  0
 45 48  1  1  0  0  0
 47 49  1  0  0  0  0
 48 50  2  0  0  0  0
 48 51  1  0  0  0  0
 51 52  1  0  0  0  0
 52 53  1  0  0  0  0
  7 10  1  0  0  0  0
 18 19  1  0  0  0  0
 25 28  1  0  0  0  0
 31 32  1  0  0  0  0
 37 39  1  0  0  0  0
 45 46  1  0  0  0  0
M  END
>  <MolRegNo>
1138808

>  <m>
=

>  <Value>
19300

>  <Unit>
nM

>  <Type>
IC50

>  <pValue>
4.71

>  <Ligand Efficiency>
0

>  <Binding Efficiency>
0

>  <Surface Efficiency>
0

>  <Assay Index>
583711

>  <Assay Category>


>  <Assay Organism>
Homo sapiens

>  <Target ID>
17045

>  <Target Name>
Cytochrome P450 3A4

>  <Target Organism>
Homo sapiens

>  <Target Description>
Target is a single protein chain

>  <Sequence Accession>
P08684

>  <Reference>
Bioorg Med Chem Lett 21 (8), 2430-2436 (2011)

>  <Pubmed ID>
21429746

>  <DOI>
10.1016/j.bmcl.2011.02.067

$$$$
1138807
Actelion Java MolfileCreator 1.0

 49 53  0  0  0  0  0  0  0  0999 V2000
    0.0000   -0.0000   -0.0000 Cl  0  0  0  0  0  0  0  0  0  0  0  0
    1.2895    0.7641   -0.0000 C   0  0  0  0  0  0  0  0  0  0  0  0
    1.2775    2.2804   -0.0000 C   0  0  0  0  0  0  0  0  0  0  0  0
    2.5789    0.0239   -0.0000 C   0  0  0  0  0  0  0  0  0  0  0  0
   -0.0358    3.0446   -0.0000 O   0  0  0  0  0  0  0  0  0  0  0  0
    2.5550    3.0446   -0.0000 C   0  0  0  0  0  0  0  0  0  0  0  0
    3.8684    0.7880   -0.0000 C   0  0  0  0  0  0  0  0  0  0  0  0
   -1.3492    2.3043   -0.0000 C   0  0  0  0  0  0  0  0  0  0  0  0
    2.5312    4.5609   -0.0000 Cl  0  0  0  0  0  0  0  0  0  0  0  0
    3.8445    2.3162   -0.0000 C   0  0  0  0  0  0  0  0  0  0  0  0
    5.1698    0.0478   -0.0000 C   0  0  0  0  0  0  0  0  0  0  0  0
   -2.6625    3.0684   -0.0000 C   0  0  0  0  0  0  0  0  0  0  0  0
   -3.9758    2.3282   -0.0000 O   0  0  0  0  0  0  0  0  0  0  0  0
   -3.9878    0.8358   -0.0000 C   0  0  0  0  0  0  0  0  0  0  0  0
   -5.3011    0.0955   -0.0000 C   0  0  0  0  0  0  0  0  0  0  0  0
   -2.6983    0.0955   -0.0000 C   0  0  0  0  0  0  0  0  0  0  0  0
   -5.3130   -1.4089   -0.0000 C   0  0  0  0  0  0  0  0  0  0  0  0
   -2.7102   -1.4089   -0.0000 C   0  0  0  0  0  0  0  0  0  0  0  0
   -4.0236   -2.1491   -0.0000 C   0  0  0  0  0  0  0  0  0  0  0  0
   -4.0355   -3.6415   -0.0000 C   0  0  0  0  0  0  0  0  0  0  0  0
   -2.7461   -4.3818   -0.0000 C   0  0  0  0  0  0  0  0  0  0  0  0
   -5.3608   -4.3818   -0.0000 C   0  0  0  0  0  0  0  0  0  0  0  0
   -1.4566   -3.6176   -0.0000 C   0  0  0  0  0  0  0  0  0  0  0  0
   -2.7699   -5.8861   -0.0000 C   0  0  0  0  0  0  0  0  0  0  0  0
   -5.3727   -5.8742   -0.0000 C   0  0  0  0  0  0  0  0  0  0  0  0
   -1.4685   -2.1013   -0.0000 O   0  0  0  0  0  0  0  0  0  0  0  0
   -0.1672   -4.3579   -0.0000 N   0  0  0  0  0  0  0  0  0  0  0  0
   -4.0952   -6.6264   -0.0000 N   0  0  0  0  0  0  0  0  0  0  0  0
   -0.1791   -5.8503   -0.0000 C   0  0  0  0  0  0  0  0  0  0  0  0
    1.1223   -3.5938   -0.0000 C   0  0  0  0  0  0  0  0  0  0  0  0
   -0.9313   -7.1398   -0.0000 C   0  0  0  0  0  0  0  0  0  0  0  0
    0.5731   -7.1398   -0.0000 C   0  0  0  0  0  0  0  0  0  0  0  0
    2.4118   -4.3340   -0.0000 C   0  0  0  0  0  0  0  0  0  0  0  0
    3.7012   -3.5699   -0.0000 C   0  0  0  0  0  0  0  0  0  0  0  0
    2.3879   -5.8264   -0.0000 C   0  0  0  0  0  0  0  0  0  0  0  0
    4.9907   -4.3101   -0.0000 C   0  0  0  0  0  0  0  0  0  0  0  0
    3.6773   -6.5667   -0.0000 C   0  0  0  0  0  0  0  0  0  0  0  0
    6.2801   -3.5460   -0.0000 O   0  0  0  0  0  0  0  0  0  0  0  0
    4.9787   -5.8145   -0.0000 C   0  0  0  0  0  0  0  0  0  0  0  0
    3.6654   -8.0591   -0.0000 C   0  0  0  0  0  0  0  0  0  0  0  0
    7.5696   -4.2863   -0.0000 C   0  0  0  0  0  0  0  0  0  0  0  0
    4.9549   -8.7994   -0.0000 C   0  0  0  0  0  0  0  0  0  0  0  0
    8.8591   -3.5102   -0.0000 C   0  0  0  0  0  0  0  0  0  0  0  0
    6.2443   -8.0352   -0.0000 C   0  0  0  0  0  0  0  0  0  0  0  0
   10.1604   -4.2504   -0.0000 O   0  0  0  0  0  0  0  0  0  0  0  0
    8.0830   -2.1849   -0.0000 C   0  0  0  0  0  0  0  0  0  0  0  0
    9.5993   -2.1849   -0.0000 C   0  0  0  0  0  0  0  0  0  0  0  0
    7.5338   -8.7755   -0.0000 O   0  0  0  0  0  0  0  0  0  0  0  0
    8.8232   -8.0114   -0.0000 C   0  0  0  0  0  0  0  0  0  0  0  0
  1  2  1  0  0  0  0
  2  3  2  0  0  0  0
  2  4  1  0  0  0  0
  3  5  1  0  0  0  0
  3  6  1  0  0  0  0
  4  7  2  0  0  0  0
  5  8  1  0  0  0  0
  6  9  1  0  0  0  0
  6 10  2  0  0  0  0
  7 11  1  0  0  0  0
  8 12  1  0  0  0  0
 12 13  1  0  0  0  0
 13 14  1  0  0  0  0
 14 15  2  0  0  0  0
 14 16  1  0  0  0  0
 15 17  1  0  0  0  0
 16 18  2  0  0  0  0
 17 19  2  0  0  0  0
 20 19  1  6  0  0  0
 20 21  1  0  0  0  0
 20 22  1  0  0  0  0
 21 23  1  1  0  0  0
 21 24  1  0  0  0  0
 22 25  1  0  0  0  0
 23 26  2  0  0  0  0
 23 27  1  0  0  0  0
 24 28  1  0  0  0  0
 27 29  1  0  0  0  0
 27 30  1  0  0  0  0
 29 31  1  0  0  0  0
 29 32  1  0  0  0  0
 30 33  1  0  0  0  0
 33 34  2  0  0  0  0
 33 35  1  0  0  0  0
 34 36  1  0  0  0  0
 35 37  2  0  0  0  0
 36 38  1  0  0  0  0
 36 39  2  0  0  0  0
 37 40  1  0  0  0  0
 38 41  1  0  0  0  0
 40 42  1  0  0  0  0
 41 43  1  0  0  0  0
 42 44  1  0  0  0  0
 43 45  1  0  0  0  0
 43 46  1  0  0  0  0
 43 47  1  0  0  0  0
 44 48  1  0  0  0  0
 48 49  1  0  0  0  0
  7 10  1  0  0  0  0
 18 19  1  0  0  0  0
 25 28  1  0  0  0  0
 31 32  1  0  0  0  0
 37 39  1  0  0  0  0
M  END
>  <MolRegNo>
1138807

>  <m>
=

>  <Value>
5600

>  <Unit>
nM

>  <Type>
IC50

>  <pValue>
5.25

>  <Ligand Efficiency>
0

>  <Binding Efficiency>
0

>  <Surface Efficiency>
0

>  <Assay Index>
583712

>  <Assay Category>


>  <Assay Organism>
Homo sapiens

>  <Target ID>
17045

>  <Target Name>
Cytochrome P450 3A4

>  <Target Organism>
Homo sapiens

>  <Target Description>
Target is a single protein chain

>  <Sequence Accession>
P08684

>  <Reference>
Bioorg Med Chem Lett 21 (8), 2430-2436 (2011)

>  <Pubmed ID>
21429746

>  <DOI>
10.1016/j.bmcl.2011.02.067

$$$$
471031
Actelion Java MolfileCreator 1.0

 27 30  0  0  0  0  0  0  0  0999 V2000
    0.0000   -0.0000   -0.0000 S   0  0  0  0  0  0  0  0  0  0  0  0
    0.8770   -1.1970   -0.0000 C   0  0  0  0  0  0  0  0  0  0  0  0
   -1.4340   -0.4622   -0.0000 C   0  0  0  0  0  0  0  0  0  0  0  0
    0.0000   -2.4176   -0.0000 N   0  0  0  0  0  0  0  0  0  0  0  0
    2.3584   -1.1733   -0.0000 N   0  0  0  0  0  0  0  0  0  0  0  0
   -1.4458   -1.9554   -0.0000 C   0  0  0  0  0  0  0  0  0  0  0  0
   -2.7495    0.2844   -0.0000 C   0  0  0  0  0  0  0  0  0  0  0  0
    3.0932    0.1422   -0.0000 C   0  0  0  0  0  0  0  0  0  0  0  0
   -2.7613   -2.6902   -0.0000 C   0  0  0  0  0  0  0  0  0  0  0  0
   -4.0531   -0.4503   -0.0000 C   0  0  0  0  0  0  0  0  0  0  0  0
    4.5746    0.1541   -0.0000 C   0  0  0  0  0  0  0  0  0  0  0  0
    2.3228    1.4340   -0.0000 C   0  0  0  0  0  0  0  0  0  0  0  0
   -4.0650   -1.9317   -0.0000 C   0  0  0  0  0  0  0  0  0  0  0  0
    5.3093    1.4695   -0.0000 C   0  0  0  0  0  0  0  0  0  0  0  0
    3.0458    2.7495   -0.0000 C   0  0  0  0  0  0  0  0  0  0  0  0
    4.5390    2.7732   -0.0000 C   0  0  0  0  0  0  0  0  0  0  0  0
    5.2619    4.0887   -0.0000 C   0  0  0  0  0  0  0  0  0  0  0  0
    6.7433    4.1124   -0.0000 N   0  0  0  0  0  0  0  0  0  0  0  0
    4.4916    5.3923   -0.0000 C   0  0  0  0  0  0  0  0  0  0  0  0
    7.5966    5.3330   -0.0000 C   0  0  0  0  0  0  0  0  0  0  0  0
    7.6203    2.9035   -0.0000 C   0  0  0  0  0  0  0  0  0  0  0  0
    2.9865    5.3923   -0.0000 N   0  0  0  0  0  0  0  0  0  0  0  0
    5.2264    6.7078   -0.0000 C   0  0  0  0  0  0  0  0  0  0  0  0
    9.0306    4.9064   -0.0000 N   0  0  0  0  0  0  0  0  0  0  0  0
    9.0306    3.4013   -0.0000 C   0  0  0  0  0  0  0  0  0  0  0  0
    2.2162    6.6959   -0.0000 C   0  0  0  0  0  0  0  0  0  0  0  0
    2.2280    4.1005   -0.0000 C   0  0  0  0  0  0  0  0  0  0  0  0
  1  2  1  0  0  0  0
  1  3  1  0  0  0  0
  2  4  2  0  0  0  0
  2  5  1  0  0  0  0
  3  6  2  0  0  0  0
  3  7  1  0  0  0  0
  5  8  1  0  0  0  0
  6  9  1  0  0  0  0
  7 10  2  0  0  0  0
  8 11  2  0  0  0  0
  8 12  1  0  0  0  0
  9 13  2  0  0  0  0
 11 14  1  0  0  0  0
 12 15  2  0  0  0  0
 14 16  2  0  0  0  0
 16 17  1  0  0  0  0
 17 18  1  6  0  0  0
 17 19  1  0  0  0  0
 18 20  1  0  0  0  0
 18 21  1  0  0  0  0
 19 22  1  6  0  0  0
 19 23  1  0  0  0  0
 20 24  2  0  0  0  0
 21 25  2  0  0  0  0
 22 26  1  0  0  0  0
 22 27  1  0  0  0  0
  4  6  1  0  0  0  0
 10 13  1  0  0  0  0
 15 16  1  0  0  0  0
 24 25  1  0  0  0  0
M  END
>  <MolRegNo>
471031

>  <m>
=

>  <Value>
11000

>  <Unit>
nM

>  <Type>
IC50

>  <pValue>
4.96

>  <Ligand Efficiency>
0

>  <Binding Efficiency>
0

>  <Surface Efficiency>
0

>  <Assay Index>
585449

>  <Assay Category>


>  <Assay Organism>
Homo sapiens

>  <Target ID>
17045

>  <Target Name>
Cytochrome P450 3A4

>  <Target Organism>
Homo sapiens

>  <Target Description>
Target is a single protein chain

>  <Sequence Accession>
P08684

>  <Reference>
J Med Chem 54 (8), 2778-2791 (2011)

>  <Pubmed ID>
21428449

>  <DOI>
10.1021/jm101583w

$$$$
1141199
Actelion Java MolfileCreator 1.0

 22 24  0  0  0  0  0  0  0  0999 V2000
    0.0000   -0.0000   -0.0000 O   0  0  0  0  0  0  0  0  0  0  0  0
    1.0614   -1.0614   -0.0000 C   0  0  0  0  0  0  0  0  0  0  0  0
   -0.2504   -1.8008   -0.0000 C   0  0  0  0  0  0  0  0  0  0  0  0
    2.3494   -1.8008   -0.0000 C   0  0  0  0  0  0  0  0  0  0  0  0
    2.1109    0.0239   -0.0000 C   0  0  0  0  0  0  0  0  0  0  0  0
   -0.2624   -3.3035   -0.0000 C   0  0  0  0  0  0  0  0  0  0  0  0
   -1.5623   -1.0376   -0.0000 C   0  0  0  0  0  0  0  0  0  0  0  0
    3.7090   -1.1687   -0.0000 N   0  0  0  0  0  0  0  0  0  0  0  0
    2.5045   -3.2796   -0.0000 C   0  0  0  0  0  0  0  0  0  0  0  0
    3.5539   -0.3459   -0.0000 C   0  0  0  0  0  0  0  0  0  0  0  0
    1.7054    1.4907   -0.0000 C   0  0  0  0  0  0  0  0  0  0  0  0
   -1.5862   -4.0429   -0.0000 C   0  0  0  0  0  0  0  0  0  0  0  0
   -2.8742   -1.7770   -0.0000 C   0  0  0  0  0  0  0  0  0  0  0  0
    4.7108   -2.2659   -0.0000 C   0  0  0  0  0  0  0  0  0  0  0  0
    3.9594   -3.5778   -0.0000 N   0  0  0  0  0  0  0  0  0  0  0  0
   -1.5981   -5.5337   -0.0000 C   0  0  0  0  0  0  0  0  0  0  0  0
   -2.8980   -3.2796   -0.0000 C   0  0  0  0  0  0  0  0  0  0  0  0
   -2.9099   -6.2731   -0.0000 C   0  0  0  0  0  0  0  0  0  0  0  0
   -0.3101   -6.2611   -0.0000 C   0  0  0  0  0  0  0  0  0  0  0  0
   -2.9219   -7.7638   -0.0000 C   0  0  0  0  0  0  0  0  0  0  0  0
   -0.3220   -7.7519   -0.0000 C   0  0  0  0  0  0  0  0  0  0  0  0
   -1.6339   -8.5032   -0.0000 C   0  0  0  0  0  0  0  0  0  0  0  0
  1  2  1  0  0  0  0
  2  3  1  0  0  0  0
  2  4  1  0  0  0  0
  2  5  1  0  0  0  0
  3  6  2  0  0  0  0
  3  7  1  0  0  0  0
  4  8  1  0  0  0  0
  4  9  2  0  0  0  0
  5 10  1  0  0  0  0
  5 11  1  0  0  0  0
  6 12  1  0  0  0  0
  7 13  2  0  0  0  0
  8 14  2  0  0  0  0
  9 15  1  0  0  0  0
 12 16  1  0  0  0  0
 12 17  2  0  0  0  0
 16 18  2  0  0  0  0
 16 19  1  0  0  0  0
 18 20  1  0  0  0  0
 19 21  2  0  0  0  0
 20 22  2  0  0  0  0
 13 17  1  0  0  0  0
 14 15  1  0  0  0  0
 21 22  1  0  0  0  0
M  END
>  <MolRegNo>
1141199

>  <m>
=

>  <Value>
1200

>  <Unit>
nM

>  <Type>
IC50

>  <pValue>
5.92

>  <Ligand Efficiency>
0

>  <Binding Efficiency>
0

>  <Surface Efficiency>
0

>  <Assay Index>
585474

>  <Assay Category>


>  <Assay Organism>
Homo sapiens

>  <Target ID>
17045

>  <Target Name>
Cytochrome P450 3A4

>  <Target Organism>
Homo sapiens

>  <Target Description>
Target is a single protein chain

>  <Sequence Accession>
P08684

>  <Reference>
Bioorg Med Chem 19 (7), 2428-2442 (2011)

>  <Pubmed ID>
21429754

>  <DOI>
10.1016/j.bmc.2011.02.009

$$$$
1141200
Actelion Java MolfileCreator 1.0

 24 26  0  0  0  0  0  0  0  0999 V2000
    0.0000   -0.0000   -0.0000 O   0  0  0  0  0  0  0  0  0  0  0  0
   -0.0119    1.5059   -0.0000 C   0  0  0  0  0  0  0  0  0  0  0  0
   -1.3043   -0.7352   -0.0000 C   0  0  0  0  0  0  0  0  0  0  0  0
   -1.3162    2.2647   -0.0000 C   0  0  0  0  0  0  0  0  0  0  0  0
    1.2806    2.2766   -0.0000 C   0  0  0  0  0  0  0  0  0  0  0  0
   -1.3280    3.7706   -0.0000 C   0  0  0  0  0  0  0  0  0  0  0  0
    1.2687    3.7825   -0.0000 C   0  0  0  0  0  0  0  0  0  0  0  0
   -0.0474    4.5295   -0.0000 C   0  0  0  0  0  0  0  0  0  0  0  0
   -0.0593    6.0354   -0.0000 C   0  0  0  0  0  0  0  0  0  0  0  0
    1.2332    6.7942   -0.0000 C   0  0  0  0  0  0  0  0  0  0  0  0
   -1.3636    6.7942   -0.0000 C   0  0  0  0  0  0  0  0  0  0  0  0
    1.2213    8.3120   -0.0000 C   0  0  0  0  0  0  0  0  0  0  0  0
   -1.3754    8.3120   -0.0000 C   0  0  0  0  0  0  0  0  0  0  0  0
   -0.0830    9.0708   -0.0000 C   0  0  0  0  0  0  0  0  0  0  0  0
    2.5019    9.0708   -0.0000 C   0  0  0  0  0  0  0  0  0  0  0  0
    1.4229   10.1498   -0.0000 O   0  0  0  0  0  0  0  0  0  0  0  0
    3.7825    8.3357   -0.0000 C   0  0  0  0  0  0  0  0  0  0  0  0
    3.5453   10.1498   -0.0000 C   0  0  0  0  0  0  0  0  0  0  0  0
    5.1342    8.9641   -0.0000 N   0  0  0  0  0  0  0  0  0  0  0  0
    3.9366    6.8654   -0.0000 C   0  0  0  0  0  0  0  0  0  0  0  0
    4.9801    9.7823   -0.0000 C   0  0  0  0  0  0  0  0  0  0  0  0
    3.1422   11.6083   -0.0000 C   0  0  0  0  0  0  0  0  0  0  0  0
    6.1302    7.8732   -0.0000 C   0  0  0  0  0  0  0  0  0  0  0  0
    5.3832    6.5689   -0.0000 N   0  0  0  0  0  0  0  0  0  0  0  0
  1  2  1  0  0  0  0
  1  3  1  0  0  0  0
  2  4  2  0  0  0  0
  2  5  1  0  0  0  0
  4  6  1  0  0  0  0
  5  7  2  0  0  0  0
  6  8  2  0  0  0  0
  8  9  1  0  0  0  0
  9 10  2  0  0  0  0
  9 11  1  0  0  0  0
 10 12  1  0  0  0  0
 11 13  2  0  0  0  0
 12 14  2  0  0  0  0
 12 15  1  0  0  0  0
 15 16  1  0  0  0  0
 15 17  1  0  0  0  0
 15 18  1  0  0  0  0
 17 19  1  0  0  0  0
 17 20  2  0  0  0  0
 18 21  1  0  0  0  0
 18 22  1  0  0  0  0
 19 23  2  0  0  0  0
 20 24  1  0  0  0  0
  7  8  1  0  0  0  0
 13 14  1  0  0  0  0
 23 24  1  0  0  0  0
M  END
>  <MolRegNo>
1141200

>  <m>
=

>  <Value>
2000

>  <Unit>
nM

>  <Type>
IC50

>  <pValue>
5.7

>  <Ligand Efficiency>
0

>  <Binding Efficiency>
0

>  <Surface Efficiency>
0

>  <Assay Index>
585474

>  <Assay Category>


>  <Assay Organism>
Homo sapiens

>  <Target ID>
17045

>  <Target Name>
Cytochrome P450 3A4

>  <Target Organism>
Homo sapiens

>  <Target Description>
Target is a single protein chain

>  <Sequence Accession>
P08684

>  <Reference>
Bioorg Med Chem 19 (7), 2428-2442 (2011)

>  <Pubmed ID>
21429754

>  <DOI>
10.1016/j.bmc.2011.02.009

$$$$
1141201
Actelion Java MolfileCreator 1.0

 23 25  0  0  0  0  0  0  0  0999 V2000
    0.0000   -0.0000   -0.0000 F   0  0  0  0  0  0  0  0  0  0  0  0
   -0.0119    1.5055   -0.0000 C   0  0  0  0  0  0  0  0  0  0  0  0
   -1.3159    2.2642   -0.0000 C   0  0  0  0  0  0  0  0  0  0  0  0
    1.2803    2.2761   -0.0000 C   0  0  0  0  0  0  0  0  0  0  0  0
   -1.3277    3.7698   -0.0000 C   0  0  0  0  0  0  0  0  0  0  0  0
    1.2684    3.7816   -0.0000 C   0  0  0  0  0  0  0  0  0  0  0  0
   -0.0474    4.5285   -0.0000 C   0  0  0  0  0  0  0  0  0  0  0  0
   -0.0593    6.0340   -0.0000 C   0  0  0  0  0  0  0  0  0  0  0  0
    1.2329    6.7927   -0.0000 C   0  0  0  0  0  0  0  0  0  0  0  0
   -1.3633    6.7927   -0.0000 C   0  0  0  0  0  0  0  0  0  0  0  0
    1.2210    8.3101   -0.0000 C   0  0  0  0  0  0  0  0  0  0  0  0
   -1.3751    8.3101   -0.0000 C   0  0  0  0  0  0  0  0  0  0  0  0
   -0.0830    9.0688   -0.0000 C   0  0  0  0  0  0  0  0  0  0  0  0
    2.5013    9.0688   -0.0000 C   0  0  0  0  0  0  0  0  0  0  0  0
    1.4226   10.1475   -0.0000 O   0  0  0  0  0  0  0  0  0  0  0  0
    3.7816    8.3338   -0.0000 C   0  0  0  0  0  0  0  0  0  0  0  0
    3.5445   10.1475   -0.0000 C   0  0  0  0  0  0  0  0  0  0  0  0
    5.1330    8.9621   -0.0000 N   0  0  0  0  0  0  0  0  0  0  0  0
    3.9357    6.8638   -0.0000 C   0  0  0  0  0  0  0  0  0  0  0  0
    4.9789    9.7800   -0.0000 C   0  0  0  0  0  0  0  0  0  0  0  0
    3.1415   11.6056   -0.0000 C   0  0  0  0  0  0  0  0  0  0  0  0
    6.1288    7.8715   -0.0000 C   0  0  0  0  0  0  0  0  0  0  0  0
    5.3938    6.5674   -0.0000 N   0  0  0  0  0  0  0  0  0  0  0  0
  1  2  1  0  0  0  0
  2  3  2  0  0  0  0
  2  4  1  0  0  0  0
  3  5  1  0  0  0  0
  4  6  2  0  0  0  0
  5  7  2  0  0  0  0
  7  8  1  0  0  0  0
  8  9  2  0  0  0  0
  8 10  1  0  0  0  0
  9 11  1  0  0  0  0
 10 12  2  0  0  0  0
 11 13  2  0  0  0  0
 11 14  1  0  0  0  0
 14 15  1  0  0  0  0
 14 16  1  0  0  0  0
 14 17  1  0  0  0  0
 16 18  1  0  0  0  0
 16 19  2  0  0  0  0
 17 20  1  0  0  0  0
 17 21  1  0  0  0  0
 18 22  2  0  0  0  0
 19 23  1  0  0  0  0
  6  7  1  0  0  0  0
 12 13  1  0  0  0  0
 22 23  1  0  0  0  0
M  END
>  <MolRegNo>
1141201

>  <m>
=

>  <Value>
2100

>  <Unit>
nM

>  <Type>
IC50

>  <pValue>
5.68

>  <Ligand Efficiency>
0

>  <Binding Efficiency>
0

>  <Surface Efficiency>
0

>  <Assay Index>
585474

>  <Assay Category>


>  <Assay Organism>
Homo sapiens

>  <Target ID>
17045

>  <Target Name>
Cytochrome P450 3A4

>  <Target Organism>
Homo sapiens

>  <Target Description>
Target is a single protein chain

>  <Sequence Accession>
P08684

>  <Reference>
Bioorg Med Chem 19 (7), 2428-2442 (2011)

>  <Pubmed ID>
21429754

>  <DOI>
10.1016/j.bmc.2011.02.009

$$$$
1141202
Actelion Java MolfileCreator 1.0

 23 25  0  0  0  0  0  0  0  0999 V2000
    0.0000   -0.0000   -0.0000 Cl  0  0  0  0  0  0  0  0  0  0  0  0
   -0.0119    1.5058   -0.0000 C   0  0  0  0  0  0  0  0  0  0  0  0
   -1.3161    2.2646   -0.0000 C   0  0  0  0  0  0  0  0  0  0  0  0
    1.2805    2.2764   -0.0000 C   0  0  0  0  0  0  0  0  0  0  0  0
   -1.3279    3.7703   -0.0000 C   0  0  0  0  0  0  0  0  0  0  0  0
    1.2686    3.7822   -0.0000 C   0  0  0  0  0  0  0  0  0  0  0  0
   -0.0474    4.5292   -0.0000 C   0  0  0  0  0  0  0  0  0  0  0  0
   -0.0593    6.0349   -0.0000 C   0  0  0  0  0  0  0  0  0  0  0  0
    1.2331    6.7937   -0.0000 C   0  0  0  0  0  0  0  0  0  0  0  0
   -1.3635    6.7937   -0.0000 C   0  0  0  0  0  0  0  0  0  0  0  0
    1.2212    8.3113   -0.0000 C   0  0  0  0  0  0  0  0  0  0  0  0
   -1.3753    8.3113   -0.0000 C   0  0  0  0  0  0  0  0  0  0  0  0
   -0.0830    9.0702   -0.0000 C   0  0  0  0  0  0  0  0  0  0  0  0
    2.5017    9.0702   -0.0000 C   0  0  0  0  0  0  0  0  0  0  0  0
    1.4228   10.1491   -0.0000 O   0  0  0  0  0  0  0  0  0  0  0  0
    3.7822    8.3351   -0.0000 C   0  0  0  0  0  0  0  0  0  0  0  0
    3.5451   10.1491   -0.0000 C   0  0  0  0  0  0  0  0  0  0  0  0
    5.1338    8.9635   -0.0000 N   0  0  0  0  0  0  0  0  0  0  0  0
    3.9363    6.8649   -0.0000 C   0  0  0  0  0  0  0  0  0  0  0  0
    4.9797    9.7815   -0.0000 C   0  0  0  0  0  0  0  0  0  0  0  0
    3.1420   11.6074   -0.0000 C   0  0  0  0  0  0  0  0  0  0  0  0
    6.1298    7.8727   -0.0000 C   0  0  0  0  0  0  0  0  0  0  0  0
    5.3828    6.5685   -0.0000 N   0  0  0  0  0  0  0  0  0  0  0  0
  1  2  1  0  0  0  0
  2  3  2  0  0  0  0
  2  4  1  0  0  0  0
  3  5  1  0  0  0  0
  4  6  2  0  0  0  0
  5  7  2  0  0  0  0
  7  8  1  0  0  0  0
  8  9  2  0  0  0  0
  8 10  1  0  0  0  0
  9 11  1  0  0  0  0
 10 12  2  0  0  0  0
 11 13  2  0  0  0  0
 11 14  1  0  0  0  0
 14 15  1  0  0  0  0
 14 16  1  0  0  0  0
 14 17  1  0  0  0  0
 16 18  1  0  0  0  0
 16 19  2  0  0  0  0
 17 20  1  0  0  0  0
 17 21  1  0  0  0  0
 18 22  2  0  0  0  0
 19 23  1  0  0  0  0
  6  7  1  0  0  0  0
 12 13  1  0  0  0  0
 22 23  1  0  0  0  0
M  END
>  <MolRegNo>
1141202

>  <m>
=

>  <Value>
2400

>  <Unit>
nM

>  <Type>
IC50

>  <pValue>
5.62

>  <Ligand Efficiency>
0

>  <Binding Efficiency>
0

>  <Surface Efficiency>
0

>  <Assay Index>
585474

>  <Assay Category>


>  <Assay Organism>
Homo sapiens

>  <Target ID>
17045

>  <Target Name>
Cytochrome P450 3A4

>  <Target Organism>
Homo sapiens

>  <Target Description>
Target is a single protein chain

>  <Sequence Accession>
P08684

>  <Reference>
Bioorg Med Chem 19 (7), 2428-2442 (2011)

>  <Pubmed ID>
21429754

>  <DOI>
10.1016/j.bmc.2011.02.009

$$$$
1141203
Actelion Java MolfileCreator 1.0

 22 24  0  0  0  0  0  0  0  0999 V2000
    0.0000   -0.0000   -0.0000 O   0  0  0  0  0  0  0  0  0  0  0  0
    1.0590   -1.0590   -0.0000 C   0  0  0  0  0  0  0  0  0  0  0  0
   -0.2499   -1.7968   -0.0000 C   0  0  0  0  0  0  0  0  0  0  0  0
    2.3442   -1.7968   -0.0000 C   0  0  0  0  0  0  0  0  0  0  0  0
    2.1062    0.0238   -0.0000 C   0  0  0  0  0  0  0  0  0  0  0  0
   -0.2618   -3.2961   -0.0000 C   0  0  0  0  0  0  0  0  0  0  0  0
   -1.5588   -1.0353   -0.0000 C   0  0  0  0  0  0  0  0  0  0  0  0
    3.7007   -1.1661   -0.0000 N   0  0  0  0  0  0  0  0  0  0  0  0
    2.4989   -3.2723   -0.0000 C   0  0  0  0  0  0  0  0  0  0  0  0
    3.5460   -0.3451   -0.0000 C   0  0  0  0  0  0  0  0  0  0  0  0
    1.7016    1.4874   -0.0000 C   0  0  0  0  0  0  0  0  0  0  0  0
   -1.5826   -4.0339   -0.0000 C   0  0  0  0  0  0  0  0  0  0  0  0
   -2.8678   -1.7730   -0.0000 C   0  0  0  0  0  0  0  0  0  0  0  0
    4.7003   -2.2609   -0.0000 C   0  0  0  0  0  0  0  0  0  0  0  0
    3.9506   -3.5698   -0.0000 N   0  0  0  0  0  0  0  0  0  0  0  0
   -2.8916   -3.2723   -0.0000 C   0  0  0  0  0  0  0  0  0  0  0  0
   -4.2005   -4.0101   -0.0000 C   0  0  0  0  0  0  0  0  0  0  0  0
   -5.5094   -3.2485   -0.0000 C   0  0  0  0  0  0  0  0  0  0  0  0
   -4.2124   -5.4975   -0.0000 C   0  0  0  0  0  0  0  0  0  0  0  0
   -6.8184   -3.9863   -0.0000 C   0  0  0  0  0  0  0  0  0  0  0  0
   -5.5213   -6.2353   -0.0000 C   0  0  0  0  0  0  0  0  0  0  0  0
   -6.8303   -5.4737   -0.0000 C   0  0  0  0  0  0  0  0  0  0  0  0
  1  2  1  0  0  0  0
  2  3  1  0  0  0  0
  2  4  1  0  0  0  0
  2  5  1  0  0  0  0
  3  6  2  0  0  0  0
  3  7  1  0  0  0  0
  4  8  1  0  0  0  0
  4  9  2  0  0  0  0
  5 10  1  0  0  0  0
  5 11  1  0  0  0  0
  6 12  1  0  0  0  0
  7 13  2  0  0  0  0
  8 14  2  0  0  0  0
  9 15  1  0  0  0  0
 12 16  2  0  0  0  0
 16 17  1  0  0  0  0
 17 18  2  0  0  0  0
 17 19  1  0  0  0  0
 18 20  1  0  0  0  0
 19 21  2  0  0  0  0
 20 22  2  0  0  0  0
 13 16  1  0  0  0  0
 14 15  1  0  0  0  0
 21 22  1  0  0  0  0
M  END
>  <MolRegNo>
1141203

>  <m>
=

>  <Value>
3700

>  <Unit>
nM

>  <Type>
IC50

>  <pValue>
5.43

>  <Ligand Efficiency>
0

>  <Binding Efficiency>
0

>  <Surface Efficiency>
0

>  <Assay Index>
585474

>  <Assay Category>


>  <Assay Organism>
Homo sapiens

>  <Target ID>
17045

>  <Target Name>
Cytochrome P450 3A4

>  <Target Organism>
Homo sapiens

>  <Target Description>
Target is a single protein chain

>  <Sequence Accession>
P08684

>  <Reference>
Bioorg Med Chem 19 (7), 2428-2442 (2011)

>  <Pubmed ID>
21429754

>  <DOI>
10.1016/j.bmc.2011.02.009

$$$$
1141204
Actelion Java MolfileCreator 1.0

 24 26  0  0  0  0  0  0  0  0999 V2000
    0.0000   -0.0000   -0.0000 O   0  0  0  0  0  0  0  0  0  0  0  0
    1.2865    0.7624   -0.0000 C   0  0  0  0  0  0  0  0  0  0  0  0
   -1.3104    0.7624   -0.0000 C   0  0  0  0  0  0  0  0  0  0  0  0
    1.2746    2.2753   -0.0000 C   0  0  0  0  0  0  0  0  0  0  0  0
    2.5850    0.0238   -0.0000 C   0  0  0  0  0  0  0  0  0  0  0  0
    2.5612    3.0377   -0.0000 C   0  0  0  0  0  0  0  0  0  0  0  0
    3.8715    0.7862   -0.0000 C   0  0  0  0  0  0  0  0  0  0  0  0
    3.8477    2.2991   -0.0000 C   0  0  0  0  0  0  0  0  0  0  0  0
    5.1342    3.0615   -0.0000 C   0  0  0  0  0  0  0  0  0  0  0  0
    6.4208    2.3229   -0.0000 C   0  0  0  0  0  0  0  0  0  0  0  0
    5.1223    4.5744   -0.0000 C   0  0  0  0  0  0  0  0  0  0  0  0
    7.7192    3.0853   -0.0000 C   0  0  0  0  0  0  0  0  0  0  0  0
    6.4089    5.3367   -0.0000 C   0  0  0  0  0  0  0  0  0  0  0  0
    7.7073    4.6101   -0.0000 C   0  0  0  0  0  0  0  0  0  0  0  0
    8.9938    5.3725   -0.0000 C   0  0  0  0  0  0  0  0  0  0  0  0
    7.9098    6.4565   -0.0000 O   0  0  0  0  0  0  0  0  0  0  0  0
   10.2804    4.6339   -0.0000 C   0  0  0  0  0  0  0  0  0  0  0  0
   10.0421    6.4565   -0.0000 C   0  0  0  0  0  0  0  0  0  0  0  0
   11.6384    5.2653   -0.0000 N   0  0  0  0  0  0  0  0  0  0  0  0
   10.4352    3.1568   -0.0000 C   0  0  0  0  0  0  0  0  0  0  0  0
   11.4835    6.0872   -0.0000 C   0  0  0  0  0  0  0  0  0  0  0  0
    9.6371    7.9217   -0.0000 C   0  0  0  0  0  0  0  0  0  0  0  0
   12.6390    4.1693   -0.0000 C   0  0  0  0  0  0  0  0  0  0  0  0
   11.8886    2.8590   -0.0000 N   0  0  0  0  0  0  0  0  0  0  0  0
  1  2  1  0  0  0  0
  1  3  1  0  0  0  0
  2  4  2  0  0  0  0
  2  5  1  0  0  0  0
  4  6  1  0  0  0  0
  5  7  2  0  0  0  0
  6  8  2  0  0  0  0
  8  9  1  0  0  0  0
  9 10  2  0  0  0  0
  9 11  1  0  0  0  0
 10 12  1  0  0  0  0
 11 13  2  0  0  0  0
 12 14  2  0  0  0  0
 14 15  1  0  0  0  0
 15 16  1  0  0  0  0
 15 17  1  0  0  0  0
 15 18  1  0  0  0  0
 17 19  1  0  0  0  0
 17 20  2  0  0  0  0
 18 21  1  0  0  0  0
 18 22  1  0  0  0  0
 19 23  2  0  0  0  0
 20 24  1  0  0  0  0
  7  8  1  0  0  0  0
 13 14  1  0  0  0  0
 23 24  1  0  0  0  0
M  END
>  <MolRegNo>
1141204

>  <m>
=

>  <Value>
4900

>  <Unit>
nM

>  <Type>
IC50

>  <pValue>
5.31

>  <Ligand Efficiency>
0

>  <Binding Efficiency>
0

>  <Surface Efficiency>
0

>  <Assay Index>
585474

>  <Assay Category>


>  <Assay Organism>
Homo sapiens

>  <Target ID>
17045

>  <Target Name>
Cytochrome P450 3A4

>  <Target Organism>
Homo sapiens

>  <Target Description>
Target is a single protein chain

>  <Sequence Accession>
P08684

>  <Reference>
Bioorg Med Chem 19 (7), 2428-2442 (2011)

>  <Pubmed ID>
21429754

>  <DOI>
10.1016/j.bmc.2011.02.009

$$$$
1141205
Actelion Java MolfileCreator 1.0

 23 25  0  0  0  0  0  0  0  0999 V2000
    0.0000   -0.0000   -0.0000 F   0  0  0  0  0  0  0  0  0  0  0  0
    1.2865    0.7624   -0.0000 C   0  0  0  0  0  0  0  0  0  0  0  0
    1.2746    2.2752   -0.0000 C   0  0  0  0  0  0  0  0  0  0  0  0
    2.5849    0.0238   -0.0000 C   0  0  0  0  0  0  0  0  0  0  0  0
    2.5610    3.0375   -0.0000 C   0  0  0  0  0  0  0  0  0  0  0  0
    3.8713    0.7862   -0.0000 C   0  0  0  0  0  0  0  0  0  0  0  0
    3.8475    2.2990   -0.0000 C   0  0  0  0  0  0  0  0  0  0  0  0
    5.1340    3.0613   -0.0000 C   0  0  0  0  0  0  0  0  0  0  0  0
    6.4205    2.3228   -0.0000 C   0  0  0  0  0  0  0  0  0  0  0  0
    5.1221    4.5861   -0.0000 C   0  0  0  0  0  0  0  0  0  0  0  0
    7.7189    3.0852   -0.0000 C   0  0  0  0  0  0  0  0  0  0  0  0
    6.4086    5.3484   -0.0000 C   0  0  0  0  0  0  0  0  0  0  0  0
    7.7070    4.6099   -0.0000 C   0  0  0  0  0  0  0  0  0  0  0  0
    8.9934    5.3722   -0.0000 C   0  0  0  0  0  0  0  0  0  0  0  0
    7.9095    6.4562   -0.0000 O   0  0  0  0  0  0  0  0  0  0  0  0
   10.2799    4.6337   -0.0000 C   0  0  0  0  0  0  0  0  0  0  0  0
   10.0417    6.4562   -0.0000 C   0  0  0  0  0  0  0  0  0  0  0  0
   11.6379    5.2650   -0.0000 N   0  0  0  0  0  0  0  0  0  0  0  0
   10.4348    3.1566   -0.0000 C   0  0  0  0  0  0  0  0  0  0  0  0
   11.4830    6.0869   -0.0000 C   0  0  0  0  0  0  0  0  0  0  0  0
    9.6367    7.9214   -0.0000 C   0  0  0  0  0  0  0  0  0  0  0  0
   12.6384    4.1691   -0.0000 C   0  0  0  0  0  0  0  0  0  0  0  0
   11.8880    2.8588   -0.0000 N   0  0  0  0  0  0  0  0  0  0  0  0
  1  2  1  0  0  0  0
  2  3  2  0  0  0  0
  2  4  1  0  0  0  0
  3  5  1  0  0  0  0
  4  6  2  0  0  0  0
  5  7  2  0  0  0  0
  7  8  1  0  0  0  0
  8  9  2  0  0  0  0
  8 10  1  0  0  0  0
  9 11  1  0  0  0  0
 10 12  2  0  0  0  0
 11 13  2  0  0  0  0
 13 14  1  0  0  0  0
 14 15  1  0  0  0  0
 14 16  1  0  0  0  0
 14 17  1  0  0  0  0
 16 18  1  0  0  0  0
 16 19  2  0  0  0  0
 17 20  1  0  0  0  0
 17 21  1  0  0  0  0
 18 22  2  0  0  0  0
 19 23  1  0  0  0  0
  6  7  1  0  0  0  0
 12 13  1  0  0  0  0
 22 23  1  0  0  0  0
M  END
>  <MolRegNo>
1141205

>  <m>
=

>  <Value>
5300

>  <Unit>
nM

>  <Type>
IC50

>  <pValue>
5.28

>  <Ligand Efficiency>
0

>  <Binding Efficiency>
0

>  <Surface Efficiency>
0

>  <Assay Index>
585474

>  <Assay Category>


>  <Assay Organism>
Homo sapiens

>  <Target ID>
17045

>  <Target Name>
Cytochrome P450 3A4

>  <Target Organism>
Homo sapiens

>  <Target Description>
Target is a single protein chain

>  <Sequence Accession>
P08684

>  <Reference>
Bioorg Med Chem 19 (7), 2428-2442 (2011)

>  <Pubmed ID>
21429754

>  <DOI>
10.1016/j.bmc.2011.02.009

$$$$
1141206
Actelion Java MolfileCreator 1.0

 23 25  0  0  0  0  0  0  0  0999 V2000
    0.0000   -0.0000   -0.0000 Cl  0  0  0  0  0  0  0  0  0  0  0  0
    1.2871    0.7627   -0.0000 C   0  0  0  0  0  0  0  0  0  0  0  0
    1.2752    2.2762   -0.0000 C   0  0  0  0  0  0  0  0  0  0  0  0
    2.5861    0.0238   -0.0000 C   0  0  0  0  0  0  0  0  0  0  0  0
    2.5623    3.0390   -0.0000 C   0  0  0  0  0  0  0  0  0  0  0  0
    3.8732    0.7866   -0.0000 C   0  0  0  0  0  0  0  0  0  0  0  0
    3.8493    2.3001   -0.0000 C   0  0  0  0  0  0  0  0  0  0  0  0
    5.1364    3.0628   -0.0000 C   0  0  0  0  0  0  0  0  0  0  0  0
    6.4235    2.3239   -0.0000 C   0  0  0  0  0  0  0  0  0  0  0  0
    5.1245    4.5763   -0.0000 C   0  0  0  0  0  0  0  0  0  0  0  0
    7.7225    3.0866   -0.0000 C   0  0  0  0  0  0  0  0  0  0  0  0
    6.4116    5.3390   -0.0000 C   0  0  0  0  0  0  0  0  0  0  0  0
    7.7106    4.6121   -0.0000 C   0  0  0  0  0  0  0  0  0  0  0  0
    8.9977    5.3748   -0.0000 C   0  0  0  0  0  0  0  0  0  0  0  0
    7.9132    6.4593   -0.0000 O   0  0  0  0  0  0  0  0  0  0  0  0
   10.2848    4.6359   -0.0000 C   0  0  0  0  0  0  0  0  0  0  0  0
   10.0464    6.4593   -0.0000 C   0  0  0  0  0  0  0  0  0  0  0  0
   11.6434    5.2675   -0.0000 N   0  0  0  0  0  0  0  0  0  0  0  0
   10.4397    3.1581   -0.0000 C   0  0  0  0  0  0  0  0  0  0  0  0
   11.4884    6.0898   -0.0000 C   0  0  0  0  0  0  0  0  0  0  0  0
    9.6412    7.9251   -0.0000 C   0  0  0  0  0  0  0  0  0  0  0  0
   12.6444    4.1711   -0.0000 C   0  0  0  0  0  0  0  0  0  0  0  0
   11.8936    2.8602   -0.0000 N   0  0  0  0  0  0  0  0  0  0  0  0
  1  2  1  0  0  0  0
  2  3  2  0  0  0  0
  2  4  1  0  0  0  0
  3  5  1  0  0  0  0
  4  6  2  0  0  0  0
  5  7  2  0  0  0  0
  7  8  1  0  0  0  0
  8  9  2  0  0  0  0
  8 10  1  0  0  0  0
  9 11  1  0  0  0  0
 10 12  2  0  0  0  0
 11 13  2  0  0  0  0
 13 14  1  0  0  0  0
 14 15  1  0  0  0  0
 14 16  1  0  0  0  0
 14 17  1  0  0  0  0
 16 18  1  0  0  0  0
 16 19  2  0  0  0  0
 17 20  1  0  0  0  0
 17 21  1  0  0  0  0
 18 22  2  0  0  0  0
 19 23  1  0  0  0  0
  6  7  1  0  0  0  0
 12 13  1  0  0  0  0
 22 23  1  0  0  0  0
M  END
>  <MolRegNo>
1141206

>  <m>
=

>  <Value>
7600

>  <Unit>
nM

>  <Type>
IC50

>  <pValue>
5.12

>  <Ligand Efficiency>
0

>  <Binding Efficiency>
0

>  <Surface Efficiency>
0

>  <Assay Index>
585474

>  <Assay Category>


>  <Assay Organism>
Homo sapiens

>  <Target ID>
17045

>  <Target Name>
Cytochrome P450 3A4

>  <Target Organism>
Homo sapiens

>  <Target Description>
Target is a single protein chain

>  <Sequence Accession>
P08684

>  <Reference>
Bioorg Med Chem 19 (7), 2428-2442 (2011)

>  <Pubmed ID>
21429754

>  <DOI>
10.1016/j.bmc.2011.02.009

$$$$
1141207
Actelion Java MolfileCreator 1.0

 26 28  0  0  0  0  0  0  0  0999 V2000
    0.0000   -0.0000   -0.0000 O   0  0  0  0  0  0  0  0  0  0  0  0
    1.2852   -0.7378   -0.0000 C   0  0  0  0  0  0  0  0  0  0  0  0
    2.5703    0.0238   -0.0000 N   0  0  0  0  0  0  0  0  0  0  0  0
    1.2733   -2.2252   -0.0000 C   0  0  0  0  0  0  0  0  0  0  0  0
    2.5584    1.5351   -0.0000 C   0  0  0  0  0  0  0  0  0  0  0  0
    3.8436    2.2966   -0.0000 C   0  0  0  0  0  0  0  0  0  0  0  0
    1.2376    2.2966   -0.0000 C   0  0  0  0  0  0  0  0  0  0  0  0
    3.8317    3.8079   -0.0000 C   0  0  0  0  0  0  0  0  0  0  0  0
    1.2257    3.8079   -0.0000 C   0  0  0  0  0  0  0  0  0  0  0  0
    5.1169    4.5695   -0.0000 C   0  0  0  0  0  0  0  0  0  0  0  0
    2.5227    4.5695   -0.0000 C   0  0  0  0  0  0  0  0  0  0  0  0
    6.4021    3.8317   -0.0000 C   0  0  0  0  0  0  0  0  0  0  0  0
    5.1050    6.0808   -0.0000 C   0  0  0  0  0  0  0  0  0  0  0  0
    7.6991    4.5933   -0.0000 C   0  0  0  0  0  0  0  0  0  0  0  0
    6.3902    6.8423   -0.0000 C   0  0  0  0  0  0  0  0  0  0  0  0
    7.6872    6.1165   -0.0000 C   0  0  0  0  0  0  0  0  0  0  0  0
    8.9724    6.8780   -0.0000 C   0  0  0  0  0  0  0  0  0  0  0  0
    7.8895    7.9609   -0.0000 O   0  0  0  0  0  0  0  0  0  0  0  0
   10.2576    6.1403   -0.0000 C   0  0  0  0  0  0  0  0  0  0  0  0
   10.0196    7.9609   -0.0000 C   0  0  0  0  0  0  0  0  0  0  0  0
   11.6141    6.7709   -0.0000 N   0  0  0  0  0  0  0  0  0  0  0  0
   10.4123    4.6647   -0.0000 C   0  0  0  0  0  0  0  0  0  0  0  0
   11.4594    7.5920   -0.0000 C   0  0  0  0  0  0  0  0  0  0  0  0
    9.6150    9.4246   -0.0000 C   0  0  0  0  0  0  0  0  0  0  0  0
   12.6137    5.6762   -0.0000 C   0  0  0  0  0  0  0  0  0  0  0  0
   11.8640    4.3672   -0.0000 N   0  0  0  0  0  0  0  0  0  0  0  0
  1  2  2  0  0  0  0
  2  3  1  0  0  0  0
  2  4  1  0  0  0  0
  3  5  1  0  0  0  0
  5  6  2  0  0  0  0
  5  7  1  0  0  0  0
  6  8  1  0  0  0  0
  7  9  2  0  0  0  0
  8 10  1  0  0  0  0
  8 11  2  0  0  0  0
 10 12  2  0  0  0  0
 10 13  1  0  0  0  0
 12 14  1  0  0  0  0
 13 15  2  0  0  0  0
 14 16  2  0  0  0  0
 16 17  1  0  0  0  0
 17 18  1  0  0  0  0
 17 19  1  0  0  0  0
 17 20  1  0  0  0  0
 19 21  1  0  0  0  0
 19 22  2  0  0  0  0
 20 23  1  0  0  0  0
 20 24  1  0  0  0  0
 21 25  2  0  0  0  0
 22 26  1  0  0  0  0
  9 11  1  0  0  0  0
 15 16  1  0  0  0  0
 25 26  1  0  0  0  0
M  END
>  <MolRegNo>
1141207

>  <m>
=

>  <Value>
7100

>  <Unit>
nM

>  <Type>
IC50

>  <pValue>
5.15

>  <Ligand Efficiency>
0

>  <Binding Efficiency>
0

>  <Surface Efficiency>
0

>  <Assay Index>
585474

>  <Assay Category>


>  <Assay Organism>
Homo sapiens

>  <Target ID>
17045

>  <Target Name>
Cytochrome P450 3A4

>  <Target Organism>
Homo sapiens

>  <Target Description>
Target is a single protein chain

>  <Sequence Accession>
P08684

>  <Reference>
Bioorg Med Chem 19 (7), 2428-2442 (2011)

>  <Pubmed ID>
21429754

>  <DOI>
10.1016/j.bmc.2011.02.009

$$$$
1141208
Actelion Java MolfileCreator 1.0

 26 28  0  0  0  0  0  0  0  0999 V2000
    0.0000   -0.0000   -0.0000 O   0  0  0  0  0  0  0  0  0  0  0  0
   -1.3098    0.7621   -0.0000 C   0  0  0  0  0  0  0  0  0  0  0  0
   -1.3217    2.2743   -0.0000 N   0  0  0  0  0  0  0  0  0  0  0  0
   -2.6197    0.0238   -0.0000 C   0  0  0  0  0  0  0  0  0  0  0  0
   -0.0357    3.0364   -0.0000 C   0  0  0  0  0  0  0  0  0  0  0  0
   -0.0476    4.5487   -0.0000 C   0  0  0  0  0  0  0  0  0  0  0  0
    1.2622    2.2982   -0.0000 C   0  0  0  0  0  0  0  0  0  0  0  0
    1.2384    5.3108   -0.0000 C   0  0  0  0  0  0  0  0  0  0  0  0
    2.5482    3.0602   -0.0000 C   0  0  0  0  0  0  0  0  0  0  0  0
    2.5244    4.5725   -0.0000 C   0  0  0  0  0  0  0  0  0  0  0  0
    3.8104    5.3346   -0.0000 C   0  0  0  0  0  0  0  0  0  0  0  0
    5.0964    4.5963   -0.0000 C   0  0  0  0  0  0  0  0  0  0  0  0
    3.7985    6.8468   -0.0000 C   0  0  0  0  0  0  0  0  0  0  0  0
    6.3943    5.3584   -0.0000 C   0  0  0  0  0  0  0  0  0  0  0  0
    5.0845    7.6089   -0.0000 C   0  0  0  0  0  0  0  0  0  0  0  0
    6.3824    6.8826   -0.0000 C   0  0  0  0  0  0  0  0  0  0  0  0
    7.6685    7.6446   -0.0000 C   0  0  0  0  0  0  0  0  0  0  0  0
    6.5849    8.7282   -0.0000 O   0  0  0  0  0  0  0  0  0  0  0  0
    8.9545    6.9064   -0.0000 C   0  0  0  0  0  0  0  0  0  0  0  0
    8.7163    8.7282   -0.0000 C   0  0  0  0  0  0  0  0  0  0  0  0
   10.3119    7.5375   -0.0000 N   0  0  0  0  0  0  0  0  0  0  0  0
    9.1093    5.4298   -0.0000 C   0  0  0  0  0  0  0  0  0  0  0  0
   10.1571    8.3591   -0.0000 C   0  0  0  0  0  0  0  0  0  0  0  0
    8.3115   10.1929   -0.0000 C   0  0  0  0  0  0  0  0  0  0  0  0
   11.3122    6.4420   -0.0000 C   0  0  0  0  0  0  0  0  0  0  0  0
   10.5620    5.1321   -0.0000 N   0  0  0  0  0  0  0  0  0  0  0  0
  1  2  2  0  0  0  0
  2  3  1  0  0  0  0
  2  4  1  0  0  0  0
  3  5  1  0  0  0  0
  5  6  2  0  0  0  0
  5  7  1  0  0  0  0
  6  8  1  0  0  0  0
  7  9  2  0  0  0  0
  8 10  2  0  0  0  0
 10 11  1  0  0  0  0
 11 12  2  0  0  0  0
 11 13  1  0  0  0  0
 12 14  1  0  0  0  0
 13 15  2  0  0  0  0
 14 16  2  0  0  0  0
 16 17  1  0  0  0  0
 17 18  1  0  0  0  0
 17 19  1  0  0  0  0
 17 20  1  0  0  0  0
 19 21  1  0  0  0  0
 19 22  2  0  0  0  0
 20 23  1  0  0  0  0
 20 24  1  0  0  0  0
 21 25  2  0  0  0  0
 22 26  1  0  0  0  0
  9 10  1  0  0  0  0
 15 16  1  0  0  0  0
 25 26  1  0  0  0  0
M  END
>  <MolRegNo>
1141208

>  <m>
=

>  <Value>
1000

>  <Unit>
nM

>  <Type>
IC50

>  <pValue>
6

>  <Ligand Efficiency>
0

>  <Binding Efficiency>
0

>  <Surface Efficiency>
0

>  <Assay Index>
585474

>  <Assay Category>


>  <Assay Organism>
Homo sapiens

>  <Target ID>
17045

>  <Target Name>
Cytochrome P450 3A4

>  <Target Organism>
Homo sapiens

>  <Target Description>
Target is a single protein chain

>  <Sequence Accession>
P08684

>  <Reference>
Bioorg Med Chem 19 (7), 2428-2442 (2011)

>  <Pubmed ID>
21429754

>  <DOI>
10.1016/j.bmc.2011.02.009

$$$$
1141209
Actelion Java MolfileCreator 1.0

 26 28  0  0  0  0  0  0  0  0999 V2000
    0.0000   -0.0000   -0.0000 O   0  0  0  0  0  0  0  0  0  0  0  0
    1.2846    0.7613   -0.0000 C   0  0  0  0  0  0  0  0  0  0  0  0
    2.5693    0.0238   -0.0000 N   0  0  0  0  0  0  0  0  0  0  0  0
    1.2727    2.2719   -0.0000 C   0  0  0  0  0  0  0  0  0  0  0  0
    2.5574   -1.4630   -0.0000 C   0  0  0  0  0  0  0  0  0  0  0  0
    2.5574    3.0331   -0.0000 C   0  0  0  0  0  0  0  0  0  0  0  0
   -0.0476    3.0331   -0.0000 C   0  0  0  0  0  0  0  0  0  0  0  0
    2.5455    4.5438   -0.0000 C   0  0  0  0  0  0  0  0  0  0  0  0
   -0.0595    4.5438   -0.0000 C   0  0  0  0  0  0  0  0  0  0  0  0
    3.8301    5.3050   -0.0000 C   0  0  0  0  0  0  0  0  0  0  0  0
    1.2370    5.3050   -0.0000 C   0  0  0  0  0  0  0  0  0  0  0  0
    5.1147    4.5676   -0.0000 C   0  0  0  0  0  0  0  0  0  0  0  0
    3.8182    6.8276   -0.0000 C   0  0  0  0  0  0  0  0  0  0  0  0
    6.4112    5.3288   -0.0000 C   0  0  0  0  0  0  0  0  0  0  0  0
    5.1028    7.5888   -0.0000 C   0  0  0  0  0  0  0  0  0  0  0  0
    6.3994    6.8514   -0.0000 C   0  0  0  0  0  0  0  0  0  0  0  0
    7.6840    7.6126   -0.0000 C   0  0  0  0  0  0  0  0  0  0  0  0
    6.6016    8.6950   -0.0000 O   0  0  0  0  0  0  0  0  0  0  0  0
    8.9686    6.8751   -0.0000 C   0  0  0  0  0  0  0  0  0  0  0  0
    8.7307    8.6950   -0.0000 C   0  0  0  0  0  0  0  0  0  0  0  0
   10.3246    7.5056   -0.0000 N   0  0  0  0  0  0  0  0  0  0  0  0
    9.1232    5.4002   -0.0000 C   0  0  0  0  0  0  0  0  0  0  0  0
   10.1700    8.3263   -0.0000 C   0  0  0  0  0  0  0  0  0  0  0  0
    8.3263   10.1581   -0.0000 C   0  0  0  0  0  0  0  0  0  0  0  0
   11.3238    6.4112   -0.0000 C   0  0  0  0  0  0  0  0  0  0  0  0
   10.5744    5.1028   -0.0000 N   0  0  0  0  0  0  0  0  0  0  0  0
  1  2  2  0  0  0  0
  2  3  1  0  0  0  0
  2  4  1  0  0  0  0
  3  5  1  0  0  0  0
  4  6  2  0  0  0  0
  4  7  1  0  0  0  0
  6  8  1  0  0  0  0
  7  9  2  0  0  0  0
  8 10  1  0  0  0  0
  8 11  2  0  0  0  0
 10 12  2  0  0  0  0
 10 13  1  0  0  0  0
 12 14  1  0  0  0  0
 13 15  2  0  0  0  0
 14 16  2  0  0  0  0
 16 17  1  0  0  0  0
 17 18  1  0  0  0  0
 17 19  1  0  0  0  0
 17 20  1  0  0  0  0
 19 21  1  0  0  0  0
 19 22  2  0  0  0  0
 20 23  1  0  0  0  0
 20 24  1  0  0  0  0
 21 25  2  0  0  0  0
 22 26  1  0  0  0  0
  9 11  1  0  0  0  0
 15 16  1  0  0  0  0
 25 26  1  0  0  0  0
M  END
>  <MolRegNo>
1141209

>  <m>
=

>  <Value>
8100

>  <Unit>
nM

>  <Type>
IC50

>  <pValue>
5.09

>  <Ligand Efficiency>
0

>  <Binding Efficiency>
0

>  <Surface Efficiency>
0

>  <Assay Index>
585474

>  <Assay Category>


>  <Assay Organism>
Homo sapiens

>  <Target ID>
17045

>  <Target Name>
Cytochrome P450 3A4

>  <Target Organism>
Homo sapiens

>  <Target Description>
Target is a single protein chain

>  <Sequence Accession>
P08684

>  <Reference>
Bioorg Med Chem 19 (7), 2428-2442 (2011)

>  <Pubmed ID>
21429754

>  <DOI>
10.1016/j.bmc.2011.02.009

$$$$
1141210
Actelion Java MolfileCreator 1.0

 27 29  0  0  0  0  0  0  0  0999 V2000
    0.0000   -0.0000   -0.0000 S   0  0  0  0  0  0  0  0  0  0  0  0
    1.4396    0.4164   -0.0000 O   0  0  0  0  0  0  0  0  0  0  0  0
    0.7257   -1.2730   -0.0000 O   0  0  0  0  0  0  0  0  0  0  0  0
   -1.3087   -0.7376   -0.0000 N   0  0  0  0  0  0  0  0  0  0  0  0
   -0.0119    1.5109   -0.0000 C   0  0  0  0  0  0  0  0  0  0  0  0
   -1.3206   -2.2248   -0.0000 C   0  0  0  0  0  0  0  0  0  0  0  0
    1.2730    2.2724   -0.0000 C   0  0  0  0  0  0  0  0  0  0  0  0
   -1.3325    2.2724   -0.0000 C   0  0  0  0  0  0  0  0  0  0  0  0
    1.2611    3.7833   -0.0000 C   0  0  0  0  0  0  0  0  0  0  0  0
   -1.3444    3.7833   -0.0000 C   0  0  0  0  0  0  0  0  0  0  0  0
    2.5460    4.5447   -0.0000 C   0  0  0  0  0  0  0  0  0  0  0  0
   -0.0476    4.5447   -0.0000 C   0  0  0  0  0  0  0  0  0  0  0  0
    3.8309    3.8071   -0.0000 C   0  0  0  0  0  0  0  0  0  0  0  0
    2.5341    6.0676   -0.0000 C   0  0  0  0  0  0  0  0  0  0  0  0
    5.1277    4.5685   -0.0000 C   0  0  0  0  0  0  0  0  0  0  0  0
    3.8190    6.8290   -0.0000 C   0  0  0  0  0  0  0  0  0  0  0  0
    5.1158    6.0914   -0.0000 C   0  0  0  0  0  0  0  0  0  0  0  0
    6.4007    6.8528   -0.0000 C   0  0  0  0  0  0  0  0  0  0  0  0
    5.3181    7.9355   -0.0000 O   0  0  0  0  0  0  0  0  0  0  0  0
    7.6856    6.1152   -0.0000 C   0  0  0  0  0  0  0  0  0  0  0  0
    7.4477    7.9355   -0.0000 C   0  0  0  0  0  0  0  0  0  0  0  0
    9.0419    6.7457   -0.0000 N   0  0  0  0  0  0  0  0  0  0  0  0
    7.8403    4.6399   -0.0000 C   0  0  0  0  0  0  0  0  0  0  0  0
    8.8872    7.5666   -0.0000 C   0  0  0  0  0  0  0  0  0  0  0  0
    7.0432    9.3988   -0.0000 C   0  0  0  0  0  0  0  0  0  0  0  0
   10.0413    5.6512   -0.0000 C   0  0  0  0  0  0  0  0  0  0  0  0
    9.2917    4.3425   -0.0000 N   0  0  0  0  0  0  0  0  0  0  0  0
  1  2  2  0  0  0  0
  1  3  2  0  0  0  0
  1  4  1  0  0  0  0
  1  5  1  0  0  0  0
  4  6  1  0  0  0  0
  5  7  2  0  0  0  0
  5  8  1  0  0  0  0
  7  9  1  0  0  0  0
  8 10  2  0  0  0  0
  9 11  1  0  0  0  0
  9 12  2  0  0  0  0
 11 13  2  0  0  0  0
 11 14  1  0  0  0  0
 13 15  1  0  0  0  0
 14 16  2  0  0  0  0
 15 17  2  0  0  0  0
 17 18  1  0  0  0  0
 18 19  1  0  0  0  0
 18 20  1  0  0  0  0
 18 21  1  0  0  0  0
 20 22  1  0  0  0  0
 20 23  2  0  0  0  0
 21 24  1  0  0  0  0
 21 25  1  0  0  0  0
 22 26  2  0  0  0  0
 23 27  1  0  0  0  0
 10 12  1  0  0  0  0
 16 17  1  0  0  0  0
 26 27  1  0  0  0  0
M  END
>  <MolRegNo>
1141210

>  <m>
=

>  <Value>
3300

>  <Unit>
nM

>  <Type>
IC50

>  <pValue>
5.48

>  <Ligand Efficiency>
0

>  <Binding Efficiency>
0

>  <Surface Efficiency>
0

>  <Assay Index>
585474

>  <Assay Category>


>  <Assay Organism>
Homo sapiens

>  <Target ID>
17045

>  <Target Name>
Cytochrome P450 3A4

>  <Target Organism>
Homo sapiens

>  <Target Description>
Target is a single protein chain

>  <Sequence Accession>
P08684

>  <Reference>
Bioorg Med Chem 19 (7), 2428-2442 (2011)

>  <Pubmed ID>
21429754

>  <DOI>
10.1016/j.bmc.2011.02.009

$$$$
1141211
Actelion Java MolfileCreator 1.0

 27 29  0  0  0  0  0  0  0  0999 V2000
    0.0000   -0.0000   -0.0000 O   0  0  0  0  0  0  0  0  0  0  0  0
    1.2846   -0.7374   -0.0000 C   0  0  0  0  0  0  0  0  0  0  0  0
    2.5691    0.0238   -0.0000 N   0  0  0  0  0  0  0  0  0  0  0  0
    1.2727   -2.2242   -0.0000 N   0  0  0  0  0  0  0  0  0  0  0  0
    2.5572    1.5343   -0.0000 C   0  0  0  0  0  0  0  0  0  0  0  0
   -0.0357   -2.9616   -0.0000 C   0  0  0  0  0  0  0  0  0  0  0  0
    3.8418    2.2956   -0.0000 C   0  0  0  0  0  0  0  0  0  0  0  0
    1.2370    2.2956   -0.0000 C   0  0  0  0  0  0  0  0  0  0  0  0
    3.8299    3.8061   -0.0000 C   0  0  0  0  0  0  0  0  0  0  0  0
    1.2251    3.8061   -0.0000 C   0  0  0  0  0  0  0  0  0  0  0  0
    5.1145    4.5674   -0.0000 C   0  0  0  0  0  0  0  0  0  0  0  0
    2.5216    4.5674   -0.0000 C   0  0  0  0  0  0  0  0  0  0  0  0
    6.3991    3.8299   -0.0000 C   0  0  0  0  0  0  0  0  0  0  0  0
    5.1026    6.0898   -0.0000 C   0  0  0  0  0  0  0  0  0  0  0  0
    7.6955    4.5912   -0.0000 C   0  0  0  0  0  0  0  0  0  0  0  0
    6.3872    6.8510   -0.0000 C   0  0  0  0  0  0  0  0  0  0  0  0
    7.6836    6.1136   -0.0000 C   0  0  0  0  0  0  0  0  0  0  0  0
    8.9682    6.8748   -0.0000 C   0  0  0  0  0  0  0  0  0  0  0  0
    7.8858    7.9572   -0.0000 O   0  0  0  0  0  0  0  0  0  0  0  0
   10.2528    6.1374   -0.0000 C   0  0  0  0  0  0  0  0  0  0  0  0
   10.0149    7.9572   -0.0000 C   0  0  0  0  0  0  0  0  0  0  0  0
   11.6087    6.7678   -0.0000 N   0  0  0  0  0  0  0  0  0  0  0  0
   10.4074    4.6625   -0.0000 C   0  0  0  0  0  0  0  0  0  0  0  0
   11.4541    7.5885   -0.0000 C   0  0  0  0  0  0  0  0  0  0  0  0
    9.6105    9.4202   -0.0000 C   0  0  0  0  0  0  0  0  0  0  0  0
   12.6078    5.6735   -0.0000 C   0  0  0  0  0  0  0  0  0  0  0  0
   11.8585    4.3652   -0.0000 N   0  0  0  0  0  0  0  0  0  0  0  0
  1  2  2  0  0  0  0
  2  3  1  0  0  0  0
  2  4  1  0  0  0  0
  3  5  1  0  0  0  0
  4  6  1  0  0  0  0
  5  7  2  0  0  0  0
  5  8  1  0  0  0  0
  7  9  1  0  0  0  0
  8 10  2  0  0  0  0
  9 11  1  0  0  0  0
  9 12  2  0  0  0  0
 11 13  2  0  0  0  0
 11 14  1  0  0  0  0
 13 15  1  0  0  0  0
 14 16  2  0  0  0  0
 15 17  2  0  0  0  0
 17 18  1  0  0  0  0
 18 19  1  0  0  0  0
 18 20  1  0  0  0  0
 18 21  1  0  0  0  0
 20 22  1  0  0  0  0
 20 23  2  0  0  0  0
 21 24  1  0  0  0  0
 21 25  1  0  0  0  0
 22 26  2  0  0  0  0
 23 27  1  0  0  0  0
 10 12  1  0  0  0  0
 16 17  1  0  0  0  0
 26 27  1  0  0  0  0
M  END
>  <MolRegNo>
1141211

>  <m>
=

>  <Value>
5500

>  <Unit>
nM

>  <Type>
IC50

>  <pValue>
5.26

>  <Ligand Efficiency>
0

>  <Binding Efficiency>
0

>  <Surface Efficiency>
0

>  <Assay Index>
585474

>  <Assay Category>


>  <Assay Organism>
Homo sapiens

>  <Target ID>
17045

>  <Target Name>
Cytochrome P450 3A4

>  <Target Organism>
Homo sapiens

>  <Target Description>
Target is a single protein chain

>  <Sequence Accession>
P08684

>  <Reference>
Bioorg Med Chem 19 (7), 2428-2442 (2011)

>  <Pubmed ID>
21429754

>  <DOI>
10.1016/j.bmc.2011.02.009

$$$$
1141212
Actelion Java MolfileCreator 1.0

 22 24  0  0  0  0  0  0  0  0999 V2000
    0.0000   -0.0000   -0.0000 O   0  0  0  0  0  0  0  0  0  0  0  0
    1.0587   -1.0587   -0.0000 C   0  0  0  0  0  0  0  0  0  0  0  0
   -0.2498   -1.7963   -0.0000 C   0  0  0  0  0  0  0  0  0  0  0  0
    2.3435   -1.7963   -0.0000 C   0  0  0  0  0  0  0  0  0  0  0  0
    2.1056    0.0238   -0.0000 C   0  0  0  0  0  0  0  0  0  0  0  0
   -0.2617   -3.2952   -0.0000 C   0  0  0  0  0  0  0  0  0  0  0  0
   -1.5584   -1.0350   -0.0000 C   0  0  0  0  0  0  0  0  0  0  0  0
    3.6997   -1.1658   -0.0000 N   0  0  0  0  0  0  0  0  0  0  0  0
    2.4982   -3.2714   -0.0000 C   0  0  0  0  0  0  0  0  0  0  0  0
    3.5450   -0.3450   -0.0000 C   0  0  0  0  0  0  0  0  0  0  0  0
    1.7011    1.4870   -0.0000 C   0  0  0  0  0  0  0  0  0  0  0  0
   -1.5822   -4.0327   -0.0000 C   0  0  0  0  0  0  0  0  0  0  0  0
   -2.8669   -1.7725   -0.0000 C   0  0  0  0  0  0  0  0  0  0  0  0
    4.6989   -2.2602   -0.0000 C   0  0  0  0  0  0  0  0  0  0  0  0
    3.9495   -3.5688   -0.0000 N   0  0  0  0  0  0  0  0  0  0  0  0
   -2.8907   -3.2714   -0.0000 C   0  0  0  0  0  0  0  0  0  0  0  0
   -4.1993   -4.0089   -0.0000 C   0  0  0  0  0  0  0  0  0  0  0  0
   -4.2112   -5.4959   -0.0000 N   0  0  0  0  0  0  0  0  0  0  0  0
   -5.5078   -3.2476   -0.0000 C   0  0  0  0  0  0  0  0  0  0  0  0
   -5.5197   -6.2335   -0.0000 C   0  0  0  0  0  0  0  0  0  0  0  0
   -6.8164   -3.9852   -0.0000 C   0  0  0  0  0  0  0  0  0  0  0  0
   -6.8402   -5.4722   -0.0000 C   0  0  0  0  0  0  0  0  0  0  0  0
  1  2  1  0  0  0  0
  2  3  1  0  0  0  0
  2  4  1  0  0  0  0
  2  5  1  0  0  0  0
  3  6  2  0  0  0  0
  3  7  1  0  0  0  0
  4  8  1  0  0  0  0
  4  9  2  0  0  0  0
  5 10  1  0  0  0  0
  5 11  1  0  0  0  0
  6 12  1  0  0  0  0
  7 13  2  0  0  0  0
  8 14  2  0  0  0  0
  9 15  1  0  0  0  0
 12 16  2  0  0  0  0
 16 17  1  0  0  0  0
 17 18  2  0  0  0  0
 17 19  1  0  0  0  0
 18 20  1  0  0  0  0
 19 21  2  0  0  0  0
 20 22  2  0  0  0  0
 13 16  1  0  0  0  0
 14 15  1  0  0  0  0
 21 22  1  0  0  0  0
M  END
>  <MolRegNo>
1141212

>  <m>
=

>  <Value>
5200

>  <Unit>
nM

>  <Type>
IC50

>  <pValue>
5.28

>  <Ligand Efficiency>
0

>  <Binding Efficiency>
0

>  <Surface Efficiency>
0

>  <Assay Index>
585474

>  <Assay Category>


>  <Assay Organism>
Homo sapiens

>  <Target ID>
17045

>  <Target Name>
Cytochrome P450 3A4

>  <Target Organism>
Homo sapiens

>  <Target Description>
Target is a single protein chain

>  <Sequence Accession>
P08684

>  <Reference>
Bioorg Med Chem 19 (7), 2428-2442 (2011)

>  <Pubmed ID>
21429754

>  <DOI>
10.1016/j.bmc.2011.02.009

$$$$
1141216
Actelion Java MolfileCreator 1.0

 26 29  0  0  0  0  0  0  0  0999 V2000
    0.0000   -0.0000   -0.0000 O   0  0  0  0  0  0  0  0  0  0  0  0
    1.2840   -0.7371   -0.0000 C   0  0  0  0  0  0  0  0  0  0  0  0
    2.5680    0.0238   -0.0000 N   0  0  0  0  0  0  0  0  0  0  0  0
    1.2721   -2.2233   -0.0000 C   0  0  0  0  0  0  0  0  0  0  0  0
    2.5562    1.5337   -0.0000 C   0  0  0  0  0  0  0  0  0  0  0  0
    3.8402    2.2946   -0.0000 C   0  0  0  0  0  0  0  0  0  0  0  0
    1.2365    2.2946   -0.0000 C   0  0  0  0  0  0  0  0  0  0  0  0
    3.8283    3.8045   -0.0000 C   0  0  0  0  0  0  0  0  0  0  0  0
    1.2246    3.8045   -0.0000 C   0  0  0  0  0  0  0  0  0  0  0  0
    5.1123    4.5654   -0.0000 C   0  0  0  0  0  0  0  0  0  0  0  0
    2.5205    4.5654   -0.0000 C   0  0  0  0  0  0  0  0  0  0  0  0
    6.3963    3.8283   -0.0000 C   0  0  0  0  0  0  0  0  0  0  0  0
    5.1004    6.0872   -0.0000 C   0  0  0  0  0  0  0  0  0  0  0  0
    7.6922    4.5892   -0.0000 C   0  0  0  0  0  0  0  0  0  0  0  0
    6.3844    6.8481   -0.0000 C   0  0  0  0  0  0  0  0  0  0  0  0
    7.6804    6.1110   -0.0000 C   0  0  0  0  0  0  0  0  0  0  0  0
    8.9644    6.8719   -0.0000 C   0  0  0  0  0  0  0  0  0  0  0  0
    7.8825    7.9538   -0.0000 O   0  0  0  0  0  0  0  0  0  0  0  0
   10.2484    6.1348   -0.0000 C   0  0  0  0  0  0  0  0  0  0  0  0
   10.0106    7.9538   -0.0000 C   0  0  0  0  0  0  0  0  0  0  0  0
   11.6038    6.7649   -0.0000 N   0  0  0  0  0  0  0  0  0  0  0  0
   10.4030    4.6605   -0.0000 C   0  0  0  0  0  0  0  0  0  0  0  0
   11.4492    8.3699   -0.0000 C   0  0  0  0  0  0  0  0  0  0  0  0
   10.3792    9.4281   -0.0000 C   0  0  0  0  0  0  0  0  0  0  0  0
   12.6024    5.6711   -0.0000 C   0  0  0  0  0  0  0  0  0  0  0  0
   11.8534    4.3633   -0.0000 N   0  0  0  0  0  0  0  0  0  0  0  0
  1  2  2  0  0  0  0
  2  3  1  0  0  0  0
  2  4  1  0  0  0  0
  3  5  1  0  0  0  0
  5  6  2  0  0  0  0
  5  7  1  0  0  0  0
  6  8  1  0  0  0  0
  7  9  2  0  0  0  0
  8 10  1  0  0  0  0
  8 11  2  0  0  0  0
 10 12  2  0  0  0  0
 10 13  1  0  0  0  0
 12 14  1  0  0  0  0
 13 15  2  0  0  0  0
 14 16  2  0  0  0  0
 16 17  1  0  0  0  0
 17 18  1  0  0  0  0
 17 19  1  0  0  0  0
 17 20  1  0  0  0  0
 19 21  1  0  0  0  0
 19 22  2  0  0  0  0
 20 23  1  0  0  0  0
 20 24  1  0  0  0  0
 21 25  2  0  0  0  0
 22 26  1  0  0  0  0
  9 11  1  0  0  0  0
 15 16  1  0  0  0  0
 23 24  1  0  0  0  0
 25 26  1  0  0  0  0
M  END
>  <MolRegNo>
1141216

>  <m>
=

>  <Value>
5500

>  <Unit>
nM

>  <Type>
IC50

>  <pValue>
5.26

>  <Ligand Efficiency>
0

>  <Binding Efficiency>
0

>  <Surface Efficiency>
0

>  <Assay Index>
585474

>  <Assay Category>


>  <Assay Organism>
Homo sapiens

>  <Target ID>
17045

>  <Target Name>
Cytochrome P450 3A4

>  <Target Organism>
Homo sapiens

>  <Target Description>
Target is a single protein chain

>  <Sequence Accession>
P08684

>  <Reference>
Bioorg Med Chem 19 (7), 2428-2442 (2011)

>  <Pubmed ID>
21429754

>  <DOI>
10.1016/j.bmc.2011.02.009

$$$$
1141219
Actelion Java MolfileCreator 1.0

 26 28  0  0  0  0  0  0  0  0999 V2000
    0.0000   -0.0000   -0.0000 O   0  0  0  0  0  0  0  0  0  0  0  0
    1.2846   -0.7375   -0.0000 C   0  0  0  0  0  0  0  0  0  0  0  0
    2.5693    0.0238   -0.0000 N   0  0  0  0  0  0  0  0  0  0  0  0
    1.2727   -2.2243   -0.0000 C   0  0  0  0  0  0  0  0  0  0  0  0
    2.5574    1.5344   -0.0000 C   0  0  0  0  0  0  0  0  0  0  0  0
    3.8420    2.2957   -0.0000 C   0  0  0  0  0  0  0  0  0  0  0  0
    1.2370    2.2957   -0.0000 C   0  0  0  0  0  0  0  0  0  0  0  0
    3.8301    3.8063   -0.0000 C   0  0  0  0  0  0  0  0  0  0  0  0
    1.2252    3.8063   -0.0000 C   0  0  0  0  0  0  0  0  0  0  0  0
    5.1147    4.5676   -0.0000 C   0  0  0  0  0  0  0  0  0  0  0  0
    2.5217    4.5676   -0.0000 C   0  0  0  0  0  0  0  0  0  0  0  0
    6.3994    3.8301   -0.0000 C   0  0  0  0  0  0  0  0  0  0  0  0
    5.1028    6.0901   -0.0000 C   0  0  0  0  0  0  0  0  0  0  0  0
    7.6959    4.5914   -0.0000 C   0  0  0  0  0  0  0  0  0  0  0  0
    6.3875    6.8514   -0.0000 C   0  0  0  0  0  0  0  0  0  0  0  0
    7.6840    6.1139   -0.0000 C   0  0  0  0  0  0  0  0  0  0  0  0
    8.9686    6.8751   -0.0000 C   0  0  0  0  0  0  0  0  0  0  0  0
    7.8862    7.9576   -0.0000 O   0  0  0  0  0  0  0  0  0  0  0  0
   10.2532    6.1377   -0.0000 C   0  0  0  0  0  0  0  0  0  0  0  0
   10.0153    7.9576   -0.0000 C   0  0  0  0  0  0  0  0  0  0  0  0
   11.6092    6.7681   -0.0000 N   0  0  0  0  0  0  0  0  0  0  0  0
   10.4079    4.6627   -0.0000 C   0  0  0  0  0  0  0  0  0  0  0  0
   11.4546    7.5888   -0.0000 C   0  0  0  0  0  0  0  0  0  0  0  0
    9.6109    9.4206   -0.0000 C   0  0  0  0  0  0  0  0  0  0  0  0
   12.6084    5.6738   -0.0000 C   0  0  0  0  0  0  0  0  0  0  0  0
   11.8590    4.3654   -0.0000 N   0  0  0  0  0  0  0  0  0  0  0  0
  1  2  2  0  0  0  0
  2  3  1  0  0  0  0
  2  4  1  0  0  0  0
  3  5  1  0  0  0  0
  5  6  2  0  0  0  0
  5  7  1  0  0  0  0
  6  8  1  0  0  0  0
  7  9  2  0  0  0  0
  8 10  1  0  0  0  0
  8 11  2  0  0  0  0
 10 12  2  0  0  0  0
 10 13  1  0  0  0  0
 12 14  1  0  0  0  0
 13 15  2  0  0  0  0
 14 16  2  0  0  0  0
 16 17  1  0  0  0  0
 17 18  1  1  0  0  0
 17 19  1  0  0  0  0
 17 20  1  0  0  0  0
 19 21  1  0  0  0  0
 19 22  2  0  0  0  0
 20 23  1  0  0  0  0
 20 24  1  0  0  0  0
 21 25  2  0  0  0  0
 22 26  1  0  0  0  0
  9 11  1  0  0  0  0
 15 16  1  0  0  0  0
 25 26  1  0  0  0  0
M  END
>  <MolRegNo>
1141219

>  <m>
=

>  <Value>
6700

>  <Unit>
nM

>  <Type>
IC50

>  <pValue>
5.17

>  <Ligand Efficiency>
0

>  <Binding Efficiency>
0

>  <Surface Efficiency>
0

>  <Assay Index>
585474

>  <Assay Category>


>  <Assay Organism>
Homo sapiens

>  <Target ID>
17045

>  <Target Name>
Cytochrome P450 3A4

>  <Target Organism>
Homo sapiens

>  <Target Description>
Target is a single protein chain

>  <Sequence Accession>
P08684

>  <Reference>
Bioorg Med Chem 19 (7), 2428-2442 (2011)

>  <Pubmed ID>
21429754

>  <DOI>
10.1016/j.bmc.2011.02.009

$$$$
1141800
Actelion Java MolfileCreator 1.0

 22 24  0  0  0  0  0  0  0  0999 V2000
    0.0000   -0.0000   -0.0000 O   0  0  0  0  0  0  0  0  0  0  0  0
   -0.0118   -1.4926   -0.0000 C   0  0  0  0  0  0  0  0  0  0  0  0
    1.2794   -2.2271   -0.0000 N   0  0  0  0  0  0  0  0  0  0  0  0
   -1.3268   -2.2389   -0.0000 C   0  0  0  0  0  0  0  0  0  0  0  0
    2.5706   -1.4571   -0.0000 C   0  0  0  0  0  0  0  0  0  0  0  0
   -1.3386   -3.7315   -0.0000 N   0  0  0  0  0  0  0  0  0  0  0  0
   -2.6417   -1.4808   -0.0000 C   0  0  0  0  0  0  0  0  0  0  0  0
    3.8618   -2.2034   -0.0000 C   0  0  0  0  0  0  0  0  0  0  0  0
    2.5469    0.0474   -0.0000 C   0  0  0  0  0  0  0  0  0  0  0  0
   -2.6417   -4.4660   -0.0000 C   0  0  0  0  0  0  0  0  0  0  0  0
   -3.9566   -2.2271   -0.0000 N   0  0  0  0  0  0  0  0  0  0  0  0
   -2.6654    0.0355   -0.0000 N   0  0  0  0  0  0  0  0  0  0  0  0
    5.1530   -1.4334   -0.0000 C   0  0  0  0  0  0  0  0  0  0  0  0
    3.8263    0.8174   -0.0000 C   0  0  0  0  0  0  0  0  0  0  0  0
   -2.6417   -5.9586   -0.0000 C   0  0  0  0  0  0  0  0  0  0  0  0
   -3.9566   -3.7197   -0.0000 C   0  0  0  0  0  0  0  0  0  0  0  0
    5.1412    0.0829   -0.0000 C   0  0  0  0  0  0  0  0  0  0  0  0
   -1.3505   -6.6812   -0.0000 C   0  0  0  0  0  0  0  0  0  0  0  0
   -3.9447   -6.6930   -0.0000 C   0  0  0  0  0  0  0  0  0  0  0  0
   -1.3505   -8.1738   -0.0000 N   0  0  0  0  0  0  0  0  0  0  0  0
   -3.9447   -8.1856   -0.0000 C   0  0  0  0  0  0  0  0  0  0  0  0
   -2.6654   -8.9319   -0.0000 C   0  0  0  0  0  0  0  0  0  0  0  0
  1  2  2  0  0  0  0
  2  3  1  0  0  0  0
  2  4  1  0  0  0  0
  3  5  1  0  0  0  0
  4  6  2  0  0  0  0
  4  7  1  0  0  0  0
  5  8  2  0  0  0  0
  5  9  1  0  0  0  0
  6 10  1  0  0  0  0
  7 11  2  0  0  0  0
  7 12  1  0  0  0  0
  8 13  1  0  0  0  0
  9 14  2  0  0  0  0
 10 15  1  0  0  0  0
 10 16  2  0  0  0  0
 13 17  2  0  0  0  0
 15 18  2  0  0  0  0
 15 19  1  0  0  0  0
 18 20  1  0  0  0  0
 19 21  2  0  0  0  0
 20 22  2  0  0  0  0
 11 16  1  0  0  0  0
 14 17  1  0  0  0  0
 21 22  1  0  0  0  0
M  END
>  <MolRegNo>
1141800

>  <m>
=

>  <Value>
2000

>  <Unit>
nM

>  <Type>
IC50

>  <pValue>
5.7

>  <Ligand Efficiency>
0

>  <Binding Efficiency>
0

>  <Surface Efficiency>
0

>  <Assay Index>
586056

>  <Assay Category>


>  <Assay Organism>


>  <Target ID>
17045

>  <Target Name>
Cytochrome P450 3A4

>  <Target Organism>
Homo sapiens

>  <Target Description>
Target is a single protein chain

>  <Sequence Accession>
P08684

>  <Reference>
J Med Chem 54 (7), 2320-2330 (2011)

>  <Pubmed ID>
21413798

>  <DOI>
10.1021/jm101488z

$$$$
1142205
Actelion Java MolfileCreator 1.0

 46 51  0  0  1  0  0  0  0  0999 V2000
    0.0000   -0.0000   -0.0000 Cl  0  0  0  0  0  0  0  0  0  0  0  0
   -0.7572   -1.2897   -0.0000 C   0  0  0  0  0  0  0  0  0  0  0  0
   -0.0237   -2.5793   -0.0000 C   0  0  0  0  0  0  0  0  0  0  0  0
   -2.2717   -1.2778   -0.0000 C   0  0  0  0  0  0  0  0  0  0  0  0
   -0.7809   -3.8690   -0.0000 C   0  0  0  0  0  0  0  0  0  0  0  0
   -3.0289   -2.5675   -0.0000 C   0  0  0  0  0  0  0  0  0  0  0  0
   -2.2954   -3.8571   -0.0000 C   0  0  0  0  0  0  0  0  0  0  0  0
   -3.0526   -5.1468   -0.0000 C   0  0  0  0  0  0  0  0  0  0  0  0
   -2.3190   -6.4365   -0.0000 C   0  0  0  0  0  0  0  0  0  0  0  0
   -3.0763   -7.7261   -0.0000 N   0  0  0  0  0  0  0  0  0  0  0  0
   -0.8282   -6.4246   -0.0000 C   0  0  0  0  0  0  0  0  0  0  0  0
   -2.3427   -9.0158   -0.0000 N   0  0  0  0  0  0  0  0  0  0  0  0
   -0.0947   -7.7143   -0.0000 C   0  0  0  0  0  0  0  0  0  0  0  0
   -0.0947   -5.1113   -0.0000 C   0  0  0  0  0  0  0  0  0  0  0  0
   -0.8519   -9.0040   -0.0000 C   0  0  0  0  0  0  0  0  0  0  0  0
   -3.0999  -10.3054   -0.0000 C   0  0  0  0  0  0  0  0  0  0  0  0
    1.3961   -7.7025   -0.0000 C   0  0  0  0  0  0  0  0  0  0  0  0
    1.3961   -5.0995   -0.0000 C   0  0  0  0  0  0  0  0  0  0  0  0
   -0.1183  -10.2936   -0.0000 O   0  0  0  0  0  0  0  0  0  0  0  0
   -2.3663  -11.5951   -0.0000 C   0  0  0  0  0  0  0  0  0  0  0  0
    2.1297   -6.3891   -0.0000 C   0  0  0  0  0  0  0  0  0  0  0  0
   -2.9934  -12.9558   -0.0000 N   0  0  0  0  0  0  0  0  0  0  0  0
   -0.8874  -11.7371   -0.0000 C   0  0  0  0  0  0  0  0  0  0  0  0
   -1.8931  -13.9496   -0.0000 C   0  0  0  0  0  0  0  0  0  0  0  0
   -4.4724  -13.2515   -0.0000 C   0  0  0  0  0  0  0  0  0  0  0  0
   -0.5916  -13.1924   -0.0000 C   0  0  0  0  0  0  0  0  0  0  0  0
   -5.4899  -12.1275   -0.0000 C   0  0  0  0  0  0  0  0  0  0  0  0
   -5.0403  -10.6841   -0.0000 C   0  0  0  0  0  0  0  0  0  0  0  0
   -6.0579   -9.5600   -0.0000 C   0  0  0  0  0  0  0  0  0  0  0  0
   -5.6082   -8.1166   -0.0000 C   0  0  0  0  0  0  0  0  0  0  0  0
   -4.1529   -7.7971   -0.0000 C   0  0  0  0  0  0  0  0  0  0  0  0
   -6.6258   -6.9926   -0.0000 C   0  0  0  0  0  0  0  0  0  0  0  0
   -3.7033   -6.3536   -0.0000 C   0  0  0  0  0  0  0  0  0  0  0  0
   -6.1762   -5.5491   -0.0000 C   0  0  0  0  0  0  0  0  0  0  0  0
   -4.7209   -5.2296   -0.0000 C   0  0  0  0  0  0  0  0  0  0  0  0
   -4.2713   -3.7862   -0.0000 O   0  0  0  0  0  0  0  0  0  0  0  0
   -5.2888   -2.6621   -0.0000 C   0  0  0  0  0  0  0  0  0  0  0  0
   -6.7678   -2.9579   -0.0000 C   0  0  0  0  0  0  0  0  0  0  0  0
   -7.7853   -1.8339   -0.0000 C   0  0  0  0  0  0  0  0  0  0  0  0
   -9.2643   -2.1297   -0.0000 N   0  0  0  0  0  0  0  0  0  0  0  0
  -10.1990   -0.9347   -0.0000 C   0  0  0  0  0  0  0  0  0  0  0  0
   -9.6310   -3.5732   -0.0000 C   0  0  0  0  0  0  0  0  0  0  0  0
  -11.7134   -0.8992   -0.0000 C   0  0  0  0  0  0  0  0  0  0  0  0
  -11.0035   -4.1884   -0.0000 C   0  0  0  0  0  0  0  0  0  0  0  0
  -12.6836   -2.0469   -0.0000 C   0  0  0  0  0  0  0  0  0  0  0  0
  -12.3642   -3.5022   -0.0000 C   0  0  0  0  0  0  0  0  0  0  0  0
  1  2  1  0  0  0  0
  2  3  2  0  0  0  0
  2  4  1  0  0  0  0
  3  5  1  0  0  0  0
  4  6  2  0  0  0  0
  5  7  2  0  0  0  0
  7  8  1  0  0  0  0
  8  9  1  0  0  0  0
  9 10  2  0  0  0  0
  9 11  1  0  0  0  0
 10 12  1  0  0  0  0
 11 13  2  0  0  0  0
 11 14  1  0  0  0  0
 12 15  1  0  0  0  0
 12 16  1  0  0  0  0
 13 17  1  0  0  0  0
 14 18  2  0  0  0  0
 15 19  2  0  0  0  0
 20 16  1  1  0  0  0
 17 21  2  0  0  0  0
 20 22  1  0  0  0  0
 20 23  1  0  0  0  0
 22 24  1  0  0  0  0
 22 25  1  0  0  0  0
 23 26  1  0  0  0  0
 25 27  1  0  0  0  0
 27 28  1  0  0  0  0
 28 29  1  0  0  0  0
 29 30  1  0  0  0  0
 30 31  2  0  0  0  0
 30 32  1  0  0  0  0
 31 33  1  0  0  0  0
 32 34  2  0  0  0  0
 33 35  2  0  0  0  0
 35 36  1  0  0  0  0
 36 37  1  0  0  0  0
 37 38  1  0  0  0  0
 38 39  1  0  0  0  0
 39 40  1  0  0  0  0
 40 41  1  0  0  0  0
 40 42  1  0  0  0  0
 41 43  1  0  0  0  0
 42 44  1  0  0  0  0
 43 45  1  0  0  0  0
 44 46  1  0  0  0  0
  6  7  1  0  0  0  0
 13 15  1  0  0  0  0
 18 21  1  0  0  0  0
 24 26  1  0  0  0  0
 34 35  1  0  0  0  0
 45 46  1  0  0  0  0
M  END
>  <MolRegNo>
1142205

>  <m>
=

>  <Value>
300

>  <Unit>
nM

>  <Type>
IC50

>  <pValue>
6.52

>  <Ligand Efficiency>
0

>  <Binding Efficiency>
0

>  <Surface Efficiency>
0

>  <Assay Index>
584392

>  <Assay Category>


>  <Assay Organism>


>  <Target ID>
17045

>  <Target Name>
Cytochrome P450 3A4

>  <Target Organism>
Homo sapiens

>  <Target Description>
Target is a single protein chain

>  <Sequence Accession>
P08684

>  <Reference>
J Med Chem 54 (7), 2183-2195 (2011)

>  <Pubmed ID>
21381763

>  <DOI>
10.1021/jm1013874

$$$$
1145976
Actelion Java MolfileCreator 1.0

 34 39  0  0  0  0  0  0  0  0999 V2000
    0.0000   -0.0000   -0.0000 Cl  0  0  0  0  0  0  0  0  0  0  0  0
    1.2975    0.7689   -0.0000 C   0  0  0  0  0  0  0  0  0  0  0  0
    1.2855    2.2946   -0.0000 C   0  0  0  0  0  0  0  0  0  0  0  0
    2.5950    0.0240   -0.0000 C   0  0  0  0  0  0  0  0  0  0  0  0
   -0.0360    3.0635   -0.0000 C   0  0  0  0  0  0  0  0  0  0  0  0
    2.5829    3.0635   -0.0000 C   0  0  0  0  0  0  0  0  0  0  0  0
    3.8924    0.7929   -0.0000 C   0  0  0  0  0  0  0  0  0  0  0  0
   -1.3575    2.3186   -0.0000 N   0  0  0  0  0  0  0  0  0  0  0  0
   -0.0481    4.6013   -0.0000 C   0  0  0  0  0  0  0  0  0  0  0  0
    2.5589    4.5892   -0.0000 O   0  0  0  0  0  0  0  0  0  0  0  0
    3.8804    2.3307   -0.0000 C   0  0  0  0  0  0  0  0  0  0  0  0
    5.1899    0.0481   -0.0000 Cl  0  0  0  0  0  0  0  0  0  0  0  0
   -2.6791    3.0875   -0.0000 C   0  0  0  0  0  0  0  0  0  0  0  0
   -1.3696    5.3581   -0.0000 C   0  0  0  0  0  0  0  0  0  0  0  0
    1.0572    5.6344   -0.0000 C   0  0  0  0  0  0  0  0  0  0  0  0
    3.8564    5.3701   -0.0000 C   0  0  0  0  0  0  0  0  0  0  0  0
   -2.6911    4.6133   -0.0000 N   0  0  0  0  0  0  0  0  0  0  0  0
   -4.0006    2.3427   -0.0000 N   0  0  0  0  0  0  0  0  0  0  0  0
   -1.0692    6.8478   -0.0000 C   0  0  0  0  0  0  0  0  0  0  0  0
    0.4205    7.0280   -0.0000 N   0  0  0  0  0  0  0  0  0  0  0  0
    5.1539    4.6253   -0.0000 C   0  0  0  0  0  0  0  0  0  0  0  0
    1.1653    8.3495   -0.0000 C   0  0  0  0  0  0  0  0  0  0  0  0
    6.4514    5.4062   -0.0000 N   0  0  0  0  0  0  0  0  0  0  0  0
    0.3844    9.6710   -0.0000 O   0  0  0  0  0  0  0  0  0  0  0  0
    2.6670    8.3736   -0.0000 N   0  0  0  0  0  0  0  0  0  0  0  0
    6.5835    6.9319   -0.0000 N   0  0  0  0  0  0  0  0  0  0  0  0
    7.8209    4.8175   -0.0000 C   0  0  0  0  0  0  0  0  0  0  0  0
    3.4119    9.6951   -0.0000 C   0  0  0  0  0  0  0  0  0  0  0  0
    8.0492    7.2683   -0.0000 C   0  0  0  0  0  0  0  0  0  0  0  0
    8.8181    5.9588   -0.0000 C   0  0  0  0  0  0  0  0  0  0  0  0
    4.8535   10.1035   -0.0000 C   0  0  0  0  0  0  0  0  0  0  0  0
    2.9914   11.1607   -0.0000 C   0  0  0  0  0  0  0  0  0  0  0  0
    3.4599   10.9325   -0.0000 C   0  0  0  0  0  0  0  0  0  0  0  0
    4.4451   11.5812   -0.0000 C   0  0  0  0  0  0  0  0  0  0  0  0
  1  2  1  0  0  0  0
  2  3  2  0  0  0  0
  2  4  1  0  0  0  0
  3  5  1  0  0  0  0
  3  6  1  0  0  0  0
  4  7  2  0  0  0  0
  5  8  2  0  0  0  0
  5  9  1  0  0  0  0
  6 10  1  0  0  0  0
  6 11  2  0  0  0  0
  7 12  1  0  0  0  0
  8 13  1  0  0  0  0
  9 14  2  0  0  0  0
  9 15  1  0  0  0  0
 10 16  1  0  0  0  0
 13 17  2  0  0  0  0
 13 18  1  0  0  0  0
 14 19  1  0  0  0  0
 15 20  1  0  0  0  0
 16 21  1  0  0  0  0
 20 22  1  0  0  0  0
 21 23  1  0  0  0  0
 22 24  2  0  0  0  0
 22 25  1  0  0  0  0
 23 26  1  0  0  0  0
 23 27  1  0  0  0  0
 25 28  1  0  0  0  0
 26 29  2  0  0  0  0
 27 30  2  0  0  0  0
 28 31  1  0  0  0  0
 28 32  1  0  0  0  0
 28 33  1  0  0  0  0
 31 34  1  0  0  0  0
  7 11  1  0  0  0  0
 14 17  1  0  0  0  0
 19 20  1  0  0  0  0
 29 30  1  0  0  0  0
 32 34  1  0  0  0  0
 33 34  1  0  0  0  0
M  END
>  <MolRegNo>
1145976

>  <m>
=

>  <Value>
1100

>  <Unit>
nM

>  <Type>
IC50

>  <pValue>
5.96

>  <Ligand Efficiency>
0

>  <Binding Efficiency>
0

>  <Surface Efficiency>
0

>  <Assay Index>
589616

>  <Assay Category>


>  <Assay Organism>
Homo sapiens

>  <Target ID>
17045

>  <Target Name>
Cytochrome P450 3A4

>  <Target Organism>
Homo sapiens

>  <Target Description>
Target is a single protein chain

>  <Sequence Accession>
P08684

>  <Reference>
J Med Chem 54 (9), 3368-3385 (2011)

>  <Pubmed ID>
21438541

>  <DOI>
10.1021/jm200128m

$$$$
1145978
Actelion Java MolfileCreator 1.0

 34 37  0  0  0  0  0  0  0  0999 V2000
    0.0000   -0.0000   -0.0000 Cl  0  0  0  0  0  0  0  0  0  0  0  0
    1.2854    0.7617   -0.0000 C   0  0  0  0  0  0  0  0  0  0  0  0
    1.2735    2.2733   -0.0000 C   0  0  0  0  0  0  0  0  0  0  0  0
    2.5709    0.0238   -0.0000 C   0  0  0  0  0  0  0  0  0  0  0  0
   -0.0357    3.0351   -0.0000 C   0  0  0  0  0  0  0  0  0  0  0  0
    2.5590    3.0351   -0.0000 C   0  0  0  0  0  0  0  0  0  0  0  0
    3.8563    0.7855   -0.0000 C   0  0  0  0  0  0  0  0  0  0  0  0
   -1.3450    2.2971   -0.0000 N   0  0  0  0  0  0  0  0  0  0  0  0
   -0.0476    4.5586   -0.0000 C   0  0  0  0  0  0  0  0  0  0  0  0
    2.5352    4.5467   -0.0000 O   0  0  0  0  0  0  0  0  0  0  0  0
    3.8444    2.3090   -0.0000 C   0  0  0  0  0  0  0  0  0  0  0  0
    5.1418    0.0476   -0.0000 Cl  0  0  0  0  0  0  0  0  0  0  0  0
   -2.6542    3.0589   -0.0000 C   0  0  0  0  0  0  0  0  0  0  0  0
   -1.3569    5.3084   -0.0000 C   0  0  0  0  0  0  0  0  0  0  0  0
    1.0474    5.5821   -0.0000 C   0  0  0  0  0  0  0  0  0  0  0  0
    3.8206    5.3203   -0.0000 C   0  0  0  0  0  0  0  0  0  0  0  0
   -2.6661    4.5705   -0.0000 N   0  0  0  0  0  0  0  0  0  0  0  0
   -3.9634    2.3209   -0.0000 N   0  0  0  0  0  0  0  0  0  0  0  0
   -1.0593    6.7843   -0.0000 C   0  0  0  0  0  0  0  0  0  0  0  0
    0.4166    6.9628   -0.0000 N   0  0  0  0  0  0  0  0  0  0  0  0
    5.1061    4.5824   -0.0000 C   0  0  0  0  0  0  0  0  0  0  0  0
    1.1545    8.2720   -0.0000 C   0  0  0  0  0  0  0  0  0  0  0  0
    6.3915    5.3560   -0.0000 N   0  0  0  0  0  0  0  0  0  0  0  0
    0.3928    9.5813   -0.0000 O   0  0  0  0  0  0  0  0  0  0  0  0
    2.6423    8.2959   -0.0000 N   0  0  0  0  0  0  0  0  0  0  0  0
    6.5224    6.8676   -0.0000 N   0  0  0  0  0  0  0  0  0  0  0  0
    7.7484    4.7728   -0.0000 C   0  0  0  0  0  0  0  0  0  0  0  0
    3.3802    9.6051   -0.0000 C   0  0  0  0  0  0  0  0  0  0  0  0
    7.9745    7.2008   -0.0000 C   0  0  0  0  0  0  0  0  0  0  0  0
    8.7362    5.9035   -0.0000 C   0  0  0  0  0  0  0  0  0  0  0  0
    4.8680    9.6289   -0.0000 C   0  0  0  0  0  0  0  0  0  0  0  0
    5.6060   10.9381   -0.0000 F   0  0  0  0  0  0  0  0  0  0  0  0
    5.6060    8.3435   -0.0000 F   0  0  0  0  0  0  0  0  0  0  0  0
    6.2963   10.0336   -0.0000 F   0  0  0  0  0  0  0  0  0  0  0  0
  1  2  1  0  0  0  0
  2  3  2  0  0  0  0
  2  4  1  0  0  0  0
  3  5  1  0  0  0  0
  3  6  1  0  0  0  0
  4  7  2  0  0  0  0
  5  8  2  0  0  0  0
  5  9  1  0  0  0  0
  6 10  1  0  0  0  0
  6 11  2  0  0  0  0
  7 12  1  0  0  0  0
  8 13  1  0  0  0  0
  9 14  2  0  0  0  0
  9 15  1  0  0  0  0
 10 16  1  0  0  0  0
 13 17  2  0  0  0  0
 13 18  1  0  0  0  0
 14 19  1  0  0  0  0
 15 20  1  0  0  0  0
 16 21  1  0  0  0  0
 20 22  1  0  0  0  0
 21 23  1  0  0  0  0
 22 24  2  0  0  0  0
 22 25  1  0  0  0  0
 23 26  1  0  0  0  0
 23 27  1  0  0  0  0
 25 28  1  0  0  0  0
 26 29  2  0  0  0  0
 27 30  2  0  0  0  0
 28 31  1  0  0  0  0
 31 32  1  0  0  0  0
 31 33  1  0  0  0  0
 31 34  1  0  0  0  0
  7 11  1  0  0  0  0
 14 17  1  0  0  0  0
 19 20  1  0  0  0  0
 29 30  1  0  0  0  0
M  END
>  <MolRegNo>
1145978

>  <m>
=

>  <Value>
1900

>  <Unit>
nM

>  <Type>
IC50

>  <pValue>
5.72

>  <Ligand Efficiency>
0

>  <Binding Efficiency>
0

>  <Surface Efficiency>
0

>  <Assay Index>
589616

>  <Assay Category>


>  <Assay Organism>
Homo sapiens

>  <Target ID>
17045

>  <Target Name>
Cytochrome P450 3A4

>  <Target Organism>
Homo sapiens

>  <Target Description>
Target is a single protein chain

>  <Sequence Accession>
P08684

>  <Reference>
J Med Chem 54 (9), 3368-3385 (2011)

>  <Pubmed ID>
21438541

>  <DOI>
10.1021/jm200128m

$$$$
1117852
Actelion Java MolfileCreator 1.0

 34 37  0  0  0  0  0  0  0  0999 V2000
    0.0000   -0.0000   -0.0000 Cl  0  0  0  0  0  0  0  0  0  0  0  0
    1.0731    0.6414   -0.0000 C   0  0  0  0  0  0  0  0  0  0  0  0
    2.4175   -0.1233   -0.0000 C   0  0  0  0  0  0  0  0  0  0  0  0
    1.0607    2.2201   -0.0000 C   0  0  0  0  0  0  0  0  0  0  0  0
    2.4052   -1.6774   -0.0000 C   0  0  0  0  0  0  0  0  0  0  0  0
    3.7619    0.6784   -0.0000 C   0  0  0  0  0  0  0  0  0  0  0  0
    2.4052    3.0219   -0.0000 C   0  0  0  0  0  0  0  0  0  0  0  0
    1.0237   -2.4668   -0.0000 N   0  0  0  0  0  0  0  0  0  0  0  0
    3.7496   -2.4668   -0.0000 C   0  0  0  0  0  0  0  0  0  0  0  0
    5.1063   -0.0863   -0.0000 O   0  0  0  0  0  0  0  0  0  0  0  0
    3.7496    2.2571   -0.0000 C   0  0  0  0  0  0  0  0  0  0  0  0
    2.3928    4.2923   -0.0000 Cl  0  0  0  0  0  0  0  0  0  0  0  0
    1.0114   -4.0209   -0.0000 C   0  0  0  0  0  0  0  0  0  0  0  0
    3.7372   -4.0209   -0.0000 C   0  0  0  0  0  0  0  0  0  0  0  0
    5.2173   -1.9735   -0.0000 C   0  0  0  0  0  0  0  0  0  0  0  0
    6.4508    0.7154   -0.0000 C   0  0  0  0  0  0  0  0  0  0  0  0
    2.3682   -4.8103   -0.0000 N   0  0  0  0  0  0  0  0  0  0  0  0
   -0.0863   -4.6376   -0.0000 N   0  0  0  0  0  0  0  0  0  0  0  0
    5.2050   -4.4896   -0.0000 C   0  0  0  0  0  0  0  0  0  0  0  0
    6.1177   -3.1945   -0.0000 N   0  0  0  0  0  0  0  0  0  0  0  0
    7.7952   -0.0493   -0.0000 C   0  0  0  0  0  0  0  0  0  0  0  0
    7.6718   -3.1699   -0.0000 C   0  0  0  0  0  0  0  0  0  0  0  0
    9.1396    0.7524   -0.0000 N   0  0  0  0  0  0  0  0  0  0  0  0
    8.2762   -2.0721   -0.0000 O   0  0  0  0  0  0  0  0  0  0  0  0
    8.4612   -4.5020   -0.0000 N   0  0  0  0  0  0  0  0  0  0  0  0
   10.5457    0.1233   -0.0000 N   0  0  0  0  0  0  0  0  0  0  0  0
    9.2629    2.3065   -0.0000 C   0  0  0  0  0  0  0  0  0  0  0  0
   10.0153   -4.4773   -0.0000 C   0  0  0  0  0  0  0  0  0  0  0  0
   11.5694    1.3074   -0.0000 C   0  0  0  0  0  0  0  0  0  0  0  0
   10.7800    2.6518   -0.0000 C   0  0  0  0  0  0  0  0  0  0  0  0
   10.8047   -5.8094   -0.0000 C   0  0  0  0  0  0  0  0  0  0  0  0
   11.4337   -6.8701   -0.0000 F   0  0  0  0  0  0  0  0  0  0  0  0
   12.0505   -5.7847   -0.0000 F   0  0  0  0  0  0  0  0  0  0  0  0
   10.1757   -6.8825   -0.0000 C   0  0  0  0  0  0  0  0  0  0  0  0
  1  2  1  0  0  0  0
  2  3  2  0  0  0  0
  2  4  1  0  0  0  0
  3  5  1  0  0  0  0
  3  6  1  0  0  0  0
  4  7  2  0  0  0  0
  5  8  2  0  0  0  0
  5  9  1  0  0  0  0
  6 10  1  0  0  0  0
  6 11  2  0  0  0  0
  7 12  1  0  0  0  0
  8 13  1  0  0  0  0
  9 14  2  0  0  0  0
  9 15  1  0  0  0  0
 10 16  1  0  0  0  0
 13 17  2  0  0  0  0
 13 18  1  0  0  0  0
 14 19  1  0  0  0  0
 15 20  1  0  0  0  0
 16 21  1  0  0  0  0
 20 22  1  0  0  0  0
 21 23  1  0  0  0  0
 22 24  2  0  0  0  0
 22 25  1  0  0  0  0
 23 26  1  0  0  0  0
 23 27  1  0  0  0  0
 25 28  1  0  0  0  0
 26 29  2  0  0  0  0
 27 30  2  0  0  0  0
 28 31  1  0  0  0  0
 31 32  1  0  0  0  0
 31 33  1  0  0  0  0
 31 34  1  0  0  0  0
  7 11  1  0  0  0  0
 14 17  1  0  0  0  0
 19 20  1  0  0  0  0
 29 30  1  0  0  0  0
M  END
>  <MolRegNo>
1117852

>  <m>
=

>  <Value>
3300

>  <Unit>
nM

>  <Type>
IC50

>  <pValue>
5.48

>  <Ligand Efficiency>
0

>  <Binding Efficiency>
0

>  <Surface Efficiency>
0

>  <Assay Index>
589616

>  <Assay Category>


>  <Assay Organism>
Homo sapiens

>  <Target ID>
17045

>  <Target Name>
Cytochrome P450 3A4

>  <Target Organism>
Homo sapiens

>  <Target Description>
Target is a single protein chain

>  <Sequence Accession>
P08684

>  <Reference>
J Med Chem 54 (9), 3368-3385 (2011)

>  <Pubmed ID>
21438541

>  <DOI>
10.1021/jm200128m

$$$$
1145982
Actelion Java MolfileCreator 1.0

 35 38  0  0  0  0  0  0  0  0999 V2000
    0.0000   -0.0000   -0.0000 Cl  0  0  0  0  0  0  0  0  0  0  0  0
    1.2857    0.7619   -0.0000 C   0  0  0  0  0  0  0  0  0  0  0  0
    1.2738    2.2738   -0.0000 C   0  0  0  0  0  0  0  0  0  0  0  0
    2.5714    0.0238   -0.0000 C   0  0  0  0  0  0  0  0  0  0  0  0
   -0.0357    3.0357   -0.0000 C   0  0  0  0  0  0  0  0  0  0  0  0
    2.5595    3.0357   -0.0000 C   0  0  0  0  0  0  0  0  0  0  0  0
    3.8571    0.7857   -0.0000 C   0  0  0  0  0  0  0  0  0  0  0  0
   -1.3452    2.2976   -0.0000 N   0  0  0  0  0  0  0  0  0  0  0  0
   -0.0595    4.5595   -0.0000 C   0  0  0  0  0  0  0  0  0  0  0  0
    2.5357    4.5476   -0.0000 O   0  0  0  0  0  0  0  0  0  0  0  0
    3.8452    2.3095   -0.0000 C   0  0  0  0  0  0  0  0  0  0  0  0
    5.1429    0.0476   -0.0000 Cl  0  0  0  0  0  0  0  0  0  0  0  0
   -2.6548    3.0595   -0.0000 C   0  0  0  0  0  0  0  0  0  0  0  0
   -1.3690    5.3095   -0.0000 C   0  0  0  0  0  0  0  0  0  0  0  0
    1.0357    5.5833   -0.0000 C   0  0  0  0  0  0  0  0  0  0  0  0
    3.8214    5.3214   -0.0000 C   0  0  0  0  0  0  0  0  0  0  0  0
   -2.6667    4.5714   -0.0000 N   0  0  0  0  0  0  0  0  0  0  0  0
   -3.9643    2.3214   -0.0000 N   0  0  0  0  0  0  0  0  0  0  0  0
   -1.0714    6.7857   -0.0000 C   0  0  0  0  0  0  0  0  0  0  0  0
    0.4048    6.9643   -0.0000 N   0  0  0  0  0  0  0  0  0  0  0  0
    5.1071    4.5833   -0.0000 C   0  0  0  0  0  0  0  0  0  0  0  0
    1.1429    8.2738   -0.0000 C   0  0  0  0  0  0  0  0  0  0  0  0
    6.3929    5.3571   -0.0000 N   0  0  0  0  0  0  0  0  0  0  0  0
    0.3690    9.5833   -0.0000 O   0  0  0  0  0  0  0  0  0  0  0  0
    2.6310    8.2976   -0.0000 N   0  0  0  0  0  0  0  0  0  0  0  0
    6.5238    6.8690   -0.0000 N   0  0  0  0  0  0  0  0  0  0  0  0
    7.7500    4.7738   -0.0000 C   0  0  0  0  0  0  0  0  0  0  0  0
    3.3690    9.6071   -0.0000 C   0  0  0  0  0  0  0  0  0  0  0  0
    7.9762    7.2024   -0.0000 C   0  0  0  0  0  0  0  0  0  0  0  0
    8.7381    5.9048   -0.0000 C   0  0  0  0  0  0  0  0  0  0  0  0
    4.8571    9.6310   -0.0000 C   0  0  0  0  0  0  0  0  0  0  0  0
   10.2143    5.7619   -0.0000 F   0  0  0  0  0  0  0  0  0  0  0  0
    5.5952   10.9405   -0.0000 F   0  0  0  0  0  0  0  0  0  0  0  0
    5.6071    8.3452   -0.0000 F   0  0  0  0  0  0  0  0  0  0  0  0
    6.3452    9.6429   -0.0000 F   0  0  0  0  0  0  0  0  0  0  0  0
  1  2  1  0  0  0  0
  2  3  2  0  0  0  0
  2  4  1  0  0  0  0
  3  5  1  0  0  0  0
  3  6  1  0  0  0  0
  4  7  2  0  0  0  0
  5  8  2  0  0  0  0
  5  9  1  0  0  0  0
  6 10  1  0  0  0  0
  6 11  2  0  0  0  0
  7 12  1  0  0  0  0
  8 13  1  0  0  0  0
  9 14  2  0  0  0  0
  9 15  1  0  0  0  0
 10 16  1  0  0  0  0
 13 17  2  0  0  0  0
 13 18  1  0  0  0  0
 14 19  1  0  0  0  0
 15 20  1  0  0  0  0
 16 21  1  0  0  0  0
 20 22  1  0  0  0  0
 21 23  1  0  0  0  0
 22 24  2  0  0  0  0
 22 25  1  0  0  0  0
 23 26  1  0  0  0  0
 23 27  1  0  0  0  0
 25 28  1  0  0  0  0
 26 29  2  0  0  0  0
 27 30  2  0  0  0  0
 28 31  1  0  0  0  0
 30 32  1  0  0  0  0
 31 33  1  0  0  0  0
 31 34  1  0  0  0  0
 31 35  1  0  0  0  0
  7 11  1  0  0  0  0
 14 17  1  0  0  0  0
 19 20  1  0  0  0  0
 29 30  1  0  0  0  0
M  END
>  <MolRegNo>
1145982

>  <m>
=

>  <Value>
800

>  <Unit>
nM

>  <Type>
IC50

>  <pValue>
6.1

>  <Ligand Efficiency>
0

>  <Binding Efficiency>
0

>  <Surface Efficiency>
0

>  <Assay Index>
589616

>  <Assay Category>


>  <Assay Organism>
Homo sapiens

>  <Target ID>
17045

>  <Target Name>
Cytochrome P450 3A4

>  <Target Organism>
Homo sapiens

>  <Target Description>
Target is a single protein chain

>  <Sequence Accession>
P08684

>  <Reference>
J Med Chem 54 (9), 3368-3385 (2011)

>  <Pubmed ID>
21438541

>  <DOI>
10.1021/jm200128m

$$$$
1145983
Actelion Java MolfileCreator 1.0

 35 38  0  0  0  0  0  0  0  0999 V2000
    0.0000   -0.0000   -0.0000 Cl  0  0  0  0  0  0  0  0  0  0  0  0
   -1.3067    0.7603   -0.0000 C   0  0  0  0  0  0  0  0  0  0  0  0
   -1.3305    2.2808   -0.0000 C   0  0  0  0  0  0  0  0  0  0  0  0
   -2.6134    0.0238   -0.0000 C   0  0  0  0  0  0  0  0  0  0  0  0
   -2.6372    3.0292   -0.0000 C   0  0  0  0  0  0  0  0  0  0  0  0
   -3.9202    0.7840   -0.0000 C   0  0  0  0  0  0  0  0  0  0  0  0
   -2.6610    4.5379   -0.0000 O   0  0  0  0  0  0  0  0  0  0  0  0
   -3.9439    2.2927   -0.0000 C   0  0  0  0  0  0  0  0  0  0  0  0
   -5.2269    0.0475   -0.0000 C   0  0  0  0  0  0  0  0  0  0  0  0
   -1.3780    5.3101   -0.0000 C   0  0  0  0  0  0  0  0  0  0  0  0
   -5.2507    3.0530   -0.0000 C   0  0  0  0  0  0  0  0  0  0  0  0
   -0.0950    4.5735   -0.0000 C   0  0  0  0  0  0  0  0  0  0  0  0
   -6.5574    2.3165   -0.0000 N   0  0  0  0  0  0  0  0  0  0  0  0
   -5.2625    4.5735   -0.0000 C   0  0  0  0  0  0  0  0  0  0  0  0
    1.1879    5.3457   -0.0000 N   0  0  0  0  0  0  0  0  0  0  0  0
   -7.8641    3.0767   -0.0000 C   0  0  0  0  0  0  0  0  0  0  0  0
   -6.5693    5.3219   -0.0000 C   0  0  0  0  0  0  0  0  0  0  0  0
   -4.1696    5.5952   -0.0000 C   0  0  0  0  0  0  0  0  0  0  0  0
    1.3186    6.8544   -0.0000 N   0  0  0  0  0  0  0  0  0  0  0  0
    2.5422    4.7636   -0.0000 C   0  0  0  0  0  0  0  0  0  0  0  0
   -7.8760    4.5854   -0.0000 N   0  0  0  0  0  0  0  0  0  0  0  0
   -9.1708    2.3402   -0.0000 N   0  0  0  0  0  0  0  0  0  0  0  0
   -6.2723    6.7950   -0.0000 C   0  0  0  0  0  0  0  0  0  0  0  0
   -4.7992    6.9732   -0.0000 N   0  0  0  0  0  0  0  0  0  0  0  0
    2.7679    7.1870   -0.0000 C   0  0  0  0  0  0  0  0  0  0  0  0
    3.5282    5.8921   -0.0000 C   0  0  0  0  0  0  0  0  0  0  0  0
   -4.0627    8.2799   -0.0000 C   0  0  0  0  0  0  0  0  0  0  0  0
    5.0012    5.7496   -0.0000 F   0  0  0  0  0  0  0  0  0  0  0  0
   -4.8230    9.5866   -0.0000 O   0  0  0  0  0  0  0  0  0  0  0  0
   -2.5778    8.3036   -0.0000 N   0  0  0  0  0  0  0  0  0  0  0  0
   -1.8413    9.6104   -0.0000 C   0  0  0  0  0  0  0  0  0  0  0  0
   -0.3564    9.6341   -0.0000 C   0  0  0  0  0  0  0  0  0  0  0  0
    0.3801   10.9408   -0.0000 F   0  0  0  0  0  0  0  0  0  0  0  0
    0.3801    8.3512   -0.0000 F   0  0  0  0  0  0  0  0  0  0  0  0
    1.1285    9.6460   -0.0000 F   0  0  0  0  0  0  0  0  0  0  0  0
  1  2  1  0  0  0  0
  2  3  2  0  0  0  0
  2  4  1  0  0  0  0
  3  5  1  0  0  0  0
  4  6  2  0  0  0  0
  5  7  1  0  0  0  0
  5  8  2  0  0  0  0
  6  9  1  0  0  0  0
  7 10  1  0  0  0  0
  8 11  1  0  0  0  0
 10 12  1  0  0  0  0
 11 13  2  0  0  0  0
 11 14  1  0  0  0  0
 12 15  1  0  0  0  0
 13 16  1  0  0  0  0
 14 17  2  0  0  0  0
 14 18  1  0  0  0  0
 15 19  1  0  0  0  0
 15 20  1  0  0  0  0
 16 21  2  0  0  0  0
 16 22  1  0  0  0  0
 17 23  1  0  0  0  0
 18 24  1  0  0  0  0
 19 25  2  0  0  0  0
 20 26  2  0  0  0  0
 24 27  1  0  0  0  0
 26 28  1  0  0  0  0
 27 29  2  0  0  0  0
 27 30  1  0  0  0  0
 30 31  1  0  0  0  0
 31 32  1  0  0  0  0
 32 33  1  0  0  0  0
 32 34  1  0  0  0  0
 32 35  1  0  0  0  0
  6  8  1  0  0  0  0
 17 21  1  0  0  0  0
 23 24  1  0  0  0  0
 25 26  1  0  0  0  0
M  END
>  <MolRegNo>
1145983

>  <m>
=

>  <Value>
1400

>  <Unit>
nM

>  <Type>
IC50

>  <pValue>
5.85

>  <Ligand Efficiency>
0

>  <Binding Efficiency>
0

>  <Surface Efficiency>
0

>  <Assay Index>
589616

>  <Assay Category>


>  <Assay Organism>
Homo sapiens

>  <Target ID>
17045

>  <Target Name>
Cytochrome P450 3A4

>  <Target Organism>
Homo sapiens

>  <Target Description>
Target is a single protein chain

>  <Sequence Accession>
P08684

>  <Reference>
J Med Chem 54 (9), 3368-3385 (2011)

>  <Pubmed ID>
21438541

>  <DOI>
10.1021/jm200128m

$$$$
1145984
Actelion Java MolfileCreator 1.0

 35 38  0  0  0  0  0  0  0  0999 V2000
    0.0000   -0.0000   -0.0000 Cl  0  0  0  0  0  0  0  0  0  0  0  0
    1.2859    0.7620   -0.0000 C   0  0  0  0  0  0  0  0  0  0  0  0
    1.2740    2.2741   -0.0000 C   0  0  0  0  0  0  0  0  0  0  0  0
    2.5718    0.0238   -0.0000 C   0  0  0  0  0  0  0  0  0  0  0  0
   -0.0357    3.0361   -0.0000 C   0  0  0  0  0  0  0  0  0  0  0  0
    2.5599    3.0361   -0.0000 C   0  0  0  0  0  0  0  0  0  0  0  0
    3.8577    0.7858   -0.0000 C   0  0  0  0  0  0  0  0  0  0  0  0
   -1.3454    2.2979   -0.0000 N   0  0  0  0  0  0  0  0  0  0  0  0
   -0.0476    4.5602   -0.0000 C   0  0  0  0  0  0  0  0  0  0  0  0
    2.5361    4.5482   -0.0000 O   0  0  0  0  0  0  0  0  0  0  0  0
    3.8458    2.3098   -0.0000 C   0  0  0  0  0  0  0  0  0  0  0  0
    5.1436    0.0476   -0.0000 Cl  0  0  0  0  0  0  0  0  0  0  0  0
   -2.6551    3.0599   -0.0000 C   0  0  0  0  0  0  0  0  0  0  0  0
   -1.3573    5.3103   -0.0000 C   0  0  0  0  0  0  0  0  0  0  0  0
    1.0478    5.5841   -0.0000 C   0  0  0  0  0  0  0  0  0  0  0  0
    3.8220    5.3222   -0.0000 C   0  0  0  0  0  0  0  0  0  0  0  0
   -2.6670    4.5721   -0.0000 N   0  0  0  0  0  0  0  0  0  0  0  0
   -3.9648    2.3217   -0.0000 N   0  0  0  0  0  0  0  0  0  0  0  0
   -1.0597    6.7867   -0.0000 C   0  0  0  0  0  0  0  0  0  0  0  0
    0.4167    6.9652   -0.0000 N   0  0  0  0  0  0  0  0  0  0  0  0
    5.1078    4.5840   -0.0000 C   0  0  0  0  0  0  0  0  0  0  0  0
    1.1549    8.2750   -0.0000 C   0  0  0  0  0  0  0  0  0  0  0  0
    6.3937    5.3460   -0.0000 N   0  0  0  0  0  0  0  0  0  0  0  0
    0.3929    9.5847   -0.0000 O   0  0  0  0  0  0  0  0  0  0  0  0
    2.6432    8.2988   -0.0000 N   0  0  0  0  0  0  0  0  0  0  0  0
    6.5247    6.8581   -0.0000 N   0  0  0  0  0  0  0  0  0  0  0  0
    7.7511    4.7626   -0.0000 C   0  0  0  0  0  0  0  0  0  0  0  0
    3.3814    9.6085   -0.0000 C   0  0  0  0  0  0  0  0  0  0  0  0
    7.9773    7.1915   -0.0000 C   0  0  0  0  0  0  0  0  0  0  0  0
    8.7393    5.8937   -0.0000 C   0  0  0  0  0  0  0  0  0  0  0  0
    4.8697    9.6323   -0.0000 C   0  0  0  0  0  0  0  0  0  0  0  0
   10.2157    5.7508   -0.0000 F   0  0  0  0  0  0  0  0  0  0  0  0
    5.6079   10.9420   -0.0000 F   0  0  0  0  0  0  0  0  0  0  0  0
    5.6079    8.3464   -0.0000 F   0  0  0  0  0  0  0  0  0  0  0  0
    6.3580    9.6442   -0.0000 C   0  0  0  0  0  0  0  0  0  0  0  0
  1  2  1  0  0  0  0
  2  3  2  0  0  0  0
  2  4  1  0  0  0  0
  3  5  1  0  0  0  0
  3  6  1  0  0  0  0
  4  7  2  0  0  0  0
  5  8  2  0  0  0  0
  5  9  1  0  0  0  0
  6 10  1  0  0  0  0
  6 11  2  0  0  0  0
  7 12  1  0  0  0  0
  8 13  1  0  0  0  0
  9 14  2  0  0  0  0
  9 15  1  0  0  0  0
 10 16  1  0  0  0  0
 13 17  2  0  0  0  0
 13 18  1  0  0  0  0
 14 19  1  0  0  0  0
 15 20  1  0  0  0  0
 16 21  1  0  0  0  0
 20 22  1  0  0  0  0
 21 23  1  0  0  0  0
 22 24  2  0  0  0  0
 22 25  1  0  0  0  0
 23 26  1  0  0  0  0
 23 27  1  0  0  0  0
 25 28  1  0  0  0  0
 26 29  2  0  0  0  0
 27 30  2  0  0  0  0
 28 31  1  0  0  0  0
 30 32  1  0  0  0  0
 31 33  1  0  0  0  0
 31 34  1  0  0  0  0
 31 35  1  0  0  0  0
  7 11  1  0  0  0  0
 14 17  1  0  0  0  0
 19 20  1  0  0  0  0
 29 30  1  0  0  0  0
M  END
>  <MolRegNo>
1145984

>  <m>
=

>  <Value>
600

>  <Unit>
nM

>  <Type>
IC50

>  <pValue>
6.22

>  <Ligand Efficiency>
0

>  <Binding Efficiency>
0

>  <Surface Efficiency>
0

>  <Assay Index>
589616

>  <Assay Category>


>  <Assay Organism>
Homo sapiens

>  <Target ID>
17045

>  <Target Name>
Cytochrome P450 3A4

>  <Target Organism>
Homo sapiens

>  <Target Description>
Target is a single protein chain

>  <Sequence Accession>
P08684

>  <Reference>
J Med Chem 54 (9), 3368-3385 (2011)

>  <Pubmed ID>
21438541

>  <DOI>
10.1021/jm200128m

$$$$
1145985
Actelion Java MolfileCreator 1.0

 35 38  0  0  0  0  0  0  0  0999 V2000
    0.0000   -0.0000   -0.0000 Cl  0  0  0  0  0  0  0  0  0  0  0  0
   -1.3067    0.7603   -0.0000 C   0  0  0  0  0  0  0  0  0  0  0  0
   -1.3305    2.2808   -0.0000 C   0  0  0  0  0  0  0  0  0  0  0  0
   -2.6134    0.0238   -0.0000 C   0  0  0  0  0  0  0  0  0  0  0  0
   -2.6372    3.0292   -0.0000 C   0  0  0  0  0  0  0  0  0  0  0  0
   -3.9202    0.7840   -0.0000 C   0  0  0  0  0  0  0  0  0  0  0  0
   -2.6610    4.5379   -0.0000 O   0  0  0  0  0  0  0  0  0  0  0  0
   -3.9439    2.2927   -0.0000 C   0  0  0  0  0  0  0  0  0  0  0  0
   -5.2269    0.0475   -0.0000 C   0  0  0  0  0  0  0  0  0  0  0  0
   -1.3780    5.3101   -0.0000 C   0  0  0  0  0  0  0  0  0  0  0  0
   -5.2507    3.0530   -0.0000 C   0  0  0  0  0  0  0  0  0  0  0  0
   -0.0950    4.5735   -0.0000 C   0  0  0  0  0  0  0  0  0  0  0  0
   -6.5574    2.3165   -0.0000 N   0  0  0  0  0  0  0  0  0  0  0  0
   -5.2625    4.5735   -0.0000 C   0  0  0  0  0  0  0  0  0  0  0  0
    1.1879    5.3457   -0.0000 N   0  0  0  0  0  0  0  0  0  0  0  0
   -7.8641    3.0767   -0.0000 C   0  0  0  0  0  0  0  0  0  0  0  0
   -6.5693    5.3219   -0.0000 C   0  0  0  0  0  0  0  0  0  0  0  0
   -4.1696    5.5952   -0.0000 C   0  0  0  0  0  0  0  0  0  0  0  0
    1.3186    6.8544   -0.0000 N   0  0  0  0  0  0  0  0  0  0  0  0
    2.5422    4.7636   -0.0000 C   0  0  0  0  0  0  0  0  0  0  0  0
   -7.8760    4.5854   -0.0000 N   0  0  0  0  0  0  0  0  0  0  0  0
   -9.1708    2.3402   -0.0000 N   0  0  0  0  0  0  0  0  0  0  0  0
   -6.2723    6.7950   -0.0000 C   0  0  0  0  0  0  0  0  0  0  0  0
   -4.7992    6.9732   -0.0000 N   0  0  0  0  0  0  0  0  0  0  0  0
    2.7679    7.1870   -0.0000 C   0  0  0  0  0  0  0  0  0  0  0  0
    3.5282    5.8921   -0.0000 C   0  0  0  0  0  0  0  0  0  0  0  0
   -4.0627    8.2799   -0.0000 C   0  0  0  0  0  0  0  0  0  0  0  0
    5.0012    5.7496   -0.0000 F   0  0  0  0  0  0  0  0  0  0  0  0
   -4.8230    9.5866   -0.0000 O   0  0  0  0  0  0  0  0  0  0  0  0
   -2.5778    8.3036   -0.0000 N   0  0  0  0  0  0  0  0  0  0  0  0
   -1.8413    9.6104   -0.0000 C   0  0  0  0  0  0  0  0  0  0  0  0
   -0.3564    9.6341   -0.0000 C   0  0  0  0  0  0  0  0  0  0  0  0
    0.3801   10.9408   -0.0000 F   0  0  0  0  0  0  0  0  0  0  0  0
    0.3801    8.3512   -0.0000 F   0  0  0  0  0  0  0  0  0  0  0  0
    1.1285    9.6460   -0.0000 C   0  0  0  0  0  0  0  0  0  0  0  0
  1  2  1  0  0  0  0
  2  3  2  0  0  0  0
  2  4  1  0  0  0  0
  3  5  1  0  0  0  0
  4  6  2  0  0  0  0
  5  7  1  0  0  0  0
  5  8  2  0  0  0  0
  6  9  1  0  0  0  0
  7 10  1  0  0  0  0
  8 11  1  0  0  0  0
 10 12  1  0  0  0  0
 11 13  2  0  0  0  0
 11 14  1  0  0  0  0
 12 15  1  0  0  0  0
 13 16  1  0  0  0  0
 14 17  2  0  0  0  0
 14 18  1  0  0  0  0
 15 19  1  0  0  0  0
 15 20  1  0  0  0  0
 16 21  2  0  0  0  0
 16 22  1  0  0  0  0
 17 23  1  0  0  0  0
 18 24  1  0  0  0  0
 19 25  2  0  0  0  0
 20 26  2  0  0  0  0
 24 27  1  0  0  0  0
 26 28  1  0  0  0  0
 27 29  2  0  0  0  0
 27 30  1  0  0  0  0
 30 31  1  0  0  0  0
 31 32  1  0  0  0  0
 32 33  1  0  0  0  0
 32 34  1  0  0  0  0
 32 35  1  0  0  0  0
  6  8  1  0  0  0  0
 17 21  1  0  0  0  0
 23 24  1  0  0  0  0
 25 26  1  0  0  0  0
M  END
>  <MolRegNo>
1145985

>  <m>
=

>  <Value>
4700

>  <Unit>
nM

>  <Type>
IC50

>  <pValue>
5.33

>  <Ligand Efficiency>
0

>  <Binding Efficiency>
0

>  <Surface Efficiency>
0

>  <Assay Index>
589616

>  <Assay Category>


>  <Assay Organism>
Homo sapiens

>  <Target ID>
17045

>  <Target Name>
Cytochrome P450 3A4

>  <Target Organism>
Homo sapiens

>  <Target Description>
Target is a single protein chain

>  <Sequence Accession>
P08684

>  <Reference>
J Med Chem 54 (9), 3368-3385 (2011)

>  <Pubmed ID>
21438541

>  <DOI>
10.1021/jm200128m

$$$$
1147051
Actelion Java MolfileCreator 1.0

 41 45  0  0  0  0  0  0  0  0999 V2000
    0.0000   -0.0000   -0.0000 O   0  0  0  0  0  0  0  0  0  0  0  0
   -0.0119   -1.4892   -0.0000 C   0  0  0  0  0  0  0  0  0  0  0  0
    1.2748   -2.2279   -0.0000 N   0  0  0  0  0  0  0  0  0  0  0  0
   -1.3224   -2.2279   -0.0000 C   0  0  0  0  0  0  0  0  0  0  0  0
    2.5615   -1.4654   -0.0000 C   0  0  0  0  0  0  0  0  0  0  0  0
   -2.6330   -1.4654   -0.0000 C   0  0  0  0  0  0  0  0  0  0  0  0
   -1.3343   -3.7290   -0.0000 C   0  0  0  0  0  0  0  0  0  0  0  0
    3.8482   -2.2041   -0.0000 C   0  0  0  0  0  0  0  0  0  0  0  0
    1.7871   -0.1430   -0.0000 C   0  0  0  0  0  0  0  0  0  0  0  0
    3.2882   -0.1430   -0.0000 C   0  0  0  0  0  0  0  0  0  0  0  0
   -3.9435   -2.2160   -0.0000 C   0  0  0  0  0  0  0  0  0  0  0  0
   -2.6568   -4.4677   -0.0000 C   0  0  0  0  0  0  0  0  0  0  0  0
    3.8362   -3.6933   -0.0000 O   0  0  0  0  0  0  0  0  0  0  0  0
    5.1349   -1.4416   -0.0000 N   0  0  0  0  0  0  0  0  0  0  0  0
   -5.3850   -1.7394   -0.0000 N   0  0  0  0  0  0  0  0  0  0  0  0
   -3.9554   -3.7052   -0.0000 C   0  0  0  0  0  0  0  0  0  0  0  0
    6.4215   -2.1802   -0.0000 C   0  0  0  0  0  0  0  0  0  0  0  0
   -6.2786   -2.9427   -0.0000 C   0  0  0  0  0  0  0  0  0  0  0  0
   -5.8616   -0.2978   -0.0000 C   0  0  0  0  0  0  0  0  0  0  0  0
   -5.3970   -4.1579   -0.0000 C   0  0  0  0  0  0  0  0  0  0  0  0
    6.4096   -3.6695   -0.0000 C   0  0  0  0  0  0  0  0  0  0  0  0
    7.6963   -1.4058   -0.0000 C   0  0  0  0  0  0  0  0  0  0  0  0
   -7.7916   -2.9189   -0.0000 C   0  0  0  0  0  0  0  0  0  0  0  0
   -5.8735   -5.5638   -0.0000 C   0  0  0  0  0  0  0  0  0  0  0  0
    7.6963   -4.4081   -0.0000 C   0  0  0  0  0  0  0  0  0  0  0  0
    8.9830   -2.1326   -0.0000 C   0  0  0  0  0  0  0  0  0  0  0  0
   -8.6852   -4.1222   -0.0000 C   0  0  0  0  0  0  0  0  0  0  0  0
   -8.6852   -1.6918   -0.0000 C   0  0  0  0  0  0  0  0  0  0  0  0
   -7.3627   -5.8616   -0.0000 C   0  0  0  0  0  0  0  0  0  0  0  0
   -4.8847   -6.6717   -0.0000 C   0  0  0  0  0  0  0  0  0  0  0  0
    8.9830   -3.6337   -0.0000 C   0  0  0  0  0  0  0  0  0  0  0  0
  -10.1267   -3.6456   -0.0000 O   0  0  0  0  0  0  0  0  0  0  0  0
  -10.1267   -2.1445   -0.0000 C   0  0  0  0  0  0  0  0  0  0  0  0
   -7.8393   -7.2674   -0.0000 C   0  0  0  0  0  0  0  0  0  0  0  0
   -5.3731   -8.0895   -0.0000 C   0  0  0  0  0  0  0  0  0  0  0  0
   10.2816   -4.3724   -0.0000 C   0  0  0  0  0  0  0  0  0  0  0  0
   -6.8504   -8.3754   -0.0000 C   0  0  0  0  0  0  0  0  0  0  0  0
   11.5683   -3.5980   -0.0000 C   0  0  0  0  0  0  0  0  0  0  0  0
   12.8669   -4.3366   -0.0000 C   0  0  0  0  0  0  0  0  0  0  0  0
   12.8669   -5.8259   -0.0000 O   0  0  0  0  0  0  0  0  0  0  0  0
   14.1536   -3.5622   -0.0000 O   0  0  0  0  0  0  0  0  0  0  0  0
  1  2  2  0  0  0  0
  2  3  1  0  0  0  0
  2  4  1  0  0  0  0
  3  5  1  0  0  0  0
  4  6  2  0  0  0  0
  4  7  1  0  0  0  0
  5  8  1  0  0  0  0
  5  9  1  0  0  0  0
  5 10  1  0  0  0  0
  6 11  1  0  0  0  0
  7 12  2  0  0  0  0
  8 13  2  0  0  0  0
  8 14  1  0  0  0  0
 11 15  1  0  0  0  0
 11 16  2  0  0  0  0
 14 17  1  0  0  0  0
 15 18  1  0  0  0  0
 15 19  1  0  0  0  0
 16 20  1  0  0  0  0
 17 21  2  0  0  0  0
 17 22  1  0  0  0  0
 18 23  1  0  0  0  0
 20 24  1  0  0  0  0
 21 25  1  0  0  0  0
 22 26  2  0  0  0  0
 23 27  2  0  0  0  0
 23 28  1  0  0  0  0
 24 29  1  0  0  0  0
 24 30  1  0  0  0  0
 25 31  2  0  0  0  0
 27 32  1  0  0  0  0
 28 33  2  0  0  0  0
 29 34  1  0  0  0  0
 30 35  1  0  0  0  0
 31 36  1  0  0  0  0
 34 37  1  0  0  0  0
 36 38  2  0  0  0  0
 38 39  1  0  0  0  0
 39 40  2  0  0  0  0
 39 41  1  0  0  0  0
 12 16  1  0  0  0  0
 18 20  2  0  0  0  0
 26 31  1  0  0  0  0
 32 33  1  0  0  0  0
 35 37  1  0  0  0  0
M  END
>  <MolRegNo>
1147051

>  <m>
=

>  <Value>
8700

>  <Unit>
nM

>  <Type>
IC50

>  <pValue>
5.06

>  <Ligand Efficiency>
0

>  <Binding Efficiency>
0

>  <Surface Efficiency>
0

>  <Assay Index>
591525

>  <Assay Category>


>  <Assay Organism>


>  <Target ID>
17045

>  <Target Name>
Cytochrome P450 3A4

>  <Target Organism>
Homo sapiens

>  <Target Description>
Target is a single protein chain

>  <Sequence Accession>
P08684

>  <Reference>
Bioorg Med Chem Lett 21 (12), 3658-3663 (2011)

>  <Pubmed ID>
21550240

>  <DOI>
10.1016/j.bmcl.2011.04.059

$$$$
1146944
Actelion Java MolfileCreator 1.0

 42 46  0  0  0  0  0  0  0  0999 V2000
    0.0000   -0.0000   -0.0000 O   0  0  0  0  0  0  0  0  0  0  0  0
   -0.0119   -1.4883   -0.0000 C   0  0  0  0  0  0  0  0  0  0  0  0
    1.2740   -2.2266   -0.0000 N   0  0  0  0  0  0  0  0  0  0  0  0
   -1.3216   -2.2266   -0.0000 C   0  0  0  0  0  0  0  0  0  0  0  0
    2.5599   -1.4645   -0.0000 C   0  0  0  0  0  0  0  0  0  0  0  0
   -2.6314   -1.4645   -0.0000 C   0  0  0  0  0  0  0  0  0  0  0  0
   -1.3336   -3.7268   -0.0000 C   0  0  0  0  0  0  0  0  0  0  0  0
    3.8459   -2.2027   -0.0000 C   0  0  0  0  0  0  0  0  0  0  0  0
    1.7860   -0.1429   -0.0000 C   0  0  0  0  0  0  0  0  0  0  0  0
    3.2863   -0.1429   -0.0000 C   0  0  0  0  0  0  0  0  0  0  0  0
   -3.9411   -2.2147   -0.0000 C   0  0  0  0  0  0  0  0  0  0  0  0
   -2.6552   -4.4650   -0.0000 C   0  0  0  0  0  0  0  0  0  0  0  0
    3.8340   -3.6911   -0.0000 O   0  0  0  0  0  0  0  0  0  0  0  0
    5.1318   -1.4407   -0.0000 N   0  0  0  0  0  0  0  0  0  0  0  0
   -5.3818   -1.7384   -0.0000 N   0  0  0  0  0  0  0  0  0  0  0  0
   -3.9530   -3.7030   -0.0000 C   0  0  0  0  0  0  0  0  0  0  0  0
    6.4177   -2.1789   -0.0000 C   0  0  0  0  0  0  0  0  0  0  0  0
   -6.2748   -2.9410   -0.0000 C   0  0  0  0  0  0  0  0  0  0  0  0
   -5.8581   -0.2977   -0.0000 C   0  0  0  0  0  0  0  0  0  0  0  0
   -5.3938   -4.1555   -0.0000 C   0  0  0  0  0  0  0  0  0  0  0  0
    6.4058   -3.6673   -0.0000 C   0  0  0  0  0  0  0  0  0  0  0  0
    7.6918   -1.4050   -0.0000 C   0  0  0  0  0  0  0  0  0  0  0  0
   -7.7870   -2.9410   -0.0000 C   0  0  0  0  0  0  0  0  0  0  0  0
   -5.8700   -5.5604   -0.0000 C   0  0  0  0  0  0  0  0  0  0  0  0
    7.6918   -4.4055   -0.0000 C   0  0  0  0  0  0  0  0  0  0  0  0
    8.9777   -2.1313   -0.0000 C   0  0  0  0  0  0  0  0  0  0  0  0
   -8.5490   -4.2269   -0.0000 N   0  0  0  0  0  0  0  0  0  0  0  0
   -8.5490   -1.6193   -0.0000 C   0  0  0  0  0  0  0  0  0  0  0  0
   -7.3584   -5.8581   -0.0000 C   0  0  0  0  0  0  0  0  0  0  0  0
   -4.8818   -6.6678   -0.0000 C   0  0  0  0  0  0  0  0  0  0  0  0
    8.9777   -3.6435   -0.0000 C   0  0  0  0  0  0  0  0  0  0  0  0
  -10.0612   -4.2150   -0.0000 C   0  0  0  0  0  0  0  0  0  0  0  0
  -10.0612   -1.6074   -0.0000 C   0  0  0  0  0  0  0  0  0  0  0  0
   -7.8346   -7.2631   -0.0000 C   0  0  0  0  0  0  0  0  0  0  0  0
   -5.3699   -8.0847   -0.0000 C   0  0  0  0  0  0  0  0  0  0  0  0
   10.2755   -4.3817   -0.0000 C   0  0  0  0  0  0  0  0  0  0  0  0
  -10.8351   -2.8933   -0.0000 C   0  0  0  0  0  0  0  0  0  0  0  0
   -6.8464   -8.3704   -0.0000 C   0  0  0  0  0  0  0  0  0  0  0  0
   11.5614   -3.6077   -0.0000 C   0  0  0  0  0  0  0  0  0  0  0  0
   12.8593   -4.3460   -0.0000 C   0  0  0  0  0  0  0  0  0  0  0  0
   12.8593   -5.8343   -0.0000 O   0  0  0  0  0  0  0  0  0  0  0  0
   14.1452   -3.5720   -0.0000 O   0  0  0  0  0  0  0  0  0  0  0  0
  1  2  2  0  0  0  0
  2  3  1  0  0  0  0
  2  4  1  0  0  0  0
  3  5  1  0  0  0  0
  4  6  2  0  0  0  0
  4  7  1  0  0  0  0
  5  8  1  0  0  0  0
  5  9  1  0  0  0  0
  5 10  1  0  0  0  0
  6 11  1  0  0  0  0
  7 12  2  0  0  0  0
  8 13  2  0  0  0  0
  8 14  1  0  0  0  0
 11 15  1  0  0  0  0
 11 16  2  0  0  0  0
 14 17  1  0  0  0  0
 15 18  1  0  0  0  0
 15 19  1  0  0  0  0
 16 20  1  0  0  0  0
 17 21  2  0  0  0  0
 17 22  1  0  0  0  0
 18 23  1  0  0  0  0
 20 24  1  0  0  0  0
 21 25  1  0  0  0  0
 22 26  2  0  0  0  0
 23 27  2  0  0  0  0
 23 28  1  0  0  0  0
 24 29  1  0  0  0  0
 24 30  1  0  0  0  0
 25 31  2  0  0  0  0
 27 32  1  0  0  0  0
 28 33  2  0  0  0  0
 29 34  1  0  0  0  0
 30 35  1  0  0  0  0
 31 36  1  0  0  0  0
 32 37  2  0  0  0  0
 34 38  1  0  0  0  0
 36 39  2  0  0  0  0
 39 40  1  0  0  0  0
 40 41  2  0  0  0  0
 40 42  1  0  0  0  0
 12 16  1  0  0  0  0
 18 20  2  0  0  0  0
 26 31  1  0  0  0  0
 33 37  1  0  0  0  0
 35 38  1  0  0  0  0
M  END
>  <MolRegNo>
1146944

>  <m>
=

>  <Value>
8900

>  <Unit>
nM

>  <Type>
IC50

>  <pValue>
5.05

>  <Ligand Efficiency>
0

>  <Binding Efficiency>
0

>  <Surface Efficiency>
0

>  <Assay Index>
591525

>  <Assay Category>


>  <Assay Organism>


>  <Target ID>
17045

>  <Target Name>
Cytochrome P450 3A4

>  <Target Organism>
Homo sapiens

>  <Target Description>
Target is a single protein chain

>  <Sequence Accession>
P08684

>  <Reference>
Bioorg Med Chem Lett 21 (12), 3658-3663 (2011)

>  <Pubmed ID>
21550240

>  <DOI>
10.1016/j.bmcl.2011.04.059

$$$$
1148174
Actelion Java MolfileCreator 1.0

 31 33  0  0  0  0  0  0  0  0999 V2000
    0.0000   -0.0000   -0.0000 F   0  0  0  0  0  0  0  0  0  0  0  0
    1.2922   -0.7418   -0.0000 C   0  0  0  0  0  0  0  0  0  0  0  0
    2.5844    0.0239   -0.0000 C   0  0  0  0  0  0  0  0  0  0  0  0
    1.2802   -2.2374   -0.0000 C   0  0  0  0  0  0  0  0  0  0  0  0
    2.5724    1.5435   -0.0000 F   0  0  0  0  0  0  0  0  0  0  0  0
    3.8766   -0.7179   -0.0000 C   0  0  0  0  0  0  0  0  0  0  0  0
    2.5724   -2.9792   -0.0000 C   0  0  0  0  0  0  0  0  0  0  0  0
    3.8646   -2.2255   -0.0000 C   0  0  0  0  0  0  0  0  0  0  0  0
    2.5605   -4.4748   -0.0000 F   0  0  0  0  0  0  0  0  0  0  0  0
    5.1568   -2.9673   -0.0000 C   0  0  0  0  0  0  0  0  0  0  0  0
    6.4490   -2.2015   -0.0000 C   0  0  0  0  0  0  0  0  0  0  0  0
    6.4371   -0.6820   -0.0000 N   0  0  0  0  0  0  0  0  0  0  0  0
    7.7412   -2.9433   -0.0000 C   0  0  0  0  0  0  0  0  0  0  0  0
    9.0334   -2.1776   -0.0000 C   0  0  0  0  0  0  0  0  0  0  0  0
    9.0215   -0.6581   -0.0000 O   0  0  0  0  0  0  0  0  0  0  0  0
   10.3257   -2.9194   -0.0000 N   0  0  0  0  0  0  0  0  0  0  0  0
   10.3137   -4.4150   -0.0000 C   0  0  0  0  0  0  0  0  0  0  0  0
   11.6179   -2.1537   -0.0000 C   0  0  0  0  0  0  0  0  0  0  0  0
   11.6059   -5.1568   -0.0000 C   0  0  0  0  0  0  0  0  0  0  0  0
   12.9101   -2.9075   -0.0000 C   0  0  0  0  0  0  0  0  0  0  0  0
   11.5939   -6.6524   -0.0000 O   0  0  0  0  0  0  0  0  0  0  0  0
   12.9101   -4.3911   -0.0000 N   0  0  0  0  0  0  0  0  0  0  0  0
   14.2023   -5.1329   -0.0000 C   0  0  0  0  0  0  0  0  0  0  0  0
   15.4945   -4.3672   -0.0000 C   0  0  0  0  0  0  0  0  0  0  0  0
   16.7867   -5.1209   -0.0000 C   0  0  0  0  0  0  0  0  0  0  0  0
   15.4825   -2.8596   -0.0000 C   0  0  0  0  0  0  0  0  0  0  0  0
   18.0789   -4.3552   -0.0000 C   0  0  0  0  0  0  0  0  0  0  0  0
   16.7747   -2.0938   -0.0000 C   0  0  0  0  0  0  0  0  0  0  0  0
   18.0669   -2.8357   -0.0000 C   0  0  0  0  0  0  0  0  0  0  0  0
   19.3591   -2.0819   -0.0000 O   0  0  0  0  0  0  0  0  0  0  0  0
   19.3471   -0.5623   -0.0000 C   0  0  0  0  0  0  0  0  0  0  0  0
  1  2  1  0  0  0  0
  2  3  2  0  0  0  0
  2  4  1  0  0  0  0
  3  5  1  0  0  0  0
  3  6  1  0  0  0  0
  4  7  2  0  0  0  0
  6  8  2  0  0  0  0
  7  9  1  0  0  0  0
  8 10  1  0  0  0  0
 10 11  1  0  0  0  0
 11 12  1  1  0  0  0
 11 13  1  0  0  0  0
 13 14  1  0  0  0  0
 14 15  2  0  0  0  0
 14 16  1  0  0  0  0
 16 17  1  0  0  0  0
 16 18  1  0  0  0  0
 17 19  1  0  0  0  0
 18 20  1  0  0  0  0
 19 21  2  0  0  0  0
 19 22  1  0  0  0  0
 22 23  1  0  0  0  0
 23 24  1  0  0  0  0
 24 25  2  0  0  0  0
 24 26  1  0  0  0  0
 25 27  1  0  0  0  0
 26 28  2  0  0  0  0
 27 29  2  0  0  0  0
 29 30  1  0  0  0  0
 30 31  1  0  0  0  0
  7  8  1  0  0  0  0
 20 22  1  0  0  0  0
 28 29  1  0  0  0  0
M  END
>  <MolRegNo>
1148174

>  <m>
=

>  <Value>
1075

>  <Unit>
nM

>  <Type>
IC50

>  <pValue>
5.97

>  <Ligand Efficiency>
0

>  <Binding Efficiency>
0

>  <Surface Efficiency>
0

>  <Assay Index>
591858

>  <Assay Category>


>  <Assay Organism>


>  <Target ID>
17045

>  <Target Name>
Cytochrome P450 3A4

>  <Target Organism>
Homo sapiens

>  <Target Description>
Target is a single protein chain

>  <Sequence Accession>
P08684

>  <Reference>
Bioorg Med Chem Lett 21 (12), 3809-3812 (2011)

>  <Pubmed ID>
21570283

>  <DOI>
10.1016/j.bmcl.2011.04.029

$$$$
1146437
Actelion Java MolfileCreator 1.0

 38 41  0  0  0  0  0  0  0  0999 V2000
    0.0000   -0.0000   -0.0000 S   0  0  0  0  0  0  0  0  0  0  0  0
    0.7342    1.3239   -0.0000 O   0  0  0  0  0  0  0  0  0  0  0  0
    1.5165    0.0602   -0.0000 O   0  0  0  0  0  0  0  0  0  0  0  0
   -0.0120   -1.4924   -0.0000 N   0  0  0  0  0  0  0  0  0  0  0  0
   -1.3239    0.7582   -0.0000 C   0  0  0  0  0  0  0  0  0  0  0  0
    1.2878   -2.2266   -0.0000 C   0  0  0  0  0  0  0  0  0  0  0  0
   -1.3239   -2.2386   -0.0000 C   0  0  0  0  0  0  0  0  0  0  0  0
   -2.6478    0.0120   -0.0000 C   0  0  0  0  0  0  0  0  0  0  0  0
   -1.3359    2.2867   -0.0000 C   0  0  0  0  0  0  0  0  0  0  0  0
    1.2758   -3.7310   -0.0000 C   0  0  0  0  0  0  0  0  0  0  0  0
    2.5756   -1.4563   -0.0000 C   0  0  0  0  0  0  0  0  0  0  0  0
   -1.3480   -3.7190   -0.0000 C   0  0  0  0  0  0  0  0  0  0  0  0
   -3.9597    0.7823   -0.0000 C   0  0  0  0  0  0  0  0  0  0  0  0
   -2.6598    3.0450   -0.0000 C   0  0  0  0  0  0  0  0  0  0  0  0
    2.5636   -4.4772   -0.0000 O   0  0  0  0  0  0  0  0  0  0  0  0
   -0.0481   -4.4772   -0.0000 N   0  0  0  0  0  0  0  0  0  0  0  0
    3.8634   -2.2025   -0.0000 C   0  0  0  0  0  0  0  0  0  0  0  0
   -3.9717    2.3108   -0.0000 C   0  0  0  0  0  0  0  0  0  0  0  0
    3.8514   -3.6949   -0.0000 O   0  0  0  0  0  0  0  0  0  0  0  0
    5.1512   -1.4322   -0.0000 N   0  0  0  0  0  0  0  0  0  0  0  0
   -5.2836    3.0811   -0.0000 C   0  0  0  0  0  0  0  0  0  0  0  0
    6.4390   -2.1784   -0.0000 C   0  0  0  0  0  0  0  0  0  0  0  0
    6.4270   -3.6708   -0.0000 C   0  0  0  0  0  0  0  0  0  0  0  0
    7.7268   -1.4082   -0.0000 C   0  0  0  0  0  0  0  0  0  0  0  0
    7.7027   -4.4050   -0.0000 C   0  0  0  0  0  0  0  0  0  0  0  0
    5.1271   -4.4050   -0.0000 C   0  0  0  0  0  0  0  0  0  0  0  0
    9.0266   -2.1544   -0.0000 C   0  0  0  0  0  0  0  0  0  0  0  0
    7.6907   -5.8854   -0.0000 C   0  0  0  0  0  0  0  0  0  0  0  0
    9.0026   -3.6468   -0.0000 C   0  0  0  0  0  0  0  0  0  0  0  0
    5.1151   -5.8854   -0.0000 C   0  0  0  0  0  0  0  0  0  0  0  0
    6.3909   -6.6195   -0.0000 C   0  0  0  0  0  0  0  0  0  0  0  0
    6.3788   -8.1119   -0.0000 C   0  0  0  0  0  0  0  0  0  0  0  0
    7.6786   -8.8461   -0.0000 N   0  0  0  0  0  0  0  0  0  0  0  0
    7.6666  -10.3385   -0.0000 C   0  0  0  0  0  0  0  0  0  0  0  0
    8.9664  -11.0727   -0.0000 C   0  0  0  0  0  0  0  0  0  0  0  0
    8.9544  -12.5651   -0.0000 C   0  0  0  0  0  0  0  0  0  0  0  0
   10.2542  -10.3024   -0.0000 C   0  0  0  0  0  0  0  0  0  0  0  0
   10.2542  -11.8189   -0.0000 C   0  0  0  0  0  0  0  0  0  0  0  0
  1  2  2  0  0  0  0
  1  3  2  0  0  0  0
  1  4  1  0  0  0  0
  1  5  1  0  0  0  0
  4  6  1  0  0  0  0
  4  7  1  0  0  0  0
  5  8  2  0  0  0  0
  5  9  1  0  0  0  0
  6 10  1  0  0  0  0
  6 11  1  1  0  0  0
  7 12  1  0  0  0  0
  8 13  1  0  0  0  0
  9 14  2  0  0  0  0
 10 15  2  0  0  0  0
 10 16  1  0  0  0  0
 11 17  1  0  0  0  0
 13 18  2  0  0  0  0
 17 19  2  0  0  0  0
 17 20  1  0  0  0  0
 18 21  1  0  0  0  0
 22 20  1  1  0  0  0
 22 23  1  0  0  0  0
 22 24  1  0  0  0  0
 23 25  2  0  0  0  0
 23 26  1  0  0  0  0
 24 27  1  0  0  0  0
 25 28  1  0  0  0  0
 25 29  1  0  0  0  0
 26 30  2  0  0  0  0
 28 31  2  0  0  0  0
 31 32  1  0  0  0  0
 32 33  1  0  0  0  0
 33 34  1  0  0  0  0
 34 35  1  0  0  0  0
 35 36  1  0  0  0  0
 35 37  1  0  0  0  0
 35 38  1  0  0  0  0
 12 16  1  0  0  0  0
 14 18  1  0  0  0  0
 27 29  1  0  0  0  0
 30 31  1  0  0  0  0
M  END
>  <MolRegNo>
1146437

>  <m>
=

>  <Value>
2200

>  <Unit>
nM

>  <Type>
IC50

>  <pValue>
5.66

>  <Ligand Efficiency>
0

>  <Binding Efficiency>
0

>  <Surface Efficiency>
0

>  <Assay Index>
591279

>  <Assay Category>


>  <Assay Organism>


>  <Target ID>
17045

>  <Target Name>
Cytochrome P450 3A4

>  <Target Organism>
Homo sapiens

>  <Target Description>
Target is a single protein chain

>  <Sequence Accession>
P08684

>  <Reference>
Bioorg Med Chem Lett 21 (11), 3384-3389 (2011)

>  <Pubmed ID>
21514825

>  <DOI>
10.1016/j.bmcl.2011.03.115

$$$$
1146850
Actelion Java MolfileCreator 1.0

 33 37  0  0  0  0  0  0  0  0999 V2000
    0.0000   -0.0000   -0.0000 F   0  0  0  0  0  0  0  0  0  0  0  0
   -1.5052   -0.0119   -0.0000 C   0  0  0  0  0  0  0  0  0  0  0  0
   -2.2401   -1.3037   -0.0000 C   0  0  0  0  0  0  0  0  0  0  0  0
   -2.2875    1.2800   -0.0000 C   0  0  0  0  0  0  0  0  0  0  0  0
   -3.7334   -1.3156   -0.0000 C   0  0  0  0  0  0  0  0  0  0  0  0
   -3.7808    1.2682   -0.0000 C   0  0  0  0  0  0  0  0  0  0  0  0
   -4.5038   -0.0237   -0.0000 C   0  0  0  0  0  0  0  0  0  0  0  0
   -5.9972   -0.0356   -0.0000 C   0  0  0  0  0  0  0  0  0  0  0  0
   -6.7439   -1.3274   -0.0000 C   0  0  0  0  0  0  0  0  0  0  0  0
   -5.4283    1.3393   -0.0000 C   0  0  0  0  0  0  0  0  0  0  0  0
   -7.4906    0.1067   -0.0000 C   0  0  0  0  0  0  0  0  0  0  0  0
   -6.0209   -2.6075   -0.0000 O   0  0  0  0  0  0  0  0  0  0  0  0
   -8.2373   -1.2563   -0.0000 N   0  0  0  0  0  0  0  0  0  0  0  0
   -6.5661    2.3349   -0.0000 C   0  0  0  0  0  0  0  0  0  0  0  0
   -7.8343    1.5645   -0.0000 C   0  0  0  0  0  0  0  0  0  0  0  0
   -8.9721    0.0593   -0.0000 C   0  0  0  0  0  0  0  0  0  0  0  0
   -9.0432   -2.5008   -0.0000 C   0  0  0  0  0  0  0  0  0  0  0  0
  -10.4892    0.0948   -0.0000 C   0  0  0  0  0  0  0  0  0  0  0  0
   -8.2728    1.4223   -0.0000 C   0  0  0  0  0  0  0  0  0  0  0  0
  -11.2359    1.4104   -0.0000 N   0  0  0  0  0  0  0  0  0  0  0  0
   -9.0313    2.8327   -0.0000 C   0  0  0  0  0  0  0  0  0  0  0  0
  -12.7055    1.7423   -0.0000 C   0  0  0  0  0  0  0  0  0  0  0  0
  -10.4773    2.7141   -0.0000 C   0  0  0  0  0  0  0  0  0  0  0  0
  -12.8596    3.2475   -0.0000 C   0  0  0  0  0  0  0  0  0  0  0  0
  -13.9263    0.8889   -0.0000 C   0  0  0  0  0  0  0  0  0  0  0  0
  -11.4847    3.8520   -0.0000 C   0  0  0  0  0  0  0  0  0  0  0  0
  -14.2226    3.8638   -0.0000 C   0  0  0  0  0  0  0  0  0  0  0  0
  -15.2893    1.5171   -0.0000 C   0  0  0  0  0  0  0  0  0  0  0  0
  -11.1766    5.3216   -0.0000 C   0  0  0  0  0  0  0  0  0  0  0  0
  -15.4434    3.0104   -0.0000 C   0  0  0  0  0  0  0  0  0  0  0  0
   -9.7662    5.7839   -0.0000 C   0  0  0  0  0  0  0  0  0  0  0  0
   -9.4580    7.2535   -0.0000 O   0  0  0  0  0  0  0  0  0  0  0  0
   -8.6758    4.7883   -0.0000 O   0  0  0  0  0  0  0  0  0  0  0  0
  1  2  1  0  0  0  0
  2  3  2  0  0  0  0
  2  4  1  0  0  0  0
  3  5  1  0  0  0  0
  4  6  2  0  0  0  0
  5  7  2  0  0  0  0
  7  8  1  0  0  0  0
  8  9  1  0  0  0  0
  8 10  1  0  0  0  0
  8 11  1  0  0  0  0
  9 12  2  0  0  0  0
  9 13  1  0  0  0  0
 10 14  1  0  0  0  0
 11 15  1  0  0  0  0
 16 13  1  6  0  0  0
 13 17  1  0  0  0  0
 16 18  1  0  0  0  0
 16 19  1  0  0  0  0
 18 20  1  0  0  0  0
 19 21  1  0  0  0  0
 20 22  1  0  0  0  0
 20 23  1  0  0  0  0
 22 24  2  0  0  0  0
 22 25  1  0  0  0  0
 23 26  2  0  0  0  0
 24 27  1  0  0  0  0
 25 28  2  0  0  0  0
 26 29  1  0  0  0  0
 27 30  2  0  0  0  0
 29 31  1  0  0  0  0
 31 32  2  0  0  0  0
 31 33  1  0  0  0  0
  6  7  1  0  0  0  0
 14 15  1  0  0  0  0
 21 23  1  0  0  0  0
 24 26  1  0  0  0  0
 28 30  1  0  0  0  0
M  END
>  <MolRegNo>
1146850

>  <m>
=

>  <Value>
37000

>  <Unit>
nM

>  <Type>
IC50

>  <pValue>
4.43

>  <Ligand Efficiency>
0

>  <Binding Efficiency>
0

>  <Surface Efficiency>
0

>  <Assay Index>
590870

>  <Assay Category>


>  <Assay Organism>


>  <Target ID>
17045

>  <Target Name>
Cytochrome P450 3A4

>  <Target Organism>
Homo sapiens

>  <Target Description>
Target is a single protein chain

>  <Sequence Accession>
P08684

>  <Reference>
Bioorg Med Chem Lett 21 (11), 3471-3474 (2011)

>  <Pubmed ID>
21515053

>  <DOI>
10.1016/j.bmcl.2011.03.085

$$$$
1151044
Actelion Java MolfileCreator 1.0

 23 24  0  0  0  0  0  0  0  0999 V2000
    0.0000   -0.0000   -0.0000 S   0  0  0  0  0  0  0  0  0  0  0  0
    1.2841    0.7422   -0.0000 O   0  0  0  0  0  0  0  0  0  0  0  0
    0.0000    1.5080   -0.0000 O   0  0  0  0  0  0  0  0  0  0  0  0
   -1.5080    0.0118   -0.0000 N   0  0  0  0  0  0  0  0  0  0  0  0
    0.7304   -1.2959   -0.0000 C   0  0  0  0  0  0  0  0  0  0  0  0
   -2.2619    1.3312   -0.0000 C   0  0  0  0  0  0  0  0  0  0  0  0
   -2.2737   -1.2723   -0.0000 C   0  0  0  0  0  0  0  0  0  0  0  0
   -0.0353   -2.5800   -0.0000 C   0  0  0  0  0  0  0  0  0  0  0  0
   -3.7699    1.3430   -0.0000 C   0  0  0  0  0  0  0  0  0  0  0  0
   -3.7817   -1.2488   -0.0000 C   0  0  0  0  0  0  0  0  0  0  0  0
    0.6833   -3.8642   -0.0000 N   0  0  0  0  0  0  0  0  0  0  0  0
   -1.5433   -2.5565   -0.0000 C   0  0  0  0  0  0  0  0  0  0  0  0
   -4.5357    0.0589   -0.0000 N   0  0  0  0  0  0  0  0  0  0  0  0
    2.1677   -3.8642   -0.0000 O   0  0  0  0  0  0  0  0  0  0  0  0
   -0.0825   -5.1483   -0.0000 C   0  0  0  0  0  0  0  0  0  0  0  0
   -6.0436    0.0825   -0.0000 C   0  0  0  0  0  0  0  0  0  0  0  0
    0.6362   -6.4324   -0.0000 O   0  0  0  0  0  0  0  0  0  0  0  0
   -6.7976    1.3902   -0.0000 C   0  0  0  0  0  0  0  0  0  0  0  0
   -6.8094   -1.2017   -0.0000 C   0  0  0  0  0  0  0  0  0  0  0  0
   -8.3056    1.4137   -0.0000 C   0  0  0  0  0  0  0  0  0  0  0  0
   -8.3174   -1.1899   -0.0000 C   0  0  0  0  0  0  0  0  0  0  0  0
   -9.0713    0.1296   -0.0000 C   0  0  0  0  0  0  0  0  0  0  0  0
  -10.5793    0.1532   -0.0000 F   0  0  0  0  0  0  0  0  0  0  0  0
  1  2  2  0  0  0  0
  1  3  2  0  0  0  0
  1  4  1  0  0  0  0
  1  5  1  0  0  0  0
  4  6  1  0  0  0  0
  4  7  1  0  0  0  0
  5  8  1  0  0  0  0
  6  9  1  0  0  0  0
  7 10  1  0  0  0  0
  8 11  1  0  0  0  0
  8 12  1  0  0  0  0
  9 13  1  0  0  0  0
 11 14  1  0  0  0  0
 11 15  1  0  0  0  0
 13 16  1  0  0  0  0
 15 17  2  0  0  0  0
 16 18  2  0  0  0  0
 16 19  1  0  0  0  0
 18 20  1  0  0  0  0
 19 21  2  0  0  0  0
 20 22  2  0  0  0  0
 22 23  1  0  0  0  0
 10 13  1  0  0  0  0
 21 22  1  0  0  0  0
M  END
>  <MolRegNo>
1151044

>  <m>
=

>  <Value>
1000

>  <Unit>
nM

>  <Type>
IC50

>  <pValue>
6

>  <Ligand Efficiency>
0

>  <Binding Efficiency>
0

>  <Surface Efficiency>
0

>  <Assay Index>
593774

>  <Assay Category>


>  <Assay Organism>


>  <Target ID>
17045

>  <Target Name>
Cytochrome P450 3A4

>  <Target Organism>
Homo sapiens

>  <Target Description>
Target is a single protein chain

>  <Sequence Accession>
P08684

>  <Reference>
Bioorg Med Chem Lett 21 (11), 3301-3306 (2011)

>  <Pubmed ID>
21536437

>  <DOI>
10.1016/j.bmcl.2011.04.028

$$$$
1151031
Actelion Java MolfileCreator 1.0

 25 27  0  0  0  0  0  0  0  0999 V2000
    0.0000   -0.0000   -0.0000 S   0  0  0  0  0  0  0  0  0  0  0  0
    1.2844    0.7542   -0.0000 O   0  0  0  0  0  0  0  0  0  0  0  0
    0.0000    1.5083   -0.0000 O   0  0  0  0  0  0  0  0  0  0  0  0
   -1.5083    0.0118   -0.0000 N   0  0  0  0  0  0  0  0  0  0  0  0
    0.7306   -1.2962   -0.0000 C   0  0  0  0  0  0  0  0  0  0  0  0
   -2.2625    1.3316   -0.0000 C   0  0  0  0  0  0  0  0  0  0  0  0
   -2.2743   -1.2727   -0.0000 C   0  0  0  0  0  0  0  0  0  0  0  0
   -0.0354   -2.5807   -0.0000 C   0  0  0  0  0  0  0  0  0  0  0  0
   -3.7708    1.3434   -0.0000 C   0  0  0  0  0  0  0  0  0  0  0  0
   -3.7826   -1.2491   -0.0000 C   0  0  0  0  0  0  0  0  0  0  0  0
    0.6952   -3.8651   -0.0000 N   0  0  0  0  0  0  0  0  0  0  0  0
   -1.0959   -1.5083   -0.0000 C   0  0  0  0  0  0  0  0  0  0  0  0
   -1.1077   -3.6176   -0.0000 C   0  0  0  0  0  0  0  0  0  0  0  0
   -4.5368    0.0589   -0.0000 N   0  0  0  0  0  0  0  0  0  0  0  0
    2.1800   -3.8651   -0.0000 O   0  0  0  0  0  0  0  0  0  0  0  0
   -0.0707   -5.1495   -0.0000 C   0  0  0  0  0  0  0  0  0  0  0  0
   -2.1682   -2.5453   -0.0000 C   0  0  0  0  0  0  0  0  0  0  0  0
   -6.0451    0.0825   -0.0000 C   0  0  0  0  0  0  0  0  0  0  0  0
    0.6481   -6.4340   -0.0000 O   0  0  0  0  0  0  0  0  0  0  0  0
   -6.7875    1.3905   -0.0000 C   0  0  0  0  0  0  0  0  0  0  0  0
   -6.7993   -1.2020   -0.0000 C   0  0  0  0  0  0  0  0  0  0  0  0
   -8.2958    1.4141   -0.0000 C   0  0  0  0  0  0  0  0  0  0  0  0
   -8.3076   -1.1902   -0.0000 C   0  0  0  0  0  0  0  0  0  0  0  0
   -9.0618    0.1296   -0.0000 C   0  0  0  0  0  0  0  0  0  0  0  0
  -10.5701    0.1532   -0.0000 F   0  0  0  0  0  0  0  0  0  0  0  0
  1  2  2  0  0  0  0
  1  3  2  0  0  0  0
  1  4  1  0  0  0  0
  1  5  1  0  0  0  0
  4  6  1  0  0  0  0
  4  7  1  0  0  0  0
  5  8  1  0  0  0  0
  6  9  1  0  0  0  0
  7 10  1  0  0  0  0
  8 11  1  0  0  0  0
  8 12  1  0  0  0  0
  8 13  1  0  0  0  0
  9 14  1  0  0  0  0
 11 15  1  0  0  0  0
 11 16  1  0  0  0  0
 12 17  1  0  0  0  0
 14 18  1  0  0  0  0
 16 19  2  0  0  0  0
 18 20  2  0  0  0  0
 18 21  1  0  0  0  0
 20 22  1  0  0  0  0
 21 23  2  0  0  0  0
 22 24  2  0  0  0  0
 24 25  1  0  0  0  0
 10 14  1  0  0  0  0
 13 17  1  0  0  0  0
 23 24  1  0  0  0  0
M  END
>  <MolRegNo>
1151031

>  <m>
=

>  <Value>
1900

>  <Unit>
nM

>  <Type>
IC50

>  <pValue>
5.72

>  <Ligand Efficiency>
0

>  <Binding Efficiency>
0

>  <Surface Efficiency>
0

>  <Assay Index>
593774

>  <Assay Category>


>  <Assay Organism>


>  <Target ID>
17045

>  <Target Name>
Cytochrome P450 3A4

>  <Target Organism>
Homo sapiens

>  <Target Description>
Target is a single protein chain

>  <Sequence Accession>
P08684

>  <Reference>
Bioorg Med Chem Lett 21 (11), 3301-3306 (2011)

>  <Pubmed ID>
21536437

>  <DOI>
10.1016/j.bmcl.2011.04.028

$$$$
1162323
Actelion Java MolfileCreator 1.0

 29 33  0  0  1  0  0  0  0  0999 V2000
    0.0000   -0.0000   -0.0000 F   0  0  0  0  0  0  0  0  0  0  0  0
    1.2903    0.7694   -0.0000 C   0  0  0  0  0  0  0  0  0  0  0  0
    2.5806    0.0237   -0.0000 C   0  0  0  0  0  0  0  0  0  0  0  0
    1.2785    2.2847   -0.0000 C   0  0  0  0  0  0  0  0  0  0  0  0
    3.8709    0.7931   -0.0000 C   0  0  0  0  0  0  0  0  0  0  0  0
    2.5688    3.0423   -0.0000 C   0  0  0  0  0  0  0  0  0  0  0  0
    3.8591    2.3083   -0.0000 C   0  0  0  0  0  0  0  0  0  0  0  0
    5.1612    0.0474   -0.0000 C   0  0  0  0  0  0  0  0  0  0  0  0
    5.1494    3.0660   -0.0000 N   0  0  0  0  0  0  0  0  0  0  0  0
    6.4515    0.8168   -0.0000 C   0  0  0  0  0  0  0  0  0  0  0  0
    6.4397    2.3320   -0.0000 C   0  0  0  0  0  0  0  0  0  0  0  0
    7.7300    3.0896   -0.0000 C   0  0  0  0  0  0  0  0  0  0  0  0
    9.0203    2.3557   -0.0000 N   0  0  0  0  0  0  0  0  0  0  0  0
   10.3461    3.0541   -0.0000 C   0  0  0  0  0  0  0  0  0  0  0  0
   11.0919    4.3681   -0.0000 C   0  0  0  0  0  0  0  0  0  0  0  0
   11.8377    3.0660   -0.0000 C   0  0  0  0  0  0  0  0  0  0  0  0
   12.0863    5.4927   -0.0000 C   0  0  0  0  0  0  0  0  0  0  0  0
   13.2937    3.3856   -0.0000 C   0  0  0  0  0  0  0  0  0  0  0  0
   13.4476    4.8890   -0.0000 N   0  0  0  0  0  0  0  0  0  0  0  0
   14.7616    5.6229   -0.0000 C   0  0  0  0  0  0  0  0  0  0  0  0
   14.7142    7.1381   -0.0000 N   0  0  0  0  0  0  0  0  0  0  0  0
   16.0756    4.9126   -0.0000 N   0  0  0  0  0  0  0  0  0  0  0  0
   15.9809    7.9312   -0.0000 C   0  0  0  0  0  0  0  0  0  0  0  0
   17.3422    5.7058   -0.0000 C   0  0  0  0  0  0  0  0  0  0  0  0
   17.2949    7.2210   -0.0000 C   0  0  0  0  0  0  0  0  0  0  0  0
   18.5260    8.0851   -0.0000 C   0  0  0  0  0  0  0  0  0  0  0  0
   18.5496    9.6004   -0.0000 O   0  0  0  0  0  0  0  0  0  0  0  0
   19.8400    7.3749   -0.0000 N   0  0  0  0  0  0  0  0  0  0  0  0
   21.0711    8.2390   -0.0000 O   0  0  0  0  0  0  0  0  0  0  0  0
  1  2  1  0  0  0  0
  2  3  2  0  0  0  0
  2  4  1  0  0  0  0
  3  5  1  0  0  0  0
  4  6  2  0  0  0  0
  5  7  1  0  0  0  0
  5  8  2  0  0  0  0
  7  9  2  0  0  0  0
  8 10  1  0  0  0  0
  9 11  1  0  0  0  0
 11 12  1  0  0  0  0
 12 13  1  0  0  0  0
 14 13  1  6  0  0  0
 14 15  1  0  0  0  0
 14 16  1  0  0  0  0
 15 17  1  1  0  0  0
 16 18  1  1  0  0  0
 17 19  1  0  0  0  0
 19 20  1  0  0  0  0
 20 21  2  0  0  0  0
 20 22  1  0  0  0  0
 21 23  1  0  0  0  0
 22 24  2  0  0  0  0
 23 25  2  0  0  0  0
 25 26  1  0  0  0  0
 26 27  2  0  0  0  0
 26 28  1  0  0  0  0
 28 29  1  0  0  0  0
  6  7  1  0  0  0  0
 10 11  2  0  0  0  0
 15 16  1  0  0  0  0
 18 19  1  0  0  0  0
 24 25  1  0  0  0  0
M  END
>  <MolRegNo>
1162323

>  <m>
=

>  <Value>
10000

>  <Unit>
nM

>  <Type>
IC50

>  <pValue>
5

>  <Ligand Efficiency>
0

>  <Binding Efficiency>
0

>  <Surface Efficiency>
0

>  <Assay Index>
598018

>  <Assay Category>


>  <Assay Organism>


>  <Target ID>
17045

>  <Target Name>
Cytochrome P450 3A4

>  <Target Organism>
Homo sapiens

>  <Target Description>
Target is a single protein chain

>  <Sequence Accession>
P08684

>  <Reference>
J Med Chem 53 (24), 8663-8678 (2010)

>  <Pubmed ID>
21080647

>  <DOI>
10.1021/jm101177s

$$$$
1162244
Actelion Java MolfileCreator 1.0

 30 34  0  0  1  0  0  0  0  0999 V2000
    0.0000   -0.0000   -0.0000 S   0  0  0  0  0  0  0  0  0  0  0  0
   -1.1003    1.0412   -0.0000 O   0  0  0  0  0  0  0  0  0  0  0  0
    1.0293    1.1003   -0.0000 O   0  0  0  0  0  0  0  0  0  0  0  0
    1.2778   -0.7336   -0.0000 N   0  0  0  0  0  0  0  0  0  0  0  0
   -1.3133   -0.7336   -0.0000 C   0  0  0  0  0  0  0  0  0  0  0  0
    2.5675    0.0355   -0.0000 C   0  0  0  0  0  0  0  0  0  0  0  0
   -2.6266    0.0237   -0.0000 C   0  0  0  0  0  0  0  0  0  0  0  0
   -1.3251   -2.2243   -0.0000 C   0  0  0  0  0  0  0  0  0  0  0  0
    3.3128    1.3488   -0.0000 C   0  0  0  0  0  0  0  0  0  0  0  0
    4.0582    0.0473   -0.0000 C   0  0  0  0  0  0  0  0  0  0  0  0
   -3.9399   -0.7099   -0.0000 C   0  0  0  0  0  0  0  0  0  0  0  0
   -2.6384   -2.9579   -0.0000 C   0  0  0  0  0  0  0  0  0  0  0  0
    4.3067    2.4728   -0.0000 C   0  0  0  0  0  0  0  0  0  0  0  0
    5.5135    0.3668   -0.0000 C   0  0  0  0  0  0  0  0  0  0  0  0
   -3.9517   -2.2007   -0.0000 C   0  0  0  0  0  0  0  0  0  0  0  0
   -5.2532    0.0473   -0.0000 C   0  0  0  0  0  0  0  0  0  0  0  0
    5.6673    1.8812   -0.0000 N   0  0  0  0  0  0  0  0  0  0  0  0
   -5.2651   -2.9342   -0.0000 C   0  0  0  0  0  0  0  0  0  0  0  0
   -6.5665   -0.6862   -0.0000 C   0  0  0  0  0  0  0  0  0  0  0  0
    6.9570    2.6384   -0.0000 C   0  0  0  0  0  0  0  0  0  0  0  0
   -6.5784   -2.1652   -0.0000 C   0  0  0  0  0  0  0  0  0  0  0  0
    8.2348    1.9049   -0.0000 N   0  0  0  0  0  0  0  0  0  0  0  0
    6.9451    4.1529   -0.0000 N   0  0  0  0  0  0  0  0  0  0  0  0
    9.5244    2.6621   -0.0000 C   0  0  0  0  0  0  0  0  0  0  0  0
    8.2348    4.9101   -0.0000 C   0  0  0  0  0  0  0  0  0  0  0  0
    9.5126    4.1765   -0.0000 C   0  0  0  0  0  0  0  0  0  0  0  0
   10.8141    4.9338   -0.0000 C   0  0  0  0  0  0  0  0  0  0  0  0
   12.0919    4.2002   -0.0000 O   0  0  0  0  0  0  0  0  0  0  0  0
   10.7904    6.4482   -0.0000 N   0  0  0  0  0  0  0  0  0  0  0  0
   11.9617    7.3829   -0.0000 O   0  0  0  0  0  0  0  0  0  0  0  0
  1  2  2  0  0  0  0
  1  3  2  0  0  0  0
  1  4  1  0  0  0  0
  1  5  1  0  0  0  0
  6  4  1  6  0  0  0
  5  7  2  0  0  0  0
  5  8  1  0  0  0  0
  6  9  1  0  0  0  0
  6 10  1  0  0  0  0
  7 11  1  0  0  0  0
  8 12  2  0  0  0  0
  9 13  1  1  0  0  0
 10 14  1  1  0  0  0
 11 15  1  0  0  0  0
 11 16  2  0  0  0  0
 13 17  1  0  0  0  0
 15 18  2  0  0  0  0
 16 19  1  0  0  0  0
 17 20  1  0  0  0  0
 18 21  1  0  0  0  0
 20 22  2  0  0  0  0
 20 23  1  0  0  0  0
 22 24  1  0  0  0  0
 23 25  2  0  0  0  0
 24 26  2  0  0  0  0
 26 27  1  0  0  0  0
 27 28  2  0  0  0  0
 27 29  1  0  0  0  0
 29 30  1  0  0  0  0
  9 10  1  0  0  0  0
 12 15  1  0  0  0  0
 14 17  1  0  0  0  0
 19 21  2  0  0  0  0
 25 26  1  0  0  0  0
M  END
>  <MolRegNo>
1162244

>  <m>
=

>  <Value>
10000

>  <Unit>
nM

>  <Type>
IC50

>  <pValue>
5

>  <Ligand Efficiency>
0

>  <Binding Efficiency>
0

>  <Surface Efficiency>
0

>  <Assay Index>
598018

>  <Assay Category>


>  <Assay Organism>


>  <Target ID>
17045

>  <Target Name>
Cytochrome P450 3A4

>  <Target Organism>
Homo sapiens

>  <Target Description>
Target is a single protein chain

>  <Sequence Accession>
P08684

>  <Reference>
J Med Chem 53 (24), 8663-8678 (2010)

>  <Pubmed ID>
21080647

>  <DOI>
10.1021/jm101177s

$$$$
1172876
Actelion Java MolfileCreator 1.0

 35 39  0  0  0  0  0  0  0  0999 V2000
    0.0000   -0.0000   -0.0000 S   0  0  0  0  0  0  0  0  0  0  0  0
    0.7308   -1.2819   -0.0000 O   0  0  0  0  0  0  0  0  0  0  0  0
   -0.7668   -1.2819   -0.0000 O   0  0  0  0  0  0  0  0  0  0  0  0
   -1.3059    0.7548   -0.0000 N   0  0  0  0  0  0  0  0  0  0  0  0
    1.3059    0.7668   -0.0000 N   0  0  0  0  0  0  0  0  0  0  0  0
   -2.6118    0.0120   -0.0000 C   0  0  0  0  0  0  0  0  0  0  0  0
   -1.3179    2.2644   -0.0000 C   0  0  0  0  0  0  0  0  0  0  0  0
    2.5998    0.0240   -0.0000 C   0  0  0  0  0  0  0  0  0  0  0  0
   -3.9177    0.7668   -0.0000 C   0  0  0  0  0  0  0  0  0  0  0  0
    3.8698    0.7428   -0.0000 C   0  0  0  0  0  0  0  0  0  0  0  0
    2.5878   -1.4856   -0.0000 C   0  0  0  0  0  0  0  0  0  0  0  0
   -5.2236    0.0240   -0.0000 O   0  0  0  0  0  0  0  0  0  0  0  0
   -3.9177    2.2763   -0.0000 C   0  0  0  0  0  0  0  0  0  0  0  0
    5.1517    0.0120   -0.0000 C   0  0  0  0  0  0  0  0  0  0  0  0
    3.8578   -2.2164   -0.0000 C   0  0  0  0  0  0  0  0  0  0  0  0
   -6.5415    0.7907   -0.0000 C   0  0  0  0  0  0  0  0  0  0  0  0
   -5.2236    3.0311   -0.0000 O   0  0  0  0  0  0  0  0  0  0  0  0
    6.3378    0.9465   -0.0000 C   0  0  0  0  0  0  0  0  0  0  0  0
    5.1397   -1.4617   -0.0000 C   0  0  0  0  0  0  0  0  0  0  0  0
   -6.5535    2.3003   -0.0000 C   0  0  0  0  0  0  0  0  0  0  0  0
    6.0024    2.4321   -0.0000 O   0  0  0  0  0  0  0  0  0  0  0  0
    7.7995    0.6230   -0.0000 C   0  0  0  0  0  0  0  0  0  0  0  0
    6.3019   -2.4201   -0.0000 C   0  0  0  0  0  0  0  0  0  0  0  0
    8.4344   -0.7308   -0.0000 C   0  0  0  0  0  0  0  0  0  0  0  0
    8.6381    1.8690   -0.0000 C   0  0  0  0  0  0  0  0  0  0  0  0
    7.7635   -2.0847   -0.0000 C   0  0  0  0  0  0  0  0  0  0  0  0
    9.9201   -0.8387   -0.0000 N   0  0  0  0  0  0  0  0  0  0  0  0
   10.1237    1.7612   -0.0000 C   0  0  0  0  0  0  0  0  0  0  0  0
   10.7587    0.4073   -0.0000 C   0  0  0  0  0  0  0  0  0  0  0  0
   10.9744    3.0191   -0.0000 C   0  0  0  0  0  0  0  0  0  0  0  0
   10.4592    4.4329   -0.0000 C   0  0  0  0  0  0  0  0  0  0  0  0
   12.4600    3.0311   -0.0000 C   0  0  0  0  0  0  0  0  0  0  0  0
   11.6453    5.3554   -0.0000 N   0  0  0  0  0  0  0  0  0  0  0  0
   12.8793    4.5048   -0.0000 N   0  0  0  0  0  0  0  0  0  0  0  0
   14.2811    5.0080   -0.0000 C   0  0  0  0  0  0  0  0  0  0  0  0
  1  2  2  0  0  0  0
  1  3  2  0  0  0  0
  1  4  1  0  0  0  0
  1  5  1  0  0  0  0
  4  6  1  0  0  0  0
  4  7  1  0  0  0  0
  5  8  1  0  0  0  0
  9  6  1  6  0  0  0
  8 10  2  0  0  0  0
  8 11  1  0  0  0  0
  9 12  1  0  0  0  0
  9 13  1  0  0  0  0
 10 14  1  0  0  0  0
 11 15  2  0  0  0  0
 12 16  1  0  0  0  0
 13 17  1  0  0  0  0
 14 18  1  0  0  0  0
 14 19  2  0  0  0  0
 16 20  1  0  0  0  0
 18 21  2  0  0  0  0
 18 22  1  0  0  0  0
 19 23  1  0  0  0  0
 22 24  2  0  0  0  0
 22 25  1  0  0  0  0
 23 26  2  0  0  0  0
 24 27  1  0  0  0  0
 25 28  2  0  0  0  0
 27 29  2  0  0  0  0
 28 30  1  0  0  0  0
 30 31  1  0  0  0  0
 30 32  2  0  0  0  0
 31 33  2  0  0  0  0
 32 34  1  0  0  0  0
 34 35  1  0  0  0  0
 15 19  1  0  0  0  0
 17 20  1  0  0  0  0
 24 26  1  0  0  0  0
 28 29  1  0  0  0  0
 33 34  1  0  0  0  0
M  END
>  <MolRegNo>
1172876

>  <m>
=

>  <Value>
7100

>  <Unit>
nM

>  <Type>
IC50

>  <pValue>
5.15

>  <Ligand Efficiency>
0

>  <Binding Efficiency>
0

>  <Surface Efficiency>
0

>  <Assay Index>
598638

>  <Assay Category>


>  <Assay Organism>


>  <Target ID>
17045

>  <Target Name>
Cytochrome P450 3A4

>  <Target Organism>
Homo sapiens

>  <Target Description>
Target is a single protein chain

>  <Sequence Accession>
P08684

>  <Reference>
J Med Chem 54 (12), 4092-4108 (2011)

>  <Pubmed ID>
21608528

>  <DOI>
10.1021/jm200112k

$$$$
1162438
Actelion Java MolfileCreator 1.0

 29 30  0  0  0  0  0  0  0  0999 V2000
    0.0000   -0.0000   -0.0000 Cl  0  0  0  0  0  0  0  0  0  0  0  0
   -0.0473   -1.4791   -0.0000 C   0  0  0  0  0  0  0  0  0  0  0  0
   -1.3608   -2.1891   -0.0000 C   0  0  0  0  0  0  0  0  0  0  0  0
    1.2188   -2.2364   -0.0000 C   0  0  0  0  0  0  0  0  0  0  0  0
   -1.4200   -3.6683   -0.0000 C   0  0  0  0  0  0  0  0  0  0  0  0
   -2.6151   -1.3371   -0.0000 C   0  0  0  0  0  0  0  0  0  0  0  0
    1.1715   -3.7274   -0.0000 C   0  0  0  0  0  0  0  0  0  0  0  0
   -0.1538   -4.4374   -0.0000 C   0  0  0  0  0  0  0  0  0  0  0  0
   -3.9759   -1.9761   -0.0000 N   0  0  0  0  0  0  0  0  0  0  0  0
    2.4376   -4.4966   -0.0000 F   0  0  0  0  0  0  0  0  0  0  0  0
   -5.2302   -1.1241   -0.0000 C   0  0  0  0  0  0  0  0  0  0  0  0
   -5.2539    0.3905   -0.0000 O   0  0  0  0  0  0  0  0  0  0  0  0
   -6.5910   -1.7631   -0.0000 C   0  0  0  0  0  0  0  0  0  0  0  0
   -7.8453   -0.9111   -0.0000 C   0  0  0  0  0  0  0  0  0  0  0  0
   -9.2653   -1.4081   -0.0000 N   0  0  0  0  0  0  0  0  0  0  0  0
   -7.9045    0.5917   -0.0000 C   0  0  0  0  0  0  0  0  0  0  0  0
  -10.2001   -0.2130   -0.0000 C   0  0  0  0  0  0  0  0  0  0  0  0
   -9.6913   -2.8281   -0.0000 C   0  0  0  0  0  0  0  0  0  0  0  0
   -9.3481    1.0176   -0.0000 N   0  0  0  0  0  0  0  0  0  0  0  0
   -6.7330    1.5265   -0.0000 C   0  0  0  0  0  0  0  0  0  0  0  0
  -11.7029   -0.2485   -0.0000 C   0  0  0  0  0  0  0  0  0  0  0  0
  -12.5076    1.0295   -0.0000 C   0  0  0  0  0  0  0  0  0  0  0  0
  -12.4247   -1.5620   -0.0000 C   0  0  0  0  0  0  0  0  0  0  0  0
  -11.8094    2.3548   -0.0000 F   0  0  0  0  0  0  0  0  0  0  0  0
  -14.0104    0.9940   -0.0000 C   0  0  0  0  0  0  0  0  0  0  0  0
  -13.9394   -1.5975   -0.0000 C   0  0  0  0  0  0  0  0  0  0  0  0
  -14.7322   -0.3077   -0.0000 C   0  0  0  0  0  0  0  0  0  0  0  0
  -16.2350   -0.3432   -0.0000 F   0  0  0  0  0  0  0  0  0  0  0  0
   -0.4733    3.7866   -0.0000 Cl  0  0  0  0  0  0  0  0  0  0  0  0
  1  2  1  0  0  0  0
  2  3  2  0  0  0  0
  2  4  1  0  0  0  0
  3  5  1  0  0  0  0
  3  6  1  0  0  0  0
  4  7  2  0  0  0  0
  5  8  2  0  0  0  0
  6  9  1  0  0  0  0
  7 10  1  0  0  0  0
  9 11  1  0  0  0  0
 11 12  2  0  0  0  0
 11 13  1  0  0  0  0
 13 14  1  0  0  0  0
 14 15  1  0  0  0  0
 14 16  2  0  0  0  0
 15 17  1  0  0  0  0
 15 18  1  0  0  0  0
 16 19  1  0  0  0  0
 16 20  1  0  0  0  0
 17 21  1  0  0  0  0
 21 22  2  0  0  0  0
 21 23  1  0  0  0  0
 22 24  1  0  0  0  0
 22 25  1  0  0  0  0
 23 26  2  0  0  0  0
 25 27  2  0  0  0  0
 27 28  1  0  0  0  0
  7  8  1  0  0  0  0
 17 19  2  0  0  0  0
 26 27  1  0  0  0  0
M  END
>  <MolRegNo>
1162438

>  <m>
=

>  <Value>
5500

>  <Unit>
nM

>  <Type>
IC50

>  <pValue>
5.26

>  <Ligand Efficiency>
0

>  <Binding Efficiency>
0

>  <Surface Efficiency>
0

>  <Assay Index>
598112

>  <Assay Category>


>  <Assay Organism>


>  <Target ID>
17045

>  <Target Name>
Cytochrome P450 3A4

>  <Target Organism>
Homo sapiens

>  <Target Description>
Target is a single protein chain

>  <Sequence Accession>
P08684

>  <Reference>
Bioorg Med Chem Lett 20 (16), 4951-4954 (2010)

>  <Pubmed ID>
20634071

>  <DOI>
10.1016/j.bmcl.2010.05.018

$$$$
1166119
Actelion Java MolfileCreator 1.0

 25 28  0  0  0  0  0  0  0  0999 V2000
    0.0000   -0.0000   -0.0000 Cl  0  0  0  0  0  0  0  0  0  0  0  0
    1.4949    0.0119   -0.0000 C   0  0  0  0  0  0  0  0  0  0  0  0
    2.3728   -1.1983   -0.0000 C   0  0  0  0  0  0  0  0  0  0  0  0
    2.3728    1.2457   -0.0000 C   0  0  0  0  0  0  0  0  0  0  0  0
    1.8983   -2.6220   -0.0000 C   0  0  0  0  0  0  0  0  0  0  0  0
    3.7965   -0.7237   -0.0000 C   0  0  0  0  0  0  0  0  0  0  0  0
    3.7965    0.7949   -0.0000 N   0  0  0  0  0  0  0  0  0  0  0  0
    0.4508   -3.0728   -0.0000 C   0  0  0  0  0  0  0  0  0  0  0  0
    2.7762   -3.8202   -0.0000 C   0  0  0  0  0  0  0  0  0  0  0  0
    5.0066    1.6966   -0.0000 C   0  0  0  0  0  0  0  0  0  0  0  0
    0.4390   -4.5677   -0.0000 C   0  0  0  0  0  0  0  0  0  0  0  0
   -0.8661   -2.3016   -0.0000 C   0  0  0  0  0  0  0  0  0  0  0  0
    1.8745   -5.0185   -0.0000 N   0  0  0  0  0  0  0  0  0  0  0  0
   -0.8779   -5.3033   -0.0000 C   0  0  0  0  0  0  0  0  0  0  0  0
   -2.1830   -3.0491   -0.0000 C   0  0  0  0  0  0  0  0  0  0  0  0
    2.3254   -6.4422   -0.0000 S   0  0  0  0  0  0  0  0  0  0  0  0
   -2.1949   -4.5439   -0.0000 C   0  0  0  0  0  0  0  0  0  0  0  0
    1.0203   -7.0947   -0.0000 O   0  0  0  0  0  0  0  0  0  0  0  0
    2.3016   -7.9371   -0.0000 O   0  0  0  0  0  0  0  0  0  0  0  0
    3.8202   -6.4303   -0.0000 C   0  0  0  0  0  0  0  0  0  0  0  0
    4.5558   -7.7235   -0.0000 C   0  0  0  0  0  0  0  0  0  0  0  0
    4.5439   -5.1253   -0.0000 C   0  0  0  0  0  0  0  0  0  0  0  0
    6.0507   -7.7117   -0.0000 C   0  0  0  0  0  0  0  0  0  0  0  0
    6.0270   -5.1016   -0.0000 C   0  0  0  0  0  0  0  0  0  0  0  0
    6.7863   -6.3947   -0.0000 C   0  0  0  0  0  0  0  0  0  0  0  0
  1  2  1  0  0  0  0
  2  3  2  0  0  0  0
  2  4  1  0  0  0  0
  3  5  1  0  0  0  0
  3  6  1  0  0  0  0
  4  7  1  0  0  0  0
  5  8  1  0  0  0  0
  5  9  2  0  0  0  0
  7 10  1  0  0  0  0
  8 11  2  0  0  0  0
  8 12  1  0  0  0  0
  9 13  1  0  0  0  0
 11 14  1  0  0  0  0
 12 15  2  0  0  0  0
 13 16  1  0  0  0  0
 14 17  2  0  0  0  0
 16 18  2  0  0  0  0
 16 19  2  0  0  0  0
 16 20  1  0  0  0  0
 20 21  2  0  0  0  0
 20 22  1  0  0  0  0
 21 23  1  0  0  0  0
 22 24  2  0  0  0  0
 23 25  2  0  0  0  0
  6  7  1  0  0  0  0
 11 13  1  0  0  0  0
 15 17  1  0  0  0  0
 24 25  1  0  0  0  0
M  END
>  <MolRegNo>
1166119

>  <m>
=

>  <Value>
14700

>  <Unit>
nM

>  <Type>
IC50

>  <pValue>
4.83

>  <Ligand Efficiency>
0

>  <Binding Efficiency>
0

>  <Surface Efficiency>
0

>  <Assay Index>
602118

>  <Assay Category>


>  <Assay Organism>


>  <Target ID>
17045

>  <Target Name>
Cytochrome P450 3A4

>  <Target Organism>
Homo sapiens

>  <Target Description>
Target is a single protein chain

>  <Sequence Accession>
P08684

>  <Reference>
Bioorg Med Chem Lett 21 (15), 4577-4580 (2011)

>  <Pubmed ID>
21724392

>  <DOI>
10.1016/j.bmcl.2011.05.106

$$$$
1165125
Actelion Java MolfileCreator 1.0

 42 47  0  0  0  0  0  0  0  0999 V2000
    0.0000   -0.0000   -0.0000 F   0  0  0  0  0  0  0  0  0  0  0  0
   -0.0119    1.5068   -0.0000 C   0  0  0  0  0  0  0  0  0  0  0  0
    1.2695    2.2662   -0.0000 C   0  0  0  0  0  0  0  0  0  0  0  0
   -1.3170    2.2662   -0.0000 C   0  0  0  0  0  0  0  0  0  0  0  0
    1.2458    3.7849   -0.0000 C   0  0  0  0  0  0  0  0  0  0  0  0
   -1.3289    3.7730   -0.0000 C   0  0  0  0  0  0  0  0  0  0  0  0
    2.5153    4.5561   -0.0000 N   0  0  0  0  0  0  0  0  0  0  0  0
   -0.0593    4.5324   -0.0000 C   0  0  0  0  0  0  0  0  0  0  0  0
   -2.6340    4.5205   -0.0000 C   0  0  0  0  0  0  0  0  0  0  0  0
    3.8086    3.8205   -0.0000 C   0  0  0  0  0  0  0  0  0  0  0  0
    2.4916    6.0629   -0.0000 C   0  0  0  0  0  0  0  0  0  0  0  0
   -2.6459    6.0273   -0.0000 O   0  0  0  0  0  0  0  0  0  0  0  0
   -3.9391    3.7849   -0.0000 N   0  0  0  0  0  0  0  0  0  0  0  0
    5.0900    4.5798   -0.0000 C   0  0  0  0  0  0  0  0  0  0  0  0
    3.7849    6.8223   -0.0000 C   0  0  0  0  0  0  0  0  0  0  0  0
   -5.2443    4.5442   -0.0000 C   0  0  0  0  0  0  0  0  0  0  0  0
    5.0782    6.0867   -0.0000 O   0  0  0  0  0  0  0  0  0  0  0  0
   -6.5613    3.8086   -0.0000 C   0  0  0  0  0  0  0  0  0  0  0  0
   -5.2561    6.0629   -0.0000 C   0  0  0  0  0  0  0  0  0  0  0  0
   -7.8664    4.5680   -0.0000 C   0  0  0  0  0  0  0  0  0  0  0  0
   -6.5613    6.8223   -0.0000 C   0  0  0  0  0  0  0  0  0  0  0  0
   -9.1715    3.8323   -0.0000 N   0  0  0  0  0  0  0  0  0  0  0  0
   -7.8783    6.0748   -0.0000 C   0  0  0  0  0  0  0  0  0  0  0  0
   -9.1834    2.3492   -0.0000 C   0  0  0  0  0  0  0  0  0  0  0  0
   -9.1834    6.8342   -0.0000 C   0  0  0  0  0  0  0  0  0  0  0  0
   -7.9020    1.6136   -0.0000 N   0  0  0  0  0  0  0  0  0  0  0  0
  -10.4885    1.6136   -0.0000 C   0  0  0  0  0  0  0  0  0  0  0  0
   -7.9139    0.1305   -0.0000 C   0  0  0  0  0  0  0  0  0  0  0  0
  -10.5123    0.1305   -0.0000 N   0  0  0  0  0  0  0  0  0  0  0  0
  -11.9123    2.1001   -0.0000 C   0  0  0  0  0  0  0  0  0  0  0  0
   -9.2309   -0.6170   -0.0000 N   0  0  0  0  0  0  0  0  0  0  0  0
  -11.9479   -0.3085   -0.0000 C   0  0  0  0  0  0  0  0  0  0  0  0
  -12.8140    0.9136   -0.0000 C   0  0  0  0  0  0  0  0  0  0  0  0
  -12.3750    3.5357   -0.0000 C   0  0  0  0  0  0  0  0  0  0  0  0
  -14.3209    0.9373   -0.0000 C   0  0  0  0  0  0  0  0  0  0  0  0
  -15.0684    2.2543   -0.0000 O   0  0  0  0  0  0  0  0  0  0  0  0
  -15.0921   -0.3441   -0.0000 C   0  0  0  0  0  0  0  0  0  0  0  0
  -16.5989   -0.3204   -0.0000 C   0  0  0  0  0  0  0  0  0  0  0  0
  -14.3565   -1.6255   -0.0000 C   0  0  0  0  0  0  0  0  0  0  0  0
  -17.3701   -1.6018   -0.0000 C   0  0  0  0  0  0  0  0  0  0  0  0
  -15.1158   -2.9069   -0.0000 C   0  0  0  0  0  0  0  0  0  0  0  0
  -16.6464   -2.8950   -0.0000 C   0  0  0  0  0  0  0  0  0  0  0  0
  1  2  1  0  0  0  0
  2  3  2  0  0  0  0
  2  4  1  0  0  0  0
  3  5  1  0  0  0  0
  4  6  2  0  0  0  0
  5  7  1  0  0  0  0
  5  8  2  0  0  0  0
  6  9  1  0  0  0  0
  7 10  1  0  0  0  0
  7 11  1  0  0  0  0
  9 12  2  0  0  0  0
  9 13  1  0  0  0  0
 10 14  1  0  0  0  0
 11 15  1  0  0  0  0
 13 16  1  0  0  0  0
 14 17  1  0  0  0  0
 16 18  2  0  0  0  0
 16 19  1  0  0  0  0
 18 20  1  0  0  0  0
 19 21  2  0  0  0  0
 20 22  1  0  0  0  0
 20 23  2  0  0  0  0
 22 24  1  0  0  0  0
 23 25  1  0  0  0  0
 24 26  2  0  0  0  0
 24 27  1  0  0  0  0
 26 28  1  0  0  0  0
 27 29  1  0  0  0  0
 27 30  2  0  0  0  0
 28 31  2  0  0  0  0
 29 32  1  0  0  0  0
 30 33  1  0  0  0  0
 30 34  1  0  0  0  0
 33 35  1  0  0  0  0
 35 36  2  0  0  0  0
 35 37  1  0  0  0  0
 37 38  2  0  0  0  0
 37 39  1  0  0  0  0
 38 40  1  0  0  0  0
 39 41  2  0  0  0  0
 40 42  2  0  0  0  0
  6  8  1  0  0  0  0
 15 17  1  0  0  0  0
 21 23  1  0  0  0  0
 29 31  1  0  0  0  0
 32 33  2  0  0  0  0
 41 42  1  0  0  0  0
M  END
>  <MolRegNo>
1165125

>  <m>
=

>  <Value>
470

>  <Unit>
nM

>  <Type>
IC50

>  <pValue>
6.33

>  <Ligand Efficiency>
0

>  <Binding Efficiency>
0

>  <Surface Efficiency>
0

>  <Assay Index>
601045

>  <Assay Category>


>  <Assay Organism>


>  <Target ID>
17045

>  <Target Name>
Cytochrome P450 3A4

>  <Target Organism>
Homo sapiens

>  <Target Description>
Target is a single protein chain

>  <Sequence Accession>
P08684

>  <Reference>
Bioorg Med Chem Lett 21 (15), 4633-4637 (2011)

>  <Pubmed ID>
21705217

>  <DOI>
10.1016/j.bmcl.2011.05.091

$$$$
36237
Actelion Java MolfileCreator 1.0

 28 30  0  0  0  0  0  0  0  0999 V2000
    0.0000   -0.0000   -0.0000 O   0  0  0  0  0  0  0  0  0  0  0  0
   -0.0118    1.5076   -0.0000 C   0  0  0  0  0  0  0  0  0  0  0  0
    1.2720    2.2614   -0.0000 O   0  0  0  0  0  0  0  0  0  0  0  0
   -1.3191    2.2614   -0.0000 N   0  0  0  0  0  0  0  0  0  0  0  0
    2.5558    1.5311   -0.0000 C   0  0  0  0  0  0  0  0  0  0  0  0
   -2.6265    1.5311   -0.0000 C   0  0  0  0  0  0  0  0  0  0  0  0
    3.8396    2.2849   -0.0000 C   0  0  0  0  0  0  0  0  0  0  0  0
   -3.9339    2.2849   -0.0000 C   0  0  0  0  0  0  0  0  0  0  0  0
    5.1234    1.5547   -0.0000 C   0  0  0  0  0  0  0  0  0  0  0  0
    3.8279    3.7925   -0.0000 C   0  0  0  0  0  0  0  0  0  0  0  0
   -3.9456    3.7925   -0.0000 C   0  0  0  0  0  0  0  0  0  0  0  0
   -5.2412    1.5547   -0.0000 C   0  0  0  0  0  0  0  0  0  0  0  0
    6.4072    2.3085   -0.0000 N   0  0  0  0  0  0  0  0  0  0  0  0
    5.1117    4.5463   -0.0000 C   0  0  0  0  0  0  0  0  0  0  0  0
   -5.2530    4.5463   -0.0000 C   0  0  0  0  0  0  0  0  0  0  0  0
   -6.5486    2.3085   -0.0000 C   0  0  0  0  0  0  0  0  0  0  0  0
    6.3955    3.8161   -0.0000 C   0  0  0  0  0  0  0  0  0  0  0  0
   -6.5604    3.8043   -0.0000 C   0  0  0  0  0  0  0  0  0  0  0  0
   -7.8677    4.5581   -0.0000 C   0  0  0  0  0  0  0  0  0  0  0  0
   -7.8795    6.0657   -0.0000 O   0  0  0  0  0  0  0  0  0  0  0  0
   -9.1751    3.8161   -0.0000 N   0  0  0  0  0  0  0  0  0  0  0  0
  -10.4824    4.5699   -0.0000 C   0  0  0  0  0  0  0  0  0  0  0  0
  -11.7898    3.8279   -0.0000 C   0  0  0  0  0  0  0  0  0  0  0  0
  -10.4942    6.0775   -0.0000 C   0  0  0  0  0  0  0  0  0  0  0  0
  -11.8016    2.3438   -0.0000 N   0  0  0  0  0  0  0  0  0  0  0  0
  -13.0972    4.5816   -0.0000 C   0  0  0  0  0  0  0  0  0  0  0  0
  -11.8016    6.8312   -0.0000 C   0  0  0  0  0  0  0  0  0  0  0  0
  -13.1089    6.0892   -0.0000 C   0  0  0  0  0  0  0  0  0  0  0  0
  1  2  2  0  0  0  0
  2  3  1  0  0  0  0
  2  4  1  0  0  0  0
  3  5  1  0  0  0  0
  4  6  1  0  0  0  0
  5  7  1  0  0  0  0
  6  8  1  0  0  0  0
  7  9  2  0  0  0  0
  7 10  1  0  0  0  0
  8 11  2  0  0  0  0
  8 12  1  0  0  0  0
  9 13  1  0  0  0  0
 10 14  2  0  0  0  0
 11 15  1  0  0  0  0
 12 16  2  0  0  0  0
 13 17  2  0  0  0  0
 15 18  2  0  0  0  0
 18 19  1  0  0  0  0
 19 20  2  0  0  0  0
 19 21  1  0  0  0  0
 21 22  1  0  0  0  0
 22 23  2  0  0  0  0
 22 24  1  0  0  0  0
 23 25  1  0  0  0  0
 23 26  1  0  0  0  0
 24 27  2  0  0  0  0
 26 28  2  0  0  0  0
 14 17  1  0  0  0  0
 16 18  1  0  0  0  0
 27 28  1  0  0  0  0
M  END
>  <MolRegNo>
36237

>  <m>
=

>  <Value>
730

>  <Unit>
nM

>  <Type>
IC50

>  <pValue>
6.14

>  <Ligand Efficiency>
0

>  <Binding Efficiency>
0

>  <Surface Efficiency>
0

>  <Assay Index>
602136

>  <Assay Category>


>  <Assay Organism>


>  <Target ID>
17045

>  <Target Name>
Cytochrome P450 3A4

>  <Target Organism>
Homo sapiens

>  <Target Description>
Target is a single protein chain

>  <Sequence Accession>
P08684

>  <Reference>
Bioorg Med Chem Lett 21 (16), 4909-4912 (2011)

>  <Pubmed ID>
21742496

>  <DOI>
10.1016/j.bmcl.2011.06.015

$$$$
434834
Actelion Java MolfileCreator 1.0

 30 33  0  0  0  0  0  0  0  0999 V2000
    0.0000   -0.0000   -0.0000 O   0  0  0  0  0  0  0  0  0  0  0  0
   -0.0119   -1.4937   -0.0000 C   0  0  0  0  0  0  0  0  0  0  0  0
   -1.3277   -2.2286   -0.0000 N   0  0  0  0  0  0  0  0  0  0  0  0
    1.2803   -2.2286   -0.0000 C   0  0  0  0  0  0  0  0  0  0  0  0
   -2.6435   -1.4700   -0.0000 C   0  0  0  0  0  0  0  0  0  0  0  0
    2.5724   -1.4700   -0.0000 C   0  0  0  0  0  0  0  0  0  0  0  0
    1.2684   -3.7223   -0.0000 C   0  0  0  0  0  0  0  0  0  0  0  0
   -3.9594   -2.2049   -0.0000 C   0  0  0  0  0  0  0  0  0  0  0  0
   -2.6554    0.0474   -0.0000 C   0  0  0  0  0  0  0  0  0  0  0  0
    3.8646   -2.2049   -0.0000 C   0  0  0  0  0  0  0  0  0  0  0  0
    2.5606   -4.4573   -0.0000 C   0  0  0  0  0  0  0  0  0  0  0  0
   -3.9712   -3.6986   -0.0000 N   0  0  0  0  0  0  0  0  0  0  0  0
   -5.2752   -1.4462   -0.0000 C   0  0  0  0  0  0  0  0  0  0  0  0
   -3.9712    0.8180   -0.0000 C   0  0  0  0  0  0  0  0  0  0  0  0
    3.8527   -3.6986   -0.0000 C   0  0  0  0  0  0  0  0  0  0  0  0
   -5.2871    0.0711   -0.0000 C   0  0  0  0  0  0  0  0  0  0  0  0
    5.1448   -4.4336   -0.0000 C   0  0  0  0  0  0  0  0  0  0  0  0
    6.4370   -3.6749   -0.0000 N   0  0  0  0  0  0  0  0  0  0  0  0
    7.7291   -4.4099   -0.0000 C   0  0  0  0  0  0  0  0  0  0  0  0
    9.0212   -3.6512   -0.0000 N   0  0  0  0  0  0  0  0  0  0  0  0
    7.7172   -5.9035   -0.0000 N   0  0  0  0  0  0  0  0  0  0  0  0
   10.3134   -4.3861   -0.0000 C   0  0  0  0  0  0  0  0  0  0  0  0
    9.0094   -6.6503   -0.0000 C   0  0  0  0  0  0  0  0  0  0  0  0
   11.6055   -3.6275   -0.0000 C   0  0  0  0  0  0  0  0  0  0  0  0
   10.3015   -5.8798   -0.0000 C   0  0  0  0  0  0  0  0  0  0  0  0
   12.8976   -4.3624   -0.0000 C   0  0  0  0  0  0  0  0  0  0  0  0
   11.5937   -2.1101   -0.0000 C   0  0  0  0  0  0  0  0  0  0  0  0
   14.1898   -3.6038   -0.0000 N   0  0  0  0  0  0  0  0  0  0  0  0
   12.8858   -1.3514   -0.0000 C   0  0  0  0  0  0  0  0  0  0  0  0
   14.1779   -2.0864   -0.0000 C   0  0  0  0  0  0  0  0  0  0  0  0
  1  2  2  0  0  0  0
  2  3  1  0  0  0  0
  2  4  1  0  0  0  0
  3  5  1  0  0  0  0
  4  6  2  0  0  0  0
  4  7  1  0  0  0  0
  5  8  2  0  0  0  0
  5  9  1  0  0  0  0
  6 10  1  0  0  0  0
  7 11  2  0  0  0  0
  8 12  1  0  0  0  0
  8 13  1  0  0  0  0
  9 14  2  0  0  0  0
 10 15  2  0  0  0  0
 13 16  2  0  0  0  0
 15 17  1  0  0  0  0
 17 18  1  0  0  0  0
 18 19  1  0  0  0  0
 19 20  2  0  0  0  0
 19 21  1  0  0  0  0
 20 22  1  0  0  0  0
 21 23  2  0  0  0  0
 22 24  1  0  0  0  0
 22 25  2  0  0  0  0
 24 26  2  0  0  0  0
 24 27  1  0  0  0  0
 26 28  1  0  0  0  0
 27 29  2  0  0  0  0
 28 30  2  0  0  0  0
 11 15  1  0  0  0  0
 14 16  1  0  0  0  0
 23 25  1  0  0  0  0
 29 30  1  0  0  0  0
M  END
>  <MolRegNo>
434834

>  <m>
=

>  <Value>
570

>  <Unit>
nM

>  <Type>
IC50

>  <pValue>
6.24

>  <Ligand Efficiency>
0

>  <Binding Efficiency>
0

>  <Surface Efficiency>
0

>  <Assay Index>
602136

>  <Assay Category>


>  <Assay Organism>


>  <Target ID>
17045

>  <Target Name>
Cytochrome P450 3A4

>  <Target Organism>
Homo sapiens

>  <Target Description>
Target is a single protein chain

>  <Sequence Accession>
P08684

>  <Reference>
Bioorg Med Chem Lett 21 (16), 4909-4912 (2011)

>  <Pubmed ID>
21742496

>  <DOI>
10.1016/j.bmcl.2011.06.015

$$$$
234707
Actelion Java MolfileCreator 1.0

 28 30  0  0  0  0  0  0  0  0999 V2000
    0.0000   -0.0000   -0.0000 O   0  0  0  0  0  0  0  0  0  0  0  0
    0.0000   -1.4830   -0.0000 C   0  0  0  0  0  0  0  0  0  0  0  0
    1.2932   -2.2185   -0.0000 N   0  0  0  0  0  0  0  0  0  0  0  0
   -1.3050   -2.2304   -0.0000 C   0  0  0  0  0  0  0  0  0  0  0  0
    2.5745   -1.4474   -0.0000 O   0  0  0  0  0  0  0  0  0  0  0  0
   -2.6219   -1.4711   -0.0000 C   0  0  0  0  0  0  0  0  0  0  0  0
   -3.9269   -2.2185   -0.0000 C   0  0  0  0  0  0  0  0  0  0  0  0
   -5.2438   -1.4711   -0.0000 C   0  0  0  0  0  0  0  0  0  0  0  0
   -3.9388   -3.7134   -0.0000 C   0  0  0  0  0  0  0  0  0  0  0  0
   -6.5370   -2.2067   -0.0000 C   0  0  0  0  0  0  0  0  0  0  0  0
   -5.2557   -4.4489   -0.0000 C   0  0  0  0  0  0  0  0  0  0  0  0
   -6.5488   -3.6897   -0.0000 C   0  0  0  0  0  0  0  0  0  0  0  0
   -7.8539   -4.4252   -0.0000 C   0  0  0  0  0  0  0  0  0  0  0  0
   -9.1589   -3.6659   -0.0000 N   0  0  0  0  0  0  0  0  0  0  0  0
   -9.1707   -2.1592   -0.0000 C   0  0  0  0  0  0  0  0  0  0  0  0
  -10.4639   -4.4015   -0.0000 C   0  0  0  0  0  0  0  0  0  0  0  0
  -10.4758   -1.3999   -0.0000 C   0  0  0  0  0  0  0  0  0  0  0  0
  -11.7689   -3.6422   -0.0000 C   0  0  0  0  0  0  0  0  0  0  0  0
  -10.4876    0.1068   -0.0000 O   0  0  0  0  0  0  0  0  0  0  0  0
  -13.0739   -4.3778   -0.0000 C   0  0  0  0  0  0  0  0  0  0  0  0
  -14.5451   -4.0337   -0.0000 C   0  0  0  0  0  0  0  0  0  0  0  0
  -12.9672   -5.8607   -0.0000 C   0  0  0  0  0  0  0  0  0  0  0  0
  -15.3399   -5.2913   -0.0000 C   0  0  0  0  0  0  0  0  0  0  0  0
  -15.2687   -2.7168   -0.0000 C   0  0  0  0  0  0  0  0  0  0  0  0
  -14.3552   -6.4302   -0.0000 N   0  0  0  0  0  0  0  0  0  0  0  0
  -16.8348   -5.2438   -0.0000 C   0  0  0  0  0  0  0  0  0  0  0  0
  -16.7755   -2.6694   -0.0000 C   0  0  0  0  0  0  0  0  0  0  0  0
  -17.5585   -3.9269   -0.0000 C   0  0  0  0  0  0  0  0  0  0  0  0
  1  2  2  0  0  0  0
  2  3  1  0  0  0  0
  2  4  1  0  0  0  0
  3  5  1  0  0  0  0
  4  6  2  0  0  0  0
  6  7  1  0  0  0  0
  7  8  2  0  0  0  0
  7  9  1  0  0  0  0
  8 10  1  0  0  0  0
  9 11  2  0  0  0  0
 10 12  2  0  0  0  0
 12 13  1  0  0  0  0
 13 14  1  0  0  0  0
 14 15  1  0  0  0  0
 14 16  1  0  0  0  0
 15 17  1  0  0  0  0
 16 18  1  0  0  0  0
 17 19  1  0  0  0  0
 18 20  1  0  0  0  0
 20 21  1  0  0  0  0
 20 22  2  0  0  0  0
 21 23  2  0  0  0  0
 21 24  1  0  0  0  0
 22 25  1  0  0  0  0
 23 26  1  0  0  0  0
 24 27  2  0  0  0  0
 26 28  2  0  0  0  0
 11 12  1  0  0  0  0
 23 25  1  0  0  0  0
 27 28  1  0  0  0  0
M  END
>  <MolRegNo>
234707

>  <m>
=

>  <Value>
14000

>  <Unit>
nM

>  <Type>
IC50

>  <pValue>
4.85

>  <Ligand Efficiency>
0

>  <Binding Efficiency>
0

>  <Surface Efficiency>
0

>  <Assay Index>
602136

>  <Assay Category>


>  <Assay Organism>


>  <Target ID>
17045

>  <Target Name>
Cytochrome P450 3A4

>  <Target Organism>
Homo sapiens

>  <Target Description>
Target is a single protein chain

>  <Sequence Accession>
P08684

>  <Reference>
Bioorg Med Chem Lett 21 (16), 4909-4912 (2011)

>  <Pubmed ID>
21742496

>  <DOI>
10.1016/j.bmcl.2011.06.015

$$$$
1168492
Actelion Java MolfileCreator 1.0

 35 37  0  0  0  0  0  0  0  0999 V2000
    0.0000   -0.0000   -0.0000 Cl  0  0  0  0  0  0  0  0  0  0  0  0
    2.6457  -10.3939   -0.0000 O   0  0  0  0  0  0  0  0  0  0  0  0
    3.3898   -9.0947   -0.0000 C   0  0  0  0  0  0  0  0  0  0  0  0
    4.8663   -9.0947   -0.0000 N   0  0  0  0  0  0  0  0  0  0  0  0
    2.6339   -7.7836   -0.0000 C   0  0  0  0  0  0  0  0  0  0  0  0
    5.6104   -7.7955   -0.0000 C   0  0  0  0  0  0  0  0  0  0  0  0
    3.3662   -6.4844   -0.0000 N   0  0  0  0  0  0  0  0  0  0  0  0
    1.8780   -9.0711   -0.0000 C   0  0  0  0  0  0  0  0  0  0  0  0
    1.8780   -6.4726   -0.0000 C   0  0  0  0  0  0  0  0  0  0  0  0
    4.8544   -6.4844   -0.0000 C   0  0  0  0  0  0  0  0  0  0  0  0
    7.0986   -7.7955   -0.0000 C   0  0  0  0  0  0  0  0  0  0  0  0
    2.6103   -5.1733   -0.0000 C   0  0  0  0  0  0  0  0  0  0  0  0
    0.3780   -9.0593   -0.0000 C   0  0  0  0  0  0  0  0  0  0  0  0
    0.3662   -6.4490   -0.0000 C   0  0  0  0  0  0  0  0  0  0  0  0
    5.5986   -5.1852   -0.0000 O   0  0  0  0  0  0  0  0  0  0  0  0
    7.8191   -9.0829   -0.0000 C   0  0  0  0  0  0  0  0  0  0  0  0
    7.8427   -6.4962   -0.0000 C   0  0  0  0  0  0  0  0  0  0  0  0
    3.3544   -3.8741   -0.0000 C   0  0  0  0  0  0  0  0  0  0  0  0
   -0.3780   -7.7482   -0.0000 N   0  0  0  0  0  0  0  0  0  0  0  0
    2.5985   -2.5631   -0.0000 C   0  0  0  0  0  0  0  0  0  0  0  0
   -1.8898   -7.7364   -0.0000 C   0  0  0  0  0  0  0  0  0  0  0  0
    3.3426   -1.2638   -0.0000 C   0  0  0  0  0  0  0  0  0  0  0  0
   -2.6457   -6.4253   -0.0000 C   0  0  0  0  0  0  0  0  0  0  0  0
   -4.1576   -6.4135   -0.0000 C   0  0  0  0  0  0  0  0  0  0  0  0
   -1.9134   -5.1143   -0.0000 C   0  0  0  0  0  0  0  0  0  0  0  0
   -4.9135   -5.1025   -0.0000 C   0  0  0  0  0  0  0  0  0  0  0  0
   -2.6694   -3.8150   -0.0000 C   0  0  0  0  0  0  0  0  0  0  0  0
   -4.1694   -3.8032   -0.0000 C   0  0  0  0  0  0  0  0  0  0  0  0
   -4.9253   -2.4922   -0.0000 O   0  0  0  0  0  0  0  0  0  0  0  0
   -6.4372   -2.4804   -0.0000 C   0  0  0  0  0  0  0  0  0  0  0  0
   -7.1931   -3.7560   -0.0000 C   0  0  0  0  0  0  0  0  0  0  0  0
   -7.1931   -1.1811   -0.0000 C   0  0  0  0  0  0  0  0  0  0  0  0
   -8.6813   -3.7442   -0.0000 C   0  0  0  0  0  0  0  0  0  0  0  0
   -8.6813   -1.1693   -0.0000 C   0  0  0  0  0  0  0  0  0  0  0  0
   -9.4254   -2.4449   -0.0000 C   0  0  0  0  0  0  0  0  0  0  0  0
  2  3  2  0  0  0  0
  3  4  1  0  0  0  0
  3  5  1  0  0  0  0
  4  6  1  0  0  0  0
  5  7  1  0  0  0  0
  5  8  1  0  0  0  0
  5  9  1  0  0  0  0
  6 10  1  0  0  0  0
  6 11  1  0  0  0  0
  7 12  1  0  0  0  0
  8 13  1  0  0  0  0
  9 14  1  0  0  0  0
 10 15  2  0  0  0  0
 11 16  1  0  0  0  0
 11 17  1  0  0  0  0
 12 18  1  0  0  0  0
 13 19  1  0  0  0  0
 18 20  1  0  0  0  0
 19 21  1  0  0  0  0
 20 22  1  0  0  0  0
 21 23  1  0  0  0  0
 23 24  2  0  0  0  0
 23 25  1  0  0  0  0
 24 26  1  0  0  0  0
 25 27  2  0  0  0  0
 26 28  2  0  0  0  0
 28 29  1  0  0  0  0
 29 30  1  0  0  0  0
 30 31  2  0  0  0  0
 30 32  1  0  0  0  0
 31 33  1  0  0  0  0
 32 34  2  0  0  0  0
 33 35  2  0  0  0  0
  7 10  1  0  0  0  0
 14 19  1  0  0  0  0
 27 28  1  0  0  0  0
 34 35  1  0  0  0  0
M  END
>  <MolRegNo>
1168492

>  <m>
=

>  <Value>
9300

>  <Unit>
nM

>  <Type>
IC50

>  <pValue>
5.03

>  <Ligand Efficiency>
0

>  <Binding Efficiency>
0

>  <Surface Efficiency>
0

>  <Assay Index>
604633

>  <Assay Category>


>  <Assay Organism>


>  <Target ID>
17045

>  <Target Name>
Cytochrome P450 3A4

>  <Target Organism>
Homo sapiens

>  <Target Description>
Target is a single protein chain

>  <Sequence Accession>
P08684

>  <Reference>
Bioorg Med Chem 19 (13), 4028-4042 (2011)

>  <Pubmed ID>
21658961

>  <DOI>
10.1016/j.bmc.2011.05.022

$$$$
1168346
Actelion Java MolfileCreator 1.0

 18 20  0  0  0  0  0  0  0  0999 V2000
    0.0000   -0.0000   -0.0000 Cl  0  0  0  0  0  0  0  0  0  0  0  0
   -1.3031   -0.7463   -0.0000 C   0  0  0  0  0  0  0  0  0  0  0  0
   -2.6180   -0.0000   -0.0000 C   0  0  0  0  0  0  0  0  0  0  0  0
   -1.2912   -2.2389   -0.0000 C   0  0  0  0  0  0  0  0  0  0  0  0
   -2.6417    1.5045   -0.0000 Cl  0  0  0  0  0  0  0  0  0  0  0  0
   -3.9329   -0.7582   -0.0000 C   0  0  0  0  0  0  0  0  0  0  0  0
   -2.6062   -2.9734   -0.0000 C   0  0  0  0  0  0  0  0  0  0  0  0
   -3.9211   -2.2389   -0.0000 C   0  0  0  0  0  0  0  0  0  0  0  0
   -2.6062   -4.4660   -0.0000 C   0  0  0  0  0  0  0  0  0  0  0  0
   -2.6180   -5.9586   -0.0000 C   0  0  0  0  0  0  0  0  0  0  0  0
   -3.9093   -3.6960   -0.0000 C   0  0  0  0  0  0  0  0  0  0  0  0
   -1.1846   -3.9922   -0.0000 C   0  0  0  0  0  0  0  0  0  0  0  0
   -3.9211   -6.6931   -0.0000 C   0  0  0  0  0  0  0  0  0  0  0  0
   -1.1965   -6.4088   -0.0000 C   0  0  0  0  0  0  0  0  0  0  0  0
   -5.2242   -4.4423   -0.0000 C   0  0  0  0  0  0  0  0  0  0  0  0
   -0.3198   -5.2005   -0.0000 N   0  0  0  0  0  0  0  0  0  0  0  0
   -5.2360   -5.9350   -0.0000 C   0  0  0  0  0  0  0  0  0  0  0  0
    1.1728   -5.1886   -0.0000 C   0  0  0  0  0  0  0  0  0  0  0  0
  1  2  1  0  0  0  0
  2  3  2  0  0  0  0
  2  4  1  0  0  0  0
  3  5  1  0  0  0  0
  3  6  1  0  0  0  0
  4  7  2  0  0  0  0
  6  8  2  0  0  0  0
  9  7  1  6  0  0  0
  9 10  1  0  0  0  0
  9 11  1  0  0  0  0
  9 12  1  0  0  0  0
 10 13  1  1  0  0  0
 10 14  1  0  0  0  0
 11 15  1  0  0  0  0
 12 16  1  0  0  0  0
 13 17  1  0  0  0  0
 16 18  1  0  0  0  0
  7  8  1  0  0  0  0
 14 16  1  0  0  0  0
 15 17  1  0  0  0  0
M  END
>  <MolRegNo>
1168346

>  <m>
=

>  <Value>
6500

>  <Unit>
nM

>  <Type>
IC50

>  <pValue>
5.19

>  <Ligand Efficiency>
0

>  <Binding Efficiency>
0

>  <Surface Efficiency>
0

>  <Assay Index>
603922

>  <Assay Category>


>  <Assay Organism>
Homo sapiens

>  <Target ID>
17045

>  <Target Name>
Cytochrome P450 3A4

>  <Target Organism>
Homo sapiens

>  <Target Description>
Target is a single protein chain

>  <Sequence Accession>
P08684

>  <Reference>
J Med Chem 54 (15), 5283-5295 (2011)

>  <Pubmed ID>
21739935

>  <DOI>
10.1021/jm101312a

$$$$
1168505
Actelion Java MolfileCreator 1.0

 17 19  0  0  0  0  0  0  0  0999 V2000
    0.0000   -0.0000   -0.0000 Cl  0  0  0  0  0  0  0  0  0  0  0  0
   -1.3015   -0.7454   -0.0000 C   0  0  0  0  0  0  0  0  0  0  0  0
   -2.6148   -0.0000   -0.0000 C   0  0  0  0  0  0  0  0  0  0  0  0
   -1.3015   -2.2362   -0.0000 C   0  0  0  0  0  0  0  0  0  0  0  0
   -2.6384    1.5144   -0.0000 Cl  0  0  0  0  0  0  0  0  0  0  0  0
   -3.9281   -0.7572   -0.0000 C   0  0  0  0  0  0  0  0  0  0  0  0
   -2.6029   -2.9815   -0.0000 C   0  0  0  0  0  0  0  0  0  0  0  0
   -3.9162   -2.2480   -0.0000 C   0  0  0  0  0  0  0  0  0  0  0  0
   -2.6029   -4.4723   -0.0000 C   0  0  0  0  0  0  0  0  0  0  0  0
   -2.6148   -5.9631   -0.0000 C   0  0  0  0  0  0  0  0  0  0  0  0
   -3.9162   -3.7033   -0.0000 C   0  0  0  0  0  0  0  0  0  0  0  0
   -1.1832   -3.9991   -0.0000 C   0  0  0  0  0  0  0  0  0  0  0  0
   -3.9281   -6.6848   -0.0000 C   0  0  0  0  0  0  0  0  0  0  0  0
   -1.1950   -6.4127   -0.0000 C   0  0  0  0  0  0  0  0  0  0  0  0
   -5.2295   -4.4487   -0.0000 C   0  0  0  0  0  0  0  0  0  0  0  0
   -0.3195   -5.1940   -0.0000 N   0  0  0  0  0  0  0  0  0  0  0  0
   -5.2414   -5.9394   -0.0000 C   0  0  0  0  0  0  0  0  0  0  0  0
  1  2  1  0  0  0  0
  2  3  2  0  0  0  0
  2  4  1  0  0  0  0
  3  5  1  0  0  0  0
  3  6  1  0  0  0  0
  4  7  2  0  0  0  0
  6  8  2  0  0  0  0
  9  7  1  6  0  0  0
  9 10  1  0  0  0  0
  9 11  1  0  0  0  0
  9 12  1  0  0  0  0
 10 13  1  1  0  0  0
 10 14  1  0  0  0  0
 11 15  1  0  0  0  0
 12 16  1  0  0  0  0
 13 17  1  0  0  0  0
  7  8  1  0  0  0  0
 14 16  1  0  0  0  0
 15 17  1  0  0  0  0
M  END
>  <MolRegNo>
1168505

>  <m>
=

>  <Value>
8390

>  <Unit>
nM

>  <Type>
IC50

>  <pValue>
5.08

>  <Ligand Efficiency>
0

>  <Binding Efficiency>
0

>  <Surface Efficiency>
0

>  <Assay Index>
603922

>  <Assay Category>


>  <Assay Organism>
Homo sapiens

>  <Target ID>
17045

>  <Target Name>
Cytochrome P450 3A4

>  <Target Organism>
Homo sapiens

>  <Target Description>
Target is a single protein chain

>  <Sequence Accession>
P08684

>  <Reference>
J Med Chem 54 (15), 5283-5295 (2011)

>  <Pubmed ID>
21739935

>  <DOI>
10.1021/jm101312a

$$$$
1168512
Actelion Java MolfileCreator 1.0

 17 19  0  0  0  0  0  0  0  0999 V2000
    0.0000   -0.0000   -0.0000 Cl  0  0  0  0  0  0  0  0  0  0  0  0
   -1.3054   -0.7476   -0.0000 C   0  0  0  0  0  0  0  0  0  0  0  0
   -2.6226    0.0119   -0.0000 C   0  0  0  0  0  0  0  0  0  0  0  0
   -1.3054   -2.2428   -0.0000 C   0  0  0  0  0  0  0  0  0  0  0  0
   -2.6463    1.5190   -0.0000 Cl  0  0  0  0  0  0  0  0  0  0  0  0
   -3.9398   -0.7476   -0.0000 C   0  0  0  0  0  0  0  0  0  0  0  0
   -2.6226   -2.9905   -0.0000 C   0  0  0  0  0  0  0  0  0  0  0  0
   -3.9398   -2.2428   -0.0000 C   0  0  0  0  0  0  0  0  0  0  0  0
   -2.6226   -4.4857   -0.0000 C   0  0  0  0  0  0  0  0  0  0  0  0
   -2.6463   -5.9691   -0.0000 C   0  0  0  0  0  0  0  0  0  0  0  0
   -1.2104   -4.0229   -0.0000 C   0  0  0  0  0  0  0  0  0  0  0  0
   -4.0585   -3.9991   -0.0000 C   0  0  0  0  0  0  0  0  0  0  0  0
   -1.2342   -6.4319   -0.0000 C   0  0  0  0  0  0  0  0  0  0  0  0
   -4.0822   -6.4200   -0.0000 C   0  0  0  0  0  0  0  0  0  0  0  0
   -0.3441   -5.2333   -0.0000 N   0  0  0  0  0  0  0  0  0  0  0  0
   -4.9485   -5.1977   -0.0000 C   0  0  0  0  0  0  0  0  0  0  0  0
    1.1392   -5.2333   -0.0000 C   0  0  0  0  0  0  0  0  0  0  0  0
  1  2  1  0  0  0  0
  2  3  2  0  0  0  0
  2  4  1  0  0  0  0
  3  5  1  0  0  0  0
  3  6  1  0  0  0  0
  4  7  2  0  0  0  0
  6  8  2  0  0  0  0
  9  7  1  1  0  0  0
  9 10  1  0  0  0  0
  9 11  1  0  0  0  0
  9 12  1  0  0  0  0
 10 13  1  6  0  0  0
 10 14  1  0  0  0  0
 11 15  1  0  0  0  0
 12 16  1  0  0  0  0
 15 17  1  0  0  0  0
  7  8  1  0  0  0  0
 13 15  1  0  0  0  0
 14 16  1  0  0  0  0
M  END
>  <MolRegNo>
1168512

>  <m>
=

>  <Value>
12700

>  <Unit>
nM

>  <Type>
IC50

>  <pValue>
4.9

>  <Ligand Efficiency>
0

>  <Binding Efficiency>
0

>  <Surface Efficiency>
0

>  <Assay Index>
603922

>  <Assay Category>


>  <Assay Organism>
Homo sapiens

>  <Target ID>
17045

>  <Target Name>
Cytochrome P450 3A4

>  <Target Organism>
Homo sapiens

>  <Target Description>
Target is a single protein chain

>  <Sequence Accession>
P08684

>  <Reference>
J Med Chem 54 (15), 5283-5295 (2011)

>  <Pubmed ID>
21739935

>  <DOI>
10.1021/jm101312a

$$$$
1168508
Actelion Java MolfileCreator 1.0

 16 18  0  0  0  0  0  0  0  0999 V2000
    0.0000   -0.0000   -0.0000 Cl  0  0  0  0  0  0  0  0  0  0  0  0
   -1.3036   -0.7466   -0.0000 C   0  0  0  0  0  0  0  0  0  0  0  0
   -2.6308    0.0119   -0.0000 C   0  0  0  0  0  0  0  0  0  0  0  0
   -1.3036   -2.2398   -0.0000 C   0  0  0  0  0  0  0  0  0  0  0  0
   -2.6545    1.5169   -0.0000 Cl  0  0  0  0  0  0  0  0  0  0  0  0
   -3.9462   -0.7466   -0.0000 C   0  0  0  0  0  0  0  0  0  0  0  0
   -2.6190   -2.9863   -0.0000 C   0  0  0  0  0  0  0  0  0  0  0  0
   -3.9462   -2.2398   -0.0000 C   0  0  0  0  0  0  0  0  0  0  0  0
   -2.6190   -4.4795   -0.0000 C   0  0  0  0  0  0  0  0  0  0  0  0
   -2.6427   -5.9608   -0.0000 C   0  0  0  0  0  0  0  0  0  0  0  0
   -1.2088   -4.0173   -0.0000 C   0  0  0  0  0  0  0  0  0  0  0  0
   -4.0529   -3.9936   -0.0000 C   0  0  0  0  0  0  0  0  0  0  0  0
   -1.2325   -6.4230   -0.0000 C   0  0  0  0  0  0  0  0  0  0  0  0
   -4.0766   -6.4111   -0.0000 C   0  0  0  0  0  0  0  0  0  0  0  0
   -0.3437   -5.2261   -0.0000 N   0  0  0  0  0  0  0  0  0  0  0  0
   -4.9417   -5.1905   -0.0000 C   0  0  0  0  0  0  0  0  0  0  0  0
  1  2  1  0  0  0  0
  2  3  2  0  0  0  0
  2  4  1  0  0  0  0
  3  5  1  0  0  0  0
  3  6  1  0  0  0  0
  4  7  2  0  0  0  0
  6  8  2  0  0  0  0
  9  7  1  1  0  0  0
  9 10  1  0  0  0  0
  9 11  1  0  0  0  0
  9 12  1  0  0  0  0
 10 13  1  6  0  0  0
 10 14  1  0  0  0  0
 11 15  1  0  0  0  0
 12 16  1  0  0  0  0
  7  8  1  0  0  0  0
 13 15  1  0  0  0  0
 14 16  1  0  0  0  0
M  END
>  <MolRegNo>
1168508

>  <m>
=

>  <Value>
9170

>  <Unit>
nM

>  <Type>
IC50

>  <pValue>
5.04

>  <Ligand Efficiency>
0

>  <Binding Efficiency>
0

>  <Surface Efficiency>
0

>  <Assay Index>
603922

>  <Assay Category>


>  <Assay Organism>
Homo sapiens

>  <Target ID>
17045

>  <Target Name>
Cytochrome P450 3A4

>  <Target Organism>
Homo sapiens

>  <Target Description>
Target is a single protein chain

>  <Sequence Accession>
P08684

>  <Reference>
J Med Chem 54 (15), 5283-5295 (2011)

>  <Pubmed ID>
21739935

>  <DOI>
10.1021/jm101312a

$$$$
1168510
Actelion Java MolfileCreator 1.0

 18 21  0  0  0  0  0  0  0  0999 V2000
    0.0000   -0.0000   -0.0000 N   0  0  0  0  0  0  0  0  0  0  0  0
   -0.8834    1.2250   -0.0000 C   0  0  0  0  0  0  0  0  0  0  0  0
   -0.8952   -1.1897   -0.0000 C   0  0  0  0  0  0  0  0  0  0  0  0
   -2.3087    0.7892   -0.0000 C   0  0  0  0  0  0  0  0  0  0  0  0
   -2.3205   -0.7067   -0.0000 C   0  0  0  0  0  0  0  0  0  0  0  0
   -2.3322    2.2969   -0.0000 C   0  0  0  0  0  0  0  0  0  0  0  0
   -3.7340    1.2721   -0.0000 C   0  0  0  0  0  0  0  0  0  0  0  0
   -3.7457   -1.1426   -0.0000 C   0  0  0  0  0  0  0  0  0  0  0  0
   -1.0483    3.0625   -0.0000 C   0  0  0  0  0  0  0  0  0  0  0  0
   -3.6397    3.0390   -0.0000 C   0  0  0  0  0  0  0  0  0  0  0  0
   -4.6174    0.0825   -0.0000 C   0  0  0  0  0  0  0  0  0  0  0  0
   -1.0719    4.5703   -0.0000 C   0  0  0  0  0  0  0  0  0  0  0  0
   -3.6633    4.5349   -0.0000 C   0  0  0  0  0  0  0  0  0  0  0  0
   -2.3794    5.3241   -0.0000 C   0  0  0  0  0  0  0  0  0  0  0  0
    0.2120    5.3241   -0.0000 C   0  0  0  0  0  0  0  0  0  0  0  0
   -2.3911    6.8318   -0.0000 C   0  0  0  0  0  0  0  0  0  0  0  0
    0.2002    6.8318   -0.0000 C   0  0  0  0  0  0  0  0  0  0  0  0
   -1.1072    7.5857   -0.0000 C   0  0  0  0  0  0  0  0  0  0  0  0
  1  2  1  0  0  0  0
  1  3  1  0  0  0  0
  2  4  1  0  0  0  0
  5  3  1  6  0  0  0
  4  6  1  1  0  0  0
  4  7  1  0  0  0  0
  5  8  1  0  0  0  0
  6  9  2  0  0  0  0
  6 10  1  0  0  0  0
  7 11  1  0  0  0  0
  9 12  1  0  0  0  0
 10 13  2  0  0  0  0
 12 14  1  0  0  0  0
 12 15  2  0  0  0  0
 14 16  2  0  0  0  0
 15 17  1  0  0  0  0
 16 18  1  0  0  0  0
  4  5  1  0  0  0  0
  8 11  1  0  0  0  0
 13 14  1  0  0  0  0
 17 18  2  0  0  0  0
M  END
>  <MolRegNo>
1168510

>  <m>
=

>  <Value>
2650

>  <Unit>
nM

>  <Type>
IC50

>  <pValue>
5.58

>  <Ligand Efficiency>
0

>  <Binding Efficiency>
0

>  <Surface Efficiency>
0

>  <Assay Index>
603922

>  <Assay Category>


>  <Assay Organism>
Homo sapiens

>  <Target ID>
17045

>  <Target Name>
Cytochrome P450 3A4

>  <Target Organism>
Homo sapiens

>  <Target Description>
Target is a single protein chain

>  <Sequence Accession>
P08684

>  <Reference>
J Med Chem 54 (15), 5283-5295 (2011)

>  <Pubmed ID>
21739935

>  <DOI>
10.1021/jm101312a

$$$$
1170487
Actelion Java MolfileCreator 1.0

 37 40  0  0  1  0  0  0  0  0999 V2000
    0.0000   -0.0000   -0.0000 O   0  0  0  0  0  0  0  0  0  0  0  0
   -0.0119   -1.4926   -0.0000 C   0  0  0  0  0  0  0  0  0  0  0  0
   -1.3254   -2.2329   -0.0000 O   0  0  0  0  0  0  0  0  0  0  0  0
    1.2896   -2.2329   -0.0000 N   0  0  0  0  0  0  0  0  0  0  0  0
   -2.6508   -1.4687   -0.0000 C   0  0  0  0  0  0  0  0  0  0  0  0
    1.2776   -3.7254   -0.0000 C   0  0  0  0  0  0  0  0  0  0  0  0
   -3.9642   -2.2090   -0.0000 C   0  0  0  0  0  0  0  0  0  0  0  0
   -2.6627    0.0478   -0.0000 C   0  0  0  0  0  0  0  0  0  0  0  0
   -3.9762   -0.7045   -0.0000 C   0  0  0  0  0  0  0  0  0  0  0  0
    2.5791   -4.4657   -0.0000 C   0  0  0  0  0  0  0  0  0  0  0  0
    3.8687   -3.6896   -0.0000 C   0  0  0  0  0  0  0  0  0  0  0  0
    2.5672   -5.9583   -0.0000 C   0  0  0  0  0  0  0  0  0  0  0  0
    5.1583   -4.4418   -0.0000 C   0  0  0  0  0  0  0  0  0  0  0  0
    3.8568   -6.6986   -0.0000 C   0  0  0  0  0  0  0  0  0  0  0  0
    5.1463   -5.9344   -0.0000 C   0  0  0  0  0  0  0  0  0  0  0  0
    6.4359   -6.6747   -0.0000 C   0  0  0  0  0  0  0  0  0  0  0  0
    6.4239   -8.1672   -0.0000 N   0  0  0  0  0  0  0  0  0  0  0  0
    7.7135   -8.9075   -0.0000 C   0  0  0  0  0  0  0  0  0  0  0  0
    9.0150   -8.1434   -0.0000 O   0  0  0  0  0  0  0  0  0  0  0  0
    7.7016  -10.4001   -0.0000 C   0  0  0  0  0  0  0  0  0  0  0  0
    6.3881  -11.1404   -0.0000 C   0  0  0  0  0  0  0  0  0  0  0  0
    8.9911  -11.1285   -0.0000 C   0  0  0  0  0  0  0  0  0  0  0  0
    6.3642  -12.6329   -0.0000 C   0  0  0  0  0  0  0  0  0  0  0  0
    5.0866  -10.3762   -0.0000 C   0  0  0  0  0  0  0  0  0  0  0  0
    8.9792  -12.6210   -0.0000 C   0  0  0  0  0  0  0  0  0  0  0  0
    7.6538  -13.3733   -0.0000 N   0  0  0  0  0  0  0  0  0  0  0  0
    5.0627  -13.3613   -0.0000 C   0  0  0  0  0  0  0  0  0  0  0  0
    3.7732  -11.1046   -0.0000 C   0  0  0  0  0  0  0  0  0  0  0  0
   10.2687  -13.3613   -0.0000 C   0  0  0  0  0  0  0  0  0  0  0  0
    3.7612  -12.5971   -0.0000 C   0  0  0  0  0  0  0  0  0  0  0  0
   11.5583  -12.5971   -0.0000 C   0  0  0  0  0  0  0  0  0  0  0  0
   10.2568  -14.8658   -0.0000 C   0  0  0  0  0  0  0  0  0  0  0  0
   12.8598  -13.3255   -0.0000 C   0  0  0  0  0  0  0  0  0  0  0  0
   11.5464  -15.6061   -0.0000 C   0  0  0  0  0  0  0  0  0  0  0  0
   12.8598  -14.8300   -0.0000 C   0  0  0  0  0  0  0  0  0  0  0  0
   14.1494  -12.5494   -0.0000 C   0  0  0  0  0  0  0  0  0  0  0  0
   15.4509  -13.2897   -0.0000 N   0  0  0  0  0  0  0  0  0  0  0  0
  1  2  2  0  0  0  0
  2  3  1  0  0  0  0
  2  4  1  0  0  0  0
  3  5  1  0  0  0  0
  4  6  1  0  0  0  0
  5  7  1  0  0  0  0
  5  8  1  0  0  0  0
  5  9  1  0  0  0  0
 10  6  1  1  0  0  0
 10 11  1  0  0  0  0
 10 12  1  0  0  0  0
 11 13  1  0  0  0  0
 12 14  1  0  0  0  0
 13 15  1  0  0  0  0
 15 16  1  6  0  0  0
 16 17  1  0  0  0  0
 17 18  1  0  0  0  0
 18 19  2  0  0  0  0
 18 20  1  0  0  0  0
 20 21  1  0  0  0  0
 20 22  2  0  0  0  0
 21 23  1  0  0  0  0
 21 24  2  0  0  0  0
 22 25  1  0  0  0  0
 23 26  1  0  0  0  0
 23 27  2  0  0  0  0
 24 28  1  0  0  0  0
 25 29  1  0  0  0  0
 27 30  1  0  0  0  0
 29 31  2  0  0  0  0
 29 32  1  0  0  0  0
 31 33  1  0  0  0  0
 32 34  2  0  0  0  0
 33 35  2  0  0  0  0
 33 36  1  0  0  0  0
 36 37  1  0  0  0  0
 14 15  1  0  0  0  0
 25 26  2  0  0  0  0
 28 30  2  0  0  0  0
 34 35  1  0  0  0  0
M  END
>  <MolRegNo>
1170487

>  <m>
=

>  <Value>
2400

>  <Unit>
nM

>  <Type>
IC50

>  <pValue>
5.62

>  <Ligand Efficiency>
0

>  <Binding Efficiency>
0

>  <Surface Efficiency>
0

>  <Assay Index>
605624

>  <Assay Category>


>  <Assay Organism>


>  <Target ID>
17045

>  <Target Name>
Cytochrome P450 3A4

>  <Target Organism>
Homo sapiens

>  <Target Description>
Target is a single protein chain

>  <Sequence Accession>
P08684

>  <Reference>
Bioorg Med Chem 19 (10), 3039-3053 (2011)

>  <Pubmed ID>
21515056

>  <DOI>
10.1016/j.bmc.2011.04.014

$$$$
1175196
Actelion Java MolfileCreator 1.0

 36 40  0  0  0  0  0  0  0  0999 V2000
    0.0000   -0.0000   -0.0000 S   0  0  0  0  0  0  0  0  0  0  0  0
    0.7277    1.3242   -0.0000 O   0  0  0  0  0  0  0  0  0  0  0  0
    1.4435   -0.3698   -0.0000 O   0  0  0  0  0  0  0  0  0  0  0  0
   -0.0119   -1.4912   -0.0000 N   0  0  0  0  0  0  0  0  0  0  0  0
   -1.3123    0.7635   -0.0000 C   0  0  0  0  0  0  0  0  0  0  0  0
    1.2765   -2.2309   -0.0000 C   0  0  0  0  0  0  0  0  0  0  0  0
   -1.3242   -2.2309   -0.0000 C   0  0  0  0  0  0  0  0  0  0  0  0
    2.5649   -1.4674   -0.0000 C   0  0  0  0  0  0  0  0  0  0  0  0
    1.2646   -3.7340   -0.0000 C   0  0  0  0  0  0  0  0  0  0  0  0
   -2.6365   -1.4674   -0.0000 C   0  0  0  0  0  0  0  0  0  0  0  0
    3.8533   -2.2070   -0.0000 C   0  0  0  0  0  0  0  0  0  0  0  0
    2.5530   -4.4736   -0.0000 C   0  0  0  0  0  0  0  0  0  0  0  0
   -3.9487   -2.2070   -0.0000 N   0  0  0  0  0  0  0  0  0  0  0  0
    3.8294   -3.6982   -0.0000 C   0  0  0  0  0  0  0  0  0  0  0  0
   -5.2610   -1.4316   -0.0000 C   0  0  0  0  0  0  0  0  0  0  0  0
   -3.9607   -3.6863   -0.0000 C   0  0  0  0  0  0  0  0  0  0  0  0
    5.1179   -4.4379   -0.0000 N   0  0  0  0  0  0  0  0  0  0  0  0
   -6.5733   -2.1712   -0.0000 C   0  0  0  0  0  0  0  0  0  0  0  0
   -5.2849   -4.4259   -0.0000 C   0  0  0  0  0  0  0  0  0  0  0  0
    6.4063   -3.6744   -0.0000 C   0  0  0  0  0  0  0  0  0  0  0  0
   -6.5971   -3.6624   -0.0000 O   0  0  0  0  0  0  0  0  0  0  0  0
    7.6947   -4.4140   -0.0000 N   0  0  0  0  0  0  0  0  0  0  0  0
    6.3943   -2.1593   -0.0000 N   0  0  0  0  0  0  0  0  0  0  0  0
    8.9831   -3.6505   -0.0000 C   0  0  0  0  0  0  0  0  0  0  0  0
    7.6827   -1.3958   -0.0000 C   0  0  0  0  0  0  0  0  0  0  0  0
   10.4147   -4.1038   -0.0000 N   0  0  0  0  0  0  0  0  0  0  0  0
    8.9712   -2.1235   -0.0000 C   0  0  0  0  0  0  0  0  0  0  0  0
   11.2975   -2.8631   -0.0000 N   0  0  0  0  0  0  0  0  0  0  0  0
   10.7129   -5.5593   -0.0000 C   0  0  0  0  0  0  0  0  0  0  0  0
   10.4027   -1.6463   -0.0000 C   0  0  0  0  0  0  0  0  0  0  0  0
   12.1683   -5.9171   -0.0000 C   0  0  0  0  0  0  0  0  0  0  0  0
    9.4722   -6.5017   -0.0000 C   0  0  0  0  0  0  0  0  0  0  0  0
   12.7529   -7.2771   -0.0000 C   0  0  0  0  0  0  0  0  0  0  0  0
    9.4722   -7.9571   -0.0000 C   0  0  0  0  0  0  0  0  0  0  0  0
   12.0013   -8.6491   -0.0000 C   0  0  0  0  0  0  0  0  0  0  0  0
   10.5817   -8.9115   -0.0000 C   0  0  0  0  0  0  0  0  0  0  0  0
  1  2  2  0  0  0  0
  1  3  2  0  0  0  0
  1  4  1  0  0  0  0
  1  5  1  0  0  0  0
  4  6  1  0  0  0  0
  4  7  1  0  0  0  0
  6  8  2  0  0  0  0
  6  9  1  0  0  0  0
  7 10  1  0  0  0  0
  8 11  1  0  0  0  0
  9 12  2  0  0  0  0
 10 13  1  0  0  0  0
 11 14  2  0  0  0  0
 13 15  1  0  0  0  0
 13 16  1  0  0  0  0
 14 17  1  0  0  0  0
 15 18  1  0  0  0  0
 16 19  1  0  0  0  0
 17 20  1  0  0  0  0
 18 21  1  0  0  0  0
 20 22  2  0  0  0  0
 20 23  1  0  0  0  0
 22 24  1  0  0  0  0
 23 25  2  0  0  0  0
 24 26  1  0  0  0  0
 24 27  2  0  0  0  0
 26 28  1  0  0  0  0
 26 29  1  0  0  0  0
 27 30  1  0  0  0  0
 29 31  1  0  0  0  0
 29 32  1  0  0  0  0
 31 33  1  0  0  0  0
 32 34  1  0  0  0  0
 33 35  1  0  0  0  0
 34 36  1  0  0  0  0
 12 14  1  0  0  0  0
 19 21  1  0  0  0  0
 25 27  1  0  0  0  0
 28 30  2  0  0  0  0
 35 36  1  0  0  0  0
M  END
>  <MolRegNo>
1175196

>  <m>
=

>  <Value>
40

>  <Unit>
nM

>  <Type>
IC50

>  <pValue>
7.4

>  <Ligand Efficiency>
0

>  <Binding Efficiency>
0

>  <Surface Efficiency>
0

>  <Assay Index>
610076

>  <Assay Category>


>  <Assay Organism>


>  <Target ID>
17045

>  <Target Name>
Cytochrome P450 3A4

>  <Target Organism>
Homo sapiens

>  <Target Description>
Target is a single protein chain

>  <Sequence Accession>
P08684

>  <Reference>
Bioorg Med Chem Lett 21 (18), 5633-5637 (2011)

>  <Pubmed ID>
21798738

>  <DOI>
10.1016/j.bmcl.2011.06.129

$$$$
1171912
Actelion Java MolfileCreator 1.0

 30 33  0  0  0  0  0  0  0  0999 V2000
    0.0000   -0.0000   -0.0000 F   0  0  0  0  0  0  0  0  0  0  0  0
   -1.5021    0.0118   -0.0000 C   0  0  0  0  0  0  0  0  0  0  0  0
   -2.2590    1.3128   -0.0000 C   0  0  0  0  0  0  0  0  0  0  0  0
   -2.2590   -1.2655   -0.0000 C   0  0  0  0  0  0  0  0  0  0  0  0
   -3.7611    1.3365   -0.0000 N   0  0  0  0  0  0  0  0  0  0  0  0
   -1.5257    2.6139   -0.0000 C   0  0  0  0  0  0  0  0  0  0  0  0
   -3.7729   -1.2419   -0.0000 C   0  0  0  0  0  0  0  0  0  0  0  0
   -4.5299    0.0591   -0.0000 C   0  0  0  0  0  0  0  0  0  0  0  0
   -1.9988    4.0331   -0.0000 N   0  0  0  0  0  0  0  0  0  0  0  0
   -4.5417   -2.5192   -0.0000 F   0  0  0  0  0  0  0  0  0  0  0  0
   -3.4418    4.4944   -0.0000 C   0  0  0  0  0  0  0  0  0  0  0  0
   -1.1354    5.2750   -0.0000 C   0  0  0  0  0  0  0  0  0  0  0  0
   -3.4654    6.0083   -0.0000 C   0  0  0  0  0  0  0  0  0  0  0  0
   -4.7428    3.7611   -0.0000 C   0  0  0  0  0  0  0  0  0  0  0  0
   -2.0343    6.4814   -0.0000 N   0  0  0  0  0  0  0  0  0  0  0  0
   -4.7783    6.7534   -0.0000 C   0  0  0  0  0  0  0  0  0  0  0  0
   -6.0556    4.5062   -0.0000 C   0  0  0  0  0  0  0  0  0  0  0  0
   -6.0674    5.9965   -0.0000 C   0  0  0  0  0  0  0  0  0  0  0  0
   -7.3685    6.7534   -0.0000 C   0  0  0  0  0  0  0  0  0  0  0  0
   -7.3803    8.2555   -0.0000 O   0  0  0  0  0  0  0  0  0  0  0  0
   -8.6695    6.0201   -0.0000 N   0  0  0  0  0  0  0  0  0  0  0  0
   -9.9705    6.7771   -0.0000 C   0  0  0  0  0  0  0  0  0  0  0  0
  -11.2715    6.0438   -0.0000 C   0  0  0  0  0  0  0  0  0  0  0  0
   -9.9823    8.2792   -0.0000 C   0  0  0  0  0  0  0  0  0  0  0  0
  -12.5725    6.8007   -0.0000 C   0  0  0  0  0  0  0  0  0  0  0  0
  -11.2833    4.5535   -0.0000 C   0  0  0  0  0  0  0  0  0  0  0  0
   -8.7049    9.0361   -0.0000 C   0  0  0  0  0  0  0  0  0  0  0  0
  -13.8735    6.0556   -0.0000 C   0  0  0  0  0  0  0  0  0  0  0  0
  -12.5843    3.8202   -0.0000 C   0  0  0  0  0  0  0  0  0  0  0  0
  -13.8853    4.5654   -0.0000 C   0  0  0  0  0  0  0  0  0  0  0  0
  1  2  1  0  0  0  0
  2  3  2  0  0  0  0
  2  4  1  0  0  0  0
  3  5  1  0  0  0  0
  3  6  1  0  0  0  0
  4  7  2  0  0  0  0
  5  8  2  0  0  0  0
  6  9  1  0  0  0  0
  7 10  1  0  0  0  0
  9 11  1  0  0  0  0
  9 12  1  0  0  0  0
 11 13  2  0  0  0  0
 11 14  1  0  0  0  0
 12 15  2  0  0  0  0
 13 16  1  0  0  0  0
 14 17  2  0  0  0  0
 16 18  2  0  0  0  0
 18 19  1  0  0  0  0
 19 20  2  0  0  0  0
 19 21  1  0  0  0  0
 22 21  1  6  0  0  0
 22 23  1  0  0  0  0
 22 24  1  0  0  0  0
 23 25  2  0  0  0  0
 23 26  1  0  0  0  0
 24 27  1  0  0  0  0
 25 28  1  0  0  0  0
 26 29  2  0  0  0  0
 28 30  2  0  0  0  0
  7  8  1  0  0  0  0
 13 15  1  0  0  0  0
 17 18  1  0  0  0  0
 29 30  1  0  0  0  0
M  END
>  <MolRegNo>
1171912

>  <m>
=

>  <Value>
45000

>  <Unit>
nM

>  <Type>
IC50

>  <pValue>
4.35

>  <Ligand Efficiency>
0

>  <Binding Efficiency>
0

>  <Surface Efficiency>
0

>  <Assay Index>
610179

>  <Assay Category>


>  <Assay Organism>


>  <Target ID>
17045

>  <Target Name>
Cytochrome P450 3A4

>  <Target Organism>
Homo sapiens

>  <Target Description>
Target is a single protein chain

>  <Sequence Accession>
P08684

>  <Reference>
Bioorg Med Chem Lett 21 (18), 5568-5572 (2011)

>  <Pubmed ID>
21798739

>  <DOI>
10.1016/j.bmcl.2011.06.088

$$$$
1172596
Actelion Java MolfileCreator 1.0

 31 35  0  0  0  0  0  0  0  0999 V2000
    0.0000   -0.0000   -0.0000 O   0  0  0  0  0  0  0  0  0  0  0  0
   -0.7425   -1.2847   -0.0000 C   0  0  0  0  0  0  0  0  0  0  0  0
   -0.7661    1.2965   -0.0000 C   0  0  0  0  0  0  0  0  0  0  0  0
   -2.2394   -1.2847   -0.0000 C   0  0  0  0  0  0  0  0  0  0  0  0
    0.0000   -2.5576   -0.0000 C   0  0  0  0  0  0  0  0  0  0  0  0
   -3.0055   -0.0000   -0.0000 C   0  0  0  0  0  0  0  0  0  0  0  0
   -2.9937   -2.5694   -0.0000 C   0  0  0  0  0  0  0  0  0  0  0  0
   -0.7543   -3.8541   -0.0000 C   0  0  0  0  0  0  0  0  0  0  0  0
   -4.4435    0.4715   -0.0000 N   0  0  0  0  0  0  0  0  0  0  0  0
   -2.1451    1.2258   -0.0000 C   0  0  0  0  0  0  0  0  0  0  0  0
   -2.2512   -3.8424   -0.0000 C   0  0  0  0  0  0  0  0  0  0  0  0
   -5.7518   -0.2593   -0.0000 N   0  0  0  0  0  0  0  0  0  0  0  0
   -4.4553    1.9801   -0.0000 C   0  0  0  0  0  0  0  0  0  0  0  0
   -3.0409    2.4516   -0.0000 C   0  0  0  0  0  0  0  0  0  0  0  0
   -7.0483    0.5068   -0.0000 C   0  0  0  0  0  0  0  0  0  0  0  0
   -5.7635    2.7344   -0.0000 C   0  0  0  0  0  0  0  0  0  0  0  0
   -7.0600    2.0037   -0.0000 N   0  0  0  0  0  0  0  0  0  0  0  0
   -8.3565   -0.2239   -0.0000 N   0  0  0  0  0  0  0  0  0  0  0  0
   -9.6530    0.5304   -0.0000 C   0  0  0  0  0  0  0  0  0  0  0  0
   -9.6530    2.0390   -0.0000 C   0  0  0  0  0  0  0  0  0  0  0  0
  -10.9495   -0.2004   -0.0000 C   0  0  0  0  0  0  0  0  0  0  0  0
  -10.9495    2.7934   -0.0000 C   0  0  0  0  0  0  0  0  0  0  0  0
  -12.2460    0.5540   -0.0000 C   0  0  0  0  0  0  0  0  0  0  0  0
  -12.2578    2.0626   -0.0000 C   0  0  0  0  0  0  0  0  0  0  0  0
  -13.5661    2.8169   -0.0000 N   0  0  0  0  0  0  0  0  0  0  0  0
  -13.5779    4.3256   -0.0000 C   0  0  0  0  0  0  0  0  0  0  0  0
  -14.8626    2.0744   -0.0000 C   0  0  0  0  0  0  0  0  0  0  0  0
  -14.8744    5.0799   -0.0000 C   0  0  0  0  0  0  0  0  0  0  0  0
  -16.1709    2.8405   -0.0000 C   0  0  0  0  0  0  0  0  0  0  0  0
  -16.1827    4.3492   -0.0000 N   0  0  0  0  0  0  0  0  0  0  0  0
  -17.4910    5.1153   -0.0000 C   0  0  0  0  0  0  0  0  0  0  0  0
  1  2  1  0  0  0  0
  1  3  1  0  0  0  0
  2  4  2  0  0  0  0
  2  5  1  0  0  0  0
  4  6  1  0  0  0  0
  4  7  1  0  0  0  0
  5  8  2  0  0  0  0
  6  9  1  0  0  0  0
  6 10  2  0  0  0  0
  7 11  2  0  0  0  0
  9 12  1  0  0  0  0
  9 13  1  0  0  0  0
 10 14  1  0  0  0  0
 12 15  2  0  0  0  0
 13 16  1  0  0  0  0
 15 17  1  0  0  0  0
 15 18  1  0  0  0  0
 18 19  1  0  0  0  0
 19 20  2  0  0  0  0
 19 21  1  0  0  0  0
 20 22  1  0  0  0  0
 21 23  2  0  0  0  0
 22 24  2  0  0  0  0
 24 25  1  0  0  0  0
 25 26  1  0  0  0  0
 25 27  1  0  0  0  0
 26 28  1  0  0  0  0
 27 29  1  0  0  0  0
 28 30  1  0  0  0  0
 30 31  1  0  0  0  0
  8 11  1  0  0  0  0
 13 14  2  0  0  0  0
 16 17  2  0  0  0  0
 23 24  1  0  0  0  0
 29 30  1  0  0  0  0
M  END
>  <MolRegNo>
1172596

>  <m>
=

>  <Value>
9400

>  <Unit>
nM

>  <Type>
IC50

>  <pValue>
5.03

>  <Ligand Efficiency>
0

>  <Binding Efficiency>
0

>  <Surface Efficiency>
0

>  <Assay Index>
610506

>  <Assay Category>


>  <Assay Organism>


>  <Target ID>
17045

>  <Target Name>
Cytochrome P450 3A4

>  <Target Organism>
Homo sapiens

>  <Target Description>
Target is a single protein chain

>  <Sequence Accession>
P08684

>  <Reference>
J Med Chem 54 (18), 6328-6341 (2011)

>  <Pubmed ID>
21859094

>  <DOI>
10.1021/jm200758k

$$$$
1172600
Actelion Java MolfileCreator 1.0

 35 39  0  0  0  0  0  0  0  0999 V2000
    0.0000   -0.0000   -0.0000 S   0  0  0  0  0  0  0  0  0  0  0  0
    0.7357   -1.2934   -0.0000 O   0  0  0  0  0  0  0  0  0  0  0  0
    1.4951    0.0119   -0.0000 O   0  0  0  0  0  0  0  0  0  0  0  0
   -1.1510    0.0119   -0.0000 N   0  0  0  0  0  0  0  0  0  0  0  0
    0.7357    1.3171   -0.0000 C   0  0  0  0  0  0  0  0  0  0  0  0
   -1.8985   -1.2815   -0.0000 C   0  0  0  0  0  0  0  0  0  0  0  0
   -1.9223    1.3171   -0.0000 C   0  0  0  0  0  0  0  0  0  0  0  0
   -3.4055   -1.2815   -0.0000 C   0  0  0  0  0  0  0  0  0  0  0  0
   -1.1510   -2.5630   -0.0000 C   0  0  0  0  0  0  0  0  0  0  0  0
   -4.1768    0.0119   -0.0000 C   0  0  0  0  0  0  0  0  0  0  0  0
   -4.1649   -2.5749   -0.0000 C   0  0  0  0  0  0  0  0  0  0  0  0
   -1.9104   -3.8683   -0.0000 C   0  0  0  0  0  0  0  0  0  0  0  0
   -5.6244    0.4865   -0.0000 N   0  0  0  0  0  0  0  0  0  0  0  0
   -3.3106    1.2459   -0.0000 C   0  0  0  0  0  0  0  0  0  0  0  0
   -3.4174   -3.8564   -0.0000 C   0  0  0  0  0  0  0  0  0  0  0  0
   -6.9416   -0.2492   -0.0000 N   0  0  0  0  0  0  0  0  0  0  0  0
   -5.6363    2.0053   -0.0000 C   0  0  0  0  0  0  0  0  0  0  0  0
   -4.2124    2.4681   -0.0000 C   0  0  0  0  0  0  0  0  0  0  0  0
   -8.2468    0.5221   -0.0000 C   0  0  0  0  0  0  0  0  0  0  0  0
   -6.9534    2.7648   -0.0000 C   0  0  0  0  0  0  0  0  0  0  0  0
   -8.2587    2.0291   -0.0000 N   0  0  0  0  0  0  0  0  0  0  0  0
   -9.5639   -0.2136   -0.0000 N   0  0  0  0  0  0  0  0  0  0  0  0
  -10.8810    0.5577   -0.0000 C   0  0  0  0  0  0  0  0  0  0  0  0
  -10.8810    2.0765   -0.0000 C   0  0  0  0  0  0  0  0  0  0  0  0
  -12.1863   -0.1780   -0.0000 C   0  0  0  0  0  0  0  0  0  0  0  0
  -12.1863    2.8360   -0.0000 C   0  0  0  0  0  0  0  0  0  0  0  0
  -13.4915    0.5814   -0.0000 C   0  0  0  0  0  0  0  0  0  0  0  0
  -13.5034    2.1003   -0.0000 C   0  0  0  0  0  0  0  0  0  0  0  0
  -14.8205    2.8597   -0.0000 N   0  0  0  0  0  0  0  0  0  0  0  0
  -14.8324    4.3785   -0.0000 C   0  0  0  0  0  0  0  0  0  0  0  0
  -16.1258    2.1121   -0.0000 C   0  0  0  0  0  0  0  0  0  0  0  0
  -16.1376    5.1379   -0.0000 C   0  0  0  0  0  0  0  0  0  0  0  0
  -17.4429    2.8834   -0.0000 C   0  0  0  0  0  0  0  0  0  0  0  0
  -17.4547    4.4022   -0.0000 N   0  0  0  0  0  0  0  0  0  0  0  0
  -18.7719    5.1735   -0.0000 C   0  0  0  0  0  0  0  0  0  0  0  0
  1  2  2  0  0  0  0
  1  3  2  0  0  0  0
  1  4  1  0  0  0  0
  1  5  1  0  0  0  0
  4  6  1  0  0  0  0
  4  7  1  0  0  0  0
  6  8  2  0  0  0  0
  6  9  1  0  0  0  0
  8 10  1  0  0  0  0
  8 11  1  0  0  0  0
  9 12  2  0  0  0  0
 10 13  1  0  0  0  0
 10 14  2  0  0  0  0
 11 15  2  0  0  0  0
 13 16  1  0  0  0  0
 13 17  1  0  0  0  0
 14 18  1  0  0  0  0
 16 19  2  0  0  0  0
 17 20  1  0  0  0  0
 19 21  1  0  0  0  0
 19 22  1  0  0  0  0
 22 23  1  0  0  0  0
 23 24  2  0  0  0  0
 23 25  1  0  0  0  0
 24 26  1  0  0  0  0
 25 27  2  0  0  0  0
 26 28  2  0  0  0  0
 28 29  1  0  0  0  0
 29 30  1  0  0  0  0
 29 31  1  0  0  0  0
 30 32  1  0  0  0  0
 31 33  1  0  0  0  0
 32 34  1  0  0  0  0
 34 35  1  0  0  0  0
 12 15  1  0  0  0  0
 17 18  2  0  0  0  0
 20 21  2  0  0  0  0
 27 28  1  0  0  0  0
 33 34  1  0  0  0  0
M  END
>  <MolRegNo>
1172600

>  <m>
=

>  <Value>
14600

>  <Unit>
nM

>  <Type>
IC50

>  <pValue>
4.84

>  <Ligand Efficiency>
0

>  <Binding Efficiency>
0

>  <Surface Efficiency>
0

>  <Assay Index>
610506

>  <Assay Category>


>  <Assay Organism>


>  <Target ID>
17045

>  <Target Name>
Cytochrome P450 3A4

>  <Target Organism>
Homo sapiens

>  <Target Description>
Target is a single protein chain

>  <Sequence Accession>
P08684

>  <Reference>
J Med Chem 54 (18), 6328-6341 (2011)

>  <Pubmed ID>
21859094

>  <DOI>
10.1021/jm200758k

$$$$
1174340
Actelion Java MolfileCreator 1.0

 28 31  0  0  1  0  0  0  0  0999 V2000
    0.0000   -0.0000   -0.0000 O   0  0  0  0  0  0  0  0  0  0  0  0
   -0.7773   -1.2719   -0.0000 C   0  0  0  0  0  0  0  0  0  0  0  0
   -0.7420    1.3073   -0.0000 C   0  0  0  0  0  0  0  0  0  0  0  0
   -2.2730   -1.2484   -0.0000 C   0  0  0  0  0  0  0  0  0  0  0  0
   -2.2494    1.3426   -0.0000 C   0  0  0  0  0  0  0  0  0  0  0  0
   -3.0149    0.0589   -0.0000 N   0  0  0  0  0  0  0  0  0  0  0  0
   -4.5106    0.0824   -0.0000 C   0  0  0  0  0  0  0  0  0  0  0  0
   -5.2761   -1.1895   -0.0000 C   0  0  0  0  0  0  0  0  0  0  0  0
   -5.2644    1.3897   -0.0000 C   0  0  0  0  0  0  0  0  0  0  0  0
   -6.7718   -1.1659   -0.0000 C   0  0  0  0  0  0  0  0  0  0  0  0
   -6.7718    1.4133   -0.0000 C   0  0  0  0  0  0  0  0  0  0  0  0
   -7.5256    0.1413   -0.0000 C   0  0  0  0  0  0  0  0  0  0  0  0
   -9.0330    0.1649   -0.0000 C   0  0  0  0  0  0  0  0  0  0  0  0
   -9.7868    1.4721   -0.0000 C   0  0  0  0  0  0  0  0  0  0  0  0
   -9.7986   -1.1070   -0.0000 C   0  0  0  0  0  0  0  0  0  0  0  0
  -11.2943    1.4957   -0.0000 C   0  0  0  0  0  0  0  0  0  0  0  0
  -11.2943   -1.0953   -0.0000 C   0  0  0  0  0  0  0  0  0  0  0  0
  -12.0480    0.2238   -0.0000 C   0  0  0  0  0  0  0  0  0  0  0  0
  -13.5555    0.2355   -0.0000 O   0  0  0  0  0  0  0  0  0  0  0  0
  -14.3092   -1.0482   -0.0000 C   0  0  0  0  0  0  0  0  0  0  0  0
  -15.8167   -1.0364   -0.0000 C   0  0  0  0  0  0  0  0  0  0  0  0
  -16.5704    0.2709   -0.0000 C   0  0  0  0  0  0  0  0  0  0  0  0
  -18.0779    0.2827   -0.0000 N   0  0  0  0  0  0  0  0  0  0  0  0
  -18.8316   -0.9893   -0.0000 C   0  0  0  0  0  0  0  0  0  0  0  0
  -18.8316    1.5899   -0.0000 C   0  0  0  0  0  0  0  0  0  0  0  0
  -20.3391   -0.9775   -0.0000 C   0  0  0  0  0  0  0  0  0  0  0  0
  -20.3391    1.6017   -0.0000 C   0  0  0  0  0  0  0  0  0  0  0  0
  -21.1046    0.3180   -0.0000 C   0  0  0  0  0  0  0  0  0  0  0  0
  1  2  1  0  0  0  0
  1  3  1  0  0  0  0
  2  4  1  0  0  0  0
  3  5  1  0  0  0  0
  4  6  1  0  0  0  0
  7  6  1  1  0  0  0
  7  8  1  0  0  0  0
  7  9  1  0  0  0  0
  8 10  1  0  0  0  0
  9 11  1  0  0  0  0
 10 12  1  0  0  0  0
 12 13  1  6  0  0  0
 13 14  2  0  0  0  0
 13 15  1  0  0  0  0
 14 16  1  0  0  0  0
 15 17  2  0  0  0  0
 16 18  2  0  0  0  0
 18 19  1  0  0  0  0
 19 20  1  0  0  0  0
 20 21  1  0  0  0  0
 21 22  1  0  0  0  0
 22 23  1  0  0  0  0
 23 24  1  0  0  0  0
 23 25  1  0  0  0  0
 24 26  1  0  0  0  0
 25 27  1  0  0  0  0
 26 28  1  0  0  0  0
  5  6  1  0  0  0  0
 11 12  1  0  0  0  0
 17 18  1  0  0  0  0
 27 28  1  0  0  0  0
M  END
>  <MolRegNo>
1174340

>  <m>
=

>  <Value>
66200

>  <Unit>
nM

>  <Type>
IC50

>  <pValue>
4.18

>  <Ligand Efficiency>
0

>  <Binding Efficiency>
0

>  <Surface Efficiency>
0

>  <Assay Index>
609184

>  <Assay Category>


>  <Assay Organism>


>  <Target ID>
17045

>  <Target Name>
Cytochrome P450 3A4

>  <Target Organism>
Homo sapiens

>  <Target Description>
Target is a single protein chain

>  <Sequence Accession>
P08684

>  <Reference>
Bioorg Med Chem Lett 21 (18), 5384-5388 (2011)

>  <Pubmed ID>
21783360

>  <DOI>
10.1016/j.bmcl.2011.06.102

$$$$
1174334
Actelion Java MolfileCreator 1.0

 27 30  0  0  1  0  0  0  0  0999 V2000
    0.0000   -0.0000   -0.0000 O   0  0  0  0  0  0  0  0  0  0  0  0
    1.4953    0.0119   -0.0000 C   0  0  0  0  0  0  0  0  0  0  0  0
   -0.7595   -1.2936   -0.0000 C   0  0  0  0  0  0  0  0  0  0  0  0
    2.2311    1.3173   -0.0000 C   0  0  0  0  0  0  0  0  0  0  0  0
    2.2311   -1.2817   -0.0000 C   0  0  0  0  0  0  0  0  0  0  0  0
   -2.2786   -1.2817   -0.0000 C   0  0  0  0  0  0  0  0  0  0  0  0
    3.7265    1.3173   -0.0000 C   0  0  0  0  0  0  0  0  0  0  0  0
    3.7146   -1.2699   -0.0000 C   0  0  0  0  0  0  0  0  0  0  0  0
   -3.0381    0.0356   -0.0000 C   0  0  0  0  0  0  0  0  0  0  0  0
    4.4623    0.0237   -0.0000 C   0  0  0  0  0  0  0  0  0  0  0  0
   -4.5572    0.0475   -0.0000 N   0  0  0  0  0  0  0  0  0  0  0  0
    5.9576    0.0237   -0.0000 C   0  0  0  0  0  0  0  0  0  0  0  0
   -5.3168   -1.2342   -0.0000 C   0  0  0  0  0  0  0  0  0  0  0  0
   -5.3168    1.3648   -0.0000 C   0  0  0  0  0  0  0  0  0  0  0  0
    6.6934   -1.2699   -0.0000 C   0  0  0  0  0  0  0  0  0  0  0  0
    6.6934    1.3292   -0.0000 C   0  0  0  0  0  0  0  0  0  0  0  0
   -6.8358   -1.2224   -0.0000 C   0  0  0  0  0  0  0  0  0  0  0  0
   -6.8358    1.3767   -0.0000 C   0  0  0  0  0  0  0  0  0  0  0  0
    8.1769   -1.2699   -0.0000 C   0  0  0  0  0  0  0  0  0  0  0  0
    8.1888    1.3292   -0.0000 C   0  0  0  0  0  0  0  0  0  0  0  0
   -7.6072    0.0831   -0.0000 C   0  0  0  0  0  0  0  0  0  0  0  0
    8.9246    0.0356   -0.0000 C   0  0  0  0  0  0  0  0  0  0  0  0
   10.4199    0.0356   -0.0000 N   0  0  0  0  0  0  0  0  0  0  0  0
   11.2744   -1.1749   -0.0000 C   0  0  0  0  0  0  0  0  0  0  0  0
   11.2981    1.2580   -0.0000 C   0  0  0  0  0  0  0  0  0  0  0  0
   12.6985   -0.7121   -0.0000 C   0  0  0  0  0  0  0  0  0  0  0  0
   12.7104    0.7951   -0.0000 C   0  0  0  0  0  0  0  0  0  0  0  0
  1  2  1  0  0  0  0
  1  3  1  0  0  0  0
  2  4  2  0  0  0  0
  2  5  1  0  0  0  0
  3  6  1  0  0  0  0
  4  7  1  0  0  0  0
  5  8  2  0  0  0  0
  6  9  1  0  0  0  0
  7 10  2  0  0  0  0
  9 11  1  0  0  0  0
 12 10  1  6  0  0  0
 11 13  1  0  0  0  0
 11 14  1  0  0  0  0
 12 15  1  0  0  0  0
 12 16  1  0  0  0  0
 13 17  1  0  0  0  0
 14 18  1  0  0  0  0
 15 19  1  0  0  0  0
 16 20  1  0  0  0  0
 17 21  1  0  0  0  0
 19 22  1  0  0  0  0
 22 23  1  1  0  0  0
 23 24  1  0  0  0  0
 23 25  1  0  0  0  0
 24 26  1  0  0  0  0
 25 27  1  0  0  0  0
  8 10  1  0  0  0  0
 18 21  1  0  0  0  0
 20 22  1  0  0  0  0
 26 27  1  0  0  0  0
M  END
>  <MolRegNo>
1174334

>  <m>
=

>  <Value>
48000

>  <Unit>
nM

>  <Type>
IC50

>  <pValue>
4.32

>  <Ligand Efficiency>
0

>  <Binding Efficiency>
0

>  <Surface Efficiency>
0

>  <Assay Index>
609184

>  <Assay Category>


>  <Assay Organism>


>  <Target ID>
17045

>  <Target Name>
Cytochrome P450 3A4

>  <Target Organism>
Homo sapiens

>  <Target Description>
Target is a single protein chain

>  <Sequence Accession>
P08684

>  <Reference>
Bioorg Med Chem Lett 21 (18), 5384-5388 (2011)

>  <Pubmed ID>
21783360

>  <DOI>
10.1016/j.bmcl.2011.06.102

$$$$
1174333
Actelion Java MolfileCreator 1.0

 27 30  0  0  1  0  0  0  0  0999 V2000
    0.0000   -0.0000   -0.0000 O   0  0  0  0  0  0  0  0  0  0  0  0
    1.4953    0.0119   -0.0000 C   0  0  0  0  0  0  0  0  0  0  0  0
   -0.7595   -1.2936   -0.0000 C   0  0  0  0  0  0  0  0  0  0  0  0
    2.2311    1.3173   -0.0000 C   0  0  0  0  0  0  0  0  0  0  0  0
    2.2311   -1.2817   -0.0000 C   0  0  0  0  0  0  0  0  0  0  0  0
   -2.2786   -1.2817   -0.0000 C   0  0  0  0  0  0  0  0  0  0  0  0
    3.7265    1.3173   -0.0000 C   0  0  0  0  0  0  0  0  0  0  0  0
    3.7146   -1.2699   -0.0000 C   0  0  0  0  0  0  0  0  0  0  0  0
   -3.0381    0.0356   -0.0000 C   0  0  0  0  0  0  0  0  0  0  0  0
    4.4623    0.0237   -0.0000 C   0  0  0  0  0  0  0  0  0  0  0  0
   -4.5572    0.0475   -0.0000 N   0  0  0  0  0  0  0  0  0  0  0  0
    5.9576    0.0237   -0.0000 C   0  0  0  0  0  0  0  0  0  0  0  0
   -5.3168   -1.2342   -0.0000 C   0  0  0  0  0  0  0  0  0  0  0  0
   -5.3168    1.3648   -0.0000 C   0  0  0  0  0  0  0  0  0  0  0  0
    6.6934    1.3292   -0.0000 C   0  0  0  0  0  0  0  0  0  0  0  0
    6.6934   -1.2699   -0.0000 C   0  0  0  0  0  0  0  0  0  0  0  0
   -6.8358   -1.2224   -0.0000 C   0  0  0  0  0  0  0  0  0  0  0  0
   -6.8358    1.3767   -0.0000 C   0  0  0  0  0  0  0  0  0  0  0  0
    8.1888    1.3292   -0.0000 C   0  0  0  0  0  0  0  0  0  0  0  0
    8.1769   -1.2699   -0.0000 C   0  0  0  0  0  0  0  0  0  0  0  0
   -7.6072    0.0831   -0.0000 C   0  0  0  0  0  0  0  0  0  0  0  0
    8.9246    0.0356   -0.0000 C   0  0  0  0  0  0  0  0  0  0  0  0
   10.4199    0.0356   -0.0000 N   0  0  0  0  0  0  0  0  0  0  0  0
   11.2744   -1.1749   -0.0000 C   0  0  0  0  0  0  0  0  0  0  0  0
   11.2981    1.2580   -0.0000 C   0  0  0  0  0  0  0  0  0  0  0  0
   12.6985   -0.7121   -0.0000 C   0  0  0  0  0  0  0  0  0  0  0  0
   12.7104    0.7951   -0.0000 C   0  0  0  0  0  0  0  0  0  0  0  0
  1  2  1  0  0  0  0
  1  3  1  0  0  0  0
  2  4  2  0  0  0  0
  2  5  1  0  0  0  0
  3  6  1  0  0  0  0
  4  7  1  0  0  0  0
  5  8  2  0  0  0  0
  6  9  1  0  0  0  0
  7 10  2  0  0  0  0
  9 11  1  0  0  0  0
 12 10  1  6  0  0  0
 11 13  1  0  0  0  0
 11 14  1  0  0  0  0
 12 15  1  0  0  0  0
 12 16  1  0  0  0  0
 13 17  1  0  0  0  0
 14 18  1  0  0  0  0
 15 19  1  0  0  0  0
 16 20  1  0  0  0  0
 17 21  1  0  0  0  0
 19 22  1  0  0  0  0
 22 23  1  6  0  0  0
 23 24  1  0  0  0  0
 23 25  1  0  0  0  0
 24 26  1  0  0  0  0
 25 27  1  0  0  0  0
  8 10  1  0  0  0  0
 18 21  1  0  0  0  0
 20 22  1  0  0  0  0
 26 27  1  0  0  0  0
M  END
>  <MolRegNo>
1174333

>  <m>
=

>  <Value>
41700

>  <Unit>
nM

>  <Type>
IC50

>  <pValue>
4.38

>  <Ligand Efficiency>
0

>  <Binding Efficiency>
0

>  <Surface Efficiency>
0

>  <Assay Index>
609184

>  <Assay Category>


>  <Assay Organism>


>  <Target ID>
17045

>  <Target Name>
Cytochrome P450 3A4

>  <Target Organism>
Homo sapiens

>  <Target Description>
Target is a single protein chain

>  <Sequence Accession>
P08684

>  <Reference>
Bioorg Med Chem Lett 21 (18), 5384-5388 (2011)

>  <Pubmed ID>
21783360

>  <DOI>
10.1016/j.bmcl.2011.06.102

$$$$
1174330
Actelion Java MolfileCreator 1.0

 25 27  0  0  1  0  0  0  0  0999 V2000
    0.0000   -0.0000   -0.0000 O   0  0  0  0  0  0  0  0  0  0  0  0
    1.4950    0.0119   -0.0000 C   0  0  0  0  0  0  0  0  0  0  0  0
   -0.7594   -1.2933   -0.0000 C   0  0  0  0  0  0  0  0  0  0  0  0
    2.2306    1.3170   -0.0000 C   0  0  0  0  0  0  0  0  0  0  0  0
    2.2306   -1.2814   -0.0000 C   0  0  0  0  0  0  0  0  0  0  0  0
   -2.2781   -1.2814   -0.0000 C   0  0  0  0  0  0  0  0  0  0  0  0
    3.7256    1.3170   -0.0000 C   0  0  0  0  0  0  0  0  0  0  0  0
    3.7138   -1.2696   -0.0000 C   0  0  0  0  0  0  0  0  0  0  0  0
   -3.0375    0.0356   -0.0000 C   0  0  0  0  0  0  0  0  0  0  0  0
    4.4613    0.0237   -0.0000 C   0  0  0  0  0  0  0  0  0  0  0  0
   -4.5562    0.0475   -0.0000 N   0  0  0  0  0  0  0  0  0  0  0  0
    5.9563    0.0237   -0.0000 C   0  0  0  0  0  0  0  0  0  0  0  0
   -5.3156   -1.2340   -0.0000 C   0  0  0  0  0  0  0  0  0  0  0  0
   -5.3156    1.3645   -0.0000 C   0  0  0  0  0  0  0  0  0  0  0  0
    6.6919   -1.2696   -0.0000 C   0  0  0  0  0  0  0  0  0  0  0  0
    6.6919    1.3289   -0.0000 C   0  0  0  0  0  0  0  0  0  0  0  0
   -6.8343   -1.2221   -0.0000 C   0  0  0  0  0  0  0  0  0  0  0  0
   -6.8343    1.3764   -0.0000 C   0  0  0  0  0  0  0  0  0  0  0  0
    8.1751   -1.2696   -0.0000 C   0  0  0  0  0  0  0  0  0  0  0  0
    8.1869    1.3289   -0.0000 C   0  0  0  0  0  0  0  0  0  0  0  0
   -7.6055    0.0831   -0.0000 C   0  0  0  0  0  0  0  0  0  0  0  0
    8.9226    0.0356   -0.0000 C   0  0  0  0  0  0  0  0  0  0  0  0
   10.4176    0.0356   -0.0000 N   0  0  0  0  0  0  0  0  0  0  0  0
   11.1413   -1.2577   -0.0000 C   0  0  0  0  0  0  0  0  0  0  0  0
   11.1651    1.3408   -0.0000 C   0  0  0  0  0  0  0  0  0  0  0  0
  1  2  1  0  0  0  0
  1  3  1  0  0  0  0
  2  4  2  0  0  0  0
  2  5  1  0  0  0  0
  3  6  1  0  0  0  0
  4  7  1  0  0  0  0
  5  8  2  0  0  0  0
  6  9  1  0  0  0  0
  7 10  2  0  0  0  0
  9 11  1  0  0  0  0
 12 10  1  6  0  0  0
 11 13  1  0  0  0  0
 11 14  1  0  0  0  0
 12 15  1  0  0  0  0
 12 16  1  0  0  0  0
 13 17  1  0  0  0  0
 14 18  1  0  0  0  0
 15 19  1  0  0  0  0
 16 20  1  0  0  0  0
 17 21  1  0  0  0  0
 19 22  1  0  0  0  0
 22 23  1  1  0  0  0
 23 24  1  0  0  0  0
 23 25  1  0  0  0  0
  8 10  1  0  0  0  0
 18 21  1  0  0  0  0
 20 22  1  0  0  0  0
M  END
>  <MolRegNo>
1174330

>  <m>
=

>  <Value>
42600

>  <Unit>
nM

>  <Type>
IC50

>  <pValue>
4.37

>  <Ligand Efficiency>
0

>  <Binding Efficiency>
0

>  <Surface Efficiency>
0

>  <Assay Index>
609184

>  <Assay Category>


>  <Assay Organism>


>  <Target ID>
17045

>  <Target Name>
Cytochrome P450 3A4

>  <Target Organism>
Homo sapiens

>  <Target Description>
Target is a single protein chain

>  <Sequence Accession>
P08684

>  <Reference>
Bioorg Med Chem Lett 21 (18), 5384-5388 (2011)

>  <Pubmed ID>
21783360

>  <DOI>
10.1016/j.bmcl.2011.06.102

$$$$
1174329
Actelion Java MolfileCreator 1.0

 25 27  0  0  1  0  0  0  0  0999 V2000
    0.0000   -0.0000   -0.0000 O   0  0  0  0  0  0  0  0  0  0  0  0
    1.4950    0.0119   -0.0000 C   0  0  0  0  0  0  0  0  0  0  0  0
   -0.7594   -1.2933   -0.0000 C   0  0  0  0  0  0  0  0  0  0  0  0
    2.2306    1.3170   -0.0000 C   0  0  0  0  0  0  0  0  0  0  0  0
    2.2306   -1.2814   -0.0000 C   0  0  0  0  0  0  0  0  0  0  0  0
   -2.2781   -1.2814   -0.0000 C   0  0  0  0  0  0  0  0  0  0  0  0
    3.7256    1.3170   -0.0000 C   0  0  0  0  0  0  0  0  0  0  0  0
    3.7138   -1.2696   -0.0000 C   0  0  0  0  0  0  0  0  0  0  0  0
   -3.0375    0.0356   -0.0000 C   0  0  0  0  0  0  0  0  0  0  0  0
    4.4613    0.0237   -0.0000 C   0  0  0  0  0  0  0  0  0  0  0  0
   -4.5562    0.0475   -0.0000 N   0  0  0  0  0  0  0  0  0  0  0  0
    5.9563    0.0237   -0.0000 C   0  0  0  0  0  0  0  0  0  0  0  0
   -5.3156   -1.2340   -0.0000 C   0  0  0  0  0  0  0  0  0  0  0  0
   -5.3156    1.3645   -0.0000 C   0  0  0  0  0  0  0  0  0  0  0  0
    6.6919    1.3289   -0.0000 C   0  0  0  0  0  0  0  0  0  0  0  0
    6.6919   -1.2696   -0.0000 C   0  0  0  0  0  0  0  0  0  0  0  0
   -6.8343   -1.2221   -0.0000 C   0  0  0  0  0  0  0  0  0  0  0  0
   -6.8343    1.3764   -0.0000 C   0  0  0  0  0  0  0  0  0  0  0  0
    8.1869    1.3289   -0.0000 C   0  0  0  0  0  0  0  0  0  0  0  0
    8.1751   -1.2696   -0.0000 C   0  0  0  0  0  0  0  0  0  0  0  0
   -7.6055    0.0831   -0.0000 C   0  0  0  0  0  0  0  0  0  0  0  0
    8.9226    0.0356   -0.0000 C   0  0  0  0  0  0  0  0  0  0  0  0
   10.4176    0.0356   -0.0000 N   0  0  0  0  0  0  0  0  0  0  0  0
   11.1413   -1.2577   -0.0000 C   0  0  0  0  0  0  0  0  0  0  0  0
   11.1651    1.3408   -0.0000 C   0  0  0  0  0  0  0  0  0  0  0  0
  1  2  1  0  0  0  0
  1  3  1  0  0  0  0
  2  4  2  0  0  0  0
  2  5  1  0  0  0  0
  3  6  1  0  0  0  0
  4  7  1  0  0  0  0
  5  8  2  0  0  0  0
  6  9  1  0  0  0  0
  7 10  2  0  0  0  0
  9 11  1  0  0  0  0
 12 10  1  6  0  0  0
 11 13  1  0  0  0  0
 11 14  1  0  0  0  0
 12 15  1  0  0  0  0
 12 16  1  0  0  0  0
 13 17  1  0  0  0  0
 14 18  1  0  0  0  0
 15 19  1  0  0  0  0
 16 20  1  0  0  0  0
 17 21  1  0  0  0  0
 19 22  1  0  0  0  0
 22 23  1  6  0  0  0
 23 24  1  0  0  0  0
 23 25  1  0  0  0  0
  8 10  1  0  0  0  0
 18 21  1  0  0  0  0
 20 22  1  0  0  0  0
M  END
>  <MolRegNo>
1174329

>  <m>
=

>  <Value>
50000

>  <Unit>
nM

>  <Type>
IC50

>  <pValue>
4.3

>  <Ligand Efficiency>
0

>  <Binding Efficiency>
0

>  <Surface Efficiency>
0

>  <Assay Index>
609184

>  <Assay Category>


>  <Assay Organism>


>  <Target ID>
17045

>  <Target Name>
Cytochrome P450 3A4

>  <Target Organism>
Homo sapiens

>  <Target Description>
Target is a single protein chain

>  <Sequence Accession>
P08684

>  <Reference>
Bioorg Med Chem Lett 21 (18), 5384-5388 (2011)

>  <Pubmed ID>
21783360

>  <DOI>
10.1016/j.bmcl.2011.06.102

$$$$
1176467
Actelion Java MolfileCreator 1.0

 32 35  0  0  1  0  0  0  0  0999 V2000
    0.0000   -0.0000   -0.0000 F   0  0  0  0  0  0  0  0  0  0  0  0
   -0.0121    1.2477   -0.0000 C   0  0  0  0  0  0  0  0  0  0  0  0
   -1.3568    2.0230   -0.0000 C   0  0  0  0  0  0  0  0  0  0  0  0
    1.3083    2.0352   -0.0000 C   0  0  0  0  0  0  0  0  0  0  0  0
   -1.3810    3.5736   -0.0000 C   0  0  0  0  0  0  0  0  0  0  0  0
    1.2841    3.5858   -0.0000 C   0  0  0  0  0  0  0  0  0  0  0  0
   -0.0606    4.3611   -0.0000 C   0  0  0  0  0  0  0  0  0  0  0  0
   -0.0727    5.9117   -0.0000 C   0  0  0  0  0  0  0  0  0  0  0  0
   -1.4173    6.6870   -0.0000 C   0  0  0  0  0  0  0  0  0  0  0  0
    1.2477    6.6991   -0.0000 C   0  0  0  0  0  0  0  0  0  0  0  0
   -1.4295    8.2376   -0.0000 C   0  0  0  0  0  0  0  0  0  0  0  0
    1.2356    8.2497   -0.0000 C   0  0  0  0  0  0  0  0  0  0  0  0
   -0.1090    9.0250   -0.0000 C   0  0  0  0  0  0  0  0  0  0  0  0
   -0.1211   10.5756   -0.0000 C   0  0  0  0  0  0  0  0  0  0  0  0
   -1.4658   11.3509   -0.0000 N   0  0  0  0  0  0  0  0  0  0  0  0
    0.9328   11.2055   -0.0000 C   0  0  0  0  0  0  0  0  0  0  0  0
   -2.8105   10.5998   -0.0000 C   0  0  0  0  0  0  0  0  0  0  0  0
   -1.4779   12.9015   -0.0000 C   0  0  0  0  0  0  0  0  0  0  0  0
   -2.8226    9.3763   -0.0000 O   0  0  0  0  0  0  0  0  0  0  0  0
   -4.1551   11.3751   -0.0000 O   0  0  0  0  0  0  0  0  0  0  0  0
   -2.8226   13.6768   -0.0000 C   0  0  0  0  0  0  0  0  0  0  0  0
   -4.1672   12.9257   -0.0000 C   0  0  0  0  0  0  0  0  0  0  0  0
   -5.4756   12.1504   -0.0000 C   0  0  0  0  0  0  0  0  0  0  0  0
   -4.1430   14.4521   -0.0000 C   0  0  0  0  0  0  0  0  0  0  0  0
   -5.4513   10.6240   -0.0000 C   0  0  0  0  0  0  0  0  0  0  0  0
   -6.8323   12.9015   -0.0000 C   0  0  0  0  0  0  0  0  0  0  0  0
   -2.8226   15.2395   -0.0000 C   0  0  0  0  0  0  0  0  0  0  0  0
   -6.7718    9.8366   -0.0000 C   0  0  0  0  0  0  0  0  0  0  0  0
   -8.1528   12.1141   -0.0000 C   0  0  0  0  0  0  0  0  0  0  0  0
   -2.8347   16.4872   -0.0000 O   0  0  0  0  0  0  0  0  0  0  0  0
   -8.1285   10.5877   -0.0000 C   0  0  0  0  0  0  0  0  0  0  0  0
   -9.1946    9.9578   -0.0000 F   0  0  0  0  0  0  0  0  0  0  0  0
  1  2  1  0  0  0  0
  2  3  2  0  0  0  0
  2  4  1  0  0  0  0
  3  5  1  0  0  0  0
  4  6  2  0  0  0  0
  5  7  2  0  0  0  0
  7  8  1  0  0  0  0
  8  9  2  0  0  0  0
  8 10  1  0  0  0  0
  9 11  1  0  0  0  0
 10 12  2  0  0  0  0
 11 13  2  0  0  0  0
 13 14  1  0  0  0  0
 14 15  1  1  0  0  0
 14 16  1  0  0  0  0
 15 17  1  0  0  0  0
 15 18  1  0  0  0  0
 17 19  2  0  0  0  0
 17 20  1  0  0  0  0
 18 21  1  0  0  0  0
 22 20  1  6  0  0  0
 22 23  1  0  0  0  0
 22 24  1  0  0  0  0
 23 25  2  0  0  0  0
 23 26  1  0  0  0  0
 24 27  1  0  0  0  0
 25 28  1  0  0  0  0
 26 29  2  0  0  0  0
 27 30  1  0  0  0  0
 28 31  2  0  0  0  0
 31 32  1  0  0  0  0
  6  7  1  0  0  0  0
 12 13  1  0  0  0  0
 21 22  1  0  0  0  0
 29 31  1  0  0  0  0
M  END
>  <MolRegNo>
1176467

>  <m>
=

>  <Value>
21000

>  <Unit>
nM

>  <Type>
IC50

>  <pValue>
4.68

>  <Ligand Efficiency>
0

>  <Binding Efficiency>
0

>  <Surface Efficiency>
0

>  <Assay Index>
611448

>  <Assay Category>


>  <Assay Organism>
Homo sapiens

>  <Target ID>
17045

>  <Target Name>
Cytochrome P450 3A4

>  <Target Organism>
Homo sapiens

>  <Target Description>
Target is a single protein chain

>  <Sequence Accession>
P08684

>  <Reference>
J Med Chem 54 (17), 6050-6062 (2011)

>  <Pubmed ID>
21786805

>  <DOI>
10.1021/jm2005354

$$$$
1176458
Actelion Java MolfileCreator 1.0

 33 36  0  0  1  0  0  0  0  0999 V2000
    0.0000   -0.0000   -0.0000 F   0  0  0  0  0  0  0  0  0  0  0  0
    1.0566   -0.5951   -0.0000 C   0  0  0  0  0  0  0  0  0  0  0  0
    2.3804    0.1943   -0.0000 C   0  0  0  0  0  0  0  0  0  0  0  0
    1.0566   -2.1254   -0.0000 C   0  0  0  0  0  0  0  0  0  0  0  0
    2.3683    1.7489   -0.0000 C   0  0  0  0  0  0  0  0  0  0  0  0
    3.7042   -0.5587   -0.0000 C   0  0  0  0  0  0  0  0  0  0  0  0
    2.3804   -2.8783   -0.0000 C   0  0  0  0  0  0  0  0  0  0  0  0
    1.0202    2.5261   -0.0000 C   0  0  0  0  0  0  0  0  0  0  0  0
    3.6921    2.5383   -0.0000 C   0  0  0  0  0  0  0  0  0  0  0  0
    3.7042   -2.0889   -0.0000 C   0  0  0  0  0  0  0  0  0  0  0  0
    2.3683   -4.1050   -0.0000 F   0  0  0  0  0  0  0  0  0  0  0  0
    1.0080    4.0807   -0.0000 C   0  0  0  0  0  0  0  0  0  0  0  0
    3.6799    4.0928   -0.0000 C   0  0  0  0  0  0  0  0  0  0  0  0
    2.3318    4.8701   -0.0000 C   0  0  0  0  0  0  0  0  0  0  0  0
    2.3197    6.4247   -0.0000 C   0  0  0  0  0  0  0  0  0  0  0  0
    0.9716    7.2019   -0.0000 N   0  0  0  0  0  0  0  0  0  0  0  0
    3.3763    7.0562   -0.0000 C   0  0  0  0  0  0  0  0  0  0  0  0
   -0.3765    6.4489   -0.0000 C   0  0  0  0  0  0  0  0  0  0  0  0
    0.9594    8.7565   -0.0000 C   0  0  0  0  0  0  0  0  0  0  0  0
   -0.3886    5.2223   -0.0000 O   0  0  0  0  0  0  0  0  0  0  0  0
   -1.7246    7.2262   -0.0000 O   0  0  0  0  0  0  0  0  0  0  0  0
   -0.3886    9.5338   -0.0000 C   0  0  0  0  0  0  0  0  0  0  0  0
   -1.7367    8.7808   -0.0000 C   0  0  0  0  0  0  0  0  0  0  0  0
   -3.0484    8.0035   -0.0000 C   0  0  0  0  0  0  0  0  0  0  0  0
   -1.7124   10.3110   -0.0000 C   0  0  0  0  0  0  0  0  0  0  0  0
   -3.0241    6.4732   -0.0000 C   0  0  0  0  0  0  0  0  0  0  0  0
   -4.4086    8.7565   -0.0000 C   0  0  0  0  0  0  0  0  0  0  0  0
   -0.3886   11.1004   -0.0000 C   0  0  0  0  0  0  0  0  0  0  0  0
   -4.3479    5.6838   -0.0000 C   0  0  0  0  0  0  0  0  0  0  0  0
   -5.7324    7.9671   -0.0000 C   0  0  0  0  0  0  0  0  0  0  0  0
   -0.4008   12.6550   -0.0000 C   0  0  0  0  0  0  0  0  0  0  0  0
   -5.7081    6.4368   -0.0000 C   0  0  0  0  0  0  0  0  0  0  0  0
    0.6558   13.2865   -0.0000 O   0  0  0  0  0  0  0  0  0  0  0  0
  1  2  1  0  0  0  0
  2  3  2  0  0  0  0
  2  4  1  0  0  0  0
  3  5  1  0  0  0  0
  3  6  1  0  0  0  0
  4  7  2  0  0  0  0
  5  8  2  0  0  0  0
  5  9  1  0  0  0  0
  6 10  2  0  0  0  0
  7 11  1  0  0  0  0
  8 12  1  0  0  0  0
  9 13  2  0  0  0  0
 12 14  2  0  0  0  0
 14 15  1  0  0  0  0
 15 16  1  1  0  0  0
 15 17  1  0  0  0  0
 16 18  1  0  0  0  0
 16 19  1  0  0  0  0
 18 20  2  0  0  0  0
 18 21  1  0  0  0  0
 19 22  1  0  0  0  0
 23 21  1  6  0  0  0
 23 24  1  0  0  0  0
 23 25  1  0  0  0  0
 24 26  2  0  0  0  0
 24 27  1  0  0  0  0
 25 28  1  0  0  0  0
 26 29  1  0  0  0  0
 27 30  2  0  0  0  0
 28 31  1  0  0  0  0
 29 32  2  0  0  0  0
 31 33  1  0  0  0  0
  7 10  1  0  0  0  0
 13 14  1  0  0  0  0
 22 23  1  0  0  0  0
 30 32  1  0  0  0  0
M  END
>  <MolRegNo>
1176458

>  <m>
=

>  <Value>
14000

>  <Unit>
nM

>  <Type>
IC50

>  <pValue>
4.85

>  <Ligand Efficiency>
0

>  <Binding Efficiency>
0

>  <Surface Efficiency>
0

>  <Assay Index>
611448

>  <Assay Category>


>  <Assay Organism>
Homo sapiens

>  <Target ID>
17045

>  <Target Name>
Cytochrome P450 3A4

>  <Target Organism>
Homo sapiens

>  <Target Description>
Target is a single protein chain

>  <Sequence Accession>
P08684

>  <Reference>
J Med Chem 54 (17), 6050-6062 (2011)

>  <Pubmed ID>
21786805

>  <DOI>
10.1021/jm2005354

$$$$
1176475
Actelion Java MolfileCreator 1.0

 37 40  0  0  0  0  0  0  0  0999 V2000
    0.0000   -0.0000   -0.0000 S   0  0  0  0  0  0  0  0  0  0  0  0
   -0.7788    1.3179   -0.0000 O   0  0  0  0  0  0  0  0  0  0  0  0
   -1.4737   -0.3714   -0.0000 O   0  0  0  0  0  0  0  0  0  0  0  0
    1.2820    0.7668   -0.0000 N   0  0  0  0  0  0  0  0  0  0  0  0
   -0.0120   -1.4856   -0.0000 N   0  0  0  0  0  0  0  0  0  0  0  0
    1.2700    2.2764   -0.0000 C   0  0  0  0  0  0  0  0  0  0  0  0
   -0.0479    3.0312   -0.0000 C   0  0  0  0  0  0  0  0  0  0  0  0
   -0.0599    4.5528   -0.0000 C   0  0  0  0  0  0  0  0  0  0  0  0
   -0.0839    6.0743   -0.0000 O   0  0  0  0  0  0  0  0  0  0  0  0
   -1.5575    4.5528   -0.0000 C   0  0  0  0  0  0  0  0  0  0  0  0
    1.2221    3.8099   -0.0000 C   0  0  0  0  0  0  0  0  0  0  0  0
    1.2101    6.8411   -0.0000 C   0  0  0  0  0  0  0  0  0  0  0  0
   -2.3003    3.2828   -0.0000 C   0  0  0  0  0  0  0  0  0  0  0  0
   -2.3243    5.8707   -0.0000 C   0  0  0  0  0  0  0  0  0  0  0  0
    2.5040    4.5767   -0.0000 C   0  0  0  0  0  0  0  0  0  0  0  0
    1.2221    8.3627   -0.0000 O   0  0  0  0  0  0  0  0  0  0  0  0
    2.4801    6.1223   -0.0000 N   0  0  0  0  0  0  0  0  0  0  0  0
   -3.8339    3.2708   -0.0000 C   0  0  0  0  0  0  0  0  0  0  0  0
   -3.8339    5.8707   -0.0000 C   0  0  0  0  0  0  0  0  0  0  0  0
    3.7740    6.8890   -0.0000 C   0  0  0  0  0  0  0  0  0  0  0  0
   -4.5887    4.5767   -0.0000 C   0  0  0  0  0  0  0  0  0  0  0  0
    5.0679    6.1582   -0.0000 C   0  0  0  0  0  0  0  0  0  0  0  0
    3.7620    8.3986   -0.0000 C   0  0  0  0  0  0  0  0  0  0  0  0
   -6.0983    4.5767   -0.0000 F   0  0  0  0  0  0  0  0  0  0  0  0
    5.0440    4.6726   -0.0000 C   0  0  0  0  0  0  0  0  0  0  0  0
    6.3379    6.9250   -0.0000 C   0  0  0  0  0  0  0  0  0  0  0  0
    6.3259    3.9417   -0.0000 C   0  0  0  0  0  0  0  0  0  0  0  0
    7.6319    6.1941   -0.0000 C   0  0  0  0  0  0  0  0  0  0  0  0
    7.6199    4.7085   -0.0000 C   0  0  0  0  0  0  0  0  0  0  0  0
    8.9018    3.9777   -0.0000 C   0  0  0  0  0  0  0  0  0  0  0  0
   10.1838    4.7444   -0.0000 C   0  0  0  0  0  0  0  0  0  0  0  0
    8.8898    2.4920   -0.0000 C   0  0  0  0  0  0  0  0  0  0  0  0
   10.1598    6.2540   -0.0000 F   0  0  0  0  0  0  0  0  0  0  0  0
   11.4777    4.0136   -0.0000 C   0  0  0  0  0  0  0  0  0  0  0  0
   10.1838    1.7612   -0.0000 C   0  0  0  0  0  0  0  0  0  0  0  0
   11.4777    2.5160   -0.0000 C   0  0  0  0  0  0  0  0  0  0  0  0
   12.7717    1.7852   -0.0000 F   0  0  0  0  0  0  0  0  0  0  0  0
  1  2  2  0  0  0  0
  1  3  2  0  0  0  0
  1  4  1  0  0  0  0
  1  5  1  0  0  0  0
  4  6  1  0  0  0  0
  6  7  1  0  0  0  0
  8  7  1  6  0  0  0
  8  9  1  0  0  0  0
  8 10  1  0  0  0  0
  8 11  1  0  0  0  0
  9 12  1  0  0  0  0
 10 13  2  0  0  0  0
 10 14  1  0  0  0  0
 11 15  1  0  0  0  0
 12 16  2  0  0  0  0
 12 17  1  0  0  0  0
 13 18  1  0  0  0  0
 14 19  2  0  0  0  0
 20 17  1  6  0  0  0
 18 21  2  0  0  0  0
 20 22  1  0  0  0  0
 20 23  1  0  0  0  0
 21 24  1  0  0  0  0
 22 25  2  0  0  0  0
 22 26  1  0  0  0  0
 25 27  1  0  0  0  0
 26 28  2  0  0  0  0
 27 29  2  0  0  0  0
 29 30  1  0  0  0  0
 30 31  2  0  0  0  0
 30 32  1  0  0  0  0
 31 33  1  0  0  0  0
 31 34  1  0  0  0  0
 32 35  2  0  0  0  0
 34 36  2  0  0  0  0
 36 37  1  0  0  0  0
 15 17  1  0  0  0  0
 19 21  1  0  0  0  0
 28 29  1  0  0  0  0
 35 36  1  0  0  0  0
M  END
>  <MolRegNo>
1176475

>  <m>
=

>  <Value>
12000

>  <Unit>
nM

>  <Type>
IC50

>  <pValue>
4.92

>  <Ligand Efficiency>
0

>  <Binding Efficiency>
0

>  <Surface Efficiency>
0

>  <Assay Index>
611448

>  <Assay Category>


>  <Assay Organism>
Homo sapiens

>  <Target ID>
17045

>  <Target Name>
Cytochrome P450 3A4

>  <Target Organism>
Homo sapiens

>  <Target Description>
Target is a single protein chain

>  <Sequence Accession>
P08684

>  <Reference>
J Med Chem 54 (17), 6050-6062 (2011)

>  <Pubmed ID>
21786805

>  <DOI>
10.1021/jm2005354

$$$$
1176462
Actelion Java MolfileCreator 1.0

 33 36  0  0  1  0  0  0  0  0999 V2000
    0.0000   -0.0000   -0.0000 F   0  0  0  0  0  0  0  0  0  0  0  0
    1.0624   -0.5983   -0.0000 C   0  0  0  0  0  0  0  0  0  0  0  0
    2.3934    0.1954   -0.0000 C   0  0  0  0  0  0  0  0  0  0  0  0
    1.0624   -2.1370   -0.0000 C   0  0  0  0  0  0  0  0  0  0  0  0
    2.3812    1.7584   -0.0000 C   0  0  0  0  0  0  0  0  0  0  0  0
    3.7244   -0.5617   -0.0000 C   0  0  0  0  0  0  0  0  0  0  0  0
    2.3934   -2.8941   -0.0000 C   0  0  0  0  0  0  0  0  0  0  0  0
    1.0257    2.5399   -0.0000 C   0  0  0  0  0  0  0  0  0  0  0  0
    3.7122    2.5521   -0.0000 C   0  0  0  0  0  0  0  0  0  0  0  0
    3.7244   -2.1003   -0.0000 C   0  0  0  0  0  0  0  0  0  0  0  0
    2.3812   -4.1274   -0.0000 F   0  0  0  0  0  0  0  0  0  0  0  0
    1.0135    4.1030   -0.0000 C   0  0  0  0  0  0  0  0  0  0  0  0
    3.7000    4.1152   -0.0000 C   0  0  0  0  0  0  0  0  0  0  0  0
    2.3446    4.8967   -0.0000 C   0  0  0  0  0  0  0  0  0  0  0  0
    2.3323    6.4597   -0.0000 C   0  0  0  0  0  0  0  0  0  0  0  0
    0.9769    7.2412   -0.0000 N   0  0  0  0  0  0  0  0  0  0  0  0
    3.3947    7.0947   -0.0000 C   0  0  0  0  0  0  0  0  0  0  0  0
   -0.3785    6.4841   -0.0000 C   0  0  0  0  0  0  0  0  0  0  0  0
    0.9647    8.8043   -0.0000 C   0  0  0  0  0  0  0  0  0  0  0  0
   -0.3908    5.2508   -0.0000 O   0  0  0  0  0  0  0  0  0  0  0  0
   -1.7340    7.2657   -0.0000 O   0  0  0  0  0  0  0  0  0  0  0  0
   -0.3908    9.5858   -0.0000 C   0  0  0  0  0  0  0  0  0  0  0  0
   -1.7462    8.8287   -0.0000 C   0  0  0  0  0  0  0  0  0  0  0  0
   -3.0650    8.0472   -0.0000 C   0  0  0  0  0  0  0  0  0  0  0  0
   -1.7218   10.3673   -0.0000 C   0  0  0  0  0  0  0  0  0  0  0  0
   -3.0406    6.5086   -0.0000 C   0  0  0  0  0  0  0  0  0  0  0  0
   -4.4327    8.8043   -0.0000 C   0  0  0  0  0  0  0  0  0  0  0  0
   -0.3908   11.1610   -0.0000 C   0  0  0  0  0  0  0  0  0  0  0  0
   -4.3716    5.7148   -0.0000 C   0  0  0  0  0  0  0  0  0  0  0  0
   -5.7637    8.0105   -0.0000 C   0  0  0  0  0  0  0  0  0  0  0  0
   -0.4030   12.4188   -0.0000 O   0  0  0  0  0  0  0  0  0  0  0  0
   -5.7393    6.4719   -0.0000 C   0  0  0  0  0  0  0  0  0  0  0  0
   -6.8139    5.8370   -0.0000 F   0  0  0  0  0  0  0  0  0  0  0  0
  1  2  1  0  0  0  0
  2  3  2  0  0  0  0
  2  4  1  0  0  0  0
  3  5  1  0  0  0  0
  3  6  1  0  0  0  0
  4  7  2  0  0  0  0
  5  8  2  0  0  0  0
  5  9  1  0  0  0  0
  6 10  2  0  0  0  0
  7 11  1  0  0  0  0
  8 12  1  0  0  0  0
  9 13  2  0  0  0  0
 12 14  2  0  0  0  0
 14 15  1  0  0  0  0
 15 16  1  1  0  0  0
 15 17  1  0  0  0  0
 16 18  1  0  0  0  0
 16 19  1  0  0  0  0
 18 20  2  0  0  0  0
 18 21  1  0  0  0  0
 19 22  1  0  0  0  0
 23 21  1  6  0  0  0
 23 24  1  0  0  0  0
 23 25  1  0  0  0  0
 24 26  2  0  0  0  0
 24 27  1  0  0  0  0
 25 28  1  0  0  0  0
 26 29  1  0  0  0  0
 27 30  2  0  0  0  0
 28 31  1  0  0  0  0
 29 32  2  0  0  0  0
 32 33  1  0  0  0  0
  7 10  1  0  0  0  0
 13 14  1  0  0  0  0
 22 23  1  0  0  0  0
 30 32  1  0  0  0  0
M  END
>  <MolRegNo>
1176462

>  <m>
=

>  <Value>
12000

>  <Unit>
nM

>  <Type>
IC50

>  <pValue>
4.92

>  <Ligand Efficiency>
0

>  <Binding Efficiency>
0

>  <Surface Efficiency>
0

>  <Assay Index>
611448

>  <Assay Category>


>  <Assay Organism>
Homo sapiens

>  <Target ID>
17045

>  <Target Name>
Cytochrome P450 3A4

>  <Target Organism>
Homo sapiens

>  <Target Description>
Target is a single protein chain

>  <Sequence Accession>
P08684

>  <Reference>
J Med Chem 54 (17), 6050-6062 (2011)

>  <Pubmed ID>
21786805

>  <DOI>
10.1021/jm2005354

$$$$
1176460
Actelion Java MolfileCreator 1.0

 32 35  0  0  1  0  0  0  0  0999 V2000
    0.0000   -0.0000   -0.0000 F   0  0  0  0  0  0  0  0  0  0  0  0
   -0.0120    1.2408   -0.0000 C   0  0  0  0  0  0  0  0  0  0  0  0
   -1.3493    2.0118   -0.0000 C   0  0  0  0  0  0  0  0  0  0  0  0
    1.3011    2.0239   -0.0000 C   0  0  0  0  0  0  0  0  0  0  0  0
   -1.3734    3.5539   -0.0000 C   0  0  0  0  0  0  0  0  0  0  0  0
    1.2770    3.5659   -0.0000 C   0  0  0  0  0  0  0  0  0  0  0  0
   -0.0602    4.3369   -0.0000 C   0  0  0  0  0  0  0  0  0  0  0  0
   -0.0723    5.8789   -0.0000 C   0  0  0  0  0  0  0  0  0  0  0  0
   -1.4095    6.6499   -0.0000 C   0  0  0  0  0  0  0  0  0  0  0  0
    1.2408    6.6620   -0.0000 C   0  0  0  0  0  0  0  0  0  0  0  0
   -1.4215    8.1919   -0.0000 C   0  0  0  0  0  0  0  0  0  0  0  0
    1.2288    8.2040   -0.0000 C   0  0  0  0  0  0  0  0  0  0  0  0
   -0.1084    8.9750   -0.0000 C   0  0  0  0  0  0  0  0  0  0  0  0
   -0.1205   10.5170   -0.0000 C   0  0  0  0  0  0  0  0  0  0  0  0
   -1.4577   11.2880   -0.0000 N   0  0  0  0  0  0  0  0  0  0  0  0
    0.9276   11.1434   -0.0000 C   0  0  0  0  0  0  0  0  0  0  0  0
   -2.7949   10.5411   -0.0000 C   0  0  0  0  0  0  0  0  0  0  0  0
   -1.4697   12.8300   -0.0000 C   0  0  0  0  0  0  0  0  0  0  0  0
   -2.8069    9.3243   -0.0000 O   0  0  0  0  0  0  0  0  0  0  0  0
   -4.1321   11.3121   -0.0000 O   0  0  0  0  0  0  0  0  0  0  0  0
   -2.8069   13.6010   -0.0000 C   0  0  0  0  0  0  0  0  0  0  0  0
   -4.1442   12.8541   -0.0000 C   0  0  0  0  0  0  0  0  0  0  0  0
   -5.4452   12.0831   -0.0000 C   0  0  0  0  0  0  0  0  0  0  0  0
   -4.1201   14.3720   -0.0000 C   0  0  0  0  0  0  0  0  0  0  0  0
   -5.4211   10.5652   -0.0000 C   0  0  0  0  0  0  0  0  0  0  0  0
   -6.7945   12.8300   -0.0000 C   0  0  0  0  0  0  0  0  0  0  0  0
   -2.8069   15.1551   -0.0000 C   0  0  0  0  0  0  0  0  0  0  0  0
   -6.7342    9.7821   -0.0000 C   0  0  0  0  0  0  0  0  0  0  0  0
   -8.1076   12.0470   -0.0000 C   0  0  0  0  0  0  0  0  0  0  0  0
   -2.8190   16.6971   -0.0000 C   0  0  0  0  0  0  0  0  0  0  0  0
   -8.0835   10.5290   -0.0000 C   0  0  0  0  0  0  0  0  0  0  0  0
   -1.7709   17.3235   -0.0000 O   0  0  0  0  0  0  0  0  0  0  0  0
  1  2  1  0  0  0  0
  2  3  2  0  0  0  0
  2  4  1  0  0  0  0
  3  5  1  0  0  0  0
  4  6  2  0  0  0  0
  5  7  2  0  0  0  0
  7  8  1  0  0  0  0
  8  9  2  0  0  0  0
  8 10  1  0  0  0  0
  9 11  1  0  0  0  0
 10 12  2  0  0  0  0
 11 13  2  0  0  0  0
 13 14  1  0  0  0  0
 14 15  1  1  0  0  0
 14 16  1  0  0  0  0
 15 17  1  0  0  0  0
 15 18  1  0  0  0  0
 17 19  2  0  0  0  0
 17 20  1  0  0  0  0
 18 21  1  0  0  0  0
 22 20  1  6  0  0  0
 22 23  1  0  0  0  0
 22 24  1  0  0  0  0
 23 25  2  0  0  0  0
 23 26  1  0  0  0  0
 24 27  1  0  0  0  0
 25 28  1  0  0  0  0
 26 29  2  0  0  0  0
 27 30  1  0  0  0  0
 28 31  2  0  0  0  0
 30 32  1  0  0  0  0
  6  7  1  0  0  0  0
 12 13  1  0  0  0  0
 21 22  1  0  0  0  0
 29 31  1  0  0  0  0
M  END
>  <MolRegNo>
1176460

>  <m>
=

>  <Value>
11000

>  <Unit>
nM

>  <Type>
IC50

>  <pValue>
4.96

>  <Ligand Efficiency>
0

>  <Binding Efficiency>
0

>  <Surface Efficiency>
0

>  <Assay Index>
611448

>  <Assay Category>


>  <Assay Organism>
Homo sapiens

>  <Target ID>
17045

>  <Target Name>
Cytochrome P450 3A4

>  <Target Organism>
Homo sapiens

>  <Target Description>
Target is a single protein chain

>  <Sequence Accession>
P08684

>  <Reference>
J Med Chem 54 (17), 6050-6062 (2011)

>  <Pubmed ID>
21786805

>  <DOI>
10.1021/jm2005354

$$$$
1176474
Actelion Java MolfileCreator 1.0

 37 40  0  0  0  0  0  0  0  0999 V2000
    0.0000   -0.0000   -0.0000 S   0  0  0  0  0  0  0  0  0  0  0  0
   -0.7788    1.3179   -0.0000 O   0  0  0  0  0  0  0  0  0  0  0  0
   -1.4737   -0.3714   -0.0000 O   0  0  0  0  0  0  0  0  0  0  0  0
    1.2820    0.7668   -0.0000 N   0  0  0  0  0  0  0  0  0  0  0  0
   -0.0120   -1.4856   -0.0000 C   0  0  0  0  0  0  0  0  0  0  0  0
    1.2700    2.2764   -0.0000 C   0  0  0  0  0  0  0  0  0  0  0  0
   -0.0479    3.0312   -0.0000 C   0  0  0  0  0  0  0  0  0  0  0  0
   -0.0599    4.5528   -0.0000 C   0  0  0  0  0  0  0  0  0  0  0  0
   -0.0839    6.0743   -0.0000 O   0  0  0  0  0  0  0  0  0  0  0  0
   -1.5575    4.5528   -0.0000 C   0  0  0  0  0  0  0  0  0  0  0  0
    1.2221    3.8099   -0.0000 C   0  0  0  0  0  0  0  0  0  0  0  0
    1.2101    6.8411   -0.0000 C   0  0  0  0  0  0  0  0  0  0  0  0
   -2.3003    3.2828   -0.0000 C   0  0  0  0  0  0  0  0  0  0  0  0
   -2.3243    5.8707   -0.0000 C   0  0  0  0  0  0  0  0  0  0  0  0
    2.5040    4.5767   -0.0000 C   0  0  0  0  0  0  0  0  0  0  0  0
    1.2221    8.3627   -0.0000 O   0  0  0  0  0  0  0  0  0  0  0  0
    2.4801    6.1223   -0.0000 N   0  0  0  0  0  0  0  0  0  0  0  0
   -3.8339    3.2708   -0.0000 C   0  0  0  0  0  0  0  0  0  0  0  0
   -3.8339    5.8707   -0.0000 C   0  0  0  0  0  0  0  0  0  0  0  0
    3.7740    6.8890   -0.0000 C   0  0  0  0  0  0  0  0  0  0  0  0
   -4.5887    4.5767   -0.0000 C   0  0  0  0  0  0  0  0  0  0  0  0
    5.0679    6.1582   -0.0000 C   0  0  0  0  0  0  0  0  0  0  0  0
    3.7620    8.3986   -0.0000 C   0  0  0  0  0  0  0  0  0  0  0  0
   -6.0983    4.5767   -0.0000 F   0  0  0  0  0  0  0  0  0  0  0  0
    5.0440    4.6726   -0.0000 C   0  0  0  0  0  0  0  0  0  0  0  0
    6.3379    6.9250   -0.0000 C   0  0  0  0  0  0  0  0  0  0  0  0
    6.3259    3.9417   -0.0000 C   0  0  0  0  0  0  0  0  0  0  0  0
    7.6319    6.1941   -0.0000 C   0  0  0  0  0  0  0  0  0  0  0  0
    7.6199    4.7085   -0.0000 C   0  0  0  0  0  0  0  0  0  0  0  0
    8.9018    3.9777   -0.0000 C   0  0  0  0  0  0  0  0  0  0  0  0
   10.1838    4.7444   -0.0000 C   0  0  0  0  0  0  0  0  0  0  0  0
    8.8898    2.4920   -0.0000 C   0  0  0  0  0  0  0  0  0  0  0  0
   10.1598    6.2540   -0.0000 F   0  0  0  0  0  0  0  0  0  0  0  0
   11.4777    4.0136   -0.0000 C   0  0  0  0  0  0  0  0  0  0  0  0
   10.1838    1.7612   -0.0000 C   0  0  0  0  0  0  0  0  0  0  0  0
   11.4777    2.5160   -0.0000 C   0  0  0  0  0  0  0  0  0  0  0  0
   12.7717    1.7852   -0.0000 F   0  0  0  0  0  0  0  0  0  0  0  0
  1  2  2  0  0  0  0
  1  3  2  0  0  0  0
  1  4  1  0  0  0  0
  1  5  1  0  0  0  0
  4  6  1  0  0  0  0
  6  7  1  0  0  0  0
  8  7  1  6  0  0  0
  8  9  1  0  0  0  0
  8 10  1  0  0  0  0
  8 11  1  0  0  0  0
  9 12  1  0  0  0  0
 10 13  2  0  0  0  0
 10 14  1  0  0  0  0
 11 15  1  0  0  0  0
 12 16  2  0  0  0  0
 12 17  1  0  0  0  0
 13 18  1  0  0  0  0
 14 19  2  0  0  0  0
 20 17  1  6  0  0  0
 18 21  2  0  0  0  0
 20 22  1  0  0  0  0
 20 23  1  0  0  0  0
 21 24  1  0  0  0  0
 22 25  2  0  0  0  0
 22 26  1  0  0  0  0
 25 27  1  0  0  0  0
 26 28  2  0  0  0  0
 27 29  2  0  0  0  0
 29 30  1  0  0  0  0
 30 31  2  0  0  0  0
 30 32  1  0  0  0  0
 31 33  1  0  0  0  0
 31 34  1  0  0  0  0
 32 35  2  0  0  0  0
 34 36  2  0  0  0  0
 36 37  1  0  0  0  0
 15 17  1  0  0  0  0
 19 21  1  0  0  0  0
 28 29  1  0  0  0  0
 35 36  1  0  0  0  0
M  END
>  <MolRegNo>
1176474

>  <m>
=

>  <Value>
9000

>  <Unit>
nM

>  <Type>
IC50

>  <pValue>
5.05

>  <Ligand Efficiency>
0

>  <Binding Efficiency>
0

>  <Surface Efficiency>
0

>  <Assay Index>
611448

>  <Assay Category>


>  <Assay Organism>
Homo sapiens

>  <Target ID>
17045

>  <Target Name>
Cytochrome P450 3A4

>  <Target Organism>
Homo sapiens

>  <Target Description>
Target is a single protein chain

>  <Sequence Accession>
P08684

>  <Reference>
J Med Chem 54 (17), 6050-6062 (2011)

>  <Pubmed ID>
21786805

>  <DOI>
10.1021/jm2005354

$$$$
1176464
Actelion Java MolfileCreator 1.0

 33 36  0  0  0  0  0  0  0  0999 V2000
    0.0000   -0.0000   -0.0000 F   0  0  0  0  0  0  0  0  0  0  0  0
   -0.7603   -1.2913   -0.0000 C   0  0  0  0  0  0  0  0  0  0  0  0
   -0.0121   -2.5947   -0.0000 C   0  0  0  0  0  0  0  0  0  0  0  0
   -2.2809   -1.2913   -0.0000 C   0  0  0  0  0  0  0  0  0  0  0  0
   -0.7603   -3.8618   -0.0000 C   0  0  0  0  0  0  0  0  0  0  0  0
    1.4723   -2.5705   -0.0000 C   0  0  0  0  0  0  0  0  0  0  0  0
   -3.0412   -2.5947   -0.0000 C   0  0  0  0  0  0  0  0  0  0  0  0
   -2.3050   -3.8739   -0.0000 C   0  0  0  0  0  0  0  0  0  0  0  0
    1.4482   -1.0499   -0.0000 O   0  0  0  0  0  0  0  0  0  0  0  0
    2.7636   -3.3188   -0.0000 C   0  0  0  0  0  0  0  0  0  0  0  0
    1.4603   -4.0670   -0.0000 C   0  0  0  0  0  0  0  0  0  0  0  0
    2.7395   -0.2776   -0.0000 C   0  0  0  0  0  0  0  0  0  0  0  0
    4.0429   -2.5464   -0.0000 C   0  0  0  0  0  0  0  0  0  0  0  0
    0.1448   -4.8152   -0.0000 C   0  0  0  0  0  0  0  0  0  0  0  0
    2.7516    1.2430   -0.0000 O   0  0  0  0  0  0  0  0  0  0  0  0
    4.0187   -1.0017   -0.0000 N   0  0  0  0  0  0  0  0  0  0  0  0
    0.1328   -6.3117   -0.0000 C   0  0  0  0  0  0  0  0  0  0  0  0
    5.3100   -0.2293   -0.0000 C   0  0  0  0  0  0  0  0  0  0  0  0
   -1.1948   -7.0599   -0.0000 O   0  0  0  0  0  0  0  0  0  0  0  0
    6.6013   -0.9655   -0.0000 C   0  0  0  0  0  0  0  0  0  0  0  0
    5.2980    1.2913   -0.0000 C   0  0  0  0  0  0  0  0  0  0  0  0
    6.5772   -2.4619   -0.0000 C   0  0  0  0  0  0  0  0  0  0  0  0
    7.8806   -0.1931   -0.0000 C   0  0  0  0  0  0  0  0  0  0  0  0
    7.8685   -3.1981   -0.0000 C   0  0  0  0  0  0  0  0  0  0  0  0
    9.1719   -0.9293   -0.0000 C   0  0  0  0  0  0  0  0  0  0  0  0
    9.1598   -2.4257   -0.0000 C   0  0  0  0  0  0  0  0  0  0  0  0
   10.4511   -3.1619   -0.0000 C   0  0  0  0  0  0  0  0  0  0  0  0
   10.4390   -4.6583   -0.0000 C   0  0  0  0  0  0  0  0  0  0  0  0
   11.7303   -2.3895   -0.0000 C   0  0  0  0  0  0  0  0  0  0  0  0
   11.7303   -5.3945   -0.0000 C   0  0  0  0  0  0  0  0  0  0  0  0
   13.0216   -3.1257   -0.0000 C   0  0  0  0  0  0  0  0  0  0  0  0
   13.0216   -4.6221   -0.0000 C   0  0  0  0  0  0  0  0  0  0  0  0
   14.3129   -5.3583   -0.0000 F   0  0  0  0  0  0  0  0  0  0  0  0
  1  2  1  0  0  0  0
  2  3  2  0  0  0  0
  2  4  1  0  0  0  0
  3  5  1  0  0  0  0
  3  6  1  0  0  0  0
  4  7  2  0  0  0  0
  5  8  2  0  0  0  0
  6  9  1  0  0  0  0
  6 10  1  0  0  0  0
  6 11  1  6  0  0  0
  9 12  1  0  0  0  0
 10 13  1  0  0  0  0
 11 14  1  0  0  0  0
 12 15  2  0  0  0  0
 12 16  1  0  0  0  0
 14 17  1  0  0  0  0
 18 16  1  6  0  0  0
 17 19  1  0  0  0  0
 18 20  1  0  0  0  0
 18 21  1  0  0  0  0
 20 22  2  0  0  0  0
 20 23  1  0  0  0  0
 22 24  1  0  0  0  0
 23 25  2  0  0  0  0
 24 26  2  0  0  0  0
 26 27  1  0  0  0  0
 27 28  2  0  0  0  0
 27 29  1  0  0  0  0
 28 30  1  0  0  0  0
 29 31  2  0  0  0  0
 30 32  2  0  0  0  0
 32 33  1  0  0  0  0
  7  8  1  0  0  0  0
 13 16  1  0  0  0  0
 25 26  1  0  0  0  0
 31 32  1  0  0  0  0
M  END
>  <MolRegNo>
1176464

>  <m>
=

>  <Value>
6000

>  <Unit>
nM

>  <Type>
IC50

>  <pValue>
5.22

>  <Ligand Efficiency>
0

>  <Binding Efficiency>
0

>  <Surface Efficiency>
0

>  <Assay Index>
611448

>  <Assay Category>


>  <Assay Organism>
Homo sapiens

>  <Target ID>
17045

>  <Target Name>
Cytochrome P450 3A4

>  <Target Organism>
Homo sapiens

>  <Target Description>
Target is a single protein chain

>  <Sequence Accession>
P08684

>  <Reference>
J Med Chem 54 (17), 6050-6062 (2011)

>  <Pubmed ID>
21786805

>  <DOI>
10.1021/jm2005354

$$$$
1176466
Actelion Java MolfileCreator 1.0

 33 36  0  0  0  0  0  0  0  0999 V2000
    0.0000   -0.0000   -0.0000 F   0  0  0  0  0  0  0  0  0  0  0  0
   -1.3143    0.7527   -0.0000 C   0  0  0  0  0  0  0  0  0  0  0  0
   -2.6166    0.0119   -0.0000 C   0  0  0  0  0  0  0  0  0  0  0  0
   -1.3382    2.2701   -0.0000 C   0  0  0  0  0  0  0  0  0  0  0  0
   -3.9190    0.7647   -0.0000 C   0  0  0  0  0  0  0  0  0  0  0  0
   -2.6405    3.0229   -0.0000 C   0  0  0  0  0  0  0  0  0  0  0  0
   -3.9309    2.2701   -0.0000 C   0  0  0  0  0  0  0  0  0  0  0  0
   -5.2333    3.0229   -0.0000 C   0  0  0  0  0  0  0  0  0  0  0  0
   -6.5356    2.2821   -0.0000 C   0  0  0  0  0  0  0  0  0  0  0  0
   -5.2572    4.5403   -0.0000 C   0  0  0  0  0  0  0  0  0  0  0  0
   -7.8380    3.0348   -0.0000 C   0  0  0  0  0  0  0  0  0  0  0  0
   -6.5595    5.2930   -0.0000 C   0  0  0  0  0  0  0  0  0  0  0  0
   -7.8380    4.5403   -0.0000 C   0  0  0  0  0  0  0  0  0  0  0  0
   -9.1403    5.2930   -0.0000 C   0  0  0  0  0  0  0  0  0  0  0  0
  -10.4427    4.5522   -0.0000 N   0  0  0  0  0  0  0  0  0  0  0  0
   -9.1523    6.7985   -0.0000 C   0  0  0  0  0  0  0  0  0  0  0  0
  -11.7331    5.2930   -0.0000 C   0  0  0  0  0  0  0  0  0  0  0  0
  -10.4427    3.0468   -0.0000 C   0  0  0  0  0  0  0  0  0  0  0  0
  -11.7211    6.7985   -0.0000 O   0  0  0  0  0  0  0  0  0  0  0  0
  -13.0354    4.5522   -0.0000 O   0  0  0  0  0  0  0  0  0  0  0  0
  -11.7450    2.3060   -0.0000 C   0  0  0  0  0  0  0  0  0  0  0  0
  -13.0354    3.0707   -0.0000 C   0  0  0  0  0  0  0  0  0  0  0  0
  -14.5289    3.0707   -0.0000 C   0  0  0  0  0  0  0  0  0  0  0  0
  -13.0474    1.5891   -0.0000 C   0  0  0  0  0  0  0  0  0  0  0  0
  -15.2697    1.8161   -0.0000 C   0  0  0  0  0  0  0  0  0  0  0  0
  -15.2936    4.3850   -0.0000 C   0  0  0  0  0  0  0  0  0  0  0  0
  -14.3497    0.8483   -0.0000 C   0  0  0  0  0  0  0  0  0  0  0  0
  -16.7991    1.8042   -0.0000 C   0  0  0  0  0  0  0  0  0  0  0  0
  -16.7991    4.3850   -0.0000 C   0  0  0  0  0  0  0  0  0  0  0  0
  -14.3617   -0.6333   -0.0000 C   0  0  0  0  0  0  0  0  0  0  0  0
  -17.5518    3.1065   -0.0000 C   0  0  0  0  0  0  0  0  0  0  0  0
  -15.6640   -1.3740   -0.0000 O   0  0  0  0  0  0  0  0  0  0  0  0
  -19.0573    3.1065   -0.0000 F   0  0  0  0  0  0  0  0  0  0  0  0
  1  2  1  0  0  0  0
  2  3  2  0  0  0  0
  2  4  1  0  0  0  0
  3  5  1  0  0  0  0
  4  6  2  0  0  0  0
  5  7  2  0  0  0  0
  7  8  1  0  0  0  0
  8  9  2  0  0  0  0
  8 10  1  0  0  0  0
  9 11  1  0  0  0  0
 10 12  2  0  0  0  0
 11 13  2  0  0  0  0
 13 14  1  0  0  0  0
 14 15  1  6  0  0  0
 14 16  1  0  0  0  0
 15 17  1  0  0  0  0
 15 18  1  0  0  0  0
 17 19  2  0  0  0  0
 17 20  1  0  0  0  0
 18 21  1  0  0  0  0
 20 22  1  0  0  0  0
 22 23  1  0  0  0  0
 22 24  1  6  0  0  0
 23 25  2  0  0  0  0
 23 26  1  0  0  0  0
 24 27  1  0  0  0  0
 25 28  1  0  0  0  0
 26 29  2  0  0  0  0
 27 30  1  0  0  0  0
 28 31  2  0  0  0  0
 30 32  1  0  0  0  0
 31 33  1  0  0  0  0
  6  7  1  0  0  0  0
 12 13  1  0  0  0  0
 21 22  1  0  0  0  0
 29 31  1  0  0  0  0
M  END
>  <MolRegNo>
1176466

>  <m>
=

>  <Value>
8000

>  <Unit>
nM

>  <Type>
IC50

>  <pValue>
5.1

>  <Ligand Efficiency>
0

>  <Binding Efficiency>
0

>  <Surface Efficiency>
0

>  <Assay Index>
611448

>  <Assay Category>


>  <Assay Organism>
Homo sapiens

>  <Target ID>
17045

>  <Target Name>
Cytochrome P450 3A4

>  <Target Organism>
Homo sapiens

>  <Target Description>
Target is a single protein chain

>  <Sequence Accession>
P08684

>  <Reference>
J Med Chem 54 (17), 6050-6062 (2011)

>  <Pubmed ID>
21786805

>  <DOI>
10.1021/jm2005354

$$$$
1176481
Actelion Java MolfileCreator 1.0

 38 41  0  0  1  0  0  0  0  0999 V2000
    0.0000   -0.0000   -0.0000 S   0  0  0  0  0  0  0  0  0  0  0  0
    1.0736    0.6417   -0.0000 O   0  0  0  0  0  0  0  0  0  0  0  0
   -1.0983    0.6417   -0.0000 O   0  0  0  0  0  0  0  0  0  0  0  0
   -0.0123   -1.5549   -0.0000 N   0  0  0  0  0  0  0  0  0  0  0  0
   -0.0123    1.2711   -0.0000 C   0  0  0  0  0  0  0  0  0  0  0  0
   -1.3822   -2.3324   -0.0000 C   0  0  0  0  0  0  0  0  0  0  0  0
   -1.3945   -3.8873   -0.0000 C   0  0  0  0  0  0  0  0  0  0  0  0
   -2.7643   -4.6648   -0.0000 C   0  0  0  0  0  0  0  0  0  0  0  0
   -2.8137   -6.1950   -0.0000 C   0  0  0  0  0  0  0  0  0  0  0  0
   -2.8260   -7.7500   -0.0000 O   0  0  0  0  0  0  0  0  0  0  0  0
   -4.1465   -6.9848   -0.0000 C   0  0  0  0  0  0  0  0  0  0  0  0
   -1.4685   -5.4052   -0.0000 C   0  0  0  0  0  0  0  0  0  0  0  0
   -1.4809   -8.5151   -0.0000 C   0  0  0  0  0  0  0  0  0  0  0  0
   -4.1218   -8.5398   -0.0000 C   0  0  0  0  0  0  0  0  0  0  0  0
   -5.5286   -6.2197   -0.0000 C   0  0  0  0  0  0  0  0  0  0  0  0
   -0.1234   -6.1704   -0.0000 C   0  0  0  0  0  0  0  0  0  0  0  0
   -1.4932   -9.7615   -0.0000 O   0  0  0  0  0  0  0  0  0  0  0  0
   -0.1357   -7.7253   -0.0000 N   0  0  0  0  0  0  0  0  0  0  0  0
   -5.4669   -9.3419   -0.0000 C   0  0  0  0  0  0  0  0  0  0  0  0
   -6.8738   -7.0219   -0.0000 C   0  0  0  0  0  0  0  0  0  0  0  0
    1.2094   -8.4904   -0.0000 C   0  0  0  0  0  0  0  0  0  0  0  0
   -6.8491   -8.5768   -0.0000 C   0  0  0  0  0  0  0  0  0  0  0  0
    1.1970  -10.0453   -0.0000 C   0  0  0  0  0  0  0  0  0  0  0  0
    2.2830   -7.8487   -0.0000 C   0  0  0  0  0  0  0  0  0  0  0  0
   -7.9351   -9.2185   -0.0000 F   0  0  0  0  0  0  0  0  0  0  0  0
   -0.1728  -10.8228   -0.0000 C   0  0  0  0  0  0  0  0  0  0  0  0
    2.5422  -10.8105   -0.0000 C   0  0  0  0  0  0  0  0  0  0  0  0
   -0.1851  -12.3777   -0.0000 C   0  0  0  0  0  0  0  0  0  0  0  0
    2.5298  -12.3654   -0.0000 C   0  0  0  0  0  0  0  0  0  0  0  0
    1.1600  -13.1429   -0.0000 C   0  0  0  0  0  0  0  0  0  0  0  0
    1.1477  -14.6978   -0.0000 C   0  0  0  0  0  0  0  0  0  0  0  0
   -0.2221  -15.4753   -0.0000 C   0  0  0  0  0  0  0  0  0  0  0  0
    2.4928  -15.4629   -0.0000 C   0  0  0  0  0  0  0  0  0  0  0  0
   -1.3205  -14.8459   -0.0000 F   0  0  0  0  0  0  0  0  0  0  0  0
   -0.2221  -17.0302   -0.0000 C   0  0  0  0  0  0  0  0  0  0  0  0
    2.4928  -17.0178   -0.0000 C   0  0  0  0  0  0  0  0  0  0  0  0
    1.1230  -17.7953   -0.0000 C   0  0  0  0  0  0  0  0  0  0  0  0
    1.1107  -19.0417   -0.0000 F   0  0  0  0  0  0  0  0  0  0  0  0
  1  2  2  0  0  0  0
  1  3  2  0  0  0  0
  1  4  1  0  0  0  0
  1  5  1  0  0  0  0
  4  6  1  0  0  0  0
  6  7  1  0  0  0  0
  7  8  1  0  0  0  0
  8  9  1  0  0  0  0
  9 10  1  6  0  0  0
  9 11  1  0  0  0  0
  9 12  1  0  0  0  0
 10 13  1  0  0  0  0
 11 14  2  0  0  0  0
 11 15  1  0  0  0  0
 12 16  1  0  0  0  0
 13 17  2  0  0  0  0
 13 18  1  0  0  0  0
 14 19  1  0  0  0  0
 15 20  2  0  0  0  0
 21 18  1  1  0  0  0
 19 22  2  0  0  0  0
 21 23  1  0  0  0  0
 21 24  1  0  0  0  0
 22 25  1  0  0  0  0
 23 26  2  0  0  0  0
 23 27  1  0  0  0  0
 26 28  1  0  0  0  0
 27 29  2  0  0  0  0
 28 30  2  0  0  0  0
 30 31  1  0  0  0  0
 31 32  2  0  0  0  0
 31 33  1  0  0  0  0
 32 34  1  0  0  0  0
 32 35  1  0  0  0  0
 33 36  2  0  0  0  0
 35 37  2  0  0  0  0
 37 38  1  0  0  0  0
 16 18  1  0  0  0  0
 20 22  1  0  0  0  0
 29 30  1  0  0  0  0
 36 37  1  0  0  0  0
M  END
>  <MolRegNo>
1176481

>  <m>
=

>  <Value>
7000

>  <Unit>
nM

>  <Type>
IC50

>  <pValue>
5.16

>  <Ligand Efficiency>
0

>  <Binding Efficiency>
0

>  <Surface Efficiency>
0

>  <Assay Index>
611448

>  <Assay Category>


>  <Assay Organism>
Homo sapiens

>  <Target ID>
17045

>  <Target Name>
Cytochrome P450 3A4

>  <Target Organism>
Homo sapiens

>  <Target Description>
Target is a single protein chain

>  <Sequence Accession>
P08684

>  <Reference>
J Med Chem 54 (17), 6050-6062 (2011)

>  <Pubmed ID>
21786805

>  <DOI>
10.1021/jm2005354

$$$$
1176465
Actelion Java MolfileCreator 1.0

 33 36  0  0  0  0  0  0  0  0999 V2000
    0.0000   -0.0000   -0.0000 F   0  0  0  0  0  0  0  0  0  0  0  0
    0.7499   -1.2856   -0.0000 C   0  0  0  0  0  0  0  0  0  0  0  0
    2.2498   -1.2618   -0.0000 C   0  0  0  0  0  0  0  0  0  0  0  0
    0.0000   -2.5831   -0.0000 C   0  0  0  0  0  0  0  0  0  0  0  0
    2.9997   -2.5593   -0.0000 C   0  0  0  0  0  0  0  0  0  0  0  0
    0.7380   -3.8687   -0.0000 C   0  0  0  0  0  0  0  0  0  0  0  0
    2.2617   -3.8330   -0.0000 C   0  0  0  0  0  0  0  0  0  0  0  0
    4.4758   -2.5355   -0.0000 C   0  0  0  0  0  0  0  0  0  0  0  0
    4.4520   -1.0118   -0.0000 O   0  0  0  0  0  0  0  0  0  0  0  0
    5.7733   -3.2735   -0.0000 C   0  0  0  0  0  0  0  0  0  0  0  0
    4.4639   -4.0354   -0.0000 C   0  0  0  0  0  0  0  0  0  0  0  0
    5.7495   -0.2381   -0.0000 C   0  0  0  0  0  0  0  0  0  0  0  0
    7.0589   -2.4998   -0.0000 C   0  0  0  0  0  0  0  0  0  0  0  0
    3.1426   -4.7853   -0.0000 C   0  0  0  0  0  0  0  0  0  0  0  0
    5.7733    1.2856   -0.0000 O   0  0  0  0  0  0  0  0  0  0  0  0
    7.0232   -0.9642   -0.0000 N   0  0  0  0  0  0  0  0  0  0  0  0
    3.1307   -6.2852   -0.0000 C   0  0  0  0  0  0  0  0  0  0  0  0
    8.3207   -0.1905   -0.0000 C   0  0  0  0  0  0  0  0  0  0  0  0
    1.8094   -7.0351   -0.0000 O   0  0  0  0  0  0  0  0  0  0  0  0
    9.6182   -0.9285   -0.0000 C   0  0  0  0  0  0  0  0  0  0  0  0
    8.3088    1.3332   -0.0000 C   0  0  0  0  0  0  0  0  0  0  0  0
    9.5944   -2.4165   -0.0000 C   0  0  0  0  0  0  0  0  0  0  0  0
   10.8919   -0.1547   -0.0000 C   0  0  0  0  0  0  0  0  0  0  0  0
   10.8919   -3.1545   -0.0000 C   0  0  0  0  0  0  0  0  0  0  0  0
   12.1894   -0.8928   -0.0000 C   0  0  0  0  0  0  0  0  0  0  0  0
   12.1894   -2.3807   -0.0000 C   0  0  0  0  0  0  0  0  0  0  0  0
   13.4750   -3.1188   -0.0000 C   0  0  0  0  0  0  0  0  0  0  0  0
   13.4631   -4.6187   -0.0000 C   0  0  0  0  0  0  0  0  0  0  0  0
   14.7606   -2.3450   -0.0000 C   0  0  0  0  0  0  0  0  0  0  0  0
   14.7606   -5.3567   -0.0000 C   0  0  0  0  0  0  0  0  0  0  0  0
   16.0581   -3.0712   -0.0000 C   0  0  0  0  0  0  0  0  0  0  0  0
   16.0581   -4.5829   -0.0000 C   0  0  0  0  0  0  0  0  0  0  0  0
   17.3557   -5.3210   -0.0000 F   0  0  0  0  0  0  0  0  0  0  0  0
  1  2  1  0  0  0  0
  2  3  2  0  0  0  0
  2  4  1  0  0  0  0
  3  5  1  0  0  0  0
  4  6  2  0  0  0  0
  5  7  2  0  0  0  0
  5  8  1  0  0  0  0
  8  9  1  0  0  0  0
  8 10  1  0  0  0  0
  8 11  1  6  0  0  0
  9 12  1  0  0  0  0
 10 13  1  0  0  0  0
 11 14  1  0  0  0  0
 12 15  2  0  0  0  0
 12 16  1  0  0  0  0
 14 17  1  0  0  0  0
 18 16  1  6  0  0  0
 17 19  1  0  0  0  0
 18 20  1  0  0  0  0
 18 21  1  0  0  0  0
 20 22  2  0  0  0  0
 20 23  1  0  0  0  0
 22 24  1  0  0  0  0
 23 25  2  0  0  0  0
 24 26  2  0  0  0  0
 26 27  1  0  0  0  0
 27 28  2  0  0  0  0
 27 29  1  0  0  0  0
 28 30  1  0  0  0  0
 29 31  2  0  0  0  0
 30 32  2  0  0  0  0
 32 33  1  0  0  0  0
  6  7  1  0  0  0  0
 13 16  1  0  0  0  0
 25 26  1  0  0  0  0
 31 32  1  0  0  0  0
M  END
>  <MolRegNo>
1176465

>  <m>
=

>  <Value>
7000

>  <Unit>
nM

>  <Type>
IC50

>  <pValue>
5.16

>  <Ligand Efficiency>
0

>  <Binding Efficiency>
0

>  <Surface Efficiency>
0

>  <Assay Index>
611448

>  <Assay Category>


>  <Assay Organism>
Homo sapiens

>  <Target ID>
17045

>  <Target Name>
Cytochrome P450 3A4

>  <Target Organism>
Homo sapiens

>  <Target Description>
Target is a single protein chain

>  <Sequence Accession>
P08684

>  <Reference>
J Med Chem 54 (17), 6050-6062 (2011)

>  <Pubmed ID>
21786805

>  <DOI>
10.1021/jm2005354

$$$$
1176471
Actelion Java MolfileCreator 1.0

 36 39  0  0  0  0  0  0  0  0999 V2000
    0.0000   -0.0000   -0.0000 F   0  0  0  0  0  0  0  0  0  0  0  0
    0.0000   -1.4866   -0.0000 C   0  0  0  0  0  0  0  0  0  0  0  0
   -1.3067   -2.2298   -0.0000 C   0  0  0  0  0  0  0  0  0  0  0  0
    1.2828   -2.2178   -0.0000 C   0  0  0  0  0  0  0  0  0  0  0  0
   -2.6135   -1.4746   -0.0000 C   0  0  0  0  0  0  0  0  0  0  0  0
   -1.3187   -3.7164   -0.0000 C   0  0  0  0  0  0  0  0  0  0  0  0
    1.2828   -3.7164   -0.0000 C   0  0  0  0  0  0  0  0  0  0  0  0
   -3.9202   -2.2178   -0.0000 C   0  0  0  0  0  0  0  0  0  0  0  0
   -2.6374    0.0480   -0.0000 C   0  0  0  0  0  0  0  0  0  0  0  0
   -0.0360   -4.4477   -0.0000 C   0  0  0  0  0  0  0  0  0  0  0  0
    2.5775   -4.4477   -0.0000 F   0  0  0  0  0  0  0  0  0  0  0  0
   -5.2269   -1.4626   -0.0000 C   0  0  0  0  0  0  0  0  0  0  0  0
   -3.9442    0.8032   -0.0000 C   0  0  0  0  0  0  0  0  0  0  0  0
   -5.2269    0.0480   -0.0000 C   0  0  0  0  0  0  0  0  0  0  0  0
   -6.5336    0.8032   -0.0000 C   0  0  0  0  0  0  0  0  0  0  0  0
   -7.8404    0.0599   -0.0000 N   0  0  0  0  0  0  0  0  0  0  0  0
   -6.5456    2.3137   -0.0000 C   0  0  0  0  0  0  0  0  0  0  0  0
   -9.1351    0.8032   -0.0000 C   0  0  0  0  0  0  0  0  0  0  0  0
   -7.8404   -1.4506   -0.0000 C   0  0  0  0  0  0  0  0  0  0  0  0
   -9.1231    2.3137   -0.0000 O   0  0  0  0  0  0  0  0  0  0  0  0
  -10.4418    0.0599   -0.0000 O   0  0  0  0  0  0  0  0  0  0  0  0
   -9.1471   -2.1939   -0.0000 C   0  0  0  0  0  0  0  0  0  0  0  0
  -10.4418   -1.4266   -0.0000 C   0  0  0  0  0  0  0  0  0  0  0  0
  -11.9404   -1.4266   -0.0000 C   0  0  0  0  0  0  0  0  0  0  0  0
  -10.4538   -2.9132   -0.0000 C   0  0  0  0  0  0  0  0  0  0  0  0
  -12.6836   -2.6854   -0.0000 C   0  0  0  0  0  0  0  0  0  0  0  0
  -12.7076   -0.1079   -0.0000 C   0  0  0  0  0  0  0  0  0  0  0  0
   -9.1711   -3.6445   -0.0000 C   0  0  0  0  0  0  0  0  0  0  0  0
  -14.2182   -2.6974   -0.0000 C   0  0  0  0  0  0  0  0  0  0  0  0
  -14.2182   -0.1079   -0.0000 C   0  0  0  0  0  0  0  0  0  0  0  0
   -9.1831   -5.1310   -0.0000 N   0  0  0  0  0  0  0  0  0  0  0  0
  -14.9734   -1.3906   -0.0000 C   0  0  0  0  0  0  0  0  0  0  0  0
  -10.4898   -5.8743   -0.0000 C   0  0  0  0  0  0  0  0  0  0  0  0
  -16.4839   -1.3906   -0.0000 F   0  0  0  0  0  0  0  0  0  0  0  0
  -11.7965   -5.1190   -0.0000 O   0  0  0  0  0  0  0  0  0  0  0  0
  -10.5018   -7.3608   -0.0000 N   0  0  0  0  0  0  0  0  0  0  0  0
  1  2  1  0  0  0  0
  2  3  2  0  0  0  0
  2  4  1  0  0  0  0
  3  5  1  0  0  0  0
  3  6  1  0  0  0  0
  4  7  2  0  0  0  0
  5  8  2  0  0  0  0
  5  9  1  0  0  0  0
  6 10  2  0  0  0  0
  7 11  1  0  0  0  0
  8 12  1  0  0  0  0
  9 13  2  0  0  0  0
 12 14  2  0  0  0  0
 14 15  1  0  0  0  0
 15 16  1  6  0  0  0
 15 17  1  0  0  0  0
 16 18  1  0  0  0  0
 16 19  1  0  0  0  0
 18 20  2  0  0  0  0
 18 21  1  0  0  0  0
 19 22  1  0  0  0  0
 21 23  1  0  0  0  0
 23 24  1  0  0  0  0
 23 25  1  6  0  0  0
 24 26  2  0  0  0  0
 24 27  1  0  0  0  0
 25 28  1  0  0  0  0
 26 29  1  0  0  0  0
 27 30  2  0  0  0  0
 28 31  1  0  0  0  0
 29 32  2  0  0  0  0
 31 33  1  0  0  0  0
 32 34  1  0  0  0  0
 33 35  2  0  0  0  0
 33 36  1  0  0  0  0
  7 10  1  0  0  0  0
 13 14  1  0  0  0  0
 22 23  1  0  0  0  0
 30 32  1  0  0  0  0
M  END
>  <MolRegNo>
1176471

>  <m>
=

>  <Value>
5000

>  <Unit>
nM

>  <Type>
IC50

>  <pValue>
5.3

>  <Ligand Efficiency>
0

>  <Binding Efficiency>
0

>  <Surface Efficiency>
0

>  <Assay Index>
611448

>  <Assay Category>


>  <Assay Organism>
Homo sapiens

>  <Target ID>
17045

>  <Target Name>
Cytochrome P450 3A4

>  <Target Organism>
Homo sapiens

>  <Target Description>
Target is a single protein chain

>  <Sequence Accession>
P08684

>  <Reference>
J Med Chem 54 (17), 6050-6062 (2011)

>  <Pubmed ID>
21786805

>  <DOI>
10.1021/jm2005354

$$$$
1176479
Actelion Java MolfileCreator 1.0

 37 40  0  0  0  0  0  0  0  0999 V2000
    0.0000   -0.0000   -0.0000 F   0  0  0  0  0  0  0  0  0  0  0  0
    0.0000   -1.4876   -0.0000 C   0  0  0  0  0  0  0  0  0  0  0  0
   -1.3076   -2.2313   -0.0000 C   0  0  0  0  0  0  0  0  0  0  0  0
    1.2836   -2.2194   -0.0000 C   0  0  0  0  0  0  0  0  0  0  0  0
   -2.6152   -1.4756   -0.0000 C   0  0  0  0  0  0  0  0  0  0  0  0
   -1.3196   -3.7189   -0.0000 C   0  0  0  0  0  0  0  0  0  0  0  0
    1.2836   -3.7189   -0.0000 C   0  0  0  0  0  0  0  0  0  0  0  0
   -3.9229   -2.2194   -0.0000 C   0  0  0  0  0  0  0  0  0  0  0  0
   -2.6392    0.0480   -0.0000 C   0  0  0  0  0  0  0  0  0  0  0  0
   -0.0360   -4.4507   -0.0000 C   0  0  0  0  0  0  0  0  0  0  0  0
    2.5792   -4.4507   -0.0000 F   0  0  0  0  0  0  0  0  0  0  0  0
   -5.2305   -1.4636   -0.0000 C   0  0  0  0  0  0  0  0  0  0  0  0
   -3.9468    0.8038   -0.0000 C   0  0  0  0  0  0  0  0  0  0  0  0
   -5.2305    0.0480   -0.0000 C   0  0  0  0  0  0  0  0  0  0  0  0
   -6.5381    0.8038   -0.0000 C   0  0  0  0  0  0  0  0  0  0  0  0
   -7.8457    0.0600   -0.0000 N   0  0  0  0  0  0  0  0  0  0  0  0
   -6.5501    2.3153   -0.0000 C   0  0  0  0  0  0  0  0  0  0  0  0
   -9.1413    0.8038   -0.0000 C   0  0  0  0  0  0  0  0  0  0  0  0
   -7.8457   -1.4516   -0.0000 C   0  0  0  0  0  0  0  0  0  0  0  0
   -9.1293    2.3153   -0.0000 O   0  0  0  0  0  0  0  0  0  0  0  0
  -10.4490    0.0600   -0.0000 O   0  0  0  0  0  0  0  0  0  0  0  0
   -9.1413   -2.1954   -0.0000 C   0  0  0  0  0  0  0  0  0  0  0  0
  -10.4490   -1.4276   -0.0000 C   0  0  0  0  0  0  0  0  0  0  0  0
  -11.9485   -1.4276   -0.0000 C   0  0  0  0  0  0  0  0  0  0  0  0
  -10.4609   -2.9151   -0.0000 C   0  0  0  0  0  0  0  0  0  0  0  0
  -12.6923   -2.6872   -0.0000 C   0  0  0  0  0  0  0  0  0  0  0  0
  -12.7163   -0.1080   -0.0000 C   0  0  0  0  0  0  0  0  0  0  0  0
   -9.1773   -3.6469   -0.0000 C   0  0  0  0  0  0  0  0  0  0  0  0
  -14.2279   -2.6992   -0.0000 C   0  0  0  0  0  0  0  0  0  0  0  0
  -14.2279   -0.1080   -0.0000 C   0  0  0  0  0  0  0  0  0  0  0  0
   -9.1893   -5.1345   -0.0000 C   0  0  0  0  0  0  0  0  0  0  0  0
  -14.9836   -1.3916   -0.0000 C   0  0  0  0  0  0  0  0  0  0  0  0
   -7.9057   -5.8663   -0.0000 N   0  0  0  0  0  0  0  0  0  0  0  0
  -16.4952   -1.3916   -0.0000 F   0  0  0  0  0  0  0  0  0  0  0  0
   -6.6221   -5.0985   -0.0000 C   0  0  0  0  0  0  0  0  0  0  0  0
   -6.6341   -3.5870   -0.0000 O   0  0  0  0  0  0  0  0  0  0  0  0
   -5.3384   -5.8303   -0.0000 N   0  0  0  0  0  0  0  0  0  0  0  0
  1  2  1  0  0  0  0
  2  3  2  0  0  0  0
  2  4  1  0  0  0  0
  3  5  1  0  0  0  0
  3  6  1  0  0  0  0
  4  7  2  0  0  0  0
  5  8  2  0  0  0  0
  5  9  1  0  0  0  0
  6 10  2  0  0  0  0
  7 11  1  0  0  0  0
  8 12  1  0  0  0  0
  9 13  2  0  0  0  0
 12 14  2  0  0  0  0
 14 15  1  0  0  0  0
 15 16  1  6  0  0  0
 15 17  1  0  0  0  0
 16 18  1  0  0  0  0
 16 19  1  0  0  0  0
 18 20  2  0  0  0  0
 18 21  1  0  0  0  0
 19 22  1  0  0  0  0
 21 23  1  0  0  0  0
 23 24  1  0  0  0  0
 23 25  1  6  0  0  0
 24 26  2  0  0  0  0
 24 27  1  0  0  0  0
 25 28  1  0  0  0  0
 26 29  1  0  0  0  0
 27 30  2  0  0  0  0
 28 31  1  0  0  0  0
 29 32  2  0  0  0  0
 31 33  1  0  0  0  0
 32 34  1  0  0  0  0
 33 35  1  0  0  0  0
 35 36  2  0  0  0  0
 35 37  1  0  0  0  0
  7 10  1  0  0  0  0
 13 14  1  0  0  0  0
 22 23  1  0  0  0  0
 30 32  1  0  0  0  0
M  END
>  <MolRegNo>
1176479

>  <m>
=

>  <Value>
4000

>  <Unit>
nM

>  <Type>
IC50

>  <pValue>
5.4

>  <Ligand Efficiency>
0

>  <Binding Efficiency>
0

>  <Surface Efficiency>
0

>  <Assay Index>
611448

>  <Assay Category>


>  <Assay Organism>
Homo sapiens

>  <Target ID>
17045

>  <Target Name>
Cytochrome P450 3A4

>  <Target Organism>
Homo sapiens

>  <Target Description>
Target is a single protein chain

>  <Sequence Accession>
P08684

>  <Reference>
J Med Chem 54 (17), 6050-6062 (2011)

>  <Pubmed ID>
21786805

>  <DOI>
10.1021/jm2005354

$$$$
1176469
Actelion Java MolfileCreator 1.0

 33 36  0  0  0  0  0  0  0  0999 V2000
    0.0000   -0.0000   -0.0000 F   0  0  0  0  0  0  0  0  0  0  0  0
    0.0000   -1.4865   -0.0000 C   0  0  0  0  0  0  0  0  0  0  0  0
   -1.3067   -2.2298   -0.0000 C   0  0  0  0  0  0  0  0  0  0  0  0
    1.2827   -2.2178   -0.0000 C   0  0  0  0  0  0  0  0  0  0  0  0
   -2.6134   -1.4745   -0.0000 C   0  0  0  0  0  0  0  0  0  0  0  0
   -1.3187   -3.7163   -0.0000 C   0  0  0  0  0  0  0  0  0  0  0  0
    1.2827   -3.7163   -0.0000 C   0  0  0  0  0  0  0  0  0  0  0  0
   -3.9201   -2.2178   -0.0000 C   0  0  0  0  0  0  0  0  0  0  0  0
   -2.6374    0.0480   -0.0000 C   0  0  0  0  0  0  0  0  0  0  0  0
   -0.0360   -4.4476   -0.0000 C   0  0  0  0  0  0  0  0  0  0  0  0
    2.5775   -4.4476   -0.0000 F   0  0  0  0  0  0  0  0  0  0  0  0
   -5.2268   -1.4626   -0.0000 C   0  0  0  0  0  0  0  0  0  0  0  0
   -3.9441    0.8032   -0.0000 C   0  0  0  0  0  0  0  0  0  0  0  0
   -5.2268    0.0480   -0.0000 C   0  0  0  0  0  0  0  0  0  0  0  0
   -6.5336    0.8032   -0.0000 C   0  0  0  0  0  0  0  0  0  0  0  0
   -7.8403    0.0599   -0.0000 N   0  0  0  0  0  0  0  0  0  0  0  0
   -6.5455    2.3137   -0.0000 C   0  0  0  0  0  0  0  0  0  0  0  0
   -9.1350    0.8032   -0.0000 C   0  0  0  0  0  0  0  0  0  0  0  0
   -7.8403   -1.4506   -0.0000 C   0  0  0  0  0  0  0  0  0  0  0  0
   -9.1230    2.3137   -0.0000 O   0  0  0  0  0  0  0  0  0  0  0  0
  -10.4417    0.0599   -0.0000 O   0  0  0  0  0  0  0  0  0  0  0  0
   -9.1350   -2.1938   -0.0000 C   0  0  0  0  0  0  0  0  0  0  0  0
  -10.4417   -1.4266   -0.0000 C   0  0  0  0  0  0  0  0  0  0  0  0
  -11.9402   -1.4266   -0.0000 C   0  0  0  0  0  0  0  0  0  0  0  0
  -10.4537   -2.9131   -0.0000 C   0  0  0  0  0  0  0  0  0  0  0  0
  -12.6835   -2.6853   -0.0000 C   0  0  0  0  0  0  0  0  0  0  0  0
  -12.7075   -0.1079   -0.0000 C   0  0  0  0  0  0  0  0  0  0  0  0
   -9.1709   -3.6444   -0.0000 C   0  0  0  0  0  0  0  0  0  0  0  0
  -14.2180   -2.6973   -0.0000 C   0  0  0  0  0  0  0  0  0  0  0  0
  -14.2180   -0.1079   -0.0000 C   0  0  0  0  0  0  0  0  0  0  0  0
   -9.1829   -5.1309   -0.0000 N   0  0  0  0  0  0  0  0  0  0  0  0
  -14.9732   -1.3906   -0.0000 C   0  0  0  0  0  0  0  0  0  0  0  0
  -16.4837   -1.3906   -0.0000 F   0  0  0  0  0  0  0  0  0  0  0  0
  1  2  1  0  0  0  0
  2  3  2  0  0  0  0
  2  4  1  0  0  0  0
  3  5  1  0  0  0  0
  3  6  1  0  0  0  0
  4  7  2  0  0  0  0
  5  8  2  0  0  0  0
  5  9  1  0  0  0  0
  6 10  2  0  0  0  0
  7 11  1  0  0  0  0
  8 12  1  0  0  0  0
  9 13  2  0  0  0  0
 12 14  2  0  0  0  0
 14 15  1  0  0  0  0
 15 16  1  6  0  0  0
 15 17  1  0  0  0  0
 16 18  1  0  0  0  0
 16 19  1  0  0  0  0
 18 20  2  0  0  0  0
 18 21  1  0  0  0  0
 19 22  1  0  0  0  0
 21 23  1  0  0  0  0
 23 24  1  0  0  0  0
 23 25  1  6  0  0  0
 24 26  2  0  0  0  0
 24 27  1  0  0  0  0
 25 28  1  0  0  0  0
 26 29  1  0  0  0  0
 27 30  2  0  0  0  0
 28 31  1  0  0  0  0
 29 32  2  0  0  0  0
 32 33  1  0  0  0  0
  7 10  1  0  0  0  0
 13 14  1  0  0  0  0
 22 23  1  0  0  0  0
 30 32  1  0  0  0  0
M  END
>  <MolRegNo>
1176469

>  <m>
=

>  <Value>
3000

>  <Unit>
nM

>  <Type>
IC50

>  <pValue>
5.52

>  <Ligand Efficiency>
0

>  <Binding Efficiency>
0

>  <Surface Efficiency>
0

>  <Assay Index>
611448

>  <Assay Category>


>  <Assay Organism>
Homo sapiens

>  <Target ID>
17045

>  <Target Name>
Cytochrome P450 3A4

>  <Target Organism>
Homo sapiens

>  <Target Description>
Target is a single protein chain

>  <Sequence Accession>
P08684

>  <Reference>
J Med Chem 54 (17), 6050-6062 (2011)

>  <Pubmed ID>
21786805

>  <DOI>
10.1021/jm2005354

$$$$
1176461
Actelion Java MolfileCreator 1.0

 33 36  0  0  0  0  0  0  0  0999 V2000
    0.0000   -0.0000   -0.0000 F   0  0  0  0  0  0  0  0  0  0  0  0
   -1.3030    0.7531   -0.0000 C   0  0  0  0  0  0  0  0  0  0  0  0
   -2.6060    0.0120   -0.0000 C   0  0  0  0  0  0  0  0  0  0  0  0
   -1.3269    2.2712   -0.0000 C   0  0  0  0  0  0  0  0  0  0  0  0
   -3.9089    0.7651   -0.0000 C   0  0  0  0  0  0  0  0  0  0  0  0
   -2.6299    3.0243   -0.0000 C   0  0  0  0  0  0  0  0  0  0  0  0
   -3.9209    2.2712   -0.0000 C   0  0  0  0  0  0  0  0  0  0  0  0
   -5.2239    3.0243   -0.0000 C   0  0  0  0  0  0  0  0  0  0  0  0
   -6.5269    2.2832   -0.0000 C   0  0  0  0  0  0  0  0  0  0  0  0
   -5.2478    4.5425   -0.0000 C   0  0  0  0  0  0  0  0  0  0  0  0
   -7.8298    3.0363   -0.0000 C   0  0  0  0  0  0  0  0  0  0  0  0
   -6.5508    5.2956   -0.0000 C   0  0  0  0  0  0  0  0  0  0  0  0
   -7.8298    4.5425   -0.0000 C   0  0  0  0  0  0  0  0  0  0  0  0
   -9.1328    5.2956   -0.0000 C   0  0  0  0  0  0  0  0  0  0  0  0
  -10.4358    4.5545   -0.0000 N   0  0  0  0  0  0  0  0  0  0  0  0
   -9.1448    6.8018   -0.0000 C   0  0  0  0  0  0  0  0  0  0  0  0
  -11.7268    5.2956   -0.0000 C   0  0  0  0  0  0  0  0  0  0  0  0
  -10.4358    3.0483   -0.0000 C   0  0  0  0  0  0  0  0  0  0  0  0
   -7.8657    7.5668   -0.0000 C   0  0  0  0  0  0  0  0  0  0  0  0
  -11.7149    6.8018   -0.0000 O   0  0  0  0  0  0  0  0  0  0  0  0
  -13.0298    4.5545   -0.0000 O   0  0  0  0  0  0  0  0  0  0  0  0
  -11.7268    2.3071   -0.0000 C   0  0  0  0  0  0  0  0  0  0  0  0
  -13.0298    3.0722   -0.0000 C   0  0  0  0  0  0  0  0  0  0  0  0
  -14.5240    3.0722   -0.0000 C   0  0  0  0  0  0  0  0  0  0  0  0
  -13.0418    1.5899   -0.0000 C   0  0  0  0  0  0  0  0  0  0  0  0
  -15.2891    4.3871   -0.0000 C   0  0  0  0  0  0  0  0  0  0  0  0
  -15.2652    1.8170   -0.0000 C   0  0  0  0  0  0  0  0  0  0  0  0
  -14.3447    0.8487   -0.0000 C   0  0  0  0  0  0  0  0  0  0  0  0
  -16.7953    4.3871   -0.0000 C   0  0  0  0  0  0  0  0  0  0  0  0
  -16.7953    1.8050   -0.0000 C   0  0  0  0  0  0  0  0  0  0  0  0
  -14.3567   -0.6336   -0.0000 C   0  0  0  0  0  0  0  0  0  0  0  0
  -17.5484    3.0961   -0.0000 C   0  0  0  0  0  0  0  0  0  0  0  0
  -15.6597   -1.3747   -0.0000 O   0  0  0  0  0  0  0  0  0  0  0  0
  1  2  1  0  0  0  0
  2  3  2  0  0  0  0
  2  4  1  0  0  0  0
  3  5  1  0  0  0  0
  4  6  2  0  0  0  0
  5  7  2  0  0  0  0
  7  8  1  0  0  0  0
  8  9  2  0  0  0  0
  8 10  1  0  0  0  0
  9 11  1  0  0  0  0
 10 12  2  0  0  0  0
 11 13  2  0  0  0  0
 13 14  1  0  0  0  0
 14 15  1  6  0  0  0
 14 16  1  0  0  0  0
 15 17  1  0  0  0  0
 15 18  1  0  0  0  0
 16 19  1  0  0  0  0
 17 20  2  0  0  0  0
 17 21  1  0  0  0  0
 18 22  1  0  0  0  0
 21 23  1  0  0  0  0
 23 24  1  0  0  0  0
 23 25  1  6  0  0  0
 24 26  2  0  0  0  0
 24 27  1  0  0  0  0
 25 28  1  0  0  0  0
 26 29  1  0  0  0  0
 27 30  2  0  0  0  0
 28 31  1  0  0  0  0
 29 32  2  0  0  0  0
 31 33  1  0  0  0  0
  6  7  1  0  0  0  0
 12 13  1  0  0  0  0
 22 23  1  0  0  0  0
 30 32  1  0  0  0  0
M  END
>  <MolRegNo>
1176461

>  <m>
=

>  <Value>
1500

>  <Unit>
nM

>  <Type>
IC50

>  <pValue>
5.82

>  <Ligand Efficiency>
0

>  <Binding Efficiency>
0

>  <Surface Efficiency>
0

>  <Assay Index>
611448

>  <Assay Category>


>  <Assay Organism>
Homo sapiens

>  <Target ID>
17045

>  <Target Name>
Cytochrome P450 3A4

>  <Target Organism>
Homo sapiens

>  <Target Description>
Target is a single protein chain

>  <Sequence Accession>
P08684

>  <Reference>
J Med Chem 54 (17), 6050-6062 (2011)

>  <Pubmed ID>
21786805

>  <DOI>
10.1021/jm2005354

$$$$
1176472
Actelion Java MolfileCreator 1.0

 37 40  0  0  0  0  0  0  0  0999 V2000
    0.0000   -0.0000   -0.0000 F   0  0  0  0  0  0  0  0  0  0  0  0
    0.0000   -1.4865   -0.0000 C   0  0  0  0  0  0  0  0  0  0  0  0
   -1.3067   -2.2297   -0.0000 C   0  0  0  0  0  0  0  0  0  0  0  0
    1.2827   -2.2177   -0.0000 C   0  0  0  0  0  0  0  0  0  0  0  0
   -2.6133   -1.4745   -0.0000 C   0  0  0  0  0  0  0  0  0  0  0  0
   -1.3186   -3.7162   -0.0000 C   0  0  0  0  0  0  0  0  0  0  0  0
    1.2827   -3.7162   -0.0000 C   0  0  0  0  0  0  0  0  0  0  0  0
   -3.9200   -2.2177   -0.0000 C   0  0  0  0  0  0  0  0  0  0  0  0
   -2.6373    0.0480   -0.0000 C   0  0  0  0  0  0  0  0  0  0  0  0
   -0.0360   -4.4474   -0.0000 C   0  0  0  0  0  0  0  0  0  0  0  0
    2.5773   -4.4474   -0.0000 F   0  0  0  0  0  0  0  0  0  0  0  0
   -5.2266   -1.4625   -0.0000 C   0  0  0  0  0  0  0  0  0  0  0  0
   -3.9439    0.8032   -0.0000 C   0  0  0  0  0  0  0  0  0  0  0  0
   -5.2266    0.0480   -0.0000 C   0  0  0  0  0  0  0  0  0  0  0  0
   -6.5333    0.8032   -0.0000 C   0  0  0  0  0  0  0  0  0  0  0  0
   -7.8399    0.0599   -0.0000 N   0  0  0  0  0  0  0  0  0  0  0  0
   -6.5453    2.3136   -0.0000 C   0  0  0  0  0  0  0  0  0  0  0  0
   -9.1346    0.8032   -0.0000 C   0  0  0  0  0  0  0  0  0  0  0  0
   -7.8399   -1.4505   -0.0000 C   0  0  0  0  0  0  0  0  0  0  0  0
   -9.1226    2.3136   -0.0000 O   0  0  0  0  0  0  0  0  0  0  0  0
  -10.4413    0.0599   -0.0000 O   0  0  0  0  0  0  0  0  0  0  0  0
   -9.1346   -2.1937   -0.0000 C   0  0  0  0  0  0  0  0  0  0  0  0
  -10.4413   -1.4265   -0.0000 C   0  0  0  0  0  0  0  0  0  0  0  0
  -11.9397   -1.4265   -0.0000 C   0  0  0  0  0  0  0  0  0  0  0  0
  -10.4533   -2.9130   -0.0000 C   0  0  0  0  0  0  0  0  0  0  0  0
  -12.6830   -2.6852   -0.0000 C   0  0  0  0  0  0  0  0  0  0  0  0
  -12.7069   -0.1079   -0.0000 C   0  0  0  0  0  0  0  0  0  0  0  0
   -9.1706   -3.6443   -0.0000 C   0  0  0  0  0  0  0  0  0  0  0  0
  -14.2174   -2.6972   -0.0000 C   0  0  0  0  0  0  0  0  0  0  0  0
  -14.2174   -0.1079   -0.0000 C   0  0  0  0  0  0  0  0  0  0  0  0
   -9.1826   -5.1307   -0.0000 N   0  0  0  0  0  0  0  0  0  0  0  0
  -14.9726   -1.3906   -0.0000 C   0  0  0  0  0  0  0  0  0  0  0  0
  -10.4892   -5.8740   -0.0000 C   0  0  0  0  0  0  0  0  0  0  0  0
  -16.4831   -1.3906   -0.0000 F   0  0  0  0  0  0  0  0  0  0  0  0
  -11.7959   -5.1187   -0.0000 O   0  0  0  0  0  0  0  0  0  0  0  0
  -10.5012   -7.3604   -0.0000 N   0  0  0  0  0  0  0  0  0  0  0  0
  -11.8079   -8.1037   -0.0000 C   0  0  0  0  0  0  0  0  0  0  0  0
  1  2  1  0  0  0  0
  2  3  2  0  0  0  0
  2  4  1  0  0  0  0
  3  5  1  0  0  0  0
  3  6  1  0  0  0  0
  4  7  2  0  0  0  0
  5  8  2  0  0  0  0
  5  9  1  0  0  0  0
  6 10  2  0  0  0  0
  7 11  1  0  0  0  0
  8 12  1  0  0  0  0
  9 13  2  0  0  0  0
 12 14  2  0  0  0  0
 14 15  1  0  0  0  0
 15 16  1  6  0  0  0
 15 17  1  0  0  0  0
 16 18  1  0  0  0  0
 16 19  1  0  0  0  0
 18 20  2  0  0  0  0
 18 21  1  0  0  0  0
 19 22  1  0  0  0  0
 21 23  1  0  0  0  0
 23 24  1  0  0  0  0
 23 25  1  6  0  0  0
 24 26  2  0  0  0  0
 24 27  1  0  0  0  0
 25 28  1  0  0  0  0
 26 29  1  0  0  0  0
 27 30  2  0  0  0  0
 28 31  1  0  0  0  0
 29 32  2  0  0  0  0
 31 33  1  0  0  0  0
 32 34  1  0  0  0  0
 33 35  2  0  0  0  0
 33 36  1  0  0  0  0
 36 37  1  0  0  0  0
  7 10  1  0  0  0  0
 13 14  1  0  0  0  0
 22 23  1  0  0  0  0
 30 32  1  0  0  0  0
M  END
>  <MolRegNo>
1176472

>  <m>
=

>  <Value>
1000

>  <Unit>
nM

>  <Type>
IC50

>  <pValue>
6

>  <Ligand Efficiency>
0

>  <Binding Efficiency>
0

>  <Surface Efficiency>
0

>  <Assay Index>
611448

>  <Assay Category>


>  <Assay Organism>
Homo sapiens

>  <Target ID>
17045

>  <Target Name>
Cytochrome P450 3A4

>  <Target Organism>
Homo sapiens

>  <Target Description>
Target is a single protein chain

>  <Sequence Accession>
P08684

>  <Reference>
J Med Chem 54 (17), 6050-6062 (2011)

>  <Pubmed ID>
21786805

>  <DOI>
10.1021/jm2005354

$$$$
1176480
Actelion Java MolfileCreator 1.0

 38 41  0  0  0  0  0  0  0  0999 V2000
    0.0000   -0.0000   -0.0000 F   0  0  0  0  0  0  0  0  0  0  0  0
    0.0000   -1.4877   -0.0000 C   0  0  0  0  0  0  0  0  0  0  0  0
   -1.3077   -2.2315   -0.0000 C   0  0  0  0  0  0  0  0  0  0  0  0
    1.2837   -2.2195   -0.0000 C   0  0  0  0  0  0  0  0  0  0  0  0
   -2.6154   -1.4757   -0.0000 C   0  0  0  0  0  0  0  0  0  0  0  0
   -1.3197   -3.7192   -0.0000 C   0  0  0  0  0  0  0  0  0  0  0  0
    1.2837   -3.7192   -0.0000 C   0  0  0  0  0  0  0  0  0  0  0  0
   -3.9231   -2.2195   -0.0000 C   0  0  0  0  0  0  0  0  0  0  0  0
   -2.6394    0.0480   -0.0000 C   0  0  0  0  0  0  0  0  0  0  0  0
   -0.0360   -4.4510   -0.0000 C   0  0  0  0  0  0  0  0  0  0  0  0
    2.5794   -4.4510   -0.0000 F   0  0  0  0  0  0  0  0  0  0  0  0
   -5.2308   -1.4637   -0.0000 C   0  0  0  0  0  0  0  0  0  0  0  0
   -3.9471    0.8038   -0.0000 C   0  0  0  0  0  0  0  0  0  0  0  0
   -5.2308    0.0480   -0.0000 C   0  0  0  0  0  0  0  0  0  0  0  0
   -6.5385    0.8038   -0.0000 C   0  0  0  0  0  0  0  0  0  0  0  0
   -7.8463    0.0600   -0.0000 N   0  0  0  0  0  0  0  0  0  0  0  0
   -6.5505    2.3155   -0.0000 C   0  0  0  0  0  0  0  0  0  0  0  0
   -9.1420    0.8038   -0.0000 C   0  0  0  0  0  0  0  0  0  0  0  0
   -7.8463   -1.4517   -0.0000 C   0  0  0  0  0  0  0  0  0  0  0  0
   -9.1300    2.3155   -0.0000 O   0  0  0  0  0  0  0  0  0  0  0  0
  -10.4497    0.0600   -0.0000 O   0  0  0  0  0  0  0  0  0  0  0  0
   -9.1420   -2.1955   -0.0000 C   0  0  0  0  0  0  0  0  0  0  0  0
  -10.4497   -1.4277   -0.0000 C   0  0  0  0  0  0  0  0  0  0  0  0
  -11.9493   -1.4277   -0.0000 C   0  0  0  0  0  0  0  0  0  0  0  0
  -10.4617   -2.9154   -0.0000 C   0  0  0  0  0  0  0  0  0  0  0  0
  -12.6932   -2.6874   -0.0000 C   0  0  0  0  0  0  0  0  0  0  0  0
  -12.7172   -0.1080   -0.0000 C   0  0  0  0  0  0  0  0  0  0  0  0
   -9.1780   -3.6472   -0.0000 C   0  0  0  0  0  0  0  0  0  0  0  0
  -14.2288   -2.6994   -0.0000 C   0  0  0  0  0  0  0  0  0  0  0  0
  -14.2288   -0.1080   -0.0000 C   0  0  0  0  0  0  0  0  0  0  0  0
   -9.1900   -5.1349   -0.0000 C   0  0  0  0  0  0  0  0  0  0  0  0
  -14.9847   -1.3917   -0.0000 C   0  0  0  0  0  0  0  0  0  0  0  0
   -7.9062   -5.8667   -0.0000 N   0  0  0  0  0  0  0  0  0  0  0  0
  -16.4963   -1.3917   -0.0000 F   0  0  0  0  0  0  0  0  0  0  0  0
   -6.6225   -5.0989   -0.0000 C   0  0  0  0  0  0  0  0  0  0  0  0
   -6.6345   -3.5872   -0.0000 O   0  0  0  0  0  0  0  0  0  0  0  0
   -5.3388   -5.8307   -0.0000 N   0  0  0  0  0  0  0  0  0  0  0  0
   -4.0551   -5.0629   -0.0000 C   0  0  0  0  0  0  0  0  0  0  0  0
  1  2  1  0  0  0  0
  2  3  2  0  0  0  0
  2  4  1  0  0  0  0
  3  5  1  0  0  0  0
  3  6  1  0  0  0  0
  4  7  2  0  0  0  0
  5  8  2  0  0  0  0
  5  9  1  0  0  0  0
  6 10  2  0  0  0  0
  7 11  1  0  0  0  0
  8 12  1  0  0  0  0
  9 13  2  0  0  0  0
 12 14  2  0  0  0  0
 14 15  1  0  0  0  0
 15 16  1  6  0  0  0
 15 17  1  0  0  0  0
 16 18  1  0  0  0  0
 16 19  1  0  0  0  0
 18 20  2  0  0  0  0
 18 21  1  0  0  0  0
 19 22  1  0  0  0  0
 21 23  1  0  0  0  0
 23 24  1  0  0  0  0
 23 25  1  6  0  0  0
 24 26  2  0  0  0  0
 24 27  1  0  0  0  0
 25 28  1  0  0  0  0
 26 29  1  0  0  0  0
 27 30  2  0  0  0  0
 28 31  1  0  0  0  0
 29 32  2  0  0  0  0
 31 33  1  0  0  0  0
 32 34  1  0  0  0  0
 33 35  1  0  0  0  0
 35 36  2  0  0  0  0
 35 37  1  0  0  0  0
 37 38  1  0  0  0  0
  7 10  1  0  0  0  0
 13 14  1  0  0  0  0
 22 23  1  0  0  0  0
 30 32  1  0  0  0  0
M  END
>  <MolRegNo>
1176480

>  <m>
=

>  <Value>
600

>  <Unit>
nM

>  <Type>
IC50

>  <pValue>
6.22

>  <Ligand Efficiency>
0

>  <Binding Efficiency>
0

>  <Surface Efficiency>
0

>  <Assay Index>
611448

>  <Assay Category>


>  <Assay Organism>
Homo sapiens

>  <Target ID>
17045

>  <Target Name>
Cytochrome P450 3A4

>  <Target Organism>
Homo sapiens

>  <Target Description>
Target is a single protein chain

>  <Sequence Accession>
P08684

>  <Reference>
J Med Chem 54 (17), 6050-6062 (2011)

>  <Pubmed ID>
21786805

>  <DOI>
10.1021/jm2005354

$$$$
1176478
Actelion Java MolfileCreator 1.0

 34 37  0  0  0  0  0  0  0  0999 V2000
    0.0000   -0.0000   -0.0000 F   0  0  0  0  0  0  0  0  0  0  0  0
    0.0000   -1.4877   -0.0000 C   0  0  0  0  0  0  0  0  0  0  0  0
   -1.2957   -2.2315   -0.0000 C   0  0  0  0  0  0  0  0  0  0  0  0
    1.2837   -2.2195   -0.0000 C   0  0  0  0  0  0  0  0  0  0  0  0
   -2.6034   -1.4757   -0.0000 C   0  0  0  0  0  0  0  0  0  0  0  0
   -1.3077   -3.7192   -0.0000 C   0  0  0  0  0  0  0  0  0  0  0  0
    1.2837   -3.7192   -0.0000 C   0  0  0  0  0  0  0  0  0  0  0  0
   -3.9111   -2.2195   -0.0000 C   0  0  0  0  0  0  0  0  0  0  0  0
   -2.6274    0.0480   -0.0000 C   0  0  0  0  0  0  0  0  0  0  0  0
   -0.0240   -4.4510   -0.0000 C   0  0  0  0  0  0  0  0  0  0  0  0
    2.5674   -4.4510   -0.0000 F   0  0  0  0  0  0  0  0  0  0  0  0
   -5.2189   -1.4637   -0.0000 C   0  0  0  0  0  0  0  0  0  0  0  0
   -3.9351    0.8038   -0.0000 C   0  0  0  0  0  0  0  0  0  0  0  0
   -5.2189    0.0480   -0.0000 C   0  0  0  0  0  0  0  0  0  0  0  0
   -6.5266    0.8038   -0.0000 C   0  0  0  0  0  0  0  0  0  0  0  0
   -7.8343    0.0600   -0.0000 N   0  0  0  0  0  0  0  0  0  0  0  0
   -6.5386    2.3155   -0.0000 C   0  0  0  0  0  0  0  0  0  0  0  0
   -9.1300    0.8038   -0.0000 C   0  0  0  0  0  0  0  0  0  0  0  0
   -7.8343   -1.4517   -0.0000 C   0  0  0  0  0  0  0  0  0  0  0  0
   -9.1180    2.3155   -0.0000 O   0  0  0  0  0  0  0  0  0  0  0  0
  -10.4377    0.0600   -0.0000 O   0  0  0  0  0  0  0  0  0  0  0  0
   -9.1300   -2.1955   -0.0000 C   0  0  0  0  0  0  0  0  0  0  0  0
  -10.4377   -1.4277   -0.0000 C   0  0  0  0  0  0  0  0  0  0  0  0
  -11.9374   -1.4277   -0.0000 C   0  0  0  0  0  0  0  0  0  0  0  0
  -10.4497   -2.9154   -0.0000 C   0  0  0  0  0  0  0  0  0  0  0  0
  -12.6812   -2.6874   -0.0000 C   0  0  0  0  0  0  0  0  0  0  0  0
  -12.7052   -0.1080   -0.0000 C   0  0  0  0  0  0  0  0  0  0  0  0
   -9.1660   -3.6472   -0.0000 C   0  0  0  0  0  0  0  0  0  0  0  0
  -14.2169   -2.6994   -0.0000 C   0  0  0  0  0  0  0  0  0  0  0  0
  -14.2169   -0.1080   -0.0000 C   0  0  0  0  0  0  0  0  0  0  0  0
   -9.1780   -5.1349   -0.0000 C   0  0  0  0  0  0  0  0  0  0  0  0
  -14.9847   -1.3917   -0.0000 C   0  0  0  0  0  0  0  0  0  0  0  0
   -7.8943   -5.8667   -0.0000 N   0  0  0  0  0  0  0  0  0  0  0  0
  -16.4964   -1.3917   -0.0000 F   0  0  0  0  0  0  0  0  0  0  0  0
  1  2  1  0  0  0  0
  2  3  2  0  0  0  0
  2  4  1  0  0  0  0
  3  5  1  0  0  0  0
  3  6  1  0  0  0  0
  4  7  2  0  0  0  0
  5  8  2  0  0  0  0
  5  9  1  0  0  0  0
  6 10  2  0  0  0  0
  7 11  1  0  0  0  0
  8 12  1  0  0  0  0
  9 13  2  0  0  0  0
 12 14  2  0  0  0  0
 14 15  1  0  0  0  0
 15 16  1  6  0  0  0
 15 17  1  0  0  0  0
 16 18  1  0  0  0  0
 16 19  1  0  0  0  0
 18 20  2  0  0  0  0
 18 21  1  0  0  0  0
 19 22  1  0  0  0  0
 21 23  1  0  0  0  0
 23 24  1  0  0  0  0
 23 25  1  6  0  0  0
 24 26  2  0  0  0  0
 24 27  1  0  0  0  0
 25 28  1  0  0  0  0
 26 29  1  0  0  0  0
 27 30  2  0  0  0  0
 28 31  1  0  0  0  0
 29 32  2  0  0  0  0
 31 33  1  0  0  0  0
 32 34  1  0  0  0  0
  7 10  1  0  0  0  0
 13 14  1  0  0  0  0
 22 23  1  0  0  0  0
 30 32  1  0  0  0  0
M  END
>  <MolRegNo>
1176478

>  <m>
=

>  <Value>
2000

>  <Unit>
nM

>  <Type>
IC50

>  <pValue>
5.7

>  <Ligand Efficiency>
0

>  <Binding Efficiency>
0

>  <Surface Efficiency>
0

>  <Assay Index>
611448

>  <Assay Category>


>  <Assay Organism>
Homo sapiens

>  <Target ID>
17045

>  <Target Name>
Cytochrome P450 3A4

>  <Target Organism>
Homo sapiens

>  <Target Description>
Target is a single protein chain

>  <Sequence Accession>
P08684

>  <Reference>
J Med Chem 54 (17), 6050-6062 (2011)

>  <Pubmed ID>
21786805

>  <DOI>
10.1021/jm2005354

$$$$
1704638
Actelion Java MolfileCreator 1.0

 28 27  0  0  0  0  0  0  0  0999 V2000
    0.0000   -0.0000   -0.0000 Cl  0  0  0  0  0  0  0  0  0  0  0  0
    2.4718    0.1301   -0.0000 Cl  0  0  0  0  0  0  0  0  0  0  0  0
  -16.6523    4.5534   -0.0000 O   0  0  0  0  0  0  0  0  0  0  0  0
  -16.6523    3.3174   -0.0000 C   0  0  0  0  0  0  0  0  0  0  0  0
  -18.0183    2.5369   -0.0000 N   0  0  0  0  0  0  0  0  0  0  0  0
  -15.3025    2.5531   -0.0000 C   0  0  0  0  0  0  0  0  0  0  0  0
  -19.1241    3.1711   -0.0000 O   0  0  0  0  0  0  0  0  0  0  0  0
  -13.9691    3.3662   -0.0000 C   0  0  0  0  0  0  0  0  0  0  0  0
  -12.6193    2.6019   -0.0000 C   0  0  0  0  0  0  0  0  0  0  0  0
  -11.2696    3.4150   -0.0000 C   0  0  0  0  0  0  0  0  0  0  0  0
  -12.6356    1.0570   -0.0000 C   0  0  0  0  0  0  0  0  0  0  0  0
   -9.9361    2.6344   -0.0000 C   0  0  0  0  0  0  0  0  0  0  0  0
  -11.2858    0.2765   -0.0000 C   0  0  0  0  0  0  0  0  0  0  0  0
   -8.4562    3.1223   -0.0000 N   0  0  0  0  0  0  0  0  0  0  0  0
   -9.9523    1.0896   -0.0000 C   0  0  0  0  0  0  0  0  0  0  0  0
   -7.5618    1.9027   -0.0000 C   0  0  0  0  0  0  0  0  0  0  0  0
   -8.4725    0.6342   -0.0000 N   0  0  0  0  0  0  0  0  0  0  0  0
   -6.0169    1.9352   -0.0000 C   0  0  0  0  0  0  0  0  0  0  0  0
   -8.0009   -0.8456   -0.0000 C   0  0  0  0  0  0  0  0  0  0  0  0
   -5.2689    3.3174   -0.0000 C   0  0  0  0  0  0  0  0  0  0  0  0
   -6.4723   -1.1546   -0.0000 C   0  0  0  0  0  0  0  0  0  0  0  0
   -3.7077    3.3500   -0.0000 C   0  0  0  0  0  0  0  0  0  0  0  0
   -6.0007   -2.6344   -0.0000 N   0  0  0  0  0  0  0  0  0  0  0  0
   -3.1060    4.4558   -0.0000 C   0  0  0  0  0  0  0  0  0  0  0  0
   -4.4720   -2.9434   -0.0000 C   0  0  0  0  0  0  0  0  0  0  0  0
   -7.0577   -3.7890   -0.0000 C   0  0  0  0  0  0  0  0  0  0  0  0
   -4.0980   -4.1143   -0.0000 C   0  0  0  0  0  0  0  0  0  0  0  0
   -8.3099   -3.5126   -0.0000 C   0  0  0  0  0  0  0  0  0  0  0  0
  3  4  2  0  0  0  0
  4  5  1  0  0  0  0
  4  6  1  0  0  0  0
  5  7  1  0  0  0  0
  6  8  2  0  0  0  0
  8  9  1  0  0  0  0
  9 10  2  0  0  0  0
  9 11  1  0  0  0  0
 10 12  1  0  0  0  0
 11 13  2  0  0  0  0
 12 14  1  0  0  0  0
 12 15  2  0  0  0  0
 14 16  2  0  0  0  0
 15 17  1  0  0  0  0
 16 18  1  0  0  0  0
 17 19  1  0  0  0  0
 18 20  1  0  0  0  0
 19 21  1  0  0  0  0
 20 22  1  0  0  0  0
 21 23  1  0  0  0  0
 22 24  1  0  0  0  0
 23 25  1  0  0  0  0
 23 26  1  0  0  0  0
 25 27  1  0  0  0  0
 26 28  1  0  0  0  0
 13 15  1  0  0  0  0
 16 17  1  0  0  0  0
M  END
>  <MolRegNo>
1704638

>  <m>
=

>  <Value>
2730

>  <Unit>
nM

>  <Type>
IC50

>  <pValue>
5.56

>  <Ligand Efficiency>
0

>  <Binding Efficiency>
0

>  <Surface Efficiency>
0

>  <Assay Index>
611787

>  <Assay Category>


>  <Assay Organism>


>  <Target ID>
17045

>  <Target Name>
Cytochrome P450 3A4

>  <Target Organism>
Homo sapiens

>  <Target Description>
Target is a single protein chain

>  <Sequence Accession>
P08684

>  <Reference>
J Med Chem 54 (13), 4694-4720 (2011)

>  <Pubmed ID>
21634430

>  <DOI>
10.1021/jm2003552

$$$$
1177103
Actelion Java MolfileCreator 1.0

 28 29  0  0  0  0  0  0  0  0999 V2000
    0.0000   -0.0000   -0.0000 O   0  0  0  0  0  0  0  0  0  0  0  0
    0.0000   -1.2730   -0.0000 C   0  0  0  0  0  0  0  0  0  0  0  0
   -1.3990   -2.0796   -0.0000 N   0  0  0  0  0  0  0  0  0  0  0  0
    1.3864   -2.0544   -0.0000 C   0  0  0  0  0  0  0  0  0  0  0  0
   -2.5334   -1.4368   -0.0000 O   0  0  0  0  0  0  0  0  0  0  0  0
    2.7603   -1.2226   -0.0000 C   0  0  0  0  0  0  0  0  0  0  0  0
    4.1467   -2.0040   -0.0000 C   0  0  0  0  0  0  0  0  0  0  0  0
    5.5331   -1.1722   -0.0000 C   0  0  0  0  0  0  0  0  0  0  0  0
    4.1341   -3.5921   -0.0000 C   0  0  0  0  0  0  0  0  0  0  0  0
    6.9070   -1.9788   -0.0000 C   0  0  0  0  0  0  0  0  0  0  0  0
    5.5205   -4.3988   -0.0000 C   0  0  0  0  0  0  0  0  0  0  0  0
    8.4194   -1.4747   -0.0000 N   0  0  0  0  0  0  0  0  0  0  0  0
    6.8944   -3.5669   -0.0000 C   0  0  0  0  0  0  0  0  0  0  0  0
    9.3395   -2.7224   -0.0000 C   0  0  0  0  0  0  0  0  0  0  0  0
    8.4068   -4.0459   -0.0000 N   0  0  0  0  0  0  0  0  0  0  0  0
   10.9276   -2.6846   -0.0000 C   0  0  0  0  0  0  0  0  0  0  0  0
    8.8984   -5.5583   -0.0000 C   0  0  0  0  0  0  0  0  0  0  0  0
   11.6964   -1.2730   -0.0000 C   0  0  0  0  0  0  0  0  0  0  0  0
   10.4613   -5.8734   -0.0000 C   0  0  0  0  0  0  0  0  0  0  0  0
   12.9694   -1.2478   -0.0000 C   0  0  0  0  0  0  0  0  0  0  0  0
   11.0284   -0.1639   -0.0000 C   0  0  0  0  0  0  0  0  0  0  0  0
   12.3140   -0.1386   -0.0000 C   0  0  0  0  0  0  0  0  0  0  0  0
   10.9528   -7.3859   -0.0000 C   0  0  0  0  0  0  0  0  0  0  0  0
   10.0453   -4.6382   -0.0000 C   0  0  0  0  0  0  0  0  0  0  0  0
   11.3057   -4.9029   -0.0000 C   0  0  0  0  0  0  0  0  0  0  0  0
   12.5157   -7.7010   -0.0000 N   0  0  0  0  0  0  0  0  0  0  0  0
   12.9064   -8.9110   -0.0000 C   0  0  0  0  0  0  0  0  0  0  0  0
   13.3602   -6.7305   -0.0000 C   0  0  0  0  0  0  0  0  0  0  0  0
  1  2  2  0  0  0  0
  2  3  1  0  0  0  0
  2  4  1  0  0  0  0
  3  5  1  0  0  0  0
  4  6  2  0  0  0  0
  6  7  1  0  0  0  0
  7  8  2  0  0  0  0
  7  9  1  0  0  0  0
  8 10  1  0  0  0  0
  9 11  2  0  0  0  0
 10 12  1  0  0  0  0
 10 13  2  0  0  0  0
 12 14  2  0  0  0  0
 13 15  1  0  0  0  0
 14 16  1  0  0  0  0
 15 17  1  0  0  0  0
 16 18  1  0  0  0  0
 17 19  1  0  0  0  0
 18 20  1  0  0  0  0
 18 21  1  0  0  0  0
 18 22  1  0  0  0  0
 19 23  1  0  0  0  0
 19 24  1  0  0  0  0
 19 25  1  0  0  0  0
 23 26  1  0  0  0  0
 26 27  1  0  0  0  0
 26 28  1  0  0  0  0
 11 13  1  0  0  0  0
 14 15  1  0  0  0  0
M  END
>  <MolRegNo>
1177103

>  <m>
=

>  <Value>
2280

>  <Unit>
nM

>  <Type>
IC50

>  <pValue>
5.64

>  <Ligand Efficiency>
0

>  <Binding Efficiency>
0

>  <Surface Efficiency>
0

>  <Assay Index>
611787

>  <Assay Category>


>  <Assay Organism>


>  <Target ID>
17045

>  <Target Name>
Cytochrome P450 3A4

>  <Target Organism>
Homo sapiens

>  <Target Description>
Target is a single protein chain

>  <Sequence Accession>
P08684

>  <Reference>
J Med Chem 54 (13), 4694-4720 (2011)

>  <Pubmed ID>
21634430

>  <DOI>
10.1021/jm2003552

$$$$
1177130
Actelion Java MolfileCreator 1.0

 26 27  0  0  0  0  0  0  0  0999 V2000
    0.0000   -0.0000   -0.0000 O   0  0  0  0  0  0  0  0  0  0  0  0
    0.0000   -1.2445   -0.0000 C   0  0  0  0  0  0  0  0  0  0  0  0
   -1.3554   -2.0209   -0.0000 N   0  0  0  0  0  0  0  0  0  0  0  0
    1.3554   -2.0085   -0.0000 C   0  0  0  0  0  0  0  0  0  0  0  0
   -2.4521   -1.3924   -0.0000 O   0  0  0  0  0  0  0  0  0  0  0  0
    2.6863   -1.2076   -0.0000 C   0  0  0  0  0  0  0  0  0  0  0  0
    4.0417   -1.9716   -0.0000 C   0  0  0  0  0  0  0  0  0  0  0  0
    5.3972   -1.1583   -0.0000 C   0  0  0  0  0  0  0  0  0  0  0  0
    4.0294   -3.5242   -0.0000 C   0  0  0  0  0  0  0  0  0  0  0  0
    6.7403   -1.9469   -0.0000 C   0  0  0  0  0  0  0  0  0  0  0  0
    5.3848   -4.3128   -0.0000 C   0  0  0  0  0  0  0  0  0  0  0  0
    8.2066   -1.4540   -0.0000 N   0  0  0  0  0  0  0  0  0  0  0  0
    6.7280   -3.4995   -0.0000 C   0  0  0  0  0  0  0  0  0  0  0  0
    9.1062   -2.6739   -0.0000 C   0  0  0  0  0  0  0  0  0  0  0  0
    8.1943   -3.9678   -0.0000 N   0  0  0  0  0  0  0  0  0  0  0  0
   10.6588   -2.6370   -0.0000 C   0  0  0  0  0  0  0  0  0  0  0  0
    8.6749   -5.4341   -0.0000 C   0  0  0  0  0  0  0  0  0  0  0  0
   11.4104   -1.2569   -0.0000 C   0  0  0  0  0  0  0  0  0  0  0  0
   10.1905   -5.7422   -0.0000 C   0  0  0  0  0  0  0  0  0  0  0  0
   12.9630   -1.2199   -0.0000 C   0  0  0  0  0  0  0  0  0  0  0  0
   10.6711   -7.2208   -0.0000 N   0  0  0  0  0  0  0  0  0  0  0  0
   13.7147    0.1602   -0.0000 C   0  0  0  0  0  0  0  0  0  0  0  0
   11.8787   -7.4673   -0.0000 C   0  0  0  0  0  0  0  0  0  0  0  0
    9.8208   -8.1450   -0.0000 C   0  0  0  0  0  0  0  0  0  0  0  0
   15.2673    0.1972   -0.0000 C   0  0  0  0  0  0  0  0  0  0  0  0
   15.8711    1.3062   -0.0000 C   0  0  0  0  0  0  0  0  0  0  0  0
  1  2  2  0  0  0  0
  2  3  1  0  0  0  0
  2  4  1  0  0  0  0
  3  5  1  0  0  0  0
  4  6  2  0  0  0  0
  6  7  1  0  0  0  0
  7  8  2  0  0  0  0
  7  9  1  0  0  0  0
  8 10  1  0  0  0  0
  9 11  2  0  0  0  0
 10 12  1  0  0  0  0
 10 13  2  0  0  0  0
 12 14  2  0  0  0  0
 13 15  1  0  0  0  0
 14 16  1  0  0  0  0
 15 17  1  0  0  0  0
 16 18  1  0  0  0  0
 17 19  1  0  0  0  0
 18 20  1  0  0  0  0
 19 21  1  0  0  0  0
 20 22  1  0  0  0  0
 21 23  1  0  0  0  0
 21 24  1  0  0  0  0
 22 25  1  0  0  0  0
 25 26  1  0  0  0  0
 11 13  1  0  0  0  0
 14 15  1  0  0  0  0
M  END
>  <MolRegNo>
1177130

>  <m>
=

>  <Value>
330

>  <Unit>
nM

>  <Type>
IC50

>  <pValue>
6.48

>  <Ligand Efficiency>
0

>  <Binding Efficiency>
0

>  <Surface Efficiency>
0

>  <Assay Index>
611787

>  <Assay Category>


>  <Assay Organism>


>  <Target ID>
17045

>  <Target Name>
Cytochrome P450 3A4

>  <Target Organism>
Homo sapiens

>  <Target Description>
Target is a single protein chain

>  <Sequence Accession>
P08684

>  <Reference>
J Med Chem 54 (13), 4694-4720 (2011)

>  <Pubmed ID>
21634430

>  <DOI>
10.1021/jm2003552

$$$$
1180380
Actelion Java MolfileCreator 1.0

 27 30  0  0  1  0  0  0  0  0999 V2000
    0.0000   -0.0000   -0.0000 S   0  0  0  0  0  0  0  0  0  0  0  0
    1.5002   -0.0119   -0.0000 O   0  0  0  0  0  0  0  0  0  0  0  0
    0.7620    1.3097   -0.0000 O   0  0  0  0  0  0  0  0  0  0  0  0
   -1.3097    0.7858   -0.0000 N   0  0  0  0  0  0  0  0  0  0  0  0
   -0.0357   -1.5002   -0.0000 C   0  0  0  0  0  0  0  0  0  0  0  0
   -1.2978    2.3099   -0.0000 C   0  0  0  0  0  0  0  0  0  0  0  0
   -2.6076    3.0957   -0.0000 C   0  0  0  0  0  0  0  0  0  0  0  0
   -3.9411    2.3694   -0.0000 C   0  0  0  0  0  0  0  0  0  0  0  0
   -2.6076    4.6198   -0.0000 C   0  0  0  0  0  0  0  0  0  0  0  0
   -5.2509    3.1434   -0.0000 C   0  0  0  0  0  0  0  0  0  0  0  0
   -3.9173    5.4056   -0.0000 C   0  0  0  0  0  0  0  0  0  0  0  0
   -5.2389    4.6674   -0.0000 C   0  0  0  0  0  0  0  0  0  0  0  0
   -6.5487    5.4414   -0.0000 N   0  0  0  0  0  0  0  0  0  0  0  0
   -7.8703    4.7151   -0.0000 C   0  0  0  0  0  0  0  0  0  0  0  0
   -8.0489    3.2743   -0.0000 S   0  0  0  0  0  0  0  0  0  0  0  0
   -9.2158    5.3342   -0.0000 N   0  0  0  0  0  0  0  0  0  0  0  0
   -9.5015    3.0005   -0.0000 C   0  0  0  0  0  0  0  0  0  0  0  0
  -10.2159    4.2626   -0.0000 C   0  0  0  0  0  0  0  0  0  0  0  0
  -10.1207    1.5717   -0.0000 C   0  0  0  0  0  0  0  0  0  0  0  0
  -11.6805    4.5841   -0.0000 C   0  0  0  0  0  0  0  0  0  0  0  0
  -11.5971    1.2026   -0.0000 C   0  0  0  0  0  0  0  0  0  0  0  0
  -12.8116    3.6673   -0.0000 C   0  0  0  0  0  0  0  0  0  0  0  0
  -11.9305    6.0248   -0.0000 C   0  0  0  0  0  0  0  0  0  0  0  0
  -12.7997    2.1313   -0.0000 S   0  0  0  0  0  0  0  0  0  0  0  0
  -14.1809    4.1793   -0.0000 C   0  0  0  0  0  0  0  0  0  0  0  0
  -13.3117    6.5487   -0.0000 C   0  0  0  0  0  0  0  0  0  0  0  0
  -14.4428    5.6200   -0.0000 C   0  0  0  0  0  0  0  0  0  0  0  0
  1  2  2  0  0  0  0
  1  3  2  0  0  0  0
  1  4  1  0  0  0  0
  1  5  1  0  0  0  0
  4  6  1  0  0  0  0
  7  6  1  1  0  0  0
  7  8  1  0  0  0  0
  7  9  1  0  0  0  0
  8 10  1  0  0  0  0
  9 11  1  0  0  0  0
 10 12  1  0  0  0  0
 12 13  1  6  0  0  0
 13 14  1  0  0  0  0
 14 15  1  0  0  0  0
 14 16  2  0  0  0  0
 15 17  1  0  0  0  0
 16 18  1  0  0  0  0
 17 19  1  0  0  0  0
 18 20  1  0  0  0  0
 19 21  1  0  0  0  0
 20 22  2  0  0  0  0
 20 23  1  0  0  0  0
 21 24  1  0  0  0  0
 22 25  1  0  0  0  0
 23 26  2  0  0  0  0
 25 27  2  0  0  0  0
 11 12  1  0  0  0  0
 17 18  2  0  0  0  0
 22 24  1  0  0  0  0
 26 27  1  0  0  0  0
M  END
>  <MolRegNo>
1180380

>  <m>
=

>  <Value>
4100

>  <Unit>
nM

>  <Type>
IC50

>  <pValue>
5.39

>  <Ligand Efficiency>
0

>  <Binding Efficiency>
0

>  <Surface Efficiency>
0

>  <Assay Index>
613516

>  <Assay Category>


>  <Assay Organism>


>  <Target ID>
17045

>  <Target Name>
Cytochrome P450 3A4

>  <Target Organism>
Homo sapiens

>  <Target Description>
Target is a single protein chain

>  <Sequence Accession>
P08684

>  <Reference>
Bioorg Med Chem Lett 21 (18), 5436-5441 (2011)

>  <Pubmed ID>
21782428

>  <DOI>
10.1016/j.bmcl.2011.06.124

$$$$
1178841
Actelion Java MolfileCreator 1.0

 34 38  0  0  1  0  0  0  0  0999 V2000
    0.0000   -0.0000   -0.0000 S   0  0  0  0  0  0  0  0  0  0  0  0
    0.8665    1.2225   -0.0000 C   0  0  0  0  0  0  0  0  0  0  0  0
   -1.4362    0.4748   -0.0000 C   0  0  0  0  0  0  0  0  0  0  0  0
   -0.0237    2.4570   -0.0000 C   0  0  0  0  0  0  0  0  0  0  0  0
    2.3620    1.2344   -0.0000 C   0  0  0  0  0  0  0  0  0  0  0  0
   -1.4481    1.9941   -0.0000 N   0  0  0  0  0  0  0  0  0  0  0  0
    3.0979    2.5400   -0.0000 C   0  0  0  0  0  0  0  0  0  0  0  0
    3.0979   -0.0712   -0.0000 C   0  0  0  0  0  0  0  0  0  0  0  0
    4.5934    2.5519   -0.0000 C   0  0  0  0  0  0  0  0  0  0  0  0
    4.5816   -0.0593   -0.0000 C   0  0  0  0  0  0  0  0  0  0  0  0
    5.3293    1.2582   -0.0000 C   0  0  0  0  0  0  0  0  0  0  0  0
    6.8249    1.2700   -0.0000 N   0  0  0  0  0  0  0  0  0  0  0  0
    7.8813    0.2136   -0.0000 C   0  0  0  0  0  0  0  0  0  0  0  0
    7.8813    2.3383   -0.0000 C   0  0  0  0  0  0  0  0  0  0  0  0
    8.9376    1.2819   -0.0000 C   0  0  0  0  0  0  0  0  0  0  0  0
   10.4332    1.2938   -0.0000 N   0  0  0  0  0  0  0  0  0  0  0  0
   11.1691   -0.0000   -0.0000 C   0  0  0  0  0  0  0  0  0  0  0  0
   10.3976   -1.2819   -0.0000 O   0  0  0  0  0  0  0  0  0  0  0  0
   12.6646    0.0119   -0.0000 C   0  0  0  0  0  0  0  0  0  0  0  0
   13.4005   -1.2819   -0.0000 N   0  0  0  0  0  0  0  0  0  0  0  0
   14.8961   -1.2700   -0.0000 C   0  0  0  0  0  0  0  0  0  0  0  0
   15.7625   -2.4688   -0.0000 N   0  0  0  0  0  0  0  0  0  0  0  0
   15.7744   -0.0356   -0.0000 C   0  0  0  0  0  0  0  0  0  0  0  0
   17.1868   -1.9941   -0.0000 N   0  0  0  0  0  0  0  0  0  0  0  0
   17.1868   -0.4866   -0.0000 C   0  0  0  0  0  0  0  0  0  0  0  0
   15.4539    1.4362   -0.0000 C   0  0  0  0  0  0  0  0  0  0  0  0
   18.3856   -2.8724   -0.0000 C   0  0  0  0  0  0  0  0  0  0  0  0
   18.2907    0.5223   -0.0000 C   0  0  0  0  0  0  0  0  0  0  0  0
   16.5459    2.4451   -0.0000 C   0  0  0  0  0  0  0  0  0  0  0  0
   17.9702    1.9941   -0.0000 C   0  0  0  0  0  0  0  0  0  0  0  0
   16.2136    3.9288   -0.0000 C   0  0  0  0  0  0  0  0  0  0  0  0
   17.3174    4.9495   -0.0000 F   0  0  0  0  0  0  0  0  0  0  0  0
   14.7774    4.4035   -0.0000 F   0  0  0  0  0  0  0  0  0  0  0  0
   15.7981    5.4006   -0.0000 F   0  0  0  0  0  0  0  0  0  0  0  0
  1  2  1  0  0  0  0
  1  3  1  0  0  0  0
  2  4  2  0  0  0  0
  5  2  1  6  0  0  0
  3  6  2  0  0  0  0
  5  7  1  0  0  0  0
  5  8  1  0  0  0  0
  7  9  1  0  0  0  0
  8 10  1  0  0  0  0
  9 11  1  0  0  0  0
 11 12  1  6  0  0  0
 12 13  1  0  0  0  0
 12 14  1  0  0  0  0
 13 15  1  0  0  0  0
 15 16  1  0  0  0  0
 16 17  1  0  0  0  0
 17 18  2  0  0  0  0
 17 19  1  0  0  0  0
 19 20  1  0  0  0  0
 20 21  1  0  0  0  0
 21 22  2  0  0  0  0
 21 23  1  0  0  0  0
 22 24  1  0  0  0  0
 23 25  2  0  0  0  0
 23 26  1  0  0  0  0
 24 27  1  0  0  0  0
 25 28  1  0  0  0  0
 26 29  2  0  0  0  0
 28 30  2  0  0  0  0
 29 31  1  0  0  0  0
 31 32  1  0  0  0  0
 31 33  1  0  0  0  0
 31 34  1  0  0  0  0
  4  6  1  0  0  0  0
 10 11  1  0  0  0  0
 14 15  1  0  0  0  0
 24 25  1  0  0  0  0
 29 30  1  0  0  0  0
M  END
>  <MolRegNo>
1178841

>  <m>
=

>  <Value>
6800

>  <Unit>
nM

>  <Type>
IC50

>  <pValue>
5.17

>  <Ligand Efficiency>
0

>  <Binding Efficiency>
0

>  <Surface Efficiency>
0

>  <Assay Index>
615718

>  <Assay Category>


>  <Assay Organism>


>  <Target ID>
17045

>  <Target Name>
Cytochrome P450 3A4

>  <Target Organism>
Homo sapiens

>  <Target Description>
Target is a single protein chain

>  <Sequence Accession>
P08684

>  <Reference>
Bioorg Med Chem Lett 21 (20), 6042-6048 (2011)

>  <Pubmed ID>
21917454

>  <DOI>
10.1016/j.bmcl.2011.08.074

$$$$
1179542
Actelion Java MolfileCreator 1.0

 52 54  0  0  0  0  0  0  0  0999 V2000
    0.0000   -0.0000   -0.0000 F   0  0  0  0  0  0  0  0  0  0  0  0
   -1.5112    0.0118   -0.0000 C   0  0  0  0  0  0  0  0  0  0  0  0
   -2.2668   -1.2751   -0.0000 C   0  0  0  0  0  0  0  0  0  0  0  0
   -2.2787    1.3105   -0.0000 C   0  0  0  0  0  0  0  0  0  0  0  0
   -3.7781   -1.2633   -0.0000 N   0  0  0  0  0  0  0  0  0  0  0  0
   -3.7781    1.3223   -0.0000 C   0  0  0  0  0  0  0  0  0  0  0  0
   -4.5337    0.0472   -0.0000 C   0  0  0  0  0  0  0  0  0  0  0  0
   -4.5337    2.6210   -0.0000 C   0  0  0  0  0  0  0  0  0  0  0  0
   -6.0449    2.6328   -0.0000 C   0  0  0  0  0  0  0  0  0  0  0  0
   -3.8017    3.9316   -0.0000 C   0  0  0  0  0  0  0  0  0  0  0  0
   -6.8005    3.9434   -0.0000 C   0  0  0  0  0  0  0  0  0  0  0  0
   -4.5573    5.2303   -0.0000 C   0  0  0  0  0  0  0  0  0  0  0  0
   -6.0567    5.2539   -0.0000 C   0  0  0  0  0  0  0  0  0  0  0  0
   -6.8123    6.5644   -0.0000 C   0  0  0  0  0  0  0  0  0  0  0  0
   -6.0803    7.8749   -0.0000 C   0  0  0  0  0  0  0  0  0  0  0  0
   -4.5927    7.8867   -0.0000 N   0  0  0  0  0  0  0  0  0  0  0  0
   -6.8360    9.1854   -0.0000 C   0  0  0  0  0  0  0  0  0  0  0  0
   -3.8607    9.1972   -0.0000 C   0  0  0  0  0  0  0  0  0  0  0  0
   -6.1040   10.4960   -0.0000 O   0  0  0  0  0  0  0  0  0  0  0  0
   -8.3472    9.1972   -0.0000 C   0  0  0  0  0  0  0  0  0  0  0  0
   -4.6163   10.5078   -0.0000 O   0  0  0  0  0  0  0  0  0  0  0  0
   -2.3731    9.2091   -0.0000 C   0  0  0  0  0  0  0  0  0  0  0  0
   -9.1028    7.9103   -0.0000 C   0  0  0  0  0  0  0  0  0  0  0  0
   -1.6411    7.9221   -0.0000 N   0  0  0  0  0  0  0  0  0  0  0  0
   -1.6411   10.5196   -0.0000 C   0  0  0  0  0  0  0  0  0  0  0  0
  -10.6140    7.9221   -0.0000 N   0  0  0  0  0  0  0  0  0  0  0  0
   -8.3708    6.6234   -0.0000 C   0  0  0  0  0  0  0  0  0  0  0  0
   -2.3967    6.6352   -0.0000 C   0  0  0  0  0  0  0  0  0  0  0  0
   -0.1535   10.5314   -0.0000 C   0  0  0  0  0  0  0  0  0  0  0  0
   -2.3967   11.8301   -0.0000 C   0  0  0  0  0  0  0  0  0  0  0  0
   -0.9091   11.8419   -0.0000 C   0  0  0  0  0  0  0  0  0  0  0  0
  -11.3696    9.2327   -0.0000 C   0  0  0  0  0  0  0  0  0  0  0  0
   -9.1264    5.3365   -0.0000 C   0  0  0  0  0  0  0  0  0  0  0  0
   -3.9079    6.6470   -0.0000 O   0  0  0  0  0  0  0  0  0  0  0  0
   -1.6647    5.3483   -0.0000 O   0  0  0  0  0  0  0  0  0  0  0  0
  -10.6376   10.5432   -0.0000 O   0  0  0  0  0  0  0  0  0  0  0  0
  -12.8809    9.2445   -0.0000 C   0  0  0  0  0  0  0  0  0  0  0  0
  -10.6376    5.3483   -0.0000 C   0  0  0  0  0  0  0  0  0  0  0  0
   -8.3944    4.0614   -0.0000 C   0  0  0  0  0  0  0  0  0  0  0  0
   -0.1771    5.3601   -0.0000 C   0  0  0  0  0  0  0  0  0  0  0  0
  -13.6365   10.5550   -0.0000 N   0  0  0  0  0  0  0  0  0  0  0  0
  -13.6365    7.9576   -0.0000 C   0  0  0  0  0  0  0  0  0  0  0  0
  -11.3933    4.0732   -0.0000 C   0  0  0  0  0  0  0  0  0  0  0  0
   -9.1500    2.7745   -0.0000 C   0  0  0  0  0  0  0  0  0  0  0  0
  -15.1477   10.5668   -0.0000 C   0  0  0  0  0  0  0  0  0  0  0  0
  -15.1477    7.9694   -0.0000 C   0  0  0  0  0  0  0  0  0  0  0  0
  -12.9045    6.6707   -0.0000 C   0  0  0  0  0  0  0  0  0  0  0  0
  -14.4039    6.6943   -0.0000 C   0  0  0  0  0  0  0  0  0  0  0  0
  -10.6613    2.7863   -0.0000 C   0  0  0  0  0  0  0  0  0  0  0  0
  -15.9033    9.2799   -0.0000 O   0  0  0  0  0  0  0  0  0  0  0  0
  -15.9033   11.8773   -0.0000 O   0  0  0  0  0  0  0  0  0  0  0  0
  -17.4146   11.8891   -0.0000 C   0  0  0  0  0  0  0  0  0  0  0  0
  1  2  1  0  0  0  0
  2  3  2  0  0  0  0
  2  4  1  0  0  0  0
  3  5  1  0  0  0  0
  4  6  2  0  0  0  0
  5  7  2  0  0  0  0
  6  8  1  0  0  0  0
  8  9  2  0  0  0  0
  8 10  1  0  0  0  0
  9 11  1  0  0  0  0
 10 12  2  0  0  0  0
 11 13  2  0  0  0  0
 13 14  1  0  0  0  0
 14 15  1  0  0  0  0
 15 16  1  1  0  0  0
 15 17  1  0  0  0  0
 16 18  1  0  0  0  0
 17 19  1  6  0  0  0
 17 20  1  0  0  0  0
 18 21  2  0  0  0  0
 18 22  1  0  0  0  0
 20 23  1  0  0  0  0
 22 24  1  6  0  0  0
 22 25  1  0  0  0  0
 23 26  1  6  0  0  0
 23 27  1  0  0  0  0
 24 28  1  0  0  0  0
 25 29  1  0  0  0  0
 25 30  1  0  0  0  0
 25 31  1  0  0  0  0
 26 32  1  0  0  0  0
 27 33  1  0  0  0  0
 28 34  2  0  0  0  0
 28 35  1  0  0  0  0
 32 36  2  0  0  0  0
 32 37  1  0  0  0  0
 33 38  2  0  0  0  0
 33 39  1  0  0  0  0
 35 40  1  0  0  0  0
 37 41  1  6  0  0  0
 37 42  1  0  0  0  0
 38 43  1  0  0  0  0
 39 44  2  0  0  0  0
 41 45  1  0  0  0  0
 42 46  1  0  0  0  0
 42 47  1  0  0  0  0
 42 48  1  0  0  0  0
 43 49  2  0  0  0  0
 45 50  2  0  0  0  0
 45 51  1  0  0  0  0
 51 52  1  0  0  0  0
  6  7  1  0  0  0  0
 12 13  1  0  0  0  0
 44 49  1  0  0  0  0
M  END
>  <MolRegNo>
1179542

>  <m>
=

>  <Value>
140

>  <Unit>
nM

>  <Type>
IC50

>  <pValue>
6.85

>  <Ligand Efficiency>
0

>  <Binding Efficiency>
0

>  <Surface Efficiency>
0

>  <Assay Index>
615312

>  <Assay Category>


>  <Assay Organism>


>  <Target ID>
17045

>  <Target Name>
Cytochrome P450 3A4

>  <Target Organism>
Homo sapiens

>  <Target Description>
Target is a single protein chain

>  <Sequence Accession>
P08684

>  <Reference>
J Med Chem 54 (20), 7094-7104 (2011)

>  <Pubmed ID>
21899332

>  <DOI>
10.1021/jm201109t

$$$$
1180277
Actelion Java MolfileCreator 1.0

 33 36  0  0  0  0  0  0  0  0999 V2000
    0.0000   -0.0000   -0.0000 O   0  0  0  0  0  0  0  0  0  0  0  0
    1.4204   -0.4536   -0.0000 N   0  0  0  0  0  0  0  0  0  0  0  0
   -0.8952   -1.2056   -0.0000 C   0  0  0  0  0  0  0  0  0  0  0  0
    1.4085   -1.9456   -0.0000 C   0  0  0  0  0  0  0  0  0  0  0  0
   -0.0239   -2.4111   -0.0000 N   0  0  0  0  0  0  0  0  0  0  0  0
   -2.4111   -1.1936   -0.0000 C   0  0  0  0  0  0  0  0  0  0  0  0
    2.6141   -2.8170   -0.0000 C   0  0  0  0  0  0  0  0  0  0  0  0
   -3.1751    0.1194   -0.0000 C   0  0  0  0  0  0  0  0  0  0  0  0
   -3.1751   -2.4708   -0.0000 C   0  0  0  0  0  0  0  0  0  0  0  0
    3.9032   -2.0650   -0.0000 C   0  0  0  0  0  0  0  0  0  0  0  0
    2.5783   -4.3090   -0.0000 C   0  0  0  0  0  0  0  0  0  0  0  0
   -4.6910    0.1313   -0.0000 C   0  0  0  0  0  0  0  0  0  0  0  0
   -4.6791   -2.4589   -0.0000 C   0  0  0  0  0  0  0  0  0  0  0  0
    5.1804   -2.8170   -0.0000 C   0  0  0  0  0  0  0  0  0  0  0  0
    3.9032   -0.5491   -0.0000 C   0  0  0  0  0  0  0  0  0  0  0  0
    3.8554   -5.0610   -0.0000 C   0  0  0  0  0  0  0  0  0  0  0  0
   -5.4549    1.4443   -0.0000 C   0  0  0  0  0  0  0  0  0  0  0  0
   -5.4430   -1.1459   -0.0000 C   0  0  0  0  0  0  0  0  0  0  0  0
    5.1565   -4.3210   -0.0000 C   0  0  0  0  0  0  0  0  0  0  0  0
    6.4814   -2.0531   -0.0000 C   0  0  0  0  0  0  0  0  0  0  0  0
   -6.2188    2.7573   -0.0000 N   0  0  0  0  0  0  0  0  0  0  0  0
   -6.9589   -1.1340   -0.0000 O   0  0  0  0  0  0  0  0  0  0  0  0
    6.4456   -5.0730   -0.0000 C   0  0  0  0  0  0  0  0  0  0  0  0
    7.7825   -2.8170   -0.0000 C   0  0  0  0  0  0  0  0  0  0  0  0
   -7.7228   -2.4231   -0.0000 C   0  0  0  0  0  0  0  0  0  0  0  0
    7.7586   -4.3210   -0.0000 N   0  0  0  0  0  0  0  0  0  0  0  0
   -9.2387   -2.4111   -0.0000 C   0  0  0  0  0  0  0  0  0  0  0  0
   -6.9828   -3.7122   -0.0000 C   0  0  0  0  0  0  0  0  0  0  0  0
    9.0358   -5.0730   -0.0000 C   0  0  0  0  0  0  0  0  0  0  0  0
    9.0120   -6.5650   -0.0000 C   0  0  0  0  0  0  0  0  0  0  0  0
   10.3369   -4.3210   -0.0000 C   0  0  0  0  0  0  0  0  0  0  0  0
   10.2891   -7.3170   -0.0000 O   0  0  0  0  0  0  0  0  0  0  0  0
   11.6141   -5.0730   -0.0000 O   0  0  0  0  0  0  0  0  0  0  0  0
  1  2  1  0  0  0  0
  1  3  1  0  0  0  0
  2  4  2  0  0  0  0
  3  5  2  0  0  0  0
  3  6  1  0  0  0  0
  4  7  1  0  0  0  0
  6  8  2  0  0  0  0
  6  9  1  0  0  0  0
  7 10  2  0  0  0  0
  7 11  1  0  0  0  0
  8 12  1  0  0  0  0
  9 13  2  0  0  0  0
 10 14  1  0  0  0  0
 10 15  1  0  0  0  0
 11 16  2  0  0  0  0
 12 17  1  0  0  0  0
 12 18  2  0  0  0  0
 14 19  2  0  0  0  0
 14 20  1  0  0  0  0
 17 21  3  0  0  0  0
 18 22  1  0  0  0  0
 19 23  1  0  0  0  0
 20 24  1  0  0  0  0
 22 25  1  0  0  0  0
 23 26  1  0  0  0  0
 25 27  1  0  0  0  0
 25 28  1  0  0  0  0
 26 29  1  0  0  0  0
 29 30  1  0  0  0  0
 29 31  1  0  0  0  0
 30 32  1  0  0  0  0
 31 33  1  0  0  0  0
  4  5  1  0  0  0  0
 13 18  1  0  0  0  0
 16 19  1  0  0  0  0
 24 26  1  0  0  0  0
M  END
>  <MolRegNo>
1180277

>  <m>
=

>  <Value>
15300

>  <Unit>
nM

>  <Type>
IC50

>  <pValue>
4.82

>  <Ligand Efficiency>
0

>  <Binding Efficiency>
0

>  <Surface Efficiency>
0

>  <Assay Index>
613168

>  <Assay Category>


>  <Assay Organism>


>  <Target ID>
17045

>  <Target Name>
Cytochrome P450 3A4

>  <Target Organism>
Homo sapiens

>  <Target Description>
Target is a single protein chain

>  <Sequence Accession>
P08684

>  <Reference>
J Med Chem 54 (19), 6724-6733 (2011)

>  <Pubmed ID>
21838322

>  <DOI>
10.1021/jm200609t

$$$$
1631607
Actelion Java MolfileCreator 1.0

 26 27  0  0  0  0  0  0  0  0999 V2000
    0.0000   -0.0000   -0.0000 Cl  0  0  0  0  0  0  0  0  0  0  0  0
    2.0956    3.0386   -0.0000 Cl  0  0  0  0  0  0  0  0  0  0  0  0
  -13.4119    1.0478   -0.0000 S   0  0  0  0  0  0  0  0  0  0  0  0
  -12.2069    0.1703   -0.0000 C   0  0  0  0  0  0  0  0  0  0  0  0
  -14.6300    0.1834   -0.0000 C   0  0  0  0  0  0  0  0  0  0  0  0
  -10.9103    0.9299   -0.0000 C   0  0  0  0  0  0  0  0  0  0  0  0
  -12.6915   -1.2443   -0.0000 C   0  0  0  0  0  0  0  0  0  0  0  0
  -14.1846   -1.2312   -0.0000 C   0  0  0  0  0  0  0  0  0  0  0  0
  -10.9233    2.4492   -0.0000 N   0  0  0  0  0  0  0  0  0  0  0  0
   -9.6267    0.1965   -0.0000 N   0  0  0  0  0  0  0  0  0  0  0  0
   -8.3300    0.9561   -0.0000 C   0  0  0  0  0  0  0  0  0  0  0  0
   -7.0465    0.2096   -0.0000 C   0  0  0  0  0  0  0  0  0  0  0  0
   -8.3431    2.4623   -0.0000 C   0  0  0  0  0  0  0  0  0  0  0  0
   -5.7629    0.9692   -0.0000 C   0  0  0  0  0  0  0  0  0  0  0  0
   -7.0596    3.2351   -0.0000 C   0  0  0  0  0  0  0  0  0  0  0  0
   -4.3615    0.5108   -0.0000 N   0  0  0  0  0  0  0  0  0  0  0  0
   -5.7629    2.4885   -0.0000 C   0  0  0  0  0  0  0  0  0  0  0  0
   -3.4839    1.7289   -0.0000 C   0  0  0  0  0  0  0  0  0  0  0  0
   -4.3484    2.9469   -0.0000 C   0  0  0  0  0  0  0  0  0  0  0  0
   -3.8900    4.3877   -0.0000 C   0  0  0  0  0  0  0  0  0  0  0  0
   -4.8985    5.5272   -0.0000 C   0  0  0  0  0  0  0  0  0  0  0  0
   -2.4230    4.7020   -0.0000 C   0  0  0  0  0  0  0  0  0  0  0  0
   -4.4270    6.9679   -0.0000 C   0  0  0  0  0  0  0  0  0  0  0  0
   -1.9646    6.1296   -0.0000 C   0  0  0  0  0  0  0  0  0  0  0  0
   -2.9600    7.2822   -0.0000 N   0  0  0  0  0  0  0  0  0  0  0  0
   -2.4885    8.7230   -0.0000 C   0  0  0  0  0  0  0  0  0  0  0  0
  3  4  1  0  0  0  0
  3  5  1  0  0  0  0
  4  6  1  0  0  0  0
  4  7  2  0  0  0  0
  5  8  2  0  0  0  0
  6  9  2  0  0  0  0
  6 10  1  0  0  0  0
 10 11  1  0  0  0  0
 11 12  2  0  0  0  0
 11 13  1  0  0  0  0
 12 14  1  0  0  0  0
 13 15  2  0  0  0  0
 14 16  1  0  0  0  0
 14 17  2  0  0  0  0
 16 18  1  0  0  0  0
 17 19  1  0  0  0  0
 19 20  1  0  0  0  0
 20 21  2  0  0  0  0
 20 22  1  0  0  0  0
 21 23  1  0  0  0  0
 22 24  1  0  0  0  0
 23 25  1  0  0  0  0
 25 26  1  0  0  0  0
  7  8  1  0  0  0  0
 15 17  1  0  0  0  0
 18 19  2  0  0  0  0
 24 25  1  0  0  0  0
M  END
>  <MolRegNo>
1631607

>  <m>
=

>  <Value>
74800

>  <Unit>
nM

>  <Type>
IC50

>  <pValue>
4.13

>  <Ligand Efficiency>
0

>  <Binding Efficiency>
0

>  <Surface Efficiency>
0

>  <Assay Index>
615353

>  <Assay Category>


>  <Assay Organism>


>  <Target ID>
17045

>  <Target Name>
Cytochrome P450 3A4

>  <Target Organism>
Homo sapiens

>  <Target Description>
Target is a single protein chain

>  <Sequence Accession>
P08684

>  <Reference>
J Med Chem 54 (20), 7408-7416 (2011)

>  <Pubmed ID>
21923116

>  <DOI>
10.1021/jm201063u

$$$$
1631608
Actelion Java MolfileCreator 1.0

 27 29  0  0  0  0  0  0  0  0999 V2000
    0.0000   -0.0000   -0.0000 Cl  0  0  0  0  0  0  0  0  0  0  0  0
    2.7977    5.0125   -0.0000 Cl  0  0  0  0  0  0  0  0  0  0  0  0
  -11.8901    4.3131   -0.0000 S   0  0  0  0  0  0  0  0  0  0  0  0
  -10.6806    3.4388   -0.0000 C   0  0  0  0  0  0  0  0  0  0  0  0
  -13.1286    3.4388   -0.0000 C   0  0  0  0  0  0  0  0  0  0  0  0
   -9.3838    4.1965   -0.0000 C   0  0  0  0  0  0  0  0  0  0  0  0
  -11.1615    2.0254   -0.0000 C   0  0  0  0  0  0  0  0  0  0  0  0
  -12.6769    2.0254   -0.0000 C   0  0  0  0  0  0  0  0  0  0  0  0
   -9.3984    5.7119   -0.0000 N   0  0  0  0  0  0  0  0  0  0  0  0
   -8.1016    3.4534   -0.0000 N   0  0  0  0  0  0  0  0  0  0  0  0
   -6.8047    4.2111   -0.0000 C   0  0  0  0  0  0  0  0  0  0  0  0
   -5.5225    3.4679   -0.0000 C   0  0  0  0  0  0  0  0  0  0  0  0
   -6.8193    5.7265   -0.0000 C   0  0  0  0  0  0  0  0  0  0  0  0
   -4.2548    4.2256   -0.0000 C   0  0  0  0  0  0  0  0  0  0  0  0
   -5.5370    6.4987   -0.0000 C   0  0  0  0  0  0  0  0  0  0  0  0
   -2.8414    3.7739   -0.0000 N   0  0  0  0  0  0  0  0  0  0  0  0
   -4.2548    5.7410   -0.0000 C   0  0  0  0  0  0  0  0  0  0  0  0
   -1.9671    4.9979   -0.0000 C   0  0  0  0  0  0  0  0  0  0  0  0
   -2.8414    6.2073   -0.0000 C   0  0  0  0  0  0  0  0  0  0  0  0
   -2.3751    7.6498   -0.0000 C   0  0  0  0  0  0  0  0  0  0  0  0
   -0.8888    8.3056   -0.0000 C   0  0  0  0  0  0  0  0  0  0  0  0
   -2.5791    9.0195   -0.0000 C   0  0  0  0  0  0  0  0  0  0  0  0
    0.4371    7.6936   -0.0000 C   0  0  0  0  0  0  0  0  0  0  0  0
   -0.6557   10.1707   -0.0000 C   0  0  0  0  0  0  0  0  0  0  0  0
   -1.1657    9.6607   -0.0000 N   0  0  0  0  0  0  0  0  0  0  0  0
    0.1457    9.0778   -0.0000 C   0  0  0  0  0  0  0  0  0  0  0  0
   -1.1074   11.2635   -0.0000 C   0  0  0  0  0  0  0  0  0  0  0  0
  3  4  1  0  0  0  0
  3  5  1  0  0  0  0
  4  6  1  0  0  0  0
  4  7  2  0  0  0  0
  5  8  2  0  0  0  0
  6  9  2  0  0  0  0
  6 10  1  0  0  0  0
 10 11  1  0  0  0  0
 11 12  2  0  0  0  0
 11 13  1  0  0  0  0
 12 14  1  0  0  0  0
 13 15  2  0  0  0  0
 14 16  1  0  0  0  0
 14 17  2  0  0  0  0
 16 18  1  0  0  0  0
 17 19  1  0  0  0  0
 19 20  1  0  0  0  0
 20 21  1  0  0  0  0
 20 22  1  0  0  0  0
 21 23  1  0  0  0  0
 21 24  1  0  0  0  0
 22 25  1  0  0  0  0
 23 26  1  0  0  0  0
 24 27  1  0  0  0  0
  7  8  1  0  0  0  0
 15 17  1  0  0  0  0
 18 19  2  0  0  0  0
 25 26  1  0  0  0  0
 25 27  1  0  0  0  0
M  END
>  <MolRegNo>
1631608

>  <m>
=

>  <Value>
1.0e5

>  <Unit>
nM

>  <Type>
IC50

>  <pValue>
4

>  <Ligand Efficiency>
0

>  <Binding Efficiency>
0

>  <Surface Efficiency>
0

>  <Assay Index>
615353

>  <Assay Category>


>  <Assay Organism>


>  <Target ID>
17045

>  <Target Name>
Cytochrome P450 3A4

>  <Target Organism>
Homo sapiens

>  <Target Description>
Target is a single protein chain

>  <Sequence Accession>
P08684

>  <Reference>
J Med Chem 54 (20), 7408-7416 (2011)

>  <Pubmed ID>
21923116

>  <DOI>
10.1021/jm201063u

$$$$
1178710
Actelion Java MolfileCreator 1.0

 34 36  0  0  0  0  0  0  0  0999 V2000
    0.0000   -0.0000   -0.0000 Cl  0  0  0  0  0  0  0  0  0  0  0  0
   -0.0118    1.5045   -0.0000 C   0  0  0  0  0  0  0  0  0  0  0  0
   -1.3150    2.2627   -0.0000 C   0  0  0  0  0  0  0  0  0  0  0  0
    1.2676    2.2627   -0.0000 C   0  0  0  0  0  0  0  0  0  0  0  0
   -2.6181    1.5282   -0.0000 N   0  0  0  0  0  0  0  0  0  0  0  0
   -1.3268    3.7672   -0.0000 C   0  0  0  0  0  0  0  0  0  0  0  0
    2.5470    1.5282   -0.0000 O   0  0  0  0  0  0  0  0  0  0  0  0
    1.2557    3.7672   -0.0000 C   0  0  0  0  0  0  0  0  0  0  0  0
   -2.6299    0.0474   -0.0000 C   0  0  0  0  0  0  0  0  0  0  0  0
   -2.6418    4.5254   -0.0000 Cl  0  0  0  0  0  0  0  0  0  0  0  0
   -0.0474    4.5254   -0.0000 C   0  0  0  0  0  0  0  0  0  0  0  0
    3.8264    2.2864   -0.0000 C   0  0  0  0  0  0  0  0  0  0  0  0
   -1.3505   -0.6871   -0.0000 O   0  0  0  0  0  0  0  0  0  0  0  0
   -3.9330   -0.6871   -0.0000 N   0  0  0  0  0  0  0  0  0  0  0  0
   -0.0711    6.0299   -0.0000 O   0  0  0  0  0  0  0  0  0  0  0  0
   -5.2361    0.0711   -0.0000 C   0  0  0  0  0  0  0  0  0  0  0  0
   -3.9449   -2.1679   -0.0000 C   0  0  0  0  0  0  0  0  0  0  0  0
    1.2083    6.7999   -0.0000 C   0  0  0  0  0  0  0  0  0  0  0  0
   -5.2480    1.5756   -0.0000 N   0  0  0  0  0  0  0  0  0  0  0  0
   -6.5393   -0.6634   -0.0000 C   0  0  0  0  0  0  0  0  0  0  0  0
   -6.5629    2.3338   -0.0000 C   0  0  0  0  0  0  0  0  0  0  0  0
   -7.8424    0.0948   -0.0000 C   0  0  0  0  0  0  0  0  0  0  0  0
   -7.8661    1.5874   -0.0000 N   0  0  0  0  0  0  0  0  0  0  0  0
   -9.1455   -0.6397   -0.0000 N   0  0  0  0  0  0  0  0  0  0  0  0
  -10.4486    0.1185   -0.0000 C   0  0  0  0  0  0  0  0  0  0  0  0
  -11.7635   -0.6160   -0.0000 C   0  0  0  0  0  0  0  0  0  0  0  0
  -10.4604    1.6348   -0.0000 C   0  0  0  0  0  0  0  0  0  0  0  0
  -13.0667    0.1422   -0.0000 C   0  0  0  0  0  0  0  0  0  0  0  0
  -11.7635    2.3930   -0.0000 C   0  0  0  0  0  0  0  0  0  0  0  0
  -13.0785    1.6467   -0.0000 C   0  0  0  0  0  0  0  0  0  0  0  0
  -14.3698   -0.5923   -0.0000 C   0  0  0  0  0  0  0  0  0  0  0  0
  -15.6729    0.1659   -0.0000 N   0  0  0  0  0  0  0  0  0  0  0  0
  -15.6847    1.6704   -0.0000 C   0  0  0  0  0  0  0  0  0  0  0  0
  -16.9760   -0.5686   -0.0000 C   0  0  0  0  0  0  0  0  0  0  0  0
  1  2  1  0  0  0  0
  2  3  2  0  0  0  0
  2  4  1  0  0  0  0
  3  5  1  0  0  0  0
  3  6  1  0  0  0  0
  4  7  1  0  0  0  0
  4  8  2  0  0  0  0
  5  9  1  0  0  0  0
  6 10  1  0  0  0  0
  6 11  2  0  0  0  0
  7 12  1  0  0  0  0
  9 13  2  0  0  0  0
  9 14  1  0  0  0  0
 11 15  1  0  0  0  0
 14 16  1  0  0  0  0
 14 17  1  0  0  0  0
 15 18  1  0  0  0  0
 16 19  2  0  0  0  0
 16 20  1  0  0  0  0
 19 21  1  0  0  0  0
 20 22  2  0  0  0  0
 21 23  2  0  0  0  0
 22 24  1  0  0  0  0
 24 25  1  0  0  0  0
 25 26  2  0  0  0  0
 25 27  1  0  0  0  0
 26 28  1  0  0  0  0
 27 29  2  0  0  0  0
 28 30  2  0  0  0  0
 28 31  1  0  0  0  0
 31 32  1  0  0  0  0
 32 33  1  0  0  0  0
 32 34  1  0  0  0  0
  8 11  1  0  0  0  0
 22 23  1  0  0  0  0
 29 30  1  0  0  0  0
M  END
>  <MolRegNo>
1178710

>  <m>
=

>  <Value>
2500

>  <Unit>
nM

>  <Type>
IC50

>  <pValue>
5.6

>  <Ligand Efficiency>
0

>  <Binding Efficiency>
0

>  <Surface Efficiency>
0

>  <Assay Index>
614664

>  <Assay Category>


>  <Assay Organism>


>  <Target ID>
17045

>  <Target Name>
Cytochrome P450 3A4

>  <Target Organism>
Homo sapiens

>  <Target Description>
Target is a single protein chain

>  <Sequence Accession>
P08684

>  <Reference>
J Med Chem 54 (20), 7066-7083 (2011)

>  <Pubmed ID>
21936542

>  <DOI>
10.1021/jm2006222

$$$$
1178708
Actelion Java MolfileCreator 1.0

 38 41  0  0  0  0  0  0  0  0999 V2000
    0.0000   -0.0000   -0.0000 Cl  0  0  0  0  0  0  0  0  0  0  0  0
   -0.0118    1.5031   -0.0000 C   0  0  0  0  0  0  0  0  0  0  0  0
   -1.3137    2.2605   -0.0000 C   0  0  0  0  0  0  0  0  0  0  0  0
    1.2664    2.2605   -0.0000 C   0  0  0  0  0  0  0  0  0  0  0  0
   -2.6156    1.5267   -0.0000 N   0  0  0  0  0  0  0  0  0  0  0  0
   -1.3255    3.7636   -0.0000 C   0  0  0  0  0  0  0  0  0  0  0  0
    2.5446    1.5267   -0.0000 O   0  0  0  0  0  0  0  0  0  0  0  0
    1.2545    3.7636   -0.0000 C   0  0  0  0  0  0  0  0  0  0  0  0
   -2.6274    0.0473   -0.0000 C   0  0  0  0  0  0  0  0  0  0  0  0
   -2.6392    4.5210   -0.0000 Cl  0  0  0  0  0  0  0  0  0  0  0  0
   -0.0473    4.5210   -0.0000 C   0  0  0  0  0  0  0  0  0  0  0  0
    3.8228    2.2842   -0.0000 C   0  0  0  0  0  0  0  0  0  0  0  0
   -1.3492   -0.6864   -0.0000 O   0  0  0  0  0  0  0  0  0  0  0  0
   -3.9293   -0.6864   -0.0000 N   0  0  0  0  0  0  0  0  0  0  0  0
   -0.0710    6.0241   -0.0000 O   0  0  0  0  0  0  0  0  0  0  0  0
   -5.2311    0.0710   -0.0000 C   0  0  0  0  0  0  0  0  0  0  0  0
   -3.9411   -2.1658   -0.0000 C   0  0  0  0  0  0  0  0  0  0  0  0
    1.2072    6.7934   -0.0000 C   0  0  0  0  0  0  0  0  0  0  0  0
   -5.2430    1.5741   -0.0000 N   0  0  0  0  0  0  0  0  0  0  0  0
   -6.5330   -0.6628   -0.0000 C   0  0  0  0  0  0  0  0  0  0  0  0
   -6.5567    2.3315   -0.0000 C   0  0  0  0  0  0  0  0  0  0  0  0
   -7.8349    0.0947   -0.0000 C   0  0  0  0  0  0  0  0  0  0  0  0
   -7.8585    1.5859   -0.0000 N   0  0  0  0  0  0  0  0  0  0  0  0
   -9.1367   -0.6391   -0.0000 N   0  0  0  0  0  0  0  0  0  0  0  0
  -10.4386    0.1184   -0.0000 C   0  0  0  0  0  0  0  0  0  0  0  0
  -11.7523   -0.6154   -0.0000 C   0  0  0  0  0  0  0  0  0  0  0  0
  -10.4504    1.6333   -0.0000 C   0  0  0  0  0  0  0  0  0  0  0  0
  -13.0542    0.1420   -0.0000 C   0  0  0  0  0  0  0  0  0  0  0  0
  -11.7523    2.3907   -0.0000 C   0  0  0  0  0  0  0  0  0  0  0  0
  -13.0660    1.6569   -0.0000 C   0  0  0  0  0  0  0  0  0  0  0  0
  -14.3797    2.4262   -0.0000 C   0  0  0  0  0  0  0  0  0  0  0  0
  -14.3915    3.9293   -0.0000 C   0  0  0  0  0  0  0  0  0  0  0  0
  -15.6816    1.6924   -0.0000 C   0  0  0  0  0  0  0  0  0  0  0  0
  -15.6934    4.6867   -0.0000 C   0  0  0  0  0  0  0  0  0  0  0  0
  -16.9834    2.4617   -0.0000 C   0  0  0  0  0  0  0  0  0  0  0  0
  -17.0071    3.9529   -0.0000 N   0  0  0  0  0  0  0  0  0  0  0  0
  -18.3090    4.7104   -0.0000 C   0  0  0  0  0  0  0  0  0  0  0  0
  -18.3208    6.2135   -0.0000 C   0  0  0  0  0  0  0  0  0  0  0  0
  1  2  1  0  0  0  0
  2  3  2  0  0  0  0
  2  4  1  0  0  0  0
  3  5  1  0  0  0  0
  3  6  1  0  0  0  0
  4  7  1  0  0  0  0
  4  8  2  0  0  0  0
  5  9  1  0  0  0  0
  6 10  1  0  0  0  0
  6 11  2  0  0  0  0
  7 12  1  0  0  0  0
  9 13  2  0  0  0  0
  9 14  1  0  0  0  0
 11 15  1  0  0  0  0
 14 16  1  0  0  0  0
 14 17  1  0  0  0  0
 15 18  1  0  0  0  0
 16 19  2  0  0  0  0
 16 20  1  0  0  0  0
 19 21  1  0  0  0  0
 20 22  2  0  0  0  0
 21 23  2  0  0  0  0
 22 24  1  0  0  0  0
 24 25  1  0  0  0  0
 25 26  2  0  0  0  0
 25 27  1  0  0  0  0
 26 28  1  0  0  0  0
 27 29  2  0  0  0  0
 28 30  2  0  0  0  0
 30 31  1  0  0  0  0
 31 32  1  0  0  0  0
 31 33  1  0  0  0  0
 32 34  1  0  0  0  0
 33 35  1  0  0  0  0
 34 36  1  0  0  0  0
 36 37  1  0  0  0  0
 37 38  1  0  0  0  0
  8 11  1  0  0  0  0
 22 23  1  0  0  0  0
 29 30  1  0  0  0  0
 35 36  1  0  0  0  0
M  END
>  <MolRegNo>
1178708

>  <m>
=

>  <Value>
6000

>  <Unit>
nM

>  <Type>
IC50

>  <pValue>
5.22

>  <Ligand Efficiency>
0

>  <Binding Efficiency>
0

>  <Surface Efficiency>
0

>  <Assay Index>
614664

>  <Assay Category>


>  <Assay Organism>


>  <Target ID>
17045

>  <Target Name>
Cytochrome P450 3A4

>  <Target Organism>
Homo sapiens

>  <Target Description>
Target is a single protein chain

>  <Sequence Accession>
P08684

>  <Reference>
J Med Chem 54 (20), 7066-7083 (2011)

>  <Pubmed ID>
21936542

>  <DOI>
10.1021/jm2006222

$$$$
1178706
Actelion Java MolfileCreator 1.0

 38 41  0  0  0  0  0  0  0  0999 V2000
    0.0000   -0.0000   -0.0000 Cl  0  0  0  0  0  0  0  0  0  0  0  0
   -0.0119    1.5055   -0.0000 C   0  0  0  0  0  0  0  0  0  0  0  0
   -1.3158    2.2641   -0.0000 C   0  0  0  0  0  0  0  0  0  0  0  0
    1.2684    2.2641   -0.0000 C   0  0  0  0  0  0  0  0  0  0  0  0
   -2.6197    1.5292   -0.0000 N   0  0  0  0  0  0  0  0  0  0  0  0
   -1.3276    3.7696   -0.0000 C   0  0  0  0  0  0  0  0  0  0  0  0
    2.5486    1.5292   -0.0000 O   0  0  0  0  0  0  0  0  0  0  0  0
    1.2565    3.7696   -0.0000 C   0  0  0  0  0  0  0  0  0  0  0  0
   -2.6316    0.0474   -0.0000 C   0  0  0  0  0  0  0  0  0  0  0  0
   -2.6434    4.5282   -0.0000 Cl  0  0  0  0  0  0  0  0  0  0  0  0
   -0.0474    4.5282   -0.0000 C   0  0  0  0  0  0  0  0  0  0  0  0
    3.8288    2.2878   -0.0000 C   0  0  0  0  0  0  0  0  0  0  0  0
   -1.3514   -0.6875   -0.0000 O   0  0  0  0  0  0  0  0  0  0  0  0
   -3.9355   -0.6875   -0.0000 N   0  0  0  0  0  0  0  0  0  0  0  0
   -0.0711    6.0337   -0.0000 O   0  0  0  0  0  0  0  0  0  0  0  0
   -5.2395    0.0711   -0.0000 C   0  0  0  0  0  0  0  0  0  0  0  0
   -3.9474   -2.1693   -0.0000 C   0  0  0  0  0  0  0  0  0  0  0  0
    1.2091    6.8042   -0.0000 C   0  0  0  0  0  0  0  0  0  0  0  0
   -5.2513    1.5766   -0.0000 N   0  0  0  0  0  0  0  0  0  0  0  0
   -6.5434   -0.6638   -0.0000 C   0  0  0  0  0  0  0  0  0  0  0  0
   -6.5671    2.3352   -0.0000 C   0  0  0  0  0  0  0  0  0  0  0  0
   -7.8474    0.0948   -0.0000 C   0  0  0  0  0  0  0  0  0  0  0  0
   -7.8711    1.5884   -0.0000 N   0  0  0  0  0  0  0  0  0  0  0  0
   -9.1513   -0.6401   -0.0000 N   0  0  0  0  0  0  0  0  0  0  0  0
  -10.4552    0.1185   -0.0000 C   0  0  0  0  0  0  0  0  0  0  0  0
  -11.7710   -0.6164   -0.0000 C   0  0  0  0  0  0  0  0  0  0  0  0
  -10.4671    1.6359   -0.0000 C   0  0  0  0  0  0  0  0  0  0  0  0
  -13.0750    0.1422   -0.0000 C   0  0  0  0  0  0  0  0  0  0  0  0
  -11.7710    2.3945   -0.0000 C   0  0  0  0  0  0  0  0  0  0  0  0
  -13.0868    1.6596   -0.0000 C   0  0  0  0  0  0  0  0  0  0  0  0
  -14.3908    2.4182   -0.0000 O   0  0  0  0  0  0  0  0  0  0  0  0
  -15.6947    1.6833   -0.0000 C   0  0  0  0  0  0  0  0  0  0  0  0
  -15.7066    0.2015   -0.0000 C   0  0  0  0  0  0  0  0  0  0  0  0
  -17.0105   -0.5334   -0.0000 N   0  0  0  0  0  0  0  0  0  0  0  0
  -18.3856    0.0830   -0.0000 C   0  0  0  0  0  0  0  0  0  0  0  0
  -17.1765   -2.0152   -0.0000 C   0  0  0  0  0  0  0  0  0  0  0  0
  -19.3932   -1.0194   -0.0000 C   0  0  0  0  0  0  0  0  0  0  0  0
  -18.6464   -2.3115   -0.0000 C   0  0  0  0  0  0  0  0  0  0  0  0
  1  2  1  0  0  0  0
  2  3  2  0  0  0  0
  2  4  1  0  0  0  0
  3  5  1  0  0  0  0
  3  6  1  0  0  0  0
  4  7  1  0  0  0  0
  4  8  2  0  0  0  0
  5  9  1  0  0  0  0
  6 10  1  0  0  0  0
  6 11  2  0  0  0  0
  7 12  1  0  0  0  0
  9 13  2  0  0  0  0
  9 14  1  0  0  0  0
 11 15  1  0  0  0  0
 14 16  1  0  0  0  0
 14 17  1  0  0  0  0
 15 18  1  0  0  0  0
 16 19  2  0  0  0  0
 16 20  1  0  0  0  0
 19 21  1  0  0  0  0
 20 22  2  0  0  0  0
 21 23  2  0  0  0  0
 22 24  1  0  0  0  0
 24 25  1  0  0  0  0
 25 26  2  0  0  0  0
 25 27  1  0  0  0  0
 26 28  1  0  0  0  0
 27 29  2  0  0  0  0
 28 30  2  0  0  0  0
 30 31  1  0  0  0  0
 31 32  1  0  0  0  0
 32 33  1  0  0  0  0
 33 34  1  0  0  0  0
 34 35  1  0  0  0  0
 34 36  1  0  0  0  0
 35 37  1  0  0  0  0
 36 38  1  0  0  0  0
  8 11  1  0  0  0  0
 22 23  1  0  0  0  0
 29 30  1  0  0  0  0
 37 38  1  0  0  0  0
M  END
>  <MolRegNo>
1178706

>  <m>
=

>  <Value>
2500

>  <Unit>
nM

>  <Type>
IC50

>  <pValue>
5.6

>  <Ligand Efficiency>
0

>  <Binding Efficiency>
0

>  <Surface Efficiency>
0

>  <Assay Index>
614664

>  <Assay Category>


>  <Assay Organism>


>  <Target ID>
17045

>  <Target Name>
Cytochrome P450 3A4

>  <Target Organism>
Homo sapiens

>  <Target Description>
Target is a single protein chain

>  <Sequence Accession>
P08684

>  <Reference>
J Med Chem 54 (20), 7066-7083 (2011)

>  <Pubmed ID>
21936542

>  <DOI>
10.1021/jm2006222

$$$$
1178709
Actelion Java MolfileCreator 1.0

 38 41  0  0  0  0  0  0  0  0999 V2000
    0.0000   -0.0000   -0.0000 Cl  0  0  0  0  0  0  0  0  0  0  0  0
   -0.0118    1.5034   -0.0000 C   0  0  0  0  0  0  0  0  0  0  0  0
   -1.3140    2.2610   -0.0000 C   0  0  0  0  0  0  0  0  0  0  0  0
    1.2666    2.2610   -0.0000 C   0  0  0  0  0  0  0  0  0  0  0  0
   -2.6161    1.5271   -0.0000 N   0  0  0  0  0  0  0  0  0  0  0  0
   -1.3258    3.7644   -0.0000 C   0  0  0  0  0  0  0  0  0  0  0  0
    2.5451    1.5271   -0.0000 O   0  0  0  0  0  0  0  0  0  0  0  0
    1.2548    3.7644   -0.0000 C   0  0  0  0  0  0  0  0  0  0  0  0
   -2.6280    0.0474   -0.0000 C   0  0  0  0  0  0  0  0  0  0  0  0
   -2.6398    4.5220   -0.0000 Cl  0  0  0  0  0  0  0  0  0  0  0  0
   -0.0474    4.5220   -0.0000 C   0  0  0  0  0  0  0  0  0  0  0  0
    3.8236    2.2847   -0.0000 C   0  0  0  0  0  0  0  0  0  0  0  0
   -1.3495   -0.6866   -0.0000 O   0  0  0  0  0  0  0  0  0  0  0  0
   -3.9301   -0.6866   -0.0000 N   0  0  0  0  0  0  0  0  0  0  0  0
   -0.0710    6.0253   -0.0000 O   0  0  0  0  0  0  0  0  0  0  0  0
   -5.2322    0.0710   -0.0000 C   0  0  0  0  0  0  0  0  0  0  0  0
   -3.9419   -2.1663   -0.0000 C   0  0  0  0  0  0  0  0  0  0  0  0
    1.2074    6.7948   -0.0000 C   0  0  0  0  0  0  0  0  0  0  0  0
   -5.2441    1.5744   -0.0000 N   0  0  0  0  0  0  0  0  0  0  0  0
   -6.5344   -0.6629   -0.0000 C   0  0  0  0  0  0  0  0  0  0  0  0
   -6.5580    2.3320   -0.0000 C   0  0  0  0  0  0  0  0  0  0  0  0
   -7.8365    0.0947   -0.0000 C   0  0  0  0  0  0  0  0  0  0  0  0
   -7.8602    1.5862   -0.0000 N   0  0  0  0  0  0  0  0  0  0  0  0
   -9.1386   -0.6392   -0.0000 N   0  0  0  0  0  0  0  0  0  0  0  0
  -10.4408    0.1184   -0.0000 C   0  0  0  0  0  0  0  0  0  0  0  0
  -11.7548   -0.6156   -0.0000 C   0  0  0  0  0  0  0  0  0  0  0  0
  -10.4526    1.6336   -0.0000 C   0  0  0  0  0  0  0  0  0  0  0  0
  -13.0569    0.1421   -0.0000 C   0  0  0  0  0  0  0  0  0  0  0  0
  -11.7548    2.3912   -0.0000 C   0  0  0  0  0  0  0  0  0  0  0  0
  -13.0687    1.6573   -0.0000 C   0  0  0  0  0  0  0  0  0  0  0  0
  -14.3590   -0.5919   -0.0000 C   0  0  0  0  0  0  0  0  0  0  0  0
  -15.6612    0.1657   -0.0000 N   0  0  0  0  0  0  0  0  0  0  0  0
  -15.6730    1.6691   -0.0000 C   0  0  0  0  0  0  0  0  0  0  0  0
  -16.9633   -0.5682   -0.0000 C   0  0  0  0  0  0  0  0  0  0  0  0
  -16.9751    2.4267   -0.0000 C   0  0  0  0  0  0  0  0  0  0  0  0
  -18.2654    0.2012   -0.0000 C   0  0  0  0  0  0  0  0  0  0  0  0
  -18.2891    1.7046   -0.0000 N   0  0  0  0  0  0  0  0  0  0  0  0
  -19.5913    2.4741   -0.0000 C   0  0  0  0  0  0  0  0  0  0  0  0
  1  2  1  0  0  0  0
  2  3  2  0  0  0  0
  2  4  1  0  0  0  0
  3  5  1  0  0  0  0
  3  6  1  0  0  0  0
  4  7  1  0  0  0  0
  4  8  2  0  0  0  0
  5  9  1  0  0  0  0
  6 10  1  0  0  0  0
  6 11  2  0  0  0  0
  7 12  1  0  0  0  0
  9 13  2  0  0  0  0
  9 14  1  0  0  0  0
 11 15  1  0  0  0  0
 14 16  1  0  0  0  0
 14 17  1  0  0  0  0
 15 18  1  0  0  0  0
 16 19  2  0  0  0  0
 16 20  1  0  0  0  0
 19 21  1  0  0  0  0
 20 22  2  0  0  0  0
 21 23  2  0  0  0  0
 22 24  1  0  0  0  0
 24 25  1  0  0  0  0
 25 26  2  0  0  0  0
 25 27  1  0  0  0  0
 26 28  1  0  0  0  0
 27 29  2  0  0  0  0
 28 30  2  0  0  0  0
 28 31  1  0  0  0  0
 31 32  1  0  0  0  0
 32 33  1  0  0  0  0
 32 34  1  0  0  0  0
 33 35  1  0  0  0  0
 34 36  1  0  0  0  0
 35 37  1  0  0  0  0
 37 38  1  0  0  0  0
  8 11  1  0  0  0  0
 22 23  1  0  0  0  0
 29 30  1  0  0  0  0
 36 37  1  0  0  0  0
M  END
>  <MolRegNo>
1178709

>  <m>
=

>  <Value>
500

>  <Unit>
nM

>  <Type>
IC50

>  <pValue>
6.3

>  <Ligand Efficiency>
0

>  <Binding Efficiency>
0

>  <Surface Efficiency>
0

>  <Assay Index>
614663

>  <Assay Category>


>  <Assay Organism>


>  <Target ID>
17045

>  <Target Name>
Cytochrome P450 3A4

>  <Target Organism>
Homo sapiens

>  <Target Description>
Target is a single protein chain

>  <Sequence Accession>
P08684

>  <Reference>
J Med Chem 54 (20), 7066-7083 (2011)

>  <Pubmed ID>
21936542

>  <DOI>
10.1021/jm2006222

$$$$
1178707
Actelion Java MolfileCreator 1.0

 36 38  0  0  0  0  0  0  0  0999 V2000
    0.0000   -0.0000   -0.0000 Cl  0  0  0  0  0  0  0  0  0  0  0  0
   -0.0119    1.5054   -0.0000 C   0  0  0  0  0  0  0  0  0  0  0  0
   -1.3158    2.2641   -0.0000 C   0  0  0  0  0  0  0  0  0  0  0  0
    1.2684    2.2641   -0.0000 C   0  0  0  0  0  0  0  0  0  0  0  0
   -2.6197    1.5291   -0.0000 N   0  0  0  0  0  0  0  0  0  0  0  0
   -1.3276    3.7695   -0.0000 C   0  0  0  0  0  0  0  0  0  0  0  0
    2.5486    1.5291   -0.0000 O   0  0  0  0  0  0  0  0  0  0  0  0
    1.2565    3.7695   -0.0000 C   0  0  0  0  0  0  0  0  0  0  0  0
   -2.6315    0.0474   -0.0000 C   0  0  0  0  0  0  0  0  0  0  0  0
   -2.6434    4.5282   -0.0000 Cl  0  0  0  0  0  0  0  0  0  0  0  0
   -0.0474    4.5282   -0.0000 C   0  0  0  0  0  0  0  0  0  0  0  0
    3.8288    2.2878   -0.0000 C   0  0  0  0  0  0  0  0  0  0  0  0
   -1.3513   -0.6875   -0.0000 O   0  0  0  0  0  0  0  0  0  0  0  0
   -3.9355   -0.6875   -0.0000 N   0  0  0  0  0  0  0  0  0  0  0  0
   -0.0711    6.0336   -0.0000 O   0  0  0  0  0  0  0  0  0  0  0  0
   -5.2394    0.0711   -0.0000 C   0  0  0  0  0  0  0  0  0  0  0  0
   -3.9473   -2.1692   -0.0000 C   0  0  0  0  0  0  0  0  0  0  0  0
    1.2091    6.8041   -0.0000 C   0  0  0  0  0  0  0  0  0  0  0  0
   -5.2512    1.5766   -0.0000 N   0  0  0  0  0  0  0  0  0  0  0  0
   -6.5433   -0.6638   -0.0000 C   0  0  0  0  0  0  0  0  0  0  0  0
   -6.5670    2.3352   -0.0000 C   0  0  0  0  0  0  0  0  0  0  0  0
   -7.8472    0.0948   -0.0000 C   0  0  0  0  0  0  0  0  0  0  0  0
   -7.8709    1.5884   -0.0000 N   0  0  0  0  0  0  0  0  0  0  0  0
   -9.1511   -0.6401   -0.0000 N   0  0  0  0  0  0  0  0  0  0  0  0
  -10.4550    0.1185   -0.0000 C   0  0  0  0  0  0  0  0  0  0  0  0
  -11.7708   -0.6164   -0.0000 C   0  0  0  0  0  0  0  0  0  0  0  0
  -10.4669    1.6358   -0.0000 C   0  0  0  0  0  0  0  0  0  0  0  0
  -13.0747    0.1422   -0.0000 C   0  0  0  0  0  0  0  0  0  0  0  0
  -11.7708    2.3945   -0.0000 C   0  0  0  0  0  0  0  0  0  0  0  0
  -13.0866    1.6477   -0.0000 C   0  0  0  0  0  0  0  0  0  0  0  0
  -14.3905    2.4063   -0.0000 C   0  0  0  0  0  0  0  0  0  0  0  0
  -15.6944    1.6714   -0.0000 C   0  0  0  0  0  0  0  0  0  0  0  0
  -15.7063    0.1897   -0.0000 C   0  0  0  0  0  0  0  0  0  0  0  0
  -17.0102   -0.5453   -0.0000 N   0  0  0  0  0  0  0  0  0  0  0  0
  -18.3141    0.2134   -0.0000 C   0  0  0  0  0  0  0  0  0  0  0  0
  -17.0221   -2.0270   -0.0000 C   0  0  0  0  0  0  0  0  0  0  0  0
  1  2  1  0  0  0  0
  2  3  2  0  0  0  0
  2  4  1  0  0  0  0
  3  5  1  0  0  0  0
  3  6  1  0  0  0  0
  4  7  1  0  0  0  0
  4  8  2  0  0  0  0
  5  9  1  0  0  0  0
  6 10  1  0  0  0  0
  6 11  2  0  0  0  0
  7 12  1  0  0  0  0
  9 13  2  0  0  0  0
  9 14  1  0  0  0  0
 11 15  1  0  0  0  0
 14 16  1  0  0  0  0
 14 17  1  0  0  0  0
 15 18  1  0  0  0  0
 16 19  2  0  0  0  0
 16 20  1  0  0  0  0
 19 21  1  0  0  0  0
 20 22  2  0  0  0  0
 21 23  2  0  0  0  0
 22 24  1  0  0  0  0
 24 25  1  0  0  0  0
 25 26  2  0  0  0  0
 25 27  1  0  0  0  0
 26 28  1  0  0  0  0
 27 29  2  0  0  0  0
 28 30  2  0  0  0  0
 30 31  1  0  0  0  0
 31 32  1  0  0  0  0
 32 33  1  0  0  0  0
 33 34  1  0  0  0  0
 34 35  1  0  0  0  0
 34 36  1  0  0  0  0
  8 11  1  0  0  0  0
 22 23  1  0  0  0  0
 29 30  1  0  0  0  0
M  END
>  <MolRegNo>
1178707

>  <m>
=

>  <Value>
1000

>  <Unit>
nM

>  <Type>
IC50

>  <pValue>
6

>  <Ligand Efficiency>
0

>  <Binding Efficiency>
0

>  <Surface Efficiency>
0

>  <Assay Index>
614663

>  <Assay Category>


>  <Assay Organism>


>  <Target ID>
17045

>  <Target Name>
Cytochrome P450 3A4

>  <Target Organism>
Homo sapiens

>  <Target Description>
Target is a single protein chain

>  <Sequence Accession>
P08684

>  <Reference>
J Med Chem 54 (20), 7066-7083 (2011)

>  <Pubmed ID>
21936542

>  <DOI>
10.1021/jm2006222

$$$$
1178705
Actelion Java MolfileCreator 1.0

 37 40  0  0  0  0  0  0  0  0999 V2000
    0.0000   -0.0000   -0.0000 Cl  0  0  0  0  0  0  0  0  0  0  0  0
   -0.0119    1.5051   -0.0000 C   0  0  0  0  0  0  0  0  0  0  0  0
   -1.3155    2.2635   -0.0000 C   0  0  0  0  0  0  0  0  0  0  0  0
    1.2680    2.2635   -0.0000 C   0  0  0  0  0  0  0  0  0  0  0  0
   -2.6191    1.5288   -0.0000 N   0  0  0  0  0  0  0  0  0  0  0  0
   -1.3273    3.7686   -0.0000 C   0  0  0  0  0  0  0  0  0  0  0  0
    2.5479    1.5288   -0.0000 O   0  0  0  0  0  0  0  0  0  0  0  0
    1.2562    3.7686   -0.0000 C   0  0  0  0  0  0  0  0  0  0  0  0
   -2.6309    0.0474   -0.0000 C   0  0  0  0  0  0  0  0  0  0  0  0
   -2.6428    4.5271   -0.0000 Cl  0  0  0  0  0  0  0  0  0  0  0  0
   -0.0474    4.5271   -0.0000 C   0  0  0  0  0  0  0  0  0  0  0  0
    3.8278    2.2872   -0.0000 C   0  0  0  0  0  0  0  0  0  0  0  0
   -1.3510   -0.6874   -0.0000 O   0  0  0  0  0  0  0  0  0  0  0  0
   -3.9345   -0.6874   -0.0000 N   0  0  0  0  0  0  0  0  0  0  0  0
   -0.0711    6.0321   -0.0000 O   0  0  0  0  0  0  0  0  0  0  0  0
   -5.2381    0.0711   -0.0000 C   0  0  0  0  0  0  0  0  0  0  0  0
   -3.9464   -2.1687   -0.0000 C   0  0  0  0  0  0  0  0  0  0  0  0
    1.2088    6.8024   -0.0000 C   0  0  0  0  0  0  0  0  0  0  0  0
   -5.2500    1.5762   -0.0000 N   0  0  0  0  0  0  0  0  0  0  0  0
   -6.5417   -0.6637   -0.0000 C   0  0  0  0  0  0  0  0  0  0  0  0
   -6.5654    2.3346   -0.0000 C   0  0  0  0  0  0  0  0  0  0  0  0
   -7.8453    0.0948   -0.0000 C   0  0  0  0  0  0  0  0  0  0  0  0
   -7.8690    1.5880   -0.0000 N   0  0  0  0  0  0  0  0  0  0  0  0
   -9.1489   -0.6399   -0.0000 N   0  0  0  0  0  0  0  0  0  0  0  0
  -10.4525    0.1185   -0.0000 C   0  0  0  0  0  0  0  0  0  0  0  0
  -11.7680   -0.6162   -0.0000 C   0  0  0  0  0  0  0  0  0  0  0  0
  -10.4644    1.6354   -0.0000 C   0  0  0  0  0  0  0  0  0  0  0  0
  -13.0716    0.1422   -0.0000 C   0  0  0  0  0  0  0  0  0  0  0  0
  -11.7680    2.3939   -0.0000 C   0  0  0  0  0  0  0  0  0  0  0  0
  -14.3752   -0.5925   -0.0000 N   0  0  0  0  0  0  0  0  0  0  0  0
  -13.0834    1.6473   -0.0000 C   0  0  0  0  0  0  0  0  0  0  0  0
  -15.6788    0.1659   -0.0000 C   0  0  0  0  0  0  0  0  0  0  0  0
  -14.3870   -2.0739   -0.0000 C   0  0  0  0  0  0  0  0  0  0  0  0
  -16.9824   -0.5570   -0.0000 C   0  0  0  0  0  0  0  0  0  0  0  0
  -15.7025   -2.8087   -0.0000 C   0  0  0  0  0  0  0  0  0  0  0  0
  -17.0061   -2.0384   -0.0000 N   0  0  0  0  0  0  0  0  0  0  0  0
  -18.3215   -2.7731   -0.0000 C   0  0  0  0  0  0  0  0  0  0  0  0
  1  2  1  0  0  0  0
  2  3  2  0  0  0  0
  2  4  1  0  0  0  0
  3  5  1  0  0  0  0
  3  6  1  0  0  0  0
  4  7  1  0  0  0  0
  4  8  2  0  0  0  0
  5  9  1  0  0  0  0
  6 10  1  0  0  0  0
  6 11  2  0  0  0  0
  7 12  1  0  0  0  0
  9 13  2  0  0  0  0
  9 14  1  0  0  0  0
 11 15  1  0  0  0  0
 14 16  1  0  0  0  0
 14 17  1  0  0  0  0
 15 18  1  0  0  0  0
 16 19  2  0  0  0  0
 16 20  1  0  0  0  0
 19 21  1  0  0  0  0
 20 22  2  0  0  0  0
 21 23  2  0  0  0  0
 22 24  1  0  0  0  0
 24 25  1  0  0  0  0
 25 26  2  0  0  0  0
 25 27  1  0  0  0  0
 26 28  1  0  0  0  0
 27 29  2  0  0  0  0
 28 30  1  0  0  0  0
 28 31  2  0  0  0  0
 30 32  1  0  0  0  0
 30 33  1  0  0  0  0
 32 34  1  0  0  0  0
 33 35  1  0  0  0  0
 34 36  1  0  0  0  0
 36 37  1  0  0  0  0
  8 11  1  0  0  0  0
 22 23  1  0  0  0  0
 29 31  1  0  0  0  0
 35 36  1  0  0  0  0
M  END
>  <MolRegNo>
1178705

>  <m>
=

>  <Value>
1100

>  <Unit>
nM

>  <Type>
IC50

>  <pValue>
5.96

>  <Ligand Efficiency>
0

>  <Binding Efficiency>
0

>  <Surface Efficiency>
0

>  <Assay Index>
614663

>  <Assay Category>


>  <Assay Organism>


>  <Target ID>
17045

>  <Target Name>
Cytochrome P450 3A4

>  <Target Organism>
Homo sapiens

>  <Target Description>
Target is a single protein chain

>  <Sequence Accession>
P08684

>  <Reference>
J Med Chem 54 (20), 7066-7083 (2011)

>  <Pubmed ID>
21936542

>  <DOI>
10.1021/jm2006222

$$$$
39781
Actelion Java MolfileCreator 1.0

 27 29  0  0  0  0  0  0  0  0999 V2000
    0.0000   -0.0000   -0.0000 F   0  0  0  0  0  0  0  0  0  0  0  0
    1.3742   -0.6042   -0.0000 C   0  0  0  0  0  0  0  0  0  0  0  0
    0.7227   -1.9666   -0.0000 F   0  0  0  0  0  0  0  0  0  0  0  0
    1.9666    0.7937   -0.0000 F   0  0  0  0  0  0  0  0  0  0  0  0
    2.7485   -1.1965   -0.0000 C   0  0  0  0  0  0  0  0  0  0  0  0
    3.0328   -2.6537   -0.0000 O   0  0  0  0  0  0  0  0  0  0  0  0
    4.0161   -0.4502   -0.0000 N   0  0  0  0  0  0  0  0  0  0  0  0
    4.5255   -2.8077   -0.0000 N   0  0  0  0  0  0  0  0  0  0  0  0
    5.1178   -1.4572   -0.0000 C   0  0  0  0  0  0  0  0  0  0  0  0
    6.4210   -0.6753   -0.0000 C   0  0  0  0  0  0  0  0  0  0  0  0
    6.4091    0.8293   -0.0000 C   0  0  0  0  0  0  0  0  0  0  0  0
    7.7123   -1.4335   -0.0000 C   0  0  0  0  0  0  0  0  0  0  0  0
    7.7004    1.6112   -0.0000 C   0  0  0  0  0  0  0  0  0  0  0  0
    9.0036   -0.6516   -0.0000 C   0  0  0  0  0  0  0  0  0  0  0  0
    8.9917    0.8530   -0.0000 C   0  0  0  0  0  0  0  0  0  0  0  0
    7.6886    3.1157   -0.0000 C   0  0  0  0  0  0  0  0  0  0  0  0
   10.2949   -1.3861   -0.0000 C   0  0  0  0  0  0  0  0  0  0  0  0
   10.3067    1.6349   -0.0000 O   0  0  0  0  0  0  0  0  0  0  0  0
   11.5980    0.8885   -0.0000 C   0  0  0  0  0  0  0  0  0  0  0  0
   12.8893    1.6586   -0.0000 C   0  0  0  0  0  0  0  0  0  0  0  0
   14.1925    0.9359   -0.0000 C   0  0  0  0  0  0  0  0  0  0  0  0
   15.4838    1.7178   -0.0000 C   0  0  0  0  0  0  0  0  0  0  0  0
   16.7751    0.9951   -0.0000 O   0  0  0  0  0  0  0  0  0  0  0  0
   15.7563    3.2105   -0.0000 C   0  0  0  0  0  0  0  0  0  0  0  0
   17.8532    2.0140   -0.0000 N   0  0  0  0  0  0  0  0  0  0  0  0
   17.2371    3.3763   -0.0000 C   0  0  0  0  0  0  0  0  0  0  0  0
   17.9716    4.7150   -0.0000 C   0  0  0  0  0  0  0  0  0  0  0  0
  1  2  1  0  0  0  0
  2  3  1  0  0  0  0
  2  4  1  0  0  0  0
  2  5  1  0  0  0  0
  5  6  1  0  0  0  0
  5  7  2  0  0  0  0
  6  8  1  0  0  0  0
  7  9  1  0  0  0  0
  9 10  1  0  0  0  0
 10 11  2  0  0  0  0
 10 12  1  0  0  0  0
 11 13  1  0  0  0  0
 12 14  2  0  0  0  0
 13 15  2  0  0  0  0
 13 16  1  0  0  0  0
 14 17  1  0  0  0  0
 15 18  1  0  0  0  0
 18 19  1  0  0  0  0
 19 20  1  0  0  0  0
 20 21  1  0  0  0  0
 21 22  1  0  0  0  0
 22 23  1  0  0  0  0
 22 24  2  0  0  0  0
 23 25  1  0  0  0  0
 24 26  1  0  0  0  0
 26 27  1  0  0  0  0
  8  9  2  0  0  0  0
 14 15  1  0  0  0  0
 25 26  2  0  0  0  0
M  END
>  <MolRegNo>
39781

>  <m>
=

>  <Value>
6309.6

>  <Unit>
nM

>  <Type>
IC50

>  <pValue>
5.2

>  <Ligand Efficiency>
0

>  <Binding Efficiency>
0

>  <Surface Efficiency>
0

>  <Assay Index>
615243

>  <Assay Category>


>  <Assay Organism>


>  <Target ID>
17045

>  <Target Name>
Cytochrome P450 3A4

>  <Target Organism>
Homo sapiens

>  <Target Description>
Target is a single protein chain

>  <Sequence Accession>
P08684

>  <Reference>
Bioorg Med Chem Lett 21 (20), 6031-6035 (2011)

>  <Pubmed ID>
21907579

>  <DOI>
10.1016/j.bmcl.2011.08.083

$$$$
116848
Actelion Java MolfileCreator 1.0

 33 37  0  0  0  0  0  0  0  0999 V2000
    0.0000   -0.0000   -0.0000 O   0  0  0  0  0  0  0  0  0  0  0  0
    1.2867    0.7625   -0.0000 C   0  0  0  0  0  0  0  0  0  0  0  0
    2.5734    0.0238   -0.0000 O   0  0  0  0  0  0  0  0  0  0  0  0
    1.2748    2.2756   -0.0000 C   0  0  0  0  0  0  0  0  0  0  0  0
    2.5734    3.0381   -0.0000 C   0  0  0  0  0  0  0  0  0  0  0  0
   -0.0357    3.0381   -0.0000 C   0  0  0  0  0  0  0  0  0  0  0  0
    4.0031    2.5853   -0.0000 N   0  0  0  0  0  0  0  0  0  0  0  0
    2.5496    4.5630   -0.0000 C   0  0  0  0  0  0  0  0  0  0  0  0
   -0.0477    4.5511   -0.0000 C   0  0  0  0  0  0  0  0  0  0  0  0
    4.8728    3.8244   -0.0000 C   0  0  0  0  0  0  0  0  0  0  0  0
    4.4677    1.1676   -0.0000 C   0  0  0  0  0  0  0  0  0  0  0  0
    3.9793    5.0515   -0.0000 N   0  0  0  0  0  0  0  0  0  0  0  0
    1.2271    5.3136   -0.0000 C   0  0  0  0  0  0  0  0  0  0  0  0
    6.3621    3.8482   -0.0000 O   0  0  0  0  0  0  0  0  0  0  0  0
    5.9212    0.8816   -0.0000 C   0  0  0  0  0  0  0  0  0  0  0  0
    7.0888    5.1707   -0.0000 C   0  0  0  0  0  0  0  0  0  0  0  0
    6.3740   -0.5242   -0.0000 C   0  0  0  0  0  0  0  0  0  0  0  0
    6.8982    2.0135   -0.0000 C   0  0  0  0  0  0  0  0  0  0  0  0
    6.3144    6.4812   -0.0000 C   0  0  0  0  0  0  0  0  0  0  0  0
    7.8275   -0.8101   -0.0000 C   0  0  0  0  0  0  0  0  0  0  0  0
    8.3517    1.7275   -0.0000 C   0  0  0  0  0  0  0  0  0  0  0  0
    8.8163    0.3217   -0.0000 C   0  0  0  0  0  0  0  0  0  0  0  0
   10.2698    0.0357   -0.0000 C   0  0  0  0  0  0  0  0  0  0  0  0
   11.2468    1.1676   -0.0000 C   0  0  0  0  0  0  0  0  0  0  0  0
   10.7345   -1.3820   -0.0000 C   0  0  0  0  0  0  0  0  0  0  0  0
   10.7583    2.6092   -0.0000 C   0  0  0  0  0  0  0  0  0  0  0  0
   12.7003    0.8816   -0.0000 C   0  0  0  0  0  0  0  0  0  0  0  0
   12.1880   -1.6680   -0.0000 C   0  0  0  0  0  0  0  0  0  0  0  0
   11.6161    3.8482   -0.0000 N   0  0  0  0  0  0  0  0  0  0  0  0
    9.3167    3.0738   -0.0000 N   0  0  0  0  0  0  0  0  0  0  0  0
   13.1649   -0.5361   -0.0000 C   0  0  0  0  0  0  0  0  0  0  0  0
   10.7106    5.0634   -0.0000 N   0  0  0  0  0  0  0  0  0  0  0  0
    9.2929    4.5869   -0.0000 N   0  0  0  0  0  0  0  0  0  0  0  0
  1  2  2  0  0  0  0
  2  3  1  0  0  0  0
  2  4  1  0  0  0  0
  4  5  2  0  0  0  0
  4  6  1  0  0  0  0
  5  7  1  0  0  0  0
  5  8  1  0  0  0  0
  6  9  2  0  0  0  0
  7 10  1  0  0  0  0
  7 11  1  0  0  0  0
  8 12  1  0  0  0  0
  8 13  2  0  0  0  0
 10 14  1  0  0  0  0
 11 15  1  0  0  0  0
 14 16  1  0  0  0  0
 15 17  2  0  0  0  0
 15 18  1  0  0  0  0
 16 19  1  0  0  0  0
 17 20  1  0  0  0  0
 18 21  2  0  0  0  0
 20 22  2  0  0  0  0
 22 23  1  0  0  0  0
 23 24  2  0  0  0  0
 23 25  1  0  0  0  0
 24 26  1  0  0  0  0
 24 27  1  0  0  0  0
 25 28  2  0  0  0  0
 26 29  2  0  0  0  0
 26 30  1  0  0  0  0
 27 31  2  0  0  0  0
 29 32  1  0  0  0  0
 30 33  1  0  0  0  0
  9 13  1  0  0  0  0
 10 12  2  0  0  0  0
 21 22  1  0  0  0  0
 28 31  1  0  0  0  0
 32 33  2  0  0  0  0
M  END
>  <MolRegNo>
116848

>  <m>
=

>  <Value>
9000

>  <Unit>
nM

>  <Type>
IC50

>  <pValue>
5.05

>  <Ligand Efficiency>
0.21

>  <Binding Efficiency>
11.46

>  <Surface Efficiency>
4.25

>  <Assay Index>
617148

>  <Assay Category>


>  <Assay Organism>


>  <Target ID>
17045

>  <Target Name>
Cytochrome P450 3A4

>  <Target Organism>
Homo sapiens

>  <Target Description>
Target is a single protein chain

>  <Sequence Accession>
P08684

>  <Reference>


>  <Pubmed ID>


>  <DOI>


$$$$
809724
Actelion Java MolfileCreator 1.0

 41 47  0  0  1  0  0  0  0  0999 V2000
    0.0000   -0.0000   -0.0000 O   0  0  0  0  0  0  0  0  0  0  0  0
   -0.3164    1.4723   -0.0000 C   0  0  0  0  0  0  0  0  0  0  0  0
    0.7787    2.4822   -0.0000 N   0  0  0  0  0  0  0  0  0  0  0  0
   -1.7400    1.9468   -0.0000 C   0  0  0  0  0  0  0  0  0  0  0  0
    0.4624    3.9545   -0.0000 C   0  0  0  0  0  0  0  0  0  0  0  0
    2.2510    2.3362   -0.0000 C   0  0  0  0  0  0  0  0  0  0  0  0
   -2.0563    3.4191   -0.0000 N   0  0  0  0  0  0  0  0  0  0  0  0
   -2.8594    0.9613   -0.0000 C   0  0  0  0  0  0  0  0  0  0  0  0
   -0.9613    4.4291   -0.0000 C   0  0  0  0  0  0  0  0  0  0  0  0
    1.7400    4.7089   -0.0000 C   0  0  0  0  0  0  0  0  0  0  0  0
    2.8473    3.7112   -0.0000 C   0  0  0  0  0  0  0  0  0  0  0  0
   -3.3583    4.1735   -0.0000 C   0  0  0  0  0  0  0  0  0  0  0  0
   -2.5674   -0.4867   -0.0000 C   0  0  0  0  0  0  0  0  0  0  0  0
   -4.2830    1.4358   -0.0000 C   0  0  0  0  0  0  0  0  0  0  0  0
   -1.5818    5.8040   -0.0000 O   0  0  0  0  0  0  0  0  0  0  0  0
    0.0243    5.5485   -0.0000 O   0  0  0  0  0  0  0  0  0  0  0  0
   -4.7333    3.5773   -0.0000 O   0  0  0  0  0  0  0  0  0  0  0  0
   -3.0541    5.6458   -0.0000 C   0  0  0  0  0  0  0  0  0  0  0  0
   -3.0663    7.1425   -0.0000 N   0  0  0  0  0  0  0  0  0  0  0  0
   -4.5507    5.8162   -0.0000 C   0  0  0  0  0  0  0  0  0  0  0  0
   -1.7887    7.8969   -0.0000 C   0  0  0  0  0  0  0  0  0  0  0  0
   -5.4390    4.6237   -0.0000 C   0  0  0  0  0  0  0  0  0  0  0  0
   -5.1713    7.1911   -0.0000 C   0  0  0  0  0  0  0  0  0  0  0  0
   -0.5110    7.1668   -0.0000 O   0  0  0  0  0  0  0  0  0  0  0  0
   -1.8008    9.3935   -0.0000 C   0  0  0  0  0  0  0  0  0  0  0  0
   -0.5232   10.1479   -0.0000 C   0  0  0  0  0  0  0  0  0  0  0  0
   -3.1028   10.1479   -0.0000 C   0  0  0  0  0  0  0  0  0  0  0  0
   -0.5354   11.6445   -0.0000 C   0  0  0  0  0  0  0  0  0  0  0  0
   -3.1149   11.6445   -0.0000 N   0  0  0  0  0  0  0  0  0  0  0  0
    0.7422   12.3989   -0.0000 C   0  0  0  0  0  0  0  0  0  0  0  0
   -1.8373   12.3989   -0.0000 C   0  0  0  0  0  0  0  0  0  0  0  0
   -4.4169   12.3989   -0.0000 C   0  0  0  0  0  0  0  0  0  0  0  0
    0.7301   13.8956   -0.0000 C   0  0  0  0  0  0  0  0  0  0  0  0
    2.0198   11.6689   -0.0000 C   0  0  0  0  0  0  0  0  0  0  0  0
   -1.8495   13.8956   -0.0000 C   0  0  0  0  0  0  0  0  0  0  0  0
    2.0077   14.6500   -0.0000 C   0  0  0  0  0  0  0  0  0  0  0  0
   -0.5719   14.6500   -0.0000 C   0  0  0  0  0  0  0  0  0  0  0  0
    3.2975   12.4233   -0.0000 C   0  0  0  0  0  0  0  0  0  0  0  0
    1.4480   16.2074   -0.0000 N   0  0  0  0  0  0  0  0  0  0  0  0
    3.2853   13.9199   -0.0000 C   0  0  0  0  0  0  0  0  0  0  0  0
   -0.0487   16.2074   -0.0000 C   0  0  0  0  0  0  0  0  0  0  0  0
  1  2  2  0  0  0  0
  2  3  1  0  0  0  0
  2  4  1  0  0  0  0
  5  3  1  6  0  0  0
  3  6  1  0  0  0  0
  4  7  1  0  0  0  0
  4  8  1  6  0  0  0
  5  9  1  0  0  0  0
  5 10  1  0  0  0  0
  6 11  1  0  0  0  0
  7 12  1  0  0  0  0
  8 13  1  0  0  0  0
  8 14  1  0  0  0  0
  9 15  1  0  0  0  0
  9 16  1  6  0  0  0
 12 17  2  0  0  0  0
 12 18  1  0  0  0  0
 18 19  1  6  0  0  0
 18 20  1  0  0  0  0
 19 21  1  0  0  0  0
 20 22  1  0  0  0  0
 20 23  1  0  0  0  0
 21 24  2  0  0  0  0
 25 21  1  1  0  0  0
 25 26  1  0  0  0  0
 25 27  1  0  0  0  0
 26 28  2  0  0  0  0
 27 29  1  0  0  0  0
 28 30  1  0  0  0  0
 28 31  1  0  0  0  0
 29 32  1  0  0  0  0
 30 33  2  0  0  0  0
 30 34  1  0  0  0  0
 31 35  1  0  0  0  0
 33 36  1  0  0  0  0
 33 37  1  0  0  0  0
 34 38  2  0  0  0  0
 36 39  1  0  0  0  0
 36 40  2  0  0  0  0
 37 41  2  0  0  0  0
  7  9  1  0  0  0  0
 10 11  1  0  0  0  0
 15 18  1  0  0  0  0
 31 29  1  6  0  0  0
 35 37  1  0  0  0  0
 38 40  1  0  0  0  0
 39 41  1  0  0  0  0
M  END
>  <MolRegNo>
809724

>  <m>
=

>  <Value>
500

>  <Unit>
nM

>  <Type>
IC50

>  <pValue>
6.3

>  <Ligand Efficiency>
0.21

>  <Binding Efficiency>
11.22

>  <Surface Efficiency>
5.33

>  <Assay Index>
617148

>  <Assay Category>


>  <Assay Organism>


>  <Target ID>
17045

>  <Target Name>
Cytochrome P450 3A4

>  <Target Organism>
Homo sapiens

>  <Target Description>
Target is a single protein chain

>  <Sequence Accession>
P08684

>  <Reference>


>  <Pubmed ID>


>  <DOI>


$$$$
418736
Actelion Java MolfileCreator 1.0

 24 24  0  0  0  0  0  0  0  0999 V2000
    0.0000   -0.0000   -0.0000 O   0  0  0  0  0  0  0  0  0  0  0  0
   -0.0119   -1.4957   -0.0000 C   0  0  0  0  0  0  0  0  0  0  0  0
   -1.3295   -2.2436   -0.0000 C   0  0  0  0  0  0  0  0  0  0  0  0
    1.2820   -2.2436   -0.0000 C   0  0  0  0  0  0  0  0  0  0  0  0
   -2.6472   -1.4839   -0.0000 O   0  0  0  0  0  0  0  0  0  0  0  0
   -1.3414   -3.7393   -0.0000 C   0  0  0  0  0  0  0  0  0  0  0  0
    1.2702   -3.7393   -0.0000 C   0  0  0  0  0  0  0  0  0  0  0  0
    2.5760   -1.4839   -0.0000 C   0  0  0  0  0  0  0  0  0  0  0  0
   -2.6591    0.0356   -0.0000 C   0  0  0  0  0  0  0  0  0  0  0  0
   -2.6591   -4.4753   -0.0000 O   0  0  0  0  0  0  0  0  0  0  0  0
   -0.0475   -4.4753   -0.0000 C   0  0  0  0  0  0  0  0  0  0  0  0
    2.5641   -4.4753   -0.0000 C   0  0  0  0  0  0  0  0  0  0  0  0
    3.8699   -2.2317   -0.0000 C   0  0  0  0  0  0  0  0  0  0  0  0
   -2.6709   -5.9710   -0.0000 C   0  0  0  0  0  0  0  0  0  0  0  0
   -0.0594   -5.9710   -0.0000 O   0  0  0  0  0  0  0  0  0  0  0  0
    5.1638   -1.4720   -0.0000 C   0  0  0  0  0  0  0  0  0  0  0  0
    6.4577   -2.2198   -0.0000 C   0  0  0  0  0  0  0  0  0  0  0  0
    7.7516   -1.4601   -0.0000 C   0  0  0  0  0  0  0  0  0  0  0  0
    9.0456   -2.2080   -0.0000 C   0  0  0  0  0  0  0  0  0  0  0  0
   10.3395   -1.4482   -0.0000 C   0  0  0  0  0  0  0  0  0  0  0  0
   11.6334   -2.1961   -0.0000 C   0  0  0  0  0  0  0  0  0  0  0  0
   12.9273   -1.4364   -0.0000 C   0  0  0  0  0  0  0  0  0  0  0  0
   14.2212   -2.1842   -0.0000 C   0  0  0  0  0  0  0  0  0  0  0  0
   15.5152   -1.4245   -0.0000 O   0  0  0  0  0  0  0  0  0  0  0  0
  1  2  2  0  0  0  0
  2  3  1  0  0  0  0
  2  4  1  0  0  0  0
  3  5  1  0  0  0  0
  3  6  2  0  0  0  0
  4  7  2  0  0  0  0
  4  8  1  0  0  0  0
  5  9  1  0  0  0  0
  6 10  1  0  0  0  0
  6 11  1  0  0  0  0
  7 12  1  0  0  0  0
  8 13  1  0  0  0  0
 10 14  1  0  0  0  0
 11 15  2  0  0  0  0
 13 16  1  0  0  0  0
 16 17  1  0  0  0  0
 17 18  1  0  0  0  0
 18 19  1  0  0  0  0
 19 20  1  0  0  0  0
 20 21  1  0  0  0  0
 21 22  1  0  0  0  0
 22 23  1  0  0  0  0
 23 24  1  0  0  0  0
  7 11  1  0  0  0  0
M  END
>  <MolRegNo>
418736

>  <m>
=

>  <Value>
7000

>  <Unit>
nM

>  <Type>
IC50

>  <pValue>
5.16

>  <Ligand Efficiency>
0.29

>  <Binding Efficiency>
15.23

>  <Surface Efficiency>
7.08

>  <Assay Index>
617148

>  <Assay Category>


>  <Assay Organism>


>  <Target ID>
17045

>  <Target Name>
Cytochrome P450 3A4

>  <Target Organism>
Homo sapiens

>  <Target Description>
Target is a single protein chain

>  <Sequence Accession>
P08684

>  <Reference>


>  <Pubmed ID>


>  <DOI>


$$$$
2203
Actelion Java MolfileCreator 1.0

 43 50  0  0  0  0  0  0  0  0999 V2000
    0.0000   -0.0000   -0.0000 O   0  0  0  0  0  0  0  0  0  0  0  0
    1.2964   -0.7374   -0.0000 C   0  0  0  0  0  0  0  0  0  0  0  0
    1.2964   -2.2360   -0.0000 N   0  0  0  0  0  0  0  0  0  0  0  0
    2.5809    0.0357   -0.0000 C   0  0  0  0  0  0  0  0  0  0  0  0
    2.5928   -2.9615   -0.0000 C   0  0  0  0  0  0  0  0  0  0  0  0
    0.1665   -3.2351   -0.0000 C   0  0  0  0  0  0  0  0  0  0  0  0
    3.8773   -0.6898   -0.0000 N   0  0  0  0  0  0  0  0  0  0  0  0
    2.5690    1.5581   -0.0000 C   0  0  0  0  0  0  0  0  0  0  0  0
    3.8773   -2.1884   -0.0000 C   0  0  0  0  0  0  0  0  0  0  0  0
    2.2717   -4.4245   -0.0000 C   0  0  0  0  0  0  0  0  0  0  0  0
    0.7731   -4.6029   -0.0000 C   0  0  0  0  0  0  0  0  0  0  0  0
    5.2927   -0.2141   -0.0000 C   0  0  0  0  0  0  0  0  0  0  0  0
    1.2488    2.3193   -0.0000 C   0  0  0  0  0  0  0  0  0  0  0  0
    5.3046   -2.6285   -0.0000 O   0  0  0  0  0  0  0  0  0  0  0  0
    4.0320   -3.6752   -0.0000 O   0  0  0  0  0  0  0  0  0  0  0  0
    5.7447    1.2369   -0.0000 O   0  0  0  0  0  0  0  0  0  0  0  0
    6.1728   -1.4154   -0.0000 C   0  0  0  0  0  0  0  0  0  0  0  0
    1.2251    3.8298   -0.0000 C   0  0  0  0  0  0  0  0  0  0  0  0
   -0.0714    1.5700   -0.0000 C   0  0  0  0  0  0  0  0  0  0  0  0
    7.4455   -2.1884   -0.0000 N   0  0  0  0  0  0  0  0  0  0  0  0
    6.8270   -0.0476   -0.0000 C   0  0  0  0  0  0  0  0  0  0  0  0
   -0.1070    4.5791   -0.0000 C   0  0  0  0  0  0  0  0  0  0  0  0
   -1.3916    2.3312   -0.0000 C   0  0  0  0  0  0  0  0  0  0  0  0
    8.7538   -1.4510   -0.0000 C   0  0  0  0  0  0  0  0  0  0  0  0
   -1.4154    3.8298   -0.0000 C   0  0  0  0  0  0  0  0  0  0  0  0
    8.7776    0.0714   -0.0000 O   0  0  0  0  0  0  0  0  0  0  0  0
   10.0740   -2.1528   -0.0000 C   0  0  0  0  0  0  0  0  0  0  0  0
   10.1097   -3.6395   -0.0000 C   0  0  0  0  0  0  0  0  0  0  0  0
   11.3347   -1.3440   -0.0000 C   0  0  0  0  0  0  0  0  0  0  0  0
   11.4299   -4.3412   -0.0000 C   0  0  0  0  0  0  0  0  0  0  0  0
   12.6549   -2.0457   -0.0000 N   0  0  0  0  0  0  0  0  0  0  0  0
   11.4061   -5.8160   -0.0000 C   0  0  0  0  0  0  0  0  0  0  0  0
   12.6906   -3.5324   -0.0000 C   0  0  0  0  0  0  0  0  0  0  0  0
   13.9156   -1.2369   -0.0000 C   0  0  0  0  0  0  0  0  0  0  0  0
   12.7857   -6.3869   -0.0000 C   0  0  0  0  0  0  0  0  0  0  0  0
   10.2524   -6.7794   -0.0000 C   0  0  0  0  0  0  0  0  0  0  0  0
   14.0227   -4.1985   -0.0000 C   0  0  0  0  0  0  0  0  0  0  0  0
   13.0593   -7.8498   -0.0000 C   0  0  0  0  0  0  0  0  0  0  0  0
   14.1535   -5.6971   -0.0000 C   0  0  0  0  0  0  0  0  0  0  0  0
   10.4308   -8.2661   -0.0000 C   0  0  0  0  0  0  0  0  0  0  0  0
   14.4984   -8.0877   -0.0000 N   0  0  0  0  0  0  0  0  0  0  0  0
   11.8461   -8.7538   -0.0000 C   0  0  0  0  0  0  0  0  0  0  0  0
   15.1883   -6.7556   -0.0000 C   0  0  0  0  0  0  0  0  0  0  0  0
  1  2  2  0  0  0  0
  2  3  1  0  0  0  0
  2  4  1  0  0  0  0
  5  3  1  6  0  0  0
  3  6  1  0  0  0  0
  4  7  1  0  0  0  0
  4  8  1  6  0  0  0
  5  9  1  0  0  0  0
  5 10  1  0  0  0  0
  6 11  1  0  0  0  0
  7 12  1  0  0  0  0
  8 13  1  0  0  0  0
  9 14  1  0  0  0  0
  9 15  1  6  0  0  0
 12 16  2  0  0  0  0
 12 17  1  0  0  0  0
 13 18  2  0  0  0  0
 13 19  1  0  0  0  0
 17 20  1  6  0  0  0
 17 21  1  0  0  0  0
 18 22  1  0  0  0  0
 19 23  2  0  0  0  0
 20 24  1  0  0  0  0
 22 25  2  0  0  0  0
 24 26  2  0  0  0  0
 27 24  1  1  0  0  0
 27 28  1  0  0  0  0
 27 29  1  0  0  0  0
 28 30  2  0  0  0  0
 29 31  1  0  0  0  0
 30 32  1  0  0  0  0
 30 33  1  0  0  0  0
 31 34  1  0  0  0  0
 32 35  2  0  0  0  0
 32 36  1  0  0  0  0
 33 37  1  0  0  0  0
 35 38  1  0  0  0  0
 35 39  1  0  0  0  0
 36 40  2  0  0  0  0
 38 41  1  0  0  0  0
 38 42  2  0  0  0  0
 39 43  2  0  0  0  0
  7  9  1  0  0  0  0
 10 11  1  0  0  0  0
 14 17  1  0  0  0  0
 23 25  1  0  0  0  0
 33 31  1  6  0  0  0
 37 39  1  0  0  0  0
 40 42  1  0  0  0  0
 41 43  1  0  0  0  0
M  END
>  <MolRegNo>
2203

>  <m>
=

>  <Value>
1000

>  <Unit>
nM

>  <Type>
IC50

>  <pValue>
6

>  <Ligand Efficiency>
0.19

>  <Binding Efficiency>
10.32

>  <Surface Efficiency>
5.08

>  <Assay Index>
617148

>  <Assay Category>


>  <Assay Organism>


>  <Target ID>
17045

>  <Target Name>
Cytochrome P450 3A4

>  <Target Organism>
Homo sapiens

>  <Target Description>
Target is a single protein chain

>  <Sequence Accession>
P08684

>  <Reference>


>  <Pubmed ID>


>  <DOI>


$$$$
557741
Actelion Java MolfileCreator 1.0

 32 34  0  0  0  0  0  0  0  0999 V2000
    0.0000   -0.0000   -0.0000 Cl  0  0  0  0  0  0  0  0  0  0  0  0
   -0.0118    1.5121   -0.0000 C   0  0  0  0  0  0  0  0  0  0  0  0
   -1.3231    2.2681   -0.0000 C   0  0  0  0  0  0  0  0  0  0  0  0
    1.2758    2.2681   -0.0000 C   0  0  0  0  0  0  0  0  0  0  0  0
   -2.6343    1.5357   -0.0000 N   0  0  0  0  0  0  0  0  0  0  0  0
   -1.3349    3.7802   -0.0000 C   0  0  0  0  0  0  0  0  0  0  0  0
    1.2640    3.7802   -0.0000 C   0  0  0  0  0  0  0  0  0  0  0  0
   -0.0473    4.5362   -0.0000 C   0  0  0  0  0  0  0  0  0  0  0  0
    2.5516    4.5362   -0.0000 C   0  0  0  0  0  0  0  0  0  0  0  0
   -0.0591    6.0483   -0.0000 O   0  0  0  0  0  0  0  0  0  0  0  0
    3.8393    3.8038   -0.0000 O   0  0  0  0  0  0  0  0  0  0  0  0
    2.5398    6.0483   -0.0000 N   0  0  0  0  0  0  0  0  0  0  0  0
    1.2286    6.8044   -0.0000 C   0  0  0  0  0  0  0  0  0  0  0  0
    3.8275    6.8044   -0.0000 C   0  0  0  0  0  0  0  0  0  0  0  0
    3.8156    8.3164   -0.0000 C   0  0  0  0  0  0  0  0  0  0  0  0
    5.1151    6.0719   -0.0000 C   0  0  0  0  0  0  0  0  0  0  0  0
    2.5044    9.0843   -0.0000 O   0  0  0  0  0  0  0  0  0  0  0  0
    5.1033    9.0843   -0.0000 C   0  0  0  0  0  0  0  0  0  0  0  0
    6.4027    6.8280   -0.0000 C   0  0  0  0  0  0  0  0  0  0  0  0
    1.1931    8.3401   -0.0000 C   0  0  0  0  0  0  0  0  0  0  0  0
    6.3909    8.3401   -0.0000 N   0  0  0  0  0  0  0  0  0  0  0  0
    7.6785    9.1079   -0.0000 C   0  0  0  0  0  0  0  0  0  0  0  0
    8.9662    8.3637   -0.0000 C   0  0  0  0  0  0  0  0  0  0  0  0
   10.2538    9.1315   -0.0000 C   0  0  0  0  0  0  0  0  0  0  0  0
   11.5414    8.3873   -0.0000 O   0  0  0  0  0  0  0  0  0  0  0  0
   12.8291    9.1552   -0.0000 C   0  0  0  0  0  0  0  0  0  0  0  0
   12.8172   10.6673   -0.0000 C   0  0  0  0  0  0  0  0  0  0  0  0
   14.1167    8.4109   -0.0000 C   0  0  0  0  0  0  0  0  0  0  0  0
   14.1049   11.4233   -0.0000 C   0  0  0  0  0  0  0  0  0  0  0  0
   15.4043    9.1788   -0.0000 C   0  0  0  0  0  0  0  0  0  0  0  0
   15.3925   10.6909   -0.0000 C   0  0  0  0  0  0  0  0  0  0  0  0
   16.6801   11.4469   -0.0000 F   0  0  0  0  0  0  0  0  0  0  0  0
  1  2  1  0  0  0  0
  2  3  2  0  0  0  0
  2  4  1  0  0  0  0
  3  5  1  0  0  0  0
  3  6  1  0  0  0  0
  4  7  2  0  0  0  0
  6  8  2  0  0  0  0
  7  9  1  0  0  0  0
  8 10  1  0  0  0  0
  9 11  2  0  0  0  0
  9 12  1  0  0  0  0
 10 13  1  0  0  0  0
 12 14  1  0  0  0  0
 14 15  1  0  0  0  0
 14 16  1  0  0  0  0
 15 17  1  0  0  0  0
 15 18  1  0  0  0  0
 16 19  1  0  0  0  0
 17 20  1  0  0  0  0
 18 21  1  0  0  0  0
 21 22  1  0  0  0  0
 22 23  1  0  0  0  0
 23 24  1  0  0  0  0
 24 25  1  0  0  0  0
 25 26  1  0  0  0  0
 26 27  2  0  0  0  0
 26 28  1  0  0  0  0
 27 29  1  0  0  0  0
 28 30  2  0  0  0  0
 29 31  2  0  0  0  0
 31 32  1  0  0  0  0
  7  8  1  0  0  0  0
 19 21  1  0  0  0  0
 30 31  1  0  0  0  0
M  END
>  <MolRegNo>
557741

>  <m>
=

>  <Value>
300

>  <Unit>
nM

>  <Type>
IC50

>  <pValue>
6.52

>  <Ligand Efficiency>
0.28

>  <Binding Efficiency>
14

>  <Surface Efficiency>
7.58

>  <Assay Index>
617148

>  <Assay Category>


>  <Assay Organism>


>  <Target ID>
17045

>  <Target Name>
Cytochrome P450 3A4

>  <Target Organism>
Homo sapiens

>  <Target Description>
Target is a single protein chain

>  <Sequence Accession>
P08684

>  <Reference>


>  <Pubmed ID>


>  <DOI>


$$$$
10221
Actelion Java MolfileCreator 1.0

 30 32  0  0  0  0  0  0  0  0999 V2000
    0.0000   -0.0000   -0.0000 I   0  0  0  0  0  0  0  0  0  0  0  0
    0.6911    1.3345   -0.0000 C   0  0  0  0  0  0  0  0  0  0  0  0
    2.1923    1.3702   -0.0000 C   0  0  0  0  0  0  0  0  0  0  0  0
   -0.1787    2.6094   -0.0000 C   0  0  0  0  0  0  0  0  0  0  0  0
    2.9668    0.0834   -0.0000 O   0  0  0  0  0  0  0  0  0  0  0  0
    2.9072    2.6928   -0.0000 C   0  0  0  0  0  0  0  0  0  0  0  0
    0.5957    3.9677   -0.0000 C   0  0  0  0  0  0  0  0  0  0  0  0
    4.4085    2.7285   -0.0000 C   0  0  0  0  0  0  0  0  0  0  0  0
    2.0970    3.9796   -0.0000 C   0  0  0  0  0  0  0  0  0  0  0  0
   -0.1787    5.2783   -0.0000 I   0  0  0  0  0  0  0  0  0  0  0  0
    5.1830    1.4417   -0.0000 O   0  0  0  0  0  0  0  0  0  0  0  0
    5.1234    4.0511   -0.0000 N   0  0  0  0  0  0  0  0  0  0  0  0
    6.6128    4.0868   -0.0000 C   0  0  0  0  0  0  0  0  0  0  0  0
    7.3277    5.4451   -0.0000 C   0  0  0  0  0  0  0  0  0  0  0  0
    7.3753    2.8119   -0.0000 C   0  0  0  0  0  0  0  0  0  0  0  0
    8.8051    5.4570   -0.0000 C   0  0  0  0  0  0  0  0  0  0  0  0
    6.5413    6.7200   -0.0000 C   0  0  0  0  0  0  0  0  0  0  0  0
    8.8766    2.8477   -0.0000 C   0  0  0  0  0  0  0  0  0  0  0  0
    9.5915    4.1941   -0.0000 C   0  0  0  0  0  0  0  0  0  0  0  0
    9.6273    1.6204   -0.0000 Cl  0  0  0  0  0  0  0  0  0  0  0  0
   11.0451    4.2298   -0.0000 C   0  0  0  0  0  0  0  0  0  0  0  0
   11.7600    5.5643   -0.0000 C   0  0  0  0  0  0  0  0  0  0  0  0
   11.8196    2.9549   -0.0000 C   0  0  0  0  0  0  0  0  0  0  0  0
   12.4630    6.8868   -0.0000 N   0  0  0  0  0  0  0  0  0  0  0  0
   11.0809    1.6681   -0.0000 C   0  0  0  0  0  0  0  0  0  0  0  0
   13.3209    2.9906   -0.0000 C   0  0  0  0  0  0  0  0  0  0  0  0
   11.8553    0.3932   -0.0000 C   0  0  0  0  0  0  0  0  0  0  0  0
   14.0954    1.7396   -0.0000 C   0  0  0  0  0  0  0  0  0  0  0  0
   13.3566    0.4289   -0.0000 C   0  0  0  0  0  0  0  0  0  0  0  0
   14.1311   -0.8340   -0.0000 Cl  0  0  0  0  0  0  0  0  0  0  0  0
  1  2  1  0  0  0  0
  2  3  2  0  0  0  0
  2  4  1  0  0  0  0
  3  5  1  0  0  0  0
  3  6  1  0  0  0  0
  4  7  2  0  0  0  0
  6  8  1  0  0  0  0
  6  9  2  0  0  0  0
  7 10  1  0  0  0  0
  8 11  2  0  0  0  0
  8 12  1  0  0  0  0
 12 13  1  0  0  0  0
 13 14  2  0  0  0  0
 13 15  1  0  0  0  0
 14 16  1  0  0  0  0
 14 17  1  0  0  0  0
 15 18  2  0  0  0  0
 16 19  2  0  0  0  0
 18 20  1  0  0  0  0
 19 21  1  0  0  0  0
 21 22  1  0  0  0  0
 21 23  1  0  0  0  0
 22 24  3  0  0  0  0
 23 25  2  0  0  0  0
 23 26  1  0  0  0  0
 25 27  1  0  0  0  0
 26 28  2  0  0  0  0
 27 29  2  0  0  0  0
 29 30  1  0  0  0  0
  7  9  1  0  0  0  0
 18 19  1  0  0  0  0
 28 29  1  0  0  0  0
M  END
>  <MolRegNo>
10221

>  <m>
=

>  <Value>
5000

>  <Unit>
nM

>  <Type>
IC50

>  <pValue>
5.3

>  <Ligand Efficiency>
0.24

>  <Binding Efficiency>
7.99

>  <Surface Efficiency>
7.25

>  <Assay Index>
617148

>  <Assay Category>


>  <Assay Organism>


>  <Target ID>
17045

>  <Target Name>
Cytochrome P450 3A4

>  <Target Organism>
Homo sapiens

>  <Target Description>
Target is a single protein chain

>  <Sequence Accession>
P08684

>  <Reference>


>  <Pubmed ID>


>  <DOI>


$$$$
704818
Actelion Java MolfileCreator 1.0

 50 56  0  0  0  0  0  0  0  0999 V2000
    0.0000   -0.0000   -0.0000 S   0  0  0  0  0  0  0  0  0  0  0  0
   -0.0256   -1.3685   -0.0000 O   0  0  0  0  0  0  0  0  0  0  0  0
   -0.0256    1.3813   -0.0000 O   0  0  0  0  0  0  0  0  0  0  0  0
    1.6115    0.0128   -0.0000 O   0  0  0  0  0  0  0  0  0  0  0  0
   -1.4708   -0.3709   -0.0000 C   0  0  0  0  0  0  0  0  0  0  0  0
   -6.6505   -0.4093   -0.0000 O   0  0  0  0  0  0  0  0  0  0  0  0
   -7.3923    0.8953   -0.0000 C   0  0  0  0  0  0  0  0  0  0  0  0
   -6.6505    2.1998   -0.0000 N   0  0  0  0  0  0  0  0  0  0  0  0
   -8.8886    0.9336   -0.0000 C   0  0  0  0  0  0  0  0  0  0  0  0
   -7.3923    3.5171   -0.0000 C   0  0  0  0  0  0  0  0  0  0  0  0
   -5.1925    2.4939   -0.0000 C   0  0  0  0  0  0  0  0  0  0  0  0
   -9.6304    2.2381   -0.0000 N   0  0  0  0  0  0  0  0  0  0  0  0
   -9.6688   -0.3325   -0.0000 C   0  0  0  0  0  0  0  0  0  0  0  0
   -8.8886    3.5427   -0.0000 C   0  0  0  0  0  0  0  0  0  0  0  0
   -6.3947    4.6298   -0.0000 C   0  0  0  0  0  0  0  0  0  0  0  0
   -5.0390    3.9903   -0.0000 C   0  0  0  0  0  0  0  0  0  0  0  0
  -11.1012    2.5707   -0.0000 C   0  0  0  0  0  0  0  0  0  0  0  0
   -8.9526   -1.6115   -0.0000 C   0  0  0  0  0  0  0  0  0  0  0  0
   -9.8862    4.6681   -0.0000 O   0  0  0  0  0  0  0  0  0  0  0  0
   -8.5177    5.0006   -0.0000 O   0  0  0  0  0  0  0  0  0  0  0  0
  -11.8813    1.3045   -0.0000 O   0  0  0  0  0  0  0  0  0  0  0  0
  -11.2546    4.0670   -0.0000 C   0  0  0  0  0  0  0  0  0  0  0  0
   -9.7327   -2.8776   -0.0000 C   0  0  0  0  0  0  0  0  0  0  0  0
   -7.4818   -1.6115   -0.0000 C   0  0  0  0  0  0  0  0  0  0  0  0
  -12.5592    4.8344   -0.0000 N   0  0  0  0  0  0  0  0  0  0  0  0
  -11.2802    5.5762   -0.0000 C   0  0  0  0  0  0  0  0  0  0  0  0
   -9.0165   -4.1693   -0.0000 C   0  0  0  0  0  0  0  0  0  0  0  0
   -6.7528   -2.8904   -0.0000 C   0  0  0  0  0  0  0  0  0  0  0  0
  -13.8637    4.1054   -0.0000 C   0  0  0  0  0  0  0  0  0  0  0  0
  -12.5847    6.3307   -0.0000 C   0  0  0  0  0  0  0  0  0  0  0  0
  -10.0013    6.3435   -0.0000 C   0  0  0  0  0  0  0  0  0  0  0  0
   -7.5329   -4.1821   -0.0000 C   0  0  0  0  0  0  0  0  0  0  0  0
  -15.1682    4.8728   -0.0000 O   0  0  0  0  0  0  0  0  0  0  0  0
  -13.8893    2.6346   -0.0000 C   0  0  0  0  0  0  0  0  0  0  0  0
  -12.6103    1.8800   -0.0000 C   0  0  0  0  0  0  0  0  0  0  0  0
  -15.2194    1.9056   -0.0000 C   0  0  0  0  0  0  0  0  0  0  0  0
  -12.6359    0.3965   -0.0000 N   0  0  0  0  0  0  0  0  0  0  0  0
  -15.2449    0.4220   -0.0000 C   0  0  0  0  0  0  0  0  0  0  0  0
  -13.9404   -0.3325   -0.0000 C   0  0  0  0  0  0  0  0  0  0  0  0
  -11.2546   -0.2302   -0.0000 C   0  0  0  0  0  0  0  0  0  0  0  0
  -16.5494   -0.3197   -0.0000 C   0  0  0  0  0  0  0  0  0  0  0  0
  -13.9532   -1.8161   -0.0000 C   0  0  0  0  0  0  0  0  0  0  0  0
  -16.5622   -1.8033   -0.0000 C   0  0  0  0  0  0  0  0  0  0  0  0
  -17.8540    0.4348   -0.0000 C   0  0  0  0  0  0  0  0  0  0  0  0
  -15.2577   -2.5451   -0.0000 C   0  0  0  0  0  0  0  0  0  0  0  0
  -17.8540   -2.5451   -0.0000 C   0  0  0  0  0  0  0  0  0  0  0  0
  -19.1585   -0.3069   -0.0000 C   0  0  0  0  0  0  0  0  0  0  0  0
  -15.6670   -3.9647   -0.0000 C   0  0  0  0  0  0  0  0  0  0  0  0
  -17.5470   -3.9903   -0.0000 N   0  0  0  0  0  0  0  0  0  0  0  0
  -19.1585   -1.7905   -0.0000 C   0  0  0  0  0  0  0  0  0  0  0  0
  1  2  2  0  0  0  0
  1  3  2  0  0  0  0
  1  4  1  0  0  0  0
  1  5  1  0  0  0  0
  6  7  2  0  0  0  0
  7  8  1  0  0  0  0
  7  9  1  0  0  0  0
 10  8  1  6  0  0  0
  8 11  1  0  0  0  0
  9 12  1  0  0  0  0
  9 13  1  6  0  0  0
 10 14  1  0  0  0  0
 10 15  1  0  0  0  0
 11 16  1  0  0  0  0
 12 17  1  0  0  0  0
 13 18  1  0  0  0  0
 14 19  1  0  0  0  0
 14 20  1  6  0  0  0
 17 21  2  0  0  0  0
 17 22  1  0  0  0  0
 18 23  2  0  0  0  0
 18 24  1  0  0  0  0
 22 25  1  6  0  0  0
 22 26  1  0  0  0  0
 23 27  1  0  0  0  0
 24 28  2  0  0  0  0
 25 29  1  0  0  0  0
 26 30  1  0  0  0  0
 26 31  1  0  0  0  0
 27 32  2  0  0  0  0
 29 33  2  0  0  0  0
 34 29  1  1  0  0  0
 34 35  1  0  0  0  0
 34 36  1  0  0  0  0
 35 37  1  0  0  0  0
 38 36  1  1  0  0  0
 39 37  1  6  0  0  0
 37 40  1  0  0  0  0
 38 41  1  0  0  0  0
 39 42  1  0  0  0  0
 41 43  2  0  0  0  0
 41 44  1  0  0  0  0
 42 45  1  0  0  0  0
 43 46  1  0  0  0  0
 44 47  2  0  0  0  0
 45 48  2  0  0  0  0
 46 49  1  0  0  0  0
 46 50  2  0  0  0  0
 12 14  1  0  0  0  0
 15 16  1  0  0  0  0
 19 22  1  0  0  0  0
 28 32  1  0  0  0  0
 38 39  1  0  0  0  0
 43 45  1  0  0  0  0
 47 50  1  0  0  0  0
 48 49  1  0  0  0  0
M  END
>  <MolRegNo>
704818

>  <m>
=

>  <Value>
3000

>  <Unit>
nM

>  <Type>
IC50

>  <pValue>
5.52

>  <Ligand Efficiency>
0.17

>  <Binding Efficiency>
9.03

>  <Surface Efficiency>
4.67

>  <Assay Index>
617148

>  <Assay Category>


>  <Assay Organism>


>  <Target ID>
17045

>  <Target Name>
Cytochrome P450 3A4

>  <Target Organism>
Homo sapiens

>  <Target Description>
Target is a single protein chain

>  <Sequence Accession>
P08684

>  <Reference>


>  <Pubmed ID>


>  <DOI>


$$$$
242303
Actelion Java MolfileCreator 1.0

 26 28  0  0  0  0  0  0  0  0999 V2000
    0.0000   -0.0000   -0.0000 Cl  0  0  0  0  0  0  0  0  0  0  0  0
    1.2807    0.7708   -0.0000 C   0  0  0  0  0  0  0  0  0  0  0  0
    1.2688    2.2768   -0.0000 C   0  0  0  0  0  0  0  0  0  0  0  0
    2.5614    0.0237   -0.0000 C   0  0  0  0  0  0  0  0  0  0  0  0
   -0.0356    3.0476   -0.0000 C   0  0  0  0  0  0  0  0  0  0  0  0
    2.5495    3.0476   -0.0000 C   0  0  0  0  0  0  0  0  0  0  0  0
    3.8421    0.7945   -0.0000 C   0  0  0  0  0  0  0  0  0  0  0  0
   -1.3400    2.3242   -0.0000 N   0  0  0  0  0  0  0  0  0  0  0  0
   -0.0474    4.5654   -0.0000 C   0  0  0  0  0  0  0  0  0  0  0  0
    3.8302    2.3242   -0.0000 C   0  0  0  0  0  0  0  0  0  0  0  0
    5.1465    0.0474   -0.0000 Cl  0  0  0  0  0  0  0  0  0  0  0  0
   -2.6444    3.0713   -0.0000 O   0  0  0  0  0  0  0  0  0  0  0  0
    1.2333    5.3125   -0.0000 N   0  0  0  0  0  0  0  0  0  0  0  0
   -3.9488    2.3479   -0.0000 C   0  0  0  0  0  0  0  0  0  0  0  0
    1.6957    6.7473   -0.0000 C   0  0  0  0  0  0  0  0  0  0  0  0
    2.4309    4.4350   -0.0000 C   0  0  0  0  0  0  0  0  0  0  0  0
   -5.2532    3.0950   -0.0000 C   0  0  0  0  0  0  0  0  0  0  0  0
    3.1780    6.7592   -0.0000 N   0  0  0  0  0  0  0  0  0  0  0  0
    3.6286    5.3362   -0.0000 C   0  0  0  0  0  0  0  0  0  0  0  0
   -6.5576    2.3479   -0.0000 C   0  0  0  0  0  0  0  0  0  0  0  0
   -5.2651    4.6010   -0.0000 C   0  0  0  0  0  0  0  0  0  0  0  0
   -6.5576    0.8657   -0.0000 Cl  0  0  0  0  0  0  0  0  0  0  0  0
   -7.8620    3.0950   -0.0000 C   0  0  0  0  0  0  0  0  0  0  0  0
   -6.5695    5.3718   -0.0000 C   0  0  0  0  0  0  0  0  0  0  0  0
   -7.8739    4.6129   -0.0000 C   0  0  0  0  0  0  0  0  0  0  0  0
   -9.1783    5.3836   -0.0000 Cl  0  0  0  0  0  0  0  0  0  0  0  0
  1  2  1  0  0  0  0
  2  3  2  0  0  0  0
  2  4  1  0  0  0  0
  3  5  1  0  0  0  0
  3  6  1  0  0  0  0
  4  7  2  0  0  0  0
  5  8  2  0  0  0  0
  5  9  1  0  0  0  0
  6 10  2  0  0  0  0
  7 11  1  0  0  0  0
  8 12  1  0  0  0  0
  9 13  1  0  0  0  0
 12 14  1  0  0  0  0
 13 15  1  0  0  0  0
 13 16  1  0  0  0  0
 14 17  1  0  0  0  0
 15 18  2  0  0  0  0
 16 19  2  0  0  0  0
 17 20  2  0  0  0  0
 17 21  1  0  0  0  0
 20 22  1  0  0  0  0
 20 23  1  0  0  0  0
 21 24  2  0  0  0  0
 23 25  2  0  0  0  0
 25 26  1  0  0  0  0
  7 10  1  0  0  0  0
 18 19  1  0  0  0  0
 24 25  1  0  0  0  0
M  END
>  <MolRegNo>
242303

>  <m>
=

>  <Value>
90

>  <Unit>
nM

>  <Type>
IC50

>  <pValue>
7.05

>  <Ligand Efficiency>
0.37

>  <Binding Efficiency>
16.42

>  <Surface Efficiency>
17.88

>  <Assay Index>
617148

>  <Assay Category>


>  <Assay Organism>


>  <Target ID>
17045

>  <Target Name>
Cytochrome P450 3A4

>  <Target Organism>
Homo sapiens

>  <Target Description>
Target is a single protein chain

>  <Sequence Accession>
P08684

>  <Reference>


>  <Pubmed ID>


>  <DOI>


$$$$
453533
Actelion Java MolfileCreator 1.0

  8  8  0  0  0  0  0  0  0  0999 V2000
    0.0000   -0.0000   -0.0000 N   0  0  0  0  0  0  0  0  0  0  0  0
   -0.7595    1.3172   -0.0000 N   0  0  0  0  0  0  0  0  0  0  0  0
    1.4952    0.0119   -0.0000 C   0  0  0  0  0  0  0  0  0  0  0  0
    2.2310    1.3291   -0.0000 C   0  0  0  0  0  0  0  0  0  0  0  0
    2.2310   -1.2816   -0.0000 C   0  0  0  0  0  0  0  0  0  0  0  0
    3.7262    1.3410   -0.0000 C   0  0  0  0  0  0  0  0  0  0  0  0
    3.7262   -1.2697   -0.0000 C   0  0  0  0  0  0  0  0  0  0  0  0
    4.4619    0.0475   -0.0000 C   0  0  0  0  0  0  0  0  0  0  0  0
  1  2  1  0  0  0  0
  1  3  1  0  0  0  0
  3  4  2  0  0  0  0
  3  5  1  0  0  0  0
  4  6  1  0  0  0  0
  5  7  2  0  0  0  0
  6  8  2  0  0  0  0
  7  8  1  0  0  0  0
M  END
>  <MolRegNo>
453533

>  <m>
=

>  <Value>
900

>  <Unit>
nM

>  <Type>
IC50

>  <pValue>
6.05

>  <Ligand Efficiency>
1.03

>  <Binding Efficiency>
55.91

>  <Surface Efficiency>
15.89

>  <Assay Index>
617148

>  <Assay Category>


>  <Assay Organism>


>  <Target ID>
17045

>  <Target Name>
Cytochrome P450 3A4

>  <Target Organism>
Homo sapiens

>  <Target Description>
Target is a single protein chain

>  <Sequence Accession>
P08684

>  <Reference>


>  <Pubmed ID>


>  <DOI>


$$$$
687939
Actelion Java MolfileCreator 1.0

 37 37  0  0  0  0  0  0  0  0999 V2000
    0.0000   -0.0000   -0.0000 S   0  0  0  0  0  0  0  0  0  0  0  0
   -1.0745   -1.0391   -0.0000 O   0  0  0  0  0  0  0  0  0  0  0  0
   -1.4641    0.4133   -0.0000 O   0  0  0  0  0  0  0  0  0  0  0  0
   -0.0118    1.5114   -0.0000 C   0  0  0  0  0  0  0  0  0  0  0  0
    1.2870   -0.7321   -0.0000 C   0  0  0  0  0  0  0  0  0  0  0  0
   -1.3224    2.2670   -0.0000 C   0  0  0  0  0  0  0  0  0  0  0  0
   -1.3342    3.7784   -0.0000 C   0  0  0  0  0  0  0  0  0  0  0  0
   -2.6449    4.5341   -0.0000 N   0  0  0  0  0  0  0  0  0  0  0  0
   -0.0472    4.5341   -0.0000 C   0  0  0  0  0  0  0  0  0  0  0  0
   -3.9555    3.8020   -0.0000 C   0  0  0  0  0  0  0  0  0  0  0  0
   -0.0590    6.0454   -0.0000 O   0  0  0  0  0  0  0  0  0  0  0  0
    1.2398    3.8020   -0.0000 O   0  0  0  0  0  0  0  0  0  0  0  0
   -3.9673    2.3143   -0.0000 O   0  0  0  0  0  0  0  0  0  0  0  0
   -5.2661    4.5577   -0.0000 C   0  0  0  0  0  0  0  0  0  0  0  0
    2.5268    4.5577   -0.0000 C   0  0  0  0  0  0  0  0  0  0  0  0
   -6.5768    3.8256   -0.0000 O   0  0  0  0  0  0  0  0  0  0  0  0
   -5.2779    6.0690   -0.0000 C   0  0  0  0  0  0  0  0  0  0  0  0
    3.8138    3.8256   -0.0000 C   0  0  0  0  0  0  0  0  0  0  0  0
    2.5150    6.0690   -0.0000 C   0  0  0  0  0  0  0  0  0  0  0  0
   -7.8874    4.5813   -0.0000 C   0  0  0  0  0  0  0  0  0  0  0  0
   -3.9909    6.8247   -0.0000 C   0  0  0  0  0  0  0  0  0  0  0  0
   -9.1980    3.8492   -0.0000 C   0  0  0  0  0  0  0  0  0  0  0  0
   -2.7039    6.0809   -0.0000 C   0  0  0  0  0  0  0  0  0  0  0  0
   -4.0027    8.3243   -0.0000 C   0  0  0  0  0  0  0  0  0  0  0  0
  -10.5087    4.6049   -0.0000 N   0  0  0  0  0  0  0  0  0  0  0  0
   -9.2098    2.3615   -0.0000 C   0  0  0  0  0  0  0  0  0  0  0  0
   -1.4169    6.8365   -0.0000 C   0  0  0  0  0  0  0  0  0  0  0  0
   -2.7275    9.0918   -0.0000 C   0  0  0  0  0  0  0  0  0  0  0  0
  -11.8193    3.8729   -0.0000 C   0  0  0  0  0  0  0  0  0  0  0  0
   -7.9228    1.6294   -0.0000 C   0  0  0  0  0  0  0  0  0  0  0  0
  -10.5205    1.6294   -0.0000 C   0  0  0  0  0  0  0  0  0  0  0  0
   -1.4287    8.3479   -0.0000 C   0  0  0  0  0  0  0  0  0  0  0  0
  -13.1299    4.6285   -0.0000 C   0  0  0  0  0  0  0  0  0  0  0  0
   -7.9346    0.1417   -0.0000 C   0  0  0  0  0  0  0  0  0  0  0  0
  -14.4405    3.8965   -0.0000 N   0  0  0  0  0  0  0  0  0  0  0  0
  -13.1417    6.1399   -0.0000 C   0  0  0  0  0  0  0  0  0  0  0  0
  -11.8547    6.8956   -0.0000 S   0  0  0  0  0  0  0  0  0  0  0  0
  1  2  2  0  0  0  0
  1  3  2  0  0  0  0
  1  4  1  0  0  0  0
  1  5  1  0  0  0  0
  4  6  1  0  0  0  0
  6  7  1  0  0  0  0
  7  8  1  6  0  0  0
  7  9  1  0  0  0  0
  8 10  1  0  0  0  0
  9 11  2  0  0  0  0
  9 12  1  0  0  0  0
 10 13  2  0  0  0  0
 10 14  1  0  0  0  0
 12 15  1  0  0  0  0
 14 16  1  1  0  0  0
 14 17  1  0  0  0  0
 15 18  1  0  0  0  0
 15 19  1  0  0  0  0
 16 20  1  0  0  0  0
 17 21  1  0  0  0  0
 20 22  1  0  0  0  0
 21 23  2  0  0  0  0
 21 24  1  0  0  0  0
 22 25  1  6  0  0  0
 22 26  1  0  0  0  0
 23 27  1  0  0  0  0
 24 28  2  0  0  0  0
 25 29  1  0  0  0  0
 26 30  1  0  0  0  0
 26 31  1  6  0  0  0
 27 32  2  0  0  0  0
 29 33  1  0  0  0  0
 30 34  1  0  0  0  0
 33 35  1  1  0  0  0
 33 36  1  0  0  0  0
 36 37  1  0  0  0  0
 28 32  1  0  0  0  0
M  END
>  <MolRegNo>
687939

>  <m>
=

>  <Value>
3000

>  <Unit>
nM

>  <Type>
IC50

>  <pValue>
5.52

>  <Ligand Efficiency>
0.2

>  <Binding Efficiency>
9.87

>  <Surface Efficiency>
4.04

>  <Assay Index>
617148

>  <Assay Category>


>  <Assay Organism>


>  <Target ID>
17045

>  <Target Name>
Cytochrome P450 3A4

>  <Target Organism>
Homo sapiens

>  <Target Description>
Target is a single protein chain

>  <Sequence Accession>
P08684

>  <Reference>


>  <Pubmed ID>


>  <DOI>


$$$$
93995
Actelion Java MolfileCreator 1.0

 29 31  0  0  0  0  0  0  0  0999 V2000
    0.0000   -0.0000   -0.0000 Cl  0  0  0  0  0  0  0  0  0  0  0  0
    0.7334   -1.2985   -0.0000 C   0  0  0  0  0  0  0  0  0  0  0  0
   -0.0240   -2.5849   -0.0000 C   0  0  0  0  0  0  0  0  0  0  0  0
    2.2242   -1.2865   -0.0000 C   0  0  0  0  0  0  0  0  0  0  0  0
   -1.5389   -2.5729   -0.0000 N   0  0  0  0  0  0  0  0  0  0  0  0
    0.7094   -3.9075   -0.0000 C   0  0  0  0  0  0  0  0  0  0  0  0
    2.9697   -2.5729   -0.0000 C   0  0  0  0  0  0  0  0  0  0  0  0
    2.2242   -3.8954   -0.0000 C   0  0  0  0  0  0  0  0  0  0  0  0
    4.4605   -2.5609   -0.0000 C   0  0  0  0  0  0  0  0  0  0  0  0
    2.9817   -5.1578   -0.0000 O   0  0  0  0  0  0  0  0  0  0  0  0
    5.1939   -3.8834   -0.0000 O   0  0  0  0  0  0  0  0  0  0  0  0
    5.2300   -1.2504   -0.0000 N   0  0  0  0  0  0  0  0  0  0  0  0
    2.2002   -6.4924   -0.0000 C   0  0  0  0  0  0  0  0  0  0  0  0
    6.7088   -1.2384   -0.0000 C   0  0  0  0  0  0  0  0  0  0  0  0
    0.7815   -6.4804   -0.0000 C   0  0  0  0  0  0  0  0  0  0  0  0
    7.4542   -2.5008   -0.0000 C   0  0  0  0  0  0  0  0  0  0  0  0
    6.6848   -3.8113   -0.0000 O   0  0  0  0  0  0  0  0  0  0  0  0
    8.9691   -2.4887   -0.0000 C   0  0  0  0  0  0  0  0  0  0  0  0
    7.4542   -5.1218   -0.0000 C   0  0  0  0  0  0  0  0  0  0  0  0
    9.7025   -3.7993   -0.0000 N   0  0  0  0  0  0  0  0  0  0  0  0
    8.8970   -5.1098   -0.0000 C   0  0  0  0  0  0  0  0  0  0  0  0
   11.1934   -3.7872   -0.0000 C   0  0  0  0  0  0  0  0  0  0  0  0
   11.9268   -2.4527   -0.0000 C   0  0  0  0  0  0  0  0  0  0  0  0
   13.4056   -2.4407   -0.0000 C   0  0  0  0  0  0  0  0  0  0  0  0
   11.1693   -1.1422   -0.0000 C   0  0  0  0  0  0  0  0  0  0  0  0
   14.1390   -1.1542   -0.0000 C   0  0  0  0  0  0  0  0  0  0  0  0
   11.9027    0.1924   -0.0000 C   0  0  0  0  0  0  0  0  0  0  0  0
   13.3815    0.1924   -0.0000 C   0  0  0  0  0  0  0  0  0  0  0  0
   14.1149    1.5029   -0.0000 F   0  0  0  0  0  0  0  0  0  0  0  0
  1  2  1  0  0  0  0
  2  3  2  0  0  0  0
  2  4  1  0  0  0  0
  3  5  1  0  0  0  0
  3  6  1  0  0  0  0
  4  7  2  0  0  0  0
  6  8  2  0  0  0  0
  7  9  1  0  0  0  0
  8 10  1  0  0  0  0
  9 11  2  0  0  0  0
  9 12  1  0  0  0  0
 10 13  1  0  0  0  0
 12 14  1  0  0  0  0
 13 15  1  0  0  0  0
 14 16  1  0  0  0  0
 16 17  1  0  0  0  0
 16 18  1  0  0  0  0
 17 19  1  0  0  0  0
 18 20  1  0  0  0  0
 19 21  1  0  0  0  0
 20 22  1  0  0  0  0
 22 23  1  0  0  0  0
 23 24  2  0  0  0  0
 23 25  1  0  0  0  0
 24 26  1  0  0  0  0
 25 27  2  0  0  0  0
 26 28  2  0  0  0  0
 28 29  1  0  0  0  0
  7  8  1  0  0  0  0
 20 21  1  0  0  0  0
 27 28  1  0  0  0  0
M  END
>  <MolRegNo>
93995

>  <m>
=

>  <Value>
700

>  <Unit>
nM

>  <Type>
IC50

>  <pValue>
6.16

>  <Ligand Efficiency>
0.29

>  <Binding Efficiency>
14.59

>  <Surface Efficiency>
8.01

>  <Assay Index>
617148

>  <Assay Category>


>  <Assay Organism>


>  <Target ID>
17045

>  <Target Name>
Cytochrome P450 3A4

>  <Target Organism>
Homo sapiens

>  <Target Description>
Target is a single protein chain

>  <Sequence Accession>
P08684

>  <Reference>


>  <Pubmed ID>


>  <DOI>


$$$$
453548
Actelion Java MolfileCreator 1.0

 33 34  0  0  0  0  0  0  0  0999 V2000
    0.0000   -0.0000   -0.0000 O   0  0  0  0  0  0  0  0  0  0  0  0
   -0.0170    1.5170   -0.0000 C   0  0  0  0  0  0  0  0  0  0  0  0
   -1.3465    2.2840   -0.0000 O   0  0  0  0  0  0  0  0  0  0  0  0
    1.2613    2.2840   -0.0000 C   0  0  0  0  0  0  0  0  0  0  0  0
   -2.6419    1.5510   -0.0000 C   0  0  0  0  0  0  0  0  0  0  0  0
    1.2442    3.7839   -0.0000 C   0  0  0  0  0  0  0  0  0  0  0  0
    2.5226    1.5510   -0.0000 C   0  0  0  0  0  0  0  0  0  0  0  0
   -3.9373    2.3181   -0.0000 C   0  0  0  0  0  0  0  0  0  0  0  0
    2.5055    4.5509   -0.0000 N   0  0  0  0  0  0  0  0  0  0  0  0
   -0.0682    4.5679   -0.0000 C   0  0  0  0  0  0  0  0  0  0  0  0
    3.8009    2.3181   -0.0000 C   0  0  0  0  0  0  0  0  0  0  0  0
    2.5055   -0.5966   -0.0000 C   0  0  0  0  0  0  0  0  0  0  0  0
    3.7839    3.8180   -0.0000 C   0  0  0  0  0  0  0  0  0  0  0  0
    5.0793    1.5851   -0.0000 C   0  0  0  0  0  0  0  0  0  0  0  0
    3.7839   -1.3295   -0.0000 C   0  0  0  0  0  0  0  0  0  0  0  0
    1.2102   -1.3295   -0.0000 C   0  0  0  0  0  0  0  0  0  0  0  0
    5.0622    4.5850   -0.0000 C   0  0  0  0  0  0  0  0  0  0  0  0
    5.0622    0.2216   -0.0000 O   0  0  0  0  0  0  0  0  0  0  0  0
    6.3576    2.3521   -0.0000 O   0  0  0  0  0  0  0  0  0  0  0  0
    3.7668   -2.8123   -0.0000 C   0  0  0  0  0  0  0  0  0  0  0  0
    5.0793   -0.5966   -0.0000 C   0  0  0  0  0  0  0  0  0  0  0  0
    1.1931   -2.8123   -0.0000 C   0  0  0  0  0  0  0  0  0  0  0  0
    7.6189    1.6192   -0.0000 C   0  0  0  0  0  0  0  0  0  0  0  0
    2.4544   -3.5453   -0.0000 C   0  0  0  0  0  0  0  0  0  0  0  0
    6.3406   -1.3295   -0.0000 C   0  0  0  0  0  0  0  0  0  0  0  0
    8.8972    2.3862   -0.0000 C   0  0  0  0  0  0  0  0  0  0  0  0
    7.6189   -0.5966   -0.0000 C   0  0  0  0  0  0  0  0  0  0  0  0
    7.6189    0.8693   -0.0000 O   0  0  0  0  0  0  0  0  0  0  0  0
    8.8802   -1.3465   -0.0000 O   0  0  0  0  0  0  0  0  0  0  0  0
    8.8461   -2.8123   -0.0000 C   0  0  0  0  0  0  0  0  0  0  0  0
    7.5166   -3.5112   -0.0000 C   0  0  0  0  0  0  0  0  0  0  0  0
   10.0222   -3.6646   -0.0000 C   0  0  0  0  0  0  0  0  0  0  0  0
   10.2949   -2.9487   -0.0000 C   0  0  0  0  0  0  0  0  0  0  0  0
  1  2  2  0  0  0  0
  2  3  1  0  0  0  0
  2  4  1  0  0  0  0
  3  5  1  0  0  0  0
  4  6  2  0  0  0  0
  4  7  1  0  0  0  0
  5  8  1  0  0  0  0
  6  9  1  0  0  0  0
  6 10  1  0  0  0  0
  7 11  1  0  0  0  0
  7 12  1  0  0  0  0
  9 13  1  0  0  0  0
 11 14  1  0  0  0  0
 12 15  2  0  0  0  0
 12 16  1  0  0  0  0
 13 17  1  0  0  0  0
 14 18  2  0  0  0  0
 14 19  1  0  0  0  0
 15 20  1  0  0  0  0
 15 21  1  0  0  0  0
 16 22  2  0  0  0  0
 19 23  1  0  0  0  0
 20 24  2  0  0  0  0
 21 25  2  0  0  0  0
 23 26  1  0  0  0  0
 25 27  1  0  0  0  0
 27 28  2  0  0  0  0
 27 29  1  0  0  0  0
 29 30  1  0  0  0  0
 30 31  1  0  0  0  0
 30 32  1  0  0  0  0
 30 33  1  0  0  0  0
 11 13  2  0  0  0  0
 22 24  1  0  0  0  0
M  END
>  <MolRegNo>
453548

>  <m>
=

>  <Value>
900

>  <Unit>
nM

>  <Type>
IC50

>  <pValue>
6.05

>  <Ligand Efficiency>
0.25

>  <Binding Efficiency>
13.27

>  <Surface Efficiency>
6.65

>  <Assay Index>
617148

>  <Assay Category>


>  <Assay Organism>


>  <Target ID>
17045

>  <Target Name>
Cytochrome P450 3A4

>  <Target Organism>
Homo sapiens

>  <Target Description>
Target is a single protein chain

>  <Sequence Accession>
P08684

>  <Reference>


>  <Pubmed ID>


>  <DOI>


$$$$
560078
Actelion Java MolfileCreator 1.0

 57 65  0  0  0  0  0  0  0  0999 V2000
    0.0000   -0.0000   -0.0000 O   0  0  0  0  0  0  0  0  0  0  0  0
   -0.3979    1.4324   -0.0000 C   0  0  0  0  0  0  0  0  0  0  0  0
   -1.8104    1.8502   -0.0000 O   0  0  0  0  0  0  0  0  0  0  0  0
    0.6366    2.4670   -0.0000 C   0  0  0  0  0  0  0  0  0  0  0  0
   -2.8649    0.8356   -0.0000 C   0  0  0  0  0  0  0  0  0  0  0  0
    1.8900    1.7706   -0.0000 C   0  0  0  0  0  0  0  0  0  0  0  0
   -0.6167    3.2230   -0.0000 C   0  0  0  0  0  0  0  0  0  0  0  0
    1.8900    3.2230   -0.0000 C   0  0  0  0  0  0  0  0  0  0  0  0
    1.9099    0.3183   -0.0000 C   0  0  0  0  0  0  0  0  0  0  0  0
    3.0837    2.5863   -0.0000 C   0  0  0  0  0  0  0  0  0  0  0  0
   -2.0293    2.8052   -0.0000 N   0  0  0  0  0  0  0  0  0  0  0  0
   -0.6366    4.7151   -0.0000 C   0  0  0  0  0  0  0  0  0  0  0  0
    1.8701    4.7151   -0.0000 C   0  0  0  0  0  0  0  0  0  0  0  0
    0.6565   -0.4377   -0.0000 O   0  0  0  0  0  0  0  0  0  0  0  0
    3.2031   -0.3581   -0.0000 C   0  0  0  0  0  0  0  0  0  0  0  0
    4.3769    1.9298   -0.0000 C   0  0  0  0  0  0  0  0  0  0  0  0
   -2.9046    3.9989   -0.0000 C   0  0  0  0  0  0  0  0  0  0  0  0
   -2.0492    5.2124   -0.0000 C   0  0  0  0  0  0  0  0  0  0  0  0
   -1.9497    6.9234   -0.0000 C   0  0  0  0  0  0  0  0  0  0  0  0
    3.1036    5.4711   -0.0000 C   0  0  0  0  0  0  0  0  0  0  0  0
    0.5769    5.4711   -0.0000 C   0  0  0  0  0  0  0  0  0  0  0  0
    0.6764   -1.8900   -0.0000 C   0  0  0  0  0  0  0  0  0  0  0  0
    4.4564    0.4576   -0.0000 C   0  0  0  0  0  0  0  0  0  0  0  0
    5.7297    2.4670   -0.0000 C   0  0  0  0  0  0  0  0  0  0  0  0
   -4.3968    4.1779   -0.0000 C   0  0  0  0  0  0  0  0  0  0  0  0
   -2.6858    6.5653   -0.0000 C   0  0  0  0  0  0  0  0  0  0  0  0
    0.5571    6.9433   -0.0000 N   0  0  0  0  0  0  0  0  0  0  0  0
    3.0837    6.9632   -0.0000 C   0  0  0  0  0  0  0  0  0  0  0  0
    5.8292    0.0796   -0.0000 N   0  0  0  0  0  0  0  0  0  0  0  0
    6.6250    1.3330   -0.0000 C   0  0  0  0  0  0  0  0  0  0  0  0
    6.2470    3.8596   -0.0000 C   0  0  0  0  0  0  0  0  0  0  0  0
    4.2376    2.9245   -0.0000 C   0  0  0  0  0  0  0  0  0  0  0  0
   -4.9936    5.5308   -0.0000 C   0  0  0  0  0  0  0  0  0  0  0  0
   -4.1182    6.7443   -0.0000 C   0  0  0  0  0  0  0  0  0  0  0  0
    1.8104    7.6993   -0.0000 C   0  0  0  0  0  0  0  0  0  0  0  0
    4.3371    7.7192   -0.0000 C   0  0  0  0  0  0  0  0  0  0  0  0
    6.3067   -1.2534   -0.0000 C   0  0  0  0  0  0  0  0  0  0  0  0
    8.0375    1.5717   -0.0000 C   0  0  0  0  0  0  0  0  0  0  0  0
    5.3119    5.0135   -0.0000 N   0  0  0  0  0  0  0  0  0  0  0  0
    7.6595    4.0784   -0.0000 C   0  0  0  0  0  0  0  0  0  0  0  0
    3.9591    4.3769   -0.0000 C   0  0  0  0  0  0  0  0  0  0  0  0
    4.3172    9.2113   -0.0000 C   0  0  0  0  0  0  0  0  0  0  0  0
    9.4500    1.8502   -0.0000 O   0  0  0  0  0  0  0  0  0  0  0  0
    8.2563    0.1592   -0.0000 C   0  0  0  0  0  0  0  0  0  0  0  0
    8.5548    2.9643   -0.0000 C   0  0  0  0  0  0  0  0  0  0  0  0
    5.8292    6.3862   -0.0000 C   0  0  0  0  0  0  0  0  0  0  0  0
    8.1768    5.4512   -0.0000 C   0  0  0  0  0  0  0  0  0  0  0  0
    9.0322    4.4962   -0.0000 C   0  0  0  0  0  0  0  0  0  0  0  0
    7.1024   -0.7560   -0.0000 O   0  0  0  0  0  0  0  0  0  0  0  0
    9.6092   -0.3183   -0.0000 O   0  0  0  0  0  0  0  0  0  0  0  0
   10.0071    3.2031   -0.0000 O   0  0  0  0  0  0  0  0  0  0  0  0
    7.2417    6.6250   -0.0000 C   0  0  0  0  0  0  0  0  0  0  0  0
    9.3903    5.9286   -0.0000 C   0  0  0  0  0  0  0  0  0  0  0  0
    9.8280   -1.7706   -0.0000 C   0  0  0  0  0  0  0  0  0  0  0  0
   10.9023    2.0691   -0.0000 C   0  0  0  0  0  0  0  0  0  0  0  0
   10.3453    0.7162   -0.0000 O   0  0  0  0  0  0  0  0  0  0  0  0
   12.3149    2.3277   -0.0000 C   0  0  0  0  0  0  0  0  0  0  0  0
  1  2  2  0  0  0  0
  2  3  1  0  0  0  0
  2  4  1  0  0  0  0
  3  5  1  0  0  0  0
  4  6  1  1  0  0  0
  4  7  1  0  0  0  0
  4  8  1  0  0  0  0
  6  9  2  0  0  0  0
  6 10  1  0  0  0  0
  7 11  1  0  0  0  0
  7 12  2  0  0  0  0
 13  8  1  6  0  0  0
  9 14  1  0  0  0  0
  9 15  1  0  0  0  0
 10 16  2  0  0  0  0
 11 17  1  0  0  0  0
 12 18  1  0  0  0  0
 12 19  1  0  0  0  0
 13 20  1  0  0  0  0
 13 21  1  0  0  0  0
 14 22  1  0  0  0  0
 15 23  2  0  0  0  0
 16 24  1  0  0  0  0
 17 25  1  0  0  0  0
 18 26  1  0  0  0  0
 19 27  1  0  0  0  0
 20 28  2  0  0  0  0
 23 29  1  0  0  0  0
 24 30  1  0  0  0  0
 24 31  1  0  0  0  0
 24 32  1  6  0  0  0
 25 33  2  0  0  0  0
 26 34  2  0  0  0  0
 27 35  1  0  0  0  0
 28 36  1  0  0  0  0
 29 37  1  0  0  0  0
 30 38  1  0  0  0  0
 31 39  1  6  0  0  0
 31 40  1  0  0  0  0
 32 41  1  0  0  0  0
 36 42  1  0  0  0  0
 38 43  1  6  0  0  0
 38 44  1  0  0  0  0
 38 45  1  0  0  0  0
 39 46  1  0  0  0  0
 40 47  1  0  0  0  0
 40 48  1  1  0  0  0
 44 49  2  0  0  0  0
 44 50  1  0  0  0  0
 45 51  1  6  0  0  0
 46 52  1  0  0  0  0
 48 53  1  0  0  0  0
 50 54  1  0  0  0  0
 51 55  1  0  0  0  0
 55 56  2  0  0  0  0
 55 57  1  0  0  0  0
 16 23  1  0  0  0  0
 17 18  2  0  0  0  0
 21 27  1  0  0  0  0
 28 35  1  0  0  0  0
 30 29  1  1  0  0  0
 33 34  1  0  0  0  0
 39 41  1  0  0  0  0
 40 45  1  0  0  0  0
 47 52  2  0  0  0  0
M  END
>  <MolRegNo>
560078

>  <m>
=

>  <Value>
1000

>  <Unit>
nM

>  <Type>
IC50

>  <pValue>
6

>  <Ligand Efficiency>
0.14

>  <Binding Efficiency>
7.7

>  <Surface Efficiency>
4.48

>  <Assay Index>
617148

>  <Assay Category>


>  <Assay Organism>


>  <Target ID>
17045

>  <Target Name>
Cytochrome P450 3A4

>  <Target Organism>
Homo sapiens

>  <Target Description>
Target is a single protein chain

>  <Sequence Accession>
P08684

>  <Reference>


>  <Pubmed ID>


>  <DOI>


$$$$
223819
Actelion Java MolfileCreator 1.0

 24 26  0  0  0  0  0  0  0  0999 V2000
    0.0000   -0.0000   -0.0000 Cl  0  0  0  0  0  0  0  0  0  0  0  0
   -1.3326    0.7496   -0.0000 C   0  0  0  0  0  0  0  0  0  0  0  0
   -1.3445    2.2726   -0.0000 C   0  0  0  0  0  0  0  0  0  0  0  0
   -2.6415    0.0238   -0.0000 C   0  0  0  0  0  0  0  0  0  0  0  0
   -2.6534    3.0342   -0.0000 C   0  0  0  0  0  0  0  0  0  0  0  0
   -0.0595    3.0580   -0.0000 C   0  0  0  0  0  0  0  0  0  0  0  0
   -3.9504    0.7734   -0.0000 C   0  0  0  0  0  0  0  0  0  0  0  0
   -3.9623    2.2964   -0.0000 C   0  0  0  0  0  0  0  0  0  0  0  0
    1.2256    2.3083   -0.0000 S   0  0  0  0  0  0  0  0  0  0  0  0
   -0.0714    4.5691   -0.0000 C   0  0  0  0  0  0  0  0  0  0  0  0
   -5.2592    0.0476   -0.0000 Cl  0  0  0  0  0  0  0  0  0  0  0  0
    2.5106    3.0818   -0.0000 C   0  0  0  0  0  0  0  0  0  0  0  0
    1.2137    5.3425   -0.0000 N   0  0  0  0  0  0  0  0  0  0  0  0
    3.8195    2.3559   -0.0000 C   0  0  0  0  0  0  0  0  0  0  0  0
    1.6658    6.7822   -0.0000 C   0  0  0  0  0  0  0  0  0  0  0  0
    2.4154    4.4620   -0.0000 C   0  0  0  0  0  0  0  0  0  0  0  0
    3.8076    0.8567   -0.0000 C   0  0  0  0  0  0  0  0  0  0  0  0
    5.0926    3.1174   -0.0000 C   0  0  0  0  0  0  0  0  0  0  0  0
    3.1531    6.7941   -0.0000 N   0  0  0  0  0  0  0  0  0  0  0  0
    3.6172    5.3663   -0.0000 C   0  0  0  0  0  0  0  0  0  0  0  0
    5.0926    0.1309   -0.0000 C   0  0  0  0  0  0  0  0  0  0  0  0
    6.3777    2.3916   -0.0000 C   0  0  0  0  0  0  0  0  0  0  0  0
    6.3777    0.8924   -0.0000 C   0  0  0  0  0  0  0  0  0  0  0  0
    7.6746    0.1666   -0.0000 Cl  0  0  0  0  0  0  0  0  0  0  0  0
  1  2  1  0  0  0  0
  2  3  2  0  0  0  0
  2  4  1  0  0  0  0
  3  5  1  0  0  0  0
  3  6  1  0  0  0  0
  4  7  2  0  0  0  0
  5  8  2  0  0  0  0
  6  9  1  0  0  0  0
  6 10  1  0  0  0  0
  7 11  1  0  0  0  0
  9 12  1  0  0  0  0
 10 13  1  0  0  0  0
 12 14  1  0  0  0  0
 13 15  1  0  0  0  0
 13 16  1  0  0  0  0
 14 17  2  0  0  0  0
 14 18  1  0  0  0  0
 15 19  2  0  0  0  0
 16 20  2  0  0  0  0
 17 21  1  0  0  0  0
 18 22  2  0  0  0  0
 21 23  2  0  0  0  0
 23 24  1  0  0  0  0
  7  8  1  0  0  0  0
 19 20  1  0  0  0  0
 22 23  1  0  0  0  0
M  END
>  <MolRegNo>
223819

>  <m>
=

>  <Value>
70

>  <Unit>
nM

>  <Type>
IC50

>  <pValue>
7.16

>  <Ligand Efficiency>
0.41

>  <Binding Efficiency>
17.99

>  <Surface Efficiency>
40.15

>  <Assay Index>
617148

>  <Assay Category>


>  <Assay Organism>


>  <Target ID>
17045

>  <Target Name>
Cytochrome P450 3A4

>  <Target Organism>
Homo sapiens

>  <Target Description>
Target is a single protein chain

>  <Sequence Accession>
P08684

>  <Reference>


>  <Pubmed ID>


>  <DOI>


$$$$
186191
Actelion Java MolfileCreator 1.0

 25 28  0  0  0  0  0  0  0  0999 V2000
    0.0000   -0.0000   -0.0000 F   0  0  0  0  0  0  0  0  0  0  0  0
   -1.5196    0.0237   -0.0000 C   0  0  0  0  0  0  0  0  0  0  0  0
   -2.2794   -1.2584   -0.0000 C   0  0  0  0  0  0  0  0  0  0  0  0
   -2.2675    1.3415   -0.0000 C   0  0  0  0  0  0  0  0  0  0  0  0
   -3.7871   -1.2228   -0.0000 C   0  0  0  0  0  0  0  0  0  0  0  0
   -3.7753    1.3534   -0.0000 C   0  0  0  0  0  0  0  0  0  0  0  0
   -4.5469    0.0831   -0.0000 C   0  0  0  0  0  0  0  0  0  0  0  0
   -6.0309    0.1068   -0.0000 C   0  0  0  0  0  0  0  0  0  0  0  0
   -6.9450   -1.0803   -0.0000 N   0  0  0  0  0  0  0  0  0  0  0  0
   -6.9213    1.3415   -0.0000 C   0  0  0  0  0  0  0  0  0  0  0  0
   -8.3578   -0.5936   -0.0000 C   0  0  0  0  0  0  0  0  0  0  0  0
   -6.4583    2.7543   -0.0000 C   0  0  0  0  0  0  0  0  0  0  0  0
   -8.3459    0.9023   -0.0000 C   0  0  0  0  0  0  0  0  0  0  0  0
   -9.6637   -1.3059   -0.0000 N   0  0  0  0  0  0  0  0  0  0  0  0
   -7.4674    3.8702   -0.0000 C   0  0  0  0  0  0  0  0  0  0  0  0
   -4.9981    3.0629   -0.0000 C   0  0  0  0  0  0  0  0  0  0  0  0
   -9.6400    1.6621   -0.0000 C   0  0  0  0  0  0  0  0  0  0  0  0
  -10.9577   -0.5461   -0.0000 C   0  0  0  0  0  0  0  0  0  0  0  0
   -7.0044    5.3067   -0.0000 C   0  0  0  0  0  0  0  0  0  0  0  0
   -4.5469    4.4876   -0.0000 C   0  0  0  0  0  0  0  0  0  0  0  0
   -9.6281    3.1698   -0.0000 O   0  0  0  0  0  0  0  0  0  0  0  0
  -10.9459    0.9497   -0.0000 C   0  0  0  0  0  0  0  0  0  0  0  0
  -12.2636   -1.2584   -0.0000 N   0  0  0  0  0  0  0  0  0  0  0  0
   -5.5442    5.6154   -0.0000 N   0  0  0  0  0  0  0  0  0  0  0  0
  -10.9340    3.9533   -0.0000 C   0  0  0  0  0  0  0  0  0  0  0  0
  1  2  1  0  0  0  0
  2  3  2  0  0  0  0
  2  4  1  0  0  0  0
  3  5  1  0  0  0  0
  4  6  2  0  0  0  0
  5  7  2  0  0  0  0
  7  8  1  0  0  0  0
  8  9  1  0  0  0  0
  8 10  2  0  0  0  0
  9 11  2  0  0  0  0
 10 12  1  0  0  0  0
 10 13  1  0  0  0  0
 11 14  1  0  0  0  0
 12 15  2  0  0  0  0
 12 16  1  0  0  0  0
 13 17  2  0  0  0  0
 14 18  1  0  0  0  0
 15 19  1  0  0  0  0
 16 20  2  0  0  0  0
 17 21  1  0  0  0  0
 17 22  1  0  0  0  0
 18 23  1  0  0  0  0
 19 24  2  0  0  0  0
 21 25  1  0  0  0  0
  6  7  1  0  0  0  0
 11 13  1  0  0  0  0
 18 22  2  0  0  0  0
 20 24  1  0  0  0  0
M  END
>  <MolRegNo>
186191

>  <m>
=

>  <Value>
1000

>  <Unit>
nM

>  <Type>
IC50

>  <pValue>
6

>  <Ligand Efficiency>
0.33

>  <Binding Efficiency>
17.95

>  <Surface Efficiency>
7.81

>  <Assay Index>
617148

>  <Assay Category>


>  <Assay Organism>


>  <Target ID>
17045

>  <Target Name>
Cytochrome P450 3A4

>  <Target Organism>
Homo sapiens

>  <Target Description>
Target is a single protein chain

>  <Sequence Accession>
P08684

>  <Reference>


>  <Pubmed ID>


>  <DOI>


$$$$
7501
Actelion Java MolfileCreator 1.0

 31 35  0  0  1  0  0  0  0  0999 V2000
    0.0000   -0.0000   -0.0000 O   0  0  0  0  0  0  0  0  0  0  0  0
   -0.7975   -1.2337   -0.0000 C   0  0  0  0  0  0  0  0  0  0  0  0
   -2.3427   -1.1340   -0.0000 N   0  0  0  0  0  0  0  0  0  0  0  0
   -0.1495   -2.5795   -0.0000 C   0  0  0  0  0  0  0  0  0  0  0  0
   -3.1402   -2.3302   -0.0000 C   0  0  0  0  0  0  0  0  0  0  0  0
   -3.1402    0.0623   -0.0000 C   0  0  0  0  0  0  0  0  0  0  0  0
   -1.0094   -3.8380   -0.0000 C   0  0  0  0  0  0  0  0  0  0  0  0
    1.3209   -2.6667   -0.0000 C   0  0  0  0  0  0  0  0  0  0  0  0
   -4.6355   -1.8567   -0.0000 C   0  0  0  0  0  0  0  0  0  0  0  0
   -2.5171   -3.7010   -0.0000 C   0  0  0  0  0  0  0  0  0  0  0  0
   -4.6355   -0.3738   -0.0000 C   0  0  0  0  0  0  0  0  0  0  0  0
   -0.3489   -5.1714   -0.0000 C   0  0  0  0  0  0  0  0  0  0  0  0
    1.9689   -4.0125   -0.0000 O   0  0  0  0  0  0  0  0  0  0  0  0
   -5.8692   -2.6168   -0.0000 N   0  0  0  0  0  0  0  0  0  0  0  0
   -5.8692    0.4361   -0.0000 C   0  0  0  0  0  0  0  0  0  0  0  0
   -1.9439   -5.0218   -0.0000 O   0  0  0  0  0  0  0  0  0  0  0  0
    1.1340   -5.2586   -0.0000 C   0  0  0  0  0  0  0  0  0  0  0  0
    0.2118   -6.5795   -0.0000 C   0  0  0  0  0  0  0  0  0  0  0  0
   -7.2274   -1.8318   -0.0000 C   0  0  0  0  0  0  0  0  0  0  0  0
   -7.2274   -0.3738   -0.0000 C   0  0  0  0  0  0  0  0  0  0  0  0
    1.9190   -6.4050   -0.0000 O   0  0  0  0  0  0  0  0  0  0  0  0
   -0.6355   -7.8380   -0.0000 C   0  0  0  0  0  0  0  0  0  0  0  0
   -8.5234   -2.5919   -0.0000 C   0  0  0  0  0  0  0  0  0  0  0  0
   -8.5234    0.3988   -0.0000 C   0  0  0  0  0  0  0  0  0  0  0  0
   -9.8318   -1.8069   -0.0000 C   0  0  0  0  0  0  0  0  0  0  0  0
   -9.8318   -0.3489   -0.0000 C   0  0  0  0  0  0  0  0  0  0  0  0
   -8.5359    1.8941   -0.0000 C   0  0  0  0  0  0  0  0  0  0  0  0
  -11.1527    0.4237   -0.0000 O   0  0  0  0  0  0  0  0  0  0  0  0
   -7.2773    2.6168   -0.0000 N   0  0  0  0  0  0  0  0  0  0  0  0
   -6.0187    1.8692   -0.0000 C   0  0  0  0  0  0  0  0  0  0  0  0
   -7.2898    4.1371   -0.0000 C   0  0  0  0  0  0  0  0  0  0  0  0
  1  2  2  0  0  0  0
  2  3  1  0  0  0  0
  2  4  1  0  0  0  0
  3  5  1  0  0  0  0
  3  6  1  0  0  0  0
  4  7  2  0  0  0  0
  4  8  1  0  0  0  0
  5  9  1  0  0  0  0
  5 10  2  0  0  0  0
  6 11  1  0  0  0  0
  7 12  1  0  0  0  0
  8 13  1  0  0  0  0
  9 14  2  0  0  0  0
 11 15  2  0  0  0  0
 12 16  1  1  0  0  0
 12 17  1  0  0  0  0
 12 18  1  0  0  0  0
 14 19  1  0  0  0  0
 15 20  1  0  0  0  0
 17 21  2  0  0  0  0
 18 22  1  0  0  0  0
 19 23  2  0  0  0  0
 20 24  2  0  0  0  0
 23 25  1  0  0  0  0
 24 26  1  0  0  0  0
 24 27  1  0  0  0  0
 26 28  1  0  0  0  0
 27 29  1  0  0  0  0
 29 30  1  0  0  0  0
 29 31  1  0  0  0  0
  7 10  1  0  0  0  0
  9 11  1  0  0  0  0
 13 17  1  0  0  0  0
 19 20  1  0  0  0  0
 25 26  2  0  0  0  0
M  END
>  <MolRegNo>
7501

>  <m>
=

>  <Value>
1521.1

>  <Unit>
nM

>  <Type>
IC50

>  <pValue>
5.82

>  <Ligand Efficiency>
0.26

>  <Binding Efficiency>
13.8

>  <Surface Efficiency>
5.55

>  <Assay Index>
617148

>  <Assay Category>


>  <Assay Organism>


>  <Target ID>
17045

>  <Target Name>
Cytochrome P450 3A4

>  <Target Organism>
Homo sapiens

>  <Target Description>
Target is a single protein chain

>  <Sequence Accession>
P08684

>  <Reference>


>  <Pubmed ID>


>  <DOI>


$$$$
1249717
Actelion Java MolfileCreator 1.0

 32 35  0  0  0  0  0  0  0  0999 V2000
    0.0000   -0.0000   -0.0000 Cl  0  0  0  0  0  0  0  0  0  0  0  0
   -1.3040   -0.7350   -0.0000 C   0  0  0  0  0  0  0  0  0  0  0  0
   -2.6079    0.0237   -0.0000 C   0  0  0  0  0  0  0  0  0  0  0  0
   -1.3158   -2.2168   -0.0000 C   0  0  0  0  0  0  0  0  0  0  0  0
   -2.6198    1.5292   -0.0000 C   0  0  0  0  0  0  0  0  0  0  0  0
   -3.9238   -0.7113   -0.0000 C   0  0  0  0  0  0  0  0  0  0  0  0
   -2.6317   -2.9636   -0.0000 C   0  0  0  0  0  0  0  0  0  0  0  0
   -1.3277    2.2879   -0.0000 C   0  0  0  0  0  0  0  0  0  0  0  0
   -3.9238    2.2879   -0.0000 C   0  0  0  0  0  0  0  0  0  0  0  0
   -3.9356   -2.1930   -0.0000 C   0  0  0  0  0  0  0  0  0  0  0  0
   -2.6435   -4.4454   -0.0000 Cl  0  0  0  0  0  0  0  0  0  0  0  0
   -1.3395    3.8052   -0.0000 C   0  0  0  0  0  0  0  0  0  0  0  0
   -0.0474    1.5529   -0.0000 C   0  0  0  0  0  0  0  0  0  0  0  0
   -3.9356    3.7934   -0.0000 C   0  0  0  0  0  0  0  0  0  0  0  0
   -5.3581    1.8374   -0.0000 C   0  0  0  0  0  0  0  0  0  0  0  0
   -2.6435    4.5639   -0.0000 N   0  0  0  0  0  0  0  0  0  0  0  0
   -0.0593    4.5639   -0.0000 C   0  0  0  0  0  0  0  0  0  0  0  0
    1.2328    2.3116   -0.0000 N   0  0  0  0  0  0  0  0  0  0  0  0
   -5.3700    4.2675   -0.0000 C   0  0  0  0  0  0  0  0  0  0  0  0
   -6.2472    3.0584   -0.0000 N   0  0  0  0  0  0  0  0  0  0  0  0
   -5.8442    5.7019   -0.0000 O   0  0  0  0  0  0  0  0  0  0  0  0
   -7.7527    3.0703   -0.0000 C   0  0  0  0  0  0  0  0  0  0  0  0
   -8.5114    1.7900   -0.0000 C   0  0  0  0  0  0  0  0  0  0  0  0
   -7.7764    0.5097   -0.0000 O   0  0  0  0  0  0  0  0  0  0  0  0
  -10.0169    1.8019   -0.0000 N   0  0  0  0  0  0  0  0  0  0  0  0
  -10.7756    0.5216   -0.0000 C   0  0  0  0  0  0  0  0  0  0  0  0
  -12.2811    0.5334   -0.0000 C   0  0  0  0  0  0  0  0  0  0  0  0
  -13.0397    1.8374   -0.0000 C   0  0  0  0  0  0  0  0  0  0  0  0
  -13.0279   -0.7468   -0.0000 C   0  0  0  0  0  0  0  0  0  0  0  0
  -14.5452    1.8493   -0.0000 N   0  0  0  0  0  0  0  0  0  0  0  0
  -14.5334   -0.7468   -0.0000 C   0  0  0  0  0  0  0  0  0  0  0  0
  -15.3039    0.5690   -0.0000 C   0  0  0  0  0  0  0  0  0  0  0  0
  1  2  1  0  0  0  0
  2  3  2  0  0  0  0
  2  4  1  0  0  0  0
  3  5  1  0  0  0  0
  3  6  1  0  0  0  0
  4  7  2  0  0  0  0
  5  8  2  0  0  0  0
  5  9  1  0  0  0  0
  6 10  2  0  0  0  0
  7 11  1  0  0  0  0
  8 12  1  0  0  0  0
  8 13  1  0  0  0  0
  9 14  2  0  0  0  0
  9 15  1  0  0  0  0
 12 16  2  0  0  0  0
 12 17  1  0  0  0  0
 13 18  1  0  0  0  0
 14 19  1  0  0  0  0
 15 20  1  0  0  0  0
 19 21  2  0  0  0  0
 20 22  1  0  0  0  0
 22 23  1  0  0  0  0
 23 24  2  0  0  0  0
 23 25  1  0  0  0  0
 25 26  1  0  0  0  0
 26 27  1  0  0  0  0
 27 28  2  0  0  0  0
 27 29  1  0  0  0  0
 28 30  1  0  0  0  0
 29 31  2  0  0  0  0
 30 32  2  0  0  0  0
  7 10  1  0  0  0  0
 14 16  1  0  0  0  0
 19 20  1  0  0  0  0
 31 32  1  0  0  0  0
M  END
>  <MolRegNo>
1249717

>  <m>
=

>  <Value>
7000

>  <Unit>
nM

>  <Type>
IC50

>  <pValue>
5.16

>  <Ligand Efficiency>
0

>  <Binding Efficiency>
0

>  <Surface Efficiency>
0

>  <Assay Index>
617241

>  <Assay Category>


>  <Assay Organism>


>  <Target ID>
17045

>  <Target Name>
Cytochrome P450 3A4

>  <Target Organism>
Homo sapiens

>  <Target Description>
Target is a single protein chain

>  <Sequence Accession>
P08684

>  <Reference>
Bioorg Med Chem Lett 21 (22), 6646-6651 (2011)

>  <Pubmed ID>
21996520

>  <DOI>
10.1016/j.bmcl.2011.09.074

$$$$
1251435
Actelion Java MolfileCreator 1.0

 40 43  0  0  0  0  0  0  0  0999 V2000
    0.0000   -0.0000   -0.0000 Cl  0  0  0  0  0  0  0  0  0  0  0  0
   -0.0119   -1.4856   -0.0000 C   0  0  0  0  0  0  0  0  0  0  0  0
   -1.3192   -2.2225   -0.0000 C   0  0  0  0  0  0  0  0  0  0  0  0
    1.2717   -2.2225   -0.0000 C   0  0  0  0  0  0  0  0  0  0  0  0
   -2.6266   -1.4500   -0.0000 O   0  0  0  0  0  0  0  0  0  0  0  0
   -1.3430   -3.7081   -0.0000 C   0  0  0  0  0  0  0  0  0  0  0  0
    1.2598   -3.7200   -0.0000 C   0  0  0  0  0  0  0  0  0  0  0  0
   -2.6266    0.0594   -0.0000 C   0  0  0  0  0  0  0  0  0  0  0  0
   -0.0594   -4.4568   -0.0000 C   0  0  0  0  0  0  0  0  0  0  0  0
    2.5434   -4.4687   -0.0000 C   0  0  0  0  0  0  0  0  0  0  0  0
   -1.3430    0.8201   -0.0000 N   0  0  0  0  0  0  0  0  0  0  0  0
   -3.9339    0.8319   -0.0000 C   0  0  0  0  0  0  0  0  0  0  0  0
    2.5315   -5.9543   -0.0000 F   0  0  0  0  0  0  0  0  0  0  0  0
    3.8388   -3.7081   -0.0000 F   0  0  0  0  0  0  0  0  0  0  0  0
    3.8269   -5.2056   -0.0000 F   0  0  0  0  0  0  0  0  0  0  0  0
   -1.3549    2.3294   -0.0000 C   0  0  0  0  0  0  0  0  0  0  0  0
   -5.2531    0.0951   -0.0000 C   0  0  0  0  0  0  0  0  0  0  0  0
   -3.9577    2.3413   -0.0000 C   0  0  0  0  0  0  0  0  0  0  0  0
   -2.6741    3.0901   -0.0000 C   0  0  0  0  0  0  0  0  0  0  0  0
   -5.2650   -1.3905   -0.0000 O   0  0  0  0  0  0  0  0  0  0  0  0
   -6.5605    0.8557   -0.0000 N   0  0  0  0  0  0  0  0  0  0  0  0
   -7.8797    0.1188   -0.0000 C   0  0  0  0  0  0  0  0  0  0  0  0
   -9.1870    0.8795   -0.0000 C   0  0  0  0  0  0  0  0  0  0  0  0
   -7.8916   -1.3668   -0.0000 C   0  0  0  0  0  0  0  0  0  0  0  0
   -9.1989    2.3889   -0.0000 O   0  0  0  0  0  0  0  0  0  0  0  0
  -10.5063    0.1426   -0.0000 N   0  0  0  0  0  0  0  0  0  0  0  0
   -9.2108   -2.1036   -0.0000 O   0  0  0  0  0  0  0  0  0  0  0  0
  -11.8849    0.7725   -0.0000 C   0  0  0  0  0  0  0  0  0  0  0  0
  -10.6727   -1.3430   -0.0000 C   0  0  0  0  0  0  0  0  0  0  0  0
   -9.2227   -3.5892   -0.0000 C   0  0  0  0  0  0  0  0  0  0  0  0
  -12.9070   -0.3328   -0.0000 C   0  0  0  0  0  0  0  0  0  0  0  0
  -12.1583   -1.6401   -0.0000 C   0  0  0  0  0  0  0  0  0  0  0  0
   -7.9272   -4.3380   -0.0000 C   0  0  0  0  0  0  0  0  0  0  0  0
  -14.4164   -0.1664   -0.0000 N   0  0  0  0  0  0  0  0  0  0  0  0
   -7.9510   -5.8355   -0.0000 C   0  0  0  0  0  0  0  0  0  0  0  0
   -6.6437   -3.5774   -0.0000 C   0  0  0  0  0  0  0  0  0  0  0  0
  -15.3078   -1.3668   -0.0000 C   0  0  0  0  0  0  0  0  0  0  0  0
   -6.6674   -6.5724   -0.0000 C   0  0  0  0  0  0  0  0  0  0  0  0
   -5.3601   -4.3142   -0.0000 C   0  0  0  0  0  0  0  0  0  0  0  0
   -5.3720   -5.8117   -0.0000 C   0  0  0  0  0  0  0  0  0  0  0  0
  1  2  1  0  0  0  0
  2  3  2  0  0  0  0
  2  4  1  0  0  0  0
  3  5  1  0  0  0  0
  3  6  1  0  0  0  0
  4  7  2  0  0  0  0
  5  8  1  0  0  0  0
  6  9  2  0  0  0  0
  7 10  1  0  0  0  0
  8 11  2  0  0  0  0
  8 12  1  0  0  0  0
 10 13  1  0  0  0  0
 10 14  1  0  0  0  0
 10 15  1  0  0  0  0
 11 16  1  0  0  0  0
 12 17  1  0  0  0  0
 12 18  2  0  0  0  0
 16 19  2  0  0  0  0
 17 20  2  0  0  0  0
 17 21  1  0  0  0  0
 22 21  1  1  0  0  0
 22 23  1  0  0  0  0
 22 24  1  0  0  0  0
 23 25  2  0  0  0  0
 23 26  1  0  0  0  0
 24 27  1  0  0  0  0
 26 28  1  0  0  0  0
 26 29  1  0  0  0  0
 27 30  1  0  0  0  0
 28 31  1  0  0  0  0
 29 32  1  0  0  0  0
 30 33  1  0  0  0  0
 31 34  1  6  0  0  0
 33 35  2  0  0  0  0
 33 36  1  0  0  0  0
 34 37  1  0  0  0  0
 35 38  1  0  0  0  0
 36 39  2  0  0  0  0
 38 40  2  0  0  0  0
  7  9  1  0  0  0  0
 18 19  1  0  0  0  0
 31 32  1  0  0  0  0
 39 40  1  0  0  0  0
M  END
>  <MolRegNo>
1251435

>  <m>
=

>  <Value>
12000

>  <Unit>
nM

>  <Type>
IC50

>  <pValue>
4.92

>  <Ligand Efficiency>
0

>  <Binding Efficiency>
0

>  <Surface Efficiency>
0

>  <Assay Index>
618254

>  <Assay Category>


>  <Assay Organism>
Homo sapiens

>  <Target ID>
17045

>  <Target Name>
Cytochrome P450 3A4

>  <Target Organism>
Homo sapiens

>  <Target Description>
Target is a single protein chain

>  <Sequence Accession>
P08684

>  <Reference>
Bioorg Med Chem Lett 21 (22), 6773-6777 (2011)

>  <Pubmed ID>
21974949

>  <DOI>
10.1016/j.bmcl.2011.09.037

$$$$
1251434
Actelion Java MolfileCreator 1.0

 41 44  0  0  0  0  0  0  0  0999 V2000
    0.0000   -0.0000   -0.0000 Cl  0  0  0  0  0  0  0  0  0  0  0  0
   -0.0119   -1.4851   -0.0000 C   0  0  0  0  0  0  0  0  0  0  0  0
   -1.3188   -2.2217   -0.0000 C   0  0  0  0  0  0  0  0  0  0  0  0
    1.2713   -2.2217   -0.0000 C   0  0  0  0  0  0  0  0  0  0  0  0
   -2.6257   -1.4495   -0.0000 O   0  0  0  0  0  0  0  0  0  0  0  0
   -1.3426   -3.7069   -0.0000 C   0  0  0  0  0  0  0  0  0  0  0  0
    1.2594   -3.7188   -0.0000 C   0  0  0  0  0  0  0  0  0  0  0  0
   -2.6257    0.0594   -0.0000 C   0  0  0  0  0  0  0  0  0  0  0  0
   -0.0594   -4.4554   -0.0000 C   0  0  0  0  0  0  0  0  0  0  0  0
    2.5425   -4.4673   -0.0000 C   0  0  0  0  0  0  0  0  0  0  0  0
   -1.3426    0.8198   -0.0000 N   0  0  0  0  0  0  0  0  0  0  0  0
   -3.9326    0.8317   -0.0000 C   0  0  0  0  0  0  0  0  0  0  0  0
    2.5307   -5.9524   -0.0000 F   0  0  0  0  0  0  0  0  0  0  0  0
    3.8376   -3.7069   -0.0000 F   0  0  0  0  0  0  0  0  0  0  0  0
    3.8257   -5.2039   -0.0000 F   0  0  0  0  0  0  0  0  0  0  0  0
   -1.3544    2.3287   -0.0000 C   0  0  0  0  0  0  0  0  0  0  0  0
   -5.2514    0.0950   -0.0000 C   0  0  0  0  0  0  0  0  0  0  0  0
   -3.9564    2.3406   -0.0000 C   0  0  0  0  0  0  0  0  0  0  0  0
   -2.6732    3.0891   -0.0000 C   0  0  0  0  0  0  0  0  0  0  0  0
   -5.2633   -1.3901   -0.0000 O   0  0  0  0  0  0  0  0  0  0  0  0
   -6.5583    0.8554   -0.0000 N   0  0  0  0  0  0  0  0  0  0  0  0
   -7.8771    0.1188   -0.0000 C   0  0  0  0  0  0  0  0  0  0  0  0
   -9.1840    0.8792   -0.0000 C   0  0  0  0  0  0  0  0  0  0  0  0
   -7.8890   -1.3663   -0.0000 C   0  0  0  0  0  0  0  0  0  0  0  0
   -9.1959    2.3881   -0.0000 O   0  0  0  0  0  0  0  0  0  0  0  0
  -10.5028    0.1426   -0.0000 N   0  0  0  0  0  0  0  0  0  0  0  0
   -9.2078   -2.1029   -0.0000 O   0  0  0  0  0  0  0  0  0  0  0  0
  -11.8810    0.7723   -0.0000 C   0  0  0  0  0  0  0  0  0  0  0  0
  -10.6692   -1.3426   -0.0000 C   0  0  0  0  0  0  0  0  0  0  0  0
   -9.2197   -3.5881   -0.0000 C   0  0  0  0  0  0  0  0  0  0  0  0
  -12.9028   -0.3327   -0.0000 C   0  0  0  0  0  0  0  0  0  0  0  0
  -12.1543   -1.6396   -0.0000 C   0  0  0  0  0  0  0  0  0  0  0  0
   -7.9246   -4.3366   -0.0000 C   0  0  0  0  0  0  0  0  0  0  0  0
  -14.4117   -0.1663   -0.0000 N   0  0  0  0  0  0  0  0  0  0  0  0
   -7.9484   -5.8336   -0.0000 C   0  0  0  0  0  0  0  0  0  0  0  0
   -6.6415   -3.5762   -0.0000 C   0  0  0  0  0  0  0  0  0  0  0  0
  -15.0295    1.2237   -0.0000 C   0  0  0  0  0  0  0  0  0  0  0  0
  -15.3027   -1.3663   -0.0000 C   0  0  0  0  0  0  0  0  0  0  0  0
   -6.6652   -6.5702   -0.0000 C   0  0  0  0  0  0  0  0  0  0  0  0
   -5.3583   -4.3128   -0.0000 C   0  0  0  0  0  0  0  0  0  0  0  0
   -5.3702   -5.8098   -0.0000 C   0  0  0  0  0  0  0  0  0  0  0  0
  1  2  1  0  0  0  0
  2  3  2  0  0  0  0
  2  4  1  0  0  0  0
  3  5  1  0  0  0  0
  3  6  1  0  0  0  0
  4  7  2  0  0  0  0
  5  8  1  0  0  0  0
  6  9  2  0  0  0  0
  7 10  1  0  0  0  0
  8 11  2  0  0  0  0
  8 12  1  0  0  0  0
 10 13  1  0  0  0  0
 10 14  1  0  0  0  0
 10 15  1  0  0  0  0
 11 16  1  0  0  0  0
 12 17  1  0  0  0  0
 12 18  2  0  0  0  0
 16 19  2  0  0  0  0
 17 20  2  0  0  0  0
 17 21  1  0  0  0  0
 22 21  1  1  0  0  0
 22 23  1  0  0  0  0
 22 24  1  0  0  0  0
 23 25  2  0  0  0  0
 23 26  1  0  0  0  0
 24 27  1  0  0  0  0
 26 28  1  0  0  0  0
 26 29  1  0  0  0  0
 27 30  1  0  0  0  0
 28 31  1  0  0  0  0
 29 32  1  0  0  0  0
 30 33  1  0  0  0  0
 31 34  1  6  0  0  0
 33 35  2  0  0  0  0
 33 36  1  0  0  0  0
 34 37  1  0  0  0  0
 34 38  1  0  0  0  0
 35 39  1  0  0  0  0
 36 40  2  0  0  0  0
 39 41  2  0  0  0  0
  7  9  1  0  0  0  0
 18 19  1  0  0  0  0
 31 32  1  0  0  0  0
 40 41  1  0  0  0  0
M  END
>  <MolRegNo>
1251434

>  <m>
=

>  <Value>
7200

>  <Unit>
nM

>  <Type>
IC50

>  <pValue>
5.14

>  <Ligand Efficiency>
0

>  <Binding Efficiency>
0

>  <Surface Efficiency>
0

>  <Assay Index>
618254

>  <Assay Category>


>  <Assay Organism>
Homo sapiens

>  <Target ID>
17045

>  <Target Name>
Cytochrome P450 3A4

>  <Target Organism>
Homo sapiens

>  <Target Description>
Target is a single protein chain

>  <Sequence Accession>
P08684

>  <Reference>
Bioorg Med Chem Lett 21 (22), 6773-6777 (2011)

>  <Pubmed ID>
21974949

>  <DOI>
10.1016/j.bmcl.2011.09.037

$$$$
1251433
Actelion Java MolfileCreator 1.0

 40 43  0  0  0  0  0  0  0  0999 V2000
    0.0000   -0.0000   -0.0000 Cl  0  0  0  0  0  0  0  0  0  0  0  0
   -0.0119   -1.4861   -0.0000 C   0  0  0  0  0  0  0  0  0  0  0  0
   -1.3197   -2.2232   -0.0000 C   0  0  0  0  0  0  0  0  0  0  0  0
    1.2721   -2.2232   -0.0000 C   0  0  0  0  0  0  0  0  0  0  0  0
   -2.6274   -1.4504   -0.0000 O   0  0  0  0  0  0  0  0  0  0  0  0
   -1.3434   -3.7093   -0.0000 C   0  0  0  0  0  0  0  0  0  0  0  0
    1.2602   -3.7212   -0.0000 C   0  0  0  0  0  0  0  0  0  0  0  0
   -2.6274    0.0594   -0.0000 C   0  0  0  0  0  0  0  0  0  0  0  0
   -0.0594   -4.4583   -0.0000 C   0  0  0  0  0  0  0  0  0  0  0  0
    2.5442   -4.4702   -0.0000 C   0  0  0  0  0  0  0  0  0  0  0  0
   -1.3434    0.8203   -0.0000 N   0  0  0  0  0  0  0  0  0  0  0  0
   -3.9352    0.8322   -0.0000 C   0  0  0  0  0  0  0  0  0  0  0  0
    2.5323   -5.9563   -0.0000 F   0  0  0  0  0  0  0  0  0  0  0  0
    3.8401   -3.7093   -0.0000 F   0  0  0  0  0  0  0  0  0  0  0  0
    3.8282   -5.2073   -0.0000 F   0  0  0  0  0  0  0  0  0  0  0  0
   -1.3553    2.3302   -0.0000 C   0  0  0  0  0  0  0  0  0  0  0  0
   -5.2549    0.0951   -0.0000 C   0  0  0  0  0  0  0  0  0  0  0  0
   -3.9590    2.3421   -0.0000 C   0  0  0  0  0  0  0  0  0  0  0  0
   -2.6750    3.0911   -0.0000 C   0  0  0  0  0  0  0  0  0  0  0  0
   -5.2668   -1.3910   -0.0000 O   0  0  0  0  0  0  0  0  0  0  0  0
   -6.5626    0.8560   -0.0000 N   0  0  0  0  0  0  0  0  0  0  0  0
   -7.8823    0.1189   -0.0000 C   0  0  0  0  0  0  0  0  0  0  0  0
   -9.1901    0.8798   -0.0000 C   0  0  0  0  0  0  0  0  0  0  0  0
   -7.8942   -1.3672   -0.0000 C   0  0  0  0  0  0  0  0  0  0  0  0
   -9.2020    2.3897   -0.0000 O   0  0  0  0  0  0  0  0  0  0  0  0
  -10.5097    0.1427   -0.0000 N   0  0  0  0  0  0  0  0  0  0  0  0
   -9.2138   -2.1043   -0.0000 O   0  0  0  0  0  0  0  0  0  0  0  0
  -11.9721    0.5469   -0.0000 C   0  0  0  0  0  0  0  0  0  0  0  0
  -10.9140   -1.2959   -0.0000 C   0  0  0  0  0  0  0  0  0  0  0  0
   -9.2257   -3.5904   -0.0000 C   0  0  0  0  0  0  0  0  0  0  0  0
  -12.3763   -0.8917   -0.0000 C   0  0  0  0  0  0  0  0  0  0  0  0
   -7.9299   -4.3394   -0.0000 C   0  0  0  0  0  0  0  0  0  0  0  0
  -13.6959   -1.6288   -0.0000 N   0  0  0  0  0  0  0  0  0  0  0  0
   -7.9536   -5.8374   -0.0000 C   0  0  0  0  0  0  0  0  0  0  0  0
   -6.6459   -3.5785   -0.0000 C   0  0  0  0  0  0  0  0  0  0  0  0
  -15.0037   -0.8679   -0.0000 C   0  0  0  0  0  0  0  0  0  0  0  0
  -13.7078   -3.1149   -0.0000 C   0  0  0  0  0  0  0  0  0  0  0  0
   -6.6696   -6.5745   -0.0000 C   0  0  0  0  0  0  0  0  0  0  0  0
   -5.3619   -4.3156   -0.0000 C   0  0  0  0  0  0  0  0  0  0  0  0
   -5.3738   -5.8136   -0.0000 C   0  0  0  0  0  0  0  0  0  0  0  0
  1  2  1  0  0  0  0
  2  3  2  0  0  0  0
  2  4  1  0  0  0  0
  3  5  1  0  0  0  0
  3  6  1  0  0  0  0
  4  7  2  0  0  0  0
  5  8  1  0  0  0  0
  6  9  2  0  0  0  0
  7 10  1  0  0  0  0
  8 11  2  0  0  0  0
  8 12  1  0  0  0  0
 10 13  1  0  0  0  0
 10 14  1  0  0  0  0
 10 15  1  0  0  0  0
 11 16  1  0  0  0  0
 12 17  1  0  0  0  0
 12 18  2  0  0  0  0
 16 19  2  0  0  0  0
 17 20  2  0  0  0  0
 17 21  1  0  0  0  0
 22 21  1  1  0  0  0
 22 23  1  0  0  0  0
 22 24  1  0  0  0  0
 23 25  2  0  0  0  0
 23 26  1  0  0  0  0
 24 27  1  0  0  0  0
 26 28  1  0  0  0  0
 26 29  1  0  0  0  0
 27 30  1  0  0  0  0
 28 31  1  0  0  0  0
 30 32  1  0  0  0  0
 31 33  1  0  0  0  0
 32 34  2  0  0  0  0
 32 35  1  0  0  0  0
 33 36  1  0  0  0  0
 33 37  1  0  0  0  0
 34 38  1  0  0  0  0
 35 39  2  0  0  0  0
 38 40  2  0  0  0  0
  7  9  1  0  0  0  0
 18 19  1  0  0  0  0
 29 31  1  0  0  0  0
 39 40  1  0  0  0  0
M  END
>  <MolRegNo>
1251433

>  <m>
=

>  <Value>
5400

>  <Unit>
nM

>  <Type>
IC50

>  <pValue>
5.27

>  <Ligand Efficiency>
0

>  <Binding Efficiency>
0

>  <Surface Efficiency>
0

>  <Assay Index>
618254

>  <Assay Category>


>  <Assay Organism>
Homo sapiens

>  <Target ID>
17045

>  <Target Name>
Cytochrome P450 3A4

>  <Target Organism>
Homo sapiens

>  <Target Description>
Target is a single protein chain

>  <Sequence Accession>
P08684

>  <Reference>
Bioorg Med Chem Lett 21 (22), 6773-6777 (2011)

>  <Pubmed ID>
21974949

>  <DOI>
10.1016/j.bmcl.2011.09.037

$$$$
1251431
Actelion Java MolfileCreator 1.0

 38 40  0  0  0  0  0  0  0  0999 V2000
    0.0000   -0.0000   -0.0000 Cl  0  0  0  0  0  0  0  0  0  0  0  0
   -0.0119   -1.4840   -0.0000 C   0  0  0  0  0  0  0  0  0  0  0  0
   -1.3178   -2.2200   -0.0000 C   0  0  0  0  0  0  0  0  0  0  0  0
    1.2703   -2.2200   -0.0000 C   0  0  0  0  0  0  0  0  0  0  0  0
   -2.6237   -1.4484   -0.0000 O   0  0  0  0  0  0  0  0  0  0  0  0
   -1.3534   -3.7040   -0.0000 C   0  0  0  0  0  0  0  0  0  0  0  0
    1.2584   -3.7159   -0.0000 C   0  0  0  0  0  0  0  0  0  0  0  0
   -2.6237    0.0594   -0.0000 C   0  0  0  0  0  0  0  0  0  0  0  0
   -0.0712   -4.4520   -0.0000 C   0  0  0  0  0  0  0  0  0  0  0  0
    2.5406   -4.4638   -0.0000 C   0  0  0  0  0  0  0  0  0  0  0  0
   -1.3297    0.8192   -0.0000 N   0  0  0  0  0  0  0  0  0  0  0  0
   -3.9296    0.8310   -0.0000 C   0  0  0  0  0  0  0  0  0  0  0  0
    2.5168   -5.9478   -0.0000 F   0  0  0  0  0  0  0  0  0  0  0  0
    3.8346   -3.7040   -0.0000 F   0  0  0  0  0  0  0  0  0  0  0  0
    3.8228   -5.1999   -0.0000 F   0  0  0  0  0  0  0  0  0  0  0  0
   -1.3415    2.3269   -0.0000 C   0  0  0  0  0  0  0  0  0  0  0  0
   -5.2474    0.0950   -0.0000 C   0  0  0  0  0  0  0  0  0  0  0  0
   -3.9415    2.3388   -0.0000 C   0  0  0  0  0  0  0  0  0  0  0  0
   -2.6593    3.0867   -0.0000 C   0  0  0  0  0  0  0  0  0  0  0  0
   -5.2593   -1.3890   -0.0000 O   0  0  0  0  0  0  0  0  0  0  0  0
   -6.5533    0.8548   -0.0000 N   0  0  0  0  0  0  0  0  0  0  0  0
   -7.8711    0.1187   -0.0000 C   0  0  0  0  0  0  0  0  0  0  0  0
   -9.1770    0.8785   -0.0000 C   0  0  0  0  0  0  0  0  0  0  0  0
   -7.8830   -1.3653   -0.0000 C   0  0  0  0  0  0  0  0  0  0  0  0
   -9.1889    2.3863   -0.0000 O   0  0  0  0  0  0  0  0  0  0  0  0
  -10.4948    0.1425   -0.0000 N   0  0  0  0  0  0  0  0  0  0  0  0
   -9.2007   -2.1013   -0.0000 O   0  0  0  0  0  0  0  0  0  0  0  0
  -11.8007    0.9141   -0.0000 C   0  0  0  0  0  0  0  0  0  0  0  0
  -10.5067   -1.3415   -0.0000 C   0  0  0  0  0  0  0  0  0  0  0  0
   -9.2126   -3.5853   -0.0000 C   0  0  0  0  0  0  0  0  0  0  0  0
  -13.1066    0.1662   -0.0000 C   0  0  0  0  0  0  0  0  0  0  0  0
  -11.8126   -2.0776   -0.0000 C   0  0  0  0  0  0  0  0  0  0  0  0
  -10.5423   -4.3095   -0.0000 C   0  0  0  0  0  0  0  0  0  0  0  0
  -13.1185   -1.3178   -0.0000 N   0  0  0  0  0  0  0  0  0  0  0  0
  -11.8482   -3.5260   -0.0000 C   0  0  0  0  0  0  0  0  0  0  0  0
  -10.5779   -5.7935   -0.0000 C   0  0  0  0  0  0  0  0  0  0  0  0
  -11.8601   -5.0337   -0.0000 C   0  0  0  0  0  0  0  0  0  0  0  0
  -14.4244   -2.0538   -0.0000 C   0  0  0  0  0  0  0  0  0  0  0  0
  1  2  1  0  0  0  0
  2  3  2  0  0  0  0
  2  4  1  0  0  0  0
  3  5  1  0  0  0  0
  3  6  1  0  0  0  0
  4  7  2  0  0  0  0
  5  8  1  0  0  0  0
  6  9  2  0  0  0  0
  7 10  1  0  0  0  0
  8 11  2  0  0  0  0
  8 12  1  0  0  0  0
 10 13  1  0  0  0  0
 10 14  1  0  0  0  0
 10 15  1  0  0  0  0
 11 16  1  0  0  0  0
 12 17  1  0  0  0  0
 12 18  2  0  0  0  0
 16 19  2  0  0  0  0
 17 20  2  0  0  0  0
 17 21  1  0  0  0  0
 22 21  1  1  0  0  0
 22 23  1  0  0  0  0
 22 24  1  0  0  0  0
 23 25  2  0  0  0  0
 23 26  1  0  0  0  0
 24 27  1  0  0  0  0
 26 28  1  0  0  0  0
 26 29  1  0  0  0  0
 27 30  1  0  0  0  0
 28 31  1  0  0  0  0
 29 32  1  0  0  0  0
 30 33  1  0  0  0  0
 31 34  1  0  0  0  0
 33 35  1  0  0  0  0
 33 36  1  0  0  0  0
 33 37  1  0  0  0  0
 34 38  1  0  0  0  0
  7  9  1  0  0  0  0
 18 19  1  0  0  0  0
 32 34  1  0  0  0  0
M  END
>  <MolRegNo>
1251431

>  <m>
=

>  <Value>
12000

>  <Unit>
nM

>  <Type>
IC50

>  <pValue>
4.92

>  <Ligand Efficiency>
0

>  <Binding Efficiency>
0

>  <Surface Efficiency>
0

>  <Assay Index>
618254

>  <Assay Category>


>  <Assay Organism>
Homo sapiens

>  <Target ID>
17045

>  <Target Name>
Cytochrome P450 3A4

>  <Target Organism>
Homo sapiens

>  <Target Description>
Target is a single protein chain

>  <Sequence Accession>
P08684

>  <Reference>
Bioorg Med Chem Lett 21 (22), 6773-6777 (2011)

>  <Pubmed ID>
21974949

>  <DOI>
10.1016/j.bmcl.2011.09.037

$$$$
1251430
Actelion Java MolfileCreator 1.0

 41 44  0  0  0  0  0  0  0  0999 V2000
    0.0000   -0.0000   -0.0000 Cl  0  0  0  0  0  0  0  0  0  0  0  0
    0.0000    1.5098   -0.0000 C   0  0  0  0  0  0  0  0  0  0  0  0
   -1.3195    2.2825   -0.0000 N   0  0  0  0  0  0  0  0  0  0  0  0
    1.2839    2.2706   -0.0000 C   0  0  0  0  0  0  0  0  0  0  0  0
   -1.3195    3.7922   -0.0000 C   0  0  0  0  0  0  0  0  0  0  0  0
    1.2839    3.7803   -0.0000 C   0  0  0  0  0  0  0  0  0  0  0  0
   -0.0238    4.5411   -0.0000 C   0  0  0  0  0  0  0  0  0  0  0  0
    2.5915    4.5293   -0.0000 C   0  0  0  0  0  0  0  0  0  0  0  0
    2.5797    6.0390   -0.0000 O   0  0  0  0  0  0  0  0  0  0  0  0
    3.8754    6.7998   -0.0000 C   0  0  0  0  0  0  0  0  0  0  0  0
    3.8635    8.3096   -0.0000 C   0  0  0  0  0  0  0  0  0  0  0  0
    5.1593    9.0704   -0.0000 N   0  0  0  0  0  0  0  0  0  0  0  0
    2.5559    9.0704   -0.0000 C   0  0  0  0  0  0  0  0  0  0  0  0
    6.4432    8.3334   -0.0000 C   0  0  0  0  0  0  0  0  0  0  0  0
    2.5440   10.5802   -0.0000 O   0  0  0  0  0  0  0  0  0  0  0  0
    1.2363    8.3334   -0.0000 N   0  0  0  0  0  0  0  0  0  0  0  0
    6.4313    6.8474   -0.0000 O   0  0  0  0  0  0  0  0  0  0  0  0
    7.7390    9.0942   -0.0000 C   0  0  0  0  0  0  0  0  0  0  0  0
   -0.0713    9.1061   -0.0000 C   0  0  0  0  0  0  0  0  0  0  0  0
    1.2244    6.8474   -0.0000 C   0  0  0  0  0  0  0  0  0  0  0  0
    9.0229    8.3452   -0.0000 C   0  0  0  0  0  0  0  0  0  0  0  0
    7.7271   10.6039   -0.0000 C   0  0  0  0  0  0  0  0  0  0  0  0
   -1.3790    8.3571   -0.0000 C   0  0  0  0  0  0  0  0  0  0  0  0
   -0.0832    6.1103   -0.0000 C   0  0  0  0  0  0  0  0  0  0  0  0
    8.9991    6.8593   -0.0000 O   0  0  0  0  0  0  0  0  0  0  0  0
   10.3186    9.1061   -0.0000 N   0  0  0  0  0  0  0  0  0  0  0  0
    9.0110   11.3648   -0.0000 C   0  0  0  0  0  0  0  0  0  0  0  0
   -1.3909    6.8712   -0.0000 N   0  0  0  0  0  0  0  0  0  0  0  0
   10.2830    6.1103   -0.0000 C   0  0  0  0  0  0  0  0  0  0  0  0
   10.3067   10.6158   -0.0000 C   0  0  0  0  0  0  0  0  0  0  0  0
   -2.6985    6.1341   -0.0000 C   0  0  0  0  0  0  0  0  0  0  0  0
   11.5668    6.8712   -0.0000 C   0  0  0  0  0  0  0  0  0  0  0  0
   10.2473    4.6244   -0.0000 C   0  0  0  0  0  0  0  0  0  0  0  0
   11.5550    8.3809   -0.0000 Cl  0  0  0  0  0  0  0  0  0  0  0  0
   12.8507    6.1341   -0.0000 C   0  0  0  0  0  0  0  0  0  0  0  0
   11.5312    3.8754   -0.0000 C   0  0  0  0  0  0  0  0  0  0  0  0
   12.8388    4.6362   -0.0000 C   0  0  0  0  0  0  0  0  0  0  0  0
   14.1227    3.8873   -0.0000 C   0  0  0  0  0  0  0  0  0  0  0  0
   14.0990    2.4013   -0.0000 F   0  0  0  0  0  0  0  0  0  0  0  0
   15.4185    4.6481   -0.0000 F   0  0  0  0  0  0  0  0  0  0  0  0
   15.4066    3.1503   -0.0000 F   0  0  0  0  0  0  0  0  0  0  0  0
  1  2  1  0  0  0  0
  2  3  2  0  0  0  0
  2  4  1  0  0  0  0
  3  5  1  0  0  0  0
  4  6  2  0  0  0  0
  5  7  2  0  0  0  0
  6  8  1  0  0  0  0
  8  9  1  0  0  0  0
  9 10  1  0  0  0  0
 10 11  1  0  0  0  0
 11 12  1  1  0  0  0
 11 13  1  0  0  0  0
 12 14  1  0  0  0  0
 13 15  2  0  0  0  0
 13 16  1  0  0  0  0
 14 17  2  0  0  0  0
 14 18  1  0  0  0  0
 16 19  1  0  0  0  0
 16 20  1  0  0  0  0
 18 21  2  0  0  0  0
 18 22  1  0  0  0  0
 19 23  1  0  0  0  0
 20 24  1  0  0  0  0
 21 25  1  0  0  0  0
 21 26  1  0  0  0  0
 22 27  2  0  0  0  0
 23 28  1  0  0  0  0
 25 29  1  0  0  0  0
 26 30  2  0  0  0  0
 28 31  1  0  0  0  0
 29 32  2  0  0  0  0
 29 33  1  0  0  0  0
 32 34  1  0  0  0  0
 32 35  1  0  0  0  0
 33 36  2  0  0  0  0
 35 37  2  0  0  0  0
 37 38  1  0  0  0  0
 38 39  1  0  0  0  0
 38 40  1  0  0  0  0
 38 41  1  0  0  0  0
  6  7  1  0  0  0  0
 24 28  1  0  0  0  0
 27 30  1  0  0  0  0
 36 37  1  0  0  0  0
M  END
>  <MolRegNo>
1251430

>  <m>
=

>  <Value>
11000

>  <Unit>
nM

>  <Type>
IC50

>  <pValue>
4.96

>  <Ligand Efficiency>
0

>  <Binding Efficiency>
0

>  <Surface Efficiency>
0

>  <Assay Index>
618254

>  <Assay Category>


>  <Assay Organism>
Homo sapiens

>  <Target ID>
17045

>  <Target Name>
Cytochrome P450 3A4

>  <Target Organism>
Homo sapiens

>  <Target Description>
Target is a single protein chain

>  <Sequence Accession>
P08684

>  <Reference>
Bioorg Med Chem Lett 21 (22), 6773-6777 (2011)

>  <Pubmed ID>
21974949

>  <DOI>
10.1016/j.bmcl.2011.09.037

$$$$
1251429
Actelion Java MolfileCreator 1.0

 40 43  0  0  0  0  0  0  0  0999 V2000
    0.0000   -0.0000   -0.0000 Cl  0  0  0  0  0  0  0  0  0  0  0  0
   -0.0119   -1.4838   -0.0000 C   0  0  0  0  0  0  0  0  0  0  0  0
   -1.3176   -2.2197   -0.0000 C   0  0  0  0  0  0  0  0  0  0  0  0
    1.2701   -2.2197   -0.0000 C   0  0  0  0  0  0  0  0  0  0  0  0
   -2.6233   -1.4481   -0.0000 O   0  0  0  0  0  0  0  0  0  0  0  0
   -1.3532   -3.7035   -0.0000 C   0  0  0  0  0  0  0  0  0  0  0  0
    1.2582   -3.7153   -0.0000 C   0  0  0  0  0  0  0  0  0  0  0  0
   -2.6233    0.0594   -0.0000 C   0  0  0  0  0  0  0  0  0  0  0  0
   -0.0712   -4.4513   -0.0000 C   0  0  0  0  0  0  0  0  0  0  0  0
    2.5402   -4.4631   -0.0000 C   0  0  0  0  0  0  0  0  0  0  0  0
   -1.3294    0.8190   -0.0000 N   0  0  0  0  0  0  0  0  0  0  0  0
   -3.9290    0.8309   -0.0000 C   0  0  0  0  0  0  0  0  0  0  0  0
    2.5165   -5.9469   -0.0000 F   0  0  0  0  0  0  0  0  0  0  0  0
    3.8340   -3.7035   -0.0000 F   0  0  0  0  0  0  0  0  0  0  0  0
    3.8222   -5.1991   -0.0000 F   0  0  0  0  0  0  0  0  0  0  0  0
   -1.3413    2.3265   -0.0000 C   0  0  0  0  0  0  0  0  0  0  0  0
   -5.2466    0.0950   -0.0000 C   0  0  0  0  0  0  0  0  0  0  0  0
   -3.9409    2.3384   -0.0000 C   0  0  0  0  0  0  0  0  0  0  0  0
   -2.6589    3.0862   -0.0000 C   0  0  0  0  0  0  0  0  0  0  0  0
   -5.2584   -1.3888   -0.0000 O   0  0  0  0  0  0  0  0  0  0  0  0
   -6.5523    0.8546   -0.0000 N   0  0  0  0  0  0  0  0  0  0  0  0
   -7.8699    0.1187   -0.0000 C   0  0  0  0  0  0  0  0  0  0  0  0
   -9.1756    0.8784   -0.0000 C   0  0  0  0  0  0  0  0  0  0  0  0
   -7.8817   -1.3651   -0.0000 C   0  0  0  0  0  0  0  0  0  0  0  0
   -9.1874    2.3859   -0.0000 O   0  0  0  0  0  0  0  0  0  0  0  0
  -10.4931    0.1424   -0.0000 N   0  0  0  0  0  0  0  0  0  0  0  0
   -9.1993   -2.1010   -0.0000 O   0  0  0  0  0  0  0  0  0  0  0  0
  -11.7989    0.9140   -0.0000 C   0  0  0  0  0  0  0  0  0  0  0  0
  -10.5050   -1.3413   -0.0000 C   0  0  0  0  0  0  0  0  0  0  0  0
   -9.2112   -3.5848   -0.0000 C   0  0  0  0  0  0  0  0  0  0  0  0
  -13.1046    0.1662   -0.0000 C   0  0  0  0  0  0  0  0  0  0  0  0
  -11.8107   -2.0773   -0.0000 C   0  0  0  0  0  0  0  0  0  0  0  0
  -10.5406   -4.3088   -0.0000 C   0  0  0  0  0  0  0  0  0  0  0  0
  -13.1164   -1.3176   -0.0000 N   0  0  0  0  0  0  0  0  0  0  0  0
  -11.8463   -3.5373   -0.0000 C   0  0  0  0  0  0  0  0  0  0  0  0
  -10.5644   -5.7926   -0.0000 C   0  0  0  0  0  0  0  0  0  0  0  0
  -14.4221   -2.0535   -0.0000 C   0  0  0  0  0  0  0  0  0  0  0  0
  -13.1639   -4.2614   -0.0000 C   0  0  0  0  0  0  0  0  0  0  0  0
  -11.8701   -6.5285   -0.0000 C   0  0  0  0  0  0  0  0  0  0  0  0
  -13.1877   -5.7451   -0.0000 N   0  0  0  0  0  0  0  0  0  0  0  0
  1  2  1  0  0  0  0
  2  3  2  0  0  0  0
  2  4  1  0  0  0  0
  3  5  1  0  0  0  0
  3  6  1  0  0  0  0
  4  7  2  0  0  0  0
  5  8  1  0  0  0  0
  6  9  2  0  0  0  0
  7 10  1  0  0  0  0
  8 11  2  0  0  0  0
  8 12  1  0  0  0  0
 10 13  1  0  0  0  0
 10 14  1  0  0  0  0
 10 15  1  0  0  0  0
 11 16  1  0  0  0  0
 12 17  1  0  0  0  0
 12 18  2  0  0  0  0
 16 19  2  0  0  0  0
 17 20  2  0  0  0  0
 17 21  1  0  0  0  0
 22 21  1  1  0  0  0
 22 23  1  0  0  0  0
 22 24  1  0  0  0  0
 23 25  2  0  0  0  0
 23 26  1  0  0  0  0
 24 27  1  0  0  0  0
 26 28  1  0  0  0  0
 26 29  1  0  0  0  0
 27 30  1  0  0  0  0
 28 31  1  0  0  0  0
 29 32  1  0  0  0  0
 30 33  1  0  0  0  0
 31 34  1  0  0  0  0
 33 35  2  0  0  0  0
 33 36  1  0  0  0  0
 34 37  1  0  0  0  0
 35 38  1  0  0  0  0
 36 39  2  0  0  0  0
 38 40  2  0  0  0  0
  7  9  1  0  0  0  0
 18 19  1  0  0  0  0
 32 34  1  0  0  0  0
 39 40  1  0  0  0  0
M  END
>  <MolRegNo>
1251429

>  <m>
=

>  <Value>
2000

>  <Unit>
nM

>  <Type>
IC50

>  <pValue>
5.7

>  <Ligand Efficiency>
0

>  <Binding Efficiency>
0

>  <Surface Efficiency>
0

>  <Assay Index>
618254

>  <Assay Category>


>  <Assay Organism>
Homo sapiens

>  <Target ID>
17045

>  <Target Name>
Cytochrome P450 3A4

>  <Target Organism>
Homo sapiens

>  <Target Description>
Target is a single protein chain

>  <Sequence Accession>
P08684

>  <Reference>
Bioorg Med Chem Lett 21 (22), 6773-6777 (2011)

>  <Pubmed ID>
21974949

>  <DOI>
10.1016/j.bmcl.2011.09.037

$$$$
1251427
Actelion Java MolfileCreator 1.0

 41 44  0  0  0  0  0  0  0  0999 V2000
    0.0000   -0.0000   -0.0000 Cl  0  0  0  0  0  0  0  0  0  0  0  0
   -0.0119   -1.4837   -0.0000 C   0  0  0  0  0  0  0  0  0  0  0  0
   -1.3175   -2.2196   -0.0000 C   0  0  0  0  0  0  0  0  0  0  0  0
    1.2700   -2.2196   -0.0000 C   0  0  0  0  0  0  0  0  0  0  0  0
   -2.6231   -1.4481   -0.0000 O   0  0  0  0  0  0  0  0  0  0  0  0
   -1.3531   -3.7033   -0.0000 C   0  0  0  0  0  0  0  0  0  0  0  0
    1.2582   -3.7151   -0.0000 C   0  0  0  0  0  0  0  0  0  0  0  0
   -2.6231    0.0593   -0.0000 C   0  0  0  0  0  0  0  0  0  0  0  0
   -0.0712   -4.4510   -0.0000 C   0  0  0  0  0  0  0  0  0  0  0  0
    2.5401   -4.4629   -0.0000 C   0  0  0  0  0  0  0  0  0  0  0  0
   -1.3294    0.8190   -0.0000 N   0  0  0  0  0  0  0  0  0  0  0  0
   -3.9288    0.8309   -0.0000 C   0  0  0  0  0  0  0  0  0  0  0  0
    2.5163   -5.9466   -0.0000 F   0  0  0  0  0  0  0  0  0  0  0  0
    3.8338   -3.7033   -0.0000 F   0  0  0  0  0  0  0  0  0  0  0  0
    3.8220   -5.1988   -0.0000 F   0  0  0  0  0  0  0  0  0  0  0  0
   -1.3412    2.3264   -0.0000 C   0  0  0  0  0  0  0  0  0  0  0  0
   -5.2463    0.0950   -0.0000 C   0  0  0  0  0  0  0  0  0  0  0  0
   -3.9407    2.3383   -0.0000 C   0  0  0  0  0  0  0  0  0  0  0  0
   -2.6588    3.0861   -0.0000 C   0  0  0  0  0  0  0  0  0  0  0  0
   -5.2582   -1.3887   -0.0000 O   0  0  0  0  0  0  0  0  0  0  0  0
   -6.5519    0.8546   -0.0000 N   0  0  0  0  0  0  0  0  0  0  0  0
   -7.8694    0.1187   -0.0000 C   0  0  0  0  0  0  0  0  0  0  0  0
   -9.1751    0.8783   -0.0000 C   0  0  0  0  0  0  0  0  0  0  0  0
   -7.8813   -1.3650   -0.0000 C   0  0  0  0  0  0  0  0  0  0  0  0
   -9.1870    2.3858   -0.0000 O   0  0  0  0  0  0  0  0  0  0  0  0
  -10.4926    0.1424   -0.0000 N   0  0  0  0  0  0  0  0  0  0  0  0
   -9.1988   -2.1009   -0.0000 O   0  0  0  0  0  0  0  0  0  0  0  0
  -11.7982    0.9139   -0.0000 C   0  0  0  0  0  0  0  0  0  0  0  0
  -10.5045   -1.3412   -0.0000 C   0  0  0  0  0  0  0  0  0  0  0  0
   -9.2107   -3.5846   -0.0000 C   0  0  0  0  0  0  0  0  0  0  0  0
  -13.1039    0.1662   -0.0000 C   0  0  0  0  0  0  0  0  0  0  0  0
  -11.8101   -2.0772   -0.0000 C   0  0  0  0  0  0  0  0  0  0  0  0
  -10.5401   -4.3086   -0.0000 C   0  0  0  0  0  0  0  0  0  0  0  0
  -13.1157   -1.3175   -0.0000 N   0  0  0  0  0  0  0  0  0  0  0  0
  -11.8457   -3.5371   -0.0000 C   0  0  0  0  0  0  0  0  0  0  0  0
  -10.5638   -5.7923   -0.0000 C   0  0  0  0  0  0  0  0  0  0  0  0
  -14.4214   -2.0534   -0.0000 C   0  0  0  0  0  0  0  0  0  0  0  0
  -13.1632   -4.2611   -0.0000 C   0  0  0  0  0  0  0  0  0  0  0  0
  -11.8695   -6.5282   -0.0000 C   0  0  0  0  0  0  0  0  0  0  0  0
  -13.1870   -5.7448   -0.0000 C   0  0  0  0  0  0  0  0  0  0  0  0
  -14.5045   -6.4689   -0.0000 F   0  0  0  0  0  0  0  0  0  0  0  0
  1  2  1  0  0  0  0
  2  3  2  0  0  0  0
  2  4  1  0  0  0  0
  3  5  1  0  0  0  0
  3  6  1  0  0  0  0
  4  7  2  0  0  0  0
  5  8  1  0  0  0  0
  6  9  2  0  0  0  0
  7 10  1  0  0  0  0
  8 11  2  0  0  0  0
  8 12  1  0  0  0  0
 10 13  1  0  0  0  0
 10 14  1  0  0  0  0
 10 15  1  0  0  0  0
 11 16  1  0  0  0  0
 12 17  1  0  0  0  0
 12 18  2  0  0  0  0
 16 19  2  0  0  0  0
 17 20  2  0  0  0  0
 17 21  1  0  0  0  0
 22 21  1  1  0  0  0
 22 23  1  0  0  0  0
 22 24  1  0  0  0  0
 23 25  2  0  0  0  0
 23 26  1  0  0  0  0
 24 27  1  0  0  0  0
 26 28  1  0  0  0  0
 26 29  1  0  0  0  0
 27 30  1  0  0  0  0
 28 31  1  0  0  0  0
 29 32  1  0  0  0  0
 30 33  1  0  0  0  0
 31 34  1  0  0  0  0
 33 35  2  0  0  0  0
 33 36  1  0  0  0  0
 34 37  1  0  0  0  0
 35 38  1  0  0  0  0
 36 39  2  0  0  0  0
 38 40  2  0  0  0  0
 40 41  1  0  0  0  0
  7  9  1  0  0  0  0
 18 19  1  0  0  0  0
 32 34  1  0  0  0  0
 39 40  1  0  0  0  0
M  END
>  <MolRegNo>
1251427

>  <m>
=

>  <Value>
6300

>  <Unit>
nM

>  <Type>
IC50

>  <pValue>
5.2

>  <Ligand Efficiency>
0

>  <Binding Efficiency>
0

>  <Surface Efficiency>
0

>  <Assay Index>
618254

>  <Assay Category>


>  <Assay Organism>
Homo sapiens

>  <Target ID>
17045

>  <Target Name>
Cytochrome P450 3A4

>  <Target Organism>
Homo sapiens

>  <Target Description>
Target is a single protein chain

>  <Sequence Accession>
P08684

>  <Reference>
Bioorg Med Chem Lett 21 (22), 6773-6777 (2011)

>  <Pubmed ID>
21974949

>  <DOI>
10.1016/j.bmcl.2011.09.037

$$$$
1251426
Actelion Java MolfileCreator 1.0

 44 48  0  0  0  0  0  0  0  0999 V2000
    0.0000   -0.0000   -0.0000 Cl  0  0  0  0  0  0  0  0  0  0  0  0
   -0.0119   -1.4840   -0.0000 C   0  0  0  0  0  0  0  0  0  0  0  0
   -1.3178   -2.2201   -0.0000 C   0  0  0  0  0  0  0  0  0  0  0  0
    1.2703   -2.2201   -0.0000 C   0  0  0  0  0  0  0  0  0  0  0  0
   -2.6237   -1.4484   -0.0000 O   0  0  0  0  0  0  0  0  0  0  0  0
   -1.3534   -3.7041   -0.0000 C   0  0  0  0  0  0  0  0  0  0  0  0
    1.2584   -3.7160   -0.0000 C   0  0  0  0  0  0  0  0  0  0  0  0
   -2.6237    0.0594   -0.0000 C   0  0  0  0  0  0  0  0  0  0  0  0
   -0.0712   -4.4520   -0.0000 C   0  0  0  0  0  0  0  0  0  0  0  0
    2.5406   -4.4639   -0.0000 C   0  0  0  0  0  0  0  0  0  0  0  0
   -1.3297    0.8192   -0.0000 N   0  0  0  0  0  0  0  0  0  0  0  0
   -3.9297    0.8310   -0.0000 C   0  0  0  0  0  0  0  0  0  0  0  0
    2.5169   -5.9479   -0.0000 F   0  0  0  0  0  0  0  0  0  0  0  0
    3.8347   -3.7041   -0.0000 F   0  0  0  0  0  0  0  0  0  0  0  0
    3.8228   -5.2000   -0.0000 F   0  0  0  0  0  0  0  0  0  0  0  0
   -1.3415    2.3269   -0.0000 C   0  0  0  0  0  0  0  0  0  0  0  0
   -5.2475    0.0950   -0.0000 C   0  0  0  0  0  0  0  0  0  0  0  0
   -3.9415    2.3388   -0.0000 C   0  0  0  0  0  0  0  0  0  0  0  0
   -2.6593    3.0867   -0.0000 C   0  0  0  0  0  0  0  0  0  0  0  0
   -5.2593   -1.3890   -0.0000 O   0  0  0  0  0  0  0  0  0  0  0  0
   -6.5534    0.8548   -0.0000 N   0  0  0  0  0  0  0  0  0  0  0  0
   -7.8712    0.1187   -0.0000 C   0  0  0  0  0  0  0  0  0  0  0  0
   -9.1771    0.8785   -0.0000 C   0  0  0  0  0  0  0  0  0  0  0  0
   -7.8831   -1.3653   -0.0000 C   0  0  0  0  0  0  0  0  0  0  0  0
   -9.1890    2.3863   -0.0000 O   0  0  0  0  0  0  0  0  0  0  0  0
  -10.4949    0.1425   -0.0000 N   0  0  0  0  0  0  0  0  0  0  0  0
   -9.2009   -2.1014   -0.0000 O   0  0  0  0  0  0  0  0  0  0  0  0
  -11.8009    0.9142   -0.0000 C   0  0  0  0  0  0  0  0  0  0  0  0
  -10.5068   -1.3415   -0.0000 C   0  0  0  0  0  0  0  0  0  0  0  0
   -9.2127   -3.5854   -0.0000 C   0  0  0  0  0  0  0  0  0  0  0  0
  -13.1068    0.1662   -0.0000 C   0  0  0  0  0  0  0  0  0  0  0  0
  -11.8127   -2.0776   -0.0000 C   0  0  0  0  0  0  0  0  0  0  0  0
  -10.5424   -4.3096   -0.0000 C   0  0  0  0  0  0  0  0  0  0  0  0
  -13.1187   -1.3178   -0.0000 N   0  0  0  0  0  0  0  0  0  0  0  0
  -10.5662   -5.7936   -0.0000 C   0  0  0  0  0  0  0  0  0  0  0  0
  -11.8484   -3.5379   -0.0000 C   0  0  0  0  0  0  0  0  0  0  0  0
  -14.4246   -2.0539   -0.0000 C   0  0  0  0  0  0  0  0  0  0  0  0
  -11.8721   -6.5297   -0.0000 C   0  0  0  0  0  0  0  0  0  0  0  0
  -13.1662   -4.2621   -0.0000 C   0  0  0  0  0  0  0  0  0  0  0  0
  -11.8840   -8.0137   -0.0000 O   0  0  0  0  0  0  0  0  0  0  0  0
  -13.1780   -5.7698   -0.0000 C   0  0  0  0  0  0  0  0  0  0  0  0
  -13.2018   -8.7497   -0.0000 C   0  0  0  0  0  0  0  0  0  0  0  0
  -14.4840   -6.5059   -0.0000 O   0  0  0  0  0  0  0  0  0  0  0  0
  -14.5077   -7.9899   -0.0000 C   0  0  0  0  0  0  0  0  0  0  0  0
  1  2  1  0  0  0  0
  2  3  2  0  0  0  0
  2  4  1  0  0  0  0
  3  5  1  0  0  0  0
  3  6  1  0  0  0  0
  4  7  2  0  0  0  0
  5  8  1  0  0  0  0
  6  9  2  0  0  0  0
  7 10  1  0  0  0  0
  8 11  2  0  0  0  0
  8 12  1  0  0  0  0
 10 13  1  0  0  0  0
 10 14  1  0  0  0  0
 10 15  1  0  0  0  0
 11 16  1  0  0  0  0
 12 17  1  0  0  0  0
 12 18  2  0  0  0  0
 16 19  2  0  0  0  0
 17 20  2  0  0  0  0
 17 21  1  0  0  0  0
 22 21  1  1  0  0  0
 22 23  1  0  0  0  0
 22 24  1  0  0  0  0
 23 25  2  0  0  0  0
 23 26  1  0  0  0  0
 24 27  1  0  0  0  0
 26 28  1  0  0  0  0
 26 29  1  0  0  0  0
 27 30  1  0  0  0  0
 28 31  1  0  0  0  0
 29 32  1  0  0  0  0
 30 33  1  0  0  0  0
 31 34  1  0  0  0  0
 33 35  2  0  0  0  0
 33 36  1  0  0  0  0
 34 37  1  0  0  0  0
 35 38  1  0  0  0  0
 36 39  2  0  0  0  0
 38 40  1  0  0  0  0
 38 41  2  0  0  0  0
 40 42  1  0  0  0  0
 41 43  1  0  0  0  0
 42 44  1  0  0  0  0
  7  9  1  0  0  0  0
 18 19  1  0  0  0  0
 32 34  1  0  0  0  0
 39 41  1  0  0  0  0
 43 44  1  0  0  0  0
M  END
>  <MolRegNo>
1251426

>  <m>
=

>  <Value>
3300

>  <Unit>
nM

>  <Type>
IC50

>  <pValue>
5.48

>  <Ligand Efficiency>
0

>  <Binding Efficiency>
0

>  <Surface Efficiency>
0

>  <Assay Index>
618254

>  <Assay Category>


>  <Assay Organism>
Homo sapiens

>  <Target ID>
17045

>  <Target Name>
Cytochrome P450 3A4

>  <Target Organism>
Homo sapiens

>  <Target Description>
Target is a single protein chain

>  <Sequence Accession>
P08684

>  <Reference>
Bioorg Med Chem Lett 21 (22), 6773-6777 (2011)

>  <Pubmed ID>
21974949

>  <DOI>
10.1016/j.bmcl.2011.09.037

$$$$
1251436
Actelion Java MolfileCreator 1.0

 40 43  0  0  0  0  0  0  0  0999 V2000
    0.0000   -0.0000   -0.0000 Cl  0  0  0  0  0  0  0  0  0  0  0  0
   -0.0119   -1.4856   -0.0000 C   0  0  0  0  0  0  0  0  0  0  0  0
   -1.3192   -2.2225   -0.0000 C   0  0  0  0  0  0  0  0  0  0  0  0
    1.2717   -2.2225   -0.0000 C   0  0  0  0  0  0  0  0  0  0  0  0
   -2.6266   -1.4500   -0.0000 O   0  0  0  0  0  0  0  0  0  0  0  0
   -1.3430   -3.7081   -0.0000 C   0  0  0  0  0  0  0  0  0  0  0  0
    1.2598   -3.7200   -0.0000 C   0  0  0  0  0  0  0  0  0  0  0  0
   -2.6266    0.0594   -0.0000 C   0  0  0  0  0  0  0  0  0  0  0  0
   -0.0594   -4.4568   -0.0000 C   0  0  0  0  0  0  0  0  0  0  0  0
    2.5434   -4.4687   -0.0000 C   0  0  0  0  0  0  0  0  0  0  0  0
   -1.3430    0.8201   -0.0000 N   0  0  0  0  0  0  0  0  0  0  0  0
   -3.9339    0.8319   -0.0000 C   0  0  0  0  0  0  0  0  0  0  0  0
    2.5315   -5.9543   -0.0000 F   0  0  0  0  0  0  0  0  0  0  0  0
    3.8388   -3.7081   -0.0000 F   0  0  0  0  0  0  0  0  0  0  0  0
    3.8269   -5.2056   -0.0000 F   0  0  0  0  0  0  0  0  0  0  0  0
   -1.3549    2.3294   -0.0000 C   0  0  0  0  0  0  0  0  0  0  0  0
   -5.2531    0.0951   -0.0000 C   0  0  0  0  0  0  0  0  0  0  0  0
   -3.9577    2.3413   -0.0000 C   0  0  0  0  0  0  0  0  0  0  0  0
   -2.6741    3.0901   -0.0000 C   0  0  0  0  0  0  0  0  0  0  0  0
   -5.2650   -1.3905   -0.0000 O   0  0  0  0  0  0  0  0  0  0  0  0
   -6.5605    0.8557   -0.0000 N   0  0  0  0  0  0  0  0  0  0  0  0
   -7.8797    0.1188   -0.0000 C   0  0  0  0  0  0  0  0  0  0  0  0
   -9.1870    0.8795   -0.0000 C   0  0  0  0  0  0  0  0  0  0  0  0
   -7.8916   -1.3668   -0.0000 C   0  0  0  0  0  0  0  0  0  0  0  0
   -9.1989    2.3889   -0.0000 O   0  0  0  0  0  0  0  0  0  0  0  0
  -10.5063    0.1426   -0.0000 N   0  0  0  0  0  0  0  0  0  0  0  0
   -9.2108   -2.1036   -0.0000 O   0  0  0  0  0  0  0  0  0  0  0  0
  -11.8849    0.7725   -0.0000 C   0  0  0  0  0  0  0  0  0  0  0  0
  -10.6727   -1.3430   -0.0000 C   0  0  0  0  0  0  0  0  0  0  0  0
   -9.2227   -3.5892   -0.0000 C   0  0  0  0  0  0  0  0  0  0  0  0
  -12.9070   -0.3328   -0.0000 C   0  0  0  0  0  0  0  0  0  0  0  0
  -12.1583   -1.6401   -0.0000 C   0  0  0  0  0  0  0  0  0  0  0  0
   -7.9272   -4.3380   -0.0000 C   0  0  0  0  0  0  0  0  0  0  0  0
  -14.4164   -0.1664   -0.0000 N   0  0  0  0  0  0  0  0  0  0  0  0
   -7.9510   -5.8355   -0.0000 C   0  0  0  0  0  0  0  0  0  0  0  0
   -6.6437   -3.5774   -0.0000 C   0  0  0  0  0  0  0  0  0  0  0  0
  -15.3078   -1.3668   -0.0000 C   0  0  0  0  0  0  0  0  0  0  0  0
   -6.6674   -6.5724   -0.0000 C   0  0  0  0  0  0  0  0  0  0  0  0
   -5.3601   -4.3142   -0.0000 C   0  0  0  0  0  0  0  0  0  0  0  0
   -5.3720   -5.8117   -0.0000 C   0  0  0  0  0  0  0  0  0  0  0  0
  1  2  1  0  0  0  0
  2  3  2  0  0  0  0
  2  4  1  0  0  0  0
  3  5  1  0  0  0  0
  3  6  1  0  0  0  0
  4  7  2  0  0  0  0
  5  8  1  0  0  0  0
  6  9  2  0  0  0  0
  7 10  1  0  0  0  0
  8 11  2  0  0  0  0
  8 12  1  0  0  0  0
 10 13  1  0  0  0  0
 10 14  1  0  0  0  0
 10 15  1  0  0  0  0
 11 16  1  0  0  0  0
 12 17  1  0  0  0  0
 12 18  2  0  0  0  0
 16 19  2  0  0  0  0
 17 20  2  0  0  0  0
 17 21  1  0  0  0  0
 22 21  1  6  0  0  0
 22 23  1  0  0  0  0
 22 24  1  0  0  0  0
 23 25  2  0  0  0  0
 23 26  1  0  0  0  0
 24 27  1  0  0  0  0
 26 28  1  0  0  0  0
 26 29  1  0  0  0  0
 27 30  1  0  0  0  0
 28 31  1  0  0  0  0
 29 32  1  0  0  0  0
 30 33  1  0  0  0  0
 31 34  1  6  0  0  0
 33 35  2  0  0  0  0
 33 36  1  0  0  0  0
 34 37  1  0  0  0  0
 35 38  1  0  0  0  0
 36 39  2  0  0  0  0
 38 40  2  0  0  0  0
  7  9  1  0  0  0  0
 18 19  1  0  0  0  0
 31 32  1  0  0  0  0
 39 40  1  0  0  0  0
M  END
>  <MolRegNo>
1251436

>  <m>
=

>  <Value>
9000

>  <Unit>
nM

>  <Type>
IC50

>  <pValue>
5.05

>  <Ligand Efficiency>
0

>  <Binding Efficiency>
0

>  <Surface Efficiency>
0

>  <Assay Index>
618254

>  <Assay Category>


>  <Assay Organism>
Homo sapiens

>  <Target ID>
17045

>  <Target Name>
Cytochrome P450 3A4

>  <Target Organism>
Homo sapiens

>  <Target Description>
Target is a single protein chain

>  <Sequence Accession>
P08684

>  <Reference>
Bioorg Med Chem Lett 21 (22), 6773-6777 (2011)

>  <Pubmed ID>
21974949

>  <DOI>
10.1016/j.bmcl.2011.09.037

$$$$
1251425
Actelion Java MolfileCreator 1.0

 40 43  0  0  0  0  0  0  0  0999 V2000
    0.0000   -0.0000   -0.0000 Cl  0  0  0  0  0  0  0  0  0  0  0  0
   -0.0119   -1.4865   -0.0000 C   0  0  0  0  0  0  0  0  0  0  0  0
   -1.3200   -2.2237   -0.0000 C   0  0  0  0  0  0  0  0  0  0  0  0
    1.2724   -2.2237   -0.0000 C   0  0  0  0  0  0  0  0  0  0  0  0
   -2.6280   -1.4508   -0.0000 O   0  0  0  0  0  0  0  0  0  0  0  0
   -1.3556   -3.7102   -0.0000 C   0  0  0  0  0  0  0  0  0  0  0  0
    1.2605   -3.7221   -0.0000 C   0  0  0  0  0  0  0  0  0  0  0  0
   -2.6280    0.0595   -0.0000 C   0  0  0  0  0  0  0  0  0  0  0  0
   -0.0713   -4.4594   -0.0000 C   0  0  0  0  0  0  0  0  0  0  0  0
    2.5448   -4.4713   -0.0000 C   0  0  0  0  0  0  0  0  0  0  0  0
   -1.3319    0.8205   -0.0000 N   0  0  0  0  0  0  0  0  0  0  0  0
   -3.9361    0.8324   -0.0000 C   0  0  0  0  0  0  0  0  0  0  0  0
    2.5210   -5.9577   -0.0000 F   0  0  0  0  0  0  0  0  0  0  0  0
    3.8410   -3.7102   -0.0000 F   0  0  0  0  0  0  0  0  0  0  0  0
    3.8291   -5.2085   -0.0000 F   0  0  0  0  0  0  0  0  0  0  0  0
   -1.3438    2.3308   -0.0000 C   0  0  0  0  0  0  0  0  0  0  0  0
   -5.2561    0.0951   -0.0000 C   0  0  0  0  0  0  0  0  0  0  0  0
   -3.9480    2.3427   -0.0000 C   0  0  0  0  0  0  0  0  0  0  0  0
   -2.6637    3.0918   -0.0000 C   0  0  0  0  0  0  0  0  0  0  0  0
   -5.2680   -1.3913   -0.0000 O   0  0  0  0  0  0  0  0  0  0  0  0
   -6.5642    0.8562   -0.0000 N   0  0  0  0  0  0  0  0  0  0  0  0
   -7.8841    0.1189   -0.0000 C   0  0  0  0  0  0  0  0  0  0  0  0
   -9.1922    0.8800   -0.0000 C   0  0  0  0  0  0  0  0  0  0  0  0
   -7.8960   -1.3675   -0.0000 C   0  0  0  0  0  0  0  0  0  0  0  0
   -9.2041    2.3902   -0.0000 O   0  0  0  0  0  0  0  0  0  0  0  0
  -10.5122    0.1427   -0.0000 N   0  0  0  0  0  0  0  0  0  0  0  0
   -9.2160   -2.1048   -0.0000 O   0  0  0  0  0  0  0  0  0  0  0  0
  -11.8203    0.9157   -0.0000 C   0  0  0  0  0  0  0  0  0  0  0  0
  -10.5241   -1.3438   -0.0000 C   0  0  0  0  0  0  0  0  0  0  0  0
   -9.2279   -3.5913   -0.0000 C   0  0  0  0  0  0  0  0  0  0  0  0
  -13.1284    0.1665   -0.0000 C   0  0  0  0  0  0  0  0  0  0  0  0
  -11.8322   -2.0810   -0.0000 C   0  0  0  0  0  0  0  0  0  0  0  0
   -7.9436   -4.3286   -0.0000 C   0  0  0  0  0  0  0  0  0  0  0  0
  -13.1402   -1.3200   -0.0000 N   0  0  0  0  0  0  0  0  0  0  0  0
   -7.9674   -5.8269   -0.0000 C   0  0  0  0  0  0  0  0  0  0  0  0
   -6.6593   -3.5675   -0.0000 C   0  0  0  0  0  0  0  0  0  0  0  0
  -14.4483   -2.0573   -0.0000 C   0  0  0  0  0  0  0  0  0  0  0  0
   -6.6831   -6.5642   -0.0000 C   0  0  0  0  0  0  0  0  0  0  0  0
   -5.3750   -4.3048   -0.0000 C   0  0  0  0  0  0  0  0  0  0  0  0
   -5.3869   -5.8031   -0.0000 C   0  0  0  0  0  0  0  0  0  0  0  0
  1  2  1  0  0  0  0
  2  3  2  0  0  0  0
  2  4  1  0  0  0  0
  3  5  1  0  0  0  0
  3  6  1  0  0  0  0
  4  7  2  0  0  0  0
  5  8  1  0  0  0  0
  6  9  2  0  0  0  0
  7 10  1  0  0  0  0
  8 11  2  0  0  0  0
  8 12  1  0  0  0  0
 10 13  1  0  0  0  0
 10 14  1  0  0  0  0
 10 15  1  0  0  0  0
 11 16  1  0  0  0  0
 12 17  1  0  0  0  0
 12 18  2  0  0  0  0
 16 19  2  0  0  0  0
 17 20  2  0  0  0  0
 17 21  1  0  0  0  0
 22 21  1  1  0  0  0
 22 23  1  0  0  0  0
 22 24  1  0  0  0  0
 23 25  2  0  0  0  0
 23 26  1  0  0  0  0
 24 27  1  0  0  0  0
 26 28  1  0  0  0  0
 26 29  1  0  0  0  0
 27 30  1  0  0  0  0
 28 31  1  0  0  0  0
 29 32  1  0  0  0  0
 30 33  1  0  0  0  0
 31 34  1  0  0  0  0
 33 35  2  0  0  0  0
 33 36  1  0  0  0  0
 34 37  1  0  0  0  0
 35 38  1  0  0  0  0
 36 39  2  0  0  0  0
 38 40  2  0  0  0  0
  7  9  1  0  0  0  0
 18 19  1  0  0  0  0
 32 34  1  0  0  0  0
 39 40  1  0  0  0  0
M  END
>  <MolRegNo>
1251425

>  <m>
=

>  <Value>
13500

>  <Unit>
nM

>  <Type>
IC50

>  <pValue>
4.87

>  <Ligand Efficiency>
0

>  <Binding Efficiency>
0

>  <Surface Efficiency>
0

>  <Assay Index>
618254

>  <Assay Category>


>  <Assay Organism>
Homo sapiens

>  <Target ID>
17045

>  <Target Name>
Cytochrome P450 3A4

>  <Target Organism>
Homo sapiens

>  <Target Description>
Target is a single protein chain

>  <Sequence Accession>
P08684

>  <Reference>
Bioorg Med Chem Lett 21 (22), 6773-6777 (2011)

>  <Pubmed ID>
21974949

>  <DOI>
10.1016/j.bmcl.2011.09.037

$$$$
1249576
Actelion Java MolfileCreator 1.0

 27 30  0  0  0  0  0  0  0  0999 V2000
    0.0000   -0.0000   -0.0000 Cl  0  0  0  0  0  0  0  0  0  0  0  0
   -1.3021   -0.7339   -0.0000 C   0  0  0  0  0  0  0  0  0  0  0  0
   -2.6043    0.0237   -0.0000 C   0  0  0  0  0  0  0  0  0  0  0  0
   -1.3140   -2.2137   -0.0000 C   0  0  0  0  0  0  0  0  0  0  0  0
   -2.6161    1.5271   -0.0000 C   0  0  0  0  0  0  0  0  0  0  0  0
   -3.9183   -0.7103   -0.0000 C   0  0  0  0  0  0  0  0  0  0  0  0
   -2.6280   -2.9594   -0.0000 C   0  0  0  0  0  0  0  0  0  0  0  0
   -1.3258    2.2847   -0.0000 C   0  0  0  0  0  0  0  0  0  0  0  0
   -3.9183    2.2847   -0.0000 C   0  0  0  0  0  0  0  0  0  0  0  0
   -3.9301   -2.1900   -0.0000 C   0  0  0  0  0  0  0  0  0  0  0  0
   -2.6398   -4.4391   -0.0000 Cl  0  0  0  0  0  0  0  0  0  0  0  0
   -1.3377    3.7999   -0.0000 C   0  0  0  0  0  0  0  0  0  0  0  0
   -0.0474    1.5507   -0.0000 C   0  0  0  0  0  0  0  0  0  0  0  0
   -3.9301    3.7999   -0.0000 C   0  0  0  0  0  0  0  0  0  0  0  0
   -5.3625    1.8348   -0.0000 C   0  0  0  0  0  0  0  0  0  0  0  0
   -2.6398    4.5575   -0.0000 N   0  0  0  0  0  0  0  0  0  0  0  0
   -0.0592    4.5575   -0.0000 C   0  0  0  0  0  0  0  0  0  0  0  0
    1.2311    2.3084   -0.0000 N   0  0  0  0  0  0  0  0  0  0  0  0
   -5.3743    4.2734   -0.0000 C   0  0  0  0  0  0  0  0  0  0  0  0
   -6.2503    3.0660   -0.0000 N   0  0  0  0  0  0  0  0  0  0  0  0
   -7.7537    3.0778   -0.0000 C   0  0  0  0  0  0  0  0  0  0  0  0
   -8.5113    4.3800   -0.0000 C   0  0  0  0  0  0  0  0  0  0  0  0
   -7.7655    5.6703   -0.0000 C   0  0  0  0  0  0  0  0  0  0  0  0
  -10.0029    4.3800   -0.0000 C   0  0  0  0  0  0  0  0  0  0  0  0
   -8.5232    6.9724   -0.0000 C   0  0  0  0  0  0  0  0  0  0  0  0
  -10.7605    5.6821   -0.0000 C   0  0  0  0  0  0  0  0  0  0  0  0
  -10.0265    6.9842   -0.0000 C   0  0  0  0  0  0  0  0  0  0  0  0
  1  2  1  0  0  0  0
  2  3  2  0  0  0  0
  2  4  1  0  0  0  0
  3  5  1  0  0  0  0
  3  6  1  0  0  0  0
  4  7  2  0  0  0  0
  5  8  2  0  0  0  0
  5  9  1  0  0  0  0
  6 10  2  0  0  0  0
  7 11  1  0  0  0  0
  8 12  1  0  0  0  0
  8 13  1  0  0  0  0
  9 14  2  0  0  0  0
  9 15  1  0  0  0  0
 12 16  2  0  0  0  0
 12 17  1  0  0  0  0
 13 18  1  0  0  0  0
 14 19  1  0  0  0  0
 15 20  1  0  0  0  0
 20 21  1  0  0  0  0
 21 22  1  0  0  0  0
 22 23  2  0  0  0  0
 22 24  1  0  0  0  0
 23 25  1  0  0  0  0
 24 26  2  0  0  0  0
 25 27  2  0  0  0  0
  7 10  1  0  0  0  0
 14 16  1  0  0  0  0
 19 20  1  0  0  0  0
 26 27  1  0  0  0  0
M  END
>  <MolRegNo>
1249576

>  <m>
=

>  <Value>
340

>  <Unit>
nM

>  <Type>
IC50

>  <pValue>
6.47

>  <Ligand Efficiency>
0

>  <Binding Efficiency>
0

>  <Surface Efficiency>
0

>  <Assay Index>
618507

>  <Assay Category>


>  <Assay Organism>


>  <Target ID>
17045

>  <Target Name>
Cytochrome P450 3A4

>  <Target Organism>
Homo sapiens

>  <Target Description>
Target is a single protein chain

>  <Sequence Accession>
P08684

>  <Reference>
Bioorg Med Chem Lett 21 (22), 6646-6651 (2011)

>  <Pubmed ID>
21996520

>  <DOI>
10.1016/j.bmcl.2011.09.074

$$$$
1249575
Actelion Java MolfileCreator 1.0

 27 30  0  0  0  0  0  0  0  0999 V2000
    0.0000   -0.0000   -0.0000 Cl  0  0  0  0  0  0  0  0  0  0  0  0
   -1.3021   -0.7339   -0.0000 C   0  0  0  0  0  0  0  0  0  0  0  0
   -2.6043    0.0237   -0.0000 C   0  0  0  0  0  0  0  0  0  0  0  0
   -1.3140   -2.2137   -0.0000 C   0  0  0  0  0  0  0  0  0  0  0  0
   -2.6161    1.5271   -0.0000 C   0  0  0  0  0  0  0  0  0  0  0  0
   -3.9183   -0.7103   -0.0000 C   0  0  0  0  0  0  0  0  0  0  0  0
   -2.6280   -2.9594   -0.0000 C   0  0  0  0  0  0  0  0  0  0  0  0
   -1.3258    2.2847   -0.0000 C   0  0  0  0  0  0  0  0  0  0  0  0
   -3.9183    2.2847   -0.0000 C   0  0  0  0  0  0  0  0  0  0  0  0
   -3.9301   -2.1900   -0.0000 C   0  0  0  0  0  0  0  0  0  0  0  0
   -2.6398   -4.4391   -0.0000 Cl  0  0  0  0  0  0  0  0  0  0  0  0
   -1.3377    3.7999   -0.0000 C   0  0  0  0  0  0  0  0  0  0  0  0
   -0.0474    1.5507   -0.0000 C   0  0  0  0  0  0  0  0  0  0  0  0
   -3.9301    3.7999   -0.0000 C   0  0  0  0  0  0  0  0  0  0  0  0
   -5.3625    1.8348   -0.0000 C   0  0  0  0  0  0  0  0  0  0  0  0
   -2.6398    4.5575   -0.0000 N   0  0  0  0  0  0  0  0  0  0  0  0
   -0.0592    4.5575   -0.0000 C   0  0  0  0  0  0  0  0  0  0  0  0
    1.2311    2.3084   -0.0000 N   0  0  0  0  0  0  0  0  0  0  0  0
   -5.3743    4.2734   -0.0000 C   0  0  0  0  0  0  0  0  0  0  0  0
   -6.2503    3.0660   -0.0000 N   0  0  0  0  0  0  0  0  0  0  0  0
   -7.7537    3.0778   -0.0000 C   0  0  0  0  0  0  0  0  0  0  0  0
   -8.5113    4.3800   -0.0000 C   0  0  0  0  0  0  0  0  0  0  0  0
   -7.7655    5.6703   -0.0000 C   0  0  0  0  0  0  0  0  0  0  0  0
  -10.0029    4.3800   -0.0000 C   0  0  0  0  0  0  0  0  0  0  0  0
   -8.5232    6.9724   -0.0000 C   0  0  0  0  0  0  0  0  0  0  0  0
  -10.7605    5.6821   -0.0000 C   0  0  0  0  0  0  0  0  0  0  0  0
  -10.0265    6.9842   -0.0000 C   0  0  0  0  0  0  0  0  0  0  0  0
  1  2  1  0  0  0  0
  2  3  2  0  0  0  0
  2  4  1  0  0  0  0
  3  5  1  0  0  0  0
  3  6  1  0  0  0  0
  4  7  2  0  0  0  0
  5  8  2  0  0  0  0
  5  9  1  0  0  0  0
  6 10  2  0  0  0  0
  7 11  1  0  0  0  0
  8 12  1  0  0  0  0
  8 13  1  0  0  0  0
  9 14  1  0  0  0  0
  9 15  2  0  0  0  0
 12 16  2  0  0  0  0
 12 17  1  0  0  0  0
 13 18  1  0  0  0  0
 14 19  2  0  0  0  0
 15 20  1  0  0  0  0
 20 21  1  0  0  0  0
 21 22  1  0  0  0  0
 22 23  2  0  0  0  0
 22 24  1  0  0  0  0
 23 25  1  0  0  0  0
 24 26  2  0  0  0  0
 25 27  2  0  0  0  0
  7 10  1  0  0  0  0
 14 16  1  0  0  0  0
 19 20  1  0  0  0  0
 26 27  1  0  0  0  0
M  END
>  <MolRegNo>
1249575

>  <m>
=

>  <Value>
730

>  <Unit>
nM

>  <Type>
IC50

>  <pValue>
6.14

>  <Ligand Efficiency>
0

>  <Binding Efficiency>
0

>  <Surface Efficiency>
0

>  <Assay Index>
618507

>  <Assay Category>


>  <Assay Organism>


>  <Target ID>
17045

>  <Target Name>
Cytochrome P450 3A4

>  <Target Organism>
Homo sapiens

>  <Target Description>
Target is a single protein chain

>  <Sequence Accession>
P08684

>  <Reference>
Bioorg Med Chem Lett 21 (22), 6646-6651 (2011)

>  <Pubmed ID>
21996520

>  <DOI>
10.1016/j.bmcl.2011.09.074

$$$$
1249574
Actelion Java MolfileCreator 1.0

 28 31  0  0  0  0  0  0  0  0999 V2000
    0.0000   -0.0000   -0.0000 Cl  0  0  0  0  0  0  0  0  0  0  0  0
   -1.3019   -0.7338   -0.0000 C   0  0  0  0  0  0  0  0  0  0  0  0
   -2.6038    0.0237   -0.0000 C   0  0  0  0  0  0  0  0  0  0  0  0
   -1.3137   -2.2132   -0.0000 C   0  0  0  0  0  0  0  0  0  0  0  0
   -2.6157    1.5268   -0.0000 C   0  0  0  0  0  0  0  0  0  0  0  0
   -3.9176   -0.7101   -0.0000 C   0  0  0  0  0  0  0  0  0  0  0  0
   -2.6275   -2.9589   -0.0000 C   0  0  0  0  0  0  0  0  0  0  0  0
   -1.3256    2.2843   -0.0000 C   0  0  0  0  0  0  0  0  0  0  0  0
   -3.9176    2.2843   -0.0000 C   0  0  0  0  0  0  0  0  0  0  0  0
   -3.9294   -2.1896   -0.0000 C   0  0  0  0  0  0  0  0  0  0  0  0
   -2.6393   -4.4383   -0.0000 Cl  0  0  0  0  0  0  0  0  0  0  0  0
   -1.3374    3.7992   -0.0000 C   0  0  0  0  0  0  0  0  0  0  0  0
   -0.0473    1.5505   -0.0000 C   0  0  0  0  0  0  0  0  0  0  0  0
   -3.9294    3.7992   -0.0000 C   0  0  0  0  0  0  0  0  0  0  0  0
   -5.3615    1.8345   -0.0000 C   0  0  0  0  0  0  0  0  0  0  0  0
   -2.6393    4.5567   -0.0000 N   0  0  0  0  0  0  0  0  0  0  0  0
   -0.0592    4.5567   -0.0000 C   0  0  0  0  0  0  0  0  0  0  0  0
    1.2309    2.3079   -0.0000 N   0  0  0  0  0  0  0  0  0  0  0  0
   -5.3733    4.2726   -0.0000 C   0  0  0  0  0  0  0  0  0  0  0  0
   -6.2492    3.0654   -0.0000 N   0  0  0  0  0  0  0  0  0  0  0  0
   -5.8467    5.7047   -0.0000 O   0  0  0  0  0  0  0  0  0  0  0  0
   -7.7523    3.0772   -0.0000 C   0  0  0  0  0  0  0  0  0  0  0  0
   -8.5097    4.3791   -0.0000 C   0  0  0  0  0  0  0  0  0  0  0  0
   -7.7641    5.6692   -0.0000 C   0  0  0  0  0  0  0  0  0  0  0  0
  -10.0010    4.3791   -0.0000 C   0  0  0  0  0  0  0  0  0  0  0  0
   -8.5216    6.9711   -0.0000 C   0  0  0  0  0  0  0  0  0  0  0  0
  -10.7585    5.6811   -0.0000 C   0  0  0  0  0  0  0  0  0  0  0  0
  -10.0247    6.9830   -0.0000 C   0  0  0  0  0  0  0  0  0  0  0  0
  1  2  1  0  0  0  0
  2  3  2  0  0  0  0
  2  4  1  0  0  0  0
  3  5  1  0  0  0  0
  3  6  1  0  0  0  0
  4  7  2  0  0  0  0
  5  8  2  0  0  0  0
  5  9  1  0  0  0  0
  6 10  2  0  0  0  0
  7 11  1  0  0  0  0
  8 12  1  0  0  0  0
  8 13  1  0  0  0  0
  9 14  2  0  0  0  0
  9 15  1  0  0  0  0
 12 16  2  0  0  0  0
 12 17  1  0  0  0  0
 13 18  1  0  0  0  0
 14 19  1  0  0  0  0
 15 20  1  0  0  0  0
 19 21  2  0  0  0  0
 20 22  1  0  0  0  0
 22 23  1  0  0  0  0
 23 24  2  0  0  0  0
 23 25  1  0  0  0  0
 24 26  1  0  0  0  0
 25 27  2  0  0  0  0
 26 28  2  0  0  0  0
  7 10  1  0  0  0  0
 14 16  1  0  0  0  0
 19 20  1  0  0  0  0
 27 28  1  0  0  0  0
M  END
>  <MolRegNo>
1249574

>  <m>
=

>  <Value>
1400

>  <Unit>
nM

>  <Type>
IC50

>  <pValue>
5.85

>  <Ligand Efficiency>
0

>  <Binding Efficiency>
0

>  <Surface Efficiency>
0

>  <Assay Index>
618507

>  <Assay Category>


>  <Assay Organism>


>  <Target ID>
17045

>  <Target Name>
Cytochrome P450 3A4

>  <Target Organism>
Homo sapiens

>  <Target Description>
Target is a single protein chain

>  <Sequence Accession>
P08684

>  <Reference>
Bioorg Med Chem Lett 21 (22), 6646-6651 (2011)

>  <Pubmed ID>
21996520

>  <DOI>
10.1016/j.bmcl.2011.09.074

$$$$
1249705
Actelion Java MolfileCreator 1.0

 25 27  0  0  0  0  0  0  0  0999 V2000
    0.0000   -0.0000   -0.0000 Cl  0  0  0  0  0  0  0  0  0  0  0  0
   -1.3048   -0.7354   -0.0000 C   0  0  0  0  0  0  0  0  0  0  0  0
   -2.6096    0.0237   -0.0000 C   0  0  0  0  0  0  0  0  0  0  0  0
   -1.3167   -2.2182   -0.0000 C   0  0  0  0  0  0  0  0  0  0  0  0
   -2.6215    1.5302   -0.0000 C   0  0  0  0  0  0  0  0  0  0  0  0
   -3.9263   -0.7117   -0.0000 C   0  0  0  0  0  0  0  0  0  0  0  0
   -2.6333   -2.9655   -0.0000 C   0  0  0  0  0  0  0  0  0  0  0  0
   -1.3285    2.2893   -0.0000 C   0  0  0  0  0  0  0  0  0  0  0  0
   -3.9263    2.2893   -0.0000 C   0  0  0  0  0  0  0  0  0  0  0  0
   -3.9381   -2.1945   -0.0000 C   0  0  0  0  0  0  0  0  0  0  0  0
   -2.6452   -4.4482   -0.0000 Cl  0  0  0  0  0  0  0  0  0  0  0  0
   -1.3404    3.8077   -0.0000 C   0  0  0  0  0  0  0  0  0  0  0  0
   -0.0474    1.5539   -0.0000 C   0  0  0  0  0  0  0  0  0  0  0  0
   -3.9381    3.7958   -0.0000 C   0  0  0  0  0  0  0  0  0  0  0  0
   -5.3616    1.8386   -0.0000 C   0  0  0  0  0  0  0  0  0  0  0  0
   -2.6452    4.5668   -0.0000 N   0  0  0  0  0  0  0  0  0  0  0  0
   -0.0593    4.5668   -0.0000 C   0  0  0  0  0  0  0  0  0  0  0  0
    1.2336    2.3131   -0.0000 N   0  0  0  0  0  0  0  0  0  0  0  0
   -5.3734    4.2703   -0.0000 C   0  0  0  0  0  0  0  0  0  0  0  0
   -6.2512    3.0604   -0.0000 N   0  0  0  0  0  0  0  0  0  0  0  0
   -5.8479    5.7056   -0.0000 O   0  0  0  0  0  0  0  0  0  0  0  0
   -7.7577    3.0722   -0.0000 C   0  0  0  0  0  0  0  0  0  0  0  0
   -8.5168    1.7911   -0.0000 C   0  0  0  0  0  0  0  0  0  0  0  0
   -7.7814    0.5101   -0.0000 O   0  0  0  0  0  0  0  0  0  0  0  0
   -8.5406   -0.7710   -0.0000 C   0  0  0  0  0  0  0  0  0  0  0  0
  1  2  1  0  0  0  0
  2  3  2  0  0  0  0
  2  4  1  0  0  0  0
  3  5  1  0  0  0  0
  3  6  1  0  0  0  0
  4  7  2  0  0  0  0
  5  8  2  0  0  0  0
  5  9  1  0  0  0  0
  6 10  2  0  0  0  0
  7 11  1  0  0  0  0
  8 12  1  0  0  0  0
  8 13  1  0  0  0  0
  9 14  2  0  0  0  0
  9 15  1  0  0  0  0
 12 16  2  0  0  0  0
 12 17  1  0  0  0  0
 13 18  1  0  0  0  0
 14 19  1  0  0  0  0
 15 20  1  0  0  0  0
 19 21  2  0  0  0  0
 20 22  1  0  0  0  0
 22 23  1  0  0  0  0
 23 24  1  0  0  0  0
 24 25  1  0  0  0  0
  7 10  1  0  0  0  0
 14 16  1  0  0  0  0
 19 20  1  0  0  0  0
M  END
>  <MolRegNo>
1249705

>  <m>
=

>  <Value>
22000

>  <Unit>
nM

>  <Type>
IC50

>  <pValue>
4.66

>  <Ligand Efficiency>
0

>  <Binding Efficiency>
0

>  <Surface Efficiency>
0

>  <Assay Index>
618506

>  <Assay Category>


>  <Assay Organism>


>  <Target ID>
17045

>  <Target Name>
Cytochrome P450 3A4

>  <Target Organism>
Homo sapiens

>  <Target Description>
Target is a single protein chain

>  <Sequence Accession>
P08684

>  <Reference>
Bioorg Med Chem Lett 21 (22), 6646-6651 (2011)

>  <Pubmed ID>
21996520

>  <DOI>
10.1016/j.bmcl.2011.09.074

$$$$
1249702
Actelion Java MolfileCreator 1.0

 26 28  0  0  0  0  0  0  0  0999 V2000
    0.0000   -0.0000   -0.0000 Cl  0  0  0  0  0  0  0  0  0  0  0  0
   -1.3043   -0.7351   -0.0000 C   0  0  0  0  0  0  0  0  0  0  0  0
   -2.6085    0.0237   -0.0000 C   0  0  0  0  0  0  0  0  0  0  0  0
   -1.3161   -2.2172   -0.0000 C   0  0  0  0  0  0  0  0  0  0  0  0
   -2.6204    1.5295   -0.0000 C   0  0  0  0  0  0  0  0  0  0  0  0
   -3.9246   -0.7114   -0.0000 C   0  0  0  0  0  0  0  0  0  0  0  0
   -2.6322   -2.9642   -0.0000 C   0  0  0  0  0  0  0  0  0  0  0  0
   -1.3280    2.2884   -0.0000 C   0  0  0  0  0  0  0  0  0  0  0  0
   -3.9246    2.2884   -0.0000 C   0  0  0  0  0  0  0  0  0  0  0  0
   -3.9365   -2.1935   -0.0000 C   0  0  0  0  0  0  0  0  0  0  0  0
   -2.6441   -4.4463   -0.0000 Cl  0  0  0  0  0  0  0  0  0  0  0  0
   -1.3398    3.8061   -0.0000 C   0  0  0  0  0  0  0  0  0  0  0  0
   -0.0474    1.5533   -0.0000 C   0  0  0  0  0  0  0  0  0  0  0  0
   -3.9365    3.7942   -0.0000 C   0  0  0  0  0  0  0  0  0  0  0  0
   -5.3593    1.8378   -0.0000 C   0  0  0  0  0  0  0  0  0  0  0  0
   -2.6441    4.5649   -0.0000 N   0  0  0  0  0  0  0  0  0  0  0  0
   -0.0593    4.5649   -0.0000 C   0  0  0  0  0  0  0  0  0  0  0  0
    1.2331    2.3121   -0.0000 N   0  0  0  0  0  0  0  0  0  0  0  0
   -5.3712    4.2685   -0.0000 C   0  0  0  0  0  0  0  0  0  0  0  0
   -6.2486    3.0591   -0.0000 N   0  0  0  0  0  0  0  0  0  0  0  0
   -5.8454    5.7150   -0.0000 O   0  0  0  0  0  0  0  0  0  0  0  0
   -7.7544    3.0709   -0.0000 C   0  0  0  0  0  0  0  0  0  0  0  0
   -8.5132    1.7904   -0.0000 C   0  0  0  0  0  0  0  0  0  0  0  0
  -10.0191    1.8022   -0.0000 O   0  0  0  0  0  0  0  0  0  0  0  0
   -7.7781    0.5098   -0.0000 O   0  0  0  0  0  0  0  0  0  0  0  0
   -8.5370   -0.7707   -0.0000 C   0  0  0  0  0  0  0  0  0  0  0  0
  1  2  1  0  0  0  0
  2  3  2  0  0  0  0
  2  4  1  0  0  0  0
  3  5  1  0  0  0  0
  3  6  1  0  0  0  0
  4  7  2  0  0  0  0
  5  8  2  0  0  0  0
  5  9  1  0  0  0  0
  6 10  2  0  0  0  0
  7 11  1  0  0  0  0
  8 12  1  0  0  0  0
  8 13  1  0  0  0  0
  9 14  2  0  0  0  0
  9 15  1  0  0  0  0
 12 16  2  0  0  0  0
 12 17  1  0  0  0  0
 13 18  1  0  0  0  0
 14 19  1  0  0  0  0
 15 20  1  0  0  0  0
 19 21  2  0  0  0  0
 20 22  1  0  0  0  0
 22 23  1  0  0  0  0
 23 24  2  0  0  0  0
 23 25  1  0  0  0  0
 25 26  1  0  0  0  0
  7 10  1  0  0  0  0
 14 16  1  0  0  0  0
 19 20  1  0  0  0  0
M  END
>  <MolRegNo>
1249702

>  <m>
=

>  <Value>
17000

>  <Unit>
nM

>  <Type>
IC50

>  <pValue>
4.77

>  <Ligand Efficiency>
0

>  <Binding Efficiency>
0

>  <Surface Efficiency>
0

>  <Assay Index>
618506

>  <Assay Category>


>  <Assay Organism>


>  <Target ID>
17045

>  <Target Name>
Cytochrome P450 3A4

>  <Target Organism>
Homo sapiens

>  <Target Description>
Target is a single protein chain

>  <Sequence Accession>
P08684

>  <Reference>
Bioorg Med Chem Lett 21 (22), 6646-6651 (2011)

>  <Pubmed ID>
21996520

>  <DOI>
10.1016/j.bmcl.2011.09.074

$$$$
1249698
Actelion Java MolfileCreator 1.0

 29 32  0  0  0  0  0  0  0  0999 V2000
    0.0000   -0.0000   -0.0000 Cl  0  0  0  0  0  0  0  0  0  0  0  0
   -1.3021   -0.7339   -0.0000 C   0  0  0  0  0  0  0  0  0  0  0  0
   -2.6042    0.0237   -0.0000 C   0  0  0  0  0  0  0  0  0  0  0  0
   -1.3139   -2.2135   -0.0000 C   0  0  0  0  0  0  0  0  0  0  0  0
   -2.6160    1.5270   -0.0000 C   0  0  0  0  0  0  0  0  0  0  0  0
   -3.9181   -0.7102   -0.0000 C   0  0  0  0  0  0  0  0  0  0  0  0
   -2.6278   -2.9593   -0.0000 C   0  0  0  0  0  0  0  0  0  0  0  0
   -1.3258    2.2846   -0.0000 C   0  0  0  0  0  0  0  0  0  0  0  0
   -3.9181    2.2846   -0.0000 C   0  0  0  0  0  0  0  0  0  0  0  0
   -3.9299   -2.1899   -0.0000 C   0  0  0  0  0  0  0  0  0  0  0  0
   -2.6397   -4.4389   -0.0000 Cl  0  0  0  0  0  0  0  0  0  0  0  0
   -1.3376    3.7997   -0.0000 C   0  0  0  0  0  0  0  0  0  0  0  0
   -0.0473    1.5507   -0.0000 C   0  0  0  0  0  0  0  0  0  0  0  0
   -3.9299    3.7879   -0.0000 C   0  0  0  0  0  0  0  0  0  0  0  0
   -5.3504    1.8348   -0.0000 C   0  0  0  0  0  0  0  0  0  0  0  0
   -2.6397    4.5573   -0.0000 N   0  0  0  0  0  0  0  0  0  0  0  0
   -0.0592    4.5573   -0.0000 C   0  0  0  0  0  0  0  0  0  0  0  0
    1.2311    2.3082   -0.0000 N   0  0  0  0  0  0  0  0  0  0  0  0
   -5.3622    4.2614   -0.0000 C   0  0  0  0  0  0  0  0  0  0  0  0
   -6.2382    3.0540   -0.0000 N   0  0  0  0  0  0  0  0  0  0  0  0
   -5.8357    5.6937   -0.0000 O   0  0  0  0  0  0  0  0  0  0  0  0
   -7.7415    3.0658   -0.0000 C   0  0  0  0  0  0  0  0  0  0  0  0
   -8.4991    4.3797   -0.0000 C   0  0  0  0  0  0  0  0  0  0  0  0
   -8.4991    1.7874   -0.0000 C   0  0  0  0  0  0  0  0  0  0  0  0
  -10.0024    4.3916   -0.0000 C   0  0  0  0  0  0  0  0  0  0  0  0
  -10.0024    1.7992   -0.0000 C   0  0  0  0  0  0  0  0  0  0  0  0
  -10.7600    3.1132   -0.0000 C   0  0  0  0  0  0  0  0  0  0  0  0
  -12.2633    3.1250   -0.0000 C   0  0  0  0  0  0  0  0  0  0  0  0
  -13.7784    3.1368   -0.0000 N   0  0  0  0  0  0  0  0  0  0  0  0
  1  2  1  0  0  0  0
  2  3  2  0  0  0  0
  2  4  1  0  0  0  0
  3  5  1  0  0  0  0
  3  6  1  0  0  0  0
  4  7  2  0  0  0  0
  5  8  2  0  0  0  0
  5  9  1  0  0  0  0
  6 10  2  0  0  0  0
  7 11  1  0  0  0  0
  8 12  1  0  0  0  0
  8 13  1  0  0  0  0
  9 14  2  0  0  0  0
  9 15  1  0  0  0  0
 12 16  2  0  0  0  0
 12 17  1  0  0  0  0
 13 18  1  0  0  0  0
 14 19  1  0  0  0  0
 15 20  1  0  0  0  0
 19 21  2  0  0  0  0
 20 22  1  0  0  0  0
 22 23  2  0  0  0  0
 22 24  1  0  0  0  0
 23 25  1  0  0  0  0
 24 26  2  0  0  0  0
 25 27  2  0  0  0  0
 27 28  1  0  0  0  0
 28 29  3  0  0  0  0
  7 10  1  0  0  0  0
 14 16  1  0  0  0  0
 19 20  1  0  0  0  0
 26 27  1  0  0  0  0
M  END
>  <MolRegNo>
1249698

>  <m>
=

>  <Value>
670

>  <Unit>
nM

>  <Type>
IC50

>  <pValue>
6.17

>  <Ligand Efficiency>
0

>  <Binding Efficiency>
0

>  <Surface Efficiency>
0

>  <Assay Index>
618506

>  <Assay Category>


>  <Assay Organism>


>  <Target ID>
17045

>  <Target Name>
Cytochrome P450 3A4

>  <Target Organism>
Homo sapiens

>  <Target Description>
Target is a single protein chain

>  <Sequence Accession>
P08684

>  <Reference>
Bioorg Med Chem Lett 21 (22), 6646-6651 (2011)

>  <Pubmed ID>
21996520

>  <DOI>
10.1016/j.bmcl.2011.09.074

$$$$
1249697
Actelion Java MolfileCreator 1.0

 28 31  0  0  0  0  0  0  0  0999 V2000
    0.0000   -0.0000   -0.0000 Cl  0  0  0  0  0  0  0  0  0  0  0  0
   -1.3023   -0.7340   -0.0000 C   0  0  0  0  0  0  0  0  0  0  0  0
   -2.6047    0.0237   -0.0000 C   0  0  0  0  0  0  0  0  0  0  0  0
   -1.3142   -2.2140   -0.0000 C   0  0  0  0  0  0  0  0  0  0  0  0
   -2.6165    1.5273   -0.0000 C   0  0  0  0  0  0  0  0  0  0  0  0
   -3.9189   -0.7104   -0.0000 C   0  0  0  0  0  0  0  0  0  0  0  0
   -2.6284   -2.9599   -0.0000 C   0  0  0  0  0  0  0  0  0  0  0  0
   -1.3260    2.2850   -0.0000 C   0  0  0  0  0  0  0  0  0  0  0  0
   -3.9189    2.2850   -0.0000 C   0  0  0  0  0  0  0  0  0  0  0  0
   -3.9307   -2.1903   -0.0000 C   0  0  0  0  0  0  0  0  0  0  0  0
   -2.6402   -4.4398   -0.0000 Cl  0  0  0  0  0  0  0  0  0  0  0  0
   -1.3379    3.8005   -0.0000 C   0  0  0  0  0  0  0  0  0  0  0  0
   -0.0474    1.5510   -0.0000 C   0  0  0  0  0  0  0  0  0  0  0  0
   -3.9307    3.7886   -0.0000 C   0  0  0  0  0  0  0  0  0  0  0  0
   -5.3514    1.8351   -0.0000 C   0  0  0  0  0  0  0  0  0  0  0  0
   -2.6402    4.5582   -0.0000 N   0  0  0  0  0  0  0  0  0  0  0  0
   -0.0592    4.5700   -0.0000 C   0  0  0  0  0  0  0  0  0  0  0  0
    1.2313    2.3087   -0.0000 N   0  0  0  0  0  0  0  0  0  0  0  0
   -5.3633    4.2622   -0.0000 C   0  0  0  0  0  0  0  0  0  0  0  0
   -6.2394    3.0546   -0.0000 N   0  0  0  0  0  0  0  0  0  0  0  0
   -5.8369    5.6948   -0.0000 O   0  0  0  0  0  0  0  0  0  0  0  0
   -7.7430    3.0664   -0.0000 C   0  0  0  0  0  0  0  0  0  0  0  0
   -8.5007    4.3806   -0.0000 C   0  0  0  0  0  0  0  0  0  0  0  0
   -8.5007    1.7878   -0.0000 C   0  0  0  0  0  0  0  0  0  0  0  0
  -10.0043    4.3924   -0.0000 C   0  0  0  0  0  0  0  0  0  0  0  0
  -10.0043    1.7996   -0.0000 C   0  0  0  0  0  0  0  0  0  0  0  0
  -10.7621    3.1138   -0.0000 C   0  0  0  0  0  0  0  0  0  0  0  0
  -12.2657    3.1256   -0.0000 F   0  0  0  0  0  0  0  0  0  0  0  0
  1  2  1  0  0  0  0
  2  3  2  0  0  0  0
  2  4  1  0  0  0  0
  3  5  1  0  0  0  0
  3  6  1  0  0  0  0
  4  7  2  0  0  0  0
  5  8  2  0  0  0  0
  5  9  1  0  0  0  0
  6 10  2  0  0  0  0
  7 11  1  0  0  0  0
  8 12  1  0  0  0  0
  8 13  1  0  0  0  0
  9 14  2  0  0  0  0
  9 15  1  0  0  0  0
 12 16  2  0  0  0  0
 12 17  1  0  0  0  0
 13 18  1  0  0  0  0
 14 19  1  0  0  0  0
 15 20  1  0  0  0  0
 19 21  2  0  0  0  0
 20 22  1  0  0  0  0
 22 23  2  0  0  0  0
 22 24  1  0  0  0  0
 23 25  1  0  0  0  0
 24 26  2  0  0  0  0
 25 27  2  0  0  0  0
 27 28  1  0  0  0  0
  7 10  1  0  0  0  0
 14 16  1  0  0  0  0
 19 20  1  0  0  0  0
 26 27  1  0  0  0  0
M  END
>  <MolRegNo>
1249697

>  <m>
=

>  <Value>
1400

>  <Unit>
nM

>  <Type>
IC50

>  <pValue>
5.85

>  <Ligand Efficiency>
0

>  <Binding Efficiency>
0

>  <Surface Efficiency>
0

>  <Assay Index>
618506

>  <Assay Category>


>  <Assay Organism>


>  <Target ID>
17045

>  <Target Name>
Cytochrome P450 3A4

>  <Target Organism>
Homo sapiens

>  <Target Description>
Target is a single protein chain

>  <Sequence Accession>
P08684

>  <Reference>
Bioorg Med Chem Lett 21 (22), 6646-6651 (2011)

>  <Pubmed ID>
21996520

>  <DOI>
10.1016/j.bmcl.2011.09.074

$$$$
1249583
Actelion Java MolfileCreator 1.0

 28 31  0  0  0  0  0  0  0  0999 V2000
    0.0000   -0.0000   -0.0000 Cl  0  0  0  0  0  0  0  0  0  0  0  0
   -1.3025   -0.7341   -0.0000 C   0  0  0  0  0  0  0  0  0  0  0  0
   -2.6050    0.0237   -0.0000 C   0  0  0  0  0  0  0  0  0  0  0  0
   -1.3144   -2.2143   -0.0000 C   0  0  0  0  0  0  0  0  0  0  0  0
   -2.6169    1.5275   -0.0000 C   0  0  0  0  0  0  0  0  0  0  0  0
   -3.9194   -0.7105   -0.0000 C   0  0  0  0  0  0  0  0  0  0  0  0
   -2.6287   -2.9603   -0.0000 C   0  0  0  0  0  0  0  0  0  0  0  0
   -1.3262    2.2853   -0.0000 C   0  0  0  0  0  0  0  0  0  0  0  0
   -3.9194    2.2853   -0.0000 C   0  0  0  0  0  0  0  0  0  0  0  0
   -3.9312   -2.1906   -0.0000 C   0  0  0  0  0  0  0  0  0  0  0  0
   -2.6405   -4.4404   -0.0000 Cl  0  0  0  0  0  0  0  0  0  0  0  0
   -1.3380    3.8010   -0.0000 C   0  0  0  0  0  0  0  0  0  0  0  0
   -0.0474    1.5512   -0.0000 C   0  0  0  0  0  0  0  0  0  0  0  0
   -3.9312    3.7891   -0.0000 C   0  0  0  0  0  0  0  0  0  0  0  0
   -5.3521    1.8354   -0.0000 C   0  0  0  0  0  0  0  0  0  0  0  0
   -2.6405    4.5588   -0.0000 N   0  0  0  0  0  0  0  0  0  0  0  0
   -0.0592    4.5588   -0.0000 C   0  0  0  0  0  0  0  0  0  0  0  0
    1.2315    2.3090   -0.0000 N   0  0  0  0  0  0  0  0  0  0  0  0
   -5.3640    4.2628   -0.0000 C   0  0  0  0  0  0  0  0  0  0  0  0
   -6.2402    3.0550   -0.0000 N   0  0  0  0  0  0  0  0  0  0  0  0
   -5.8376    5.6955   -0.0000 O   0  0  0  0  0  0  0  0  0  0  0  0
   -7.7440    3.0668   -0.0000 C   0  0  0  0  0  0  0  0  0  0  0  0
   -8.5018    4.3812   -0.0000 C   0  0  0  0  0  0  0  0  0  0  0  0
   -8.5018    1.7880   -0.0000 C   0  0  0  0  0  0  0  0  0  0  0  0
  -10.0056    4.3930   -0.0000 C   0  0  0  0  0  0  0  0  0  0  0  0
  -10.0056    1.7998   -0.0000 C   0  0  0  0  0  0  0  0  0  0  0  0
  -10.7635    3.1142   -0.0000 C   0  0  0  0  0  0  0  0  0  0  0  0
  -12.2673    3.1260   -0.0000 Cl  0  0  0  0  0  0  0  0  0  0  0  0
  1  2  1  0  0  0  0
  2  3  2  0  0  0  0
  2  4  1  0  0  0  0
  3  5  1  0  0  0  0
  3  6  1  0  0  0  0
  4  7  2  0  0  0  0
  5  8  2  0  0  0  0
  5  9  1  0  0  0  0
  6 10  2  0  0  0  0
  7 11  1  0  0  0  0
  8 12  1  0  0  0  0
  8 13  1  0  0  0  0
  9 14  2  0  0  0  0
  9 15  1  0  0  0  0
 12 16  2  0  0  0  0
 12 17  1  0  0  0  0
 13 18  1  0  0  0  0
 14 19  1  0  0  0  0
 15 20  1  0  0  0  0
 19 21  2  0  0  0  0
 20 22  1  0  0  0  0
 22 23  2  0  0  0  0
 22 24  1  0  0  0  0
 23 25  1  0  0  0  0
 24 26  2  0  0  0  0
 25 27  2  0  0  0  0
 27 28  1  0  0  0  0
  7 10  1  0  0  0  0
 14 16  1  0  0  0  0
 19 20  1  0  0  0  0
 26 27  1  0  0  0  0
M  END
>  <MolRegNo>
1249583

>  <m>
=

>  <Value>
390

>  <Unit>
nM

>  <Type>
IC50

>  <pValue>
6.41

>  <Ligand Efficiency>
0

>  <Binding Efficiency>
0

>  <Surface Efficiency>
0

>  <Assay Index>
618506

>  <Assay Category>


>  <Assay Organism>


>  <Target ID>
17045

>  <Target Name>
Cytochrome P450 3A4

>  <Target Organism>
Homo sapiens

>  <Target Description>
Target is a single protein chain

>  <Sequence Accession>
P08684

>  <Reference>
Bioorg Med Chem Lett 21 (22), 6646-6651 (2011)

>  <Pubmed ID>
21996520

>  <DOI>
10.1016/j.bmcl.2011.09.074

$$$$
1249581
Actelion Java MolfileCreator 1.0

 28 31  0  0  0  0  0  0  0  0999 V2000
    0.0000   -0.0000   -0.0000 Cl  0  0  0  0  0  0  0  0  0  0  0  0
   -1.3025   -0.7341   -0.0000 C   0  0  0  0  0  0  0  0  0  0  0  0
   -2.6050    0.0237   -0.0000 C   0  0  0  0  0  0  0  0  0  0  0  0
   -1.3144   -2.2143   -0.0000 C   0  0  0  0  0  0  0  0  0  0  0  0
   -2.6169    1.5275   -0.0000 C   0  0  0  0  0  0  0  0  0  0  0  0
   -3.9194   -0.7105   -0.0000 C   0  0  0  0  0  0  0  0  0  0  0  0
   -2.6287   -2.9603   -0.0000 C   0  0  0  0  0  0  0  0  0  0  0  0
   -1.3262    2.2853   -0.0000 C   0  0  0  0  0  0  0  0  0  0  0  0
   -3.9194    2.2853   -0.0000 C   0  0  0  0  0  0  0  0  0  0  0  0
   -3.9312   -2.1906   -0.0000 C   0  0  0  0  0  0  0  0  0  0  0  0
   -2.6405   -4.4404   -0.0000 Cl  0  0  0  0  0  0  0  0  0  0  0  0
   -1.3380    3.8010   -0.0000 C   0  0  0  0  0  0  0  0  0  0  0  0
   -0.0474    1.5512   -0.0000 C   0  0  0  0  0  0  0  0  0  0  0  0
   -3.9312    3.7891   -0.0000 C   0  0  0  0  0  0  0  0  0  0  0  0
   -5.3521    1.8354   -0.0000 C   0  0  0  0  0  0  0  0  0  0  0  0
   -2.6405    4.5588   -0.0000 N   0  0  0  0  0  0  0  0  0  0  0  0
   -0.0592    4.5588   -0.0000 C   0  0  0  0  0  0  0  0  0  0  0  0
    1.2315    2.3090   -0.0000 N   0  0  0  0  0  0  0  0  0  0  0  0
   -5.3640    4.2628   -0.0000 C   0  0  0  0  0  0  0  0  0  0  0  0
   -6.2402    3.0550   -0.0000 N   0  0  0  0  0  0  0  0  0  0  0  0
   -5.8376    5.6955   -0.0000 O   0  0  0  0  0  0  0  0  0  0  0  0
   -7.7440    3.0668   -0.0000 C   0  0  0  0  0  0  0  0  0  0  0  0
   -8.5018    4.3812   -0.0000 C   0  0  0  0  0  0  0  0  0  0  0  0
   -8.5018    1.7880   -0.0000 C   0  0  0  0  0  0  0  0  0  0  0  0
  -10.0056    4.3930   -0.0000 C   0  0  0  0  0  0  0  0  0  0  0  0
  -10.0056    1.7998   -0.0000 C   0  0  0  0  0  0  0  0  0  0  0  0
  -10.7635    3.1142   -0.0000 C   0  0  0  0  0  0  0  0  0  0  0  0
  -12.2673    3.1260   -0.0000 C   0  0  0  0  0  0  0  0  0  0  0  0
  1  2  1  0  0  0  0
  2  3  2  0  0  0  0
  2  4  1  0  0  0  0
  3  5  1  0  0  0  0
  3  6  1  0  0  0  0
  4  7  2  0  0  0  0
  5  8  2  0  0  0  0
  5  9  1  0  0  0  0
  6 10  2  0  0  0  0
  7 11  1  0  0  0  0
  8 12  1  0  0  0  0
  8 13  1  0  0  0  0
  9 14  2  0  0  0  0
  9 15  1  0  0  0  0
 12 16  2  0  0  0  0
 12 17  1  0  0  0  0
 13 18  1  0  0  0  0
 14 19  1  0  0  0  0
 15 20  1  0  0  0  0
 19 21  2  0  0  0  0
 20 22  1  0  0  0  0
 22 23  2  0  0  0  0
 22 24  1  0  0  0  0
 23 25  1  0  0  0  0
 24 26  2  0  0  0  0
 25 27  2  0  0  0  0
 27 28  1  0  0  0  0
  7 10  1  0  0  0  0
 14 16  1  0  0  0  0
 19 20  1  0  0  0  0
 26 27  1  0  0  0  0
M  END
>  <MolRegNo>
1249581

>  <m>
=

>  <Value>
270

>  <Unit>
nM

>  <Type>
IC50

>  <pValue>
6.57

>  <Ligand Efficiency>
0

>  <Binding Efficiency>
0

>  <Surface Efficiency>
0

>  <Assay Index>
618506

>  <Assay Category>


>  <Assay Organism>


>  <Target ID>
17045

>  <Target Name>
Cytochrome P450 3A4

>  <Target Organism>
Homo sapiens

>  <Target Description>
Target is a single protein chain

>  <Sequence Accession>
P08684

>  <Reference>
Bioorg Med Chem Lett 21 (22), 6646-6651 (2011)

>  <Pubmed ID>
21996520

>  <DOI>
10.1016/j.bmcl.2011.09.074

$$$$
1249580
Actelion Java MolfileCreator 1.0

 29 32  0  0  0  0  0  0  0  0999 V2000
    0.0000   -0.0000   -0.0000 Cl  0  0  0  0  0  0  0  0  0  0  0  0
   -1.3033   -0.7346   -0.0000 C   0  0  0  0  0  0  0  0  0  0  0  0
   -2.6067    0.0237   -0.0000 C   0  0  0  0  0  0  0  0  0  0  0  0
   -1.3152   -2.2157   -0.0000 C   0  0  0  0  0  0  0  0  0  0  0  0
   -2.6185    1.5285   -0.0000 C   0  0  0  0  0  0  0  0  0  0  0  0
   -3.9219   -0.7109   -0.0000 C   0  0  0  0  0  0  0  0  0  0  0  0
   -2.6304   -2.9621   -0.0000 C   0  0  0  0  0  0  0  0  0  0  0  0
   -1.3270    2.2868   -0.0000 C   0  0  0  0  0  0  0  0  0  0  0  0
   -3.9219    2.2868   -0.0000 C   0  0  0  0  0  0  0  0  0  0  0  0
   -3.9337   -2.1920   -0.0000 C   0  0  0  0  0  0  0  0  0  0  0  0
   -2.6422   -4.4432   -0.0000 Cl  0  0  0  0  0  0  0  0  0  0  0  0
   -1.3389    3.8034   -0.0000 C   0  0  0  0  0  0  0  0  0  0  0  0
   -0.0474    1.5522   -0.0000 C   0  0  0  0  0  0  0  0  0  0  0  0
   -3.9337    3.7916   -0.0000 C   0  0  0  0  0  0  0  0  0  0  0  0
   -5.3556    1.8365   -0.0000 C   0  0  0  0  0  0  0  0  0  0  0  0
   -2.6422    4.5617   -0.0000 N   0  0  0  0  0  0  0  0  0  0  0  0
   -0.0592    4.5617   -0.0000 C   0  0  0  0  0  0  0  0  0  0  0  0
    1.2323    2.3105   -0.0000 N   0  0  0  0  0  0  0  0  0  0  0  0
   -5.3674    4.2655   -0.0000 C   0  0  0  0  0  0  0  0  0  0  0  0
   -6.2442    3.0569   -0.0000 N   0  0  0  0  0  0  0  0  0  0  0  0
   -5.8414    5.6992   -0.0000 O   0  0  0  0  0  0  0  0  0  0  0  0
   -7.7490    3.0688   -0.0000 C   0  0  0  0  0  0  0  0  0  0  0  0
   -8.5073    1.7891   -0.0000 C   0  0  0  0  0  0  0  0  0  0  0  0
   -8.5073    4.3840   -0.0000 C   0  0  0  0  0  0  0  0  0  0  0  0
   -7.7727    0.5095   -0.0000 O   0  0  0  0  0  0  0  0  0  0  0  0
  -10.0121    1.8010   -0.0000 C   0  0  0  0  0  0  0  0  0  0  0  0
  -10.0121    4.3958   -0.0000 C   0  0  0  0  0  0  0  0  0  0  0  0
   -8.5310   -0.7702   -0.0000 C   0  0  0  0  0  0  0  0  0  0  0  0
  -10.7822    3.1162   -0.0000 C   0  0  0  0  0  0  0  0  0  0  0  0
  1  2  1  0  0  0  0
  2  3  2  0  0  0  0
  2  4  1  0  0  0  0
  3  5  1  0  0  0  0
  3  6  1  0  0  0  0
  4  7  2  0  0  0  0
  5  8  2  0  0  0  0
  5  9  1  0  0  0  0
  6 10  2  0  0  0  0
  7 11  1  0  0  0  0
  8 12  1  0  0  0  0
  8 13  1  0  0  0  0
  9 14  2  0  0  0  0
  9 15  1  0  0  0  0
 12 16  2  0  0  0  0
 12 17  1  0  0  0  0
 13 18  1  0  0  0  0
 14 19  1  0  0  0  0
 15 20  1  0  0  0  0
 19 21  2  0  0  0  0
 20 22  1  0  0  0  0
 22 23  2  0  0  0  0
 22 24  1  0  0  0  0
 23 25  1  0  0  0  0
 23 26  1  0  0  0  0
 24 27  2  0  0  0  0
 25 28  1  0  0  0  0
 26 29  2  0  0  0  0
  7 10  1  0  0  0  0
 14 16  1  0  0  0  0
 19 20  1  0  0  0  0
 27 29  1  0  0  0  0
M  END
>  <MolRegNo>
1249580

>  <m>
=

>  <Value>
1500

>  <Unit>
nM

>  <Type>
IC50

>  <pValue>
5.82

>  <Ligand Efficiency>
0

>  <Binding Efficiency>
0

>  <Surface Efficiency>
0

>  <Assay Index>
618506

>  <Assay Category>


>  <Assay Organism>


>  <Target ID>
17045

>  <Target Name>
Cytochrome P450 3A4

>  <Target Organism>
Homo sapiens

>  <Target Description>
Target is a single protein chain

>  <Sequence Accession>
P08684

>  <Reference>
Bioorg Med Chem Lett 21 (22), 6646-6651 (2011)

>  <Pubmed ID>
21996520

>  <DOI>
10.1016/j.bmcl.2011.09.074

$$$$
1249578
Actelion Java MolfileCreator 1.0

 29 32  0  0  0  0  0  0  0  0999 V2000
    0.0000   -0.0000   -0.0000 Cl  0  0  0  0  0  0  0  0  0  0  0  0
   -1.3023   -0.7340   -0.0000 C   0  0  0  0  0  0  0  0  0  0  0  0
   -2.6046    0.0237   -0.0000 C   0  0  0  0  0  0  0  0  0  0  0  0
   -1.3142   -2.2139   -0.0000 C   0  0  0  0  0  0  0  0  0  0  0  0
   -2.6165    1.5273   -0.0000 C   0  0  0  0  0  0  0  0  0  0  0  0
   -3.9188   -0.7104   -0.0000 C   0  0  0  0  0  0  0  0  0  0  0  0
   -2.6283   -2.9598   -0.0000 C   0  0  0  0  0  0  0  0  0  0  0  0
   -1.3260    2.2850   -0.0000 C   0  0  0  0  0  0  0  0  0  0  0  0
   -3.9188    2.2850   -0.0000 C   0  0  0  0  0  0  0  0  0  0  0  0
   -3.9306   -2.1903   -0.0000 C   0  0  0  0  0  0  0  0  0  0  0  0
   -2.6402   -4.4397   -0.0000 Cl  0  0  0  0  0  0  0  0  0  0  0  0
   -1.3378    3.8004   -0.0000 C   0  0  0  0  0  0  0  0  0  0  0  0
   -0.0474    1.5509   -0.0000 C   0  0  0  0  0  0  0  0  0  0  0  0
   -3.9306    3.7886   -0.0000 C   0  0  0  0  0  0  0  0  0  0  0  0
   -5.3514    1.8351   -0.0000 C   0  0  0  0  0  0  0  0  0  0  0  0
   -2.6402    4.5581   -0.0000 N   0  0  0  0  0  0  0  0  0  0  0  0
   -0.0592    4.5581   -0.0000 C   0  0  0  0  0  0  0  0  0  0  0  0
    1.2313    2.3087   -0.0000 N   0  0  0  0  0  0  0  0  0  0  0  0
   -5.3632    4.2621   -0.0000 C   0  0  0  0  0  0  0  0  0  0  0  0
   -6.2393    3.0545   -0.0000 N   0  0  0  0  0  0  0  0  0  0  0  0
   -5.8368    5.6947   -0.0000 O   0  0  0  0  0  0  0  0  0  0  0  0
   -7.7429    3.0664   -0.0000 C   0  0  0  0  0  0  0  0  0  0  0  0
   -8.5006    4.3805   -0.0000 C   0  0  0  0  0  0  0  0  0  0  0  0
   -8.5006    1.7877   -0.0000 C   0  0  0  0  0  0  0  0  0  0  0  0
  -10.0042    4.3924   -0.0000 C   0  0  0  0  0  0  0  0  0  0  0  0
  -10.0042    1.7996   -0.0000 C   0  0  0  0  0  0  0  0  0  0  0  0
  -10.7619    3.1137   -0.0000 C   0  0  0  0  0  0  0  0  0  0  0  0
  -12.2655    3.1256   -0.0000 O   0  0  0  0  0  0  0  0  0  0  0  0
  -13.0232    4.4279   -0.0000 C   0  0  0  0  0  0  0  0  0  0  0  0
  1  2  1  0  0  0  0
  2  3  2  0  0  0  0
  2  4  1  0  0  0  0
  3  5  1  0  0  0  0
  3  6  1  0  0  0  0
  4  7  2  0  0  0  0
  5  8  2  0  0  0  0
  5  9  1  0  0  0  0
  6 10  2  0  0  0  0
  7 11  1  0  0  0  0
  8 12  1  0  0  0  0
  8 13  1  0  0  0  0
  9 14  2  0  0  0  0
  9 15  1  0  0  0  0
 12 16  2  0  0  0  0
 12 17  1  0  0  0  0
 13 18  1  0  0  0  0
 14 19  1  0  0  0  0
 15 20  1  0  0  0  0
 19 21  2  0  0  0  0
 20 22  1  0  0  0  0
 22 23  2  0  0  0  0
 22 24  1  0  0  0  0
 23 25  1  0  0  0  0
 24 26  2  0  0  0  0
 25 27  2  0  0  0  0
 27 28  1  0  0  0  0
 28 29  1  0  0  0  0
  7 10  1  0  0  0  0
 14 16  1  0  0  0  0
 19 20  1  0  0  0  0
 26 27  1  0  0  0  0
M  END
>  <MolRegNo>
1249578

>  <m>
=

>  <Value>
2500

>  <Unit>
nM

>  <Type>
IC50

>  <pValue>
5.6

>  <Ligand Efficiency>
0

>  <Binding Efficiency>
0

>  <Surface Efficiency>
0

>  <Assay Index>
618506

>  <Assay Category>


>  <Assay Organism>


>  <Target ID>
17045

>  <Target Name>
Cytochrome P450 3A4

>  <Target Organism>
Homo sapiens

>  <Target Description>
Target is a single protein chain

>  <Sequence Accession>
P08684

>  <Reference>
Bioorg Med Chem Lett 21 (22), 6646-6651 (2011)

>  <Pubmed ID>
21996520

>  <DOI>
10.1016/j.bmcl.2011.09.074

$$$$
1249577
Actelion Java MolfileCreator 1.0

 27 30  0  0  0  0  0  0  0  0999 V2000
    0.0000   -0.0000   -0.0000 Cl  0  0  0  0  0  0  0  0  0  0  0  0
   -1.3026   -0.7342   -0.0000 C   0  0  0  0  0  0  0  0  0  0  0  0
   -2.6052    0.0237   -0.0000 C   0  0  0  0  0  0  0  0  0  0  0  0
   -1.3145   -2.2145   -0.0000 C   0  0  0  0  0  0  0  0  0  0  0  0
   -2.6171    1.5276   -0.0000 C   0  0  0  0  0  0  0  0  0  0  0  0
   -3.9197   -0.7105   -0.0000 C   0  0  0  0  0  0  0  0  0  0  0  0
   -2.6289   -2.9605   -0.0000 C   0  0  0  0  0  0  0  0  0  0  0  0
   -1.3263    2.2855   -0.0000 C   0  0  0  0  0  0  0  0  0  0  0  0
   -3.9197    2.2855   -0.0000 C   0  0  0  0  0  0  0  0  0  0  0  0
   -3.9315   -2.1908   -0.0000 C   0  0  0  0  0  0  0  0  0  0  0  0
   -2.6408   -4.4408   -0.0000 Cl  0  0  0  0  0  0  0  0  0  0  0  0
   -1.3381    3.8013   -0.0000 C   0  0  0  0  0  0  0  0  0  0  0  0
   -0.0474    1.5513   -0.0000 C   0  0  0  0  0  0  0  0  0  0  0  0
   -3.9315    3.7894   -0.0000 C   0  0  0  0  0  0  0  0  0  0  0  0
   -5.3526    1.8355   -0.0000 C   0  0  0  0  0  0  0  0  0  0  0  0
   -2.6408    4.5592   -0.0000 N   0  0  0  0  0  0  0  0  0  0  0  0
   -0.0592    4.5592   -0.0000 C   0  0  0  0  0  0  0  0  0  0  0  0
    1.2316    2.3092   -0.0000 N   0  0  0  0  0  0  0  0  0  0  0  0
   -5.3644    4.2631   -0.0000 C   0  0  0  0  0  0  0  0  0  0  0  0
   -6.2407    3.0552   -0.0000 N   0  0  0  0  0  0  0  0  0  0  0  0
   -5.8381    5.6960   -0.0000 O   0  0  0  0  0  0  0  0  0  0  0  0
   -7.7447    3.0671   -0.0000 C   0  0  0  0  0  0  0  0  0  0  0  0
   -8.5026    4.3815   -0.0000 C   0  0  0  0  0  0  0  0  0  0  0  0
   -8.5026    1.7881   -0.0000 C   0  0  0  0  0  0  0  0  0  0  0  0
  -10.0065    4.3934   -0.0000 C   0  0  0  0  0  0  0  0  0  0  0  0
  -10.0065    1.8000   -0.0000 C   0  0  0  0  0  0  0  0  0  0  0  0
  -10.7644    3.1145   -0.0000 C   0  0  0  0  0  0  0  0  0  0  0  0
  1  2  1  0  0  0  0
  2  3  2  0  0  0  0
  2  4  1  0  0  0  0
  3  5  1  0  0  0  0
  3  6  1  0  0  0  0
  4  7  2  0  0  0  0
  5  8  2  0  0  0  0
  5  9  1  0  0  0  0
  6 10  2  0  0  0  0
  7 11  1  0  0  0  0
  8 12  1  0  0  0  0
  8 13  1  0  0  0  0
  9 14  2  0  0  0  0
  9 15  1  0  0  0  0
 12 16  2  0  0  0  0
 12 17  1  0  0  0  0
 13 18  1  0  0  0  0
 14 19  1  0  0  0  0
 15 20  1  0  0  0  0
 19 21  2  0  0  0  0
 20 22  1  0  0  0  0
 22 23  2  0  0  0  0
 22 24  1  0  0  0  0
 23 25  1  0  0  0  0
 24 26  2  0  0  0  0
 25 27  2  0  0  0  0
  7 10  1  0  0  0  0
 14 16  1  0  0  0  0
 19 20  1  0  0  0  0
 26 27  1  0  0  0  0
M  END
>  <MolRegNo>
1249577

>  <m>
=

>  <Value>
1200

>  <Unit>
nM

>  <Type>
IC50

>  <pValue>
5.92

>  <Ligand Efficiency>
0

>  <Binding Efficiency>
0

>  <Surface Efficiency>
0

>  <Assay Index>
618506

>  <Assay Category>


>  <Assay Organism>


>  <Target ID>
17045

>  <Target Name>
Cytochrome P450 3A4

>  <Target Organism>
Homo sapiens

>  <Target Description>
Target is a single protein chain

>  <Sequence Accession>
P08684

>  <Reference>
Bioorg Med Chem Lett 21 (22), 6646-6651 (2011)

>  <Pubmed ID>
21996520

>  <DOI>
10.1016/j.bmcl.2011.09.074

$$$$
1249886
Actelion Java MolfileCreator 1.0

 38 41  0  0  0  0  0  0  0  0999 V2000
    0.0000   -0.0000   -0.0000 F   0  0  0  0  0  0  0  0  0  0  0  0
   -0.0119   -1.4922   -0.0000 C   0  0  0  0  0  0  0  0  0  0  0  0
   -1.3251   -2.2323   -0.0000 C   0  0  0  0  0  0  0  0  0  0  0  0
    1.2773   -2.2323   -0.0000 C   0  0  0  0  0  0  0  0  0  0  0  0
   -2.6501   -1.4683   -0.0000 F   0  0  0  0  0  0  0  0  0  0  0  0
   -1.3251   -3.7365   -0.0000 C   0  0  0  0  0  0  0  0  0  0  0  0
    1.2654   -3.7365   -0.0000 C   0  0  0  0  0  0  0  0  0  0  0  0
   -0.0358   -4.4647   -0.0000 C   0  0  0  0  0  0  0  0  0  0  0  0
    2.5666   -4.4766   -0.0000 C   0  0  0  0  0  0  0  0  0  0  0  0
    3.6171   -3.3903   -0.0000 O   0  0  0  0  0  0  0  0  0  0  0  0
    3.8558   -5.2287   -0.0000 C   0  0  0  0  0  0  0  0  0  0  0  0
    1.2534   -5.2287   -0.0000 C   0  0  0  0  0  0  0  0  0  0  0  0
    5.1570   -4.4647   -0.0000 C   0  0  0  0  0  0  0  0  0  0  0  0
    3.8439   -6.7209   -0.0000 C   0  0  0  0  0  0  0  0  0  0  0  0
    1.2415   -6.7209   -0.0000 C   0  0  0  0  0  0  0  0  0  0  0  0
    5.1451   -2.9486   -0.0000 O   0  0  0  0  0  0  0  0  0  0  0  0
    6.4463   -5.2048   -0.0000 N   0  0  0  0  0  0  0  0  0  0  0  0
    2.5308   -7.4610   -0.0000 N   0  0  0  0  0  0  0  0  0  0  0  0
    6.4344   -6.6970   -0.0000 C   0  0  0  0  0  0  0  0  0  0  0  0
    7.7475   -4.4408   -0.0000 C   0  0  0  0  0  0  0  0  0  0  0  0
    5.6703   -7.9862   -0.0000 C   0  0  0  0  0  0  0  0  0  0  0  0
    7.1745   -7.9982   -0.0000 C   0  0  0  0  0  0  0  0  0  0  0  0
    9.0367   -5.1809   -0.0000 C   0  0  0  0  0  0  0  0  0  0  0  0
   10.3260   -4.4169   -0.0000 C   0  0  0  0  0  0  0  0  0  0  0  0
    9.0129   -6.6850   -0.0000 C   0  0  0  0  0  0  0  0  0  0  0  0
   11.6153   -5.1570   -0.0000 C   0  0  0  0  0  0  0  0  0  0  0  0
   10.3021   -7.4252   -0.0000 C   0  0  0  0  0  0  0  0  0  0  0  0
   12.9045   -4.3930   -0.0000 O   0  0  0  0  0  0  0  0  0  0  0  0
   11.6033   -6.6612   -0.0000 C   0  0  0  0  0  0  0  0  0  0  0  0
   10.2902   -8.9174   -0.0000 C   0  0  0  0  0  0  0  0  0  0  0  0
   12.8926   -2.8770   -0.0000 C   0  0  0  0  0  0  0  0  0  0  0  0
   11.5794   -9.6694   -0.0000 C   0  0  0  0  0  0  0  0  0  0  0  0
   14.1818   -2.1130   -0.0000 C   0  0  0  0  0  0  0  0  0  0  0  0
   12.8806   -8.9054   -0.0000 C   0  0  0  0  0  0  0  0  0  0  0  0
   14.1699   -0.5969   -0.0000 O   0  0  0  0  0  0  0  0  0  0  0  0
   14.1699   -9.6575   -0.0000 O   0  0  0  0  0  0  0  0  0  0  0  0
   15.4592    0.1671   -0.0000 C   0  0  0  0  0  0  0  0  0  0  0  0
   15.4711   -8.8935   -0.0000 C   0  0  0  0  0  0  0  0  0  0  0  0
  1  2  1  0  0  0  0
  2  3  2  0  0  0  0
  2  4  1  0  0  0  0
  3  5  1  0  0  0  0
  3  6  1  0  0  0  0
  4  7  2  0  0  0  0
  6  8  2  0  0  0  0
  7  9  1  0  0  0  0
  9 10  1  0  0  0  0
  9 11  1  0  0  0  0
  9 12  1  0  0  0  0
 11 13  1  0  0  0  0
 11 14  1  0  0  0  0
 12 15  1  0  0  0  0
 13 16  2  0  0  0  0
 13 17  1  0  0  0  0
 14 18  1  0  0  0  0
 17 19  1  0  0  0  0
 17 20  1  0  0  0  0
 19 21  1  0  0  0  0
 19 22  1  0  0  0  0
 20 23  1  0  0  0  0
 23 24  2  0  0  0  0
 23 25  1  0  0  0  0
 24 26  1  0  0  0  0
 25 27  2  0  0  0  0
 26 28  1  0  0  0  0
 26 29  2  0  0  0  0
 27 30  1  0  0  0  0
 28 31  1  0  0  0  0
 30 32  1  0  0  0  0
 31 33  1  0  0  0  0
 32 34  1  0  0  0  0
 33 35  1  0  0  0  0
 34 36  1  0  0  0  0
 35 37  1  0  0  0  0
 36 38  1  0  0  0  0
  7  8  1  0  0  0  0
 15 18  1  0  0  0  0
 21 22  1  0  0  0  0
 27 29  1  0  0  0  0
M  END
>  <MolRegNo>
1249886

>  <m>
=

>  <Value>
900

>  <Unit>
nM

>  <Type>
IC50

>  <pValue>
6.05

>  <Ligand Efficiency>
0

>  <Binding Efficiency>
0

>  <Surface Efficiency>
0

>  <Assay Index>
618837

>  <Assay Category>


>  <Assay Organism>


>  <Target ID>
17045

>  <Target Name>
Cytochrome P450 3A4

>  <Target Organism>
Homo sapiens

>  <Target Description>
Target is a single protein chain

>  <Sequence Accession>
P08684

>  <Reference>
Bioorg Med Chem Lett 21 (13), 3976-3981 (2011)

>  <Pubmed ID>
21641209

>  <DOI>
10.1016/j.bmcl.2011.05.014

$$$$
1263013
Actelion Java MolfileCreator 1.0

 27 30  0  0  0  0  0  0  0  0999 V2000
    0.0000   -0.0000   -0.0000 Br  0  0  0  0  0  0  0  0  0  0  0  0
   -0.7582   -1.2794   -0.0000 C   0  0  0  0  0  0  0  0  0  0  0  0
   -2.2627   -1.2676   -0.0000 C   0  0  0  0  0  0  0  0  0  0  0  0
   -0.0237   -2.5826   -0.0000 C   0  0  0  0  0  0  0  0  0  0  0  0
   -3.0209   -2.5470   -0.0000 C   0  0  0  0  0  0  0  0  0  0  0  0
   -0.7937   -3.8739   -0.0000 C   0  0  0  0  0  0  0  0  0  0  0  0
   -2.2983   -3.8383   -0.0000 C   0  0  0  0  0  0  0  0  0  0  0  0
   -4.5373   -2.5233   -0.0000 C   0  0  0  0  0  0  0  0  0  0  0  0
   -3.0683   -5.1178   -0.0000 O   0  0  0  0  0  0  0  0  0  0  0  0
   -5.4258   -1.3031   -0.0000 N   0  0  0  0  0  0  0  0  0  0  0  0
   -5.4376   -3.7199   -0.0000 C   0  0  0  0  0  0  0  0  0  0  0  0
   -4.5728   -5.0941   -0.0000 C   0  0  0  0  0  0  0  0  0  0  0  0
   -6.8711   -1.7415   -0.0000 C   0  0  0  0  0  0  0  0  0  0  0  0
   -6.8711   -3.2341   -0.0000 S   0  0  0  0  0  0  0  0  0  0  0  0
   -8.0913   -0.8411   -0.0000 N   0  0  0  0  0  0  0  0  0  0  0  0
   -9.3944   -1.5756   -0.0000 C   0  0  0  0  0  0  0  0  0  0  0  0
   -9.4063   -3.0683   -0.0000 C   0  0  0  0  0  0  0  0  0  0  0  0
  -10.6976   -0.8174   -0.0000 C   0  0  0  0  0  0  0  0  0  0  0  0
  -10.7213   -3.8028   -0.0000 C   0  0  0  0  0  0  0  0  0  0  0  0
  -12.0007   -1.5519   -0.0000 C   0  0  0  0  0  0  0  0  0  0  0  0
  -12.0244   -3.0446   -0.0000 C   0  0  0  0  0  0  0  0  0  0  0  0
  -13.2446   -3.8976   -0.0000 N   0  0  0  0  0  0  0  0  0  0  0  0
  -13.2565   -5.3784   -0.0000 C   0  0  0  0  0  0  0  0  0  0  0  0
  -14.6781   -3.4237   -0.0000 C   0  0  0  0  0  0  0  0  0  0  0  0
  -14.6899   -5.8286   -0.0000 N   0  0  0  0  0  0  0  0  0  0  0  0
  -15.5784   -4.6202   -0.0000 C   0  0  0  0  0  0  0  0  0  0  0  0
  -17.0829   -4.6084   -0.0000 C   0  0  0  0  0  0  0  0  0  0  0  0
  1  2  1  0  0  0  0
  2  3  2  0  0  0  0
  2  4  1  0  0  0  0
  3  5  1  0  0  0  0
  4  6  2  0  0  0  0
  5  7  2  0  0  0  0
  5  8  1  0  0  0  0
  7  9  1  0  0  0  0
  8 10  1  0  0  0  0
  8 11  2  0  0  0  0
  9 12  1  0  0  0  0
 10 13  2  0  0  0  0
 11 14  1  0  0  0  0
 13 15  1  0  0  0  0
 15 16  1  0  0  0  0
 16 17  2  0  0  0  0
 16 18  1  0  0  0  0
 17 19  1  0  0  0  0
 18 20  2  0  0  0  0
 19 21  2  0  0  0  0
 21 22  1  0  0  0  0
 22 23  1  0  0  0  0
 22 24  1  0  0  0  0
 23 25  2  0  0  0  0
 24 26  2  0  0  0  0
 26 27  1  0  0  0  0
  6  7  1  0  0  0  0
 13 14  1  0  0  0  0
 20 21  1  0  0  0  0
 25 26  1  0  0  0  0
M  END
>  <MolRegNo>
1263013

>  <m>
=

>  <Value>
1200

>  <Unit>
nM

>  <Type>
IC50

>  <pValue>
5.92

>  <Ligand Efficiency>
0

>  <Binding Efficiency>
0

>  <Surface Efficiency>
0

>  <Assay Index>
619803

>  <Assay Category>


>  <Assay Organism>


>  <Target ID>
17045

>  <Target Name>
Cytochrome P450 3A4

>  <Target Organism>
Homo sapiens

>  <Target Description>
Target is a single protein chain

>  <Sequence Accession>
P08684

>  <Reference>
Bioorg Med Chem Lett 21 (21), 6554-6558 (2011)

>  <Pubmed ID>
21924610

>  <DOI>
10.1016/j.bmcl.2011.08.060

$$$$
1263014
Actelion Java MolfileCreator 1.0

 29 32  0  0  0  0  0  0  0  0999 V2000
    0.0000   -0.0000   -0.0000 Br  0  0  0  0  0  0  0  0  0  0  0  0
   -0.7582   -1.2794   -0.0000 C   0  0  0  0  0  0  0  0  0  0  0  0
   -2.2626   -1.2675   -0.0000 C   0  0  0  0  0  0  0  0  0  0  0  0
   -0.0237   -2.5825   -0.0000 C   0  0  0  0  0  0  0  0  0  0  0  0
   -3.0208   -2.5469   -0.0000 C   0  0  0  0  0  0  0  0  0  0  0  0
   -0.7937   -3.8737   -0.0000 C   0  0  0  0  0  0  0  0  0  0  0  0
   -2.2982   -3.8382   -0.0000 C   0  0  0  0  0  0  0  0  0  0  0  0
   -4.5371   -2.5232   -0.0000 C   0  0  0  0  0  0  0  0  0  0  0  0
   -3.0682   -5.1176   -0.0000 O   0  0  0  0  0  0  0  0  0  0  0  0
   -5.4256   -1.3031   -0.0000 N   0  0  0  0  0  0  0  0  0  0  0  0
   -5.4374   -3.7197   -0.0000 C   0  0  0  0  0  0  0  0  0  0  0  0
   -4.5726   -5.0939   -0.0000 C   0  0  0  0  0  0  0  0  0  0  0  0
   -6.8708   -1.7414   -0.0000 C   0  0  0  0  0  0  0  0  0  0  0  0
   -6.8708   -3.2340   -0.0000 S   0  0  0  0  0  0  0  0  0  0  0  0
   -8.0910   -0.8411   -0.0000 N   0  0  0  0  0  0  0  0  0  0  0  0
   -9.3941   -1.5755   -0.0000 C   0  0  0  0  0  0  0  0  0  0  0  0
  -10.6972   -0.8174   -0.0000 C   0  0  0  0  0  0  0  0  0  0  0  0
   -9.4059   -3.0682   -0.0000 C   0  0  0  0  0  0  0  0  0  0  0  0
  -12.0002   -1.5519   -0.0000 C   0  0  0  0  0  0  0  0  0  0  0  0
  -10.7208   -3.8026   -0.0000 C   0  0  0  0  0  0  0  0  0  0  0  0
  -13.3033   -0.7937   -0.0000 O   0  0  0  0  0  0  0  0  0  0  0  0
  -12.0121   -3.0445   -0.0000 C   0  0  0  0  0  0  0  0  0  0  0  0
  -13.3152    0.7108   -0.0000 C   0  0  0  0  0  0  0  0  0  0  0  0
  -13.2322   -3.8974   -0.0000 N   0  0  0  0  0  0  0  0  0  0  0  0
  -13.2441   -5.3782   -0.0000 C   0  0  0  0  0  0  0  0  0  0  0  0
  -14.6656   -3.4236   -0.0000 C   0  0  0  0  0  0  0  0  0  0  0  0
  -14.6775   -5.8283   -0.0000 N   0  0  0  0  0  0  0  0  0  0  0  0
  -15.5660   -4.6200   -0.0000 C   0  0  0  0  0  0  0  0  0  0  0  0
  -17.0704   -4.6082   -0.0000 C   0  0  0  0  0  0  0  0  0  0  0  0
  1  2  1  0  0  0  0
  2  3  2  0  0  0  0
  2  4  1  0  0  0  0
  3  5  1  0  0  0  0
  4  6  2  0  0  0  0
  5  7  2  0  0  0  0
  5  8  1  0  0  0  0
  7  9  1  0  0  0  0
  8 10  1  0  0  0  0
  8 11  2  0  0  0  0
  9 12  1  0  0  0  0
 10 13  2  0  0  0  0
 11 14  1  0  0  0  0
 13 15  1  0  0  0  0
 15 16  1  0  0  0  0
 16 17  2  0  0  0  0
 16 18  1  0  0  0  0
 17 19  1  0  0  0  0
 18 20  2  0  0  0  0
 19 21  1  0  0  0  0
 19 22  2  0  0  0  0
 21 23  1  0  0  0  0
 22 24  1  0  0  0  0
 24 25  1  0  0  0  0
 24 26  1  0  0  0  0
 25 27  2  0  0  0  0
 26 28  2  0  0  0  0
 28 29  1  0  0  0  0
  6  7  1  0  0  0  0
 13 14  1  0  0  0  0
 20 22  1  0  0  0  0
 27 28  1  0  0  0  0
M  END
>  <MolRegNo>
1263014

>  <m>
=

>  <Value>
2200

>  <Unit>
nM

>  <Type>
IC50

>  <pValue>
5.66

>  <Ligand Efficiency>
0

>  <Binding Efficiency>
0

>  <Surface Efficiency>
0

>  <Assay Index>
619803

>  <Assay Category>


>  <Assay Organism>


>  <Target ID>
17045

>  <Target Name>
Cytochrome P450 3A4

>  <Target Organism>
Homo sapiens

>  <Target Description>
Target is a single protein chain

>  <Sequence Accession>
P08684

>  <Reference>
Bioorg Med Chem Lett 21 (21), 6554-6558 (2011)

>  <Pubmed ID>
21924610

>  <DOI>
10.1016/j.bmcl.2011.08.060

$$$$
1264159
Actelion Java MolfileCreator 1.0

 36 38  0  0  0  0  0  0  0  0999 V2000
    0.0000   -0.0000   -0.0000 F   0  0  0  0  0  0  0  0  0  0  0  0
    1.2893   -0.7401   -0.0000 C   0  0  0  0  0  0  0  0  0  0  0  0
    1.2773   -2.2324   -0.0000 F   0  0  0  0  0  0  0  0  0  0  0  0
   -0.0358   -1.4683   -0.0000 F   0  0  0  0  0  0  0  0  0  0  0  0
    2.5786    0.0239   -0.0000 C   0  0  0  0  0  0  0  0  0  0  0  0
    3.8678   -0.7163   -0.0000 C   0  0  0  0  0  0  0  0  0  0  0  0
    2.5666    1.5519   -0.0000 C   0  0  0  0  0  0  0  0  0  0  0  0
    5.1690    0.0478   -0.0000 C   0  0  0  0  0  0  0  0  0  0  0  0
    3.8559    2.3159   -0.0000 C   0  0  0  0  0  0  0  0  0  0  0  0
    5.1571    1.5758   -0.0000 C   0  0  0  0  0  0  0  0  0  0  0  0
    6.4583   -0.6924   -0.0000 C   0  0  0  0  0  0  0  0  0  0  0  0
    6.4464    2.3398   -0.0000 C   0  0  0  0  0  0  0  0  0  0  0  0
    6.4464   -2.1846   -0.0000 N   0  0  0  0  0  0  0  0  0  0  0  0
    6.4225    3.8559   -0.0000 C   0  0  0  0  0  0  0  0  0  0  0  0
    7.7476    1.5997   -0.0000 C   0  0  0  0  0  0  0  0  0  0  0  0
    7.7357   -2.9248   -0.0000 C   0  0  0  0  0  0  0  0  0  0  0  0
    5.1332   -2.9248   -0.0000 C   0  0  0  0  0  0  0  0  0  0  0  0
    5.1094    4.6080   -0.0000 O   0  0  0  0  0  0  0  0  0  0  0  0
    7.6999    4.6318   -0.0000 C   0  0  0  0  0  0  0  0  0  0  0  0
    9.0369    2.3637   -0.0000 C   0  0  0  0  0  0  0  0  0  0  0  0
    9.0249   -2.1607   -0.0000 O   0  0  0  0  0  0  0  0  0  0  0  0
    7.7237   -4.4170   -0.0000 O   0  0  0  0  0  0  0  0  0  0  0  0
    5.1094   -4.4170   -0.0000 C   0  0  0  0  0  0  0  0  0  0  0  0
    3.7962    3.8559   -0.0000 C   0  0  0  0  0  0  0  0  0  0  0  0
    9.0011    3.8917   -0.0000 C   0  0  0  0  0  0  0  0  0  0  0  0
   10.3262    1.6235   -0.0000 C   0  0  0  0  0  0  0  0  0  0  0  0
    9.0130   -5.1571   -0.0000 C   0  0  0  0  0  0  0  0  0  0  0  0
   11.6154    2.3876   -0.0000 C   0  0  0  0  0  0  0  0  0  0  0  0
    9.0011   -6.6493   -0.0000 C   0  0  0  0  0  0  0  0  0  0  0  0
   12.9047    1.6474   -0.0000 O   0  0  0  0  0  0  0  0  0  0  0  0
   11.6035    3.9036   -0.0000 O   0  0  0  0  0  0  0  0  0  0  0  0
    7.6879   -7.3895   -0.0000 C   0  0  0  0  0  0  0  0  0  0  0  0
   10.2903   -7.3775   -0.0000 C   0  0  0  0  0  0  0  0  0  0  0  0
    7.6760   -8.8817   -0.0000 C   0  0  0  0  0  0  0  0  0  0  0  0
   10.2903   -8.8698   -0.0000 C   0  0  0  0  0  0  0  0  0  0  0  0
    8.9653   -9.6218   -0.0000 C   0  0  0  0  0  0  0  0  0  0  0  0
  1  2  1  0  0  0  0
  2  3  1  0  0  0  0
  2  4  1  0  0  0  0
  2  5  1  0  0  0  0
  5  6  2  0  0  0  0
  5  7  1  0  0  0  0
  6  8  1  0  0  0  0
  7  9  2  0  0  0  0
  8 10  2  0  0  0  0
  8 11  1  0  0  0  0
 10 12  1  0  0  0  0
 11 13  1  0  0  0  0
 12 14  2  0  0  0  0
 12 15  1  0  0  0  0
 13 16  1  0  0  0  0
 13 17  1  0  0  0  0
 14 18  1  0  0  0  0
 14 19  1  0  0  0  0
 15 20  2  0  0  0  0
 16 21  2  0  0  0  0
 16 22  1  0  0  0  0
 17 23  1  0  0  0  0
 18 24  1  0  0  0  0
 19 25  2  0  0  0  0
 20 26  1  0  0  0  0
 22 27  1  0  0  0  0
 26 28  1  0  0  0  0
 27 29  1  0  0  0  0
 28 30  2  0  0  0  0
 28 31  1  0  0  0  0
 29 32  2  0  0  0  0
 29 33  1  0  0  0  0
 32 34  1  0  0  0  0
 33 35  2  0  0  0  0
 34 36  2  0  0  0  0
  9 10  1  0  0  0  0
 20 25  1  0  0  0  0
 35 36  1  0  0  0  0
M  END
>  <MolRegNo>
1264159

>  <m>
=

>  <Value>
18000

>  <Unit>
nM

>  <Type>
IC50

>  <pValue>
4.75

>  <Ligand Efficiency>
0

>  <Binding Efficiency>
0

>  <Surface Efficiency>
0

>  <Assay Index>
622987

>  <Assay Category>


>  <Assay Organism>
Homo sapiens

>  <Target ID>
17045

>  <Target Name>
Cytochrome P450 3A4

>  <Target Organism>
Homo sapiens

>  <Target Description>
Target is a single protein chain

>  <Sequence Accession>
P08684

>  <Reference>
Bioorg Med Chem Lett 21 (21), 6608-6612 (2011)

>  <Pubmed ID>
21958540

>  <DOI>
10.1016/j.bmcl.2011.01.024

$$$$
1264167
Actelion Java MolfileCreator 1.0

 37 39  0  0  0  0  0  0  0  0999 V2000
    0.0000   -0.0000   -0.0000 Cl  0  0  0  0  0  0  0  0  0  0  0  0
   -0.0119    1.5059   -0.0000 C   0  0  0  0  0  0  0  0  0  0  0  0
   -1.3162    2.2648   -0.0000 C   0  0  0  0  0  0  0  0  0  0  0  0
    1.2806    2.2767   -0.0000 C   0  0  0  0  0  0  0  0  0  0  0  0
   -1.3281    3.7707   -0.0000 C   0  0  0  0  0  0  0  0  0  0  0  0
    1.2569    3.7826   -0.0000 C   0  0  0  0  0  0  0  0  0  0  0  0
   -0.0474    4.5296   -0.0000 C   0  0  0  0  0  0  0  0  0  0  0  0
   -0.0593    6.0356   -0.0000 C   0  0  0  0  0  0  0  0  0  0  0  0
   -1.3636    6.7944   -0.0000 O   0  0  0  0  0  0  0  0  0  0  0  0
   -1.3755    8.3004   -0.0000 C   0  0  0  0  0  0  0  0  0  0  0  0
   -0.0949    9.0593   -0.0000 O   0  0  0  0  0  0  0  0  0  0  0  0
   -2.6798    9.0593   -0.0000 N   0  0  0  0  0  0  0  0  0  0  0  0
   -2.6917   10.5652   -0.0000 C   0  0  0  0  0  0  0  0  0  0  0  0
   -3.9842    8.3241   -0.0000 C   0  0  0  0  0  0  0  0  0  0  0  0
   -3.9960   11.3241   -0.0000 C   0  0  0  0  0  0  0  0  0  0  0  0
   -4.0079    6.8419   -0.0000 C   0  0  0  0  0  0  0  0  0  0  0  0
   -4.0079   12.8419   -0.0000 C   0  0  0  0  0  0  0  0  0  0  0  0
   -5.3122   10.5889   -0.0000 C   0  0  0  0  0  0  0  0  0  0  0  0
   -2.7273   13.6007   -0.0000 C   0  0  0  0  0  0  0  0  0  0  0  0
   -5.3122   13.6007   -0.0000 C   0  0  0  0  0  0  0  0  0  0  0  0
   -6.6166   11.3478   -0.0000 C   0  0  0  0  0  0  0  0  0  0  0  0
   -2.7510   15.1067   -0.0000 C   0  0  0  0  0  0  0  0  0  0  0  0
   -1.4348   12.8656   -0.0000 C   0  0  0  0  0  0  0  0  0  0  0  0
   -6.6166   12.8656   -0.0000 C   0  0  0  0  0  0  0  0  0  0  0  0
   -7.9209   10.6126   -0.0000 C   0  0  0  0  0  0  0  0  0  0  0  0
   -4.0553   15.8537   -0.0000 O   0  0  0  0  0  0  0  0  0  0  0  0
   -1.4822   15.8774   -0.0000 C   0  0  0  0  0  0  0  0  0  0  0  0
   -0.1541   13.6245   -0.0000 C   0  0  0  0  0  0  0  0  0  0  0  0
   -9.2253   11.3715   -0.0000 F   0  0  0  0  0  0  0  0  0  0  0  0
   -7.9328    9.1304   -0.0000 F   0  0  0  0  0  0  0  0  0  0  0  0
   -9.2371    9.8893   -0.0000 F   0  0  0  0  0  0  0  0  0  0  0  0
   -5.3597   15.1067   -0.0000 C   0  0  0  0  0  0  0  0  0  0  0  0
   -0.1897   15.1422   -0.0000 C   0  0  0  0  0  0  0  0  0  0  0  0
    1.1265   12.8893   -0.0000 C   0  0  0  0  0  0  0  0  0  0  0  0
    2.4071   13.6482   -0.0000 C   0  0  0  0  0  0  0  0  0  0  0  0
    3.6877   12.9130   -0.0000 O   0  0  0  0  0  0  0  0  0  0  0  0
    2.3952   15.1541   -0.0000 O   0  0  0  0  0  0  0  0  0  0  0  0
  1  2  1  0  0  0  0
  2  3  2  0  0  0  0
  2  4  1  0  0  0  0
  3  5  1  0  0  0  0
  4  6  2  0  0  0  0
  5  7  2  0  0  0  0
  7  8  1  0  0  0  0
  8  9  1  0  0  0  0
  9 10  1  0  0  0  0
 10 11  2  0  0  0  0
 10 12  1  0  0  0  0
 12 13  1  0  0  0  0
 12 14  1  0  0  0  0
 13 15  1  0  0  0  0
 14 16  1  0  0  0  0
 15 17  2  0  0  0  0
 15 18  1  0  0  0  0
 17 19  1  0  0  0  0
 17 20  1  0  0  0  0
 18 21  2  0  0  0  0
 19 22  2  0  0  0  0
 19 23  1  0  0  0  0
 20 24  2  0  0  0  0
 21 25  1  0  0  0  0
 22 26  1  0  0  0  0
 22 27  1  0  0  0  0
 23 28  2  0  0  0  0
 25 29  1  0  0  0  0
 25 30  1  0  0  0  0
 25 31  1  0  0  0  0
 26 32  1  0  0  0  0
 27 33  2  0  0  0  0
 28 34  1  0  0  0  0
 34 35  1  0  0  0  0
 35 36  2  0  0  0  0
 35 37  1  0  0  0  0
  6  7  1  0  0  0  0
 21 24  1  0  0  0  0
 28 33  1  0  0  0  0
M  END
>  <MolRegNo>
1264167

>  <m>
=

>  <Value>
21000

>  <Unit>
nM

>  <Type>
IC50

>  <pValue>
4.68

>  <Ligand Efficiency>
0

>  <Binding Efficiency>
0

>  <Surface Efficiency>
0

>  <Assay Index>
622987

>  <Assay Category>


>  <Assay Organism>
Homo sapiens

>  <Target ID>
17045

>  <Target Name>
Cytochrome P450 3A4

>  <Target Organism>
Homo sapiens

>  <Target Description>
Target is a single protein chain

>  <Sequence Accession>
P08684

>  <Reference>
Bioorg Med Chem Lett 21 (21), 6608-6612 (2011)

>  <Pubmed ID>
21958540

>  <DOI>
10.1016/j.bmcl.2011.01.024

$$$$
1265565
Actelion Java MolfileCreator 1.0

 24 26  0  0  0  0  0  0  0  0999 V2000
    0.0000   -0.0000   -0.0000 O   0  0  0  0  0  0  0  0  0  0  0  0
   -0.0119    1.5179   -0.0000 C   0  0  0  0  0  0  0  0  0  0  0  0
   -1.3281    2.2768   -0.0000 N   0  0  0  0  0  0  0  0  0  0  0  0
    1.2807    2.2768   -0.0000 C   0  0  0  0  0  0  0  0  0  0  0  0
   -2.6444    1.5416   -0.0000 C   0  0  0  0  0  0  0  0  0  0  0  0
    2.5733    1.5416   -0.0000 C   0  0  0  0  0  0  0  0  0  0  0  0
    1.2688    3.7947   -0.0000 C   0  0  0  0  0  0  0  0  0  0  0  0
    3.8658    2.3124   -0.0000 C   0  0  0  0  0  0  0  0  0  0  0  0
    2.5495    4.5536   -0.0000 C   0  0  0  0  0  0  0  0  0  0  0  0
    3.8540    3.8303   -0.0000 C   0  0  0  0  0  0  0  0  0  0  0  0
    5.1584    1.5772   -0.0000 C   0  0  0  0  0  0  0  0  0  0  0  0
    5.1347    4.6010   -0.0000 C   0  0  0  0  0  0  0  0  0  0  0  0
    6.4510    2.3480   -0.0000 C   0  0  0  0  0  0  0  0  0  0  0  0
    6.4272    3.8658   -0.0000 C   0  0  0  0  0  0  0  0  0  0  0  0
    7.7079    4.6366   -0.0000 C   0  0  0  0  0  0  0  0  0  0  0  0
    6.6288    5.7157   -0.0000 O   0  0  0  0  0  0  0  0  0  0  0  0
    8.9294    3.7947   -0.0000 C   0  0  0  0  0  0  0  0  0  0  0  0
    8.4313    5.9529   -0.0000 C   0  0  0  0  0  0  0  0  0  0  0  0
   10.3286    4.3046   -0.0000 N   0  0  0  0  0  0  0  0  0  0  0  0
    8.9412    2.3124   -0.0000 C   0  0  0  0  0  0  0  0  0  0  0  0
    9.9255    5.9766   -0.0000 C   0  0  0  0  0  0  0  0  0  0  0  0
    7.6605    7.2573   -0.0000 C   0  0  0  0  0  0  0  0  0  0  0  0
   11.2299    3.1188   -0.0000 C   0  0  0  0  0  0  0  0  0  0  0  0
   10.3642    1.8973   -0.0000 N   0  0  0  0  0  0  0  0  0  0  0  0
  1  2  2  0  0  0  0
  2  3  1  0  0  0  0
  2  4  1  0  0  0  0
  3  5  1  0  0  0  0
  4  6  2  0  0  0  0
  4  7  1  0  0  0  0
  6  8  1  0  0  0  0
  7  9  2  0  0  0  0
  8 10  1  0  0  0  0
  8 11  2  0  0  0  0
 10 12  2  0  0  0  0
 11 13  1  0  0  0  0
 12 14  1  0  0  0  0
 14 15  1  0  0  0  0
 15 16  1  1  0  0  0
 15 17  1  0  0  0  0
 15 18  1  0  0  0  0
 17 19  1  0  0  0  0
 17 20  2  0  0  0  0
 18 21  1  0  0  0  0
 18 22  1  0  0  0  0
 19 23  2  0  0  0  0
 20 24  1  0  0  0  0
  9 10  1  0  0  0  0
 13 14  2  0  0  0  0
 23 24  1  0  0  0  0
M  END
>  <MolRegNo>
1265565

>  <m>
=

>  <Value>
7800

>  <Unit>
nM

>  <Type>
IC50

>  <pValue>
5.11

>  <Ligand Efficiency>
0

>  <Binding Efficiency>
0

>  <Surface Efficiency>
0

>  <Assay Index>
624498

>  <Assay Category>


>  <Assay Organism>


>  <Target ID>
17045

>  <Target Name>
Cytochrome P450 3A4

>  <Target Organism>
Homo sapiens

>  <Target Description>
Target is a single protein chain

>  <Sequence Accession>
P08684

>  <Reference>
Bioorg Med Chem 19 (21), 6383-6399 (2011)

>  <Pubmed ID>
21978946

>  <DOI>
10.1016/j.bmc.2011.08.066

$$$$
1265568
Actelion Java MolfileCreator 1.0

 25 28  0  0  0  0  0  0  0  0999 V2000
    0.0000   -0.0000   -0.0000 O   0  0  0  0  0  0  0  0  0  0  0  0
   -0.0119    1.5059   -0.0000 C   0  0  0  0  0  0  0  0  0  0  0  0
   -1.3162    2.2648   -0.0000 N   0  0  0  0  0  0  0  0  0  0  0  0
    1.2806    2.2648   -0.0000 C   0  0  0  0  0  0  0  0  0  0  0  0
   -1.3280    3.7707   -0.0000 C   0  0  0  0  0  0  0  0  0  0  0  0
    2.5731    1.5296   -0.0000 C   0  0  0  0  0  0  0  0  0  0  0  0
    1.2687    3.7825   -0.0000 C   0  0  0  0  0  0  0  0  0  0  0  0
    3.8655    2.3003   -0.0000 C   0  0  0  0  0  0  0  0  0  0  0  0
    2.5493    4.5414   -0.0000 C   0  0  0  0  0  0  0  0  0  0  0  0
    3.8537    3.8181   -0.0000 C   0  0  0  0  0  0  0  0  0  0  0  0
    5.1580    1.5652   -0.0000 C   0  0  0  0  0  0  0  0  0  0  0  0
    5.1343    4.5770   -0.0000 C   0  0  0  0  0  0  0  0  0  0  0  0
    6.4504    2.3359   -0.0000 C   0  0  0  0  0  0  0  0  0  0  0  0
    6.4267    3.8537   -0.0000 C   0  0  0  0  0  0  0  0  0  0  0  0
    7.6006    4.7785   -0.0000 C   0  0  0  0  0  0  0  0  0  0  0  0
    6.2844    5.5493   -0.0000 O   0  0  0  0  0  0  0  0  0  0  0  0
    9.0354    4.3635   -0.0000 C   0  0  0  0  0  0  0  0  0  0  0  0
    7.5532    6.2844   -0.0000 C   0  0  0  0  0  0  0  0  0  0  0  0
    9.8654    5.6086   -0.0000 N   0  0  0  0  0  0  0  0  0  0  0  0
    9.9365    3.1896   -0.0000 C   0  0  0  0  0  0  0  0  0  0  0  0
    8.9523    6.7943   -0.0000 C   0  0  0  0  0  0  0  0  0  0  0  0
    6.0829    6.6994   -0.0000 C   0  0  0  0  0  0  0  0  0  0  0  0
    7.5295    7.8022   -0.0000 C   0  0  0  0  0  0  0  0  0  0  0  0
   11.2883    5.1935   -0.0000 C   0  0  0  0  0  0  0  0  0  0  0  0
   11.3357    3.6995   -0.0000 N   0  0  0  0  0  0  0  0  0  0  0  0
  1  2  2  0  0  0  0
  2  3  1  0  0  0  0
  2  4  1  0  0  0  0
  3  5  1  0  0  0  0
  4  6  2  0  0  0  0
  4  7  1  0  0  0  0
  6  8  1  0  0  0  0
  7  9  2  0  0  0  0
  8 10  1  0  0  0  0
  8 11  2  0  0  0  0
 10 12  2  0  0  0  0
 11 13  1  0  0  0  0
 12 14  1  0  0  0  0
 14 15  1  0  0  0  0
 15 16  1  0  0  0  0
 15 17  1  0  0  0  0
 15 18  1  0  0  0  0
 17 19  1  0  0  0  0
 17 20  2  0  0  0  0
 18 21  1  0  0  0  0
 18 22  1  0  0  0  0
 18 23  1  0  0  0  0
 19 24  1  0  0  0  0
 20 25  1  0  0  0  0
  9 10  1  0  0  0  0
 13 14  2  0  0  0  0
 19 21  1  0  0  0  0
 24 25  2  0  0  0  0
M  END
>  <MolRegNo>
1265568

>  <m>
=

>  <Value>
3200

>  <Unit>
nM

>  <Type>
IC50

>  <pValue>
5.5

>  <Ligand Efficiency>
0

>  <Binding Efficiency>
0

>  <Surface Efficiency>
0

>  <Assay Index>
624501

>  <Assay Category>


>  <Assay Organism>
Homo sapiens

>  <Target ID>
17045

>  <Target Name>
Cytochrome P450 3A4

>  <Target Organism>
Homo sapiens

>  <Target Description>
Target is a single protein chain

>  <Sequence Accession>
P08684

>  <Reference>
Bioorg Med Chem 19 (21), 6383-6399 (2011)

>  <Pubmed ID>
21978946

>  <DOI>
10.1016/j.bmc.2011.08.066

$$$$
1265570
Actelion Java MolfileCreator 1.0

 23 25  0  0  0  0  0  0  0  0999 V2000
    0.0000   -0.0000   -0.0000 O   0  0  0  0  0  0  0  0  0  0  0  0
   -0.0118    1.5161   -0.0000 C   0  0  0  0  0  0  0  0  0  0  0  0
   -1.3266    2.2741   -0.0000 N   0  0  0  0  0  0  0  0  0  0  0  0
    1.2792    2.2741   -0.0000 C   0  0  0  0  0  0  0  0  0  0  0  0
   -1.3384    3.7902   -0.0000 C   0  0  0  0  0  0  0  0  0  0  0  0
    2.5702    1.5398   -0.0000 C   0  0  0  0  0  0  0  0  0  0  0  0
    1.2673    3.7902   -0.0000 C   0  0  0  0  0  0  0  0  0  0  0  0
    3.8612    2.3096   -0.0000 C   0  0  0  0  0  0  0  0  0  0  0  0
    2.5465    4.5482   -0.0000 C   0  0  0  0  0  0  0  0  0  0  0  0
    3.8494    3.8257   -0.0000 C   0  0  0  0  0  0  0  0  0  0  0  0
    5.1522    1.5753   -0.0000 C   0  0  0  0  0  0  0  0  0  0  0  0
    5.1286    4.5956   -0.0000 C   0  0  0  0  0  0  0  0  0  0  0  0
    6.4433    2.3452   -0.0000 C   0  0  0  0  0  0  0  0  0  0  0  0
    6.4196    3.8612   -0.0000 C   0  0  0  0  0  0  0  0  0  0  0  0
    7.6988    4.6311   -0.0000 C   0  0  0  0  0  0  0  0  0  0  0  0
    6.9999    5.9813   -0.0000 O   0  0  0  0  0  0  0  0  0  0  0  0
    8.9069    3.7665   -0.0000 C   0  0  0  0  0  0  0  0  0  0  0  0
    8.4923    5.9103   -0.0000 C   0  0  0  0  0  0  0  0  0  0  0  0
   10.3282    4.2521   -0.0000 N   0  0  0  0  0  0  0  0  0  0  0  0
    8.9069    2.2859   -0.0000 C   0  0  0  0  0  0  0  0  0  0  0  0
   11.2047    3.0558   -0.0000 C   0  0  0  0  0  0  0  0  0  0  0  0
   10.7664    5.6971   -0.0000 C   0  0  0  0  0  0  0  0  0  0  0  0
   10.3282    1.8359   -0.0000 N   0  0  0  0  0  0  0  0  0  0  0  0
  1  2  2  0  0  0  0
  2  3  1  0  0  0  0
  2  4  1  0  0  0  0
  3  5  1  0  0  0  0
  4  6  2  0  0  0  0
  4  7  1  0  0  0  0
  6  8  1  0  0  0  0
  7  9  2  0  0  0  0
  8 10  1  0  0  0  0
  8 11  2  0  0  0  0
 10 12  2  0  0  0  0
 11 13  1  0  0  0  0
 12 14  1  0  0  0  0
 14 15  1  0  0  0  0
 15 16  1  0  0  0  0
 15 17  1  0  0  0  0
 15 18  1  0  0  0  0
 17 19  1  0  0  0  0
 17 20  2  0  0  0  0
 19 21  1  0  0  0  0
 19 22  1  0  0  0  0
 20 23  1  0  0  0  0
  9 10  1  0  0  0  0
 13 14  2  0  0  0  0
 21 23  2  0  0  0  0
M  END
>  <MolRegNo>
1265570

>  <m>
=

>  <Value>
6900

>  <Unit>
nM

>  <Type>
IC50

>  <pValue>
5.16

>  <Ligand Efficiency>
0

>  <Binding Efficiency>
0

>  <Surface Efficiency>
0

>  <Assay Index>
624501

>  <Assay Category>


>  <Assay Organism>
Homo sapiens

>  <Target ID>
17045

>  <Target Name>
Cytochrome P450 3A4

>  <Target Organism>
Homo sapiens

>  <Target Description>
Target is a single protein chain

>  <Sequence Accession>
P08684

>  <Reference>
Bioorg Med Chem 19 (21), 6383-6399 (2011)

>  <Pubmed ID>
21978946

>  <DOI>
10.1016/j.bmc.2011.08.066

$$$$
1266259
Actelion Java MolfileCreator 1.0

 44 48  0  0  0  0  0  0  0  0999 V2000
    0.0000   -0.0000   -0.0000 S   0  0  0  0  0  0  0  0  0  0  0  0
   -0.4772   -1.4198   -0.0000 C   0  0  0  0  0  0  0  0  0  0  0  0
    1.4556    0.3221   -0.0000 C   0  0  0  0  0  0  0  0  0  0  0  0
   -1.9329   -1.8732   -0.0000 C   0  0  0  0  0  0  0  0  0  0  0  0
    0.4057   -2.6368   -0.0000 C   0  0  0  0  0  0  0  0  0  0  0  0
    1.9090    1.7658   -0.0000 C   0  0  0  0  0  0  0  0  0  0  0  0
    2.4459   -0.7875   -0.0000 C   0  0  0  0  0  0  0  0  0  0  0  0
    2.8873    0.7397   -0.0000 C   0  0  0  0  0  0  0  0  0  0  0  0
   -1.9448   -3.3765   -0.0000 C   0  0  0  0  0  0  0  0  0  0  0  0
   -3.2453   -1.1096   -0.0000 C   0  0  0  0  0  0  0  0  0  0  0  0
   -0.5011   -3.8538   -0.0000 N   0  0  0  0  0  0  0  0  0  0  0  0
    1.8971   -2.6249   -0.0000 C   0  0  0  0  0  0  0  0  0  0  0  0
   -3.2572   -4.1163   -0.0000 C   0  0  0  0  0  0  0  0  0  0  0  0
   -4.5577   -1.8493   -0.0000 C   0  0  0  0  0  0  0  0  0  0  0  0
    0.2506   -5.1304   -0.0000 C   0  0  0  0  0  0  0  0  0  0  0  0
    2.6368   -3.9134   -0.0000 C   0  0  0  0  0  0  0  0  0  0  0  0
   -4.5696   -3.3527   -0.0000 C   0  0  0  0  0  0  0  0  0  0  0  0
   -5.8701   -1.0857   -0.0000 O   0  0  0  0  0  0  0  0  0  0  0  0
   -0.5011   -6.4309   -0.0000 C   0  0  0  0  0  0  0  0  0  0  0  0
    4.1282   -3.9015   -0.0000 C   0  0  0  0  0  0  0  0  0  0  0  0
    2.6129   -5.4048   -0.0000 C   0  0  0  0  0  0  0  0  0  0  0  0
    1.5988   -4.6412   -0.0000 C   0  0  0  0  0  0  0  0  0  0  0  0
   -7.1826   -1.8255   -0.0000 C   0  0  0  0  0  0  0  0  0  0  0  0
   -2.0164   -6.4309   -0.0000 C   0  0  0  0  0  0  0  0  0  0  0  0
    0.2625   -7.7076   -0.0000 C   0  0  0  0  0  0  0  0  0  0  0  0
    4.8679   -2.5891   -0.0000 O   0  0  0  0  0  0  0  0  0  0  0  0
    4.8679   -5.1901   -0.0000 O   0  0  0  0  0  0  0  0  0  0  0  0
   -8.4950   -1.0619   -0.0000 C   0  0  0  0  0  0  0  0  0  0  0  0
   -2.7680   -7.7314   -0.0000 C   0  0  0  0  0  0  0  0  0  0  0  0
   -0.4772   -9.0081   -0.0000 C   0  0  0  0  0  0  0  0  0  0  0  0
   -9.7955   -1.8016   -0.0000 N   0  0  0  0  0  0  0  0  0  0  0  0
   -8.4950    0.4534   -0.0000 C   0  0  0  0  0  0  0  0  0  0  0  0
   -2.0164   -9.0200   -0.0000 C   0  0  0  0  0  0  0  0  0  0  0  0
  -11.1079   -1.0499   -0.0000 C   0  0  0  0  0  0  0  0  0  0  0  0
   -9.8074    1.2170   -0.0000 C   0  0  0  0  0  0  0  0  0  0  0  0
   -2.7680  -10.3205   -0.0000 C   0  0  0  0  0  0  0  0  0  0  0  0
  -11.1318    0.4653   -0.0000 C   0  0  0  0  0  0  0  0  0  0  0  0
   -2.0164  -11.5971   -0.0000 N   0  0  0  0  0  0  0  0  0  0  0  0
   -4.2833  -10.3205   -0.0000 C   0  0  0  0  0  0  0  0  0  0  0  0
  -12.4442    1.2289   -0.0000 C   0  0  0  0  0  0  0  0  0  0  0  0
   -2.7561  -12.8976   -0.0000 C   0  0  0  0  0  0  0  0  0  0  0  0
   -5.0350  -11.6210   -0.0000 C   0  0  0  0  0  0  0  0  0  0  0  0
   -4.2833  -12.9096   -0.0000 C   0  0  0  0  0  0  0  0  0  0  0  0
   -5.0350  -14.2101   -0.0000 C   0  0  0  0  0  0  0  0  0  0  0  0
  1  2  1  0  0  0  0
  1  3  1  0  0  0  0
  2  4  1  0  0  0  0
  2  5  2  0  0  0  0
  3  6  1  0  0  0  0
  3  7  1  0  0  0  0
  3  8  1  0  0  0  0
  4  9  2  0  0  0  0
  4 10  1  0  0  0  0
  5 11  1  0  0  0  0
  5 12  1  0  0  0  0
  9 13  1  0  0  0  0
 10 14  2  0  0  0  0
 11 15  1  0  0  0  0
 12 16  1  0  0  0  0
 13 17  2  0  0  0  0
 14 18  1  0  0  0  0
 15 19  1  0  0  0  0
 16 20  1  0  0  0  0
 16 21  1  0  0  0  0
 16 22  1  0  0  0  0
 18 23  1  0  0  0  0
 19 24  2  0  0  0  0
 19 25  1  0  0  0  0
 20 26  2  0  0  0  0
 20 27  1  0  0  0  0
 23 28  1  0  0  0  0
 24 29  1  0  0  0  0
 25 30  2  0  0  0  0
 28 31  2  0  0  0  0
 28 32  1  0  0  0  0
 29 33  2  0  0  0  0
 31 34  1  0  0  0  0
 32 35  2  0  0  0  0
 33 36  1  0  0  0  0
 34 37  2  0  0  0  0
 36 38  2  0  0  0  0
 36 39  1  0  0  0  0
 37 40  1  0  0  0  0
 38 41  1  0  0  0  0
 39 42  2  0  0  0  0
 41 43  2  0  0  0  0
 43 44  1  0  0  0  0
  9 11  1  0  0  0  0
 14 17  1  0  0  0  0
 30 33  1  0  0  0  0
 35 37  1  0  0  0  0
 42 43  1  0  0  0  0
M  END
>  <MolRegNo>
1266259

>  <m>
=

>  <Value>
8.5

>  <Unit>
nM

>  <Type>
IC50

>  <pValue>
8.07

>  <Ligand Efficiency>
0

>  <Binding Efficiency>
0

>  <Surface Efficiency>
0

>  <Assay Index>
624056

>  <Assay Category>


>  <Assay Organism>
Homo sapiens

>  <Target ID>
17045

>  <Target Name>
Cytochrome P450 3A4

>  <Target Organism>
Homo sapiens

>  <Target Description>
Target is a single protein chain

>  <Sequence Accession>
P08684

>  <Reference>
J Med Chem 54 (23), 8013-8029 (2011)

>  <Pubmed ID>
22059882

>  <DOI>
10.1021/jm2008369

$$$$
1266260
Actelion Java MolfileCreator 1.0

 44 48  0  0  0  0  0  0  0  0999 V2000
    0.0000   -0.0000   -0.0000 S   0  0  0  0  0  0  0  0  0  0  0  0
   -0.4780   -1.4220   -0.0000 C   0  0  0  0  0  0  0  0  0  0  0  0
    1.4578    0.3226   -0.0000 C   0  0  0  0  0  0  0  0  0  0  0  0
   -1.9358   -1.8760   -0.0000 C   0  0  0  0  0  0  0  0  0  0  0  0
    0.4063   -2.6408   -0.0000 C   0  0  0  0  0  0  0  0  0  0  0  0
    1.9119    1.7685   -0.0000 C   0  0  0  0  0  0  0  0  0  0  0  0
    2.4496   -0.7887   -0.0000 C   0  0  0  0  0  0  0  0  0  0  0  0
    2.8917    0.7409   -0.0000 C   0  0  0  0  0  0  0  0  0  0  0  0
   -1.9477   -3.3817   -0.0000 C   0  0  0  0  0  0  0  0  0  0  0  0
   -3.2502   -1.1113   -0.0000 C   0  0  0  0  0  0  0  0  0  0  0  0
   -0.5019   -3.8596   -0.0000 N   0  0  0  0  0  0  0  0  0  0  0  0
    1.8999   -2.6289   -0.0000 C   0  0  0  0  0  0  0  0  0  0  0  0
   -3.2622   -4.1225   -0.0000 C   0  0  0  0  0  0  0  0  0  0  0  0
   -4.5646   -1.8521   -0.0000 C   0  0  0  0  0  0  0  0  0  0  0  0
    0.2509   -5.1382   -0.0000 C   0  0  0  0  0  0  0  0  0  0  0  0
    2.6408   -3.9194   -0.0000 C   0  0  0  0  0  0  0  0  0  0  0  0
   -4.5766   -3.3578   -0.0000 C   0  0  0  0  0  0  0  0  0  0  0  0
   -5.8791   -1.0874   -0.0000 O   0  0  0  0  0  0  0  0  0  0  0  0
   -0.5019   -6.4407   -0.0000 C   0  0  0  0  0  0  0  0  0  0  0  0
    4.1345   -3.9074   -0.0000 C   0  0  0  0  0  0  0  0  0  0  0  0
    2.6169   -5.4130   -0.0000 C   0  0  0  0  0  0  0  0  0  0  0  0
    1.6610   -4.5407   -0.0000 C   0  0  0  0  0  0  0  0  0  0  0  0
   -7.1935   -1.8282   -0.0000 C   0  0  0  0  0  0  0  0  0  0  0  0
   -2.0194   -6.4407   -0.0000 C   0  0  0  0  0  0  0  0  0  0  0  0
    0.2629   -7.7193   -0.0000 C   0  0  0  0  0  0  0  0  0  0  0  0
    4.8753   -2.5930   -0.0000 O   0  0  0  0  0  0  0  0  0  0  0  0
    4.8753   -5.1980   -0.0000 O   0  0  0  0  0  0  0  0  0  0  0  0
   -8.5079   -1.0635   -0.0000 C   0  0  0  0  0  0  0  0  0  0  0  0
   -2.7722   -7.7432   -0.0000 C   0  0  0  0  0  0  0  0  0  0  0  0
   -0.4780   -9.0217   -0.0000 C   0  0  0  0  0  0  0  0  0  0  0  0
   -9.8104   -1.8043   -0.0000 N   0  0  0  0  0  0  0  0  0  0  0  0
   -8.5079    0.4541   -0.0000 C   0  0  0  0  0  0  0  0  0  0  0  0
   -2.0194   -9.0337   -0.0000 C   0  0  0  0  0  0  0  0  0  0  0  0
  -11.1248   -1.0515   -0.0000 C   0  0  0  0  0  0  0  0  0  0  0  0
   -9.8223    1.2188   -0.0000 C   0  0  0  0  0  0  0  0  0  0  0  0
   -2.7722  -10.3362   -0.0000 C   0  0  0  0  0  0  0  0  0  0  0  0
  -11.1487    0.4660   -0.0000 C   0  0  0  0  0  0  0  0  0  0  0  0
   -2.0194  -11.6147   -0.0000 N   0  0  0  0  0  0  0  0  0  0  0  0
   -4.2898  -10.3362   -0.0000 C   0  0  0  0  0  0  0  0  0  0  0  0
  -12.4631    1.2308   -0.0000 C   0  0  0  0  0  0  0  0  0  0  0  0
   -2.7603  -12.9172   -0.0000 C   0  0  0  0  0  0  0  0  0  0  0  0
   -5.0426  -11.6386   -0.0000 C   0  0  0  0  0  0  0  0  0  0  0  0
   -4.2898  -12.9292   -0.0000 C   0  0  0  0  0  0  0  0  0  0  0  0
   -5.0426  -14.2316   -0.0000 F   0  0  0  0  0  0  0  0  0  0  0  0
  1  2  1  0  0  0  0
  1  3  1  0  0  0  0
  2  4  1  0  0  0  0
  2  5  2  0  0  0  0
  3  6  1  0  0  0  0
  3  7  1  0  0  0  0
  3  8  1  0  0  0  0
  4  9  2  0  0  0  0
  4 10  1  0  0  0  0
  5 11  1  0  0  0  0
  5 12  1  0  0  0  0
  9 13  1  0  0  0  0
 10 14  2  0  0  0  0
 11 15  1  0  0  0  0
 12 16  1  0  0  0  0
 13 17  2  0  0  0  0
 14 18  1  0  0  0  0
 15 19  1  0  0  0  0
 16 20  1  0  0  0  0
 16 21  1  0  0  0  0
 16 22  1  0  0  0  0
 18 23  1  0  0  0  0
 19 24  2  0  0  0  0
 19 25  1  0  0  0  0
 20 26  2  0  0  0  0
 20 27  1  0  0  0  0
 23 28  1  0  0  0  0
 24 29  1  0  0  0  0
 25 30  2  0  0  0  0
 28 31  2  0  0  0  0
 28 32  1  0  0  0  0
 29 33  2  0  0  0  0
 31 34  1  0  0  0  0
 32 35  2  0  0  0  0
 33 36  1  0  0  0  0
 34 37  2  0  0  0  0
 36 38  2  0  0  0  0
 36 39  1  0  0  0  0
 37 40  1  0  0  0  0
 38 41  1  0  0  0  0
 39 42  2  0  0  0  0
 41 43  2  0  0  0  0
 43 44  1  0  0  0  0
  9 11  1  0  0  0  0
 14 17  1  0  0  0  0
 30 33  1  0  0  0  0
 35 37  1  0  0  0  0
 42 43  1  0  0  0  0
M  END
>  <MolRegNo>
1266260

>  <m>
=

>  <Value>
5.5

>  <Unit>
nM

>  <Type>
IC50

>  <pValue>
8.26

>  <Ligand Efficiency>
0

>  <Binding Efficiency>
0

>  <Surface Efficiency>
0

>  <Assay Index>
624056

>  <Assay Category>


>  <Assay Organism>
Homo sapiens

>  <Target ID>
17045

>  <Target Name>
Cytochrome P450 3A4

>  <Target Organism>
Homo sapiens

>  <Target Description>
Target is a single protein chain

>  <Sequence Accession>
P08684

>  <Reference>
J Med Chem 54 (23), 8013-8029 (2011)

>  <Pubmed ID>
22059882

>  <DOI>
10.1021/jm2008369

$$$$
691556
Actelion Java MolfileCreator 1.0

 45 49  0  0  0  0  0  0  0  0999 V2000
    0.0000   -0.0000   -0.0000 S   0  0  0  0  0  0  0  0  0  0  0  0
    0.0000   -1.4928   -0.0000 C   0  0  0  0  0  0  0  0  0  0  0  0
   -1.3151    0.7464   -0.0000 C   0  0  0  0  0  0  0  0  0  0  0  0
   -1.0189   -2.5947   -0.0000 C   0  0  0  0  0  0  0  0  0  0  0  0
    1.3625   -2.0970   -0.0000 C   0  0  0  0  0  0  0  0  0  0  0  0
   -1.3388    2.2511   -0.0000 C   0  0  0  0  0  0  0  0  0  0  0  0
   -2.6183   -0.0000   -0.0000 C   0  0  0  0  0  0  0  0  0  0  0  0
   -2.6776    1.4454   -0.0000 C   0  0  0  0  0  0  0  0  0  0  0  0
   -0.2843   -3.8861   -0.0000 C   0  0  0  0  0  0  0  0  0  0  0  0
   -2.5354   -2.5828   -0.0000 C   0  0  0  0  0  0  0  0  0  0  0  0
    1.1848   -3.5780   -0.0000 N   0  0  0  0  0  0  0  0  0  0  0  0
    2.6539   -1.3506   -0.0000 C   0  0  0  0  0  0  0  0  0  0  0  0
   -1.0426   -5.1775   -0.0000 C   0  0  0  0  0  0  0  0  0  0  0  0
   -3.2937   -3.8742   -0.0000 C   0  0  0  0  0  0  0  0  0  0  0  0
    1.8956   -4.8813   -0.0000 C   0  0  0  0  0  0  0  0  0  0  0  0
    2.6539    0.1540   -0.0000 C   0  0  0  0  0  0  0  0  0  0  0  0
   -2.5591   -5.1656   -0.0000 C   0  0  0  0  0  0  0  0  0  0  0  0
   -4.8102   -3.8624   -0.0000 O   0  0  0  0  0  0  0  0  0  0  0  0
    3.3766   -4.9050   -0.0000 C   0  0  0  0  0  0  0  0  0  0  0  0
    3.9453    0.9004   -0.0000 C   0  0  0  0  0  0  0  0  0  0  0  0
    1.1492    0.2014   -0.0000 C   0  0  0  0  0  0  0  0  0  0  0  0
    1.9075    1.4810   -0.0000 C   0  0  0  0  0  0  0  0  0  0  0  0
   -5.5803   -5.1419   -0.0000 C   0  0  0  0  0  0  0  0  0  0  0  0
    4.1349   -6.1845   -0.0000 C   0  0  0  0  0  0  0  0  0  0  0  0
    4.1112   -3.5899   -0.0000 C   0  0  0  0  0  0  0  0  0  0  0  0
    3.9453    2.4051   -0.0000 O   0  0  0  0  0  0  0  0  0  0  0  0
    5.2249    0.1540   -0.0000 O   0  0  0  0  0  0  0  0  0  0  0  0
   -7.0968   -5.1182   -0.0000 C   0  0  0  0  0  0  0  0  0  0  0  0
    5.6277   -6.1608   -0.0000 C   0  0  0  0  0  0  0  0  0  0  0  0
    5.5921   -3.5543   -0.0000 C   0  0  0  0  0  0  0  0  0  0  0  0
   -7.8669   -6.3978   -0.0000 N   0  0  0  0  0  0  0  0  0  0  0  0
   -7.8432   -3.8031   -0.0000 C   0  0  0  0  0  0  0  0  0  0  0  0
    6.3504   -4.8339   -0.0000 C   0  0  0  0  0  0  0  0  0  0  0  0
   -9.3834   -6.3741   -0.0000 C   0  0  0  0  0  0  0  0  0  0  0  0
   -9.3597   -3.7794   -0.0000 C   0  0  0  0  0  0  0  0  0  0  0  0
    7.8314   -4.7983   -0.0000 C   0  0  0  0  0  0  0  0  0  0  0  0
  -10.1298   -5.0471   -0.0000 C   0  0  0  0  0  0  0  0  0  0  0  0
    8.5896   -6.0779   -0.0000 N   0  0  0  0  0  0  0  0  0  0  0  0
    8.5541   -3.4714   -0.0000 N   0  0  0  0  0  0  0  0  0  0  0  0
  -11.6463   -5.0116   -0.0000 C   0  0  0  0  0  0  0  0  0  0  0  0
   10.0824   -6.0542   -0.0000 C   0  0  0  0  0  0  0  0  0  0  0  0
   10.0469   -3.4358   -0.0000 C   0  0  0  0  0  0  0  0  0  0  0  0
   10.8051   -4.7272   -0.0000 C   0  0  0  0  0  0  0  0  0  0  0  0
   12.2979   -4.7036   -0.0000 O   0  0  0  0  0  0  0  0  0  0  0  0
   12.9851   -6.0186   -0.0000 C   0  0  0  0  0  0  0  0  0  0  0  0
  1  2  1  0  0  0  0
  1  3  1  0  0  0  0
  2  4  1  0  0  0  0
  2  5  2  0  0  0  0
  3  6  1  0  0  0  0
  3  7  1  0  0  0  0
  3  8  1  0  0  0  0
  4  9  2  0  0  0  0
  4 10  1  0  0  0  0
  5 11  1  0  0  0  0
  5 12  1  0  0  0  0
  9 13  1  0  0  0  0
 10 14  2  0  0  0  0
 11 15  1  0  0  0  0
 12 16  1  0  0  0  0
 13 17  2  0  0  0  0
 14 18  1  0  0  0  0
 15 19  1  0  0  0  0
 16 20  1  0  0  0  0
 16 21  1  0  0  0  0
 16 22  1  0  0  0  0
 18 23  1  0  0  0  0
 19 24  2  0  0  0  0
 19 25  1  0  0  0  0
 20 26  2  0  0  0  0
 20 27  1  0  0  0  0
 23 28  1  0  0  0  0
 24 29  1  0  0  0  0
 25 30  2  0  0  0  0
 28 31  2  0  0  0  0
 28 32  1  0  0  0  0
 29 33  2  0  0  0  0
 31 34  1  0  0  0  0
 32 35  2  0  0  0  0
 33 36  1  0  0  0  0
 34 37  2  0  0  0  0
 36 38  2  0  0  0  0
 36 39  1  0  0  0  0
 37 40  1  0  0  0  0
 38 41  1  0  0  0  0
 39 42  2  0  0  0  0
 41 43  2  0  0  0  0
 43 44  1  0  0  0  0
 44 45  1  0  0  0  0
  9 11  1  0  0  0  0
 14 17  1  0  0  0  0
 30 33  1  0  0  0  0
 35 37  1  0  0  0  0
 42 43  1  0  0  0  0
M  END
>  <MolRegNo>
691556

>  <m>
=

>  <Value>
8.8

>  <Unit>
nM

>  <Type>
IC50

>  <pValue>
8.06

>  <Ligand Efficiency>
0

>  <Binding Efficiency>
0

>  <Surface Efficiency>
0

>  <Assay Index>
624056

>  <Assay Category>


>  <Assay Organism>
Homo sapiens

>  <Target ID>
17045

>  <Target Name>
Cytochrome P450 3A4

>  <Target Organism>
Homo sapiens

>  <Target Description>
Target is a single protein chain

>  <Sequence Accession>
P08684

>  <Reference>
J Med Chem 54 (23), 8013-8029 (2011)

>  <Pubmed ID>
22059882

>  <DOI>
10.1021/jm2008369

$$$$
1249884
Actelion Java MolfileCreator 1.0

 38 41  0  0  0  0  0  0  0  0999 V2000
    0.0000   -0.0000   -0.0000 F   0  0  0  0  0  0  0  0  0  0  0  0
   -0.0119   -1.4922   -0.0000 C   0  0  0  0  0  0  0  0  0  0  0  0
   -1.3251   -2.2323   -0.0000 C   0  0  0  0  0  0  0  0  0  0  0  0
    1.2773   -2.2323   -0.0000 C   0  0  0  0  0  0  0  0  0  0  0  0
   -2.6501   -1.4683   -0.0000 F   0  0  0  0  0  0  0  0  0  0  0  0
   -1.3251   -3.7365   -0.0000 C   0  0  0  0  0  0  0  0  0  0  0  0
    1.2654   -3.7365   -0.0000 C   0  0  0  0  0  0  0  0  0  0  0  0
   -0.0358   -4.4647   -0.0000 C   0  0  0  0  0  0  0  0  0  0  0  0
    2.5666   -4.4766   -0.0000 C   0  0  0  0  0  0  0  0  0  0  0  0
    3.6171   -3.3903   -0.0000 O   0  0  0  0  0  0  0  0  0  0  0  0
    3.8558   -5.2287   -0.0000 C   0  0  0  0  0  0  0  0  0  0  0  0
    1.2534   -5.2287   -0.0000 C   0  0  0  0  0  0  0  0  0  0  0  0
    5.1570   -4.4647   -0.0000 C   0  0  0  0  0  0  0  0  0  0  0  0
    3.8439   -6.7209   -0.0000 C   0  0  0  0  0  0  0  0  0  0  0  0
    1.2415   -6.7209   -0.0000 C   0  0  0  0  0  0  0  0  0  0  0  0
    5.1451   -2.9486   -0.0000 O   0  0  0  0  0  0  0  0  0  0  0  0
    6.4463   -5.2048   -0.0000 N   0  0  0  0  0  0  0  0  0  0  0  0
    2.5308   -7.4610   -0.0000 N   0  0  0  0  0  0  0  0  0  0  0  0
    6.4344   -6.6970   -0.0000 C   0  0  0  0  0  0  0  0  0  0  0  0
    7.7475   -4.4408   -0.0000 C   0  0  0  0  0  0  0  0  0  0  0  0
    5.6703   -7.9862   -0.0000 C   0  0  0  0  0  0  0  0  0  0  0  0
    7.1745   -7.9982   -0.0000 C   0  0  0  0  0  0  0  0  0  0  0  0
    9.0367   -5.1809   -0.0000 C   0  0  0  0  0  0  0  0  0  0  0  0
   10.3260   -4.4169   -0.0000 C   0  0  0  0  0  0  0  0  0  0  0  0
    9.0129   -6.6850   -0.0000 C   0  0  0  0  0  0  0  0  0  0  0  0
   11.6153   -5.1570   -0.0000 C   0  0  0  0  0  0  0  0  0  0  0  0
   10.3021   -7.4252   -0.0000 C   0  0  0  0  0  0  0  0  0  0  0  0
   12.9045   -4.3930   -0.0000 O   0  0  0  0  0  0  0  0  0  0  0  0
   11.6033   -6.6612   -0.0000 C   0  0  0  0  0  0  0  0  0  0  0  0
   10.2902   -8.9174   -0.0000 C   0  0  0  0  0  0  0  0  0  0  0  0
   12.8926   -2.8770   -0.0000 C   0  0  0  0  0  0  0  0  0  0  0  0
   11.5794   -9.6694   -0.0000 C   0  0  0  0  0  0  0  0  0  0  0  0
   14.1818   -2.1130   -0.0000 C   0  0  0  0  0  0  0  0  0  0  0  0
   12.8806   -8.9054   -0.0000 C   0  0  0  0  0  0  0  0  0  0  0  0
   14.1699   -0.5969   -0.0000 O   0  0  0  0  0  0  0  0  0  0  0  0
   14.1699   -9.6575   -0.0000 O   0  0  0  0  0  0  0  0  0  0  0  0
   15.4592    0.1671   -0.0000 C   0  0  0  0  0  0  0  0  0  0  0  0
   15.4711   -8.8935   -0.0000 C   0  0  0  0  0  0  0  0  0  0  0  0
  1  2  1  0  0  0  0
  2  3  2  0  0  0  0
  2  4  1  0  0  0  0
  3  5  1  0  0  0  0
  3  6  1  0  0  0  0
  4  7  2  0  0  0  0
  6  8  2  0  0  0  0
  9  7  1  1  0  0  0
  9 10  1  0  0  0  0
  9 11  1  0  0  0  0
  9 12  1  0  0  0  0
 11 13  1  6  0  0  0
 11 14  1  0  0  0  0
 12 15  1  0  0  0  0
 13 16  2  0  0  0  0
 13 17  1  0  0  0  0
 14 18  1  0  0  0  0
 17 19  1  0  0  0  0
 17 20  1  0  0  0  0
 19 21  1  0  0  0  0
 19 22  1  0  0  0  0
 20 23  1  0  0  0  0
 23 24  2  0  0  0  0
 23 25  1  0  0  0  0
 24 26  1  0  0  0  0
 25 27  2  0  0  0  0
 26 28  1  0  0  0  0
 26 29  2  0  0  0  0
 27 30  1  0  0  0  0
 28 31  1  0  0  0  0
 30 32  1  0  0  0  0
 31 33  1  0  0  0  0
 32 34  1  0  0  0  0
 33 35  1  0  0  0  0
 34 36  1  0  0  0  0
 35 37  1  0  0  0  0
 36 38  1  0  0  0  0
  7  8  1  0  0  0  0
 15 18  1  0  0  0  0
 21 22  1  0  0  0  0
 27 29  1  0  0  0  0
M  END
>  <MolRegNo>
1249884

>  <m>
=

>  <Value>
900

>  <Unit>
nM

>  <Type>
IC50

>  <pValue>
6.05

>  <Ligand Efficiency>
0

>  <Binding Efficiency>
0

>  <Surface Efficiency>
0

>  <Assay Index>
624433

>  <Assay Category>


>  <Assay Organism>


>  <Target ID>
17045

>  <Target Name>
Cytochrome P450 3A4

>  <Target Organism>
Homo sapiens

>  <Target Description>
Target is a single protein chain

>  <Sequence Accession>
P08684

>  <Reference>
Bioorg Med Chem Lett 21 (24), 7399-7404 (2011)

>  <Pubmed ID>
22071301

>  <DOI>
10.1016/j.bmcl.2011.10.013

$$$$
1249878
Actelion Java MolfileCreator 1.0

 36 39  0  0  0  0  0  0  0  0999 V2000
    0.0000   -0.0000   -0.0000 O   0  0  0  0  0  0  0  0  0  0  0  0
   -0.0119   -1.4875   -0.0000 C   0  0  0  0  0  0  0  0  0  0  0  0
    1.2733   -2.2253   -0.0000 N   0  0  0  0  0  0  0  0  0  0  0  0
   -1.3328   -2.2253   -0.0000 C   0  0  0  0  0  0  0  0  0  0  0  0
    1.2614   -3.7128   -0.0000 C   0  0  0  0  0  0  0  0  0  0  0  0
    2.5704   -1.4637   -0.0000 C   0  0  0  0  0  0  0  0  0  0  0  0
   -2.6418   -1.4518   -0.0000 C   0  0  0  0  0  0  0  0  0  0  0  0
   -1.3447   -3.7128   -0.0000 C   0  0  0  0  0  0  0  0  0  0  0  0
    0.4998   -4.9980   -0.0000 C   0  0  0  0  0  0  0  0  0  0  0  0
    1.9992   -5.0099   -0.0000 C   0  0  0  0  0  0  0  0  0  0  0  0
    3.8556   -2.2015   -0.0000 C   0  0  0  0  0  0  0  0  0  0  0  0
   -1.5946   -0.3689   -0.0000 O   0  0  0  0  0  0  0  0  0  0  0  0
   -3.9627   -0.6902   -0.0000 C   0  0  0  0  0  0  0  0  0  0  0  0
   -3.9508   -2.2015   -0.0000 C   0  0  0  0  0  0  0  0  0  0  0  0
   -2.6537   -4.4506   -0.0000 N   0  0  0  0  0  0  0  0  0  0  0  0
    5.1408   -1.4399   -0.0000 C   0  0  0  0  0  0  0  0  0  0  0  0
    3.8318   -3.6890   -0.0000 C   0  0  0  0  0  0  0  0  0  0  0  0
   -3.9746    0.8330   -0.0000 C   0  0  0  0  0  0  0  0  0  0  0  0
   -5.2717   -1.4280   -0.0000 C   0  0  0  0  0  0  0  0  0  0  0  0
   -3.9627   -3.6890   -0.0000 C   0  0  0  0  0  0  0  0  0  0  0  0
    6.4260   -2.1777   -0.0000 C   0  0  0  0  0  0  0  0  0  0  0  0
    5.1170   -4.4268   -0.0000 C   0  0  0  0  0  0  0  0  0  0  0  0
   -5.2836    1.5946   -0.0000 C   0  0  0  0  0  0  0  0  0  0  0  0
   -6.5807   -0.6783   -0.0000 C   0  0  0  0  0  0  0  0  0  0  0  0
    7.7113   -1.4161   -0.0000 O   0  0  0  0  0  0  0  0  0  0  0  0
    6.4141   -3.6771   -0.0000 C   0  0  0  0  0  0  0  0  0  0  0  0
    5.1051   -5.9143   -0.0000 C   0  0  0  0  0  0  0  0  0  0  0  0
   -6.5926    0.8568   -0.0000 C   0  0  0  0  0  0  0  0  0  0  0  0
    7.6994    0.0952   -0.0000 C   0  0  0  0  0  0  0  0  0  0  0  0
    6.3903   -6.6640   -0.0000 C   0  0  0  0  0  0  0  0  0  0  0  0
    8.9846    0.8568   -0.0000 C   0  0  0  0  0  0  0  0  0  0  0  0
    7.6875   -5.9024   -0.0000 C   0  0  0  0  0  0  0  0  0  0  0  0
    8.9727    2.3681   -0.0000 O   0  0  0  0  0  0  0  0  0  0  0  0
    8.9727   -6.6521   -0.0000 O   0  0  0  0  0  0  0  0  0  0  0  0
   10.2579    3.1297   -0.0000 C   0  0  0  0  0  0  0  0  0  0  0  0
   10.2698   -5.8905   -0.0000 C   0  0  0  0  0  0  0  0  0  0  0  0
  1  2  2  0  0  0  0
  2  3  1  0  0  0  0
  4  2  1  6  0  0  0
  3  5  1  0  0  0  0
  3  6  1  0  0  0  0
  4  7  1  0  0  0  0
  4  8  1  0  0  0  0
  5  9  1  0  0  0  0
  5 10  1  0  0  0  0
  6 11  1  0  0  0  0
  7 12  1  0  0  0  0
  7 13  1  1  0  0  0
  7 14  1  0  0  0  0
  8 15  1  0  0  0  0
 11 16  2  0  0  0  0
 11 17  1  0  0  0  0
 13 18  2  0  0  0  0
 13 19  1  0  0  0  0
 14 20  1  0  0  0  0
 16 21  1  0  0  0  0
 17 22  2  0  0  0  0
 18 23  1  0  0  0  0
 19 24  2  0  0  0  0
 21 25  1  0  0  0  0
 21 26  2  0  0  0  0
 22 27  1  0  0  0  0
 23 28  2  0  0  0  0
 25 29  1  0  0  0  0
 27 30  1  0  0  0  0
 29 31  1  0  0  0  0
 30 32  1  0  0  0  0
 31 33  1  0  0  0  0
 32 34  1  0  0  0  0
 33 35  1  0  0  0  0
 34 36  1  0  0  0  0
  9 10  1  0  0  0  0
 15 20  1  0  0  0  0
 22 26  1  0  0  0  0
 24 28  1  0  0  0  0
M  END
>  <MolRegNo>
1249878

>  <m>
=

>  <Value>
2600

>  <Unit>
nM

>  <Type>
IC50

>  <pValue>
5.58

>  <Ligand Efficiency>
0

>  <Binding Efficiency>
0

>  <Surface Efficiency>
0

>  <Assay Index>
624435

>  <Assay Category>


>  <Assay Organism>


>  <Target ID>
17045

>  <Target Name>
Cytochrome P450 3A4

>  <Target Organism>
Homo sapiens

>  <Target Description>
Target is a single protein chain

>  <Sequence Accession>
P08684

>  <Reference>
Bioorg Med Chem Lett 21 (24), 7399-7404 (2011)

>  <Pubmed ID>
22071301

>  <DOI>
10.1016/j.bmcl.2011.10.013

$$$$
1266708
Actelion Java MolfileCreator 1.0

 37 41  0  0  0  0  0  0  0  0999 V2000
    0.0000   -0.0000   -0.0000 O   0  0  0  0  0  0  0  0  0  0  0  0
   -0.0119   -1.4895   -0.0000 C   0  0  0  0  0  0  0  0  0  0  0  0
    1.2750   -2.2283   -0.0000 N   0  0  0  0  0  0  0  0  0  0  0  0
   -1.3227   -2.2283   -0.0000 C   0  0  0  0  0  0  0  0  0  0  0  0
    1.2631   -3.7178   -0.0000 C   0  0  0  0  0  0  0  0  0  0  0  0
    2.5619   -1.4657   -0.0000 C   0  0  0  0  0  0  0  0  0  0  0  0
   -2.6334   -1.4538   -0.0000 C   0  0  0  0  0  0  0  0  0  0  0  0
   -1.3465   -3.7297   -0.0000 C   0  0  0  0  0  0  0  0  0  0  0  0
    0.5005   -5.0047   -0.0000 C   0  0  0  0  0  0  0  0  0  0  0  0
    2.0138   -5.0047   -0.0000 C   0  0  0  0  0  0  0  0  0  0  0  0
    3.8489   -2.2045   -0.0000 C   0  0  0  0  0  0  0  0  0  0  0  0
   -4.1229   -1.1797   -0.0000 O   0  0  0  0  0  0  0  0  0  0  0  0
   -1.9423   -0.1192   -0.0000 C   0  0  0  0  0  0  0  0  0  0  0  0
   -3.9561   -2.2045   -0.0000 C   0  0  0  0  0  0  0  0  0  0  0  0
   -2.6692   -4.4685   -0.0000 N   0  0  0  0  0  0  0  0  0  0  0  0
    5.1358   -1.4418   -0.0000 C   0  0  0  0  0  0  0  0  0  0  0  0
    3.8250   -3.6940   -0.0000 C   0  0  0  0  0  0  0  0  0  0  0  0
   -4.3374    0.3217   -0.0000 C   0  0  0  0  0  0  0  0  0  0  0  0
   -2.9909    0.9771   -0.0000 C   0  0  0  0  0  0  0  0  0  0  0  0
   -0.5005    0.2502   -0.0000 C   0  0  0  0  0  0  0  0  0  0  0  0
   -3.9680   -3.6940   -0.0000 C   0  0  0  0  0  0  0  0  0  0  0  0
    6.4227   -2.1806   -0.0000 C   0  0  0  0  0  0  0  0  0  0  0  0
    5.1120   -4.4327   -0.0000 C   0  0  0  0  0  0  0  0  0  0  0  0
   -2.5858    2.4189   -0.0000 C   0  0  0  0  0  0  0  0  0  0  0  0
   -0.0834    1.7040   -0.0000 C   0  0  0  0  0  0  0  0  0  0  0  0
    7.7096   -1.4180   -0.0000 O   0  0  0  0  0  0  0  0  0  0  0  0
    6.4108   -3.6820   -0.0000 C   0  0  0  0  0  0  0  0  0  0  0  0
    5.1000   -5.9222   -0.0000 C   0  0  0  0  0  0  0  0  0  0  0  0
   -1.1439    2.7883   -0.0000 C   0  0  0  0  0  0  0  0  0  0  0  0
    7.6977    0.0953   -0.0000 C   0  0  0  0  0  0  0  0  0  0  0  0
    6.3870   -6.6610   -0.0000 C   0  0  0  0  0  0  0  0  0  0  0  0
    8.9847    0.8580   -0.0000 C   0  0  0  0  0  0  0  0  0  0  0  0
    7.6858   -5.8984   -0.0000 C   0  0  0  0  0  0  0  0  0  0  0  0
    8.9727    2.3713   -0.0000 O   0  0  0  0  0  0  0  0  0  0  0  0
    8.9727   -6.6372   -0.0000 O   0  0  0  0  0  0  0  0  0  0  0  0
   10.2597    3.1339   -0.0000 C   0  0  0  0  0  0  0  0  0  0  0  0
   10.2716   -5.8746   -0.0000 C   0  0  0  0  0  0  0  0  0  0  0  0
  1  2  2  0  0  0  0
  2  3  1  0  0  0  0
  4  2  1  6  0  0  0
  3  5  1  0  0  0  0
  3  6  1  0  0  0  0
  4  7  1  0  0  0  0
  4  8  1  0  0  0  0
  5  9  1  0  0  0  0
  5 10  1  0  0  0  0
  6 11  1  0  0  0  0
  7 12  1  6  0  0  0
  7 13  1  0  0  0  0
  7 14  1  0  0  0  0
  8 15  1  0  0  0  0
 11 16  2  0  0  0  0
 11 17  1  0  0  0  0
 12 18  1  0  0  0  0
 13 19  2  0  0  0  0
 13 20  1  0  0  0  0
 14 21  1  0  0  0  0
 16 22  1  0  0  0  0
 17 23  2  0  0  0  0
 19 24  1  0  0  0  0
 20 25  2  0  0  0  0
 22 26  1  0  0  0  0
 22 27  2  0  0  0  0
 23 28  1  0  0  0  0
 24 29  2  0  0  0  0
 26 30  1  0  0  0  0
 28 31  1  0  0  0  0
 30 32  1  0  0  0  0
 31 33  1  0  0  0  0
 32 34  1  0  0  0  0
 33 35  1  0  0  0  0
 34 36  1  0  0  0  0
 35 37  1  0  0  0  0
  9 10  1  0  0  0  0
 15 21  1  0  0  0  0
 18 19  1  0  0  0  0
 23 27  1  0  0  0  0
 25 29  1  0  0  0  0
M  END
>  <MolRegNo>
1266708

>  <m>
=

>  <Value>
6000

>  <Unit>
nM

>  <Type>
IC50

>  <pValue>
5.22

>  <Ligand Efficiency>
0

>  <Binding Efficiency>
0

>  <Surface Efficiency>
0

>  <Assay Index>
624435

>  <Assay Category>


>  <Assay Organism>


>  <Target ID>
17045

>  <Target Name>
Cytochrome P450 3A4

>  <Target Organism>
Homo sapiens

>  <Target Description>
Target is a single protein chain

>  <Sequence Accession>
P08684

>  <Reference>
Bioorg Med Chem Lett 21 (24), 7399-7404 (2011)

>  <Pubmed ID>
22071301

>  <DOI>
10.1016/j.bmcl.2011.10.013

$$$$
1266709
Actelion Java MolfileCreator 1.0

 38 42  0  0  0  0  0  0  0  0999 V2000
    0.0000   -0.0000   -0.0000 O   0  0  0  0  0  0  0  0  0  0  0  0
    1.3145   -0.7050   -0.0000 C   0  0  0  0  0  0  0  0  0  0  0  0
    1.5057   -2.1868   -0.0000 O   0  0  0  0  0  0  0  0  0  0  0  0
    2.6648   -0.0358   -0.0000 C   0  0  0  0  0  0  0  0  0  0  0  0
    2.9755   -2.4378   -0.0000 C   0  0  0  0  0  0  0  0  0  0  0  0
    3.6925   -1.1113   -0.0000 C   0  0  0  0  0  0  0  0  0  0  0  0
    3.0711    1.4101   -0.0000 C   0  0  0  0  0  0  0  0  0  0  0  0
    4.2661   -3.1906   -0.0000 C   0  0  0  0  0  0  0  0  0  0  0  0
    1.6491   -3.1906   -0.0000 C   0  0  0  0  0  0  0  0  0  0  0  0
    5.1385   -0.7409   -0.0000 C   0  0  0  0  0  0  0  0  0  0  0  0
    4.5171    1.7805   -0.0000 C   0  0  0  0  0  0  0  0  0  0  0  0
    5.5567   -2.4258   -0.0000 C   0  0  0  0  0  0  0  0  0  0  0  0
    4.2422   -4.6963   -0.0000 C   0  0  0  0  0  0  0  0  0  0  0  0
    1.6371   -4.6844   -0.0000 C   0  0  0  0  0  0  0  0  0  0  0  0
    5.5567    0.7170   -0.0000 C   0  0  0  0  0  0  0  0  0  0  0  0
    5.5448   -0.9082   -0.0000 O   0  0  0  0  0  0  0  0  0  0  0  0
    6.8473   -3.1667   -0.0000 N   0  0  0  0  0  0  0  0  0  0  0  0
    2.9158   -5.4372   -0.0000 N   0  0  0  0  0  0  0  0  0  0  0  0
    6.8353   -4.6605   -0.0000 C   0  0  0  0  0  0  0  0  0  0  0  0
    8.1379   -2.4019   -0.0000 C   0  0  0  0  0  0  0  0  0  0  0  0
    6.0705   -5.9510   -0.0000 C   0  0  0  0  0  0  0  0  0  0  0  0
    7.5882   -5.9510   -0.0000 C   0  0  0  0  0  0  0  0  0  0  0  0
    9.4285   -3.1428   -0.0000 C   0  0  0  0  0  0  0  0  0  0  0  0
   10.7191   -2.3780   -0.0000 C   0  0  0  0  0  0  0  0  0  0  0  0
    9.4046   -4.6366   -0.0000 C   0  0  0  0  0  0  0  0  0  0  0  0
   12.0096   -3.1189   -0.0000 C   0  0  0  0  0  0  0  0  0  0  0  0
   10.6952   -5.3775   -0.0000 C   0  0  0  0  0  0  0  0  0  0  0  0
   13.3002   -2.3541   -0.0000 O   0  0  0  0  0  0  0  0  0  0  0  0
   11.9977   -4.6246   -0.0000 C   0  0  0  0  0  0  0  0  0  0  0  0
   10.6832   -6.8712   -0.0000 C   0  0  0  0  0  0  0  0  0  0  0  0
   13.2883   -0.8365   -0.0000 C   0  0  0  0  0  0  0  0  0  0  0  0
   11.9738   -7.6121   -0.0000 C   0  0  0  0  0  0  0  0  0  0  0  0
   14.5789   -0.0717   -0.0000 C   0  0  0  0  0  0  0  0  0  0  0  0
   13.2763   -6.8473   -0.0000 C   0  0  0  0  0  0  0  0  0  0  0  0
   14.5669    1.4459   -0.0000 O   0  0  0  0  0  0  0  0  0  0  0  0
   14.5669   -7.5882   -0.0000 O   0  0  0  0  0  0  0  0  0  0  0  0
   15.8575    2.2107   -0.0000 C   0  0  0  0  0  0  0  0  0  0  0  0
   15.8695   -6.8234   -0.0000 C   0  0  0  0  0  0  0  0  0  0  0  0
  1  2  2  0  0  0  0
  2  3  1  0  0  0  0
  2  4  1  0  0  0  0
  5  3  1  6  0  0  0
  4  6  2  0  0  0  0
  4  7  1  0  0  0  0
  5  8  1  0  0  0  0
  5  9  1  0  0  0  0
  6 10  1  0  0  0  0
  7 11  2  0  0  0  0
  8 12  1  6  0  0  0
  8 13  1  0  0  0  0
  9 14  1  0  0  0  0
 10 15  2  0  0  0  0
 12 16  2  0  0  0  0
 12 17  1  0  0  0  0
 13 18  1  0  0  0  0
 17 19  1  0  0  0  0
 17 20  1  0  0  0  0
 19 21  1  0  0  0  0
 19 22  1  0  0  0  0
 20 23  1  0  0  0  0
 23 24  2  0  0  0  0
 23 25  1  0  0  0  0
 24 26  1  0  0  0  0
 25 27  2  0  0  0  0
 26 28  1  0  0  0  0
 26 29  2  0  0  0  0
 27 30  1  0  0  0  0
 28 31  1  0  0  0  0
 30 32  1  0  0  0  0
 31 33  1  0  0  0  0
 32 34  1  0  0  0  0
 33 35  1  0  0  0  0
 34 36  1  0  0  0  0
 35 37  1  0  0  0  0
 36 38  1  0  0  0  0
  5  6  1  0  0  0  0
 11 15  1  0  0  0  0
 14 18  1  0  0  0  0
 21 22  1  0  0  0  0
 27 29  1  0  0  0  0
M  END
>  <MolRegNo>
1266709

>  <m>
=

>  <Value>
7200

>  <Unit>
nM

>  <Type>
IC50

>  <pValue>
5.14

>  <Ligand Efficiency>
0

>  <Binding Efficiency>
0

>  <Surface Efficiency>
0

>  <Assay Index>
624435

>  <Assay Category>


>  <Assay Organism>


>  <Target ID>
17045

>  <Target Name>
Cytochrome P450 3A4

>  <Target Organism>
Homo sapiens

>  <Target Description>
Target is a single protein chain

>  <Sequence Accession>
P08684

>  <Reference>
Bioorg Med Chem Lett 21 (24), 7399-7404 (2011)

>  <Pubmed ID>
22071301

>  <DOI>
10.1016/j.bmcl.2011.10.013

$$$$
1266710
Actelion Java MolfileCreator 1.0

 38 42  0  0  0  0  0  0  0  0999 V2000
    0.0000   -0.0000   -0.0000 O   0  0  0  0  0  0  0  0  0  0  0  0
   -1.3075   -0.7488   -0.0000 C   0  0  0  0  0  0  0  0  0  0  0  0
   -0.5824   -2.0800   -0.0000 N   0  0  0  0  0  0  0  0  0  0  0  0
   -2.8289   -0.7726   -0.0000 C   0  0  0  0  0  0  0  0  0  0  0  0
   -1.3550   -3.3637   -0.0000 C   0  0  0  0  0  0  0  0  0  0  0  0
    0.9152   -2.0800   -0.0000 C   0  0  0  0  0  0  0  0  0  0  0  0
   -4.1363   -0.0000   -0.0000 C   0  0  0  0  0  0  0  0  0  0  0  0
   -2.8526   -2.2702   -0.0000 C   0  0  0  0  0  0  0  0  0  0  0  0
   -2.6625   -4.1007   -0.0000 C   0  0  0  0  0  0  0  0  0  0  0  0
   -1.3669   -4.8614   -0.0000 C   0  0  0  0  0  0  0  0  0  0  0  0
    1.6521   -3.3756   -0.0000 C   0  0  0  0  0  0  0  0  0  0  0  0
   -5.4556    0.7488   -0.0000 O   0  0  0  0  0  0  0  0  0  0  0  0
   -2.8526    0.7726   -0.0000 C   0  0  0  0  0  0  0  0  0  0  0  0
   -5.4556   -0.7488   -0.0000 C   0  0  0  0  0  0  0  0  0  0  0  0
   -4.1720   -3.0071   -0.0000 N   0  0  0  0  0  0  0  0  0  0  0  0
    3.1379   -3.3637   -0.0000 C   0  0  0  0  0  0  0  0  0  0  0  0
    0.8796   -4.6593   -0.0000 C   0  0  0  0  0  0  0  0  0  0  0  0
   -5.4675    2.2702   -0.0000 C   0  0  0  0  0  0  0  0  0  0  0  0
   -2.8645    2.2821   -0.0000 C   0  0  0  0  0  0  0  0  0  0  0  0
   -1.5689    0.0475   -0.0000 C   0  0  0  0  0  0  0  0  0  0  0  0
   -5.4675   -2.2346   -0.0000 C   0  0  0  0  0  0  0  0  0  0  0  0
    3.8748   -4.6474   -0.0000 C   0  0  0  0  0  0  0  0  0  0  0  0
    1.6165   -5.9549   -0.0000 C   0  0  0  0  0  0  0  0  0  0  0  0
   -4.1839    3.0428   -0.0000 C   0  0  0  0  0  0  0  0  0  0  0  0
   -1.5927    3.0428   -0.0000 C   0  0  0  0  0  0  0  0  0  0  0  0
   -0.2853    0.8082   -0.0000 C   0  0  0  0  0  0  0  0  0  0  0  0
    5.3724   -4.6355   -0.0000 O   0  0  0  0  0  0  0  0  0  0  0  0
    3.1022   -5.9430   -0.0000 C   0  0  0  0  0  0  0  0  0  0  0  0
    0.8439   -7.2385   -0.0000 C   0  0  0  0  0  0  0  0  0  0  0  0
   -0.3090    2.3178   -0.0000 C   0  0  0  0  0  0  0  0  0  0  0  0
    6.1213   -3.3281   -0.0000 C   0  0  0  0  0  0  0  0  0  0  0  0
    1.5808   -8.5341   -0.0000 C   0  0  0  0  0  0  0  0  0  0  0  0
    7.6189   -3.3162   -0.0000 C   0  0  0  0  0  0  0  0  0  0  0  0
    3.0785   -8.5341   -0.0000 C   0  0  0  0  0  0  0  0  0  0  0  0
    8.3677   -2.0087   -0.0000 O   0  0  0  0  0  0  0  0  0  0  0  0
    3.8154   -9.8297   -0.0000 O   0  0  0  0  0  0  0  0  0  0  0  0
    9.8653   -1.9968   -0.0000 C   0  0  0  0  0  0  0  0  0  0  0  0
    5.3130   -9.8297   -0.0000 C   0  0  0  0  0  0  0  0  0  0  0  0
  1  2  2  0  0  0  0
  2  3  1  0  0  0  0
  4  2  1  6  0  0  0
  3  5  1  0  0  0  0
  3  6  1  0  0  0  0
  4  7  1  0  0  0  0
  4  8  1  0  0  0  0
  5  9  1  0  0  0  0
  5 10  1  0  0  0  0
  6 11  1  0  0  0  0
  7 12  1  6  0  0  0
  7 13  1  0  0  0  0
  7 14  1  0  0  0  0
  8 15  1  0  0  0  0
 11 16  2  0  0  0  0
 11 17  1  0  0  0  0
 12 18  1  0  0  0  0
 13 19  2  0  0  0  0
 13 20  1  0  0  0  0
 14 21  1  0  0  0  0
 16 22  1  0  0  0  0
 17 23  2  0  0  0  0
 18 24  1  0  0  0  0
 19 25  1  0  0  0  0
 20 26  2  0  0  0  0
 22 27  1  0  0  0  0
 22 28  2  0  0  0  0
 23 29  1  0  0  0  0
 25 30  2  0  0  0  0
 27 31  1  0  0  0  0
 29 32  1  0  0  0  0
 31 33  1  0  0  0  0
 32 34  1  0  0  0  0
 33 35  1  0  0  0  0
 34 36  1  0  0  0  0
 35 37  1  0  0  0  0
 36 38  1  0  0  0  0
  9 10  1  0  0  0  0
 15 21  1  0  0  0  0
 19 24  1  0  0  0  0
 23 28  1  0  0  0  0
 26 30  1  0  0  0  0
M  END
>  <MolRegNo>
1266710

>  <m>
=

>  <Value>
6400

>  <Unit>
nM

>  <Type>
IC50

>  <pValue>
5.19

>  <Ligand Efficiency>
0

>  <Binding Efficiency>
0

>  <Surface Efficiency>
0

>  <Assay Index>
624435

>  <Assay Category>


>  <Assay Organism>


>  <Target ID>
17045

>  <Target Name>
Cytochrome P450 3A4

>  <Target Organism>
Homo sapiens

>  <Target Description>
Target is a single protein chain

>  <Sequence Accession>
P08684

>  <Reference>
Bioorg Med Chem Lett 21 (24), 7399-7404 (2011)

>  <Pubmed ID>
22071301

>  <DOI>
10.1016/j.bmcl.2011.10.013

$$$$
1266711
Actelion Java MolfileCreator 1.0

 38 42  0  0  0  0  0  0  0  0999 V2000
    0.0000   -0.0000   -0.0000 O   0  0  0  0  0  0  0  0  0  0  0  0
   -1.3075   -0.7488   -0.0000 C   0  0  0  0  0  0  0  0  0  0  0  0
   -0.5824   -2.0800   -0.0000 N   0  0  0  0  0  0  0  0  0  0  0  0
   -2.8289   -0.7726   -0.0000 C   0  0  0  0  0  0  0  0  0  0  0  0
   -1.3550   -3.3637   -0.0000 C   0  0  0  0  0  0  0  0  0  0  0  0
    0.9152   -2.0800   -0.0000 C   0  0  0  0  0  0  0  0  0  0  0  0
   -4.1363   -0.0000   -0.0000 C   0  0  0  0  0  0  0  0  0  0  0  0
   -2.8526   -2.2702   -0.0000 C   0  0  0  0  0  0  0  0  0  0  0  0
   -2.6625   -4.1007   -0.0000 C   0  0  0  0  0  0  0  0  0  0  0  0
   -1.3669   -4.8614   -0.0000 C   0  0  0  0  0  0  0  0  0  0  0  0
    1.6521   -3.3756   -0.0000 C   0  0  0  0  0  0  0  0  0  0  0  0
   -5.4556    0.7488   -0.0000 O   0  0  0  0  0  0  0  0  0  0  0  0
   -2.8526    0.7726   -0.0000 C   0  0  0  0  0  0  0  0  0  0  0  0
   -5.4556   -0.7488   -0.0000 C   0  0  0  0  0  0  0  0  0  0  0  0
   -4.1720   -3.0071   -0.0000 N   0  0  0  0  0  0  0  0  0  0  0  0
    3.1379   -3.3637   -0.0000 C   0  0  0  0  0  0  0  0  0  0  0  0
    0.8796   -4.6593   -0.0000 C   0  0  0  0  0  0  0  0  0  0  0  0
   -5.4675    2.2702   -0.0000 C   0  0  0  0  0  0  0  0  0  0  0  0
   -2.8645    2.2821   -0.0000 C   0  0  0  0  0  0  0  0  0  0  0  0
   -1.5689    0.0475   -0.0000 C   0  0  0  0  0  0  0  0  0  0  0  0
   -5.4675   -2.2346   -0.0000 C   0  0  0  0  0  0  0  0  0  0  0  0
    3.8748   -4.6474   -0.0000 C   0  0  0  0  0  0  0  0  0  0  0  0
    1.6165   -5.9549   -0.0000 C   0  0  0  0  0  0  0  0  0  0  0  0
   -4.1839    3.0428   -0.0000 C   0  0  0  0  0  0  0  0  0  0  0  0
   -1.5927    3.0428   -0.0000 C   0  0  0  0  0  0  0  0  0  0  0  0
   -0.2853    0.8082   -0.0000 C   0  0  0  0  0  0  0  0  0  0  0  0
    5.3724   -4.6355   -0.0000 O   0  0  0  0  0  0  0  0  0  0  0  0
    3.1022   -5.9430   -0.0000 C   0  0  0  0  0  0  0  0  0  0  0  0
    0.8439   -7.2385   -0.0000 C   0  0  0  0  0  0  0  0  0  0  0  0
   -0.3090    2.3178   -0.0000 C   0  0  0  0  0  0  0  0  0  0  0  0
    6.1213   -3.3281   -0.0000 C   0  0  0  0  0  0  0  0  0  0  0  0
    1.5808   -8.5341   -0.0000 C   0  0  0  0  0  0  0  0  0  0  0  0
    7.6189   -3.3162   -0.0000 C   0  0  0  0  0  0  0  0  0  0  0  0
    3.0785   -8.5341   -0.0000 C   0  0  0  0  0  0  0  0  0  0  0  0
    8.3677   -2.0087   -0.0000 O   0  0  0  0  0  0  0  0  0  0  0  0
    3.8154   -9.8297   -0.0000 O   0  0  0  0  0  0  0  0  0  0  0  0
    9.8653   -1.9968   -0.0000 C   0  0  0  0  0  0  0  0  0  0  0  0
    5.3130   -9.8297   -0.0000 C   0  0  0  0  0  0  0  0  0  0  0  0
  1  2  2  0  0  0  0
  2  3  1  0  0  0  0
  4  2  1  6  0  0  0
  3  5  1  0  0  0  0
  3  6  1  0  0  0  0
  4  7  1  0  0  0  0
  4  8  1  0  0  0  0
  5  9  1  0  0  0  0
  5 10  1  0  0  0  0
  6 11  1  0  0  0  0
  7 12  1  6  0  0  0
  7 13  1  0  0  0  0
  7 14  1  0  0  0  0
  8 15  1  0  0  0  0
 11 16  2  0  0  0  0
 11 17  1  0  0  0  0
 12 18  1  0  0  0  0
 13 19  2  0  0  0  0
 13 20  1  0  0  0  0
 14 21  1  0  0  0  0
 16 22  1  0  0  0  0
 17 23  2  0  0  0  0
 18 24  2  0  0  0  0
 19 25  1  0  0  0  0
 20 26  2  0  0  0  0
 22 27  1  0  0  0  0
 22 28  2  0  0  0  0
 23 29  1  0  0  0  0
 25 30  2  0  0  0  0
 27 31  1  0  0  0  0
 29 32  1  0  0  0  0
 31 33  1  0  0  0  0
 32 34  1  0  0  0  0
 33 35  1  0  0  0  0
 34 36  1  0  0  0  0
 35 37  1  0  0  0  0
 36 38  1  0  0  0  0
  9 10  1  0  0  0  0
 15 21  1  0  0  0  0
 19 24  1  0  0  0  0
 23 28  1  0  0  0  0
 26 30  1  0  0  0  0
M  END
>  <MolRegNo>
1266711

>  <m>
=

>  <Value>
1100

>  <Unit>
nM

>  <Type>
IC50

>  <pValue>
5.96

>  <Ligand Efficiency>
0

>  <Binding Efficiency>
0

>  <Surface Efficiency>
0

>  <Assay Index>
624435

>  <Assay Category>


>  <Assay Organism>


>  <Target ID>
17045

>  <Target Name>
Cytochrome P450 3A4

>  <Target Organism>
Homo sapiens

>  <Target Description>
Target is a single protein chain

>  <Sequence Accession>
P08684

>  <Reference>
Bioorg Med Chem Lett 21 (24), 7399-7404 (2011)

>  <Pubmed ID>
22071301

>  <DOI>
10.1016/j.bmcl.2011.10.013

$$$$
1266712
Actelion Java MolfileCreator 1.0

 39 43  0  0  0  0  0  0  0  0999 V2000
    0.0000   -0.0000   -0.0000 O   0  0  0  0  0  0  0  0  0  0  0  0
    1.3007   -0.7398   -0.0000 C   0  0  0  0  0  0  0  0  0  0  0  0
    1.2887   -2.2433   -0.0000 O   0  0  0  0  0  0  0  0  0  0  0  0
    2.5894    0.0358   -0.0000 C   0  0  0  0  0  0  0  0  0  0  0  0
    2.5894   -2.9712   -0.0000 C   0  0  0  0  0  0  0  0  0  0  0  0
    3.8901   -0.7040   -0.0000 C   0  0  0  0  0  0  0  0  0  0  0  0
    3.8781   -2.1956   -0.0000 C   0  0  0  0  0  0  0  0  0  0  0  0
    3.8781   -3.7230   -0.0000 C   0  0  0  0  0  0  0  0  0  0  0  0
    1.2649   -3.7230   -0.0000 C   0  0  0  0  0  0  0  0  0  0  0  0
    5.1669    0.0597   -0.0000 C   0  0  0  0  0  0  0  0  0  0  0  0
    5.1669   -2.9235   -0.0000 C   0  0  0  0  0  0  0  0  0  0  0  0
    5.3817   -3.6753   -0.0000 C   0  0  0  0  0  0  0  0  0  0  0  0
    3.8543   -5.2265   -0.0000 C   0  0  0  0  0  0  0  0  0  0  0  0
    1.2529   -5.2146   -0.0000 C   0  0  0  0  0  0  0  0  0  0  0  0
    6.4556   -0.6682   -0.0000 C   0  0  0  0  0  0  0  0  0  0  0  0
    6.4437   -2.1598   -0.0000 C   0  0  0  0  0  0  0  0  0  0  0  0
    6.6704   -2.8996   -0.0000 O   0  0  0  0  0  0  0  0  0  0  0  0
    6.1095   -5.0117   -0.0000 N   0  0  0  0  0  0  0  0  0  0  0  0
    2.5297   -5.9664   -0.0000 N   0  0  0  0  0  0  0  0  0  0  0  0
    5.3339   -6.3005   -0.0000 C   0  0  0  0  0  0  0  0  0  0  0  0
    7.6131   -5.0117   -0.0000 C   0  0  0  0  0  0  0  0  0  0  0  0
    4.0213   -7.0403   -0.0000 C   0  0  0  0  0  0  0  0  0  0  0  0
    5.3220   -7.8040   -0.0000 C   0  0  0  0  0  0  0  0  0  0  0  0
    8.3529   -6.3124   -0.0000 C   0  0  0  0  0  0  0  0  0  0  0  0
    9.8445   -6.3005   -0.0000 C   0  0  0  0  0  0  0  0  0  0  0  0
    7.5773   -7.6011   -0.0000 C   0  0  0  0  0  0  0  0  0  0  0  0
   10.5843   -7.5892   -0.0000 C   0  0  0  0  0  0  0  0  0  0  0  0
    8.3171   -8.9018   -0.0000 C   0  0  0  0  0  0  0  0  0  0  0  0
   12.0878   -7.5773   -0.0000 O   0  0  0  0  0  0  0  0  0  0  0  0
    9.8087   -8.8899   -0.0000 C   0  0  0  0  0  0  0  0  0  0  0  0
    7.5415  -10.1905   -0.0000 C   0  0  0  0  0  0  0  0  0  0  0  0
   12.8396   -6.2647   -0.0000 C   0  0  0  0  0  0  0  0  0  0  0  0
    8.2813  -11.4912   -0.0000 C   0  0  0  0  0  0  0  0  0  0  0  0
   14.3431   -6.2527   -0.0000 C   0  0  0  0  0  0  0  0  0  0  0  0
    9.7848  -11.4912   -0.0000 C   0  0  0  0  0  0  0  0  0  0  0  0
   15.0949   -4.9401   -0.0000 O   0  0  0  0  0  0  0  0  0  0  0  0
   10.5246  -12.7919   -0.0000 O   0  0  0  0  0  0  0  0  0  0  0  0
   16.5984   -4.9282   -0.0000 C   0  0  0  0  0  0  0  0  0  0  0  0
   12.0282  -12.7919   -0.0000 C   0  0  0  0  0  0  0  0  0  0  0  0
  1  2  2  0  0  0  0
  2  3  1  0  0  0  0
  2  4  1  0  0  0  0
  5  3  1  6  0  0  0
  4  6  1  0  0  0  0
  5  7  1  0  0  0  0
  5  8  1  0  0  0  0
  5  9  1  0  0  0  0
  6 10  1  0  0  0  0
  7 11  1  0  0  0  0
  8 12  1  6  0  0  0
  8 13  1  0  0  0  0
  9 14  1  0  0  0  0
 10 15  2  0  0  0  0
 11 16  2  0  0  0  0
 12 17  2  0  0  0  0
 12 18  1  0  0  0  0
 13 19  1  0  0  0  0
 18 20  1  0  0  0  0
 18 21  1  0  0  0  0
 20 22  1  0  0  0  0
 20 23  1  0  0  0  0
 21 24  1  0  0  0  0
 24 25  2  0  0  0  0
 24 26  1  0  0  0  0
 25 27  1  0  0  0  0
 26 28  2  0  0  0  0
 27 29  1  0  0  0  0
 27 30  2  0  0  0  0
 28 31  1  0  0  0  0
 29 32  1  0  0  0  0
 31 33  1  0  0  0  0
 32 34  1  0  0  0  0
 33 35  1  0  0  0  0
 34 36  1  0  0  0  0
 35 37  1  0  0  0  0
 36 38  1  0  0  0  0
 37 39  1  0  0  0  0
  6  7  2  0  0  0  0
 14 19  1  0  0  0  0
 15 16  1  0  0  0  0
 22 23  1  0  0  0  0
 28 30  1  0  0  0  0
M  END
>  <MolRegNo>
1266712

>  <m>
=

>  <Value>
5600

>  <Unit>
nM

>  <Type>
IC50

>  <pValue>
5.25

>  <Ligand Efficiency>
0

>  <Binding Efficiency>
0

>  <Surface Efficiency>
0

>  <Assay Index>
624435

>  <Assay Category>


>  <Assay Organism>


>  <Target ID>
17045

>  <Target Name>
Cytochrome P450 3A4

>  <Target Organism>
Homo sapiens

>  <Target Description>
Target is a single protein chain

>  <Sequence Accession>
P08684

>  <Reference>
Bioorg Med Chem Lett 21 (24), 7399-7404 (2011)

>  <Pubmed ID>
22071301

>  <DOI>
10.1016/j.bmcl.2011.10.013

$$$$
1266713
Actelion Java MolfileCreator 1.0

 39 43  0  0  0  0  0  0  0  0999 V2000
    0.0000   -0.0000   -0.0000 F   0  0  0  0  0  0  0  0  0  0  0  0
   -1.4775   -0.3455   -0.0000 C   0  0  0  0  0  0  0  0  0  0  0  0
   -2.5380    0.7507   -0.0000 C   0  0  0  0  0  0  0  0  0  0  0  0
   -1.9184   -1.7754   -0.0000 C   0  0  0  0  0  0  0  0  0  0  0  0
   -2.1329    2.2044   -0.0000 F   0  0  0  0  0  0  0  0  0  0  0  0
   -4.0036    0.4051   -0.0000 C   0  0  0  0  0  0  0  0  0  0  0  0
   -3.3840   -2.1210   -0.0000 C   0  0  0  0  0  0  0  0  0  0  0  0
   -4.4326   -1.0128   -0.0000 C   0  0  0  0  0  0  0  0  0  0  0  0
   -4.0989   -3.4317   -0.0000 C   0  0  0  0  0  0  0  0  0  0  0  0
   -5.8028   -1.6563   -0.0000 C   0  0  0  0  0  0  0  0  0  0  0  0
   -5.5884   -3.1576   -0.0000 O   0  0  0  0  0  0  0  0  0  0  0  0
   -2.8121   -4.1823   -0.0000 C   0  0  0  0  0  0  0  0  0  0  0  0
   -5.4215   -4.1823   -0.0000 C   0  0  0  0  0  0  0  0  0  0  0  0
   -1.5252   -3.4197   -0.0000 C   0  0  0  0  0  0  0  0  0  0  0  0
   -2.8359   -5.6837   -0.0000 C   0  0  0  0  0  0  0  0  0  0  0  0
   -5.4335   -5.6718   -0.0000 C   0  0  0  0  0  0  0  0  0  0  0  0
   -1.5371   -1.9065   -0.0000 O   0  0  0  0  0  0  0  0  0  0  0  0
   -0.2383   -4.1585   -0.0000 N   0  0  0  0  0  0  0  0  0  0  0  0
   -4.1585   -6.4224   -0.0000 N   0  0  0  0  0  0  0  0  0  0  0  0
   -0.2502   -5.6479   -0.0000 C   0  0  0  0  0  0  0  0  0  0  0  0
    1.0486   -3.3959   -0.0000 C   0  0  0  0  0  0  0  0  0  0  0  0
   -1.0128   -6.9348   -0.0000 C   0  0  0  0  0  0  0  0  0  0  0  0
    0.5005   -6.9348   -0.0000 C   0  0  0  0  0  0  0  0  0  0  0  0
    2.3354   -4.1347   -0.0000 C   0  0  0  0  0  0  0  0  0  0  0  0
    3.6223   -3.3721   -0.0000 C   0  0  0  0  0  0  0  0  0  0  0  0
    2.3116   -5.6241   -0.0000 C   0  0  0  0  0  0  0  0  0  0  0  0
    4.9092   -4.1108   -0.0000 C   0  0  0  0  0  0  0  0  0  0  0  0
    3.5985   -6.3629   -0.0000 C   0  0  0  0  0  0  0  0  0  0  0  0
    6.1960   -3.3482   -0.0000 O   0  0  0  0  0  0  0  0  0  0  0  0
    4.8973   -5.6122   -0.0000 C   0  0  0  0  0  0  0  0  0  0  0  0
    3.5866   -7.8523   -0.0000 C   0  0  0  0  0  0  0  0  0  0  0  0
    6.1841   -1.8350   -0.0000 C   0  0  0  0  0  0  0  0  0  0  0  0
    4.8734   -8.5911   -0.0000 C   0  0  0  0  0  0  0  0  0  0  0  0
    7.4710   -1.0724   -0.0000 C   0  0  0  0  0  0  0  0  0  0  0  0
    6.1722   -7.8285   -0.0000 C   0  0  0  0  0  0  0  0  0  0  0  0
    7.4591    0.4409   -0.0000 O   0  0  0  0  0  0  0  0  0  0  0  0
    7.4591   -8.5672   -0.0000 O   0  0  0  0  0  0  0  0  0  0  0  0
    8.7460    1.2035   -0.0000 C   0  0  0  0  0  0  0  0  0  0  0  0
    8.7579   -7.8046   -0.0000 C   0  0  0  0  0  0  0  0  0  0  0  0
  1  2  1  0  0  0  0
  2  3  2  0  0  0  0
  2  4  1  0  0  0  0
  3  5  1  0  0  0  0
  3  6  1  0  0  0  0
  4  7  2  0  0  0  0
  6  8  2  0  0  0  0
  7  9  1  0  0  0  0
  8 10  1  0  0  0  0
  9 11  1  6  0  0  0
  9 12  1  0  0  0  0
  9 13  1  0  0  0  0
 12 14  1  6  0  0  0
 12 15  1  0  0  0  0
 13 16  1  0  0  0  0
 14 17  2  0  0  0  0
 14 18  1  0  0  0  0
 15 19  1  0  0  0  0
 18 20  1  0  0  0  0
 18 21  1  0  0  0  0
 20 22  1  0  0  0  0
 20 23  1  0  0  0  0
 21 24  1  0  0  0  0
 24 25  2  0  0  0  0
 24 26  1  0  0  0  0
 25 27  1  0  0  0  0
 26 28  2  0  0  0  0
 27 29  1  0  0  0  0
 27 30  2  0  0  0  0
 28 31  1  0  0  0  0
 29 32  1  0  0  0  0
 31 33  1  0  0  0  0
 32 34  1  0  0  0  0
 33 35  1  0  0  0  0
 34 36  1  0  0  0  0
 35 37  1  0  0  0  0
 36 38  1  0  0  0  0
 37 39  1  0  0  0  0
  7  8  1  0  0  0  0
 10 11  1  0  0  0  0
 16 19  1  0  0  0  0
 22 23  1  0  0  0  0
 28 30  1  0  0  0  0
M  END
>  <MolRegNo>
1266713

>  <m>
=

>  <Value>
13000

>  <Unit>
nM

>  <Type>
IC50

>  <pValue>
4.89

>  <Ligand Efficiency>
0

>  <Binding Efficiency>
0

>  <Surface Efficiency>
0

>  <Assay Index>
624435

>  <Assay Category>


>  <Assay Organism>


>  <Target ID>
17045

>  <Target Name>
Cytochrome P450 3A4

>  <Target Organism>
Homo sapiens

>  <Target Description>
Target is a single protein chain

>  <Sequence Accession>
P08684

>  <Reference>
Bioorg Med Chem Lett 21 (24), 7399-7404 (2011)

>  <Pubmed ID>
22071301

>  <DOI>
10.1016/j.bmcl.2011.10.013

$$$$
1266714
Actelion Java MolfileCreator 1.0

 30 34  0  0  0  0  0  0  0  0999 V2000
    0.0000   -0.0000   -0.0000 Cl  0  0  0  0  0  0  0  0  0  0  0  0
   -0.0119   -1.4813   -0.0000 C   0  0  0  0  0  0  0  0  0  0  0  0
   -1.3154   -2.2160   -0.0000 C   0  0  0  0  0  0  0  0  0  0  0  0
    1.2680   -2.2160   -0.0000 C   0  0  0  0  0  0  0  0  0  0  0  0
   -1.3391   -3.6972   -0.0000 C   0  0  0  0  0  0  0  0  0  0  0  0
   -2.6189   -1.4576   -0.0000 C   0  0  0  0  0  0  0  0  0  0  0  0
    1.2561   -3.7091   -0.0000 C   0  0  0  0  0  0  0  0  0  0  0  0
   -0.0593   -4.4319   -0.0000 C   0  0  0  0  0  0  0  0  0  0  0  0
   -3.9224   -2.1923   -0.0000 N   0  0  0  0  0  0  0  0  0  0  0  0
   -5.2259   -1.4339   -0.0000 C   0  0  0  0  0  0  0  0  0  0  0  0
   -3.9342   -3.6735   -0.0000 C   0  0  0  0  0  0  0  0  0  0  0  0
   -5.2377    0.0711   -0.0000 O   0  0  0  0  0  0  0  0  0  0  0  0
   -6.5294   -2.1686   -0.0000 C   0  0  0  0  0  0  0  0  0  0  0  0
   -4.6926   -4.9533   -0.0000 C   0  0  0  0  0  0  0  0  0  0  0  0
   -3.1877   -4.9533   -0.0000 C   0  0  0  0  0  0  0  0  0  0  0  0
   -7.8329   -1.3983   -0.0000 C   0  0  0  0  0  0  0  0  0  0  0  0
   -6.5531   -3.6617   -0.0000 C   0  0  0  0  0  0  0  0  0  0  0  0
   -6.6242   -0.5214   -0.0000 O   0  0  0  0  0  0  0  0  0  0  0  0
   -9.0534   -0.4977   -0.0000 C   0  0  0  0  0  0  0  0  0  0  0  0
   -9.1601   -2.1449   -0.0000 C   0  0  0  0  0  0  0  0  0  0  0  0
   -7.8684   -4.3964   -0.0000 N   0  0  0  0  0  0  0  0  0  0  0  0
   -7.0863    0.9243   -0.0000 C   0  0  0  0  0  0  0  0  0  0  0  0
   -8.5913    0.9362   -0.0000 C   0  0  0  0  0  0  0  0  0  0  0  0
  -10.5228   -0.7821   -0.0000 C   0  0  0  0  0  0  0  0  0  0  0  0
   -9.1719   -3.6261   -0.0000 C   0  0  0  0  0  0  0  0  0  0  0  0
   -9.5867    2.0619   -0.0000 C   0  0  0  0  0  0  0  0  0  0  0  0
  -11.5301    0.3437   -0.0000 C   0  0  0  0  0  0  0  0  0  0  0  0
  -11.0679    1.7775   -0.0000 C   0  0  0  0  0  0  0  0  0  0  0  0
  -13.0113    0.0474   -0.0000 F   0  0  0  0  0  0  0  0  0  0  0  0
  -12.0752    2.9151   -0.0000 F   0  0  0  0  0  0  0  0  0  0  0  0
  1  2  1  0  0  0  0
  2  3  2  0  0  0  0
  2  4  1  0  0  0  0
  3  5  1  0  0  0  0
  3  6  1  0  0  0  0
  4  7  2  0  0  0  0
  5  8  2  0  0  0  0
  6  9  1  0  0  0  0
  9 10  1  0  0  0  0
  9 11  1  0  0  0  0
 10 12  2  0  0  0  0
 13 10  1  6  0  0  0
 11 14  1  0  0  0  0
 11 15  1  0  0  0  0
 13 16  1  0  0  0  0
 13 17  1  0  0  0  0
 16 18  1  6  0  0  0
 16 19  1  0  0  0  0
 16 20  1  0  0  0  0
 17 21  1  0  0  0  0
 18 22  1  0  0  0  0
 19 23  2  0  0  0  0
 19 24  1  0  0  0  0
 20 25  1  0  0  0  0
 23 26  1  0  0  0  0
 24 27  2  0  0  0  0
 26 28  2  0  0  0  0
 27 29  1  0  0  0  0
 28 30  1  0  0  0  0
  7  8  1  0  0  0  0
 14 15  1  0  0  0  0
 21 25  1  0  0  0  0
 22 23  1  0  0  0  0
 27 28  1  0  0  0  0
M  END
>  <MolRegNo>
1266714

>  <m>
=

>  <Value>
5000

>  <Unit>
nM

>  <Type>
IC50

>  <pValue>
5.3

>  <Ligand Efficiency>
0

>  <Binding Efficiency>
0

>  <Surface Efficiency>
0

>  <Assay Index>
624435

>  <Assay Category>


>  <Assay Organism>


>  <Target ID>
17045

>  <Target Name>
Cytochrome P450 3A4

>  <Target Organism>
Homo sapiens

>  <Target Description>
Target is a single protein chain

>  <Sequence Accession>
P08684

>  <Reference>
Bioorg Med Chem Lett 21 (24), 7399-7404 (2011)

>  <Pubmed ID>
22071301

>  <DOI>
10.1016/j.bmcl.2011.10.013

$$$$
1266715
Actelion Java MolfileCreator 1.0

 31 35  0  0  0  0  0  0  0  0999 V2000
    0.0000   -0.0000   -0.0000 Cl  0  0  0  0  0  0  0  0  0  0  0  0
   -0.0118   -1.4807   -0.0000 C   0  0  0  0  0  0  0  0  0  0  0  0
    1.2675   -2.2151   -0.0000 C   0  0  0  0  0  0  0  0  0  0  0  0
   -1.3149   -2.2151   -0.0000 C   0  0  0  0  0  0  0  0  0  0  0  0
    2.5468   -1.4570   -0.0000 Cl  0  0  0  0  0  0  0  0  0  0  0  0
    1.2556   -3.7076   -0.0000 C   0  0  0  0  0  0  0  0  0  0  0  0
   -1.3385   -3.6958   -0.0000 C   0  0  0  0  0  0  0  0  0  0  0  0
   -2.6179   -1.4570   -0.0000 C   0  0  0  0  0  0  0  0  0  0  0  0
   -0.0592   -4.4421   -0.0000 C   0  0  0  0  0  0  0  0  0  0  0  0
   -3.9327   -2.1914   -0.0000 N   0  0  0  0  0  0  0  0  0  0  0  0
   -5.2357   -1.4333   -0.0000 C   0  0  0  0  0  0  0  0  0  0  0  0
   -3.9446   -3.6721   -0.0000 C   0  0  0  0  0  0  0  0  0  0  0  0
   -5.2476    0.0711   -0.0000 O   0  0  0  0  0  0  0  0  0  0  0  0
   -6.5506   -2.1677   -0.0000 C   0  0  0  0  0  0  0  0  0  0  0  0
   -4.7027   -4.9514   -0.0000 C   0  0  0  0  0  0  0  0  0  0  0  0
   -3.1983   -4.9514   -0.0000 C   0  0  0  0  0  0  0  0  0  0  0  0
   -7.8536   -1.3978   -0.0000 C   0  0  0  0  0  0  0  0  0  0  0  0
   -6.5743   -3.6603   -0.0000 C   0  0  0  0  0  0  0  0  0  0  0  0
   -6.6453   -0.5212   -0.0000 O   0  0  0  0  0  0  0  0  0  0  0  0
   -9.0737   -0.4975   -0.0000 C   0  0  0  0  0  0  0  0  0  0  0  0
   -9.1803   -2.1440   -0.0000 C   0  0  0  0  0  0  0  0  0  0  0  0
   -7.8891   -4.3947   -0.0000 N   0  0  0  0  0  0  0  0  0  0  0  0
   -7.1073    0.9239   -0.0000 C   0  0  0  0  0  0  0  0  0  0  0  0
   -8.6117    0.9358   -0.0000 C   0  0  0  0  0  0  0  0  0  0  0  0
  -10.5425   -0.7818   -0.0000 C   0  0  0  0  0  0  0  0  0  0  0  0
   -9.1921   -3.6247   -0.0000 C   0  0  0  0  0  0  0  0  0  0  0  0
   -9.6067    2.0611   -0.0000 C   0  0  0  0  0  0  0  0  0  0  0  0
  -11.5494    0.3435   -0.0000 C   0  0  0  0  0  0  0  0  0  0  0  0
  -11.0874    1.7768   -0.0000 C   0  0  0  0  0  0  0  0  0  0  0  0
  -13.0300    0.0474   -0.0000 F   0  0  0  0  0  0  0  0  0  0  0  0
  -12.0943    2.9140   -0.0000 F   0  0  0  0  0  0  0  0  0  0  0  0
  1  2  1  0  0  0  0
  2  3  2  0  0  0  0
  2  4  1  0  0  0  0
  3  5  1  0  0  0  0
  3  6  1  0  0  0  0
  4  7  2  0  0  0  0
  4  8  1  0  0  0  0
  6  9  2  0  0  0  0
  8 10  1  0  0  0  0
 10 11  1  0  0  0  0
 10 12  1  0  0  0  0
 11 13  2  0  0  0  0
 14 11  1  6  0  0  0
 12 15  1  0  0  0  0
 12 16  1  0  0  0  0
 14 17  1  0  0  0  0
 14 18  1  0  0  0  0
 17 19  1  6  0  0  0
 17 20  1  0  0  0  0
 17 21  1  0  0  0  0
 18 22  1  0  0  0  0
 19 23  1  0  0  0  0
 20 24  2  0  0  0  0
 20 25  1  0  0  0  0
 21 26  1  0  0  0  0
 24 27  1  0  0  0  0
 25 28  2  0  0  0  0
 27 29  2  0  0  0  0
 28 30  1  0  0  0  0
 29 31  1  0  0  0  0
  7  9  1  0  0  0  0
 15 16  1  0  0  0  0
 22 26  1  0  0  0  0
 23 24  1  0  0  0  0
 28 29  1  0  0  0  0
M  END
>  <MolRegNo>
1266715

>  <m>
=

>  <Value>
5600

>  <Unit>
nM

>  <Type>
IC50

>  <pValue>
5.25

>  <Ligand Efficiency>
0

>  <Binding Efficiency>
0

>  <Surface Efficiency>
0

>  <Assay Index>
624435

>  <Assay Category>


>  <Assay Organism>


>  <Target ID>
17045

>  <Target Name>
Cytochrome P450 3A4

>  <Target Organism>
Homo sapiens

>  <Target Description>
Target is a single protein chain

>  <Sequence Accession>
P08684

>  <Reference>
Bioorg Med Chem Lett 21 (24), 7399-7404 (2011)

>  <Pubmed ID>
22071301

>  <DOI>
10.1016/j.bmcl.2011.10.013

$$$$
1266716
Actelion Java MolfileCreator 1.0

 31 35  0  0  0  0  0  0  0  0999 V2000
    0.0000   -0.0000   -0.0000 Cl  0  0  0  0  0  0  0  0  0  0  0  0
   -0.0119   -1.4814   -0.0000 C   0  0  0  0  0  0  0  0  0  0  0  0
   -1.3154   -2.2161   -0.0000 C   0  0  0  0  0  0  0  0  0  0  0  0
    1.2680   -2.2161   -0.0000 C   0  0  0  0  0  0  0  0  0  0  0  0
   -1.3391   -3.6975   -0.0000 C   0  0  0  0  0  0  0  0  0  0  0  0
   -2.6190   -1.4577   -0.0000 C   0  0  0  0  0  0  0  0  0  0  0  0
    1.2562   -3.7093   -0.0000 C   0  0  0  0  0  0  0  0  0  0  0  0
   -0.0593   -4.4322   -0.0000 C   0  0  0  0  0  0  0  0  0  0  0  0
   -3.9345   -2.1924   -0.0000 N   0  0  0  0  0  0  0  0  0  0  0  0
    2.5361   -4.4441   -0.0000 Cl  0  0  0  0  0  0  0  0  0  0  0  0
   -5.2381   -1.4340   -0.0000 C   0  0  0  0  0  0  0  0  0  0  0  0
   -3.9463   -3.6738   -0.0000 C   0  0  0  0  0  0  0  0  0  0  0  0
   -5.2499    0.0711   -0.0000 O   0  0  0  0  0  0  0  0  0  0  0  0
   -6.5535   -2.1687   -0.0000 C   0  0  0  0  0  0  0  0  0  0  0  0
   -4.7048   -4.9536   -0.0000 C   0  0  0  0  0  0  0  0  0  0  0  0
   -3.1997   -4.9536   -0.0000 C   0  0  0  0  0  0  0  0  0  0  0  0
   -7.8571   -1.3984   -0.0000 C   0  0  0  0  0  0  0  0  0  0  0  0
   -6.5772   -3.6619   -0.0000 C   0  0  0  0  0  0  0  0  0  0  0  0
   -6.6483   -0.5214   -0.0000 O   0  0  0  0  0  0  0  0  0  0  0  0
   -9.0777   -0.4977   -0.0000 C   0  0  0  0  0  0  0  0  0  0  0  0
   -9.1844   -2.1450   -0.0000 C   0  0  0  0  0  0  0  0  0  0  0  0
   -7.8927   -4.3967   -0.0000 N   0  0  0  0  0  0  0  0  0  0  0  0
   -7.1105    0.9244   -0.0000 C   0  0  0  0  0  0  0  0  0  0  0  0
   -8.6156    0.9362   -0.0000 C   0  0  0  0  0  0  0  0  0  0  0  0
  -10.5472   -0.7822   -0.0000 C   0  0  0  0  0  0  0  0  0  0  0  0
   -9.1962   -3.6264   -0.0000 C   0  0  0  0  0  0  0  0  0  0  0  0
   -9.6110    2.0620   -0.0000 C   0  0  0  0  0  0  0  0  0  0  0  0
  -11.5546    0.3437   -0.0000 C   0  0  0  0  0  0  0  0  0  0  0  0
  -11.0924    1.7776   -0.0000 C   0  0  0  0  0  0  0  0  0  0  0  0
  -13.0359    0.0474   -0.0000 F   0  0  0  0  0  0  0  0  0  0  0  0
  -12.0997    2.9153   -0.0000 F   0  0  0  0  0  0  0  0  0  0  0  0
  1  2  1  0  0  0  0
  2  3  2  0  0  0  0
  2  4  1  0  0  0  0
  3  5  1  0  0  0  0
  3  6  1  0  0  0  0
  4  7  2  0  0  0  0
  5  8  2  0  0  0  0
  6  9  1  0  0  0  0
  7 10  1  0  0  0  0
  9 11  1  0  0  0  0
  9 12  1  0  0  0  0
 11 13  2  0  0  0  0
 14 11  1  6  0  0  0
 12 15  1  0  0  0  0
 12 16  1  0  0  0  0
 14 17  1  0  0  0  0
 14 18  1  0  0  0  0
 17 19  1  6  0  0  0
 17 20  1  0  0  0  0
 17 21  1  0  0  0  0
 18 22  1  0  0  0  0
 19 23  1  0  0  0  0
 20 24  2  0  0  0  0
 20 25  1  0  0  0  0
 21 26  1  0  0  0  0
 24 27  1  0  0  0  0
 25 28  2  0  0  0  0
 27 29  2  0  0  0  0
 28 30  1  0  0  0  0
 29 31  1  0  0  0  0
  7  8  1  0  0  0  0
 15 16  1  0  0  0  0
 22 26  1  0  0  0  0
 23 24  1  0  0  0  0
 28 29  1  0  0  0  0
M  END
>  <MolRegNo>
1266716

>  <m>
=

>  <Value>
1900

>  <Unit>
nM

>  <Type>
IC50

>  <pValue>
5.72

>  <Ligand Efficiency>
0

>  <Binding Efficiency>
0

>  <Surface Efficiency>
0

>  <Assay Index>
624435

>  <Assay Category>


>  <Assay Organism>


>  <Target ID>
17045

>  <Target Name>
Cytochrome P450 3A4

>  <Target Organism>
Homo sapiens

>  <Target Description>
Target is a single protein chain

>  <Sequence Accession>
P08684

>  <Reference>
Bioorg Med Chem Lett 21 (24), 7399-7404 (2011)

>  <Pubmed ID>
22071301

>  <DOI>
10.1016/j.bmcl.2011.10.013

$$$$
1266717
Actelion Java MolfileCreator 1.0

 31 35  0  0  0  0  0  0  0  0999 V2000
    0.0000   -0.0000   -0.0000 Cl  0  0  0  0  0  0  0  0  0  0  0  0
   -0.0119   -1.4818   -0.0000 C   0  0  0  0  0  0  0  0  0  0  0  0
   -1.3158   -2.2167   -0.0000 C   0  0  0  0  0  0  0  0  0  0  0  0
    1.2684   -2.2167   -0.0000 C   0  0  0  0  0  0  0  0  0  0  0  0
   -1.3395   -3.6985   -0.0000 C   0  0  0  0  0  0  0  0  0  0  0  0
   -2.6198   -1.4581   -0.0000 C   0  0  0  0  0  0  0  0  0  0  0  0
    1.2565   -3.7104   -0.0000 C   0  0  0  0  0  0  0  0  0  0  0  0
   -0.0593   -4.4335   -0.0000 C   0  0  0  0  0  0  0  0  0  0  0  0
   -3.9238   -2.1930   -0.0000 N   0  0  0  0  0  0  0  0  0  0  0  0
   -0.0711   -5.9153   -0.0000 Cl  0  0  0  0  0  0  0  0  0  0  0  0
   -5.2277   -1.4344   -0.0000 C   0  0  0  0  0  0  0  0  0  0  0  0
   -3.9356   -3.6748   -0.0000 C   0  0  0  0  0  0  0  0  0  0  0  0
   -5.2396    0.0711   -0.0000 O   0  0  0  0  0  0  0  0  0  0  0  0
   -6.5317   -2.1693   -0.0000 C   0  0  0  0  0  0  0  0  0  0  0  0
   -4.6943   -4.9551   -0.0000 C   0  0  0  0  0  0  0  0  0  0  0  0
   -3.1888   -4.9551   -0.0000 C   0  0  0  0  0  0  0  0  0  0  0  0
   -7.8356   -1.3988   -0.0000 C   0  0  0  0  0  0  0  0  0  0  0  0
   -6.5554   -3.6630   -0.0000 C   0  0  0  0  0  0  0  0  0  0  0  0
   -6.6265   -0.5216   -0.0000 O   0  0  0  0  0  0  0  0  0  0  0  0
   -9.0566   -0.4979   -0.0000 C   0  0  0  0  0  0  0  0  0  0  0  0
   -9.1633   -2.1456   -0.0000 C   0  0  0  0  0  0  0  0  0  0  0  0
   -7.8712   -4.3979   -0.0000 N   0  0  0  0  0  0  0  0  0  0  0  0
   -7.0888    0.9246   -0.0000 C   0  0  0  0  0  0  0  0  0  0  0  0
   -8.5943    0.9365   -0.0000 C   0  0  0  0  0  0  0  0  0  0  0  0
  -10.5266   -0.7824   -0.0000 C   0  0  0  0  0  0  0  0  0  0  0  0
   -9.1752   -3.6274   -0.0000 C   0  0  0  0  0  0  0  0  0  0  0  0
   -9.5901    2.0626   -0.0000 C   0  0  0  0  0  0  0  0  0  0  0  0
  -11.5342    0.3438   -0.0000 C   0  0  0  0  0  0  0  0  0  0  0  0
  -11.0719    1.7781   -0.0000 C   0  0  0  0  0  0  0  0  0  0  0  0
  -13.0159    0.0474   -0.0000 F   0  0  0  0  0  0  0  0  0  0  0  0
  -12.0795    2.9161   -0.0000 F   0  0  0  0  0  0  0  0  0  0  0  0
  1  2  1  0  0  0  0
  2  3  2  0  0  0  0
  2  4  1  0  0  0  0
  3  5  1  0  0  0  0
  3  6  1  0  0  0  0
  4  7  2  0  0  0  0
  5  8  2  0  0  0  0
  6  9  1  0  0  0  0
  8 10  1  0  0  0  0
  9 11  1  0  0  0  0
  9 12  1  0  0  0  0
 11 13  2  0  0  0  0
 14 11  1  6  0  0  0
 12 15  1  0  0  0  0
 12 16  1  0  0  0  0
 14 17  1  0  0  0  0
 14 18  1  0  0  0  0
 17 19  1  6  0  0  0
 17 20  1  0  0  0  0
 17 21  1  0  0  0  0
 18 22  1  0  0  0  0
 19 23  1  0  0  0  0
 20 24  2  0  0  0  0
 20 25  1  0  0  0  0
 21 26  1  0  0  0  0
 24 27  1  0  0  0  0
 25 28  2  0  0  0  0
 27 29  2  0  0  0  0
 28 30  1  0  0  0  0
 29 31  1  0  0  0  0
  7  8  1  0  0  0  0
 15 16  1  0  0  0  0
 22 26  1  0  0  0  0
 23 24  1  0  0  0  0
 28 29  1  0  0  0  0
M  END
>  <MolRegNo>
1266717

>  <m>
=

>  <Value>
1600

>  <Unit>
nM

>  <Type>
IC50

>  <pValue>
5.8

>  <Ligand Efficiency>
0

>  <Binding Efficiency>
0

>  <Surface Efficiency>
0

>  <Assay Index>
624435

>  <Assay Category>


>  <Assay Organism>


>  <Target ID>
17045

>  <Target Name>
Cytochrome P450 3A4

>  <Target Organism>
Homo sapiens

>  <Target Description>
Target is a single protein chain

>  <Sequence Accession>
P08684

>  <Reference>
Bioorg Med Chem Lett 21 (24), 7399-7404 (2011)

>  <Pubmed ID>
22071301

>  <DOI>
10.1016/j.bmcl.2011.10.013

$$$$
1266718
Actelion Java MolfileCreator 1.0

 31 35  0  0  0  0  0  0  0  0999 V2000
    0.0000   -0.0000   -0.0000 F   0  0  0  0  0  0  0  0  0  0  0  0
    1.4666    0.3219   -0.0000 C   0  0  0  0  0  0  0  0  0  0  0  0
    1.9316    1.7647   -0.0000 C   0  0  0  0  0  0  0  0  0  0  0  0
    2.4562   -0.7869   -0.0000 C   0  0  0  0  0  0  0  0  0  0  0  0
    0.9181    2.9093   -0.0000 F   0  0  0  0  0  0  0  0  0  0  0  0
    3.3982    2.0747   -0.0000 C   0  0  0  0  0  0  0  0  0  0  0  0
    3.9109   -0.4769   -0.0000 C   0  0  0  0  0  0  0  0  0  0  0  0
    4.3759    0.9658   -0.0000 C   0  0  0  0  0  0  0  0  0  0  0  0
    5.1152   -1.3593   -0.0000 C   0  0  0  0  0  0  0  0  0  0  0  0
    5.8663    0.9658   -0.0000 C   0  0  0  0  0  0  0  0  0  0  0  0
    6.3313   -0.4769   -0.0000 O   0  0  0  0  0  0  0  0  0  0  0  0
    6.4029   -2.1104   -0.0000 C   0  0  0  0  0  0  0  0  0  0  0  0
    3.7797   -2.1104   -0.0000 C   0  0  0  0  0  0  0  0  0  0  0  0
    7.7025   -1.3473   -0.0000 C   0  0  0  0  0  0  0  0  0  0  0  0
    6.3790   -3.6128   -0.0000 C   0  0  0  0  0  0  0  0  0  0  0  0
    3.7678   -3.6009   -0.0000 C   0  0  0  0  0  0  0  0  0  0  0  0
    7.6906    0.1669   -0.0000 O   0  0  0  0  0  0  0  0  0  0  0  0
    8.9903   -2.0866   -0.0000 N   0  0  0  0  0  0  0  0  0  0  0  0
    5.0555   -4.3521   -0.0000 N   0  0  0  0  0  0  0  0  0  0  0  0
    8.9784   -3.5770   -0.0000 C   0  0  0  0  0  0  0  0  0  0  0  0
   10.2899   -1.3235   -0.0000 C   0  0  0  0  0  0  0  0  0  0  0  0
    8.2153   -4.8648   -0.0000 C   0  0  0  0  0  0  0  0  0  0  0  0
    9.7295   -4.8648   -0.0000 C   0  0  0  0  0  0  0  0  0  0  0  0
   11.5777   -2.0628   -0.0000 C   0  0  0  0  0  0  0  0  0  0  0  0
   12.8654   -1.2997   -0.0000 C   0  0  0  0  0  0  0  0  0  0  0  0
   11.5538   -3.5532   -0.0000 C   0  0  0  0  0  0  0  0  0  0  0  0
   14.1531   -2.0389   -0.0000 C   0  0  0  0  0  0  0  0  0  0  0  0
   12.8535    0.2146   -0.0000 C   0  0  0  0  0  0  0  0  0  0  0  0
   12.8415   -4.2924   -0.0000 C   0  0  0  0  0  0  0  0  0  0  0  0
   14.1412   -3.5413   -0.0000 C   0  0  0  0  0  0  0  0  0  0  0  0
   15.4409   -1.2758   -0.0000 C   0  0  0  0  0  0  0  0  0  0  0  0
  1  2  1  0  0  0  0
  2  3  2  0  0  0  0
  2  4  1  0  0  0  0
  3  5  1  0  0  0  0
  3  6  1  0  0  0  0
  4  7  2  0  0  0  0
  6  8  2  0  0  0  0
  7  9  1  0  0  0  0
  8 10  1  0  0  0  0
  9 11  1  6  0  0  0
  9 12  1  0  0  0  0
  9 13  1  0  0  0  0
 12 14  1  6  0  0  0
 12 15  1  0  0  0  0
 13 16  1  0  0  0  0
 14 17  2  0  0  0  0
 14 18  1  0  0  0  0
 15 19  1  0  0  0  0
 18 20  1  0  0  0  0
 18 21  1  0  0  0  0
 20 22  1  0  0  0  0
 20 23  1  0  0  0  0
 21 24  1  0  0  0  0
 24 25  2  0  0  0  0
 24 26  1  0  0  0  0
 25 27  1  0  0  0  0
 25 28  1  0  0  0  0
 26 29  2  0  0  0  0
 27 30  2  0  0  0  0
 27 31  1  0  0  0  0
  7  8  1  0  0  0  0
 10 11  1  0  0  0  0
 16 19  1  0  0  0  0
 22 23  1  0  0  0  0
 29 30  1  0  0  0  0
M  END
>  <MolRegNo>
1266718

>  <m>
=

>  <Value>
5000

>  <Unit>
nM

>  <Type>
IC50

>  <pValue>
5.3

>  <Ligand Efficiency>
0

>  <Binding Efficiency>
0

>  <Surface Efficiency>
0

>  <Assay Index>
624435

>  <Assay Category>


>  <Assay Organism>


>  <Target ID>
17045

>  <Target Name>
Cytochrome P450 3A4

>  <Target Organism>
Homo sapiens

>  <Target Description>
Target is a single protein chain

>  <Sequence Accession>
P08684

>  <Reference>
Bioorg Med Chem Lett 21 (24), 7399-7404 (2011)

>  <Pubmed ID>
22071301

>  <DOI>
10.1016/j.bmcl.2011.10.013

$$$$
1266719
Actelion Java MolfileCreator 1.0

 34 38  0  0  0  0  0  0  0  0999 V2000
    0.0000   -0.0000   -0.0000 F   0  0  0  0  0  0  0  0  0  0  0  0
    1.4668    0.3220   -0.0000 C   0  0  0  0  0  0  0  0  0  0  0  0
    1.9319    1.7649   -0.0000 C   0  0  0  0  0  0  0  0  0  0  0  0
    2.4566   -0.7871   -0.0000 C   0  0  0  0  0  0  0  0  0  0  0  0
    0.9182    2.9097   -0.0000 F   0  0  0  0  0  0  0  0  0  0  0  0
    3.3987    2.0750   -0.0000 C   0  0  0  0  0  0  0  0  0  0  0  0
    3.9114   -0.4770   -0.0000 C   0  0  0  0  0  0  0  0  0  0  0  0
    4.3765    0.9659   -0.0000 C   0  0  0  0  0  0  0  0  0  0  0  0
    5.1159   -1.3595   -0.0000 C   0  0  0  0  0  0  0  0  0  0  0  0
    5.8672    0.9659   -0.0000 C   0  0  0  0  0  0  0  0  0  0  0  0
    6.3322   -0.4770   -0.0000 O   0  0  0  0  0  0  0  0  0  0  0  0
    6.4038   -2.1107   -0.0000 C   0  0  0  0  0  0  0  0  0  0  0  0
    3.7803   -2.1107   -0.0000 C   0  0  0  0  0  0  0  0  0  0  0  0
    7.6917   -1.3475   -0.0000 C   0  0  0  0  0  0  0  0  0  0  0  0
    6.3799   -3.6133   -0.0000 C   0  0  0  0  0  0  0  0  0  0  0  0
    3.7683   -3.6014   -0.0000 C   0  0  0  0  0  0  0  0  0  0  0  0
    7.6798    0.1670   -0.0000 O   0  0  0  0  0  0  0  0  0  0  0  0
    8.9796   -2.0869   -0.0000 N   0  0  0  0  0  0  0  0  0  0  0  0
    5.0563   -4.3527   -0.0000 N   0  0  0  0  0  0  0  0  0  0  0  0
    8.9677   -3.5775   -0.0000 C   0  0  0  0  0  0  0  0  0  0  0  0
   10.2675   -1.3237   -0.0000 C   0  0  0  0  0  0  0  0  0  0  0  0
    8.2045   -4.8655   -0.0000 C   0  0  0  0  0  0  0  0  0  0  0  0
    9.7190   -4.8655   -0.0000 C   0  0  0  0  0  0  0  0  0  0  0  0
   11.5554   -2.0630   -0.0000 C   0  0  0  0  0  0  0  0  0  0  0  0
   12.8434   -1.2998   -0.0000 C   0  0  0  0  0  0  0  0  0  0  0  0
   11.5316   -3.5537   -0.0000 C   0  0  0  0  0  0  0  0  0  0  0  0
   14.1313   -2.0392   -0.0000 C   0  0  0  0  0  0  0  0  0  0  0  0
   12.8314    0.2147   -0.0000 C   0  0  0  0  0  0  0  0  0  0  0  0
   12.8195   -4.2930   -0.0000 C   0  0  0  0  0  0  0  0  0  0  0  0
   14.1193   -3.5418   -0.0000 C   0  0  0  0  0  0  0  0  0  0  0  0
   15.4192   -1.2760   -0.0000 C   0  0  0  0  0  0  0  0  0  0  0  0
   16.7190   -2.0153   -0.0000 F   0  0  0  0  0  0  0  0  0  0  0  0
   15.4073    0.2385   -0.0000 F   0  0  0  0  0  0  0  0  0  0  0  0
   16.7071   -0.5009   -0.0000 F   0  0  0  0  0  0  0  0  0  0  0  0
  1  2  1  0  0  0  0
  2  3  2  0  0  0  0
  2  4  1  0  0  0  0
  3  5  1  0  0  0  0
  3  6  1  0  0  0  0
  4  7  2  0  0  0  0
  6  8  2  0  0  0  0
  7  9  1  0  0  0  0
  8 10  1  0  0  0  0
  9 11  1  6  0  0  0
  9 12  1  0  0  0  0
  9 13  1  0  0  0  0
 12 14  1  6  0  0  0
 12 15  1  0  0  0  0
 13 16  1  0  0  0  0
 14 17  2  0  0  0  0
 14 18  1  0  0  0  0
 15 19  1  0  0  0  0
 18 20  1  0  0  0  0
 18 21  1  0  0  0  0
 20 22  1  0  0  0  0
 20 23  1  0  0  0  0
 21 24  1  0  0  0  0
 24 25  2  0  0  0  0
 24 26  1  0  0  0  0
 25 27  1  0  0  0  0
 25 28  1  0  0  0  0
 26 29  2  0  0  0  0
 27 30  2  0  0  0  0
 27 31  1  0  0  0  0
 31 32  1  0  0  0  0
 31 33  1  0  0  0  0
 31 34  1  0  0  0  0
  7  8  1  0  0  0  0
 10 11  1  0  0  0  0
 16 19  1  0  0  0  0
 22 23  1  0  0  0  0
 29 30  1  0  0  0  0
M  END
>  <MolRegNo>
1266719

>  <m>
=

>  <Value>
2300

>  <Unit>
nM

>  <Type>
IC50

>  <pValue>
5.64

>  <Ligand Efficiency>
0

>  <Binding Efficiency>
0

>  <Surface Efficiency>
0

>  <Assay Index>
624435

>  <Assay Category>


>  <Assay Organism>


>  <Target ID>
17045

>  <Target Name>
Cytochrome P450 3A4

>  <Target Organism>
Homo sapiens

>  <Target Description>
Target is a single protein chain

>  <Sequence Accession>
P08684

>  <Reference>
Bioorg Med Chem Lett 21 (24), 7399-7404 (2011)

>  <Pubmed ID>
22071301

>  <DOI>
10.1016/j.bmcl.2011.10.013

$$$$
1266720
Actelion Java MolfileCreator 1.0

 34 38  0  0  0  0  0  0  0  0999 V2000
    0.0000   -0.0000   -0.0000 Cl  0  0  0  0  0  0  0  0  0  0  0  0
   -0.0119   -1.4817   -0.0000 C   0  0  0  0  0  0  0  0  0  0  0  0
    1.2683   -2.2166   -0.0000 C   0  0  0  0  0  0  0  0  0  0  0  0
   -1.3157   -2.2166   -0.0000 C   0  0  0  0  0  0  0  0  0  0  0  0
    1.2565   -3.7101   -0.0000 C   0  0  0  0  0  0  0  0  0  0  0  0
    2.5485   -1.4580   -0.0000 C   0  0  0  0  0  0  0  0  0  0  0  0
   -1.3394   -3.6982   -0.0000 C   0  0  0  0  0  0  0  0  0  0  0  0
   -2.6196   -1.4580   -0.0000 C   0  0  0  0  0  0  0  0  0  0  0  0
   -0.0593   -4.4450   -0.0000 C   0  0  0  0  0  0  0  0  0  0  0  0
    3.8405   -2.1929   -0.0000 F   0  0  0  0  0  0  0  0  0  0  0  0
    2.5366    0.0474   -0.0000 F   0  0  0  0  0  0  0  0  0  0  0  0
    3.8286   -0.6875   -0.0000 F   0  0  0  0  0  0  0  0  0  0  0  0
   -3.9235   -2.1929   -0.0000 N   0  0  0  0  0  0  0  0  0  0  0  0
   -5.2273   -1.4343   -0.0000 C   0  0  0  0  0  0  0  0  0  0  0  0
   -3.9353   -3.6745   -0.0000 C   0  0  0  0  0  0  0  0  0  0  0  0
   -5.2392    0.0711   -0.0000 O   0  0  0  0  0  0  0  0  0  0  0  0
   -6.5312   -2.1692   -0.0000 C   0  0  0  0  0  0  0  0  0  0  0  0
   -4.6939   -4.9547   -0.0000 C   0  0  0  0  0  0  0  0  0  0  0  0
   -3.1885   -4.9547   -0.0000 C   0  0  0  0  0  0  0  0  0  0  0  0
   -7.8351   -1.3987   -0.0000 C   0  0  0  0  0  0  0  0  0  0  0  0
   -6.5549   -3.6627   -0.0000 C   0  0  0  0  0  0  0  0  0  0  0  0
   -6.6260   -0.5215   -0.0000 O   0  0  0  0  0  0  0  0  0  0  0  0
   -9.0559   -0.4978   -0.0000 C   0  0  0  0  0  0  0  0  0  0  0  0
   -9.1626   -2.1455   -0.0000 C   0  0  0  0  0  0  0  0  0  0  0  0
   -7.8706   -4.3976   -0.0000 N   0  0  0  0  0  0  0  0  0  0  0  0
   -7.0883    0.9246   -0.0000 C   0  0  0  0  0  0  0  0  0  0  0  0
   -8.5937    0.9364   -0.0000 C   0  0  0  0  0  0  0  0  0  0  0  0
  -10.5258   -0.7823   -0.0000 C   0  0  0  0  0  0  0  0  0  0  0  0
   -9.1745   -3.6271   -0.0000 C   0  0  0  0  0  0  0  0  0  0  0  0
   -9.5893    2.0625   -0.0000 C   0  0  0  0  0  0  0  0  0  0  0  0
  -11.5333    0.3437   -0.0000 C   0  0  0  0  0  0  0  0  0  0  0  0
  -11.0710    1.7780   -0.0000 C   0  0  0  0  0  0  0  0  0  0  0  0
  -13.0150    0.0474   -0.0000 F   0  0  0  0  0  0  0  0  0  0  0  0
  -12.0785    2.9159   -0.0000 F   0  0  0  0  0  0  0  0  0  0  0  0
  1  2  1  0  0  0  0
  2  3  2  0  0  0  0
  2  4  1  0  0  0  0
  3  5  1  0  0  0  0
  3  6  1  0  0  0  0
  4  7  2  0  0  0  0
  4  8  1  0  0  0  0
  5  9  2  0  0  0  0
  6 10  1  0  0  0  0
  6 11  1  0  0  0  0
  6 12  1  0  0  0  0
  8 13  1  0  0  0  0
 13 14  1  0  0  0  0
 13 15  1  0  0  0  0
 14 16  2  0  0  0  0
 17 14  1  6  0  0  0
 15 18  1  0  0  0  0
 15 19  1  0  0  0  0
 17 20  1  0  0  0  0
 17 21  1  0  0  0  0
 20 22  1  6  0  0  0
 20 23  1  0  0  0  0
 20 24  1  0  0  0  0
 21 25  1  0  0  0  0
 22 26  1  0  0  0  0
 23 27  2  0  0  0  0
 23 28  1  0  0  0  0
 24 29  1  0  0  0  0
 27 30  1  0  0  0  0
 28 31  2  0  0  0  0
 30 32  2  0  0  0  0
 31 33  1  0  0  0  0
 32 34  1  0  0  0  0
  7  9  1  0  0  0  0
 18 19  1  0  0  0  0
 25 29  1  0  0  0  0
 26 27  1  0  0  0  0
 31 32  1  0  0  0  0
M  END
>  <MolRegNo>
1266720

>  <m>
=

>  <Value>
3600

>  <Unit>
nM

>  <Type>
IC50

>  <pValue>
5.44

>  <Ligand Efficiency>
0

>  <Binding Efficiency>
0

>  <Surface Efficiency>
0

>  <Assay Index>
624435

>  <Assay Category>


>  <Assay Organism>


>  <Target ID>
17045

>  <Target Name>
Cytochrome P450 3A4

>  <Target Organism>
Homo sapiens

>  <Target Description>
Target is a single protein chain

>  <Sequence Accession>
P08684

>  <Reference>
Bioorg Med Chem Lett 21 (24), 7399-7404 (2011)

>  <Pubmed ID>
22071301

>  <DOI>
10.1016/j.bmcl.2011.10.013

$$$$
1266721
Actelion Java MolfileCreator 1.0

 36 40  0  0  0  0  0  0  0  0999 V2000
    0.0000   -0.0000   -0.0000 F   0  0  0  0  0  0  0  0  0  0  0  0
    1.4677    0.3222   -0.0000 C   0  0  0  0  0  0  0  0  0  0  0  0
    1.9331    1.7660   -0.0000 C   0  0  0  0  0  0  0  0  0  0  0  0
    2.4581   -0.7876   -0.0000 C   0  0  0  0  0  0  0  0  0  0  0  0
    0.9188    2.9116   -0.0000 F   0  0  0  0  0  0  0  0  0  0  0  0
    3.4008    2.0763   -0.0000 C   0  0  0  0  0  0  0  0  0  0  0  0
    3.9139   -0.4773   -0.0000 C   0  0  0  0  0  0  0  0  0  0  0  0
    4.3793    0.9665   -0.0000 C   0  0  0  0  0  0  0  0  0  0  0  0
    5.1191   -1.3603   -0.0000 C   0  0  0  0  0  0  0  0  0  0  0  0
    5.8708    0.9665   -0.0000 C   0  0  0  0  0  0  0  0  0  0  0  0
    6.3362   -0.4773   -0.0000 O   0  0  0  0  0  0  0  0  0  0  0  0
    6.4078   -2.1121   -0.0000 C   0  0  0  0  0  0  0  0  0  0  0  0
    3.7826   -2.1121   -0.0000 C   0  0  0  0  0  0  0  0  0  0  0  0
    7.6965   -1.3484   -0.0000 C   0  0  0  0  0  0  0  0  0  0  0  0
    6.3839   -3.6156   -0.0000 C   0  0  0  0  0  0  0  0  0  0  0  0
    3.7707   -3.6036   -0.0000 C   0  0  0  0  0  0  0  0  0  0  0  0
    7.6846    0.1671   -0.0000 O   0  0  0  0  0  0  0  0  0  0  0  0
    8.9853   -2.0882   -0.0000 N   0  0  0  0  0  0  0  0  0  0  0  0
    5.0594   -4.3554   -0.0000 N   0  0  0  0  0  0  0  0  0  0  0  0
    8.9733   -3.5798   -0.0000 C   0  0  0  0  0  0  0  0  0  0  0  0
   10.2740   -1.3245   -0.0000 C   0  0  0  0  0  0  0  0  0  0  0  0
    8.2096   -4.8685   -0.0000 C   0  0  0  0  0  0  0  0  0  0  0  0
    9.7251   -4.8685   -0.0000 C   0  0  0  0  0  0  0  0  0  0  0  0
   11.5627   -2.0643   -0.0000 C   0  0  0  0  0  0  0  0  0  0  0  0
   12.8514   -1.3007   -0.0000 C   0  0  0  0  0  0  0  0  0  0  0  0
   11.5388   -3.5559   -0.0000 C   0  0  0  0  0  0  0  0  0  0  0  0
   14.1401   -2.0405   -0.0000 C   0  0  0  0  0  0  0  0  0  0  0  0
   12.8395    0.2148   -0.0000 C   0  0  0  0  0  0  0  0  0  0  0  0
   12.8276   -4.2957   -0.0000 C   0  0  0  0  0  0  0  0  0  0  0  0
   14.1282   -3.5440   -0.0000 C   0  0  0  0  0  0  0  0  0  0  0  0
   15.4289   -1.2768   -0.0000 C   0  0  0  0  0  0  0  0  0  0  0  0
   12.8156   -5.7873   -0.0000 C   0  0  0  0  0  0  0  0  0  0  0  0
   14.1044   -6.5271   -0.0000 C   0  0  0  0  0  0  0  0  0  0  0  0
   15.4050   -5.7635   -0.0000 C   0  0  0  0  0  0  0  0  0  0  0  0
   16.6937   -6.5033   -0.0000 O   0  0  0  0  0  0  0  0  0  0  0  0
   17.9944   -5.7396   -0.0000 C   0  0  0  0  0  0  0  0  0  0  0  0
  1  2  1  0  0  0  0
  2  3  2  0  0  0  0
  2  4  1  0  0  0  0
  3  5  1  0  0  0  0
  3  6  1  0  0  0  0
  4  7  2  0  0  0  0
  6  8  2  0  0  0  0
  7  9  1  0  0  0  0
  8 10  1  0  0  0  0
  9 11  1  6  0  0  0
  9 12  1  0  0  0  0
  9 13  1  0  0  0  0
 12 14  1  6  0  0  0
 12 15  1  0  0  0  0
 13 16  1  0  0  0  0
 14 17  2  0  0  0  0
 14 18  1  0  0  0  0
 15 19  1  0  0  0  0
 18 20  1  0  0  0  0
 18 21  1  0  0  0  0
 20 22  1  0  0  0  0
 20 23  1  0  0  0  0
 21 24  1  0  0  0  0
 24 25  2  0  0  0  0
 24 26  1  0  0  0  0
 25 27  1  0  0  0  0
 25 28  1  0  0  0  0
 26 29  2  0  0  0  0
 27 30  2  0  0  0  0
 27 31  1  0  0  0  0
 29 32  1  0  0  0  0
 32 33  1  0  0  0  0
 33 34  1  0  0  0  0
 34 35  1  0  0  0  0
 35 36  1  0  0  0  0
  7  8  1  0  0  0  0
 10 11  1  0  0  0  0
 16 19  1  0  0  0  0
 22 23  1  0  0  0  0
 29 30  1  0  0  0  0
M  END
>  <MolRegNo>
1266721

>  <m>
=

>  <Value>
3500

>  <Unit>
nM

>  <Type>
IC50

>  <pValue>
5.46

>  <Ligand Efficiency>
0

>  <Binding Efficiency>
0

>  <Surface Efficiency>
0

>  <Assay Index>
624435

>  <Assay Category>


>  <Assay Organism>


>  <Target ID>
17045

>  <Target Name>
Cytochrome P450 3A4

>  <Target Organism>
Homo sapiens

>  <Target Description>
Target is a single protein chain

>  <Sequence Accession>
P08684

>  <Reference>
Bioorg Med Chem Lett 21 (24), 7399-7404 (2011)

>  <Pubmed ID>
22071301

>  <DOI>
10.1016/j.bmcl.2011.10.013

$$$$
1266722
Actelion Java MolfileCreator 1.0

 33 38  0  0  0  0  0  0  0  0999 V2000
    0.0000   -0.0000   -0.0000 F   0  0  0  0  0  0  0  0  0  0  0  0
    1.4658    0.3218   -0.0000 C   0  0  0  0  0  0  0  0  0  0  0  0
    1.9306    1.7757   -0.0000 C   0  0  0  0  0  0  0  0  0  0  0  0
    2.4550   -0.7865   -0.0000 C   0  0  0  0  0  0  0  0  0  0  0  0
    0.9176    2.9198   -0.0000 F   0  0  0  0  0  0  0  0  0  0  0  0
    3.3964    2.0855   -0.0000 C   0  0  0  0  0  0  0  0  0  0  0  0
    3.9089   -0.4767   -0.0000 C   0  0  0  0  0  0  0  0  0  0  0  0
    4.3856    0.9653   -0.0000 C   0  0  0  0  0  0  0  0  0  0  0  0
    5.1125   -1.3586   -0.0000 C   0  0  0  0  0  0  0  0  0  0  0  0
    5.8753    0.9653   -0.0000 C   0  0  0  0  0  0  0  0  0  0  0  0
    6.3281   -0.4767   -0.0000 O   0  0  0  0  0  0  0  0  0  0  0  0
    6.3996   -2.1094   -0.0000 C   0  0  0  0  0  0  0  0  0  0  0  0
    3.7778   -2.1094   -0.0000 C   0  0  0  0  0  0  0  0  0  0  0  0
    7.6986   -1.3467   -0.0000 C   0  0  0  0  0  0  0  0  0  0  0  0
    6.3758   -3.6110   -0.0000 C   0  0  0  0  0  0  0  0  0  0  0  0
    3.7659   -3.5990   -0.0000 C   0  0  0  0  0  0  0  0  0  0  0  0
    7.6867    0.1668   -0.0000 O   0  0  0  0  0  0  0  0  0  0  0  0
    8.9857   -2.0855   -0.0000 N   0  0  0  0  0  0  0  0  0  0  0  0
    5.0530   -4.3498   -0.0000 N   0  0  0  0  0  0  0  0  0  0  0  0
    8.9738   -3.5752   -0.0000 C   0  0  0  0  0  0  0  0  0  0  0  0
   10.2847   -1.3228   -0.0000 C   0  0  0  0  0  0  0  0  0  0  0  0
    8.2111   -4.8623   -0.0000 C   0  0  0  0  0  0  0  0  0  0  0  0
    9.7246   -4.8623   -0.0000 C   0  0  0  0  0  0  0  0  0  0  0  0
   11.5717   -2.0617   -0.0000 C   0  0  0  0  0  0  0  0  0  0  0  0
   12.8588   -1.2990   -0.0000 C   0  0  0  0  0  0  0  0  0  0  0  0
   11.5479   -3.5514   -0.0000 C   0  0  0  0  0  0  0  0  0  0  0  0
   14.1459   -2.0379   -0.0000 C   0  0  0  0  0  0  0  0  0  0  0  0
   12.8350    0.2026   -0.0000 C   0  0  0  0  0  0  0  0  0  0  0  0
   12.8350   -4.2902   -0.0000 C   0  0  0  0  0  0  0  0  0  0  0  0
   14.1340   -3.5395   -0.0000 C   0  0  0  0  0  0  0  0  0  0  0  0
   15.4330   -1.2752   -0.0000 C   0  0  0  0  0  0  0  0  0  0  0  0
   14.1101    0.9772   -0.0000 C   0  0  0  0  0  0  0  0  0  0  0  0
   15.4210    0.2383   -0.0000 C   0  0  0  0  0  0  0  0  0  0  0  0
  1  2  1  0  0  0  0
  2  3  2  0  0  0  0
  2  4  1  0  0  0  0
  3  5  1  0  0  0  0
  3  6  1  0  0  0  0
  4  7  2  0  0  0  0
  6  8  2  0  0  0  0
  7  9  1  0  0  0  0
  8 10  1  0  0  0  0
  9 11  1  6  0  0  0
  9 12  1  0  0  0  0
  9 13  1  0  0  0  0
 12 14  1  6  0  0  0
 12 15  1  0  0  0  0
 13 16  1  0  0  0  0
 14 17  2  0  0  0  0
 14 18  1  0  0  0  0
 15 19  1  0  0  0  0
 18 20  1  0  0  0  0
 18 21  1  0  0  0  0
 20 22  1  0  0  0  0
 20 23  1  0  0  0  0
 21 24  1  0  0  0  0
 24 25  1  0  0  0  0
 24 26  2  0  0  0  0
 25 27  1  0  0  0  0
 25 28  2  0  0  0  0
 26 29  1  0  0  0  0
 27 30  1  0  0  0  0
 27 31  2  0  0  0  0
 28 32  1  0  0  0  0
 31 33  1  0  0  0  0
  7  8  1  0  0  0  0
 10 11  1  0  0  0  0
 16 19  1  0  0  0  0
 22 23  1  0  0  0  0
 29 30  2  0  0  0  0
 32 33  2  0  0  0  0
M  END
>  <MolRegNo>
1266722

>  <m>
=

>  <Value>
6000

>  <Unit>
nM

>  <Type>
IC50

>  <pValue>
5.22

>  <Ligand Efficiency>
0

>  <Binding Efficiency>
0

>  <Surface Efficiency>
0

>  <Assay Index>
624435

>  <Assay Category>


>  <Assay Organism>


>  <Target ID>
17045

>  <Target Name>
Cytochrome P450 3A4

>  <Target Organism>
Homo sapiens

>  <Target Description>
Target is a single protein chain

>  <Sequence Accession>
P08684

>  <Reference>
Bioorg Med Chem Lett 21 (24), 7399-7404 (2011)

>  <Pubmed ID>
22071301

>  <DOI>
10.1016/j.bmcl.2011.10.013

$$$$
1266723
Actelion Java MolfileCreator 1.0

 38 43  0  0  0  0  0  0  0  0999 V2000
    0.0000   -0.0000   -0.0000 F   0  0  0  0  0  0  0  0  0  0  0  0
    1.4665    0.3219   -0.0000 C   0  0  0  0  0  0  0  0  0  0  0  0
    1.9315    1.7765   -0.0000 C   0  0  0  0  0  0  0  0  0  0  0  0
    2.4561   -0.7869   -0.0000 C   0  0  0  0  0  0  0  0  0  0  0  0
    0.9181    2.9211   -0.0000 F   0  0  0  0  0  0  0  0  0  0  0  0
    3.3980    2.0865   -0.0000 C   0  0  0  0  0  0  0  0  0  0  0  0
    3.9107   -0.4769   -0.0000 C   0  0  0  0  0  0  0  0  0  0  0  0
    4.3876    0.9657   -0.0000 C   0  0  0  0  0  0  0  0  0  0  0  0
    5.1149   -1.3592   -0.0000 C   0  0  0  0  0  0  0  0  0  0  0  0
    5.8779    0.9657   -0.0000 C   0  0  0  0  0  0  0  0  0  0  0  0
    6.3310   -0.4769   -0.0000 O   0  0  0  0  0  0  0  0  0  0  0  0
    6.4025   -2.1103   -0.0000 C   0  0  0  0  0  0  0  0  0  0  0  0
    3.7795   -2.1103   -0.0000 C   0  0  0  0  0  0  0  0  0  0  0  0
    7.7021   -1.3473   -0.0000 C   0  0  0  0  0  0  0  0  0  0  0  0
    6.3787   -3.6126   -0.0000 C   0  0  0  0  0  0  0  0  0  0  0  0
    3.7676   -3.6007   -0.0000 C   0  0  0  0  0  0  0  0  0  0  0  0
    7.6902    0.1669   -0.0000 O   0  0  0  0  0  0  0  0  0  0  0  0
    8.9898   -2.0865   -0.0000 N   0  0  0  0  0  0  0  0  0  0  0  0
    5.0553   -4.3518   -0.0000 N   0  0  0  0  0  0  0  0  0  0  0  0
    8.9779   -3.5768   -0.0000 C   0  0  0  0  0  0  0  0  0  0  0  0
   10.2894   -1.3234   -0.0000 C   0  0  0  0  0  0  0  0  0  0  0  0
    8.2148   -4.8645   -0.0000 C   0  0  0  0  0  0  0  0  0  0  0  0
    9.7290   -4.8645   -0.0000 C   0  0  0  0  0  0  0  0  0  0  0  0
   11.5770   -2.0626   -0.0000 C   0  0  0  0  0  0  0  0  0  0  0  0
   12.8647   -1.2996   -0.0000 C   0  0  0  0  0  0  0  0  0  0  0  0
   11.5532   -3.5530   -0.0000 C   0  0  0  0  0  0  0  0  0  0  0  0
   14.1523   -2.0388   -0.0000 C   0  0  0  0  0  0  0  0  0  0  0  0
   12.8408    0.2027   -0.0000 C   0  0  0  0  0  0  0  0  0  0  0  0
   12.8408   -4.2922   -0.0000 C   0  0  0  0  0  0  0  0  0  0  0  0
   14.1404   -3.5411   -0.0000 C   0  0  0  0  0  0  0  0  0  0  0  0
   15.4400   -1.2757   -0.0000 C   0  0  0  0  0  0  0  0  0  0  0  0
   14.1166    0.9777   -0.0000 C   0  0  0  0  0  0  0  0  0  0  0  0
   12.8289   -5.7826   -0.0000 C   0  0  0  0  0  0  0  0  0  0  0  0
   15.4281    0.2385   -0.0000 C   0  0  0  0  0  0  0  0  0  0  0  0
   14.1166   -6.5218   -0.0000 C   0  0  0  0  0  0  0  0  0  0  0  0
   15.4162   -5.7587   -0.0000 C   0  0  0  0  0  0  0  0  0  0  0  0
   16.7038   -6.4979   -0.0000 O   0  0  0  0  0  0  0  0  0  0  0  0
   18.0034   -5.7349   -0.0000 C   0  0  0  0  0  0  0  0  0  0  0  0
  1  2  1  0  0  0  0
  2  3  2  0  0  0  0
  2  4  1  0  0  0  0
  3  5  1  0  0  0  0
  3  6  1  0  0  0  0
  4  7  2  0  0  0  0
  6  8  2  0  0  0  0
  7  9  1  0  0  0  0
  8 10  1  0  0  0  0
  9 11  1  6  0  0  0
  9 12  1  0  0  0  0
  9 13  1  0  0  0  0
 12 14  1  6  0  0  0
 12 15  1  0  0  0  0
 13 16  1  0  0  0  0
 14 17  2  0  0  0  0
 14 18  1  0  0  0  0
 15 19  1  0  0  0  0
 18 20  1  0  0  0  0
 18 21  1  0  0  0  0
 20 22  1  0  0  0  0
 20 23  1  0  0  0  0
 21 24  1  0  0  0  0
 24 25  1  0  0  0  0
 24 26  2  0  0  0  0
 25 27  1  0  0  0  0
 25 28  2  0  0  0  0
 26 29  1  0  0  0  0
 27 30  1  0  0  0  0
 27 31  2  0  0  0  0
 28 32  1  0  0  0  0
 29 33  1  0  0  0  0
 31 34  1  0  0  0  0
 33 35  1  0  0  0  0
 35 36  1  0  0  0  0
 36 37  1  0  0  0  0
 37 38  1  0  0  0  0
  7  8  1  0  0  0  0
 10 11  1  0  0  0  0
 16 19  1  0  0  0  0
 22 23  1  0  0  0  0
 29 30  2  0  0  0  0
 32 34  2  0  0  0  0
M  END
>  <MolRegNo>
1266723

>  <m>
=

>  <Value>
1600

>  <Unit>
nM

>  <Type>
IC50

>  <pValue>
5.8

>  <Ligand Efficiency>
0

>  <Binding Efficiency>
0

>  <Surface Efficiency>
0

>  <Assay Index>
624435

>  <Assay Category>


>  <Assay Organism>


>  <Target ID>
17045

>  <Target Name>
Cytochrome P450 3A4

>  <Target Organism>
Homo sapiens

>  <Target Description>
Target is a single protein chain

>  <Sequence Accession>
P08684

>  <Reference>
Bioorg Med Chem Lett 21 (24), 7399-7404 (2011)

>  <Pubmed ID>
22071301

>  <DOI>
10.1016/j.bmcl.2011.10.013

$$$$
1266724
Actelion Java MolfileCreator 1.0

 38 43  0  0  0  0  0  0  0  0999 V2000
    0.0000   -0.0000   -0.0000 F   0  0  0  0  0  0  0  0  0  0  0  0
    1.4634    0.3212   -0.0000 C   0  0  0  0  0  0  0  0  0  0  0  0
    1.9274    1.7727   -0.0000 C   0  0  0  0  0  0  0  0  0  0  0  0
    2.4509   -0.7852   -0.0000 C   0  0  0  0  0  0  0  0  0  0  0  0
    0.9161    2.9149   -0.0000 F   0  0  0  0  0  0  0  0  0  0  0  0
    3.3908    2.0820   -0.0000 C   0  0  0  0  0  0  0  0  0  0  0  0
    3.9023   -0.4759   -0.0000 C   0  0  0  0  0  0  0  0  0  0  0  0
    4.3782    0.9637   -0.0000 C   0  0  0  0  0  0  0  0  0  0  0  0
    5.1040   -1.3563   -0.0000 C   0  0  0  0  0  0  0  0  0  0  0  0
    5.8654    0.9637   -0.0000 C   0  0  0  0  0  0  0  0  0  0  0  0
    6.3175   -0.4759   -0.0000 O   0  0  0  0  0  0  0  0  0  0  0  0
    6.3889   -2.1058   -0.0000 C   0  0  0  0  0  0  0  0  0  0  0  0
    3.7715   -2.1058   -0.0000 C   0  0  0  0  0  0  0  0  0  0  0  0
    7.6857   -1.3444   -0.0000 C   0  0  0  0  0  0  0  0  0  0  0  0
    6.3651   -3.6049   -0.0000 C   0  0  0  0  0  0  0  0  0  0  0  0
    3.7596   -3.5930   -0.0000 C   0  0  0  0  0  0  0  0  0  0  0  0
    7.6738    0.1666   -0.0000 O   0  0  0  0  0  0  0  0  0  0  0  0
    8.9706   -2.0820   -0.0000 N   0  0  0  0  0  0  0  0  0  0  0  0
    5.0445   -4.3425   -0.0000 N   0  0  0  0  0  0  0  0  0  0  0  0
    8.9587   -3.5692   -0.0000 C   0  0  0  0  0  0  0  0  0  0  0  0
   10.2674   -1.3206   -0.0000 C   0  0  0  0  0  0  0  0  0  0  0  0
    8.1973   -4.8541   -0.0000 C   0  0  0  0  0  0  0  0  0  0  0  0
    9.7083   -4.8541   -0.0000 C   0  0  0  0  0  0  0  0  0  0  0  0
   11.5524   -2.0582   -0.0000 C   0  0  0  0  0  0  0  0  0  0  0  0
   12.8373   -1.2968   -0.0000 C   0  0  0  0  0  0  0  0  0  0  0  0
   11.5286   -3.5454   -0.0000 C   0  0  0  0  0  0  0  0  0  0  0  0
   14.1222   -2.0345   -0.0000 C   0  0  0  0  0  0  0  0  0  0  0  0
   12.8135    0.2023   -0.0000 C   0  0  0  0  0  0  0  0  0  0  0  0
   12.8135   -4.2831   -0.0000 C   0  0  0  0  0  0  0  0  0  0  0  0
   14.1103   -3.5335   -0.0000 C   0  0  0  0  0  0  0  0  0  0  0  0
   15.4071   -1.2730   -0.0000 C   0  0  0  0  0  0  0  0  0  0  0  0
   14.0865    0.9756   -0.0000 C   0  0  0  0  0  0  0  0  0  0  0  0
   11.4929    0.9637   -0.0000 C   0  0  0  0  0  0  0  0  0  0  0  0
   15.3952    0.2379   -0.0000 C   0  0  0  0  0  0  0  0  0  0  0  0
   11.4691    2.4747   -0.0000 C   0  0  0  0  0  0  0  0  0  0  0  0
   10.1485    3.2361   -0.0000 C   0  0  0  0  0  0  0  0  0  0  0  0
   10.1247    4.7471   -0.0000 O   0  0  0  0  0  0  0  0  0  0  0  0
    8.8041    5.5085   -0.0000 C   0  0  0  0  0  0  0  0  0  0  0  0
  1  2  1  0  0  0  0
  2  3  2  0  0  0  0
  2  4  1  0  0  0  0
  3  5  1  0  0  0  0
  3  6  1  0  0  0  0
  4  7  2  0  0  0  0
  6  8  2  0  0  0  0
  7  9  1  0  0  0  0
  8 10  1  0  0  0  0
  9 11  1  6  0  0  0
  9 12  1  0  0  0  0
  9 13  1  0  0  0  0
 12 14  1  6  0  0  0
 12 15  1  0  0  0  0
 13 16  1  0  0  0  0
 14 17  2  0  0  0  0
 14 18  1  0  0  0  0
 15 19  1  0  0  0  0
 18 20  1  0  0  0  0
 18 21  1  0  0  0  0
 20 22  1  0  0  0  0
 20 23  1  0  0  0  0
 21 24  1  0  0  0  0
 24 25  1  0  0  0  0
 24 26  2  0  0  0  0
 25 27  1  0  0  0  0
 25 28  2  0  0  0  0
 26 29  1  0  0  0  0
 27 30  1  0  0  0  0
 27 31  2  0  0  0  0
 28 32  1  0  0  0  0
 28 33  1  0  0  0  0
 31 34  1  0  0  0  0
 33 35  1  0  0  0  0
 35 36  1  0  0  0  0
 36 37  1  0  0  0  0
 37 38  1  0  0  0  0
  7  8  1  0  0  0  0
 10 11  1  0  0  0  0
 16 19  1  0  0  0  0
 22 23  1  0  0  0  0
 29 30  2  0  0  0  0
 32 34  2  0  0  0  0
M  END
>  <MolRegNo>
1266724

>  <m>
=

>  <Value>
15000

>  <Unit>
nM

>  <Type>
IC50

>  <pValue>
4.82

>  <Ligand Efficiency>
0

>  <Binding Efficiency>
0

>  <Surface Efficiency>
0

>  <Assay Index>
624435

>  <Assay Category>


>  <Assay Organism>


>  <Target ID>
17045

>  <Target Name>
Cytochrome P450 3A4

>  <Target Organism>
Homo sapiens

>  <Target Description>
Target is a single protein chain

>  <Sequence Accession>
P08684

>  <Reference>
Bioorg Med Chem Lett 21 (24), 7399-7404 (2011)

>  <Pubmed ID>
22071301

>  <DOI>
10.1016/j.bmcl.2011.10.013

$$$$
1266725
Actelion Java MolfileCreator 1.0

 33 38  0  0  0  0  0  0  0  0999 V2000
    0.0000   -0.0000   -0.0000 F   0  0  0  0  0  0  0  0  0  0  0  0
    1.4636    0.3213   -0.0000 C   0  0  0  0  0  0  0  0  0  0  0  0
    1.9277    1.7730   -0.0000 C   0  0  0  0  0  0  0  0  0  0  0  0
    2.4513   -0.7854   -0.0000 C   0  0  0  0  0  0  0  0  0  0  0  0
    0.9162    2.9153   -0.0000 F   0  0  0  0  0  0  0  0  0  0  0  0
    3.3913    2.0824   -0.0000 C   0  0  0  0  0  0  0  0  0  0  0  0
    3.9030   -0.4760   -0.0000 C   0  0  0  0  0  0  0  0  0  0  0  0
    4.3790    0.9638   -0.0000 C   0  0  0  0  0  0  0  0  0  0  0  0
    5.1048   -1.3565   -0.0000 C   0  0  0  0  0  0  0  0  0  0  0  0
    5.8664    0.9638   -0.0000 C   0  0  0  0  0  0  0  0  0  0  0  0
    6.3185   -0.4641   -0.0000 O   0  0  0  0  0  0  0  0  0  0  0  0
    6.3899   -2.1062   -0.0000 C   0  0  0  0  0  0  0  0  0  0  0  0
    3.7721   -2.1062   -0.0000 C   0  0  0  0  0  0  0  0  0  0  0  0
    7.6870   -1.3446   -0.0000 C   0  0  0  0  0  0  0  0  0  0  0  0
    6.3661   -3.6055   -0.0000 C   0  0  0  0  0  0  0  0  0  0  0  0
    3.7602   -3.5936   -0.0000 C   0  0  0  0  0  0  0  0  0  0  0  0
    7.6751    0.1785   -0.0000 O   0  0  0  0  0  0  0  0  0  0  0  0
    8.9840   -2.0824   -0.0000 N   0  0  0  0  0  0  0  0  0  0  0  0
    5.0453   -4.3433   -0.0000 N   0  0  0  0  0  0  0  0  0  0  0  0
    8.9721   -3.5817   -0.0000 C   0  0  0  0  0  0  0  0  0  0  0  0
   10.2810   -1.3208   -0.0000 C   0  0  0  0  0  0  0  0  0  0  0  0
    8.2105   -4.8668   -0.0000 C   0  0  0  0  0  0  0  0  0  0  0  0
    9.7218   -4.8787   -0.0000 C   0  0  0  0  0  0  0  0  0  0  0  0
   11.5781   -2.0586   -0.0000 C   0  0  0  0  0  0  0  0  0  0  0  0
   11.5543   -3.5579   -0.0000 N   0  0  0  0  0  0  0  0  0  0  0  0
   12.8632   -1.2970   -0.0000 C   0  0  0  0  0  0  0  0  0  0  0  0
   12.8394   -4.2957   -0.0000 C   0  0  0  0  0  0  0  0  0  0  0  0
   14.1483   -2.0348   -0.0000 C   0  0  0  0  0  0  0  0  0  0  0  0
   12.8394    0.2142   -0.0000 C   0  0  0  0  0  0  0  0  0  0  0  0
   14.1364   -3.5341   -0.0000 C   0  0  0  0  0  0  0  0  0  0  0  0
   15.4334   -1.2732   -0.0000 C   0  0  0  0  0  0  0  0  0  0  0  0
   14.1126    0.9876   -0.0000 C   0  0  0  0  0  0  0  0  0  0  0  0
   15.4215    0.2380   -0.0000 C   0  0  0  0  0  0  0  0  0  0  0  0
  1  2  1  0  0  0  0
  2  3  2  0  0  0  0
  2  4  1  0  0  0  0
  3  5  1  0  0  0  0
  3  6  1  0  0  0  0
  4  7  2  0  0  0  0
  6  8  2  0  0  0  0
  7  9  1  0  0  0  0
  8 10  1  0  0  0  0
  9 11  1  6  0  0  0
  9 12  1  0  0  0  0
  9 13  1  0  0  0  0
 12 14  1  6  0  0  0
 12 15  1  0  0  0  0
 13 16  1  0  0  0  0
 14 17  2  0  0  0  0
 14 18  1  0  0  0  0
 15 19  1  0  0  0  0
 18 20  1  0  0  0  0
 18 21  1  0  0  0  0
 20 22  1  0  0  0  0
 20 23  1  0  0  0  0
 21 24  1  0  0  0  0
 24 25  2  0  0  0  0
 24 26  1  0  0  0  0
 25 27  1  0  0  0  0
 26 28  1  0  0  0  0
 26 29  2  0  0  0  0
 27 30  2  0  0  0  0
 28 31  2  0  0  0  0
 29 32  1  0  0  0  0
 31 33  1  0  0  0  0
  7  8  1  0  0  0  0
 10 11  1  0  0  0  0
 16 19  1  0  0  0  0
 22 23  1  0  0  0  0
 28 30  1  0  0  0  0
 32 33  2  0  0  0  0
M  END
>  <MolRegNo>
1266725

>  <m>
=

>  <Value>
9300

>  <Unit>
nM

>  <Type>
IC50

>  <pValue>
5.03

>  <Ligand Efficiency>
0

>  <Binding Efficiency>
0

>  <Surface Efficiency>
0

>  <Assay Index>
624435

>  <Assay Category>


>  <Assay Organism>


>  <Target ID>
17045

>  <Target Name>
Cytochrome P450 3A4

>  <Target Organism>
Homo sapiens

>  <Target Description>
Target is a single protein chain

>  <Sequence Accession>
P08684

>  <Reference>
Bioorg Med Chem Lett 21 (24), 7399-7404 (2011)

>  <Pubmed ID>
22071301

>  <DOI>
10.1016/j.bmcl.2011.10.013

$$$$
1266726
Actelion Java MolfileCreator 1.0

 33 38  0  0  0  0  0  0  0  0999 V2000
    0.0000   -0.0000   -0.0000 F   0  0  0  0  0  0  0  0  0  0  0  0
    1.4658    0.3218   -0.0000 C   0  0  0  0  0  0  0  0  0  0  0  0
    1.9306    1.7757   -0.0000 C   0  0  0  0  0  0  0  0  0  0  0  0
    2.4550   -0.7865   -0.0000 C   0  0  0  0  0  0  0  0  0  0  0  0
    0.9176    2.9198   -0.0000 F   0  0  0  0  0  0  0  0  0  0  0  0
    3.3964    2.0855   -0.0000 C   0  0  0  0  0  0  0  0  0  0  0  0
    3.9089   -0.4767   -0.0000 C   0  0  0  0  0  0  0  0  0  0  0  0
    4.3856    0.9653   -0.0000 C   0  0  0  0  0  0  0  0  0  0  0  0
    5.1125   -1.3586   -0.0000 C   0  0  0  0  0  0  0  0  0  0  0  0
    5.8753    0.9653   -0.0000 C   0  0  0  0  0  0  0  0  0  0  0  0
    6.3281   -0.4767   -0.0000 O   0  0  0  0  0  0  0  0  0  0  0  0
    6.3996   -2.1094   -0.0000 C   0  0  0  0  0  0  0  0  0  0  0  0
    3.7778   -2.1094   -0.0000 C   0  0  0  0  0  0  0  0  0  0  0  0
    7.6986   -1.3467   -0.0000 C   0  0  0  0  0  0  0  0  0  0  0  0
    6.3758   -3.6110   -0.0000 C   0  0  0  0  0  0  0  0  0  0  0  0
    3.7659   -3.5990   -0.0000 C   0  0  0  0  0  0  0  0  0  0  0  0
    7.6867    0.1668   -0.0000 O   0  0  0  0  0  0  0  0  0  0  0  0
    8.9857   -2.0855   -0.0000 N   0  0  0  0  0  0  0  0  0  0  0  0
    5.0530   -4.3498   -0.0000 N   0  0  0  0  0  0  0  0  0  0  0  0
    8.9738   -3.5752   -0.0000 C   0  0  0  0  0  0  0  0  0  0  0  0
   10.2847   -1.3228   -0.0000 C   0  0  0  0  0  0  0  0  0  0  0  0
    8.2111   -4.8623   -0.0000 C   0  0  0  0  0  0  0  0  0  0  0  0
    9.7246   -4.8623   -0.0000 C   0  0  0  0  0  0  0  0  0  0  0  0
   11.5717   -2.0617   -0.0000 C   0  0  0  0  0  0  0  0  0  0  0  0
   12.8588   -1.2990   -0.0000 C   0  0  0  0  0  0  0  0  0  0  0  0
   11.5479   -3.5514   -0.0000 C   0  0  0  0  0  0  0  0  0  0  0  0
   14.1459   -2.0379   -0.0000 C   0  0  0  0  0  0  0  0  0  0  0  0
   12.8350    0.2026   -0.0000 C   0  0  0  0  0  0  0  0  0  0  0  0
   12.8350   -4.2902   -0.0000 C   0  0  0  0  0  0  0  0  0  0  0  0
   14.1340   -3.5395   -0.0000 N   0  0  0  0  0  0  0  0  0  0  0  0
   15.4330   -1.2752   -0.0000 C   0  0  0  0  0  0  0  0  0  0  0  0
   14.1101    0.9772   -0.0000 C   0  0  0  0  0  0  0  0  0  0  0  0
   15.4210    0.2383   -0.0000 C   0  0  0  0  0  0  0  0  0  0  0  0
  1  2  1  0  0  0  0
  2  3  2  0  0  0  0
  2  4  1  0  0  0  0
  3  5  1  0  0  0  0
  3  6  1  0  0  0  0
  4  7  2  0  0  0  0
  6  8  2  0  0  0  0
  7  9  1  0  0  0  0
  8 10  1  0  0  0  0
  9 11  1  6  0  0  0
  9 12  1  0  0  0  0
  9 13  1  0  0  0  0
 12 14  1  6  0  0  0
 12 15  1  0  0  0  0
 13 16  1  0  0  0  0
 14 17  2  0  0  0  0
 14 18  1  0  0  0  0
 15 19  1  0  0  0  0
 18 20  1  0  0  0  0
 18 21  1  0  0  0  0
 20 22  1  0  0  0  0
 20 23  1  0  0  0  0
 21 24  1  0  0  0  0
 24 25  1  0  0  0  0
 24 26  2  0  0  0  0
 25 27  1  0  0  0  0
 25 28  2  0  0  0  0
 26 29  1  0  0  0  0
 27 30  1  0  0  0  0
 27 31  2  0  0  0  0
 28 32  1  0  0  0  0
 31 33  1  0  0  0  0
  7  8  1  0  0  0  0
 10 11  1  0  0  0  0
 16 19  1  0  0  0  0
 22 23  1  0  0  0  0
 29 30  2  0  0  0  0
 32 33  2  0  0  0  0
M  END
>  <MolRegNo>
1266726

>  <m>
=

>  <Value>
31000

>  <Unit>
nM

>  <Type>
IC50

>  <pValue>
4.51

>  <Ligand Efficiency>
0

>  <Binding Efficiency>
0

>  <Surface Efficiency>
0

>  <Assay Index>
624435

>  <Assay Category>


>  <Assay Organism>


>  <Target ID>
17045

>  <Target Name>
Cytochrome P450 3A4

>  <Target Organism>
Homo sapiens

>  <Target Description>
Target is a single protein chain

>  <Sequence Accession>
P08684

>  <Reference>
Bioorg Med Chem Lett 21 (24), 7399-7404 (2011)

>  <Pubmed ID>
22071301

>  <DOI>
10.1016/j.bmcl.2011.10.013

$$$$
1266727
Actelion Java MolfileCreator 1.0

 33 38  0  0  0  0  0  0  0  0999 V2000
    0.0000   -0.0000   -0.0000 F   0  0  0  0  0  0  0  0  0  0  0  0
    1.4661    0.3218   -0.0000 C   0  0  0  0  0  0  0  0  0  0  0  0
    1.9310    1.7760   -0.0000 C   0  0  0  0  0  0  0  0  0  0  0  0
    2.4554   -0.7867   -0.0000 C   0  0  0  0  0  0  0  0  0  0  0  0
    0.9178    2.9203   -0.0000 F   0  0  0  0  0  0  0  0  0  0  0  0
    3.3971    2.0859   -0.0000 C   0  0  0  0  0  0  0  0  0  0  0  0
    3.9096   -0.4768   -0.0000 C   0  0  0  0  0  0  0  0  0  0  0  0
    4.3864    0.9655   -0.0000 C   0  0  0  0  0  0  0  0  0  0  0  0
    5.1135   -1.3588   -0.0000 C   0  0  0  0  0  0  0  0  0  0  0  0
    5.8763    0.9655   -0.0000 C   0  0  0  0  0  0  0  0  0  0  0  0
    6.3292   -0.4768   -0.0000 O   0  0  0  0  0  0  0  0  0  0  0  0
    6.4008   -2.1097   -0.0000 C   0  0  0  0  0  0  0  0  0  0  0  0
    3.7785   -2.1097   -0.0000 C   0  0  0  0  0  0  0  0  0  0  0  0
    7.7000   -1.3469   -0.0000 C   0  0  0  0  0  0  0  0  0  0  0  0
    6.3769   -3.6116   -0.0000 C   0  0  0  0  0  0  0  0  0  0  0  0
    3.7666   -3.5997   -0.0000 C   0  0  0  0  0  0  0  0  0  0  0  0
    7.6881    0.1669   -0.0000 O   0  0  0  0  0  0  0  0  0  0  0  0
    8.9873   -2.0859   -0.0000 N   0  0  0  0  0  0  0  0  0  0  0  0
    5.0539   -4.3506   -0.0000 N   0  0  0  0  0  0  0  0  0  0  0  0
    8.9754   -3.5758   -0.0000 C   0  0  0  0  0  0  0  0  0  0  0  0
   10.2865   -1.3231   -0.0000 C   0  0  0  0  0  0  0  0  0  0  0  0
    8.2125   -4.8632   -0.0000 C   0  0  0  0  0  0  0  0  0  0  0  0
    9.7263   -4.8632   -0.0000 C   0  0  0  0  0  0  0  0  0  0  0  0
   11.5738   -2.0621   -0.0000 C   0  0  0  0  0  0  0  0  0  0  0  0
   12.8611   -1.2992   -0.0000 C   0  0  0  0  0  0  0  0  0  0  0  0
   11.5500   -3.5520   -0.0000 C   0  0  0  0  0  0  0  0  0  0  0  0
   12.8373    0.2026   -0.0000 N   0  0  0  0  0  0  0  0  0  0  0  0
   14.1484   -2.0382   -0.0000 C   0  0  0  0  0  0  0  0  0  0  0  0
   12.8373   -4.2910   -0.0000 C   0  0  0  0  0  0  0  0  0  0  0  0
   14.1127    0.9774   -0.0000 C   0  0  0  0  0  0  0  0  0  0  0  0
   15.4357   -1.2754   -0.0000 C   0  0  0  0  0  0  0  0  0  0  0  0
   14.1365   -3.5401   -0.0000 C   0  0  0  0  0  0  0  0  0  0  0  0
   15.4119    0.2384   -0.0000 C   0  0  0  0  0  0  0  0  0  0  0  0
  1  2  1  0  0  0  0
  2  3  2  0  0  0  0
  2  4  1  0  0  0  0
  3  5  1  0  0  0  0
  3  6  1  0  0  0  0
  4  7  2  0  0  0  0
  6  8  2  0  0  0  0
  7  9  1  0  0  0  0
  8 10  1  0  0  0  0
  9 11  1  6  0  0  0
  9 12  1  0  0  0  0
  9 13  1  0  0  0  0
 12 14  1  6  0  0  0
 12 15  1  0  0  0  0
 13 16  1  0  0  0  0
 14 17  2  0  0  0  0
 14 18  1  0  0  0  0
 15 19  1  0  0  0  0
 18 20  1  0  0  0  0
 18 21  1  0  0  0  0
 20 22  1  0  0  0  0
 20 23  1  0  0  0  0
 21 24  1  0  0  0  0
 24 25  1  0  0  0  0
 24 26  2  0  0  0  0
 25 27  2  0  0  0  0
 25 28  1  0  0  0  0
 26 29  1  0  0  0  0
 27 30  1  0  0  0  0
 28 31  2  0  0  0  0
 28 32  1  0  0  0  0
 30 33  2  0  0  0  0
  7  8  1  0  0  0  0
 10 11  1  0  0  0  0
 16 19  1  0  0  0  0
 22 23  1  0  0  0  0
 29 32  2  0  0  0  0
 31 33  1  0  0  0  0
M  END
>  <MolRegNo>
1266727

>  <m>
=

>  <Value>
8900

>  <Unit>
nM

>  <Type>
IC50

>  <pValue>
5.05

>  <Ligand Efficiency>
0

>  <Binding Efficiency>
0

>  <Surface Efficiency>
0

>  <Assay Index>
624435

>  <Assay Category>


>  <Assay Organism>


>  <Target ID>
17045

>  <Target Name>
Cytochrome P450 3A4

>  <Target Organism>
Homo sapiens

>  <Target Description>
Target is a single protein chain

>  <Sequence Accession>
P08684

>  <Reference>
Bioorg Med Chem Lett 21 (24), 7399-7404 (2011)

>  <Pubmed ID>
22071301

>  <DOI>
10.1016/j.bmcl.2011.10.013

$$$$
1266728
Actelion Java MolfileCreator 1.0

 35 39  0  0  0  0  0  0  0  0999 V2000
    0.0000   -0.0000   -0.0000 Cl  0  0  0  0  0  0  0  0  0  0  0  0
   -0.0118   -1.4804   -0.0000 C   0  0  0  0  0  0  0  0  0  0  0  0
    1.2673   -2.2147   -0.0000 C   0  0  0  0  0  0  0  0  0  0  0  0
   -1.3146   -2.2147   -0.0000 C   0  0  0  0  0  0  0  0  0  0  0  0
    1.2554   -3.7070   -0.0000 C   0  0  0  0  0  0  0  0  0  0  0  0
    2.5464   -1.4568   -0.0000 C   0  0  0  0  0  0  0  0  0  0  0  0
   -1.3383   -3.6952   -0.0000 C   0  0  0  0  0  0  0  0  0  0  0  0
   -2.6174   -1.4568   -0.0000 C   0  0  0  0  0  0  0  0  0  0  0  0
   -0.0592   -4.4413   -0.0000 C   0  0  0  0  0  0  0  0  0  0  0  0
    3.8373   -2.1911   -0.0000 F   0  0  0  0  0  0  0  0  0  0  0  0
    2.5345    0.0474   -0.0000 F   0  0  0  0  0  0  0  0  0  0  0  0
    3.8255   -0.6869   -0.0000 F   0  0  0  0  0  0  0  0  0  0  0  0
   -3.9321   -2.1911   -0.0000 N   0  0  0  0  0  0  0  0  0  0  0  0
   -5.2348   -1.4331   -0.0000 C   0  0  0  0  0  0  0  0  0  0  0  0
   -3.9439   -3.6715   -0.0000 C   0  0  0  0  0  0  0  0  0  0  0  0
   -5.2467    0.0711   -0.0000 O   0  0  0  0  0  0  0  0  0  0  0  0
   -6.5495   -2.1674   -0.0000 C   0  0  0  0  0  0  0  0  0  0  0  0
   -4.7019   -4.9506   -0.0000 C   0  0  0  0  0  0  0  0  0  0  0  0
   -3.1978   -4.9506   -0.0000 C   0  0  0  0  0  0  0  0  0  0  0  0
   -7.8523   -1.3975   -0.0000 C   0  0  0  0  0  0  0  0  0  0  0  0
   -6.5732   -3.6596   -0.0000 C   0  0  0  0  0  0  0  0  0  0  0  0
   -6.6442   -0.5211   -0.0000 O   0  0  0  0  0  0  0  0  0  0  0  0
   -9.0721   -0.4974   -0.0000 C   0  0  0  0  0  0  0  0  0  0  0  0
   -9.1787   -2.1437   -0.0000 C   0  0  0  0  0  0  0  0  0  0  0  0
   -7.8878   -4.3939   -0.0000 N   0  0  0  0  0  0  0  0  0  0  0  0
   -7.1061    0.9238   -0.0000 C   0  0  0  0  0  0  0  0  0  0  0  0
   -8.6102    0.9356   -0.0000 C   0  0  0  0  0  0  0  0  0  0  0  0
  -10.5407   -0.7817   -0.0000 C   0  0  0  0  0  0  0  0  0  0  0  0
   -9.1906   -3.6241   -0.0000 C   0  0  0  0  0  0  0  0  0  0  0  0
   -6.2297    2.1437   -0.0000 O   0  0  0  0  0  0  0  0  0  0  0  0
   -9.6169    2.0726   -0.0000 C   0  0  0  0  0  0  0  0  0  0  0  0
  -11.5474    0.3435   -0.0000 C   0  0  0  0  0  0  0  0  0  0  0  0
  -11.0974    1.7884   -0.0000 C   0  0  0  0  0  0  0  0  0  0  0  0
  -13.0279    0.0474   -0.0000 F   0  0  0  0  0  0  0  0  0  0  0  0
  -12.1041    2.9254   -0.0000 F   0  0  0  0  0  0  0  0  0  0  0  0
  1  2  1  0  0  0  0
  2  3  2  0  0  0  0
  2  4  1  0  0  0  0
  3  5  1  0  0  0  0
  3  6  1  0  0  0  0
  4  7  2  0  0  0  0
  4  8  1  0  0  0  0
  5  9  2  0  0  0  0
  6 10  1  0  0  0  0
  6 11  1  0  0  0  0
  6 12  1  0  0  0  0
  8 13  1  0  0  0  0
 13 14  1  0  0  0  0
 13 15  1  0  0  0  0
 14 16  2  0  0  0  0
 17 14  1  6  0  0  0
 15 18  1  0  0  0  0
 15 19  1  0  0  0  0
 17 20  1  0  0  0  0
 17 21  1  0  0  0  0
 20 22  1  6  0  0  0
 20 23  1  0  0  0  0
 20 24  1  0  0  0  0
 21 25  1  0  0  0  0
 22 26  1  0  0  0  0
 23 27  2  0  0  0  0
 23 28  1  0  0  0  0
 24 29  1  0  0  0  0
 26 30  2  0  0  0  0
 27 31  1  0  0  0  0
 28 32  2  0  0  0  0
 31 33  2  0  0  0  0
 32 34  1  0  0  0  0
 33 35  1  0  0  0  0
  7  9  1  0  0  0  0
 18 19  1  0  0  0  0
 25 29  1  0  0  0  0
 26 27  1  0  0  0  0
 32 33  1  0  0  0  0
M  END
>  <MolRegNo>
1266728

>  <m>
=

>  <Value>
700

>  <Unit>
nM

>  <Type>
IC50

>  <pValue>
6.16

>  <Ligand Efficiency>
0

>  <Binding Efficiency>
0

>  <Surface Efficiency>
0

>  <Assay Index>
624435

>  <Assay Category>


>  <Assay Organism>


>  <Target ID>
17045

>  <Target Name>
Cytochrome P450 3A4

>  <Target Organism>
Homo sapiens

>  <Target Description>
Target is a single protein chain

>  <Sequence Accession>
P08684

>  <Reference>
Bioorg Med Chem Lett 21 (24), 7399-7404 (2011)

>  <Pubmed ID>
22071301

>  <DOI>
10.1016/j.bmcl.2011.10.013

$$$$
1266729
Actelion Java MolfileCreator 1.0

 44 49  0  0  0  0  0  0  0  0999 V2000
    0.0000   -0.0000   -0.0000 Cl  0  0  0  0  0  0  0  0  0  0  0  0
    0.7924    0.9365   -0.0000 C   0  0  0  0  0  0  0  0  0  0  0  0
    2.2812    0.6603   -0.0000 C   0  0  0  0  0  0  0  0  0  0  0  0
    0.2761    2.4013   -0.0000 C   0  0  0  0  0  0  0  0  0  0  0  0
    3.2777    1.8250   -0.0000 C   0  0  0  0  0  0  0  0  0  0  0  0
    2.7735   -0.7804   -0.0000 C   0  0  0  0  0  0  0  0  0  0  0  0
    1.2727    3.5659   -0.0000 C   0  0  0  0  0  0  0  0  0  0  0  0
   -1.2367    2.7134   -0.0000 C   0  0  0  0  0  0  0  0  0  0  0  0
    2.7615    3.2897   -0.0000 C   0  0  0  0  0  0  0  0  0  0  0  0
    4.2622   -1.0566   -0.0000 N   0  0  0  0  0  0  0  0  0  0  0  0
   -1.7529    4.1782   -0.0000 C   0  0  0  0  0  0  0  0  0  0  0  0
    3.7580    4.4664   -0.0000 C   0  0  0  0  0  0  0  0  0  0  0  0
    4.7545   -2.4973   -0.0000 C   0  0  0  0  0  0  0  0  0  0  0  0
    5.2588    0.1201   -0.0000 C   0  0  0  0  0  0  0  0  0  0  0  0
   -3.2657    4.4904   -0.0000 C   0  0  0  0  0  0  0  0  0  0  0  0
    3.2417    5.9311   -0.0000 C   0  0  0  0  0  0  0  0  0  0  0  0
    3.9381   -3.4098   -0.0000 O   0  0  0  0  0  0  0  0  0  0  0  0
    6.2433   -2.7735   -0.0000 C   0  0  0  0  0  0  0  0  0  0  0  0
    5.4749    1.5608   -0.0000 C   0  0  0  0  0  0  0  0  0  0  0  0
    6.6395    0.5643   -0.0000 C   0  0  0  0  0  0  0  0  0  0  0  0
   -3.7820    5.9551   -0.0000 N   0  0  0  0  0  0  0  0  0  0  0  0
    4.2382    7.1077   -0.0000 C   0  0  0  0  0  0  0  0  0  0  0  0
    6.7356   -4.2142   -0.0000 C   0  0  0  0  0  0  0  0  0  0  0  0
    7.1798   -1.6088   -0.0000 C   0  0  0  0  0  0  0  0  0  0  0  0
   -5.2948    6.2673   -0.0000 C   0  0  0  0  0  0  0  0  0  0  0  0
   -2.7855    7.1198   -0.0000 C   0  0  0  0  0  0  0  0  0  0  0  0
    3.7220    8.5725   -0.0000 O   0  0  0  0  0  0  0  0  0  0  0  0
    7.5640   -5.4389   -0.0000 O   0  0  0  0  0  0  0  0  0  0  0  0
    5.2828   -4.6825   -0.0000 C   0  0  0  0  0  0  0  0  0  0  0  0
    8.2243   -4.5144   -0.0000 C   0  0  0  0  0  0  0  0  0  0  0  0
    8.6686   -1.8610   -0.0000 N   0  0  0  0  0  0  0  0  0  0  0  0
   -5.7991    7.7321   -0.0000 C   0  0  0  0  0  0  0  0  0  0  0  0
   -3.2897    8.5845   -0.0000 C   0  0  0  0  0  0  0  0  0  0  0  0
    4.5144    9.5090   -0.0000 C   0  0  0  0  0  0  0  0  0  0  0  0
    6.7115   -6.6875   -0.0000 C   0  0  0  0  0  0  0  0  0  0  0  0
    5.2708   -6.1953   -0.0000 C   0  0  0  0  0  0  0  0  0  0  0  0
    3.9501   -3.8780   -0.0000 C   0  0  0  0  0  0  0  0  0  0  0  0
    9.1368   -3.3137   -0.0000 C   0  0  0  0  0  0  0  0  0  0  0  0
   -4.8025    8.8967   -0.0000 O   0  0  0  0  0  0  0  0  0  0  0  0
    3.9381   -6.9757   -0.0000 C   0  0  0  0  0  0  0  0  0  0  0  0
    2.5694   -4.6585   -0.0000 C   0  0  0  0  0  0  0  0  0  0  0  0
    2.5573   -6.2073   -0.0000 C   0  0  0  0  0  0  0  0  0  0  0  0
    1.4888   -4.0341   -0.0000 F   0  0  0  0  0  0  0  0  0  0  0  0
    1.4888   -6.8196   -0.0000 F   0  0  0  0  0  0  0  0  0  0  0  0
  1  2  1  0  0  0  0
  2  3  2  0  0  0  0
  2  4  1  0  0  0  0
  3  5  1  0  0  0  0
  3  6  1  0  0  0  0
  4  7  2  0  0  0  0
  4  8  1  0  0  0  0
  5  9  2  0  0  0  0
  6 10  1  0  0  0  0
  8 11  1  0  0  0  0
  9 12  1  0  0  0  0
 10 13  1  0  0  0  0
 10 14  1  0  0  0  0
 11 15  1  0  0  0  0
 12 16  1  0  0  0  0
 13 17  2  0  0  0  0
 18 13  1  6  0  0  0
 14 19  1  0  0  0  0
 14 20  1  0  0  0  0
 15 21  1  0  0  0  0
 16 22  1  0  0  0  0
 18 23  1  0  0  0  0
 18 24  1  0  0  0  0
 21 25  1  0  0  0  0
 21 26  1  0  0  0  0
 22 27  1  0  0  0  0
 23 28  1  6  0  0  0
 23 29  1  0  0  0  0
 23 30  1  0  0  0  0
 24 31  1  0  0  0  0
 25 32  1  0  0  0  0
 26 33  1  0  0  0  0
 27 34  1  0  0  0  0
 28 35  1  0  0  0  0
 29 36  2  0  0  0  0
 29 37  1  0  0  0  0
 30 38  1  0  0  0  0
 32 39  1  0  0  0  0
 36 40  1  0  0  0  0
 37 41  2  0  0  0  0
 40 42  2  0  0  0  0
 41 43  1  0  0  0  0
 42 44  1  0  0  0  0
  7  9  1  0  0  0  0
 19 20  1  0  0  0  0
 31 38  1  0  0  0  0
 33 39  1  0  0  0  0
 35 36  1  0  0  0  0
 41 42  1  0  0  0  0
M  END
>  <MolRegNo>
1266729

>  <m>
=

>  <Value>
2600

>  <Unit>
nM

>  <Type>
IC50

>  <pValue>
5.58

>  <Ligand Efficiency>
0

>  <Binding Efficiency>
0

>  <Surface Efficiency>
0

>  <Assay Index>
624435

>  <Assay Category>


>  <Assay Organism>


>  <Target ID>
17045

>  <Target Name>
Cytochrome P450 3A4

>  <Target Organism>
Homo sapiens

>  <Target Description>
Target is a single protein chain

>  <Sequence Accession>
P08684

>  <Reference>
Bioorg Med Chem Lett 21 (24), 7399-7404 (2011)

>  <Pubmed ID>
22071301

>  <DOI>
10.1016/j.bmcl.2011.10.013

$$$$
1266730
Actelion Java MolfileCreator 1.0

 43 47  0  0  0  0  0  0  0  0999 V2000
    0.0000   -0.0000   -0.0000 Cl  0  0  0  0  0  0  0  0  0  0  0  0
   -0.0119   -1.4835   -0.0000 C   0  0  0  0  0  0  0  0  0  0  0  0
   -1.3174   -2.2194   -0.0000 C   0  0  0  0  0  0  0  0  0  0  0  0
    1.2699   -2.2194   -0.0000 C   0  0  0  0  0  0  0  0  0  0  0  0
   -1.3411   -3.7029   -0.0000 C   0  0  0  0  0  0  0  0  0  0  0  0
   -2.6229   -1.4598   -0.0000 C   0  0  0  0  0  0  0  0  0  0  0  0
    1.2580   -3.7148   -0.0000 C   0  0  0  0  0  0  0  0  0  0  0  0
    2.5517   -1.4598   -0.0000 C   0  0  0  0  0  0  0  0  0  0  0  0
   -0.0593   -4.4388   -0.0000 C   0  0  0  0  0  0  0  0  0  0  0  0
   -3.9403   -2.1956   -0.0000 N   0  0  0  0  0  0  0  0  0  0  0  0
    3.8454   -2.1956   -0.0000 C   0  0  0  0  0  0  0  0  0  0  0  0
   -0.0712   -5.9223   -0.0000 C   0  0  0  0  0  0  0  0  0  0  0  0
   -5.2458   -1.4361   -0.0000 C   0  0  0  0  0  0  0  0  0  0  0  0
   -3.9522   -3.6792   -0.0000 C   0  0  0  0  0  0  0  0  0  0  0  0
    5.1271   -1.4361   -0.0000 C   0  0  0  0  0  0  0  0  0  0  0  0
    1.2106   -6.6582   -0.0000 C   0  0  0  0  0  0  0  0  0  0  0  0
   -5.2577    0.0712   -0.0000 O   0  0  0  0  0  0  0  0  0  0  0  0
   -6.5632   -2.1719   -0.0000 C   0  0  0  0  0  0  0  0  0  0  0  0
   -4.7117   -4.9610   -0.0000 C   0  0  0  0  0  0  0  0  0  0  0  0
   -3.2045   -4.9610   -0.0000 C   0  0  0  0  0  0  0  0  0  0  0  0
    6.4208   -2.1719   -0.0000 N   0  0  0  0  0  0  0  0  0  0  0  0
    2.5042   -5.8986   -0.0000 C   0  0  0  0  0  0  0  0  0  0  0  0
   -7.8687   -1.4005   -0.0000 C   0  0  0  0  0  0  0  0  0  0  0  0
   -6.5869   -3.6673   -0.0000 C   0  0  0  0  0  0  0  0  0  0  0  0
    6.4089   -3.6555   -0.0000 C   0  0  0  0  0  0  0  0  0  0  0  0
    7.7026   -1.4123   -0.0000 C   0  0  0  0  0  0  0  0  0  0  0  0
    3.7860   -6.6344   -0.0000 O   0  0  0  0  0  0  0  0  0  0  0  0
   -6.6582   -0.5222   -0.0000 O   0  0  0  0  0  0  0  0  0  0  0  0
   -9.0912   -0.4985   -0.0000 C   0  0  0  0  0  0  0  0  0  0  0  0
   -9.1980   -2.1482   -0.0000 C   0  0  0  0  0  0  0  0  0  0  0  0
   -7.9043   -4.4032   -0.0000 N   0  0  0  0  0  0  0  0  0  0  0  0
    5.1034   -4.3913   -0.0000 C   0  0  0  0  0  0  0  0  0  0  0  0
    7.6907    0.0949   -0.0000 C   0  0  0  0  0  0  0  0  0  0  0  0
    5.0797   -5.8748   -0.0000 C   0  0  0  0  0  0  0  0  0  0  0  0
   -7.1210    0.9257   -0.0000 C   0  0  0  0  0  0  0  0  0  0  0  0
   -8.6283    0.9376   -0.0000 C   0  0  0  0  0  0  0  0  0  0  0  0
  -10.5628   -0.7833   -0.0000 C   0  0  0  0  0  0  0  0  0  0  0  0
   -9.2099   -3.6317   -0.0000 C   0  0  0  0  0  0  0  0  0  0  0  0
   -9.6371    2.0770   -0.0000 C   0  0  0  0  0  0  0  0  0  0  0  0
  -11.5717    0.3442   -0.0000 C   0  0  0  0  0  0  0  0  0  0  0  0
  -11.1207    1.7921   -0.0000 C   0  0  0  0  0  0  0  0  0  0  0  0
  -13.0552    0.0475   -0.0000 F   0  0  0  0  0  0  0  0  0  0  0  0
  -12.1295    2.9315   -0.0000 F   0  0  0  0  0  0  0  0  0  0  0  0
  1  2  1  0  0  0  0
  2  3  2  0  0  0  0
  2  4  1  0  0  0  0
  3  5  1  0  0  0  0
  3  6  1  0  0  0  0
  4  7  2  0  0  0  0
  4  8  1  0  0  0  0
  5  9  2  0  0  0  0
  6 10  1  0  0  0  0
  8 11  1  0  0  0  0
  9 12  1  0  0  0  0
 10 13  1  0  0  0  0
 10 14  1  0  0  0  0
 11 15  1  0  0  0  0
 12 16  1  0  0  0  0
 13 17  2  0  0  0  0
 18 13  1  6  0  0  0
 14 19  1  0  0  0  0
 14 20  1  0  0  0  0
 15 21  1  0  0  0  0
 16 22  1  0  0  0  0
 18 23  1  0  0  0  0
 18 24  1  0  0  0  0
 21 25  1  0  0  0  0
 21 26  1  0  0  0  0
 22 27  1  0  0  0  0
 23 28  1  6  0  0  0
 23 29  1  0  0  0  0
 23 30  1  0  0  0  0
 24 31  1  0  0  0  0
 25 32  1  0  0  0  0
 26 33  1  0  0  0  0
 27 34  1  0  0  0  0
 28 35  1  0  0  0  0
 29 36  2  0  0  0  0
 29 37  1  0  0  0  0
 30 38  1  0  0  0  0
 36 39  1  0  0  0  0
 37 40  2  0  0  0  0
 39 41  2  0  0  0  0
 40 42  1  0  0  0  0
 41 43  1  0  0  0  0
  7  9  1  0  0  0  0
 19 20  1  0  0  0  0
 31 38  1  0  0  0  0
 35 36  1  0  0  0  0
 40 41  1  0  0  0  0
M  END
>  <MolRegNo>
1266730

>  <m>
=

>  <Value>
5800

>  <Unit>
nM

>  <Type>
IC50

>  <pValue>
5.24

>  <Ligand Efficiency>
0

>  <Binding Efficiency>
0

>  <Surface Efficiency>
0

>  <Assay Index>
624435

>  <Assay Category>


>  <Assay Organism>


>  <Target ID>
17045

>  <Target Name>
Cytochrome P450 3A4

>  <Target Organism>
Homo sapiens

>  <Target Description>
Target is a single protein chain

>  <Sequence Accession>
P08684

>  <Reference>
Bioorg Med Chem Lett 21 (24), 7399-7404 (2011)

>  <Pubmed ID>
22071301

>  <DOI>
10.1016/j.bmcl.2011.10.013

$$$$
1266731
Actelion Java MolfileCreator 1.0

 44 48  0  0  0  0  0  0  0  0999 V2000
    0.0000   -0.0000   -0.0000 Cl  0  0  0  0  0  0  0  0  0  0  0  0
   -0.0119   -1.4840   -0.0000 C   0  0  0  0  0  0  0  0  0  0  0  0
   -1.3178   -2.2201   -0.0000 C   0  0  0  0  0  0  0  0  0  0  0  0
    1.2703   -2.2201   -0.0000 C   0  0  0  0  0  0  0  0  0  0  0  0
   -1.3416   -3.7042   -0.0000 C   0  0  0  0  0  0  0  0  0  0  0  0
   -2.6238   -1.4603   -0.0000 C   0  0  0  0  0  0  0  0  0  0  0  0
    1.2585   -3.7160   -0.0000 C   0  0  0  0  0  0  0  0  0  0  0  0
    2.5525   -1.4603   -0.0000 C   0  0  0  0  0  0  0  0  0  0  0  0
   -0.0594   -4.4402   -0.0000 C   0  0  0  0  0  0  0  0  0  0  0  0
   -3.9416   -2.1964   -0.0000 N   0  0  0  0  0  0  0  0  0  0  0  0
    3.8466   -2.1964   -0.0000 C   0  0  0  0  0  0  0  0  0  0  0  0
   -0.0712   -5.9243   -0.0000 C   0  0  0  0  0  0  0  0  0  0  0  0
   -5.2476   -1.4365   -0.0000 C   0  0  0  0  0  0  0  0  0  0  0  0
   -3.9535   -3.6804   -0.0000 C   0  0  0  0  0  0  0  0  0  0  0  0
    5.1288   -1.4365   -0.0000 C   0  0  0  0  0  0  0  0  0  0  0  0
    1.2110   -6.6604   -0.0000 C   0  0  0  0  0  0  0  0  0  0  0  0
   -5.2594    0.0712   -0.0000 O   0  0  0  0  0  0  0  0  0  0  0  0
   -6.5654   -2.1726   -0.0000 C   0  0  0  0  0  0  0  0  0  0  0  0
   -4.7133   -4.9626   -0.0000 C   0  0  0  0  0  0  0  0  0  0  0  0
   -3.2055   -4.9626   -0.0000 C   0  0  0  0  0  0  0  0  0  0  0  0
    6.4229   -2.1726   -0.0000 C   0  0  0  0  0  0  0  0  0  0  0  0
    2.5051   -5.9005   -0.0000 C   0  0  0  0  0  0  0  0  0  0  0  0
   -7.8713   -1.4009   -0.0000 C   0  0  0  0  0  0  0  0  0  0  0  0
   -6.5891   -3.6685   -0.0000 C   0  0  0  0  0  0  0  0  0  0  0  0
    7.7051   -1.4128   -0.0000 N   0  0  0  0  0  0  0  0  0  0  0  0
    3.7873   -6.6366   -0.0000 O   0  0  0  0  0  0  0  0  0  0  0  0
   -6.6604   -0.5224   -0.0000 O   0  0  0  0  0  0  0  0  0  0  0  0
   -9.0942   -0.4986   -0.0000 C   0  0  0  0  0  0  0  0  0  0  0  0
   -9.2010   -2.1489   -0.0000 C   0  0  0  0  0  0  0  0  0  0  0  0
   -7.9070   -4.4046   -0.0000 N   0  0  0  0  0  0  0  0  0  0  0  0
    8.9873   -2.1489   -0.0000 S   0  0  0  0  0  0  0  0  0  0  0  0
    5.0813   -5.8768   -0.0000 C   0  0  0  0  0  0  0  0  0  0  0  0
   -7.1234    0.9260   -0.0000 C   0  0  0  0  0  0  0  0  0  0  0  0
   -8.6312    0.9379   -0.0000 C   0  0  0  0  0  0  0  0  0  0  0  0
  -10.5664   -0.7836   -0.0000 C   0  0  0  0  0  0  0  0  0  0  0  0
   -9.2129   -3.6329   -0.0000 C   0  0  0  0  0  0  0  0  0  0  0  0
    9.6759   -3.4667   -0.0000 O   0  0  0  0  0  0  0  0  0  0  0  0
    8.1681   -3.4074   -0.0000 O   0  0  0  0  0  0  0  0  0  0  0  0
   10.2814   -1.3891   -0.0000 C   0  0  0  0  0  0  0  0  0  0  0  0
   -9.6403    2.0777   -0.0000 C   0  0  0  0  0  0  0  0  0  0  0  0
  -11.5755    0.3443   -0.0000 C   0  0  0  0  0  0  0  0  0  0  0  0
  -11.1244    1.7927   -0.0000 C   0  0  0  0  0  0  0  0  0  0  0  0
  -13.0595    0.0475   -0.0000 F   0  0  0  0  0  0  0  0  0  0  0  0
  -12.1335    2.9325   -0.0000 F   0  0  0  0  0  0  0  0  0  0  0  0
  1  2  1  0  0  0  0
  2  3  2  0  0  0  0
  2  4  1  0  0  0  0
  3  5  1  0  0  0  0
  3  6  1  0  0  0  0
  4  7  2  0  0  0  0
  4  8  1  0  0  0  0
  5  9  2  0  0  0  0
  6 10  1  0  0  0  0
  8 11  1  0  0  0  0
  9 12  1  0  0  0  0
 10 13  1  0  0  0  0
 10 14  1  0  0  0  0
 11 15  1  0  0  0  0
 12 16  1  0  0  0  0
 13 17  2  0  0  0  0
 18 13  1  6  0  0  0
 14 19  1  0  0  0  0
 14 20  1  0  0  0  0
 15 21  1  0  0  0  0
 16 22  1  0  0  0  0
 18 23  1  0  0  0  0
 18 24  1  0  0  0  0
 21 25  1  0  0  0  0
 22 26  1  0  0  0  0
 23 27  1  6  0  0  0
 23 28  1  0  0  0  0
 23 29  1  0  0  0  0
 24 30  1  0  0  0  0
 25 31  1  0  0  0  0
 26 32  1  0  0  0  0
 27 33  1  0  0  0  0
 28 34  2  0  0  0  0
 28 35  1  0  0  0  0
 29 36  1  0  0  0  0
 31 37  2  0  0  0  0
 31 38  2  0  0  0  0
 31 39  1  0  0  0  0
 34 40  1  0  0  0  0
 35 41  2  0  0  0  0
 40 42  2  0  0  0  0
 41 43  1  0  0  0  0
 42 44  1  0  0  0  0
  7  9  1  0  0  0  0
 19 20  1  0  0  0  0
 30 36  1  0  0  0  0
 33 34  1  0  0  0  0
 41 42  1  0  0  0  0
M  END
>  <MolRegNo>
1266731

>  <m>
=

>  <Value>
2200

>  <Unit>
nM

>  <Type>
IC50

>  <pValue>
5.66

>  <Ligand Efficiency>
0

>  <Binding Efficiency>
0

>  <Surface Efficiency>
0

>  <Assay Index>
624435

>  <Assay Category>


>  <Assay Organism>


>  <Target ID>
17045

>  <Target Name>
Cytochrome P450 3A4

>  <Target Organism>
Homo sapiens

>  <Target Description>
Target is a single protein chain

>  <Sequence Accession>
P08684

>  <Reference>
Bioorg Med Chem Lett 21 (24), 7399-7404 (2011)

>  <Pubmed ID>
22071301

>  <DOI>
10.1016/j.bmcl.2011.10.013

$$$$
1266732
Actelion Java MolfileCreator 1.0

 43 47  0  0  0  0  0  0  0  0999 V2000
    0.0000   -0.0000   -0.0000 Cl  0  0  0  0  0  0  0  0  0  0  0  0
   -0.0119   -1.4827   -0.0000 C   0  0  0  0  0  0  0  0  0  0  0  0
   -1.3166   -2.2181   -0.0000 C   0  0  0  0  0  0  0  0  0  0  0  0
    1.2692   -2.2181   -0.0000 C   0  0  0  0  0  0  0  0  0  0  0  0
   -1.3404   -3.7008   -0.0000 C   0  0  0  0  0  0  0  0  0  0  0  0
   -2.6214   -1.4590   -0.0000 C   0  0  0  0  0  0  0  0  0  0  0  0
    1.2573   -3.7127   -0.0000 C   0  0  0  0  0  0  0  0  0  0  0  0
    2.5502   -1.4590   -0.0000 C   0  0  0  0  0  0  0  0  0  0  0  0
   -0.0593   -4.4362   -0.0000 C   0  0  0  0  0  0  0  0  0  0  0  0
   -3.9380   -2.1944   -0.0000 N   0  0  0  0  0  0  0  0  0  0  0  0
    3.8431   -2.1944   -0.0000 C   0  0  0  0  0  0  0  0  0  0  0  0
   -0.0712   -5.9189   -0.0000 C   0  0  0  0  0  0  0  0  0  0  0  0
   -5.2428   -1.4352   -0.0000 C   0  0  0  0  0  0  0  0  0  0  0  0
   -3.9499   -3.6771   -0.0000 C   0  0  0  0  0  0  0  0  0  0  0  0
    5.1242   -1.4352   -0.0000 C   0  0  0  0  0  0  0  0  0  0  0  0
    1.2099   -6.6543   -0.0000 C   0  0  0  0  0  0  0  0  0  0  0  0
   -5.2547    0.0712   -0.0000 O   0  0  0  0  0  0  0  0  0  0  0  0
   -6.5594   -2.1707   -0.0000 C   0  0  0  0  0  0  0  0  0  0  0  0
   -4.7090   -4.9581   -0.0000 C   0  0  0  0  0  0  0  0  0  0  0  0
   -3.2026   -4.9581   -0.0000 C   0  0  0  0  0  0  0  0  0  0  0  0
    6.4171   -2.1707   -0.0000 N   0  0  0  0  0  0  0  0  0  0  0  0
    2.5028   -5.8952   -0.0000 C   0  0  0  0  0  0  0  0  0  0  0  0
   -7.8642   -1.3997   -0.0000 C   0  0  0  0  0  0  0  0  0  0  0  0
   -6.5832   -3.6652   -0.0000 C   0  0  0  0  0  0  0  0  0  0  0  0
    7.6982   -1.3997   -0.0000 S   0  0  0  0  0  0  0  0  0  0  0  0
    3.7838   -6.6306   -0.0000 O   0  0  0  0  0  0  0  0  0  0  0  0
   -6.6543   -0.5219   -0.0000 O   0  0  0  0  0  0  0  0  0  0  0  0
   -9.0860   -0.4982   -0.0000 C   0  0  0  0  0  0  0  0  0  0  0  0
   -9.1927   -2.1469   -0.0000 C   0  0  0  0  0  0  0  0  0  0  0  0
   -7.8998   -4.4006   -0.0000 N   0  0  0  0  0  0  0  0  0  0  0  0
    6.9272   -0.0830   -0.0000 O   0  0  0  0  0  0  0  0  0  0  0  0
    8.4336   -0.0830   -0.0000 O   0  0  0  0  0  0  0  0  0  0  0  0
    8.9911   -2.1351   -0.0000 C   0  0  0  0  0  0  0  0  0  0  0  0
    5.0767   -5.8715   -0.0000 C   0  0  0  0  0  0  0  0  0  0  0  0
   -7.1169    0.9252   -0.0000 C   0  0  0  0  0  0  0  0  0  0  0  0
   -8.6234    0.9371   -0.0000 C   0  0  0  0  0  0  0  0  0  0  0  0
  -10.5568   -0.7829   -0.0000 C   0  0  0  0  0  0  0  0  0  0  0  0
   -9.2046   -3.6296   -0.0000 C   0  0  0  0  0  0  0  0  0  0  0  0
   -9.6316    2.0758   -0.0000 C   0  0  0  0  0  0  0  0  0  0  0  0
  -11.5650    0.3440   -0.0000 C   0  0  0  0  0  0  0  0  0  0  0  0
  -11.1143    1.7911   -0.0000 C   0  0  0  0  0  0  0  0  0  0  0  0
  -13.0477    0.0474   -0.0000 F   0  0  0  0  0  0  0  0  0  0  0  0
  -12.1225    2.9298   -0.0000 F   0  0  0  0  0  0  0  0  0  0  0  0
  1  2  1  0  0  0  0
  2  3  2  0  0  0  0
  2  4  1  0  0  0  0
  3  5  1  0  0  0  0
  3  6  1  0  0  0  0
  4  7  2  0  0  0  0
  4  8  1  0  0  0  0
  5  9  2  0  0  0  0
  6 10  1  0  0  0  0
  8 11  1  0  0  0  0
  9 12  1  0  0  0  0
 10 13  1  0  0  0  0
 10 14  1  0  0  0  0
 11 15  1  0  0  0  0
 12 16  1  0  0  0  0
 13 17  2  0  0  0  0
 18 13  1  6  0  0  0
 14 19  1  0  0  0  0
 14 20  1  0  0  0  0
 15 21  1  0  0  0  0
 16 22  1  0  0  0  0
 18 23  1  0  0  0  0
 18 24  1  0  0  0  0
 21 25  1  0  0  0  0
 22 26  1  0  0  0  0
 23 27  1  6  0  0  0
 23 28  1  0  0  0  0
 23 29  1  0  0  0  0
 24 30  1  0  0  0  0
 25 31  2  0  0  0  0
 25 32  2  0  0  0  0
 25 33  1  0  0  0  0
 26 34  1  0  0  0  0
 27 35  1  0  0  0  0
 28 36  2  0  0  0  0
 28 37  1  0  0  0  0
 29 38  1  0  0  0  0
 36 39  1  0  0  0  0
 37 40  2  0  0  0  0
 39 41  2  0  0  0  0
 40 42  1  0  0  0  0
 41 43  1  0  0  0  0
  7  9  1  0  0  0  0
 19 20  1  0  0  0  0
 30 38  1  0  0  0  0
 35 36  1  0  0  0  0
 40 41  1  0  0  0  0
M  END
>  <MolRegNo>
1266732

>  <m>
=

>  <Value>
2000

>  <Unit>
nM

>  <Type>
IC50

>  <pValue>
5.7

>  <Ligand Efficiency>
0

>  <Binding Efficiency>
0

>  <Surface Efficiency>
0

>  <Assay Index>
624435

>  <Assay Category>


>  <Assay Organism>


>  <Target ID>
17045

>  <Target Name>
Cytochrome P450 3A4

>  <Target Organism>
Homo sapiens

>  <Target Description>
Target is a single protein chain

>  <Sequence Accession>
P08684

>  <Reference>
Bioorg Med Chem Lett 21 (24), 7399-7404 (2011)

>  <Pubmed ID>
22071301

>  <DOI>
10.1016/j.bmcl.2011.10.013

$$$$
1266733
Actelion Java MolfileCreator 1.0

 46 51  0  0  0  0  0  0  0  0999 V2000
    0.0000   -0.0000   -0.0000 Cl  0  0  0  0  0  0  0  0  0  0  0  0
   -0.0119   -1.4852   -0.0000 C   0  0  0  0  0  0  0  0  0  0  0  0
   -1.3189   -2.2219   -0.0000 C   0  0  0  0  0  0  0  0  0  0  0  0
    1.2714   -2.2219   -0.0000 C   0  0  0  0  0  0  0  0  0  0  0  0
   -1.3426   -3.7071   -0.0000 C   0  0  0  0  0  0  0  0  0  0  0  0
   -2.6259   -1.4615   -0.0000 C   0  0  0  0  0  0  0  0  0  0  0  0
    1.2595   -3.7190   -0.0000 C   0  0  0  0  0  0  0  0  0  0  0  0
    2.5546   -1.4615   -0.0000 C   0  0  0  0  0  0  0  0  0  0  0  0
   -0.0594   -4.4438   -0.0000 C   0  0  0  0  0  0  0  0  0  0  0  0
   -3.9447   -2.1981   -0.0000 N   0  0  0  0  0  0  0  0  0  0  0  0
    3.8497   -2.1981   -0.0000 C   0  0  0  0  0  0  0  0  0  0  0  0
   -0.0713   -5.9290   -0.0000 C   0  0  0  0  0  0  0  0  0  0  0  0
   -5.2517   -1.4377   -0.0000 C   0  0  0  0  0  0  0  0  0  0  0  0
   -3.9566   -3.6834   -0.0000 C   0  0  0  0  0  0  0  0  0  0  0  0
    5.1329   -1.4377   -0.0000 C   0  0  0  0  0  0  0  0  0  0  0  0
    1.2119   -6.6657   -0.0000 C   0  0  0  0  0  0  0  0  0  0  0  0
   -5.2636    0.0713   -0.0000 O   0  0  0  0  0  0  0  0  0  0  0  0
   -6.5706   -2.1744   -0.0000 C   0  0  0  0  0  0  0  0  0  0  0  0
   -4.7171   -4.9666   -0.0000 C   0  0  0  0  0  0  0  0  0  0  0  0
   -3.2081   -4.9666   -0.0000 C   0  0  0  0  0  0  0  0  0  0  0  0
    6.4280   -2.1744   -0.0000 N   0  0  0  0  0  0  0  0  0  0  0  0
    2.5071   -5.9052   -0.0000 C   0  0  0  0  0  0  0  0  0  0  0  0
   -7.8776   -1.4020   -0.0000 C   0  0  0  0  0  0  0  0  0  0  0  0
   -6.5944   -3.6715   -0.0000 C   0  0  0  0  0  0  0  0  0  0  0  0
    6.4162   -3.6596   -0.0000 C   0  0  0  0  0  0  0  0  0  0  0  0
    7.7113   -1.4020   -0.0000 C   0  0  0  0  0  0  0  0  0  0  0  0
    3.7903   -6.6419   -0.0000 O   0  0  0  0  0  0  0  0  0  0  0  0
   -6.6657   -0.5228   -0.0000 O   0  0  0  0  0  0  0  0  0  0  0  0
   -9.1014   -0.4990   -0.0000 C   0  0  0  0  0  0  0  0  0  0  0  0
   -9.2084   -2.1506   -0.0000 C   0  0  0  0  0  0  0  0  0  0  0  0
   -7.9133   -4.4081   -0.0000 N   0  0  0  0  0  0  0  0  0  0  0  0
    7.6994   -4.3963   -0.0000 C   0  0  0  0  0  0  0  0  0  0  0  0
    9.0064   -2.1506   -0.0000 C   0  0  0  0  0  0  0  0  0  0  0  0
    5.0854   -5.8815   -0.0000 C   0  0  0  0  0  0  0  0  0  0  0  0
   -7.1291    0.9268   -0.0000 C   0  0  0  0  0  0  0  0  0  0  0  0
   -8.6381    0.9387   -0.0000 C   0  0  0  0  0  0  0  0  0  0  0  0
  -10.5748   -0.7842   -0.0000 C   0  0  0  0  0  0  0  0  0  0  0  0
   -9.2203   -3.6358   -0.0000 C   0  0  0  0  0  0  0  0  0  0  0  0
    8.9826   -3.6358   -0.0000 S   0  0  0  0  0  0  0  0  0  0  0  0
   -9.6480    2.0793   -0.0000 C   0  0  0  0  0  0  0  0  0  0  0  0
  -11.5847    0.3446   -0.0000 C   0  0  0  0  0  0  0  0  0  0  0  0
   10.4678   -3.6121   -0.0000 O   0  0  0  0  0  0  0  0  0  0  0  0
    9.7312   -4.9191   -0.0000 O   0  0  0  0  0  0  0  0  0  0  0  0
  -11.1332    1.7941   -0.0000 C   0  0  0  0  0  0  0  0  0  0  0  0
  -13.0700    0.0475   -0.0000 F   0  0  0  0  0  0  0  0  0  0  0  0
  -12.1432    2.9348   -0.0000 F   0  0  0  0  0  0  0  0  0  0  0  0
  1  2  1  0  0  0  0
  2  3  2  0  0  0  0
  2  4  1  0  0  0  0
  3  5  1  0  0  0  0
  3  6  1  0  0  0  0
  4  7  2  0  0  0  0
  4  8  1  0  0  0  0
  5  9  2  0  0  0  0
  6 10  1  0  0  0  0
  8 11  1  0  0  0  0
  9 12  1  0  0  0  0
 10 13  1  0  0  0  0
 10 14  1  0  0  0  0
 11 15  1  0  0  0  0
 12 16  1  0  0  0  0
 13 17  2  0  0  0  0
 18 13  1  6  0  0  0
 14 19  1  0  0  0  0
 14 20  1  0  0  0  0
 15 21  1  0  0  0  0
 16 22  1  0  0  0  0
 18 23  1  0  0  0  0
 18 24  1  0  0  0  0
 21 25  1  0  0  0  0
 21 26  1  0  0  0  0
 22 27  1  0  0  0  0
 23 28  1  6  0  0  0
 23 29  1  0  0  0  0
 23 30  1  0  0  0  0
 24 31  1  0  0  0  0
 25 32  1  0  0  0  0
 26 33  1  0  0  0  0
 27 34  1  0  0  0  0
 28 35  1  0  0  0  0
 29 36  2  0  0  0  0
 29 37  1  0  0  0  0
 30 38  1  0  0  0  0
 32 39  1  0  0  0  0
 36 40  1  0  0  0  0
 37 41  2  0  0  0  0
 39 42  2  0  0  0  0
 39 43  2  0  0  0  0
 40 44  2  0  0  0  0
 41 45  1  0  0  0  0
 44 46  1  0  0  0  0
  7  9  1  0  0  0  0
 19 20  1  0  0  0  0
 31 38  1  0  0  0  0
 33 39  1  0  0  0  0
 35 36  1  0  0  0  0
 41 44  1  0  0  0  0
M  END
>  <MolRegNo>
1266733

>  <m>
=

>  <Value>
2400

>  <Unit>
nM

>  <Type>
IC50

>  <pValue>
5.62

>  <Ligand Efficiency>
0

>  <Binding Efficiency>
0

>  <Surface Efficiency>
0

>  <Assay Index>
624435

>  <Assay Category>


>  <Assay Organism>


>  <Target ID>
17045

>  <Target Name>
Cytochrome P450 3A4

>  <Target Organism>
Homo sapiens

>  <Target Description>
Target is a single protein chain

>  <Sequence Accession>
P08684

>  <Reference>
Bioorg Med Chem Lett 21 (24), 7399-7404 (2011)

>  <Pubmed ID>
22071301

>  <DOI>
10.1016/j.bmcl.2011.10.013

$$$$
1266734
Actelion Java MolfileCreator 1.0

 45 50  0  0  0  0  0  0  0  0999 V2000
    0.0000   -0.0000   -0.0000 Cl  0  0  0  0  0  0  0  0  0  0  0  0
   -0.0119   -1.4843   -0.0000 C   0  0  0  0  0  0  0  0  0  0  0  0
   -1.3180   -2.2205   -0.0000 C   0  0  0  0  0  0  0  0  0  0  0  0
    1.2705   -2.2205   -0.0000 C   0  0  0  0  0  0  0  0  0  0  0  0
   -1.3418   -3.7047   -0.0000 C   0  0  0  0  0  0  0  0  0  0  0  0
   -2.6242   -1.4605   -0.0000 C   0  0  0  0  0  0  0  0  0  0  0  0
    1.2587   -3.7166   -0.0000 C   0  0  0  0  0  0  0  0  0  0  0  0
    2.5529   -1.4605   -0.0000 C   0  0  0  0  0  0  0  0  0  0  0  0
   -0.0594   -4.4409   -0.0000 C   0  0  0  0  0  0  0  0  0  0  0  0
   -3.9422   -2.1967   -0.0000 N   0  0  0  0  0  0  0  0  0  0  0  0
    3.8472   -2.1967   -0.0000 C   0  0  0  0  0  0  0  0  0  0  0  0
   -0.0712   -5.9252   -0.0000 C   0  0  0  0  0  0  0  0  0  0  0  0
   -5.2484   -1.4368   -0.0000 C   0  0  0  0  0  0  0  0  0  0  0  0
   -3.9541   -3.6810   -0.0000 C   0  0  0  0  0  0  0  0  0  0  0  0
    5.1296   -1.4368   -0.0000 C   0  0  0  0  0  0  0  0  0  0  0  0
    1.2112   -6.6614   -0.0000 C   0  0  0  0  0  0  0  0  0  0  0  0
   -5.2603    0.0712   -0.0000 O   0  0  0  0  0  0  0  0  0  0  0  0
   -6.5664   -2.1730   -0.0000 C   0  0  0  0  0  0  0  0  0  0  0  0
   -4.7140   -4.9634   -0.0000 C   0  0  0  0  0  0  0  0  0  0  0  0
   -3.2060   -4.9634   -0.0000 C   0  0  0  0  0  0  0  0  0  0  0  0
    5.1178    0.0712   -0.0000 O   0  0  0  0  0  0  0  0  0  0  0  0
    6.4239   -2.1730   -0.0000 N   0  0  0  0  0  0  0  0  0  0  0  0
    2.5054   -5.9015   -0.0000 C   0  0  0  0  0  0  0  0  0  0  0  0
   -7.8726   -1.4012   -0.0000 C   0  0  0  0  0  0  0  0  0  0  0  0
   -6.5902   -3.6691   -0.0000 C   0  0  0  0  0  0  0  0  0  0  0  0
    6.4120   -3.6572   -0.0000 C   0  0  0  0  0  0  0  0  0  0  0  0
    7.7063   -1.4012   -0.0000 C   0  0  0  0  0  0  0  0  0  0  0  0
    3.7879   -6.6377   -0.0000 O   0  0  0  0  0  0  0  0  0  0  0  0
   -6.6614   -0.5225   -0.0000 O   0  0  0  0  0  0  0  0  0  0  0  0
   -9.0956   -0.4987   -0.0000 C   0  0  0  0  0  0  0  0  0  0  0  0
   -9.2025   -2.1492   -0.0000 C   0  0  0  0  0  0  0  0  0  0  0  0
   -7.9082   -4.4053   -0.0000 N   0  0  0  0  0  0  0  0  0  0  0  0
    7.6945   -4.3934   -0.0000 C   0  0  0  0  0  0  0  0  0  0  0  0
    9.0006   -2.1492   -0.0000 C   0  0  0  0  0  0  0  0  0  0  0  0
    5.0821   -5.8777   -0.0000 C   0  0  0  0  0  0  0  0  0  0  0  0
   -7.1245    0.9262   -0.0000 C   0  0  0  0  0  0  0  0  0  0  0  0
   -8.6325    0.9381   -0.0000 C   0  0  0  0  0  0  0  0  0  0  0  0
  -10.5680   -0.7837   -0.0000 C   0  0  0  0  0  0  0  0  0  0  0  0
   -9.2143   -3.6335   -0.0000 C   0  0  0  0  0  0  0  0  0  0  0  0
    8.9887   -3.6335   -0.0000 O   0  0  0  0  0  0  0  0  0  0  0  0
   -9.6418    2.0780   -0.0000 C   0  0  0  0  0  0  0  0  0  0  0  0
  -11.5773    0.3444   -0.0000 C   0  0  0  0  0  0  0  0  0  0  0  0
  -11.1261    1.7930   -0.0000 C   0  0  0  0  0  0  0  0  0  0  0  0
  -13.0616    0.0475   -0.0000 F   0  0  0  0  0  0  0  0  0  0  0  0
  -12.1354    2.9329   -0.0000 F   0  0  0  0  0  0  0  0  0  0  0  0
  1  2  1  0  0  0  0
  2  3  2  0  0  0  0
  2  4  1  0  0  0  0
  3  5  1  0  0  0  0
  3  6  1  0  0  0  0
  4  7  2  0  0  0  0
  4  8  1  0  0  0  0
  5  9  2  0  0  0  0
  6 10  1  0  0  0  0
  8 11  1  0  0  0  0
  9 12  1  0  0  0  0
 10 13  1  0  0  0  0
 10 14  1  0  0  0  0
 11 15  1  0  0  0  0
 12 16  1  0  0  0  0
 13 17  2  0  0  0  0
 18 13  1  6  0  0  0
 14 19  1  0  0  0  0
 14 20  1  0  0  0  0
 15 21  2  0  0  0  0
 15 22  1  0  0  0  0
 16 23  1  0  0  0  0
 18 24  1  0  0  0  0
 18 25  1  0  0  0  0
 22 26  1  0  0  0  0
 22 27  1  0  0  0  0
 23 28  1  0  0  0  0
 24 29  1  6  0  0  0
 24 30  1  0  0  0  0
 24 31  1  0  0  0  0
 25 32  1  0  0  0  0
 26 33  1  0  0  0  0
 27 34  1  0  0  0  0
 28 35  1  0  0  0  0
 29 36  1  0  0  0  0
 30 37  2  0  0  0  0
 30 38  1  0  0  0  0
 31 39  1  0  0  0  0
 33 40  1  0  0  0  0
 37 41  1  0  0  0  0
 38 42  2  0  0  0  0
 41 43  2  0  0  0  0
 42 44  1  0  0  0  0
 43 45  1  0  0  0  0
  7  9  1  0  0  0  0
 19 20  1  0  0  0  0
 32 39  1  0  0  0  0
 34 40  1  0  0  0  0
 36 37  1  0  0  0  0
 42 43  1  0  0  0  0
M  END
>  <MolRegNo>
1266734

>  <m>
=

>  <Value>
2800

>  <Unit>
nM

>  <Type>
IC50

>  <pValue>
5.55

>  <Ligand Efficiency>
0

>  <Binding Efficiency>
0

>  <Surface Efficiency>
0

>  <Assay Index>
624435

>  <Assay Category>


>  <Assay Organism>


>  <Target ID>
17045

>  <Target Name>
Cytochrome P450 3A4

>  <Target Organism>
Homo sapiens

>  <Target Description>
Target is a single protein chain

>  <Sequence Accession>
P08684

>  <Reference>
Bioorg Med Chem Lett 21 (24), 7399-7404 (2011)

>  <Pubmed ID>
22071301

>  <DOI>
10.1016/j.bmcl.2011.10.013

$$$$
1267108
Actelion Java MolfileCreator 1.0

 41 42  0  0  0  0  0  0  0  0999 V2000
    0.0000   -0.0000   -0.0000 Cl  0  0  0  0  0  0  0  0  0  0  0  0
   -2.0676   -3.1015   -0.0000 F   0  0  0  0  0  0  0  0  0  0  0  0
   -3.5714   -3.0897   -0.0000 C   0  0  0  0  0  0  0  0  0  0  0  0
   -4.3233   -4.3703   -0.0000 C   0  0  0  0  0  0  0  0  0  0  0  0
   -4.3233   -1.7857   -0.0000 C   0  0  0  0  0  0  0  0  0  0  0  0
   -5.8270   -4.3585   -0.0000 C   0  0  0  0  0  0  0  0  0  0  0  0
   -5.8270   -1.7739   -0.0000 C   0  0  0  0  0  0  0  0  0  0  0  0
   -6.5789   -3.0545   -0.0000 C   0  0  0  0  0  0  0  0  0  0  0  0
   -8.0826   -3.0427   -0.0000 C   0  0  0  0  0  0  0  0  0  0  0  0
   -9.1517   -1.9737   -0.0000 C   0  0  0  0  0  0  0  0  0  0  0  0
   -9.1634   -0.4699   -0.0000 N   0  0  0  0  0  0  0  0  0  0  0  0
  -10.4557   -2.7138   -0.0000 C   0  0  0  0  0  0  0  0  0  0  0  0
   -7.8829    0.2820   -0.0000 C   0  0  0  0  0  0  0  0  0  0  0  0
  -10.4675   -4.1940   -0.0000 O   0  0  0  0  0  0  0  0  0  0  0  0
  -11.7598   -1.9619   -0.0000 N   0  0  0  0  0  0  0  0  0  0  0  0
   -6.6024   -0.4582   -0.0000 O   0  0  0  0  0  0  0  0  0  0  0  0
   -7.8947    1.7857   -0.0000 C   0  0  0  0  0  0  0  0  0  0  0  0
  -13.0638   -2.7020   -0.0000 C   0  0  0  0  0  0  0  0  0  0  0  0
   -9.1987    2.5376   -0.0000 N   0  0  0  0  0  0  0  0  0  0  0  0
   -6.4144    1.7974   -0.0000 C   0  0  0  0  0  0  0  0  0  0  0  0
  -14.3678   -1.9502   -0.0000 C   0  0  0  0  0  0  0  0  0  0  0  0
   -9.2104    4.0413   -0.0000 C   0  0  0  0  0  0  0  0  0  0  0  0
  -10.5027    1.8092   -0.0000 C   0  0  0  0  0  0  0  0  0  0  0  0
  -14.3796   -0.4464   -0.0000 C   0  0  0  0  0  0  0  0  0  0  0  0
   -7.9299    4.7932   -0.0000 O   0  0  0  0  0  0  0  0  0  0  0  0
  -10.5145    4.7932   -0.0000 C   0  0  0  0  0  0  0  0  0  0  0  0
  -15.6836    0.3054   -0.0000 C   0  0  0  0  0  0  0  0  0  0  0  0
  -11.8185    4.0648   -0.0000 N   0  0  0  0  0  0  0  0  0  0  0  0
  -11.2663    6.0972   -0.0000 C   0  0  0  0  0  0  0  0  0  0  0  0
  -15.6953    1.8092   -0.0000 C   0  0  0  0  0  0  0  0  0  0  0  0
  -16.9876   -0.4347   -0.0000 C   0  0  0  0  0  0  0  0  0  0  0  0
  -13.1225    4.8167   -0.0000 C   0  0  0  0  0  0  0  0  0  0  0  0
  -11.2781    7.6010   -0.0000 C   0  0  0  0  0  0  0  0  0  0  0  0
  -12.5704    6.8491   -0.0000 C   0  0  0  0  0  0  0  0  0  0  0  0
  -14.4148    2.5611   -0.0000 O   0  0  0  0  0  0  0  0  0  0  0  0
  -16.9994    2.5611   -0.0000 C   0  0  0  0  0  0  0  0  0  0  0  0
  -18.2916    0.3172   -0.0000 C   0  0  0  0  0  0  0  0  0  0  0  0
  -14.4266    4.0883   -0.0000 C   0  0  0  0  0  0  0  0  0  0  0  0
  -18.3034    1.8327   -0.0000 C   0  0  0  0  0  0  0  0  0  0  0  0
  -15.4956    5.1574   -0.0000 C   0  0  0  0  0  0  0  0  0  0  0  0
   -2.3496    3.7594   -0.0000 O   0  0  0  0  0  0  0  0  0  0  0  0
  2  3  1  0  0  0  0
  3  4  2  0  0  0  0
  3  5  1  0  0  0  0
  4  6  1  0  0  0  0
  5  7  2  0  0  0  0
  6  8  2  0  0  0  0
  8  9  1  0  0  0  0
 10  9  1  6  0  0  0
 10 11  1  0  0  0  0
 10 12  1  0  0  0  0
 11 13  1  0  0  0  0
 12 14  2  0  0  0  0
 12 15  1  0  0  0  0
 13 16  2  0  0  0  0
 13 17  1  0  0  0  0
 15 18  1  0  0  0  0
 17 19  1  0  0  0  0
 17 20  1  6  0  0  0
 18 21  1  0  0  0  0
 19 22  1  0  0  0  0
 19 23  1  0  0  0  0
 21 24  1  0  0  0  0
 22 25  2  0  0  0  0
 22 26  1  0  0  0  0
 24 27  1  0  0  0  0
 26 28  1  0  0  0  0
 26 29  1  1  0  0  0
 27 30  2  0  0  0  0
 27 31  1  0  0  0  0
 28 32  1  0  0  0  0
 29 33  1  0  0  0  0
 29 34  1  0  0  0  0
 30 35  1  0  0  0  0
 30 36  1  0  0  0  0
 31 37  2  0  0  0  0
 32 38  1  0  0  0  0
 36 39  2  0  0  0  0
 38 40  1  6  0  0  0
  7  8  1  0  0  0  0
 33 34  1  0  0  0  0
 35 38  1  0  0  0  0
 37 39  1  0  0  0  0
M  END
>  <MolRegNo>
1267108

>  <m>
=

>  <Value>
2400

>  <Unit>
nM

>  <Type>
IC50

>  <pValue>
5.62

>  <Ligand Efficiency>
0

>  <Binding Efficiency>
0

>  <Surface Efficiency>
0

>  <Assay Index>
624715

>  <Assay Category>


>  <Assay Organism>
Homo sapiens

>  <Target ID>
17045

>  <Target Name>
Cytochrome P450 3A4

>  <Target Organism>
Homo sapiens

>  <Target Description>
Target is a single protein chain

>  <Sequence Accession>
P08684

>  <Reference>
J Med Chem 54 (24), 8305-8320 (2011)

>  <Pubmed ID>
22106937

>  <DOI>
10.1021/jm2007062

$$$$
1267249
Actelion Java MolfileCreator 1.0

 39 42  0  0  0  0  0  0  0  0999 V2000
    0.0000   -0.0000   -0.0000 F   0  0  0  0  0  0  0  0  0  0  0  0
    0.7385    1.2983   -0.0000 C   0  0  0  0  0  0  0  0  0  0  0  0
   -0.0119    2.6086   -0.0000 C   0  0  0  0  0  0  0  0  0  0  0  0
    2.2274    1.2983   -0.0000 C   0  0  0  0  0  0  0  0  0  0  0  0
    0.7266    3.9069   -0.0000 C   0  0  0  0  0  0  0  0  0  0  0  0
    2.9778    2.6086   -0.0000 C   0  0  0  0  0  0  0  0  0  0  0  0
   -0.0238    5.2171   -0.0000 O   0  0  0  0  0  0  0  0  0  0  0  0
    2.2036    3.9188   -0.0000 C   0  0  0  0  0  0  0  0  0  0  0  0
   -1.5485    5.2290   -0.0000 C   0  0  0  0  0  0  0  0  0  0  0  0
    2.9421    5.2290   -0.0000 C   0  0  0  0  0  0  0  0  0  0  0  0
   -2.3108    6.5393   -0.0000 C   0  0  0  0  0  0  0  0  0  0  0  0
    4.4310    5.2409   -0.0000 C   0  0  0  0  0  0  0  0  0  0  0  0
   -1.5723    7.8376   -0.0000 N   0  0  0  0  0  0  0  0  0  0  0  0
    5.1695    6.5512   -0.0000 C   0  0  0  0  0  0  0  0  0  0  0  0
   -2.3346    9.1478   -0.0000 C   0  0  0  0  0  0  0  0  0  0  0  0
    4.4191    7.8614   -0.0000 N   0  0  0  0  0  0  0  0  0  0  0  0
   -1.5961   10.4581   -0.0000 C   0  0  0  0  0  0  0  0  0  0  0  0
   -3.8473    9.1597   -0.0000 C   0  0  0  0  0  0  0  0  0  0  0  0
    5.1576    9.1716   -0.0000 C   0  0  0  0  0  0  0  0  0  0  0  0
   -2.3584   11.7683   -0.0000 O   0  0  0  0  0  0  0  0  0  0  0  0
   -0.1072   10.4700   -0.0000 N   0  0  0  0  0  0  0  0  0  0  0  0
   -5.1456    9.9221   -0.0000 C   0  0  0  0  0  0  0  0  0  0  0  0
   -5.1456    8.4331   -0.0000 C   0  0  0  0  0  0  0  0  0  0  0  0
    6.6465    9.1836   -0.0000 O   0  0  0  0  0  0  0  0  0  0  0  0
    4.4072   10.4819   -0.0000 C   0  0  0  0  0  0  0  0  0  0  0  0
    0.6313   11.7802   -0.0000 C   0  0  0  0  0  0  0  0  0  0  0  0
    0.6194    9.1836   -0.0000 C   0  0  0  0  0  0  0  0  0  0  0  0
    2.8944   10.4938   -0.0000 N   0  0  0  0  0  0  0  0  0  0  0  0
    5.1456   11.7921   -0.0000 C   0  0  0  0  0  0  0  0  0  0  0  0
    2.1202   11.7921   -0.0000 C   0  0  0  0  0  0  0  0  0  0  0  0
   -0.1191   13.0904   -0.0000 C   0  0  0  0  0  0  0  0  0  0  0  0
    6.6346   11.8040   -0.0000 C   0  0  0  0  0  0  0  0  0  0  0  0
    2.8706   13.1023   -0.0000 O   0  0  0  0  0  0  0  0  0  0  0  0
    7.3611   10.5176   -0.0000 C   0  0  0  0  0  0  0  0  0  0  0  0
    7.3730   13.1143   -0.0000 C   0  0  0  0  0  0  0  0  0  0  0  0
    8.8500   10.5295   -0.0000 C   0  0  0  0  0  0  0  0  0  0  0  0
    8.8500   13.1262   -0.0000 C   0  0  0  0  0  0  0  0  0  0  0  0
    9.5885   11.8398   -0.0000 C   0  0  0  0  0  0  0  0  0  0  0  0
   11.0774   11.8517   -0.0000 F   0  0  0  0  0  0  0  0  0  0  0  0
  1  2  1  0  0  0  0
  2  3  2  0  0  0  0
  2  4  1  0  0  0  0
  3  5  1  0  0  0  0
  4  6  2  0  0  0  0
  5  7  1  0  0  0  0
  5  8  2  0  0  0  0
  7  9  1  0  0  0  0
  8 10  1  0  0  0  0
  9 11  1  0  0  0  0
 10 12  1  0  0  0  0
 11 13  1  0  0  0  0
 12 14  1  0  0  0  0
 13 15  1  0  0  0  0
 14 16  1  0  0  0  0
 15 17  1  0  0  0  0
 15 18  1  1  0  0  0
 16 19  1  0  0  0  0
 17 20  2  0  0  0  0
 17 21  1  0  0  0  0
 18 22  1  0  0  0  0
 18 23  1  0  0  0  0
 19 24  2  0  0  0  0
 19 25  1  0  0  0  0
 21 26  1  0  0  0  0
 21 27  1  0  0  0  0
 25 28  1  0  0  0  0
 25 29  1  6  0  0  0
 26 30  1  0  0  0  0
 26 31  1  6  0  0  0
 29 32  1  0  0  0  0
 30 33  2  0  0  0  0
 32 34  2  0  0  0  0
 32 35  1  0  0  0  0
 34 36  1  0  0  0  0
 35 37  2  0  0  0  0
 36 38  2  0  0  0  0
 38 39  1  0  0  0  0
  6  8  1  0  0  0  0
 22 23  1  0  0  0  0
 28 30  1  0  0  0  0
 37 38  1  0  0  0  0
M  END
>  <MolRegNo>
1267249

>  <m>
=

>  <Value>
1200

>  <Unit>
nM

>  <Type>
IC50

>  <pValue>
5.92

>  <Ligand Efficiency>
0

>  <Binding Efficiency>
0

>  <Surface Efficiency>
0

>  <Assay Index>
624715

>  <Assay Category>


>  <Assay Organism>
Homo sapiens

>  <Target ID>
17045

>  <Target Name>
Cytochrome P450 3A4

>  <Target Organism>
Homo sapiens

>  <Target Description>
Target is a single protein chain

>  <Sequence Accession>
P08684

>  <Reference>
J Med Chem 54 (24), 8305-8320 (2011)

>  <Pubmed ID>
22106937

>  <DOI>
10.1021/jm2007062

$$$$
1270213
Actelion Java MolfileCreator 1.0

 36 38  0  0  0  0  0  0  0  0999 V2000
    0.0000   -0.0000   -0.0000 Cl  0  0  0  0  0  0  0  0  0  0  0  0
    0.0121   -1.4912   -0.0000 C   0  0  0  0  0  0  0  0  0  0  0  0
    1.3093   -2.1943   -0.0000 C   0  0  0  0  0  0  0  0  0  0  0  0
   -1.2729   -2.2428   -0.0000 C   0  0  0  0  0  0  0  0  0  0  0  0
    2.5822   -1.4063   -0.0000 Cl  0  0  0  0  0  0  0  0  0  0  0  0
    1.3214   -3.6854   -0.0000 C   0  0  0  0  0  0  0  0  0  0  0  0
   -2.5944   -1.4912   -0.0000 N   0  0  0  0  0  0  0  0  0  0  0  0
   -1.2729   -3.7339   -0.0000 C   0  0  0  0  0  0  0  0  0  0  0  0
    0.0121   -4.4492   -0.0000 C   0  0  0  0  0  0  0  0  0  0  0  0
   -3.8915   -2.2428   -0.0000 C   0  0  0  0  0  0  0  0  0  0  0  0
   -3.8915   -3.7339   -0.0000 O   0  0  0  0  0  0  0  0  0  0  0  0
   -5.2130   -1.4912   -0.0000 N   0  0  0  0  0  0  0  0  0  0  0  0
   -6.5101   -2.2428   -0.0000 C   0  0  0  0  0  0  0  0  0  0  0  0
   -7.7346   -1.3457   -0.0000 S   0  0  0  0  0  0  0  0  0  0  0  0
   -6.9829   -3.6612   -0.0000 C   0  0  0  0  0  0  0  0  0  0  0  0
   -8.9711   -2.2185   -0.0000 C   0  0  0  0  0  0  0  0  0  0  0  0
   -6.2556   -4.9463   -0.0000 C   0  0  0  0  0  0  0  0  0  0  0  0
   -8.4983   -3.6491   -0.0000 C   0  0  0  0  0  0  0  0  0  0  0  0
  -10.2926   -1.4548   -0.0000 C   0  0  0  0  0  0  0  0  0  0  0  0
   -4.7644   -4.9463   -0.0000 O   0  0  0  0  0  0  0  0  0  0  0  0
   -7.0314   -6.2313   -0.0000 N   0  0  0  0  0  0  0  0  0  0  0  0
  -10.3047    0.0606   -0.0000 C   0  0  0  0  0  0  0  0  0  0  0  0
  -11.6019   -2.1943   -0.0000 C   0  0  0  0  0  0  0  0  0  0  0  0
  -11.6019   -0.6910   -0.0000 C   0  0  0  0  0  0  0  0  0  0  0  0
   -6.2071   -7.4800   -0.0000 C   0  0  0  0  0  0  0  0  0  0  0  0
   -8.5832   -6.0980   -0.0000 C   0  0  0  0  0  0  0  0  0  0  0  0
   -6.7041   -8.8863   -0.0000 C   0  0  0  0  0  0  0  0  0  0  0  0
   -9.5773   -7.1769   -0.0000 C   0  0  0  0  0  0  0  0  0  0  0  0
   -8.1831   -9.3955   -0.0000 N   0  0  0  0  0  0  0  0  0  0  0  0
   -9.4076   -8.6317   -0.0000 C   0  0  0  0  0  0  0  0  0  0  0  0
   -8.2074  -10.8866   -0.0000 C   0  0  0  0  0  0  0  0  0  0  0  0
  -10.6805   -9.4197   -0.0000 O   0  0  0  0  0  0  0  0  0  0  0  0
   -9.5288  -11.6140   -0.0000 C   0  0  0  0  0  0  0  0  0  0  0  0
   -9.5531  -13.1052   -0.0000 N   0  0  0  0  0  0  0  0  0  0  0  0
  -10.8745  -13.8325   -0.0000 C   0  0  0  0  0  0  0  0  0  0  0  0
   -8.2680  -13.8568   -0.0000 C   0  0  0  0  0  0  0  0  0  0  0  0
  1  2  1  0  0  0  0
  2  3  2  0  0  0  0
  2  4  1  0  0  0  0
  3  5  1  0  0  0  0
  3  6  1  0  0  0  0
  4  7  1  0  0  0  0
  4  8  2  0  0  0  0
  6  9  2  0  0  0  0
  7 10  1  0  0  0  0
 10 11  2  0  0  0  0
 10 12  1  0  0  0  0
 12 13  1  0  0  0  0
 13 14  1  0  0  0  0
 13 15  2  0  0  0  0
 14 16  1  0  0  0  0
 15 17  1  0  0  0  0
 15 18  1  0  0  0  0
 16 19  1  0  0  0  0
 17 20  2  0  0  0  0
 17 21  1  0  0  0  0
 19 22  1  0  0  0  0
 19 23  1  0  0  0  0
 19 24  1  0  0  0  0
 21 25  1  0  0  0  0
 21 26  1  0  0  0  0
 25 27  1  0  0  0  0
 26 28  1  0  0  0  0
 27 29  1  0  0  0  0
 28 30  1  0  0  0  0
 29 31  1  0  0  0  0
 30 32  2  0  0  0  0
 31 33  1  0  0  0  0
 33 34  1  0  0  0  0
 34 35  1  0  0  0  0
 34 36  1  0  0  0  0
  8  9  1  0  0  0  0
 16 18  2  0  0  0  0
 29 30  1  0  0  0  0
M  END
>  <MolRegNo>
1270213

>  <m>
=

>  <Value>
550

>  <Unit>
nM

>  <Type>
IC50

>  <pValue>
6.26

>  <Ligand Efficiency>
0

>  <Binding Efficiency>
0

>  <Surface Efficiency>
0

>  <Assay Index>
628805

>  <Assay Category>


>  <Assay Organism>


>  <Target ID>
17045

>  <Target Name>
Cytochrome P450 3A4

>  <Target Organism>
Homo sapiens

>  <Target Description>
Target is a single protein chain

>  <Sequence Accession>
P08684

>  <Reference>
Bioorg Med Chem Lett 21 (23), 7155-7165 (2011)

>  <Pubmed ID>
22014550

>  <DOI>
10.1016/j.bmcl.2011.09.078

$$$$
1269055
Actelion Java MolfileCreator 1.0

 32 34  0  0  0  0  0  0  0  0999 V2000
    0.0000   -0.0000   -0.0000 S   0  0  0  0  0  0  0  0  0  0  0  0
   -0.4756    1.4387   -0.0000 C   0  0  0  0  0  0  0  0  0  0  0  0
   -1.2246   -0.8679   -0.0000 C   0  0  0  0  0  0  0  0  0  0  0  0
    0.2497    2.7584   -0.0000 N   0  0  0  0  0  0  0  0  0  0  0  0
   -1.9856    1.4505   -0.0000 C   0  0  0  0  0  0  0  0  0  0  0  0
   -1.2246   -2.3661   -0.0000 C   0  0  0  0  0  0  0  0  0  0  0  0
   -2.4493    0.0238   -0.0000 C   0  0  0  0  0  0  0  0  0  0  0  0
    1.7359    2.7822   -0.0000 C   0  0  0  0  0  0  0  0  0  0  0  0
   -2.8892    2.6752   -0.0000 C   0  0  0  0  0  0  0  0  0  0  0  0
    0.0594   -3.1032   -0.0000 C   0  0  0  0  0  0  0  0  0  0  0  0
   -2.5325   -3.1032   -0.0000 C   0  0  0  0  0  0  0  0  0  0  0  0
   -3.8879   -0.4280   -0.0000 C   0  0  0  0  0  0  0  0  0  0  0  0
    2.4612    4.1020   -0.0000 C   0  0  0  0  0  0  0  0  0  0  0  0
   -3.7809    3.8998   -0.0000 N   0  0  0  0  0  0  0  0  0  0  0  0
    0.0476   -4.6013   -0.0000 C   0  0  0  0  0  0  0  0  0  0  0  0
   -2.5444   -4.6013   -0.0000 C   0  0  0  0  0  0  0  0  0  0  0  0
    3.9474    4.1138   -0.0000 C   0  0  0  0  0  0  0  0  0  0  0  0
    1.6883    5.3979   -0.0000 C   0  0  0  0  0  0  0  0  0  0  0  0
    1.3316   -5.3385   -0.0000 O   0  0  0  0  0  0  0  0  0  0  0  0
   -1.2722   -5.3385   -0.0000 C   0  0  0  0  0  0  0  0  0  0  0  0
    4.6727    5.4336   -0.0000 C   0  0  0  0  0  0  0  0  0  0  0  0
    2.4136    6.7177   -0.0000 C   0  0  0  0  0  0  0  0  0  0  0  0
    1.3198   -6.8247   -0.0000 C   0  0  0  0  0  0  0  0  0  0  0  0
   -1.2841   -6.8247   -0.0000 O   0  0  0  0  0  0  0  0  0  0  0  0
    3.8998    6.7415   -0.0000 C   0  0  0  0  0  0  0  0  0  0  0  0
   -2.5920   -7.5619   -0.0000 C   0  0  0  0  0  0  0  0  0  0  0  0
    4.6251    8.0612   -0.0000 N   0  0  0  0  0  0  0  0  0  0  0  0
    6.1113    8.0850   -0.0000 C   0  0  0  0  0  0  0  0  0  0  0  0
    3.8523    9.3691   -0.0000 C   0  0  0  0  0  0  0  0  0  0  0  0
    6.8366    9.4048   -0.0000 C   0  0  0  0  0  0  0  0  0  0  0  0
    8.3228    9.4285   -0.0000 C   0  0  0  0  0  0  0  0  0  0  0  0
    9.8090    9.4523   -0.0000 N   0  0  0  0  0  0  0  0  0  0  0  0
  1  2  1  0  0  0  0
  1  3  1  0  0  0  0
  2  4  1  0  0  0  0
  2  5  2  0  0  0  0
  3  6  1  0  0  0  0
  3  7  2  0  0  0  0
  4  8  2  0  0  0  0
  5  9  1  0  0  0  0
  6 10  2  0  0  0  0
  6 11  1  0  0  0  0
  7 12  1  0  0  0  0
  8 13  1  0  0  0  0
  9 14  3  0  0  0  0
 10 15  1  0  0  0  0
 11 16  2  0  0  0  0
 13 17  2  0  0  0  0
 13 18  1  0  0  0  0
 15 19  1  0  0  0  0
 15 20  2  0  0  0  0
 17 21  1  0  0  0  0
 18 22  2  0  0  0  0
 19 23  1  0  0  0  0
 20 24  1  0  0  0  0
 21 25  2  0  0  0  0
 24 26  1  0  0  0  0
 25 27  1  0  0  0  0
 27 28  1  0  0  0  0
 27 29  1  0  0  0  0
 28 30  1  0  0  0  0
 30 31  1  0  0  0  0
 31 32  3  0  0  0  0
  5  7  1  0  0  0  0
 16 20  1  0  0  0  0
 22 25  1  0  0  0  0
M  END
>  <MolRegNo>
1269055

>  <m>
=

>  <Value>
33200

>  <Unit>
nM

>  <Type>
IC50

>  <pValue>
4.48

>  <Ligand Efficiency>
0

>  <Binding Efficiency>
0

>  <Surface Efficiency>
0

>  <Assay Index>
625983

>  <Assay Category>


>  <Assay Organism>
Homo sapiens

>  <Target ID>
17045

>  <Target Name>
Cytochrome P450 3A4

>  <Target Organism>
Homo sapiens

>  <Target Description>
Target is a single protein chain

>  <Sequence Accession>
P08684

>  <Reference>


>  <Pubmed ID>
22100140

>  <DOI>
10.1016/j.ejmech.2011.10.053

$$$$
1272922
Actelion Java MolfileCreator 1.0

 24 27  0  0  0  0  0  0  0  0999 V2000
    0.0000   -0.0000   -0.0000 O   0  0  0  0  0  0  0  0  0  0  0  0
   -0.7678    1.3112   -0.0000 C   0  0  0  0  0  0  0  0  0  0  0  0
    1.4765    0.0118   -0.0000 C   0  0  0  0  0  0  0  0  0  0  0  0
   -2.2680    1.3112   -0.0000 C   0  0  0  0  0  0  0  0  0  0  0  0
   -0.0472    2.6223   -0.0000 C   0  0  0  0  0  0  0  0  0  0  0  0
    2.2089    1.3230   -0.0000 C   0  0  0  0  0  0  0  0  0  0  0  0
   -3.1657    2.5278   -0.0000 N   0  0  0  0  0  0  0  0  0  0  0  0
   -3.1539    0.1063   -0.0000 N   0  0  0  0  0  0  0  0  0  0  0  0
    1.4411    2.6341   -0.0000 N   0  0  0  0  0  0  0  0  0  0  0  0
   -4.5950    2.0672   -0.0000 C   0  0  0  0  0  0  0  0  0  0  0  0
   -4.5950    0.5670   -0.0000 C   0  0  0  0  0  0  0  0  0  0  0  0
   -2.6932   -1.2994   -0.0000 C   0  0  0  0  0  0  0  0  0  0  0  0
   -5.9062    2.8231   -0.0000 C   0  0  0  0  0  0  0  0  0  0  0  0
   -5.9062   -0.1772   -0.0000 C   0  0  0  0  0  0  0  0  0  0  0  0
   -3.6973   -2.4097   -0.0000 C   0  0  0  0  0  0  0  0  0  0  0  0
   -7.2055    2.0908   -0.0000 C   0  0  0  0  0  0  0  0  0  0  0  0
   -7.2173    0.5788   -0.0000 C   0  0  0  0  0  0  0  0  0  0  0  0
   -5.1738   -2.0908   -0.0000 C   0  0  0  0  0  0  0  0  0  0  0  0
   -3.2366   -3.8036   -0.0000 C   0  0  0  0  0  0  0  0  0  0  0  0
   -6.1778   -3.1893   -0.0000 C   0  0  0  0  0  0  0  0  0  0  0  0
   -4.2406   -4.9139   -0.0000 C   0  0  0  0  0  0  0  0  0  0  0  0
   -5.7172   -4.5950   -0.0000 C   0  0  0  0  0  0  0  0  0  0  0  0
   -7.6544   -2.8704   -0.0000 C   0  0  0  0  0  0  0  0  0  0  0  0
   -6.7212   -5.7054   -0.0000 C   0  0  0  0  0  0  0  0  0  0  0  0
  1  2  1  0  0  0  0
  1  3  1  0  0  0  0
  2  4  1  0  0  0  0
  2  5  1  0  0  0  0
  3  6  1  0  0  0  0
  4  7  2  0  0  0  0
  4  8  1  0  0  0  0
  5  9  1  0  0  0  0
  7 10  1  0  0  0  0
  8 11  1  0  0  0  0
  8 12  1  0  0  0  0
 10 13  1  0  0  0  0
 11 14  1  0  0  0  0
 12 15  1  0  0  0  0
 13 16  2  0  0  0  0
 14 17  2  0  0  0  0
 15 18  2  0  0  0  0
 15 19  1  0  0  0  0
 18 20  1  0  0  0  0
 19 21  2  0  0  0  0
 20 22  2  0  0  0  0
 20 23  1  0  0  0  0
 22 24  1  0  0  0  0
  6  9  1  0  0  0  0
 10 11  2  0  0  0  0
 16 17  1  0  0  0  0
 21 22  1  0  0  0  0
M  END
>  <MolRegNo>
1272922

>  <m>
=

>  <Value>
4900

>  <Unit>
nM

>  <Type>
IC50

>  <pValue>
5.31

>  <Ligand Efficiency>
0

>  <Binding Efficiency>
0

>  <Surface Efficiency>
0

>  <Assay Index>
630677

>  <Assay Category>


>  <Assay Organism>


>  <Target ID>
17045

>  <Target Name>
Cytochrome P450 3A4

>  <Target Organism>
Homo sapiens

>  <Target Description>
Target is a single protein chain

>  <Sequence Accession>
P08684

>  <Reference>
Bioorg Med Chem Lett 22 (1), 421-426 (2012)

>  <Pubmed ID>
22153347

>  <DOI>
10.1016/j.bmcl.2011.10.115

$$$$
1272923
Actelion Java MolfileCreator 1.0

 23 26  0  0  0  0  0  0  0  0999 V2000
    0.0000   -0.0000   -0.0000 S   0  0  0  0  0  0  0  0  0  0  0  0
   -0.7680    1.3115   -0.0000 C   0  0  0  0  0  0  0  0  0  0  0  0
    1.4769    0.0118   -0.0000 C   0  0  0  0  0  0  0  0  0  0  0  0
   -2.2686    1.3115   -0.0000 C   0  0  0  0  0  0  0  0  0  0  0  0
   -0.0473    2.6230   -0.0000 C   0  0  0  0  0  0  0  0  0  0  0  0
    2.2095    1.3233   -0.0000 C   0  0  0  0  0  0  0  0  0  0  0  0
   -3.1666    2.5285   -0.0000 N   0  0  0  0  0  0  0  0  0  0  0  0
   -3.1547    0.1063   -0.0000 N   0  0  0  0  0  0  0  0  0  0  0  0
    1.4415    2.6349   -0.0000 N   0  0  0  0  0  0  0  0  0  0  0  0
   -4.5962    2.0677   -0.0000 C   0  0  0  0  0  0  0  0  0  0  0  0
   -4.5962    0.5671   -0.0000 C   0  0  0  0  0  0  0  0  0  0  0  0
   -2.6939   -1.2997   -0.0000 C   0  0  0  0  0  0  0  0  0  0  0  0
   -5.9078    2.8239   -0.0000 C   0  0  0  0  0  0  0  0  0  0  0  0
   -5.9078   -0.1772   -0.0000 C   0  0  0  0  0  0  0  0  0  0  0  0
   -3.6983   -2.4104   -0.0000 C   0  0  0  0  0  0  0  0  0  0  0  0
   -7.2075    2.0913   -0.0000 C   0  0  0  0  0  0  0  0  0  0  0  0
   -7.2193    0.5790   -0.0000 C   0  0  0  0  0  0  0  0  0  0  0  0
   -5.1752   -2.0913   -0.0000 C   0  0  0  0  0  0  0  0  0  0  0  0
   -3.2375   -3.8046   -0.0000 C   0  0  0  0  0  0  0  0  0  0  0  0
   -6.1795   -3.1902   -0.0000 C   0  0  0  0  0  0  0  0  0  0  0  0
   -4.2418   -4.9153   -0.0000 C   0  0  0  0  0  0  0  0  0  0  0  0
   -5.7187   -4.5962   -0.0000 C   0  0  0  0  0  0  0  0  0  0  0  0
   -6.7230   -5.7069   -0.0000 C   0  0  0  0  0  0  0  0  0  0  0  0
  1  2  1  0  0  0  0
  1  3  1  0  0  0  0
  2  4  1  0  0  0  0
  2  5  1  0  0  0  0
  3  6  1  0  0  0  0
  4  7  2  0  0  0  0
  4  8  1  0  0  0  0
  5  9  1  0  0  0  0
  7 10  1  0  0  0  0
  8 11  1  0  0  0  0
  8 12  1  0  0  0  0
 10 13  1  0  0  0  0
 11 14  1  0  0  0  0
 12 15  1  0  0  0  0
 13 16  2  0  0  0  0
 14 17  2  0  0  0  0
 15 18  2  0  0  0  0
 15 19  1  0  0  0  0
 18 20  1  0  0  0  0
 19 21  2  0  0  0  0
 20 22  2  0  0  0  0
 22 23  1  0  0  0  0
  6  9  1  0  0  0  0
 10 11  2  0  0  0  0
 16 17  1  0  0  0  0
 21 22  1  0  0  0  0
M  END
>  <MolRegNo>
1272923

>  <m>
=

>  <Value>
7500

>  <Unit>
nM

>  <Type>
IC50

>  <pValue>
5.12

>  <Ligand Efficiency>
0

>  <Binding Efficiency>
0

>  <Surface Efficiency>
0

>  <Assay Index>
630677

>  <Assay Category>


>  <Assay Organism>


>  <Target ID>
17045

>  <Target Name>
Cytochrome P450 3A4

>  <Target Organism>
Homo sapiens

>  <Target Description>
Target is a single protein chain

>  <Sequence Accession>
P08684

>  <Reference>
Bioorg Med Chem Lett 22 (1), 421-426 (2012)

>  <Pubmed ID>
22153347

>  <DOI>
10.1016/j.bmcl.2011.10.115

$$$$
1272924
Actelion Java MolfileCreator 1.0

 23 26  0  0  0  0  0  0  0  0999 V2000
    0.0000   -0.0000   -0.0000 S   0  0  0  0  0  0  0  0  0  0  0  0
   -0.7684    1.3122   -0.0000 C   0  0  0  0  0  0  0  0  0  0  0  0
    1.4777    0.0118   -0.0000 C   0  0  0  0  0  0  0  0  0  0  0  0
   -2.2697    1.3122   -0.0000 C   0  0  0  0  0  0  0  0  0  0  0  0
   -0.0473    2.6244   -0.0000 C   0  0  0  0  0  0  0  0  0  0  0  0
    2.2106    1.3240   -0.0000 C   0  0  0  0  0  0  0  0  0  0  0  0
   -3.1682    2.5298   -0.0000 N   0  0  0  0  0  0  0  0  0  0  0  0
   -3.1564    0.1064   -0.0000 N   0  0  0  0  0  0  0  0  0  0  0  0
    1.4422    2.6362   -0.0000 N   0  0  0  0  0  0  0  0  0  0  0  0
   -4.5986    2.0688   -0.0000 C   0  0  0  0  0  0  0  0  0  0  0  0
   -4.5986    0.5793   -0.0000 C   0  0  0  0  0  0  0  0  0  0  0  0
   -2.6953   -1.3004   -0.0000 C   0  0  0  0  0  0  0  0  0  0  0  0
   -5.9108    2.8254   -0.0000 C   0  0  0  0  0  0  0  0  0  0  0  0
   -5.9108   -0.1655   -0.0000 C   0  0  0  0  0  0  0  0  0  0  0  0
   -3.7002   -2.4116   -0.0000 C   0  0  0  0  0  0  0  0  0  0  0  0
   -7.2112    2.0924   -0.0000 C   0  0  0  0  0  0  0  0  0  0  0  0
   -7.2230    0.5911   -0.0000 C   0  0  0  0  0  0  0  0  0  0  0  0
   -5.1779   -2.0924   -0.0000 C   0  0  0  0  0  0  0  0  0  0  0  0
   -3.2391   -3.8066   -0.0000 C   0  0  0  0  0  0  0  0  0  0  0  0
   -6.1827   -3.1918   -0.0000 C   0  0  0  0  0  0  0  0  0  0  0  0
   -4.2440   -4.9178   -0.0000 C   0  0  0  0  0  0  0  0  0  0  0  0
   -5.7216   -4.5986   -0.0000 C   0  0  0  0  0  0  0  0  0  0  0  0
   -6.7265   -5.7098   -0.0000 F   0  0  0  0  0  0  0  0  0  0  0  0
  1  2  1  0  0  0  0
  1  3  1  0  0  0  0
  2  4  1  0  0  0  0
  2  5  1  0  0  0  0
  3  6  1  0  0  0  0
  4  7  2  0  0  0  0
  4  8  1  0  0  0  0
  5  9  1  0  0  0  0
  7 10  1  0  0  0  0
  8 11  1  0  0  0  0
  8 12  1  0  0  0  0
 10 13  1  0  0  0  0
 11 14  1  0  0  0  0
 12 15  1  0  0  0  0
 13 16  2  0  0  0  0
 14 17  2  0  0  0  0
 15 18  2  0  0  0  0
 15 19  1  0  0  0  0
 18 20  1  0  0  0  0
 19 21  2  0  0  0  0
 20 22  2  0  0  0  0
 22 23  1  0  0  0  0
  6  9  1  0  0  0  0
 10 11  2  0  0  0  0
 16 17  1  0  0  0  0
 21 22  1  0  0  0  0
M  END
>  <MolRegNo>
1272924

>  <m>
=

>  <Value>
16700

>  <Unit>
nM

>  <Type>
IC50

>  <pValue>
4.78

>  <Ligand Efficiency>
0

>  <Binding Efficiency>
0

>  <Surface Efficiency>
0

>  <Assay Index>
630677

>  <Assay Category>


>  <Assay Organism>


>  <Target ID>
17045

>  <Target Name>
Cytochrome P450 3A4

>  <Target Organism>
Homo sapiens

>  <Target Description>
Target is a single protein chain

>  <Sequence Accession>
P08684

>  <Reference>
Bioorg Med Chem Lett 22 (1), 421-426 (2012)

>  <Pubmed ID>
22153347

>  <DOI>
10.1016/j.bmcl.2011.10.115

$$$$
1272925
Actelion Java MolfileCreator 1.0

 23 26  0  0  0  0  0  0  0  0999 V2000
    0.0000   -0.0000   -0.0000 S   0  0  0  0  0  0  0  0  0  0  0  0
   -0.7684    1.3122   -0.0000 C   0  0  0  0  0  0  0  0  0  0  0  0
    1.4777    0.0118   -0.0000 C   0  0  0  0  0  0  0  0  0  0  0  0
   -2.2697    1.3122   -0.0000 C   0  0  0  0  0  0  0  0  0  0  0  0
   -0.0473    2.6244   -0.0000 C   0  0  0  0  0  0  0  0  0  0  0  0
    2.2106    1.3240   -0.0000 C   0  0  0  0  0  0  0  0  0  0  0  0
   -3.1682    2.5298   -0.0000 N   0  0  0  0  0  0  0  0  0  0  0  0
   -3.1564    0.1064   -0.0000 N   0  0  0  0  0  0  0  0  0  0  0  0
    1.4422    2.6362   -0.0000 N   0  0  0  0  0  0  0  0  0  0  0  0
   -4.5986    2.0688   -0.0000 C   0  0  0  0  0  0  0  0  0  0  0  0
   -4.5986    0.5793   -0.0000 C   0  0  0  0  0  0  0  0  0  0  0  0
   -2.6953   -1.3004   -0.0000 C   0  0  0  0  0  0  0  0  0  0  0  0
   -5.9108    2.8254   -0.0000 C   0  0  0  0  0  0  0  0  0  0  0  0
   -5.9108   -0.1655   -0.0000 C   0  0  0  0  0  0  0  0  0  0  0  0
   -3.7002   -2.4116   -0.0000 C   0  0  0  0  0  0  0  0  0  0  0  0
   -7.2112    2.0924   -0.0000 C   0  0  0  0  0  0  0  0  0  0  0  0
   -7.2230    0.5911   -0.0000 C   0  0  0  0  0  0  0  0  0  0  0  0
   -5.1779   -2.0924   -0.0000 C   0  0  0  0  0  0  0  0  0  0  0  0
   -3.2391   -3.8066   -0.0000 C   0  0  0  0  0  0  0  0  0  0  0  0
   -6.1827   -3.1918   -0.0000 C   0  0  0  0  0  0  0  0  0  0  0  0
   -4.2440   -4.9178   -0.0000 C   0  0  0  0  0  0  0  0  0  0  0  0
   -5.7216   -4.5986   -0.0000 C   0  0  0  0  0  0  0  0  0  0  0  0
   -6.7265   -5.7098   -0.0000 F   0  0  0  0  0  0  0  0  0  0  0  0
  1  2  1  0  0  0  0
  1  3  1  0  0  0  0
  2  4  1  6  0  0  0
  2  5  1  0  0  0  0
  3  6  1  0  0  0  0
  4  7  2  0  0  0  0
  4  8  1  0  0  0  0
  5  9  1  0  0  0  0
  7 10  1  0  0  0  0
  8 11  1  0  0  0  0
  8 12  1  0  0  0  0
 10 13  1  0  0  0  0
 11 14  1  0  0  0  0
 12 15  1  0  0  0  0
 13 16  2  0  0  0  0
 14 17  2  0  0  0  0
 15 18  2  0  0  0  0
 15 19  1  0  0  0  0
 18 20  1  0  0  0  0
 19 21  2  0  0  0  0
 20 22  2  0  0  0  0
 22 23  1  0  0  0  0
  6  9  1  0  0  0  0
 10 11  2  0  0  0  0
 16 17  1  0  0  0  0
 21 22  1  0  0  0  0
M  END
>  <MolRegNo>
1272925

>  <m>
=

>  <Value>
15600

>  <Unit>
nM

>  <Type>
IC50

>  <pValue>
4.81

>  <Ligand Efficiency>
0

>  <Binding Efficiency>
0

>  <Surface Efficiency>
0

>  <Assay Index>
630677

>  <Assay Category>


>  <Assay Organism>


>  <Target ID>
17045

>  <Target Name>
Cytochrome P450 3A4

>  <Target Organism>
Homo sapiens

>  <Target Description>
Target is a single protein chain

>  <Sequence Accession>
P08684

>  <Reference>
Bioorg Med Chem Lett 22 (1), 421-426 (2012)

>  <Pubmed ID>
22153347

>  <DOI>
10.1016/j.bmcl.2011.10.115

$$$$
1272926
Actelion Java MolfileCreator 1.0

 24 27  0  0  0  0  0  0  0  0999 V2000
    0.0000   -0.0000   -0.0000 S   0  0  0  0  0  0  0  0  0  0  0  0
   -0.7682    1.3119   -0.0000 C   0  0  0  0  0  0  0  0  0  0  0  0
    1.4774    0.0118   -0.0000 C   0  0  0  0  0  0  0  0  0  0  0  0
   -2.2692    1.3119   -0.0000 C   0  0  0  0  0  0  0  0  0  0  0  0
   -0.0473    2.6238   -0.0000 C   0  0  0  0  0  0  0  0  0  0  0  0
    2.2101    1.3237   -0.0000 C   0  0  0  0  0  0  0  0  0  0  0  0
   -3.1675    2.5292   -0.0000 N   0  0  0  0  0  0  0  0  0  0  0  0
   -3.1556    0.1064   -0.0000 N   0  0  0  0  0  0  0  0  0  0  0  0
    1.4419    2.6356   -0.0000 N   0  0  0  0  0  0  0  0  0  0  0  0
   -4.5975    2.0683   -0.0000 C   0  0  0  0  0  0  0  0  0  0  0  0
   -4.5975    0.5791   -0.0000 C   0  0  0  0  0  0  0  0  0  0  0  0
   -2.6947   -1.3001   -0.0000 C   0  0  0  0  0  0  0  0  0  0  0  0
   -5.9094    2.8247   -0.0000 C   0  0  0  0  0  0  0  0  0  0  0  0
   -5.9094   -0.1655   -0.0000 C   0  0  0  0  0  0  0  0  0  0  0  0
   -3.6993   -2.4110   -0.0000 C   0  0  0  0  0  0  0  0  0  0  0  0
   -7.2095    2.0919   -0.0000 C   0  0  0  0  0  0  0  0  0  0  0  0
   -7.2213    0.5909   -0.0000 C   0  0  0  0  0  0  0  0  0  0  0  0
   -5.1767   -2.0919   -0.0000 C   0  0  0  0  0  0  0  0  0  0  0  0
   -3.2384   -3.8057   -0.0000 C   0  0  0  0  0  0  0  0  0  0  0  0
   -6.1813   -3.1911   -0.0000 C   0  0  0  0  0  0  0  0  0  0  0  0
   -4.2430   -4.9166   -0.0000 C   0  0  0  0  0  0  0  0  0  0  0  0
   -5.7203   -4.5975   -0.0000 C   0  0  0  0  0  0  0  0  0  0  0  0
   -6.7249   -5.7085   -0.0000 O   0  0  0  0  0  0  0  0  0  0  0  0
   -8.2023   -5.4012   -0.0000 C   0  0  0  0  0  0  0  0  0  0  0  0
  1  2  1  0  0  0  0
  1  3  1  0  0  0  0
  2  4  1  6  0  0  0
  2  5  1  0  0  0  0
  3  6  1  0  0  0  0
  4  7  2  0  0  0  0
  4  8  1  0  0  0  0
  5  9  1  0  0  0  0
  7 10  1  0  0  0  0
  8 11  1  0  0  0  0
  8 12  1  0  0  0  0
 10 13  1  0  0  0  0
 11 14  1  0  0  0  0
 12 15  1  0  0  0  0
 13 16  2  0  0  0  0
 14 17  2  0  0  0  0
 15 18  2  0  0  0  0
 15 19  1  0  0  0  0
 18 20  1  0  0  0  0
 19 21  2  0  0  0  0
 20 22  2  0  0  0  0
 22 23  1  0  0  0  0
 23 24  1  0  0  0  0
  6  9  1  0  0  0  0
 10 11  2  0  0  0  0
 16 17  1  0  0  0  0
 21 22  1  0  0  0  0
M  END
>  <MolRegNo>
1272926

>  <m>
=

>  <Value>
5800

>  <Unit>
nM

>  <Type>
IC50

>  <pValue>
5.24

>  <Ligand Efficiency>
0

>  <Binding Efficiency>
0

>  <Surface Efficiency>
0

>  <Assay Index>
630677

>  <Assay Category>


>  <Assay Organism>


>  <Target ID>
17045

>  <Target Name>
Cytochrome P450 3A4

>  <Target Organism>
Homo sapiens

>  <Target Description>
Target is a single protein chain

>  <Sequence Accession>
P08684

>  <Reference>
Bioorg Med Chem Lett 22 (1), 421-426 (2012)

>  <Pubmed ID>
22153347

>  <DOI>
10.1016/j.bmcl.2011.10.115

$$$$
1272927
Actelion Java MolfileCreator 1.0

 24 27  0  0  0  0  0  0  0  0999 V2000
    0.0000   -0.0000   -0.0000 S   0  0  0  0  0  0  0  0  0  0  0  0
   -0.7678    1.3112   -0.0000 C   0  0  0  0  0  0  0  0  0  0  0  0
    1.4766    0.0118   -0.0000 C   0  0  0  0  0  0  0  0  0  0  0  0
   -2.2681    1.3112   -0.0000 C   0  0  0  0  0  0  0  0  0  0  0  0
   -0.0473    2.6225   -0.0000 C   0  0  0  0  0  0  0  0  0  0  0  0
    2.2090    1.3231   -0.0000 C   0  0  0  0  0  0  0  0  0  0  0  0
   -3.1659    2.5280   -0.0000 N   0  0  0  0  0  0  0  0  0  0  0  0
   -3.1541    0.1063   -0.0000 N   0  0  0  0  0  0  0  0  0  0  0  0
    1.4412    2.6343   -0.0000 N   0  0  0  0  0  0  0  0  0  0  0  0
   -4.5953    2.0673   -0.0000 C   0  0  0  0  0  0  0  0  0  0  0  0
   -4.5953    0.5670   -0.0000 C   0  0  0  0  0  0  0  0  0  0  0  0
   -2.6934   -1.2994   -0.0000 C   0  0  0  0  0  0  0  0  0  0  0  0
   -5.9065    2.8233   -0.0000 C   0  0  0  0  0  0  0  0  0  0  0  0
   -5.9065   -0.1772   -0.0000 C   0  0  0  0  0  0  0  0  0  0  0  0
   -3.6975   -2.4099   -0.0000 C   0  0  0  0  0  0  0  0  0  0  0  0
   -7.2060    2.0909   -0.0000 C   0  0  0  0  0  0  0  0  0  0  0  0
   -7.2178    0.5788   -0.0000 C   0  0  0  0  0  0  0  0  0  0  0  0
   -5.1741   -2.0909   -0.0000 C   0  0  0  0  0  0  0  0  0  0  0  0
   -3.2368   -3.8038   -0.0000 C   0  0  0  0  0  0  0  0  0  0  0  0
   -6.1782   -3.1895   -0.0000 C   0  0  0  0  0  0  0  0  0  0  0  0
   -4.2409   -4.9142   -0.0000 C   0  0  0  0  0  0  0  0  0  0  0  0
   -5.7175   -4.5953   -0.0000 C   0  0  0  0  0  0  0  0  0  0  0  0
   -6.7216   -5.7057   -0.0000 O   0  0  0  0  0  0  0  0  0  0  0  0
   -8.1982   -5.3986   -0.0000 C   0  0  0  0  0  0  0  0  0  0  0  0
  1  2  1  0  0  0  0
  1  3  1  0  0  0  0
  2  4  1  0  0  0  0
  2  5  1  0  0  0  0
  3  6  1  0  0  0  0
  4  7  2  0  0  0  0
  4  8  1  0  0  0  0
  5  9  1  0  0  0  0
  7 10  1  0  0  0  0
  8 11  1  0  0  0  0
  8 12  1  0  0  0  0
 10 13  1  0  0  0  0
 11 14  1  0  0  0  0
 12 15  1  0  0  0  0
 13 16  2  0  0  0  0
 14 17  2  0  0  0  0
 15 18  2  0  0  0  0
 15 19  1  0  0  0  0
 18 20  1  0  0  0  0
 19 21  2  0  0  0  0
 20 22  2  0  0  0  0
 22 23  1  0  0  0  0
 23 24  1  0  0  0  0
  6  9  1  0  0  0  0
 10 11  2  0  0  0  0
 16 17  1  0  0  0  0
 21 22  1  0  0  0  0
M  END
>  <MolRegNo>
1272927

>  <m>
=

>  <Value>
15800

>  <Unit>
nM

>  <Type>
IC50

>  <pValue>
4.8

>  <Ligand Efficiency>
0

>  <Binding Efficiency>
0

>  <Surface Efficiency>
0

>  <Assay Index>
630677

>  <Assay Category>


>  <Assay Organism>


>  <Target ID>
17045

>  <Target Name>
Cytochrome P450 3A4

>  <Target Organism>
Homo sapiens

>  <Target Description>
Target is a single protein chain

>  <Sequence Accession>
P08684

>  <Reference>
Bioorg Med Chem Lett 22 (1), 421-426 (2012)

>  <Pubmed ID>
22153347

>  <DOI>
10.1016/j.bmcl.2011.10.115

$$$$
1278537
Actelion Java MolfileCreator 1.0

 36 41  0  0  0  0  0  0  0  0999 V2000
    0.0000   -0.0000   -0.0000 O   0  0  0  0  0  0  0  0  0  0  0  0
   -1.5090    0.0238   -0.0000 C   0  0  0  0  0  0  0  0  0  0  0  0
   -2.4001    1.2595   -0.0000 N   0  0  0  0  0  0  0  0  0  0  0  0
   -2.4120   -1.1763   -0.0000 N   0  0  0  0  0  0  0  0  0  0  0  0
   -1.6516    2.5665   -0.0000 C   0  0  0  0  0  0  0  0  0  0  0  0
   -3.8378    0.8198   -0.0000 C   0  0  0  0  0  0  0  0  0  0  0  0
   -3.8497   -0.6891   -0.0000 C   0  0  0  0  0  0  0  0  0  0  0  0
   -2.4239   -2.6615   -0.0000 C   0  0  0  0  0  0  0  0  0  0  0  0
   -2.5308    3.8022   -0.0000 N   0  0  0  0  0  0  0  0  0  0  0  0
   -0.2376    3.0061   -0.0000 C   0  0  0  0  0  0  0  0  0  0  0  0
   -5.1448    1.5922   -0.0000 C   0  0  0  0  0  0  0  0  0  0  0  0
   -5.1805   -1.4258   -0.0000 C   0  0  0  0  0  0  0  0  0  0  0  0
   -1.1288   -3.3982   -0.0000 C   0  0  0  0  0  0  0  0  0  0  0  0
   -1.6397    5.0141   -0.0000 O   0  0  0  0  0  0  0  0  0  0  0  0
   -0.2139    4.5270   -0.0000 C   0  0  0  0  0  0  0  0  0  0  0  0
    1.0337    2.2457   -0.0000 C   0  0  0  0  0  0  0  0  0  0  0  0
   -6.4637    0.8674   -0.0000 C   0  0  0  0  0  0  0  0  0  0  0  0
   -6.4875   -0.6416   -0.0000 C   0  0  0  0  0  0  0  0  0  0  0  0
    0.1426   -2.6259   -0.0000 C   0  0  0  0  0  0  0  0  0  0  0  0
   -1.1407   -4.8834   -0.0000 C   0  0  0  0  0  0  0  0  0  0  0  0
    1.0812    5.2637   -0.0000 C   0  0  0  0  0  0  0  0  0  0  0  0
    2.3407    2.9823   -0.0000 C   0  0  0  0  0  0  0  0  0  0  0  0
    1.4377   -3.3507   -0.0000 C   0  0  0  0  0  0  0  0  0  0  0  0
    0.1545   -5.6201   -0.0000 C   0  0  0  0  0  0  0  0  0  0  0  0
    2.3526    4.5032   -0.0000 C   0  0  0  0  0  0  0  0  0  0  0  0
    1.4377   -4.8478   -0.0000 C   0  0  0  0  0  0  0  0  0  0  0  0
    2.7091   -2.5784   -0.0000 C   0  0  0  0  0  0  0  0  0  0  0  0
    3.6477    5.2518   -0.0000 O   0  0  0  0  0  0  0  0  0  0  0  0
    2.7091   -1.0694   -0.0000 O   0  0  0  0  0  0  0  0  0  0  0  0
    4.1230   -3.0418   -0.0000 C   0  0  0  0  0  0  0  0  0  0  0  0
    2.6853   -4.0636   -0.0000 C   0  0  0  0  0  0  0  0  0  0  0  0
    4.9191    4.4913   -0.0000 C   0  0  0  0  0  0  0  0  0  0  0  0
    4.1230   -0.6060   -0.0000 C   0  0  0  0  0  0  0  0  0  0  0  0
    4.5626   -4.4557   -0.0000 O   0  0  0  0  0  0  0  0  0  0  0  0
    5.0023   -1.8179   -0.0000 N   0  0  0  0  0  0  0  0  0  0  0  0
    4.5864    0.8317   -0.0000 O   0  0  0  0  0  0  0  0  0  0  0  0
  1  2  2  0  0  0  0
  2  3  1  0  0  0  0
  2  4  1  0  0  0  0
  3  5  1  0  0  0  0
  3  6  1  0  0  0  0
  4  7  1  0  0  0  0
  4  8  1  0  0  0  0
  5  9  2  0  0  0  0
  5 10  1  0  0  0  0
  6 11  1  0  0  0  0
  7 12  1  0  0  0  0
  8 13  1  0  0  0  0
  9 14  1  0  0  0  0
 10 15  2  0  0  0  0
 10 16  1  0  0  0  0
 11 17  2  0  0  0  0
 12 18  2  0  0  0  0
 13 19  2  0  0  0  0
 13 20  1  0  0  0  0
 15 21  1  0  0  0  0
 16 22  2  0  0  0  0
 19 23  1  0  0  0  0
 20 24  2  0  0  0  0
 21 25  2  0  0  0  0
 23 26  2  0  0  0  0
 23 27  1  0  0  0  0
 25 28  1  0  0  0  0
 27 29  1  0  0  0  0
 27 30  1  0  0  0  0
 27 31  1  6  0  0  0
 28 32  1  0  0  0  0
 29 33  1  0  0  0  0
 30 34  2  0  0  0  0
 30 35  1  0  0  0  0
 33 36  2  0  0  0  0
  6  7  2  0  0  0  0
 14 15  1  0  0  0  0
 17 18  1  0  0  0  0
 22 25  1  0  0  0  0
 24 26  1  0  0  0  0
 33 35  1  0  0  0  0
M  END
>  <MolRegNo>
1278537

>  <m>
=

>  <Value>
22000

>  <Unit>
nM

>  <Type>
IC50

>  <pValue>
4.66

>  <Ligand Efficiency>
0

>  <Binding Efficiency>
0

>  <Surface Efficiency>
0

>  <Assay Index>
634848

>  <Assay Category>


>  <Assay Organism>


>  <Target ID>
17045

>  <Target Name>
Cytochrome P450 3A4

>  <Target Organism>
Homo sapiens

>  <Target Description>
Target is a single protein chain

>  <Sequence Accession>
P08684

>  <Reference>
J Med Chem 54 (24), 8541-8554 (2011)

>  <Pubmed ID>
22070604

>  <DOI>
10.1021/jm201061j

$$$$
1277099
Actelion Java MolfileCreator 1.0

 33 37  0  0  0  0  0  0  0  0999 V2000
    0.0000   -0.0000   -0.0000 Cl  0  0  0  0  0  0  0  0  0  0  0  0
    1.2841   -0.7491   -0.0000 C   0  0  0  0  0  0  0  0  0  0  0  0
    2.5682   -0.0000   -0.0000 C   0  0  0  0  0  0  0  0  0  0  0  0
    1.2603   -2.2472   -0.0000 C   0  0  0  0  0  0  0  0  0  0  0  0
    3.8524   -0.7372   -0.0000 C   0  0  0  0  0  0  0  0  0  0  0  0
    2.5564    1.5100   -0.0000 C   0  0  0  0  0  0  0  0  0  0  0  0
    2.5445   -2.9963   -0.0000 C   0  0  0  0  0  0  0  0  0  0  0  0
    5.1365    0.0238   -0.0000 F   0  0  0  0  0  0  0  0  0  0  0  0
    3.8405   -2.2353   -0.0000 C   0  0  0  0  0  0  0  0  0  0  0  0
    1.1771    2.1402   -0.0000 N   0  0  0  0  0  0  0  0  0  0  0  0
    3.5670    2.6277   -0.0000 N   0  0  0  0  0  0  0  0  0  0  0  0
    1.3317    3.6384   -0.0000 N   0  0  0  0  0  0  0  0  0  0  0  0
    5.0533    2.6277   -0.0000 N   0  0  0  0  0  0  0  0  0  0  0  0
    2.8060    3.9475   -0.0000 C   0  0  0  0  0  0  0  0  0  0  0  0
    5.8142    3.9356   -0.0000 C   0  0  0  0  0  0  0  0  0  0  0  0
    5.7786    1.3317   -0.0000 C   0  0  0  0  0  0  0  0  0  0  0  0
    3.5551    5.2554   -0.0000 C   0  0  0  0  0  0  0  0  0  0  0  0
    7.3005    3.9356   -0.0000 O   0  0  0  0  0  0  0  0  0  0  0  0
    5.0533    5.2554   -0.0000 C   0  0  0  0  0  0  0  0  0  0  0  0
    5.8023    6.5633   -0.0000 C   0  0  0  0  0  0  0  0  0  0  0  0
    5.0414    7.8712   -0.0000 C   0  0  0  0  0  0  0  0  0  0  0  0
    7.2886    6.5633   -0.0000 C   0  0  0  0  0  0  0  0  0  0  0  0
    5.7786    9.1791   -0.0000 C   0  0  0  0  0  0  0  0  0  0  0  0
    3.5313    7.8950   -0.0000 C   0  0  0  0  0  0  0  0  0  0  0  0
    8.0377    7.8712   -0.0000 C   0  0  0  0  0  0  0  0  0  0  0  0
    5.0295   10.4989   -0.0000 F   0  0  0  0  0  0  0  0  0  0  0  0
    7.2767    9.1791   -0.0000 C   0  0  0  0  0  0  0  0  0  0  0  0
    9.5239    7.8712   -0.0000 C   0  0  0  0  0  0  0  0  0  0  0  0
   10.2730    9.1791   -0.0000 O   0  0  0  0  0  0  0  0  0  0  0  0
   10.2492    6.5752   -0.0000 N   0  0  0  0  0  0  0  0  0  0  0  0
   11.7355    6.5752   -0.0000 C   0  0  0  0  0  0  0  0  0  0  0  0
   13.0077    5.8142   -0.0000 C   0  0  0  0  0  0  0  0  0  0  0  0
   13.0196    7.3243   -0.0000 C   0  0  0  0  0  0  0  0  0  0  0  0
  1  2  1  0  0  0  0
  2  3  2  0  0  0  0
  2  4  1  0  0  0  0
  3  5  1  0  0  0  0
  3  6  1  0  0  0  0
  4  7  2  0  0  0  0
  5  8  1  0  0  0  0
  5  9  2  0  0  0  0
  6 10  2  0  0  0  0
  6 11  1  0  0  0  0
 10 12  1  0  0  0  0
 11 13  1  0  0  0  0
 11 14  1  0  0  0  0
 13 15  1  0  0  0  0
 13 16  1  0  0  0  0
 14 17  1  0  0  0  0
 15 18  2  0  0  0  0
 15 19  1  0  0  0  0
 19 20  1  0  0  0  0
 20 21  2  0  0  0  0
 20 22  1  0  0  0  0
 21 23  1  0  0  0  0
 21 24  1  0  0  0  0
 22 25  2  0  0  0  0
 23 26  1  0  0  0  0
 23 27  2  0  0  0  0
 25 28  1  0  0  0  0
 28 29  2  0  0  0  0
 28 30  1  0  0  0  0
 30 31  1  0  0  0  0
 31 32  1  0  0  0  0
 31 33  1  0  0  0  0
  7  9  1  0  0  0  0
 12 14  2  0  0  0  0
 17 19  2  0  0  0  0
 25 27  1  0  0  0  0
 32 33  1  0  0  0  0
M  END
>  <MolRegNo>
1277099

>  <m>
=

>  <Value>
25800

>  <Unit>
nM

>  <Type>
IC50

>  <pValue>
4.59

>  <Ligand Efficiency>
0

>  <Binding Efficiency>
0

>  <Surface Efficiency>
0

>  <Assay Index>
635464

>  <Assay Category>


>  <Assay Organism>


>  <Target ID>
17045

>  <Target Name>
Cytochrome P450 3A4

>  <Target Organism>
Homo sapiens

>  <Target Description>
Target is a single protein chain

>  <Sequence Accession>
P08684

>  <Reference>
Bioorg Med Chem Lett 22 (2), 1226-1229 (2012)

>  <Pubmed ID>
22196117

>  <DOI>
10.1016/j.bmcl.2011.11.067

$$$$
1277105
Actelion Java MolfileCreator 1.0

 34 38  0  0  0  0  0  0  0  0999 V2000
    0.0000   -0.0000   -0.0000 Cl  0  0  0  0  0  0  0  0  0  0  0  0
    1.2844   -0.7493   -0.0000 C   0  0  0  0  0  0  0  0  0  0  0  0
    2.5689   -0.0000   -0.0000 C   0  0  0  0  0  0  0  0  0  0  0  0
    1.2606   -2.2478   -0.0000 C   0  0  0  0  0  0  0  0  0  0  0  0
    3.8533   -0.7374   -0.0000 C   0  0  0  0  0  0  0  0  0  0  0  0
    2.5570    1.5104   -0.0000 C   0  0  0  0  0  0  0  0  0  0  0  0
    2.5451   -2.9970   -0.0000 C   0  0  0  0  0  0  0  0  0  0  0  0
    5.1377    0.0238   -0.0000 F   0  0  0  0  0  0  0  0  0  0  0  0
    3.8414   -2.2359   -0.0000 C   0  0  0  0  0  0  0  0  0  0  0  0
    1.1774    2.1407   -0.0000 N   0  0  0  0  0  0  0  0  0  0  0  0
    3.5679    2.6283   -0.0000 N   0  0  0  0  0  0  0  0  0  0  0  0
    1.3320    3.6392   -0.0000 N   0  0  0  0  0  0  0  0  0  0  0  0
    5.0545    2.6283   -0.0000 N   0  0  0  0  0  0  0  0  0  0  0  0
    2.8067    3.9484   -0.0000 C   0  0  0  0  0  0  0  0  0  0  0  0
    5.8156    3.9366   -0.0000 C   0  0  0  0  0  0  0  0  0  0  0  0
    5.7800    1.3320   -0.0000 C   0  0  0  0  0  0  0  0  0  0  0  0
    3.5560    5.2567   -0.0000 C   0  0  0  0  0  0  0  0  0  0  0  0
    7.3022    3.9366   -0.0000 O   0  0  0  0  0  0  0  0  0  0  0  0
    5.0545    5.2567   -0.0000 C   0  0  0  0  0  0  0  0  0  0  0  0
    7.2666    1.3320   -0.0000 C   0  0  0  0  0  0  0  0  0  0  0  0
    5.8037    6.5649   -0.0000 C   0  0  0  0  0  0  0  0  0  0  0  0
    5.0426    7.8731   -0.0000 C   0  0  0  0  0  0  0  0  0  0  0  0
    7.2904    6.5649   -0.0000 C   0  0  0  0  0  0  0  0  0  0  0  0
    5.7800    9.1813   -0.0000 C   0  0  0  0  0  0  0  0  0  0  0  0
    3.5322    7.8969   -0.0000 C   0  0  0  0  0  0  0  0  0  0  0  0
    8.0396    7.8731   -0.0000 C   0  0  0  0  0  0  0  0  0  0  0  0
    5.0307   10.5014   -0.0000 F   0  0  0  0  0  0  0  0  0  0  0  0
    7.2785    9.1813   -0.0000 C   0  0  0  0  0  0  0  0  0  0  0  0
    9.5262    7.8731   -0.0000 C   0  0  0  0  0  0  0  0  0  0  0  0
   10.2755    9.1813   -0.0000 O   0  0  0  0  0  0  0  0  0  0  0  0
   10.2517    6.5768   -0.0000 N   0  0  0  0  0  0  0  0  0  0  0  0
   11.7383    6.5768   -0.0000 C   0  0  0  0  0  0  0  0  0  0  0  0
   13.0108    5.8156   -0.0000 C   0  0  0  0  0  0  0  0  0  0  0  0
   13.0227    7.3260   -0.0000 C   0  0  0  0  0  0  0  0  0  0  0  0
  1  2  1  0  0  0  0
  2  3  2  0  0  0  0
  2  4  1  0  0  0  0
  3  5  1  0  0  0  0
  3  6  1  0  0  0  0
  4  7  2  0  0  0  0
  5  8  1  0  0  0  0
  5  9  2  0  0  0  0
  6 10  2  0  0  0  0
  6 11  1  0  0  0  0
 10 12  1  0  0  0  0
 11 13  1  0  0  0  0
 11 14  1  0  0  0  0
 13 15  1  0  0  0  0
 13 16  1  0  0  0  0
 14 17  1  0  0  0  0
 15 18  2  0  0  0  0
 15 19  1  0  0  0  0
 16 20  1  0  0  0  0
 19 21  1  0  0  0  0
 21 22  2  0  0  0  0
 21 23  1  0  0  0  0
 22 24  1  0  0  0  0
 22 25  1  0  0  0  0
 23 26  2  0  0  0  0
 24 27  1  0  0  0  0
 24 28  2  0  0  0  0
 26 29  1  0  0  0  0
 29 30  2  0  0  0  0
 29 31  1  0  0  0  0
 31 32  1  0  0  0  0
 32 33  1  0  0  0  0
 32 34  1  0  0  0  0
  7  9  1  0  0  0  0
 12 14  2  0  0  0  0
 17 19  2  0  0  0  0
 26 28  1  0  0  0  0
 33 34  1  0  0  0  0
M  END
>  <MolRegNo>
1277105

>  <m>
=

>  <Value>
11800

>  <Unit>
nM

>  <Type>
IC50

>  <pValue>
4.93

>  <Ligand Efficiency>
0

>  <Binding Efficiency>
0

>  <Surface Efficiency>
0

>  <Assay Index>
635464

>  <Assay Category>


>  <Assay Organism>


>  <Target ID>
17045

>  <Target Name>
Cytochrome P450 3A4

>  <Target Organism>
Homo sapiens

>  <Target Description>
Target is a single protein chain

>  <Sequence Accession>
P08684

>  <Reference>
Bioorg Med Chem Lett 22 (2), 1226-1229 (2012)

>  <Pubmed ID>
22196117

>  <DOI>
10.1016/j.bmcl.2011.11.067

$$$$
1280306
Actelion Java MolfileCreator 1.0

 26 29  0  0  0  0  0  0  0  0999 V2000
    0.0000   -0.0000   -0.0000 Cl  0  0  0  0  0  0  0  0  0  0  0  0
   -1.3123   -0.7516   -0.0000 C   0  0  0  0  0  0  0  0  0  0  0  0
   -1.3243   -2.2429   -0.0000 C   0  0  0  0  0  0  0  0  0  0  0  0
   -2.6366    0.0119   -0.0000 C   0  0  0  0  0  0  0  0  0  0  0  0
   -2.6366   -2.9826   -0.0000 C   0  0  0  0  0  0  0  0  0  0  0  0
   -3.9490   -0.7397   -0.0000 C   0  0  0  0  0  0  0  0  0  0  0  0
   -3.9490   -2.2191   -0.0000 C   0  0  0  0  0  0  0  0  0  0  0  0
   -5.2613   -2.9587   -0.0000 N   0  0  0  0  0  0  0  0  0  0  0  0
   -6.5736   -2.1952   -0.0000 C   0  0  0  0  0  0  0  0  0  0  0  0
   -6.5856   -0.6800   -0.0000 O   0  0  0  0  0  0  0  0  0  0  0  0
   -7.8860   -2.9349   -0.0000 N   0  0  0  0  0  0  0  0  0  0  0  0
   -7.8979   -4.4262   -0.0000 C   0  0  0  0  0  0  0  0  0  0  0  0
   -9.2103   -5.1659   -0.0000 C   0  0  0  0  0  0  0  0  0  0  0  0
   -6.6094   -5.1659   -0.0000 C   0  0  0  0  0  0  0  0  0  0  0  0
   -9.2222   -6.6691   -0.0000 C   0  0  0  0  0  0  0  0  0  0  0  0
   -6.6214   -6.6691   -0.0000 C   0  0  0  0  0  0  0  0  0  0  0  0
   -7.9337   -7.4088   -0.0000 C   0  0  0  0  0  0  0  0  0  0  0  0
   -7.9456   -8.9001   -0.0000 C   0  0  0  0  0  0  0  0  0  0  0  0
   -6.6572   -9.6398   -0.0000 C   0  0  0  0  0  0  0  0  0  0  0  0
   -9.2699   -9.6398   -0.0000 C   0  0  0  0  0  0  0  0  0  0  0  0
   -5.2494   -9.1506   -0.0000 N   0  0  0  0  0  0  0  0  0  0  0  0
   -6.6572  -11.1191   -0.0000 C   0  0  0  0  0  0  0  0  0  0  0  0
   -9.2818  -11.1311   -0.0000 C   0  0  0  0  0  0  0  0  0  0  0  0
   -4.3785  -10.3436   -0.0000 C   0  0  0  0  0  0  0  0  0  0  0  0
   -7.9814  -11.8707   -0.0000 N   0  0  0  0  0  0  0  0  0  0  0  0
   -5.2494  -11.5605   -0.0000 N   0  0  0  0  0  0  0  0  0  0  0  0
  1  2  1  0  0  0  0
  2  3  2  0  0  0  0
  2  4  1  0  0  0  0
  3  5  1  0  0  0  0
  4  6  2  0  0  0  0
  5  7  2  0  0  0  0
  7  8  1  0  0  0  0
  8  9  1  0  0  0  0
  9 10  2  0  0  0  0
  9 11  1  0  0  0  0
 11 12  1  0  0  0  0
 12 13  2  0  0  0  0
 12 14  1  0  0  0  0
 13 15  1  0  0  0  0
 14 16  2  0  0  0  0
 15 17  2  0  0  0  0
 17 18  1  0  0  0  0
 18 19  2  0  0  0  0
 18 20  1  0  0  0  0
 19 21  1  0  0  0  0
 19 22  1  0  0  0  0
 20 23  2  0  0  0  0
 21 24  2  0  0  0  0
 22 25  2  0  0  0  0
 22 26  1  0  0  0  0
  6  7  1  0  0  0  0
 16 17  1  0  0  0  0
 23 25  1  0  0  0  0
 24 26  1  0  0  0  0
M  END
>  <MolRegNo>
1280306

>  <m>
=

>  <Value>
310

>  <Unit>
nM

>  <Type>
IC50

>  <pValue>
6.51

>  <Ligand Efficiency>
0

>  <Binding Efficiency>
0

>  <Surface Efficiency>
0

>  <Assay Index>
637122

>  <Assay Category>


>  <Assay Organism>
Homo sapiens

>  <Target ID>
17045

>  <Target Name>
Cytochrome P450 3A4

>  <Target Organism>
Homo sapiens

>  <Target Description>
Target is a single protein chain

>  <Sequence Accession>
P08684

>  <Reference>
Bioorg Med Chem Lett 22 (4), 1611-1614 (2012)

>  <Pubmed ID>
22264486

>  <DOI>
10.1016/j.bmcl.2011.12.125

$$$$
1280307
Actelion Java MolfileCreator 1.0

 26 29  0  0  0  0  0  0  0  0999 V2000
    0.0000   -0.0000   -0.0000 Br  0  0  0  0  0  0  0  0  0  0  0  0
   -1.3130   -0.7520   -0.0000 C   0  0  0  0  0  0  0  0  0  0  0  0
   -1.3249   -2.2440   -0.0000 C   0  0  0  0  0  0  0  0  0  0  0  0
   -2.6379    0.0119   -0.0000 C   0  0  0  0  0  0  0  0  0  0  0  0
   -2.6379   -2.9840   -0.0000 C   0  0  0  0  0  0  0  0  0  0  0  0
   -3.9508   -0.7400   -0.0000 C   0  0  0  0  0  0  0  0  0  0  0  0
   -3.9508   -2.2201   -0.0000 C   0  0  0  0  0  0  0  0  0  0  0  0
   -5.2638   -2.9601   -0.0000 N   0  0  0  0  0  0  0  0  0  0  0  0
   -6.5768   -2.1962   -0.0000 C   0  0  0  0  0  0  0  0  0  0  0  0
   -6.5887   -0.6804   -0.0000 O   0  0  0  0  0  0  0  0  0  0  0  0
   -7.8898   -2.9363   -0.0000 N   0  0  0  0  0  0  0  0  0  0  0  0
   -7.9017   -4.4283   -0.0000 C   0  0  0  0  0  0  0  0  0  0  0  0
   -9.2147   -5.1683   -0.0000 C   0  0  0  0  0  0  0  0  0  0  0  0
   -6.6126   -5.1683   -0.0000 C   0  0  0  0  0  0  0  0  0  0  0  0
   -9.2266   -6.6723   -0.0000 C   0  0  0  0  0  0  0  0  0  0  0  0
   -6.6245   -6.6723   -0.0000 C   0  0  0  0  0  0  0  0  0  0  0  0
   -7.9375   -7.4123   -0.0000 C   0  0  0  0  0  0  0  0  0  0  0  0
   -7.9494   -8.9043   -0.0000 C   0  0  0  0  0  0  0  0  0  0  0  0
   -6.6603   -9.6444   -0.0000 C   0  0  0  0  0  0  0  0  0  0  0  0
   -9.2624   -9.6444   -0.0000 C   0  0  0  0  0  0  0  0  0  0  0  0
   -5.2519   -9.1550   -0.0000 N   0  0  0  0  0  0  0  0  0  0  0  0
   -6.6603  -11.1244   -0.0000 C   0  0  0  0  0  0  0  0  0  0  0  0
   -9.2743  -11.1364   -0.0000 C   0  0  0  0  0  0  0  0  0  0  0  0
   -4.3805  -10.3486   -0.0000 C   0  0  0  0  0  0  0  0  0  0  0  0
   -7.9852  -11.8764   -0.0000 N   0  0  0  0  0  0  0  0  0  0  0  0
   -5.2519  -11.5661   -0.0000 N   0  0  0  0  0  0  0  0  0  0  0  0
  1  2  1  0  0  0  0
  2  3  2  0  0  0  0
  2  4  1  0  0  0  0
  3  5  1  0  0  0  0
  4  6  2  0  0  0  0
  5  7  2  0  0  0  0
  7  8  1  0  0  0  0
  8  9  1  0  0  0  0
  9 10  2  0  0  0  0
  9 11  1  0  0  0  0
 11 12  1  0  0  0  0
 12 13  2  0  0  0  0
 12 14  1  0  0  0  0
 13 15  1  0  0  0  0
 14 16  2  0  0  0  0
 15 17  2  0  0  0  0
 17 18  1  0  0  0  0
 18 19  2  0  0  0  0
 18 20  1  0  0  0  0
 19 21  1  0  0  0  0
 19 22  1  0  0  0  0
 20 23  2  0  0  0  0
 21 24  2  0  0  0  0
 22 25  2  0  0  0  0
 22 26  1  0  0  0  0
  6  7  1  0  0  0  0
 16 17  1  0  0  0  0
 23 25  1  0  0  0  0
 24 26  1  0  0  0  0
M  END
>  <MolRegNo>
1280307

>  <m>
=

>  <Value>
210

>  <Unit>
nM

>  <Type>
IC50

>  <pValue>
6.68

>  <Ligand Efficiency>
0

>  <Binding Efficiency>
0

>  <Surface Efficiency>
0

>  <Assay Index>
637122

>  <Assay Category>


>  <Assay Organism>
Homo sapiens

>  <Target ID>
17045

>  <Target Name>
Cytochrome P450 3A4

>  <Target Organism>
Homo sapiens

>  <Target Description>
Target is a single protein chain

>  <Sequence Accession>
P08684

>  <Reference>
Bioorg Med Chem Lett 22 (4), 1611-1614 (2012)

>  <Pubmed ID>
22264486

>  <DOI>
10.1016/j.bmcl.2011.12.125

$$$$
1280308
Actelion Java MolfileCreator 1.0

 26 29  0  0  0  0  0  0  0  0999 V2000
    0.0000   -0.0000   -0.0000 Cl  0  0  0  0  0  0  0  0  0  0  0  0
   -0.0119    1.5134   -0.0000 C   0  0  0  0  0  0  0  0  0  0  0  0
   -1.3227    2.2760   -0.0000 C   0  0  0  0  0  0  0  0  0  0  0  0
    1.2750    2.2760   -0.0000 C   0  0  0  0  0  0  0  0  0  0  0  0
   -2.6335    1.5372   -0.0000 N   0  0  0  0  0  0  0  0  0  0  0  0
   -1.3465    3.7894   -0.0000 C   0  0  0  0  0  0  0  0  0  0  0  0
    1.2631    3.7894   -0.0000 C   0  0  0  0  0  0  0  0  0  0  0  0
   -3.9443    2.2998   -0.0000 C   0  0  0  0  0  0  0  0  0  0  0  0
   -0.0596    4.5639   -0.0000 C   0  0  0  0  0  0  0  0  0  0  0  0
   -3.9562    3.8132   -0.0000 O   0  0  0  0  0  0  0  0  0  0  0  0
   -5.2551    1.5610   -0.0000 N   0  0  0  0  0  0  0  0  0  0  0  0
   -5.2670    0.0715   -0.0000 C   0  0  0  0  0  0  0  0  0  0  0  0
   -6.5778   -0.6673   -0.0000 C   0  0  0  0  0  0  0  0  0  0  0  0
   -3.9800   -0.6673   -0.0000 C   0  0  0  0  0  0  0  0  0  0  0  0
   -6.5897   -2.1688   -0.0000 C   0  0  0  0  0  0  0  0  0  0  0  0
   -3.9920   -2.1688   -0.0000 C   0  0  0  0  0  0  0  0  0  0  0  0
   -5.3027   -2.9076   -0.0000 C   0  0  0  0  0  0  0  0  0  0  0  0
   -5.3147   -4.3971   -0.0000 C   0  0  0  0  0  0  0  0  0  0  0  0
   -4.0277   -5.1359   -0.0000 C   0  0  0  0  0  0  0  0  0  0  0  0
   -6.6374   -5.1359   -0.0000 C   0  0  0  0  0  0  0  0  0  0  0  0
   -2.6216   -4.6473   -0.0000 N   0  0  0  0  0  0  0  0  0  0  0  0
   -4.0277   -6.6135   -0.0000 C   0  0  0  0  0  0  0  0  0  0  0  0
   -6.6493   -6.6255   -0.0000 C   0  0  0  0  0  0  0  0  0  0  0  0
   -1.7517   -5.8390   -0.0000 C   0  0  0  0  0  0  0  0  0  0  0  0
   -5.3504   -7.3643   -0.0000 N   0  0  0  0  0  0  0  0  0  0  0  0
   -2.6216   -7.0544   -0.0000 N   0  0  0  0  0  0  0  0  0  0  0  0
  1  2  1  0  0  0  0
  2  3  2  0  0  0  0
  2  4  1  0  0  0  0
  3  5  1  0  0  0  0
  3  6  1  0  0  0  0
  4  7  2  0  0  0  0
  5  8  1  0  0  0  0
  6  9  2  0  0  0  0
  8 10  2  0  0  0  0
  8 11  1  0  0  0  0
 11 12  1  0  0  0  0
 12 13  2  0  0  0  0
 12 14  1  0  0  0  0
 13 15  1  0  0  0  0
 14 16  2  0  0  0  0
 15 17  2  0  0  0  0
 17 18  1  0  0  0  0
 18 19  2  0  0  0  0
 18 20  1  0  0  0  0
 19 21  1  0  0  0  0
 19 22  1  0  0  0  0
 20 23  2  0  0  0  0
 21 24  2  0  0  0  0
 22 25  2  0  0  0  0
 22 26  1  0  0  0  0
  7  9  1  0  0  0  0
 16 17  1  0  0  0  0
 23 25  1  0  0  0  0
 24 26  1  0  0  0  0
M  END
>  <MolRegNo>
1280308

>  <m>
=

>  <Value>
600

>  <Unit>
nM

>  <Type>
IC50

>  <pValue>
6.22

>  <Ligand Efficiency>
0

>  <Binding Efficiency>
0

>  <Surface Efficiency>
0

>  <Assay Index>
637122

>  <Assay Category>


>  <Assay Organism>
Homo sapiens

>  <Target ID>
17045

>  <Target Name>
Cytochrome P450 3A4

>  <Target Organism>
Homo sapiens

>  <Target Description>
Target is a single protein chain

>  <Sequence Accession>
P08684

>  <Reference>
Bioorg Med Chem Lett 22 (4), 1611-1614 (2012)

>  <Pubmed ID>
22264486

>  <DOI>
10.1016/j.bmcl.2011.12.125

$$$$
1280309
Actelion Java MolfileCreator 1.0

 26 29  0  0  0  0  0  0  0  0999 V2000
    0.0000   -0.0000   -0.0000 F   0  0  0  0  0  0  0  0  0  0  0  0
   -1.3105    0.7625   -0.0000 C   0  0  0  0  0  0  0  0  0  0  0  0
   -2.6211    0.0238   -0.0000 C   0  0  0  0  0  0  0  0  0  0  0  0
   -1.3225    2.2756   -0.0000 C   0  0  0  0  0  0  0  0  0  0  0  0
   -3.9316    0.7863   -0.0000 C   0  0  0  0  0  0  0  0  0  0  0  0
   -2.6449    3.0381   -0.0000 C   0  0  0  0  0  0  0  0  0  0  0  0
   -5.2422    0.0477   -0.0000 N   0  0  0  0  0  0  0  0  0  0  0  0
   -3.9554    2.2994   -0.0000 C   0  0  0  0  0  0  0  0  0  0  0  0
   -6.5527    0.8102   -0.0000 C   0  0  0  0  0  0  0  0  0  0  0  0
   -6.5646    2.3232   -0.0000 O   0  0  0  0  0  0  0  0  0  0  0  0
   -7.8632    0.0715   -0.0000 N   0  0  0  0  0  0  0  0  0  0  0  0
   -7.8751   -1.4178   -0.0000 C   0  0  0  0  0  0  0  0  0  0  0  0
   -9.1857   -2.1564   -0.0000 C   0  0  0  0  0  0  0  0  0  0  0  0
   -6.5884   -2.1564   -0.0000 C   0  0  0  0  0  0  0  0  0  0  0  0
   -9.1976   -3.6576   -0.0000 C   0  0  0  0  0  0  0  0  0  0  0  0
   -6.6003   -3.6576   -0.0000 C   0  0  0  0  0  0  0  0  0  0  0  0
   -7.9109   -4.3963   -0.0000 C   0  0  0  0  0  0  0  0  0  0  0  0
   -7.9228   -5.8855   -0.0000 C   0  0  0  0  0  0  0  0  0  0  0  0
   -6.6361   -6.6242   -0.0000 C   0  0  0  0  0  0  0  0  0  0  0  0
   -9.2452   -6.6242   -0.0000 C   0  0  0  0  0  0  0  0  0  0  0  0
   -5.2302   -6.1357   -0.0000 N   0  0  0  0  0  0  0  0  0  0  0  0
   -6.6361   -8.1015   -0.0000 C   0  0  0  0  0  0  0  0  0  0  0  0
   -9.2572   -8.1134   -0.0000 C   0  0  0  0  0  0  0  0  0  0  0  0
   -4.3605   -7.3271   -0.0000 C   0  0  0  0  0  0  0  0  0  0  0  0
   -7.9585   -8.8521   -0.0000 N   0  0  0  0  0  0  0  0  0  0  0  0
   -5.2302   -8.5423   -0.0000 N   0  0  0  0  0  0  0  0  0  0  0  0
  1  2  1  0  0  0  0
  2  3  2  0  0  0  0
  2  4  1  0  0  0  0
  3  5  1  0  0  0  0
  4  6  2  0  0  0  0
  5  7  1  0  0  0  0
  5  8  2  0  0  0  0
  7  9  1  0  0  0  0
  9 10  2  0  0  0  0
  9 11  1  0  0  0  0
 11 12  1  0  0  0  0
 12 13  2  0  0  0  0
 12 14  1  0  0  0  0
 13 15  1  0  0  0  0
 14 16  2  0  0  0  0
 15 17  2  0  0  0  0
 17 18  1  0  0  0  0
 18 19  2  0  0  0  0
 18 20  1  0  0  0  0
 19 21  1  0  0  0  0
 19 22  1  0  0  0  0
 20 23  2  0  0  0  0
 21 24  2  0  0  0  0
 22 25  2  0  0  0  0
 22 26  1  0  0  0  0
  6  8  1  0  0  0  0
 16 17  1  0  0  0  0
 23 25  1  0  0  0  0
 24 26  1  0  0  0  0
M  END
>  <MolRegNo>
1280309

>  <m>
=

>  <Value>
710

>  <Unit>
nM

>  <Type>
IC50

>  <pValue>
6.15

>  <Ligand Efficiency>
0

>  <Binding Efficiency>
0

>  <Surface Efficiency>
0

>  <Assay Index>
637122

>  <Assay Category>


>  <Assay Organism>
Homo sapiens

>  <Target ID>
17045

>  <Target Name>
Cytochrome P450 3A4

>  <Target Organism>
Homo sapiens

>  <Target Description>
Target is a single protein chain

>  <Sequence Accession>
P08684

>  <Reference>
Bioorg Med Chem Lett 22 (4), 1611-1614 (2012)

>  <Pubmed ID>
22264486

>  <DOI>
10.1016/j.bmcl.2011.12.125

$$$$
1280310
Actelion Java MolfileCreator 1.0

 26 29  0  0  0  0  0  0  0  0999 V2000
    0.0000   -0.0000   -0.0000 Cl  0  0  0  0  0  0  0  0  0  0  0  0
   -1.3105    0.7625   -0.0000 C   0  0  0  0  0  0  0  0  0  0  0  0
   -2.6211    0.0238   -0.0000 C   0  0  0  0  0  0  0  0  0  0  0  0
   -1.3225    2.2756   -0.0000 C   0  0  0  0  0  0  0  0  0  0  0  0
   -3.9316    0.7863   -0.0000 C   0  0  0  0  0  0  0  0  0  0  0  0
   -2.6449    3.0381   -0.0000 C   0  0  0  0  0  0  0  0  0  0  0  0
   -5.2422    0.0477   -0.0000 N   0  0  0  0  0  0  0  0  0  0  0  0
   -3.9554    2.2994   -0.0000 C   0  0  0  0  0  0  0  0  0  0  0  0
   -6.5527    0.8102   -0.0000 C   0  0  0  0  0  0  0  0  0  0  0  0
   -6.5646    2.3232   -0.0000 O   0  0  0  0  0  0  0  0  0  0  0  0
   -7.8632    0.0715   -0.0000 N   0  0  0  0  0  0  0  0  0  0  0  0
   -7.8751   -1.4178   -0.0000 C   0  0  0  0  0  0  0  0  0  0  0  0
   -9.1857   -2.1564   -0.0000 C   0  0  0  0  0  0  0  0  0  0  0  0
   -6.5884   -2.1564   -0.0000 C   0  0  0  0  0  0  0  0  0  0  0  0
   -9.1976   -3.6576   -0.0000 C   0  0  0  0  0  0  0  0  0  0  0  0
   -6.6003   -3.6576   -0.0000 C   0  0  0  0  0  0  0  0  0  0  0  0
   -7.9109   -4.3963   -0.0000 C   0  0  0  0  0  0  0  0  0  0  0  0
   -7.9228   -5.8855   -0.0000 C   0  0  0  0  0  0  0  0  0  0  0  0
   -6.6361   -6.6242   -0.0000 C   0  0  0  0  0  0  0  0  0  0  0  0
   -9.2452   -6.6242   -0.0000 C   0  0  0  0  0  0  0  0  0  0  0  0
   -5.2302   -6.1357   -0.0000 N   0  0  0  0  0  0  0  0  0  0  0  0
   -6.6361   -8.1015   -0.0000 C   0  0  0  0  0  0  0  0  0  0  0  0
   -9.2572   -8.1134   -0.0000 C   0  0  0  0  0  0  0  0  0  0  0  0
   -4.3605   -7.3271   -0.0000 C   0  0  0  0  0  0  0  0  0  0  0  0
   -7.9585   -8.8521   -0.0000 N   0  0  0  0  0  0  0  0  0  0  0  0
   -5.2302   -8.5423   -0.0000 N   0  0  0  0  0  0  0  0  0  0  0  0
  1  2  1  0  0  0  0
  2  3  2  0  0  0  0
  2  4  1  0  0  0  0
  3  5  1  0  0  0  0
  4  6  2  0  0  0  0
  5  7  1  0  0  0  0
  5  8  2  0  0  0  0
  7  9  1  0  0  0  0
  9 10  2  0  0  0  0
  9 11  1  0  0  0  0
 11 12  1  0  0  0  0
 12 13  2  0  0  0  0
 12 14  1  0  0  0  0
 13 15  1  0  0  0  0
 14 16  2  0  0  0  0
 15 17  2  0  0  0  0
 17 18  1  0  0  0  0
 18 19  2  0  0  0  0
 18 20  1  0  0  0  0
 19 21  1  0  0  0  0
 19 22  1  0  0  0  0
 20 23  2  0  0  0  0
 21 24  2  0  0  0  0
 22 25  2  0  0  0  0
 22 26  1  0  0  0  0
  6  8  1  0  0  0  0
 16 17  1  0  0  0  0
 23 25  1  0  0  0  0
 24 26  1  0  0  0  0
M  END
>  <MolRegNo>
1280310

>  <m>
=

>  <Value>
480

>  <Unit>
nM

>  <Type>
IC50

>  <pValue>
6.32

>  <Ligand Efficiency>
0

>  <Binding Efficiency>
0

>  <Surface Efficiency>
0

>  <Assay Index>
637122

>  <Assay Category>


>  <Assay Organism>
Homo sapiens

>  <Target ID>
17045

>  <Target Name>
Cytochrome P450 3A4

>  <Target Organism>
Homo sapiens

>  <Target Description>
Target is a single protein chain

>  <Sequence Accession>
P08684

>  <Reference>
Bioorg Med Chem Lett 22 (4), 1611-1614 (2012)

>  <Pubmed ID>
22264486

>  <DOI>
10.1016/j.bmcl.2011.12.125

$$$$
1280311
Actelion Java MolfileCreator 1.0

 26 29  0  0  0  0  0  0  0  0999 V2000
    0.0000   -0.0000   -0.0000 Br  0  0  0  0  0  0  0  0  0  0  0  0
   -1.3099    0.7621   -0.0000 C   0  0  0  0  0  0  0  0  0  0  0  0
   -2.6198    0.0238   -0.0000 C   0  0  0  0  0  0  0  0  0  0  0  0
   -1.3218    2.2745   -0.0000 C   0  0  0  0  0  0  0  0  0  0  0  0
   -3.9297    0.7859   -0.0000 C   0  0  0  0  0  0  0  0  0  0  0  0
   -2.6436    3.0366   -0.0000 C   0  0  0  0  0  0  0  0  0  0  0  0
   -5.2397    0.0476   -0.0000 N   0  0  0  0  0  0  0  0  0  0  0  0
   -3.9536    2.2983   -0.0000 C   0  0  0  0  0  0  0  0  0  0  0  0
   -6.5496    0.8098   -0.0000 C   0  0  0  0  0  0  0  0  0  0  0  0
   -6.5615    2.3221   -0.0000 O   0  0  0  0  0  0  0  0  0  0  0  0
   -7.8595    0.0714   -0.0000 N   0  0  0  0  0  0  0  0  0  0  0  0
   -7.8714   -1.4171   -0.0000 C   0  0  0  0  0  0  0  0  0  0  0  0
   -9.1932   -2.1554   -0.0000 C   0  0  0  0  0  0  0  0  0  0  0  0
   -6.5853   -2.1554   -0.0000 C   0  0  0  0  0  0  0  0  0  0  0  0
   -9.2051   -3.6558   -0.0000 C   0  0  0  0  0  0  0  0  0  0  0  0
   -6.5972   -3.6558   -0.0000 C   0  0  0  0  0  0  0  0  0  0  0  0
   -7.9071   -4.3942   -0.0000 C   0  0  0  0  0  0  0  0  0  0  0  0
   -7.9190   -5.8827   -0.0000 C   0  0  0  0  0  0  0  0  0  0  0  0
   -6.6329   -6.6210   -0.0000 C   0  0  0  0  0  0  0  0  0  0  0  0
   -9.2408   -6.6210   -0.0000 C   0  0  0  0  0  0  0  0  0  0  0  0
   -5.2277   -6.1328   -0.0000 N   0  0  0  0  0  0  0  0  0  0  0  0
   -6.6329   -8.0976   -0.0000 C   0  0  0  0  0  0  0  0  0  0  0  0
   -9.2528   -8.1096   -0.0000 C   0  0  0  0  0  0  0  0  0  0  0  0
   -4.3584   -7.3236   -0.0000 C   0  0  0  0  0  0  0  0  0  0  0  0
   -7.9547   -8.8479   -0.0000 N   0  0  0  0  0  0  0  0  0  0  0  0
   -5.2277   -8.5383   -0.0000 N   0  0  0  0  0  0  0  0  0  0  0  0
  1  2  1  0  0  0  0
  2  3  2  0  0  0  0
  2  4  1  0  0  0  0
  3  5  1  0  0  0  0
  4  6  2  0  0  0  0
  5  7  1  0  0  0  0
  5  8  2  0  0  0  0
  7  9  1  0  0  0  0
  9 10  2  0  0  0  0
  9 11  1  0  0  0  0
 11 12  1  0  0  0  0
 12 13  2  0  0  0  0
 12 14  1  0  0  0  0
 13 15  1  0  0  0  0
 14 16  2  0  0  0  0
 15 17  2  0  0  0  0
 17 18  1  0  0  0  0
 18 19  2  0  0  0  0
 18 20  1  0  0  0  0
 19 21  1  0  0  0  0
 19 22  1  0  0  0  0
 20 23  2  0  0  0  0
 21 24  2  0  0  0  0
 22 25  2  0  0  0  0
 22 26  1  0  0  0  0
  6  8  1  0  0  0  0
 16 17  1  0  0  0  0
 23 25  1  0  0  0  0
 24 26  1  0  0  0  0
M  END
>  <MolRegNo>
1280311

>  <m>
=

>  <Value>
92

>  <Unit>
nM

>  <Type>
IC50

>  <pValue>
7.04

>  <Ligand Efficiency>
0

>  <Binding Efficiency>
0

>  <Surface Efficiency>
0

>  <Assay Index>
637122

>  <Assay Category>


>  <Assay Organism>
Homo sapiens

>  <Target ID>
17045

>  <Target Name>
Cytochrome P450 3A4

>  <Target Organism>
Homo sapiens

>  <Target Description>
Target is a single protein chain

>  <Sequence Accession>
P08684

>  <Reference>
Bioorg Med Chem Lett 22 (4), 1611-1614 (2012)

>  <Pubmed ID>
22264486

>  <DOI>
10.1016/j.bmcl.2011.12.125

$$$$
1280312
Actelion Java MolfileCreator 1.0

 25 28  0  0  0  0  0  0  0  0999 V2000
    0.0000   -0.0000   -0.0000 O   0  0  0  0  0  0  0  0  0  0  0  0
   -0.0120   -1.4946   -0.0000 C   0  0  0  0  0  0  0  0  0  0  0  0
   -1.3272   -2.2360   -0.0000 N   0  0  0  0  0  0  0  0  0  0  0  0
    1.2794   -2.2360   -0.0000 N   0  0  0  0  0  0  0  0  0  0  0  0
   -1.3392   -3.7306   -0.0000 C   0  0  0  0  0  0  0  0  0  0  0  0
    2.5708   -1.4707   -0.0000 C   0  0  0  0  0  0  0  0  0  0  0  0
   -2.6545   -4.4720   -0.0000 C   0  0  0  0  0  0  0  0  0  0  0  0
   -0.0478   -4.4720   -0.0000 C   0  0  0  0  0  0  0  0  0  0  0  0
    3.8622   -2.2121   -0.0000 C   0  0  0  0  0  0  0  0  0  0  0  0
    2.5469    0.0478   -0.0000 C   0  0  0  0  0  0  0  0  0  0  0  0
   -2.6665   -5.9786   -0.0000 C   0  0  0  0  0  0  0  0  0  0  0  0
   -0.0598   -5.9786   -0.0000 C   0  0  0  0  0  0  0  0  0  0  0  0
    5.1535   -1.4468   -0.0000 C   0  0  0  0  0  0  0  0  0  0  0  0
    3.8383    0.8250   -0.0000 C   0  0  0  0  0  0  0  0  0  0  0  0
   -1.3751   -6.7199   -0.0000 C   0  0  0  0  0  0  0  0  0  0  0  0
    5.1416    0.0717   -0.0000 C   0  0  0  0  0  0  0  0  0  0  0  0
   -1.3870   -8.2146   -0.0000 C   0  0  0  0  0  0  0  0  0  0  0  0
   -0.0957   -8.9559   -0.0000 C   0  0  0  0  0  0  0  0  0  0  0  0
   -2.7143   -8.9559   -0.0000 C   0  0  0  0  0  0  0  0  0  0  0  0
    1.3153   -8.4657   -0.0000 N   0  0  0  0  0  0  0  0  0  0  0  0
   -0.0957  -10.4386   -0.0000 C   0  0  0  0  0  0  0  0  0  0  0  0
   -2.7262  -10.4506   -0.0000 C   0  0  0  0  0  0  0  0  0  0  0  0
    2.1882   -9.6614   -0.0000 C   0  0  0  0  0  0  0  0  0  0  0  0
   -1.4229  -11.1919   -0.0000 N   0  0  0  0  0  0  0  0  0  0  0  0
    1.3153  -10.8810   -0.0000 N   0  0  0  0  0  0  0  0  0  0  0  0
  1  2  2  0  0  0  0
  2  3  1  0  0  0  0
  2  4  1  0  0  0  0
  3  5  1  0  0  0  0
  4  6  1  0  0  0  0
  5  7  2  0  0  0  0
  5  8  1  0  0  0  0
  6  9  2  0  0  0  0
  6 10  1  0  0  0  0
  7 11  1  0  0  0  0
  8 12  2  0  0  0  0
  9 13  1  0  0  0  0
 10 14  2  0  0  0  0
 11 15  2  0  0  0  0
 13 16  2  0  0  0  0
 15 17  1  0  0  0  0
 17 18  2  0  0  0  0
 17 19  1  0  0  0  0
 18 20  1  0  0  0  0
 18 21  1  0  0  0  0
 19 22  2  0  0  0  0
 20 23  2  0  0  0  0
 21 24  2  0  0  0  0
 21 25  1  0  0  0  0
 12 15  1  0  0  0  0
 14 16  1  0  0  0  0
 22 24  1  0  0  0  0
 23 25  1  0  0  0  0
M  END
>  <MolRegNo>
1280312

>  <m>
=

>  <Value>
1200

>  <Unit>
nM

>  <Type>
IC50

>  <pValue>
5.92

>  <Ligand Efficiency>
0

>  <Binding Efficiency>
0

>  <Surface Efficiency>
0

>  <Assay Index>
637122

>  <Assay Category>


>  <Assay Organism>
Homo sapiens

>  <Target ID>
17045

>  <Target Name>
Cytochrome P450 3A4

>  <Target Organism>
Homo sapiens

>  <Target Description>
Target is a single protein chain

>  <Sequence Accession>
P08684

>  <Reference>
Bioorg Med Chem Lett 22 (4), 1611-1614 (2012)

>  <Pubmed ID>
22264486

>  <DOI>
10.1016/j.bmcl.2011.12.125

$$$$
1280313
Actelion Java MolfileCreator 1.0

 26 29  0  0  0  0  0  0  0  0999 V2000
    0.0000   -0.0000   -0.0000 O   0  0  0  0  0  0  0  0  0  0  0  0
   -0.0120   -1.4950   -0.0000 C   0  0  0  0  0  0  0  0  0  0  0  0
    1.2797   -2.2366   -0.0000 N   0  0  0  0  0  0  0  0  0  0  0  0
   -1.3276   -2.2366   -0.0000 N   0  0  0  0  0  0  0  0  0  0  0  0
    2.5714   -1.4711   -0.0000 C   0  0  0  0  0  0  0  0  0  0  0  0
   -1.3395   -3.7316   -0.0000 C   0  0  0  0  0  0  0  0  0  0  0  0
    3.8631   -2.2126   -0.0000 C   0  0  0  0  0  0  0  0  0  0  0  0
    2.5475    0.0478   -0.0000 C   0  0  0  0  0  0  0  0  0  0  0  0
   -2.6552   -4.4731   -0.0000 C   0  0  0  0  0  0  0  0  0  0  0  0
   -0.0478   -4.4731   -0.0000 C   0  0  0  0  0  0  0  0  0  0  0  0
    5.1548   -1.4472   -0.0000 C   0  0  0  0  0  0  0  0  0  0  0  0
    3.8392    0.8253   -0.0000 C   0  0  0  0  0  0  0  0  0  0  0  0
   -2.6671   -5.9801   -0.0000 C   0  0  0  0  0  0  0  0  0  0  0  0
   -0.0598   -5.9801   -0.0000 C   0  0  0  0  0  0  0  0  0  0  0  0
    5.1429    0.0718   -0.0000 C   0  0  0  0  0  0  0  0  0  0  0  0
    6.4465   -2.1887   -0.0000 C   0  0  0  0  0  0  0  0  0  0  0  0
   -1.3754   -6.7216   -0.0000 C   0  0  0  0  0  0  0  0  0  0  0  0
   -1.3874   -8.2167   -0.0000 C   0  0  0  0  0  0  0  0  0  0  0  0
   -0.0957   -8.9582   -0.0000 C   0  0  0  0  0  0  0  0  0  0  0  0
   -2.7150   -8.9582   -0.0000 C   0  0  0  0  0  0  0  0  0  0  0  0
    1.3156   -8.4678   -0.0000 N   0  0  0  0  0  0  0  0  0  0  0  0
   -0.0957  -10.4412   -0.0000 C   0  0  0  0  0  0  0  0  0  0  0  0
   -2.7269  -10.4532   -0.0000 C   0  0  0  0  0  0  0  0  0  0  0  0
    2.1887   -9.6638   -0.0000 C   0  0  0  0  0  0  0  0  0  0  0  0
   -1.4233  -11.1947   -0.0000 N   0  0  0  0  0  0  0  0  0  0  0  0
    1.3156  -10.8838   -0.0000 N   0  0  0  0  0  0  0  0  0  0  0  0
  1  2  2  0  0  0  0
  2  3  1  0  0  0  0
  2  4  1  0  0  0  0
  3  5  1  0  0  0  0
  4  6  1  0  0  0  0
  5  7  2  0  0  0  0
  5  8  1  0  0  0  0
  6  9  2  0  0  0  0
  6 10  1  0  0  0  0
  7 11  1  0  0  0  0
  8 12  2  0  0  0  0
  9 13  1  0  0  0  0
 10 14  2  0  0  0  0
 11 15  2  0  0  0  0
 11 16  1  0  0  0  0
 13 17  2  0  0  0  0
 17 18  1  0  0  0  0
 18 19  2  0  0  0  0
 18 20  1  0  0  0  0
 19 21  1  0  0  0  0
 19 22  1  0  0  0  0
 20 23  2  0  0  0  0
 21 24  2  0  0  0  0
 22 25  2  0  0  0  0
 22 26  1  0  0  0  0
 12 15  1  0  0  0  0
 14 17  1  0  0  0  0
 23 25  1  0  0  0  0
 24 26  1  0  0  0  0
M  END
>  <MolRegNo>
1280313

>  <m>
=

>  <Value>
1500

>  <Unit>
nM

>  <Type>
IC50

>  <pValue>
5.82

>  <Ligand Efficiency>
0

>  <Binding Efficiency>
0

>  <Surface Efficiency>
0

>  <Assay Index>
637122

>  <Assay Category>


>  <Assay Organism>
Homo sapiens

>  <Target ID>
17045

>  <Target Name>
Cytochrome P450 3A4

>  <Target Organism>
Homo sapiens

>  <Target Description>
Target is a single protein chain

>  <Sequence Accession>
P08684

>  <Reference>
Bioorg Med Chem Lett 22 (4), 1611-1614 (2012)

>  <Pubmed ID>
22264486

>  <DOI>
10.1016/j.bmcl.2011.12.125

$$$$
1280314
Actelion Java MolfileCreator 1.0

 28 31  0  0  0  0  0  0  0  0999 V2000
    0.0000   -0.0000   -0.0000 O   0  0  0  0  0  0  0  0  0  0  0  0
   -1.3104   -0.7386   -0.0000 N   0  0  0  0  0  0  0  0  0  0  0  0
   -1.3223   -2.2277   -0.0000 O   0  0  0  0  0  0  0  0  0  0  0  0
   -2.6328    0.0238   -0.0000 C   0  0  0  0  0  0  0  0  0  0  0  0
   -3.9432   -0.7148   -0.0000 C   0  0  0  0  0  0  0  0  0  0  0  0
   -2.6447    1.5368   -0.0000 C   0  0  0  0  0  0  0  0  0  0  0  0
   -5.2536    0.0477   -0.0000 C   0  0  0  0  0  0  0  0  0  0  0  0
   -3.9670    2.2992   -0.0000 C   0  0  0  0  0  0  0  0  0  0  0  0
   -6.5640   -0.6910   -0.0000 N   0  0  0  0  0  0  0  0  0  0  0  0
   -5.2774    1.5606   -0.0000 C   0  0  0  0  0  0  0  0  0  0  0  0
   -7.8745    0.0715   -0.0000 C   0  0  0  0  0  0  0  0  0  0  0  0
   -7.8864    1.5844   -0.0000 O   0  0  0  0  0  0  0  0  0  0  0  0
   -9.1849   -0.6671   -0.0000 N   0  0  0  0  0  0  0  0  0  0  0  0
   -9.1968   -2.1562   -0.0000 C   0  0  0  0  0  0  0  0  0  0  0  0
  -10.5072   -2.8948   -0.0000 C   0  0  0  0  0  0  0  0  0  0  0  0
   -7.9102   -2.8948   -0.0000 C   0  0  0  0  0  0  0  0  0  0  0  0
  -10.5191   -4.3959   -0.0000 C   0  0  0  0  0  0  0  0  0  0  0  0
   -7.9221   -4.3959   -0.0000 C   0  0  0  0  0  0  0  0  0  0  0  0
   -9.2325   -5.1345   -0.0000 C   0  0  0  0  0  0  0  0  0  0  0  0
   -9.2445   -6.6236   -0.0000 C   0  0  0  0  0  0  0  0  0  0  0  0
   -7.9579   -7.3622   -0.0000 C   0  0  0  0  0  0  0  0  0  0  0  0
  -10.5668   -7.3622   -0.0000 C   0  0  0  0  0  0  0  0  0  0  0  0
   -6.5521   -6.8738   -0.0000 N   0  0  0  0  0  0  0  0  0  0  0  0
   -7.9579   -8.8394   -0.0000 C   0  0  0  0  0  0  0  0  0  0  0  0
  -10.5787   -8.8513   -0.0000 C   0  0  0  0  0  0  0  0  0  0  0  0
   -5.6825   -8.0651   -0.0000 C   0  0  0  0  0  0  0  0  0  0  0  0
   -9.2802   -9.5899   -0.0000 N   0  0  0  0  0  0  0  0  0  0  0  0
   -6.5521   -9.2802   -0.0000 N   0  0  0  0  0  0  0  0  0  0  0  0
  1  2  2  0  0  0  0
  2  3  1  0  0  0  0
  2  4  1  0  0  0  0
  4  5  2  0  0  0  0
  4  6  1  0  0  0  0
  5  7  1  0  0  0  0
  6  8  2  0  0  0  0
  7  9  1  0  0  0  0
  7 10  2  0  0  0  0
  9 11  1  0  0  0  0
 11 12  2  0  0  0  0
 11 13  1  0  0  0  0
 13 14  1  0  0  0  0
 14 15  2  0  0  0  0
 14 16  1  0  0  0  0
 15 17  1  0  0  0  0
 16 18  2  0  0  0  0
 17 19  2  0  0  0  0
 19 20  1  0  0  0  0
 20 21  2  0  0  0  0
 20 22  1  0  0  0  0
 21 23  1  0  0  0  0
 21 24  1  0  0  0  0
 22 25  2  0  0  0  0
 23 26  2  0  0  0  0
 24 27  2  0  0  0  0
 24 28  1  0  0  0  0
  8 10  1  0  0  0  0
 18 19  1  0  0  0  0
 25 27  1  0  0  0  0
 26 28  1  0  0  0  0
M  CHG  2   2   1   3  -1
M  END
>  <MolRegNo>
1280314

>  <m>
=

>  <Value>
61

>  <Unit>
nM

>  <Type>
IC50

>  <pValue>
7.21

>  <Ligand Efficiency>
0

>  <Binding Efficiency>
0

>  <Surface Efficiency>
0

>  <Assay Index>
637122

>  <Assay Category>


>  <Assay Organism>
Homo sapiens

>  <Target ID>
17045

>  <Target Name>
Cytochrome P450 3A4

>  <Target Organism>
Homo sapiens

>  <Target Description>
Target is a single protein chain

>  <Sequence Accession>
P08684

>  <Reference>
Bioorg Med Chem Lett 22 (4), 1611-1614 (2012)

>  <Pubmed ID>
22264486

>  <DOI>
10.1016/j.bmcl.2011.12.125

$$$$
1280315
Actelion Java MolfileCreator 1.0

 29 32  0  0  0  0  0  0  0  0999 V2000
    0.0000   -0.0000   -0.0000 O   0  0  0  0  0  0  0  0  0  0  0  0
   -0.0120   -1.4948   -0.0000 C   0  0  0  0  0  0  0  0  0  0  0  0
    1.2796   -2.2362   -0.0000 N   0  0  0  0  0  0  0  0  0  0  0  0
   -1.3274   -2.2362   -0.0000 N   0  0  0  0  0  0  0  0  0  0  0  0
    2.5711   -1.4709   -0.0000 C   0  0  0  0  0  0  0  0  0  0  0  0
   -1.3394   -3.7311   -0.0000 C   0  0  0  0  0  0  0  0  0  0  0  0
    3.8626   -2.2123   -0.0000 C   0  0  0  0  0  0  0  0  0  0  0  0
    2.5472    0.0478   -0.0000 C   0  0  0  0  0  0  0  0  0  0  0  0
   -2.6548   -4.4725   -0.0000 C   0  0  0  0  0  0  0  0  0  0  0  0
   -0.0478   -4.4725   -0.0000 C   0  0  0  0  0  0  0  0  0  0  0  0
    5.1541   -1.4470   -0.0000 C   0  0  0  0  0  0  0  0  0  0  0  0
    3.8387    0.8251   -0.0000 C   0  0  0  0  0  0  0  0  0  0  0  0
   -2.6667   -5.9793   -0.0000 C   0  0  0  0  0  0  0  0  0  0  0  0
   -0.0598   -5.9793   -0.0000 C   0  0  0  0  0  0  0  0  0  0  0  0
    6.4456   -2.1884   -0.0000 C   0  0  0  0  0  0  0  0  0  0  0  0
    5.1422    0.0718   -0.0000 C   0  0  0  0  0  0  0  0  0  0  0  0
   -1.3752   -6.7207   -0.0000 C   0  0  0  0  0  0  0  0  0  0  0  0
    7.7372   -1.4231   -0.0000 O   0  0  0  0  0  0  0  0  0  0  0  0
    6.4337   -3.6832   -0.0000 O   0  0  0  0  0  0  0  0  0  0  0  0
   -1.3872   -8.2155   -0.0000 C   0  0  0  0  0  0  0  0  0  0  0  0
    5.1182   -4.4246   -0.0000 C   0  0  0  0  0  0  0  0  0  0  0  0
   -0.0957   -8.9569   -0.0000 C   0  0  0  0  0  0  0  0  0  0  0  0
   -2.7146   -8.9569   -0.0000 C   0  0  0  0  0  0  0  0  0  0  0  0
    1.3154   -8.4666   -0.0000 N   0  0  0  0  0  0  0  0  0  0  0  0
   -0.0957  -10.4398   -0.0000 C   0  0  0  0  0  0  0  0  0  0  0  0
   -2.7265  -10.4517   -0.0000 C   0  0  0  0  0  0  0  0  0  0  0  0
    2.1884   -9.6625   -0.0000 C   0  0  0  0  0  0  0  0  0  0  0  0
   -1.4231  -11.1932   -0.0000 N   0  0  0  0  0  0  0  0  0  0  0  0
    1.3154  -10.8822   -0.0000 N   0  0  0  0  0  0  0  0  0  0  0  0
  1  2  2  0  0  0  0
  2  3  1  0  0  0  0
  2  4  1  0  0  0  0
  3  5  1  0  0  0  0
  4  6  1  0  0  0  0
  5  7  2  0  0  0  0
  5  8  1  0  0  0  0
  6  9  2  0  0  0  0
  6 10  1  0  0  0  0
  7 11  1  0  0  0  0
  8 12  2  0  0  0  0
  9 13  1  0  0  0  0
 10 14  2  0  0  0  0
 11 15  1  0  0  0  0
 11 16  2  0  0  0  0
 13 17  2  0  0  0  0
 15 18  2  0  0  0  0
 15 19  1  0  0  0  0
 17 20  1  0  0  0  0
 19 21  1  0  0  0  0
 20 22  2  0  0  0  0
 20 23  1  0  0  0  0
 22 24  1  0  0  0  0
 22 25  1  0  0  0  0
 23 26  2  0  0  0  0
 24 27  2  0  0  0  0
 25 28  2  0  0  0  0
 25 29  1  0  0  0  0
 12 16  1  0  0  0  0
 14 17  1  0  0  0  0
 26 28  1  0  0  0  0
 27 29  1  0  0  0  0
M  END
>  <MolRegNo>
1280315

>  <m>
=

>  <Value>
82

>  <Unit>
nM

>  <Type>
IC50

>  <pValue>
7.09

>  <Ligand Efficiency>
0

>  <Binding Efficiency>
0

>  <Surface Efficiency>
0

>  <Assay Index>
637122

>  <Assay Category>


>  <Assay Organism>
Homo sapiens

>  <Target ID>
17045

>  <Target Name>
Cytochrome P450 3A4

>  <Target Organism>
Homo sapiens

>  <Target Description>
Target is a single protein chain

>  <Sequence Accession>
P08684

>  <Reference>
Bioorg Med Chem Lett 22 (4), 1611-1614 (2012)

>  <Pubmed ID>
22264486

>  <DOI>
10.1016/j.bmcl.2011.12.125

$$$$
1280316
Actelion Java MolfileCreator 1.0

 27 30  0  0  0  0  0  0  0  0999 V2000
    0.0000   -0.0000   -0.0000 O   0  0  0  0  0  0  0  0  0  0  0  0
   -0.0119   -1.4937   -0.0000 C   0  0  0  0  0  0  0  0  0  0  0  0
    1.2786   -2.2346   -0.0000 N   0  0  0  0  0  0  0  0  0  0  0  0
   -1.3264   -2.2346   -0.0000 N   0  0  0  0  0  0  0  0  0  0  0  0
    2.5692   -1.4698   -0.0000 C   0  0  0  0  0  0  0  0  0  0  0  0
   -1.3384   -3.7284   -0.0000 C   0  0  0  0  0  0  0  0  0  0  0  0
    3.8598   -2.2107   -0.0000 C   0  0  0  0  0  0  0  0  0  0  0  0
    2.5453    0.0478   -0.0000 C   0  0  0  0  0  0  0  0  0  0  0  0
   -2.6648   -4.4693   -0.0000 C   0  0  0  0  0  0  0  0  0  0  0  0
   -0.0478   -4.4693   -0.0000 C   0  0  0  0  0  0  0  0  0  0  0  0
    5.1504   -1.4459   -0.0000 C   0  0  0  0  0  0  0  0  0  0  0  0
    3.8359    0.8245   -0.0000 C   0  0  0  0  0  0  0  0  0  0  0  0
   -2.6768   -5.9749   -0.0000 C   0  0  0  0  0  0  0  0  0  0  0  0
   -0.0597   -5.9749   -0.0000 C   0  0  0  0  0  0  0  0  0  0  0  0
    5.1385    0.0717   -0.0000 C   0  0  0  0  0  0  0  0  0  0  0  0
   -1.3742   -6.7158   -0.0000 C   0  0  0  0  0  0  0  0  0  0  0  0
    6.4290    0.8484   -0.0000 O   0  0  0  0  0  0  0  0  0  0  0  0
   -1.3862   -8.2096   -0.0000 C   0  0  0  0  0  0  0  0  0  0  0  0
    7.7316    0.1075   -0.0000 C   0  0  0  0  0  0  0  0  0  0  0  0
   -0.0956   -8.9505   -0.0000 C   0  0  0  0  0  0  0  0  0  0  0  0
   -2.7126   -8.9505   -0.0000 C   0  0  0  0  0  0  0  0  0  0  0  0
    1.3145   -8.4605   -0.0000 N   0  0  0  0  0  0  0  0  0  0  0  0
   -0.0956  -10.4323   -0.0000 C   0  0  0  0  0  0  0  0  0  0  0  0
   -2.7246  -10.4442   -0.0000 C   0  0  0  0  0  0  0  0  0  0  0  0
    2.1868   -9.6555   -0.0000 C   0  0  0  0  0  0  0  0  0  0  0  0
   -1.4220  -11.1851   -0.0000 N   0  0  0  0  0  0  0  0  0  0  0  0
    1.3145  -10.8744   -0.0000 N   0  0  0  0  0  0  0  0  0  0  0  0
  1  2  2  0  0  0  0
  2  3  1  0  0  0  0
  2  4  1  0  0  0  0
  3  5  1  0  0  0  0
  4  6  1  0  0  0  0
  5  7  2  0  0  0  0
  5  8  1  0  0  0  0
  6  9  2  0  0  0  0
  6 10  1  0  0  0  0
  7 11  1  0  0  0  0
  8 12  2  0  0  0  0
  9 13  1  0  0  0  0
 10 14  2  0  0  0  0
 11 15  2  0  0  0  0
 13 16  2  0  0  0  0
 15 17  1  0  0  0  0
 16 18  1  0  0  0  0
 17 19  1  0  0  0  0
 18 20  2  0  0  0  0
 18 21  1  0  0  0  0
 20 22  1  0  0  0  0
 20 23  1  0  0  0  0
 21 24  2  0  0  0  0
 22 25  2  0  0  0  0
 23 26  2  0  0  0  0
 23 27  1  0  0  0  0
 12 15  1  0  0  0  0
 14 16  1  0  0  0  0
 24 26  1  0  0  0  0
 25 27  1  0  0  0  0
M  END
>  <MolRegNo>
1280316

>  <m>
=

>  <Value>
200

>  <Unit>
nM

>  <Type>
IC50

>  <pValue>
6.7

>  <Ligand Efficiency>
0

>  <Binding Efficiency>
0

>  <Surface Efficiency>
0

>  <Assay Index>
637122

>  <Assay Category>


>  <Assay Organism>
Homo sapiens

>  <Target ID>
17045

>  <Target Name>
Cytochrome P450 3A4

>  <Target Organism>
Homo sapiens

>  <Target Description>
Target is a single protein chain

>  <Sequence Accession>
P08684

>  <Reference>
Bioorg Med Chem Lett 22 (4), 1611-1614 (2012)

>  <Pubmed ID>
22264486

>  <DOI>
10.1016/j.bmcl.2011.12.125

$$$$
1280317
Actelion Java MolfileCreator 1.0

 31 35  0  0  0  0  0  0  0  0999 V2000
    0.0000   -0.0000   -0.0000 O   0  0  0  0  0  0  0  0  0  0  0  0
   -0.0119   -1.4934   -0.0000 C   0  0  0  0  0  0  0  0  0  0  0  0
   -1.3261   -2.2341   -0.0000 N   0  0  0  0  0  0  0  0  0  0  0  0
    1.2783   -2.2341   -0.0000 N   0  0  0  0  0  0  0  0  0  0  0  0
   -1.3381   -3.7275   -0.0000 C   0  0  0  0  0  0  0  0  0  0  0  0
    2.5686   -1.4695   -0.0000 C   0  0  0  0  0  0  0  0  0  0  0  0
   -2.6523   -4.4682   -0.0000 C   0  0  0  0  0  0  0  0  0  0  0  0
   -0.0478   -4.4682   -0.0000 C   0  0  0  0  0  0  0  0  0  0  0  0
    3.8589   -2.2102   -0.0000 C   0  0  0  0  0  0  0  0  0  0  0  0
    2.5447    0.0478   -0.0000 C   0  0  0  0  0  0  0  0  0  0  0  0
   -2.6642   -5.9616   -0.0000 C   0  0  0  0  0  0  0  0  0  0  0  0
   -0.0597   -5.9736   -0.0000 C   0  0  0  0  0  0  0  0  0  0  0  0
    5.1492   -1.4456   -0.0000 C   0  0  0  0  0  0  0  0  0  0  0  0
    3.8350    0.8244   -0.0000 C   0  0  0  0  0  0  0  0  0  0  0  0
   -1.3739   -6.7023   -0.0000 C   0  0  0  0  0  0  0  0  0  0  0  0
    5.1373    0.0717   -0.0000 C   0  0  0  0  0  0  0  0  0  0  0  0
   -1.3859   -8.1957   -0.0000 C   0  0  0  0  0  0  0  0  0  0  0  0
    6.4275    0.8363   -0.0000 C   0  0  0  0  0  0  0  0  0  0  0  0
   -0.0956   -8.9364   -0.0000 C   0  0  0  0  0  0  0  0  0  0  0  0
   -2.7120   -8.9364   -0.0000 C   0  0  0  0  0  0  0  0  0  0  0  0
    7.7298    0.0956   -0.0000 C   0  0  0  0  0  0  0  0  0  0  0  0
    6.4036    2.3536   -0.0000 C   0  0  0  0  0  0  0  0  0  0  0  0
    1.3142   -8.4466   -0.0000 N   0  0  0  0  0  0  0  0  0  0  0  0
   -0.0956  -10.4179   -0.0000 C   0  0  0  0  0  0  0  0  0  0  0  0
   -2.7239  -10.4298   -0.0000 C   0  0  0  0  0  0  0  0  0  0  0  0
    9.0201    0.8602   -0.0000 C   0  0  0  0  0  0  0  0  0  0  0  0
    7.6820    3.1301   -0.0000 C   0  0  0  0  0  0  0  0  0  0  0  0
    2.1863   -9.6413   -0.0000 C   0  0  0  0  0  0  0  0  0  0  0  0
   -1.4217  -11.1705   -0.0000 N   0  0  0  0  0  0  0  0  0  0  0  0
    1.3142  -10.8599   -0.0000 N   0  0  0  0  0  0  0  0  0  0  0  0
    9.0081    2.3775   -0.0000 C   0  0  0  0  0  0  0  0  0  0  0  0
  1  2  2  0  0  0  0
  2  3  1  0  0  0  0
  2  4  1  0  0  0  0
  3  5  1  0  0  0  0
  4  6  1  0  0  0  0
  5  7  2  0  0  0  0
  5  8  1  0  0  0  0
  6  9  2  0  0  0  0
  6 10  1  0  0  0  0
  7 11  1  0  0  0  0
  8 12  2  0  0  0  0
  9 13  1  0  0  0  0
 10 14  2  0  0  0  0
 11 15  2  0  0  0  0
 13 16  2  0  0  0  0
 15 17  1  0  0  0  0
 16 18  1  0  0  0  0
 17 19  2  0  0  0  0
 17 20  1  0  0  0  0
 18 21  2  0  0  0  0
 18 22  1  0  0  0  0
 19 23  1  0  0  0  0
 19 24  1  0  0  0  0
 20 25  2  0  0  0  0
 21 26  1  0  0  0  0
 22 27  2  0  0  0  0
 23 28  2  0  0  0  0
 24 29  2  0  0  0  0
 24 30  1  0  0  0  0
 26 31  2  0  0  0  0
 12 15  1  0  0  0  0
 14 16  1  0  0  0  0
 25 29  1  0  0  0  0
 27 31  1  0  0  0  0
 28 30  1  0  0  0  0
M  END
>  <MolRegNo>
1280317

>  <m>
=

>  <Value>
26

>  <Unit>
nM

>  <Type>
IC50

>  <pValue>
7.58

>  <Ligand Efficiency>
0

>  <Binding Efficiency>
0

>  <Surface Efficiency>
0

>  <Assay Index>
637122

>  <Assay Category>


>  <Assay Organism>
Homo sapiens

>  <Target ID>
17045

>  <Target Name>
Cytochrome P450 3A4

>  <Target Organism>
Homo sapiens

>  <Target Description>
Target is a single protein chain

>  <Sequence Accession>
P08684

>  <Reference>
Bioorg Med Chem Lett 22 (4), 1611-1614 (2012)

>  <Pubmed ID>
22264486

>  <DOI>
10.1016/j.bmcl.2011.12.125

$$$$
1280318
Actelion Java MolfileCreator 1.0

 30 33  0  0  0  0  0  0  0  0999 V2000
    0.0000   -0.0000   -0.0000 O   0  0  0  0  0  0  0  0  0  0  0  0
   -0.0120   -1.4961   -0.0000 C   0  0  0  0  0  0  0  0  0  0  0  0
    1.2807   -2.2382   -0.0000 N   0  0  0  0  0  0  0  0  0  0  0  0
   -1.3286   -2.2382   -0.0000 N   0  0  0  0  0  0  0  0  0  0  0  0
    2.5734   -1.4722   -0.0000 C   0  0  0  0  0  0  0  0  0  0  0  0
   -1.3405   -3.7344   -0.0000 C   0  0  0  0  0  0  0  0  0  0  0  0
    3.8660   -2.2143   -0.0000 C   0  0  0  0  0  0  0  0  0  0  0  0
    2.5494    0.0479   -0.0000 C   0  0  0  0  0  0  0  0  0  0  0  0
   -2.6571   -4.4764   -0.0000 C   0  0  0  0  0  0  0  0  0  0  0  0
   -0.0479   -4.4764   -0.0000 C   0  0  0  0  0  0  0  0  0  0  0  0
    5.1587   -1.4483   -0.0000 C   0  0  0  0  0  0  0  0  0  0  0  0
    3.8421    0.8259   -0.0000 C   0  0  0  0  0  0  0  0  0  0  0  0
   -2.6691   -5.9726   -0.0000 C   0  0  0  0  0  0  0  0  0  0  0  0
   -0.0598   -5.9845   -0.0000 C   0  0  0  0  0  0  0  0  0  0  0  0
    6.4513   -2.1903   -0.0000 C   0  0  0  0  0  0  0  0  0  0  0  0
    5.1467    0.0718   -0.0000 C   0  0  0  0  0  0  0  0  0  0  0  0
   -1.3764   -6.7147   -0.0000 C   0  0  0  0  0  0  0  0  0  0  0  0
    6.4394   -3.6865   -0.0000 O   0  0  0  0  0  0  0  0  0  0  0  0
    7.7440   -1.4243   -0.0000 O   0  0  0  0  0  0  0  0  0  0  0  0
   -1.3884   -8.2108   -0.0000 C   0  0  0  0  0  0  0  0  0  0  0  0
    9.0367   -2.1664   -0.0000 C   0  0  0  0  0  0  0  0  0  0  0  0
   -0.0958   -8.9529   -0.0000 C   0  0  0  0  0  0  0  0  0  0  0  0
   -2.7170   -8.9529   -0.0000 C   0  0  0  0  0  0  0  0  0  0  0  0
    9.0247   -3.6625   -0.0000 C   0  0  0  0  0  0  0  0  0  0  0  0
    1.3166   -8.4621   -0.0000 N   0  0  0  0  0  0  0  0  0  0  0  0
   -0.0958  -10.4370   -0.0000 C   0  0  0  0  0  0  0  0  0  0  0  0
   -2.7290  -10.4490   -0.0000 C   0  0  0  0  0  0  0  0  0  0  0  0
    2.1903   -9.6591   -0.0000 C   0  0  0  0  0  0  0  0  0  0  0  0
   -1.4243  -11.1911   -0.0000 N   0  0  0  0  0  0  0  0  0  0  0  0
    1.3166  -10.8799   -0.0000 N   0  0  0  0  0  0  0  0  0  0  0  0
  1  2  2  0  0  0  0
  2  3  1  0  0  0  0
  2  4  1  0  0  0  0
  3  5  1  0  0  0  0
  4  6  1  0  0  0  0
  5  7  2  0  0  0  0
  5  8  1  0  0  0  0
  6  9  2  0  0  0  0
  6 10  1  0  0  0  0
  7 11  1  0  0  0  0
  8 12  2  0  0  0  0
  9 13  1  0  0  0  0
 10 14  2  0  0  0  0
 11 15  1  0  0  0  0
 11 16  2  0  0  0  0
 13 17  2  0  0  0  0
 15 18  2  0  0  0  0
 15 19  1  0  0  0  0
 17 20  1  0  0  0  0
 19 21  1  0  0  0  0
 20 22  2  0  0  0  0
 20 23  1  0  0  0  0
 21 24  1  0  0  0  0
 22 25  1  0  0  0  0
 22 26  1  0  0  0  0
 23 27  2  0  0  0  0
 25 28  2  0  0  0  0
 26 29  2  0  0  0  0
 26 30  1  0  0  0  0
 12 16  1  0  0  0  0
 14 17  1  0  0  0  0
 27 29  1  0  0  0  0
 28 30  1  0  0  0  0
M  END
>  <MolRegNo>
1280318

>  <m>
=

>  <Value>
44

>  <Unit>
nM

>  <Type>
IC50

>  <pValue>
7.36

>  <Ligand Efficiency>
0

>  <Binding Efficiency>
0

>  <Surface Efficiency>
0

>  <Assay Index>
637122

>  <Assay Category>


>  <Assay Organism>
Homo sapiens

>  <Target ID>
17045

>  <Target Name>
Cytochrome P450 3A4

>  <Target Organism>
Homo sapiens

>  <Target Description>
Target is a single protein chain

>  <Sequence Accession>
P08684

>  <Reference>
Bioorg Med Chem Lett 22 (4), 1611-1614 (2012)

>  <Pubmed ID>
22264486

>  <DOI>
10.1016/j.bmcl.2011.12.125

$$$$
1280320
Actelion Java MolfileCreator 1.0

 29 32  0  0  0  0  0  0  0  0999 V2000
    0.0000   -0.0000   -0.0000 O   0  0  0  0  0  0  0  0  0  0  0  0
   -0.0120   -1.4948   -0.0000 C   0  0  0  0  0  0  0  0  0  0  0  0
    1.2796   -2.2362   -0.0000 N   0  0  0  0  0  0  0  0  0  0  0  0
   -1.3274   -2.2362   -0.0000 N   0  0  0  0  0  0  0  0  0  0  0  0
    2.5711   -1.4709   -0.0000 C   0  0  0  0  0  0  0  0  0  0  0  0
   -1.3394   -3.7311   -0.0000 C   0  0  0  0  0  0  0  0  0  0  0  0
    3.8626   -2.2123   -0.0000 C   0  0  0  0  0  0  0  0  0  0  0  0
    2.5472    0.0478   -0.0000 C   0  0  0  0  0  0  0  0  0  0  0  0
   -2.6667   -4.4725   -0.0000 C   0  0  0  0  0  0  0  0  0  0  0  0
   -0.0478   -4.4725   -0.0000 C   0  0  0  0  0  0  0  0  0  0  0  0
    5.1541   -1.4470   -0.0000 C   0  0  0  0  0  0  0  0  0  0  0  0
    3.8387    0.8251   -0.0000 C   0  0  0  0  0  0  0  0  0  0  0  0
   -2.6787   -5.9793   -0.0000 C   0  0  0  0  0  0  0  0  0  0  0  0
   -0.0598   -5.9793   -0.0000 C   0  0  0  0  0  0  0  0  0  0  0  0
    6.4456   -2.1884   -0.0000 C   0  0  0  0  0  0  0  0  0  0  0  0
    5.1422    0.0718   -0.0000 C   0  0  0  0  0  0  0  0  0  0  0  0
   -1.3752   -6.7207   -0.0000 C   0  0  0  0  0  0  0  0  0  0  0  0
    6.4337   -3.6832   -0.0000 O   0  0  0  0  0  0  0  0  0  0  0  0
    7.7372   -1.4231   -0.0000 N   0  0  0  0  0  0  0  0  0  0  0  0
   -1.3872   -8.2155   -0.0000 C   0  0  0  0  0  0  0  0  0  0  0  0
    9.0287   -2.1645   -0.0000 C   0  0  0  0  0  0  0  0  0  0  0  0
   -0.0957   -8.9569   -0.0000 C   0  0  0  0  0  0  0  0  0  0  0  0
   -2.7146   -8.9569   -0.0000 C   0  0  0  0  0  0  0  0  0  0  0  0
    1.3154   -8.4666   -0.0000 N   0  0  0  0  0  0  0  0  0  0  0  0
   -0.0957  -10.4398   -0.0000 C   0  0  0  0  0  0  0  0  0  0  0  0
   -2.7265  -10.4517   -0.0000 C   0  0  0  0  0  0  0  0  0  0  0  0
    2.1884   -9.6625   -0.0000 C   0  0  0  0  0  0  0  0  0  0  0  0
   -1.4231  -11.1932   -0.0000 N   0  0  0  0  0  0  0  0  0  0  0  0
    1.3154  -10.8822   -0.0000 N   0  0  0  0  0  0  0  0  0  0  0  0
  1  2  2  0  0  0  0
  2  3  1  0  0  0  0
  2  4  1  0  0  0  0
  3  5  1  0  0  0  0
  4  6  1  0  0  0  0
  5  7  2  0  0  0  0
  5  8  1  0  0  0  0
  6  9  2  0  0  0  0
  6 10  1  0  0  0  0
  7 11  1  0  0  0  0
  8 12  2  0  0  0  0
  9 13  1  0  0  0  0
 10 14  2  0  0  0  0
 11 15  1  0  0  0  0
 11 16  2  0  0  0  0
 13 17  2  0  0  0  0
 15 18  2  0  0  0  0
 15 19  1  0  0  0  0
 17 20  1  0  0  0  0
 19 21  1  0  0  0  0
 20 22  2  0  0  0  0
 20 23  1  0  0  0  0
 22 24  1  0  0  0  0
 22 25  1  0  0  0  0
 23 26  2  0  0  0  0
 24 27  2  0  0  0  0
 25 28  2  0  0  0  0
 25 29  1  0  0  0  0
 12 16  1  0  0  0  0
 14 17  1  0  0  0  0
 26 28  1  0  0  0  0
 27 29  1  0  0  0  0
M  END
>  <MolRegNo>
1280320

>  <m>
=

>  <Value>
98

>  <Unit>
nM

>  <Type>
IC50

>  <pValue>
7.01

>  <Ligand Efficiency>
0

>  <Binding Efficiency>
0

>  <Surface Efficiency>
0

>  <Assay Index>
637122

>  <Assay Category>


>  <Assay Organism>
Homo sapiens

>  <Target ID>
17045

>  <Target Name>
Cytochrome P450 3A4

>  <Target Organism>
Homo sapiens

>  <Target Description>
Target is a single protein chain

>  <Sequence Accession>
P08684

>  <Reference>
Bioorg Med Chem Lett 22 (4), 1611-1614 (2012)

>  <Pubmed ID>
22264486

>  <DOI>
10.1016/j.bmcl.2011.12.125

$$$$
1280321
Actelion Java MolfileCreator 1.0

 30 33  0  0  0  0  0  0  0  0999 V2000
    0.0000   -0.0000   -0.0000 O   0  0  0  0  0  0  0  0  0  0  0  0
   -0.0120   -1.4956   -0.0000 C   0  0  0  0  0  0  0  0  0  0  0  0
    1.2802   -2.2374   -0.0000 N   0  0  0  0  0  0  0  0  0  0  0  0
   -1.3281   -2.2374   -0.0000 N   0  0  0  0  0  0  0  0  0  0  0  0
    2.5724   -1.4717   -0.0000 C   0  0  0  0  0  0  0  0  0  0  0  0
   -1.3401   -3.7330   -0.0000 C   0  0  0  0  0  0  0  0  0  0  0  0
    3.8646   -2.2135   -0.0000 C   0  0  0  0  0  0  0  0  0  0  0  0
    2.5485    0.0479   -0.0000 C   0  0  0  0  0  0  0  0  0  0  0  0
   -2.6562   -4.4748   -0.0000 C   0  0  0  0  0  0  0  0  0  0  0  0
   -0.0479   -4.4748   -0.0000 C   0  0  0  0  0  0  0  0  0  0  0  0
    5.1568   -1.4477   -0.0000 C   0  0  0  0  0  0  0  0  0  0  0  0
    3.8407    0.8256   -0.0000 C   0  0  0  0  0  0  0  0  0  0  0  0
   -2.6681   -5.9824   -0.0000 C   0  0  0  0  0  0  0  0  0  0  0  0
   -0.0598   -5.9824   -0.0000 C   0  0  0  0  0  0  0  0  0  0  0  0
    6.4490   -2.1896   -0.0000 C   0  0  0  0  0  0  0  0  0  0  0  0
    5.1449    0.0718   -0.0000 C   0  0  0  0  0  0  0  0  0  0  0  0
   -1.3759   -6.7242   -0.0000 C   0  0  0  0  0  0  0  0  0  0  0  0
    6.4371   -3.6852   -0.0000 O   0  0  0  0  0  0  0  0  0  0  0  0
    7.7412   -1.4238   -0.0000 N   0  0  0  0  0  0  0  0  0  0  0  0
   -1.3879   -8.2198   -0.0000 C   0  0  0  0  0  0  0  0  0  0  0  0
    9.0334   -2.1656   -0.0000 C   0  0  0  0  0  0  0  0  0  0  0  0
   -0.0957   -8.9616   -0.0000 C   0  0  0  0  0  0  0  0  0  0  0  0
   -2.7160   -8.9616   -0.0000 C   0  0  0  0  0  0  0  0  0  0  0  0
    9.0214   -3.6612   -0.0000 C   0  0  0  0  0  0  0  0  0  0  0  0
    1.3161   -8.4711   -0.0000 N   0  0  0  0  0  0  0  0  0  0  0  0
   -0.0957  -10.4453   -0.0000 C   0  0  0  0  0  0  0  0  0  0  0  0
   -2.7280  -10.4572   -0.0000 C   0  0  0  0  0  0  0  0  0  0  0  0
    2.1896   -9.6675   -0.0000 C   0  0  0  0  0  0  0  0  0  0  0  0
   -1.4238  -11.1990   -0.0000 N   0  0  0  0  0  0  0  0  0  0  0  0
    1.3161  -10.8879   -0.0000 N   0  0  0  0  0  0  0  0  0  0  0  0
  1  2  2  0  0  0  0
  2  3  1  0  0  0  0
  2  4  1  0  0  0  0
  3  5  1  0  0  0  0
  4  6  1  0  0  0  0
  5  7  2  0  0  0  0
  5  8  1  0  0  0  0
  6  9  2  0  0  0  0
  6 10  1  0  0  0  0
  7 11  1  0  0  0  0
  8 12  2  0  0  0  0
  9 13  1  0  0  0  0
 10 14  2  0  0  0  0
 11 15  1  0  0  0  0
 11 16  2  0  0  0  0
 13 17  2  0  0  0  0
 15 18  2  0  0  0  0
 15 19  1  0  0  0  0
 17 20  1  0  0  0  0
 19 21  1  0  0  0  0
 20 22  2  0  0  0  0
 20 23  1  0  0  0  0
 21 24  1  0  0  0  0
 22 25  1  0  0  0  0
 22 26  1  0  0  0  0
 23 27  2  0  0  0  0
 25 28  2  0  0  0  0
 26 29  2  0  0  0  0
 26 30  1  0  0  0  0
 12 16  1  0  0  0  0
 14 17  1  0  0  0  0
 27 29  1  0  0  0  0
 28 30  1  0  0  0  0
M  END
>  <MolRegNo>
1280321

>  <m>
=

>  <Value>
55

>  <Unit>
nM

>  <Type>
IC50

>  <pValue>
7.26

>  <Ligand Efficiency>
0

>  <Binding Efficiency>
0

>  <Surface Efficiency>
0

>  <Assay Index>
637122

>  <Assay Category>


>  <Assay Organism>
Homo sapiens

>  <Target ID>
17045

>  <Target Name>
Cytochrome P450 3A4

>  <Target Organism>
Homo sapiens

>  <Target Description>
Target is a single protein chain

>  <Sequence Accession>
P08684

>  <Reference>
Bioorg Med Chem Lett 22 (4), 1611-1614 (2012)

>  <Pubmed ID>
22264486

>  <DOI>
10.1016/j.bmcl.2011.12.125

$$$$
1280322
Actelion Java MolfileCreator 1.0

 31 34  0  0  0  0  0  0  0  0999 V2000
    0.0000   -0.0000   -0.0000 O   0  0  0  0  0  0  0  0  0  0  0  0
   -0.0120   -1.4955   -0.0000 C   0  0  0  0  0  0  0  0  0  0  0  0
    1.2802   -2.2373   -0.0000 N   0  0  0  0  0  0  0  0  0  0  0  0
   -1.3280   -2.2373   -0.0000 N   0  0  0  0  0  0  0  0  0  0  0  0
    2.5723   -1.4716   -0.0000 C   0  0  0  0  0  0  0  0  0  0  0  0
   -1.3400   -3.7329   -0.0000 C   0  0  0  0  0  0  0  0  0  0  0  0
    3.8645   -2.2134   -0.0000 C   0  0  0  0  0  0  0  0  0  0  0  0
    2.5484    0.0479   -0.0000 C   0  0  0  0  0  0  0  0  0  0  0  0
   -2.6561   -4.4746   -0.0000 C   0  0  0  0  0  0  0  0  0  0  0  0
   -0.0479   -4.4746   -0.0000 C   0  0  0  0  0  0  0  0  0  0  0  0
    5.1566   -1.4477   -0.0000 C   0  0  0  0  0  0  0  0  0  0  0  0
    3.8405    0.8255   -0.0000 C   0  0  0  0  0  0  0  0  0  0  0  0
   -2.6680   -5.9821   -0.0000 C   0  0  0  0  0  0  0  0  0  0  0  0
   -0.0598   -5.9821   -0.0000 C   0  0  0  0  0  0  0  0  0  0  0  0
    6.4488   -2.1895   -0.0000 C   0  0  0  0  0  0  0  0  0  0  0  0
    5.1446    0.0718   -0.0000 C   0  0  0  0  0  0  0  0  0  0  0  0
   -1.3759   -6.7239   -0.0000 C   0  0  0  0  0  0  0  0  0  0  0  0
    6.4368   -3.6850   -0.0000 O   0  0  0  0  0  0  0  0  0  0  0  0
    7.7409   -1.4238   -0.0000 N   0  0  0  0  0  0  0  0  0  0  0  0
   -1.3879   -8.2195   -0.0000 C   0  0  0  0  0  0  0  0  0  0  0  0
    9.0330   -2.1655   -0.0000 C   0  0  0  0  0  0  0  0  0  0  0  0
   -0.0957   -8.9613   -0.0000 C   0  0  0  0  0  0  0  0  0  0  0  0
   -2.7159   -8.9613   -0.0000 C   0  0  0  0  0  0  0  0  0  0  0  0
    9.0211   -3.6611   -0.0000 C   0  0  0  0  0  0  0  0  0  0  0  0
   10.3252   -1.3998   -0.0000 C   0  0  0  0  0  0  0  0  0  0  0  0
    1.3161   -8.4707   -0.0000 N   0  0  0  0  0  0  0  0  0  0  0  0
   -0.0957  -10.4448   -0.0000 C   0  0  0  0  0  0  0  0  0  0  0  0
   -2.7279  -10.4568   -0.0000 C   0  0  0  0  0  0  0  0  0  0  0  0
    2.1895   -9.6672   -0.0000 C   0  0  0  0  0  0  0  0  0  0  0  0
   -1.4238  -11.1986   -0.0000 N   0  0  0  0  0  0  0  0  0  0  0  0
    1.3161  -10.8875   -0.0000 N   0  0  0  0  0  0  0  0  0  0  0  0
  1  2  2  0  0  0  0
  2  3  1  0  0  0  0
  2  4  1  0  0  0  0
  3  5  1  0  0  0  0
  4  6  1  0  0  0  0
  5  7  2  0  0  0  0
  5  8  1  0  0  0  0
  6  9  2  0  0  0  0
  6 10  1  0  0  0  0
  7 11  1  0  0  0  0
  8 12  2  0  0  0  0
  9 13  1  0  0  0  0
 10 14  2  0  0  0  0
 11 15  1  0  0  0  0
 11 16  2  0  0  0  0
 13 17  2  0  0  0  0
 15 18  2  0  0  0  0
 15 19  1  0  0  0  0
 17 20  1  0  0  0  0
 19 21  1  0  0  0  0
 20 22  2  0  0  0  0
 20 23  1  0  0  0  0
 21 24  1  0  0  0  0
 21 25  1  0  0  0  0
 22 26  1  0  0  0  0
 22 27  1  0  0  0  0
 23 28  2  0  0  0  0
 26 29  2  0  0  0  0
 27 30  2  0  0  0  0
 27 31  1  0  0  0  0
 12 16  1  0  0  0  0
 14 17  1  0  0  0  0
 28 30  1  0  0  0  0
 29 31  1  0  0  0  0
M  END
>  <MolRegNo>
1280322

>  <m>
=

>  <Value>
90

>  <Unit>
nM

>  <Type>
IC50

>  <pValue>
7.05

>  <Ligand Efficiency>
0

>  <Binding Efficiency>
0

>  <Surface Efficiency>
0

>  <Assay Index>
637122

>  <Assay Category>


>  <Assay Organism>
Homo sapiens

>  <Target ID>
17045

>  <Target Name>
Cytochrome P450 3A4

>  <Target Organism>
Homo sapiens

>  <Target Description>
Target is a single protein chain

>  <Sequence Accession>
P08684

>  <Reference>
Bioorg Med Chem Lett 22 (4), 1611-1614 (2012)

>  <Pubmed ID>
22264486

>  <DOI>
10.1016/j.bmcl.2011.12.125

$$$$
1280323
Actelion Java MolfileCreator 1.0

 30 33  0  0  0  0  0  0  0  0999 V2000
    0.0000   -0.0000   -0.0000 O   0  0  0  0  0  0  0  0  0  0  0  0
   -0.0120   -1.4949   -0.0000 C   0  0  0  0  0  0  0  0  0  0  0  0
    1.2796   -2.2363   -0.0000 N   0  0  0  0  0  0  0  0  0  0  0  0
   -1.3274   -2.2363   -0.0000 N   0  0  0  0  0  0  0  0  0  0  0  0
    2.5712   -1.4710   -0.0000 C   0  0  0  0  0  0  0  0  0  0  0  0
   -1.3394   -3.7312   -0.0000 C   0  0  0  0  0  0  0  0  0  0  0  0
    3.8628   -2.2124   -0.0000 C   0  0  0  0  0  0  0  0  0  0  0  0
    2.5473    0.0478   -0.0000 C   0  0  0  0  0  0  0  0  0  0  0  0
   -2.6549   -4.4727   -0.0000 C   0  0  0  0  0  0  0  0  0  0  0  0
   -0.0478   -4.4727   -0.0000 C   0  0  0  0  0  0  0  0  0  0  0  0
    5.1543   -1.4470   -0.0000 C   0  0  0  0  0  0  0  0  0  0  0  0
    3.8388    0.8252   -0.0000 C   0  0  0  0  0  0  0  0  0  0  0  0
   -2.6669   -5.9795   -0.0000 C   0  0  0  0  0  0  0  0  0  0  0  0
   -0.0598   -5.9795   -0.0000 C   0  0  0  0  0  0  0  0  0  0  0  0
    6.4459   -2.1885   -0.0000 C   0  0  0  0  0  0  0  0  0  0  0  0
    5.1424    0.0718   -0.0000 C   0  0  0  0  0  0  0  0  0  0  0  0
   -1.3753   -6.7210   -0.0000 C   0  0  0  0  0  0  0  0  0  0  0  0
    6.4339   -3.6834   -0.0000 O   0  0  0  0  0  0  0  0  0  0  0  0
    7.7375   -1.4231   -0.0000 N   0  0  0  0  0  0  0  0  0  0  0  0
   -1.3872   -8.2158   -0.0000 C   0  0  0  0  0  0  0  0  0  0  0  0
    9.0290   -2.1646   -0.0000 C   0  0  0  0  0  0  0  0  0  0  0  0
    7.7255    0.0957   -0.0000 C   0  0  0  0  0  0  0  0  0  0  0  0
   -0.0957   -8.9573   -0.0000 C   0  0  0  0  0  0  0  0  0  0  0  0
   -2.7147   -8.9573   -0.0000 C   0  0  0  0  0  0  0  0  0  0  0  0
    1.3155   -8.4670   -0.0000 N   0  0  0  0  0  0  0  0  0  0  0  0
   -0.0957  -10.4402   -0.0000 C   0  0  0  0  0  0  0  0  0  0  0  0
   -2.7267  -10.4522   -0.0000 C   0  0  0  0  0  0  0  0  0  0  0  0
    2.1885   -9.6629   -0.0000 C   0  0  0  0  0  0  0  0  0  0  0  0
   -1.4231  -11.1936   -0.0000 N   0  0  0  0  0  0  0  0  0  0  0  0
    1.3155  -10.8827   -0.0000 N   0  0  0  0  0  0  0  0  0  0  0  0
  1  2  2  0  0  0  0
  2  3  1  0  0  0  0
  2  4  1  0  0  0  0
  3  5  1  0  0  0  0
  4  6  1  0  0  0  0
  5  7  2  0  0  0  0
  5  8  1  0  0  0  0
  6  9  2  0  0  0  0
  6 10  1  0  0  0  0
  7 11  1  0  0  0  0
  8 12  2  0  0  0  0
  9 13  1  0  0  0  0
 10 14  2  0  0  0  0
 11 15  1  0  0  0  0
 11 16  2  0  0  0  0
 13 17  2  0  0  0  0
 15 18  2  0  0  0  0
 15 19  1  0  0  0  0
 17 20  1  0  0  0  0
 19 21  1  0  0  0  0
 19 22  1  0  0  0  0
 20 23  2  0  0  0  0
 20 24  1  0  0  0  0
 23 25  1  0  0  0  0
 23 26  1  0  0  0  0
 24 27  2  0  0  0  0
 25 28  2  0  0  0  0
 26 29  2  0  0  0  0
 26 30  1  0  0  0  0
 12 16  1  0  0  0  0
 14 17  1  0  0  0  0
 27 29  1  0  0  0  0
 28 30  1  0  0  0  0
M  END
>  <MolRegNo>
1280323

>  <m>
=

>  <Value>
110

>  <Unit>
nM

>  <Type>
IC50

>  <pValue>
6.96

>  <Ligand Efficiency>
0

>  <Binding Efficiency>
0

>  <Surface Efficiency>
0

>  <Assay Index>
637122

>  <Assay Category>


>  <Assay Organism>
Homo sapiens

>  <Target ID>
17045

>  <Target Name>
Cytochrome P450 3A4

>  <Target Organism>
Homo sapiens

>  <Target Description>
Target is a single protein chain

>  <Sequence Accession>
P08684

>  <Reference>
Bioorg Med Chem Lett 22 (4), 1611-1614 (2012)

>  <Pubmed ID>
22264486

>  <DOI>
10.1016/j.bmcl.2011.12.125

$$$$
1280324
Actelion Java MolfileCreator 1.0

 32 35  0  0  0  0  0  0  0  0999 V2000
    0.0000   -0.0000   -0.0000 O   0  0  0  0  0  0  0  0  0  0  0  0
   -0.0120   -1.4954   -0.0000 C   0  0  0  0  0  0  0  0  0  0  0  0
    1.2801   -2.2371   -0.0000 N   0  0  0  0  0  0  0  0  0  0  0  0
   -1.3279   -2.2371   -0.0000 N   0  0  0  0  0  0  0  0  0  0  0  0
    2.5721   -1.4715   -0.0000 C   0  0  0  0  0  0  0  0  0  0  0  0
   -1.3399   -3.7325   -0.0000 C   0  0  0  0  0  0  0  0  0  0  0  0
    3.8641   -2.2132   -0.0000 C   0  0  0  0  0  0  0  0  0  0  0  0
    2.5481    0.0479   -0.0000 C   0  0  0  0  0  0  0  0  0  0  0  0
   -2.6558   -4.4742   -0.0000 C   0  0  0  0  0  0  0  0  0  0  0  0
   -0.0479   -4.4742   -0.0000 C   0  0  0  0  0  0  0  0  0  0  0  0
    5.1561   -1.4475   -0.0000 C   0  0  0  0  0  0  0  0  0  0  0  0
    3.8402    0.8255   -0.0000 C   0  0  0  0  0  0  0  0  0  0  0  0
   -2.6678   -5.9816   -0.0000 C   0  0  0  0  0  0  0  0  0  0  0  0
   -0.0598   -5.9816   -0.0000 C   0  0  0  0  0  0  0  0  0  0  0  0
    6.4481   -2.1893   -0.0000 C   0  0  0  0  0  0  0  0  0  0  0  0
    5.1442    0.0718   -0.0000 C   0  0  0  0  0  0  0  0  0  0  0  0
   -1.3758   -6.7233   -0.0000 C   0  0  0  0  0  0  0  0  0  0  0  0
    6.4362   -3.6846   -0.0000 O   0  0  0  0  0  0  0  0  0  0  0  0
    7.7402   -1.4236   -0.0000 N   0  0  0  0  0  0  0  0  0  0  0  0
   -1.3877   -8.2187   -0.0000 C   0  0  0  0  0  0  0  0  0  0  0  0
    9.0322   -2.1653   -0.0000 C   0  0  0  0  0  0  0  0  0  0  0  0
    7.7282    0.0957   -0.0000 C   0  0  0  0  0  0  0  0  0  0  0  0
   -0.0957   -8.9604   -0.0000 C   0  0  0  0  0  0  0  0  0  0  0  0
   -2.7037   -8.9604   -0.0000 C   0  0  0  0  0  0  0  0  0  0  0  0
   10.3242   -1.3997   -0.0000 C   0  0  0  0  0  0  0  0  0  0  0  0
    9.0202    0.8613   -0.0000 C   0  0  0  0  0  0  0  0  0  0  0  0
    1.3159   -8.4699   -0.0000 N   0  0  0  0  0  0  0  0  0  0  0  0
   -0.0957  -10.4438   -0.0000 C   0  0  0  0  0  0  0  0  0  0  0  0
   -2.7156  -10.4558   -0.0000 C   0  0  0  0  0  0  0  0  0  0  0  0
    2.1893   -9.6662   -0.0000 C   0  0  0  0  0  0  0  0  0  0  0  0
   -1.4236  -11.1975   -0.0000 N   0  0  0  0  0  0  0  0  0  0  0  0
    1.3159  -10.8865   -0.0000 N   0  0  0  0  0  0  0  0  0  0  0  0
  1  2  2  0  0  0  0
  2  3  1  0  0  0  0
  2  4  1  0  0  0  0
  3  5  1  0  0  0  0
  4  6  1  0  0  0  0
  5  7  2  0  0  0  0
  5  8  1  0  0  0  0
  6  9  2  0  0  0  0
  6 10  1  0  0  0  0
  7 11  1  0  0  0  0
  8 12  2  0  0  0  0
  9 13  1  0  0  0  0
 10 14  2  0  0  0  0
 11 15  1  0  0  0  0
 11 16  2  0  0  0  0
 13 17  2  0  0  0  0
 15 18  2  0  0  0  0
 15 19  1  0  0  0  0
 17 20  1  0  0  0  0
 19 21  1  0  0  0  0
 19 22  1  0  0  0  0
 20 23  2  0  0  0  0
 20 24  1  0  0  0  0
 21 25  1  0  0  0  0
 22 26  1  0  0  0  0
 23 27  1  0  0  0  0
 23 28  1  0  0  0  0
 24 29  2  0  0  0  0
 27 30  2  0  0  0  0
 28 31  2  0  0  0  0
 28 32  1  0  0  0  0
 12 16  1  0  0  0  0
 14 17  1  0  0  0  0
 29 31  1  0  0  0  0
 30 32  1  0  0  0  0
M  END
>  <MolRegNo>
1280324

>  <m>
=

>  <Value>
47

>  <Unit>
nM

>  <Type>
IC50

>  <pValue>
7.33

>  <Ligand Efficiency>
0

>  <Binding Efficiency>
0

>  <Surface Efficiency>
0

>  <Assay Index>
637122

>  <Assay Category>


>  <Assay Organism>
Homo sapiens

>  <Target ID>
17045

>  <Target Name>
Cytochrome P450 3A4

>  <Target Organism>
Homo sapiens

>  <Target Description>
Target is a single protein chain

>  <Sequence Accession>
P08684

>  <Reference>
Bioorg Med Chem Lett 22 (4), 1611-1614 (2012)

>  <Pubmed ID>
22264486

>  <DOI>
10.1016/j.bmcl.2011.12.125

$$$$
1280325
Actelion Java MolfileCreator 1.0

 34 37  0  0  0  0  0  0  0  0999 V2000
    0.0000   -0.0000   -0.0000 O   0  0  0  0  0  0  0  0  0  0  0  0
   -0.0120   -1.4948   -0.0000 C   0  0  0  0  0  0  0  0  0  0  0  0
    1.2796   -2.2363   -0.0000 N   0  0  0  0  0  0  0  0  0  0  0  0
   -1.3274   -2.2363   -0.0000 N   0  0  0  0  0  0  0  0  0  0  0  0
    2.5711   -1.4709   -0.0000 C   0  0  0  0  0  0  0  0  0  0  0  0
   -1.3394   -3.7311   -0.0000 C   0  0  0  0  0  0  0  0  0  0  0  0
    3.8626   -2.2123   -0.0000 C   0  0  0  0  0  0  0  0  0  0  0  0
    2.5472    0.0478   -0.0000 C   0  0  0  0  0  0  0  0  0  0  0  0
   -2.6548   -4.4725   -0.0000 C   0  0  0  0  0  0  0  0  0  0  0  0
   -0.0478   -4.4725   -0.0000 C   0  0  0  0  0  0  0  0  0  0  0  0
    5.1542   -1.4470   -0.0000 C   0  0  0  0  0  0  0  0  0  0  0  0
    3.8387    0.8251   -0.0000 C   0  0  0  0  0  0  0  0  0  0  0  0
   -2.6668   -5.9674   -0.0000 C   0  0  0  0  0  0  0  0  0  0  0  0
   -0.0598   -5.9793   -0.0000 C   0  0  0  0  0  0  0  0  0  0  0  0
    6.4457   -2.1884   -0.0000 C   0  0  0  0  0  0  0  0  0  0  0  0
    5.1422    0.0718   -0.0000 C   0  0  0  0  0  0  0  0  0  0  0  0
   -1.3752   -6.7088   -0.0000 C   0  0  0  0  0  0  0  0  0  0  0  0
    6.4337   -3.6833   -0.0000 O   0  0  0  0  0  0  0  0  0  0  0  0
    7.7372   -1.4231   -0.0000 N   0  0  0  0  0  0  0  0  0  0  0  0
   -1.3872   -8.2036   -0.0000 C   0  0  0  0  0  0  0  0  0  0  0  0
    9.0288   -2.1645   -0.0000 C   0  0  0  0  0  0  0  0  0  0  0  0
    7.7253    0.0957   -0.0000 C   0  0  0  0  0  0  0  0  0  0  0  0
   -0.0957   -8.9451   -0.0000 C   0  0  0  0  0  0  0  0  0  0  0  0
   -2.7146   -8.9451   -0.0000 C   0  0  0  0  0  0  0  0  0  0  0  0
   10.3203   -1.3992   -0.0000 C   0  0  0  0  0  0  0  0  0  0  0  0
    9.0168   -3.6593   -0.0000 C   0  0  0  0  0  0  0  0  0  0  0  0
    9.0168    0.8610   -0.0000 C   0  0  0  0  0  0  0  0  0  0  0  0
    6.4098    0.8610   -0.0000 C   0  0  0  0  0  0  0  0  0  0  0  0
    1.3154   -8.4548   -0.0000 N   0  0  0  0  0  0  0  0  0  0  0  0
   -0.0957  -10.4279   -0.0000 C   0  0  0  0  0  0  0  0  0  0  0  0
   -2.7266  -10.4399   -0.0000 C   0  0  0  0  0  0  0  0  0  0  0  0
    2.1884   -9.6506   -0.0000 C   0  0  0  0  0  0  0  0  0  0  0  0
   -1.4231  -11.1813   -0.0000 N   0  0  0  0  0  0  0  0  0  0  0  0
    1.3154  -10.8704   -0.0000 N   0  0  0  0  0  0  0  0  0  0  0  0
  1  2  2  0  0  0  0
  2  3  1  0  0  0  0
  2  4  1  0  0  0  0
  3  5  1  0  0  0  0
  4  6  1  0  0  0  0
  5  7  2  0  0  0  0
  5  8  1  0  0  0  0
  6  9  2  0  0  0  0
  6 10  1  0  0  0  0
  7 11  1  0  0  0  0
  8 12  2  0  0  0  0
  9 13  1  0  0  0  0
 10 14  2  0  0  0  0
 11 15  1  0  0  0  0
 11 16  2  0  0  0  0
 13 17  2  0  0  0  0
 15 18  2  0  0  0  0
 15 19  1  0  0  0  0
 17 20  1  0  0  0  0
 19 21  1  0  0  0  0
 19 22  1  0  0  0  0
 20 23  2  0  0  0  0
 20 24  1  0  0  0  0
 21 25  1  0  0  0  0
 21 26  1  0  0  0  0
 22 27  1  0  0  0  0
 22 28  1  0  0  0  0
 23 29  1  0  0  0  0
 23 30  1  0  0  0  0
 24 31  2  0  0  0  0
 29 32  2  0  0  0  0
 30 33  2  0  0  0  0
 30 34  1  0  0  0  0
 12 16  1  0  0  0  0
 14 17  1  0  0  0  0
 31 33  1  0  0  0  0
 32 34  1  0  0  0  0
M  END
>  <MolRegNo>
1280325

>  <m>
=

>  <Value>
60

>  <Unit>
nM

>  <Type>
IC50

>  <pValue>
7.22

>  <Ligand Efficiency>
0

>  <Binding Efficiency>
0

>  <Surface Efficiency>
0

>  <Assay Index>
637122

>  <Assay Category>


>  <Assay Organism>
Homo sapiens

>  <Target ID>
17045

>  <Target Name>
Cytochrome P450 3A4

>  <Target Organism>
Homo sapiens

>  <Target Description>
Target is a single protein chain

>  <Sequence Accession>
P08684

>  <Reference>
Bioorg Med Chem Lett 22 (4), 1611-1614 (2012)

>  <Pubmed ID>
22264486

>  <DOI>
10.1016/j.bmcl.2011.12.125

$$$$
1280326
Actelion Java MolfileCreator 1.0

 34 38  0  0  0  0  0  0  0  0999 V2000
    0.0000   -0.0000   -0.0000 O   0  0  0  0  0  0  0  0  0  0  0  0
   -0.0119   -1.4934   -0.0000 C   0  0  0  0  0  0  0  0  0  0  0  0
    1.2784   -2.2342   -0.0000 N   0  0  0  0  0  0  0  0  0  0  0  0
   -1.3262   -2.2342   -0.0000 N   0  0  0  0  0  0  0  0  0  0  0  0
    2.5687   -1.4695   -0.0000 C   0  0  0  0  0  0  0  0  0  0  0  0
   -1.3381   -3.7276   -0.0000 C   0  0  0  0  0  0  0  0  0  0  0  0
    3.8590   -2.2103   -0.0000 C   0  0  0  0  0  0  0  0  0  0  0  0
    2.5448    0.0358   -0.0000 C   0  0  0  0  0  0  0  0  0  0  0  0
   -2.6523   -4.4683   -0.0000 C   0  0  0  0  0  0  0  0  0  0  0  0
   -0.0478   -4.4564   -0.0000 C   0  0  0  0  0  0  0  0  0  0  0  0
    5.1494   -1.4456   -0.0000 C   0  0  0  0  0  0  0  0  0  0  0  0
    3.8232    0.8124   -0.0000 C   0  0  0  0  0  0  0  0  0  0  0  0
   -2.6643   -5.9618   -0.0000 C   0  0  0  0  0  0  0  0  0  0  0  0
   -0.0597   -5.9618   -0.0000 C   0  0  0  0  0  0  0  0  0  0  0  0
    6.4397   -2.1864   -0.0000 C   0  0  0  0  0  0  0  0  0  0  0  0
    5.1374    0.0717   -0.0000 C   0  0  0  0  0  0  0  0  0  0  0  0
   -1.3740   -6.7025   -0.0000 C   0  0  0  0  0  0  0  0  0  0  0  0
    6.4277   -3.6798   -0.0000 O   0  0  0  0  0  0  0  0  0  0  0  0
    7.7300   -1.4217   -0.0000 N   0  0  0  0  0  0  0  0  0  0  0  0
   -1.3859   -8.1960   -0.0000 C   0  0  0  0  0  0  0  0  0  0  0  0
    7.7181    0.0956   -0.0000 C   0  0  0  0  0  0  0  0  0  0  0  0
   -0.0956   -8.9367   -0.0000 C   0  0  0  0  0  0  0  0  0  0  0  0
   -2.7001   -8.9367   -0.0000 C   0  0  0  0  0  0  0  0  0  0  0  0
    9.0203    0.8602   -0.0000 C   0  0  0  0  0  0  0  0  0  0  0  0
    6.4158    0.8483   -0.0000 C   0  0  0  0  0  0  0  0  0  0  0  0
    1.3142   -8.4468   -0.0000 N   0  0  0  0  0  0  0  0  0  0  0  0
   -0.0956  -10.4182   -0.0000 C   0  0  0  0  0  0  0  0  0  0  0  0
   -2.7121  -10.4301   -0.0000 C   0  0  0  0  0  0  0  0  0  0  0  0
    9.0084    2.3895   -0.0000 C   0  0  0  0  0  0  0  0  0  0  0  0
    6.3919    2.3656   -0.0000 C   0  0  0  0  0  0  0  0  0  0  0  0
    2.1864   -9.6296   -0.0000 C   0  0  0  0  0  0  0  0  0  0  0  0
   -1.4217  -11.1709   -0.0000 N   0  0  0  0  0  0  0  0  0  0  0  0
    1.3142  -10.8602   -0.0000 N   0  0  0  0  0  0  0  0  0  0  0  0
    7.6942    3.1422   -0.0000 C   0  0  0  0  0  0  0  0  0  0  0  0
  1  2  2  0  0  0  0
  2  3  1  0  0  0  0
  2  4  1  0  0  0  0
  3  5  1  0  0  0  0
  4  6  1  0  0  0  0
  5  7  2  0  0  0  0
  5  8  1  0  0  0  0
  6  9  2  0  0  0  0
  6 10  1  0  0  0  0
  7 11  1  0  0  0  0
  8 12  2  0  0  0  0
  9 13  1  0  0  0  0
 10 14  2  0  0  0  0
 11 15  1  0  0  0  0
 11 16  2  0  0  0  0
 13 17  2  0  0  0  0
 15 18  2  0  0  0  0
 15 19  1  0  0  0  0
 17 20  1  0  0  0  0
 19 21  1  0  0  0  0
 20 22  2  0  0  0  0
 20 23  1  0  0  0  0
 21 24  2  0  0  0  0
 21 25  1  0  0  0  0
 22 26  1  0  0  0  0
 22 27  1  0  0  0  0
 23 28  2  0  0  0  0
 24 29  1  0  0  0  0
 25 30  2  0  0  0  0
 26 31  2  0  0  0  0
 27 32  2  0  0  0  0
 27 33  1  0  0  0  0
 29 34  2  0  0  0  0
 12 16  1  0  0  0  0
 14 17  1  0  0  0  0
 28 32  1  0  0  0  0
 30 34  1  0  0  0  0
 31 33  1  0  0  0  0
M  END
>  <MolRegNo>
1280326

>  <m>
=

>  <Value>
53

>  <Unit>
nM

>  <Type>
IC50

>  <pValue>
7.28

>  <Ligand Efficiency>
0

>  <Binding Efficiency>
0

>  <Surface Efficiency>
0

>  <Assay Index>
637122

>  <Assay Category>


>  <Assay Organism>
Homo sapiens

>  <Target ID>
17045

>  <Target Name>
Cytochrome P450 3A4

>  <Target Organism>
Homo sapiens

>  <Target Description>
Target is a single protein chain

>  <Sequence Accession>
P08684

>  <Reference>
Bioorg Med Chem Lett 22 (4), 1611-1614 (2012)

>  <Pubmed ID>
22264486

>  <DOI>
10.1016/j.bmcl.2011.12.125

$$$$
1280327
Actelion Java MolfileCreator 1.0

 33 37  0  0  0  0  0  0  0  0999 V2000
    0.0000   -0.0000   -0.0000 O   0  0  0  0  0  0  0  0  0  0  0  0
   -0.0119   -1.4930   -0.0000 C   0  0  0  0  0  0  0  0  0  0  0  0
    1.2780   -2.2336   -0.0000 N   0  0  0  0  0  0  0  0  0  0  0  0
   -1.3258   -2.2336   -0.0000 N   0  0  0  0  0  0  0  0  0  0  0  0
    2.5680   -1.4691   -0.0000 C   0  0  0  0  0  0  0  0  0  0  0  0
   -1.3377   -3.7266   -0.0000 C   0  0  0  0  0  0  0  0  0  0  0  0
    3.8580   -2.2097   -0.0000 C   0  0  0  0  0  0  0  0  0  0  0  0
    2.5441    0.0478   -0.0000 C   0  0  0  0  0  0  0  0  0  0  0  0
   -2.6516   -4.4671   -0.0000 C   0  0  0  0  0  0  0  0  0  0  0  0
   -0.0478   -4.4671   -0.0000 C   0  0  0  0  0  0  0  0  0  0  0  0
    5.1479   -1.4452   -0.0000 C   0  0  0  0  0  0  0  0  0  0  0  0
    3.8341    0.8241   -0.0000 C   0  0  0  0  0  0  0  0  0  0  0  0
   -2.6636   -5.9601   -0.0000 C   0  0  0  0  0  0  0  0  0  0  0  0
   -0.0597   -5.9721   -0.0000 C   0  0  0  0  0  0  0  0  0  0  0  0
    6.4379   -2.1858   -0.0000 C   0  0  0  0  0  0  0  0  0  0  0  0
    5.1360    0.0717   -0.0000 C   0  0  0  0  0  0  0  0  0  0  0  0
   -1.3736   -6.7007   -0.0000 C   0  0  0  0  0  0  0  0  0  0  0  0
    6.4260   -3.6788   -0.0000 O   0  0  0  0  0  0  0  0  0  0  0  0
    7.7279   -1.4214   -0.0000 N   0  0  0  0  0  0  0  0  0  0  0  0
   -1.3855   -8.1937   -0.0000 C   0  0  0  0  0  0  0  0  0  0  0  0
    7.7159    0.0956   -0.0000 C   0  0  0  0  0  0  0  0  0  0  0  0
   -0.0956   -8.9342   -0.0000 C   0  0  0  0  0  0  0  0  0  0  0  0
   -2.7113   -8.9342   -0.0000 C   0  0  0  0  0  0  0  0  0  0  0  0
    8.9104    0.9914   -0.0000 C   0  0  0  0  0  0  0  0  0  0  0  0
    6.4737    0.9914   -0.0000 C   0  0  0  0  0  0  0  0  0  0  0  0
    1.3139   -8.4445   -0.0000 N   0  0  0  0  0  0  0  0  0  0  0  0
   -0.0956  -10.4153   -0.0000 C   0  0  0  0  0  0  0  0  0  0  0  0
   -2.7233  -10.4273   -0.0000 C   0  0  0  0  0  0  0  0  0  0  0  0
    8.4326    2.4366   -0.0000 C   0  0  0  0  0  0  0  0  0  0  0  0
    6.9276    2.4366   -0.0000 C   0  0  0  0  0  0  0  0  0  0  0  0
    2.1858   -9.6390   -0.0000 C   0  0  0  0  0  0  0  0  0  0  0  0
   -1.4214  -11.1678   -0.0000 N   0  0  0  0  0  0  0  0  0  0  0  0
    1.3139  -10.8573   -0.0000 N   0  0  0  0  0  0  0  0  0  0  0  0
  1  2  2  0  0  0  0
  2  3  1  0  0  0  0
  2  4  1  0  0  0  0
  3  5  1  0  0  0  0
  4  6  1  0  0  0  0
  5  7  2  0  0  0  0
  5  8  1  0  0  0  0
  6  9  2  0  0  0  0
  6 10  1  0  0  0  0
  7 11  1  0  0  0  0
  8 12  2  0  0  0  0
  9 13  1  0  0  0  0
 10 14  2  0  0  0  0
 11 15  1  0  0  0  0
 11 16  2  0  0  0  0
 13 17  2  0  0  0  0
 15 18  2  0  0  0  0
 15 19  1  0  0  0  0
 17 20  1  0  0  0  0
 19 21  1  0  0  0  0
 20 22  2  0  0  0  0
 20 23  1  0  0  0  0
 21 24  1  0  0  0  0
 21 25  1  0  0  0  0
 22 26  1  0  0  0  0
 22 27  1  0  0  0  0
 23 28  2  0  0  0  0
 24 29  1  0  0  0  0
 25 30  1  0  0  0  0
 26 31  2  0  0  0  0
 27 32  2  0  0  0  0
 27 33  1  0  0  0  0
 12 16  1  0  0  0  0
 14 17  1  0  0  0  0
 28 32  1  0  0  0  0
 29 30  1  0  0  0  0
 31 33  1  0  0  0  0
M  END
>  <MolRegNo>
1280327

>  <m>
=

>  <Value>
70

>  <Unit>
nM

>  <Type>
IC50

>  <pValue>
7.16

>  <Ligand Efficiency>
0

>  <Binding Efficiency>
0

>  <Surface Efficiency>
0

>  <Assay Index>
637122

>  <Assay Category>


>  <Assay Organism>
Homo sapiens

>  <Target ID>
17045

>  <Target Name>
Cytochrome P450 3A4

>  <Target Organism>
Homo sapiens

>  <Target Description>
Target is a single protein chain

>  <Sequence Accession>
P08684

>  <Reference>
Bioorg Med Chem Lett 22 (4), 1611-1614 (2012)

>  <Pubmed ID>
22264486

>  <DOI>
10.1016/j.bmcl.2011.12.125

$$$$
1280328
Actelion Java MolfileCreator 1.0

 33 37  0  0  0  0  0  0  0  0999 V2000
    0.0000   -0.0000   -0.0000 O   0  0  0  0  0  0  0  0  0  0  0  0
   -0.0120   -1.4940   -0.0000 C   0  0  0  0  0  0  0  0  0  0  0  0
    1.2789   -2.2351   -0.0000 N   0  0  0  0  0  0  0  0  0  0  0  0
   -1.3267   -2.2351   -0.0000 N   0  0  0  0  0  0  0  0  0  0  0  0
    2.5697   -1.4701   -0.0000 C   0  0  0  0  0  0  0  0  0  0  0  0
   -1.3386   -3.7291   -0.0000 C   0  0  0  0  0  0  0  0  0  0  0  0
    3.8606   -2.2112   -0.0000 C   0  0  0  0  0  0  0  0  0  0  0  0
    2.5458    0.0478   -0.0000 C   0  0  0  0  0  0  0  0  0  0  0  0
   -2.6653   -4.4701   -0.0000 C   0  0  0  0  0  0  0  0  0  0  0  0
   -0.0478   -4.4701   -0.0000 C   0  0  0  0  0  0  0  0  0  0  0  0
    5.1514   -1.4462   -0.0000 C   0  0  0  0  0  0  0  0  0  0  0  0
    3.8367    0.8247   -0.0000 C   0  0  0  0  0  0  0  0  0  0  0  0
   -2.6773   -5.9761   -0.0000 C   0  0  0  0  0  0  0  0  0  0  0  0
   -0.0598   -5.9761   -0.0000 C   0  0  0  0  0  0  0  0  0  0  0  0
    6.4422   -2.1873   -0.0000 C   0  0  0  0  0  0  0  0  0  0  0  0
    5.1394    0.0717   -0.0000 C   0  0  0  0  0  0  0  0  0  0  0  0
   -1.3745   -6.7171   -0.0000 C   0  0  0  0  0  0  0  0  0  0  0  0
    6.4303   -3.6813   -0.0000 O   0  0  0  0  0  0  0  0  0  0  0  0
    7.7331   -1.4223   -0.0000 N   0  0  0  0  0  0  0  0  0  0  0  0
   -1.3865   -8.2112   -0.0000 C   0  0  0  0  0  0  0  0  0  0  0  0
    9.0239   -2.1633   -0.0000 C   0  0  0  0  0  0  0  0  0  0  0  0
    7.7211    0.0956   -0.0000 C   0  0  0  0  0  0  0  0  0  0  0  0
   -0.0956   -8.9522   -0.0000 C   0  0  0  0  0  0  0  0  0  0  0  0
   -2.7131   -8.9522   -0.0000 C   0  0  0  0  0  0  0  0  0  0  0  0
   10.3148   -1.3984   -0.0000 C   0  0  0  0  0  0  0  0  0  0  0  0
    9.0120    0.8606   -0.0000 C   0  0  0  0  0  0  0  0  0  0  0  0
    1.3147   -8.4622   -0.0000 N   0  0  0  0  0  0  0  0  0  0  0  0
   -0.0956  -10.4343   -0.0000 C   0  0  0  0  0  0  0  0  0  0  0  0
   -2.7251  -10.4462   -0.0000 C   0  0  0  0  0  0  0  0  0  0  0  0
   10.3028    0.1195   -0.0000 C   0  0  0  0  0  0  0  0  0  0  0  0
    2.1873   -9.6574   -0.0000 C   0  0  0  0  0  0  0  0  0  0  0  0
   -1.4223  -11.1873   -0.0000 N   0  0  0  0  0  0  0  0  0  0  0  0
    1.3147  -10.8765   -0.0000 N   0  0  0  0  0  0  0  0  0  0  0  0
  1  2  2  0  0  0  0
  2  3  1  0  0  0  0
  2  4  1  0  0  0  0
  3  5  1  0  0  0  0
  4  6  1  0  0  0  0
  5  7  2  0  0  0  0
  5  8  1  0  0  0  0
  6  9  2  0  0  0  0
  6 10  1  0  0  0  0
  7 11  1  0  0  0  0
  8 12  2  0  0  0  0
  9 13  1  0  0  0  0
 10 14  2  0  0  0  0
 11 15  1  0  0  0  0
 11 16  2  0  0  0  0
 13 17  2  0  0  0  0
 15 18  2  0  0  0  0
 15 19  1  0  0  0  0
 17 20  1  0  0  0  0
 19 21  1  0  0  0  0
 19 22  1  0  0  0  0
 20 23  2  0  0  0  0
 20 24  1  0  0  0  0
 21 25  1  0  0  0  0
 22 26  1  0  0  0  0
 23 27  1  0  0  0  0
 23 28  1  0  0  0  0
 24 29  2  0  0  0  0
 25 30  1  0  0  0  0
 27 31  2  0  0  0  0
 28 32  2  0  0  0  0
 28 33  1  0  0  0  0
 12 16  1  0  0  0  0
 14 17  1  0  0  0  0
 26 30  1  0  0  0  0
 29 32  1  0  0  0  0
 31 33  1  0  0  0  0
M  END
>  <MolRegNo>
1280328

>  <m>
=

>  <Value>
79

>  <Unit>
nM

>  <Type>
IC50

>  <pValue>
7.1

>  <Ligand Efficiency>
0

>  <Binding Efficiency>
0

>  <Surface Efficiency>
0

>  <Assay Index>
637122

>  <Assay Category>


>  <Assay Organism>
Homo sapiens

>  <Target ID>
17045

>  <Target Name>
Cytochrome P450 3A4

>  <Target Organism>
Homo sapiens

>  <Target Description>
Target is a single protein chain

>  <Sequence Accession>
P08684

>  <Reference>
Bioorg Med Chem Lett 22 (4), 1611-1614 (2012)

>  <Pubmed ID>
22264486

>  <DOI>
10.1016/j.bmcl.2011.12.125

$$$$
1280329
Actelion Java MolfileCreator 1.0

 33 37  0  0  0  0  0  0  0  0999 V2000
    0.0000   -0.0000   -0.0000 O   0  0  0  0  0  0  0  0  0  0  0  0
   -0.0120   -1.4946   -0.0000 C   0  0  0  0  0  0  0  0  0  0  0  0
    1.2794   -2.2359   -0.0000 N   0  0  0  0  0  0  0  0  0  0  0  0
   -1.3272   -2.2359   -0.0000 N   0  0  0  0  0  0  0  0  0  0  0  0
    2.5707   -1.4707   -0.0000 C   0  0  0  0  0  0  0  0  0  0  0  0
   -1.3391   -3.7305   -0.0000 C   0  0  0  0  0  0  0  0  0  0  0  0
    3.8620   -2.2120   -0.0000 C   0  0  0  0  0  0  0  0  0  0  0  0
    2.5468    0.0478   -0.0000 C   0  0  0  0  0  0  0  0  0  0  0  0
   -2.6544   -4.4718   -0.0000 C   0  0  0  0  0  0  0  0  0  0  0  0
   -0.0478   -4.4718   -0.0000 C   0  0  0  0  0  0  0  0  0  0  0  0
    5.1533   -1.4468   -0.0000 C   0  0  0  0  0  0  0  0  0  0  0  0
    3.8381    0.8250   -0.0000 C   0  0  0  0  0  0  0  0  0  0  0  0
   -2.6663   -5.9783   -0.0000 C   0  0  0  0  0  0  0  0  0  0  0  0
   -0.0598   -5.9783   -0.0000 C   0  0  0  0  0  0  0  0  0  0  0  0
    6.4447   -2.1881   -0.0000 C   0  0  0  0  0  0  0  0  0  0  0  0
    5.1414    0.0717   -0.0000 C   0  0  0  0  0  0  0  0  0  0  0  0
   -1.3750   -6.7197   -0.0000 C   0  0  0  0  0  0  0  0  0  0  0  0
    6.4327   -3.6827   -0.0000 O   0  0  0  0  0  0  0  0  0  0  0  0
    7.7360   -1.4228   -0.0000 N   0  0  0  0  0  0  0  0  0  0  0  0
   -1.3870   -8.2142   -0.0000 C   0  0  0  0  0  0  0  0  0  0  0  0
    9.0273   -2.1642   -0.0000 C   0  0  0  0  0  0  0  0  0  0  0  0
    7.7240    0.0957   -0.0000 C   0  0  0  0  0  0  0  0  0  0  0  0
   -0.0957   -8.9556   -0.0000 C   0  0  0  0  0  0  0  0  0  0  0  0
   -2.7142   -8.9556   -0.0000 C   0  0  0  0  0  0  0  0  0  0  0  0
   10.3186   -1.3989   -0.0000 C   0  0  0  0  0  0  0  0  0  0  0  0
    9.0153    0.8609   -0.0000 C   0  0  0  0  0  0  0  0  0  0  0  0
    1.3152   -8.4653   -0.0000 N   0  0  0  0  0  0  0  0  0  0  0  0
   -0.0957  -10.4382   -0.0000 C   0  0  0  0  0  0  0  0  0  0  0  0
   -2.7261  -10.4501   -0.0000 C   0  0  0  0  0  0  0  0  0  0  0  0
   10.3067    0.1196   -0.0000 O   0  0  0  0  0  0  0  0  0  0  0  0
    2.1881   -9.6610   -0.0000 C   0  0  0  0  0  0  0  0  0  0  0  0
   -1.4228  -11.1915   -0.0000 N   0  0  0  0  0  0  0  0  0  0  0  0
    1.3152  -10.8806   -0.0000 N   0  0  0  0  0  0  0  0  0  0  0  0
  1  2  2  0  0  0  0
  2  3  1  0  0  0  0
  2  4  1  0  0  0  0
  3  5  1  0  0  0  0
  4  6  1  0  0  0  0
  5  7  2  0  0  0  0
  5  8  1  0  0  0  0
  6  9  2  0  0  0  0
  6 10  1  0  0  0  0
  7 11  1  0  0  0  0
  8 12  2  0  0  0  0
  9 13  1  0  0  0  0
 10 14  2  0  0  0  0
 11 15  1  0  0  0  0
 11 16  2  0  0  0  0
 13 17  2  0  0  0  0
 15 18  2  0  0  0  0
 15 19  1  0  0  0  0
 17 20  1  0  0  0  0
 19 21  1  0  0  0  0
 19 22  1  0  0  0  0
 20 23  2  0  0  0  0
 20 24  1  0  0  0  0
 21 25  1  0  0  0  0
 22 26  1  0  0  0  0
 23 27  1  0  0  0  0
 23 28  1  0  0  0  0
 24 29  2  0  0  0  0
 25 30  1  0  0  0  0
 27 31  2  0  0  0  0
 28 32  2  0  0  0  0
 28 33  1  0  0  0  0
 12 16  1  0  0  0  0
 14 17  1  0  0  0  0
 26 30  1  0  0  0  0
 29 32  1  0  0  0  0
 31 33  1  0  0  0  0
M  END
>  <MolRegNo>
1280329

>  <m>
=

>  <Value>
290

>  <Unit>
nM

>  <Type>
IC50

>  <pValue>
6.54

>  <Ligand Efficiency>
0

>  <Binding Efficiency>
0

>  <Surface Efficiency>
0

>  <Assay Index>
637122

>  <Assay Category>


>  <Assay Organism>
Homo sapiens

>  <Target ID>
17045

>  <Target Name>
Cytochrome P450 3A4

>  <Target Organism>
Homo sapiens

>  <Target Description>
Target is a single protein chain

>  <Sequence Accession>
P08684

>  <Reference>
Bioorg Med Chem Lett 22 (4), 1611-1614 (2012)

>  <Pubmed ID>
22264486

>  <DOI>
10.1016/j.bmcl.2011.12.125

$$$$
1280330
Actelion Java MolfileCreator 1.0

 31 34  0  0  0  0  0  0  0  0999 V2000
    0.0000   -0.0000   -0.0000 O   0  0  0  0  0  0  0  0  0  0  0  0
   -0.0120   -1.4961   -0.0000 C   0  0  0  0  0  0  0  0  0  0  0  0
    1.2806   -2.2381   -0.0000 N   0  0  0  0  0  0  0  0  0  0  0  0
   -1.3285   -2.2381   -0.0000 N   0  0  0  0  0  0  0  0  0  0  0  0
    2.5732   -1.4721   -0.0000 C   0  0  0  0  0  0  0  0  0  0  0  0
   -1.3405   -3.7342   -0.0000 C   0  0  0  0  0  0  0  0  0  0  0  0
    3.8658   -2.2142   -0.0000 C   0  0  0  0  0  0  0  0  0  0  0  0
    2.5493    0.0479   -0.0000 C   0  0  0  0  0  0  0  0  0  0  0  0
   -2.6570   -4.4762   -0.0000 C   0  0  0  0  0  0  0  0  0  0  0  0
   -0.0479   -4.4762   -0.0000 C   0  0  0  0  0  0  0  0  0  0  0  0
    5.1584   -1.4482   -0.0000 C   0  0  0  0  0  0  0  0  0  0  0  0
    3.8419    0.8258   -0.0000 C   0  0  0  0  0  0  0  0  0  0  0  0
   -2.6690   -5.9723   -0.0000 C   0  0  0  0  0  0  0  0  0  0  0  0
   -0.0598   -5.9842   -0.0000 C   0  0  0  0  0  0  0  0  0  0  0  0
    6.4510   -2.1902   -0.0000 C   0  0  0  0  0  0  0  0  0  0  0  0
    5.1464    0.0718   -0.0000 C   0  0  0  0  0  0  0  0  0  0  0  0
   -1.3764   -6.7143   -0.0000 C   0  0  0  0  0  0  0  0  0  0  0  0
    6.4390   -3.6863   -0.0000 O   0  0  0  0  0  0  0  0  0  0  0  0
    7.7436   -1.4242   -0.0000 N   0  0  0  0  0  0  0  0  0  0  0  0
   -1.3883   -8.2104   -0.0000 C   0  0  0  0  0  0  0  0  0  0  0  0
    9.0362   -2.1663   -0.0000 C   0  0  0  0  0  0  0  0  0  0  0  0
   -2.7168   -8.9524   -0.0000 N   0  0  0  0  0  0  0  0  0  0  0  0
   -0.0957   -8.9524   -0.0000 C   0  0  0  0  0  0  0  0  0  0  0  0
   10.3288   -1.4003   -0.0000 C   0  0  0  0  0  0  0  0  0  0  0  0
    9.0242   -3.6624   -0.0000 C   0  0  0  0  0  0  0  0  0  0  0  0
   -2.7288  -10.4485   -0.0000 C   0  0  0  0  0  0  0  0  0  0  0  0
   -0.0957  -10.4365   -0.0000 C   0  0  0  0  0  0  0  0  0  0  0  0
    1.3165   -8.4617   -0.0000 C   0  0  0  0  0  0  0  0  0  0  0  0
   -1.4362  -11.1905   -0.0000 N   0  0  0  0  0  0  0  0  0  0  0  0
    1.3165  -10.8793   -0.0000 N   0  0  0  0  0  0  0  0  0  0  0  0
    2.1902   -9.6586   -0.0000 C   0  0  0  0  0  0  0  0  0  0  0  0
  1  2  2  0  0  0  0
  2  3  1  0  0  0  0
  2  4  1  0  0  0  0
  3  5  1  0  0  0  0
  4  6  1  0  0  0  0
  5  7  2  0  0  0  0
  5  8  1  0  0  0  0
  6  9  2  0  0  0  0
  6 10  1  0  0  0  0
  7 11  1  0  0  0  0
  8 12  2  0  0  0  0
  9 13  1  0  0  0  0
 10 14  2  0  0  0  0
 11 15  1  0  0  0  0
 11 16  2  0  0  0  0
 13 17  2  0  0  0  0
 15 18  2  0  0  0  0
 15 19  1  0  0  0  0
 17 20  1  0  0  0  0
 19 21  1  0  0  0  0
 20 22  2  0  0  0  0
 20 23  1  0  0  0  0
 21 24  1  0  0  0  0
 21 25  1  0  0  0  0
 22 26  1  0  0  0  0
 23 27  2  0  0  0  0
 23 28  1  0  0  0  0
 26 29  2  0  0  0  0
 27 30  1  0  0  0  0
 28 31  2  0  0  0  0
 12 16  1  0  0  0  0
 14 17  1  0  0  0  0
 27 29  1  0  0  0  0
 30 31  1  0  0  0  0
M  END
>  <MolRegNo>
1280330

>  <m>
=

>  <Value>
560

>  <Unit>
nM

>  <Type>
IC50

>  <pValue>
6.25

>  <Ligand Efficiency>
0

>  <Binding Efficiency>
0

>  <Surface Efficiency>
0

>  <Assay Index>
637122

>  <Assay Category>


>  <Assay Organism>
Homo sapiens

>  <Target ID>
17045

>  <Target Name>
Cytochrome P450 3A4

>  <Target Organism>
Homo sapiens

>  <Target Description>
Target is a single protein chain

>  <Sequence Accession>
P08684

>  <Reference>
Bioorg Med Chem Lett 22 (4), 1611-1614 (2012)

>  <Pubmed ID>
22264486

>  <DOI>
10.1016/j.bmcl.2011.12.125

$$$$
1280331
Actelion Java MolfileCreator 1.0

 32 35  0  0  0  0  0  0  0  0999 V2000
    0.0000   -0.0000   -0.0000 O   0  0  0  0  0  0  0  0  0  0  0  0
   -0.0120   -1.4961   -0.0000 C   0  0  0  0  0  0  0  0  0  0  0  0
    1.2807   -2.2382   -0.0000 N   0  0  0  0  0  0  0  0  0  0  0  0
   -1.3285   -2.2382   -0.0000 N   0  0  0  0  0  0  0  0  0  0  0  0
    2.5733   -1.4722   -0.0000 C   0  0  0  0  0  0  0  0  0  0  0  0
   -1.3405   -3.7342   -0.0000 C   0  0  0  0  0  0  0  0  0  0  0  0
    3.8659   -2.2142   -0.0000 C   0  0  0  0  0  0  0  0  0  0  0  0
    2.5493    0.0479   -0.0000 C   0  0  0  0  0  0  0  0  0  0  0  0
   -2.6571   -4.4763   -0.0000 C   0  0  0  0  0  0  0  0  0  0  0  0
   -0.0479   -4.4763   -0.0000 C   0  0  0  0  0  0  0  0  0  0  0  0
    5.1585   -1.4482   -0.0000 C   0  0  0  0  0  0  0  0  0  0  0  0
    3.8420    0.8258   -0.0000 C   0  0  0  0  0  0  0  0  0  0  0  0
   -2.6690   -5.9724   -0.0000 C   0  0  0  0  0  0  0  0  0  0  0  0
   -0.0598   -5.9844   -0.0000 C   0  0  0  0  0  0  0  0  0  0  0  0
    6.4512   -2.1903   -0.0000 C   0  0  0  0  0  0  0  0  0  0  0  0
    5.1466    0.0718   -0.0000 C   0  0  0  0  0  0  0  0  0  0  0  0
   -1.3764   -6.7145   -0.0000 C   0  0  0  0  0  0  0  0  0  0  0  0
    6.4392   -3.6864   -0.0000 O   0  0  0  0  0  0  0  0  0  0  0  0
    7.7438   -1.4243   -0.0000 N   0  0  0  0  0  0  0  0  0  0  0  0
   -1.3884   -8.2106   -0.0000 C   0  0  0  0  0  0  0  0  0  0  0  0
    9.0364   -2.1663   -0.0000 C   0  0  0  0  0  0  0  0  0  0  0  0
   -2.7169   -8.9526   -0.0000 N   0  0  0  0  0  0  0  0  0  0  0  0
   -0.0957   -8.9526   -0.0000 C   0  0  0  0  0  0  0  0  0  0  0  0
   10.3290   -1.4003   -0.0000 C   0  0  0  0  0  0  0  0  0  0  0  0
    9.0244   -3.6624   -0.0000 C   0  0  0  0  0  0  0  0  0  0  0  0
   -2.7289  -10.4487   -0.0000 C   0  0  0  0  0  0  0  0  0  0  0  0
   -0.0957  -10.4367   -0.0000 C   0  0  0  0  0  0  0  0  0  0  0  0
    1.3166   -8.4619   -0.0000 C   0  0  0  0  0  0  0  0  0  0  0  0
   -1.4362  -11.1908   -0.0000 N   0  0  0  0  0  0  0  0  0  0  0  0
    1.3166  -10.8796   -0.0000 N   0  0  0  0  0  0  0  0  0  0  0  0
    2.1903   -9.6588   -0.0000 C   0  0  0  0  0  0  0  0  0  0  0  0
    1.7833  -12.3039   -0.0000 C   0  0  0  0  0  0  0  0  0  0  0  0
  1  2  2  0  0  0  0
  2  3  1  0  0  0  0
  2  4  1  0  0  0  0
  3  5  1  0  0  0  0
  4  6  1  0  0  0  0
  5  7  2  0  0  0  0
  5  8  1  0  0  0  0
  6  9  2  0  0  0  0
  6 10  1  0  0  0  0
  7 11  1  0  0  0  0
  8 12  2  0  0  0  0
  9 13  1  0  0  0  0
 10 14  2  0  0  0  0
 11 15  1  0  0  0  0
 11 16  2  0  0  0  0
 13 17  2  0  0  0  0
 15 18  2  0  0  0  0
 15 19  1  0  0  0  0
 17 20  1  0  0  0  0
 19 21  1  0  0  0  0
 20 22  2  0  0  0  0
 20 23  1  0  0  0  0
 21 24  1  0  0  0  0
 21 25  1  0  0  0  0
 22 26  1  0  0  0  0
 23 27  2  0  0  0  0
 23 28  1  0  0  0  0
 26 29  2  0  0  0  0
 27 30  1  0  0  0  0
 28 31  2  0  0  0  0
 30 32  1  0  0  0  0
 12 16  1  0  0  0  0
 14 17  1  0  0  0  0
 27 29  1  0  0  0  0
 30 31  1  0  0  0  0
M  END
>  <MolRegNo>
1280331

>  <m>
=

>  <Value>
2900

>  <Unit>
nM

>  <Type>
IC50

>  <pValue>
5.54

>  <Ligand Efficiency>
0

>  <Binding Efficiency>
0

>  <Surface Efficiency>
0

>  <Assay Index>
637122

>  <Assay Category>


>  <Assay Organism>
Homo sapiens

>  <Target ID>
17045

>  <Target Name>
Cytochrome P450 3A4

>  <Target Organism>
Homo sapiens

>  <Target Description>
Target is a single protein chain

>  <Sequence Accession>
P08684

>  <Reference>
Bioorg Med Chem Lett 22 (4), 1611-1614 (2012)

>  <Pubmed ID>
22264486

>  <DOI>
10.1016/j.bmcl.2011.12.125

$$$$
1280332
Actelion Java MolfileCreator 1.0

 32 35  0  0  0  0  0  0  0  0999 V2000
    0.0000   -0.0000   -0.0000 O   0  0  0  0  0  0  0  0  0  0  0  0
   -0.0120   -1.4946   -0.0000 C   0  0  0  0  0  0  0  0  0  0  0  0
    1.2793   -2.2358   -0.0000 N   0  0  0  0  0  0  0  0  0  0  0  0
   -1.3272   -2.2358   -0.0000 N   0  0  0  0  0  0  0  0  0  0  0  0
    2.5706   -1.4706   -0.0000 C   0  0  0  0  0  0  0  0  0  0  0  0
   -1.3391   -3.7304   -0.0000 C   0  0  0  0  0  0  0  0  0  0  0  0
    3.8619   -2.2119   -0.0000 C   0  0  0  0  0  0  0  0  0  0  0  0
    2.5467    0.0478   -0.0000 C   0  0  0  0  0  0  0  0  0  0  0  0
   -2.6663   -4.4717   -0.0000 C   0  0  0  0  0  0  0  0  0  0  0  0
   -0.0478   -4.4717   -0.0000 C   0  0  0  0  0  0  0  0  0  0  0  0
    5.1532   -1.4467   -0.0000 C   0  0  0  0  0  0  0  0  0  0  0  0
    3.8380    0.8250   -0.0000 C   0  0  0  0  0  0  0  0  0  0  0  0
   -2.6782   -5.9782   -0.0000 C   0  0  0  0  0  0  0  0  0  0  0  0
   -0.0598   -5.9782   -0.0000 C   0  0  0  0  0  0  0  0  0  0  0  0
    6.4445   -2.1880   -0.0000 C   0  0  0  0  0  0  0  0  0  0  0  0
    5.1413    0.0717   -0.0000 C   0  0  0  0  0  0  0  0  0  0  0  0
   -1.3750   -6.7195   -0.0000 C   0  0  0  0  0  0  0  0  0  0  0  0
    6.4325   -3.6826   -0.0000 O   0  0  0  0  0  0  0  0  0  0  0  0
    7.7358   -1.4228   -0.0000 N   0  0  0  0  0  0  0  0  0  0  0  0
   -1.3869   -8.2140   -0.0000 C   0  0  0  0  0  0  0  0  0  0  0  0
    9.0271   -2.1641   -0.0000 C   0  0  0  0  0  0  0  0  0  0  0  0
   -2.7141   -8.9553   -0.0000 N   0  0  0  0  0  0  0  0  0  0  0  0
   -0.0957   -8.9553   -0.0000 C   0  0  0  0  0  0  0  0  0  0  0  0
   10.3184   -1.3989   -0.0000 C   0  0  0  0  0  0  0  0  0  0  0  0
    9.0151   -3.6587   -0.0000 C   0  0  0  0  0  0  0  0  0  0  0  0
   -2.7261  -10.4499   -0.0000 C   0  0  0  0  0  0  0  0  0  0  0  0
   -0.0957  -10.4379   -0.0000 C   0  0  0  0  0  0  0  0  0  0  0  0
    1.3152   -8.4651   -0.0000 C   0  0  0  0  0  0  0  0  0  0  0  0
   -1.4228  -11.1912   -0.0000 N   0  0  0  0  0  0  0  0  0  0  0  0
    1.3152  -10.8803   -0.0000 N   0  0  0  0  0  0  0  0  0  0  0  0
    2.1880   -9.6608   -0.0000 C   0  0  0  0  0  0  0  0  0  0  0  0
    1.7576   -7.0184   -0.0000 C   0  0  0  0  0  0  0  0  0  0  0  0
  1  2  2  0  0  0  0
  2  3  1  0  0  0  0
  2  4  1  0  0  0  0
  3  5  1  0  0  0  0
  4  6  1  0  0  0  0
  5  7  2  0  0  0  0
  5  8  1  0  0  0  0
  6  9  2  0  0  0  0
  6 10  1  0  0  0  0
  7 11  1  0  0  0  0
  8 12  2  0  0  0  0
  9 13  1  0  0  0  0
 10 14  2  0  0  0  0
 11 15  1  0  0  0  0
 11 16  2  0  0  0  0
 13 17  2  0  0  0  0
 15 18  2  0  0  0  0
 15 19  1  0  0  0  0
 17 20  1  0  0  0  0
 19 21  1  0  0  0  0
 20 22  2  0  0  0  0
 20 23  1  0  0  0  0
 21 24  1  0  0  0  0
 21 25  1  0  0  0  0
 22 26  1  0  0  0  0
 23 27  2  0  0  0  0
 23 28  1  0  0  0  0
 26 29  2  0  0  0  0
 27 30  1  0  0  0  0
 28 31  2  0  0  0  0
 28 32  1  0  0  0  0
 12 16  1  0  0  0  0
 14 17  1  0  0  0  0
 27 29  1  0  0  0  0
 30 31  1  0  0  0  0
M  END
>  <MolRegNo>
1280332

>  <m>
=

>  <Value>
22000

>  <Unit>
nM

>  <Type>
IC50

>  <pValue>
4.66

>  <Ligand Efficiency>
0

>  <Binding Efficiency>
0

>  <Surface Efficiency>
0

>  <Assay Index>
637122

>  <Assay Category>


>  <Assay Organism>
Homo sapiens

>  <Target ID>
17045

>  <Target Name>
Cytochrome P450 3A4

>  <Target Organism>
Homo sapiens

>  <Target Description>
Target is a single protein chain

>  <Sequence Accession>
P08684

>  <Reference>
Bioorg Med Chem Lett 22 (4), 1611-1614 (2012)

>  <Pubmed ID>
22264486

>  <DOI>
10.1016/j.bmcl.2011.12.125

$$$$
1280333
Actelion Java MolfileCreator 1.0

 33 36  0  0  0  0  0  0  0  0999 V2000
    0.0000   -0.0000   -0.0000 O   0  0  0  0  0  0  0  0  0  0  0  0
   -0.0120   -1.4957   -0.0000 C   0  0  0  0  0  0  0  0  0  0  0  0
    1.2803   -2.2376   -0.0000 N   0  0  0  0  0  0  0  0  0  0  0  0
   -1.3282   -2.2376   -0.0000 N   0  0  0  0  0  0  0  0  0  0  0  0
    2.5726   -1.4718   -0.0000 C   0  0  0  0  0  0  0  0  0  0  0  0
   -1.3402   -3.7333   -0.0000 C   0  0  0  0  0  0  0  0  0  0  0  0
    3.8649   -2.2137   -0.0000 C   0  0  0  0  0  0  0  0  0  0  0  0
    2.5487    0.0479   -0.0000 C   0  0  0  0  0  0  0  0  0  0  0  0
   -2.6564   -4.4752   -0.0000 C   0  0  0  0  0  0  0  0  0  0  0  0
   -0.0479   -4.4752   -0.0000 C   0  0  0  0  0  0  0  0  0  0  0  0
    5.1572   -1.4478   -0.0000 C   0  0  0  0  0  0  0  0  0  0  0  0
    3.8410    0.8256   -0.0000 C   0  0  0  0  0  0  0  0  0  0  0  0
   -2.6684   -5.9709   -0.0000 C   0  0  0  0  0  0  0  0  0  0  0  0
   -0.0598   -5.9829   -0.0000 C   0  0  0  0  0  0  0  0  0  0  0  0
    6.4495   -2.1897   -0.0000 C   0  0  0  0  0  0  0  0  0  0  0  0
    5.1453    0.0718   -0.0000 C   0  0  0  0  0  0  0  0  0  0  0  0
   -1.3761   -6.7128   -0.0000 C   0  0  0  0  0  0  0  0  0  0  0  0
    6.4375   -3.6854   -0.0000 O   0  0  0  0  0  0  0  0  0  0  0  0
    7.7418   -1.4239   -0.0000 N   0  0  0  0  0  0  0  0  0  0  0  0
   -1.3880   -8.2085   -0.0000 C   0  0  0  0  0  0  0  0  0  0  0  0
    9.0341   -2.1658   -0.0000 C   0  0  0  0  0  0  0  0  0  0  0  0
   -2.7162   -8.9503   -0.0000 N   0  0  0  0  0  0  0  0  0  0  0  0
   -0.0957   -8.9503   -0.0000 C   0  0  0  0  0  0  0  0  0  0  0  0
   10.3264   -1.4000   -0.0000 C   0  0  0  0  0  0  0  0  0  0  0  0
    9.0221   -3.6615   -0.0000 C   0  0  0  0  0  0  0  0  0  0  0  0
   -2.7282  -10.4461   -0.0000 C   0  0  0  0  0  0  0  0  0  0  0  0
   -0.0957  -10.4341   -0.0000 C   0  0  0  0  0  0  0  0  0  0  0  0
    1.3162   -8.4598   -0.0000 C   0  0  0  0  0  0  0  0  0  0  0  0
   -1.4359  -11.1879   -0.0000 N   0  0  0  0  0  0  0  0  0  0  0  0
    1.3162  -10.8768   -0.0000 N   0  0  0  0  0  0  0  0  0  0  0  0
    2.1897   -9.6563   -0.0000 C   0  0  0  0  0  0  0  0  0  0  0  0
    1.7590   -7.0119   -0.0000 C   0  0  0  0  0  0  0  0  0  0  0  0
    3.2188   -6.6769   -0.0000 C   0  0  0  0  0  0  0  0  0  0  0  0
  1  2  2  0  0  0  0
  2  3  1  0  0  0  0
  2  4  1  0  0  0  0
  3  5  1  0  0  0  0
  4  6  1  0  0  0  0
  5  7  2  0  0  0  0
  5  8  1  0  0  0  0
  6  9  2  0  0  0  0
  6 10  1  0  0  0  0
  7 11  1  0  0  0  0
  8 12  2  0  0  0  0
  9 13  1  0  0  0  0
 10 14  2  0  0  0  0
 11 15  1  0  0  0  0
 11 16  2  0  0  0  0
 13 17  2  0  0  0  0
 15 18  2  0  0  0  0
 15 19  1  0  0  0  0
 17 20  1  0  0  0  0
 19 21  1  0  0  0  0
 20 22  2  0  0  0  0
 20 23  1  0  0  0  0
 21 24  1  0  0  0  0
 21 25  1  0  0  0  0
 22 26  1  0  0  0  0
 23 27  2  0  0  0  0
 23 28  1  0  0  0  0
 26 29  2  0  0  0  0
 27 30  1  0  0  0  0
 28 31  2  0  0  0  0
 28 32  1  0  0  0  0
 32 33  1  0  0  0  0
 12 16  1  0  0  0  0
 14 17  1  0  0  0  0
 27 29  1  0  0  0  0
 30 31  1  0  0  0  0
M  END
>  <MolRegNo>
1280333

>  <m>
=

>  <Value>
4600

>  <Unit>
nM

>  <Type>
IC50

>  <pValue>
5.34

>  <Ligand Efficiency>
0

>  <Binding Efficiency>
0

>  <Surface Efficiency>
0

>  <Assay Index>
637122

>  <Assay Category>


>  <Assay Organism>
Homo sapiens

>  <Target ID>
17045

>  <Target Name>
Cytochrome P450 3A4

>  <Target Organism>
Homo sapiens

>  <Target Description>
Target is a single protein chain

>  <Sequence Accession>
P08684

>  <Reference>
Bioorg Med Chem Lett 22 (4), 1611-1614 (2012)

>  <Pubmed ID>
22264486

>  <DOI>
10.1016/j.bmcl.2011.12.125

$$$$
1280334
Actelion Java MolfileCreator 1.0

 32 35  0  0  0  0  0  0  0  0999 V2000
    0.0000   -0.0000   -0.0000 Cl  0  0  0  0  0  0  0  0  0  0  0  0
   -0.4644   -1.4170   -0.0000 C   0  0  0  0  0  0  0  0  0  0  0  0
   -1.8933   -1.8814   -0.0000 C   0  0  0  0  0  0  0  0  0  0  0  0
    0.4049   -2.6078   -0.0000 C   0  0  0  0  0  0  0  0  0  0  0  0
   -3.2032   -1.1193   -0.0000 C   0  0  0  0  0  0  0  0  0  0  0  0
   -1.8933   -3.3580   -0.0000 C   0  0  0  0  0  0  0  0  0  0  0  0
   -0.4763   -3.8105   -0.0000 N   0  0  0  0  0  0  0  0  0  0  0  0
   -4.5130   -1.8576   -0.0000 N   0  0  0  0  0  0  0  0  0  0  0  0
   -3.2151    0.3930   -0.0000 C   0  0  0  0  0  0  0  0  0  0  0  0
   -3.2151   -4.1081   -0.0000 N   0  0  0  0  0  0  0  0  0  0  0  0
   -4.5249   -3.3461   -0.0000 C   0  0  0  0  0  0  0  0  0  0  0  0
   -4.5249    1.1550   -0.0000 C   0  0  0  0  0  0  0  0  0  0  0  0
   -1.9171    1.1550   -0.0000 C   0  0  0  0  0  0  0  0  0  0  0  0
   -4.5368    2.6792   -0.0000 C   0  0  0  0  0  0  0  0  0  0  0  0
   -1.9290    2.6792   -0.0000 C   0  0  0  0  0  0  0  0  0  0  0  0
   -3.2508    3.4413   -0.0000 C   0  0  0  0  0  0  0  0  0  0  0  0
   -3.2627    4.9536   -0.0000 N   0  0  0  0  0  0  0  0  0  0  0  0
   -1.9767    5.7157   -0.0000 C   0  0  0  0  0  0  0  0  0  0  0  0
   -1.9886    7.2280   -0.0000 O   0  0  0  0  0  0  0  0  0  0  0  0
   -0.6906    4.9774   -0.0000 N   0  0  0  0  0  0  0  0  0  0  0  0
    0.5954    5.7395   -0.0000 C   0  0  0  0  0  0  0  0  0  0  0  0
    1.8814    5.0012   -0.0000 C   0  0  0  0  0  0  0  0  0  0  0  0
    0.5716    7.2518   -0.0000 C   0  0  0  0  0  0  0  0  0  0  0  0
    3.1674    5.7633   -0.0000 C   0  0  0  0  0  0  0  0  0  0  0  0
    1.8576    8.0258   -0.0000 C   0  0  0  0  0  0  0  0  0  0  0  0
    4.4535    5.0250   -0.0000 C   0  0  0  0  0  0  0  0  0  0  0  0
    3.1555    7.2756   -0.0000 C   0  0  0  0  0  0  0  0  0  0  0  0
    4.4416    3.5366   -0.0000 O   0  0  0  0  0  0  0  0  0  0  0  0
    5.7395    5.7871   -0.0000 N   0  0  0  0  0  0  0  0  0  0  0  0
    7.0255    5.0489   -0.0000 C   0  0  0  0  0  0  0  0  0  0  0  0
    8.3116    5.8109   -0.0000 C   0  0  0  0  0  0  0  0  0  0  0  0
    7.0136    3.5604   -0.0000 C   0  0  0  0  0  0  0  0  0  0  0  0
  1  2  1  0  0  0  0
  2  3  1  0  0  0  0
  2  4  2  0  0  0  0
  3  5  2  0  0  0  0
  3  6  1  0  0  0  0
  4  7  1  0  0  0  0
  5  8  1  0  0  0  0
  5  9  1  0  0  0  0
  6 10  2  0  0  0  0
  8 11  2  0  0  0  0
  9 12  2  0  0  0  0
  9 13  1  0  0  0  0
 12 14  1  0  0  0  0
 13 15  2  0  0  0  0
 14 16  2  0  0  0  0
 16 17  1  0  0  0  0
 17 18  1  0  0  0  0
 18 19  2  0  0  0  0
 18 20  1  0  0  0  0
 20 21  1  0  0  0  0
 21 22  2  0  0  0  0
 21 23  1  0  0  0  0
 22 24  1  0  0  0  0
 23 25  2  0  0  0  0
 24 26  1  0  0  0  0
 24 27  2  0  0  0  0
 26 28  2  0  0  0  0
 26 29  1  0  0  0  0
 29 30  1  0  0  0  0
 30 31  1  0  0  0  0
 30 32  1  0  0  0  0
  6  7  1  0  0  0  0
 10 11  1  0  0  0  0
 15 16  1  0  0  0  0
 25 27  1  0  0  0  0
M  END
>  <MolRegNo>
1280334

>  <m>
=

>  <Value>
14000

>  <Unit>
nM

>  <Type>
IC50

>  <pValue>
4.85

>  <Ligand Efficiency>
0

>  <Binding Efficiency>
0

>  <Surface Efficiency>
0

>  <Assay Index>
637122

>  <Assay Category>


>  <Assay Organism>
Homo sapiens

>  <Target ID>
17045

>  <Target Name>
Cytochrome P450 3A4

>  <Target Organism>
Homo sapiens

>  <Target Description>
Target is a single protein chain

>  <Sequence Accession>
P08684

>  <Reference>
Bioorg Med Chem Lett 22 (4), 1611-1614 (2012)

>  <Pubmed ID>
22264486

>  <DOI>
10.1016/j.bmcl.2011.12.125

$$$$
1280336
Actelion Java MolfileCreator 1.0

 34 37  0  0  0  0  0  0  0  0999 V2000
    0.0000   -0.0000   -0.0000 O   0  0  0  0  0  0  0  0  0  0  0  0
   -1.5095   -0.0000   -0.0000 C   0  0  0  0  0  0  0  0  0  0  0  0
   -2.4010    1.2124   -0.0000 N   0  0  0  0  0  0  0  0  0  0  0  0
   -2.3891   -1.2005   -0.0000 N   0  0  0  0  0  0  0  0  0  0  0  0
   -3.8273    0.7488   -0.0000 C   0  0  0  0  0  0  0  0  0  0  0  0
   -1.9612    2.6506   -0.0000 C   0  0  0  0  0  0  0  0  0  0  0  0
   -3.8154   -0.7369   -0.0000 C   0  0  0  0  0  0  0  0  0  0  0  0
   -5.1348    1.5095   -0.0000 C   0  0  0  0  0  0  0  0  0  0  0  0
   -0.5111    2.9834   -0.0000 C   0  0  0  0  0  0  0  0  0  0  0  0
   -5.1348   -1.4858   -0.0000 N   0  0  0  0  0  0  0  0  0  0  0  0
   -6.4541    0.7726   -0.0000 N   0  0  0  0  0  0  0  0  0  0  0  0
   -5.1467    3.0191   -0.0000 C   0  0  0  0  0  0  0  0  0  0  0  0
   -6.4423   -0.7251   -0.0000 C   0  0  0  0  0  0  0  0  0  0  0  0
   -6.4541    3.7798   -0.0000 C   0  0  0  0  0  0  0  0  0  0  0  0
   -3.8511    3.7798   -0.0000 C   0  0  0  0  0  0  0  0  0  0  0  0
   -6.4660    5.3012   -0.0000 C   0  0  0  0  0  0  0  0  0  0  0  0
   -3.8630    5.3012   -0.0000 C   0  0  0  0  0  0  0  0  0  0  0  0
   -5.1823    6.0619   -0.0000 C   0  0  0  0  0  0  0  0  0  0  0  0
   -5.1942    7.5714   -0.0000 N   0  0  0  0  0  0  0  0  0  0  0  0
   -3.9105    8.3321   -0.0000 C   0  0  0  0  0  0  0  0  0  0  0  0
   -3.9224    9.8417   -0.0000 O   0  0  0  0  0  0  0  0  0  0  0  0
   -2.6268    7.5952   -0.0000 N   0  0  0  0  0  0  0  0  0  0  0  0
   -1.3431    8.3559   -0.0000 C   0  0  0  0  0  0  0  0  0  0  0  0
   -0.0594    7.6190   -0.0000 C   0  0  0  0  0  0  0  0  0  0  0  0
   -1.3669    9.8654   -0.0000 C   0  0  0  0  0  0  0  0  0  0  0  0
    1.2243    8.3797   -0.0000 C   0  0  0  0  0  0  0  0  0  0  0  0
   -0.0832   10.6380   -0.0000 C   0  0  0  0  0  0  0  0  0  0  0  0
    2.5080    7.6427   -0.0000 C   0  0  0  0  0  0  0  0  0  0  0  0
    1.2124    9.8892   -0.0000 C   0  0  0  0  0  0  0  0  0  0  0  0
    2.4961    6.1570   -0.0000 O   0  0  0  0  0  0  0  0  0  0  0  0
    3.7917    8.4035   -0.0000 N   0  0  0  0  0  0  0  0  0  0  0  0
    5.0754    7.6665   -0.0000 C   0  0  0  0  0  0  0  0  0  0  0  0
    6.3591    8.4272   -0.0000 C   0  0  0  0  0  0  0  0  0  0  0  0
    5.0635    6.1808   -0.0000 C   0  0  0  0  0  0  0  0  0  0  0  0
  1  2  2  0  0  0  0
  2  3  1  0  0  0  0
  2  4  1  0  0  0  0
  3  5  1  0  0  0  0
  3  6  1  0  0  0  0
  4  7  1  0  0  0  0
  5  8  1  0  0  0  0
  6  9  1  0  0  0  0
  7 10  1  0  0  0  0
  8 11  2  0  0  0  0
  8 12  1  0  0  0  0
 10 13  2  0  0  0  0
 12 14  2  0  0  0  0
 12 15  1  0  0  0  0
 14 16  1  0  0  0  0
 15 17  2  0  0  0  0
 16 18  2  0  0  0  0
 18 19  1  0  0  0  0
 19 20  1  0  0  0  0
 20 21  2  0  0  0  0
 20 22  1  0  0  0  0
 22 23  1  0  0  0  0
 23 24  2  0  0  0  0
 23 25  1  0  0  0  0
 24 26  1  0  0  0  0
 25 27  2  0  0  0  0
 26 28  1  0  0  0  0
 26 29  2  0  0  0  0
 28 30  2  0  0  0  0
 28 31  1  0  0  0  0
 31 32  1  0  0  0  0
 32 33  1  0  0  0  0
 32 34  1  0  0  0  0
  5  7  2  0  0  0  0
 11 13  1  0  0  0  0
 17 18  1  0  0  0  0
 27 29  1  0  0  0  0
M  END
>  <MolRegNo>
1280336

>  <m>
=

>  <Value>
26000

>  <Unit>
nM

>  <Type>
IC50

>  <pValue>
4.58

>  <Ligand Efficiency>
0

>  <Binding Efficiency>
0

>  <Surface Efficiency>
0

>  <Assay Index>
637122

>  <Assay Category>


>  <Assay Organism>
Homo sapiens

>  <Target ID>
17045

>  <Target Name>
Cytochrome P450 3A4

>  <Target Organism>
Homo sapiens

>  <Target Description>
Target is a single protein chain

>  <Sequence Accession>
P08684

>  <Reference>
Bioorg Med Chem Lett 22 (4), 1611-1614 (2012)

>  <Pubmed ID>
22264486

>  <DOI>
10.1016/j.bmcl.2011.12.125

$$$$
1280430
Actelion Java MolfileCreator 1.0

 28 30  0  0  0  0  0  0  0  0999 V2000
    0.0000   -0.0000   -0.0000 O   0  0  0  0  0  0  0  0  0  0  0  0
   -0.0120   -1.4947   -0.0000 C   0  0  0  0  0  0  0  0  0  0  0  0
    1.2794   -2.2360   -0.0000 N   0  0  0  0  0  0  0  0  0  0  0  0
   -1.3273   -2.2360   -0.0000 N   0  0  0  0  0  0  0  0  0  0  0  0
    2.5708   -1.4708   -0.0000 C   0  0  0  0  0  0  0  0  0  0  0  0
   -1.3392   -3.7307   -0.0000 C   0  0  0  0  0  0  0  0  0  0  0  0
    3.8622   -2.2121   -0.0000 C   0  0  0  0  0  0  0  0  0  0  0  0
    2.5469    0.0478   -0.0000 C   0  0  0  0  0  0  0  0  0  0  0  0
   -2.6545   -4.4721   -0.0000 C   0  0  0  0  0  0  0  0  0  0  0  0
   -0.0478   -4.4721   -0.0000 C   0  0  0  0  0  0  0  0  0  0  0  0
    5.1536   -1.4468   -0.0000 C   0  0  0  0  0  0  0  0  0  0  0  0
    3.8383    0.8251   -0.0000 C   0  0  0  0  0  0  0  0  0  0  0  0
   -2.6665   -5.9667   -0.0000 C   0  0  0  0  0  0  0  0  0  0  0  0
   -0.0598   -5.9787   -0.0000 C   0  0  0  0  0  0  0  0  0  0  0  0
    6.4450   -2.1882   -0.0000 C   0  0  0  0  0  0  0  0  0  0  0  0
    5.1417    0.0717   -0.0000 C   0  0  0  0  0  0  0  0  0  0  0  0
   -1.3751   -6.7081   -0.0000 C   0  0  0  0  0  0  0  0  0  0  0  0
    6.4331   -3.6829   -0.0000 O   0  0  0  0  0  0  0  0  0  0  0  0
    7.7364   -1.4229   -0.0000 N   0  0  0  0  0  0  0  0  0  0  0  0
   -1.3871   -8.2028   -0.0000 C   0  0  0  0  0  0  0  0  0  0  0  0
    9.0278   -2.1643   -0.0000 C   0  0  0  0  0  0  0  0  0  0  0  0
   -2.7143   -8.9441   -0.0000 C   0  0  0  0  0  0  0  0  0  0  0  0
   -0.0957   -8.9441   -0.0000 C   0  0  0  0  0  0  0  0  0  0  0  0
   10.3192   -1.3990   -0.0000 C   0  0  0  0  0  0  0  0  0  0  0  0
    9.0159   -3.6590   -0.0000 C   0  0  0  0  0  0  0  0  0  0  0  0
   -2.7263  -10.4388   -0.0000 C   0  0  0  0  0  0  0  0  0  0  0  0
   -0.0957  -10.4268   -0.0000 C   0  0  0  0  0  0  0  0  0  0  0  0
   -1.4349  -11.1801   -0.0000 N   0  0  0  0  0  0  0  0  0  0  0  0
  1  2  2  0  0  0  0
  2  3  1  0  0  0  0
  2  4  1  0  0  0  0
  3  5  1  0  0  0  0
  4  6  1  0  0  0  0
  5  7  2  0  0  0  0
  5  8  1  0  0  0  0
  6  9  2  0  0  0  0
  6 10  1  0  0  0  0
  7 11  1  0  0  0  0
  8 12  2  0  0  0  0
  9 13  1  0  0  0  0
 10 14  2  0  0  0  0
 11 15  1  0  0  0  0
 11 16  2  0  0  0  0
 13 17  2  0  0  0  0
 15 18  2  0  0  0  0
 15 19  1  0  0  0  0
 17 20  1  0  0  0  0
 19 21  1  0  0  0  0
 20 22  2  0  0  0  0
 20 23  1  0  0  0  0
 21 24  1  0  0  0  0
 21 25  1  0  0  0  0
 22 26  1  0  0  0  0
 23 27  2  0  0  0  0
 26 28  2  0  0  0  0
 12 16  1  0  0  0  0
 14 17  1  0  0  0  0
 27 28  1  0  0  0  0
M  END
>  <MolRegNo>
1280430

>  <m>
=

>  <Value>
130

>  <Unit>
nM

>  <Type>
IC50

>  <pValue>
6.89

>  <Ligand Efficiency>
0

>  <Binding Efficiency>
0

>  <Surface Efficiency>
0

>  <Assay Index>
637122

>  <Assay Category>


>  <Assay Organism>
Homo sapiens

>  <Target ID>
17045

>  <Target Name>
Cytochrome P450 3A4

>  <Target Organism>
Homo sapiens

>  <Target Description>
Target is a single protein chain

>  <Sequence Accession>
P08684

>  <Reference>
Bioorg Med Chem Lett 22 (4), 1611-1614 (2012)

>  <Pubmed ID>
22264486

>  <DOI>
10.1016/j.bmcl.2011.12.125

$$$$
1280431
Actelion Java MolfileCreator 1.0

 33 37  0  0  0  0  0  0  0  0999 V2000
    0.0000   -0.0000   -0.0000 O   0  0  0  0  0  0  0  0  0  0  0  0
   -0.0119   -1.4928   -0.0000 C   0  0  0  0  0  0  0  0  0  0  0  0
   -1.3256   -2.2332   -0.0000 N   0  0  0  0  0  0  0  0  0  0  0  0
    1.2778   -2.2332   -0.0000 N   0  0  0  0  0  0  0  0  0  0  0  0
   -1.3375   -3.7259   -0.0000 C   0  0  0  0  0  0  0  0  0  0  0  0
    2.5675   -1.4689   -0.0000 C   0  0  0  0  0  0  0  0  0  0  0  0
   -2.6511   -4.4663   -0.0000 C   0  0  0  0  0  0  0  0  0  0  0  0
   -0.0478   -4.4663   -0.0000 C   0  0  0  0  0  0  0  0  0  0  0  0
    3.8573   -2.2093   -0.0000 C   0  0  0  0  0  0  0  0  0  0  0  0
    2.5437    0.0478   -0.0000 C   0  0  0  0  0  0  0  0  0  0  0  0
   -2.6631   -5.9710   -0.0000 C   0  0  0  0  0  0  0  0  0  0  0  0
   -0.0597   -5.9710   -0.0000 C   0  0  0  0  0  0  0  0  0  0  0  0
    5.1470   -1.4450   -0.0000 C   0  0  0  0  0  0  0  0  0  0  0  0
    3.8334    0.8240   -0.0000 C   0  0  0  0  0  0  0  0  0  0  0  0
   -1.3733   -6.7114   -0.0000 C   0  0  0  0  0  0  0  0  0  0  0  0
    5.1351    0.0717   -0.0000 C   0  0  0  0  0  0  0  0  0  0  0  0
   -1.3853   -8.2042   -0.0000 C   0  0  0  0  0  0  0  0  0  0  0  0
    6.4248    0.8359   -0.0000 C   0  0  0  0  0  0  0  0  0  0  0  0
   -0.0955   -8.9446   -0.0000 C   0  0  0  0  0  0  0  0  0  0  0  0
   -2.7108   -8.9446   -0.0000 C   0  0  0  0  0  0  0  0  0  0  0  0
    7.7265    0.0955   -0.0000 C   0  0  0  0  0  0  0  0  0  0  0  0
    6.4009    2.3526   -0.0000 C   0  0  0  0  0  0  0  0  0  0  0  0
    1.3136   -8.4550   -0.0000 N   0  0  0  0  0  0  0  0  0  0  0  0
   -0.0955  -10.4254   -0.0000 C   0  0  0  0  0  0  0  0  0  0  0  0
   -2.7228  -10.4373   -0.0000 C   0  0  0  0  0  0  0  0  0  0  0  0
    9.0162    0.8598   -0.0000 C   0  0  0  0  0  0  0  0  0  0  0  0
    7.6787    3.1288   -0.0000 C   0  0  0  0  0  0  0  0  0  0  0  0
    2.1854   -9.6492   -0.0000 C   0  0  0  0  0  0  0  0  0  0  0  0
   -1.4211  -11.1777   -0.0000 N   0  0  0  0  0  0  0  0  0  0  0  0
    1.3136  -10.8673   -0.0000 N   0  0  0  0  0  0  0  0  0  0  0  0
    9.0043    2.3765   -0.0000 C   0  0  0  0  0  0  0  0  0  0  0  0
   10.2940    3.1408   -0.0000 C   0  0  0  0  0  0  0  0  0  0  0  0
   11.5838    3.9170   -0.0000 N   0  0  0  0  0  0  0  0  0  0  0  0
  1  2  2  0  0  0  0
  2  3  1  0  0  0  0
  2  4  1  0  0  0  0
  3  5  1  0  0  0  0
  4  6  1  0  0  0  0
  5  7  2  0  0  0  0
  5  8  1  0  0  0  0
  6  9  2  0  0  0  0
  6 10  1  0  0  0  0
  7 11  1  0  0  0  0
  8 12  2  0  0  0  0
  9 13  1  0  0  0  0
 10 14  2  0  0  0  0
 11 15  2  0  0  0  0
 13 16  2  0  0  0  0
 15 17  1  0  0  0  0
 16 18  1  0  0  0  0
 17 19  2  0  0  0  0
 17 20  1  0  0  0  0
 18 21  2  0  0  0  0
 18 22  1  0  0  0  0
 19 23  1  0  0  0  0
 19 24  1  0  0  0  0
 20 25  2  0  0  0  0
 21 26  1  0  0  0  0
 22 27  2  0  0  0  0
 23 28  2  0  0  0  0
 24 29  2  0  0  0  0
 24 30  1  0  0  0  0
 26 31  2  0  0  0  0
 31 32  1  0  0  0  0
 32 33  3  0  0  0  0
 12 15  1  0  0  0  0
 14 16  1  0  0  0  0
 25 29  1  0  0  0  0
 27 31  1  0  0  0  0
 28 30  1  0  0  0  0
M  END
>  <MolRegNo>
1280431

>  <m>
=

>  <Value>
11

>  <Unit>
nM

>  <Type>
IC50

>  <pValue>
7.96

>  <Ligand Efficiency>
0

>  <Binding Efficiency>
0

>  <Surface Efficiency>
0

>  <Assay Index>
637122

>  <Assay Category>


>  <Assay Organism>
Homo sapiens

>  <Target ID>
17045

>  <Target Name>
Cytochrome P450 3A4

>  <Target Organism>
Homo sapiens

>  <Target Description>
Target is a single protein chain

>  <Sequence Accession>
P08684

>  <Reference>
Bioorg Med Chem Lett 22 (4), 1611-1614 (2012)

>  <Pubmed ID>
22264486

>  <DOI>
10.1016/j.bmcl.2011.12.125

$$$$
1280432
Actelion Java MolfileCreator 1.0

 32 36  0  0  0  0  0  0  0  0999 V2000
    0.0000   -0.0000   -0.0000 O   0  0  0  0  0  0  0  0  0  0  0  0
   -0.0119   -1.4929   -0.0000 C   0  0  0  0  0  0  0  0  0  0  0  0
   -1.3257   -2.2334   -0.0000 N   0  0  0  0  0  0  0  0  0  0  0  0
    1.2779   -2.2334   -0.0000 N   0  0  0  0  0  0  0  0  0  0  0  0
   -1.3376   -3.7263   -0.0000 C   0  0  0  0  0  0  0  0  0  0  0  0
    2.5678   -1.4690   -0.0000 C   0  0  0  0  0  0  0  0  0  0  0  0
   -2.6514   -4.4668   -0.0000 C   0  0  0  0  0  0  0  0  0  0  0  0
   -0.0478   -4.4668   -0.0000 C   0  0  0  0  0  0  0  0  0  0  0  0
    3.8577   -2.2095   -0.0000 C   0  0  0  0  0  0  0  0  0  0  0  0
    2.5439    0.0478   -0.0000 C   0  0  0  0  0  0  0  0  0  0  0  0
   -2.6633   -5.9716   -0.0000 C   0  0  0  0  0  0  0  0  0  0  0  0
   -0.0597   -5.9716   -0.0000 C   0  0  0  0  0  0  0  0  0  0  0  0
    5.1475   -1.4451   -0.0000 C   0  0  0  0  0  0  0  0  0  0  0  0
    3.8338    0.8241   -0.0000 C   0  0  0  0  0  0  0  0  0  0  0  0
   -1.3735   -6.7121   -0.0000 C   0  0  0  0  0  0  0  0  0  0  0  0
    5.1356    0.0717   -0.0000 C   0  0  0  0  0  0  0  0  0  0  0  0
   -1.3854   -8.2050   -0.0000 C   0  0  0  0  0  0  0  0  0  0  0  0
    6.4254    0.8360   -0.0000 C   0  0  0  0  0  0  0  0  0  0  0  0
   -0.0955   -8.9455   -0.0000 C   0  0  0  0  0  0  0  0  0  0  0  0
   -2.7111   -8.9455   -0.0000 C   0  0  0  0  0  0  0  0  0  0  0  0
    7.7273    0.0955   -0.0000 C   0  0  0  0  0  0  0  0  0  0  0  0
    6.4016    2.3528   -0.0000 C   0  0  0  0  0  0  0  0  0  0  0  0
    1.3138   -8.4558   -0.0000 N   0  0  0  0  0  0  0  0  0  0  0  0
   -0.0955  -10.4264   -0.0000 C   0  0  0  0  0  0  0  0  0  0  0  0
   -2.7231  -10.4384   -0.0000 C   0  0  0  0  0  0  0  0  0  0  0  0
    9.0171    0.8599   -0.0000 C   0  0  0  0  0  0  0  0  0  0  0  0
    7.6795    3.1291   -0.0000 C   0  0  0  0  0  0  0  0  0  0  0  0
    2.1856   -9.6501   -0.0000 C   0  0  0  0  0  0  0  0  0  0  0  0
   -1.4212  -11.1788   -0.0000 N   0  0  0  0  0  0  0  0  0  0  0  0
    1.3138  -10.8683   -0.0000 N   0  0  0  0  0  0  0  0  0  0  0  0
    9.0052    2.3767   -0.0000 C   0  0  0  0  0  0  0  0  0  0  0  0
   10.2950    3.1411   -0.0000 O   0  0  0  0  0  0  0  0  0  0  0  0
  1  2  2  0  0  0  0
  2  3  1  0  0  0  0
  2  4  1  0  0  0  0
  3  5  1  0  0  0  0
  4  6  1  0  0  0  0
  5  7  2  0  0  0  0
  5  8  1  0  0  0  0
  6  9  2  0  0  0  0
  6 10  1  0  0  0  0
  7 11  1  0  0  0  0
  8 12  2  0  0  0  0
  9 13  1  0  0  0  0
 10 14  2  0  0  0  0
 11 15  2  0  0  0  0
 13 16  2  0  0  0  0
 15 17  1  0  0  0  0
 16 18  1  0  0  0  0
 17 19  2  0  0  0  0
 17 20  1  0  0  0  0
 18 21  2  0  0  0  0
 18 22  1  0  0  0  0
 19 23  1  0  0  0  0
 19 24  1  0  0  0  0
 20 25  2  0  0  0  0
 21 26  1  0  0  0  0
 22 27  2  0  0  0  0
 23 28  2  0  0  0  0
 24 29  2  0  0  0  0
 24 30  1  0  0  0  0
 26 31  2  0  0  0  0
 31 32  1  0  0  0  0
 12 15  1  0  0  0  0
 14 16  1  0  0  0  0
 25 29  1  0  0  0  0
 27 31  1  0  0  0  0
 28 30  1  0  0  0  0
M  END
>  <MolRegNo>
1280432

>  <m>
=

>  <Value>
30

>  <Unit>
nM

>  <Type>
IC50

>  <pValue>
7.52

>  <Ligand Efficiency>
0

>  <Binding Efficiency>
0

>  <Surface Efficiency>
0

>  <Assay Index>
637122

>  <Assay Category>


>  <Assay Organism>
Homo sapiens

>  <Target ID>
17045

>  <Target Name>
Cytochrome P450 3A4

>  <Target Organism>
Homo sapiens

>  <Target Description>
Target is a single protein chain

>  <Sequence Accession>
P08684

>  <Reference>
Bioorg Med Chem Lett 22 (4), 1611-1614 (2012)

>  <Pubmed ID>
22264486

>  <DOI>
10.1016/j.bmcl.2011.12.125

$$$$
1280433
Actelion Java MolfileCreator 1.0

 32 36  0  0  0  0  0  0  0  0999 V2000
    0.0000   -0.0000   -0.0000 O   0  0  0  0  0  0  0  0  0  0  0  0
   -0.0119   -1.4929   -0.0000 C   0  0  0  0  0  0  0  0  0  0  0  0
   -1.3257   -2.2334   -0.0000 N   0  0  0  0  0  0  0  0  0  0  0  0
    1.2779   -2.2334   -0.0000 N   0  0  0  0  0  0  0  0  0  0  0  0
   -1.3376   -3.7263   -0.0000 C   0  0  0  0  0  0  0  0  0  0  0  0
    2.5678   -1.4690   -0.0000 C   0  0  0  0  0  0  0  0  0  0  0  0
   -2.6514   -4.4668   -0.0000 C   0  0  0  0  0  0  0  0  0  0  0  0
   -0.0478   -4.4668   -0.0000 C   0  0  0  0  0  0  0  0  0  0  0  0
    3.8577   -2.2095   -0.0000 C   0  0  0  0  0  0  0  0  0  0  0  0
    2.5439    0.0478   -0.0000 C   0  0  0  0  0  0  0  0  0  0  0  0
   -2.6633   -5.9716   -0.0000 C   0  0  0  0  0  0  0  0  0  0  0  0
   -0.0597   -5.9716   -0.0000 C   0  0  0  0  0  0  0  0  0  0  0  0
    5.1475   -1.4451   -0.0000 C   0  0  0  0  0  0  0  0  0  0  0  0
    3.8338    0.8241   -0.0000 C   0  0  0  0  0  0  0  0  0  0  0  0
   -1.3735   -6.7121   -0.0000 C   0  0  0  0  0  0  0  0  0  0  0  0
    5.1356    0.0717   -0.0000 C   0  0  0  0  0  0  0  0  0  0  0  0
   -1.3854   -8.2050   -0.0000 C   0  0  0  0  0  0  0  0  0  0  0  0
    6.4254    0.8360   -0.0000 C   0  0  0  0  0  0  0  0  0  0  0  0
   -0.0955   -8.9455   -0.0000 C   0  0  0  0  0  0  0  0  0  0  0  0
   -2.7111   -8.9455   -0.0000 C   0  0  0  0  0  0  0  0  0  0  0  0
    7.7273    0.0955   -0.0000 C   0  0  0  0  0  0  0  0  0  0  0  0
    6.4016    2.3528   -0.0000 C   0  0  0  0  0  0  0  0  0  0  0  0
    1.3138   -8.4558   -0.0000 N   0  0  0  0  0  0  0  0  0  0  0  0
   -0.0955  -10.4264   -0.0000 C   0  0  0  0  0  0  0  0  0  0  0  0
   -2.7231  -10.4384   -0.0000 C   0  0  0  0  0  0  0  0  0  0  0  0
    9.0171    0.8599   -0.0000 C   0  0  0  0  0  0  0  0  0  0  0  0
    7.6795    3.1291   -0.0000 C   0  0  0  0  0  0  0  0  0  0  0  0
    2.1856   -9.6501   -0.0000 C   0  0  0  0  0  0  0  0  0  0  0  0
   -1.4212  -11.1788   -0.0000 N   0  0  0  0  0  0  0  0  0  0  0  0
    1.3138  -10.8683   -0.0000 N   0  0  0  0  0  0  0  0  0  0  0  0
    9.0052    2.3767   -0.0000 C   0  0  0  0  0  0  0  0  0  0  0  0
   10.2950    3.1411   -0.0000 N   0  0  0  0  0  0  0  0  0  0  0  0
  1  2  2  0  0  0  0
  2  3  1  0  0  0  0
  2  4  1  0  0  0  0
  3  5  1  0  0  0  0
  4  6  1  0  0  0  0
  5  7  2  0  0  0  0
  5  8  1  0  0  0  0
  6  9  2  0  0  0  0
  6 10  1  0  0  0  0
  7 11  1  0  0  0  0
  8 12  2  0  0  0  0
  9 13  1  0  0  0  0
 10 14  2  0  0  0  0
 11 15  2  0  0  0  0
 13 16  2  0  0  0  0
 15 17  1  0  0  0  0
 16 18  1  0  0  0  0
 17 19  2  0  0  0  0
 17 20  1  0  0  0  0
 18 21  2  0  0  0  0
 18 22  1  0  0  0  0
 19 23  1  0  0  0  0
 19 24  1  0  0  0  0
 20 25  2  0  0  0  0
 21 26  1  0  0  0  0
 22 27  2  0  0  0  0
 23 28  2  0  0  0  0
 24 29  2  0  0  0  0
 24 30  1  0  0  0  0
 26 31  2  0  0  0  0
 31 32  1  0  0  0  0
 12 15  1  0  0  0  0
 14 16  1  0  0  0  0
 25 29  1  0  0  0  0
 27 31  1  0  0  0  0
 28 30  1  0  0  0  0
M  END
>  <MolRegNo>
1280433

>  <m>
=

>  <Value>
200

>  <Unit>
nM

>  <Type>
IC50

>  <pValue>
6.7

>  <Ligand Efficiency>
0

>  <Binding Efficiency>
0

>  <Surface Efficiency>
0

>  <Assay Index>
637122

>  <Assay Category>


>  <Assay Organism>
Homo sapiens

>  <Target ID>
17045

>  <Target Name>
Cytochrome P450 3A4

>  <Target Organism>
Homo sapiens

>  <Target Description>
Target is a single protein chain

>  <Sequence Accession>
P08684

>  <Reference>
Bioorg Med Chem Lett 22 (4), 1611-1614 (2012)

>  <Pubmed ID>
22264486

>  <DOI>
10.1016/j.bmcl.2011.12.125

$$$$
1280434
Actelion Java MolfileCreator 1.0

 33 37  0  0  0  0  0  0  0  0999 V2000
    0.0000   -0.0000   -0.0000 O   0  0  0  0  0  0  0  0  0  0  0  0
   -0.0120   -1.4939   -0.0000 C   0  0  0  0  0  0  0  0  0  0  0  0
   -1.3266   -2.2349   -0.0000 N   0  0  0  0  0  0  0  0  0  0  0  0
    1.2788   -2.2349   -0.0000 N   0  0  0  0  0  0  0  0  0  0  0  0
   -1.3385   -3.7288   -0.0000 C   0  0  0  0  0  0  0  0  0  0  0  0
    2.5695   -1.4700   -0.0000 C   0  0  0  0  0  0  0  0  0  0  0  0
   -2.6532   -4.4697   -0.0000 C   0  0  0  0  0  0  0  0  0  0  0  0
   -0.0478   -4.4697   -0.0000 C   0  0  0  0  0  0  0  0  0  0  0  0
    3.8602   -2.2110   -0.0000 C   0  0  0  0  0  0  0  0  0  0  0  0
    2.5456    0.0478   -0.0000 C   0  0  0  0  0  0  0  0  0  0  0  0
   -2.6651   -5.9636   -0.0000 C   0  0  0  0  0  0  0  0  0  0  0  0
   -0.0598   -5.9756   -0.0000 C   0  0  0  0  0  0  0  0  0  0  0  0
    5.1509   -1.4461   -0.0000 C   0  0  0  0  0  0  0  0  0  0  0  0
    3.8363    0.8246   -0.0000 C   0  0  0  0  0  0  0  0  0  0  0  0
   -1.3744   -6.7046   -0.0000 C   0  0  0  0  0  0  0  0  0  0  0  0
    5.1390    0.0717   -0.0000 C   0  0  0  0  0  0  0  0  0  0  0  0
   -1.3863   -8.1985   -0.0000 C   0  0  0  0  0  0  0  0  0  0  0  0
    6.4297    0.8366   -0.0000 C   0  0  0  0  0  0  0  0  0  0  0  0
   -0.0956   -8.9395   -0.0000 C   0  0  0  0  0  0  0  0  0  0  0  0
   -2.7129   -8.9395   -0.0000 C   0  0  0  0  0  0  0  0  0  0  0  0
    7.7324    0.0956   -0.0000 C   0  0  0  0  0  0  0  0  0  0  0  0
    6.4058    2.3544   -0.0000 C   0  0  0  0  0  0  0  0  0  0  0  0
    1.3146   -8.4495   -0.0000 N   0  0  0  0  0  0  0  0  0  0  0  0
   -0.0956  -10.4214   -0.0000 C   0  0  0  0  0  0  0  0  0  0  0  0
   -2.7249  -10.4334   -0.0000 C   0  0  0  0  0  0  0  0  0  0  0  0
    9.0231    0.8605   -0.0000 C   0  0  0  0  0  0  0  0  0  0  0  0
    7.6846    3.1312   -0.0000 C   0  0  0  0  0  0  0  0  0  0  0  0
    2.1871   -9.6446   -0.0000 C   0  0  0  0  0  0  0  0  0  0  0  0
   -1.4222  -11.1743   -0.0000 N   0  0  0  0  0  0  0  0  0  0  0  0
    1.3146  -10.8636   -0.0000 N   0  0  0  0  0  0  0  0  0  0  0  0
   10.3138    0.1195   -0.0000 O   0  0  0  0  0  0  0  0  0  0  0  0
    9.0112    2.3783   -0.0000 C   0  0  0  0  0  0  0  0  0  0  0  0
   10.3019   -1.3744   -0.0000 C   0  0  0  0  0  0  0  0  0  0  0  0
  1  2  2  0  0  0  0
  2  3  1  0  0  0  0
  2  4  1  0  0  0  0
  3  5  1  0  0  0  0
  4  6  1  0  0  0  0
  5  7  2  0  0  0  0
  5  8  1  0  0  0  0
  6  9  2  0  0  0  0
  6 10  1  0  0  0  0
  7 11  1  0  0  0  0
  8 12  2  0  0  0  0
  9 13  1  0  0  0  0
 10 14  2  0  0  0  0
 11 15  2  0  0  0  0
 13 16  2  0  0  0  0
 15 17  1  0  0  0  0
 16 18  1  0  0  0  0
 17 19  2  0  0  0  0
 17 20  1  0  0  0  0
 18 21  2  0  0  0  0
 18 22  1  0  0  0  0
 19 23  1  0  0  0  0
 19 24  1  0  0  0  0
 20 25  2  0  0  0  0
 21 26  1  0  0  0  0
 22 27  2  0  0  0  0
 23 28  2  0  0  0  0
 24 29  2  0  0  0  0
 24 30  1  0  0  0  0
 26 31  1  0  0  0  0
 26 32  2  0  0  0  0
 31 33  1  0  0  0  0
 12 15  1  0  0  0  0
 14 16  1  0  0  0  0
 25 29  1  0  0  0  0
 27 32  1  0  0  0  0
 28 30  1  0  0  0  0
M  END
>  <MolRegNo>
1280434

>  <m>
=

>  <Value>
48

>  <Unit>
nM

>  <Type>
IC50

>  <pValue>
7.32

>  <Ligand Efficiency>
0

>  <Binding Efficiency>
0

>  <Surface Efficiency>
0

>  <Assay Index>
637122

>  <Assay Category>


>  <Assay Organism>
Homo sapiens

>  <Target ID>
17045

>  <Target Name>
Cytochrome P450 3A4

>  <Target Organism>
Homo sapiens

>  <Target Description>
Target is a single protein chain

>  <Sequence Accession>
P08684

>  <Reference>
Bioorg Med Chem Lett 22 (4), 1611-1614 (2012)

>  <Pubmed ID>
22264486

>  <DOI>
10.1016/j.bmcl.2011.12.125

$$$$
1280435
Actelion Java MolfileCreator 1.0

 35 40  0  0  0  0  0  0  0  0999 V2000
    0.0000   -0.0000   -0.0000 O   0  0  0  0  0  0  0  0  0  0  0  0
   -0.0120   -1.4945   -0.0000 C   0  0  0  0  0  0  0  0  0  0  0  0
    1.2793   -2.2358   -0.0000 N   0  0  0  0  0  0  0  0  0  0  0  0
   -1.3271   -2.2358   -0.0000 N   0  0  0  0  0  0  0  0  0  0  0  0
    2.5706   -1.4706   -0.0000 C   0  0  0  0  0  0  0  0  0  0  0  0
   -1.3391   -3.7303   -0.0000 C   0  0  0  0  0  0  0  0  0  0  0  0
    3.8618   -2.2119   -0.0000 C   0  0  0  0  0  0  0  0  0  0  0  0
    2.5467    0.0478   -0.0000 C   0  0  0  0  0  0  0  0  0  0  0  0
   -2.6543   -4.4716   -0.0000 C   0  0  0  0  0  0  0  0  0  0  0  0
   -0.0478   -4.4716   -0.0000 C   0  0  0  0  0  0  0  0  0  0  0  0
    5.1531   -1.4467   -0.0000 C   0  0  0  0  0  0  0  0  0  0  0  0
    3.8379    0.8250   -0.0000 C   0  0  0  0  0  0  0  0  0  0  0  0
   -2.6662   -5.9781   -0.0000 C   0  0  0  0  0  0  0  0  0  0  0  0
   -0.0598   -5.9781   -0.0000 C   0  0  0  0  0  0  0  0  0  0  0  0
    5.1411    0.0717   -0.0000 C   0  0  0  0  0  0  0  0  0  0  0  0
   -1.3750   -6.7194   -0.0000 C   0  0  0  0  0  0  0  0  0  0  0  0
    6.4324    0.8369   -0.0000 C   0  0  0  0  0  0  0  0  0  0  0  0
   -1.3869   -8.2139   -0.0000 C   0  0  0  0  0  0  0  0  0  0  0  0
    7.7356    0.0956   -0.0000 C   0  0  0  0  0  0  0  0  0  0  0  0
    6.4085    2.3554   -0.0000 C   0  0  0  0  0  0  0  0  0  0  0  0
   -0.0956   -8.9552   -0.0000 C   0  0  0  0  0  0  0  0  0  0  0  0
   -2.7140   -8.9552   -0.0000 C   0  0  0  0  0  0  0  0  0  0  0  0
    9.0269    0.8608   -0.0000 C   0  0  0  0  0  0  0  0  0  0  0  0
    7.7237   -1.3869   -0.0000 C   0  0  0  0  0  0  0  0  0  0  0  0
    7.6878    3.1325   -0.0000 C   0  0  0  0  0  0  0  0  0  0  0  0
    1.3152   -8.4650   -0.0000 N   0  0  0  0  0  0  0  0  0  0  0  0
   -0.0956  -10.4377   -0.0000 C   0  0  0  0  0  0  0  0  0  0  0  0
   -2.7260  -10.4497   -0.0000 C   0  0  0  0  0  0  0  0  0  0  0  0
    9.0149    2.3793   -0.0000 C   0  0  0  0  0  0  0  0  0  0  0  0
   10.3182    0.1315   -0.0000 C   0  0  0  0  0  0  0  0  0  0  0  0
    9.0149   -2.1162   -0.0000 C   0  0  0  0  0  0  0  0  0  0  0  0
    2.1880   -9.6606   -0.0000 C   0  0  0  0  0  0  0  0  0  0  0  0
   -1.4228  -11.1910   -0.0000 N   0  0  0  0  0  0  0  0  0  0  0  0
    1.3152  -10.8801   -0.0000 N   0  0  0  0  0  0  0  0  0  0  0  0
   10.3182   -1.3510   -0.0000 C   0  0  0  0  0  0  0  0  0  0  0  0
  1  2  2  0  0  0  0
  2  3  1  0  0  0  0
  2  4  1  0  0  0  0
  3  5  1  0  0  0  0
  4  6  1  0  0  0  0
  5  7  2  0  0  0  0
  5  8  1  0  0  0  0
  6  9  2  0  0  0  0
  6 10  1  0  0  0  0
  7 11  1  0  0  0  0
  8 12  2  0  0  0  0
  9 13  1  0  0  0  0
 10 14  2  0  0  0  0
 11 15  2  0  0  0  0
 13 16  2  0  0  0  0
 15 17  1  0  0  0  0
 16 18  1  0  0  0  0
 17 19  1  0  0  0  0
 17 20  2  0  0  0  0
 18 21  2  0  0  0  0
 18 22  1  0  0  0  0
 19 23  1  0  0  0  0
 19 24  2  0  0  0  0
 20 25  1  0  0  0  0
 21 26  1  0  0  0  0
 21 27  1  0  0  0  0
 22 28  2  0  0  0  0
 23 29  1  0  0  0  0
 23 30  2  0  0  0  0
 24 31  1  0  0  0  0
 26 32  2  0  0  0  0
 27 33  2  0  0  0  0
 27 34  1  0  0  0  0
 30 35  1  0  0  0  0
 12 15  1  0  0  0  0
 14 16  1  0  0  0  0
 25 29  2  0  0  0  0
 28 33  1  0  0  0  0
 31 35  2  0  0  0  0
 32 34  1  0  0  0  0
M  END
>  <MolRegNo>
1280435

>  <m>
=

>  <Value>
1700

>  <Unit>
nM

>  <Type>
IC50

>  <pValue>
5.77

>  <Ligand Efficiency>
0

>  <Binding Efficiency>
0

>  <Surface Efficiency>
0

>  <Assay Index>
637122

>  <Assay Category>


>  <Assay Organism>
Homo sapiens

>  <Target ID>
17045

>  <Target Name>
Cytochrome P450 3A4

>  <Target Organism>
Homo sapiens

>  <Target Description>
Target is a single protein chain

>  <Sequence Accession>
P08684

>  <Reference>
Bioorg Med Chem Lett 22 (4), 1611-1614 (2012)

>  <Pubmed ID>
22264486

>  <DOI>
10.1016/j.bmcl.2011.12.125

$$$$
1280436
Actelion Java MolfileCreator 1.0

 31 35  0  0  0  0  0  0  0  0999 V2000
    0.0000   -0.0000   -0.0000 O   0  0  0  0  0  0  0  0  0  0  0  0
   -0.0119   -1.4929   -0.0000 C   0  0  0  0  0  0  0  0  0  0  0  0
   -1.3257   -2.2334   -0.0000 N   0  0  0  0  0  0  0  0  0  0  0  0
    1.2779   -2.2334   -0.0000 N   0  0  0  0  0  0  0  0  0  0  0  0
   -1.3376   -3.7262   -0.0000 C   0  0  0  0  0  0  0  0  0  0  0  0
    2.5678   -1.4690   -0.0000 C   0  0  0  0  0  0  0  0  0  0  0  0
   -2.6514   -4.4667   -0.0000 C   0  0  0  0  0  0  0  0  0  0  0  0
   -0.0478   -4.4667   -0.0000 C   0  0  0  0  0  0  0  0  0  0  0  0
    3.8576   -2.2095   -0.0000 C   0  0  0  0  0  0  0  0  0  0  0  0
    2.5439    0.0478   -0.0000 C   0  0  0  0  0  0  0  0  0  0  0  0
   -2.6633   -5.9715   -0.0000 C   0  0  0  0  0  0  0  0  0  0  0  0
   -0.0597   -5.9715   -0.0000 C   0  0  0  0  0  0  0  0  0  0  0  0
    5.1475   -1.4451   -0.0000 C   0  0  0  0  0  0  0  0  0  0  0  0
    3.8337    0.8241   -0.0000 C   0  0  0  0  0  0  0  0  0  0  0  0
   -1.3735   -6.7120   -0.0000 C   0  0  0  0  0  0  0  0  0  0  0  0
    5.1355    0.0717   -0.0000 C   0  0  0  0  0  0  0  0  0  0  0  0
   -1.3854   -8.2049   -0.0000 C   0  0  0  0  0  0  0  0  0  0  0  0
    6.4254    0.8360   -0.0000 C   0  0  0  0  0  0  0  0  0  0  0  0
   -0.0955   -8.9454   -0.0000 C   0  0  0  0  0  0  0  0  0  0  0  0
   -2.7111   -8.9454   -0.0000 C   0  0  0  0  0  0  0  0  0  0  0  0
    7.7272    0.0955   -0.0000 C   0  0  0  0  0  0  0  0  0  0  0  0
    6.4015    2.3528   -0.0000 C   0  0  0  0  0  0  0  0  0  0  0  0
    1.3137   -8.4557   -0.0000 N   0  0  0  0  0  0  0  0  0  0  0  0
   -0.0955  -10.4263   -0.0000 C   0  0  0  0  0  0  0  0  0  0  0  0
   -2.7230  -10.4382   -0.0000 C   0  0  0  0  0  0  0  0  0  0  0  0
    9.0170    0.8599   -0.0000 N   0  0  0  0  0  0  0  0  0  0  0  0
    7.6794    3.1291   -0.0000 C   0  0  0  0  0  0  0  0  0  0  0  0
    2.1856   -9.6500   -0.0000 C   0  0  0  0  0  0  0  0  0  0  0  0
   -1.4212  -11.1787   -0.0000 N   0  0  0  0  0  0  0  0  0  0  0  0
    1.3137  -10.8682   -0.0000 N   0  0  0  0  0  0  0  0  0  0  0  0
    9.0051    2.3767   -0.0000 C   0  0  0  0  0  0  0  0  0  0  0  0
  1  2  2  0  0  0  0
  2  3  1  0  0  0  0
  2  4  1  0  0  0  0
  3  5  1  0  0  0  0
  4  6  1  0  0  0  0
  5  7  2  0  0  0  0
  5  8  1  0  0  0  0
  6  9  2  0  0  0  0
  6 10  1  0  0  0  0
  7 11  1  0  0  0  0
  8 12  2  0  0  0  0
  9 13  1  0  0  0  0
 10 14  2  0  0  0  0
 11 15  2  0  0  0  0
 13 16  2  0  0  0  0
 15 17  1  0  0  0  0
 16 18  1  0  0  0  0
 17 19  2  0  0  0  0
 17 20  1  0  0  0  0
 18 21  2  0  0  0  0
 18 22  1  0  0  0  0
 19 23  1  0  0  0  0
 19 24  1  0  0  0  0
 20 25  2  0  0  0  0
 21 26  1  0  0  0  0
 22 27  2  0  0  0  0
 23 28  2  0  0  0  0
 24 29  2  0  0  0  0
 24 30  1  0  0  0  0
 26 31  2  0  0  0  0
 12 15  1  0  0  0  0
 14 16  1  0  0  0  0
 25 29  1  0  0  0  0
 27 31  1  0  0  0  0
 28 30  1  0  0  0  0
M  END
>  <MolRegNo>
1280436

>  <m>
=

>  <Value>
220

>  <Unit>
nM

>  <Type>
IC50

>  <pValue>
6.66

>  <Ligand Efficiency>
0

>  <Binding Efficiency>
0

>  <Surface Efficiency>
0

>  <Assay Index>
637122

>  <Assay Category>


>  <Assay Organism>
Homo sapiens

>  <Target ID>
17045

>  <Target Name>
Cytochrome P450 3A4

>  <Target Organism>
Homo sapiens

>  <Target Description>
Target is a single protein chain

>  <Sequence Accession>
P08684

>  <Reference>
Bioorg Med Chem Lett 22 (4), 1611-1614 (2012)

>  <Pubmed ID>
22264486

>  <DOI>
10.1016/j.bmcl.2011.12.125

$$$$
1280437
Actelion Java MolfileCreator 1.0

 31 35  0  0  0  0  0  0  0  0999 V2000
    0.0000   -0.0000   -0.0000 O   0  0  0  0  0  0  0  0  0  0  0  0
   -0.0119   -1.4929   -0.0000 C   0  0  0  0  0  0  0  0  0  0  0  0
   -1.3257   -2.2334   -0.0000 N   0  0  0  0  0  0  0  0  0  0  0  0
    1.2779   -2.2334   -0.0000 N   0  0  0  0  0  0  0  0  0  0  0  0
   -1.3376   -3.7262   -0.0000 C   0  0  0  0  0  0  0  0  0  0  0  0
    2.5678   -1.4690   -0.0000 C   0  0  0  0  0  0  0  0  0  0  0  0
   -2.6514   -4.4667   -0.0000 C   0  0  0  0  0  0  0  0  0  0  0  0
   -0.0478   -4.4667   -0.0000 C   0  0  0  0  0  0  0  0  0  0  0  0
    3.8576   -2.2095   -0.0000 C   0  0  0  0  0  0  0  0  0  0  0  0
    2.5439    0.0478   -0.0000 C   0  0  0  0  0  0  0  0  0  0  0  0
   -2.6633   -5.9715   -0.0000 C   0  0  0  0  0  0  0  0  0  0  0  0
   -0.0597   -5.9715   -0.0000 C   0  0  0  0  0  0  0  0  0  0  0  0
    5.1475   -1.4451   -0.0000 C   0  0  0  0  0  0  0  0  0  0  0  0
    3.8337    0.8241   -0.0000 C   0  0  0  0  0  0  0  0  0  0  0  0
   -1.3735   -6.7120   -0.0000 C   0  0  0  0  0  0  0  0  0  0  0  0
    5.1355    0.0717   -0.0000 C   0  0  0  0  0  0  0  0  0  0  0  0
   -1.3854   -8.2049   -0.0000 C   0  0  0  0  0  0  0  0  0  0  0  0
    6.4254    0.8360   -0.0000 C   0  0  0  0  0  0  0  0  0  0  0  0
   -0.0955   -8.9454   -0.0000 C   0  0  0  0  0  0  0  0  0  0  0  0
   -2.7111   -8.9454   -0.0000 C   0  0  0  0  0  0  0  0  0  0  0  0
    7.7272    0.0955   -0.0000 C   0  0  0  0  0  0  0  0  0  0  0  0
    6.4015    2.3528   -0.0000 C   0  0  0  0  0  0  0  0  0  0  0  0
    1.3137   -8.4557   -0.0000 N   0  0  0  0  0  0  0  0  0  0  0  0
   -0.0955  -10.4263   -0.0000 C   0  0  0  0  0  0  0  0  0  0  0  0
   -2.7230  -10.4382   -0.0000 C   0  0  0  0  0  0  0  0  0  0  0  0
    9.0170    0.8599   -0.0000 C   0  0  0  0  0  0  0  0  0  0  0  0
    7.6794    3.1291   -0.0000 C   0  0  0  0  0  0  0  0  0  0  0  0
    2.1856   -9.6500   -0.0000 C   0  0  0  0  0  0  0  0  0  0  0  0
   -1.4212  -11.1787   -0.0000 N   0  0  0  0  0  0  0  0  0  0  0  0
    1.3137  -10.8682   -0.0000 N   0  0  0  0  0  0  0  0  0  0  0  0
    9.0051    2.3767   -0.0000 N   0  0  0  0  0  0  0  0  0  0  0  0
  1  2  2  0  0  0  0
  2  3  1  0  0  0  0
  2  4  1  0  0  0  0
  3  5  1  0  0  0  0
  4  6  1  0  0  0  0
  5  7  2  0  0  0  0
  5  8  1  0  0  0  0
  6  9  2  0  0  0  0
  6 10  1  0  0  0  0
  7 11  1  0  0  0  0
  8 12  2  0  0  0  0
  9 13  1  0  0  0  0
 10 14  2  0  0  0  0
 11 15  2  0  0  0  0
 13 16  2  0  0  0  0
 15 17  1  0  0  0  0
 16 18  1  0  0  0  0
 17 19  2  0  0  0  0
 17 20  1  0  0  0  0
 18 21  2  0  0  0  0
 18 22  1  0  0  0  0
 19 23  1  0  0  0  0
 19 24  1  0  0  0  0
 20 25  2  0  0  0  0
 21 26  1  0  0  0  0
 22 27  2  0  0  0  0
 23 28  2  0  0  0  0
 24 29  2  0  0  0  0
 24 30  1  0  0  0  0
 26 31  2  0  0  0  0
 12 15  1  0  0  0  0
 14 16  1  0  0  0  0
 25 29  1  0  0  0  0
 27 31  1  0  0  0  0
 28 30  1  0  0  0  0
M  END
>  <MolRegNo>
1280437

>  <m>
=

>  <Value>
360

>  <Unit>
nM

>  <Type>
IC50

>  <pValue>
6.44

>  <Ligand Efficiency>
0

>  <Binding Efficiency>
0

>  <Surface Efficiency>
0

>  <Assay Index>
637122

>  <Assay Category>


>  <Assay Organism>
Homo sapiens

>  <Target ID>
17045

>  <Target Name>
Cytochrome P450 3A4

>  <Target Organism>
Homo sapiens

>  <Target Description>
Target is a single protein chain

>  <Sequence Accession>
P08684

>  <Reference>
Bioorg Med Chem Lett 22 (4), 1611-1614 (2012)

>  <Pubmed ID>
22264486

>  <DOI>
10.1016/j.bmcl.2011.12.125

$$$$
1280438
Actelion Java MolfileCreator 1.0

 27 30  0  0  0  0  0  0  0  0999 V2000
    0.0000   -0.0000   -0.0000 F   0  0  0  0  0  0  0  0  0  0  0  0
   -1.3221    0.7623   -0.0000 C   0  0  0  0  0  0  0  0  0  0  0  0
   -2.6323    0.0238   -0.0000 C   0  0  0  0  0  0  0  0  0  0  0  0
   -1.3459    2.2869   -0.0000 C   0  0  0  0  0  0  0  0  0  0  0  0
   -3.9425    0.7861   -0.0000 C   0  0  0  0  0  0  0  0  0  0  0  0
   -2.6561    3.0373   -0.0000 C   0  0  0  0  0  0  0  0  0  0  0  0
   -3.9544    2.2988   -0.0000 C   0  0  0  0  0  0  0  0  0  0  0  0
   -5.2646    3.0611   -0.0000 C   0  0  0  0  0  0  0  0  0  0  0  0
   -6.5748    2.3226   -0.0000 N   0  0  0  0  0  0  0  0  0  0  0  0
   -7.8850    3.0849   -0.0000 C   0  0  0  0  0  0  0  0  0  0  0  0
   -7.8969    4.5976   -0.0000 O   0  0  0  0  0  0  0  0  0  0  0  0
   -9.1952    2.3464   -0.0000 N   0  0  0  0  0  0  0  0  0  0  0  0
   -9.2071    0.8576   -0.0000 C   0  0  0  0  0  0  0  0  0  0  0  0
  -10.5173    0.1191   -0.0000 C   0  0  0  0  0  0  0  0  0  0  0  0
   -7.9207    0.1191   -0.0000 C   0  0  0  0  0  0  0  0  0  0  0  0
  -10.5292   -1.3817   -0.0000 C   0  0  0  0  0  0  0  0  0  0  0  0
   -7.9326   -1.3817   -0.0000 C   0  0  0  0  0  0  0  0  0  0  0  0
   -9.2428   -2.1201   -0.0000 C   0  0  0  0  0  0  0  0  0  0  0  0
   -9.2547   -3.6090   -0.0000 C   0  0  0  0  0  0  0  0  0  0  0  0
   -7.9684   -4.3475   -0.0000 C   0  0  0  0  0  0  0  0  0  0  0  0
  -10.5768   -4.3475   -0.0000 C   0  0  0  0  0  0  0  0  0  0  0  0
   -6.5629   -3.8591   -0.0000 N   0  0  0  0  0  0  0  0  0  0  0  0
   -7.9684   -5.8244   -0.0000 C   0  0  0  0  0  0  0  0  0  0  0  0
  -10.5887   -5.8363   -0.0000 C   0  0  0  0  0  0  0  0  0  0  0  0
   -5.6934   -5.0502   -0.0000 C   0  0  0  0  0  0  0  0  0  0  0  0
   -9.2905   -6.5748   -0.0000 N   0  0  0  0  0  0  0  0  0  0  0  0
   -6.5629   -6.2651   -0.0000 N   0  0  0  0  0  0  0  0  0  0  0  0
  1  2  1  0  0  0  0
  2  3  2  0  0  0  0
  2  4  1  0  0  0  0
  3  5  1  0  0  0  0
  4  6  2  0  0  0  0
  5  7  2  0  0  0  0
  7  8  1  0  0  0  0
  8  9  1  0  0  0  0
  9 10  1  0  0  0  0
 10 11  2  0  0  0  0
 10 12  1  0  0  0  0
 12 13  1  0  0  0  0
 13 14  2  0  0  0  0
 13 15  1  0  0  0  0
 14 16  1  0  0  0  0
 15 17  2  0  0  0  0
 16 18  2  0  0  0  0
 18 19  1  0  0  0  0
 19 20  2  0  0  0  0
 19 21  1  0  0  0  0
 20 22  1  0  0  0  0
 20 23  1  0  0  0  0
 21 24  2  0  0  0  0
 22 25  2  0  0  0  0
 23 26  2  0  0  0  0
 23 27  1  0  0  0  0
  6  7  1  0  0  0  0
 17 18  1  0  0  0  0
 24 26  1  0  0  0  0
 25 27  1  0  0  0  0
M  END
>  <MolRegNo>
1280438

>  <m>
=

>  <Value>
280

>  <Unit>
nM

>  <Type>
IC50

>  <pValue>
6.55

>  <Ligand Efficiency>
0

>  <Binding Efficiency>
0

>  <Surface Efficiency>
0

>  <Assay Index>
637122

>  <Assay Category>


>  <Assay Organism>
Homo sapiens

>  <Target ID>
17045

>  <Target Name>
Cytochrome P450 3A4

>  <Target Organism>
Homo sapiens

>  <Target Description>
Target is a single protein chain

>  <Sequence Accession>
P08684

>  <Reference>
Bioorg Med Chem Lett 22 (4), 1611-1614 (2012)

>  <Pubmed ID>
22264486

>  <DOI>
10.1016/j.bmcl.2011.12.125

$$$$
1280439
Actelion Java MolfileCreator 1.0

 27 30  0  0  0  0  0  0  0  0999 V2000
    0.0000   -0.0000   -0.0000 Br  0  0  0  0  0  0  0  0  0  0  0  0
   -1.3221    0.7623   -0.0000 C   0  0  0  0  0  0  0  0  0  0  0  0
   -2.6323    0.0238   -0.0000 C   0  0  0  0  0  0  0  0  0  0  0  0
   -1.3459    2.2869   -0.0000 C   0  0  0  0  0  0  0  0  0  0  0  0
   -3.9425    0.7861   -0.0000 C   0  0  0  0  0  0  0  0  0  0  0  0
   -2.6561    3.0373   -0.0000 C   0  0  0  0  0  0  0  0  0  0  0  0
   -3.9544    2.2988   -0.0000 C   0  0  0  0  0  0  0  0  0  0  0  0
   -5.2646    3.0611   -0.0000 C   0  0  0  0  0  0  0  0  0  0  0  0
   -6.5748    2.3226   -0.0000 N   0  0  0  0  0  0  0  0  0  0  0  0
   -7.8850    3.0849   -0.0000 C   0  0  0  0  0  0  0  0  0  0  0  0
   -7.8969    4.5976   -0.0000 O   0  0  0  0  0  0  0  0  0  0  0  0
   -9.1952    2.3464   -0.0000 N   0  0  0  0  0  0  0  0  0  0  0  0
   -9.2071    0.8576   -0.0000 C   0  0  0  0  0  0  0  0  0  0  0  0
  -10.5173    0.1191   -0.0000 C   0  0  0  0  0  0  0  0  0  0  0  0
   -7.9207    0.1191   -0.0000 C   0  0  0  0  0  0  0  0  0  0  0  0
  -10.5292   -1.3817   -0.0000 C   0  0  0  0  0  0  0  0  0  0  0  0
   -7.9326   -1.3817   -0.0000 C   0  0  0  0  0  0  0  0  0  0  0  0
   -9.2428   -2.1201   -0.0000 C   0  0  0  0  0  0  0  0  0  0  0  0
   -9.2547   -3.6090   -0.0000 C   0  0  0  0  0  0  0  0  0  0  0  0
   -7.9684   -4.3475   -0.0000 C   0  0  0  0  0  0  0  0  0  0  0  0
  -10.5768   -4.3475   -0.0000 C   0  0  0  0  0  0  0  0  0  0  0  0
   -6.5629   -3.8591   -0.0000 N   0  0  0  0  0  0  0  0  0  0  0  0
   -7.9684   -5.8244   -0.0000 C   0  0  0  0  0  0  0  0  0  0  0  0
  -10.5887   -5.8363   -0.0000 C   0  0  0  0  0  0  0  0  0  0  0  0
   -5.6934   -5.0502   -0.0000 C   0  0  0  0  0  0  0  0  0  0  0  0
   -9.2905   -6.5748   -0.0000 N   0  0  0  0  0  0  0  0  0  0  0  0
   -6.5629   -6.2651   -0.0000 N   0  0  0  0  0  0  0  0  0  0  0  0
  1  2  1  0  0  0  0
  2  3  2  0  0  0  0
  2  4  1  0  0  0  0
  3  5  1  0  0  0  0
  4  6  2  0  0  0  0
  5  7  2  0  0  0  0
  7  8  1  0  0  0  0
  8  9  1  0  0  0  0
  9 10  1  0  0  0  0
 10 11  2  0  0  0  0
 10 12  1  0  0  0  0
 12 13  1  0  0  0  0
 13 14  2  0  0  0  0
 13 15  1  0  0  0  0
 14 16  1  0  0  0  0
 15 17  2  0  0  0  0
 16 18  2  0  0  0  0
 18 19  1  0  0  0  0
 19 20  2  0  0  0  0
 19 21  1  0  0  0  0
 20 22  1  0  0  0  0
 20 23  1  0  0  0  0
 21 24  2  0  0  0  0
 22 25  2  0  0  0  0
 23 26  2  0  0  0  0
 23 27  1  0  0  0  0
  6  7  1  0  0  0  0
 17 18  1  0  0  0  0
 24 26  1  0  0  0  0
 25 27  1  0  0  0  0
M  END
>  <MolRegNo>
1280439

>  <m>
=

>  <Value>
270

>  <Unit>
nM

>  <Type>
IC50

>  <pValue>
6.57

>  <Ligand Efficiency>
0

>  <Binding Efficiency>
0

>  <Surface Efficiency>
0

>  <Assay Index>
637122

>  <Assay Category>


>  <Assay Organism>
Homo sapiens

>  <Target ID>
17045

>  <Target Name>
Cytochrome P450 3A4

>  <Target Organism>
Homo sapiens

>  <Target Description>
Target is a single protein chain

>  <Sequence Accession>
P08684

>  <Reference>
Bioorg Med Chem Lett 22 (4), 1611-1614 (2012)

>  <Pubmed ID>
22264486

>  <DOI>
10.1016/j.bmcl.2011.12.125

$$$$
1280440
Actelion Java MolfileCreator 1.0

 27 29  0  0  0  0  0  0  0  0999 V2000
    0.0000   -0.0000   -0.0000 Br  0  0  0  0  0  0  0  0  0  0  0  0
   -0.4717    1.4387   -0.0000 C   0  0  0  0  0  0  0  0  0  0  0  0
    0.3892    2.6652   -0.0000 C   0  0  0  0  0  0  0  0  0  0  0  0
   -1.9104    1.9222   -0.0000 C   0  0  0  0  0  0  0  0  0  0  0  0
   -0.4953    3.8916   -0.0000 S   0  0  0  0  0  0  0  0  0  0  0  0
    1.8750    2.6770   -0.0000 O   0  0  0  0  0  0  0  0  0  0  0  0
   -1.9222    3.4317   -0.0000 C   0  0  0  0  0  0  0  0  0  0  0  0
   -3.1369    1.0496   -0.0000 C   0  0  0  0  0  0  0  0  0  0  0  0
    2.6180    1.3915   -0.0000 C   0  0  0  0  0  0  0  0  0  0  0  0
   -3.1487    4.3161   -0.0000 C   0  0  0  0  0  0  0  0  0  0  0  0
    4.1039    1.4033   -0.0000 C   0  0  0  0  0  0  0  0  0  0  0  0
   -3.1369    5.8256   -0.0000 O   0  0  0  0  0  0  0  0  0  0  0  0
   -4.4694    3.5968   -0.0000 N   0  0  0  0  0  0  0  0  0  0  0  0
    4.8350    0.1179   -0.0000 C   0  0  0  0  0  0  0  0  0  0  0  0
   -4.5048    2.1109   -0.0000 C   0  0  0  0  0  0  0  0  0  0  0  0
   -5.7666    4.3751   -0.0000 C   0  0  0  0  0  0  0  0  0  0  0  0
   -5.8138    1.3915   -0.0000 C   0  0  0  0  0  0  0  0  0  0  0  0
   -7.0874    3.6557   -0.0000 C   0  0  0  0  0  0  0  0  0  0  0  0
   -7.1110    2.1699   -0.0000 C   0  0  0  0  0  0  0  0  0  0  0  0
   -8.4318    1.4387   -0.0000 C   0  0  0  0  0  0  0  0  0  0  0  0
   -9.7290    2.2170   -0.0000 C   0  0  0  0  0  0  0  0  0  0  0  0
   -8.4554   -0.0354   -0.0000 C   0  0  0  0  0  0  0  0  0  0  0  0
  -11.0380    1.4859   -0.0000 C   0  0  0  0  0  0  0  0  0  0  0  0
   -9.7762   -0.7547   -0.0000 C   0  0  0  0  0  0  0  0  0  0  0  0
  -11.0616    0.0118   -0.0000 C   0  0  0  0  0  0  0  0  0  0  0  0
  -12.3470    2.2524   -0.0000 C   0  0  0  0  0  0  0  0  0  0  0  0
  -13.6560    1.5213   -0.0000 N   0  0  0  0  0  0  0  0  0  0  0  0
  1  2  1  0  0  0  0
  2  3  2  0  0  0  0
  2  4  1  0  0  0  0
  3  5  1  0  0  0  0
  3  6  1  0  0  0  0
  4  7  2  0  0  0  0
  4  8  1  0  0  0  0
  6  9  1  0  0  0  0
  7 10  1  0  0  0  0
  9 11  1  0  0  0  0
 10 12  2  0  0  0  0
 10 13  1  0  0  0  0
 11 14  1  0  0  0  0
 13 15  1  0  0  0  0
 13 16  1  0  0  0  0
 15 17  1  0  0  0  0
 16 18  1  0  0  0  0
 17 19  1  0  0  0  0
 19 20  1  0  0  0  0
 20 21  2  0  0  0  0
 20 22  1  0  0  0  0
 21 23  1  0  0  0  0
 22 24  2  0  0  0  0
 23 25  2  0  0  0  0
 23 26  1  0  0  0  0
 26 27  1  0  0  0  0
  5  7  1  0  0  0  0
 18 19  1  0  0  0  0
 24 25  1  0  0  0  0
M  END
>  <MolRegNo>
1280440

>  <m>
=

>  <Value>
4700

>  <Unit>
nM

>  <Type>
IC50

>  <pValue>
5.33

>  <Ligand Efficiency>
0

>  <Binding Efficiency>
0

>  <Surface Efficiency>
0

>  <Assay Index>
637324

>  <Assay Category>


>  <Assay Organism>
Homo sapiens

>  <Target ID>
17045

>  <Target Name>
Cytochrome P450 3A4

>  <Target Organism>
Homo sapiens

>  <Target Description>
Target is a single protein chain

>  <Sequence Accession>
P08684

>  <Reference>
Bioorg Med Chem Lett 22 (4), 1606-1610 (2012)

>  <Pubmed ID>
22264487

>  <DOI>
10.1016/j.bmcl.2011.12.127

$$$$
1280441
Actelion Java MolfileCreator 1.0

 30 33  0  0  0  0  0  0  0  0999 V2000
    0.0000   -0.0000   -0.0000 Br  0  0  0  0  0  0  0  0  0  0  0  0
   -0.4681    1.4317   -0.0000 C   0  0  0  0  0  0  0  0  0  0  0  0
    0.3855    2.6432   -0.0000 C   0  0  0  0  0  0  0  0  0  0  0  0
   -1.8998    1.9135   -0.0000 C   0  0  0  0  0  0  0  0  0  0  0  0
   -0.4956    3.8546   -0.0000 S   0  0  0  0  0  0  0  0  0  0  0  0
    1.8585    2.6569   -0.0000 O   0  0  0  0  0  0  0  0  0  0  0  0
   -1.9135    3.4141   -0.0000 C   0  0  0  0  0  0  0  0  0  0  0  0
   -2.9598    0.7985   -0.0000 C   0  0  0  0  0  0  0  0  0  0  0  0
    2.5881    1.3766   -0.0000 C   0  0  0  0  0  0  0  0  0  0  0  0
   -3.1250    4.2951   -0.0000 C   0  0  0  0  0  0  0  0  0  0  0  0
    4.0611    1.3904   -0.0000 C   0  0  0  0  0  0  0  0  0  0  0  0
   -3.1112    5.7957   -0.0000 O   0  0  0  0  0  0  0  0  0  0  0  0
   -4.4603    3.6481   -0.0000 N   0  0  0  0  0  0  0  0  0  0  0  0
    4.7907    0.1101   -0.0000 C   0  0  0  0  0  0  0  0  0  0  0  0
   -4.5154    2.1613   -0.0000 C   0  0  0  0  0  0  0  0  0  0  0  0
   -5.3689    2.7258   -0.0000 C   0  0  0  0  0  0  0  0  0  0  0  0
   -6.2775    1.9273   -0.0000 C   0  0  0  0  0  0  0  0  0  0  0  0
   -2.9598    1.5281   -0.0000 C   0  0  0  0  0  0  0  0  0  0  0  0
   -7.0622    2.5330   -0.0000 C   0  0  0  0  0  0  0  0  0  0  0  0
   -4.6393    1.5418   -0.0000 C   0  0  0  0  0  0  0  0  0  0  0  0
   -7.1173    1.0463   -0.0000 C   0  0  0  0  0  0  0  0  0  0  0  0
   -8.5903    0.7434   -0.0000 C   0  0  0  0  0  0  0  0  0  0  0  0
   -9.0584   -0.6470   -0.0000 C   0  0  0  0  0  0  0  0  0  0  0  0
   -9.5952    1.8585   -0.0000 C   0  0  0  0  0  0  0  0  0  0  0  0
   -8.0809   -1.7346   -0.0000 F   0  0  0  0  0  0  0  0  0  0  0  0
  -10.5176   -0.9361   -0.0000 C   0  0  0  0  0  0  0  0  0  0  0  0
  -11.0545    1.5556   -0.0000 C   0  0  0  0  0  0  0  0  0  0  0  0
  -11.5226    0.1652   -0.0000 C   0  0  0  0  0  0  0  0  0  0  0  0
  -12.0732    2.6707   -0.0000 C   0  0  0  0  0  0  0  0  0  0  0  0
  -13.5462    2.3678   -0.0000 N   0  0  0  0  0  0  0  0  0  0  0  0
  1  2  1  0  0  0  0
  2  3  2  0  0  0  0
  2  4  1  0  0  0  0
  3  5  1  0  0  0  0
  3  6  1  0  0  0  0
  4  7  2  0  0  0  0
  4  8  1  0  0  0  0
  6  9  1  0  0  0  0
  7 10  1  0  0  0  0
  9 11  1  0  0  0  0
 10 12  2  0  0  0  0
 10 13  1  0  0  0  0
 11 14  1  0  0  0  0
 15 13  1  1  0  0  0
 16 13  1  1  0  0  0
 15 17  1  0  0  0  0
 15 18  1  0  0  0  0
 16 19  1  0  0  0  0
 16 20  1  0  0  0  0
 17 21  1  0  0  0  0
 21 22  1  0  0  0  0
 22 23  2  0  0  0  0
 22 24  1  0  0  0  0
 23 25  1  0  0  0  0
 23 26  1  0  0  0  0
 24 27  2  0  0  0  0
 26 28  2  0  0  0  0
 27 29  1  0  0  0  0
 29 30  1  0  0  0  0
  5  7  1  0  0  0  0
 18 20  1  0  0  0  0
 19 21  1  0  0  0  0
 27 28  1  0  0  0  0
M  END
>  <MolRegNo>
1280441

>  <m>
=

>  <Value>
5300

>  <Unit>
nM

>  <Type>
IC50

>  <pValue>
5.28

>  <Ligand Efficiency>
0

>  <Binding Efficiency>
0

>  <Surface Efficiency>
0

>  <Assay Index>
637324

>  <Assay Category>


>  <Assay Organism>
Homo sapiens

>  <Target ID>
17045

>  <Target Name>
Cytochrome P450 3A4

>  <Target Organism>
Homo sapiens

>  <Target Description>
Target is a single protein chain

>  <Sequence Accession>
P08684

>  <Reference>
Bioorg Med Chem Lett 22 (4), 1606-1610 (2012)

>  <Pubmed ID>
22264487

>  <DOI>
10.1016/j.bmcl.2011.12.127

$$$$
1280419
Actelion Java MolfileCreator 1.0

 35 39  0  0  0  0  0  0  0  0999 V2000
    0.0000   -0.0000   -0.0000 O   0  0  0  0  0  0  0  0  0  0  0  0
   -0.0119   -1.4955   -0.0000 C   0  0  0  0  0  0  0  0  0  0  0  0
   -1.3175   -2.2433   -0.0000 N   0  0  0  0  0  0  0  0  0  0  0  0
    1.2700   -2.2433   -0.0000 C   0  0  0  0  0  0  0  0  0  0  0  0
   -1.3293   -3.7388   -0.0000 C   0  0  0  0  0  0  0  0  0  0  0  0
   -2.6350   -1.4836   -0.0000 C   0  0  0  0  0  0  0  0  0  0  0  0
    2.6943   -1.7685   -0.0000 N   0  0  0  0  0  0  0  0  0  0  0  0
    1.2581   -3.7388   -0.0000 C   0  0  0  0  0  0  0  0  0  0  0  0
   -0.0475   -4.4747   -0.0000 N   0  0  0  0  0  0  0  0  0  0  0  0
   -2.6468    0.0356   -0.0000 C   0  0  0  0  0  0  0  0  0  0  0  0
    3.5726   -2.9792   -0.0000 C   0  0  0  0  0  0  0  0  0  0  0  0
    3.1453   -0.3205   -0.0000 C   0  0  0  0  0  0  0  0  0  0  0  0
    2.6824   -4.1898   -0.0000 C   0  0  0  0  0  0  0  0  0  0  0  0
   -1.3650    0.7952   -0.0000 N   0  0  0  0  0  0  0  0  0  0  0  0
   -3.9643    0.7834   -0.0000 C   0  0  0  0  0  0  0  0  0  0  0  0
    5.0681   -2.9673   -0.0000 N   0  0  0  0  0  0  0  0  0  0  0  0
    4.5696    0.1424   -0.0000 C   0  0  0  0  0  0  0  0  0  0  0  0
    3.1453   -5.6141   -0.0000 C   0  0  0  0  0  0  0  0  0  0  0  0
   -1.3768    2.3026   -0.0000 C   0  0  0  0  0  0  0  0  0  0  0  0
   -3.9880    2.2908   -0.0000 C   0  0  0  0  0  0  0  0  0  0  0  0
   -5.2580    0.0475   -0.0000 C   0  0  0  0  0  0  0  0  0  0  0  0
    5.8040   -4.2610   -0.0000 C   0  0  0  0  0  0  0  0  0  0  0  0
    5.8040   -1.6498   -0.0000 C   0  0  0  0  0  0  0  0  0  0  0  0
    4.8782    1.6261   -0.0000 C   0  0  0  0  0  0  0  0  0  0  0  0
    3.5964   -7.0266   -0.0000 N   0  0  0  0  0  0  0  0  0  0  0  0
   -2.6943    3.0623   -0.0000 C   0  0  0  0  0  0  0  0  0  0  0  0
   -5.2937    3.0385   -0.0000 C   0  0  0  0  0  0  0  0  0  0  0  0
   -6.5637    0.7834   -0.0000 C   0  0  0  0  0  0  0  0  0  0  0  0
    7.2877   -4.2492   -0.0000 C   0  0  0  0  0  0  0  0  0  0  0  0
    7.2996   -1.6498   -0.0000 C   0  0  0  0  0  0  0  0  0  0  0  0
    6.3025    2.0890   -0.0000 C   0  0  0  0  0  0  0  0  0  0  0  0
    3.7625    2.6468   -0.0000 C   0  0  0  0  0  0  0  0  0  0  0  0
   -6.5874    2.2908   -0.0000 C   0  0  0  0  0  0  0  0  0  0  0  0
    8.0236   -5.5429   -0.0000 N   0  0  0  0  0  0  0  0  0  0  0  0
    8.0354   -2.9436   -0.0000 C   0  0  0  0  0  0  0  0  0  0  0  0
  1  2  2  0  0  0  0
  2  3  1  0  0  0  0
  2  4  1  0  0  0  0
  3  5  1  0  0  0  0
  3  6  1  0  0  0  0
  4  7  1  0  0  0  0
  4  8  2  0  0  0  0
  5  9  2  0  0  0  0
  6 10  1  0  0  0  0
  7 11  1  0  0  0  0
  7 12  1  0  0  0  0
  8 13  1  0  0  0  0
 10 14  2  0  0  0  0
 10 15  1  0  0  0  0
 11 16  1  0  0  0  0
 12 17  1  0  0  0  0
 13 18  1  0  0  0  0
 14 19  1  0  0  0  0
 15 20  1  0  0  0  0
 15 21  2  0  0  0  0
 16 22  1  0  0  0  0
 16 23  1  0  0  0  0
 17 24  2  0  0  0  0
 18 25  3  0  0  0  0
 19 26  2  0  0  0  0
 20 27  2  0  0  0  0
 21 28  1  0  0  0  0
 22 29  1  0  0  0  0
 23 30  1  0  0  0  0
 24 31  1  0  0  0  0
 24 32  1  0  0  0  0
 27 33  1  0  0  0  0
 29 34  1  6  0  0  0
 29 35  1  0  0  0  0
  8  9  1  0  0  0  0
 11 13  2  0  0  0  0
 20 26  1  0  0  0  0
 28 33  2  0  0  0  0
 30 35  1  0  0  0  0
M  END
>  <MolRegNo>
1280419

>  <m>
=

>  <Value>
1700

>  <Unit>
nM

>  <Type>
IC50

>  <pValue>
5.77

>  <Ligand Efficiency>
0

>  <Binding Efficiency>
0

>  <Surface Efficiency>
0

>  <Assay Index>
638311

>  <Assay Category>


>  <Assay Organism>


>  <Target ID>
17045

>  <Target Name>
Cytochrome P450 3A4

>  <Target Organism>
Homo sapiens

>  <Target Description>
Target is a single protein chain

>  <Sequence Accession>
P08684

>  <Reference>
Bioorg Med Chem Lett 22 (3), 1464-1468 (2012)

>  <Pubmed ID>
22177783

>  <DOI>
10.1016/j.bmcl.2011.11.054

$$$$
1280906
Actelion Java MolfileCreator 1.0

 43 46  0  0  0  0  0  0  0  0999 V2000
    0.0000   -0.0000   -0.0000 S   0  0  0  0  0  0  0  0  0  0  0  0
   -1.4756   -0.3808   -0.0000 O   0  0  0  0  0  0  0  0  0  0  0  0
   -0.4046   -1.4399   -0.0000 O   0  0  0  0  0  0  0  0  0  0  0  0
    1.2971   -0.7378   -0.0000 N   0  0  0  0  0  0  0  0  0  0  0  0
   -0.0119    1.5232   -0.0000 C   0  0  0  0  0  0  0  0  0  0  0  0
    1.2852   -2.2372   -0.0000 C   0  0  0  0  0  0  0  0  0  0  0  0
    2.5823    0.0238   -0.0000 C   0  0  0  0  0  0  0  0  0  0  0  0
    2.5823   -2.9750   -0.0000 C   0  0  0  0  0  0  0  0  0  0  0  0
    3.8794   -0.7140   -0.0000 C   0  0  0  0  0  0  0  0  0  0  0  0
    3.8794   -2.2134   -0.0000 C   0  0  0  0  0  0  0  0  0  0  0  0
    5.1765   -2.9512   -0.0000 C   0  0  0  0  0  0  0  0  0  0  0  0
    5.1646   -4.4506   -0.0000 C   0  0  0  0  0  0  0  0  0  0  0  0
    6.4736   -2.1896   -0.0000 C   0  0  0  0  0  0  0  0  0  0  0  0
    3.8437   -5.1884   -0.0000 C   0  0  0  0  0  0  0  0  0  0  0  0
    6.4498   -5.1884   -0.0000 C   0  0  0  0  0  0  0  0  0  0  0  0
    7.7707   -2.9274   -0.0000 C   0  0  0  0  0  0  0  0  0  0  0  0
    3.8318   -6.6878   -0.0000 C   0  0  0  0  0  0  0  0  0  0  0  0
    6.4498   -6.6759   -0.0000 C   0  0  0  0  0  0  0  0  0  0  0  0
    9.0678   -2.1658   -0.0000 N   0  0  0  0  0  0  0  0  0  0  0  0
    2.5109   -7.4256   -0.0000 F   0  0  0  0  0  0  0  0  0  0  0  0
    5.1289   -7.4256   -0.0000 C   0  0  0  0  0  0  0  0  0  0  0  0
    7.7469   -7.4137   -0.0000 F   0  0  0  0  0  0  0  0  0  0  0  0
   10.3648   -2.9155   -0.0000 C   0  0  0  0  0  0  0  0  0  0  0  0
    9.0559   -0.6545   -0.0000 C   0  0  0  0  0  0  0  0  0  0  0  0
   11.6500   -2.1539   -0.0000 C   0  0  0  0  0  0  0  0  0  0  0  0
   10.3529    0.1071   -0.0000 C   0  0  0  0  0  0  0  0  0  0  0  0
   11.6381   -0.6307   -0.0000 C   0  0  0  0  0  0  0  0  0  0  0  0
   12.9352    0.1309   -0.0000 N   0  0  0  0  0  0  0  0  0  0  0  0
   14.2323   -0.6188   -0.0000 C   0  0  0  0  0  0  0  0  0  0  0  0
   12.9233    1.6541   -0.0000 C   0  0  0  0  0  0  0  0  0  0  0  0
   14.2204   -2.1182   -0.0000 O   0  0  0  0  0  0  0  0  0  0  0  0
   15.5294    0.1428   -0.0000 C   0  0  0  0  0  0  0  0  0  0  0  0
   14.2204    2.4157   -0.0000 C   0  0  0  0  0  0  0  0  0  0  0  0
   16.8265   -0.6069   -0.0000 C   0  0  0  0  0  0  0  0  0  0  0  0
   16.8027   -2.0944   -0.0000 C   0  0  0  0  0  0  0  0  0  0  0  0
   18.1117    0.1547   -0.0000 C   0  0  0  0  0  0  0  0  0  0  0  0
   18.0879   -2.8441   -0.0000 C   0  0  0  0  0  0  0  0  0  0  0  0
   19.3969   -0.5831   -0.0000 C   0  0  0  0  0  0  0  0  0  0  0  0
   19.3850   -2.0825   -0.0000 C   0  0  0  0  0  0  0  0  0  0  0  0
   20.6821   -2.8203   -0.0000 S   0  0  0  0  0  0  0  0  0  0  0  0
   21.4199   -1.4994   -0.0000 O   0  0  0  0  0  0  0  0  0  0  0  0
   22.1220   -3.2011   -0.0000 O   0  0  0  0  0  0  0  0  0  0  0  0
   20.6702   -4.3197   -0.0000 C   0  0  0  0  0  0  0  0  0  0  0  0
  1  2  2  0  0  0  0
  1  3  2  0  0  0  0
  1  4  1  0  0  0  0
  1  5  1  0  0  0  0
  4  6  1  0  0  0  0
  4  7  1  0  0  0  0
  6  8  1  0  0  0  0
  7  9  1  0  0  0  0
  8 10  1  0  0  0  0
 10 11  1  0  0  0  0
 11 12  1  0  0  0  0
 11 13  1  6  0  0  0
 12 14  2  0  0  0  0
 12 15  1  0  0  0  0
 13 16  1  0  0  0  0
 14 17  1  0  0  0  0
 15 18  2  0  0  0  0
 16 19  1  0  0  0  0
 17 20  1  0  0  0  0
 17 21  2  0  0  0  0
 18 22  1  0  0  0  0
 19 23  1  0  0  0  0
 19 24  1  0  0  0  0
 23 25  1  0  0  0  0
 24 26  1  0  0  0  0
 25 27  1  0  0  0  0
 27 28  1  0  0  0  0
 28 29  1  0  0  0  0
 28 30  1  0  0  0  0
 29 31  2  0  0  0  0
 29 32  1  0  0  0  0
 30 33  1  0  0  0  0
 32 34  1  0  0  0  0
 34 35  2  0  0  0  0
 34 36  1  0  0  0  0
 35 37  1  0  0  0  0
 36 38  2  0  0  0  0
 37 39  2  0  0  0  0
 39 40  1  0  0  0  0
 40 41  2  0  0  0  0
 40 42  2  0  0  0  0
 40 43  1  0  0  0  0
  9 10  1  0  0  0  0
 18 21  1  0  0  0  0
 26 27  1  0  0  0  0
 38 39  1  0  0  0  0
M  END
>  <MolRegNo>
1280906

>  <m>
=

>  <Value>
9000

>  <Unit>
nM

>  <Type>
IC50

>  <pValue>
5.05

>  <Ligand Efficiency>
0

>  <Binding Efficiency>
0

>  <Surface Efficiency>
0

>  <Assay Index>
637568

>  <Assay Category>


>  <Assay Organism>


>  <Target ID>
17045

>  <Target Name>
Cytochrome P450 3A4

>  <Target Organism>
Homo sapiens

>  <Target Description>
Target is a single protein chain

>  <Sequence Accession>
P08684

>  <Reference>
Bioorg Med Chem Lett 22 (4), 1655-1659 (2012)

>  <Pubmed ID>
22266038

>  <DOI>
10.1016/j.bmcl.2011.12.117

$$$$
1281136
Actelion Java MolfileCreator 1.0

 30 33  0  0  0  0  0  0  0  0999 V2000
    0.0000   -0.0000   -0.0000 F   0  0  0  0  0  0  0  0  0  0  0  0
   -1.5032    0.0237   -0.0000 C   0  0  0  0  0  0  0  0  0  0  0  0
   -2.2608   -1.2547   -0.0000 F   0  0  0  0  0  0  0  0  0  0  0  0
   -0.7812   -1.2428   -0.0000 F   0  0  0  0  0  0  0  0  0  0  0  0
   -2.2608    1.3257   -0.0000 O   0  0  0  0  0  0  0  0  0  0  0  0
   -3.7640    1.3494   -0.0000 C   0  0  0  0  0  0  0  0  0  0  0  0
   -4.5097    2.6514   -0.0000 C   0  0  0  0  0  0  0  0  0  0  0  0
   -4.5334    0.0710   -0.0000 C   0  0  0  0  0  0  0  0  0  0  0  0
   -6.0130    2.6751   -0.0000 C   0  0  0  0  0  0  0  0  0  0  0  0
   -6.0366    0.0947   -0.0000 C   0  0  0  0  0  0  0  0  0  0  0  0
   -6.7587    3.9771   -0.0000 N   0  0  0  0  0  0  0  0  0  0  0  0
   -6.7823    1.3967   -0.0000 C   0  0  0  0  0  0  0  0  0  0  0  0
   -5.8828    5.2081   -0.0000 N   0  0  0  0  0  0  0  0  0  0  0  0
   -8.2027    4.4505   -0.0000 C   0  0  0  0  0  0  0  0  0  0  0  0
   -6.7823    6.4391   -0.0000 N   0  0  0  0  0  0  0  0  0  0  0  0
   -9.5048    3.7167   -0.0000 N   0  0  0  0  0  0  0  0  0  0  0  0
   -8.2146    5.9656   -0.0000 C   0  0  0  0  0  0  0  0  0  0  0  0
  -10.8068    4.4742   -0.0000 C   0  0  0  0  0  0  0  0  0  0  0  0
   -9.5166    6.7232   -0.0000 C   0  0  0  0  0  0  0  0  0  0  0  0
  -12.1088    3.7404   -0.0000 N   0  0  0  0  0  0  0  0  0  0  0  0
  -10.8186    5.9775   -0.0000 C   0  0  0  0  0  0  0  0  0  0  0  0
   -9.5284    8.2264   -0.0000 O   0  0  0  0  0  0  0  0  0  0  0  0
  -13.4108    4.4979   -0.0000 C   0  0  0  0  0  0  0  0  0  0  0  0
   -8.2501    8.9839   -0.0000 C   0  0  0  0  0  0  0  0  0  0  0  0
  -14.7128    3.7640   -0.0000 C   0  0  0  0  0  0  0  0  0  0  0  0
  -16.0149    4.5334   -0.0000 C   0  0  0  0  0  0  0  0  0  0  0  0
  -14.7128    2.2963   -0.0000 C   0  0  0  0  0  0  0  0  0  0  0  0
  -17.3169    3.8114   -0.0000 C   0  0  0  0  0  0  0  0  0  0  0  0
  -16.0267    1.5624   -0.0000 C   0  0  0  0  0  0  0  0  0  0  0  0
  -17.3406    2.3318   -0.0000 N   0  0  0  0  0  0  0  0  0  0  0  0
  1  2  1  0  0  0  0
  2  3  1  0  0  0  0
  2  4  1  0  0  0  0
  2  5  1  0  0  0  0
  5  6  1  0  0  0  0
  6  7  2  0  0  0  0
  6  8  1  0  0  0  0
  7  9  1  0  0  0  0
  8 10  2  0  0  0  0
  9 11  1  0  0  0  0
  9 12  2  0  0  0  0
 11 13  1  0  0  0  0
 11 14  1  0  0  0  0
 13 15  2  0  0  0  0
 14 16  2  0  0  0  0
 14 17  1  0  0  0  0
 16 18  1  0  0  0  0
 17 19  2  0  0  0  0
 18 20  1  0  0  0  0
 18 21  2  0  0  0  0
 19 22  1  0  0  0  0
 20 23  1  0  0  0  0
 22 24  1  0  0  0  0
 23 25  1  0  0  0  0
 25 26  1  0  0  0  0
 25 27  1  0  0  0  0
 26 28  1  0  0  0  0
 27 29  1  0  0  0  0
 28 30  1  0  0  0  0
 10 12  1  0  0  0  0
 15 17  1  0  0  0  0
 19 21  1  0  0  0  0
 29 30  1  0  0  0  0
M  END
>  <MolRegNo>
1281136

>  <m>
=

>  <Value>
4500

>  <Unit>
nM

>  <Type>
IC50

>  <pValue>
5.35

>  <Ligand Efficiency>
0

>  <Binding Efficiency>
0

>  <Surface Efficiency>
0

>  <Assay Index>
637724

>  <Assay Category>


>  <Assay Organism>
Homo sapiens

>  <Target ID>
17045

>  <Target Name>
Cytochrome P450 3A4

>  <Target Organism>
Homo sapiens

>  <Target Description>
Target is a single protein chain

>  <Sequence Accession>
P08684

>  <Reference>
Bioorg Med Chem Lett 22 (4), 1591-1597 (2012)

>  <Pubmed ID>
22266039

>  <DOI>
10.1016/j.bmcl.2011.12.130

$$$$
1279064
Actelion Java MolfileCreator 1.0

 25 28  0  0  0  0  0  0  0  0999 V2000
    0.0000   -0.0000   -0.0000 Cl  0  0  0  0  0  0  0  0  0  0  0  0
    1.2905    0.7577   -0.0000 C   0  0  0  0  0  0  0  0  0  0  0  0
    2.5810    0.0237   -0.0000 C   0  0  0  0  0  0  0  0  0  0  0  0
    1.2787    2.2732   -0.0000 C   0  0  0  0  0  0  0  0  0  0  0  0
    3.8715    0.7932   -0.0000 C   0  0  0  0  0  0  0  0  0  0  0  0
    2.5573    3.0309   -0.0000 C   0  0  0  0  0  0  0  0  0  0  0  0
    3.8597    2.3087   -0.0000 C   0  0  0  0  0  0  0  0  0  0  0  0
    5.1620    0.0592   -0.0000 C   0  0  0  0  0  0  0  0  0  0  0  0
    2.5455    4.5464   -0.0000 C   0  0  0  0  0  0  0  0  0  0  0  0
    5.1383    3.0783   -0.0000 N   0  0  0  0  0  0  0  0  0  0  0  0
    6.4525    0.8169   -0.0000 C   0  0  0  0  0  0  0  0  0  0  0  0
    5.1502   -1.4326   -0.0000 C   0  0  0  0  0  0  0  0  0  0  0  0
    6.4288    2.3442   -0.0000 C   0  0  0  0  0  0  0  0  0  0  0  0
    7.8851    0.3670   -0.0000 C   0  0  0  0  0  0  0  0  0  0  0  0
    6.4407   -2.1666   -0.0000 O   0  0  0  0  0  0  0  0  0  0  0  0
    3.8360   -2.1785   -0.0000 C   0  0  0  0  0  0  0  0  0  0  0  0
    7.8496    2.8296   -0.0000 N   0  0  0  0  0  0  0  0  0  0  0  0
    8.7612    1.6102   -0.0000 N   0  0  0  0  0  0  0  0  0  0  0  0
    8.3468   -1.0419   -0.0000 C   0  0  0  0  0  0  0  0  0  0  0  0
    2.5336   -1.4207   -0.0000 C   0  0  0  0  0  0  0  0  0  0  0  0
    3.8360   -3.6584   -0.0000 C   0  0  0  0  0  0  0  0  0  0  0  0
    1.2313   -2.1548   -0.0000 N   0  0  0  0  0  0  0  0  0  0  0  0
    2.5336   -4.4043   -0.0000 N   0  0  0  0  0  0  0  0  0  0  0  0
    1.2195   -3.6466   -0.0000 C   0  0  0  0  0  0  0  0  0  0  0  0
   -0.0829   -4.3924   -0.0000 C   0  0  0  0  0  0  0  0  0  0  0  0
  1  2  1  0  0  0  0
  2  3  2  0  0  0  0
  2  4  1  0  0  0  0
  3  5  1  0  0  0  0
  4  6  2  0  0  0  0
  5  7  1  0  0  0  0
  5  8  2  0  0  0  0
  6  9  1  0  0  0  0
  7 10  2  0  0  0  0
  8 11  1  0  0  0  0
  8 12  1  0  0  0  0
 10 13  1  0  0  0  0
 11 14  1  0  0  0  0
 12 15  1  0  0  0  0
 12 16  1  0  0  0  0
 13 17  1  0  0  0  0
 14 18  2  0  0  0  0
 14 19  1  0  0  0  0
 16 20  2  0  0  0  0
 16 21  1  0  0  0  0
 20 22  1  0  0  0  0
 21 23  2  0  0  0  0
 22 24  2  0  0  0  0
 24 25  1  0  0  0  0
  6  7  1  0  0  0  0
 11 13  2  0  0  0  0
 17 18  1  0  0  0  0
 23 24  1  0  0  0  0
M  END
>  <MolRegNo>
1279064

>  <m>
=

>  <Value>
7900

>  <Unit>
nM

>  <Type>
IC50

>  <pValue>
5.1

>  <Ligand Efficiency>
0

>  <Binding Efficiency>
0

>  <Surface Efficiency>
0

>  <Assay Index>
639273

>  <Assay Category>


>  <Assay Organism>


>  <Target ID>
17045

>  <Target Name>
Cytochrome P450 3A4

>  <Target Organism>
Homo sapiens

>  <Target Description>
Target is a single protein chain

>  <Sequence Accession>
P08684

>  <Reference>
Bioorg Med Chem Lett 22 (3), 1335-1339 (2012)

>  <Pubmed ID>
22227212

>  <DOI>
10.1016/j.bmcl.2011.12.080

$$$$
1279063
Actelion Java MolfileCreator 1.0

 24 27  0  0  0  0  0  0  0  0999 V2000
    0.0000   -0.0000   -0.0000 Cl  0  0  0  0  0  0  0  0  0  0  0  0
    1.2889    0.7568   -0.0000 C   0  0  0  0  0  0  0  0  0  0  0  0
    2.5778    0.0236   -0.0000 C   0  0  0  0  0  0  0  0  0  0  0  0
    1.2771    2.2704   -0.0000 C   0  0  0  0  0  0  0  0  0  0  0  0
    3.8667    0.7923   -0.0000 C   0  0  0  0  0  0  0  0  0  0  0  0
    2.5542    3.0272   -0.0000 C   0  0  0  0  0  0  0  0  0  0  0  0
    3.8549    2.3058   -0.0000 C   0  0  0  0  0  0  0  0  0  0  0  0
    5.1556    0.0591   -0.0000 C   0  0  0  0  0  0  0  0  0  0  0  0
    2.5423    4.5407   -0.0000 C   0  0  0  0  0  0  0  0  0  0  0  0
    5.1320    3.1218   -0.0000 N   0  0  0  0  0  0  0  0  0  0  0  0
    6.4445    0.8159   -0.0000 C   0  0  0  0  0  0  0  0  0  0  0  0
    5.1438   -1.4308   -0.0000 C   0  0  0  0  0  0  0  0  0  0  0  0
    6.4209    2.3413   -0.0000 C   0  0  0  0  0  0  0  0  0  0  0  0
    7.8754    0.3666   -0.0000 C   0  0  0  0  0  0  0  0  0  0  0  0
    6.4327   -2.1639   -0.0000 O   0  0  0  0  0  0  0  0  0  0  0  0
    3.8313   -2.1758   -0.0000 C   0  0  0  0  0  0  0  0  0  0  0  0
    7.8399    2.8261   -0.0000 N   0  0  0  0  0  0  0  0  0  0  0  0
    8.7504    1.6082   -0.0000 N   0  0  0  0  0  0  0  0  0  0  0  0
    8.3365   -1.0406   -0.0000 C   0  0  0  0  0  0  0  0  0  0  0  0
    3.7958   -3.6657   -0.0000 N   0  0  0  0  0  0  0  0  0  0  0  0
    2.4004   -1.6791   -0.0000 C   0  0  0  0  0  0  0  0  0  0  0  0
    2.3531   -4.0914   -0.0000 C   0  0  0  0  0  0  0  0  0  0  0  0
    4.9783   -4.5526   -0.0000 C   0  0  0  0  0  0  0  0  0  0  0  0
    1.4899   -2.8616   -0.0000 N   0  0  0  0  0  0  0  0  0  0  0  0
  1  2  1  0  0  0  0
  2  3  2  0  0  0  0
  2  4  1  0  0  0  0
  3  5  1  0  0  0  0
  4  6  2  0  0  0  0
  5  7  1  0  0  0  0
  5  8  2  0  0  0  0
  6  9  1  0  0  0  0
  7 10  2  0  0  0  0
  8 11  1  0  0  0  0
  8 12  1  0  0  0  0
 10 13  1  0  0  0  0
 11 14  1  0  0  0  0
 12 15  1  0  0  0  0
 12 16  1  0  0  0  0
 13 17  1  0  0  0  0
 14 18  2  0  0  0  0
 14 19  1  0  0  0  0
 16 20  1  0  0  0  0
 16 21  2  0  0  0  0
 20 22  1  0  0  0  0
 20 23  1  0  0  0  0
 21 24  1  0  0  0  0
  6  7  1  0  0  0  0
 11 13  2  0  0  0  0
 17 18  1  0  0  0  0
 22 24  2  0  0  0  0
M  END
>  <MolRegNo>
1279063

>  <m>
=

>  <Value>
300

>  <Unit>
nM

>  <Type>
IC50

>  <pValue>
6.52

>  <Ligand Efficiency>
0

>  <Binding Efficiency>
0

>  <Surface Efficiency>
0

>  <Assay Index>
639273

>  <Assay Category>


>  <Assay Organism>


>  <Target ID>
17045

>  <Target Name>
Cytochrome P450 3A4

>  <Target Organism>
Homo sapiens

>  <Target Description>
Target is a single protein chain

>  <Sequence Accession>
P08684

>  <Reference>
Bioorg Med Chem Lett 22 (3), 1335-1339 (2012)

>  <Pubmed ID>
22227212

>  <DOI>
10.1016/j.bmcl.2011.12.080

$$$$
1279062
Actelion Java MolfileCreator 1.0

 23 26  0  0  0  0  0  0  0  0999 V2000
    0.0000   -0.0000   -0.0000 Cl  0  0  0  0  0  0  0  0  0  0  0  0
    1.2861    0.7551   -0.0000 C   0  0  0  0  0  0  0  0  0  0  0  0
    2.5721    0.0236   -0.0000 C   0  0  0  0  0  0  0  0  0  0  0  0
    1.2743    2.2654   -0.0000 C   0  0  0  0  0  0  0  0  0  0  0  0
    3.8582    0.7905   -0.0000 C   0  0  0  0  0  0  0  0  0  0  0  0
    2.5485    3.0205   -0.0000 C   0  0  0  0  0  0  0  0  0  0  0  0
    3.8464    2.3008   -0.0000 C   0  0  0  0  0  0  0  0  0  0  0  0
    5.1443    0.0590   -0.0000 C   0  0  0  0  0  0  0  0  0  0  0  0
    2.5368    4.5308   -0.0000 C   0  0  0  0  0  0  0  0  0  0  0  0
    5.1207    3.1739   -0.0000 N   0  0  0  0  0  0  0  0  0  0  0  0
    6.4304    0.8141   -0.0000 C   0  0  0  0  0  0  0  0  0  0  0  0
    5.1325   -1.4277   -0.0000 C   0  0  0  0  0  0  0  0  0  0  0  0
    6.4068    2.3362   -0.0000 C   0  0  0  0  0  0  0  0  0  0  0  0
    7.8580    0.3658   -0.0000 C   0  0  0  0  0  0  0  0  0  0  0  0
    6.4186   -2.1592   -0.0000 O   0  0  0  0  0  0  0  0  0  0  0  0
    3.8228   -2.1710   -0.0000 C   0  0  0  0  0  0  0  0  0  0  0  0
    7.8226    2.8199   -0.0000 N   0  0  0  0  0  0  0  0  0  0  0  0
    8.7311    1.6046   -0.0000 N   0  0  0  0  0  0  0  0  0  0  0  0
    8.3182   -1.0383   -0.0000 C   0  0  0  0  0  0  0  0  0  0  0  0
    3.7874   -3.6576   -0.0000 O   0  0  0  0  0  0  0  0  0  0  0  0
    2.3952   -1.6754   -0.0000 N   0  0  0  0  0  0  0  0  0  0  0  0
    2.3480   -4.0824   -0.0000 C   0  0  0  0  0  0  0  0  0  0  0  0
    1.4867   -2.8553   -0.0000 C   0  0  0  0  0  0  0  0  0  0  0  0
  1  2  1  0  0  0  0
  2  3  2  0  0  0  0
  2  4  1  0  0  0  0
  3  5  1  0  0  0  0
  4  6  2  0  0  0  0
  5  7  1  0  0  0  0
  5  8  2  0  0  0  0
  6  9  1  0  0  0  0
  7 10  2  0  0  0  0
  8 11  1  0  0  0  0
  8 12  1  0  0  0  0
 10 13  1  0  0  0  0
 11 14  1  0  0  0  0
 12 15  1  0  0  0  0
 12 16  1  0  0  0  0
 13 17  1  0  0  0  0
 14 18  2  0  0  0  0
 14 19  1  0  0  0  0
 16 20  1  0  0  0  0
 16 21  2  0  0  0  0
 20 22  1  0  0  0  0
 21 23  1  0  0  0  0
  6  7  1  0  0  0  0
 11 13  2  0  0  0  0
 17 18  1  0  0  0  0
 22 23  2  0  0  0  0
M  END
>  <MolRegNo>
1279062

>  <m>
=

>  <Value>
7400

>  <Unit>
nM

>  <Type>
IC50

>  <pValue>
5.13

>  <Ligand Efficiency>
0

>  <Binding Efficiency>
0

>  <Surface Efficiency>
0

>  <Assay Index>
639273

>  <Assay Category>


>  <Assay Organism>


>  <Target ID>
17045

>  <Target Name>
Cytochrome P450 3A4

>  <Target Organism>
Homo sapiens

>  <Target Description>
Target is a single protein chain

>  <Sequence Accession>
P08684

>  <Reference>
Bioorg Med Chem Lett 22 (3), 1335-1339 (2012)

>  <Pubmed ID>
22227212

>  <DOI>
10.1016/j.bmcl.2011.12.080

$$$$
1279060
Actelion Java MolfileCreator 1.0

 24 27  0  0  0  0  0  0  0  0999 V2000
    0.0000   -0.0000   -0.0000 Cl  0  0  0  0  0  0  0  0  0  0  0  0
    1.2902    0.7575   -0.0000 C   0  0  0  0  0  0  0  0  0  0  0  0
    2.5804    0.0237   -0.0000 C   0  0  0  0  0  0  0  0  0  0  0  0
    1.2784    2.2726   -0.0000 C   0  0  0  0  0  0  0  0  0  0  0  0
    3.8706    0.7931   -0.0000 C   0  0  0  0  0  0  0  0  0  0  0  0
    2.5567    3.0302   -0.0000 C   0  0  0  0  0  0  0  0  0  0  0  0
    3.8588    2.3081   -0.0000 C   0  0  0  0  0  0  0  0  0  0  0  0
    5.1608    0.0592   -0.0000 C   0  0  0  0  0  0  0  0  0  0  0  0
    2.5449    4.5453   -0.0000 C   0  0  0  0  0  0  0  0  0  0  0  0
    5.1371    3.0775   -0.0000 N   0  0  0  0  0  0  0  0  0  0  0  0
    6.4510    0.8167   -0.0000 C   0  0  0  0  0  0  0  0  0  0  0  0
    5.1489   -1.4322   -0.0000 C   0  0  0  0  0  0  0  0  0  0  0  0
    6.4273    2.3437   -0.0000 C   0  0  0  0  0  0  0  0  0  0  0  0
    7.8832    0.3669   -0.0000 C   0  0  0  0  0  0  0  0  0  0  0  0
    6.4391   -2.1661   -0.0000 O   0  0  0  0  0  0  0  0  0  0  0  0
    3.8351   -2.1779   -0.0000 C   0  0  0  0  0  0  0  0  0  0  0  0
    7.8477    2.8290   -0.0000 N   0  0  0  0  0  0  0  0  0  0  0  0
    8.7591    1.6098   -0.0000 N   0  0  0  0  0  0  0  0  0  0  0  0
    8.3448   -1.0416   -0.0000 C   0  0  0  0  0  0  0  0  0  0  0  0
    3.8351   -3.6575   -0.0000 N   0  0  0  0  0  0  0  0  0  0  0  0
    2.5330   -1.4204   -0.0000 C   0  0  0  0  0  0  0  0  0  0  0  0
    2.5330   -4.4032   -0.0000 C   0  0  0  0  0  0  0  0  0  0  0  0
    1.2310   -2.1543   -0.0000 C   0  0  0  0  0  0  0  0  0  0  0  0
    1.2073   -3.6457   -0.0000 C   0  0  0  0  0  0  0  0  0  0  0  0
  1  2  1  0  0  0  0
  2  3  2  0  0  0  0
  2  4  1  0  0  0  0
  3  5  1  0  0  0  0
  4  6  2  0  0  0  0
  5  7  1  0  0  0  0
  5  8  2  0  0  0  0
  6  9  1  0  0  0  0
  7 10  2  0  0  0  0
  8 11  1  0  0  0  0
  8 12  1  0  0  0  0
 10 13  1  0  0  0  0
 11 14  1  0  0  0  0
 12 15  1  0  0  0  0
 12 16  1  0  0  0  0
 13 17  1  0  0  0  0
 14 18  2  0  0  0  0
 14 19  1  0  0  0  0
 16 20  2  0  0  0  0
 16 21  1  0  0  0  0
 20 22  1  0  0  0  0
 21 23  2  0  0  0  0
 22 24  2  0  0  0  0
  6  7  1  0  0  0  0
 11 13  2  0  0  0  0
 17 18  1  0  0  0  0
 23 24  1  0  0  0  0
M  END
>  <MolRegNo>
1279060

>  <m>
=

>  <Value>
1800

>  <Unit>
nM

>  <Type>
IC50

>  <pValue>
5.75

>  <Ligand Efficiency>
0

>  <Binding Efficiency>
0

>  <Surface Efficiency>
0

>  <Assay Index>
639273

>  <Assay Category>


>  <Assay Organism>


>  <Target ID>
17045

>  <Target Name>
Cytochrome P450 3A4

>  <Target Organism>
Homo sapiens

>  <Target Description>
Target is a single protein chain

>  <Sequence Accession>
P08684

>  <Reference>
Bioorg Med Chem Lett 22 (3), 1335-1339 (2012)

>  <Pubmed ID>
22227212

>  <DOI>
10.1016/j.bmcl.2011.12.080

$$$$
1279059
Actelion Java MolfileCreator 1.0

 24 27  0  0  0  0  0  0  0  0999 V2000
    0.0000   -0.0000   -0.0000 Cl  0  0  0  0  0  0  0  0  0  0  0  0
    1.2902    0.7575   -0.0000 C   0  0  0  0  0  0  0  0  0  0  0  0
    2.5804    0.0237   -0.0000 C   0  0  0  0  0  0  0  0  0  0  0  0
    1.2784    2.2726   -0.0000 C   0  0  0  0  0  0  0  0  0  0  0  0
    3.8706    0.7931   -0.0000 C   0  0  0  0  0  0  0  0  0  0  0  0
    2.5567    3.0302   -0.0000 C   0  0  0  0  0  0  0  0  0  0  0  0
    3.8588    2.3081   -0.0000 C   0  0  0  0  0  0  0  0  0  0  0  0
    5.1608    0.0592   -0.0000 C   0  0  0  0  0  0  0  0  0  0  0  0
    2.5449    4.5453   -0.0000 C   0  0  0  0  0  0  0  0  0  0  0  0
    5.1371    3.0775   -0.0000 N   0  0  0  0  0  0  0  0  0  0  0  0
    6.4510    0.8167   -0.0000 C   0  0  0  0  0  0  0  0  0  0  0  0
    5.1489   -1.4322   -0.0000 C   0  0  0  0  0  0  0  0  0  0  0  0
    6.4273    2.3437   -0.0000 C   0  0  0  0  0  0  0  0  0  0  0  0
    7.8832    0.3669   -0.0000 C   0  0  0  0  0  0  0  0  0  0  0  0
    6.4391   -2.1661   -0.0000 O   0  0  0  0  0  0  0  0  0  0  0  0
    3.8351   -2.1779   -0.0000 C   0  0  0  0  0  0  0  0  0  0  0  0
    7.8477    2.8290   -0.0000 N   0  0  0  0  0  0  0  0  0  0  0  0
    8.7591    1.6098   -0.0000 N   0  0  0  0  0  0  0  0  0  0  0  0
    8.3448   -1.0416   -0.0000 C   0  0  0  0  0  0  0  0  0  0  0  0
    3.8351   -3.6575   -0.0000 C   0  0  0  0  0  0  0  0  0  0  0  0
    2.5330   -1.4204   -0.0000 C   0  0  0  0  0  0  0  0  0  0  0  0
    2.5330   -4.4032   -0.0000 N   0  0  0  0  0  0  0  0  0  0  0  0
    1.2310   -2.1543   -0.0000 C   0  0  0  0  0  0  0  0  0  0  0  0
    1.2073   -3.6457   -0.0000 C   0  0  0  0  0  0  0  0  0  0  0  0
  1  2  1  0  0  0  0
  2  3  2  0  0  0  0
  2  4  1  0  0  0  0
  3  5  1  0  0  0  0
  4  6  2  0  0  0  0
  5  7  1  0  0  0  0
  5  8  2  0  0  0  0
  6  9  1  0  0  0  0
  7 10  2  0  0  0  0
  8 11  1  0  0  0  0
  8 12  1  0  0  0  0
 10 13  1  0  0  0  0
 11 14  1  0  0  0  0
 12 15  1  0  0  0  0
 12 16  1  0  0  0  0
 13 17  1  0  0  0  0
 14 18  2  0  0  0  0
 14 19  1  0  0  0  0
 16 20  2  0  0  0  0
 16 21  1  0  0  0  0
 20 22  1  0  0  0  0
 21 23  2  0  0  0  0
 22 24  2  0  0  0  0
  6  7  1  0  0  0  0
 11 13  2  0  0  0  0
 17 18  1  0  0  0  0
 23 24  1  0  0  0  0
M  END
>  <MolRegNo>
1279059

>  <m>
=

>  <Value>
1100

>  <Unit>
nM

>  <Type>
IC50

>  <pValue>
5.96

>  <Ligand Efficiency>
0

>  <Binding Efficiency>
0

>  <Surface Efficiency>
0

>  <Assay Index>
639273

>  <Assay Category>


>  <Assay Organism>


>  <Target ID>
17045

>  <Target Name>
Cytochrome P450 3A4

>  <Target Organism>
Homo sapiens

>  <Target Description>
Target is a single protein chain

>  <Sequence Accession>
P08684

>  <Reference>
Bioorg Med Chem Lett 22 (3), 1335-1339 (2012)

>  <Pubmed ID>
22227212

>  <DOI>
10.1016/j.bmcl.2011.12.080

$$$$
1279058
Actelion Java MolfileCreator 1.0

 24 27  0  0  0  0  0  0  0  0999 V2000
    0.0000   -0.0000   -0.0000 Cl  0  0  0  0  0  0  0  0  0  0  0  0
    1.2892    0.7569   -0.0000 C   0  0  0  0  0  0  0  0  0  0  0  0
    2.5783    0.0237   -0.0000 C   0  0  0  0  0  0  0  0  0  0  0  0
    1.2773    2.2708   -0.0000 C   0  0  0  0  0  0  0  0  0  0  0  0
    3.8675    0.7924   -0.0000 C   0  0  0  0  0  0  0  0  0  0  0  0
    2.5547    3.0277   -0.0000 C   0  0  0  0  0  0  0  0  0  0  0  0
    3.8556    2.3063   -0.0000 C   0  0  0  0  0  0  0  0  0  0  0  0
    5.1566    0.0591   -0.0000 C   0  0  0  0  0  0  0  0  0  0  0  0
    2.5428    4.5416   -0.0000 C   0  0  0  0  0  0  0  0  0  0  0  0
    5.1330    3.1224   -0.0000 N   0  0  0  0  0  0  0  0  0  0  0  0
    6.4458    0.8161   -0.0000 C   0  0  0  0  0  0  0  0  0  0  0  0
    5.1448   -1.4311   -0.0000 C   0  0  0  0  0  0  0  0  0  0  0  0
    6.4221    2.3418   -0.0000 C   0  0  0  0  0  0  0  0  0  0  0  0
    7.8769    0.3666   -0.0000 C   0  0  0  0  0  0  0  0  0  0  0  0
    6.4339   -2.1644   -0.0000 O   0  0  0  0  0  0  0  0  0  0  0  0
    3.8320   -2.1644   -0.0000 C   0  0  0  0  0  0  0  0  0  0  0  0
    7.8414    2.8267   -0.0000 N   0  0  0  0  0  0  0  0  0  0  0  0
    8.7521    1.6085   -0.0000 N   0  0  0  0  0  0  0  0  0  0  0  0
    8.3381   -1.0408   -0.0000 C   0  0  0  0  0  0  0  0  0  0  0  0
    2.5310   -1.4074   -0.0000 C   0  0  0  0  0  0  0  0  0  0  0  0
    3.8320   -3.6427   -0.0000 C   0  0  0  0  0  0  0  0  0  0  0  0
    1.2300   -2.1407   -0.0000 C   0  0  0  0  0  0  0  0  0  0  0  0
    2.5310   -4.3879   -0.0000 C   0  0  0  0  0  0  0  0  0  0  0  0
    1.2182   -3.6309   -0.0000 N   0  0  0  0  0  0  0  0  0  0  0  0
  1  2  1  0  0  0  0
  2  3  2  0  0  0  0
  2  4  1  0  0  0  0
  3  5  1  0  0  0  0
  4  6  2  0  0  0  0
  5  7  1  0  0  0  0
  5  8  2  0  0  0  0
  6  9  1  0  0  0  0
  7 10  2  0  0  0  0
  8 11  1  0  0  0  0
  8 12  1  0  0  0  0
 10 13  1  0  0  0  0
 11 14  1  0  0  0  0
 12 15  1  0  0  0  0
 12 16  1  0  0  0  0
 13 17  1  0  0  0  0
 14 18  2  0  0  0  0
 14 19  1  0  0  0  0
 16 20  2  0  0  0  0
 16 21  1  0  0  0  0
 20 22  1  0  0  0  0
 21 23  2  0  0  0  0
 22 24  2  0  0  0  0
  6  7  1  0  0  0  0
 11 13  2  0  0  0  0
 17 18  1  0  0  0  0
 23 24  1  0  0  0  0
M  END
>  <MolRegNo>
1279058

>  <m>
=

>  <Value>
300

>  <Unit>
nM

>  <Type>
IC50

>  <pValue>
6.52

>  <Ligand Efficiency>
0

>  <Binding Efficiency>
0

>  <Surface Efficiency>
0

>  <Assay Index>
639273

>  <Assay Category>


>  <Assay Organism>


>  <Target ID>
17045

>  <Target Name>
Cytochrome P450 3A4

>  <Target Organism>
Homo sapiens

>  <Target Description>
Target is a single protein chain

>  <Sequence Accession>
P08684

>  <Reference>
Bioorg Med Chem Lett 22 (3), 1335-1339 (2012)

>  <Pubmed ID>
22227212

>  <DOI>
10.1016/j.bmcl.2011.12.080

$$$$
1279057
Actelion Java MolfileCreator 1.0

 25 28  0  0  0  0  0  0  0  0999 V2000
    0.0000   -0.0000   -0.0000 F   0  0  0  0  0  0  0  0  0  0  0  0
   -1.3039    0.7586   -0.0000 C   0  0  0  0  0  0  0  0  0  0  0  0
   -1.3158    2.2641   -0.0000 C   0  0  0  0  0  0  0  0  0  0  0  0
   -2.6078    0.0237   -0.0000 C   0  0  0  0  0  0  0  0  0  0  0  0
   -2.6197    3.0227   -0.0000 C   0  0  0  0  0  0  0  0  0  0  0  0
   -0.0356    3.0227   -0.0000 C   0  0  0  0  0  0  0  0  0  0  0  0
   -3.9117    0.7823   -0.0000 C   0  0  0  0  0  0  0  0  0  0  0  0
   -2.6078   -1.4462   -0.0000 C   0  0  0  0  0  0  0  0  0  0  0  0
   -2.6315    4.5281   -0.0000 C   0  0  0  0  0  0  0  0  0  0  0  0
   -3.9236    2.2759   -0.0000 C   0  0  0  0  0  0  0  0  0  0  0  0
   -0.0474    4.5400   -0.0000 C   0  0  0  0  0  0  0  0  0  0  0  0
    1.3869    2.5723   -0.0000 C   0  0  0  0  0  0  0  0  0  0  0  0
   -5.2156    0.0474   -0.0000 C   0  0  0  0  0  0  0  0  0  0  0  0
   -3.8999   -2.1811   -0.0000 C   0  0  0  0  0  0  0  0  0  0  0  0
   -1.3513    5.2868   -0.0000 N   0  0  0  0  0  0  0  0  0  0  0  0
   -3.9354    5.2749   -0.0000 C   0  0  0  0  0  0  0  0  0  0  0  0
   -5.2275    3.0346   -0.0000 C   0  0  0  0  0  0  0  0  0  0  0  0
    1.3750    5.0260   -0.0000 N   0  0  0  0  0  0  0  0  0  0  0  0
    2.2522    3.8051   -0.0000 N   0  0  0  0  0  0  0  0  0  0  0  0
    1.8373    1.1617   -0.0000 C   0  0  0  0  0  0  0  0  0  0  0  0
   -5.2275   -1.4343   -0.0000 N   0  0  0  0  0  0  0  0  0  0  0  0
   -5.2394    4.5400   -0.0000 C   0  0  0  0  0  0  0  0  0  0  0  0
   -3.9473    6.7803   -0.0000 C   0  0  0  0  0  0  0  0  0  0  0  0
   -6.5314    2.2996   -0.0000 O   0  0  0  0  0  0  0  0  0  0  0  0
   -7.8353    3.0583   -0.0000 C   0  0  0  0  0  0  0  0  0  0  0  0
  1  2  1  0  0  0  0
  2  3  1  0  0  0  0
  2  4  1  0  0  0  0
  3  5  1  0  0  0  0
  3  6  2  0  0  0  0
  4  7  2  0  0  0  0
  4  8  1  0  0  0  0
  5  9  1  0  0  0  0
  5 10  2  0  0  0  0
  6 11  1  0  0  0  0
  6 12  1  0  0  0  0
  7 13  1  0  0  0  0
  8 14  2  0  0  0  0
  9 15  1  0  0  0  0
  9 16  2  0  0  0  0
 10 17  1  0  0  0  0
 11 18  1  0  0  0  0
 12 19  2  0  0  0  0
 12 20  1  0  0  0  0
 13 21  2  0  0  0  0
 16 22  1  0  0  0  0
 16 23  1  0  0  0  0
 17 24  1  0  0  0  0
 24 25  1  0  0  0  0
 11 15  2  0  0  0  0
 14 21  1  0  0  0  0
 17 22  2  0  0  0  0
 18 19  1  0  0  0  0
M  END
>  <MolRegNo>
1279057

>  <m>
=

>  <Value>
300

>  <Unit>
nM

>  <Type>
IC50

>  <pValue>
6.52

>  <Ligand Efficiency>
0

>  <Binding Efficiency>
0

>  <Surface Efficiency>
0

>  <Assay Index>
639273

>  <Assay Category>


>  <Assay Organism>


>  <Target ID>
17045

>  <Target Name>
Cytochrome P450 3A4

>  <Target Organism>
Homo sapiens

>  <Target Description>
Target is a single protein chain

>  <Sequence Accession>
P08684

>  <Reference>
Bioorg Med Chem Lett 22 (3), 1335-1339 (2012)

>  <Pubmed ID>
22227212

>  <DOI>
10.1016/j.bmcl.2011.12.080

$$$$
1279055
Actelion Java MolfileCreator 1.0

 26 29  0  0  0  0  0  0  0  0999 V2000
    0.0000   -0.0000   -0.0000 O   0  0  0  0  0  0  0  0  0  0  0  0
    1.2903    0.7576   -0.0000 C   0  0  0  0  0  0  0  0  0  0  0  0
   -1.3139    0.7576   -0.0000 C   0  0  0  0  0  0  0  0  0  0  0  0
    2.5805    0.0237   -0.0000 C   0  0  0  0  0  0  0  0  0  0  0  0
    1.2784    2.2728   -0.0000 C   0  0  0  0  0  0  0  0  0  0  0  0
    3.8708    0.7931   -0.0000 C   0  0  0  0  0  0  0  0  0  0  0  0
    2.5568    3.0303   -0.0000 C   0  0  0  0  0  0  0  0  0  0  0  0
    3.8589    2.3083   -0.0000 C   0  0  0  0  0  0  0  0  0  0  0  0
    5.1610    0.0592   -0.0000 C   0  0  0  0  0  0  0  0  0  0  0  0
    2.5450    4.5455   -0.0000 C   0  0  0  0  0  0  0  0  0  0  0  0
    5.1374    3.0777   -0.0000 N   0  0  0  0  0  0  0  0  0  0  0  0
    6.4513    0.8168   -0.0000 C   0  0  0  0  0  0  0  0  0  0  0  0
    5.1492   -1.4323   -0.0000 C   0  0  0  0  0  0  0  0  0  0  0  0
    6.4276    2.3438   -0.0000 C   0  0  0  0  0  0  0  0  0  0  0  0
    7.8836    0.3670   -0.0000 C   0  0  0  0  0  0  0  0  0  0  0  0
    6.4395   -2.1662   -0.0000 O   0  0  0  0  0  0  0  0  0  0  0  0
    3.8353   -2.1781   -0.0000 C   0  0  0  0  0  0  0  0  0  0  0  0
    5.1255   -2.9238   -0.0000 C   0  0  0  0  0  0  0  0  0  0  0  0
    7.8481    2.8291   -0.0000 N   0  0  0  0  0  0  0  0  0  0  0  0
    8.7596    1.6099   -0.0000 N   0  0  0  0  0  0  0  0  0  0  0  0
    8.3453   -1.0417   -0.0000 C   0  0  0  0  0  0  0  0  0  0  0  0
    2.5332   -1.4205   -0.0000 C   0  0  0  0  0  0  0  0  0  0  0  0
    3.8353   -3.6577   -0.0000 C   0  0  0  0  0  0  0  0  0  0  0  0
    1.2311   -2.1544   -0.0000 C   0  0  0  0  0  0  0  0  0  0  0  0
    2.5332   -4.4035   -0.0000 C   0  0  0  0  0  0  0  0  0  0  0  0
    1.2192   -3.6459   -0.0000 N   0  0  0  0  0  0  0  0  0  0  0  0
  1  2  1  0  0  0  0
  1  3  1  0  0  0  0
  2  4  2  0  0  0  0
  2  5  1  0  0  0  0
  4  6  1  0  0  0  0
  5  7  2  0  0  0  0
  6  8  1  0  0  0  0
  6  9  2  0  0  0  0
  7 10  1  0  0  0  0
  8 11  2  0  0  0  0
  9 12  1  0  0  0  0
  9 13  1  0  0  0  0
 11 14  1  0  0  0  0
 12 15  1  0  0  0  0
 13 16  1  0  0  0  0
 13 17  1  0  0  0  0
 13 18  1  0  0  0  0
 14 19  1  0  0  0  0
 15 20  2  0  0  0  0
 15 21  1  0  0  0  0
 17 22  2  0  0  0  0
 17 23  1  0  0  0  0
 22 24  1  0  0  0  0
 23 25  2  0  0  0  0
 24 26  2  0  0  0  0
  7  8  1  0  0  0  0
 12 14  2  0  0  0  0
 19 20  1  0  0  0  0
 25 26  1  0  0  0  0
M  END
>  <MolRegNo>
1279055

>  <m>
=

>  <Value>
7100

>  <Unit>
nM

>  <Type>
IC50

>  <pValue>
5.15

>  <Ligand Efficiency>
0

>  <Binding Efficiency>
0

>  <Surface Efficiency>
0

>  <Assay Index>
639273

>  <Assay Category>


>  <Assay Organism>


>  <Target ID>
17045

>  <Target Name>
Cytochrome P450 3A4

>  <Target Organism>
Homo sapiens

>  <Target Description>
Target is a single protein chain

>  <Sequence Accession>
P08684

>  <Reference>
Bioorg Med Chem Lett 22 (3), 1335-1339 (2012)

>  <Pubmed ID>
22227212

>  <DOI>
10.1016/j.bmcl.2011.12.080

$$$$
1279054
Actelion Java MolfileCreator 1.0

 28 31  0  0  0  0  0  0  0  0999 V2000
    0.0000   -0.0000   -0.0000 O   0  0  0  0  0  0  0  0  0  0  0  0
    1.2897    0.7573   -0.0000 C   0  0  0  0  0  0  0  0  0  0  0  0
   -1.3134    0.7573   -0.0000 C   0  0  0  0  0  0  0  0  0  0  0  0
    2.5794    0.0237   -0.0000 C   0  0  0  0  0  0  0  0  0  0  0  0
    1.2779    2.2718   -0.0000 C   0  0  0  0  0  0  0  0  0  0  0  0
    3.8691    0.7928   -0.0000 C   0  0  0  0  0  0  0  0  0  0  0  0
    2.5557    3.0290   -0.0000 C   0  0  0  0  0  0  0  0  0  0  0  0
    3.8573    2.3073   -0.0000 C   0  0  0  0  0  0  0  0  0  0  0  0
    5.1588    0.0592   -0.0000 C   0  0  0  0  0  0  0  0  0  0  0  0
    2.5439    4.5435   -0.0000 C   0  0  0  0  0  0  0  0  0  0  0  0
    5.1351    3.0763   -0.0000 N   0  0  0  0  0  0  0  0  0  0  0  0
    6.4485    0.8164   -0.0000 C   0  0  0  0  0  0  0  0  0  0  0  0
    5.1470   -1.4317   -0.0000 C   0  0  0  0  0  0  0  0  0  0  0  0
    6.4248    2.3428   -0.0000 C   0  0  0  0  0  0  0  0  0  0  0  0
    7.8802    0.3668   -0.0000 C   0  0  0  0  0  0  0  0  0  0  0  0
    6.4485   -2.1653   -0.0000 C   0  0  0  0  0  0  0  0  0  0  0  0
    3.8336   -2.1771   -0.0000 C   0  0  0  0  0  0  0  0  0  0  0  0
    7.8447    2.8279   -0.0000 N   0  0  0  0  0  0  0  0  0  0  0  0
    8.7558    1.6092   -0.0000 N   0  0  0  0  0  0  0  0  0  0  0  0
    8.3416   -1.0412   -0.0000 C   0  0  0  0  0  0  0  0  0  0  0  0
    7.7382   -2.8989   -0.0000 N   0  0  0  0  0  0  0  0  0  0  0  0
    2.5321   -1.4199   -0.0000 C   0  0  0  0  0  0  0  0  0  0  0  0
    3.8336   -3.6561   -0.0000 C   0  0  0  0  0  0  0  0  0  0  0  0
    1.2305   -2.1534   -0.0000 C   0  0  0  0  0  0  0  0  0  0  0  0
    2.5321   -4.4015   -0.0000 C   0  0  0  0  0  0  0  0  0  0  0  0
    1.2187   -3.6443   -0.0000 C   0  0  0  0  0  0  0  0  0  0  0  0
   -0.0828   -4.3897   -0.0000 O   0  0  0  0  0  0  0  0  0  0  0  0
   -1.3962   -3.6325   -0.0000 C   0  0  0  0  0  0  0  0  0  0  0  0
  1  2  1  0  0  0  0
  1  3  1  0  0  0  0
  2  4  2  0  0  0  0
  2  5  1  0  0  0  0
  4  6  1  0  0  0  0
  5  7  2  0  0  0  0
  6  8  1  0  0  0  0
  6  9  2  0  0  0  0
  7 10  1  0  0  0  0
  8 11  2  0  0  0  0
  9 12  1  0  0  0  0
  9 13  1  0  0  0  0
 11 14  1  0  0  0  0
 12 15  1  0  0  0  0
 13 16  1  0  0  0  0
 13 17  1  0  0  0  0
 14 18  1  0  0  0  0
 15 19  2  0  0  0  0
 15 20  1  0  0  0  0
 16 21  3  0  0  0  0
 17 22  2  0  0  0  0
 17 23  1  0  0  0  0
 22 24  1  0  0  0  0
 23 25  2  0  0  0  0
 24 26  2  0  0  0  0
 26 27  1  0  0  0  0
 27 28  1  0  0  0  0
  7  8  1  0  0  0  0
 12 14  2  0  0  0  0
 18 19  1  0  0  0  0
 25 26  1  0  0  0  0
M  END
>  <MolRegNo>
1279054

>  <m>
=

>  <Value>
300

>  <Unit>
nM

>  <Type>
IC50

>  <pValue>
6.52

>  <Ligand Efficiency>
0

>  <Binding Efficiency>
0

>  <Surface Efficiency>
0

>  <Assay Index>
639273

>  <Assay Category>


>  <Assay Organism>


>  <Target ID>
17045

>  <Target Name>
Cytochrome P450 3A4

>  <Target Organism>
Homo sapiens

>  <Target Description>
Target is a single protein chain

>  <Sequence Accession>
P08684

>  <Reference>
Bioorg Med Chem Lett 22 (3), 1335-1339 (2012)

>  <Pubmed ID>
22227212

>  <DOI>
10.1016/j.bmcl.2011.12.080

$$$$
1279053
Actelion Java MolfileCreator 1.0

 26 29  0  0  0  0  0  0  0  0999 V2000
    0.0000   -0.0000   -0.0000 O   0  0  0  0  0  0  0  0  0  0  0  0
    1.2905    0.7577   -0.0000 C   0  0  0  0  0  0  0  0  0  0  0  0
   -1.3142    0.7577   -0.0000 C   0  0  0  0  0  0  0  0  0  0  0  0
    2.5810    0.0237   -0.0000 C   0  0  0  0  0  0  0  0  0  0  0  0
    1.2786    2.2731   -0.0000 C   0  0  0  0  0  0  0  0  0  0  0  0
    3.8714    0.7932   -0.0000 C   0  0  0  0  0  0  0  0  0  0  0  0
    2.5573    3.0308   -0.0000 C   0  0  0  0  0  0  0  0  0  0  0  0
    3.8596    2.3087   -0.0000 C   0  0  0  0  0  0  0  0  0  0  0  0
    5.1619    0.0592   -0.0000 C   0  0  0  0  0  0  0  0  0  0  0  0
    2.5454    4.5463   -0.0000 C   0  0  0  0  0  0  0  0  0  0  0  0
    5.1382    3.0782   -0.0000 N   0  0  0  0  0  0  0  0  0  0  0  0
    6.4524    0.8169   -0.0000 C   0  0  0  0  0  0  0  0  0  0  0  0
    5.1501   -1.4325   -0.0000 C   0  0  0  0  0  0  0  0  0  0  0  0
    6.4287    2.3442   -0.0000 C   0  0  0  0  0  0  0  0  0  0  0  0
    7.8849    0.3670   -0.0000 C   0  0  0  0  0  0  0  0  0  0  0  0
    6.4405   -2.1666   -0.0000 C   0  0  0  0  0  0  0  0  0  0  0  0
    3.8359   -2.1784   -0.0000 C   0  0  0  0  0  0  0  0  0  0  0  0
    7.8494    2.8296   -0.0000 N   0  0  0  0  0  0  0  0  0  0  0  0
    8.7610    1.6101   -0.0000 N   0  0  0  0  0  0  0  0  0  0  0  0
    8.3467   -1.0419   -0.0000 C   0  0  0  0  0  0  0  0  0  0  0  0
    7.7310   -2.9006   -0.0000 N   0  0  0  0  0  0  0  0  0  0  0  0
    2.5336   -1.4207   -0.0000 C   0  0  0  0  0  0  0  0  0  0  0  0
    3.8359   -3.6583   -0.0000 C   0  0  0  0  0  0  0  0  0  0  0  0
    1.2313   -2.1547   -0.0000 C   0  0  0  0  0  0  0  0  0  0  0  0
    2.5336   -4.4042   -0.0000 C   0  0  0  0  0  0  0  0  0  0  0  0
    1.2194   -3.6465   -0.0000 C   0  0  0  0  0  0  0  0  0  0  0  0
  1  2  1  0  0  0  0
  1  3  1  0  0  0  0
  2  4  2  0  0  0  0
  2  5  1  0  0  0  0
  4  6  1  0  0  0  0
  5  7  2  0  0  0  0
  6  8  1  0  0  0  0
  6  9  2  0  0  0  0
  7 10  1  0  0  0  0
  8 11  2  0  0  0  0
  9 12  1  0  0  0  0
  9 13  1  0  0  0  0
 11 14  1  0  0  0  0
 12 15  1  0  0  0  0
 13 16  1  0  0  0  0
 13 17  1  0  0  0  0
 14 18  1  0  0  0  0
 15 19  2  0  0  0  0
 15 20  1  0  0  0  0
 16 21  3  0  0  0  0
 17 22  2  0  0  0  0
 17 23  1  0  0  0  0
 22 24  1  0  0  0  0
 23 25  2  0  0  0  0
 24 26  2  0  0  0  0
  7  8  1  0  0  0  0
 12 14  2  0  0  0  0
 18 19  1  0  0  0  0
 25 26  1  0  0  0  0
M  END
>  <MolRegNo>
1279053

>  <m>
=

>  <Value>
800

>  <Unit>
nM

>  <Type>
IC50

>  <pValue>
6.1

>  <Ligand Efficiency>
0

>  <Binding Efficiency>
0

>  <Surface Efficiency>
0

>  <Assay Index>
639273

>  <Assay Category>


>  <Assay Organism>


>  <Target ID>
17045

>  <Target Name>
Cytochrome P450 3A4

>  <Target Organism>
Homo sapiens

>  <Target Description>
Target is a single protein chain

>  <Sequence Accession>
P08684

>  <Reference>
Bioorg Med Chem Lett 22 (3), 1335-1339 (2012)

>  <Pubmed ID>
22227212

>  <DOI>
10.1016/j.bmcl.2011.12.080

$$$$
1278913
Actelion Java MolfileCreator 1.0

 25 28  0  0  0  0  0  0  0  0999 V2000
    0.0000   -0.0000   -0.0000 O   0  0  0  0  0  0  0  0  0  0  0  0
    1.2851    0.7545   -0.0000 C   0  0  0  0  0  0  0  0  0  0  0  0
   -1.3087    0.7545   -0.0000 C   0  0  0  0  0  0  0  0  0  0  0  0
    2.5702    0.0236   -0.0000 C   0  0  0  0  0  0  0  0  0  0  0  0
    1.2733    2.2636   -0.0000 C   0  0  0  0  0  0  0  0  0  0  0  0
    3.8553    0.7899   -0.0000 C   0  0  0  0  0  0  0  0  0  0  0  0
    2.5466    3.0182   -0.0000 C   0  0  0  0  0  0  0  0  0  0  0  0
    3.8435    2.2990   -0.0000 C   0  0  0  0  0  0  0  0  0  0  0  0
    5.1403    0.0589   -0.0000 C   0  0  0  0  0  0  0  0  0  0  0  0
    2.5348    4.5273   -0.0000 C   0  0  0  0  0  0  0  0  0  0  0  0
    5.1168    3.2304   -0.0000 N   0  0  0  0  0  0  0  0  0  0  0  0
    6.4254    0.8135   -0.0000 C   0  0  0  0  0  0  0  0  0  0  0  0
    5.1286   -1.4266   -0.0000 C   0  0  0  0  0  0  0  0  0  0  0  0
    6.4019    2.3344   -0.0000 C   0  0  0  0  0  0  0  0  0  0  0  0
    7.8520    0.3655   -0.0000 C   0  0  0  0  0  0  0  0  0  0  0  0
    6.4136   -2.1575   -0.0000 O   0  0  0  0  0  0  0  0  0  0  0  0
    3.8199   -2.1693   -0.0000 C   0  0  0  0  0  0  0  0  0  0  0  0
    7.8166    2.8178   -0.0000 N   0  0  0  0  0  0  0  0  0  0  0  0
    8.7244    1.6034   -0.0000 N   0  0  0  0  0  0  0  0  0  0  0  0
    8.3118   -1.0375   -0.0000 C   0  0  0  0  0  0  0  0  0  0  0  0
    3.7845   -3.6430   -0.0000 N   0  0  0  0  0  0  0  0  0  0  0  0
    2.3933   -1.6741   -0.0000 C   0  0  0  0  0  0  0  0  0  0  0  0
    2.3462   -4.0675   -0.0000 C   0  0  0  0  0  0  0  0  0  0  0  0
    4.9635   -4.5273   -0.0000 C   0  0  0  0  0  0  0  0  0  0  0  0
    1.4855   -2.8531   -0.0000 N   0  0  0  0  0  0  0  0  0  0  0  0
  1  2  1  0  0  0  0
  1  3  1  0  0  0  0
  2  4  2  0  0  0  0
  2  5  1  0  0  0  0
  4  6  1  0  0  0  0
  5  7  2  0  0  0  0
  6  8  1  0  0  0  0
  6  9  2  0  0  0  0
  7 10  1  0  0  0  0
  8 11  2  0  0  0  0
  9 12  1  0  0  0  0
  9 13  1  0  0  0  0
 11 14  1  0  0  0  0
 12 15  1  0  0  0  0
 13 16  1  0  0  0  0
 13 17  1  0  0  0  0
 14 18  1  0  0  0  0
 15 19  2  0  0  0  0
 15 20  1  0  0  0  0
 17 21  1  0  0  0  0
 17 22  2  0  0  0  0
 21 23  1  0  0  0  0
 21 24  1  0  0  0  0
 22 25  1  0  0  0  0
  7  8  1  0  0  0  0
 12 14  2  0  0  0  0
 18 19  1  0  0  0  0
 23 25  2  0  0  0  0
M  END
>  <MolRegNo>
1278913

>  <m>
=

>  <Value>
1200

>  <Unit>
nM

>  <Type>
IC50

>  <pValue>
5.92

>  <Ligand Efficiency>
0

>  <Binding Efficiency>
0

>  <Surface Efficiency>
0

>  <Assay Index>
639273

>  <Assay Category>


>  <Assay Organism>


>  <Target ID>
17045

>  <Target Name>
Cytochrome P450 3A4

>  <Target Organism>
Homo sapiens

>  <Target Description>
Target is a single protein chain

>  <Sequence Accession>
P08684

>  <Reference>
Bioorg Med Chem Lett 22 (3), 1335-1339 (2012)

>  <Pubmed ID>
22227212

>  <DOI>
10.1016/j.bmcl.2011.12.080

$$$$
1278912
Actelion Java MolfileCreator 1.0

 24 27  0  0  0  0  0  0  0  0999 V2000
    0.0000   -0.0000   -0.0000 O   0  0  0  0  0  0  0  0  0  0  0  0
    0.0118    1.5008   -0.0000 C   0  0  0  0  0  0  0  0  0  0  0  0
   -1.4299   -0.4254   -0.0000 C   0  0  0  0  0  0  0  0  0  0  0  0
   -1.4063    1.9971   -0.0000 N   0  0  0  0  0  0  0  0  0  0  0  0
    1.2881    2.2571   -0.0000 C   0  0  0  0  0  0  0  0  0  0  0  0
   -2.2926    0.8036   -0.0000 C   0  0  0  0  0  0  0  0  0  0  0  0
    2.5644    1.5244   -0.0000 O   0  0  0  0  0  0  0  0  0  0  0  0
    1.2763    3.7579   -0.0000 C   0  0  0  0  0  0  0  0  0  0  0  0
   -0.0236    4.5142   -0.0000 C   0  0  0  0  0  0  0  0  0  0  0  0
    2.5525    4.5142   -0.0000 C   0  0  0  0  0  0  0  0  0  0  0  0
   -0.0355    6.0150   -0.0000 C   0  0  0  0  0  0  0  0  0  0  0  0
   -1.3235    3.7697   -0.0000 C   0  0  0  0  0  0  0  0  0  0  0  0
    2.5407    6.0268   -0.0000 C   0  0  0  0  0  0  0  0  0  0  0  0
    3.9706    4.0652   -0.0000 C   0  0  0  0  0  0  0  0  0  0  0  0
    1.2408    6.8895   -0.0000 N   0  0  0  0  0  0  0  0  0  0  0  0
   -1.3354    6.7595   -0.0000 C   0  0  0  0  0  0  0  0  0  0  0  0
   -2.6235    4.5260   -0.0000 C   0  0  0  0  0  0  0  0  0  0  0  0
    3.9588    6.5114   -0.0000 N   0  0  0  0  0  0  0  0  0  0  0  0
    4.8333    5.2942   -0.0000 N   0  0  0  0  0  0  0  0  0  0  0  0
    4.4197    2.6589   -0.0000 C   0  0  0  0  0  0  0  0  0  0  0  0
   -2.6353    6.0268   -0.0000 C   0  0  0  0  0  0  0  0  0  0  0  0
   -1.3472    8.2603   -0.0000 C   0  0  0  0  0  0  0  0  0  0  0  0
   -3.9234    3.7934   -0.0000 O   0  0  0  0  0  0  0  0  0  0  0  0
   -5.2233    4.5497   -0.0000 C   0  0  0  0  0  0  0  0  0  0  0  0
  1  2  1  0  0  0  0
  1  3  1  0  0  0  0
  2  4  2  0  0  0  0
  2  5  1  0  0  0  0
  3  6  2  0  0  0  0
  5  7  1  0  0  0  0
  5  8  1  0  0  0  0
  8  9  1  0  0  0  0
  8 10  2  0  0  0  0
  9 11  1  0  0  0  0
  9 12  2  0  0  0  0
 10 13  1  0  0  0  0
 10 14  1  0  0  0  0
 11 15  1  0  0  0  0
 11 16  2  0  0  0  0
 12 17  1  0  0  0  0
 13 18  1  0  0  0  0
 14 19  2  0  0  0  0
 14 20  1  0  0  0  0
 16 21  1  0  0  0  0
 16 22  1  0  0  0  0
 17 23  1  0  0  0  0
 23 24  1  0  0  0  0
  4  6  1  0  0  0  0
 13 15  2  0  0  0  0
 17 21  2  0  0  0  0
 18 19  1  0  0  0  0
M  END
>  <MolRegNo>
1278912

>  <m>
=

>  <Value>
4400

>  <Unit>
nM

>  <Type>
IC50

>  <pValue>
5.36

>  <Ligand Efficiency>
0

>  <Binding Efficiency>
0

>  <Surface Efficiency>
0

>  <Assay Index>
639273

>  <Assay Category>


>  <Assay Organism>


>  <Target ID>
17045

>  <Target Name>
Cytochrome P450 3A4

>  <Target Organism>
Homo sapiens

>  <Target Description>
Target is a single protein chain

>  <Sequence Accession>
P08684

>  <Reference>
Bioorg Med Chem Lett 22 (3), 1335-1339 (2012)

>  <Pubmed ID>
22227212

>  <DOI>
10.1016/j.bmcl.2011.12.080

$$$$
1278911
Actelion Java MolfileCreator 1.0

 26 29  0  0  0  0  0  0  0  0999 V2000
    0.0000   -0.0000   -0.0000 F   0  0  0  0  0  0  0  0  0  0  0  0
    1.2825   -0.7363   -0.0000 C   0  0  0  0  0  0  0  0  0  0  0  0
    1.2706   -2.2206   -0.0000 N   0  0  0  0  0  0  0  0  0  0  0  0
    2.5650    0.0238   -0.0000 C   0  0  0  0  0  0  0  0  0  0  0  0
    2.5650   -2.9569   -0.0000 C   0  0  0  0  0  0  0  0  0  0  0  0
    3.8475   -0.7125   -0.0000 C   0  0  0  0  0  0  0  0  0  0  0  0
    3.8356   -2.1969   -0.0000 C   0  0  0  0  0  0  0  0  0  0  0  0
    5.1300    0.0475   -0.0000 C   0  0  0  0  0  0  0  0  0  0  0  0
    6.4125   -0.6888   -0.0000 O   0  0  0  0  0  0  0  0  0  0  0  0
    5.1181    1.5556   -0.0000 C   0  0  0  0  0  0  0  0  0  0  0  0
    3.8119    2.3156   -0.0000 C   0  0  0  0  0  0  0  0  0  0  0  0
    6.4006    2.3156   -0.0000 C   0  0  0  0  0  0  0  0  0  0  0  0
    3.8000    3.8238   -0.0000 C   0  0  0  0  0  0  0  0  0  0  0  0
    2.5056    1.5675   -0.0000 C   0  0  0  0  0  0  0  0  0  0  0  0
    6.3888    3.8356   -0.0000 C   0  0  0  0  0  0  0  0  0  0  0  0
    7.8256    1.8644   -0.0000 C   0  0  0  0  0  0  0  0  0  0  0  0
    5.1300    4.6431   -0.0000 N   0  0  0  0  0  0  0  0  0  0  0  0
    2.4938    4.5719   -0.0000 C   0  0  0  0  0  0  0  0  0  0  0  0
    1.1994    2.3275   -0.0000 C   0  0  0  0  0  0  0  0  0  0  0  0
    7.8138    4.3225   -0.0000 N   0  0  0  0  0  0  0  0  0  0  0  0
    8.6925    3.0994   -0.0000 N   0  0  0  0  0  0  0  0  0  0  0  0
    8.2769    0.4513   -0.0000 C   0  0  0  0  0  0  0  0  0  0  0  0
    1.1875    3.8356   -0.0000 C   0  0  0  0  0  0  0  0  0  0  0  0
    2.4819    6.0800   -0.0000 C   0  0  0  0  0  0  0  0  0  0  0  0
   -0.1069    1.5913   -0.0000 O   0  0  0  0  0  0  0  0  0  0  0  0
   -1.4131    2.3513   -0.0000 C   0  0  0  0  0  0  0  0  0  0  0  0
  1  2  1  0  0  0  0
  2  3  2  0  0  0  0
  2  4  1  0  0  0  0
  3  5  1  0  0  0  0
  4  6  2  0  0  0  0
  5  7  2  0  0  0  0
  6  8  1  0  0  0  0
  8  9  1  0  0  0  0
  8 10  1  0  0  0  0
 10 11  1  0  0  0  0
 10 12  2  0  0  0  0
 11 13  1  0  0  0  0
 11 14  2  0  0  0  0
 12 15  1  0  0  0  0
 12 16  1  0  0  0  0
 13 17  1  0  0  0  0
 13 18  2  0  0  0  0
 14 19  1  0  0  0  0
 15 20  1  0  0  0  0
 16 21  2  0  0  0  0
 16 22  1  0  0  0  0
 18 23  1  0  0  0  0
 18 24  1  0  0  0  0
 19 25  1  0  0  0  0
 25 26  1  0  0  0  0
  6  7  1  0  0  0  0
 15 17  2  0  0  0  0
 19 23  2  0  0  0  0
 20 21  1  0  0  0  0
M  END
>  <MolRegNo>
1278911

>  <m>
=

>  <Value>
600

>  <Unit>
nM

>  <Type>
IC50

>  <pValue>
6.22

>  <Ligand Efficiency>
0

>  <Binding Efficiency>
0

>  <Surface Efficiency>
0

>  <Assay Index>
639273

>  <Assay Category>


>  <Assay Organism>


>  <Target ID>
17045

>  <Target Name>
Cytochrome P450 3A4

>  <Target Organism>
Homo sapiens

>  <Target Description>
Target is a single protein chain

>  <Sequence Accession>
P08684

>  <Reference>
Bioorg Med Chem Lett 22 (3), 1335-1339 (2012)

>  <Pubmed ID>
22227212

>  <DOI>
10.1016/j.bmcl.2011.12.080

$$$$
1278910
Actelion Java MolfileCreator 1.0

 25 28  0  0  0  0  0  0  0  0999 V2000
    0.0000   -0.0000   -0.0000 O   0  0  0  0  0  0  0  0  0  0  0  0
    1.2882    0.7564   -0.0000 C   0  0  0  0  0  0  0  0  0  0  0  0
   -1.3118    0.7564   -0.0000 C   0  0  0  0  0  0  0  0  0  0  0  0
    2.5764    0.0236   -0.0000 C   0  0  0  0  0  0  0  0  0  0  0  0
    1.2764    2.2691   -0.0000 C   0  0  0  0  0  0  0  0  0  0  0  0
    3.8646    0.7918   -0.0000 C   0  0  0  0  0  0  0  0  0  0  0  0
    2.5527    3.0255   -0.0000 C   0  0  0  0  0  0  0  0  0  0  0  0
    3.8527    2.3046   -0.0000 C   0  0  0  0  0  0  0  0  0  0  0  0
    5.1527    0.0591   -0.0000 C   0  0  0  0  0  0  0  0  0  0  0  0
    2.5409    4.5382   -0.0000 C   0  0  0  0  0  0  0  0  0  0  0  0
    5.1291    3.1200   -0.0000 N   0  0  0  0  0  0  0  0  0  0  0  0
    6.4409    0.8155   -0.0000 C   0  0  0  0  0  0  0  0  0  0  0  0
    5.1409   -1.4300   -0.0000 C   0  0  0  0  0  0  0  0  0  0  0  0
    6.4173    2.3400   -0.0000 C   0  0  0  0  0  0  0  0  0  0  0  0
    7.8709    0.3664   -0.0000 C   0  0  0  0  0  0  0  0  0  0  0  0
    6.4291   -2.1627   -0.0000 O   0  0  0  0  0  0  0  0  0  0  0  0
    3.8291   -2.1746   -0.0000 C   0  0  0  0  0  0  0  0  0  0  0  0
    7.8355    2.8246   -0.0000 N   0  0  0  0  0  0  0  0  0  0  0  0
    8.7455    1.6073   -0.0000 N   0  0  0  0  0  0  0  0  0  0  0  0
    8.3318   -1.0400   -0.0000 C   0  0  0  0  0  0  0  0  0  0  0  0
    3.8291   -3.6518   -0.0000 N   0  0  0  0  0  0  0  0  0  0  0  0
    2.5291   -1.4182   -0.0000 C   0  0  0  0  0  0  0  0  0  0  0  0
    2.5291   -4.3964   -0.0000 C   0  0  0  0  0  0  0  0  0  0  0  0
    1.2291   -2.1509   -0.0000 C   0  0  0  0  0  0  0  0  0  0  0  0
    1.2055   -3.6400   -0.0000 C   0  0  0  0  0  0  0  0  0  0  0  0
  1  2  1  0  0  0  0
  1  3  1  0  0  0  0
  2  4  2  0  0  0  0
  2  5  1  0  0  0  0
  4  6  1  0  0  0  0
  5  7  2  0  0  0  0
  6  8  1  0  0  0  0
  6  9  2  0  0  0  0
  7 10  1  0  0  0  0
  8 11  2  0  0  0  0
  9 12  1  0  0  0  0
  9 13  1  0  0  0  0
 11 14  1  0  0  0  0
 12 15  1  0  0  0  0
 13 16  1  0  0  0  0
 13 17  1  0  0  0  0
 14 18  1  0  0  0  0
 15 19  2  0  0  0  0
 15 20  1  0  0  0  0
 17 21  2  0  0  0  0
 17 22  1  0  0  0  0
 21 23  1  0  0  0  0
 22 24  2  0  0  0  0
 23 25  2  0  0  0  0
  7  8  1  0  0  0  0
 12 14  2  0  0  0  0
 18 19  1  0  0  0  0
 24 25  1  0  0  0  0
M  END
>  <MolRegNo>
1278910

>  <m>
=

>  <Value>
4600

>  <Unit>
nM

>  <Type>
IC50

>  <pValue>
5.34

>  <Ligand Efficiency>
0

>  <Binding Efficiency>
0

>  <Surface Efficiency>
0

>  <Assay Index>
639273

>  <Assay Category>


>  <Assay Organism>


>  <Target ID>
17045

>  <Target Name>
Cytochrome P450 3A4

>  <Target Organism>
Homo sapiens

>  <Target Description>
Target is a single protein chain

>  <Sequence Accession>
P08684

>  <Reference>
Bioorg Med Chem Lett 22 (3), 1335-1339 (2012)

>  <Pubmed ID>
22227212

>  <DOI>
10.1016/j.bmcl.2011.12.080

$$$$
1278908
Actelion Java MolfileCreator 1.0

 25 28  0  0  0  0  0  0  0  0999 V2000
    0.0000   -0.0000   -0.0000 O   0  0  0  0  0  0  0  0  0  0  0  0
    1.2885    0.7566   -0.0000 C   0  0  0  0  0  0  0  0  0  0  0  0
   -1.3122    0.7566   -0.0000 C   0  0  0  0  0  0  0  0  0  0  0  0
    2.5770    0.0236   -0.0000 C   0  0  0  0  0  0  0  0  0  0  0  0
    1.2767    2.2697   -0.0000 C   0  0  0  0  0  0  0  0  0  0  0  0
    3.8655    0.7920   -0.0000 C   0  0  0  0  0  0  0  0  0  0  0  0
    2.5534    3.0262   -0.0000 C   0  0  0  0  0  0  0  0  0  0  0  0
    3.8537    2.3051   -0.0000 C   0  0  0  0  0  0  0  0  0  0  0  0
    5.1540    0.0591   -0.0000 C   0  0  0  0  0  0  0  0  0  0  0  0
    2.5416    4.5393   -0.0000 C   0  0  0  0  0  0  0  0  0  0  0  0
    5.1895    3.1208   -0.0000 N   0  0  0  0  0  0  0  0  0  0  0  0
    6.4425    0.8157   -0.0000 C   0  0  0  0  0  0  0  0  0  0  0  0
    5.1422   -1.4304   -0.0000 C   0  0  0  0  0  0  0  0  0  0  0  0
    6.4189    2.3406   -0.0000 C   0  0  0  0  0  0  0  0  0  0  0  0
    7.8729    0.3665   -0.0000 C   0  0  0  0  0  0  0  0  0  0  0  0
    6.4307   -2.1633   -0.0000 O   0  0  0  0  0  0  0  0  0  0  0  0
    3.8301   -2.1751   -0.0000 C   0  0  0  0  0  0  0  0  0  0  0  0
    7.8374    2.8253   -0.0000 N   0  0  0  0  0  0  0  0  0  0  0  0
    8.7477    1.6077   -0.0000 N   0  0  0  0  0  0  0  0  0  0  0  0
    8.3339   -1.0403   -0.0000 C   0  0  0  0  0  0  0  0  0  0  0  0
    2.5297   -1.4185   -0.0000 C   0  0  0  0  0  0  0  0  0  0  0  0
    3.8301   -3.6527   -0.0000 C   0  0  0  0  0  0  0  0  0  0  0  0
    1.2294   -2.1515   -0.0000 C   0  0  0  0  0  0  0  0  0  0  0  0
    2.5297   -4.3975   -0.0000 C   0  0  0  0  0  0  0  0  0  0  0  0
    1.2176   -3.6409   -0.0000 N   0  0  0  0  0  0  0  0  0  0  0  0
  1  2  1  0  0  0  0
  1  3  1  0  0  0  0
  2  4  2  0  0  0  0
  2  5  1  0  0  0  0
  4  6  1  0  0  0  0
  5  7  2  0  0  0  0
  6  8  1  0  0  0  0
  6  9  2  0  0  0  0
  7 10  1  0  0  0  0
  8 11  2  0  0  0  0
  9 12  1  0  0  0  0
  9 13  1  0  0  0  0
 11 14  1  0  0  0  0
 12 15  1  0  0  0  0
 13 16  1  0  0  0  0
 13 17  1  0  0  0  0
 14 18  1  0  0  0  0
 15 19  2  0  0  0  0
 15 20  1  0  0  0  0
 17 21  2  0  0  0  0
 17 22  1  0  0  0  0
 21 23  1  0  0  0  0
 22 24  2  0  0  0  0
 23 25  2  0  0  0  0
  7  8  1  0  0  0  0
 12 14  2  0  0  0  0
 18 19  1  0  0  0  0
 24 25  1  0  0  0  0
M  END
>  <MolRegNo>
1278908

>  <m>
=

>  <Value>
2900

>  <Unit>
nM

>  <Type>
IC50

>  <pValue>
5.54

>  <Ligand Efficiency>
0

>  <Binding Efficiency>
0

>  <Surface Efficiency>
0

>  <Assay Index>
639273

>  <Assay Category>


>  <Assay Organism>


>  <Target ID>
17045

>  <Target Name>
Cytochrome P450 3A4

>  <Target Organism>
Homo sapiens

>  <Target Description>
Target is a single protein chain

>  <Sequence Accession>
P08684

>  <Reference>
Bioorg Med Chem Lett 22 (3), 1335-1339 (2012)

>  <Pubmed ID>
22227212

>  <DOI>
10.1016/j.bmcl.2011.12.080

$$$$
1279051
Actelion Java MolfileCreator 1.0

 27 30  0  0  0  0  0  0  0  0999 V2000
    0.0000   -0.0000   -0.0000 O   0  0  0  0  0  0  0  0  0  0  0  0
    1.2895    0.7572   -0.0000 C   0  0  0  0  0  0  0  0  0  0  0  0
   -1.3132    0.7572   -0.0000 C   0  0  0  0  0  0  0  0  0  0  0  0
    2.5791    0.0237   -0.0000 C   0  0  0  0  0  0  0  0  0  0  0  0
    1.2777    2.2715   -0.0000 C   0  0  0  0  0  0  0  0  0  0  0  0
    3.8686    0.7926   -0.0000 C   0  0  0  0  0  0  0  0  0  0  0  0
    2.5554    3.0286   -0.0000 C   0  0  0  0  0  0  0  0  0  0  0  0
    3.8568    2.3070   -0.0000 C   0  0  0  0  0  0  0  0  0  0  0  0
    5.1581    0.0592   -0.0000 C   0  0  0  0  0  0  0  0  0  0  0  0
    2.5436    4.5429   -0.0000 C   0  0  0  0  0  0  0  0  0  0  0  0
    5.1345    3.0759   -0.0000 N   0  0  0  0  0  0  0  0  0  0  0  0
    6.4476    0.8163   -0.0000 C   0  0  0  0  0  0  0  0  0  0  0  0
    5.1463   -1.4315   -0.0000 C   0  0  0  0  0  0  0  0  0  0  0  0
    6.4240    2.3424   -0.0000 C   0  0  0  0  0  0  0  0  0  0  0  0
    7.8791    0.3667   -0.0000 C   0  0  0  0  0  0  0  0  0  0  0  0
    6.4358   -2.1650   -0.0000 O   0  0  0  0  0  0  0  0  0  0  0  0
    3.8331   -2.1768   -0.0000 C   0  0  0  0  0  0  0  0  0  0  0  0
    7.8436    2.8275   -0.0000 N   0  0  0  0  0  0  0  0  0  0  0  0
    8.7546    1.6090   -0.0000 N   0  0  0  0  0  0  0  0  0  0  0  0
    8.3405   -1.0411   -0.0000 C   0  0  0  0  0  0  0  0  0  0  0  0
    2.5317   -1.4197   -0.0000 C   0  0  0  0  0  0  0  0  0  0  0  0
    3.8331   -3.6556   -0.0000 C   0  0  0  0  0  0  0  0  0  0  0  0
    1.2304   -2.1532   -0.0000 C   0  0  0  0  0  0  0  0  0  0  0  0
    2.5317   -4.4010   -0.0000 C   0  0  0  0  0  0  0  0  0  0  0  0
    1.2185   -3.6438   -0.0000 C   0  0  0  0  0  0  0  0  0  0  0  0
   -0.0828   -4.3891   -0.0000 O   0  0  0  0  0  0  0  0  0  0  0  0
   -1.3960   -3.6320   -0.0000 C   0  0  0  0  0  0  0  0  0  0  0  0
  1  2  1  0  0  0  0
  1  3  1  0  0  0  0
  2  4  2  0  0  0  0
  2  5  1  0  0  0  0
  4  6  1  0  0  0  0
  5  7  2  0  0  0  0
  6  8  1  0  0  0  0
  6  9  2  0  0  0  0
  7 10  1  0  0  0  0
  8 11  2  0  0  0  0
  9 12  1  0  0  0  0
  9 13  1  0  0  0  0
 11 14  1  0  0  0  0
 12 15  1  0  0  0  0
 13 16  1  0  0  0  0
 13 17  1  0  0  0  0
 14 18  1  0  0  0  0
 15 19  2  0  0  0  0
 15 20  1  0  0  0  0
 17 21  2  0  0  0  0
 17 22  1  0  0  0  0
 21 23  1  0  0  0  0
 22 24  2  0  0  0  0
 23 25  2  0  0  0  0
 25 26  1  0  0  0  0
 26 27  1  0  0  0  0
  7  8  1  0  0  0  0
 12 14  2  0  0  0  0
 18 19  1  0  0  0  0
 24 25  1  0  0  0  0
M  END
>  <MolRegNo>
1279051

>  <m>
=

>  <Value>
1200

>  <Unit>
nM

>  <Type>
IC50

>  <pValue>
5.92

>  <Ligand Efficiency>
0

>  <Binding Efficiency>
0

>  <Surface Efficiency>
0

>  <Assay Index>
639272

>  <Assay Category>


>  <Assay Organism>


>  <Target ID>
17045

>  <Target Name>
Cytochrome P450 3A4

>  <Target Organism>
Homo sapiens

>  <Target Description>
Target is a single protein chain

>  <Sequence Accession>
P08684

>  <Reference>
Bioorg Med Chem Lett 22 (3), 1335-1339 (2012)

>  <Pubmed ID>
22227212

>  <DOI>
10.1016/j.bmcl.2011.12.080

$$$$
1278914
Actelion Java MolfileCreator 1.0

 24 27  0  0  0  0  0  0  0  0999 V2000
    0.0000   -0.0000   -0.0000 S   0  0  0  0  0  0  0  0  0  0  0  0
    0.0119    1.5055   -0.0000 C   0  0  0  0  0  0  0  0  0  0  0  0
   -1.4344   -0.4267   -0.0000 C   0  0  0  0  0  0  0  0  0  0  0  0
   -1.4106    2.0033   -0.0000 C   0  0  0  0  0  0  0  0  0  0  0  0
    1.2921    2.2641   -0.0000 C   0  0  0  0  0  0  0  0  0  0  0  0
   -2.2997    0.8061   -0.0000 N   0  0  0  0  0  0  0  0  0  0  0  0
    2.5723    1.5292   -0.0000 O   0  0  0  0  0  0  0  0  0  0  0  0
    1.2802    3.7696   -0.0000 C   0  0  0  0  0  0  0  0  0  0  0  0
   -0.0237    4.5283   -0.0000 C   0  0  0  0  0  0  0  0  0  0  0  0
    2.5605    4.5283   -0.0000 C   0  0  0  0  0  0  0  0  0  0  0  0
   -0.0356    6.0338   -0.0000 C   0  0  0  0  0  0  0  0  0  0  0  0
   -1.3277    3.7815   -0.0000 C   0  0  0  0  0  0  0  0  0  0  0  0
    2.5486    6.0456   -0.0000 C   0  0  0  0  0  0  0  0  0  0  0  0
    3.9830    4.0778   -0.0000 C   0  0  0  0  0  0  0  0  0  0  0  0
    1.2447    6.7924   -0.0000 N   0  0  0  0  0  0  0  0  0  0  0  0
   -1.3395    6.7806   -0.0000 C   0  0  0  0  0  0  0  0  0  0  0  0
   -2.6316    4.5401   -0.0000 C   0  0  0  0  0  0  0  0  0  0  0  0
    3.9711    6.5316   -0.0000 N   0  0  0  0  0  0  0  0  0  0  0  0
    4.8483    5.3107   -0.0000 N   0  0  0  0  0  0  0  0  0  0  0  0
    4.4334    2.6672   -0.0000 C   0  0  0  0  0  0  0  0  0  0  0  0
   -2.6435    6.0456   -0.0000 C   0  0  0  0  0  0  0  0  0  0  0  0
   -1.3514    8.2860   -0.0000 C   0  0  0  0  0  0  0  0  0  0  0  0
   -3.9356    3.8052   -0.0000 O   0  0  0  0  0  0  0  0  0  0  0  0
   -5.2395    4.5638   -0.0000 C   0  0  0  0  0  0  0  0  0  0  0  0
  1  2  1  0  0  0  0
  1  3  1  0  0  0  0
  2  4  2  0  0  0  0
  2  5  1  0  0  0  0
  3  6  2  0  0  0  0
  5  7  1  0  0  0  0
  5  8  1  0  0  0  0
  8  9  1  0  0  0  0
  8 10  2  0  0  0  0
  9 11  1  0  0  0  0
  9 12  2  0  0  0  0
 10 13  1  0  0  0  0
 10 14  1  0  0  0  0
 11 15  1  0  0  0  0
 11 16  2  0  0  0  0
 12 17  1  0  0  0  0
 13 18  1  0  0  0  0
 14 19  2  0  0  0  0
 14 20  1  0  0  0  0
 16 21  1  0  0  0  0
 16 22  1  0  0  0  0
 17 23  1  0  0  0  0
 23 24  1  0  0  0  0
  4  6  1  0  0  0  0
 13 15  2  0  0  0  0
 17 21  2  0  0  0  0
 18 19  1  0  0  0  0
M  END
>  <MolRegNo>
1278914

>  <m>
=

>  <Value>
700

>  <Unit>
nM

>  <Type>
IC50

>  <pValue>
6.16

>  <Ligand Efficiency>
0

>  <Binding Efficiency>
0

>  <Surface Efficiency>
0

>  <Assay Index>
639272

>  <Assay Category>


>  <Assay Organism>


>  <Target ID>
17045

>  <Target Name>
Cytochrome P450 3A4

>  <Target Organism>
Homo sapiens

>  <Target Description>
Target is a single protein chain

>  <Sequence Accession>
P08684

>  <Reference>
Bioorg Med Chem Lett 22 (3), 1335-1339 (2012)

>  <Pubmed ID>
22227212

>  <DOI>
10.1016/j.bmcl.2011.12.080

$$$$
1278909
Actelion Java MolfileCreator 1.0

 25 28  0  0  0  0  0  0  0  0999 V2000
    0.0000   -0.0000   -0.0000 O   0  0  0  0  0  0  0  0  0  0  0  0
    1.2897    0.7572   -0.0000 C   0  0  0  0  0  0  0  0  0  0  0  0
   -1.3133    0.7572   -0.0000 C   0  0  0  0  0  0  0  0  0  0  0  0
    2.5794    0.0237   -0.0000 C   0  0  0  0  0  0  0  0  0  0  0  0
    1.2779    2.2717   -0.0000 C   0  0  0  0  0  0  0  0  0  0  0  0
    3.8691    0.7927   -0.0000 C   0  0  0  0  0  0  0  0  0  0  0  0
    2.5557    3.0290   -0.0000 C   0  0  0  0  0  0  0  0  0  0  0  0
    3.8572    2.3072   -0.0000 C   0  0  0  0  0  0  0  0  0  0  0  0
    5.1587    0.0592   -0.0000 C   0  0  0  0  0  0  0  0  0  0  0  0
    2.5439    4.5435   -0.0000 C   0  0  0  0  0  0  0  0  0  0  0  0
    5.1351    3.0763   -0.0000 N   0  0  0  0  0  0  0  0  0  0  0  0
    6.4484    0.8164   -0.0000 C   0  0  0  0  0  0  0  0  0  0  0  0
    5.1469   -1.4317   -0.0000 C   0  0  0  0  0  0  0  0  0  0  0  0
    6.4248    2.3427   -0.0000 C   0  0  0  0  0  0  0  0  0  0  0  0
    7.8801    0.3668   -0.0000 C   0  0  0  0  0  0  0  0  0  0  0  0
    6.4366   -2.1653   -0.0000 O   0  0  0  0  0  0  0  0  0  0  0  0
    3.8336   -2.1771   -0.0000 C   0  0  0  0  0  0  0  0  0  0  0  0
    7.8446    2.8278   -0.0000 N   0  0  0  0  0  0  0  0  0  0  0  0
    8.7557    1.6091   -0.0000 N   0  0  0  0  0  0  0  0  0  0  0  0
    8.3415   -1.0412   -0.0000 C   0  0  0  0  0  0  0  0  0  0  0  0
    3.8336   -3.6561   -0.0000 C   0  0  0  0  0  0  0  0  0  0  0  0
    2.5320   -1.4198   -0.0000 C   0  0  0  0  0  0  0  0  0  0  0  0
    2.5320   -4.4015   -0.0000 N   0  0  0  0  0  0  0  0  0  0  0  0
    1.2305   -2.1534   -0.0000 C   0  0  0  0  0  0  0  0  0  0  0  0
    1.2069   -3.6442   -0.0000 C   0  0  0  0  0  0  0  0  0  0  0  0
  1  2  1  0  0  0  0
  1  3  1  0  0  0  0
  2  4  2  0  0  0  0
  2  5  1  0  0  0  0
  4  6  1  0  0  0  0
  5  7  2  0  0  0  0
  6  8  1  0  0  0  0
  6  9  2  0  0  0  0
  7 10  1  0  0  0  0
  8 11  2  0  0  0  0
  9 12  1  0  0  0  0
  9 13  1  0  0  0  0
 11 14  1  0  0  0  0
 12 15  1  0  0  0  0
 13 16  1  0  0  0  0
 13 17  1  0  0  0  0
 14 18  1  0  0  0  0
 15 19  2  0  0  0  0
 15 20  1  0  0  0  0
 17 21  2  0  0  0  0
 17 22  1  0  0  0  0
 21 23  1  0  0  0  0
 22 24  2  0  0  0  0
 23 25  2  0  0  0  0
  7  8  1  0  0  0  0
 12 14  2  0  0  0  0
 18 19  1  0  0  0  0
 24 25  1  0  0  0  0
M  END
>  <MolRegNo>
1278909

>  <m>
=

>  <Value>
2700

>  <Unit>
nM

>  <Type>
IC50

>  <pValue>
5.57

>  <Ligand Efficiency>
0

>  <Binding Efficiency>
0

>  <Surface Efficiency>
0

>  <Assay Index>
639272

>  <Assay Category>


>  <Assay Organism>


>  <Target ID>
17045

>  <Target Name>
Cytochrome P450 3A4

>  <Target Organism>
Homo sapiens

>  <Target Description>
Target is a single protein chain

>  <Sequence Accession>
P08684

>  <Reference>
Bioorg Med Chem Lett 22 (3), 1335-1339 (2012)

>  <Pubmed ID>
22227212

>  <DOI>
10.1016/j.bmcl.2011.12.080

$$$$
1281506
Actelion Java MolfileCreator 1.0

 27 30  0  0  0  0  0  0  0  0999 V2000
    0.0000   -0.0000   -0.0000 F   0  0  0  0  0  0  0  0  0  0  0  0
   -1.3120    0.7633   -0.0000 C   0  0  0  0  0  0  0  0  0  0  0  0
   -1.3239    2.2781   -0.0000 F   0  0  0  0  0  0  0  0  0  0  0  0
   -0.2624    1.8487   -0.0000 F   0  0  0  0  0  0  0  0  0  0  0  0
   -2.6240    0.0239   -0.0000 C   0  0  0  0  0  0  0  0  0  0  0  0
   -2.6359   -1.4671   -0.0000 C   0  0  0  0  0  0  0  0  0  0  0  0
   -3.9360    0.7872   -0.0000 C   0  0  0  0  0  0  0  0  0  0  0  0
   -1.3478   -2.2065   -0.0000 C   0  0  0  0  0  0  0  0  0  0  0  0
   -3.9479   -2.2065   -0.0000 C   0  0  0  0  0  0  0  0  0  0  0  0
   -5.2480    0.0477   -0.0000 C   0  0  0  0  0  0  0  0  0  0  0  0
   -0.0596   -1.4432   -0.0000 C   0  0  0  0  0  0  0  0  0  0  0  0
   -1.3597   -3.6975   -0.0000 C   0  0  0  0  0  0  0  0  0  0  0  0
   -5.2599   -1.4551   -0.0000 C   0  0  0  0  0  0  0  0  0  0  0  0
    1.2285   -2.1827   -0.0000 C   0  0  0  0  0  0  0  0  0  0  0  0
   -0.0716   -4.4369   -0.0000 C   0  0  0  0  0  0  0  0  0  0  0  0
    2.6598   -1.7056   -0.0000 N   0  0  0  0  0  0  0  0  0  0  0  0
    1.2166   -3.6855   -0.0000 C   0  0  0  0  0  0  0  0  0  0  0  0
    3.5424   -2.9222   -0.0000 C   0  0  0  0  0  0  0  0  0  0  0  0
    2.6479   -4.1388   -0.0000 N   0  0  0  0  0  0  0  0  0  0  0  0
    5.0333   -2.9103   -0.0000 C   0  0  0  0  0  0  0  0  0  0  0  0
    5.7728   -4.1984   -0.0000 C   0  0  0  0  0  0  0  0  0  0  0  0
    7.2637   -4.1865   -0.0000 C   0  0  0  0  0  0  0  0  0  0  0  0
    8.0032   -5.4865   -0.0000 C   0  0  0  0  0  0  0  0  0  0  0  0
    8.0032   -2.8745   -0.0000 C   0  0  0  0  0  0  0  0  0  0  0  0
    9.4941   -5.4746   -0.0000 C   0  0  0  0  0  0  0  0  0  0  0  0
    9.4941   -2.8745   -0.0000 C   0  0  0  0  0  0  0  0  0  0  0  0
   10.2455   -4.1626   -0.0000 C   0  0  0  0  0  0  0  0  0  0  0  0
  1  2  1  0  0  0  0
  2  3  1  0  0  0  0
  2  4  1  0  0  0  0
  2  5  1  0  0  0  0
  5  6  2  0  0  0  0
  5  7  1  0  0  0  0
  6  8  1  0  0  0  0
  6  9  1  0  0  0  0
  7 10  2  0  0  0  0
  8 11  2  0  0  0  0
  8 12  1  0  0  0  0
  9 13  2  0  0  0  0
 11 14  1  0  0  0  0
 12 15  2  0  0  0  0
 14 16  1  0  0  0  0
 14 17  2  0  0  0  0
 16 18  2  0  0  0  0
 17 19  1  0  0  0  0
 18 20  1  0  0  0  0
 20 21  2  0  0  0  0
 21 22  1  0  0  0  0
 22 23  1  0  0  0  0
 22 24  1  0  0  0  0
 23 25  1  0  0  0  0
 24 26  1  0  0  0  0
 25 27  1  0  0  0  0
 10 13  1  0  0  0  0
 15 17  1  0  0  0  0
 18 19  1  0  0  0  0
 26 27  1  0  0  0  0
M  END
>  <MolRegNo>
1281506

>  <m>
=

>  <Value>
3500

>  <Unit>
nM

>  <Type>
IC50

>  <pValue>
5.46

>  <Ligand Efficiency>
0

>  <Binding Efficiency>
0

>  <Surface Efficiency>
0

>  <Assay Index>
640215

>  <Assay Category>


>  <Assay Organism>


>  <Target ID>
17045

>  <Target Name>
Cytochrome P450 3A4

>  <Target Organism>
Homo sapiens

>  <Target Description>
Target is a single protein chain

>  <Sequence Accession>
P08684

>  <Reference>
Bioorg Med Chem Lett 22 (5), 1903-1907 (2012)

>  <Pubmed ID>
22330635

>  <DOI>
10.1016/j.bmcl.2012.01.060

$$$$
1281918
Actelion Java MolfileCreator 1.0

 20 21  0  0  0  0  0  0  0  0999 V2000
    0.0000   -0.0000   -0.0000 Cl  0  0  0  0  0  0  0  0  0  0  0  0
   -0.0237    1.5032   -0.0000 C   0  0  0  0  0  0  0  0  0  0  0  0
   -1.3375    2.2608   -0.0000 C   0  0  0  0  0  0  0  0  0  0  0  0
    1.2547    2.2844   -0.0000 C   0  0  0  0  0  0  0  0  0  0  0  0
   -1.3612    3.7640   -0.0000 C   0  0  0  0  0  0  0  0  0  0  0  0
    1.2310    3.7877   -0.0000 C   0  0  0  0  0  0  0  0  0  0  0  0
   -0.0829    4.5334   -0.0000 C   0  0  0  0  0  0  0  0  0  0  0  0
   -0.1065    6.0366   -0.0000 C   0  0  0  0  0  0  0  0  0  0  0  0
    1.1600    6.7941   -0.0000 C   0  0  0  0  0  0  0  0  0  0  0  0
   -1.4204    6.7823   -0.0000 C   0  0  0  0  0  0  0  0  0  0  0  0
    1.1481    8.3092   -0.0000 C   0  0  0  0  0  0  0  0  0  0  0  0
    2.4501    6.0603   -0.0000 C   0  0  0  0  0  0  0  0  0  0  0  0
   -1.4440    8.2974   -0.0000 C   0  0  0  0  0  0  0  0  0  0  0  0
   -0.1657    9.0667   -0.0000 C   0  0  0  0  0  0  0  0  0  0  0  0
    3.7285    6.8296   -0.0000 S   0  0  0  0  0  0  0  0  0  0  0  0
    3.7167    8.3329   -0.0000 O   0  0  0  0  0  0  0  0  0  0  0  0
    5.0187    6.0958   -0.0000 C   0  0  0  0  0  0  0  0  0  0  0  0
    6.2970    6.8652   -0.0000 C   0  0  0  0  0  0  0  0  0  0  0  0
    6.2852    8.3684   -0.0000 O   0  0  0  0  0  0  0  0  0  0  0  0
    7.5872    6.1313   -0.0000 N   0  0  0  0  0  0  0  0  0  0  0  0
  1  2  1  0  0  0  0
  2  3  2  0  0  0  0
  2  4  1  0  0  0  0
  3  5  1  0  0  0  0
  4  6  2  0  0  0  0
  5  7  2  0  0  0  0
  7  8  1  0  0  0  0
  8  9  2  0  0  0  0
  8 10  1  0  0  0  0
  9 11  1  0  0  0  0
  9 12  1  0  0  0  0
 10 13  2  0  0  0  0
 11 14  2  0  0  0  0
 12 15  1  0  0  0  0
 15 16  2  0  0  0  0
 15 17  1  0  0  0  0
 17 18  1  0  0  0  0
 18 19  2  0  0  0  0
 18 20  1  0  0  0  0
  6  7  1  0  0  0  0
 13 14  1  0  0  0  0
M  END
>  <MolRegNo>
1281918

>  <m>
=

>  <Value>
139000

>  <Unit>
nM

>  <Type>
IC50

>  <pValue>
0

>  <Ligand Efficiency>
0

>  <Binding Efficiency>
0

>  <Surface Efficiency>
0

>  <Assay Index>
640535

>  <Assay Category>


>  <Assay Organism>
Homo sapiens

>  <Target ID>
17045

>  <Target Name>
Cytochrome P450 3A4

>  <Target Organism>
Homo sapiens

>  <Target Description>
Target is a single protein chain

>  <Sequence Accession>
P08684

>  <Reference>
Bioorg Med Chem Lett 22 (6), 2315-2317 (2012)

>  <Pubmed ID>
22341942

>  <DOI>
10.1016/j.bmcl.2012.01.064

$$$$
1334077
Actelion Java MolfileCreator 1.0

 28 30  0  0  1  0  0  0  0  0999 V2000
    0.0000   -0.0000   -0.0000 Cl  0  0  0  0  0  0  0  0  0  0  0  0
    1.4631   -0.2974   -0.0000 C   0  0  0  0  0  0  0  0  0  0  0  0
    1.9270   -1.7129   -0.0000 C   0  0  0  0  0  0  0  0  0  0  0  0
    2.4623    0.8445   -0.0000 C   0  0  0  0  0  0  0  0  0  0  0  0
    3.3901   -2.0102   -0.0000 C   0  0  0  0  0  0  0  0  0  0  0  0
    3.9253    0.5472   -0.0000 C   0  0  0  0  0  0  0  0  0  0  0  0
    4.3892   -0.8802   -0.0000 C   0  0  0  0  0  0  0  0  0  0  0  0
    4.1394   -3.3068   -0.0000 C   0  0  0  0  0  0  0  0  0  0  0  0
    5.7572   -1.4750   -0.0000 N   0  0  0  0  0  0  0  0  0  0  0  0
    5.6025   -2.9737   -0.0000 C   0  0  0  0  0  0  0  0  0  0  0  0
    7.0537   -0.7018   -0.0000 C   0  0  0  0  0  0  0  0  0  0  0  0
    8.3503   -1.4393   -0.0000 C   0  0  0  0  0  0  0  0  0  0  0  0
    8.3384   -2.9381   -0.0000 O   0  0  0  0  0  0  0  0  0  0  0  0
    9.6468   -0.6661   -0.0000 N   0  0  0  0  0  0  0  0  0  0  0  0
   10.9434   -1.4036   -0.0000 C   0  0  0  0  0  0  0  0  0  0  0  0
   10.9315   -2.9024   -0.0000 C   0  0  0  0  0  0  0  0  0  0  0  0
   12.2399   -0.6304   -0.0000 C   0  0  0  0  0  0  0  0  0  0  0  0
   12.2280   -3.6399   -0.0000 C   0  0  0  0  0  0  0  0  0  0  0  0
   13.5365   -1.3798   -0.0000 C   0  0  0  0  0  0  0  0  0  0  0  0
   13.5246   -2.8786   -0.0000 C   0  0  0  0  0  0  0  0  0  0  0  0
   14.8211   -3.6280   -0.0000 C   0  0  0  0  0  0  0  0  0  0  0  0
   16.1177   -2.8667   -0.0000 N   0  0  0  0  0  0  0  0  0  0  0  0
   17.4142   -3.6042   -0.0000 S   0  0  0  0  0  0  0  0  0  0  0  0
   18.1517   -4.9007   -0.0000 O   0  0  0  0  0  0  0  0  0  0  0  0
   16.6410   -4.8888   -0.0000 O   0  0  0  0  0  0  0  0  0  0  0  0
   18.7108   -2.8429   -0.0000 C   0  0  0  0  0  0  0  0  0  0  0  0
   20.0073   -3.5923   -0.0000 C   0  0  0  0  0  0  0  0  0  0  0  0
   18.6989   -1.3203   -0.0000 C   0  0  0  0  0  0  0  0  0  0  0  0
  1  2  1  0  0  0  0
  2  3  2  0  0  0  0
  2  4  1  0  0  0  0
  3  5  1  0  0  0  0
  4  6  2  0  0  0  0
  5  7  2  0  0  0  0
  5  8  1  0  0  0  0
  7  9  1  0  0  0  0
  8 10  1  0  0  0  0
  9 11  1  0  0  0  0
 11 12  1  0  0  0  0
 12 13  2  0  0  0  0
 12 14  1  0  0  0  0
 15 14  1  6  0  0  0
 15 16  1  0  0  0  0
 15 17  1  0  0  0  0
 16 18  1  0  0  0  0
 17 19  1  0  0  0  0
 18 20  1  0  0  0  0
 20 21  1  1  0  0  0
 21 22  1  0  0  0  0
 22 23  1  0  0  0  0
 23 24  2  0  0  0  0
 23 25  2  0  0  0  0
 23 26  1  0  0  0  0
 26 27  1  0  0  0  0
 26 28  1  0  0  0  0
  6  7  1  0  0  0  0
  9 10  1  0  0  0  0
 19 20  1  0  0  0  0
M  END
>  <MolRegNo>
1334077

>  <m>
=

>  <Value>
700

>  <Unit>
nM

>  <Type>
IC50

>  <pValue>
6.16

>  <Ligand Efficiency>
0

>  <Binding Efficiency>
0

>  <Surface Efficiency>
0

>  <Assay Index>
646085

>  <Assay Category>


>  <Assay Organism>


>  <Target ID>
17045

>  <Target Name>
Cytochrome P450 3A4

>  <Target Organism>
Homo sapiens

>  <Target Description>
Target is a single protein chain

>  <Sequence Accession>
P08684

>  <Reference>
Bioorg Med Chem Lett 22 (6), 2167-2171 (2012)

>  <Pubmed ID>
22361135

>  <DOI>
10.1016/j.bmcl.2012.01.117

$$$$
1336216
Actelion Java MolfileCreator 1.0

 37 41  0  0  0  0  0  0  0  0999 V2000
    0.0000   -0.0000   -0.0000 F   0  0  0  0  0  0  0  0  0  0  0  0
    1.2910    0.7580   -0.0000 C   0  0  0  0  0  0  0  0  0  0  0  0
    2.5820    0.0118   -0.0000 C   0  0  0  0  0  0  0  0  0  0  0  0
    1.2910    2.2740   -0.0000 C   0  0  0  0  0  0  0  0  0  0  0  0
    3.8729    0.7699   -0.0000 C   0  0  0  0  0  0  0  0  0  0  0  0
    2.5820    3.0320   -0.0000 C   0  0  0  0  0  0  0  0  0  0  0  0
    3.8729    2.2859   -0.0000 C   0  0  0  0  0  0  0  0  0  0  0  0
    5.1639    3.0439   -0.0000 O   0  0  0  0  0  0  0  0  0  0  0  0
    6.4549    2.2977   -0.0000 C   0  0  0  0  0  0  0  0  0  0  0  0
    6.4312    0.8054   -0.0000 C   0  0  0  0  0  0  0  0  0  0  0  0
    7.7459    3.0557   -0.0000 C   0  0  0  0  0  0  0  0  0  0  0  0
    7.7222    0.0592   -0.0000 C   0  0  0  0  0  0  0  0  0  0  0  0
    9.0369    2.3096   -0.0000 C   0  0  0  0  0  0  0  0  0  0  0  0
    9.0132    0.8172   -0.0000 C   0  0  0  0  0  0  0  0  0  0  0  0
   10.3042    0.0711   -0.0000 N   0  0  0  0  0  0  0  0  0  0  0  0
   11.5951    0.8291   -0.0000 C   0  0  0  0  0  0  0  0  0  0  0  0
   11.5951    2.3451   -0.0000 O   0  0  0  0  0  0  0  0  0  0  0  0
   12.9217    0.1540   -0.0000 C   0  0  0  0  0  0  0  0  0  0  0  0
   13.1349   -1.3265   -0.0000 N   0  0  0  0  0  0  0  0  0  0  0  0
   14.2482    0.8409   -0.0000 C   0  0  0  0  0  0  0  0  0  0  0  0
   12.0571   -2.3688   -0.0000 C   0  0  0  0  0  0  0  0  0  0  0  0
   14.6035   -1.5634   -0.0000 C   0  0  0  0  0  0  0  0  0  0  0  0
   15.2904   -0.2132   -0.0000 C   0  0  0  0  0  0  0  0  0  0  0  0
   10.6003   -1.9542   -0.0000 O   0  0  0  0  0  0  0  0  0  0  0  0
   12.4242   -3.8137   -0.0000 C   0  0  0  0  0  0  0  0  0  0  0  0
   16.7709    0.0237   -0.0000 C   0  0  0  0  0  0  0  0  0  0  0  0
   11.3464   -4.8560   -0.0000 C   0  0  0  0  0  0  0  0  0  0  0  0
   17.3039    1.4331   -0.0000 C   0  0  0  0  0  0  0  0  0  0  0  0
   11.5596   -6.3365   -0.0000 N   0  0  0  0  0  0  0  0  0  0  0  0
    9.8541   -4.5954   -0.0000 C   0  0  0  0  0  0  0  0  0  0  0  0
   16.3564    2.6175   -0.0000 C   0  0  0  0  0  0  0  0  0  0  0  0
   18.7844    1.6700   -0.0000 C   0  0  0  0  0  0  0  0  0  0  0  0
   10.2094   -6.9997   -0.0000 C   0  0  0  0  0  0  0  0  0  0  0  0
    9.1553   -5.9219   -0.0000 N   0  0  0  0  0  0  0  0  0  0  0  0
   16.8894    4.0269   -0.0000 C   0  0  0  0  0  0  0  0  0  0  0  0
   19.3174    3.0794   -0.0000 C   0  0  0  0  0  0  0  0  0  0  0  0
   18.3698    4.2638   -0.0000 C   0  0  0  0  0  0  0  0  0  0  0  0
  1  2  1  0  0  0  0
  2  3  2  0  0  0  0
  2  4  1  0  0  0  0
  3  5  1  0  0  0  0
  4  6  2  0  0  0  0
  5  7  2  0  0  0  0
  7  8  1  0  0  0  0
  8  9  1  0  0  0  0
  9 10  2  0  0  0  0
  9 11  1  0  0  0  0
 10 12  1  0  0  0  0
 11 13  2  0  0  0  0
 12 14  2  0  0  0  0
 14 15  1  0  0  0  0
 15 16  1  0  0  0  0
 16 17  2  0  0  0  0
 18 16  1  6  0  0  0
 18 19  1  0  0  0  0
 18 20  1  0  0  0  0
 19 21  1  0  0  0  0
 19 22  1  0  0  0  0
 20 23  1  0  0  0  0
 21 24  2  0  0  0  0
 21 25  1  0  0  0  0
 23 26  1  1  0  0  0
 25 27  1  0  0  0  0
 26 28  1  0  0  0  0
 27 29  1  0  0  0  0
 27 30  2  0  0  0  0
 28 31  2  0  0  0  0
 28 32  1  0  0  0  0
 29 33  1  0  0  0  0
 30 34  1  0  0  0  0
 31 35  1  0  0  0  0
 32 36  2  0  0  0  0
 35 37  2  0  0  0  0
  6  7  1  0  0  0  0
 13 14  1  0  0  0  0
 22 23  1  0  0  0  0
 33 34  2  0  0  0  0
 36 37  1  0  0  0  0
M  END
>  <MolRegNo>
1336216

>  <m>
=

>  <Value>
7146

>  <Unit>
nM

>  <Type>
IC50

>  <pValue>
5.15

>  <Ligand Efficiency>
0

>  <Binding Efficiency>
0

>  <Surface Efficiency>
0

>  <Assay Index>
647456

>  <Assay Category>


>  <Assay Organism>
Homo sapiens

>  <Target ID>
17045

>  <Target Name>
Cytochrome P450 3A4

>  <Target Organism>
Homo sapiens

>  <Target Description>
Target is a single protein chain

>  <Sequence Accession>
P08684

>  <Reference>
J Med Chem 55 (3), 1368-1381 (2012)

>  <Pubmed ID>
22214363

>  <DOI>
10.1021/jm201533b

$$$$
1336217
Actelion Java MolfileCreator 1.0

 36 40  0  0  0  0  0  0  0  0999 V2000
    0.0000   -0.0000   -0.0000 F   0  0  0  0  0  0  0  0  0  0  0  0
   -0.0705    1.5046   -0.0000 C   0  0  0  0  0  0  0  0  0  0  0  0
    1.1755    2.3156   -0.0000 C   0  0  0  0  0  0  0  0  0  0  0  0
   -1.4105    2.2098   -0.0000 C   0  0  0  0  0  0  0  0  0  0  0  0
    1.1049    3.8202   -0.0000 C   0  0  0  0  0  0  0  0  0  0  0  0
   -1.4811    3.7144   -0.0000 C   0  0  0  0  0  0  0  0  0  0  0  0
   -0.2351    4.5255   -0.0000 C   0  0  0  0  0  0  0  0  0  0  0  0
   -0.3056    6.0301   -0.0000 O   0  0  0  0  0  0  0  0  0  0  0  0
   -1.6456    6.7353   -0.0000 C   0  0  0  0  0  0  0  0  0  0  0  0
   -1.7162    8.2399   -0.0000 C   0  0  0  0  0  0  0  0  0  0  0  0
   -2.9151    5.9478   -0.0000 C   0  0  0  0  0  0  0  0  0  0  0  0
   -3.0562    8.9452   -0.0000 C   0  0  0  0  0  0  0  0  0  0  0  0
   -4.2551    6.6530   -0.0000 C   0  0  0  0  0  0  0  0  0  0  0  0
   -4.3257    8.1576   -0.0000 C   0  0  0  0  0  0  0  0  0  0  0  0
   -5.6657    8.8629   -0.0000 N   0  0  0  0  0  0  0  0  0  0  0  0
   -6.9352    8.0753   -0.0000 C   0  0  0  0  0  0  0  0  0  0  0  0
   -6.9587    6.5943   -0.0000 O   0  0  0  0  0  0  0  0  0  0  0  0
   -8.2282    8.8511   -0.0000 C   0  0  0  0  0  0  0  0  0  0  0  0
   -8.3810   10.3440   -0.0000 N   0  0  0  0  0  0  0  0  0  0  0  0
   -9.6152    8.2752   -0.0000 C   0  0  0  0  0  0  0  0  0  0  0  0
   -7.2760   11.3431   -0.0000 C   0  0  0  0  0  0  0  0  0  0  0  0
   -9.8503   10.6848   -0.0000 C   0  0  0  0  0  0  0  0  0  0  0  0
  -10.6143    9.4036   -0.0000 C   0  0  0  0  0  0  0  0  0  0  0  0
   -5.8773   10.8729   -0.0000 O   0  0  0  0  0  0  0  0  0  0  0  0
   -7.5817   12.8124   -0.0000 C   0  0  0  0  0  0  0  0  0  0  0  0
  -12.1189    9.4271   -0.0000 C   0  0  0  0  0  0  0  0  0  0  0  0
   -6.4767   13.8115   -0.0000 C   0  0  0  0  0  0  0  0  0  0  0  0
  -12.8829    8.1576   -0.0000 C   0  0  0  0  0  0  0  0  0  0  0  0
  -12.8712   10.7436   -0.0000 C   0  0  0  0  0  0  0  0  0  0  0  0
   -6.6295   15.3044   -0.0000 N   0  0  0  0  0  0  0  0  0  0  0  0
   -5.0309   13.4942   -0.0000 C   0  0  0  0  0  0  0  0  0  0  0  0
  -14.3875    8.1811   -0.0000 C   0  0  0  0  0  0  0  0  0  0  0  0
  -14.3758   10.7671   -0.0000 C   0  0  0  0  0  0  0  0  0  0  0  0
   -5.2660   15.9038   -0.0000 C   0  0  0  0  0  0  0  0  0  0  0  0
   -4.2786   14.7872   -0.0000 N   0  0  0  0  0  0  0  0  0  0  0  0
  -15.1398    9.4976   -0.0000 C   0  0  0  0  0  0  0  0  0  0  0  0
  1  2  1  0  0  0  0
  2  3  2  0  0  0  0
  2  4  1  0  0  0  0
  3  5  1  0  0  0  0
  4  6  2  0  0  0  0
  5  7  2  0  0  0  0
  7  8  1  0  0  0  0
  8  9  1  0  0  0  0
  9 10  2  0  0  0  0
  9 11  1  0  0  0  0
 10 12  1  0  0  0  0
 11 13  2  0  0  0  0
 12 14  2  0  0  0  0
 14 15  1  0  0  0  0
 15 16  1  0  0  0  0
 16 17  2  0  0  0  0
 18 16  1  6  0  0  0
 18 19  1  0  0  0  0
 18 20  1  0  0  0  0
 19 21  1  0  0  0  0
 19 22  1  0  0  0  0
 20 23  1  0  0  0  0
 21 24  2  0  0  0  0
 21 25  1  0  0  0  0
 23 26  1  1  0  0  0
 25 27  1  0  0  0  0
 26 28  2  0  0  0  0
 26 29  1  0  0  0  0
 27 30  1  0  0  0  0
 27 31  2  0  0  0  0
 28 32  1  0  0  0  0
 29 33  2  0  0  0  0
 30 34  1  0  0  0  0
 31 35  1  0  0  0  0
 32 36  2  0  0  0  0
  6  7  1  0  0  0  0
 13 14  1  0  0  0  0
 22 23  1  0  0  0  0
 33 36  1  0  0  0  0
 34 35  2  0  0  0  0
M  END
>  <MolRegNo>
1336217

>  <m>
=

>  <Value>
301

>  <Unit>
nM

>  <Type>
IC50

>  <pValue>
6.52

>  <Ligand Efficiency>
0

>  <Binding Efficiency>
0

>  <Surface Efficiency>
0

>  <Assay Index>
647456

>  <Assay Category>


>  <Assay Organism>
Homo sapiens

>  <Target ID>
17045

>  <Target Name>
Cytochrome P450 3A4

>  <Target Organism>
Homo sapiens

>  <Target Description>
Target is a single protein chain

>  <Sequence Accession>
P08684

>  <Reference>
J Med Chem 55 (3), 1368-1381 (2012)

>  <Pubmed ID>
22214363

>  <DOI>
10.1021/jm201533b

$$$$
1336220
Actelion Java MolfileCreator 1.0

 38 42  0  0  0  0  0  0  0  0999 V2000
    0.0000   -0.0000   -0.0000 F   0  0  0  0  0  0  0  0  0  0  0  0
   -1.2967   -0.7545   -0.0000 C   0  0  0  0  0  0  0  0  0  0  0  0
   -2.6170   -0.0118   -0.0000 C   0  0  0  0  0  0  0  0  0  0  0  0
   -1.2967   -2.2398   -0.0000 C   0  0  0  0  0  0  0  0  0  0  0  0
   -3.9138   -0.7663   -0.0000 C   0  0  0  0  0  0  0  0  0  0  0  0
   -2.5935   -2.9943   -0.0000 C   0  0  0  0  0  0  0  0  0  0  0  0
   -3.9138   -2.2516   -0.0000 C   0  0  0  0  0  0  0  0  0  0  0  0
   -5.2105   -3.0061   -0.0000 O   0  0  0  0  0  0  0  0  0  0  0  0
   -6.5308   -2.2634   -0.0000 C   0  0  0  0  0  0  0  0  0  0  0  0
   -6.5544   -0.7545   -0.0000 C   0  0  0  0  0  0  0  0  0  0  0  0
   -7.8276   -3.0179   -0.0000 C   0  0  0  0  0  0  0  0  0  0  0  0
   -7.8747   -0.0118   -0.0000 C   0  0  0  0  0  0  0  0  0  0  0  0
   -9.1479   -2.2752   -0.0000 C   0  0  0  0  0  0  0  0  0  0  0  0
   -9.1715   -0.7663   -0.0000 C   0  0  0  0  0  0  0  0  0  0  0  0
  -10.4918   -0.0236   -0.0000 N   0  0  0  0  0  0  0  0  0  0  0  0
  -11.7885   -0.7780   -0.0000 C   0  0  0  0  0  0  0  0  0  0  0  0
  -11.7885   -2.2634   -0.0000 O   0  0  0  0  0  0  0  0  0  0  0  0
  -13.1442   -0.1061   -0.0000 C   0  0  0  0  0  0  0  0  0  0  0  0
  -13.4035    1.3793   -0.0000 N   0  0  0  0  0  0  0  0  0  0  0  0
  -14.4763   -0.7898   -0.0000 C   0  0  0  0  0  0  0  0  0  0  0  0
  -12.3661    2.4638   -0.0000 C   0  0  0  0  0  0  0  0  0  0  0  0
  -14.9007    1.6032   -0.0000 C   0  0  0  0  0  0  0  0  0  0  0  0
  -15.5608    0.2711   -0.0000 C   0  0  0  0  0  0  0  0  0  0  0  0
  -10.9279    2.1101   -0.0000 O   0  0  0  0  0  0  0  0  0  0  0  0
  -12.7787    3.9138   -0.0000 C   0  0  0  0  0  0  0  0  0  0  0  0
  -17.0462    0.0354   -0.0000 C   0  0  0  0  0  0  0  0  0  0  0  0
  -11.7413    4.9983   -0.0000 N   0  0  0  0  0  0  0  0  0  0  0  0
  -17.5766   -1.3557   -0.0000 C   0  0  0  0  0  0  0  0  0  0  0  0
  -12.0007    6.4837   -0.0000 N   0  0  0  0  0  0  0  0  0  0  0  0
  -10.2678    4.7979   -0.0000 C   0  0  0  0  0  0  0  0  0  0  0  0
  -16.6336   -2.4992   -0.0000 C   0  0  0  0  0  0  0  0  0  0  0  0
  -19.0620   -1.5914   -0.0000 C   0  0  0  0  0  0  0  0  0  0  0  0
  -10.6922    7.1910   -0.0000 C   0  0  0  0  0  0  0  0  0  0  0  0
   -9.6194    6.1536   -0.0000 N   0  0  0  0  0  0  0  0  0  0  0  0
  -17.1641   -3.8902   -0.0000 C   0  0  0  0  0  0  0  0  0  0  0  0
  -19.5925   -2.9825   -0.0000 C   0  0  0  0  0  0  0  0  0  0  0  0
  -18.6494   -4.1260   -0.0000 C   0  0  0  0  0  0  0  0  0  0  0  0
  -19.1799   -5.5170   -0.0000 F   0  0  0  0  0  0  0  0  0  0  0  0
  1  2  1  0  0  0  0
  2  3  2  0  0  0  0
  2  4  1  0  0  0  0
  3  5  1  0  0  0  0
  4  6  2  0  0  0  0
  5  7  2  0  0  0  0
  7  8  1  0  0  0  0
  8  9  1  0  0  0  0
  9 10  2  0  0  0  0
  9 11  1  0  0  0  0
 10 12  1  0  0  0  0
 11 13  2  0  0  0  0
 12 14  2  0  0  0  0
 14 15  1  0  0  0  0
 15 16  1  0  0  0  0
 16 17  2  0  0  0  0
 18 16  1  6  0  0  0
 18 19  1  0  0  0  0
 18 20  1  0  0  0  0
 19 21  1  0  0  0  0
 19 22  1  0  0  0  0
 20 23  1  0  0  0  0
 21 24  2  0  0  0  0
 21 25  1  0  0  0  0
 23 26  1  1  0  0  0
 25 27  1  0  0  0  0
 26 28  1  0  0  0  0
 27 29  1  0  0  0  0
 27 30  1  0  0  0  0
 28 31  2  0  0  0  0
 28 32  1  0  0  0  0
 29 33  2  0  0  0  0
 30 34  2  0  0  0  0
 31 35  1  0  0  0  0
 32 36  2  0  0  0  0
 35 37  2  0  0  0  0
 37 38  1  0  0  0  0
  6  7  1  0  0  0  0
 13 14  1  0  0  0  0
 22 23  1  0  0  0  0
 33 34  1  0  0  0  0
 36 37  1  0  0  0  0
M  END
>  <MolRegNo>
1336220

>  <m>
=

>  <Value>
12605

>  <Unit>
nM

>  <Type>
IC50

>  <pValue>
4.9

>  <Ligand Efficiency>
0

>  <Binding Efficiency>
0

>  <Surface Efficiency>
0

>  <Assay Index>
647456

>  <Assay Category>


>  <Assay Organism>
Homo sapiens

>  <Target ID>
17045

>  <Target Name>
Cytochrome P450 3A4

>  <Target Organism>
Homo sapiens

>  <Target Description>
Target is a single protein chain

>  <Sequence Accession>
P08684

>  <Reference>
J Med Chem 55 (3), 1368-1381 (2012)

>  <Pubmed ID>
22214363

>  <DOI>
10.1021/jm201533b

$$$$
1336645
Actelion Java MolfileCreator 1.0

 14 15  0  0  0  0  0  0  0  0999 V2000
    0.0000   -0.0000   -0.0000 S   0  0  0  0  0  0  0  0  0  0  0  0
   -1.5021    0.0117   -0.0000 C   0  0  0  0  0  0  0  0  0  0  0  0
    0.7276    1.3026   -0.0000 C   0  0  0  0  0  0  0  0  0  0  0  0
   -2.3939    1.2322   -0.0000 N   0  0  0  0  0  0  0  0  0  0  0  0
   -2.3939   -1.1852   -0.0000 N   0  0  0  0  0  0  0  0  0  0  0  0
    2.2062    1.3143   -0.0000 C   0  0  0  0  0  0  0  0  0  0  0  0
   -3.8256    0.7745   -0.0000 C   0  0  0  0  0  0  0  0  0  0  0  0
   -3.8256   -0.7041   -0.0000 C   0  0  0  0  0  0  0  0  0  0  0  0
   -5.1399    1.5373   -0.0000 C   0  0  0  0  0  0  0  0  0  0  0  0
   -5.1399   -1.4434   -0.0000 C   0  0  0  0  0  0  0  0  0  0  0  0
   -6.4425    0.7980   -0.0000 C   0  0  0  0  0  0  0  0  0  0  0  0
   -6.4425   -0.6806   -0.0000 C   0  0  0  0  0  0  0  0  0  0  0  0
   -7.7569    1.5608   -0.0000 O   0  0  0  0  0  0  0  0  0  0  0  0
   -9.0594    0.8215   -0.0000 C   0  0  0  0  0  0  0  0  0  0  0  0
  1  2  1  0  0  0  0
  1  3  1  0  0  0  0
  2  4  2  0  0  0  0
  2  5  1  0  0  0  0
  3  6  1  0  0  0  0
  4  7  1  0  0  0  0
  5  8  1  0  0  0  0
  7  9  1  0  0  0  0
  8 10  1  0  0  0  0
  9 11  2  0  0  0  0
 10 12  2  0  0  0  0
 11 13  1  0  0  0  0
 13 14  1  0  0  0  0
  7  8  2  0  0  0  0
 11 12  1  0  0  0  0
M  END
>  <MolRegNo>
1336645

>  <m>
=

>  <Value>
50000

>  <Unit>
nM

>  <Type>
IC50

>  <pValue>
4.3

>  <Ligand Efficiency>
0

>  <Binding Efficiency>
0

>  <Surface Efficiency>
0

>  <Assay Index>
647521

>  <Assay Category>


>  <Assay Organism>
Homo sapiens

>  <Target ID>
17045

>  <Target Name>
Cytochrome P450 3A4

>  <Target Organism>
Homo sapiens

>  <Target Description>
Target is a single protein chain

>  <Sequence Accession>
P08684

>  <Reference>
J Med Chem 55 (3), 1205-1214 (2012)

>  <Pubmed ID>
22239545

>  <DOI>
10.1021/jm201346g

$$$$
1336644
Actelion Java MolfileCreator 1.0

 15 16  0  0  0  0  0  0  0  0999 V2000
    0.0000   -0.0000   -0.0000 S   0  0  0  0  0  0  0  0  0  0  0  0
   -1.5019    0.0117   -0.0000 C   0  0  0  0  0  0  0  0  0  0  0  0
    0.7392    1.3024   -0.0000 C   0  0  0  0  0  0  0  0  0  0  0  0
   -2.3936    1.2320   -0.0000 N   0  0  0  0  0  0  0  0  0  0  0  0
   -2.3936   -1.1851   -0.0000 N   0  0  0  0  0  0  0  0  0  0  0  0
    2.2176    1.3141   -0.0000 C   0  0  0  0  0  0  0  0  0  0  0  0
   -3.8251    0.7744   -0.0000 C   0  0  0  0  0  0  0  0  0  0  0  0
   -3.8251   -0.7040   -0.0000 C   0  0  0  0  0  0  0  0  0  0  0  0
    2.9568    2.6165   -0.0000 C   0  0  0  0  0  0  0  0  0  0  0  0
   -5.1392    1.5371   -0.0000 C   0  0  0  0  0  0  0  0  0  0  0  0
   -5.1392   -1.4432   -0.0000 C   0  0  0  0  0  0  0  0  0  0  0  0
   -6.4416    0.7979   -0.0000 C   0  0  0  0  0  0  0  0  0  0  0  0
   -6.4416   -0.6805   -0.0000 C   0  0  0  0  0  0  0  0  0  0  0  0
   -7.7557    1.5605   -0.0000 O   0  0  0  0  0  0  0  0  0  0  0  0
   -9.0581    0.8213   -0.0000 C   0  0  0  0  0  0  0  0  0  0  0  0
  1  2  1  0  0  0  0
  1  3  1  0  0  0  0
  2  4  2  0  0  0  0
  2  5  1  0  0  0  0
  3  6  1  0  0  0  0
  4  7  1  0  0  0  0
  5  8  1  0  0  0  0
  6  9  1  0  0  0  0
  7 10  1  0  0  0  0
  8 11  1  0  0  0  0
 10 12  2  0  0  0  0
 11 13  2  0  0  0  0
 12 14  1  0  0  0  0
 14 15  1  0  0  0  0
  7  8  2  0  0  0  0
 12 13  1  0  0  0  0
M  END
>  <MolRegNo>
1336644

>  <m>
=

>  <Value>
27100

>  <Unit>
nM

>  <Type>
IC50

>  <pValue>
4.57

>  <Ligand Efficiency>
0

>  <Binding Efficiency>
0

>  <Surface Efficiency>
0

>  <Assay Index>
647521

>  <Assay Category>


>  <Assay Organism>
Homo sapiens

>  <Target ID>
17045

>  <Target Name>
Cytochrome P450 3A4

>  <Target Organism>
Homo sapiens

>  <Target Description>
Target is a single protein chain

>  <Sequence Accession>
P08684

>  <Reference>
J Med Chem 55 (3), 1205-1214 (2012)

>  <Pubmed ID>
22239545

>  <DOI>
10.1021/jm201346g

$$$$
1336642
Actelion Java MolfileCreator 1.0

 16 17  0  0  0  0  0  0  0  0999 V2000
    0.0000   -0.0000   -0.0000 S   0  0  0  0  0  0  0  0  0  0  0  0
   -1.5031    0.0117   -0.0000 C   0  0  0  0  0  0  0  0  0  0  0  0
    0.7398    1.3035   -0.0000 C   0  0  0  0  0  0  0  0  0  0  0  0
   -2.3956    1.2330   -0.0000 N   0  0  0  0  0  0  0  0  0  0  0  0
   -2.3956   -1.1861   -0.0000 N   0  0  0  0  0  0  0  0  0  0  0  0
    2.2195    1.3152   -0.0000 C   0  0  0  0  0  0  0  0  0  0  0  0
   -3.8283    0.7751   -0.0000 C   0  0  0  0  0  0  0  0  0  0  0  0
   -3.8283   -0.7046   -0.0000 C   0  0  0  0  0  0  0  0  0  0  0  0
    2.9593    2.6187   -0.0000 C   0  0  0  0  0  0  0  0  0  0  0  0
   -5.1435    1.5384   -0.0000 C   0  0  0  0  0  0  0  0  0  0  0  0
   -5.1435   -1.4444   -0.0000 C   0  0  0  0  0  0  0  0  0  0  0  0
    4.4389    2.6305   -0.0000 C   0  0  0  0  0  0  0  0  0  0  0  0
   -6.4470    0.7985   -0.0000 C   0  0  0  0  0  0  0  0  0  0  0  0
   -6.4470   -0.6811   -0.0000 C   0  0  0  0  0  0  0  0  0  0  0  0
   -7.7623    1.5619   -0.0000 O   0  0  0  0  0  0  0  0  0  0  0  0
   -9.0658    0.8220   -0.0000 C   0  0  0  0  0  0  0  0  0  0  0  0
  1  2  1  0  0  0  0
  1  3  1  0  0  0  0
  2  4  2  0  0  0  0
  2  5  1  0  0  0  0
  3  6  1  0  0  0  0
  4  7  1  0  0  0  0
  5  8  1  0  0  0  0
  6  9  1  0  0  0  0
  7 10  1  0  0  0  0
  8 11  1  0  0  0  0
  9 12  1  0  0  0  0
 10 13  2  0  0  0  0
 11 14  2  0  0  0  0
 13 15  1  0  0  0  0
 15 16  1  0  0  0  0
  7  8  2  0  0  0  0
 13 14  1  0  0  0  0
M  END
>  <MolRegNo>
1336642

>  <m>
=

>  <Value>
50000

>  <Unit>
nM

>  <Type>
IC50

>  <pValue>
4.3

>  <Ligand Efficiency>
0

>  <Binding Efficiency>
0

>  <Surface Efficiency>
0

>  <Assay Index>
647521

>  <Assay Category>


>  <Assay Organism>
Homo sapiens

>  <Target ID>
17045

>  <Target Name>
Cytochrome P450 3A4

>  <Target Organism>
Homo sapiens

>  <Target Description>
Target is a single protein chain

>  <Sequence Accession>
P08684

>  <Reference>
J Med Chem 55 (3), 1205-1214 (2012)

>  <Pubmed ID>
22239545

>  <DOI>
10.1021/jm201346g

$$$$
1336643
Actelion Java MolfileCreator 1.0

 17 18  0  0  0  0  0  0  0  0999 V2000
    0.0000   -0.0000   -0.0000 S   0  0  0  0  0  0  0  0  0  0  0  0
   -1.5032    0.0117   -0.0000 C   0  0  0  0  0  0  0  0  0  0  0  0
    0.7399    1.3036   -0.0000 C   0  0  0  0  0  0  0  0  0  0  0  0
   -2.3957    1.2331   -0.0000 N   0  0  0  0  0  0  0  0  0  0  0  0
   -2.3957   -1.1861   -0.0000 N   0  0  0  0  0  0  0  0  0  0  0  0
    2.2196    1.3153   -0.0000 C   0  0  0  0  0  0  0  0  0  0  0  0
   -3.8285    0.7751   -0.0000 C   0  0  0  0  0  0  0  0  0  0  0  0
   -3.8285   -0.7046   -0.0000 C   0  0  0  0  0  0  0  0  0  0  0  0
    2.9594    2.6189   -0.0000 C   0  0  0  0  0  0  0  0  0  0  0  0
   -5.1438    1.5384   -0.0000 C   0  0  0  0  0  0  0  0  0  0  0  0
   -5.1438   -1.4445   -0.0000 C   0  0  0  0  0  0  0  0  0  0  0  0
    4.4391    2.6306   -0.0000 C   0  0  0  0  0  0  0  0  0  0  0  0
   -6.4473    0.7986   -0.0000 C   0  0  0  0  0  0  0  0  0  0  0  0
   -6.4473   -0.6811   -0.0000 C   0  0  0  0  0  0  0  0  0  0  0  0
    5.1790    3.9342   -0.0000 C   0  0  0  0  0  0  0  0  0  0  0  0
   -7.7626    1.5619   -0.0000 O   0  0  0  0  0  0  0  0  0  0  0  0
   -9.0662    0.8221   -0.0000 C   0  0  0  0  0  0  0  0  0  0  0  0
  1  2  1  0  0  0  0
  1  3  1  0  0  0  0
  2  4  2  0  0  0  0
  2  5  1  0  0  0  0
  3  6  1  0  0  0  0
  4  7  1  0  0  0  0
  5  8  1  0  0  0  0
  6  9  1  0  0  0  0
  7 10  1  0  0  0  0
  8 11  1  0  0  0  0
  9 12  1  0  0  0  0
 10 13  2  0  0  0  0
 11 14  2  0  0  0  0
 12 15  1  0  0  0  0
 13 16  1  0  0  0  0
 16 17  1  0  0  0  0
  7  8  2  0  0  0  0
 13 14  1  0  0  0  0
M  END
>  <MolRegNo>
1336643

>  <m>
=

>  <Value>
26300

>  <Unit>
nM

>  <Type>
IC50

>  <pValue>
4.58

>  <Ligand Efficiency>
0

>  <Binding Efficiency>
0

>  <Surface Efficiency>
0

>  <Assay Index>
647521

>  <Assay Category>


>  <Assay Organism>
Homo sapiens

>  <Target ID>
17045

>  <Target Name>
Cytochrome P450 3A4

>  <Target Organism>
Homo sapiens

>  <Target Description>
Target is a single protein chain

>  <Sequence Accession>
P08684

>  <Reference>
J Med Chem 55 (3), 1205-1214 (2012)

>  <Pubmed ID>
22239545

>  <DOI>
10.1021/jm201346g

$$$$
1336646
Actelion Java MolfileCreator 1.0

 18 19  0  0  0  0  0  0  0  0999 V2000
    0.0000   -0.0000   -0.0000 S   0  0  0  0  0  0  0  0  0  0  0  0
   -1.5046    0.0118   -0.0000 C   0  0  0  0  0  0  0  0  0  0  0  0
    0.7405    1.3047   -0.0000 C   0  0  0  0  0  0  0  0  0  0  0  0
   -2.3979    1.2342   -0.0000 N   0  0  0  0  0  0  0  0  0  0  0  0
   -2.3979   -1.1872   -0.0000 N   0  0  0  0  0  0  0  0  0  0  0  0
    2.2216    1.3165   -0.0000 C   0  0  0  0  0  0  0  0  0  0  0  0
   -3.8320    0.7758   -0.0000 C   0  0  0  0  0  0  0  0  0  0  0  0
   -3.8320   -0.7053   -0.0000 C   0  0  0  0  0  0  0  0  0  0  0  0
    2.9621    2.6212   -0.0000 C   0  0  0  0  0  0  0  0  0  0  0  0
   -5.1485    1.5398   -0.0000 C   0  0  0  0  0  0  0  0  0  0  0  0
   -5.1485   -1.4458   -0.0000 C   0  0  0  0  0  0  0  0  0  0  0  0
    4.4432    2.6330   -0.0000 C   0  0  0  0  0  0  0  0  0  0  0  0
   -6.4532    0.7993   -0.0000 C   0  0  0  0  0  0  0  0  0  0  0  0
   -6.4532   -0.6818   -0.0000 C   0  0  0  0  0  0  0  0  0  0  0  0
    5.1720    3.9377   -0.0000 C   0  0  0  0  0  0  0  0  0  0  0  0
   -7.7697    1.5633   -0.0000 O   0  0  0  0  0  0  0  0  0  0  0  0
    6.6530    3.9495   -0.0000 C   0  0  0  0  0  0  0  0  0  0  0  0
   -9.0745    0.8228   -0.0000 C   0  0  0  0  0  0  0  0  0  0  0  0
  1  2  1  0  0  0  0
  1  3  1  0  0  0  0
  2  4  2  0  0  0  0
  2  5  1  0  0  0  0
  3  6  1  0  0  0  0
  4  7  1  0  0  0  0
  5  8  1  0  0  0  0
  6  9  1  0  0  0  0
  7 10  1  0  0  0  0
  8 11  1  0  0  0  0
  9 12  1  0  0  0  0
 10 13  2  0  0  0  0
 11 14  2  0  0  0  0
 12 15  1  0  0  0  0
 13 16  1  0  0  0  0
 15 17  1  0  0  0  0
 16 18  1  0  0  0  0
  7  8  2  0  0  0  0
 13 14  1  0  0  0  0
M  END
>  <MolRegNo>
1336646

>  <m>
=

>  <Value>
5330

>  <Unit>
nM

>  <Type>
IC50

>  <pValue>
5.27

>  <Ligand Efficiency>
0

>  <Binding Efficiency>
0

>  <Surface Efficiency>
0

>  <Assay Index>
647521

>  <Assay Category>


>  <Assay Organism>
Homo sapiens

>  <Target ID>
17045

>  <Target Name>
Cytochrome P450 3A4

>  <Target Organism>
Homo sapiens

>  <Target Description>
Target is a single protein chain

>  <Sequence Accession>
P08684

>  <Reference>
J Med Chem 55 (3), 1205-1214 (2012)

>  <Pubmed ID>
22239545

>  <DOI>
10.1021/jm201346g

$$$$
1336647
Actelion Java MolfileCreator 1.0

 19 20  0  0  0  0  0  0  0  0999 V2000
    0.0000   -0.0000   -0.0000 S   0  0  0  0  0  0  0  0  0  0  0  0
   -1.5043    0.0118   -0.0000 C   0  0  0  0  0  0  0  0  0  0  0  0
    0.7404    1.3045   -0.0000 C   0  0  0  0  0  0  0  0  0  0  0  0
   -2.3974    1.2340   -0.0000 N   0  0  0  0  0  0  0  0  0  0  0  0
   -2.3974   -1.1870   -0.0000 N   0  0  0  0  0  0  0  0  0  0  0  0
    2.2211    1.3162   -0.0000 C   0  0  0  0  0  0  0  0  0  0  0  0
   -3.8312    0.7756   -0.0000 C   0  0  0  0  0  0  0  0  0  0  0  0
   -3.8312   -0.7051   -0.0000 C   0  0  0  0  0  0  0  0  0  0  0  0
    2.9615    2.6207   -0.0000 C   0  0  0  0  0  0  0  0  0  0  0  0
   -5.1474    1.5395   -0.0000 C   0  0  0  0  0  0  0  0  0  0  0  0
   -5.1474   -1.4455   -0.0000 C   0  0  0  0  0  0  0  0  0  0  0  0
    4.4423    2.6325   -0.0000 C   0  0  0  0  0  0  0  0  0  0  0  0
   -6.4519    0.7991   -0.0000 C   0  0  0  0  0  0  0  0  0  0  0  0
   -6.4519   -0.6816   -0.0000 C   0  0  0  0  0  0  0  0  0  0  0  0
    5.1827    3.9370   -0.0000 C   0  0  0  0  0  0  0  0  0  0  0  0
   -7.7681    1.5630   -0.0000 O   0  0  0  0  0  0  0  0  0  0  0  0
    6.6634    3.9487   -0.0000 C   0  0  0  0  0  0  0  0  0  0  0  0
   -9.0726    0.8226   -0.0000 C   0  0  0  0  0  0  0  0  0  0  0  0
    7.4038    5.2532   -0.0000 C   0  0  0  0  0  0  0  0  0  0  0  0
  1  2  1  0  0  0  0
  1  3  1  0  0  0  0
  2  4  2  0  0  0  0
  2  5  1  0  0  0  0
  3  6  1  0  0  0  0
  4  7  1  0  0  0  0
  5  8  1  0  0  0  0
  6  9  1  0  0  0  0
  7 10  1  0  0  0  0
  8 11  1  0  0  0  0
  9 12  1  0  0  0  0
 10 13  2  0  0  0  0
 11 14  2  0  0  0  0
 12 15  1  0  0  0  0
 13 16  1  0  0  0  0
 15 17  1  0  0  0  0
 16 18  1  0  0  0  0
 17 19  1  0  0  0  0
  7  8  2  0  0  0  0
 13 14  1  0  0  0  0
M  END
>  <MolRegNo>
1336647

>  <m>
=

>  <Value>
15700

>  <Unit>
nM

>  <Type>
IC50

>  <pValue>
4.8

>  <Ligand Efficiency>
0

>  <Binding Efficiency>
0

>  <Surface Efficiency>
0

>  <Assay Index>
647521

>  <Assay Category>


>  <Assay Organism>
Homo sapiens

>  <Target ID>
17045

>  <Target Name>
Cytochrome P450 3A4

>  <Target Organism>
Homo sapiens

>  <Target Description>
Target is a single protein chain

>  <Sequence Accession>
P08684

>  <Reference>
J Med Chem 55 (3), 1205-1214 (2012)

>  <Pubmed ID>
22239545

>  <DOI>
10.1021/jm201346g

$$$$
1336648
Actelion Java MolfileCreator 1.0

 16 17  0  0  0  0  0  0  0  0999 V2000
    0.0000   -0.0000   -0.0000 S   0  0  0  0  0  0  0  0  0  0  0  0
   -1.5035    0.0117   -0.0000 C   0  0  0  0  0  0  0  0  0  0  0  0
    0.7283    1.3039   -0.0000 C   0  0  0  0  0  0  0  0  0  0  0  0
   -2.3963    1.2334   -0.0000 N   0  0  0  0  0  0  0  0  0  0  0  0
   -2.3963   -1.1864   -0.0000 N   0  0  0  0  0  0  0  0  0  0  0  0
    2.2083    1.3156   -0.0000 C   0  0  0  0  0  0  0  0  0  0  0  0
   -3.8293    0.7753   -0.0000 C   0  0  0  0  0  0  0  0  0  0  0  0
   -3.8293   -0.7048   -0.0000 C   0  0  0  0  0  0  0  0  0  0  0  0
    2.9484    2.6195   -0.0000 C   0  0  0  0  0  0  0  0  0  0  0  0
    2.9484    0.0352   -0.0000 C   0  0  0  0  0  0  0  0  0  0  0  0
   -5.1450    1.5388   -0.0000 C   0  0  0  0  0  0  0  0  0  0  0  0
   -5.1450   -1.4448   -0.0000 C   0  0  0  0  0  0  0  0  0  0  0  0
   -6.4488    0.7988   -0.0000 C   0  0  0  0  0  0  0  0  0  0  0  0
   -6.4488   -0.6813   -0.0000 C   0  0  0  0  0  0  0  0  0  0  0  0
   -7.7644    1.5623   -0.0000 O   0  0  0  0  0  0  0  0  0  0  0  0
   -9.0683    0.8223   -0.0000 C   0  0  0  0  0  0  0  0  0  0  0  0
  1  2  1  0  0  0  0
  1  3  1  0  0  0  0
  2  4  2  0  0  0  0
  2  5  1  0  0  0  0
  3  6  1  0  0  0  0
  4  7  1  0  0  0  0
  5  8  1  0  0  0  0
  6  9  1  0  0  0  0
  6 10  1  0  0  0  0
  7 11  1  0  0  0  0
  8 12  1  0  0  0  0
 11 13  2  0  0  0  0
 12 14  2  0  0  0  0
 13 15  1  0  0  0  0
 15 16  1  0  0  0  0
  7  8  2  0  0  0  0
 13 14  1  0  0  0  0
M  END
>  <MolRegNo>
1336648

>  <m>
=

>  <Value>
50000

>  <Unit>
nM

>  <Type>
IC50

>  <pValue>
4.3

>  <Ligand Efficiency>
0

>  <Binding Efficiency>
0

>  <Surface Efficiency>
0

>  <Assay Index>
647521

>  <Assay Category>


>  <Assay Organism>
Homo sapiens

>  <Target ID>
17045

>  <Target Name>
Cytochrome P450 3A4

>  <Target Organism>
Homo sapiens

>  <Target Description>
Target is a single protein chain

>  <Sequence Accession>
P08684

>  <Reference>
J Med Chem 55 (3), 1205-1214 (2012)

>  <Pubmed ID>
22239545

>  <DOI>
10.1021/jm201346g

$$$$
1336649
Actelion Java MolfileCreator 1.0

 17 18  0  0  0  0  0  0  0  0999 V2000
    0.0000   -0.0000   -0.0000 S   0  0  0  0  0  0  0  0  0  0  0  0
   -1.5050    0.0118   -0.0000 C   0  0  0  0  0  0  0  0  0  0  0  0
    0.7407    1.3051   -0.0000 C   0  0  0  0  0  0  0  0  0  0  0  0
   -2.3986    1.2346   -0.0000 N   0  0  0  0  0  0  0  0  0  0  0  0
   -2.3986   -1.1875   -0.0000 N   0  0  0  0  0  0  0  0  0  0  0  0
    2.2222    1.3169   -0.0000 C   0  0  0  0  0  0  0  0  0  0  0  0
   -3.8330    0.7760   -0.0000 C   0  0  0  0  0  0  0  0  0  0  0  0
   -3.8330   -0.7055   -0.0000 C   0  0  0  0  0  0  0  0  0  0  0  0
    2.9512    0.0353   -0.0000 C   0  0  0  0  0  0  0  0  0  0  0  0
    2.9512    2.6220   -0.0000 C   0  0  0  0  0  0  0  0  0  0  0  0
    3.7037    1.3286   -0.0000 C   0  0  0  0  0  0  0  0  0  0  0  0
   -5.1499    1.5403   -0.0000 C   0  0  0  0  0  0  0  0  0  0  0  0
   -5.1499   -1.4462   -0.0000 C   0  0  0  0  0  0  0  0  0  0  0  0
   -6.4550    0.7995   -0.0000 C   0  0  0  0  0  0  0  0  0  0  0  0
   -6.4550   -0.6819   -0.0000 C   0  0  0  0  0  0  0  0  0  0  0  0
   -7.7718    1.5638   -0.0000 O   0  0  0  0  0  0  0  0  0  0  0  0
   -9.0769    0.8230   -0.0000 C   0  0  0  0  0  0  0  0  0  0  0  0
  1  2  1  0  0  0  0
  1  3  1  0  0  0  0
  2  4  2  0  0  0  0
  2  5  1  0  0  0  0
  3  6  1  0  0  0  0
  4  7  1  0  0  0  0
  5  8  1  0  0  0  0
  6  9  1  0  0  0  0
  6 10  1  0  0  0  0
  6 11  1  0  0  0  0
  7 12  1  0  0  0  0
  8 13  1  0  0  0  0
 12 14  2  0  0  0  0
 13 15  2  0  0  0  0
 14 16  1  0  0  0  0
 16 17  1  0  0  0  0
  7  8  2  0  0  0  0
 14 15  1  0  0  0  0
M  END
>  <MolRegNo>
1336649

>  <m>
=

>  <Value>
50000

>  <Unit>
nM

>  <Type>
IC50

>  <pValue>
4.3

>  <Ligand Efficiency>
0

>  <Binding Efficiency>
0

>  <Surface Efficiency>
0

>  <Assay Index>
647521

>  <Assay Category>


>  <Assay Organism>
Homo sapiens

>  <Target ID>
17045

>  <Target Name>
Cytochrome P450 3A4

>  <Target Organism>
Homo sapiens

>  <Target Description>
Target is a single protein chain

>  <Sequence Accession>
P08684

>  <Reference>
J Med Chem 55 (3), 1205-1214 (2012)

>  <Pubmed ID>
22239545

>  <DOI>
10.1021/jm201346g

$$$$
1336650
Actelion Java MolfileCreator 1.0

 16 18  0  0  0  0  0  0  0  0999 V2000
    0.0000   -0.0000   -0.0000 S   0  0  0  0  0  0  0  0  0  0  0  0
   -1.5048    0.0118   -0.0000 C   0  0  0  0  0  0  0  0  0  0  0  0
    0.7289    1.3049   -0.0000 C   0  0  0  0  0  0  0  0  0  0  0  0
   -2.3983    1.2344   -0.0000 N   0  0  0  0  0  0  0  0  0  0  0  0
   -2.3983   -1.1874   -0.0000 N   0  0  0  0  0  0  0  0  0  0  0  0
    2.2102    1.3167   -0.0000 C   0  0  0  0  0  0  0  0  0  0  0  0
   -3.8325    0.7759   -0.0000 C   0  0  0  0  0  0  0  0  0  0  0  0
   -3.8325   -0.7054   -0.0000 C   0  0  0  0  0  0  0  0  0  0  0  0
    3.4916    0.5878   -0.0000 C   0  0  0  0  0  0  0  0  0  0  0  0
    3.4916    2.0809   -0.0000 C   0  0  0  0  0  0  0  0  0  0  0  0
   -5.1493    1.5401   -0.0000 C   0  0  0  0  0  0  0  0  0  0  0  0
   -5.1493   -1.4460   -0.0000 C   0  0  0  0  0  0  0  0  0  0  0  0
   -6.4542    0.7994   -0.0000 C   0  0  0  0  0  0  0  0  0  0  0  0
   -6.4542   -0.6819   -0.0000 C   0  0  0  0  0  0  0  0  0  0  0  0
   -7.7709    1.5636   -0.0000 O   0  0  0  0  0  0  0  0  0  0  0  0
   -9.0758    0.8229   -0.0000 C   0  0  0  0  0  0  0  0  0  0  0  0
  1  2  1  0  0  0  0
  1  3  1  0  0  0  0
  2  4  2  0  0  0  0
  2  5  1  0  0  0  0
  3  6  1  0  0  0  0
  4  7  1  0  0  0  0
  5  8  1  0  0  0  0
  6  9  1  0  0  0  0
  6 10  1  0  0  0  0
  7 11  1  0  0  0  0
  8 12  1  0  0  0  0
 11 13  2  0  0  0  0
 12 14  2  0  0  0  0
 13 15  1  0  0  0  0
 15 16  1  0  0  0  0
  7  8  2  0  0  0  0
  9 10  1  0  0  0  0
 13 14  1  0  0  0  0
M  END
>  <MolRegNo>
1336650

>  <m>
=

>  <Value>
16400

>  <Unit>
nM

>  <Type>
IC50

>  <pValue>
4.79

>  <Ligand Efficiency>
0

>  <Binding Efficiency>
0

>  <Surface Efficiency>
0

>  <Assay Index>
647521

>  <Assay Category>


>  <Assay Organism>
Homo sapiens

>  <Target ID>
17045

>  <Target Name>
Cytochrome P450 3A4

>  <Target Organism>
Homo sapiens

>  <Target Description>
Target is a single protein chain

>  <Sequence Accession>
P08684

>  <Reference>
J Med Chem 55 (3), 1205-1214 (2012)

>  <Pubmed ID>
22239545

>  <DOI>
10.1021/jm201346g

$$$$
1336651
Actelion Java MolfileCreator 1.0

 19 21  0  0  0  0  0  0  0  0999 V2000
    0.0000   -0.0000   -0.0000 S   0  0  0  0  0  0  0  0  0  0  0  0
   -1.5102    0.0118   -0.0000 C   0  0  0  0  0  0  0  0  0  0  0  0
    0.7315    1.3097   -0.0000 C   0  0  0  0  0  0  0  0  0  0  0  0
   -2.3952    1.2389   -0.0000 N   0  0  0  0  0  0  0  0  0  0  0  0
   -2.3952   -1.1917   -0.0000 N   0  0  0  0  0  0  0  0  0  0  0  0
    2.2182    1.3215   -0.0000 C   0  0  0  0  0  0  0  0  0  0  0  0
   -3.8228    0.7905   -0.0000 C   0  0  0  0  0  0  0  0  0  0  0  0
   -3.8228   -0.7197   -0.0000 C   0  0  0  0  0  0  0  0  0  0  0  0
    2.9497    0.0354   -0.0000 C   0  0  0  0  0  0  0  0  0  0  0  0
    2.9379    2.6311   -0.0000 C   0  0  0  0  0  0  0  0  0  0  0  0
   -5.1325    1.5574   -0.0000 C   0  0  0  0  0  0  0  0  0  0  0  0
   -5.1325   -1.4631   -0.0000 C   0  0  0  0  0  0  0  0  0  0  0  0
    4.4246    0.0472   -0.0000 C   0  0  0  0  0  0  0  0  0  0  0  0
    4.4246    2.6311   -0.0000 C   0  0  0  0  0  0  0  0  0  0  0  0
   -6.4421    0.8141   -0.0000 C   0  0  0  0  0  0  0  0  0  0  0  0
   -6.4421   -0.6961   -0.0000 C   0  0  0  0  0  0  0  0  0  0  0  0
    5.1679    1.3451   -0.0000 C   0  0  0  0  0  0  0  0  0  0  0  0
   -7.7518    1.5692   -0.0000 O   0  0  0  0  0  0  0  0  0  0  0  0
   -9.0615    0.8377   -0.0000 C   0  0  0  0  0  0  0  0  0  0  0  0
  1  2  1  0  0  0  0
  1  3  1  0  0  0  0
  2  4  2  0  0  0  0
  2  5  1  0  0  0  0
  3  6  1  0  0  0  0
  4  7  1  0  0  0  0
  5  8  1  0  0  0  0
  6  9  1  0  0  0  0
  6 10  1  0  0  0  0
  7 11  1  0  0  0  0
  8 12  1  0  0  0  0
  9 13  1  0  0  0  0
 10 14  1  0  0  0  0
 11 15  2  0  0  0  0
 12 16  2  0  0  0  0
 13 17  1  0  0  0  0
 15 18  1  0  0  0  0
 18 19  1  0  0  0  0
  7  8  2  0  0  0  0
 14 17  1  0  0  0  0
 15 16  1  0  0  0  0
M  END
>  <MolRegNo>
1336651

>  <m>
=

>  <Value>
6230

>  <Unit>
nM

>  <Type>
IC50

>  <pValue>
5.21

>  <Ligand Efficiency>
0

>  <Binding Efficiency>
0

>  <Surface Efficiency>
0

>  <Assay Index>
647521

>  <Assay Category>


>  <Assay Organism>
Homo sapiens

>  <Target ID>
17045

>  <Target Name>
Cytochrome P450 3A4

>  <Target Organism>
Homo sapiens

>  <Target Description>
Target is a single protein chain

>  <Sequence Accession>
P08684

>  <Reference>
J Med Chem 55 (3), 1205-1214 (2012)

>  <Pubmed ID>
22239545

>  <DOI>
10.1021/jm201346g

$$$$
1336652
Actelion Java MolfileCreator 1.0

 16 17  0  0  0  0  0  0  0  0999 V2000
    0.0000   -0.0000   -0.0000 S   0  0  0  0  0  0  0  0  0  0  0  0
   -1.5038    0.0117   -0.0000 C   0  0  0  0  0  0  0  0  0  0  0  0
    0.7284    1.3041   -0.0000 C   0  0  0  0  0  0  0  0  0  0  0  0
   -2.3967    1.2336   -0.0000 N   0  0  0  0  0  0  0  0  0  0  0  0
   -2.3967   -1.1866   -0.0000 N   0  0  0  0  0  0  0  0  0  0  0  0
    2.2087    1.3158   -0.0000 C   0  0  0  0  0  0  0  0  0  0  0  0
   -3.8300    0.7754   -0.0000 C   0  0  0  0  0  0  0  0  0  0  0  0
   -3.8300   -0.7049   -0.0000 C   0  0  0  0  0  0  0  0  0  0  0  0
    2.9371    2.6199   -0.0000 C   0  0  0  0  0  0  0  0  0  0  0  0
   -5.1459    1.5391   -0.0000 C   0  0  0  0  0  0  0  0  0  0  0  0
   -5.1459   -1.4451   -0.0000 C   0  0  0  0  0  0  0  0  0  0  0  0
    4.4175    2.6317   -0.0000 O   0  0  0  0  0  0  0  0  0  0  0  0
   -6.4500    0.7989   -0.0000 C   0  0  0  0  0  0  0  0  0  0  0  0
   -6.4500   -0.6814   -0.0000 C   0  0  0  0  0  0  0  0  0  0  0  0
   -7.7658    1.5626   -0.0000 O   0  0  0  0  0  0  0  0  0  0  0  0
   -9.0699    0.8224   -0.0000 C   0  0  0  0  0  0  0  0  0  0  0  0
  1  2  1  0  0  0  0
  1  3  1  0  0  0  0
  2  4  2  0  0  0  0
  2  5  1  0  0  0  0
  3  6  1  0  0  0  0
  4  7  1  0  0  0  0
  5  8  1  0  0  0  0
  6  9  1  0  0  0  0
  7 10  1  0  0  0  0
  8 11  1  0  0  0  0
  9 12  1  0  0  0  0
 10 13  2  0  0  0  0
 11 14  2  0  0  0  0
 13 15  1  0  0  0  0
 15 16  1  0  0  0  0
  7  8  2  0  0  0  0
 13 14  1  0  0  0  0
M  END
>  <MolRegNo>
1336652

>  <m>
=

>  <Value>
5490

>  <Unit>
nM

>  <Type>
IC50

>  <pValue>
5.26

>  <Ligand Efficiency>
0

>  <Binding Efficiency>
0

>  <Surface Efficiency>
0

>  <Assay Index>
647521

>  <Assay Category>


>  <Assay Organism>
Homo sapiens

>  <Target ID>
17045

>  <Target Name>
Cytochrome P450 3A4

>  <Target Organism>
Homo sapiens

>  <Target Description>
Target is a single protein chain

>  <Sequence Accession>
P08684

>  <Reference>
J Med Chem 55 (3), 1205-1214 (2012)

>  <Pubmed ID>
22239545

>  <DOI>
10.1021/jm201346g

$$$$
1336655
Actelion Java MolfileCreator 1.0

 20 22  0  0  0  0  0  0  0  0999 V2000
    0.0000   -0.0000   -0.0000 S   0  0  0  0  0  0  0  0  0  0  0  0
   -1.5078    0.0118   -0.0000 C   0  0  0  0  0  0  0  0  0  0  0  0
    0.7303    1.3075   -0.0000 C   0  0  0  0  0  0  0  0  0  0  0  0
   -2.4031    1.2369   -0.0000 N   0  0  0  0  0  0  0  0  0  0  0  0
   -2.4031   -1.1897   -0.0000 N   0  0  0  0  0  0  0  0  0  0  0  0
    2.2146    1.3193   -0.0000 C   0  0  0  0  0  0  0  0  0  0  0  0
   -3.8402    0.7775   -0.0000 C   0  0  0  0  0  0  0  0  0  0  0  0
   -3.8402   -0.7068   -0.0000 C   0  0  0  0  0  0  0  0  0  0  0  0
    2.9449    0.0353   -0.0000 C   0  0  0  0  0  0  0  0  0  0  0  0
    2.9331    2.6269   -0.0000 C   0  0  0  0  0  0  0  0  0  0  0  0
   -5.1595    1.5431   -0.0000 C   0  0  0  0  0  0  0  0  0  0  0  0
   -5.1595   -1.4489   -0.0000 C   0  0  0  0  0  0  0  0  0  0  0  0
    4.4292    0.0471   -0.0000 C   0  0  0  0  0  0  0  0  0  0  0  0
    4.4174    2.6386   -0.0000 C   0  0  0  0  0  0  0  0  0  0  0  0
   -6.4670    0.8010   -0.0000 C   0  0  0  0  0  0  0  0  0  0  0  0
   -6.4670   -0.6832   -0.0000 C   0  0  0  0  0  0  0  0  0  0  0  0
    5.1713    1.3547   -0.0000 C   0  0  0  0  0  0  0  0  0  0  0  0
   -7.7864    1.5667   -0.0000 O   0  0  0  0  0  0  0  0  0  0  0  0
    6.6555    1.3664   -0.0000 C   0  0  0  0  0  0  0  0  0  0  0  0
   -9.0939    0.8246   -0.0000 C   0  0  0  0  0  0  0  0  0  0  0  0
  1  2  1  0  0  0  0
  1  3  1  0  0  0  0
  2  4  2  0  0  0  0
  2  5  1  0  0  0  0
  3  6  1  0  0  0  0
  4  7  1  0  0  0  0
  5  8  1  0  0  0  0
  6  9  2  0  0  0  0
  6 10  1  0  0  0  0
  7 11  1  0  0  0  0
  8 12  1  0  0  0  0
  9 13  1  0  0  0  0
 10 14  2  0  0  0  0
 11 15  2  0  0  0  0
 12 16  2  0  0  0  0
 13 17  2  0  0  0  0
 15 18  1  0  0  0  0
 17 19  1  0  0  0  0
 18 20  1  0  0  0  0
  7  8  2  0  0  0  0
 14 17  1  0  0  0  0
 15 16  1  0  0  0  0
M  END
>  <MolRegNo>
1336655

>  <m>
=

>  <Value>
8860

>  <Unit>
nM

>  <Type>
IC50

>  <pValue>
5.05

>  <Ligand Efficiency>
0

>  <Binding Efficiency>
0

>  <Surface Efficiency>
0

>  <Assay Index>
647521

>  <Assay Category>


>  <Assay Organism>
Homo sapiens

>  <Target ID>
17045

>  <Target Name>
Cytochrome P450 3A4

>  <Target Organism>
Homo sapiens

>  <Target Description>
Target is a single protein chain

>  <Sequence Accession>
P08684

>  <Reference>
J Med Chem 55 (3), 1205-1214 (2012)

>  <Pubmed ID>
22239545

>  <DOI>
10.1021/jm201346g

$$$$
1336656
Actelion Java MolfileCreator 1.0

 22 24  0  0  0  0  0  0  0  0999 V2000
    0.0000   -0.0000   -0.0000 S   0  0  0  0  0  0  0  0  0  0  0  0
   -1.5084    0.0118   -0.0000 C   0  0  0  0  0  0  0  0  0  0  0  0
    0.7424    1.3080   -0.0000 C   0  0  0  0  0  0  0  0  0  0  0  0
   -2.4040    1.2373   -0.0000 N   0  0  0  0  0  0  0  0  0  0  0  0
   -2.4040   -1.1902   -0.0000 N   0  0  0  0  0  0  0  0  0  0  0  0
    2.2272    1.3198   -0.0000 C   0  0  0  0  0  0  0  0  0  0  0  0
   -3.8416    0.7778   -0.0000 C   0  0  0  0  0  0  0  0  0  0  0  0
   -3.8416   -0.7070   -0.0000 C   0  0  0  0  0  0  0  0  0  0  0  0
    2.9578    0.0354   -0.0000 C   0  0  0  0  0  0  0  0  0  0  0  0
    2.9460    2.6279   -0.0000 C   0  0  0  0  0  0  0  0  0  0  0  0
   -5.1614    1.5437   -0.0000 C   0  0  0  0  0  0  0  0  0  0  0  0
   -5.1614   -1.4494   -0.0000 C   0  0  0  0  0  0  0  0  0  0  0  0
    4.4426    0.0471   -0.0000 C   0  0  0  0  0  0  0  0  0  0  0  0
    4.4308    2.6396   -0.0000 C   0  0  0  0  0  0  0  0  0  0  0  0
   -6.4695    0.8013   -0.0000 C   0  0  0  0  0  0  0  0  0  0  0  0
   -6.4695   -0.6835   -0.0000 C   0  0  0  0  0  0  0  0  0  0  0  0
    5.1850    1.3552   -0.0000 C   0  0  0  0  0  0  0  0  0  0  0  0
   -7.7893    1.5673   -0.0000 O   0  0  0  0  0  0  0  0  0  0  0  0
    6.6698    1.3670   -0.0000 C   0  0  0  0  0  0  0  0  0  0  0  0
   -9.0973    0.8249   -0.0000 C   0  0  0  0  0  0  0  0  0  0  0  0
    7.4122    0.0825   -0.0000 C   0  0  0  0  0  0  0  0  0  0  0  0
    7.4004    2.6750   -0.0000 C   0  0  0  0  0  0  0  0  0  0  0  0
  1  2  1  0  0  0  0
  1  3  1  0  0  0  0
  2  4  2  0  0  0  0
  2  5  1  0  0  0  0
  3  6  1  0  0  0  0
  4  7  1  0  0  0  0
  5  8  1  0  0  0  0
  6  9  2  0  0  0  0
  6 10  1  0  0  0  0
  7 11  1  0  0  0  0
  8 12  1  0  0  0  0
  9 13  1  0  0  0  0
 10 14  2  0  0  0  0
 11 15  2  0  0  0  0
 12 16  2  0  0  0  0
 13 17  2  0  0  0  0
 15 18  1  0  0  0  0
 17 19  1  0  0  0  0
 18 20  1  0  0  0  0
 19 21  1  0  0  0  0
 19 22  1  0  0  0  0
  7  8  2  0  0  0  0
 14 17  1  0  0  0  0
 15 16  1  0  0  0  0
M  END
>  <MolRegNo>
1336656

>  <m>
=

>  <Value>
8340

>  <Unit>
nM

>  <Type>
IC50

>  <pValue>
5.08

>  <Ligand Efficiency>
0

>  <Binding Efficiency>
0

>  <Surface Efficiency>
0

>  <Assay Index>
647521

>  <Assay Category>


>  <Assay Organism>
Homo sapiens

>  <Target ID>
17045

>  <Target Name>
Cytochrome P450 3A4

>  <Target Organism>
Homo sapiens

>  <Target Description>
Target is a single protein chain

>  <Sequence Accession>
P08684

>  <Reference>
J Med Chem 55 (3), 1205-1214 (2012)

>  <Pubmed ID>
22239545

>  <DOI>
10.1021/jm201346g

$$$$
1336657
Actelion Java MolfileCreator 1.0

 23 25  0  0  0  0  0  0  0  0999 V2000
    0.0000   -0.0000   -0.0000 S   0  0  0  0  0  0  0  0  0  0  0  0
   -1.5090    0.0118   -0.0000 C   0  0  0  0  0  0  0  0  0  0  0  0
    0.7427    1.3086   -0.0000 C   0  0  0  0  0  0  0  0  0  0  0  0
   -2.4049    1.2378   -0.0000 N   0  0  0  0  0  0  0  0  0  0  0  0
   -2.4049   -1.1907   -0.0000 N   0  0  0  0  0  0  0  0  0  0  0  0
    2.2281    1.3204   -0.0000 C   0  0  0  0  0  0  0  0  0  0  0  0
   -3.8432    0.7781   -0.0000 C   0  0  0  0  0  0  0  0  0  0  0  0
   -3.8432   -0.7073   -0.0000 C   0  0  0  0  0  0  0  0  0  0  0  0
    2.9590    0.0354   -0.0000 C   0  0  0  0  0  0  0  0  0  0  0  0
    2.9472    2.6289   -0.0000 C   0  0  0  0  0  0  0  0  0  0  0  0
   -5.1635    1.5443   -0.0000 C   0  0  0  0  0  0  0  0  0  0  0  0
   -5.1635   -1.4500   -0.0000 C   0  0  0  0  0  0  0  0  0  0  0  0
    4.4444    0.0472   -0.0000 C   0  0  0  0  0  0  0  0  0  0  0  0
    4.4326    2.6407   -0.0000 C   0  0  0  0  0  0  0  0  0  0  0  0
   -6.4721    0.8016   -0.0000 C   0  0  0  0  0  0  0  0  0  0  0  0
   -6.4721   -0.6838   -0.0000 C   0  0  0  0  0  0  0  0  0  0  0  0
    5.1871    1.3557   -0.0000 C   0  0  0  0  0  0  0  0  0  0  0  0
   -7.7924    1.5679   -0.0000 O   0  0  0  0  0  0  0  0  0  0  0  0
    6.6725    1.3675   -0.0000 C   0  0  0  0  0  0  0  0  0  0  0  0
   -9.1010    0.8252   -0.0000 C   0  0  0  0  0  0  0  0  0  0  0  0
    7.4152    0.0825   -0.0000 C   0  0  0  0  0  0  0  0  0  0  0  0
    7.4034    2.6761   -0.0000 C   0  0  0  0  0  0  0  0  0  0  0  0
    8.1579    1.3793   -0.0000 C   0  0  0  0  0  0  0  0  0  0  0  0
  1  2  1  0  0  0  0
  1  3  1  0  0  0  0
  2  4  2  0  0  0  0
  2  5  1  0  0  0  0
  3  6  1  0  0  0  0
  4  7  1  0  0  0  0
  5  8  1  0  0  0  0
  6  9  2  0  0  0  0
  6 10  1  0  0  0  0
  7 11  1  0  0  0  0
  8 12  1  0  0  0  0
  9 13  1  0  0  0  0
 10 14  2  0  0  0  0
 11 15  2  0  0  0  0
 12 16  2  0  0  0  0
 13 17  2  0  0  0  0
 15 18  1  0  0  0  0
 17 19  1  0  0  0  0
 18 20  1  0  0  0  0
 19 21  1  0  0  0  0
 19 22  1  0  0  0  0
 19 23  1  0  0  0  0
  7  8  2  0  0  0  0
 14 17  1  0  0  0  0
 15 16  1  0  0  0  0
M  END
>  <MolRegNo>
1336657

>  <m>
=

>  <Value>
12300

>  <Unit>
nM

>  <Type>
IC50

>  <pValue>
4.91

>  <Ligand Efficiency>
0

>  <Binding Efficiency>
0

>  <Surface Efficiency>
0

>  <Assay Index>
647521

>  <Assay Category>


>  <Assay Organism>
Homo sapiens

>  <Target ID>
17045

>  <Target Name>
Cytochrome P450 3A4

>  <Target Organism>
Homo sapiens

>  <Target Description>
Target is a single protein chain

>  <Sequence Accession>
P08684

>  <Reference>
J Med Chem 55 (3), 1205-1214 (2012)

>  <Pubmed ID>
22239545

>  <DOI>
10.1021/jm201346g

$$$$
1336658
Actelion Java MolfileCreator 1.0

 20 22  0  0  0  0  0  0  0  0999 V2000
    0.0000   -0.0000   -0.0000 Cl  0  0  0  0  0  0  0  0  0  0  0  0
   -1.5018    0.0117   -0.0000 C   0  0  0  0  0  0  0  0  0  0  0  0
   -2.2644   -1.2671   -0.0000 C   0  0  0  0  0  0  0  0  0  0  0  0
   -2.2644    1.3141   -0.0000 C   0  0  0  0  0  0  0  0  0  0  0  0
   -3.7662   -1.2554   -0.0000 C   0  0  0  0  0  0  0  0  0  0  0  0
   -3.7662    1.3258   -0.0000 C   0  0  0  0  0  0  0  0  0  0  0  0
   -4.5171    0.0469   -0.0000 C   0  0  0  0  0  0  0  0  0  0  0  0
   -6.0188    0.0587   -0.0000 C   0  0  0  0  0  0  0  0  0  0  0  0
   -6.7697   -1.2202   -0.0000 S   0  0  0  0  0  0  0  0  0  0  0  0
   -8.2715   -1.2085   -0.0000 C   0  0  0  0  0  0  0  0  0  0  0  0
   -9.1632    0.0117   -0.0000 N   0  0  0  0  0  0  0  0  0  0  0  0
   -9.1632   -2.4052   -0.0000 N   0  0  0  0  0  0  0  0  0  0  0  0
  -10.5945   -0.4458   -0.0000 C   0  0  0  0  0  0  0  0  0  0  0  0
  -10.5945   -1.9241   -0.0000 C   0  0  0  0  0  0  0  0  0  0  0  0
  -11.9086    0.3168   -0.0000 C   0  0  0  0  0  0  0  0  0  0  0  0
  -11.9086   -2.6633   -0.0000 C   0  0  0  0  0  0  0  0  0  0  0  0
  -13.2109   -0.4224   -0.0000 C   0  0  0  0  0  0  0  0  0  0  0  0
  -13.2109   -1.9007   -0.0000 C   0  0  0  0  0  0  0  0  0  0  0  0
  -14.5250    0.3402   -0.0000 O   0  0  0  0  0  0  0  0  0  0  0  0
  -15.8273   -0.3989   -0.0000 C   0  0  0  0  0  0  0  0  0  0  0  0
  1  2  1  0  0  0  0
  2  3  2  0  0  0  0
  2  4  1  0  0  0  0
  3  5  1  0  0  0  0
  4  6  2  0  0  0  0
  5  7  2  0  0  0  0
  7  8  1  0  0  0  0
  8  9  1  0  0  0  0
  9 10  1  0  0  0  0
 10 11  2  0  0  0  0
 10 12  1  0  0  0  0
 11 13  1  0  0  0  0
 12 14  1  0  0  0  0
 13 15  1  0  0  0  0
 14 16  1  0  0  0  0
 15 17  2  0  0  0  0
 16 18  2  0  0  0  0
 17 19  1  0  0  0  0
 19 20  1  0  0  0  0
  6  7  1  0  0  0  0
 13 14  2  0  0  0  0
 17 18  1  0  0  0  0
M  END
>  <MolRegNo>
1336658

>  <m>
=

>  <Value>
4860

>  <Unit>
nM

>  <Type>
IC50

>  <pValue>
5.31

>  <Ligand Efficiency>
0

>  <Binding Efficiency>
0

>  <Surface Efficiency>
0

>  <Assay Index>
647521

>  <Assay Category>


>  <Assay Organism>
Homo sapiens

>  <Target ID>
17045

>  <Target Name>
Cytochrome P450 3A4

>  <Target Organism>
Homo sapiens

>  <Target Description>
Target is a single protein chain

>  <Sequence Accession>
P08684

>  <Reference>
J Med Chem 55 (3), 1205-1214 (2012)

>  <Pubmed ID>
22239545

>  <DOI>
10.1021/jm201346g

$$$$
1336659
Actelion Java MolfileCreator 1.0

 20 22  0  0  0  0  0  0  0  0999 V2000
    0.0000   -0.0000   -0.0000 Br  0  0  0  0  0  0  0  0  0  0  0  0
   -1.5018    0.0117   -0.0000 C   0  0  0  0  0  0  0  0  0  0  0  0
   -2.2644   -1.2671   -0.0000 C   0  0  0  0  0  0  0  0  0  0  0  0
   -2.2644    1.3141   -0.0000 C   0  0  0  0  0  0  0  0  0  0  0  0
   -3.7662   -1.2554   -0.0000 C   0  0  0  0  0  0  0  0  0  0  0  0
   -3.7662    1.3258   -0.0000 C   0  0  0  0  0  0  0  0  0  0  0  0
   -4.5171    0.0469   -0.0000 C   0  0  0  0  0  0  0  0  0  0  0  0
   -6.0188    0.0587   -0.0000 C   0  0  0  0  0  0  0  0  0  0  0  0
   -6.7697   -1.2202   -0.0000 S   0  0  0  0  0  0  0  0  0  0  0  0
   -8.2715   -1.2085   -0.0000 C   0  0  0  0  0  0  0  0  0  0  0  0
   -9.1632    0.0117   -0.0000 N   0  0  0  0  0  0  0  0  0  0  0  0
   -9.1632   -2.4052   -0.0000 N   0  0  0  0  0  0  0  0  0  0  0  0
  -10.5945   -0.4458   -0.0000 C   0  0  0  0  0  0  0  0  0  0  0  0
  -10.5945   -1.9241   -0.0000 C   0  0  0  0  0  0  0  0  0  0  0  0
  -11.9086    0.3168   -0.0000 C   0  0  0  0  0  0  0  0  0  0  0  0
  -11.9086   -2.6633   -0.0000 C   0  0  0  0  0  0  0  0  0  0  0  0
  -13.2109   -0.4224   -0.0000 C   0  0  0  0  0  0  0  0  0  0  0  0
  -13.2109   -1.9007   -0.0000 C   0  0  0  0  0  0  0  0  0  0  0  0
  -14.5250    0.3402   -0.0000 O   0  0  0  0  0  0  0  0  0  0  0  0
  -15.8273   -0.3989   -0.0000 C   0  0  0  0  0  0  0  0  0  0  0  0
  1  2  1  0  0  0  0
  2  3  2  0  0  0  0
  2  4  1  0  0  0  0
  3  5  1  0  0  0  0
  4  6  2  0  0  0  0
  5  7  2  0  0  0  0
  7  8  1  0  0  0  0
  8  9  1  0  0  0  0
  9 10  1  0  0  0  0
 10 11  2  0  0  0  0
 10 12  1  0  0  0  0
 11 13  1  0  0  0  0
 12 14  1  0  0  0  0
 13 15  1  0  0  0  0
 14 16  1  0  0  0  0
 15 17  2  0  0  0  0
 16 18  2  0  0  0  0
 17 19  1  0  0  0  0
 19 20  1  0  0  0  0
  6  7  1  0  0  0  0
 13 14  2  0  0  0  0
 17 18  1  0  0  0  0
M  END
>  <MolRegNo>
1336659

>  <m>
=

>  <Value>
4230

>  <Unit>
nM

>  <Type>
IC50

>  <pValue>
5.37

>  <Ligand Efficiency>
0

>  <Binding Efficiency>
0

>  <Surface Efficiency>
0

>  <Assay Index>
647521

>  <Assay Category>


>  <Assay Organism>
Homo sapiens

>  <Target ID>
17045

>  <Target Name>
Cytochrome P450 3A4

>  <Target Organism>
Homo sapiens

>  <Target Description>
Target is a single protein chain

>  <Sequence Accession>
P08684

>  <Reference>
J Med Chem 55 (3), 1205-1214 (2012)

>  <Pubmed ID>
22239545

>  <DOI>
10.1021/jm201346g

$$$$
1336660
Actelion Java MolfileCreator 1.0

 20 22  0  0  0  0  0  0  0  0999 V2000
    0.0000   -0.0000   -0.0000 I   0  0  0  0  0  0  0  0  0  0  0  0
   -1.5018    0.0117   -0.0000 C   0  0  0  0  0  0  0  0  0  0  0  0
   -2.2644   -1.2671   -0.0000 C   0  0  0  0  0  0  0  0  0  0  0  0
   -2.2644    1.3141   -0.0000 C   0  0  0  0  0  0  0  0  0  0  0  0
   -3.7662   -1.2554   -0.0000 C   0  0  0  0  0  0  0  0  0  0  0  0
   -3.7662    1.3258   -0.0000 C   0  0  0  0  0  0  0  0  0  0  0  0
   -4.5171    0.0469   -0.0000 C   0  0  0  0  0  0  0  0  0  0  0  0
   -6.0188    0.0587   -0.0000 C   0  0  0  0  0  0  0  0  0  0  0  0
   -6.7697   -1.2202   -0.0000 S   0  0  0  0  0  0  0  0  0  0  0  0
   -8.2715   -1.2085   -0.0000 C   0  0  0  0  0  0  0  0  0  0  0  0
   -9.1632    0.0117   -0.0000 N   0  0  0  0  0  0  0  0  0  0  0  0
   -9.1632   -2.4052   -0.0000 N   0  0  0  0  0  0  0  0  0  0  0  0
  -10.5945   -0.4458   -0.0000 C   0  0  0  0  0  0  0  0  0  0  0  0
  -10.5945   -1.9241   -0.0000 C   0  0  0  0  0  0  0  0  0  0  0  0
  -11.9086    0.3168   -0.0000 C   0  0  0  0  0  0  0  0  0  0  0  0
  -11.9086   -2.6633   -0.0000 C   0  0  0  0  0  0  0  0  0  0  0  0
  -13.2109   -0.4224   -0.0000 C   0  0  0  0  0  0  0  0  0  0  0  0
  -13.2109   -1.9007   -0.0000 C   0  0  0  0  0  0  0  0  0  0  0  0
  -14.5250    0.3402   -0.0000 O   0  0  0  0  0  0  0  0  0  0  0  0
  -15.8273   -0.3989   -0.0000 C   0  0  0  0  0  0  0  0  0  0  0  0
  1  2  1  0  0  0  0
  2  3  2  0  0  0  0
  2  4  1  0  0  0  0
  3  5  1  0  0  0  0
  4  6  2  0  0  0  0
  5  7  2  0  0  0  0
  7  8  1  0  0  0  0
  8  9  1  0  0  0  0
  9 10  1  0  0  0  0
 10 11  2  0  0  0  0
 10 12  1  0  0  0  0
 11 13  1  0  0  0  0
 12 14  1  0  0  0  0
 13 15  1  0  0  0  0
 14 16  1  0  0  0  0
 15 17  2  0  0  0  0
 16 18  2  0  0  0  0
 17 19  1  0  0  0  0
 19 20  1  0  0  0  0
  6  7  1  0  0  0  0
 13 14  2  0  0  0  0
 17 18  1  0  0  0  0
M  END
>  <MolRegNo>
1336660

>  <m>
=

>  <Value>
4910

>  <Unit>
nM

>  <Type>
IC50

>  <pValue>
5.31

>  <Ligand Efficiency>
0

>  <Binding Efficiency>
0

>  <Surface Efficiency>
0

>  <Assay Index>
647521

>  <Assay Category>


>  <Assay Organism>
Homo sapiens

>  <Target ID>
17045

>  <Target Name>
Cytochrome P450 3A4

>  <Target Organism>
Homo sapiens

>  <Target Description>
Target is a single protein chain

>  <Sequence Accession>
P08684

>  <Reference>
J Med Chem 55 (3), 1205-1214 (2012)

>  <Pubmed ID>
22239545

>  <DOI>
10.1021/jm201346g

$$$$
1336661
Actelion Java MolfileCreator 1.0

 22 24  0  0  0  0  0  0  0  0999 V2000
    0.0000   -0.0000   -0.0000 S   0  0  0  0  0  0  0  0  0  0  0  0
   -1.5086    0.0118   -0.0000 C   0  0  0  0  0  0  0  0  0  0  0  0
    0.7307    1.3082   -0.0000 C   0  0  0  0  0  0  0  0  0  0  0  0
   -2.4043    1.2375   -0.0000 N   0  0  0  0  0  0  0  0  0  0  0  0
   -2.4043   -1.1904   -0.0000 N   0  0  0  0  0  0  0  0  0  0  0  0
    2.2158    1.3200   -0.0000 C   0  0  0  0  0  0  0  0  0  0  0  0
   -3.8422    0.7779   -0.0000 C   0  0  0  0  0  0  0  0  0  0  0  0
   -3.8422   -0.7072   -0.0000 C   0  0  0  0  0  0  0  0  0  0  0  0
    2.9465    0.0354   -0.0000 C   0  0  0  0  0  0  0  0  0  0  0  0
    2.9347    2.6283   -0.0000 C   0  0  0  0  0  0  0  0  0  0  0  0
   -5.1623    1.5440   -0.0000 C   0  0  0  0  0  0  0  0  0  0  0  0
   -5.1623   -1.4497   -0.0000 C   0  0  0  0  0  0  0  0  0  0  0  0
    4.4315    0.0471   -0.0000 C   0  0  0  0  0  0  0  0  0  0  0  0
    4.4197    2.6401   -0.0000 C   0  0  0  0  0  0  0  0  0  0  0  0
   -6.4705    0.8014   -0.0000 C   0  0  0  0  0  0  0  0  0  0  0  0
   -6.4705   -0.6836   -0.0000 C   0  0  0  0  0  0  0  0  0  0  0  0
    5.1740    1.3554   -0.0000 C   0  0  0  0  0  0  0  0  0  0  0  0
   -7.7905    1.5675   -0.0000 O   0  0  0  0  0  0  0  0  0  0  0  0
    6.6591    1.3672   -0.0000 C   0  0  0  0  0  0  0  0  0  0  0  0
   -9.0988    0.8250   -0.0000 C   0  0  0  0  0  0  0  0  0  0  0  0
    7.4016    0.0825   -0.0000 O   0  0  0  0  0  0  0  0  0  0  0  0
    7.3898    2.6754   -0.0000 O   0  0  0  0  0  0  0  0  0  0  0  0
  1  2  1  0  0  0  0
  1  3  1  0  0  0  0
  2  4  2  0  0  0  0
  2  5  1  0  0  0  0
  3  6  1  0  0  0  0
  4  7  1  0  0  0  0
  5  8  1  0  0  0  0
  6  9  2  0  0  0  0
  6 10  1  0  0  0  0
  7 11  1  0  0  0  0
  8 12  1  0  0  0  0
  9 13  1  0  0  0  0
 10 14  2  0  0  0  0
 11 15  2  0  0  0  0
 12 16  2  0  0  0  0
 13 17  2  0  0  0  0
 15 18  1  0  0  0  0
 17 19  1  0  0  0  0
 18 20  1  0  0  0  0
 19 21  2  0  0  0  0
 19 22  1  0  0  0  0
  7  8  2  0  0  0  0
 14 17  1  0  0  0  0
 15 16  1  0  0  0  0
M  END
>  <MolRegNo>
1336661

>  <m>
=

>  <Value>
50000

>  <Unit>
nM

>  <Type>
IC50

>  <pValue>
4.3

>  <Ligand Efficiency>
0

>  <Binding Efficiency>
0

>  <Surface Efficiency>
0

>  <Assay Index>
647521

>  <Assay Category>


>  <Assay Organism>
Homo sapiens

>  <Target ID>
17045

>  <Target Name>
Cytochrome P450 3A4

>  <Target Organism>
Homo sapiens

>  <Target Description>
Target is a single protein chain

>  <Sequence Accession>
P08684

>  <Reference>
J Med Chem 55 (3), 1205-1214 (2012)

>  <Pubmed ID>
22239545

>  <DOI>
10.1021/jm201346g

$$$$
516879
Actelion Java MolfileCreator 1.0

 23 25  0  0  0  0  0  0  0  0999 V2000
    0.0000   -0.0000   -0.0000 S   0  0  0  0  0  0  0  0  0  0  0  0
   -1.5076    0.0236   -0.0000 C   0  0  0  0  0  0  0  0  0  0  0  0
    0.7184   -1.2956   -0.0000 C   0  0  0  0  0  0  0  0  0  0  0  0
   -2.4027   -1.1896   -0.0000 N   0  0  0  0  0  0  0  0  0  0  0  0
   -2.4027    1.2484   -0.0000 N   0  0  0  0  0  0  0  0  0  0  0  0
    2.2024   -1.2956   -0.0000 C   0  0  0  0  0  0  0  0  0  0  0  0
   -3.8513   -0.7184   -0.0000 C   0  0  0  0  0  0  0  0  0  0  0  0
   -3.8513    0.7891   -0.0000 C   0  0  0  0  0  0  0  0  0  0  0  0
    2.9209   -2.5911   -0.0000 C   0  0  0  0  0  0  0  0  0  0  0  0
    2.9444   -0.0000   -0.0000 C   0  0  0  0  0  0  0  0  0  0  0  0
   -5.1587   -1.4604   -0.0000 C   0  0  0  0  0  0  0  0  0  0  0  0
   -5.1704    1.5429   -0.0000 C   0  0  0  0  0  0  0  0  0  0  0  0
    4.4049   -2.5911   -0.0000 C   0  0  0  0  0  0  0  0  0  0  0  0
    4.4284   -0.0000   -0.0000 C   0  0  0  0  0  0  0  0  0  0  0  0
   -6.4660   -0.6949   -0.0000 C   0  0  0  0  0  0  0  0  0  0  0  0
   -6.4660    0.8009   -0.0000 C   0  0  0  0  0  0  0  0  0  0  0  0
    5.1233   -3.8867   -0.0000 O   0  0  0  0  0  0  0  0  0  0  0  0
    5.1587   -1.2956   -0.0000 C   0  0  0  0  0  0  0  0  0  0  0  0
    5.1704    1.3073   -0.0000 O   0  0  0  0  0  0  0  0  0  0  0  0
   -7.7733    1.5547   -0.0000 O   0  0  0  0  0  0  0  0  0  0  0  0
    4.3460   -5.1587   -0.0000 C   0  0  0  0  0  0  0  0  0  0  0  0
    4.4167    2.6147   -0.0000 C   0  0  0  0  0  0  0  0  0  0  0  0
   -9.0807    0.8127   -0.0000 C   0  0  0  0  0  0  0  0  0  0  0  0
  1  2  1  0  0  0  0
  1  3  1  0  0  0  0
  2  4  2  0  0  0  0
  2  5  1  0  0  0  0
  3  6  1  0  0  0  0
  4  7  1  0  0  0  0
  5  8  1  0  0  0  0
  6  9  2  0  0  0  0
  6 10  1  0  0  0  0
  7 11  1  0  0  0  0
  8 12  1  0  0  0  0
  9 13  1  0  0  0  0
 10 14  2  0  0  0  0
 11 15  2  0  0  0  0
 12 16  2  0  0  0  0
 13 17  1  0  0  0  0
 13 18  2  0  0  0  0
 14 19  1  0  0  0  0
 16 20  1  0  0  0  0
 17 21  1  0  0  0  0
 19 22  1  0  0  0  0
 20 23  1  0  0  0  0
  7  8  2  0  0  0  0
 14 18  1  0  0  0  0
 15 16  1  0  0  0  0
M  END
>  <MolRegNo>
516879

>  <m>
=

>  <Value>
720

>  <Unit>
nM

>  <Type>
IC50

>  <pValue>
6.14

>  <Ligand Efficiency>
0

>  <Binding Efficiency>
0

>  <Surface Efficiency>
0

>  <Assay Index>
647521

>  <Assay Category>


>  <Assay Organism>
Homo sapiens

>  <Target ID>
17045

>  <Target Name>
Cytochrome P450 3A4

>  <Target Organism>
Homo sapiens

>  <Target Description>
Target is a single protein chain

>  <Sequence Accession>
P08684

>  <Reference>
J Med Chem 55 (3), 1205-1214 (2012)

>  <Pubmed ID>
22239545

>  <DOI>
10.1021/jm201346g

$$$$
1336662
Actelion Java MolfileCreator 1.0

 25 28  0  0  0  0  0  0  0  0999 V2000
    0.0000   -0.0000   -0.0000 S   0  0  0  0  0  0  0  0  0  0  0  0
   -1.5092    0.0118   -0.0000 C   0  0  0  0  0  0  0  0  0  0  0  0
    0.7310    1.3087   -0.0000 C   0  0  0  0  0  0  0  0  0  0  0  0
   -2.4053    1.2380   -0.0000 N   0  0  0  0  0  0  0  0  0  0  0  0
   -2.4053   -1.1908   -0.0000 N   0  0  0  0  0  0  0  0  0  0  0  0
    2.2166    1.3205   -0.0000 C   0  0  0  0  0  0  0  0  0  0  0  0
   -3.8437    0.7782   -0.0000 C   0  0  0  0  0  0  0  0  0  0  0  0
   -3.8437   -0.7074   -0.0000 C   0  0  0  0  0  0  0  0  0  0  0  0
    2.9358    2.6175   -0.0000 C   0  0  0  0  0  0  0  0  0  0  0  0
    2.9476    0.0354   -0.0000 C   0  0  0  0  0  0  0  0  0  0  0  0
   -5.1642    1.5446   -0.0000 C   0  0  0  0  0  0  0  0  0  0  0  0
   -5.1642   -1.4502   -0.0000 C   0  0  0  0  0  0  0  0  0  0  0  0
    4.4214    2.6293   -0.0000 C   0  0  0  0  0  0  0  0  0  0  0  0
    4.4332    0.0472   -0.0000 C   0  0  0  0  0  0  0  0  0  0  0  0
   -6.4730    0.8018   -0.0000 C   0  0  0  0  0  0  0  0  0  0  0  0
   -6.4730   -0.6838   -0.0000 C   0  0  0  0  0  0  0  0  0  0  0  0
    5.1525    3.9380   -0.0000 C   0  0  0  0  0  0  0  0  0  0  0  0
    5.1642    1.3441   -0.0000 C   0  0  0  0  0  0  0  0  0  0  0  0
   -7.7817    1.5681   -0.0000 O   0  0  0  0  0  0  0  0  0  0  0  0
    6.6381    3.9498   -0.0000 C   0  0  0  0  0  0  0  0  0  0  0  0
    4.3861    5.2350   -0.0000 C   0  0  0  0  0  0  0  0  0  0  0  0
   -9.0905    0.8253   -0.0000 C   0  0  0  0  0  0  0  0  0  0  0  0
    7.3691    5.2586   -0.0000 C   0  0  0  0  0  0  0  0  0  0  0  0
    5.1053    6.5437   -0.0000 C   0  0  0  0  0  0  0  0  0  0  0  0
    6.6027    6.5673   -0.0000 C   0  0  0  0  0  0  0  0  0  0  0  0
  1  2  1  0  0  0  0
  1  3  1  0  0  0  0
  2  4  2  0  0  0  0
  2  5  1  0  0  0  0
  3  6  1  0  0  0  0
  4  7  1  0  0  0  0
  5  8  1  0  0  0  0
  6  9  2  0  0  0  0
  6 10  1  0  0  0  0
  7 11  1  0  0  0  0
  8 12  1  0  0  0  0
  9 13  1  0  0  0  0
 10 14  2  0  0  0  0
 11 15  2  0  0  0  0
 12 16  2  0  0  0  0
 13 17  1  0  0  0  0
 13 18  2  0  0  0  0
 15 19  1  0  0  0  0
 17 20  2  0  0  0  0
 17 21  1  0  0  0  0
 19 22  1  0  0  0  0
 20 23  1  0  0  0  0
 21 24  2  0  0  0  0
 23 25  2  0  0  0  0
  7  8  2  0  0  0  0
 14 18  1  0  0  0  0
 15 16  1  0  0  0  0
 24 25  1  0  0  0  0
M  END
>  <MolRegNo>
1336662

>  <m>
=

>  <Value>
1870

>  <Unit>
nM

>  <Type>
IC50

>  <pValue>
5.73

>  <Ligand Efficiency>
0

>  <Binding Efficiency>
0

>  <Surface Efficiency>
0

>  <Assay Index>
647521

>  <Assay Category>


>  <Assay Organism>
Homo sapiens

>  <Target ID>
17045

>  <Target Name>
Cytochrome P450 3A4

>  <Target Organism>
Homo sapiens

>  <Target Description>
Target is a single protein chain

>  <Sequence Accession>
P08684

>  <Reference>
J Med Chem 55 (3), 1205-1214 (2012)

>  <Pubmed ID>
22239545

>  <DOI>
10.1021/jm201346g

$$$$
516880
Actelion Java MolfileCreator 1.0

 23 26  0  0  0  0  0  0  0  0999 V2000
    0.0000   -0.0000   -0.0000 S   0  0  0  0  0  0  0  0  0  0  0  0
   -1.5108    0.0236   -0.0000 C   0  0  0  0  0  0  0  0  0  0  0  0
    0.7200   -1.2866   -0.0000 C   0  0  0  0  0  0  0  0  0  0  0  0
   -2.4079   -1.1921   -0.0000 N   0  0  0  0  0  0  0  0  0  0  0  0
   -2.4079    1.2511   -0.0000 N   0  0  0  0  0  0  0  0  0  0  0  0
    2.2072   -1.2866   -0.0000 C   0  0  0  0  0  0  0  0  0  0  0  0
   -3.8597   -0.7200   -0.0000 C   0  0  0  0  0  0  0  0  0  0  0  0
   -3.8597    0.7908   -0.0000 C   0  0  0  0  0  0  0  0  0  0  0  0
    2.9508    0.0118   -0.0000 C   0  0  0  0  0  0  0  0  0  0  0  0
    2.9272   -2.5731   -0.0000 C   0  0  0  0  0  0  0  0  0  0  0  0
   -5.1698   -1.4636   -0.0000 C   0  0  0  0  0  0  0  0  0  0  0  0
   -5.1698    1.5462   -0.0000 C   0  0  0  0  0  0  0  0  0  0  0  0
    4.4380    0.0118   -0.0000 C   0  0  0  0  0  0  0  0  0  0  0  0
    4.4144   -2.5731   -0.0000 C   0  0  0  0  0  0  0  0  0  0  0  0
   -6.4800   -0.6964   -0.0000 C   0  0  0  0  0  0  0  0  0  0  0  0
   -6.4682    0.8144   -0.0000 C   0  0  0  0  0  0  0  0  0  0  0  0
    5.1580   -1.2866   -0.0000 C   0  0  0  0  0  0  0  0  0  0  0  0
    5.1816    1.3102   -0.0000 C   0  0  0  0  0  0  0  0  0  0  0  0
   -7.7783    1.5698   -0.0000 O   0  0  0  0  0  0  0  0  0  0  0  0
    6.6452   -1.2866   -0.0000 C   0  0  0  0  0  0  0  0  0  0  0  0
    6.6688    1.3102   -0.0000 C   0  0  0  0  0  0  0  0  0  0  0  0
   -9.0885    0.8262   -0.0000 C   0  0  0  0  0  0  0  0  0  0  0  0
    7.4006    0.0236   -0.0000 C   0  0  0  0  0  0  0  0  0  0  0  0
  1  2  1  0  0  0  0
  1  3  1  0  0  0  0
  2  4  2  0  0  0  0
  2  5  1  0  0  0  0
  3  6  1  0  0  0  0
  4  7  1  0  0  0  0
  5  8  1  0  0  0  0
  6  9  2  0  0  0  0
  6 10  1  0  0  0  0
  7 11  1  0  0  0  0
  8 12  1  0  0  0  0
  9 13  1  0  0  0  0
 10 14  2  0  0  0  0
 11 15  2  0  0  0  0
 12 16  2  0  0  0  0
 13 17  1  0  0  0  0
 13 18  2  0  0  0  0
 16 19  1  0  0  0  0
 17 20  2  0  0  0  0
 18 21  1  0  0  0  0
 19 22  1  0  0  0  0
 20 23  1  0  0  0  0
  7  8  2  0  0  0  0
 14 17  1  0  0  0  0
 15 16  1  0  0  0  0
 21 23  2  0  0  0  0
M  END
>  <MolRegNo>
516880

>  <m>
=

>  <Value>
3110

>  <Unit>
nM

>  <Type>
IC50

>  <pValue>
5.51

>  <Ligand Efficiency>
0

>  <Binding Efficiency>
0

>  <Surface Efficiency>
0

>  <Assay Index>
647521

>  <Assay Category>


>  <Assay Organism>
Homo sapiens

>  <Target ID>
17045

>  <Target Name>
Cytochrome P450 3A4

>  <Target Organism>
Homo sapiens

>  <Target Description>
Target is a single protein chain

>  <Sequence Accession>
P08684

>  <Reference>
J Med Chem 55 (3), 1205-1214 (2012)

>  <Pubmed ID>
22239545

>  <DOI>
10.1021/jm201346g

$$$$
1336663
Actelion Java MolfileCreator 1.0

 23 26  0  0  0  0  0  0  0  0999 V2000
    0.0000   -0.0000   -0.0000 S   0  0  0  0  0  0  0  0  0  0  0  0
   -1.5113    0.0118   -0.0000 C   0  0  0  0  0  0  0  0  0  0  0  0
    0.7438    1.3106   -0.0000 C   0  0  0  0  0  0  0  0  0  0  0  0
   -2.4086    1.2397   -0.0000 N   0  0  0  0  0  0  0  0  0  0  0  0
   -2.4086   -1.1925   -0.0000 N   0  0  0  0  0  0  0  0  0  0  0  0
    2.2315    1.3224   -0.0000 C   0  0  0  0  0  0  0  0  0  0  0  0
   -3.8491    0.7793   -0.0000 C   0  0  0  0  0  0  0  0  0  0  0  0
   -3.8491   -0.7084   -0.0000 C   0  0  0  0  0  0  0  0  0  0  0  0
    2.9635    0.0354   -0.0000 N   0  0  0  0  0  0  0  0  0  0  0  0
    2.9517    2.6329   -0.0000 C   0  0  0  0  0  0  0  0  0  0  0  0
   -5.1714    1.5467   -0.0000 C   0  0  0  0  0  0  0  0  0  0  0  0
   -5.1714   -1.4523   -0.0000 C   0  0  0  0  0  0  0  0  0  0  0  0
    4.4512    0.0590   -0.0000 C   0  0  0  0  0  0  0  0  0  0  0  0
    4.4394    2.6448   -0.0000 C   0  0  0  0  0  0  0  0  0  0  0  0
   -6.4820    0.8029   -0.0000 C   0  0  0  0  0  0  0  0  0  0  0  0
   -6.4820   -0.6848   -0.0000 C   0  0  0  0  0  0  0  0  0  0  0  0
    5.1950    1.3578   -0.0000 C   0  0  0  0  0  0  0  0  0  0  0  0
    5.1832   -1.2279   -0.0000 C   0  0  0  0  0  0  0  0  0  0  0  0
   -7.8044    1.5703   -0.0000 O   0  0  0  0  0  0  0  0  0  0  0  0
    6.6709    1.3696   -0.0000 C   0  0  0  0  0  0  0  0  0  0  0  0
    6.6709   -1.2161   -0.0000 C   0  0  0  0  0  0  0  0  0  0  0  0
   -9.1149    0.8265   -0.0000 C   0  0  0  0  0  0  0  0  0  0  0  0
    7.4029    0.0945   -0.0000 C   0  0  0  0  0  0  0  0  0  0  0  0
  1  2  1  0  0  0  0
  1  3  1  0  0  0  0
  2  4  2  0  0  0  0
  2  5  1  0  0  0  0
  3  6  1  0  0  0  0
  4  7  1  0  0  0  0
  5  8  1  0  0  0  0
  6  9  2  0  0  0  0
  6 10  1  0  0  0  0
  7 11  1  0  0  0  0
  8 12  1  0  0  0  0
  9 13  1  0  0  0  0
 10 14  2  0  0  0  0
 11 15  2  0  0  0  0
 12 16  2  0  0  0  0
 13 17  1  0  0  0  0
 13 18  2  0  0  0  0
 15 19  1  0  0  0  0
 17 20  2  0  0  0  0
 18 21  1  0  0  0  0
 19 22  1  0  0  0  0
 20 23  1  0  0  0  0
  7  8  2  0  0  0  0
 14 17  1  0  0  0  0
 15 16  1  0  0  0  0
 21 23  2  0  0  0  0
M  END
>  <MolRegNo>
1336663

>  <m>
=

>  <Value>
2810

>  <Unit>
nM

>  <Type>
IC50

>  <pValue>
5.55

>  <Ligand Efficiency>
0

>  <Binding Efficiency>
0

>  <Surface Efficiency>
0

>  <Assay Index>
647521

>  <Assay Category>


>  <Assay Organism>
Homo sapiens

>  <Target ID>
17045

>  <Target Name>
Cytochrome P450 3A4

>  <Target Organism>
Homo sapiens

>  <Target Description>
Target is a single protein chain

>  <Sequence Accession>
P08684

>  <Reference>
J Med Chem 55 (3), 1205-1214 (2012)

>  <Pubmed ID>
22239545

>  <DOI>
10.1021/jm201346g

$$$$
1336664
Actelion Java MolfileCreator 1.0

 26 29  0  0  0  0  0  0  0  0999 V2000
    0.0000   -0.0000   -0.0000 S   0  0  0  0  0  0  0  0  0  0  0  0
   -1.5102    0.0118   -0.0000 C   0  0  0  0  0  0  0  0  0  0  0  0
    0.7433    1.3096   -0.0000 C   0  0  0  0  0  0  0  0  0  0  0  0
   -2.4068    1.2388   -0.0000 N   0  0  0  0  0  0  0  0  0  0  0  0
   -2.4068   -1.1916   -0.0000 N   0  0  0  0  0  0  0  0  0  0  0  0
    2.2298    1.3214   -0.0000 C   0  0  0  0  0  0  0  0  0  0  0  0
   -3.8462    0.7787   -0.0000 C   0  0  0  0  0  0  0  0  0  0  0  0
   -3.8462   -0.7079   -0.0000 C   0  0  0  0  0  0  0  0  0  0  0  0
    2.9495    2.6310   -0.0000 C   0  0  0  0  0  0  0  0  0  0  0  0
    2.9613    0.0354   -0.0000 C   0  0  0  0  0  0  0  0  0  0  0  0
   -5.1676    1.5455   -0.0000 C   0  0  0  0  0  0  0  0  0  0  0  0
   -5.1676   -1.4512   -0.0000 C   0  0  0  0  0  0  0  0  0  0  0  0
    4.4361    2.6428   -0.0000 C   0  0  0  0  0  0  0  0  0  0  0  0
    4.4479    0.0472   -0.0000 C   0  0  0  0  0  0  0  0  0  0  0  0
   -6.4771    0.8023   -0.0000 C   0  0  0  0  0  0  0  0  0  0  0  0
   -6.4771   -0.6843   -0.0000 C   0  0  0  0  0  0  0  0  0  0  0  0
    5.1676    3.9524   -0.0000 O   0  0  0  0  0  0  0  0  0  0  0  0
    5.1794    1.3568   -0.0000 C   0  0  0  0  0  0  0  0  0  0  0  0
   -7.7985    1.5691   -0.0000 O   0  0  0  0  0  0  0  0  0  0  0  0
    6.6541    3.9642   -0.0000 C   0  0  0  0  0  0  0  0  0  0  0  0
   -9.1081    0.8259   -0.0000 C   0  0  0  0  0  0  0  0  0  0  0  0
    7.3974    2.6782   -0.0000 C   0  0  0  0  0  0  0  0  0  0  0  0
    7.3856    5.2737   -0.0000 C   0  0  0  0  0  0  0  0  0  0  0  0
    8.8840    2.6900   -0.0000 C   0  0  0  0  0  0  0  0  0  0  0  0
    8.8722    5.2973   -0.0000 C   0  0  0  0  0  0  0  0  0  0  0  0
    9.6154    3.9996   -0.0000 C   0  0  0  0  0  0  0  0  0  0  0  0
  1  2  1  0  0  0  0
  1  3  1  0  0  0  0
  2  4  2  0  0  0  0
  2  5  1  0  0  0  0
  3  6  1  0  0  0  0
  4  7  1  0  0  0  0
  5  8  1  0  0  0  0
  6  9  2  0  0  0  0
  6 10  1  0  0  0  0
  7 11  1  0  0  0  0
  8 12  1  0  0  0  0
  9 13  1  0  0  0  0
 10 14  2  0  0  0  0
 11 15  2  0  0  0  0
 12 16  2  0  0  0  0
 13 17  1  0  0  0  0
 13 18  2  0  0  0  0
 15 19  1  0  0  0  0
 17 20  1  0  0  0  0
 19 21  1  0  0  0  0
 20 22  2  0  0  0  0
 20 23  1  0  0  0  0
 22 24  1  0  0  0  0
 23 25  2  0  0  0  0
 24 26  2  0  0  0  0
  7  8  2  0  0  0  0
 14 18  1  0  0  0  0
 15 16  1  0  0  0  0
 25 26  1  0  0  0  0
M  END
>  <MolRegNo>
1336664

>  <m>
=

>  <Value>
2490

>  <Unit>
nM

>  <Type>
IC50

>  <pValue>
5.6

>  <Ligand Efficiency>
0

>  <Binding Efficiency>
0

>  <Surface Efficiency>
0

>  <Assay Index>
647521

>  <Assay Category>


>  <Assay Organism>
Homo sapiens

>  <Target ID>
17045

>  <Target Name>
Cytochrome P450 3A4

>  <Target Organism>
Homo sapiens

>  <Target Description>
Target is a single protein chain

>  <Sequence Accession>
P08684

>  <Reference>
J Med Chem 55 (3), 1205-1214 (2012)

>  <Pubmed ID>
22239545

>  <DOI>
10.1021/jm201346g

$$$$
1336665
Actelion Java MolfileCreator 1.0

 27 30  0  0  0  0  0  0  0  0999 V2000
    0.0000   -0.0000   -0.0000 S   0  0  0  0  0  0  0  0  0  0  0  0
   -1.5108    0.0118   -0.0000 C   0  0  0  0  0  0  0  0  0  0  0  0
    0.7318    1.3101   -0.0000 C   0  0  0  0  0  0  0  0  0  0  0  0
   -2.4078    1.2393   -0.0000 N   0  0  0  0  0  0  0  0  0  0  0  0
   -2.4078   -1.1921   -0.0000 N   0  0  0  0  0  0  0  0  0  0  0  0
    2.2190    1.3219   -0.0000 C   0  0  0  0  0  0  0  0  0  0  0  0
   -3.8478    0.7790   -0.0000 C   0  0  0  0  0  0  0  0  0  0  0  0
   -3.8478   -0.7082   -0.0000 C   0  0  0  0  0  0  0  0  0  0  0  0
    2.9508    0.0354   -0.0000 C   0  0  0  0  0  0  0  0  0  0  0  0
    2.9390    2.6321   -0.0000 C   0  0  0  0  0  0  0  0  0  0  0  0
   -5.1697    1.5462   -0.0000 C   0  0  0  0  0  0  0  0  0  0  0  0
   -5.1697   -1.4518   -0.0000 C   0  0  0  0  0  0  0  0  0  0  0  0
    4.4380    0.0472   -0.0000 C   0  0  0  0  0  0  0  0  0  0  0  0
    4.4262    2.6439   -0.0000 C   0  0  0  0  0  0  0  0  0  0  0  0
   -6.4799    0.8026   -0.0000 C   0  0  0  0  0  0  0  0  0  0  0  0
   -6.4799   -0.6846   -0.0000 C   0  0  0  0  0  0  0  0  0  0  0  0
    5.1816    1.3574   -0.0000 C   0  0  0  0  0  0  0  0  0  0  0  0
   -7.8018    1.5698   -0.0000 O   0  0  0  0  0  0  0  0  0  0  0  0
    6.6687    1.3692   -0.0000 O   0  0  0  0  0  0  0  0  0  0  0  0
   -9.1120    0.8262   -0.0000 C   0  0  0  0  0  0  0  0  0  0  0  0
    7.4005    2.6793   -0.0000 C   0  0  0  0  0  0  0  0  0  0  0  0
    8.8877    2.6911   -0.0000 C   0  0  0  0  0  0  0  0  0  0  0  0
    9.6195    1.4046   -0.0000 C   0  0  0  0  0  0  0  0  0  0  0  0
    9.6077    4.0012   -0.0000 C   0  0  0  0  0  0  0  0  0  0  0  0
   11.1067    1.4164   -0.0000 C   0  0  0  0  0  0  0  0  0  0  0  0
   11.0949    4.0249   -0.0000 C   0  0  0  0  0  0  0  0  0  0  0  0
   11.8385    2.7265   -0.0000 C   0  0  0  0  0  0  0  0  0  0  0  0
  1  2  1  0  0  0  0
  1  3  1  0  0  0  0
  2  4  2  0  0  0  0
  2  5  1  0  0  0  0
  3  6  1  0  0  0  0
  4  7  1  0  0  0  0
  5  8  1  0  0  0  0
  6  9  2  0  0  0  0
  6 10  1  0  0  0  0
  7 11  1  0  0  0  0
  8 12  1  0  0  0  0
  9 13  1  0  0  0  0
 10 14  2  0  0  0  0
 11 15  2  0  0  0  0
 12 16  2  0  0  0  0
 13 17  2  0  0  0  0
 15 18  1  0  0  0  0
 17 19  1  0  0  0  0
 18 20  1  0  0  0  0
 19 21  1  0  0  0  0
 21 22  1  0  0  0  0
 22 23  2  0  0  0  0
 22 24  1  0  0  0  0
 23 25  1  0  0  0  0
 24 26  2  0  0  0  0
 25 27  2  0  0  0  0
  7  8  2  0  0  0  0
 14 17  1  0  0  0  0
 15 16  1  0  0  0  0
 26 27  1  0  0  0  0
M  END
>  <MolRegNo>
1336665

>  <m>
=

>  <Value>
3560

>  <Unit>
nM

>  <Type>
IC50

>  <pValue>
5.45

>  <Ligand Efficiency>
0

>  <Binding Efficiency>
0

>  <Surface Efficiency>
0

>  <Assay Index>
647521

>  <Assay Category>


>  <Assay Organism>
Homo sapiens

>  <Target ID>
17045

>  <Target Name>
Cytochrome P450 3A4

>  <Target Organism>
Homo sapiens

>  <Target Description>
Target is a single protein chain

>  <Sequence Accession>
P08684

>  <Reference>
J Med Chem 55 (3), 1205-1214 (2012)

>  <Pubmed ID>
22239545

>  <DOI>
10.1021/jm201346g

$$$$
1336762
Actelion Java MolfileCreator 1.0

 19 21  0  0  0  0  0  0  0  0999 V2000
    0.0000   -0.0000   -0.0000 S   0  0  0  0  0  0  0  0  0  0  0  0
   -1.5070    0.0118   -0.0000 C   0  0  0  0  0  0  0  0  0  0  0  0
    0.7300    1.3069   -0.0000 C   0  0  0  0  0  0  0  0  0  0  0  0
   -2.4019    1.2362   -0.0000 N   0  0  0  0  0  0  0  0  0  0  0  0
   -2.4019   -1.1892   -0.0000 N   0  0  0  0  0  0  0  0  0  0  0  0
    2.2135    1.3187   -0.0000 C   0  0  0  0  0  0  0  0  0  0  0  0
   -3.8383    0.7771   -0.0000 C   0  0  0  0  0  0  0  0  0  0  0  0
   -3.8383   -0.7064   -0.0000 C   0  0  0  0  0  0  0  0  0  0  0  0
    2.9434    0.0353   -0.0000 N   0  0  0  0  0  0  0  0  0  0  0  0
    2.9317    2.6256   -0.0000 C   0  0  0  0  0  0  0  0  0  0  0  0
   -5.1569    1.5424   -0.0000 C   0  0  0  0  0  0  0  0  0  0  0  0
   -5.1569   -1.4482   -0.0000 C   0  0  0  0  0  0  0  0  0  0  0  0
    4.4269    0.0471   -0.0000 C   0  0  0  0  0  0  0  0  0  0  0  0
    4.4152    2.6373   -0.0000 C   0  0  0  0  0  0  0  0  0  0  0  0
   -6.4638    0.8006   -0.0000 C   0  0  0  0  0  0  0  0  0  0  0  0
   -6.4638   -0.6829   -0.0000 C   0  0  0  0  0  0  0  0  0  0  0  0
    5.1687    1.3540   -0.0000 C   0  0  0  0  0  0  0  0  0  0  0  0
   -7.7825    1.5659   -0.0000 O   0  0  0  0  0  0  0  0  0  0  0  0
   -9.0894    0.8242   -0.0000 C   0  0  0  0  0  0  0  0  0  0  0  0
  1  2  1  0  0  0  0
  1  3  1  0  0  0  0
  2  4  2  0  0  0  0
  2  5  1  0  0  0  0
  3  6  1  0  0  0  0
  4  7  1  0  0  0  0
  5  8  1  0  0  0  0
  6  9  2  0  0  0  0
  6 10  1  0  0  0  0
  7 11  1  0  0  0  0
  8 12  1  0  0  0  0
  9 13  1  0  0  0  0
 10 14  2  0  0  0  0
 11 15  2  0  0  0  0
 12 16  2  0  0  0  0
 13 17  2  0  0  0  0
 15 18  1  0  0  0  0
 18 19  1  0  0  0  0
  7  8  2  0  0  0  0
 14 17  1  0  0  0  0
 15 16  1  0  0  0  0
M  END
>  <MolRegNo>
1336762

>  <m>
=

>  <Value>
4010

>  <Unit>
nM

>  <Type>
IC50

>  <pValue>
5.4

>  <Ligand Efficiency>
0

>  <Binding Efficiency>
0

>  <Surface Efficiency>
0

>  <Assay Index>
647521

>  <Assay Category>


>  <Assay Organism>
Homo sapiens

>  <Target ID>
17045

>  <Target Name>
Cytochrome P450 3A4

>  <Target Organism>
Homo sapiens

>  <Target Description>
Target is a single protein chain

>  <Sequence Accession>
P08684

>  <Reference>
J Med Chem 55 (3), 1205-1214 (2012)

>  <Pubmed ID>
22239545

>  <DOI>
10.1021/jm201346g

$$$$
1336763
Actelion Java MolfileCreator 1.0

 20 22  0  0  0  0  0  0  0  0999 V2000
    0.0000   -0.0000   -0.0000 S   0  0  0  0  0  0  0  0  0  0  0  0
   -1.5064    0.0118   -0.0000 C   0  0  0  0  0  0  0  0  0  0  0  0
    0.7414    1.3063   -0.0000 C   0  0  0  0  0  0  0  0  0  0  0  0
   -2.4008    1.2357   -0.0000 N   0  0  0  0  0  0  0  0  0  0  0  0
   -2.4008   -1.1886   -0.0000 N   0  0  0  0  0  0  0  0  0  0  0  0
    2.2243    1.3181   -0.0000 C   0  0  0  0  0  0  0  0  0  0  0  0
   -3.8366    0.7767   -0.0000 C   0  0  0  0  0  0  0  0  0  0  0  0
   -3.8366   -0.7061   -0.0000 C   0  0  0  0  0  0  0  0  0  0  0  0
    2.9539    0.0353   -0.0000 N   0  0  0  0  0  0  0  0  0  0  0  0
    2.9422    2.6244   -0.0000 C   0  0  0  0  0  0  0  0  0  0  0  0
   -5.1547    1.5417   -0.0000 C   0  0  0  0  0  0  0  0  0  0  0  0
   -5.1547   -1.4475   -0.0000 C   0  0  0  0  0  0  0  0  0  0  0  0
    4.4368    0.0471   -0.0000 C   0  0  0  0  0  0  0  0  0  0  0  0
    4.4250    2.6362   -0.0000 C   0  0  0  0  0  0  0  0  0  0  0  0
   -6.4610    0.8003   -0.0000 C   0  0  0  0  0  0  0  0  0  0  0  0
   -6.4610   -0.6826   -0.0000 C   0  0  0  0  0  0  0  0  0  0  0  0
    5.1782    1.3534   -0.0000 C   0  0  0  0  0  0  0  0  0  0  0  0
   -7.7791    1.5652   -0.0000 O   0  0  0  0  0  0  0  0  0  0  0  0
   -9.0854    0.8238   -0.0000 C   0  0  0  0  0  0  0  0  0  0  0  0
  -10.3917    1.5770   -0.0000 C   0  0  0  0  0  0  0  0  0  0  0  0
  1  2  1  0  0  0  0
  1  3  1  0  0  0  0
  2  4  2  0  0  0  0
  2  5  1  0  0  0  0
  3  6  1  0  0  0  0
  4  7  1  0  0  0  0
  5  8  1  0  0  0  0
  6  9  2  0  0  0  0
  6 10  1  0  0  0  0
  7 11  1  0  0  0  0
  8 12  1  0  0  0  0
  9 13  1  0  0  0  0
 10 14  2  0  0  0  0
 11 15  2  0  0  0  0
 12 16  2  0  0  0  0
 13 17  2  0  0  0  0
 15 18  1  0  0  0  0
 18 19  1  0  0  0  0
 19 20  1  0  0  0  0
  7  8  2  0  0  0  0
 14 17  1  0  0  0  0
 15 16  1  0  0  0  0
M  END
>  <MolRegNo>
1336763

>  <m>
=

>  <Value>
400

>  <Unit>
nM

>  <Type>
IC50

>  <pValue>
6.4

>  <Ligand Efficiency>
0

>  <Binding Efficiency>
0

>  <Surface Efficiency>
0

>  <Assay Index>
647521

>  <Assay Category>


>  <Assay Organism>
Homo sapiens

>  <Target ID>
17045

>  <Target Name>
Cytochrome P450 3A4

>  <Target Organism>
Homo sapiens

>  <Target Description>
Target is a single protein chain

>  <Sequence Accession>
P08684

>  <Reference>
J Med Chem 55 (3), 1205-1214 (2012)

>  <Pubmed ID>
22239545

>  <DOI>
10.1021/jm201346g

$$$$
1336764
Actelion Java MolfileCreator 1.0

 18 20  0  0  0  0  0  0  0  0999 V2000
    0.0000   -0.0000   -0.0000 S   0  0  0  0  0  0  0  0  0  0  0  0
   -1.5077    0.0118   -0.0000 C   0  0  0  0  0  0  0  0  0  0  0  0
    0.7421    1.3075   -0.0000 C   0  0  0  0  0  0  0  0  0  0  0  0
   -2.4029    1.2368   -0.0000 N   0  0  0  0  0  0  0  0  0  0  0  0
   -2.4029   -1.1897   -0.0000 N   0  0  0  0  0  0  0  0  0  0  0  0
    2.2262    1.3192   -0.0000 C   0  0  0  0  0  0  0  0  0  0  0  0
   -3.8399    0.7774   -0.0000 C   0  0  0  0  0  0  0  0  0  0  0  0
   -3.8399   -0.7067   -0.0000 C   0  0  0  0  0  0  0  0  0  0  0  0
    2.9565    0.0353   -0.0000 N   0  0  0  0  0  0  0  0  0  0  0  0
    2.9447    2.6267   -0.0000 C   0  0  0  0  0  0  0  0  0  0  0  0
   -5.1592    1.5430   -0.0000 C   0  0  0  0  0  0  0  0  0  0  0  0
   -5.1592   -1.4488   -0.0000 C   0  0  0  0  0  0  0  0  0  0  0  0
    4.4406    0.0471   -0.0000 C   0  0  0  0  0  0  0  0  0  0  0  0
    4.4289    2.6385   -0.0000 C   0  0  0  0  0  0  0  0  0  0  0  0
   -6.4666    0.8010   -0.0000 C   0  0  0  0  0  0  0  0  0  0  0  0
   -6.4666   -0.6832   -0.0000 C   0  0  0  0  0  0  0  0  0  0  0  0
    5.1827    1.3546   -0.0000 C   0  0  0  0  0  0  0  0  0  0  0  0
   -7.7741    1.5548   -0.0000 C   0  0  0  0  0  0  0  0  0  0  0  0
  1  2  1  0  0  0  0
  1  3  1  0  0  0  0
  2  4  2  0  0  0  0
  2  5  1  0  0  0  0
  3  6  1  0  0  0  0
  4  7  1  0  0  0  0
  5  8  1  0  0  0  0
  6  9  2  0  0  0  0
  6 10  1  0  0  0  0
  7 11  1  0  0  0  0
  8 12  1  0  0  0  0
  9 13  1  0  0  0  0
 10 14  2  0  0  0  0
 11 15  2  0  0  0  0
 12 16  2  0  0  0  0
 13 17  2  0  0  0  0
 15 18  1  0  0  0  0
  7  8  2  0  0  0  0
 14 17  1  0  0  0  0
 15 16  1  0  0  0  0
M  END
>  <MolRegNo>
1336764

>  <m>
=

>  <Value>
3610

>  <Unit>
nM

>  <Type>
IC50

>  <pValue>
5.44

>  <Ligand Efficiency>
0

>  <Binding Efficiency>
0

>  <Surface Efficiency>
0

>  <Assay Index>
647521

>  <Assay Category>


>  <Assay Organism>
Homo sapiens

>  <Target ID>
17045

>  <Target Name>
Cytochrome P450 3A4

>  <Target Organism>
Homo sapiens

>  <Target Description>
Target is a single protein chain

>  <Sequence Accession>
P08684

>  <Reference>
J Med Chem 55 (3), 1205-1214 (2012)

>  <Pubmed ID>
22239545

>  <DOI>
10.1021/jm201346g

$$$$
1336765
Actelion Java MolfileCreator 1.0

 21 23  0  0  0  0  0  0  0  0999 V2000
    0.0000   -0.0000   -0.0000 S   0  0  0  0  0  0  0  0  0  0  0  0
   -1.5081    0.0118   -0.0000 C   0  0  0  0  0  0  0  0  0  0  0  0
    0.7305    1.3078   -0.0000 C   0  0  0  0  0  0  0  0  0  0  0  0
   -2.4035    1.2371   -0.0000 N   0  0  0  0  0  0  0  0  0  0  0  0
   -2.4035   -1.1900   -0.0000 N   0  0  0  0  0  0  0  0  0  0  0  0
    2.2150    1.3196   -0.0000 C   0  0  0  0  0  0  0  0  0  0  0  0
   -3.8409    0.7776   -0.0000 C   0  0  0  0  0  0  0  0  0  0  0  0
   -3.8409   -0.7069   -0.0000 C   0  0  0  0  0  0  0  0  0  0  0  0
    2.9455    0.0353   -0.0000 N   0  0  0  0  0  0  0  0  0  0  0  0
    2.9337    2.6274   -0.0000 C   0  0  0  0  0  0  0  0  0  0  0  0
   -5.1605    1.5434   -0.0000 C   0  0  0  0  0  0  0  0  0  0  0  0
   -5.1605   -1.4492   -0.0000 C   0  0  0  0  0  0  0  0  0  0  0  0
    4.4300    0.0471   -0.0000 C   0  0  0  0  0  0  0  0  0  0  0  0
    4.4182    2.6392   -0.0000 C   0  0  0  0  0  0  0  0  0  0  0  0
   -6.4683    0.8012   -0.0000 C   0  0  0  0  0  0  0  0  0  0  0  0
   -6.4683   -0.6834   -0.0000 C   0  0  0  0  0  0  0  0  0  0  0  0
    5.1723    1.3549   -0.0000 C   0  0  0  0  0  0  0  0  0  0  0  0
   -7.7761    1.5552   -0.0000 O   0  0  0  0  0  0  0  0  0  0  0  0
   -9.0839    0.8130   -0.0000 C   0  0  0  0  0  0  0  0  0  0  0  0
  -10.3917    1.5670   -0.0000 F   0  0  0  0  0  0  0  0  0  0  0  0
   -9.0957   -0.6716   -0.0000 F   0  0  0  0  0  0  0  0  0  0  0  0
  1  2  1  0  0  0  0
  1  3  1  0  0  0  0
  2  4  2  0  0  0  0
  2  5  1  0  0  0  0
  3  6  1  0  0  0  0
  4  7  1  0  0  0  0
  5  8  1  0  0  0  0
  6  9  2  0  0  0  0
  6 10  1  0  0  0  0
  7 11  1  0  0  0  0
  8 12  1  0  0  0  0
  9 13  1  0  0  0  0
 10 14  2  0  0  0  0
 11 15  2  0  0  0  0
 12 16  2  0  0  0  0
 13 17  2  0  0  0  0
 15 18  1  0  0  0  0
 18 19  1  0  0  0  0
 19 20  1  0  0  0  0
 19 21  1  0  0  0  0
  7  8  2  0  0  0  0
 14 17  1  0  0  0  0
 15 16  1  0  0  0  0
M  END
>  <MolRegNo>
1336765

>  <m>
=

>  <Value>
10700

>  <Unit>
nM

>  <Type>
IC50

>  <pValue>
4.97

>  <Ligand Efficiency>
0

>  <Binding Efficiency>
0

>  <Surface Efficiency>
0

>  <Assay Index>
647521

>  <Assay Category>


>  <Assay Organism>
Homo sapiens

>  <Target ID>
17045

>  <Target Name>
Cytochrome P450 3A4

>  <Target Organism>
Homo sapiens

>  <Target Description>
Target is a single protein chain

>  <Sequence Accession>
P08684

>  <Reference>
J Med Chem 55 (3), 1205-1214 (2012)

>  <Pubmed ID>
22239545

>  <DOI>
10.1021/jm201346g

$$$$
1336766
Actelion Java MolfileCreator 1.0

 18 20  0  0  0  0  0  0  0  0999 V2000
    0.0000   -0.0000   -0.0000 S   0  0  0  0  0  0  0  0  0  0  0  0
   -1.5077    0.0118   -0.0000 C   0  0  0  0  0  0  0  0  0  0  0  0
    0.7421    1.3075   -0.0000 C   0  0  0  0  0  0  0  0  0  0  0  0
   -2.4029    1.2368   -0.0000 N   0  0  0  0  0  0  0  0  0  0  0  0
   -2.4029   -1.1897   -0.0000 N   0  0  0  0  0  0  0  0  0  0  0  0
    2.2262    1.3192   -0.0000 C   0  0  0  0  0  0  0  0  0  0  0  0
   -3.8399    0.7774   -0.0000 C   0  0  0  0  0  0  0  0  0  0  0  0
   -3.8399   -0.7067   -0.0000 C   0  0  0  0  0  0  0  0  0  0  0  0
    2.9565    0.0353   -0.0000 N   0  0  0  0  0  0  0  0  0  0  0  0
    2.9447    2.6267   -0.0000 C   0  0  0  0  0  0  0  0  0  0  0  0
   -5.1592    1.5430   -0.0000 C   0  0  0  0  0  0  0  0  0  0  0  0
   -5.1592   -1.4488   -0.0000 C   0  0  0  0  0  0  0  0  0  0  0  0
    4.4406    0.0471   -0.0000 C   0  0  0  0  0  0  0  0  0  0  0  0
    4.4289    2.6385   -0.0000 C   0  0  0  0  0  0  0  0  0  0  0  0
   -6.4666    0.8010   -0.0000 C   0  0  0  0  0  0  0  0  0  0  0  0
   -6.4666   -0.6832   -0.0000 C   0  0  0  0  0  0  0  0  0  0  0  0
    5.1827    1.3546   -0.0000 C   0  0  0  0  0  0  0  0  0  0  0  0
   -7.7741    1.5548   -0.0000 N   0  0  0  0  0  0  0  0  0  0  0  0
  1  2  1  0  0  0  0
  1  3  1  0  0  0  0
  2  4  2  0  0  0  0
  2  5  1  0  0  0  0
  3  6  1  0  0  0  0
  4  7  1  0  0  0  0
  5  8  1  0  0  0  0
  6  9  2  0  0  0  0
  6 10  1  0  0  0  0
  7 11  1  0  0  0  0
  8 12  1  0  0  0  0
  9 13  1  0  0  0  0
 10 14  2  0  0  0  0
 11 15  2  0  0  0  0
 12 16  2  0  0  0  0
 13 17  2  0  0  0  0
 15 18  1  0  0  0  0
  7  8  2  0  0  0  0
 14 17  1  0  0  0  0
 15 16  1  0  0  0  0
M  END
>  <MolRegNo>
1336766

>  <m>
=

>  <Value>
520

>  <Unit>
nM

>  <Type>
IC50

>  <pValue>
6.28

>  <Ligand Efficiency>
0

>  <Binding Efficiency>
0

>  <Surface Efficiency>
0

>  <Assay Index>
647521

>  <Assay Category>


>  <Assay Organism>
Homo sapiens

>  <Target ID>
17045

>  <Target Name>
Cytochrome P450 3A4

>  <Target Organism>
Homo sapiens

>  <Target Description>
Target is a single protein chain

>  <Sequence Accession>
P08684

>  <Reference>
J Med Chem 55 (3), 1205-1214 (2012)

>  <Pubmed ID>
22239545

>  <DOI>
10.1021/jm201346g

$$$$
1334654
Actelion Java MolfileCreator 1.0

 28 31  0  0  0  0  0  0  0  0999 V2000
    0.0000   -0.0000   -0.0000 Br  0  0  0  0  0  0  0  0  0  0  0  0
    0.7901   -1.2500   -0.0000 C   0  0  0  0  0  0  0  0  0  0  0  0
    0.0825   -2.5590   -0.0000 C   0  0  0  0  0  0  0  0  0  0  0  0
    2.2760   -1.1793   -0.0000 C   0  0  0  0  0  0  0  0  0  0  0  0
   -1.4269   -2.5944   -0.0000 C   0  0  0  0  0  0  0  0  0  0  0  0
    0.8609   -3.8208   -0.0000 C   0  0  0  0  0  0  0  0  0  0  0  0
    3.0661   -2.4411   -0.0000 C   0  0  0  0  0  0  0  0  0  0  0  0
   -2.3585   -1.4033   -0.0000 N   0  0  0  0  0  0  0  0  0  0  0  0
   -2.2760   -3.8208   -0.0000 C   0  0  0  0  0  0  0  0  0  0  0  0
    2.3468   -3.7619   -0.0000 C   0  0  0  0  0  0  0  0  0  0  0  0
    4.5520   -2.3821   -0.0000 F   0  0  0  0  0  0  0  0  0  0  0  0
   -3.7737   -1.8986   -0.0000 O   0  0  0  0  0  0  0  0  0  0  0  0
   -3.7265   -3.3963   -0.0000 C   0  0  0  0  0  0  0  0  0  0  0  0
   -4.9176   -4.3044   -0.0000 C   0  0  0  0  0  0  0  0  0  0  0  0
   -6.2266   -3.5378   -0.0000 C   0  0  0  0  0  0  0  0  0  0  0  0
   -4.9294   -5.7902   -0.0000 C   0  0  0  0  0  0  0  0  0  0  0  0
   -7.7007   -3.1369   -0.0000 O   0  0  0  0  0  0  0  0  0  0  0  0
   -6.2384   -2.0284   -0.0000 C   0  0  0  0  0  0  0  0  0  0  0  0
   -7.5356   -4.2808   -0.0000 C   0  0  0  0  0  0  0  0  0  0  0  0
   -6.2384   -6.5214   -0.0000 N   0  0  0  0  0  0  0  0  0  0  0  0
   -4.9530   -1.2736   -0.0000 C   0  0  0  0  0  0  0  0  0  0  0  0
   -7.5474   -1.2736   -0.0000 C   0  0  0  0  0  0  0  0  0  0  0  0
   -7.5474   -5.7667   -0.0000 C   0  0  0  0  0  0  0  0  0  0  0  0
   -4.9647    0.2359   -0.0000 C   0  0  0  0  0  0  0  0  0  0  0  0
   -7.5591    0.2359   -0.0000 C   0  0  0  0  0  0  0  0  0  0  0  0
   -3.6793    0.9906   -0.0000 F   0  0  0  0  0  0  0  0  0  0  0  0
   -6.2737    1.0024   -0.0000 C   0  0  0  0  0  0  0  0  0  0  0  0
   -6.2855    2.5119   -0.0000 F   0  0  0  0  0  0  0  0  0  0  0  0
  1  2  1  0  0  0  0
  2  3  2  0  0  0  0
  2  4  1  0  0  0  0
  3  5  1  0  0  0  0
  3  6  1  0  0  0  0
  4  7  2  0  0  0  0
  5  8  2  0  0  0  0
  5  9  1  0  0  0  0
  6 10  2  0  0  0  0
  7 11  1  0  0  0  0
  8 12  1  0  0  0  0
  9 13  2  0  0  0  0
 14 13  1  6  0  0  0
 14 15  1  0  0  0  0
 14 16  1  0  0  0  0
 15 17  1  6  0  0  0
 15 18  1  0  0  0  0
 15 19  1  0  0  0  0
 16 20  1  0  0  0  0
 18 21  2  0  0  0  0
 18 22  1  0  0  0  0
 19 23  1  0  0  0  0
 21 24  1  0  0  0  0
 22 25  2  0  0  0  0
 24 26  1  0  0  0  0
 24 27  2  0  0  0  0
 27 28  1  0  0  0  0
  7 10  1  0  0  0  0
 12 13  1  0  0  0  0
 20 23  1  0  0  0  0
 25 27  1  0  0  0  0
M  END
>  <MolRegNo>
1334654

>  <m>
=

>  <Value>
3000

>  <Unit>
nM

>  <Type>
IC50

>  <pValue>
5.52

>  <Ligand Efficiency>
0

>  <Binding Efficiency>
0

>  <Surface Efficiency>
0

>  <Assay Index>
648518

>  <Assay Category>


>  <Assay Organism>


>  <Target ID>
17045

>  <Target Name>
Cytochrome P450 3A4

>  <Target Organism>
Homo sapiens

>  <Target Description>
Target is a single protein chain

>  <Sequence Accession>
P08684

>  <Reference>
Bioorg Med Chem Lett 22 (8), 2670-2674 (2012)

>  <Pubmed ID>
22450130

>  <DOI>
10.1016/j.bmcl.2012.03.014

$$$$
1334655
Actelion Java MolfileCreator 1.0

 28 31  0  0  0  0  0  0  0  0999 V2000
    0.0000   -0.0000   -0.0000 Cl  0  0  0  0  0  0  0  0  0  0  0  0
    0.6938    1.3288   -0.0000 C   0  0  0  0  0  0  0  0  0  0  0  0
   -0.1058    2.6105   -0.0000 C   0  0  0  0  0  0  0  0  0  0  0  0
    2.1754    1.3876   -0.0000 C   0  0  0  0  0  0  0  0  0  0  0  0
    0.5762    3.9393   -0.0000 C   0  0  0  0  0  0  0  0  0  0  0  0
   -1.6110    2.5752   -0.0000 C   0  0  0  0  0  0  0  0  0  0  0  0
    2.8692    2.7164   -0.0000 C   0  0  0  0  0  0  0  0  0  0  0  0
   -0.2352    5.2093   -0.0000 Cl  0  0  0  0  0  0  0  0  0  0  0  0
    2.0578    4.0099   -0.0000 C   0  0  0  0  0  0  0  0  0  0  0  0
   -2.5400    3.7629   -0.0000 N   0  0  0  0  0  0  0  0  0  0  0  0
   -2.4577    1.3523   -0.0000 C   0  0  0  0  0  0  0  0  0  0  0  0
   -3.9511    3.2690   -0.0000 O   0  0  0  0  0  0  0  0  0  0  0  0
   -3.9040    1.7756   -0.0000 C   0  0  0  0  0  0  0  0  0  0  0  0
   -5.0917    0.8702   -0.0000 C   0  0  0  0  0  0  0  0  0  0  0  0
   -6.3970    1.6345   -0.0000 C   0  0  0  0  0  0  0  0  0  0  0  0
   -5.1035   -0.6115   -0.0000 C   0  0  0  0  0  0  0  0  0  0  0  0
   -7.8669    2.0343   -0.0000 O   0  0  0  0  0  0  0  0  0  0  0  0
   -6.4087    3.1397   -0.0000 C   0  0  0  0  0  0  0  0  0  0  0  0
   -7.7022    0.8937   -0.0000 C   0  0  0  0  0  0  0  0  0  0  0  0
   -6.4087   -1.3405   -0.0000 N   0  0  0  0  0  0  0  0  0  0  0  0
   -5.1270    3.8923   -0.0000 C   0  0  0  0  0  0  0  0  0  0  0  0
   -7.7140    3.8923   -0.0000 C   0  0  0  0  0  0  0  0  0  0  0  0
   -7.7140   -0.5880   -0.0000 C   0  0  0  0  0  0  0  0  0  0  0  0
   -5.1387    5.3974   -0.0000 C   0  0  0  0  0  0  0  0  0  0  0  0
   -7.7257    5.3974   -0.0000 C   0  0  0  0  0  0  0  0  0  0  0  0
   -3.8570    6.1500   -0.0000 F   0  0  0  0  0  0  0  0  0  0  0  0
   -6.4440    6.1618   -0.0000 C   0  0  0  0  0  0  0  0  0  0  0  0
   -6.4558    7.6669   -0.0000 F   0  0  0  0  0  0  0  0  0  0  0  0
  1  2  1  0  0  0  0
  2  3  2  0  0  0  0
  2  4  1  0  0  0  0
  3  5  1  0  0  0  0
  3  6  1  0  0  0  0
  4  7  2  0  0  0  0
  5  8  1  0  0  0  0
  5  9  2  0  0  0  0
  6 10  2  0  0  0  0
  6 11  1  0  0  0  0
 10 12  1  0  0  0  0
 11 13  2  0  0  0  0
 14 13  1  6  0  0  0
 14 15  1  0  0  0  0
 14 16  1  0  0  0  0
 15 17  1  6  0  0  0
 15 18  1  0  0  0  0
 15 19  1  0  0  0  0
 16 20  1  0  0  0  0
 18 21  2  0  0  0  0
 18 22  1  0  0  0  0
 19 23  1  0  0  0  0
 21 24  1  0  0  0  0
 22 25  2  0  0  0  0
 24 26  1  0  0  0  0
 24 27  2  0  0  0  0
 27 28  1  0  0  0  0
  7  9  1  0  0  0  0
 12 13  1  0  0  0  0
 20 23  1  0  0  0  0
 25 27  1  0  0  0  0
M  END
>  <MolRegNo>
1334655

>  <m>
=

>  <Value>
8000

>  <Unit>
nM

>  <Type>
IC50

>  <pValue>
5.1

>  <Ligand Efficiency>
0

>  <Binding Efficiency>
0

>  <Surface Efficiency>
0

>  <Assay Index>
648518

>  <Assay Category>


>  <Assay Organism>


>  <Target ID>
17045

>  <Target Name>
Cytochrome P450 3A4

>  <Target Organism>
Homo sapiens

>  <Target Description>
Target is a single protein chain

>  <Sequence Accession>
P08684

>  <Reference>
Bioorg Med Chem Lett 22 (8), 2670-2674 (2012)

>  <Pubmed ID>
22450130

>  <DOI>
10.1016/j.bmcl.2012.03.014

$$$$
1334656
Actelion Java MolfileCreator 1.0

 28 31  0  0  0  0  0  0  0  0999 V2000
    0.0000   -0.0000   -0.0000 Cl  0  0  0  0  0  0  0  0  0  0  0  0
    0.7901   -1.2500   -0.0000 C   0  0  0  0  0  0  0  0  0  0  0  0
    0.0825   -2.5590   -0.0000 C   0  0  0  0  0  0  0  0  0  0  0  0
    2.2760   -1.1793   -0.0000 C   0  0  0  0  0  0  0  0  0  0  0  0
   -1.4269   -2.5944   -0.0000 C   0  0  0  0  0  0  0  0  0  0  0  0
    0.8609   -3.8208   -0.0000 C   0  0  0  0  0  0  0  0  0  0  0  0
    3.0661   -2.4411   -0.0000 C   0  0  0  0  0  0  0  0  0  0  0  0
   -2.3585   -1.4033   -0.0000 N   0  0  0  0  0  0  0  0  0  0  0  0
   -2.2760   -3.8208   -0.0000 C   0  0  0  0  0  0  0  0  0  0  0  0
    2.3468   -3.7619   -0.0000 C   0  0  0  0  0  0  0  0  0  0  0  0
    4.5520   -2.3821   -0.0000 F   0  0  0  0  0  0  0  0  0  0  0  0
   -3.7737   -1.8986   -0.0000 O   0  0  0  0  0  0  0  0  0  0  0  0
   -3.7265   -3.3963   -0.0000 C   0  0  0  0  0  0  0  0  0  0  0  0
   -4.9176   -4.3044   -0.0000 C   0  0  0  0  0  0  0  0  0  0  0  0
   -6.2266   -3.5378   -0.0000 C   0  0  0  0  0  0  0  0  0  0  0  0
   -4.9294   -5.7902   -0.0000 C   0  0  0  0  0  0  0  0  0  0  0  0
   -7.7007   -3.1369   -0.0000 O   0  0  0  0  0  0  0  0  0  0  0  0
   -6.2384   -2.0284   -0.0000 C   0  0  0  0  0  0  0  0  0  0  0  0
   -7.5356   -4.2808   -0.0000 C   0  0  0  0  0  0  0  0  0  0  0  0
   -6.2384   -6.5214   -0.0000 N   0  0  0  0  0  0  0  0  0  0  0  0
   -4.9530   -1.2736   -0.0000 C   0  0  0  0  0  0  0  0  0  0  0  0
   -7.5474   -1.2736   -0.0000 C   0  0  0  0  0  0  0  0  0  0  0  0
   -7.5474   -5.7667   -0.0000 C   0  0  0  0  0  0  0  0  0  0  0  0
   -4.9647    0.2359   -0.0000 C   0  0  0  0  0  0  0  0  0  0  0  0
   -7.5591    0.2359   -0.0000 C   0  0  0  0  0  0  0  0  0  0  0  0
   -3.6793    0.9906   -0.0000 F   0  0  0  0  0  0  0  0  0  0  0  0
   -6.2737    1.0024   -0.0000 C   0  0  0  0  0  0  0  0  0  0  0  0
   -6.2855    2.5119   -0.0000 F   0  0  0  0  0  0  0  0  0  0  0  0
  1  2  1  0  0  0  0
  2  3  2  0  0  0  0
  2  4  1  0  0  0  0
  3  5  1  0  0  0  0
  3  6  1  0  0  0  0
  4  7  2  0  0  0  0
  5  8  2  0  0  0  0
  5  9  1  0  0  0  0
  6 10  2  0  0  0  0
  7 11  1  0  0  0  0
  8 12  1  0  0  0  0
  9 13  2  0  0  0  0
 14 13  1  6  0  0  0
 14 15  1  0  0  0  0
 14 16  1  0  0  0  0
 15 17  1  6  0  0  0
 15 18  1  0  0  0  0
 15 19  1  0  0  0  0
 16 20  1  0  0  0  0
 18 21  2  0  0  0  0
 18 22  1  0  0  0  0
 19 23  1  0  0  0  0
 21 24  1  0  0  0  0
 22 25  2  0  0  0  0
 24 26  1  0  0  0  0
 24 27  2  0  0  0  0
 27 28  1  0  0  0  0
  7 10  1  0  0  0  0
 12 13  1  0  0  0  0
 20 23  1  0  0  0  0
 25 27  1  0  0  0  0
M  END
>  <MolRegNo>
1334656

>  <m>
=

>  <Value>
7000

>  <Unit>
nM

>  <Type>
IC50

>  <pValue>
5.16

>  <Ligand Efficiency>
0

>  <Binding Efficiency>
0

>  <Surface Efficiency>
0

>  <Assay Index>
648518

>  <Assay Category>


>  <Assay Organism>


>  <Target ID>
17045

>  <Target Name>
Cytochrome P450 3A4

>  <Target Organism>
Homo sapiens

>  <Target Description>
Target is a single protein chain

>  <Sequence Accession>
P08684

>  <Reference>
Bioorg Med Chem Lett 22 (8), 2670-2674 (2012)

>  <Pubmed ID>
22450130

>  <DOI>
10.1016/j.bmcl.2012.03.014

$$$$
1334657
Actelion Java MolfileCreator 1.0

 28 31  0  0  0  0  0  0  0  0999 V2000
    0.0000   -0.0000   -0.0000 Br  0  0  0  0  0  0  0  0  0  0  0  0
   -0.5182    1.4133   -0.0000 C   0  0  0  0  0  0  0  0  0  0  0  0
    0.3062    2.6617   -0.0000 C   0  0  0  0  0  0  0  0  0  0  0  0
   -1.9668    1.8373   -0.0000 C   0  0  0  0  0  0  0  0  0  0  0  0
   -0.6242    3.8512   -0.0000 N   0  0  0  0  0  0  0  0  0  0  0  0
    1.7902    2.7206   -0.0000 C   0  0  0  0  0  0  0  0  0  0  0  0
   -2.0257    3.3448   -0.0000 O   0  0  0  0  0  0  0  0  0  0  0  0
   -3.1563    0.9304   -0.0000 C   0  0  0  0  0  0  0  0  0  0  0  0
    2.4732    4.0514   -0.0000 C   0  0  0  0  0  0  0  0  0  0  0  0
    2.5675    1.4604   -0.0000 C   0  0  0  0  0  0  0  0  0  0  0  0
   -4.4636    1.6959   -0.0000 C   0  0  0  0  0  0  0  0  0  0  0  0
   -3.1681   -0.5535   -0.0000 C   0  0  0  0  0  0  0  0  0  0  0  0
    1.6606    5.3233   -0.0000 Cl  0  0  0  0  0  0  0  0  0  0  0  0
    3.9572    4.1221   -0.0000 C   0  0  0  0  0  0  0  0  0  0  0  0
    4.0514    1.5193   -0.0000 C   0  0  0  0  0  0  0  0  0  0  0  0
   -5.9358    2.0964   -0.0000 O   0  0  0  0  0  0  0  0  0  0  0  0
   -4.4754    3.2034   -0.0000 C   0  0  0  0  0  0  0  0  0  0  0  0
   -5.7709    0.9540   -0.0000 C   0  0  0  0  0  0  0  0  0  0  0  0
   -4.4754   -1.2837   -0.0000 N   0  0  0  0  0  0  0  0  0  0  0  0
    4.7463    2.8619   -0.0000 C   0  0  0  0  0  0  0  0  0  0  0  0
   -3.1917    3.9572   -0.0000 C   0  0  0  0  0  0  0  0  0  0  0  0
   -5.7827    3.9572   -0.0000 C   0  0  0  0  0  0  0  0  0  0  0  0
   -5.7827   -0.5300   -0.0000 C   0  0  0  0  0  0  0  0  0  0  0  0
   -3.2034    5.4647   -0.0000 C   0  0  0  0  0  0  0  0  0  0  0  0
   -5.7944    5.4647   -0.0000 C   0  0  0  0  0  0  0  0  0  0  0  0
   -1.9197    6.2184   -0.0000 F   0  0  0  0  0  0  0  0  0  0  0  0
   -4.5107    6.2302   -0.0000 C   0  0  0  0  0  0  0  0  0  0  0  0
   -4.5225    7.7377   -0.0000 F   0  0  0  0  0  0  0  0  0  0  0  0
  1  2  1  0  0  0  0
  2  3  1  0  0  0  0
  2  4  2  0  0  0  0
  3  5  2  0  0  0  0
  3  6  1  0  0  0  0
  4  7  1  0  0  0  0
  8  4  1  6  0  0  0
  6  9  2  0  0  0  0
  6 10  1  0  0  0  0
  8 11  1  0  0  0  0
  8 12  1  0  0  0  0
  9 13  1  0  0  0  0
  9 14  1  0  0  0  0
 10 15  2  0  0  0  0
 11 16  1  6  0  0  0
 11 17  1  0  0  0  0
 11 18  1  0  0  0  0
 12 19  1  0  0  0  0
 14 20  2  0  0  0  0
 17 21  2  0  0  0  0
 17 22  1  0  0  0  0
 18 23  1  0  0  0  0
 21 24  1  0  0  0  0
 22 25  2  0  0  0  0
 24 26  1  0  0  0  0
 24 27  2  0  0  0  0
 27 28  1  0  0  0  0
  5  7  1  0  0  0  0
 15 20  1  0  0  0  0
 19 23  1  0  0  0  0
 25 27  1  0  0  0  0
M  END
>  <MolRegNo>
1334657

>  <m>
=

>  <Value>
18000

>  <Unit>
nM

>  <Type>
IC50

>  <pValue>
4.75

>  <Ligand Efficiency>
0

>  <Binding Efficiency>
0

>  <Surface Efficiency>
0

>  <Assay Index>
648518

>  <Assay Category>


>  <Assay Organism>


>  <Target ID>
17045

>  <Target Name>
Cytochrome P450 3A4

>  <Target Organism>
Homo sapiens

>  <Target Description>
Target is a single protein chain

>  <Sequence Accession>
P08684

>  <Reference>
Bioorg Med Chem Lett 22 (8), 2670-2674 (2012)

>  <Pubmed ID>
22450130

>  <DOI>
10.1016/j.bmcl.2012.03.014

$$$$
1334818
Actelion Java MolfileCreator 1.0

 29 32  0  0  0  0  0  0  0  0999 V2000
    0.0000   -0.0000   -0.0000 Br  0  0  0  0  0  0  0  0  0  0  0  0
   -0.5182    1.4134   -0.0000 C   0  0  0  0  0  0  0  0  0  0  0  0
    0.3062    2.6619   -0.0000 C   0  0  0  0  0  0  0  0  0  0  0  0
   -1.9670    1.8374   -0.0000 C   0  0  0  0  0  0  0  0  0  0  0  0
   -0.6243    3.8515   -0.0000 N   0  0  0  0  0  0  0  0  0  0  0  0
    1.7903    2.7208   -0.0000 C   0  0  0  0  0  0  0  0  0  0  0  0
   -2.0259    3.3450   -0.0000 O   0  0  0  0  0  0  0  0  0  0  0  0
   -3.1566    0.9305   -0.0000 C   0  0  0  0  0  0  0  0  0  0  0  0
    2.4734    4.0517   -0.0000 C   0  0  0  0  0  0  0  0  0  0  0  0
    2.5677    1.4605   -0.0000 C   0  0  0  0  0  0  0  0  0  0  0  0
   -4.4640    1.6961   -0.0000 C   0  0  0  0  0  0  0  0  0  0  0  0
   -3.1684   -0.5536   -0.0000 C   0  0  0  0  0  0  0  0  0  0  0  0
    1.6607    5.3238   -0.0000 Cl  0  0  0  0  0  0  0  0  0  0  0  0
    3.9575    4.1224   -0.0000 C   0  0  0  0  0  0  0  0  0  0  0  0
    4.0517    1.5194   -0.0000 C   0  0  0  0  0  0  0  0  0  0  0  0
   -5.9363    2.0965   -0.0000 O   0  0  0  0  0  0  0  0  0  0  0  0
   -4.4758    3.2037   -0.0000 C   0  0  0  0  0  0  0  0  0  0  0  0
   -5.7714    0.9540   -0.0000 C   0  0  0  0  0  0  0  0  0  0  0  0
   -4.4758   -1.2838   -0.0000 N   0  0  0  0  0  0  0  0  0  0  0  0
    4.6407    5.4534   -0.0000 Cl  0  0  0  0  0  0  0  0  0  0  0  0
    4.7467    2.8621   -0.0000 C   0  0  0  0  0  0  0  0  0  0  0  0
   -3.1919    3.9575   -0.0000 C   0  0  0  0  0  0  0  0  0  0  0  0
   -5.7832    3.9575   -0.0000 C   0  0  0  0  0  0  0  0  0  0  0  0
   -5.7832   -0.5300   -0.0000 C   0  0  0  0  0  0  0  0  0  0  0  0
   -3.2037    5.4651   -0.0000 C   0  0  0  0  0  0  0  0  0  0  0  0
   -5.7949    5.4651   -0.0000 C   0  0  0  0  0  0  0  0  0  0  0  0
   -1.9199    6.2189   -0.0000 F   0  0  0  0  0  0  0  0  0  0  0  0
   -4.5111    6.2307   -0.0000 C   0  0  0  0  0  0  0  0  0  0  0  0
   -4.5229    7.7384   -0.0000 F   0  0  0  0  0  0  0  0  0  0  0  0
  1  2  1  0  0  0  0
  2  3  1  0  0  0  0
  2  4  2  0  0  0  0
  3  5  2  0  0  0  0
  3  6  1  0  0  0  0
  4  7  1  0  0  0  0
  8  4  1  6  0  0  0
  6  9  2  0  0  0  0
  6 10  1  0  0  0  0
  8 11  1  0  0  0  0
  8 12  1  0  0  0  0
  9 13  1  0  0  0  0
  9 14  1  0  0  0  0
 10 15  2  0  0  0  0
 11 16  1  6  0  0  0
 11 17  1  0  0  0  0
 11 18  1  0  0  0  0
 12 19  1  0  0  0  0
 14 20  1  0  0  0  0
 14 21  2  0  0  0  0
 17 22  2  0  0  0  0
 17 23  1  0  0  0  0
 18 24  1  0  0  0  0
 22 25  1  0  0  0  0
 23 26  2  0  0  0  0
 25 27  1  0  0  0  0
 25 28  2  0  0  0  0
 28 29  1  0  0  0  0
  5  7  1  0  0  0  0
 15 21  1  0  0  0  0
 19 24  1  0  0  0  0
 26 28  1  0  0  0  0
M  END
>  <MolRegNo>
1334818

>  <m>
=

>  <Value>
19000

>  <Unit>
nM

>  <Type>
IC50

>  <pValue>
4.72

>  <Ligand Efficiency>
0

>  <Binding Efficiency>
0

>  <Surface Efficiency>
0

>  <Assay Index>
648518

>  <Assay Category>


>  <Assay Organism>


>  <Target ID>
17045

>  <Target Name>
Cytochrome P450 3A4

>  <Target Organism>
Homo sapiens

>  <Target Description>
Target is a single protein chain

>  <Sequence Accession>
P08684

>  <Reference>
Bioorg Med Chem Lett 22 (8), 2670-2674 (2012)

>  <Pubmed ID>
22450130

>  <DOI>
10.1016/j.bmcl.2012.03.014

$$$$
1334819
Actelion Java MolfileCreator 1.0

 29 32  0  0  0  0  0  0  0  0999 V2000
    0.0000   -0.0000   -0.0000 Br  0  0  0  0  0  0  0  0  0  0  0  0
   -0.5182    1.4134   -0.0000 C   0  0  0  0  0  0  0  0  0  0  0  0
    0.3062    2.6619   -0.0000 C   0  0  0  0  0  0  0  0  0  0  0  0
   -1.9670    1.8374   -0.0000 C   0  0  0  0  0  0  0  0  0  0  0  0
   -0.6243    3.8515   -0.0000 N   0  0  0  0  0  0  0  0  0  0  0  0
    1.7903    2.7208   -0.0000 C   0  0  0  0  0  0  0  0  0  0  0  0
   -2.0259    3.3450   -0.0000 O   0  0  0  0  0  0  0  0  0  0  0  0
   -3.1566    0.9305   -0.0000 C   0  0  0  0  0  0  0  0  0  0  0  0
    2.4734    4.0517   -0.0000 C   0  0  0  0  0  0  0  0  0  0  0  0
    2.5677    1.4605   -0.0000 C   0  0  0  0  0  0  0  0  0  0  0  0
   -4.4640    1.6961   -0.0000 C   0  0  0  0  0  0  0  0  0  0  0  0
   -3.1684   -0.5536   -0.0000 C   0  0  0  0  0  0  0  0  0  0  0  0
    3.9575    4.1224   -0.0000 C   0  0  0  0  0  0  0  0  0  0  0  0
    1.6607    5.3238   -0.0000 C   0  0  0  0  0  0  0  0  0  0  0  0
    4.0517    1.5194   -0.0000 C   0  0  0  0  0  0  0  0  0  0  0  0
   -5.9363    2.0965   -0.0000 O   0  0  0  0  0  0  0  0  0  0  0  0
   -4.4758    3.2037   -0.0000 C   0  0  0  0  0  0  0  0  0  0  0  0
   -5.7714    0.9540   -0.0000 C   0  0  0  0  0  0  0  0  0  0  0  0
   -4.4758   -1.2838   -0.0000 N   0  0  0  0  0  0  0  0  0  0  0  0
    4.7467    2.8621   -0.0000 C   0  0  0  0  0  0  0  0  0  0  0  0
    4.6407    5.4534   -0.0000 C   0  0  0  0  0  0  0  0  0  0  0  0
   -3.1919    3.9575   -0.0000 C   0  0  0  0  0  0  0  0  0  0  0  0
   -5.7832    3.9575   -0.0000 C   0  0  0  0  0  0  0  0  0  0  0  0
   -5.7832   -0.5300   -0.0000 C   0  0  0  0  0  0  0  0  0  0  0  0
   -3.2037    5.4651   -0.0000 C   0  0  0  0  0  0  0  0  0  0  0  0
   -5.7949    5.4651   -0.0000 C   0  0  0  0  0  0  0  0  0  0  0  0
   -1.9199    6.2189   -0.0000 F   0  0  0  0  0  0  0  0  0  0  0  0
   -4.5111    6.2307   -0.0000 C   0  0  0  0  0  0  0  0  0  0  0  0
   -4.5229    7.7384   -0.0000 F   0  0  0  0  0  0  0  0  0  0  0  0
  1  2  1  0  0  0  0
  2  3  1  0  0  0  0
  2  4  2  0  0  0  0
  3  5  2  0  0  0  0
  3  6  1  0  0  0  0
  4  7  1  0  0  0  0
  8  4  1  6  0  0  0
  6  9  2  0  0  0  0
  6 10  1  0  0  0  0
  8 11  1  0  0  0  0
  8 12  1  0  0  0  0
  9 13  1  0  0  0  0
  9 14  1  0  0  0  0
 10 15  2  0  0  0  0
 11 16  1  6  0  0  0
 11 17  1  0  0  0  0
 11 18  1  0  0  0  0
 12 19  1  0  0  0  0
 13 20  2  0  0  0  0
 13 21  1  0  0  0  0
 17 22  2  0  0  0  0
 17 23  1  0  0  0  0
 18 24  1  0  0  0  0
 22 25  1  0  0  0  0
 23 26  2  0  0  0  0
 25 27  1  0  0  0  0
 25 28  2  0  0  0  0
 28 29  1  0  0  0  0
  5  7  1  0  0  0  0
 15 20  1  0  0  0  0
 19 24  1  0  0  0  0
 26 28  1  0  0  0  0
M  END
>  <MolRegNo>
1334819

>  <m>
=

>  <Value>
20000

>  <Unit>
nM

>  <Type>
IC50

>  <pValue>
4.7

>  <Ligand Efficiency>
0

>  <Binding Efficiency>
0

>  <Surface Efficiency>
0

>  <Assay Index>
648518

>  <Assay Category>


>  <Assay Organism>


>  <Target ID>
17045

>  <Target Name>
Cytochrome P450 3A4

>  <Target Organism>
Homo sapiens

>  <Target Description>
Target is a single protein chain

>  <Sequence Accession>
P08684

>  <Reference>
Bioorg Med Chem Lett 22 (8), 2670-2674 (2012)

>  <Pubmed ID>
22450130

>  <DOI>
10.1016/j.bmcl.2012.03.014

$$$$
1334820
Actelion Java MolfileCreator 1.0

 29 32  0  0  0  0  0  0  0  0999 V2000
    0.0000   -0.0000   -0.0000 Br  0  0  0  0  0  0  0  0  0  0  0  0
   -0.5183    1.4135   -0.0000 C   0  0  0  0  0  0  0  0  0  0  0  0
    0.3063    2.6622   -0.0000 C   0  0  0  0  0  0  0  0  0  0  0  0
   -1.9672    1.8376   -0.0000 C   0  0  0  0  0  0  0  0  0  0  0  0
   -0.6243    3.8519   -0.0000 N   0  0  0  0  0  0  0  0  0  0  0  0
    1.7905    2.7211   -0.0000 C   0  0  0  0  0  0  0  0  0  0  0  0
   -2.0261    3.3454   -0.0000 O   0  0  0  0  0  0  0  0  0  0  0  0
   -3.1569    0.9306   -0.0000 C   0  0  0  0  0  0  0  0  0  0  0  0
    2.5679    1.4607   -0.0000 C   0  0  0  0  0  0  0  0  0  0  0  0
    2.4737    4.0521   -0.0000 C   0  0  0  0  0  0  0  0  0  0  0  0
   -4.4644    1.6962   -0.0000 C   0  0  0  0  0  0  0  0  0  0  0  0
   -3.1687   -0.5536   -0.0000 C   0  0  0  0  0  0  0  0  0  0  0  0
    1.8494    0.1531   -0.0000 Cl  0  0  0  0  0  0  0  0  0  0  0  0
    4.0521    1.5196   -0.0000 C   0  0  0  0  0  0  0  0  0  0  0  0
    1.6609    5.3243   -0.0000 Cl  0  0  0  0  0  0  0  0  0  0  0  0
    3.9579    4.1228   -0.0000 C   0  0  0  0  0  0  0  0  0  0  0  0
   -5.9368    2.0967   -0.0000 O   0  0  0  0  0  0  0  0  0  0  0  0
   -4.4762    3.2040   -0.0000 C   0  0  0  0  0  0  0  0  0  0  0  0
   -5.7719    0.9541   -0.0000 C   0  0  0  0  0  0  0  0  0  0  0  0
   -4.4762   -1.2840   -0.0000 N   0  0  0  0  0  0  0  0  0  0  0  0
    4.7471    2.8506   -0.0000 C   0  0  0  0  0  0  0  0  0  0  0  0
   -3.1922    3.9579   -0.0000 C   0  0  0  0  0  0  0  0  0  0  0  0
   -5.7837    3.9579   -0.0000 C   0  0  0  0  0  0  0  0  0  0  0  0
   -5.7837   -0.5301   -0.0000 C   0  0  0  0  0  0  0  0  0  0  0  0
   -3.2040    5.4657   -0.0000 C   0  0  0  0  0  0  0  0  0  0  0  0
   -5.7955    5.4657   -0.0000 C   0  0  0  0  0  0  0  0  0  0  0  0
   -1.9201    6.2196   -0.0000 F   0  0  0  0  0  0  0  0  0  0  0  0
   -4.5115    6.2313   -0.0000 C   0  0  0  0  0  0  0  0  0  0  0  0
   -4.5233    7.7391   -0.0000 F   0  0  0  0  0  0  0  0  0  0  0  0
  1  2  1  0  0  0  0
  2  3  1  0  0  0  0
  2  4  2  0  0  0  0
  3  5  2  0  0  0  0
  3  6  1  0  0  0  0
  4  7  1  0  0  0  0
  8  4  1  6  0  0  0
  6  9  2  0  0  0  0
  6 10  1  0  0  0  0
  8 11  1  0  0  0  0
  8 12  1  0  0  0  0
  9 13  1  0  0  0  0
  9 14  1  0  0  0  0
 10 15  1  0  0  0  0
 10 16  2  0  0  0  0
 11 17  1  6  0  0  0
 11 18  1  0  0  0  0
 11 19  1  0  0  0  0
 12 20  1  0  0  0  0
 14 21  2  0  0  0  0
 18 22  2  0  0  0  0
 18 23  1  0  0  0  0
 19 24  1  0  0  0  0
 22 25  1  0  0  0  0
 23 26  2  0  0  0  0
 25 27  1  0  0  0  0
 25 28  2  0  0  0  0
 28 29  1  0  0  0  0
  5  7  1  0  0  0  0
 16 21  1  0  0  0  0
 20 24  1  0  0  0  0
 26 28  1  0  0  0  0
M  END
>  <MolRegNo>
1334820

>  <m>
=

>  <Value>
15000

>  <Unit>
nM

>  <Type>
IC50

>  <pValue>
4.82

>  <Ligand Efficiency>
0

>  <Binding Efficiency>
0

>  <Surface Efficiency>
0

>  <Assay Index>
648518

>  <Assay Category>


>  <Assay Organism>


>  <Target ID>
17045

>  <Target Name>
Cytochrome P450 3A4

>  <Target Organism>
Homo sapiens

>  <Target Description>
Target is a single protein chain

>  <Sequence Accession>
P08684

>  <Reference>
Bioorg Med Chem Lett 22 (8), 2670-2674 (2012)

>  <Pubmed ID>
22450130

>  <DOI>
10.1016/j.bmcl.2012.03.014

$$$$
1334822
Actelion Java MolfileCreator 1.0

 33 36  0  0  0  0  0  0  0  0999 V2000
    0.0000   -0.0000   -0.0000 Br  0  0  0  0  0  0  0  0  0  0  0  0
   -0.5186    1.4143   -0.0000 C   0  0  0  0  0  0  0  0  0  0  0  0
    0.3064    2.6635   -0.0000 C   0  0  0  0  0  0  0  0  0  0  0  0
   -1.9682    1.8386   -0.0000 C   0  0  0  0  0  0  0  0  0  0  0  0
   -0.6246    3.8539   -0.0000 N   0  0  0  0  0  0  0  0  0  0  0  0
    1.7914    2.7225   -0.0000 C   0  0  0  0  0  0  0  0  0  0  0  0
   -2.0271    3.3471   -0.0000 O   0  0  0  0  0  0  0  0  0  0  0  0
   -3.1585    0.9311   -0.0000 C   0  0  0  0  0  0  0  0  0  0  0  0
    2.4750    4.0543   -0.0000 C   0  0  0  0  0  0  0  0  0  0  0  0
    2.5693    1.4614   -0.0000 C   0  0  0  0  0  0  0  0  0  0  0  0
   -4.4667    1.6971   -0.0000 C   0  0  0  0  0  0  0  0  0  0  0  0
   -3.1703   -0.5539   -0.0000 C   0  0  0  0  0  0  0  0  0  0  0  0
    3.9482    4.1132   -0.0000 C   0  0  0  0  0  0  0  0  0  0  0  0
    1.6736    5.3389   -0.0000 C   0  0  0  0  0  0  0  0  0  0  0  0
    4.0543    1.5203   -0.0000 C   0  0  0  0  0  0  0  0  0  0  0  0
   -5.9399    2.0978   -0.0000 O   0  0  0  0  0  0  0  0  0  0  0  0
   -4.4785    3.2057   -0.0000 C   0  0  0  0  0  0  0  0  0  0  0  0
   -5.7749    0.9546   -0.0000 C   0  0  0  0  0  0  0  0  0  0  0  0
   -4.4785   -1.2846   -0.0000 N   0  0  0  0  0  0  0  0  0  0  0  0
    4.7378    2.8639   -0.0000 C   0  0  0  0  0  0  0  0  0  0  0  0
    2.3689    6.6707   -0.0000 C   0  0  0  0  0  0  0  0  0  0  0  0
   -3.1939    3.9600   -0.0000 C   0  0  0  0  0  0  0  0  0  0  0  0
   -5.7867    3.9600   -0.0000 C   0  0  0  0  0  0  0  0  0  0  0  0
   -5.7867   -0.5304   -0.0000 C   0  0  0  0  0  0  0  0  0  0  0  0
    3.8539    6.7296   -0.0000 N   0  0  0  0  0  0  0  0  0  0  0  0
   -3.2057    5.4685   -0.0000 C   0  0  0  0  0  0  0  0  0  0  0  0
   -5.7985    5.4685   -0.0000 C   0  0  0  0  0  0  0  0  0  0  0  0
    4.5492    8.0614   -0.0000 C   0  0  0  0  0  0  0  0  0  0  0  0
   -1.9211    6.2228   -0.0000 F   0  0  0  0  0  0  0  0  0  0  0  0
   -4.5139    6.2346   -0.0000 C   0  0  0  0  0  0  0  0  0  0  0  0
    6.0342    8.1203   -0.0000 O   0  0  0  0  0  0  0  0  0  0  0  0
    3.7478    9.3460   -0.0000 C   0  0  0  0  0  0  0  0  0  0  0  0
   -4.5257    7.7431   -0.0000 F   0  0  0  0  0  0  0  0  0  0  0  0
  1  2  1  0  0  0  0
  2  3  1  0  0  0  0
  2  4  2  0  0  0  0
  3  5  2  0  0  0  0
  3  6  1  0  0  0  0
  4  7  1  0  0  0  0
  8  4  1  6  0  0  0
  6  9  2  0  0  0  0
  6 10  1  0  0  0  0
  8 11  1  0  0  0  0
  8 12  1  0  0  0  0
  9 13  1  0  0  0  0
  9 14  1  0  0  0  0
 10 15  2  0  0  0  0
 11 16  1  6  0  0  0
 11 17  1  0  0  0  0
 11 18  1  0  0  0  0
 12 19  1  0  0  0  0
 13 20  2  0  0  0  0
 14 21  1  0  0  0  0
 17 22  2  0  0  0  0
 17 23  1  0  0  0  0
 18 24  1  0  0  0  0
 21 25  1  0  0  0  0
 22 26  1  0  0  0  0
 23 27  2  0  0  0  0
 25 28  1  0  0  0  0
 26 29  1  0  0  0  0
 26 30  2  0  0  0  0
 28 31  2  0  0  0  0
 28 32  1  0  0  0  0
 30 33  1  0  0  0  0
  5  7  1  0  0  0  0
 15 20  1  0  0  0  0
 19 24  1  0  0  0  0
 27 30  1  0  0  0  0
M  END
>  <MolRegNo>
1334822

>  <m>
=

>  <Value>
45000

>  <Unit>
nM

>  <Type>
IC50

>  <pValue>
4.35

>  <Ligand Efficiency>
0

>  <Binding Efficiency>
0

>  <Surface Efficiency>
0

>  <Assay Index>
648518

>  <Assay Category>


>  <Assay Organism>


>  <Target ID>
17045

>  <Target Name>
Cytochrome P450 3A4

>  <Target Organism>
Homo sapiens

>  <Target Description>
Target is a single protein chain

>  <Sequence Accession>
P08684

>  <Reference>
Bioorg Med Chem Lett 22 (8), 2670-2674 (2012)

>  <Pubmed ID>
22450130

>  <DOI>
10.1016/j.bmcl.2012.03.014

$$$$
1334823
Actelion Java MolfileCreator 1.0

 33 36  0  0  0  0  0  0  0  0999 V2000
    0.0000   -0.0000   -0.0000 Br  0  0  0  0  0  0  0  0  0  0  0  0
   -0.5186    1.4143   -0.0000 C   0  0  0  0  0  0  0  0  0  0  0  0
    0.3064    2.6635   -0.0000 C   0  0  0  0  0  0  0  0  0  0  0  0
   -1.9682    1.8386   -0.0000 C   0  0  0  0  0  0  0  0  0  0  0  0
   -0.6246    3.8539   -0.0000 O   0  0  0  0  0  0  0  0  0  0  0  0
    1.7914    2.7225   -0.0000 C   0  0  0  0  0  0  0  0  0  0  0  0
   -2.0271    3.3471   -0.0000 N   0  0  0  0  0  0  0  0  0  0  0  0
   -3.1585    0.9311   -0.0000 C   0  0  0  0  0  0  0  0  0  0  0  0
    2.4750    4.0543   -0.0000 C   0  0  0  0  0  0  0  0  0  0  0  0
    2.5693    1.4614   -0.0000 C   0  0  0  0  0  0  0  0  0  0  0  0
   -4.4667    1.6971   -0.0000 C   0  0  0  0  0  0  0  0  0  0  0  0
   -3.1703   -0.5539   -0.0000 C   0  0  0  0  0  0  0  0  0  0  0  0
    3.9482    4.1132   -0.0000 C   0  0  0  0  0  0  0  0  0  0  0  0
    1.6736    5.3389   -0.0000 C   0  0  0  0  0  0  0  0  0  0  0  0
    4.0543    1.5203   -0.0000 C   0  0  0  0  0  0  0  0  0  0  0  0
   -5.9399    2.0978   -0.0000 O   0  0  0  0  0  0  0  0  0  0  0  0
   -4.4785    3.2057   -0.0000 C   0  0  0  0  0  0  0  0  0  0  0  0
   -5.7749    0.9546   -0.0000 C   0  0  0  0  0  0  0  0  0  0  0  0
   -4.4785   -1.2846   -0.0000 N   0  0  0  0  0  0  0  0  0  0  0  0
    4.7378    2.8639   -0.0000 C   0  0  0  0  0  0  0  0  0  0  0  0
    2.3689    6.6707   -0.0000 C   0  0  0  0  0  0  0  0  0  0  0  0
   -3.1939    3.9600   -0.0000 C   0  0  0  0  0  0  0  0  0  0  0  0
   -5.7867    3.9600   -0.0000 C   0  0  0  0  0  0  0  0  0  0  0  0
   -5.7867   -0.5304   -0.0000 C   0  0  0  0  0  0  0  0  0  0  0  0
    3.8539    6.7296   -0.0000 N   0  0  0  0  0  0  0  0  0  0  0  0
   -3.2057    5.4685   -0.0000 C   0  0  0  0  0  0  0  0  0  0  0  0
   -5.7985    5.4685   -0.0000 C   0  0  0  0  0  0  0  0  0  0  0  0
    4.5492    8.0614   -0.0000 C   0  0  0  0  0  0  0  0  0  0  0  0
   -1.9211    6.2228   -0.0000 F   0  0  0  0  0  0  0  0  0  0  0  0
   -4.5139    6.2346   -0.0000 C   0  0  0  0  0  0  0  0  0  0  0  0
    6.0342    8.1203   -0.0000 O   0  0  0  0  0  0  0  0  0  0  0  0
    3.7478    9.3460   -0.0000 C   0  0  0  0  0  0  0  0  0  0  0  0
   -4.5257    7.7431   -0.0000 F   0  0  0  0  0  0  0  0  0  0  0  0
  1  2  1  0  0  0  0
  2  3  2  0  0  0  0
  2  4  1  0  0  0  0
  3  5  1  0  0  0  0
  3  6  1  0  0  0  0
  4  7  2  0  0  0  0
  8  4  1  6  0  0  0
  6  9  2  0  0  0  0
  6 10  1  0  0  0  0
  8 11  1  0  0  0  0
  8 12  1  0  0  0  0
  9 13  1  0  0  0  0
  9 14  1  0  0  0  0
 10 15  2  0  0  0  0
 11 16  1  6  0  0  0
 11 17  1  0  0  0  0
 11 18  1  0  0  0  0
 12 19  1  0  0  0  0
 13 20  2  0  0  0  0
 14 21  1  0  0  0  0
 17 22  2  0  0  0  0
 17 23  1  0  0  0  0
 18 24  1  0  0  0  0
 21 25  1  0  0  0  0
 22 26  1  0  0  0  0
 23 27  2  0  0  0  0
 25 28  1  0  0  0  0
 26 29  1  0  0  0  0
 26 30  2  0  0  0  0
 28 31  2  0  0  0  0
 28 32  1  0  0  0  0
 30 33  1  0  0  0  0
  5  7  1  0  0  0  0
 15 20  1  0  0  0  0
 19 24  1  0  0  0  0
 27 30  1  0  0  0  0
M  END
>  <MolRegNo>
1334823

>  <m>
=

>  <Value>
33000

>  <Unit>
nM

>  <Type>
IC50

>  <pValue>
4.48

>  <Ligand Efficiency>
0

>  <Binding Efficiency>
0

>  <Surface Efficiency>
0

>  <Assay Index>
648518

>  <Assay Category>


>  <Assay Organism>


>  <Target ID>
17045

>  <Target Name>
Cytochrome P450 3A4

>  <Target Organism>
Homo sapiens

>  <Target Description>
Target is a single protein chain

>  <Sequence Accession>
P08684

>  <Reference>
Bioorg Med Chem Lett 22 (8), 2670-2674 (2012)

>  <Pubmed ID>
22450130

>  <DOI>
10.1016/j.bmcl.2012.03.014

$$$$
1334824
Actelion Java MolfileCreator 1.0

 28 31  0  0  0  0  0  0  0  0999 V2000
    0.0000   -0.0000   -0.0000 Cl  0  0  0  0  0  0  0  0  0  0  0  0
    0.6940    1.3291   -0.0000 C   0  0  0  0  0  0  0  0  0  0  0  0
   -0.1059    2.6112   -0.0000 C   0  0  0  0  0  0  0  0  0  0  0  0
    2.1760    1.3879   -0.0000 C   0  0  0  0  0  0  0  0  0  0  0  0
    0.5763    3.9403   -0.0000 C   0  0  0  0  0  0  0  0  0  0  0  0
   -1.6114    2.5759   -0.0000 C   0  0  0  0  0  0  0  0  0  0  0  0
    2.8700    2.7171   -0.0000 C   0  0  0  0  0  0  0  0  0  0  0  0
   -0.2235    5.2224   -0.0000 Cl  0  0  0  0  0  0  0  0  0  0  0  0
    2.0466    3.9992   -0.0000 C   0  0  0  0  0  0  0  0  0  0  0  0
   -2.5406    3.7639   -0.0000 O   0  0  0  0  0  0  0  0  0  0  0  0
   -2.4583    1.3527   -0.0000 C   0  0  0  0  0  0  0  0  0  0  0  0
   -3.9521    3.2699   -0.0000 N   0  0  0  0  0  0  0  0  0  0  0  0
   -3.9051    1.7761   -0.0000 C   0  0  0  0  0  0  0  0  0  0  0  0
   -5.0930    0.8704   -0.0000 C   0  0  0  0  0  0  0  0  0  0  0  0
   -6.3986    1.6349   -0.0000 C   0  0  0  0  0  0  0  0  0  0  0  0
   -5.1048   -0.6116   -0.0000 C   0  0  0  0  0  0  0  0  0  0  0  0
   -7.8689    2.0349   -0.0000 O   0  0  0  0  0  0  0  0  0  0  0  0
   -6.4104    3.1405   -0.0000 C   0  0  0  0  0  0  0  0  0  0  0  0
   -7.7043    0.8939   -0.0000 C   0  0  0  0  0  0  0  0  0  0  0  0
   -6.4104   -1.3409   -0.0000 N   0  0  0  0  0  0  0  0  0  0  0  0
   -5.1283    3.8933   -0.0000 C   0  0  0  0  0  0  0  0  0  0  0  0
   -7.7160    3.8933   -0.0000 C   0  0  0  0  0  0  0  0  0  0  0  0
   -7.7160   -0.5881   -0.0000 C   0  0  0  0  0  0  0  0  0  0  0  0
   -5.1401    5.3989   -0.0000 C   0  0  0  0  0  0  0  0  0  0  0  0
   -7.7278    5.3989   -0.0000 C   0  0  0  0  0  0  0  0  0  0  0  0
   -3.8580    6.1516   -0.0000 F   0  0  0  0  0  0  0  0  0  0  0  0
   -6.4457    6.1634   -0.0000 C   0  0  0  0  0  0  0  0  0  0  0  0
   -6.4575    7.6690   -0.0000 F   0  0  0  0  0  0  0  0  0  0  0  0
  1  2  1  0  0  0  0
  2  3  2  0  0  0  0
  2  4  1  0  0  0  0
  3  5  1  0  0  0  0
  3  6  1  0  0  0  0
  4  7  2  0  0  0  0
  5  8  1  0  0  0  0
  5  9  2  0  0  0  0
  6 10  1  0  0  0  0
  6 11  2  0  0  0  0
 10 12  1  0  0  0  0
 11 13  1  0  0  0  0
 14 13  1  6  0  0  0
 14 15  1  0  0  0  0
 14 16  1  0  0  0  0
 15 17  1  6  0  0  0
 15 18  1  0  0  0  0
 15 19  1  0  0  0  0
 16 20  1  0  0  0  0
 18 21  2  0  0  0  0
 18 22  1  0  0  0  0
 19 23  1  0  0  0  0
 21 24  1  0  0  0  0
 22 25  2  0  0  0  0
 24 26  1  0  0  0  0
 24 27  2  0  0  0  0
 27 28  1  0  0  0  0
  7  9  1  0  0  0  0
 12 13  2  0  0  0  0
 20 23  1  0  0  0  0
 25 27  1  0  0  0  0
M  END
>  <MolRegNo>
1334824

>  <m>
=

>  <Value>
17000

>  <Unit>
nM

>  <Type>
IC50

>  <pValue>
4.77

>  <Ligand Efficiency>
0

>  <Binding Efficiency>
0

>  <Surface Efficiency>
0

>  <Assay Index>
648518

>  <Assay Category>


>  <Assay Organism>


>  <Target ID>
17045

>  <Target Name>
Cytochrome P450 3A4

>  <Target Organism>
Homo sapiens

>  <Target Description>
Target is a single protein chain

>  <Sequence Accession>
P08684

>  <Reference>
Bioorg Med Chem Lett 22 (8), 2670-2674 (2012)

>  <Pubmed ID>
22450130

>  <DOI>
10.1016/j.bmcl.2012.03.014

$$$$
1334825
Actelion Java MolfileCreator 1.0

 34 37  0  0  0  0  0  0  0  0999 V2000
    0.0000   -0.0000   -0.0000 Br  0  0  0  0  0  0  0  0  0  0  0  0
   -0.5187    1.4146   -0.0000 C   0  0  0  0  0  0  0  0  0  0  0  0
    0.3065    2.6642   -0.0000 C   0  0  0  0  0  0  0  0  0  0  0  0
   -1.9687    1.8390   -0.0000 C   0  0  0  0  0  0  0  0  0  0  0  0
   -0.6248    3.8548   -0.0000 O   0  0  0  0  0  0  0  0  0  0  0  0
    1.7918    2.7231   -0.0000 C   0  0  0  0  0  0  0  0  0  0  0  0
   -2.0276    3.3479   -0.0000 N   0  0  0  0  0  0  0  0  0  0  0  0
   -3.1593    0.9313   -0.0000 C   0  0  0  0  0  0  0  0  0  0  0  0
    2.4756    4.0552   -0.0000 C   0  0  0  0  0  0  0  0  0  0  0  0
    2.5699    1.4618   -0.0000 C   0  0  0  0  0  0  0  0  0  0  0  0
   -4.4678    1.6975   -0.0000 C   0  0  0  0  0  0  0  0  0  0  0  0
   -3.1711   -0.5541   -0.0000 C   0  0  0  0  0  0  0  0  0  0  0  0
    3.9491    4.1142   -0.0000 C   0  0  0  0  0  0  0  0  0  0  0  0
    1.6740    5.3402   -0.0000 C   0  0  0  0  0  0  0  0  0  0  0  0
    4.0552    1.5207   -0.0000 C   0  0  0  0  0  0  0  0  0  0  0  0
   -5.9414    2.0983   -0.0000 O   0  0  0  0  0  0  0  0  0  0  0  0
   -4.4796    3.2065   -0.0000 C   0  0  0  0  0  0  0  0  0  0  0  0
   -5.7763    0.9549   -0.0000 C   0  0  0  0  0  0  0  0  0  0  0  0
   -4.4796   -1.2849   -0.0000 N   0  0  0  0  0  0  0  0  0  0  0  0
    4.7390    2.8646   -0.0000 C   0  0  0  0  0  0  0  0  0  0  0  0
    2.3695    6.6723   -0.0000 C   0  0  0  0  0  0  0  0  0  0  0  0
   -3.1947    3.9609   -0.0000 C   0  0  0  0  0  0  0  0  0  0  0  0
   -5.7881    3.9609   -0.0000 C   0  0  0  0  0  0  0  0  0  0  0  0
   -5.7881   -0.5305   -0.0000 C   0  0  0  0  0  0  0  0  0  0  0  0
    6.2243    2.9353   -0.0000 F   0  0  0  0  0  0  0  0  0  0  0  0
    3.8548    6.7312   -0.0000 N   0  0  0  0  0  0  0  0  0  0  0  0
   -3.2065    5.4698   -0.0000 C   0  0  0  0  0  0  0  0  0  0  0  0
   -5.7999    5.4698   -0.0000 C   0  0  0  0  0  0  0  0  0  0  0  0
    4.5503    8.0633   -0.0000 C   0  0  0  0  0  0  0  0  0  0  0  0
   -1.9215    6.2243   -0.0000 F   0  0  0  0  0  0  0  0  0  0  0  0
   -4.5150    6.2361   -0.0000 C   0  0  0  0  0  0  0  0  0  0  0  0
    6.0357    8.1222   -0.0000 O   0  0  0  0  0  0  0  0  0  0  0  0
    3.7487    9.3482   -0.0000 C   0  0  0  0  0  0  0  0  0  0  0  0
   -4.5268    7.7450   -0.0000 F   0  0  0  0  0  0  0  0  0  0  0  0
  1  2  1  0  0  0  0
  2  3  2  0  0  0  0
  2  4  1  0  0  0  0
  3  5  1  0  0  0  0
  3  6  1  0  0  0  0
  4  7  2  0  0  0  0
  8  4  1  6  0  0  0
  6  9  2  0  0  0  0
  6 10  1  0  0  0  0
  8 11  1  0  0  0  0
  8 12  1  0  0  0  0
  9 13  1  0  0  0  0
  9 14  1  0  0  0  0
 10 15  2  0  0  0  0
 11 16  1  6  0  0  0
 11 17  1  0  0  0  0
 11 18  1  0  0  0  0
 12 19  1  0  0  0  0
 13 20  2  0  0  0  0
 14 21  1  0  0  0  0
 17 22  2  0  0  0  0
 17 23  1  0  0  0  0
 18 24  1  0  0  0  0
 20 25  1  0  0  0  0
 21 26  1  0  0  0  0
 22 27  1  0  0  0  0
 23 28  2  0  0  0  0
 26 29  1  0  0  0  0
 27 30  1  0  0  0  0
 27 31  2  0  0  0  0
 29 32  2  0  0  0  0
 29 33  1  0  0  0  0
 31 34  1  0  0  0  0
  5  7  1  0  0  0  0
 15 20  1  0  0  0  0
 19 24  1  0  0  0  0
 28 31  1  0  0  0  0
M  END
>  <MolRegNo>
1334825

>  <m>
=

>  <Value>
45000

>  <Unit>
nM

>  <Type>
IC50

>  <pValue>
4.35

>  <Ligand Efficiency>
0

>  <Binding Efficiency>
0

>  <Surface Efficiency>
0

>  <Assay Index>
648518

>  <Assay Category>


>  <Assay Organism>


>  <Target ID>
17045

>  <Target Name>
Cytochrome P450 3A4

>  <Target Organism>
Homo sapiens

>  <Target Description>
Target is a single protein chain

>  <Sequence Accession>
P08684

>  <Reference>
Bioorg Med Chem Lett 22 (8), 2670-2674 (2012)

>  <Pubmed ID>
22450130

>  <DOI>
10.1016/j.bmcl.2012.03.014

$$$$
1334826
Actelion Java MolfileCreator 1.0

 32 35  0  0  0  0  0  0  0  0999 V2000
    0.0000   -0.0000   -0.0000 F   0  0  0  0  0  0  0  0  0  0  0  0
   -1.3125   -0.7331   -0.0000 C   0  0  0  0  0  0  0  0  0  0  0  0
   -2.6250    0.0355   -0.0000 C   0  0  0  0  0  0  0  0  0  0  0  0
   -1.3243   -2.2230   -0.0000 C   0  0  0  0  0  0  0  0  0  0  0  0
   -2.6368    1.5490   -0.0000 F   0  0  0  0  0  0  0  0  0  0  0  0
   -3.9375   -0.7095   -0.0000 C   0  0  0  0  0  0  0  0  0  0  0  0
   -2.6368   -2.9561   -0.0000 C   0  0  0  0  0  0  0  0  0  0  0  0
   -3.9494   -2.1993   -0.0000 C   0  0  0  0  0  0  0  0  0  0  0  0
   -2.6487   -4.4460   -0.0000 C   0  0  0  0  0  0  0  0  0  0  0  0
   -4.1267   -4.0439   -0.0000 O   0  0  0  0  0  0  0  0  0  0  0  0
   -1.3598   -5.1909   -0.0000 C   0  0  0  0  0  0  0  0  0  0  0  0
   -3.9612   -5.1909   -0.0000 C   0  0  0  0  0  0  0  0  0  0  0  0
   -0.1892   -4.2568   -0.0000 C   0  0  0  0  0  0  0  0  0  0  0  0
   -1.3716   -6.6808   -0.0000 C   0  0  0  0  0  0  0  0  0  0  0  0
   -3.9730   -6.6808   -0.0000 C   0  0  0  0  0  0  0  0  0  0  0  0
   -0.2483   -2.7433   -0.0000 N   0  0  0  0  0  0  0  0  0  0  0  0
    1.2416   -4.6588   -0.0000 C   0  0  0  0  0  0  0  0  0  0  0  0
   -2.6841   -7.4139   -0.0000 N   0  0  0  0  0  0  0  0  0  0  0  0
    1.1470   -2.2230   -0.0000 O   0  0  0  0  0  0  0  0  0  0  0  0
    2.0693   -3.4054   -0.0000 C   0  0  0  0  0  0  0  0  0  0  0  0
    3.5591   -3.3463   -0.0000 C   0  0  0  0  0  0  0  0  0  0  0  0
    4.2450   -2.0101   -0.0000 C   0  0  0  0  0  0  0  0  0  0  0  0
    4.3396   -4.6115   -0.0000 C   0  0  0  0  0  0  0  0  0  0  0  0
    5.7230   -1.9510   -0.0000 C   0  0  0  0  0  0  0  0  0  0  0  0
    3.4409   -0.7213   -0.0000 C   0  0  0  0  0  0  0  0  0  0  0  0
    5.8294   -4.5524   -0.0000 C   0  0  0  0  0  0  0  0  0  0  0  0
    6.5152   -3.2044   -0.0000 C   0  0  0  0  0  0  0  0  0  0  0  0
    4.1385    0.6149   -0.0000 C   0  0  0  0  0  0  0  0  0  0  0  0
    5.6284    0.6740   -0.0000 N   0  0  0  0  0  0  0  0  0  0  0  0
    6.3261    2.0101   -0.0000 C   0  0  0  0  0  0  0  0  0  0  0  0
    7.8159    2.0693   -0.0000 O   0  0  0  0  0  0  0  0  0  0  0  0
    5.5220    3.2990   -0.0000 C   0  0  0  0  0  0  0  0  0  0  0  0
  1  2  1  0  0  0  0
  2  3  2  0  0  0  0
  2  4  1  0  0  0  0
  3  5  1  0  0  0  0
  3  6  1  0  0  0  0
  4  7  2  0  0  0  0
  6  8  2  0  0  0  0
  7  9  1  0  0  0  0
  9 10  1  6  0  0  0
  9 11  1  0  0  0  0
  9 12  1  0  0  0  0
 11 13  1  6  0  0  0
 11 14  1  0  0  0  0
 12 15  1  0  0  0  0
 13 16  2  0  0  0  0
 13 17  1  0  0  0  0
 14 18  1  0  0  0  0
 16 19  1  0  0  0  0
 17 20  2  0  0  0  0
 20 21  1  0  0  0  0
 21 22  2  0  0  0  0
 21 23  1  0  0  0  0
 22 24  1  0  0  0  0
 22 25  1  0  0  0  0
 23 26  2  0  0  0  0
 24 27  2  0  0  0  0
 25 28  1  0  0  0  0
 28 29  1  0  0  0  0
 29 30  1  0  0  0  0
 30 31  2  0  0  0  0
 30 32  1  0  0  0  0
  7  8  1  0  0  0  0
 15 18  1  0  0  0  0
 19 20  1  0  0  0  0
 26 27  1  0  0  0  0
M  END
>  <MolRegNo>
1334826

>  <m>
=

>  <Value>
32000

>  <Unit>
nM

>  <Type>
IC50

>  <pValue>
4.5

>  <Ligand Efficiency>
0

>  <Binding Efficiency>
0

>  <Surface Efficiency>
0

>  <Assay Index>
648518

>  <Assay Category>


>  <Assay Organism>


>  <Target ID>
17045

>  <Target Name>
Cytochrome P450 3A4

>  <Target Organism>
Homo sapiens

>  <Target Description>
Target is a single protein chain

>  <Sequence Accession>
P08684

>  <Reference>
Bioorg Med Chem Lett 22 (8), 2670-2674 (2012)

>  <Pubmed ID>
22450130

>  <DOI>
10.1016/j.bmcl.2012.03.014

$$$$
1334828
Actelion Java MolfileCreator 1.0

 35 38  0  0  0  0  0  0  0  0999 V2000
    0.0000   -0.0000   -0.0000 F   0  0  0  0  0  0  0  0  0  0  0  0
   -1.3132   -0.7335   -0.0000 C   0  0  0  0  0  0  0  0  0  0  0  0
   -2.6265    0.0355   -0.0000 C   0  0  0  0  0  0  0  0  0  0  0  0
   -1.3251   -2.2242   -0.0000 C   0  0  0  0  0  0  0  0  0  0  0  0
   -2.6383    1.5499   -0.0000 F   0  0  0  0  0  0  0  0  0  0  0  0
   -3.9397   -0.7099   -0.0000 C   0  0  0  0  0  0  0  0  0  0  0  0
   -2.6383   -2.9578   -0.0000 C   0  0  0  0  0  0  0  0  0  0  0  0
   -3.9516   -2.2006   -0.0000 C   0  0  0  0  0  0  0  0  0  0  0  0
   -2.6501   -4.4485   -0.0000 C   0  0  0  0  0  0  0  0  0  0  0  0
   -4.1290   -4.0462   -0.0000 O   0  0  0  0  0  0  0  0  0  0  0  0
   -1.3606   -5.1938   -0.0000 C   0  0  0  0  0  0  0  0  0  0  0  0
   -3.9634   -5.1938   -0.0000 C   0  0  0  0  0  0  0  0  0  0  0  0
   -0.1893   -4.2592   -0.0000 C   0  0  0  0  0  0  0  0  0  0  0  0
   -1.3724   -6.6845   -0.0000 C   0  0  0  0  0  0  0  0  0  0  0  0
   -3.9752   -6.6845   -0.0000 C   0  0  0  0  0  0  0  0  0  0  0  0
   -0.2485   -2.7448   -0.0000 N   0  0  0  0  0  0  0  0  0  0  0  0
    1.2423   -4.6614   -0.0000 C   0  0  0  0  0  0  0  0  0  0  0  0
   -2.6856   -7.4181   -0.0000 N   0  0  0  0  0  0  0  0  0  0  0  0
    1.1476   -2.2242   -0.0000 O   0  0  0  0  0  0  0  0  0  0  0  0
    2.0704   -3.4073   -0.0000 C   0  0  0  0  0  0  0  0  0  0  0  0
    1.9521   -5.9628   -0.0000 C   0  0  0  0  0  0  0  0  0  0  0  0
    3.5611   -3.3482   -0.0000 C   0  0  0  0  0  0  0  0  0  0  0  0
    1.1713   -7.2406   -0.0000 O   0  0  0  0  0  0  0  0  0  0  0  0
    3.4428   -5.9747   -0.0000 C   0  0  0  0  0  0  0  0  0  0  0  0
    4.2473   -2.0113   -0.0000 C   0  0  0  0  0  0  0  0  0  0  0  0
    4.3420   -4.6141   -0.0000 C   0  0  0  0  0  0  0  0  0  0  0  0
    5.7262   -1.9521   -0.0000 C   0  0  0  0  0  0  0  0  0  0  0  0
    3.4428   -0.7217   -0.0000 C   0  0  0  0  0  0  0  0  0  0  0  0
    5.8327   -4.5549   -0.0000 C   0  0  0  0  0  0  0  0  0  0  0  0
    6.5189   -3.2062   -0.0000 C   0  0  0  0  0  0  0  0  0  0  0  0
    4.1409    0.6152   -0.0000 C   0  0  0  0  0  0  0  0  0  0  0  0
    5.6316    0.6744   -0.0000 N   0  0  0  0  0  0  0  0  0  0  0  0
    6.3296    2.0113   -0.0000 C   0  0  0  0  0  0  0  0  0  0  0  0
    7.8203    2.0704   -0.0000 O   0  0  0  0  0  0  0  0  0  0  0  0
    5.5251    3.3009   -0.0000 C   0  0  0  0  0  0  0  0  0  0  0  0
  1  2  1  0  0  0  0
  2  3  2  0  0  0  0
  2  4  1  0  0  0  0
  3  5  1  0  0  0  0
  3  6  1  0  0  0  0
  4  7  2  0  0  0  0
  6  8  2  0  0  0  0
  7  9  1  0  0  0  0
  9 10  1  6  0  0  0
  9 11  1  0  0  0  0
  9 12  1  0  0  0  0
 11 13  1  6  0  0  0
 11 14  1  0  0  0  0
 12 15  1  0  0  0  0
 13 16  2  0  0  0  0
 13 17  1  0  0  0  0
 14 18  1  0  0  0  0
 16 19  1  0  0  0  0
 17 20  2  0  0  0  0
 17 21  1  0  0  0  0
 20 22  1  0  0  0  0
 21 23  2  0  0  0  0
 21 24  1  0  0  0  0
 22 25  2  0  0  0  0
 22 26  1  0  0  0  0
 25 27  1  0  0  0  0
 25 28  1  0  0  0  0
 26 29  2  0  0  0  0
 27 30  2  0  0  0  0
 28 31  1  0  0  0  0
 31 32  1  0  0  0  0
 32 33  1  0  0  0  0
 33 34  2  0  0  0  0
 33 35  1  0  0  0  0
  7  8  1  0  0  0  0
 15 18  1  0  0  0  0
 19 20  1  0  0  0  0
 29 30  1  0  0  0  0
M  END
>  <MolRegNo>
1334828

>  <m>
=

>  <Value>
8000

>  <Unit>
nM

>  <Type>
IC50

>  <pValue>
5.1

>  <Ligand Efficiency>
0

>  <Binding Efficiency>
0

>  <Surface Efficiency>
0

>  <Assay Index>
648518

>  <Assay Category>


>  <Assay Organism>


>  <Target ID>
17045

>  <Target Name>
Cytochrome P450 3A4

>  <Target Organism>
Homo sapiens

>  <Target Description>
Target is a single protein chain

>  <Sequence Accession>
P08684

>  <Reference>
Bioorg Med Chem Lett 22 (8), 2670-2674 (2012)

>  <Pubmed ID>
22450130

>  <DOI>
10.1016/j.bmcl.2012.03.014

$$$$
1334830
Actelion Java MolfileCreator 1.0

 32 35  0  0  0  0  0  0  0  0999 V2000
    0.0000   -0.0000   -0.0000 Br  0  0  0  0  0  0  0  0  0  0  0  0
   -0.5188    1.4150   -0.0000 C   0  0  0  0  0  0  0  0  0  0  0  0
    0.3066    2.6649   -0.0000 C   0  0  0  0  0  0  0  0  0  0  0  0
   -1.9692    1.8395   -0.0000 C   0  0  0  0  0  0  0  0  0  0  0  0
   -0.6250    3.8559   -0.0000 O   0  0  0  0  0  0  0  0  0  0  0  0
    1.7923    2.7239   -0.0000 C   0  0  0  0  0  0  0  0  0  0  0  0
   -2.0282    3.3488   -0.0000 N   0  0  0  0  0  0  0  0  0  0  0  0
   -3.1602    0.9315   -0.0000 C   0  0  0  0  0  0  0  0  0  0  0  0
    2.4762    4.0563   -0.0000 C   0  0  0  0  0  0  0  0  0  0  0  0
    2.5706    1.4622   -0.0000 C   0  0  0  0  0  0  0  0  0  0  0  0
   -4.4690    1.6980   -0.0000 C   0  0  0  0  0  0  0  0  0  0  0  0
   -3.1719   -0.5542   -0.0000 C   0  0  0  0  0  0  0  0  0  0  0  0
    3.9502    4.1153   -0.0000 C   0  0  0  0  0  0  0  0  0  0  0  0
    1.6744    5.3416   -0.0000 C   0  0  0  0  0  0  0  0  0  0  0  0
    4.0563    1.5211   -0.0000 C   0  0  0  0  0  0  0  0  0  0  0  0
   -4.4808    3.2073   -0.0000 C   0  0  0  0  0  0  0  0  0  0  0  0
   -5.7779    0.9551   -0.0000 C   0  0  0  0  0  0  0  0  0  0  0  0
   -4.4808   -1.2853   -0.0000 N   0  0  0  0  0  0  0  0  0  0  0  0
    4.7402    2.8654   -0.0000 C   0  0  0  0  0  0  0  0  0  0  0  0
    2.3701    6.6741   -0.0000 C   0  0  0  0  0  0  0  0  0  0  0  0
   -3.1955    3.9620   -0.0000 C   0  0  0  0  0  0  0  0  0  0  0  0
   -5.7897    3.9620   -0.0000 C   0  0  0  0  0  0  0  0  0  0  0  0
   -5.7897   -0.5306   -0.0000 C   0  0  0  0  0  0  0  0  0  0  0  0
    3.8559    6.7330   -0.0000 N   0  0  0  0  0  0  0  0  0  0  0  0
   -3.2073    5.4713   -0.0000 C   0  0  0  0  0  0  0  0  0  0  0  0
   -5.8015    5.4713   -0.0000 C   0  0  0  0  0  0  0  0  0  0  0  0
    4.5516    8.0655   -0.0000 C   0  0  0  0  0  0  0  0  0  0  0  0
   -1.9220    6.2260   -0.0000 F   0  0  0  0  0  0  0  0  0  0  0  0
   -4.5162    6.2378   -0.0000 C   0  0  0  0  0  0  0  0  0  0  0  0
    6.0373    8.1244   -0.0000 O   0  0  0  0  0  0  0  0  0  0  0  0
    3.7497    9.3508   -0.0000 C   0  0  0  0  0  0  0  0  0  0  0  0
   -4.5280    7.7471   -0.0000 F   0  0  0  0  0  0  0  0  0  0  0  0
  1  2  1  0  0  0  0
  2  3  2  0  0  0  0
  2  4  1  0  0  0  0
  3  5  1  0  0  0  0
  3  6  1  0  0  0  0
  4  7  2  0  0  0  0
  8  4  1  1  0  0  0
  6  9  2  0  0  0  0
  6 10  1  0  0  0  0
  8 11  1  0  0  0  0
  8 12  1  0  0  0  0
  9 13  1  0  0  0  0
  9 14  1  0  0  0  0
 10 15  2  0  0  0  0
 11 16  1  6  0  0  0
 11 17  1  0  0  0  0
 12 18  1  0  0  0  0
 13 19  2  0  0  0  0
 14 20  1  0  0  0  0
 16 21  2  0  0  0  0
 16 22  1  0  0  0  0
 17 23  1  0  0  0  0
 20 24  1  0  0  0  0
 21 25  1  0  0  0  0
 22 26  2  0  0  0  0
 24 27  1  0  0  0  0
 25 28  1  0  0  0  0
 25 29  2  0  0  0  0
 27 30  2  0  0  0  0
 27 31  1  0  0  0  0
 29 32  1  0  0  0  0
  5  7  1  0  0  0  0
 15 19  1  0  0  0  0
 18 23  1  0  0  0  0
 26 29  1  0  0  0  0
M  END
>  <MolRegNo>
1334830

>  <m>
=

>  <Value>
13000

>  <Unit>
nM

>  <Type>
IC50

>  <pValue>
4.89

>  <Ligand Efficiency>
0

>  <Binding Efficiency>
0

>  <Surface Efficiency>
0

>  <Assay Index>
648518

>  <Assay Category>


>  <Assay Organism>


>  <Target ID>
17045

>  <Target Name>
Cytochrome P450 3A4

>  <Target Organism>
Homo sapiens

>  <Target Description>
Target is a single protein chain

>  <Sequence Accession>
P08684

>  <Reference>
Bioorg Med Chem Lett 22 (8), 2670-2674 (2012)

>  <Pubmed ID>
22450130

>  <DOI>
10.1016/j.bmcl.2012.03.014

$$$$
1334831
Actelion Java MolfileCreator 1.0

 34 37  0  0  0  0  0  0  0  0999 V2000
    0.0000   -0.0000   -0.0000 Br  0  0  0  0  0  0  0  0  0  0  0  0
   -0.5186    1.4143   -0.0000 C   0  0  0  0  0  0  0  0  0  0  0  0
    0.3064    2.6635   -0.0000 C   0  0  0  0  0  0  0  0  0  0  0  0
   -1.9682    1.8386   -0.0000 C   0  0  0  0  0  0  0  0  0  0  0  0
   -0.6246    3.8539   -0.0000 O   0  0  0  0  0  0  0  0  0  0  0  0
    1.7914    2.7225   -0.0000 C   0  0  0  0  0  0  0  0  0  0  0  0
   -2.0271    3.3471   -0.0000 N   0  0  0  0  0  0  0  0  0  0  0  0
   -3.1585    0.9311   -0.0000 C   0  0  0  0  0  0  0  0  0  0  0  0
    2.4750    4.0542   -0.0000 C   0  0  0  0  0  0  0  0  0  0  0  0
    2.5693    1.4614   -0.0000 C   0  0  0  0  0  0  0  0  0  0  0  0
   -4.4667    1.6971   -0.0000 C   0  0  0  0  0  0  0  0  0  0  0  0
   -3.1703   -0.5539   -0.0000 C   0  0  0  0  0  0  0  0  0  0  0  0
    3.9482    4.1132   -0.0000 C   0  0  0  0  0  0  0  0  0  0  0  0
    1.6736    5.3389   -0.0000 C   0  0  0  0  0  0  0  0  0  0  0  0
    4.0542    1.5203   -0.0000 C   0  0  0  0  0  0  0  0  0  0  0  0
   -5.9399    2.0978   -0.0000 O   0  0  0  0  0  0  0  0  0  0  0  0
   -4.4785    3.2057   -0.0000 C   0  0  0  0  0  0  0  0  0  0  0  0
   -5.7749    0.9546   -0.0000 C   0  0  0  0  0  0  0  0  0  0  0  0
   -4.4785   -1.2846   -0.0000 N   0  0  0  0  0  0  0  0  0  0  0  0
    4.7378    2.8639   -0.0000 C   0  0  0  0  0  0  0  0  0  0  0  0
    2.3689    6.6706   -0.0000 C   0  0  0  0  0  0  0  0  0  0  0  0
   -7.0124    1.0489   -0.0000 C   0  0  0  0  0  0  0  0  0  0  0  0
   -3.1939    3.9600   -0.0000 C   0  0  0  0  0  0  0  0  0  0  0  0
   -5.7867    3.9600   -0.0000 C   0  0  0  0  0  0  0  0  0  0  0  0
   -5.7867   -0.5304   -0.0000 C   0  0  0  0  0  0  0  0  0  0  0  0
    3.8539    6.7296   -0.0000 N   0  0  0  0  0  0  0  0  0  0  0  0
   -3.2057    5.4685   -0.0000 C   0  0  0  0  0  0  0  0  0  0  0  0
   -5.7985    5.4685   -0.0000 C   0  0  0  0  0  0  0  0  0  0  0  0
    4.5492    8.0613   -0.0000 C   0  0  0  0  0  0  0  0  0  0  0  0
   -1.9210    6.2228   -0.0000 F   0  0  0  0  0  0  0  0  0  0  0  0
   -4.5139    6.2346   -0.0000 C   0  0  0  0  0  0  0  0  0  0  0  0
    6.0342    8.1203   -0.0000 O   0  0  0  0  0  0  0  0  0  0  0  0
    3.7478    9.3460   -0.0000 C   0  0  0  0  0  0  0  0  0  0  0  0
   -4.5257    7.7431   -0.0000 F   0  0  0  0  0  0  0  0  0  0  0  0
  1  2  1  0  0  0  0
  2  3  2  0  0  0  0
  2  4  1  0  0  0  0
  3  5  1  0  0  0  0
  3  6  1  0  0  0  0
  4  7  2  0  0  0  0
  8  4  1  6  0  0  0
  6  9  2  0  0  0  0
  6 10  1  0  0  0  0
  8 11  1  0  0  0  0
  8 12  1  0  0  0  0
  9 13  1  0  0  0  0
  9 14  1  0  0  0  0
 10 15  2  0  0  0  0
 11 16  1  6  0  0  0
 11 17  1  0  0  0  0
 11 18  1  0  0  0  0
 12 19  1  0  0  0  0
 13 20  2  0  0  0  0
 14 21  1  0  0  0  0
 16 22  1  0  0  0  0
 17 23  2  0  0  0  0
 17 24  1  0  0  0  0
 18 25  1  0  0  0  0
 21 26  1  0  0  0  0
 23 27  1  0  0  0  0
 24 28  2  0  0  0  0
 26 29  1  0  0  0  0
 27 30  1  0  0  0  0
 27 31  2  0  0  0  0
 29 32  2  0  0  0  0
 29 33  1  0  0  0  0
 31 34  1  0  0  0  0
  5  7  1  0  0  0  0
 15 20  1  0  0  0  0
 19 25  1  0  0  0  0
 28 31  1  0  0  0  0
M  END
>  <MolRegNo>
1334831

>  <m>
=

>  <Value>
28000

>  <Unit>
nM

>  <Type>
IC50

>  <pValue>
4.55

>  <Ligand Efficiency>
0

>  <Binding Efficiency>
0

>  <Surface Efficiency>
0

>  <Assay Index>
648518

>  <Assay Category>


>  <Assay Organism>


>  <Target ID>
17045

>  <Target Name>
Cytochrome P450 3A4

>  <Target Organism>
Homo sapiens

>  <Target Description>
Target is a single protein chain

>  <Sequence Accession>
P08684

>  <Reference>
Bioorg Med Chem Lett 22 (8), 2670-2674 (2012)

>  <Pubmed ID>
22450130

>  <DOI>
10.1016/j.bmcl.2012.03.014

$$$$
1334832
Actelion Java MolfileCreator 1.0

 35 38  0  0  0  0  0  0  0  0999 V2000
    0.0000   -0.0000   -0.0000 Br  0  0  0  0  0  0  0  0  0  0  0  0
   -0.5227    1.4138   -0.0000 C   0  0  0  0  0  0  0  0  0  0  0  0
    0.3089    2.6613   -0.0000 C   0  0  0  0  0  0  0  0  0  0  0  0
   -1.9722    1.8415   -0.0000 C   0  0  0  0  0  0  0  0  0  0  0  0
   -0.6178    3.8493   -0.0000 O   0  0  0  0  0  0  0  0  0  0  0  0
    1.7940    2.7207   -0.0000 C   0  0  0  0  0  0  0  0  0  0  0  0
   -2.0316    3.3503   -0.0000 N   0  0  0  0  0  0  0  0  0  0  0  0
   -3.1602    0.9386   -0.0000 C   0  0  0  0  0  0  0  0  0  0  0  0
    2.4831    4.0513   -0.0000 C   0  0  0  0  0  0  0  0  0  0  0  0
    2.5662    1.4613   -0.0000 C   0  0  0  0  0  0  0  0  0  0  0  0
   -4.4671    1.7108   -0.0000 C   0  0  0  0  0  0  0  0  0  0  0  0
   -3.1721   -0.5465   -0.0000 C   0  0  0  0  0  0  0  0  0  0  0  0
    3.9562    4.1107   -0.0000 C   0  0  0  0  0  0  0  0  0  0  0  0
    1.6752    5.3344   -0.0000 C   0  0  0  0  0  0  0  0  0  0  0  0
    4.0513    1.5207   -0.0000 C   0  0  0  0  0  0  0  0  0  0  0  0
   -4.4790    3.2197   -0.0000 C   0  0  0  0  0  0  0  0  0  0  0  0
   -5.9878    1.7702   -0.0000 C   0  0  0  0  0  0  0  0  0  0  0  0
   -5.7740    0.9623   -0.0000 C   0  0  0  0  0  0  0  0  0  0  0  0
   -4.4790   -1.2712   -0.0000 N   0  0  0  0  0  0  0  0  0  0  0  0
    4.7523    2.8514   -0.0000 C   0  0  0  0  0  0  0  0  0  0  0  0
    2.3642    6.6650   -0.0000 C   0  0  0  0  0  0  0  0  0  0  0  0
   -3.1959    3.9800   -0.0000 C   0  0  0  0  0  0  0  0  0  0  0  0
   -5.7859    3.9800   -0.0000 C   0  0  0  0  0  0  0  0  0  0  0  0
   -6.7126    3.1008   -0.0000 O   0  0  0  0  0  0  0  0  0  0  0  0
   -6.7838    0.5109   -0.0000 N   0  0  0  0  0  0  0  0  0  0  0  0
   -5.7859   -0.5227   -0.0000 C   0  0  0  0  0  0  0  0  0  0  0  0
    3.8493    6.7244   -0.0000 N   0  0  0  0  0  0  0  0  0  0  0  0
   -3.2078    5.4889   -0.0000 C   0  0  0  0  0  0  0  0  0  0  0  0
   -5.7977    5.4889   -0.0000 C   0  0  0  0  0  0  0  0  0  0  0  0
    4.5384    8.0551   -0.0000 C   0  0  0  0  0  0  0  0  0  0  0  0
   -1.9247    6.2492   -0.0000 F   0  0  0  0  0  0  0  0  0  0  0  0
   -4.5146    6.2492   -0.0000 C   0  0  0  0  0  0  0  0  0  0  0  0
    6.0235    8.1145   -0.0000 O   0  0  0  0  0  0  0  0  0  0  0  0
    3.7305    9.3382   -0.0000 C   0  0  0  0  0  0  0  0  0  0  0  0
   -4.5265    7.7581   -0.0000 F   0  0  0  0  0  0  0  0  0  0  0  0
  1  2  1  0  0  0  0
  2  3  2  0  0  0  0
  2  4  1  0  0  0  0
  3  5  1  0  0  0  0
  3  6  1  0  0  0  0
  4  7  2  0  0  0  0
  8  4  1  1  0  0  0
  6  9  2  0  0  0  0
  6 10  1  0  0  0  0
  8 11  1  0  0  0  0
  8 12  1  0  0  0  0
  9 13  1  0  0  0  0
  9 14  1  0  0  0  0
 10 15  2  0  0  0  0
 11 16  1  6  0  0  0
 11 17  1  0  0  0  0
 11 18  1  0  0  0  0
 12 19  1  0  0  0  0
 13 20  2  0  0  0  0
 14 21  1  0  0  0  0
 16 22  2  0  0  0  0
 16 23  1  0  0  0  0
 17 24  2  0  0  0  0
 17 25  1  0  0  0  0
 18 26  1  0  0  0  0
 21 27  1  0  0  0  0
 22 28  1  0  0  0  0
 23 29  2  0  0  0  0
 27 30  1  0  0  0  0
 28 31  1  0  0  0  0
 28 32  2  0  0  0  0
 30 33  2  0  0  0  0
 30 34  1  0  0  0  0
 32 35  1  0  0  0  0
  5  7  1  0  0  0  0
 15 20  1  0  0  0  0
 19 26  1  0  0  0  0
 29 32  1  0  0  0  0
M  END
>  <MolRegNo>
1334832

>  <m>
=

>  <Value>
36000

>  <Unit>
nM

>  <Type>
IC50

>  <pValue>
4.44

>  <Ligand Efficiency>
0

>  <Binding Efficiency>
0

>  <Surface Efficiency>
0

>  <Assay Index>
648518

>  <Assay Category>


>  <Assay Organism>


>  <Target ID>
17045

>  <Target Name>
Cytochrome P450 3A4

>  <Target Organism>
Homo sapiens

>  <Target Description>
Target is a single protein chain

>  <Sequence Accession>
P08684

>  <Reference>
Bioorg Med Chem Lett 22 (8), 2670-2674 (2012)

>  <Pubmed ID>
22450130

>  <DOI>
10.1016/j.bmcl.2012.03.014

$$$$
976603
Actelion Java MolfileCreator 1.0

 33 37  0  0  0  0  0  0  0  0999 V2000
    0.0000   -0.0000   -0.0000 S   0  0  0  0  0  0  0  0  0  0  0  0
   -0.0118    1.5065   -0.0000 C   0  0  0  0  0  0  0  0  0  0  0  0
   -1.3064   -0.7297   -0.0000 C   0  0  0  0  0  0  0  0  0  0  0  0
    1.1887    2.4010   -0.0000 N   0  0  0  0  0  0  0  0  0  0  0  0
   -1.2358    2.4010   -0.0000 N   0  0  0  0  0  0  0  0  0  0  0  0
   -1.3182   -2.2127   -0.0000 C   0  0  0  0  0  0  0  0  0  0  0  0
    0.7179    3.8369   -0.0000 N   0  0  0  0  0  0  0  0  0  0  0  0
   -2.6717    1.9538   -0.0000 C   0  0  0  0  0  0  0  0  0  0  0  0
   -0.7886    3.8369   -0.0000 C   0  0  0  0  0  0  0  0  0  0  0  0
   -0.1177   -3.0836   -0.0000 O   0  0  0  0  0  0  0  0  0  0  0  0
   -2.5422   -3.0836   -0.0000 N   0  0  0  0  0  0  0  0  0  0  0  0
   -2.9895    0.5061   -0.0000 C   0  0  0  0  0  0  0  0  0  0  0  0
   -3.7898    2.9659   -0.0000 C   0  0  0  0  0  0  0  0  0  0  0  0
   -1.6831    5.0609   -0.0000 C   0  0  0  0  0  0  0  0  0  0  0  0
   -0.5885   -4.4960   -0.0000 N   0  0  0  0  0  0  0  0  0  0  0  0
   -2.0950   -4.4960   -0.0000 C   0  0  0  0  0  0  0  0  0  0  0  0
   -4.4254    0.0588   -0.0000 C   0  0  0  0  0  0  0  0  0  0  0  0
   -5.2257    2.5187   -0.0000 C   0  0  0  0  0  0  0  0  0  0  0  0
   -1.0828    6.4380   -0.0000 C   0  0  0  0  0  0  0  0  0  0  0  0
   -3.1778    4.9197   -0.0000 C   0  0  0  0  0  0  0  0  0  0  0  0
   -2.9895   -5.6965   -0.0000 C   0  0  0  0  0  0  0  0  0  0  0  0
   -5.5435    1.0710   -0.0000 C   0  0  0  0  0  0  0  0  0  0  0  0
   -1.9773    7.6620   -0.0000 C   0  0  0  0  0  0  0  0  0  0  0  0
   -4.0723    6.1437   -0.0000 C   0  0  0  0  0  0  0  0  0  0  0  0
   -2.3892   -7.0500   -0.0000 C   0  0  0  0  0  0  0  0  0  0  0  0
   -4.4842   -5.5317   -0.0000 C   0  0  0  0  0  0  0  0  0  0  0  0
   -6.9794    0.6238   -0.0000 O   0  0  0  0  0  0  0  0  0  0  0  0
   -3.4720    7.5208   -0.0000 N   0  0  0  0  0  0  0  0  0  0  0  0
   -3.2837   -8.2505   -0.0000 C   0  0  0  0  0  0  0  0  0  0  0  0
   -5.3787   -6.7322   -0.0000 C   0  0  0  0  0  0  0  0  0  0  0  0
   -8.0975    1.6360   -0.0000 C   0  0  0  0  0  0  0  0  0  0  0  0
   -4.7785   -8.0857   -0.0000 C   0  0  0  0  0  0  0  0  0  0  0  0
   -5.6730   -9.2862   -0.0000 C   0  0  0  0  0  0  0  0  0  0  0  0
  1  2  1  0  0  0  0
  1  3  1  0  0  0  0
  2  4  2  0  0  0  0
  2  5  1  0  0  0  0
  3  6  1  0  0  0  0
  4  7  1  0  0  0  0
  5  8  1  0  0  0  0
  5  9  1  0  0  0  0
  6 10  1  0  0  0  0
  6 11  2  0  0  0  0
  8 12  2  0  0  0  0
  8 13  1  0  0  0  0
  9 14  1  0  0  0  0
 10 15  1  0  0  0  0
 11 16  1  0  0  0  0
 12 17  1  0  0  0  0
 13 18  2  0  0  0  0
 14 19  2  0  0  0  0
 14 20  1  0  0  0  0
 16 21  1  0  0  0  0
 17 22  2  0  0  0  0
 19 23  1  0  0  0  0
 20 24  2  0  0  0  0
 21 25  2  0  0  0  0
 21 26  1  0  0  0  0
 22 27  1  0  0  0  0
 23 28  2  0  0  0  0
 25 29  1  0  0  0  0
 26 30  2  0  0  0  0
 27 31  1  0  0  0  0
 29 32  2  0  0  0  0
 32 33  1  0  0  0  0
  7  9  2  0  0  0  0
 15 16  2  0  0  0  0
 18 22  1  0  0  0  0
 24 28  1  0  0  0  0
 30 32  1  0  0  0  0
M  END
>  <MolRegNo>
976603

>  <m>
=

>  <Value>
1700

>  <Unit>
nM

>  <Type>
IC50

>  <pValue>
5.77

>  <Ligand Efficiency>
0

>  <Binding Efficiency>
0

>  <Surface Efficiency>
0

>  <Assay Index>
647575

>  <Assay Category>


>  <Assay Organism>


>  <Target ID>
17045

>  <Target Name>
Cytochrome P450 3A4

>  <Target Organism>
Homo sapiens

>  <Target Description>
Target is a single protein chain

>  <Sequence Accession>
P08684

>  <Reference>
J Med Chem 55 (3), 1127-1136 (2012)

>  <Pubmed ID>
22260203

>  <DOI>
10.1021/jm2011222

$$$$
1208375
Actelion Java MolfileCreator 1.0

 31 34  0  0  0  0  0  0  0  0999 V2000
    0.0000   -0.0000   -0.0000 S   0  0  0  0  0  0  0  0  0  0  0  0
   -0.0118    1.5130   -0.0000 C   0  0  0  0  0  0  0  0  0  0  0  0
   -1.3120   -0.7447   -0.0000 C   0  0  0  0  0  0  0  0  0  0  0  0
   -1.2411    2.4113   -0.0000 N   0  0  0  0  0  0  0  0  0  0  0  0
    1.1938    2.4113   -0.0000 N   0  0  0  0  0  0  0  0  0  0  0  0
   -1.3238   -2.2340   -0.0000 C   0  0  0  0  0  0  0  0  0  0  0  0
   -0.7919    3.8533   -0.0000 N   0  0  0  0  0  0  0  0  0  0  0  0
    2.6122    1.9621   -0.0000 C   0  0  0  0  0  0  0  0  0  0  0  0
    0.7210    3.8533   -0.0000 C   0  0  0  0  0  0  0  0  0  0  0  0
   -0.1182   -3.1087   -0.0000 O   0  0  0  0  0  0  0  0  0  0  0  0
   -2.5531   -3.1087   -0.0000 N   0  0  0  0  0  0  0  0  0  0  0  0
    3.7115    2.9786   -0.0000 C   0  0  0  0  0  0  0  0  0  0  0  0
    2.9077    0.5083   -0.0000 C   0  0  0  0  0  0  0  0  0  0  0  0
    1.5957    5.0826   -0.0000 C   0  0  0  0  0  0  0  0  0  0  0  0
   -0.5910   -4.5271   -0.0000 N   0  0  0  0  0  0  0  0  0  0  0  0
   -2.1040   -4.5271   -0.0000 C   0  0  0  0  0  0  0  0  0  0  0  0
    5.1299    2.5295   -0.0000 C   0  0  0  0  0  0  0  0  0  0  0  0
    4.3261    0.0591   -0.0000 C   0  0  0  0  0  0  0  0  0  0  0  0
   -3.0023   -5.7327   -0.0000 C   0  0  0  0  0  0  0  0  0  0  0  0
    5.4254    1.0756   -0.0000 C   0  0  0  0  0  0  0  0  0  0  0  0
   -2.3995   -7.0920   -0.0000 C   0  0  0  0  0  0  0  0  0  0  0  0
   -4.5034   -5.5672   -0.0000 C   0  0  0  0  0  0  0  0  0  0  0  0
    6.8438    0.6265   -0.0000 O   0  0  0  0  0  0  0  0  0  0  0  0
   -3.2978   -8.2976   -0.0000 C   0  0  0  0  0  0  0  0  0  0  0  0
   -5.4017   -6.7729   -0.0000 C   0  0  0  0  0  0  0  0  0  0  0  0
    7.9430    1.6430   -0.0000 C   0  0  0  0  0  0  0  0  0  0  0  0
   -2.6950   -9.6569   -0.0000 O   0  0  0  0  0  0  0  0  0  0  0  0
   -4.7989   -8.1322   -0.0000 C   0  0  0  0  0  0  0  0  0  0  0  0
   -3.5933  -10.8626   -0.0000 C   0  0  0  0  0  0  0  0  0  0  0  0
   -5.6972   -9.3378   -0.0000 O   0  0  0  0  0  0  0  0  0  0  0  0
   -7.1984   -9.1723   -0.0000 C   0  0  0  0  0  0  0  0  0  0  0  0
  1  2  1  0  0  0  0
  1  3  1  0  0  0  0
  2  4  2  0  0  0  0
  2  5  1  0  0  0  0
  3  6  1  0  0  0  0
  4  7  1  0  0  0  0
  5  8  1  0  0  0  0
  5  9  1  0  0  0  0
  6 10  1  0  0  0  0
  6 11  2  0  0  0  0
  8 12  2  0  0  0  0
  8 13  1  0  0  0  0
  9 14  1  0  0  0  0
 10 15  1  0  0  0  0
 11 16  1  0  0  0  0
 12 17  1  0  0  0  0
 13 18  2  0  0  0  0
 16 19  1  0  0  0  0
 17 20  2  0  0  0  0
 19 21  2  0  0  0  0
 19 22  1  0  0  0  0
 20 23  1  0  0  0  0
 21 24  1  0  0  0  0
 22 25  2  0  0  0  0
 23 26  1  0  0  0  0
 24 27  1  0  0  0  0
 24 28  2  0  0  0  0
 27 29  1  0  0  0  0
 28 30  1  0  0  0  0
 30 31  1  0  0  0  0
  7  9  2  0  0  0  0
 15 16  2  0  0  0  0
 18 20  1  0  0  0  0
 25 28  1  0  0  0  0
M  END
>  <MolRegNo>
1208375

>  <m>
=

>  <Value>
5300

>  <Unit>
nM

>  <Type>
IC50

>  <pValue>
5.28

>  <Ligand Efficiency>
0

>  <Binding Efficiency>
0

>  <Surface Efficiency>
0

>  <Assay Index>
647575

>  <Assay Category>


>  <Assay Organism>


>  <Target ID>
17045

>  <Target Name>
Cytochrome P450 3A4

>  <Target Organism>
Homo sapiens

>  <Target Description>
Target is a single protein chain

>  <Sequence Accession>
P08684

>  <Reference>
J Med Chem 55 (3), 1127-1136 (2012)

>  <Pubmed ID>
22260203

>  <DOI>
10.1021/jm2011222

$$$$
1238810
Actelion Java MolfileCreator 1.0

 29 32  0  0  0  0  0  0  0  0999 V2000
    0.0000   -0.0000   -0.0000 S   0  0  0  0  0  0  0  0  0  0  0  0
   -0.0118    1.5140   -0.0000 C   0  0  0  0  0  0  0  0  0  0  0  0
   -1.3129   -0.7333   -0.0000 C   0  0  0  0  0  0  0  0  0  0  0  0
   -1.2420    2.4129   -0.0000 N   0  0  0  0  0  0  0  0  0  0  0  0
    1.1946    2.4129   -0.0000 N   0  0  0  0  0  0  0  0  0  0  0  0
   -1.3248   -2.2237   -0.0000 C   0  0  0  0  0  0  0  0  0  0  0  0
   -0.7925    3.8560   -0.0000 N   0  0  0  0  0  0  0  0  0  0  0  0
    2.6140    1.9635   -0.0000 C   0  0  0  0  0  0  0  0  0  0  0  0
    0.7215    3.8560   -0.0000 C   0  0  0  0  0  0  0  0  0  0  0  0
   -0.1183   -3.0990   -0.0000 O   0  0  0  0  0  0  0  0  0  0  0  0
   -2.5549   -3.0990   -0.0000 N   0  0  0  0  0  0  0  0  0  0  0  0
    3.7140    2.9807   -0.0000 C   0  0  0  0  0  0  0  0  0  0  0  0
    2.9097    0.5086   -0.0000 C   0  0  0  0  0  0  0  0  0  0  0  0
    1.5968    5.0861   -0.0000 C   0  0  0  0  0  0  0  0  0  0  0  0
   -0.5914   -4.5184   -0.0000 N   0  0  0  0  0  0  0  0  0  0  0  0
   -2.1054   -4.5184   -0.0000 C   0  0  0  0  0  0  0  0  0  0  0  0
    5.1334    2.5312   -0.0000 C   0  0  0  0  0  0  0  0  0  0  0  0
    4.3291    0.0591   -0.0000 C   0  0  0  0  0  0  0  0  0  0  0  0
   -3.0044   -5.7248   -0.0000 C   0  0  0  0  0  0  0  0  0  0  0  0
    5.4291    1.0764   -0.0000 C   0  0  0  0  0  0  0  0  0  0  0  0
   -2.4011   -7.0851   -0.0000 C   0  0  0  0  0  0  0  0  0  0  0  0
   -4.5065   -5.5592   -0.0000 C   0  0  0  0  0  0  0  0  0  0  0  0
    6.8485    0.6269   -0.0000 O   0  0  0  0  0  0  0  0  0  0  0  0
   -3.3001   -8.2915   -0.0000 C   0  0  0  0  0  0  0  0  0  0  0  0
   -5.4055   -6.7657   -0.0000 C   0  0  0  0  0  0  0  0  0  0  0  0
    7.1442   -0.8280   -0.0000 C   0  0  0  0  0  0  0  0  0  0  0  0
   -4.8022   -8.1259   -0.0000 C   0  0  0  0  0  0  0  0  0  0  0  0
   -5.7012   -9.3324   -0.0000 O   0  0  0  0  0  0  0  0  0  0  0  0
   -5.0979  -10.6927   -0.0000 C   0  0  0  0  0  0  0  0  0  0  0  0
  1  2  1  0  0  0  0
  1  3  1  0  0  0  0
  2  4  2  0  0  0  0
  2  5  1  0  0  0  0
  3  6  1  0  0  0  0
  4  7  1  0  0  0  0
  5  8  1  0  0  0  0
  5  9  1  0  0  0  0
  6 10  1  0  0  0  0
  6 11  2  0  0  0  0
  8 12  2  0  0  0  0
  8 13  1  0  0  0  0
  9 14  1  0  0  0  0
 10 15  1  0  0  0  0
 11 16  1  0  0  0  0
 12 17  1  0  0  0  0
 13 18  2  0  0  0  0
 16 19  1  0  0  0  0
 17 20  2  0  0  0  0
 19 21  2  0  0  0  0
 19 22  1  0  0  0  0
 20 23  1  0  0  0  0
 21 24  1  0  0  0  0
 22 25  2  0  0  0  0
 23 26  1  0  0  0  0
 24 27  2  0  0  0  0
 27 28  1  0  0  0  0
 28 29  1  0  0  0  0
  7  9  2  0  0  0  0
 15 16  2  0  0  0  0
 18 20  1  0  0  0  0
 25 27  1  0  0  0  0
M  END
>  <MolRegNo>
1238810

>  <m>
=

>  <Value>
5700

>  <Unit>
nM

>  <Type>
IC50

>  <pValue>
5.24

>  <Ligand Efficiency>
0

>  <Binding Efficiency>
0

>  <Surface Efficiency>
0

>  <Assay Index>
647575

>  <Assay Category>


>  <Assay Organism>


>  <Target ID>
17045

>  <Target Name>
Cytochrome P450 3A4

>  <Target Organism>
Homo sapiens

>  <Target Description>
Target is a single protein chain

>  <Sequence Accession>
P08684

>  <Reference>
J Med Chem 55 (3), 1127-1136 (2012)

>  <Pubmed ID>
22260203

>  <DOI>
10.1021/jm2011222

$$$$
1334834
Actelion Java MolfileCreator 1.0

 39 42  0  0  0  0  0  0  0  0999 V2000
    0.0000   -0.0000   -0.0000 Br  0  0  0  0  0  0  0  0  0  0  0  0
   -0.4484    1.4512   -0.0000 C   0  0  0  0  0  0  0  0  0  0  0  0
    0.4484    2.6547   -0.0000 C   0  0  0  0  0  0  0  0  0  0  0  0
   -1.8760    1.9586   -0.0000 C   0  0  0  0  0  0  0  0  0  0  0  0
   -0.4130    3.8936   -0.0000 O   0  0  0  0  0  0  0  0  0  0  0  0
    1.9350    2.6311   -0.0000 C   0  0  0  0  0  0  0  0  0  0  0  0
   -1.8524    3.4688   -0.0000 N   0  0  0  0  0  0  0  0  0  0  0  0
   -3.0795    1.0619   -0.0000 C   0  0  0  0  0  0  0  0  0  0  0  0
    2.6901    3.9172   -0.0000 C   0  0  0  0  0  0  0  0  0  0  0  0
    2.6429    1.3333   -0.0000 C   0  0  0  0  0  0  0  0  0  0  0  0
   -4.3773    1.8406   -0.0000 C   0  0  0  0  0  0  0  0  0  0  0  0
   -3.1149   -0.4248   -0.0000 C   0  0  0  0  0  0  0  0  0  0  0  0
    4.1649    3.8936   -0.0000 C   0  0  0  0  0  0  0  0  0  0  0  0
    1.9586    5.2386   -0.0000 C   0  0  0  0  0  0  0  0  0  0  0  0
    4.1295    1.3097   -0.0000 C   0  0  0  0  0  0  0  0  0  0  0  0
   -5.6870    2.6193   -0.0000 O   0  0  0  0  0  0  0  0  0  0  0  0
   -4.3655    3.3508   -0.0000 C   0  0  0  0  0  0  0  0  0  0  0  0
   -5.6870    1.1091   -0.0000 C   0  0  0  0  0  0  0  0  0  0  0  0
   -4.4245   -1.1327   -0.0000 N   0  0  0  0  0  0  0  0  0  0  0  0
    4.8847    2.5957   -0.0000 C   0  0  0  0  0  0  0  0  0  0  0  0
    2.7255    6.5365   -0.0000 C   0  0  0  0  0  0  0  0  0  0  0  0
   -3.0677    4.0941   -0.0000 C   0  0  0  0  0  0  0  0  0  0  0  0
   -5.6634    4.1177   -0.0000 C   0  0  0  0  0  0  0  0  0  0  0  0
   -5.7224   -0.3776   -0.0000 C   0  0  0  0  0  0  0  0  0  0  0  0
    4.2121    6.5129   -0.0000 N   0  0  0  0  0  0  0  0  0  0  0  0
   -3.0559    5.6044   -0.0000 C   0  0  0  0  0  0  0  0  0  0  0  0
   -5.6634    5.6280   -0.0000 C   0  0  0  0  0  0  0  0  0  0  0  0
    4.9790    7.8107   -0.0000 C   0  0  0  0  0  0  0  0  0  0  0  0
   -4.3537    6.3831   -0.0000 C   0  0  0  0  0  0  0  0  0  0  0  0
    4.2475    9.1322   -0.0000 O   0  0  0  0  0  0  0  0  0  0  0  0
    6.4657    7.7871   -0.0000 C   0  0  0  0  0  0  0  0  0  0  0  0
   -4.3537    7.8933   -0.0000 C   0  0  0  0  0  0  0  0  0  0  0  0
   -3.0559    8.6366   -0.0000 O   0  0  0  0  0  0  0  0  0  0  0  0
   -1.7816    7.8815   -0.0000 C   0  0  0  0  0  0  0  0  0  0  0  0
   -0.4837    8.6248   -0.0000 C   0  0  0  0  0  0  0  0  0  0  0  0
    0.7905    7.8697   -0.0000 C   0  0  0  0  0  0  0  0  0  0  0  0
   -0.4837   10.1351   -0.0000 C   0  0  0  0  0  0  0  0  0  0  0  0
    2.0884    8.6130   -0.0000 O   0  0  0  0  0  0  0  0  0  0  0  0
    2.0884   10.1233   -0.0000 C   0  0  0  0  0  0  0  0  0  0  0  0
  1  2  1  0  0  0  0
  2  3  2  0  0  0  0
  2  4  1  0  0  0  0
  3  5  1  0  0  0  0
  3  6  1  0  0  0  0
  4  7  2  0  0  0  0
  8  4  1  6  0  0  0
  6  9  2  0  0  0  0
  6 10  1  0  0  0  0
  8 11  1  0  0  0  0
  8 12  1  0  0  0  0
  9 13  1  0  0  0  0
  9 14  1  0  0  0  0
 10 15  2  0  0  0  0
 11 16  1  6  0  0  0
 11 17  1  0  0  0  0
 11 18  1  0  0  0  0
 12 19  1  0  0  0  0
 13 20  2  0  0  0  0
 14 21  1  0  0  0  0
 17 22  2  0  0  0  0
 17 23  1  0  0  0  0
 18 24  1  0  0  0  0
 21 25  1  0  0  0  0
 22 26  1  0  0  0  0
 23 27  2  0  0  0  0
 25 28  1  0  0  0  0
 26 29  2  0  0  0  0
 28 30  2  0  0  0  0
 28 31  1  0  0  0  0
 29 32  1  0  0  0  0
 32 33  1  0  0  0  0
 33 34  1  0  0  0  0
 34 35  1  0  0  0  0
 35 36  1  0  0  0  0
 35 37  1  6  0  0  0
 36 38  1  0  0  0  0
 38 39  1  0  0  0  0
  5  7  1  0  0  0  0
 15 20  1  0  0  0  0
 19 24  1  0  0  0  0
 27 29  1  0  0  0  0
M  END
>  <MolRegNo>
1334834

>  <m>
=

>  <Value>
29000

>  <Unit>
nM

>  <Type>
IC50

>  <pValue>
4.54

>  <Ligand Efficiency>
0

>  <Binding Efficiency>
0

>  <Surface Efficiency>
0

>  <Assay Index>
648518

>  <Assay Category>


>  <Assay Organism>


>  <Target ID>
17045

>  <Target Name>
Cytochrome P450 3A4

>  <Target Organism>
Homo sapiens

>  <Target Description>
Target is a single protein chain

>  <Sequence Accession>
P08684

>  <Reference>
Bioorg Med Chem Lett 22 (8), 2670-2674 (2012)

>  <Pubmed ID>
22450130

>  <DOI>
10.1016/j.bmcl.2012.03.014

$$$$
1334810
Actelion Java MolfileCreator 1.0

 27 30  0  0  0  0  0  0  0  0999 V2000
    0.0000   -0.0000   -0.0000 O   0  0  0  0  0  0  0  0  0  0  0  0
    0.0000   -1.4802   -0.0000 C   0  0  0  0  0  0  0  0  0  0  0  0
    1.2907   -2.2025   -0.0000 N   0  0  0  0  0  0  0  0  0  0  0  0
   -1.3025   -2.2262   -0.0000 C   0  0  0  0  0  0  0  0  0  0  0  0
   -2.6169   -1.4802   -0.0000 C   0  0  0  0  0  0  0  0  0  0  0  0
   -1.3025   -3.7182   -0.0000 C   0  0  0  0  0  0  0  0  0  0  0  0
   -2.6406    0.0237   -0.0000 N   0  0  0  0  0  0  0  0  0  0  0  0
   -3.9195   -2.2143   -0.0000 C   0  0  0  0  0  0  0  0  0  0  0  0
   -2.6051   -4.4523   -0.0000 N   0  0  0  0  0  0  0  0  0  0  0  0
   -3.9550    0.7815   -0.0000 C   0  0  0  0  0  0  0  0  0  0  0  0
   -3.9313   -3.7063   -0.0000 C   0  0  0  0  0  0  0  0  0  0  0  0
   -5.2220   -1.4565   -0.0000 C   0  0  0  0  0  0  0  0  0  0  0  0
   -3.9668    2.2854   -0.0000 C   0  0  0  0  0  0  0  0  0  0  0  0
   -5.2457    0.0355   -0.0000 C   0  0  0  0  0  0  0  0  0  0  0  0
   -5.2338   -4.4523   -0.0000 C   0  0  0  0  0  0  0  0  0  0  0  0
   -6.5245   -2.1906   -0.0000 C   0  0  0  0  0  0  0  0  0  0  0  0
   -5.2812    3.0432   -0.0000 C   0  0  0  0  0  0  0  0  0  0  0  0
   -6.5601    0.7815   -0.0000 C   0  0  0  0  0  0  0  0  0  0  0  0
   -6.5364   -3.6945   -0.0000 C   0  0  0  0  0  0  0  0  0  0  0  0
   -6.5838    2.2972   -0.0000 C   0  0  0  0  0  0  0  0  0  0  0  0
   -7.8389   -4.4286   -0.0000 C   0  0  0  0  0  0  0  0  0  0  0  0
   -9.2599   -3.9313   -0.0000 C   0  0  0  0  0  0  0  0  0  0  0  0
   -7.8863   -5.9088   -0.0000 C   0  0  0  0  0  0  0  0  0  0  0  0
  -10.1717   -5.1154   -0.0000 O   0  0  0  0  0  0  0  0  0  0  0  0
   -9.7099   -2.4867   -0.0000 C   0  0  0  0  0  0  0  0  0  0  0  0
   -9.3309   -6.3351   -0.0000 N   0  0  0  0  0  0  0  0  0  0  0  0
   -6.7022   -6.7969   -0.0000 C   0  0  0  0  0  0  0  0  0  0  0  0
  1  2  2  0  0  0  0
  2  3  1  0  0  0  0
  2  4  1  0  0  0  0
  4  5  2  0  0  0  0
  4  6  1  0  0  0  0
  5  7  1  0  0  0  0
  5  8  1  0  0  0  0
  6  9  2  0  0  0  0
  7 10  1  0  0  0  0
  8 11  1  0  0  0  0
  8 12  2  0  0  0  0
 10 13  2  0  0  0  0
 10 14  1  0  0  0  0
 11 15  2  0  0  0  0
 12 16  1  0  0  0  0
 13 17  1  0  0  0  0
 14 18  2  0  0  0  0
 15 19  1  0  0  0  0
 17 20  2  0  0  0  0
 19 21  1  0  0  0  0
 21 22  2  0  0  0  0
 21 23  1  0  0  0  0
 22 24  1  0  0  0  0
 22 25  1  0  0  0  0
 23 26  2  0  0  0  0
 23 27  1  0  0  0  0
  9 11  1  0  0  0  0
 16 19  2  0  0  0  0
 18 20  1  0  0  0  0
 24 26  1  0  0  0  0
M  END
>  <MolRegNo>
1334810

>  <m>
=

>  <Value>
17000

>  <Unit>
nM

>  <Type>
IC50

>  <pValue>
4.77

>  <Ligand Efficiency>
0

>  <Binding Efficiency>
0

>  <Surface Efficiency>
0

>  <Assay Index>
647632

>  <Assay Category>


>  <Assay Organism>


>  <Target ID>
17045

>  <Target Name>
Cytochrome P450 3A4

>  <Target Organism>
Homo sapiens

>  <Target Description>
Target is a single protein chain

>  <Sequence Accession>
P08684

>  <Reference>
Bioorg Med Chem Lett 22 (8), 2963-2967 (2012)

>  <Pubmed ID>
22386529

>  <DOI>
10.1016/j.bmcl.2012.01.125

$$$$
1334990
Actelion Java MolfileCreator 1.0

 31 34  0  0  0  0  0  0  0  0999 V2000
    0.0000   -0.0000   -0.0000 O   0  0  0  0  0  0  0  0  0  0  0  0
    0.0000   -1.4814   -0.0000 C   0  0  0  0  0  0  0  0  0  0  0  0
    1.2918   -2.2043   -0.0000 N   0  0  0  0  0  0  0  0  0  0  0  0
   -1.3036   -2.2280   -0.0000 C   0  0  0  0  0  0  0  0  0  0  0  0
   -2.6191   -1.4814   -0.0000 C   0  0  0  0  0  0  0  0  0  0  0  0
   -1.3036   -3.7213   -0.0000 C   0  0  0  0  0  0  0  0  0  0  0  0
   -2.6428    0.0237   -0.0000 N   0  0  0  0  0  0  0  0  0  0  0  0
   -3.9227   -2.2162   -0.0000 C   0  0  0  0  0  0  0  0  0  0  0  0
   -2.6072   -4.4560   -0.0000 N   0  0  0  0  0  0  0  0  0  0  0  0
   -3.9583    0.7822   -0.0000 C   0  0  0  0  0  0  0  0  0  0  0  0
   -3.9346   -3.7094   -0.0000 C   0  0  0  0  0  0  0  0  0  0  0  0
   -5.2263   -1.4577   -0.0000 C   0  0  0  0  0  0  0  0  0  0  0  0
   -3.9701    2.2873   -0.0000 C   0  0  0  0  0  0  0  0  0  0  0  0
   -5.2500    0.0356   -0.0000 C   0  0  0  0  0  0  0  0  0  0  0  0
   -5.2382   -4.4560   -0.0000 C   0  0  0  0  0  0  0  0  0  0  0  0
   -6.5300   -2.1925   -0.0000 C   0  0  0  0  0  0  0  0  0  0  0  0
   -5.2856    3.0457   -0.0000 C   0  0  0  0  0  0  0  0  0  0  0  0
   -2.6902    3.0457   -0.0000 C   0  0  0  0  0  0  0  0  0  0  0  0
   -6.5655    0.7822   -0.0000 C   0  0  0  0  0  0  0  0  0  0  0  0
   -6.5418   -3.6976   -0.0000 C   0  0  0  0  0  0  0  0  0  0  0  0
   -6.5892    2.2991   -0.0000 C   0  0  0  0  0  0  0  0  0  0  0  0
   -1.4103    2.3110   -0.0000 C   0  0  0  0  0  0  0  0  0  0  0  0
   -2.7021    4.5508   -0.0000 C   0  0  0  0  0  0  0  0  0  0  0  0
   -1.4103    3.8161   -0.0000 C   0  0  0  0  0  0  0  0  0  0  0  0
   -7.8454   -4.4323   -0.0000 C   0  0  0  0  0  0  0  0  0  0  0  0
   -9.2676   -3.9346   -0.0000 C   0  0  0  0  0  0  0  0  0  0  0  0
   -7.8929   -5.9137   -0.0000 C   0  0  0  0  0  0  0  0  0  0  0  0
  -10.1801   -5.1197   -0.0000 O   0  0  0  0  0  0  0  0  0  0  0  0
   -9.7179   -2.4887   -0.0000 C   0  0  0  0  0  0  0  0  0  0  0  0
   -9.3387   -6.3404   -0.0000 N   0  0  0  0  0  0  0  0  0  0  0  0
   -6.7077   -6.8025   -0.0000 C   0  0  0  0  0  0  0  0  0  0  0  0
  1  2  2  0  0  0  0
  2  3  1  0  0  0  0
  2  4  1  0  0  0  0
  4  5  2  0  0  0  0
  4  6  1  0  0  0  0
  5  7  1  0  0  0  0
  5  8  1  0  0  0  0
  6  9  2  0  0  0  0
  7 10  1  0  0  0  0
  8 11  1  0  0  0  0
  8 12  2  0  0  0  0
 10 13  2  0  0  0  0
 10 14  1  0  0  0  0
 11 15  2  0  0  0  0
 12 16  1  0  0  0  0
 13 17  1  0  0  0  0
 13 18  1  0  0  0  0
 14 19  2  0  0  0  0
 15 20  1  0  0  0  0
 17 21  2  0  0  0  0
 18 22  1  0  0  0  0
 18 23  1  0  0  0  0
 18 24  1  0  0  0  0
 20 25  1  0  0  0  0
 25 26  2  0  0  0  0
 25 27  1  0  0  0  0
 26 28  1  0  0  0  0
 26 29  1  0  0  0  0
 27 30  2  0  0  0  0
 27 31  1  0  0  0  0
  9 11  1  0  0  0  0
 16 20  2  0  0  0  0
 19 21  1  0  0  0  0
 28 30  1  0  0  0  0
M  END
>  <MolRegNo>
1334990

>  <m>
=

>  <Value>
2000

>  <Unit>
nM

>  <Type>
IC50

>  <pValue>
5.7

>  <Ligand Efficiency>
0

>  <Binding Efficiency>
0

>  <Surface Efficiency>
0

>  <Assay Index>
647632

>  <Assay Category>


>  <Assay Organism>


>  <Target ID>
17045

>  <Target Name>
Cytochrome P450 3A4

>  <Target Organism>
Homo sapiens

>  <Target Description>
Target is a single protein chain

>  <Sequence Accession>
P08684

>  <Reference>
Bioorg Med Chem Lett 22 (8), 2963-2967 (2012)

>  <Pubmed ID>
22386529

>  <DOI>
10.1016/j.bmcl.2012.01.125

$$$$
1334991
Actelion Java MolfileCreator 1.0

 31 34  0  0  0  0  0  0  0  0999 V2000
    0.0000   -0.0000   -0.0000 O   0  0  0  0  0  0  0  0  0  0  0  0
    0.0000   -1.4814   -0.0000 C   0  0  0  0  0  0  0  0  0  0  0  0
    1.2918   -2.2043   -0.0000 O   0  0  0  0  0  0  0  0  0  0  0  0
   -1.3036   -2.2280   -0.0000 C   0  0  0  0  0  0  0  0  0  0  0  0
   -2.6191   -1.4814   -0.0000 C   0  0  0  0  0  0  0  0  0  0  0  0
   -1.3036   -3.7213   -0.0000 C   0  0  0  0  0  0  0  0  0  0  0  0
   -2.6428    0.0237   -0.0000 N   0  0  0  0  0  0  0  0  0  0  0  0
   -3.9227   -2.2162   -0.0000 C   0  0  0  0  0  0  0  0  0  0  0  0
   -2.6072   -4.4560   -0.0000 N   0  0  0  0  0  0  0  0  0  0  0  0
   -3.9583    0.7822   -0.0000 C   0  0  0  0  0  0  0  0  0  0  0  0
   -3.9346   -3.7094   -0.0000 C   0  0  0  0  0  0  0  0  0  0  0  0
   -5.2263   -1.4577   -0.0000 C   0  0  0  0  0  0  0  0  0  0  0  0
   -3.9701    2.2873   -0.0000 C   0  0  0  0  0  0  0  0  0  0  0  0
   -5.2500    0.0356   -0.0000 C   0  0  0  0  0  0  0  0  0  0  0  0
   -5.2382   -4.4560   -0.0000 C   0  0  0  0  0  0  0  0  0  0  0  0
   -6.5300   -2.1925   -0.0000 C   0  0  0  0  0  0  0  0  0  0  0  0
   -5.2856    3.0457   -0.0000 C   0  0  0  0  0  0  0  0  0  0  0  0
   -2.6902    3.0457   -0.0000 C   0  0  0  0  0  0  0  0  0  0  0  0
   -6.5655    0.7822   -0.0000 C   0  0  0  0  0  0  0  0  0  0  0  0
   -6.5418   -3.6976   -0.0000 C   0  0  0  0  0  0  0  0  0  0  0  0
   -6.5892    2.2991   -0.0000 C   0  0  0  0  0  0  0  0  0  0  0  0
   -1.4103    2.3110   -0.0000 C   0  0  0  0  0  0  0  0  0  0  0  0
   -2.7021    4.5508   -0.0000 C   0  0  0  0  0  0  0  0  0  0  0  0
   -1.4103    3.8161   -0.0000 C   0  0  0  0  0  0  0  0  0  0  0  0
   -7.8454   -4.4323   -0.0000 C   0  0  0  0  0  0  0  0  0  0  0  0
   -9.2676   -3.9346   -0.0000 C   0  0  0  0  0  0  0  0  0  0  0  0
   -7.8929   -5.9137   -0.0000 C   0  0  0  0  0  0  0  0  0  0  0  0
  -10.1801   -5.1197   -0.0000 O   0  0  0  0  0  0  0  0  0  0  0  0
   -9.7179   -2.4887   -0.0000 C   0  0  0  0  0  0  0  0  0  0  0  0
   -9.3387   -6.3404   -0.0000 N   0  0  0  0  0  0  0  0  0  0  0  0
   -6.7077   -6.8025   -0.0000 C   0  0  0  0  0  0  0  0  0  0  0  0
  1  2  2  0  0  0  0
  2  3  1  0  0  0  0
  2  4  1  0  0  0  0
  4  5  2  0  0  0  0
  4  6  1  0  0  0  0
  5  7  1  0  0  0  0
  5  8  1  0  0  0  0
  6  9  2  0  0  0  0
  7 10  1  0  0  0  0
  8 11  1  0  0  0  0
  8 12  2  0  0  0  0
 10 13  2  0  0  0  0
 10 14  1  0  0  0  0
 11 15  2  0  0  0  0
 12 16  1  0  0  0  0
 13 17  1  0  0  0  0
 13 18  1  0  0  0  0
 14 19  2  0  0  0  0
 15 20  1  0  0  0  0
 17 21  2  0  0  0  0
 18 22  1  0  0  0  0
 18 23  1  0  0  0  0
 18 24  1  0  0  0  0
 20 25  1  0  0  0  0
 25 26  2  0  0  0  0
 25 27  1  0  0  0  0
 26 28  1  0  0  0  0
 26 29  1  0  0  0  0
 27 30  2  0  0  0  0
 27 31  1  0  0  0  0
  9 11  1  0  0  0  0
 16 20  2  0  0  0  0
 19 21  1  0  0  0  0
 28 30  1  0  0  0  0
M  END
>  <MolRegNo>
1334991

>  <m>
=

>  <Value>
13000

>  <Unit>
nM

>  <Type>
IC50

>  <pValue>
4.89

>  <Ligand Efficiency>
0

>  <Binding Efficiency>
0

>  <Surface Efficiency>
0

>  <Assay Index>
647632

>  <Assay Category>


>  <Assay Organism>


>  <Target ID>
17045

>  <Target Name>
Cytochrome P450 3A4

>  <Target Organism>
Homo sapiens

>  <Target Description>
Target is a single protein chain

>  <Sequence Accession>
P08684

>  <Reference>
Bioorg Med Chem Lett 22 (8), 2963-2967 (2012)

>  <Pubmed ID>
22386529

>  <DOI>
10.1016/j.bmcl.2012.01.125

$$$$
1334995
Actelion Java MolfileCreator 1.0

 30 33  0  0  0  0  0  0  0  0999 V2000
    0.0000   -0.0000   -0.0000 F   0  0  0  0  0  0  0  0  0  0  0  0
   -1.3061   -0.7362   -0.0000 C   0  0  0  0  0  0  0  0  0  0  0  0
   -1.3180   -2.2204   -0.0000 C   0  0  0  0  0  0  0  0  0  0  0  0
   -2.6241    0.0237   -0.0000 C   0  0  0  0  0  0  0  0  0  0  0  0
   -0.0237   -2.9565   -0.0000 N   0  0  0  0  0  0  0  0  0  0  0  0
   -2.6122   -2.9684   -0.0000 C   0  0  0  0  0  0  0  0  0  0  0  0
   -3.9302   -0.7243   -0.0000 C   0  0  0  0  0  0  0  0  0  0  0  0
   -0.0237   -4.4408   -0.0000 C   0  0  0  0  0  0  0  0  0  0  0  0
   -3.9302   -2.2204   -0.0000 C   0  0  0  0  0  0  0  0  0  0  0  0
   -1.3299   -5.1769   -0.0000 C   0  0  0  0  0  0  0  0  0  0  0  0
    1.2705   -5.1651   -0.0000 C   0  0  0  0  0  0  0  0  0  0  0  0
   -1.3417   -6.6730   -0.0000 C   0  0  0  0  0  0  0  0  0  0  0  0
   -2.6360   -4.4170   -0.0000 C   0  0  0  0  0  0  0  0  0  0  0  0
    2.5528   -4.3933   -0.0000 C   0  0  0  0  0  0  0  0  0  0  0  0
    1.2705   -6.6611   -0.0000 C   0  0  0  0  0  0  0  0  0  0  0  0
   -0.0594   -7.4092   -0.0000 N   0  0  0  0  0  0  0  0  0  0  0  0
   -2.6478   -7.4211   -0.0000 C   0  0  0  0  0  0  0  0  0  0  0  0
   -3.9421   -5.1532   -0.0000 C   0  0  0  0  0  0  0  0  0  0  0  0
    2.5291   -2.8853   -0.0000 O   0  0  0  0  0  0  0  0  0  0  0  0
    3.8471   -5.1176   -0.0000 N   0  0  0  0  0  0  0  0  0  0  0  0
   -3.9539   -6.6611   -0.0000 C   0  0  0  0  0  0  0  0  0  0  0  0
   -5.2482   -4.3933   -0.0000 O   0  0  0  0  0  0  0  0  0  0  0  0
   -5.2600   -7.3973   -0.0000 C   0  0  0  0  0  0  0  0  0  0  0  0
   -5.2600   -2.8853   -0.0000 C   0  0  0  0  0  0  0  0  0  0  0  0
   -6.6849   -6.8986   -0.0000 C   0  0  0  0  0  0  0  0  0  0  0  0
   -5.3075   -8.8815   -0.0000 C   0  0  0  0  0  0  0  0  0  0  0  0
   -7.5992   -8.0860   -0.0000 O   0  0  0  0  0  0  0  0  0  0  0  0
   -7.1361   -5.4500   -0.0000 C   0  0  0  0  0  0  0  0  0  0  0  0
   -6.7561   -9.3090   -0.0000 N   0  0  0  0  0  0  0  0  0  0  0  0
   -4.1202   -9.7720   -0.0000 C   0  0  0  0  0  0  0  0  0  0  0  0
  1  2  1  0  0  0  0
  2  3  2  0  0  0  0
  2  4  1  0  0  0  0
  3  5  1  0  0  0  0
  3  6  1  0  0  0  0
  4  7  2  0  0  0  0
  5  8  1  0  0  0  0
  6  9  2  0  0  0  0
  8 10  1  0  0  0  0
  8 11  2  0  0  0  0
 10 12  1  0  0  0  0
 10 13  2  0  0  0  0
 11 14  1  0  0  0  0
 11 15  1  0  0  0  0
 12 16  1  0  0  0  0
 12 17  2  0  0  0  0
 13 18  1  0  0  0  0
 14 19  2  0  0  0  0
 14 20  1  0  0  0  0
 17 21  1  0  0  0  0
 18 22  1  0  0  0  0
 21 23  1  0  0  0  0
 22 24  1  0  0  0  0
 23 25  2  0  0  0  0
 23 26  1  0  0  0  0
 25 27  1  0  0  0  0
 25 28  1  0  0  0  0
 26 29  2  0  0  0  0
 26 30  1  0  0  0  0
  7  9  1  0  0  0  0
 15 16  2  0  0  0  0
 18 21  2  0  0  0  0
 27 29  1  0  0  0  0
M  END
>  <MolRegNo>
1334995

>  <m>
=

>  <Value>
4700

>  <Unit>
nM

>  <Type>
IC50

>  <pValue>
5.33

>  <Ligand Efficiency>
0

>  <Binding Efficiency>
0

>  <Surface Efficiency>
0

>  <Assay Index>
647632

>  <Assay Category>


>  <Assay Organism>


>  <Target ID>
17045

>  <Target Name>
Cytochrome P450 3A4

>  <Target Organism>
Homo sapiens

>  <Target Description>
Target is a single protein chain

>  <Sequence Accession>
P08684

>  <Reference>
Bioorg Med Chem Lett 22 (8), 2963-2967 (2012)

>  <Pubmed ID>
22386529

>  <DOI>
10.1016/j.bmcl.2012.01.125

$$$$
1334996
Actelion Java MolfileCreator 1.0

 33 36  0  0  0  0  0  0  0  0999 V2000
    0.0000   -0.0000   -0.0000 O   0  0  0  0  0  0  0  0  0  0  0  0
    0.0000   -1.4810   -0.0000 C   0  0  0  0  0  0  0  0  0  0  0  0
    1.2915   -2.2038   -0.0000 N   0  0  0  0  0  0  0  0  0  0  0  0
   -1.3033   -2.2275   -0.0000 C   0  0  0  0  0  0  0  0  0  0  0  0
   -2.6185   -1.4810   -0.0000 C   0  0  0  0  0  0  0  0  0  0  0  0
   -1.3033   -3.7203   -0.0000 C   0  0  0  0  0  0  0  0  0  0  0  0
   -2.6421    0.0237   -0.0000 N   0  0  0  0  0  0  0  0  0  0  0  0
   -3.9218   -2.2156   -0.0000 C   0  0  0  0  0  0  0  0  0  0  0  0
   -2.6066   -4.4549   -0.0000 N   0  0  0  0  0  0  0  0  0  0  0  0
   -3.9573    0.7820   -0.0000 C   0  0  0  0  0  0  0  0  0  0  0  0
   -3.9336   -3.7085   -0.0000 C   0  0  0  0  0  0  0  0  0  0  0  0
   -5.2251   -1.4573   -0.0000 C   0  0  0  0  0  0  0  0  0  0  0  0
   -3.9691    2.2867   -0.0000 C   0  0  0  0  0  0  0  0  0  0  0  0
   -5.2488    0.0355   -0.0000 C   0  0  0  0  0  0  0  0  0  0  0  0
   -5.2369   -4.4549   -0.0000 C   0  0  0  0  0  0  0  0  0  0  0  0
   -6.5284   -2.1919   -0.0000 C   0  0  0  0  0  0  0  0  0  0  0  0
   -5.2843    3.0450   -0.0000 C   0  0  0  0  0  0  0  0  0  0  0  0
   -2.6895    3.0450   -0.0000 C   0  0  0  0  0  0  0  0  0  0  0  0
   -6.5639    0.7820   -0.0000 C   0  0  0  0  0  0  0  0  0  0  0  0
   -6.5402   -3.6966   -0.0000 C   0  0  0  0  0  0  0  0  0  0  0  0
   -7.8317   -1.4336   -0.0000 O   0  0  0  0  0  0  0  0  0  0  0  0
   -6.5876    2.2986   -0.0000 C   0  0  0  0  0  0  0  0  0  0  0  0
   -1.4099    2.3104   -0.0000 C   0  0  0  0  0  0  0  0  0  0  0  0
   -2.7014    4.5497   -0.0000 C   0  0  0  0  0  0  0  0  0  0  0  0
   -1.4099    3.8151   -0.0000 C   0  0  0  0  0  0  0  0  0  0  0  0
   -7.8435   -4.4312   -0.0000 C   0  0  0  0  0  0  0  0  0  0  0  0
   -7.8435    0.0711   -0.0000 C   0  0  0  0  0  0  0  0  0  0  0  0
   -9.2653   -3.9336   -0.0000 C   0  0  0  0  0  0  0  0  0  0  0  0
   -7.8909   -5.9123   -0.0000 C   0  0  0  0  0  0  0  0  0  0  0  0
  -10.1776   -5.1184   -0.0000 O   0  0  0  0  0  0  0  0  0  0  0  0
   -9.7155   -2.4881   -0.0000 C   0  0  0  0  0  0  0  0  0  0  0  0
   -9.3364   -6.3388   -0.0000 N   0  0  0  0  0  0  0  0  0  0  0  0
   -6.7061   -6.8009   -0.0000 C   0  0  0  0  0  0  0  0  0  0  0  0
  1  2  2  0  0  0  0
  2  3  1  0  0  0  0
  2  4  1  0  0  0  0
  4  5  2  0  0  0  0
  4  6  1  0  0  0  0
  5  7  1  0  0  0  0
  5  8  1  0  0  0  0
  6  9  2  0  0  0  0
  7 10  1  0  0  0  0
  8 11  1  0  0  0  0
  8 12  2  0  0  0  0
 10 13  2  0  0  0  0
 10 14  1  0  0  0  0
 11 15  2  0  0  0  0
 12 16  1  0  0  0  0
 13 17  1  0  0  0  0
 13 18  1  0  0  0  0
 14 19  2  0  0  0  0
 15 20  1  0  0  0  0
 16 21  1  0  0  0  0
 17 22  2  0  0  0  0
 18 23  1  0  0  0  0
 18 24  1  0  0  0  0
 18 25  1  0  0  0  0
 20 26  1  0  0  0  0
 21 27  1  0  0  0  0
 26 28  2  0  0  0  0
 26 29  1  0  0  0  0
 28 30  1  0  0  0  0
 28 31  1  0  0  0  0
 29 32  2  0  0  0  0
 29 33  1  0  0  0  0
  9 11  1  0  0  0  0
 16 20  2  0  0  0  0
 19 22  1  0  0  0  0
 30 32  1  0  0  0  0
M  END
>  <MolRegNo>
1334996

>  <m>
=

>  <Value>
1900

>  <Unit>
nM

>  <Type>
IC50

>  <pValue>
5.72

>  <Ligand Efficiency>
0

>  <Binding Efficiency>
0

>  <Surface Efficiency>
0

>  <Assay Index>
647632

>  <Assay Category>


>  <Assay Organism>


>  <Target ID>
17045

>  <Target Name>
Cytochrome P450 3A4

>  <Target Organism>
Homo sapiens

>  <Target Description>
Target is a single protein chain

>  <Sequence Accession>
P08684

>  <Reference>
Bioorg Med Chem Lett 22 (8), 2963-2967 (2012)

>  <Pubmed ID>
22386529

>  <DOI>
10.1016/j.bmcl.2012.01.125

$$$$
1334997
Actelion Java MolfileCreator 1.0

 37 41  0  0  0  0  0  0  0  0999 V2000
    0.0000   -0.0000   -0.0000 O   0  0  0  0  0  0  0  0  0  0  0  0
    0.0000   -1.4821   -0.0000 C   0  0  0  0  0  0  0  0  0  0  0  0
    1.2924   -2.2053   -0.0000 N   0  0  0  0  0  0  0  0  0  0  0  0
   -1.3042   -2.2290   -0.0000 C   0  0  0  0  0  0  0  0  0  0  0  0
   -2.6203   -1.4821   -0.0000 C   0  0  0  0  0  0  0  0  0  0  0  0
   -1.3042   -3.7230   -0.0000 C   0  0  0  0  0  0  0  0  0  0  0  0
   -2.6440    0.0237   -0.0000 N   0  0  0  0  0  0  0  0  0  0  0  0
   -3.9245   -2.2172   -0.0000 C   0  0  0  0  0  0  0  0  0  0  0  0
   -2.6084   -4.4581   -0.0000 N   0  0  0  0  0  0  0  0  0  0  0  0
   -3.9601    0.7825   -0.0000 C   0  0  0  0  0  0  0  0  0  0  0  0
   -3.9364   -3.7111   -0.0000 C   0  0  0  0  0  0  0  0  0  0  0  0
   -5.2287   -1.4584   -0.0000 C   0  0  0  0  0  0  0  0  0  0  0  0
   -3.9719    2.2883   -0.0000 C   0  0  0  0  0  0  0  0  0  0  0  0
   -5.2524    0.0356   -0.0000 C   0  0  0  0  0  0  0  0  0  0  0  0
   -5.2406   -4.4581   -0.0000 C   0  0  0  0  0  0  0  0  0  0  0  0
   -6.5329   -2.1935   -0.0000 C   0  0  0  0  0  0  0  0  0  0  0  0
   -5.2880    3.0471   -0.0000 C   0  0  0  0  0  0  0  0  0  0  0  0
   -2.6914    3.0471   -0.0000 C   0  0  0  0  0  0  0  0  0  0  0  0
   -6.5685    0.7825   -0.0000 C   0  0  0  0  0  0  0  0  0  0  0  0
   -6.5448   -3.6992   -0.0000 C   0  0  0  0  0  0  0  0  0  0  0  0
   -7.8372   -1.4346   -0.0000 O   0  0  0  0  0  0  0  0  0  0  0  0
   -6.5922    2.3002   -0.0000 C   0  0  0  0  0  0  0  0  0  0  0  0
   -1.4109    2.3120   -0.0000 C   0  0  0  0  0  0  0  0  0  0  0  0
   -7.8490   -4.4343   -0.0000 C   0  0  0  0  0  0  0  0  0  0  0  0
   -7.8490    0.0711   -0.0000 C   0  0  0  0  0  0  0  0  0  0  0  0
   -0.1304    3.0708   -0.0000 N   0  0  0  0  0  0  0  0  0  0  0  0
   -9.2718   -3.9364   -0.0000 C   0  0  0  0  0  0  0  0  0  0  0  0
   -7.8964   -5.9164   -0.0000 C   0  0  0  0  0  0  0  0  0  0  0  0
    1.1619    2.3239   -0.0000 C   0  0  0  0  0  0  0  0  0  0  0  0
   -0.1423    4.5766   -0.0000 C   0  0  0  0  0  0  0  0  0  0  0  0
  -10.1848   -5.1220   -0.0000 O   0  0  0  0  0  0  0  0  0  0  0  0
   -9.7224   -2.4899   -0.0000 C   0  0  0  0  0  0  0  0  0  0  0  0
   -9.3429   -6.3432   -0.0000 N   0  0  0  0  0  0  0  0  0  0  0  0
   -6.7108   -6.8056   -0.0000 C   0  0  0  0  0  0  0  0  0  0  0  0
    2.4424    3.0827   -0.0000 C   0  0  0  0  0  0  0  0  0  0  0  0
    1.1501    5.3354   -0.0000 C   0  0  0  0  0  0  0  0  0  0  0  0
    2.4306    4.5885   -0.0000 O   0  0  0  0  0  0  0  0  0  0  0  0
  1  2  2  0  0  0  0
  2  3  1  0  0  0  0
  2  4  1  0  0  0  0
  4  5  2  0  0  0  0
  4  6  1  0  0  0  0
  5  7  1  0  0  0  0
  5  8  1  0  0  0  0
  6  9  2  0  0  0  0
  7 10  1  0  0  0  0
  8 11  1  0  0  0  0
  8 12  2  0  0  0  0
 10 13  2  0  0  0  0
 10 14  1  0  0  0  0
 11 15  2  0  0  0  0
 12 16  1  0  0  0  0
 13 17  1  0  0  0  0
 13 18  1  0  0  0  0
 14 19  2  0  0  0  0
 15 20  1  0  0  0  0
 16 21  1  0  0  0  0
 17 22  2  0  0  0  0
 18 23  1  0  0  0  0
 20 24  1  0  0  0  0
 21 25  1  0  0  0  0
 23 26  1  0  0  0  0
 24 27  2  0  0  0  0
 24 28  1  0  0  0  0
 26 29  1  0  0  0  0
 26 30  1  0  0  0  0
 27 31  1  0  0  0  0
 27 32  1  0  0  0  0
 28 33  2  0  0  0  0
 28 34  1  0  0  0  0
 29 35  1  0  0  0  0
 30 36  1  0  0  0  0
 35 37  1  0  0  0  0
  9 11  1  0  0  0  0
 16 20  2  0  0  0  0
 19 22  1  0  0  0  0
 31 33  1  0  0  0  0
 36 37  1  0  0  0  0
M  END
>  <MolRegNo>
1334997

>  <m>
=

>  <Value>
1900

>  <Unit>
nM

>  <Type>
IC50

>  <pValue>
5.72

>  <Ligand Efficiency>
0

>  <Binding Efficiency>
0

>  <Surface Efficiency>
0

>  <Assay Index>
647632

>  <Assay Category>


>  <Assay Organism>


>  <Target ID>
17045

>  <Target Name>
Cytochrome P450 3A4

>  <Target Organism>
Homo sapiens

>  <Target Description>
Target is a single protein chain

>  <Sequence Accession>
P08684

>  <Reference>
Bioorg Med Chem Lett 22 (8), 2963-2967 (2012)

>  <Pubmed ID>
22386529

>  <DOI>
10.1016/j.bmcl.2012.01.125

$$$$
1334998
Actelion Java MolfileCreator 1.0

 37 41  0  0  0  0  0  0  0  0999 V2000
    0.0000   -0.0000   -0.0000 O   0  0  0  0  0  0  0  0  0  0  0  0
    0.0000   -1.4805   -0.0000 C   0  0  0  0  0  0  0  0  0  0  0  0
    1.2910   -2.2029   -0.0000 N   0  0  0  0  0  0  0  0  0  0  0  0
   -1.3028   -2.2266   -0.0000 C   0  0  0  0  0  0  0  0  0  0  0  0
   -2.6175   -1.4805   -0.0000 C   0  0  0  0  0  0  0  0  0  0  0  0
   -1.3028   -3.7190   -0.0000 C   0  0  0  0  0  0  0  0  0  0  0  0
   -2.6412    0.0237   -0.0000 N   0  0  0  0  0  0  0  0  0  0  0  0
   -3.9203   -2.2148   -0.0000 C   0  0  0  0  0  0  0  0  0  0  0  0
   -2.6056   -4.4533   -0.0000 N   0  0  0  0  0  0  0  0  0  0  0  0
   -3.9558    0.7817   -0.0000 C   0  0  0  0  0  0  0  0  0  0  0  0
   -3.9321   -3.7071   -0.0000 C   0  0  0  0  0  0  0  0  0  0  0  0
   -5.2231   -1.4568   -0.0000 C   0  0  0  0  0  0  0  0  0  0  0  0
   -3.9677    2.2859   -0.0000 C   0  0  0  0  0  0  0  0  0  0  0  0
   -5.2468    0.0355   -0.0000 C   0  0  0  0  0  0  0  0  0  0  0  0
   -5.2350   -4.4533   -0.0000 C   0  0  0  0  0  0  0  0  0  0  0  0
   -6.5259   -2.1911   -0.0000 C   0  0  0  0  0  0  0  0  0  0  0  0
   -2.6885    3.0439   -0.0000 C   0  0  0  0  0  0  0  0  0  0  0  0
   -5.2823    3.0439   -0.0000 C   0  0  0  0  0  0  0  0  0  0  0  0
   -6.5615    0.7817   -0.0000 C   0  0  0  0  0  0  0  0  0  0  0  0
   -6.5378   -3.6953   -0.0000 C   0  0  0  0  0  0  0  0  0  0  0  0
   -7.8287   -1.4331   -0.0000 O   0  0  0  0  0  0  0  0  0  0  0  0
   -1.4094    2.3095   -0.0000 O   0  0  0  0  0  0  0  0  0  0  0  0
   -2.7004    4.5480   -0.0000 C   0  0  0  0  0  0  0  0  0  0  0  0
   -6.5851    2.2977   -0.0000 C   0  0  0  0  0  0  0  0  0  0  0  0
   -7.8406   -4.4296   -0.0000 C   0  0  0  0  0  0  0  0  0  0  0  0
   -7.8406    0.0711   -0.0000 C   0  0  0  0  0  0  0  0  0  0  0  0
   -1.4213    5.3060   -0.0000 N   0  0  0  0  0  0  0  0  0  0  0  0
   -4.0032    5.2942   -0.0000 C   0  0  0  0  0  0  0  0  0  0  0  0
   -9.2618   -3.9321   -0.0000 C   0  0  0  0  0  0  0  0  0  0  0  0
   -7.8880   -5.9101   -0.0000 C   0  0  0  0  0  0  0  0  0  0  0  0
   -1.4331    6.8102   -0.0000 C   0  0  0  0  0  0  0  0  0  0  0  0
   -4.0269    6.8102   -0.0000 C   0  0  0  0  0  0  0  0  0  0  0  0
  -10.1738   -5.1165   -0.0000 O   0  0  0  0  0  0  0  0  0  0  0  0
   -9.7119   -2.4872   -0.0000 C   0  0  0  0  0  0  0  0  0  0  0  0
   -9.3329   -6.3364   -0.0000 N   0  0  0  0  0  0  0  0  0  0  0  0
   -6.7036   -6.7983   -0.0000 C   0  0  0  0  0  0  0  0  0  0  0  0
   -2.7478    7.5682   -0.0000 C   0  0  0  0  0  0  0  0  0  0  0  0
  1  2  2  0  0  0  0
  2  3  1  0  0  0  0
  2  4  1  0  0  0  0
  4  5  2  0  0  0  0
  4  6  1  0  0  0  0
  5  7  1  0  0  0  0
  5  8  1  0  0  0  0
  6  9  2  0  0  0  0
  7 10  1  0  0  0  0
  8 11  1  0  0  0  0
  8 12  2  0  0  0  0
 10 13  2  0  0  0  0
 10 14  1  0  0  0  0
 11 15  2  0  0  0  0
 12 16  1  0  0  0  0
 13 17  1  0  0  0  0
 13 18  1  0  0  0  0
 14 19  2  0  0  0  0
 15 20  1  0  0  0  0
 16 21  1  0  0  0  0
 17 22  2  0  0  0  0
 17 23  1  0  0  0  0
 18 24  2  0  0  0  0
 20 25  1  0  0  0  0
 21 26  1  0  0  0  0
 23 27  2  0  0  0  0
 23 28  1  0  0  0  0
 25 29  2  0  0  0  0
 25 30  1  0  0  0  0
 27 31  1  0  0  0  0
 28 32  2  0  0  0  0
 29 33  1  0  0  0  0
 29 34  1  0  0  0  0
 30 35  2  0  0  0  0
 30 36  1  0  0  0  0
 31 37  2  0  0  0  0
  9 11  1  0  0  0  0
 16 20  2  0  0  0  0
 19 24  1  0  0  0  0
 32 37  1  0  0  0  0
 33 35  1  0  0  0  0
M  END
>  <MolRegNo>
1334998

>  <m>
=

>  <Value>
3100

>  <Unit>
nM

>  <Type>
IC50

>  <pValue>
5.51

>  <Ligand Efficiency>
0

>  <Binding Efficiency>
0

>  <Surface Efficiency>
0

>  <Assay Index>
647632

>  <Assay Category>


>  <Assay Organism>


>  <Target ID>
17045

>  <Target Name>
Cytochrome P450 3A4

>  <Target Organism>
Homo sapiens

>  <Target Description>
Target is a single protein chain

>  <Sequence Accession>
P08684

>  <Reference>
Bioorg Med Chem Lett 22 (8), 2963-2967 (2012)

>  <Pubmed ID>
22386529

>  <DOI>
10.1016/j.bmcl.2012.01.125

$$$$
1335002
Actelion Java MolfileCreator 1.0

 35 39  0  0  0  0  0  0  0  0999 V2000
    0.0000   -0.0000   -0.0000 O   0  0  0  0  0  0  0  0  0  0  0  0
    0.0000   -1.4817   -0.0000 C   0  0  0  0  0  0  0  0  0  0  0  0
    1.2921   -2.2048   -0.0000 N   0  0  0  0  0  0  0  0  0  0  0  0
   -1.3039   -2.2285   -0.0000 C   0  0  0  0  0  0  0  0  0  0  0  0
   -2.6197   -1.4817   -0.0000 C   0  0  0  0  0  0  0  0  0  0  0  0
   -1.3039   -3.7221   -0.0000 C   0  0  0  0  0  0  0  0  0  0  0  0
   -2.6434    0.0237   -0.0000 N   0  0  0  0  0  0  0  0  0  0  0  0
   -3.9236   -2.2167   -0.0000 C   0  0  0  0  0  0  0  0  0  0  0  0
   -2.6079   -4.4571   -0.0000 N   0  0  0  0  0  0  0  0  0  0  0  0
   -3.9592    0.7824   -0.0000 C   0  0  0  0  0  0  0  0  0  0  0  0
   -3.9355   -3.7103   -0.0000 C   0  0  0  0  0  0  0  0  0  0  0  0
   -5.2276   -1.4580   -0.0000 C   0  0  0  0  0  0  0  0  0  0  0  0
   -3.9711    2.2878   -0.0000 C   0  0  0  0  0  0  0  0  0  0  0  0
   -5.2513    0.0356   -0.0000 C   0  0  0  0  0  0  0  0  0  0  0  0
   -5.2394   -4.4571   -0.0000 C   0  0  0  0  0  0  0  0  0  0  0  0
   -6.5315   -2.1930   -0.0000 C   0  0  0  0  0  0  0  0  0  0  0  0
   -2.6908    3.0464   -0.0000 N   0  0  0  0  0  0  0  0  0  0  0  0
   -5.2868    3.0464   -0.0000 C   0  0  0  0  0  0  0  0  0  0  0  0
   -6.5671    0.7824   -0.0000 C   0  0  0  0  0  0  0  0  0  0  0  0
   -6.5433   -3.6984   -0.0000 C   0  0  0  0  0  0  0  0  0  0  0  0
   -7.8354   -1.4343   -0.0000 O   0  0  0  0  0  0  0  0  0  0  0  0
   -1.4106    2.3115   -0.0000 C   0  0  0  0  0  0  0  0  0  0  0  0
   -2.7145    4.5519   -0.0000 C   0  0  0  0  0  0  0  0  0  0  0  0
   -6.5908    2.2997   -0.0000 C   0  0  0  0  0  0  0  0  0  0  0  0
   -7.8473   -4.4334   -0.0000 C   0  0  0  0  0  0  0  0  0  0  0  0
   -7.8473    0.0711   -0.0000 C   0  0  0  0  0  0  0  0  0  0  0  0
   -0.1304    3.0702   -0.0000 C   0  0  0  0  0  0  0  0  0  0  0  0
   -1.4225    5.3105   -0.0000 C   0  0  0  0  0  0  0  0  0  0  0  0
   -9.2697   -3.9355   -0.0000 C   0  0  0  0  0  0  0  0  0  0  0  0
   -7.8947   -5.9151   -0.0000 C   0  0  0  0  0  0  0  0  0  0  0  0
   -0.1422    4.5756   -0.0000 O   0  0  0  0  0  0  0  0  0  0  0  0
  -10.1825   -5.1209   -0.0000 O   0  0  0  0  0  0  0  0  0  0  0  0
   -9.7202   -2.4893   -0.0000 C   0  0  0  0  0  0  0  0  0  0  0  0
   -9.3409   -6.3418   -0.0000 N   0  0  0  0  0  0  0  0  0  0  0  0
   -6.7093   -6.8041   -0.0000 C   0  0  0  0  0  0  0  0  0  0  0  0
  1  2  2  0  0  0  0
  2  3  1  0  0  0  0
  2  4  1  0  0  0  0
  4  5  2  0  0  0  0
  4  6  1  0  0  0  0
  5  7  1  0  0  0  0
  5  8  1  0  0  0  0
  6  9  2  0  0  0  0
  7 10  1  0  0  0  0
  8 11  1  0  0  0  0
  8 12  2  0  0  0  0
 10 13  2  0  0  0  0
 10 14  1  0  0  0  0
 11 15  2  0  0  0  0
 12 16  1  0  0  0  0
 13 17  1  0  0  0  0
 13 18  1  0  0  0  0
 14 19  2  0  0  0  0
 15 20  1  0  0  0  0
 16 21  1  0  0  0  0
 17 22  1  0  0  0  0
 17 23  1  0  0  0  0
 18 24  2  0  0  0  0
 20 25  1  0  0  0  0
 21 26  1  0  0  0  0
 22 27  1  0  0  0  0
 23 28  1  0  0  0  0
 25 29  2  0  0  0  0
 25 30  1  0  0  0  0
 27 31  1  0  0  0  0
 29 32  1  0  0  0  0
 29 33  1  0  0  0  0
 30 34  2  0  0  0  0
 30 35  1  0  0  0  0
  9 11  1  0  0  0  0
 16 20  2  0  0  0  0
 19 24  1  0  0  0  0
 28 31  1  0  0  0  0
 32 34  1  0  0  0  0
M  END
>  <MolRegNo>
1335002

>  <m>
=

>  <Value>
1500

>  <Unit>
nM

>  <Type>
IC50

>  <pValue>
5.82

>  <Ligand Efficiency>
0

>  <Binding Efficiency>
0

>  <Surface Efficiency>
0

>  <Assay Index>
647632

>  <Assay Category>


>  <Assay Organism>


>  <Target ID>
17045

>  <Target Name>
Cytochrome P450 3A4

>  <Target Organism>
Homo sapiens

>  <Target Description>
Target is a single protein chain

>  <Sequence Accession>
P08684

>  <Reference>
Bioorg Med Chem Lett 22 (8), 2963-2967 (2012)

>  <Pubmed ID>
22386529

>  <DOI>
10.1016/j.bmcl.2012.01.125

$$$$
1335003
Actelion Java MolfileCreator 1.0

 37 41  0  0  0  0  0  0  0  0999 V2000
    0.0000   -0.0000   -0.0000 O   0  0  0  0  0  0  0  0  0  0  0  0
   -1.3047    0.7591   -0.0000 C   0  0  0  0  0  0  0  0  0  0  0  0
   -1.3165    2.2654   -0.0000 N   0  0  0  0  0  0  0  0  0  0  0  0
   -2.6094    0.0237   -0.0000 C   0  0  0  0  0  0  0  0  0  0  0  0
   -0.0356    3.0245   -0.0000 C   0  0  0  0  0  0  0  0  0  0  0  0
   -2.6331    3.0126   -0.0000 C   0  0  0  0  0  0  0  0  0  0  0  0
   -2.6212   -1.4589   -0.0000 C   0  0  0  0  0  0  0  0  0  0  0  0
   -3.9259    0.7828   -0.0000 C   0  0  0  0  0  0  0  0  0  0  0  0
   -0.0474    4.5308   -0.0000 C   0  0  0  0  0  0  0  0  0  0  0  0
   -2.6331    4.5308   -0.0000 C   0  0  0  0  0  0  0  0  0  0  0  0
   -1.3284   -2.1942   -0.0000 N   0  0  0  0  0  0  0  0  0  0  0  0
   -3.9141   -2.2061   -0.0000 C   0  0  0  0  0  0  0  0  0  0  0  0
   -5.2306    0.0356   -0.0000 C   0  0  0  0  0  0  0  0  0  0  0  0
   -1.3521    5.3018   -0.0000 C   0  0  0  0  0  0  0  0  0  0  0  0
   -1.3284   -3.6769   -0.0000 C   0  0  0  0  0  0  0  0  0  0  0  0
   -5.2306   -1.4589   -0.0000 C   0  0  0  0  0  0  0  0  0  0  0  0
   -2.6331   -4.4122   -0.0000 C   0  0  0  0  0  0  0  0  0  0  0  0
   -0.0356   -4.4004   -0.0000 C   0  0  0  0  0  0  0  0  0  0  0  0
   -2.6450   -5.9067   -0.0000 C   0  0  0  0  0  0  0  0  0  0  0  0
   -3.9378   -3.6531   -0.0000 C   0  0  0  0  0  0  0  0  0  0  0  0
    1.2454   -3.6294   -0.0000 C   0  0  0  0  0  0  0  0  0  0  0  0
   -0.0356   -5.8948   -0.0000 C   0  0  0  0  0  0  0  0  0  0  0  0
   -1.3640   -6.6421   -0.0000 N   0  0  0  0  0  0  0  0  0  0  0  0
   -3.9496   -6.6539   -0.0000 C   0  0  0  0  0  0  0  0  0  0  0  0
   -5.2425   -4.3885   -0.0000 C   0  0  0  0  0  0  0  0  0  0  0  0
    1.2217   -2.1231   -0.0000 O   0  0  0  0  0  0  0  0  0  0  0  0
    2.5382   -4.3529   -0.0000 N   0  0  0  0  0  0  0  0  0  0  0  0
   -5.2543   -5.8948   -0.0000 C   0  0  0  0  0  0  0  0  0  0  0  0
   -6.5472   -3.6294   -0.0000 O   0  0  0  0  0  0  0  0  0  0  0  0
   -6.5590   -6.6302   -0.0000 C   0  0  0  0  0  0  0  0  0  0  0  0
   -6.5590   -2.1231   -0.0000 C   0  0  0  0  0  0  0  0  0  0  0  0
   -7.9823   -6.1320   -0.0000 C   0  0  0  0  0  0  0  0  0  0  0  0
   -6.6065   -8.1128   -0.0000 C   0  0  0  0  0  0  0  0  0  0  0  0
   -8.8956   -7.3181   -0.0000 O   0  0  0  0  0  0  0  0  0  0  0  0
   -8.4330   -4.6850   -0.0000 C   0  0  0  0  0  0  0  0  0  0  0  0
   -8.0535   -8.5398   -0.0000 N   0  0  0  0  0  0  0  0  0  0  0  0
   -5.4204   -9.0024   -0.0000 C   0  0  0  0  0  0  0  0  0  0  0  0
  1  2  2  0  0  0  0
  2  3  1  0  0  0  0
  2  4  1  0  0  0  0
  3  5  1  0  0  0  0
  3  6  1  0  0  0  0
  4  7  2  0  0  0  0
  4  8  1  0  0  0  0
  5  9  1  0  0  0  0
  6 10  1  0  0  0  0
  7 11  1  0  0  0  0
  7 12  1  0  0  0  0
  8 13  2  0  0  0  0
  9 14  1  0  0  0  0
 11 15  1  0  0  0  0
 12 16  2  0  0  0  0
 15 17  1  0  0  0  0
 15 18  2  0  0  0  0
 17 19  1  0  0  0  0
 17 20  2  0  0  0  0
 18 21  1  0  0  0  0
 18 22  1  0  0  0  0
 19 23  1  0  0  0  0
 19 24  2  0  0  0  0
 20 25  1  0  0  0  0
 21 26  2  0  0  0  0
 21 27  1  0  0  0  0
 24 28  1  0  0  0  0
 25 29  1  0  0  0  0
 28 30  1  0  0  0  0
 29 31  1  0  0  0  0
 30 32  2  0  0  0  0
 30 33  1  0  0  0  0
 32 34  1  0  0  0  0
 32 35  1  0  0  0  0
 33 36  2  0  0  0  0
 33 37  1  0  0  0  0
 10 14  1  0  0  0  0
 13 16  1  0  0  0  0
 22 23  2  0  0  0  0
 25 28  2  0  0  0  0
 34 36  1  0  0  0  0
M  END
>  <MolRegNo>
1335003

>  <m>
=

>  <Value>
1800

>  <Unit>
nM

>  <Type>
IC50

>  <pValue>
5.75

>  <Ligand Efficiency>
0

>  <Binding Efficiency>
0

>  <Surface Efficiency>
0

>  <Assay Index>
647632

>  <Assay Category>


>  <Assay Organism>


>  <Target ID>
17045

>  <Target Name>
Cytochrome P450 3A4

>  <Target Organism>
Homo sapiens

>  <Target Description>
Target is a single protein chain

>  <Sequence Accession>
P08684

>  <Reference>
Bioorg Med Chem Lett 22 (8), 2963-2967 (2012)

>  <Pubmed ID>
22386529

>  <DOI>
10.1016/j.bmcl.2012.01.125

$$$$
1335004
Actelion Java MolfileCreator 1.0

 33 37  0  0  0  0  0  0  0  0999 V2000
    0.0000   -0.0000   -0.0000 O   0  0  0  0  0  0  0  0  0  0  0  0
    0.0000   -1.4807   -0.0000 C   0  0  0  0  0  0  0  0  0  0  0  0
    1.2911   -2.2032   -0.0000 N   0  0  0  0  0  0  0  0  0  0  0  0
   -1.3030   -2.2269   -0.0000 C   0  0  0  0  0  0  0  0  0  0  0  0
   -2.6178   -1.4807   -0.0000 C   0  0  0  0  0  0  0  0  0  0  0  0
   -1.3030   -3.7194   -0.0000 C   0  0  0  0  0  0  0  0  0  0  0  0
   -2.6415    0.0237   -0.0000 N   0  0  0  0  0  0  0  0  0  0  0  0
   -3.9208   -2.2151   -0.0000 C   0  0  0  0  0  0  0  0  0  0  0  0
   -2.6060   -4.4539   -0.0000 N   0  0  0  0  0  0  0  0  0  0  0  0
   -3.9563    0.7818   -0.0000 C   0  0  0  0  0  0  0  0  0  0  0  0
   -3.9327   -3.7076   -0.0000 C   0  0  0  0  0  0  0  0  0  0  0  0
   -5.2238   -1.4570   -0.0000 C   0  0  0  0  0  0  0  0  0  0  0  0
   -3.9682    2.2862   -0.0000 C   0  0  0  0  0  0  0  0  0  0  0  0
   -5.2475    0.0355   -0.0000 C   0  0  0  0  0  0  0  0  0  0  0  0
   -5.2356   -4.4539   -0.0000 C   0  0  0  0  0  0  0  0  0  0  0  0
   -6.5268   -2.1914   -0.0000 C   0  0  0  0  0  0  0  0  0  0  0  0
   -2.6889    3.0443   -0.0000 N   0  0  0  0  0  0  0  0  0  0  0  0
   -5.2712    3.0443   -0.0000 C   0  0  0  0  0  0  0  0  0  0  0  0
   -6.5623    0.7818   -0.0000 C   0  0  0  0  0  0  0  0  0  0  0  0
   -6.5386   -3.6957   -0.0000 C   0  0  0  0  0  0  0  0  0  0  0  0
   -7.8298   -1.4333   -0.0000 O   0  0  0  0  0  0  0  0  0  0  0  0
   -2.7007    4.5486   -0.0000 C   0  0  0  0  0  0  0  0  0  0  0  0
   -5.2949    4.5368   -0.0000 C   0  0  0  0  0  0  0  0  0  0  0  0
   -6.5742    2.2980   -0.0000 C   0  0  0  0  0  0  0  0  0  0  0  0
   -7.8416   -4.4302   -0.0000 C   0  0  0  0  0  0  0  0  0  0  0  0
   -7.8416    0.0711   -0.0000 C   0  0  0  0  0  0  0  0  0  0  0  0
   -4.0156    5.2949   -0.0000 C   0  0  0  0  0  0  0  0  0  0  0  0
   -9.2631   -3.9327   -0.0000 C   0  0  0  0  0  0  0  0  0  0  0  0
   -7.8890   -5.9108   -0.0000 C   0  0  0  0  0  0  0  0  0  0  0  0
  -10.1752   -5.1172   -0.0000 O   0  0  0  0  0  0  0  0  0  0  0  0
   -9.7132   -2.4875   -0.0000 C   0  0  0  0  0  0  0  0  0  0  0  0
   -9.3341   -6.3373   -0.0000 N   0  0  0  0  0  0  0  0  0  0  0  0
   -6.7045   -6.7992   -0.0000 C   0  0  0  0  0  0  0  0  0  0  0  0
  1  2  2  0  0  0  0
  2  3  1  0  0  0  0
  2  4  1  0  0  0  0
  4  5  2  0  0  0  0
  4  6  1  0  0  0  0
  5  7  1  0  0  0  0
  5  8  1  0  0  0  0
  6  9  2  0  0  0  0
  7 10  1  0  0  0  0
  8 11  1  0  0  0  0
  8 12  2  0  0  0  0
 10 13  1  0  0  0  0
 10 14  2  0  0  0  0
 11 15  2  0  0  0  0
 12 16  1  0  0  0  0
 13 17  2  0  0  0  0
 13 18  1  0  0  0  0
 14 19  1  0  0  0  0
 15 20  1  0  0  0  0
 16 21  1  0  0  0  0
 17 22  1  0  0  0  0
 18 23  2  0  0  0  0
 18 24  1  0  0  0  0
 20 25  1  0  0  0  0
 21 26  1  0  0  0  0
 22 27  2  0  0  0  0
 25 28  2  0  0  0  0
 25 29  1  0  0  0  0
 28 30  1  0  0  0  0
 28 31  1  0  0  0  0
 29 32  2  0  0  0  0
 29 33  1  0  0  0  0
  9 11  1  0  0  0  0
 16 20  2  0  0  0  0
 19 24  2  0  0  0  0
 23 27  1  0  0  0  0
 30 32  1  0  0  0  0
M  END
>  <MolRegNo>
1335004

>  <m>
=

>  <Value>
3900

>  <Unit>
nM

>  <Type>
IC50

>  <pValue>
5.41

>  <Ligand Efficiency>
0

>  <Binding Efficiency>
0

>  <Surface Efficiency>
0

>  <Assay Index>
647632

>  <Assay Category>


>  <Assay Organism>


>  <Target ID>
17045

>  <Target Name>
Cytochrome P450 3A4

>  <Target Organism>
Homo sapiens

>  <Target Description>
Target is a single protein chain

>  <Sequence Accession>
P08684

>  <Reference>
Bioorg Med Chem Lett 22 (8), 2963-2967 (2012)

>  <Pubmed ID>
22386529

>  <DOI>
10.1016/j.bmcl.2012.01.125

$$$$
1335006
Actelion Java MolfileCreator 1.0

 33 37  0  0  0  0  0  0  0  0999 V2000
    0.0000   -0.0000   -0.0000 O   0  0  0  0  0  0  0  0  0  0  0  0
   -0.7505   -1.2866   -0.0000 C   0  0  0  0  0  0  0  0  0  0  0  0
   -2.2397   -1.4415   -0.0000 N   0  0  0  0  0  0  0  0  0  0  0  0
   -0.1430   -2.6328   -0.0000 N   0  0  0  0  0  0  0  0  0  0  0  0
   -3.0021   -0.1310   -0.0000 C   0  0  0  0  0  0  0  0  0  0  0  0
   -2.5494   -2.8949   -0.0000 C   0  0  0  0  0  0  0  0  0  0  0  0
   -1.2509   -3.6335   -0.0000 C   0  0  0  0  0  0  0  0  0  0  0  0
   -2.2635    1.1675   -0.0000 C   0  0  0  0  0  0  0  0  0  0  0  0
   -4.5032   -0.1310   -0.0000 C   0  0  0  0  0  0  0  0  0  0  0  0
   -3.8479   -3.6335   -0.0000 C   0  0  0  0  0  0  0  0  0  0  0  0
   -1.2509   -5.1345   -0.0000 C   0  0  0  0  0  0  0  0  0  0  0  0
   -3.0259    2.4779   -0.0000 C   0  0  0  0  0  0  0  0  0  0  0  0
   -0.7744    1.1794   -0.0000 C   0  0  0  0  0  0  0  0  0  0  0  0
   -5.2656    1.1675   -0.0000 C   0  0  0  0  0  0  0  0  0  0  0  0
   -3.8598   -5.1226   -0.0000 C   0  0  0  0  0  0  0  0  0  0  0  0
   -5.1584   -2.8830   -0.0000 C   0  0  0  0  0  0  0  0  0  0  0  0
   -2.5613   -5.8732   -0.0000 N   0  0  0  0  0  0  0  0  0  0  0  0
   -4.5389    2.4898   -0.0000 C   0  0  0  0  0  0  0  0  0  0  0  0
   -0.7982    2.6924   -0.0000 C   0  0  0  0  0  0  0  0  0  0  0  0
    0.6552    0.8101   -0.0000 C   0  0  0  0  0  0  0  0  0  0  0  0
    0.5004    1.9537   -0.0000 C   0  0  0  0  0  0  0  0  0  0  0  0
   -5.1703   -5.8732   -0.0000 C   0  0  0  0  0  0  0  0  0  0  0  0
   -6.4688   -3.6216   -0.0000 C   0  0  0  0  0  0  0  0  0  0  0  0
   -6.4807   -5.1107   -0.0000 C   0  0  0  0  0  0  0  0  0  0  0  0
   -7.7793   -2.8591   -0.0000 O   0  0  0  0  0  0  0  0  0  0  0  0
   -7.7912   -5.8493   -0.0000 C   0  0  0  0  0  0  0  0  0  0  0  0
   -7.7912   -1.3462   -0.0000 C   0  0  0  0  0  0  0  0  0  0  0  0
   -9.2207   -5.3490   -0.0000 C   0  0  0  0  0  0  0  0  0  0  0  0
   -7.8388   -7.3385   -0.0000 C   0  0  0  0  0  0  0  0  0  0  0  0
  -10.1381   -6.5284   -0.0000 O   0  0  0  0  0  0  0  0  0  0  0  0
   -9.6734   -3.9075   -0.0000 C   0  0  0  0  0  0  0  0  0  0  0  0
   -9.2803   -7.7554   -0.0000 N   0  0  0  0  0  0  0  0  0  0  0  0
   -6.6594   -8.2320   -0.0000 C   0  0  0  0  0  0  0  0  0  0  0  0
  1  2  2  0  0  0  0
  2  3  1  0  0  0  0
  2  4  1  0  0  0  0
  3  5  1  0  0  0  0
  3  6  1  0  0  0  0
  4  7  1  0  0  0  0
  5  8  2  0  0  0  0
  5  9  1  0  0  0  0
  6 10  1  0  0  0  0
  7 11  1  0  0  0  0
  8 12  1  0  0  0  0
  8 13  1  0  0  0  0
  9 14  2  0  0  0  0
 10 15  1  0  0  0  0
 10 16  2  0  0  0  0
 11 17  2  0  0  0  0
 12 18  2  0  0  0  0
 13 19  1  0  0  0  0
 13 20  1  0  0  0  0
 13 21  1  0  0  0  0
 15 22  2  0  0  0  0
 16 23  1  0  0  0  0
 22 24  1  0  0  0  0
 23 25  1  0  0  0  0
 24 26  1  0  0  0  0
 25 27  1  0  0  0  0
 26 28  2  0  0  0  0
 26 29  1  0  0  0  0
 28 30  1  0  0  0  0
 28 31  1  0  0  0  0
 29 32  2  0  0  0  0
 29 33  1  0  0  0  0
  6  7  2  0  0  0  0
 14 18  1  0  0  0  0
 15 17  1  0  0  0  0
 23 24  2  0  0  0  0
 30 32  1  0  0  0  0
M  END
>  <MolRegNo>
1335006

>  <m>
=

>  <Value>
1700

>  <Unit>
nM

>  <Type>
IC50

>  <pValue>
5.77

>  <Ligand Efficiency>
0

>  <Binding Efficiency>
0

>  <Surface Efficiency>
0

>  <Assay Index>
647632

>  <Assay Category>


>  <Assay Organism>


>  <Target ID>
17045

>  <Target Name>
Cytochrome P450 3A4

>  <Target Organism>
Homo sapiens

>  <Target Description>
Target is a single protein chain

>  <Sequence Accession>
P08684

>  <Reference>
Bioorg Med Chem Lett 22 (8), 2963-2967 (2012)

>  <Pubmed ID>
22386529

>  <DOI>
10.1016/j.bmcl.2012.01.125

$$$$
1335007
Actelion Java MolfileCreator 1.0

 34 38  0  0  0  0  0  0  0  0999 V2000
    0.0000   -0.0000   -0.0000 F   0  0  0  0  0  0  0  0  0  0  0  0
   -1.5132    0.0119   -0.0000 C   0  0  0  0  0  0  0  0  0  0  0  0
   -2.2758    1.3226   -0.0000 F   0  0  0  0  0  0  0  0  0  0  0  0
   -0.7864    1.3345   -0.0000 F   0  0  0  0  0  0  0  0  0  0  0  0
   -2.2758   -1.2749   -0.0000 O   0  0  0  0  0  0  0  0  0  0  0  0
   -3.7890   -1.2630   -0.0000 C   0  0  0  0  0  0  0  0  0  0  0  0
   -4.5515   -2.5379   -0.0000 C   0  0  0  0  0  0  0  0  0  0  0  0
   -4.5515    0.0477   -0.0000 C   0  0  0  0  0  0  0  0  0  0  0  0
   -3.8128   -3.8247   -0.0000 N   0  0  0  0  0  0  0  0  0  0  0  0
   -6.0528   -2.5379   -0.0000 C   0  0  0  0  0  0  0  0  0  0  0  0
   -6.0647    0.0596   -0.0000 C   0  0  0  0  0  0  0  0  0  0  0  0
   -2.3472   -3.6460   -0.0000 C   0  0  0  0  0  0  0  0  0  0  0  0
   -4.1226   -5.2783   -0.0000 C   0  0  0  0  0  0  0  0  0  0  0  0
   -6.8154   -1.2392   -0.0000 C   0  0  0  0  0  0  0  0  0  0  0  0
   -1.6204   -2.3234   -0.0000 O   0  0  0  0  0  0  0  0  0  0  0  0
   -1.7396   -4.9924   -0.0000 N   0  0  0  0  0  0  0  0  0  0  0  0
   -5.4213   -6.0171   -0.0000 C   0  0  0  0  0  0  0  0  0  0  0  0
   -2.8358   -6.0051   -0.0000 C   0  0  0  0  0  0  0  0  0  0  0  0
   -5.4332   -7.5064   -0.0000 C   0  0  0  0  0  0  0  0  0  0  0  0
   -6.7320   -5.2664   -0.0000 C   0  0  0  0  0  0  0  0  0  0  0  0
   -2.8358   -7.5064   -0.0000 C   0  0  0  0  0  0  0  0  0  0  0  0
   -4.1464   -8.2452   -0.0000 N   0  0  0  0  0  0  0  0  0  0  0  0
   -6.7439   -8.2571   -0.0000 C   0  0  0  0  0  0  0  0  0  0  0  0
   -8.0426   -6.0051   -0.0000 C   0  0  0  0  0  0  0  0  0  0  0  0
   -8.0545   -7.4945   -0.0000 C   0  0  0  0  0  0  0  0  0  0  0  0
   -9.3532   -5.2426   -0.0000 O   0  0  0  0  0  0  0  0  0  0  0  0
   -9.3652   -8.2332   -0.0000 C   0  0  0  0  0  0  0  0  0  0  0  0
   -9.3652   -3.7294   -0.0000 C   0  0  0  0  0  0  0  0  0  0  0  0
  -10.7950   -7.7328   -0.0000 C   0  0  0  0  0  0  0  0  0  0  0  0
   -9.4128   -9.7226   -0.0000 C   0  0  0  0  0  0  0  0  0  0  0  0
  -11.7124   -8.9124   -0.0000 O   0  0  0  0  0  0  0  0  0  0  0  0
  -11.2477   -6.2911   -0.0000 C   0  0  0  0  0  0  0  0  0  0  0  0
  -10.8545  -10.1396   -0.0000 N   0  0  0  0  0  0  0  0  0  0  0  0
   -8.2332  -10.6162   -0.0000 C   0  0  0  0  0  0  0  0  0  0  0  0
  1  2  1  0  0  0  0
  2  3  1  0  0  0  0
  2  4  1  0  0  0  0
  2  5  1  0  0  0  0
  5  6  1  0  0  0  0
  6  7  2  0  0  0  0
  6  8  1  0  0  0  0
  7  9  1  0  0  0  0
  7 10  1  0  0  0  0
  8 11  2  0  0  0  0
  9 12  1  0  0  0  0
  9 13  1  0  0  0  0
 10 14  2  0  0  0  0
 12 15  2  0  0  0  0
 12 16  1  0  0  0  0
 13 17  1  0  0  0  0
 13 18  2  0  0  0  0
 17 19  1  0  0  0  0
 17 20  2  0  0  0  0
 18 21  1  0  0  0  0
 19 22  1  0  0  0  0
 19 23  2  0  0  0  0
 20 24  1  0  0  0  0
 23 25  1  0  0  0  0
 24 26  1  0  0  0  0
 25 27  1  0  0  0  0
 26 28  1  0  0  0  0
 27 29  2  0  0  0  0
 27 30  1  0  0  0  0
 29 31  1  0  0  0  0
 29 32  1  0  0  0  0
 30 33  2  0  0  0  0
 30 34  1  0  0  0  0
 11 14  1  0  0  0  0
 16 18  1  0  0  0  0
 21 22  2  0  0  0  0
 24 25  2  0  0  0  0
 31 33  1  0  0  0  0
M  END
>  <MolRegNo>
1335007

>  <m>
=

>  <Value>
2000

>  <Unit>
nM

>  <Type>
IC50

>  <pValue>
5.7

>  <Ligand Efficiency>
0

>  <Binding Efficiency>
0

>  <Surface Efficiency>
0

>  <Assay Index>
647632

>  <Assay Category>


>  <Assay Organism>


>  <Target ID>
17045

>  <Target Name>
Cytochrome P450 3A4

>  <Target Organism>
Homo sapiens

>  <Target Description>
Target is a single protein chain

>  <Sequence Accession>
P08684

>  <Reference>
Bioorg Med Chem Lett 22 (8), 2963-2967 (2012)

>  <Pubmed ID>
22386529

>  <DOI>
10.1016/j.bmcl.2012.01.125

$$$$
1335008
Actelion Java MolfileCreator 1.0

 30 34  0  0  0  0  0  0  0  0999 V2000
    0.0000   -0.0000   -0.0000 O   0  0  0  0  0  0  0  0  0  0  0  0
   -0.7507   -1.2870   -0.0000 C   0  0  0  0  0  0  0  0  0  0  0  0
   -2.2403   -1.4419   -0.0000 N   0  0  0  0  0  0  0  0  0  0  0  0
   -0.1430   -2.6335   -0.0000 N   0  0  0  0  0  0  0  0  0  0  0  0
   -2.5501   -2.8957   -0.0000 C   0  0  0  0  0  0  0  0  0  0  0  0
   -3.0029   -0.1311   -0.0000 C   0  0  0  0  0  0  0  0  0  0  0  0
   -1.2512   -3.6345   -0.0000 C   0  0  0  0  0  0  0  0  0  0  0  0
   -3.8490   -3.6345   -0.0000 C   0  0  0  0  0  0  0  0  0  0  0  0
   -2.2641    1.1797   -0.0000 C   0  0  0  0  0  0  0  0  0  0  0  0
   -1.2512   -5.1359   -0.0000 C   0  0  0  0  0  0  0  0  0  0  0  0
   -3.8609   -5.1240   -0.0000 C   0  0  0  0  0  0  0  0  0  0  0  0
   -5.1597   -2.8837   -0.0000 C   0  0  0  0  0  0  0  0  0  0  0  0
   -0.7865    1.1916   -0.0000 C   0  0  0  0  0  0  0  0  0  0  0  0
   -3.0267    2.4786   -0.0000 C   0  0  0  0  0  0  0  0  0  0  0  0
   -2.5620   -5.8747   -0.0000 N   0  0  0  0  0  0  0  0  0  0  0  0
   -5.1717   -5.8747   -0.0000 C   0  0  0  0  0  0  0  0  0  0  0  0
   -6.4705   -3.6225   -0.0000 C   0  0  0  0  0  0  0  0  0  0  0  0
   -0.0477    2.5024   -0.0000 C   0  0  0  0  0  0  0  0  0  0  0  0
   -2.2998    3.7894   -0.0000 C   0  0  0  0  0  0  0  0  0  0  0  0
   -6.4825   -5.1121   -0.0000 C   0  0  0  0  0  0  0  0  0  0  0  0
   -7.7813   -2.8599   -0.0000 O   0  0  0  0  0  0  0  0  0  0  0  0
   -0.8103    3.8132   -0.0000 C   0  0  0  0  0  0  0  0  0  0  0  0
   -7.7932   -5.8509   -0.0000 C   0  0  0  0  0  0  0  0  0  0  0  0
   -7.7932   -1.3465   -0.0000 C   0  0  0  0  0  0  0  0  0  0  0  0
   -9.2232   -5.3504   -0.0000 C   0  0  0  0  0  0  0  0  0  0  0  0
   -7.8409   -7.3404   -0.0000 C   0  0  0  0  0  0  0  0  0  0  0  0
  -10.1408   -6.5301   -0.0000 O   0  0  0  0  0  0  0  0  0  0  0  0
   -9.6760   -3.9085   -0.0000 C   0  0  0  0  0  0  0  0  0  0  0  0
   -9.2828   -7.7575   -0.0000 N   0  0  0  0  0  0  0  0  0  0  0  0
   -6.6612   -8.2341   -0.0000 C   0  0  0  0  0  0  0  0  0  0  0  0
  1  2  2  0  0  0  0
  2  3  1  0  0  0  0
  2  4  1  0  0  0  0
  3  5  1  0  0  0  0
  3  6  1  0  0  0  0
  4  7  1  0  0  0  0
  5  8  1  0  0  0  0
  6  9  1  0  0  0  0
  7 10  1  0  0  0  0
  8 11  1  0  0  0  0
  8 12  2  0  0  0  0
  9 13  2  0  0  0  0
  9 14  1  0  0  0  0
 10 15  2  0  0  0  0
 11 16  2  0  0  0  0
 12 17  1  0  0  0  0
 13 18  1  0  0  0  0
 14 19  2  0  0  0  0
 16 20  1  0  0  0  0
 17 21  1  0  0  0  0
 18 22  2  0  0  0  0
 20 23  1  0  0  0  0
 21 24  1  0  0  0  0
 23 25  2  0  0  0  0
 23 26  1  0  0  0  0
 25 27  1  0  0  0  0
 25 28  1  0  0  0  0
 26 29  2  0  0  0  0
 26 30  1  0  0  0  0
  5  7  2  0  0  0  0
 11 15  1  0  0  0  0
 17 20  2  0  0  0  0
 19 22  1  0  0  0  0
 27 29  1  0  0  0  0
M  END
>  <MolRegNo>
1335008

>  <m>
=

>  <Value>
3700

>  <Unit>
nM

>  <Type>
IC50

>  <pValue>
5.43

>  <Ligand Efficiency>
0

>  <Binding Efficiency>
0

>  <Surface Efficiency>
0

>  <Assay Index>
647632

>  <Assay Category>


>  <Assay Organism>


>  <Target ID>
17045

>  <Target Name>
Cytochrome P450 3A4

>  <Target Organism>
Homo sapiens

>  <Target Description>
Target is a single protein chain

>  <Sequence Accession>
P08684

>  <Reference>
Bioorg Med Chem Lett 22 (8), 2963-2967 (2012)

>  <Pubmed ID>
22386529

>  <DOI>
10.1016/j.bmcl.2012.01.125

$$$$
1335009
Actelion Java MolfileCreator 1.0

 30 34  0  0  0  0  0  0  0  0999 V2000
    0.0000   -0.0000   -0.0000 O   0  0  0  0  0  0  0  0  0  0  0  0
   -0.7507   -1.2870   -0.0000 C   0  0  0  0  0  0  0  0  0  0  0  0
   -2.2403   -1.4419   -0.0000 N   0  0  0  0  0  0  0  0  0  0  0  0
   -0.1430   -2.6335   -0.0000 N   0  0  0  0  0  0  0  0  0  0  0  0
   -2.5501   -2.8957   -0.0000 C   0  0  0  0  0  0  0  0  0  0  0  0
   -3.0029   -0.1311   -0.0000 C   0  0  0  0  0  0  0  0  0  0  0  0
   -1.2512   -3.6345   -0.0000 C   0  0  0  0  0  0  0  0  0  0  0  0
   -3.8490   -3.6345   -0.0000 C   0  0  0  0  0  0  0  0  0  0  0  0
   -2.2641    1.1797   -0.0000 C   0  0  0  0  0  0  0  0  0  0  0  0
   -1.2512   -5.1359   -0.0000 C   0  0  0  0  0  0  0  0  0  0  0  0
   -3.8609   -5.1240   -0.0000 C   0  0  0  0  0  0  0  0  0  0  0  0
   -5.1597   -2.8837   -0.0000 C   0  0  0  0  0  0  0  0  0  0  0  0
   -0.7865    1.1916   -0.0000 N   0  0  0  0  0  0  0  0  0  0  0  0
   -3.0267    2.4786   -0.0000 C   0  0  0  0  0  0  0  0  0  0  0  0
   -2.5620   -5.8747   -0.0000 N   0  0  0  0  0  0  0  0  0  0  0  0
   -5.1717   -5.8747   -0.0000 C   0  0  0  0  0  0  0  0  0  0  0  0
   -6.4705   -3.6225   -0.0000 C   0  0  0  0  0  0  0  0  0  0  0  0
   -0.0477    2.5024   -0.0000 C   0  0  0  0  0  0  0  0  0  0  0  0
   -2.2998    3.7894   -0.0000 C   0  0  0  0  0  0  0  0  0  0  0  0
   -6.4825   -5.1121   -0.0000 C   0  0  0  0  0  0  0  0  0  0  0  0
   -7.7813   -2.8599   -0.0000 O   0  0  0  0  0  0  0  0  0  0  0  0
   -0.8103    3.8132   -0.0000 C   0  0  0  0  0  0  0  0  0  0  0  0
   -7.7932   -5.8509   -0.0000 C   0  0  0  0  0  0  0  0  0  0  0  0
   -7.7932   -1.3465   -0.0000 C   0  0  0  0  0  0  0  0  0  0  0  0
   -9.2232   -5.3504   -0.0000 C   0  0  0  0  0  0  0  0  0  0  0  0
   -7.8409   -7.3404   -0.0000 C   0  0  0  0  0  0  0  0  0  0  0  0
  -10.1408   -6.5301   -0.0000 O   0  0  0  0  0  0  0  0  0  0  0  0
   -9.6760   -3.9085   -0.0000 C   0  0  0  0  0  0  0  0  0  0  0  0
   -9.2828   -7.7575   -0.0000 N   0  0  0  0  0  0  0  0  0  0  0  0
   -6.6612   -8.2341   -0.0000 C   0  0  0  0  0  0  0  0  0  0  0  0
  1  2  2  0  0  0  0
  2  3  1  0  0  0  0
  2  4  1  0  0  0  0
  3  5  1  0  0  0  0
  3  6  1  0  0  0  0
  4  7  1  0  0  0  0
  5  8  1  0  0  0  0
  6  9  1  0  0  0  0
  7 10  1  0  0  0  0
  8 11  1  0  0  0  0
  8 12  2  0  0  0  0
  9 13  2  0  0  0  0
  9 14  1  0  0  0  0
 10 15  2  0  0  0  0
 11 16  2  0  0  0  0
 12 17  1  0  0  0  0
 13 18  1  0  0  0  0
 14 19  2  0  0  0  0
 16 20  1  0  0  0  0
 17 21  1  0  0  0  0
 18 22  2  0  0  0  0
 20 23  1  0  0  0  0
 21 24  1  0  0  0  0
 23 25  2  0  0  0  0
 23 26  1  0  0  0  0
 25 27  1  0  0  0  0
 25 28  1  0  0  0  0
 26 29  2  0  0  0  0
 26 30  1  0  0  0  0
  5  7  2  0  0  0  0
 11 15  1  0  0  0  0
 17 20  2  0  0  0  0
 19 22  1  0  0  0  0
 27 29  1  0  0  0  0
M  END
>  <MolRegNo>
1335009

>  <m>
=

>  <Value>
12900

>  <Unit>
nM

>  <Type>
IC50

>  <pValue>
4.89

>  <Ligand Efficiency>
0

>  <Binding Efficiency>
0

>  <Surface Efficiency>
0

>  <Assay Index>
647632

>  <Assay Category>


>  <Assay Organism>


>  <Target ID>
17045

>  <Target Name>
Cytochrome P450 3A4

>  <Target Organism>
Homo sapiens

>  <Target Description>
Target is a single protein chain

>  <Sequence Accession>
P08684

>  <Reference>
Bioorg Med Chem Lett 22 (8), 2963-2967 (2012)

>  <Pubmed ID>
22386529

>  <DOI>
10.1016/j.bmcl.2012.01.125

$$$$
1335010
Actelion Java MolfileCreator 1.0

 31 35  0  0  0  0  0  0  0  0999 V2000
    0.0000   -0.0000   -0.0000 O   0  0  0  0  0  0  0  0  0  0  0  0
   -0.7504   -1.2983   -0.0000 C   0  0  0  0  0  0  0  0  0  0  0  0
   -2.2392   -1.4531   -0.0000 N   0  0  0  0  0  0  0  0  0  0  0  0
   -0.1429   -2.6442   -0.0000 N   0  0  0  0  0  0  0  0  0  0  0  0
   -2.5489   -2.9063   -0.0000 C   0  0  0  0  0  0  0  0  0  0  0  0
   -3.0015   -0.1429   -0.0000 C   0  0  0  0  0  0  0  0  0  0  0  0
   -1.2506   -3.6447   -0.0000 C   0  0  0  0  0  0  0  0  0  0  0  0
   -3.8472   -3.6447   -0.0000 C   0  0  0  0  0  0  0  0  0  0  0  0
   -2.2631    1.1673   -0.0000 C   0  0  0  0  0  0  0  0  0  0  0  0
   -4.5142   -0.1310   -0.0000 C   0  0  0  0  0  0  0  0  0  0  0  0
   -1.2506   -5.1455   -0.0000 C   0  0  0  0  0  0  0  0  0  0  0  0
   -3.8591   -5.1336   -0.0000 C   0  0  0  0  0  0  0  0  0  0  0  0
   -5.1574   -2.8943   -0.0000 C   0  0  0  0  0  0  0  0  0  0  0  0
   -0.7861    1.1792   -0.0000 C   0  0  0  0  0  0  0  0  0  0  0  0
   -3.0254    2.4656   -0.0000 C   0  0  0  0  0  0  0  0  0  0  0  0
   -2.5608   -5.8840   -0.0000 N   0  0  0  0  0  0  0  0  0  0  0  0
   -5.1693   -5.8840   -0.0000 C   0  0  0  0  0  0  0  0  0  0  0  0
   -6.4676   -3.6328   -0.0000 C   0  0  0  0  0  0  0  0  0  0  0  0
   -0.0476    2.4894   -0.0000 C   0  0  0  0  0  0  0  0  0  0  0  0
   -2.2988    3.7758   -0.0000 C   0  0  0  0  0  0  0  0  0  0  0  0
   -6.4795   -5.1217   -0.0000 C   0  0  0  0  0  0  0  0  0  0  0  0
   -7.7778   -2.8705   -0.0000 O   0  0  0  0  0  0  0  0  0  0  0  0
   -0.8099    3.7996   -0.0000 C   0  0  0  0  0  0  0  0  0  0  0  0
   -7.7897   -5.8602   -0.0000 C   0  0  0  0  0  0  0  0  0  0  0  0
   -7.7897   -1.3578   -0.0000 C   0  0  0  0  0  0  0  0  0  0  0  0
   -9.2190   -5.3599   -0.0000 C   0  0  0  0  0  0  0  0  0  0  0  0
   -7.8374   -7.3490   -0.0000 C   0  0  0  0  0  0  0  0  0  0  0  0
  -10.1362   -6.5391   -0.0000 O   0  0  0  0  0  0  0  0  0  0  0  0
   -9.6716   -3.9187   -0.0000 C   0  0  0  0  0  0  0  0  0  0  0  0
   -9.2786   -7.7659   -0.0000 N   0  0  0  0  0  0  0  0  0  0  0  0
   -6.6582   -8.2423   -0.0000 C   0  0  0  0  0  0  0  0  0  0  0  0
  1  2  2  0  0  0  0
  2  3  1  0  0  0  0
  2  4  1  0  0  0  0
  3  5  1  0  0  0  0
  3  6  1  0  0  0  0
  4  7  1  0  0  0  0
  5  8  1  0  0  0  0
  6  9  1  0  0  0  0
  6 10  1  0  0  0  0
  7 11  1  0  0  0  0
  8 12  1  0  0  0  0
  8 13  2  0  0  0  0
  9 14  2  0  0  0  0
  9 15  1  0  0  0  0
 11 16  2  0  0  0  0
 12 17  2  0  0  0  0
 13 18  1  0  0  0  0
 14 19  1  0  0  0  0
 15 20  2  0  0  0  0
 17 21  1  0  0  0  0
 18 22  1  0  0  0  0
 19 23  2  0  0  0  0
 21 24  1  0  0  0  0
 22 25  1  0  0  0  0
 24 26  2  0  0  0  0
 24 27  1  0  0  0  0
 26 28  1  0  0  0  0
 26 29  1  0  0  0  0
 27 30  2  0  0  0  0
 27 31  1  0  0  0  0
  5  7  2  0  0  0  0
 12 16  1  0  0  0  0
 18 21  2  0  0  0  0
 20 23  1  0  0  0  0
 28 30  1  0  0  0  0
M  END
>  <MolRegNo>
1335010

>  <m>
=

>  <Value>
2000

>  <Unit>
nM

>  <Type>
IC50

>  <pValue>
5.7

>  <Ligand Efficiency>
0

>  <Binding Efficiency>
0

>  <Surface Efficiency>
0

>  <Assay Index>
647632

>  <Assay Category>


>  <Assay Organism>


>  <Target ID>
17045

>  <Target Name>
Cytochrome P450 3A4

>  <Target Organism>
Homo sapiens

>  <Target Description>
Target is a single protein chain

>  <Sequence Accession>
P08684

>  <Reference>
Bioorg Med Chem Lett 22 (8), 2963-2967 (2012)

>  <Pubmed ID>
22386529

>  <DOI>
10.1016/j.bmcl.2012.01.125

$$$$
1335011
Actelion Java MolfileCreator 1.0

 31 35  0  0  0  0  0  0  0  0999 V2000
    0.0000   -0.0000   -0.0000 O   0  0  0  0  0  0  0  0  0  0  0  0
   -0.7504   -1.2983   -0.0000 C   0  0  0  0  0  0  0  0  0  0  0  0
   -2.2392   -1.4531   -0.0000 N   0  0  0  0  0  0  0  0  0  0  0  0
   -0.1429   -2.6442   -0.0000 N   0  0  0  0  0  0  0  0  0  0  0  0
   -2.5489   -2.9063   -0.0000 C   0  0  0  0  0  0  0  0  0  0  0  0
   -3.0015   -0.1429   -0.0000 C   0  0  0  0  0  0  0  0  0  0  0  0
   -1.2506   -3.6447   -0.0000 C   0  0  0  0  0  0  0  0  0  0  0  0
   -3.8472   -3.6447   -0.0000 C   0  0  0  0  0  0  0  0  0  0  0  0
   -2.2631    1.1673   -0.0000 C   0  0  0  0  0  0  0  0  0  0  0  0
   -4.5142   -0.1310   -0.0000 C   0  0  0  0  0  0  0  0  0  0  0  0
   -1.2506   -5.1455   -0.0000 C   0  0  0  0  0  0  0  0  0  0  0  0
   -3.8591   -5.1336   -0.0000 C   0  0  0  0  0  0  0  0  0  0  0  0
   -5.1574   -2.8943   -0.0000 C   0  0  0  0  0  0  0  0  0  0  0  0
   -0.7861    1.1792   -0.0000 C   0  0  0  0  0  0  0  0  0  0  0  0
   -3.0254    2.4656   -0.0000 C   0  0  0  0  0  0  0  0  0  0  0  0
   -2.5608   -5.8840   -0.0000 N   0  0  0  0  0  0  0  0  0  0  0  0
   -5.1693   -5.8840   -0.0000 C   0  0  0  0  0  0  0  0  0  0  0  0
   -6.4676   -3.6328   -0.0000 C   0  0  0  0  0  0  0  0  0  0  0  0
   -0.0476    2.4894   -0.0000 C   0  0  0  0  0  0  0  0  0  0  0  0
   -2.2988    3.7758   -0.0000 C   0  0  0  0  0  0  0  0  0  0  0  0
   -6.4795   -5.1217   -0.0000 C   0  0  0  0  0  0  0  0  0  0  0  0
   -7.7778   -2.8705   -0.0000 O   0  0  0  0  0  0  0  0  0  0  0  0
   -0.8099    3.7996   -0.0000 C   0  0  0  0  0  0  0  0  0  0  0  0
   -7.7897   -5.8602   -0.0000 C   0  0  0  0  0  0  0  0  0  0  0  0
   -7.7897   -1.3578   -0.0000 C   0  0  0  0  0  0  0  0  0  0  0  0
   -9.2190   -5.3599   -0.0000 C   0  0  0  0  0  0  0  0  0  0  0  0
   -7.8374   -7.3490   -0.0000 C   0  0  0  0  0  0  0  0  0  0  0  0
  -10.1362   -6.5391   -0.0000 O   0  0  0  0  0  0  0  0  0  0  0  0
   -9.6716   -3.9187   -0.0000 C   0  0  0  0  0  0  0  0  0  0  0  0
   -9.2786   -7.7659   -0.0000 N   0  0  0  0  0  0  0  0  0  0  0  0
   -6.6582   -8.2423   -0.0000 C   0  0  0  0  0  0  0  0  0  0  0  0
  1  2  2  0  0  0  0
  2  3  1  0  0  0  0
  2  4  1  0  0  0  0
  3  5  1  0  0  0  0
  6  3  1  1  0  0  0
  4  7  1  0  0  0  0
  5  8  1  0  0  0  0
  6  9  1  0  0  0  0
  6 10  1  0  0  0  0
  7 11  1  0  0  0  0
  8 12  1  0  0  0  0
  8 13  2  0  0  0  0
  9 14  2  0  0  0  0
  9 15  1  0  0  0  0
 11 16  2  0  0  0  0
 12 17  2  0  0  0  0
 13 18  1  0  0  0  0
 14 19  1  0  0  0  0
 15 20  2  0  0  0  0
 17 21  1  0  0  0  0
 18 22  1  0  0  0  0
 19 23  2  0  0  0  0
 21 24  1  0  0  0  0
 22 25  1  0  0  0  0
 24 26  2  0  0  0  0
 24 27  1  0  0  0  0
 26 28  1  0  0  0  0
 26 29  1  0  0  0  0
 27 30  2  0  0  0  0
 27 31  1  0  0  0  0
  5  7  2  0  0  0  0
 12 16  1  0  0  0  0
 18 21  2  0  0  0  0
 20 23  1  0  0  0  0
 28 30  1  0  0  0  0
M  END
>  <MolRegNo>
1335011

>  <m>
=

>  <Value>
1500

>  <Unit>
nM

>  <Type>
IC50

>  <pValue>
5.82

>  <Ligand Efficiency>
0

>  <Binding Efficiency>
0

>  <Surface Efficiency>
0

>  <Assay Index>
647632

>  <Assay Category>


>  <Assay Organism>


>  <Target ID>
17045

>  <Target Name>
Cytochrome P450 3A4

>  <Target Organism>
Homo sapiens

>  <Target Description>
Target is a single protein chain

>  <Sequence Accession>
P08684

>  <Reference>
Bioorg Med Chem Lett 22 (8), 2963-2967 (2012)

>  <Pubmed ID>
22386529

>  <DOI>
10.1016/j.bmcl.2012.01.125

$$$$
1335013
Actelion Java MolfileCreator 1.0

 32 36  0  0  0  0  0  0  0  0999 V2000
    0.0000   -0.0000   -0.0000 O   0  0  0  0  0  0  0  0  0  0  0  0
   -0.7503   -1.2862   -0.0000 C   0  0  0  0  0  0  0  0  0  0  0  0
   -2.2390   -1.4411   -0.0000 N   0  0  0  0  0  0  0  0  0  0  0  0
   -0.1429   -2.6320   -0.0000 N   0  0  0  0  0  0  0  0  0  0  0  0
   -2.5487   -2.8941   -0.0000 C   0  0  0  0  0  0  0  0  0  0  0  0
   -3.0012   -0.1310   -0.0000 C   0  0  0  0  0  0  0  0  0  0  0  0
   -1.2505   -3.6325   -0.0000 C   0  0  0  0  0  0  0  0  0  0  0  0
   -3.8468   -3.6325   -0.0000 C   0  0  0  0  0  0  0  0  0  0  0  0
   -2.2628    1.1791   -0.0000 C   0  0  0  0  0  0  0  0  0  0  0  0
   -4.5138   -0.1191   -0.0000 C   0  0  0  0  0  0  0  0  0  0  0  0
   -1.2505   -5.1331   -0.0000 C   0  0  0  0  0  0  0  0  0  0  0  0
   -3.8587   -5.1212   -0.0000 C   0  0  0  0  0  0  0  0  0  0  0  0
   -5.1569   -2.8821   -0.0000 C   0  0  0  0  0  0  0  0  0  0  0  0
   -0.7860    1.1910   -0.0000 C   0  0  0  0  0  0  0  0  0  0  0  0
   -3.0251    2.4772   -0.0000 C   0  0  0  0  0  0  0  0  0  0  0  0
   -5.2760    1.1910   -0.0000 C   0  0  0  0  0  0  0  0  0  0  0  0
   -2.5606   -5.8715   -0.0000 N   0  0  0  0  0  0  0  0  0  0  0  0
   -5.1688   -5.8715   -0.0000 C   0  0  0  0  0  0  0  0  0  0  0  0
   -6.4670   -3.6205   -0.0000 C   0  0  0  0  0  0  0  0  0  0  0  0
   -0.0476    2.5010   -0.0000 C   0  0  0  0  0  0  0  0  0  0  0  0
   -2.2986    3.7873   -0.0000 C   0  0  0  0  0  0  0  0  0  0  0  0
   -6.4789   -5.1093   -0.0000 C   0  0  0  0  0  0  0  0  0  0  0  0
   -7.7770   -2.8583   -0.0000 O   0  0  0  0  0  0  0  0  0  0  0  0
   -0.8099    3.8111   -0.0000 C   0  0  0  0  0  0  0  0  0  0  0  0
   -7.7889   -5.8477   -0.0000 C   0  0  0  0  0  0  0  0  0  0  0  0
   -7.7889   -1.3458   -0.0000 C   0  0  0  0  0  0  0  0  0  0  0  0
   -9.2181   -5.3474   -0.0000 C   0  0  0  0  0  0  0  0  0  0  0  0
   -7.8366   -7.3364   -0.0000 C   0  0  0  0  0  0  0  0  0  0  0  0
  -10.1351   -6.5265   -0.0000 O   0  0  0  0  0  0  0  0  0  0  0  0
   -9.6707   -3.9064   -0.0000 C   0  0  0  0  0  0  0  0  0  0  0  0
   -9.2776   -7.7532   -0.0000 N   0  0  0  0  0  0  0  0  0  0  0  0
   -6.6575   -8.2296   -0.0000 C   0  0  0  0  0  0  0  0  0  0  0  0
  1  2  2  0  0  0  0
  2  3  1  0  0  0  0
  2  4  1  0  0  0  0
  3  5  1  0  0  0  0
  6  3  1  1  0  0  0
  4  7  1  0  0  0  0
  5  8  1  0  0  0  0
  6  9  1  0  0  0  0
  6 10  1  0  0  0  0
  7 11  1  0  0  0  0
  8 12  1  0  0  0  0
  8 13  2  0  0  0  0
  9 14  2  0  0  0  0
  9 15  1  0  0  0  0
 10 16  1  0  0  0  0
 11 17  2  0  0  0  0
 12 18  2  0  0  0  0
 13 19  1  0  0  0  0
 14 20  1  0  0  0  0
 15 21  2  0  0  0  0
 18 22  1  0  0  0  0
 19 23  1  0  0  0  0
 20 24  2  0  0  0  0
 22 25  1  0  0  0  0
 23 26  1  0  0  0  0
 25 27  2  0  0  0  0
 25 28  1  0  0  0  0
 27 29  1  0  0  0  0
 27 30  1  0  0  0  0
 28 31  2  0  0  0  0
 28 32  1  0  0  0  0
  5  7  2  0  0  0  0
 12 17  1  0  0  0  0
 19 22  2  0  0  0  0
 21 24  1  0  0  0  0
 29 31  1  0  0  0  0
M  END
>  <MolRegNo>
1335013

>  <m>
=

>  <Value>
2400

>  <Unit>
nM

>  <Type>
IC50

>  <pValue>
5.62

>  <Ligand Efficiency>
0

>  <Binding Efficiency>
0

>  <Surface Efficiency>
0

>  <Assay Index>
647632

>  <Assay Category>


>  <Assay Organism>


>  <Target ID>
17045

>  <Target Name>
Cytochrome P450 3A4

>  <Target Organism>
Homo sapiens

>  <Target Description>
Target is a single protein chain

>  <Sequence Accession>
P08684

>  <Reference>
Bioorg Med Chem Lett 22 (8), 2963-2967 (2012)

>  <Pubmed ID>
22386529

>  <DOI>
10.1016/j.bmcl.2012.01.125

$$$$
1335014
Actelion Java MolfileCreator 1.0

 31 35  0  0  1  0  0  0  0  0999 V2000
    0.0000   -0.0000   -0.0000 O   0  0  0  0  0  0  0  0  0  0  0  0
   -0.6213   -1.0599   -0.0000 C   0  0  0  0  0  0  0  0  0  0  0  0
   -2.1807   -1.2182   -0.0000 N   0  0  0  0  0  0  0  0  0  0  0  0
    0.0122   -2.4609   -0.0000 N   0  0  0  0  0  0  0  0  0  0  0  0
   -2.5096   -2.7167   -0.0000 C   0  0  0  0  0  0  0  0  0  0  0  0
   -3.2284   -0.0609   -0.0000 C   0  0  0  0  0  0  0  0  0  0  0  0
   -1.1695   -3.4842   -0.0000 C   0  0  0  0  0  0  0  0  0  0  0  0
   -3.8618   -3.4842   -0.0000 C   0  0  0  0  0  0  0  0  0  0  0  0
   -2.7654    1.4253   -0.0000 C   0  0  0  0  0  0  0  0  0  0  0  0
   -4.4466   -0.3046   -0.0000 C   0  0  0  0  0  0  0  0  0  0  0  0
   -1.1817   -5.0192   -0.0000 C   0  0  0  0  0  0  0  0  0  0  0  0
   -3.8740   -5.0192   -0.0000 C   0  0  0  0  0  0  0  0  0  0  0  0
   -5.1897   -2.6923   -0.0000 C   0  0  0  0  0  0  0  0  0  0  0  0
   -3.8131    2.5827   -0.0000 N   0  0  0  0  0  0  0  0  0  0  0  0
   -1.2670    1.7543   -0.0000 C   0  0  0  0  0  0  0  0  0  0  0  0
   -2.5340   -5.7258   -0.0000 N   0  0  0  0  0  0  0  0  0  0  0  0
   -5.2019   -5.7258   -0.0000 C   0  0  0  0  0  0  0  0  0  0  0  0
   -6.5664   -3.4598   -0.0000 C   0  0  0  0  0  0  0  0  0  0  0  0
   -3.3502    4.0568   -0.0000 C   0  0  0  0  0  0  0  0  0  0  0  0
   -0.8040    3.2284   -0.0000 C   0  0  0  0  0  0  0  0  0  0  0  0
   -6.5785   -4.9948   -0.0000 C   0  0  0  0  0  0  0  0  0  0  0  0
   -7.9064   -2.6680   -0.0000 O   0  0  0  0  0  0  0  0  0  0  0  0
   -1.8517    4.3857   -0.0000 C   0  0  0  0  0  0  0  0  0  0  0  0
   -7.9064   -5.7745   -0.0000 C   0  0  0  0  0  0  0  0  0  0  0  0
   -7.9186   -1.4253   -0.0000 C   0  0  0  0  0  0  0  0  0  0  0  0
   -8.0526   -7.2851   -0.0000 C   0  0  0  0  0  0  0  0  0  0  0  0
   -9.3074   -5.1288   -0.0000 C   0  0  0  0  0  0  0  0  0  0  0  0
   -9.5754   -7.6019   -0.0000 O   0  0  0  0  0  0  0  0  0  0  0  0
   -7.1389   -8.0892   -0.0000 C   0  0  0  0  0  0  0  0  0  0  0  0
  -10.3429   -6.2618   -0.0000 N   0  0  0  0  0  0  0  0  0  0  0  0
   -9.5754   -3.9106   -0.0000 C   0  0  0  0  0  0  0  0  0  0  0  0
  1  2  2  0  0  0  0
  2  3  1  0  0  0  0
  2  4  1  0  0  0  0
  3  5  1  0  0  0  0
  6  3  1  6  0  0  0
  4  7  1  0  0  0  0
  5  8  1  0  0  0  0
  6  9  1  0  0  0  0
  6 10  1  0  0  0  0
  7 11  1  0  0  0  0
  8 12  1  0  0  0  0
  8 13  2  0  0  0  0
  9 14  2  0  0  0  0
  9 15  1  0  0  0  0
 11 16  2  0  0  0  0
 12 17  2  0  0  0  0
 13 18  1  0  0  0  0
 14 19  1  0  0  0  0
 15 20  2  0  0  0  0
 17 21  1  0  0  0  0
 18 22  1  0  0  0  0
 19 23  2  0  0  0  0
 21 24  1  0  0  0  0
 22 25  1  0  0  0  0
 24 26  2  0  0  0  0
 24 27  1  0  0  0  0
 26 28  1  0  0  0  0
 26 29  1  0  0  0  0
 27 30  2  0  0  0  0
 27 31  1  0  0  0  0
  5  7  2  0  0  0  0
 12 16  1  0  0  0  0
 18 21  2  0  0  0  0
 20 23  1  0  0  0  0
 28 30  1  0  0  0  0
M  END
>  <MolRegNo>
1335014

>  <m>
=

>  <Value>
9700

>  <Unit>
nM

>  <Type>
IC50

>  <pValue>
5.01

>  <Ligand Efficiency>
0

>  <Binding Efficiency>
0

>  <Surface Efficiency>
0

>  <Assay Index>
647632

>  <Assay Category>


>  <Assay Organism>


>  <Target ID>
17045

>  <Target Name>
Cytochrome P450 3A4

>  <Target Organism>
Homo sapiens

>  <Target Description>
Target is a single protein chain

>  <Sequence Accession>
P08684

>  <Reference>
Bioorg Med Chem Lett 22 (8), 2963-2967 (2012)

>  <Pubmed ID>
22386529

>  <DOI>
10.1016/j.bmcl.2012.01.125

$$$$
1291608
Actelion Java MolfileCreator 1.0

 33 37  0  0  0  0  0  0  0  0999 V2000
    0.0000   -0.0000   -0.0000 S   0  0  0  0  0  0  0  0  0  0  0  0
    1.4179   -0.4490   -0.0000 C   0  0  0  0  0  0  0  0  0  0  0  0
   -0.8980   -1.2052   -0.0000 C   0  0  0  0  0  0  0  0  0  0  0  0
    2.7059    0.3072   -0.0000 C   0  0  0  0  0  0  0  0  0  0  0  0
    1.4061   -1.9378   -0.0000 C   0  0  0  0  0  0  0  0  0  0  0  0
   -0.0236   -2.4105   -0.0000 C   0  0  0  0  0  0  0  0  0  0  0  0
    2.6941    1.8197   -0.0000 C   0  0  0  0  0  0  0  0  0  0  0  0
    3.9938   -0.4254   -0.0000 C   0  0  0  0  0  0  0  0  0  0  0  0
    2.6941   -2.6704   -0.0000 C   0  0  0  0  0  0  0  0  0  0  0  0
   -0.4963   -3.8284   -0.0000 C   0  0  0  0  0  0  0  0  0  0  0  0
    3.8993    2.7177   -0.0000 C   0  0  0  0  0  0  0  0  0  0  0  0
    1.4652    2.7177   -0.0000 C   0  0  0  0  0  0  0  0  0  0  0  0
    3.9820   -1.9142   -0.0000 N   0  0  0  0  0  0  0  0  0  0  0  0
    2.6822   -4.1593   -0.0000 N   0  0  0  0  0  0  0  0  0  0  0  0
    0.4963   -4.9273   -0.0000 C   0  0  0  0  0  0  0  0  0  0  0  0
   -1.9733   -4.1238   -0.0000 C   0  0  0  0  0  0  0  0  0  0  0  0
    3.4267    4.1593   -0.0000 N   0  0  0  0  0  0  0  0  0  0  0  0
    1.9142    4.1593   -0.0000 N   0  0  0  0  0  0  0  0  0  0  0  0
    0.0236   -6.3452   -0.0000 C   0  0  0  0  0  0  0  0  0  0  0  0
   -2.4459   -5.5417   -0.0000 C   0  0  0  0  0  0  0  0  0  0  0  0
    1.0162    5.3881   -0.0000 C   0  0  0  0  0  0  0  0  0  0  0  0
   -1.4534   -6.6406   -0.0000 C   0  0  0  0  0  0  0  0  0  0  0  0
   -1.9260   -8.0586   -0.0000 N   0  0  0  0  0  0  0  0  0  0  0  0
   -3.4030   -8.3540   -0.0000 C   0  0  0  0  0  0  0  0  0  0  0  0
   -4.4192   -7.2314   -0.0000 O   0  0  0  0  0  0  0  0  0  0  0  0
   -3.8757   -9.7719   -0.0000 N   0  0  0  0  0  0  0  0  0  0  0  0
   -5.3527  -10.0673   -0.0000 C   0  0  0  0  0  0  0  0  0  0  0  0
   -5.8253  -11.4852   -0.0000 C   0  0  0  0  0  0  0  0  0  0  0  0
   -6.3689   -8.9448   -0.0000 C   0  0  0  0  0  0  0  0  0  0  0  0
   -7.3023  -11.7806   -0.0000 C   0  0  0  0  0  0  0  0  0  0  0  0
   -7.8459   -9.2402   -0.0000 C   0  0  0  0  0  0  0  0  0  0  0  0
   -7.7750  -13.1986   -0.0000 F   0  0  0  0  0  0  0  0  0  0  0  0
   -8.3185  -10.6581   -0.0000 C   0  0  0  0  0  0  0  0  0  0  0  0
  1  2  1  0  0  0  0
  1  3  1  0  0  0  0
  2  4  2  0  0  0  0
  2  5  1  0  0  0  0
  3  6  2  0  0  0  0
  4  7  1  0  0  0  0
  4  8  1  0  0  0  0
  5  9  2  0  0  0  0
  6 10  1  0  0  0  0
  7 11  1  0  0  0  0
  7 12  2  0  0  0  0
  8 13  2  0  0  0  0
  9 14  1  0  0  0  0
 10 15  2  0  0  0  0
 10 16  1  0  0  0  0
 11 17  2  0  0  0  0
 12 18  1  0  0  0  0
 15 19  1  0  0  0  0
 16 20  2  0  0  0  0
 18 21  1  0  0  0  0
 19 22  2  0  0  0  0
 22 23  1  0  0  0  0
 23 24  1  0  0  0  0
 24 25  2  0  0  0  0
 24 26  1  0  0  0  0
 26 27  1  0  0  0  0
 27 28  2  0  0  0  0
 27 29  1  0  0  0  0
 28 30  1  0  0  0  0
 29 31  2  0  0  0  0
 30 32  1  0  0  0  0
 30 33  2  0  0  0  0
  5  6  1  0  0  0  0
  9 13  1  0  0  0  0
 17 18  1  0  0  0  0
 20 22  1  0  0  0  0
 31 33  1  0  0  0  0
M  END
>  <MolRegNo>
1291608

>  <m>
=

>  <Value>
7900

>  <Unit>
nM

>  <Type>
IC50

>  <pValue>
5.1

>  <Ligand Efficiency>
0

>  <Binding Efficiency>
0

>  <Surface Efficiency>
0

>  <Assay Index>
650800

>  <Assay Category>


>  <Assay Organism>


>  <Target ID>
17045

>  <Target Name>
Cytochrome P450 3A4

>  <Target Organism>
Homo sapiens

>  <Target Description>
Target is a single protein chain

>  <Sequence Accession>
P08684

>  <Reference>
Bioorg Med Chem Lett 22 (9), 3208-3212 (2012)

>  <Pubmed ID>
22465635

>  <DOI>
10.1016/j.bmcl.2012.03.035

$$$$
1339635
Actelion Java MolfileCreator 1.0

 36 38  0  0  0  0  0  0  0  0999 V2000
    0.0000   -0.0000   -0.0000 Cl  0  0  0  0  0  0  0  0  0  0  0  0
   -1.0749    1.0749   -0.0000 C   0  0  0  0  0  0  0  0  0  0  0  0
   -1.0868    2.5869   -0.0000 C   0  0  0  0  0  0  0  0  0  0  0  0
   -2.3861    0.3308   -0.0000 C   0  0  0  0  0  0  0  0  0  0  0  0
   -2.3979    3.3429   -0.0000 C   0  0  0  0  0  0  0  0  0  0  0  0
   -3.6973    1.0986   -0.0000 C   0  0  0  0  0  0  0  0  0  0  0  0
   -3.7091    2.6106   -0.0000 C   0  0  0  0  0  0  0  0  0  0  0  0
   -2.4098    4.8550   -0.0000 C   0  0  0  0  0  0  0  0  0  0  0  0
   -3.7210    5.6110   -0.0000 O   0  0  0  0  0  0  0  0  0  0  0  0
   -1.1222    5.6228   -0.0000 C   0  0  0  0  0  0  0  0  0  0  0  0
   -5.0321    4.8786   -0.0000 C   0  0  0  0  0  0  0  0  0  0  0  0
    0.1654    4.8904   -0.0000 C   0  0  0  0  0  0  0  0  0  0  0  0
   -1.1340    7.1230   -0.0000 C   0  0  0  0  0  0  0  0  0  0  0  0
   -6.3433    5.6346   -0.0000 C   0  0  0  0  0  0  0  0  0  0  0  0
    1.4411    5.6464   -0.0000 N   0  0  0  0  0  0  0  0  0  0  0  0
    0.1536    7.8790   -0.0000 C   0  0  0  0  0  0  0  0  0  0  0  0
   -7.6545    4.9022   -0.0000 N   0  0  0  0  0  0  0  0  0  0  0  0
    2.7287    4.9022   -0.0000 C   0  0  0  0  0  0  0  0  0  0  0  0
    1.4411    7.1584   -0.0000 C   0  0  0  0  0  0  0  0  0  0  0  0
   -8.9657    5.6582   -0.0000 C   0  0  0  0  0  0  0  0  0  0  0  0
    2.7169    3.4138   -0.0000 O   0  0  0  0  0  0  0  0  0  0  0  0
    4.0163    5.6582   -0.0000 N   0  0  0  0  0  0  0  0  0  0  0  0
   -8.9775    7.1702   -0.0000 O   0  0  0  0  0  0  0  0  0  0  0  0
  -10.2769    4.9258   -0.0000 O   0  0  0  0  0  0  0  0  0  0  0  0
    5.3038    4.9140   -0.0000 C   0  0  0  0  0  0  0  0  0  0  0  0
  -11.5881    5.6818   -0.0000 C   0  0  0  0  0  0  0  0  0  0  0  0
    6.5914    5.6700   -0.0000 C   0  0  0  0  0  0  0  0  0  0  0  0
    5.2920    3.4256   -0.0000 C   0  0  0  0  0  0  0  0  0  0  0  0
    6.5796    7.1820   -0.0000 N   0  0  0  0  0  0  0  0  0  0  0  0
    6.5796    2.6814   -0.0000 C   0  0  0  0  0  0  0  0  0  0  0  0
    7.8672    7.9380   -0.0000 C   0  0  0  0  0  0  0  0  0  0  0  0
    6.5560    1.1931   -0.0000 C   0  0  0  0  0  0  0  0  0  0  0  0
    7.8672    3.4493   -0.0000 C   0  0  0  0  0  0  0  0  0  0  0  0
    7.8317    0.4489   -0.0000 O   0  0  0  0  0  0  0  0  0  0  0  0
    9.1547    2.7051   -0.0000 C   0  0  0  0  0  0  0  0  0  0  0  0
    9.1311    1.2049   -0.0000 C   0  0  0  0  0  0  0  0  0  0  0  0
  1  2  1  0  0  0  0
  2  3  2  0  0  0  0
  2  4  1  0  0  0  0
  3  5  1  0  0  0  0
  4  6  2  0  0  0  0
  5  7  2  0  0  0  0
  5  8  1  0  0  0  0
  8  9  1  1  0  0  0
  8 10  1  0  0  0  0
  9 11  1  0  0  0  0
 10 12  1  1  0  0  0
 10 13  1  0  0  0  0
 11 14  1  0  0  0  0
 12 15  1  0  0  0  0
 13 16  1  0  0  0  0
 14 17  1  0  0  0  0
 15 18  1  0  0  0  0
 15 19  1  0  0  0  0
 17 20  1  0  0  0  0
 18 21  2  0  0  0  0
 18 22  1  0  0  0  0
 20 23  2  0  0  0  0
 20 24  1  0  0  0  0
 25 22  1  1  0  0  0
 24 26  1  0  0  0  0
 25 27  1  0  0  0  0
 25 28  1  0  0  0  0
 27 29  1  0  0  0  0
 30 28  1  6  0  0  0
 29 31  1  0  0  0  0
 30 32  1  0  0  0  0
 30 33  1  0  0  0  0
 32 34  1  0  0  0  0
 33 35  1  0  0  0  0
 34 36  1  0  0  0  0
  6  7  1  0  0  0  0
 16 19  1  0  0  0  0
 35 36  1  0  0  0  0
M  END
>  <MolRegNo>
1339635

>  <m>
=

>  <Value>
28000

>  <Unit>
nM

>  <Type>
IC50

>  <pValue>
4.55

>  <Ligand Efficiency>
0

>  <Binding Efficiency>
0

>  <Surface Efficiency>
0

>  <Assay Index>
651840

>  <Assay Category>


>  <Assay Organism>
Homo sapiens

>  <Target ID>
17045

>  <Target Name>
Cytochrome P450 3A4

>  <Target Organism>
Homo sapiens

>  <Target Description>
Target is a single protein chain

>  <Sequence Accession>
P08684

>  <Reference>
ACS Med Chem Lett 2 (10), 747-751 (2011)

>  <Pubmed ID>
24900262

>  <DOI>
10.1021/ml200137x

$$$$
1338498
Actelion Java MolfileCreator 1.0

 37 39  0  0  0  0  0  0  0  0999 V2000
    0.0000   -0.0000   -0.0000 Cl  0  0  0  0  0  0  0  0  0  0  0  0
   -1.3121    0.7565   -0.0000 C   0  0  0  0  0  0  0  0  0  0  0  0
   -1.3239    2.2695   -0.0000 C   0  0  0  0  0  0  0  0  0  0  0  0
   -2.6241    0.0118   -0.0000 C   0  0  0  0  0  0  0  0  0  0  0  0
   -2.6359    3.0260   -0.0000 C   0  0  0  0  0  0  0  0  0  0  0  0
   -3.9362    0.7683   -0.0000 C   0  0  0  0  0  0  0  0  0  0  0  0
   -3.9480    2.2813   -0.0000 C   0  0  0  0  0  0  0  0  0  0  0  0
   -2.6478    4.5390   -0.0000 C   0  0  0  0  0  0  0  0  0  0  0  0
   -3.9598    5.2955   -0.0000 O   0  0  0  0  0  0  0  0  0  0  0  0
   -1.3593    5.3073   -0.0000 C   0  0  0  0  0  0  0  0  0  0  0  0
   -5.2719    4.5627   -0.0000 C   0  0  0  0  0  0  0  0  0  0  0  0
   -0.0709    4.5745   -0.0000 C   0  0  0  0  0  0  0  0  0  0  0  0
   -1.3712    6.8085   -0.0000 C   0  0  0  0  0  0  0  0  0  0  0  0
   -6.5721    5.3192   -0.0000 C   0  0  0  0  0  0  0  0  0  0  0  0
    1.2057    5.3310   -0.0000 N   0  0  0  0  0  0  0  0  0  0  0  0
   -0.0827    7.5650   -0.0000 C   0  0  0  0  0  0  0  0  0  0  0  0
   -7.8842    4.5863   -0.0000 N   0  0  0  0  0  0  0  0  0  0  0  0
    2.4941    4.5981   -0.0000 C   0  0  0  0  0  0  0  0  0  0  0  0
    1.2057    6.8440   -0.0000 C   0  0  0  0  0  0  0  0  0  0  0  0
   -9.1962    5.3428   -0.0000 C   0  0  0  0  0  0  0  0  0  0  0  0
    2.4823    3.1087   -0.0000 O   0  0  0  0  0  0  0  0  0  0  0  0
    3.7825    5.3546   -0.0000 N   0  0  0  0  0  0  0  0  0  0  0  0
   -9.2080    6.8558   -0.0000 O   0  0  0  0  0  0  0  0  0  0  0  0
  -10.5083    4.6099   -0.0000 O   0  0  0  0  0  0  0  0  0  0  0  0
    5.0709    4.6218   -0.0000 C   0  0  0  0  0  0  0  0  0  0  0  0
  -11.8203    5.3664   -0.0000 C   0  0  0  0  0  0  0  0  0  0  0  0
    5.0591    3.1324   -0.0000 C   0  0  0  0  0  0  0  0  0  0  0  0
    6.3593    5.3783   -0.0000 C   0  0  0  0  0  0  0  0  0  0  0  0
    3.7470    2.3995   -0.0000 O   0  0  0  0  0  0  0  0  0  0  0  0
    6.3475    2.3877   -0.0000 C   0  0  0  0  0  0  0  0  0  0  0  0
    6.3475    6.8913   -0.0000 N   0  0  0  0  0  0  0  0  0  0  0  0
    6.3239    0.8983   -0.0000 C   0  0  0  0  0  0  0  0  0  0  0  0
    7.6359    3.1560   -0.0000 C   0  0  0  0  0  0  0  0  0  0  0  0
    7.6359    7.6596   -0.0000 C   0  0  0  0  0  0  0  0  0  0  0  0
    7.6005    0.1655   -0.0000 C   0  0  0  0  0  0  0  0  0  0  0  0
    8.9244    2.3995   -0.0000 C   0  0  0  0  0  0  0  0  0  0  0  0
    8.9007    0.9102   -0.0000 C   0  0  0  0  0  0  0  0  0  0  0  0
  1  2  1  0  0  0  0
  2  3  2  0  0  0  0
  2  4  1  0  0  0  0
  3  5  1  0  0  0  0
  4  6  2  0  0  0  0
  5  7  2  0  0  0  0
  5  8  1  0  0  0  0
  8  9  1  1  0  0  0
  8 10  1  0  0  0  0
  9 11  1  0  0  0  0
 10 12  1  1  0  0  0
 10 13  1  0  0  0  0
 11 14  1  0  0  0  0
 12 15  1  0  0  0  0
 13 16  1  0  0  0  0
 14 17  1  0  0  0  0
 15 18  1  0  0  0  0
 15 19  1  0  0  0  0
 17 20  1  0  0  0  0
 18 21  2  0  0  0  0
 18 22  1  0  0  0  0
 20 23  2  0  0  0  0
 20 24  1  0  0  0  0
 25 22  1  1  0  0  0
 24 26  1  0  0  0  0
 25 27  1  0  0  0  0
 25 28  1  0  0  0  0
 27 29  1  1  0  0  0
 27 30  1  0  0  0  0
 28 31  1  0  0  0  0
 30 32  1  0  0  0  0
 30 33  1  0  0  0  0
 31 34  1  0  0  0  0
 32 35  1  0  0  0  0
 33 36  1  0  0  0  0
 35 37  1  0  0  0  0
  6  7  1  0  0  0  0
 16 19  1  0  0  0  0
 36 37  1  0  0  0  0
M  END
>  <MolRegNo>
1338498

>  <m>
=

>  <Value>
7100

>  <Unit>
nM

>  <Type>
IC50

>  <pValue>
5.15

>  <Ligand Efficiency>
0

>  <Binding Efficiency>
0

>  <Surface Efficiency>
0

>  <Assay Index>
651840

>  <Assay Category>


>  <Assay Organism>
Homo sapiens

>  <Target ID>
17045

>  <Target Name>
Cytochrome P450 3A4

>  <Target Organism>
Homo sapiens

>  <Target Description>
Target is a single protein chain

>  <Sequence Accession>
P08684

>  <Reference>
ACS Med Chem Lett 2 (10), 747-751 (2011)

>  <Pubmed ID>
24900262

>  <DOI>
10.1021/ml200137x

$$$$
1339636
Actelion Java MolfileCreator 1.0

 35 37  0  0  0  0  0  0  0  0999 V2000
    0.0000   -0.0000   -0.0000 Cl  0  0  0  0  0  0  0  0  0  0  0  0
   -1.3177    0.7598   -0.0000 C   0  0  0  0  0  0  0  0  0  0  0  0
   -1.3296    2.2674   -0.0000 C   0  0  0  0  0  0  0  0  0  0  0  0
   -2.6354    0.0119   -0.0000 C   0  0  0  0  0  0  0  0  0  0  0  0
   -0.0475    3.0390   -0.0000 F   0  0  0  0  0  0  0  0  0  0  0  0
   -2.6354    3.0271   -0.0000 C   0  0  0  0  0  0  0  0  0  0  0  0
   -3.9531    0.7716   -0.0000 C   0  0  0  0  0  0  0  0  0  0  0  0
   -3.9531    2.2911   -0.0000 C   0  0  0  0  0  0  0  0  0  0  0  0
   -2.6473    4.5348   -0.0000 C   0  0  0  0  0  0  0  0  0  0  0  0
   -2.6710    6.0543   -0.0000 O   0  0  0  0  0  0  0  0  0  0  0  0
   -1.3652    5.2945   -0.0000 C   0  0  0  0  0  0  0  0  0  0  0  0
   -3.9531    5.2945   -0.0000 C   0  0  0  0  0  0  0  0  0  0  0  0
   -0.0831    4.5585   -0.0000 C   0  0  0  0  0  0  0  0  0  0  0  0
   -1.3889    6.8022   -0.0000 C   0  0  0  0  0  0  0  0  0  0  0  0
   -5.2589    4.5585   -0.0000 C   0  0  0  0  0  0  0  0  0  0  0  0
    1.1990    5.3183   -0.0000 N   0  0  0  0  0  0  0  0  0  0  0  0
   -0.0950    7.5619   -0.0000 C   0  0  0  0  0  0  0  0  0  0  0  0
   -6.5647    5.3183   -0.0000 C   0  0  0  0  0  0  0  0  0  0  0  0
    2.4811    4.5704   -0.0000 C   0  0  0  0  0  0  0  0  0  0  0  0
    1.1990    6.8259   -0.0000 C   0  0  0  0  0  0  0  0  0  0  0  0
   -7.8706    4.5823   -0.0000 C   0  0  0  0  0  0  0  0  0  0  0  0
    2.4692    3.0865   -0.0000 O   0  0  0  0  0  0  0  0  0  0  0  0
    3.7750    5.3301   -0.0000 N   0  0  0  0  0  0  0  0  0  0  0  0
   -9.1764    5.3420   -0.0000 O   0  0  0  0  0  0  0  0  0  0  0  0
    5.0571    4.5823   -0.0000 C   0  0  0  0  0  0  0  0  0  0  0  0
  -10.4822    4.6060   -0.0000 C   0  0  0  0  0  0  0  0  0  0  0  0
    6.3511    5.3420   -0.0000 C   0  0  0  0  0  0  0  0  0  0  0  0
    6.3392    6.8496   -0.0000 N   0  0  0  0  0  0  0  0  0  0  0  0
    7.6331    4.5941   -0.0000 C   0  0  0  0  0  0  0  0  0  0  0  0
    7.6213    3.1102   -0.0000 C   0  0  0  0  0  0  0  0  0  0  0  0
    6.3036    2.3861   -0.0000 C   0  0  0  0  0  0  0  0  0  0  0  0
    8.9033    2.3742   -0.0000 C   0  0  0  0  0  0  0  0  0  0  0  0
    6.2798    0.9022   -0.0000 C   0  0  0  0  0  0  0  0  0  0  0  0
    8.8796    0.8785   -0.0000 C   0  0  0  0  0  0  0  0  0  0  0  0
    7.5619    0.1543   -0.0000 C   0  0  0  0  0  0  0  0  0  0  0  0
  1  2  1  0  0  0  0
  2  3  2  0  0  0  0
  2  4  1  0  0  0  0
  3  5  1  0  0  0  0
  3  6  1  0  0  0  0
  4  7  2  0  0  0  0
  6  8  2  0  0  0  0
  6  9  1  0  0  0  0
  9 10  1  1  0  0  0
  9 11  1  0  0  0  0
  9 12  1  0  0  0  0
 11 13  1  6  0  0  0
 11 14  1  0  0  0  0
 12 15  1  0  0  0  0
 13 16  1  0  0  0  0
 14 17  1  0  0  0  0
 15 18  1  0  0  0  0
 16 19  1  0  0  0  0
 16 20  1  0  0  0  0
 18 21  1  0  0  0  0
 19 22  2  0  0  0  0
 19 23  1  0  0  0  0
 21 24  1  0  0  0  0
 23 25  1  0  0  0  0
 24 26  1  0  0  0  0
 25 27  1  0  0  0  0
 27 28  1  1  0  0  0
 27 29  1  0  0  0  0
 29 30  1  0  0  0  0
 30 31  1  0  0  0  0
 30 32  1  0  0  0  0
 31 33  1  0  0  0  0
 32 34  1  0  0  0  0
 33 35  1  0  0  0  0
  7  8  1  0  0  0  0
 17 20  1  0  0  0  0
 34 35  1  0  0  0  0
M  END
>  <MolRegNo>
1339636

>  <m>
=

>  <Value>
2910

>  <Unit>
nM

>  <Type>
IC50

>  <pValue>
5.54

>  <Ligand Efficiency>
0

>  <Binding Efficiency>
0

>  <Surface Efficiency>
0

>  <Assay Index>
651840

>  <Assay Category>


>  <Assay Organism>
Homo sapiens

>  <Target ID>
17045

>  <Target Name>
Cytochrome P450 3A4

>  <Target Organism>
Homo sapiens

>  <Target Description>
Target is a single protein chain

>  <Sequence Accession>
P08684

>  <Reference>
ACS Med Chem Lett 2 (10), 747-751 (2011)

>  <Pubmed ID>
24900262

>  <DOI>
10.1021/ml200137x

$$$$
590683
Actelion Java MolfileCreator 1.0

 36 38  0  0  0  0  0  0  0  0999 V2000
    0.0000   -0.0000   -0.0000 Cl  0  0  0  0  0  0  0  0  0  0  0  0
   -1.3109    0.7558   -0.0000 C   0  0  0  0  0  0  0  0  0  0  0  0
   -1.3227    2.2675   -0.0000 C   0  0  0  0  0  0  0  0  0  0  0  0
   -2.6218    0.0118   -0.0000 C   0  0  0  0  0  0  0  0  0  0  0  0
   -2.6336    3.0234   -0.0000 C   0  0  0  0  0  0  0  0  0  0  0  0
   -3.9327    0.7795   -0.0000 C   0  0  0  0  0  0  0  0  0  0  0  0
   -3.9445    2.2911   -0.0000 C   0  0  0  0  0  0  0  0  0  0  0  0
   -2.6454    4.5350   -0.0000 C   0  0  0  0  0  0  0  0  0  0  0  0
   -3.9564    5.2909   -0.0000 O   0  0  0  0  0  0  0  0  0  0  0  0
   -1.3582    5.3027   -0.0000 C   0  0  0  0  0  0  0  0  0  0  0  0
   -5.2673    4.5469   -0.0000 C   0  0  0  0  0  0  0  0  0  0  0  0
   -0.0709    4.5587   -0.0000 C   0  0  0  0  0  0  0  0  0  0  0  0
   -1.3700    6.8026   -0.0000 C   0  0  0  0  0  0  0  0  0  0  0  0
   -6.5782    5.3027   -0.0000 C   0  0  0  0  0  0  0  0  0  0  0  0
    1.2046    5.3145   -0.0000 N   0  0  0  0  0  0  0  0  0  0  0  0
   -0.0827    7.5584   -0.0000 C   0  0  0  0  0  0  0  0  0  0  0  0
   -7.8891    4.5587   -0.0000 N   0  0  0  0  0  0  0  0  0  0  0  0
    2.4919    4.5705   -0.0000 C   0  0  0  0  0  0  0  0  0  0  0  0
    1.1928    6.8262   -0.0000 C   0  0  0  0  0  0  0  0  0  0  0  0
   -9.2000    5.3145   -0.0000 C   0  0  0  0  0  0  0  0  0  0  0  0
    2.4801    3.0824   -0.0000 O   0  0  0  0  0  0  0  0  0  0  0  0
    3.7792    5.3263   -0.0000 N   0  0  0  0  0  0  0  0  0  0  0  0
   -9.2118    6.8262   -0.0000 O   0  0  0  0  0  0  0  0  0  0  0  0
  -10.5109    4.5705   -0.0000 O   0  0  0  0  0  0  0  0  0  0  0  0
    5.0665    4.5823   -0.0000 C   0  0  0  0  0  0  0  0  0  0  0  0
  -11.8218    5.3263   -0.0000 C   0  0  0  0  0  0  0  0  0  0  0  0
    6.3538    5.3381   -0.0000 C   0  0  0  0  0  0  0  0  0  0  0  0
    5.0547    3.0942   -0.0000 C   0  0  0  0  0  0  0  0  0  0  0  0
    6.3420    6.8498   -0.0000 N   0  0  0  0  0  0  0  0  0  0  0  0
    6.3420    2.3502   -0.0000 C   0  0  0  0  0  0  0  0  0  0  0  0
    7.6293    7.6057   -0.0000 C   0  0  0  0  0  0  0  0  0  0  0  0
    6.3184    0.8621   -0.0000 C   0  0  0  0  0  0  0  0  0  0  0  0
    7.6293    3.1178   -0.0000 C   0  0  0  0  0  0  0  0  0  0  0  0
    7.5938    0.1181   -0.0000 C   0  0  0  0  0  0  0  0  0  0  0  0
    8.9166    2.3738   -0.0000 C   0  0  0  0  0  0  0  0  0  0  0  0
    8.8929    0.8739   -0.0000 C   0  0  0  0  0  0  0  0  0  0  0  0
  1  2  1  0  0  0  0
  2  3  2  0  0  0  0
  2  4  1  0  0  0  0
  3  5  1  0  0  0  0
  4  6  2  0  0  0  0
  5  7  2  0  0  0  0
  5  8  1  0  0  0  0
  8  9  1  1  0  0  0
  8 10  1  0  0  0  0
  9 11  1  0  0  0  0
 10 12  1  1  0  0  0
 10 13  1  0  0  0  0
 11 14  1  0  0  0  0
 12 15  1  0  0  0  0
 13 16  1  0  0  0  0
 14 17  1  0  0  0  0
 15 18  1  0  0  0  0
 15 19  1  0  0  0  0
 17 20  1  0  0  0  0
 18 21  2  0  0  0  0
 18 22  1  0  0  0  0
 20 23  2  0  0  0  0
 20 24  1  0  0  0  0
 25 22  1  1  0  0  0
 24 26  1  0  0  0  0
 25 27  1  0  0  0  0
 25 28  1  0  0  0  0
 27 29  1  0  0  0  0
 28 30  1  0  0  0  0
 29 31  1  0  0  0  0
 30 32  1  0  0  0  0
 30 33  1  0  0  0  0
 32 34  1  0  0  0  0
 33 35  1  0  0  0  0
 34 36  1  0  0  0  0
  6  7  1  0  0  0  0
 16 19  1  0  0  0  0
 35 36  1  0  0  0  0
M  END
>  <MolRegNo>
590683

>  <m>
=

>  <Value>
4600

>  <Unit>
nM

>  <Type>
IC50

>  <pValue>
5.34

>  <Ligand Efficiency>
0

>  <Binding Efficiency>
0

>  <Surface Efficiency>
0

>  <Assay Index>
651840

>  <Assay Category>


>  <Assay Organism>
Homo sapiens

>  <Target ID>
17045

>  <Target Name>
Cytochrome P450 3A4

>  <Target Organism>
Homo sapiens

>  <Target Description>
Target is a single protein chain

>  <Sequence Accession>
P08684

>  <Reference>
ACS Med Chem Lett 2 (10), 747-751 (2011)

>  <Pubmed ID>
24900262

>  <DOI>
10.1021/ml200137x

$$$$
1337864
Actelion Java MolfileCreator 1.0

 33 36  0  0  0  0  0  0  0  0999 V2000
    0.0000   -0.0000   -0.0000 F   0  0  0  0  0  0  0  0  0  0  0  0
   -0.7733   -1.2848   -0.0000 C   0  0  0  0  0  0  0  0  0  0  0  0
   -0.0476   -2.5815   -0.0000 C   0  0  0  0  0  0  0  0  0  0  0  0
   -2.2841   -1.2610   -0.0000 C   0  0  0  0  0  0  0  0  0  0  0  0
    1.4513   -2.5815   -0.0000 C   0  0  0  0  0  0  0  0  0  0  0  0
   -0.8327   -3.8781   -0.0000 C   0  0  0  0  0  0  0  0  0  0  0  0
   -3.0692   -2.5458   -0.0000 C   0  0  0  0  0  0  0  0  0  0  0  0
    2.2008   -1.2729   -0.0000 O   0  0  0  0  0  0  0  0  0  0  0  0
    2.1770   -3.8781   -0.0000 N   0  0  0  0  0  0  0  0  0  0  0  0
   -2.3554   -3.8425   -0.0000 C   0  0  0  0  0  0  0  0  0  0  0  0
    3.6759   -3.8781   -0.0000 C   0  0  0  0  0  0  0  0  0  0  0  0
    4.4135   -2.5696   -0.0000 C   0  0  0  0  0  0  0  0  0  0  0  0
    4.3897   -5.1748   -0.0000 C   0  0  0  0  0  0  0  0  0  0  0  0
    5.9005   -2.5696   -0.0000 C   0  0  0  0  0  0  0  0  0  0  0  0
    5.8886   -5.1748   -0.0000 C   0  0  0  0  0  0  0  0  0  0  0  0
    6.6500   -1.2610   -0.0000 O   0  0  0  0  0  0  0  0  0  0  0  0
    6.6381   -3.8781   -0.0000 C   0  0  0  0  0  0  0  0  0  0  0  0
    8.1489   -1.2610   -0.0000 C   0  0  0  0  0  0  0  0  0  0  0  0
    8.1370   -3.8781   -0.0000 C   0  0  0  0  0  0  0  0  0  0  0  0
    9.0173   -2.6528   -0.0000 O   0  0  0  0  0  0  0  0  0  0  0  0
    8.9935   -5.0916   -0.0000 N   0  0  0  0  0  0  0  0  0  0  0  0
   10.4329   -3.1168   -0.0000 C   0  0  0  0  0  0  0  0  0  0  0  0
   10.4210   -4.6276   -0.0000 N   0  0  0  0  0  0  0  0  0  0  0  0
   11.6463   -2.2246   -0.0000 N   0  0  0  0  0  0  0  0  0  0  0  0
   13.0025   -2.8313   -0.0000 C   0  0  0  0  0  0  0  0  0  0  0  0
   14.2159   -1.9391   -0.0000 C   0  0  0  0  0  0  0  0  0  0  0  0
   15.5721   -2.5458   -0.0000 C   0  0  0  0  0  0  0  0  0  0  0  0
   16.7855   -1.6536   -0.0000 N   0  0  0  0  0  0  0  0  0  0  0  0
   18.1417   -2.2722   -0.0000 C   0  0  0  0  0  0  0  0  0  0  0  0
   16.6189   -0.1428   -0.0000 C   0  0  0  0  0  0  0  0  0  0  0  0
   19.3551   -1.3919   -0.0000 C   0  0  0  0  0  0  0  0  0  0  0  0
   17.8442    0.7376   -0.0000 C   0  0  0  0  0  0  0  0  0  0  0  0
   19.2004    0.1190   -0.0000 C   0  0  0  0  0  0  0  0  0  0  0  0
  1  2  1  0  0  0  0
  2  3  2  0  0  0  0
  2  4  1  0  0  0  0
  3  5  1  0  0  0  0
  3  6  1  0  0  0  0
  4  7  2  0  0  0  0
  5  8  2  0  0  0  0
  5  9  1  0  0  0  0
  6 10  2  0  0  0  0
  9 11  1  0  0  0  0
 11 12  2  0  0  0  0
 11 13  1  0  0  0  0
 12 14  1  0  0  0  0
 13 15  2  0  0  0  0
 14 16  1  0  0  0  0
 14 17  2  0  0  0  0
 16 18  1  0  0  0  0
 17 19  1  0  0  0  0
 19 20  1  0  0  0  0
 19 21  2  0  0  0  0
 20 22  1  0  0  0  0
 21 23  1  0  0  0  0
 22 24  1  0  0  0  0
 24 25  1  0  0  0  0
 25 26  1  0  0  0  0
 26 27  1  0  0  0  0
 27 28  1  0  0  0  0
 28 29  1  0  0  0  0
 28 30  1  0  0  0  0
 29 31  1  0  0  0  0
 30 32  1  0  0  0  0
 31 33  1  0  0  0  0
  7 10  1  0  0  0  0
 15 17  1  0  0  0  0
 22 23  2  0  0  0  0
 32 33  1  0  0  0  0
M  END
>  <MolRegNo>
1337864

>  <m>
=

>  <Value>
48000

>  <Unit>
nM

>  <Type>
IC50

>  <pValue>
4.32

>  <Ligand Efficiency>
0

>  <Binding Efficiency>
0

>  <Surface Efficiency>
0

>  <Assay Index>
649516

>  <Assay Category>


>  <Assay Organism>


>  <Target ID>
17045

>  <Target Name>
Cytochrome P450 3A4

>  <Target Organism>
Homo sapiens

>  <Target Description>
Target is a single protein chain

>  <Sequence Accession>
P08684

>  <Reference>
Bioorg Med Chem Lett 22 (10), 3560-3563 (2012)

>  <Pubmed ID>
22503248

>  <DOI>
10.1016/j.bmcl.2012.03.040

$$$$
1338111
Actelion Java MolfileCreator 1.0

 33 36  0  0  0  0  0  0  0  0999 V2000
    0.0000   -0.0000   -0.0000 F   0  0  0  0  0  0  0  0  0  0  0  0
   -0.0119    1.5076   -0.0000 C   0  0  0  0  0  0  0  0  0  0  0  0
    1.2821    2.2793   -0.0000 C   0  0  0  0  0  0  0  0  0  0  0  0
   -1.3177    2.2674   -0.0000 C   0  0  0  0  0  0  0  0  0  0  0  0
    2.5523    1.5432   -0.0000 C   0  0  0  0  0  0  0  0  0  0  0  0
    1.2702    3.7988   -0.0000 C   0  0  0  0  0  0  0  0  0  0  0  0
   -1.3296    3.7869   -0.0000 C   0  0  0  0  0  0  0  0  0  0  0  0
    3.9531    2.0418   -0.0000 O   0  0  0  0  0  0  0  0  0  0  0  0
    2.5642    0.0594   -0.0000 N   0  0  0  0  0  0  0  0  0  0  0  0
   -0.0356    4.5466   -0.0000 C   0  0  0  0  0  0  0  0  0  0  0  0
   -2.6354    4.5466   -0.0000 N   0  0  0  0  0  0  0  0  0  0  0  0
    4.8434    0.8547   -0.0000 C   0  0  0  0  0  0  0  0  0  0  0  0
    3.9887   -0.3680   -0.0000 N   0  0  0  0  0  0  0  0  0  0  0  0
   -3.9412    3.8106   -0.0000 C   0  0  0  0  0  0  0  0  0  0  0  0
    6.3273    0.8903   -0.0000 N   0  0  0  0  0  0  0  0  0  0  0  0
   -3.9531    2.3267   -0.0000 O   0  0  0  0  0  0  0  0  0  0  0  0
   -5.2470    4.5704   -0.0000 C   0  0  0  0  0  0  0  0  0  0  0  0
    7.0514    2.2080   -0.0000 C   0  0  0  0  0  0  0  0  0  0  0  0
   -5.2470    6.0780   -0.0000 C   0  0  0  0  0  0  0  0  0  0  0  0
   -6.5410    3.8344   -0.0000 C   0  0  0  0  0  0  0  0  0  0  0  0
    8.5353    2.2436   -0.0000 C   0  0  0  0  0  0  0  0  0  0  0  0
   -3.9650    6.8378   -0.0000 F   0  0  0  0  0  0  0  0  0  0  0  0
   -6.5529    6.8378   -0.0000 C   0  0  0  0  0  0  0  0  0  0  0  0
   -7.8468    4.5823   -0.0000 C   0  0  0  0  0  0  0  0  0  0  0  0
    9.2476    3.5613   -0.0000 C   0  0  0  0  0  0  0  0  0  0  0  0
   -7.8587    6.1018   -0.0000 C   0  0  0  0  0  0  0  0  0  0  0  0
    8.4641    4.8553   -0.0000 C   0  0  0  0  0  0  0  0  0  0  0  0
    9.1883    6.1730   -0.0000 N   0  0  0  0  0  0  0  0  0  0  0  0
   10.6721    6.1967   -0.0000 C   0  0  0  0  0  0  0  0  0  0  0  0
    8.3929    7.4669   -0.0000 C   0  0  0  0  0  0  0  0  0  0  0  0
   11.3844    7.5144   -0.0000 C   0  0  0  0  0  0  0  0  0  0  0  0
    9.1170    8.7846   -0.0000 C   0  0  0  0  0  0  0  0  0  0  0  0
   10.6128    8.8202   -0.0000 O   0  0  0  0  0  0  0  0  0  0  0  0
  1  2  1  0  0  0  0
  2  3  2  0  0  0  0
  2  4  1  0  0  0  0
  3  5  1  0  0  0  0
  3  6  1  0  0  0  0
  4  7  2  0  0  0  0
  5  8  1  0  0  0  0
  5  9  2  0  0  0  0
  6 10  2  0  0  0  0
  7 11  1  0  0  0  0
  8 12  1  0  0  0  0
  9 13  1  0  0  0  0
 11 14  1  0  0  0  0
 12 15  1  0  0  0  0
 14 16  2  0  0  0  0
 14 17  1  0  0  0  0
 15 18  1  0  0  0  0
 17 19  2  0  0  0  0
 17 20  1  0  0  0  0
 18 21  1  0  0  0  0
 19 22  1  0  0  0  0
 19 23  1  0  0  0  0
 20 24  2  0  0  0  0
 21 25  1  0  0  0  0
 23 26  2  0  0  0  0
 25 27  1  0  0  0  0
 27 28  1  0  0  0  0
 28 29  1  0  0  0  0
 28 30  1  0  0  0  0
 29 31  1  0  0  0  0
 30 32  1  0  0  0  0
 31 33  1  0  0  0  0
  7 10  1  0  0  0  0
 12 13  2  0  0  0  0
 24 26  1  0  0  0  0
 32 33  1  0  0  0  0
M  END
>  <MolRegNo>
1338111

>  <m>
=

>  <Value>
64000

>  <Unit>
nM

>  <Type>
IC50

>  <pValue>
4.19

>  <Ligand Efficiency>
0

>  <Binding Efficiency>
0

>  <Surface Efficiency>
0

>  <Assay Index>
649789

>  <Assay Category>


>  <Assay Organism>


>  <Target ID>
17045

>  <Target Name>
Cytochrome P450 3A4

>  <Target Organism>
Homo sapiens

>  <Target Description>
Target is a single protein chain

>  <Sequence Accession>
P08684

>  <Reference>
Bioorg Med Chem Lett 22 (10), 3531-3534 (2012)

>  <Pubmed ID>
22503453

>  <DOI>
10.1016/j.bmcl.2012.03.062

$$$$
1338371
Actelion Java MolfileCreator 1.0

 24 26  0  0  0  0  0  0  0  0999 V2000
    0.0000   -0.0000   -0.0000 N   0  0  0  0  0  0  0  0  0  0  0  0
   -1.2995   -0.7324   -0.0000 C   0  0  0  0  0  0  0  0  0  0  0  0
   -2.5989    0.0236   -0.0000 C   0  0  0  0  0  0  0  0  0  0  0  0
   -3.8984   -0.7088   -0.0000 C   0  0  0  0  0  0  0  0  0  0  0  0
   -5.1979    0.0473   -0.0000 C   0  0  0  0  0  0  0  0  0  0  0  0
   -5.9185   -1.2522   -0.0000 C   0  0  0  0  0  0  0  0  0  0  0  0
   -6.6509    0.4843   -0.0000 C   0  0  0  0  0  0  0  0  0  0  0  0
   -5.2097    1.5475   -0.0000 C   0  0  0  0  0  0  0  0  0  0  0  0
   -5.1506   -2.5044   -0.0000 C   0  0  0  0  0  0  0  0  0  0  0  0
   -7.4306   -1.2758   -0.0000 C   0  0  0  0  0  0  0  0  0  0  0  0
   -7.0171    1.9610   -0.0000 C   0  0  0  0  0  0  0  0  0  0  0  0
   -7.7377   -0.5434   -0.0000 C   0  0  0  0  0  0  0  0  0  0  0  0
   -3.9220    2.3036   -0.0000 C   0  0  0  0  0  0  0  0  0  0  0  0
   -6.5091    2.2918   -0.0000 C   0  0  0  0  0  0  0  0  0  0  0  0
   -5.8712   -3.8039   -0.0000 C   0  0  0  0  0  0  0  0  0  0  0  0
   -8.1512   -2.5753   -0.0000 C   0  0  0  0  0  0  0  0  0  0  0  0
   -8.4701    2.3981   -0.0000 C   0  0  0  0  0  0  0  0  0  0  0  0
   -9.1908   -0.1181   -0.0000 C   0  0  0  0  0  0  0  0  0  0  0  0
   -3.9338    3.8039   -0.0000 C   0  0  0  0  0  0  0  0  0  0  0  0
   -6.5210    3.7921   -0.0000 C   0  0  0  0  0  0  0  0  0  0  0  0
   -7.3833   -3.8393   -0.0000 C   0  0  0  0  0  0  0  0  0  0  0  0
   -5.1034   -5.0679   -0.0000 C   0  0  0  0  0  0  0  0  0  0  0  0
   -9.5688    1.3703   -0.0000 C   0  0  0  0  0  0  0  0  0  0  0  0
   -5.2451    4.5599   -0.0000 C   0  0  0  0  0  0  0  0  0  0  0  0
  1  2  1  0  0  0  0
  2  3  1  0  0  0  0
  3  4  1  0  0  0  0
  4  5  1  0  0  0  0
  5  6  1  0  0  0  0
  5  7  1  0  0  0  0
  5  8  1  0  0  0  0
  6  9  2  0  0  0  0
  6 10  1  0  0  0  0
  7 11  2  0  0  0  0
  7 12  1  0  0  0  0
  8 13  2  0  0  0  0
  8 14  1  0  0  0  0
  9 15  1  0  0  0  0
 10 16  2  0  0  0  0
 11 17  1  0  0  0  0
 12 18  2  0  0  0  0
 13 19  1  0  0  0  0
 14 20  2  0  0  0  0
 15 21  2  0  0  0  0
 15 22  1  0  0  0  0
 17 23  2  0  0  0  0
 19 24  2  0  0  0  0
 16 21  1  0  0  0  0
 18 23  1  0  0  0  0
 20 24  1  0  0  0  0
M  END
>  <MolRegNo>
1338371

>  <m>
=

>  <Value>
5500

>  <Unit>
nM

>  <Type>
IC50

>  <pValue>
5.26

>  <Ligand Efficiency>
0

>  <Binding Efficiency>
0

>  <Surface Efficiency>
0

>  <Assay Index>
650758

>  <Assay Category>


>  <Assay Organism>


>  <Target ID>
17045

>  <Target Name>
Cytochrome P450 3A4

>  <Target Organism>
Homo sapiens

>  <Target Description>
Target is a single protein chain

>  <Sequence Accession>
P08684

>  <Reference>
J Med Chem 55 (4), 1511-1525 (2012)

>  <Pubmed ID>
22248262

>  <DOI>
10.1021/jm201195m

$$$$
385659
Actelion Java MolfileCreator 1.0

 37 40  0  0  0  0  0  0  0  0999 V2000
    0.0000   -0.0000   -0.0000 Cl  0  0  0  0  0  0  0  0  0  0  0  0
   -0.0118    1.5089   -0.0000 C   0  0  0  0  0  0  0  0  0  0  0  0
   -1.3203    2.2634   -0.0000 C   0  0  0  0  0  0  0  0  0  0  0  0
    1.2732    2.2634   -0.0000 C   0  0  0  0  0  0  0  0  0  0  0  0
   -1.3321    3.7723   -0.0000 C   0  0  0  0  0  0  0  0  0  0  0  0
    1.2614    3.7723   -0.0000 C   0  0  0  0  0  0  0  0  0  0  0  0
   -2.6406    4.5268   -0.0000 N   0  0  0  0  0  0  0  0  0  0  0  0
   -0.0472    4.5268   -0.0000 C   0  0  0  0  0  0  0  0  0  0  0  0
   -2.6524    6.0358   -0.0000 C   0  0  0  0  0  0  0  0  0  0  0  0
   -0.0589    6.0358   -0.0000 C   0  0  0  0  0  0  0  0  0  0  0  0
   -1.3675    6.7902   -0.0000 N   0  0  0  0  0  0  0  0  0  0  0  0
   -3.9610    6.7902   -0.0000 C   0  0  0  0  0  0  0  0  0  0  0  0
    1.2260    6.7902   -0.0000 O   0  0  0  0  0  0  0  0  0  0  0  0
   -1.3793    8.2992   -0.0000 C   0  0  0  0  0  0  0  0  0  0  0  0
   -5.2695    6.0475   -0.0000 N   0  0  0  0  0  0  0  0  0  0  0  0
   -3.9728    8.2992   -0.0000 C   0  0  0  0  0  0  0  0  0  0  0  0
   -0.0943    9.0536   -0.0000 C   0  0  0  0  0  0  0  0  0  0  0  0
   -6.5780    6.8020   -0.0000 C   0  0  0  0  0  0  0  0  0  0  0  0
   -5.2813    4.5622   -0.0000 C   0  0  0  0  0  0  0  0  0  0  0  0
   -5.2813    9.0536   -0.0000 C   0  0  0  0  0  0  0  0  0  0  0  0
   -2.6878    9.0536   -0.0000 C   0  0  0  0  0  0  0  0  0  0  0  0
   -0.1061   10.5626   -0.0000 C   0  0  0  0  0  0  0  0  0  0  0  0
    1.1906    8.3110   -0.0000 C   0  0  0  0  0  0  0  0  0  0  0  0
   -6.5898    8.3110   -0.0000 O   0  0  0  0  0  0  0  0  0  0  0  0
   -7.8866    6.0593   -0.0000 C   0  0  0  0  0  0  0  0  0  0  0  0
   -3.9963    3.8195   -0.0000 C   0  0  0  0  0  0  0  0  0  0  0  0
    1.1789   11.3170   -0.0000 C   0  0  0  0  0  0  0  0  0  0  0  0
    2.4756    9.0654   -0.0000 C   0  0  0  0  0  0  0  0  0  0  0  0
   -9.1951    6.8138   -0.0000 C   0  0  0  0  0  0  0  0  0  0  0  0
   -7.8984    4.5740   -0.0000 C   0  0  0  0  0  0  0  0  0  0  0  0
   -4.0081    2.3341   -0.0000 C   0  0  0  0  0  0  0  0  0  0  0  0
    2.4638   10.5744   -0.0000 C   0  0  0  0  0  0  0  0  0  0  0  0
  -10.5036    6.0711   -0.0000 C   0  0  0  0  0  0  0  0  0  0  0  0
   -9.2069    3.8313   -0.0000 C   0  0  0  0  0  0  0  0  0  0  0  0
   -2.7232    1.6032   -0.0000 N   0  0  0  0  0  0  0  0  0  0  0  0
  -10.5154    4.5858   -0.0000 C   0  0  0  0  0  0  0  0  0  0  0  0
  -11.8240    3.8431   -0.0000 C   0  0  0  0  0  0  0  0  0  0  0  0
  1  2  1  0  0  0  0
  2  3  2  0  0  0  0
  2  4  1  0  0  0  0
  3  5  1  0  0  0  0
  4  6  2  0  0  0  0
  5  7  1  0  0  0  0
  5  8  2  0  0  0  0
  7  9  2  0  0  0  0
  8 10  1  0  0  0  0
  9 11  1  0  0  0  0
  9 12  1  0  0  0  0
 10 13  2  0  0  0  0
 11 14  1  0  0  0  0
 12 15  1  1  0  0  0
 12 16  1  0  0  0  0
 14 17  1  0  0  0  0
 15 18  1  0  0  0  0
 15 19  1  0  0  0  0
 16 20  1  0  0  0  0
 16 21  1  0  0  0  0
 17 22  2  0  0  0  0
 17 23  1  0  0  0  0
 18 24  2  0  0  0  0
 18 25  1  0  0  0  0
 19 26  1  0  0  0  0
 22 27  1  0  0  0  0
 23 28  2  0  0  0  0
 25 29  2  0  0  0  0
 25 30  1  0  0  0  0
 26 31  1  0  0  0  0
 27 32  2  0  0  0  0
 29 33  1  0  0  0  0
 30 34  2  0  0  0  0
 31 35  1  0  0  0  0
 33 36  2  0  0  0  0
 36 37  1  0  0  0  0
  6  8  1  0  0  0  0
 10 11  1  0  0  0  0
 28 32  1  0  0  0  0
 34 36  1  0  0  0  0
M  END
>  <MolRegNo>
385659

>  <m>
=

>  <Value>
4100

>  <Unit>
nM

>  <Type>
IC50

>  <pValue>
5.39

>  <Ligand Efficiency>
0

>  <Binding Efficiency>
0

>  <Surface Efficiency>
0

>  <Assay Index>
650758

>  <Assay Category>


>  <Assay Organism>


>  <Target ID>
17045

>  <Target Name>
Cytochrome P450 3A4

>  <Target Organism>
Homo sapiens

>  <Target Description>
Target is a single protein chain

>  <Sequence Accession>
P08684

>  <Reference>
J Med Chem 55 (4), 1511-1525 (2012)

>  <Pubmed ID>
22248262

>  <DOI>
10.1021/jm201195m

$$$$
1346294
Actelion Java MolfileCreator 1.0

 27 30  0  0  0  0  0  0  0  0999 V2000
    0.0000   -0.0000   -0.0000 Cl  0  0  0  0  0  0  0  0  0  0  0  0
    1.2945    0.7720   -0.0000 C   0  0  0  0  0  0  0  0  0  0  0  0
    1.2827    2.2803   -0.0000 C   0  0  0  0  0  0  0  0  0  0  0  0
    2.5891    0.0238   -0.0000 C   0  0  0  0  0  0  0  0  0  0  0  0
   -0.0356    3.0522   -0.0000 Cl  0  0  0  0  0  0  0  0  0  0  0  0
    2.5772    3.0522   -0.0000 C   0  0  0  0  0  0  0  0  0  0  0  0
    3.8836    0.7957   -0.0000 C   0  0  0  0  0  0  0  0  0  0  0  0
    3.8717    2.3040   -0.0000 C   0  0  0  0  0  0  0  0  0  0  0  0
    5.1781    0.0475   -0.0000 N   0  0  0  0  0  0  0  0  0  0  0  0
    6.4727    0.8195   -0.0000 C   0  0  0  0  0  0  0  0  0  0  0  0
    6.4608    2.3278   -0.0000 O   0  0  0  0  0  0  0  0  0  0  0  0
    7.7672    0.0713   -0.0000 N   0  0  0  0  0  0  0  0  0  0  0  0
    7.7553   -1.4133   -0.0000 C   0  0  0  0  0  0  0  0  0  0  0  0
    9.0617    0.8432   -0.0000 C   0  0  0  0  0  0  0  0  0  0  0  0
    9.0498   -2.1615   -0.0000 C   0  0  0  0  0  0  0  0  0  0  0  0
   10.3562    0.0950   -0.0000 C   0  0  0  0  0  0  0  0  0  0  0  0
   10.3444   -1.3895   -0.0000 N   0  0  0  0  0  0  0  0  0  0  0  0
   11.6389   -2.1378   -0.0000 C   0  0  0  0  0  0  0  0  0  0  0  0
   11.6270   -3.6223   -0.0000 C   0  0  0  0  0  0  0  0  0  0  0  0
   12.9216   -4.3705   -0.0000 C   0  0  0  0  0  0  0  0  0  0  0  0
   10.3087   -4.3705   -0.0000 C   0  0  0  0  0  0  0  0  0  0  0  0
   12.9097   -5.8551   -0.0000 N   0  0  0  0  0  0  0  0  0  0  0  0
   10.2969   -5.8551   -0.0000 C   0  0  0  0  0  0  0  0  0  0  0  0
   14.2042   -6.6033   -0.0000 C   0  0  0  0  0  0  0  0  0  0  0  0
   11.5914   -6.6033   -0.0000 C   0  0  0  0  0  0  0  0  0  0  0  0
   14.9405   -7.8978   -0.0000 C   0  0  0  0  0  0  0  0  0  0  0  0
   15.7006   -6.5914   -0.0000 C   0  0  0  0  0  0  0  0  0  0  0  0
  1  2  1  0  0  0  0
  2  3  2  0  0  0  0
  2  4  1  0  0  0  0
  3  5  1  0  0  0  0
  3  6  1  0  0  0  0
  4  7  2  0  0  0  0
  6  8  2  0  0  0  0
  7  9  1  0  0  0  0
  9 10  1  0  0  0  0
 10 11  2  0  0  0  0
 10 12  1  0  0  0  0
 12 13  1  0  0  0  0
 12 14  1  0  0  0  0
 13 15  1  0  0  0  0
 14 16  1  0  0  0  0
 15 17  1  0  0  0  0
 17 18  1  0  0  0  0
 19 18  1  6  0  0  0
 19 20  1  0  0  0  0
 19 21  1  0  0  0  0
 20 22  1  0  0  0  0
 21 23  1  0  0  0  0
 22 24  1  0  0  0  0
 22 25  1  0  0  0  0
 24 26  1  0  0  0  0
 24 27  1  0  0  0  0
  7  8  1  0  0  0  0
 16 17  1  0  0  0  0
 23 25  1  0  0  0  0
 26 27  1  0  0  0  0
M  END
>  <MolRegNo>
1346294

>  <m>
=

>  <Value>
1600

>  <Unit>
nM

>  <Type>
IC50

>  <pValue>
5.8

>  <Ligand Efficiency>
0

>  <Binding Efficiency>
0

>  <Surface Efficiency>
0

>  <Assay Index>
657422

>  <Assay Category>


>  <Assay Organism>


>  <Target ID>
17045

>  <Target Name>
Cytochrome P450 3A4

>  <Target Organism>
Homo sapiens

>  <Target Description>
Target is a single protein chain

>  <Sequence Accession>
P08684

>  <Reference>
Bioorg Med Chem Lett 22 (12), 3895-3899 (2012)

>  <Pubmed ID>
22608963

>  <DOI>
10.1016/j.bmcl.2012.04.118

$$$$
1345801
Actelion Java MolfileCreator 1.0

 26 28  0  0  1  0  0  0  0  0999 V2000
    0.0000   -0.0000   -0.0000 Cl  0  0  0  0  0  0  0  0  0  0  0  0
  -16.2572   -2.0322   -0.0000 S   0  0  0  0  0  0  0  0  0  0  0  0
  -14.8601   -1.5400   -0.0000 C   0  0  0  0  0  0  0  0  0  0  0  0
  -17.1780   -0.8097   -0.0000 C   0  0  0  0  0  0  0  0  0  0  0  0
  -13.5741   -2.2703   -0.0000 C   0  0  0  0  0  0  0  0  0  0  0  0
  -14.8919   -0.0159   -0.0000 C   0  0  0  0  0  0  0  0  0  0  0  0
  -16.3366    0.4445   -0.0000 C   0  0  0  0  0  0  0  0  0  0  0  0
  -13.5900   -3.7627   -0.0000 N   0  0  0  0  0  0  0  0  0  0  0  0
  -12.2882   -1.5082   -0.0000 N   0  0  0  0  0  0  0  0  0  0  0  0
  -11.0022   -2.2385   -0.0000 C   0  0  0  0  0  0  0  0  0  0  0  0
   -9.7162   -1.4765   -0.0000 C   0  0  0  0  0  0  0  0  0  0  0  0
  -11.0181   -3.7309   -0.0000 C   0  0  0  0  0  0  0  0  0  0  0  0
   -8.4303   -2.2068   -0.0000 C   0  0  0  0  0  0  0  0  0  0  0  0
   -9.7321   -4.4612   -0.0000 C   0  0  0  0  0  0  0  0  0  0  0  0
   -8.4461   -3.6992   -0.0000 C   0  0  0  0  0  0  0  0  0  0  0  0
   -7.0014   -1.7146   -0.0000 C   0  0  0  0  0  0  0  0  0  0  0  0
   -7.0173   -4.1437   -0.0000 N   0  0  0  0  0  0  0  0  0  0  0  0
   -6.1282   -2.9212   -0.0000 C   0  0  0  0  0  0  0  0  0  0  0  0
   -6.2552   -0.3969   -0.0000 C   0  0  0  0  0  0  0  0  0  0  0  0
   -4.7629   -0.3969   -0.0000 C   0  0  0  0  0  0  0  0  0  0  0  0
   -7.0173    0.9049   -0.0000 C   0  0  0  0  0  0  0  0  0  0  0  0
   -4.0167    0.9049   -0.0000 C   0  0  0  0  0  0  0  0  0  0  0  0
   -6.2711    2.2227   -0.0000 C   0  0  0  0  0  0  0  0  0  0  0  0
   -4.7787    2.2227   -0.0000 C   0  0  0  0  0  0  0  0  0  0  0  0
   -4.0326    3.5404   -0.0000 N   0  0  0  0  0  0  0  0  0  0  0  0
   -2.5402    3.5404   -0.0000 C   0  0  0  0  0  0  0  0  0  0  0  0
  2  3  1  0  0  0  0
  2  4  1  0  0  0  0
  3  5  1  0  0  0  0
  3  6  2  0  0  0  0
  4  7  2  0  0  0  0
  5  8  2  0  0  0  0
  5  9  1  0  0  0  0
  9 10  1  0  0  0  0
 10 11  2  0  0  0  0
 10 12  1  0  0  0  0
 11 13  1  0  0  0  0
 12 14  2  0  0  0  0
 13 15  2  0  0  0  0
 13 16  1  0  0  0  0
 15 17  1  0  0  0  0
 16 18  2  0  0  0  0
 19 16  1  1  0  0  0
 19 20  1  0  0  0  0
 19 21  1  0  0  0  0
 20 22  1  0  0  0  0
 21 23  1  0  0  0  0
 22 24  1  0  0  0  0
 24 25  1  1  0  0  0
 25 26  1  0  0  0  0
  6  7  1  0  0  0  0
 14 15  1  0  0  0  0
 17 18  1  0  0  0  0
 23 24  1  0  0  0  0
M  END
>  <MolRegNo>
1345801

>  <m>
=

>  <Value>
57300

>  <Unit>
nM

>  <Type>
IC50

>  <pValue>
4.24

>  <Ligand Efficiency>
0

>  <Binding Efficiency>
0

>  <Surface Efficiency>
0

>  <Assay Index>
654756

>  <Assay Category>


>  <Assay Organism>


>  <Target ID>
17045

>  <Target Name>
Cytochrome P450 3A4

>  <Target Organism>
Homo sapiens

>  <Target Description>
Target is a single protein chain

>  <Sequence Accession>
P08684

>  <Reference>
J Med Chem 55 (7), 3488-3501 (2012)

>  <Pubmed ID>
22420844

>  <DOI>
10.1021/jm300138g

$$$$
1345803
Actelion Java MolfileCreator 1.0

 27 29  0  0  1  0  0  0  0  0999 V2000
    0.0000   -0.0000   -0.0000 Cl  0  0  0  0  0  0  0  0  0  0  0  0
  -16.3529   -0.0000   -0.0000 S   0  0  0  0  0  0  0  0  0  0  0  0
  -14.9475    0.4951   -0.0000 C   0  0  0  0  0  0  0  0  0  0  0  0
  -17.2791    1.2137   -0.0000 C   0  0  0  0  0  0  0  0  0  0  0  0
  -13.6540   -0.2395   -0.0000 C   0  0  0  0  0  0  0  0  0  0  0  0
  -14.9795    2.0281   -0.0000 C   0  0  0  0  0  0  0  0  0  0  0  0
  -16.4327    2.4593   -0.0000 C   0  0  0  0  0  0  0  0  0  0  0  0
  -13.6700   -1.7247   -0.0000 N   0  0  0  0  0  0  0  0  0  0  0  0
  -12.3605    0.5270   -0.0000 N   0  0  0  0  0  0  0  0  0  0  0  0
  -11.0669   -0.2076   -0.0000 C   0  0  0  0  0  0  0  0  0  0  0  0
   -9.7894    0.5589   -0.0000 C   0  0  0  0  0  0  0  0  0  0  0  0
  -11.0829   -1.6928   -0.0000 C   0  0  0  0  0  0  0  0  0  0  0  0
   -8.4958   -0.1757   -0.0000 C   0  0  0  0  0  0  0  0  0  0  0  0
   -9.7894   -2.4274   -0.0000 C   0  0  0  0  0  0  0  0  0  0  0  0
   -8.5118   -1.6768   -0.0000 C   0  0  0  0  0  0  0  0  0  0  0  0
   -7.0745    0.3034   -0.0000 C   0  0  0  0  0  0  0  0  0  0  0  0
   -7.0905   -2.1240   -0.0000 N   0  0  0  0  0  0  0  0  0  0  0  0
   -6.1962   -0.9103   -0.0000 C   0  0  0  0  0  0  0  0  0  0  0  0
   -6.3399    1.6129   -0.0000 C   0  0  0  0  0  0  0  0  0  0  0  0
   -4.8388    1.6129   -0.0000 C   0  0  0  0  0  0  0  0  0  0  0  0
   -7.0905    2.9224   -0.0000 C   0  0  0  0  0  0  0  0  0  0  0  0
   -4.1042    2.9224   -0.0000 C   0  0  0  0  0  0  0  0  0  0  0  0
   -6.3399    4.2319   -0.0000 C   0  0  0  0  0  0  0  0  0  0  0  0
   -4.8548    4.2479   -0.0000 C   0  0  0  0  0  0  0  0  0  0  0  0
   -4.1042    5.5574   -0.0000 N   0  0  0  0  0  0  0  0  0  0  0  0
   -2.6190    5.5574   -0.0000 C   0  0  0  0  0  0  0  0  0  0  0  0
   -1.8684    6.8669   -0.0000 C   0  0  0  0  0  0  0  0  0  0  0  0
  2  3  1  0  0  0  0
  2  4  1  0  0  0  0
  3  5  1  0  0  0  0
  3  6  2  0  0  0  0
  4  7  2  0  0  0  0
  5  8  2  0  0  0  0
  5  9  1  0  0  0  0
  9 10  1  0  0  0  0
 10 11  2  0  0  0  0
 10 12  1  0  0  0  0
 11 13  1  0  0  0  0
 12 14  2  0  0  0  0
 13 15  2  0  0  0  0
 13 16  1  0  0  0  0
 15 17  1  0  0  0  0
 16 18  2  0  0  0  0
 19 16  1  1  0  0  0
 19 20  1  0  0  0  0
 19 21  1  0  0  0  0
 20 22  1  0  0  0  0
 21 23  1  0  0  0  0
 22 24  1  0  0  0  0
 24 25  1  1  0  0  0
 25 26  1  0  0  0  0
 26 27  1  0  0  0  0
  6  7  1  0  0  0  0
 14 15  1  0  0  0  0
 17 18  1  0  0  0  0
 23 24  1  0  0  0  0
M  END
>  <MolRegNo>
1345803

>  <m>
=

>  <Value>
23100

>  <Unit>
nM

>  <Type>
IC50

>  <pValue>
4.64

>  <Ligand Efficiency>
0

>  <Binding Efficiency>
0

>  <Surface Efficiency>
0

>  <Assay Index>
654756

>  <Assay Category>


>  <Assay Organism>


>  <Target ID>
17045

>  <Target Name>
Cytochrome P450 3A4

>  <Target Organism>
Homo sapiens

>  <Target Description>
Target is a single protein chain

>  <Sequence Accession>
P08684

>  <Reference>
J Med Chem 55 (7), 3488-3501 (2012)

>  <Pubmed ID>
22420844

>  <DOI>
10.1021/jm300138g

$$$$
1345806
Actelion Java MolfileCreator 1.0

 26 28  0  0  0  0  0  0  0  0999 V2000
    0.0000   -0.0000   -0.0000 Cl  0  0  0  0  0  0  0  0  0  0  0  0
  -16.8542   -7.7687   -0.0000 S   0  0  0  0  0  0  0  0  0  0  0  0
  -15.4551   -7.2749   -0.0000 C   0  0  0  0  0  0  0  0  0  0  0  0
  -17.7759   -6.5507   -0.0000 C   0  0  0  0  0  0  0  0  0  0  0  0
  -14.1713   -8.0156   -0.0000 C   0  0  0  0  0  0  0  0  0  0  0  0
  -15.4881   -5.7442   -0.0000 C   0  0  0  0  0  0  0  0  0  0  0  0
  -16.9365   -5.2998   -0.0000 C   0  0  0  0  0  0  0  0  0  0  0  0
  -14.1878   -9.4969   -0.0000 N   0  0  0  0  0  0  0  0  0  0  0  0
  -12.8875   -7.2420   -0.0000 N   0  0  0  0  0  0  0  0  0  0  0  0
  -11.6037   -7.9827   -0.0000 C   0  0  0  0  0  0  0  0  0  0  0  0
  -10.3199   -7.2091   -0.0000 C   0  0  0  0  0  0  0  0  0  0  0  0
  -11.6202   -9.4805   -0.0000 C   0  0  0  0  0  0  0  0  0  0  0  0
   -9.0361   -7.9333   -0.0000 C   0  0  0  0  0  0  0  0  0  0  0  0
  -10.3363  -10.2211   -0.0000 C   0  0  0  0  0  0  0  0  0  0  0  0
   -9.0525   -9.4311   -0.0000 C   0  0  0  0  0  0  0  0  0  0  0  0
   -7.6206   -7.4560   -0.0000 C   0  0  0  0  0  0  0  0  0  0  0  0
   -7.6206   -9.8755   -0.0000 N   0  0  0  0  0  0  0  0  0  0  0  0
   -6.7483   -8.6575   -0.0000 C   0  0  0  0  0  0  0  0  0  0  0  0
   -6.8799   -6.1393   -0.0000 C   0  0  0  0  0  0  0  0  0  0  0  0
   -5.3821   -6.1393   -0.0000 C   0  0  0  0  0  0  0  0  0  0  0  0
   -7.6370   -4.8225   -0.0000 C   0  0  0  0  0  0  0  0  0  0  0  0
   -4.6415   -4.8390   -0.0000 C   0  0  0  0  0  0  0  0  0  0  0  0
   -6.8964   -3.5058   -0.0000 C   0  0  0  0  0  0  0  0  0  0  0  0
   -3.1602   -4.8390   -0.0000 N   0  0  0  0  0  0  0  0  0  0  0  0
   -5.3986   -3.5058   -0.0000 C   0  0  0  0  0  0  0  0  0  0  0  0
   -2.4195   -3.5223   -0.0000 C   0  0  0  0  0  0  0  0  0  0  0  0
  2  3  1  0  0  0  0
  2  4  1  0  0  0  0
  3  5  1  0  0  0  0
  3  6  2  0  0  0  0
  4  7  2  0  0  0  0
  5  8  2  0  0  0  0
  5  9  1  0  0  0  0
  9 10  1  0  0  0  0
 10 11  2  0  0  0  0
 10 12  1  0  0  0  0
 11 13  1  0  0  0  0
 12 14  2  0  0  0  0
 13 15  2  0  0  0  0
 13 16  1  0  0  0  0
 15 17  1  0  0  0  0
 16 18  2  0  0  0  0
 16 19  1  0  0  0  0
 19 20  1  0  0  0  0
 19 21  1  0  0  0  0
 20 22  1  0  0  0  0
 21 23  1  0  0  0  0
 22 24  1  0  0  0  0
 22 25  1  0  0  0  0
 24 26  1  0  0  0  0
  6  7  1  0  0  0  0
 14 15  1  0  0  0  0
 17 18  1  0  0  0  0
 23 25  1  0  0  0  0
M  END
>  <MolRegNo>
1345806

>  <m>
=

>  <Value>
1.0e5

>  <Unit>
nM

>  <Type>
IC50

>  <pValue>
4

>  <Ligand Efficiency>
0

>  <Binding Efficiency>
0

>  <Surface Efficiency>
0

>  <Assay Index>
654756

>  <Assay Category>


>  <Assay Organism>


>  <Target ID>
17045

>  <Target Name>
Cytochrome P450 3A4

>  <Target Organism>
Homo sapiens

>  <Target Description>
Target is a single protein chain

>  <Sequence Accession>
P08684

>  <Reference>
J Med Chem 55 (7), 3488-3501 (2012)

>  <Pubmed ID>
22420844

>  <DOI>
10.1021/jm300138g

$$$$
1344573
Actelion Java MolfileCreator 1.0

 36 40  0  0  0  0  0  0  0  0999 V2000
    0.0000   -0.0000   -0.0000 O   0  0  0  0  0  0  0  0  0  0  0  0
   -1.3172   -0.7684   -0.0000 C   0  0  0  0  0  0  0  0  0  0  0  0
   -0.0122    1.5612   -0.0000 C   0  0  0  0  0  0  0  0  0  0  0  0
   -2.6223    0.0244   -0.0000 N   0  0  0  0  0  0  0  0  0  0  0  0
   -1.3538   -2.2686   -0.0000 C   0  0  0  0  0  0  0  0  0  0  0  0
    1.2807    2.3418   -0.0000 C   0  0  0  0  0  0  0  0  0  0  0  0
   -3.9639   -0.6952   -0.0000 C   0  0  0  0  0  0  0  0  0  0  0  0
   -2.6955   -2.9882   -0.0000 C   0  0  0  0  0  0  0  0  0  0  0  0
    2.5247    1.6466   -0.0000 C   0  0  0  0  0  0  0  0  0  0  0  0
   -4.0005   -2.2076   -0.0000 C   0  0  0  0  0  0  0  0  0  0  0  0
   -2.7077   -4.4884   -0.0000 C   0  0  0  0  0  0  0  0  0  0  0  0
    2.5125    0.1464   -0.0000 C   0  0  0  0  0  0  0  0  0  0  0  0
   -1.5002   -5.2080   -0.0000 N   0  0  0  0  0  0  0  0  0  0  0  0
   -3.9639   -5.1592   -0.0000 C   0  0  0  0  0  0  0  0  0  0  0  0
    3.8298   -0.6098   -0.0000 C   0  0  0  0  0  0  0  0  0  0  0  0
   -1.5368   -6.6106   -0.0000 C   0  0  0  0  0  0  0  0  0  0  0  0
   -4.0005   -6.5740   -0.0000 C   0  0  0  0  0  0  0  0  0  0  0  0
   -5.1958   -4.4152   -0.0000 C   0  0  0  0  0  0  0  0  0  0  0  0
    3.8176   -2.1344   -0.0000 O   0  0  0  0  0  0  0  0  0  0  0  0
   -2.7809   -7.2815   -0.0000 N   0  0  0  0  0  0  0  0  0  0  0  0
   -0.1951   -7.4888   -0.0000 N   0  0  0  0  0  0  0  0  0  0  0  0
    2.4759   -2.8906   -0.0000 C   0  0  0  0  0  0  0  0  0  0  0  0
    1.1099   -6.7204   -0.0000 C   0  0  0  0  0  0  0  0  0  0  0  0
    2.4637   -4.4152   -0.0000 C   0  0  0  0  0  0  0  0  0  0  0  0
    1.1099   -5.1714   -0.0000 C   0  0  0  0  0  0  0  0  0  0  0  0
    2.4272   -7.4888   -0.0000 C   0  0  0  0  0  0  0  0  0  0  0  0
    3.7810   -5.1714   -0.0000 C   0  0  0  0  0  0  0  0  0  0  0  0
    3.7566   -6.7082   -0.0000 C   0  0  0  0  0  0  0  0  0  0  0  0
    5.0738   -4.4030   -0.0000 O   0  0  0  0  0  0  0  0  0  0  0  0
    6.3667   -5.1470   -0.0000 C   0  0  0  0  0  0  0  0  0  0  0  0
    7.6596   -4.3786   -0.0000 C   0  0  0  0  0  0  0  0  0  0  0  0
    8.9524   -5.1226   -0.0000 N   0  0  0  0  0  0  0  0  0  0  0  0
    9.1110   -6.6106   -0.0000 C   0  0  0  0  0  0  0  0  0  0  0  0
   10.3306   -4.4884   -0.0000 C   0  0  0  0  0  0  0  0  0  0  0  0
   10.5746   -6.9156   -0.0000 C   0  0  0  0  0  0  0  0  0  0  0  0
   11.3308   -5.5983   -0.0000 C   0  0  0  0  0  0  0  0  0  0  0  0
  1  2  1  0  0  0  0
  1  3  1  0  0  0  0
  2  4  2  0  0  0  0
  2  5  1  0  0  0  0
  3  6  1  0  0  0  0
  4  7  1  0  0  0  0
  5  8  2  0  0  0  0
  6  9  1  0  0  0  0
  7 10  2  0  0  0  0
  8 11  1  0  0  0  0
  9 12  2  0  0  0  0
 11 13  2  0  0  0  0
 11 14  1  0  0  0  0
 12 15  1  0  0  0  0
 13 16  1  0  0  0  0
 14 17  2  0  0  0  0
 14 18  1  0  0  0  0
 15 19  1  0  0  0  0
 16 20  2  0  0  0  0
 16 21  1  0  0  0  0
 19 22  1  0  0  0  0
 21 23  1  0  0  0  0
 22 24  1  0  0  0  0
 23 25  2  0  0  0  0
 23 26  1  0  0  0  0
 24 27  2  0  0  0  0
 26 28  2  0  0  0  0
 27 29  1  0  0  0  0
 29 30  1  0  0  0  0
 30 31  1  0  0  0  0
 31 32  1  0  0  0  0
 32 33  1  0  0  0  0
 32 34  1  0  0  0  0
 33 35  1  0  0  0  0
 34 36  1  0  0  0  0
  8 10  1  0  0  0  0
 17 20  1  0  0  0  0
 24 25  1  0  0  0  0
 27 28  1  0  0  0  0
 35 36  1  0  0  0  0
M  END
>  <MolRegNo>
1344573

>  <m>
=

>  <Value>
970

>  <Unit>
nM

>  <Type>
IC50

>  <pValue>
6.01

>  <Ligand Efficiency>
0

>  <Binding Efficiency>
0

>  <Surface Efficiency>
0

>  <Assay Index>
655697

>  <Assay Category>


>  <Assay Organism>
Homo sapiens

>  <Target ID>
17045

>  <Target Name>
Cytochrome P450 3A4

>  <Target Organism>
Homo sapiens

>  <Target Description>
Target is a single protein chain

>  <Sequence Accession>
P08684

>  <Reference>
J Med Chem 55 (6), 2623-2640 (2012)

>  <Pubmed ID>
22339472

>  <DOI>
10.1021/jm201454n

$$$$
1349679
Actelion Java MolfileCreator 1.0

 22 23  0  0  0  0  0  0  0  0999 V2000
    0.0000   -0.0000   -0.0000 Cl  0  0  0  0  0  0  0  0  0  0  0  0
   -0.0118    1.5023   -0.0000 C   0  0  0  0  0  0  0  0  0  0  0  0
    1.2775    2.2712   -0.0000 C   0  0  0  0  0  0  0  0  0  0  0  0
   -1.3130    2.2594   -0.0000 C   0  0  0  0  0  0  0  0  0  0  0  0
    2.5551    1.5378   -0.0000 Cl  0  0  0  0  0  0  0  0  0  0  0  0
    1.2539    3.7735   -0.0000 C   0  0  0  0  0  0  0  0  0  0  0  0
   -1.3249    3.7498   -0.0000 C   0  0  0  0  0  0  0  0  0  0  0  0
   -0.0473    4.5187   -0.0000 C   0  0  0  0  0  0  0  0  0  0  0  0
   -2.6379    4.5069   -0.0000 O   0  0  0  0  0  0  0  0  0  0  0  0
   -2.6616    6.0092   -0.0000 C   0  0  0  0  0  0  0  0  0  0  0  0
   -3.9746    6.7663   -0.0000 C   0  0  0  0  0  0  0  0  0  0  0  0
   -1.3840    6.7781   -0.0000 C   0  0  0  0  0  0  0  0  0  0  0  0
   -3.9864    8.2804   -0.0000 C   0  0  0  0  0  0  0  0  0  0  0  0
   -5.2758    6.0328   -0.0000 C   0  0  0  0  0  0  0  0  0  0  0  0
   -1.4077    8.2922   -0.0000 C   0  0  0  0  0  0  0  0  0  0  0  0
   -2.7089    9.0374   -0.0000 C   0  0  0  0  0  0  0  0  0  0  0  0
   -6.5770    6.7899   -0.0000 S   0  0  0  0  0  0  0  0  0  0  0  0
   -6.5888    8.2922   -0.0000 O   0  0  0  0  0  0  0  0  0  0  0  0
   -7.8782    6.0565   -0.0000 C   0  0  0  0  0  0  0  0  0  0  0  0
   -9.1794    6.8136   -0.0000 C   0  0  0  0  0  0  0  0  0  0  0  0
   -9.1912    8.3159   -0.0000 O   0  0  0  0  0  0  0  0  0  0  0  0
  -10.4806    6.0802   -0.0000 N   0  0  0  0  0  0  0  0  0  0  0  0
  1  2  1  0  0  0  0
  2  3  2  0  0  0  0
  2  4  1  0  0  0  0
  3  5  1  0  0  0  0
  3  6  1  0  0  0  0
  4  7  2  0  0  0  0
  6  8  2  0  0  0  0
  7  9  1  0  0  0  0
  9 10  1  0  0  0  0
 10 11  2  0  0  0  0
 10 12  1  0  0  0  0
 11 13  1  0  0  0  0
 11 14  1  0  0  0  0
 12 15  2  0  0  0  0
 13 16  2  0  0  0  0
 14 17  1  0  0  0  0
 17 18  2  0  0  0  0
 17 19  1  0  0  0  0
 19 20  1  0  0  0  0
 20 21  2  0  0  0  0
 20 22  1  0  0  0  0
  7  8  1  0  0  0  0
 15 16  1  0  0  0  0
M  END
>  <MolRegNo>
1349679

>  <m>
=

>  <Value>
40000

>  <Unit>
nM

>  <Type>
IC50

>  <pValue>
4.4

>  <Ligand Efficiency>
0

>  <Binding Efficiency>
0

>  <Surface Efficiency>
0

>  <Assay Index>
658700

>  <Assay Category>


>  <Assay Organism>


>  <Target ID>
17045

>  <Target Name>
Cytochrome P450 3A4

>  <Target Organism>
Homo sapiens

>  <Target Description>
Target is a single protein chain

>  <Sequence Accession>
P08684

>  <Reference>


>  <Pubmed ID>
22749190

>  <DOI>
10.1016/j.ejmech.2012.05.038

$$$$
1349767
Actelion Java MolfileCreator 1.0

 39 44  0  0  0  0  0  0  0  0999 V2000
    0.0000   -0.0000   -0.0000 O   0  0  0  0  0  0  0  0  0  0  0  0
    1.4130    0.4750   -0.0000 C   0  0  0  0  0  0  0  0  0  0  0  0
    2.6242   -0.4037   -0.0000 N   0  0  0  0  0  0  0  0  0  0  0  0
    1.8642    1.9236   -0.0000 N   0  0  0  0  0  0  0  0  0  0  0  0
    2.6123   -1.8999   -0.0000 C   0  0  0  0  0  0  0  0  0  0  0  0
    3.8353    0.4987   -0.0000 C   0  0  0  0  0  0  0  0  0  0  0  0
    0.9618    3.1466   -0.0000 C   0  0  0  0  0  0  0  0  0  0  0  0
    3.3604    1.9474   -0.0000 C   0  0  0  0  0  0  0  0  0  0  0  0
    1.2943   -2.6361   -0.0000 C   0  0  0  0  0  0  0  0  0  0  0  0
    3.8947   -2.6242   -0.0000 C   0  0  0  0  0  0  0  0  0  0  0  0
    5.2484    0.0475   -0.0000 O   0  0  0  0  0  0  0  0  0  0  0  0
   -0.5343    2.9923   -0.0000 N   0  0  0  0  0  0  0  0  0  0  0  0
    1.5555    4.5359   -0.0000 C   0  0  0  0  0  0  0  0  0  0  0  0
    4.8446    1.9592   -0.0000 C   0  0  0  0  0  0  0  0  0  0  0  0
    2.6004    3.2535   -0.0000 C   0  0  0  0  0  0  0  0  0  0  0  0
    1.2824   -4.1203   -0.0000 C   0  0  0  0  0  0  0  0  0  0  0  0
    3.8947   -4.1085   -0.0000 C   0  0  0  0  0  0  0  0  0  0  0  0
   -1.4368    4.2034   -0.0000 C   0  0  0  0  0  0  0  0  0  0  0  0
    0.6531    5.7590   -0.0000 C   0  0  0  0  0  0  0  0  0  0  0  0
    5.5808    3.2654   -0.0000 C   0  0  0  0  0  0  0  0  0  0  0  0
    3.3485    4.5715   -0.0000 C   0  0  0  0  0  0  0  0  0  0  0  0
    2.5767   -4.8565   -0.0000 C   0  0  0  0  0  0  0  0  0  0  0  0
   -0.8431    5.6046   -0.0000 N   0  0  0  0  0  0  0  0  0  0  0  0
    1.2468    7.1482   -0.0000 O   0  0  0  0  0  0  0  0  0  0  0  0
    4.8209    4.5834   -0.0000 N   0  0  0  0  0  0  0  0  0  0  0  0
    2.5767   -6.3408   -0.0000 C   0  0  0  0  0  0  0  0  0  0  0  0
    5.5690    5.8896   -0.0000 C   0  0  0  0  0  0  0  0  0  0  0  0
    1.2587   -7.0889   -0.0000 C   0  0  0  0  0  0  0  0  0  0  0  0
    3.8710   -7.0651   -0.0000 C   0  0  0  0  0  0  0  0  0  0  0  0
    7.0651    5.9014   -0.0000 C   0  0  0  0  0  0  0  0  0  0  0  0
    1.2468   -8.5731   -0.0000 C   0  0  0  0  0  0  0  0  0  0  0  0
    3.8591   -8.5613   -0.0000 C   0  0  0  0  0  0  0  0  0  0  0  0
    7.8013    7.2076   -0.0000 N   0  0  0  0  0  0  0  0  0  0  0  0
    7.8013    4.6072   -0.0000 C   0  0  0  0  0  0  0  0  0  0  0  0
    2.5411   -9.3093   -0.0000 C   0  0  0  0  0  0  0  0  0  0  0  0
    9.2856    7.2195   -0.0000 C   0  0  0  0  0  0  0  0  0  0  0  0
    9.2856    4.6190   -0.0000 C   0  0  0  0  0  0  0  0  0  0  0  0
    7.0295    3.3248   -0.0000 C   0  0  0  0  0  0  0  0  0  0  0  0
   10.0336    5.9252   -0.0000 C   0  0  0  0  0  0  0  0  0  0  0  0
  1  2  2  0  0  0  0
  2  3  1  0  0  0  0
  2  4  1  0  0  0  0
  3  5  1  0  0  0  0
  3  6  1  0  0  0  0
  4  7  1  0  0  0  0
  4  8  1  0  0  0  0
  5  9  2  0  0  0  0
  5 10  1  0  0  0  0
  6 11  2  0  0  0  0
  7 12  2  0  0  0  0
  7 13  1  0  0  0  0
  8 14  1  0  0  0  0
  8 15  1  0  0  0  0
  9 16  1  0  0  0  0
 10 17  2  0  0  0  0
 12 18  1  0  0  0  0
 13 19  2  0  0  0  0
 14 20  1  0  0  0  0
 15 21  1  0  0  0  0
 16 22  2  0  0  0  0
 18 23  2  0  0  0  0
 19 24  1  0  0  0  0
 20 25  1  0  0  0  0
 22 26  1  0  0  0  0
 25 27  1  0  0  0  0
 26 28  1  0  0  0  0
 26 29  1  0  0  0  0
 27 30  1  0  0  0  0
 28 31  1  0  0  0  0
 29 32  1  0  0  0  0
 30 33  2  0  0  0  0
 30 34  1  0  0  0  0
 31 35  1  0  0  0  0
 33 36  1  0  0  0  0
 34 37  2  0  0  0  0
 34 38  1  0  0  0  0
 36 39  2  0  0  0  0
  6  8  1  0  0  0  0
 17 22  1  0  0  0  0
 19 23  1  0  0  0  0
 21 25  1  0  0  0  0
 32 35  1  0  0  0  0
 37 39  1  0  0  0  0
M  END
>  <MolRegNo>
1349767

>  <m>
=

>  <Value>
40000

>  <Unit>
nM

>  <Type>
IC50

>  <pValue>
4.4

>  <Ligand Efficiency>
0

>  <Binding Efficiency>
0

>  <Surface Efficiency>
0

>  <Assay Index>
657932

>  <Assay Category>


>  <Assay Organism>


>  <Target ID>
17045

>  <Target Name>
Cytochrome P450 3A4

>  <Target Organism>
Homo sapiens

>  <Target Description>
Target is a single protein chain

>  <Sequence Accession>
P08684

>  <Reference>
J Med Chem 55 (7), 2945-2959 (2012)

>  <Pubmed ID>
22364528

>  <DOI>
10.1021/jm201542d

$$$$
1347592
Actelion Java MolfileCreator 1.0

 43 49  0  0  0  0  0  0  0  0999 V2000
    0.0000   -0.0000   -0.0000 O   0  0  0  0  0  0  0  0  0  0  0  0
    1.4134    0.4751   -0.0000 C   0  0  0  0  0  0  0  0  0  0  0  0
    2.6248   -0.4038   -0.0000 N   0  0  0  0  0  0  0  0  0  0  0  0
    1.8647    1.9241   -0.0000 N   0  0  0  0  0  0  0  0  0  0  0  0
    2.6129   -1.9003   -0.0000 C   0  0  0  0  0  0  0  0  0  0  0  0
    3.8363    0.4988   -0.0000 C   0  0  0  0  0  0  0  0  0  0  0  0
    0.9620    3.1474   -0.0000 C   0  0  0  0  0  0  0  0  0  0  0  0
    3.3612    1.9478   -0.0000 C   0  0  0  0  0  0  0  0  0  0  0  0
    1.2946   -2.6367   -0.0000 C   0  0  0  0  0  0  0  0  0  0  0  0
    3.8957   -2.6248   -0.0000 C   0  0  0  0  0  0  0  0  0  0  0  0
    5.2496    0.0475   -0.0000 O   0  0  0  0  0  0  0  0  0  0  0  0
   -0.5345    2.9930   -0.0000 N   0  0  0  0  0  0  0  0  0  0  0  0
    1.5559    4.5370   -0.0000 C   0  0  0  0  0  0  0  0  0  0  0  0
    4.8458    1.9597   -0.0000 C   0  0  0  0  0  0  0  0  0  0  0  0
    2.6011    3.2543   -0.0000 C   0  0  0  0  0  0  0  0  0  0  0  0
    1.2827   -4.1213   -0.0000 C   0  0  0  0  0  0  0  0  0  0  0  0
    3.8957   -4.1094   -0.0000 C   0  0  0  0  0  0  0  0  0  0  0  0
   -1.4371    4.2045   -0.0000 C   0  0  0  0  0  0  0  0  0  0  0  0
    0.6532    5.7603   -0.0000 C   0  0  0  0  0  0  0  0  0  0  0  0
    5.5822    3.2662   -0.0000 C   0  0  0  0  0  0  0  0  0  0  0  0
    3.3493    4.5726   -0.0000 C   0  0  0  0  0  0  0  0  0  0  0  0
    2.5773   -4.8577   -0.0000 C   0  0  0  0  0  0  0  0  0  0  0  0
   -0.8433    5.6059   -0.0000 N   0  0  0  0  0  0  0  0  0  0  0  0
    1.2471    7.1499   -0.0000 O   0  0  0  0  0  0  0  0  0  0  0  0
    4.8221    4.5845   -0.0000 N   0  0  0  0  0  0  0  0  0  0  0  0
    2.5773   -6.3542   -0.0000 C   0  0  0  0  0  0  0  0  0  0  0  0
    2.7317    7.3281   -0.0000 C   0  0  0  0  0  0  0  0  0  0  0  0
    5.5703    5.8910   -0.0000 C   0  0  0  0  0  0  0  0  0  0  0  0
    3.8600   -7.0787   -0.0000 C   0  0  0  0  0  0  0  0  0  0  0  0
    1.2590   -7.0906   -0.0000 C   0  0  0  0  0  0  0  0  0  0  0  0
    7.0668    5.9029   -0.0000 C   0  0  0  0  0  0  0  0  0  0  0  0
    3.8600   -8.5633   -0.0000 C   0  0  0  0  0  0  0  0  0  0  0  0
    1.2471   -8.5752   -0.0000 C   0  0  0  0  0  0  0  0  0  0  0  0
    7.8032    7.2093   -0.0000 N   0  0  0  0  0  0  0  0  0  0  0  0
    7.8032    4.6083   -0.0000 C   0  0  0  0  0  0  0  0  0  0  0  0
    4.9765   -9.5491   -0.0000 N   0  0  0  0  0  0  0  0  0  0  0  0
    2.5536   -9.3234   -0.0000 C   0  0  0  0  0  0  0  0  0  0  0  0
    9.2878    7.2212   -0.0000 C   0  0  0  0  0  0  0  0  0  0  0  0
    9.2878    4.6201   -0.0000 C   0  0  0  0  0  0  0  0  0  0  0  0
    7.0312    3.3256   -0.0000 C   0  0  0  0  0  0  0  0  0  0  0  0
    4.3707  -10.9268   -0.0000 C   0  0  0  0  0  0  0  0  0  0  0  0
    2.8742  -10.7843   -0.0000 N   0  0  0  0  0  0  0  0  0  0  0  0
   10.0361    5.9266   -0.0000 C   0  0  0  0  0  0  0  0  0  0  0  0
  1  2  2  0  0  0  0
  2  3  1  0  0  0  0
  2  4  1  0  0  0  0
  3  5  1  0  0  0  0
  3  6  1  0  0  0  0
  4  7  1  0  0  0  0
  4  8  1  0  0  0  0
  5  9  2  0  0  0  0
  5 10  1  0  0  0  0
  6 11  2  0  0  0  0
  7 12  2  0  0  0  0
  7 13  1  0  0  0  0
  8 14  1  0  0  0  0
  8 15  1  0  0  0  0
  9 16  1  0  0  0  0
 10 17  2  0  0  0  0
 12 18  1  0  0  0  0
 13 19  2  0  0  0  0
 14 20  1  0  0  0  0
 15 21  1  0  0  0  0
 16 22  2  0  0  0  0
 18 23  2  0  0  0  0
 19 24  1  0  0  0  0
 20 25  1  0  0  0  0
 22 26  1  0  0  0  0
 24 27  1  0  0  0  0
 25 28  1  0  0  0  0
 26 29  2  0  0  0  0
 26 30  1  0  0  0  0
 28 31  1  0  0  0  0
 29 32  1  0  0  0  0
 30 33  2  0  0  0  0
 31 34  2  0  0  0  0
 31 35  1  0  0  0  0
 32 36  1  0  0  0  0
 32 37  2  0  0  0  0
 34 38  1  0  0  0  0
 35 39  2  0  0  0  0
 35 40  1  0  0  0  0
 36 41  1  0  0  0  0
 37 42  1  0  0  0  0
 38 43  2  0  0  0  0
  6  8  1  0  0  0  0
 17 22  1  0  0  0  0
 19 23  1  0  0  0  0
 21 25  1  0  0  0  0
 33 37  1  0  0  0  0
 39 43  1  0  0  0  0
 41 42  2  0  0  0  0
M  END
>  <MolRegNo>
1347592

>  <m>
=

>  <Value>
18000

>  <Unit>
nM

>  <Type>
IC50

>  <pValue>
4.75

>  <Ligand Efficiency>
0

>  <Binding Efficiency>
0

>  <Surface Efficiency>
0

>  <Assay Index>
657932

>  <Assay Category>


>  <Assay Organism>


>  <Target ID>
17045

>  <Target Name>
Cytochrome P450 3A4

>  <Target Organism>
Homo sapiens

>  <Target Description>
Target is a single protein chain

>  <Sequence Accession>
P08684

>  <Reference>
J Med Chem 55 (7), 2945-2959 (2012)

>  <Pubmed ID>
22364528

>  <DOI>
10.1021/jm201542d

$$$$
1349441
Actelion Java MolfileCreator 1.0

 39 44  0  0  0  0  0  0  0  0999 V2000
    0.0000   -0.0000   -0.0000 O   0  0  0  0  0  0  0  0  0  0  0  0
    1.4134    0.4751   -0.0000 C   0  0  0  0  0  0  0  0  0  0  0  0
    2.6248   -0.4038   -0.0000 N   0  0  0  0  0  0  0  0  0  0  0  0
    1.8647    1.9241   -0.0000 N   0  0  0  0  0  0  0  0  0  0  0  0
    2.6130   -1.9003   -0.0000 C   0  0  0  0  0  0  0  0  0  0  0  0
    3.8363    0.4988   -0.0000 C   0  0  0  0  0  0  0  0  0  0  0  0
    0.9620    3.1474   -0.0000 C   0  0  0  0  0  0  0  0  0  0  0  0
    3.3612    1.9478   -0.0000 C   0  0  0  0  0  0  0  0  0  0  0  0
    1.2946   -2.6367   -0.0000 C   0  0  0  0  0  0  0  0  0  0  0  0
    3.8957   -2.6248   -0.0000 C   0  0  0  0  0  0  0  0  0  0  0  0
    5.2497    0.0475   -0.0000 O   0  0  0  0  0  0  0  0  0  0  0  0
   -0.5345    2.9930   -0.0000 N   0  0  0  0  0  0  0  0  0  0  0  0
    1.5559    4.5370   -0.0000 C   0  0  0  0  0  0  0  0  0  0  0  0
    4.8459    1.9597   -0.0000 C   0  0  0  0  0  0  0  0  0  0  0  0
    2.6011    3.2543   -0.0000 C   0  0  0  0  0  0  0  0  0  0  0  0
    1.2827   -4.1213   -0.0000 C   0  0  0  0  0  0  0  0  0  0  0  0
    3.8957   -4.1095   -0.0000 C   0  0  0  0  0  0  0  0  0  0  0  0
   -1.4371    4.2045   -0.0000 C   0  0  0  0  0  0  0  0  0  0  0  0
    0.6532    5.7604   -0.0000 C   0  0  0  0  0  0  0  0  0  0  0  0
    5.5822    3.2662   -0.0000 C   0  0  0  0  0  0  0  0  0  0  0  0
    3.3493    4.5727   -0.0000 C   0  0  0  0  0  0  0  0  0  0  0  0
    2.5773   -4.8577   -0.0000 C   0  0  0  0  0  0  0  0  0  0  0  0
   -0.8433    5.6060   -0.0000 N   0  0  0  0  0  0  0  0  0  0  0  0
    1.2471    7.1500   -0.0000 O   0  0  0  0  0  0  0  0  0  0  0  0
    4.8221    4.5846   -0.0000 N   0  0  0  0  0  0  0  0  0  0  0  0
    2.5773   -6.3424   -0.0000 C   0  0  0  0  0  0  0  0  0  0  0  0
    5.5704    5.8910   -0.0000 C   0  0  0  0  0  0  0  0  0  0  0  0
    1.2590   -7.0906   -0.0000 C   0  0  0  0  0  0  0  0  0  0  0  0
    3.8601   -7.0669   -0.0000 C   0  0  0  0  0  0  0  0  0  0  0  0
    7.0669    5.9029   -0.0000 C   0  0  0  0  0  0  0  0  0  0  0  0
    1.2471   -8.5753   -0.0000 C   0  0  0  0  0  0  0  0  0  0  0  0
    3.8601   -8.5515   -0.0000 C   0  0  0  0  0  0  0  0  0  0  0  0
    7.8032    7.2094   -0.0000 N   0  0  0  0  0  0  0  0  0  0  0  0
    7.8032    4.6083   -0.0000 C   0  0  0  0  0  0  0  0  0  0  0  0
    2.5417   -9.3116   -0.0000 C   0  0  0  0  0  0  0  0  0  0  0  0
    9.2879    7.2213   -0.0000 C   0  0  0  0  0  0  0  0  0  0  0  0
    9.2879    4.6202   -0.0000 C   0  0  0  0  0  0  0  0  0  0  0  0
    7.0312    3.3256   -0.0000 C   0  0  0  0  0  0  0  0  0  0  0  0
   10.0361    5.9267   -0.0000 C   0  0  0  0  0  0  0  0  0  0  0  0
  1  2  2  0  0  0  0
  2  3  1  0  0  0  0
  2  4  1  0  0  0  0
  3  5  1  0  0  0  0
  3  6  1  0  0  0  0
  4  7  1  0  0  0  0
  4  8  1  0  0  0  0
  5  9  2  0  0  0  0
  5 10  1  0  0  0  0
  6 11  2  0  0  0  0
  7 12  2  0  0  0  0
  7 13  1  0  0  0  0
  8 14  1  0  0  0  0
  8 15  1  0  0  0  0
  9 16  1  0  0  0  0
 10 17  2  0  0  0  0
 12 18  1  0  0  0  0
 13 19  2  0  0  0  0
 14 20  1  0  0  0  0
 15 21  1  0  0  0  0
 16 22  2  0  0  0  0
 18 23  2  0  0  0  0
 19 24  1  0  0  0  0
 20 25  1  0  0  0  0
 22 26  1  0  0  0  0
 25 27  1  0  0  0  0
 26 28  2  0  0  0  0
 26 29  1  0  0  0  0
 27 30  1  0  0  0  0
 28 31  1  0  0  0  0
 29 32  2  0  0  0  0
 30 33  2  0  0  0  0
 30 34  1  0  0  0  0
 31 35  2  0  0  0  0
 33 36  1  0  0  0  0
 34 37  2  0  0  0  0
 34 38  1  0  0  0  0
 36 39  2  0  0  0  0
  6  8  1  0  0  0  0
 17 22  1  0  0  0  0
 19 23  1  0  0  0  0
 21 25  1  0  0  0  0
 32 35  1  0  0  0  0
 37 39  1  0  0  0  0
M  END
>  <MolRegNo>
1349441

>  <m>
=

>  <Value>
69000

>  <Unit>
nM

>  <Type>
IC50

>  <pValue>
4.16

>  <Ligand Efficiency>
0

>  <Binding Efficiency>
0

>  <Surface Efficiency>
0

>  <Assay Index>
657932

>  <Assay Category>


>  <Assay Organism>


>  <Target ID>
17045

>  <Target Name>
Cytochrome P450 3A4

>  <Target Organism>
Homo sapiens

>  <Target Description>
Target is a single protein chain

>  <Sequence Accession>
P08684

>  <Reference>
J Med Chem 55 (7), 2945-2959 (2012)

>  <Pubmed ID>
22364528

>  <DOI>
10.1021/jm201542d

$$$$
1351613
Actelion Java MolfileCreator 1.0

 26 28  0  0  0  0  0  0  0  0999 V2000
    0.0000   -0.0000   -0.0000 S   0  0  0  0  0  0  0  0  0  0  0  0
   -1.5109    0.0118   -0.0000 C   0  0  0  0  0  0  0  0  0  0  0  0
    0.7437   -1.2867   -0.0000 C   0  0  0  0  0  0  0  0  0  0  0  0
   -2.4081    1.2394   -0.0000 N   0  0  0  0  0  0  0  0  0  0  0  0
   -2.4081   -1.2040   -0.0000 N   0  0  0  0  0  0  0  0  0  0  0  0
    2.2310   -1.2749   -0.0000 C   0  0  0  0  0  0  0  0  0  0  0  0
   -3.8600    0.7791   -0.0000 C   0  0  0  0  0  0  0  0  0  0  0  0
   -3.8600   -0.7201   -0.0000 C   0  0  0  0  0  0  0  0  0  0  0  0
   -1.9595   -2.6205   -0.0000 C   0  0  0  0  0  0  0  0  0  0  0  0
    2.9629    0.0236   -0.0000 C   0  0  0  0  0  0  0  0  0  0  0  0
    2.9629   -2.5615   -0.0000 C   0  0  0  0  0  0  0  0  0  0  0  0
   -5.1703    1.5346   -0.0000 C   0  0  0  0  0  0  0  0  0  0  0  0
   -5.1703   -1.4637   -0.0000 C   0  0  0  0  0  0  0  0  0  0  0  0
   -2.9747   -3.7183   -0.0000 C   0  0  0  0  0  0  0  0  0  0  0  0
    2.1956    1.3339   -0.0000 O   0  0  0  0  0  0  0  0  0  0  0  0
    4.4502    0.0472   -0.0000 C   0  0  0  0  0  0  0  0  0  0  0  0
    4.4502   -2.5497   -0.0000 C   0  0  0  0  0  0  0  0  0  0  0  0
   -6.4805    0.7909   -0.0000 C   0  0  0  0  0  0  0  0  0  0  0  0
   -6.4805   -0.6965   -0.0000 C   0  0  0  0  0  0  0  0  0  0  0  0
   -4.4502   -3.3996   -0.0000 O   0  0  0  0  0  0  0  0  0  0  0  0
   -2.5261   -5.1349   -0.0000 O   0  0  0  0  0  0  0  0  0  0  0  0
    2.9275    2.6442   -0.0000 C   0  0  0  0  0  0  0  0  0  0  0  0
    5.1939   -1.2394   -0.0000 C   0  0  0  0  0  0  0  0  0  0  0  0
    5.1821   -3.8364   -0.0000 C   0  0  0  0  0  0  0  0  0  0  0  0
    4.4148   -5.1231   -0.0000 O   0  0  0  0  0  0  0  0  0  0  0  0
    6.6694   -3.8246   -0.0000 C   0  0  0  0  0  0  0  0  0  0  0  0
  1  2  1  0  0  0  0
  1  3  1  0  0  0  0
  2  4  2  0  0  0  0
  2  5  1  0  0  0  0
  3  6  1  0  0  0  0
  4  7  1  0  0  0  0
  5  8  1  0  0  0  0
  5  9  1  0  0  0  0
  6 10  2  0  0  0  0
  6 11  1  0  0  0  0
  7 12  1  0  0  0  0
  8 13  1  0  0  0  0
  9 14  1  0  0  0  0
 10 15  1  0  0  0  0
 10 16  1  0  0  0  0
 11 17  2  0  0  0  0
 12 18  2  0  0  0  0
 13 19  2  0  0  0  0
 14 20  2  0  0  0  0
 14 21  1  0  0  0  0
 15 22  1  0  0  0  0
 16 23  2  0  0  0  0
 17 24  1  0  0  0  0
 24 25  2  0  0  0  0
 24 26  1  0  0  0  0
  7  8  2  0  0  0  0
 17 23  1  0  0  0  0
 18 19  1  0  0  0  0
M  END
>  <MolRegNo>
1351613

>  <m>
=

>  <Value>
37000

>  <Unit>
nM

>  <Type>
IC50

>  <pValue>
4.43

>  <Ligand Efficiency>
0

>  <Binding Efficiency>
0

>  <Surface Efficiency>
0

>  <Assay Index>
662338

>  <Assay Category>


>  <Assay Organism>


>  <Target ID>
17045

>  <Target Name>
Cytochrome P450 3A4

>  <Target Organism>
Homo sapiens

>  <Target Description>
Target is a single protein chain

>  <Sequence Accession>
P08684

>  <Reference>
Bioorg Med Chem Lett 22 (14), 4660-4664 (2012)

>  <Pubmed ID>
22726929

>  <DOI>
10.1016/j.bmcl.2012.05.087

$$$$
1351617
Actelion Java MolfileCreator 1.0

 27 29  0  0  0  0  0  0  0  0999 V2000
    0.0000   -0.0000   -0.0000 S   0  0  0  0  0  0  0  0  0  0  0  0
   -1.5098    0.0118   -0.0000 C   0  0  0  0  0  0  0  0  0  0  0  0
    0.7431   -1.2857   -0.0000 C   0  0  0  0  0  0  0  0  0  0  0  0
   -2.4062    1.2385   -0.0000 N   0  0  0  0  0  0  0  0  0  0  0  0
   -2.4062   -1.2031   -0.0000 N   0  0  0  0  0  0  0  0  0  0  0  0
    2.2293   -1.2739   -0.0000 C   0  0  0  0  0  0  0  0  0  0  0  0
   -3.8571    0.7785   -0.0000 C   0  0  0  0  0  0  0  0  0  0  0  0
   -3.8571   -0.7195   -0.0000 C   0  0  0  0  0  0  0  0  0  0  0  0
   -1.9580   -2.6186   -0.0000 C   0  0  0  0  0  0  0  0  0  0  0  0
    2.9606    0.0354   -0.0000 C   0  0  0  0  0  0  0  0  0  0  0  0
    2.9606   -2.5596   -0.0000 C   0  0  0  0  0  0  0  0  0  0  0  0
   -5.1663    1.5334   -0.0000 C   0  0  0  0  0  0  0  0  0  0  0  0
   -5.1663   -1.4626   -0.0000 C   0  0  0  0  0  0  0  0  0  0  0  0
   -2.9724   -3.7155   -0.0000 C   0  0  0  0  0  0  0  0  0  0  0  0
    2.1939    1.3447   -0.0000 O   0  0  0  0  0  0  0  0  0  0  0  0
    4.4468    0.0590   -0.0000 C   0  0  0  0  0  0  0  0  0  0  0  0
    4.4468   -2.5478   -0.0000 C   0  0  0  0  0  0  0  0  0  0  0  0
   -6.4756    0.7903   -0.0000 C   0  0  0  0  0  0  0  0  0  0  0  0
   -6.4756   -0.6959   -0.0000 C   0  0  0  0  0  0  0  0  0  0  0  0
   -4.4468   -3.3971   -0.0000 O   0  0  0  0  0  0  0  0  0  0  0  0
   -2.5242   -5.1310   -0.0000 O   0  0  0  0  0  0  0  0  0  0  0  0
    2.9252    2.6539   -0.0000 C   0  0  0  0  0  0  0  0  0  0  0  0
    5.1899   -1.2267   -0.0000 C   0  0  0  0  0  0  0  0  0  0  0  0
    5.1781   -3.8335   -0.0000 C   0  0  0  0  0  0  0  0  0  0  0  0
   -7.7849    1.5452   -0.0000 F   0  0  0  0  0  0  0  0  0  0  0  0
    4.4114   -5.1192   -0.0000 O   0  0  0  0  0  0  0  0  0  0  0  0
    6.6644   -3.8217   -0.0000 C   0  0  0  0  0  0  0  0  0  0  0  0
  1  2  1  0  0  0  0
  1  3  1  0  0  0  0
  2  4  2  0  0  0  0
  2  5  1  0  0  0  0
  3  6  1  0  0  0  0
  4  7  1  0  0  0  0
  5  8  1  0  0  0  0
  5  9  1  0  0  0  0
  6 10  2  0  0  0  0
  6 11  1  0  0  0  0
  7 12  1  0  0  0  0
  8 13  1  0  0  0  0
  9 14  1  0  0  0  0
 10 15  1  0  0  0  0
 10 16  1  0  0  0  0
 11 17  2  0  0  0  0
 12 18  2  0  0  0  0
 13 19  2  0  0  0  0
 14 20  2  0  0  0  0
 14 21  1  0  0  0  0
 15 22  1  0  0  0  0
 16 23  2  0  0  0  0
 17 24  1  0  0  0  0
 18 25  1  0  0  0  0
 24 26  2  0  0  0  0
 24 27  1  0  0  0  0
  7  8  2  0  0  0  0
 17 23  1  0  0  0  0
 18 19  1  0  0  0  0
M  END
>  <MolRegNo>
1351617

>  <m>
=

>  <Value>
10000

>  <Unit>
nM

>  <Type>
IC50

>  <pValue>
5

>  <Ligand Efficiency>
0

>  <Binding Efficiency>
0

>  <Surface Efficiency>
0

>  <Assay Index>
662338

>  <Assay Category>


>  <Assay Organism>


>  <Target ID>
17045

>  <Target Name>
Cytochrome P450 3A4

>  <Target Organism>
Homo sapiens

>  <Target Description>
Target is a single protein chain

>  <Sequence Accession>
P08684

>  <Reference>
Bioorg Med Chem Lett 22 (14), 4660-4664 (2012)

>  <Pubmed ID>
22726929

>  <DOI>
10.1016/j.bmcl.2012.05.087

$$$$
1351629
Actelion Java MolfileCreator 1.0

 31 33  0  0  0  0  0  0  0  0999 V2000
    0.0000   -0.0000   -0.0000 S   0  0  0  0  0  0  0  0  0  0  0  0
   -1.5119    0.0118   -0.0000 C   0  0  0  0  0  0  0  0  0  0  0  0
    0.7441   -1.2875   -0.0000 C   0  0  0  0  0  0  0  0  0  0  0  0
   -2.4096    1.2402   -0.0000 N   0  0  0  0  0  0  0  0  0  0  0  0
   -2.4096   -1.2048   -0.0000 N   0  0  0  0  0  0  0  0  0  0  0  0
    2.2324   -1.2757   -0.0000 C   0  0  0  0  0  0  0  0  0  0  0  0
   -3.8625    0.7796   -0.0000 C   0  0  0  0  0  0  0  0  0  0  0  0
   -3.8625   -0.7205   -0.0000 C   0  0  0  0  0  0  0  0  0  0  0  0
   -1.9608   -2.6222   -0.0000 C   0  0  0  0  0  0  0  0  0  0  0  0
    2.9648    0.0354   -0.0000 C   0  0  0  0  0  0  0  0  0  0  0  0
    2.9648   -2.5632   -0.0000 C   0  0  0  0  0  0  0  0  0  0  0  0
   -5.1736    1.5355   -0.0000 C   0  0  0  0  0  0  0  0  0  0  0  0
   -5.1736   -1.4647   -0.0000 C   0  0  0  0  0  0  0  0  0  0  0  0
   -2.9766   -3.7207   -0.0000 C   0  0  0  0  0  0  0  0  0  0  0  0
    2.1970    1.3465   -0.0000 O   0  0  0  0  0  0  0  0  0  0  0  0
    4.4531    0.0591   -0.0000 C   0  0  0  0  0  0  0  0  0  0  0  0
    4.4531   -2.5514   -0.0000 C   0  0  0  0  0  0  0  0  0  0  0  0
   -6.4847    0.7914   -0.0000 C   0  0  0  0  0  0  0  0  0  0  0  0
   -6.4847   -0.6969   -0.0000 C   0  0  0  0  0  0  0  0  0  0  0  0
   -4.4531   -3.4018   -0.0000 O   0  0  0  0  0  0  0  0  0  0  0  0
   -2.5277   -5.1381   -0.0000 O   0  0  0  0  0  0  0  0  0  0  0  0
    2.9293    2.6577   -0.0000 C   0  0  0  0  0  0  0  0  0  0  0  0
    5.1972   -1.2284   -0.0000 C   0  0  0  0  0  0  0  0  0  0  0  0
    5.1854   -3.8388   -0.0000 C   0  0  0  0  0  0  0  0  0  0  0  0
   -7.7958    1.5474   -0.0000 F   0  0  0  0  0  0  0  0  0  0  0  0
    4.4176   -5.1263   -0.0000 O   0  0  0  0  0  0  0  0  0  0  0  0
    6.6737   -3.8270   -0.0000 N   0  0  0  0  0  0  0  0  0  0  0  0
    7.4060   -5.1145   -0.0000 C   0  0  0  0  0  0  0  0  0  0  0  0
    8.8943   -5.1027   -0.0000 C   0  0  0  0  0  0  0  0  0  0  0  0
    9.6266   -6.3902   -0.0000 C   0  0  0  0  0  0  0  0  0  0  0  0
   11.1149   -6.3784   -0.0000 C   0  0  0  0  0  0  0  0  0  0  0  0
  1  2  1  0  0  0  0
  1  3  1  0  0  0  0
  2  4  2  0  0  0  0
  2  5  1  0  0  0  0
  3  6  1  0  0  0  0
  4  7  1  0  0  0  0
  5  8  1  0  0  0  0
  5  9  1  0  0  0  0
  6 10  2  0  0  0  0
  6 11  1  0  0  0  0
  7 12  1  0  0  0  0
  8 13  1  0  0  0  0
  9 14  1  0  0  0  0
 10 15  1  0  0  0  0
 10 16  1  0  0  0  0
 11 17  2  0  0  0  0
 12 18  2  0  0  0  0
 13 19  2  0  0  0  0
 14 20  2  0  0  0  0
 14 21  1  0  0  0  0
 15 22  1  0  0  0  0
 16 23  2  0  0  0  0
 17 24  1  0  0  0  0
 18 25  1  0  0  0  0
 24 26  2  0  0  0  0
 24 27  1  0  0  0  0
 27 28  1  0  0  0  0
 28 29  1  0  0  0  0
 29 30  1  0  0  0  0
 30 31  1  0  0  0  0
  7  8  2  0  0  0  0
 17 23  1  0  0  0  0
 18 19  1  0  0  0  0
M  END
>  <MolRegNo>
1351629

>  <m>
=

>  <Value>
4000

>  <Unit>
nM

>  <Type>
IC50

>  <pValue>
5.4

>  <Ligand Efficiency>
0

>  <Binding Efficiency>
0

>  <Surface Efficiency>
0

>  <Assay Index>
662338

>  <Assay Category>


>  <Assay Organism>


>  <Target ID>
17045

>  <Target Name>
Cytochrome P450 3A4

>  <Target Organism>
Homo sapiens

>  <Target Description>
Target is a single protein chain

>  <Sequence Accession>
P08684

>  <Reference>
Bioorg Med Chem Lett 22 (14), 4660-4664 (2012)

>  <Pubmed ID>
22726929

>  <DOI>
10.1016/j.bmcl.2012.05.087

$$$$
1351634
Actelion Java MolfileCreator 1.0

 35 39  0  0  0  0  0  0  0  0999 V2000
    0.0000   -0.0000   -0.0000 S   0  0  0  0  0  0  0  0  0  0  0  0
   -1.5111    0.0118   -0.0000 C   0  0  0  0  0  0  0  0  0  0  0  0
    0.7438   -1.2868   -0.0000 C   0  0  0  0  0  0  0  0  0  0  0  0
   -2.4084    1.2396   -0.0000 N   0  0  0  0  0  0  0  0  0  0  0  0
   -2.4084   -1.2042   -0.0000 N   0  0  0  0  0  0  0  0  0  0  0  0
    2.2313   -1.2750   -0.0000 C   0  0  0  0  0  0  0  0  0  0  0  0
   -3.8605    0.7792   -0.0000 C   0  0  0  0  0  0  0  0  0  0  0  0
   -3.8605   -0.7202   -0.0000 C   0  0  0  0  0  0  0  0  0  0  0  0
   -1.9598   -2.6209   -0.0000 C   0  0  0  0  0  0  0  0  0  0  0  0
    2.9632    0.0354   -0.0000 C   0  0  0  0  0  0  0  0  0  0  0  0
    2.9632   -2.5618   -0.0000 C   0  0  0  0  0  0  0  0  0  0  0  0
   -5.1709    1.5347   -0.0000 C   0  0  0  0  0  0  0  0  0  0  0  0
   -5.1709   -1.4639   -0.0000 C   0  0  0  0  0  0  0  0  0  0  0  0
   -2.9750   -3.7188   -0.0000 C   0  0  0  0  0  0  0  0  0  0  0  0
    2.1959    1.3459   -0.0000 O   0  0  0  0  0  0  0  0  0  0  0  0
    4.4508    0.0590   -0.0000 C   0  0  0  0  0  0  0  0  0  0  0  0
    4.4508   -2.5500   -0.0000 C   0  0  0  0  0  0  0  0  0  0  0  0
   -6.4814    0.7910   -0.0000 C   0  0  0  0  0  0  0  0  0  0  0  0
   -6.4814   -0.6965   -0.0000 C   0  0  0  0  0  0  0  0  0  0  0  0
   -4.4508   -3.4001   -0.0000 O   0  0  0  0  0  0  0  0  0  0  0  0
   -2.5264   -5.1355   -0.0000 O   0  0  0  0  0  0  0  0  0  0  0  0
    2.9278    2.6563   -0.0000 C   0  0  0  0  0  0  0  0  0  0  0  0
    5.1945   -1.2278   -0.0000 C   0  0  0  0  0  0  0  0  0  0  0  0
    5.1827   -3.8369   -0.0000 C   0  0  0  0  0  0  0  0  0  0  0  0
   -7.7918    1.5466   -0.0000 F   0  0  0  0  0  0  0  0  0  0  0  0
    4.4153   -5.1237   -0.0000 O   0  0  0  0  0  0  0  0  0  0  0  0
    6.6702   -3.8251   -0.0000 N   0  0  0  0  0  0  0  0  0  0  0  0
    7.5439   -2.5973   -0.0000 C   0  0  0  0  0  0  0  0  0  0  0  0
    7.5439   -5.0174   -0.0000 C   0  0  0  0  0  0  0  0  0  0  0  0
    8.9606   -3.0459   -0.0000 C   0  0  0  0  0  0  0  0  0  0  0  0
    7.2133   -1.1334   -0.0000 C   0  0  0  0  0  0  0  0  0  0  0  0
    8.9606   -4.5452   -0.0000 C   0  0  0  0  0  0  0  0  0  0  0  0
   10.0585   -2.0306   -0.0000 C   0  0  0  0  0  0  0  0  0  0  0  0
    8.2994   -0.1181   -0.0000 C   0  0  0  0  0  0  0  0  0  0  0  0
    9.7397   -0.5549   -0.0000 C   0  0  0  0  0  0  0  0  0  0  0  0
  1  2  1  0  0  0  0
  1  3  1  0  0  0  0
  2  4  2  0  0  0  0
  2  5  1  0  0  0  0
  3  6  1  0  0  0  0
  4  7  1  0  0  0  0
  5  8  1  0  0  0  0
  5  9  1  0  0  0  0
  6 10  2  0  0  0  0
  6 11  1  0  0  0  0
  7 12  1  0  0  0  0
  8 13  1  0  0  0  0
  9 14  1  0  0  0  0
 10 15  1  0  0  0  0
 10 16  1  0  0  0  0
 11 17  2  0  0  0  0
 12 18  2  0  0  0  0
 13 19  2  0  0  0  0
 14 20  2  0  0  0  0
 14 21  1  0  0  0  0
 15 22  1  0  0  0  0
 16 23  2  0  0  0  0
 17 24  1  0  0  0  0
 18 25  1  0  0  0  0
 24 26  2  0  0  0  0
 24 27  1  0  0  0  0
 27 28  1  0  0  0  0
 27 29  1  0  0  0  0
 28 30  2  0  0  0  0
 28 31  1  0  0  0  0
 29 32  1  0  0  0  0
 30 33  1  0  0  0  0
 31 34  2  0  0  0  0
 33 35  2  0  0  0  0
  7  8  2  0  0  0  0
 17 23  1  0  0  0  0
 18 19  1  0  0  0  0
 30 32  1  0  0  0  0
 34 35  1  0  0  0  0
M  END
>  <MolRegNo>
1351634

>  <m>
=

>  <Value>
5000

>  <Unit>
nM

>  <Type>
IC50

>  <pValue>
5.3

>  <Ligand Efficiency>
0

>  <Binding Efficiency>
0

>  <Surface Efficiency>
0

>  <Assay Index>
662338

>  <Assay Category>


>  <Assay Organism>


>  <Target ID>
17045

>  <Target Name>
Cytochrome P450 3A4

>  <Target Organism>
Homo sapiens

>  <Target Description>
Target is a single protein chain

>  <Sequence Accession>
P08684

>  <Reference>
Bioorg Med Chem Lett 22 (14), 4660-4664 (2012)

>  <Pubmed ID>
22726929

>  <DOI>
10.1016/j.bmcl.2012.05.087

$$$$
1339281
Actelion Java MolfileCreator 1.0

 54 59  0  0  0  0  0  0  0  0999 V2000
    0.0000   -0.0000   -0.0000 O   0  0  0  0  0  0  0  0  0  0  0  0
   -0.0118    1.5040   -0.0000 C   0  0  0  0  0  0  0  0  0  0  0  0
    1.2690    2.2561   -0.0000 O   0  0  0  0  0  0  0  0  0  0  0  0
   -1.3160    2.2561   -0.0000 N   0  0  0  0  0  0  0  0  0  0  0  0
    2.5498    1.5275   -0.0000 C   0  0  0  0  0  0  0  0  0  0  0  0
   -1.3278    3.7601   -0.0000 C   0  0  0  0  0  0  0  0  0  0  0  0
   -2.6321    4.5121   -0.0000 C   0  0  0  0  0  0  0  0  0  0  0  0
   -0.0470    4.5121   -0.0000 C   0  0  0  0  0  0  0  0  0  0  0  0
   -3.9364    3.7836   -0.0000 O   0  0  0  0  0  0  0  0  0  0  0  0
   -2.6438    6.0162   -0.0000 N   0  0  0  0  0  0  0  0  0  0  0  0
    1.2338    3.7836   -0.0000 C   0  0  0  0  0  0  0  0  0  0  0  0
   -0.0588    6.0162   -0.0000 C   0  0  0  0  0  0  0  0  0  0  0  0
   -3.8659    6.9092   -0.0000 C   0  0  0  0  0  0  0  0  0  0  0  0
   -1.4570    6.9092   -0.0000 C   0  0  0  0  0  0  0  0  0  0  0  0
   -5.2994    6.4627   -0.0000 C   0  0  0  0  0  0  0  0  0  0  0  0
   -3.4193    8.3427   -0.0000 C   0  0  0  0  0  0  0  0  0  0  0  0
   -1.9271    8.3427   -0.0000 C   0  0  0  0  0  0  0  0  0  0  0  0
   -5.7694    5.0409   -0.0000 N   0  0  0  0  0  0  0  0  0  0  0  0
   -6.5214    7.3440   -0.0000 N   0  0  0  0  0  0  0  0  0  0  0  0
   -7.2735    5.0526   -0.0000 C   0  0  0  0  0  0  0  0  0  0  0  0
   -7.7435    6.4744   -0.0000 C   0  0  0  0  0  0  0  0  0  0  0  0
   -9.2475    6.4979   -0.0000 C   0  0  0  0  0  0  0  0  0  0  0  0
  -10.0113    5.2171   -0.0000 C   0  0  0  0  0  0  0  0  0  0  0  0
  -10.0113    7.8140   -0.0000 C   0  0  0  0  0  0  0  0  0  0  0  0
  -11.5153    5.2406   -0.0000 C   0  0  0  0  0  0  0  0  0  0  0  0
  -11.5153    7.8257   -0.0000 C   0  0  0  0  0  0  0  0  0  0  0  0
  -12.2673    6.5567   -0.0000 C   0  0  0  0  0  0  0  0  0  0  0  0
  -13.7714    6.5802   -0.0000 C   0  0  0  0  0  0  0  0  0  0  0  0
  -14.5469    5.2994   -0.0000 C   0  0  0  0  0  0  0  0  0  0  0  0
  -14.5234    7.8962   -0.0000 C   0  0  0  0  0  0  0  0  0  0  0  0
  -16.0509    5.3229   -0.0000 C   0  0  0  0  0  0  0  0  0  0  0  0
  -16.0274    7.9197   -0.0000 C   0  0  0  0  0  0  0  0  0  0  0  0
  -16.8030    6.6389   -0.0000 C   0  0  0  0  0  0  0  0  0  0  0  0
  -18.2953    6.6624   -0.0000 C   0  0  0  0  0  0  0  0  0  0  0  0
  -19.5173    5.7929   -0.0000 N   0  0  0  0  0  0  0  0  0  0  0  0
  -18.7653    8.0960   -0.0000 C   0  0  0  0  0  0  0  0  0  0  0  0
  -20.7393    6.6742   -0.0000 C   0  0  0  0  0  0  0  0  0  0  0  0
  -20.2693    8.1077   -0.0000 N   0  0  0  0  0  0  0  0  0  0  0  0
  -22.1729    6.2277   -0.0000 C   0  0  0  0  0  0  0  0  0  0  0  0
  -23.3949    7.1207   -0.0000 N   0  0  0  0  0  0  0  0  0  0  0  0
  -22.6429    4.8176   -0.0000 C   0  0  0  0  0  0  0  0  0  0  0  0
  -23.4067    8.6247   -0.0000 C   0  0  0  0  0  0  0  0  0  0  0  0
  -24.6052    6.2512   -0.0000 C   0  0  0  0  0  0  0  0  0  0  0  0
  -24.1469    4.8294   -0.0000 C   0  0  0  0  0  0  0  0  0  0  0  0
  -22.1259    9.3768   -0.0000 O   0  0  0  0  0  0  0  0  0  0  0  0
  -24.7109    9.3768   -0.0000 C   0  0  0  0  0  0  0  0  0  0  0  0
  -24.7227   10.8808   -0.0000 N   0  0  0  0  0  0  0  0  0  0  0  0
  -26.0152    8.6482   -0.0000 C   0  0  0  0  0  0  0  0  0  0  0  0
  -26.0270   11.6328   -0.0000 C   0  0  0  0  0  0  0  0  0  0  0  0
  -27.3195    9.4003   -0.0000 C   0  0  0  0  0  0  0  0  0  0  0  0
  -26.0270    7.1677   -0.0000 C   0  0  0  0  0  0  0  0  0  0  0  0
  -26.0387   13.1369   -0.0000 O   0  0  0  0  0  0  0  0  0  0  0  0
  -27.3313   10.9043   -0.0000 O   0  0  0  0  0  0  0  0  0  0  0  0
  -28.6355   11.6563   -0.0000 C   0  0  0  0  0  0  0  0  0  0  0  0
  1  2  2  0  0  0  0
  2  3  1  0  0  0  0
  2  4  1  0  0  0  0
  3  5  1  0  0  0  0
  6  4  1  6  0  0  0
  6  7  1  0  0  0  0
  6  8  1  0  0  0  0
  7  9  2  0  0  0  0
  7 10  1  0  0  0  0
  8 11  1  0  0  0  0
  8 12  1  0  0  0  0
 10 13  1  0  0  0  0
 10 14  1  0  0  0  0
 13 15  1  6  0  0  0
 13 16  1  0  0  0  0
 14 17  1  0  0  0  0
 15 18  2  0  0  0  0
 15 19  1  0  0  0  0
 18 20  1  0  0  0  0
 19 21  1  0  0  0  0
 21 22  1  0  0  0  0
 22 23  2  0  0  0  0
 22 24  1  0  0  0  0
 23 25  1  0  0  0  0
 24 26  2  0  0  0  0
 25 27  2  0  0  0  0
 27 28  1  0  0  0  0
 28 29  2  0  0  0  0
 28 30  1  0  0  0  0
 29 31  1  0  0  0  0
 30 32  2  0  0  0  0
 31 33  2  0  0  0  0
 33 34  1  0  0  0  0
 34 35  1  0  0  0  0
 34 36  2  0  0  0  0
 35 37  1  0  0  0  0
 36 38  1  0  0  0  0
 39 37  1  6  0  0  0
 39 40  1  0  0  0  0
 39 41  1  0  0  0  0
 40 42  1  0  0  0  0
 40 43  1  0  0  0  0
 41 44  1  0  0  0  0
 42 45  2  0  0  0  0
 42 46  1  0  0  0  0
 46 47  1  6  0  0  0
 46 48  1  0  0  0  0
 47 49  1  0  0  0  0
 48 50  1  0  0  0  0
 48 51  1  0  0  0  0
 49 52  2  0  0  0  0
 49 53  1  0  0  0  0
 53 54  1  0  0  0  0
 16 17  1  0  0  0  0
 20 21  2  0  0  0  0
 26 27  1  0  0  0  0
 32 33  1  0  0  0  0
 37 38  2  0  0  0  0
 43 44  1  0  0  0  0
M  END
>  <MolRegNo>
1339281

>  <m>
=

>  <Value>
7200

>  <Unit>
nM

>  <Type>
IC50

>  <pValue>
5.14

>  <Ligand Efficiency>
0

>  <Binding Efficiency>
0

>  <Surface Efficiency>
0

>  <Assay Index>
662032

>  <Assay Category>


>  <Assay Organism>


>  <Target ID>
17045

>  <Target Name>
Cytochrome P450 3A4

>  <Target Organism>
Homo sapiens

>  <Target Description>
Target is a single protein chain

>  <Sequence Accession>
P08684

>  <Reference>
Bioorg Med Chem Lett 22 (14), 4864-4868 (2012)

>  <Pubmed ID>
22704887

>  <DOI>
10.1016/j.bmcl.2012.05.039

$$$$
1350608
Actelion Java MolfileCreator 1.0

 56 61  0  0  0  0  0  0  0  0999 V2000
    0.0000   -0.0000   -0.0000 Cl  0  0  0  0  0  0  0  0  0  0  0  0
    0.0000    1.5120   -0.0000 C   0  0  0  0  0  0  0  0  0  0  0  0
    1.2146    2.3920   -0.0000 N   0  0  0  0  0  0  0  0  0  0  0  0
   -1.2146    2.4168   -0.0000 C   0  0  0  0  0  0  0  0  0  0  0  0
    0.7560    3.8297   -0.0000 C   0  0  0  0  0  0  0  0  0  0  0  0
   -0.7436    3.8421   -0.0000 N   0  0  0  0  0  0  0  0  0  0  0  0
   -2.7143    2.4168   -0.0000 C   0  0  0  0  0  0  0  0  0  0  0  0
    1.8467    4.9080   -0.0000 C   0  0  0  0  0  0  0  0  0  0  0  0
   -3.5199    1.4005   -0.0000 C   0  0  0  0  0  0  0  0  0  0  0  0
   -3.5570    4.0032   -0.0000 C   0  0  0  0  0  0  0  0  0  0  0  0
    3.1852    4.6973   -0.0000 N   0  0  0  0  0  0  0  0  0  0  0  0
    1.5368    6.4572   -0.0000 C   0  0  0  0  0  0  0  0  0  0  0  0
   -5.0319    1.4005   -0.0000 C   0  0  0  0  0  0  0  0  0  0  0  0
   -5.0567    3.9908   -0.0000 C   0  0  0  0  0  0  0  0  0  0  0  0
    3.9660    3.4455   -0.0000 C   0  0  0  0  0  0  0  0  0  0  0  0
    3.9041    6.0234   -0.0000 C   0  0  0  0  0  0  0  0  0  0  0  0
    2.8878    7.1017   -0.0000 C   0  0  0  0  0  0  0  0  0  0  0  0
   -5.8127    2.7019   -0.0000 C   0  0  0  0  0  0  0  0  0  0  0  0
    3.2596    2.1317   -0.0000 O   0  0  0  0  0  0  0  0  0  0  0  0
    5.4533    3.5199   -0.0000 C   0  0  0  0  0  0  0  0  0  0  0  0
   -7.3124    2.7019   -0.0000 C   0  0  0  0  0  0  0  0  0  0  0  0
    6.2341    2.2681   -0.0000 N   0  0  0  0  0  0  0  0  0  0  0  0
    6.1350    4.8584   -0.0000 C   0  0  0  0  0  0  0  0  0  0  0  0
   -8.0560    1.4129   -0.0000 C   0  0  0  0  0  0  0  0  0  0  0  0
   -8.0932    4.0032   -0.0000 C   0  0  0  0  0  0  0  0  0  0  0  0
    7.7214    2.3424   -0.0000 C   0  0  0  0  0  0  0  0  0  0  0  0
    5.3294    6.1350   -0.0000 C   0  0  0  0  0  0  0  0  0  0  0  0
    7.5602    5.3170   -0.0000 C   0  0  0  0  0  0  0  0  0  0  0  0
   -9.5680    1.4129   -0.0000 C   0  0  0  0  0  0  0  0  0  0  0  0
   -9.5928    3.9908   -0.0000 C   0  0  0  0  0  0  0  0  0  0  0  0
    8.4030    3.6810   -0.0000 O   0  0  0  0  0  0  0  0  0  0  0  0
    8.5022    1.0907   -0.0000 O   0  0  0  0  0  0  0  0  0  0  0  0
  -10.3365    2.7143   -0.0000 C   0  0  0  0  0  0  0  0  0  0  0  0
    9.8531    0.8056   -0.0000 C   0  0  0  0  0  0  0  0  0  0  0  0
  -11.8485    2.7143   -0.0000 C   0  0  0  0  0  0  0  0  0  0  0  0
  -12.8896    1.6360   -0.0000 N   0  0  0  0  0  0  0  0  0  0  0  0
  -12.5797    4.0404   -0.0000 C   0  0  0  0  0  0  0  0  0  0  0  0
  -14.2529    2.3053   -0.0000 C   0  0  0  0  0  0  0  0  0  0  0  0
  -11.8485    5.3541   -0.0000 Cl  0  0  0  0  0  0  0  0  0  0  0  0
  -14.0670    3.7801   -0.0000 N   0  0  0  0  0  0  0  0  0  0  0  0
  -15.5791    1.5988   -0.0000 C   0  0  0  0  0  0  0  0  0  0  0  0
  -16.9176    2.3053   -0.0000 N   0  0  0  0  0  0  0  0  0  0  0  0
  -15.8393    0.1363   -0.0000 C   0  0  0  0  0  0  0  0  0  0  0  0
  -16.9672    3.8173   -0.0000 C   0  0  0  0  0  0  0  0  0  0  0  0
  -17.9959    1.2642   -0.0000 C   0  0  0  0  0  0  0  0  0  0  0  0
  -17.3266   -0.0744   -0.0000 C   0  0  0  0  0  0  0  0  0  0  0  0
  -15.7030    4.6105   -0.0000 O   0  0  0  0  0  0  0  0  0  0  0  0
  -18.2933    4.5485   -0.0000 C   0  0  0  0  0  0  0  0  0  0  0  0
  -18.3429    6.0606   -0.0000 N   0  0  0  0  0  0  0  0  0  0  0  0
  -19.5823    3.7801   -0.0000 C   0  0  0  0  0  0  0  0  0  0  0  0
  -19.6690    6.7918   -0.0000 C   0  0  0  0  0  0  0  0  0  0  0  0
  -20.9084    4.5114   -0.0000 C   0  0  0  0  0  0  0  0  0  0  0  0
  -19.5575    2.2929   -0.0000 C   0  0  0  0  0  0  0  0  0  0  0  0
  -20.9580    6.0234   -0.0000 O   0  0  0  0  0  0  0  0  0  0  0  0
  -19.7186    8.3039   -0.0000 O   0  0  0  0  0  0  0  0  0  0  0  0
  -18.4544    9.0971   -0.0000 C   0  0  0  0  0  0  0  0  0  0  0  0
  1  2  1  0  0  0  0
  2  3  1  0  0  0  0
  2  4  2  0  0  0  0
  3  5  2  0  0  0  0
  4  6  1  0  0  0  0
  4  7  1  0  0  0  0
  8  5  1  6  0  0  0
  7  9  2  0  0  0  0
  7 10  1  0  0  0  0
  8 11  1  0  0  0  0
  8 12  1  0  0  0  0
  9 13  1  0  0  0  0
 10 14  2  0  0  0  0
 11 15  1  0  0  0  0
 11 16  1  0  0  0  0
 12 17  1  0  0  0  0
 13 18  2  0  0  0  0
 15 19  2  0  0  0  0
 15 20  1  0  0  0  0
 18 21  1  0  0  0  0
 20 22  1  6  0  0  0
 20 23  1  0  0  0  0
 21 24  2  0  0  0  0
 21 25  1  0  0  0  0
 22 26  1  0  0  0  0
 23 27  1  0  0  0  0
 23 28  1  0  0  0  0
 24 29  1  0  0  0  0
 25 30  2  0  0  0  0
 26 31  2  0  0  0  0
 26 32  1  0  0  0  0
 29 33  2  0  0  0  0
 32 34  1  0  0  0  0
 33 35  1  0  0  0  0
 35 36  1  0  0  0  0
 35 37  2  0  0  0  0
 36 38  1  0  0  0  0
 37 39  1  0  0  0  0
 37 40  1  0  0  0  0
 41 38  1  6  0  0  0
 41 42  1  0  0  0  0
 41 43  1  0  0  0  0
 42 44  1  0  0  0  0
 42 45  1  0  0  0  0
 43 46  1  0  0  0  0
 44 47  2  0  0  0  0
 44 48  1  0  0  0  0
 48 49  1  6  0  0  0
 48 50  1  0  0  0  0
 49 51  1  0  0  0  0
 50 52  1  0  0  0  0
 50 53  1  0  0  0  0
 51 54  2  0  0  0  0
 51 55  1  0  0  0  0
 55 56  1  0  0  0  0
  5  6  1  0  0  0  0
 14 18  1  0  0  0  0
 16 17  1  0  0  0  0
 30 33  1  0  0  0  0
 38 40  2  0  0  0  0
 45 46  1  0  0  0  0
M  END
>  <MolRegNo>
1350608

>  <m>
=

>  <Value>
13800

>  <Unit>
nM

>  <Type>
IC50

>  <pValue>
4.86

>  <Ligand Efficiency>
0

>  <Binding Efficiency>
0

>  <Surface Efficiency>
0

>  <Assay Index>
662032

>  <Assay Category>


>  <Assay Organism>


>  <Target ID>
17045

>  <Target Name>
Cytochrome P450 3A4

>  <Target Organism>
Homo sapiens

>  <Target Description>
Target is a single protein chain

>  <Sequence Accession>
P08684

>  <Reference>
Bioorg Med Chem Lett 22 (14), 4864-4868 (2012)

>  <Pubmed ID>
22704887

>  <DOI>
10.1016/j.bmcl.2012.05.039

$$$$
1350611
Actelion Java MolfileCreator 1.0

 56 61  0  0  0  0  0  0  0  0999 V2000
    0.0000   -0.0000   -0.0000 F   0  0  0  0  0  0  0  0  0  0  0  0
    0.0124    1.5115   -0.0000 C   0  0  0  0  0  0  0  0  0  0  0  0
    1.2265    2.3911   -0.0000 N   0  0  0  0  0  0  0  0  0  0  0  0
   -1.2018    2.4159   -0.0000 C   0  0  0  0  0  0  0  0  0  0  0  0
    0.7681    3.8283   -0.0000 C   0  0  0  0  0  0  0  0  0  0  0  0
   -0.7310    3.8407   -0.0000 N   0  0  0  0  0  0  0  0  0  0  0  0
   -2.7009    2.4159   -0.0000 C   0  0  0  0  0  0  0  0  0  0  0  0
    1.7345    4.9557   -0.0000 C   0  0  0  0  0  0  0  0  0  0  0  0
   -3.5062    1.4000   -0.0000 C   0  0  0  0  0  0  0  0  0  0  0  0
   -3.5433    4.0017   -0.0000 C   0  0  0  0  0  0  0  0  0  0  0  0
    3.1964    4.6831   -0.0000 N   0  0  0  0  0  0  0  0  0  0  0  0
    1.5363    6.4548   -0.0000 C   0  0  0  0  0  0  0  0  0  0  0  0
   -5.0176    1.4000   -0.0000 C   0  0  0  0  0  0  0  0  0  0  0  0
   -5.0424    3.9893   -0.0000 C   0  0  0  0  0  0  0  0  0  0  0  0
    3.9769    3.4318   -0.0000 C   0  0  0  0  0  0  0  0  0  0  0  0
    3.9150    6.0088   -0.0000 C   0  0  0  0  0  0  0  0  0  0  0  0
    2.8867    7.0990   -0.0000 C   0  0  0  0  0  0  0  0  0  0  0  0
   -5.7982    2.7009   -0.0000 C   0  0  0  0  0  0  0  0  0  0  0  0
    3.2708    2.1186   -0.0000 O   0  0  0  0  0  0  0  0  0  0  0  0
    5.4637    3.5062   -0.0000 C   0  0  0  0  0  0  0  0  0  0  0  0
   -7.2973    2.7009   -0.0000 C   0  0  0  0  0  0  0  0  0  0  0  0
    6.2442    2.2548   -0.0000 N   0  0  0  0  0  0  0  0  0  0  0  0
    6.1451    4.8442   -0.0000 C   0  0  0  0  0  0  0  0  0  0  0  0
   -8.0406    1.4124   -0.0000 C   0  0  0  0  0  0  0  0  0  0  0  0
   -8.0778    4.0017   -0.0000 C   0  0  0  0  0  0  0  0  0  0  0  0
    7.7309    2.3292   -0.0000 C   0  0  0  0  0  0  0  0  0  0  0  0
    5.3398    6.1203   -0.0000 C   0  0  0  0  0  0  0  0  0  0  0  0
    7.5698    5.3026   -0.0000 C   0  0  0  0  0  0  0  0  0  0  0  0
   -9.5521    1.4124   -0.0000 C   0  0  0  0  0  0  0  0  0  0  0  0
   -9.5769    3.9893   -0.0000 C   0  0  0  0  0  0  0  0  0  0  0  0
    8.4123    3.6672   -0.0000 O   0  0  0  0  0  0  0  0  0  0  0  0
    8.5114    1.0779   -0.0000 O   0  0  0  0  0  0  0  0  0  0  0  0
  -10.3202    2.7132   -0.0000 C   0  0  0  0  0  0  0  0  0  0  0  0
    9.8618    0.7929   -0.0000 C   0  0  0  0  0  0  0  0  0  0  0  0
  -11.8317    2.7132   -0.0000 C   0  0  0  0  0  0  0  0  0  0  0  0
  -12.8724    1.6354   -0.0000 N   0  0  0  0  0  0  0  0  0  0  0  0
  -12.5627    4.0389   -0.0000 C   0  0  0  0  0  0  0  0  0  0  0  0
  -14.2352    2.3044   -0.0000 C   0  0  0  0  0  0  0  0  0  0  0  0
  -11.9308    5.4017   -0.0000 F   0  0  0  0  0  0  0  0  0  0  0  0
  -14.0494    3.7787   -0.0000 N   0  0  0  0  0  0  0  0  0  0  0  0
  -15.5609    1.5982   -0.0000 C   0  0  0  0  0  0  0  0  0  0  0  0
  -16.8989    2.3044   -0.0000 N   0  0  0  0  0  0  0  0  0  0  0  0
  -15.8211    0.1363   -0.0000 C   0  0  0  0  0  0  0  0  0  0  0  0
  -16.9485    3.8159   -0.0000 C   0  0  0  0  0  0  0  0  0  0  0  0
  -17.9768    1.2637   -0.0000 C   0  0  0  0  0  0  0  0  0  0  0  0
  -17.3078   -0.0743   -0.0000 C   0  0  0  0  0  0  0  0  0  0  0  0
  -15.6848    4.6088   -0.0000 O   0  0  0  0  0  0  0  0  0  0  0  0
  -18.2741    4.5469   -0.0000 C   0  0  0  0  0  0  0  0  0  0  0  0
  -18.3237    6.0583   -0.0000 N   0  0  0  0  0  0  0  0  0  0  0  0
  -19.5626    3.7787   -0.0000 C   0  0  0  0  0  0  0  0  0  0  0  0
  -19.6493    6.7893   -0.0000 C   0  0  0  0  0  0  0  0  0  0  0  0
  -20.8883    4.5097   -0.0000 C   0  0  0  0  0  0  0  0  0  0  0  0
  -19.5378    2.2920   -0.0000 C   0  0  0  0  0  0  0  0  0  0  0  0
  -20.9378    6.0212   -0.0000 O   0  0  0  0  0  0  0  0  0  0  0  0
  -19.6989    8.3008   -0.0000 O   0  0  0  0  0  0  0  0  0  0  0  0
  -18.4352    9.0937   -0.0000 C   0  0  0  0  0  0  0  0  0  0  0  0
  1  2  1  0  0  0  0
  2  3  1  0  0  0  0
  2  4  2  0  0  0  0
  3  5  2  0  0  0  0
  4  6  1  0  0  0  0
  4  7  1  0  0  0  0
  8  5  1  6  0  0  0
  7  9  2  0  0  0  0
  7 10  1  0  0  0  0
  8 11  1  0  0  0  0
  8 12  1  0  0  0  0
  9 13  1  0  0  0  0
 10 14  2  0  0  0  0
 11 15  1  0  0  0  0
 11 16  1  0  0  0  0
 12 17  1  0  0  0  0
 13 18  2  0  0  0  0
 15 19  2  0  0  0  0
 15 20  1  0  0  0  0
 18 21  1  0  0  0  0
 20 22  1  6  0  0  0
 20 23  1  0  0  0  0
 21 24  2  0  0  0  0
 21 25  1  0  0  0  0
 22 26  1  0  0  0  0
 23 27  1  0  0  0  0
 23 28  1  0  0  0  0
 24 29  1  0  0  0  0
 25 30  2  0  0  0  0
 26 31  2  0  0  0  0
 26 32  1  0  0  0  0
 29 33  2  0  0  0  0
 32 34  1  0  0  0  0
 33 35  1  0  0  0  0
 35 36  1  0  0  0  0
 35 37  2  0  0  0  0
 36 38  1  0  0  0  0
 37 39  1  0  0  0  0
 37 40  1  0  0  0  0
 41 38  1  6  0  0  0
 41 42  1  0  0  0  0
 41 43  1  0  0  0  0
 42 44  1  0  0  0  0
 42 45  1  0  0  0  0
 43 46  1  0  0  0  0
 44 47  2  0  0  0  0
 44 48  1  0  0  0  0
 48 49  1  6  0  0  0
 48 50  1  0  0  0  0
 49 51  1  0  0  0  0
 50 52  1  0  0  0  0
 50 53  1  0  0  0  0
 51 54  2  0  0  0  0
 51 55  1  0  0  0  0
 55 56  1  0  0  0  0
  5  6  1  0  0  0  0
 14 18  1  0  0  0  0
 16 17  1  0  0  0  0
 30 33  1  0  0  0  0
 38 40  2  0  0  0  0
 45 46  1  0  0  0  0
M  END
>  <MolRegNo>
1350611

>  <m>
=

>  <Value>
3100

>  <Unit>
nM

>  <Type>
IC50

>  <pValue>
5.51

>  <Ligand Efficiency>
0

>  <Binding Efficiency>
0

>  <Surface Efficiency>
0

>  <Assay Index>
662032

>  <Assay Category>


>  <Assay Organism>


>  <Target ID>
17045

>  <Target Name>
Cytochrome P450 3A4

>  <Target Organism>
Homo sapiens

>  <Target Description>
Target is a single protein chain

>  <Sequence Accession>
P08684

>  <Reference>
Bioorg Med Chem Lett 22 (14), 4864-4868 (2012)

>  <Pubmed ID>
22704887

>  <DOI>
10.1016/j.bmcl.2012.05.039

$$$$
1351475
Actelion Java MolfileCreator 1.0

 40 42  0  0  0  0  0  0  0  0999 V2000
    0.0000   -0.0000   -0.0000 S   0  0  0  0  0  0  0  0  0  0  0  0
    0.9577    1.1587   -0.0000 O   0  0  0  0  0  0  0  0  0  0  0  0
   -0.9814    1.1587   -0.0000 O   0  0  0  0  0  0  0  0  0  0  0  0
    1.2888   -0.7331   -0.0000 C   0  0  0  0  0  0  0  0  0  0  0  0
   -1.3125   -0.7331   -0.0000 C   0  0  0  0  0  0  0  0  0  0  0  0
    1.2770   -2.2229   -0.0000 C   0  0  0  0  0  0  0  0  0  0  0  0
   -1.3243   -2.2229   -0.0000 C   0  0  0  0  0  0  0  0  0  0  0  0
    2.5658   -2.9560   -0.0000 N   0  0  0  0  0  0  0  0  0  0  0  0
   -0.0355   -2.9560   -0.0000 C   0  0  0  0  0  0  0  0  0  0  0  0
   -2.6367   -2.9560   -0.0000 C   0  0  0  0  0  0  0  0  0  0  0  0
    3.8546   -2.1993   -0.0000 C   0  0  0  0  0  0  0  0  0  0  0  0
   -0.0473   -4.4458   -0.0000 O   0  0  0  0  0  0  0  0  0  0  0  0
   -3.9492   -2.1993   -0.0000 C   0  0  0  0  0  0  0  0  0  0  0  0
    5.1434   -2.9323   -0.0000 C   0  0  0  0  0  0  0  0  0  0  0  0
   -5.2617   -2.9323   -0.0000 C   0  0  0  0  0  0  0  0  0  0  0  0
   -3.9610   -0.6858   -0.0000 C   0  0  0  0  0  0  0  0  0  0  0  0
    5.1316   -4.4222   -0.0000 C   0  0  0  0  0  0  0  0  0  0  0  0
    6.4322   -2.1756   -0.0000 C   0  0  0  0  0  0  0  0  0  0  0  0
   -6.5741   -2.1756   -0.0000 C   0  0  0  0  0  0  0  0  0  0  0  0
   -5.2735    0.0709   -0.0000 C   0  0  0  0  0  0  0  0  0  0  0  0
    6.4204   -5.1671   -0.0000 C   0  0  0  0  0  0  0  0  0  0  0  0
    7.7211   -2.9087   -0.0000 C   0  0  0  0  0  0  0  0  0  0  0  0
   -7.8866   -2.9087   -0.0000 F   0  0  0  0  0  0  0  0  0  0  0  0
   -6.5860   -0.6621   -0.0000 C   0  0  0  0  0  0  0  0  0  0  0  0
   -5.2853    1.5844   -0.0000 O   0  0  0  0  0  0  0  0  0  0  0  0
    7.7092   -4.4103   -0.0000 C   0  0  0  0  0  0  0  0  0  0  0  0
    6.4086   -6.6569   -0.0000 C   0  0  0  0  0  0  0  0  0  0  0  0
   -7.8984    0.0946   -0.0000 N   0  0  0  0  0  0  0  0  0  0  0  0
   -6.5978    2.3411   -0.0000 C   0  0  0  0  0  0  0  0  0  0  0  0
    5.0961   -7.3900   -0.0000 C   0  0  0  0  0  0  0  0  0  0  0  0
    7.6974   -7.3900   -0.0000 C   0  0  0  0  0  0  0  0  0  0  0  0
    6.3968   -8.1467   -0.0000 C   0  0  0  0  0  0  0  0  0  0  0  0
   -6.6096    3.8546   -0.0000 C   0  0  0  0  0  0  0  0  0  0  0  0
   -7.9102    1.5962   -0.0000 C   0  0  0  0  0  0  0  0  0  0  0  0
   -6.6214    5.3681   -0.0000 F   0  0  0  0  0  0  0  0  0  0  0  0
   -5.3208    4.6114   -0.0000 F   0  0  0  0  0  0  0  0  0  0  0  0
   -7.9221    4.6114   -0.0000 F   0  0  0  0  0  0  0  0  0  0  0  0
   -9.3646    1.7263   -0.0000 F   0  0  0  0  0  0  0  0  0  0  0  0
   -8.6670    2.9087   -0.0000 F   0  0  0  0  0  0  0  0  0  0  0  0
   -9.2227    0.8513   -0.0000 F   0  0  0  0  0  0  0  0  0  0  0  0
  1  2  2  0  0  0  0
  1  3  2  0  0  0  0
  1  4  1  0  0  0  0
  1  5  1  0  0  0  0
  4  6  1  0  0  0  0
  5  7  1  0  0  0  0
  6  8  1  6  0  0  0
  6  9  1  0  0  0  0
  7 10  1  6  0  0  0
  8 11  1  0  0  0  0
  9 12  1  1  0  0  0
 10 13  1  0  0  0  0
 11 14  1  0  0  0  0
 13 15  2  0  0  0  0
 13 16  1  0  0  0  0
 14 17  2  0  0  0  0
 14 18  1  0  0  0  0
 15 19  1  0  0  0  0
 16 20  2  0  0  0  0
 17 21  1  0  0  0  0
 18 22  2  0  0  0  0
 19 23  1  0  0  0  0
 19 24  2  0  0  0  0
 20 25  1  0  0  0  0
 21 26  2  0  0  0  0
 21 27  1  0  0  0  0
 24 28  1  0  0  0  0
 25 29  1  0  0  0  0
 27 30  1  0  0  0  0
 27 31  1  0  0  0  0
 27 32  1  0  0  0  0
 29 33  1  0  0  0  0
 29 34  1  0  0  0  0
 33 35  1  0  0  0  0
 33 36  1  0  0  0  0
 33 37  1  0  0  0  0
 34 38  1  0  0  0  0
 34 39  1  0  0  0  0
 34 40  1  0  0  0  0
  7  9  1  0  0  0  0
 20 24  1  0  0  0  0
 22 26  1  0  0  0  0
M  END
>  <MolRegNo>
1351475

>  <m>
=

>  <Value>
300

>  <Unit>
nM

>  <Type>
IC50

>  <pValue>
6.52

>  <Ligand Efficiency>
0

>  <Binding Efficiency>
0

>  <Surface Efficiency>
0

>  <Assay Index>
660490

>  <Assay Category>


>  <Assay Organism>


>  <Target ID>
17045

>  <Target Name>
Cytochrome P450 3A4

>  <Target Organism>
Homo sapiens

>  <Target Description>
Target is a single protein chain

>  <Sequence Accession>
P08684

>  <Reference>
J Med Chem 55 (7), 3364-3386 (2012)

>  <Pubmed ID>
22380629

>  <DOI>
10.1021/jm300069y

$$$$
1351485
Actelion Java MolfileCreator 1.0

 40 42  0  0  0  0  0  0  0  0999 V2000
    0.0000   -0.0000   -0.0000 S   0  0  0  0  0  0  0  0  0  0  0  0
    0.9459    1.1587   -0.0000 O   0  0  0  0  0  0  0  0  0  0  0  0
   -0.9813    1.1587   -0.0000 O   0  0  0  0  0  0  0  0  0  0  0  0
    1.2887   -0.7330   -0.0000 C   0  0  0  0  0  0  0  0  0  0  0  0
   -1.3124   -0.7330   -0.0000 C   0  0  0  0  0  0  0  0  0  0  0  0
    1.2769   -2.2228   -0.0000 C   0  0  0  0  0  0  0  0  0  0  0  0
   -1.3242   -2.2228   -0.0000 C   0  0  0  0  0  0  0  0  0  0  0  0
    2.5657   -2.9676   -0.0000 N   0  0  0  0  0  0  0  0  0  0  0  0
   -0.0355   -2.9676   -0.0000 C   0  0  0  0  0  0  0  0  0  0  0  0
   -2.6366   -2.9676   -0.0000 C   0  0  0  0  0  0  0  0  0  0  0  0
    3.8544   -2.1991   -0.0000 C   0  0  0  0  0  0  0  0  0  0  0  0
   -0.0473   -4.4574   -0.0000 O   0  0  0  0  0  0  0  0  0  0  0  0
   -3.9490   -2.1991   -0.0000 C   0  0  0  0  0  0  0  0  0  0  0  0
    5.1431   -2.9322   -0.0000 C   0  0  0  0  0  0  0  0  0  0  0  0
   -5.2614   -2.9440   -0.0000 C   0  0  0  0  0  0  0  0  0  0  0  0
   -3.9608   -0.6858   -0.0000 C   0  0  0  0  0  0  0  0  0  0  0  0
    5.1313   -4.4219   -0.0000 N   0  0  0  0  0  0  0  0  0  0  0  0
    6.4201   -2.1637   -0.0000 C   0  0  0  0  0  0  0  0  0  0  0  0
   -6.5738   -2.1755   -0.0000 C   0  0  0  0  0  0  0  0  0  0  0  0
   -5.2732    0.0709   -0.0000 C   0  0  0  0  0  0  0  0  0  0  0  0
    6.4201   -5.1550   -0.0000 C   0  0  0  0  0  0  0  0  0  0  0  0
    7.7088   -2.8967   -0.0000 C   0  0  0  0  0  0  0  0  0  0  0  0
   -7.8861   -2.9204   -0.0000 F   0  0  0  0  0  0  0  0  0  0  0  0
   -6.5856   -0.6621   -0.0000 C   0  0  0  0  0  0  0  0  0  0  0  0
   -5.2850    1.5843   -0.0000 O   0  0  0  0  0  0  0  0  0  0  0  0
    7.7088   -4.3864   -0.0000 C   0  0  0  0  0  0  0  0  0  0  0  0
    8.9975   -2.1282   -0.0000 C   0  0  0  0  0  0  0  0  0  0  0  0
   -7.8980    0.0946   -0.0000 N   0  0  0  0  0  0  0  0  0  0  0  0
   -3.9963    2.3410   -0.0000 C   0  0  0  0  0  0  0  0  0  0  0  0
   10.2863   -2.8612   -0.0000 C   0  0  0  0  0  0  0  0  0  0  0  0
    8.9739   -0.6148   -0.0000 C   0  0  0  0  0  0  0  0  0  0  0  0
   10.2744   -1.3479   -0.0000 C   0  0  0  0  0  0  0  0  0  0  0  0
   -2.7075    1.5961   -0.0000 C   0  0  0  0  0  0  0  0  0  0  0  0
   -4.0081    3.8544   -0.0000 C   0  0  0  0  0  0  0  0  0  0  0  0
   -3.4642    0.3074   -0.0000 F   0  0  0  0  0  0  0  0  0  0  0  0
   -1.9627    0.3074   -0.0000 F   0  0  0  0  0  0  0  0  0  0  0  0
   -1.4188    2.3528   -0.0000 F   0  0  0  0  0  0  0  0  0  0  0  0
   -4.0199    5.3678   -0.0000 F   0  0  0  0  0  0  0  0  0  0  0  0
   -5.4624    4.2564   -0.0000 F   0  0  0  0  0  0  0  0  0  0  0  0
   -2.7194    4.6111   -0.0000 F   0  0  0  0  0  0  0  0  0  0  0  0
  1  2  2  0  0  0  0
  1  3  2  0  0  0  0
  1  4  1  0  0  0  0
  1  5  1  0  0  0  0
  4  6  1  0  0  0  0
  5  7  1  0  0  0  0
  6  8  1  6  0  0  0
  6  9  1  0  0  0  0
  7 10  1  6  0  0  0
  8 11  1  0  0  0  0
  9 12  1  1  0  0  0
 10 13  1  0  0  0  0
 11 14  1  0  0  0  0
 13 15  2  0  0  0  0
 13 16  1  0  0  0  0
 14 17  2  0  0  0  0
 14 18  1  0  0  0  0
 15 19  1  0  0  0  0
 16 20  2  0  0  0  0
 17 21  1  0  0  0  0
 18 22  2  0  0  0  0
 19 23  1  0  0  0  0
 19 24  2  0  0  0  0
 20 25  1  0  0  0  0
 21 26  2  0  0  0  0
 22 27  1  0  0  0  0
 24 28  1  0  0  0  0
 25 29  1  0  0  0  0
 27 30  1  0  0  0  0
 27 31  1  0  0  0  0
 27 32  1  0  0  0  0
 29 33  1  0  0  0  0
 29 34  1  0  0  0  0
 33 35  1  0  0  0  0
 33 36  1  0  0  0  0
 33 37  1  0  0  0  0
 34 38  1  0  0  0  0
 34 39  1  0  0  0  0
 34 40  1  0  0  0  0
  7  9  1  0  0  0  0
 20 24  1  0  0  0  0
 22 26  1  0  0  0  0
M  END
>  <MolRegNo>
1351485

>  <m>
=

>  <Value>
400

>  <Unit>
nM

>  <Type>
IC50

>  <pValue>
6.4

>  <Ligand Efficiency>
0

>  <Binding Efficiency>
0

>  <Surface Efficiency>
0

>  <Assay Index>
660490

>  <Assay Category>


>  <Assay Organism>


>  <Target ID>
17045

>  <Target Name>
Cytochrome P450 3A4

>  <Target Organism>
Homo sapiens

>  <Target Description>
Target is a single protein chain

>  <Sequence Accession>
P08684

>  <Reference>
J Med Chem 55 (7), 3364-3386 (2012)

>  <Pubmed ID>
22380629

>  <DOI>
10.1021/jm300069y

$$$$
1351486
Actelion Java MolfileCreator 1.0

 40 42  0  0  0  0  0  0  0  0999 V2000
    0.0000   -0.0000   -0.0000 S   0  0  0  0  0  0  0  0  0  0  0  0
    0.9505    1.1644   -0.0000 O   0  0  0  0  0  0  0  0  0  0  0  0
   -0.9861    1.1644   -0.0000 O   0  0  0  0  0  0  0  0  0  0  0  0
    1.2832   -0.7366   -0.0000 C   0  0  0  0  0  0  0  0  0  0  0  0
   -1.3188   -0.7366   -0.0000 C   0  0  0  0  0  0  0  0  0  0  0  0
    1.2713   -2.2218   -0.0000 C   0  0  0  0  0  0  0  0  0  0  0  0
   -1.3307   -2.2218   -0.0000 C   0  0  0  0  0  0  0  0  0  0  0  0
    2.5664   -2.9584   -0.0000 N   0  0  0  0  0  0  0  0  0  0  0  0
   -0.0356   -2.9584   -0.0000 C   0  0  0  0  0  0  0  0  0  0  0  0
   -2.6495   -2.9584   -0.0000 C   0  0  0  0  0  0  0  0  0  0  0  0
    3.8495   -2.1980   -0.0000 C   0  0  0  0  0  0  0  0  0  0  0  0
   -0.0475   -4.4436   -0.0000 O   0  0  0  0  0  0  0  0  0  0  0  0
   -3.9684   -2.1980   -0.0000 C   0  0  0  0  0  0  0  0  0  0  0  0
    5.1446   -2.9347   -0.0000 C   0  0  0  0  0  0  0  0  0  0  0  0
   -5.2753   -2.9347   -0.0000 C   0  0  0  0  0  0  0  0  0  0  0  0
   -3.9802   -0.6891   -0.0000 C   0  0  0  0  0  0  0  0  0  0  0  0
    6.4278   -2.1624   -0.0000 C   0  0  0  0  0  0  0  0  0  0  0  0
    5.1327   -4.4198   -0.0000 C   0  0  0  0  0  0  0  0  0  0  0  0
   -6.5941   -2.1743   -0.0000 C   0  0  0  0  0  0  0  0  0  0  0  0
   -5.2872    0.0713   -0.0000 C   0  0  0  0  0  0  0  0  0  0  0  0
    7.7110   -2.8872   -0.0000 C   0  0  0  0  0  0  0  0  0  0  0  0
    6.4159   -5.1565   -0.0000 C   0  0  0  0  0  0  0  0  0  0  0  0
   -7.9011   -2.9109   -0.0000 F   0  0  0  0  0  0  0  0  0  0  0  0
   -6.6060   -0.6654   -0.0000 C   0  0  0  0  0  0  0  0  0  0  0  0
   -5.2991    1.5802   -0.0000 O   0  0  0  0  0  0  0  0  0  0  0  0
    7.7110   -4.3842   -0.0000 C   0  0  0  0  0  0  0  0  0  0  0  0
    8.9941   -2.1149   -0.0000 C   0  0  0  0  0  0  0  0  0  0  0  0
   -7.9129    0.0951   -0.0000 N   0  0  0  0  0  0  0  0  0  0  0  0
   -4.0159    2.3406   -0.0000 C   0  0  0  0  0  0  0  0  0  0  0  0
   10.2773   -1.3426   -0.0000 O   0  0  0  0  0  0  0  0  0  0  0  0
   10.2892   -2.8515   -0.0000 C   0  0  0  0  0  0  0  0  0  0  0  0
    8.9704   -0.6059   -0.0000 C   0  0  0  0  0  0  0  0  0  0  0  0
   -2.7208    1.6040   -0.0000 C   0  0  0  0  0  0  0  0  0  0  0  0
   -4.0278    3.8495   -0.0000 C   0  0  0  0  0  0  0  0  0  0  0  0
   -3.4812    0.3089   -0.0000 F   0  0  0  0  0  0  0  0  0  0  0  0
   -1.9842    0.3089   -0.0000 F   0  0  0  0  0  0  0  0  0  0  0  0
   -1.4258    2.3644   -0.0000 F   0  0  0  0  0  0  0  0  0  0  0  0
   -4.0396    5.3585   -0.0000 F   0  0  0  0  0  0  0  0  0  0  0  0
   -5.4892    4.2535   -0.0000 F   0  0  0  0  0  0  0  0  0  0  0  0
   -2.7327    4.6099   -0.0000 F   0  0  0  0  0  0  0  0  0  0  0  0
  1  2  2  0  0  0  0
  1  3  2  0  0  0  0
  1  4  1  0  0  0  0
  1  5  1  0  0  0  0
  4  6  1  0  0  0  0
  5  7  1  0  0  0  0
  6  8  1  6  0  0  0
  6  9  1  0  0  0  0
  7 10  1  6  0  0  0
  8 11  1  0  0  0  0
  9 12  1  1  0  0  0
 10 13  1  0  0  0  0
 11 14  1  0  0  0  0
 13 15  2  0  0  0  0
 13 16  1  0  0  0  0
 14 17  2  0  0  0  0
 14 18  1  0  0  0  0
 15 19  1  0  0  0  0
 16 20  2  0  0  0  0
 17 21  1  0  0  0  0
 18 22  2  0  0  0  0
 19 23  1  0  0  0  0
 19 24  2  0  0  0  0
 20 25  1  0  0  0  0
 21 26  2  0  0  0  0
 21 27  1  0  0  0  0
 24 28  1  0  0  0  0
 25 29  1  0  0  0  0
 27 30  1  0  0  0  0
 27 31  1  0  0  0  0
 27 32  1  0  0  0  0
 29 33  1  0  0  0  0
 29 34  1  0  0  0  0
 33 35  1  0  0  0  0
 33 36  1  0  0  0  0
 33 37  1  0  0  0  0
 34 38  1  0  0  0  0
 34 39  1  0  0  0  0
 34 40  1  0  0  0  0
  7  9  1  0  0  0  0
 20 24  1  0  0  0  0
 22 26  1  0  0  0  0
M  END
>  <MolRegNo>
1351486

>  <m>
=

>  <Value>
2100

>  <Unit>
nM

>  <Type>
IC50

>  <pValue>
5.68

>  <Ligand Efficiency>
0

>  <Binding Efficiency>
0

>  <Surface Efficiency>
0

>  <Assay Index>
660490

>  <Assay Category>


>  <Assay Organism>


>  <Target ID>
17045

>  <Target Name>
Cytochrome P450 3A4

>  <Target Organism>
Homo sapiens

>  <Target Description>
Target is a single protein chain

>  <Sequence Accession>
P08684

>  <Reference>
J Med Chem 55 (7), 3364-3386 (2012)

>  <Pubmed ID>
22380629

>  <DOI>
10.1021/jm300069y

$$$$
1351487
Actelion Java MolfileCreator 1.0

 41 43  0  0  0  0  0  0  0  0999 V2000
    0.0000   -0.0000   -0.0000 S   0  0  0  0  0  0  0  0  0  0  0  0
    0.9507    1.1646   -0.0000 O   0  0  0  0  0  0  0  0  0  0  0  0
   -0.9864    1.1646   -0.0000 O   0  0  0  0  0  0  0  0  0  0  0  0
    1.2835   -0.7368   -0.0000 C   0  0  0  0  0  0  0  0  0  0  0  0
   -1.3191   -0.7368   -0.0000 C   0  0  0  0  0  0  0  0  0  0  0  0
    1.2716   -2.2223   -0.0000 C   0  0  0  0  0  0  0  0  0  0  0  0
   -1.3310   -2.2223   -0.0000 C   0  0  0  0  0  0  0  0  0  0  0  0
    2.5669   -2.9591   -0.0000 N   0  0  0  0  0  0  0  0  0  0  0  0
   -0.0357   -2.9591   -0.0000 C   0  0  0  0  0  0  0  0  0  0  0  0
   -2.6501   -2.9591   -0.0000 C   0  0  0  0  0  0  0  0  0  0  0  0
    3.8504   -2.1985   -0.0000 C   0  0  0  0  0  0  0  0  0  0  0  0
   -0.0475   -4.4446   -0.0000 O   0  0  0  0  0  0  0  0  0  0  0  0
   -3.9693   -2.1985   -0.0000 C   0  0  0  0  0  0  0  0  0  0  0  0
    5.1458   -2.9354   -0.0000 C   0  0  0  0  0  0  0  0  0  0  0  0
   -5.2765   -2.9354   -0.0000 C   0  0  0  0  0  0  0  0  0  0  0  0
   -3.9811   -0.6893   -0.0000 C   0  0  0  0  0  0  0  0  0  0  0  0
    6.4293   -2.1629   -0.0000 C   0  0  0  0  0  0  0  0  0  0  0  0
    5.1339   -4.4209   -0.0000 C   0  0  0  0  0  0  0  0  0  0  0  0
   -6.5956   -2.1748   -0.0000 C   0  0  0  0  0  0  0  0  0  0  0  0
   -5.2884    0.0713   -0.0000 C   0  0  0  0  0  0  0  0  0  0  0  0
    7.7127   -2.8878   -0.0000 C   0  0  0  0  0  0  0  0  0  0  0  0
    6.4174   -5.1577   -0.0000 C   0  0  0  0  0  0  0  0  0  0  0  0
   -7.9029   -2.9116   -0.0000 F   0  0  0  0  0  0  0  0  0  0  0  0
   -6.6075   -0.6655   -0.0000 C   0  0  0  0  0  0  0  0  0  0  0  0
   -5.3003    1.5806   -0.0000 O   0  0  0  0  0  0  0  0  0  0  0  0
    7.7127   -4.3852   -0.0000 C   0  0  0  0  0  0  0  0  0  0  0  0
    8.9962   -2.1154   -0.0000 C   0  0  0  0  0  0  0  0  0  0  0  0
   -7.9148    0.0951   -0.0000 N   0  0  0  0  0  0  0  0  0  0  0  0
   -4.0168    2.3412   -0.0000 C   0  0  0  0  0  0  0  0  0  0  0  0
   10.2916   -2.8522   -0.0000 C   0  0  0  0  0  0  0  0  0  0  0  0
    8.9724   -0.6061   -0.0000 C   0  0  0  0  0  0  0  0  0  0  0  0
   10.2797   -1.3429   -0.0000 C   0  0  0  0  0  0  0  0  0  0  0  0
   -2.7214    1.6043   -0.0000 C   0  0  0  0  0  0  0  0  0  0  0  0
   -4.0287    3.8504   -0.0000 C   0  0  0  0  0  0  0  0  0  0  0  0
   10.2797   -4.3377   -0.0000 O   0  0  0  0  0  0  0  0  0  0  0  0
   -3.4820    0.3090   -0.0000 F   0  0  0  0  0  0  0  0  0  0  0  0
   -1.9846    0.3090   -0.0000 F   0  0  0  0  0  0  0  0  0  0  0  0
   -1.4261    2.3649   -0.0000 F   0  0  0  0  0  0  0  0  0  0  0  0
   -4.0406    5.3597   -0.0000 F   0  0  0  0  0  0  0  0  0  0  0  0
   -5.4904    4.2545   -0.0000 F   0  0  0  0  0  0  0  0  0  0  0  0
   -2.7333    4.6110   -0.0000 F   0  0  0  0  0  0  0  0  0  0  0  0
  1  2  2  0  0  0  0
  1  3  2  0  0  0  0
  1  4  1  0  0  0  0
  1  5  1  0  0  0  0
  4  6  1  0  0  0  0
  5  7  1  0  0  0  0
  6  8  1  6  0  0  0
  6  9  1  0  0  0  0
  7 10  1  6  0  0  0
  8 11  1  0  0  0  0
  9 12  1  1  0  0  0
 10 13  1  0  0  0  0
 11 14  1  0  0  0  0
 13 15  2  0  0  0  0
 13 16  1  0  0  0  0
 14 17  2  0  0  0  0
 14 18  1  0  0  0  0
 15 19  1  0  0  0  0
 16 20  2  0  0  0  0
 17 21  1  0  0  0  0
 18 22  2  0  0  0  0
 19 23  1  0  0  0  0
 19 24  2  0  0  0  0
 20 25  1  0  0  0  0
 21 26  2  0  0  0  0
 21 27  1  0  0  0  0
 24 28  1  0  0  0  0
 25 29  1  0  0  0  0
 27 30  1  0  0  0  0
 27 31  1  0  0  0  0
 27 32  1  0  0  0  0
 29 33  1  0  0  0  0
 29 34  1  0  0  0  0
 30 35  1  0  0  0  0
 33 36  1  0  0  0  0
 33 37  1  0  0  0  0
 33 38  1  0  0  0  0
 34 39  1  0  0  0  0
 34 40  1  0  0  0  0
 34 41  1  0  0  0  0
  7  9  1  0  0  0  0
 20 24  1  0  0  0  0
 22 26  1  0  0  0  0
M  END
>  <MolRegNo>
1351487

>  <m>
=

>  <Value>
800

>  <Unit>
nM

>  <Type>
IC50

>  <pValue>
6.1

>  <Ligand Efficiency>
0

>  <Binding Efficiency>
0

>  <Surface Efficiency>
0

>  <Assay Index>
660490

>  <Assay Category>


>  <Assay Organism>


>  <Target ID>
17045

>  <Target Name>
Cytochrome P450 3A4

>  <Target Organism>
Homo sapiens

>  <Target Description>
Target is a single protein chain

>  <Sequence Accession>
P08684

>  <Reference>
J Med Chem 55 (7), 3364-3386 (2012)

>  <Pubmed ID>
22380629

>  <DOI>
10.1021/jm300069y

$$$$
1351488
Actelion Java MolfileCreator 1.0

 41 44  0  0  0  0  0  0  0  0999 V2000
    0.0000   -0.0000   -0.0000 S   0  0  0  0  0  0  0  0  0  0  0  0
    0.9590    1.1603   -0.0000 O   0  0  0  0  0  0  0  0  0  0  0  0
   -0.9827    1.1603   -0.0000 O   0  0  0  0  0  0  0  0  0  0  0  0
    1.2905   -0.7340   -0.0000 C   0  0  0  0  0  0  0  0  0  0  0  0
   -1.3142   -0.7340   -0.0000 C   0  0  0  0  0  0  0  0  0  0  0  0
    1.2787   -2.2258   -0.0000 C   0  0  0  0  0  0  0  0  0  0  0  0
   -1.3260   -2.2258   -0.0000 C   0  0  0  0  0  0  0  0  0  0  0  0
    2.5692   -2.9599   -0.0000 N   0  0  0  0  0  0  0  0  0  0  0  0
   -0.0355   -2.9599   -0.0000 C   0  0  0  0  0  0  0  0  0  0  0  0
   -2.6402   -2.9599   -0.0000 C   0  0  0  0  0  0  0  0  0  0  0  0
    3.8597   -2.2021   -0.0000 C   0  0  0  0  0  0  0  0  0  0  0  0
   -0.0474   -4.4516   -0.0000 O   0  0  0  0  0  0  0  0  0  0  0  0
   -3.9544   -2.2021   -0.0000 C   0  0  0  0  0  0  0  0  0  0  0  0
    5.1502   -2.9362   -0.0000 C   0  0  0  0  0  0  0  0  0  0  0  0
   -3.9662   -0.6867   -0.0000 C   0  0  0  0  0  0  0  0  0  0  0  0
   -5.2686   -2.9362   -0.0000 C   0  0  0  0  0  0  0  0  0  0  0  0
    6.4407   -2.1785   -0.0000 C   0  0  0  0  0  0  0  0  0  0  0  0
    5.1383   -4.4280   -0.0000 C   0  0  0  0  0  0  0  0  0  0  0  0
   -5.2804    0.0710   -0.0000 C   0  0  0  0  0  0  0  0  0  0  0  0
   -6.5827   -2.1666   -0.0000 C   0  0  0  0  0  0  0  0  0  0  0  0
    7.7312   -2.9125   -0.0000 C   0  0  0  0  0  0  0  0  0  0  0  0
    6.4288   -5.1620   -0.0000 C   0  0  0  0  0  0  0  0  0  0  0  0
   -5.2922    1.5865   -0.0000 F   0  0  0  0  0  0  0  0  0  0  0  0
   -6.5946   -0.6630   -0.0000 C   0  0  0  0  0  0  0  0  0  0  0  0
   -7.8969   -2.9007   -0.0000 O   0  0  0  0  0  0  0  0  0  0  0  0
    7.7193   -4.4043   -0.0000 C   0  0  0  0  0  0  0  0  0  0  0  0
    9.1519   -2.4389   -0.0000 C   0  0  0  0  0  0  0  0  0  0  0  0
   -7.9088    0.0947   -0.0000 N   0  0  0  0  0  0  0  0  0  0  0  0
   -7.9088   -4.3924   -0.0000 C   0  0  0  0  0  0  0  0  0  0  0  0
    9.1401   -4.8542   -0.0000 C   0  0  0  0  0  0  0  0  0  0  0  0
   10.0280   -3.6466   -0.0000 O   0  0  0  0  0  0  0  0  0  0  0  0
    8.5244   -1.0537   -0.0000 C   0  0  0  0  0  0  0  0  0  0  0  0
   10.4424   -1.6812   -0.0000 C   0  0  0  0  0  0  0  0  0  0  0  0
   -6.6183   -5.1383   -0.0000 C   0  0  0  0  0  0  0  0  0  0  0  0
   -9.2229   -5.1265   -0.0000 C   0  0  0  0  0  0  0  0  0  0  0  0
   -5.3278   -4.3806   -0.0000 F   0  0  0  0  0  0  0  0  0  0  0  0
   -5.3278   -5.8724   -0.0000 F   0  0  0  0  0  0  0  0  0  0  0  0
   -6.6301   -6.6301   -0.0000 F   0  0  0  0  0  0  0  0  0  0  0  0
  -10.5371   -5.8605   -0.0000 F   0  0  0  0  0  0  0  0  0  0  0  0
  -10.3003   -4.0491   -0.0000 F   0  0  0  0  0  0  0  0  0  0  0  0
   -9.2348   -6.6183   -0.0000 F   0  0  0  0  0  0  0  0  0  0  0  0
  1  2  2  0  0  0  0
  1  3  2  0  0  0  0
  1  4  1  0  0  0  0
  1  5  1  0  0  0  0
  4  6  1  0  0  0  0
  5  7  1  0  0  0  0
  6  8  1  6  0  0  0
  6  9  1  0  0  0  0
  7 10  1  6  0  0  0
  8 11  1  0  0  0  0
  9 12  1  1  0  0  0
 10 13  1  0  0  0  0
 11 14  1  0  0  0  0
 13 15  2  0  0  0  0
 13 16  1  0  0  0  0
 14 17  2  0  0  0  0
 14 18  1  0  0  0  0
 15 19  1  0  0  0  0
 16 20  2  0  0  0  0
 17 21  1  0  0  0  0
 18 22  2  0  0  0  0
 19 23  1  0  0  0  0
 19 24  2  0  0  0  0
 20 25  1  0  0  0  0
 21 26  2  0  0  0  0
 21 27  1  0  0  0  0
 24 28  1  0  0  0  0
 25 29  1  0  0  0  0
 26 30  1  0  0  0  0
 27 31  1  0  0  0  0
 27 32  1  0  0  0  0
 27 33  1  0  0  0  0
 29 34  1  0  0  0  0
 29 35  1  0  0  0  0
 34 36  1  0  0  0  0
 34 37  1  0  0  0  0
 34 38  1  0  0  0  0
 35 39  1  0  0  0  0
 35 40  1  0  0  0  0
 35 41  1  0  0  0  0
  7  9  1  0  0  0  0
 20 24  1  0  0  0  0
 22 26  1  0  0  0  0
 30 31  1  0  0  0  0
M  END
>  <MolRegNo>
1351488

>  <m>
=

>  <Value>
700

>  <Unit>
nM

>  <Type>
IC50

>  <pValue>
6.16

>  <Ligand Efficiency>
0

>  <Binding Efficiency>
0

>  <Surface Efficiency>
0

>  <Assay Index>
660490

>  <Assay Category>


>  <Assay Organism>


>  <Target ID>
17045

>  <Target Name>
Cytochrome P450 3A4

>  <Target Organism>
Homo sapiens

>  <Target Description>
Target is a single protein chain

>  <Sequence Accession>
P08684

>  <Reference>
J Med Chem 55 (7), 3364-3386 (2012)

>  <Pubmed ID>
22380629

>  <DOI>
10.1021/jm300069y

$$$$
1351489
Actelion Java MolfileCreator 1.0

 41 43  0  0  0  0  0  0  0  0999 V2000
    0.0000   -0.0000   -0.0000 S   0  0  0  0  0  0  0  0  0  0  0  0
    0.9512    1.1652   -0.0000 O   0  0  0  0  0  0  0  0  0  0  0  0
   -0.9868    1.1652   -0.0000 O   0  0  0  0  0  0  0  0  0  0  0  0
    1.2841   -0.7371   -0.0000 C   0  0  0  0  0  0  0  0  0  0  0  0
   -1.3197   -0.7371   -0.0000 C   0  0  0  0  0  0  0  0  0  0  0  0
    1.2722   -2.2233   -0.0000 C   0  0  0  0  0  0  0  0  0  0  0  0
   -1.3316   -2.2233   -0.0000 C   0  0  0  0  0  0  0  0  0  0  0  0
    2.5681   -2.9605   -0.0000 N   0  0  0  0  0  0  0  0  0  0  0  0
   -0.0357   -2.9605   -0.0000 C   0  0  0  0  0  0  0  0  0  0  0  0
   -2.6514   -2.9605   -0.0000 C   0  0  0  0  0  0  0  0  0  0  0  0
    3.8522   -2.1996   -0.0000 C   0  0  0  0  0  0  0  0  0  0  0  0
   -0.0476   -4.4467   -0.0000 O   0  0  0  0  0  0  0  0  0  0  0  0
   -3.9711   -2.1996   -0.0000 C   0  0  0  0  0  0  0  0  0  0  0  0
    5.1481   -2.9367   -0.0000 C   0  0  0  0  0  0  0  0  0  0  0  0
   -5.2789   -2.9367   -0.0000 C   0  0  0  0  0  0  0  0  0  0  0  0
   -3.9830   -0.6896   -0.0000 C   0  0  0  0  0  0  0  0  0  0  0  0
    6.4322   -2.1639   -0.0000 C   0  0  0  0  0  0  0  0  0  0  0  0
    5.1363   -4.4229   -0.0000 C   0  0  0  0  0  0  0  0  0  0  0  0
   -6.5987   -2.1758   -0.0000 C   0  0  0  0  0  0  0  0  0  0  0  0
   -5.2908    0.0713   -0.0000 C   0  0  0  0  0  0  0  0  0  0  0  0
    7.7163   -2.8891   -0.0000 C   0  0  0  0  0  0  0  0  0  0  0  0
    6.4203   -5.1600   -0.0000 C   0  0  0  0  0  0  0  0  0  0  0  0
   -7.9065   -2.9129   -0.0000 F   0  0  0  0  0  0  0  0  0  0  0  0
   -6.6105   -0.6658   -0.0000 C   0  0  0  0  0  0  0  0  0  0  0  0
   -5.3027    1.5813   -0.0000 O   0  0  0  0  0  0  0  0  0  0  0  0
    9.0003   -2.1163   -0.0000 O   0  0  0  0  0  0  0  0  0  0  0  0
    7.7163   -4.3872   -0.0000 C   0  0  0  0  0  0  0  0  0  0  0  0
   -7.9184    0.0951   -0.0000 N   0  0  0  0  0  0  0  0  0  0  0  0
   -4.0186    2.3422   -0.0000 C   0  0  0  0  0  0  0  0  0  0  0  0
   10.2963   -2.8535   -0.0000 C   0  0  0  0  0  0  0  0  0  0  0  0
   -2.7227    1.6051   -0.0000 C   0  0  0  0  0  0  0  0  0  0  0  0
   -4.0305    3.8522   -0.0000 C   0  0  0  0  0  0  0  0  0  0  0  0
   11.5803   -2.0807   -0.0000 F   0  0  0  0  0  0  0  0  0  0  0  0
   10.2963   -4.3397   -0.0000 F   0  0  0  0  0  0  0  0  0  0  0  0
   11.5803   -3.5906   -0.0000 F   0  0  0  0  0  0  0  0  0  0  0  0
   -3.4836    0.3091   -0.0000 F   0  0  0  0  0  0  0  0  0  0  0  0
   -1.9855    0.3091   -0.0000 F   0  0  0  0  0  0  0  0  0  0  0  0
   -1.4267    2.3660   -0.0000 F   0  0  0  0  0  0  0  0  0  0  0  0
   -4.0424    5.3622   -0.0000 F   0  0  0  0  0  0  0  0  0  0  0  0
   -5.4929    4.2564   -0.0000 F   0  0  0  0  0  0  0  0  0  0  0  0
   -2.7346    4.6131   -0.0000 F   0  0  0  0  0  0  0  0  0  0  0  0
  1  2  2  0  0  0  0
  1  3  2  0  0  0  0
  1  4  1  0  0  0  0
  1  5  1  0  0  0  0
  4  6  1  0  0  0  0
  5  7  1  0  0  0  0
  6  8  1  6  0  0  0
  6  9  1  0  0  0  0
  7 10  1  6  0  0  0
  8 11  1  0  0  0  0
  9 12  1  1  0  0  0
 10 13  1  0  0  0  0
 11 14  1  0  0  0  0
 13 15  2  0  0  0  0
 13 16  1  0  0  0  0
 14 17  2  0  0  0  0
 14 18  1  0  0  0  0
 15 19  1  0  0  0  0
 16 20  2  0  0  0  0
 17 21  1  0  0  0  0
 18 22  2  0  0  0  0
 19 23  1  0  0  0  0
 19 24  2  0  0  0  0
 20 25  1  0  0  0  0
 21 26  1  0  0  0  0
 21 27  2  0  0  0  0
 24 28  1  0  0  0  0
 25 29  1  0  0  0  0
 26 30  1  0  0  0  0
 29 31  1  0  0  0  0
 29 32  1  0  0  0  0
 30 33  1  0  0  0  0
 30 34  1  0  0  0  0
 30 35  1  0  0  0  0
 31 36  1  0  0  0  0
 31 37  1  0  0  0  0
 31 38  1  0  0  0  0
 32 39  1  0  0  0  0
 32 40  1  0  0  0  0
 32 41  1  0  0  0  0
  7  9  1  0  0  0  0
 20 24  1  0  0  0  0
 22 27  1  0  0  0  0
M  END
>  <MolRegNo>
1351489

>  <m>
=

>  <Value>
9200

>  <Unit>
nM

>  <Type>
IC50

>  <pValue>
5.04

>  <Ligand Efficiency>
0

>  <Binding Efficiency>
0

>  <Surface Efficiency>
0

>  <Assay Index>
660490

>  <Assay Category>


>  <Assay Organism>


>  <Target ID>
17045

>  <Target Name>
Cytochrome P450 3A4

>  <Target Organism>
Homo sapiens

>  <Target Description>
Target is a single protein chain

>  <Sequence Accession>
P08684

>  <Reference>
J Med Chem 55 (7), 3364-3386 (2012)

>  <Pubmed ID>
22380629

>  <DOI>
10.1021/jm300069y

$$$$
1351490
Actelion Java MolfileCreator 1.0

 40 42  0  0  0  0  0  0  0  0999 V2000
    0.0000   -0.0000   -0.0000 S   0  0  0  0  0  0  0  0  0  0  0  0
    0.9589    1.1602   -0.0000 O   0  0  0  0  0  0  0  0  0  0  0  0
   -0.9826    1.1602   -0.0000 O   0  0  0  0  0  0  0  0  0  0  0  0
    1.2904   -0.7458   -0.0000 C   0  0  0  0  0  0  0  0  0  0  0  0
   -1.3141   -0.7458   -0.0000 C   0  0  0  0  0  0  0  0  0  0  0  0
    1.2786   -2.2375   -0.0000 C   0  0  0  0  0  0  0  0  0  0  0  0
   -1.3259   -2.2375   -0.0000 C   0  0  0  0  0  0  0  0  0  0  0  0
    2.5690   -2.9715   -0.0000 N   0  0  0  0  0  0  0  0  0  0  0  0
   -0.0355   -2.9715   -0.0000 C   0  0  0  0  0  0  0  0  0  0  0  0
   -2.6400   -2.9715   -0.0000 C   0  0  0  0  0  0  0  0  0  0  0  0
    3.8594   -2.2138   -0.0000 C   0  0  0  0  0  0  0  0  0  0  0  0
   -0.0474   -4.4631   -0.0000 O   0  0  0  0  0  0  0  0  0  0  0  0
   -3.9541   -2.2138   -0.0000 C   0  0  0  0  0  0  0  0  0  0  0  0
    5.1498   -2.9478   -0.0000 C   0  0  0  0  0  0  0  0  0  0  0  0
   -3.9659   -0.6985   -0.0000 C   0  0  0  0  0  0  0  0  0  0  0  0
   -5.2681   -2.9478   -0.0000 C   0  0  0  0  0  0  0  0  0  0  0  0
    6.5112   -2.3203   -0.0000 C   0  0  0  0  0  0  0  0  0  0  0  0
    5.2918   -4.4276   -0.0000 C   0  0  0  0  0  0  0  0  0  0  0  0
   -5.2800    0.0592   -0.0000 C   0  0  0  0  0  0  0  0  0  0  0  0
   -6.5822   -2.1901   -0.0000 C   0  0  0  0  0  0  0  0  0  0  0  0
    7.5056   -3.4213   -0.0000 N   0  0  0  0  0  0  0  0  0  0  0  0
    6.7480   -4.7236   -0.0000 N   0  0  0  0  0  0  0  0  0  0  0  0
   -5.2918    1.5745   -0.0000 F   0  0  0  0  0  0  0  0  0  0  0  0
   -6.5941   -0.6866   -0.0000 C   0  0  0  0  0  0  0  0  0  0  0  0
   -7.8963   -2.9241   -0.0000 O   0  0  0  0  0  0  0  0  0  0  0  0
    7.3517   -6.0850   -0.0000 C   0  0  0  0  0  0  0  0  0  0  0  0
   -7.9081    0.0710   -0.0000 N   0  0  0  0  0  0  0  0  0  0  0  0
   -7.9081   -4.4158   -0.0000 C   0  0  0  0  0  0  0  0  0  0  0  0
    8.8315   -6.2271   -0.0000 C   0  0  0  0  0  0  0  0  0  0  0  0
   -6.6177   -5.1498   -0.0000 C   0  0  0  0  0  0  0  0  0  0  0  0
   -9.2222   -5.1498   -0.0000 C   0  0  0  0  0  0  0  0  0  0  0  0
   10.3113   -6.3691   -0.0000 C   0  0  0  0  0  0  0  0  0  0  0  0
    9.5774   -4.9130   -0.0000 C   0  0  0  0  0  0  0  0  0  0  0  0
    9.2104   -7.6714   -0.0000 C   0  0  0  0  0  0  0  0  0  0  0  0
   -5.3273   -4.3921   -0.0000 F   0  0  0  0  0  0  0  0  0  0  0  0
   -5.3273   -5.8956   -0.0000 F   0  0  0  0  0  0  0  0  0  0  0  0
   -6.6296   -6.6414   -0.0000 F   0  0  0  0  0  0  0  0  0  0  0  0
  -10.5363   -5.8956   -0.0000 F   0  0  0  0  0  0  0  0  0  0  0  0
  -10.2995   -4.0724   -0.0000 F   0  0  0  0  0  0  0  0  0  0  0  0
   -9.2340   -6.6414   -0.0000 F   0  0  0  0  0  0  0  0  0  0  0  0
  1  2  2  0  0  0  0
  1  3  2  0  0  0  0
  1  4  1  0  0  0  0
  1  5  1  0  0  0  0
  4  6  1  0  0  0  0
  5  7  1  0  0  0  0
  6  8  1  6  0  0  0
  6  9  1  0  0  0  0
  7 10  1  6  0  0  0
  8 11  1  0  0  0  0
  9 12  1  1  0  0  0
 10 13  1  0  0  0  0
 11 14  1  0  0  0  0
 13 15  2  0  0  0  0
 13 16  1  0  0  0  0
 14 17  1  0  0  0  0
 14 18  2  0  0  0  0
 15 19  1  0  0  0  0
 16 20  2  0  0  0  0
 17 21  2  0  0  0  0
 18 22  1  0  0  0  0
 19 23  1  0  0  0  0
 19 24  2  0  0  0  0
 20 25  1  0  0  0  0
 22 26  1  0  0  0  0
 24 27  1  0  0  0  0
 25 28  1  0  0  0  0
 26 29  1  0  0  0  0
 28 30  1  0  0  0  0
 28 31  1  0  0  0  0
 29 32  1  0  0  0  0
 29 33  1  0  0  0  0
 29 34  1  0  0  0  0
 30 35  1  0  0  0  0
 30 36  1  0  0  0  0
 30 37  1  0  0  0  0
 31 38  1  0  0  0  0
 31 39  1  0  0  0  0
 31 40  1  0  0  0  0
  7  9  1  0  0  0  0
 20 24  1  0  0  0  0
 21 22  1  0  0  0  0
M  END
>  <MolRegNo>
1351490

>  <m>
=

>  <Value>
6700

>  <Unit>
nM

>  <Type>
IC50

>  <pValue>
5.17

>  <Ligand Efficiency>
0

>  <Binding Efficiency>
0

>  <Surface Efficiency>
0

>  <Assay Index>
660490

>  <Assay Category>


>  <Assay Organism>


>  <Target ID>
17045

>  <Target Name>
Cytochrome P450 3A4

>  <Target Organism>
Homo sapiens

>  <Target Description>
Target is a single protein chain

>  <Sequence Accession>
P08684

>  <Reference>
J Med Chem 55 (7), 3364-3386 (2012)

>  <Pubmed ID>
22380629

>  <DOI>
10.1021/jm300069y

$$$$
1351491
Actelion Java MolfileCreator 1.0

 40 42  0  0  0  0  0  0  0  0999 V2000
    0.0000   -0.0000   -0.0000 S   0  0  0  0  0  0  0  0  0  0  0  0
    0.9589    1.1602   -0.0000 O   0  0  0  0  0  0  0  0  0  0  0  0
   -0.9826    1.1602   -0.0000 O   0  0  0  0  0  0  0  0  0  0  0  0
    1.2904   -0.7458   -0.0000 C   0  0  0  0  0  0  0  0  0  0  0  0
   -1.3141   -0.7458   -0.0000 C   0  0  0  0  0  0  0  0  0  0  0  0
    1.2786   -2.2375   -0.0000 C   0  0  0  0  0  0  0  0  0  0  0  0
   -1.3259   -2.2375   -0.0000 C   0  0  0  0  0  0  0  0  0  0  0  0
    2.5690   -2.9715   -0.0000 N   0  0  0  0  0  0  0  0  0  0  0  0
   -0.0355   -2.9715   -0.0000 C   0  0  0  0  0  0  0  0  0  0  0  0
   -2.6400   -2.9715   -0.0000 C   0  0  0  0  0  0  0  0  0  0  0  0
    3.8594   -2.2138   -0.0000 C   0  0  0  0  0  0  0  0  0  0  0  0
   -0.0474   -4.4631   -0.0000 O   0  0  0  0  0  0  0  0  0  0  0  0
   -3.9541   -2.2138   -0.0000 C   0  0  0  0  0  0  0  0  0  0  0  0
    5.1498   -2.9478   -0.0000 C   0  0  0  0  0  0  0  0  0  0  0  0
   -3.9659   -0.6985   -0.0000 C   0  0  0  0  0  0  0  0  0  0  0  0
   -5.2681   -2.9478   -0.0000 C   0  0  0  0  0  0  0  0  0  0  0  0
    6.5112   -2.3203   -0.0000 N   0  0  0  0  0  0  0  0  0  0  0  0
    5.2918   -4.4276   -0.0000 C   0  0  0  0  0  0  0  0  0  0  0  0
   -5.2800    0.0592   -0.0000 C   0  0  0  0  0  0  0  0  0  0  0  0
   -6.5822   -2.1901   -0.0000 C   0  0  0  0  0  0  0  0  0  0  0  0
    7.5056   -3.4213   -0.0000 O   0  0  0  0  0  0  0  0  0  0  0  0
    6.7480   -4.7236   -0.0000 C   0  0  0  0  0  0  0  0  0  0  0  0
   -5.2918    1.5745   -0.0000 F   0  0  0  0  0  0  0  0  0  0  0  0
   -6.5941   -0.6866   -0.0000 C   0  0  0  0  0  0  0  0  0  0  0  0
   -7.8963   -2.9241   -0.0000 O   0  0  0  0  0  0  0  0  0  0  0  0
    7.3517   -6.0850   -0.0000 C   0  0  0  0  0  0  0  0  0  0  0  0
   -7.9081    0.0710   -0.0000 N   0  0  0  0  0  0  0  0  0  0  0  0
   -7.9081   -4.4158   -0.0000 C   0  0  0  0  0  0  0  0  0  0  0  0
    8.8315   -6.2271   -0.0000 C   0  0  0  0  0  0  0  0  0  0  0  0
   -6.6177   -5.1498   -0.0000 C   0  0  0  0  0  0  0  0  0  0  0  0
   -9.2222   -5.1498   -0.0000 C   0  0  0  0  0  0  0  0  0  0  0  0
   10.3113   -6.3691   -0.0000 C   0  0  0  0  0  0  0  0  0  0  0  0
    9.5774   -4.9130   -0.0000 C   0  0  0  0  0  0  0  0  0  0  0  0
    9.2104   -7.6714   -0.0000 C   0  0  0  0  0  0  0  0  0  0  0  0
   -5.3273   -4.3921   -0.0000 F   0  0  0  0  0  0  0  0  0  0  0  0
   -5.3273   -5.8956   -0.0000 F   0  0  0  0  0  0  0  0  0  0  0  0
   -6.6296   -6.6414   -0.0000 F   0  0  0  0  0  0  0  0  0  0  0  0
  -10.5363   -5.8956   -0.0000 F   0  0  0  0  0  0  0  0  0  0  0  0
  -10.2995   -4.0724   -0.0000 F   0  0  0  0  0  0  0  0  0  0  0  0
   -9.2340   -6.6414   -0.0000 F   0  0  0  0  0  0  0  0  0  0  0  0
  1  2  2  0  0  0  0
  1  3  2  0  0  0  0
  1  4  1  0  0  0  0
  1  5  1  0  0  0  0
  4  6  1  0  0  0  0
  5  7  1  0  0  0  0
  6  8  1  6  0  0  0
  6  9  1  0  0  0  0
  7 10  1  6  0  0  0
  8 11  1  0  0  0  0
  9 12  1  1  0  0  0
 10 13  1  0  0  0  0
 11 14  1  0  0  0  0
 13 15  2  0  0  0  0
 13 16  1  0  0  0  0
 14 17  2  0  0  0  0
 14 18  1  0  0  0  0
 15 19  1  0  0  0  0
 16 20  2  0  0  0  0
 17 21  1  0  0  0  0
 18 22  2  0  0  0  0
 19 23  1  0  0  0  0
 19 24  2  0  0  0  0
 20 25  1  0  0  0  0
 22 26  1  0  0  0  0
 24 27  1  0  0  0  0
 25 28  1  0  0  0  0
 26 29  1  0  0  0  0
 28 30  1  0  0  0  0
 28 31  1  0  0  0  0
 29 32  1  0  0  0  0
 29 33  1  0  0  0  0
 29 34  1  0  0  0  0
 30 35  1  0  0  0  0
 30 36  1  0  0  0  0
 30 37  1  0  0  0  0
 31 38  1  0  0  0  0
 31 39  1  0  0  0  0
 31 40  1  0  0  0  0
  7  9  1  0  0  0  0
 20 24  1  0  0  0  0
 21 22  1  0  0  0  0
M  END
>  <MolRegNo>
1351491

>  <m>
=

>  <Value>
400

>  <Unit>
nM

>  <Type>
IC50

>  <pValue>
6.4

>  <Ligand Efficiency>
0

>  <Binding Efficiency>
0

>  <Surface Efficiency>
0

>  <Assay Index>
660490

>  <Assay Category>


>  <Assay Organism>


>  <Target ID>
17045

>  <Target Name>
Cytochrome P450 3A4

>  <Target Organism>
Homo sapiens

>  <Target Description>
Target is a single protein chain

>  <Sequence Accession>
P08684

>  <Reference>
J Med Chem 55 (7), 3364-3386 (2012)

>  <Pubmed ID>
22380629

>  <DOI>
10.1021/jm300069y

$$$$
1351920
Actelion Java MolfileCreator 1.0

 27 30  0  0  0  0  0  0  0  0999 V2000
    0.0000   -0.0000   -0.0000 O   0  0  0  0  0  0  0  0  0  0  0  0
   -0.7649    1.3062   -0.0000 C   0  0  0  0  0  0  0  0  0  0  0  0
   -2.2712    1.3180   -0.0000 C   0  0  0  0  0  0  0  0  0  0  0  0
   -0.0235    2.6124   -0.0000 C   0  0  0  0  0  0  0  0  0  0  0  0
   -3.0243    0.0353   -0.0000 O   0  0  0  0  0  0  0  0  0  0  0  0
   -3.0243    2.6242   -0.0000 C   0  0  0  0  0  0  0  0  0  0  0  0
    1.4592    2.6242   -0.0000 O   0  0  0  0  0  0  0  0  0  0  0  0
   -0.7884    3.9186   -0.0000 C   0  0  0  0  0  0  0  0  0  0  0  0
   -4.5306    2.6360   -0.0000 C   0  0  0  0  0  0  0  0  0  0  0  0
   -2.2947    3.9304   -0.0000 C   0  0  0  0  0  0  0  0  0  0  0  0
   -0.0471    5.2249   -0.0000 C   0  0  0  0  0  0  0  0  0  0  0  0
   -5.2837    1.3533   -0.0000 C   0  0  0  0  0  0  0  0  0  0  0  0
   -5.2837    3.9422   -0.0000 C   0  0  0  0  0  0  0  0  0  0  0  0
    1.4357    5.2366   -0.0000 O   0  0  0  0  0  0  0  0  0  0  0  0
   -6.7900    1.3651   -0.0000 C   0  0  0  0  0  0  0  0  0  0  0  0
   -6.7900    3.9539   -0.0000 C   0  0  0  0  0  0  0  0  0  0  0  0
   -7.5431    2.6713   -0.0000 C   0  0  0  0  0  0  0  0  0  0  0  0
   -7.5431    0.0824   -0.0000 C   0  0  0  0  0  0  0  0  0  0  0  0
   -9.0494    0.0941   -0.0000 C   0  0  0  0  0  0  0  0  0  0  0  0
   -9.8025   -1.1885   -0.0000 C   0  0  0  0  0  0  0  0  0  0  0  0
   -9.8025    1.4004   -0.0000 C   0  0  0  0  0  0  0  0  0  0  0  0
  -11.3088   -1.1768   -0.0000 C   0  0  0  0  0  0  0  0  0  0  0  0
  -11.3088    1.4121   -0.0000 C   0  0  0  0  0  0  0  0  0  0  0  0
  -12.0619    0.1294   -0.0000 C   0  0  0  0  0  0  0  0  0  0  0  0
  -13.5682    0.1412   -0.0000 C   0  0  0  0  0  0  0  0  0  0  0  0
  -14.8744   -0.5884   -0.0000 C   0  0  0  0  0  0  0  0  0  0  0  0
  -14.8744    0.8943   -0.0000 C   0  0  0  0  0  0  0  0  0  0  0  0
  2  1  1  6  0  0  0
  2  3  1  0  0  0  0
  2  4  1  0  0  0  0
  3  5  1  1  0  0  0
  3  6  1  0  0  0  0
  4  7  1  1  0  0  0
  4  8  1  0  0  0  0
  6  9  1  6  0  0  0
  6 10  1  0  0  0  0
  8 11  1  6  0  0  0
  9 12  2  0  0  0  0
  9 13  1  0  0  0  0
 11 14  1  0  0  0  0
 12 15  1  0  0  0  0
 13 16  2  0  0  0  0
 15 17  2  0  0  0  0
 15 18  1  0  0  0  0
 18 19  1  0  0  0  0
 19 20  2  0  0  0  0
 19 21  1  0  0  0  0
 20 22  1  0  0  0  0
 21 23  2  0  0  0  0
 22 24  2  0  0  0  0
 24 25  1  0  0  0  0
 25 26  1  0  0  0  0
 25 27  1  0  0  0  0
  8 10  1  0  0  0  0
 16 17  1  0  0  0  0
 23 24  1  0  0  0  0
 26 27  1  0  0  0  0
M  END
>  <MolRegNo>
1351920

>  <m>
=

>  <Value>
76000

>  <Unit>
nM

>  <Type>
IC50

>  <pValue>
4.12

>  <Ligand Efficiency>
0

>  <Binding Efficiency>
0

>  <Surface Efficiency>
0

>  <Assay Index>
661774

>  <Assay Category>


>  <Assay Organism>


>  <Target ID>
17045

>  <Target Name>
Cytochrome P450 3A4

>  <Target Organism>
Homo sapiens

>  <Target Description>
Target is a single protein chain

>  <Sequence Accession>
P08684

>  <Reference>
Bioorg Med Chem 20 (13), 4117-4127 (2012)

>  <Pubmed ID>
22652255

>  <DOI>
10.1016/j.bmc.2012.04.053

$$$$
1351925
Actelion Java MolfileCreator 1.0

 29 31  0  0  0  0  0  0  0  0999 V2000
    0.0000   -0.0000   -0.0000 O   0  0  0  0  0  0  0  0  0  0  0  0
    1.2901   -0.7287   -0.0000 C   0  0  0  0  0  0  0  0  0  0  0  0
   -0.0239    1.5171   -0.0000 C   0  0  0  0  0  0  0  0  0  0  0  0
    1.2782   -2.1979   -0.0000 C   0  0  0  0  0  0  0  0  0  0  0  0
    2.5802    0.0478   -0.0000 C   0  0  0  0  0  0  0  0  0  0  0  0
   -1.3379    2.2696   -0.0000 C   0  0  0  0  0  0  0  0  0  0  0  0
    2.5682   -2.9386   -0.0000 C   0  0  0  0  0  0  0  0  0  0  0  0
   -0.0358   -2.9386   -0.0000 C   0  0  0  0  0  0  0  0  0  0  0  0
    3.8703   -0.6928   -0.0000 C   0  0  0  0  0  0  0  0  0  0  0  0
    3.8583   -2.1741   -0.0000 C   0  0  0  0  0  0  0  0  0  0  0  0
   -0.0358   -4.4437   -0.0000 C   0  0  0  0  0  0  0  0  0  0  0  0
   -1.3498   -2.1741   -0.0000 C   0  0  0  0  0  0  0  0  0  0  0  0
    5.1484   -2.9147   -0.0000 C   0  0  0  0  0  0  0  0  0  0  0  0
    1.2543   -5.1843   -0.0000 O   0  0  0  0  0  0  0  0  0  0  0  0
   -1.3618   -5.1723   -0.0000 C   0  0  0  0  0  0  0  0  0  0  0  0
   -2.6638   -2.9147   -0.0000 C   0  0  0  0  0  0  0  0  0  0  0  0
    6.4385   -2.1502   -0.0000 C   0  0  0  0  0  0  0  0  0  0  0  0
   -1.3737   -6.6655   -0.0000 O   0  0  0  0  0  0  0  0  0  0  0  0
   -2.6758   -4.4078   -0.0000 C   0  0  0  0  0  0  0  0  0  0  0  0
   -3.9778   -2.1502   -0.0000 C   0  0  0  0  0  0  0  0  0  0  0  0
    7.7286   -2.8908   -0.0000 C   0  0  0  0  0  0  0  0  0  0  0  0
    6.4266   -0.6450   -0.0000 C   0  0  0  0  0  0  0  0  0  0  0  0
   -3.9897   -5.1484   -0.0000 O   0  0  0  0  0  0  0  0  0  0  0  0
   -5.3037   -2.8788   -0.0000 O   0  0  0  0  0  0  0  0  0  0  0  0
    9.0187   -2.1263   -0.0000 C   0  0  0  0  0  0  0  0  0  0  0  0
    7.7047    0.1195   -0.0000 C   0  0  0  0  0  0  0  0  0  0  0  0
    9.0068   -0.6092   -0.0000 C   0  0  0  0  0  0  0  0  0  0  0  0
   10.2969    0.1553   -0.0000 C   0  0  0  0  0  0  0  0  0  0  0  0
   11.5870   -0.5853   -0.0000 C   0  0  0  0  0  0  0  0  0  0  0  0
  1  2  1  0  0  0  0
  1  3  1  0  0  0  0
  2  4  2  0  0  0  0
  2  5  1  0  0  0  0
  3  6  1  0  0  0  0
  4  7  1  0  0  0  0
  8  4  1  1  0  0  0
  5  9  2  0  0  0  0
  7 10  2  0  0  0  0
  8 11  1  0  0  0  0
  8 12  1  0  0  0  0
 10 13  1  0  0  0  0
 11 14  1  6  0  0  0
 11 15  1  0  0  0  0
 12 16  1  0  0  0  0
 13 17  1  0  0  0  0
 15 18  1  1  0  0  0
 15 19  1  0  0  0  0
 16 20  1  1  0  0  0
 17 21  2  0  0  0  0
 17 22  1  0  0  0  0
 19 23  1  6  0  0  0
 20 24  1  0  0  0  0
 21 25  1  0  0  0  0
 22 26  2  0  0  0  0
 25 27  2  0  0  0  0
 27 28  1  0  0  0  0
 28 29  1  0  0  0  0
  9 10  1  0  0  0  0
 16 19  1  0  0  0  0
 26 27  1  0  0  0  0
M  END
>  <MolRegNo>
1351925

>  <m>
=

>  <Value>
36600

>  <Unit>
nM

>  <Type>
IC50

>  <pValue>
4.44

>  <Ligand Efficiency>
0

>  <Binding Efficiency>
0

>  <Surface Efficiency>
0

>  <Assay Index>
661774

>  <Assay Category>


>  <Assay Organism>


>  <Target ID>
17045

>  <Target Name>
Cytochrome P450 3A4

>  <Target Organism>
Homo sapiens

>  <Target Description>
Target is a single protein chain

>  <Sequence Accession>
P08684

>  <Reference>
Bioorg Med Chem 20 (13), 4117-4127 (2012)

>  <Pubmed ID>
22652255

>  <DOI>
10.1016/j.bmc.2012.04.053

$$$$
1351929
Actelion Java MolfileCreator 1.0

 30 32  0  0  0  0  0  0  0  0999 V2000
    0.0000   -0.0000   -0.0000 O   0  0  0  0  0  0  0  0  0  0  0  0
    1.2899   -0.7285   -0.0000 C   0  0  0  0  0  0  0  0  0  0  0  0
   -0.0239    1.5168   -0.0000 C   0  0  0  0  0  0  0  0  0  0  0  0
    1.2779   -2.1976   -0.0000 C   0  0  0  0  0  0  0  0  0  0  0  0
    2.5797    0.0478   -0.0000 C   0  0  0  0  0  0  0  0  0  0  0  0
    2.5678   -2.9380   -0.0000 C   0  0  0  0  0  0  0  0  0  0  0  0
   -0.0358   -2.9380   -0.0000 C   0  0  0  0  0  0  0  0  0  0  0  0
    3.8696   -0.6927   -0.0000 C   0  0  0  0  0  0  0  0  0  0  0  0
    3.8577   -2.1737   -0.0000 C   0  0  0  0  0  0  0  0  0  0  0  0
   -0.0358   -4.4429   -0.0000 C   0  0  0  0  0  0  0  0  0  0  0  0
   -1.3496   -2.1737   -0.0000 C   0  0  0  0  0  0  0  0  0  0  0  0
    5.1595    0.0717   -0.0000 O   0  0  0  0  0  0  0  0  0  0  0  0
    5.1475   -2.9142   -0.0000 C   0  0  0  0  0  0  0  0  0  0  0  0
    1.2540   -5.1834   -0.0000 O   0  0  0  0  0  0  0  0  0  0  0  0
   -1.3615   -5.1714   -0.0000 C   0  0  0  0  0  0  0  0  0  0  0  0
   -2.6633   -2.9142   -0.0000 C   0  0  0  0  0  0  0  0  0  0  0  0
    5.1475    1.5885   -0.0000 C   0  0  0  0  0  0  0  0  0  0  0  0
    6.4374   -2.1498   -0.0000 C   0  0  0  0  0  0  0  0  0  0  0  0
   -1.3735   -6.6643   -0.0000 O   0  0  0  0  0  0  0  0  0  0  0  0
   -2.6753   -4.4071   -0.0000 C   0  0  0  0  0  0  0  0  0  0  0  0
   -3.9771   -2.1498   -0.0000 C   0  0  0  0  0  0  0  0  0  0  0  0
    7.7273   -2.8903   -0.0000 C   0  0  0  0  0  0  0  0  0  0  0  0
    6.4255   -0.6330   -0.0000 C   0  0  0  0  0  0  0  0  0  0  0  0
   -3.9890   -5.1475   -0.0000 O   0  0  0  0  0  0  0  0  0  0  0  0
   -5.3028   -2.8783   -0.0000 O   0  0  0  0  0  0  0  0  0  0  0  0
    9.0172   -2.1259   -0.0000 C   0  0  0  0  0  0  0  0  0  0  0  0
    7.7034    0.1194   -0.0000 C   0  0  0  0  0  0  0  0  0  0  0  0
    9.0052   -0.6091   -0.0000 C   0  0  0  0  0  0  0  0  0  0  0  0
   10.2951    0.1553   -0.0000 C   0  0  0  0  0  0  0  0  0  0  0  0
   11.5850   -0.5852   -0.0000 C   0  0  0  0  0  0  0  0  0  0  0  0
  1  2  1  0  0  0  0
  1  3  1  0  0  0  0
  2  4  2  0  0  0  0
  2  5  1  0  0  0  0
  4  6  1  0  0  0  0
  7  4  1  1  0  0  0
  5  8  2  0  0  0  0
  6  9  2  0  0  0  0
  7 10  1  0  0  0  0
  7 11  1  0  0  0  0
  8 12  1  0  0  0  0
  9 13  1  0  0  0  0
 10 14  1  6  0  0  0
 10 15  1  0  0  0  0
 11 16  1  0  0  0  0
 12 17  1  0  0  0  0
 13 18  1  0  0  0  0
 15 19  1  1  0  0  0
 15 20  1  0  0  0  0
 16 21  1  1  0  0  0
 18 22  2  0  0  0  0
 18 23  1  0  0  0  0
 20 24  1  6  0  0  0
 21 25  1  0  0  0  0
 22 26  1  0  0  0  0
 23 27  2  0  0  0  0
 26 28  2  0  0  0  0
 28 29  1  0  0  0  0
 29 30  1  0  0  0  0
  8  9  1  0  0  0  0
 16 20  1  0  0  0  0
 27 28  1  0  0  0  0
M  END
>  <MolRegNo>
1351929

>  <m>
=

>  <Value>
25700

>  <Unit>
nM

>  <Type>
IC50

>  <pValue>
4.59

>  <Ligand Efficiency>
0

>  <Binding Efficiency>
0

>  <Surface Efficiency>
0

>  <Assay Index>
661774

>  <Assay Category>


>  <Assay Organism>


>  <Target ID>
17045

>  <Target Name>
Cytochrome P450 3A4

>  <Target Organism>
Homo sapiens

>  <Target Description>
Target is a single protein chain

>  <Sequence Accession>
P08684

>  <Reference>
Bioorg Med Chem 20 (13), 4117-4127 (2012)

>  <Pubmed ID>
22652255

>  <DOI>
10.1016/j.bmc.2012.04.053

$$$$
1351930
Actelion Java MolfileCreator 1.0

 31 33  0  0  0  0  0  0  0  0999 V2000
    0.0000   -0.0000   -0.0000 O   0  0  0  0  0  0  0  0  0  0  0  0
    1.2902   -0.7287   -0.0000 C   0  0  0  0  0  0  0  0  0  0  0  0
   -0.0239    1.5172   -0.0000 C   0  0  0  0  0  0  0  0  0  0  0  0
    1.2783   -2.1981   -0.0000 C   0  0  0  0  0  0  0  0  0  0  0  0
    2.5804    0.0478   -0.0000 C   0  0  0  0  0  0  0  0  0  0  0  0
    2.5685   -2.9388   -0.0000 C   0  0  0  0  0  0  0  0  0  0  0  0
   -0.0358   -2.9388   -0.0000 C   0  0  0  0  0  0  0  0  0  0  0  0
    3.8706   -0.6929   -0.0000 C   0  0  0  0  0  0  0  0  0  0  0  0
    3.8587   -2.1742   -0.0000 C   0  0  0  0  0  0  0  0  0  0  0  0
    1.2544   -3.6795   -0.0000 O   0  0  0  0  0  0  0  0  0  0  0  0
   -0.0358   -4.4440   -0.0000 C   0  0  0  0  0  0  0  0  0  0  0  0
   -1.3499   -2.1742   -0.0000 C   0  0  0  0  0  0  0  0  0  0  0  0
    5.1608    0.0717   -0.0000 O   0  0  0  0  0  0  0  0  0  0  0  0
    5.1489   -2.9149   -0.0000 C   0  0  0  0  0  0  0  0  0  0  0  0
    1.2544   -5.1847   -0.0000 O   0  0  0  0  0  0  0  0  0  0  0  0
   -1.3619   -5.1728   -0.0000 C   0  0  0  0  0  0  0  0  0  0  0  0
   -2.6640   -2.9149   -0.0000 C   0  0  0  0  0  0  0  0  0  0  0  0
    5.1489    1.5889   -0.0000 C   0  0  0  0  0  0  0  0  0  0  0  0
    6.4391   -2.1503   -0.0000 C   0  0  0  0  0  0  0  0  0  0  0  0
   -1.3738   -6.6660   -0.0000 O   0  0  0  0  0  0  0  0  0  0  0  0
   -2.6760   -4.4082   -0.0000 C   0  0  0  0  0  0  0  0  0  0  0  0
   -3.9781   -2.1503   -0.0000 C   0  0  0  0  0  0  0  0  0  0  0  0
    7.7293   -2.8910   -0.0000 C   0  0  0  0  0  0  0  0  0  0  0  0
    6.4271   -0.6332   -0.0000 C   0  0  0  0  0  0  0  0  0  0  0  0
   -3.9901   -5.1489   -0.0000 O   0  0  0  0  0  0  0  0  0  0  0  0
   -5.3042   -2.8791   -0.0000 O   0  0  0  0  0  0  0  0  0  0  0  0
    9.0195   -2.1264   -0.0000 C   0  0  0  0  0  0  0  0  0  0  0  0
    7.7054    0.1195   -0.0000 C   0  0  0  0  0  0  0  0  0  0  0  0
    9.0075   -0.6093   -0.0000 C   0  0  0  0  0  0  0  0  0  0  0  0
   10.2977    0.1553   -0.0000 C   0  0  0  0  0  0  0  0  0  0  0  0
   11.5879   -0.5854   -0.0000 C   0  0  0  0  0  0  0  0  0  0  0  0
  1  2  1  0  0  0  0
  1  3  1  0  0  0  0
  2  4  2  0  0  0  0
  2  5  1  0  0  0  0
  4  6  1  0  0  0  0
  4  7  1  0  0  0  0
  5  8  2  0  0  0  0
  6  9  2  0  0  0  0
  7 10  1  6  0  0  0
  7 11  1  0  0  0  0
  7 12  1  0  0  0  0
  8 13  1  0  0  0  0
  9 14  1  0  0  0  0
 11 15  1  6  0  0  0
 11 16  1  0  0  0  0
 12 17  1  0  0  0  0
 13 18  1  0  0  0  0
 14 19  1  0  0  0  0
 16 20  1  1  0  0  0
 16 21  1  0  0  0  0
 17 22  1  1  0  0  0
 19 23  2  0  0  0  0
 19 24  1  0  0  0  0
 21 25  1  6  0  0  0
 22 26  1  0  0  0  0
 23 27  1  0  0  0  0
 24 28  2  0  0  0  0
 27 29  2  0  0  0  0
 29 30  1  0  0  0  0
 30 31  1  0  0  0  0
  8  9  1  0  0  0  0
 17 21  1  0  0  0  0
 28 29  1  0  0  0  0
M  END
>  <MolRegNo>
1351930

>  <m>
=

>  <Value>
29000

>  <Unit>
nM

>  <Type>
IC50

>  <pValue>
4.54

>  <Ligand Efficiency>
0

>  <Binding Efficiency>
0

>  <Surface Efficiency>
0

>  <Assay Index>
661774

>  <Assay Category>


>  <Assay Organism>


>  <Target ID>
17045

>  <Target Name>
Cytochrome P450 3A4

>  <Target Organism>
Homo sapiens

>  <Target Description>
Target is a single protein chain

>  <Sequence Accession>
P08684

>  <Reference>
Bioorg Med Chem 20 (13), 4117-4127 (2012)

>  <Pubmed ID>
22652255

>  <DOI>
10.1016/j.bmc.2012.04.053

$$$$
1354882
Actelion Java MolfileCreator 1.0

 38 41  0  0  0  0  0  0  0  0999 V2000
    0.0000   -0.0000   -0.0000 S   0  0  0  0  0  0  0  0  0  0  0  0
    1.4704   -0.1423   -0.0000 C   0  0  0  0  0  0  0  0  0  0  0  0
   -0.3320    1.4822   -0.0000 C   0  0  0  0  0  0  0  0  0  0  0  0
    2.0632    1.2213   -0.0000 N   0  0  0  0  0  0  0  0  0  0  0  0
    2.2055   -1.4348   -0.0000 N   0  0  0  0  0  0  0  0  0  0  0  0
    0.9605    2.2293   -0.0000 C   0  0  0  0  0  0  0  0  0  0  0  0
   -1.6364    2.2293   -0.0000 C   0  0  0  0  0  0  0  0  0  0  0  0
    0.9486    3.7470   -0.0000 C   0  0  0  0  0  0  0  0  0  0  0  0
   -1.6482    3.7352   -0.0000 C   0  0  0  0  0  0  0  0  0  0  0  0
   -0.3557    4.5059   -0.0000 C   0  0  0  0  0  0  0  0  0  0  0  0
   -2.9526    4.4941   -0.0000 C   0  0  0  0  0  0  0  0  0  0  0  0
   -2.9644    6.0000   -0.0000 O   0  0  0  0  0  0  0  0  0  0  0  0
   -4.2569    3.7589   -0.0000 N   0  0  0  0  0  0  0  0  0  0  0  0
   -5.5731    4.5178   -0.0000 C   0  0  0  0  0  0  0  0  0  0  0  0
   -4.2688    2.2767   -0.0000 C   0  0  0  0  0  0  0  0  0  0  0  0
   -6.8775    3.7826   -0.0000 C   0  0  0  0  0  0  0  0  0  0  0  0
   -5.1700    1.0791   -0.0000 C   0  0  0  0  0  0  0  0  0  0  0  0
   -6.8893    2.3004   -0.0000 O   0  0  0  0  0  0  0  0  0  0  0  0
   -8.1818    4.5415   -0.0000 C   0  0  0  0  0  0  0  0  0  0  0  0
   -4.5771   -0.2846   -0.0000 C   0  0  0  0  0  0  0  0  0  0  0  0
   -6.6759    1.2569   -0.0000 C   0  0  0  0  0  0  0  0  0  0  0  0
   -9.4862    3.8063   -0.0000 N   0  0  0  0  0  0  0  0  0  0  0  0
   -8.1937    6.0474   -0.0000 C   0  0  0  0  0  0  0  0  0  0  0  0
  -10.7905    4.5652   -0.0000 C   0  0  0  0  0  0  0  0  0  0  0  0
   -6.9131    6.8063   -0.0000 C   0  0  0  0  0  0  0  0  0  0  0  0
  -10.8024    6.0712   -0.0000 O   0  0  0  0  0  0  0  0  0  0  0  0
  -12.0949    3.8301   -0.0000 O   0  0  0  0  0  0  0  0  0  0  0  0
   -5.6206    6.0593   -0.0000 C   0  0  0  0  0  0  0  0  0  0  0  0
   -6.9249    8.3004   -0.0000 C   0  0  0  0  0  0  0  0  0  0  0  0
  -13.3993    4.5889   -0.0000 C   0  0  0  0  0  0  0  0  0  0  0  0
   -4.3399    6.8182   -0.0000 C   0  0  0  0  0  0  0  0  0  0  0  0
   -5.6443    9.0712   -0.0000 C   0  0  0  0  0  0  0  0  0  0  0  0
  -14.7036    3.8538   -0.0000 C   0  0  0  0  0  0  0  0  0  0  0  0
   -4.3518    8.3241   -0.0000 C   0  0  0  0  0  0  0  0  0  0  0  0
  -16.0791    4.4704   -0.0000 S   0  0  0  0  0  0  0  0  0  0  0  0
  -14.8696    2.3715   -0.0000 C   0  0  0  0  0  0  0  0  0  0  0  0
  -17.0989    3.3676   -0.0000 C   0  0  0  0  0  0  0  0  0  0  0  0
  -16.3518    2.0632   -0.0000 N   0  0  0  0  0  0  0  0  0  0  0  0
  1  2  1  0  0  0  0
  1  3  1  0  0  0  0
  2  4  2  0  0  0  0
  2  5  1  0  0  0  0
  3  6  2  0  0  0  0
  3  7  1  0  0  0  0
  6  8  1  0  0  0  0
  7  9  2  0  0  0  0
  8 10  2  0  0  0  0
  9 11  1  0  0  0  0
 11 12  2  0  0  0  0
 11 13  1  0  0  0  0
 13 14  1  0  0  0  0
 13 15  1  0  0  0  0
 14 16  1  0  0  0  0
 15 17  1  0  0  0  0
 16 18  1  6  0  0  0
 16 19  1  0  0  0  0
 17 20  1  0  0  0  0
 17 21  1  0  0  0  0
 19 22  1  6  0  0  0
 19 23  1  0  0  0  0
 22 24  1  0  0  0  0
 23 25  1  0  0  0  0
 24 26  2  0  0  0  0
 24 27  1  0  0  0  0
 25 28  2  0  0  0  0
 25 29  1  0  0  0  0
 27 30  1  0  0  0  0
 28 31  1  0  0  0  0
 29 32  2  0  0  0  0
 30 33  1  0  0  0  0
 31 34  2  0  0  0  0
 33 35  1  0  0  0  0
 33 36  2  0  0  0  0
 35 37  1  0  0  0  0
 36 38  1  0  0  0  0
  4  6  1  0  0  0  0
  9 10  1  0  0  0  0
 32 34  1  0  0  0  0
 37 38  2  0  0  0  0
M  END
>  <MolRegNo>
1354882

>  <m>
=

>  <Value>
19

>  <Unit>
nM

>  <Type>
IC50

>  <pValue>
7.72

>  <Ligand Efficiency>
0

>  <Binding Efficiency>
0

>  <Surface Efficiency>
0

>  <Assay Index>
663293

>  <Assay Category>


>  <Assay Organism>
Homo sapiens

>  <Target ID>
17045

>  <Target Name>
Cytochrome P450 3A4

>  <Target Organism>
Homo sapiens

>  <Target Description>
Target is a single protein chain

>  <Sequence Accession>
P08684

>  <Reference>
Bioorg Med Chem Lett 22 (15), 4998-5002 (2012)

>  <Pubmed ID>
22765892

>  <DOI>
10.1016/j.bmcl.2012.06.022

$$$$
1354672
Actelion Java MolfileCreator 1.0

 42 45  0  0  0  0  0  0  0  0999 V2000
    0.0000   -0.0000   -0.0000 O   0  0  0  0  0  0  0  0  0  0  0  0
   -0.0119   -1.4961   -0.0000 C   0  0  0  0  0  0  0  0  0  0  0  0
   -1.3299   -2.2323   -0.0000 O   0  0  0  0  0  0  0  0  0  0  0  0
    1.2824   -2.2323   -0.0000 N   0  0  0  0  0  0  0  0  0  0  0  0
   -2.6598   -1.4724   -0.0000 C   0  0  0  0  0  0  0  0  0  0  0  0
    2.5648   -1.4724   -0.0000 C   0  0  0  0  0  0  0  0  0  0  0  0
   -3.9659   -2.2086   -0.0000 C   0  0  0  0  0  0  0  0  0  0  0  0
    3.8591   -2.2086   -0.0000 C   0  0  0  0  0  0  0  0  0  0  0  0
    2.5529    0.0475   -0.0000 C   0  0  0  0  0  0  0  0  0  0  0  0
   -5.2958   -1.4368   -0.0000 C   0  0  0  0  0  0  0  0  0  0  0  0
   -3.9778   -3.6928   -0.0000 C   0  0  0  0  0  0  0  0  0  0  0  0
    3.8472   -3.7047   -0.0000 O   0  0  0  0  0  0  0  0  0  0  0  0
    5.1534   -1.4486   -0.0000 C   0  0  0  0  0  0  0  0  0  0  0  0
    3.8472    0.8193   -0.0000 C   0  0  0  0  0  0  0  0  0  0  0  0
   -6.6020   -2.1730   -0.0000 N   0  0  0  0  0  0  0  0  0  0  0  0
   -5.2958   -4.4409   -0.0000 C   0  0  0  0  0  0  0  0  0  0  0  0
    6.4476   -2.1848   -0.0000 N   0  0  0  0  0  0  0  0  0  0  0  0
    5.1415    0.0712   -0.0000 C   0  0  0  0  0  0  0  0  0  0  0  0
    3.8353    2.3273   -0.0000 C   0  0  0  0  0  0  0  0  0  0  0  0
   -6.6139   -3.6691   -0.0000 C   0  0  0  0  0  0  0  0  0  0  0  0
    7.7419   -1.4249   -0.0000 C   0  0  0  0  0  0  0  0  0  0  0  0
    6.4358   -3.6810   -0.0000 C   0  0  0  0  0  0  0  0  0  0  0  0
    6.4358    0.8431   -0.0000 C   0  0  0  0  0  0  0  0  0  0  0  0
    5.1177    3.0873   -0.0000 C   0  0  0  0  0  0  0  0  0  0  0  0
    7.7300    0.0950   -0.0000 O   0  0  0  0  0  0  0  0  0  0  0  0
    9.0362   -2.1611   -0.0000 C   0  0  0  0  0  0  0  0  0  0  0  0
    5.5333   -4.8803   -0.0000 C   0  0  0  0  0  0  0  0  0  0  0  0
    6.4239    2.3629   -0.0000 C   0  0  0  0  0  0  0  0  0  0  0  0
    9.0243   -3.6572   -0.0000 C   0  0  0  0  0  0  0  0  0  0  0  0
   10.3186   -1.4011   -0.0000 C   0  0  0  0  0  0  0  0  0  0  0  0
    6.1152   -6.2458   -0.0000 C   0  0  0  0  0  0  0  0  0  0  0  0
    4.0253   -4.7021   -0.0000 C   0  0  0  0  0  0  0  0  0  0  0  0
   10.3186   -4.3934   -0.0000 C   0  0  0  0  0  0  0  0  0  0  0  0
   11.6129   -2.1373   -0.0000 C   0  0  0  0  0  0  0  0  0  0  0  0
   10.6154   -5.8539   -0.0000 O   0  0  0  0  0  0  0  0  0  0  0  0
   11.6129   -3.6335   -0.0000 C   0  0  0  0  0  0  0  0  0  0  0  0
   12.0997   -5.9964   -0.0000 C   0  0  0  0  0  0  0  0  0  0  0  0
   12.7053   -4.6309   -0.0000 N   0  0  0  0  0  0  0  0  0  0  0  0
   12.8359   -7.2907   -0.0000 N   0  0  0  0  0  0  0  0  0  0  0  0
   14.3320   -7.2788   -0.0000 C   0  0  0  0  0  0  0  0  0  0  0  0
   12.0760   -8.5850   -0.0000 C   0  0  0  0  0  0  0  0  0  0  0  0
   15.0801   -8.5731   -0.0000 C   0  0  0  0  0  0  0  0  0  0  0  0
  1  2  2  0  0  0  0
  2  3  1  0  0  0  0
  2  4  1  0  0  0  0
  3  5  1  0  0  0  0
  6  4  1  6  0  0  0
  5  7  1  0  0  0  0
  6  8  1  0  0  0  0
  6  9  1  0  0  0  0
  7 10  2  0  0  0  0
  7 11  1  0  0  0  0
  8 12  1  6  0  0  0
  8 13  1  0  0  0  0
  9 14  1  0  0  0  0
 10 15  1  0  0  0  0
 11 16  2  0  0  0  0
 13 17  1  0  0  0  0
 14 18  2  0  0  0  0
 14 19  1  0  0  0  0
 15 20  2  0  0  0  0
 17 21  1  0  0  0  0
 17 22  1  0  0  0  0
 18 23  1  0  0  0  0
 19 24  2  0  0  0  0
 21 25  2  0  0  0  0
 21 26  1  0  0  0  0
 22 27  1  0  0  0  0
 23 28  2  0  0  0  0
 26 29  2  0  0  0  0
 26 30  1  0  0  0  0
 27 31  1  0  0  0  0
 27 32  1  0  0  0  0
 29 33  1  0  0  0  0
 30 34  2  0  0  0  0
 33 35  1  0  0  0  0
 33 36  2  0  0  0  0
 35 37  1  0  0  0  0
 36 38  1  0  0  0  0
 37 39  1  0  0  0  0
 39 40  1  0  0  0  0
 39 41  1  0  0  0  0
 40 42  1  0  0  0  0
 16 20  1  0  0  0  0
 24 28  1  0  0  0  0
 34 36  1  0  0  0  0
 37 38  2  0  0  0  0
M  END
>  <MolRegNo>
1354672

>  <m>
=

>  <Value>
22

>  <Unit>
nM

>  <Type>
IC50

>  <pValue>
7.66

>  <Ligand Efficiency>
0

>  <Binding Efficiency>
0

>  <Surface Efficiency>
0

>  <Assay Index>
663293

>  <Assay Category>


>  <Assay Organism>
Homo sapiens

>  <Target ID>
17045

>  <Target Name>
Cytochrome P450 3A4

>  <Target Organism>
Homo sapiens

>  <Target Description>
Target is a single protein chain

>  <Sequence Accession>
P08684

>  <Reference>
Bioorg Med Chem Lett 22 (15), 4998-5002 (2012)

>  <Pubmed ID>
22765892

>  <DOI>
10.1016/j.bmcl.2012.06.022

$$$$
1354429
Actelion Java MolfileCreator 1.0

 41 44  0  0  0  0  0  0  0  0999 V2000
    0.0000   -0.0000   -0.0000 S   0  0  0  0  0  0  0  0  0  0  0  0
    1.3671   -0.5944   -0.0000 C   0  0  0  0  0  0  0  0  0  0  0  0
   -1.0223   -1.1174   -0.0000 C   0  0  0  0  0  0  0  0  0  0  0  0
    1.2006   -2.0803   -0.0000 C   0  0  0  0  0  0  0  0  0  0  0  0
    2.6628    0.1664   -0.0000 C   0  0  0  0  0  0  0  0  0  0  0  0
   -0.2734   -2.4132   -0.0000 N   0  0  0  0  0  0  0  0  0  0  0  0
    3.9586   -0.5706   -0.0000 O   0  0  0  0  0  0  0  0  0  0  0  0
    5.2543    0.1902   -0.0000 C   0  0  0  0  0  0  0  0  0  0  0  0
    5.2424    1.7118   -0.0000 O   0  0  0  0  0  0  0  0  0  0  0  0
    6.5501   -0.5468   -0.0000 N   0  0  0  0  0  0  0  0  0  0  0  0
    7.8339    0.2140   -0.0000 C   0  0  0  0  0  0  0  0  0  0  0  0
    9.1297   -0.5231   -0.0000 C   0  0  0  0  0  0  0  0  0  0  0  0
    7.8220    1.7356   -0.0000 C   0  0  0  0  0  0  0  0  0  0  0  0
    9.1178   -2.0209   -0.0000 O   0  0  0  0  0  0  0  0  0  0  0  0
   10.4254    0.2378   -0.0000 C   0  0  0  0  0  0  0  0  0  0  0  0
    9.1178    2.5083   -0.0000 C   0  0  0  0  0  0  0  0  0  0  0  0
   11.7212   -0.4993   -0.0000 N   0  0  0  0  0  0  0  0  0  0  0  0
   10.4135    1.7594   -0.0000 C   0  0  0  0  0  0  0  0  0  0  0  0
    9.1059    4.0180   -0.0000 C   0  0  0  0  0  0  0  0  0  0  0  0
   13.0169    0.2615   -0.0000 C   0  0  0  0  0  0  0  0  0  0  0  0
   11.7093   -1.9971   -0.0000 C   0  0  0  0  0  0  0  0  0  0  0  0
   11.7093    2.5321   -0.0000 C   0  0  0  0  0  0  0  0  0  0  0  0
   10.3898    4.7788   -0.0000 C   0  0  0  0  0  0  0  0  0  0  0  0
   13.0050    1.7831   -0.0000 O   0  0  0  0  0  0  0  0  0  0  0  0
   14.3127   -0.4755   -0.0000 C   0  0  0  0  0  0  0  0  0  0  0  0
   10.7939   -3.1978   -0.0000 C   0  0  0  0  0  0  0  0  0  0  0  0
   11.6974    4.0537   -0.0000 C   0  0  0  0  0  0  0  0  0  0  0  0
   14.3008   -1.9733   -0.0000 C   0  0  0  0  0  0  0  0  0  0  0  0
   15.5965    0.2853   -0.0000 C   0  0  0  0  0  0  0  0  0  0  0  0
   11.3883   -4.5648   -0.0000 C   0  0  0  0  0  0  0  0  0  0  0  0
    9.2842   -3.0195   -0.0000 C   0  0  0  0  0  0  0  0  0  0  0  0
   15.5965   -2.7104   -0.0000 C   0  0  0  0  0  0  0  0  0  0  0  0
   16.8923   -0.4517   -0.0000 C   0  0  0  0  0  0  0  0  0  0  0  0
   15.8937   -4.1725   -0.0000 O   0  0  0  0  0  0  0  0  0  0  0  0
   16.8923   -1.9496   -0.0000 C   0  0  0  0  0  0  0  0  0  0  0  0
   17.3797   -4.3152   -0.0000 C   0  0  0  0  0  0  0  0  0  0  0  0
   17.9859   -2.9481   -0.0000 N   0  0  0  0  0  0  0  0  0  0  0  0
   18.1167   -5.6109   -0.0000 N   0  0  0  0  0  0  0  0  0  0  0  0
   19.6145   -5.5991   -0.0000 C   0  0  0  0  0  0  0  0  0  0  0  0
   17.3559   -6.9067   -0.0000 C   0  0  0  0  0  0  0  0  0  0  0  0
   20.3635   -6.8948   -0.0000 C   0  0  0  0  0  0  0  0  0  0  0  0
  1  2  1  0  0  0  0
  1  3  1  0  0  0  0
  2  4  2  0  0  0  0
  2  5  1  0  0  0  0
  3  6  2  0  0  0  0
  5  7  1  0  0  0  0
  7  8  1  0  0  0  0
  8  9  2  0  0  0  0
  8 10  1  0  0  0  0
 11 10  1  1  0  0  0
 11 12  1  0  0  0  0
 11 13  1  0  0  0  0
 12 14  1  6  0  0  0
 12 15  1  0  0  0  0
 13 16  1  0  0  0  0
 15 17  1  0  0  0  0
 16 18  2  0  0  0  0
 16 19  1  0  0  0  0
 17 20  1  0  0  0  0
 17 21  1  0  0  0  0
 18 22  1  0  0  0  0
 19 23  2  0  0  0  0
 20 24  2  0  0  0  0
 20 25  1  0  0  0  0
 21 26  1  0  0  0  0
 22 27  2  0  0  0  0
 25 28  2  0  0  0  0
 25 29  1  0  0  0  0
 26 30  1  0  0  0  0
 26 31  1  0  0  0  0
 28 32  1  0  0  0  0
 29 33  2  0  0  0  0
 32 34  1  0  0  0  0
 32 35  2  0  0  0  0
 34 36  1  0  0  0  0
 35 37  1  0  0  0  0
 36 38  1  0  0  0  0
 38 39  1  0  0  0  0
 38 40  1  0  0  0  0
 39 41  1  0  0  0  0
  4  6  1  0  0  0  0
 23 27  1  0  0  0  0
 33 35  1  0  0  0  0
 36 37  2  0  0  0  0
M  END
>  <MolRegNo>
1354429

>  <m>
=

>  <Value>
22

>  <Unit>
nM

>  <Type>
IC50

>  <pValue>
7.66

>  <Ligand Efficiency>
0

>  <Binding Efficiency>
0

>  <Surface Efficiency>
0

>  <Assay Index>
663293

>  <Assay Category>


>  <Assay Organism>
Homo sapiens

>  <Target ID>
17045

>  <Target Name>
Cytochrome P450 3A4

>  <Target Organism>
Homo sapiens

>  <Target Description>
Target is a single protein chain

>  <Sequence Accession>
P08684

>  <Reference>
Bioorg Med Chem Lett 22 (15), 4998-5002 (2012)

>  <Pubmed ID>
22765892

>  <DOI>
10.1016/j.bmcl.2012.06.022

$$$$
1354883
Actelion Java MolfileCreator 1.0

 37 40  0  0  0  0  0  0  0  0999 V2000
    0.0000   -0.0000   -0.0000 S   0  0  0  0  0  0  0  0  0  0  0  0
   -0.3195    1.4794   -0.0000 C   0  0  0  0  0  0  0  0  0  0  0  0
    1.4794   -0.1420   -0.0000 C   0  0  0  0  0  0  0  0  0  0  0  0
    0.9705    2.2368   -0.0000 C   0  0  0  0  0  0  0  0  0  0  0  0
   -1.6214    2.2368   -0.0000 C   0  0  0  0  0  0  0  0  0  0  0  0
    2.0711    1.2309   -0.0000 N   0  0  0  0  0  0  0  0  0  0  0  0
    0.9586    3.7517   -0.0000 C   0  0  0  0  0  0  0  0  0  0  0  0
   -1.6332    3.7517   -0.0000 C   0  0  0  0  0  0  0  0  0  0  0  0
   -0.3432    4.4973   -0.0000 C   0  0  0  0  0  0  0  0  0  0  0  0
   -2.9469    4.5092   -0.0000 C   0  0  0  0  0  0  0  0  0  0  0  0
   -2.9588    6.0122   -0.0000 O   0  0  0  0  0  0  0  0  0  0  0  0
   -4.2606    3.7754   -0.0000 N   0  0  0  0  0  0  0  0  0  0  0  0
   -5.5743    4.5329   -0.0000 C   0  0  0  0  0  0  0  0  0  0  0  0
   -4.2725    2.2960   -0.0000 C   0  0  0  0  0  0  0  0  0  0  0  0
   -6.8880    3.7991   -0.0000 C   0  0  0  0  0  0  0  0  0  0  0  0
   -5.1720    1.1007   -0.0000 C   0  0  0  0  0  0  0  0  0  0  0  0
   -6.8999    2.3197   -0.0000 O   0  0  0  0  0  0  0  0  0  0  0  0
   -8.1899    4.5565   -0.0000 C   0  0  0  0  0  0  0  0  0  0  0  0
   -4.5920   -0.2604   -0.0000 C   0  0  0  0  0  0  0  0  0  0  0  0
   -6.6750    1.2782   -0.0000 C   0  0  0  0  0  0  0  0  0  0  0  0
   -9.5036    3.8227   -0.0000 N   0  0  0  0  0  0  0  0  0  0  0  0
   -8.2017    6.0596   -0.0000 C   0  0  0  0  0  0  0  0  0  0  0  0
  -10.8173    4.5802   -0.0000 C   0  0  0  0  0  0  0  0  0  0  0  0
   -6.9236    6.8170   -0.0000 C   0  0  0  0  0  0  0  0  0  0  0  0
  -10.8291    6.0833   -0.0000 O   0  0  0  0  0  0  0  0  0  0  0  0
  -12.1310    3.8464   -0.0000 O   0  0  0  0  0  0  0  0  0  0  0  0
   -5.6335    6.0714   -0.0000 C   0  0  0  0  0  0  0  0  0  0  0  0
   -6.9354    8.3201   -0.0000 C   0  0  0  0  0  0  0  0  0  0  0  0
  -13.4447    4.6039   -0.0000 C   0  0  0  0  0  0  0  0  0  0  0  0
   -4.3553    6.8289   -0.0000 C   0  0  0  0  0  0  0  0  0  0  0  0
   -5.6572    9.0775   -0.0000 C   0  0  0  0  0  0  0  0  0  0  0  0
  -14.7584    3.8701   -0.0000 C   0  0  0  0  0  0  0  0  0  0  0  0
   -4.3672    8.3438   -0.0000 C   0  0  0  0  0  0  0  0  0  0  0  0
  -16.1313    4.4855   -0.0000 S   0  0  0  0  0  0  0  0  0  0  0  0
  -14.9241    2.3907   -0.0000 C   0  0  0  0  0  0  0  0  0  0  0  0
  -17.1373    3.3848   -0.0000 C   0  0  0  0  0  0  0  0  0  0  0  0
  -16.4035    2.0830   -0.0000 N   0  0  0  0  0  0  0  0  0  0  0  0
  1  2  1  0  0  0  0
  1  3  1  0  0  0  0
  2  4  2  0  0  0  0
  2  5  1  0  0  0  0
  3  6  2  0  0  0  0
  4  7  1  0  0  0  0
  5  8  2  0  0  0  0
  7  9  2  0  0  0  0
  8 10  1  0  0  0  0
 10 11  2  0  0  0  0
 10 12  1  0  0  0  0
 12 13  1  0  0  0  0
 12 14  1  0  0  0  0
 13 15  1  0  0  0  0
 14 16  1  0  0  0  0
 15 17  1  6  0  0  0
 15 18  1  0  0  0  0
 16 19  1  0  0  0  0
 16 20  1  0  0  0  0
 18 21  1  6  0  0  0
 18 22  1  0  0  0  0
 21 23  1  0  0  0  0
 22 24  1  0  0  0  0
 23 25  2  0  0  0  0
 23 26  1  0  0  0  0
 24 27  2  0  0  0  0
 24 28  1  0  0  0  0
 26 29  1  0  0  0  0
 27 30  1  0  0  0  0
 28 31  2  0  0  0  0
 29 32  1  0  0  0  0
 30 33  2  0  0  0  0
 32 34  1  0  0  0  0
 32 35  2  0  0  0  0
 34 36  1  0  0  0  0
 35 37  1  0  0  0  0
  4  6  1  0  0  0  0
  8  9  1  0  0  0  0
 31 33  1  0  0  0  0
 36 37  2  0  0  0  0
M  END
>  <MolRegNo>
1354883

>  <m>
=

>  <Value>
23

>  <Unit>
nM

>  <Type>
IC50

>  <pValue>
7.64

>  <Ligand Efficiency>
0

>  <Binding Efficiency>
0

>  <Surface Efficiency>
0

>  <Assay Index>
663293

>  <Assay Category>


>  <Assay Organism>
Homo sapiens

>  <Target ID>
17045

>  <Target Name>
Cytochrome P450 3A4

>  <Target Organism>
Homo sapiens

>  <Target Description>
Target is a single protein chain

>  <Sequence Accession>
P08684

>  <Reference>
Bioorg Med Chem Lett 22 (15), 4998-5002 (2012)

>  <Pubmed ID>
22765892

>  <DOI>
10.1016/j.bmcl.2012.06.022

$$$$
1354666
Actelion Java MolfileCreator 1.0

 42 45  0  0  0  0  0  0  0  0999 V2000
    0.0000   -0.0000   -0.0000 S   0  0  0  0  0  0  0  0  0  0  0  0
    1.4259   -0.4397   -0.0000 C   0  0  0  0  0  0  0  0  0  0  0  0
   -0.8912   -1.0457   -0.0000 C   0  0  0  0  0  0  0  0  0  0  0  0
    1.4259   -1.9369   -0.0000 C   0  0  0  0  0  0  0  0  0  0  0  0
    2.7925    0.2377   -0.0000 C   0  0  0  0  0  0  0  0  0  0  0  0
   -0.0119   -2.4241   -0.0000 N   0  0  0  0  0  0  0  0  0  0  0  0
    4.0877   -0.4991   -0.0000 O   0  0  0  0  0  0  0  0  0  0  0  0
    5.3829    0.2614   -0.0000 C   0  0  0  0  0  0  0  0  0  0  0  0
    5.3711    1.7824   -0.0000 O   0  0  0  0  0  0  0  0  0  0  0  0
    6.6782   -0.4753   -0.0000 N   0  0  0  0  0  0  0  0  0  0  0  0
    7.9615    0.2852   -0.0000 C   0  0  0  0  0  0  0  0  0  0  0  0
    9.2568   -0.4515   -0.0000 C   0  0  0  0  0  0  0  0  0  0  0  0
    7.9497    1.8062   -0.0000 C   0  0  0  0  0  0  0  0  0  0  0  0
    9.2449   -1.9488   -0.0000 O   0  0  0  0  0  0  0  0  0  0  0  0
   10.5520    0.3090   -0.0000 C   0  0  0  0  0  0  0  0  0  0  0  0
    9.2449    2.5786   -0.0000 C   0  0  0  0  0  0  0  0  0  0  0  0
   11.8472   -0.4278   -0.0000 N   0  0  0  0  0  0  0  0  0  0  0  0
   10.5401    1.8300   -0.0000 C   0  0  0  0  0  0  0  0  0  0  0  0
    9.2330    4.0877   -0.0000 C   0  0  0  0  0  0  0  0  0  0  0  0
   13.1425    0.3327   -0.0000 C   0  0  0  0  0  0  0  0  0  0  0  0
   11.8354   -1.9250   -0.0000 C   0  0  0  0  0  0  0  0  0  0  0  0
   11.8354    2.6024   -0.0000 C   0  0  0  0  0  0  0  0  0  0  0  0
   10.5164    4.8482   -0.0000 C   0  0  0  0  0  0  0  0  0  0  0  0
   13.1306    1.8537   -0.0000 O   0  0  0  0  0  0  0  0  0  0  0  0
   14.4377   -0.4040   -0.0000 C   0  0  0  0  0  0  0  0  0  0  0  0
   10.9204   -3.1252   -0.0000 C   0  0  0  0  0  0  0  0  0  0  0  0
   11.8235    4.1234   -0.0000 C   0  0  0  0  0  0  0  0  0  0  0  0
   14.4258   -1.9013   -0.0000 C   0  0  0  0  0  0  0  0  0  0  0  0
   15.7211    0.3565   -0.0000 C   0  0  0  0  0  0  0  0  0  0  0  0
   11.5145   -4.4917   -0.0000 C   0  0  0  0  0  0  0  0  0  0  0  0
    9.4112   -2.9470   -0.0000 C   0  0  0  0  0  0  0  0  0  0  0  0
   13.1068    4.8839   -0.0000 F   0  0  0  0  0  0  0  0  0  0  0  0
   15.7211   -2.6380   -0.0000 C   0  0  0  0  0  0  0  0  0  0  0  0
   17.0163   -0.3803   -0.0000 C   0  0  0  0  0  0  0  0  0  0  0  0
   16.0181   -4.0996   -0.0000 O   0  0  0  0  0  0  0  0  0  0  0  0
   17.0163   -1.8775   -0.0000 C   0  0  0  0  0  0  0  0  0  0  0  0
   17.5035   -4.2422   -0.0000 C   0  0  0  0  0  0  0  0  0  0  0  0
   18.1095   -2.8757   -0.0000 N   0  0  0  0  0  0  0  0  0  0  0  0
   18.2402   -5.5374   -0.0000 N   0  0  0  0  0  0  0  0  0  0  0  0
   19.7375   -5.5255   -0.0000 C   0  0  0  0  0  0  0  0  0  0  0  0
   17.4797   -6.8327   -0.0000 C   0  0  0  0  0  0  0  0  0  0  0  0
   20.4861   -6.8208   -0.0000 C   0  0  0  0  0  0  0  0  0  0  0  0
  1  2  1  0  0  0  0
  1  3  1  0  0  0  0
  2  4  2  0  0  0  0
  2  5  1  0  0  0  0
  3  6  2  0  0  0  0
  5  7  1  0  0  0  0
  7  8  1  0  0  0  0
  8  9  2  0  0  0  0
  8 10  1  0  0  0  0
 11 10  1  6  0  0  0
 11 12  1  0  0  0  0
 11 13  1  0  0  0  0
 12 14  1  6  0  0  0
 12 15  1  0  0  0  0
 13 16  1  0  0  0  0
 15 17  1  0  0  0  0
 16 18  2  0  0  0  0
 16 19  1  0  0  0  0
 17 20  1  0  0  0  0
 17 21  1  0  0  0  0
 18 22  1  0  0  0  0
 19 23  2  0  0  0  0
 20 24  2  0  0  0  0
 20 25  1  0  0  0  0
 21 26  1  0  0  0  0
 22 27  2  0  0  0  0
 25 28  2  0  0  0  0
 25 29  1  0  0  0  0
 26 30  1  0  0  0  0
 26 31  1  0  0  0  0
 27 32  1  0  0  0  0
 28 33  1  0  0  0  0
 29 34  2  0  0  0  0
 33 35  1  0  0  0  0
 33 36  2  0  0  0  0
 35 37  1  0  0  0  0
 36 38  1  0  0  0  0
 37 39  1  0  0  0  0
 39 40  1  0  0  0  0
 39 41  1  0  0  0  0
 40 42  1  0  0  0  0
  4  6  1  0  0  0  0
 23 27  1  0  0  0  0
 34 36  1  0  0  0  0
 37 38  2  0  0  0  0
M  END
>  <MolRegNo>
1354666

>  <m>
=

>  <Value>
23

>  <Unit>
nM

>  <Type>
IC50

>  <pValue>
7.64

>  <Ligand Efficiency>
0

>  <Binding Efficiency>
0

>  <Surface Efficiency>
0

>  <Assay Index>
663293

>  <Assay Category>


>  <Assay Organism>
Homo sapiens

>  <Target ID>
17045

>  <Target Name>
Cytochrome P450 3A4

>  <Target Organism>
Homo sapiens

>  <Target Description>
Target is a single protein chain

>  <Sequence Accession>
P08684

>  <Reference>
Bioorg Med Chem Lett 22 (15), 4998-5002 (2012)

>  <Pubmed ID>
22765892

>  <DOI>
10.1016/j.bmcl.2012.06.022

$$$$
1354671
Actelion Java MolfileCreator 1.0

 43 47  0  0  0  0  0  0  0  0999 V2000
    0.0000   -0.0000   -0.0000 S   0  0  0  0  0  0  0  0  0  0  0  0
    1.3662   -0.6059   -0.0000 C   0  0  0  0  0  0  0  0  0  0  0  0
   -1.0217   -1.1167   -0.0000 C   0  0  0  0  0  0  0  0  0  0  0  0
    1.1999   -2.0909   -0.0000 C   0  0  0  0  0  0  0  0  0  0  0  0
    2.6611    0.1663   -0.0000 C   0  0  0  0  0  0  0  0  0  0  0  0
   -0.2732   -2.4116   -0.0000 N   0  0  0  0  0  0  0  0  0  0  0  0
    3.9560   -0.5821   -0.0000 O   0  0  0  0  0  0  0  0  0  0  0  0
    5.2390    0.1901   -0.0000 C   0  0  0  0  0  0  0  0  0  0  0  0
    5.2272    1.7107   -0.0000 O   0  0  0  0  0  0  0  0  0  0  0  0
    6.5340   -0.5584   -0.0000 N   0  0  0  0  0  0  0  0  0  0  0  0
    7.8289    0.2138   -0.0000 C   0  0  0  0  0  0  0  0  0  0  0  0
    9.1238   -0.5346   -0.0000 C   0  0  0  0  0  0  0  0  0  0  0  0
    7.8170    1.7345   -0.0000 C   0  0  0  0  0  0  0  0  0  0  0  0
    9.1119   -2.0315   -0.0000 O   0  0  0  0  0  0  0  0  0  0  0  0
   10.4187    0.2376   -0.0000 C   0  0  0  0  0  0  0  0  0  0  0  0
    9.1119    2.4948   -0.0000 C   0  0  0  0  0  0  0  0  0  0  0  0
   11.7136   -0.5108   -0.0000 N   0  0  0  0  0  0  0  0  0  0  0  0
   10.4068    1.7463   -0.0000 C   0  0  0  0  0  0  0  0  0  0  0  0
    9.1000    4.0035   -0.0000 C   0  0  0  0  0  0  0  0  0  0  0  0
   13.0085    0.2614   -0.0000 C   0  0  0  0  0  0  0  0  0  0  0  0
   11.7017   -2.0077   -0.0000 C   0  0  0  0  0  0  0  0  0  0  0  0
   11.7017    2.5067   -0.0000 C   0  0  0  0  0  0  0  0  0  0  0  0
   10.3831    4.7757   -0.0000 C   0  0  0  0  0  0  0  0  0  0  0  0
   12.9966    1.7820   -0.0000 O   0  0  0  0  0  0  0  0  0  0  0  0
   14.3034   -0.4871   -0.0000 C   0  0  0  0  0  0  0  0  0  0  0  0
   10.7870   -3.2076   -0.0000 C   0  0  0  0  0  0  0  0  0  0  0  0
   11.6898    4.0273   -0.0000 C   0  0  0  0  0  0  0  0  0  0  0  0
   14.2915   -1.9839   -0.0000 C   0  0  0  0  0  0  0  0  0  0  0  0
   15.5865    0.2851   -0.0000 C   0  0  0  0  0  0  0  0  0  0  0  0
   11.3810   -4.5738   -0.0000 C   0  0  0  0  0  0  0  0  0  0  0  0
    9.2782   -3.0294   -0.0000 C   0  0  0  0  0  0  0  0  0  0  0  0
   15.5746   -2.7205   -0.0000 C   0  0  0  0  0  0  0  0  0  0  0  0
   16.8814   -0.4514   -0.0000 C   0  0  0  0  0  0  0  0  0  0  0  0
   15.8835   -4.1817   -0.0000 O   0  0  0  0  0  0  0  0  0  0  0  0
   16.8695   -1.9602   -0.0000 C   0  0  0  0  0  0  0  0  0  0  0  0
   17.3684   -4.3243   -0.0000 C   0  0  0  0  0  0  0  0  0  0  0  0
   17.9743   -2.9581   -0.0000 N   0  0  0  0  0  0  0  0  0  0  0  0
   18.1050   -5.6192   -0.0000 C   0  0  0  0  0  0  0  0  0  0  0  0
   17.3328   -6.9022   -0.0000 C   0  0  0  0  0  0  0  0  0  0  0  0
   19.5900   -5.6073   -0.0000 C   0  0  0  0  0  0  0  0  0  0  0  0
   18.0694   -8.1971   -0.0000 C   0  0  0  0  0  0  0  0  0  0  0  0
   20.3265   -6.8904   -0.0000 C   0  0  0  0  0  0  0  0  0  0  0  0
   19.5662   -8.1853   -0.0000 C   0  0  0  0  0  0  0  0  0  0  0  0
  1  2  1  0  0  0  0
  1  3  1  0  0  0  0
  2  4  2  0  0  0  0
  2  5  1  0  0  0  0
  3  6  2  0  0  0  0
  5  7  1  0  0  0  0
  7  8  1  0  0  0  0
  8  9  2  0  0  0  0
  8 10  1  0  0  0  0
 11 10  1  6  0  0  0
 11 12  1  0  0  0  0
 11 13  1  0  0  0  0
 12 14  1  6  0  0  0
 12 15  1  0  0  0  0
 13 16  1  0  0  0  0
 15 17  1  0  0  0  0
 16 18  2  0  0  0  0
 16 19  1  0  0  0  0
 17 20  1  0  0  0  0
 17 21  1  0  0  0  0
 18 22  1  0  0  0  0
 19 23  2  0  0  0  0
 20 24  2  0  0  0  0
 20 25  1  0  0  0  0
 21 26  1  0  0  0  0
 22 27  2  0  0  0  0
 25 28  2  0  0  0  0
 25 29  1  0  0  0  0
 26 30  1  0  0  0  0
 26 31  1  0  0  0  0
 28 32  1  0  0  0  0
 29 33  2  0  0  0  0
 32 34  1  0  0  0  0
 32 35  2  0  0  0  0
 34 36  1  0  0  0  0
 35 37  1  0  0  0  0
 36 38  1  0  0  0  0
 38 39  2  0  0  0  0
 38 40  1  0  0  0  0
 39 41  1  0  0  0  0
 40 42  2  0  0  0  0
 41 43  2  0  0  0  0
  4  6  1  0  0  0  0
 23 27  1  0  0  0  0
 33 35  1  0  0  0  0
 36 37  2  0  0  0  0
 42 43  1  0  0  0  0
M  END
>  <MolRegNo>
1354671

>  <m>
=

>  <Value>
24

>  <Unit>
nM

>  <Type>
IC50

>  <pValue>
7.62

>  <Ligand Efficiency>
0

>  <Binding Efficiency>
0

>  <Surface Efficiency>
0

>  <Assay Index>
663293

>  <Assay Category>


>  <Assay Organism>
Homo sapiens

>  <Target ID>
17045

>  <Target Name>
Cytochrome P450 3A4

>  <Target Organism>
Homo sapiens

>  <Target Description>
Target is a single protein chain

>  <Sequence Accession>
P08684

>  <Reference>
Bioorg Med Chem Lett 22 (15), 4998-5002 (2012)

>  <Pubmed ID>
22765892

>  <DOI>
10.1016/j.bmcl.2012.06.022

$$$$
1354428
Actelion Java MolfileCreator 1.0

 43 47  0  0  0  0  0  0  0  0999 V2000
    0.0000   -0.0000   -0.0000 S   0  0  0  0  0  0  0  0  0  0  0  0
    1.3662   -0.6059   -0.0000 C   0  0  0  0  0  0  0  0  0  0  0  0
   -1.0217   -1.1167   -0.0000 C   0  0  0  0  0  0  0  0  0  0  0  0
    1.1999   -2.0909   -0.0000 C   0  0  0  0  0  0  0  0  0  0  0  0
    2.6611    0.1663   -0.0000 C   0  0  0  0  0  0  0  0  0  0  0  0
   -0.2732   -2.4116   -0.0000 N   0  0  0  0  0  0  0  0  0  0  0  0
    3.9560   -0.5821   -0.0000 O   0  0  0  0  0  0  0  0  0  0  0  0
    5.2390    0.1901   -0.0000 C   0  0  0  0  0  0  0  0  0  0  0  0
    5.2272    1.7107   -0.0000 O   0  0  0  0  0  0  0  0  0  0  0  0
    6.5340   -0.5584   -0.0000 N   0  0  0  0  0  0  0  0  0  0  0  0
    7.8289    0.2138   -0.0000 C   0  0  0  0  0  0  0  0  0  0  0  0
    9.1238   -0.5346   -0.0000 C   0  0  0  0  0  0  0  0  0  0  0  0
    7.8170    1.7345   -0.0000 C   0  0  0  0  0  0  0  0  0  0  0  0
    9.1119   -2.0315   -0.0000 O   0  0  0  0  0  0  0  0  0  0  0  0
   10.4187    0.2376   -0.0000 C   0  0  0  0  0  0  0  0  0  0  0  0
    9.1119    2.4948   -0.0000 C   0  0  0  0  0  0  0  0  0  0  0  0
   11.7136   -0.5108   -0.0000 N   0  0  0  0  0  0  0  0  0  0  0  0
   10.4068    1.7463   -0.0000 C   0  0  0  0  0  0  0  0  0  0  0  0
    9.1000    4.0035   -0.0000 C   0  0  0  0  0  0  0  0  0  0  0  0
   13.0085    0.2614   -0.0000 C   0  0  0  0  0  0  0  0  0  0  0  0
   11.7017   -2.0077   -0.0000 C   0  0  0  0  0  0  0  0  0  0  0  0
   11.7017    2.5067   -0.0000 C   0  0  0  0  0  0  0  0  0  0  0  0
   10.3831    4.7757   -0.0000 C   0  0  0  0  0  0  0  0  0  0  0  0
   12.9966    1.7820   -0.0000 O   0  0  0  0  0  0  0  0  0  0  0  0
   14.3034   -0.4871   -0.0000 C   0  0  0  0  0  0  0  0  0  0  0  0
   10.7870   -3.2076   -0.0000 C   0  0  0  0  0  0  0  0  0  0  0  0
   11.6898    4.0273   -0.0000 C   0  0  0  0  0  0  0  0  0  0  0  0
   14.2915   -1.9839   -0.0000 C   0  0  0  0  0  0  0  0  0  0  0  0
   15.5865    0.2851   -0.0000 C   0  0  0  0  0  0  0  0  0  0  0  0
   11.3810   -4.5738   -0.0000 C   0  0  0  0  0  0  0  0  0  0  0  0
    9.2782   -3.0294   -0.0000 C   0  0  0  0  0  0  0  0  0  0  0  0
   15.5746   -2.7205   -0.0000 C   0  0  0  0  0  0  0  0  0  0  0  0
   16.8814   -0.4514   -0.0000 C   0  0  0  0  0  0  0  0  0  0  0  0
   15.8835   -4.1817   -0.0000 O   0  0  0  0  0  0  0  0  0  0  0  0
   16.8695   -1.9602   -0.0000 C   0  0  0  0  0  0  0  0  0  0  0  0
   17.3684   -4.3243   -0.0000 C   0  0  0  0  0  0  0  0  0  0  0  0
   17.9743   -2.9581   -0.0000 N   0  0  0  0  0  0  0  0  0  0  0  0
   18.1050   -5.6192   -0.0000 C   0  0  0  0  0  0  0  0  0  0  0  0
   17.3328   -6.9022   -0.0000 C   0  0  0  0  0  0  0  0  0  0  0  0
   19.5900   -5.6073   -0.0000 C   0  0  0  0  0  0  0  0  0  0  0  0
   18.0694   -8.1971   -0.0000 C   0  0  0  0  0  0  0  0  0  0  0  0
   20.3265   -6.8904   -0.0000 C   0  0  0  0  0  0  0  0  0  0  0  0
   19.5662   -8.1853   -0.0000 N   0  0  0  0  0  0  0  0  0  0  0  0
  1  2  1  0  0  0  0
  1  3  1  0  0  0  0
  2  4  2  0  0  0  0
  2  5  1  0  0  0  0
  3  6  2  0  0  0  0
  5  7  1  0  0  0  0
  7  8  1  0  0  0  0
  8  9  2  0  0  0  0
  8 10  1  0  0  0  0
 11 10  1  6  0  0  0
 11 12  1  0  0  0  0
 11 13  1  0  0  0  0
 12 14  1  6  0  0  0
 12 15  1  0  0  0  0
 13 16  1  0  0  0  0
 15 17  1  0  0  0  0
 16 18  2  0  0  0  0
 16 19  1  0  0  0  0
 17 20  1  0  0  0  0
 17 21  1  0  0  0  0
 18 22  1  0  0  0  0
 19 23  2  0  0  0  0
 20 24  2  0  0  0  0
 20 25  1  0  0  0  0
 21 26  1  0  0  0  0
 22 27  2  0  0  0  0
 25 28  2  0  0  0  0
 25 29  1  0  0  0  0
 26 30  1  0  0  0  0
 26 31  1  0  0  0  0
 28 32  1  0  0  0  0
 29 33  2  0  0  0  0
 32 34  1  0  0  0  0
 32 35  2  0  0  0  0
 34 36  1  0  0  0  0
 35 37  1  0  0  0  0
 36 38  1  0  0  0  0
 38 39  2  0  0  0  0
 38 40  1  0  0  0  0
 39 41  1  0  0  0  0
 40 42  2  0  0  0  0
 41 43  2  0  0  0  0
  4  6  1  0  0  0  0
 23 27  1  0  0  0  0
 33 35  1  0  0  0  0
 36 37  2  0  0  0  0
 42 43  1  0  0  0  0
M  END
>  <MolRegNo>
1354428

>  <m>
=

>  <Value>
24

>  <Unit>
nM

>  <Type>
IC50

>  <pValue>
7.62

>  <Ligand Efficiency>
0

>  <Binding Efficiency>
0

>  <Surface Efficiency>
0

>  <Assay Index>
663293

>  <Assay Category>


>  <Assay Organism>
Homo sapiens

>  <Target ID>
17045

>  <Target Name>
Cytochrome P450 3A4

>  <Target Organism>
Homo sapiens

>  <Target Description>
Target is a single protein chain

>  <Sequence Accession>
P08684

>  <Reference>
Bioorg Med Chem Lett 22 (15), 4998-5002 (2012)

>  <Pubmed ID>
22765892

>  <DOI>
10.1016/j.bmcl.2012.06.022

$$$$
1353274
Actelion Java MolfileCreator 1.0

 45 50  0  0  0  0  0  0  0  0999 V2000
    0.0000   -0.0000   -0.0000 S   0  0  0  0  0  0  0  0  0  0  0  0
    1.4280   -0.4403   -0.0000 C   0  0  0  0  0  0  0  0  0  0  0  0
   -0.8925   -1.0472   -0.0000 C   0  0  0  0  0  0  0  0  0  0  0  0
    1.4161   -1.9397   -0.0000 C   0  0  0  0  0  0  0  0  0  0  0  0
    2.7846    0.2380   -0.0000 C   0  0  0  0  0  0  0  0  0  0  0  0
   -0.0119   -2.4276   -0.0000 N   0  0  0  0  0  0  0  0  0  0  0  0
    4.0935   -0.4998   -0.0000 O   0  0  0  0  0  0  0  0  0  0  0  0
    5.3787    0.2618   -0.0000 C   0  0  0  0  0  0  0  0  0  0  0  0
    5.3668    1.7850   -0.0000 O   0  0  0  0  0  0  0  0  0  0  0  0
    6.6639   -0.4760   -0.0000 N   0  0  0  0  0  0  0  0  0  0  0  0
    7.9610    0.2856   -0.0000 C   0  0  0  0  0  0  0  0  0  0  0  0
    9.2462   -0.4522   -0.0000 C   0  0  0  0  0  0  0  0  0  0  0  0
    7.9491    1.8088   -0.0000 C   0  0  0  0  0  0  0  0  0  0  0  0
    9.2343   -1.9516   -0.0000 O   0  0  0  0  0  0  0  0  0  0  0  0
   10.5551    0.3094   -0.0000 C   0  0  0  0  0  0  0  0  0  0  0  0
    9.2343    2.5823   -0.0000 C   0  0  0  0  0  0  0  0  0  0  0  0
   11.8522   -0.4284   -0.0000 N   0  0  0  0  0  0  0  0  0  0  0  0
   10.5551    1.8326   -0.0000 C   0  0  0  0  0  0  0  0  0  0  0  0
    9.2343    4.0935   -0.0000 C   0  0  0  0  0  0  0  0  0  0  0  0
   13.1493    0.3332   -0.0000 C   0  0  0  0  0  0  0  0  0  0  0  0
   11.8403   -1.9278   -0.0000 C   0  0  0  0  0  0  0  0  0  0  0  0
   11.8522    2.6061   -0.0000 C   0  0  0  0  0  0  0  0  0  0  0  0
   10.5313    4.8551   -0.0000 C   0  0  0  0  0  0  0  0  0  0  0  0
   13.1374    1.8564   -0.0000 O   0  0  0  0  0  0  0  0  0  0  0  0
   14.4464   -0.4046   -0.0000 C   0  0  0  0  0  0  0  0  0  0  0  0
   11.0668   -3.2130   -0.0000 C   0  0  0  0  0  0  0  0  0  0  0  0
   11.8403    4.1292   -0.0000 C   0  0  0  0  0  0  0  0  0  0  0  0
   14.4345   -1.9040   -0.0000 C   0  0  0  0  0  0  0  0  0  0  0  0
   15.7316    0.3570   -0.0000 C   0  0  0  0  0  0  0  0  0  0  0  0
    9.5556   -3.1892   -0.0000 C   0  0  0  0  0  0  0  0  0  0  0  0
   11.7927   -4.4981   -0.0000 C   0  0  0  0  0  0  0  0  0  0  0  0
   15.7316   -2.6418   -0.0000 C   0  0  0  0  0  0  0  0  0  0  0  0
   17.0287   -0.3808   -0.0000 C   0  0  0  0  0  0  0  0  0  0  0  0
    8.7702   -4.4624   -0.0000 C   0  0  0  0  0  0  0  0  0  0  0  0
   11.0073   -5.7833   -0.0000 C   0  0  0  0  0  0  0  0  0  0  0  0
   16.0291   -4.1054   -0.0000 O   0  0  0  0  0  0  0  0  0  0  0  0
   17.0287   -1.8802   -0.0000 C   0  0  0  0  0  0  0  0  0  0  0  0
    9.4961   -5.7595   -0.0000 C   0  0  0  0  0  0  0  0  0  0  0  0
   17.5165   -4.2482   -0.0000 C   0  0  0  0  0  0  0  0  0  0  0  0
   18.1234   -2.8798   -0.0000 N   0  0  0  0  0  0  0  0  0  0  0  0
   18.2543   -5.5334   -0.0000 N   0  0  0  0  0  0  0  0  0  0  0  0
   17.6355   -6.8900   -0.0000 C   0  0  0  0  0  0  0  0  0  0  0  0
   19.7418   -5.6762   -0.0000 C   0  0  0  0  0  0  0  0  0  0  0  0
   18.7422   -7.8777   -0.0000 C   0  0  0  0  0  0  0  0  0  0  0  0
   20.0393   -7.1280   -0.0000 C   0  0  0  0  0  0  0  0  0  0  0  0
  1  2  1  0  0  0  0
  1  3  1  0  0  0  0
  2  4  2  0  0  0  0
  2  5  1  0  0  0  0
  3  6  2  0  0  0  0
  5  7  1  0  0  0  0
  7  8  1  0  0  0  0
  8  9  2  0  0  0  0
  8 10  1  0  0  0  0
 11 10  1  6  0  0  0
 11 12  1  0  0  0  0
 11 13  1  0  0  0  0
 12 14  1  6  0  0  0
 12 15  1  0  0  0  0
 13 16  1  0  0  0  0
 15 17  1  0  0  0  0
 16 18  2  0  0  0  0
 16 19  1  0  0  0  0
 17 20  1  0  0  0  0
 17 21  1  0  0  0  0
 18 22  1  0  0  0  0
 19 23  2  0  0  0  0
 20 24  2  0  0  0  0
 20 25  1  0  0  0  0
 21 26  1  0  0  0  0
 22 27  2  0  0  0  0
 25 28  2  0  0  0  0
 25 29  1  0  0  0  0
 26 30  1  0  0  0  0
 26 31  1  0  0  0  0
 28 32  1  0  0  0  0
 29 33  2  0  0  0  0
 30 34  1  0  0  0  0
 31 35  1  0  0  0  0
 32 36  1  0  0  0  0
 32 37  2  0  0  0  0
 34 38  1  0  0  0  0
 36 39  1  0  0  0  0
 37 40  1  0  0  0  0
 39 41  1  0  0  0  0
 41 42  1  0  0  0  0
 41 43  1  0  0  0  0
 42 44  1  0  0  0  0
 43 45  1  0  0  0  0
  4  6  1  0  0  0  0
 23 27  1  0  0  0  0
 33 37  1  0  0  0  0
 35 38  1  0  0  0  0
 39 40  2  0  0  0  0
 44 45  1  0  0  0  0
M  END
>  <MolRegNo>
1353274

>  <m>
=

>  <Value>
26

>  <Unit>
nM

>  <Type>
IC50

>  <pValue>
7.58

>  <Ligand Efficiency>
0

>  <Binding Efficiency>
0

>  <Surface Efficiency>
0

>  <Assay Index>
663293

>  <Assay Category>


>  <Assay Organism>
Homo sapiens

>  <Target ID>
17045

>  <Target Name>
Cytochrome P450 3A4

>  <Target Organism>
Homo sapiens

>  <Target Description>
Target is a single protein chain

>  <Sequence Accession>
P08684

>  <Reference>
Bioorg Med Chem Lett 22 (15), 4998-5002 (2012)

>  <Pubmed ID>
22765892

>  <DOI>
10.1016/j.bmcl.2012.06.022

$$$$
1353275
Actelion Java MolfileCreator 1.0

 44 48  0  0  0  0  0  0  0  0999 V2000
    0.0000   -0.0000   -0.0000 S   0  0  0  0  0  0  0  0  0  0  0  0
    1.4280   -0.4403   -0.0000 C   0  0  0  0  0  0  0  0  0  0  0  0
   -0.8925   -1.0472   -0.0000 C   0  0  0  0  0  0  0  0  0  0  0  0
    1.4280   -1.9398   -0.0000 C   0  0  0  0  0  0  0  0  0  0  0  0
    2.7966    0.2380   -0.0000 C   0  0  0  0  0  0  0  0  0  0  0  0
    0.0000   -2.4277   -0.0000 N   0  0  0  0  0  0  0  0  0  0  0  0
    4.0937   -0.4998   -0.0000 O   0  0  0  0  0  0  0  0  0  0  0  0
    5.3909    0.2618   -0.0000 C   0  0  0  0  0  0  0  0  0  0  0  0
    5.3790    1.7851   -0.0000 O   0  0  0  0  0  0  0  0  0  0  0  0
    6.6880   -0.4760   -0.0000 N   0  0  0  0  0  0  0  0  0  0  0  0
    7.9732    0.2856   -0.0000 C   0  0  0  0  0  0  0  0  0  0  0  0
    9.2704   -0.4522   -0.0000 C   0  0  0  0  0  0  0  0  0  0  0  0
    7.9613    1.8089   -0.0000 C   0  0  0  0  0  0  0  0  0  0  0  0
    9.2585   -1.9517   -0.0000 O   0  0  0  0  0  0  0  0  0  0  0  0
   10.5675    0.3094   -0.0000 C   0  0  0  0  0  0  0  0  0  0  0  0
    9.2585    2.5824   -0.0000 C   0  0  0  0  0  0  0  0  0  0  0  0
   11.8647   -0.4284   -0.0000 N   0  0  0  0  0  0  0  0  0  0  0  0
   10.5556    1.8327   -0.0000 C   0  0  0  0  0  0  0  0  0  0  0  0
    9.2466    4.0937   -0.0000 C   0  0  0  0  0  0  0  0  0  0  0  0
   13.1618    0.3332   -0.0000 C   0  0  0  0  0  0  0  0  0  0  0  0
   11.8528   -1.9279   -0.0000 C   0  0  0  0  0  0  0  0  0  0  0  0
   11.8528    2.6062   -0.0000 C   0  0  0  0  0  0  0  0  0  0  0  0
   10.5318    4.8553   -0.0000 C   0  0  0  0  0  0  0  0  0  0  0  0
   13.1499    1.8565   -0.0000 O   0  0  0  0  0  0  0  0  0  0  0  0
   14.4589   -0.4046   -0.0000 C   0  0  0  0  0  0  0  0  0  0  0  0
   11.0792   -3.2131   -0.0000 C   0  0  0  0  0  0  0  0  0  0  0  0
   11.8409    4.1294   -0.0000 C   0  0  0  0  0  0  0  0  0  0  0  0
   14.4470   -1.9041   -0.0000 C   0  0  0  0  0  0  0  0  0  0  0  0
   15.7442    0.3570   -0.0000 C   0  0  0  0  0  0  0  0  0  0  0  0
    9.5679   -3.1893   -0.0000 C   0  0  0  0  0  0  0  0  0  0  0  0
   11.8052   -4.4983   -0.0000 C   0  0  0  0  0  0  0  0  0  0  0  0
   15.7442   -2.6419   -0.0000 C   0  0  0  0  0  0  0  0  0  0  0  0
   17.0413   -0.3808   -0.0000 C   0  0  0  0  0  0  0  0  0  0  0  0
    8.7944   -4.4626   -0.0000 C   0  0  0  0  0  0  0  0  0  0  0  0
   11.0197   -5.7836   -0.0000 C   0  0  0  0  0  0  0  0  0  0  0  0
   16.0417   -4.1056   -0.0000 O   0  0  0  0  0  0  0  0  0  0  0  0
   17.0413   -1.8803   -0.0000 C   0  0  0  0  0  0  0  0  0  0  0  0
    9.5203   -5.7598   -0.0000 C   0  0  0  0  0  0  0  0  0  0  0  0
   17.5292   -4.2484   -0.0000 C   0  0  0  0  0  0  0  0  0  0  0  0
   18.1361   -2.8799   -0.0000 N   0  0  0  0  0  0  0  0  0  0  0  0
   18.2670   -5.5337   -0.0000 N   0  0  0  0  0  0  0  0  0  0  0  0
   19.7546   -5.6765   -0.0000 C   0  0  0  0  0  0  0  0  0  0  0  0
   17.6482   -6.8903   -0.0000 C   0  0  0  0  0  0  0  0  0  0  0  0
   20.0521   -7.1283   -0.0000 C   0  0  0  0  0  0  0  0  0  0  0  0
  1  2  1  0  0  0  0
  1  3  1  0  0  0  0
  2  4  2  0  0  0  0
  2  5  1  0  0  0  0
  3  6  2  0  0  0  0
  5  7  1  0  0  0  0
  7  8  1  0  0  0  0
  8  9  2  0  0  0  0
  8 10  1  0  0  0  0
 11 10  1  6  0  0  0
 11 12  1  0  0  0  0
 11 13  1  0  0  0  0
 12 14  1  6  0  0  0
 12 15  1  0  0  0  0
 13 16  1  0  0  0  0
 15 17  1  0  0  0  0
 16 18  2  0  0  0  0
 16 19  1  0  0  0  0
 17 20  1  0  0  0  0
 17 21  1  0  0  0  0
 18 22  1  0  0  0  0
 19 23  2  0  0  0  0
 20 24  2  0  0  0  0
 20 25  1  0  0  0  0
 21 26  1  0  0  0  0
 22 27  2  0  0  0  0
 25 28  2  0  0  0  0
 25 29  1  0  0  0  0
 26 30  1  0  0  0  0
 26 31  1  0  0  0  0
 28 32  1  0  0  0  0
 29 33  2  0  0  0  0
 30 34  1  0  0  0  0
 31 35  1  0  0  0  0
 32 36  1  0  0  0  0
 32 37  2  0  0  0  0
 34 38  1  0  0  0  0
 36 39  1  0  0  0  0
 37 40  1  0  0  0  0
 39 41  1  0  0  0  0
 41 42  1  0  0  0  0
 41 43  1  0  0  0  0
 42 44  1  0  0  0  0
  4  6  1  0  0  0  0
 23 27  1  0  0  0  0
 33 37  1  0  0  0  0
 35 38  1  0  0  0  0
 39 40  2  0  0  0  0
M  END
>  <MolRegNo>
1353275

>  <m>
=

>  <Value>
26

>  <Unit>
nM

>  <Type>
IC50

>  <pValue>
7.58

>  <Ligand Efficiency>
0

>  <Binding Efficiency>
0

>  <Surface Efficiency>
0

>  <Assay Index>
663293

>  <Assay Category>


>  <Assay Organism>
Homo sapiens

>  <Target ID>
17045

>  <Target Name>
Cytochrome P450 3A4

>  <Target Organism>
Homo sapiens

>  <Target Description>
Target is a single protein chain

>  <Sequence Accession>
P08684

>  <Reference>
Bioorg Med Chem Lett 22 (15), 4998-5002 (2012)

>  <Pubmed ID>
22765892

>  <DOI>
10.1016/j.bmcl.2012.06.022

$$$$
1353279
Actelion Java MolfileCreator 1.0

 43 47  0  0  0  0  0  0  0  0999 V2000
    0.0000   -0.0000   -0.0000 S   0  0  0  0  0  0  0  0  0  0  0  0
    1.4288   -0.4406   -0.0000 C   0  0  0  0  0  0  0  0  0  0  0  0
   -0.8930   -1.0478   -0.0000 C   0  0  0  0  0  0  0  0  0  0  0  0
    1.4288   -1.9408   -0.0000 C   0  0  0  0  0  0  0  0  0  0  0  0
    2.7981    0.2381   -0.0000 C   0  0  0  0  0  0  0  0  0  0  0  0
    0.0000   -2.4290   -0.0000 N   0  0  0  0  0  0  0  0  0  0  0  0
    4.0959   -0.5001   -0.0000 O   0  0  0  0  0  0  0  0  0  0  0  0
    5.3938    0.2619   -0.0000 C   0  0  0  0  0  0  0  0  0  0  0  0
    5.3819    1.7860   -0.0000 O   0  0  0  0  0  0  0  0  0  0  0  0
    6.6916   -0.4763   -0.0000 N   0  0  0  0  0  0  0  0  0  0  0  0
    7.9775    0.2858   -0.0000 C   0  0  0  0  0  0  0  0  0  0  0  0
    9.2754   -0.4525   -0.0000 C   0  0  0  0  0  0  0  0  0  0  0  0
    7.9656    1.8098   -0.0000 C   0  0  0  0  0  0  0  0  0  0  0  0
    9.2635   -1.9527   -0.0000 O   0  0  0  0  0  0  0  0  0  0  0  0
   10.5732    0.3096   -0.0000 C   0  0  0  0  0  0  0  0  0  0  0  0
    9.2635    2.5838   -0.0000 C   0  0  0  0  0  0  0  0  0  0  0  0
   11.8710   -0.4286   -0.0000 N   0  0  0  0  0  0  0  0  0  0  0  0
   10.5613    1.8336   -0.0000 C   0  0  0  0  0  0  0  0  0  0  0  0
    9.2516    4.0959   -0.0000 C   0  0  0  0  0  0  0  0  0  0  0  0
   13.1689    0.3334   -0.0000 C   0  0  0  0  0  0  0  0  0  0  0  0
   11.8591   -1.9289   -0.0000 C   0  0  0  0  0  0  0  0  0  0  0  0
   11.8591    2.6076   -0.0000 C   0  0  0  0  0  0  0  0  0  0  0  0
   10.5375    4.8580   -0.0000 C   0  0  0  0  0  0  0  0  0  0  0  0
   13.1570    1.8575   -0.0000 O   0  0  0  0  0  0  0  0  0  0  0  0
   14.4667   -0.4048   -0.0000 C   0  0  0  0  0  0  0  0  0  0  0  0
   12.9069   -2.9767   -0.0000 C   0  0  0  0  0  0  0  0  0  0  0  0
   11.8472    4.1316   -0.0000 C   0  0  0  0  0  0  0  0  0  0  0  0
   14.4548   -1.9051   -0.0000 C   0  0  0  0  0  0  0  0  0  0  0  0
   15.7527    0.3572   -0.0000 C   0  0  0  0  0  0  0  0  0  0  0  0
   12.5140   -4.4174   -0.0000 C   0  0  0  0  0  0  0  0  0  0  0  0
   14.3477   -2.5719   -0.0000 C   0  0  0  0  0  0  0  0  0  0  0  0
   13.9547   -4.0245   -0.0000 C   0  0  0  0  0  0  0  0  0  0  0  0
   15.7527   -2.6433   -0.0000 C   0  0  0  0  0  0  0  0  0  0  0  0
   17.0505   -0.3810   -0.0000 C   0  0  0  0  0  0  0  0  0  0  0  0
   16.0503   -4.1078   -0.0000 O   0  0  0  0  0  0  0  0  0  0  0  0
   17.0505   -1.8813   -0.0000 C   0  0  0  0  0  0  0  0  0  0  0  0
   17.5387   -4.2507   -0.0000 C   0  0  0  0  0  0  0  0  0  0  0  0
   18.1459   -2.8814   -0.0000 N   0  0  0  0  0  0  0  0  0  0  0  0
   18.2769   -5.5366   -0.0000 N   0  0  0  0  0  0  0  0  0  0  0  0
   17.6577   -6.8940   -0.0000 C   0  0  0  0  0  0  0  0  0  0  0  0
   19.7652   -5.6795   -0.0000 C   0  0  0  0  0  0  0  0  0  0  0  0
   18.7651   -7.8823   -0.0000 C   0  0  0  0  0  0  0  0  0  0  0  0
   20.0629   -7.1322   -0.0000 C   0  0  0  0  0  0  0  0  0  0  0  0
  1  2  1  0  0  0  0
  1  3  1  0  0  0  0
  2  4  2  0  0  0  0
  2  5  1  0  0  0  0
  3  6  2  0  0  0  0
  5  7  1  0  0  0  0
  7  8  1  0  0  0  0
  8  9  2  0  0  0  0
  8 10  1  0  0  0  0
 11 10  1  6  0  0  0
 11 12  1  0  0  0  0
 11 13  1  0  0  0  0
 12 14  1  6  0  0  0
 12 15  1  0  0  0  0
 13 16  1  0  0  0  0
 15 17  1  0  0  0  0
 16 18  2  0  0  0  0
 16 19  1  0  0  0  0
 17 20  1  0  0  0  0
 17 21  1  0  0  0  0
 18 22  1  0  0  0  0
 19 23  2  0  0  0  0
 20 24  2  0  0  0  0
 20 25  1  0  0  0  0
 21 26  1  0  0  0  0
 22 27  2  0  0  0  0
 25 28  2  0  0  0  0
 25 29  1  0  0  0  0
 26 30  1  0  0  0  0
 26 31  1  0  0  0  0
 26 32  1  0  0  0  0
 28 33  1  0  0  0  0
 29 34  2  0  0  0  0
 33 35  1  0  0  0  0
 33 36  2  0  0  0  0
 35 37  1  0  0  0  0
 36 38  1  0  0  0  0
 37 39  1  0  0  0  0
 39 40  1  0  0  0  0
 39 41  1  0  0  0  0
 40 42  1  0  0  0  0
 41 43  1  0  0  0  0
  4  6  1  0  0  0  0
 23 27  1  0  0  0  0
 34 36  1  0  0  0  0
 37 38  2  0  0  0  0
 42 43  1  0  0  0  0
M  END
>  <MolRegNo>
1353279

>  <m>
=

>  <Value>
27

>  <Unit>
nM

>  <Type>
IC50

>  <pValue>
7.57

>  <Ligand Efficiency>
0

>  <Binding Efficiency>
0

>  <Surface Efficiency>
0

>  <Assay Index>
663293

>  <Assay Category>


>  <Assay Organism>
Homo sapiens

>  <Target ID>
17045

>  <Target Name>
Cytochrome P450 3A4

>  <Target Organism>
Homo sapiens

>  <Target Description>
Target is a single protein chain

>  <Sequence Accession>
P08684

>  <Reference>
Bioorg Med Chem Lett 22 (15), 4998-5002 (2012)

>  <Pubmed ID>
22765892

>  <DOI>
10.1016/j.bmcl.2012.06.022

$$$$
1353270
Actelion Java MolfileCreator 1.0

 40 43  0  0  0  0  0  0  0  0999 V2000
    0.0000   -0.0000   -0.0000 S   0  0  0  0  0  0  0  0  0  0  0  0
    1.4264   -0.4398   -0.0000 C   0  0  0  0  0  0  0  0  0  0  0  0
   -0.8915   -1.0460   -0.0000 C   0  0  0  0  0  0  0  0  0  0  0  0
    1.4264   -1.9375   -0.0000 C   0  0  0  0  0  0  0  0  0  0  0  0
    2.7933    0.2377   -0.0000 C   0  0  0  0  0  0  0  0  0  0  0  0
    0.0000   -2.4248   -0.0000 N   0  0  0  0  0  0  0  0  0  0  0  0
    4.0889   -0.4992   -0.0000 O   0  0  0  0  0  0  0  0  0  0  0  0
    5.3845    0.2615   -0.0000 C   0  0  0  0  0  0  0  0  0  0  0  0
    5.3726    1.7829   -0.0000 O   0  0  0  0  0  0  0  0  0  0  0  0
    6.6801   -0.4755   -0.0000 N   0  0  0  0  0  0  0  0  0  0  0  0
    7.9638    0.2853   -0.0000 C   0  0  0  0  0  0  0  0  0  0  0  0
    9.2594   -0.4517   -0.0000 C   0  0  0  0  0  0  0  0  0  0  0  0
    7.9519    1.8067   -0.0000 C   0  0  0  0  0  0  0  0  0  0  0  0
    9.2475   -1.9494   -0.0000 O   0  0  0  0  0  0  0  0  0  0  0  0
   10.5550    0.3090   -0.0000 C   0  0  0  0  0  0  0  0  0  0  0  0
    9.2475    2.5793   -0.0000 C   0  0  0  0  0  0  0  0  0  0  0  0
   11.8506   -0.4279   -0.0000 N   0  0  0  0  0  0  0  0  0  0  0  0
   10.5431    1.8305   -0.0000 C   0  0  0  0  0  0  0  0  0  0  0  0
    9.2357    4.0889   -0.0000 C   0  0  0  0  0  0  0  0  0  0  0  0
   13.1462    0.3328   -0.0000 C   0  0  0  0  0  0  0  0  0  0  0  0
   11.8388   -1.9256   -0.0000 C   0  0  0  0  0  0  0  0  0  0  0  0
   11.8388    2.6031   -0.0000 C   0  0  0  0  0  0  0  0  0  0  0  0
   10.5194    4.8496   -0.0000 C   0  0  0  0  0  0  0  0  0  0  0  0
   13.1344    1.8543   -0.0000 O   0  0  0  0  0  0  0  0  0  0  0  0
   14.4418   -0.4041   -0.0000 C   0  0  0  0  0  0  0  0  0  0  0  0
   11.0661   -3.2093   -0.0000 C   0  0  0  0  0  0  0  0  0  0  0  0
   11.8269    4.1245   -0.0000 C   0  0  0  0  0  0  0  0  0  0  0  0
   14.4300   -1.9018   -0.0000 C   0  0  0  0  0  0  0  0  0  0  0  0
   15.7256    0.3566   -0.0000 C   0  0  0  0  0  0  0  0  0  0  0  0
   11.7912   -4.5049   -0.0000 C   0  0  0  0  0  0  0  0  0  0  0  0
    9.5566   -3.1855   -0.0000 C   0  0  0  0  0  0  0  0  0  0  0  0
   15.7256   -2.6388   -0.0000 C   0  0  0  0  0  0  0  0  0  0  0  0
   17.0212   -0.3804   -0.0000 C   0  0  0  0  0  0  0  0  0  0  0  0
   16.0227   -4.1008   -0.0000 O   0  0  0  0  0  0  0  0  0  0  0  0
   17.0212   -1.8780   -0.0000 C   0  0  0  0  0  0  0  0  0  0  0  0
   17.5085   -4.2434   -0.0000 C   0  0  0  0  0  0  0  0  0  0  0  0
   18.1147   -2.8765   -0.0000 N   0  0  0  0  0  0  0  0  0  0  0  0
   18.2455   -5.5271   -0.0000 N   0  0  0  0  0  0  0  0  0  0  0  0
   17.4847   -6.8227   -0.0000 C   0  0  0  0  0  0  0  0  0  0  0  0
   15.9752   -6.8108   -0.0000 C   0  0  0  0  0  0  0  0  0  0  0  0
  1  2  1  0  0  0  0
  1  3  1  0  0  0  0
  2  4  2  0  0  0  0
  2  5  1  0  0  0  0
  3  6  2  0  0  0  0
  5  7  1  0  0  0  0
  7  8  1  0  0  0  0
  8  9  2  0  0  0  0
  8 10  1  0  0  0  0
 11 10  1  6  0  0  0
 11 12  1  0  0  0  0
 11 13  1  0  0  0  0
 12 14  1  6  0  0  0
 12 15  1  0  0  0  0
 13 16  1  0  0  0  0
 15 17  1  0  0  0  0
 16 18  2  0  0  0  0
 16 19  1  0  0  0  0
 17 20  1  0  0  0  0
 17 21  1  0  0  0  0
 18 22  1  0  0  0  0
 19 23  2  0  0  0  0
 20 24  2  0  0  0  0
 20 25  1  0  0  0  0
 21 26  1  0  0  0  0
 22 27  2  0  0  0  0
 25 28  2  0  0  0  0
 25 29  1  0  0  0  0
 26 30  1  0  0  0  0
 26 31  1  0  0  0  0
 28 32  1  0  0  0  0
 29 33  2  0  0  0  0
 32 34  1  0  0  0  0
 32 35  2  0  0  0  0
 34 36  1  0  0  0  0
 35 37  1  0  0  0  0
 36 38  1  0  0  0  0
 38 39  1  0  0  0  0
 39 40  1  0  0  0  0
  4  6  1  0  0  0  0
 23 27  1  0  0  0  0
 33 35  1  0  0  0  0
 36 37  2  0  0  0  0
M  END
>  <MolRegNo>
1353270

>  <m>
=

>  <Value>
28

>  <Unit>
nM

>  <Type>
IC50

>  <pValue>
7.55

>  <Ligand Efficiency>
0

>  <Binding Efficiency>
0

>  <Surface Efficiency>
0

>  <Assay Index>
663293

>  <Assay Category>


>  <Assay Organism>
Homo sapiens

>  <Target ID>
17045

>  <Target Name>
Cytochrome P450 3A4

>  <Target Organism>
Homo sapiens

>  <Target Description>
Target is a single protein chain

>  <Sequence Accession>
P08684

>  <Reference>
Bioorg Med Chem Lett 22 (15), 4998-5002 (2012)

>  <Pubmed ID>
22765892

>  <DOI>
10.1016/j.bmcl.2012.06.022

$$$$
1353546
Actelion Java MolfileCreator 1.0

 47 52  0  0  0  0  0  0  0  0999 V2000
    0.0000   -0.0000   -0.0000 S   0  0  0  0  0  0  0  0  0  0  0  0
    1.4267   -0.4399   -0.0000 C   0  0  0  0  0  0  0  0  0  0  0  0
   -0.8917   -1.0463   -0.0000 C   0  0  0  0  0  0  0  0  0  0  0  0
    1.4267   -1.9380   -0.0000 C   0  0  0  0  0  0  0  0  0  0  0  0
    2.7940    0.2378   -0.0000 C   0  0  0  0  0  0  0  0  0  0  0  0
   -0.0119   -2.4254   -0.0000 N   0  0  0  0  0  0  0  0  0  0  0  0
    4.0899   -0.4994   -0.0000 O   0  0  0  0  0  0  0  0  0  0  0  0
    5.3859    0.2616   -0.0000 C   0  0  0  0  0  0  0  0  0  0  0  0
    5.3740    1.7834   -0.0000 O   0  0  0  0  0  0  0  0  0  0  0  0
    6.6818   -0.4756   -0.0000 N   0  0  0  0  0  0  0  0  0  0  0  0
    7.9658    0.2853   -0.0000 C   0  0  0  0  0  0  0  0  0  0  0  0
    9.2618   -0.4518   -0.0000 C   0  0  0  0  0  0  0  0  0  0  0  0
    7.9539    1.8072   -0.0000 C   0  0  0  0  0  0  0  0  0  0  0  0
    9.2499   -1.9498   -0.0000 O   0  0  0  0  0  0  0  0  0  0  0  0
   10.5577    0.3091   -0.0000 C   0  0  0  0  0  0  0  0  0  0  0  0
    9.2499    2.5800   -0.0000 C   0  0  0  0  0  0  0  0  0  0  0  0
   11.8536   -0.4280   -0.0000 N   0  0  0  0  0  0  0  0  0  0  0  0
   10.5458    1.8310   -0.0000 C   0  0  0  0  0  0  0  0  0  0  0  0
    9.2380    4.0899   -0.0000 C   0  0  0  0  0  0  0  0  0  0  0  0
   13.1496    0.3329   -0.0000 C   0  0  0  0  0  0  0  0  0  0  0  0
   11.8417   -1.9261   -0.0000 C   0  0  0  0  0  0  0  0  0  0  0  0
   11.8417    2.6038   -0.0000 C   0  0  0  0  0  0  0  0  0  0  0  0
   10.5220    4.8508   -0.0000 C   0  0  0  0  0  0  0  0  0  0  0  0
   13.1377    1.8547   -0.0000 O   0  0  0  0  0  0  0  0  0  0  0  0
   14.4455   -0.4042   -0.0000 C   0  0  0  0  0  0  0  0  0  0  0  0
   10.7598   -2.9723   -0.0000 C   0  0  0  0  0  0  0  0  0  0  0  0
   11.8299    4.1256   -0.0000 C   0  0  0  0  0  0  0  0  0  0  0  0
   14.4336   -1.9023   -0.0000 C   0  0  0  0  0  0  0  0  0  0  0  0
   15.7295    0.3567   -0.0000 C   0  0  0  0  0  0  0  0  0  0  0  0
    9.2974   -2.5562   -0.0000 C   0  0  0  0  0  0  0  0  0  0  0  0
   11.1284   -4.4109   -0.0000 C   0  0  0  0  0  0  0  0  0  0  0  0
   15.7295   -2.6394   -0.0000 C   0  0  0  0  0  0  0  0  0  0  0  0
   17.0255   -0.3805   -0.0000 C   0  0  0  0  0  0  0  0  0  0  0  0
    8.2155   -3.5906   -0.0000 C   0  0  0  0  0  0  0  0  0  0  0  0
   10.0346   -5.4572   -0.0000 C   0  0  0  0  0  0  0  0  0  0  0  0
   16.0268   -4.1018   -0.0000 O   0  0  0  0  0  0  0  0  0  0  0  0
   17.0255   -1.8785   -0.0000 C   0  0  0  0  0  0  0  0  0  0  0  0
    8.5722   -5.0411   -0.0000 C   0  0  0  0  0  0  0  0  0  0  0  0
   17.5129   -4.2445   -0.0000 C   0  0  0  0  0  0  0  0  0  0  0  0
   18.1193   -2.8772   -0.0000 N   0  0  0  0  0  0  0  0  0  0  0  0
    7.0504   -5.0173   -0.0000 F   0  0  0  0  0  0  0  0  0  0  0  0
    8.1561   -6.4678   -0.0000 F   0  0  0  0  0  0  0  0  0  0  0  0
   18.2501   -5.5285   -0.0000 N   0  0  0  0  0  0  0  0  0  0  0  0
   17.6318   -6.8839   -0.0000 C   0  0  0  0  0  0  0  0  0  0  0  0
   19.7362   -5.6712   -0.0000 C   0  0  0  0  0  0  0  0  0  0  0  0
   18.7375   -7.8707   -0.0000 C   0  0  0  0  0  0  0  0  0  0  0  0
   20.0335   -7.1217   -0.0000 C   0  0  0  0  0  0  0  0  0  0  0  0
  1  2  1  0  0  0  0
  1  3  1  0  0  0  0
  2  4  2  0  0  0  0
  2  5  1  0  0  0  0
  3  6  2  0  0  0  0
  5  7  1  0  0  0  0
  7  8  1  0  0  0  0
  8  9  2  0  0  0  0
  8 10  1  0  0  0  0
 11 10  1  6  0  0  0
 11 12  1  0  0  0  0
 11 13  1  0  0  0  0
 12 14  1  6  0  0  0
 12 15  1  0  0  0  0
 13 16  1  0  0  0  0
 15 17  1  0  0  0  0
 16 18  2  0  0  0  0
 16 19  1  0  0  0  0
 17 20  1  0  0  0  0
 17 21  1  0  0  0  0
 18 22  1  0  0  0  0
 19 23  2  0  0  0  0
 20 24  2  0  0  0  0
 20 25  1  0  0  0  0
 21 26  1  0  0  0  0
 22 27  2  0  0  0  0
 25 28  2  0  0  0  0
 25 29  1  0  0  0  0
 26 30  1  0  0  0  0
 26 31  1  0  0  0  0
 28 32  1  0  0  0  0
 29 33  2  0  0  0  0
 30 34  1  0  0  0  0
 31 35  1  0  0  0  0
 32 36  1  0  0  0  0
 32 37  2  0  0  0  0
 34 38  1  0  0  0  0
 36 39  1  0  0  0  0
 37 40  1  0  0  0  0
 38 41  1  0  0  0  0
 38 42  1  0  0  0  0
 39 43  1  0  0  0  0
 43 44  1  0  0  0  0
 43 45  1  0  0  0  0
 44 46  1  0  0  0  0
 45 47  1  0  0  0  0
  4  6  1  0  0  0  0
 23 27  1  0  0  0  0
 33 37  1  0  0  0  0
 35 38  1  0  0  0  0
 39 40  2  0  0  0  0
 46 47  1  0  0  0  0
M  END
>  <MolRegNo>
1353546

>  <m>
=

>  <Value>
30

>  <Unit>
nM

>  <Type>
IC50

>  <pValue>
7.52

>  <Ligand Efficiency>
0

>  <Binding Efficiency>
0

>  <Surface Efficiency>
0

>  <Assay Index>
663293

>  <Assay Category>


>  <Assay Organism>
Homo sapiens

>  <Target ID>
17045

>  <Target Name>
Cytochrome P450 3A4

>  <Target Organism>
Homo sapiens

>  <Target Description>
Target is a single protein chain

>  <Sequence Accession>
P08684

>  <Reference>
Bioorg Med Chem Lett 22 (15), 4998-5002 (2012)

>  <Pubmed ID>
22765892

>  <DOI>
10.1016/j.bmcl.2012.06.022

$$$$
1353547
Actelion Java MolfileCreator 1.0

 42 45  0  0  0  0  0  0  0  0999 V2000
    0.0000   -0.0000   -0.0000 S   0  0  0  0  0  0  0  0  0  0  0  0
    1.4267   -0.4399   -0.0000 C   0  0  0  0  0  0  0  0  0  0  0  0
   -0.8917   -1.0462   -0.0000 C   0  0  0  0  0  0  0  0  0  0  0  0
    1.4267   -1.9379   -0.0000 C   0  0  0  0  0  0  0  0  0  0  0  0
    2.7939    0.2378   -0.0000 C   0  0  0  0  0  0  0  0  0  0  0  0
    0.0000   -2.4253   -0.0000 N   0  0  0  0  0  0  0  0  0  0  0  0
    4.0898   -0.4993   -0.0000 O   0  0  0  0  0  0  0  0  0  0  0  0
    5.3857    0.2616   -0.0000 C   0  0  0  0  0  0  0  0  0  0  0  0
    5.3738    1.7833   -0.0000 O   0  0  0  0  0  0  0  0  0  0  0  0
    6.6815   -0.4756   -0.0000 N   0  0  0  0  0  0  0  0  0  0  0  0
    7.9655    0.2853   -0.0000 C   0  0  0  0  0  0  0  0  0  0  0  0
    9.2614   -0.4518   -0.0000 C   0  0  0  0  0  0  0  0  0  0  0  0
    7.9537    1.8071   -0.0000 C   0  0  0  0  0  0  0  0  0  0  0  0
    9.2495   -1.9498   -0.0000 O   0  0  0  0  0  0  0  0  0  0  0  0
   10.5573    0.3091   -0.0000 C   0  0  0  0  0  0  0  0  0  0  0  0
    9.2495    2.5799   -0.0000 C   0  0  0  0  0  0  0  0  0  0  0  0
   11.8532   -0.4280   -0.0000 N   0  0  0  0  0  0  0  0  0  0  0  0
   10.5454    1.8309   -0.0000 C   0  0  0  0  0  0  0  0  0  0  0  0
    9.2377    4.0898   -0.0000 C   0  0  0  0  0  0  0  0  0  0  0  0
   13.1491    0.3329   -0.0000 C   0  0  0  0  0  0  0  0  0  0  0  0
   11.8413   -1.9260   -0.0000 C   0  0  0  0  0  0  0  0  0  0  0  0
   11.8413    2.6037   -0.0000 C   0  0  0  0  0  0  0  0  0  0  0  0
   10.5217    4.8507   -0.0000 C   0  0  0  0  0  0  0  0  0  0  0  0
   13.1372    1.8547   -0.0000 O   0  0  0  0  0  0  0  0  0  0  0  0
   14.4450   -0.4042   -0.0000 C   0  0  0  0  0  0  0  0  0  0  0  0
   11.0685   -3.2100   -0.0000 C   0  0  0  0  0  0  0  0  0  0  0  0
   11.8294    4.1254   -0.0000 C   0  0  0  0  0  0  0  0  0  0  0  0
   14.4331   -1.9022   -0.0000 C   0  0  0  0  0  0  0  0  0  0  0  0
   15.7290    0.3567   -0.0000 C   0  0  0  0  0  0  0  0  0  0  0  0
    9.5587   -3.1862   -0.0000 C   0  0  0  0  0  0  0  0  0  0  0  0
   11.7938   -4.5059   -0.0000 C   0  0  0  0  0  0  0  0  0  0  0  0
   15.7290   -2.6393   -0.0000 C   0  0  0  0  0  0  0  0  0  0  0  0
   17.0249   -0.3804   -0.0000 C   0  0  0  0  0  0  0  0  0  0  0  0
   16.0262   -4.1017   -0.0000 O   0  0  0  0  0  0  0  0  0  0  0  0
   17.0249   -1.8784   -0.0000 C   0  0  0  0  0  0  0  0  0  0  0  0
   17.5123   -4.2443   -0.0000 C   0  0  0  0  0  0  0  0  0  0  0  0
   18.1186   -2.8771   -0.0000 N   0  0  0  0  0  0  0  0  0  0  0  0
   18.2494   -5.5283   -0.0000 N   0  0  0  0  0  0  0  0  0  0  0  0
   17.4885   -6.8123   -0.0000 C   0  0  0  0  0  0  0  0  0  0  0  0
   19.7355   -5.5164   -0.0000 C   0  0  0  0  0  0  0  0  0  0  0  0
   15.9787   -6.8004   -0.0000 C   0  0  0  0  0  0  0  0  0  0  0  0
   14.4688   -6.7767   -0.0000 C   0  0  0  0  0  0  0  0  0  0  0  0
  1  2  1  0  0  0  0
  1  3  1  0  0  0  0
  2  4  2  0  0  0  0
  2  5  1  0  0  0  0
  3  6  2  0  0  0  0
  5  7  1  0  0  0  0
  7  8  1  0  0  0  0
  8  9  2  0  0  0  0
  8 10  1  0  0  0  0
 11 10  1  6  0  0  0
 11 12  1  0  0  0  0
 11 13  1  0  0  0  0
 12 14  1  6  0  0  0
 12 15  1  0  0  0  0
 13 16  1  0  0  0  0
 15 17  1  0  0  0  0
 16 18  2  0  0  0  0
 16 19  1  0  0  0  0
 17 20  1  0  0  0  0
 17 21  1  0  0  0  0
 18 22  1  0  0  0  0
 19 23  2  0  0  0  0
 20 24  2  0  0  0  0
 20 25  1  0  0  0  0
 21 26  1  0  0  0  0
 22 27  2  0  0  0  0
 25 28  2  0  0  0  0
 25 29  1  0  0  0  0
 26 30  1  0  0  0  0
 26 31  1  0  0  0  0
 28 32  1  0  0  0  0
 29 33  2  0  0  0  0
 32 34  1  0  0  0  0
 32 35  2  0  0  0  0
 34 36  1  0  0  0  0
 35 37  1  0  0  0  0
 36 38  1  0  0  0  0
 38 39  1  0  0  0  0
 38 40  1  0  0  0  0
 39 41  1  0  0  0  0
 41 42  3  0  0  0  0
  4  6  1  0  0  0  0
 23 27  1  0  0  0  0
 33 35  1  0  0  0  0
 36 37  2  0  0  0  0
M  END
>  <MolRegNo>
1353547

>  <m>
=

>  <Value>
30

>  <Unit>
nM

>  <Type>
IC50

>  <pValue>
7.52

>  <Ligand Efficiency>
0

>  <Binding Efficiency>
0

>  <Surface Efficiency>
0

>  <Assay Index>
663293

>  <Assay Category>


>  <Assay Organism>
Homo sapiens

>  <Target ID>
17045

>  <Target Name>
Cytochrome P450 3A4

>  <Target Organism>
Homo sapiens

>  <Target Description>
Target is a single protein chain

>  <Sequence Accession>
P08684

>  <Reference>
Bioorg Med Chem Lett 22 (15), 4998-5002 (2012)

>  <Pubmed ID>
22765892

>  <DOI>
10.1016/j.bmcl.2012.06.022

$$$$
1354676
Actelion Java MolfileCreator 1.0

 41 44  0  0  0  0  0  0  0  0999 V2000
    0.0000   -0.0000   -0.0000 S   0  0  0  0  0  0  0  0  0  0  0  0
    1.3785   -0.5942   -0.0000 C   0  0  0  0  0  0  0  0  0  0  0  0
   -1.0101   -1.1171   -0.0000 C   0  0  0  0  0  0  0  0  0  0  0  0
    1.2122   -2.0797   -0.0000 C   0  0  0  0  0  0  0  0  0  0  0  0
    2.6739    0.1664   -0.0000 C   0  0  0  0  0  0  0  0  0  0  0  0
   -0.2733   -2.4124   -0.0000 N   0  0  0  0  0  0  0  0  0  0  0  0
    3.9692   -0.5704   -0.0000 O   0  0  0  0  0  0  0  0  0  0  0  0
    5.2646    0.1901   -0.0000 C   0  0  0  0  0  0  0  0  0  0  0  0
    5.2527    1.7113   -0.0000 O   0  0  0  0  0  0  0  0  0  0  0  0
    6.5599   -0.5467   -0.0000 N   0  0  0  0  0  0  0  0  0  0  0  0
    7.8434    0.2139   -0.0000 C   0  0  0  0  0  0  0  0  0  0  0  0
    9.1387   -0.5229   -0.0000 C   0  0  0  0  0  0  0  0  0  0  0  0
    7.8315    1.7351   -0.0000 C   0  0  0  0  0  0  0  0  0  0  0  0
    9.1268   -2.0203   -0.0000 O   0  0  0  0  0  0  0  0  0  0  0  0
   10.4341    0.2377   -0.0000 C   0  0  0  0  0  0  0  0  0  0  0  0
    9.1268    2.5075   -0.0000 C   0  0  0  0  0  0  0  0  0  0  0  0
   11.7294   -0.4991   -0.0000 N   0  0  0  0  0  0  0  0  0  0  0  0
   10.4222    1.7588   -0.0000 C   0  0  0  0  0  0  0  0  0  0  0  0
    9.1150    4.0168   -0.0000 C   0  0  0  0  0  0  0  0  0  0  0  0
   13.0248    0.2614   -0.0000 C   0  0  0  0  0  0  0  0  0  0  0  0
   11.7175   -1.9965   -0.0000 C   0  0  0  0  0  0  0  0  0  0  0  0
   11.7175    2.5313   -0.0000 C   0  0  0  0  0  0  0  0  0  0  0  0
   10.3984    4.7892   -0.0000 C   0  0  0  0  0  0  0  0  0  0  0  0
   13.0129    1.7826   -0.0000 O   0  0  0  0  0  0  0  0  0  0  0  0
   14.3201   -0.4754   -0.0000 C   0  0  0  0  0  0  0  0  0  0  0  0
   10.8025   -3.1968   -0.0000 C   0  0  0  0  0  0  0  0  0  0  0  0
   11.7057    4.0524   -0.0000 C   0  0  0  0  0  0  0  0  0  0  0  0
   14.3082   -1.9727   -0.0000 C   0  0  0  0  0  0  0  0  0  0  0  0
   15.6036    0.2852   -0.0000 C   0  0  0  0  0  0  0  0  0  0  0  0
   11.3967   -4.5634   -0.0000 C   0  0  0  0  0  0  0  0  0  0  0  0
    9.2932   -3.0185   -0.0000 C   0  0  0  0  0  0  0  0  0  0  0  0
   15.6036   -2.7095   -0.0000 C   0  0  0  0  0  0  0  0  0  0  0  0
   16.8989   -0.4516   -0.0000 C   0  0  0  0  0  0  0  0  0  0  0  0
   15.9007   -4.1713   -0.0000 O   0  0  0  0  0  0  0  0  0  0  0  0
   16.8989   -1.9490   -0.0000 C   0  0  0  0  0  0  0  0  0  0  0  0
   17.3862   -4.3139   -0.0000 C   0  0  0  0  0  0  0  0  0  0  0  0
   17.9922   -2.9472   -0.0000 N   0  0  0  0  0  0  0  0  0  0  0  0
   18.1230   -5.6092   -0.0000 N   0  0  0  0  0  0  0  0  0  0  0  0
   19.6203   -5.5973   -0.0000 C   0  0  0  0  0  0  0  0  0  0  0  0
   17.3624   -6.9046   -0.0000 C   0  0  0  0  0  0  0  0  0  0  0  0
   20.3690   -6.8927   -0.0000 C   0  0  0  0  0  0  0  0  0  0  0  0
  1  2  1  0  0  0  0
  1  3  1  0  0  0  0
  2  4  2  0  0  0  0
  2  5  1  0  0  0  0
  3  6  2  0  0  0  0
  5  7  1  0  0  0  0
  7  8  1  0  0  0  0
  8  9  2  0  0  0  0
  8 10  1  0  0  0  0
 11 10  1  6  0  0  0
 11 12  1  0  0  0  0
 11 13  1  0  0  0  0
 12 14  1  6  0  0  0
 12 15  1  0  0  0  0
 13 16  1  0  0  0  0
 15 17  1  0  0  0  0
 16 18  2  0  0  0  0
 16 19  1  0  0  0  0
 17 20  1  0  0  0  0
 17 21  1  0  0  0  0
 18 22  1  0  0  0  0
 19 23  2  0  0  0  0
 20 24  2  0  0  0  0
 20 25  1  0  0  0  0
 21 26  1  0  0  0  0
 22 27  2  0  0  0  0
 25 28  2  0  0  0  0
 25 29  1  0  0  0  0
 26 30  1  0  0  0  0
 26 31  1  0  0  0  0
 28 32  1  0  0  0  0
 29 33  2  0  0  0  0
 32 34  1  0  0  0  0
 32 35  2  0  0  0  0
 34 36  1  0  0  0  0
 35 37  1  0  0  0  0
 36 38  1  0  0  0  0
 38 39  1  0  0  0  0
 38 40  1  0  0  0  0
 39 41  1  0  0  0  0
  4  6  1  0  0  0  0
 23 27  1  0  0  0  0
 33 35  1  0  0  0  0
 36 37  2  0  0  0  0
M  END
>  <MolRegNo>
1354676

>  <m>
=

>  <Value>
31

>  <Unit>
nM

>  <Type>
IC50

>  <pValue>
7.51

>  <Ligand Efficiency>
0

>  <Binding Efficiency>
0

>  <Surface Efficiency>
0

>  <Assay Index>
663293

>  <Assay Category>


>  <Assay Organism>
Homo sapiens

>  <Target ID>
17045

>  <Target Name>
Cytochrome P450 3A4

>  <Target Organism>
Homo sapiens

>  <Target Description>
Target is a single protein chain

>  <Sequence Accession>
P08684

>  <Reference>
Bioorg Med Chem Lett 22 (15), 4998-5002 (2012)

>  <Pubmed ID>
22765892

>  <DOI>
10.1016/j.bmcl.2012.06.022

$$$$
1353545
Actelion Java MolfileCreator 1.0

 46 50  0  0  0  0  0  0  0  0999 V2000
    0.0000   -0.0000   -0.0000 S   0  0  0  0  0  0  0  0  0  0  0  0
    1.4281   -0.4403   -0.0000 C   0  0  0  0  0  0  0  0  0  0  0  0
   -0.8925   -1.0473   -0.0000 C   0  0  0  0  0  0  0  0  0  0  0  0
    1.4281   -1.9398   -0.0000 C   0  0  0  0  0  0  0  0  0  0  0  0
    2.7966    0.2380   -0.0000 C   0  0  0  0  0  0  0  0  0  0  0  0
    0.0000   -2.4277   -0.0000 N   0  0  0  0  0  0  0  0  0  0  0  0
    4.0938   -0.4998   -0.0000 O   0  0  0  0  0  0  0  0  0  0  0  0
    5.3910    0.2618   -0.0000 C   0  0  0  0  0  0  0  0  0  0  0  0
    5.3791    1.7851   -0.0000 O   0  0  0  0  0  0  0  0  0  0  0  0
    6.6882   -0.4760   -0.0000 N   0  0  0  0  0  0  0  0  0  0  0  0
    7.9734    0.2856   -0.0000 C   0  0  0  0  0  0  0  0  0  0  0  0
    9.2706   -0.4522   -0.0000 C   0  0  0  0  0  0  0  0  0  0  0  0
    7.9615    1.8089   -0.0000 C   0  0  0  0  0  0  0  0  0  0  0  0
    9.2587   -1.9517   -0.0000 O   0  0  0  0  0  0  0  0  0  0  0  0
   10.5678    0.3094   -0.0000 C   0  0  0  0  0  0  0  0  0  0  0  0
    9.2587    2.5824   -0.0000 C   0  0  0  0  0  0  0  0  0  0  0  0
   11.8649   -0.4284   -0.0000 N   0  0  0  0  0  0  0  0  0  0  0  0
   10.5559    1.8327   -0.0000 C   0  0  0  0  0  0  0  0  0  0  0  0
    9.2468    4.0938   -0.0000 C   0  0  0  0  0  0  0  0  0  0  0  0
   13.1621    0.3332   -0.0000 C   0  0  0  0  0  0  0  0  0  0  0  0
   11.8530   -1.9279   -0.0000 C   0  0  0  0  0  0  0  0  0  0  0  0
   11.8530    2.6062   -0.0000 C   0  0  0  0  0  0  0  0  0  0  0  0
   10.5321    4.8555   -0.0000 C   0  0  0  0  0  0  0  0  0  0  0  0
   13.1502    1.8565   -0.0000 O   0  0  0  0  0  0  0  0  0  0  0  0
   14.4593   -0.4046   -0.0000 C   0  0  0  0  0  0  0  0  0  0  0  0
   11.0795   -3.2132   -0.0000 C   0  0  0  0  0  0  0  0  0  0  0  0
   11.8411    4.1295   -0.0000 C   0  0  0  0  0  0  0  0  0  0  0  0
   14.4474   -1.9041   -0.0000 C   0  0  0  0  0  0  0  0  0  0  0  0
   15.7445    0.3570   -0.0000 C   0  0  0  0  0  0  0  0  0  0  0  0
    9.5681   -3.1894   -0.0000 C   0  0  0  0  0  0  0  0  0  0  0  0
   11.8054   -4.5103   -0.0000 C   0  0  0  0  0  0  0  0  0  0  0  0
   15.7445   -2.6419   -0.0000 C   0  0  0  0  0  0  0  0  0  0  0  0
   17.0417   -0.3808   -0.0000 C   0  0  0  0  0  0  0  0  0  0  0  0
   16.0421   -4.1057   -0.0000 O   0  0  0  0  0  0  0  0  0  0  0  0
   17.0417   -1.8803   -0.0000 C   0  0  0  0  0  0  0  0  0  0  0  0
   17.5296   -4.2485   -0.0000 C   0  0  0  0  0  0  0  0  0  0  0  0
   18.1366   -2.8800   -0.0000 N   0  0  0  0  0  0  0  0  0  0  0  0
   18.2675   -5.5338   -0.0000 N   0  0  0  0  0  0  0  0  0  0  0  0
   17.5058   -6.8191   -0.0000 C   0  0  0  0  0  0  0  0  0  0  0  0
   18.2437   -8.1043   -0.0000 C   0  0  0  0  0  0  0  0  0  0  0  0
   17.4820   -9.3896   -0.0000 C   0  0  0  0  0  0  0  0  0  0  0  0
   18.2199  -10.6749   -0.0000 N   0  0  0  0  0  0  0  0  0  0  0  0
   19.6955  -10.8177   -0.0000 C   0  0  0  0  0  0  0  0  0  0  0  0
   17.5891  -12.0434   -0.0000 C   0  0  0  0  0  0  0  0  0  0  0  0
   20.0050  -12.2696   -0.0000 N   0  0  0  0  0  0  0  0  0  0  0  0
   18.6959  -13.0431   -0.0000 C   0  0  0  0  0  0  0  0  0  0  0  0
  1  2  1  0  0  0  0
  1  3  1  0  0  0  0
  2  4  2  0  0  0  0
  2  5  1  0  0  0  0
  3  6  2  0  0  0  0
  5  7  1  0  0  0  0
  7  8  1  0  0  0  0
  8  9  2  0  0  0  0
  8 10  1  0  0  0  0
 11 10  1  6  0  0  0
 11 12  1  0  0  0  0
 11 13  1  0  0  0  0
 12 14  1  6  0  0  0
 12 15  1  0  0  0  0
 13 16  1  0  0  0  0
 15 17  1  0  0  0  0
 16 18  2  0  0  0  0
 16 19  1  0  0  0  0
 17 20  1  0  0  0  0
 17 21  1  0  0  0  0
 18 22  1  0  0  0  0
 19 23  2  0  0  0  0
 20 24  2  0  0  0  0
 20 25  1  0  0  0  0
 21 26  1  0  0  0  0
 22 27  2  0  0  0  0
 25 28  2  0  0  0  0
 25 29  1  0  0  0  0
 26 30  1  0  0  0  0
 26 31  1  0  0  0  0
 28 32  1  0  0  0  0
 29 33  2  0  0  0  0
 32 34  1  0  0  0  0
 32 35  2  0  0  0  0
 34 36  1  0  0  0  0
 35 37  1  0  0  0  0
 36 38  1  0  0  0  0
 38 39  1  0  0  0  0
 39 40  1  0  0  0  0
 40 41  1  0  0  0  0
 41 42  1  0  0  0  0
 42 43  1  0  0  0  0
 42 44  1  0  0  0  0
 43 45  2  0  0  0  0
 44 46  2  0  0  0  0
  4  6  1  0  0  0  0
 23 27  1  0  0  0  0
 33 35  1  0  0  0  0
 36 37  2  0  0  0  0
 45 46  1  0  0  0  0
M  END
>  <MolRegNo>
1353545

>  <m>
=

>  <Value>
31

>  <Unit>
nM

>  <Type>
IC50

>  <pValue>
7.51

>  <Ligand Efficiency>
0

>  <Binding Efficiency>
0

>  <Surface Efficiency>
0

>  <Assay Index>
663293

>  <Assay Category>


>  <Assay Organism>
Homo sapiens

>  <Target ID>
17045

>  <Target Name>
Cytochrome P450 3A4

>  <Target Organism>
Homo sapiens

>  <Target Description>
Target is a single protein chain

>  <Sequence Accession>
P08684

>  <Reference>
Bioorg Med Chem Lett 22 (15), 4998-5002 (2012)

>  <Pubmed ID>
22765892

>  <DOI>
10.1016/j.bmcl.2012.06.022

$$$$
1354885
Actelion Java MolfileCreator 1.0

 42 46  0  0  0  0  0  0  0  0999 V2000
    0.0000   -0.0000   -0.0000 S   0  0  0  0  0  0  0  0  0  0  0  0
    1.4271   -0.4400   -0.0000 C   0  0  0  0  0  0  0  0  0  0  0  0
   -0.8920   -1.0466   -0.0000 C   0  0  0  0  0  0  0  0  0  0  0  0
    1.4271   -1.9385   -0.0000 C   0  0  0  0  0  0  0  0  0  0  0  0
    2.7948    0.2379   -0.0000 C   0  0  0  0  0  0  0  0  0  0  0  0
    0.0000   -2.4262   -0.0000 N   0  0  0  0  0  0  0  0  0  0  0  0
    4.0912   -0.4995   -0.0000 O   0  0  0  0  0  0  0  0  0  0  0  0
    5.3875    0.2616   -0.0000 C   0  0  0  0  0  0  0  0  0  0  0  0
    5.3756    1.7839   -0.0000 O   0  0  0  0  0  0  0  0  0  0  0  0
    6.6838   -0.4757   -0.0000 N   0  0  0  0  0  0  0  0  0  0  0  0
    7.9682    0.2854   -0.0000 C   0  0  0  0  0  0  0  0  0  0  0  0
    9.2646   -0.4519   -0.0000 C   0  0  0  0  0  0  0  0  0  0  0  0
    7.9564    1.8077   -0.0000 C   0  0  0  0  0  0  0  0  0  0  0  0
    9.2527   -1.9504   -0.0000 O   0  0  0  0  0  0  0  0  0  0  0  0
   10.5609    0.3092   -0.0000 C   0  0  0  0  0  0  0  0  0  0  0  0
    9.2527    2.5808   -0.0000 C   0  0  0  0  0  0  0  0  0  0  0  0
   11.8572   -0.4281   -0.0000 N   0  0  0  0  0  0  0  0  0  0  0  0
   10.5490    1.8315   -0.0000 C   0  0  0  0  0  0  0  0  0  0  0  0
    9.2408    4.0912   -0.0000 C   0  0  0  0  0  0  0  0  0  0  0  0
   13.1536    0.3330   -0.0000 C   0  0  0  0  0  0  0  0  0  0  0  0
   11.8453   -1.9267   -0.0000 C   0  0  0  0  0  0  0  0  0  0  0  0
   11.8453    2.6045   -0.0000 C   0  0  0  0  0  0  0  0  0  0  0  0
   10.5252    4.8523   -0.0000 C   0  0  0  0  0  0  0  0  0  0  0  0
   13.1417    1.8553   -0.0000 O   0  0  0  0  0  0  0  0  0  0  0  0
   14.4499   -0.4044   -0.0000 C   0  0  0  0  0  0  0  0  0  0  0  0
   10.9296   -3.1278   -0.0000 C   0  0  0  0  0  0  0  0  0  0  0  0
   11.8334    4.1268   -0.0000 C   0  0  0  0  0  0  0  0  0  0  0  0
   14.4380   -1.9029   -0.0000 C   0  0  0  0  0  0  0  0  0  0  0  0
   15.7343    0.3568   -0.0000 C   0  0  0  0  0  0  0  0  0  0  0  0
   11.5242   -4.4955   -0.0000 C   0  0  0  0  0  0  0  0  0  0  0  0
    9.4192   -2.9494   -0.0000 C   0  0  0  0  0  0  0  0  0  0  0  0
   15.7343   -2.6402   -0.0000 C   0  0  0  0  0  0  0  0  0  0  0  0
   17.0306   -0.3806   -0.0000 C   0  0  0  0  0  0  0  0  0  0  0  0
   16.0316   -4.1031   -0.0000 O   0  0  0  0  0  0  0  0  0  0  0  0
   17.0306   -1.8791   -0.0000 C   0  0  0  0  0  0  0  0  0  0  0  0
   17.5183   -4.2458   -0.0000 C   0  0  0  0  0  0  0  0  0  0  0  0
   18.1248   -2.8781   -0.0000 N   0  0  0  0  0  0  0  0  0  0  0  0
   18.2556   -5.5302   -0.0000 N   0  0  0  0  0  0  0  0  0  0  0  0
   17.6253   -6.8860   -0.0000 C   0  0  0  0  0  0  0  0  0  0  0  0
   19.7303   -5.6729   -0.0000 C   0  0  0  0  0  0  0  0  0  0  0  0
   18.7313   -7.8731   -0.0000 C   0  0  0  0  0  0  0  0  0  0  0  0
   20.0396   -7.1239   -0.0000 C   0  0  0  0  0  0  0  0  0  0  0  0
  1  2  1  0  0  0  0
  1  3  1  0  0  0  0
  2  4  2  0  0  0  0
  2  5  1  0  0  0  0
  3  6  2  0  0  0  0
  5  7  1  0  0  0  0
  7  8  1  0  0  0  0
  8  9  2  0  0  0  0
  8 10  1  0  0  0  0
 11 10  1  6  0  0  0
 11 12  1  0  0  0  0
 11 13  1  0  0  0  0
 12 14  1  6  0  0  0
 12 15  1  0  0  0  0
 13 16  1  0  0  0  0
 15 17  1  0  0  0  0
 16 18  2  0  0  0  0
 16 19  1  0  0  0  0
 17 20  1  0  0  0  0
 17 21  1  0  0  0  0
 18 22  1  0  0  0  0
 19 23  2  0  0  0  0
 20 24  2  0  0  0  0
 20 25  1  0  0  0  0
 21 26  1  0  0  0  0
 22 27  2  0  0  0  0
 25 28  2  0  0  0  0
 25 29  1  0  0  0  0
 26 30  1  0  0  0  0
 26 31  1  0  0  0  0
 28 32  1  0  0  0  0
 29 33  2  0  0  0  0
 32 34  1  0  0  0  0
 32 35  2  0  0  0  0
 34 36  1  0  0  0  0
 35 37  1  0  0  0  0
 36 38  1  0  0  0  0
 38 39  1  0  0  0  0
 38 40  1  0  0  0  0
 39 41  1  0  0  0  0
 40 42  1  0  0  0  0
  4  6  1  0  0  0  0
 23 27  1  0  0  0  0
 33 35  1  0  0  0  0
 36 37  2  0  0  0  0
 41 42  1  0  0  0  0
M  END
>  <MolRegNo>
1354885

>  <m>
=

>  <Value>
33

>  <Unit>
nM

>  <Type>
IC50

>  <pValue>
7.48

>  <Ligand Efficiency>
0

>  <Binding Efficiency>
0

>  <Surface Efficiency>
0

>  <Assay Index>
663293

>  <Assay Category>


>  <Assay Organism>
Homo sapiens

>  <Target ID>
17045

>  <Target Name>
Cytochrome P450 3A4

>  <Target Organism>
Homo sapiens

>  <Target Description>
Target is a single protein chain

>  <Sequence Accession>
P08684

>  <Reference>
Bioorg Med Chem Lett 22 (15), 4998-5002 (2012)

>  <Pubmed ID>
22765892

>  <DOI>
10.1016/j.bmcl.2012.06.022

$$$$
1354427
Actelion Java MolfileCreator 1.0

 40 43  0  0  0  0  0  0  0  0999 V2000
    0.0000   -0.0000   -0.0000 S   0  0  0  0  0  0  0  0  0  0  0  0
    1.3656   -0.6056   -0.0000 C   0  0  0  0  0  0  0  0  0  0  0  0
   -1.0213   -1.1163   -0.0000 C   0  0  0  0  0  0  0  0  0  0  0  0
    1.1994   -2.0900   -0.0000 C   0  0  0  0  0  0  0  0  0  0  0  0
    2.6600    0.1663   -0.0000 C   0  0  0  0  0  0  0  0  0  0  0  0
   -0.2731   -2.4106   -0.0000 N   0  0  0  0  0  0  0  0  0  0  0  0
    3.9544   -0.5819   -0.0000 O   0  0  0  0  0  0  0  0  0  0  0  0
    5.2369    0.1900   -0.0000 C   0  0  0  0  0  0  0  0  0  0  0  0
    5.2250    1.7100   -0.0000 O   0  0  0  0  0  0  0  0  0  0  0  0
    6.5313   -0.5581   -0.0000 N   0  0  0  0  0  0  0  0  0  0  0  0
    7.8257    0.2138   -0.0000 C   0  0  0  0  0  0  0  0  0  0  0  0
    9.1201   -0.5344   -0.0000 C   0  0  0  0  0  0  0  0  0  0  0  0
    7.8138    1.7338   -0.0000 C   0  0  0  0  0  0  0  0  0  0  0  0
    9.1082   -2.0306   -0.0000 O   0  0  0  0  0  0  0  0  0  0  0  0
   10.4145    0.2375   -0.0000 C   0  0  0  0  0  0  0  0  0  0  0  0
    9.1082    2.4938   -0.0000 C   0  0  0  0  0  0  0  0  0  0  0  0
   11.7088   -0.5106   -0.0000 N   0  0  0  0  0  0  0  0  0  0  0  0
   10.4026    1.7456   -0.0000 C   0  0  0  0  0  0  0  0  0  0  0  0
    9.0963    4.0019   -0.0000 C   0  0  0  0  0  0  0  0  0  0  0  0
   13.0032    0.2613   -0.0000 C   0  0  0  0  0  0  0  0  0  0  0  0
   11.6970   -2.0069   -0.0000 C   0  0  0  0  0  0  0  0  0  0  0  0
   11.6970    2.5056   -0.0000 C   0  0  0  0  0  0  0  0  0  0  0  0
   10.3788    4.7738   -0.0000 C   0  0  0  0  0  0  0  0  0  0  0  0
   12.9914    1.7813   -0.0000 O   0  0  0  0  0  0  0  0  0  0  0  0
   14.2976   -0.4869   -0.0000 C   0  0  0  0  0  0  0  0  0  0  0  0
   10.7826   -3.2063   -0.0000 C   0  0  0  0  0  0  0  0  0  0  0  0
   11.6851    4.0257   -0.0000 C   0  0  0  0  0  0  0  0  0  0  0  0
   14.2857   -1.9831   -0.0000 C   0  0  0  0  0  0  0  0  0  0  0  0
   15.5801    0.2850   -0.0000 C   0  0  0  0  0  0  0  0  0  0  0  0
   11.3763   -4.5719   -0.0000 C   0  0  0  0  0  0  0  0  0  0  0  0
    9.2744   -3.0281   -0.0000 C   0  0  0  0  0  0  0  0  0  0  0  0
   15.5683   -2.7194   -0.0000 C   0  0  0  0  0  0  0  0  0  0  0  0
   16.8745   -0.4513   -0.0000 C   0  0  0  0  0  0  0  0  0  0  0  0
   15.8770   -4.1800   -0.0000 O   0  0  0  0  0  0  0  0  0  0  0  0
   16.8626   -1.9594   -0.0000 C   0  0  0  0  0  0  0  0  0  0  0  0
   17.3614   -4.3225   -0.0000 C   0  0  0  0  0  0  0  0  0  0  0  0
   17.9670   -2.9569   -0.0000 N   0  0  0  0  0  0  0  0  0  0  0  0
   18.0976   -5.6169   -0.0000 C   0  0  0  0  0  0  0  0  0  0  0  0
   17.3376   -6.8994   -0.0000 C   0  0  0  0  0  0  0  0  0  0  0  0
   19.5820   -5.6050   -0.0000 C   0  0  0  0  0  0  0  0  0  0  0  0
  1  2  1  0  0  0  0
  1  3  1  0  0  0  0
  2  4  2  0  0  0  0
  2  5  1  0  0  0  0
  3  6  2  0  0  0  0
  5  7  1  0  0  0  0
  7  8  1  0  0  0  0
  8  9  2  0  0  0  0
  8 10  1  0  0  0  0
 11 10  1  6  0  0  0
 11 12  1  0  0  0  0
 11 13  1  0  0  0  0
 12 14  1  6  0  0  0
 12 15  1  0  0  0  0
 13 16  1  0  0  0  0
 15 17  1  0  0  0  0
 16 18  2  0  0  0  0
 16 19  1  0  0  0  0
 17 20  1  0  0  0  0
 17 21  1  0  0  0  0
 18 22  1  0  0  0  0
 19 23  2  0  0  0  0
 20 24  2  0  0  0  0
 20 25  1  0  0  0  0
 21 26  1  0  0  0  0
 22 27  2  0  0  0  0
 25 28  2  0  0  0  0
 25 29  1  0  0  0  0
 26 30  1  0  0  0  0
 26 31  1  0  0  0  0
 28 32  1  0  0  0  0
 29 33  2  0  0  0  0
 32 34  1  0  0  0  0
 32 35  2  0  0  0  0
 34 36  1  0  0  0  0
 35 37  1  0  0  0  0
 36 38  1  0  0  0  0
 38 39  1  0  0  0  0
 38 40  1  0  0  0  0
  4  6  1  0  0  0  0
 23 27  1  0  0  0  0
 33 35  1  0  0  0  0
 36 37  2  0  0  0  0
M  END
>  <MolRegNo>
1354427

>  <m>
=

>  <Value>
37

>  <Unit>
nM

>  <Type>
IC50

>  <pValue>
7.43

>  <Ligand Efficiency>
0

>  <Binding Efficiency>
0

>  <Surface Efficiency>
0

>  <Assay Index>
663293

>  <Assay Category>


>  <Assay Organism>
Homo sapiens

>  <Target ID>
17045

>  <Target Name>
Cytochrome P450 3A4

>  <Target Organism>
Homo sapiens

>  <Target Description>
Target is a single protein chain

>  <Sequence Accession>
P08684

>  <Reference>
Bioorg Med Chem Lett 22 (15), 4998-5002 (2012)

>  <Pubmed ID>
22765892

>  <DOI>
10.1016/j.bmcl.2012.06.022

$$$$
1353543
Actelion Java MolfileCreator 1.0

 42 45  0  0  0  0  0  0  0  0999 V2000
    0.0000   -0.0000   -0.0000 S   0  0  0  0  0  0  0  0  0  0  0  0
    1.4282   -0.4404   -0.0000 C   0  0  0  0  0  0  0  0  0  0  0  0
   -0.8926   -1.0474   -0.0000 C   0  0  0  0  0  0  0  0  0  0  0  0
    1.4282   -1.9400   -0.0000 C   0  0  0  0  0  0  0  0  0  0  0  0
    2.7970    0.2380   -0.0000 C   0  0  0  0  0  0  0  0  0  0  0  0
    0.0000   -2.4280   -0.0000 N   0  0  0  0  0  0  0  0  0  0  0  0
    4.0943   -0.4999   -0.0000 O   0  0  0  0  0  0  0  0  0  0  0  0
    5.3916    0.2618   -0.0000 C   0  0  0  0  0  0  0  0  0  0  0  0
    5.3797    1.7853   -0.0000 O   0  0  0  0  0  0  0  0  0  0  0  0
    6.6889   -0.4761   -0.0000 N   0  0  0  0  0  0  0  0  0  0  0  0
    7.9743    0.2856   -0.0000 C   0  0  0  0  0  0  0  0  0  0  0  0
    9.2716   -0.4523   -0.0000 C   0  0  0  0  0  0  0  0  0  0  0  0
    7.9624    1.8091   -0.0000 C   0  0  0  0  0  0  0  0  0  0  0  0
    9.2597   -1.9519   -0.0000 O   0  0  0  0  0  0  0  0  0  0  0  0
   10.5689    0.3095   -0.0000 C   0  0  0  0  0  0  0  0  0  0  0  0
    9.2597    2.5827   -0.0000 C   0  0  0  0  0  0  0  0  0  0  0  0
   11.8662   -0.4285   -0.0000 N   0  0  0  0  0  0  0  0  0  0  0  0
   10.5570    1.8329   -0.0000 C   0  0  0  0  0  0  0  0  0  0  0  0
    9.2478    4.0943   -0.0000 C   0  0  0  0  0  0  0  0  0  0  0  0
   13.1635    0.3333   -0.0000 C   0  0  0  0  0  0  0  0  0  0  0  0
   11.8543   -1.9281   -0.0000 C   0  0  0  0  0  0  0  0  0  0  0  0
   11.8543    2.6065   -0.0000 C   0  0  0  0  0  0  0  0  0  0  0  0
   10.5332    4.8560   -0.0000 C   0  0  0  0  0  0  0  0  0  0  0  0
   13.1516    1.8567   -0.0000 O   0  0  0  0  0  0  0  0  0  0  0  0
   14.4608   -0.4047   -0.0000 C   0  0  0  0  0  0  0  0  0  0  0  0
   12.9017   -2.9755   -0.0000 C   0  0  0  0  0  0  0  0  0  0  0  0
   11.8424    4.1300   -0.0000 C   0  0  0  0  0  0  0  0  0  0  0  0
   14.4489   -1.9043   -0.0000 C   0  0  0  0  0  0  0  0  0  0  0  0
   15.7463    0.3571   -0.0000 C   0  0  0  0  0  0  0  0  0  0  0  0
   12.5089   -4.4156   -0.0000 C   0  0  0  0  0  0  0  0  0  0  0  0
   14.3418   -2.5708   -0.0000 C   0  0  0  0  0  0  0  0  0  0  0  0
   13.9491   -4.0229   -0.0000 C   0  0  0  0  0  0  0  0  0  0  0  0
   15.7463   -2.6422   -0.0000 C   0  0  0  0  0  0  0  0  0  0  0  0
   17.0436   -0.3809   -0.0000 C   0  0  0  0  0  0  0  0  0  0  0  0
   16.0438   -4.1062   -0.0000 O   0  0  0  0  0  0  0  0  0  0  0  0
   17.0436   -1.8805   -0.0000 C   0  0  0  0  0  0  0  0  0  0  0  0
   17.5315   -4.2490   -0.0000 C   0  0  0  0  0  0  0  0  0  0  0  0
   18.1385   -2.8803   -0.0000 N   0  0  0  0  0  0  0  0  0  0  0  0
   18.2695   -5.5344   -0.0000 N   0  0  0  0  0  0  0  0  0  0  0  0
   19.7572   -5.6772   -0.0000 C   0  0  0  0  0  0  0  0  0  0  0  0
   17.4363   -6.7841   -0.0000 C   0  0  0  0  0  0  0  0  0  0  0  0
   20.0548   -7.1293   -0.0000 C   0  0  0  0  0  0  0  0  0  0  0  0
  1  2  1  0  0  0  0
  1  3  1  0  0  0  0
  2  4  2  0  0  0  0
  2  5  1  0  0  0  0
  3  6  2  0  0  0  0
  5  7  1  0  0  0  0
  7  8  1  0  0  0  0
  8  9  2  0  0  0  0
  8 10  1  0  0  0  0
 11 10  1  6  0  0  0
 11 12  1  0  0  0  0
 11 13  1  0  0  0  0
 12 14  1  6  0  0  0
 12 15  1  0  0  0  0
 13 16  1  0  0  0  0
 15 17  1  0  0  0  0
 16 18  2  0  0  0  0
 16 19  1  0  0  0  0
 17 20  1  0  0  0  0
 17 21  1  0  0  0  0
 18 22  1  0  0  0  0
 19 23  2  0  0  0  0
 20 24  2  0  0  0  0
 20 25  1  0  0  0  0
 21 26  1  0  0  0  0
 22 27  2  0  0  0  0
 25 28  2  0  0  0  0
 25 29  1  0  0  0  0
 26 30  1  0  0  0  0
 26 31  1  0  0  0  0
 26 32  1  0  0  0  0
 28 33  1  0  0  0  0
 29 34  2  0  0  0  0
 33 35  1  0  0  0  0
 33 36  2  0  0  0  0
 35 37  1  0  0  0  0
 36 38  1  0  0  0  0
 37 39  1  0  0  0  0
 39 40  1  0  0  0  0
 39 41  1  0  0  0  0
 40 42  1  0  0  0  0
  4  6  1  0  0  0  0
 23 27  1  0  0  0  0
 34 36  1  0  0  0  0
 37 38  2  0  0  0  0
M  END
>  <MolRegNo>
1353543

>  <m>
=

>  <Value>
37

>  <Unit>
nM

>  <Type>
IC50

>  <pValue>
7.43

>  <Ligand Efficiency>
0

>  <Binding Efficiency>
0

>  <Surface Efficiency>
0

>  <Assay Index>
663293

>  <Assay Category>


>  <Assay Organism>
Homo sapiens

>  <Target ID>
17045

>  <Target Name>
Cytochrome P450 3A4

>  <Target Organism>
Homo sapiens

>  <Target Description>
Target is a single protein chain

>  <Sequence Accession>
P08684

>  <Reference>
Bioorg Med Chem Lett 22 (15), 4998-5002 (2012)

>  <Pubmed ID>
22765892

>  <DOI>
10.1016/j.bmcl.2012.06.022

$$$$
1354888
Actelion Java MolfileCreator 1.0

 43 47  0  0  0  0  0  0  0  0999 V2000
    0.0000   -0.0000   -0.0000 S   0  0  0  0  0  0  0  0  0  0  0  0
    1.4269   -0.4400   -0.0000 C   0  0  0  0  0  0  0  0  0  0  0  0
   -0.8918   -1.0464   -0.0000 C   0  0  0  0  0  0  0  0  0  0  0  0
    1.4269   -1.9383   -0.0000 C   0  0  0  0  0  0  0  0  0  0  0  0
    2.7944    0.2378   -0.0000 C   0  0  0  0  0  0  0  0  0  0  0  0
    0.0000   -2.4258   -0.0000 N   0  0  0  0  0  0  0  0  0  0  0  0
    4.0906   -0.4994   -0.0000 O   0  0  0  0  0  0  0  0  0  0  0  0
    5.3867    0.2616   -0.0000 C   0  0  0  0  0  0  0  0  0  0  0  0
    5.3748    1.7837   -0.0000 O   0  0  0  0  0  0  0  0  0  0  0  0
    6.6829   -0.4756   -0.0000 N   0  0  0  0  0  0  0  0  0  0  0  0
    7.9671    0.2854   -0.0000 C   0  0  0  0  0  0  0  0  0  0  0  0
    9.2633   -0.4519   -0.0000 C   0  0  0  0  0  0  0  0  0  0  0  0
    7.9552    1.8075   -0.0000 C   0  0  0  0  0  0  0  0  0  0  0  0
    9.2514   -1.9502   -0.0000 O   0  0  0  0  0  0  0  0  0  0  0  0
   10.5594    0.3092   -0.0000 C   0  0  0  0  0  0  0  0  0  0  0  0
    9.2514    2.5804   -0.0000 C   0  0  0  0  0  0  0  0  0  0  0  0
   11.8556   -0.4281   -0.0000 N   0  0  0  0  0  0  0  0  0  0  0  0
   10.5475    1.8312   -0.0000 C   0  0  0  0  0  0  0  0  0  0  0  0
    9.2395    4.0906   -0.0000 C   0  0  0  0  0  0  0  0  0  0  0  0
   13.1517    0.3330   -0.0000 C   0  0  0  0  0  0  0  0  0  0  0  0
   11.8437   -1.9264   -0.0000 C   0  0  0  0  0  0  0  0  0  0  0  0
   11.8437    2.6042   -0.0000 C   0  0  0  0  0  0  0  0  0  0  0  0
   10.5237    4.8516   -0.0000 C   0  0  0  0  0  0  0  0  0  0  0  0
   13.1398    1.8550   -0.0000 O   0  0  0  0  0  0  0  0  0  0  0  0
   14.4478   -0.4043   -0.0000 C   0  0  0  0  0  0  0  0  0  0  0  0
   10.9280   -3.1274   -0.0000 C   0  0  0  0  0  0  0  0  0  0  0  0
   11.8318    4.1263   -0.0000 C   0  0  0  0  0  0  0  0  0  0  0  0
   14.4360   -1.9026   -0.0000 C   0  0  0  0  0  0  0  0  0  0  0  0
   15.7321    0.3567   -0.0000 C   0  0  0  0  0  0  0  0  0  0  0  0
   11.5226   -4.4949   -0.0000 C   0  0  0  0  0  0  0  0  0  0  0  0
    9.4179   -2.9490   -0.0000 C   0  0  0  0  0  0  0  0  0  0  0  0
   15.7321   -2.6399   -0.0000 C   0  0  0  0  0  0  0  0  0  0  0  0
   17.0282   -0.3686   -0.0000 C   0  0  0  0  0  0  0  0  0  0  0  0
   16.0294   -4.1025   -0.0000 O   0  0  0  0  0  0  0  0  0  0  0  0
   17.0282   -1.8788   -0.0000 C   0  0  0  0  0  0  0  0  0  0  0  0
   17.5158   -4.2452   -0.0000 C   0  0  0  0  0  0  0  0  0  0  0  0
   18.1222   -2.8777   -0.0000 N   0  0  0  0  0  0  0  0  0  0  0  0
   18.2530   -5.5294   -0.0000 N   0  0  0  0  0  0  0  0  0  0  0  0
   17.4801   -6.8137   -0.0000 C   0  0  0  0  0  0  0  0  0  0  0  0
   19.7394   -5.5056   -0.0000 C   0  0  0  0  0  0  0  0  0  0  0  0
   18.2174   -8.0979   -0.0000 C   0  0  0  0  0  0  0  0  0  0  0  0
   20.4767   -6.8018   -0.0000 C   0  0  0  0  0  0  0  0  0  0  0  0
   19.7038   -8.0979   -0.0000 O   0  0  0  0  0  0  0  0  0  0  0  0
  1  2  1  0  0  0  0
  1  3  1  0  0  0  0
  2  4  2  0  0  0  0
  2  5  1  0  0  0  0
  3  6  2  0  0  0  0
  5  7  1  0  0  0  0
  7  8  1  0  0  0  0
  8  9  2  0  0  0  0
  8 10  1  0  0  0  0
 11 10  1  6  0  0  0
 11 12  1  0  0  0  0
 11 13  1  0  0  0  0
 12 14  1  6  0  0  0
 12 15  1  0  0  0  0
 13 16  1  0  0  0  0
 15 17  1  0  0  0  0
 16 18  2  0  0  0  0
 16 19  1  0  0  0  0
 17 20  1  0  0  0  0
 17 21  1  0  0  0  0
 18 22  1  0  0  0  0
 19 23  2  0  0  0  0
 20 24  2  0  0  0  0
 20 25  1  0  0  0  0
 21 26  1  0  0  0  0
 22 27  2  0  0  0  0
 25 28  2  0  0  0  0
 25 29  1  0  0  0  0
 26 30  1  0  0  0  0
 26 31  1  0  0  0  0
 28 32  1  0  0  0  0
 29 33  2  0  0  0  0
 32 34  1  0  0  0  0
 32 35  2  0  0  0  0
 34 36  1  0  0  0  0
 35 37  1  0  0  0  0
 36 38  1  0  0  0  0
 38 39  1  0  0  0  0
 38 40  1  0  0  0  0
 39 41  1  0  0  0  0
 40 42  1  0  0  0  0
 41 43  1  0  0  0  0
  4  6  1  0  0  0  0
 23 27  1  0  0  0  0
 33 35  1  0  0  0  0
 36 37  2  0  0  0  0
 42 43  1  0  0  0  0
M  END
>  <MolRegNo>
1354888

>  <m>
=

>  <Value>
38

>  <Unit>
nM

>  <Type>
IC50

>  <pValue>
7.42

>  <Ligand Efficiency>
0

>  <Binding Efficiency>
0

>  <Surface Efficiency>
0

>  <Assay Index>
663293

>  <Assay Category>


>  <Assay Organism>
Homo sapiens

>  <Target ID>
17045

>  <Target Name>
Cytochrome P450 3A4

>  <Target Organism>
Homo sapiens

>  <Target Description>
Target is a single protein chain

>  <Sequence Accession>
P08684

>  <Reference>
Bioorg Med Chem Lett 22 (15), 4998-5002 (2012)

>  <Pubmed ID>
22765892

>  <DOI>
10.1016/j.bmcl.2012.06.022

$$$$
1353542
Actelion Java MolfileCreator 1.0

 40 43  0  0  0  0  0  0  0  0999 V2000
    0.0000   -0.0000   -0.0000 S   0  0  0  0  0  0  0  0  0  0  0  0
    1.4274   -0.4401   -0.0000 C   0  0  0  0  0  0  0  0  0  0  0  0
   -0.8921   -1.0467   -0.0000 C   0  0  0  0  0  0  0  0  0  0  0  0
    1.4274   -1.9388   -0.0000 C   0  0  0  0  0  0  0  0  0  0  0  0
    2.7952    0.2379   -0.0000 C   0  0  0  0  0  0  0  0  0  0  0  0
    0.0000   -2.4265   -0.0000 N   0  0  0  0  0  0  0  0  0  0  0  0
    4.0918   -0.4996   -0.0000 O   0  0  0  0  0  0  0  0  0  0  0  0
    5.3883    0.2617   -0.0000 C   0  0  0  0  0  0  0  0  0  0  0  0
    5.3764    1.7842   -0.0000 O   0  0  0  0  0  0  0  0  0  0  0  0
    6.6848   -0.4758   -0.0000 N   0  0  0  0  0  0  0  0  0  0  0  0
    7.9694    0.2855   -0.0000 C   0  0  0  0  0  0  0  0  0  0  0  0
    9.2659   -0.4520   -0.0000 C   0  0  0  0  0  0  0  0  0  0  0  0
    7.9575    1.8080   -0.0000 C   0  0  0  0  0  0  0  0  0  0  0  0
    9.2540   -1.9507   -0.0000 O   0  0  0  0  0  0  0  0  0  0  0  0
   10.5624    0.3093   -0.0000 C   0  0  0  0  0  0  0  0  0  0  0  0
    9.2540    2.5811   -0.0000 C   0  0  0  0  0  0  0  0  0  0  0  0
   11.8590   -0.4282   -0.0000 N   0  0  0  0  0  0  0  0  0  0  0  0
   10.5505    1.8318   -0.0000 C   0  0  0  0  0  0  0  0  0  0  0  0
    9.2421    4.0918   -0.0000 C   0  0  0  0  0  0  0  0  0  0  0  0
   13.1555    0.3330   -0.0000 C   0  0  0  0  0  0  0  0  0  0  0  0
   11.8471   -1.9269   -0.0000 C   0  0  0  0  0  0  0  0  0  0  0  0
   11.8471    2.6049   -0.0000 C   0  0  0  0  0  0  0  0  0  0  0  0
   10.5268    4.8530   -0.0000 C   0  0  0  0  0  0  0  0  0  0  0  0
   13.1436    1.8556   -0.0000 O   0  0  0  0  0  0  0  0  0  0  0  0
   14.4520   -0.4044   -0.0000 C   0  0  0  0  0  0  0  0  0  0  0  0
   10.5387   -2.6644   -0.0000 C   0  0  0  0  0  0  0  0  0  0  0  0
   11.8352    4.1274   -0.0000 C   0  0  0  0  0  0  0  0  0  0  0  0
   14.4401   -1.9031   -0.0000 C   0  0  0  0  0  0  0  0  0  0  0  0
   15.7366    0.3568   -0.0000 C   0  0  0  0  0  0  0  0  0  0  0  0
    9.2183   -3.3900   -0.0000 C   0  0  0  0  0  0  0  0  0  0  0  0
   15.7366   -2.6406   -0.0000 C   0  0  0  0  0  0  0  0  0  0  0  0
   17.0331   -0.3806   -0.0000 C   0  0  0  0  0  0  0  0  0  0  0  0
   16.0340   -4.1037   -0.0000 O   0  0  0  0  0  0  0  0  0  0  0  0
   17.0331   -1.8794   -0.0000 C   0  0  0  0  0  0  0  0  0  0  0  0
   17.5208   -4.2464   -0.0000 C   0  0  0  0  0  0  0  0  0  0  0  0
   18.1274   -2.8785   -0.0000 N   0  0  0  0  0  0  0  0  0  0  0  0
   18.2583   -5.5310   -0.0000 N   0  0  0  0  0  0  0  0  0  0  0  0
   19.7451   -5.6737   -0.0000 C   0  0  0  0  0  0  0  0  0  0  0  0
   20.0425   -7.1249   -0.0000 C   0  0  0  0  0  0  0  0  0  0  0  0
   20.3398   -8.5760   -0.0000 C   0  0  0  0  0  0  0  0  0  0  0  0
  1  2  1  0  0  0  0
  1  3  1  0  0  0  0
  2  4  2  0  0  0  0
  2  5  1  0  0  0  0
  3  6  2  0  0  0  0
  5  7  1  0  0  0  0
  7  8  1  0  0  0  0
  8  9  2  0  0  0  0
  8 10  1  0  0  0  0
 11 10  1  6  0  0  0
 11 12  1  0  0  0  0
 11 13  1  0  0  0  0
 12 14  1  6  0  0  0
 12 15  1  0  0  0  0
 13 16  1  0  0  0  0
 15 17  1  0  0  0  0
 16 18  2  0  0  0  0
 16 19  1  0  0  0  0
 17 20  1  0  0  0  0
 17 21  1  0  0  0  0
 18 22  1  0  0  0  0
 19 23  2  0  0  0  0
 20 24  2  0  0  0  0
 20 25  1  0  0  0  0
 21 26  1  0  0  0  0
 22 27  2  0  0  0  0
 25 28  2  0  0  0  0
 25 29  1  0  0  0  0
 26 30  3  0  0  0  0
 28 31  1  0  0  0  0
 29 32  2  0  0  0  0
 31 33  1  0  0  0  0
 31 34  2  0  0  0  0
 33 35  1  0  0  0  0
 34 36  1  0  0  0  0
 35 37  1  0  0  0  0
 37 38  1  0  0  0  0
 38 39  1  0  0  0  0
 39 40  3  0  0  0  0
  4  6  1  0  0  0  0
 23 27  1  0  0  0  0
 32 34  1  0  0  0  0
 35 36  2  0  0  0  0
M  END
>  <MolRegNo>
1353542

>  <m>
=

>  <Value>
38

>  <Unit>
nM

>  <Type>
IC50

>  <pValue>
7.42

>  <Ligand Efficiency>
0

>  <Binding Efficiency>
0

>  <Surface Efficiency>
0

>  <Assay Index>
663293

>  <Assay Category>


>  <Assay Organism>
Homo sapiens

>  <Target ID>
17045

>  <Target Name>
Cytochrome P450 3A4

>  <Target Organism>
Homo sapiens

>  <Target Description>
Target is a single protein chain

>  <Sequence Accession>
P08684

>  <Reference>
Bioorg Med Chem Lett 22 (15), 4998-5002 (2012)

>  <Pubmed ID>
22765892

>  <DOI>
10.1016/j.bmcl.2012.06.022

$$$$
1353541
Actelion Java MolfileCreator 1.0

 39 42  0  0  0  0  0  0  0  0999 V2000
    0.0000   -0.0000   -0.0000 S   0  0  0  0  0  0  0  0  0  0  0  0
    1.4267   -0.4399   -0.0000 C   0  0  0  0  0  0  0  0  0  0  0  0
   -0.8917   -1.0462   -0.0000 C   0  0  0  0  0  0  0  0  0  0  0  0
    1.4267   -1.9379   -0.0000 C   0  0  0  0  0  0  0  0  0  0  0  0
    2.7939    0.2378   -0.0000 C   0  0  0  0  0  0  0  0  0  0  0  0
    0.0000   -2.4253   -0.0000 N   0  0  0  0  0  0  0  0  0  0  0  0
    4.0898   -0.4993   -0.0000 O   0  0  0  0  0  0  0  0  0  0  0  0
    5.3857    0.2616   -0.0000 C   0  0  0  0  0  0  0  0  0  0  0  0
    5.3738    1.7833   -0.0000 O   0  0  0  0  0  0  0  0  0  0  0  0
    6.6816   -0.4756   -0.0000 N   0  0  0  0  0  0  0  0  0  0  0  0
    7.9656    0.2853   -0.0000 C   0  0  0  0  0  0  0  0  0  0  0  0
    9.2615   -0.4518   -0.0000 C   0  0  0  0  0  0  0  0  0  0  0  0
    7.9537    1.8071   -0.0000 C   0  0  0  0  0  0  0  0  0  0  0  0
    9.2496   -1.9498   -0.0000 O   0  0  0  0  0  0  0  0  0  0  0  0
   10.5573    0.3091   -0.0000 C   0  0  0  0  0  0  0  0  0  0  0  0
    9.2496    2.5799   -0.0000 C   0  0  0  0  0  0  0  0  0  0  0  0
   11.8532   -0.4280   -0.0000 N   0  0  0  0  0  0  0  0  0  0  0  0
   10.5455    1.8309   -0.0000 C   0  0  0  0  0  0  0  0  0  0  0  0
    9.2377    4.0898   -0.0000 C   0  0  0  0  0  0  0  0  0  0  0  0
   13.1491    0.3329   -0.0000 C   0  0  0  0  0  0  0  0  0  0  0  0
   11.8413   -1.9260   -0.0000 C   0  0  0  0  0  0  0  0  0  0  0  0
   11.8413    2.6037   -0.0000 C   0  0  0  0  0  0  0  0  0  0  0  0
   10.5217    4.8507   -0.0000 C   0  0  0  0  0  0  0  0  0  0  0  0
   13.1372    1.8547   -0.0000 O   0  0  0  0  0  0  0  0  0  0  0  0
   14.4450   -0.4042   -0.0000 C   0  0  0  0  0  0  0  0  0  0  0  0
   11.0686   -3.2100   -0.0000 C   0  0  0  0  0  0  0  0  0  0  0  0
   11.8295    4.1254   -0.0000 C   0  0  0  0  0  0  0  0  0  0  0  0
   14.4331   -1.9022   -0.0000 C   0  0  0  0  0  0  0  0  0  0  0  0
   15.7290    0.3567   -0.0000 C   0  0  0  0  0  0  0  0  0  0  0  0
    9.5587   -3.1862   -0.0000 C   0  0  0  0  0  0  0  0  0  0  0  0
   11.7938   -4.5059   -0.0000 C   0  0  0  0  0  0  0  0  0  0  0  0
   15.7290   -2.6393   -0.0000 C   0  0  0  0  0  0  0  0  0  0  0  0
   17.0249   -0.3686   -0.0000 C   0  0  0  0  0  0  0  0  0  0  0  0
   16.0262   -4.1017   -0.0000 O   0  0  0  0  0  0  0  0  0  0  0  0
   17.0249   -1.8784   -0.0000 C   0  0  0  0  0  0  0  0  0  0  0  0
   17.5123   -4.2443   -0.0000 C   0  0  0  0  0  0  0  0  0  0  0  0
   18.1187   -2.8771   -0.0000 N   0  0  0  0  0  0  0  0  0  0  0  0
   18.2495   -5.5283   -0.0000 C   0  0  0  0  0  0  0  0  0  0  0  0
   17.4886   -6.8123   -0.0000 C   0  0  0  0  0  0  0  0  0  0  0  0
  1  2  1  0  0  0  0
  1  3  1  0  0  0  0
  2  4  2  0  0  0  0
  2  5  1  0  0  0  0
  3  6  2  0  0  0  0
  5  7  1  0  0  0  0
  7  8  1  0  0  0  0
  8  9  2  0  0  0  0
  8 10  1  0  0  0  0
 11 10  1  6  0  0  0
 11 12  1  0  0  0  0
 11 13  1  0  0  0  0
 12 14  1  6  0  0  0
 12 15  1  0  0  0  0
 13 16  1  0  0  0  0
 15 17  1  0  0  0  0
 16 18  2  0  0  0  0
 16 19  1  0  0  0  0
 17 20  1  0  0  0  0
 17 21  1  0  0  0  0
 18 22  1  0  0  0  0
 19 23  2  0  0  0  0
 20 24  2  0  0  0  0
 20 25  1  0  0  0  0
 21 26  1  0  0  0  0
 22 27  2  0  0  0  0
 25 28  2  0  0  0  0
 25 29  1  0  0  0  0
 26 30  1  0  0  0  0
 26 31  1  0  0  0  0
 28 32  1  0  0  0  0
 29 33  2  0  0  0  0
 32 34  1  0  0  0  0
 32 35  2  0  0  0  0
 34 36  1  0  0  0  0
 35 37  1  0  0  0  0
 36 38  1  0  0  0  0
 38 39  1  0  0  0  0
  4  6  1  0  0  0  0
 23 27  1  0  0  0  0
 33 35  1  0  0  0  0
 36 37  2  0  0  0  0
M  END
>  <MolRegNo>
1353541

>  <m>
=

>  <Value>
39

>  <Unit>
nM

>  <Type>
IC50

>  <pValue>
7.41

>  <Ligand Efficiency>
0

>  <Binding Efficiency>
0

>  <Surface Efficiency>
0

>  <Assay Index>
663293

>  <Assay Category>


>  <Assay Organism>
Homo sapiens

>  <Target ID>
17045

>  <Target Name>
Cytochrome P450 3A4

>  <Target Organism>
Homo sapiens

>  <Target Description>
Target is a single protein chain

>  <Sequence Accession>
P08684

>  <Reference>
Bioorg Med Chem Lett 22 (15), 4998-5002 (2012)

>  <Pubmed ID>
22765892

>  <DOI>
10.1016/j.bmcl.2012.06.022

$$$$
1353276
Actelion Java MolfileCreator 1.0

 41 45  0  0  0  0  0  0  0  0999 V2000
    0.0000   -0.0000   -0.0000 S   0  0  0  0  0  0  0  0  0  0  0  0
    1.4276   -0.4402   -0.0000 C   0  0  0  0  0  0  0  0  0  0  0  0
   -0.8922   -1.0469   -0.0000 C   0  0  0  0  0  0  0  0  0  0  0  0
    1.4276   -1.9391   -0.0000 C   0  0  0  0  0  0  0  0  0  0  0  0
    2.7957    0.2379   -0.0000 C   0  0  0  0  0  0  0  0  0  0  0  0
    0.0000   -2.4269   -0.0000 N   0  0  0  0  0  0  0  0  0  0  0  0
    4.0924   -0.4997   -0.0000 O   0  0  0  0  0  0  0  0  0  0  0  0
    5.3891    0.2617   -0.0000 C   0  0  0  0  0  0  0  0  0  0  0  0
    5.3772    1.7845   -0.0000 O   0  0  0  0  0  0  0  0  0  0  0  0
    6.6859   -0.4759   -0.0000 N   0  0  0  0  0  0  0  0  0  0  0  0
    7.9707    0.2855   -0.0000 C   0  0  0  0  0  0  0  0  0  0  0  0
    9.2674   -0.4521   -0.0000 C   0  0  0  0  0  0  0  0  0  0  0  0
    7.9588    1.8083   -0.0000 C   0  0  0  0  0  0  0  0  0  0  0  0
    9.2555   -1.9510   -0.0000 O   0  0  0  0  0  0  0  0  0  0  0  0
   10.5641    0.3093   -0.0000 C   0  0  0  0  0  0  0  0  0  0  0  0
    9.2555    2.5815   -0.0000 C   0  0  0  0  0  0  0  0  0  0  0  0
   11.8608   -0.4283   -0.0000 N   0  0  0  0  0  0  0  0  0  0  0  0
   10.5522    1.8321   -0.0000 C   0  0  0  0  0  0  0  0  0  0  0  0
    9.2436    4.0924   -0.0000 C   0  0  0  0  0  0  0  0  0  0  0  0
   13.1576    0.3331   -0.0000 C   0  0  0  0  0  0  0  0  0  0  0  0
   11.8489   -1.9272   -0.0000 C   0  0  0  0  0  0  0  0  0  0  0  0
   11.8489    2.6053   -0.0000 C   0  0  0  0  0  0  0  0  0  0  0  0
   10.5284    4.8538   -0.0000 C   0  0  0  0  0  0  0  0  0  0  0  0
   13.1457    1.8559   -0.0000 O   0  0  0  0  0  0  0  0  0  0  0  0
   14.4543   -0.4045   -0.0000 C   0  0  0  0  0  0  0  0  0  0  0  0
   10.5403   -2.6648   -0.0000 C   0  0  0  0  0  0  0  0  0  0  0  0
   11.8370    4.1281   -0.0000 C   0  0  0  0  0  0  0  0  0  0  0  0
   14.4424   -1.9034   -0.0000 C   0  0  0  0  0  0  0  0  0  0  0  0
   15.7391    0.3569   -0.0000 C   0  0  0  0  0  0  0  0  0  0  0  0
    9.2198   -3.3905   -0.0000 C   0  0  0  0  0  0  0  0  0  0  0  0
   15.7391   -2.6410   -0.0000 C   0  0  0  0  0  0  0  0  0  0  0  0
   17.0358   -0.3807   -0.0000 C   0  0  0  0  0  0  0  0  0  0  0  0
   16.0365   -4.1043   -0.0000 O   0  0  0  0  0  0  0  0  0  0  0  0
   17.0358   -1.8797   -0.0000 C   0  0  0  0  0  0  0  0  0  0  0  0
   17.5236   -4.2471   -0.0000 C   0  0  0  0  0  0  0  0  0  0  0  0
   18.1303   -2.8790   -0.0000 N   0  0  0  0  0  0  0  0  0  0  0  0
   18.2612   -5.5319   -0.0000 N   0  0  0  0  0  0  0  0  0  0  0  0
   17.6426   -6.8881   -0.0000 C   0  0  0  0  0  0  0  0  0  0  0  0
   19.7482   -5.6746   -0.0000 C   0  0  0  0  0  0  0  0  0  0  0  0
   18.7489   -7.8755   -0.0000 C   0  0  0  0  0  0  0  0  0  0  0  0
   20.0457   -7.1260   -0.0000 C   0  0  0  0  0  0  0  0  0  0  0  0
  1  2  1  0  0  0  0
  1  3  1  0  0  0  0
  2  4  2  0  0  0  0
  2  5  1  0  0  0  0
  3  6  2  0  0  0  0
  5  7  1  0  0  0  0
  7  8  1  0  0  0  0
  8  9  2  0  0  0  0
  8 10  1  0  0  0  0
 11 10  1  6  0  0  0
 11 12  1  0  0  0  0
 11 13  1  0  0  0  0
 12 14  1  6  0  0  0
 12 15  1  0  0  0  0
 13 16  1  0  0  0  0
 15 17  1  0  0  0  0
 16 18  2  0  0  0  0
 16 19  1  0  0  0  0
 17 20  1  0  0  0  0
 17 21  1  0  0  0  0
 18 22  1  0  0  0  0
 19 23  2  0  0  0  0
 20 24  2  0  0  0  0
 20 25  1  0  0  0  0
 21 26  1  0  0  0  0
 22 27  2  0  0  0  0
 25 28  2  0  0  0  0
 25 29  1  0  0  0  0
 26 30  3  0  0  0  0
 28 31  1  0  0  0  0
 29 32  2  0  0  0  0
 31 33  1  0  0  0  0
 31 34  2  0  0  0  0
 33 35  1  0  0  0  0
 34 36  1  0  0  0  0
 35 37  1  0  0  0  0
 37 38  1  0  0  0  0
 37 39  1  0  0  0  0
 38 40  1  0  0  0  0
 39 41  1  0  0  0  0
  4  6  1  0  0  0  0
 23 27  1  0  0  0  0
 32 34  1  0  0  0  0
 35 36  2  0  0  0  0
 40 41  1  0  0  0  0
M  END
>  <MolRegNo>
1353276

>  <m>
=

>  <Value>
40

>  <Unit>
nM

>  <Type>
IC50

>  <pValue>
7.4

>  <Ligand Efficiency>
0

>  <Binding Efficiency>
0

>  <Surface Efficiency>
0

>  <Assay Index>
663293

>  <Assay Category>


>  <Assay Organism>
Homo sapiens

>  <Target ID>
17045

>  <Target Name>
Cytochrome P450 3A4

>  <Target Organism>
Homo sapiens

>  <Target Description>
Target is a single protein chain

>  <Sequence Accession>
P08684

>  <Reference>
Bioorg Med Chem Lett 22 (15), 4998-5002 (2012)

>  <Pubmed ID>
22765892

>  <DOI>
10.1016/j.bmcl.2012.06.022

$$$$
1353269
Actelion Java MolfileCreator 1.0

 39 42  0  0  0  0  0  0  0  0999 V2000
    0.0000   -0.0000   -0.0000 S   0  0  0  0  0  0  0  0  0  0  0  0
    1.4266   -0.4399   -0.0000 C   0  0  0  0  0  0  0  0  0  0  0  0
   -0.8916   -1.0462   -0.0000 C   0  0  0  0  0  0  0  0  0  0  0  0
    1.4266   -1.9378   -0.0000 C   0  0  0  0  0  0  0  0  0  0  0  0
    2.7937    0.2378   -0.0000 C   0  0  0  0  0  0  0  0  0  0  0  0
    0.0000   -2.4252   -0.0000 N   0  0  0  0  0  0  0  0  0  0  0  0
    4.0895   -0.4993   -0.0000 O   0  0  0  0  0  0  0  0  0  0  0  0
    5.3853    0.2615   -0.0000 C   0  0  0  0  0  0  0  0  0  0  0  0
    5.3734    1.7832   -0.0000 O   0  0  0  0  0  0  0  0  0  0  0  0
    6.6811   -0.4755   -0.0000 N   0  0  0  0  0  0  0  0  0  0  0  0
    7.9650    0.2853   -0.0000 C   0  0  0  0  0  0  0  0  0  0  0  0
    9.2608   -0.4517   -0.0000 C   0  0  0  0  0  0  0  0  0  0  0  0
    7.9531    1.8070   -0.0000 C   0  0  0  0  0  0  0  0  0  0  0  0
    9.2489   -1.9496   -0.0000 O   0  0  0  0  0  0  0  0  0  0  0  0
   10.5566    0.3091   -0.0000 C   0  0  0  0  0  0  0  0  0  0  0  0
    9.2489    2.5797   -0.0000 C   0  0  0  0  0  0  0  0  0  0  0  0
   11.8524   -0.4280   -0.0000 N   0  0  0  0  0  0  0  0  0  0  0  0
   10.5448    1.8308   -0.0000 C   0  0  0  0  0  0  0  0  0  0  0  0
    9.2371    4.0895   -0.0000 C   0  0  0  0  0  0  0  0  0  0  0  0
   13.1482    0.3329   -0.0000 C   0  0  0  0  0  0  0  0  0  0  0  0
   11.8406   -1.9259   -0.0000 C   0  0  0  0  0  0  0  0  0  0  0  0
   11.8406    2.6035   -0.0000 C   0  0  0  0  0  0  0  0  0  0  0  0
   10.5210    4.8503   -0.0000 C   0  0  0  0  0  0  0  0  0  0  0  0
   13.1364    1.8545   -0.0000 O   0  0  0  0  0  0  0  0  0  0  0  0
   14.4441   -0.4042   -0.0000 C   0  0  0  0  0  0  0  0  0  0  0  0
   11.0678   -3.2098   -0.0000 C   0  0  0  0  0  0  0  0  0  0  0  0
   11.8287    4.1252   -0.0000 C   0  0  0  0  0  0  0  0  0  0  0  0
   14.4322   -1.9021   -0.0000 C   0  0  0  0  0  0  0  0  0  0  0  0
   15.7280    0.3566   -0.0000 C   0  0  0  0  0  0  0  0  0  0  0  0
   11.7930   -4.5056   -0.0000 C   0  0  0  0  0  0  0  0  0  0  0  0
    9.5580   -3.1860   -0.0000 C   0  0  0  0  0  0  0  0  0  0  0  0
   15.7280   -2.6392   -0.0000 C   0  0  0  0  0  0  0  0  0  0  0  0
   17.0238   -0.3804   -0.0000 C   0  0  0  0  0  0  0  0  0  0  0  0
   16.0252   -4.1014   -0.0000 O   0  0  0  0  0  0  0  0  0  0  0  0
   17.0238   -1.8783   -0.0000 C   0  0  0  0  0  0  0  0  0  0  0  0
   17.5112   -4.2441   -0.0000 C   0  0  0  0  0  0  0  0  0  0  0  0
   18.1175   -2.8769   -0.0000 N   0  0  0  0  0  0  0  0  0  0  0  0
   18.2482   -5.5280   -0.0000 N   0  0  0  0  0  0  0  0  0  0  0  0
   17.4874   -6.8238   -0.0000 C   0  0  0  0  0  0  0  0  0  0  0  0
  1  2  1  0  0  0  0
  1  3  1  0  0  0  0
  2  4  2  0  0  0  0
  2  5  1  0  0  0  0
  3  6  2  0  0  0  0
  5  7  1  0  0  0  0
  7  8  1  0  0  0  0
  8  9  2  0  0  0  0
  8 10  1  0  0  0  0
 11 10  1  6  0  0  0
 11 12  1  0  0  0  0
 11 13  1  0  0  0  0
 12 14  1  6  0  0  0
 12 15  1  0  0  0  0
 13 16  1  0  0  0  0
 15 17  1  0  0  0  0
 16 18  2  0  0  0  0
 16 19  1  0  0  0  0
 17 20  1  0  0  0  0
 17 21  1  0  0  0  0
 18 22  1  0  0  0  0
 19 23  2  0  0  0  0
 20 24  2  0  0  0  0
 20 25  1  0  0  0  0
 21 26  1  0  0  0  0
 22 27  2  0  0  0  0
 25 28  2  0  0  0  0
 25 29  1  0  0  0  0
 26 30  1  0  0  0  0
 26 31  1  0  0  0  0
 28 32  1  0  0  0  0
 29 33  2  0  0  0  0
 32 34  1  0  0  0  0
 32 35  2  0  0  0  0
 34 36  1  0  0  0  0
 35 37  1  0  0  0  0
 36 38  1  0  0  0  0
 38 39  1  0  0  0  0
  4  6  1  0  0  0  0
 23 27  1  0  0  0  0
 33 35  1  0  0  0  0
 36 37  2  0  0  0  0
M  END
>  <MolRegNo>
1353269

>  <m>
=

>  <Value>
41

>  <Unit>
nM

>  <Type>
IC50

>  <pValue>
7.39

>  <Ligand Efficiency>
0

>  <Binding Efficiency>
0

>  <Surface Efficiency>
0

>  <Assay Index>
663293

>  <Assay Category>


>  <Assay Organism>
Homo sapiens

>  <Target ID>
17045

>  <Target Name>
Cytochrome P450 3A4

>  <Target Organism>
Homo sapiens

>  <Target Description>
Target is a single protein chain

>  <Sequence Accession>
P08684

>  <Reference>
Bioorg Med Chem Lett 22 (15), 4998-5002 (2012)

>  <Pubmed ID>
22765892

>  <DOI>
10.1016/j.bmcl.2012.06.022

$$$$
1354667
Actelion Java MolfileCreator 1.0

 38 41  0  0  0  0  0  0  0  0999 V2000
    0.0000   -0.0000   -0.0000 S   0  0  0  0  0  0  0  0  0  0  0  0
    1.3653   -0.6055   -0.0000 C   0  0  0  0  0  0  0  0  0  0  0  0
   -1.0210   -1.1041   -0.0000 C   0  0  0  0  0  0  0  0  0  0  0  0
    1.1991   -2.0896   -0.0000 C   0  0  0  0  0  0  0  0  0  0  0  0
    2.6594    0.1662   -0.0000 C   0  0  0  0  0  0  0  0  0  0  0  0
   -0.2731   -2.3982   -0.0000 N   0  0  0  0  0  0  0  0  0  0  0  0
    3.9535   -0.5818   -0.0000 O   0  0  0  0  0  0  0  0  0  0  0  0
    5.2358    0.1900   -0.0000 C   0  0  0  0  0  0  0  0  0  0  0  0
    5.2239    1.7096   -0.0000 O   0  0  0  0  0  0  0  0  0  0  0  0
    6.5299   -0.5580   -0.0000 N   0  0  0  0  0  0  0  0  0  0  0  0
    7.8240    0.2137   -0.0000 C   0  0  0  0  0  0  0  0  0  0  0  0
    9.1181   -0.5343   -0.0000 C   0  0  0  0  0  0  0  0  0  0  0  0
    7.8121    1.7334   -0.0000 C   0  0  0  0  0  0  0  0  0  0  0  0
    9.1062   -2.0302   -0.0000 O   0  0  0  0  0  0  0  0  0  0  0  0
   10.4122    0.2374   -0.0000 C   0  0  0  0  0  0  0  0  0  0  0  0
    9.1062    2.4932   -0.0000 C   0  0  0  0  0  0  0  0  0  0  0  0
   11.7063   -0.5105   -0.0000 N   0  0  0  0  0  0  0  0  0  0  0  0
   10.4003    1.7453   -0.0000 C   0  0  0  0  0  0  0  0  0  0  0  0
    9.0943    4.0010   -0.0000 C   0  0  0  0  0  0  0  0  0  0  0  0
   13.0004    0.2612   -0.0000 C   0  0  0  0  0  0  0  0  0  0  0  0
   11.6944   -2.0064   -0.0000 C   0  0  0  0  0  0  0  0  0  0  0  0
   11.6944    2.5051   -0.0000 C   0  0  0  0  0  0  0  0  0  0  0  0
   10.3765    4.7727   -0.0000 C   0  0  0  0  0  0  0  0  0  0  0  0
   12.9885    1.7809   -0.0000 O   0  0  0  0  0  0  0  0  0  0  0  0
   14.2945   -0.4868   -0.0000 C   0  0  0  0  0  0  0  0  0  0  0  0
   10.7802   -3.2056   -0.0000 C   0  0  0  0  0  0  0  0  0  0  0  0
   11.6825    4.0248   -0.0000 C   0  0  0  0  0  0  0  0  0  0  0  0
   14.2826   -1.9827   -0.0000 C   0  0  0  0  0  0  0  0  0  0  0  0
   15.5767    0.2849   -0.0000 C   0  0  0  0  0  0  0  0  0  0  0  0
   11.3738   -4.5709   -0.0000 C   0  0  0  0  0  0  0  0  0  0  0  0
    9.2724   -3.0275   -0.0000 C   0  0  0  0  0  0  0  0  0  0  0  0
   15.5648   -2.7188   -0.0000 C   0  0  0  0  0  0  0  0  0  0  0  0
   16.8708   -0.4512   -0.0000 C   0  0  0  0  0  0  0  0  0  0  0  0
   15.8735   -4.1791   -0.0000 O   0  0  0  0  0  0  0  0  0  0  0  0
   16.8589   -1.9590   -0.0000 C   0  0  0  0  0  0  0  0  0  0  0  0
   17.3576   -4.3216   -0.0000 C   0  0  0  0  0  0  0  0  0  0  0  0
   17.9631   -2.9562   -0.0000 N   0  0  0  0  0  0  0  0  0  0  0  0
   18.0937   -5.6157   -0.0000 N   0  0  0  0  0  0  0  0  0  0  0  0
  1  2  1  0  0  0  0
  1  3  1  0  0  0  0
  2  4  2  0  0  0  0
  2  5  1  0  0  0  0
  3  6  2  0  0  0  0
  5  7  1  0  0  0  0
  7  8  1  0  0  0  0
  8  9  2  0  0  0  0
  8 10  1  0  0  0  0
 11 10  1  6  0  0  0
 11 12  1  0  0  0  0
 11 13  1  0  0  0  0
 12 14  1  6  0  0  0
 12 15  1  0  0  0  0
 13 16  1  0  0  0  0
 15 17  1  0  0  0  0
 16 18  2  0  0  0  0
 16 19  1  0  0  0  0
 17 20  1  0  0  0  0
 17 21  1  0  0  0  0
 18 22  1  0  0  0  0
 19 23  2  0  0  0  0
 20 24  2  0  0  0  0
 20 25  1  0  0  0  0
 21 26  1  0  0  0  0
 22 27  2  0  0  0  0
 25 28  2  0  0  0  0
 25 29  1  0  0  0  0
 26 30  1  0  0  0  0
 26 31  1  0  0  0  0
 28 32  1  0  0  0  0
 29 33  2  0  0  0  0
 32 34  1  0  0  0  0
 32 35  2  0  0  0  0
 34 36  1  0  0  0  0
 35 37  1  0  0  0  0
 36 38  1  0  0  0  0
  4  6  1  0  0  0  0
 23 27  1  0  0  0  0
 33 35  1  0  0  0  0
 36 37  2  0  0  0  0
M  END
>  <MolRegNo>
1354667

>  <m>
=

>  <Value>
42

>  <Unit>
nM

>  <Type>
IC50

>  <pValue>
7.38

>  <Ligand Efficiency>
0

>  <Binding Efficiency>
0

>  <Surface Efficiency>
0

>  <Assay Index>
663293

>  <Assay Category>


>  <Assay Organism>
Homo sapiens

>  <Target ID>
17045

>  <Target Name>
Cytochrome P450 3A4

>  <Target Organism>
Homo sapiens

>  <Target Description>
Target is a single protein chain

>  <Sequence Accession>
P08684

>  <Reference>
Bioorg Med Chem Lett 22 (15), 4998-5002 (2012)

>  <Pubmed ID>
22765892

>  <DOI>
10.1016/j.bmcl.2012.06.022

$$$$
1354669
Actelion Java MolfileCreator 1.0

 45 49  0  0  0  0  0  0  0  0999 V2000
    0.0000   -0.0000   -0.0000 O   0  0  0  0  0  0  0  0  0  0  0  0
   -0.0119   -1.4963   -0.0000 C   0  0  0  0  0  0  0  0  0  0  0  0
   -1.3300   -2.2325   -0.0000 O   0  0  0  0  0  0  0  0  0  0  0  0
    1.2825   -2.2325   -0.0000 N   0  0  0  0  0  0  0  0  0  0  0  0
   -2.6482   -1.4725   -0.0000 C   0  0  0  0  0  0  0  0  0  0  0  0
    2.5650   -1.4725   -0.0000 C   0  0  0  0  0  0  0  0  0  0  0  0
   -3.9663   -2.2088   -0.0000 C   0  0  0  0  0  0  0  0  0  0  0  0
    3.8594   -2.2088   -0.0000 C   0  0  0  0  0  0  0  0  0  0  0  0
    2.5532    0.0475   -0.0000 C   0  0  0  0  0  0  0  0  0  0  0  0
   -5.2844   -1.4488   -0.0000 C   0  0  0  0  0  0  0  0  0  0  0  0
   -3.9782   -3.6932   -0.0000 C   0  0  0  0  0  0  0  0  0  0  0  0
    3.8475   -3.7050   -0.0000 O   0  0  0  0  0  0  0  0  0  0  0  0
    5.1538   -1.4488   -0.0000 C   0  0  0  0  0  0  0  0  0  0  0  0
    3.8475    0.8194   -0.0000 C   0  0  0  0  0  0  0  0  0  0  0  0
   -6.5907   -2.1850   -0.0000 C   0  0  0  0  0  0  0  0  0  0  0  0
   -5.2963   -4.4294   -0.0000 C   0  0  0  0  0  0  0  0  0  0  0  0
    6.4482   -2.1850   -0.0000 N   0  0  0  0  0  0  0  0  0  0  0  0
    5.1419    0.0713   -0.0000 C   0  0  0  0  0  0  0  0  0  0  0  0
    3.8357    2.3275   -0.0000 C   0  0  0  0  0  0  0  0  0  0  0  0
   -8.0395   -1.7100   -0.0000 O   0  0  0  0  0  0  0  0  0  0  0  0
   -6.6026   -3.6694   -0.0000 C   0  0  0  0  0  0  0  0  0  0  0  0
    7.7426   -1.4250   -0.0000 C   0  0  0  0  0  0  0  0  0  0  0  0
    6.4363   -3.6813   -0.0000 C   0  0  0  0  0  0  0  0  0  0  0  0
    6.4363    0.8431   -0.0000 C   0  0  0  0  0  0  0  0  0  0  0  0
    5.1182    3.0875   -0.0000 C   0  0  0  0  0  0  0  0  0  0  0  0
   -8.9301   -2.9094   -0.0000 C   0  0  0  0  0  0  0  0  0  0  0  0
   -8.0513   -4.1207   -0.0000 O   0  0  0  0  0  0  0  0  0  0  0  0
    7.7307    0.0950   -0.0000 O   0  0  0  0  0  0  0  0  0  0  0  0
    9.0370   -2.1613   -0.0000 C   0  0  0  0  0  0  0  0  0  0  0  0
    5.5219   -4.8807   -0.0000 C   0  0  0  0  0  0  0  0  0  0  0  0
    6.4244    2.3631   -0.0000 C   0  0  0  0  0  0  0  0  0  0  0  0
    9.0251   -3.6575   -0.0000 C   0  0  0  0  0  0  0  0  0  0  0  0
   10.3195   -1.4013   -0.0000 C   0  0  0  0  0  0  0  0  0  0  0  0
    6.1157   -6.2463   -0.0000 C   0  0  0  0  0  0  0  0  0  0  0  0
    4.0138   -4.7025   -0.0000 C   0  0  0  0  0  0  0  0  0  0  0  0
   10.3195   -4.3938   -0.0000 C   0  0  0  0  0  0  0  0  0  0  0  0
   11.6139   -2.1375   -0.0000 C   0  0  0  0  0  0  0  0  0  0  0  0
   10.6164   -5.8544   -0.0000 O   0  0  0  0  0  0  0  0  0  0  0  0
   11.6139   -3.6338   -0.0000 C   0  0  0  0  0  0  0  0  0  0  0  0
   12.1007   -5.9969   -0.0000 C   0  0  0  0  0  0  0  0  0  0  0  0
   12.7064   -4.6313   -0.0000 N   0  0  0  0  0  0  0  0  0  0  0  0
   12.8370   -7.2913   -0.0000 N   0  0  0  0  0  0  0  0  0  0  0  0
   14.3333   -7.2794   -0.0000 C   0  0  0  0  0  0  0  0  0  0  0  0
   12.0770   -8.5857   -0.0000 C   0  0  0  0  0  0  0  0  0  0  0  0
   15.0814   -8.5738   -0.0000 C   0  0  0  0  0  0  0  0  0  0  0  0
  1  2  2  0  0  0  0
  2  3  1  0  0  0  0
  2  4  1  0  0  0  0
  3  5  1  0  0  0  0
  6  4  1  6  0  0  0
  5  7  1  0  0  0  0
  6  8  1  0  0  0  0
  6  9  1  0  0  0  0
  7 10  2  0  0  0  0
  7 11  1  0  0  0  0
  8 12  1  6  0  0  0
  8 13  1  0  0  0  0
  9 14  1  0  0  0  0
 10 15  1  0  0  0  0
 11 16  2  0  0  0  0
 13 17  1  0  0  0  0
 14 18  2  0  0  0  0
 14 19  1  0  0  0  0
 15 20  1  0  0  0  0
 15 21  2  0  0  0  0
 17 22  1  0  0  0  0
 17 23  1  0  0  0  0
 18 24  1  0  0  0  0
 19 25  2  0  0  0  0
 20 26  1  0  0  0  0
 21 27  1  0  0  0  0
 22 28  2  0  0  0  0
 22 29  1  0  0  0  0
 23 30  1  0  0  0  0
 24 31  2  0  0  0  0
 29 32  2  0  0  0  0
 29 33  1  0  0  0  0
 30 34  1  0  0  0  0
 30 35  1  0  0  0  0
 32 36  1  0  0  0  0
 33 37  2  0  0  0  0
 36 38  1  0  0  0  0
 36 39  2  0  0  0  0
 38 40  1  0  0  0  0
 39 41  1  0  0  0  0
 40 42  1  0  0  0  0
 42 43  1  0  0  0  0
 42 44  1  0  0  0  0
 43 45  1  0  0  0  0
 16 21  1  0  0  0  0
 25 31  1  0  0  0  0
 26 27  1  0  0  0  0
 37 39  1  0  0  0  0
 40 41  2  0  0  0  0
M  END
>  <MolRegNo>
1354669

>  <m>
=

>  <Value>
44

>  <Unit>
nM

>  <Type>
IC50

>  <pValue>
7.36

>  <Ligand Efficiency>
0

>  <Binding Efficiency>
0

>  <Surface Efficiency>
0

>  <Assay Index>
663293

>  <Assay Category>


>  <Assay Organism>
Homo sapiens

>  <Target ID>
17045

>  <Target Name>
Cytochrome P450 3A4

>  <Target Organism>
Homo sapiens

>  <Target Description>
Target is a single protein chain

>  <Sequence Accession>
P08684

>  <Reference>
Bioorg Med Chem Lett 22 (15), 4998-5002 (2012)

>  <Pubmed ID>
22765892

>  <DOI>
10.1016/j.bmcl.2012.06.022

$$$$
1354670
Actelion Java MolfileCreator 1.0

 38 41  0  0  0  0  0  0  0  0999 V2000
    0.0000   -0.0000   -0.0000 S   0  0  0  0  0  0  0  0  0  0  0  0
    1.3651   -0.6054   -0.0000 C   0  0  0  0  0  0  0  0  0  0  0  0
   -1.0208   -1.1158   -0.0000 C   0  0  0  0  0  0  0  0  0  0  0  0
    1.1989   -2.0892   -0.0000 C   0  0  0  0  0  0  0  0  0  0  0  0
    2.6590    0.1662   -0.0000 C   0  0  0  0  0  0  0  0  0  0  0  0
   -0.2730   -2.4097   -0.0000 N   0  0  0  0  0  0  0  0  0  0  0  0
    3.9528   -0.5816   -0.0000 O   0  0  0  0  0  0  0  0  0  0  0  0
    5.2348    0.1899   -0.0000 C   0  0  0  0  0  0  0  0  0  0  0  0
    5.2229    1.7093   -0.0000 O   0  0  0  0  0  0  0  0  0  0  0  0
    6.5287   -0.5579   -0.0000 N   0  0  0  0  0  0  0  0  0  0  0  0
    7.8225    0.2137   -0.0000 C   0  0  0  0  0  0  0  0  0  0  0  0
    9.1164   -0.5342   -0.0000 C   0  0  0  0  0  0  0  0  0  0  0  0
    7.8107    1.7331   -0.0000 C   0  0  0  0  0  0  0  0  0  0  0  0
    9.1045   -2.0298   -0.0000 O   0  0  0  0  0  0  0  0  0  0  0  0
   10.4103    0.2374   -0.0000 C   0  0  0  0  0  0  0  0  0  0  0  0
    9.1045    2.4928   -0.0000 C   0  0  0  0  0  0  0  0  0  0  0  0
   11.7041   -0.5104   -0.0000 N   0  0  0  0  0  0  0  0  0  0  0  0
   10.3984    1.7449   -0.0000 C   0  0  0  0  0  0  0  0  0  0  0  0
    9.0927    4.0003   -0.0000 C   0  0  0  0  0  0  0  0  0  0  0  0
   12.9980    0.2611   -0.0000 C   0  0  0  0  0  0  0  0  0  0  0  0
   11.6923   -2.0061   -0.0000 C   0  0  0  0  0  0  0  0  0  0  0  0
   11.6923    2.5046   -0.0000 C   0  0  0  0  0  0  0  0  0  0  0  0
   10.3747    4.7719   -0.0000 C   0  0  0  0  0  0  0  0  0  0  0  0
   12.9861    1.7805   -0.0000 O   0  0  0  0  0  0  0  0  0  0  0  0
   14.2919   -0.4867   -0.0000 C   0  0  0  0  0  0  0  0  0  0  0  0
   10.7782   -3.2050   -0.0000 C   0  0  0  0  0  0  0  0  0  0  0  0
   11.6804    4.0240   -0.0000 C   0  0  0  0  0  0  0  0  0  0  0  0
   14.2800   -1.9823   -0.0000 C   0  0  0  0  0  0  0  0  0  0  0  0
   15.5739    0.2849   -0.0000 C   0  0  0  0  0  0  0  0  0  0  0  0
   11.3718   -4.5701   -0.0000 C   0  0  0  0  0  0  0  0  0  0  0  0
    9.2707   -3.0269   -0.0000 C   0  0  0  0  0  0  0  0  0  0  0  0
   15.5620   -2.7183   -0.0000 C   0  0  0  0  0  0  0  0  0  0  0  0
   16.8677   -0.4511   -0.0000 C   0  0  0  0  0  0  0  0  0  0  0  0
   15.8706   -4.1784   -0.0000 O   0  0  0  0  0  0  0  0  0  0  0  0
   16.8558   -1.9586   -0.0000 C   0  0  0  0  0  0  0  0  0  0  0  0
   17.3544   -4.3208   -0.0000 C   0  0  0  0  0  0  0  0  0  0  0  0
   17.9598   -2.9557   -0.0000 N   0  0  0  0  0  0  0  0  0  0  0  0
   18.0904   -5.6147   -0.0000 C   0  0  0  0  0  0  0  0  0  0  0  0
  1  2  1  0  0  0  0
  1  3  1  0  0  0  0
  2  4  2  0  0  0  0
  2  5  1  0  0  0  0
  3  6  2  0  0  0  0
  5  7  1  0  0  0  0
  7  8  1  0  0  0  0
  8  9  2  0  0  0  0
  8 10  1  0  0  0  0
 11 10  1  6  0  0  0
 11 12  1  0  0  0  0
 11 13  1  0  0  0  0
 12 14  1  6  0  0  0
 12 15  1  0  0  0  0
 13 16  1  0  0  0  0
 15 17  1  0  0  0  0
 16 18  2  0  0  0  0
 16 19  1  0  0  0  0
 17 20  1  0  0  0  0
 17 21  1  0  0  0  0
 18 22  1  0  0  0  0
 19 23  2  0  0  0  0
 20 24  2  0  0  0  0
 20 25  1  0  0  0  0
 21 26  1  0  0  0  0
 22 27  2  0  0  0  0
 25 28  2  0  0  0  0
 25 29  1  0  0  0  0
 26 30  1  0  0  0  0
 26 31  1  0  0  0  0
 28 32  1  0  0  0  0
 29 33  2  0  0  0  0
 32 34  1  0  0  0  0
 32 35  2  0  0  0  0
 34 36  1  0  0  0  0
 35 37  1  0  0  0  0
 36 38  1  0  0  0  0
  4  6  1  0  0  0  0
 23 27  1  0  0  0  0
 33 35  1  0  0  0  0
 36 37  2  0  0  0  0
M  END
>  <MolRegNo>
1354670

>  <m>
=

>  <Value>
52

>  <Unit>
nM

>  <Type>
IC50

>  <pValue>
7.28

>  <Ligand Efficiency>
0

>  <Binding Efficiency>
0

>  <Surface Efficiency>
0

>  <Assay Index>
663293

>  <Assay Category>


>  <Assay Organism>
Homo sapiens

>  <Target ID>
17045

>  <Target Name>
Cytochrome P450 3A4

>  <Target Organism>
Homo sapiens

>  <Target Description>
Target is a single protein chain

>  <Sequence Accession>
P08684

>  <Reference>
Bioorg Med Chem Lett 22 (15), 4998-5002 (2012)

>  <Pubmed ID>
22765892

>  <DOI>
10.1016/j.bmcl.2012.06.022

$$$$
1354887
Actelion Java MolfileCreator 1.0

 40 43  0  0  0  0  0  0  0  0999 V2000
    0.0000   -0.0000   -0.0000 S   0  0  0  0  0  0  0  0  0  0  0  0
    1.4264   -0.4398   -0.0000 C   0  0  0  0  0  0  0  0  0  0  0  0
   -0.8915   -1.0460   -0.0000 C   0  0  0  0  0  0  0  0  0  0  0  0
    1.4264   -1.9375   -0.0000 C   0  0  0  0  0  0  0  0  0  0  0  0
    2.7933    0.2377   -0.0000 C   0  0  0  0  0  0  0  0  0  0  0  0
    0.0000   -2.4248   -0.0000 N   0  0  0  0  0  0  0  0  0  0  0  0
    4.0889   -0.4992   -0.0000 O   0  0  0  0  0  0  0  0  0  0  0  0
    5.3845    0.2615   -0.0000 C   0  0  0  0  0  0  0  0  0  0  0  0
    5.3726    1.7830   -0.0000 O   0  0  0  0  0  0  0  0  0  0  0  0
    6.6801   -0.4755   -0.0000 N   0  0  0  0  0  0  0  0  0  0  0  0
    7.9639    0.2853   -0.0000 C   0  0  0  0  0  0  0  0  0  0  0  0
    9.2595   -0.4517   -0.0000 C   0  0  0  0  0  0  0  0  0  0  0  0
    7.9520    1.8067   -0.0000 C   0  0  0  0  0  0  0  0  0  0  0  0
    9.2476   -1.9494   -0.0000 O   0  0  0  0  0  0  0  0  0  0  0  0
   10.5551    0.3090   -0.0000 C   0  0  0  0  0  0  0  0  0  0  0  0
    9.2476    2.5793   -0.0000 C   0  0  0  0  0  0  0  0  0  0  0  0
   11.8507   -0.4279   -0.0000 N   0  0  0  0  0  0  0  0  0  0  0  0
   10.5432    1.8305   -0.0000 C   0  0  0  0  0  0  0  0  0  0  0  0
    9.2357    4.0889   -0.0000 C   0  0  0  0  0  0  0  0  0  0  0  0
   13.1463    0.3328   -0.0000 C   0  0  0  0  0  0  0  0  0  0  0  0
   11.8388   -1.9256   -0.0000 C   0  0  0  0  0  0  0  0  0  0  0  0
   11.8388    2.6031   -0.0000 C   0  0  0  0  0  0  0  0  0  0  0  0
   10.5194    4.8496   -0.0000 C   0  0  0  0  0  0  0  0  0  0  0  0
   13.1344    1.8543   -0.0000 O   0  0  0  0  0  0  0  0  0  0  0  0
   14.4419   -0.4041   -0.0000 C   0  0  0  0  0  0  0  0  0  0  0  0
   10.9236   -3.1261   -0.0000 C   0  0  0  0  0  0  0  0  0  0  0  0
   11.8269    4.1246   -0.0000 C   0  0  0  0  0  0  0  0  0  0  0  0
   14.4300   -1.9018   -0.0000 C   0  0  0  0  0  0  0  0  0  0  0  0
   15.7256    0.3566   -0.0000 C   0  0  0  0  0  0  0  0  0  0  0  0
   11.5179   -4.4930   -0.0000 C   0  0  0  0  0  0  0  0  0  0  0  0
    9.4140   -2.9478   -0.0000 C   0  0  0  0  0  0  0  0  0  0  0  0
   15.7256   -2.6388   -0.0000 C   0  0  0  0  0  0  0  0  0  0  0  0
   17.0213   -0.3804   -0.0000 C   0  0  0  0  0  0  0  0  0  0  0  0
   16.0228   -4.1008   -0.0000 O   0  0  0  0  0  0  0  0  0  0  0  0
   17.0213   -1.8780   -0.0000 C   0  0  0  0  0  0  0  0  0  0  0  0
   17.5086   -4.2434   -0.0000 C   0  0  0  0  0  0  0  0  0  0  0  0
   18.1148   -2.8765   -0.0000 N   0  0  0  0  0  0  0  0  0  0  0  0
   18.2456   -5.5272   -0.0000 N   0  0  0  0  0  0  0  0  0  0  0  0
   17.4729   -6.8109   -0.0000 C   0  0  0  0  0  0  0  0  0  0  0  0
   19.7313   -5.5034   -0.0000 C   0  0  0  0  0  0  0  0  0  0  0  0
  1  2  1  0  0  0  0
  1  3  1  0  0  0  0
  2  4  2  0  0  0  0
  2  5  1  0  0  0  0
  3  6  2  0  0  0  0
  5  7  1  0  0  0  0
  7  8  1  0  0  0  0
  8  9  2  0  0  0  0
  8 10  1  0  0  0  0
 11 10  1  6  0  0  0
 11 12  1  0  0  0  0
 11 13  1  0  0  0  0
 12 14  1  6  0  0  0
 12 15  1  0  0  0  0
 13 16  1  0  0  0  0
 15 17  1  0  0  0  0
 16 18  2  0  0  0  0
 16 19  1  0  0  0  0
 17 20  1  0  0  0  0
 17 21  1  0  0  0  0
 18 22  1  0  0  0  0
 19 23  2  0  0  0  0
 20 24  2  0  0  0  0
 20 25  1  0  0  0  0
 21 26  1  0  0  0  0
 22 27  2  0  0  0  0
 25 28  2  0  0  0  0
 25 29  1  0  0  0  0
 26 30  1  0  0  0  0
 26 31  1  0  0  0  0
 28 32  1  0  0  0  0
 29 33  2  0  0  0  0
 32 34  1  0  0  0  0
 32 35  2  0  0  0  0
 34 36  1  0  0  0  0
 35 37  1  0  0  0  0
 36 38  1  0  0  0  0
 38 39  1  0  0  0  0
 38 40  1  0  0  0  0
  4  6  1  0  0  0  0
 23 27  1  0  0  0  0
 33 35  1  0  0  0  0
 36 37  2  0  0  0  0
M  END
>  <MolRegNo>
1354887

>  <m>
=

>  <Value>
53

>  <Unit>
nM

>  <Type>
IC50

>  <pValue>
7.28

>  <Ligand Efficiency>
0

>  <Binding Efficiency>
0

>  <Surface Efficiency>
0

>  <Assay Index>
663293

>  <Assay Category>


>  <Assay Organism>
Homo sapiens

>  <Target ID>
17045

>  <Target Name>
Cytochrome P450 3A4

>  <Target Organism>
Homo sapiens

>  <Target Description>
Target is a single protein chain

>  <Sequence Accession>
P08684

>  <Reference>
Bioorg Med Chem Lett 22 (15), 4998-5002 (2012)

>  <Pubmed ID>
22765892

>  <DOI>
10.1016/j.bmcl.2012.06.022

$$$$
1353280
Actelion Java MolfileCreator 1.0

 37 40  0  0  0  0  0  0  0  0999 V2000
    0.0000   -0.0000   -0.0000 S   0  0  0  0  0  0  0  0  0  0  0  0
    1.4263   -0.4398   -0.0000 C   0  0  0  0  0  0  0  0  0  0  0  0
   -0.8915   -1.0460   -0.0000 C   0  0  0  0  0  0  0  0  0  0  0  0
    1.4144   -1.9374   -0.0000 C   0  0  0  0  0  0  0  0  0  0  0  0
    2.7932    0.2377   -0.0000 C   0  0  0  0  0  0  0  0  0  0  0  0
   -0.0119   -2.4247   -0.0000 N   0  0  0  0  0  0  0  0  0  0  0  0
    4.0888   -0.4992   -0.0000 O   0  0  0  0  0  0  0  0  0  0  0  0
    5.3844    0.2615   -0.0000 C   0  0  0  0  0  0  0  0  0  0  0  0
    5.3725    1.7829   -0.0000 O   0  0  0  0  0  0  0  0  0  0  0  0
    6.6799   -0.4754   -0.0000 N   0  0  0  0  0  0  0  0  0  0  0  0
    7.9636    0.2853   -0.0000 C   0  0  0  0  0  0  0  0  0  0  0  0
    9.2592   -0.4517   -0.0000 C   0  0  0  0  0  0  0  0  0  0  0  0
    7.9517    1.8067   -0.0000 C   0  0  0  0  0  0  0  0  0  0  0  0
    9.2473   -1.9493   -0.0000 O   0  0  0  0  0  0  0  0  0  0  0  0
   10.5548    0.3090   -0.0000 C   0  0  0  0  0  0  0  0  0  0  0  0
    9.2473    2.5793   -0.0000 C   0  0  0  0  0  0  0  0  0  0  0  0
   11.8504   -0.4279   -0.0000 N   0  0  0  0  0  0  0  0  0  0  0  0
   10.5429    1.8304   -0.0000 C   0  0  0  0  0  0  0  0  0  0  0  0
    9.2354    4.0888   -0.0000 C   0  0  0  0  0  0  0  0  0  0  0  0
   13.1459    0.3328   -0.0000 C   0  0  0  0  0  0  0  0  0  0  0  0
   11.8385   -1.9255   -0.0000 C   0  0  0  0  0  0  0  0  0  0  0  0
   11.8385    2.6030   -0.0000 C   0  0  0  0  0  0  0  0  0  0  0  0
   10.5191    4.8495   -0.0000 C   0  0  0  0  0  0  0  0  0  0  0  0
   13.1341    1.8542   -0.0000 O   0  0  0  0  0  0  0  0  0  0  0  0
   14.4415   -0.4041   -0.0000 C   0  0  0  0  0  0  0  0  0  0  0  0
   11.0659   -3.2092   -0.0000 C   0  0  0  0  0  0  0  0  0  0  0  0
   11.8266    4.1245   -0.0000 C   0  0  0  0  0  0  0  0  0  0  0  0
   14.4296   -1.9018   -0.0000 C   0  0  0  0  0  0  0  0  0  0  0  0
   15.7252    0.3566   -0.0000 C   0  0  0  0  0  0  0  0  0  0  0  0
    9.5564   -3.1855   -0.0000 C   0  0  0  0  0  0  0  0  0  0  0  0
   11.7909   -4.5048   -0.0000 C   0  0  0  0  0  0  0  0  0  0  0  0
   15.7252   -2.6387   -0.0000 C   0  0  0  0  0  0  0  0  0  0  0  0
   17.0208   -0.3804   -0.0000 C   0  0  0  0  0  0  0  0  0  0  0  0
   16.0224   -4.1007   -0.0000 O   0  0  0  0  0  0  0  0  0  0  0  0
   17.0208   -1.8780   -0.0000 C   0  0  0  0  0  0  0  0  0  0  0  0
   17.5081   -4.2433   -0.0000 C   0  0  0  0  0  0  0  0  0  0  0  0
   18.1143   -2.8764   -0.0000 N   0  0  0  0  0  0  0  0  0  0  0  0
  1  2  1  0  0  0  0
  1  3  1  0  0  0  0
  2  4  2  0  0  0  0
  2  5  1  0  0  0  0
  3  6  2  0  0  0  0
  5  7  1  0  0  0  0
  7  8  1  0  0  0  0
  8  9  2  0  0  0  0
  8 10  1  0  0  0  0
 11 10  1  6  0  0  0
 11 12  1  0  0  0  0
 11 13  1  0  0  0  0
 12 14  1  6  0  0  0
 12 15  1  0  0  0  0
 13 16  1  0  0  0  0
 15 17  1  0  0  0  0
 16 18  2  0  0  0  0
 16 19  1  0  0  0  0
 17 20  1  0  0  0  0
 17 21  1  0  0  0  0
 18 22  1  0  0  0  0
 19 23  2  0  0  0  0
 20 24  2  0  0  0  0
 20 25  1  0  0  0  0
 21 26  1  0  0  0  0
 22 27  2  0  0  0  0
 25 28  2  0  0  0  0
 25 29  1  0  0  0  0
 26 30  1  0  0  0  0
 26 31  1  0  0  0  0
 28 32  1  0  0  0  0
 29 33  2  0  0  0  0
 32 34  1  0  0  0  0
 32 35  2  0  0  0  0
 34 36  1  0  0  0  0
 35 37  1  0  0  0  0
  4  6  1  0  0  0  0
 23 27  1  0  0  0  0
 33 35  1  0  0  0  0
 36 37  2  0  0  0  0
M  END
>  <MolRegNo>
1353280

>  <m>
=

>  <Value>
55

>  <Unit>
nM

>  <Type>
IC50

>  <pValue>
7.26

>  <Ligand Efficiency>
0

>  <Binding Efficiency>
0

>  <Surface Efficiency>
0

>  <Assay Index>
663293

>  <Assay Category>


>  <Assay Organism>
Homo sapiens

>  <Target ID>
17045

>  <Target Name>
Cytochrome P450 3A4

>  <Target Organism>
Homo sapiens

>  <Target Description>
Target is a single protein chain

>  <Sequence Accession>
P08684

>  <Reference>
Bioorg Med Chem Lett 22 (15), 4998-5002 (2012)

>  <Pubmed ID>
22765892

>  <DOI>
10.1016/j.bmcl.2012.06.022

$$$$
1353273
Actelion Java MolfileCreator 1.0

 40 44  0  0  0  0  0  0  0  0999 V2000
    0.0000   -0.0000   -0.0000 S   0  0  0  0  0  0  0  0  0  0  0  0
    1.4276   -0.4402   -0.0000 C   0  0  0  0  0  0  0  0  0  0  0  0
   -0.8922   -1.0469   -0.0000 C   0  0  0  0  0  0  0  0  0  0  0  0
    1.4276   -1.9392   -0.0000 C   0  0  0  0  0  0  0  0  0  0  0  0
    2.7957    0.2379   -0.0000 C   0  0  0  0  0  0  0  0  0  0  0  0
    0.0000   -2.4269   -0.0000 N   0  0  0  0  0  0  0  0  0  0  0  0
    4.0925   -0.4997   -0.0000 O   0  0  0  0  0  0  0  0  0  0  0  0
    5.3892    0.2617   -0.0000 C   0  0  0  0  0  0  0  0  0  0  0  0
    5.3773    1.7845   -0.0000 O   0  0  0  0  0  0  0  0  0  0  0  0
    6.6859   -0.4759   -0.0000 N   0  0  0  0  0  0  0  0  0  0  0  0
    7.9708    0.2855   -0.0000 C   0  0  0  0  0  0  0  0  0  0  0  0
    9.2675   -0.4521   -0.0000 C   0  0  0  0  0  0  0  0  0  0  0  0
    7.9589    1.8083   -0.0000 C   0  0  0  0  0  0  0  0  0  0  0  0
    9.2556   -1.9511   -0.0000 O   0  0  0  0  0  0  0  0  0  0  0  0
   10.5642    0.3093   -0.0000 C   0  0  0  0  0  0  0  0  0  0  0  0
    9.2556    2.5816   -0.0000 C   0  0  0  0  0  0  0  0  0  0  0  0
   11.8610   -0.4283   -0.0000 N   0  0  0  0  0  0  0  0  0  0  0  0
   10.5523    1.8321   -0.0000 C   0  0  0  0  0  0  0  0  0  0  0  0
    9.2437    4.0925   -0.0000 C   0  0  0  0  0  0  0  0  0  0  0  0
   13.1577    0.3331   -0.0000 C   0  0  0  0  0  0  0  0  0  0  0  0
   11.8491   -1.9273   -0.0000 C   0  0  0  0  0  0  0  0  0  0  0  0
   11.8491    2.6054   -0.0000 C   0  0  0  0  0  0  0  0  0  0  0  0
   10.5285    4.8538   -0.0000 C   0  0  0  0  0  0  0  0  0  0  0  0
   13.1458    1.8559   -0.0000 O   0  0  0  0  0  0  0  0  0  0  0  0
   14.4544   -0.4045   -0.0000 C   0  0  0  0  0  0  0  0  0  0  0  0
   10.5404   -2.6649   -0.0000 C   0  0  0  0  0  0  0  0  0  0  0  0
   11.8372    4.1281   -0.0000 C   0  0  0  0  0  0  0  0  0  0  0  0
   14.4426   -1.9035   -0.0000 C   0  0  0  0  0  0  0  0  0  0  0  0
   15.7393    0.3569   -0.0000 C   0  0  0  0  0  0  0  0  0  0  0  0
   15.7393   -2.6411   -0.0000 C   0  0  0  0  0  0  0  0  0  0  0  0
   17.0360   -0.3688   -0.0000 C   0  0  0  0  0  0  0  0  0  0  0  0
   16.0367   -4.1043   -0.0000 O   0  0  0  0  0  0  0  0  0  0  0  0
   17.0360   -1.8797   -0.0000 C   0  0  0  0  0  0  0  0  0  0  0  0
   17.5238   -4.2471   -0.0000 C   0  0  0  0  0  0  0  0  0  0  0  0
   18.1305   -2.8790   -0.0000 N   0  0  0  0  0  0  0  0  0  0  0  0
   18.2614   -5.5319   -0.0000 N   0  0  0  0  0  0  0  0  0  0  0  0
   17.6428   -6.8882   -0.0000 C   0  0  0  0  0  0  0  0  0  0  0  0
   19.7485   -5.6747   -0.0000 C   0  0  0  0  0  0  0  0  0  0  0  0
   18.7491   -7.8756   -0.0000 C   0  0  0  0  0  0  0  0  0  0  0  0
   20.0459   -7.1261   -0.0000 C   0  0  0  0  0  0  0  0  0  0  0  0
  1  2  1  0  0  0  0
  1  3  1  0  0  0  0
  2  4  2  0  0  0  0
  2  5  1  0  0  0  0
  3  6  2  0  0  0  0
  5  7  1  0  0  0  0
  7  8  1  0  0  0  0
  8  9  2  0  0  0  0
  8 10  1  0  0  0  0
 11 10  1  6  0  0  0
 11 12  1  0  0  0  0
 11 13  1  0  0  0  0
 12 14  1  6  0  0  0
 12 15  1  0  0  0  0
 13 16  1  0  0  0  0
 15 17  1  0  0  0  0
 16 18  2  0  0  0  0
 16 19  1  0  0  0  0
 17 20  1  0  0  0  0
 17 21  1  0  0  0  0
 18 22  1  0  0  0  0
 19 23  2  0  0  0  0
 20 24  2  0  0  0  0
 20 25  1  0  0  0  0
 21 26  1  0  0  0  0
 22 27  2  0  0  0  0
 25 28  2  0  0  0  0
 25 29  1  0  0  0  0
 28 30  1  0  0  0  0
 29 31  2  0  0  0  0
 30 32  1  0  0  0  0
 30 33  2  0  0  0  0
 32 34  1  0  0  0  0
 33 35  1  0  0  0  0
 34 36  1  0  0  0  0
 36 37  1  0  0  0  0
 36 38  1  0  0  0  0
 37 39  1  0  0  0  0
 38 40  1  0  0  0  0
  4  6  1  0  0  0  0
 23 27  1  0  0  0  0
 31 33  1  0  0  0  0
 34 35  2  0  0  0  0
 39 40  1  0  0  0  0
M  END
>  <MolRegNo>
1353273

>  <m>
=

>  <Value>
60

>  <Unit>
nM

>  <Type>
IC50

>  <pValue>
7.22

>  <Ligand Efficiency>
0

>  <Binding Efficiency>
0

>  <Surface Efficiency>
0

>  <Assay Index>
663293

>  <Assay Category>


>  <Assay Organism>
Homo sapiens

>  <Target ID>
17045

>  <Target Name>
Cytochrome P450 3A4

>  <Target Organism>
Homo sapiens

>  <Target Description>
Target is a single protein chain

>  <Sequence Accession>
P08684

>  <Reference>
Bioorg Med Chem Lett 22 (15), 4998-5002 (2012)

>  <Pubmed ID>
22765892

>  <DOI>
10.1016/j.bmcl.2012.06.022

$$$$
1353549
Actelion Java MolfileCreator 1.0

 41 44  0  0  0  0  0  0  0  0999 V2000
    0.0000   -0.0000   -0.0000 S   0  0  0  0  0  0  0  0  0  0  0  0
    1.4276   -0.4402   -0.0000 C   0  0  0  0  0  0  0  0  0  0  0  0
   -0.8922   -1.0469   -0.0000 C   0  0  0  0  0  0  0  0  0  0  0  0
    1.4276   -1.9391   -0.0000 C   0  0  0  0  0  0  0  0  0  0  0  0
    2.7956    0.2379   -0.0000 C   0  0  0  0  0  0  0  0  0  0  0  0
    0.0000   -2.4269   -0.0000 N   0  0  0  0  0  0  0  0  0  0  0  0
    4.0924   -0.4996   -0.0000 O   0  0  0  0  0  0  0  0  0  0  0  0
    5.3891    0.2617   -0.0000 C   0  0  0  0  0  0  0  0  0  0  0  0
    5.3772    1.7845   -0.0000 O   0  0  0  0  0  0  0  0  0  0  0  0
    6.6858   -0.4759   -0.0000 N   0  0  0  0  0  0  0  0  0  0  0  0
    7.9706    0.2855   -0.0000 C   0  0  0  0  0  0  0  0  0  0  0  0
    9.2673   -0.4521   -0.0000 C   0  0  0  0  0  0  0  0  0  0  0  0
    7.9587    1.8082   -0.0000 C   0  0  0  0  0  0  0  0  0  0  0  0
    9.2554   -1.9510   -0.0000 O   0  0  0  0  0  0  0  0  0  0  0  0
   10.5640    0.3093   -0.0000 C   0  0  0  0  0  0  0  0  0  0  0  0
    9.2554    2.5815   -0.0000 C   0  0  0  0  0  0  0  0  0  0  0  0
   11.8607   -0.4283   -0.0000 N   0  0  0  0  0  0  0  0  0  0  0  0
    9.2435    4.0924   -0.0000 C   0  0  0  0  0  0  0  0  0  0  0  0
   10.5521    1.8320   -0.0000 C   0  0  0  0  0  0  0  0  0  0  0  0
   13.1574    0.3331   -0.0000 C   0  0  0  0  0  0  0  0  0  0  0  0
   11.8488   -1.9272   -0.0000 C   0  0  0  0  0  0  0  0  0  0  0  0
   10.5283    4.8537   -0.0000 N   0  0  0  0  0  0  0  0  0  0  0  0
   11.8488    2.6053   -0.0000 C   0  0  0  0  0  0  0  0  0  0  0  0
   13.1455    1.8558   -0.0000 O   0  0  0  0  0  0  0  0  0  0  0  0
   14.4541   -0.4045   -0.0000 C   0  0  0  0  0  0  0  0  0  0  0  0
   11.0755   -3.2120   -0.0000 C   0  0  0  0  0  0  0  0  0  0  0  0
   11.8369    4.1161   -0.0000 C   0  0  0  0  0  0  0  0  0  0  0  0
   14.4422   -1.9034   -0.0000 C   0  0  0  0  0  0  0  0  0  0  0  0
   15.7389    0.3569   -0.0000 C   0  0  0  0  0  0  0  0  0  0  0  0
    9.5647   -3.1882   -0.0000 C   0  0  0  0  0  0  0  0  0  0  0  0
   11.8012   -4.5087   -0.0000 C   0  0  0  0  0  0  0  0  0  0  0  0
   15.7389   -2.6410   -0.0000 C   0  0  0  0  0  0  0  0  0  0  0  0
   17.0356   -0.3807   -0.0000 C   0  0  0  0  0  0  0  0  0  0  0  0
   16.0363   -4.1042   -0.0000 O   0  0  0  0  0  0  0  0  0  0  0  0
   17.0356   -1.8796   -0.0000 C   0  0  0  0  0  0  0  0  0  0  0  0
   17.5234   -4.2470   -0.0000 C   0  0  0  0  0  0  0  0  0  0  0  0
   18.1301   -2.8789   -0.0000 N   0  0  0  0  0  0  0  0  0  0  0  0
   18.2609   -5.5318   -0.0000 N   0  0  0  0  0  0  0  0  0  0  0  0
   19.7480   -5.6746   -0.0000 C   0  0  0  0  0  0  0  0  0  0  0  0
   17.6423   -6.8880   -0.0000 C   0  0  0  0  0  0  0  0  0  0  0  0
   20.0454   -7.1259   -0.0000 C   0  0  0  0  0  0  0  0  0  0  0  0
  1  2  1  0  0  0  0
  1  3  1  0  0  0  0
  2  4  2  0  0  0  0
  2  5  1  0  0  0  0
  3  6  2  0  0  0  0
  5  7  1  0  0  0  0
  7  8  1  0  0  0  0
  8  9  2  0  0  0  0
  8 10  1  0  0  0  0
 11 10  1  1  0  0  0
 11 12  1  0  0  0  0
 11 13  1  0  0  0  0
 12 14  1  6  0  0  0
 12 15  1  0  0  0  0
 13 16  1  0  0  0  0
 15 17  1  0  0  0  0
 16 18  2  0  0  0  0
 16 19  1  0  0  0  0
 17 20  1  0  0  0  0
 17 21  1  0  0  0  0
 18 22  1  0  0  0  0
 19 23  2  0  0  0  0
 20 24  2  0  0  0  0
 20 25  1  0  0  0  0
 21 26  1  0  0  0  0
 22 27  2  0  0  0  0
 25 28  2  0  0  0  0
 25 29  1  0  0  0  0
 26 30  1  0  0  0  0
 26 31  1  0  0  0  0
 28 32  1  0  0  0  0
 29 33  2  0  0  0  0
 32 34  1  0  0  0  0
 32 35  2  0  0  0  0
 34 36  1  0  0  0  0
 35 37  1  0  0  0  0
 36 38  1  0  0  0  0
 38 39  1  0  0  0  0
 38 40  1  0  0  0  0
 39 41  1  0  0  0  0
  4  6  1  0  0  0  0
 23 27  1  0  0  0  0
 33 35  1  0  0  0  0
 36 37  2  0  0  0  0
M  END
>  <MolRegNo>
1353549

>  <m>
=

>  <Value>
69

>  <Unit>
nM

>  <Type>
IC50

>  <pValue>
7.16

>  <Ligand Efficiency>
0

>  <Binding Efficiency>
0

>  <Surface Efficiency>
0

>  <Assay Index>
663293

>  <Assay Category>


>  <Assay Organism>
Homo sapiens

>  <Target ID>
17045

>  <Target Name>
Cytochrome P450 3A4

>  <Target Organism>
Homo sapiens

>  <Target Description>
Target is a single protein chain

>  <Sequence Accession>
P08684

>  <Reference>
Bioorg Med Chem Lett 22 (15), 4998-5002 (2012)

>  <Pubmed ID>
22765892

>  <DOI>
10.1016/j.bmcl.2012.06.022

$$$$
1353272
Actelion Java MolfileCreator 1.0

 39 42  0  0  0  0  0  0  0  0999 V2000
    0.0000   -0.0000   -0.0000 S   0  0  0  0  0  0  0  0  0  0  0  0
    1.4273   -0.4401   -0.0000 C   0  0  0  0  0  0  0  0  0  0  0  0
   -0.8921   -1.0467   -0.0000 C   0  0  0  0  0  0  0  0  0  0  0  0
    1.4273   -1.9387   -0.0000 C   0  0  0  0  0  0  0  0  0  0  0  0
    2.7951    0.2379   -0.0000 C   0  0  0  0  0  0  0  0  0  0  0  0
    0.0000   -2.4264   -0.0000 N   0  0  0  0  0  0  0  0  0  0  0  0
    4.0916   -0.4996   -0.0000 O   0  0  0  0  0  0  0  0  0  0  0  0
    5.3881    0.2617   -0.0000 C   0  0  0  0  0  0  0  0  0  0  0  0
    5.3762    1.7841   -0.0000 O   0  0  0  0  0  0  0  0  0  0  0  0
    6.6845   -0.4758   -0.0000 N   0  0  0  0  0  0  0  0  0  0  0  0
    7.9691    0.2855   -0.0000 C   0  0  0  0  0  0  0  0  0  0  0  0
    9.2656   -0.4520   -0.0000 C   0  0  0  0  0  0  0  0  0  0  0  0
    7.9572    1.8079   -0.0000 C   0  0  0  0  0  0  0  0  0  0  0  0
    9.2537   -1.9506   -0.0000 O   0  0  0  0  0  0  0  0  0  0  0  0
   10.5620    0.3092   -0.0000 C   0  0  0  0  0  0  0  0  0  0  0  0
    9.2537    2.5810   -0.0000 C   0  0  0  0  0  0  0  0  0  0  0  0
   11.8585   -0.4282   -0.0000 N   0  0  0  0  0  0  0  0  0  0  0  0
   10.5501    1.8317   -0.0000 C   0  0  0  0  0  0  0  0  0  0  0  0
    9.2418    4.0916   -0.0000 C   0  0  0  0  0  0  0  0  0  0  0  0
   13.1549    0.3330   -0.0000 C   0  0  0  0  0  0  0  0  0  0  0  0
   11.8466   -1.9269   -0.0000 C   0  0  0  0  0  0  0  0  0  0  0  0
   11.8466    2.6048   -0.0000 C   0  0  0  0  0  0  0  0  0  0  0  0
   10.5263    4.8528   -0.0000 C   0  0  0  0  0  0  0  0  0  0  0  0
   13.1430    1.8555   -0.0000 O   0  0  0  0  0  0  0  0  0  0  0  0
   14.4514   -0.4044   -0.0000 C   0  0  0  0  0  0  0  0  0  0  0  0
   10.5382   -2.6643   -0.0000 C   0  0  0  0  0  0  0  0  0  0  0  0
   11.8347    4.1273   -0.0000 C   0  0  0  0  0  0  0  0  0  0  0  0
   14.4395   -1.9031   -0.0000 C   0  0  0  0  0  0  0  0  0  0  0  0
   15.7360    0.3568   -0.0000 C   0  0  0  0  0  0  0  0  0  0  0  0
   15.7360   -2.6405   -0.0000 C   0  0  0  0  0  0  0  0  0  0  0  0
   17.0324   -0.3806   -0.0000 C   0  0  0  0  0  0  0  0  0  0  0  0
   16.0333   -4.1035   -0.0000 O   0  0  0  0  0  0  0  0  0  0  0  0
   17.0324   -1.8793   -0.0000 C   0  0  0  0  0  0  0  0  0  0  0  0
   17.5201   -4.2462   -0.0000 C   0  0  0  0  0  0  0  0  0  0  0  0
   18.1267   -2.8784   -0.0000 N   0  0  0  0  0  0  0  0  0  0  0  0
   18.2575   -5.5308   -0.0000 N   0  0  0  0  0  0  0  0  0  0  0  0
   19.7443   -5.6735   -0.0000 C   0  0  0  0  0  0  0  0  0  0  0  0
   17.6390   -6.8867   -0.0000 C   0  0  0  0  0  0  0  0  0  0  0  0
   20.0417   -7.1246   -0.0000 C   0  0  0  0  0  0  0  0  0  0  0  0
  1  2  1  0  0  0  0
  1  3  1  0  0  0  0
  2  4  2  0  0  0  0
  2  5  1  0  0  0  0
  3  6  2  0  0  0  0
  5  7  1  0  0  0  0
  7  8  1  0  0  0  0
  8  9  2  0  0  0  0
  8 10  1  0  0  0  0
 11 10  1  6  0  0  0
 11 12  1  0  0  0  0
 11 13  1  0  0  0  0
 12 14  1  6  0  0  0
 12 15  1  0  0  0  0
 13 16  1  0  0  0  0
 15 17  1  0  0  0  0
 16 18  2  0  0  0  0
 16 19  1  0  0  0  0
 17 20  1  0  0  0  0
 17 21  1  0  0  0  0
 18 22  1  0  0  0  0
 19 23  2  0  0  0  0
 20 24  2  0  0  0  0
 20 25  1  0  0  0  0
 21 26  1  0  0  0  0
 22 27  2  0  0  0  0
 25 28  2  0  0  0  0
 25 29  1  0  0  0  0
 28 30  1  0  0  0  0
 29 31  2  0  0  0  0
 30 32  1  0  0  0  0
 30 33  2  0  0  0  0
 32 34  1  0  0  0  0
 33 35  1  0  0  0  0
 34 36  1  0  0  0  0
 36 37  1  0  0  0  0
 36 38  1  0  0  0  0
 37 39  1  0  0  0  0
  4  6  1  0  0  0  0
 23 27  1  0  0  0  0
 31 33  1  0  0  0  0
 34 35  2  0  0  0  0
M  END
>  <MolRegNo>
1353272

>  <m>
=

>  <Value>
79

>  <Unit>
nM

>  <Type>
IC50

>  <pValue>
7.1

>  <Ligand Efficiency>
0

>  <Binding Efficiency>
0

>  <Surface Efficiency>
0

>  <Assay Index>
663293

>  <Assay Category>


>  <Assay Organism>
Homo sapiens

>  <Target ID>
17045

>  <Target Name>
Cytochrome P450 3A4

>  <Target Organism>
Homo sapiens

>  <Target Description>
Target is a single protein chain

>  <Sequence Accession>
P08684

>  <Reference>
Bioorg Med Chem Lett 22 (15), 4998-5002 (2012)

>  <Pubmed ID>
22765892

>  <DOI>
10.1016/j.bmcl.2012.06.022

$$$$
1353266
Actelion Java MolfileCreator 1.0

 39 43  0  0  0  0  0  0  0  0999 V2000
    0.0000   -0.0000   -0.0000 S   0  0  0  0  0  0  0  0  0  0  0  0
    1.4278   -0.4402   -0.0000 C   0  0  0  0  0  0  0  0  0  0  0  0
   -0.8924   -1.0470   -0.0000 C   0  0  0  0  0  0  0  0  0  0  0  0
    1.4278   -1.9394   -0.0000 C   0  0  0  0  0  0  0  0  0  0  0  0
    2.7961    0.2380   -0.0000 C   0  0  0  0  0  0  0  0  0  0  0  0
    0.0000   -2.4272   -0.0000 N   0  0  0  0  0  0  0  0  0  0  0  0
    4.0930   -0.4997   -0.0000 O   0  0  0  0  0  0  0  0  0  0  0  0
    5.3899    0.2618   -0.0000 C   0  0  0  0  0  0  0  0  0  0  0  0
    5.3780    1.7847   -0.0000 O   0  0  0  0  0  0  0  0  0  0  0  0
    6.6868   -0.4759   -0.0000 N   0  0  0  0  0  0  0  0  0  0  0  0
    7.9718    0.2856   -0.0000 C   0  0  0  0  0  0  0  0  0  0  0  0
    9.2687   -0.4521   -0.0000 C   0  0  0  0  0  0  0  0  0  0  0  0
    7.9599    1.8085   -0.0000 C   0  0  0  0  0  0  0  0  0  0  0  0
    9.2568   -1.9513   -0.0000 O   0  0  0  0  0  0  0  0  0  0  0  0
   10.5656    0.3094   -0.0000 C   0  0  0  0  0  0  0  0  0  0  0  0
    9.2568    2.5819   -0.0000 C   0  0  0  0  0  0  0  0  0  0  0  0
   11.8625   -0.4283   -0.0000 N   0  0  0  0  0  0  0  0  0  0  0  0
   10.5537    1.8323   -0.0000 C   0  0  0  0  0  0  0  0  0  0  0  0
    9.2449    4.0930   -0.0000 C   0  0  0  0  0  0  0  0  0  0  0  0
   13.1594    0.3331   -0.0000 C   0  0  0  0  0  0  0  0  0  0  0  0
   11.8506   -1.9275   -0.0000 C   0  0  0  0  0  0  0  0  0  0  0  0
   11.8506    2.6057   -0.0000 C   0  0  0  0  0  0  0  0  0  0  0  0
   10.5299    4.8545   -0.0000 C   0  0  0  0  0  0  0  0  0  0  0  0
   13.1475    1.8561   -0.0000 O   0  0  0  0  0  0  0  0  0  0  0  0
   14.4563   -0.4045   -0.0000 C   0  0  0  0  0  0  0  0  0  0  0  0
   11.8387    4.1287   -0.0000 C   0  0  0  0  0  0  0  0  0  0  0  0
   14.4444   -1.9037   -0.0000 C   0  0  0  0  0  0  0  0  0  0  0  0
   15.7413    0.3569   -0.0000 C   0  0  0  0  0  0  0  0  0  0  0  0
   15.7413   -2.6414   -0.0000 C   0  0  0  0  0  0  0  0  0  0  0  0
   17.0382   -0.3807   -0.0000 C   0  0  0  0  0  0  0  0  0  0  0  0
   16.0388   -4.1049   -0.0000 O   0  0  0  0  0  0  0  0  0  0  0  0
   17.0382   -1.8799   -0.0000 C   0  0  0  0  0  0  0  0  0  0  0  0
   17.5260   -4.2477   -0.0000 C   0  0  0  0  0  0  0  0  0  0  0  0
   18.1328   -2.8794   -0.0000 N   0  0  0  0  0  0  0  0  0  0  0  0
   18.2637   -5.5327   -0.0000 N   0  0  0  0  0  0  0  0  0  0  0  0
   17.6450   -6.8890   -0.0000 C   0  0  0  0  0  0  0  0  0  0  0  0
   19.7510   -5.6754   -0.0000 C   0  0  0  0  0  0  0  0  0  0  0  0
   18.7515   -7.8766   -0.0000 C   0  0  0  0  0  0  0  0  0  0  0  0
   20.0484   -7.1270   -0.0000 C   0  0  0  0  0  0  0  0  0  0  0  0
  1  2  1  0  0  0  0
  1  3  1  0  0  0  0
  2  4  2  0  0  0  0
  2  5  1  0  0  0  0
  3  6  2  0  0  0  0
  5  7  1  0  0  0  0
  7  8  1  0  0  0  0
  8  9  2  0  0  0  0
  8 10  1  0  0  0  0
 11 10  1  6  0  0  0
 11 12  1  0  0  0  0
 11 13  1  0  0  0  0
 12 14  1  6  0  0  0
 12 15  1  0  0  0  0
 13 16  1  0  0  0  0
 15 17  1  0  0  0  0
 16 18  2  0  0  0  0
 16 19  1  0  0  0  0
 17 20  1  0  0  0  0
 17 21  1  0  0  0  0
 18 22  1  0  0  0  0
 19 23  2  0  0  0  0
 20 24  2  0  0  0  0
 20 25  1  0  0  0  0
 22 26  2  0  0  0  0
 25 27  2  0  0  0  0
 25 28  1  0  0  0  0
 27 29  1  0  0  0  0
 28 30  2  0  0  0  0
 29 31  1  0  0  0  0
 29 32  2  0  0  0  0
 31 33  1  0  0  0  0
 32 34  1  0  0  0  0
 33 35  1  0  0  0  0
 35 36  1  0  0  0  0
 35 37  1  0  0  0  0
 36 38  1  0  0  0  0
 37 39  1  0  0  0  0
  4  6  1  0  0  0  0
 23 26  1  0  0  0  0
 30 32  1  0  0  0  0
 33 34  2  0  0  0  0
 38 39  1  0  0  0  0
M  END
>  <MolRegNo>
1353266

>  <m>
=

>  <Value>
84

>  <Unit>
nM

>  <Type>
IC50

>  <pValue>
7.08

>  <Ligand Efficiency>
0

>  <Binding Efficiency>
0

>  <Surface Efficiency>
0

>  <Assay Index>
663293

>  <Assay Category>


>  <Assay Organism>
Homo sapiens

>  <Target ID>
17045

>  <Target Name>
Cytochrome P450 3A4

>  <Target Organism>
Homo sapiens

>  <Target Description>
Target is a single protein chain

>  <Sequence Accession>
P08684

>  <Reference>
Bioorg Med Chem Lett 22 (15), 4998-5002 (2012)

>  <Pubmed ID>
22765892

>  <DOI>
10.1016/j.bmcl.2012.06.022

$$$$
1354884
Actelion Java MolfileCreator 1.0

 37 40  0  0  0  0  0  0  0  0999 V2000
    0.0000   -0.0000   -0.0000 S   0  0  0  0  0  0  0  0  0  0  0  0
   -0.3196    1.4794   -0.0000 C   0  0  0  0  0  0  0  0  0  0  0  0
    1.4794   -0.1420   -0.0000 C   0  0  0  0  0  0  0  0  0  0  0  0
    0.9705    2.2369   -0.0000 C   0  0  0  0  0  0  0  0  0  0  0  0
   -1.6215    2.2369   -0.0000 C   0  0  0  0  0  0  0  0  0  0  0  0
    2.0712    1.2309   -0.0000 N   0  0  0  0  0  0  0  0  0  0  0  0
    0.9587    3.7519   -0.0000 C   0  0  0  0  0  0  0  0  0  0  0  0
   -1.6333    3.7519   -0.0000 C   0  0  0  0  0  0  0  0  0  0  0  0
   -0.3432    4.4975   -0.0000 C   0  0  0  0  0  0  0  0  0  0  0  0
   -2.9470    4.5093   -0.0000 C   0  0  0  0  0  0  0  0  0  0  0  0
   -2.9589    6.0125   -0.0000 O   0  0  0  0  0  0  0  0  0  0  0  0
   -4.2608    3.7755   -0.0000 N   0  0  0  0  0  0  0  0  0  0  0  0
   -5.5745    4.5330   -0.0000 C   0  0  0  0  0  0  0  0  0  0  0  0
   -4.2726    2.2961   -0.0000 C   0  0  0  0  0  0  0  0  0  0  0  0
   -6.8883    3.7992   -0.0000 C   0  0  0  0  0  0  0  0  0  0  0  0
   -5.1840    1.1007   -0.0000 C   0  0  0  0  0  0  0  0  0  0  0  0
   -6.9001    2.3198   -0.0000 O   0  0  0  0  0  0  0  0  0  0  0  0
   -8.2020    4.5567   -0.0000 C   0  0  0  0  0  0  0  0  0  0  0  0
   -4.5922   -0.2604   -0.0000 C   0  0  0  0  0  0  0  0  0  0  0  0
   -6.6871    1.2782   -0.0000 C   0  0  0  0  0  0  0  0  0  0  0  0
   -9.5039    3.8229   -0.0000 N   0  0  0  0  0  0  0  0  0  0  0  0
   -8.2139    6.0598   -0.0000 C   0  0  0  0  0  0  0  0  0  0  0  0
  -10.8177    4.5804   -0.0000 C   0  0  0  0  0  0  0  0  0  0  0  0
   -6.9238    6.8291   -0.0000 C   0  0  0  0  0  0  0  0  0  0  0  0
  -10.8295    6.0835   -0.0000 O   0  0  0  0  0  0  0  0  0  0  0  0
  -12.1314    3.8465   -0.0000 O   0  0  0  0  0  0  0  0  0  0  0  0
   -6.9356    8.3204   -0.0000 C   0  0  0  0  0  0  0  0  0  0  0  0
   -5.6337    6.0835   -0.0000 C   0  0  0  0  0  0  0  0  0  0  0  0
  -13.4452    4.6040   -0.0000 C   0  0  0  0  0  0  0  0  0  0  0  0
   -5.6574    9.0779   -0.0000 N   0  0  0  0  0  0  0  0  0  0  0  0
   -4.3555    6.8409   -0.0000 C   0  0  0  0  0  0  0  0  0  0  0  0
  -14.7589    3.8702   -0.0000 C   0  0  0  0  0  0  0  0  0  0  0  0
   -4.3673    8.3441   -0.0000 C   0  0  0  0  0  0  0  0  0  0  0  0
  -16.1673    4.3910   -0.0000 S   0  0  0  0  0  0  0  0  0  0  0  0
  -14.8181    2.3908   -0.0000 C   0  0  0  0  0  0  0  0  0  0  0  0
  -17.1023    3.2193   -0.0000 C   0  0  0  0  0  0  0  0  0  0  0  0
  -16.2620    1.9765   -0.0000 N   0  0  0  0  0  0  0  0  0  0  0  0
  1  2  1  0  0  0  0
  1  3  1  0  0  0  0
  2  4  2  0  0  0  0
  2  5  1  0  0  0  0
  3  6  2  0  0  0  0
  4  7  1  0  0  0  0
  5  8  2  0  0  0  0
  7  9  2  0  0  0  0
  8 10  1  0  0  0  0
 10 11  2  0  0  0  0
 10 12  1  0  0  0  0
 12 13  1  0  0  0  0
 12 14  1  0  0  0  0
 13 15  1  0  0  0  0
 14 16  1  0  0  0  0
 15 17  1  6  0  0  0
 15 18  1  0  0  0  0
 16 19  1  0  0  0  0
 16 20  1  0  0  0  0
 18 21  1  6  0  0  0
 18 22  1  0  0  0  0
 21 23  1  0  0  0  0
 22 24  1  0  0  0  0
 23 25  2  0  0  0  0
 23 26  1  0  0  0  0
 24 27  2  0  0  0  0
 24 28  1  0  0  0  0
 26 29  1  0  0  0  0
 27 30  1  0  0  0  0
 28 31  2  0  0  0  0
 29 32  1  0  0  0  0
 30 33  2  0  0  0  0
 32 34  1  0  0  0  0
 32 35  2  0  0  0  0
 34 36  1  0  0  0  0
 35 37  1  0  0  0  0
  4  6  1  0  0  0  0
  8  9  1  0  0  0  0
 31 33  1  0  0  0  0
 36 37  2  0  0  0  0
M  END
>  <MolRegNo>
1354884

>  <m>
=

>  <Value>
90

>  <Unit>
nM

>  <Type>
IC50

>  <pValue>
7.05

>  <Ligand Efficiency>
0

>  <Binding Efficiency>
0

>  <Surface Efficiency>
0

>  <Assay Index>
663293

>  <Assay Category>


>  <Assay Organism>
Homo sapiens

>  <Target ID>
17045

>  <Target Name>
Cytochrome P450 3A4

>  <Target Organism>
Homo sapiens

>  <Target Description>
Target is a single protein chain

>  <Sequence Accession>
P08684

>  <Reference>
Bioorg Med Chem Lett 22 (15), 4998-5002 (2012)

>  <Pubmed ID>
22765892

>  <DOI>
10.1016/j.bmcl.2012.06.022

$$$$
1354891
Actelion Java MolfileCreator 1.0

 44 48  0  0  0  0  0  0  0  0999 V2000
    0.0000   -0.0000   -0.0000 S   0  0  0  0  0  0  0  0  0  0  0  0
    1.4274   -0.4401   -0.0000 C   0  0  0  0  0  0  0  0  0  0  0  0
   -0.8922   -1.0468   -0.0000 C   0  0  0  0  0  0  0  0  0  0  0  0
    1.4274   -1.9389   -0.0000 C   0  0  0  0  0  0  0  0  0  0  0  0
    2.7954    0.2379   -0.0000 C   0  0  0  0  0  0  0  0  0  0  0  0
    0.0000   -2.4267   -0.0000 N   0  0  0  0  0  0  0  0  0  0  0  0
    4.0920   -0.4996   -0.0000 O   0  0  0  0  0  0  0  0  0  0  0  0
    5.3886    0.2617   -0.0000 C   0  0  0  0  0  0  0  0  0  0  0  0
    5.3767    1.7843   -0.0000 O   0  0  0  0  0  0  0  0  0  0  0  0
    6.6852   -0.4758   -0.0000 N   0  0  0  0  0  0  0  0  0  0  0  0
    7.9699    0.2855   -0.0000 C   0  0  0  0  0  0  0  0  0  0  0  0
    9.2665   -0.4520   -0.0000 C   0  0  0  0  0  0  0  0  0  0  0  0
    7.9580    1.8081   -0.0000 C   0  0  0  0  0  0  0  0  0  0  0  0
    9.2546   -1.9508   -0.0000 O   0  0  0  0  0  0  0  0  0  0  0  0
   10.5631    0.3093   -0.0000 C   0  0  0  0  0  0  0  0  0  0  0  0
    9.2546    2.5813   -0.0000 C   0  0  0  0  0  0  0  0  0  0  0  0
   11.8597   -0.4282   -0.0000 N   0  0  0  0  0  0  0  0  0  0  0  0
   10.5512    1.8319   -0.0000 C   0  0  0  0  0  0  0  0  0  0  0  0
    9.2427    4.0920   -0.0000 C   0  0  0  0  0  0  0  0  0  0  0  0
   13.1563    0.3331   -0.0000 C   0  0  0  0  0  0  0  0  0  0  0  0
   11.8478   -1.9271   -0.0000 C   0  0  0  0  0  0  0  0  0  0  0  0
   11.8478    2.6051   -0.0000 C   0  0  0  0  0  0  0  0  0  0  0  0
   10.5274    4.8533   -0.0000 C   0  0  0  0  0  0  0  0  0  0  0  0
   13.1444    1.8557   -0.0000 O   0  0  0  0  0  0  0  0  0  0  0  0
   14.4529   -0.4044   -0.0000 C   0  0  0  0  0  0  0  0  0  0  0  0
   10.9319   -3.1285   -0.0000 C   0  0  0  0  0  0  0  0  0  0  0  0
   11.8359    4.1277   -0.0000 C   0  0  0  0  0  0  0  0  0  0  0  0
   14.4410   -1.9033   -0.0000 C   0  0  0  0  0  0  0  0  0  0  0  0
   15.7376    0.3569   -0.0000 C   0  0  0  0  0  0  0  0  0  0  0  0
   11.5266   -4.4965   -0.0000 C   0  0  0  0  0  0  0  0  0  0  0  0
    9.4212   -2.9501   -0.0000 C   0  0  0  0  0  0  0  0  0  0  0  0
   15.7376   -2.6408   -0.0000 C   0  0  0  0  0  0  0  0  0  0  0  0
   17.0342   -0.3807   -0.0000 C   0  0  0  0  0  0  0  0  0  0  0  0
   16.0350   -4.1039   -0.0000 O   0  0  0  0  0  0  0  0  0  0  0  0
   17.0342   -1.8795   -0.0000 C   0  0  0  0  0  0  0  0  0  0  0  0
   17.5219   -4.2467   -0.0000 C   0  0  0  0  0  0  0  0  0  0  0  0
   18.1286   -2.8787   -0.0000 N   0  0  0  0  0  0  0  0  0  0  0  0
   18.2594   -5.5314   -0.0000 N   0  0  0  0  0  0  0  0  0  0  0  0
   17.4862   -6.8161   -0.0000 C   0  0  0  0  0  0  0  0  0  0  0  0
   19.7464   -5.5076   -0.0000 C   0  0  0  0  0  0  0  0  0  0  0  0
   18.2237   -8.1008   -0.0000 C   0  0  0  0  0  0  0  0  0  0  0  0
   20.4839   -6.8042   -0.0000 C   0  0  0  0  0  0  0  0  0  0  0  0
   19.7107   -8.1008   -0.0000 N   0  0  0  0  0  0  0  0  0  0  0  0
   20.4482   -9.3855   -0.0000 C   0  0  0  0  0  0  0  0  0  0  0  0
  1  2  1  0  0  0  0
  1  3  1  0  0  0  0
  2  4  2  0  0  0  0
  2  5  1  0  0  0  0
  3  6  2  0  0  0  0
  5  7  1  0  0  0  0
  7  8  1  0  0  0  0
  8  9  2  0  0  0  0
  8 10  1  0  0  0  0
 11 10  1  6  0  0  0
 11 12  1  0  0  0  0
 11 13  1  0  0  0  0
 12 14  1  6  0  0  0
 12 15  1  0  0  0  0
 13 16  1  0  0  0  0
 15 17  1  0  0  0  0
 16 18  2  0  0  0  0
 16 19  1  0  0  0  0
 17 20  1  0  0  0  0
 17 21  1  0  0  0  0
 18 22  1  0  0  0  0
 19 23  2  0  0  0  0
 20 24  2  0  0  0  0
 20 25  1  0  0  0  0
 21 26  1  0  0  0  0
 22 27  2  0  0  0  0
 25 28  2  0  0  0  0
 25 29  1  0  0  0  0
 26 30  1  0  0  0  0
 26 31  1  0  0  0  0
 28 32  1  0  0  0  0
 29 33  2  0  0  0  0
 32 34  1  0  0  0  0
 32 35  2  0  0  0  0
 34 36  1  0  0  0  0
 35 37  1  0  0  0  0
 36 38  1  0  0  0  0
 38 39  1  0  0  0  0
 38 40  1  0  0  0  0
 39 41  1  0  0  0  0
 40 42  1  0  0  0  0
 41 43  1  0  0  0  0
 43 44  1  0  0  0  0
  4  6  1  0  0  0  0
 23 27  1  0  0  0  0
 33 35  1  0  0  0  0
 36 37  2  0  0  0  0
 42 43  1  0  0  0  0
M  END
>  <MolRegNo>
1354891

>  <m>
=

>  <Value>
92

>  <Unit>
nM

>  <Type>
IC50

>  <pValue>
7.04

>  <Ligand Efficiency>
0

>  <Binding Efficiency>
0

>  <Surface Efficiency>
0

>  <Assay Index>
663293

>  <Assay Category>


>  <Assay Organism>
Homo sapiens

>  <Target ID>
17045

>  <Target Name>
Cytochrome P450 3A4

>  <Target Organism>
Homo sapiens

>  <Target Description>
Target is a single protein chain

>  <Sequence Accession>
P08684

>  <Reference>
Bioorg Med Chem Lett 22 (15), 4998-5002 (2012)

>  <Pubmed ID>
22765892

>  <DOI>
10.1016/j.bmcl.2012.06.022

$$$$
1353544
Actelion Java MolfileCreator 1.0

 41 44  0  0  0  0  0  0  0  0999 V2000
    0.0000   -0.0000   -0.0000 S   0  0  0  0  0  0  0  0  0  0  0  0
    1.4283   -0.4404   -0.0000 C   0  0  0  0  0  0  0  0  0  0  0  0
   -0.8927   -1.0474   -0.0000 C   0  0  0  0  0  0  0  0  0  0  0  0
    1.4283   -1.9401   -0.0000 C   0  0  0  0  0  0  0  0  0  0  0  0
    2.7970    0.2380   -0.0000 C   0  0  0  0  0  0  0  0  0  0  0  0
    0.0000   -2.4281   -0.0000 N   0  0  0  0  0  0  0  0  0  0  0  0
    4.0944   -0.4999   -0.0000 O   0  0  0  0  0  0  0  0  0  0  0  0
    5.3917    0.2619   -0.0000 C   0  0  0  0  0  0  0  0  0  0  0  0
    5.3798    1.7853   -0.0000 O   0  0  0  0  0  0  0  0  0  0  0  0
    6.6891   -0.4761   -0.0000 N   0  0  0  0  0  0  0  0  0  0  0  0
    7.9745    0.2857   -0.0000 C   0  0  0  0  0  0  0  0  0  0  0  0
    9.2719   -0.4523   -0.0000 C   0  0  0  0  0  0  0  0  0  0  0  0
    7.9626    1.8091   -0.0000 C   0  0  0  0  0  0  0  0  0  0  0  0
    9.2600   -1.9520   -0.0000 O   0  0  0  0  0  0  0  0  0  0  0  0
   10.5692    0.3095   -0.0000 C   0  0  0  0  0  0  0  0  0  0  0  0
    9.2600    2.5828   -0.0000 C   0  0  0  0  0  0  0  0  0  0  0  0
   11.8666   -0.4285   -0.0000 N   0  0  0  0  0  0  0  0  0  0  0  0
   10.5573    1.8330   -0.0000 C   0  0  0  0  0  0  0  0  0  0  0  0
    9.2481    4.0944   -0.0000 C   0  0  0  0  0  0  0  0  0  0  0  0
   13.1639    0.3333   -0.0000 C   0  0  0  0  0  0  0  0  0  0  0  0
   11.8547   -1.9282   -0.0000 C   0  0  0  0  0  0  0  0  0  0  0  0
   11.8547    2.6066   -0.0000 C   0  0  0  0  0  0  0  0  0  0  0  0
   10.5335    4.8561   -0.0000 C   0  0  0  0  0  0  0  0  0  0  0  0
   13.1520    1.8568   -0.0000 O   0  0  0  0  0  0  0  0  0  0  0  0
   14.4613   -0.4047   -0.0000 C   0  0  0  0  0  0  0  0  0  0  0  0
   12.9021   -2.9756   -0.0000 C   0  0  0  0  0  0  0  0  0  0  0  0
   11.8428    4.1301   -0.0000 C   0  0  0  0  0  0  0  0  0  0  0  0
   14.4494   -1.9044   -0.0000 C   0  0  0  0  0  0  0  0  0  0  0  0
   15.7467    0.3571   -0.0000 C   0  0  0  0  0  0  0  0  0  0  0  0
   13.9495   -4.0230   -0.0000 O   0  0  0  0  0  0  0  0  0  0  0  0
   12.5093   -4.4157   -0.0000 C   0  0  0  0  0  0  0  0  0  0  0  0
   14.3423   -2.5709   -0.0000 C   0  0  0  0  0  0  0  0  0  0  0  0
   15.7467   -2.6423   -0.0000 C   0  0  0  0  0  0  0  0  0  0  0  0
   17.0441   -0.3809   -0.0000 C   0  0  0  0  0  0  0  0  0  0  0  0
   16.0443   -4.1063   -0.0000 O   0  0  0  0  0  0  0  0  0  0  0  0
   17.0441   -1.8806   -0.0000 C   0  0  0  0  0  0  0  0  0  0  0  0
   17.5321   -4.2491   -0.0000 C   0  0  0  0  0  0  0  0  0  0  0  0
   18.1391   -2.8804   -0.0000 N   0  0  0  0  0  0  0  0  0  0  0  0
   18.2700   -5.5346   -0.0000 N   0  0  0  0  0  0  0  0  0  0  0  0
   19.7578   -5.6774   -0.0000 C   0  0  0  0  0  0  0  0  0  0  0  0
   20.0553   -7.1295   -0.0000 C   0  0  0  0  0  0  0  0  0  0  0  0
  1  2  1  0  0  0  0
  1  3  1  0  0  0  0
  2  4  2  0  0  0  0
  2  5  1  0  0  0  0
  3  6  2  0  0  0  0
  5  7  1  0  0  0  0
  7  8  1  0  0  0  0
  8  9  2  0  0  0  0
  8 10  1  0  0  0  0
 11 10  1  6  0  0  0
 11 12  1  0  0  0  0
 11 13  1  0  0  0  0
 12 14  1  6  0  0  0
 12 15  1  0  0  0  0
 13 16  1  0  0  0  0
 15 17  1  0  0  0  0
 16 18  2  0  0  0  0
 16 19  1  0  0  0  0
 17 20  1  0  0  0  0
 17 21  1  0  0  0  0
 18 22  1  0  0  0  0
 19 23  2  0  0  0  0
 20 24  2  0  0  0  0
 20 25  1  0  0  0  0
 21 26  1  0  0  0  0
 22 27  2  0  0  0  0
 25 28  2  0  0  0  0
 25 29  1  0  0  0  0
 26 30  1  0  0  0  0
 26 31  1  0  0  0  0
 26 32  1  0  0  0  0
 28 33  1  0  0  0  0
 29 34  2  0  0  0  0
 33 35  1  0  0  0  0
 33 36  2  0  0  0  0
 35 37  1  0  0  0  0
 36 38  1  0  0  0  0
 37 39  1  0  0  0  0
 39 40  1  0  0  0  0
 40 41  1  0  0  0  0
  4  6  1  0  0  0  0
 23 27  1  0  0  0  0
 34 36  1  0  0  0  0
 37 38  2  0  0  0  0
M  END
>  <MolRegNo>
1353544

>  <m>
=

>  <Value>
97

>  <Unit>
nM

>  <Type>
IC50

>  <pValue>
7.01

>  <Ligand Efficiency>
0

>  <Binding Efficiency>
0

>  <Surface Efficiency>
0

>  <Assay Index>
663293

>  <Assay Category>


>  <Assay Organism>
Homo sapiens

>  <Target ID>
17045

>  <Target Name>
Cytochrome P450 3A4

>  <Target Organism>
Homo sapiens

>  <Target Description>
Target is a single protein chain

>  <Sequence Accession>
P08684

>  <Reference>
Bioorg Med Chem Lett 22 (15), 4998-5002 (2012)

>  <Pubmed ID>
22765892

>  <DOI>
10.1016/j.bmcl.2012.06.022

$$$$
1354894
Actelion Java MolfileCreator 1.0

 38 41  0  0  0  0  0  0  0  0999 V2000
    0.0000   -0.0000   -0.0000 S   0  0  0  0  0  0  0  0  0  0  0  0
    1.4273   -0.4401   -0.0000 C   0  0  0  0  0  0  0  0  0  0  0  0
   -0.8921   -1.0467   -0.0000 C   0  0  0  0  0  0  0  0  0  0  0  0
    1.4273   -1.9388   -0.0000 C   0  0  0  0  0  0  0  0  0  0  0  0
    2.7952    0.2379   -0.0000 C   0  0  0  0  0  0  0  0  0  0  0  0
    0.0000   -2.4265   -0.0000 N   0  0  0  0  0  0  0  0  0  0  0  0
    4.0917   -0.4996   -0.0000 O   0  0  0  0  0  0  0  0  0  0  0  0
    5.3882    0.2617   -0.0000 C   0  0  0  0  0  0  0  0  0  0  0  0
    5.3763    1.7842   -0.0000 O   0  0  0  0  0  0  0  0  0  0  0  0
    6.6847   -0.4758   -0.0000 N   0  0  0  0  0  0  0  0  0  0  0  0
    7.9693    0.2855   -0.0000 C   0  0  0  0  0  0  0  0  0  0  0  0
    9.2658   -0.4520   -0.0000 C   0  0  0  0  0  0  0  0  0  0  0  0
    7.9574    1.8080   -0.0000 C   0  0  0  0  0  0  0  0  0  0  0  0
    9.2539   -1.9507   -0.0000 O   0  0  0  0  0  0  0  0  0  0  0  0
   10.5623    0.3093   -0.0000 C   0  0  0  0  0  0  0  0  0  0  0  0
    9.2539    2.5811   -0.0000 C   0  0  0  0  0  0  0  0  0  0  0  0
   11.8588   -0.4282   -0.0000 N   0  0  0  0  0  0  0  0  0  0  0  0
   10.5504    1.8318   -0.0000 C   0  0  0  0  0  0  0  0  0  0  0  0
    9.2420    4.0917   -0.0000 C   0  0  0  0  0  0  0  0  0  0  0  0
   13.1553    0.3330   -0.0000 C   0  0  0  0  0  0  0  0  0  0  0  0
   11.8469   -1.9269   -0.0000 C   0  0  0  0  0  0  0  0  0  0  0  0
   11.8469    2.6049   -0.0000 C   0  0  0  0  0  0  0  0  0  0  0  0
   10.5267    4.8530   -0.0000 C   0  0  0  0  0  0  0  0  0  0  0  0
   13.1434    1.8555   -0.0000 O   0  0  0  0  0  0  0  0  0  0  0  0
   14.4518   -0.4044   -0.0000 C   0  0  0  0  0  0  0  0  0  0  0  0
   11.8350    4.1274   -0.0000 C   0  0  0  0  0  0  0  0  0  0  0  0
   14.4399   -1.9031   -0.0000 C   0  0  0  0  0  0  0  0  0  0  0  0
   15.7365    0.3568   -0.0000 C   0  0  0  0  0  0  0  0  0  0  0  0
   15.7365   -2.6406   -0.0000 C   0  0  0  0  0  0  0  0  0  0  0  0
   17.0330   -0.3806   -0.0000 C   0  0  0  0  0  0  0  0  0  0  0  0
   16.0338   -4.1036   -0.0000 O   0  0  0  0  0  0  0  0  0  0  0  0
   17.0330   -1.8793   -0.0000 C   0  0  0  0  0  0  0  0  0  0  0  0
   17.5206   -4.2463   -0.0000 C   0  0  0  0  0  0  0  0  0  0  0  0
   18.1273   -2.8785   -0.0000 N   0  0  0  0  0  0  0  0  0  0  0  0
   18.2581   -5.5310   -0.0000 N   0  0  0  0  0  0  0  0  0  0  0  0
   19.7449   -5.6737   -0.0000 C   0  0  0  0  0  0  0  0  0  0  0  0
   17.6396   -6.8869   -0.0000 C   0  0  0  0  0  0  0  0  0  0  0  0
   20.0423   -7.1248   -0.0000 C   0  0  0  0  0  0  0  0  0  0  0  0
  1  2  1  0  0  0  0
  1  3  1  0  0  0  0
  2  4  2  0  0  0  0
  2  5  1  0  0  0  0
  3  6  2  0  0  0  0
  5  7  1  0  0  0  0
  7  8  1  0  0  0  0
  8  9  2  0  0  0  0
  8 10  1  0  0  0  0
 11 10  1  6  0  0  0
 11 12  1  0  0  0  0
 11 13  1  0  0  0  0
 12 14  1  6  0  0  0
 12 15  1  0  0  0  0
 13 16  1  0  0  0  0
 15 17  1  0  0  0  0
 16 18  2  0  0  0  0
 16 19  1  0  0  0  0
 17 20  1  0  0  0  0
 17 21  1  0  0  0  0
 18 22  1  0  0  0  0
 19 23  2  0  0  0  0
 20 24  2  0  0  0  0
 20 25  1  0  0  0  0
 22 26  2  0  0  0  0
 25 27  2  0  0  0  0
 25 28  1  0  0  0  0
 27 29  1  0  0  0  0
 28 30  2  0  0  0  0
 29 31  1  0  0  0  0
 29 32  2  0  0  0  0
 31 33  1  0  0  0  0
 32 34  1  0  0  0  0
 33 35  1  0  0  0  0
 35 36  1  0  0  0  0
 35 37  1  0  0  0  0
 36 38  1  0  0  0  0
  4  6  1  0  0  0  0
 23 26  1  0  0  0  0
 30 32  1  0  0  0  0
 33 34  2  0  0  0  0
M  END
>  <MolRegNo>
1354894

>  <m>
=

>  <Value>
110

>  <Unit>
nM

>  <Type>
IC50

>  <pValue>
6.96

>  <Ligand Efficiency>
0

>  <Binding Efficiency>
0

>  <Surface Efficiency>
0

>  <Assay Index>
663293

>  <Assay Category>


>  <Assay Organism>
Homo sapiens

>  <Target ID>
17045

>  <Target Name>
Cytochrome P450 3A4

>  <Target Organism>
Homo sapiens

>  <Target Description>
Target is a single protein chain

>  <Sequence Accession>
P08684

>  <Reference>
Bioorg Med Chem Lett 22 (15), 4998-5002 (2012)

>  <Pubmed ID>
22765892

>  <DOI>
10.1016/j.bmcl.2012.06.022

$$$$
1354895
Actelion Java MolfileCreator 1.0

 46 51  0  0  0  0  0  0  0  0999 V2000
    0.0000   -0.0000   -0.0000 S   0  0  0  0  0  0  0  0  0  0  0  0
    1.4282   -0.4404   -0.0000 C   0  0  0  0  0  0  0  0  0  0  0  0
   -0.8926   -1.0474   -0.0000 C   0  0  0  0  0  0  0  0  0  0  0  0
    1.4282   -1.9400   -0.0000 C   0  0  0  0  0  0  0  0  0  0  0  0
    2.7970    0.2380   -0.0000 C   0  0  0  0  0  0  0  0  0  0  0  0
   -0.0119   -2.4280   -0.0000 N   0  0  0  0  0  0  0  0  0  0  0  0
    4.0943   -0.4999   -0.0000 O   0  0  0  0  0  0  0  0  0  0  0  0
    5.3916    0.2618   -0.0000 C   0  0  0  0  0  0  0  0  0  0  0  0
    5.3797    1.7853   -0.0000 O   0  0  0  0  0  0  0  0  0  0  0  0
    6.6889   -0.4761   -0.0000 N   0  0  0  0  0  0  0  0  0  0  0  0
    7.9743    0.2856   -0.0000 C   0  0  0  0  0  0  0  0  0  0  0  0
    9.2716   -0.4523   -0.0000 C   0  0  0  0  0  0  0  0  0  0  0  0
    7.9624    1.8091   -0.0000 C   0  0  0  0  0  0  0  0  0  0  0  0
    9.2597   -1.9519   -0.0000 O   0  0  0  0  0  0  0  0  0  0  0  0
   10.5689    0.3095   -0.0000 C   0  0  0  0  0  0  0  0  0  0  0  0
    9.2597    2.5827   -0.0000 C   0  0  0  0  0  0  0  0  0  0  0  0
   11.8662   -0.4285   -0.0000 N   0  0  0  0  0  0  0  0  0  0  0  0
   10.5570    1.8329   -0.0000 C   0  0  0  0  0  0  0  0  0  0  0  0
    9.2478    4.0943   -0.0000 C   0  0  0  0  0  0  0  0  0  0  0  0
   13.1635    0.3333   -0.0000 C   0  0  0  0  0  0  0  0  0  0  0  0
   11.8543   -1.9281   -0.0000 C   0  0  0  0  0  0  0  0  0  0  0  0
   11.8543    2.6065   -0.0000 C   0  0  0  0  0  0  0  0  0  0  0  0
   10.5332    4.8560   -0.0000 C   0  0  0  0  0  0  0  0  0  0  0  0
   13.1516    1.8567   -0.0000 O   0  0  0  0  0  0  0  0  0  0  0  0
   14.4609   -0.4047   -0.0000 C   0  0  0  0  0  0  0  0  0  0  0  0
   10.5451   -2.6660   -0.0000 C   0  0  0  0  0  0  0  0  0  0  0  0
   11.8424    4.1300   -0.0000 C   0  0  0  0  0  0  0  0  0  0  0  0
   14.4490   -1.9043   -0.0000 C   0  0  0  0  0  0  0  0  0  0  0  0
   15.7463    0.3571   -0.0000 C   0  0  0  0  0  0  0  0  0  0  0  0
   10.5332   -4.1538   -0.0000 N   0  0  0  0  0  0  0  0  0  0  0  0
   15.7463   -2.6422   -0.0000 C   0  0  0  0  0  0  0  0  0  0  0  0
   17.0436   -0.3809   -0.0000 C   0  0  0  0  0  0  0  0  0  0  0  0
    9.2240   -4.8917   -0.0000 C   0  0  0  0  0  0  0  0  0  0  0  0
   11.8305   -4.8798   -0.0000 C   0  0  0  0  0  0  0  0  0  0  0  0
   16.0438   -4.1062   -0.0000 O   0  0  0  0  0  0  0  0  0  0  0  0
   17.0436   -1.8805   -0.0000 C   0  0  0  0  0  0  0  0  0  0  0  0
    9.2121   -6.3794   -0.0000 C   0  0  0  0  0  0  0  0  0  0  0  0
   11.8186   -6.3794   -0.0000 C   0  0  0  0  0  0  0  0  0  0  0  0
   17.5316   -4.2490   -0.0000 C   0  0  0  0  0  0  0  0  0  0  0  0
   18.1386   -2.8803   -0.0000 N   0  0  0  0  0  0  0  0  0  0  0  0
   10.4975   -7.1293   -0.0000 O   0  0  0  0  0  0  0  0  0  0  0  0
   18.2695   -5.5344   -0.0000 N   0  0  0  0  0  0  0  0  0  0  0  0
   17.6506   -6.8912   -0.0000 C   0  0  0  0  0  0  0  0  0  0  0  0
   19.7572   -5.6772   -0.0000 C   0  0  0  0  0  0  0  0  0  0  0  0
   18.7575   -7.8791   -0.0000 C   0  0  0  0  0  0  0  0  0  0  0  0
   20.0548   -7.1293   -0.0000 C   0  0  0  0  0  0  0  0  0  0  0  0
  1  2  1  0  0  0  0
  1  3  1  0  0  0  0
  2  4  2  0  0  0  0
  2  5  1  0  0  0  0
  3  6  2  0  0  0  0
  5  7  1  0  0  0  0
  7  8  1  0  0  0  0
  8  9  2  0  0  0  0
  8 10  1  0  0  0  0
 11 10  1  6  0  0  0
 11 12  1  0  0  0  0
 11 13  1  0  0  0  0
 12 14  1  6  0  0  0
 12 15  1  0  0  0  0
 13 16  1  0  0  0  0
 15 17  1  0  0  0  0
 16 18  2  0  0  0  0
 16 19  1  0  0  0  0
 17 20  1  0  0  0  0
 17 21  1  0  0  0  0
 18 22  1  0  0  0  0
 19 23  2  0  0  0  0
 20 24  2  0  0  0  0
 20 25  1  0  0  0  0
 21 26  1  0  0  0  0
 22 27  2  0  0  0  0
 25 28  2  0  0  0  0
 25 29  1  0  0  0  0
 26 30  1  0  0  0  0
 28 31  1  0  0  0  0
 29 32  2  0  0  0  0
 30 33  1  0  0  0  0
 30 34  1  0  0  0  0
 31 35  1  0  0  0  0
 31 36  2  0  0  0  0
 33 37  1  0  0  0  0
 34 38  1  0  0  0  0
 35 39  1  0  0  0  0
 36 40  1  0  0  0  0
 37 41  1  0  0  0  0
 39 42  1  0  0  0  0
 42 43  1  0  0  0  0
 42 44  1  0  0  0  0
 43 45  1  0  0  0  0
 44 46  1  0  0  0  0
  4  6  1  0  0  0  0
 23 27  1  0  0  0  0
 32 36  1  0  0  0  0
 38 41  1  0  0  0  0
 39 40  2  0  0  0  0
 45 46  1  0  0  0  0
M  END
>  <MolRegNo>
1354895

>  <m>
=

>  <Value>
120

>  <Unit>
nM

>  <Type>
IC50

>  <pValue>
6.92

>  <Ligand Efficiency>
0

>  <Binding Efficiency>
0

>  <Surface Efficiency>
0

>  <Assay Index>
663293

>  <Assay Category>


>  <Assay Organism>
Homo sapiens

>  <Target ID>
17045

>  <Target Name>
Cytochrome P450 3A4

>  <Target Organism>
Homo sapiens

>  <Target Description>
Target is a single protein chain

>  <Sequence Accession>
P08684

>  <Reference>
Bioorg Med Chem Lett 22 (15), 4998-5002 (2012)

>  <Pubmed ID>
22765892

>  <DOI>
10.1016/j.bmcl.2012.06.022

$$$$
1354890
Actelion Java MolfileCreator 1.0

 45 50  0  0  0  0  0  0  0  0999 V2000
    0.0000   -0.0000   -0.0000 S   0  0  0  0  0  0  0  0  0  0  0  0
    1.4285   -0.4405   -0.0000 C   0  0  0  0  0  0  0  0  0  0  0  0
   -0.8928   -1.0476   -0.0000 C   0  0  0  0  0  0  0  0  0  0  0  0
    1.4285   -1.9404   -0.0000 C   0  0  0  0  0  0  0  0  0  0  0  0
    2.7975    0.2381   -0.0000 C   0  0  0  0  0  0  0  0  0  0  0  0
    0.0000   -2.4285   -0.0000 N   0  0  0  0  0  0  0  0  0  0  0  0
    4.0951   -0.5000   -0.0000 O   0  0  0  0  0  0  0  0  0  0  0  0
    5.3927    0.2619   -0.0000 C   0  0  0  0  0  0  0  0  0  0  0  0
    5.3808    1.7857   -0.0000 O   0  0  0  0  0  0  0  0  0  0  0  0
    6.6903   -0.4762   -0.0000 N   0  0  0  0  0  0  0  0  0  0  0  0
    7.9760    0.2857   -0.0000 C   0  0  0  0  0  0  0  0  0  0  0  0
    9.2735   -0.4524   -0.0000 C   0  0  0  0  0  0  0  0  0  0  0  0
    7.9641    1.8095   -0.0000 C   0  0  0  0  0  0  0  0  0  0  0  0
    9.2616   -1.9523   -0.0000 O   0  0  0  0  0  0  0  0  0  0  0  0
   10.5711    0.3095   -0.0000 C   0  0  0  0  0  0  0  0  0  0  0  0
    9.2616    2.5833   -0.0000 C   0  0  0  0  0  0  0  0  0  0  0  0
   11.8687   -0.4286   -0.0000 N   0  0  0  0  0  0  0  0  0  0  0  0
   10.5592    1.8333   -0.0000 C   0  0  0  0  0  0  0  0  0  0  0  0
    9.2497    4.0951   -0.0000 C   0  0  0  0  0  0  0  0  0  0  0  0
   13.1663    0.3333   -0.0000 C   0  0  0  0  0  0  0  0  0  0  0  0
   11.8568   -1.9285   -0.0000 C   0  0  0  0  0  0  0  0  0  0  0  0
   11.8568    2.6071   -0.0000 C   0  0  0  0  0  0  0  0  0  0  0  0
   10.5354    4.8570   -0.0000 C   0  0  0  0  0  0  0  0  0  0  0  0
   13.1544    1.8571   -0.0000 O   0  0  0  0  0  0  0  0  0  0  0  0
   14.4639   -0.4048   -0.0000 C   0  0  0  0  0  0  0  0  0  0  0  0
   10.5473   -2.6666   -0.0000 C   0  0  0  0  0  0  0  0  0  0  0  0
   11.8449    4.1308   -0.0000 C   0  0  0  0  0  0  0  0  0  0  0  0
   14.4520   -1.9047   -0.0000 C   0  0  0  0  0  0  0  0  0  0  0  0
   15.7495    0.3571   -0.0000 C   0  0  0  0  0  0  0  0  0  0  0  0
   10.5354   -4.1546   -0.0000 N   0  0  0  0  0  0  0  0  0  0  0  0
   15.7495   -2.6428   -0.0000 C   0  0  0  0  0  0  0  0  0  0  0  0
   17.0471   -0.3809   -0.0000 C   0  0  0  0  0  0  0  0  0  0  0  0
    9.3212   -5.0356   -0.0000 C   0  0  0  0  0  0  0  0  0  0  0  0
   11.7497   -5.0237   -0.0000 C   0  0  0  0  0  0  0  0  0  0  0  0
   16.0472   -4.1070   -0.0000 O   0  0  0  0  0  0  0  0  0  0  0  0
   17.0471   -1.8809   -0.0000 C   0  0  0  0  0  0  0  0  0  0  0  0
    9.7735   -6.4522   -0.0000 C   0  0  0  0  0  0  0  0  0  0  0  0
   11.2735   -6.4403   -0.0000 C   0  0  0  0  0  0  0  0  0  0  0  0
   17.5352   -4.2499   -0.0000 C   0  0  0  0  0  0  0  0  0  0  0  0
   18.1423   -2.8809   -0.0000 N   0  0  0  0  0  0  0  0  0  0  0  0
   18.2733   -5.5356   -0.0000 N   0  0  0  0  0  0  0  0  0  0  0  0
   17.6542   -6.8927   -0.0000 C   0  0  0  0  0  0  0  0  0  0  0  0
   19.7613   -5.6784   -0.0000 C   0  0  0  0  0  0  0  0  0  0  0  0
   18.7614   -7.8807   -0.0000 C   0  0  0  0  0  0  0  0  0  0  0  0
   20.0589   -7.1307   -0.0000 C   0  0  0  0  0  0  0  0  0  0  0  0
  1  2  1  0  0  0  0
  1  3  1  0  0  0  0
  2  4  2  0  0  0  0
  2  5  1  0  0  0  0
  3  6  2  0  0  0  0
  5  7  1  0  0  0  0
  7  8  1  0  0  0  0
  8  9  2  0  0  0  0
  8 10  1  0  0  0  0
 11 10  1  6  0  0  0
 11 12  1  0  0  0  0
 11 13  1  0  0  0  0
 12 14  1  6  0  0  0
 12 15  1  0  0  0  0
 13 16  1  0  0  0  0
 15 17  1  0  0  0  0
 16 18  2  0  0  0  0
 16 19  1  0  0  0  0
 17 20  1  0  0  0  0
 17 21  1  0  0  0  0
 18 22  1  0  0  0  0
 19 23  2  0  0  0  0
 20 24  2  0  0  0  0
 20 25  1  0  0  0  0
 21 26  1  0  0  0  0
 22 27  2  0  0  0  0
 25 28  2  0  0  0  0
 25 29  1  0  0  0  0
 26 30  1  0  0  0  0
 28 31  1  0  0  0  0
 29 32  2  0  0  0  0
 30 33  1  0  0  0  0
 30 34  1  0  0  0  0
 31 35  1  0  0  0  0
 31 36  2  0  0  0  0
 33 37  1  0  0  0  0
 34 38  1  0  0  0  0
 35 39  1  0  0  0  0
 36 40  1  0  0  0  0
 39 41  1  0  0  0  0
 41 42  1  0  0  0  0
 41 43  1  0  0  0  0
 42 44  1  0  0  0  0
 43 45  1  0  0  0  0
  4  6  1  0  0  0  0
 23 27  1  0  0  0  0
 32 36  1  0  0  0  0
 37 38  1  0  0  0  0
 39 40  2  0  0  0  0
 44 45  1  0  0  0  0
M  END
>  <MolRegNo>
1354890

>  <m>
=

>  <Value>
130

>  <Unit>
nM

>  <Type>
IC50

>  <pValue>
6.89

>  <Ligand Efficiency>
0

>  <Binding Efficiency>
0

>  <Surface Efficiency>
0

>  <Assay Index>
663293

>  <Assay Category>


>  <Assay Organism>
Homo sapiens

>  <Target ID>
17045

>  <Target Name>
Cytochrome P450 3A4

>  <Target Organism>
Homo sapiens

>  <Target Description>
Target is a single protein chain

>  <Sequence Accession>
P08684

>  <Reference>
Bioorg Med Chem Lett 22 (15), 4998-5002 (2012)

>  <Pubmed ID>
22765892

>  <DOI>
10.1016/j.bmcl.2012.06.022

$$$$
1354675
Actelion Java MolfileCreator 1.0

 45 49  0  0  0  0  0  0  0  0999 V2000
    0.0000   -0.0000   -0.0000 S   0  0  0  0  0  0  0  0  0  0  0  0
    1.3683   -0.5949   -0.0000 C   0  0  0  0  0  0  0  0  0  0  0  0
   -1.0113   -1.1065   -0.0000 C   0  0  0  0  0  0  0  0  0  0  0  0
    1.2017   -2.0821   -0.0000 C   0  0  0  0  0  0  0  0  0  0  0  0
    2.6651    0.1666   -0.0000 C   0  0  0  0  0  0  0  0  0  0  0  0
   -0.2737   -2.4034   -0.0000 N   0  0  0  0  0  0  0  0  0  0  0  0
    3.9620   -0.5711   -0.0000 O   0  0  0  0  0  0  0  0  0  0  0  0
    5.2589    0.1904   -0.0000 C   0  0  0  0  0  0  0  0  0  0  0  0
    5.2470    1.7133   -0.0000 O   0  0  0  0  0  0  0  0  0  0  0  0
    6.5557   -0.5473   -0.0000 N   0  0  0  0  0  0  0  0  0  0  0  0
    7.8407    0.2142   -0.0000 C   0  0  0  0  0  0  0  0  0  0  0  0
    9.1376   -0.5235   -0.0000 C   0  0  0  0  0  0  0  0  0  0  0  0
    7.8288    1.7371   -0.0000 C   0  0  0  0  0  0  0  0  0  0  0  0
    9.1257   -2.0226   -0.0000 O   0  0  0  0  0  0  0  0  0  0  0  0
   10.4344    0.2380   -0.0000 C   0  0  0  0  0  0  0  0  0  0  0  0
    9.1257    2.5104   -0.0000 C   0  0  0  0  0  0  0  0  0  0  0  0
   11.7313   -0.4997   -0.0000 N   0  0  0  0  0  0  0  0  0  0  0  0
   10.4225    1.7609   -0.0000 C   0  0  0  0  0  0  0  0  0  0  0  0
    9.1138    4.0215   -0.0000 C   0  0  0  0  0  0  0  0  0  0  0  0
   13.0282    0.2618   -0.0000 C   0  0  0  0  0  0  0  0  0  0  0  0
   11.7194   -1.9869   -0.0000 C   0  0  0  0  0  0  0  0  0  0  0  0
   11.7194    2.5342   -0.0000 C   0  0  0  0  0  0  0  0  0  0  0  0
   10.3987    4.7829   -0.0000 C   0  0  0  0  0  0  0  0  0  0  0  0
   13.0163    1.7847   -0.0000 O   0  0  0  0  0  0  0  0  0  0  0  0
   14.3250   -0.4759   -0.0000 C   0  0  0  0  0  0  0  0  0  0  0  0
   10.3987   -2.7365   -0.0000 C   0  0  0  0  0  0  0  0  0  0  0  0
   11.7075    4.0572   -0.0000 C   0  0  0  0  0  0  0  0  0  0  0  0
   14.3131   -1.9750   -0.0000 C   0  0  0  0  0  0  0  0  0  0  0  0
   15.6100    0.2855   -0.0000 C   0  0  0  0  0  0  0  0  0  0  0  0
   10.3868   -4.2356   -0.0000 N   0  0  0  0  0  0  0  0  0  0  0  0
   15.6100   -2.7127   -0.0000 C   0  0  0  0  0  0  0  0  0  0  0  0
   16.9069   -0.4402   -0.0000 C   0  0  0  0  0  0  0  0  0  0  0  0
    9.0781   -4.9733   -0.0000 C   0  0  0  0  0  0  0  0  0  0  0  0
   11.6837   -4.9614   -0.0000 C   0  0  0  0  0  0  0  0  0  0  0  0
   15.9074   -4.1761   -0.0000 O   0  0  0  0  0  0  0  0  0  0  0  0
   16.9069   -1.9512   -0.0000 C   0  0  0  0  0  0  0  0  0  0  0  0
    9.0662   -6.4605   -0.0000 C   0  0  0  0  0  0  0  0  0  0  0  0
   11.6718   -6.4605   -0.0000 C   0  0  0  0  0  0  0  0  0  0  0  0
   17.3947   -4.3189   -0.0000 C   0  0  0  0  0  0  0  0  0  0  0  0
   18.0015   -2.9507   -0.0000 N   0  0  0  0  0  0  0  0  0  0  0  0
   10.3630   -7.2101   -0.0000 O   0  0  0  0  0  0  0  0  0  0  0  0
   18.1323   -5.6158   -0.0000 N   0  0  0  0  0  0  0  0  0  0  0  0
   19.6315   -5.6039   -0.0000 C   0  0  0  0  0  0  0  0  0  0  0  0
   17.3709   -6.9127   -0.0000 C   0  0  0  0  0  0  0  0  0  0  0  0
   20.3810   -6.9008   -0.0000 C   0  0  0  0  0  0  0  0  0  0  0  0
  1  2  1  0  0  0  0
  1  3  1  0  0  0  0
  2  4  2  0  0  0  0
  2  5  1  0  0  0  0
  3  6  2  0  0  0  0
  5  7  1  0  0  0  0
  7  8  1  0  0  0  0
  8  9  2  0  0  0  0
  8 10  1  0  0  0  0
 11 10  1  6  0  0  0
 11 12  1  0  0  0  0
 11 13  1  0  0  0  0
 12 14  1  6  0  0  0
 12 15  1  0  0  0  0
 13 16  1  0  0  0  0
 15 17  1  0  0  0  0
 16 18  2  0  0  0  0
 16 19  1  0  0  0  0
 17 20  1  0  0  0  0
 17 21  1  0  0  0  0
 18 22  1  0  0  0  0
 19 23  2  0  0  0  0
 20 24  2  0  0  0  0
 20 25  1  0  0  0  0
 21 26  1  0  0  0  0
 22 27  2  0  0  0  0
 25 28  2  0  0  0  0
 25 29  1  0  0  0  0
 26 30  1  0  0  0  0
 28 31  1  0  0  0  0
 29 32  2  0  0  0  0
 30 33  1  0  0  0  0
 30 34  1  0  0  0  0
 31 35  1  0  0  0  0
 31 36  2  0  0  0  0
 33 37  1  0  0  0  0
 34 38  1  0  0  0  0
 35 39  1  0  0  0  0
 36 40  1  0  0  0  0
 37 41  1  0  0  0  0
 39 42  1  0  0  0  0
 42 43  1  0  0  0  0
 42 44  1  0  0  0  0
 43 45  1  0  0  0  0
  4  6  1  0  0  0  0
 23 27  1  0  0  0  0
 32 36  1  0  0  0  0
 38 41  1  0  0  0  0
 39 40  2  0  0  0  0
M  END
>  <MolRegNo>
1354675

>  <m>
=

>  <Value>
140

>  <Unit>
nM

>  <Type>
IC50

>  <pValue>
6.85

>  <Ligand Efficiency>
0

>  <Binding Efficiency>
0

>  <Surface Efficiency>
0

>  <Assay Index>
663293

>  <Assay Category>


>  <Assay Organism>
Homo sapiens

>  <Target ID>
17045

>  <Target Name>
Cytochrome P450 3A4

>  <Target Organism>
Homo sapiens

>  <Target Description>
Target is a single protein chain

>  <Sequence Accession>
P08684

>  <Reference>
Bioorg Med Chem Lett 22 (15), 4998-5002 (2012)

>  <Pubmed ID>
22765892

>  <DOI>
10.1016/j.bmcl.2012.06.022

$$$$
1354889
Actelion Java MolfileCreator 1.0

 44 48  0  0  0  0  0  0  0  0999 V2000
    0.0000   -0.0000   -0.0000 S   0  0  0  0  0  0  0  0  0  0  0  0
    1.4276   -0.4402   -0.0000 C   0  0  0  0  0  0  0  0  0  0  0  0
   -0.8922   -1.0469   -0.0000 C   0  0  0  0  0  0  0  0  0  0  0  0
    1.4276   -1.9392   -0.0000 C   0  0  0  0  0  0  0  0  0  0  0  0
    2.7957    0.2379   -0.0000 C   0  0  0  0  0  0  0  0  0  0  0  0
    0.0000   -2.4269   -0.0000 N   0  0  0  0  0  0  0  0  0  0  0  0
    4.0924   -0.4997   -0.0000 O   0  0  0  0  0  0  0  0  0  0  0  0
    5.3892    0.2617   -0.0000 C   0  0  0  0  0  0  0  0  0  0  0  0
    5.3773    1.7845   -0.0000 O   0  0  0  0  0  0  0  0  0  0  0  0
    6.6859   -0.4759   -0.0000 N   0  0  0  0  0  0  0  0  0  0  0  0
    7.9707    0.2855   -0.0000 C   0  0  0  0  0  0  0  0  0  0  0  0
    9.2675   -0.4521   -0.0000 C   0  0  0  0  0  0  0  0  0  0  0  0
    7.9588    1.8083   -0.0000 C   0  0  0  0  0  0  0  0  0  0  0  0
    9.2556   -1.9510   -0.0000 O   0  0  0  0  0  0  0  0  0  0  0  0
   10.5642    0.3093   -0.0000 C   0  0  0  0  0  0  0  0  0  0  0  0
    9.2556    2.5816   -0.0000 C   0  0  0  0  0  0  0  0  0  0  0  0
   11.8609   -0.4283   -0.0000 N   0  0  0  0  0  0  0  0  0  0  0  0
   10.5523    1.8321   -0.0000 C   0  0  0  0  0  0  0  0  0  0  0  0
    9.2437    4.0924   -0.0000 C   0  0  0  0  0  0  0  0  0  0  0  0
   13.1577    0.3331   -0.0000 C   0  0  0  0  0  0  0  0  0  0  0  0
   11.8490   -1.9273   -0.0000 C   0  0  0  0  0  0  0  0  0  0  0  0
   11.8490    2.6054   -0.0000 C   0  0  0  0  0  0  0  0  0  0  0  0
   10.5285    4.8538   -0.0000 C   0  0  0  0  0  0  0  0  0  0  0  0
   13.1458    1.8559   -0.0000 O   0  0  0  0  0  0  0  0  0  0  0  0
   14.4544   -0.4045   -0.0000 C   0  0  0  0  0  0  0  0  0  0  0  0
   10.5404   -2.6648   -0.0000 C   0  0  0  0  0  0  0  0  0  0  0  0
   11.8371    4.1281   -0.0000 C   0  0  0  0  0  0  0  0  0  0  0  0
   14.4425   -1.9035   -0.0000 C   0  0  0  0  0  0  0  0  0  0  0  0
   15.7392    0.3569   -0.0000 C   0  0  0  0  0  0  0  0  0  0  0  0
   10.5285   -4.1519   -0.0000 N   0  0  0  0  0  0  0  0  0  0  0  0
   15.7392   -2.6411   -0.0000 C   0  0  0  0  0  0  0  0  0  0  0  0
   17.0360   -0.3807   -0.0000 C   0  0  0  0  0  0  0  0  0  0  0  0
    9.3032   -5.0323   -0.0000 C   0  0  0  0  0  0  0  0  0  0  0  0
   11.7420   -5.0204   -0.0000 C   0  0  0  0  0  0  0  0  0  0  0  0
   16.0367   -4.1043   -0.0000 O   0  0  0  0  0  0  0  0  0  0  0  0
   17.0360   -1.8797   -0.0000 C   0  0  0  0  0  0  0  0  0  0  0  0
    9.7552   -6.4480   -0.0000 C   0  0  0  0  0  0  0  0  0  0  0  0
   11.2661   -6.4361   -0.0000 C   0  0  0  0  0  0  0  0  0  0  0  0
   17.5237   -4.2471   -0.0000 C   0  0  0  0  0  0  0  0  0  0  0  0
   18.1305   -2.8790   -0.0000 N   0  0  0  0  0  0  0  0  0  0  0  0
   18.2613   -5.5319   -0.0000 N   0  0  0  0  0  0  0  0  0  0  0  0
   19.7484   -5.5081   -0.0000 C   0  0  0  0  0  0  0  0  0  0  0  0
   17.4880   -6.8168   -0.0000 C   0  0  0  0  0  0  0  0  0  0  0  0
   20.4979   -6.7930   -0.0000 C   0  0  0  0  0  0  0  0  0  0  0  0
  1  2  1  0  0  0  0
  1  3  1  0  0  0  0
  2  4  2  0  0  0  0
  2  5  1  0  0  0  0
  3  6  2  0  0  0  0
  5  7  1  0  0  0  0
  7  8  1  0  0  0  0
  8  9  2  0  0  0  0
  8 10  1  0  0  0  0
 11 10  1  6  0  0  0
 11 12  1  0  0  0  0
 11 13  1  0  0  0  0
 12 14  1  6  0  0  0
 12 15  1  0  0  0  0
 13 16  1  0  0  0  0
 15 17  1  0  0  0  0
 16 18  2  0  0  0  0
 16 19  1  0  0  0  0
 17 20  1  0  0  0  0
 17 21  1  0  0  0  0
 18 22  1  0  0  0  0
 19 23  2  0  0  0  0
 20 24  2  0  0  0  0
 20 25  1  0  0  0  0
 21 26  1  0  0  0  0
 22 27  2  0  0  0  0
 25 28  2  0  0  0  0
 25 29  1  0  0  0  0
 26 30  1  0  0  0  0
 28 31  1  0  0  0  0
 29 32  2  0  0  0  0
 30 33  1  0  0  0  0
 30 34  1  0  0  0  0
 31 35  1  0  0  0  0
 31 36  2  0  0  0  0
 33 37  1  0  0  0  0
 34 38  1  0  0  0  0
 35 39  1  0  0  0  0
 36 40  1  0  0  0  0
 39 41  1  0  0  0  0
 41 42  1  0  0  0  0
 41 43  1  0  0  0  0
 42 44  1  0  0  0  0
  4  6  1  0  0  0  0
 23 27  1  0  0  0  0
 32 36  1  0  0  0  0
 37 38  1  0  0  0  0
 39 40  2  0  0  0  0
M  END
>  <MolRegNo>
1354889

>  <m>
=

>  <Value>
140

>  <Unit>
nM

>  <Type>
IC50

>  <pValue>
6.85

>  <Ligand Efficiency>
0

>  <Binding Efficiency>
0

>  <Surface Efficiency>
0

>  <Assay Index>
663293

>  <Assay Category>


>  <Assay Organism>
Homo sapiens

>  <Target ID>
17045

>  <Target Name>
Cytochrome P450 3A4

>  <Target Organism>
Homo sapiens

>  <Target Description>
Target is a single protein chain

>  <Sequence Accession>
P08684

>  <Reference>
Bioorg Med Chem Lett 22 (15), 4998-5002 (2012)

>  <Pubmed ID>
22765892

>  <DOI>
10.1016/j.bmcl.2012.06.022

$$$$
1353277
Actelion Java MolfileCreator 1.0

 42 45  0  0  0  0  0  0  0  0999 V2000
    0.0000   -0.0000   -0.0000 S   0  0  0  0  0  0  0  0  0  0  0  0
    1.4285   -0.4404   -0.0000 C   0  0  0  0  0  0  0  0  0  0  0  0
   -0.8928   -1.0475   -0.0000 C   0  0  0  0  0  0  0  0  0  0  0  0
    1.4285   -1.9403   -0.0000 C   0  0  0  0  0  0  0  0  0  0  0  0
    2.7974    0.2381   -0.0000 C   0  0  0  0  0  0  0  0  0  0  0  0
    0.0000   -2.4284   -0.0000 N   0  0  0  0  0  0  0  0  0  0  0  0
    4.0949   -0.5000   -0.0000 O   0  0  0  0  0  0  0  0  0  0  0  0
    5.3924    0.2619   -0.0000 C   0  0  0  0  0  0  0  0  0  0  0  0
    5.3805    1.7856   -0.0000 O   0  0  0  0  0  0  0  0  0  0  0  0
    6.6899   -0.4762   -0.0000 N   0  0  0  0  0  0  0  0  0  0  0  0
    7.9756    0.2857   -0.0000 C   0  0  0  0  0  0  0  0  0  0  0  0
    9.2731   -0.4523   -0.0000 C   0  0  0  0  0  0  0  0  0  0  0  0
    7.9636    1.8094   -0.0000 C   0  0  0  0  0  0  0  0  0  0  0  0
    9.2612   -1.9522   -0.0000 O   0  0  0  0  0  0  0  0  0  0  0  0
   10.5706    0.3095   -0.0000 C   0  0  0  0  0  0  0  0  0  0  0  0
    9.2612    2.5831   -0.0000 C   0  0  0  0  0  0  0  0  0  0  0  0
   11.8681   -0.4285   -0.0000 N   0  0  0  0  0  0  0  0  0  0  0  0
   10.5587    1.8332   -0.0000 C   0  0  0  0  0  0  0  0  0  0  0  0
    9.2493    4.0949   -0.0000 C   0  0  0  0  0  0  0  0  0  0  0  0
   13.1656    0.3333   -0.0000 C   0  0  0  0  0  0  0  0  0  0  0  0
   11.8562   -1.9284   -0.0000 C   0  0  0  0  0  0  0  0  0  0  0  0
   11.8562    2.6069   -0.0000 C   0  0  0  0  0  0  0  0  0  0  0  0
   10.5349    4.8568   -0.0000 C   0  0  0  0  0  0  0  0  0  0  0  0
   13.1537    1.8570   -0.0000 O   0  0  0  0  0  0  0  0  0  0  0  0
   14.4631   -0.4047   -0.0000 C   0  0  0  0  0  0  0  0  0  0  0  0
   12.9037   -2.9760   -0.0000 C   0  0  0  0  0  0  0  0  0  0  0  0
   11.8443    4.1306   -0.0000 C   0  0  0  0  0  0  0  0  0  0  0  0
   14.4512   -1.9046   -0.0000 C   0  0  0  0  0  0  0  0  0  0  0  0
   15.7487    0.3571   -0.0000 C   0  0  0  0  0  0  0  0  0  0  0  0
   13.9513   -4.0235   -0.0000 O   0  0  0  0  0  0  0  0  0  0  0  0
   12.5109   -4.4163   -0.0000 C   0  0  0  0  0  0  0  0  0  0  0  0
   14.3441   -2.5712   -0.0000 C   0  0  0  0  0  0  0  0  0  0  0  0
   15.7487   -2.6426   -0.0000 C   0  0  0  0  0  0  0  0  0  0  0  0
   17.0463   -0.3809   -0.0000 C   0  0  0  0  0  0  0  0  0  0  0  0
   16.0463   -4.1068   -0.0000 O   0  0  0  0  0  0  0  0  0  0  0  0
   17.0463   -1.8808   -0.0000 C   0  0  0  0  0  0  0  0  0  0  0  0
   17.5343   -4.2497   -0.0000 C   0  0  0  0  0  0  0  0  0  0  0  0
   18.1414   -2.8807   -0.0000 N   0  0  0  0  0  0  0  0  0  0  0  0
   18.2723   -5.5353   -0.0000 N   0  0  0  0  0  0  0  0  0  0  0  0
   19.7603   -5.6781   -0.0000 C   0  0  0  0  0  0  0  0  0  0  0  0
   17.6533   -6.8923   -0.0000 C   0  0  0  0  0  0  0  0  0  0  0  0
   20.0579   -7.1304   -0.0000 C   0  0  0  0  0  0  0  0  0  0  0  0
  1  2  1  0  0  0  0
  1  3  1  0  0  0  0
  2  4  2  0  0  0  0
  2  5  1  0  0  0  0
  3  6  2  0  0  0  0
  5  7  1  0  0  0  0
  7  8  1  0  0  0  0
  8  9  2  0  0  0  0
  8 10  1  0  0  0  0
 11 10  1  6  0  0  0
 11 12  1  0  0  0  0
 11 13  1  0  0  0  0
 12 14  1  6  0  0  0
 12 15  1  0  0  0  0
 13 16  1  0  0  0  0
 15 17  1  0  0  0  0
 16 18  2  0  0  0  0
 16 19  1  0  0  0  0
 17 20  1  0  0  0  0
 17 21  1  0  0  0  0
 18 22  1  0  0  0  0
 19 23  2  0  0  0  0
 20 24  2  0  0  0  0
 20 25  1  0  0  0  0
 21 26  1  0  0  0  0
 22 27  2  0  0  0  0
 25 28  2  0  0  0  0
 25 29  1  0  0  0  0
 26 30  1  0  0  0  0
 26 31  1  0  0  0  0
 26 32  1  0  0  0  0
 28 33  1  0  0  0  0
 29 34  2  0  0  0  0
 33 35  1  0  0  0  0
 33 36  2  0  0  0  0
 35 37  1  0  0  0  0
 36 38  1  0  0  0  0
 37 39  1  0  0  0  0
 39 40  1  0  0  0  0
 39 41  1  0  0  0  0
 40 42  1  0  0  0  0
  4  6  1  0  0  0  0
 23 27  1  0  0  0  0
 34 36  1  0  0  0  0
 37 38  2  0  0  0  0
M  END
>  <MolRegNo>
1353277

>  <m>
=

>  <Value>
140

>  <Unit>
nM

>  <Type>
IC50

>  <pValue>
6.85

>  <Ligand Efficiency>
0

>  <Binding Efficiency>
0

>  <Surface Efficiency>
0

>  <Assay Index>
663293

>  <Assay Category>


>  <Assay Organism>
Homo sapiens

>  <Target ID>
17045

>  <Target Name>
Cytochrome P450 3A4

>  <Target Organism>
Homo sapiens

>  <Target Description>
Target is a single protein chain

>  <Sequence Accession>
P08684

>  <Reference>
Bioorg Med Chem Lett 22 (15), 4998-5002 (2012)

>  <Pubmed ID>
22765892

>  <DOI>
10.1016/j.bmcl.2012.06.022

$$$$
1353268
Actelion Java MolfileCreator 1.0

 44 47  0  0  0  0  0  0  0  0999 V2000
    0.0000   -0.0000   -0.0000 S   0  0  0  0  0  0  0  0  0  0  0  0
    1.4277   -0.4402   -0.0000 C   0  0  0  0  0  0  0  0  0  0  0  0
   -0.8923   -1.0470   -0.0000 C   0  0  0  0  0  0  0  0  0  0  0  0
    1.4158   -1.9393   -0.0000 C   0  0  0  0  0  0  0  0  0  0  0  0
    2.7840    0.2380   -0.0000 C   0  0  0  0  0  0  0  0  0  0  0  0
   -0.0119   -2.4271   -0.0000 N   0  0  0  0  0  0  0  0  0  0  0  0
    4.0927   -0.4997   -0.0000 O   0  0  0  0  0  0  0  0  0  0  0  0
    5.3896    0.2617   -0.0000 C   0  0  0  0  0  0  0  0  0  0  0  0
    5.3777    1.7846   -0.0000 O   0  0  0  0  0  0  0  0  0  0  0  0
    6.6864   -0.4759   -0.0000 N   0  0  0  0  0  0  0  0  0  0  0  0
    7.9713    0.2855   -0.0000 C   0  0  0  0  0  0  0  0  0  0  0  0
    9.2682   -0.4521   -0.0000 C   0  0  0  0  0  0  0  0  0  0  0  0
    7.9594    1.8084   -0.0000 C   0  0  0  0  0  0  0  0  0  0  0  0
    9.2563   -1.9512   -0.0000 O   0  0  0  0  0  0  0  0  0  0  0  0
   10.5650    0.3093   -0.0000 C   0  0  0  0  0  0  0  0  0  0  0  0
    9.2563    2.5818   -0.0000 C   0  0  0  0  0  0  0  0  0  0  0  0
   11.8618   -0.4283   -0.0000 N   0  0  0  0  0  0  0  0  0  0  0  0
   10.5531    1.8322   -0.0000 C   0  0  0  0  0  0  0  0  0  0  0  0
    9.2444    4.0927   -0.0000 C   0  0  0  0  0  0  0  0  0  0  0  0
   13.1587    0.3331   -0.0000 C   0  0  0  0  0  0  0  0  0  0  0  0
   11.8499   -1.9274   -0.0000 C   0  0  0  0  0  0  0  0  0  0  0  0
   11.8499    2.6056   -0.0000 C   0  0  0  0  0  0  0  0  0  0  0  0
   10.5293    4.8542   -0.0000 C   0  0  0  0  0  0  0  0  0  0  0  0
   13.1468    1.8560   -0.0000 O   0  0  0  0  0  0  0  0  0  0  0  0
   14.4555   -0.4045   -0.0000 C   0  0  0  0  0  0  0  0  0  0  0  0
   11.0766   -3.2123   -0.0000 C   0  0  0  0  0  0  0  0  0  0  0  0
   11.8380    4.1284   -0.0000 C   0  0  0  0  0  0  0  0  0  0  0  0
   14.4436   -1.9036   -0.0000 C   0  0  0  0  0  0  0  0  0  0  0  0
   15.7404    0.3569   -0.0000 C   0  0  0  0  0  0  0  0  0  0  0  0
   11.8023   -4.5092   -0.0000 C   0  0  0  0  0  0  0  0  0  0  0  0
    9.5656   -3.1885   -0.0000 C   0  0  0  0  0  0  0  0  0  0  0  0
   15.7404   -2.6412   -0.0000 C   0  0  0  0  0  0  0  0  0  0  0  0
   17.0372   -0.3807   -0.0000 C   0  0  0  0  0  0  0  0  0  0  0  0
   16.0379   -4.1046   -0.0000 O   0  0  0  0  0  0  0  0  0  0  0  0
   17.0372   -1.8798   -0.0000 C   0  0  0  0  0  0  0  0  0  0  0  0
   17.5250   -4.2474   -0.0000 C   0  0  0  0  0  0  0  0  0  0  0  0
   18.1318   -2.8792   -0.0000 N   0  0  0  0  0  0  0  0  0  0  0  0
   18.2627   -5.5323   -0.0000 N   0  0  0  0  0  0  0  0  0  0  0  0
   19.7499   -5.5086   -0.0000 C   0  0  0  0  0  0  0  0  0  0  0  0
   17.5013   -6.8292   -0.0000 C   0  0  0  0  0  0  0  0  0  0  0  0
   20.4994   -6.7935   -0.0000 C   0  0  0  0  0  0  0  0  0  0  0  0
   21.9866   -6.7697   -0.0000 N   0  0  0  0  0  0  0  0  0  0  0  0
   22.7362   -8.0546   -0.0000 C   0  0  0  0  0  0  0  0  0  0  0  0
   22.7124   -5.4491   -0.0000 C   0  0  0  0  0  0  0  0  0  0  0  0
  1  2  1  0  0  0  0
  1  3  1  0  0  0  0
  2  4  2  0  0  0  0
  2  5  1  0  0  0  0
  3  6  2  0  0  0  0
  5  7  1  0  0  0  0
  7  8  1  0  0  0  0
  8  9  2  0  0  0  0
  8 10  1  0  0  0  0
 11 10  1  6  0  0  0
 11 12  1  0  0  0  0
 11 13  1  0  0  0  0
 12 14  1  6  0  0  0
 12 15  1  0  0  0  0
 13 16  1  0  0  0  0
 15 17  1  0  0  0  0
 16 18  2  0  0  0  0
 16 19  1  0  0  0  0
 17 20  1  0  0  0  0
 17 21  1  0  0  0  0
 18 22  1  0  0  0  0
 19 23  2  0  0  0  0
 20 24  2  0  0  0  0
 20 25  1  0  0  0  0
 21 26  1  0  0  0  0
 22 27  2  0  0  0  0
 25 28  2  0  0  0  0
 25 29  1  0  0  0  0
 26 30  1  0  0  0  0
 26 31  1  0  0  0  0
 28 32  1  0  0  0  0
 29 33  2  0  0  0  0
 32 34  1  0  0  0  0
 32 35  2  0  0  0  0
 34 36  1  0  0  0  0
 35 37  1  0  0  0  0
 36 38  1  0  0  0  0
 38 39  1  0  0  0  0
 38 40  1  0  0  0  0
 39 41  1  0  0  0  0
 41 42  1  0  0  0  0
 42 43  1  0  0  0  0
 42 44  1  0  0  0  0
  4  6  1  0  0  0  0
 23 27  1  0  0  0  0
 33 35  1  0  0  0  0
 36 37  2  0  0  0  0
M  END
>  <MolRegNo>
1353268

>  <m>
=

>  <Value>
180

>  <Unit>
nM

>  <Type>
IC50

>  <pValue>
6.75

>  <Ligand Efficiency>
0

>  <Binding Efficiency>
0

>  <Surface Efficiency>
0

>  <Assay Index>
663293

>  <Assay Category>


>  <Assay Organism>
Homo sapiens

>  <Target ID>
17045

>  <Target Name>
Cytochrome P450 3A4

>  <Target Organism>
Homo sapiens

>  <Target Description>
Target is a single protein chain

>  <Sequence Accession>
P08684

>  <Reference>
Bioorg Med Chem Lett 22 (15), 4998-5002 (2012)

>  <Pubmed ID>
22765892

>  <DOI>
10.1016/j.bmcl.2012.06.022

$$$$
1354673
Actelion Java MolfileCreator 1.0

 42 45  0  0  0  0  0  0  0  0999 V2000
    0.0000   -0.0000   -0.0000 O   0  0  0  0  0  0  0  0  0  0  0  0
   -0.0119   -1.4961   -0.0000 C   0  0  0  0  0  0  0  0  0  0  0  0
   -1.3299   -2.2323   -0.0000 O   0  0  0  0  0  0  0  0  0  0  0  0
    1.2824   -2.2323   -0.0000 N   0  0  0  0  0  0  0  0  0  0  0  0
   -2.6479   -1.4724   -0.0000 C   0  0  0  0  0  0  0  0  0  0  0  0
    2.5648   -1.4724   -0.0000 C   0  0  0  0  0  0  0  0  0  0  0  0
   -3.9659   -2.2086   -0.0000 C   0  0  0  0  0  0  0  0  0  0  0  0
    3.8591   -2.2086   -0.0000 C   0  0  0  0  0  0  0  0  0  0  0  0
    2.5529    0.0475   -0.0000 C   0  0  0  0  0  0  0  0  0  0  0  0
   -5.2840   -1.4368   -0.0000 C   0  0  0  0  0  0  0  0  0  0  0  0
   -3.9778   -3.6928   -0.0000 C   0  0  0  0  0  0  0  0  0  0  0  0
    3.8472   -3.7047   -0.0000 O   0  0  0  0  0  0  0  0  0  0  0  0
    5.1534   -1.4486   -0.0000 C   0  0  0  0  0  0  0  0  0  0  0  0
    3.8472    0.8193   -0.0000 C   0  0  0  0  0  0  0  0  0  0  0  0
   -6.6020   -2.1730   -0.0000 C   0  0  0  0  0  0  0  0  0  0  0  0
   -5.2840   -4.4409   -0.0000 C   0  0  0  0  0  0  0  0  0  0  0  0
    6.4476   -2.1848   -0.0000 N   0  0  0  0  0  0  0  0  0  0  0  0
    5.1415    0.0712   -0.0000 C   0  0  0  0  0  0  0  0  0  0  0  0
    3.8353    2.3273   -0.0000 C   0  0  0  0  0  0  0  0  0  0  0  0
   -6.6139   -3.6691   -0.0000 N   0  0  0  0  0  0  0  0  0  0  0  0
    7.7419   -1.4249   -0.0000 C   0  0  0  0  0  0  0  0  0  0  0  0
    6.4358   -3.6810   -0.0000 C   0  0  0  0  0  0  0  0  0  0  0  0
    6.4358    0.8431   -0.0000 C   0  0  0  0  0  0  0  0  0  0  0  0
    5.1177    3.0873   -0.0000 C   0  0  0  0  0  0  0  0  0  0  0  0
    7.7300    0.0950   -0.0000 O   0  0  0  0  0  0  0  0  0  0  0  0
    9.0362   -2.1611   -0.0000 C   0  0  0  0  0  0  0  0  0  0  0  0
    5.5333   -4.8802   -0.0000 C   0  0  0  0  0  0  0  0  0  0  0  0
    6.4239    2.3629   -0.0000 C   0  0  0  0  0  0  0  0  0  0  0  0
    9.0243   -3.6572   -0.0000 C   0  0  0  0  0  0  0  0  0  0  0  0
   10.3186   -1.4011   -0.0000 C   0  0  0  0  0  0  0  0  0  0  0  0
    6.1152   -6.2458   -0.0000 C   0  0  0  0  0  0  0  0  0  0  0  0
    4.0253   -4.7021   -0.0000 C   0  0  0  0  0  0  0  0  0  0  0  0
   10.3186   -4.3934   -0.0000 C   0  0  0  0  0  0  0  0  0  0  0  0
   11.6128   -2.1373   -0.0000 C   0  0  0  0  0  0  0  0  0  0  0  0
   10.6154   -5.8539   -0.0000 O   0  0  0  0  0  0  0  0  0  0  0  0
   11.6128   -3.6335   -0.0000 C   0  0  0  0  0  0  0  0  0  0  0  0
   12.0997   -5.9964   -0.0000 C   0  0  0  0  0  0  0  0  0  0  0  0
   12.7053   -4.6309   -0.0000 N   0  0  0  0  0  0  0  0  0  0  0  0
   12.8359   -7.2907   -0.0000 N   0  0  0  0  0  0  0  0  0  0  0  0
   14.3320   -7.2788   -0.0000 C   0  0  0  0  0  0  0  0  0  0  0  0
   12.0759   -8.5850   -0.0000 C   0  0  0  0  0  0  0  0  0  0  0  0
   15.0801   -8.5731   -0.0000 C   0  0  0  0  0  0  0  0  0  0  0  0
  1  2  2  0  0  0  0
  2  3  1  0  0  0  0
  2  4  1  0  0  0  0
  3  5  1  0  0  0  0
  6  4  1  6  0  0  0
  5  7  1  0  0  0  0
  6  8  1  0  0  0  0
  6  9  1  0  0  0  0
  7 10  2  0  0  0  0
  7 11  1  0  0  0  0
  8 12  1  6  0  0  0
  8 13  1  0  0  0  0
  9 14  1  0  0  0  0
 10 15  1  0  0  0  0
 11 16  2  0  0  0  0
 13 17  1  0  0  0  0
 14 18  2  0  0  0  0
 14 19  1  0  0  0  0
 15 20  2  0  0  0  0
 17 21  1  0  0  0  0
 17 22  1  0  0  0  0
 18 23  1  0  0  0  0
 19 24  2  0  0  0  0
 21 25  2  0  0  0  0
 21 26  1  0  0  0  0
 22 27  1  0  0  0  0
 23 28  2  0  0  0  0
 26 29  2  0  0  0  0
 26 30  1  0  0  0  0
 27 31  1  0  0  0  0
 27 32  1  0  0  0  0
 29 33  1  0  0  0  0
 30 34  2  0  0  0  0
 33 35  1  0  0  0  0
 33 36  2  0  0  0  0
 35 37  1  0  0  0  0
 36 38  1  0  0  0  0
 37 39  1  0  0  0  0
 39 40  1  0  0  0  0
 39 41  1  0  0  0  0
 40 42  1  0  0  0  0
 16 20  1  0  0  0  0
 24 28  1  0  0  0  0
 34 36  1  0  0  0  0
 37 38  2  0  0  0  0
M  END
>  <MolRegNo>
1354673

>  <m>
=

>  <Value>
200

>  <Unit>
nM

>  <Type>
IC50

>  <pValue>
6.7

>  <Ligand Efficiency>
0

>  <Binding Efficiency>
0

>  <Surface Efficiency>
0

>  <Assay Index>
663293

>  <Assay Category>


>  <Assay Organism>
Homo sapiens

>  <Target ID>
17045

>  <Target Name>
Cytochrome P450 3A4

>  <Target Organism>
Homo sapiens

>  <Target Description>
Target is a single protein chain

>  <Sequence Accession>
P08684

>  <Reference>
Bioorg Med Chem Lett 22 (15), 4998-5002 (2012)

>  <Pubmed ID>
22765892

>  <DOI>
10.1016/j.bmcl.2012.06.022

$$$$
1354892
Actelion Java MolfileCreator 1.0

 43 46  0  0  0  0  0  0  0  0999 V2000
    0.0000   -0.0000   -0.0000 S   0  0  0  0  0  0  0  0  0  0  0  0
    1.4270   -0.4400   -0.0000 C   0  0  0  0  0  0  0  0  0  0  0  0
   -0.8919   -1.0465   -0.0000 C   0  0  0  0  0  0  0  0  0  0  0  0
    1.4151   -1.9384   -0.0000 C   0  0  0  0  0  0  0  0  0  0  0  0
    2.7827    0.2378   -0.0000 C   0  0  0  0  0  0  0  0  0  0  0  0
   -0.0119   -2.4260   -0.0000 N   0  0  0  0  0  0  0  0  0  0  0  0
    4.0908   -0.4995   -0.0000 O   0  0  0  0  0  0  0  0  0  0  0  0
    5.3751    0.2616   -0.0000 C   0  0  0  0  0  0  0  0  0  0  0  0
    5.3633    1.7838   -0.0000 O   0  0  0  0  0  0  0  0  0  0  0  0
    6.6833   -0.4757   -0.0000 N   0  0  0  0  0  0  0  0  0  0  0  0
    7.9676    0.2854   -0.0000 C   0  0  0  0  0  0  0  0  0  0  0  0
    9.2638   -0.4519   -0.0000 C   0  0  0  0  0  0  0  0  0  0  0  0
    7.9557    1.8076   -0.0000 C   0  0  0  0  0  0  0  0  0  0  0  0
    9.2519   -1.9503   -0.0000 O   0  0  0  0  0  0  0  0  0  0  0  0
   10.5600    0.3092   -0.0000 C   0  0  0  0  0  0  0  0  0  0  0  0
    9.2519    2.5805   -0.0000 C   0  0  0  0  0  0  0  0  0  0  0  0
   11.8562   -0.4281   -0.0000 N   0  0  0  0  0  0  0  0  0  0  0  0
   10.5481    1.8314   -0.0000 C   0  0  0  0  0  0  0  0  0  0  0  0
    9.2400    4.0908   -0.0000 C   0  0  0  0  0  0  0  0  0  0  0  0
   13.1525    0.3330   -0.0000 C   0  0  0  0  0  0  0  0  0  0  0  0
   11.8443   -1.9265   -0.0000 C   0  0  0  0  0  0  0  0  0  0  0  0
   11.8443    2.6043   -0.0000 C   0  0  0  0  0  0  0  0  0  0  0  0
   10.5243    4.8519   -0.0000 C   0  0  0  0  0  0  0  0  0  0  0  0
   13.1406    1.8551   -0.0000 O   0  0  0  0  0  0  0  0  0  0  0  0
   14.4487   -0.4043   -0.0000 C   0  0  0  0  0  0  0  0  0  0  0  0
   10.9287   -3.1276   -0.0000 C   0  0  0  0  0  0  0  0  0  0  0  0
   11.8325    4.1265   -0.0000 C   0  0  0  0  0  0  0  0  0  0  0  0
   14.4368   -1.9027   -0.0000 C   0  0  0  0  0  0  0  0  0  0  0  0
   15.7330    0.3568   -0.0000 C   0  0  0  0  0  0  0  0  0  0  0  0
   11.5233   -4.4951   -0.0000 C   0  0  0  0  0  0  0  0  0  0  0  0
    9.4184   -2.9492   -0.0000 C   0  0  0  0  0  0  0  0  0  0  0  0
   15.7330   -2.6400   -0.0000 C   0  0  0  0  0  0  0  0  0  0  0  0
   17.0292   -0.3805   -0.0000 C   0  0  0  0  0  0  0  0  0  0  0  0
   16.0303   -4.1027   -0.0000 O   0  0  0  0  0  0  0  0  0  0  0  0
   17.0292   -1.8789   -0.0000 C   0  0  0  0  0  0  0  0  0  0  0  0
   17.5168   -4.2454   -0.0000 C   0  0  0  0  0  0  0  0  0  0  0  0
   18.1233   -2.8778   -0.0000 N   0  0  0  0  0  0  0  0  0  0  0  0
   18.2541   -5.5297   -0.0000 N   0  0  0  0  0  0  0  0  0  0  0  0
   19.7406   -5.5060   -0.0000 C   0  0  0  0  0  0  0  0  0  0  0  0
   20.4779   -6.8022   -0.0000 C   0  0  0  0  0  0  0  0  0  0  0  0
   19.7168   -8.0865   -0.0000 N   0  0  0  0  0  0  0  0  0  0  0  0
   20.4541   -9.3708   -0.0000 C   0  0  0  0  0  0  0  0  0  0  0  0
   18.2065   -8.0746   -0.0000 C   0  0  0  0  0  0  0  0  0  0  0  0
  1  2  1  0  0  0  0
  1  3  1  0  0  0  0
  2  4  2  0  0  0  0
  2  5  1  0  0  0  0
  3  6  2  0  0  0  0
  5  7  1  0  0  0  0
  7  8  1  0  0  0  0
  8  9  2  0  0  0  0
  8 10  1  0  0  0  0
 11 10  1  6  0  0  0
 11 12  1  0  0  0  0
 11 13  1  0  0  0  0
 12 14  1  6  0  0  0
 12 15  1  0  0  0  0
 13 16  1  0  0  0  0
 15 17  1  0  0  0  0
 16 18  2  0  0  0  0
 16 19  1  0  0  0  0
 17 20  1  0  0  0  0
 17 21  1  0  0  0  0
 18 22  1  0  0  0  0
 19 23  2  0  0  0  0
 20 24  2  0  0  0  0
 20 25  1  0  0  0  0
 21 26  1  0  0  0  0
 22 27  2  0  0  0  0
 25 28  2  0  0  0  0
 25 29  1  0  0  0  0
 26 30  1  0  0  0  0
 26 31  1  0  0  0  0
 28 32  1  0  0  0  0
 29 33  2  0  0  0  0
 32 34  1  0  0  0  0
 32 35  2  0  0  0  0
 34 36  1  0  0  0  0
 35 37  1  0  0  0  0
 36 38  1  0  0  0  0
 38 39  1  0  0  0  0
 39 40  1  0  0  0  0
 40 41  1  0  0  0  0
 41 42  1  0  0  0  0
 41 43  1  0  0  0  0
  4  6  1  0  0  0  0
 23 27  1  0  0  0  0
 33 35  1  0  0  0  0
 36 37  2  0  0  0  0
M  END
>  <MolRegNo>
1354892

>  <m>
=

>  <Value>
200

>  <Unit>
nM

>  <Type>
IC50

>  <pValue>
6.7

>  <Ligand Efficiency>
0

>  <Binding Efficiency>
0

>  <Surface Efficiency>
0

>  <Assay Index>
663293

>  <Assay Category>


>  <Assay Organism>
Homo sapiens

>  <Target ID>
17045

>  <Target Name>
Cytochrome P450 3A4

>  <Target Organism>
Homo sapiens

>  <Target Description>
Target is a single protein chain

>  <Sequence Accession>
P08684

>  <Reference>
Bioorg Med Chem Lett 22 (15), 4998-5002 (2012)

>  <Pubmed ID>
22765892

>  <DOI>
10.1016/j.bmcl.2012.06.022

$$$$
1353267
Actelion Java MolfileCreator 1.0

 44 47  0  0  0  0  0  0  0  0999 V2000
    0.0000   -0.0000   -0.0000 S   0  0  0  0  0  0  0  0  0  0  0  0
    1.4281   -0.4403   -0.0000 C   0  0  0  0  0  0  0  0  0  0  0  0
   -0.8926   -1.0473   -0.0000 C   0  0  0  0  0  0  0  0  0  0  0  0
    1.4281   -1.9398   -0.0000 C   0  0  0  0  0  0  0  0  0  0  0  0
    2.7967    0.2380   -0.0000 C   0  0  0  0  0  0  0  0  0  0  0  0
    0.0000   -2.4277   -0.0000 N   0  0  0  0  0  0  0  0  0  0  0  0
    4.0938   -0.4998   -0.0000 O   0  0  0  0  0  0  0  0  0  0  0  0
    5.3910    0.2618   -0.0000 C   0  0  0  0  0  0  0  0  0  0  0  0
    5.3791    1.7851   -0.0000 O   0  0  0  0  0  0  0  0  0  0  0  0
    6.6882   -0.4760   -0.0000 N   0  0  0  0  0  0  0  0  0  0  0  0
    7.9735    0.2856   -0.0000 C   0  0  0  0  0  0  0  0  0  0  0  0
    9.2706   -0.4522   -0.0000 C   0  0  0  0  0  0  0  0  0  0  0  0
    7.9616    1.8089   -0.0000 C   0  0  0  0  0  0  0  0  0  0  0  0
    9.2587   -1.9517   -0.0000 O   0  0  0  0  0  0  0  0  0  0  0  0
   10.5678    0.3094   -0.0000 C   0  0  0  0  0  0  0  0  0  0  0  0
    9.2587    2.5825   -0.0000 C   0  0  0  0  0  0  0  0  0  0  0  0
   11.8650   -0.4284   -0.0000 N   0  0  0  0  0  0  0  0  0  0  0  0
   10.5559    1.8327   -0.0000 C   0  0  0  0  0  0  0  0  0  0  0  0
    9.2468    4.0938   -0.0000 C   0  0  0  0  0  0  0  0  0  0  0  0
   13.1622    0.3332   -0.0000 C   0  0  0  0  0  0  0  0  0  0  0  0
   11.8531   -1.9279   -0.0000 C   0  0  0  0  0  0  0  0  0  0  0  0
   11.8531    2.6063   -0.0000 C   0  0  0  0  0  0  0  0  0  0  0  0
   10.5321    4.8555   -0.0000 C   0  0  0  0  0  0  0  0  0  0  0  0
   13.1503    1.8565   -0.0000 O   0  0  0  0  0  0  0  0  0  0  0  0
   14.4593   -0.4046   -0.0000 C   0  0  0  0  0  0  0  0  0  0  0  0
   11.0796   -3.2132   -0.0000 C   0  0  0  0  0  0  0  0  0  0  0  0
   11.8412    4.1295   -0.0000 C   0  0  0  0  0  0  0  0  0  0  0  0
   14.4474   -1.9041   -0.0000 C   0  0  0  0  0  0  0  0  0  0  0  0
   15.7446    0.3570   -0.0000 C   0  0  0  0  0  0  0  0  0  0  0  0
   11.8055   -4.5104   -0.0000 C   0  0  0  0  0  0  0  0  0  0  0  0
    9.5682   -3.1894   -0.0000 C   0  0  0  0  0  0  0  0  0  0  0  0
   15.7446   -2.6420   -0.0000 C   0  0  0  0  0  0  0  0  0  0  0  0
   17.0418   -0.3808   -0.0000 C   0  0  0  0  0  0  0  0  0  0  0  0
   16.0421   -4.1057   -0.0000 O   0  0  0  0  0  0  0  0  0  0  0  0
   17.0418   -1.8803   -0.0000 C   0  0  0  0  0  0  0  0  0  0  0  0
   17.5297   -4.2485   -0.0000 C   0  0  0  0  0  0  0  0  0  0  0  0
   18.1367   -2.8800   -0.0000 N   0  0  0  0  0  0  0  0  0  0  0  0
   18.2676   -5.5338   -0.0000 N   0  0  0  0  0  0  0  0  0  0  0  0
   19.7552   -5.5100   -0.0000 C   0  0  0  0  0  0  0  0  0  0  0  0
   20.5049   -6.7953   -0.0000 C   0  0  0  0  0  0  0  0  0  0  0  0
   21.9925   -6.7715   -0.0000 C   0  0  0  0  0  0  0  0  0  0  0  0
   22.7422   -8.0568   -0.0000 N   0  0  0  0  0  0  0  0  0  0  0  0
   24.2298   -8.0330   -0.0000 C   0  0  0  0  0  0  0  0  0  0  0  0
   21.9925   -9.3539   -0.0000 C   0  0  0  0  0  0  0  0  0  0  0  0
  1  2  1  0  0  0  0
  1  3  1  0  0  0  0
  2  4  2  0  0  0  0
  2  5  1  0  0  0  0
  3  6  2  0  0  0  0
  5  7  1  0  0  0  0
  7  8  1  0  0  0  0
  8  9  2  0  0  0  0
  8 10  1  0  0  0  0
 11 10  1  6  0  0  0
 11 12  1  0  0  0  0
 11 13  1  0  0  0  0
 12 14  1  6  0  0  0
 12 15  1  0  0  0  0
 13 16  1  0  0  0  0
 15 17  1  0  0  0  0
 16 18  2  0  0  0  0
 16 19  1  0  0  0  0
 17 20  1  0  0  0  0
 17 21  1  0  0  0  0
 18 22  1  0  0  0  0
 19 23  2  0  0  0  0
 20 24  2  0  0  0  0
 20 25  1  0  0  0  0
 21 26  1  0  0  0  0
 22 27  2  0  0  0  0
 25 28  2  0  0  0  0
 25 29  1  0  0  0  0
 26 30  1  0  0  0  0
 26 31  1  0  0  0  0
 28 32  1  0  0  0  0
 29 33  2  0  0  0  0
 32 34  1  0  0  0  0
 32 35  2  0  0  0  0
 34 36  1  0  0  0  0
 35 37  1  0  0  0  0
 36 38  1  0  0  0  0
 38 39  1  0  0  0  0
 39 40  1  0  0  0  0
 40 41  1  0  0  0  0
 41 42  1  0  0  0  0
 42 43  1  0  0  0  0
 42 44  1  0  0  0  0
  4  6  1  0  0  0  0
 23 27  1  0  0  0  0
 33 35  1  0  0  0  0
 36 37  2  0  0  0  0
M  END
>  <MolRegNo>
1353267

>  <m>
=

>  <Value>
200

>  <Unit>
nM

>  <Type>
IC50

>  <pValue>
6.7

>  <Ligand Efficiency>
0

>  <Binding Efficiency>
0

>  <Surface Efficiency>
0

>  <Assay Index>
663293

>  <Assay Category>


>  <Assay Organism>
Homo sapiens

>  <Target ID>
17045

>  <Target Name>
Cytochrome P450 3A4

>  <Target Organism>
Homo sapiens

>  <Target Description>
Target is a single protein chain

>  <Sequence Accession>
P08684

>  <Reference>
Bioorg Med Chem Lett 22 (15), 4998-5002 (2012)

>  <Pubmed ID>
22765892

>  <DOI>
10.1016/j.bmcl.2012.06.022

$$$$
1354893
Actelion Java MolfileCreator 1.0

 43 47  0  0  0  0  0  0  0  0999 V2000
    0.0000   -0.0000   -0.0000 S   0  0  0  0  0  0  0  0  0  0  0  0
    1.4283   -0.4404   -0.0000 C   0  0  0  0  0  0  0  0  0  0  0  0
   -0.8927   -1.0474   -0.0000 C   0  0  0  0  0  0  0  0  0  0  0  0
    1.4283   -1.9401   -0.0000 C   0  0  0  0  0  0  0  0  0  0  0  0
    2.7971    0.2381   -0.0000 C   0  0  0  0  0  0  0  0  0  0  0  0
    0.0000   -2.4281   -0.0000 N   0  0  0  0  0  0  0  0  0  0  0  0
    4.0945   -0.4999   -0.0000 O   0  0  0  0  0  0  0  0  0  0  0  0
    5.3919    0.2619   -0.0000 C   0  0  0  0  0  0  0  0  0  0  0  0
    5.3800    1.7854   -0.0000 O   0  0  0  0  0  0  0  0  0  0  0  0
    6.6893   -0.4761   -0.0000 N   0  0  0  0  0  0  0  0  0  0  0  0
    7.9747    0.2857   -0.0000 C   0  0  0  0  0  0  0  0  0  0  0  0
    9.2721   -0.4523   -0.0000 C   0  0  0  0  0  0  0  0  0  0  0  0
    7.9628    1.8092   -0.0000 C   0  0  0  0  0  0  0  0  0  0  0  0
    9.2602   -1.9520   -0.0000 O   0  0  0  0  0  0  0  0  0  0  0  0
   10.5695    0.3095   -0.0000 C   0  0  0  0  0  0  0  0  0  0  0  0
    9.2602    2.5829   -0.0000 C   0  0  0  0  0  0  0  0  0  0  0  0
   11.8669   -0.4285   -0.0000 N   0  0  0  0  0  0  0  0  0  0  0  0
   10.5576    1.8330   -0.0000 C   0  0  0  0  0  0  0  0  0  0  0  0
    9.2483    4.0945   -0.0000 C   0  0  0  0  0  0  0  0  0  0  0  0
   13.1643    0.3333   -0.0000 C   0  0  0  0  0  0  0  0  0  0  0  0
   11.8550   -1.9282   -0.0000 C   0  0  0  0  0  0  0  0  0  0  0  0
   11.8550    2.6067   -0.0000 C   0  0  0  0  0  0  0  0  0  0  0  0
   10.5338    4.8563   -0.0000 C   0  0  0  0  0  0  0  0  0  0  0  0
   13.1524    1.8568   -0.0000 O   0  0  0  0  0  0  0  0  0  0  0  0
   14.4617   -0.4047   -0.0000 C   0  0  0  0  0  0  0  0  0  0  0  0
   10.5457   -2.6662   -0.0000 C   0  0  0  0  0  0  0  0  0  0  0  0
   11.8431    4.1302   -0.0000 C   0  0  0  0  0  0  0  0  0  0  0  0
   14.4498   -1.9044   -0.0000 C   0  0  0  0  0  0  0  0  0  0  0  0
   15.7472    0.3571   -0.0000 C   0  0  0  0  0  0  0  0  0  0  0  0
   10.5338   -4.1540   -0.0000 N   0  0  0  0  0  0  0  0  0  0  0  0
   15.7472   -2.6424   -0.0000 C   0  0  0  0  0  0  0  0  0  0  0  0
   17.0445   -0.3809   -0.0000 C   0  0  0  0  0  0  0  0  0  0  0  0
    9.2245   -4.8920   -0.0000 C   0  0  0  0  0  0  0  0  0  0  0  0
   11.8193   -4.8920   -0.0000 C   0  0  0  0  0  0  0  0  0  0  0  0
   16.0447   -4.1064   -0.0000 O   0  0  0  0  0  0  0  0  0  0  0  0
   17.0445   -1.8806   -0.0000 C   0  0  0  0  0  0  0  0  0  0  0  0
   17.5325   -4.2492   -0.0000 C   0  0  0  0  0  0  0  0  0  0  0  0
   18.1396   -2.8804   -0.0000 N   0  0  0  0  0  0  0  0  0  0  0  0
   18.2705   -5.5347   -0.0000 N   0  0  0  0  0  0  0  0  0  0  0  0
   17.6516   -6.8916   -0.0000 C   0  0  0  0  0  0  0  0  0  0  0  0
   19.7583   -5.6775   -0.0000 C   0  0  0  0  0  0  0  0  0  0  0  0
   18.7585   -7.8795   -0.0000 C   0  0  0  0  0  0  0  0  0  0  0  0
   20.0559   -7.1297   -0.0000 C   0  0  0  0  0  0  0  0  0  0  0  0
  1  2  1  0  0  0  0
  1  3  1  0  0  0  0
  2  4  2  0  0  0  0
  2  5  1  0  0  0  0
  3  6  2  0  0  0  0
  5  7  1  0  0  0  0
  7  8  1  0  0  0  0
  8  9  2  0  0  0  0
  8 10  1  0  0  0  0
 11 10  1  6  0  0  0
 11 12  1  0  0  0  0
 11 13  1  0  0  0  0
 12 14  1  6  0  0  0
 12 15  1  0  0  0  0
 13 16  1  0  0  0  0
 15 17  1  0  0  0  0
 16 18  2  0  0  0  0
 16 19  1  0  0  0  0
 17 20  1  0  0  0  0
 17 21  1  0  0  0  0
 18 22  1  0  0  0  0
 19 23  2  0  0  0  0
 20 24  2  0  0  0  0
 20 25  1  0  0  0  0
 21 26  1  0  0  0  0
 22 27  2  0  0  0  0
 25 28  2  0  0  0  0
 25 29  1  0  0  0  0
 26 30  1  0  0  0  0
 28 31  1  0  0  0  0
 29 32  2  0  0  0  0
 30 33  1  0  0  0  0
 30 34  1  0  0  0  0
 31 35  1  0  0  0  0
 31 36  2  0  0  0  0
 35 37  1  0  0  0  0
 36 38  1  0  0  0  0
 37 39  1  0  0  0  0
 39 40  1  0  0  0  0
 39 41  1  0  0  0  0
 40 42  1  0  0  0  0
 41 43  1  0  0  0  0
  4  6  1  0  0  0  0
 23 27  1  0  0  0  0
 32 36  1  0  0  0  0
 37 38  2  0  0  0  0
 42 43  1  0  0  0  0
M  END
>  <MolRegNo>
1354893

>  <m>
=

>  <Value>
230

>  <Unit>
nM

>  <Type>
IC50

>  <pValue>
6.64

>  <Ligand Efficiency>
0

>  <Binding Efficiency>
0

>  <Surface Efficiency>
0

>  <Assay Index>
663293

>  <Assay Category>


>  <Assay Organism>
Homo sapiens

>  <Target ID>
17045

>  <Target Name>
Cytochrome P450 3A4

>  <Target Organism>
Homo sapiens

>  <Target Description>
Target is a single protein chain

>  <Sequence Accession>
P08684

>  <Reference>
Bioorg Med Chem Lett 22 (15), 4998-5002 (2012)

>  <Pubmed ID>
22765892

>  <DOI>
10.1016/j.bmcl.2012.06.022

$$$$
1354674
Actelion Java MolfileCreator 1.0

 42 45  0  0  0  0  0  0  0  0999 V2000
    0.0000   -0.0000   -0.0000 S   0  0  0  0  0  0  0  0  0  0  0  0
    1.3670   -0.5944   -0.0000 C   0  0  0  0  0  0  0  0  0  0  0  0
   -1.0223   -1.1174   -0.0000 C   0  0  0  0  0  0  0  0  0  0  0  0
    1.2006   -2.0803   -0.0000 C   0  0  0  0  0  0  0  0  0  0  0  0
    2.6627    0.1664   -0.0000 C   0  0  0  0  0  0  0  0  0  0  0  0
   -0.2734   -2.4131   -0.0000 N   0  0  0  0  0  0  0  0  0  0  0  0
    3.9584   -0.5706   -0.0000 O   0  0  0  0  0  0  0  0  0  0  0  0
    5.2541    0.1902   -0.0000 C   0  0  0  0  0  0  0  0  0  0  0  0
    5.2422    1.7117   -0.0000 O   0  0  0  0  0  0  0  0  0  0  0  0
    6.5498   -0.5468   -0.0000 N   0  0  0  0  0  0  0  0  0  0  0  0
    7.8336    0.2140   -0.0000 C   0  0  0  0  0  0  0  0  0  0  0  0
    9.1293   -0.5230   -0.0000 C   0  0  0  0  0  0  0  0  0  0  0  0
    7.8217    1.7355   -0.0000 C   0  0  0  0  0  0  0  0  0  0  0  0
    9.1174   -2.0208   -0.0000 O   0  0  0  0  0  0  0  0  0  0  0  0
   10.4250    0.2377   -0.0000 C   0  0  0  0  0  0  0  0  0  0  0  0
    9.1174    2.5082   -0.0000 C   0  0  0  0  0  0  0  0  0  0  0  0
   11.7207   -0.4993   -0.0000 N   0  0  0  0  0  0  0  0  0  0  0  0
   10.4131    1.7593   -0.0000 C   0  0  0  0  0  0  0  0  0  0  0  0
    9.1056    4.0179   -0.0000 C   0  0  0  0  0  0  0  0  0  0  0  0
   13.0164    0.2615   -0.0000 C   0  0  0  0  0  0  0  0  0  0  0  0
   11.7088   -1.9970   -0.0000 C   0  0  0  0  0  0  0  0  0  0  0  0
   11.7088    2.5320   -0.0000 C   0  0  0  0  0  0  0  0  0  0  0  0
   10.3894    4.7786   -0.0000 C   0  0  0  0  0  0  0  0  0  0  0  0
   13.0045    1.7831   -0.0000 O   0  0  0  0  0  0  0  0  0  0  0  0
   14.3121   -0.4755   -0.0000 C   0  0  0  0  0  0  0  0  0  0  0  0
   10.3894   -2.7459   -0.0000 C   0  0  0  0  0  0  0  0  0  0  0  0
   11.6970    4.0535   -0.0000 C   0  0  0  0  0  0  0  0  0  0  0  0
   14.3002   -1.9733   -0.0000 C   0  0  0  0  0  0  0  0  0  0  0  0
   15.5959    0.2853   -0.0000 C   0  0  0  0  0  0  0  0  0  0  0  0
   10.3775   -4.2437   -0.0000 N   0  0  0  0  0  0  0  0  0  0  0  0
   15.5959   -2.7103   -0.0000 C   0  0  0  0  0  0  0  0  0  0  0  0
   16.8916   -0.4398   -0.0000 C   0  0  0  0  0  0  0  0  0  0  0  0
    9.0580   -4.9807   -0.0000 C   0  0  0  0  0  0  0  0  0  0  0  0
   11.6732   -4.9807   -0.0000 C   0  0  0  0  0  0  0  0  0  0  0  0
   15.8931   -4.1724   -0.0000 O   0  0  0  0  0  0  0  0  0  0  0  0
   16.8916   -1.9495   -0.0000 C   0  0  0  0  0  0  0  0  0  0  0  0
   17.3790   -4.3150   -0.0000 C   0  0  0  0  0  0  0  0  0  0  0  0
   17.9853   -2.9480   -0.0000 N   0  0  0  0  0  0  0  0  0  0  0  0
   18.1160   -5.6107   -0.0000 N   0  0  0  0  0  0  0  0  0  0  0  0
   19.6138   -5.5988   -0.0000 C   0  0  0  0  0  0  0  0  0  0  0  0
   17.3552   -6.9064   -0.0000 C   0  0  0  0  0  0  0  0  0  0  0  0
   20.3627   -6.8945   -0.0000 C   0  0  0  0  0  0  0  0  0  0  0  0
  1  2  1  0  0  0  0
  1  3  1  0  0  0  0
  2  4  2  0  0  0  0
  2  5  1  0  0  0  0
  3  6  2  0  0  0  0
  5  7  1  0  0  0  0
  7  8  1  0  0  0  0
  8  9  2  0  0  0  0
  8 10  1  0  0  0  0
 11 10  1  6  0  0  0
 11 12  1  0  0  0  0
 11 13  1  0  0  0  0
 12 14  1  6  0  0  0
 12 15  1  0  0  0  0
 13 16  1  0  0  0  0
 15 17  1  0  0  0  0
 16 18  2  0  0  0  0
 16 19  1  0  0  0  0
 17 20  1  0  0  0  0
 17 21  1  0  0  0  0
 18 22  1  0  0  0  0
 19 23  2  0  0  0  0
 20 24  2  0  0  0  0
 20 25  1  0  0  0  0
 21 26  1  0  0  0  0
 22 27  2  0  0  0  0
 25 28  2  0  0  0  0
 25 29  1  0  0  0  0
 26 30  1  0  0  0  0
 28 31  1  0  0  0  0
 29 32  2  0  0  0  0
 30 33  1  0  0  0  0
 30 34  1  0  0  0  0
 31 35  1  0  0  0  0
 31 36  2  0  0  0  0
 35 37  1  0  0  0  0
 36 38  1  0  0  0  0
 37 39  1  0  0  0  0
 39 40  1  0  0  0  0
 39 41  1  0  0  0  0
 40 42  1  0  0  0  0
  4  6  1  0  0  0  0
 23 27  1  0  0  0  0
 32 36  1  0  0  0  0
 37 38  2  0  0  0  0
M  END
>  <MolRegNo>
1354674

>  <m>
=

>  <Value>
410

>  <Unit>
nM

>  <Type>
IC50

>  <pValue>
6.39

>  <Ligand Efficiency>
0

>  <Binding Efficiency>
0

>  <Surface Efficiency>
0

>  <Assay Index>
663293

>  <Assay Category>


>  <Assay Organism>
Homo sapiens

>  <Target ID>
17045

>  <Target Name>
Cytochrome P450 3A4

>  <Target Organism>
Homo sapiens

>  <Target Description>
Target is a single protein chain

>  <Sequence Accession>
P08684

>  <Reference>
Bioorg Med Chem Lett 22 (15), 4998-5002 (2012)

>  <Pubmed ID>
22765892

>  <DOI>
10.1016/j.bmcl.2012.06.022

$$$$
1354668
Actelion Java MolfileCreator 1.0

 45 49  0  0  0  0  0  0  0  0999 V2000
    0.0000   -0.0000   -0.0000 S   0  0  0  0  0  0  0  0  0  0  0  0
    1.3669   -0.5943   -0.0000 C   0  0  0  0  0  0  0  0  0  0  0  0
   -1.0222   -1.1054   -0.0000 C   0  0  0  0  0  0  0  0  0  0  0  0
    1.2005   -2.0801   -0.0000 C   0  0  0  0  0  0  0  0  0  0  0  0
    2.6625    0.1664   -0.0000 C   0  0  0  0  0  0  0  0  0  0  0  0
   -0.2734   -2.4010   -0.0000 N   0  0  0  0  0  0  0  0  0  0  0  0
    3.9581   -0.5705   -0.0000 O   0  0  0  0  0  0  0  0  0  0  0  0
    5.2537    0.1902   -0.0000 C   0  0  0  0  0  0  0  0  0  0  0  0
    5.2418    1.7116   -0.0000 O   0  0  0  0  0  0  0  0  0  0  0  0
    6.5374   -0.5468   -0.0000 N   0  0  0  0  0  0  0  0  0  0  0  0
    7.8329    0.2139   -0.0000 C   0  0  0  0  0  0  0  0  0  0  0  0
    9.1285   -0.5230   -0.0000 C   0  0  0  0  0  0  0  0  0  0  0  0
    7.8211    1.7354   -0.0000 C   0  0  0  0  0  0  0  0  0  0  0  0
    9.1166   -2.0206   -0.0000 O   0  0  0  0  0  0  0  0  0  0  0  0
   10.4241    0.2377   -0.0000 C   0  0  0  0  0  0  0  0  0  0  0  0
    9.1166    2.5080   -0.0000 C   0  0  0  0  0  0  0  0  0  0  0  0
   11.7197   -0.4992   -0.0000 N   0  0  0  0  0  0  0  0  0  0  0  0
   10.4122    1.7591   -0.0000 C   0  0  0  0  0  0  0  0  0  0  0  0
    9.1048    4.0175   -0.0000 C   0  0  0  0  0  0  0  0  0  0  0  0
   13.0153    0.2615   -0.0000 C   0  0  0  0  0  0  0  0  0  0  0  0
   11.7078   -1.9969   -0.0000 C   0  0  0  0  0  0  0  0  0  0  0  0
   11.7078    2.5317   -0.0000 C   0  0  0  0  0  0  0  0  0  0  0  0
   10.3885    4.7782   -0.0000 C   0  0  0  0  0  0  0  0  0  0  0  0
   13.0034    1.7829   -0.0000 O   0  0  0  0  0  0  0  0  0  0  0  0
   14.3109   -0.4754   -0.0000 C   0  0  0  0  0  0  0  0  0  0  0  0
   10.7926   -3.1974   -0.0000 C   0  0  0  0  0  0  0  0  0  0  0  0
   11.6959    4.0532   -0.0000 C   0  0  0  0  0  0  0  0  0  0  0  0
   14.2990   -1.9731   -0.0000 C   0  0  0  0  0  0  0  0  0  0  0  0
   15.5946    0.2853   -0.0000 C   0  0  0  0  0  0  0  0  0  0  0  0
   11.3869   -4.5643   -0.0000 C   0  0  0  0  0  0  0  0  0  0  0  0
    9.2830   -3.0191   -0.0000 C   0  0  0  0  0  0  0  0  0  0  0  0
   15.5827   -2.7100   -0.0000 C   0  0  0  0  0  0  0  0  0  0  0  0
   16.8901   -0.4517   -0.0000 C   0  0  0  0  0  0  0  0  0  0  0  0
   15.8917   -4.1720   -0.0000 O   0  0  0  0  0  0  0  0  0  0  0  0
   16.8783   -1.9493   -0.0000 C   0  0  0  0  0  0  0  0  0  0  0  0
   17.3775   -4.3147   -0.0000 C   0  0  0  0  0  0  0  0  0  0  0  0
   17.9837   -2.9478   -0.0000 N   0  0  0  0  0  0  0  0  0  0  0  0
   18.1144   -5.6102   -0.0000 N   0  0  0  0  0  0  0  0  0  0  0  0
   17.3537   -6.8939   -0.0000 C   0  0  0  0  0  0  0  0  0  0  0  0
   15.8442   -6.8702   -0.0000 C   0  0  0  0  0  0  0  0  0  0  0  0
   18.1025   -8.1776   -0.0000 C   0  0  0  0  0  0  0  0  0  0  0  0
   15.0716   -8.1539   -0.0000 C   0  0  0  0  0  0  0  0  0  0  0  0
   17.3299   -9.4732   -0.0000 C   0  0  0  0  0  0  0  0  0  0  0  0
   15.8085   -9.4494   -0.0000 N   0  0  0  0  0  0  0  0  0  0  0  0
   15.0359  -10.7450   -0.0000 C   0  0  0  0  0  0  0  0  0  0  0  0
  1  2  1  0  0  0  0
  1  3  1  0  0  0  0
  2  4  2  0  0  0  0
  2  5  1  0  0  0  0
  3  6  2  0  0  0  0
  5  7  1  0  0  0  0
  7  8  1  0  0  0  0
  8  9  2  0  0  0  0
  8 10  1  0  0  0  0
 11 10  1  6  0  0  0
 11 12  1  0  0  0  0
 11 13  1  0  0  0  0
 12 14  1  6  0  0  0
 12 15  1  0  0  0  0
 13 16  1  0  0  0  0
 15 17  1  0  0  0  0
 16 18  2  0  0  0  0
 16 19  1  0  0  0  0
 17 20  1  0  0  0  0
 17 21  1  0  0  0  0
 18 22  1  0  0  0  0
 19 23  2  0  0  0  0
 20 24  2  0  0  0  0
 20 25  1  0  0  0  0
 21 26  1  0  0  0  0
 22 27  2  0  0  0  0
 25 28  2  0  0  0  0
 25 29  1  0  0  0  0
 26 30  1  0  0  0  0
 26 31  1  0  0  0  0
 28 32  1  0  0  0  0
 29 33  2  0  0  0  0
 32 34  1  0  0  0  0
 32 35  2  0  0  0  0
 34 36  1  0  0  0  0
 35 37  1  0  0  0  0
 36 38  1  0  0  0  0
 38 39  1  0  0  0  0
 39 40  1  0  0  0  0
 39 41  1  0  0  0  0
 40 42  1  0  0  0  0
 41 43  1  0  0  0  0
 42 44  1  0  0  0  0
 44 45  1  0  0  0  0
  4  6  1  0  0  0  0
 23 27  1  0  0  0  0
 33 35  1  0  0  0  0
 36 37  2  0  0  0  0
 43 44  1  0  0  0  0
M  END
>  <MolRegNo>
1354668

>  <m>
=

>  <Value>
2700

>  <Unit>
nM

>  <Type>
IC50

>  <pValue>
5.57

>  <Ligand Efficiency>
0

>  <Binding Efficiency>
0

>  <Surface Efficiency>
0

>  <Assay Index>
663293

>  <Assay Category>


>  <Assay Organism>
Homo sapiens

>  <Target ID>
17045

>  <Target Name>
Cytochrome P450 3A4

>  <Target Organism>
Homo sapiens

>  <Target Description>
Target is a single protein chain

>  <Sequence Accession>
P08684

>  <Reference>
Bioorg Med Chem Lett 22 (15), 4998-5002 (2012)

>  <Pubmed ID>
22765892

>  <DOI>
10.1016/j.bmcl.2012.06.022

$$$$
1355561
Actelion Java MolfileCreator 1.0

 38 42  0  0  0  0  0  0  0  0999 V2000
    0.0000   -0.0000   -0.0000 O   0  0  0  0  0  0  0  0  0  0  0  0
    1.0998   -1.0052   -0.0000 C   0  0  0  0  0  0  0  0  0  0  0  0
    0.9224   -2.4835   -0.0000 N   0  0  0  0  0  0  0  0  0  0  0  0
    2.5544   -0.6859   -0.0000 N   0  0  0  0  0  0  0  0  0  0  0  0
    2.2706   -3.0866   -0.0000 C   0  0  0  0  0  0  0  0  0  0  0  0
   -0.3903   -3.2167   -0.0000 C   0  0  0  0  0  0  0  0  0  0  0  0
    3.2876   -1.9749   -0.0000 C   0  0  0  0  0  0  0  0  0  0  0  0
    2.7082   -4.5057   -0.0000 C   0  0  0  0  0  0  0  0  0  0  0  0
   -0.4139   -4.7067   -0.0000 C   0  0  0  0  0  0  0  0  0  0  0  0
   -1.7029   -2.4480   -0.0000 C   0  0  0  0  0  0  0  0  0  0  0  0
    4.7304   -2.2824   -0.0000 C   0  0  0  0  0  0  0  0  0  0  0  0
    4.1628   -4.8250   -0.0000 C   0  0  0  0  0  0  0  0  0  0  0  0
   -1.7266   -5.4400   -0.0000 C   0  0  0  0  0  0  0  0  0  0  0  0
   -3.0275   -3.1812   -0.0000 C   0  0  0  0  0  0  0  0  0  0  0  0
    5.1680   -3.7015   -0.0000 C   0  0  0  0  0  0  0  0  0  0  0  0
   -3.0393   -4.6594   -0.0000 N   0  0  0  0  0  0  0  0  0  0  0  0
   -4.3520   -5.3927   -0.0000 C   0  0  0  0  0  0  0  0  0  0  0  0
   -4.3638   -6.8827   -0.0000 O   0  0  0  0  0  0  0  0  0  0  0  0
   -5.6647   -4.6240   -0.0000 N   0  0  0  0  0  0  0  0  0  0  0  0
   -6.9773   -5.3572   -0.0000 C   0  0  0  0  0  0  0  0  0  0  0  0
   -8.2900   -4.5885   -0.0000 C   0  0  0  0  0  0  0  0  0  0  0  0
   -6.9892   -6.8473   -0.0000 C   0  0  0  0  0  0  0  0  0  0  0  0
   -8.3019   -3.0748   -0.0000 O   0  0  0  0  0  0  0  0  0  0  0  0
   -9.6027   -5.3217   -0.0000 N   0  0  0  0  0  0  0  0  0  0  0  0
   -5.9721   -7.9352   -0.0000 C   0  0  0  0  0  0  0  0  0  0  0  0
  -10.9154   -4.5530   -0.0000 C   0  0  0  0  0  0  0  0  0  0  0  0
   -9.6145   -6.8118   -0.0000 C   0  0  0  0  0  0  0  0  0  0  0  0
   -6.4215   -9.3544   -0.0000 C   0  0  0  0  0  0  0  0  0  0  0  0
   -4.5175   -7.5805   -0.0000 C   0  0  0  0  0  0  0  0  0  0  0  0
  -12.2281   -5.2980   -0.0000 C   0  0  0  0  0  0  0  0  0  0  0  0
  -10.9272   -7.5450   -0.0000 C   0  0  0  0  0  0  0  0  0  0  0  0
  -12.2399   -6.7881   -0.0000 C   0  0  0  0  0  0  0  0  0  0  0  0
  -13.5526   -7.5213   -0.0000 N   0  0  0  0  0  0  0  0  0  0  0  0
  -14.8653   -6.7526   -0.0000 C   0  0  0  0  0  0  0  0  0  0  0  0
  -13.5644   -9.0114   -0.0000 C   0  0  0  0  0  0  0  0  0  0  0  0
  -16.1780   -7.4859   -0.0000 C   0  0  0  0  0  0  0  0  0  0  0  0
  -14.8771   -9.7446   -0.0000 C   0  0  0  0  0  0  0  0  0  0  0  0
  -16.1898   -8.9759   -0.0000 C   0  0  0  0  0  0  0  0  0  0  0  0
  1  2  2  0  0  0  0
  2  3  1  0  0  0  0
  2  4  1  0  0  0  0
  3  5  1  0  0  0  0
  3  6  1  0  0  0  0
  4  7  1  0  0  0  0
  5  8  1  0  0  0  0
  6  9  1  0  0  0  0
  6 10  1  0  0  0  0
  7 11  1  0  0  0  0
  8 12  2  0  0  0  0
  9 13  1  0  0  0  0
 10 14  1  0  0  0  0
 11 15  2  0  0  0  0
 13 16  1  0  0  0  0
 16 17  1  0  0  0  0
 17 18  2  0  0  0  0
 17 19  1  0  0  0  0
 20 19  1  1  0  0  0
 20 21  1  0  0  0  0
 20 22  1  0  0  0  0
 21 23  2  0  0  0  0
 21 24  1  0  0  0  0
 22 25  1  0  0  0  0
 24 26  1  0  0  0  0
 24 27  1  0  0  0  0
 25 28  1  0  0  0  0
 25 29  1  0  0  0  0
 26 30  1  0  0  0  0
 27 31  1  0  0  0  0
 30 32  1  0  0  0  0
 32 33  1  0  0  0  0
 33 34  1  0  0  0  0
 33 35  1  0  0  0  0
 34 36  1  0  0  0  0
 35 37  1  0  0  0  0
 36 38  1  0  0  0  0
  5  7  2  0  0  0  0
 12 15  1  0  0  0  0
 14 16  1  0  0  0  0
 31 32  1  0  0  0  0
 37 38  1  0  0  0  0
M  END
>  <MolRegNo>
1355561

>  <m>
=

>  <Value>
16000

>  <Unit>
nM

>  <Type>
IC50

>  <pValue>
4.8

>  <Ligand Efficiency>
0

>  <Binding Efficiency>
0

>  <Surface Efficiency>
0

>  <Assay Index>
664538

>  <Assay Category>


>  <Assay Organism>
Homo sapiens

>  <Target ID>
17045

>  <Target Name>
Cytochrome P450 3A4

>  <Target Organism>
Homo sapiens

>  <Target Description>
Target is a single protein chain

>  <Sequence Accession>
P08684

>  <Reference>
Bioorg Med Chem Lett 22 (14), 4723-4727 (2012)

>  <Pubmed ID>
22727645

>  <DOI>
10.1016/j.bmcl.2012.05.074

$$$$
1355569
Actelion Java MolfileCreator 1.0

 44 49  0  0  0  0  0  0  0  0999 V2000
    0.0000   -0.0000   -0.0000 Br  0  0  0  0  0  0  0  0  0  0  0  0
    0.7450    1.3127   -0.0000 C   0  0  0  0  0  0  0  0  0  0  0  0
    2.2232    1.3127   -0.0000 C   0  0  0  0  0  0  0  0  0  0  0  0
   -0.0118    2.6253   -0.0000 C   0  0  0  0  0  0  0  0  0  0  0  0
    2.9564    0.0237   -0.0000 O   0  0  0  0  0  0  0  0  0  0  0  0
    2.9682    2.6253   -0.0000 C   0  0  0  0  0  0  0  0  0  0  0  0
    0.7332    3.9261   -0.0000 C   0  0  0  0  0  0  0  0  0  0  0  0
    4.4583    2.6371   -0.0000 Br  0  0  0  0  0  0  0  0  0  0  0  0
    2.2114    3.9261   -0.0000 C   0  0  0  0  0  0  0  0  0  0  0  0
   -0.0237    5.2388   -0.0000 C   0  0  0  0  0  0  0  0  0  0  0  0
   -0.0355    6.7525   -0.0000 C   0  0  0  0  0  0  0  0  0  0  0  0
    1.2535    7.5093   -0.0000 N   0  0  0  0  0  0  0  0  0  0  0  0
   -1.3481    7.5211   -0.0000 C   0  0  0  0  0  0  0  0  0  0  0  0
    2.5425    6.7643   -0.0000 C   0  0  0  0  0  0  0  0  0  0  0  0
   -1.3600    9.0348   -0.0000 O   0  0  0  0  0  0  0  0  0  0  0  0
   -2.6608    6.7879   -0.0000 N   0  0  0  0  0  0  0  0  0  0  0  0
    2.5307    5.2743   -0.0000 O   0  0  0  0  0  0  0  0  0  0  0  0
    3.8315    7.5211   -0.0000 N   0  0  0  0  0  0  0  0  0  0  0  0
   -3.9734    7.5566   -0.0000 C   0  0  0  0  0  0  0  0  0  0  0  0
   -2.6726    5.2979   -0.0000 C   0  0  0  0  0  0  0  0  0  0  0  0
    5.1205    6.7643   -0.0000 C   0  0  0  0  0  0  0  0  0  0  0  0
    3.8197    9.0230   -0.0000 C   0  0  0  0  0  0  0  0  0  0  0  0
   -5.2861    6.8116   -0.0000 C   0  0  0  0  0  0  0  0  0  0  0  0
   -3.9853    4.5647   -0.0000 C   0  0  0  0  0  0  0  0  0  0  0  0
    6.4095    7.5211   -0.0000 C   0  0  0  0  0  0  0  0  0  0  0  0
    5.1205    9.7798   -0.0000 C   0  0  0  0  0  0  0  0  0  0  0  0
   -5.2979    5.3216   -0.0000 C   0  0  0  0  0  0  0  0  0  0  0  0
    6.4095    9.0348   -0.0000 C   0  0  0  0  0  0  0  0  0  0  0  0
   -6.6106    4.5884   -0.0000 N   0  0  0  0  0  0  0  0  0  0  0  0
    7.6985    9.7917   -0.0000 N   0  0  0  0  0  0  0  0  0  0  0  0
   -7.9232    5.3570   -0.0000 C   0  0  0  0  0  0  0  0  0  0  0  0
   -6.6224    3.0983   -0.0000 C   0  0  0  0  0  0  0  0  0  0  0  0
    7.8523   11.2935   -0.0000 C   0  0  0  0  0  0  0  0  0  0  0  0
    9.0467    9.1886   -0.0000 C   0  0  0  0  0  0  0  0  0  0  0  0
   -9.2359    4.6238   -0.0000 C   0  0  0  0  0  0  0  0  0  0  0  0
   -7.9350    2.3651   -0.0000 C   0  0  0  0  0  0  0  0  0  0  0  0
    6.7288   12.3105   -0.0000 O   0  0  0  0  0  0  0  0  0  0  0  0
    9.3068   11.6128   -0.0000 N   0  0  0  0  0  0  0  0  0  0  0  0
   10.0518   10.3120   -0.0000 C   0  0  0  0  0  0  0  0  0  0  0  0
    9.4842    7.7695   -0.0000 C   0  0  0  0  0  0  0  0  0  0  0  0
   -9.2477    3.1338   -0.0000 C   0  0  0  0  0  0  0  0  0  0  0  0
   11.4946   10.0045   -0.0000 C   0  0  0  0  0  0  0  0  0  0  0  0
   10.9388    7.4502   -0.0000 C   0  0  0  0  0  0  0  0  0  0  0  0
   11.9321    8.5855   -0.0000 C   0  0  0  0  0  0  0  0  0  0  0  0
  1  2  1  0  0  0  0
  2  3  2  0  0  0  0
  2  4  1  0  0  0  0
  3  5  1  0  0  0  0
  3  6  1  0  0  0  0
  4  7  2  0  0  0  0
  6  8  1  0  0  0  0
  6  9  2  0  0  0  0
  7 10  1  0  0  0  0
 10 11  1  0  0  0  0
 11 12  1  1  0  0  0
 11 13  1  0  0  0  0
 12 14  1  0  0  0  0
 13 15  2  0  0  0  0
 13 16  1  0  0  0  0
 14 17  2  0  0  0  0
 14 18  1  0  0  0  0
 16 19  1  0  0  0  0
 16 20  1  0  0  0  0
 18 21  1  0  0  0  0
 18 22  1  0  0  0  0
 19 23  1  0  0  0  0
 20 24  1  0  0  0  0
 21 25  1  0  0  0  0
 22 26  1  0  0  0  0
 23 27  1  0  0  0  0
 25 28  1  0  0  0  0
 27 29  1  0  0  0  0
 28 30  1  0  0  0  0
 29 31  1  0  0  0  0
 29 32  1  0  0  0  0
 30 33  1  0  0  0  0
 30 34  1  0  0  0  0
 31 35  1  0  0  0  0
 32 36  1  0  0  0  0
 33 37  2  0  0  0  0
 33 38  1  0  0  0  0
 34 39  2  0  0  0  0
 34 40  1  0  0  0  0
 35 41  1  0  0  0  0
 39 42  1  0  0  0  0
 40 43  2  0  0  0  0
 42 44  2  0  0  0  0
  7  9  1  0  0  0  0
 24 27  1  0  0  0  0
 26 28  1  0  0  0  0
 36 41  1  0  0  0  0
 38 39  1  0  0  0  0
 43 44  1  0  0  0  0
M  END
>  <MolRegNo>
1355569

>  <m>
=

>  <Value>
2400

>  <Unit>
nM

>  <Type>
IC50

>  <pValue>
5.62

>  <Ligand Efficiency>
0

>  <Binding Efficiency>
0

>  <Surface Efficiency>
0

>  <Assay Index>
664538

>  <Assay Category>


>  <Assay Organism>
Homo sapiens

>  <Target ID>
17045

>  <Target Name>
Cytochrome P450 3A4

>  <Target Organism>
Homo sapiens

>  <Target Description>
Target is a single protein chain

>  <Sequence Accession>
P08684

>  <Reference>
Bioorg Med Chem Lett 22 (14), 4723-4727 (2012)

>  <Pubmed ID>
22727645

>  <DOI>
10.1016/j.bmcl.2012.05.074

$$$$
1355573
Actelion Java MolfileCreator 1.0

 45 51  0  0  0  0  0  0  0  0999 V2000
    0.0000   -0.0000   -0.0000 O   0  0  0  0  0  0  0  0  0  0  0  0
    1.1024   -0.9958   -0.0000 C   0  0  0  0  0  0  0  0  0  0  0  0
    0.9246   -2.4775   -0.0000 N   0  0  0  0  0  0  0  0  0  0  0  0
    2.5605   -0.6757   -0.0000 N   0  0  0  0  0  0  0  0  0  0  0  0
    2.2760   -3.0821   -0.0000 C   0  0  0  0  0  0  0  0  0  0  0  0
   -0.3912   -3.2125   -0.0000 C   0  0  0  0  0  0  0  0  0  0  0  0
    3.2955   -1.9678   -0.0000 C   0  0  0  0  0  0  0  0  0  0  0  0
    2.7146   -4.5046   -0.0000 C   0  0  0  0  0  0  0  0  0  0  0  0
   -0.4149   -4.7062   -0.0000 C   0  0  0  0  0  0  0  0  0  0  0  0
   -1.7070   -2.4420   -0.0000 C   0  0  0  0  0  0  0  0  0  0  0  0
    4.7417   -2.2760   -0.0000 C   0  0  0  0  0  0  0  0  0  0  0  0
    4.1727   -4.8247   -0.0000 C   0  0  0  0  0  0  0  0  0  0  0  0
   -1.7307   -5.4411   -0.0000 C   0  0  0  0  0  0  0  0  0  0  0  0
   -3.0347   -3.1770   -0.0000 C   0  0  0  0  0  0  0  0  0  0  0  0
    5.1803   -3.6985   -0.0000 C   0  0  0  0  0  0  0  0  0  0  0  0
   -3.0466   -4.6587   -0.0000 N   0  0  0  0  0  0  0  0  0  0  0  0
   -4.3624   -5.3937   -0.0000 C   0  0  0  0  0  0  0  0  0  0  0  0
   -4.3742   -6.8873   -0.0000 O   0  0  0  0  0  0  0  0  0  0  0  0
   -5.6782   -4.6232   -0.0000 N   0  0  0  0  0  0  0  0  0  0  0  0
   -6.9940   -5.3581   -0.0000 C   0  0  0  0  0  0  0  0  0  0  0  0
   -8.3099   -4.5876   -0.0000 C   0  0  0  0  0  0  0  0  0  0  0  0
   -7.0059   -6.8518   -0.0000 C   0  0  0  0  0  0  0  0  0  0  0  0
   -8.3217   -3.0703   -0.0000 O   0  0  0  0  0  0  0  0  0  0  0  0
   -9.6257   -5.3226   -0.0000 N   0  0  0  0  0  0  0  0  0  0  0  0
   -6.2709   -8.1439   -0.0000 C   0  0  0  0  0  0  0  0  0  0  0  0
  -10.9415   -4.5520   -0.0000 C   0  0  0  0  0  0  0  0  0  0  0  0
   -9.6375   -6.8162   -0.0000 C   0  0  0  0  0  0  0  0  0  0  0  0
   -7.0296   -9.4242   -0.0000 C   0  0  0  0  0  0  0  0  0  0  0  0
   -4.7891   -8.1320   -0.0000 C   0  0  0  0  0  0  0  0  0  0  0  0
  -12.2573   -5.2989   -0.0000 C   0  0  0  0  0  0  0  0  0  0  0  0
  -10.9534   -7.5512   -0.0000 C   0  0  0  0  0  0  0  0  0  0  0  0
   -6.3065  -10.7044   -0.0000 C   0  0  0  0  0  0  0  0  0  0  0  0
   -8.5351   -9.4005   -0.0000 C   0  0  0  0  0  0  0  0  0  0  0  0
   -4.0542   -9.4123   -0.0000 C   0  0  0  0  0  0  0  0  0  0  0  0
  -12.2692   -6.7925   -0.0000 C   0  0  0  0  0  0  0  0  0  0  0  0
   -4.8247  -10.7044   -0.0000 C   0  0  0  0  0  0  0  0  0  0  0  0
   -7.0652  -11.9728   -0.0000 C   0  0  0  0  0  0  0  0  0  0  0  0
   -9.3056  -10.6807   -0.0000 C   0  0  0  0  0  0  0  0  0  0  0  0
  -13.5850   -7.5275   -0.0000 N   0  0  0  0  0  0  0  0  0  0  0  0
   -8.5588  -11.9610   -0.0000 C   0  0  0  0  0  0  0  0  0  0  0  0
  -14.9008   -6.7569   -0.0000 C   0  0  0  0  0  0  0  0  0  0  0  0
  -13.5969   -9.0211   -0.0000 C   0  0  0  0  0  0  0  0  0  0  0  0
  -16.2167   -7.4919   -0.0000 C   0  0  0  0  0  0  0  0  0  0  0  0
  -14.9127   -9.7561   -0.0000 C   0  0  0  0  0  0  0  0  0  0  0  0
  -16.2285   -8.9856   -0.0000 C   0  0  0  0  0  0  0  0  0  0  0  0
  1  2  2  0  0  0  0
  2  3  1  0  0  0  0
  2  4  1  0  0  0  0
  3  5  1  0  0  0  0
  3  6  1  0  0  0  0
  4  7  1  0  0  0  0
  5  8  1  0  0  0  0
  6  9  1  0  0  0  0
  6 10  1  0  0  0  0
  7 11  1  0  0  0  0
  8 12  2  0  0  0  0
  9 13  1  0  0  0  0
 10 14  1  0  0  0  0
 11 15  2  0  0  0  0
 13 16  1  0  0  0  0
 16 17  1  0  0  0  0
 17 18  2  0  0  0  0
 17 19  1  0  0  0  0
 20 19  1  1  0  0  0
 20 21  1  0  0  0  0
 20 22  1  0  0  0  0
 21 23  2  0  0  0  0
 21 24  1  0  0  0  0
 22 25  1  0  0  0  0
 24 26  1  0  0  0  0
 24 27  1  0  0  0  0
 25 28  1  0  0  0  0
 25 29  2  0  0  0  0
 26 30  1  0  0  0  0
 27 31  1  0  0  0  0
 28 32  1  0  0  0  0
 28 33  2  0  0  0  0
 29 34  1  0  0  0  0
 30 35  1  0  0  0  0
 32 36  1  0  0  0  0
 32 37  2  0  0  0  0
 33 38  1  0  0  0  0
 35 39  1  0  0  0  0
 37 40  1  0  0  0  0
 39 41  1  0  0  0  0
 39 42  1  0  0  0  0
 41 43  1  0  0  0  0
 42 44  1  0  0  0  0
 43 45  1  0  0  0  0
  5  7  2  0  0  0  0
 12 15  1  0  0  0  0
 14 16  1  0  0  0  0
 31 35  1  0  0  0  0
 34 36  2  0  0  0  0
 38 40  2  0  0  0  0
 44 45  1  0  0  0  0
M  END
>  <MolRegNo>
1355573

>  <m>
=

>  <Value>
30

>  <Unit>
nM

>  <Type>
IC50

>  <pValue>
7.52

>  <Ligand Efficiency>
0

>  <Binding Efficiency>
0

>  <Surface Efficiency>
0

>  <Assay Index>
664538

>  <Assay Category>


>  <Assay Organism>
Homo sapiens

>  <Target ID>
17045

>  <Target Name>
Cytochrome P450 3A4

>  <Target Organism>
Homo sapiens

>  <Target Description>
Target is a single protein chain

>  <Sequence Accession>
P08684

>  <Reference>
Bioorg Med Chem Lett 22 (14), 4723-4727 (2012)

>  <Pubmed ID>
22727645

>  <DOI>
10.1016/j.bmcl.2012.05.074

$$$$
1355574
Actelion Java MolfileCreator 1.0

 45 51  0  0  0  0  0  0  0  0999 V2000
    0.0000   -0.0000   -0.0000 O   0  0  0  0  0  0  0  0  0  0  0  0
    1.1027   -0.9960   -0.0000 C   0  0  0  0  0  0  0  0  0  0  0  0
    0.9367   -2.4782   -0.0000 N   0  0  0  0  0  0  0  0  0  0  0  0
    2.5612   -0.6759   -0.0000 N   0  0  0  0  0  0  0  0  0  0  0  0
    2.2885   -3.0829   -0.0000 C   0  0  0  0  0  0  0  0  0  0  0  0
   -0.3794   -3.2134   -0.0000 C   0  0  0  0  0  0  0  0  0  0  0  0
    3.2964   -1.9683   -0.0000 C   0  0  0  0  0  0  0  0  0  0  0  0
    2.7272   -4.5058   -0.0000 C   0  0  0  0  0  0  0  0  0  0  0  0
   -0.4032   -4.7074   -0.0000 C   0  0  0  0  0  0  0  0  0  0  0  0
   -1.6956   -2.4426   -0.0000 C   0  0  0  0  0  0  0  0  0  0  0  0
    4.7430   -2.2766   -0.0000 C   0  0  0  0  0  0  0  0  0  0  0  0
    4.1857   -4.8260   -0.0000 C   0  0  0  0  0  0  0  0  0  0  0  0
   -1.7193   -5.4426   -0.0000 C   0  0  0  0  0  0  0  0  0  0  0  0
   -3.0237   -3.1778   -0.0000 C   0  0  0  0  0  0  0  0  0  0  0  0
    5.1936   -3.6995   -0.0000 C   0  0  0  0  0  0  0  0  0  0  0  0
   -3.0355   -4.6600   -0.0000 N   0  0  0  0  0  0  0  0  0  0  0  0
   -4.3517   -5.3951   -0.0000 C   0  0  0  0  0  0  0  0  0  0  0  0
   -4.3635   -6.8892   -0.0000 O   0  0  0  0  0  0  0  0  0  0  0  0
   -5.6679   -4.6244   -0.0000 N   0  0  0  0  0  0  0  0  0  0  0  0
   -6.9840   -5.3596   -0.0000 C   0  0  0  0  0  0  0  0  0  0  0  0
   -8.3002   -4.5888   -0.0000 C   0  0  0  0  0  0  0  0  0  0  0  0
   -6.9959   -6.8536   -0.0000 C   0  0  0  0  0  0  0  0  0  0  0  0
   -8.3121   -3.0711   -0.0000 O   0  0  0  0  0  0  0  0  0  0  0  0
   -9.6164   -5.3240   -0.0000 N   0  0  0  0  0  0  0  0  0  0  0  0
   -6.2607   -8.1461   -0.0000 C   0  0  0  0  0  0  0  0  0  0  0  0
  -10.9326   -4.5533   -0.0000 C   0  0  0  0  0  0  0  0  0  0  0  0
   -9.6283   -6.8180   -0.0000 C   0  0  0  0  0  0  0  0  0  0  0  0
   -7.0315   -9.4267   -0.0000 C   0  0  0  0  0  0  0  0  0  0  0  0
   -4.7786   -8.1342   -0.0000 C   0  0  0  0  0  0  0  0  0  0  0  0
  -12.2488   -5.3003   -0.0000 C   0  0  0  0  0  0  0  0  0  0  0  0
  -10.9444   -7.5532   -0.0000 C   0  0  0  0  0  0  0  0  0  0  0  0
   -6.2963  -10.7073   -0.0000 C   0  0  0  0  0  0  0  0  0  0  0  0
   -4.0434   -9.4148   -0.0000 C   0  0  0  0  0  0  0  0  0  0  0  0
  -12.2606   -6.7943   -0.0000 C   0  0  0  0  0  0  0  0  0  0  0  0
   -4.8141  -10.7073   -0.0000 C   0  0  0  0  0  0  0  0  0  0  0  0
   -7.0670  -11.9879   -0.0000 C   0  0  0  0  0  0  0  0  0  0  0  0
  -13.5768   -7.5295   -0.0000 N   0  0  0  0  0  0  0  0  0  0  0  0
   -4.0908  -11.9879   -0.0000 C   0  0  0  0  0  0  0  0  0  0  0  0
   -6.3437  -13.2804   -0.0000 C   0  0  0  0  0  0  0  0  0  0  0  0
  -14.8930   -6.7588   -0.0000 C   0  0  0  0  0  0  0  0  0  0  0  0
  -13.5887   -9.0235   -0.0000 C   0  0  0  0  0  0  0  0  0  0  0  0
   -4.8497  -13.2685   -0.0000 C   0  0  0  0  0  0  0  0  0  0  0  0
  -16.2092   -7.4939   -0.0000 C   0  0  0  0  0  0  0  0  0  0  0  0
  -14.9048   -9.7587   -0.0000 C   0  0  0  0  0  0  0  0  0  0  0  0
  -16.2210   -8.9880   -0.0000 C   0  0  0  0  0  0  0  0  0  0  0  0
  1  2  2  0  0  0  0
  2  3  1  0  0  0  0
  2  4  1  0  0  0  0
  3  5  1  0  0  0  0
  3  6  1  0  0  0  0
  4  7  1  0  0  0  0
  5  8  1  0  0  0  0
  6  9  1  0  0  0  0
  6 10  1  0  0  0  0
  7 11  1  0  0  0  0
  8 12  2  0  0  0  0
  9 13  1  0  0  0  0
 10 14  1  0  0  0  0
 11 15  2  0  0  0  0
 13 16  1  0  0  0  0
 16 17  1  0  0  0  0
 17 18  2  0  0  0  0
 17 19  1  0  0  0  0
 20 19  1  1  0  0  0
 20 21  1  0  0  0  0
 20 22  1  0  0  0  0
 21 23  2  0  0  0  0
 21 24  1  0  0  0  0
 22 25  1  0  0  0  0
 24 26  1  0  0  0  0
 24 27  1  0  0  0  0
 25 28  2  0  0  0  0
 25 29  1  0  0  0  0
 26 30  1  0  0  0  0
 27 31  1  0  0  0  0
 28 32  1  0  0  0  0
 29 33  2  0  0  0  0
 30 34  1  0  0  0  0
 32 35  1  0  0  0  0
 32 36  2  0  0  0  0
 34 37  1  0  0  0  0
 35 38  2  0  0  0  0
 36 39  1  0  0  0  0
 37 40  1  0  0  0  0
 37 41  1  0  0  0  0
 38 42  1  0  0  0  0
 40 43  1  0  0  0  0
 41 44  1  0  0  0  0
 43 45  1  0  0  0  0
  5  7  2  0  0  0  0
 12 15  1  0  0  0  0
 14 16  1  0  0  0  0
 31 34  1  0  0  0  0
 33 35  1  0  0  0  0
 39 42  2  0  0  0  0
 44 45  1  0  0  0  0
M  END
>  <MolRegNo>
1355574

>  <m>
=

>  <Value>
30

>  <Unit>
nM

>  <Type>
IC50

>  <pValue>
7.52

>  <Ligand Efficiency>
0

>  <Binding Efficiency>
0

>  <Surface Efficiency>
0

>  <Assay Index>
664538

>  <Assay Category>


>  <Assay Organism>
Homo sapiens

>  <Target ID>
17045

>  <Target Name>
Cytochrome P450 3A4

>  <Target Organism>
Homo sapiens

>  <Target Description>
Target is a single protein chain

>  <Sequence Accession>
P08684

>  <Reference>
Bioorg Med Chem Lett 22 (14), 4723-4727 (2012)

>  <Pubmed ID>
22727645

>  <DOI>
10.1016/j.bmcl.2012.05.074

$$$$
1355575
Actelion Java MolfileCreator 1.0

 47 53  0  0  0  0  0  0  0  0999 V2000
    0.0000   -0.0000   -0.0000 O   0  0  0  0  0  0  0  0  0  0  0  0
    1.1028   -0.9961   -0.0000 C   0  0  0  0  0  0  0  0  0  0  0  0
    0.9249   -2.4783   -0.0000 N   0  0  0  0  0  0  0  0  0  0  0  0
    2.5613   -0.6759   -0.0000 N   0  0  0  0  0  0  0  0  0  0  0  0
    2.2767   -3.0831   -0.0000 C   0  0  0  0  0  0  0  0  0  0  0  0
   -0.3913   -3.2135   -0.0000 C   0  0  0  0  0  0  0  0  0  0  0  0
    3.2965   -1.9684   -0.0000 C   0  0  0  0  0  0  0  0  0  0  0  0
    2.7155   -4.5060   -0.0000 C   0  0  0  0  0  0  0  0  0  0  0  0
   -0.4150   -4.7076   -0.0000 C   0  0  0  0  0  0  0  0  0  0  0  0
   -1.7075   -2.4427   -0.0000 C   0  0  0  0  0  0  0  0  0  0  0  0
    4.7432   -2.2767   -0.0000 C   0  0  0  0  0  0  0  0  0  0  0  0
    4.1740   -4.8262   -0.0000 C   0  0  0  0  0  0  0  0  0  0  0  0
   -1.7313   -5.4428   -0.0000 C   0  0  0  0  0  0  0  0  0  0  0  0
   -3.0356   -3.1779   -0.0000 C   0  0  0  0  0  0  0  0  0  0  0  0
    5.1819   -3.6997   -0.0000 C   0  0  0  0  0  0  0  0  0  0  0  0
   -3.0475   -4.6602   -0.0000 N   0  0  0  0  0  0  0  0  0  0  0  0
   -4.3637   -5.3954   -0.0000 C   0  0  0  0  0  0  0  0  0  0  0  0
   -4.3756   -6.8895   -0.0000 O   0  0  0  0  0  0  0  0  0  0  0  0
   -5.6800   -4.6246   -0.0000 N   0  0  0  0  0  0  0  0  0  0  0  0
   -6.9962   -5.3598   -0.0000 C   0  0  0  0  0  0  0  0  0  0  0  0
   -8.3124   -4.5890   -0.0000 C   0  0  0  0  0  0  0  0  0  0  0  0
   -7.0080   -6.8539   -0.0000 C   0  0  0  0  0  0  0  0  0  0  0  0
   -8.3243   -3.0712   -0.0000 O   0  0  0  0  0  0  0  0  0  0  0  0
   -9.6287   -5.3242   -0.0000 N   0  0  0  0  0  0  0  0  0  0  0  0
   -6.2729   -8.1464   -0.0000 C   0  0  0  0  0  0  0  0  0  0  0  0
  -10.9449   -4.5535   -0.0000 C   0  0  0  0  0  0  0  0  0  0  0  0
   -9.6405   -6.8183   -0.0000 C   0  0  0  0  0  0  0  0  0  0  0  0
   -7.0436   -9.4271   -0.0000 C   0  0  0  0  0  0  0  0  0  0  0  0
   -4.7906   -8.1346   -0.0000 C   0  0  0  0  0  0  0  0  0  0  0  0
  -12.2611   -5.3005   -0.0000 C   0  0  0  0  0  0  0  0  0  0  0  0
  -10.9567   -7.5535   -0.0000 C   0  0  0  0  0  0  0  0  0  0  0  0
   -6.3084  -10.7077   -0.0000 C   0  0  0  0  0  0  0  0  0  0  0  0
   -4.0554   -9.4152   -0.0000 C   0  0  0  0  0  0  0  0  0  0  0  0
  -12.2730   -6.7946   -0.0000 C   0  0  0  0  0  0  0  0  0  0  0  0
   -4.8262  -10.7077   -0.0000 C   0  0  0  0  0  0  0  0  0  0  0  0
  -13.5892   -7.5298   -0.0000 N   0  0  0  0  0  0  0  0  0  0  0  0
   -4.0910  -12.0002   -0.0000 C   0  0  0  0  0  0  0  0  0  0  0  0
  -14.9054   -6.7590   -0.0000 C   0  0  0  0  0  0  0  0  0  0  0  0
  -13.6011   -9.0239   -0.0000 C   0  0  0  0  0  0  0  0  0  0  0  0
   -4.8618  -13.2928   -0.0000 C   0  0  0  0  0  0  0  0  0  0  0  0
   -2.6087  -11.9884   -0.0000 C   0  0  0  0  0  0  0  0  0  0  0  0
  -16.2098   -7.4942   -0.0000 C   0  0  0  0  0  0  0  0  0  0  0  0
  -14.9173   -9.7591   -0.0000 C   0  0  0  0  0  0  0  0  0  0  0  0
   -4.1266  -14.5853   -0.0000 C   0  0  0  0  0  0  0  0  0  0  0  0
   -1.8736  -13.2809   -0.0000 C   0  0  0  0  0  0  0  0  0  0  0  0
  -16.2217   -8.9883   -0.0000 C   0  0  0  0  0  0  0  0  0  0  0  0
   -2.6325  -14.5734   -0.0000 C   0  0  0  0  0  0  0  0  0  0  0  0
  1  2  2  0  0  0  0
  2  3  1  0  0  0  0
  2  4  1  0  0  0  0
  3  5  1  0  0  0  0
  3  6  1  0  0  0  0
  4  7  1  0  0  0  0
  5  8  1  0  0  0  0
  6  9  1  0  0  0  0
  6 10  1  0  0  0  0
  7 11  1  0  0  0  0
  8 12  2  0  0  0  0
  9 13  1  0  0  0  0
 10 14  1  0  0  0  0
 11 15  2  0  0  0  0
 13 16  1  0  0  0  0
 16 17  1  0  0  0  0
 17 18  2  0  0  0  0
 17 19  1  0  0  0  0
 20 19  1  1  0  0  0
 20 21  1  0  0  0  0
 20 22  1  0  0  0  0
 21 23  2  0  0  0  0
 21 24  1  0  0  0  0
 22 25  1  0  0  0  0
 24 26  1  0  0  0  0
 24 27  1  0  0  0  0
 25 28  2  0  0  0  0
 25 29  1  0  0  0  0
 26 30  1  0  0  0  0
 27 31  1  0  0  0  0
 28 32  1  0  0  0  0
 29 33  2  0  0  0  0
 30 34  1  0  0  0  0
 32 35  2  0  0  0  0
 34 36  1  0  0  0  0
 35 37  1  0  0  0  0
 36 38  1  0  0  0  0
 36 39  1  0  0  0  0
 37 40  2  0  0  0  0
 37 41  1  0  0  0  0
 38 42  1  0  0  0  0
 39 43  1  0  0  0  0
 40 44  1  0  0  0  0
 41 45  2  0  0  0  0
 42 46  1  0  0  0  0
 44 47  2  0  0  0  0
  5  7  2  0  0  0  0
 12 15  1  0  0  0  0
 14 16  1  0  0  0  0
 31 34  1  0  0  0  0
 33 35  1  0  0  0  0
 43 46  1  0  0  0  0
 45 47  1  0  0  0  0
M  END
>  <MolRegNo>
1355575

>  <m>
=

>  <Value>
1300

>  <Unit>
nM

>  <Type>
IC50

>  <pValue>
5.89

>  <Ligand Efficiency>
0

>  <Binding Efficiency>
0

>  <Surface Efficiency>
0

>  <Assay Index>
664538

>  <Assay Category>


>  <Assay Organism>
Homo sapiens

>  <Target ID>
17045

>  <Target Name>
Cytochrome P450 3A4

>  <Target Organism>
Homo sapiens

>  <Target Description>
Target is a single protein chain

>  <Sequence Accession>
P08684

>  <Reference>
Bioorg Med Chem Lett 22 (14), 4723-4727 (2012)

>  <Pubmed ID>
22727645

>  <DOI>
10.1016/j.bmcl.2012.05.074

$$$$
1355577
Actelion Java MolfileCreator 1.0

 45 51  0  0  0  0  0  0  0  0999 V2000
    0.0000   -0.0000   -0.0000 O   0  0  0  0  0  0  0  0  0  0  0  0
    1.1026   -0.9959   -0.0000 C   0  0  0  0  0  0  0  0  0  0  0  0
    0.9366   -2.4778   -0.0000 N   0  0  0  0  0  0  0  0  0  0  0  0
    2.5608   -0.6758   -0.0000 N   0  0  0  0  0  0  0  0  0  0  0  0
    2.2882   -3.0825   -0.0000 C   0  0  0  0  0  0  0  0  0  0  0  0
   -0.3794   -3.2129   -0.0000 C   0  0  0  0  0  0  0  0  0  0  0  0
    3.2959   -1.9681   -0.0000 C   0  0  0  0  0  0  0  0  0  0  0  0
    2.7268   -4.5052   -0.0000 C   0  0  0  0  0  0  0  0  0  0  0  0
   -0.4031   -4.7067   -0.0000 C   0  0  0  0  0  0  0  0  0  0  0  0
   -1.6954   -2.4423   -0.0000 C   0  0  0  0  0  0  0  0  0  0  0  0
    4.7423   -2.2763   -0.0000 C   0  0  0  0  0  0  0  0  0  0  0  0
    4.1851   -4.8253   -0.0000 C   0  0  0  0  0  0  0  0  0  0  0  0
   -1.7191   -5.4418   -0.0000 C   0  0  0  0  0  0  0  0  0  0  0  0
   -3.0232   -3.1773   -0.0000 C   0  0  0  0  0  0  0  0  0  0  0  0
    5.1810   -3.6990   -0.0000 C   0  0  0  0  0  0  0  0  0  0  0  0
   -3.0351   -4.6593   -0.0000 N   0  0  0  0  0  0  0  0  0  0  0  0
   -4.3511   -5.3944   -0.0000 C   0  0  0  0  0  0  0  0  0  0  0  0
   -4.3629   -6.8882   -0.0000 O   0  0  0  0  0  0  0  0  0  0  0  0
   -5.6670   -4.6237   -0.0000 N   0  0  0  0  0  0  0  0  0  0  0  0
   -6.9830   -5.3588   -0.0000 C   0  0  0  0  0  0  0  0  0  0  0  0
   -8.2990   -4.5882   -0.0000 C   0  0  0  0  0  0  0  0  0  0  0  0
   -6.9949   -6.8526   -0.0000 C   0  0  0  0  0  0  0  0  0  0  0  0
   -8.3109   -3.0706   -0.0000 O   0  0  0  0  0  0  0  0  0  0  0  0
   -9.6150   -5.3232   -0.0000 N   0  0  0  0  0  0  0  0  0  0  0  0
   -6.2598   -8.1449   -0.0000 C   0  0  0  0  0  0  0  0  0  0  0  0
  -10.9310   -4.5526   -0.0000 C   0  0  0  0  0  0  0  0  0  0  0  0
   -9.6269   -6.8170   -0.0000 C   0  0  0  0  0  0  0  0  0  0  0  0
   -4.7779   -8.2990   -0.0000 C   0  0  0  0  0  0  0  0  0  0  0  0
   -6.8763   -9.4964   -0.0000 C   0  0  0  0  0  0  0  0  0  0  0  0
  -12.2470   -5.2995   -0.0000 C   0  0  0  0  0  0  0  0  0  0  0  0
  -10.9428   -7.5521   -0.0000 C   0  0  0  0  0  0  0  0  0  0  0  0
   -4.4933   -9.7573   -0.0000 C   0  0  0  0  0  0  0  0  0  0  0  0
   -3.6753   -7.2913   -0.0000 C   0  0  0  0  0  0  0  0  0  0  0  0
   -5.7737  -10.4923   -0.0000 N   0  0  0  0  0  0  0  0  0  0  0  0
  -12.2588   -6.7933   -0.0000 C   0  0  0  0  0  0  0  0  0  0  0  0
   -3.0825  -10.2196   -0.0000 C   0  0  0  0  0  0  0  0  0  0  0  0
   -2.2644   -7.7418   -0.0000 C   0  0  0  0  0  0  0  0  0  0  0  0
   -5.9516  -11.9743   -0.0000 C   0  0  0  0  0  0  0  0  0  0  0  0
  -13.5748   -7.5284   -0.0000 N   0  0  0  0  0  0  0  0  0  0  0  0
   -1.9799   -9.2119   -0.0000 C   0  0  0  0  0  0  0  0  0  0  0  0
  -14.8908   -6.7578   -0.0000 C   0  0  0  0  0  0  0  0  0  0  0  0
  -13.5867   -9.0222   -0.0000 C   0  0  0  0  0  0  0  0  0  0  0  0
  -16.2068   -7.4928   -0.0000 C   0  0  0  0  0  0  0  0  0  0  0  0
  -14.9027   -9.7573   -0.0000 C   0  0  0  0  0  0  0  0  0  0  0  0
  -16.2186   -8.9866   -0.0000 C   0  0  0  0  0  0  0  0  0  0  0  0
  1  2  2  0  0  0  0
  2  3  1  0  0  0  0
  2  4  1  0  0  0  0
  3  5  1  0  0  0  0
  3  6  1  0  0  0  0
  4  7  1  0  0  0  0
  5  8  1  0  0  0  0
  6  9  1  0  0  0  0
  6 10  1  0  0  0  0
  7 11  1  0  0  0  0
  8 12  2  0  0  0  0
  9 13  1  0  0  0  0
 10 14  1  0  0  0  0
 11 15  2  0  0  0  0
 13 16  1  0  0  0  0
 16 17  1  0  0  0  0
 17 18  2  0  0  0  0
 17 19  1  0  0  0  0
 20 19  1  1  0  0  0
 20 21  1  0  0  0  0
 20 22  1  0  0  0  0
 21 23  2  0  0  0  0
 21 24  1  0  0  0  0
 22 25  1  0  0  0  0
 24 26  1  0  0  0  0
 24 27  1  0  0  0  0
 25 28  1  0  0  0  0
 25 29  2  0  0  0  0
 26 30  1  0  0  0  0
 27 31  1  0  0  0  0
 28 32  2  0  0  0  0
 28 33  1  0  0  0  0
 29 34  1  0  0  0  0
 30 35  1  0  0  0  0
 32 36  1  0  0  0  0
 33 37  2  0  0  0  0
 34 38  1  0  0  0  0
 35 39  1  0  0  0  0
 36 40  2  0  0  0  0
 39 41  1  0  0  0  0
 39 42  1  0  0  0  0
 41 43  1  0  0  0  0
 42 44  1  0  0  0  0
 43 45  1  0  0  0  0
  5  7  2  0  0  0  0
 12 15  1  0  0  0  0
 14 16  1  0  0  0  0
 31 35  1  0  0  0  0
 32 34  1  0  0  0  0
 37 40  1  0  0  0  0
 44 45  1  0  0  0  0
M  END
>  <MolRegNo>
1355577

>  <m>
=

>  <Value>
100

>  <Unit>
nM

>  <Type>
IC50

>  <pValue>
7

>  <Ligand Efficiency>
0

>  <Binding Efficiency>
0

>  <Surface Efficiency>
0

>  <Assay Index>
664538

>  <Assay Category>


>  <Assay Organism>
Homo sapiens

>  <Target ID>
17045

>  <Target Name>
Cytochrome P450 3A4

>  <Target Organism>
Homo sapiens

>  <Target Description>
Target is a single protein chain

>  <Sequence Accession>
P08684

>  <Reference>
Bioorg Med Chem Lett 22 (14), 4723-4727 (2012)

>  <Pubmed ID>
22727645

>  <DOI>
10.1016/j.bmcl.2012.05.074

$$$$
1355578
Actelion Java MolfileCreator 1.0

 44 50  0  0  0  0  0  0  0  0999 V2000
    0.0000   -0.0000   -0.0000 O   0  0  0  0  0  0  0  0  0  0  0  0
    1.1010   -0.9945   -0.0000 C   0  0  0  0  0  0  0  0  0  0  0  0
    0.9235   -2.4744   -0.0000 N   0  0  0  0  0  0  0  0  0  0  0  0
    2.5573   -0.6748   -0.0000 N   0  0  0  0  0  0  0  0  0  0  0  0
    2.2731   -3.0782   -0.0000 C   0  0  0  0  0  0  0  0  0  0  0  0
   -0.3907   -3.2084   -0.0000 C   0  0  0  0  0  0  0  0  0  0  0  0
    3.2913   -1.9653   -0.0000 C   0  0  0  0  0  0  0  0  0  0  0  0
    2.7112   -4.4989   -0.0000 C   0  0  0  0  0  0  0  0  0  0  0  0
   -0.4144   -4.7001   -0.0000 C   0  0  0  0  0  0  0  0  0  0  0  0
   -1.7048   -2.4389   -0.0000 C   0  0  0  0  0  0  0  0  0  0  0  0
    4.7357   -2.2731   -0.0000 C   0  0  0  0  0  0  0  0  0  0  0  0
    4.1674   -4.8185   -0.0000 C   0  0  0  0  0  0  0  0  0  0  0  0
   -1.7285   -5.4342   -0.0000 C   0  0  0  0  0  0  0  0  0  0  0  0
   -3.0308   -3.1729   -0.0000 C   0  0  0  0  0  0  0  0  0  0  0  0
    5.1737   -3.6938   -0.0000 C   0  0  0  0  0  0  0  0  0  0  0  0
   -3.0427   -4.6528   -0.0000 N   0  0  0  0  0  0  0  0  0  0  0  0
   -4.3568   -5.3868   -0.0000 C   0  0  0  0  0  0  0  0  0  0  0  0
   -4.3686   -6.8785   -0.0000 O   0  0  0  0  0  0  0  0  0  0  0  0
   -5.6709   -4.6173   -0.0000 N   0  0  0  0  0  0  0  0  0  0  0  0
   -6.9851   -5.3513   -0.0000 C   0  0  0  0  0  0  0  0  0  0  0  0
   -8.2992   -4.5817   -0.0000 C   0  0  0  0  0  0  0  0  0  0  0  0
   -6.9969   -6.8430   -0.0000 C   0  0  0  0  0  0  0  0  0  0  0  0
   -8.3111   -3.0663   -0.0000 O   0  0  0  0  0  0  0  0  0  0  0  0
   -9.6134   -5.3158   -0.0000 N   0  0  0  0  0  0  0  0  0  0  0  0
   -6.2629   -8.1335   -0.0000 C   0  0  0  0  0  0  0  0  0  0  0  0
  -10.9275   -4.5462   -0.0000 C   0  0  0  0  0  0  0  0  0  0  0  0
   -9.6252   -6.8075   -0.0000 C   0  0  0  0  0  0  0  0  0  0  0  0
   -4.7830   -8.1217   -0.0000 C   0  0  0  0  0  0  0  0  0  0  0  0
   -7.0325   -9.4121   -0.0000 C   0  0  0  0  0  0  0  0  0  0  0  0
  -12.2417   -5.2921   -0.0000 C   0  0  0  0  0  0  0  0  0  0  0  0
  -10.9394   -7.5415   -0.0000 C   0  0  0  0  0  0  0  0  0  0  0  0
   -4.0371   -9.4003   -0.0000 C   0  0  0  0  0  0  0  0  0  0  0  0
   -6.2984  -10.7026   -0.0000 C   0  0  0  0  0  0  0  0  0  0  0  0
  -12.2535   -6.7838   -0.0000 C   0  0  0  0  0  0  0  0  0  0  0  0
   -4.8067  -10.6907   -0.0000 C   0  0  0  0  0  0  0  0  0  0  0  0
   -2.5691   -9.7081   -0.0000 C   0  0  0  0  0  0  0  0  0  0  0  0
  -13.5677   -7.5179   -0.0000 N   0  0  0  0  0  0  0  0  0  0  0  0
   -3.8122  -11.8036   -0.0000 N   0  0  0  0  0  0  0  0  0  0  0  0
   -2.4270  -11.1998   -0.0000 C   0  0  0  0  0  0  0  0  0  0  0  0
  -14.8818   -6.7483   -0.0000 C   0  0  0  0  0  0  0  0  0  0  0  0
  -13.5795   -9.0096   -0.0000 C   0  0  0  0  0  0  0  0  0  0  0  0
  -16.1959   -7.4823   -0.0000 C   0  0  0  0  0  0  0  0  0  0  0  0
  -14.8936   -9.7436   -0.0000 C   0  0  0  0  0  0  0  0  0  0  0  0
  -16.2078   -8.9741   -0.0000 C   0  0  0  0  0  0  0  0  0  0  0  0
  1  2  2  0  0  0  0
  2  3  1  0  0  0  0
  2  4  1  0  0  0  0
  3  5  1  0  0  0  0
  3  6  1  0  0  0  0
  4  7  1  0  0  0  0
  5  8  1  0  0  0  0
  6  9  1  0  0  0  0
  6 10  1  0  0  0  0
  7 11  1  0  0  0  0
  8 12  2  0  0  0  0
  9 13  1  0  0  0  0
 10 14  1  0  0  0  0
 11 15  2  0  0  0  0
 13 16  1  0  0  0  0
 16 17  1  0  0  0  0
 17 18  2  0  0  0  0
 17 19  1  0  0  0  0
 19 20  1  0  0  0  0
 20 21  1  0  0  0  0
 20 22  1  0  0  0  0
 21 23  2  0  0  0  0
 21 24  1  0  0  0  0
 22 25  1  0  0  0  0
 24 26  1  0  0  0  0
 24 27  1  0  0  0  0
 25 28  2  0  0  0  0
 25 29  1  0  0  0  0
 26 30  1  0  0  0  0
 27 31  1  0  0  0  0
 28 32  1  0  0  0  0
 29 33  2  0  0  0  0
 30 34  1  0  0  0  0
 32 35  2  0  0  0  0
 32 36  1  0  0  0  0
 34 37  1  0  0  0  0
 35 38  1  0  0  0  0
 36 39  2  0  0  0  0
 37 40  1  0  0  0  0
 37 41  1  0  0  0  0
 40 42  1  0  0  0  0
 41 43  1  0  0  0  0
 42 44  1  0  0  0  0
  5  7  2  0  0  0  0
 12 15  1  0  0  0  0
 14 16  1  0  0  0  0
 31 34  1  0  0  0  0
 33 35  1  0  0  0  0
 38 39  1  0  0  0  0
 43 44  1  0  0  0  0
M  END
>  <MolRegNo>
1355578

>  <m>
=

>  <Value>
2500

>  <Unit>
nM

>  <Type>
IC50

>  <pValue>
5.6

>  <Ligand Efficiency>
0

>  <Binding Efficiency>
0

>  <Surface Efficiency>
0

>  <Assay Index>
664538

>  <Assay Category>


>  <Assay Organism>
Homo sapiens

>  <Target ID>
17045

>  <Target Name>
Cytochrome P450 3A4

>  <Target Organism>
Homo sapiens

>  <Target Description>
Target is a single protein chain

>  <Sequence Accession>
P08684

>  <Reference>
Bioorg Med Chem Lett 22 (14), 4723-4727 (2012)

>  <Pubmed ID>
22727645

>  <DOI>
10.1016/j.bmcl.2012.05.074

$$$$
1355579
Actelion Java MolfileCreator 1.0

 44 50  0  0  0  0  0  0  0  0999 V2000
    0.0000   -0.0000   -0.0000 O   0  0  0  0  0  0  0  0  0  0  0  0
    1.1010   -0.9945   -0.0000 C   0  0  0  0  0  0  0  0  0  0  0  0
    0.9235   -2.4744   -0.0000 N   0  0  0  0  0  0  0  0  0  0  0  0
    2.5573   -0.6748   -0.0000 N   0  0  0  0  0  0  0  0  0  0  0  0
    2.2731   -3.0782   -0.0000 C   0  0  0  0  0  0  0  0  0  0  0  0
   -0.3907   -3.2084   -0.0000 C   0  0  0  0  0  0  0  0  0  0  0  0
    3.2913   -1.9653   -0.0000 C   0  0  0  0  0  0  0  0  0  0  0  0
    2.7112   -4.4989   -0.0000 C   0  0  0  0  0  0  0  0  0  0  0  0
   -0.4144   -4.7001   -0.0000 C   0  0  0  0  0  0  0  0  0  0  0  0
   -1.7048   -2.4389   -0.0000 C   0  0  0  0  0  0  0  0  0  0  0  0
    4.7357   -2.2731   -0.0000 C   0  0  0  0  0  0  0  0  0  0  0  0
    4.1674   -4.8185   -0.0000 C   0  0  0  0  0  0  0  0  0  0  0  0
   -1.7285   -5.4342   -0.0000 C   0  0  0  0  0  0  0  0  0  0  0  0
   -3.0308   -3.1729   -0.0000 C   0  0  0  0  0  0  0  0  0  0  0  0
    5.1737   -3.6938   -0.0000 C   0  0  0  0  0  0  0  0  0  0  0  0
   -3.0427   -4.6528   -0.0000 N   0  0  0  0  0  0  0  0  0  0  0  0
   -4.3568   -5.3868   -0.0000 C   0  0  0  0  0  0  0  0  0  0  0  0
   -4.3686   -6.8785   -0.0000 O   0  0  0  0  0  0  0  0  0  0  0  0
   -5.6709   -4.6173   -0.0000 N   0  0  0  0  0  0  0  0  0  0  0  0
   -6.9851   -5.3513   -0.0000 C   0  0  0  0  0  0  0  0  0  0  0  0
   -8.2992   -4.5817   -0.0000 C   0  0  0  0  0  0  0  0  0  0  0  0
   -6.9969   -6.8430   -0.0000 C   0  0  0  0  0  0  0  0  0  0  0  0
   -8.3111   -3.0663   -0.0000 O   0  0  0  0  0  0  0  0  0  0  0  0
   -9.6134   -5.3158   -0.0000 N   0  0  0  0  0  0  0  0  0  0  0  0
   -6.2629   -8.1335   -0.0000 C   0  0  0  0  0  0  0  0  0  0  0  0
  -10.9275   -4.5462   -0.0000 C   0  0  0  0  0  0  0  0  0  0  0  0
   -9.6252   -6.8075   -0.0000 C   0  0  0  0  0  0  0  0  0  0  0  0
   -4.7830   -8.1217   -0.0000 C   0  0  0  0  0  0  0  0  0  0  0  0
   -7.0325   -9.4121   -0.0000 C   0  0  0  0  0  0  0  0  0  0  0  0
  -12.2417   -5.2921   -0.0000 C   0  0  0  0  0  0  0  0  0  0  0  0
  -10.9394   -7.5415   -0.0000 C   0  0  0  0  0  0  0  0  0  0  0  0
   -4.0371   -9.4003   -0.0000 C   0  0  0  0  0  0  0  0  0  0  0  0
   -6.2984  -10.7026   -0.0000 C   0  0  0  0  0  0  0  0  0  0  0  0
  -12.2535   -6.7838   -0.0000 C   0  0  0  0  0  0  0  0  0  0  0  0
   -4.8067  -10.6907   -0.0000 C   0  0  0  0  0  0  0  0  0  0  0  0
   -2.5691   -9.7081   -0.0000 C   0  0  0  0  0  0  0  0  0  0  0  0
  -13.5677   -7.5179   -0.0000 N   0  0  0  0  0  0  0  0  0  0  0  0
   -3.8122  -11.8036   -0.0000 N   0  0  0  0  0  0  0  0  0  0  0  0
   -2.4270  -11.1998   -0.0000 N   0  0  0  0  0  0  0  0  0  0  0  0
  -14.8818   -6.7483   -0.0000 C   0  0  0  0  0  0  0  0  0  0  0  0
  -13.5795   -9.0096   -0.0000 C   0  0  0  0  0  0  0  0  0  0  0  0
  -16.1959   -7.4823   -0.0000 C   0  0  0  0  0  0  0  0  0  0  0  0
  -14.8936   -9.7436   -0.0000 C   0  0  0  0  0  0  0  0  0  0  0  0
  -16.2078   -8.9741   -0.0000 C   0  0  0  0  0  0  0  0  0  0  0  0
  1  2  2  0  0  0  0
  2  3  1  0  0  0  0
  2  4  1  0  0  0  0
  3  5  1  0  0  0  0
  3  6  1  0  0  0  0
  4  7  1  0  0  0  0
  5  8  1  0  0  0  0
  6  9  1  0  0  0  0
  6 10  1  0  0  0  0
  7 11  1  0  0  0  0
  8 12  2  0  0  0  0
  9 13  1  0  0  0  0
 10 14  1  0  0  0  0
 11 15  2  0  0  0  0
 13 16  1  0  0  0  0
 16 17  1  0  0  0  0
 17 18  2  0  0  0  0
 17 19  1  0  0  0  0
 19 20  1  0  0  0  0
 20 21  1  0  0  0  0
 20 22  1  0  0  0  0
 21 23  2  0  0  0  0
 21 24  1  0  0  0  0
 22 25  1  0  0  0  0
 24 26  1  0  0  0  0
 24 27  1  0  0  0  0
 25 28  2  0  0  0  0
 25 29  1  0  0  0  0
 26 30  1  0  0  0  0
 27 31  1  0  0  0  0
 28 32  1  0  0  0  0
 29 33  2  0  0  0  0
 30 34  1  0  0  0  0
 32 35  2  0  0  0  0
 32 36  1  0  0  0  0
 34 37  1  0  0  0  0
 35 38  1  0  0  0  0
 36 39  2  0  0  0  0
 37 40  1  0  0  0  0
 37 41  1  0  0  0  0
 40 42  1  0  0  0  0
 41 43  1  0  0  0  0
 42 44  1  0  0  0  0
  5  7  2  0  0  0  0
 12 15  1  0  0  0  0
 14 16  1  0  0  0  0
 31 34  1  0  0  0  0
 33 35  1  0  0  0  0
 38 39  1  0  0  0  0
 43 44  1  0  0  0  0
M  END
>  <MolRegNo>
1355579

>  <m>
=

>  <Value>
17000

>  <Unit>
nM

>  <Type>
IC50

>  <pValue>
4.77

>  <Ligand Efficiency>
0

>  <Binding Efficiency>
0

>  <Surface Efficiency>
0

>  <Assay Index>
664538

>  <Assay Category>


>  <Assay Organism>
Homo sapiens

>  <Target ID>
17045

>  <Target Name>
Cytochrome P450 3A4

>  <Target Organism>
Homo sapiens

>  <Target Description>
Target is a single protein chain

>  <Sequence Accession>
P08684

>  <Reference>
Bioorg Med Chem Lett 22 (14), 4723-4727 (2012)

>  <Pubmed ID>
22727645

>  <DOI>
10.1016/j.bmcl.2012.05.074

$$$$
1355629
Actelion Java MolfileCreator 1.0

 46 52  0  0  0  0  0  0  0  0999 V2000
    0.0000   -0.0000   -0.0000 O   0  0  0  0  0  0  0  0  0  0  0  0
    1.2910   -0.7462   -0.0000 C   0  0  0  0  0  0  0  0  0  0  0  0
    1.2792   -2.2267   -0.0000 N   0  0  0  0  0  0  0  0  0  0  0  0
    2.5939   -0.0000   -0.0000 N   0  0  0  0  0  0  0  0  0  0  0  0
   -0.0355   -2.9610   -0.0000 C   0  0  0  0  0  0  0  0  0  0  0  0
    2.5583   -2.9847   -0.0000 C   0  0  0  0  0  0  0  0  0  0  0  0
    3.8730   -0.7580   -0.0000 C   0  0  0  0  0  0  0  0  0  0  0  0
   -0.0592   -4.4534   -0.0000 C   0  0  0  0  0  0  0  0  0  0  0  0
   -1.3502   -2.1912   -0.0000 C   0  0  0  0  0  0  0  0  0  0  0  0
    3.8493   -2.2385   -0.0000 C   0  0  0  0  0  0  0  0  0  0  0  0
    5.1640   -0.0118   -0.0000 C   0  0  0  0  0  0  0  0  0  0  0  0
   -1.3739   -5.1877   -0.0000 C   0  0  0  0  0  0  0  0  0  0  0  0
   -2.6768   -2.9255   -0.0000 C   0  0  0  0  0  0  0  0  0  0  0  0
    5.1285   -2.9965   -0.0000 C   0  0  0  0  0  0  0  0  0  0  0  0
    6.4432   -0.7580   -0.0000 C   0  0  0  0  0  0  0  0  0  0  0  0
   -2.6886   -4.4060   -0.0000 N   0  0  0  0  0  0  0  0  0  0  0  0
    6.4313   -2.2504   -0.0000 C   0  0  0  0  0  0  0  0  0  0  0  0
   -4.0033   -5.1403   -0.0000 C   0  0  0  0  0  0  0  0  0  0  0  0
   -4.0151   -6.6327   -0.0000 O   0  0  0  0  0  0  0  0  0  0  0  0
   -5.3180   -4.3705   -0.0000 N   0  0  0  0  0  0  0  0  0  0  0  0
   -6.6327   -5.1048   -0.0000 C   0  0  0  0  0  0  0  0  0  0  0  0
   -7.9474   -4.3349   -0.0000 C   0  0  0  0  0  0  0  0  0  0  0  0
   -6.6445   -6.5971   -0.0000 C   0  0  0  0  0  0  0  0  0  0  0  0
   -7.9592   -2.8189   -0.0000 O   0  0  0  0  0  0  0  0  0  0  0  0
   -9.2621   -5.0693   -0.0000 N   0  0  0  0  0  0  0  0  0  0  0  0
   -5.9102   -7.8881   -0.0000 C   0  0  0  0  0  0  0  0  0  0  0  0
  -10.5768   -4.2994   -0.0000 C   0  0  0  0  0  0  0  0  0  0  0  0
   -9.2739   -6.5616   -0.0000 C   0  0  0  0  0  0  0  0  0  0  0  0
   -4.4297   -7.8763   -0.0000 C   0  0  0  0  0  0  0  0  0  0  0  0
   -6.6801   -9.1673   -0.0000 C   0  0  0  0  0  0  0  0  0  0  0  0
  -11.8914   -5.0456   -0.0000 C   0  0  0  0  0  0  0  0  0  0  0  0
  -10.5886   -7.2959   -0.0000 C   0  0  0  0  0  0  0  0  0  0  0  0
   -3.6835   -9.1555   -0.0000 C   0  0  0  0  0  0  0  0  0  0  0  0
   -5.9457  -10.4583   -0.0000 C   0  0  0  0  0  0  0  0  0  0  0  0
  -11.9033   -6.5379   -0.0000 C   0  0  0  0  0  0  0  0  0  0  0  0
   -2.2148   -9.4634   -0.0000 O   0  0  0  0  0  0  0  0  0  0  0  0
   -4.4534  -10.4465   -0.0000 C   0  0  0  0  0  0  0  0  0  0  0  0
  -13.2180   -7.2723   -0.0000 N   0  0  0  0  0  0  0  0  0  0  0  0
   -2.0727  -10.9558   -0.0000 C   0  0  0  0  0  0  0  0  0  0  0  0
   -3.4585  -11.5598   -0.0000 N   0  0  0  0  0  0  0  0  0  0  0  0
  -14.5327   -6.5024   -0.0000 C   0  0  0  0  0  0  0  0  0  0  0  0
  -13.2298   -8.7646   -0.0000 C   0  0  0  0  0  0  0  0  0  0  0  0
   -0.7817  -11.7019   -0.0000 O   0  0  0  0  0  0  0  0  0  0  0  0
  -15.8474   -7.2367   -0.0000 C   0  0  0  0  0  0  0  0  0  0  0  0
  -14.5445   -9.4989   -0.0000 C   0  0  0  0  0  0  0  0  0  0  0  0
  -15.8592   -8.7291   -0.0000 C   0  0  0  0  0  0  0  0  0  0  0  0
  1  2  2  0  0  0  0
  2  3  1  0  0  0  0
  2  4  1  0  0  0  0
  3  5  1  0  0  0  0
  3  6  1  0  0  0  0
  4  7  1  0  0  0  0
  5  8  1  0  0  0  0
  5  9  1  0  0  0  0
  6 10  1  0  0  0  0
  7 11  1  0  0  0  0
  8 12  1  0  0  0  0
  9 13  1  0  0  0  0
 10 14  1  0  0  0  0
 11 15  2  0  0  0  0
 12 16  1  0  0  0  0
 14 17  2  0  0  0  0
 16 18  1  0  0  0  0
 18 19  2  0  0  0  0
 18 20  1  0  0  0  0
 21 20  1  1  0  0  0
 21 22  1  0  0  0  0
 21 23  1  0  0  0  0
 22 24  2  0  0  0  0
 22 25  1  0  0  0  0
 23 26  1  0  0  0  0
 25 27  1  0  0  0  0
 25 28  1  0  0  0  0
 26 29  2  0  0  0  0
 26 30  1  0  0  0  0
 27 31  1  0  0  0  0
 28 32  1  0  0  0  0
 29 33  1  0  0  0  0
 30 34  2  0  0  0  0
 31 35  1  0  0  0  0
 33 36  1  0  0  0  0
 33 37  2  0  0  0  0
 35 38  1  0  0  0  0
 36 39  1  0  0  0  0
 37 40  1  0  0  0  0
 38 41  1  0  0  0  0
 38 42  1  0  0  0  0
 39 43  2  0  0  0  0
 41 44  1  0  0  0  0
 42 45  1  0  0  0  0
 44 46  1  0  0  0  0
  7 10  2  0  0  0  0
 13 16  1  0  0  0  0
 15 17  1  0  0  0  0
 32 35  1  0  0  0  0
 34 37  1  0  0  0  0
 39 40  1  0  0  0  0
 45 46  1  0  0  0  0
M  END
>  <MolRegNo>
1355629

>  <m>
=

>  <Value>
30000

>  <Unit>
nM

>  <Type>
IC50

>  <pValue>
4.52

>  <Ligand Efficiency>
0

>  <Binding Efficiency>
0

>  <Surface Efficiency>
0

>  <Assay Index>
664538

>  <Assay Category>


>  <Assay Organism>
Homo sapiens

>  <Target ID>
17045

>  <Target Name>
Cytochrome P450 3A4

>  <Target Organism>
Homo sapiens

>  <Target Description>
Target is a single protein chain

>  <Sequence Accession>
P08684

>  <Reference>
Bioorg Med Chem Lett 22 (14), 4723-4727 (2012)

>  <Pubmed ID>
22727645

>  <DOI>
10.1016/j.bmcl.2012.05.074

$$$$
1355653
Actelion Java MolfileCreator 1.0

 46 52  0  0  0  0  0  0  0  0999 V2000
    0.0000   -0.0000   -0.0000 O   0  0  0  0  0  0  0  0  0  0  0  0
    1.2910   -0.7462   -0.0000 C   0  0  0  0  0  0  0  0  0  0  0  0
    1.2792   -2.2267   -0.0000 N   0  0  0  0  0  0  0  0  0  0  0  0
    2.5939   -0.0000   -0.0000 N   0  0  0  0  0  0  0  0  0  0  0  0
   -0.0355   -2.9610   -0.0000 C   0  0  0  0  0  0  0  0  0  0  0  0
    2.5583   -2.9847   -0.0000 C   0  0  0  0  0  0  0  0  0  0  0  0
    3.8730   -0.7580   -0.0000 C   0  0  0  0  0  0  0  0  0  0  0  0
   -0.0592   -4.4534   -0.0000 C   0  0  0  0  0  0  0  0  0  0  0  0
   -1.3502   -2.1912   -0.0000 C   0  0  0  0  0  0  0  0  0  0  0  0
    3.8493   -2.2385   -0.0000 C   0  0  0  0  0  0  0  0  0  0  0  0
    5.1640   -0.0118   -0.0000 C   0  0  0  0  0  0  0  0  0  0  0  0
   -1.3739   -5.1877   -0.0000 C   0  0  0  0  0  0  0  0  0  0  0  0
   -2.6768   -2.9255   -0.0000 C   0  0  0  0  0  0  0  0  0  0  0  0
    5.1285   -2.9965   -0.0000 C   0  0  0  0  0  0  0  0  0  0  0  0
    6.4432   -0.7580   -0.0000 C   0  0  0  0  0  0  0  0  0  0  0  0
   -2.6886   -4.4060   -0.0000 N   0  0  0  0  0  0  0  0  0  0  0  0
    6.4313   -2.2504   -0.0000 C   0  0  0  0  0  0  0  0  0  0  0  0
   -4.0033   -5.1403   -0.0000 C   0  0  0  0  0  0  0  0  0  0  0  0
   -4.0151   -6.6327   -0.0000 O   0  0  0  0  0  0  0  0  0  0  0  0
   -5.3180   -4.3705   -0.0000 N   0  0  0  0  0  0  0  0  0  0  0  0
   -6.6327   -5.1048   -0.0000 C   0  0  0  0  0  0  0  0  0  0  0  0
   -7.9474   -4.3349   -0.0000 C   0  0  0  0  0  0  0  0  0  0  0  0
   -6.6445   -6.5971   -0.0000 C   0  0  0  0  0  0  0  0  0  0  0  0
   -7.9592   -2.8189   -0.0000 O   0  0  0  0  0  0  0  0  0  0  0  0
   -9.2621   -5.0693   -0.0000 N   0  0  0  0  0  0  0  0  0  0  0  0
   -5.9102   -7.8881   -0.0000 C   0  0  0  0  0  0  0  0  0  0  0  0
  -10.5768   -4.2994   -0.0000 C   0  0  0  0  0  0  0  0  0  0  0  0
   -9.2739   -6.5616   -0.0000 C   0  0  0  0  0  0  0  0  0  0  0  0
   -4.4297   -7.8763   -0.0000 C   0  0  0  0  0  0  0  0  0  0  0  0
   -6.6801   -9.1673   -0.0000 C   0  0  0  0  0  0  0  0  0  0  0  0
  -11.8914   -5.0456   -0.0000 C   0  0  0  0  0  0  0  0  0  0  0  0
  -10.5886   -7.2959   -0.0000 C   0  0  0  0  0  0  0  0  0  0  0  0
   -3.6835   -9.1555   -0.0000 C   0  0  0  0  0  0  0  0  0  0  0  0
   -5.9457  -10.4583   -0.0000 C   0  0  0  0  0  0  0  0  0  0  0  0
  -11.9033   -6.5379   -0.0000 C   0  0  0  0  0  0  0  0  0  0  0  0
   -4.4534  -10.4465   -0.0000 C   0  0  0  0  0  0  0  0  0  0  0  0
   -2.2148   -9.4634   -0.0000 C   0  0  0  0  0  0  0  0  0  0  0  0
  -13.2180   -7.2723   -0.0000 N   0  0  0  0  0  0  0  0  0  0  0  0
   -3.4585  -11.5598   -0.0000 N   0  0  0  0  0  0  0  0  0  0  0  0
   -2.0727  -10.9558   -0.0000 C   0  0  0  0  0  0  0  0  0  0  0  0
  -14.5327   -6.5024   -0.0000 C   0  0  0  0  0  0  0  0  0  0  0  0
  -13.2298   -8.7646   -0.0000 C   0  0  0  0  0  0  0  0  0  0  0  0
   -0.7817  -11.7019   -0.0000 O   0  0  0  0  0  0  0  0  0  0  0  0
  -15.8474   -7.2367   -0.0000 C   0  0  0  0  0  0  0  0  0  0  0  0
  -14.5445   -9.4989   -0.0000 C   0  0  0  0  0  0  0  0  0  0  0  0
  -15.8592   -8.7291   -0.0000 C   0  0  0  0  0  0  0  0  0  0  0  0
  1  2  2  0  0  0  0
  2  3  1  0  0  0  0
  2  4  1  0  0  0  0
  3  5  1  0  0  0  0
  3  6  1  0  0  0  0
  4  7  1  0  0  0  0
  5  8  1  0  0  0  0
  5  9  1  0  0  0  0
  6 10  1  0  0  0  0
  7 11  1  0  0  0  0
  8 12  1  0  0  0  0
  9 13  1  0  0  0  0
 10 14  1  0  0  0  0
 11 15  2  0  0  0  0
 12 16  1  0  0  0  0
 14 17  2  0  0  0  0
 16 18  1  0  0  0  0
 18 19  2  0  0  0  0
 18 20  1  0  0  0  0
 21 20  1  1  0  0  0
 21 22  1  0  0  0  0
 21 23  1  0  0  0  0
 22 24  2  0  0  0  0
 22 25  1  0  0  0  0
 23 26  1  0  0  0  0
 25 27  1  0  0  0  0
 25 28  1  0  0  0  0
 26 29  2  0  0  0  0
 26 30  1  0  0  0  0
 27 31  1  0  0  0  0
 28 32  1  0  0  0  0
 29 33  1  0  0  0  0
 30 34  2  0  0  0  0
 31 35  1  0  0  0  0
 33 36  2  0  0  0  0
 33 37  1  0  0  0  0
 35 38  1  0  0  0  0
 36 39  1  0  0  0  0
 37 40  1  0  0  0  0
 38 41  1  0  0  0  0
 38 42  1  0  0  0  0
 40 43  2  0  0  0  0
 41 44  1  0  0  0  0
 42 45  1  0  0  0  0
 44 46  1  0  0  0  0
  7 10  2  0  0  0  0
 13 16  1  0  0  0  0
 15 17  1  0  0  0  0
 32 35  1  0  0  0  0
 34 36  1  0  0  0  0
 39 40  1  0  0  0  0
 45 46  1  0  0  0  0
M  END
>  <MolRegNo>
1355653

>  <m>
=

>  <Value>
11000

>  <Unit>
nM

>  <Type>
IC50

>  <pValue>
4.96

>  <Ligand Efficiency>
0

>  <Binding Efficiency>
0

>  <Surface Efficiency>
0

>  <Assay Index>
664538

>  <Assay Category>


>  <Assay Organism>
Homo sapiens

>  <Target ID>
17045

>  <Target Name>
Cytochrome P450 3A4

>  <Target Organism>
Homo sapiens

>  <Target Description>
Target is a single protein chain

>  <Sequence Accession>
P08684

>  <Reference>
Bioorg Med Chem Lett 22 (14), 4723-4727 (2012)

>  <Pubmed ID>
22727645

>  <DOI>
10.1016/j.bmcl.2012.05.074

$$$$
1355654
Actelion Java MolfileCreator 1.0

 45 51  0  0  0  0  0  0  0  0999 V2000
    0.0000   -0.0000   -0.0000 O   0  0  0  0  0  0  0  0  0  0  0  0
    1.2916   -0.7465   -0.0000 C   0  0  0  0  0  0  0  0  0  0  0  0
    1.2797   -2.2276   -0.0000 N   0  0  0  0  0  0  0  0  0  0  0  0
    2.5950    0.0118   -0.0000 N   0  0  0  0  0  0  0  0  0  0  0  0
   -0.0355   -2.9504   -0.0000 C   0  0  0  0  0  0  0  0  0  0  0  0
    2.5594   -2.9741   -0.0000 C   0  0  0  0  0  0  0  0  0  0  0  0
    3.8865   -0.7465   -0.0000 C   0  0  0  0  0  0  0  0  0  0  0  0
   -0.0592   -4.4434   -0.0000 C   0  0  0  0  0  0  0  0  0  0  0  0
   -1.3508   -2.1802   -0.0000 C   0  0  0  0  0  0  0  0  0  0  0  0
    3.8510   -2.2276   -0.0000 C   0  0  0  0  0  0  0  0  0  0  0  0
    5.1781   -0.0000   -0.0000 C   0  0  0  0  0  0  0  0  0  0  0  0
   -1.3745   -5.1781   -0.0000 C   0  0  0  0  0  0  0  0  0  0  0  0
   -2.6779   -2.9149   -0.0000 C   0  0  0  0  0  0  0  0  0  0  0  0
    5.1307   -2.9860   -0.0000 C   0  0  0  0  0  0  0  0  0  0  0  0
    6.4459   -0.7583   -0.0000 C   0  0  0  0  0  0  0  0  0  0  0  0
   -2.6898   -4.3960   -0.0000 N   0  0  0  0  0  0  0  0  0  0  0  0
    6.4222   -2.2395   -0.0000 C   0  0  0  0  0  0  0  0  0  0  0  0
   -4.0050   -5.1307   -0.0000 C   0  0  0  0  0  0  0  0  0  0  0  0
   -4.0169   -6.6237   -0.0000 O   0  0  0  0  0  0  0  0  0  0  0  0
   -5.3084   -4.3723   -0.0000 N   0  0  0  0  0  0  0  0  0  0  0  0
   -6.6237   -5.1070   -0.0000 C   0  0  0  0  0  0  0  0  0  0  0  0
   -7.9389   -4.3486   -0.0000 C   0  0  0  0  0  0  0  0  0  0  0  0
   -6.6355   -6.6000   -0.0000 C   0  0  0  0  0  0  0  0  0  0  0  0
   -7.9508   -2.8319   -0.0000 O   0  0  0  0  0  0  0  0  0  0  0  0
   -9.2542   -5.0833   -0.0000 N   0  0  0  0  0  0  0  0  0  0  0  0
   -5.9127   -7.8915   -0.0000 C   0  0  0  0  0  0  0  0  0  0  0  0
  -10.5694   -4.3131   -0.0000 C   0  0  0  0  0  0  0  0  0  0  0  0
   -9.2660   -6.5763   -0.0000 C   0  0  0  0  0  0  0  0  0  0  0  0
   -4.4316   -7.8797   -0.0000 C   0  0  0  0  0  0  0  0  0  0  0  0
   -6.6829   -9.1712   -0.0000 C   0  0  0  0  0  0  0  0  0  0  0  0
  -11.8847   -5.0596   -0.0000 C   0  0  0  0  0  0  0  0  0  0  0  0
  -10.5813   -7.3109   -0.0000 C   0  0  0  0  0  0  0  0  0  0  0  0
   -3.6851   -9.1712   -0.0000 C   0  0  0  0  0  0  0  0  0  0  0  0
   -5.9601  -10.4628   -0.0000 C   0  0  0  0  0  0  0  0  0  0  0  0
  -11.8965   -6.5526   -0.0000 C   0  0  0  0  0  0  0  0  0  0  0  0
   -2.2158   -9.4793   -0.0000 N   0  0  0  0  0  0  0  0  0  0  0  0
   -4.4553  -10.4746   -0.0000 C   0  0  0  0  0  0  0  0  0  0  0  0
  -13.2118   -7.2872   -0.0000 N   0  0  0  0  0  0  0  0  0  0  0  0
   -2.0736  -10.9723   -0.0000 N   0  0  0  0  0  0  0  0  0  0  0  0
   -3.4481  -11.5884   -0.0000 N   0  0  0  0  0  0  0  0  0  0  0  0
  -14.5270   -6.5170   -0.0000 C   0  0  0  0  0  0  0  0  0  0  0  0
  -13.2236   -8.7802   -0.0000 C   0  0  0  0  0  0  0  0  0  0  0  0
  -15.8304   -7.2517   -0.0000 C   0  0  0  0  0  0  0  0  0  0  0  0
  -14.5507   -9.5149   -0.0000 C   0  0  0  0  0  0  0  0  0  0  0  0
  -15.8423   -8.7447   -0.0000 C   0  0  0  0  0  0  0  0  0  0  0  0
  1  2  2  0  0  0  0
  2  3  1  0  0  0  0
  2  4  1  0  0  0  0
  3  5  1  0  0  0  0
  3  6  1  0  0  0  0
  4  7  1  0  0  0  0
  5  8  1  0  0  0  0
  5  9  1  0  0  0  0
  6 10  1  0  0  0  0
  7 11  1  0  0  0  0
  8 12  1  0  0  0  0
  9 13  1  0  0  0  0
 10 14  1  0  0  0  0
 11 15  2  0  0  0  0
 12 16  1  0  0  0  0
 14 17  2  0  0  0  0
 16 18  1  0  0  0  0
 18 19  2  0  0  0  0
 18 20  1  0  0  0  0
 21 20  1  1  0  0  0
 21 22  1  0  0  0  0
 21 23  1  0  0  0  0
 22 24  2  0  0  0  0
 22 25  1  0  0  0  0
 23 26  1  0  0  0  0
 25 27  1  0  0  0  0
 25 28  1  0  0  0  0
 26 29  2  0  0  0  0
 26 30  1  0  0  0  0
 27 31  1  0  0  0  0
 28 32  1  0  0  0  0
 29 33  1  0  0  0  0
 30 34  2  0  0  0  0
 31 35  1  0  0  0  0
 33 36  1  0  0  0  0
 33 37  2  0  0  0  0
 35 38  1  0  0  0  0
 36 39  2  0  0  0  0
 37 40  1  0  0  0  0
 38 41  1  0  0  0  0
 38 42  1  0  0  0  0
 41 43  1  0  0  0  0
 42 44  1  0  0  0  0
 43 45  1  0  0  0  0
  7 10  2  0  0  0  0
 13 16  1  0  0  0  0
 15 17  1  0  0  0  0
 32 35  1  0  0  0  0
 34 37  1  0  0  0  0
 39 40  1  0  0  0  0
 44 45  1  0  0  0  0
M  END
>  <MolRegNo>
1355654

>  <m>
=

>  <Value>
23000

>  <Unit>
nM

>  <Type>
IC50

>  <pValue>
4.64

>  <Ligand Efficiency>
0

>  <Binding Efficiency>
0

>  <Surface Efficiency>
0

>  <Assay Index>
664538

>  <Assay Category>


>  <Assay Organism>
Homo sapiens

>  <Target ID>
17045

>  <Target Name>
Cytochrome P450 3A4

>  <Target Organism>
Homo sapiens

>  <Target Description>
Target is a single protein chain

>  <Sequence Accession>
P08684

>  <Reference>
Bioorg Med Chem Lett 22 (14), 4723-4727 (2012)

>  <Pubmed ID>
22727645

>  <DOI>
10.1016/j.bmcl.2012.05.074

$$$$
1355656
Actelion Java MolfileCreator 1.0

 44 50  0  0  0  0  0  0  0  0999 V2000
    0.0000   -0.0000   -0.0000 S   0  0  0  0  0  0  0  0  0  0  0  0
    1.2879   -0.7393   -0.0000 C   0  0  0  0  0  0  0  0  0  0  0  0
   -1.1328   -0.9778   -0.0000 C   0  0  0  0  0  0  0  0  0  0  0  0
    0.9420   -2.1941   -0.0000 C   0  0  0  0  0  0  0  0  0  0  0  0
    2.6950   -0.2743   -0.0000 C   0  0  0  0  0  0  0  0  0  0  0  0
   -0.5366   -2.3491   -0.0000 C   0  0  0  0  0  0  0  0  0  0  0  0
    2.0391   -3.1958   -0.0000 C   0  0  0  0  0  0  0  0  0  0  0  0
    3.7920   -1.2759   -0.0000 C   0  0  0  0  0  0  0  0  0  0  0  0
   -1.2998   -3.6370   -0.0000 C   0  0  0  0  0  0  0  0  0  0  0  0
    3.4581   -2.7307   -0.0000 C   0  0  0  0  0  0  0  0  0  0  0  0
   -2.8142   -3.6251   -0.0000 C   0  0  0  0  0  0  0  0  0  0  0  0
   -3.5774   -4.9248   -0.0000 N   0  0  0  0  0  0  0  0  0  0  0  0
   -3.5774   -2.3134   -0.0000 C   0  0  0  0  0  0  0  0  0  0  0  0
   -2.8380   -6.2127   -0.0000 C   0  0  0  0  0  0  0  0  0  0  0  0
   -2.8380   -1.0017   -0.0000 O   0  0  0  0  0  0  0  0  0  0  0  0
   -5.0918   -2.3014   -0.0000 N   0  0  0  0  0  0  0  0  0  0  0  0
   -1.3356   -6.2008   -0.0000 O   0  0  0  0  0  0  0  0  0  0  0  0
   -3.6012   -7.5006   -0.0000 N   0  0  0  0  0  0  0  0  0  0  0  0
   -5.8430   -0.9778   -0.0000 C   0  0  0  0  0  0  0  0  0  0  0  0
   -5.8430   -3.5893   -0.0000 C   0  0  0  0  0  0  0  0  0  0  0  0
   -2.8619   -8.7765   -0.0000 C   0  0  0  0  0  0  0  0  0  0  0  0
   -5.1037   -7.4886   -0.0000 C   0  0  0  0  0  0  0  0  0  0  0  0
   -7.3575   -0.9659   -0.0000 C   0  0  0  0  0  0  0  0  0  0  0  0
   -7.3694   -3.5774   -0.0000 C   0  0  0  0  0  0  0  0  0  0  0  0
   -3.6131  -10.0524   -0.0000 C   0  0  0  0  0  0  0  0  0  0  0  0
   -5.8550   -8.7765   -0.0000 C   0  0  0  0  0  0  0  0  0  0  0  0
   -8.1206   -2.2418   -0.0000 C   0  0  0  0  0  0  0  0  0  0  0  0
   -5.1276  -10.0524   -0.0000 C   0  0  0  0  0  0  0  0  0  0  0  0
   -9.6351   -2.2299   -0.0000 N   0  0  0  0  0  0  0  0  0  0  0  0
   -5.8907  -11.3403   -0.0000 N   0  0  0  0  0  0  0  0  0  0  0  0
  -10.3982   -0.9063   -0.0000 C   0  0  0  0  0  0  0  0  0  0  0  0
  -10.4102   -3.5177   -0.0000 C   0  0  0  0  0  0  0  0  0  0  0  0
   -7.4052  -11.4834   -0.0000 C   0  0  0  0  0  0  0  0  0  0  0  0
   -5.2945  -12.6997   -0.0000 C   0  0  0  0  0  0  0  0  0  0  0  0
  -11.9126   -0.8824   -0.0000 C   0  0  0  0  0  0  0  0  0  0  0  0
  -11.9365   -3.4939   -0.0000 C   0  0  0  0  0  0  0  0  0  0  0  0
   -8.4307  -10.3625   -0.0000 O   0  0  0  0  0  0  0  0  0  0  0  0
   -7.7271  -12.9501   -0.0000 N   0  0  0  0  0  0  0  0  0  0  0  0
   -6.4154  -13.7013   -0.0000 C   0  0  0  0  0  0  0  0  0  0  0  0
   -3.8874  -13.1409   -0.0000 C   0  0  0  0  0  0  0  0  0  0  0  0
  -12.6877   -2.1703   -0.0000 C   0  0  0  0  0  0  0  0  0  0  0  0
   -6.1173  -15.1323   -0.0000 C   0  0  0  0  0  0  0  0  0  0  0  0
   -3.5774  -14.5957   -0.0000 C   0  0  0  0  0  0  0  0  0  0  0  0
   -4.7102  -15.5854   -0.0000 C   0  0  0  0  0  0  0  0  0  0  0  0
  1  2  1  0  0  0  0
  1  3  1  0  0  0  0
  2  4  2  0  0  0  0
  2  5  1  0  0  0  0
  3  6  2  0  0  0  0
  4  7  1  0  0  0  0
  5  8  2  0  0  0  0
  6  9  1  0  0  0  0
  7 10  2  0  0  0  0
  9 11  1  0  0  0  0
 11 12  1  6  0  0  0
 11 13  1  0  0  0  0
 12 14  1  0  0  0  0
 13 15  2  0  0  0  0
 13 16  1  0  0  0  0
 14 17  2  0  0  0  0
 14 18  1  0  0  0  0
 16 19  1  0  0  0  0
 16 20  1  0  0  0  0
 18 21  1  0  0  0  0
 18 22  1  0  0  0  0
 19 23  1  0  0  0  0
 20 24  1  0  0  0  0
 21 25  1  0  0  0  0
 22 26  1  0  0  0  0
 23 27  1  0  0  0  0
 25 28  1  0  0  0  0
 27 29  1  0  0  0  0
 28 30  1  0  0  0  0
 29 31  1  0  0  0  0
 29 32  1  0  0  0  0
 30 33  1  0  0  0  0
 30 34  1  0  0  0  0
 31 35  1  0  0  0  0
 32 36  1  0  0  0  0
 33 37  2  0  0  0  0
 33 38  1  0  0  0  0
 34 39  2  0  0  0  0
 34 40  1  0  0  0  0
 35 41  1  0  0  0  0
 39 42  1  0  0  0  0
 40 43  2  0  0  0  0
 42 44  2  0  0  0  0
  4  6  1  0  0  0  0
  8 10  1  0  0  0  0
 24 27  1  0  0  0  0
 26 28  1  0  0  0  0
 36 41  1  0  0  0  0
 38 39  1  0  0  0  0
 43 44  1  0  0  0  0
M  END
>  <MolRegNo>
1355656

>  <m>
=

>  <Value>
84

>  <Unit>
nM

>  <Type>
IC50

>  <pValue>
7.08

>  <Ligand Efficiency>
0

>  <Binding Efficiency>
0

>  <Surface Efficiency>
0

>  <Assay Index>
664538

>  <Assay Category>


>  <Assay Organism>
Homo sapiens

>  <Target ID>
17045

>  <Target Name>
Cytochrome P450 3A4

>  <Target Organism>
Homo sapiens

>  <Target Description>
Target is a single protein chain

>  <Sequence Accession>
P08684

>  <Reference>
Bioorg Med Chem Lett 22 (14), 4723-4727 (2012)

>  <Pubmed ID>
22727645

>  <DOI>
10.1016/j.bmcl.2012.05.074

$$$$
1355682
Actelion Java MolfileCreator 1.0

 44 50  0  0  0  0  0  0  0  0999 V2000
    0.0000   -0.0000   -0.0000 S   0  0  0  0  0  0  0  0  0  0  0  0
   -1.0703   -1.0466   -0.0000 C   0  0  0  0  0  0  0  0  0  0  0  0
   -0.6898    1.3439   -0.0000 C   0  0  0  0  0  0  0  0  0  0  0  0
   -2.4023   -0.3568   -0.0000 C   0  0  0  0  0  0  0  0  0  0  0  0
   -1.0109   -2.5094   -0.0000 C   0  0  0  0  0  0  0  0  0  0  0  0
   -2.1883    1.1298   -0.0000 C   0  0  0  0  0  0  0  0  0  0  0  0
   -3.6629   -1.1536   -0.0000 C   0  0  0  0  0  0  0  0  0  0  0  0
   -2.2596   -3.3062   -0.0000 C   0  0  0  0  0  0  0  0  0  0  0  0
   -3.2586    2.2001   -0.0000 C   0  0  0  0  0  0  0  0  0  0  0  0
   -3.6035   -2.6283   -0.0000 C   0  0  0  0  0  0  0  0  0  0  0  0
   -3.2705    3.7224   -0.0000 C   0  0  0  0  0  0  0  0  0  0  0  0
   -1.9742    4.4835   -0.0000 N   0  0  0  0  0  0  0  0  0  0  0  0
   -4.5906    4.4835   -0.0000 C   0  0  0  0  0  0  0  0  0  0  0  0
   -0.6779    3.7462   -0.0000 C   0  0  0  0  0  0  0  0  0  0  0  0
   -4.6025    6.0058   -0.0000 O   0  0  0  0  0  0  0  0  0  0  0  0
   -5.9107    3.7462   -0.0000 N   0  0  0  0  0  0  0  0  0  0  0  0
   -0.6898    2.2477   -0.0000 O   0  0  0  0  0  0  0  0  0  0  0  0
    0.6184    4.5073   -0.0000 N   0  0  0  0  0  0  0  0  0  0  0  0
   -7.2307    4.5192   -0.0000 C   0  0  0  0  0  0  0  0  0  0  0  0
   -5.9226    2.2596   -0.0000 C   0  0  0  0  0  0  0  0  0  0  0  0
    1.9028    3.7581   -0.0000 C   0  0  0  0  0  0  0  0  0  0  0  0
    0.6065    6.0177   -0.0000 C   0  0  0  0  0  0  0  0  0  0  0  0
   -8.5389    3.7819   -0.0000 C   0  0  0  0  0  0  0  0  0  0  0  0
   -7.2426    1.5223   -0.0000 C   0  0  0  0  0  0  0  0  0  0  0  0
    3.1872    4.5192   -0.0000 C   0  0  0  0  0  0  0  0  0  0  0  0
    1.9028    6.7788   -0.0000 C   0  0  0  0  0  0  0  0  0  0  0  0
   -8.5627    2.2834   -0.0000 C   0  0  0  0  0  0  0  0  0  0  0  0
    3.1753    6.0415   -0.0000 C   0  0  0  0  0  0  0  0  0  0  0  0
   -9.8828    1.5460   -0.0000 N   0  0  0  0  0  0  0  0  0  0  0  0
    3.1635    7.5518   -0.0000 N   0  0  0  0  0  0  0  0  0  0  0  0
    4.4598    5.3041   -0.0000 C   0  0  0  0  0  0  0  0  0  0  0  0
  -11.1910    2.3191   -0.0000 C   0  0  0  0  0  0  0  0  0  0  0  0
   -9.8947    0.0595   -0.0000 C   0  0  0  0  0  0  0  0  0  0  0  0
    4.4598    8.3130   -0.0000 C   0  0  0  0  0  0  0  0  0  0  0  0
    5.7442    6.0534   -0.0000 C   0  0  0  0  0  0  0  0  0  0  0  0
    4.4479    3.8294   -0.0000 C   0  0  0  0  0  0  0  0  0  0  0  0
  -12.4992    1.5936   -0.0000 C   0  0  0  0  0  0  0  0  0  0  0  0
  -11.2148   -0.6779   -0.0000 C   0  0  0  0  0  0  0  0  0  0  0  0
    4.4479    9.8352   -0.0000 O   0  0  0  0  0  0  0  0  0  0  0  0
    5.7442    7.5756   -0.0000 N   0  0  0  0  0  0  0  0  0  0  0  0
    7.0167    5.3279   -0.0000 C   0  0  0  0  0  0  0  0  0  0  0  0
    5.7204    3.0921   -0.0000 C   0  0  0  0  0  0  0  0  0  0  0  0
  -12.5230    0.0951   -0.0000 C   0  0  0  0  0  0  0  0  0  0  0  0
    7.0048    3.8532   -0.0000 C   0  0  0  0  0  0  0  0  0  0  0  0
  1  2  1  0  0  0  0
  1  3  1  0  0  0  0
  2  4  2  0  0  0  0
  2  5  1  0  0  0  0
  3  6  2  0  0  0  0
  4  7  1  0  0  0  0
  5  8  2  0  0  0  0
  6  9  1  0  0  0  0
  7 10  2  0  0  0  0
  9 11  1  0  0  0  0
 11 12  1  1  0  0  0
 11 13  1  0  0  0  0
 12 14  1  0  0  0  0
 13 15  2  0  0  0  0
 13 16  1  0  0  0  0
 14 17  2  0  0  0  0
 14 18  1  0  0  0  0
 16 19  1  0  0  0  0
 16 20  1  0  0  0  0
 18 21  1  0  0  0  0
 18 22  1  0  0  0  0
 19 23  1  0  0  0  0
 20 24  1  0  0  0  0
 21 25  1  0  0  0  0
 22 26  1  0  0  0  0
 23 27  1  0  0  0  0
 25 28  1  0  0  0  0
 27 29  1  0  0  0  0
 28 30  1  0  0  0  0
 28 31  1  0  0  0  0
 29 32  1  0  0  0  0
 29 33  1  0  0  0  0
 30 34  1  0  0  0  0
 31 35  2  0  0  0  0
 31 36  1  0  0  0  0
 32 37  1  0  0  0  0
 33 38  1  0  0  0  0
 34 39  2  0  0  0  0
 34 40  1  0  0  0  0
 35 41  1  0  0  0  0
 36 42  2  0  0  0  0
 37 43  1  0  0  0  0
 41 44  2  0  0  0  0
  4  6  1  0  0  0  0
  8 10  1  0  0  0  0
 24 27  1  0  0  0  0
 26 28  1  0  0  0  0
 35 40  1  0  0  0  0
 38 43  1  0  0  0  0
 42 44  1  0  0  0  0
M  END
>  <MolRegNo>
1355682

>  <m>
=

>  <Value>
100

>  <Unit>
nM

>  <Type>
IC50

>  <pValue>
7

>  <Ligand Efficiency>
0

>  <Binding Efficiency>
0

>  <Surface Efficiency>
0

>  <Assay Index>
664549

>  <Assay Category>


>  <Assay Organism>
Homo sapiens

>  <Target ID>
17045

>  <Target Name>
Cytochrome P450 3A4

>  <Target Organism>
Homo sapiens

>  <Target Description>
Target is a single protein chain

>  <Sequence Accession>
P08684

>  <Reference>
Bioorg Med Chem Lett 22 (14), 4719-4722 (2012)

>  <Pubmed ID>
22732695

>  <DOI>
10.1016/j.bmcl.2012.05.118

$$$$
1356199
Actelion Java MolfileCreator 1.0

 38 43  0  0  0  0  0  0  0  0999 V2000
    0.0000   -0.0000   -0.0000 S   0  0  0  0  0  0  0  0  0  0  0  0
    1.0436    0.6237   -0.0000 O   0  0  0  0  0  0  0  0  0  0  0  0
    1.0436   -0.5998   -0.0000 O   0  0  0  0  0  0  0  0  0  0  0  0
   -1.3315    0.7797   -0.0000 C   0  0  0  0  0  0  0  0  0  0  0  0
   -0.0120   -1.2115   -0.0000 C   0  0  0  0  0  0  0  0  0  0  0  0
   -1.3434    2.3150   -0.0000 C   0  0  0  0  0  0  0  0  0  0  0  0
   -2.6629    0.0360   -0.0000 C   0  0  0  0  0  0  0  0  0  0  0  0
   -2.6749    3.0947   -0.0000 C   0  0  0  0  0  0  0  0  0  0  0  0
   -3.9944    0.8157   -0.0000 C   0  0  0  0  0  0  0  0  0  0  0  0
   -4.0063    2.3510   -0.0000 C   0  0  0  0  0  0  0  0  0  0  0  0
   -5.3378    3.1187   -0.0000 C   0  0  0  0  0  0  0  0  0  0  0  0
   -6.6692    2.3750   -0.0000 C   0  0  0  0  0  0  0  0  0  0  0  0
   -5.3498    4.6541   -0.0000 C   0  0  0  0  0  0  0  0  0  0  0  0
   -6.9931    0.8996   -0.0000 N   0  0  0  0  0  0  0  0  0  0  0  0
   -8.0007    3.1427   -0.0000 N   0  0  0  0  0  0  0  0  0  0  0  0
   -6.6812    5.4218   -0.0000 C   0  0  0  0  0  0  0  0  0  0  0  0
   -8.5165    0.7557   -0.0000 C   0  0  0  0  0  0  0  0  0  0  0  0
   -9.1402    2.1351   -0.0000 N   0  0  0  0  0  0  0  0  0  0  0  0
   -8.0127    4.6781   -0.0000 C   0  0  0  0  0  0  0  0  0  0  0  0
   -9.2842   -0.5518   -0.0000 N   0  0  0  0  0  0  0  0  0  0  0  0
   -8.5285   -1.8592   -0.0000 C   0  0  0  0  0  0  0  0  0  0  0  0
   -7.0171   -1.8472   -0.0000 C   0  0  0  0  0  0  0  0  0  0  0  0
   -9.2962   -3.1667   -0.0000 C   0  0  0  0  0  0  0  0  0  0  0  0
   -6.2614   -3.1547   -0.0000 C   0  0  0  0  0  0  0  0  0  0  0  0
   -8.5405   -4.4742   -0.0000 C   0  0  0  0  0  0  0  0  0  0  0  0
   -4.7500   -3.1427   -0.0000 N   0  0  0  0  0  0  0  0  0  0  0  0
   -7.0291   -4.4622   -0.0000 C   0  0  0  0  0  0  0  0  0  0  0  0
   -3.9944   -4.4502   -0.0000 C   0  0  0  0  0  0  0  0  0  0  0  0
   -4.0063   -1.8113   -0.0000 C   0  0  0  0  0  0  0  0  0  0  0  0
   -2.4830   -4.4262   -0.0000 C   0  0  0  0  0  0  0  0  0  0  0  0
   -2.4950   -1.7873   -0.0000 C   0  0  0  0  0  0  0  0  0  0  0  0
   -1.7393   -3.0947   -0.0000 C   0  0  0  0  0  0  0  0  0  0  0  0
   -0.2279   -3.0707   -0.0000 N   0  0  0  0  0  0  0  0  0  0  0  0
    0.5278   -4.3782   -0.0000 C   0  0  0  0  0  0  0  0  0  0  0  0
    0.5158   -1.7393   -0.0000 C   0  0  0  0  0  0  0  0  0  0  0  0
    2.0392   -4.3542   -0.0000 C   0  0  0  0  0  0  0  0  0  0  0  0
    2.0272   -1.7153   -0.0000 C   0  0  0  0  0  0  0  0  0  0  0  0
    2.7829   -3.0228   -0.0000 O   0  0  0  0  0  0  0  0  0  0  0  0
  1  2  2  0  0  0  0
  1  3  2  0  0  0  0
  1  4  1  0  0  0  0
  1  5  1  0  0  0  0
  4  6  2  0  0  0  0
  4  7  1  0  0  0  0
  6  8  1  0  0  0  0
  7  9  2  0  0  0  0
  8 10  2  0  0  0  0
 10 11  1  0  0  0  0
 11 12  1  0  0  0  0
 11 13  2  0  0  0  0
 12 14  2  0  0  0  0
 12 15  1  0  0  0  0
 13 16  1  0  0  0  0
 14 17  1  0  0  0  0
 15 18  1  0  0  0  0
 15 19  1  0  0  0  0
 17 20  1  0  0  0  0
 20 21  1  0  0  0  0
 21 22  2  0  0  0  0
 21 23  1  0  0  0  0
 22 24  1  0  0  0  0
 23 25  2  0  0  0  0
 24 26  1  0  0  0  0
 24 27  2  0  0  0  0
 26 28  1  0  0  0  0
 26 29  1  0  0  0  0
 28 30  1  0  0  0  0
 29 31  1  0  0  0  0
 30 32  1  0  0  0  0
 32 33  1  0  0  0  0
 33 34  1  0  0  0  0
 33 35  1  0  0  0  0
 34 36  1  0  0  0  0
 35 37  1  0  0  0  0
 36 38  1  0  0  0  0
  9 10  1  0  0  0  0
 16 19  2  0  0  0  0
 17 18  2  0  0  0  0
 25 27  1  0  0  0  0
 31 32  1  0  0  0  0
 37 38  1  0  0  0  0
M  END
>  <MolRegNo>
1356199

>  <m>
=

>  <Value>
200

>  <Unit>
nM

>  <Type>
IC50

>  <pValue>
6.7

>  <Ligand Efficiency>
0

>  <Binding Efficiency>
0

>  <Surface Efficiency>
0

>  <Assay Index>
667388

>  <Assay Category>


>  <Assay Organism>
Homo sapiens

>  <Target ID>
17045

>  <Target Name>
Cytochrome P450 3A4

>  <Target Organism>
Homo sapiens

>  <Target Description>
Target is a single protein chain

>  <Sequence Accession>
P08684

>  <Reference>
J Med Chem 55 (11), 5243-5254 (2012)

>  <Pubmed ID>
22594690

>  <DOI>
10.1021/jm300248q

$$$$
1356195
Actelion Java MolfileCreator 1.0

 33 37  0  0  0  0  0  0  0  0999 V2000
    0.0000   -0.0000   -0.0000 S   0  0  0  0  0  0  0  0  0  0  0  0
    1.0496   -0.6032   -0.0000 O   0  0  0  0  0  0  0  0  0  0  0  0
   -0.0121    1.2426   -0.0000 O   0  0  0  0  0  0  0  0  0  0  0  0
   -1.3391   -0.7601   -0.0000 C   0  0  0  0  0  0  0  0  0  0  0  0
    1.0496    0.6273   -0.0000 C   0  0  0  0  0  0  0  0  0  0  0  0
   -1.3512   -2.2802   -0.0000 C   0  0  0  0  0  0  0  0  0  0  0  0
   -2.6783    0.0121   -0.0000 C   0  0  0  0  0  0  0  0  0  0  0  0
   -2.6903   -3.0402   -0.0000 C   0  0  0  0  0  0  0  0  0  0  0  0
   -4.0174   -0.7480   -0.0000 C   0  0  0  0  0  0  0  0  0  0  0  0
   -4.0295   -2.2681   -0.0000 C   0  0  0  0  0  0  0  0  0  0  0  0
   -5.3686   -3.0281   -0.0000 C   0  0  0  0  0  0  0  0  0  0  0  0
   -5.3807   -4.5482   -0.0000 C   0  0  0  0  0  0  0  0  0  0  0  0
   -6.7078   -2.2560   -0.0000 C   0  0  0  0  0  0  0  0  0  0  0  0
   -4.2587   -5.5616   -0.0000 N   0  0  0  0  0  0  0  0  0  0  0  0
   -6.7198   -5.2962   -0.0000 N   0  0  0  0  0  0  0  0  0  0  0  0
   -8.0469   -3.0040   -0.0000 C   0  0  0  0  0  0  0  0  0  0  0  0
   -4.8981   -6.9490   -0.0000 C   0  0  0  0  0  0  0  0  0  0  0  0
   -6.4182   -6.7801   -0.0000 N   0  0  0  0  0  0  0  0  0  0  0  0
   -8.0590   -4.5241   -0.0000 C   0  0  0  0  0  0  0  0  0  0  0  0
   -4.1501   -8.2640   -0.0000 N   0  0  0  0  0  0  0  0  0  0  0  0
   -4.9343   -9.5791   -0.0000 C   0  0  0  0  0  0  0  0  0  0  0  0
   -6.4785   -9.5670   -0.0000 C   0  0  0  0  0  0  0  0  0  0  0  0
   -4.1863  -10.8941   -0.0000 C   0  0  0  0  0  0  0  0  0  0  0  0
   -7.2627  -10.8820   -0.0000 C   0  0  0  0  0  0  0  0  0  0  0  0
   -4.9705  -12.2091   -0.0000 C   0  0  0  0  0  0  0  0  0  0  0  0
   -8.8069  -10.8699   -0.0000 N   0  0  0  0  0  0  0  0  0  0  0  0
   -6.5147  -12.1970   -0.0000 C   0  0  0  0  0  0  0  0  0  0  0  0
   -9.5911  -12.1849   -0.0000 C   0  0  0  0  0  0  0  0  0  0  0  0
   -9.5791   -9.5308   -0.0000 C   0  0  0  0  0  0  0  0  0  0  0  0
  -11.1353  -12.1608   -0.0000 C   0  0  0  0  0  0  0  0  0  0  0  0
  -11.1233   -9.5067   -0.0000 C   0  0  0  0  0  0  0  0  0  0  0  0
  -11.9075  -10.8217   -0.0000 N   0  0  0  0  0  0  0  0  0  0  0  0
  -13.1501  -10.7975   -0.0000 C   0  0  0  0  0  0  0  0  0  0  0  0
  1  2  2  0  0  0  0
  1  3  2  0  0  0  0
  1  4  1  0  0  0  0
  1  5  1  0  0  0  0
  4  6  2  0  0  0  0
  4  7  1  0  0  0  0
  6  8  1  0  0  0  0
  7  9  2  0  0  0  0
  8 10  2  0  0  0  0
 10 11  1  0  0  0  0
 11 12  1  0  0  0  0
 11 13  2  0  0  0  0
 12 14  2  0  0  0  0
 12 15  1  0  0  0  0
 13 16  1  0  0  0  0
 14 17  1  0  0  0  0
 15 18  1  0  0  0  0
 15 19  1  0  0  0  0
 17 20  1  0  0  0  0
 20 21  1  0  0  0  0
 21 22  2  0  0  0  0
 21 23  1  0  0  0  0
 22 24  1  0  0  0  0
 23 25  2  0  0  0  0
 24 26  1  0  0  0  0
 24 27  2  0  0  0  0
 26 28  1  0  0  0  0
 26 29  1  0  0  0  0
 28 30  1  0  0  0  0
 29 31  1  0  0  0  0
 30 32  1  0  0  0  0
 32 33  1  0  0  0  0
  9 10  1  0  0  0  0
 16 19  2  0  0  0  0
 17 18  2  0  0  0  0
 25 27  1  0  0  0  0
 31 32  1  0  0  0  0
M  END
>  <MolRegNo>
1356195

>  <m>
=

>  <Value>
11000

>  <Unit>
nM

>  <Type>
IC50

>  <pValue>
4.96

>  <Ligand Efficiency>
0

>  <Binding Efficiency>
0

>  <Surface Efficiency>
0

>  <Assay Index>
667388

>  <Assay Category>


>  <Assay Organism>
Homo sapiens

>  <Target ID>
17045

>  <Target Name>
Cytochrome P450 3A4

>  <Target Organism>
Homo sapiens

>  <Target Description>
Target is a single protein chain

>  <Sequence Accession>
P08684

>  <Reference>
J Med Chem 55 (11), 5243-5254 (2012)

>  <Pubmed ID>
22594690

>  <DOI>
10.1021/jm300248q

$$$$
1356201
Actelion Java MolfileCreator 1.0

 33 37  0  0  0  0  0  0  0  0999 V2000
    0.0000   -0.0000   -0.0000 S   0  0  0  0  0  0  0  0  0  0  0  0
    1.0496   -0.6032   -0.0000 O   0  0  0  0  0  0  0  0  0  0  0  0
   -0.0121    1.2426   -0.0000 O   0  0  0  0  0  0  0  0  0  0  0  0
   -1.3391   -0.7601   -0.0000 C   0  0  0  0  0  0  0  0  0  0  0  0
    1.0496    0.6273   -0.0000 C   0  0  0  0  0  0  0  0  0  0  0  0
   -1.3512   -2.2802   -0.0000 C   0  0  0  0  0  0  0  0  0  0  0  0
   -2.6783    0.0121   -0.0000 C   0  0  0  0  0  0  0  0  0  0  0  0
   -2.6903   -3.0402   -0.0000 C   0  0  0  0  0  0  0  0  0  0  0  0
   -4.0174   -0.7480   -0.0000 C   0  0  0  0  0  0  0  0  0  0  0  0
   -4.0295   -2.2681   -0.0000 C   0  0  0  0  0  0  0  0  0  0  0  0
   -5.3686   -3.0281   -0.0000 C   0  0  0  0  0  0  0  0  0  0  0  0
   -5.3807   -4.5482   -0.0000 C   0  0  0  0  0  0  0  0  0  0  0  0
   -6.7078   -2.2560   -0.0000 C   0  0  0  0  0  0  0  0  0  0  0  0
   -4.2587   -5.5616   -0.0000 N   0  0  0  0  0  0  0  0  0  0  0  0
   -6.7198   -5.2962   -0.0000 N   0  0  0  0  0  0  0  0  0  0  0  0
   -8.0469   -3.0040   -0.0000 C   0  0  0  0  0  0  0  0  0  0  0  0
   -4.8981   -6.9490   -0.0000 C   0  0  0  0  0  0  0  0  0  0  0  0
   -6.4182   -6.7801   -0.0000 N   0  0  0  0  0  0  0  0  0  0  0  0
   -8.0590   -4.5241   -0.0000 C   0  0  0  0  0  0  0  0  0  0  0  0
   -4.1501   -8.2640   -0.0000 N   0  0  0  0  0  0  0  0  0  0  0  0
   -4.9343   -9.5791   -0.0000 C   0  0  0  0  0  0  0  0  0  0  0  0
   -6.4785   -9.5670   -0.0000 C   0  0  0  0  0  0  0  0  0  0  0  0
   -4.1863  -10.8941   -0.0000 C   0  0  0  0  0  0  0  0  0  0  0  0
   -7.2627  -10.8820   -0.0000 C   0  0  0  0  0  0  0  0  0  0  0  0
   -4.9705  -12.2091   -0.0000 C   0  0  0  0  0  0  0  0  0  0  0  0
   -6.5147  -12.1970   -0.0000 C   0  0  0  0  0  0  0  0  0  0  0  0
   -8.8069  -10.8699   -0.0000 C   0  0  0  0  0  0  0  0  0  0  0  0
   -9.5911  -12.1849   -0.0000 C   0  0  0  0  0  0  0  0  0  0  0  0
   -9.5791   -9.5308   -0.0000 C   0  0  0  0  0  0  0  0  0  0  0  0
  -11.1353  -12.1608   -0.0000 C   0  0  0  0  0  0  0  0  0  0  0  0
  -11.1233   -9.5067   -0.0000 C   0  0  0  0  0  0  0  0  0  0  0  0
  -11.9075  -10.8217   -0.0000 N   0  0  0  0  0  0  0  0  0  0  0  0
  -13.1501  -10.7975   -0.0000 C   0  0  0  0  0  0  0  0  0  0  0  0
  1  2  2  0  0  0  0
  1  3  2  0  0  0  0
  1  4  1  0  0  0  0
  1  5  1  0  0  0  0
  4  6  2  0  0  0  0
  4  7  1  0  0  0  0
  6  8  1  0  0  0  0
  7  9  2  0  0  0  0
  8 10  2  0  0  0  0
 10 11  1  0  0  0  0
 11 12  1  0  0  0  0
 11 13  2  0  0  0  0
 12 14  2  0  0  0  0
 12 15  1  0  0  0  0
 13 16  1  0  0  0  0
 14 17  1  0  0  0  0
 15 18  1  0  0  0  0
 15 19  1  0  0  0  0
 17 20  1  0  0  0  0
 20 21  1  0  0  0  0
 21 22  2  0  0  0  0
 21 23  1  0  0  0  0
 22 24  1  0  0  0  0
 23 25  2  0  0  0  0
 24 26  2  0  0  0  0
 24 27  1  0  0  0  0
 27 28  1  0  0  0  0
 27 29  1  0  0  0  0
 28 30  1  0  0  0  0
 29 31  1  0  0  0  0
 30 32  1  0  0  0  0
 32 33  1  0  0  0  0
  9 10  1  0  0  0  0
 16 19  2  0  0  0  0
 17 18  2  0  0  0  0
 25 26  1  0  0  0  0
 31 32  1  0  0  0  0
M  END
>  <MolRegNo>
1356201

>  <m>
=

>  <Value>
24000

>  <Unit>
nM

>  <Type>
IC50

>  <pValue>
4.62

>  <Ligand Efficiency>
0

>  <Binding Efficiency>
0

>  <Surface Efficiency>
0

>  <Assay Index>
667388

>  <Assay Category>


>  <Assay Organism>
Homo sapiens

>  <Target ID>
17045

>  <Target Name>
Cytochrome P450 3A4

>  <Target Organism>
Homo sapiens

>  <Target Description>
Target is a single protein chain

>  <Sequence Accession>
P08684

>  <Reference>
J Med Chem 55 (11), 5243-5254 (2012)

>  <Pubmed ID>
22594690

>  <DOI>
10.1021/jm300248q

$$$$
1357821
Actelion Java MolfileCreator 1.0

 28 32  0  0  0  0  0  0  0  0999 V2000
    0.0000   -0.0000   -0.0000 S   0  0  0  0  0  0  0  0  0  0  0  0
    1.4758   -0.1535   -0.0000 C   0  0  0  0  0  0  0  0  0  0  0  0
   -0.3188    1.4758   -0.0000 C   0  0  0  0  0  0  0  0  0  0  0  0
    2.2078   -1.4404   -0.0000 C   0  0  0  0  0  0  0  0  0  0  0  0
    2.0780    1.2279   -0.0000 C   0  0  0  0  0  0  0  0  0  0  0  0
    0.9681    2.2314   -0.0000 C   0  0  0  0  0  0  0  0  0  0  0  0
    1.4404   -2.7273   -0.0000 C   0  0  0  0  0  0  0  0  0  0  0  0
    3.6955   -1.4404   -0.0000 C   0  0  0  0  0  0  0  0  0  0  0  0
   -0.0354   -3.0225   -0.0000 N   0  0  0  0  0  0  0  0  0  0  0  0
    2.1724   -4.0142   -0.0000 C   0  0  0  0  0  0  0  0  0  0  0  0
    4.4275   -2.7273   -0.0000 C   0  0  0  0  0  0  0  0  0  0  0  0
   -0.2125   -4.4983   -0.0000 C   0  0  0  0  0  0  0  0  0  0  0  0
    1.1570   -5.1122   -0.0000 O   0  0  0  0  0  0  0  0  0  0  0  0
    3.6600   -4.0142   -0.0000 C   0  0  0  0  0  0  0  0  0  0  0  0
   -1.5230   -5.2303   -0.0000 C   0  0  0  0  0  0  0  0  0  0  0  0
   -2.8336   -4.4629   -0.0000 C   0  0  0  0  0  0  0  0  0  0  0  0
   -4.1441   -5.1949   -0.0000 N   0  0  0  0  0  0  0  0  0  0  0  0
   -2.8336   -2.9516   -0.0000 N   0  0  0  0  0  0  0  0  0  0  0  0
   -5.4546   -4.4275   -0.0000 C   0  0  0  0  0  0  0  0  0  0  0  0
   -4.1441   -2.1842   -0.0000 C   0  0  0  0  0  0  0  0  0  0  0  0
   -6.7652   -5.1595   -0.0000 N   0  0  0  0  0  0  0  0  0  0  0  0
   -5.4546   -2.9162   -0.0000 C   0  0  0  0  0  0  0  0  0  0  0  0
   -4.1441   -0.6730   -0.0000 O   0  0  0  0  0  0  0  0  0  0  0  0
   -8.0757   -4.3920   -0.0000 C   0  0  0  0  0  0  0  0  0  0  0  0
   -6.7888   -6.6471   -0.0000 C   0  0  0  0  0  0  0  0  0  0  0  0
   -9.3862   -5.1240   -0.0000 C   0  0  0  0  0  0  0  0  0  0  0  0
   -8.0993   -7.3791   -0.0000 C   0  0  0  0  0  0  0  0  0  0  0  0
   -9.4098   -6.6117   -0.0000 O   0  0  0  0  0  0  0  0  0  0  0  0
  1  2  1  0  0  0  0
  1  3  1  0  0  0  0
  2  4  1  0  0  0  0
  2  5  2  0  0  0  0
  3  6  2  0  0  0  0
  4  7  2  0  0  0  0
  4  8  1  0  0  0  0
  7  9  1  0  0  0  0
  7 10  1  0  0  0  0
  8 11  2  0  0  0  0
  9 12  2  0  0  0  0
 10 13  1  0  0  0  0
 10 14  2  0  0  0  0
 12 15  1  0  0  0  0
 15 16  1  0  0  0  0
 16 17  2  0  0  0  0
 16 18  1  0  0  0  0
 17 19  1  0  0  0  0
 18 20  1  0  0  0  0
 19 21  1  0  0  0  0
 19 22  2  0  0  0  0
 20 23  2  0  0  0  0
 21 24  1  0  0  0  0
 21 25  1  0  0  0  0
 24 26  1  0  0  0  0
 25 27  1  0  0  0  0
 26 28  1  0  0  0  0
  5  6  1  0  0  0  0
 11 14  1  0  0  0  0
 12 13  1  0  0  0  0
 20 22  1  0  0  0  0
 27 28  1  0  0  0  0
M  END
>  <MolRegNo>
1357821

>  <m>
=

>  <Value>
19000

>  <Unit>
nM

>  <Type>
IC50

>  <pValue>
4.72

>  <Ligand Efficiency>
0

>  <Binding Efficiency>
0

>  <Surface Efficiency>
0

>  <Assay Index>
667734

>  <Assay Category>


>  <Assay Organism>
Homo sapiens

>  <Target ID>
17045

>  <Target Name>
Cytochrome P450 3A4

>  <Target Organism>
Homo sapiens

>  <Target Description>
Target is a single protein chain

>  <Sequence Accession>
P08684

>  <Reference>
J Med Chem 55 (10), 4788-4805 (2012)

>  <Pubmed ID>
22524426

>  <DOI>
10.1021/jm300241b

$$$$
1359981
Actelion Java MolfileCreator 1.0

 29 31  0  0  0  0  0  0  0  0999 V2000
    0.0000   -0.0000   -0.0000 F   0  0  0  0  0  0  0  0  0  0  0  0
    1.2915   -0.7414   -0.0000 C   0  0  0  0  0  0  0  0  0  0  0  0
    2.5829    0.0239   -0.0000 C   0  0  0  0  0  0  0  0  0  0  0  0
    1.2795   -2.2481   -0.0000 C   0  0  0  0  0  0  0  0  0  0  0  0
    2.5710    1.5426   -0.0000 F   0  0  0  0  0  0  0  0  0  0  0  0
    3.8744   -0.7175   -0.0000 C   0  0  0  0  0  0  0  0  0  0  0  0
    2.5710   -2.9895   -0.0000 C   0  0  0  0  0  0  0  0  0  0  0  0
    3.8624   -2.2242   -0.0000 C   0  0  0  0  0  0  0  0  0  0  0  0
    2.5590   -4.4843   -0.0000 F   0  0  0  0  0  0  0  0  0  0  0  0
    5.1539   -2.9656   -0.0000 C   0  0  0  0  0  0  0  0  0  0  0  0
    6.4454   -2.2003   -0.0000 C   0  0  0  0  0  0  0  0  0  0  0  0
    6.4334   -0.6816   -0.0000 N   0  0  0  0  0  0  0  0  0  0  0  0
    7.7369   -2.9417   -0.0000 C   0  0  0  0  0  0  0  0  0  0  0  0
    9.0283   -2.1764   -0.0000 C   0  0  0  0  0  0  0  0  0  0  0  0
    9.0164   -0.6577   -0.0000 O   0  0  0  0  0  0  0  0  0  0  0  0
   10.3198   -2.9178   -0.0000 N   0  0  0  0  0  0  0  0  0  0  0  0
   10.3078   -4.4245   -0.0000 C   0  0  0  0  0  0  0  0  0  0  0  0
   11.6113   -2.1524   -0.0000 C   0  0  0  0  0  0  0  0  0  0  0  0
   11.5993   -5.1659   -0.0000 C   0  0  0  0  0  0  0  0  0  0  0  0
   12.9027   -2.9058   -0.0000 C   0  0  0  0  0  0  0  0  0  0  0  0
   12.9027   -4.4006   -0.0000 N   0  0  0  0  0  0  0  0  0  0  0  0
   14.1942   -5.1420   -0.0000 C   0  0  0  0  0  0  0  0  0  0  0  0
   14.1822   -6.6367   -0.0000 O   0  0  0  0  0  0  0  0  0  0  0  0
   15.4857   -4.3766   -0.0000 C   0  0  0  0  0  0  0  0  0  0  0  0
   16.7771   -5.1300   -0.0000 C   0  0  0  0  0  0  0  0  0  0  0  0
   15.4737   -2.8699   -0.0000 C   0  0  0  0  0  0  0  0  0  0  0  0
   18.0686   -4.3647   -0.0000 C   0  0  0  0  0  0  0  0  0  0  0  0
   16.7652   -2.1046   -0.0000 C   0  0  0  0  0  0  0  0  0  0  0  0
   18.0567   -2.8460   -0.0000 C   0  0  0  0  0  0  0  0  0  0  0  0
  1  2  1  0  0  0  0
  2  3  2  0  0  0  0
  2  4  1  0  0  0  0
  3  5  1  0  0  0  0
  3  6  1  0  0  0  0
  4  7  2  0  0  0  0
  6  8  2  0  0  0  0
  7  9  1  0  0  0  0
  8 10  1  0  0  0  0
 10 11  1  0  0  0  0
 11 12  1  1  0  0  0
 11 13  1  0  0  0  0
 13 14  1  0  0  0  0
 14 15  2  0  0  0  0
 14 16  1  0  0  0  0
 16 17  1  0  0  0  0
 16 18  1  0  0  0  0
 17 19  1  0  0  0  0
 18 20  1  0  0  0  0
 19 21  1  0  0  0  0
 21 22  1  0  0  0  0
 22 23  2  0  0  0  0
 22 24  1  0  0  0  0
 24 25  2  0  0  0  0
 24 26  1  0  0  0  0
 25 27  1  0  0  0  0
 26 28  2  0  0  0  0
 27 29  2  0  0  0  0
  7  8  1  0  0  0  0
 20 21  1  0  0  0  0
 28 29  1  0  0  0  0
M  END
>  <MolRegNo>
1359981

>  <m>
=

>  <Value>
1000

>  <Unit>
nM

>  <Type>
IC50

>  <pValue>
6

>  <Ligand Efficiency>
0

>  <Binding Efficiency>
0

>  <Surface Efficiency>
0

>  <Assay Index>
668984

>  <Assay Category>


>  <Assay Organism>
Homo sapiens

>  <Target ID>
17045

>  <Target Name>
Cytochrome P450 3A4

>  <Target Organism>
Homo sapiens

>  <Target Description>
Target is a single protein chain

>  <Sequence Accession>
P08684

>  <Reference>
Bioorg Med Chem Lett 22 (17), 5545-5549 (2012)

>  <Pubmed ID>
22850208

>  <DOI>
10.1016/j.bmcl.2012.07.019

$$$$
1359982
Actelion Java MolfileCreator 1.0

 30 32  0  0  0  0  0  0  0  0999 V2000
    0.0000   -0.0000   -0.0000 F   0  0  0  0  0  0  0  0  0  0  0  0
    1.2914   -0.7414   -0.0000 C   0  0  0  0  0  0  0  0  0  0  0  0
    2.5829    0.0239   -0.0000 C   0  0  0  0  0  0  0  0  0  0  0  0
    1.2795   -2.2481   -0.0000 C   0  0  0  0  0  0  0  0  0  0  0  0
    2.5709    1.5425   -0.0000 F   0  0  0  0  0  0  0  0  0  0  0  0
    3.8743   -0.7175   -0.0000 C   0  0  0  0  0  0  0  0  0  0  0  0
    2.5709   -2.9894   -0.0000 C   0  0  0  0  0  0  0  0  0  0  0  0
    3.8624   -2.2241   -0.0000 C   0  0  0  0  0  0  0  0  0  0  0  0
    2.5590   -4.4842   -0.0000 F   0  0  0  0  0  0  0  0  0  0  0  0
    5.1538   -2.9655   -0.0000 C   0  0  0  0  0  0  0  0  0  0  0  0
    6.4452   -2.2002   -0.0000 C   0  0  0  0  0  0  0  0  0  0  0  0
    6.4333   -0.6816   -0.0000 N   0  0  0  0  0  0  0  0  0  0  0  0
    7.7367   -2.9416   -0.0000 C   0  0  0  0  0  0  0  0  0  0  0  0
    9.0281   -2.1763   -0.0000 C   0  0  0  0  0  0  0  0  0  0  0  0
    9.0161   -0.6577   -0.0000 O   0  0  0  0  0  0  0  0  0  0  0  0
   10.3195   -2.9177   -0.0000 N   0  0  0  0  0  0  0  0  0  0  0  0
   10.3076   -4.4244   -0.0000 C   0  0  0  0  0  0  0  0  0  0  0  0
   11.6110   -2.1524   -0.0000 C   0  0  0  0  0  0  0  0  0  0  0  0
   11.5990   -5.1657   -0.0000 C   0  0  0  0  0  0  0  0  0  0  0  0
   12.9024   -2.9057   -0.0000 C   0  0  0  0  0  0  0  0  0  0  0  0
   12.9024   -4.4005   -0.0000 N   0  0  0  0  0  0  0  0  0  0  0  0
   14.1938   -5.1418   -0.0000 C   0  0  0  0  0  0  0  0  0  0  0  0
   14.1819   -6.6366   -0.0000 O   0  0  0  0  0  0  0  0  0  0  0  0
   15.4853   -4.3765   -0.0000 C   0  0  0  0  0  0  0  0  0  0  0  0
   16.7767   -5.1299   -0.0000 C   0  0  0  0  0  0  0  0  0  0  0  0
   15.4733   -2.8699   -0.0000 C   0  0  0  0  0  0  0  0  0  0  0  0
   18.0682   -4.3646   -0.0000 C   0  0  0  0  0  0  0  0  0  0  0  0
   16.7648   -2.1046   -0.0000 C   0  0  0  0  0  0  0  0  0  0  0  0
   18.0562   -2.8459   -0.0000 C   0  0  0  0  0  0  0  0  0  0  0  0
   19.3476   -2.0806   -0.0000 F   0  0  0  0  0  0  0  0  0  0  0  0
  1  2  1  0  0  0  0
  2  3  2  0  0  0  0
  2  4  1  0  0  0  0
  3  5  1  0  0  0  0
  3  6  1  0  0  0  0
  4  7  2  0  0  0  0
  6  8  2  0  0  0  0
  7  9  1  0  0  0  0
  8 10  1  0  0  0  0
 10 11  1  0  0  0  0
 11 12  1  1  0  0  0
 11 13  1  0  0  0  0
 13 14  1  0  0  0  0
 14 15  2  0  0  0  0
 14 16  1  0  0  0  0
 16 17  1  0  0  0  0
 16 18  1  0  0  0  0
 17 19  1  0  0  0  0
 18 20  1  0  0  0  0
 19 21  1  0  0  0  0
 21 22  1  0  0  0  0
 22 23  2  0  0  0  0
 22 24  1  0  0  0  0
 24 25  2  0  0  0  0
 24 26  1  0  0  0  0
 25 27  1  0  0  0  0
 26 28  2  0  0  0  0
 27 29  2  0  0  0  0
 29 30  1  0  0  0  0
  7  8  1  0  0  0  0
 20 21  1  0  0  0  0
 28 29  1  0  0  0  0
M  END
>  <MolRegNo>
1359982

>  <m>
=

>  <Value>
1000

>  <Unit>
nM

>  <Type>
IC50

>  <pValue>
6

>  <Ligand Efficiency>
0

>  <Binding Efficiency>
0

>  <Surface Efficiency>
0

>  <Assay Index>
668984

>  <Assay Category>


>  <Assay Organism>
Homo sapiens

>  <Target ID>
17045

>  <Target Name>
Cytochrome P450 3A4

>  <Target Organism>
Homo sapiens

>  <Target Description>
Target is a single protein chain

>  <Sequence Accession>
P08684

>  <Reference>
Bioorg Med Chem Lett 22 (17), 5545-5549 (2012)

>  <Pubmed ID>
22850208

>  <DOI>
10.1016/j.bmcl.2012.07.019

$$$$
1359983
Actelion Java MolfileCreator 1.0

 30 32  0  0  0  0  0  0  0  0999 V2000
    0.0000   -0.0000   -0.0000 F   0  0  0  0  0  0  0  0  0  0  0  0
    1.2914   -0.7414   -0.0000 C   0  0  0  0  0  0  0  0  0  0  0  0
    2.5829    0.0239   -0.0000 C   0  0  0  0  0  0  0  0  0  0  0  0
    1.2795   -2.2481   -0.0000 C   0  0  0  0  0  0  0  0  0  0  0  0
    2.5709    1.5425   -0.0000 F   0  0  0  0  0  0  0  0  0  0  0  0
    3.8743   -0.7175   -0.0000 C   0  0  0  0  0  0  0  0  0  0  0  0
    2.5709   -2.9894   -0.0000 C   0  0  0  0  0  0  0  0  0  0  0  0
    3.8624   -2.2241   -0.0000 C   0  0  0  0  0  0  0  0  0  0  0  0
    2.5590   -4.4842   -0.0000 F   0  0  0  0  0  0  0  0  0  0  0  0
    5.1538   -2.9655   -0.0000 C   0  0  0  0  0  0  0  0  0  0  0  0
    6.4452   -2.2002   -0.0000 C   0  0  0  0  0  0  0  0  0  0  0  0
    6.4333   -0.6816   -0.0000 N   0  0  0  0  0  0  0  0  0  0  0  0
    7.7367   -2.9416   -0.0000 C   0  0  0  0  0  0  0  0  0  0  0  0
    9.0281   -2.1763   -0.0000 C   0  0  0  0  0  0  0  0  0  0  0  0
    9.0161   -0.6577   -0.0000 O   0  0  0  0  0  0  0  0  0  0  0  0
   10.3195   -2.9177   -0.0000 N   0  0  0  0  0  0  0  0  0  0  0  0
   10.3076   -4.4244   -0.0000 C   0  0  0  0  0  0  0  0  0  0  0  0
   11.6110   -2.1524   -0.0000 C   0  0  0  0  0  0  0  0  0  0  0  0
   11.5990   -5.1657   -0.0000 C   0  0  0  0  0  0  0  0  0  0  0  0
   12.9024   -2.9057   -0.0000 C   0  0  0  0  0  0  0  0  0  0  0  0
   12.9024   -4.4005   -0.0000 N   0  0  0  0  0  0  0  0  0  0  0  0
   14.1938   -5.1418   -0.0000 C   0  0  0  0  0  0  0  0  0  0  0  0
   14.1819   -6.6366   -0.0000 O   0  0  0  0  0  0  0  0  0  0  0  0
   15.4853   -4.3765   -0.0000 C   0  0  0  0  0  0  0  0  0  0  0  0
   16.7767   -5.1299   -0.0000 C   0  0  0  0  0  0  0  0  0  0  0  0
   15.4733   -2.8699   -0.0000 C   0  0  0  0  0  0  0  0  0  0  0  0
   18.0682   -4.3646   -0.0000 C   0  0  0  0  0  0  0  0  0  0  0  0
   16.7648   -2.1046   -0.0000 C   0  0  0  0  0  0  0  0  0  0  0  0
   18.0562   -2.8459   -0.0000 C   0  0  0  0  0  0  0  0  0  0  0  0
   19.3476   -2.0806   -0.0000 O   0  0  0  0  0  0  0  0  0  0  0  0
  1  2  1  0  0  0  0
  2  3  2  0  0  0  0
  2  4  1  0  0  0  0
  3  5  1  0  0  0  0
  3  6  1  0  0  0  0
  4  7  2  0  0  0  0
  6  8  2  0  0  0  0
  7  9  1  0  0  0  0
  8 10  1  0  0  0  0
 10 11  1  0  0  0  0
 11 12  1  1  0  0  0
 11 13  1  0  0  0  0
 13 14  1  0  0  0  0
 14 15  2  0  0  0  0
 14 16  1  0  0  0  0
 16 17  1  0  0  0  0
 16 18  1  0  0  0  0
 17 19  1  0  0  0  0
 18 20  1  0  0  0  0
 19 21  1  0  0  0  0
 21 22  1  0  0  0  0
 22 23  2  0  0  0  0
 22 24  1  0  0  0  0
 24 25  2  0  0  0  0
 24 26  1  0  0  0  0
 25 27  1  0  0  0  0
 26 28  2  0  0  0  0
 27 29  2  0  0  0  0
 29 30  1  0  0  0  0
  7  8  1  0  0  0  0
 20 21  1  0  0  0  0
 28 29  1  0  0  0  0
M  END
>  <MolRegNo>
1359983

>  <m>
=

>  <Value>
1000

>  <Unit>
nM

>  <Type>
IC50

>  <pValue>
6

>  <Ligand Efficiency>
0

>  <Binding Efficiency>
0

>  <Surface Efficiency>
0

>  <Assay Index>
668984

>  <Assay Category>


>  <Assay Organism>
Homo sapiens

>  <Target ID>
17045

>  <Target Name>
Cytochrome P450 3A4

>  <Target Organism>
Homo sapiens

>  <Target Description>
Target is a single protein chain

>  <Sequence Accession>
P08684

>  <Reference>
Bioorg Med Chem Lett 22 (17), 5545-5549 (2012)

>  <Pubmed ID>
22850208

>  <DOI>
10.1016/j.bmcl.2012.07.019

$$$$
1359984
Actelion Java MolfileCreator 1.0

 34 36  0  0  0  0  0  0  0  0999 V2000
    0.0000   -0.0000   -0.0000 F   0  0  0  0  0  0  0  0  0  0  0  0
    1.2923   -0.7419   -0.0000 C   0  0  0  0  0  0  0  0  0  0  0  0
    2.5846    0.0239   -0.0000 C   0  0  0  0  0  0  0  0  0  0  0  0
    1.2803   -2.2496   -0.0000 C   0  0  0  0  0  0  0  0  0  0  0  0
    2.5726    1.5436   -0.0000 F   0  0  0  0  0  0  0  0  0  0  0  0
    3.8769   -0.7179   -0.0000 C   0  0  0  0  0  0  0  0  0  0  0  0
    2.5726   -2.9914   -0.0000 C   0  0  0  0  0  0  0  0  0  0  0  0
    3.8649   -2.2256   -0.0000 C   0  0  0  0  0  0  0  0  0  0  0  0
    2.5607   -4.4872   -0.0000 F   0  0  0  0  0  0  0  0  0  0  0  0
    5.1572   -2.9675   -0.0000 C   0  0  0  0  0  0  0  0  0  0  0  0
    6.4496   -2.2017   -0.0000 C   0  0  0  0  0  0  0  0  0  0  0  0
    6.4376   -0.6820   -0.0000 N   0  0  0  0  0  0  0  0  0  0  0  0
    7.7419   -2.9436   -0.0000 C   0  0  0  0  0  0  0  0  0  0  0  0
    9.0342   -2.1778   -0.0000 C   0  0  0  0  0  0  0  0  0  0  0  0
    9.0222   -0.6581   -0.0000 O   0  0  0  0  0  0  0  0  0  0  0  0
   10.3265   -2.9196   -0.0000 N   0  0  0  0  0  0  0  0  0  0  0  0
   10.3145   -4.4273   -0.0000 C   0  0  0  0  0  0  0  0  0  0  0  0
   11.6188   -2.1538   -0.0000 C   0  0  0  0  0  0  0  0  0  0  0  0
   11.6068   -5.1692   -0.0000 C   0  0  0  0  0  0  0  0  0  0  0  0
   12.9111   -2.9077   -0.0000 C   0  0  0  0  0  0  0  0  0  0  0  0
   12.9111   -4.4034   -0.0000 N   0  0  0  0  0  0  0  0  0  0  0  0
   14.2034   -5.1453   -0.0000 C   0  0  0  0  0  0  0  0  0  0  0  0
   14.1914   -6.6410   -0.0000 O   0  0  0  0  0  0  0  0  0  0  0  0
   15.4957   -4.3795   -0.0000 C   0  0  0  0  0  0  0  0  0  0  0  0
   16.7880   -5.1333   -0.0000 C   0  0  0  0  0  0  0  0  0  0  0  0
   15.4837   -2.8718   -0.0000 C   0  0  0  0  0  0  0  0  0  0  0  0
   18.0803   -4.3675   -0.0000 C   0  0  0  0  0  0  0  0  0  0  0  0
   16.7760   -2.1060   -0.0000 C   0  0  0  0  0  0  0  0  0  0  0  0
   18.0683   -2.8479   -0.0000 C   0  0  0  0  0  0  0  0  0  0  0  0
   19.3606   -2.0820   -0.0000 O   0  0  0  0  0  0  0  0  0  0  0  0
   20.6529   -2.8239   -0.0000 C   0  0  0  0  0  0  0  0  0  0  0  0
   21.9452   -2.0581   -0.0000 F   0  0  0  0  0  0  0  0  0  0  0  0
   20.6410   -4.3196   -0.0000 F   0  0  0  0  0  0  0  0  0  0  0  0
   21.9333   -3.5658   -0.0000 F   0  0  0  0  0  0  0  0  0  0  0  0
  1  2  1  0  0  0  0
  2  3  2  0  0  0  0
  2  4  1  0  0  0  0
  3  5  1  0  0  0  0
  3  6  1  0  0  0  0
  4  7  2  0  0  0  0
  6  8  2  0  0  0  0
  7  9  1  0  0  0  0
  8 10  1  0  0  0  0
 10 11  1  0  0  0  0
 11 12  1  1  0  0  0
 11 13  1  0  0  0  0
 13 14  1  0  0  0  0
 14 15  2  0  0  0  0
 14 16  1  0  0  0  0
 16 17  1  0  0  0  0
 16 18  1  0  0  0  0
 17 19  1  0  0  0  0
 18 20  1  0  0  0  0
 19 21  1  0  0  0  0
 21 22  1  0  0  0  0
 22 23  2  0  0  0  0
 22 24  1  0  0  0  0
 24 25  2  0  0  0  0
 24 26  1  0  0  0  0
 25 27  1  0  0  0  0
 26 28  2  0  0  0  0
 27 29  2  0  0  0  0
 29 30  1  0  0  0  0
 30 31  1  0  0  0  0
 31 32  1  0  0  0  0
 31 33  1  0  0  0  0
 31 34  1  0  0  0  0
  7  8  1  0  0  0  0
 20 21  1  0  0  0  0
 28 29  1  0  0  0  0
M  END
>  <MolRegNo>
1359984

>  <m>
=

>  <Value>
1000

>  <Unit>
nM

>  <Type>
IC50

>  <pValue>
6

>  <Ligand Efficiency>
0

>  <Binding Efficiency>
0

>  <Surface Efficiency>
0

>  <Assay Index>
668984

>  <Assay Category>


>  <Assay Organism>
Homo sapiens

>  <Target ID>
17045

>  <Target Name>
Cytochrome P450 3A4

>  <Target Organism>
Homo sapiens

>  <Target Description>
Target is a single protein chain

>  <Sequence Accession>
P08684

>  <Reference>
Bioorg Med Chem Lett 22 (17), 5545-5549 (2012)

>  <Pubmed ID>
22850208

>  <DOI>
10.1016/j.bmcl.2012.07.019

$$$$
1359985
Actelion Java MolfileCreator 1.0

 33 35  0  0  0  0  0  0  0  0999 V2000
    0.0000   -0.0000   -0.0000 F   0  0  0  0  0  0  0  0  0  0  0  0
    1.2915   -0.7414   -0.0000 C   0  0  0  0  0  0  0  0  0  0  0  0
    2.5830    0.0239   -0.0000 C   0  0  0  0  0  0  0  0  0  0  0  0
    1.2796   -2.2362   -0.0000 C   0  0  0  0  0  0  0  0  0  0  0  0
    2.5711    1.5426   -0.0000 F   0  0  0  0  0  0  0  0  0  0  0  0
    3.8745   -0.7175   -0.0000 C   0  0  0  0  0  0  0  0  0  0  0  0
    2.5711   -2.9776   -0.0000 C   0  0  0  0  0  0  0  0  0  0  0  0
    3.8626   -2.2243   -0.0000 C   0  0  0  0  0  0  0  0  0  0  0  0
    2.5591   -4.4724   -0.0000 F   0  0  0  0  0  0  0  0  0  0  0  0
    5.1541   -2.9657   -0.0000 C   0  0  0  0  0  0  0  0  0  0  0  0
    6.4456   -2.2003   -0.0000 C   0  0  0  0  0  0  0  0  0  0  0  0
    6.4336   -0.6816   -0.0000 N   0  0  0  0  0  0  0  0  0  0  0  0
    7.7371   -2.9418   -0.0000 C   0  0  0  0  0  0  0  0  0  0  0  0
    9.0286   -2.1764   -0.0000 C   0  0  0  0  0  0  0  0  0  0  0  0
    9.0166   -0.6577   -0.0000 O   0  0  0  0  0  0  0  0  0  0  0  0
   10.3201   -2.9179   -0.0000 N   0  0  0  0  0  0  0  0  0  0  0  0
   10.3082   -4.4246   -0.0000 C   0  0  0  0  0  0  0  0  0  0  0  0
   11.6116   -2.1525   -0.0000 C   0  0  0  0  0  0  0  0  0  0  0  0
   11.5997   -5.1660   -0.0000 C   0  0  0  0  0  0  0  0  0  0  0  0
   12.9031   -2.9059   -0.0000 C   0  0  0  0  0  0  0  0  0  0  0  0
   12.9031   -4.4007   -0.0000 N   0  0  0  0  0  0  0  0  0  0  0  0
   14.1946   -5.1421   -0.0000 C   0  0  0  0  0  0  0  0  0  0  0  0
   14.1827   -6.6369   -0.0000 O   0  0  0  0  0  0  0  0  0  0  0  0
   15.4861   -4.3768   -0.0000 C   0  0  0  0  0  0  0  0  0  0  0  0
   16.7777   -5.1302   -0.0000 C   0  0  0  0  0  0  0  0  0  0  0  0
   15.4742   -2.8700   -0.0000 C   0  0  0  0  0  0  0  0  0  0  0  0
   18.0692   -4.3648   -0.0000 C   0  0  0  0  0  0  0  0  0  0  0  0
   16.7657   -2.1047   -0.0000 C   0  0  0  0  0  0  0  0  0  0  0  0
   18.0572   -2.8461   -0.0000 C   0  0  0  0  0  0  0  0  0  0  0  0
   19.3487   -2.0808   -0.0000 C   0  0  0  0  0  0  0  0  0  0  0  0
   20.6402   -2.8222   -0.0000 F   0  0  0  0  0  0  0  0  0  0  0  0
   19.3368   -0.5620   -0.0000 F   0  0  0  0  0  0  0  0  0  0  0  0
   20.6402   -1.3035   -0.0000 F   0  0  0  0  0  0  0  0  0  0  0  0
  1  2  1  0  0  0  0
  2  3  2  0  0  0  0
  2  4  1  0  0  0  0
  3  5  1  0  0  0  0
  3  6  1  0  0  0  0
  4  7  2  0  0  0  0
  6  8  2  0  0  0  0
  7  9  1  0  0  0  0
  8 10  1  0  0  0  0
 10 11  1  0  0  0  0
 11 12  1  1  0  0  0
 11 13  1  0  0  0  0
 13 14  1  0  0  0  0
 14 15  2  0  0  0  0
 14 16  1  0  0  0  0
 16 17  1  0  0  0  0
 16 18  1  0  0  0  0
 17 19  1  0  0  0  0
 18 20  1  0  0  0  0
 19 21  1  0  0  0  0
 21 22  1  0  0  0  0
 22 23  2  0  0  0  0
 22 24  1  0  0  0  0
 24 25  2  0  0  0  0
 24 26  1  0  0  0  0
 25 27  1  0  0  0  0
 26 28  2  0  0  0  0
 27 29  2  0  0  0  0
 29 30  1  0  0  0  0
 30 31  1  0  0  0  0
 30 32  1  0  0  0  0
 30 33  1  0  0  0  0
  7  8  1  0  0  0  0
 20 21  1  0  0  0  0
 28 29  1  0  0  0  0
M  END
>  <MolRegNo>
1359985

>  <m>
=

>  <Value>
1000

>  <Unit>
nM

>  <Type>
IC50

>  <pValue>
6

>  <Ligand Efficiency>
0

>  <Binding Efficiency>
0

>  <Surface Efficiency>
0

>  <Assay Index>
668984

>  <Assay Category>


>  <Assay Organism>
Homo sapiens

>  <Target ID>
17045

>  <Target Name>
Cytochrome P450 3A4

>  <Target Organism>
Homo sapiens

>  <Target Description>
Target is a single protein chain

>  <Sequence Accession>
P08684

>  <Reference>
Bioorg Med Chem Lett 22 (17), 5545-5549 (2012)

>  <Pubmed ID>
22850208

>  <DOI>
10.1016/j.bmcl.2012.07.019

$$$$
1359986
Actelion Java MolfileCreator 1.0

 33 35  0  0  0  0  0  0  0  0999 V2000
    0.0000   -0.0000   -0.0000 S   0  0  0  0  0  0  0  0  0  0  0  0
   -0.7685    1.3123   -0.0000 O   0  0  0  0  0  0  0  0  0  0  0  0
    0.7330    1.3123   -0.0000 O   0  0  0  0  0  0  0  0  0  0  0  0
    1.2887   -0.7330   -0.0000 N   0  0  0  0  0  0  0  0  0  0  0  0
   -1.3005   -0.7448   -0.0000 C   0  0  0  0  0  0  0  0  0  0  0  0
   -1.3123   -2.2226   -0.0000 C   0  0  0  0  0  0  0  0  0  0  0  0
   -2.6128    0.0118   -0.0000 C   0  0  0  0  0  0  0  0  0  0  0  0
   -2.6128   -2.9556   -0.0000 C   0  0  0  0  0  0  0  0  0  0  0  0
   -3.9133   -0.7212   -0.0000 C   0  0  0  0  0  0  0  0  0  0  0  0
   -3.9133   -2.1872   -0.0000 C   0  0  0  0  0  0  0  0  0  0  0  0
   -5.2137   -2.9202   -0.0000 C   0  0  0  0  0  0  0  0  0  0  0  0
   -5.2256   -4.3980   -0.0000 O   0  0  0  0  0  0  0  0  0  0  0  0
   -6.5142   -2.1635   -0.0000 N   0  0  0  0  0  0  0  0  0  0  0  0
   -7.8265   -2.8965   -0.0000 C   0  0  0  0  0  0  0  0  0  0  0  0
   -6.5260   -0.6621   -0.0000 C   0  0  0  0  0  0  0  0  0  0  0  0
   -9.1270   -2.1399   -0.0000 C   0  0  0  0  0  0  0  0  0  0  0  0
   -7.8265    0.1064   -0.0000 C   0  0  0  0  0  0  0  0  0  0  0  0
   -9.1388   -0.6266   -0.0000 N   0  0  0  0  0  0  0  0  0  0  0  0
  -10.4393    0.1300   -0.0000 C   0  0  0  0  0  0  0  0  0  0  0  0
  -10.4511    1.6315   -0.0000 O   0  0  0  0  0  0  0  0  0  0  0  0
  -11.7398   -0.6030   -0.0000 C   0  0  0  0  0  0  0  0  0  0  0  0
  -13.0403    0.1537   -0.0000 C   0  0  0  0  0  0  0  0  0  0  0  0
  -13.0521    1.6552   -0.0000 N   0  0  0  0  0  0  0  0  0  0  0  0
  -14.3408   -0.5793   -0.0000 C   0  0  0  0  0  0  0  0  0  0  0  0
  -15.6412    0.1773   -0.0000 C   0  0  0  0  0  0  0  0  0  0  0  0
  -16.9535   -0.5557   -0.0000 C   0  0  0  0  0  0  0  0  0  0  0  0
  -15.6531    1.6906   -0.0000 C   0  0  0  0  0  0  0  0  0  0  0  0
  -16.9654   -2.0335   -0.0000 F   0  0  0  0  0  0  0  0  0  0  0  0
  -18.2540    0.2010   -0.0000 C   0  0  0  0  0  0  0  0  0  0  0  0
  -16.9535    2.4473   -0.0000 C   0  0  0  0  0  0  0  0  0  0  0  0
  -18.2658    1.7143   -0.0000 C   0  0  0  0  0  0  0  0  0  0  0  0
  -16.9654    3.9487   -0.0000 F   0  0  0  0  0  0  0  0  0  0  0  0
  -19.5663    2.4709   -0.0000 F   0  0  0  0  0  0  0  0  0  0  0  0
  1  2  2  0  0  0  0
  1  3  2  0  0  0  0
  1  4  1  0  0  0  0
  1  5  1  0  0  0  0
  5  6  2  0  0  0  0
  5  7  1  0  0  0  0
  6  8  1  0  0  0  0
  7  9  2  0  0  0  0
  8 10  2  0  0  0  0
 10 11  1  0  0  0  0
 11 12  2  0  0  0  0
 11 13  1  0  0  0  0
 13 14  1  0  0  0  0
 13 15  1  0  0  0  0
 14 16  1  0  0  0  0
 15 17  1  0  0  0  0
 16 18  1  0  0  0  0
 18 19  1  0  0  0  0
 19 20  2  0  0  0  0
 19 21  1  0  0  0  0
 21 22  1  0  0  0  0
 22 23  1  1  0  0  0
 22 24  1  0  0  0  0
 24 25  1  0  0  0  0
 25 26  2  0  0  0  0
 25 27  1  0  0  0  0
 26 28  1  0  0  0  0
 26 29  1  0  0  0  0
 27 30  2  0  0  0  0
 29 31  2  0  0  0  0
 30 32  1  0  0  0  0
 31 33  1  0  0  0  0
  9 10  1  0  0  0  0
 17 18  1  0  0  0  0
 30 31  1  0  0  0  0
M  END
>  <MolRegNo>
1359986

>  <m>
=

>  <Value>
1000

>  <Unit>
nM

>  <Type>
IC50

>  <pValue>
6

>  <Ligand Efficiency>
0

>  <Binding Efficiency>
0

>  <Surface Efficiency>
0

>  <Assay Index>
668984

>  <Assay Category>


>  <Assay Organism>
Homo sapiens

>  <Target ID>
17045

>  <Target Name>
Cytochrome P450 3A4

>  <Target Organism>
Homo sapiens

>  <Target Description>
Target is a single protein chain

>  <Sequence Accession>
P08684

>  <Reference>
Bioorg Med Chem Lett 22 (17), 5545-5549 (2012)

>  <Pubmed ID>
22850208

>  <DOI>
10.1016/j.bmcl.2012.07.019

$$$$
1359987
Actelion Java MolfileCreator 1.0

 32 34  0  0  0  0  0  0  0  0999 V2000
    0.0000   -0.0000   -0.0000 F   0  0  0  0  0  0  0  0  0  0  0  0
    1.2912   -0.7413   -0.0000 C   0  0  0  0  0  0  0  0  0  0  0  0
    2.5825    0.0239   -0.0000 C   0  0  0  0  0  0  0  0  0  0  0  0
    1.2793   -2.2477   -0.0000 C   0  0  0  0  0  0  0  0  0  0  0  0
    2.5705    1.5423   -0.0000 F   0  0  0  0  0  0  0  0  0  0  0  0
    3.8737   -0.7174   -0.0000 C   0  0  0  0  0  0  0  0  0  0  0  0
    2.5705   -2.9890   -0.0000 C   0  0  0  0  0  0  0  0  0  0  0  0
    3.8618   -2.2238   -0.0000 C   0  0  0  0  0  0  0  0  0  0  0  0
    2.5586   -4.4835   -0.0000 F   0  0  0  0  0  0  0  0  0  0  0  0
    5.1530   -2.9651   -0.0000 C   0  0  0  0  0  0  0  0  0  0  0  0
    6.4442   -2.1999   -0.0000 C   0  0  0  0  0  0  0  0  0  0  0  0
    6.4323   -0.6815   -0.0000 N   0  0  0  0  0  0  0  0  0  0  0  0
    7.7355   -2.9412   -0.0000 C   0  0  0  0  0  0  0  0  0  0  0  0
    9.0267   -2.1760   -0.0000 C   0  0  0  0  0  0  0  0  0  0  0  0
    9.0148   -0.6576   -0.0000 O   0  0  0  0  0  0  0  0  0  0  0  0
   10.3180   -2.9172   -0.0000 N   0  0  0  0  0  0  0  0  0  0  0  0
   10.3060   -4.4237   -0.0000 C   0  0  0  0  0  0  0  0  0  0  0  0
   11.6092   -2.1521   -0.0000 C   0  0  0  0  0  0  0  0  0  0  0  0
   11.5972   -5.1650   -0.0000 C   0  0  0  0  0  0  0  0  0  0  0  0
   12.9004   -2.9053   -0.0000 C   0  0  0  0  0  0  0  0  0  0  0  0
   12.9004   -4.3998   -0.0000 N   0  0  0  0  0  0  0  0  0  0  0  0
   14.1917   -5.1410   -0.0000 C   0  0  0  0  0  0  0  0  0  0  0  0
   14.1797   -6.6355   -0.0000 O   0  0  0  0  0  0  0  0  0  0  0  0
   15.4829   -4.3759   -0.0000 C   0  0  0  0  0  0  0  0  0  0  0  0
   16.7742   -5.1291   -0.0000 C   0  0  0  0  0  0  0  0  0  0  0  0
   15.4710   -2.8694   -0.0000 C   0  0  0  0  0  0  0  0  0  0  0  0
   18.0654   -4.3639   -0.0000 C   0  0  0  0  0  0  0  0  0  0  0  0
   16.7622   -2.1042   -0.0000 C   0  0  0  0  0  0  0  0  0  0  0  0
   18.0534   -2.8455   -0.0000 C   0  0  0  0  0  0  0  0  0  0  0  0
   19.3447   -2.0803   -0.0000 C   0  0  0  0  0  0  0  0  0  0  0  0
   19.3327   -0.5619   -0.0000 O   0  0  0  0  0  0  0  0  0  0  0  0
   20.6359   -2.8216   -0.0000 O   0  0  0  0  0  0  0  0  0  0  0  0
  1  2  1  0  0  0  0
  2  3  2  0  0  0  0
  2  4  1  0  0  0  0
  3  5  1  0  0  0  0
  3  6  1  0  0  0  0
  4  7  2  0  0  0  0
  6  8  2  0  0  0  0
  7  9  1  0  0  0  0
  8 10  1  0  0  0  0
 10 11  1  0  0  0  0
 11 12  1  1  0  0  0
 11 13  1  0  0  0  0
 13 14  1  0  0  0  0
 14 15  2  0  0  0  0
 14 16  1  0  0  0  0
 16 17  1  0  0  0  0
 16 18  1  0  0  0  0
 17 19  1  0  0  0  0
 18 20  1  0  0  0  0
 19 21  1  0  0  0  0
 21 22  1  0  0  0  0
 22 23  2  0  0  0  0
 22 24  1  0  0  0  0
 24 25  2  0  0  0  0
 24 26  1  0  0  0  0
 25 27  1  0  0  0  0
 26 28  2  0  0  0  0
 27 29  2  0  0  0  0
 29 30  1  0  0  0  0
 30 31  2  0  0  0  0
 30 32  1  0  0  0  0
  7  8  1  0  0  0  0
 20 21  1  0  0  0  0
 28 29  1  0  0  0  0
M  END
>  <MolRegNo>
1359987

>  <m>
=

>  <Value>
1000

>  <Unit>
nM

>  <Type>
IC50

>  <pValue>
6

>  <Ligand Efficiency>
0

>  <Binding Efficiency>
0

>  <Surface Efficiency>
0

>  <Assay Index>
668984

>  <Assay Category>


>  <Assay Organism>
Homo sapiens

>  <Target ID>
17045

>  <Target Name>
Cytochrome P450 3A4

>  <Target Organism>
Homo sapiens

>  <Target Description>
Target is a single protein chain

>  <Sequence Accession>
P08684

>  <Reference>
Bioorg Med Chem Lett 22 (17), 5545-5549 (2012)

>  <Pubmed ID>
22850208

>  <DOI>
10.1016/j.bmcl.2012.07.019

$$$$
1359988
Actelion Java MolfileCreator 1.0

 32 34  0  0  0  0  0  0  0  0999 V2000
    0.0000   -0.0000   -0.0000 F   0  0  0  0  0  0  0  0  0  0  0  0
    1.2926   -0.7420   -0.0000 C   0  0  0  0  0  0  0  0  0  0  0  0
    2.5851    0.0239   -0.0000 C   0  0  0  0  0  0  0  0  0  0  0  0
    1.2806   -2.2381   -0.0000 C   0  0  0  0  0  0  0  0  0  0  0  0
    2.5732    1.5439   -0.0000 F   0  0  0  0  0  0  0  0  0  0  0  0
    3.8777   -0.7181   -0.0000 C   0  0  0  0  0  0  0  0  0  0  0  0
    2.5732   -2.9801   -0.0000 C   0  0  0  0  0  0  0  0  0  0  0  0
    3.8657   -2.2261   -0.0000 C   0  0  0  0  0  0  0  0  0  0  0  0
    2.5612   -4.4761   -0.0000 F   0  0  0  0  0  0  0  0  0  0  0  0
    5.1583   -2.9681   -0.0000 C   0  0  0  0  0  0  0  0  0  0  0  0
    6.4509   -2.2021   -0.0000 C   0  0  0  0  0  0  0  0  0  0  0  0
    6.4389   -0.6822   -0.0000 N   0  0  0  0  0  0  0  0  0  0  0  0
    7.7434   -2.9442   -0.0000 C   0  0  0  0  0  0  0  0  0  0  0  0
    9.0360   -2.1782   -0.0000 C   0  0  0  0  0  0  0  0  0  0  0  0
    9.0240   -0.6583   -0.0000 O   0  0  0  0  0  0  0  0  0  0  0  0
   10.3285   -2.9202   -0.0000 N   0  0  0  0  0  0  0  0  0  0  0  0
   10.3166   -4.4282   -0.0000 C   0  0  0  0  0  0  0  0  0  0  0  0
   11.6211   -2.1543   -0.0000 C   0  0  0  0  0  0  0  0  0  0  0  0
   11.6091   -5.1703   -0.0000 C   0  0  0  0  0  0  0  0  0  0  0  0
   12.9137   -2.9083   -0.0000 C   0  0  0  0  0  0  0  0  0  0  0  0
   12.9137   -4.4043   -0.0000 N   0  0  0  0  0  0  0  0  0  0  0  0
   14.1943   -5.1463   -0.0000 C   0  0  0  0  0  0  0  0  0  0  0  0
   14.1823   -6.6423   -0.0000 O   0  0  0  0  0  0  0  0  0  0  0  0
   15.4868   -4.3804   -0.0000 C   0  0  0  0  0  0  0  0  0  0  0  0
   16.7794   -5.1344   -0.0000 C   0  0  0  0  0  0  0  0  0  0  0  0
   15.4749   -2.8724   -0.0000 C   0  0  0  0  0  0  0  0  0  0  0  0
   18.0720   -4.3684   -0.0000 C   0  0  0  0  0  0  0  0  0  0  0  0
   16.7674   -2.1064   -0.0000 C   0  0  0  0  0  0  0  0  0  0  0  0
   19.3645   -5.1104   -0.0000 C   0  0  0  0  0  0  0  0  0  0  0  0
   18.0600   -2.8484   -0.0000 C   0  0  0  0  0  0  0  0  0  0  0  0
   19.3526   -6.6064   -0.0000 O   0  0  0  0  0  0  0  0  0  0  0  0
   20.6571   -4.3445   -0.0000 O   0  0  0  0  0  0  0  0  0  0  0  0
  1  2  1  0  0  0  0
  2  3  2  0  0  0  0
  2  4  1  0  0  0  0
  3  5  1  0  0  0  0
  3  6  1  0  0  0  0
  4  7  2  0  0  0  0
  6  8  2  0  0  0  0
  7  9  1  0  0  0  0
  8 10  1  0  0  0  0
 10 11  1  0  0  0  0
 11 12  1  1  0  0  0
 11 13  1  0  0  0  0
 13 14  1  0  0  0  0
 14 15  2  0  0  0  0
 14 16  1  0  0  0  0
 16 17  1  0  0  0  0
 16 18  1  0  0  0  0
 17 19  1  0  0  0  0
 18 20  1  0  0  0  0
 19 21  1  0  0  0  0
 21 22  1  0  0  0  0
 22 23  2  0  0  0  0
 22 24  1  0  0  0  0
 24 25  2  0  0  0  0
 24 26  1  0  0  0  0
 25 27  1  0  0  0  0
 26 28  2  0  0  0  0
 27 29  1  0  0  0  0
 27 30  2  0  0  0  0
 29 31  2  0  0  0  0
 29 32  1  0  0  0  0
  7  8  1  0  0  0  0
 20 21  1  0  0  0  0
 28 30  1  0  0  0  0
M  END
>  <MolRegNo>
1359988

>  <m>
=

>  <Value>
1000

>  <Unit>
nM

>  <Type>
IC50

>  <pValue>
6

>  <Ligand Efficiency>
0

>  <Binding Efficiency>
0

>  <Surface Efficiency>
0

>  <Assay Index>
668984

>  <Assay Category>


>  <Assay Organism>
Homo sapiens

>  <Target ID>
17045

>  <Target Name>
Cytochrome P450 3A4

>  <Target Organism>
Homo sapiens

>  <Target Description>
Target is a single protein chain

>  <Sequence Accession>
P08684

>  <Reference>
Bioorg Med Chem Lett 22 (17), 5545-5549 (2012)

>  <Pubmed ID>
22850208

>  <DOI>
10.1016/j.bmcl.2012.07.019

$$$$
1359989
Actelion Java MolfileCreator 1.0

 36 39  0  0  0  0  0  0  0  0999 V2000
    0.0000   -0.0000   -0.0000 F   0  0  0  0  0  0  0  0  0  0  0  0
    1.2910   -0.7411   -0.0000 C   0  0  0  0  0  0  0  0  0  0  0  0
    2.5819    0.0239   -0.0000 C   0  0  0  0  0  0  0  0  0  0  0  0
    1.2790   -2.2353   -0.0000 C   0  0  0  0  0  0  0  0  0  0  0  0
    2.5700    1.5420   -0.0000 F   0  0  0  0  0  0  0  0  0  0  0  0
    3.8729   -0.7172   -0.0000 C   0  0  0  0  0  0  0  0  0  0  0  0
    2.5700   -2.9764   -0.0000 C   0  0  0  0  0  0  0  0  0  0  0  0
    3.8609   -2.2233   -0.0000 C   0  0  0  0  0  0  0  0  0  0  0  0
    2.5580   -4.4705   -0.0000 F   0  0  0  0  0  0  0  0  0  0  0  0
    5.1519   -2.9644   -0.0000 C   0  0  0  0  0  0  0  0  0  0  0  0
    6.4428   -2.1994   -0.0000 C   0  0  0  0  0  0  0  0  0  0  0  0
    6.4309   -0.6813   -0.0000 N   0  0  0  0  0  0  0  0  0  0  0  0
    7.7338   -2.9405   -0.0000 C   0  0  0  0  0  0  0  0  0  0  0  0
    9.0247   -2.1755   -0.0000 C   0  0  0  0  0  0  0  0  0  0  0  0
    9.0128   -0.6574   -0.0000 O   0  0  0  0  0  0  0  0  0  0  0  0
   10.3157   -2.9166   -0.0000 N   0  0  0  0  0  0  0  0  0  0  0  0
   10.3037   -4.4227   -0.0000 C   0  0  0  0  0  0  0  0  0  0  0  0
   11.6066   -2.1516   -0.0000 C   0  0  0  0  0  0  0  0  0  0  0  0
   11.5947   -5.1638   -0.0000 C   0  0  0  0  0  0  0  0  0  0  0  0
   12.8976   -2.9046   -0.0000 C   0  0  0  0  0  0  0  0  0  0  0  0
   12.8976   -4.3988   -0.0000 N   0  0  0  0  0  0  0  0  0  0  0  0
   14.1886   -5.1399   -0.0000 C   0  0  0  0  0  0  0  0  0  0  0  0
   14.1766   -6.6341   -0.0000 O   0  0  0  0  0  0  0  0  0  0  0  0
   15.4795   -4.3749   -0.0000 C   0  0  0  0  0  0  0  0  0  0  0  0
   16.7705   -5.1280   -0.0000 C   0  0  0  0  0  0  0  0  0  0  0  0
   15.4676   -2.8688   -0.0000 C   0  0  0  0  0  0  0  0  0  0  0  0
   18.0614   -4.3630   -0.0000 C   0  0  0  0  0  0  0  0  0  0  0  0
   16.7585   -2.1038   -0.0000 C   0  0  0  0  0  0  0  0  0  0  0  0
   18.0495   -2.8449   -0.0000 C   0  0  0  0  0  0  0  0  0  0  0  0
   19.3404   -2.0799   -0.0000 N   0  0  0  0  0  0  0  0  0  0  0  0
   20.6314   -2.8210   -0.0000 C   0  0  0  0  0  0  0  0  0  0  0  0
   19.3165   -0.5618   -0.0000 C   0  0  0  0  0  0  0  0  0  0  0  0
   21.9223   -2.0560   -0.0000 C   0  0  0  0  0  0  0  0  0  0  0  0
   20.6194    0.2032   -0.0000 C   0  0  0  0  0  0  0  0  0  0  0  0
   21.9223   -0.5379   -0.0000 N   0  0  0  0  0  0  0  0  0  0  0  0
   23.2133    0.2271   -0.0000 C   0  0  0  0  0  0  0  0  0  0  0  0
  1  2  1  0  0  0  0
  2  3  2  0  0  0  0
  2  4  1  0  0  0  0
  3  5  1  0  0  0  0
  3  6  1  0  0  0  0
  4  7  2  0  0  0  0
  6  8  2  0  0  0  0
  7  9  1  0  0  0  0
  8 10  1  0  0  0  0
 10 11  1  0  0  0  0
 11 12  1  1  0  0  0
 11 13  1  0  0  0  0
 13 14  1  0  0  0  0
 14 15  2  0  0  0  0
 14 16  1  0  0  0  0
 16 17  1  0  0  0  0
 16 18  1  0  0  0  0
 17 19  1  0  0  0  0
 18 20  1  0  0  0  0
 19 21  1  0  0  0  0
 21 22  1  0  0  0  0
 22 23  2  0  0  0  0
 22 24  1  0  0  0  0
 24 25  2  0  0  0  0
 24 26  1  0  0  0  0
 25 27  1  0  0  0  0
 26 28  2  0  0  0  0
 27 29  2  0  0  0  0
 29 30  1  0  0  0  0
 30 31  1  0  0  0  0
 30 32  1  0  0  0  0
 31 33  1  0  0  0  0
 32 34  1  0  0  0  0
 33 35  1  0  0  0  0
 35 36  1  0  0  0  0
  7  8  1  0  0  0  0
 20 21  1  0  0  0  0
 28 29  1  0  0  0  0
 34 35  1  0  0  0  0
M  END
>  <MolRegNo>
1359989

>  <m>
=

>  <Value>
1000

>  <Unit>
nM

>  <Type>
IC50

>  <pValue>
6

>  <Ligand Efficiency>
0

>  <Binding Efficiency>
0

>  <Surface Efficiency>
0

>  <Assay Index>
668984

>  <Assay Category>


>  <Assay Organism>
Homo sapiens

>  <Target ID>
17045

>  <Target Name>
Cytochrome P450 3A4

>  <Target Organism>
Homo sapiens

>  <Target Description>
Target is a single protein chain

>  <Sequence Accession>
P08684

>  <Reference>
Bioorg Med Chem Lett 22 (17), 5545-5549 (2012)

>  <Pubmed ID>
22850208

>  <DOI>
10.1016/j.bmcl.2012.07.019

$$$$
1361102
Actelion Java MolfileCreator 1.0

 35 39  0  0  0  0  0  0  0  0999 V2000
    0.0000   -0.0000   -0.0000 S   0  0  0  0  0  0  0  0  0  0  0  0
   -0.7749    1.3233   -0.0000 O   0  0  0  0  0  0  0  0  0  0  0  0
    0.7392    1.3233   -0.0000 O   0  0  0  0  0  0  0  0  0  0  0  0
    1.2995   -0.7392   -0.0000 C   0  0  0  0  0  0  0  0  0  0  0  0
   -1.3114   -0.7511   -0.0000 C   0  0  0  0  0  0  0  0  0  0  0  0
    2.5871    0.0238   -0.0000 C   0  0  0  0  0  0  0  0  0  0  0  0
    1.2995   -2.2294   -0.0000 C   0  0  0  0  0  0  0  0  0  0  0  0
    3.8746   -0.7153   -0.0000 C   0  0  0  0  0  0  0  0  0  0  0  0
    2.5871   -2.9567   -0.0000 C   0  0  0  0  0  0  0  0  0  0  0  0
    5.2934   -0.2265   -0.0000 S   0  0  0  0  0  0  0  0  0  0  0  0
    3.8627   -2.2056   -0.0000 C   0  0  0  0  0  0  0  0  0  0  0  0
    6.1637   -1.4306   -0.0000 C   0  0  0  0  0  0  0  0  0  0  0  0
    5.2814   -2.6586   -0.0000 N   0  0  0  0  0  0  0  0  0  0  0  0
    7.6658   -1.4187   -0.0000 N   0  0  0  0  0  0  0  0  0  0  0  0
    8.4169   -2.7063   -0.0000 C   0  0  0  0  0  0  0  0  0  0  0  0
    8.4169   -0.0954   -0.0000 C   0  0  0  0  0  0  0  0  0  0  0  0
    9.9072   -2.6944   -0.0000 C   0  0  0  0  0  0  0  0  0  0  0  0
    9.9072   -0.0835   -0.0000 C   0  0  0  0  0  0  0  0  0  0  0  0
   10.6463   -1.3830   -0.0000 N   0  0  0  0  0  0  0  0  0  0  0  0
   12.1366   -1.3710   -0.0000 C   0  0  0  0  0  0  0  0  0  0  0  0
   12.8757   -0.0596   -0.0000 O   0  0  0  0  0  0  0  0  0  0  0  0
   12.8757   -2.6705   -0.0000 C   0  0  0  0  0  0  0  0  0  0  0  0
   14.3660   -2.6705   -0.0000 C   0  0  0  0  0  0  0  0  0  0  0  0
   12.1127   -3.9700   -0.0000 C   0  0  0  0  0  0  0  0  0  0  0  0
   15.1171   -1.3591   -0.0000 C   0  0  0  0  0  0  0  0  0  0  0  0
   15.1052   -3.9700   -0.0000 C   0  0  0  0  0  0  0  0  0  0  0  0
   12.8519   -5.2576   -0.0000 C   0  0  0  0  0  0  0  0  0  0  0  0
   14.3541   -0.0358   -0.0000 O   0  0  0  0  0  0  0  0  0  0  0  0
   16.6073   -1.3591   -0.0000 N   0  0  0  0  0  0  0  0  0  0  0  0
   14.3302   -5.2576   -0.0000 C   0  0  0  0  0  0  0  0  0  0  0  0
   17.3584   -0.0477   -0.0000 C   0  0  0  0  0  0  0  0  0  0  0  0
   18.8487   -0.0477   -0.0000 C   0  0  0  0  0  0  0  0  0  0  0  0
   16.0351    0.7153   -0.0000 C   0  0  0  0  0  0  0  0  0  0  0  0
   17.3465    1.4783   -0.0000 C   0  0  0  0  0  0  0  0  0  0  0  0
   20.3389   -0.0477   -0.0000 N   0  0  0  0  0  0  0  0  0  0  0  0
  1  2  2  0  0  0  0
  1  3  2  0  0  0  0
  1  4  1  0  0  0  0
  1  5  1  0  0  0  0
  4  6  2  0  0  0  0
  4  7  1  0  0  0  0
  6  8  1  0  0  0  0
  7  9  2  0  0  0  0
  8 10  1  0  0  0  0
  8 11  2  0  0  0  0
 10 12  1  0  0  0  0
 11 13  1  0  0  0  0
 12 14  1  0  0  0  0
 14 15  1  0  0  0  0
 14 16  1  0  0  0  0
 15 17  1  0  0  0  0
 16 18  1  0  0  0  0
 17 19  1  0  0  0  0
 19 20  1  0  0  0  0
 20 21  2  0  0  0  0
 22 20  1  6  0  0  0
 22 23  1  0  0  0  0
 22 24  1  0  0  0  0
 23 25  1  1  0  0  0
 23 26  1  0  0  0  0
 24 27  1  0  0  0  0
 25 28  2  0  0  0  0
 25 29  1  0  0  0  0
 26 30  1  0  0  0  0
 29 31  1  0  0  0  0
 31 32  1  0  0  0  0
 31 33  1  0  0  0  0
 31 34  1  0  0  0  0
 32 35  3  0  0  0  0
  9 11  1  0  0  0  0
 12 13  2  0  0  0  0
 18 19  1  0  0  0  0
 27 30  1  0  0  0  0
 33 34  1  0  0  0  0
M  END
>  <MolRegNo>
1361102

>  <m>
=

>  <Value>
630.96

>  <Unit>
nM

>  <Type>
IC50

>  <pValue>
6.2

>  <Ligand Efficiency>
0

>  <Binding Efficiency>
0

>  <Surface Efficiency>
0

>  <Assay Index>
669446

>  <Assay Category>


>  <Assay Organism>
Homo sapiens

>  <Target ID>
17045

>  <Target Name>
Cytochrome P450 3A4

>  <Target Organism>
Homo sapiens

>  <Target Description>
Target is a single protein chain

>  <Sequence Accession>
P08684

>  <Reference>
Bioorg Med Chem Lett 22 (17), 5563-5568 (2012)

>  <Pubmed ID>
22858142

>  <DOI>
10.1016/j.bmcl.2012.07.012

$$$$
1361103
Actelion Java MolfileCreator 1.0

 32 35  0  0  0  0  0  0  0  0999 V2000
    0.0000   -0.0000   -0.0000 S   0  0  0  0  0  0  0  0  0  0  0  0
    0.8681   -1.2011   -0.0000 C   0  0  0  0  0  0  0  0  0  0  0  0
   -1.4389   -0.4519   -0.0000 C   0  0  0  0  0  0  0  0  0  0  0  0
   -0.0238   -2.4021   -0.0000 N   0  0  0  0  0  0  0  0  0  0  0  0
    2.3665   -1.1892   -0.0000 N   0  0  0  0  0  0  0  0  0  0  0  0
   -1.4508   -1.9384   -0.0000 C   0  0  0  0  0  0  0  0  0  0  0  0
   -2.6756    0.4400   -0.0000 C   0  0  0  0  0  0  0  0  0  0  0  0
    3.1156   -2.4735   -0.0000 C   0  0  0  0  0  0  0  0  0  0  0  0
    3.1156    0.1308   -0.0000 C   0  0  0  0  0  0  0  0  0  0  0  0
   -4.0551   -0.1665   -0.0000 C   0  0  0  0  0  0  0  0  0  0  0  0
   -3.4486    1.7600   -0.0000 C   0  0  0  0  0  0  0  0  0  0  0  0
   -1.9384    1.7600   -0.0000 C   0  0  0  0  0  0  0  0  0  0  0  0
    4.6021   -2.4616   -0.0000 C   0  0  0  0  0  0  0  0  0  0  0  0
    4.6021    0.1427   -0.0000 C   0  0  0  0  0  0  0  0  0  0  0  0
   -5.4345   -0.7730   -0.0000 N   0  0  0  0  0  0  0  0  0  0  0  0
    5.3394   -1.1535   -0.0000 N   0  0  0  0  0  0  0  0  0  0  0  0
    6.8259   -1.1416   -0.0000 C   0  0  0  0  0  0  0  0  0  0  0  0
    7.5632    0.1665   -0.0000 O   0  0  0  0  0  0  0  0  0  0  0  0
    7.5632   -2.4378   -0.0000 C   0  0  0  0  0  0  0  0  0  0  0  0
    9.0496   -2.4378   -0.0000 C   0  0  0  0  0  0  0  0  0  0  0  0
    6.8021   -3.7340   -0.0000 C   0  0  0  0  0  0  0  0  0  0  0  0
    9.7988   -1.1297   -0.0000 C   0  0  0  0  0  0  0  0  0  0  0  0
    9.7869   -3.7340   -0.0000 C   0  0  0  0  0  0  0  0  0  0  0  0
    7.5275   -5.0183   -0.0000 C   0  0  0  0  0  0  0  0  0  0  0  0
    9.0378    0.1903   -0.0000 O   0  0  0  0  0  0  0  0  0  0  0  0
   11.2853   -1.1297   -0.0000 N   0  0  0  0  0  0  0  0  0  0  0  0
    9.0140   -5.0183   -0.0000 C   0  0  0  0  0  0  0  0  0  0  0  0
   12.0345    0.1784   -0.0000 C   0  0  0  0  0  0  0  0  0  0  0  0
   13.5210    0.1784   -0.0000 C   0  0  0  0  0  0  0  0  0  0  0  0
   10.7145    0.9395   -0.0000 C   0  0  0  0  0  0  0  0  0  0  0  0
   12.0226    1.7005   -0.0000 C   0  0  0  0  0  0  0  0  0  0  0  0
   15.0074    0.1784   -0.0000 N   0  0  0  0  0  0  0  0  0  0  0  0
  1  2  1  0  0  0  0
  1  3  1  0  0  0  0
  2  4  2  0  0  0  0
  2  5  1  0  0  0  0
  3  6  2  0  0  0  0
  3  7  1  0  0  0  0
  5  8  1  0  0  0  0
  5  9  1  0  0  0  0
  7 10  1  0  0  0  0
  7 11  1  0  0  0  0
  7 12  1  0  0  0  0
  8 13  1  0  0  0  0
  9 14  1  0  0  0  0
 10 15  3  0  0  0  0
 13 16  1  0  0  0  0
 16 17  1  0  0  0  0
 17 18  2  0  0  0  0
 19 17  1  6  0  0  0
 19 20  1  0  0  0  0
 19 21  1  0  0  0  0
 20 22  1  1  0  0  0
 20 23  1  0  0  0  0
 21 24  1  0  0  0  0
 22 25  2  0  0  0  0
 22 26  1  0  0  0  0
 23 27  1  0  0  0  0
 26 28  1  0  0  0  0
 28 29  1  0  0  0  0
 28 30  1  0  0  0  0
 28 31  1  0  0  0  0
 29 32  3  0  0  0  0
  4  6  1  0  0  0  0
 14 16  1  0  0  0  0
 24 27  1  0  0  0  0
 30 31  1  0  0  0  0
M  END
>  <MolRegNo>
1361103

>  <m>
=

>  <Value>
3981.1

>  <Unit>
nM

>  <Type>
IC50

>  <pValue>
5.4

>  <Ligand Efficiency>
0

>  <Binding Efficiency>
0

>  <Surface Efficiency>
0

>  <Assay Index>
669446

>  <Assay Category>


>  <Assay Organism>
Homo sapiens

>  <Target ID>
17045

>  <Target Name>
Cytochrome P450 3A4

>  <Target Organism>
Homo sapiens

>  <Target Description>
Target is a single protein chain

>  <Sequence Accession>
P08684

>  <Reference>
Bioorg Med Chem Lett 22 (17), 5563-5568 (2012)

>  <Pubmed ID>
22858142

>  <DOI>
10.1016/j.bmcl.2012.07.012

$$$$
1360307
Actelion Java MolfileCreator 1.0

 29 32  0  0  0  0  0  0  0  0999 V2000
    0.0000   -0.0000   -0.0000 S   0  0  0  0  0  0  0  0  0  0  0  0
    0.7391    1.3114   -0.0000 O   0  0  0  0  0  0  0  0  0  0  0  0
   -0.7630    1.3114   -0.0000 O   0  0  0  0  0  0  0  0  0  0  0  0
    1.2875   -0.7391   -0.0000 C   0  0  0  0  0  0  0  0  0  0  0  0
   -1.3114   -0.7391   -0.0000 C   0  0  0  0  0  0  0  0  0  0  0  0
    2.5750    0.0238   -0.0000 C   0  0  0  0  0  0  0  0  0  0  0  0
    1.2756   -2.2293   -0.0000 C   0  0  0  0  0  0  0  0  0  0  0  0
   -2.6227    0.0238   -0.0000 F   0  0  0  0  0  0  0  0  0  0  0  0
   -1.3233   -2.2293   -0.0000 F   0  0  0  0  0  0  0  0  0  0  0  0
   -2.6347   -1.4663   -0.0000 F   0  0  0  0  0  0  0  0  0  0  0  0
    3.8626   -0.7034   -0.0000 C   0  0  0  0  0  0  0  0  0  0  0  0
    2.5631   -2.9685   -0.0000 C   0  0  0  0  0  0  0  0  0  0  0  0
    5.2931   -0.2146   -0.0000 N   0  0  0  0  0  0  0  0  0  0  0  0
    3.8626   -2.2055   -0.0000 C   0  0  0  0  0  0  0  0  0  0  0  0
    6.1753   -1.4187   -0.0000 C   0  0  0  0  0  0  0  0  0  0  0  0
    5.2931   -2.6585   -0.0000 N   0  0  0  0  0  0  0  0  0  0  0  0
    7.6655   -1.3948   -0.0000 C   0  0  0  0  0  0  0  0  0  0  0  0
    8.3927   -0.0835   -0.0000 C   0  0  0  0  0  0  0  0  0  0  0  0
    8.4166   -2.6823   -0.0000 C   0  0  0  0  0  0  0  0  0  0  0  0
    9.8829   -0.0596   -0.0000 N   0  0  0  0  0  0  0  0  0  0  0  0
    9.9068   -2.6585   -0.0000 C   0  0  0  0  0  0  0  0  0  0  0  0
   10.6340   -1.3471   -0.0000 C   0  0  0  0  0  0  0  0  0  0  0  0
   10.6101    1.2518   -0.0000 C   0  0  0  0  0  0  0  0  0  0  0  0
   12.1242   -1.3233   -0.0000 O   0  0  0  0  0  0  0  0  0  0  0  0
   12.1003    1.2756   -0.0000 C   0  0  0  0  0  0  0  0  0  0  0  0
    9.8352    2.5512   -0.0000 C   0  0  0  0  0  0  0  0  0  0  0  0
   12.8275    2.5989   -0.0000 C   0  0  0  0  0  0  0  0  0  0  0  0
   10.5505    3.8745   -0.0000 C   0  0  0  0  0  0  0  0  0  0  0  0
   12.0526    3.9103   -0.0000 C   0  0  0  0  0  0  0  0  0  0  0  0
  1  2  2  0  0  0  0
  1  3  2  0  0  0  0
  1  4  1  0  0  0  0
  1  5  1  0  0  0  0
  4  6  2  0  0  0  0
  4  7  1  0  0  0  0
  5  8  1  0  0  0  0
  5  9  1  0  0  0  0
  5 10  1  0  0  0  0
  6 11  1  0  0  0  0
  7 12  2  0  0  0  0
 11 13  1  0  0  0  0
 11 14  2  0  0  0  0
 13 15  2  0  0  0  0
 14 16  1  0  0  0  0
 15 17  1  0  0  0  0
 17 18  2  0  0  0  0
 17 19  1  0  0  0  0
 18 20  1  0  0  0  0
 19 21  2  0  0  0  0
 20 22  1  0  0  0  0
 20 23  1  0  0  0  0
 22 24  2  0  0  0  0
 23 25  2  0  0  0  0
 23 26  1  0  0  0  0
 25 27  1  0  0  0  0
 26 28  2  0  0  0  0
 27 29  2  0  0  0  0
 12 14  1  0  0  0  0
 15 16  1  0  0  0  0
 21 22  1  0  0  0  0
 28 29  1  0  0  0  0
M  END
>  <MolRegNo>
1360307

>  <m>
=

>  <Value>
5100

>  <Unit>
nM

>  <Type>
IC50

>  <pValue>
5.29

>  <Ligand Efficiency>
0

>  <Binding Efficiency>
0

>  <Surface Efficiency>
0

>  <Assay Index>
669278

>  <Assay Category>


>  <Assay Organism>
Homo sapiens

>  <Target ID>
17045

>  <Target Name>
Cytochrome P450 3A4

>  <Target Organism>
Homo sapiens

>  <Target Description>
Target is a single protein chain

>  <Sequence Accession>
P08684

>  <Reference>
Bioorg Med Chem Lett 22 (17), 5498-5502 (2012)

>  <Pubmed ID>
22853998

>  <DOI>
10.1016/j.bmcl.2012.07.020

$$$$
1360304
Actelion Java MolfileCreator 1.0

 26 29  0  0  0  0  0  0  0  0999 V2000
    0.0000   -0.0000   -0.0000 S   0  0  0  0  0  0  0  0  0  0  0  0
    0.7390    1.3111   -0.0000 O   0  0  0  0  0  0  0  0  0  0  0  0
   -0.7628    1.3111   -0.0000 O   0  0  0  0  0  0  0  0  0  0  0  0
    1.2872   -0.7390   -0.0000 C   0  0  0  0  0  0  0  0  0  0  0  0
   -1.3111   -0.7390   -0.0000 C   0  0  0  0  0  0  0  0  0  0  0  0
    2.5745    0.0238   -0.0000 C   0  0  0  0  0  0  0  0  0  0  0  0
    1.2753   -2.2288   -0.0000 C   0  0  0  0  0  0  0  0  0  0  0  0
   -2.6222    0.0238   -0.0000 C   0  0  0  0  0  0  0  0  0  0  0  0
    3.8617   -0.7151   -0.0000 C   0  0  0  0  0  0  0  0  0  0  0  0
    2.5626   -2.9678   -0.0000 C   0  0  0  0  0  0  0  0  0  0  0  0
    5.2920   -0.2265   -0.0000 N   0  0  0  0  0  0  0  0  0  0  0  0
    3.8617   -2.2169   -0.0000 C   0  0  0  0  0  0  0  0  0  0  0  0
    6.1740   -1.4303   -0.0000 C   0  0  0  0  0  0  0  0  0  0  0  0
    5.2920   -2.6698   -0.0000 N   0  0  0  0  0  0  0  0  0  0  0  0
    7.6639   -1.4064   -0.0000 C   0  0  0  0  0  0  0  0  0  0  0  0
    8.3909   -0.0954   -0.0000 C   0  0  0  0  0  0  0  0  0  0  0  0
    8.4148   -2.6937   -0.0000 C   0  0  0  0  0  0  0  0  0  0  0  0
    9.8808   -0.0715   -0.0000 C   0  0  0  0  0  0  0  0  0  0  0  0
    9.9046   -2.6698   -0.0000 C   0  0  0  0  0  0  0  0  0  0  0  0
   10.6317   -1.3588   -0.0000 N   0  0  0  0  0  0  0  0  0  0  0  0
   10.6079    1.2396   -0.0000 C   0  0  0  0  0  0  0  0  0  0  0  0
   12.0977    1.2634   -0.0000 C   0  0  0  0  0  0  0  0  0  0  0  0
    9.8331    2.5387   -0.0000 C   0  0  0  0  0  0  0  0  0  0  0  0
   12.8248    2.5864   -0.0000 C   0  0  0  0  0  0  0  0  0  0  0  0
   10.5483    3.8617   -0.0000 C   0  0  0  0  0  0  0  0  0  0  0  0
   12.0500    3.8975   -0.0000 C   0  0  0  0  0  0  0  0  0  0  0  0
  1  2  2  0  0  0  0
  1  3  2  0  0  0  0
  1  4  1  0  0  0  0
  1  5  1  0  0  0  0
  4  6  2  0  0  0  0
  4  7  1  0  0  0  0
  5  8  1  0  0  0  0
  6  9  1  0  0  0  0
  7 10  2  0  0  0  0
  9 11  1  0  0  0  0
  9 12  2  0  0  0  0
 11 13  2  0  0  0  0
 12 14  1  0  0  0  0
 13 15  1  0  0  0  0
 15 16  2  0  0  0  0
 15 17  1  0  0  0  0
 16 18  1  0  0  0  0
 17 19  2  0  0  0  0
 18 20  2  0  0  0  0
 18 21  1  0  0  0  0
 21 22  2  0  0  0  0
 21 23  1  0  0  0  0
 22 24  1  0  0  0  0
 23 25  2  0  0  0  0
 24 26  2  0  0  0  0
 10 12  1  0  0  0  0
 13 14  1  0  0  0  0
 19 20  1  0  0  0  0
 25 26  1  0  0  0  0
M  END
>  <MolRegNo>
1360304

>  <m>
=

>  <Value>
8700

>  <Unit>
nM

>  <Type>
IC50

>  <pValue>
5.06

>  <Ligand Efficiency>
0

>  <Binding Efficiency>
0

>  <Surface Efficiency>
0

>  <Assay Index>
669278

>  <Assay Category>


>  <Assay Organism>
Homo sapiens

>  <Target ID>
17045

>  <Target Name>
Cytochrome P450 3A4

>  <Target Organism>
Homo sapiens

>  <Target Description>
Target is a single protein chain

>  <Sequence Accession>
P08684

>  <Reference>
Bioorg Med Chem Lett 22 (17), 5498-5502 (2012)

>  <Pubmed ID>
22853998

>  <DOI>
10.1016/j.bmcl.2012.07.020

$$$$
1360303
Actelion Java MolfileCreator 1.0

 26 29  0  0  0  0  0  0  0  0999 V2000
    0.0000   -0.0000   -0.0000 S   0  0  0  0  0  0  0  0  0  0  0  0
    0.7388    1.3107   -0.0000 O   0  0  0  0  0  0  0  0  0  0  0  0
   -0.7626    1.3107   -0.0000 O   0  0  0  0  0  0  0  0  0  0  0  0
    1.2869   -0.7388   -0.0000 C   0  0  0  0  0  0  0  0  0  0  0  0
   -1.3107   -0.7388   -0.0000 C   0  0  0  0  0  0  0  0  0  0  0  0
    2.5738    0.0238   -0.0000 C   0  0  0  0  0  0  0  0  0  0  0  0
    1.2750   -2.2282   -0.0000 C   0  0  0  0  0  0  0  0  0  0  0  0
   -2.6214    0.0238   -0.0000 C   0  0  0  0  0  0  0  0  0  0  0  0
    3.8607   -0.7149   -0.0000 C   0  0  0  0  0  0  0  0  0  0  0  0
    2.5619   -2.9670   -0.0000 C   0  0  0  0  0  0  0  0  0  0  0  0
    5.2905   -0.2264   -0.0000 N   0  0  0  0  0  0  0  0  0  0  0  0
    3.8607   -2.2163   -0.0000 C   0  0  0  0  0  0  0  0  0  0  0  0
    6.1723   -1.4299   -0.0000 C   0  0  0  0  0  0  0  0  0  0  0  0
    5.2905   -2.6691   -0.0000 N   0  0  0  0  0  0  0  0  0  0  0  0
    7.6618   -1.4060   -0.0000 C   0  0  0  0  0  0  0  0  0  0  0  0
    8.4124   -2.6929   -0.0000 C   0  0  0  0  0  0  0  0  0  0  0  0
    8.3886   -0.0953   -0.0000 C   0  0  0  0  0  0  0  0  0  0  0  0
    9.9019   -2.6691   -0.0000 N   0  0  0  0  0  0  0  0  0  0  0  0
    9.8781   -0.0715   -0.0000 C   0  0  0  0  0  0  0  0  0  0  0  0
   10.6407   -1.3465   -0.0000 C   0  0  0  0  0  0  0  0  0  0  0  0
   10.6049    1.2392   -0.0000 C   0  0  0  0  0  0  0  0  0  0  0  0
   12.0944    1.2631   -0.0000 C   0  0  0  0  0  0  0  0  0  0  0  0
    9.8304    2.5380   -0.0000 C   0  0  0  0  0  0  0  0  0  0  0  0
   12.8212    2.5857   -0.0000 C   0  0  0  0  0  0  0  0  0  0  0  0
   10.5454    3.8607   -0.0000 C   0  0  0  0  0  0  0  0  0  0  0  0
   12.0467    3.8964   -0.0000 C   0  0  0  0  0  0  0  0  0  0  0  0
  1  2  2  0  0  0  0
  1  3  2  0  0  0  0
  1  4  1  0  0  0  0
  1  5  1  0  0  0  0
  4  6  2  0  0  0  0
  4  7  1  0  0  0  0
  5  8  1  0  0  0  0
  6  9  1  0  0  0  0
  7 10  2  0  0  0  0
  9 11  1  0  0  0  0
  9 12  2  0  0  0  0
 11 13  2  0  0  0  0
 12 14  1  0  0  0  0
 13 15  1  0  0  0  0
 15 16  2  0  0  0  0
 15 17  1  0  0  0  0
 16 18  1  0  0  0  0
 17 19  2  0  0  0  0
 18 20  2  0  0  0  0
 19 21  1  0  0  0  0
 21 22  2  0  0  0  0
 21 23  1  0  0  0  0
 22 24  1  0  0  0  0
 23 25  2  0  0  0  0
 24 26  2  0  0  0  0
 10 12  1  0  0  0  0
 13 14  1  0  0  0  0
 19 20  1  0  0  0  0
 25 26  1  0  0  0  0
M  END
>  <MolRegNo>
1360303

>  <m>
=

>  <Value>
7800

>  <Unit>
nM

>  <Type>
IC50

>  <pValue>
5.11

>  <Ligand Efficiency>
0

>  <Binding Efficiency>
0

>  <Surface Efficiency>
0

>  <Assay Index>
669278

>  <Assay Category>


>  <Assay Organism>
Homo sapiens

>  <Target ID>
17045

>  <Target Name>
Cytochrome P450 3A4

>  <Target Organism>
Homo sapiens

>  <Target Description>
Target is a single protein chain

>  <Sequence Accession>
P08684

>  <Reference>
Bioorg Med Chem Lett 22 (17), 5498-5502 (2012)

>  <Pubmed ID>
22853998

>  <DOI>
10.1016/j.bmcl.2012.07.020

$$$$
1360302
Actelion Java MolfileCreator 1.0

 26 29  0  0  0  0  0  0  0  0999 V2000
    0.0000   -0.0000   -0.0000 S   0  0  0  0  0  0  0  0  0  0  0  0
    0.7388    1.3107   -0.0000 O   0  0  0  0  0  0  0  0  0  0  0  0
   -0.7626    1.3107   -0.0000 O   0  0  0  0  0  0  0  0  0  0  0  0
    1.2869   -0.7388   -0.0000 C   0  0  0  0  0  0  0  0  0  0  0  0
   -1.3107   -0.7388   -0.0000 C   0  0  0  0  0  0  0  0  0  0  0  0
    2.5738    0.0238   -0.0000 C   0  0  0  0  0  0  0  0  0  0  0  0
    1.2750   -2.2282   -0.0000 C   0  0  0  0  0  0  0  0  0  0  0  0
   -2.6214    0.0238   -0.0000 C   0  0  0  0  0  0  0  0  0  0  0  0
    3.8607   -0.7149   -0.0000 C   0  0  0  0  0  0  0  0  0  0  0  0
    2.5619   -2.9670   -0.0000 C   0  0  0  0  0  0  0  0  0  0  0  0
    5.2905   -0.2264   -0.0000 N   0  0  0  0  0  0  0  0  0  0  0  0
    3.8607   -2.2163   -0.0000 C   0  0  0  0  0  0  0  0  0  0  0  0
    6.1723   -1.4299   -0.0000 C   0  0  0  0  0  0  0  0  0  0  0  0
    5.2905   -2.6691   -0.0000 N   0  0  0  0  0  0  0  0  0  0  0  0
    7.6618   -1.4060   -0.0000 C   0  0  0  0  0  0  0  0  0  0  0  0
    8.4124   -2.6929   -0.0000 N   0  0  0  0  0  0  0  0  0  0  0  0
    8.3886   -0.0953   -0.0000 C   0  0  0  0  0  0  0  0  0  0  0  0
    9.9019   -2.6691   -0.0000 C   0  0  0  0  0  0  0  0  0  0  0  0
    9.8781   -0.0715   -0.0000 C   0  0  0  0  0  0  0  0  0  0  0  0
   10.6407   -1.3465   -0.0000 C   0  0  0  0  0  0  0  0  0  0  0  0
   10.6049    1.2392   -0.0000 C   0  0  0  0  0  0  0  0  0  0  0  0
   12.0944    1.2631   -0.0000 C   0  0  0  0  0  0  0  0  0  0  0  0
    9.8304    2.5380   -0.0000 C   0  0  0  0  0  0  0  0  0  0  0  0
   12.8212    2.5857   -0.0000 C   0  0  0  0  0  0  0  0  0  0  0  0
   10.5454    3.8607   -0.0000 C   0  0  0  0  0  0  0  0  0  0  0  0
   12.0467    3.8964   -0.0000 C   0  0  0  0  0  0  0  0  0  0  0  0
  1  2  2  0  0  0  0
  1  3  2  0  0  0  0
  1  4  1  0  0  0  0
  1  5  1  0  0  0  0
  4  6  2  0  0  0  0
  4  7  1  0  0  0  0
  5  8  1  0  0  0  0
  6  9  1  0  0  0  0
  7 10  2  0  0  0  0
  9 11  1  0  0  0  0
  9 12  2  0  0  0  0
 11 13  2  0  0  0  0
 12 14  1  0  0  0  0
 13 15  1  0  0  0  0
 15 16  2  0  0  0  0
 15 17  1  0  0  0  0
 16 18  1  0  0  0  0
 17 19  2  0  0  0  0
 18 20  2  0  0  0  0
 19 21  1  0  0  0  0
 21 22  2  0  0  0  0
 21 23  1  0  0  0  0
 22 24  1  0  0  0  0
 23 25  2  0  0  0  0
 24 26  2  0  0  0  0
 10 12  1  0  0  0  0
 13 14  1  0  0  0  0
 19 20  1  0  0  0  0
 25 26  1  0  0  0  0
M  END
>  <MolRegNo>
1360302

>  <m>
=

>  <Value>
7000

>  <Unit>
nM

>  <Type>
IC50

>  <pValue>
5.16

>  <Ligand Efficiency>
0

>  <Binding Efficiency>
0

>  <Surface Efficiency>
0

>  <Assay Index>
669278

>  <Assay Category>


>  <Assay Organism>
Homo sapiens

>  <Target ID>
17045

>  <Target Name>
Cytochrome P450 3A4

>  <Target Organism>
Homo sapiens

>  <Target Description>
Target is a single protein chain

>  <Sequence Accession>
P08684

>  <Reference>
Bioorg Med Chem Lett 22 (17), 5498-5502 (2012)

>  <Pubmed ID>
22853998

>  <DOI>
10.1016/j.bmcl.2012.07.020

$$$$
1360301
Actelion Java MolfileCreator 1.0

 26 29  0  0  0  0  0  0  0  0999 V2000
    0.0000   -0.0000   -0.0000 S   0  0  0  0  0  0  0  0  0  0  0  0
    0.7390    1.3111   -0.0000 O   0  0  0  0  0  0  0  0  0  0  0  0
   -0.7628    1.3111   -0.0000 O   0  0  0  0  0  0  0  0  0  0  0  0
    1.2872   -0.7390   -0.0000 C   0  0  0  0  0  0  0  0  0  0  0  0
   -1.3111   -0.7390   -0.0000 C   0  0  0  0  0  0  0  0  0  0  0  0
    2.5745    0.0238   -0.0000 C   0  0  0  0  0  0  0  0  0  0  0  0
    1.2753   -2.2288   -0.0000 C   0  0  0  0  0  0  0  0  0  0  0  0
   -2.6222    0.0238   -0.0000 C   0  0  0  0  0  0  0  0  0  0  0  0
    3.8617   -0.7151   -0.0000 C   0  0  0  0  0  0  0  0  0  0  0  0
    2.5626   -2.9678   -0.0000 C   0  0  0  0  0  0  0  0  0  0  0  0
    5.2920   -0.2265   -0.0000 N   0  0  0  0  0  0  0  0  0  0  0  0
    3.8617   -2.2169   -0.0000 C   0  0  0  0  0  0  0  0  0  0  0  0
    6.1740   -1.4303   -0.0000 C   0  0  0  0  0  0  0  0  0  0  0  0
    5.2920   -2.6698   -0.0000 N   0  0  0  0  0  0  0  0  0  0  0  0
    7.6639   -1.4064   -0.0000 C   0  0  0  0  0  0  0  0  0  0  0  0
    8.3909   -0.0954   -0.0000 N   0  0  0  0  0  0  0  0  0  0  0  0
    8.4148   -2.6937   -0.0000 C   0  0  0  0  0  0  0  0  0  0  0  0
    9.8808   -0.0715   -0.0000 C   0  0  0  0  0  0  0  0  0  0  0  0
    9.9046   -2.6698   -0.0000 C   0  0  0  0  0  0  0  0  0  0  0  0
   10.6079    1.2396   -0.0000 C   0  0  0  0  0  0  0  0  0  0  0  0
   10.6317   -1.3588   -0.0000 C   0  0  0  0  0  0  0  0  0  0  0  0
   12.0977    1.2634   -0.0000 C   0  0  0  0  0  0  0  0  0  0  0  0
    9.8331    2.5387   -0.0000 C   0  0  0  0  0  0  0  0  0  0  0  0
   12.8248    2.5864   -0.0000 C   0  0  0  0  0  0  0  0  0  0  0  0
   10.5483    3.8617   -0.0000 C   0  0  0  0  0  0  0  0  0  0  0  0
   12.0500    3.8975   -0.0000 C   0  0  0  0  0  0  0  0  0  0  0  0
  1  2  2  0  0  0  0
  1  3  2  0  0  0  0
  1  4  1  0  0  0  0
  1  5  1  0  0  0  0
  4  6  2  0  0  0  0
  4  7  1  0  0  0  0
  5  8  1  0  0  0  0
  6  9  1  0  0  0  0
  7 10  2  0  0  0  0
  9 11  1  0  0  0  0
  9 12  2  0  0  0  0
 11 13  2  0  0  0  0
 12 14  1  0  0  0  0
 13 15  1  0  0  0  0
 15 16  2  0  0  0  0
 15 17  1  0  0  0  0
 16 18  1  0  0  0  0
 17 19  2  0  0  0  0
 18 20  1  0  0  0  0
 18 21  2  0  0  0  0
 20 22  2  0  0  0  0
 20 23  1  0  0  0  0
 22 24  1  0  0  0  0
 23 25  2  0  0  0  0
 24 26  2  0  0  0  0
 10 12  1  0  0  0  0
 13 14  1  0  0  0  0
 19 21  1  0  0  0  0
 25 26  1  0  0  0  0
M  END
>  <MolRegNo>
1360301

>  <m>
=

>  <Value>
7700

>  <Unit>
nM

>  <Type>
IC50

>  <pValue>
5.11

>  <Ligand Efficiency>
0

>  <Binding Efficiency>
0

>  <Surface Efficiency>
0

>  <Assay Index>
669278

>  <Assay Category>


>  <Assay Organism>
Homo sapiens

>  <Target ID>
17045

>  <Target Name>
Cytochrome P450 3A4

>  <Target Organism>
Homo sapiens

>  <Target Description>
Target is a single protein chain

>  <Sequence Accession>
P08684

>  <Reference>
Bioorg Med Chem Lett 22 (17), 5498-5502 (2012)

>  <Pubmed ID>
22853998

>  <DOI>
10.1016/j.bmcl.2012.07.020

$$$$
1360300
Actelion Java MolfileCreator 1.0

 27 30  0  0  0  0  0  0  0  0999 V2000
    0.0000   -0.0000   -0.0000 S   0  0  0  0  0  0  0  0  0  0  0  0
    0.7391    1.3114   -0.0000 O   0  0  0  0  0  0  0  0  0  0  0  0
   -0.7630    1.3114   -0.0000 O   0  0  0  0  0  0  0  0  0  0  0  0
    1.2875   -0.7391   -0.0000 C   0  0  0  0  0  0  0  0  0  0  0  0
   -1.3114   -0.7391   -0.0000 C   0  0  0  0  0  0  0  0  0  0  0  0
    2.5751    0.0238   -0.0000 C   0  0  0  0  0  0  0  0  0  0  0  0
    1.2756   -2.2293   -0.0000 C   0  0  0  0  0  0  0  0  0  0  0  0
   -2.6227    0.0238   -0.0000 C   0  0  0  0  0  0  0  0  0  0  0  0
    3.8626   -0.7153   -0.0000 C   0  0  0  0  0  0  0  0  0  0  0  0
    2.5631   -2.9685   -0.0000 C   0  0  0  0  0  0  0  0  0  0  0  0
    5.2932   -0.2265   -0.0000 N   0  0  0  0  0  0  0  0  0  0  0  0
    3.8626   -2.2174   -0.0000 C   0  0  0  0  0  0  0  0  0  0  0  0
    6.1754   -1.4306   -0.0000 C   0  0  0  0  0  0  0  0  0  0  0  0
    5.2932   -2.6704   -0.0000 N   0  0  0  0  0  0  0  0  0  0  0  0
    7.6656   -1.4067   -0.0000 C   0  0  0  0  0  0  0  0  0  0  0  0
    8.3928   -0.0954   -0.0000 C   0  0  0  0  0  0  0  0  0  0  0  0
    8.4166   -2.6943   -0.0000 C   0  0  0  0  0  0  0  0  0  0  0  0
    9.8830   -0.0715   -0.0000 C   0  0  0  0  0  0  0  0  0  0  0  0
    9.9068   -2.6704   -0.0000 C   0  0  0  0  0  0  0  0  0  0  0  0
   10.6102    1.2398   -0.0000 C   0  0  0  0  0  0  0  0  0  0  0  0
   10.6340   -1.3591   -0.0000 C   0  0  0  0  0  0  0  0  0  0  0  0
   12.1004    1.2637   -0.0000 C   0  0  0  0  0  0  0  0  0  0  0  0
    9.8353    2.5393   -0.0000 C   0  0  0  0  0  0  0  0  0  0  0  0
   12.1242   -1.3352   -0.0000 C   0  0  0  0  0  0  0  0  0  0  0  0
   12.8276    2.5870   -0.0000 C   0  0  0  0  0  0  0  0  0  0  0  0
   10.5506    3.8626   -0.0000 C   0  0  0  0  0  0  0  0  0  0  0  0
   12.0527    3.8984   -0.0000 C   0  0  0  0  0  0  0  0  0  0  0  0
  1  2  2  0  0  0  0
  1  3  2  0  0  0  0
  1  4  1  0  0  0  0
  1  5  1  0  0  0  0
  4  6  2  0  0  0  0
  4  7  1  0  0  0  0
  5  8  1  0  0  0  0
  6  9  1  0  0  0  0
  7 10  2  0  0  0  0
  9 11  1  0  0  0  0
  9 12  2  0  0  0  0
 11 13  2  0  0  0  0
 12 14  1  0  0  0  0
 13 15  1  0  0  0  0
 15 16  2  0  0  0  0
 15 17  1  0  0  0  0
 16 18  1  0  0  0  0
 17 19  2  0  0  0  0
 18 20  1  0  0  0  0
 18 21  2  0  0  0  0
 20 22  2  0  0  0  0
 20 23  1  0  0  0  0
 21 24  1  0  0  0  0
 22 25  1  0  0  0  0
 23 26  2  0  0  0  0
 25 27  2  0  0  0  0
 10 12  1  0  0  0  0
 13 14  1  0  0  0  0
 19 21  1  0  0  0  0
 26 27  1  0  0  0  0
M  END
>  <MolRegNo>
1360300

>  <m>
=

>  <Value>
5700

>  <Unit>
nM

>  <Type>
IC50

>  <pValue>
5.24

>  <Ligand Efficiency>
0

>  <Binding Efficiency>
0

>  <Surface Efficiency>
0

>  <Assay Index>
669278

>  <Assay Category>


>  <Assay Organism>
Homo sapiens

>  <Target ID>
17045

>  <Target Name>
Cytochrome P450 3A4

>  <Target Organism>
Homo sapiens

>  <Target Description>
Target is a single protein chain

>  <Sequence Accession>
P08684

>  <Reference>
Bioorg Med Chem Lett 22 (17), 5498-5502 (2012)

>  <Pubmed ID>
22853998

>  <DOI>
10.1016/j.bmcl.2012.07.020

$$$$
1360299
Actelion Java MolfileCreator 1.0

 27 30  0  0  0  0  0  0  0  0999 V2000
    0.0000   -0.0000   -0.0000 S   0  0  0  0  0  0  0  0  0  0  0  0
    0.7388    1.3108   -0.0000 O   0  0  0  0  0  0  0  0  0  0  0  0
   -0.7627    1.3108   -0.0000 O   0  0  0  0  0  0  0  0  0  0  0  0
    1.2870   -0.7388   -0.0000 C   0  0  0  0  0  0  0  0  0  0  0  0
   -1.3108   -0.7388   -0.0000 C   0  0  0  0  0  0  0  0  0  0  0  0
    2.5740    0.0238   -0.0000 C   0  0  0  0  0  0  0  0  0  0  0  0
    1.2751   -2.2284   -0.0000 C   0  0  0  0  0  0  0  0  0  0  0  0
   -2.6217    0.0238   -0.0000 C   0  0  0  0  0  0  0  0  0  0  0  0
    3.8610   -0.7150   -0.0000 C   0  0  0  0  0  0  0  0  0  0  0  0
    2.5621   -2.9673   -0.0000 C   0  0  0  0  0  0  0  0  0  0  0  0
    5.2910   -0.2264   -0.0000 N   0  0  0  0  0  0  0  0  0  0  0  0
    3.8610   -2.2165   -0.0000 C   0  0  0  0  0  0  0  0  0  0  0  0
    6.1729   -1.4300   -0.0000 C   0  0  0  0  0  0  0  0  0  0  0  0
    5.2910   -2.6694   -0.0000 N   0  0  0  0  0  0  0  0  0  0  0  0
    7.6625   -1.4062   -0.0000 C   0  0  0  0  0  0  0  0  0  0  0  0
    8.4132   -2.6932   -0.0000 C   0  0  0  0  0  0  0  0  0  0  0  0
    8.3894   -0.0953   -0.0000 C   0  0  0  0  0  0  0  0  0  0  0  0
    9.9028   -2.6694   -0.0000 C   0  0  0  0  0  0  0  0  0  0  0  0
    7.6505   -3.9802   -0.0000 C   0  0  0  0  0  0  0  0  0  0  0  0
    9.8790   -0.0715   -0.0000 C   0  0  0  0  0  0  0  0  0  0  0  0
   10.6417   -1.3466   -0.0000 C   0  0  0  0  0  0  0  0  0  0  0  0
   10.6059    1.2393   -0.0000 C   0  0  0  0  0  0  0  0  0  0  0  0
   12.0955    1.2632   -0.0000 C   0  0  0  0  0  0  0  0  0  0  0  0
    9.8313    2.5383   -0.0000 C   0  0  0  0  0  0  0  0  0  0  0  0
   12.8224    2.5859   -0.0000 C   0  0  0  0  0  0  0  0  0  0  0  0
   10.5463    3.8610   -0.0000 C   0  0  0  0  0  0  0  0  0  0  0  0
   12.0478    3.8968   -0.0000 C   0  0  0  0  0  0  0  0  0  0  0  0
  1  2  2  0  0  0  0
  1  3  2  0  0  0  0
  1  4  1  0  0  0  0
  1  5  1  0  0  0  0
  4  6  2  0  0  0  0
  4  7  1  0  0  0  0
  5  8  1  0  0  0  0
  6  9  1  0  0  0  0
  7 10  2  0  0  0  0
  9 11  1  0  0  0  0
  9 12  2  0  0  0  0
 11 13  2  0  0  0  0
 12 14  1  0  0  0  0
 13 15  1  0  0  0  0
 15 16  2  0  0  0  0
 15 17  1  0  0  0  0
 16 18  1  0  0  0  0
 16 19  1  0  0  0  0
 17 20  2  0  0  0  0
 18 21  2  0  0  0  0
 20 22  1  0  0  0  0
 22 23  2  0  0  0  0
 22 24  1  0  0  0  0
 23 25  1  0  0  0  0
 24 26  2  0  0  0  0
 25 27  2  0  0  0  0
 10 12  1  0  0  0  0
 13 14  1  0  0  0  0
 20 21  1  0  0  0  0
 26 27  1  0  0  0  0
M  END
>  <MolRegNo>
1360299

>  <m>
=

>  <Value>
5900

>  <Unit>
nM

>  <Type>
IC50

>  <pValue>
5.23

>  <Ligand Efficiency>
0

>  <Binding Efficiency>
0

>  <Surface Efficiency>
0

>  <Assay Index>
669278

>  <Assay Category>


>  <Assay Organism>
Homo sapiens

>  <Target ID>
17045

>  <Target Name>
Cytochrome P450 3A4

>  <Target Organism>
Homo sapiens

>  <Target Description>
Target is a single protein chain

>  <Sequence Accession>
P08684

>  <Reference>
Bioorg Med Chem Lett 22 (17), 5498-5502 (2012)

>  <Pubmed ID>
22853998

>  <DOI>
10.1016/j.bmcl.2012.07.020

$$$$
1360298
Actelion Java MolfileCreator 1.0

 27 30  0  0  0  0  0  0  0  0999 V2000
    0.0000   -0.0000   -0.0000 S   0  0  0  0  0  0  0  0  0  0  0  0
    0.7386    1.3104   -0.0000 O   0  0  0  0  0  0  0  0  0  0  0  0
   -0.7624    1.3104   -0.0000 O   0  0  0  0  0  0  0  0  0  0  0  0
    1.2866   -0.7386   -0.0000 C   0  0  0  0  0  0  0  0  0  0  0  0
   -1.3104   -0.7386   -0.0000 C   0  0  0  0  0  0  0  0  0  0  0  0
    2.5732    0.0238   -0.0000 C   0  0  0  0  0  0  0  0  0  0  0  0
    1.2747   -2.2277   -0.0000 C   0  0  0  0  0  0  0  0  0  0  0  0
   -2.6208    0.0238   -0.0000 C   0  0  0  0  0  0  0  0  0  0  0  0
    3.8598   -0.7148   -0.0000 C   0  0  0  0  0  0  0  0  0  0  0  0
    2.5613   -2.9663   -0.0000 C   0  0  0  0  0  0  0  0  0  0  0  0
    5.2893   -0.2263   -0.0000 N   0  0  0  0  0  0  0  0  0  0  0  0
    3.8598   -2.2158   -0.0000 C   0  0  0  0  0  0  0  0  0  0  0  0
    6.1709   -1.4295   -0.0000 C   0  0  0  0  0  0  0  0  0  0  0  0
    5.2893   -2.6685   -0.0000 N   0  0  0  0  0  0  0  0  0  0  0  0
    7.6600   -1.4057   -0.0000 C   0  0  0  0  0  0  0  0  0  0  0  0
    8.3867   -0.0953   -0.0000 C   0  0  0  0  0  0  0  0  0  0  0  0
    8.4105   -2.6923   -0.0000 C   0  0  0  0  0  0  0  0  0  0  0  0
    9.8758   -0.0715   -0.0000 C   0  0  0  0  0  0  0  0  0  0  0  0
    7.6123    1.2151   -0.0000 C   0  0  0  0  0  0  0  0  0  0  0  0
    9.8996   -2.6685   -0.0000 C   0  0  0  0  0  0  0  0  0  0  0  0
   10.6025    1.2389   -0.0000 C   0  0  0  0  0  0  0  0  0  0  0  0
   10.6263   -1.3581   -0.0000 C   0  0  0  0  0  0  0  0  0  0  0  0
   12.0916    1.2628   -0.0000 C   0  0  0  0  0  0  0  0  0  0  0  0
    9.8281    2.5374   -0.0000 C   0  0  0  0  0  0  0  0  0  0  0  0
   12.8183    2.5851   -0.0000 C   0  0  0  0  0  0  0  0  0  0  0  0
   10.5429    3.8598   -0.0000 C   0  0  0  0  0  0  0  0  0  0  0  0
   12.0439    3.8955   -0.0000 C   0  0  0  0  0  0  0  0  0  0  0  0
  1  2  2  0  0  0  0
  1  3  2  0  0  0  0
  1  4  1  0  0  0  0
  1  5  1  0  0  0  0
  4  6  2  0  0  0  0
  4  7  1  0  0  0  0
  5  8  1  0  0  0  0
  6  9  1  0  0  0  0
  7 10  2  0  0  0  0
  9 11  1  0  0  0  0
  9 12  2  0  0  0  0
 11 13  2  0  0  0  0
 12 14  1  0  0  0  0
 13 15  1  0  0  0  0
 15 16  2  0  0  0  0
 15 17  1  0  0  0  0
 16 18  1  0  0  0  0
 16 19  1  0  0  0  0
 17 20  2  0  0  0  0
 18 21  1  0  0  0  0
 18 22  2  0  0  0  0
 21 23  2  0  0  0  0
 21 24  1  0  0  0  0
 23 25  1  0  0  0  0
 24 26  2  0  0  0  0
 25 27  2  0  0  0  0
 10 12  1  0  0  0  0
 13 14  1  0  0  0  0
 20 22  1  0  0  0  0
 26 27  1  0  0  0  0
M  END
>  <MolRegNo>
1360298

>  <m>
=

>  <Value>
5200

>  <Unit>
nM

>  <Type>
IC50

>  <pValue>
5.28

>  <Ligand Efficiency>
0

>  <Binding Efficiency>
0

>  <Surface Efficiency>
0

>  <Assay Index>
669278

>  <Assay Category>


>  <Assay Organism>
Homo sapiens

>  <Target ID>
17045

>  <Target Name>
Cytochrome P450 3A4

>  <Target Organism>
Homo sapiens

>  <Target Description>
Target is a single protein chain

>  <Sequence Accession>
P08684

>  <Reference>
Bioorg Med Chem Lett 22 (17), 5498-5502 (2012)

>  <Pubmed ID>
22853998

>  <DOI>
10.1016/j.bmcl.2012.07.020

$$$$
1360297
Actelion Java MolfileCreator 1.0

 27 30  0  0  0  0  0  0  0  0999 V2000
    0.0000   -0.0000   -0.0000 Cl  0  0  0  0  0  0  0  0  0  0  0  0
   -1.5046   -0.0000   -0.0000 C   0  0  0  0  0  0  0  0  0  0  0  0
   -2.2805    1.3048   -0.0000 C   0  0  0  0  0  0  0  0  0  0  0  0
   -2.2569   -1.2813   -0.0000 C   0  0  0  0  0  0  0  0  0  0  0  0
   -1.5634    2.6096   -0.0000 C   0  0  0  0  0  0  0  0  0  0  0  0
   -3.7851    1.3048   -0.0000 C   0  0  0  0  0  0  0  0  0  0  0  0
   -3.7616   -1.2813   -0.0000 C   0  0  0  0  0  0  0  0  0  0  0  0
   -0.0823    2.6331   -0.0000 C   0  0  0  0  0  0  0  0  0  0  0  0
   -2.3275    3.9026   -0.0000 C   0  0  0  0  0  0  0  0  0  0  0  0
   -4.5256    0.0235   -0.0000 C   0  0  0  0  0  0  0  0  0  0  0  0
    0.6348    3.9379   -0.0000 C   0  0  0  0  0  0  0  0  0  0  0  0
   -1.6104    5.2074   -0.0000 C   0  0  0  0  0  0  0  0  0  0  0  0
   -6.0303    0.0235   -0.0000 C   0  0  0  0  0  0  0  0  0  0  0  0
   -0.1293    5.2309   -0.0000 C   0  0  0  0  0  0  0  0  0  0  0  0
   -6.9354    1.2460   -0.0000 N   0  0  0  0  0  0  0  0  0  0  0  0
   -6.9119   -1.1872   -0.0000 N   0  0  0  0  0  0  0  0  0  0  0  0
   -8.3695    0.7876   -0.0000 C   0  0  0  0  0  0  0  0  0  0  0  0
   -8.3577   -0.7170   -0.0000 C   0  0  0  0  0  0  0  0  0  0  0  0
   -9.6743    1.5399   -0.0000 C   0  0  0  0  0  0  0  0  0  0  0  0
   -9.6625   -1.4459   -0.0000 C   0  0  0  0  0  0  0  0  0  0  0  0
  -10.9673    0.8111   -0.0000 C   0  0  0  0  0  0  0  0  0  0  0  0
  -10.9673   -0.6935   -0.0000 C   0  0  0  0  0  0  0  0  0  0  0  0
  -12.2721    1.5634   -0.0000 S   0  0  0  0  0  0  0  0  0  0  0  0
  -11.5433    2.8682   -0.0000 O   0  0  0  0  0  0  0  0  0  0  0  0
  -13.0244    2.8682   -0.0000 O   0  0  0  0  0  0  0  0  0  0  0  0
  -13.5769    0.8346   -0.0000 C   0  0  0  0  0  0  0  0  0  0  0  0
  -14.8817    1.5869   -0.0000 C   0  0  0  0  0  0  0  0  0  0  0  0
  1  2  1  0  0  0  0
  2  3  2  0  0  0  0
  2  4  1  0  0  0  0
  3  5  1  0  0  0  0
  3  6  1  0  0  0  0
  4  7  2  0  0  0  0
  5  8  2  0  0  0  0
  5  9  1  0  0  0  0
  6 10  2  0  0  0  0
  8 11  1  0  0  0  0
  9 12  2  0  0  0  0
 10 13  1  0  0  0  0
 11 14  2  0  0  0  0
 13 15  2  0  0  0  0
 13 16  1  0  0  0  0
 15 17  1  0  0  0  0
 16 18  1  0  0  0  0
 17 19  1  0  0  0  0
 18 20  1  0  0  0  0
 19 21  2  0  0  0  0
 20 22  2  0  0  0  0
 21 23  1  0  0  0  0
 23 24  2  0  0  0  0
 23 25  2  0  0  0  0
 23 26  1  0  0  0  0
 26 27  1  0  0  0  0
  7 10  1  0  0  0  0
 12 14  1  0  0  0  0
 17 18  2  0  0  0  0
 21 22  1  0  0  0  0
M  END
>  <MolRegNo>
1360297

>  <m>
=

>  <Value>
2600

>  <Unit>
nM

>  <Type>
IC50

>  <pValue>
5.58

>  <Ligand Efficiency>
0

>  <Binding Efficiency>
0

>  <Surface Efficiency>
0

>  <Assay Index>
669278

>  <Assay Category>


>  <Assay Organism>
Homo sapiens

>  <Target ID>
17045

>  <Target Name>
Cytochrome P450 3A4

>  <Target Organism>
Homo sapiens

>  <Target Description>
Target is a single protein chain

>  <Sequence Accession>
P08684

>  <Reference>
Bioorg Med Chem Lett 22 (17), 5498-5502 (2012)

>  <Pubmed ID>
22853998

>  <DOI>
10.1016/j.bmcl.2012.07.020

$$$$
1360296
Actelion Java MolfileCreator 1.0

 27 30  0  0  0  0  0  0  0  0999 V2000
    0.0000   -0.0000   -0.0000 Cl  0  0  0  0  0  0  0  0  0  0  0  0
    0.7293    1.3057   -0.0000 C   0  0  0  0  0  0  0  0  0  0  0  0
   -0.0353    2.6115   -0.0000 C   0  0  0  0  0  0  0  0  0  0  0  0
    2.2115    1.3293   -0.0000 C   0  0  0  0  0  0  0  0  0  0  0  0
   -1.5410    2.6115   -0.0000 C   0  0  0  0  0  0  0  0  0  0  0  0
    0.6823    3.9172   -0.0000 C   0  0  0  0  0  0  0  0  0  0  0  0
    2.9408    2.6350   -0.0000 C   0  0  0  0  0  0  0  0  0  0  0  0
   -2.4468    3.8348   -0.0000 N   0  0  0  0  0  0  0  0  0  0  0  0
   -2.4350    1.3998   -0.0000 N   0  0  0  0  0  0  0  0  0  0  0  0
    2.1644    3.9407   -0.0000 C   0  0  0  0  0  0  0  0  0  0  0  0
   -3.8819    3.3761   -0.0000 C   0  0  0  0  0  0  0  0  0  0  0  0
   -3.8819    1.8704   -0.0000 C   0  0  0  0  0  0  0  0  0  0  0  0
    2.8820    5.2464   -0.0000 C   0  0  0  0  0  0  0  0  0  0  0  0
   -5.1876    4.1289   -0.0000 C   0  0  0  0  0  0  0  0  0  0  0  0
   -5.1876    1.1410   -0.0000 C   0  0  0  0  0  0  0  0  0  0  0  0
    4.3642    5.2700   -0.0000 C   0  0  0  0  0  0  0  0  0  0  0  0
    2.1174    6.5404   -0.0000 C   0  0  0  0  0  0  0  0  0  0  0  0
   -6.4816    3.3996   -0.0000 C   0  0  0  0  0  0  0  0  0  0  0  0
   -6.4933    1.8939   -0.0000 C   0  0  0  0  0  0  0  0  0  0  0  0
    5.0817    6.5757   -0.0000 C   0  0  0  0  0  0  0  0  0  0  0  0
    2.8350    7.8461   -0.0000 C   0  0  0  0  0  0  0  0  0  0  0  0
   -7.7873    4.1524   -0.0000 S   0  0  0  0  0  0  0  0  0  0  0  0
    4.3171    7.8697   -0.0000 C   0  0  0  0  0  0  0  0  0  0  0  0
   -7.0580    5.4582   -0.0000 O   0  0  0  0  0  0  0  0  0  0  0  0
   -8.5402    5.4582   -0.0000 O   0  0  0  0  0  0  0  0  0  0  0  0
   -9.0930    3.4231   -0.0000 C   0  0  0  0  0  0  0  0  0  0  0  0
  -10.3988    4.1760   -0.0000 C   0  0  0  0  0  0  0  0  0  0  0  0
  1  2  1  0  0  0  0
  2  3  2  0  0  0  0
  2  4  1  0  0  0  0
  3  5  1  0  0  0  0
  3  6  1  0  0  0  0
  4  7  2  0  0  0  0
  5  8  2  0  0  0  0
  5  9  1  0  0  0  0
  6 10  2  0  0  0  0
  8 11  1  0  0  0  0
  9 12  1  0  0  0  0
 10 13  1  0  0  0  0
 11 14  1  0  0  0  0
 12 15  1  0  0  0  0
 13 16  2  0  0  0  0
 13 17  1  0  0  0  0
 14 18  2  0  0  0  0
 15 19  2  0  0  0  0
 16 20  1  0  0  0  0
 17 21  2  0  0  0  0
 18 22  1  0  0  0  0
 20 23  2  0  0  0  0
 22 24  2  0  0  0  0
 22 25  2  0  0  0  0
 22 26  1  0  0  0  0
 26 27  1  0  0  0  0
  7 10  1  0  0  0  0
 11 12  2  0  0  0  0
 18 19  1  0  0  0  0
 21 23  1  0  0  0  0
M  END
>  <MolRegNo>
1360296

>  <m>
=

>  <Value>
5000

>  <Unit>
nM

>  <Type>
IC50

>  <pValue>
5.3

>  <Ligand Efficiency>
0

>  <Binding Efficiency>
0

>  <Surface Efficiency>
0

>  <Assay Index>
669278

>  <Assay Category>


>  <Assay Organism>
Homo sapiens

>  <Target ID>
17045

>  <Target Name>
Cytochrome P450 3A4

>  <Target Organism>
Homo sapiens

>  <Target Description>
Target is a single protein chain

>  <Sequence Accession>
P08684

>  <Reference>
Bioorg Med Chem Lett 22 (17), 5498-5502 (2012)

>  <Pubmed ID>
22853998

>  <DOI>
10.1016/j.bmcl.2012.07.020

$$$$
1360295
Actelion Java MolfileCreator 1.0

 27 30  0  0  0  0  0  0  0  0999 V2000
    0.0000   -0.0000   -0.0000 Cl  0  0  0  0  0  0  0  0  0  0  0  0
    0.7430   -1.2737   -0.0000 C   0  0  0  0  0  0  0  0  0  0  0  0
    2.2289   -1.2501   -0.0000 C   0  0  0  0  0  0  0  0  0  0  0  0
    0.0000   -2.5591   -0.0000 C   0  0  0  0  0  0  0  0  0  0  0  0
    2.9483    0.0590   -0.0000 C   0  0  0  0  0  0  0  0  0  0  0  0
    2.9837   -2.5355   -0.0000 C   0  0  0  0  0  0  0  0  0  0  0  0
   -1.5095   -2.5591   -0.0000 C   0  0  0  0  0  0  0  0  0  0  0  0
    0.7430   -3.8446   -0.0000 C   0  0  0  0  0  0  0  0  0  0  0  0
    4.4342    0.0826   -0.0000 C   0  0  0  0  0  0  0  0  0  0  0  0
    2.1817    1.3562   -0.0000 C   0  0  0  0  0  0  0  0  0  0  0  0
    2.2289   -3.8210   -0.0000 C   0  0  0  0  0  0  0  0  0  0  0  0
   -2.4176   -1.3326   -0.0000 N   0  0  0  0  0  0  0  0  0  0  0  0
   -2.3940   -3.7738   -0.0000 N   0  0  0  0  0  0  0  0  0  0  0  0
    5.1536    1.3916   -0.0000 C   0  0  0  0  0  0  0  0  0  0  0  0
    2.9011    2.6652   -0.0000 C   0  0  0  0  0  0  0  0  0  0  0  0
   -3.8564   -1.7926   -0.0000 C   0  0  0  0  0  0  0  0  0  0  0  0
   -3.8446   -3.3021   -0.0000 C   0  0  0  0  0  0  0  0  0  0  0  0
    4.3870    2.6888   -0.0000 C   0  0  0  0  0  0  0  0  0  0  0  0
   -5.1654   -1.0378   -0.0000 C   0  0  0  0  0  0  0  0  0  0  0  0
   -5.1536   -4.0333   -0.0000 C   0  0  0  0  0  0  0  0  0  0  0  0
   -6.4626   -1.7690   -0.0000 C   0  0  0  0  0  0  0  0  0  0  0  0
   -6.4626   -3.2785   -0.0000 C   0  0  0  0  0  0  0  0  0  0  0  0
   -7.7717   -1.0142   -0.0000 S   0  0  0  0  0  0  0  0  0  0  0  0
   -7.0405    0.2948   -0.0000 O   0  0  0  0  0  0  0  0  0  0  0  0
   -8.5264    0.2948   -0.0000 O   0  0  0  0  0  0  0  0  0  0  0  0
   -9.0807   -1.7454   -0.0000 C   0  0  0  0  0  0  0  0  0  0  0  0
  -10.3898   -0.9906   -0.0000 C   0  0  0  0  0  0  0  0  0  0  0  0
  1  2  1  0  0  0  0
  2  3  2  0  0  0  0
  2  4  1  0  0  0  0
  3  5  1  0  0  0  0
  3  6  1  0  0  0  0
  4  7  1  0  0  0  0
  4  8  2  0  0  0  0
  5  9  2  0  0  0  0
  5 10  1  0  0  0  0
  6 11  2  0  0  0  0
  7 12  2  0  0  0  0
  7 13  1  0  0  0  0
  9 14  1  0  0  0  0
 10 15  2  0  0  0  0
 12 16  1  0  0  0  0
 13 17  1  0  0  0  0
 14 18  2  0  0  0  0
 16 19  1  0  0  0  0
 17 20  1  0  0  0  0
 19 21  2  0  0  0  0
 20 22  2  0  0  0  0
 21 23  1  0  0  0  0
 23 24  2  0  0  0  0
 23 25  2  0  0  0  0
 23 26  1  0  0  0  0
 26 27  1  0  0  0  0
  8 11  1  0  0  0  0
 15 18  1  0  0  0  0
 16 17  2  0  0  0  0
 21 22  1  0  0  0  0
M  END
>  <MolRegNo>
1360295

>  <m>
=

>  <Value>
3800

>  <Unit>
nM

>  <Type>
IC50

>  <pValue>
5.42

>  <Ligand Efficiency>
0

>  <Binding Efficiency>
0

>  <Surface Efficiency>
0

>  <Assay Index>
669278

>  <Assay Category>


>  <Assay Organism>
Homo sapiens

>  <Target ID>
17045

>  <Target Name>
Cytochrome P450 3A4

>  <Target Organism>
Homo sapiens

>  <Target Description>
Target is a single protein chain

>  <Sequence Accession>
P08684

>  <Reference>
Bioorg Med Chem Lett 22 (17), 5498-5502 (2012)

>  <Pubmed ID>
22853998

>  <DOI>
10.1016/j.bmcl.2012.07.020

$$$$
1360294
Actelion Java MolfileCreator 1.0

 27 30  0  0  0  0  0  0  0  0999 V2000
    0.0000   -0.0000   -0.0000 S   0  0  0  0  0  0  0  0  0  0  0  0
    0.7391    1.3114   -0.0000 O   0  0  0  0  0  0  0  0  0  0  0  0
   -0.7630    1.3114   -0.0000 O   0  0  0  0  0  0  0  0  0  0  0  0
    1.2875   -0.7391   -0.0000 C   0  0  0  0  0  0  0  0  0  0  0  0
   -1.3114   -0.7391   -0.0000 C   0  0  0  0  0  0  0  0  0  0  0  0
    2.5751    0.0238   -0.0000 C   0  0  0  0  0  0  0  0  0  0  0  0
    1.2756   -2.2293   -0.0000 C   0  0  0  0  0  0  0  0  0  0  0  0
   -2.6227    0.0238   -0.0000 C   0  0  0  0  0  0  0  0  0  0  0  0
    3.8626   -0.7153   -0.0000 C   0  0  0  0  0  0  0  0  0  0  0  0
    2.5631   -2.9685   -0.0000 C   0  0  0  0  0  0  0  0  0  0  0  0
    5.2932   -0.2265   -0.0000 N   0  0  0  0  0  0  0  0  0  0  0  0
    3.8626   -2.2174   -0.0000 C   0  0  0  0  0  0  0  0  0  0  0  0
    6.1754   -1.4306   -0.0000 C   0  0  0  0  0  0  0  0  0  0  0  0
    5.2932   -2.6704   -0.0000 N   0  0  0  0  0  0  0  0  0  0  0  0
    7.6656   -1.4067   -0.0000 C   0  0  0  0  0  0  0  0  0  0  0  0
    8.3928   -0.0954   -0.0000 C   0  0  0  0  0  0  0  0  0  0  0  0
    8.4166   -2.6943   -0.0000 C   0  0  0  0  0  0  0  0  0  0  0  0
    9.8830   -0.0715   -0.0000 C   0  0  0  0  0  0  0  0  0  0  0  0
    9.9068   -2.6704   -0.0000 C   0  0  0  0  0  0  0  0  0  0  0  0
   10.6340   -1.3591   -0.0000 C   0  0  0  0  0  0  0  0  0  0  0  0
   10.6102    1.2398   -0.0000 C   0  0  0  0  0  0  0  0  0  0  0  0
   12.1242   -1.3352   -0.0000 F   0  0  0  0  0  0  0  0  0  0  0  0
   12.1004    1.2637   -0.0000 C   0  0  0  0  0  0  0  0  0  0  0  0
    9.8353    2.5393   -0.0000 C   0  0  0  0  0  0  0  0  0  0  0  0
   12.8276    2.5870   -0.0000 C   0  0  0  0  0  0  0  0  0  0  0  0
   10.5506    3.8626   -0.0000 C   0  0  0  0  0  0  0  0  0  0  0  0
   12.0527    3.8984   -0.0000 C   0  0  0  0  0  0  0  0  0  0  0  0
  1  2  2  0  0  0  0
  1  3  2  0  0  0  0
  1  4  1  0  0  0  0
  1  5  1  0  0  0  0
  4  6  2  0  0  0  0
  4  7  1  0  0  0  0
  5  8  1  0  0  0  0
  6  9  1  0  0  0  0
  7 10  2  0  0  0  0
  9 11  1  0  0  0  0
  9 12  2  0  0  0  0
 11 13  2  0  0  0  0
 12 14  1  0  0  0  0
 13 15  1  0  0  0  0
 15 16  2  0  0  0  0
 15 17  1  0  0  0  0
 16 18  1  0  0  0  0
 17 19  2  0  0  0  0
 18 20  2  0  0  0  0
 18 21  1  0  0  0  0
 20 22  1  0  0  0  0
 21 23  2  0  0  0  0
 21 24  1  0  0  0  0
 23 25  1  0  0  0  0
 24 26  2  0  0  0  0
 25 27  2  0  0  0  0
 10 12  1  0  0  0  0
 13 14  1  0  0  0  0
 19 20  1  0  0  0  0
 26 27  1  0  0  0  0
M  END
>  <MolRegNo>
1360294

>  <m>
=

>  <Value>
5600

>  <Unit>
nM

>  <Type>
IC50

>  <pValue>
5.25

>  <Ligand Efficiency>
0

>  <Binding Efficiency>
0

>  <Surface Efficiency>
0

>  <Assay Index>
669278

>  <Assay Category>


>  <Assay Organism>
Homo sapiens

>  <Target ID>
17045

>  <Target Name>
Cytochrome P450 3A4

>  <Target Organism>
Homo sapiens

>  <Target Description>
Target is a single protein chain

>  <Sequence Accession>
P08684

>  <Reference>
Bioorg Med Chem Lett 22 (17), 5498-5502 (2012)

>  <Pubmed ID>
22853998

>  <DOI>
10.1016/j.bmcl.2012.07.020

$$$$
1360293
Actelion Java MolfileCreator 1.0

 27 30  0  0  0  0  0  0  0  0999 V2000
    0.0000   -0.0000   -0.0000 S   0  0  0  0  0  0  0  0  0  0  0  0
    0.7387    1.3105   -0.0000 O   0  0  0  0  0  0  0  0  0  0  0  0
   -0.7625    1.3105   -0.0000 O   0  0  0  0  0  0  0  0  0  0  0  0
    1.2867   -0.7387   -0.0000 C   0  0  0  0  0  0  0  0  0  0  0  0
   -1.3105   -0.7387   -0.0000 C   0  0  0  0  0  0  0  0  0  0  0  0
    2.5734    0.0238   -0.0000 C   0  0  0  0  0  0  0  0  0  0  0  0
    1.2748   -2.2279   -0.0000 C   0  0  0  0  0  0  0  0  0  0  0  0
   -2.6211    0.0238   -0.0000 C   0  0  0  0  0  0  0  0  0  0  0  0
    3.8601   -0.7148   -0.0000 C   0  0  0  0  0  0  0  0  0  0  0  0
    2.5615   -2.9666   -0.0000 C   0  0  0  0  0  0  0  0  0  0  0  0
    5.2898   -0.2264   -0.0000 N   0  0  0  0  0  0  0  0  0  0  0  0
    3.8601   -2.2160   -0.0000 C   0  0  0  0  0  0  0  0  0  0  0  0
    6.1715   -1.4297   -0.0000 C   0  0  0  0  0  0  0  0  0  0  0  0
    5.2898   -2.6687   -0.0000 N   0  0  0  0  0  0  0  0  0  0  0  0
    7.6607   -1.4059   -0.0000 C   0  0  0  0  0  0  0  0  0  0  0  0
    8.4113   -2.6926   -0.0000 C   0  0  0  0  0  0  0  0  0  0  0  0
    8.3875   -0.0953   -0.0000 C   0  0  0  0  0  0  0  0  0  0  0  0
    7.6488   -3.9912   -0.0000 F   0  0  0  0  0  0  0  0  0  0  0  0
    9.9006   -2.6687   -0.0000 C   0  0  0  0  0  0  0  0  0  0  0  0
    9.8767   -0.0715   -0.0000 C   0  0  0  0  0  0  0  0  0  0  0  0
   10.6392   -1.3463   -0.0000 C   0  0  0  0  0  0  0  0  0  0  0  0
   10.6035    1.2391   -0.0000 C   0  0  0  0  0  0  0  0  0  0  0  0
   12.0927    1.2629   -0.0000 C   0  0  0  0  0  0  0  0  0  0  0  0
    9.8291    2.5377   -0.0000 C   0  0  0  0  0  0  0  0  0  0  0  0
   12.8195    2.5853   -0.0000 C   0  0  0  0  0  0  0  0  0  0  0  0
   10.5439    3.8601   -0.0000 C   0  0  0  0  0  0  0  0  0  0  0  0
   12.0451    3.8959   -0.0000 C   0  0  0  0  0  0  0  0  0  0  0  0
  1  2  2  0  0  0  0
  1  3  2  0  0  0  0
  1  4  1  0  0  0  0
  1  5  1  0  0  0  0
  4  6  2  0  0  0  0
  4  7  1  0  0  0  0
  5  8  1  0  0  0  0
  6  9  1  0  0  0  0
  7 10  2  0  0  0  0
  9 11  1  0  0  0  0
  9 12  2  0  0  0  0
 11 13  2  0  0  0  0
 12 14  1  0  0  0  0
 13 15  1  0  0  0  0
 15 16  2  0  0  0  0
 15 17  1  0  0  0  0
 16 18  1  0  0  0  0
 16 19  1  0  0  0  0
 17 20  2  0  0  0  0
 19 21  2  0  0  0  0
 20 22  1  0  0  0  0
 22 23  2  0  0  0  0
 22 24  1  0  0  0  0
 23 25  1  0  0  0  0
 24 26  2  0  0  0  0
 25 27  2  0  0  0  0
 10 12  1  0  0  0  0
 13 14  1  0  0  0  0
 20 21  1  0  0  0  0
 26 27  1  0  0  0  0
M  END
>  <MolRegNo>
1360293

>  <m>
=

>  <Value>
14000

>  <Unit>
nM

>  <Type>
IC50

>  <pValue>
4.85

>  <Ligand Efficiency>
0

>  <Binding Efficiency>
0

>  <Surface Efficiency>
0

>  <Assay Index>
669278

>  <Assay Category>


>  <Assay Organism>
Homo sapiens

>  <Target ID>
17045

>  <Target Name>
Cytochrome P450 3A4

>  <Target Organism>
Homo sapiens

>  <Target Description>
Target is a single protein chain

>  <Sequence Accession>
P08684

>  <Reference>
Bioorg Med Chem Lett 22 (17), 5498-5502 (2012)

>  <Pubmed ID>
22853998

>  <DOI>
10.1016/j.bmcl.2012.07.020

$$$$
1360292
Actelion Java MolfileCreator 1.0

 27 30  0  0  0  0  0  0  0  0999 V2000
    0.0000   -0.0000   -0.0000 S   0  0  0  0  0  0  0  0  0  0  0  0
    0.7386    1.3104   -0.0000 O   0  0  0  0  0  0  0  0  0  0  0  0
   -0.7624    1.3104   -0.0000 O   0  0  0  0  0  0  0  0  0  0  0  0
    1.2866   -0.7386   -0.0000 C   0  0  0  0  0  0  0  0  0  0  0  0
   -1.3104   -0.7386   -0.0000 C   0  0  0  0  0  0  0  0  0  0  0  0
    2.5732    0.0238   -0.0000 C   0  0  0  0  0  0  0  0  0  0  0  0
    1.2747   -2.2277   -0.0000 C   0  0  0  0  0  0  0  0  0  0  0  0
   -2.6208    0.0238   -0.0000 C   0  0  0  0  0  0  0  0  0  0  0  0
    3.8598   -0.7148   -0.0000 C   0  0  0  0  0  0  0  0  0  0  0  0
    2.5613   -2.9663   -0.0000 C   0  0  0  0  0  0  0  0  0  0  0  0
    5.2893   -0.2263   -0.0000 N   0  0  0  0  0  0  0  0  0  0  0  0
    3.8598   -2.2158   -0.0000 C   0  0  0  0  0  0  0  0  0  0  0  0
    6.1709   -1.4295   -0.0000 C   0  0  0  0  0  0  0  0  0  0  0  0
    5.2893   -2.6685   -0.0000 N   0  0  0  0  0  0  0  0  0  0  0  0
    7.6600   -1.4057   -0.0000 C   0  0  0  0  0  0  0  0  0  0  0  0
    8.3867   -0.0953   -0.0000 C   0  0  0  0  0  0  0  0  0  0  0  0
    8.4105   -2.6923   -0.0000 C   0  0  0  0  0  0  0  0  0  0  0  0
    7.6123    1.2151   -0.0000 F   0  0  0  0  0  0  0  0  0  0  0  0
    9.8758   -0.0715   -0.0000 C   0  0  0  0  0  0  0  0  0  0  0  0
    9.8996   -2.6685   -0.0000 C   0  0  0  0  0  0  0  0  0  0  0  0
   10.6025    1.2389   -0.0000 C   0  0  0  0  0  0  0  0  0  0  0  0
   10.6263   -1.3581   -0.0000 C   0  0  0  0  0  0  0  0  0  0  0  0
   12.0916    1.2628   -0.0000 C   0  0  0  0  0  0  0  0  0  0  0  0
    9.8281    2.5374   -0.0000 C   0  0  0  0  0  0  0  0  0  0  0  0
   12.8183    2.5851   -0.0000 C   0  0  0  0  0  0  0  0  0  0  0  0
   10.5429    3.8598   -0.0000 C   0  0  0  0  0  0  0  0  0  0  0  0
   12.0439    3.8955   -0.0000 C   0  0  0  0  0  0  0  0  0  0  0  0
  1  2  2  0  0  0  0
  1  3  2  0  0  0  0
  1  4  1  0  0  0  0
  1  5  1  0  0  0  0
  4  6  2  0  0  0  0
  4  7  1  0  0  0  0
  5  8  1  0  0  0  0
  6  9  1  0  0  0  0
  7 10  2  0  0  0  0
  9 11  1  0  0  0  0
  9 12  2  0  0  0  0
 11 13  2  0  0  0  0
 12 14  1  0  0  0  0
 13 15  1  0  0  0  0
 15 16  2  0  0  0  0
 15 17  1  0  0  0  0
 16 18  1  0  0  0  0
 16 19  1  0  0  0  0
 17 20  2  0  0  0  0
 19 21  1  0  0  0  0
 19 22  2  0  0  0  0
 21 23  2  0  0  0  0
 21 24  1  0  0  0  0
 23 25  1  0  0  0  0
 24 26  2  0  0  0  0
 25 27  2  0  0  0  0
 10 12  1  0  0  0  0
 13 14  1  0  0  0  0
 20 22  1  0  0  0  0
 26 27  1  0  0  0  0
M  END
>  <MolRegNo>
1360292

>  <m>
=

>  <Value>
6600

>  <Unit>
nM

>  <Type>
IC50

>  <pValue>
5.18

>  <Ligand Efficiency>
0

>  <Binding Efficiency>
0

>  <Surface Efficiency>
0

>  <Assay Index>
669278

>  <Assay Category>


>  <Assay Organism>
Homo sapiens

>  <Target ID>
17045

>  <Target Name>
Cytochrome P450 3A4

>  <Target Organism>
Homo sapiens

>  <Target Description>
Target is a single protein chain

>  <Sequence Accession>
P08684

>  <Reference>
Bioorg Med Chem Lett 22 (17), 5498-5502 (2012)

>  <Pubmed ID>
22853998

>  <DOI>
10.1016/j.bmcl.2012.07.020

$$$$
1360283
Actelion Java MolfileCreator 1.0

 26 29  0  0  0  0  0  0  0  0999 V2000
    0.0000   -0.0000   -0.0000 S   0  0  0  0  0  0  0  0  0  0  0  0
    0.7390    1.3111   -0.0000 O   0  0  0  0  0  0  0  0  0  0  0  0
   -0.7628    1.3111   -0.0000 O   0  0  0  0  0  0  0  0  0  0  0  0
    1.2872   -0.7390   -0.0000 C   0  0  0  0  0  0  0  0  0  0  0  0
   -1.3111   -0.7390   -0.0000 C   0  0  0  0  0  0  0  0  0  0  0  0
    2.5745    0.0238   -0.0000 C   0  0  0  0  0  0  0  0  0  0  0  0
    1.2753   -2.2288   -0.0000 C   0  0  0  0  0  0  0  0  0  0  0  0
   -2.6222    0.0238   -0.0000 C   0  0  0  0  0  0  0  0  0  0  0  0
    3.8617   -0.7151   -0.0000 C   0  0  0  0  0  0  0  0  0  0  0  0
    2.5626   -2.9678   -0.0000 C   0  0  0  0  0  0  0  0  0  0  0  0
    5.2920   -0.2265   -0.0000 N   0  0  0  0  0  0  0  0  0  0  0  0
    3.8617   -2.2169   -0.0000 C   0  0  0  0  0  0  0  0  0  0  0  0
    6.1740   -1.4303   -0.0000 C   0  0  0  0  0  0  0  0  0  0  0  0
    5.2920   -2.6698   -0.0000 N   0  0  0  0  0  0  0  0  0  0  0  0
    7.6639   -1.4064   -0.0000 C   0  0  0  0  0  0  0  0  0  0  0  0
    8.3909   -0.0954   -0.0000 C   0  0  0  0  0  0  0  0  0  0  0  0
    8.4148   -2.6937   -0.0000 C   0  0  0  0  0  0  0  0  0  0  0  0
    9.8808   -0.0715   -0.0000 C   0  0  0  0  0  0  0  0  0  0  0  0
    9.9046   -2.6698   -0.0000 C   0  0  0  0  0  0  0  0  0  0  0  0
   10.6079    1.2396   -0.0000 C   0  0  0  0  0  0  0  0  0  0  0  0
   10.6317   -1.3588   -0.0000 C   0  0  0  0  0  0  0  0  0  0  0  0
   12.0977    1.2634   -0.0000 C   0  0  0  0  0  0  0  0  0  0  0  0
    9.8331    2.5387   -0.0000 C   0  0  0  0  0  0  0  0  0  0  0  0
   12.8248    2.5864   -0.0000 C   0  0  0  0  0  0  0  0  0  0  0  0
   10.5483    3.8617   -0.0000 C   0  0  0  0  0  0  0  0  0  0  0  0
   12.0500    3.8975   -0.0000 C   0  0  0  0  0  0  0  0  0  0  0  0
  1  2  2  0  0  0  0
  1  3  2  0  0  0  0
  1  4  1  0  0  0  0
  1  5  1  0  0  0  0
  4  6  2  0  0  0  0
  4  7  1  0  0  0  0
  5  8  1  0  0  0  0
  6  9  1  0  0  0  0
  7 10  2  0  0  0  0
  9 11  1  0  0  0  0
  9 12  2  0  0  0  0
 11 13  2  0  0  0  0
 12 14  1  0  0  0  0
 13 15  1  0  0  0  0
 15 16  2  0  0  0  0
 15 17  1  0  0  0  0
 16 18  1  0  0  0  0
 17 19  2  0  0  0  0
 18 20  1  0  0  0  0
 18 21  2  0  0  0  0
 20 22  2  0  0  0  0
 20 23  1  0  0  0  0
 22 24  1  0  0  0  0
 23 25  2  0  0  0  0
 24 26  2  0  0  0  0
 10 12  1  0  0  0  0
 13 14  1  0  0  0  0
 19 21  1  0  0  0  0
 25 26  1  0  0  0  0
M  END
>  <MolRegNo>
1360283

>  <m>
=

>  <Value>
9000

>  <Unit>
nM

>  <Type>
IC50

>  <pValue>
5.05

>  <Ligand Efficiency>
0

>  <Binding Efficiency>
0

>  <Surface Efficiency>
0

>  <Assay Index>
669278

>  <Assay Category>


>  <Assay Organism>
Homo sapiens

>  <Target ID>
17045

>  <Target Name>
Cytochrome P450 3A4

>  <Target Organism>
Homo sapiens

>  <Target Description>
Target is a single protein chain

>  <Sequence Accession>
P08684

>  <Reference>
Bioorg Med Chem Lett 22 (17), 5498-5502 (2012)

>  <Pubmed ID>
22853998

>  <DOI>
10.1016/j.bmcl.2012.07.020

$$$$
1360289
Actelion Java MolfileCreator 1.0

 26 28  0  0  0  0  0  0  0  0999 V2000
    0.0000   -0.0000   -0.0000 S   0  0  0  0  0  0  0  0  0  0  0  0
    0.7401    1.3130   -0.0000 O   0  0  0  0  0  0  0  0  0  0  0  0
   -0.7639    1.3130   -0.0000 O   0  0  0  0  0  0  0  0  0  0  0  0
    1.2891   -0.7401   -0.0000 C   0  0  0  0  0  0  0  0  0  0  0  0
   -1.3130   -0.7401   -0.0000 C   0  0  0  0  0  0  0  0  0  0  0  0
    2.5783    0.0239   -0.0000 C   0  0  0  0  0  0  0  0  0  0  0  0
    1.2772   -2.2321   -0.0000 C   0  0  0  0  0  0  0  0  0  0  0  0
   -2.6260    0.0239   -0.0000 C   0  0  0  0  0  0  0  0  0  0  0  0
    3.8674   -0.7162   -0.0000 C   0  0  0  0  0  0  0  0  0  0  0  0
    2.5663   -2.9722   -0.0000 C   0  0  0  0  0  0  0  0  0  0  0  0
   -3.9390   -0.7162   -0.0000 C   0  0  0  0  0  0  0  0  0  0  0  0
    5.2998   -0.2387   -0.0000 N   0  0  0  0  0  0  0  0  0  0  0  0
    3.8555   -2.2202   -0.0000 C   0  0  0  0  0  0  0  0  0  0  0  0
    6.1831   -1.4562   -0.0000 C   0  0  0  0  0  0  0  0  0  0  0  0
    5.2878   -2.6738   -0.0000 N   0  0  0  0  0  0  0  0  0  0  0  0
    7.6751   -1.4443   -0.0000 C   0  0  0  0  0  0  0  0  0  0  0  0
    8.4152   -2.7334   -0.0000 C   0  0  0  0  0  0  0  0  0  0  0  0
    8.4152   -0.1313   -0.0000 C   0  0  0  0  0  0  0  0  0  0  0  0
    9.9072   -2.7215   -0.0000 C   0  0  0  0  0  0  0  0  0  0  0  0
    9.9072   -0.1074   -0.0000 C   0  0  0  0  0  0  0  0  0  0  0  0
   10.6473   -4.0106   -0.0000 O   0  0  0  0  0  0  0  0  0  0  0  0
   10.6473   -1.4085   -0.0000 C   0  0  0  0  0  0  0  0  0  0  0  0
    9.8834   -5.2998   -0.0000 C   0  0  0  0  0  0  0  0  0  0  0  0
   10.6234   -6.5889   -0.0000 F   0  0  0  0  0  0  0  0  0  0  0  0
    8.3674   -5.2878   -0.0000 F   0  0  0  0  0  0  0  0  0  0  0  0
    9.1075   -6.5889   -0.0000 F   0  0  0  0  0  0  0  0  0  0  0  0
  1  2  2  0  0  0  0
  1  3  2  0  0  0  0
  1  4  1  0  0  0  0
  1  5  1  0  0  0  0
  4  6  2  0  0  0  0
  4  7  1  0  0  0  0
  5  8  1  0  0  0  0
  6  9  1  0  0  0  0
  7 10  2  0  0  0  0
  8 11  1  0  0  0  0
  9 12  1  0  0  0  0
  9 13  2  0  0  0  0
 12 14  2  0  0  0  0
 13 15  1  0  0  0  0
 14 16  1  0  0  0  0
 16 17  2  0  0  0  0
 16 18  1  0  0  0  0
 17 19  1  0  0  0  0
 18 20  2  0  0  0  0
 19 21  1  0  0  0  0
 19 22  2  0  0  0  0
 21 23  1  0  0  0  0
 23 24  1  0  0  0  0
 23 25  1  0  0  0  0
 23 26  1  0  0  0  0
 10 13  1  0  0  0  0
 14 15  1  0  0  0  0
 20 22  1  0  0  0  0
M  END
>  <MolRegNo>
1360289

>  <m>
=

>  <Value>
10000

>  <Unit>
nM

>  <Type>
IC50

>  <pValue>
5

>  <Ligand Efficiency>
0

>  <Binding Efficiency>
0

>  <Surface Efficiency>
0

>  <Assay Index>
669278

>  <Assay Category>


>  <Assay Organism>
Homo sapiens

>  <Target ID>
17045

>  <Target Name>
Cytochrome P450 3A4

>  <Target Organism>
Homo sapiens

>  <Target Description>
Target is a single protein chain

>  <Sequence Accession>
P08684

>  <Reference>
Bioorg Med Chem Lett 22 (17), 5498-5502 (2012)

>  <Pubmed ID>
22853998

>  <DOI>
10.1016/j.bmcl.2012.07.020

$$$$
1360288
Actelion Java MolfileCreator 1.0

 25 27  0  0  0  0  0  0  0  0999 V2000
    0.0000   -0.0000   -0.0000 S   0  0  0  0  0  0  0  0  0  0  0  0
    0.7409    1.3145   -0.0000 O   0  0  0  0  0  0  0  0  0  0  0  0
   -0.7648    1.3145   -0.0000 O   0  0  0  0  0  0  0  0  0  0  0  0
    1.2906   -0.7409   -0.0000 C   0  0  0  0  0  0  0  0  0  0  0  0
   -1.3145   -0.7409   -0.0000 C   0  0  0  0  0  0  0  0  0  0  0  0
    2.5811    0.0239   -0.0000 C   0  0  0  0  0  0  0  0  0  0  0  0
    1.2786   -2.2346   -0.0000 C   0  0  0  0  0  0  0  0  0  0  0  0
   -2.6289    0.0239   -0.0000 C   0  0  0  0  0  0  0  0  0  0  0  0
    3.8717   -0.7170   -0.0000 C   0  0  0  0  0  0  0  0  0  0  0  0
    2.5692   -2.9755   -0.0000 C   0  0  0  0  0  0  0  0  0  0  0  0
   -3.9434   -0.7170   -0.0000 C   0  0  0  0  0  0  0  0  0  0  0  0
    5.3056   -0.2390   -0.0000 N   0  0  0  0  0  0  0  0  0  0  0  0
    3.8597   -2.2226   -0.0000 C   0  0  0  0  0  0  0  0  0  0  0  0
    6.1899   -1.4579   -0.0000 C   0  0  0  0  0  0  0  0  0  0  0  0
    5.2937   -2.6767   -0.0000 N   0  0  0  0  0  0  0  0  0  0  0  0
    7.6836   -1.4459   -0.0000 C   0  0  0  0  0  0  0  0  0  0  0  0
    8.4245   -2.7365   -0.0000 C   0  0  0  0  0  0  0  0  0  0  0  0
    8.4245   -0.1314   -0.0000 C   0  0  0  0  0  0  0  0  0  0  0  0
    9.9182   -2.7245   -0.0000 C   0  0  0  0  0  0  0  0  0  0  0  0
    9.9182   -0.1075   -0.0000 C   0  0  0  0  0  0  0  0  0  0  0  0
   10.6591   -1.4101   -0.0000 C   0  0  0  0  0  0  0  0  0  0  0  0
   10.6591   -4.0151   -0.0000 C   0  0  0  0  0  0  0  0  0  0  0  0
    9.8943   -5.3056   -0.0000 F   0  0  0  0  0  0  0  0  0  0  0  0
   12.1528   -4.0031   -0.0000 F   0  0  0  0  0  0  0  0  0  0  0  0
   11.3880   -5.2937   -0.0000 F   0  0  0  0  0  0  0  0  0  0  0  0
  1  2  2  0  0  0  0
  1  3  2  0  0  0  0
  1  4  1  0  0  0  0
  1  5  1  0  0  0  0
  4  6  2  0  0  0  0
  4  7  1  0  0  0  0
  5  8  1  0  0  0  0
  6  9  1  0  0  0  0
  7 10  2  0  0  0  0
  8 11  1  0  0  0  0
  9 12  1  0  0  0  0
  9 13  2  0  0  0  0
 12 14  2  0  0  0  0
 13 15  1  0  0  0  0
 14 16  1  0  0  0  0
 16 17  2  0  0  0  0
 16 18  1  0  0  0  0
 17 19  1  0  0  0  0
 18 20  2  0  0  0  0
 19 21  2  0  0  0  0
 19 22  1  0  0  0  0
 22 23  1  0  0  0  0
 22 24  1  0  0  0  0
 22 25  1  0  0  0  0
 10 13  1  0  0  0  0
 14 15  1  0  0  0  0
 20 21  1  0  0  0  0
M  END
>  <MolRegNo>
1360288

>  <m>
=

>  <Value>
20000

>  <Unit>
nM

>  <Type>
IC50

>  <pValue>
4.7

>  <Ligand Efficiency>
0

>  <Binding Efficiency>
0

>  <Surface Efficiency>
0

>  <Assay Index>
669278

>  <Assay Category>


>  <Assay Organism>
Homo sapiens

>  <Target ID>
17045

>  <Target Name>
Cytochrome P450 3A4

>  <Target Organism>
Homo sapiens

>  <Target Description>
Target is a single protein chain

>  <Sequence Accession>
P08684

>  <Reference>
Bioorg Med Chem Lett 22 (17), 5498-5502 (2012)

>  <Pubmed ID>
22853998

>  <DOI>
10.1016/j.bmcl.2012.07.020

$$$$
1360287
Actelion Java MolfileCreator 1.0

 27 30  0  0  0  0  0  0  0  0999 V2000
    0.0000   -0.0000   -0.0000 S   0  0  0  0  0  0  0  0  0  0  0  0
    0.7403    1.3135   -0.0000 O   0  0  0  0  0  0  0  0  0  0  0  0
   -0.7642    1.3135   -0.0000 O   0  0  0  0  0  0  0  0  0  0  0  0
    1.2896   -0.7403   -0.0000 C   0  0  0  0  0  0  0  0  0  0  0  0
   -1.3135   -0.7403   -0.0000 C   0  0  0  0  0  0  0  0  0  0  0  0
    2.5793    0.0239   -0.0000 C   0  0  0  0  0  0  0  0  0  0  0  0
    1.2777   -2.2330   -0.0000 C   0  0  0  0  0  0  0  0  0  0  0  0
   -2.6270    0.0239   -0.0000 C   0  0  0  0  0  0  0  0  0  0  0  0
    3.8689   -0.7165   -0.0000 C   0  0  0  0  0  0  0  0  0  0  0  0
    2.5673   -2.9733   -0.0000 C   0  0  0  0  0  0  0  0  0  0  0  0
   -3.9406   -0.7165   -0.0000 C   0  0  0  0  0  0  0  0  0  0  0  0
    5.3019   -0.2388   -0.0000 N   0  0  0  0  0  0  0  0  0  0  0  0
    3.8570   -2.2210   -0.0000 C   0  0  0  0  0  0  0  0  0  0  0  0
    6.1855   -1.4568   -0.0000 C   0  0  0  0  0  0  0  0  0  0  0  0
    5.2899   -2.6748   -0.0000 N   0  0  0  0  0  0  0  0  0  0  0  0
    7.6781   -1.4449   -0.0000 C   0  0  0  0  0  0  0  0  0  0  0  0
    8.4185   -2.7345   -0.0000 C   0  0  0  0  0  0  0  0  0  0  0  0
    8.4185   -0.1314   -0.0000 C   0  0  0  0  0  0  0  0  0  0  0  0
    9.9111   -2.7226   -0.0000 C   0  0  0  0  0  0  0  0  0  0  0  0
    9.9111   -0.1075   -0.0000 C   0  0  0  0  0  0  0  0  0  0  0  0
   10.6515   -1.4091   -0.0000 C   0  0  0  0  0  0  0  0  0  0  0  0
   12.1441   -1.3971   -0.0000 C   0  0  0  0  0  0  0  0  0  0  0  0
   12.8845   -2.6868   -0.0000 C   0  0  0  0  0  0  0  0  0  0  0  0
   12.8725   -0.0836   -0.0000 C   0  0  0  0  0  0  0  0  0  0  0  0
   14.3771   -2.6748   -0.0000 C   0  0  0  0  0  0  0  0  0  0  0  0
   14.3652   -0.0597   -0.0000 C   0  0  0  0  0  0  0  0  0  0  0  0
   15.1175   -1.3613   -0.0000 C   0  0  0  0  0  0  0  0  0  0  0  0
  1  2  2  0  0  0  0
  1  3  2  0  0  0  0
  1  4  1  0  0  0  0
  1  5  1  0  0  0  0
  4  6  2  0  0  0  0
  4  7  1  0  0  0  0
  5  8  1  0  0  0  0
  6  9  1  0  0  0  0
  7 10  2  0  0  0  0
  8 11  1  0  0  0  0
  9 12  1  0  0  0  0
  9 13  2  0  0  0  0
 12 14  2  0  0  0  0
 13 15  1  0  0  0  0
 14 16  1  0  0  0  0
 16 17  2  0  0  0  0
 16 18  1  0  0  0  0
 17 19  1  0  0  0  0
 18 20  2  0  0  0  0
 19 21  2  0  0  0  0
 21 22  1  0  0  0  0
 22 23  2  0  0  0  0
 22 24  1  0  0  0  0
 23 25  1  0  0  0  0
 24 26  2  0  0  0  0
 25 27  2  0  0  0  0
 10 13  1  0  0  0  0
 14 15  1  0  0  0  0
 20 21  1  0  0  0  0
 26 27  1  0  0  0  0
M  END
>  <MolRegNo>
1360287

>  <m>
=

>  <Value>
2900

>  <Unit>
nM

>  <Type>
IC50

>  <pValue>
5.54

>  <Ligand Efficiency>
0

>  <Binding Efficiency>
0

>  <Surface Efficiency>
0

>  <Assay Index>
669278

>  <Assay Category>


>  <Assay Organism>
Homo sapiens

>  <Target ID>
17045

>  <Target Name>
Cytochrome P450 3A4

>  <Target Organism>
Homo sapiens

>  <Target Description>
Target is a single protein chain

>  <Sequence Accession>
P08684

>  <Reference>
Bioorg Med Chem Lett 22 (17), 5498-5502 (2012)

>  <Pubmed ID>
22853998

>  <DOI>
10.1016/j.bmcl.2012.07.020

$$$$
1360286
Actelion Java MolfileCreator 1.0

 27 30  0  0  0  0  0  0  0  0999 V2000
    0.0000   -0.0000   -0.0000 S   0  0  0  0  0  0  0  0  0  0  0  0
    0.7409    1.3145   -0.0000 O   0  0  0  0  0  0  0  0  0  0  0  0
   -0.7648    1.3145   -0.0000 O   0  0  0  0  0  0  0  0  0  0  0  0
    1.2906   -0.7409   -0.0000 C   0  0  0  0  0  0  0  0  0  0  0  0
   -1.3145   -0.7409   -0.0000 C   0  0  0  0  0  0  0  0  0  0  0  0
    2.5812    0.0239   -0.0000 C   0  0  0  0  0  0  0  0  0  0  0  0
    1.2787   -2.2347   -0.0000 C   0  0  0  0  0  0  0  0  0  0  0  0
   -2.6290    0.0239   -0.0000 C   0  0  0  0  0  0  0  0  0  0  0  0
    3.8718   -0.7170   -0.0000 C   0  0  0  0  0  0  0  0  0  0  0  0
    2.5693   -2.9756   -0.0000 C   0  0  0  0  0  0  0  0  0  0  0  0
   -3.9435   -0.7170   -0.0000 C   0  0  0  0  0  0  0  0  0  0  0  0
    5.3058   -0.2390   -0.0000 N   0  0  0  0  0  0  0  0  0  0  0  0
    3.8599   -2.2227   -0.0000 C   0  0  0  0  0  0  0  0  0  0  0  0
    6.1901   -1.4579   -0.0000 C   0  0  0  0  0  0  0  0  0  0  0  0
    5.2939   -2.6768   -0.0000 N   0  0  0  0  0  0  0  0  0  0  0  0
    7.6839   -1.4460   -0.0000 C   0  0  0  0  0  0  0  0  0  0  0  0
    8.4248   -2.7366   -0.0000 C   0  0  0  0  0  0  0  0  0  0  0  0
    8.4248   -0.1315   -0.0000 C   0  0  0  0  0  0  0  0  0  0  0  0
    9.9186   -2.7246   -0.0000 C   0  0  0  0  0  0  0  0  0  0  0  0
    9.9186   -0.1076   -0.0000 C   0  0  0  0  0  0  0  0  0  0  0  0
   10.6595   -4.0152   -0.0000 C   0  0  0  0  0  0  0  0  0  0  0  0
   10.6595   -1.4101   -0.0000 C   0  0  0  0  0  0  0  0  0  0  0  0
    9.8947   -5.3058   -0.0000 C   0  0  0  0  0  0  0  0  0  0  0  0
   12.1532   -4.0033   -0.0000 C   0  0  0  0  0  0  0  0  0  0  0  0
   10.6356   -6.5964   -0.0000 C   0  0  0  0  0  0  0  0  0  0  0  0
   12.8941   -5.2939   -0.0000 C   0  0  0  0  0  0  0  0  0  0  0  0
   12.1293   -6.5845   -0.0000 C   0  0  0  0  0  0  0  0  0  0  0  0
  1  2  2  0  0  0  0
  1  3  2  0  0  0  0
  1  4  1  0  0  0  0
  1  5  1  0  0  0  0
  4  6  2  0  0  0  0
  4  7  1  0  0  0  0
  5  8  1  0  0  0  0
  6  9  1  0  0  0  0
  7 10  2  0  0  0  0
  8 11  1  0  0  0  0
  9 12  1  0  0  0  0
  9 13  2  0  0  0  0
 12 14  2  0  0  0  0
 13 15  1  0  0  0  0
 14 16  1  0  0  0  0
 16 17  2  0  0  0  0
 16 18  1  0  0  0  0
 17 19  1  0  0  0  0
 18 20  2  0  0  0  0
 19 21  1  0  0  0  0
 19 22  2  0  0  0  0
 21 23  2  0  0  0  0
 21 24  1  0  0  0  0
 23 25  1  0  0  0  0
 24 26  2  0  0  0  0
 25 27  2  0  0  0  0
 10 13  1  0  0  0  0
 14 15  1  0  0  0  0
 20 22  1  0  0  0  0
 26 27  1  0  0  0  0
M  END
>  <MolRegNo>
1360286

>  <m>
=

>  <Value>
6000

>  <Unit>
nM

>  <Type>
IC50

>  <pValue>
5.22

>  <Ligand Efficiency>
0

>  <Binding Efficiency>
0

>  <Surface Efficiency>
0

>  <Assay Index>
669278

>  <Assay Category>


>  <Assay Organism>
Homo sapiens

>  <Target ID>
17045

>  <Target Name>
Cytochrome P450 3A4

>  <Target Organism>
Homo sapiens

>  <Target Description>
Target is a single protein chain

>  <Sequence Accession>
P08684

>  <Reference>
Bioorg Med Chem Lett 22 (17), 5498-5502 (2012)

>  <Pubmed ID>
22853998

>  <DOI>
10.1016/j.bmcl.2012.07.020

$$$$
1360285
Actelion Java MolfileCreator 1.0

 27 30  0  0  0  0  0  0  0  0999 V2000
    0.0000   -0.0000   -0.0000 S   0  0  0  0  0  0  0  0  0  0  0  0
    0.7396    1.3241   -0.0000 O   0  0  0  0  0  0  0  0  0  0  0  0
   -0.7634    1.3241   -0.0000 O   0  0  0  0  0  0  0  0  0  0  0  0
    1.2883   -0.7396   -0.0000 C   0  0  0  0  0  0  0  0  0  0  0  0
   -1.3122   -0.7396   -0.0000 C   0  0  0  0  0  0  0  0  0  0  0  0
    2.5766    0.0239   -0.0000 C   0  0  0  0  0  0  0  0  0  0  0  0
    1.2764   -2.2307   -0.0000 C   0  0  0  0  0  0  0  0  0  0  0  0
   -2.6243    0.0239   -0.0000 C   0  0  0  0  0  0  0  0  0  0  0  0
    3.8649   -0.7157   -0.0000 C   0  0  0  0  0  0  0  0  0  0  0  0
    2.5647   -2.9702   -0.0000 C   0  0  0  0  0  0  0  0  0  0  0  0
   -3.9365   -0.7157   -0.0000 C   0  0  0  0  0  0  0  0  0  0  0  0
    5.2963   -0.2386   -0.0000 N   0  0  0  0  0  0  0  0  0  0  0  0
    3.8530   -2.2187   -0.0000 C   0  0  0  0  0  0  0  0  0  0  0  0
    6.1791   -1.4553   -0.0000 C   0  0  0  0  0  0  0  0  0  0  0  0
    5.2844   -2.6720   -0.0000 N   0  0  0  0  0  0  0  0  0  0  0  0
    7.6702   -1.4434   -0.0000 C   0  0  0  0  0  0  0  0  0  0  0  0
    8.4097   -2.7317   -0.0000 C   0  0  0  0  0  0  0  0  0  0  0  0
    8.4097   -0.1312   -0.0000 C   0  0  0  0  0  0  0  0  0  0  0  0
    7.6463   -4.0200   -0.0000 C   0  0  0  0  0  0  0  0  0  0  0  0
    9.9008   -2.7197   -0.0000 C   0  0  0  0  0  0  0  0  0  0  0  0
    9.9008   -0.1074   -0.0000 C   0  0  0  0  0  0  0  0  0  0  0  0
    6.1314   -4.0080   -0.0000 C   0  0  0  0  0  0  0  0  0  0  0  0
    8.3859   -5.3083   -0.0000 C   0  0  0  0  0  0  0  0  0  0  0  0
   10.6404   -1.4076   -0.0000 C   0  0  0  0  0  0  0  0  0  0  0  0
    5.3679   -5.2963   -0.0000 C   0  0  0  0  0  0  0  0  0  0  0  0
    7.6224   -6.5966   -0.0000 C   0  0  0  0  0  0  0  0  0  0  0  0
    6.1075   -6.5846   -0.0000 C   0  0  0  0  0  0  0  0  0  0  0  0
  1  2  2  0  0  0  0
  1  3  2  0  0  0  0
  1  4  1  0  0  0  0
  1  5  1  0  0  0  0
  4  6  2  0  0  0  0
  4  7  1  0  0  0  0
  5  8  1  0  0  0  0
  6  9  1  0  0  0  0
  7 10  2  0  0  0  0
  8 11  1  0  0  0  0
  9 12  1  0  0  0  0
  9 13  2  0  0  0  0
 12 14  2  0  0  0  0
 13 15  1  0  0  0  0
 14 16  1  0  0  0  0
 16 17  2  0  0  0  0
 16 18  1  0  0  0  0
 17 19  1  0  0  0  0
 17 20  1  0  0  0  0
 18 21  2  0  0  0  0
 19 22  2  0  0  0  0
 19 23  1  0  0  0  0
 20 24  2  0  0  0  0
 22 25  1  0  0  0  0
 23 26  2  0  0  0  0
 25 27  2  0  0  0  0
 10 13  1  0  0  0  0
 14 15  1  0  0  0  0
 21 24  1  0  0  0  0
 26 27  1  0  0  0  0
M  END
>  <MolRegNo>
1360285

>  <m>
=

>  <Value>
11000

>  <Unit>
nM

>  <Type>
IC50

>  <pValue>
4.96

>  <Ligand Efficiency>
0

>  <Binding Efficiency>
0

>  <Surface Efficiency>
0

>  <Assay Index>
669278

>  <Assay Category>


>  <Assay Organism>
Homo sapiens

>  <Target ID>
17045

>  <Target Name>
Cytochrome P450 3A4

>  <Target Organism>
Homo sapiens

>  <Target Description>
Target is a single protein chain

>  <Sequence Accession>
P08684

>  <Reference>
Bioorg Med Chem Lett 22 (17), 5498-5502 (2012)

>  <Pubmed ID>
22853998

>  <DOI>
10.1016/j.bmcl.2012.07.020

$$$$
1009368
Actelion Java MolfileCreator 1.0

 27 30  0  0  0  0  0  0  0  0999 V2000
    0.0000   -0.0000   -0.0000 Cl  0  0  0  0  0  0  0  0  0  0  0  0
    0.7356    1.3170   -0.0000 C   0  0  0  0  0  0  0  0  0  0  0  0
    2.2306    1.3289   -0.0000 C   0  0  0  0  0  0  0  0  0  0  0  0
   -0.0237    2.6340   -0.0000 C   0  0  0  0  0  0  0  0  0  0  0  0
    2.9663    2.6459   -0.0000 C   0  0  0  0  0  0  0  0  0  0  0  0
    0.7119    3.9510   -0.0000 C   0  0  0  0  0  0  0  0  0  0  0  0
    2.2069    3.9629   -0.0000 C   0  0  0  0  0  0  0  0  0  0  0  0
    4.4612    2.6578   -0.0000 C   0  0  0  0  0  0  0  0  0  0  0  0
    5.1969    1.3645   -0.0000 S   0  0  0  0  0  0  0  0  0  0  0  0
    6.6919    1.3763   -0.0000 C   0  0  0  0  0  0  0  0  0  0  0  0
    7.5699    0.1661   -0.0000 N   0  0  0  0  0  0  0  0  0  0  0  0
    7.5699    2.6103   -0.0000 N   0  0  0  0  0  0  0  0  0  0  0  0
    8.9937    0.6407   -0.0000 C   0  0  0  0  0  0  0  0  0  0  0  0
    8.9937    2.1594   -0.0000 C   0  0  0  0  0  0  0  0  0  0  0  0
   10.2870   -0.0949   -0.0000 C   0  0  0  0  0  0  0  0  0  0  0  0
   10.2870    2.9188   -0.0000 C   0  0  0  0  0  0  0  0  0  0  0  0
   11.5802    0.6644   -0.0000 C   0  0  0  0  0  0  0  0  0  0  0  0
   11.5802    2.1832   -0.0000 C   0  0  0  0  0  0  0  0  0  0  0  0
   12.8735   -0.0712   -0.0000 S   0  0  0  0  0  0  0  0  0  0  0  0
   12.1142   -1.3645   -0.0000 O   0  0  0  0  0  0  0  0  0  0  0  0
   13.6092    1.2458   -0.0000 O   0  0  0  0  0  0  0  0  0  0  0  0
   14.1668   -0.8068   -0.0000 N   0  0  0  0  0  0  0  0  0  0  0  0
   14.1550   -2.3018   -0.0000 C   0  0  0  0  0  0  0  0  0  0  0  0
   15.4601   -0.0475   -0.0000 C   0  0  0  0  0  0  0  0  0  0  0  0
   15.4482   -3.0374   -0.0000 C   0  0  0  0  0  0  0  0  0  0  0  0
   16.7534   -0.7831   -0.0000 C   0  0  0  0  0  0  0  0  0  0  0  0
   16.7415   -2.2781   -0.0000 O   0  0  0  0  0  0  0  0  0  0  0  0
  1  2  1  0  0  0  0
  2  3  2  0  0  0  0
  2  4  1  0  0  0  0
  3  5  1  0  0  0  0
  4  6  2  0  0  0  0
  5  7  2  0  0  0  0
  5  8  1  0  0  0  0
  8  9  1  0  0  0  0
  9 10  1  0  0  0  0
 10 11  2  0  0  0  0
 10 12  1  0  0  0  0
 11 13  1  0  0  0  0
 12 14  1  0  0  0  0
 13 15  1  0  0  0  0
 14 16  1  0  0  0  0
 15 17  2  0  0  0  0
 16 18  2  0  0  0  0
 17 19  1  0  0  0  0
 19 20  2  0  0  0  0
 19 21  2  0  0  0  0
 19 22  1  0  0  0  0
 22 23  1  0  0  0  0
 22 24  1  0  0  0  0
 23 25  1  0  0  0  0
 24 26  1  0  0  0  0
 25 27  1  0  0  0  0
  6  7  1  0  0  0  0
 13 14  2  0  0  0  0
 17 18  1  0  0  0  0
 26 27  1  0  0  0  0
M  END
>  <MolRegNo>
1009368

>  <m>
=

>  <Value>
1900

>  <Unit>
nM

>  <Type>
IC50

>  <pValue>
5.72

>  <Ligand Efficiency>
0

>  <Binding Efficiency>
0

>  <Surface Efficiency>
0

>  <Assay Index>
669278

>  <Assay Category>


>  <Assay Organism>
Homo sapiens

>  <Target ID>
17045

>  <Target Name>
Cytochrome P450 3A4

>  <Target Organism>
Homo sapiens

>  <Target Description>
Target is a single protein chain

>  <Sequence Accession>
P08684

>  <Reference>
Bioorg Med Chem Lett 22 (17), 5498-5502 (2012)

>  <Pubmed ID>
22853998

>  <DOI>
10.1016/j.bmcl.2012.07.020

$$$$
1364407
Actelion Java MolfileCreator 1.0

 37 42  0  0  0  0  0  0  0  0999 V2000
    0.0000   -0.0000   -0.0000 O   0  0  0  0  0  0  0  0  0  0  0  0
    1.4543    0.3192   -0.0000 C   0  0  0  0  0  0  0  0  0  0  0  0
    2.5539   -0.6739   -0.0000 N   0  0  0  0  0  0  0  0  0  0  0  0
    2.0573    1.7026   -0.0000 C   0  0  0  0  0  0  0  0  0  0  0  0
    3.8426    0.0946   -0.0000 C   0  0  0  0  0  0  0  0  0  0  0  0
    3.5352    1.5607   -0.0000 C   0  0  0  0  0  0  0  0  0  0  0  0
    1.3006    3.0150   -0.0000 C   0  0  0  0  0  0  0  0  0  0  0  0
    5.2496   -0.3547   -0.0000 C   0  0  0  0  0  0  0  0  0  0  0  0
    4.6348    2.5775   -0.0000 C   0  0  0  0  0  0  0  0  0  0  0  0
    2.0336    4.3274   -0.0000 C   0  0  0  0  0  0  0  0  0  0  0  0
   -0.2128    3.0268   -0.0000 C   0  0  0  0  0  0  0  0  0  0  0  0
    6.3492    0.6621   -0.0000 C   0  0  0  0  0  0  0  0  0  0  0  0
    6.0418    2.1400   -0.0000 C   0  0  0  0  0  0  0  0  0  0  0  0
    3.5234    4.3392   -0.0000 C   0  0  0  0  0  0  0  0  0  0  0  0
    1.2651    5.6279   -0.0000 C   0  0  0  0  0  0  0  0  0  0  0  0
   -1.1114    4.2564   -0.0000 N   0  0  0  0  0  0  0  0  0  0  0  0
   -1.1114    1.8208   -0.0000 N   0  0  0  0  0  0  0  0  0  0  0  0
    7.1413    3.1568   -0.0000 N   0  0  0  0  0  0  0  0  0  0  0  0
    4.2564    5.6516   -0.0000 C   0  0  0  0  0  0  0  0  0  0  0  0
    1.9982    6.9403   -0.0000 C   0  0  0  0  0  0  0  0  0  0  0  0
   -2.5657    3.7953   -0.0000 C   0  0  0  0  0  0  0  0  0  0  0  0
   -2.5657    2.2937   -0.0000 C   0  0  0  0  0  0  0  0  0  0  0  0
    8.4537    2.4711   -0.0000 C   0  0  0  0  0  0  0  0  0  0  0  0
    3.4879    6.9640   -0.0000 C   0  0  0  0  0  0  0  0  0  0  0  0
   -3.8781    4.5520   -0.0000 C   0  0  0  0  0  0  0  0  0  0  0  0
   -3.8781    1.5489   -0.0000 C   0  0  0  0  0  0  0  0  0  0  0  0
    8.4892    0.9813   -0.0000 C   0  0  0  0  0  0  0  0  0  0  0  0
    9.6952    3.2869   -0.0000 C   0  0  0  0  0  0  0  0  0  0  0  0
   -5.1905    3.8071   -0.0000 C   0  0  0  0  0  0  0  0  0  0  0  0
   -5.1905    2.3174   -0.0000 C   0  0  0  0  0  0  0  0  0  0  0  0
    9.8016    0.2956   -0.0000 C   0  0  0  0  0  0  0  0  0  0  0  0
   11.0076    2.5893   -0.0000 C   0  0  0  0  0  0  0  0  0  0  0  0
   -6.4910    4.5638   -0.0000 O   0  0  0  0  0  0  0  0  0  0  0  0
   11.0667    1.0996   -0.0000 N   0  0  0  0  0  0  0  0  0  0  0  0
   -6.5029    6.0772   -0.0000 C   0  0  0  0  0  0  0  0  0  0  0  0
   12.3791    0.4020   -0.0000 C   0  0  0  0  0  0  0  0  0  0  0  0
   12.4146   -1.0878   -0.0000 C   0  0  0  0  0  0  0  0  0  0  0  0
  1  2  2  0  0  0  0
  2  3  1  0  0  0  0
  2  4  1  0  0  0  0
  3  5  1  0  0  0  0
  4  6  1  0  0  0  0
  4  7  2  3  0  0  0
  5  8  1  0  0  0  0
  6  9  1  0  0  0  0
  7 10  1  0  0  0  0
  7 11  1  0  0  0  0
  8 12  2  0  0  0  0
  9 13  2  0  0  0  0
 10 14  2  0  0  0  0
 10 15  1  0  0  0  0
 11 16  2  0  0  0  0
 11 17  1  0  0  0  0
 13 18  1  0  0  0  0
 14 19  1  0  0  0  0
 15 20  2  0  0  0  0
 16 21  1  0  0  0  0
 17 22  1  0  0  0  0
 18 23  1  0  0  0  0
 19 24  2  0  0  0  0
 21 25  1  0  0  0  0
 22 26  1  0  0  0  0
 23 27  1  0  0  0  0
 23 28  1  0  0  0  0
 25 29  2  0  0  0  0
 26 30  2  0  0  0  0
 27 31  1  0  0  0  0
 28 32  1  0  0  0  0
 29 33  1  0  0  0  0
 31 34  1  0  0  0  0
 33 35  1  0  0  0  0
 34 36  1  0  0  0  0
 36 37  1  0  0  0  0
  5  6  2  0  0  0  0
 12 13  1  0  0  0  0
 20 24  1  0  0  0  0
 21 22  2  0  0  0  0
 29 30  1  0  0  0  0
 32 34  1  0  0  0  0
M  END
>  <MolRegNo>
1364407

>  <m>
=

>  <Value>
5600

>  <Unit>
nM

>  <Type>
IC50

>  <pValue>
5.25

>  <Ligand Efficiency>
0

>  <Binding Efficiency>
0

>  <Surface Efficiency>
0

>  <Assay Index>
675648

>  <Assay Category>


>  <Assay Organism>


>  <Target ID>
17045

>  <Target Name>
Cytochrome P450 3A4

>  <Target Organism>
Homo sapiens

>  <Target Description>
Target is a single protein chain

>  <Sequence Accession>
P08684

>  <Reference>
Bioorg Med Chem Lett 22 (15), 4979-4985 (2012)

>  <Pubmed ID>
22765894

>  <DOI>
10.1016/j.bmcl.2012.06.029

$$$$
1364409
Actelion Java MolfileCreator 1.0

 35 40  0  0  0  0  0  0  0  0999 V2000
    0.0000   -0.0000   -0.0000 O   0  0  0  0  0  0  0  0  0  0  0  0
    1.4546    0.3193   -0.0000 C   0  0  0  0  0  0  0  0  0  0  0  0
    2.5545   -0.6741   -0.0000 N   0  0  0  0  0  0  0  0  0  0  0  0
    2.0578    1.7030   -0.0000 C   0  0  0  0  0  0  0  0  0  0  0  0
    3.8436    0.0946   -0.0000 C   0  0  0  0  0  0  0  0  0  0  0  0
    3.5361    1.5611   -0.0000 C   0  0  0  0  0  0  0  0  0  0  0  0
    1.2891    3.0157   -0.0000 C   0  0  0  0  0  0  0  0  0  0  0  0
    5.2509   -0.3548   -0.0000 C   0  0  0  0  0  0  0  0  0  0  0  0
    4.6241    2.5781   -0.0000 C   0  0  0  0  0  0  0  0  0  0  0  0
    2.0223    4.3284   -0.0000 C   0  0  0  0  0  0  0  0  0  0  0  0
   -0.2247    3.0275   -0.0000 C   0  0  0  0  0  0  0  0  0  0  0  0
    6.3508    0.6623   -0.0000 C   0  0  0  0  0  0  0  0  0  0  0  0
    6.0314    2.1406   -0.0000 C   0  0  0  0  0  0  0  0  0  0  0  0
    3.5124    4.3403   -0.0000 C   0  0  0  0  0  0  0  0  0  0  0  0
    1.2536    5.6294   -0.0000 C   0  0  0  0  0  0  0  0  0  0  0  0
   -1.1235    4.2575   -0.0000 N   0  0  0  0  0  0  0  0  0  0  0  0
   -1.1235    1.8213   -0.0000 N   0  0  0  0  0  0  0  0  0  0  0  0
    7.1313    3.1576   -0.0000 N   0  0  0  0  0  0  0  0  0  0  0  0
    4.2457    5.6530   -0.0000 C   0  0  0  0  0  0  0  0  0  0  0  0
    1.9868    6.9421   -0.0000 C   0  0  0  0  0  0  0  0  0  0  0  0
   -2.5781    3.7963   -0.0000 C   0  0  0  0  0  0  0  0  0  0  0  0
   -2.5781    2.2943   -0.0000 C   0  0  0  0  0  0  0  0  0  0  0  0
    8.4440    2.4717   -0.0000 C   0  0  0  0  0  0  0  0  0  0  0  0
    3.4770    6.9657   -0.0000 C   0  0  0  0  0  0  0  0  0  0  0  0
   -3.8909    4.5532   -0.0000 C   0  0  0  0  0  0  0  0  0  0  0  0
   -3.8909    1.5493   -0.0000 C   0  0  0  0  0  0  0  0  0  0  0  0
    8.4795    0.9816   -0.0000 C   0  0  0  0  0  0  0  0  0  0  0  0
    9.6858    3.2877   -0.0000 C   0  0  0  0  0  0  0  0  0  0  0  0
   -5.2036    3.8081   -0.0000 C   0  0  0  0  0  0  0  0  0  0  0  0
   -5.2036    2.3180   -0.0000 C   0  0  0  0  0  0  0  0  0  0  0  0
    9.7922    0.2957   -0.0000 C   0  0  0  0  0  0  0  0  0  0  0  0
   10.9985    2.5900   -0.0000 C   0  0  0  0  0  0  0  0  0  0  0  0
   11.0577    1.0999   -0.0000 N   0  0  0  0  0  0  0  0  0  0  0  0
   12.3704    0.4139   -0.0000 C   0  0  0  0  0  0  0  0  0  0  0  0
   13.6358    1.2181   -0.0000 C   0  0  0  0  0  0  0  0  0  0  0  0
  1  2  2  0  0  0  0
  2  3  1  0  0  0  0
  2  4  1  0  0  0  0
  3  5  1  0  0  0  0
  4  6  1  0  0  0  0
  4  7  2  3  0  0  0
  5  8  1  0  0  0  0
  6  9  1  0  0  0  0
  7 10  1  0  0  0  0
  7 11  1  0  0  0  0
  8 12  2  0  0  0  0
  9 13  2  0  0  0  0
 10 14  2  0  0  0  0
 10 15  1  0  0  0  0
 11 16  2  0  0  0  0
 11 17  1  0  0  0  0
 13 18  1  0  0  0  0
 14 19  1  0  0  0  0
 15 20  2  0  0  0  0
 16 21  1  0  0  0  0
 17 22  1  0  0  0  0
 18 23  1  0  0  0  0
 19 24  2  0  0  0  0
 21 25  1  0  0  0  0
 22 26  1  0  0  0  0
 23 27  1  0  0  0  0
 23 28  1  0  0  0  0
 25 29  2  0  0  0  0
 26 30  2  0  0  0  0
 27 31  1  0  0  0  0
 28 32  1  0  0  0  0
 31 33  1  0  0  0  0
 33 34  1  0  0  0  0
 34 35  1  0  0  0  0
  5  6  2  0  0  0  0
 12 13  1  0  0  0  0
 20 24  1  0  0  0  0
 21 22  2  0  0  0  0
 29 30  1  0  0  0  0
 32 33  1  0  0  0  0
M  END
>  <MolRegNo>
1364409

>  <m>
=

>  <Value>
3000

>  <Unit>
nM

>  <Type>
IC50

>  <pValue>
5.52

>  <Ligand Efficiency>
0

>  <Binding Efficiency>
0

>  <Surface Efficiency>
0

>  <Assay Index>
675648

>  <Assay Category>


>  <Assay Organism>


>  <Target ID>
17045

>  <Target Name>
Cytochrome P450 3A4

>  <Target Organism>
Homo sapiens

>  <Target Description>
Target is a single protein chain

>  <Sequence Accession>
P08684

>  <Reference>
Bioorg Med Chem Lett 22 (15), 4979-4985 (2012)

>  <Pubmed ID>
22765894

>  <DOI>
10.1016/j.bmcl.2012.06.029

$$$$
1364410
Actelion Java MolfileCreator 1.0

 36 41  0  0  0  0  0  0  0  0999 V2000
    0.0000   -0.0000   -0.0000 O   0  0  0  0  0  0  0  0  0  0  0  0
    1.4533    0.3190   -0.0000 C   0  0  0  0  0  0  0  0  0  0  0  0
    2.5521   -0.6735   -0.0000 N   0  0  0  0  0  0  0  0  0  0  0  0
    2.0558    1.7014   -0.0000 C   0  0  0  0  0  0  0  0  0  0  0  0
    3.8399    0.0945   -0.0000 C   0  0  0  0  0  0  0  0  0  0  0  0
    3.5327    1.5596   -0.0000 C   0  0  0  0  0  0  0  0  0  0  0  0
    1.2878    3.0129   -0.0000 C   0  0  0  0  0  0  0  0  0  0  0  0
    5.2459   -0.3545   -0.0000 C   0  0  0  0  0  0  0  0  0  0  0  0
    4.6315    2.5757   -0.0000 C   0  0  0  0  0  0  0  0  0  0  0  0
    2.0204    4.3243   -0.0000 C   0  0  0  0  0  0  0  0  0  0  0  0
   -0.2245    3.0247   -0.0000 C   0  0  0  0  0  0  0  0  0  0  0  0
    6.3447    0.6616   -0.0000 C   0  0  0  0  0  0  0  0  0  0  0  0
    6.0375    2.1385   -0.0000 C   0  0  0  0  0  0  0  0  0  0  0  0
    3.5091    4.3361   -0.0000 C   0  0  0  0  0  0  0  0  0  0  0  0
    1.2524    5.6240   -0.0000 C   0  0  0  0  0  0  0  0  0  0  0  0
   -1.1224    4.2534   -0.0000 N   0  0  0  0  0  0  0  0  0  0  0  0
   -1.1224    1.8077   -0.0000 N   0  0  0  0  0  0  0  0  0  0  0  0
    7.1363    3.1546   -0.0000 N   0  0  0  0  0  0  0  0  0  0  0  0
    4.2416    5.6476   -0.0000 C   0  0  0  0  0  0  0  0  0  0  0  0
    1.9849    6.9355   -0.0000 C   0  0  0  0  0  0  0  0  0  0  0  0
   -2.5757    3.7927   -0.0000 C   0  0  0  0  0  0  0  0  0  0  0  0
   -2.5757    2.2803   -0.0000 C   0  0  0  0  0  0  0  0  0  0  0  0
    8.4478    2.4694   -0.0000 C   0  0  0  0  0  0  0  0  0  0  0  0
    3.4736    6.9591   -0.0000 C   0  0  0  0  0  0  0  0  0  0  0  0
   -3.8872    4.5488   -0.0000 C   0  0  0  0  0  0  0  0  0  0  0  0
   -3.8872    1.5360   -0.0000 C   0  0  0  0  0  0  0  0  0  0  0  0
    8.4833    0.9807   -0.0000 C   0  0  0  0  0  0  0  0  0  0  0  0
    9.6884    3.2846   -0.0000 C   0  0  0  0  0  0  0  0  0  0  0  0
    4.2062    8.2706   -0.0000 C   0  0  0  0  0  0  0  0  0  0  0  0
   -5.1987    3.8045   -0.0000 C   0  0  0  0  0  0  0  0  0  0  0  0
   -5.1987    2.3039   -0.0000 C   0  0  0  0  0  0  0  0  0  0  0  0
    9.7947    0.2954   -0.0000 C   0  0  0  0  0  0  0  0  0  0  0  0
   11.0117    2.5875   -0.0000 C   0  0  0  0  0  0  0  0  0  0  0  0
   11.0590    1.0988   -0.0000 N   0  0  0  0  0  0  0  0  0  0  0  0
   12.3704    0.4017   -0.0000 C   0  0  0  0  0  0  0  0  0  0  0  0
   13.6346    1.2051   -0.0000 C   0  0  0  0  0  0  0  0  0  0  0  0
  1  2  2  0  0  0  0
  2  3  1  0  0  0  0
  2  4  1  0  0  0  0
  3  5  1  0  0  0  0
  4  6  1  0  0  0  0
  4  7  2  3  0  0  0
  5  8  1  0  0  0  0
  6  9  1  0  0  0  0
  7 10  1  0  0  0  0
  7 11  1  0  0  0  0
  8 12  2  0  0  0  0
  9 13  2  0  0  0  0
 10 14  2  0  0  0  0
 10 15  1  0  0  0  0
 11 16  2  0  0  0  0
 11 17  1  0  0  0  0
 13 18  1  0  0  0  0
 14 19  1  0  0  0  0
 15 20  2  0  0  0  0
 16 21  1  0  0  0  0
 17 22  1  0  0  0  0
 18 23  1  0  0  0  0
 19 24  2  0  0  0  0
 21 25  1  0  0  0  0
 22 26  1  0  0  0  0
 23 27  1  0  0  0  0
 23 28  1  0  0  0  0
 24 29  1  0  0  0  0
 25 30  2  0  0  0  0
 26 31  2  0  0  0  0
 27 32  1  0  0  0  0
 28 33  1  0  0  0  0
 32 34  1  0  0  0  0
 34 35  1  0  0  0  0
 35 36  1  0  0  0  0
  5  6  2  0  0  0  0
 12 13  1  0  0  0  0
 20 24  1  0  0  0  0
 21 22  2  0  0  0  0
 30 31  1  0  0  0  0
 33 34  1  0  0  0  0
M  END
>  <MolRegNo>
1364410

>  <m>
=

>  <Value>
12000

>  <Unit>
nM

>  <Type>
IC50

>  <pValue>
4.92

>  <Ligand Efficiency>
0

>  <Binding Efficiency>
0

>  <Surface Efficiency>
0

>  <Assay Index>
675648

>  <Assay Category>


>  <Assay Organism>


>  <Target ID>
17045

>  <Target Name>
Cytochrome P450 3A4

>  <Target Organism>
Homo sapiens

>  <Target Description>
Target is a single protein chain

>  <Sequence Accession>
P08684

>  <Reference>
Bioorg Med Chem Lett 22 (15), 4979-4985 (2012)

>  <Pubmed ID>
22765894

>  <DOI>
10.1016/j.bmcl.2012.06.029

$$$$
1364411
Actelion Java MolfileCreator 1.0

 37 42  0  0  0  0  0  0  0  0999 V2000
    0.0000   -0.0000   -0.0000 O   0  0  0  0  0  0  0  0  0  0  0  0
    1.4548    0.3193   -0.0000 C   0  0  0  0  0  0  0  0  0  0  0  0
    2.5547   -0.6742   -0.0000 N   0  0  0  0  0  0  0  0  0  0  0  0
    2.0580    1.7032   -0.0000 C   0  0  0  0  0  0  0  0  0  0  0  0
    3.8439    0.0946   -0.0000 C   0  0  0  0  0  0  0  0  0  0  0  0
    3.5364    1.5612   -0.0000 C   0  0  0  0  0  0  0  0  0  0  0  0
    1.3010    3.0160   -0.0000 C   0  0  0  0  0  0  0  0  0  0  0  0
    5.2514   -0.3548   -0.0000 C   0  0  0  0  0  0  0  0  0  0  0  0
    4.6364    2.5784   -0.0000 C   0  0  0  0  0  0  0  0  0  0  0  0
    2.0343    4.3289   -0.0000 C   0  0  0  0  0  0  0  0  0  0  0  0
   -0.2129    3.0278   -0.0000 C   0  0  0  0  0  0  0  0  0  0  0  0
    6.3514    0.6623   -0.0000 C   0  0  0  0  0  0  0  0  0  0  0  0
    6.0438    2.1408   -0.0000 C   0  0  0  0  0  0  0  0  0  0  0  0
    3.5246    4.3407   -0.0000 C   0  0  0  0  0  0  0  0  0  0  0  0
    1.2655    5.6299   -0.0000 C   0  0  0  0  0  0  0  0  0  0  0  0
   -1.1118    4.2579   -0.0000 N   0  0  0  0  0  0  0  0  0  0  0  0
   -1.1118    1.8214   -0.0000 N   0  0  0  0  0  0  0  0  0  0  0  0
    7.1438    3.1579   -0.0000 N   0  0  0  0  0  0  0  0  0  0  0  0
    4.2579    5.6535   -0.0000 C   0  0  0  0  0  0  0  0  0  0  0  0
    1.9988    6.9427   -0.0000 C   0  0  0  0  0  0  0  0  0  0  0  0
   -2.5666    3.7966   -0.0000 C   0  0  0  0  0  0  0  0  0  0  0  0
   -2.5666    2.2945   -0.0000 C   0  0  0  0  0  0  0  0  0  0  0  0
    8.4566    2.4719   -0.0000 C   0  0  0  0  0  0  0  0  0  0  0  0
    3.4891    6.9664   -0.0000 C   0  0  0  0  0  0  0  0  0  0  0  0
   -3.8794    4.5536   -0.0000 C   0  0  0  0  0  0  0  0  0  0  0  0
   -3.8794    1.5494   -0.0000 C   0  0  0  0  0  0  0  0  0  0  0  0
    8.4921    0.9817   -0.0000 C   0  0  0  0  0  0  0  0  0  0  0  0
    9.6985    3.2880   -0.0000 C   0  0  0  0  0  0  0  0  0  0  0  0
    4.2224    8.2792   -0.0000 O   0  0  0  0  0  0  0  0  0  0  0  0
   -5.1923    3.8084   -0.0000 C   0  0  0  0  0  0  0  0  0  0  0  0
   -5.1923    2.3182   -0.0000 C   0  0  0  0  0  0  0  0  0  0  0  0
    9.8050    0.2957   -0.0000 C   0  0  0  0  0  0  0  0  0  0  0  0
   11.0114    2.5902   -0.0000 C   0  0  0  0  0  0  0  0  0  0  0  0
    5.7127    8.2911   -0.0000 C   0  0  0  0  0  0  0  0  0  0  0  0
   11.0705    1.1000   -0.0000 N   0  0  0  0  0  0  0  0  0  0  0  0
   12.3834    0.4140   -0.0000 C   0  0  0  0  0  0  0  0  0  0  0  0
   13.6489    1.2182   -0.0000 C   0  0  0  0  0  0  0  0  0  0  0  0
  1  2  2  0  0  0  0
  2  3  1  0  0  0  0
  2  4  1  0  0  0  0
  3  5  1  0  0  0  0
  4  6  1  0  0  0  0
  4  7  2  3  0  0  0
  5  8  1  0  0  0  0
  6  9  1  0  0  0  0
  7 10  1  0  0  0  0
  7 11  1  0  0  0  0
  8 12  2  0  0  0  0
  9 13  2  0  0  0  0
 10 14  2  0  0  0  0
 10 15  1  0  0  0  0
 11 16  2  0  0  0  0
 11 17  1  0  0  0  0
 13 18  1  0  0  0  0
 14 19  1  0  0  0  0
 15 20  2  0  0  0  0
 16 21  1  0  0  0  0
 17 22  1  0  0  0  0
 18 23  1  0  0  0  0
 19 24  2  0  0  0  0
 21 25  1  0  0  0  0
 22 26  1  0  0  0  0
 23 27  1  0  0  0  0
 23 28  1  0  0  0  0
 24 29  1  0  0  0  0
 25 30  2  0  0  0  0
 26 31  2  0  0  0  0
 27 32  1  0  0  0  0
 28 33  1  0  0  0  0
 29 34  1  0  0  0  0
 32 35  1  0  0  0  0
 35 36  1  0  0  0  0
 36 37  1  0  0  0  0
  5  6  2  0  0  0  0
 12 13  1  0  0  0  0
 20 24  1  0  0  0  0
 21 22  2  0  0  0  0
 30 31  1  0  0  0  0
 33 35  1  0  0  0  0
M  END
>  <MolRegNo>
1364411

>  <m>
=

>  <Value>
9000

>  <Unit>
nM

>  <Type>
IC50

>  <pValue>
5.05

>  <Ligand Efficiency>
0

>  <Binding Efficiency>
0

>  <Surface Efficiency>
0

>  <Assay Index>
675648

>  <Assay Category>


>  <Assay Organism>


>  <Target ID>
17045

>  <Target Name>
Cytochrome P450 3A4

>  <Target Organism>
Homo sapiens

>  <Target Description>
Target is a single protein chain

>  <Sequence Accession>
P08684

>  <Reference>
Bioorg Med Chem Lett 22 (15), 4979-4985 (2012)

>  <Pubmed ID>
22765894

>  <DOI>
10.1016/j.bmcl.2012.06.029

$$$$
1364412
Actelion Java MolfileCreator 1.0

 36 41  0  0  0  0  0  0  0  0999 V2000
    0.0000   -0.0000   -0.0000 F   0  0  0  0  0  0  0  0  0  0  0  0
   -1.5084    0.0119   -0.0000 C   0  0  0  0  0  0  0  0  0  0  0  0
   -2.2686   -1.2709   -0.0000 C   0  0  0  0  0  0  0  0  0  0  0  0
   -2.2686    1.3303   -0.0000 C   0  0  0  0  0  0  0  0  0  0  0  0
   -3.7770   -1.2590   -0.0000 C   0  0  0  0  0  0  0  0  0  0  0  0
   -3.7889    1.3421   -0.0000 C   0  0  0  0  0  0  0  0  0  0  0  0
   -4.5372   -2.5418   -0.0000 C   0  0  0  0  0  0  0  0  0  0  0  0
   -4.5372    0.0475   -0.0000 C   0  0  0  0  0  0  0  0  0  0  0  0
   -3.8008   -3.8245   -0.0000 C   0  0  0  0  0  0  0  0  0  0  0  0
   -6.0456   -2.5299   -0.0000 C   0  0  0  0  0  0  0  0  0  0  0  0
   -4.4303   -5.1786   -0.0000 C   0  0  0  0  0  0  0  0  0  0  0  0
   -2.3280   -3.9671   -0.0000 C   0  0  0  0  0  0  0  0  0  0  0  0
   -6.9483   -1.2946   -0.0000 N   0  0  0  0  0  0  0  0  0  0  0  0
   -6.9483   -3.7414   -0.0000 N   0  0  0  0  0  0  0  0  0  0  0  0
   -5.9150   -5.4755   -0.0000 O   0  0  0  0  0  0  0  0  0  0  0  0
   -3.3257   -6.1763   -0.0000 N   0  0  0  0  0  0  0  0  0  0  0  0
   -2.0310   -5.4161   -0.0000 C   0  0  0  0  0  0  0  0  0  0  0  0
   -1.2353   -2.9575   -0.0000 C   0  0  0  0  0  0  0  0  0  0  0  0
   -8.3973   -1.7460   -0.0000 C   0  0  0  0  0  0  0  0  0  0  0  0
   -8.3973   -3.2663   -0.0000 C   0  0  0  0  0  0  0  0  0  0  0  0
   -0.6176   -5.8674   -0.0000 C   0  0  0  0  0  0  0  0  0  0  0  0
    0.1782   -3.3969   -0.0000 C   0  0  0  0  0  0  0  0  0  0  0  0
   -9.7157   -0.9858   -0.0000 C   0  0  0  0  0  0  0  0  0  0  0  0
   -9.7039   -4.0027   -0.0000 C   0  0  0  0  0  0  0  0  0  0  0  0
    0.4870   -4.8579   -0.0000 C   0  0  0  0  0  0  0  0  0  0  0  0
    1.2828   -2.3755   -0.0000 N   0  0  0  0  0  0  0  0  0  0  0  0
  -11.0222   -1.7222   -0.0000 C   0  0  0  0  0  0  0  0  0  0  0  0
  -11.0104   -3.2425   -0.0000 C   0  0  0  0  0  0  0  0  0  0  0  0
    2.6012   -3.0644   -0.0000 C   0  0  0  0  0  0  0  0  0  0  0  0
    2.6368   -4.5491   -0.0000 C   0  0  0  0  0  0  0  0  0  0  0  0
    3.8483   -2.2448   -0.0000 C   0  0  0  0  0  0  0  0  0  0  0  0
    3.9433   -5.2379   -0.0000 C   0  0  0  0  0  0  0  0  0  0  0  0
    5.1667   -2.9337   -0.0000 C   0  0  0  0  0  0  0  0  0  0  0  0
    5.2023   -4.4303   -0.0000 N   0  0  0  0  0  0  0  0  0  0  0  0
    6.5207   -5.1192   -0.0000 C   0  0  0  0  0  0  0  0  0  0  0  0
    7.7797   -4.3115   -0.0000 C   0  0  0  0  0  0  0  0  0  0  0  0
  1  2  1  0  0  0  0
  2  3  2  0  0  0  0
  2  4  1  0  0  0  0
  3  5  1  0  0  0  0
  4  6  2  0  0  0  0
  5  7  1  0  0  0  0
  5  8  2  0  0  0  0
  7  9  2  3  0  0  0
  7 10  1  0  0  0  0
  9 11  1  0  0  0  0
  9 12  1  0  0  0  0
 10 13  2  0  0  0  0
 10 14  1  0  0  0  0
 11 15  2  0  0  0  0
 11 16  1  0  0  0  0
 12 17  2  0  0  0  0
 12 18  1  0  0  0  0
 13 19  1  0  0  0  0
 14 20  1  0  0  0  0
 17 21  1  0  0  0  0
 18 22  2  0  0  0  0
 19 23  1  0  0  0  0
 20 24  1  0  0  0  0
 21 25  2  0  0  0  0
 22 26  1  0  0  0  0
 23 27  2  0  0  0  0
 24 28  2  0  0  0  0
 26 29  1  0  0  0  0
 29 30  1  0  0  0  0
 29 31  1  0  0  0  0
 30 32  1  0  0  0  0
 31 33  1  0  0  0  0
 32 34  1  0  0  0  0
 34 35  1  0  0  0  0
 35 36  1  0  0  0  0
  6  8  1  0  0  0  0
 16 17  1  0  0  0  0
 19 20  2  0  0  0  0
 22 25  1  0  0  0  0
 27 28  1  0  0  0  0
 33 34  1  0  0  0  0
M  END
>  <MolRegNo>
1364412

>  <m>
=

>  <Value>
4000

>  <Unit>
nM

>  <Type>
IC50

>  <pValue>
5.4

>  <Ligand Efficiency>
0

>  <Binding Efficiency>
0

>  <Surface Efficiency>
0

>  <Assay Index>
675648

>  <Assay Category>


>  <Assay Organism>


>  <Target ID>
17045

>  <Target Name>
Cytochrome P450 3A4

>  <Target Organism>
Homo sapiens

>  <Target Description>
Target is a single protein chain

>  <Sequence Accession>
P08684

>  <Reference>
Bioorg Med Chem Lett 22 (15), 4979-4985 (2012)

>  <Pubmed ID>
22765894

>  <DOI>
10.1016/j.bmcl.2012.06.029

$$$$
1364413
Actelion Java MolfileCreator 1.0

 37 42  0  0  0  0  0  0  0  0999 V2000
    0.0000   -0.0000   -0.0000 F   0  0  0  0  0  0  0  0  0  0  0  0
   -1.5077    0.0119   -0.0000 C   0  0  0  0  0  0  0  0  0  0  0  0
   -2.2675    1.3296   -0.0000 C   0  0  0  0  0  0  0  0  0  0  0  0
   -2.2675   -1.2703   -0.0000 C   0  0  0  0  0  0  0  0  0  0  0  0
   -3.7871    1.3415   -0.0000 C   0  0  0  0  0  0  0  0  0  0  0  0
   -3.7752   -1.2584   -0.0000 C   0  0  0  0  0  0  0  0  0  0  0  0
   -4.5588    2.6474   -0.0000 F   0  0  0  0  0  0  0  0  0  0  0  0
   -4.5469    0.0594   -0.0000 C   0  0  0  0  0  0  0  0  0  0  0  0
   -4.5350   -2.5406   -0.0000 C   0  0  0  0  0  0  0  0  0  0  0  0
   -3.7990   -3.8227   -0.0000 C   0  0  0  0  0  0  0  0  0  0  0  0
   -6.0428   -2.5287   -0.0000 C   0  0  0  0  0  0  0  0  0  0  0  0
   -4.4282   -5.1761   -0.0000 C   0  0  0  0  0  0  0  0  0  0  0  0
   -2.3269   -3.9652   -0.0000 C   0  0  0  0  0  0  0  0  0  0  0  0
   -6.9450   -1.2940   -0.0000 N   0  0  0  0  0  0  0  0  0  0  0  0
   -6.9450   -3.7396   -0.0000 N   0  0  0  0  0  0  0  0  0  0  0  0
   -5.9122   -5.4729   -0.0000 O   0  0  0  0  0  0  0  0  0  0  0  0
   -3.3241   -6.1734   -0.0000 N   0  0  0  0  0  0  0  0  0  0  0  0
   -2.0301   -5.4136   -0.0000 C   0  0  0  0  0  0  0  0  0  0  0  0
   -1.2347   -2.9561   -0.0000 C   0  0  0  0  0  0  0  0  0  0  0  0
   -8.3934   -1.7452   -0.0000 C   0  0  0  0  0  0  0  0  0  0  0  0
   -8.3934   -3.2648   -0.0000 C   0  0  0  0  0  0  0  0  0  0  0  0
   -0.6173   -5.8647   -0.0000 C   0  0  0  0  0  0  0  0  0  0  0  0
    0.1781   -3.3953   -0.0000 C   0  0  0  0  0  0  0  0  0  0  0  0
   -9.7112   -0.9854   -0.0000 C   0  0  0  0  0  0  0  0  0  0  0  0
   -9.6993   -4.0008   -0.0000 C   0  0  0  0  0  0  0  0  0  0  0  0
    0.4867   -4.8556   -0.0000 C   0  0  0  0  0  0  0  0  0  0  0  0
    1.2822   -2.3744   -0.0000 N   0  0  0  0  0  0  0  0  0  0  0  0
  -11.0171   -1.7214   -0.0000 C   0  0  0  0  0  0  0  0  0  0  0  0
  -11.0052   -3.2410   -0.0000 C   0  0  0  0  0  0  0  0  0  0  0  0
    2.5999   -3.0629   -0.0000 C   0  0  0  0  0  0  0  0  0  0  0  0
    2.6356   -4.5469   -0.0000 C   0  0  0  0  0  0  0  0  0  0  0  0
    3.8465   -2.2438   -0.0000 C   0  0  0  0  0  0  0  0  0  0  0  0
    3.9415   -5.2355   -0.0000 C   0  0  0  0  0  0  0  0  0  0  0  0
    5.1643   -2.9323   -0.0000 C   0  0  0  0  0  0  0  0  0  0  0  0
    5.1999   -4.4282   -0.0000 N   0  0  0  0  0  0  0  0  0  0  0  0
    6.5176   -5.1168   -0.0000 C   0  0  0  0  0  0  0  0  0  0  0  0
    7.7761   -4.3095   -0.0000 C   0  0  0  0  0  0  0  0  0  0  0  0
  1  2  1  0  0  0  0
  2  3  2  0  0  0  0
  2  4  1  0  0  0  0
  3  5  1  0  0  0  0
  4  6  2  0  0  0  0
  5  7  1  0  0  0  0
  5  8  2  0  0  0  0
  6  9  1  0  0  0  0
  9 10  2  3  0  0  0
  9 11  1  0  0  0  0
 10 12  1  0  0  0  0
 10 13  1  0  0  0  0
 11 14  2  0  0  0  0
 11 15  1  0  0  0  0
 12 16  2  0  0  0  0
 12 17  1  0  0  0  0
 13 18  2  0  0  0  0
 13 19  1  0  0  0  0
 14 20  1  0  0  0  0
 15 21  1  0  0  0  0
 18 22  1  0  0  0  0
 19 23  2  0  0  0  0
 20 24  1  0  0  0  0
 21 25  1  0  0  0  0
 22 26  2  0  0  0  0
 23 27  1  0  0  0  0
 24 28  2  0  0  0  0
 25 29  2  0  0  0  0
 27 30  1  0  0  0  0
 30 31  1  0  0  0  0
 30 32  1  0  0  0  0
 31 33  1  0  0  0  0
 32 34  1  0  0  0  0
 33 35  1  0  0  0  0
 35 36  1  0  0  0  0
 36 37  1  0  0  0  0
  6  8  1  0  0  0  0
 17 18  1  0  0  0  0
 20 21  2  0  0  0  0
 23 26  1  0  0  0  0
 28 29  1  0  0  0  0
 34 35  1  0  0  0  0
M  END
>  <MolRegNo>
1364413

>  <m>
=

>  <Value>
6000

>  <Unit>
nM

>  <Type>
IC50

>  <pValue>
5.22

>  <Ligand Efficiency>
0

>  <Binding Efficiency>
0

>  <Surface Efficiency>
0

>  <Assay Index>
675648

>  <Assay Category>


>  <Assay Organism>


>  <Target ID>
17045

>  <Target Name>
Cytochrome P450 3A4

>  <Target Organism>
Homo sapiens

>  <Target Description>
Target is a single protein chain

>  <Sequence Accession>
P08684

>  <Reference>
Bioorg Med Chem Lett 22 (15), 4979-4985 (2012)

>  <Pubmed ID>
22765894

>  <DOI>
10.1016/j.bmcl.2012.06.029

$$$$
1364414
Actelion Java MolfileCreator 1.0

 31 35  0  0  0  0  0  0  0  0999 V2000
    0.0000   -0.0000   -0.0000 O   0  0  0  0  0  0  0  0  0  0  0  0
    1.4559    0.3196   -0.0000 C   0  0  0  0  0  0  0  0  0  0  0  0
    2.5567   -0.6747   -0.0000 N   0  0  0  0  0  0  0  0  0  0  0  0
    2.0596    1.7045   -0.0000 C   0  0  0  0  0  0  0  0  0  0  0  0
    3.8469    0.0947   -0.0000 C   0  0  0  0  0  0  0  0  0  0  0  0
    3.5391    1.5624   -0.0000 C   0  0  0  0  0  0  0  0  0  0  0  0
    1.3020    3.0183   -0.0000 C   0  0  0  0  0  0  0  0  0  0  0  0
    5.2554   -0.3551   -0.0000 C   0  0  0  0  0  0  0  0  0  0  0  0
    4.6399    2.5804   -0.0000 C   0  0  0  0  0  0  0  0  0  0  0  0
    2.0359    4.3322   -0.0000 C   0  0  0  0  0  0  0  0  0  0  0  0
   -0.2131    3.0302   -0.0000 C   0  0  0  0  0  0  0  0  0  0  0  0
    6.3562    0.6628   -0.0000 C   0  0  0  0  0  0  0  0  0  0  0  0
    6.0485    2.1424   -0.0000 C   0  0  0  0  0  0  0  0  0  0  0  0
    3.5273    4.3440   -0.0000 C   0  0  0  0  0  0  0  0  0  0  0  0
    1.2665    5.6342   -0.0000 C   0  0  0  0  0  0  0  0  0  0  0  0
   -1.1126    4.2612   -0.0000 N   0  0  0  0  0  0  0  0  0  0  0  0
   -1.1126    1.8228   -0.0000 N   0  0  0  0  0  0  0  0  0  0  0  0
    7.1493    3.1604   -0.0000 N   0  0  0  0  0  0  0  0  0  0  0  0
    4.2612    5.6579   -0.0000 C   0  0  0  0  0  0  0  0  0  0  0  0
    2.0004    6.9481   -0.0000 C   0  0  0  0  0  0  0  0  0  0  0  0
   -2.5685    3.7995   -0.0000 C   0  0  0  0  0  0  0  0  0  0  0  0
   -2.5685    2.2963   -0.0000 C   0  0  0  0  0  0  0  0  0  0  0  0
    8.4631    2.4738   -0.0000 C   0  0  0  0  0  0  0  0  0  0  0  0
    3.4918    6.9717   -0.0000 C   0  0  0  0  0  0  0  0  0  0  0  0
    8.4987    0.9824   -0.0000 C   0  0  0  0  0  0  0  0  0  0  0  0
    9.7060    3.2906   -0.0000 C   0  0  0  0  0  0  0  0  0  0  0  0
    9.8125    0.2959   -0.0000 C   0  0  0  0  0  0  0  0  0  0  0  0
   11.0198    2.5922   -0.0000 C   0  0  0  0  0  0  0  0  0  0  0  0
   11.0790    1.1008   -0.0000 N   0  0  0  0  0  0  0  0  0  0  0  0
   12.3929    0.4143   -0.0000 C   0  0  0  0  0  0  0  0  0  0  0  0
   13.6594    1.2192   -0.0000 C   0  0  0  0  0  0  0  0  0  0  0  0
  1  2  2  0  0  0  0
  2  3  1  0  0  0  0
  2  4  1  0  0  0  0
  3  5  1  0  0  0  0
  4  6  1  0  0  0  0
  4  7  2  3  0  0  0
  5  8  1  0  0  0  0
  6  9  1  0  0  0  0
  7 10  1  0  0  0  0
  7 11  1  0  0  0  0
  8 12  2  0  0  0  0
  9 13  2  0  0  0  0
 10 14  2  0  0  0  0
 10 15  1  0  0  0  0
 11 16  2  0  0  0  0
 11 17  1  0  0  0  0
 13 18  1  0  0  0  0
 14 19  1  0  0  0  0
 15 20  2  0  0  0  0
 16 21  1  0  0  0  0
 17 22  1  0  0  0  0
 18 23  1  0  0  0  0
 19 24  2  0  0  0  0
 23 25  1  0  0  0  0
 23 26  1  0  0  0  0
 25 27  1  0  0  0  0
 26 28  1  0  0  0  0
 27 29  1  0  0  0  0
 29 30  1  0  0  0  0
 30 31  1  0  0  0  0
  5  6  2  0  0  0  0
 12 13  1  0  0  0  0
 20 24  1  0  0  0  0
 21 22  2  0  0  0  0
 28 29  1  0  0  0  0
M  END
>  <MolRegNo>
1364414

>  <m>
=

>  <Value>
25000

>  <Unit>
nM

>  <Type>
IC50

>  <pValue>
4.6

>  <Ligand Efficiency>
0

>  <Binding Efficiency>
0

>  <Surface Efficiency>
0

>  <Assay Index>
675648

>  <Assay Category>


>  <Assay Organism>


>  <Target ID>
17045

>  <Target Name>
Cytochrome P450 3A4

>  <Target Organism>
Homo sapiens

>  <Target Description>
Target is a single protein chain

>  <Sequence Accession>
P08684

>  <Reference>
Bioorg Med Chem Lett 22 (15), 4979-4985 (2012)

>  <Pubmed ID>
22765894

>  <DOI>
10.1016/j.bmcl.2012.06.029

$$$$
1364415
Actelion Java MolfileCreator 1.0

 32 36  0  0  0  0  0  0  0  0999 V2000
    0.0000   -0.0000   -0.0000 F   0  0  0  0  0  0  0  0  0  0  0  0
   -1.5099    0.0119   -0.0000 C   0  0  0  0  0  0  0  0  0  0  0  0
   -2.2708   -1.2721   -0.0000 C   0  0  0  0  0  0  0  0  0  0  0  0
   -2.2708    1.3316   -0.0000 C   0  0  0  0  0  0  0  0  0  0  0  0
   -3.7807   -1.2602   -0.0000 C   0  0  0  0  0  0  0  0  0  0  0  0
   -3.7926    1.3435   -0.0000 C   0  0  0  0  0  0  0  0  0  0  0  0
   -4.5417   -2.5443   -0.0000 C   0  0  0  0  0  0  0  0  0  0  0  0
   -4.5417    0.0476   -0.0000 C   0  0  0  0  0  0  0  0  0  0  0  0
   -3.8045   -3.8283   -0.0000 C   0  0  0  0  0  0  0  0  0  0  0  0
   -6.0516   -2.5324   -0.0000 C   0  0  0  0  0  0  0  0  0  0  0  0
   -4.4347   -5.1837   -0.0000 C   0  0  0  0  0  0  0  0  0  0  0  0
   -2.3303   -3.9710   -0.0000 C   0  0  0  0  0  0  0  0  0  0  0  0
   -6.9552   -1.2959   -0.0000 N   0  0  0  0  0  0  0  0  0  0  0  0
   -6.9552   -3.7451   -0.0000 N   0  0  0  0  0  0  0  0  0  0  0  0
   -5.9208   -5.4809   -0.0000 O   0  0  0  0  0  0  0  0  0  0  0  0
   -3.3290   -6.1824   -0.0000 N   0  0  0  0  0  0  0  0  0  0  0  0
   -2.0330   -5.4215   -0.0000 C   0  0  0  0  0  0  0  0  0  0  0  0
   -1.2365   -2.9604   -0.0000 C   0  0  0  0  0  0  0  0  0  0  0  0
   -8.4056   -1.7477   -0.0000 C   0  0  0  0  0  0  0  0  0  0  0  0
   -8.4056   -3.2695   -0.0000 C   0  0  0  0  0  0  0  0  0  0  0  0
   -0.6182   -5.8732   -0.0000 C   0  0  0  0  0  0  0  0  0  0  0  0
    0.1783   -3.4003   -0.0000 C   0  0  0  0  0  0  0  0  0  0  0  0
    0.4875   -4.8627   -0.0000 C   0  0  0  0  0  0  0  0  0  0  0  0
    1.2840   -2.3778   -0.0000 N   0  0  0  0  0  0  0  0  0  0  0  0
    2.6037   -3.0674   -0.0000 C   0  0  0  0  0  0  0  0  0  0  0  0
    2.6394   -4.5535   -0.0000 C   0  0  0  0  0  0  0  0  0  0  0  0
    3.8521   -2.2470   -0.0000 C   0  0  0  0  0  0  0  0  0  0  0  0
    3.9472   -5.2431   -0.0000 C   0  0  0  0  0  0  0  0  0  0  0  0
    5.1718   -2.9366   -0.0000 C   0  0  0  0  0  0  0  0  0  0  0  0
    5.2074   -4.4347   -0.0000 N   0  0  0  0  0  0  0  0  0  0  0  0
    6.5271   -5.1242   -0.0000 C   0  0  0  0  0  0  0  0  0  0  0  0
    7.7874   -4.3158   -0.0000 C   0  0  0  0  0  0  0  0  0  0  0  0
  1  2  1  0  0  0  0
  2  3  2  0  0  0  0
  2  4  1  0  0  0  0
  3  5  1  0  0  0  0
  4  6  2  0  0  0  0
  5  7  1  0  0  0  0
  5  8  2  0  0  0  0
  7  9  2  3  0  0  0
  7 10  1  0  0  0  0
  9 11  1  0  0  0  0
  9 12  1  0  0  0  0
 10 13  2  0  0  0  0
 10 14  1  0  0  0  0
 11 15  2  0  0  0  0
 11 16  1  0  0  0  0
 12 17  2  0  0  0  0
 12 18  1  0  0  0  0
 13 19  1  0  0  0  0
 14 20  1  0  0  0  0
 17 21  1  0  0  0  0
 18 22  2  0  0  0  0
 21 23  2  0  0  0  0
 22 24  1  0  0  0  0
 24 25  1  0  0  0  0
 25 26  1  0  0  0  0
 25 27  1  0  0  0  0
 26 28  1  0  0  0  0
 27 29  1  0  0  0  0
 28 30  1  0  0  0  0
 30 31  1  0  0  0  0
 31 32  1  0  0  0  0
  6  8  1  0  0  0  0
 16 17  1  0  0  0  0
 19 20  2  0  0  0  0
 22 23  1  0  0  0  0
 29 30  1  0  0  0  0
M  END
>  <MolRegNo>
1364415

>  <m>
=

>  <Value>
23000

>  <Unit>
nM

>  <Type>
IC50

>  <pValue>
4.64

>  <Ligand Efficiency>
0

>  <Binding Efficiency>
0

>  <Surface Efficiency>
0

>  <Assay Index>
675648

>  <Assay Category>


>  <Assay Organism>


>  <Target ID>
17045

>  <Target Name>
Cytochrome P450 3A4

>  <Target Organism>
Homo sapiens

>  <Target Description>
Target is a single protein chain

>  <Sequence Accession>
P08684

>  <Reference>
Bioorg Med Chem Lett 22 (15), 4979-4985 (2012)

>  <Pubmed ID>
22765894

>  <DOI>
10.1016/j.bmcl.2012.06.029

$$$$
1364827
Actelion Java MolfileCreator 1.0

 33 37  0  0  0  0  0  0  0  0999 V2000
    0.0000   -0.0000   -0.0000 F   0  0  0  0  0  0  0  0  0  0  0  0
   -1.5095    0.0119   -0.0000 C   0  0  0  0  0  0  0  0  0  0  0  0
   -2.2702   -1.2718   -0.0000 C   0  0  0  0  0  0  0  0  0  0  0  0
   -2.2702    1.3312   -0.0000 C   0  0  0  0  0  0  0  0  0  0  0  0
   -3.7797   -1.2599   -0.0000 C   0  0  0  0  0  0  0  0  0  0  0  0
   -3.7916    1.3431   -0.0000 C   0  0  0  0  0  0  0  0  0  0  0  0
   -4.5404   -2.5436   -0.0000 C   0  0  0  0  0  0  0  0  0  0  0  0
   -4.5404    0.0475   -0.0000 C   0  0  0  0  0  0  0  0  0  0  0  0
   -3.8035   -3.8273   -0.0000 C   0  0  0  0  0  0  0  0  0  0  0  0
   -6.0500   -2.5317   -0.0000 C   0  0  0  0  0  0  0  0  0  0  0  0
   -4.4335   -5.1823   -0.0000 C   0  0  0  0  0  0  0  0  0  0  0  0
   -2.3297   -3.9699   -0.0000 C   0  0  0  0  0  0  0  0  0  0  0  0
   -6.9533   -1.2956   -0.0000 N   0  0  0  0  0  0  0  0  0  0  0  0
   -6.9533   -3.7441   -0.0000 N   0  0  0  0  0  0  0  0  0  0  0  0
   -5.9192   -5.4794   -0.0000 O   0  0  0  0  0  0  0  0  0  0  0  0
   -3.3281   -6.1807   -0.0000 N   0  0  0  0  0  0  0  0  0  0  0  0
   -2.0325   -5.4200   -0.0000 C   0  0  0  0  0  0  0  0  0  0  0  0
   -1.2361   -2.9596   -0.0000 C   0  0  0  0  0  0  0  0  0  0  0  0
   -8.4034   -1.7472   -0.0000 C   0  0  0  0  0  0  0  0  0  0  0  0
   -8.4034   -3.2686   -0.0000 C   0  0  0  0  0  0  0  0  0  0  0  0
   -0.6181   -5.8717   -0.0000 C   0  0  0  0  0  0  0  0  0  0  0  0
    0.1783   -3.3994   -0.0000 C   0  0  0  0  0  0  0  0  0  0  0  0
   -9.6276   -0.8558   -0.0000 C   0  0  0  0  0  0  0  0  0  0  0  0
    0.4873   -4.8614   -0.0000 C   0  0  0  0  0  0  0  0  0  0  0  0
    1.2837   -2.3772   -0.0000 N   0  0  0  0  0  0  0  0  0  0  0  0
    2.6030   -3.0666   -0.0000 C   0  0  0  0  0  0  0  0  0  0  0  0
    2.6387   -4.5523   -0.0000 C   0  0  0  0  0  0  0  0  0  0  0  0
    3.8511   -2.2464   -0.0000 C   0  0  0  0  0  0  0  0  0  0  0  0
    3.9461   -5.2417   -0.0000 C   0  0  0  0  0  0  0  0  0  0  0  0
    5.1704   -2.9358   -0.0000 C   0  0  0  0  0  0  0  0  0  0  0  0
    5.2061   -4.4335   -0.0000 N   0  0  0  0  0  0  0  0  0  0  0  0
    6.5254   -5.1229   -0.0000 C   0  0  0  0  0  0  0  0  0  0  0  0
    7.7853   -4.3146   -0.0000 C   0  0  0  0  0  0  0  0  0  0  0  0
  1  2  1  0  0  0  0
  2  3  2  0  0  0  0
  2  4  1  0  0  0  0
  3  5  1  0  0  0  0
  4  6  2  0  0  0  0
  5  7  1  0  0  0  0
  5  8  2  0  0  0  0
  7  9  2  3  0  0  0
  7 10  1  0  0  0  0
  9 11  1  0  0  0  0
  9 12  1  0  0  0  0
 10 13  2  0  0  0  0
 10 14  1  0  0  0  0
 11 15  2  0  0  0  0
 11 16  1  0  0  0  0
 12 17  2  0  0  0  0
 12 18  1  0  0  0  0
 13 19  1  0  0  0  0
 14 20  1  0  0  0  0
 17 21  1  0  0  0  0
 18 22  2  0  0  0  0
 19 23  1  0  0  0  0
 21 24  2  0  0  0  0
 22 25  1  0  0  0  0
 25 26  1  0  0  0  0
 26 27  1  0  0  0  0
 26 28  1  0  0  0  0
 27 29  1  0  0  0  0
 28 30  1  0  0  0  0
 29 31  1  0  0  0  0
 31 32  1  0  0  0  0
 32 33  1  0  0  0  0
  6  8  1  0  0  0  0
 16 17  1  0  0  0  0
 19 20  2  0  0  0  0
 22 24  1  0  0  0  0
 30 31  1  0  0  0  0
M  END
>  <MolRegNo>
1364827

>  <m>
=

>  <Value>
25000

>  <Unit>
nM

>  <Type>
IC50

>  <pValue>
4.6

>  <Ligand Efficiency>
0

>  <Binding Efficiency>
0

>  <Surface Efficiency>
0

>  <Assay Index>
675648

>  <Assay Category>


>  <Assay Organism>


>  <Target ID>
17045

>  <Target Name>
Cytochrome P450 3A4

>  <Target Organism>
Homo sapiens

>  <Target Description>
Target is a single protein chain

>  <Sequence Accession>
P08684

>  <Reference>
Bioorg Med Chem Lett 22 (15), 4979-4985 (2012)

>  <Pubmed ID>
22765894

>  <DOI>
10.1016/j.bmcl.2012.06.029

$$$$
1364828
Actelion Java MolfileCreator 1.0

 34 38  0  0  0  0  0  0  0  0999 V2000
    0.0000   -0.0000   -0.0000 F   0  0  0  0  0  0  0  0  0  0  0  0
   -1.5087    0.0119   -0.0000 C   0  0  0  0  0  0  0  0  0  0  0  0
   -2.2690    1.3305   -0.0000 C   0  0  0  0  0  0  0  0  0  0  0  0
   -2.2690   -1.2711   -0.0000 C   0  0  0  0  0  0  0  0  0  0  0  0
   -3.7896    1.3424   -0.0000 C   0  0  0  0  0  0  0  0  0  0  0  0
   -3.7777   -1.2592   -0.0000 C   0  0  0  0  0  0  0  0  0  0  0  0
   -4.5618    2.6491   -0.0000 F   0  0  0  0  0  0  0  0  0  0  0  0
   -4.5499    0.0594   -0.0000 C   0  0  0  0  0  0  0  0  0  0  0  0
   -4.5380   -2.5422   -0.0000 C   0  0  0  0  0  0  0  0  0  0  0  0
   -3.8015   -3.8252   -0.0000 C   0  0  0  0  0  0  0  0  0  0  0  0
   -6.0467   -2.5304   -0.0000 C   0  0  0  0  0  0  0  0  0  0  0  0
   -4.4311   -5.1795   -0.0000 C   0  0  0  0  0  0  0  0  0  0  0  0
   -2.3284   -3.9678   -0.0000 C   0  0  0  0  0  0  0  0  0  0  0  0
   -6.9496   -1.2949   -0.0000 N   0  0  0  0  0  0  0  0  0  0  0  0
   -6.9496   -3.7421   -0.0000 N   0  0  0  0  0  0  0  0  0  0  0  0
   -5.9160   -5.4765   -0.0000 O   0  0  0  0  0  0  0  0  0  0  0  0
   -3.3263   -6.1774   -0.0000 N   0  0  0  0  0  0  0  0  0  0  0  0
   -2.0314   -5.4171   -0.0000 C   0  0  0  0  0  0  0  0  0  0  0  0
   -1.2355   -2.9580   -0.0000 C   0  0  0  0  0  0  0  0  0  0  0  0
   -8.3989   -1.7463   -0.0000 C   0  0  0  0  0  0  0  0  0  0  0  0
   -8.3989   -3.2669   -0.0000 C   0  0  0  0  0  0  0  0  0  0  0  0
   -0.6177   -5.8685   -0.0000 C   0  0  0  0  0  0  0  0  0  0  0  0
    0.1782   -3.3976   -0.0000 C   0  0  0  0  0  0  0  0  0  0  0  0
   -9.6225   -0.8553   -0.0000 C   0  0  0  0  0  0  0  0  0  0  0  0
    0.4871   -4.8587   -0.0000 C   0  0  0  0  0  0  0  0  0  0  0  0
    1.2830   -2.3759   -0.0000 N   0  0  0  0  0  0  0  0  0  0  0  0
    2.6016   -3.0649   -0.0000 C   0  0  0  0  0  0  0  0  0  0  0  0
    2.6373   -4.5499   -0.0000 C   0  0  0  0  0  0  0  0  0  0  0  0
    3.8490   -2.2452   -0.0000 C   0  0  0  0  0  0  0  0  0  0  0  0
    3.9440   -5.2389   -0.0000 C   0  0  0  0  0  0  0  0  0  0  0  0
    5.1676   -2.9343   -0.0000 C   0  0  0  0  0  0  0  0  0  0  0  0
    5.2033   -4.4311   -0.0000 N   0  0  0  0  0  0  0  0  0  0  0  0
    6.5219   -5.1201   -0.0000 C   0  0  0  0  0  0  0  0  0  0  0  0
    7.7811   -4.3123   -0.0000 C   0  0  0  0  0  0  0  0  0  0  0  0
  1  2  1  0  0  0  0
  2  3  2  0  0  0  0
  2  4  1  0  0  0  0
  3  5  1  0  0  0  0
  4  6  2  0  0  0  0
  5  7  1  0  0  0  0
  5  8  2  0  0  0  0
  6  9  1  0  0  0  0
  9 10  2  3  0  0  0
  9 11  1  0  0  0  0
 10 12  1  0  0  0  0
 10 13  1  0  0  0  0
 11 14  2  0  0  0  0
 11 15  1  0  0  0  0
 12 16  2  0  0  0  0
 12 17  1  0  0  0  0
 13 18  2  0  0  0  0
 13 19  1  0  0  0  0
 14 20  1  0  0  0  0
 15 21  1  0  0  0  0
 18 22  1  0  0  0  0
 19 23  2  0  0  0  0
 20 24  1  0  0  0  0
 22 25  2  0  0  0  0
 23 26  1  0  0  0  0
 26 27  1  0  0  0  0
 27 28  1  0  0  0  0
 27 29  1  0  0  0  0
 28 30  1  0  0  0  0
 29 31  1  0  0  0  0
 30 32  1  0  0  0  0
 32 33  1  0  0  0  0
 33 34  1  0  0  0  0
  6  8  1  0  0  0  0
 17 18  1  0  0  0  0
 20 21  2  0  0  0  0
 23 25  1  0  0  0  0
 31 32  1  0  0  0  0
M  END
>  <MolRegNo>
1364828

>  <m>
=

>  <Value>
10000

>  <Unit>
nM

>  <Type>
IC50

>  <pValue>
5

>  <Ligand Efficiency>
0

>  <Binding Efficiency>
0

>  <Surface Efficiency>
0

>  <Assay Index>
675648

>  <Assay Category>


>  <Assay Organism>


>  <Target ID>
17045

>  <Target Name>
Cytochrome P450 3A4

>  <Target Organism>
Homo sapiens

>  <Target Description>
Target is a single protein chain

>  <Sequence Accession>
P08684

>  <Reference>
Bioorg Med Chem Lett 22 (15), 4979-4985 (2012)

>  <Pubmed ID>
22765894

>  <DOI>
10.1016/j.bmcl.2012.06.029

$$$$
1364829
Actelion Java MolfileCreator 1.0

 33 37  0  0  0  0  0  0  0  0999 V2000
    0.0000   -0.0000   -0.0000 F   0  0  0  0  0  0  0  0  0  0  0  0
   -0.7569    1.3127   -0.0000 C   0  0  0  0  0  0  0  0  0  0  0  0
   -2.2706    1.3245   -0.0000 C   0  0  0  0  0  0  0  0  0  0  0  0
   -0.0237    2.6254   -0.0000 C   0  0  0  0  0  0  0  0  0  0  0  0
   -3.0275    0.0355   -0.0000 C   0  0  0  0  0  0  0  0  0  0  0  0
   -3.0393    2.6254   -0.0000 C   0  0  0  0  0  0  0  0  0  0  0  0
   -0.7923    3.9381   -0.0000 C   0  0  0  0  0  0  0  0  0  0  0  0
   -2.2824   -1.2536   -0.0000 C   0  0  0  0  0  0  0  0  0  0  0  0
   -4.5412    0.0473   -0.0000 C   0  0  0  0  0  0  0  0  0  0  0  0
   -2.3061    3.9381   -0.0000 C   0  0  0  0  0  0  0  0  0  0  0  0
   -2.9092   -2.6136   -0.0000 C   0  0  0  0  0  0  0  0  0  0  0  0
   -0.8042   -1.3955   -0.0000 C   0  0  0  0  0  0  0  0  0  0  0  0
   -5.4400    1.2772   -0.0000 N   0  0  0  0  0  0  0  0  0  0  0  0
   -5.4400   -1.1708   -0.0000 N   0  0  0  0  0  0  0  0  0  0  0  0
   -4.3875   -2.9092   -0.0000 O   0  0  0  0  0  0  0  0  0  0  0  0
   -1.8094   -3.6070   -0.0000 N   0  0  0  0  0  0  0  0  0  0  0  0
   -0.5085   -2.8501   -0.0000 C   0  0  0  0  0  0  0  0  0  0  0  0
    0.2957   -0.3784   -0.0000 C   0  0  0  0  0  0  0  0  0  0  0  0
   -6.8946    0.8160   -0.0000 C   0  0  0  0  0  0  0  0  0  0  0  0
   -6.8946   -0.6859   -0.0000 C   0  0  0  0  0  0  0  0  0  0  0  0
    0.8988   -3.2995   -0.0000 C   0  0  0  0  0  0  0  0  0  0  0  0
    1.7030   -0.8160   -0.0000 C   0  0  0  0  0  0  0  0  0  0  0  0
   -8.1245    1.7148   -0.0000 C   0  0  0  0  0  0  0  0  0  0  0  0
    1.9986   -2.2824   -0.0000 C   0  0  0  0  0  0  0  0  0  0  0  0
    2.8028    0.2010   -0.0000 N   0  0  0  0  0  0  0  0  0  0  0  0
    4.1155   -0.4849   -0.0000 C   0  0  0  0  0  0  0  0  0  0  0  0
    4.1510   -1.9750   -0.0000 C   0  0  0  0  0  0  0  0  0  0  0  0
    5.3572    0.3311   -0.0000 C   0  0  0  0  0  0  0  0  0  0  0  0
    5.4637   -2.6609   -0.0000 C   0  0  0  0  0  0  0  0  0  0  0  0
    6.6699   -0.3666   -0.0000 C   0  0  0  0  0  0  0  0  0  0  0  0
    6.7291   -1.8567   -0.0000 N   0  0  0  0  0  0  0  0  0  0  0  0
    8.0418   -2.5426   -0.0000 C   0  0  0  0  0  0  0  0  0  0  0  0
    9.3071   -1.7384   -0.0000 C   0  0  0  0  0  0  0  0  0  0  0  0
  1  2  1  0  0  0  0
  2  3  2  0  0  0  0
  2  4  1  0  0  0  0
  3  5  1  0  0  0  0
  3  6  1  0  0  0  0
  4  7  2  0  0  0  0
  5  8  2  3  0  0  0
  5  9  1  0  0  0  0
  6 10  2  0  0  0  0
  8 11  1  0  0  0  0
  8 12  1  0  0  0  0
  9 13  2  0  0  0  0
  9 14  1  0  0  0  0
 11 15  2  0  0  0  0
 11 16  1  0  0  0  0
 12 17  2  0  0  0  0
 12 18  1  0  0  0  0
 13 19  1  0  0  0  0
 14 20  1  0  0  0  0
 17 21  1  0  0  0  0
 18 22  2  0  0  0  0
 19 23  1  0  0  0  0
 21 24  2  0  0  0  0
 22 25  1  0  0  0  0
 25 26  1  0  0  0  0
 26 27  1  0  0  0  0
 26 28  1  0  0  0  0
 27 29  1  0  0  0  0
 28 30  1  0  0  0  0
 29 31  1  0  0  0  0
 31 32  1  0  0  0  0
 32 33  1  0  0  0  0
  7 10  1  0  0  0  0
 16 17  1  0  0  0  0
 19 20  2  0  0  0  0
 22 24  1  0  0  0  0
 30 31  1  0  0  0  0
M  END
>  <MolRegNo>
1364829

>  <m>
=

>  <Value>
26000

>  <Unit>
nM

>  <Type>
IC50

>  <pValue>
4.58

>  <Ligand Efficiency>
0

>  <Binding Efficiency>
0

>  <Surface Efficiency>
0

>  <Assay Index>
675648

>  <Assay Category>


>  <Assay Organism>


>  <Target ID>
17045

>  <Target Name>
Cytochrome P450 3A4

>  <Target Organism>
Homo sapiens

>  <Target Description>
Target is a single protein chain

>  <Sequence Accession>
P08684

>  <Reference>
Bioorg Med Chem Lett 22 (15), 4979-4985 (2012)

>  <Pubmed ID>
22765894

>  <DOI>
10.1016/j.bmcl.2012.06.029

$$$$
1423201
Actelion Java MolfileCreator 1.0

 26 29  0  0  0  0  0  0  0  0999 V2000
    0.0000   -0.0000   -0.0000 N   0  0  0  0  0  0  0  0  0  0  0  0
   -0.0119    1.5169   -0.0000 C   0  0  0  0  0  0  0  0  0  0  0  0
   -1.3036   -0.7348   -0.0000 C   0  0  0  0  0  0  0  0  0  0  0  0
    1.2917   -0.7348   -0.0000 C   0  0  0  0  0  0  0  0  0  0  0  0
    1.2680    2.2754   -0.0000 C   0  0  0  0  0  0  0  0  0  0  0  0
   -1.3155    2.2754   -0.0000 C   0  0  0  0  0  0  0  0  0  0  0  0
   -1.3155   -2.2161   -0.0000 C   0  0  0  0  0  0  0  0  0  0  0  0
    1.2680   -2.2280   -0.0000 C   0  0  0  0  0  0  0  0  0  0  0  0
    2.5598    1.5406   -0.0000 C   0  0  0  0  0  0  0  0  0  0  0  0
    1.2562    3.7804   -0.0000 C   0  0  0  0  0  0  0  0  0  0  0  0
   -2.6309    1.5406   -0.0000 N   0  0  0  0  0  0  0  0  0  0  0  0
   -1.3273    3.7923   -0.0000 C   0  0  0  0  0  0  0  0  0  0  0  0
   -0.0356   -2.9627   -0.0000 C   0  0  0  0  0  0  0  0  0  0  0  0
    3.8515    2.2991   -0.0000 C   0  0  0  0  0  0  0  0  0  0  0  0
    2.5361    4.5507   -0.0000 C   0  0  0  0  0  0  0  0  0  0  0  0
   -3.9464    2.2991   -0.0000 C   0  0  0  0  0  0  0  0  0  0  0  0
   -2.6428    0.0593   -0.0000 C   0  0  0  0  0  0  0  0  0  0  0  0
   -0.0356    4.5507   -0.0000 C   0  0  0  0  0  0  0  0  0  0  0  0
   -2.6309    4.5507   -0.0000 C   0  0  0  0  0  0  0  0  0  0  0  0
    3.8397    3.8160   -0.0000 C   0  0  0  0  0  0  0  0  0  0  0  0
   -5.2499    1.5762   -0.0000 C   0  0  0  0  0  0  0  0  0  0  0  0
   -3.9582   -0.6755   -0.0000 C   0  0  0  0  0  0  0  0  0  0  0  0
   -0.0474    6.0558   -0.0000 C   0  0  0  0  0  0  0  0  0  0  0  0
   -2.6428    6.0558   -0.0000 C   0  0  0  0  0  0  0  0  0  0  0  0
   -5.2737    0.0830   -0.0000 C   0  0  0  0  0  0  0  0  0  0  0  0
   -1.3510    6.8143   -0.0000 C   0  0  0  0  0  0  0  0  0  0  0  0
  2  1  1  1  0  0  0
  1  3  1  0  0  0  0
  1  4  1  0  0  0  0
  2  5  1  0  0  0  0
  2  6  1  0  0  0  0
  3  7  1  0  0  0  0
  4  8  1  0  0  0  0
  5  9  2  0  0  0  0
  5 10  1  0  0  0  0
  6 11  1  6  0  0  0
  6 12  1  0  0  0  0
  7 13  1  0  0  0  0
  9 14  1  0  0  0  0
 10 15  2  0  0  0  0
 11 16  1  0  0  0  0
 11 17  1  0  0  0  0
 12 18  2  0  0  0  0
 12 19  1  0  0  0  0
 14 20  2  0  0  0  0
 16 21  1  0  0  0  0
 17 22  1  0  0  0  0
 18 23  1  0  0  0  0
 19 24  2  0  0  0  0
 21 25  1  0  0  0  0
 23 26  2  0  0  0  0
  8 13  1  0  0  0  0
 15 20  1  0  0  0  0
 22 25  1  0  0  0  0
 24 26  1  0  0  0  0
M  END
>  <MolRegNo>
1423201

>  <m>
=

>  <Value>
15849

>  <Unit>
nM

>  <Type>
IC50

>  <pValue>
4.8

>  <Ligand Efficiency>
0

>  <Binding Efficiency>
0

>  <Surface Efficiency>
0

>  <Assay Index>
682932

>  <Assay Category>


>  <Assay Organism>
Homo sapiens

>  <Target ID>
17045

>  <Target Name>
Cytochrome P450 3A4

>  <Target Organism>
Homo sapiens

>  <Target Description>
Target is a single protein chain

>  <Sequence Accession>
P08684

>  <Reference>
ACS Med Chem Lett 3 (9), 769-773 (2012)

>  <Pubmed ID>
24900546

>  <DOI>
10.1021/ml3001787

$$$$
1423203
Actelion Java MolfileCreator 1.0

 24 27  0  0  0  0  0  0  0  0999 V2000
    0.0000   -0.0000   -0.0000 N   0  0  0  0  0  0  0  0  0  0  0  0
    1.2785    0.7576   -0.0000 C   0  0  0  0  0  0  0  0  0  0  0  0
   -1.4324    0.5090   -0.0000 C   0  0  0  0  0  0  0  0  0  0  0  0
   -0.0474   -1.4916   -0.0000 C   0  0  0  0  0  0  0  0  0  0  0  0
    1.2667    2.2729   -0.0000 C   0  0  0  0  0  0  0  0  0  0  0  0
    2.5689    0.0237   -0.0000 C   0  0  0  0  0  0  0  0  0  0  0  0
   -2.3558   -0.6748   -0.0000 C   0  0  0  0  0  0  0  0  0  0  0  0
   -1.5035   -1.9060   -0.0000 C   0  0  0  0  0  0  0  0  0  0  0  0
    2.5571    3.0306   -0.0000 C   0  0  0  0  0  0  0  0  0  0  0  0
   -0.0355    3.0306   -0.0000 C   0  0  0  0  0  0  0  0  0  0  0  0
    2.5571   -1.4679   -0.0000 N   0  0  0  0  0  0  0  0  0  0  0  0
    3.8593    0.7813   -0.0000 C   0  0  0  0  0  0  0  0  0  0  0  0
    2.5452    4.5459   -0.0000 C   0  0  0  0  0  0  0  0  0  0  0  0
   -0.0474    4.5459   -0.0000 C   0  0  0  0  0  0  0  0  0  0  0  0
    1.3377   -2.3321   -0.0000 C   0  0  0  0  0  0  0  0  0  0  0  0
    3.7646   -2.3440   -0.0000 C   0  0  0  0  0  0  0  0  0  0  0  0
    5.1496    0.0474   -0.0000 C   0  0  0  0  0  0  0  0  0  0  0  0
    3.8474    2.2848   -0.0000 C   0  0  0  0  0  0  0  0  0  0  0  0
    1.2312    5.3035   -0.0000 C   0  0  0  0  0  0  0  0  0  0  0  0
    1.7876   -3.7527   -0.0000 C   0  0  0  0  0  0  0  0  0  0  0  0
    3.2910   -3.7646   -0.0000 C   0  0  0  0  0  0  0  0  0  0  0  0
    6.4400    0.8050   -0.0000 C   0  0  0  0  0  0  0  0  0  0  0  0
    5.1260    3.0543   -0.0000 C   0  0  0  0  0  0  0  0  0  0  0  0
    6.4282    2.3203   -0.0000 C   0  0  0  0  0  0  0  0  0  0  0  0
  2  1  1  6  0  0  0
  1  3  1  0  0  0  0
  1  4  1  0  0  0  0
  2  5  1  0  0  0  0
  2  6  1  0  0  0  0
  3  7  1  0  0  0  0
  4  8  1  0  0  0  0
  5  9  2  0  0  0  0
  5 10  1  0  0  0  0
  6 11  1  1  0  0  0
  6 12  1  0  0  0  0
  9 13  1  0  0  0  0
 10 14  2  0  0  0  0
 11 15  1  0  0  0  0
 11 16  1  0  0  0  0
 12 17  2  0  0  0  0
 12 18  1  0  0  0  0
 13 19  2  0  0  0  0
 15 20  1  0  0  0  0
 16 21  1  0  0  0  0
 17 22  1  0  0  0  0
 18 23  2  0  0  0  0
 22 24  2  0  0  0  0
  7  8  1  0  0  0  0
 14 19  1  0  0  0  0
 20 21  1  0  0  0  0
 23 24  1  0  0  0  0
M  END
>  <MolRegNo>
1423203

>  <m>
=

>  <Value>
12589

>  <Unit>
nM

>  <Type>
IC50

>  <pValue>
4.9

>  <Ligand Efficiency>
0

>  <Binding Efficiency>
0

>  <Surface Efficiency>
0

>  <Assay Index>
682932

>  <Assay Category>


>  <Assay Organism>
Homo sapiens

>  <Target ID>
17045

>  <Target Name>
Cytochrome P450 3A4

>  <Target Organism>
Homo sapiens

>  <Target Description>
Target is a single protein chain

>  <Sequence Accession>
P08684

>  <Reference>
ACS Med Chem Lett 3 (9), 769-773 (2012)

>  <Pubmed ID>
24900546

>  <DOI>
10.1021/ml3001787

$$$$
1422165
Actelion Java MolfileCreator 1.0

 26 29  0  0  0  0  0  0  0  0999 V2000
    0.0000   -0.0000   -0.0000 Cl  0  0  0  0  0  0  0  0  0  0  0  0
    1.2907   -0.7410   -0.0000 C   0  0  0  0  0  0  0  0  0  0  0  0
    2.5814    0.0239   -0.0000 C   0  0  0  0  0  0  0  0  0  0  0  0
    1.2787   -2.2348   -0.0000 C   0  0  0  0  0  0  0  0  0  0  0  0
    3.8721   -0.7170   -0.0000 C   0  0  0  0  0  0  0  0  0  0  0  0
    2.5694   -2.9758   -0.0000 C   0  0  0  0  0  0  0  0  0  0  0  0
    5.0672    0.1912   -0.0000 C   0  0  0  0  0  0  0  0  0  0  0  0
    3.8601   -2.2229   -0.0000 C   0  0  0  0  0  0  0  0  0  0  0  0
    5.0313    1.7090   -0.0000 N   0  0  0  0  0  0  0  0  0  0  0  0
    6.5012   -0.2390   -0.0000 N   0  0  0  0  0  0  0  0  0  0  0  0
    6.4415    2.2109   -0.0000 O   0  0  0  0  0  0  0  0  0  0  0  0
    7.3617    1.0039   -0.0000 C   0  0  0  0  0  0  0  0  0  0  0  0
    8.8556    1.0158   -0.0000 C   0  0  0  0  0  0  0  0  0  0  0  0
    9.9072   -0.0478   -0.0000 C   0  0  0  0  0  0  0  0  0  0  0  0
    9.9072    2.0794   -0.0000 C   0  0  0  0  0  0  0  0  0  0  0  0
   10.9709    1.0278   -0.0000 N   0  0  0  0  0  0  0  0  0  0  0  0
   12.4647    1.0397   -0.0000 C   0  0  0  0  0  0  0  0  0  0  0  0
   13.2057    2.3543   -0.0000 O   0  0  0  0  0  0  0  0  0  0  0  0
   13.2057   -0.2629   -0.0000 C   0  0  0  0  0  0  0  0  0  0  0  0
   12.4169   -1.5656   -0.0000 C   0  0  0  0  0  0  0  0  0  0  0  0
   14.6995   -0.2510   -0.0000 C   0  0  0  0  0  0  0  0  0  0  0  0
   13.1459   -2.8562   -0.0000 C   0  0  0  0  0  0  0  0  0  0  0  0
   15.4405   -1.5536   -0.0000 C   0  0  0  0  0  0  0  0  0  0  0  0
   14.6398   -2.8562   -0.0000 C   0  0  0  0  0  0  0  0  0  0  0  0
   15.9305   -3.5972   -0.0000 F   0  0  0  0  0  0  0  0  0  0  0  0
   14.6278   -4.3501   -0.0000 F   0  0  0  0  0  0  0  0  0  0  0  0
  1  2  1  0  0  0  0
  2  3  2  0  0  0  0
  2  4  1  0  0  0  0
  3  5  1  0  0  0  0
  4  6  2  0  0  0  0
  5  7  1  0  0  0  0
  5  8  2  0  0  0  0
  7  9  2  0  0  0  0
  7 10  1  0  0  0  0
  9 11  1  0  0  0  0
 10 12  2  0  0  0  0
 12 13  1  0  0  0  0
 13 14  1  0  0  0  0
 13 15  1  0  0  0  0
 14 16  1  0  0  0  0
 16 17  1  0  0  0  0
 17 18  2  0  0  0  0
 17 19  1  0  0  0  0
 19 20  1  0  0  0  0
 19 21  1  0  0  0  0
 20 22  1  0  0  0  0
 21 23  1  0  0  0  0
 22 24  1  0  0  0  0
 24 25  1  0  0  0  0
 24 26  1  0  0  0  0
  6  8  1  0  0  0  0
 11 12  1  0  0  0  0
 15 16  1  0  0  0  0
 23 24  1  0  0  0  0
M  END
>  <MolRegNo>
1422165

>  <m>
=

>  <Value>
2.5e7

>  <Unit>
nM

>  <Type>
IC50

>  <pValue>
0

>  <Ligand Efficiency>
0

>  <Binding Efficiency>
0

>  <Surface Efficiency>
0

>  <Assay Index>
681054

>  <Assay Category>


>  <Assay Organism>


>  <Target ID>
17045

>  <Target Name>
Cytochrome P450 3A4

>  <Target Organism>
Homo sapiens

>  <Target Description>
Target is a single protein chain

>  <Sequence Accession>
P08684

>  <Reference>
Bioorg Med Chem Lett 22 (20), 6469-6474 (2012)

>  <Pubmed ID>
22975301

>  <DOI>
10.1016/j.bmcl.2012.08.044

$$$$
1422285
Actelion Java MolfileCreator 1.0

 25 28  0  0  0  0  0  0  0  0999 V2000
    0.0000   -0.0000   -0.0000 F   0  0  0  0  0  0  0  0  0  0  0  0
    1.2891   -0.7400   -0.0000 C   0  0  0  0  0  0  0  0  0  0  0  0
    2.5782    0.0239   -0.0000 C   0  0  0  0  0  0  0  0  0  0  0  0
    1.2772   -2.2440   -0.0000 C   0  0  0  0  0  0  0  0  0  0  0  0
    3.8673   -0.7162   -0.0000 C   0  0  0  0  0  0  0  0  0  0  0  0
    2.5662   -2.9840   -0.0000 C   0  0  0  0  0  0  0  0  0  0  0  0
    5.0609    0.1910   -0.0000 C   0  0  0  0  0  0  0  0  0  0  0  0
    3.8553   -2.2201   -0.0000 C   0  0  0  0  0  0  0  0  0  0  0  0
    5.0251    1.7069   -0.0000 N   0  0  0  0  0  0  0  0  0  0  0  0
    6.4932   -0.2387   -0.0000 N   0  0  0  0  0  0  0  0  0  0  0  0
    6.4335    2.2082   -0.0000 O   0  0  0  0  0  0  0  0  0  0  0  0
    7.3526    1.0026   -0.0000 C   0  0  0  0  0  0  0  0  0  0  0  0
    8.8446    1.0146   -0.0000 C   0  0  0  0  0  0  0  0  0  0  0  0
    9.8950   -0.0477   -0.0000 C   0  0  0  0  0  0  0  0  0  0  0  0
    9.8950    2.0769   -0.0000 C   0  0  0  0  0  0  0  0  0  0  0  0
   10.9573    1.0265   -0.0000 N   0  0  0  0  0  0  0  0  0  0  0  0
   12.4493    1.0384   -0.0000 C   0  0  0  0  0  0  0  0  0  0  0  0
   13.1893    2.3514   -0.0000 O   0  0  0  0  0  0  0  0  0  0  0  0
   13.1893   -0.2626   -0.0000 C   0  0  0  0  0  0  0  0  0  0  0  0
   14.6813   -0.2507   -0.0000 C   0  0  0  0  0  0  0  0  0  0  0  0
   12.4015   -1.5636   -0.0000 C   0  0  0  0  0  0  0  0  0  0  0  0
   15.4213   -1.5517   -0.0000 C   0  0  0  0  0  0  0  0  0  0  0  0
   15.4333    1.0623   -0.0000 C   0  0  0  0  0  0  0  0  0  0  0  0
   13.1296   -2.8527   -0.0000 C   0  0  0  0  0  0  0  0  0  0  0  0
   14.6455   -2.8408   -0.0000 C   0  0  0  0  0  0  0  0  0  0  0  0
  1  2  1  0  0  0  0
  2  3  2  0  0  0  0
  2  4  1  0  0  0  0
  3  5  1  0  0  0  0
  4  6  2  0  0  0  0
  5  7  1  0  0  0  0
  5  8  2  0  0  0  0
  7  9  2  0  0  0  0
  7 10  1  0  0  0  0
  9 11  1  0  0  0  0
 10 12  2  0  0  0  0
 12 13  1  0  0  0  0
 13 14  1  0  0  0  0
 13 15  1  0  0  0  0
 14 16  1  0  0  0  0
 16 17  1  0  0  0  0
 17 18  2  0  0  0  0
 17 19  1  0  0  0  0
 19 20  1  0  0  0  0
 19 21  1  0  0  0  0
 20 22  1  0  0  0  0
 20 23  1  0  0  0  0
 21 24  1  0  0  0  0
 22 25  1  0  0  0  0
  6  8  1  0  0  0  0
 11 12  1  0  0  0  0
 15 16  1  0  0  0  0
 24 25  1  0  0  0  0
M  END
>  <MolRegNo>
1422285

>  <m>
=

>  <Value>
2.5e7

>  <Unit>
nM

>  <Type>
IC50

>  <pValue>
0

>  <Ligand Efficiency>
0

>  <Binding Efficiency>
0

>  <Surface Efficiency>
0

>  <Assay Index>
681054

>  <Assay Category>


>  <Assay Organism>


>  <Target ID>
17045

>  <Target Name>
Cytochrome P450 3A4

>  <Target Organism>
Homo sapiens

>  <Target Description>
Target is a single protein chain

>  <Sequence Accession>
P08684

>  <Reference>
Bioorg Med Chem Lett 22 (20), 6469-6474 (2012)

>  <Pubmed ID>
22975301

>  <DOI>
10.1016/j.bmcl.2012.08.044

$$$$
1357827
Actelion Java MolfileCreator 1.0

 23 25  0  0  0  0  0  0  0  0999 V2000
    0.0000   -0.0000   -0.0000 O   0  0  0  0  0  0  0  0  0  0  0  0
    0.0355   -1.4906   -0.0000 C   0  0  0  0  0  0  0  0  0  0  0  0
    1.3487   -2.1886   -0.0000 N   0  0  0  0  0  0  0  0  0  0  0  0
   -1.2540   -2.2715   -0.0000 C   0  0  0  0  0  0  0  0  0  0  0  0
    1.3842   -3.6793   -0.0000 C   0  0  0  0  0  0  0  0  0  0  0  0
   -1.2185   -3.7621   -0.0000 C   0  0  0  0  0  0  0  0  0  0  0  0
    0.0946   -4.4601   -0.0000 N   0  0  0  0  0  0  0  0  0  0  0  0
    2.6974   -4.3773   -0.0000 C   0  0  0  0  0  0  0  0  0  0  0  0
   -2.5081   -4.5429   -0.0000 N   0  0  0  0  0  0  0  0  0  0  0  0
    3.9632   -3.5728   -0.0000 C   0  0  0  0  0  0  0  0  0  0  0  0
   -2.4726   -6.0336   -0.0000 C   0  0  0  0  0  0  0  0  0  0  0  0
   -3.8449   -3.8213   -0.0000 C   0  0  0  0  0  0  0  0  0  0  0  0
    3.9041   -2.0585   -0.0000 O   0  0  0  0  0  0  0  0  0  0  0  0
    5.2764   -4.2708   -0.0000 N   0  0  0  0  0  0  0  0  0  0  0  0
   -3.7621   -6.8144   -0.0000 C   0  0  0  0  0  0  0  0  0  0  0  0
   -5.1344   -4.6021   -0.0000 C   0  0  0  0  0  0  0  0  0  0  0  0
    6.5423   -3.4663   -0.0000 C   0  0  0  0  0  0  0  0  0  0  0  0
   -5.0989   -6.0927   -0.0000 O   0  0  0  0  0  0  0  0  0  0  0  0
    7.8554   -4.1643   -0.0000 C   0  0  0  0  0  0  0  0  0  0  0  0
    6.4831   -1.9520   -0.0000 C   0  0  0  0  0  0  0  0  0  0  0  0
    9.1213   -3.3599   -0.0000 C   0  0  0  0  0  0  0  0  0  0  0  0
    7.7490   -1.1476   -0.0000 C   0  0  0  0  0  0  0  0  0  0  0  0
    9.0622   -1.8456   -0.0000 C   0  0  0  0  0  0  0  0  0  0  0  0
  1  2  2  0  0  0  0
  2  3  1  0  0  0  0
  2  4  1  0  0  0  0
  3  5  1  0  0  0  0
  4  6  2  0  0  0  0
  5  7  2  0  0  0  0
  5  8  1  0  0  0  0
  6  9  1  0  0  0  0
  8 10  1  0  0  0  0
  9 11  1  0  0  0  0
  9 12  1  0  0  0  0
 10 13  2  0  0  0  0
 10 14  1  0  0  0  0
 11 15  1  0  0  0  0
 12 16  1  0  0  0  0
 14 17  1  0  0  0  0
 15 18  1  0  0  0  0
 17 19  2  0  0  0  0
 17 20  1  0  0  0  0
 19 21  1  0  0  0  0
 20 22  2  0  0  0  0
 21 23  2  0  0  0  0
  6  7  1  0  0  0  0
 16 18  1  0  0  0  0
 22 23  1  0  0  0  0
M  END
>  <MolRegNo>
1357827

>  <m>
=

>  <Value>
40000

>  <Unit>
nM

>  <Type>
IC50

>  <pValue>
4.4

>  <Ligand Efficiency>
0

>  <Binding Efficiency>
0

>  <Surface Efficiency>
0

>  <Assay Index>
681300

>  <Assay Category>


>  <Assay Organism>
Homo sapiens

>  <Target ID>
17045

>  <Target Name>
Cytochrome P450 3A4

>  <Target Organism>
Homo sapiens

>  <Target Description>
Target is a single protein chain

>  <Sequence Accession>
P08684

>  <Reference>
Bioorg Med Chem Lett 22 (20), 6381-6384 (2012)

>  <Pubmed ID>
22981333

>  <DOI>
10.1016/j.bmcl.2012.08.072

$$$$
1422492
Actelion Java MolfileCreator 1.0

 24 26  0  0  0  0  0  0  0  0999 V2000
    0.0000   -0.0000   -0.0000 F   0  0  0  0  0  0  0  0  0  0  0  0
   -1.0705    0.6255   -0.0000 C   0  0  0  0  0  0  0  0  0  0  0  0
   -1.0825    2.1651   -0.0000 C   0  0  0  0  0  0  0  0  0  0  0  0
   -2.4056   -0.1203   -0.0000 C   0  0  0  0  0  0  0  0  0  0  0  0
   -2.4177    2.9349   -0.0000 C   0  0  0  0  0  0  0  0  0  0  0  0
   -3.7408    0.6495   -0.0000 C   0  0  0  0  0  0  0  0  0  0  0  0
   -3.7528    2.1891   -0.0000 C   0  0  0  0  0  0  0  0  0  0  0  0
   -5.0879    2.9589   -0.0000 N   0  0  0  0  0  0  0  0  0  0  0  0
   -6.4231    2.2012   -0.0000 C   0  0  0  0  0  0  0  0  0  0  0  0
   -6.4351    0.9863   -0.0000 O   0  0  0  0  0  0  0  0  0  0  0  0
   -7.7582    2.9710   -0.0000 C   0  0  0  0  0  0  0  0  0  0  0  0
   -9.0933    2.2132   -0.0000 C   0  0  0  0  0  0  0  0  0  0  0  0
  -10.4285    2.9830   -0.0000 N   0  0  0  0  0  0  0  0  0  0  0  0
   -9.1054    0.6976   -0.0000 N   0  0  0  0  0  0  0  0  0  0  0  0
  -11.7636    2.2252   -0.0000 C   0  0  0  0  0  0  0  0  0  0  0  0
  -10.4405   -0.0601   -0.0000 C   0  0  0  0  0  0  0  0  0  0  0  0
  -13.0987    2.9950   -0.0000 N   0  0  0  0  0  0  0  0  0  0  0  0
  -11.7756    0.7097   -0.0000 C   0  0  0  0  0  0  0  0  0  0  0  0
  -10.4525   -1.2750   -0.0000 O   0  0  0  0  0  0  0  0  0  0  0  0
  -13.1228    4.5346   -0.0000 C   0  0  0  0  0  0  0  0  0  0  0  0
  -14.4339    2.2373   -0.0000 C   0  0  0  0  0  0  0  0  0  0  0  0
  -14.4579    5.3045   -0.0000 C   0  0  0  0  0  0  0  0  0  0  0  0
  -15.7690    3.0071   -0.0000 C   0  0  0  0  0  0  0  0  0  0  0  0
  -15.7931    4.5467   -0.0000 O   0  0  0  0  0  0  0  0  0  0  0  0
  1  2  1  0  0  0  0
  2  3  2  0  0  0  0
  2  4  1  0  0  0  0
  3  5  1  0  0  0  0
  4  6  2  0  0  0  0
  5  7  2  0  0  0  0
  7  8  1  0  0  0  0
  8  9  1  0  0  0  0
  9 10  2  0  0  0  0
  9 11  1  0  0  0  0
 11 12  1  0  0  0  0
 12 13  2  0  0  0  0
 12 14  1  0  0  0  0
 13 15  1  0  0  0  0
 14 16  1  0  0  0  0
 15 17  1  0  0  0  0
 15 18  2  0  0  0  0
 16 19  2  0  0  0  0
 17 20  1  0  0  0  0
 17 21  1  0  0  0  0
 20 22  1  0  0  0  0
 21 23  1  0  0  0  0
 22 24  1  0  0  0  0
  6  7  1  0  0  0  0
 16 18  1  0  0  0  0
 23 24  1  0  0  0  0
M  END
>  <MolRegNo>
1422492

>  <m>
=

>  <Value>
40000

>  <Unit>
nM

>  <Type>
IC50

>  <pValue>
4.4

>  <Ligand Efficiency>
0

>  <Binding Efficiency>
0

>  <Surface Efficiency>
0

>  <Assay Index>
681300

>  <Assay Category>


>  <Assay Organism>
Homo sapiens

>  <Target ID>
17045

>  <Target Name>
Cytochrome P450 3A4

>  <Target Organism>
Homo sapiens

>  <Target Description>
Target is a single protein chain

>  <Sequence Accession>
P08684

>  <Reference>
Bioorg Med Chem Lett 22 (20), 6381-6384 (2012)

>  <Pubmed ID>
22981333

>  <DOI>
10.1016/j.bmcl.2012.08.072

$$$$
1422593
Actelion Java MolfileCreator 1.0

 24 26  0  0  0  0  0  0  0  0999 V2000
    0.0000   -0.0000   -0.0000 Cl  0  0  0  0  0  0  0  0  0  0  0  0
   -1.0758    0.6286   -0.0000 C   0  0  0  0  0  0  0  0  0  0  0  0
   -2.4176   -0.1209   -0.0000 C   0  0  0  0  0  0  0  0  0  0  0  0
   -1.0879    2.1759   -0.0000 C   0  0  0  0  0  0  0  0  0  0  0  0
   -3.7594    0.6528   -0.0000 C   0  0  0  0  0  0  0  0  0  0  0  0
   -2.4297    2.9495   -0.0000 C   0  0  0  0  0  0  0  0  0  0  0  0
   -5.1012   -0.1088   -0.0000 N   0  0  0  0  0  0  0  0  0  0  0  0
   -3.7715    2.2000   -0.0000 C   0  0  0  0  0  0  0  0  0  0  0  0
   -5.1133   -1.6319   -0.0000 C   0  0  0  0  0  0  0  0  0  0  0  0
   -4.0616   -2.2363   -0.0000 O   0  0  0  0  0  0  0  0  0  0  0  0
   -6.4550   -2.3934   -0.0000 C   0  0  0  0  0  0  0  0  0  0  0  0
   -6.4671   -3.9165   -0.0000 C   0  0  0  0  0  0  0  0  0  0  0  0
   -7.8089   -4.6781   -0.0000 N   0  0  0  0  0  0  0  0  0  0  0  0
   -5.1495   -4.6660   -0.0000 N   0  0  0  0  0  0  0  0  0  0  0  0
   -7.8210   -6.2012   -0.0000 C   0  0  0  0  0  0  0  0  0  0  0  0
   -5.1616   -6.1891   -0.0000 C   0  0  0  0  0  0  0  0  0  0  0  0
   -9.1628   -6.9627   -0.0000 N   0  0  0  0  0  0  0  0  0  0  0  0
   -6.5034   -6.9506   -0.0000 C   0  0  0  0  0  0  0  0  0  0  0  0
   -4.1099   -6.7814   -0.0000 O   0  0  0  0  0  0  0  0  0  0  0  0
  -10.5045   -6.1891   -0.0000 C   0  0  0  0  0  0  0  0  0  0  0  0
   -9.1628   -8.4858   -0.0000 C   0  0  0  0  0  0  0  0  0  0  0  0
  -11.8463   -6.9506   -0.0000 C   0  0  0  0  0  0  0  0  0  0  0  0
  -10.5045   -9.2474   -0.0000 C   0  0  0  0  0  0  0  0  0  0  0  0
  -11.8463   -8.4737   -0.0000 O   0  0  0  0  0  0  0  0  0  0  0  0
  1  2  1  0  0  0  0
  2  3  2  0  0  0  0
  2  4  1  0  0  0  0
  3  5  1  0  0  0  0
  4  6  2  0  0  0  0
  5  7  1  0  0  0  0
  5  8  2  0  0  0  0
  7  9  1  0  0  0  0
  9 10  2  0  0  0  0
  9 11  1  0  0  0  0
 11 12  1  0  0  0  0
 12 13  2  0  0  0  0
 12 14  1  0  0  0  0
 13 15  1  0  0  0  0
 14 16  1  0  0  0  0
 15 17  1  0  0  0  0
 15 18  2  0  0  0  0
 16 19  2  0  0  0  0
 17 20  1  0  0  0  0
 17 21  1  0  0  0  0
 20 22  1  0  0  0  0
 21 23  1  0  0  0  0
 22 24  1  0  0  0  0
  6  8  1  0  0  0  0
 16 18  1  0  0  0  0
 23 24  1  0  0  0  0
M  END
>  <MolRegNo>
1422593

>  <m>
=

>  <Value>
40000

>  <Unit>
nM

>  <Type>
IC50

>  <pValue>
4.4

>  <Ligand Efficiency>
0

>  <Binding Efficiency>
0

>  <Surface Efficiency>
0

>  <Assay Index>
681300

>  <Assay Category>


>  <Assay Organism>
Homo sapiens

>  <Target ID>
17045

>  <Target Name>
Cytochrome P450 3A4

>  <Target Organism>
Homo sapiens

>  <Target Description>
Target is a single protein chain

>  <Sequence Accession>
P08684

>  <Reference>
Bioorg Med Chem Lett 22 (20), 6381-6384 (2012)

>  <Pubmed ID>
22981333

>  <DOI>
10.1016/j.bmcl.2012.08.072

$$$$
1422594
Actelion Java MolfileCreator 1.0

 25 27  0  0  0  0  0  0  0  0999 V2000
    0.0000   -0.0000   -0.0000 O   0  0  0  0  0  0  0  0  0  0  0  0
   -1.0734    0.6151   -0.0000 C   0  0  0  0  0  0  0  0  0  0  0  0
   -1.0855    2.1589   -0.0000 N   0  0  0  0  0  0  0  0  0  0  0  0
   -2.4122   -0.1447   -0.0000 C   0  0  0  0  0  0  0  0  0  0  0  0
   -2.4243    2.9308   -0.0000 C   0  0  0  0  0  0  0  0  0  0  0  0
   -3.7510    0.6272   -0.0000 C   0  0  0  0  0  0  0  0  0  0  0  0
   -3.7630    2.1710   -0.0000 N   0  0  0  0  0  0  0  0  0  0  0  0
   -2.4363    4.4746   -0.0000 C   0  0  0  0  0  0  0  0  0  0  0  0
   -5.0897   -0.1327   -0.0000 N   0  0  0  0  0  0  0  0  0  0  0  0
   -1.1217    5.2586   -0.0000 C   0  0  0  0  0  0  0  0  0  0  0  0
   -6.4285    0.6392   -0.0000 C   0  0  0  0  0  0  0  0  0  0  0  0
   -5.0897   -1.6524   -0.0000 C   0  0  0  0  0  0  0  0  0  0  0  0
   -0.0724    4.6555   -0.0000 O   0  0  0  0  0  0  0  0  0  0  0  0
   -1.1337    6.8024   -0.0000 N   0  0  0  0  0  0  0  0  0  0  0  0
   -7.7673   -0.1206   -0.0000 C   0  0  0  0  0  0  0  0  0  0  0  0
   -6.4285   -2.4122   -0.0000 C   0  0  0  0  0  0  0  0  0  0  0  0
    0.1809    7.5863   -0.0000 C   0  0  0  0  0  0  0  0  0  0  0  0
   -7.7673   -1.6403   -0.0000 O   0  0  0  0  0  0  0  0  0  0  0  0
    1.4956    6.8386   -0.0000 C   0  0  0  0  0  0  0  0  0  0  0  0
    0.1689    9.1301   -0.0000 C   0  0  0  0  0  0  0  0  0  0  0  0
    2.8102    7.6105   -0.0000 C   0  0  0  0  0  0  0  0  0  0  0  0
    1.4835    9.9020   -0.0000 C   0  0  0  0  0  0  0  0  0  0  0  0
    4.1248    6.8506   -0.0000 O   0  0  0  0  0  0  0  0  0  0  0  0
    2.7981    9.1543   -0.0000 C   0  0  0  0  0  0  0  0  0  0  0  0
    4.1128    5.6325   -0.0000 C   0  0  0  0  0  0  0  0  0  0  0  0
  1  2  2  0  0  0  0
  2  3  1  0  0  0  0
  2  4  1  0  0  0  0
  3  5  1  0  0  0  0
  4  6  2  0  0  0  0
  5  7  2  0  0  0  0
  5  8  1  0  0  0  0
  6  9  1  0  0  0  0
  8 10  1  0  0  0  0
  9 11  1  0  0  0  0
  9 12  1  0  0  0  0
 10 13  2  0  0  0  0
 10 14  1  0  0  0  0
 11 15  1  0  0  0  0
 12 16  1  0  0  0  0
 14 17  1  0  0  0  0
 15 18  1  0  0  0  0
 17 19  2  0  0  0  0
 17 20  1  0  0  0  0
 19 21  1  0  0  0  0
 20 22  2  0  0  0  0
 21 23  1  0  0  0  0
 21 24  2  0  0  0  0
 23 25  1  0  0  0  0
  6  7  1  0  0  0  0
 16 18  1  0  0  0  0
 22 24  1  0  0  0  0
M  END
>  <MolRegNo>
1422594

>  <m>
=

>  <Value>
40000

>  <Unit>
nM

>  <Type>
IC50

>  <pValue>
4.4

>  <Ligand Efficiency>
0

>  <Binding Efficiency>
0

>  <Surface Efficiency>
0

>  <Assay Index>
681300

>  <Assay Category>


>  <Assay Organism>
Homo sapiens

>  <Target ID>
17045

>  <Target Name>
Cytochrome P450 3A4

>  <Target Organism>
Homo sapiens

>  <Target Description>
Target is a single protein chain

>  <Sequence Accession>
P08684

>  <Reference>
Bioorg Med Chem Lett 22 (20), 6381-6384 (2012)

>  <Pubmed ID>
22981333

>  <DOI>
10.1016/j.bmcl.2012.08.072

$$$$
1422595
Actelion Java MolfileCreator 1.0

 24 26  0  0  0  0  0  0  0  0999 V2000
    0.0000   -0.0000   -0.0000 Br  0  0  0  0  0  0  0  0  0  0  0  0
   -1.0758    0.6286   -0.0000 C   0  0  0  0  0  0  0  0  0  0  0  0
   -2.4176   -0.1209   -0.0000 C   0  0  0  0  0  0  0  0  0  0  0  0
   -1.0879    2.1759   -0.0000 C   0  0  0  0  0  0  0  0  0  0  0  0
   -3.7594    0.6528   -0.0000 C   0  0  0  0  0  0  0  0  0  0  0  0
   -2.4297    2.9495   -0.0000 C   0  0  0  0  0  0  0  0  0  0  0  0
   -5.1012   -0.1088   -0.0000 N   0  0  0  0  0  0  0  0  0  0  0  0
   -3.7715    2.2000   -0.0000 C   0  0  0  0  0  0  0  0  0  0  0  0
   -5.1133   -1.6319   -0.0000 C   0  0  0  0  0  0  0  0  0  0  0  0
   -4.0616   -2.2363   -0.0000 O   0  0  0  0  0  0  0  0  0  0  0  0
   -6.4550   -2.3934   -0.0000 C   0  0  0  0  0  0  0  0  0  0  0  0
   -6.4671   -3.9165   -0.0000 C   0  0  0  0  0  0  0  0  0  0  0  0
   -7.8089   -4.6781   -0.0000 N   0  0  0  0  0  0  0  0  0  0  0  0
   -5.1495   -4.6660   -0.0000 N   0  0  0  0  0  0  0  0  0  0  0  0
   -7.8210   -6.2012   -0.0000 C   0  0  0  0  0  0  0  0  0  0  0  0
   -5.1616   -6.1891   -0.0000 C   0  0  0  0  0  0  0  0  0  0  0  0
   -9.1628   -6.9627   -0.0000 N   0  0  0  0  0  0  0  0  0  0  0  0
   -6.5034   -6.9506   -0.0000 C   0  0  0  0  0  0  0  0  0  0  0  0
   -4.1099   -6.7814   -0.0000 O   0  0  0  0  0  0  0  0  0  0  0  0
  -10.5045   -6.1891   -0.0000 C   0  0  0  0  0  0  0  0  0  0  0  0
   -9.1628   -8.4858   -0.0000 C   0  0  0  0  0  0  0  0  0  0  0  0
  -11.8463   -6.9506   -0.0000 C   0  0  0  0  0  0  0  0  0  0  0  0
  -10.5045   -9.2474   -0.0000 C   0  0  0  0  0  0  0  0  0  0  0  0
  -11.8463   -8.4737   -0.0000 O   0  0  0  0  0  0  0  0  0  0  0  0
  1  2  1  0  0  0  0
  2  3  2  0  0  0  0
  2  4  1  0  0  0  0
  3  5  1  0  0  0  0
  4  6  2  0  0  0  0
  5  7  1  0  0  0  0
  5  8  2  0  0  0  0
  7  9  1  0  0  0  0
  9 10  2  0  0  0  0
  9 11  1  0  0  0  0
 11 12  1  0  0  0  0
 12 13  2  0  0  0  0
 12 14  1  0  0  0  0
 13 15  1  0  0  0  0
 14 16  1  0  0  0  0
 15 17  1  0  0  0  0
 15 18  2  0  0  0  0
 16 19  2  0  0  0  0
 17 20  1  0  0  0  0
 17 21  1  0  0  0  0
 20 22  1  0  0  0  0
 21 23  1  0  0  0  0
 22 24  1  0  0  0  0
  6  8  1  0  0  0  0
 16 18  1  0  0  0  0
 23 24  1  0  0  0  0
M  END
>  <MolRegNo>
1422595

>  <m>
=

>  <Value>
40000

>  <Unit>
nM

>  <Type>
IC50

>  <pValue>
4.4

>  <Ligand Efficiency>
0

>  <Binding Efficiency>
0

>  <Surface Efficiency>
0

>  <Assay Index>
681300

>  <Assay Category>


>  <Assay Organism>
Homo sapiens

>  <Target ID>
17045

>  <Target Name>
Cytochrome P450 3A4

>  <Target Organism>
Homo sapiens

>  <Target Description>
Target is a single protein chain

>  <Sequence Accession>
P08684

>  <Reference>
Bioorg Med Chem Lett 22 (20), 6381-6384 (2012)

>  <Pubmed ID>
22981333

>  <DOI>
10.1016/j.bmcl.2012.08.072

$$$$
1422597
Actelion Java MolfileCreator 1.0

 25 27  0  0  0  0  0  0  0  0999 V2000
    0.0000   -0.0000   -0.0000 F   0  0  0  0  0  0  0  0  0  0  0  0
   -0.0121    1.2465   -0.0000 C   0  0  0  0  0  0  0  0  0  0  0  0
    1.3070    2.0211   -0.0000 C   0  0  0  0  0  0  0  0  0  0  0  0
   -1.3555    2.0211   -0.0000 C   0  0  0  0  0  0  0  0  0  0  0  0
    1.2949    3.5702   -0.0000 C   0  0  0  0  0  0  0  0  0  0  0  0
    2.3599    1.4160   -0.0000 C   0  0  0  0  0  0  0  0  0  0  0  0
   -1.3676    3.5702   -0.0000 C   0  0  0  0  0  0  0  0  0  0  0  0
   -0.0484    4.3447   -0.0000 C   0  0  0  0  0  0  0  0  0  0  0  0
   -0.0605    5.8938   -0.0000 N   0  0  0  0  0  0  0  0  0  0  0  0
   -1.4039    6.6683   -0.0000 C   0  0  0  0  0  0  0  0  0  0  0  0
   -2.4810    6.0632   -0.0000 O   0  0  0  0  0  0  0  0  0  0  0  0
   -1.4160    8.2174   -0.0000 C   0  0  0  0  0  0  0  0  0  0  0  0
   -2.7593    8.9920   -0.0000 C   0  0  0  0  0  0  0  0  0  0  0  0
   -2.7714   10.5410   -0.0000 N   0  0  0  0  0  0  0  0  0  0  0  0
   -4.1027    8.2295   -0.0000 N   0  0  0  0  0  0  0  0  0  0  0  0
   -4.1148   11.3156   -0.0000 C   0  0  0  0  0  0  0  0  0  0  0  0
   -5.4460    9.0041   -0.0000 C   0  0  0  0  0  0  0  0  0  0  0  0
   -4.1269   12.8647   -0.0000 N   0  0  0  0  0  0  0  0  0  0  0  0
   -5.4581   10.5532   -0.0000 C   0  0  0  0  0  0  0  0  0  0  0  0
   -6.5231    8.3990   -0.0000 O   0  0  0  0  0  0  0  0  0  0  0  0
   -2.8077   13.6513   -0.0000 C   0  0  0  0  0  0  0  0  0  0  0  0
   -5.4702   13.6392   -0.0000 C   0  0  0  0  0  0  0  0  0  0  0  0
   -2.8319   15.2004   -0.0000 C   0  0  0  0  0  0  0  0  0  0  0  0
   -5.4944   15.1883   -0.0000 C   0  0  0  0  0  0  0  0  0  0  0  0
   -4.1753   15.9750   -0.0000 O   0  0  0  0  0  0  0  0  0  0  0  0
  1  2  1  0  0  0  0
  2  3  2  0  0  0  0
  2  4  1  0  0  0  0
  3  5  1  0  0  0  0
  3  6  1  0  0  0  0
  4  7  2  0  0  0  0
  5  8  2  0  0  0  0
  8  9  1  0  0  0  0
  9 10  1  0  0  0  0
 10 11  2  0  0  0  0
 10 12  1  0  0  0  0
 12 13  1  0  0  0  0
 13 14  2  0  0  0  0
 13 15  1  0  0  0  0
 14 16  1  0  0  0  0
 15 17  1  0  0  0  0
 16 18  1  0  0  0  0
 16 19  2  0  0  0  0
 17 20  2  0  0  0  0
 18 21  1  0  0  0  0
 18 22  1  0  0  0  0
 21 23  1  0  0  0  0
 22 24  1  0  0  0  0
 23 25  1  0  0  0  0
  7  8  1  0  0  0  0
 17 19  1  0  0  0  0
 24 25  1  0  0  0  0
M  END
>  <MolRegNo>
1422597

>  <m>
=

>  <Value>
40000

>  <Unit>
nM

>  <Type>
IC50

>  <pValue>
4.4

>  <Ligand Efficiency>
0

>  <Binding Efficiency>
0

>  <Surface Efficiency>
0

>  <Assay Index>
681300

>  <Assay Category>


>  <Assay Organism>
Homo sapiens

>  <Target ID>
17045

>  <Target Name>
Cytochrome P450 3A4

>  <Target Organism>
Homo sapiens

>  <Target Description>
Target is a single protein chain

>  <Sequence Accession>
P08684

>  <Reference>
Bioorg Med Chem Lett 22 (20), 6381-6384 (2012)

>  <Pubmed ID>
22981333

>  <DOI>
10.1016/j.bmcl.2012.08.072

$$$$
1422598
Actelion Java MolfileCreator 1.0

 25 27  0  0  0  0  0  0  0  0999 V2000
    0.0000   -0.0000   -0.0000 Cl  0  0  0  0  0  0  0  0  0  0  0  0
   -0.0121    1.2485   -0.0000 C   0  0  0  0  0  0  0  0  0  0  0  0
    1.3091    2.0243   -0.0000 C   0  0  0  0  0  0  0  0  0  0  0  0
   -1.3576    2.0243   -0.0000 C   0  0  0  0  0  0  0  0  0  0  0  0
    2.3637    1.4182   -0.0000 F   0  0  0  0  0  0  0  0  0  0  0  0
    1.2970    3.5759   -0.0000 C   0  0  0  0  0  0  0  0  0  0  0  0
   -1.3697    3.5759   -0.0000 C   0  0  0  0  0  0  0  0  0  0  0  0
   -0.0485    4.3516   -0.0000 C   0  0  0  0  0  0  0  0  0  0  0  0
   -2.7152    4.3516   -0.0000 N   0  0  0  0  0  0  0  0  0  0  0  0
   -4.0607    3.5880   -0.0000 C   0  0  0  0  0  0  0  0  0  0  0  0
   -4.0728    2.3637   -0.0000 O   0  0  0  0  0  0  0  0  0  0  0  0
   -5.4062    4.3638   -0.0000 C   0  0  0  0  0  0  0  0  0  0  0  0
   -6.7517    3.6001   -0.0000 C   0  0  0  0  0  0  0  0  0  0  0  0
   -8.0972    4.3759   -0.0000 N   0  0  0  0  0  0  0  0  0  0  0  0
   -6.7638    2.0728   -0.0000 N   0  0  0  0  0  0  0  0  0  0  0  0
   -9.4427    3.6122   -0.0000 C   0  0  0  0  0  0  0  0  0  0  0  0
   -8.1093    1.3091   -0.0000 C   0  0  0  0  0  0  0  0  0  0  0  0
  -10.7882    4.3880   -0.0000 N   0  0  0  0  0  0  0  0  0  0  0  0
   -9.4548    2.0849   -0.0000 C   0  0  0  0  0  0  0  0  0  0  0  0
   -8.1214    0.0849   -0.0000 O   0  0  0  0  0  0  0  0  0  0  0  0
  -10.8124    5.9396   -0.0000 C   0  0  0  0  0  0  0  0  0  0  0  0
  -12.1337    3.6243   -0.0000 C   0  0  0  0  0  0  0  0  0  0  0  0
  -12.1579    6.7153   -0.0000 C   0  0  0  0  0  0  0  0  0  0  0  0
  -13.4792    4.4001   -0.0000 C   0  0  0  0  0  0  0  0  0  0  0  0
  -13.5034    5.9517   -0.0000 O   0  0  0  0  0  0  0  0  0  0  0  0
  1  2  1  0  0  0  0
  2  3  2  0  0  0  0
  2  4  1  0  0  0  0
  3  5  1  0  0  0  0
  3  6  1  0  0  0  0
  4  7  2  0  0  0  0
  6  8  2  0  0  0  0
  7  9  1  0  0  0  0
  9 10  1  0  0  0  0
 10 11  2  0  0  0  0
 10 12  1  0  0  0  0
 12 13  1  0  0  0  0
 13 14  2  0  0  0  0
 13 15  1  0  0  0  0
 14 16  1  0  0  0  0
 15 17  1  0  0  0  0
 16 18  1  0  0  0  0
 16 19  2  0  0  0  0
 17 20  2  0  0  0  0
 18 21  1  0  0  0  0
 18 22  1  0  0  0  0
 21 23  1  0  0  0  0
 22 24  1  0  0  0  0
 23 25  1  0  0  0  0
  7  8  1  0  0  0  0
 17 19  1  0  0  0  0
 24 25  1  0  0  0  0
M  END
>  <MolRegNo>
1422598

>  <m>
=

>  <Value>
40000

>  <Unit>
nM

>  <Type>
IC50

>  <pValue>
4.4

>  <Ligand Efficiency>
0

>  <Binding Efficiency>
0

>  <Surface Efficiency>
0

>  <Assay Index>
681300

>  <Assay Category>


>  <Assay Organism>
Homo sapiens

>  <Target ID>
17045

>  <Target Name>
Cytochrome P450 3A4

>  <Target Organism>
Homo sapiens

>  <Target Description>
Target is a single protein chain

>  <Sequence Accession>
P08684

>  <Reference>
Bioorg Med Chem Lett 22 (20), 6381-6384 (2012)

>  <Pubmed ID>
22981333

>  <DOI>
10.1016/j.bmcl.2012.08.072

$$$$
1422599
Actelion Java MolfileCreator 1.0

 26 28  0  0  0  0  0  0  0  0999 V2000
    0.0000   -0.0000   -0.0000 F   0  0  0  0  0  0  0  0  0  0  0  0
   -0.0121    1.2456   -0.0000 C   0  0  0  0  0  0  0  0  0  0  0  0
    1.3061    2.0196   -0.0000 C   0  0  0  0  0  0  0  0  0  0  0  0
   -1.3545    2.0196   -0.0000 C   0  0  0  0  0  0  0  0  0  0  0  0
    2.6243    1.2698   -0.0000 O   0  0  0  0  0  0  0  0  0  0  0  0
    1.2940    3.5676   -0.0000 C   0  0  0  0  0  0  0  0  0  0  0  0
   -1.3666    3.5676   -0.0000 C   0  0  0  0  0  0  0  0  0  0  0  0
    3.6765    1.8987   -0.0000 C   0  0  0  0  0  0  0  0  0  0  0  0
   -0.0484    4.3416   -0.0000 C   0  0  0  0  0  0  0  0  0  0  0  0
   -0.0605    5.8896   -0.0000 N   0  0  0  0  0  0  0  0  0  0  0  0
   -1.4029    6.6636   -0.0000 C   0  0  0  0  0  0  0  0  0  0  0  0
   -2.4792    6.0589   -0.0000 O   0  0  0  0  0  0  0  0  0  0  0  0
   -1.4150    8.2116   -0.0000 C   0  0  0  0  0  0  0  0  0  0  0  0
   -2.7574    8.9856   -0.0000 C   0  0  0  0  0  0  0  0  0  0  0  0
   -2.7694   10.5336   -0.0000 N   0  0  0  0  0  0  0  0  0  0  0  0
   -4.0997    8.2237   -0.0000 N   0  0  0  0  0  0  0  0  0  0  0  0
   -4.1118   11.3076   -0.0000 C   0  0  0  0  0  0  0  0  0  0  0  0
   -5.4421    8.9977   -0.0000 C   0  0  0  0  0  0  0  0  0  0  0  0
   -4.1239   12.8555   -0.0000 N   0  0  0  0  0  0  0  0  0  0  0  0
   -5.4542   10.5457   -0.0000 C   0  0  0  0  0  0  0  0  0  0  0  0
   -6.5185    8.3930   -0.0000 O   0  0  0  0  0  0  0  0  0  0  0  0
   -2.8057   13.6416   -0.0000 C   0  0  0  0  0  0  0  0  0  0  0  0
   -5.4663   13.6295   -0.0000 C   0  0  0  0  0  0  0  0  0  0  0  0
   -2.8299   15.1896   -0.0000 C   0  0  0  0  0  0  0  0  0  0  0  0
   -5.4905   15.1775   -0.0000 C   0  0  0  0  0  0  0  0  0  0  0  0
   -4.1723   15.9636   -0.0000 O   0  0  0  0  0  0  0  0  0  0  0  0
  1  2  1  0  0  0  0
  2  3  2  0  0  0  0
  2  4  1  0  0  0  0
  3  5  1  0  0  0  0
  3  6  1  0  0  0  0
  4  7  2  0  0  0  0
  5  8  1  0  0  0  0
  6  9  2  0  0  0  0
  9 10  1  0  0  0  0
 10 11  1  0  0  0  0
 11 12  2  0  0  0  0
 11 13  1  0  0  0  0
 13 14  1  0  0  0  0
 14 15  2  0  0  0  0
 14 16  1  0  0  0  0
 15 17  1  0  0  0  0
 16 18  1  0  0  0  0
 17 19  1  0  0  0  0
 17 20  2  0  0  0  0
 18 21  2  0  0  0  0
 19 22  1  0  0  0  0
 19 23  1  0  0  0  0
 22 24  1  0  0  0  0
 23 25  1  0  0  0  0
 24 26  1  0  0  0  0
  7  9  1  0  0  0  0
 18 20  1  0  0  0  0
 25 26  1  0  0  0  0
M  END
>  <MolRegNo>
1422599

>  <m>
=

>  <Value>
40000

>  <Unit>
nM

>  <Type>
IC50

>  <pValue>
4.4

>  <Ligand Efficiency>
0

>  <Binding Efficiency>
0

>  <Surface Efficiency>
0

>  <Assay Index>
681300

>  <Assay Category>


>  <Assay Organism>
Homo sapiens

>  <Target ID>
17045

>  <Target Name>
Cytochrome P450 3A4

>  <Target Organism>
Homo sapiens

>  <Target Description>
Target is a single protein chain

>  <Sequence Accession>
P08684

>  <Reference>
Bioorg Med Chem Lett 22 (20), 6381-6384 (2012)

>  <Pubmed ID>
22981333

>  <DOI>
10.1016/j.bmcl.2012.08.072

$$$$
1422600
Actelion Java MolfileCreator 1.0

 25 27  0  0  0  0  0  0  0  0999 V2000
    0.0000   -0.0000   -0.0000 Br  0  0  0  0  0  0  0  0  0  0  0  0
   -0.0121    1.2485   -0.0000 C   0  0  0  0  0  0  0  0  0  0  0  0
    1.3091    2.0243   -0.0000 C   0  0  0  0  0  0  0  0  0  0  0  0
   -1.3576    2.0243   -0.0000 C   0  0  0  0  0  0  0  0  0  0  0  0
    2.3637    1.4182   -0.0000 F   0  0  0  0  0  0  0  0  0  0  0  0
    1.2970    3.5759   -0.0000 C   0  0  0  0  0  0  0  0  0  0  0  0
   -1.3697    3.5759   -0.0000 C   0  0  0  0  0  0  0  0  0  0  0  0
   -0.0485    4.3516   -0.0000 C   0  0  0  0  0  0  0  0  0  0  0  0
   -2.7152    4.3516   -0.0000 N   0  0  0  0  0  0  0  0  0  0  0  0
   -4.0607    3.5880   -0.0000 C   0  0  0  0  0  0  0  0  0  0  0  0
   -4.0728    2.3637   -0.0000 O   0  0  0  0  0  0  0  0  0  0  0  0
   -5.4062    4.3638   -0.0000 C   0  0  0  0  0  0  0  0  0  0  0  0
   -6.7517    3.6001   -0.0000 C   0  0  0  0  0  0  0  0  0  0  0  0
   -8.0972    4.3759   -0.0000 N   0  0  0  0  0  0  0  0  0  0  0  0
   -6.7638    2.0728   -0.0000 N   0  0  0  0  0  0  0  0  0  0  0  0
   -9.4427    3.6122   -0.0000 C   0  0  0  0  0  0  0  0  0  0  0  0
   -8.1093    1.3091   -0.0000 C   0  0  0  0  0  0  0  0  0  0  0  0
  -10.7882    4.3880   -0.0000 N   0  0  0  0  0  0  0  0  0  0  0  0
   -9.4548    2.0849   -0.0000 C   0  0  0  0  0  0  0  0  0  0  0  0
   -8.1214    0.0849   -0.0000 O   0  0  0  0  0  0  0  0  0  0  0  0
  -10.8124    5.9396   -0.0000 C   0  0  0  0  0  0  0  0  0  0  0  0
  -12.1337    3.6243   -0.0000 C   0  0  0  0  0  0  0  0  0  0  0  0
  -12.1579    6.7153   -0.0000 C   0  0  0  0  0  0  0  0  0  0  0  0
  -13.4792    4.4001   -0.0000 C   0  0  0  0  0  0  0  0  0  0  0  0
  -13.5034    5.9517   -0.0000 O   0  0  0  0  0  0  0  0  0  0  0  0
  1  2  1  0  0  0  0
  2  3  2  0  0  0  0
  2  4  1  0  0  0  0
  3  5  1  0  0  0  0
  3  6  1  0  0  0  0
  4  7  2  0  0  0  0
  6  8  2  0  0  0  0
  7  9  1  0  0  0  0
  9 10  1  0  0  0  0
 10 11  2  0  0  0  0
 10 12  1  0  0  0  0
 12 13  1  0  0  0  0
 13 14  2  0  0  0  0
 13 15  1  0  0  0  0
 14 16  1  0  0  0  0
 15 17  1  0  0  0  0
 16 18  1  0  0  0  0
 16 19  2  0  0  0  0
 17 20  2  0  0  0  0
 18 21  1  0  0  0  0
 18 22  1  0  0  0  0
 21 23  1  0  0  0  0
 22 24  1  0  0  0  0
 23 25  1  0  0  0  0
  7  8  1  0  0  0  0
 17 19  1  0  0  0  0
 24 25  1  0  0  0  0
M  END
>  <MolRegNo>
1422600

>  <m>
=

>  <Value>
40000

>  <Unit>
nM

>  <Type>
IC50

>  <pValue>
4.4

>  <Ligand Efficiency>
0

>  <Binding Efficiency>
0

>  <Surface Efficiency>
0

>  <Assay Index>
681300

>  <Assay Category>


>  <Assay Organism>
Homo sapiens

>  <Target ID>
17045

>  <Target Name>
Cytochrome P450 3A4

>  <Target Organism>
Homo sapiens

>  <Target Description>
Target is a single protein chain

>  <Sequence Accession>
P08684

>  <Reference>
Bioorg Med Chem Lett 22 (20), 6381-6384 (2012)

>  <Pubmed ID>
22981333

>  <DOI>
10.1016/j.bmcl.2012.08.072

$$$$
1422608
Actelion Java MolfileCreator 1.0

 26 28  0  0  0  0  0  0  0  0999 V2000
    0.0000   -0.0000   -0.0000 Cl  0  0  0  0  0  0  0  0  0  0  0  0
    1.0655   -0.6001   -0.0000 C   0  0  0  0  0  0  0  0  0  0  0  0
    2.4004    0.1960   -0.0000 C   0  0  0  0  0  0  0  0  0  0  0  0
    1.0532   -2.1432   -0.0000 C   0  0  0  0  0  0  0  0  0  0  0  0
    2.3882    1.4574   -0.0000 F   0  0  0  0  0  0  0  0  0  0  0  0
    3.7354   -0.5634   -0.0000 C   0  0  0  0  0  0  0  0  0  0  0  0
    2.3882   -2.9026   -0.0000 C   0  0  0  0  0  0  0  0  0  0  0  0
    3.7231   -2.1065   -0.0000 C   0  0  0  0  0  0  0  0  0  0  0  0
    2.3759   -4.4457   -0.0000 N   0  0  0  0  0  0  0  0  0  0  0  0
    1.0165   -5.2173   -0.0000 C   0  0  0  0  0  0  0  0  0  0  0  0
   -0.0735   -4.5804   -0.0000 O   0  0  0  0  0  0  0  0  0  0  0  0
    1.0043   -6.7604   -0.0000 C   0  0  0  0  0  0  0  0  0  0  0  0
   -0.3552   -7.5320   -0.0000 C   0  0  0  0  0  0  0  0  0  0  0  0
   -1.7146   -6.7481   -0.0000 N   0  0  0  0  0  0  0  0  0  0  0  0
   -0.3674   -9.0751   -0.0000 N   0  0  0  0  0  0  0  0  0  0  0  0
   -3.0740   -7.5075   -0.0000 C   0  0  0  0  0  0  0  0  0  0  0  0
   -1.7268   -9.8344   -0.0000 C   0  0  0  0  0  0  0  0  0  0  0  0
    0.6981   -9.6874   -0.0000 C   0  0  0  0  0  0  0  0  0  0  0  0
   -4.4334   -6.7236   -0.0000 N   0  0  0  0  0  0  0  0  0  0  0  0
   -3.0863   -9.0506   -0.0000 C   0  0  0  0  0  0  0  0  0  0  0  0
   -1.7391  -11.0714   -0.0000 O   0  0  0  0  0  0  0  0  0  0  0  0
   -4.4457   -5.1560   -0.0000 C   0  0  0  0  0  0  0  0  0  0  0  0
   -5.7929   -7.4952   -0.0000 C   0  0  0  0  0  0  0  0  0  0  0  0
   -5.8051   -4.3722   -0.0000 C   0  0  0  0  0  0  0  0  0  0  0  0
   -7.1523   -6.7114   -0.0000 C   0  0  0  0  0  0  0  0  0  0  0  0
   -7.1645   -5.1438   -0.0000 O   0  0  0  0  0  0  0  0  0  0  0  0
  1  2  1  0  0  0  0
  2  3  2  0  0  0  0
  2  4  1  0  0  0  0
  3  5  1  0  0  0  0
  3  6  1  0  0  0  0
  4  7  2  0  0  0  0
  6  8  2  0  0  0  0
  7  9  1  0  0  0  0
  9 10  1  0  0  0  0
 10 11  2  0  0  0  0
 10 12  1  0  0  0  0
 12 13  1  0  0  0  0
 13 14  2  0  0  0  0
 13 15  1  0  0  0  0
 14 16  1  0  0  0  0
 15 17  1  0  0  0  0
 15 18  1  0  0  0  0
 16 19  1  0  0  0  0
 16 20  2  0  0  0  0
 17 21  2  0  0  0  0
 19 22  1  0  0  0  0
 19 23  1  0  0  0  0
 22 24  1  0  0  0  0
 23 25  1  0  0  0  0
 24 26  1  0  0  0  0
  7  8  1  0  0  0  0
 17 20  1  0  0  0  0
 25 26  1  0  0  0  0
M  END
>  <MolRegNo>
1422608

>  <m>
=

>  <Value>
40000

>  <Unit>
nM

>  <Type>
IC50

>  <pValue>
4.4

>  <Ligand Efficiency>
0

>  <Binding Efficiency>
0

>  <Surface Efficiency>
0

>  <Assay Index>
681300

>  <Assay Category>


>  <Assay Organism>
Homo sapiens

>  <Target ID>
17045

>  <Target Name>
Cytochrome P450 3A4

>  <Target Organism>
Homo sapiens

>  <Target Description>
Target is a single protein chain

>  <Sequence Accession>
P08684

>  <Reference>
Bioorg Med Chem Lett 22 (20), 6381-6384 (2012)

>  <Pubmed ID>
22981333

>  <DOI>
10.1016/j.bmcl.2012.08.072

$$$$
1425673
Actelion Java MolfileCreator 1.0

 59 62  0  0  0  0  0  0  0  0999 V2000
    0.0000   -0.0000   -0.0000 S   0  0  0  0  0  0  0  0  0  0  0  0
   -1.3177    0.7742   -0.0000 C   0  0  0  0  0  0  0  0  0  0  0  0
    1.2848    0.7742   -0.0000 C   0  0  0  0  0  0  0  0  0  0  0  0
   -2.6355    0.0329   -0.0000 C   0  0  0  0  0  0  0  0  0  0  0  0
   -2.6519   -1.4495   -0.0000 C   0  0  0  0  0  0  0  0  0  0  0  0
   -1.3671   -2.1907   -0.0000 N   0  0  0  0  0  0  0  0  0  0  0  0
   -1.3177   -3.3767   -0.0000 C   0  0  0  0  0  0  0  0  0  0  0  0
   -1.9107   -4.7438   -0.0000 O   0  0  0  0  0  0  0  0  0  0  0  0
    0.1647   -3.4755   -0.0000 N   0  0  0  0  0  0  0  0  0  0  0  0
   -0.7742   -5.7156   -0.0000 C   0  0  0  0  0  0  0  0  0  0  0  0
    0.4941   -4.9250   -0.0000 C   0  0  0  0  0  0  0  0  0  0  0  0
    1.1201   -2.3060   -0.0000 C   0  0  0  0  0  0  0  0  0  0  0  0
   -0.7577   -7.1981   -0.0000 C   0  0  0  0  0  0  0  0  0  0  0  0
    1.7954   -5.6333   -0.0000 C   0  0  0  0  0  0  0  0  0  0  0  0
    0.5765   -7.9228   -0.0000 O   0  0  0  0  0  0  0  0  0  0  0  0
   -1.8778   -8.1699   -0.0000 O   0  0  0  0  0  0  0  0  0  0  0  0
    1.8283   -7.1322   -0.0000 C   0  0  0  0  0  0  0  0  0  0  0  0
   -3.2284   -7.1816   -0.0000 C   0  0  0  0  0  0  0  0  0  0  0  0
    3.1461   -7.8405   -0.0000 C   0  0  0  0  0  0  0  0  0  0  0  0
   -3.2449   -5.6662   -0.0000 C   0  0  0  0  0  0  0  0  0  0  0  0
   -4.5626   -7.9064   -0.0000 C   0  0  0  0  0  0  0  0  0  0  0  0
   -3.5084   -4.2661   -0.0000 O   0  0  0  0  0  0  0  0  0  0  0  0
   -4.5791   -4.8921   -0.0000 C   0  0  0  0  0  0  0  0  0  0  0  0
   -1.9601   -6.4074   -0.0000 C   0  0  0  0  0  0  0  0  0  0  0  0
   -4.5626   -9.3888   -0.0000 C   0  0  0  0  0  0  0  0  0  0  0  0
   -5.8804   -7.1322   -0.0000 C   0  0  0  0  0  0  0  0  0  0  0  0
   -3.0143   -3.1625   -0.0000 C   0  0  0  0  0  0  0  0  0  0  0  0
   -4.6285   -2.9649   -0.0000 C   0  0  0  0  0  0  0  0  0  0  0  0
   -3.2943  -10.1300   -0.0000 O   0  0  0  0  0  0  0  0  0  0  0  0
   -5.8804  -10.1300   -0.0000 C   0  0  0  0  0  0  0  0  0  0  0  0
   -5.1227   -2.1742   -0.0000 C   0  0  0  0  0  0  0  0  0  0  0  0
   -3.5414   -2.0095   -0.0000 C   0  0  0  0  0  0  0  0  0  0  0  0
   -3.2614  -11.6289   -0.0000 C   0  0  0  0  0  0  0  0  0  0  0  0
   -7.2146   -9.3559   -0.0000 C   0  0  0  0  0  0  0  0  0  0  0  0
   -6.0286  -11.5466   -0.0000 C   0  0  0  0  0  0  0  0  0  0  0  0
   -4.3320   -1.0212   -0.0000 O   0  0  0  0  0  0  0  0  0  0  0  0
   -6.4898   -2.0260   -0.0000 N   0  0  0  0  0  0  0  0  0  0  0  0
   -4.5791  -12.4031   -0.0000 O   0  0  0  0  0  0  0  0  0  0  0  0
   -1.9601  -12.3372   -0.0000 C   0  0  0  0  0  0  0  0  0  0  0  0
   -8.5158  -10.0971   -0.0000 O   0  0  0  0  0  0  0  0  0  0  0  0
   -7.2310   -7.8405   -0.0000 O   0  0  0  0  0  0  0  0  0  0  0  0
   -7.2475   -3.3108   -0.0000 C   0  0  0  0  0  0  0  0  0  0  0  0
   -4.5297  -13.9020   -0.0000 C   0  0  0  0  0  0  0  0  0  0  0  0
   -1.9436  -13.8361   -0.0000 C   0  0  0  0  0  0  0  0  0  0  0  0
   -8.5488   -7.0828   -0.0000 C   0  0  0  0  0  0  0  0  0  0  0  0
   -7.2640   -4.8097   -0.0000 C   0  0  0  0  0  0  0  0  0  0  0  0
   -8.5652   -2.5531   -0.0000 C   0  0  0  0  0  0  0  0  0  0  0  0
   -3.2284  -14.5938   -0.0000 C   0  0  0  0  0  0  0  0  0  0  0  0
   -5.8474  -14.6762   -0.0000 C   0  0  0  0  0  0  0  0  0  0  0  0
   -1.9272  -15.3350   -0.0000 O   0  0  0  0  0  0  0  0  0  0  0  0
   -0.6753  -13.0290   -0.0000 C   0  0  0  0  0  0  0  0  0  0  0  0
   -8.5652   -5.5674   -0.0000 C   0  0  0  0  0  0  0  0  0  0  0  0
   -9.8665   -7.8240   -0.0000 C   0  0  0  0  0  0  0  0  0  0  0  0
   -5.1885   -5.5509   -0.0000 O   0  0  0  0  0  0  0  0  0  0  0  0
   -2.4378  -16.0763   -0.0000 O   0  0  0  0  0  0  0  0  0  0  0  0
   -0.6259  -16.0433   -0.0000 C   0  0  0  0  0  0  0  0  0  0  0  0
   -9.5206   -4.3650   -0.0000 O   0  0  0  0  0  0  0  0  0  0  0  0
   -9.9159   -6.2921   -0.0000 C   0  0  0  0  0  0  0  0  0  0  0  0
   -9.8830   -9.3064   -0.0000 C   0  0  0  0  0  0  0  0  0  0  0  0
  1  2  1  0  0  0  0
  1  3  1  0  0  0  0
  2  4  1  0  0  0  0
  4  5  1  0  0  0  0
  5  6  1  0  0  0  0
  6  7  2  0  0  0  0
  7  8  1  0  0  0  0
  7  9  1  0  0  0  0
 10  8  1  1  0  0  0
 11  9  1  6  0  0  0
  9 12  1  0  0  0  0
 10 13  1  0  0  0  0
 11 14  1  0  0  0  0
 13 15  1  0  0  0  0
 13 16  1  6  0  0  0
 14 17  1  0  0  0  0
 18 16  1  1  0  0  0
 17 19  1  6  0  0  0
 18 20  1  0  0  0  0
 18 21  1  0  0  0  0
 20 22  1  0  0  0  0
 20 23  1  1  0  0  0
 20 24  1  0  0  0  0
 21 25  1  0  0  0  0
 21 26  1  1  0  0  0
 22 27  1  0  0  0  0
 23 28  1  0  0  0  0
 25 29  1  1  0  0  0
 25 30  1  0  0  0  0
 28 31  1  0  0  0  0
 28 32  1  1  0  0  0
 33 29  1  6  0  0  0
 30 34  1  0  0  0  0
 30 35  1  6  0  0  0
 31 36  2  0  0  0  0
 31 37  1  0  0  0  0
 33 38  1  0  0  0  0
 33 39  1  0  0  0  0
 34 40  2  0  0  0  0
 34 41  1  0  0  0  0
 37 42  1  0  0  0  0
 38 43  1  0  0  0  0
 44 39  1  6  0  0  0
 41 45  1  0  0  0  0
 42 46  1  0  0  0  0
 42 47  1  6  0  0  0
 43 48  1  0  0  0  0
 43 49  1  1  0  0  0
 44 50  1  0  0  0  0
 44 51  1  0  0  0  0
 45 52  1  0  0  0  0
 45 53  1  1  0  0  0
 46 54  1  6  0  0  0
 48 55  1  6  0  0  0
 50 56  1  0  0  0  0
 52 57  1  0  0  0  0
 52 58  1  1  0  0  0
 53 59  1  0  0  0  0
 10 11  1  0  0  0  0
 15 17  1  0  0  0  0
 44 48  1  0  0  0  0
 46 52  1  0  0  0  0
M  END
>  <MolRegNo>
1425673

>  <m>
=

>  <Value>
1330

>  <Unit>
nM

>  <Type>
IC50

>  <pValue>
5.88

>  <Ligand Efficiency>
0

>  <Binding Efficiency>
0

>  <Surface Efficiency>
0

>  <Assay Index>
686222

>  <Assay Category>


>  <Assay Organism>
Homo sapiens

>  <Target ID>
17045

>  <Target Name>
Cytochrome P450 3A4

>  <Target Organism>
Homo sapiens

>  <Target Description>
Target is a single protein chain

>  <Sequence Accession>
P08684

>  <Reference>
J Med Chem 55 (13), 6111-6123 (2012)

>  <Pubmed ID>
22697905

>  <DOI>
10.1021/jm300356u

$$$$
1425674
Actelion Java MolfileCreator 1.0

 59 62  0  0  0  0  0  0  0  0999 V2000
    0.0000   -0.0000   -0.0000 O   0  0  0  0  0  0  0  0  0  0  0  0
    1.2751    0.7627   -0.0000 C   0  0  0  0  0  0  0  0  0  0  0  0
    1.2632    2.2761   -0.0000 O   0  0  0  0  0  0  0  0  0  0  0  0
    2.5859    0.0238   -0.0000 C   0  0  0  0  0  0  0  0  0  0  0  0
   -0.0477    3.0268   -0.0000 C   0  0  0  0  0  0  0  0  0  0  0  0
    3.8848    0.7865   -0.0000 C   0  0  0  0  0  0  0  0  0  0  0  0
    2.5740   -1.4658   -0.0000 C   0  0  0  0  0  0  0  0  0  0  0  0
   -0.0596    4.5403   -0.0000 C   0  0  0  0  0  0  0  0  0  0  0  0
   -1.3585    2.2880   -0.0000 C   0  0  0  0  0  0  0  0  0  0  0  0
    5.1599    0.0477   -0.0000 O   0  0  0  0  0  0  0  0  0  0  0  0
    3.8491    2.2999   -0.0000 C   0  0  0  0  0  0  0  0  0  0  0  0
   -1.0129    5.7438   -0.0000 O   0  0  0  0  0  0  0  0  0  0  0  0
    1.2274    5.3029   -0.0000 C   0  0  0  0  0  0  0  0  0  0  0  0
   -1.4062    3.8133   -0.0000 C   0  0  0  0  0  0  0  0  0  0  0  0
   -1.3704    0.8103   -0.0000 C   0  0  0  0  0  0  0  0  0  0  0  0
    5.1957   -1.4419   -0.0000 C   0  0  0  0  0  0  0  0  0  0  0  0
    5.1599    3.0507   -0.0000 C   0  0  0  0  0  0  0  0  0  0  0  0
    2.5383    3.0626   -0.0000 C   0  0  0  0  0  0  0  0  0  0  0  0
    2.5144    4.5641   -0.0000 O   0  0  0  0  0  0  0  0  0  0  0  0
    1.2155    6.8163   -0.0000 C   0  0  0  0  0  0  0  0  0  0  0  0
    3.8848   -2.2165   -0.0000 O   0  0  0  0  0  0  0  0  0  0  0  0
    6.5065   -2.1569   -0.0000 C   0  0  0  0  0  0  0  0  0  0  0  0
    6.4469    2.3238   -0.0000 O   0  0  0  0  0  0  0  0  0  0  0  0
    5.1480    4.5641   -0.0000 C   0  0  0  0  0  0  0  0  0  0  0  0
    2.5025    7.5790   -0.0000 C   0  0  0  0  0  0  0  0  0  0  0  0
   -0.0953    7.5790   -0.0000 C   0  0  0  0  0  0  0  0  0  0  0  0
    3.9325   -3.7180   -0.0000 C   0  0  0  0  0  0  0  0  0  0  0  0
    6.5423   -3.6584   -0.0000 C   0  0  0  0  0  0  0  0  0  0  0  0
    7.7578    3.0507   -0.0000 C   0  0  0  0  0  0  0  0  0  0  0  0
    4.7786    5.8868   -0.0000 O   0  0  0  0  0  0  0  0  0  0  0  0
    3.8133    5.3268   -0.0000 C   0  0  0  0  0  0  0  0  0  0  0  0
    6.4350    3.8253   -0.0000 C   0  0  0  0  0  0  0  0  0  0  0  0
    2.4906    9.1044   -0.0000 O   0  0  0  0  0  0  0  0  0  0  0  0
    3.7895    6.8402   -0.0000 C   0  0  0  0  0  0  0  0  0  0  0  0
    5.2433   -4.4211   -0.0000 C   0  0  0  0  0  0  0  0  0  0  0  0
    2.6217   -4.5045   -0.0000 C   0  0  0  0  0  0  0  0  0  0  0  0
    6.5542   -5.1480   -0.0000 O   0  0  0  0  0  0  0  0  0  0  0  0
    7.8173   -2.8600   -0.0000 C   0  0  0  0  0  0  0  0  0  0  0  0
    9.0448    2.2403   -0.0000 O   0  0  0  0  0  0  0  0  0  0  0  0
    7.8054    4.5641   -0.0000 C   0  0  0  0  0  0  0  0  0  0  0  0
    5.6128    6.5899   -0.0000 C   0  0  0  0  0  0  0  0  0  0  0  0
    5.2553    7.6624   -0.0000 C   0  0  0  0  0  0  0  0  0  0  0  0
    5.2672   -5.9107   -0.0000 O   0  0  0  0  0  0  0  0  0  0  0  0
    7.8650   -5.8630   -0.0000 C   0  0  0  0  0  0  0  0  0  0  0  0
   10.3556    2.9792   -0.0000 C   0  0  0  0  0  0  0  0  0  0  0  0
    6.7091    5.6247   -0.0000 O   0  0  0  0  0  0  0  0  0  0  0  0
    9.1282    5.2910   -0.0000 C   0  0  0  0  0  0  0  0  0  0  0  0
   10.3914    4.4926   -0.0000 C   0  0  0  0  0  0  0  0  0  0  0  0
   11.6307    2.1927   -0.0000 C   0  0  0  0  0  0  0  0  0  0  0  0
    7.3645    6.9832   -0.0000 C   0  0  0  0  0  0  0  0  0  0  0  0
    8.8422    6.7806   -0.0000 N   0  0  0  0  0  0  0  0  0  0  0  0
    6.6376    8.3298   -0.0000 N   0  0  0  0  0  0  0  0  0  0  0  0
    9.8789    7.8888   -0.0000 C   0  0  0  0  0  0  0  0  0  0  0  0
    5.1242    8.3893   -0.0000 C   0  0  0  0  0  0  0  0  0  0  0  0
    4.3973    9.7240   -0.0000 C   0  0  0  0  0  0  0  0  0  0  0  0
    5.1718   11.0110   -0.0000 C   0  0  0  0  0  0  0  0  0  0  0  0
    4.4449   12.3457   -0.0000 N   0  0  0  0  0  0  0  0  0  0  0  0
    2.9315   12.4053   -0.0000 C   0  0  0  0  0  0  0  0  0  0  0  0
    5.2195   13.6327   -0.0000 C   0  0  0  0  0  0  0  0  0  0  0  0
  1  2  2  0  0  0  0
  2  3  1  0  0  0  0
  2  4  1  0  0  0  0
  3  5  1  0  0  0  0
  4  6  1  0  0  0  0
  4  7  1  6  0  0  0
  5  8  1  0  0  0  0
  5  9  1  1  0  0  0
  6 10  1  1  0  0  0
  6 11  1  0  0  0  0
  8 12  1  0  0  0  0
  8 13  1  0  0  0  0
  8 14  1  1  0  0  0
  9 15  1  0  0  0  0
 16 10  1  6  0  0  0
 11 17  1  0  0  0  0
 11 18  1  1  0  0  0
 13 19  1  6  0  0  0
 13 20  1  0  0  0  0
 16 21  1  0  0  0  0
 16 22  1  0  0  0  0
 17 23  1  1  0  0  0
 17 24  1  0  0  0  0
 20 25  1  0  0  0  0
 20 26  1  6  0  0  0
 21 27  1  0  0  0  0
 28 22  1  6  0  0  0
 29 23  1  6  0  0  0
 24 30  1  0  0  0  0
 24 31  1  1  0  0  0
 24 32  1  0  0  0  0
 25 33  2  0  0  0  0
 25 34  1  0  0  0  0
 27 35  1  0  0  0  0
 27 36  1  1  0  0  0
 28 37  1  0  0  0  0
 28 38  1  0  0  0  0
 29 39  1  0  0  0  0
 29 40  1  0  0  0  0
 30 41  1  0  0  0  0
 34 42  1  1  0  0  0
 35 43  1  6  0  0  0
 37 44  1  0  0  0  0
 39 45  1  0  0  0  0
 40 46  1  1  0  0  0
 40 47  1  0  0  0  0
 45 48  1  0  0  0  0
 45 49  1  6  0  0  0
 46 50  1  0  0  0  0
 47 51  1  6  0  0  0
 50 52  2  0  0  0  0
 51 53  1  0  0  0  0
 52 54  1  0  0  0  0
 54 55  1  0  0  0  0
 55 56  1  0  0  0  0
 56 57  1  0  0  0  0
 57 58  1  0  0  0  0
 57 59  1  0  0  0  0
 28 35  1  0  0  0  0
 31 34  1  0  0  0  0
 47 48  1  0  0  0  0
 50 51  1  0  0  0  0
M  END
>  <MolRegNo>
1425674

>  <m>
=

>  <Value>
700

>  <Unit>
nM

>  <Type>
IC50

>  <pValue>
6.16

>  <Ligand Efficiency>
0

>  <Binding Efficiency>
0

>  <Surface Efficiency>
0

>  <Assay Index>
686222

>  <Assay Category>


>  <Assay Organism>
Homo sapiens

>  <Target ID>
17045

>  <Target Name>
Cytochrome P450 3A4

>  <Target Organism>
Homo sapiens

>  <Target Description>
Target is a single protein chain

>  <Sequence Accession>
P08684

>  <Reference>
J Med Chem 55 (13), 6111-6123 (2012)

>  <Pubmed ID>
22697905

>  <DOI>
10.1021/jm300356u

$$$$
1425679
Actelion Java MolfileCreator 1.0

 62 66  0  0  0  0  0  0  0  0999 V2000
    0.0000   -0.0000   -0.0000 O   0  0  0  0  0  0  0  0  0  0  0  0
    1.2719    0.7631   -0.0000 C   0  0  0  0  0  0  0  0  0  0  0  0
    1.2592    2.2767   -0.0000 O   0  0  0  0  0  0  0  0  0  0  0  0
    2.5692    0.0254   -0.0000 C   0  0  0  0  0  0  0  0  0  0  0  0
   -0.0509    3.0271   -0.0000 C   0  0  0  0  0  0  0  0  0  0  0  0
    3.8538    0.7886   -0.0000 C   0  0  0  0  0  0  0  0  0  0  0  0
    2.5565   -1.4627   -0.0000 C   0  0  0  0  0  0  0  0  0  0  0  0
   -0.0636    4.5406   -0.0000 C   0  0  0  0  0  0  0  0  0  0  0  0
   -1.3609    2.2894   -0.0000 C   0  0  0  0  0  0  0  0  0  0  0  0
    5.1130    0.0509   -0.0000 O   0  0  0  0  0  0  0  0  0  0  0  0
    3.8284    2.3021   -0.0000 C   0  0  0  0  0  0  0  0  0  0  0  0
   -1.0175    5.7362   -0.0000 O   0  0  0  0  0  0  0  0  0  0  0  0
    1.2210    5.3037   -0.0000 C   0  0  0  0  0  0  0  0  0  0  0  0
   -1.3991    3.8284   -0.0000 C   0  0  0  0  0  0  0  0  0  0  0  0
   -1.3736    0.8140   -0.0000 C   0  0  0  0  0  0  0  0  0  0  0  0
    5.1511   -1.4372   -0.0000 C   0  0  0  0  0  0  0  0  0  0  0  0
    5.1257    3.0525   -0.0000 C   0  0  0  0  0  0  0  0  0  0  0  0
    2.5183    3.0652   -0.0000 C   0  0  0  0  0  0  0  0  0  0  0  0
    2.5056    4.5660   -0.0000 O   0  0  0  0  0  0  0  0  0  0  0  0
    1.2083    6.8173   -0.0000 C   0  0  0  0  0  0  0  0  0  0  0  0
    3.8411   -2.2131   -0.0000 O   0  0  0  0  0  0  0  0  0  0  0  0
    6.4484   -2.1495   -0.0000 C   0  0  0  0  0  0  0  0  0  0  0  0
    6.4103    2.3275   -0.0000 O   0  0  0  0  0  0  0  0  0  0  0  0
    5.1130    4.5660   -0.0000 C   0  0  0  0  0  0  0  0  0  0  0  0
    1.9333    8.1273   -0.0000 N   0  0  0  0  0  0  0  0  0  0  0  0
   -0.1018    7.5677   -0.0000 C   0  0  0  0  0  0  0  0  0  0  0  0
    3.8920   -3.7012   -0.0000 C   0  0  0  0  0  0  0  0  0  0  0  0
    6.4866   -3.6376   -0.0000 C   0  0  0  0  0  0  0  0  0  0  0  0
    7.7076    3.0525   -0.0000 C   0  0  0  0  0  0  0  0  0  0  0  0
    4.8586    5.9524   -0.0000 O   0  0  0  0  0  0  0  0  0  0  0  0
    3.7902    5.3292   -0.0000 C   0  0  0  0  0  0  0  0  0  0  0  0
    6.3976    3.8284   -0.0000 C   0  0  0  0  0  0  0  0  0  0  0  0
    3.4086    8.1527   -0.0000 C   0  0  0  0  0  0  0  0  0  0  0  0
    5.1893   -4.4007   -0.0000 C   0  0  0  0  0  0  0  0  0  0  0  0
    2.5819   -4.4770   -0.0000 C   0  0  0  0  0  0  0  0  0  0  0  0
    6.4993   -5.1257   -0.0000 O   0  0  0  0  0  0  0  0  0  0  0  0
    7.7457   -2.8363   -0.0000 C   0  0  0  0  0  0  0  0  0  0  0  0
    8.9795    2.2512   -0.0000 O   0  0  0  0  0  0  0  0  0  0  0  0
    7.7457    4.5660   -0.0000 C   0  0  0  0  0  0  0  0  0  0  0  0
    5.5327    6.9826   -0.0000 C   0  0  0  0  0  0  0  0  0  0  0  0
    3.7775    6.8427   -0.0000 C   0  0  0  0  0  0  0  0  0  0  0  0
    4.0319    9.1321   -0.0000 O   0  0  0  0  0  0  0  0  0  0  0  0
    5.2020   -5.8888   -0.0000 O   0  0  0  0  0  0  0  0  0  0  0  0
    7.7966   -5.8379   -0.0000 C   0  0  0  0  0  0  0  0  0  0  0  0
   10.2768    2.9889   -0.0000 C   0  0  0  0  0  0  0  0  0  0  0  0
    6.6519    5.6217   -0.0000 O   0  0  0  0  0  0  0  0  0  0  0  0
    9.0558    5.2910   -0.0000 C   0  0  0  0  0  0  0  0  0  0  0  0
    4.9476    8.4071   -0.0000 C   0  0  0  0  0  0  0  0  0  0  0  0
   10.3149    4.5025   -0.0000 C   0  0  0  0  0  0  0  0  0  0  0  0
   11.5359    2.2004   -0.0000 C   0  0  0  0  0  0  0  0  0  0  0  0
    7.3006    6.9699   -0.0000 C   0  0  0  0  0  0  0  0  0  0  0  0
    8.7760    6.7791   -0.0000 N   0  0  0  0  0  0  0  0  0  0  0  0
    6.6011    8.5979   -0.0000 N   0  0  0  0  0  0  0  0  0  0  0  0
    9.8062    7.8729   -0.0000 C   0  0  0  0  0  0  0  0  0  0  0  0
    7.4532   10.1369   -0.0000 C   0  0  0  0  0  0  0  0  0  0  0  0
    6.6774   11.4342   -0.0000 C   0  0  0  0  0  0  0  0  0  0  0  0
    8.9286   10.1623   -0.0000 C   0  0  0  0  0  0  0  0  0  0  0  0
    7.3896   12.7442   -0.0000 C   0  0  0  0  0  0  0  0  0  0  0  0
    9.6536   11.4724   -0.0000 C   0  0  0  0  0  0  0  0  0  0  0  0
    8.8650   12.7824   -0.0000 C   0  0  0  0  0  0  0  0  0  0  0  0
    9.5773   14.0924   -0.0000 O   0  0  0  0  0  0  0  0  0  0  0  0
   11.0526   14.1306   -0.0000 C   0  0  0  0  0  0  0  0  0  0  0  0
  1  2  2  0  0  0  0
  2  3  1  0  0  0  0
  2  4  1  0  0  0  0
  3  5  1  0  0  0  0
  4  6  1  0  0  0  0
  4  7  1  6  0  0  0
  5  8  1  0  0  0  0
  5  9  1  1  0  0  0
  6 10  1  1  0  0  0
  6 11  1  0  0  0  0
  8 12  1  0  0  0  0
  8 13  1  0  0  0  0
  8 14  1  1  0  0  0
  9 15  1  0  0  0  0
 16 10  1  6  0  0  0
 11 17  1  0  0  0  0
 11 18  1  1  0  0  0
 13 19  1  6  0  0  0
 13 20  1  0  0  0  0
 16 21  1  0  0  0  0
 16 22  1  0  0  0  0
 17 23  1  1  0  0  0
 17 24  1  0  0  0  0
 20 25  1  0  0  0  0
 20 26  1  6  0  0  0
 21 27  1  0  0  0  0
 28 22  1  6  0  0  0
 29 23  1  6  0  0  0
 24 30  1  0  0  0  0
 24 31  1  1  0  0  0
 24 32  1  0  0  0  0
 25 33  1  0  0  0  0
 27 34  1  0  0  0  0
 27 35  1  1  0  0  0
 28 36  1  0  0  0  0
 28 37  1  0  0  0  0
 29 38  1  0  0  0  0
 29 39  1  0  0  0  0
 30 40  1  0  0  0  0
 31 41  1  0  0  0  0
 33 42  2  0  0  0  0
 34 43  1  6  0  0  0
 36 44  1  0  0  0  0
 38 45  1  0  0  0  0
 39 46  1  1  0  0  0
 39 47  1  0  0  0  0
 41 48  1  1  0  0  0
 45 49  1  0  0  0  0
 45 50  1  6  0  0  0
 46 51  1  0  0  0  0
 47 52  1  6  0  0  0
 51 53  2  0  0  0  0
 52 54  1  0  0  0  0
 53 55  1  0  0  0  0
 55 56  2  0  0  0  0
 55 57  1  0  0  0  0
 56 58  1  0  0  0  0
 57 59  2  0  0  0  0
 58 60  2  0  0  0  0
 60 61  1  0  0  0  0
 61 62  1  0  0  0  0
 28 34  1  0  0  0  0
 33 41  1  0  0  0  0
 47 49  1  0  0  0  0
 51 52  1  0  0  0  0
 59 60  1  0  0  0  0
M  END
>  <MolRegNo>
1425679

>  <m>
=

>  <Value>
700

>  <Unit>
nM

>  <Type>
IC50

>  <pValue>
6.16

>  <Ligand Efficiency>
0

>  <Binding Efficiency>
0

>  <Surface Efficiency>
0

>  <Assay Index>
686222

>  <Assay Category>


>  <Assay Organism>
Homo sapiens

>  <Target ID>
17045

>  <Target Name>
Cytochrome P450 3A4

>  <Target Organism>
Homo sapiens

>  <Target Description>
Target is a single protein chain

>  <Sequence Accession>
P08684

>  <Reference>
J Med Chem 55 (13), 6111-6123 (2012)

>  <Pubmed ID>
22697905

>  <DOI>
10.1021/jm300356u

$$$$
1425678
Actelion Java MolfileCreator 1.0

 58 61  0  0  0  0  0  0  0  0999 V2000
    0.0000   -0.0000   -0.0000 O   0  0  0  0  0  0  0  0  0  0  0  0
    1.2725    0.7721   -0.0000 C   0  0  0  0  0  0  0  0  0  0  0  0
    1.2583    2.2877   -0.0000 O   0  0  0  0  0  0  0  0  0  0  0  0
    2.5737    0.0286   -0.0000 C   0  0  0  0  0  0  0  0  0  0  0  0
   -0.0572    3.0455   -0.0000 C   0  0  0  0  0  0  0  0  0  0  0  0
    3.8605    0.8007   -0.0000 C   0  0  0  0  0  0  0  0  0  0  0  0
    2.4307   -1.3726   -0.0000 C   0  0  0  0  0  0  0  0  0  0  0  0
   -0.0715    4.5612   -0.0000 C   0  0  0  0  0  0  0  0  0  0  0  0
   -1.3726    2.3020   -0.0000 C   0  0  0  0  0  0  0  0  0  0  0  0
    5.1331    0.0572   -0.0000 O   0  0  0  0  0  0  0  0  0  0  0  0
    3.8319    2.3163   -0.0000 C   0  0  0  0  0  0  0  0  0  0  0  0
   -1.0295    5.7622   -0.0000 O   0  0  0  0  0  0  0  0  0  0  0  0
    1.2154    5.3333   -0.0000 C   0  0  0  0  0  0  0  0  0  0  0  0
   -1.4155    3.8462   -0.0000 C   0  0  0  0  0  0  0  0  0  0  0  0
   -1.3869    0.8293   -0.0000 C   0  0  0  0  0  0  0  0  0  0  0  0
    5.1617   -1.4298   -0.0000 C   0  0  0  0  0  0  0  0  0  0  0  0
    5.1331    3.0741   -0.0000 C   0  0  0  0  0  0  0  0  0  0  0  0
    2.5165    3.0884   -0.0000 C   0  0  0  0  0  0  0  0  0  0  0  0
    2.5022    4.5898   -0.0000 O   0  0  0  0  0  0  0  0  0  0  0  0
    1.2011    6.8489   -0.0000 C   0  0  0  0  0  0  0  0  0  0  0  0
    3.8462   -2.2019   -0.0000 O   0  0  0  0  0  0  0  0  0  0  0  0
    6.4628   -2.1447   -0.0000 C   0  0  0  0  0  0  0  0  0  0  0  0
    6.4628    2.1304   -0.0000 O   0  0  0  0  0  0  0  0  0  0  0  0
    5.1188    4.5898   -0.0000 C   0  0  0  0  0  0  0  0  0  0  0  0
    1.9303    8.1643   -0.0000 N   0  0  0  0  0  0  0  0  0  0  0  0
   -0.1144    7.6067   -0.0000 C   0  0  0  0  0  0  0  0  0  0  0  0
    3.8891   -3.7033   -0.0000 C   0  0  0  0  0  0  0  0  0  0  0  0
    6.4914   -3.6461   -0.0000 C   0  0  0  0  0  0  0  0  0  0  0  0
    7.5495    3.1313   -0.0000 C   0  0  0  0  0  0  0  0  0  0  0  0
    4.8614    5.9767   -0.0000 O   0  0  0  0  0  0  0  0  0  0  0  0
    3.7891    5.3619   -0.0000 C   0  0  0  0  0  0  0  0  0  0  0  0
    6.4056    3.8605   -0.0000 C   0  0  0  0  0  0  0  0  0  0  0  0
    3.4173    8.1929   -0.0000 C   0  0  0  0  0  0  0  0  0  0  0  0
    5.1903   -4.4039   -0.0000 C   0  0  0  0  0  0  0  0  0  0  0  0
    2.5737   -4.4897   -0.0000 C   0  0  0  0  0  0  0  0  0  0  0  0
    6.5057   -5.1331   -0.0000 O   0  0  0  0  0  0  0  0  0  0  0  0
    7.7640   -2.8454   -0.0000 C   0  0  0  0  0  0  0  0  0  0  0  0
    8.8793    2.4164   -0.0000 O   0  0  0  0  0  0  0  0  0  0  0  0
    7.5066    4.6470   -0.0000 C   0  0  0  0  0  0  0  0  0  0  0  0
    5.3476    7.0777   -0.0000 C   0  0  0  0  0  0  0  0  0  0  0  0
    3.7748    6.8775   -0.0000 C   0  0  0  0  0  0  0  0  0  0  0  0
    4.0464    9.1795   -0.0000 O   0  0  0  0  0  0  0  0  0  0  0  0
    5.2046   -5.8909   -0.0000 O   0  0  0  0  0  0  0  0  0  0  0  0
    7.8069   -5.8480   -0.0000 C   0  0  0  0  0  0  0  0  0  0  0  0
   10.1375    3.2314   -0.0000 C   0  0  0  0  0  0  0  0  0  0  0  0
    6.3484    5.6335   -0.0000 O   0  0  0  0  0  0  0  0  0  0  0  0
    8.7792    5.4477   -0.0000 C   0  0  0  0  0  0  0  0  0  0  0  0
    4.8185    8.2215   -0.0000 C   0  0  0  0  0  0  0  0  0  0  0  0
   10.0803    4.7470   -0.0000 C   0  0  0  0  0  0  0  0  0  0  0  0
   11.4529    2.5308   -0.0000 C   0  0  0  0  0  0  0  0  0  0  0  0
    6.9061    7.0348   -0.0000 C   0  0  0  0  0  0  0  0  0  0  0  0
    8.4074    6.9204   -0.0000 N   0  0  0  0  0  0  0  0  0  0  0  0
    6.2770    8.4503   -0.0000 N   0  0  0  0  0  0  0  0  0  0  0  0
    9.3797    8.0928   -0.0000 C   0  0  0  0  0  0  0  0  0  0  0  0
    5.1474    9.1223   -0.0000 C   0  0  0  0  0  0  0  0  0  0  0  0
    3.9892   10.3377   -0.0000 C   0  0  0  0  0  0  0  0  0  0  0  0
    5.0759   10.9525   -0.0000 C   0  0  0  0  0  0  0  0  0  0  0  0
    6.3627   10.0517   -0.0000 C   0  0  0  0  0  0  0  0  0  0  0  0
  1  2  2  0  0  0  0
  2  3  1  0  0  0  0
  2  4  1  0  0  0  0
  3  5  1  0  0  0  0
  4  6  1  0  0  0  0
  4  7  1  6  0  0  0
  5  8  1  0  0  0  0
  5  9  1  1  0  0  0
  6 10  1  1  0  0  0
  6 11  1  0  0  0  0
  8 12  1  0  0  0  0
  8 13  1  0  0  0  0
  8 14  1  1  0  0  0
  9 15  1  0  0  0  0
 16 10  1  6  0  0  0
 11 17  1  0  0  0  0
 11 18  1  1  0  0  0
 13 19  1  6  0  0  0
 13 20  1  0  0  0  0
 16 21  1  0  0  0  0
 16 22  1  0  0  0  0
 17 23  1  1  0  0  0
 17 24  1  0  0  0  0
 20 25  1  0  0  0  0
 20 26  1  6  0  0  0
 21 27  1  0  0  0  0
 28 22  1  6  0  0  0
 29 23  1  6  0  0  0
 24 30  1  0  0  0  0
 24 31  1  1  0  0  0
 24 32  1  0  0  0  0
 25 33  1  0  0  0  0
 27 34  1  0  0  0  0
 27 35  1  1  0  0  0
 28 36  1  0  0  0  0
 28 37  1  0  0  0  0
 29 38  1  0  0  0  0
 29 39  1  0  0  0  0
 30 40  1  0  0  0  0
 31 41  1  0  0  0  0
 33 42  2  0  0  0  0
 34 43  1  6  0  0  0
 36 44  1  0  0  0  0
 38 45  1  0  0  0  0
 39 46  1  1  0  0  0
 39 47  1  0  0  0  0
 41 48  1  1  0  0  0
 45 49  1  0  0  0  0
 45 50  1  6  0  0  0
 46 51  1  0  0  0  0
 47 52  1  6  0  0  0
 51 53  2  0  0  0  0
 52 54  1  0  0  0  0
 53 55  1  0  0  0  0
 55 56  1  0  0  0  0
 55 57  1  0  0  0  0
 55 58  1  0  0  0  0
 28 34  1  0  0  0  0
 33 41  1  0  0  0  0
 47 49  1  0  0  0  0
 51 52  1  0  0  0  0
M  END
>  <MolRegNo>
1425678

>  <m>
=

>  <Value>
1400

>  <Unit>
nM

>  <Type>
IC50

>  <pValue>
5.85

>  <Ligand Efficiency>
0

>  <Binding Efficiency>
0

>  <Surface Efficiency>
0

>  <Assay Index>
686222

>  <Assay Category>


>  <Assay Organism>
Homo sapiens

>  <Target ID>
17045

>  <Target Name>
Cytochrome P450 3A4

>  <Target Organism>
Homo sapiens

>  <Target Description>
Target is a single protein chain

>  <Sequence Accession>
P08684

>  <Reference>
J Med Chem 55 (13), 6111-6123 (2012)

>  <Pubmed ID>
22697905

>  <DOI>
10.1021/jm300356u

$$$$
1425677
Actelion Java MolfileCreator 1.0

 55 58  0  0  0  0  0  0  0  0999 V2000
    0.0000   -0.0000   -0.0000 O   0  0  0  0  0  0  0  0  0  0  0  0
    1.2716    0.7656   -0.0000 C   0  0  0  0  0  0  0  0  0  0  0  0
    1.2587    2.2708   -0.0000 O   0  0  0  0  0  0  0  0  0  0  0  0
    2.5692    0.0260   -0.0000 C   0  0  0  0  0  0  0  0  0  0  0  0
   -0.0519    3.0234   -0.0000 C   0  0  0  0  0  0  0  0  0  0  0  0
    3.8539    0.7915   -0.0000 C   0  0  0  0  0  0  0  0  0  0  0  0
    2.5563   -1.4533   -0.0000 C   0  0  0  0  0  0  0  0  0  0  0  0
   -0.0649    4.5286   -0.0000 C   0  0  0  0  0  0  0  0  0  0  0  0
   -1.3625    2.2838   -0.0000 C   0  0  0  0  0  0  0  0  0  0  0  0
    5.1125    0.0519   -0.0000 O   0  0  0  0  0  0  0  0  0  0  0  0
    3.8279    2.2967   -0.0000 C   0  0  0  0  0  0  0  0  0  0  0  0
   -1.0121    5.7224   -0.0000 O   0  0  0  0  0  0  0  0  0  0  0  0
    1.2197    5.2942   -0.0000 C   0  0  0  0  0  0  0  0  0  0  0  0
   -1.4014    3.8149   -0.0000 C   0  0  0  0  0  0  0  0  0  0  0  0
   -1.3755    0.8175   -0.0000 C   0  0  0  0  0  0  0  0  0  0  0  0
    5.1515   -1.4274   -0.0000 C   0  0  0  0  0  0  0  0  0  0  0  0
    5.1255    3.0494   -0.0000 C   0  0  0  0  0  0  0  0  0  0  0  0
    2.5173    3.0623   -0.0000 C   0  0  0  0  0  0  0  0  0  0  0  0
    2.5044    4.5546   -0.0000 O   0  0  0  0  0  0  0  0  0  0  0  0
    1.2068    6.7994   -0.0000 C   0  0  0  0  0  0  0  0  0  0  0  0
    3.8409   -2.2059   -0.0000 O   0  0  0  0  0  0  0  0  0  0  0  0
    6.4491   -2.1410   -0.0000 C   0  0  0  0  0  0  0  0  0  0  0  0
    6.4101    2.3227   -0.0000 O   0  0  0  0  0  0  0  0  0  0  0  0
    5.1125    4.5546   -0.0000 C   0  0  0  0  0  0  0  0  0  0  0  0
    2.4914    7.5520   -0.0000 C   0  0  0  0  0  0  0  0  0  0  0  0
   -0.1038    7.5520   -0.0000 C   0  0  0  0  0  0  0  0  0  0  0  0
    3.8928   -3.6981   -0.0000 C   0  0  0  0  0  0  0  0  0  0  0  0
    6.4880   -3.6333   -0.0000 C   0  0  0  0  0  0  0  0  0  0  0  0
    7.7077    3.0364   -0.0000 C   0  0  0  0  0  0  0  0  0  0  0  0
    5.0866    6.2155   -0.0000 O   0  0  0  0  0  0  0  0  0  0  0  0
    3.7890    5.3201   -0.0000 C   0  0  0  0  0  0  0  0  0  0  0  0
    6.3971    3.8279   -0.0000 C   0  0  0  0  0  0  0  0  0  0  0  0
    2.4784    9.0702   -0.0000 O   0  0  0  0  0  0  0  0  0  0  0  0
    3.7760    6.8254   -0.0000 C   0  0  0  0  0  0  0  0  0  0  0  0
    5.1904   -4.3989   -0.0000 C   0  0  0  0  0  0  0  0  0  0  0  0
    2.5952   -4.4767   -0.0000 C   0  0  0  0  0  0  0  0  0  0  0  0
    6.5010   -5.1125   -0.0000 O   0  0  0  0  0  0  0  0  0  0  0  0
    7.7466   -2.8417   -0.0000 C   0  0  0  0  0  0  0  0  0  0  0  0
    8.9794    2.2319   -0.0000 O   0  0  0  0  0  0  0  0  0  0  0  0
    7.7466    4.5416   -0.0000 C   0  0  0  0  0  0  0  0  0  0  0  0
    5.2293    7.6428   -0.0000 C   0  0  0  0  0  0  0  0  0  0  0  0
    5.2034   -5.8781   -0.0000 O   0  0  0  0  0  0  0  0  0  0  0  0
    7.7986   -5.8262   -0.0000 C   0  0  0  0  0  0  0  0  0  0  0  0
   10.2770    2.9715   -0.0000 C   0  0  0  0  0  0  0  0  0  0  0  0
    6.6567    5.5926   -0.0000 O   0  0  0  0  0  0  0  0  0  0  0  0
    9.0572    5.2553   -0.0000 C   0  0  0  0  0  0  0  0  0  0  0  0
   10.3159    4.4767   -0.0000 C   0  0  0  0  0  0  0  0  0  0  0  0
   11.5356    2.1929   -0.0000 C   0  0  0  0  0  0  0  0  0  0  0  0
    7.3055    6.9421   -0.0000 C   0  0  0  0  0  0  0  0  0  0  0  0
    8.7718    6.7345   -0.0000 N   0  0  0  0  0  0  0  0  0  0  0  0
    6.5788    8.2787   -0.0000 N   0  0  0  0  0  0  0  0  0  0  0  0
    9.8098    7.8375   -0.0000 C   0  0  0  0  0  0  0  0  0  0  0  0
    5.1774    8.9275   -0.0000 C   0  0  0  0  0  0  0  0  0  0  0  0
    3.9836    8.6031   -0.0000 C   0  0  0  0  0  0  0  0  0  0  0  0
    5.2163   10.5105   -0.0000 C   0  0  0  0  0  0  0  0  0  0  0  0
  1  2  2  0  0  0  0
  2  3  1  0  0  0  0
  2  4  1  0  0  0  0
  3  5  1  0  0  0  0
  4  6  1  0  0  0  0
  4  7  1  6  0  0  0
  5  8  1  0  0  0  0
  5  9  1  1  0  0  0
  6 10  1  1  0  0  0
  6 11  1  0  0  0  0
  8 12  1  0  0  0  0
  8 13  1  0  0  0  0
  8 14  1  1  0  0  0
  9 15  1  0  0  0  0
 16 10  1  6  0  0  0
 11 17  1  0  0  0  0
 11 18  1  1  0  0  0
 13 19  1  6  0  0  0
 13 20  1  0  0  0  0
 16 21  1  0  0  0  0
 16 22  1  0  0  0  0
 17 23  1  1  0  0  0
 17 24  1  0  0  0  0
 20 25  1  0  0  0  0
 20 26  1  6  0  0  0
 21 27  1  0  0  0  0
 28 22  1  6  0  0  0
 29 23  1  6  0  0  0
 24 30  1  6  0  0  0
 24 31  1  0  0  0  0
 24 32  1  0  0  0  0
 25 33  2  0  0  0  0
 25 34  1  0  0  0  0
 27 35  1  0  0  0  0
 27 36  1  1  0  0  0
 28 37  1  0  0  0  0
 28 38  1  0  0  0  0
 29 39  1  0  0  0  0
 29 40  1  0  0  0  0
 34 41  1  1  0  0  0
 35 42  1  6  0  0  0
 37 43  1  0  0  0  0
 39 44  1  0  0  0  0
 40 45  1  1  0  0  0
 40 46  1  0  0  0  0
 44 47  1  0  0  0  0
 44 48  1  6  0  0  0
 45 49  1  0  0  0  0
 46 50  1  6  0  0  0
 49 51  2  0  0  0  0
 50 52  1  0  0  0  0
 51 53  1  0  0  0  0
 53 54  1  0  0  0  0
 53 55  1  0  0  0  0
 28 35  1  0  0  0  0
 31 34  1  0  0  0  0
 46 47  1  0  0  0  0
 49 50  1  0  0  0  0
M  END
>  <MolRegNo>
1425677

>  <m>
=

>  <Value>
1100

>  <Unit>
nM

>  <Type>
IC50

>  <pValue>
5.96

>  <Ligand Efficiency>
0

>  <Binding Efficiency>
0

>  <Surface Efficiency>
0

>  <Assay Index>
686222

>  <Assay Category>


>  <Assay Organism>
Homo sapiens

>  <Target ID>
17045

>  <Target Name>
Cytochrome P450 3A4

>  <Target Organism>
Homo sapiens

>  <Target Description>
Target is a single protein chain

>  <Sequence Accession>
P08684

>  <Reference>
J Med Chem 55 (13), 6111-6123 (2012)

>  <Pubmed ID>
22697905

>  <DOI>
10.1021/jm300356u

$$$$
1425676
Actelion Java MolfileCreator 1.0

 57 60  0  0  0  0  0  0  0  0999 V2000
    0.0000   -0.0000   -0.0000 O   0  0  0  0  0  0  0  0  0  0  0  0
    1.2646    0.7687   -0.0000 C   0  0  0  0  0  0  0  0  0  0  0  0
    1.2522    2.2812   -0.0000 O   0  0  0  0  0  0  0  0  0  0  0  0
    2.5540    0.0248   -0.0000 C   0  0  0  0  0  0  0  0  0  0  0  0
   -0.0496    3.0251   -0.0000 C   0  0  0  0  0  0  0  0  0  0  0  0
    3.8434    0.7935   -0.0000 C   0  0  0  0  0  0  0  0  0  0  0  0
    2.5416   -1.4630   -0.0000 C   0  0  0  0  0  0  0  0  0  0  0  0
   -0.0620    4.5377   -0.0000 C   0  0  0  0  0  0  0  0  0  0  0  0
   -1.3514    2.2812   -0.0000 C   0  0  0  0  0  0  0  0  0  0  0  0
    5.1080    0.0496   -0.0000 O   0  0  0  0  0  0  0  0  0  0  0  0
    3.8062    2.3060   -0.0000 C   0  0  0  0  0  0  0  0  0  0  0  0
   -1.0042    5.7279   -0.0000 O   0  0  0  0  0  0  0  0  0  0  0  0
    1.2150    5.3063   -0.0000 C   0  0  0  0  0  0  0  0  0  0  0  0
   -1.3886    3.8186   -0.0000 C   0  0  0  0  0  0  0  0  0  0  0  0
   -1.3638    0.8183   -0.0000 C   0  0  0  0  0  0  0  0  0  0  0  0
    5.1452   -1.4382   -0.0000 C   0  0  0  0  0  0  0  0  0  0  0  0
    5.1080    3.0499   -0.0000 C   0  0  0  0  0  0  0  0  0  0  0  0
    2.5044    3.0747   -0.0000 C   0  0  0  0  0  0  0  0  0  0  0  0
    2.4920    4.5625   -0.0000 O   0  0  0  0  0  0  0  0  0  0  0  0
    1.2026    6.8189   -0.0000 C   0  0  0  0  0  0  0  0  0  0  0  0
    3.8434   -2.2068   -0.0000 O   0  0  0  0  0  0  0  0  0  0  0  0
    6.4470   -2.1449   -0.0000 C   0  0  0  0  0  0  0  0  0  0  0  0
    6.3850    2.3308   -0.0000 O   0  0  0  0  0  0  0  0  0  0  0  0
    5.0956    4.5625   -0.0000 C   0  0  0  0  0  0  0  0  0  0  0  0
    1.9217    8.1207   -0.0000 C   0  0  0  0  0  0  0  0  0  0  0  0
   -0.0992    7.5752   -0.0000 C   0  0  0  0  0  0  0  0  0  0  0  0
    3.8930   -3.6946   -0.0000 C   0  0  0  0  0  0  0  0  0  0  0  0
    6.4841   -3.6326   -0.0000 C   0  0  0  0  0  0  0  0  0  0  0  0
    7.6868    3.0499   -0.0000 C   0  0  0  0  0  0  0  0  0  0  0  0
    5.0460    5.6907   -0.0000 O   0  0  0  0  0  0  0  0  0  0  0  0
    3.7690    5.3311   -0.0000 C   0  0  0  0  0  0  0  0  0  0  0  0
    6.3726    3.8310   -0.0000 C   0  0  0  0  0  0  0  0  0  0  0  0
    1.1530    9.4101   -0.0000 O   0  0  0  0  0  0  0  0  0  0  0  0
    3.3970    8.1455   -0.0000 N   0  0  0  0  0  0  0  0  0  0  0  0
    5.1948   -4.3889   -0.0000 C   0  0  0  0  0  0  0  0  0  0  0  0
    2.5912   -4.4757   -0.0000 C   0  0  0  0  0  0  0  0  0  0  0  0
    6.4965   -5.1204   -0.0000 O   0  0  0  0  0  0  0  0  0  0  0  0
    7.7487   -2.8391   -0.0000 C   0  0  0  0  0  0  0  0  0  0  0  0
    8.9637    2.2440   -0.0000 O   0  0  0  0  0  0  0  0  0  0  0  0
    7.7363    4.5625   -0.0000 C   0  0  0  0  0  0  0  0  0  0  0  0
    5.4799    7.2280   -0.0000 C   0  0  0  0  0  0  0  0  0  0  0  0
    3.7566    6.8437   -0.0000 C   0  0  0  0  0  0  0  0  0  0  0  0
    5.2072   -5.8766   -0.0000 O   0  0  0  0  0  0  0  0  0  0  0  0
    7.7983   -5.8271   -0.0000 C   0  0  0  0  0  0  0  0  0  0  0  0
   10.2655    2.9755   -0.0000 C   0  0  0  0  0  0  0  0  0  0  0  0
    6.6453    5.6163   -0.0000 O   0  0  0  0  0  0  0  0  0  0  0  0
    9.0381    5.2815   -0.0000 C   0  0  0  0  0  0  0  0  0  0  0  0
    4.8476    8.4306   -0.0000 C   0  0  0  0  0  0  0  0  0  0  0  0
   10.3027    4.4881   -0.0000 C   0  0  0  0  0  0  0  0  0  0  0  0
   11.5301    2.1944   -0.0000 C   0  0  0  0  0  0  0  0  0  0  0  0
    7.2900    6.9677   -0.0000 C   0  0  0  0  0  0  0  0  0  0  0  0
    8.7530    6.7569   -0.0000 N   0  0  0  0  0  0  0  0  0  0  0  0
    6.5709    8.3067   -0.0000 N   0  0  0  0  0  0  0  0  0  0  0  0
    9.7820    7.8479   -0.0000 C   0  0  0  0  0  0  0  0  0  0  0  0
    5.2196    9.3729   -0.0000 C   0  0  0  0  0  0  0  0  0  0  0  0
    5.1576   10.7367   -0.0000 C   0  0  0  0  0  0  0  0  0  0  0  0
    3.6822    9.8440   -0.0000 C   0  0  0  0  0  0  0  0  0  0  0  0
  1  2  2  0  0  0  0
  2  3  1  0  0  0  0
  2  4  1  0  0  0  0
  3  5  1  0  0  0  0
  4  6  1  0  0  0  0
  4  7  1  6  0  0  0
  5  8  1  0  0  0  0
  5  9  1  1  0  0  0
  6 10  1  1  0  0  0
  6 11  1  0  0  0  0
  8 12  1  0  0  0  0
  8 13  1  0  0  0  0
  8 14  1  1  0  0  0
  9 15  1  0  0  0  0
 16 10  1  6  0  0  0
 11 17  1  0  0  0  0
 11 18  1  1  0  0  0
 13 19  1  6  0  0  0
 13 20  1  0  0  0  0
 16 21  1  0  0  0  0
 16 22  1  0  0  0  0
 17 23  1  1  0  0  0
 17 24  1  0  0  0  0
 20 25  1  0  0  0  0
 20 26  1  6  0  0  0
 21 27  1  0  0  0  0
 28 22  1  6  0  0  0
 29 23  1  6  0  0  0
 24 30  1  6  0  0  0
 24 31  1  0  0  0  0
 24 32  1  0  0  0  0
 25 33  2  0  0  0  0
 25 34  1  0  0  0  0
 27 35  1  0  0  0  0
 27 36  1  1  0  0  0
 28 37  1  0  0  0  0
 28 38  1  0  0  0  0
 29 39  1  0  0  0  0
 29 40  1  0  0  0  0
 30 41  1  0  0  0  0
 31 42  1  0  0  0  0
 35 43  1  6  0  0  0
 37 44  1  0  0  0  0
 39 45  1  0  0  0  0
 40 46  1  1  0  0  0
 40 47  1  0  0  0  0
 42 48  1  1  0  0  0
 45 49  1  0  0  0  0
 45 50  1  6  0  0  0
 46 51  1  0  0  0  0
 47 52  1  6  0  0  0
 51 53  2  0  0  0  0
 52 54  1  0  0  0  0
 53 55  1  0  0  0  0
 55 56  1  0  0  0  0
 55 57  1  0  0  0  0
 28 35  1  0  0  0  0
 34 42  1  0  0  0  0
 47 49  1  0  0  0  0
 51 52  1  0  0  0  0
M  END
>  <MolRegNo>
1425676

>  <m>
=

>  <Value>
1000

>  <Unit>
nM

>  <Type>
IC50

>  <pValue>
6

>  <Ligand Efficiency>
0

>  <Binding Efficiency>
0

>  <Surface Efficiency>
0

>  <Assay Index>
686222

>  <Assay Category>


>  <Assay Organism>
Homo sapiens

>  <Target ID>
17045

>  <Target Name>
Cytochrome P450 3A4

>  <Target Organism>
Homo sapiens

>  <Target Description>
Target is a single protein chain

>  <Sequence Accession>
P08684

>  <Reference>
J Med Chem 55 (13), 6111-6123 (2012)

>  <Pubmed ID>
22697905

>  <DOI>
10.1021/jm300356u

$$$$
1425675
Actelion Java MolfileCreator 1.0

 56 59  0  0  0  0  0  0  0  0999 V2000
    0.0000   -0.0000   -0.0000 O   0  0  0  0  0  0  0  0  0  0  0  0
    1.2751    0.7625   -0.0000 C   0  0  0  0  0  0  0  0  0  0  0  0
    1.2626    2.2751   -0.0000 O   0  0  0  0  0  0  0  0  0  0  0  0
    2.5752    0.0250   -0.0000 C   0  0  0  0  0  0  0  0  0  0  0  0
   -0.0500    3.0252   -0.0000 C   0  0  0  0  0  0  0  0  0  0  0  0
    3.8627    0.7875   -0.0000 C   0  0  0  0  0  0  0  0  0  0  0  0
    2.5626   -1.4626   -0.0000 C   0  0  0  0  0  0  0  0  0  0  0  0
   -0.0625    4.5378   -0.0000 C   0  0  0  0  0  0  0  0  0  0  0  0
   -1.3626    2.2876   -0.0000 C   0  0  0  0  0  0  0  0  0  0  0  0
    5.1253    0.0500   -0.0000 O   0  0  0  0  0  0  0  0  0  0  0  0
    3.8252    2.3001   -0.0000 C   0  0  0  0  0  0  0  0  0  0  0  0
   -1.0126    5.7378   -0.0000 O   0  0  0  0  0  0  0  0  0  0  0  0
    1.2251    5.3003   -0.0000 C   0  0  0  0  0  0  0  0  0  0  0  0
   -1.4001    3.8127   -0.0000 C   0  0  0  0  0  0  0  0  0  0  0  0
   -1.3751    0.8125   -0.0000 C   0  0  0  0  0  0  0  0  0  0  0  0
    5.1628   -1.4376   -0.0000 C   0  0  0  0  0  0  0  0  0  0  0  0
    5.1253    3.0502   -0.0000 C   0  0  0  0  0  0  0  0  0  0  0  0
    2.5126    3.0627   -0.0000 C   0  0  0  0  0  0  0  0  0  0  0  0
    2.5126    4.5628   -0.0000 O   0  0  0  0  0  0  0  0  0  0  0  0
    1.2126    6.8129   -0.0000 C   0  0  0  0  0  0  0  0  0  0  0  0
    3.8502   -2.2126   -0.0000 O   0  0  0  0  0  0  0  0  0  0  0  0
    6.4754   -2.1501   -0.0000 C   0  0  0  0  0  0  0  0  0  0  0  0
    6.4129    2.3251   -0.0000 O   0  0  0  0  0  0  0  0  0  0  0  0
    5.1128    4.5628   -0.0000 C   0  0  0  0  0  0  0  0  0  0  0  0
    1.9376    8.1255   -0.0000 N   0  0  0  0  0  0  0  0  0  0  0  0
   -0.1000    7.5754   -0.0000 C   0  0  0  0  0  0  0  0  0  0  0  0
    3.9002   -3.7127   -0.0000 C   0  0  0  0  0  0  0  0  0  0  0  0
    6.5129   -3.6502   -0.0000 C   0  0  0  0  0  0  0  0  0  0  0  0
    7.7255    3.0502   -0.0000 C   0  0  0  0  0  0  0  0  0  0  0  0
    5.0878    6.1629   -0.0000 O   0  0  0  0  0  0  0  0  0  0  0  0
    3.7877    5.3253   -0.0000 C   0  0  0  0  0  0  0  0  0  0  0  0
    6.4004    3.8252   -0.0000 C   0  0  0  0  0  0  0  0  0  0  0  0
    3.4252    8.1505   -0.0000 C   0  0  0  0  0  0  0  0  0  0  0  0
    1.1626    9.4255   -0.0000 C   0  0  0  0  0  0  0  0  0  0  0  0
    5.2128   -4.4128   -0.0000 C   0  0  0  0  0  0  0  0  0  0  0  0
    2.5877   -4.5003   -0.0000 C   0  0  0  0  0  0  0  0  0  0  0  0
    6.5254   -5.1378   -0.0000 O   0  0  0  0  0  0  0  0  0  0  0  0
    7.7755   -2.8502   -0.0000 C   0  0  0  0  0  0  0  0  0  0  0  0
    9.0005    2.2501   -0.0000 O   0  0  0  0  0  0  0  0  0  0  0  0
    7.7755    4.5628   -0.0000 C   0  0  0  0  0  0  0  0  0  0  0  0
    3.7752    6.8379   -0.0000 C   0  0  0  0  0  0  0  0  0  0  0  0
    5.2253   -5.9003   -0.0000 O   0  0  0  0  0  0  0  0  0  0  0  0
    7.8380   -5.8503   -0.0000 C   0  0  0  0  0  0  0  0  0  0  0  0
   10.3131    2.9877   -0.0000 C   0  0  0  0  0  0  0  0  0  0  0  0
    6.6754    5.6253   -0.0000 O   0  0  0  0  0  0  0  0  0  0  0  0
    9.0880    5.2878   -0.0000 C   0  0  0  0  0  0  0  0  0  0  0  0
    5.2378    7.6504   -0.0000 C   0  0  0  0  0  0  0  0  0  0  0  0
   10.3506    4.5003   -0.0000 C   0  0  0  0  0  0  0  0  0  0  0  0
   11.5757    2.2001   -0.0000 C   0  0  0  0  0  0  0  0  0  0  0  0
    7.3254    6.9879   -0.0000 C   0  0  0  0  0  0  0  0  0  0  0  0
    8.8130    6.7754   -0.0000 N   0  0  0  0  0  0  0  0  0  0  0  0
    6.6004    8.3380   -0.0000 N   0  0  0  0  0  0  0  0  0  0  0  0
    9.8506    7.8755   -0.0000 C   0  0  0  0  0  0  0  0  0  0  0  0
    5.2003    9.0380   -0.0000 C   0  0  0  0  0  0  0  0  0  0  0  0
    3.8752    9.0005   -0.0000 C   0  0  0  0  0  0  0  0  0  0  0  0
    5.2378   10.3506   -0.0000 C   0  0  0  0  0  0  0  0  0  0  0  0
  1  2  2  0  0  0  0
  2  3  1  0  0  0  0
  2  4  1  0  0  0  0
  3  5  1  0  0  0  0
  4  6  1  0  0  0  0
  4  7  1  6  0  0  0
  5  8  1  0  0  0  0
  5  9  1  1  0  0  0
  6 10  1  1  0  0  0
  6 11  1  0  0  0  0
  8 12  1  0  0  0  0
  8 13  1  0  0  0  0
  8 14  1  1  0  0  0
  9 15  1  0  0  0  0
 16 10  1  6  0  0  0
 11 17  1  0  0  0  0
 11 18  1  1  0  0  0
 13 19  1  6  0  0  0
 13 20  1  0  0  0  0
 16 21  1  0  0  0  0
 16 22  1  0  0  0  0
 17 23  1  1  0  0  0
 17 24  1  0  0  0  0
 20 25  1  0  0  0  0
 20 26  1  6  0  0  0
 21 27  1  0  0  0  0
 28 22  1  6  0  0  0
 29 23  1  6  0  0  0
 24 30  1  6  0  0  0
 24 31  1  0  0  0  0
 24 32  1  0  0  0  0
 25 33  1  0  0  0  0
 25 34  1  0  0  0  0
 27 35  1  0  0  0  0
 27 36  1  1  0  0  0
 28 37  1  0  0  0  0
 28 38  1  0  0  0  0
 29 39  1  0  0  0  0
 29 40  1  0  0  0  0
 31 41  1  0  0  0  0
 35 42  1  6  0  0  0
 37 43  1  0  0  0  0
 39 44  1  0  0  0  0
 40 45  1  1  0  0  0
 40 46  1  0  0  0  0
 41 47  1  1  0  0  0
 44 48  1  0  0  0  0
 44 49  1  6  0  0  0
 45 50  1  0  0  0  0
 46 51  1  6  0  0  0
 50 52  2  0  0  0  0
 51 53  1  0  0  0  0
 52 54  1  0  0  0  0
 54 55  1  0  0  0  0
 54 56  1  0  0  0  0
 28 35  1  0  0  0  0
 33 41  1  0  0  0  0
 46 48  1  0  0  0  0
 50 51  1  0  0  0  0
M  END
>  <MolRegNo>
1425675

>  <m>
=

>  <Value>
7800

>  <Unit>
nM

>  <Type>
IC50

>  <pValue>
5.11

>  <Ligand Efficiency>
0

>  <Binding Efficiency>
0

>  <Surface Efficiency>
0

>  <Assay Index>
686222

>  <Assay Category>


>  <Assay Organism>
Homo sapiens

>  <Target ID>
17045

>  <Target Name>
Cytochrome P450 3A4

>  <Target Organism>
Homo sapiens

>  <Target Description>
Target is a single protein chain

>  <Sequence Accession>
P08684

>  <Reference>
J Med Chem 55 (13), 6111-6123 (2012)

>  <Pubmed ID>
22697905

>  <DOI>
10.1021/jm300356u

$$$$
1425683
Actelion Java MolfileCreator 1.0

 54 57  0  0  0  0  0  0  0  0999 V2000
    0.0000   -0.0000   -0.0000 O   0  0  0  0  0  0  0  0  0  0  0  0
    1.2692    0.7641   -0.0000 C   0  0  0  0  0  0  0  0  0  0  0  0
    1.2563    2.2665   -0.0000 O   0  0  0  0  0  0  0  0  0  0  0  0
    2.5644    0.0259   -0.0000 C   0  0  0  0  0  0  0  0  0  0  0  0
   -0.0518    3.0177   -0.0000 C   0  0  0  0  0  0  0  0  0  0  0  0
    3.8466    0.7900   -0.0000 C   0  0  0  0  0  0  0  0  0  0  0  0
    2.5514   -1.4506   -0.0000 C   0  0  0  0  0  0  0  0  0  0  0  0
   -0.0648    4.5200   -0.0000 C   0  0  0  0  0  0  0  0  0  0  0  0
   -1.3599    2.2794   -0.0000 C   0  0  0  0  0  0  0  0  0  0  0  0
    5.1028    0.0518   -0.0000 O   0  0  0  0  0  0  0  0  0  0  0  0
    3.8206    2.2924   -0.0000 C   0  0  0  0  0  0  0  0  0  0  0  0
   -1.0102    5.7115   -0.0000 O   0  0  0  0  0  0  0  0  0  0  0  0
    1.2174    5.2842   -0.0000 C   0  0  0  0  0  0  0  0  0  0  0  0
   -1.3987    3.8077   -0.0000 C   0  0  0  0  0  0  0  0  0  0  0  0
   -1.3728    0.8159   -0.0000 C   0  0  0  0  0  0  0  0  0  0  0  0
    5.1417   -1.4246   -0.0000 C   0  0  0  0  0  0  0  0  0  0  0  0
    5.1158    3.0436   -0.0000 C   0  0  0  0  0  0  0  0  0  0  0  0
    2.5126    3.0565   -0.0000 C   0  0  0  0  0  0  0  0  0  0  0  0
    2.4996    4.5459   -0.0000 O   0  0  0  0  0  0  0  0  0  0  0  0
    1.2045    6.7865   -0.0000 C   0  0  0  0  0  0  0  0  0  0  0  0
    3.8336   -2.2017   -0.0000 O   0  0  0  0  0  0  0  0  0  0  0  0
    6.4368   -2.1370   -0.0000 C   0  0  0  0  0  0  0  0  0  0  0  0
    6.3980    2.3183   -0.0000 O   0  0  0  0  0  0  0  0  0  0  0  0
    5.1028    4.5459   -0.0000 C   0  0  0  0  0  0  0  0  0  0  0  0
    2.4867    7.5377   -0.0000 C   0  0  0  0  0  0  0  0  0  0  0  0
   -0.1036    7.5377   -0.0000 C   0  0  0  0  0  0  0  0  0  0  0  0
    3.8854   -3.6911   -0.0000 C   0  0  0  0  0  0  0  0  0  0  0  0
    6.4757   -3.6264   -0.0000 C   0  0  0  0  0  0  0  0  0  0  0  0
    7.6931    3.0306   -0.0000 C   0  0  0  0  0  0  0  0  0  0  0  0
    5.0769    6.2037   -0.0000 O   0  0  0  0  0  0  0  0  0  0  0  0
    3.7818    5.3101   -0.0000 C   0  0  0  0  0  0  0  0  0  0  0  0
    6.3850    3.8206   -0.0000 C   0  0  0  0  0  0  0  0  0  0  0  0
    2.4737    9.0530   -0.0000 O   0  0  0  0  0  0  0  0  0  0  0  0
    3.7688    6.8124   -0.0000 C   0  0  0  0  0  0  0  0  0  0  0  0
    5.1805   -4.3905   -0.0000 C   0  0  0  0  0  0  0  0  0  0  0  0
    2.5903   -4.4682   -0.0000 C   0  0  0  0  0  0  0  0  0  0  0  0
    6.4886   -5.1028   -0.0000 O   0  0  0  0  0  0  0  0  0  0  0  0
    7.7320   -2.8363   -0.0000 C   0  0  0  0  0  0  0  0  0  0  0  0
    8.9623    2.2276   -0.0000 O   0  0  0  0  0  0  0  0  0  0  0  0
    7.7320    4.5330   -0.0000 C   0  0  0  0  0  0  0  0  0  0  0  0
    5.2194    7.6283   -0.0000 C   0  0  0  0  0  0  0  0  0  0  0  0
    5.1935   -5.8670   -0.0000 O   0  0  0  0  0  0  0  0  0  0  0  0
    7.7838   -5.8152   -0.0000 C   0  0  0  0  0  0  0  0  0  0  0  0
   10.2575    2.9659   -0.0000 C   0  0  0  0  0  0  0  0  0  0  0  0
    6.6440    5.5820   -0.0000 O   0  0  0  0  0  0  0  0  0  0  0  0
    9.0400    5.2453   -0.0000 C   0  0  0  0  0  0  0  0  0  0  0  0
   10.2963    4.4682   -0.0000 C   0  0  0  0  0  0  0  0  0  0  0  0
   11.5138    2.1888   -0.0000 C   0  0  0  0  0  0  0  0  0  0  0  0
    7.2916    6.9290   -0.0000 C   0  0  0  0  0  0  0  0  0  0  0  0
    8.7551    6.7218   -0.0000 N   0  0  0  0  0  0  0  0  0  0  0  0
    6.5663    8.2630   -0.0000 N   0  0  0  0  0  0  0  0  0  0  0  0
    9.7912    7.8226   -0.0000 C   0  0  0  0  0  0  0  0  0  0  0  0
    5.0640    8.3148   -0.0000 C   0  0  0  0  0  0  0  0  0  0  0  0
    4.3387    9.6488   -0.0000 C   0  0  0  0  0  0  0  0  0  0  0  0
  1  2  2  0  0  0  0
  2  3  1  0  0  0  0
  2  4  1  0  0  0  0
  3  5  1  0  0  0  0
  4  6  1  0  0  0  0
  4  7  1  6  0  0  0
  5  8  1  0  0  0  0
  5  9  1  1  0  0  0
  6 10  1  1  0  0  0
  6 11  1  0  0  0  0
  8 12  1  0  0  0  0
  8 13  1  0  0  0  0
  8 14  1  1  0  0  0
  9 15  1  0  0  0  0
 16 10  1  6  0  0  0
 11 17  1  0  0  0  0
 11 18  1  1  0  0  0
 13 19  1  6  0  0  0
 13 20  1  0  0  0  0
 16 21  1  0  0  0  0
 16 22  1  0  0  0  0
 17 23  1  1  0  0  0
 17 24  1  0  0  0  0
 20 25  1  0  0  0  0
 20 26  1  6  0  0  0
 21 27  1  0  0  0  0
 28 22  1  6  0  0  0
 29 23  1  6  0  0  0
 24 30  1  6  0  0  0
 24 31  1  0  0  0  0
 24 32  1  0  0  0  0
 25 33  2  0  0  0  0
 25 34  1  0  0  0  0
 27 35  1  0  0  0  0
 27 36  1  1  0  0  0
 28 37  1  0  0  0  0
 28 38  1  0  0  0  0
 29 39  1  0  0  0  0
 29 40  1  0  0  0  0
 34 41  1  1  0  0  0
 35 42  1  6  0  0  0
 37 43  1  0  0  0  0
 39 44  1  0  0  0  0
 40 45  1  1  0  0  0
 40 46  1  0  0  0  0
 44 47  1  0  0  0  0
 44 48  1  6  0  0  0
 45 49  1  0  0  0  0
 46 50  1  6  0  0  0
 49 51  2  0  0  0  0
 50 52  1  0  0  0  0
 51 53  1  0  0  0  0
 53 54  1  0  0  0  0
 28 35  1  0  0  0  0
 31 34  1  0  0  0  0
 46 47  1  0  0  0  0
 49 50  1  0  0  0  0
M  END
>  <MolRegNo>
1425683

>  <m>
=

>  <Value>
500

>  <Unit>
nM

>  <Type>
IC50

>  <pValue>
6.3

>  <Ligand Efficiency>
0

>  <Binding Efficiency>
0

>  <Surface Efficiency>
0

>  <Assay Index>
686222

>  <Assay Category>


>  <Assay Organism>
Homo sapiens

>  <Target ID>
17045

>  <Target Name>
Cytochrome P450 3A4

>  <Target Organism>
Homo sapiens

>  <Target Description>
Target is a single protein chain

>  <Sequence Accession>
P08684

>  <Reference>
J Med Chem 55 (13), 6111-6123 (2012)

>  <Pubmed ID>
22697905

>  <DOI>
10.1021/jm300356u

$$$$
1425682
Actelion Java MolfileCreator 1.0

 55 58  0  0  0  0  0  0  0  0999 V2000
    0.0000   -0.0000   -0.0000 O   0  0  0  0  0  0  0  0  0  0  0  0
    1.2702    0.7597   -0.0000 C   0  0  0  0  0  0  0  0  0  0  0  0
    1.2578    2.2665   -0.0000 O   0  0  0  0  0  0  0  0  0  0  0  0
    2.5654    0.0249   -0.0000 C   0  0  0  0  0  0  0  0  0  0  0  0
   -0.0498    3.0137   -0.0000 C   0  0  0  0  0  0  0  0  0  0  0  0
    3.8481    0.7846   -0.0000 C   0  0  0  0  0  0  0  0  0  0  0  0
    2.5529   -1.4570   -0.0000 C   0  0  0  0  0  0  0  0  0  0  0  0
   -0.0623    4.5206   -0.0000 C   0  0  0  0  0  0  0  0  0  0  0  0
   -1.3574    2.2790   -0.0000 C   0  0  0  0  0  0  0  0  0  0  0  0
    5.1059    0.0498   -0.0000 O   0  0  0  0  0  0  0  0  0  0  0  0
    3.8107    2.2914   -0.0000 C   0  0  0  0  0  0  0  0  0  0  0  0
   -1.0087    5.7161   -0.0000 O   0  0  0  0  0  0  0  0  0  0  0  0
    1.2204    5.2802   -0.0000 C   0  0  0  0  0  0  0  0  0  0  0  0
   -1.3948    3.7983   -0.0000 C   0  0  0  0  0  0  0  0  0  0  0  0
   -1.3699    0.8095   -0.0000 C   0  0  0  0  0  0  0  0  0  0  0  0
    5.1432   -1.4321   -0.0000 C   0  0  0  0  0  0  0  0  0  0  0  0
    5.1059    3.0386   -0.0000 C   0  0  0  0  0  0  0  0  0  0  0  0
    2.5031    3.0511   -0.0000 C   0  0  0  0  0  0  0  0  0  0  0  0
    2.5031    4.5455   -0.0000 O   0  0  0  0  0  0  0  0  0  0  0  0
    1.2080    6.7871   -0.0000 C   0  0  0  0  0  0  0  0  0  0  0  0
    3.8356   -2.2042   -0.0000 O   0  0  0  0  0  0  0  0  0  0  0  0
    6.4508   -2.1420   -0.0000 C   0  0  0  0  0  0  0  0  0  0  0  0
    6.3885    2.3163   -0.0000 O   0  0  0  0  0  0  0  0  0  0  0  0
    5.0934    4.5455   -0.0000 C   0  0  0  0  0  0  0  0  0  0  0  0
    1.9303    8.0947   -0.0000 N   0  0  0  0  0  0  0  0  0  0  0  0
   -0.0996    7.5467   -0.0000 C   0  0  0  0  0  0  0  0  0  0  0  0
    3.8854   -3.6986   -0.0000 C   0  0  0  0  0  0  0  0  0  0  0  0
    6.4882   -3.6364   -0.0000 C   0  0  0  0  0  0  0  0  0  0  0  0
    7.6961    3.0386   -0.0000 C   0  0  0  0  0  0  0  0  0  0  0  0
    5.0685    6.1395   -0.0000 O   0  0  0  0  0  0  0  0  0  0  0  0
    3.7734    5.3051   -0.0000 C   0  0  0  0  0  0  0  0  0  0  0  0
    6.3761    3.8107   -0.0000 C   0  0  0  0  0  0  0  0  0  0  0  0
    3.4122    8.1196   -0.0000 C   0  0  0  0  0  0  0  0  0  0  0  0
    1.1582    9.3898   -0.0000 C   0  0  0  0  0  0  0  0  0  0  0  0
    5.1930   -4.3960   -0.0000 C   0  0  0  0  0  0  0  0  0  0  0  0
    2.5778   -4.4832   -0.0000 C   0  0  0  0  0  0  0  0  0  0  0  0
    6.5006   -5.1183   -0.0000 O   0  0  0  0  0  0  0  0  0  0  0  0
    7.7460   -2.8394   -0.0000 C   0  0  0  0  0  0  0  0  0  0  0  0
    8.9664    2.2416   -0.0000 O   0  0  0  0  0  0  0  0  0  0  0  0
    7.7460    4.5455   -0.0000 C   0  0  0  0  0  0  0  0  0  0  0  0
    3.7609    6.8120   -0.0000 C   0  0  0  0  0  0  0  0  0  0  0  0
    5.2055   -5.8780   -0.0000 O   0  0  0  0  0  0  0  0  0  0  0  0
    7.8082   -5.8281   -0.0000 C   0  0  0  0  0  0  0  0  0  0  0  0
   10.2740    2.9763   -0.0000 C   0  0  0  0  0  0  0  0  0  0  0  0
    6.6501    5.6040   -0.0000 O   0  0  0  0  0  0  0  0  0  0  0  0
    9.0536    5.2678   -0.0000 C   0  0  0  0  0  0  0  0  0  0  0  0
    5.2179    7.6214   -0.0000 C   0  0  0  0  0  0  0  0  0  0  0  0
   10.3113    4.4832   -0.0000 C   0  0  0  0  0  0  0  0  0  0  0  0
   11.5318    2.1918   -0.0000 C   0  0  0  0  0  0  0  0  0  0  0  0
    7.2976    6.9614   -0.0000 C   0  0  0  0  0  0  0  0  0  0  0  0
    8.7796    6.7497   -0.0000 N   0  0  0  0  0  0  0  0  0  0  0  0
    6.5753    8.3064   -0.0000 N   0  0  0  0  0  0  0  0  0  0  0  0
    9.8132    7.8456   -0.0000 C   0  0  0  0  0  0  0  0  0  0  0  0
    5.0685    8.3686   -0.0000 C   0  0  0  0  0  0  0  0  0  0  0  0
    4.3462    9.7011   -0.0000 C   0  0  0  0  0  0  0  0  0  0  0  0
  1  2  2  0  0  0  0
  2  3  1  0  0  0  0
  2  4  1  0  0  0  0
  3  5  1  0  0  0  0
  4  6  1  0  0  0  0
  4  7  1  6  0  0  0
  5  8  1  0  0  0  0
  5  9  1  1  0  0  0
  6 10  1  1  0  0  0
  6 11  1  0  0  0  0
  8 12  1  0  0  0  0
  8 13  1  0  0  0  0
  8 14  1  1  0  0  0
  9 15  1  0  0  0  0
 16 10  1  6  0  0  0
 11 17  1  0  0  0  0
 11 18  1  1  0  0  0
 13 19  1  6  0  0  0
 13 20  1  0  0  0  0
 16 21  1  0  0  0  0
 16 22  1  0  0  0  0
 17 23  1  1  0  0  0
 17 24  1  0  0  0  0
 20 25  1  0  0  0  0
 20 26  1  6  0  0  0
 21 27  1  0  0  0  0
 28 22  1  6  0  0  0
 29 23  1  6  0  0  0
 24 30  1  6  0  0  0
 24 31  1  0  0  0  0
 24 32  1  0  0  0  0
 25 33  1  0  0  0  0
 25 34  1  0  0  0  0
 27 35  1  0  0  0  0
 27 36  1  1  0  0  0
 28 37  1  0  0  0  0
 28 38  1  0  0  0  0
 29 39  1  0  0  0  0
 29 40  1  0  0  0  0
 31 41  1  0  0  0  0
 35 42  1  6  0  0  0
 37 43  1  0  0  0  0
 39 44  1  0  0  0  0
 40 45  1  1  0  0  0
 40 46  1  0  0  0  0
 41 47  1  1  0  0  0
 44 48  1  0  0  0  0
 44 49  1  6  0  0  0
 45 50  1  0  0  0  0
 46 51  1  6  0  0  0
 50 52  2  0  0  0  0
 51 53  1  0  0  0  0
 52 54  1  0  0  0  0
 54 55  1  0  0  0  0
 28 35  1  0  0  0  0
 33 41  1  0  0  0  0
 46 48  1  0  0  0  0
 50 51  1  0  0  0  0
M  END
>  <MolRegNo>
1425682

>  <m>
=

>  <Value>
7900

>  <Unit>
nM

>  <Type>
IC50

>  <pValue>
5.1

>  <Ligand Efficiency>
0

>  <Binding Efficiency>
0

>  <Surface Efficiency>
0

>  <Assay Index>
686222

>  <Assay Category>


>  <Assay Organism>
Homo sapiens

>  <Target ID>
17045

>  <Target Name>
Cytochrome P450 3A4

>  <Target Organism>
Homo sapiens

>  <Target Description>
Target is a single protein chain

>  <Sequence Accession>
P08684

>  <Reference>
J Med Chem 55 (13), 6111-6123 (2012)

>  <Pubmed ID>
22697905

>  <DOI>
10.1021/jm300356u

$$$$
1425681
Actelion Java MolfileCreator 1.0

 55 58  0  0  0  0  0  0  0  0999 V2000
    0.0000   -0.0000   -0.0000 O   0  0  0  0  0  0  0  0  0  0  0  0
    1.2760    0.7632   -0.0000 C   0  0  0  0  0  0  0  0  0  0  0  0
    1.2641    2.2778   -0.0000 O   0  0  0  0  0  0  0  0  0  0  0  0
    2.5878    0.0239   -0.0000 C   0  0  0  0  0  0  0  0  0  0  0  0
   -0.0477    3.0291   -0.0000 C   0  0  0  0  0  0  0  0  0  0  0  0
    3.8877    0.7871   -0.0000 C   0  0  0  0  0  0  0  0  0  0  0  0
    2.5759   -1.4668   -0.0000 C   0  0  0  0  0  0  0  0  0  0  0  0
   -0.0596    4.5436   -0.0000 C   0  0  0  0  0  0  0  0  0  0  0  0
   -1.3595    2.2897   -0.0000 C   0  0  0  0  0  0  0  0  0  0  0  0
    5.1637    0.0477   -0.0000 O   0  0  0  0  0  0  0  0  0  0  0  0
    3.8519    2.3016   -0.0000 C   0  0  0  0  0  0  0  0  0  0  0  0
   -1.0137    5.7481   -0.0000 O   0  0  0  0  0  0  0  0  0  0  0  0
    1.2283    5.3188   -0.0000 C   0  0  0  0  0  0  0  0  0  0  0  0
   -1.4072    3.8161   -0.0000 C   0  0  0  0  0  0  0  0  0  0  0  0
   -1.3714    0.8109   -0.0000 C   0  0  0  0  0  0  0  0  0  0  0  0
    5.1995   -1.4430   -0.0000 C   0  0  0  0  0  0  0  0  0  0  0  0
    5.1637    3.0529   -0.0000 C   0  0  0  0  0  0  0  0  0  0  0  0
    2.5401    3.0768   -0.0000 C   0  0  0  0  0  0  0  0  0  0  0  0
    2.5163    4.5794   -0.0000 O   0  0  0  0  0  0  0  0  0  0  0  0
    1.2164    6.8333   -0.0000 C   0  0  0  0  0  0  0  0  0  0  0  0
    3.8877   -2.2181   -0.0000 O   0  0  0  0  0  0  0  0  0  0  0  0
    6.5113   -2.1585   -0.0000 C   0  0  0  0  0  0  0  0  0  0  0  0
    6.4517    2.3255   -0.0000 O   0  0  0  0  0  0  0  0  0  0  0  0
    5.1518    4.5675   -0.0000 C   0  0  0  0  0  0  0  0  0  0  0  0
    2.5043    7.5965   -0.0000 C   0  0  0  0  0  0  0  0  0  0  0  0
   -0.0954    7.5965   -0.0000 C   0  0  0  0  0  0  0  0  0  0  0  0
    3.9354   -3.7207   -0.0000 C   0  0  0  0  0  0  0  0  0  0  0  0
    6.5471   -3.6611   -0.0000 C   0  0  0  0  0  0  0  0  0  0  0  0
    7.7635    3.0529   -0.0000 C   0  0  0  0  0  0  0  0  0  0  0  0
    5.8673    5.6527   -0.0000 O   0  0  0  0  0  0  0  0  0  0  0  0
    3.8161    5.3426   -0.0000 C   0  0  0  0  0  0  0  0  0  0  0  0
    6.4397    3.8281   -0.0000 C   0  0  0  0  0  0  0  0  0  0  0  0
    2.4924    9.1230   -0.0000 O   0  0  0  0  0  0  0  0  0  0  0  0
    3.7923    6.8571   -0.0000 C   0  0  0  0  0  0  0  0  0  0  0  0
    5.2472   -4.4243   -0.0000 C   0  0  0  0  0  0  0  0  0  0  0  0
    2.6236   -4.5078   -0.0000 C   0  0  0  0  0  0  0  0  0  0  0  0
    6.5590   -5.1518   -0.0000 O   0  0  0  0  0  0  0  0  0  0  0  0
    7.8231   -2.8621   -0.0000 C   0  0  0  0  0  0  0  0  0  0  0  0
    9.0514    2.2420   -0.0000 O   0  0  0  0  0  0  0  0  0  0  0  0
    7.8112    4.5675   -0.0000 C   0  0  0  0  0  0  0  0  0  0  0  0
    5.6288    6.7498   -0.0000 C   0  0  0  0  0  0  0  0  0  0  0  0
    5.2591    7.6800   -0.0000 C   0  0  0  0  0  0  0  0  0  0  0  0
    5.2711   -5.9150   -0.0000 O   0  0  0  0  0  0  0  0  0  0  0  0
    7.8708   -5.8673   -0.0000 C   0  0  0  0  0  0  0  0  0  0  0  0
   10.3632    2.9814   -0.0000 C   0  0  0  0  0  0  0  0  0  0  0  0
    6.7140    5.6288   -0.0000 O   0  0  0  0  0  0  0  0  0  0  0  0
    9.1349    5.2949   -0.0000 C   0  0  0  0  0  0  0  0  0  0  0  0
   10.3990    4.4959   -0.0000 C   0  0  0  0  0  0  0  0  0  0  0  0
   11.6392    2.1943   -0.0000 C   0  0  0  0  0  0  0  0  0  0  0  0
    7.3699    6.9883   -0.0000 C   0  0  0  0  0  0  0  0  0  0  0  0
    8.8487    6.7856   -0.0000 N   0  0  0  0  0  0  0  0  0  0  0  0
    6.6425    8.3359   -0.0000 N   0  0  0  0  0  0  0  0  0  0  0  0
    9.8862    7.8947   -0.0000 C   0  0  0  0  0  0  0  0  0  0  0  0
    5.1279    8.3955   -0.0000 C   0  0  0  0  0  0  0  0  0  0  0  0
    4.4005    9.7312   -0.0000 C   0  0  0  0  0  0  0  0  0  0  0  0
  1  2  2  0  0  0  0
  2  3  1  0  0  0  0
  2  4  1  0  0  0  0
  3  5  1  0  0  0  0
  4  6  1  0  0  0  0
  4  7  1  6  0  0  0
  5  8  1  0  0  0  0
  5  9  1  1  0  0  0
  6 10  1  1  0  0  0
  6 11  1  0  0  0  0
  8 12  1  0  0  0  0
  8 13  1  0  0  0  0
  8 14  1  1  0  0  0
  9 15  1  0  0  0  0
 16 10  1  6  0  0  0
 11 17  1  0  0  0  0
 11 18  1  1  0  0  0
 13 19  1  6  0  0  0
 13 20  1  0  0  0  0
 16 21  1  0  0  0  0
 16 22  1  0  0  0  0
 17 23  1  1  0  0  0
 17 24  1  0  0  0  0
 20 25  1  0  0  0  0
 20 26  1  6  0  0  0
 21 27  1  0  0  0  0
 28 22  1  6  0  0  0
 29 23  1  6  0  0  0
 24 30  1  0  0  0  0
 24 31  1  0  0  0  0
 24 32  1  1  0  0  0
 25 33  2  0  0  0  0
 25 34  1  0  0  0  0
 27 35  1  0  0  0  0
 27 36  1  1  0  0  0
 28 37  1  0  0  0  0
 28 38  1  0  0  0  0
 29 39  1  0  0  0  0
 29 40  1  0  0  0  0
 30 41  1  0  0  0  0
 34 42  1  1  0  0  0
 35 43  1  6  0  0  0
 37 44  1  0  0  0  0
 39 45  1  0  0  0  0
 40 46  1  1  0  0  0
 40 47  1  0  0  0  0
 45 48  1  0  0  0  0
 45 49  1  6  0  0  0
 46 50  1  0  0  0  0
 47 51  1  6  0  0  0
 50 52  2  0  0  0  0
 51 53  1  0  0  0  0
 52 54  1  0  0  0  0
 54 55  1  0  0  0  0
 28 35  1  0  0  0  0
 31 34  1  0  0  0  0
 47 48  1  0  0  0  0
 50 51  1  0  0  0  0
M  END
>  <MolRegNo>
1425681

>  <m>
=

>  <Value>
2900

>  <Unit>
nM

>  <Type>
IC50

>  <pValue>
5.54

>  <Ligand Efficiency>
0

>  <Binding Efficiency>
0

>  <Surface Efficiency>
0

>  <Assay Index>
686223

>  <Assay Category>


>  <Assay Organism>
Homo sapiens

>  <Target ID>
17045

>  <Target Name>
Cytochrome P450 3A4

>  <Target Organism>
Homo sapiens

>  <Target Description>
Target is a single protein chain

>  <Sequence Accession>
P08684

>  <Reference>
J Med Chem 55 (13), 6111-6123 (2012)

>  <Pubmed ID>
22697905

>  <DOI>
10.1021/jm300356u

$$$$
1425614
Actelion Java MolfileCreator 1.0

 20 22  0  0  0  0  0  0  0  0999 V2000
    0.0000   -0.0000   -0.0000 S   0  0  0  0  0  0  0  0  0  0  0  0
   -0.1432    1.5279   -0.0000 C   0  0  0  0  0  0  0  0  0  0  0  0
    1.4563   -0.2507   -0.0000 C   0  0  0  0  0  0  0  0  0  0  0  0
    1.1937    2.1367   -0.0000 C   0  0  0  0  0  0  0  0  0  0  0  0
   -1.4682    2.2918   -0.0000 C   0  0  0  0  0  0  0  0  0  0  0  0
    2.1963    1.0266   -0.0000 C   0  0  0  0  0  0  0  0  0  0  0  0
   -2.7812    1.5637   -0.0000 N   0  0  0  0  0  0  0  0  0  0  0  0
   -4.0823    2.3276   -0.0000 C   0  0  0  0  0  0  0  0  0  0  0  0
   -2.7932    0.0836   -0.0000 C   0  0  0  0  0  0  0  0  0  0  0  0
   -4.0823    3.8317   -0.0000 O   0  0  0  0  0  0  0  0  0  0  0  0
   -5.3954    1.5995   -0.0000 C   0  0  0  0  0  0  0  0  0  0  0  0
   -6.6965    2.3754   -0.0000 C   0  0  0  0  0  0  0  0  0  0  0  0
   -6.1832    0.3342   -0.0000 C   0  0  0  0  0  0  0  0  0  0  0  0
   -4.6911    0.2984   -0.0000 C   0  0  0  0  0  0  0  0  0  0  0  0
   -6.6845    3.8794   -0.0000 C   0  0  0  0  0  0  0  0  0  0  0  0
   -8.0095    1.6592   -0.0000 C   0  0  0  0  0  0  0  0  0  0  0  0
   -7.9856    4.6553   -0.0000 C   0  0  0  0  0  0  0  0  0  0  0  0
   -9.3106    2.4351   -0.0000 C   0  0  0  0  0  0  0  0  0  0  0  0
   -9.2987    3.9391   -0.0000 C   0  0  0  0  0  0  0  0  0  0  0  0
  -10.5998    4.7150   -0.0000 C   0  0  0  0  0  0  0  0  0  0  0  0
  1  2  1  0  0  0  0
  1  3  1  0  0  0  0
  2  4  2  0  0  0  0
  2  5  1  0  0  0  0
  3  6  2  0  0  0  0
  5  7  1  0  0  0  0
  7  8  1  0  0  0  0
  7  9  1  0  0  0  0
  8 10  2  0  0  0  0
  8 11  1  0  0  0  0
 11 12  1  0  0  0  0
 11 13  1  0  0  0  0
 11 14  1  0  0  0  0
 12 15  2  0  0  0  0
 12 16  1  0  0  0  0
 15 17  1  0  0  0  0
 16 18  2  0  0  0  0
 17 19  2  0  0  0  0
 19 20  1  0  0  0  0
  4  6  1  0  0  0  0
 13 14  1  0  0  0  0
 18 19  1  0  0  0  0
M  END
>  <MolRegNo>
1425614

>  <m>
=

>  <Value>
1600

>  <Unit>
nM

>  <Type>
IC50

>  <pValue>
5.8

>  <Ligand Efficiency>
0

>  <Binding Efficiency>
0

>  <Surface Efficiency>
0

>  <Assay Index>
684175

>  <Assay Category>


>  <Assay Organism>
Homo sapiens

>  <Target ID>
17045

>  <Target Name>
Cytochrome P450 3A4

>  <Target Organism>
Homo sapiens

>  <Target Description>
Target is a single protein chain

>  <Sequence Accession>
P08684

>  <Reference>
Bioorg Med Chem 20 (21), 6394-6402 (2012)

>  <Pubmed ID>
23040895

>  <DOI>
10.1016/j.bmc.2012.08.056

$$$$
1425627
Actelion Java MolfileCreator 1.0

 21 24  0  0  0  0  0  0  0  0999 V2000
    0.0000   -0.0000   -0.0000 O   0  0  0  0  0  0  0  0  0  0  0  0
   -0.0121    1.5160   -0.0000 C   0  0  0  0  0  0  0  0  0  0  0  0
    1.2735    2.2801   -0.0000 N   0  0  0  0  0  0  0  0  0  0  0  0
   -1.3098    2.2680   -0.0000 C   0  0  0  0  0  0  0  0  0  0  0  0
    2.5591    1.5403   -0.0000 C   0  0  0  0  0  0  0  0  0  0  0  0
    1.2613    3.7961   -0.0000 C   0  0  0  0  0  0  0  0  0  0  0  0
   -2.3044    1.0430   -0.0000 C   0  0  0  0  0  0  0  0  0  0  0  0
   -2.6803    1.9405   -0.0000 C   0  0  0  0  0  0  0  0  0  0  0  0
   -1.3098    3.7719   -0.0000 C   0  0  0  0  0  0  0  0  0  0  0  0
    3.8446    2.3044   -0.0000 C   0  0  0  0  0  0  0  0  0  0  0  0
   -3.6870    1.6009   -0.0000 C   0  0  0  0  0  0  0  0  0  0  0  0
   -3.9781    2.4256   -0.0000 C   0  0  0  0  0  0  0  0  0  0  0  0
   -2.6803    4.3419   -0.0000 C   0  0  0  0  0  0  0  0  0  0  0  0
    5.1909    1.6979   -0.0000 N   0  0  0  0  0  0  0  0  0  0  0  0
    3.9781    3.7961   -0.0000 C   0  0  0  0  0  0  0  0  0  0  0  0
   -5.1545    1.2007   -0.0000 C   0  0  0  0  0  0  0  0  0  0  0  0
   -3.6991    3.1533   -0.0000 C   0  0  0  0  0  0  0  0  0  0  0  0
   -4.0023    3.8810   -0.0000 C   0  0  0  0  0  0  0  0  0  0  0  0
    6.1854    2.8259   -0.0000 C   0  0  0  0  0  0  0  0  0  0  0  0
    5.1787    0.2183   -0.0000 C   0  0  0  0  0  0  0  0  0  0  0  0
    5.4334    4.1236   -0.0000 C   0  0  0  0  0  0  0  0  0  0  0  0
  1  2  2  0  0  0  0
  2  3  1  0  0  0  0
  2  4  1  0  0  0  0
  3  5  1  0  0  0  0
  3  6  1  0  0  0  0
  4  7  1  0  0  0  0
  4  8  1  0  0  0  0
  4  9  1  0  0  0  0
  5 10  1  0  0  0  0
  7 11  1  0  0  0  0
  8 12  1  0  0  0  0
  9 13  1  0  0  0  0
 10 14  1  0  0  0  0
 10 15  2  0  0  0  0
 11 16  1  0  0  0  0
 11 17  1  0  0  0  0
 12 18  1  0  0  0  0
 14 19  1  0  0  0  0
 14 20  1  0  0  0  0
 15 21  1  0  0  0  0
 12 16  1  0  0  0  0
 13 17  1  0  0  0  0
 13 18  1  0  0  0  0
 19 21  2  0  0  0  0
M  END
>  <MolRegNo>
1425627

>  <m>
=

>  <Value>
18000

>  <Unit>
nM

>  <Type>
IC50

>  <pValue>
4.75

>  <Ligand Efficiency>
0

>  <Binding Efficiency>
0

>  <Surface Efficiency>
0

>  <Assay Index>
684175

>  <Assay Category>


>  <Assay Organism>
Homo sapiens

>  <Target ID>
17045

>  <Target Name>
Cytochrome P450 3A4

>  <Target Organism>
Homo sapiens

>  <Target Description>
Target is a single protein chain

>  <Sequence Accession>
P08684

>  <Reference>
Bioorg Med Chem 20 (21), 6394-6402 (2012)

>  <Pubmed ID>
23040895

>  <DOI>
10.1016/j.bmc.2012.08.056

$$$$
1425431
Actelion Java MolfileCreator 1.0

 21 24  0  0  0  0  0  0  0  0999 V2000
    0.0000   -0.0000   -0.0000 S   0  0  0  0  0  0  0  0  0  0  0  0
   -1.3696   -0.6060   -0.0000 C   0  0  0  0  0  0  0  0  0  0  0  0
    0.9939   -1.1029   -0.0000 C   0  0  0  0  0  0  0  0  0  0  0  0
   -1.2363   -2.0726   -0.0000 C   0  0  0  0  0  0  0  0  0  0  0  0
   -2.6786    0.1576   -0.0000 C   0  0  0  0  0  0  0  0  0  0  0  0
    0.2303   -2.3877   -0.0000 C   0  0  0  0  0  0  0  0  0  0  0  0
   -3.9875   -0.5818   -0.0000 N   0  0  0  0  0  0  0  0  0  0  0  0
   -5.2965    0.1818   -0.0000 C   0  0  0  0  0  0  0  0  0  0  0  0
   -3.9997   -2.0604   -0.0000 C   0  0  0  0  0  0  0  0  0  0  0  0
   -5.3086    1.6847   -0.0000 O   0  0  0  0  0  0  0  0  0  0  0  0
   -6.6055   -0.5575   -0.0000 C   0  0  0  0  0  0  0  0  0  0  0  0
   -7.9024    0.1939   -0.0000 C   0  0  0  0  0  0  0  0  0  0  0  0
   -8.8962   -1.0302   -0.0000 C   0  0  0  0  0  0  0  0  0  0  0  0
   -9.2719   -0.1333   -0.0000 C   0  0  0  0  0  0  0  0  0  0  0  0
   -7.9024    1.6968   -0.0000 C   0  0  0  0  0  0  0  0  0  0  0  0
  -10.2779   -0.4727   -0.0000 C   0  0  0  0  0  0  0  0  0  0  0  0
  -10.5688    0.3515   -0.0000 C   0  0  0  0  0  0  0  0  0  0  0  0
   -9.2719    2.2665   -0.0000 C   0  0  0  0  0  0  0  0  0  0  0  0
  -11.7445   -0.8727   -0.0000 C   0  0  0  0  0  0  0  0  0  0  0  0
  -10.2900    1.0787   -0.0000 C   0  0  0  0  0  0  0  0  0  0  0  0
  -10.5930    1.8059   -0.0000 C   0  0  0  0  0  0  0  0  0  0  0  0
  1  2  1  0  0  0  0
  1  3  1  0  0  0  0
  2  4  2  0  0  0  0
  2  5  1  0  0  0  0
  3  6  2  0  0  0  0
  5  7  1  0  0  0  0
  7  8  1  0  0  0  0
  7  9  1  0  0  0  0
  8 10  2  0  0  0  0
  8 11  1  0  0  0  0
 11 12  1  0  0  0  0
 12 13  1  0  0  0  0
 12 14  1  0  0  0  0
 12 15  1  0  0  0  0
 13 16  1  0  0  0  0
 14 17  1  0  0  0  0
 15 18  1  0  0  0  0
 16 19  1  0  0  0  0
 16 20  1  0  0  0  0
 17 21  1  0  0  0  0
  4  6  1  0  0  0  0
 17 19  1  0  0  0  0
 18 20  1  0  0  0  0
 18 21  1  0  0  0  0
M  END
>  <MolRegNo>
1425431

>  <m>
=

>  <Value>
150

>  <Unit>
nM

>  <Type>
IC50

>  <pValue>
6.82

>  <Ligand Efficiency>
0

>  <Binding Efficiency>
0

>  <Surface Efficiency>
0

>  <Assay Index>
684177

>  <Assay Category>


>  <Assay Organism>
Homo sapiens

>  <Target ID>
17045

>  <Target Name>
Cytochrome P450 3A4

>  <Target Organism>
Homo sapiens

>  <Target Description>
Target is a single protein chain

>  <Sequence Accession>
P08684

>  <Reference>
Bioorg Med Chem 20 (21), 6394-6402 (2012)

>  <Pubmed ID>
23040895

>  <DOI>
10.1016/j.bmc.2012.08.056

$$$$
1425618
Actelion Java MolfileCreator 1.0

 20 23  0  0  0  0  0  0  0  0999 V2000
    0.0000   -0.0000   -0.0000 S   0  0  0  0  0  0  0  0  0  0  0  0
   -1.3658    0.6285   -0.0000 C   0  0  0  0  0  0  0  0  0  0  0  0
    0.9911    1.1240   -0.0000 C   0  0  0  0  0  0  0  0  0  0  0  0
   -1.2328    2.1151   -0.0000 C   0  0  0  0  0  0  0  0  0  0  0  0
   -2.6711   -0.1088   -0.0000 C   0  0  0  0  0  0  0  0  0  0  0  0
    0.2296    2.4294   -0.0000 C   0  0  0  0  0  0  0  0  0  0  0  0
   -3.9764    0.6527   -0.0000 N   0  0  0  0  0  0  0  0  0  0  0  0
   -5.2818   -0.0846   -0.0000 C   0  0  0  0  0  0  0  0  0  0  0  0
   -3.9885    2.1635   -0.0000 C   0  0  0  0  0  0  0  0  0  0  0  0
   -5.2939   -1.5712   -0.0000 O   0  0  0  0  0  0  0  0  0  0  0  0
   -6.5750    0.6648   -0.0000 C   0  0  0  0  0  0  0  0  0  0  0  0
   -7.5661   -0.5560   -0.0000 C   0  0  0  0  0  0  0  0  0  0  0  0
   -7.9408    0.3384   -0.0000 C   0  0  0  0  0  0  0  0  0  0  0  0
   -6.5750    2.1635   -0.0000 C   0  0  0  0  0  0  0  0  0  0  0  0
   -8.9440   -0.0000   -0.0000 C   0  0  0  0  0  0  0  0  0  0  0  0
   -9.2461    0.8219   -0.0000 C   0  0  0  0  0  0  0  0  0  0  0  0
   -7.9408    2.7315   -0.0000 C   0  0  0  0  0  0  0  0  0  0  0  0
  -10.4064   -0.3989   -0.0000 C   0  0  0  0  0  0  0  0  0  0  0  0
   -8.9560    1.5471   -0.0000 C   0  0  0  0  0  0  0  0  0  0  0  0
   -9.2703    2.2722   -0.0000 C   0  0  0  0  0  0  0  0  0  0  0  0
  1  2  1  0  0  0  0
  1  3  1  0  0  0  0
  2  4  2  0  0  0  0
  2  5  1  0  0  0  0
  3  6  2  0  0  0  0
  5  7  1  0  0  0  0
  7  8  1  0  0  0  0
  7  9  1  0  0  0  0
  8 10  2  0  0  0  0
  8 11  1  0  0  0  0
 11 12  1  0  0  0  0
 11 13  1  0  0  0  0
 11 14  1  0  0  0  0
 12 15  1  0  0  0  0
 13 16  1  0  0  0  0
 14 17  1  0  0  0  0
 15 18  1  0  0  0  0
 15 19  1  0  0  0  0
 16 20  1  0  0  0  0
  4  6  1  0  0  0  0
 16 18  1  0  0  0  0
 17 19  1  0  0  0  0
 17 20  1  0  0  0  0
M  END
>  <MolRegNo>
1425618

>  <m>
=

>  <Value>
10000

>  <Unit>
nM

>  <Type>
IC50

>  <pValue>
5

>  <Ligand Efficiency>
0

>  <Binding Efficiency>
0

>  <Surface Efficiency>
0

>  <Assay Index>
684177

>  <Assay Category>


>  <Assay Organism>
Homo sapiens

>  <Target ID>
17045

>  <Target Name>
Cytochrome P450 3A4

>  <Target Organism>
Homo sapiens

>  <Target Description>
Target is a single protein chain

>  <Sequence Accession>
P08684

>  <Reference>
Bioorg Med Chem 20 (21), 6394-6402 (2012)

>  <Pubmed ID>
23040895

>  <DOI>
10.1016/j.bmc.2012.08.056

$$$$
1424756
Actelion Java MolfileCreator 1.0

 34 38  0  0  0  0  0  0  0  0999 V2000
    0.0000   -0.0000   -0.0000 O   0  0  0  0  0  0  0  0  0  0  0  0
   -1.3151   -0.7346   -0.0000 C   0  0  0  0  0  0  0  0  0  0  0  0
   -2.6303    0.0237   -0.0000 N   0  0  0  0  0  0  0  0  0  0  0  0
   -1.3270   -2.2274   -0.0000 C   0  0  0  0  0  0  0  0  0  0  0  0
   -3.9335   -0.7109   -0.0000 C   0  0  0  0  0  0  0  0  0  0  0  0
   -2.5473   -3.0923   -0.0000 N   0  0  0  0  0  0  0  0  0  0  0  0
   -0.1303   -3.0923   -0.0000 N   0  0  0  0  0  0  0  0  0  0  0  0
   -5.2487    0.0474   -0.0000 C   0  0  0  0  0  0  0  0  0  0  0  0
   -3.9454   -2.2037   -0.0000 C   0  0  0  0  0  0  0  0  0  0  0  0
   -2.0971   -4.5022   -0.0000 C   0  0  0  0  0  0  0  0  0  0  0  0
   -0.6042   -4.5022   -0.0000 C   0  0  0  0  0  0  0  0  0  0  0  0
   -5.2605    1.5521   -0.0000 C   0  0  0  0  0  0  0  0  0  0  0  0
   -6.5638   -0.6872   -0.0000 C   0  0  0  0  0  0  0  0  0  0  0  0
   -5.2605   -2.9383   -0.0000 C   0  0  0  0  0  0  0  0  0  0  0  0
   -2.9857   -5.6989   -0.0000 C   0  0  0  0  0  0  0  0  0  0  0  0
   -3.9691    2.3222   -0.0000 C   0  0  0  0  0  0  0  0  0  0  0  0
   -6.5756    2.3222   -0.0000 C   0  0  0  0  0  0  0  0  0  0  0  0
   -6.5756   -2.1800   -0.0000 C   0  0  0  0  0  0  0  0  0  0  0  0
   -3.8861   -6.9074   -0.0000 N   0  0  0  0  0  0  0  0  0  0  0  0
   -3.9809    3.8269   -0.0000 C   0  0  0  0  0  0  0  0  0  0  0  0
   -6.5875    3.8269   -0.0000 C   0  0  0  0  0  0  0  0  0  0  0  0
   -7.8789   -2.9146   -0.0000 C   0  0  0  0  0  0  0  0  0  0  0  0
   -5.2961    4.5852   -0.0000 C   0  0  0  0  0  0  0  0  0  0  0  0
   -7.8908   -4.3956   -0.0000 C   0  0  0  0  0  0  0  0  0  0  0  0
   -9.1940   -2.1563   -0.0000 C   0  0  0  0  0  0  0  0  0  0  0  0
   -9.2059   -5.1420   -0.0000 C   0  0  0  0  0  0  0  0  0  0  0  0
  -10.4855   -2.8909   -0.0000 C   0  0  0  0  0  0  0  0  0  0  0  0
  -10.4973   -4.3719   -0.0000 N   0  0  0  0  0  0  0  0  0  0  0  0
  -11.8006   -5.1065   -0.0000 C   0  0  0  0  0  0  0  0  0  0  0  0
  -13.1157   -4.3364   -0.0000 N   0  0  0  0  0  0  0  0  0  0  0  0
  -11.8125   -6.5875   -0.0000 C   0  0  0  0  0  0  0  0  0  0  0  0
  -14.4190   -5.0828   -0.0000 C   0  0  0  0  0  0  0  0  0  0  0  0
  -13.1157   -7.3102   -0.0000 C   0  0  0  0  0  0  0  0  0  0  0  0
  -14.4309   -6.5638   -0.0000 C   0  0  0  0  0  0  0  0  0  0  0  0
  1  2  2  0  0  0  0
  2  3  1  0  0  0  0
  2  4  1  0  0  0  0
  3  5  1  0  0  0  0
  4  6  2  0  0  0  0
  4  7  1  0  0  0  0
  5  8  2  0  0  0  0
  5  9  1  0  0  0  0
  6 10  1  0  0  0  0
  7 11  1  0  0  0  0
  8 12  1  0  0  0  0
  8 13  1  0  0  0  0
  9 14  2  0  0  0  0
 10 15  1  0  0  0  0
 12 16  2  0  0  0  0
 12 17  1  0  0  0  0
 13 18  2  0  0  0  0
 15 19  3  0  0  0  0
 16 20  1  0  0  0  0
 17 21  1  0  0  0  0
 18 22  1  0  0  0  0
 20 23  1  0  0  0  0
 22 24  1  0  0  0  0
 22 25  1  0  0  0  0
 24 26  1  0  0  0  0
 25 27  1  0  0  0  0
 26 28  1  0  0  0  0
 28 29  1  0  0  0  0
 29 30  2  0  0  0  0
 29 31  1  0  0  0  0
 30 32  1  0  0  0  0
 31 33  2  0  0  0  0
 32 34  2  0  0  0  0
 10 11  2  0  0  0  0
 14 18  1  0  0  0  0
 21 23  1  0  0  0  0
 27 28  1  0  0  0  0
 33 34  1  0  0  0  0
M  END
>  <MolRegNo>
1424756

>  <m>
=

>  <Value>
1700

>  <Unit>
nM

>  <Type>
IC50

>  <pValue>
5.77

>  <Ligand Efficiency>
0

>  <Binding Efficiency>
0

>  <Surface Efficiency>
0

>  <Assay Index>
686580

>  <Assay Category>


>  <Assay Organism>


>  <Target ID>
17045

>  <Target Name>
Cytochrome P450 3A4

>  <Target Organism>
Homo sapiens

>  <Target Description>
Target is a single protein chain

>  <Sequence Accession>
P08684

>  <Reference>
J Med Chem 54 (22), 7860-7883 (2011)

>  <Pubmed ID>
22039836

>  <DOI>
10.1021/jm200900q

$$$$
1424758
Actelion Java MolfileCreator 1.0

 35 39  0  0  0  0  0  0  0  0999 V2000
    0.0000   -0.0000   -0.0000 O   0  0  0  0  0  0  0  0  0  0  0  0
   -1.2997   -0.7326   -0.0000 C   0  0  0  0  0  0  0  0  0  0  0  0
   -1.3115   -2.2213   -0.0000 N   0  0  0  0  0  0  0  0  0  0  0  0
   -2.5049    0.1890   -0.0000 C   0  0  0  0  0  0  0  0  0  0  0  0
   -2.6230   -2.9539   -0.0000 C   0  0  0  0  0  0  0  0  0  0  0  0
   -3.9582   -0.2245   -0.0000 N   0  0  0  0  0  0  0  0  0  0  0  0
   -2.4694    1.6896   -0.0000 N   0  0  0  0  0  0  0  0  0  0  0  0
   -2.6349   -4.4426   -0.0000 C   0  0  0  0  0  0  0  0  0  0  0  0
   -3.9346   -2.1977   -0.0000 C   0  0  0  0  0  0  0  0  0  0  0  0
   -4.8207    1.0161   -0.0000 C   0  0  0  0  0  0  0  0  0  0  0  0
   -3.8991    2.2095   -0.0000 C   0  0  0  0  0  0  0  0  0  0  0  0
   -1.3470   -5.1752   -0.0000 C   0  0  0  0  0  0  0  0  0  0  0  0
   -3.9464   -5.1752   -0.0000 C   0  0  0  0  0  0  0  0  0  0  0  0
   -5.2343   -2.9302   -0.0000 C   0  0  0  0  0  0  0  0  0  0  0  0
   -6.3213    1.0634   -0.0000 C   0  0  0  0  0  0  0  0  0  0  0  0
   -0.0709   -4.4190   -0.0000 C   0  0  0  0  0  0  0  0  0  0  0  0
   -1.3588   -6.6639   -0.0000 C   0  0  0  0  0  0  0  0  0  0  0  0
   -5.2461   -4.4190   -0.0000 C   0  0  0  0  0  0  0  0  0  0  0  0
   -7.8337    1.1225   -0.0000 N   0  0  0  0  0  0  0  0  0  0  0  0
    1.2170   -5.1515   -0.0000 C   0  0  0  0  0  0  0  0  0  0  0  0
   -0.0827   -7.3965   -0.0000 C   0  0  0  0  0  0  0  0  0  0  0  0
   -6.5576   -5.1515   -0.0000 C   0  0  0  0  0  0  0  0  0  0  0  0
    1.2052   -6.6403   -0.0000 C   0  0  0  0  0  0  0  0  0  0  0  0
   -7.8691   -4.3954   -0.0000 C   0  0  0  0  0  0  0  0  0  0  0  0
   -6.5694   -6.6403   -0.0000 C   0  0  0  0  0  0  0  0  0  0  0  0
   -9.1806   -5.1279   -0.0000 C   0  0  0  0  0  0  0  0  0  0  0  0
   -7.8809   -7.3729   -0.0000 C   0  0  0  0  0  0  0  0  0  0  0  0
   -9.1924   -6.6167   -0.0000 N   0  0  0  0  0  0  0  0  0  0  0  0
  -10.4921   -7.3492   -0.0000 C   0  0  0  0  0  0  0  0  0  0  0  0
  -11.8037   -6.5930   -0.0000 C   0  0  0  0  0  0  0  0  0  0  0  0
  -11.8155   -5.0807   -0.0000 N   0  0  0  0  0  0  0  0  0  0  0  0
  -13.1034   -7.3256   -0.0000 C   0  0  0  0  0  0  0  0  0  0  0  0
  -13.1152   -4.3245   -0.0000 C   0  0  0  0  0  0  0  0  0  0  0  0
  -14.4149   -6.5694   -0.0000 C   0  0  0  0  0  0  0  0  0  0  0  0
  -14.4267   -5.0570   -0.0000 C   0  0  0  0  0  0  0  0  0  0  0  0
  1  2  2  0  0  0  0
  2  3  1  0  0  0  0
  2  4  1  0  0  0  0
  3  5  1  0  0  0  0
  4  6  2  0  0  0  0
  4  7  1  0  0  0  0
  5  8  2  0  0  0  0
  5  9  1  0  0  0  0
  6 10  1  0  0  0  0
  7 11  1  0  0  0  0
  8 12  1  0  0  0  0
  8 13  1  0  0  0  0
  9 14  2  0  0  0  0
 10 15  1  0  0  0  0
 12 16  2  0  0  0  0
 12 17  1  0  0  0  0
 13 18  2  0  0  0  0
 15 19  3  0  0  0  0
 16 20  1  0  0  0  0
 17 21  1  0  0  0  0
 18 22  1  0  0  0  0
 20 23  1  0  0  0  0
 22 24  1  0  0  0  0
 22 25  1  0  0  0  0
 24 26  1  0  0  0  0
 25 27  1  0  0  0  0
 26 28  1  0  0  0  0
 28 29  1  0  0  0  0
 29 30  1  0  0  0  0
 30 31  2  0  0  0  0
 30 32  1  0  0  0  0
 31 33  1  0  0  0  0
 32 34  2  0  0  0  0
 33 35  2  0  0  0  0
 10 11  2  0  0  0  0
 14 18  1  0  0  0  0
 21 23  1  0  0  0  0
 27 28  1  0  0  0  0
 34 35  1  0  0  0  0
M  END
>  <MolRegNo>
1424758

>  <m>
=

>  <Value>
5600

>  <Unit>
nM

>  <Type>
IC50

>  <pValue>
5.25

>  <Ligand Efficiency>
0

>  <Binding Efficiency>
0

>  <Surface Efficiency>
0

>  <Assay Index>
686580

>  <Assay Category>


>  <Assay Organism>


>  <Target ID>
17045

>  <Target Name>
Cytochrome P450 3A4

>  <Target Organism>
Homo sapiens

>  <Target Description>
Target is a single protein chain

>  <Sequence Accession>
P08684

>  <Reference>
J Med Chem 54 (22), 7860-7883 (2011)

>  <Pubmed ID>
22039836

>  <DOI>
10.1021/jm200900q

$$$$
1424764
Actelion Java MolfileCreator 1.0

 36 40  0  0  0  0  0  0  0  0999 V2000
    0.0000   -0.0000   -0.0000 O   0  0  0  0  0  0  0  0  0  0  0  0
   -0.0119   -1.2040   -0.0000 C   0  0  0  0  0  0  0  0  0  0  0  0
   -1.3351   -1.9550   -0.0000 N   0  0  0  0  0  0  0  0  0  0  0  0
    1.2874   -1.9431   -0.0000 C   0  0  0  0  0  0  0  0  0  0  0  0
   -2.6583   -1.1921   -0.0000 C   0  0  0  0  0  0  0  0  0  0  0  0
    2.6344   -1.2993   -0.0000 N   0  0  0  0  0  0  0  0  0  0  0  0
    1.4185   -3.4212   -0.0000 N   0  0  0  0  0  0  0  0  0  0  0  0
   -3.9815   -1.9311   -0.0000 C   0  0  0  0  0  0  0  0  0  0  0  0
   -2.6702    0.3338   -0.0000 C   0  0  0  0  0  0  0  0  0  0  0  0
    3.6358   -2.4080   -0.0000 C   0  0  0  0  0  0  0  0  0  0  0  0
    2.8848   -3.7192   -0.0000 C   0  0  0  0  0  0  0  0  0  0  0  0
   -3.9934   -3.4331   -0.0000 C   0  0  0  0  0  0  0  0  0  0  0  0
   -5.3047   -1.1682   -0.0000 C   0  0  0  0  0  0  0  0  0  0  0  0
   -3.9934    1.0967   -0.0000 C   0  0  0  0  0  0  0  0  0  0  0  0
    3.4927   -5.0901   -0.0000 C   0  0  0  0  0  0  0  0  0  0  0  0
   -5.3166   -4.1841   -0.0000 C   0  0  0  0  0  0  0  0  0  0  0  0
   -2.6941   -4.1722   -0.0000 C   0  0  0  0  0  0  0  0  0  0  0  0
   -5.3166    0.3576   -0.0000 C   0  0  0  0  0  0  0  0  0  0  0  0
    3.9696   -6.1868   -0.0000 N   0  0  0  0  0  0  0  0  0  0  0  0
   -5.3285   -5.6861   -0.0000 C   0  0  0  0  0  0  0  0  0  0  0  0
   -2.7060   -5.6742   -0.0000 C   0  0  0  0  0  0  0  0  0  0  0  0
   -6.6398    1.1205   -0.0000 C   0  0  0  0  0  0  0  0  0  0  0  0
   -4.0292   -6.4252   -0.0000 C   0  0  0  0  0  0  0  0  0  0  0  0
   -6.6517    2.6464   -0.0000 C   0  0  0  0  0  0  0  0  0  0  0  0
   -7.9629    0.3695   -0.0000 C   0  0  0  0  0  0  0  0  0  0  0  0
   -7.9749    3.4093   -0.0000 C   0  0  0  0  0  0  0  0  0  0  0  0
   -9.2861    1.1325   -0.0000 C   0  0  0  0  0  0  0  0  0  0  0  0
   -9.2980    2.6583   -0.0000 N   0  0  0  0  0  0  0  0  0  0  0  0
  -10.6212    3.4212   -0.0000 C   0  0  0  0  0  0  0  0  0  0  0  0
  -11.9444    2.6702   -0.0000 C   0  0  0  0  0  0  0  0  0  0  0  0
  -13.2676    3.4331   -0.0000 N   0  0  0  0  0  0  0  0  0  0  0  0
  -14.5908    2.6821   -0.0000 C   0  0  0  0  0  0  0  0  0  0  0  0
  -13.2795    4.9590   -0.0000 C   0  0  0  0  0  0  0  0  0  0  0  0
  -15.9140    3.4450   -0.0000 C   0  0  0  0  0  0  0  0  0  0  0  0
  -14.6027    5.7219   -0.0000 C   0  0  0  0  0  0  0  0  0  0  0  0
  -15.9259    4.9709   -0.0000 O   0  0  0  0  0  0  0  0  0  0  0  0
  1  2  2  0  0  0  0
  2  3  1  0  0  0  0
  2  4  1  0  0  0  0
  3  5  1  0  0  0  0
  4  6  2  0  0  0  0
  4  7  1  0  0  0  0
  5  8  2  0  0  0  0
  5  9  1  0  0  0  0
  6 10  1  0  0  0  0
  7 11  1  0  0  0  0
  8 12  1  0  0  0  0
  8 13  1  0  0  0  0
  9 14  2  0  0  0  0
 11 15  1  0  0  0  0
 12 16  2  0  0  0  0
 12 17  1  0  0  0  0
 13 18  2  0  0  0  0
 15 19  3  0  0  0  0
 16 20  1  0  0  0  0
 17 21  1  0  0  0  0
 18 22  1  0  0  0  0
 20 23  1  0  0  0  0
 22 24  1  0  0  0  0
 22 25  1  0  0  0  0
 24 26  1  0  0  0  0
 25 27  1  0  0  0  0
 26 28  1  0  0  0  0
 28 29  1  0  0  0  0
 29 30  1  0  0  0  0
 30 31  1  0  0  0  0
 31 32  1  0  0  0  0
 31 33  1  0  0  0  0
 32 34  1  0  0  0  0
 33 35  1  0  0  0  0
 34 36  1  0  0  0  0
 10 11  2  0  0  0  0
 14 18  1  0  0  0  0
 21 23  1  0  0  0  0
 27 28  1  0  0  0  0
 35 36  1  0  0  0  0
M  END
>  <MolRegNo>
1424764

>  <m>
=

>  <Value>
3800

>  <Unit>
nM

>  <Type>
IC50

>  <pValue>
5.42

>  <Ligand Efficiency>
0

>  <Binding Efficiency>
0

>  <Surface Efficiency>
0

>  <Assay Index>
686580

>  <Assay Category>


>  <Assay Organism>


>  <Target ID>
17045

>  <Target Name>
Cytochrome P450 3A4

>  <Target Organism>
Homo sapiens

>  <Target Description>
Target is a single protein chain

>  <Sequence Accession>
P08684

>  <Reference>
J Med Chem 54 (22), 7860-7883 (2011)

>  <Pubmed ID>
22039836

>  <DOI>
10.1021/jm200900q

$$$$
1424765
Actelion Java MolfileCreator 1.0

 36 40  0  0  0  0  0  0  0  0999 V2000
    0.0000   -0.0000   -0.0000 O   0  0  0  0  0  0  0  0  0  0  0  0
   -0.0119    1.5073   -0.0000 C   0  0  0  0  0  0  0  0  0  0  0  0
    1.2699    2.2669   -0.0000 N   0  0  0  0  0  0  0  0  0  0  0  0
   -1.3293    2.2669   -0.0000 C   0  0  0  0  0  0  0  0  0  0  0  0
    2.5636    1.5310   -0.0000 C   0  0  0  0  0  0  0  0  0  0  0  0
    1.2581    3.7742   -0.0000 C   0  0  0  0  0  0  0  0  0  0  0  0
   -2.6229    1.5310   -0.0000 C   0  0  0  0  0  0  0  0  0  0  0  0
   -1.3411    3.7742   -0.0000 C   0  0  0  0  0  0  0  0  0  0  0  0
    3.8573    2.2906   -0.0000 C   0  0  0  0  0  0  0  0  0  0  0  0
    2.5517    4.5338   -0.0000 C   0  0  0  0  0  0  0  0  0  0  0  0
   -3.9285    2.2788   -0.0000 N   0  0  0  0  0  0  0  0  0  0  0  0
   -2.6467    4.5338   -0.0000 C   0  0  0  0  0  0  0  0  0  0  0  0
    3.8454    3.7979   -0.0000 C   0  0  0  0  0  0  0  0  0  0  0  0
   -3.9522    3.7979   -0.0000 C   0  0  0  0  0  0  0  0  0  0  0  0
    5.1391    4.5575   -0.0000 C   0  0  0  0  0  0  0  0  0  0  0  0
    5.1272    6.0648   -0.0000 C   0  0  0  0  0  0  0  0  0  0  0  0
    6.4209    3.8217   -0.0000 C   0  0  0  0  0  0  0  0  0  0  0  0
    6.4090    6.8244   -0.0000 C   0  0  0  0  0  0  0  0  0  0  0  0
    7.7146    4.5813   -0.0000 C   0  0  0  0  0  0  0  0  0  0  0  0
    7.7027    6.0886   -0.0000 C   0  0  0  0  0  0  0  0  0  0  0  0
    6.3971    8.3317   -0.0000 C   0  0  0  0  0  0  0  0  0  0  0  0
    8.9845    6.8482   -0.0000 N   0  0  0  0  0  0  0  0  0  0  0  0
    7.6908    9.0913   -0.0000 C   0  0  0  0  0  0  0  0  0  0  0  0
    5.0916    9.0913   -0.0000 C   0  0  0  0  0  0  0  0  0  0  0  0
   10.2782    6.1123   -0.0000 C   0  0  0  0  0  0  0  0  0  0  0  0
    7.6790   10.6105   -0.0000 C   0  0  0  0  0  0  0  0  0  0  0  0
    5.0797   10.5986   -0.0000 C   0  0  0  0  0  0  0  0  0  0  0  0
   11.5718    6.8719   -0.0000 O   0  0  0  0  0  0  0  0  0  0  0  0
   10.2663    4.6287   -0.0000 C   0  0  0  0  0  0  0  0  0  0  0  0
    6.3615   11.3701   -0.0000 C   0  0  0  0  0  0  0  0  0  0  0  0
    9.0438    3.7505   -0.0000 N   0  0  0  0  0  0  0  0  0  0  0  0
   11.4769    3.7505   -0.0000 N   0  0  0  0  0  0  0  0  0  0  0  0
    9.4948    2.3381   -0.0000 C   0  0  0  0  0  0  0  0  0  0  0  0
   11.0021    2.3381   -0.0000 C   0  0  0  0  0  0  0  0  0  0  0  0
    8.6047    1.1394   -0.0000 C   0  0  0  0  0  0  0  0  0  0  0  0
    7.7146   -0.0593   -0.0000 N   0  0  0  0  0  0  0  0  0  0  0  0
  1  2  2  0  0  0  0
  2  3  1  0  0  0  0
  2  4  1  0  0  0  0
  3  5  1  0  0  0  0
  3  6  1  0  0  0  0
  4  7  2  0  0  0  0
  4  8  1  0  0  0  0
  5  9  1  0  0  0  0
  6 10  1  0  0  0  0
  7 11  1  0  0  0  0
  8 12  2  0  0  0  0
  9 13  1  0  0  0  0
 11 14  2  0  0  0  0
 13 15  1  0  0  0  0
 15 16  2  0  0  0  0
 15 17  1  0  0  0  0
 16 18  1  0  0  0  0
 17 19  2  0  0  0  0
 18 20  2  0  0  0  0
 18 21  1  0  0  0  0
 20 22  1  0  0  0  0
 21 23  2  0  0  0  0
 21 24  1  0  0  0  0
 22 25  1  0  0  0  0
 23 26  1  0  0  0  0
 24 27  1  0  0  0  0
 25 28  2  0  0  0  0
 25 29  1  0  0  0  0
 26 30  1  0  0  0  0
 29 31  2  0  0  0  0
 29 32  1  0  0  0  0
 31 33  1  0  0  0  0
 32 34  1  0  0  0  0
 33 35  1  0  0  0  0
 35 36  3  0  0  0  0
 10 13  1  0  0  0  0
 12 14  1  0  0  0  0
 19 20  1  0  0  0  0
 27 30  1  0  0  0  0
 33 34  2  0  0  0  0
M  END
>  <MolRegNo>
1424765

>  <m>
=

>  <Value>
6100

>  <Unit>
nM

>  <Type>
IC50

>  <pValue>
5.21

>  <Ligand Efficiency>
0

>  <Binding Efficiency>
0

>  <Surface Efficiency>
0

>  <Assay Index>
686580

>  <Assay Category>


>  <Assay Organism>


>  <Target ID>
17045

>  <Target Name>
Cytochrome P450 3A4

>  <Target Organism>
Homo sapiens

>  <Target Description>
Target is a single protein chain

>  <Sequence Accession>
P08684

>  <Reference>
J Med Chem 54 (22), 7860-7883 (2011)

>  <Pubmed ID>
22039836

>  <DOI>
10.1021/jm200900q

$$$$
1248761
Actelion Java MolfileCreator 1.0

 34 37  0  0  0  0  0  0  0  0999 V2000
    0.0000   -0.0000   -0.0000 O   0  0  0  0  0  0  0  0  0  0  0  0
    1.2875   -0.7323   -0.0000 C   0  0  0  0  0  0  0  0  0  0  0  0
    2.5750    0.0236   -0.0000 N   0  0  0  0  0  0  0  0  0  0  0  0
    1.2757   -2.2207   -0.0000 C   0  0  0  0  0  0  0  0  0  0  0  0
    2.5632    1.5356   -0.0000 C   0  0  0  0  0  0  0  0  0  0  0  0
    2.4805   -3.0948   -0.0000 N   0  0  0  0  0  0  0  0  0  0  0  0
    0.0472   -3.0948   -0.0000 N   0  0  0  0  0  0  0  0  0  0  0  0
    3.8507    2.2915   -0.0000 C   0  0  0  0  0  0  0  0  0  0  0  0
    1.2521    2.2915   -0.0000 C   0  0  0  0  0  0  0  0  0  0  0  0
    2.0081   -4.5122   -0.0000 C   0  0  0  0  0  0  0  0  0  0  0  0
    0.4961   -4.5122   -0.0000 C   0  0  0  0  0  0  0  0  0  0  0  0
    5.1383    1.5474   -0.0000 C   0  0  0  0  0  0  0  0  0  0  0  0
    3.8389    3.8035   -0.0000 C   0  0  0  0  0  0  0  0  0  0  0  0
    1.2403    3.8035   -0.0000 C   0  0  0  0  0  0  0  0  0  0  0  0
    2.8821   -5.7170   -0.0000 C   0  0  0  0  0  0  0  0  0  0  0  0
    6.4258    2.3034   -0.0000 C   0  0  0  0  0  0  0  0  0  0  0  0
    5.1264    0.0591   -0.0000 C   0  0  0  0  0  0  0  0  0  0  0  0
    2.5278    4.5595   -0.0000 C   0  0  0  0  0  0  0  0  0  0  0  0
    3.7562   -6.9219   -0.0000 N   0  0  0  0  0  0  0  0  0  0  0  0
    7.7133    1.5592   -0.0000 C   0  0  0  0  0  0  0  0  0  0  0  0
    6.4140   -0.6733   -0.0000 C   0  0  0  0  0  0  0  0  0  0  0  0
    2.5160    6.0714   -0.0000 C   0  0  0  0  0  0  0  0  0  0  0  0
    7.7015    0.0709   -0.0000 C   0  0  0  0  0  0  0  0  0  0  0  0
    3.8035    6.8274   -0.0000 C   0  0  0  0  0  0  0  0  0  0  0  0
    1.2048    6.8274   -0.0000 C   0  0  0  0  0  0  0  0  0  0  0  0
    3.7917    8.3393   -0.0000 C   0  0  0  0  0  0  0  0  0  0  0  0
    1.1930    8.3393   -0.0000 C   0  0  0  0  0  0  0  0  0  0  0  0
    2.4805    9.1071   -0.0000 N   0  0  0  0  0  0  0  0  0  0  0  0
    2.4687   10.6191   -0.0000 C   0  0  0  0  0  0  0  0  0  0  0  0
    3.7562   11.3750   -0.0000 O   0  0  0  0  0  0  0  0  0  0  0  0
    1.1576   11.3750   -0.0000 C   0  0  0  0  0  0  0  0  0  0  0  0
    1.1458   12.8870   -0.0000 N   0  0  0  0  0  0  0  0  0  0  0  0
   -0.1654   13.6548   -0.0000 C   0  0  0  0  0  0  0  0  0  0  0  0
    2.4333   13.6548   -0.0000 C   0  0  0  0  0  0  0  0  0  0  0  0
  1  2  2  0  0  0  0
  2  3  1  0  0  0  0
  2  4  1  0  0  0  0
  3  5  1  0  0  0  0
  4  6  2  0  0  0  0
  4  7  1  0  0  0  0
  5  8  2  0  0  0  0
  5  9  1  0  0  0  0
  6 10  1  0  0  0  0
  7 11  1  0  0  0  0
  8 12  1  0  0  0  0
  8 13  1  0  0  0  0
  9 14  2  0  0  0  0
 10 15  1  0  0  0  0
 12 16  2  0  0  0  0
 12 17  1  0  0  0  0
 13 18  2  0  0  0  0
 15 19  3  0  0  0  0
 16 20  1  0  0  0  0
 17 21  1  0  0  0  0
 18 22  1  0  0  0  0
 20 23  1  0  0  0  0
 22 24  1  0  0  0  0
 22 25  1  0  0  0  0
 24 26  1  0  0  0  0
 25 27  1  0  0  0  0
 26 28  1  0  0  0  0
 28 29  1  0  0  0  0
 29 30  2  0  0  0  0
 29 31  1  0  0  0  0
 31 32  1  0  0  0  0
 32 33  1  0  0  0  0
 32 34  1  0  0  0  0
 10 11  2  0  0  0  0
 14 18  1  0  0  0  0
 21 23  1  0  0  0  0
 27 28  1  0  0  0  0
M  END
>  <MolRegNo>
1248761

>  <m>
=

>  <Value>
4800

>  <Unit>
nM

>  <Type>
IC50

>  <pValue>
5.32

>  <Ligand Efficiency>
0

>  <Binding Efficiency>
0

>  <Surface Efficiency>
0

>  <Assay Index>
686580

>  <Assay Category>


>  <Assay Organism>


>  <Target ID>
17045

>  <Target Name>
Cytochrome P450 3A4

>  <Target Organism>
Homo sapiens

>  <Target Description>
Target is a single protein chain

>  <Sequence Accession>
P08684

>  <Reference>
J Med Chem 54 (22), 7860-7883 (2011)

>  <Pubmed ID>
22039836

>  <DOI>
10.1021/jm200900q

$$$$
1424822
Actelion Java MolfileCreator 1.0

 34 37  0  0  0  0  0  0  0  0999 V2000
    0.0000   -0.0000   -0.0000 O   0  0  0  0  0  0  0  0  0  0  0  0
   -1.3148   -0.7344   -0.0000 C   0  0  0  0  0  0  0  0  0  0  0  0
   -2.6295    0.0237   -0.0000 N   0  0  0  0  0  0  0  0  0  0  0  0
   -1.3266   -2.2150   -0.0000 C   0  0  0  0  0  0  0  0  0  0  0  0
   -3.9325   -0.7107   -0.0000 C   0  0  0  0  0  0  0  0  0  0  0  0
   -2.5466   -3.0915   -0.0000 N   0  0  0  0  0  0  0  0  0  0  0  0
   -0.1184   -3.0915   -0.0000 N   0  0  0  0  0  0  0  0  0  0  0  0
   -5.2472    0.0474   -0.0000 C   0  0  0  0  0  0  0  0  0  0  0  0
   -3.9443   -2.1913   -0.0000 C   0  0  0  0  0  0  0  0  0  0  0  0
   -2.0965   -4.5010   -0.0000 C   0  0  0  0  0  0  0  0  0  0  0  0
   -0.5922   -4.5010   -0.0000 C   0  0  0  0  0  0  0  0  0  0  0  0
   -5.2591    1.5517   -0.0000 C   0  0  0  0  0  0  0  0  0  0  0  0
   -6.5502   -0.6870   -0.0000 C   0  0  0  0  0  0  0  0  0  0  0  0
   -5.2591   -2.9257   -0.0000 C   0  0  0  0  0  0  0  0  0  0  0  0
   -2.9849   -5.6973   -0.0000 C   0  0  0  0  0  0  0  0  0  0  0  0
   -3.9680    2.3097   -0.0000 C   0  0  0  0  0  0  0  0  0  0  0  0
   -6.5620    2.3097   -0.0000 C   0  0  0  0  0  0  0  0  0  0  0  0
   -6.5620   -2.1676   -0.0000 C   0  0  0  0  0  0  0  0  0  0  0  0
   -3.8732   -6.8937   -0.0000 N   0  0  0  0  0  0  0  0  0  0  0  0
   -3.9798    3.8259   -0.0000 C   0  0  0  0  0  0  0  0  0  0  0  0
   -6.5738    3.8140   -0.0000 C   0  0  0  0  0  0  0  0  0  0  0  0
   -7.8768   -2.9020   -0.0000 C   0  0  0  0  0  0  0  0  0  0  0  0
   -5.2946    4.5839   -0.0000 C   0  0  0  0  0  0  0  0  0  0  0  0
   -7.8886   -4.3826   -0.0000 C   0  0  0  0  0  0  0  0  0  0  0  0
   -9.1915   -2.1439   -0.0000 C   0  0  0  0  0  0  0  0  0  0  0  0
   -9.2034   -5.1169   -0.0000 C   0  0  0  0  0  0  0  0  0  0  0  0
  -10.5063   -2.8783   -0.0000 C   0  0  0  0  0  0  0  0  0  0  0  0
  -10.5181   -4.3589   -0.0000 N   0  0  0  0  0  0  0  0  0  0  0  0
  -11.8211   -5.0932   -0.0000 C   0  0  0  0  0  0  0  0  0  0  0  0
  -11.8329   -6.5738   -0.0000 O   0  0  0  0  0  0  0  0  0  0  0  0
  -13.1358   -4.3352   -0.0000 C   0  0  0  0  0  0  0  0  0  0  0  0
  -13.1477   -2.8309   -0.0000 O   0  0  0  0  0  0  0  0  0  0  0  0
  -14.4388   -5.0696   -0.0000 C   0  0  0  0  0  0  0  0  0  0  0  0
  -15.7535   -4.3115   -0.0000 O   0  0  0  0  0  0  0  0  0  0  0  0
  1  2  2  0  0  0  0
  2  3  1  0  0  0  0
  2  4  1  0  0  0  0
  3  5  1  0  0  0  0
  4  6  2  0  0  0  0
  4  7  1  0  0  0  0
  5  8  2  0  0  0  0
  5  9  1  0  0  0  0
  6 10  1  0  0  0  0
  7 11  1  0  0  0  0
  8 12  1  0  0  0  0
  8 13  1  0  0  0  0
  9 14  2  0  0  0  0
 10 15  1  0  0  0  0
 12 16  2  0  0  0  0
 12 17  1  0  0  0  0
 13 18  2  0  0  0  0
 15 19  3  0  0  0  0
 16 20  1  0  0  0  0
 17 21  1  0  0  0  0
 18 22  1  0  0  0  0
 20 23  1  0  0  0  0
 22 24  1  0  0  0  0
 22 25  1  0  0  0  0
 24 26  1  0  0  0  0
 25 27  1  0  0  0  0
 26 28  1  0  0  0  0
 28 29  1  0  0  0  0
 29 30  2  0  0  0  0
 29 31  1  0  0  0  0
 31 32  1  6  0  0  0
 31 33  1  0  0  0  0
 33 34  1  0  0  0  0
 10 11  2  0  0  0  0
 14 18  1  0  0  0  0
 21 23  1  0  0  0  0
 27 28  1  0  0  0  0
M  END
>  <MolRegNo>
1424822

>  <m>
=

>  <Value>
8200

>  <Unit>
nM

>  <Type>
IC50

>  <pValue>
5.09

>  <Ligand Efficiency>
0

>  <Binding Efficiency>
0

>  <Surface Efficiency>
0

>  <Assay Index>
686580

>  <Assay Category>


>  <Assay Organism>


>  <Target ID>
17045

>  <Target Name>
Cytochrome P450 3A4

>  <Target Organism>
Homo sapiens

>  <Target Description>
Target is a single protein chain

>  <Sequence Accession>
P08684

>  <Reference>
J Med Chem 54 (22), 7860-7883 (2011)

>  <Pubmed ID>
22039836

>  <DOI>
10.1021/jm200900q

$$$$
1424823
Actelion Java MolfileCreator 1.0

 35 38  0  0  0  0  0  0  0  0999 V2000
    0.0000   -0.0000   -0.0000 O   0  0  0  0  0  0  0  0  0  0  0  0
   -1.3146   -0.7343   -0.0000 C   0  0  0  0  0  0  0  0  0  0  0  0
   -2.6291    0.0237   -0.0000 N   0  0  0  0  0  0  0  0  0  0  0  0
   -1.3264   -2.2146   -0.0000 C   0  0  0  0  0  0  0  0  0  0  0  0
   -3.9318   -0.7106   -0.0000 C   0  0  0  0  0  0  0  0  0  0  0  0
   -2.5462   -3.0910   -0.0000 N   0  0  0  0  0  0  0  0  0  0  0  0
   -0.1184   -3.0910   -0.0000 N   0  0  0  0  0  0  0  0  0  0  0  0
   -5.2464    0.0474   -0.0000 C   0  0  0  0  0  0  0  0  0  0  0  0
   -3.9437   -2.1909   -0.0000 C   0  0  0  0  0  0  0  0  0  0  0  0
   -2.0962   -4.5003   -0.0000 C   0  0  0  0  0  0  0  0  0  0  0  0
   -0.5921   -4.5003   -0.0000 C   0  0  0  0  0  0  0  0  0  0  0  0
   -5.2582    1.5514   -0.0000 C   0  0  0  0  0  0  0  0  0  0  0  0
   -6.5491   -0.6869   -0.0000 C   0  0  0  0  0  0  0  0  0  0  0  0
   -5.2582   -2.9252   -0.0000 C   0  0  0  0  0  0  0  0  0  0  0  0
   -2.9844   -5.6964   -0.0000 C   0  0  0  0  0  0  0  0  0  0  0  0
   -3.9674    2.3094   -0.0000 C   0  0  0  0  0  0  0  0  0  0  0  0
   -6.5610    2.3094   -0.0000 C   0  0  0  0  0  0  0  0  0  0  0  0
   -6.5610   -2.1673   -0.0000 C   0  0  0  0  0  0  0  0  0  0  0  0
   -3.8726   -6.8926   -0.0000 N   0  0  0  0  0  0  0  0  0  0  0  0
   -3.9792    3.8253   -0.0000 C   0  0  0  0  0  0  0  0  0  0  0  0
   -6.5728    3.8134   -0.0000 C   0  0  0  0  0  0  0  0  0  0  0  0
   -7.8755   -2.9015   -0.0000 C   0  0  0  0  0  0  0  0  0  0  0  0
   -5.2938    4.5832   -0.0000 C   0  0  0  0  0  0  0  0  0  0  0  0
   -7.8874   -4.3819   -0.0000 C   0  0  0  0  0  0  0  0  0  0  0  0
   -9.1901   -2.1436   -0.0000 C   0  0  0  0  0  0  0  0  0  0  0  0
   -9.2019   -5.1161   -0.0000 C   0  0  0  0  0  0  0  0  0  0  0  0
  -10.5047   -2.8778   -0.0000 C   0  0  0  0  0  0  0  0  0  0  0  0
  -10.5165   -4.3582   -0.0000 N   0  0  0  0  0  0  0  0  0  0  0  0
  -11.8192   -5.0924   -0.0000 C   0  0  0  0  0  0  0  0  0  0  0  0
  -11.8311   -6.5728   -0.0000 O   0  0  0  0  0  0  0  0  0  0  0  0
  -13.1338   -4.3345   -0.0000 C   0  0  0  0  0  0  0  0  0  0  0  0
  -14.4365   -5.0688   -0.0000 N   0  0  0  0  0  0  0  0  0  0  0  0
  -15.7511   -4.3108   -0.0000 C   0  0  0  0  0  0  0  0  0  0  0  0
  -17.0538   -5.0451   -0.0000 C   0  0  0  0  0  0  0  0  0  0  0  0
  -18.3683   -4.2871   -0.0000 O   0  0  0  0  0  0  0  0  0  0  0  0
  1  2  2  0  0  0  0
  2  3  1  0  0  0  0
  2  4  1  0  0  0  0
  3  5  1  0  0  0  0
  4  6  2  0  0  0  0
  4  7  1  0  0  0  0
  5  8  2  0  0  0  0
  5  9  1  0  0  0  0
  6 10  1  0  0  0  0
  7 11  1  0  0  0  0
  8 12  1  0  0  0  0
  8 13  1  0  0  0  0
  9 14  2  0  0  0  0
 10 15  1  0  0  0  0
 12 16  2  0  0  0  0
 12 17  1  0  0  0  0
 13 18  2  0  0  0  0
 15 19  3  0  0  0  0
 16 20  1  0  0  0  0
 17 21  1  0  0  0  0
 18 22  1  0  0  0  0
 20 23  1  0  0  0  0
 22 24  1  0  0  0  0
 22 25  1  0  0  0  0
 24 26  1  0  0  0  0
 25 27  1  0  0  0  0
 26 28  1  0  0  0  0
 28 29  1  0  0  0  0
 29 30  2  0  0  0  0
 29 31  1  0  0  0  0
 31 32  1  0  0  0  0
 32 33  1  0  0  0  0
 33 34  1  0  0  0  0
 34 35  1  0  0  0  0
 10 11  2  0  0  0  0
 14 18  1  0  0  0  0
 21 23  1  0  0  0  0
 27 28  1  0  0  0  0
M  END
>  <MolRegNo>
1424823

>  <m>
=

>  <Value>
5100

>  <Unit>
nM

>  <Type>
IC50

>  <pValue>
5.29

>  <Ligand Efficiency>
0

>  <Binding Efficiency>
0

>  <Surface Efficiency>
0

>  <Assay Index>
686580

>  <Assay Category>


>  <Assay Organism>


>  <Target ID>
17045

>  <Target Name>
Cytochrome P450 3A4

>  <Target Organism>
Homo sapiens

>  <Target Description>
Target is a single protein chain

>  <Sequence Accession>
P08684

>  <Reference>
J Med Chem 54 (22), 7860-7883 (2011)

>  <Pubmed ID>
22039836

>  <DOI>
10.1021/jm200900q

$$$$
1424824
Actelion Java MolfileCreator 1.0

 36 39  0  0  0  0  0  0  0  0999 V2000
    0.0000   -0.0000   -0.0000 O   0  0  0  0  0  0  0  0  0  0  0  0
   -1.3150   -0.7345   -0.0000 C   0  0  0  0  0  0  0  0  0  0  0  0
   -2.6300    0.0237   -0.0000 N   0  0  0  0  0  0  0  0  0  0  0  0
   -1.3268   -2.2154   -0.0000 C   0  0  0  0  0  0  0  0  0  0  0  0
   -3.9332   -0.7108   -0.0000 C   0  0  0  0  0  0  0  0  0  0  0  0
   -2.5471   -3.0920   -0.0000 N   0  0  0  0  0  0  0  0  0  0  0  0
   -0.1185   -3.0920   -0.0000 N   0  0  0  0  0  0  0  0  0  0  0  0
   -5.2482    0.0474   -0.0000 C   0  0  0  0  0  0  0  0  0  0  0  0
   -3.9450   -2.1917   -0.0000 C   0  0  0  0  0  0  0  0  0  0  0  0
   -2.0969   -4.5018   -0.0000 C   0  0  0  0  0  0  0  0  0  0  0  0
   -0.5923   -4.5018   -0.0000 C   0  0  0  0  0  0  0  0  0  0  0  0
   -5.2600    1.5519   -0.0000 C   0  0  0  0  0  0  0  0  0  0  0  0
   -6.5513   -0.6871   -0.0000 C   0  0  0  0  0  0  0  0  0  0  0  0
   -5.2600   -2.9262   -0.0000 C   0  0  0  0  0  0  0  0  0  0  0  0
   -2.9854   -5.6983   -0.0000 C   0  0  0  0  0  0  0  0  0  0  0  0
   -3.9687    2.3101   -0.0000 C   0  0  0  0  0  0  0  0  0  0  0  0
   -6.5632    2.3101   -0.0000 C   0  0  0  0  0  0  0  0  0  0  0  0
   -6.5632   -2.1680   -0.0000 C   0  0  0  0  0  0  0  0  0  0  0  0
   -3.8739   -6.8949   -0.0000 N   0  0  0  0  0  0  0  0  0  0  0  0
   -3.9805    3.8265   -0.0000 C   0  0  0  0  0  0  0  0  0  0  0  0
   -6.5750    3.8147   -0.0000 C   0  0  0  0  0  0  0  0  0  0  0  0
   -7.8782   -2.9025   -0.0000 C   0  0  0  0  0  0  0  0  0  0  0  0
   -5.2956    4.5847   -0.0000 C   0  0  0  0  0  0  0  0  0  0  0  0
   -7.8900   -4.3833   -0.0000 C   0  0  0  0  0  0  0  0  0  0  0  0
   -9.1932   -2.1443   -0.0000 C   0  0  0  0  0  0  0  0  0  0  0  0
   -9.2050   -5.1178   -0.0000 C   0  0  0  0  0  0  0  0  0  0  0  0
  -10.5082   -2.8788   -0.0000 C   0  0  0  0  0  0  0  0  0  0  0  0
  -10.5200   -4.3596   -0.0000 N   0  0  0  0  0  0  0  0  0  0  0  0
  -11.8232   -5.0942   -0.0000 C   0  0  0  0  0  0  0  0  0  0  0  0
  -11.8350   -6.5750   -0.0000 O   0  0  0  0  0  0  0  0  0  0  0  0
  -13.1382   -4.3360   -0.0000 C   0  0  0  0  0  0  0  0  0  0  0  0
  -14.4413   -5.0705   -0.0000 N   0  0  0  0  0  0  0  0  0  0  0  0
  -15.7563   -4.3123   -0.0000 C   0  0  0  0  0  0  0  0  0  0  0  0
  -14.4532   -6.5513   -0.0000 C   0  0  0  0  0  0  0  0  0  0  0  0
  -17.0595   -5.0468   -0.0000 C   0  0  0  0  0  0  0  0  0  0  0  0
  -18.3745   -4.2886   -0.0000 O   0  0  0  0  0  0  0  0  0  0  0  0
  1  2  2  0  0  0  0
  2  3  1  0  0  0  0
  2  4  1  0  0  0  0
  3  5  1  0  0  0  0
  4  6  2  0  0  0  0
  4  7  1  0  0  0  0
  5  8  2  0  0  0  0
  5  9  1  0  0  0  0
  6 10  1  0  0  0  0
  7 11  1  0  0  0  0
  8 12  1  0  0  0  0
  8 13  1  0  0  0  0
  9 14  2  0  0  0  0
 10 15  1  0  0  0  0
 12 16  2  0  0  0  0
 12 17  1  0  0  0  0
 13 18  2  0  0  0  0
 15 19  3  0  0  0  0
 16 20  1  0  0  0  0
 17 21  1  0  0  0  0
 18 22  1  0  0  0  0
 20 23  1  0  0  0  0
 22 24  1  0  0  0  0
 22 25  1  0  0  0  0
 24 26  1  0  0  0  0
 25 27  1  0  0  0  0
 26 28  1  0  0  0  0
 28 29  1  0  0  0  0
 29 30  2  0  0  0  0
 29 31  1  0  0  0  0
 31 32  1  0  0  0  0
 32 33  1  0  0  0  0
 32 34  1  0  0  0  0
 33 35  1  0  0  0  0
 35 36  1  0  0  0  0
 10 11  2  0  0  0  0
 14 18  1  0  0  0  0
 21 23  1  0  0  0  0
 27 28  1  0  0  0  0
M  END
>  <MolRegNo>
1424824

>  <m>
=

>  <Value>
6700

>  <Unit>
nM

>  <Type>
IC50

>  <pValue>
5.17

>  <Ligand Efficiency>
0

>  <Binding Efficiency>
0

>  <Surface Efficiency>
0

>  <Assay Index>
686580

>  <Assay Category>


>  <Assay Organism>


>  <Target ID>
17045

>  <Target Name>
Cytochrome P450 3A4

>  <Target Organism>
Homo sapiens

>  <Target Description>
Target is a single protein chain

>  <Sequence Accession>
P08684

>  <Reference>
J Med Chem 54 (22), 7860-7883 (2011)

>  <Pubmed ID>
22039836

>  <DOI>
10.1021/jm200900q

$$$$
1424826
Actelion Java MolfileCreator 1.0

 37 41  0  0  0  0  0  0  0  0999 V2000
    0.0000   -0.0000   -0.0000 O   0  0  0  0  0  0  0  0  0  0  0  0
   -0.0119    1.5072   -0.0000 C   0  0  0  0  0  0  0  0  0  0  0  0
    1.2698    2.2667   -0.0000 N   0  0  0  0  0  0  0  0  0  0  0  0
   -1.3292    2.2667   -0.0000 C   0  0  0  0  0  0  0  0  0  0  0  0
    2.5634    1.5309   -0.0000 C   0  0  0  0  0  0  0  0  0  0  0  0
    1.2580    3.7739   -0.0000 C   0  0  0  0  0  0  0  0  0  0  0  0
   -2.6228    1.5309   -0.0000 C   0  0  0  0  0  0  0  0  0  0  0  0
   -1.3410    3.7739   -0.0000 C   0  0  0  0  0  0  0  0  0  0  0  0
    3.8570    2.2905   -0.0000 C   0  0  0  0  0  0  0  0  0  0  0  0
    2.5516    4.5335   -0.0000 C   0  0  0  0  0  0  0  0  0  0  0  0
   -3.9282    2.2786   -0.0000 N   0  0  0  0  0  0  0  0  0  0  0  0
   -2.6465    4.5335   -0.0000 C   0  0  0  0  0  0  0  0  0  0  0  0
    3.8451    3.7977   -0.0000 C   0  0  0  0  0  0  0  0  0  0  0  0
   -5.2336    1.5309   -0.0000 O   0  0  0  0  0  0  0  0  0  0  0  0
   -3.9519    3.7977   -0.0000 C   0  0  0  0  0  0  0  0  0  0  0  0
    5.1387    4.5572   -0.0000 C   0  0  0  0  0  0  0  0  0  0  0  0
    5.1268    6.0644   -0.0000 C   0  0  0  0  0  0  0  0  0  0  0  0
    6.4204    3.8214   -0.0000 C   0  0  0  0  0  0  0  0  0  0  0  0
    6.4085    6.8239   -0.0000 C   0  0  0  0  0  0  0  0  0  0  0  0
    7.7140    4.5809   -0.0000 C   0  0  0  0  0  0  0  0  0  0  0  0
    7.7021    6.0881   -0.0000 C   0  0  0  0  0  0  0  0  0  0  0  0
    6.3967    8.3311   -0.0000 C   0  0  0  0  0  0  0  0  0  0  0  0
    8.9838    6.8477   -0.0000 N   0  0  0  0  0  0  0  0  0  0  0  0
    7.6903    9.0906   -0.0000 C   0  0  0  0  0  0  0  0  0  0  0  0
    5.0912    9.0906   -0.0000 C   0  0  0  0  0  0  0  0  0  0  0  0
   10.2774    6.1119   -0.0000 C   0  0  0  0  0  0  0  0  0  0  0  0
    7.6784   10.6097   -0.0000 C   0  0  0  0  0  0  0  0  0  0  0  0
    5.0794   10.5978   -0.0000 C   0  0  0  0  0  0  0  0  0  0  0  0
   11.5710    6.8714   -0.0000 O   0  0  0  0  0  0  0  0  0  0  0  0
   10.2655    4.6284   -0.0000 C   0  0  0  0  0  0  0  0  0  0  0  0
    6.3611   11.3692   -0.0000 C   0  0  0  0  0  0  0  0  0  0  0  0
    9.0432    3.7502   -0.0000 N   0  0  0  0  0  0  0  0  0  0  0  0
   11.4760    3.7502   -0.0000 N   0  0  0  0  0  0  0  0  0  0  0  0
    9.4941    2.3379   -0.0000 C   0  0  0  0  0  0  0  0  0  0  0  0
   11.0013    2.3379   -0.0000 C   0  0  0  0  0  0  0  0  0  0  0  0
    8.6041    1.1393   -0.0000 C   0  0  0  0  0  0  0  0  0  0  0  0
    7.7140   -0.0593   -0.0000 N   0  0  0  0  0  0  0  0  0  0  0  0
  1  2  2  0  0  0  0
  2  3  1  0  0  0  0
  2  4  1  0  0  0  0
  3  5  1  0  0  0  0
  3  6  1  0  0  0  0
  4  7  2  0  0  0  0
  4  8  1  0  0  0  0
  5  9  1  0  0  0  0
  6 10  1  0  0  0  0
  7 11  1  0  0  0  0
  8 12  2  0  0  0  0
  9 13  1  0  0  0  0
 11 14  1  0  0  0  0
 11 15  2  0  0  0  0
 13 16  1  0  0  0  0
 16 17  2  0  0  0  0
 16 18  1  0  0  0  0
 17 19  1  0  0  0  0
 18 20  2  0  0  0  0
 19 21  2  0  0  0  0
 19 22  1  0  0  0  0
 21 23  1  0  0  0  0
 22 24  2  0  0  0  0
 22 25  1  0  0  0  0
 23 26  1  0  0  0  0
 24 27  1  0  0  0  0
 25 28  1  0  0  0  0
 26 29  2  0  0  0  0
 26 30  1  0  0  0  0
 27 31  1  0  0  0  0
 30 32  2  0  0  0  0
 30 33  1  0  0  0  0
 32 34  1  0  0  0  0
 33 35  1  0  0  0  0
 34 36  1  0  0  0  0
 36 37  3  0  0  0  0
 10 13  1  0  0  0  0
 12 15  1  0  0  0  0
 20 21  1  0  0  0  0
 28 31  1  0  0  0  0
 34 35  2  0  0  0  0
M  CHG  2  11   1  14  -1
M  END
>  <MolRegNo>
1424826

>  <m>
=

>  <Value>
1900

>  <Unit>
nM

>  <Type>
IC50

>  <pValue>
5.72

>  <Ligand Efficiency>
0

>  <Binding Efficiency>
0

>  <Surface Efficiency>
0

>  <Assay Index>
686580

>  <Assay Category>


>  <Assay Organism>


>  <Target ID>
17045

>  <Target Name>
Cytochrome P450 3A4

>  <Target Organism>
Homo sapiens

>  <Target Description>
Target is a single protein chain

>  <Sequence Accession>
P08684

>  <Reference>
J Med Chem 54 (22), 7860-7883 (2011)

>  <Pubmed ID>
22039836

>  <DOI>
10.1021/jm200900q

$$$$
1424829
Actelion Java MolfileCreator 1.0

 37 41  0  0  0  0  0  0  0  0999 V2000
    0.0000   -0.0000   -0.0000 O   0  0  0  0  0  0  0  0  0  0  0  0
   -1.3153   -0.7347   -0.0000 C   0  0  0  0  0  0  0  0  0  0  0  0
   -2.6307    0.0237   -0.0000 N   0  0  0  0  0  0  0  0  0  0  0  0
   -1.3272   -2.2159   -0.0000 C   0  0  0  0  0  0  0  0  0  0  0  0
   -3.9341   -0.7110   -0.0000 C   0  0  0  0  0  0  0  0  0  0  0  0
   -2.5477   -3.0928   -0.0000 N   0  0  0  0  0  0  0  0  0  0  0  0
   -0.1185   -3.0928   -0.0000 N   0  0  0  0  0  0  0  0  0  0  0  0
   -5.2495    0.0474   -0.0000 C   0  0  0  0  0  0  0  0  0  0  0  0
   -3.9460   -2.1922   -0.0000 C   0  0  0  0  0  0  0  0  0  0  0  0
   -2.0974   -4.5029   -0.0000 C   0  0  0  0  0  0  0  0  0  0  0  0
   -0.5925   -4.5029   -0.0000 C   0  0  0  0  0  0  0  0  0  0  0  0
   -5.2613    1.5523   -0.0000 C   0  0  0  0  0  0  0  0  0  0  0  0
   -6.5529   -0.6873   -0.0000 C   0  0  0  0  0  0  0  0  0  0  0  0
   -5.2613   -2.9269   -0.0000 C   0  0  0  0  0  0  0  0  0  0  0  0
   -2.9862   -5.6998   -0.0000 C   0  0  0  0  0  0  0  0  0  0  0  0
   -3.9697    2.3107   -0.0000 C   0  0  0  0  0  0  0  0  0  0  0  0
   -6.5648    2.3107   -0.0000 C   0  0  0  0  0  0  0  0  0  0  0  0
   -6.5648   -2.1685   -0.0000 C   0  0  0  0  0  0  0  0  0  0  0  0
   -3.8749   -6.8966   -0.0000 N   0  0  0  0  0  0  0  0  0  0  0  0
   -3.9815    3.8275   -0.0000 C   0  0  0  0  0  0  0  0  0  0  0  0
   -6.5766    3.8156   -0.0000 C   0  0  0  0  0  0  0  0  0  0  0  0
   -7.8801   -2.9032   -0.0000 C   0  0  0  0  0  0  0  0  0  0  0  0
   -5.2969    4.5859   -0.0000 C   0  0  0  0  0  0  0  0  0  0  0  0
   -7.8920   -4.3844   -0.0000 C   0  0  0  0  0  0  0  0  0  0  0  0
   -9.1955   -2.1448   -0.0000 C   0  0  0  0  0  0  0  0  0  0  0  0
   -9.2073   -5.1191   -0.0000 C   0  0  0  0  0  0  0  0  0  0  0  0
  -10.5108   -2.8795   -0.0000 C   0  0  0  0  0  0  0  0  0  0  0  0
  -10.5226   -4.3607   -0.0000 N   0  0  0  0  0  0  0  0  0  0  0  0
  -11.8261   -5.0954   -0.0000 C   0  0  0  0  0  0  0  0  0  0  0  0
  -11.8380   -6.5766   -0.0000 O   0  0  0  0  0  0  0  0  0  0  0  0
  -13.1414   -4.3370   -0.0000 C   0  0  0  0  0  0  0  0  0  0  0  0
  -14.3501   -5.2139   -0.0000 C   0  0  0  0  0  0  0  0  0  0  0  0
  -14.3501   -6.7070   -0.0000 N   0  0  0  0  0  0  0  0  0  0  0  0
  -15.7958   -4.7636   -0.0000 C   0  0  0  0  0  0  0  0  0  0  0  0
  -15.7839   -7.1691   -0.0000 C   0  0  0  0  0  0  0  0  0  0  0  0
  -16.6727   -5.9723   -0.0000 N   0  0  0  0  0  0  0  0  0  0  0  0
  -18.1776   -5.9723   -0.0000 C   0  0  0  0  0  0  0  0  0  0  0  0
  1  2  2  0  0  0  0
  2  3  1  0  0  0  0
  2  4  1  0  0  0  0
  3  5  1  0  0  0  0
  4  6  2  0  0  0  0
  4  7  1  0  0  0  0
  5  8  2  0  0  0  0
  5  9  1  0  0  0  0
  6 10  1  0  0  0  0
  7 11  1  0  0  0  0
  8 12  1  0  0  0  0
  8 13  1  0  0  0  0
  9 14  2  0  0  0  0
 10 15  1  0  0  0  0
 12 16  2  0  0  0  0
 12 17  1  0  0  0  0
 13 18  2  0  0  0  0
 15 19  3  0  0  0  0
 16 20  1  0  0  0  0
 17 21  1  0  0  0  0
 18 22  1  0  0  0  0
 20 23  1  0  0  0  0
 22 24  1  0  0  0  0
 22 25  1  0  0  0  0
 24 26  1  0  0  0  0
 25 27  1  0  0  0  0
 26 28  1  0  0  0  0
 28 29  1  0  0  0  0
 29 30  2  0  0  0  0
 29 31  1  0  0  0  0
 31 32  1  0  0  0  0
 32 33  1  0  0  0  0
 32 34  2  0  0  0  0
 33 35  2  0  0  0  0
 34 36  1  0  0  0  0
 36 37  1  0  0  0  0
 10 11  2  0  0  0  0
 14 18  1  0  0  0  0
 21 23  1  0  0  0  0
 27 28  1  0  0  0  0
 35 36  1  0  0  0  0
M  END
>  <MolRegNo>
1424829

>  <m>
=

>  <Value>
2300

>  <Unit>
nM

>  <Type>
IC50

>  <pValue>
5.64

>  <Ligand Efficiency>
0

>  <Binding Efficiency>
0

>  <Surface Efficiency>
0

>  <Assay Index>
686580

>  <Assay Category>


>  <Assay Organism>


>  <Target ID>
17045

>  <Target Name>
Cytochrome P450 3A4

>  <Target Organism>
Homo sapiens

>  <Target Description>
Target is a single protein chain

>  <Sequence Accession>
P08684

>  <Reference>
J Med Chem 54 (22), 7860-7883 (2011)

>  <Pubmed ID>
22039836

>  <DOI>
10.1021/jm200900q

$$$$
1424830
Actelion Java MolfileCreator 1.0

 37 41  0  0  0  0  0  0  0  0999 V2000
    0.0000   -0.0000   -0.0000 O   0  0  0  0  0  0  0  0  0  0  0  0
   -1.3153   -0.7347   -0.0000 C   0  0  0  0  0  0  0  0  0  0  0  0
   -2.6307    0.0237   -0.0000 N   0  0  0  0  0  0  0  0  0  0  0  0
   -1.3272   -2.2159   -0.0000 C   0  0  0  0  0  0  0  0  0  0  0  0
   -3.9342   -0.7110   -0.0000 C   0  0  0  0  0  0  0  0  0  0  0  0
   -2.5477   -3.0928   -0.0000 N   0  0  0  0  0  0  0  0  0  0  0  0
   -0.1185   -3.0928   -0.0000 N   0  0  0  0  0  0  0  0  0  0  0  0
   -5.2495    0.0474   -0.0000 C   0  0  0  0  0  0  0  0  0  0  0  0
   -3.9460   -2.1922   -0.0000 C   0  0  0  0  0  0  0  0  0  0  0  0
   -2.0974   -4.5030   -0.0000 C   0  0  0  0  0  0  0  0  0  0  0  0
   -0.5925   -4.5030   -0.0000 C   0  0  0  0  0  0  0  0  0  0  0  0
   -5.2614    1.5523   -0.0000 C   0  0  0  0  0  0  0  0  0  0  0  0
   -6.5530   -0.6873   -0.0000 C   0  0  0  0  0  0  0  0  0  0  0  0
   -5.2614   -2.9269   -0.0000 C   0  0  0  0  0  0  0  0  0  0  0  0
   -2.9862   -5.6998   -0.0000 C   0  0  0  0  0  0  0  0  0  0  0  0
   -3.9697    2.3107   -0.0000 C   0  0  0  0  0  0  0  0  0  0  0  0
   -6.5649    2.3107   -0.0000 C   0  0  0  0  0  0  0  0  0  0  0  0
   -6.5649   -2.1685   -0.0000 C   0  0  0  0  0  0  0  0  0  0  0  0
   -3.8749   -6.8966   -0.0000 N   0  0  0  0  0  0  0  0  0  0  0  0
   -3.9816    3.8275   -0.0000 C   0  0  0  0  0  0  0  0  0  0  0  0
   -6.5767    3.8157   -0.0000 C   0  0  0  0  0  0  0  0  0  0  0  0
   -7.8802   -2.9032   -0.0000 C   0  0  0  0  0  0  0  0  0  0  0  0
   -5.2969    4.5859   -0.0000 C   0  0  0  0  0  0  0  0  0  0  0  0
   -7.8920   -4.3845   -0.0000 C   0  0  0  0  0  0  0  0  0  0  0  0
   -9.1955   -2.1448   -0.0000 C   0  0  0  0  0  0  0  0  0  0  0  0
   -9.2074   -5.1192   -0.0000 C   0  0  0  0  0  0  0  0  0  0  0  0
  -10.5109   -2.8795   -0.0000 C   0  0  0  0  0  0  0  0  0  0  0  0
  -10.5227   -4.3608   -0.0000 N   0  0  0  0  0  0  0  0  0  0  0  0
  -11.8262   -5.0955   -0.0000 C   0  0  0  0  0  0  0  0  0  0  0  0
  -11.8381   -6.5767   -0.0000 O   0  0  0  0  0  0  0  0  0  0  0  0
  -13.1416   -4.3371   -0.0000 C   0  0  0  0  0  0  0  0  0  0  0  0
  -14.4450   -5.0718   -0.0000 C   0  0  0  0  0  0  0  0  0  0  0  0
  -15.7485   -4.3134   -0.0000 N   0  0  0  0  0  0  0  0  0  0  0  0
  -14.4450   -6.5530   -0.0000 C   0  0  0  0  0  0  0  0  0  0  0  0
  -17.0520   -5.0481   -0.0000 C   0  0  0  0  0  0  0  0  0  0  0  0
  -15.7485   -7.2995   -0.0000 C   0  0  0  0  0  0  0  0  0  0  0  0
  -17.0639   -6.5412   -0.0000 C   0  0  0  0  0  0  0  0  0  0  0  0
  1  2  2  0  0  0  0
  2  3  1  0  0  0  0
  2  4  1  0  0  0  0
  3  5  1  0  0  0  0
  4  6  2  0  0  0  0
  4  7  1  0  0  0  0
  5  8  2  0  0  0  0
  5  9  1  0  0  0  0
  6 10  1  0  0  0  0
  7 11  1  0  0  0  0
  8 12  1  0  0  0  0
  8 13  1  0  0  0  0
  9 14  2  0  0  0  0
 10 15  1  0  0  0  0
 12 16  2  0  0  0  0
 12 17  1  0  0  0  0
 13 18  2  0  0  0  0
 15 19  3  0  0  0  0
 16 20  1  0  0  0  0
 17 21  1  0  0  0  0
 18 22  1  0  0  0  0
 20 23  1  0  0  0  0
 22 24  1  0  0  0  0
 22 25  1  0  0  0  0
 24 26  1  0  0  0  0
 25 27  1  0  0  0  0
 26 28  1  0  0  0  0
 28 29  1  0  0  0  0
 29 30  2  0  0  0  0
 29 31  1  0  0  0  0
 31 32  1  0  0  0  0
 32 33  2  0  0  0  0
 32 34  1  0  0  0  0
 33 35  1  0  0  0  0
 34 36  2  0  0  0  0
 35 37  2  0  0  0  0
 10 11  2  0  0  0  0
 14 18  1  0  0  0  0
 21 23  1  0  0  0  0
 27 28  1  0  0  0  0
 36 37  1  0  0  0  0
M  END
>  <MolRegNo>
1424830

>  <m>
=

>  <Value>
1500

>  <Unit>
nM

>  <Type>
IC50

>  <pValue>
5.82

>  <Ligand Efficiency>
0

>  <Binding Efficiency>
0

>  <Surface Efficiency>
0

>  <Assay Index>
686580

>  <Assay Category>


>  <Assay Organism>


>  <Target ID>
17045

>  <Target Name>
Cytochrome P450 3A4

>  <Target Organism>
Homo sapiens

>  <Target Description>
Target is a single protein chain

>  <Sequence Accession>
P08684

>  <Reference>
J Med Chem 54 (22), 7860-7883 (2011)

>  <Pubmed ID>
22039836

>  <DOI>
10.1021/jm200900q

$$$$
1424832
Actelion Java MolfileCreator 1.0

 37 41  0  0  0  0  0  0  0  0999 V2000
    0.0000   -0.0000   -0.0000 O   0  0  0  0  0  0  0  0  0  0  0  0
   -1.3153   -0.7347   -0.0000 C   0  0  0  0  0  0  0  0  0  0  0  0
   -2.6307    0.0237   -0.0000 N   0  0  0  0  0  0  0  0  0  0  0  0
   -1.3272   -2.2159   -0.0000 C   0  0  0  0  0  0  0  0  0  0  0  0
   -3.9342   -0.7110   -0.0000 C   0  0  0  0  0  0  0  0  0  0  0  0
   -2.5477   -3.0928   -0.0000 N   0  0  0  0  0  0  0  0  0  0  0  0
   -0.1185   -3.0928   -0.0000 N   0  0  0  0  0  0  0  0  0  0  0  0
   -5.2495    0.0474   -0.0000 C   0  0  0  0  0  0  0  0  0  0  0  0
   -3.9460   -2.1922   -0.0000 C   0  0  0  0  0  0  0  0  0  0  0  0
   -2.0974   -4.5030   -0.0000 C   0  0  0  0  0  0  0  0  0  0  0  0
   -0.5925   -4.5030   -0.0000 C   0  0  0  0  0  0  0  0  0  0  0  0
   -5.2614    1.5523   -0.0000 C   0  0  0  0  0  0  0  0  0  0  0  0
   -6.5530   -0.6873   -0.0000 C   0  0  0  0  0  0  0  0  0  0  0  0
   -5.2614   -2.9269   -0.0000 C   0  0  0  0  0  0  0  0  0  0  0  0
   -2.9862   -5.6998   -0.0000 C   0  0  0  0  0  0  0  0  0  0  0  0
   -3.9697    2.3107   -0.0000 C   0  0  0  0  0  0  0  0  0  0  0  0
   -6.5649    2.3107   -0.0000 C   0  0  0  0  0  0  0  0  0  0  0  0
   -6.5649   -2.1685   -0.0000 C   0  0  0  0  0  0  0  0  0  0  0  0
   -3.8749   -6.8966   -0.0000 N   0  0  0  0  0  0  0  0  0  0  0  0
   -3.9816    3.8275   -0.0000 C   0  0  0  0  0  0  0  0  0  0  0  0
   -6.5767    3.8157   -0.0000 C   0  0  0  0  0  0  0  0  0  0  0  0
   -7.8802   -2.9032   -0.0000 C   0  0  0  0  0  0  0  0  0  0  0  0
   -5.2969    4.5859   -0.0000 C   0  0  0  0  0  0  0  0  0  0  0  0
   -7.8920   -4.3845   -0.0000 C   0  0  0  0  0  0  0  0  0  0  0  0
   -9.1955   -2.1448   -0.0000 C   0  0  0  0  0  0  0  0  0  0  0  0
   -9.2074   -5.1192   -0.0000 C   0  0  0  0  0  0  0  0  0  0  0  0
  -10.5109   -2.8795   -0.0000 C   0  0  0  0  0  0  0  0  0  0  0  0
  -10.5227   -4.3608   -0.0000 N   0  0  0  0  0  0  0  0  0  0  0  0
  -11.8262   -5.0955   -0.0000 C   0  0  0  0  0  0  0  0  0  0  0  0
  -11.8381   -6.5767   -0.0000 O   0  0  0  0  0  0  0  0  0  0  0  0
  -13.1416   -4.3371   -0.0000 C   0  0  0  0  0  0  0  0  0  0  0  0
  -14.4450   -5.0718   -0.0000 C   0  0  0  0  0  0  0  0  0  0  0  0
  -15.7485   -4.3134   -0.0000 C   0  0  0  0  0  0  0  0  0  0  0  0
  -14.4450   -6.5530   -0.0000 C   0  0  0  0  0  0  0  0  0  0  0  0
  -17.0520   -5.0481   -0.0000 C   0  0  0  0  0  0  0  0  0  0  0  0
  -15.7485   -7.2995   -0.0000 C   0  0  0  0  0  0  0  0  0  0  0  0
  -17.0639   -6.5412   -0.0000 N   0  0  0  0  0  0  0  0  0  0  0  0
  1  2  2  0  0  0  0
  2  3  1  0  0  0  0
  2  4  1  0  0  0  0
  3  5  1  0  0  0  0
  4  6  2  0  0  0  0
  4  7  1  0  0  0  0
  5  8  2  0  0  0  0
  5  9  1  0  0  0  0
  6 10  1  0  0  0  0
  7 11  1  0  0  0  0
  8 12  1  0  0  0  0
  8 13  1  0  0  0  0
  9 14  2  0  0  0  0
 10 15  1  0  0  0  0
 12 16  2  0  0  0  0
 12 17  1  0  0  0  0
 13 18  2  0  0  0  0
 15 19  3  0  0  0  0
 16 20  1  0  0  0  0
 17 21  1  0  0  0  0
 18 22  1  0  0  0  0
 20 23  1  0  0  0  0
 22 24  1  0  0  0  0
 22 25  1  0  0  0  0
 24 26  1  0  0  0  0
 25 27  1  0  0  0  0
 26 28  1  0  0  0  0
 28 29  1  0  0  0  0
 29 30  2  0  0  0  0
 29 31  1  0  0  0  0
 31 32  1  0  0  0  0
 32 33  2  0  0  0  0
 32 34  1  0  0  0  0
 33 35  1  0  0  0  0
 34 36  2  0  0  0  0
 35 37  2  0  0  0  0
 10 11  2  0  0  0  0
 14 18  1  0  0  0  0
 21 23  1  0  0  0  0
 27 28  1  0  0  0  0
 36 37  1  0  0  0  0
M  END
>  <MolRegNo>
1424832

>  <m>
=

>  <Value>
1000

>  <Unit>
nM

>  <Type>
IC50

>  <pValue>
6

>  <Ligand Efficiency>
0

>  <Binding Efficiency>
0

>  <Surface Efficiency>
0

>  <Assay Index>
686580

>  <Assay Category>


>  <Assay Organism>


>  <Target ID>
17045

>  <Target Name>
Cytochrome P450 3A4

>  <Target Organism>
Homo sapiens

>  <Target Description>
Target is a single protein chain

>  <Sequence Accession>
P08684

>  <Reference>
J Med Chem 54 (22), 7860-7883 (2011)

>  <Pubmed ID>
22039836

>  <DOI>
10.1021/jm200900q

$$$$
1424834
Actelion Java MolfileCreator 1.0

 37 41  0  0  0  0  0  0  0  0999 V2000
    0.0000   -0.0000   -0.0000 O   0  0  0  0  0  0  0  0  0  0  0  0
   -1.3157   -0.7349   -0.0000 C   0  0  0  0  0  0  0  0  0  0  0  0
   -2.6314    0.0237   -0.0000 N   0  0  0  0  0  0  0  0  0  0  0  0
   -1.3276   -2.2166   -0.0000 C   0  0  0  0  0  0  0  0  0  0  0  0
   -3.9353   -0.7112   -0.0000 C   0  0  0  0  0  0  0  0  0  0  0  0
   -2.5485   -3.0937   -0.0000 N   0  0  0  0  0  0  0  0  0  0  0  0
   -0.1185   -3.0937   -0.0000 N   0  0  0  0  0  0  0  0  0  0  0  0
   -5.2510    0.0474   -0.0000 C   0  0  0  0  0  0  0  0  0  0  0  0
   -3.9472   -2.1929   -0.0000 C   0  0  0  0  0  0  0  0  0  0  0  0
   -2.0980   -4.5043   -0.0000 C   0  0  0  0  0  0  0  0  0  0  0  0
   -0.5927   -4.5043   -0.0000 C   0  0  0  0  0  0  0  0  0  0  0  0
   -5.2629    1.5528   -0.0000 C   0  0  0  0  0  0  0  0  0  0  0  0
   -6.5549   -0.6875   -0.0000 C   0  0  0  0  0  0  0  0  0  0  0  0
   -5.2629   -2.9278   -0.0000 C   0  0  0  0  0  0  0  0  0  0  0  0
   -2.9870   -5.7014   -0.0000 C   0  0  0  0  0  0  0  0  0  0  0  0
   -3.9709    2.3114   -0.0000 C   0  0  0  0  0  0  0  0  0  0  0  0
   -6.5667    2.3114   -0.0000 C   0  0  0  0  0  0  0  0  0  0  0  0
   -6.5667   -2.1692   -0.0000 C   0  0  0  0  0  0  0  0  0  0  0  0
   -3.8760   -6.8986   -0.0000 N   0  0  0  0  0  0  0  0  0  0  0  0
   -3.9827    3.8286   -0.0000 C   0  0  0  0  0  0  0  0  0  0  0  0
   -6.5786    3.8168   -0.0000 C   0  0  0  0  0  0  0  0  0  0  0  0
   -7.8825   -2.9041   -0.0000 C   0  0  0  0  0  0  0  0  0  0  0  0
   -5.2984    4.5872   -0.0000 C   0  0  0  0  0  0  0  0  0  0  0  0
   -7.8943   -4.3857   -0.0000 C   0  0  0  0  0  0  0  0  0  0  0  0
   -9.1982   -2.1454   -0.0000 C   0  0  0  0  0  0  0  0  0  0  0  0
   -9.2100   -5.1206   -0.0000 C   0  0  0  0  0  0  0  0  0  0  0  0
  -10.5139   -2.8804   -0.0000 C   0  0  0  0  0  0  0  0  0  0  0  0
  -10.5257   -4.3620   -0.0000 N   0  0  0  0  0  0  0  0  0  0  0  0
  -11.8296   -5.0969   -0.0000 C   0  0  0  0  0  0  0  0  0  0  0  0
  -11.8415   -6.5786   -0.0000 O   0  0  0  0  0  0  0  0  0  0  0  0
  -13.1453   -4.3383   -0.0000 C   0  0  0  0  0  0  0  0  0  0  0  0
  -14.4492   -5.0732   -0.0000 N   0  0  0  0  0  0  0  0  0  0  0  0
  -15.7530   -4.3146   -0.0000 C   0  0  0  0  0  0  0  0  0  0  0  0
  -14.4492   -6.5549   -0.0000 C   0  0  0  0  0  0  0  0  0  0  0  0
  -17.0569   -5.0495   -0.0000 C   0  0  0  0  0  0  0  0  0  0  0  0
  -15.7649   -7.2898   -0.0000 C   0  0  0  0  0  0  0  0  0  0  0  0
  -17.0688   -6.5312   -0.0000 O   0  0  0  0  0  0  0  0  0  0  0  0
  1  2  2  0  0  0  0
  2  3  1  0  0  0  0
  2  4  1  0  0  0  0
  3  5  1  0  0  0  0
  4  6  2  0  0  0  0
  4  7  1  0  0  0  0
  5  8  2  0  0  0  0
  5  9  1  0  0  0  0
  6 10  1  0  0  0  0
  7 11  1  0  0  0  0
  8 12  1  0  0  0  0
  8 13  1  0  0  0  0
  9 14  2  0  0  0  0
 10 15  1  0  0  0  0
 12 16  2  0  0  0  0
 12 17  1  0  0  0  0
 13 18  2  0  0  0  0
 15 19  3  0  0  0  0
 16 20  1  0  0  0  0
 17 21  1  0  0  0  0
 18 22  1  0  0  0  0
 20 23  1  0  0  0  0
 22 24  1  0  0  0  0
 22 25  1  0  0  0  0
 24 26  1  0  0  0  0
 25 27  1  0  0  0  0
 26 28  1  0  0  0  0
 28 29  1  0  0  0  0
 29 30  2  0  0  0  0
 29 31  1  0  0  0  0
 31 32  1  0  0  0  0
 32 33  1  0  0  0  0
 32 34  1  0  0  0  0
 33 35  1  0  0  0  0
 34 36  1  0  0  0  0
 35 37  1  0  0  0  0
 10 11  2  0  0  0  0
 14 18  1  0  0  0  0
 21 23  1  0  0  0  0
 27 28  1  0  0  0  0
 36 37  1  0  0  0  0
M  END
>  <MolRegNo>
1424834

>  <m>
=

>  <Value>
1800

>  <Unit>
nM

>  <Type>
IC50

>  <pValue>
5.75

>  <Ligand Efficiency>
0

>  <Binding Efficiency>
0

>  <Surface Efficiency>
0

>  <Assay Index>
686580

>  <Assay Category>


>  <Assay Organism>


>  <Target ID>
17045

>  <Target Name>
Cytochrome P450 3A4

>  <Target Organism>
Homo sapiens

>  <Target Description>
Target is a single protein chain

>  <Sequence Accession>
P08684

>  <Reference>
J Med Chem 54 (22), 7860-7883 (2011)

>  <Pubmed ID>
22039836

>  <DOI>
10.1021/jm200900q

$$$$
1424837
Actelion Java MolfileCreator 1.0

 34 37  0  0  0  0  0  0  0  0999 V2000
    0.0000   -0.0000   -0.0000 O   0  0  0  0  0  0  0  0  0  0  0  0
   -0.0119    1.5076   -0.0000 C   0  0  0  0  0  0  0  0  0  0  0  0
    1.2702    2.2673   -0.0000 N   0  0  0  0  0  0  0  0  0  0  0  0
   -1.3295    2.2673   -0.0000 N   0  0  0  0  0  0  0  0  0  0  0  0
    2.5641    1.5313   -0.0000 C   0  0  0  0  0  0  0  0  0  0  0  0
    1.2583    3.7749   -0.0000 C   0  0  0  0  0  0  0  0  0  0  0  0
   -2.6353    1.5313   -0.0000 C   0  0  0  0  0  0  0  0  0  0  0  0
    3.8580    2.2911   -0.0000 C   0  0  0  0  0  0  0  0  0  0  0  0
    2.5522    4.5347   -0.0000 C   0  0  0  0  0  0  0  0  0  0  0  0
   -3.9530    2.2911   -0.0000 C   0  0  0  0  0  0  0  0  0  0  0  0
    3.8461    3.7987   -0.0000 C   0  0  0  0  0  0  0  0  0  0  0  0
   -5.2588    1.5551   -0.0000 O   0  0  0  0  0  0  0  0  0  0  0  0
    5.1401    4.5584   -0.0000 C   0  0  0  0  0  0  0  0  0  0  0  0
    5.1282    6.0660   -0.0000 C   0  0  0  0  0  0  0  0  0  0  0  0
    6.4221    3.8224   -0.0000 C   0  0  0  0  0  0  0  0  0  0  0  0
    6.4102    6.8257   -0.0000 C   0  0  0  0  0  0  0  0  0  0  0  0
    7.7160    4.5821   -0.0000 C   0  0  0  0  0  0  0  0  0  0  0  0
    7.7042    6.0897   -0.0000 C   0  0  0  0  0  0  0  0  0  0  0  0
    6.3984    8.3333   -0.0000 C   0  0  0  0  0  0  0  0  0  0  0  0
    8.9862    6.8495   -0.0000 N   0  0  0  0  0  0  0  0  0  0  0  0
    7.6923    9.0930   -0.0000 C   0  0  0  0  0  0  0  0  0  0  0  0
    5.0926    9.0930   -0.0000 C   0  0  0  0  0  0  0  0  0  0  0  0
   10.2801    6.1135   -0.0000 C   0  0  0  0  0  0  0  0  0  0  0  0
    7.6804   10.6125   -0.0000 C   0  0  0  0  0  0  0  0  0  0  0  0
    5.0807   10.6006   -0.0000 C   0  0  0  0  0  0  0  0  0  0  0  0
   11.5740    6.8732   -0.0000 O   0  0  0  0  0  0  0  0  0  0  0  0
   10.2683    4.6296   -0.0000 C   0  0  0  0  0  0  0  0  0  0  0  0
    6.3628   11.3722   -0.0000 C   0  0  0  0  0  0  0  0  0  0  0  0
    9.0456    3.7512   -0.0000 N   0  0  0  0  0  0  0  0  0  0  0  0
   11.4791    3.7512   -0.0000 N   0  0  0  0  0  0  0  0  0  0  0  0
    9.4967    2.3386   -0.0000 C   0  0  0  0  0  0  0  0  0  0  0  0
   11.0042    2.3386   -0.0000 C   0  0  0  0  0  0  0  0  0  0  0  0
    8.6063    1.1396   -0.0000 C   0  0  0  0  0  0  0  0  0  0  0  0
    7.7160   -0.0594   -0.0000 N   0  0  0  0  0  0  0  0  0  0  0  0
  1  2  2  0  0  0  0
  2  3  1  0  0  0  0
  2  4  1  0  0  0  0
  3  5  1  0  0  0  0
  3  6  1  0  0  0  0
  4  7  1  0  0  0  0
  5  8  1  0  0  0  0
  6  9  1  0  0  0  0
  7 10  1  0  0  0  0
  8 11  1  0  0  0  0
 10 12  1  0  0  0  0
 11 13  1  0  0  0  0
 13 14  2  0  0  0  0
 13 15  1  0  0  0  0
 14 16  1  0  0  0  0
 15 17  2  0  0  0  0
 16 18  2  0  0  0  0
 16 19  1  0  0  0  0
 18 20  1  0  0  0  0
 19 21  2  0  0  0  0
 19 22  1  0  0  0  0
 20 23  1  0  0  0  0
 21 24  1  0  0  0  0
 22 25  1  0  0  0  0
 23 26  2  0  0  0  0
 23 27  1  0  0  0  0
 24 28  1  0  0  0  0
 27 29  2  0  0  0  0
 27 30  1  0  0  0  0
 29 31  1  0  0  0  0
 30 32  1  0  0  0  0
 31 33  1  0  0  0  0
 33 34  3  0  0  0  0
  9 11  1  0  0  0  0
 17 18  1  0  0  0  0
 25 28  1  0  0  0  0
 31 32  2  0  0  0  0
M  END
>  <MolRegNo>
1424837

>  <m>
=

>  <Value>
6400

>  <Unit>
nM

>  <Type>
IC50

>  <pValue>
5.19

>  <Ligand Efficiency>
0

>  <Binding Efficiency>
0

>  <Surface Efficiency>
0

>  <Assay Index>
686580

>  <Assay Category>


>  <Assay Organism>


>  <Target ID>
17045

>  <Target Name>
Cytochrome P450 3A4

>  <Target Organism>
Homo sapiens

>  <Target Description>
Target is a single protein chain

>  <Sequence Accession>
P08684

>  <Reference>
J Med Chem 54 (22), 7860-7883 (2011)

>  <Pubmed ID>
22039836

>  <DOI>
10.1021/jm200900q

$$$$
1270807
Actelion Java MolfileCreator 1.0

 41 45  0  0  0  0  0  0  0  0999 V2000
    0.0000   -0.0000   -0.0000 Cl  0  0  0  0  0  0  0  0  0  0  0  0
    1.4876    0.0240   -0.0000 C   0  0  0  0  0  0  0  0  0  0  0  0
    2.2314   -1.2716   -0.0000 C   0  0  0  0  0  0  0  0  0  0  0  0
    2.2194    1.3436   -0.0000 C   0  0  0  0  0  0  0  0  0  0  0  0
    3.7310   -1.2477   -0.0000 C   0  0  0  0  0  0  0  0  0  0  0  0
    3.7190    1.3556   -0.0000 C   0  0  0  0  0  0  0  0  0  0  0  0
    4.4868   -2.5313   -0.0000 Cl  0  0  0  0  0  0  0  0  0  0  0  0
    4.4628    0.0720   -0.0000 C   0  0  0  0  0  0  0  0  0  0  0  0
    4.4508    2.6753   -0.0000 C   0  0  0  0  0  0  0  0  0  0  0  0
    3.9709    4.1149   -0.0000 N   0  0  0  0  0  0  0  0  0  0  0  0
    5.9384    2.6993   -0.0000 C   0  0  0  0  0  0  0  0  0  0  0  0
    5.1706    5.0146   -0.0000 N   0  0  0  0  0  0  0  0  0  0  0  0
    6.3822    4.1509   -0.0000 C   0  0  0  0  0  0  0  0  0  0  0  0
    5.1466    6.5262   -0.0000 C   0  0  0  0  0  0  0  0  0  0  0  0
    7.7859    4.6307   -0.0000 C   0  0  0  0  0  0  0  0  0  0  0  0
    6.4302    7.2940   -0.0000 C   0  0  0  0  0  0  0  0  0  0  0  0
    3.8269    7.2820   -0.0000 C   0  0  0  0  0  0  0  0  0  0  0  0
    9.0815    3.8989   -0.0000 C   0  0  0  0  0  0  0  0  0  0  0  0
    7.7619    6.1423   -0.0000 C   0  0  0  0  0  0  0  0  0  0  0  0
    7.7259    6.5502   -0.0000 C   0  0  0  0  0  0  0  0  0  0  0  0
    6.4062    8.8056   -0.0000 C   0  0  0  0  0  0  0  0  0  0  0  0
   10.3651    4.6667   -0.0000 C   0  0  0  0  0  0  0  0  0  0  0  0
    9.0455    6.9101   -0.0000 C   0  0  0  0  0  0  0  0  0  0  0  0
    9.0095    7.3180   -0.0000 C   0  0  0  0  0  0  0  0  0  0  0  0
    7.6899    9.5854   -0.0000 C   0  0  0  0  0  0  0  0  0  0  0  0
   10.3531    6.1783   -0.0000 C   0  0  0  0  0  0  0  0  0  0  0  0
   11.6608    3.9349   -0.0000 C   0  0  0  0  0  0  0  0  0  0  0  0
    8.9855    8.8416   -0.0000 C   0  0  0  0  0  0  0  0  0  0  0  0
   11.6368    6.9461   -0.0000 C   0  0  0  0  0  0  0  0  0  0  0  0
   12.9444    4.7027   -0.0000 C   0  0  0  0  0  0  0  0  0  0  0  0
   10.2692    9.6094   -0.0000 C   0  0  0  0  0  0  0  0  0  0  0  0
   12.9324    6.2143   -0.0000 C   0  0  0  0  0  0  0  0  0  0  0  0
   10.2452   11.1329   -0.0000 O   0  0  0  0  0  0  0  0  0  0  0  0
   11.5648    8.8776   -0.0000 N   0  0  0  0  0  0  0  0  0  0  0  0
   14.2161    6.9821   -0.0000 O   0  0  0  0  0  0  0  0  0  0  0  0
   12.8485    9.6453   -0.0000 C   0  0  0  0  0  0  0  0  0  0  0  0
   15.5117    6.2503   -0.0000 C   0  0  0  0  0  0  0  0  0  0  0  0
   14.1441    8.9135   -0.0000 C   0  0  0  0  0  0  0  0  0  0  0  0
   15.4277    9.6813   -0.0000 C   0  0  0  0  0  0  0  0  0  0  0  0
   15.4038   11.2169   -0.0000 O   0  0  0  0  0  0  0  0  0  0  0  0
   16.7234    8.9495   -0.0000 O   0  0  0  0  0  0  0  0  0  0  0  0
  1  2  1  0  0  0  0
  2  3  2  0  0  0  0
  2  4  1  0  0  0  0
  3  5  1  0  0  0  0
  4  6  2  0  0  0  0
  5  7  1  0  0  0  0
  5  8  2  0  0  0  0
  6  9  1  0  0  0  0
  9 10  2  0  0  0  0
  9 11  1  0  0  0  0
 10 12  1  0  0  0  0
 11 13  2  0  0  0  0
 14 12  1  1  0  0  0
 13 15  1  0  0  0  0
 14 16  1  0  0  0  0
 14 17  1  0  0  0  0
 15 18  2  0  0  0  0
 15 19  1  0  0  0  0
 16 20  2  0  0  0  0
 16 21  1  0  0  0  0
 18 22  1  0  0  0  0
 19 23  2  0  0  0  0
 20 24  1  0  0  0  0
 21 25  2  0  0  0  0
 22 26  1  0  0  0  0
 22 27  2  0  0  0  0
 24 28  2  0  0  0  0
 26 29  2  0  0  0  0
 27 30  1  0  0  0  0
 28 31  1  0  0  0  0
 29 32  1  0  0  0  0
 31 33  2  0  0  0  0
 31 34  1  0  0  0  0
 32 35  1  0  0  0  0
 34 36  1  0  0  0  0
 35 37  1  0  0  0  0
 36 38  1  0  0  0  0
 38 39  1  0  0  0  0
 39 40  2  0  0  0  0
 39 41  1  0  0  0  0
  6  8  1  0  0  0  0
 12 13  1  0  0  0  0
 23 26  1  0  0  0  0
 25 28  1  0  0  0  0
 30 32  2  0  0  0  0
M  END
>  <MolRegNo>
1270807

>  <m>
=

>  <Value>
60000

>  <Unit>
nM

>  <Type>
IC50

>  <pValue>
4.22

>  <Ligand Efficiency>
0

>  <Binding Efficiency>
0

>  <Surface Efficiency>
0

>  <Assay Index>
683866

>  <Assay Category>


>  <Assay Organism>
Homo sapiens

>  <Target ID>
17045

>  <Target Name>
Cytochrome P450 3A4

>  <Target Organism>
Homo sapiens

>  <Target Description>
Target is a single protein chain

>  <Sequence Accession>
P08684

>  <Reference>
J Med Chem 55 (13), 6137-6148 (2012)

>  <Pubmed ID>
22708876

>  <DOI>
10.1021/jm300579z

$$$$
1427471
Actelion Java MolfileCreator 1.0

 23 25  0  0  0  0  0  0  0  0999 V2000
    0.0000   -0.0000   -0.0000 O   0  0  0  0  0  0  0  0  0  0  0  0
   -0.0118   -1.4921   -0.0000 C   0  0  0  0  0  0  0  0  0  0  0  0
   -1.3263   -2.2263   -0.0000 N   0  0  0  0  0  0  0  0  0  0  0  0
    1.2790   -2.2263   -0.0000 C   0  0  0  0  0  0  0  0  0  0  0  0
   -2.6408   -1.4684   -0.0000 C   0  0  0  0  0  0  0  0  0  0  0  0
    1.2671   -3.7185   -0.0000 C   0  0  0  0  0  0  0  0  0  0  0  0
    2.5698   -1.4684   -0.0000 C   0  0  0  0  0  0  0  0  0  0  0  0
   -3.9553   -2.2027   -0.0000 C   0  0  0  0  0  0  0  0  0  0  0  0
   -2.6527    0.0474   -0.0000 C   0  0  0  0  0  0  0  0  0  0  0  0
   -0.0474   -4.4645   -0.0000 C   0  0  0  0  0  0  0  0  0  0  0  0
    2.5579   -4.4645   -0.0000 C   0  0  0  0  0  0  0  0  0  0  0  0
    3.8606   -2.2027   -0.0000 C   0  0  0  0  0  0  0  0  0  0  0  0
   -3.9672   -3.6948   -0.0000 N   0  0  0  0  0  0  0  0  0  0  0  0
   -5.2698   -1.4448   -0.0000 C   0  0  0  0  0  0  0  0  0  0  0  0
   -3.9672    0.8053   -0.0000 C   0  0  0  0  0  0  0  0  0  0  0  0
   -0.0592   -5.9567   -0.0000 C   0  0  0  0  0  0  0  0  0  0  0  0
    2.5461   -5.9567   -0.0000 C   0  0  0  0  0  0  0  0  0  0  0  0
   -2.7711   -4.5711   -0.0000 C   0  0  0  0  0  0  0  0  0  0  0  0
   -5.1988   -4.5711   -0.0000 C   0  0  0  0  0  0  0  0  0  0  0  0
   -5.2816    0.0711   -0.0000 C   0  0  0  0  0  0  0  0  0  0  0  0
    1.2316   -6.6909   -0.0000 C   0  0  0  0  0  0  0  0  0  0  0  0
   -3.2448   -5.9922   -0.0000 C   0  0  0  0  0  0  0  0  0  0  0  0
   -4.7369   -5.9922   -0.0000 C   0  0  0  0  0  0  0  0  0  0  0  0
  1  2  2  0  0  0  0
  2  3  1  0  0  0  0
  2  4  1  0  0  0  0
  3  5  1  0  0  0  0
  4  6  1  0  0  0  0
  4  7  1  6  0  0  0
  5  8  2  0  0  0  0
  5  9  1  0  0  0  0
  6 10  2  0  0  0  0
  6 11  1  0  0  0  0
  7 12  1  0  0  0  0
  8 13  1  0  0  0  0
  8 14  1  0  0  0  0
  9 15  2  0  0  0  0
 10 16  1  0  0  0  0
 11 17  2  0  0  0  0
 13 18  1  0  0  0  0
 13 19  1  0  0  0  0
 14 20  2  0  0  0  0
 16 21  2  0  0  0  0
 18 22  1  0  0  0  0
 19 23  1  0  0  0  0
 15 20  1  0  0  0  0
 17 21  1  0  0  0  0
 22 23  1  0  0  0  0
M  END
>  <MolRegNo>
1427471

>  <m>
=

>  <Value>
3900

>  <Unit>
nM

>  <Type>
IC50

>  <pValue>
5.41

>  <Ligand Efficiency>
0

>  <Binding Efficiency>
0

>  <Surface Efficiency>
0

>  <Assay Index>
687886

>  <Assay Category>


>  <Assay Organism>


>  <Target ID>
17045

>  <Target Name>
Cytochrome P450 3A4

>  <Target Organism>
Homo sapiens

>  <Target Description>
Target is a single protein chain

>  <Sequence Accession>
P08684

>  <Reference>
J Med Chem 55 (15), 6975-6979 (2012)

>  <Pubmed ID>
22793372

>  <DOI>
10.1021/jm300700v

$$$$
1427249
Actelion Java MolfileCreator 1.0

 37 41  0  0  1  0  0  0  0  0999 V2000
    0.0000   -0.0000   -0.0000 Br  0  0  0  0  0  0  0  0  0  0  0  0
   -1.3114    0.7630   -0.0000 C   0  0  0  0  0  0  0  0  0  0  0  0
   -1.3233    2.2890   -0.0000 C   0  0  0  0  0  0  0  0  0  0  0  0
   -2.6229    0.0238   -0.0000 C   0  0  0  0  0  0  0  0  0  0  0  0
   -2.6348    3.0520   -0.0000 C   0  0  0  0  0  0  0  0  0  0  0  0
   -3.9343    0.7869   -0.0000 C   0  0  0  0  0  0  0  0  0  0  0  0
   -3.9343    2.3129   -0.0000 C   0  0  0  0  0  0  0  0  0  0  0  0
   -5.2457    3.0759   -0.0000 C   0  0  0  0  0  0  0  0  0  0  0  0
   -5.2576    4.5900   -0.0000 C   0  0  0  0  0  0  0  0  0  0  0  0
   -3.9700    5.3530   -0.0000 N   0  0  0  0  0  0  0  0  0  0  0  0
   -6.5691    5.3530   -0.0000 C   0  0  0  0  0  0  0  0  0  0  0  0
   -3.9820    6.8671   -0.0000 C   0  0  0  0  0  0  0  0  0  0  0  0
   -6.5810    6.8671   -0.0000 O   0  0  0  0  0  0  0  0  0  0  0  0
   -7.8686    4.6019   -0.0000 N   0  0  0  0  0  0  0  0  0  0  0  0
   -5.2934    7.6301   -0.0000 O   0  0  0  0  0  0  0  0  0  0  0  0
   -2.6944    7.6301   -0.0000 C   0  0  0  0  0  0  0  0  0  0  0  0
   -7.8686    3.1236   -0.0000 C   0  0  0  0  0  0  0  0  0  0  0  0
   -9.1919    5.3411   -0.0000 C   0  0  0  0  0  0  0  0  0  0  0  0
   -1.4068    6.8909   -0.0000 C   0  0  0  0  0  0  0  0  0  0  0  0
   -3.4693    8.9415   -0.0000 C   0  0  0  0  0  0  0  0  0  0  0  0
   -1.9552    8.9535   -0.0000 C   0  0  0  0  0  0  0  0  0  0  0  0
   -9.1681    2.3725   -0.0000 C   0  0  0  0  0  0  0  0  0  0  0  0
   -7.0102    4.3039   -0.0000 C   0  0  0  0  0  0  0  0  0  0  0  0
  -10.4914    4.5900   -0.0000 C   0  0  0  0  0  0  0  0  0  0  0  0
   -7.7613    5.5557   -0.0000 C   0  0  0  0  0  0  0  0  0  0  0  0
   -0.1192    7.6540   -0.0000 C   0  0  0  0  0  0  0  0  0  0  0  0
   -1.4306    5.3888   -0.0000 C   0  0  0  0  0  0  0  0  0  0  0  0
  -10.4795    3.1117   -0.0000 C   0  0  0  0  0  0  0  0  0  0  0  0
    1.1684    6.9148   -0.0000 C   0  0  0  0  0  0  0  0  0  0  0  0
   -0.1431    4.6496   -0.0000 C   0  0  0  0  0  0  0  0  0  0  0  0
  -11.7671    2.3606   -0.0000 N   0  0  0  0  0  0  0  0  0  0  0  0
    1.1564    5.4126   -0.0000 C   0  0  0  0  0  0  0  0  0  0  0  0
    2.4440    4.6734   -0.0000 O   0  0  0  0  0  0  0  0  0  0  0  0
    2.4321    3.1832   -0.0000 C   0  0  0  0  0  0  0  0  0  0  0  0
    3.7197    2.4440   -0.0000 F   0  0  0  0  0  0  0  0  0  0  0  0
    2.4083    1.6929   -0.0000 F   0  0  0  0  0  0  0  0  0  0  0  0
    1.1207    2.4440   -0.0000 F   0  0  0  0  0  0  0  0  0  0  0  0
  1  2  1  0  0  0  0
  2  3  2  0  0  0  0
  2  4  1  0  0  0  0
  3  5  1  0  0  0  0
  4  6  2  0  0  0  0
  5  7  2  0  0  0  0
  7  8  1  0  0  0  0
  8  9  1  0  0  0  0
  9 10  1  1  0  0  0
  9 11  1  0  0  0  0
 10 12  1  0  0  0  0
 11 13  2  0  0  0  0
 11 14  1  0  0  0  0
 12 15  2  0  0  0  0
 12 16  1  0  0  0  0
 17 14  1  6  0  0  0
 18 14  1  6  0  0  0
 16 19  1  0  0  0  0
 16 20  1  0  0  0  0
 16 21  1  0  0  0  0
 17 22  1  0  0  0  0
 17 23  1  0  0  0  0
 18 24  1  0  0  0  0
 18 25  1  0  0  0  0
 19 26  2  0  0  0  0
 19 27  1  0  0  0  0
 22 28  1  0  0  0  0
 26 29  1  0  0  0  0
 27 30  2  0  0  0  0
 28 31  1  0  0  0  0
 29 32  2  0  0  0  0
 32 33  1  0  0  0  0
 33 34  1  0  0  0  0
 34 35  1  0  0  0  0
 34 36  1  0  0  0  0
 34 37  1  0  0  0  0
  6  7  1  0  0  0  0
 20 21  1  0  0  0  0
 23 25  1  0  0  0  0
 24 28  1  0  0  0  0
 30 32  1  0  0  0  0
M  END
>  <MolRegNo>
1427249

>  <m>
=

>  <Value>
2900

>  <Unit>
nM

>  <Type>
IC50

>  <pValue>
5.54

>  <Ligand Efficiency>
0

>  <Binding Efficiency>
0

>  <Surface Efficiency>
0

>  <Assay Index>
689321

>  <Assay Category>


>  <Assay Organism>
Homo sapiens

>  <Target ID>
17045

>  <Target Name>
Cytochrome P450 3A4

>  <Target Organism>
Homo sapiens

>  <Target Description>
Target is a single protein chain

>  <Sequence Accession>
P08684

>  <Reference>
J Med Chem 55 (9), 4322-4335 (2012)

>  <Pubmed ID>
22497444

>  <DOI>
10.1021/jm300122u

$$$$
1427248
Actelion Java MolfileCreator 1.0

 38 42  0  0  1  0  0  0  0  0999 V2000
    0.0000   -0.0000   -0.0000 Cl  0  0  0  0  0  0  0  0  0  0  0  0
    1.3022    0.7526   -0.0000 C   0  0  0  0  0  0  0  0  0  0  0  0
    1.3022    2.2698   -0.0000 C   0  0  0  0  0  0  0  0  0  0  0  0
    2.5924    0.0119   -0.0000 C   0  0  0  0  0  0  0  0  0  0  0  0
    2.5804    3.0344   -0.0000 C   0  0  0  0  0  0  0  0  0  0  0  0
   -0.0119    3.0344   -0.0000 C   0  0  0  0  0  0  0  0  0  0  0  0
    3.8826    0.7765   -0.0000 C   0  0  0  0  0  0  0  0  0  0  0  0
    3.8706    2.2937   -0.0000 C   0  0  0  0  0  0  0  0  0  0  0  0
   -0.0239    4.5516   -0.0000 C   0  0  0  0  0  0  0  0  0  0  0  0
    5.1728    0.0358   -0.0000 Cl  0  0  0  0  0  0  0  0  0  0  0  0
    1.2663    5.3161   -0.0000 N   0  0  0  0  0  0  0  0  0  0  0  0
   -1.3380    5.3281   -0.0000 C   0  0  0  0  0  0  0  0  0  0  0  0
    1.2544    6.8333   -0.0000 C   0  0  0  0  0  0  0  0  0  0  0  0
   -1.3499    6.8333   -0.0000 O   0  0  0  0  0  0  0  0  0  0  0  0
   -2.6402    4.5755   -0.0000 N   0  0  0  0  0  0  0  0  0  0  0  0
   -0.0597    7.5979   -0.0000 O   0  0  0  0  0  0  0  0  0  0  0  0
    2.5446    7.5979   -0.0000 C   0  0  0  0  0  0  0  0  0  0  0  0
   -2.6402    3.0941   -0.0000 C   0  0  0  0  0  0  0  0  0  0  0  0
   -3.9662    5.3161   -0.0000 C   0  0  0  0  0  0  0  0  0  0  0  0
    3.8348    6.8572   -0.0000 C   0  0  0  0  0  0  0  0  0  0  0  0
    1.7681    8.9120   -0.0000 C   0  0  0  0  0  0  0  0  0  0  0  0
    3.2853    8.9240   -0.0000 C   0  0  0  0  0  0  0  0  0  0  0  0
   -3.9423    2.3415   -0.0000 C   0  0  0  0  0  0  0  0  0  0  0  0
   -1.7800    4.2888   -0.0000 C   0  0  0  0  0  0  0  0  0  0  0  0
   -5.2684    4.5635   -0.0000 C   0  0  0  0  0  0  0  0  0  0  0  0
   -2.5207    5.5312   -0.0000 C   0  0  0  0  0  0  0  0  0  0  0  0
    3.8109    5.3520   -0.0000 C   0  0  0  0  0  0  0  0  0  0  0  0
    5.1250    7.6218   -0.0000 C   0  0  0  0  0  0  0  0  0  0  0  0
   -5.2684    3.0822   -0.0000 C   0  0  0  0  0  0  0  0  0  0  0  0
    5.1011    4.6113   -0.0000 C   0  0  0  0  0  0  0  0  0  0  0  0
    6.4152    6.8811   -0.0000 C   0  0  0  0  0  0  0  0  0  0  0  0
   -6.5586    2.3295   -0.0000 N   0  0  0  0  0  0  0  0  0  0  0  0
    6.4033    5.3759   -0.0000 C   0  0  0  0  0  0  0  0  0  0  0  0
    7.6935    4.6352   -0.0000 O   0  0  0  0  0  0  0  0  0  0  0  0
    7.6815    3.1419   -0.0000 C   0  0  0  0  0  0  0  0  0  0  0  0
    6.3674    2.4012   -0.0000 F   0  0  0  0  0  0  0  0  0  0  0  0
    7.6576    1.6486   -0.0000 F   0  0  0  0  0  0  0  0  0  0  0  0
    8.9717    2.4012   -0.0000 F   0  0  0  0  0  0  0  0  0  0  0  0
  1  2  1  0  0  0  0
  2  3  2  0  0  0  0
  2  4  1  0  0  0  0
  3  5  1  0  0  0  0
  3  6  1  0  0  0  0
  4  7  2  0  0  0  0
  5  8  2  0  0  0  0
  6  9  1  0  0  0  0
  7 10  1  0  0  0  0
  9 11  1  1  0  0  0
  9 12  1  0  0  0  0
 11 13  1  0  0  0  0
 12 14  2  0  0  0  0
 12 15  1  0  0  0  0
 13 16  2  0  0  0  0
 13 17  1  0  0  0  0
 18 15  1  6  0  0  0
 19 15  1  6  0  0  0
 17 20  1  0  0  0  0
 17 21  1  0  0  0  0
 17 22  1  0  0  0  0
 18 23  1  0  0  0  0
 18 24  1  0  0  0  0
 19 25  1  0  0  0  0
 19 26  1  0  0  0  0
 20 27  2  0  0  0  0
 20 28  1  0  0  0  0
 23 29  1  0  0  0  0
 27 30  1  0  0  0  0
 28 31  2  0  0  0  0
 29 32  1  0  0  0  0
 30 33  2  0  0  0  0
 33 34  1  0  0  0  0
 34 35  1  0  0  0  0
 35 36  1  0  0  0  0
 35 37  1  0  0  0  0
 35 38  1  0  0  0  0
  7  8  1  0  0  0  0
 21 22  1  0  0  0  0
 24 26  1  0  0  0  0
 25 29  1  0  0  0  0
 31 33  1  0  0  0  0
M  END
>  <MolRegNo>
1427248

>  <m>
=

>  <Value>
2400

>  <Unit>
nM

>  <Type>
IC50

>  <pValue>
5.62

>  <Ligand Efficiency>
0

>  <Binding Efficiency>
0

>  <Surface Efficiency>
0

>  <Assay Index>
689321

>  <Assay Category>


>  <Assay Organism>
Homo sapiens

>  <Target ID>
17045

>  <Target Name>
Cytochrome P450 3A4

>  <Target Organism>
Homo sapiens

>  <Target Description>
Target is a single protein chain

>  <Sequence Accession>
P08684

>  <Reference>
J Med Chem 55 (9), 4322-4335 (2012)

>  <Pubmed ID>
22497444

>  <DOI>
10.1021/jm300122u

$$$$
1427247
Actelion Java MolfileCreator 1.0

 34 38  0  0  1  0  0  0  0  0999 V2000
    0.0000   -0.0000   -0.0000 Br  0  0  0  0  0  0  0  0  0  0  0  0
   -1.3106    0.7625   -0.0000 C   0  0  0  0  0  0  0  0  0  0  0  0
   -2.6211    0.0238   -0.0000 C   0  0  0  0  0  0  0  0  0  0  0  0
   -1.3225    2.2875   -0.0000 C   0  0  0  0  0  0  0  0  0  0  0  0
   -3.9317    0.7863   -0.0000 C   0  0  0  0  0  0  0  0  0  0  0  0
   -2.6330    3.0500   -0.0000 C   0  0  0  0  0  0  0  0  0  0  0  0
   -3.9317    2.2995   -0.0000 C   0  0  0  0  0  0  0  0  0  0  0  0
   -5.2423    3.0620   -0.0000 C   0  0  0  0  0  0  0  0  0  0  0  0
   -5.2542    4.5751   -0.0000 C   0  0  0  0  0  0  0  0  0  0  0  0
   -3.9674    5.3376   -0.0000 N   0  0  0  0  0  0  0  0  0  0  0  0
   -6.5648    5.3376   -0.0000 C   0  0  0  0  0  0  0  0  0  0  0  0
   -3.9794    6.8507   -0.0000 C   0  0  0  0  0  0  0  0  0  0  0  0
   -6.5767    6.8507   -0.0000 O   0  0  0  0  0  0  0  0  0  0  0  0
   -7.8634    4.5870   -0.0000 N   0  0  0  0  0  0  0  0  0  0  0  0
   -5.2899    7.6132   -0.0000 O   0  0  0  0  0  0  0  0  0  0  0  0
   -2.6926    7.6132   -0.0000 C   0  0  0  0  0  0  0  0  0  0  0  0
   -7.8634    3.1096   -0.0000 C   0  0  0  0  0  0  0  0  0  0  0  0
   -9.1859    5.3257   -0.0000 C   0  0  0  0  0  0  0  0  0  0  0  0
   -1.4059    6.8745   -0.0000 C   0  0  0  0  0  0  0  0  0  0  0  0
   -1.9539    8.9357   -0.0000 C   0  0  0  0  0  0  0  0  0  0  0  0
   -3.4670    8.9238   -0.0000 C   0  0  0  0  0  0  0  0  0  0  0  0
   -9.1621    2.3590   -0.0000 C   0  0  0  0  0  0  0  0  0  0  0  0
   -7.0056    4.2891   -0.0000 C   0  0  0  0  0  0  0  0  0  0  0  0
  -10.4845    4.5751   -0.0000 C   0  0  0  0  0  0  0  0  0  0  0  0
   -7.7562    5.5401   -0.0000 C   0  0  0  0  0  0  0  0  0  0  0  0
   -0.1191    7.6370   -0.0000 C   0  0  0  0  0  0  0  0  0  0  0  0
   -1.4297    5.3733   -0.0000 C   0  0  0  0  0  0  0  0  0  0  0  0
  -10.4726    3.0977   -0.0000 C   0  0  0  0  0  0  0  0  0  0  0  0
   -0.1311    9.1501   -0.0000 Cl  0  0  0  0  0  0  0  0  0  0  0  0
    1.1676    6.8984   -0.0000 C   0  0  0  0  0  0  0  0  0  0  0  0
   -0.1430    4.6346   -0.0000 C   0  0  0  0  0  0  0  0  0  0  0  0
  -11.7594    2.3471   -0.0000 N   0  0  0  0  0  0  0  0  0  0  0  0
    1.1557    5.3972   -0.0000 C   0  0  0  0  0  0  0  0  0  0  0  0
    2.4424    4.6585   -0.0000 Cl  0  0  0  0  0  0  0  0  0  0  0  0
  1  2  1  0  0  0  0
  2  3  2  0  0  0  0
  2  4  1  0  0  0  0
  3  5  1  0  0  0  0
  4  6  2  0  0  0  0
  5  7  2  0  0  0  0
  7  8  1  0  0  0  0
  8  9  1  0  0  0  0
  9 10  1  1  0  0  0
  9 11  1  0  0  0  0
 10 12  1  0  0  0  0
 11 13  2  0  0  0  0
 11 14  1  0  0  0  0
 12 15  2  0  0  0  0
 12 16  1  0  0  0  0
 17 14  1  6  0  0  0
 18 14  1  6  0  0  0
 16 19  1  0  0  0  0
 16 20  1  0  0  0  0
 16 21  1  0  0  0  0
 17 22  1  0  0  0  0
 17 23  1  0  0  0  0
 18 24  1  0  0  0  0
 18 25  1  0  0  0  0
 19 26  2  0  0  0  0
 19 27  1  0  0  0  0
 22 28  1  0  0  0  0
 26 29  1  0  0  0  0
 26 30  1  0  0  0  0
 27 31  2  0  0  0  0
 28 32  1  0  0  0  0
 30 33  2  0  0  0  0
 33 34  1  0  0  0  0
  6  7  1  0  0  0  0
 20 21  1  0  0  0  0
 23 25  1  0  0  0  0
 24 28  1  0  0  0  0
 31 33  1  0  0  0  0
M  END
>  <MolRegNo>
1427247

>  <m>
=

>  <Value>
600

>  <Unit>
nM

>  <Type>
IC50

>  <pValue>
6.22

>  <Ligand Efficiency>
0

>  <Binding Efficiency>
0

>  <Surface Efficiency>
0

>  <Assay Index>
689321

>  <Assay Category>


>  <Assay Organism>
Homo sapiens

>  <Target ID>
17045

>  <Target Name>
Cytochrome P450 3A4

>  <Target Organism>
Homo sapiens

>  <Target Description>
Target is a single protein chain

>  <Sequence Accession>
P08684

>  <Reference>
J Med Chem 55 (9), 4322-4335 (2012)

>  <Pubmed ID>
22497444

>  <DOI>
10.1021/jm300122u

$$$$
1427246
Actelion Java MolfileCreator 1.0

 35 39  0  0  1  0  0  0  0  0999 V2000
    0.0000   -0.0000   -0.0000 Cl  0  0  0  0  0  0  0  0  0  0  0  0
   -0.0120   -1.4949   -0.0000 C   0  0  0  0  0  0  0  0  0  0  0  0
   -1.3274   -2.2363   -0.0000 C   0  0  0  0  0  0  0  0  0  0  0  0
    1.2796   -2.2363   -0.0000 C   0  0  0  0  0  0  0  0  0  0  0  0
   -1.3514   -3.7431   -0.0000 C   0  0  0  0  0  0  0  0  0  0  0  0
   -2.6429   -1.4709   -0.0000 C   0  0  0  0  0  0  0  0  0  0  0  0
    1.2676   -3.7431   -0.0000 C   0  0  0  0  0  0  0  0  0  0  0  0
   -0.0598   -4.4846   -0.0000 C   0  0  0  0  0  0  0  0  0  0  0  0
   -3.9584   -2.2124   -0.0000 C   0  0  0  0  0  0  0  0  0  0  0  0
   -1.9015   -0.1435   -0.0000 C   0  0  0  0  0  0  0  0  0  0  0  0
   -3.4202   -0.1555   -0.0000 C   0  0  0  0  0  0  0  0  0  0  0  0
    2.5592   -4.4846   -0.0000 Cl  0  0  0  0  0  0  0  0  0  0  0  0
   -5.2739   -1.4470   -0.0000 O   0  0  0  0  0  0  0  0  0  0  0  0
   -3.9703   -3.7072   -0.0000 N   0  0  0  0  0  0  0  0  0  0  0  0
   -5.2858   -4.4487   -0.0000 C   0  0  0  0  0  0  0  0  0  0  0  0
   -6.6013   -3.6833   -0.0000 C   0  0  0  0  0  0  0  0  0  0  0  0
   -5.2978   -5.9436   -0.0000 C   0  0  0  0  0  0  0  0  0  0  0  0
   -6.6132   -2.1646   -0.0000 O   0  0  0  0  0  0  0  0  0  0  0  0
   -7.9048   -4.4367   -0.0000 N   0  0  0  0  0  0  0  0  0  0  0  0
   -4.0062   -6.6850   -0.0000 C   0  0  0  0  0  0  0  0  0  0  0  0
   -7.9048   -5.9196   -0.0000 C   0  0  0  0  0  0  0  0  0  0  0  0
   -9.2322   -3.6953   -0.0000 C   0  0  0  0  0  0  0  0  0  0  0  0
   -4.0301   -8.1799   -0.0000 C   0  0  0  0  0  0  0  0  0  0  0  0
   -2.7266   -5.9196   -0.0000 C   0  0  0  0  0  0  0  0  0  0  0  0
   -9.2083   -6.6730   -0.0000 C   0  0  0  0  0  0  0  0  0  0  0  0
   -7.0438   -4.7357   -0.0000 C   0  0  0  0  0  0  0  0  0  0  0  0
  -10.5358   -4.4487   -0.0000 C   0  0  0  0  0  0  0  0  0  0  0  0
   -7.7972   -3.4800   -0.0000 C   0  0  0  0  0  0  0  0  0  0  0  0
   -5.3456   -8.9093   -0.0000 Cl  0  0  0  0  0  0  0  0  0  0  0  0
   -2.7386   -8.9213   -0.0000 C   0  0  0  0  0  0  0  0  0  0  0  0
   -1.4351   -6.6611   -0.0000 C   0  0  0  0  0  0  0  0  0  0  0  0
  -10.5238   -5.9316   -0.0000 C   0  0  0  0  0  0  0  0  0  0  0  0
   -1.4470   -8.1559   -0.0000 C   0  0  0  0  0  0  0  0  0  0  0  0
  -11.8153   -6.6850   -0.0000 N   0  0  0  0  0  0  0  0  0  0  0  0
   -0.1555   -8.8974   -0.0000 Cl  0  0  0  0  0  0  0  0  0  0  0  0
  1  2  1  0  0  0  0
  2  3  2  0  0  0  0
  2  4  1  0  0  0  0
  3  5  1  0  0  0  0
  3  6  1  0  0  0  0
  4  7  2  0  0  0  0
  5  8  2  0  0  0  0
  6  9  1  0  0  0  0
  6 10  1  0  0  0  0
  6 11  1  0  0  0  0
  7 12  1  0  0  0  0
  9 13  2  0  0  0  0
  9 14  1  0  0  0  0
 15 14  1  1  0  0  0
 15 16  1  0  0  0  0
 15 17  1  0  0  0  0
 16 18  2  0  0  0  0
 16 19  1  0  0  0  0
 17 20  1  0  0  0  0
 21 19  1  6  0  0  0
 22 19  1  6  0  0  0
 20 23  2  0  0  0  0
 20 24  1  0  0  0  0
 21 25  1  0  0  0  0
 21 26  1  0  0  0  0
 22 27  1  0  0  0  0
 22 28  1  0  0  0  0
 23 29  1  0  0  0  0
 23 30  1  0  0  0  0
 24 31  2  0  0  0  0
 25 32  1  0  0  0  0
 30 33  2  0  0  0  0
 32 34  1  0  0  0  0
 33 35  1  0  0  0  0
  7  8  1  0  0  0  0
 10 11  1  0  0  0  0
 26 28  1  0  0  0  0
 27 32  1  0  0  0  0
 31 33  1  0  0  0  0
M  END
>  <MolRegNo>
1427246

>  <m>
=

>  <Value>
430

>  <Unit>
nM

>  <Type>
IC50

>  <pValue>
6.37

>  <Ligand Efficiency>
0

>  <Binding Efficiency>
0

>  <Surface Efficiency>
0

>  <Assay Index>
689321

>  <Assay Category>


>  <Assay Organism>
Homo sapiens

>  <Target ID>
17045

>  <Target Name>
Cytochrome P450 3A4

>  <Target Organism>
Homo sapiens

>  <Target Description>
Target is a single protein chain

>  <Sequence Accession>
P08684

>  <Reference>
J Med Chem 55 (9), 4322-4335 (2012)

>  <Pubmed ID>
22497444

>  <DOI>
10.1021/jm300122u

$$$$
1427245
Actelion Java MolfileCreator 1.0

 34 37  0  0  0  0  0  0  0  0999 V2000
    0.0000   -0.0000   -0.0000 Cl  0  0  0  0  0  0  0  0  0  0  0  0
   -0.0119   -1.4887   -0.0000 C   0  0  0  0  0  0  0  0  0  0  0  0
   -1.3220   -2.2271   -0.0000 C   0  0  0  0  0  0  0  0  0  0  0  0
    1.2743   -2.2271   -0.0000 C   0  0  0  0  0  0  0  0  0  0  0  0
   -1.3458   -3.7277   -0.0000 C   0  0  0  0  0  0  0  0  0  0  0  0
   -2.6320   -1.4649   -0.0000 C   0  0  0  0  0  0  0  0  0  0  0  0
    1.2624   -3.7277   -0.0000 C   0  0  0  0  0  0  0  0  0  0  0  0
   -0.0595   -4.4661   -0.0000 C   0  0  0  0  0  0  0  0  0  0  0  0
   -3.9421   -2.2033   -0.0000 C   0  0  0  0  0  0  0  0  0  0  0  0
   -3.4062   -0.1548   -0.0000 C   0  0  0  0  0  0  0  0  0  0  0  0
   -1.8936   -0.1429   -0.0000 C   0  0  0  0  0  0  0  0  0  0  0  0
    2.5487   -4.4661   -0.0000 Cl  0  0  0  0  0  0  0  0  0  0  0  0
   -5.2521   -1.4411   -0.0000 O   0  0  0  0  0  0  0  0  0  0  0  0
   -3.9540   -3.6920   -0.0000 N   0  0  0  0  0  0  0  0  0  0  0  0
   -5.2641   -4.4304   -0.0000 C   0  0  0  0  0  0  0  0  0  0  0  0
   -6.5741   -3.6682   -0.0000 C   0  0  0  0  0  0  0  0  0  0  0  0
   -5.2760   -5.9191   -0.0000 C   0  0  0  0  0  0  0  0  0  0  0  0
   -6.5860   -2.1556   -0.0000 O   0  0  0  0  0  0  0  0  0  0  0  0
   -7.8842   -4.4066   -0.0000 N   0  0  0  0  0  0  0  0  0  0  0  0
   -3.9897   -6.6575   -0.0000 C   0  0  0  0  0  0  0  0  0  0  0  0
   -9.1942   -3.6443   -0.0000 C   0  0  0  0  0  0  0  0  0  0  0  0
   -4.0135   -8.1462   -0.0000 C   0  0  0  0  0  0  0  0  0  0  0  0
   -2.7154   -5.8953   -0.0000 C   0  0  0  0  0  0  0  0  0  0  0  0
  -10.4924   -4.3827   -0.0000 C   0  0  0  0  0  0  0  0  0  0  0  0
   -9.1942   -2.1318   -0.0000 C   0  0  0  0  0  0  0  0  0  0  0  0
   -5.3236   -8.8727   -0.0000 Cl  0  0  0  0  0  0  0  0  0  0  0  0
   -2.7273   -8.8846   -0.0000 C   0  0  0  0  0  0  0  0  0  0  0  0
   -1.4292   -6.6337   -0.0000 C   0  0  0  0  0  0  0  0  0  0  0  0
  -11.8024   -3.6086   -0.0000 C   0  0  0  0  0  0  0  0  0  0  0  0
  -10.4924   -1.3696   -0.0000 C   0  0  0  0  0  0  0  0  0  0  0  0
   -1.4411   -8.1224   -0.0000 C   0  0  0  0  0  0  0  0  0  0  0  0
  -13.1125   -4.3351   -0.0000 N   0  0  0  0  0  0  0  0  0  0  0  0
  -11.8024   -2.0961   -0.0000 C   0  0  0  0  0  0  0  0  0  0  0  0
   -0.1548   -8.8608   -0.0000 Cl  0  0  0  0  0  0  0  0  0  0  0  0
  1  2  1  0  0  0  0
  2  3  2  0  0  0  0
  2  4  1  0  0  0  0
  3  5  1  0  0  0  0
  3  6  1  0  0  0  0
  4  7  2  0  0  0  0
  5  8  2  0  0  0  0
  6  9  1  0  0  0  0
  6 10  1  0  0  0  0
  6 11  1  0  0  0  0
  7 12  1  0  0  0  0
  9 13  2  0  0  0  0
  9 14  1  0  0  0  0
 15 14  1  1  0  0  0
 15 16  1  0  0  0  0
 15 17  1  0  0  0  0
 16 18  2  0  0  0  0
 16 19  1  0  0  0  0
 17 20  1  0  0  0  0
 19 21  1  0  0  0  0
 20 22  2  0  0  0  0
 20 23  1  0  0  0  0
 21 24  1  0  0  0  0
 21 25  1  0  0  0  0
 22 26  1  0  0  0  0
 22 27  1  0  0  0  0
 23 28  2  0  0  0  0
 24 29  1  0  0  0  0
 25 30  1  0  0  0  0
 27 31  2  0  0  0  0
 29 32  1  0  0  0  0
 29 33  1  0  0  0  0
 31 34  1  0  0  0  0
  7  8  1  0  0  0  0
 10 11  1  0  0  0  0
 28 31  1  0  0  0  0
 30 33  1  0  0  0  0
M  END
>  <MolRegNo>
1427245

>  <m>
=

>  <Value>
420

>  <Unit>
nM

>  <Type>
IC50

>  <pValue>
6.38

>  <Ligand Efficiency>
0

>  <Binding Efficiency>
0

>  <Surface Efficiency>
0

>  <Assay Index>
689321

>  <Assay Category>


>  <Assay Organism>
Homo sapiens

>  <Target ID>
17045

>  <Target Name>
Cytochrome P450 3A4

>  <Target Organism>
Homo sapiens

>  <Target Description>
Target is a single protein chain

>  <Sequence Accession>
P08684

>  <Reference>
J Med Chem 55 (9), 4322-4335 (2012)

>  <Pubmed ID>
22497444

>  <DOI>
10.1021/jm300122u

$$$$
1427244
Actelion Java MolfileCreator 1.0

 32 35  0  0  0  0  0  0  0  0999 V2000
    0.0000   -0.0000   -0.0000 Br  0  0  0  0  0  0  0  0  0  0  0  0
   -1.3055    0.7596   -0.0000 C   0  0  0  0  0  0  0  0  0  0  0  0
   -2.6111    0.0237   -0.0000 C   0  0  0  0  0  0  0  0  0  0  0  0
   -1.3174    2.2788   -0.0000 C   0  0  0  0  0  0  0  0  0  0  0  0
   -3.9166    0.7833   -0.0000 C   0  0  0  0  0  0  0  0  0  0  0  0
   -2.6229    3.0383   -0.0000 C   0  0  0  0  0  0  0  0  0  0  0  0
   -3.9166    2.2906   -0.0000 C   0  0  0  0  0  0  0  0  0  0  0  0
   -5.2221    3.0502   -0.0000 C   0  0  0  0  0  0  0  0  0  0  0  0
   -5.2340    4.5575   -0.0000 C   0  0  0  0  0  0  0  0  0  0  0  0
   -3.9522    5.3171   -0.0000 N   0  0  0  0  0  0  0  0  0  0  0  0
   -6.5396    5.3171   -0.0000 C   0  0  0  0  0  0  0  0  0  0  0  0
   -3.9641    6.8244   -0.0000 C   0  0  0  0  0  0  0  0  0  0  0  0
   -6.5514    6.8244   -0.0000 O   0  0  0  0  0  0  0  0  0  0  0  0
   -7.8451    4.5812   -0.0000 N   0  0  0  0  0  0  0  0  0  0  0  0
   -5.2696    7.5840   -0.0000 O   0  0  0  0  0  0  0  0  0  0  0  0
   -2.6823    7.5840   -0.0000 C   0  0  0  0  0  0  0  0  0  0  0  0
   -9.1506    5.3527   -0.0000 C   0  0  0  0  0  0  0  0  0  0  0  0
   -7.8570    3.0977   -0.0000 C   0  0  0  0  0  0  0  0  0  0  0  0
   -1.4005    6.8481   -0.0000 C   0  0  0  0  0  0  0  0  0  0  0  0
   -3.4537    8.8895   -0.0000 C   0  0  0  0  0  0  0  0  0  0  0  0
   -1.9464    8.9014   -0.0000 C   0  0  0  0  0  0  0  0  0  0  0  0
  -10.4562    4.6050   -0.0000 C   0  0  0  0  0  0  0  0  0  0  0  0
   -9.1625    2.3737   -0.0000 C   0  0  0  0  0  0  0  0  0  0  0  0
   -0.1187    7.6077   -0.0000 C   0  0  0  0  0  0  0  0  0  0  0  0
   -1.4242    5.3527   -0.0000 C   0  0  0  0  0  0  0  0  0  0  0  0
  -10.4680    3.1214   -0.0000 C   0  0  0  0  0  0  0  0  0  0  0  0
   -0.1306    9.1150   -0.0000 Cl  0  0  0  0  0  0  0  0  0  0  0  0
    1.1631    6.8719   -0.0000 C   0  0  0  0  0  0  0  0  0  0  0  0
   -0.1424    4.6169   -0.0000 C   0  0  0  0  0  0  0  0  0  0  0  0
  -11.7736    2.3856   -0.0000 N   0  0  0  0  0  0  0  0  0  0  0  0
    1.1512    5.3764   -0.0000 C   0  0  0  0  0  0  0  0  0  0  0  0
    2.4330    4.6406   -0.0000 Cl  0  0  0  0  0  0  0  0  0  0  0  0
  1  2  1  0  0  0  0
  2  3  2  0  0  0  0
  2  4  1  0  0  0  0
  3  5  1  0  0  0  0
  4  6  2  0  0  0  0
  5  7  2  0  0  0  0
  7  8  1  0  0  0  0
  8  9  1  0  0  0  0
  9 10  1  1  0  0  0
  9 11  1  0  0  0  0
 10 12  1  0  0  0  0
 11 13  2  0  0  0  0
 11 14  1  0  0  0  0
 12 15  2  0  0  0  0
 12 16  1  0  0  0  0
 14 17  1  0  0  0  0
 14 18  1  0  0  0  0
 16 19  1  0  0  0  0
 16 20  1  0  0  0  0
 16 21  1  0  0  0  0
 17 22  1  0  0  0  0
 18 23  1  0  0  0  0
 19 24  2  0  0  0  0
 19 25  1  0  0  0  0
 22 26  1  0  0  0  0
 24 27  1  0  0  0  0
 24 28  1  0  0  0  0
 25 29  2  0  0  0  0
 26 30  1  0  0  0  0
 28 31  2  0  0  0  0
 31 32  1  0  0  0  0
  6  7  1  0  0  0  0
 20 21  1  0  0  0  0
 23 26  1  0  0  0  0
 29 31  1  0  0  0  0
M  END
>  <MolRegNo>
1427244

>  <m>
=

>  <Value>
8000

>  <Unit>
nM

>  <Type>
IC50

>  <pValue>
5.1

>  <Ligand Efficiency>
0

>  <Binding Efficiency>
0

>  <Surface Efficiency>
0

>  <Assay Index>
689321

>  <Assay Category>


>  <Assay Organism>
Homo sapiens

>  <Target ID>
17045

>  <Target Name>
Cytochrome P450 3A4

>  <Target Organism>
Homo sapiens

>  <Target Description>
Target is a single protein chain

>  <Sequence Accession>
P08684

>  <Reference>
J Med Chem 55 (9), 4322-4335 (2012)

>  <Pubmed ID>
22497444

>  <DOI>
10.1021/jm300122u

$$$$
1427243
Actelion Java MolfileCreator 1.0

 32 35  0  0  0  0  0  0  0  0999 V2000
    0.0000   -0.0000   -0.0000 Br  0  0  0  0  0  0  0  0  0  0  0  0
   -1.3055    0.7596   -0.0000 C   0  0  0  0  0  0  0  0  0  0  0  0
   -2.6111    0.0237   -0.0000 C   0  0  0  0  0  0  0  0  0  0  0  0
   -1.3174    2.2788   -0.0000 C   0  0  0  0  0  0  0  0  0  0  0  0
   -3.9166    0.7833   -0.0000 C   0  0  0  0  0  0  0  0  0  0  0  0
   -2.6229    3.0383   -0.0000 C   0  0  0  0  0  0  0  0  0  0  0  0
   -3.9166    2.2906   -0.0000 C   0  0  0  0  0  0  0  0  0  0  0  0
   -5.2221    3.0502   -0.0000 C   0  0  0  0  0  0  0  0  0  0  0  0
   -5.2340    4.5575   -0.0000 C   0  0  0  0  0  0  0  0  0  0  0  0
   -3.9522    5.3171   -0.0000 N   0  0  0  0  0  0  0  0  0  0  0  0
   -6.5396    5.3171   -0.0000 C   0  0  0  0  0  0  0  0  0  0  0  0
   -3.9641    6.8244   -0.0000 C   0  0  0  0  0  0  0  0  0  0  0  0
   -6.5514    6.8244   -0.0000 O   0  0  0  0  0  0  0  0  0  0  0  0
   -7.8451    4.5812   -0.0000 N   0  0  0  0  0  0  0  0  0  0  0  0
   -5.2696    7.5840   -0.0000 O   0  0  0  0  0  0  0  0  0  0  0  0
   -2.6823    7.5840   -0.0000 C   0  0  0  0  0  0  0  0  0  0  0  0
   -9.1506    5.3527   -0.0000 C   0  0  0  0  0  0  0  0  0  0  0  0
   -7.8570    3.0977   -0.0000 C   0  0  0  0  0  0  0  0  0  0  0  0
   -1.4005    6.8481   -0.0000 C   0  0  0  0  0  0  0  0  0  0  0  0
   -3.4537    8.8895   -0.0000 C   0  0  0  0  0  0  0  0  0  0  0  0
   -1.9464    8.9014   -0.0000 C   0  0  0  0  0  0  0  0  0  0  0  0
  -10.4562    4.6050   -0.0000 C   0  0  0  0  0  0  0  0  0  0  0  0
   -9.1625    2.3737   -0.0000 C   0  0  0  0  0  0  0  0  0  0  0  0
   -0.1187    7.6077   -0.0000 C   0  0  0  0  0  0  0  0  0  0  0  0
   -1.4242    5.3527   -0.0000 C   0  0  0  0  0  0  0  0  0  0  0  0
  -10.4680    3.1214   -0.0000 C   0  0  0  0  0  0  0  0  0  0  0  0
   -0.1306    9.1150   -0.0000 Cl  0  0  0  0  0  0  0  0  0  0  0  0
    1.1631    6.8719   -0.0000 C   0  0  0  0  0  0  0  0  0  0  0  0
   -0.1424    4.6169   -0.0000 C   0  0  0  0  0  0  0  0  0  0  0  0
  -11.7736    2.3856   -0.0000 O   0  0  0  0  0  0  0  0  0  0  0  0
    1.1512    5.3764   -0.0000 C   0  0  0  0  0  0  0  0  0  0  0  0
    2.4330    4.6406   -0.0000 Cl  0  0  0  0  0  0  0  0  0  0  0  0
  1  2  1  0  0  0  0
  2  3  2  0  0  0  0
  2  4  1  0  0  0  0
  3  5  1  0  0  0  0
  4  6  2  0  0  0  0
  5  7  2  0  0  0  0
  7  8  1  0  0  0  0
  8  9  1  0  0  0  0
  9 10  1  1  0  0  0
  9 11  1  0  0  0  0
 10 12  1  0  0  0  0
 11 13  2  0  0  0  0
 11 14  1  0  0  0  0
 12 15  2  0  0  0  0
 12 16  1  0  0  0  0
 14 17  1  0  0  0  0
 14 18  1  0  0  0  0
 16 19  1  0  0  0  0
 16 20  1  0  0  0  0
 16 21  1  0  0  0  0
 17 22  1  0  0  0  0
 18 23  1  0  0  0  0
 19 24  2  0  0  0  0
 19 25  1  0  0  0  0
 22 26  1  0  0  0  0
 24 27  1  0  0  0  0
 24 28  1  0  0  0  0
 25 29  2  0  0  0  0
 26 30  1  0  0  0  0
 28 31  2  0  0  0  0
 31 32  1  0  0  0  0
  6  7  1  0  0  0  0
 20 21  1  0  0  0  0
 23 26  1  0  0  0  0
 29 31  1  0  0  0  0
M  END
>  <MolRegNo>
1427243

>  <m>
=

>  <Value>
1300

>  <Unit>
nM

>  <Type>
IC50

>  <pValue>
5.89

>  <Ligand Efficiency>
0

>  <Binding Efficiency>
0

>  <Surface Efficiency>
0

>  <Assay Index>
689321

>  <Assay Category>


>  <Assay Organism>
Homo sapiens

>  <Target ID>
17045

>  <Target Name>
Cytochrome P450 3A4

>  <Target Organism>
Homo sapiens

>  <Target Description>
Target is a single protein chain

>  <Sequence Accession>
P08684

>  <Reference>
J Med Chem 55 (9), 4322-4335 (2012)

>  <Pubmed ID>
22497444

>  <DOI>
10.1021/jm300122u

$$$$
1427260
Actelion Java MolfileCreator 1.0

 32 34  0  0  0  0  0  0  0  0999 V2000
    0.0000   -0.0000   -0.0000 Br  0  0  0  0  0  0  0  0  0  0  0  0
   -1.3049    0.7592   -0.0000 C   0  0  0  0  0  0  0  0  0  0  0  0
   -2.6098    0.0237   -0.0000 C   0  0  0  0  0  0  0  0  0  0  0  0
   -1.3168    2.2776   -0.0000 C   0  0  0  0  0  0  0  0  0  0  0  0
   -3.9147    0.7829   -0.0000 C   0  0  0  0  0  0  0  0  0  0  0  0
   -2.6217    3.0369   -0.0000 C   0  0  0  0  0  0  0  0  0  0  0  0
   -3.9147    2.2895   -0.0000 C   0  0  0  0  0  0  0  0  0  0  0  0
   -5.2196    3.0487   -0.0000 C   0  0  0  0  0  0  0  0  0  0  0  0
   -5.2315    4.5553   -0.0000 C   0  0  0  0  0  0  0  0  0  0  0  0
   -3.9503    5.3145   -0.0000 N   0  0  0  0  0  0  0  0  0  0  0  0
   -6.5364    5.3145   -0.0000 C   0  0  0  0  0  0  0  0  0  0  0  0
   -3.9621    6.8211   -0.0000 C   0  0  0  0  0  0  0  0  0  0  0  0
   -6.5482    6.8211   -0.0000 O   0  0  0  0  0  0  0  0  0  0  0  0
   -7.8413    4.5790   -0.0000 N   0  0  0  0  0  0  0  0  0  0  0  0
   -5.2670    7.5803   -0.0000 O   0  0  0  0  0  0  0  0  0  0  0  0
   -2.6810    7.5803   -0.0000 C   0  0  0  0  0  0  0  0  0  0  0  0
   -9.1461    5.3382   -0.0000 C   0  0  0  0  0  0  0  0  0  0  0  0
   -7.8531    3.0962   -0.0000 C   0  0  0  0  0  0  0  0  0  0  0  0
   -1.3998    6.8448   -0.0000 C   0  0  0  0  0  0  0  0  0  0  0  0
   -3.4520    8.8852   -0.0000 C   0  0  0  0  0  0  0  0  0  0  0  0
   -1.9455    8.8970   -0.0000 C   0  0  0  0  0  0  0  0  0  0  0  0
  -10.4510    4.6027   -0.0000 C   0  0  0  0  0  0  0  0  0  0  0  0
   -0.1186    7.6040   -0.0000 C   0  0  0  0  0  0  0  0  0  0  0  0
   -1.4235    5.3501   -0.0000 C   0  0  0  0  0  0  0  0  0  0  0  0
  -11.7559    5.3619   -0.0000 N   0  0  0  0  0  0  0  0  0  0  0  0
   -0.1305    9.1106   -0.0000 Cl  0  0  0  0  0  0  0  0  0  0  0  0
    1.1625    6.8685   -0.0000 C   0  0  0  0  0  0  0  0  0  0  0  0
   -0.1424    4.6146   -0.0000 C   0  0  0  0  0  0  0  0  0  0  0  0
  -13.0608    4.6265   -0.0000 C   0  0  0  0  0  0  0  0  0  0  0  0
  -11.7678    6.8685   -0.0000 C   0  0  0  0  0  0  0  0  0  0  0  0
    1.1507    5.3738   -0.0000 C   0  0  0  0  0  0  0  0  0  0  0  0
    2.4319    4.6383   -0.0000 Cl  0  0  0  0  0  0  0  0  0  0  0  0
  1  2  1  0  0  0  0
  2  3  2  0  0  0  0
  2  4  1  0  0  0  0
  3  5  1  0  0  0  0
  4  6  2  0  0  0  0
  5  7  2  0  0  0  0
  7  8  1  0  0  0  0
  8  9  1  0  0  0  0
  9 10  1  1  0  0  0
  9 11  1  0  0  0  0
 10 12  1  0  0  0  0
 11 13  2  0  0  0  0
 11 14  1  0  0  0  0
 12 15  2  0  0  0  0
 12 16  1  0  0  0  0
 14 17  1  0  0  0  0
 14 18  1  0  0  0  0
 16 19  1  0  0  0  0
 16 20  1  0  0  0  0
 16 21  1  0  0  0  0
 17 22  1  0  0  0  0
 19 23  2  0  0  0  0
 19 24  1  0  0  0  0
 22 25  1  0  0  0  0
 23 26  1  0  0  0  0
 23 27  1  0  0  0  0
 24 28  2  0  0  0  0
 25 29  1  0  0  0  0
 25 30  1  0  0  0  0
 27 31  2  0  0  0  0
 31 32  1  0  0  0  0
  6  7  1  0  0  0  0
 20 21  1  0  0  0  0
 28 31  1  0  0  0  0
M  END
>  <MolRegNo>
1427260

>  <m>
=

>  <Value>
7800

>  <Unit>
nM

>  <Type>
IC50

>  <pValue>
5.11

>  <Ligand Efficiency>
0

>  <Binding Efficiency>
0

>  <Surface Efficiency>
0

>  <Assay Index>
689321

>  <Assay Category>


>  <Assay Organism>
Homo sapiens

>  <Target ID>
17045

>  <Target Name>
Cytochrome P450 3A4

>  <Target Organism>
Homo sapiens

>  <Target Description>
Target is a single protein chain

>  <Sequence Accession>
P08684

>  <Reference>
J Med Chem 55 (9), 4322-4335 (2012)

>  <Pubmed ID>
22497444

>  <DOI>
10.1021/jm300122u

$$$$
1427259
Actelion Java MolfileCreator 1.0

 33 35  0  0  0  0  0  0  0  0999 V2000
    0.0000   -0.0000   -0.0000 Cl  0  0  0  0  0  0  0  0  0  0  0  0
   -0.0119   -1.4892   -0.0000 C   0  0  0  0  0  0  0  0  0  0  0  0
   -1.3224   -2.2278   -0.0000 C   0  0  0  0  0  0  0  0  0  0  0  0
    1.2747   -2.2278   -0.0000 C   0  0  0  0  0  0  0  0  0  0  0  0
   -1.3462   -3.7289   -0.0000 C   0  0  0  0  0  0  0  0  0  0  0  0
   -2.6329   -1.4654   -0.0000 C   0  0  0  0  0  0  0  0  0  0  0  0
    1.2628   -3.7289   -0.0000 C   0  0  0  0  0  0  0  0  0  0  0  0
   -0.0596   -4.4676   -0.0000 C   0  0  0  0  0  0  0  0  0  0  0  0
   -3.9434   -2.2040   -0.0000 C   0  0  0  0  0  0  0  0  0  0  0  0
   -3.4073   -0.1549   -0.0000 C   0  0  0  0  0  0  0  0  0  0  0  0
   -1.8942   -0.1430   -0.0000 C   0  0  0  0  0  0  0  0  0  0  0  0
    2.5495   -4.4676   -0.0000 Cl  0  0  0  0  0  0  0  0  0  0  0  0
   -5.2538   -1.4415   -0.0000 O   0  0  0  0  0  0  0  0  0  0  0  0
   -3.9553   -3.6932   -0.0000 N   0  0  0  0  0  0  0  0  0  0  0  0
   -5.2658   -4.4318   -0.0000 C   0  0  0  0  0  0  0  0  0  0  0  0
   -6.5762   -3.6694   -0.0000 C   0  0  0  0  0  0  0  0  0  0  0  0
   -5.2777   -5.9210   -0.0000 C   0  0  0  0  0  0  0  0  0  0  0  0
   -6.5882   -2.1563   -0.0000 O   0  0  0  0  0  0  0  0  0  0  0  0
   -7.8867   -4.4080   -0.0000 N   0  0  0  0  0  0  0  0  0  0  0  0
   -3.9910   -6.6596   -0.0000 C   0  0  0  0  0  0  0  0  0  0  0  0
   -9.1972   -3.6455   -0.0000 C   0  0  0  0  0  0  0  0  0  0  0  0
   -7.8986   -5.8972   -0.0000 C   0  0  0  0  0  0  0  0  0  0  0  0
   -4.0148   -8.1488   -0.0000 C   0  0  0  0  0  0  0  0  0  0  0  0
   -2.7163   -5.8972   -0.0000 C   0  0  0  0  0  0  0  0  0  0  0  0
  -10.5077   -4.3842   -0.0000 C   0  0  0  0  0  0  0  0  0  0  0  0
   -5.3253   -8.8755   -0.0000 Cl  0  0  0  0  0  0  0  0  0  0  0  0
   -2.7282   -8.8875   -0.0000 C   0  0  0  0  0  0  0  0  0  0  0  0
   -1.4296   -6.6358   -0.0000 C   0  0  0  0  0  0  0  0  0  0  0  0
  -11.8182   -3.6217   -0.0000 N   0  0  0  0  0  0  0  0  0  0  0  0
   -1.4415   -8.1250   -0.0000 C   0  0  0  0  0  0  0  0  0  0  0  0
  -13.1287   -4.3603   -0.0000 C   0  0  0  0  0  0  0  0  0  0  0  0
  -11.8301   -2.1087   -0.0000 C   0  0  0  0  0  0  0  0  0  0  0  0
   -0.1549   -8.8636   -0.0000 Cl  0  0  0  0  0  0  0  0  0  0  0  0
  1  2  1  0  0  0  0
  2  3  2  0  0  0  0
  2  4  1  0  0  0  0
  3  5  1  0  0  0  0
  3  6  1  0  0  0  0
  4  7  2  0  0  0  0
  5  8  2  0  0  0  0
  6  9  1  0  0  0  0
  6 10  1  0  0  0  0
  6 11  1  0  0  0  0
  7 12  1  0  0  0  0
  9 13  2  0  0  0  0
  9 14  1  0  0  0  0
 15 14  1  1  0  0  0
 15 16  1  0  0  0  0
 15 17  1  0  0  0  0
 16 18  2  0  0  0  0
 16 19  1  0  0  0  0
 17 20  1  0  0  0  0
 19 21  1  0  0  0  0
 19 22  1  0  0  0  0
 20 23  2  0  0  0  0
 20 24  1  0  0  0  0
 21 25  1  0  0  0  0
 23 26  1  0  0  0  0
 23 27  1  0  0  0  0
 24 28  2  0  0  0  0
 25 29  1  0  0  0  0
 27 30  2  0  0  0  0
 29 31  1  0  0  0  0
 29 32  1  0  0  0  0
 30 33  1  0  0  0  0
  7  8  1  0  0  0  0
 10 11  1  0  0  0  0
 28 30  1  0  0  0  0
M  END
>  <MolRegNo>
1427259

>  <m>
=

>  <Value>
1530

>  <Unit>
nM

>  <Type>
IC50

>  <pValue>
5.82

>  <Ligand Efficiency>
0

>  <Binding Efficiency>
0

>  <Surface Efficiency>
0

>  <Assay Index>
689321

>  <Assay Category>


>  <Assay Organism>
Homo sapiens

>  <Target ID>
17045

>  <Target Name>
Cytochrome P450 3A4

>  <Target Organism>
Homo sapiens

>  <Target Description>
Target is a single protein chain

>  <Sequence Accession>
P08684

>  <Reference>
J Med Chem 55 (9), 4322-4335 (2012)

>  <Pubmed ID>
22497444

>  <DOI>
10.1021/jm300122u

$$$$
1427258
Actelion Java MolfileCreator 1.0

 33 36  0  0  0  0  0  0  0  0999 V2000
    0.0000   -0.0000   -0.0000 Cl  0  0  0  0  0  0  0  0  0  0  0  0
   -0.0119   -1.4901   -0.0000 C   0  0  0  0  0  0  0  0  0  0  0  0
   -1.3232   -2.2292   -0.0000 C   0  0  0  0  0  0  0  0  0  0  0  0
    1.2756   -2.2292   -0.0000 C   0  0  0  0  0  0  0  0  0  0  0  0
   -1.3471   -3.7313   -0.0000 C   0  0  0  0  0  0  0  0  0  0  0  0
   -2.6346   -1.4663   -0.0000 C   0  0  0  0  0  0  0  0  0  0  0  0
    1.2636   -3.7313   -0.0000 C   0  0  0  0  0  0  0  0  0  0  0  0
   -0.0596   -4.4704   -0.0000 C   0  0  0  0  0  0  0  0  0  0  0  0
   -3.9459   -2.2054   -0.0000 C   0  0  0  0  0  0  0  0  0  0  0  0
   -3.4094   -0.1550   -0.0000 C   0  0  0  0  0  0  0  0  0  0  0  0
   -1.8955   -0.1431   -0.0000 C   0  0  0  0  0  0  0  0  0  0  0  0
    2.5511   -4.4704   -0.0000 Cl  0  0  0  0  0  0  0  0  0  0  0  0
   -5.2572   -1.4425   -0.0000 O   0  0  0  0  0  0  0  0  0  0  0  0
   -3.9578   -3.6955   -0.0000 N   0  0  0  0  0  0  0  0  0  0  0  0
   -5.2691   -4.4346   -0.0000 C   0  0  0  0  0  0  0  0  0  0  0  0
   -6.5804   -3.6717   -0.0000 C   0  0  0  0  0  0  0  0  0  0  0  0
   -5.2810   -5.9248   -0.0000 C   0  0  0  0  0  0  0  0  0  0  0  0
   -6.5924   -2.1577   -0.0000 O   0  0  0  0  0  0  0  0  0  0  0  0
   -7.8918   -4.4108   -0.0000 N   0  0  0  0  0  0  0  0  0  0  0  0
   -3.9936   -6.6639   -0.0000 C   0  0  0  0  0  0  0  0  0  0  0  0
   -7.9037   -5.9009   -0.0000 C   0  0  0  0  0  0  0  0  0  0  0  0
   -9.2031   -3.6359   -0.0000 C   0  0  0  0  0  0  0  0  0  0  0  0
   -4.0174   -8.1540   -0.0000 C   0  0  0  0  0  0  0  0  0  0  0  0
   -2.7180   -5.9009   -0.0000 C   0  0  0  0  0  0  0  0  0  0  0  0
   -9.2150   -6.6281   -0.0000 C   0  0  0  0  0  0  0  0  0  0  0  0
  -10.5144   -4.3870   -0.0000 C   0  0  0  0  0  0  0  0  0  0  0  0
   -5.3287   -8.8812   -0.0000 Cl  0  0  0  0  0  0  0  0  0  0  0  0
   -2.7299   -8.8931   -0.0000 C   0  0  0  0  0  0  0  0  0  0  0  0
   -1.4305   -6.6400   -0.0000 C   0  0  0  0  0  0  0  0  0  0  0  0
  -10.5263   -5.8771   -0.0000 N   0  0  0  0  0  0  0  0  0  0  0  0
   -9.2269   -8.1183   -0.0000 C   0  0  0  0  0  0  0  0  0  0  0  0
   -1.4425   -8.1302   -0.0000 C   0  0  0  0  0  0  0  0  0  0  0  0
   -0.1550   -8.8693   -0.0000 Cl  0  0  0  0  0  0  0  0  0  0  0  0
  1  2  1  0  0  0  0
  2  3  2  0  0  0  0
  2  4  1  0  0  0  0
  3  5  1  0  0  0  0
  3  6  1  0  0  0  0
  4  7  2  0  0  0  0
  5  8  2  0  0  0  0
  6  9  1  0  0  0  0
  6 10  1  0  0  0  0
  6 11  1  0  0  0  0
  7 12  1  0  0  0  0
  9 13  2  0  0  0  0
  9 14  1  0  0  0  0
 15 14  1  1  0  0  0
 15 16  1  0  0  0  0
 15 17  1  0  0  0  0
 16 18  2  0  0  0  0
 16 19  1  0  0  0  0
 17 20  1  0  0  0  0
 19 21  1  0  0  0  0
 19 22  1  0  0  0  0
 20 23  2  0  0  0  0
 20 24  1  0  0  0  0
 21 25  1  0  0  0  0
 22 26  1  0  0  0  0
 23 27  1  0  0  0  0
 23 28  1  0  0  0  0
 24 29  2  0  0  0  0
 25 30  1  0  0  0  0
 25 31  1  6  0  0  0
 28 32  2  0  0  0  0
 32 33  1  0  0  0  0
  7  8  1  0  0  0  0
 10 11  1  0  0  0  0
 26 30  1  0  0  0  0
 29 32  1  0  0  0  0
M  END
>  <MolRegNo>
1427258

>  <m>
=

>  <Value>
400

>  <Unit>
nM

>  <Type>
IC50

>  <pValue>
6.4

>  <Ligand Efficiency>
0

>  <Binding Efficiency>
0

>  <Surface Efficiency>
0

>  <Assay Index>
689321

>  <Assay Category>


>  <Assay Organism>
Homo sapiens

>  <Target ID>
17045

>  <Target Name>
Cytochrome P450 3A4

>  <Target Organism>
Homo sapiens

>  <Target Description>
Target is a single protein chain

>  <Sequence Accession>
P08684

>  <Reference>
J Med Chem 55 (9), 4322-4335 (2012)

>  <Pubmed ID>
22497444

>  <DOI>
10.1021/jm300122u

$$$$
1427257
Actelion Java MolfileCreator 1.0

 33 36  0  0  0  0  0  0  0  0999 V2000
    0.0000   -0.0000   -0.0000 Cl  0  0  0  0  0  0  0  0  0  0  0  0
   -0.0119   -1.4901   -0.0000 C   0  0  0  0  0  0  0  0  0  0  0  0
   -1.3232   -2.2292   -0.0000 C   0  0  0  0  0  0  0  0  0  0  0  0
    1.2756   -2.2292   -0.0000 C   0  0  0  0  0  0  0  0  0  0  0  0
   -1.3471   -3.7313   -0.0000 C   0  0  0  0  0  0  0  0  0  0  0  0
   -2.6346   -1.4663   -0.0000 C   0  0  0  0  0  0  0  0  0  0  0  0
    1.2636   -3.7313   -0.0000 C   0  0  0  0  0  0  0  0  0  0  0  0
   -0.0596   -4.4704   -0.0000 C   0  0  0  0  0  0  0  0  0  0  0  0
   -3.9459   -2.2054   -0.0000 C   0  0  0  0  0  0  0  0  0  0  0  0
   -3.4094   -0.1550   -0.0000 C   0  0  0  0  0  0  0  0  0  0  0  0
   -1.8955   -0.1431   -0.0000 C   0  0  0  0  0  0  0  0  0  0  0  0
    2.5511   -4.4704   -0.0000 Cl  0  0  0  0  0  0  0  0  0  0  0  0
   -5.2572   -1.4425   -0.0000 O   0  0  0  0  0  0  0  0  0  0  0  0
   -3.9578   -3.6955   -0.0000 N   0  0  0  0  0  0  0  0  0  0  0  0
   -5.2691   -4.4346   -0.0000 C   0  0  0  0  0  0  0  0  0  0  0  0
   -6.5804   -3.6717   -0.0000 C   0  0  0  0  0  0  0  0  0  0  0  0
   -5.2810   -5.9248   -0.0000 C   0  0  0  0  0  0  0  0  0  0  0  0
   -6.5924   -2.1577   -0.0000 O   0  0  0  0  0  0  0  0  0  0  0  0
   -7.8918   -4.4108   -0.0000 N   0  0  0  0  0  0  0  0  0  0  0  0
   -3.9936   -6.6639   -0.0000 C   0  0  0  0  0  0  0  0  0  0  0  0
   -7.9037   -5.9009   -0.0000 C   0  0  0  0  0  0  0  0  0  0  0  0
   -9.2031   -3.6359   -0.0000 C   0  0  0  0  0  0  0  0  0  0  0  0
   -4.0174   -8.1540   -0.0000 C   0  0  0  0  0  0  0  0  0  0  0  0
   -2.7180   -5.9009   -0.0000 C   0  0  0  0  0  0  0  0  0  0  0  0
   -9.2150   -6.6281   -0.0000 C   0  0  0  0  0  0  0  0  0  0  0  0
  -10.5144   -4.3870   -0.0000 C   0  0  0  0  0  0  0  0  0  0  0  0
   -5.3287   -8.8812   -0.0000 Cl  0  0  0  0  0  0  0  0  0  0  0  0
   -2.7299   -8.8931   -0.0000 C   0  0  0  0  0  0  0  0  0  0  0  0
   -1.4305   -6.6400   -0.0000 C   0  0  0  0  0  0  0  0  0  0  0  0
  -10.5263   -5.8771   -0.0000 N   0  0  0  0  0  0  0  0  0  0  0  0
   -9.2269   -8.1183   -0.0000 C   0  0  0  0  0  0  0  0  0  0  0  0
   -1.4425   -8.1302   -0.0000 C   0  0  0  0  0  0  0  0  0  0  0  0
   -0.1550   -8.8693   -0.0000 Cl  0  0  0  0  0  0  0  0  0  0  0  0
  1  2  1  0  0  0  0
  2  3  2  0  0  0  0
  2  4  1  0  0  0  0
  3  5  1  0  0  0  0
  3  6  1  0  0  0  0
  4  7  2  0  0  0  0
  5  8  2  0  0  0  0
  6  9  1  0  0  0  0
  6 10  1  0  0  0  0
  6 11  1  0  0  0  0
  7 12  1  0  0  0  0
  9 13  2  0  0  0  0
  9 14  1  0  0  0  0
 15 14  1  6  0  0  0
 15 16  1  0  0  0  0
 15 17  1  0  0  0  0
 16 18  2  0  0  0  0
 16 19  1  0  0  0  0
 17 20  1  0  0  0  0
 19 21  1  0  0  0  0
 19 22  1  0  0  0  0
 20 23  2  0  0  0  0
 20 24  1  0  0  0  0
 21 25  1  0  0  0  0
 22 26  1  0  0  0  0
 23 27  1  0  0  0  0
 23 28  1  0  0  0  0
 24 29  2  0  0  0  0
 25 30  1  0  0  0  0
 25 31  1  6  0  0  0
 28 32  2  0  0  0  0
 32 33  1  0  0  0  0
  7  8  1  0  0  0  0
 10 11  1  0  0  0  0
 26 30  1  0  0  0  0
 29 32  1  0  0  0  0
M  END
>  <MolRegNo>
1427257

>  <m>
=

>  <Value>
450

>  <Unit>
nM

>  <Type>
IC50

>  <pValue>
6.35

>  <Ligand Efficiency>
0

>  <Binding Efficiency>
0

>  <Surface Efficiency>
0

>  <Assay Index>
689321

>  <Assay Category>


>  <Assay Organism>
Homo sapiens

>  <Target ID>
17045

>  <Target Name>
Cytochrome P450 3A4

>  <Target Organism>
Homo sapiens

>  <Target Description>
Target is a single protein chain

>  <Sequence Accession>
P08684

>  <Reference>
J Med Chem 55 (9), 4322-4335 (2012)

>  <Pubmed ID>
22497444

>  <DOI>
10.1021/jm300122u

$$$$
1427255
Actelion Java MolfileCreator 1.0

 32 35  0  0  0  0  0  0  0  0999 V2000
    0.0000   -0.0000   -0.0000 Br  0  0  0  0  0  0  0  0  0  0  0  0
   -1.3055    0.7596   -0.0000 C   0  0  0  0  0  0  0  0  0  0  0  0
   -2.6111    0.0237   -0.0000 C   0  0  0  0  0  0  0  0  0  0  0  0
   -1.3174    2.2788   -0.0000 C   0  0  0  0  0  0  0  0  0  0  0  0
   -3.9166    0.7833   -0.0000 C   0  0  0  0  0  0  0  0  0  0  0  0
   -2.6229    3.0383   -0.0000 C   0  0  0  0  0  0  0  0  0  0  0  0
   -3.9166    2.2906   -0.0000 C   0  0  0  0  0  0  0  0  0  0  0  0
   -5.2221    3.0502   -0.0000 C   0  0  0  0  0  0  0  0  0  0  0  0
   -5.2340    4.5575   -0.0000 C   0  0  0  0  0  0  0  0  0  0  0  0
   -3.9522    5.3171   -0.0000 N   0  0  0  0  0  0  0  0  0  0  0  0
   -6.5396    5.3171   -0.0000 C   0  0  0  0  0  0  0  0  0  0  0  0
   -3.9641    6.8244   -0.0000 C   0  0  0  0  0  0  0  0  0  0  0  0
   -6.5514    6.8244   -0.0000 O   0  0  0  0  0  0  0  0  0  0  0  0
   -7.8451    4.5812   -0.0000 N   0  0  0  0  0  0  0  0  0  0  0  0
   -5.2696    7.5840   -0.0000 O   0  0  0  0  0  0  0  0  0  0  0  0
   -2.6823    7.5840   -0.0000 C   0  0  0  0  0  0  0  0  0  0  0  0
   -9.1506    5.3527   -0.0000 C   0  0  0  0  0  0  0  0  0  0  0  0
   -7.8570    3.0977   -0.0000 C   0  0  0  0  0  0  0  0  0  0  0  0
   -1.4005    6.8481   -0.0000 C   0  0  0  0  0  0  0  0  0  0  0  0
   -3.4537    8.8895   -0.0000 C   0  0  0  0  0  0  0  0  0  0  0  0
   -1.9464    8.9014   -0.0000 C   0  0  0  0  0  0  0  0  0  0  0  0
  -10.4562    4.6050   -0.0000 C   0  0  0  0  0  0  0  0  0  0  0  0
   -9.1625    2.3737   -0.0000 C   0  0  0  0  0  0  0  0  0  0  0  0
   -0.1187    7.6077   -0.0000 C   0  0  0  0  0  0  0  0  0  0  0  0
   -1.4242    5.3527   -0.0000 C   0  0  0  0  0  0  0  0  0  0  0  0
  -10.4680    3.1214   -0.0000 N   0  0  0  0  0  0  0  0  0  0  0  0
   -0.1306    9.1150   -0.0000 Cl  0  0  0  0  0  0  0  0  0  0  0  0
    1.1631    6.8719   -0.0000 C   0  0  0  0  0  0  0  0  0  0  0  0
   -0.1424    4.6169   -0.0000 C   0  0  0  0  0  0  0  0  0  0  0  0
  -11.7736    2.3856   -0.0000 C   0  0  0  0  0  0  0  0  0  0  0  0
    1.1512    5.3764   -0.0000 C   0  0  0  0  0  0  0  0  0  0  0  0
    2.4330    4.6406   -0.0000 Cl  0  0  0  0  0  0  0  0  0  0  0  0
  1  2  1  0  0  0  0
  2  3  2  0  0  0  0
  2  4  1  0  0  0  0
  3  5  1  0  0  0  0
  4  6  2  0  0  0  0
  5  7  2  0  0  0  0
  7  8  1  0  0  0  0
  8  9  1  0  0  0  0
  9 10  1  1  0  0  0
  9 11  1  0  0  0  0
 10 12  1  0  0  0  0
 11 13  2  0  0  0  0
 11 14  1  0  0  0  0
 12 15  2  0  0  0  0
 12 16  1  0  0  0  0
 14 17  1  0  0  0  0
 14 18  1  0  0  0  0
 16 19  1  0  0  0  0
 16 20  1  0  0  0  0
 16 21  1  0  0  0  0
 17 22  1  0  0  0  0
 18 23  1  0  0  0  0
 19 24  2  0  0  0  0
 19 25  1  0  0  0  0
 22 26  1  0  0  0  0
 24 27  1  0  0  0  0
 24 28  1  0  0  0  0
 25 29  2  0  0  0  0
 26 30  1  0  0  0  0
 28 31  2  0  0  0  0
 31 32  1  0  0  0  0
  6  7  1  0  0  0  0
 20 21  1  0  0  0  0
 23 26  1  0  0  0  0
 29 31  1  0  0  0  0
M  END
>  <MolRegNo>
1427255

>  <m>
=

>  <Value>
480

>  <Unit>
nM

>  <Type>
IC50

>  <pValue>
6.32

>  <Ligand Efficiency>
0

>  <Binding Efficiency>
0

>  <Surface Efficiency>
0

>  <Assay Index>
689321

>  <Assay Category>


>  <Assay Organism>
Homo sapiens

>  <Target ID>
17045

>  <Target Name>
Cytochrome P450 3A4

>  <Target Organism>
Homo sapiens

>  <Target Description>
Target is a single protein chain

>  <Sequence Accession>
P08684

>  <Reference>
J Med Chem 55 (9), 4322-4335 (2012)

>  <Pubmed ID>
22497444

>  <DOI>
10.1021/jm300122u

$$$$
1427254
Actelion Java MolfileCreator 1.0

 32 35  0  0  0  0  0  0  0  0999 V2000
    0.0000   -0.0000   -0.0000 Cl  0  0  0  0  0  0  0  0  0  0  0  0
   -0.0119   -1.4897   -0.0000 C   0  0  0  0  0  0  0  0  0  0  0  0
   -1.3228   -2.2286   -0.0000 C   0  0  0  0  0  0  0  0  0  0  0  0
    1.2752   -2.2286   -0.0000 C   0  0  0  0  0  0  0  0  0  0  0  0
   -1.3467   -3.7302   -0.0000 C   0  0  0  0  0  0  0  0  0  0  0  0
   -2.6338   -1.4659   -0.0000 C   0  0  0  0  0  0  0  0  0  0  0  0
    1.2633   -3.7302   -0.0000 C   0  0  0  0  0  0  0  0  0  0  0  0
   -0.0596   -4.4691   -0.0000 C   0  0  0  0  0  0  0  0  0  0  0  0
   -3.9447   -2.2047   -0.0000 C   0  0  0  0  0  0  0  0  0  0  0  0
   -3.4084   -0.1549   -0.0000 C   0  0  0  0  0  0  0  0  0  0  0  0
   -1.8949   -0.1430   -0.0000 C   0  0  0  0  0  0  0  0  0  0  0  0
    2.5504   -4.4691   -0.0000 Cl  0  0  0  0  0  0  0  0  0  0  0  0
   -5.2556   -1.4420   -0.0000 O   0  0  0  0  0  0  0  0  0  0  0  0
   -3.9566   -3.6944   -0.0000 N   0  0  0  0  0  0  0  0  0  0  0  0
   -5.2676   -4.4333   -0.0000 C   0  0  0  0  0  0  0  0  0  0  0  0
   -6.5785   -3.6706   -0.0000 C   0  0  0  0  0  0  0  0  0  0  0  0
   -5.2795   -5.9230   -0.0000 C   0  0  0  0  0  0  0  0  0  0  0  0
   -6.5904   -2.1571   -0.0000 O   0  0  0  0  0  0  0  0  0  0  0  0
   -7.8894   -4.4095   -0.0000 N   0  0  0  0  0  0  0  0  0  0  0  0
   -3.9924   -6.6619   -0.0000 C   0  0  0  0  0  0  0  0  0  0  0  0
   -9.2003   -3.6348   -0.0000 C   0  0  0  0  0  0  0  0  0  0  0  0
   -7.9013   -5.8992   -0.0000 C   0  0  0  0  0  0  0  0  0  0  0  0
   -4.0162   -8.1516   -0.0000 C   0  0  0  0  0  0  0  0  0  0  0  0
   -2.7172   -5.8992   -0.0000 C   0  0  0  0  0  0  0  0  0  0  0  0
  -10.5113   -4.3857   -0.0000 C   0  0  0  0  0  0  0  0  0  0  0  0
   -9.2123   -6.6262   -0.0000 C   0  0  0  0  0  0  0  0  0  0  0  0
   -2.7291   -8.8905   -0.0000 C   0  0  0  0  0  0  0  0  0  0  0  0
   -1.4301   -6.6381   -0.0000 C   0  0  0  0  0  0  0  0  0  0  0  0
  -10.5232   -5.8753   -0.0000 N   0  0  0  0  0  0  0  0  0  0  0  0
   -1.4420   -8.1278   -0.0000 C   0  0  0  0  0  0  0  0  0  0  0  0
  -11.8341   -6.6142   -0.0000 C   0  0  0  0  0  0  0  0  0  0  0  0
   -0.1549   -8.8666   -0.0000 Cl  0  0  0  0  0  0  0  0  0  0  0  0
  1  2  1  0  0  0  0
  2  3  2  0  0  0  0
  2  4  1  0  0  0  0
  3  5  1  0  0  0  0
  3  6  1  0  0  0  0
  4  7  2  0  0  0  0
  5  8  2  0  0  0  0
  6  9  1  0  0  0  0
  6 10  1  0  0  0  0
  6 11  1  0  0  0  0
  7 12  1  0  0  0  0
  9 13  2  0  0  0  0
  9 14  1  0  0  0  0
 15 14  1  1  0  0  0
 15 16  1  0  0  0  0
 15 17  1  0  0  0  0
 16 18  2  0  0  0  0
 16 19  1  0  0  0  0
 17 20  1  0  0  0  0
 19 21  1  0  0  0  0
 19 22  1  0  0  0  0
 20 23  2  0  0  0  0
 20 24  1  0  0  0  0
 21 25  1  0  0  0  0
 22 26  1  0  0  0  0
 23 27  1  0  0  0  0
 24 28  2  0  0  0  0
 25 29  1  0  0  0  0
 27 30  2  0  0  0  0
 29 31  1  0  0  0  0
 30 32  1  0  0  0  0
  7  8  1  0  0  0  0
 10 11  1  0  0  0  0
 26 29  1  0  0  0  0
 28 30  1  0  0  0  0
M  END
>  <MolRegNo>
1427254

>  <m>
=

>  <Value>
760

>  <Unit>
nM

>  <Type>
IC50

>  <pValue>
6.12

>  <Ligand Efficiency>
0

>  <Binding Efficiency>
0

>  <Surface Efficiency>
0

>  <Assay Index>
689321

>  <Assay Category>


>  <Assay Organism>
Homo sapiens

>  <Target ID>
17045

>  <Target Name>
Cytochrome P450 3A4

>  <Target Organism>
Homo sapiens

>  <Target Description>
Target is a single protein chain

>  <Sequence Accession>
P08684

>  <Reference>
J Med Chem 55 (9), 4322-4335 (2012)

>  <Pubmed ID>
22497444

>  <DOI>
10.1021/jm300122u

$$$$
1427253
Actelion Java MolfileCreator 1.0

 33 36  0  0  0  0  0  0  0  0999 V2000
    0.0000   -0.0000   -0.0000 Cl  0  0  0  0  0  0  0  0  0  0  0  0
   -0.0119   -1.4897   -0.0000 C   0  0  0  0  0  0  0  0  0  0  0  0
   -1.3229   -2.2286   -0.0000 C   0  0  0  0  0  0  0  0  0  0  0  0
    1.2752   -2.2286   -0.0000 C   0  0  0  0  0  0  0  0  0  0  0  0
   -1.3467   -3.7303   -0.0000 C   0  0  0  0  0  0  0  0  0  0  0  0
   -2.6338   -1.4659   -0.0000 C   0  0  0  0  0  0  0  0  0  0  0  0
    1.2633   -3.7303   -0.0000 C   0  0  0  0  0  0  0  0  0  0  0  0
   -0.0596   -4.4692   -0.0000 C   0  0  0  0  0  0  0  0  0  0  0  0
   -3.9448   -2.2048   -0.0000 C   0  0  0  0  0  0  0  0  0  0  0  0
   -3.4085   -0.1549   -0.0000 C   0  0  0  0  0  0  0  0  0  0  0  0
   -1.8949   -0.1430   -0.0000 C   0  0  0  0  0  0  0  0  0  0  0  0
    2.5504   -4.4692   -0.0000 Cl  0  0  0  0  0  0  0  0  0  0  0  0
   -5.2557   -1.4420   -0.0000 O   0  0  0  0  0  0  0  0  0  0  0  0
   -3.9567   -3.6945   -0.0000 N   0  0  0  0  0  0  0  0  0  0  0  0
   -5.2676   -4.4334   -0.0000 C   0  0  0  0  0  0  0  0  0  0  0  0
   -6.5786   -3.6707   -0.0000 C   0  0  0  0  0  0  0  0  0  0  0  0
   -5.2796   -5.9231   -0.0000 C   0  0  0  0  0  0  0  0  0  0  0  0
   -6.5905   -2.1571   -0.0000 O   0  0  0  0  0  0  0  0  0  0  0  0
   -7.8896   -4.4096   -0.0000 N   0  0  0  0  0  0  0  0  0  0  0  0
   -3.9924   -6.6620   -0.0000 C   0  0  0  0  0  0  0  0  0  0  0  0
   -9.2005   -3.6349   -0.0000 C   0  0  0  0  0  0  0  0  0  0  0  0
   -7.9015   -5.8993   -0.0000 C   0  0  0  0  0  0  0  0  0  0  0  0
   -4.0163   -8.1517   -0.0000 C   0  0  0  0  0  0  0  0  0  0  0  0
   -2.7172   -5.8993   -0.0000 C   0  0  0  0  0  0  0  0  0  0  0  0
  -10.5115   -4.3857   -0.0000 C   0  0  0  0  0  0  0  0  0  0  0  0
   -9.2124   -6.6263   -0.0000 C   0  0  0  0  0  0  0  0  0  0  0  0
   -5.3272   -8.8787   -0.0000 Cl  0  0  0  0  0  0  0  0  0  0  0  0
   -2.7292   -8.8906   -0.0000 C   0  0  0  0  0  0  0  0  0  0  0  0
   -1.4301   -6.6382   -0.0000 C   0  0  0  0  0  0  0  0  0  0  0  0
  -10.5234   -5.8755   -0.0000 N   0  0  0  0  0  0  0  0  0  0  0  0
   -1.4420   -8.1279   -0.0000 C   0  0  0  0  0  0  0  0  0  0  0  0
  -11.8343   -6.6144   -0.0000 C   0  0  0  0  0  0  0  0  0  0  0  0
   -0.1549   -8.8668   -0.0000 Cl  0  0  0  0  0  0  0  0  0  0  0  0
  1  2  1  0  0  0  0
  2  3  2  0  0  0  0
  2  4  1  0  0  0  0
  3  5  1  0  0  0  0
  3  6  1  0  0  0  0
  4  7  2  0  0  0  0
  5  8  2  0  0  0  0
  6  9  1  0  0  0  0
  6 10  1  0  0  0  0
  6 11  1  0  0  0  0
  7 12  1  0  0  0  0
  9 13  2  0  0  0  0
  9 14  1  0  0  0  0
 15 14  1  1  0  0  0
 15 16  1  0  0  0  0
 15 17  1  0  0  0  0
 16 18  2  0  0  0  0
 16 19  1  0  0  0  0
 17 20  1  0  0  0  0
 19 21  1  0  0  0  0
 19 22  1  0  0  0  0
 20 23  2  0  0  0  0
 20 24  1  0  0  0  0
 21 25  1  0  0  0  0
 22 26  1  0  0  0  0
 23 27  1  0  0  0  0
 23 28  1  0  0  0  0
 24 29  2  0  0  0  0
 25 30  1  0  0  0  0
 28 31  2  0  0  0  0
 30 32  1  0  0  0  0
 31 33  1  0  0  0  0
  7  8  1  0  0  0  0
 10 11  1  0  0  0  0
 26 30  1  0  0  0  0
 29 31  1  0  0  0  0
M  END
>  <MolRegNo>
1427253

>  <m>
=

>  <Value>
1030

>  <Unit>
nM

>  <Type>
IC50

>  <pValue>
5.99

>  <Ligand Efficiency>
0

>  <Binding Efficiency>
0

>  <Surface Efficiency>
0

>  <Assay Index>
689321

>  <Assay Category>


>  <Assay Organism>
Homo sapiens

>  <Target ID>
17045

>  <Target Name>
Cytochrome P450 3A4

>  <Target Organism>
Homo sapiens

>  <Target Description>
Target is a single protein chain

>  <Sequence Accession>
P08684

>  <Reference>
J Med Chem 55 (9), 4322-4335 (2012)

>  <Pubmed ID>
22497444

>  <DOI>
10.1021/jm300122u

$$$$
1427252
Actelion Java MolfileCreator 1.0

 31 34  0  0  0  0  0  0  0  0999 V2000
    0.0000   -0.0000   -0.0000 Cl  0  0  0  0  0  0  0  0  0  0  0  0
   -0.0119   -1.5008   -0.0000 C   0  0  0  0  0  0  0  0  0  0  0  0
   -1.3221   -2.2393   -0.0000 C   0  0  0  0  0  0  0  0  0  0  0  0
    1.2745   -2.2393   -0.0000 C   0  0  0  0  0  0  0  0  0  0  0  0
   -1.3459   -3.7401   -0.0000 C   0  0  0  0  0  0  0  0  0  0  0  0
   -2.6323   -1.4770   -0.0000 C   0  0  0  0  0  0  0  0  0  0  0  0
    1.2626   -3.7401   -0.0000 C   0  0  0  0  0  0  0  0  0  0  0  0
   -0.0596   -4.4786   -0.0000 C   0  0  0  0  0  0  0  0  0  0  0  0
   -3.9426   -2.2155   -0.0000 C   0  0  0  0  0  0  0  0  0  0  0  0
   -3.4066   -0.1668   -0.0000 C   0  0  0  0  0  0  0  0  0  0  0  0
   -1.8939   -0.1548   -0.0000 C   0  0  0  0  0  0  0  0  0  0  0  0
    2.5490   -4.4786   -0.0000 Cl  0  0  0  0  0  0  0  0  0  0  0  0
   -5.2528   -1.4531   -0.0000 O   0  0  0  0  0  0  0  0  0  0  0  0
   -3.9545   -3.7043   -0.0000 N   0  0  0  0  0  0  0  0  0  0  0  0
   -5.2647   -4.4428   -0.0000 C   0  0  0  0  0  0  0  0  0  0  0  0
   -6.5749   -3.6805   -0.0000 C   0  0  0  0  0  0  0  0  0  0  0  0
   -5.2766   -5.9317   -0.0000 C   0  0  0  0  0  0  0  0  0  0  0  0
   -6.5868   -2.1678   -0.0000 O   0  0  0  0  0  0  0  0  0  0  0  0
   -7.8851   -4.4190   -0.0000 N   0  0  0  0  0  0  0  0  0  0  0  0
   -3.9902   -6.6702   -0.0000 C   0  0  0  0  0  0  0  0  0  0  0  0
   -9.1953   -3.6448   -0.0000 C   0  0  0  0  0  0  0  0  0  0  0  0
   -7.8970   -5.9079   -0.0000 C   0  0  0  0  0  0  0  0  0  0  0  0
   -4.0140   -8.1591   -0.0000 C   0  0  0  0  0  0  0  0  0  0  0  0
   -2.7157   -5.9079   -0.0000 C   0  0  0  0  0  0  0  0  0  0  0  0
  -10.5055   -4.3952   -0.0000 C   0  0  0  0  0  0  0  0  0  0  0  0
   -9.2072   -6.6344   -0.0000 C   0  0  0  0  0  0  0  0  0  0  0  0
   -2.7276   -8.8975   -0.0000 C   0  0  0  0  0  0  0  0  0  0  0  0
   -1.4293   -6.6464   -0.0000 C   0  0  0  0  0  0  0  0  0  0  0  0
  -10.5174   -5.8841   -0.0000 N   0  0  0  0  0  0  0  0  0  0  0  0
   -1.4412   -8.1352   -0.0000 C   0  0  0  0  0  0  0  0  0  0  0  0
  -11.8277   -6.6225   -0.0000 C   0  0  0  0  0  0  0  0  0  0  0  0
  1  2  1  0  0  0  0
  2  3  2  0  0  0  0
  2  4  1  0  0  0  0
  3  5  1  0  0  0  0
  3  6  1  0  0  0  0
  4  7  2  0  0  0  0
  5  8  2  0  0  0  0
  6  9  1  0  0  0  0
  6 10  1  0  0  0  0
  6 11  1  0  0  0  0
  7 12  1  0  0  0  0
  9 13  2  0  0  0  0
  9 14  1  0  0  0  0
 15 14  1  1  0  0  0
 15 16  1  0  0  0  0
 15 17  1  0  0  0  0
 16 18  2  0  0  0  0
 16 19  1  0  0  0  0
 17 20  1  0  0  0  0
 19 21  1  0  0  0  0
 19 22  1  0  0  0  0
 20 23  2  0  0  0  0
 20 24  1  0  0  0  0
 21 25  1  0  0  0  0
 22 26  1  0  0  0  0
 23 27  1  0  0  0  0
 24 28  2  0  0  0  0
 25 29  1  0  0  0  0
 27 30  2  0  0  0  0
 29 31  1  0  0  0  0
  7  8  1  0  0  0  0
 10 11  1  0  0  0  0
 26 29  1  0  0  0  0
 28 30  1  0  0  0  0
M  END
>  <MolRegNo>
1427252

>  <m>
=

>  <Value>
1360

>  <Unit>
nM

>  <Type>
IC50

>  <pValue>
5.87

>  <Ligand Efficiency>
0

>  <Binding Efficiency>
0

>  <Surface Efficiency>
0

>  <Assay Index>
689321

>  <Assay Category>


>  <Assay Organism>
Homo sapiens

>  <Target ID>
17045

>  <Target Name>
Cytochrome P450 3A4

>  <Target Organism>
Homo sapiens

>  <Target Description>
Target is a single protein chain

>  <Sequence Accession>
P08684

>  <Reference>
J Med Chem 55 (9), 4322-4335 (2012)

>  <Pubmed ID>
22497444

>  <DOI>
10.1021/jm300122u

$$$$
1427251
Actelion Java MolfileCreator 1.0

 33 36  0  0  0  0  0  0  0  0999 V2000
    0.0000   -0.0000   -0.0000 Cl  0  0  0  0  0  0  0  0  0  0  0  0
   -0.0119   -1.4900   -0.0000 C   0  0  0  0  0  0  0  0  0  0  0  0
   -1.3231   -2.2290   -0.0000 C   0  0  0  0  0  0  0  0  0  0  0  0
    1.2754   -2.2290   -0.0000 C   0  0  0  0  0  0  0  0  0  0  0  0
   -1.3469   -3.7309   -0.0000 C   0  0  0  0  0  0  0  0  0  0  0  0
   -2.6343   -1.4661   -0.0000 C   0  0  0  0  0  0  0  0  0  0  0  0
    1.2635   -3.7309   -0.0000 C   0  0  0  0  0  0  0  0  0  0  0  0
   -0.0596   -4.4699   -0.0000 C   0  0  0  0  0  0  0  0  0  0  0  0
   -3.9455   -2.2052   -0.0000 C   0  0  0  0  0  0  0  0  0  0  0  0
   -3.4091   -0.1550   -0.0000 C   0  0  0  0  0  0  0  0  0  0  0  0
   -1.8952   -0.1430   -0.0000 C   0  0  0  0  0  0  0  0  0  0  0  0
    2.5508   -4.4699   -0.0000 Cl  0  0  0  0  0  0  0  0  0  0  0  0
   -5.2566   -1.4423   -0.0000 O   0  0  0  0  0  0  0  0  0  0  0  0
   -3.9574   -3.6951   -0.0000 N   0  0  0  0  0  0  0  0  0  0  0  0
   -5.2686   -4.4342   -0.0000 C   0  0  0  0  0  0  0  0  0  0  0  0
   -6.5797   -3.6713   -0.0000 C   0  0  0  0  0  0  0  0  0  0  0  0
   -5.2805   -5.9241   -0.0000 C   0  0  0  0  0  0  0  0  0  0  0  0
   -6.5917   -2.1575   -0.0000 O   0  0  0  0  0  0  0  0  0  0  0  0
   -7.8909   -4.4103   -0.0000 N   0  0  0  0  0  0  0  0  0  0  0  0
   -3.9931   -6.6632   -0.0000 O   0  0  0  0  0  0  0  0  0  0  0  0
   -9.2021   -3.6355   -0.0000 C   0  0  0  0  0  0  0  0  0  0  0  0
   -7.9028   -5.9003   -0.0000 C   0  0  0  0  0  0  0  0  0  0  0  0
   -4.0051   -8.1531   -0.0000 C   0  0  0  0  0  0  0  0  0  0  0  0
  -10.5133   -4.3865   -0.0000 C   0  0  0  0  0  0  0  0  0  0  0  0
   -9.2140   -6.6274   -0.0000 C   0  0  0  0  0  0  0  0  0  0  0  0
   -2.7177   -8.8922   -0.0000 C   0  0  0  0  0  0  0  0  0  0  0  0
  -10.5252   -5.8765   -0.0000 N   0  0  0  0  0  0  0  0  0  0  0  0
   -2.7416  -10.3821   -0.0000 C   0  0  0  0  0  0  0  0  0  0  0  0
   -1.4423   -8.1293   -0.0000 C   0  0  0  0  0  0  0  0  0  0  0  0
  -11.8364   -6.6155   -0.0000 C   0  0  0  0  0  0  0  0  0  0  0  0
   -1.4542  -11.1212   -0.0000 C   0  0  0  0  0  0  0  0  0  0  0  0
   -0.1550   -8.8683   -0.0000 C   0  0  0  0  0  0  0  0  0  0  0  0
   -0.1669  -10.3583   -0.0000 C   0  0  0  0  0  0  0  0  0  0  0  0
  1  2  1  0  0  0  0
  2  3  2  0  0  0  0
  2  4  1  0  0  0  0
  3  5  1  0  0  0  0
  3  6  1  0  0  0  0
  4  7  2  0  0  0  0
  5  8  2  0  0  0  0
  6  9  1  0  0  0  0
  6 10  1  0  0  0  0
  6 11  1  0  0  0  0
  7 12  1  0  0  0  0
  9 13  2  0  0  0  0
  9 14  1  0  0  0  0
 15 14  1  1  0  0  0
 15 16  1  0  0  0  0
 15 17  1  0  0  0  0
 16 18  2  0  0  0  0
 16 19  1  0  0  0  0
 17 20  1  0  0  0  0
 19 21  1  0  0  0  0
 19 22  1  0  0  0  0
 20 23  1  0  0  0  0
 21 24  1  0  0  0  0
 22 25  1  0  0  0  0
 23 26  1  0  0  0  0
 24 27  1  0  0  0  0
 26 28  2  0  0  0  0
 26 29  1  0  0  0  0
 27 30  1  0  0  0  0
 28 31  1  0  0  0  0
 29 32  2  0  0  0  0
 31 33  2  0  0  0  0
  7  8  1  0  0  0  0
 10 11  1  0  0  0  0
 25 27  1  0  0  0  0
 32 33  1  0  0  0  0
M  END
>  <MolRegNo>
1427251

>  <m>
=

>  <Value>
2200

>  <Unit>
nM

>  <Type>
IC50

>  <pValue>
5.66

>  <Ligand Efficiency>
0

>  <Binding Efficiency>
0

>  <Surface Efficiency>
0

>  <Assay Index>
689321

>  <Assay Category>


>  <Assay Organism>
Homo sapiens

>  <Target ID>
17045

>  <Target Name>
Cytochrome P450 3A4

>  <Target Organism>
Homo sapiens

>  <Target Description>
Target is a single protein chain

>  <Sequence Accession>
P08684

>  <Reference>
J Med Chem 55 (9), 4322-4335 (2012)

>  <Pubmed ID>
22497444

>  <DOI>
10.1021/jm300122u

$$$$
1427250
Actelion Java MolfileCreator 1.0

 34 38  0  0  0  0  0  0  0  0999 V2000
    0.0000   -0.0000   -0.0000 Cl  0  0  0  0  0  0  0  0  0  0  0  0
   -0.0119   -1.4912   -0.0000 C   0  0  0  0  0  0  0  0  0  0  0  0
   -1.3242   -2.2308   -0.0000 C   0  0  0  0  0  0  0  0  0  0  0  0
    1.2764   -2.2308   -0.0000 C   0  0  0  0  0  0  0  0  0  0  0  0
   -1.3480   -3.7339   -0.0000 C   0  0  0  0  0  0  0  0  0  0  0  0
   -2.6364   -1.4673   -0.0000 C   0  0  0  0  0  0  0  0  0  0  0  0
    1.2645   -3.7339   -0.0000 C   0  0  0  0  0  0  0  0  0  0  0  0
   -0.0596   -4.4735   -0.0000 C   0  0  0  0  0  0  0  0  0  0  0  0
   -3.9486   -2.2069   -0.0000 C   0  0  0  0  0  0  0  0  0  0  0  0
   -3.4118   -0.1551   -0.0000 C   0  0  0  0  0  0  0  0  0  0  0  0
   -1.8968   -0.1432   -0.0000 C   0  0  0  0  0  0  0  0  0  0  0  0
    2.5529   -4.4735   -0.0000 Cl  0  0  0  0  0  0  0  0  0  0  0  0
   -5.2609   -1.4435   -0.0000 O   0  0  0  0  0  0  0  0  0  0  0  0
   -3.9606   -3.6981   -0.0000 N   0  0  0  0  0  0  0  0  0  0  0  0
   -5.2728   -4.4377   -0.0000 C   0  0  0  0  0  0  0  0  0  0  0  0
   -6.5850   -3.6742   -0.0000 C   0  0  0  0  0  0  0  0  0  0  0  0
   -5.2847   -5.9289   -0.0000 C   0  0  0  0  0  0  0  0  0  0  0  0
   -6.5969   -2.1592   -0.0000 O   0  0  0  0  0  0  0  0  0  0  0  0
   -7.8972   -4.4139   -0.0000 N   0  0  0  0  0  0  0  0  0  0  0  0
   -3.8651   -6.3822   -0.0000 C   0  0  0  0  0  0  0  0  0  0  0  0
   -9.2095   -3.6385   -0.0000 C   0  0  0  0  0  0  0  0  0  0  0  0
   -7.9092   -5.9050   -0.0000 C   0  0  0  0  0  0  0  0  0  0  0  0
   -3.4118   -7.8018   -0.0000 C   0  0  0  0  0  0  0  0  0  0  0  0
   -2.6602   -5.4994   -0.0000 C   0  0  0  0  0  0  0  0  0  0  0  0
  -10.5217   -4.3900   -0.0000 C   0  0  0  0  0  0  0  0  0  0  0  0
   -9.2214   -6.6327   -0.0000 C   0  0  0  0  0  0  0  0  0  0  0  0
   -1.9326   -7.8018   -0.0000 C   0  0  0  0  0  0  0  0  0  0  0  0
   -4.1753   -9.0782   -0.0000 C   0  0  0  0  0  0  0  0  0  0  0  0
   -1.4554   -6.3703   -0.0000 N   0  0  0  0  0  0  0  0  0  0  0  0
  -10.5336   -5.8812   -0.0000 N   0  0  0  0  0  0  0  0  0  0  0  0
   -1.2049   -9.0782   -0.0000 C   0  0  0  0  0  0  0  0  0  0  0  0
   -3.4476  -10.3666   -0.0000 C   0  0  0  0  0  0  0  0  0  0  0  0
  -11.8459   -6.6208   -0.0000 C   0  0  0  0  0  0  0  0  0  0  0  0
   -1.9564  -10.3547   -0.0000 C   0  0  0  0  0  0  0  0  0  0  0  0
  1  2  1  0  0  0  0
  2  3  2  0  0  0  0
  2  4  1  0  0  0  0
  3  5  1  0  0  0  0
  3  6  1  0  0  0  0
  4  7  2  0  0  0  0
  5  8  2  0  0  0  0
  6  9  1  0  0  0  0
  6 10  1  0  0  0  0
  6 11  1  0  0  0  0
  7 12  1  0  0  0  0
  9 13  2  0  0  0  0
  9 14  1  0  0  0  0
 15 14  1  1  0  0  0
 15 16  1  0  0  0  0
 15 17  1  0  0  0  0
 16 18  2  0  0  0  0
 16 19  1  0  0  0  0
 17 20  1  0  0  0  0
 19 21  1  0  0  0  0
 19 22  1  0  0  0  0
 20 23  1  0  0  0  0
 20 24  2  0  0  0  0
 21 25  1  0  0  0  0
 22 26  1  0  0  0  0
 23 27  2  0  0  0  0
 23 28  1  0  0  0  0
 24 29  1  0  0  0  0
 25 30  1  0  0  0  0
 27 31  1  0  0  0  0
 28 32  2  0  0  0  0
 30 33  1  0  0  0  0
 31 34  2  0  0  0  0
  7  8  1  0  0  0  0
 10 11  1  0  0  0  0
 26 30  1  0  0  0  0
 27 29  1  0  0  0  0
 32 34  1  0  0  0  0
M  END
>  <MolRegNo>
1427250

>  <m>
=

>  <Value>
10000

>  <Unit>
nM

>  <Type>
IC50

>  <pValue>
5

>  <Ligand Efficiency>
0

>  <Binding Efficiency>
0

>  <Surface Efficiency>
0

>  <Assay Index>
689321

>  <Assay Category>


>  <Assay Organism>
Homo sapiens

>  <Target ID>
17045

>  <Target Name>
Cytochrome P450 3A4

>  <Target Organism>
Homo sapiens

>  <Target Description>
Target is a single protein chain

>  <Sequence Accession>
P08684

>  <Reference>
J Med Chem 55 (9), 4322-4335 (2012)

>  <Pubmed ID>
22497444

>  <DOI>
10.1021/jm300122u

$$$$
1428753
Actelion Java MolfileCreator 1.0

 21 23  0  0  0  0  0  0  0  0999 V2000
    0.0000   -0.0000   -0.0000 O   0  0  0  0  0  0  0  0  0  0  0  0
    1.2948    0.7602   -0.0000 C   0  0  0  0  0  0  0  0  0  0  0  0
    2.5895    0.0119   -0.0000 N   0  0  0  0  0  0  0  0  0  0  0  0
    1.2948    2.2807   -0.0000 C   0  0  0  0  0  0  0  0  0  0  0  0
    3.8843    0.7721   -0.0000 C   0  0  0  0  0  0  0  0  0  0  0  0
    2.5777   -1.4848   -0.0000 C   0  0  0  0  0  0  0  0  0  0  0  0
    2.5895    3.0409   -0.0000 C   0  0  0  0  0  0  0  0  0  0  0  0
    3.8843    2.2926   -0.0000 C   0  0  0  0  0  0  0  0  0  0  0  0
    5.1791    0.0356   -0.0000 C   0  0  0  0  0  0  0  0  0  0  0  0
    5.1672    3.0528   -0.0000 C   0  0  0  0  0  0  0  0  0  0  0  0
    6.4738    0.7959   -0.0000 C   0  0  0  0  0  0  0  0  0  0  0  0
    6.4620    2.3163   -0.0000 C   0  0  0  0  0  0  0  0  0  0  0  0
    7.7686    0.0594   -0.0000 O   0  0  0  0  0  0  0  0  0  0  0  0
    7.7448    3.0884   -0.0000 C   0  0  0  0  0  0  0  0  0  0  0  0
    7.7567   -1.4373   -0.0000 C   0  0  0  0  0  0  0  0  0  0  0  0
    7.7211    4.5970   -0.0000 C   0  0  0  0  0  0  0  0  0  0  0  0
    9.0396    2.3520   -0.0000 C   0  0  0  0  0  0  0  0  0  0  0  0
    9.0515   -2.1738   -0.0000 C   0  0  0  0  0  0  0  0  0  0  0  0
    9.0040    5.3691   -0.0000 N   0  0  0  0  0  0  0  0  0  0  0  0
   10.3225    3.1241   -0.0000 C   0  0  0  0  0  0  0  0  0  0  0  0
   10.3106    4.6326   -0.0000 C   0  0  0  0  0  0  0  0  0  0  0  0
  1  2  2  0  0  0  0
  2  3  1  0  0  0  0
  2  4  1  0  0  0  0
  3  5  1  0  0  0  0
  3  6  1  0  0  0  0
  4  7  1  0  0  0  0
  5  8  2  0  0  0  0
  5  9  1  0  0  0  0
  8 10  1  0  0  0  0
  9 11  2  0  0  0  0
 10 12  2  0  0  0  0
 11 13  1  0  0  0  0
 12 14  1  0  0  0  0
 13 15  1  0  0  0  0
 14 16  2  0  0  0  0
 14 17  1  0  0  0  0
 15 18  1  0  0  0  0
 16 19  1  0  0  0  0
 17 20  2  0  0  0  0
 19 21  2  0  0  0  0
  7  8  1  0  0  0  0
 11 12  1  0  0  0  0
 20 21  1  0  0  0  0
M  END
>  <MolRegNo>
1428753

>  <m>
=

>  <Value>
90000

>  <Unit>
nM

>  <Type>
IC50

>  <pValue>
4.05

>  <Ligand Efficiency>
0

>  <Binding Efficiency>
0

>  <Surface Efficiency>
0

>  <Assay Index>
689093

>  <Assay Category>


>  <Assay Organism>


>  <Target ID>
17045

>  <Target Name>
Cytochrome P450 3A4

>  <Target Organism>
Homo sapiens

>  <Target Description>
Target is a single protein chain

>  <Sequence Accession>
P08684

>  <Reference>
J Med Chem 55 (16), 7080-7089 (2012)

>  <Pubmed ID>
22861193

>  <DOI>
10.1021/jm3004637

$$$$
1428751
Actelion Java MolfileCreator 1.0

 20 22  0  0  0  0  0  0  0  0999 V2000
    0.0000   -0.0000   -0.0000 O   0  0  0  0  0  0  0  0  0  0  0  0
    1.2944    0.7600   -0.0000 C   0  0  0  0  0  0  0  0  0  0  0  0
    2.5887    0.0119   -0.0000 N   0  0  0  0  0  0  0  0  0  0  0  0
    1.2944    2.2800   -0.0000 C   0  0  0  0  0  0  0  0  0  0  0  0
    3.8831    0.7719   -0.0000 C   0  0  0  0  0  0  0  0  0  0  0  0
    2.5768   -1.4844   -0.0000 C   0  0  0  0  0  0  0  0  0  0  0  0
    2.5887    3.0400   -0.0000 C   0  0  0  0  0  0  0  0  0  0  0  0
    3.8831    2.2918   -0.0000 C   0  0  0  0  0  0  0  0  0  0  0  0
    5.1774    0.0356   -0.0000 C   0  0  0  0  0  0  0  0  0  0  0  0
    5.1656    3.0518   -0.0000 C   0  0  0  0  0  0  0  0  0  0  0  0
    6.4718    0.7956   -0.0000 C   0  0  0  0  0  0  0  0  0  0  0  0
    6.4599    2.3156   -0.0000 C   0  0  0  0  0  0  0  0  0  0  0  0
    7.7661    0.0594   -0.0000 O   0  0  0  0  0  0  0  0  0  0  0  0
    7.7424    3.0875   -0.0000 C   0  0  0  0  0  0  0  0  0  0  0  0
    7.7543   -1.4369   -0.0000 C   0  0  0  0  0  0  0  0  0  0  0  0
    7.7186    4.5956   -0.0000 C   0  0  0  0  0  0  0  0  0  0  0  0
    9.0367    2.3512   -0.0000 C   0  0  0  0  0  0  0  0  0  0  0  0
    9.0011    5.3674   -0.0000 N   0  0  0  0  0  0  0  0  0  0  0  0
   10.3192    3.1231   -0.0000 C   0  0  0  0  0  0  0  0  0  0  0  0
   10.3074    4.6312   -0.0000 C   0  0  0  0  0  0  0  0  0  0  0  0
  1  2  2  0  0  0  0
  2  3  1  0  0  0  0
  2  4  1  0  0  0  0
  3  5  1  0  0  0  0
  3  6  1  0  0  0  0
  4  7  1  0  0  0  0
  5  8  2  0  0  0  0
  5  9  1  0  0  0  0
  8 10  1  0  0  0  0
  9 11  2  0  0  0  0
 10 12  2  0  0  0  0
 11 13  1  0  0  0  0
 12 14  1  0  0  0  0
 13 15  1  0  0  0  0
 14 16  2  0  0  0  0
 14 17  1  0  0  0  0
 16 18  1  0  0  0  0
 17 19  2  0  0  0  0
 18 20  2  0  0  0  0
  7  8  1  0  0  0  0
 11 12  1  0  0  0  0
 19 20  1  0  0  0  0
M  END
>  <MolRegNo>
1428751

>  <m>
=

>  <Value>
90000

>  <Unit>
nM

>  <Type>
IC50

>  <pValue>
4.05

>  <Ligand Efficiency>
0

>  <Binding Efficiency>
0

>  <Surface Efficiency>
0

>  <Assay Index>
689093

>  <Assay Category>


>  <Assay Organism>


>  <Target ID>
17045

>  <Target Name>
Cytochrome P450 3A4

>  <Target Organism>
Homo sapiens

>  <Target Description>
Target is a single protein chain

>  <Sequence Accession>
P08684

>  <Reference>
J Med Chem 55 (16), 7080-7089 (2012)

>  <Pubmed ID>
22861193

>  <DOI>
10.1021/jm3004637

$$$$
1428610
Actelion Java MolfileCreator 1.0

 26 29  0  0  0  0  0  0  0  0999 V2000
    0.0000   -0.0000   -0.0000 O   0  0  0  0  0  0  0  0  0  0  0  0
   -0.0119   -1.4886   -0.0000 C   0  0  0  0  0  0  0  0  0  0  0  0
   -1.3338   -2.2269   -0.0000 N   0  0  0  0  0  0  0  0  0  0  0  0
    1.2861   -2.2269   -0.0000 C   0  0  0  0  0  0  0  0  0  0  0  0
   -1.3338   -3.7155   -0.0000 C   0  0  0  0  0  0  0  0  0  0  0  0
    1.2742   -3.7155   -0.0000 C   0  0  0  0  0  0  0  0  0  0  0  0
   -0.0357   -4.4538   -0.0000 N   0  0  0  0  0  0  0  0  0  0  0  0
   -2.6437   -4.4657   -0.0000 N   0  0  0  0  0  0  0  0  0  0  0  0
    2.5603   -4.4538   -0.0000 C   0  0  0  0  0  0  0  0  0  0  0  0
   -3.9655   -3.7036   -0.0000 C   0  0  0  0  0  0  0  0  0  0  0  0
    3.8465   -3.6916   -0.0000 C   0  0  0  0  0  0  0  0  0  0  0  0
    2.5484   -5.9424   -0.0000 C   0  0  0  0  0  0  0  0  0  0  0  0
   -5.2755   -4.4538   -0.0000 C   0  0  0  0  0  0  0  0  0  0  0  0
    5.1326   -4.4419   -0.0000 C   0  0  0  0  0  0  0  0  0  0  0  0
    3.8345   -6.6807   -0.0000 C   0  0  0  0  0  0  0  0  0  0  0  0
   -6.5973   -3.7036   -0.0000 C   0  0  0  0  0  0  0  0  0  0  0  0
   -5.2874   -5.9543   -0.0000 C   0  0  0  0  0  0  0  0  0  0  0  0
    5.1207   -5.9304   -0.0000 N   0  0  0  0  0  0  0  0  0  0  0  0
    6.4187   -3.6797   -0.0000 C   0  0  0  0  0  0  0  0  0  0  0  0
   -7.9073   -4.4419   -0.0000 C   0  0  0  0  0  0  0  0  0  0  0  0
   -6.6092   -2.2031   -0.0000 C   0  0  0  0  0  0  0  0  0  0  0  0
   -6.6092   -6.6926   -0.0000 C   0  0  0  0  0  0  0  0  0  0  0  0
   -7.9192   -5.9424   -0.0000 C   0  0  0  0  0  0  0  0  0  0  0  0
   -9.2053   -3.6916   -0.0000 C   0  0  0  0  0  0  0  0  0  0  0  0
   -7.9192   -1.4409   -0.0000 C   0  0  0  0  0  0  0  0  0  0  0  0
   -9.2291   -2.1912   -0.0000 C   0  0  0  0  0  0  0  0  0  0  0  0
  1  2  2  0  0  0  0
  2  3  1  0  0  0  0
  2  4  1  0  0  0  0
  3  5  1  0  0  0  0
  4  6  2  0  0  0  0
  5  7  2  0  0  0  0
  5  8  1  0  0  0  0
  6  9  1  0  0  0  0
  8 10  1  0  0  0  0
  9 11  2  0  0  0  0
  9 12  1  0  0  0  0
 10 13  1  0  0  0  0
 11 14  1  0  0  0  0
 12 15  2  0  0  0  0
 13 16  1  0  0  0  0
 13 17  2  0  0  0  0
 14 18  2  0  0  0  0
 14 19  1  0  0  0  0
 16 20  1  0  0  0  0
 16 21  2  0  0  0  0
 17 22  1  0  0  0  0
 20 23  1  0  0  0  0
 20 24  2  0  0  0  0
 21 25  1  0  0  0  0
 24 26  1  0  0  0  0
  6  7  1  0  0  0  0
 15 18  1  0  0  0  0
 22 23  2  0  0  0  0
 25 26  2  0  0  0  0
M  END
>  <MolRegNo>
1428610

>  <m>
=

>  <Value>
700

>  <Unit>
nM

>  <Type>
IC50

>  <pValue>
6.16

>  <Ligand Efficiency>
0

>  <Binding Efficiency>
0

>  <Surface Efficiency>
0

>  <Assay Index>
690004

>  <Assay Category>


>  <Assay Organism>


>  <Target ID>
17045

>  <Target Name>
Cytochrome P450 3A4

>  <Target Organism>
Homo sapiens

>  <Target Description>
Target is a single protein chain

>  <Sequence Accession>
P08684

>  <Reference>
Bioorg Med Chem Lett 22 (21), 6671-6676 (2012)

>  <Pubmed ID>
23010262

>  <DOI>
10.1016/j.bmcl.2012.08.102

$$$$
1429106
Actelion Java MolfileCreator 1.0

 35 40  0  0  0  0  0  0  0  0999 V2000
    0.0000   -0.0000   -0.0000 S   0  0  0  0  0  0  0  0  0  0  0  0
    1.4295   -0.4527   -0.0000 C   0  0  0  0  0  0  0  0  0  0  0  0
   -0.9053   -1.2031   -0.0000 C   0  0  0  0  0  0  0  0  0  0  0  0
    2.7160    0.3097   -0.0000 C   0  0  0  0  0  0  0  0  0  0  0  0
    1.4175   -1.9536   -0.0000 C   0  0  0  0  0  0  0  0  0  0  0  0
   -0.0357   -2.4182   -0.0000 C   0  0  0  0  0  0  0  0  0  0  0  0
   -2.4182   -1.1912   -0.0000 C   0  0  0  0  0  0  0  0  0  0  0  0
    4.0025   -0.4288   -0.0000 N   0  0  0  0  0  0  0  0  0  0  0  0
    2.6921    1.8345   -0.0000 N   0  0  0  0  0  0  0  0  0  0  0  0
    2.7041   -2.6921   -0.0000 N   0  0  0  0  0  0  0  0  0  0  0  0
   -3.1805   -2.4777   -0.0000 N   0  0  0  0  0  0  0  0  0  0  0  0
    3.9906   -1.9298   -0.0000 C   0  0  0  0  0  0  0  0  0  0  0  0
    3.9786    2.5968   -0.0000 C   0  0  0  0  0  0  0  0  0  0  0  0
    1.3818    2.5849   -0.0000 C   0  0  0  0  0  0  0  0  0  0  0  0
   -4.7053   -2.4658   -0.0000 C   0  0  0  0  0  0  0  0  0  0  0  0
   -2.4420   -3.7761   -0.0000 C   0  0  0  0  0  0  0  0  0  0  0  0
    5.2771   -2.6683   -0.0000 C   0  0  0  0  0  0  0  0  0  0  0  0
    3.9667    4.0978   -0.0000 C   0  0  0  0  0  0  0  0  0  0  0  0
    1.3699    4.0978   -0.0000 C   0  0  0  0  0  0  0  0  0  0  0  0
   -5.4677   -3.7523   -0.0000 C   0  0  0  0  0  0  0  0  0  0  0  0
   -3.2163   -5.0627   -0.0000 C   0  0  0  0  0  0  0  0  0  0  0  0
    5.2652   -4.1573   -0.0000 C   0  0  0  0  0  0  0  0  0  0  0  0
    6.5636   -1.9059   -0.0000 C   0  0  0  0  0  0  0  0  0  0  0  0
    2.6564    4.8601   -0.0000 O   0  0  0  0  0  0  0  0  0  0  0  0
   -4.7410   -5.0507   -0.0000 C   0  0  0  0  0  0  0  0  0  0  0  0
    3.9548   -4.8959   -0.0000 F   0  0  0  0  0  0  0  0  0  0  0  0
    6.5517   -4.8959   -0.0000 C   0  0  0  0  0  0  0  0  0  0  0  0
    7.8501   -2.6326   -0.0000 C   0  0  0  0  0  0  0  0  0  0  0  0
    6.8614   -0.4288   -0.0000 C   0  0  0  0  0  0  0  0  0  0  0  0
   -5.5153   -6.3372   -0.0000 N   0  0  0  0  0  0  0  0  0  0  0  0
    7.8382   -4.1335   -0.0000 C   0  0  0  0  0  0  0  0  0  0  0  0
    8.9460   -1.6200   -0.0000 N   0  0  0  0  0  0  0  0  0  0  0  0
    8.3385   -0.2502   -0.0000 C   0  0  0  0  0  0  0  0  0  0  0  0
   -7.0281   -6.3134   -0.0000 C   0  0  0  0  0  0  0  0  0  0  0  0
   -4.7768   -7.6357   -0.0000 C   0  0  0  0  0  0  0  0  0  0  0  0
  1  2  1  0  0  0  0
  1  3  1  0  0  0  0
  2  4  2  0  0  0  0
  2  5  1  0  0  0  0
  3  6  2  0  0  0  0
  3  7  1  0  0  0  0
  4  8  1  0  0  0  0
  4  9  1  0  0  0  0
  5 10  2  0  0  0  0
  7 11  1  0  0  0  0
  8 12  2  0  0  0  0
  9 13  1  0  0  0  0
  9 14  1  0  0  0  0
 11 15  1  0  0  0  0
 11 16  1  0  0  0  0
 12 17  1  0  0  0  0
 13 18  1  0  0  0  0
 14 19  1  0  0  0  0
 15 20  1  0  0  0  0
 16 21  1  0  0  0  0
 17 22  2  0  0  0  0
 17 23  1  0  0  0  0
 18 24  1  0  0  0  0
 20 25  1  0  0  0  0
 22 26  1  0  0  0  0
 22 27  1  0  0  0  0
 23 28  2  0  0  0  0
 23 29  1  0  0  0  0
 25 30  1  0  0  0  0
 27 31  2  0  0  0  0
 28 32  1  0  0  0  0
 29 33  2  0  0  0  0
 30 34  1  0  0  0  0
 30 35  1  0  0  0  0
  5  6  1  0  0  0  0
 10 12  1  0  0  0  0
 19 24  1  0  0  0  0
 21 25  1  0  0  0  0
 28 31  1  0  0  0  0
 32 33  1  0  0  0  0
M  END
>  <MolRegNo>
1429106

>  <m>
=

>  <Value>
9100

>  <Unit>
nM

>  <Type>
IC50

>  <pValue>
5.04

>  <Ligand Efficiency>
0

>  <Binding Efficiency>
0

>  <Surface Efficiency>
0

>  <Assay Index>
689928

>  <Assay Category>


>  <Assay Organism>
Homo sapiens

>  <Target ID>
17045

>  <Target Name>
Cytochrome P450 3A4

>  <Target Organism>
Homo sapiens

>  <Target Description>
Target is a single protein chain

>  <Sequence Accession>
P08684

>  <Reference>
J Med Chem 55 (12), 5887-5900 (2012)

>  <Pubmed ID>
22626259

>  <DOI>
10.1021/jm3003747

$$$$
1428950
Actelion Java MolfileCreator 1.0

 37 42  0  0  0  0  0  0  0  0999 V2000
    0.0000   -0.0000   -0.0000 S   0  0  0  0  0  0  0  0  0  0  0  0
    1.4178   -0.4527   -0.0000 C   0  0  0  0  0  0  0  0  0  0  0  0
   -0.9055   -1.2033   -0.0000 C   0  0  0  0  0  0  0  0  0  0  0  0
    2.7045    0.3098   -0.0000 C   0  0  0  0  0  0  0  0  0  0  0  0
    1.4059   -1.9539   -0.0000 C   0  0  0  0  0  0  0  0  0  0  0  0
   -0.0357   -2.4186   -0.0000 C   0  0  0  0  0  0  0  0  0  0  0  0
   -2.4186   -1.1914   -0.0000 C   0  0  0  0  0  0  0  0  0  0  0  0
    3.9912   -0.4289   -0.0000 N   0  0  0  0  0  0  0  0  0  0  0  0
    2.6807    1.8348   -0.0000 N   0  0  0  0  0  0  0  0  0  0  0  0
    2.6926   -2.6926   -0.0000 N   0  0  0  0  0  0  0  0  0  0  0  0
   -3.1811   -2.4781   -0.0000 N   0  0  0  0  0  0  0  0  0  0  0  0
    3.9793   -1.9301   -0.0000 C   0  0  0  0  0  0  0  0  0  0  0  0
    3.9674    2.5973   -0.0000 C   0  0  0  0  0  0  0  0  0  0  0  0
    1.3701    2.5853   -0.0000 C   0  0  0  0  0  0  0  0  0  0  0  0
   -4.7060   -2.4662   -0.0000 C   0  0  0  0  0  0  0  0  0  0  0  0
   -2.4424   -3.7768   -0.0000 C   0  0  0  0  0  0  0  0  0  0  0  0
    5.2660   -2.6687   -0.0000 C   0  0  0  0  0  0  0  0  0  0  0  0
    3.9555    4.0984   -0.0000 C   0  0  0  0  0  0  0  0  0  0  0  0
    1.3582    4.0984   -0.0000 C   0  0  0  0  0  0  0  0  0  0  0  0
   -5.4685   -3.7529   -0.0000 C   0  0  0  0  0  0  0  0  0  0  0  0
   -3.2168   -5.0635   -0.0000 C   0  0  0  0  0  0  0  0  0  0  0  0
    6.5527   -1.9062   -0.0000 C   0  0  0  0  0  0  0  0  0  0  0  0
    5.2541   -4.1580   -0.0000 C   0  0  0  0  0  0  0  0  0  0  0  0
    2.6449    4.8609   -0.0000 O   0  0  0  0  0  0  0  0  0  0  0  0
   -4.7418   -5.0516   -0.0000 N   0  0  0  0  0  0  0  0  0  0  0  0
    7.8394   -2.6330   -0.0000 C   0  0  0  0  0  0  0  0  0  0  0  0
    6.8506   -0.4289   -0.0000 C   0  0  0  0  0  0  0  0  0  0  0  0
    6.5408   -4.8967   -0.0000 N   0  0  0  0  0  0  0  0  0  0  0  0
   -5.5162   -6.3383   -0.0000 C   0  0  0  0  0  0  0  0  0  0  0  0
    8.9355   -1.6203   -0.0000 N   0  0  0  0  0  0  0  0  0  0  0  0
    7.8394   -4.1342   -0.0000 C   0  0  0  0  0  0  0  0  0  0  0  0
    8.3279   -0.2502   -0.0000 C   0  0  0  0  0  0  0  0  0  0  0  0
   -7.0293   -6.3264   -0.0000 C   0  0  0  0  0  0  0  0  0  0  0  0
   -4.2295   -7.0769   -0.0000 C   0  0  0  0  0  0  0  0  0  0  0  0
   -5.5281   -7.8275   -0.0000 C   0  0  0  0  0  0  0  0  0  0  0  0
   -7.7918   -5.0039   -0.0000 O   0  0  0  0  0  0  0  0  0  0  0  0
   -7.8037   -7.6131   -0.0000 N   0  0  0  0  0  0  0  0  0  0  0  0
  1  2  1  0  0  0  0
  1  3  1  0  0  0  0
  2  4  2  0  0  0  0
  2  5  1  0  0  0  0
  3  6  2  0  0  0  0
  3  7  1  0  0  0  0
  4  8  1  0  0  0  0
  4  9  1  0  0  0  0
  5 10  2  0  0  0  0
  7 11  1  0  0  0  0
  8 12  2  0  0  0  0
  9 13  1  0  0  0  0
  9 14  1  0  0  0  0
 11 15  1  0  0  0  0
 11 16  1  0  0  0  0
 12 17  1  0  0  0  0
 13 18  1  0  0  0  0
 14 19  1  0  0  0  0
 15 20  1  0  0  0  0
 16 21  1  0  0  0  0
 17 22  2  0  0  0  0
 17 23  1  0  0  0  0
 18 24  1  0  0  0  0
 20 25  1  0  0  0  0
 22 26  1  0  0  0  0
 22 27  1  0  0  0  0
 23 28  2  0  0  0  0
 25 29  1  0  0  0  0
 26 30  1  0  0  0  0
 26 31  2  0  0  0  0
 27 32  2  0  0  0  0
 29 33  1  0  0  0  0
 29 34  1  0  0  0  0
 29 35  1  0  0  0  0
 33 36  2  0  0  0  0
 33 37  1  0  0  0  0
  5  6  1  0  0  0  0
 10 12  1  0  0  0  0
 19 24  1  0  0  0  0
 21 25  1  0  0  0  0
 28 31  1  0  0  0  0
 30 32  1  0  0  0  0
M  END
>  <MolRegNo>
1428950

>  <m>
=

>  <Value>
3200

>  <Unit>
nM

>  <Type>
IC50

>  <pValue>
5.5

>  <Ligand Efficiency>
0

>  <Binding Efficiency>
0

>  <Surface Efficiency>
0

>  <Assay Index>
689928

>  <Assay Category>


>  <Assay Organism>
Homo sapiens

>  <Target ID>
17045

>  <Target Name>
Cytochrome P450 3A4

>  <Target Organism>
Homo sapiens

>  <Target Description>
Target is a single protein chain

>  <Sequence Accession>
P08684

>  <Reference>
J Med Chem 55 (12), 5887-5900 (2012)

>  <Pubmed ID>
22626259

>  <DOI>
10.1021/jm3003747

$$$$
1428946
Actelion Java MolfileCreator 1.0

 39 44  0  0  0  0  0  0  0  0999 V2000
    0.0000   -0.0000   -0.0000 S   0  0  0  0  0  0  0  0  0  0  0  0
    1.4182   -0.4529   -0.0000 C   0  0  0  0  0  0  0  0  0  0  0  0
   -0.9057   -1.2036   -0.0000 C   0  0  0  0  0  0  0  0  0  0  0  0
    2.7052    0.3098   -0.0000 C   0  0  0  0  0  0  0  0  0  0  0  0
    1.4062   -1.9544   -0.0000 C   0  0  0  0  0  0  0  0  0  0  0  0
   -0.0358   -2.4192   -0.0000 C   0  0  0  0  0  0  0  0  0  0  0  0
   -2.4192   -1.1917   -0.0000 C   0  0  0  0  0  0  0  0  0  0  0  0
    3.9923   -0.4290   -0.0000 N   0  0  0  0  0  0  0  0  0  0  0  0
    2.6814    1.8353   -0.0000 N   0  0  0  0  0  0  0  0  0  0  0  0
    2.6933   -2.6933   -0.0000 N   0  0  0  0  0  0  0  0  0  0  0  0
   -3.1819   -2.4788   -0.0000 N   0  0  0  0  0  0  0  0  0  0  0  0
    3.9804   -1.9306   -0.0000 C   0  0  0  0  0  0  0  0  0  0  0  0
    3.9684    2.5980   -0.0000 C   0  0  0  0  0  0  0  0  0  0  0  0
    1.3705    2.5860   -0.0000 C   0  0  0  0  0  0  0  0  0  0  0  0
   -4.7073   -2.4669   -0.0000 C   0  0  0  0  0  0  0  0  0  0  0  0
   -2.4430   -3.7778   -0.0000 C   0  0  0  0  0  0  0  0  0  0  0  0
    5.2674   -2.6695   -0.0000 C   0  0  0  0  0  0  0  0  0  0  0  0
    3.9565    4.0995   -0.0000 C   0  0  0  0  0  0  0  0  0  0  0  0
    1.3586    4.0995   -0.0000 C   0  0  0  0  0  0  0  0  0  0  0  0
   -5.4700   -3.7539   -0.0000 C   0  0  0  0  0  0  0  0  0  0  0  0
   -3.2177   -5.0648   -0.0000 C   0  0  0  0  0  0  0  0  0  0  0  0
    5.2555   -4.1591   -0.0000 C   0  0  0  0  0  0  0  0  0  0  0  0
    6.5545   -1.9068   -0.0000 C   0  0  0  0  0  0  0  0  0  0  0  0
    2.6456    4.8622   -0.0000 O   0  0  0  0  0  0  0  0  0  0  0  0
   -4.7431   -5.0529   -0.0000 N   0  0  0  0  0  0  0  0  0  0  0  0
    3.9446   -4.8980   -0.0000 F   0  0  0  0  0  0  0  0  0  0  0  0
    6.5426   -4.8980   -0.0000 C   0  0  0  0  0  0  0  0  0  0  0  0
    7.8416   -2.6337   -0.0000 C   0  0  0  0  0  0  0  0  0  0  0  0
    6.8524   -0.4290   -0.0000 C   0  0  0  0  0  0  0  0  0  0  0  0
   -5.5177   -6.3400   -0.0000 C   0  0  0  0  0  0  0  0  0  0  0  0
    7.8296   -4.1353   -0.0000 C   0  0  0  0  0  0  0  0  0  0  0  0
    8.9379   -1.6207   -0.0000 N   0  0  0  0  0  0  0  0  0  0  0  0
    8.3302   -0.2503   -0.0000 C   0  0  0  0  0  0  0  0  0  0  0  0
   -7.0312   -6.3281   -0.0000 C   0  0  0  0  0  0  0  0  0  0  0  0
   -4.2306   -7.0788   -0.0000 C   0  0  0  0  0  0  0  0  0  0  0  0
   -5.5296   -7.8296   -0.0000 C   0  0  0  0  0  0  0  0  0  0  0  0
    9.1286   -4.8742   -0.0000 F   0  0  0  0  0  0  0  0  0  0  0  0
   -7.7820   -5.0052   -0.0000 O   0  0  0  0  0  0  0  0  0  0  0  0
   -7.8058   -7.6151   -0.0000 N   0  0  0  0  0  0  0  0  0  0  0  0
  1  2  1  0  0  0  0
  1  3  1  0  0  0  0
  2  4  2  0  0  0  0
  2  5  1  0  0  0  0
  3  6  2  0  0  0  0
  3  7  1  0  0  0  0
  4  8  1  0  0  0  0
  4  9  1  0  0  0  0
  5 10  2  0  0  0  0
  7 11  1  0  0  0  0
  8 12  2  0  0  0  0
  9 13  1  0  0  0  0
  9 14  1  0  0  0  0
 11 15  1  0  0  0  0
 11 16  1  0  0  0  0
 12 17  1  0  0  0  0
 13 18  1  0  0  0  0
 14 19  1  0  0  0  0
 15 20  1  0  0  0  0
 16 21  1  0  0  0  0
 17 22  2  0  0  0  0
 17 23  1  0  0  0  0
 18 24  1  0  0  0  0
 20 25  1  0  0  0  0
 22 26  1  0  0  0  0
 22 27  1  0  0  0  0
 23 28  2  0  0  0  0
 23 29  1  0  0  0  0
 25 30  1  0  0  0  0
 27 31  2  0  0  0  0
 28 32  1  0  0  0  0
 29 33  2  0  0  0  0
 30 34  1  0  0  0  0
 30 35  1  0  0  0  0
 30 36  1  0  0  0  0
 31 37  1  0  0  0  0
 34 38  2  0  0  0  0
 34 39  1  0  0  0  0
  5  6  1  0  0  0  0
 10 12  1  0  0  0  0
 19 24  1  0  0  0  0
 21 25  1  0  0  0  0
 28 31  1  0  0  0  0
 32 33  1  0  0  0  0
M  END
>  <MolRegNo>
1428946

>  <m>
=

>  <Value>
600

>  <Unit>
nM

>  <Type>
IC50

>  <pValue>
6.22

>  <Ligand Efficiency>
0

>  <Binding Efficiency>
0

>  <Surface Efficiency>
0

>  <Assay Index>
689928

>  <Assay Category>


>  <Assay Organism>
Homo sapiens

>  <Target ID>
17045

>  <Target Name>
Cytochrome P450 3A4

>  <Target Organism>
Homo sapiens

>  <Target Description>
Target is a single protein chain

>  <Sequence Accession>
P08684

>  <Reference>
J Med Chem 55 (12), 5887-5900 (2012)

>  <Pubmed ID>
22626259

>  <DOI>
10.1021/jm3003747

$$$$
1428945
Actelion Java MolfileCreator 1.0

 39 44  0  0  0  0  0  0  0  0999 V2000
    0.0000   -0.0000   -0.0000 S   0  0  0  0  0  0  0  0  0  0  0  0
    1.4182   -0.4529   -0.0000 C   0  0  0  0  0  0  0  0  0  0  0  0
   -0.9058   -1.2037   -0.0000 C   0  0  0  0  0  0  0  0  0  0  0  0
    2.7054    0.3099   -0.0000 C   0  0  0  0  0  0  0  0  0  0  0  0
    1.4063   -1.9545   -0.0000 C   0  0  0  0  0  0  0  0  0  0  0  0
   -0.0358   -2.4193   -0.0000 C   0  0  0  0  0  0  0  0  0  0  0  0
   -2.4193   -1.1918   -0.0000 C   0  0  0  0  0  0  0  0  0  0  0  0
    3.9925   -0.4290   -0.0000 N   0  0  0  0  0  0  0  0  0  0  0  0
    2.6815    1.8354   -0.0000 N   0  0  0  0  0  0  0  0  0  0  0  0
    2.6935   -2.6935   -0.0000 N   0  0  0  0  0  0  0  0  0  0  0  0
   -3.1821   -2.4789   -0.0000 N   0  0  0  0  0  0  0  0  0  0  0  0
    3.9806   -1.9307   -0.0000 C   0  0  0  0  0  0  0  0  0  0  0  0
    3.9687    2.5981   -0.0000 C   0  0  0  0  0  0  0  0  0  0  0  0
    1.3706    2.5862   -0.0000 C   0  0  0  0  0  0  0  0  0  0  0  0
   -4.7076   -2.4670   -0.0000 C   0  0  0  0  0  0  0  0  0  0  0  0
   -2.4432   -3.7780   -0.0000 C   0  0  0  0  0  0  0  0  0  0  0  0
    5.2677   -2.6696   -0.0000 C   0  0  0  0  0  0  0  0  0  0  0  0
    3.9567    4.0998   -0.0000 C   0  0  0  0  0  0  0  0  0  0  0  0
    1.3586    4.0998   -0.0000 C   0  0  0  0  0  0  0  0  0  0  0  0
   -5.4703   -3.7541   -0.0000 C   0  0  0  0  0  0  0  0  0  0  0  0
   -3.2178   -5.0651   -0.0000 C   0  0  0  0  0  0  0  0  0  0  0  0
    6.5549   -1.9069   -0.0000 C   0  0  0  0  0  0  0  0  0  0  0  0
    5.2558   -4.1594   -0.0000 C   0  0  0  0  0  0  0  0  0  0  0  0
    2.6458    4.8625   -0.0000 O   0  0  0  0  0  0  0  0  0  0  0  0
   -4.7433   -5.0532   -0.0000 N   0  0  0  0  0  0  0  0  0  0  0  0
    7.8420   -2.6339   -0.0000 C   0  0  0  0  0  0  0  0  0  0  0  0
    6.8528   -0.4290   -0.0000 C   0  0  0  0  0  0  0  0  0  0  0  0
    6.5429   -4.8983   -0.0000 C   0  0  0  0  0  0  0  0  0  0  0  0
   -5.5180   -6.3403   -0.0000 C   0  0  0  0  0  0  0  0  0  0  0  0
    8.9384   -1.6208   -0.0000 N   0  0  0  0  0  0  0  0  0  0  0  0
    7.8420   -4.1355   -0.0000 C   0  0  0  0  0  0  0  0  0  0  0  0
    8.3306   -0.2503   -0.0000 C   0  0  0  0  0  0  0  0  0  0  0  0
    6.5429   -6.3880   -0.0000 C   0  0  0  0  0  0  0  0  0  0  0  0
   -7.0316   -6.3284   -0.0000 C   0  0  0  0  0  0  0  0  0  0  0  0
   -4.2309   -7.0792   -0.0000 C   0  0  0  0  0  0  0  0  0  0  0  0
   -5.5299   -7.8301   -0.0000 C   0  0  0  0  0  0  0  0  0  0  0  0
    6.5310   -7.8777   -0.0000 N   0  0  0  0  0  0  0  0  0  0  0  0
   -7.7943   -5.0055   -0.0000 O   0  0  0  0  0  0  0  0  0  0  0  0
   -7.8062   -7.6156   -0.0000 N   0  0  0  0  0  0  0  0  0  0  0  0
  1  2  1  0  0  0  0
  1  3  1  0  0  0  0
  2  4  2  0  0  0  0
  2  5  1  0  0  0  0
  3  6  2  0  0  0  0
  3  7  1  0  0  0  0
  4  8  1  0  0  0  0
  4  9  1  0  0  0  0
  5 10  2  0  0  0  0
  7 11  1  0  0  0  0
  8 12  2  0  0  0  0
  9 13  1  0  0  0  0
  9 14  1  0  0  0  0
 11 15  1  0  0  0  0
 11 16  1  0  0  0  0
 12 17  1  0  0  0  0
 13 18  1  0  0  0  0
 14 19  1  0  0  0  0
 15 20  1  0  0  0  0
 16 21  1  0  0  0  0
 17 22  2  0  0  0  0
 17 23  1  0  0  0  0
 18 24  1  0  0  0  0
 20 25  1  0  0  0  0
 22 26  1  0  0  0  0
 22 27  1  0  0  0  0
 23 28  2  0  0  0  0
 25 29  1  0  0  0  0
 26 30  1  0  0  0  0
 26 31  2  0  0  0  0
 27 32  2  0  0  0  0
 28 33  1  0  0  0  0
 29 34  1  0  0  0  0
 29 35  1  0  0  0  0
 29 36  1  0  0  0  0
 33 37  3  0  0  0  0
 34 38  2  0  0  0  0
 34 39  1  0  0  0  0
  5  6  1  0  0  0  0
 10 12  1  0  0  0  0
 19 24  1  0  0  0  0
 21 25  1  0  0  0  0
 28 31  1  0  0  0  0
 30 32  1  0  0  0  0
M  END
>  <MolRegNo>
1428945

>  <m>
=

>  <Value>
1200

>  <Unit>
nM

>  <Type>
IC50

>  <pValue>
5.92

>  <Ligand Efficiency>
0

>  <Binding Efficiency>
0

>  <Surface Efficiency>
0

>  <Assay Index>
689928

>  <Assay Category>


>  <Assay Organism>
Homo sapiens

>  <Target ID>
17045

>  <Target Name>
Cytochrome P450 3A4

>  <Target Organism>
Homo sapiens

>  <Target Description>
Target is a single protein chain

>  <Sequence Accession>
P08684

>  <Reference>
J Med Chem 55 (12), 5887-5900 (2012)

>  <Pubmed ID>
22626259

>  <DOI>
10.1021/jm3003747

$$$$
1428944
Actelion Java MolfileCreator 1.0

 38 43  0  0  0  0  0  0  0  0999 V2000
    0.0000   -0.0000   -0.0000 S   0  0  0  0  0  0  0  0  0  0  0  0
    1.4180   -0.4528   -0.0000 C   0  0  0  0  0  0  0  0  0  0  0  0
   -0.9056   -1.2035   -0.0000 C   0  0  0  0  0  0  0  0  0  0  0  0
    2.7049    0.3098   -0.0000 C   0  0  0  0  0  0  0  0  0  0  0  0
    1.4061   -1.9542   -0.0000 C   0  0  0  0  0  0  0  0  0  0  0  0
   -0.0357   -2.4190   -0.0000 C   0  0  0  0  0  0  0  0  0  0  0  0
   -2.4190   -1.1916   -0.0000 C   0  0  0  0  0  0  0  0  0  0  0  0
    3.9919   -0.4290   -0.0000 N   0  0  0  0  0  0  0  0  0  0  0  0
    2.6811    1.8351   -0.0000 N   0  0  0  0  0  0  0  0  0  0  0  0
    2.6930   -2.6930   -0.0000 N   0  0  0  0  0  0  0  0  0  0  0  0
   -3.1816   -2.4785   -0.0000 N   0  0  0  0  0  0  0  0  0  0  0  0
    3.9800   -1.9304   -0.0000 C   0  0  0  0  0  0  0  0  0  0  0  0
    3.9680    2.5977   -0.0000 C   0  0  0  0  0  0  0  0  0  0  0  0
    1.3703    2.5858   -0.0000 C   0  0  0  0  0  0  0  0  0  0  0  0
   -4.7068   -2.4666   -0.0000 C   0  0  0  0  0  0  0  0  0  0  0  0
   -2.4428   -3.7774   -0.0000 C   0  0  0  0  0  0  0  0  0  0  0  0
    5.2669   -2.6692   -0.0000 C   0  0  0  0  0  0  0  0  0  0  0  0
    3.9561    4.0991   -0.0000 C   0  0  0  0  0  0  0  0  0  0  0  0
    1.3584    4.0991   -0.0000 C   0  0  0  0  0  0  0  0  0  0  0  0
   -5.4695   -3.7535   -0.0000 C   0  0  0  0  0  0  0  0  0  0  0  0
   -3.2173   -5.0643   -0.0000 C   0  0  0  0  0  0  0  0  0  0  0  0
    6.5538   -1.9066   -0.0000 C   0  0  0  0  0  0  0  0  0  0  0  0
    5.2550   -4.1587   -0.0000 C   0  0  0  0  0  0  0  0  0  0  0  0
    2.6454    4.8617   -0.0000 O   0  0  0  0  0  0  0  0  0  0  0  0
   -4.7426   -5.0524   -0.0000 N   0  0  0  0  0  0  0  0  0  0  0  0
    7.8407   -2.6334   -0.0000 C   0  0  0  0  0  0  0  0  0  0  0  0
    6.8517   -0.4290   -0.0000 C   0  0  0  0  0  0  0  0  0  0  0  0
    6.5419   -4.8975   -0.0000 C   0  0  0  0  0  0  0  0  0  0  0  0
   -5.5171   -6.3393   -0.0000 C   0  0  0  0  0  0  0  0  0  0  0  0
    8.9370   -1.6206   -0.0000 N   0  0  0  0  0  0  0  0  0  0  0  0
    7.8407   -4.1349   -0.0000 C   0  0  0  0  0  0  0  0  0  0  0  0
    8.3293   -0.2502   -0.0000 C   0  0  0  0  0  0  0  0  0  0  0  0
    6.5300   -6.3870   -0.0000 F   0  0  0  0  0  0  0  0  0  0  0  0
   -7.0305   -6.3274   -0.0000 C   0  0  0  0  0  0  0  0  0  0  0  0
   -4.2302   -7.0781   -0.0000 C   0  0  0  0  0  0  0  0  0  0  0  0
   -5.5290   -7.8288   -0.0000 C   0  0  0  0  0  0  0  0  0  0  0  0
   -7.7931   -5.0047   -0.0000 O   0  0  0  0  0  0  0  0  0  0  0  0
   -7.8050   -7.6143   -0.0000 N   0  0  0  0  0  0  0  0  0  0  0  0
  1  2  1  0  0  0  0
  1  3  1  0  0  0  0
  2  4  2  0  0  0  0
  2  5  1  0  0  0  0
  3  6  2  0  0  0  0
  3  7  1  0  0  0  0
  4  8  1  0  0  0  0
  4  9  1  0  0  0  0
  5 10  2  0  0  0  0
  7 11  1  0  0  0  0
  8 12  2  0  0  0  0
  9 13  1  0  0  0  0
  9 14  1  0  0  0  0
 11 15  1  0  0  0  0
 11 16  1  0  0  0  0
 12 17  1  0  0  0  0
 13 18  1  0  0  0  0
 14 19  1  0  0  0  0
 15 20  1  0  0  0  0
 16 21  1  0  0  0  0
 17 22  2  0  0  0  0
 17 23  1  0  0  0  0
 18 24  1  0  0  0  0
 20 25  1  0  0  0  0
 22 26  1  0  0  0  0
 22 27  1  0  0  0  0
 23 28  2  0  0  0  0
 25 29  1  0  0  0  0
 26 30  1  0  0  0  0
 26 31  2  0  0  0  0
 27 32  2  0  0  0  0
 28 33  1  0  0  0  0
 29 34  1  0  0  0  0
 29 35  1  0  0  0  0
 29 36  1  0  0  0  0
 34 37  2  0  0  0  0
 34 38  1  0  0  0  0
  5  6  1  0  0  0  0
 10 12  1  0  0  0  0
 19 24  1  0  0  0  0
 21 25  1  0  0  0  0
 28 31  1  0  0  0  0
 30 32  1  0  0  0  0
M  END
>  <MolRegNo>
1428944

>  <m>
=

>  <Value>
510

>  <Unit>
nM

>  <Type>
IC50

>  <pValue>
6.29

>  <Ligand Efficiency>
0

>  <Binding Efficiency>
0

>  <Surface Efficiency>
0

>  <Assay Index>
689928

>  <Assay Category>


>  <Assay Organism>
Homo sapiens

>  <Target ID>
17045

>  <Target Name>
Cytochrome P450 3A4

>  <Target Organism>
Homo sapiens

>  <Target Description>
Target is a single protein chain

>  <Sequence Accession>
P08684

>  <Reference>
J Med Chem 55 (12), 5887-5900 (2012)

>  <Pubmed ID>
22626259

>  <DOI>
10.1021/jm3003747

$$$$
1430234
Actelion Java MolfileCreator 1.0

 22 24  0  0  0  0  0  0  0  0999 V2000
    0.0000   -0.0000   -0.0000 S   0  0  0  0  0  0  0  0  0  0  0  0
   -0.8950    1.2248   -0.0000 C   0  0  0  0  0  0  0  0  0  0  0  0
    1.4132    0.4711   -0.0000 C   0  0  0  0  0  0  0  0  0  0  0  0
   -0.0236    2.4495   -0.0000 N   0  0  0  0  0  0  0  0  0  0  0  0
   -2.4024    1.2365   -0.0000 N   0  0  0  0  0  0  0  0  0  0  0  0
    1.4014    1.9785   -0.0000 C   0  0  0  0  0  0  0  0  0  0  0  0
    2.6969   -0.2709   -0.0000 C   0  0  0  0  0  0  0  0  0  0  0  0
   -3.1679    2.5438   -0.0000 C   0  0  0  0  0  0  0  0  0  0  0  0
    2.6851    2.7322   -0.0000 C   0  0  0  0  0  0  0  0  0  0  0  0
    3.9805    0.4946   -0.0000 C   0  0  0  0  0  0  0  0  0  0  0  0
   -2.4260    3.8510   -0.0000 O   0  0  0  0  0  0  0  0  0  0  0  0
   -4.6753    2.5555   -0.0000 C   0  0  0  0  0  0  0  0  0  0  0  0
    3.9687    2.0020   -0.0000 C   0  0  0  0  0  0  0  0  0  0  0  0
    5.2642   -0.2473   -0.0000 O   0  0  0  0  0  0  0  0  0  0  0  0
   -5.4408    3.8627   -0.0000 C   0  0  0  0  0  0  0  0  0  0  0  0
   -5.4408    1.2719   -0.0000 C   0  0  0  0  0  0  0  0  0  0  0  0
   -4.6989    5.1699   -0.0000 F   0  0  0  0  0  0  0  0  0  0  0  0
   -6.9482    3.8745   -0.0000 C   0  0  0  0  0  0  0  0  0  0  0  0
   -4.6989   -0.0118   -0.0000 F   0  0  0  0  0  0  0  0  0  0  0  0
   -6.9482    1.2837   -0.0000 C   0  0  0  0  0  0  0  0  0  0  0  0
   -7.7019    5.1817   -0.0000 O   0  0  0  0  0  0  0  0  0  0  0  0
   -7.7019    2.5909   -0.0000 C   0  0  0  0  0  0  0  0  0  0  0  0
  1  2  1  0  0  0  0
  1  3  1  0  0  0  0
  2  4  2  0  0  0  0
  2  5  1  0  0  0  0
  3  6  2  0  0  0  0
  3  7  1  0  0  0  0
  5  8  1  0  0  0  0
  6  9  1  0  0  0  0
  7 10  2  0  0  0  0
  8 11  2  0  0  0  0
  8 12  1  0  0  0  0
  9 13  2  0  0  0  0
 10 14  1  0  0  0  0
 12 15  2  0  0  0  0
 12 16  1  0  0  0  0
 15 17  1  0  0  0  0
 15 18  1  0  0  0  0
 16 19  1  0  0  0  0
 16 20  2  0  0  0  0
 18 21  1  0  0  0  0
 18 22  2  0  0  0  0
  4  6  1  0  0  0  0
 10 13  1  0  0  0  0
 20 22  1  0  0  0  0
M  END
>  <MolRegNo>
1430234

>  <m>
=

>  <Value>
54000

>  <Unit>
nM

>  <Type>
IC50

>  <pValue>
4.27

>  <Ligand Efficiency>
0

>  <Binding Efficiency>
0

>  <Surface Efficiency>
0

>  <Assay Index>
690686

>  <Assay Category>


>  <Assay Organism>
Homo sapiens

>  <Target ID>
17045

>  <Target Name>
Cytochrome P450 3A4

>  <Target Organism>
Homo sapiens

>  <Target Description>
Target is a single protein chain

>  <Sequence Accession>
P08684

>  <Reference>
J Med Chem 55 (5), 2469-2473 (2012)

>  <Pubmed ID>
22277094

>  <DOI>
10.1021/jm201711b

$$$$
1430241
Actelion Java MolfileCreator 1.0

 20 22  0  0  0  0  0  0  0  0999 V2000
    0.0000   -0.0000   -0.0000 S   0  0  0  0  0  0  0  0  0  0  0  0
   -0.1654    1.5007   -0.0000 C   0  0  0  0  0  0  0  0  0  0  0  0
    1.4534   -0.2954   -0.0000 C   0  0  0  0  0  0  0  0  0  0  0  0
    1.1935    2.1270   -0.0000 N   0  0  0  0  0  0  0  0  0  0  0  0
   -1.4771    2.2570   -0.0000 C   0  0  0  0  0  0  0  0  0  0  0  0
    2.1979    1.0162   -0.0000 C   0  0  0  0  0  0  0  0  0  0  0  0
    2.1979   -1.5834   -0.0000 C   0  0  0  0  0  0  0  0  0  0  0  0
   -1.4889    3.7695   -0.0000 O   0  0  0  0  0  0  0  0  0  0  0  0
   -2.7887    1.5243   -0.0000 C   0  0  0  0  0  0  0  0  0  0  0  0
    3.6868    1.0280   -0.0000 C   0  0  0  0  0  0  0  0  0  0  0  0
    3.6868   -1.5716   -0.0000 C   0  0  0  0  0  0  0  0  0  0  0  0
   -4.1003    2.2806   -0.0000 C   0  0  0  0  0  0  0  0  0  0  0  0
   -2.8005    0.0354   -0.0000 C   0  0  0  0  0  0  0  0  0  0  0  0
    4.4312   -0.2600   -0.0000 C   0  0  0  0  0  0  0  0  0  0  0  0
    4.4312   -2.8596   -0.0000 O   0  0  0  0  0  0  0  0  0  0  0  0
   -5.4120    1.5480   -0.0000 C   0  0  0  0  0  0  0  0  0  0  0  0
   -4.1122   -0.6972   -0.0000 C   0  0  0  0  0  0  0  0  0  0  0  0
   -6.7236    2.3042   -0.0000 O   0  0  0  0  0  0  0  0  0  0  0  0
   -5.4238    0.0591   -0.0000 C   0  0  0  0  0  0  0  0  0  0  0  0
   -6.7354   -0.6735   -0.0000 C   0  0  0  0  0  0  0  0  0  0  0  0
  1  2  1  0  0  0  0
  1  3  1  0  0  0  0
  2  4  2  0  0  0  0
  2  5  1  0  0  0  0
  3  6  2  0  0  0  0
  3  7  1  0  0  0  0
  5  8  2  0  0  0  0
  5  9  1  0  0  0  0
  6 10  1  0  0  0  0
  7 11  2  0  0  0  0
  9 12  2  0  0  0  0
  9 13  1  0  0  0  0
 10 14  2  0  0  0  0
 11 15  1  0  0  0  0
 12 16  1  0  0  0  0
 13 17  2  0  0  0  0
 16 18  1  0  0  0  0
 16 19  2  0  0  0  0
 19 20  1  0  0  0  0
  4  6  1  0  0  0  0
 11 14  1  0  0  0  0
 17 19  1  0  0  0  0
M  END
>  <MolRegNo>
1430241

>  <m>
=

>  <Value>
54000

>  <Unit>
nM

>  <Type>
IC50

>  <pValue>
4.27

>  <Ligand Efficiency>
0

>  <Binding Efficiency>
0

>  <Surface Efficiency>
0

>  <Assay Index>
690686

>  <Assay Category>


>  <Assay Organism>
Homo sapiens

>  <Target ID>
17045

>  <Target Name>
Cytochrome P450 3A4

>  <Target Organism>
Homo sapiens

>  <Target Description>
Target is a single protein chain

>  <Sequence Accession>
P08684

>  <Reference>
J Med Chem 55 (5), 2469-2473 (2012)

>  <Pubmed ID>
22277094

>  <DOI>
10.1021/jm201711b

$$$$
1430237
Actelion Java MolfileCreator 1.0

 20 22  0  0  0  0  0  0  0  0999 V2000
    0.0000   -0.0000   -0.0000 S   0  0  0  0  0  0  0  0  0  0  0  0
   -0.1654    1.5002   -0.0000 C   0  0  0  0  0  0  0  0  0  0  0  0
    1.4529   -0.2953   -0.0000 C   0  0  0  0  0  0  0  0  0  0  0  0
    1.1930    2.1262   -0.0000 N   0  0  0  0  0  0  0  0  0  0  0  0
   -1.4765    2.2680   -0.0000 C   0  0  0  0  0  0  0  0  0  0  0  0
    2.1971    1.0159   -0.0000 C   0  0  0  0  0  0  0  0  0  0  0  0
    2.1971   -1.5828   -0.0000 C   0  0  0  0  0  0  0  0  0  0  0  0
   -1.4883    3.7799   -0.0000 O   0  0  0  0  0  0  0  0  0  0  0  0
   -2.7877    1.5238   -0.0000 C   0  0  0  0  0  0  0  0  0  0  0  0
    3.6854    1.0277   -0.0000 C   0  0  0  0  0  0  0  0  0  0  0  0
    3.6854   -1.5710   -0.0000 C   0  0  0  0  0  0  0  0  0  0  0  0
   -4.0989    2.2916   -0.0000 C   0  0  0  0  0  0  0  0  0  0  0  0
   -2.7995    0.0354   -0.0000 C   0  0  0  0  0  0  0  0  0  0  0  0
    4.4178   -0.2599   -0.0000 C   0  0  0  0  0  0  0  0  0  0  0  0
    4.4178   -2.8586   -0.0000 O   0  0  0  0  0  0  0  0  0  0  0  0
   -5.4100    1.5474   -0.0000 C   0  0  0  0  0  0  0  0  0  0  0  0
   -4.1107   -0.6969   -0.0000 C   0  0  0  0  0  0  0  0  0  0  0  0
   -6.7212    2.3152   -0.0000 O   0  0  0  0  0  0  0  0  0  0  0  0
   -5.4218    0.0591   -0.0000 C   0  0  0  0  0  0  0  0  0  0  0  0
   -6.7330   -0.6733   -0.0000 F   0  0  0  0  0  0  0  0  0  0  0  0
  1  2  1  0  0  0  0
  1  3  1  0  0  0  0
  2  4  2  0  0  0  0
  2  5  1  0  0  0  0
  3  6  2  0  0  0  0
  3  7  1  0  0  0  0
  5  8  2  0  0  0  0
  5  9  1  0  0  0  0
  6 10  1  0  0  0  0
  7 11  2  0  0  0  0
  9 12  2  0  0  0  0
  9 13  1  0  0  0  0
 10 14  2  0  0  0  0
 11 15  1  0  0  0  0
 12 16  1  0  0  0  0
 13 17  2  0  0  0  0
 16 18  1  0  0  0  0
 16 19  2  0  0  0  0
 19 20  1  0  0  0  0
  4  6  1  0  0  0  0
 11 14  1  0  0  0  0
 17 19  1  0  0  0  0
M  END
>  <MolRegNo>
1430237

>  <m>
=

>  <Value>
54000

>  <Unit>
nM

>  <Type>
IC50

>  <pValue>
4.27

>  <Ligand Efficiency>
0

>  <Binding Efficiency>
0

>  <Surface Efficiency>
0

>  <Assay Index>
690686

>  <Assay Category>


>  <Assay Organism>
Homo sapiens

>  <Target ID>
17045

>  <Target Name>
Cytochrome P450 3A4

>  <Target Organism>
Homo sapiens

>  <Target Description>
Target is a single protein chain

>  <Sequence Accession>
P08684

>  <Reference>
J Med Chem 55 (5), 2469-2473 (2012)

>  <Pubmed ID>
22277094

>  <DOI>
10.1021/jm201711b

$$$$
1430094
Actelion Java MolfileCreator 1.0

 26 27  0  0  0  0  0  0  0  0999 V2000
    0.0000   -0.0000   -0.0000 F   0  0  0  0  0  0  0  0  0  0  0  0
    0.7330   -1.2886   -0.0000 C   0  0  0  0  0  0  0  0  0  0  0  0
   -0.7802   -1.2768   -0.0000 F   0  0  0  0  0  0  0  0  0  0  0  0
    1.7851   -0.2128   -0.0000 F   0  0  0  0  0  0  0  0  0  0  0  0
    1.4777   -2.5772   -0.0000 C   0  0  0  0  0  0  0  0  0  0  0  0
    0.7211   -3.8657   -0.0000 C   0  0  0  0  0  0  0  0  0  0  0  0
    2.9673   -2.5653   -0.0000 C   0  0  0  0  0  0  0  0  0  0  0  0
    1.4659   -5.1543   -0.0000 C   0  0  0  0  0  0  0  0  0  0  0  0
   -0.7921   -3.8539   -0.0000 C   0  0  0  0  0  0  0  0  0  0  0  0
    3.7121   -3.8539   -0.0000 C   0  0  0  0  0  0  0  0  0  0  0  0
    2.9555   -5.1425   -0.0000 C   0  0  0  0  0  0  0  0  0  0  0  0
   -1.5487   -5.1425   -0.0000 C   0  0  0  0  0  0  0  0  0  0  0  0
   -1.5487   -2.5417   -0.0000 C   0  0  0  0  0  0  0  0  0  0  0  0
    5.2016   -3.8421   -0.0000 C   0  0  0  0  0  0  0  0  0  0  0  0
   -3.0619   -5.1307   -0.0000 C   0  0  0  0  0  0  0  0  0  0  0  0
   -3.0619   -2.5299   -0.0000 C   0  0  0  0  0  0  0  0  0  0  0  0
    5.9464   -2.5299   -0.0000 O   0  0  0  0  0  0  0  0  0  0  0  0
    5.9464   -5.1307   -0.0000 N   0  0  0  0  0  0  0  0  0  0  0  0
   -3.8185   -3.8185   -0.0000 N   0  0  0  0  0  0  0  0  0  0  0  0
    7.4359   -5.1189   -0.0000 C   0  0  0  0  0  0  0  0  0  0  0  0
   -5.3317   -3.8066   -0.0000 C   0  0  0  0  0  0  0  0  0  0  0  0
    8.1807   -6.4074   -0.0000 N   0  0  0  0  0  0  0  0  0  0  0  0
    8.1807   -3.8066   -0.0000 N   0  0  0  0  0  0  0  0  0  0  0  0
   -6.0882   -5.0952   -0.0000 O   0  0  0  0  0  0  0  0  0  0  0  0
   -6.0882   -2.4944   -0.0000 C   0  0  0  0  0  0  0  0  0  0  0  0
   -7.6014   -2.4826   -0.0000 C   0  0  0  0  0  0  0  0  0  0  0  0
  1  2  1  0  0  0  0
  2  3  1  0  0  0  0
  2  4  1  0  0  0  0
  2  5  1  0  0  0  0
  5  6  2  0  0  0  0
  5  7  1  0  0  0  0
  6  8  1  0  0  0  0
  6  9  1  0  0  0  0
  7 10  2  0  0  0  0
  8 11  2  0  0  0  0
  9 12  1  0  0  0  0
  9 13  1  0  0  0  0
 10 14  1  0  0  0  0
 12 15  1  0  0  0  0
 13 16  1  0  0  0  0
 14 17  2  0  0  0  0
 14 18  1  0  0  0  0
 15 19  1  0  0  0  0
 18 20  1  0  0  0  0
 19 21  1  0  0  0  0
 20 22  2  0  0  0  0
 20 23  1  0  0  0  0
 21 24  2  0  0  0  0
 21 25  1  0  0  0  0
 25 26  1  0  0  0  0
 10 11  1  0  0  0  0
 16 19  1  0  0  0  0
M  END
>  <MolRegNo>
1430094

>  <m>
=

>  <Value>
26000

>  <Unit>
nM

>  <Type>
IC50

>  <pValue>
4.58

>  <Ligand Efficiency>
0

>  <Binding Efficiency>
0

>  <Surface Efficiency>
0

>  <Assay Index>
691778

>  <Assay Category>


>  <Assay Organism>
Homo sapiens

>  <Target ID>
17045

>  <Target Name>
Cytochrome P450 3A4

>  <Target Organism>
Homo sapiens

>  <Target Description>
Target is a single protein chain

>  <Sequence Accession>
P08684

>  <Reference>
J Med Chem 55 (16), 7114-7140 (2012)

>  <Pubmed ID>
22803959

>  <DOI>
10.1021/jm300601d

$$$$
1430092
Actelion Java MolfileCreator 1.0

 27 29  0  0  0  0  0  0  0  0999 V2000
    0.0000   -0.0000   -0.0000 F   0  0  0  0  0  0  0  0  0  0  0  0
   -0.7559   -1.2874   -0.0000 C   0  0  0  0  0  0  0  0  0  0  0  0
   -2.2677   -1.2756   -0.0000 F   0  0  0  0  0  0  0  0  0  0  0  0
   -1.5118    0.0236   -0.0000 F   0  0  0  0  0  0  0  0  0  0  0  0
   -0.0118   -2.5747   -0.0000 C   0  0  0  0  0  0  0  0  0  0  0  0
   -0.7677   -3.8621   -0.0000 C   0  0  0  0  0  0  0  0  0  0  0  0
    1.4763   -2.5629   -0.0000 C   0  0  0  0  0  0  0  0  0  0  0  0
   -0.0236   -5.1495   -0.0000 C   0  0  0  0  0  0  0  0  0  0  0  0
   -2.2795   -3.8503   -0.0000 C   0  0  0  0  0  0  0  0  0  0  0  0
    2.2204   -3.8503   -0.0000 C   0  0  0  0  0  0  0  0  0  0  0  0
    1.4645   -5.1377   -0.0000 C   0  0  0  0  0  0  0  0  0  0  0  0
   -3.0354   -5.1377   -0.0000 C   0  0  0  0  0  0  0  0  0  0  0  0
   -3.0354   -2.5393   -0.0000 C   0  0  0  0  0  0  0  0  0  0  0  0
    3.7086   -3.8385   -0.0000 C   0  0  0  0  0  0  0  0  0  0  0  0
   -4.5471   -5.1259   -0.0000 C   0  0  0  0  0  0  0  0  0  0  0  0
   -4.5471   -2.5275   -0.0000 C   0  0  0  0  0  0  0  0  0  0  0  0
    4.4526   -2.5275   -0.0000 O   0  0  0  0  0  0  0  0  0  0  0  0
    4.4526   -5.1259   -0.0000 N   0  0  0  0  0  0  0  0  0  0  0  0
   -5.3030   -3.8149   -0.0000 N   0  0  0  0  0  0  0  0  0  0  0  0
    5.9408   -5.1140   -0.0000 C   0  0  0  0  0  0  0  0  0  0  0  0
   -6.8148   -3.8031   -0.0000 C   0  0  0  0  0  0  0  0  0  0  0  0
    6.6849   -6.4014   -0.0000 N   0  0  0  0  0  0  0  0  0  0  0  0
    6.6849   -3.8031   -0.0000 N   0  0  0  0  0  0  0  0  0  0  0  0
   -7.5707   -5.0904   -0.0000 O   0  0  0  0  0  0  0  0  0  0  0  0
   -7.5707   -2.4921   -0.0000 C   0  0  0  0  0  0  0  0  0  0  0  0
   -7.5825   -0.9803   -0.0000 C   0  0  0  0  0  0  0  0  0  0  0  0
   -8.8817   -1.7362   -0.0000 C   0  0  0  0  0  0  0  0  0  0  0  0
  1  2  1  0  0  0  0
  2  3  1  0  0  0  0
  2  4  1  0  0  0  0
  2  5  1  0  0  0  0
  5  6  2  0  0  0  0
  5  7  1  0  0  0  0
  6  8  1  0  0  0  0
  6  9  1  0  0  0  0
  7 10  2  0  0  0  0
  8 11  2  0  0  0  0
  9 12  1  0  0  0  0
  9 13  1  0  0  0  0
 10 14  1  0  0  0  0
 12 15  1  0  0  0  0
 13 16  1  0  0  0  0
 14 17  2  0  0  0  0
 14 18  1  0  0  0  0
 15 19  1  0  0  0  0
 18 20  1  0  0  0  0
 19 21  1  0  0  0  0
 20 22  2  0  0  0  0
 20 23  1  0  0  0  0
 21 24  2  0  0  0  0
 21 25  1  0  0  0  0
 25 26  1  0  0  0  0
 25 27  1  0  0  0  0
 10 11  1  0  0  0  0
 16 19  1  0  0  0  0
 26 27  1  0  0  0  0
M  END
>  <MolRegNo>
1430092

>  <m>
=

>  <Value>
16000

>  <Unit>
nM

>  <Type>
IC50

>  <pValue>
4.8

>  <Ligand Efficiency>
0

>  <Binding Efficiency>
0

>  <Surface Efficiency>
0

>  <Assay Index>
691778

>  <Assay Category>


>  <Assay Organism>
Homo sapiens

>  <Target ID>
17045

>  <Target Name>
Cytochrome P450 3A4

>  <Target Organism>
Homo sapiens

>  <Target Description>
Target is a single protein chain

>  <Sequence Accession>
P08684

>  <Reference>
J Med Chem 55 (16), 7114-7140 (2012)

>  <Pubmed ID>
22803959

>  <DOI>
10.1021/jm300601d

$$$$
1430091
Actelion Java MolfileCreator 1.0

 27 28  0  0  0  0  0  0  0  0999 V2000
    0.0000   -0.0000   -0.0000 F   0  0  0  0  0  0  0  0  0  0  0  0
    0.7328   -1.2884   -0.0000 C   0  0  0  0  0  0  0  0  0  0  0  0
   -0.7801   -1.2765   -0.0000 F   0  0  0  0  0  0  0  0  0  0  0  0
    1.4775    0.0236   -0.0000 F   0  0  0  0  0  0  0  0  0  0  0  0
    1.4775   -2.5767   -0.0000 C   0  0  0  0  0  0  0  0  0  0  0  0
    0.7210   -3.8651   -0.0000 C   0  0  0  0  0  0  0  0  0  0  0  0
    2.9668   -2.5649   -0.0000 C   0  0  0  0  0  0  0  0  0  0  0  0
    1.4657   -5.1534   -0.0000 C   0  0  0  0  0  0  0  0  0  0  0  0
   -0.7919   -3.8533   -0.0000 C   0  0  0  0  0  0  0  0  0  0  0  0
    3.7114   -3.8533   -0.0000 C   0  0  0  0  0  0  0  0  0  0  0  0
    2.9550   -5.1416   -0.0000 C   0  0  0  0  0  0  0  0  0  0  0  0
   -1.5484   -5.1416   -0.0000 C   0  0  0  0  0  0  0  0  0  0  0  0
   -1.5484   -2.5413   -0.0000 C   0  0  0  0  0  0  0  0  0  0  0  0
    5.2007   -3.8414   -0.0000 C   0  0  0  0  0  0  0  0  0  0  0  0
   -3.0613   -5.1298   -0.0000 C   0  0  0  0  0  0  0  0  0  0  0  0
   -3.0613   -2.5294   -0.0000 C   0  0  0  0  0  0  0  0  0  0  0  0
    5.9454   -2.5294   -0.0000 O   0  0  0  0  0  0  0  0  0  0  0  0
    5.9454   -5.1298   -0.0000 N   0  0  0  0  0  0  0  0  0  0  0  0
   -3.8178   -3.8178   -0.0000 N   0  0  0  0  0  0  0  0  0  0  0  0
    7.4347   -5.1180   -0.0000 C   0  0  0  0  0  0  0  0  0  0  0  0
   -5.3307   -3.8060   -0.0000 C   0  0  0  0  0  0  0  0  0  0  0  0
    8.1793   -3.8060   -0.0000 N   0  0  0  0  0  0  0  0  0  0  0  0
    8.1793   -6.4064   -0.0000 N   0  0  0  0  0  0  0  0  0  0  0  0
   -6.0872   -5.0943   -0.0000 O   0  0  0  0  0  0  0  0  0  0  0  0
   -6.0872   -2.4940   -0.0000 C   0  0  0  0  0  0  0  0  0  0  0  0
   -7.6002   -2.4822   -0.0000 C   0  0  0  0  0  0  0  0  0  0  0  0
   -5.3544   -1.1820   -0.0000 C   0  0  0  0  0  0  0  0  0  0  0  0
  1  2  1  0  0  0  0
  2  3  1  0  0  0  0
  2  4  1  0  0  0  0
  2  5  1  0  0  0  0
  5  6  2  0  0  0  0
  5  7  1  0  0  0  0
  6  8  1  0  0  0  0
  6  9  1  0  0  0  0
  7 10  2  0  0  0  0
  8 11  2  0  0  0  0
  9 12  1  0  0  0  0
  9 13  1  0  0  0  0
 10 14  1  0  0  0  0
 12 15  1  0  0  0  0
 13 16  1  0  0  0  0
 14 17  2  0  0  0  0
 14 18  1  0  0  0  0
 15 19  1  0  0  0  0
 18 20  1  0  0  0  0
 19 21  1  0  0  0  0
 20 22  2  0  0  0  0
 20 23  1  0  0  0  0
 21 24  2  0  0  0  0
 21 25  1  0  0  0  0
 25 26  1  0  0  0  0
 25 27  1  0  0  0  0
 10 11  1  0  0  0  0
 16 19  1  0  0  0  0
M  END
>  <MolRegNo>
1430091

>  <m>
=

>  <Value>
400

>  <Unit>
nM

>  <Type>
IC50

>  <pValue>
6.4

>  <Ligand Efficiency>
0

>  <Binding Efficiency>
0

>  <Surface Efficiency>
0

>  <Assay Index>
691778

>  <Assay Category>


>  <Assay Organism>
Homo sapiens

>  <Target ID>
17045

>  <Target Name>
Cytochrome P450 3A4

>  <Target Organism>
Homo sapiens

>  <Target Description>
Target is a single protein chain

>  <Sequence Accession>
P08684

>  <Reference>
J Med Chem 55 (16), 7114-7140 (2012)

>  <Pubmed ID>
22803959

>  <DOI>
10.1021/jm300601d

$$$$
1430090
Actelion Java MolfileCreator 1.0

 28 29  0  0  0  0  0  0  0  0999 V2000
    0.0000   -0.0000   -0.0000 F   0  0  0  0  0  0  0  0  0  0  0  0
    0.7326   -1.2879   -0.0000 C   0  0  0  0  0  0  0  0  0  0  0  0
   -0.7798   -1.2761   -0.0000 F   0  0  0  0  0  0  0  0  0  0  0  0
    1.4770    0.0236   -0.0000 F   0  0  0  0  0  0  0  0  0  0  0  0
    1.4770   -2.5759   -0.0000 C   0  0  0  0  0  0  0  0  0  0  0  0
    0.7208   -3.8638   -0.0000 C   0  0  0  0  0  0  0  0  0  0  0  0
    2.9658   -2.5641   -0.0000 C   0  0  0  0  0  0  0  0  0  0  0  0
    1.4652   -5.1517   -0.0000 C   0  0  0  0  0  0  0  0  0  0  0  0
   -0.7917   -3.8520   -0.0000 C   0  0  0  0  0  0  0  0  0  0  0  0
    3.7102   -3.8520   -0.0000 C   0  0  0  0  0  0  0  0  0  0  0  0
    2.9540   -5.1399   -0.0000 C   0  0  0  0  0  0  0  0  0  0  0  0
   -1.5479   -5.1399   -0.0000 C   0  0  0  0  0  0  0  0  0  0  0  0
   -1.5479   -2.5404   -0.0000 C   0  0  0  0  0  0  0  0  0  0  0  0
    5.1990   -3.8402   -0.0000 C   0  0  0  0  0  0  0  0  0  0  0  0
   -3.0603   -5.1281   -0.0000 C   0  0  0  0  0  0  0  0  0  0  0  0
   -3.0603   -2.5286   -0.0000 C   0  0  0  0  0  0  0  0  0  0  0  0
    5.9434   -2.5286   -0.0000 O   0  0  0  0  0  0  0  0  0  0  0  0
    5.9434   -5.1281   -0.0000 N   0  0  0  0  0  0  0  0  0  0  0  0
   -3.8165   -3.8165   -0.0000 N   0  0  0  0  0  0  0  0  0  0  0  0
    7.4322   -5.1163   -0.0000 C   0  0  0  0  0  0  0  0  0  0  0  0
   -5.3290   -3.8047   -0.0000 C   0  0  0  0  0  0  0  0  0  0  0  0
    8.1766   -3.8047   -0.0000 N   0  0  0  0  0  0  0  0  0  0  0  0
    8.1766   -6.4042   -0.0000 N   0  0  0  0  0  0  0  0  0  0  0  0
   -6.0852   -5.0927   -0.0000 O   0  0  0  0  0  0  0  0  0  0  0  0
   -6.0852   -2.4932   -0.0000 C   0  0  0  0  0  0  0  0  0  0  0  0
   -7.5976   -2.4813   -0.0000 C   0  0  0  0  0  0  0  0  0  0  0  0
   -5.3526   -1.1816   -0.0000 C   0  0  0  0  0  0  0  0  0  0  0  0
   -6.8414   -1.1816   -0.0000 C   0  0  0  0  0  0  0  0  0  0  0  0
  1  2  1  0  0  0  0
  2  3  1  0  0  0  0
  2  4  1  0  0  0  0
  2  5  1  0  0  0  0
  5  6  2  0  0  0  0
  5  7  1  0  0  0  0
  6  8  1  0  0  0  0
  6  9  1  0  0  0  0
  7 10  2  0  0  0  0
  8 11  2  0  0  0  0
  9 12  1  0  0  0  0
  9 13  1  0  0  0  0
 10 14  1  0  0  0  0
 12 15  1  0  0  0  0
 13 16  1  0  0  0  0
 14 17  2  0  0  0  0
 14 18  1  0  0  0  0
 15 19  1  0  0  0  0
 18 20  1  0  0  0  0
 19 21  1  0  0  0  0
 20 22  2  0  0  0  0
 20 23  1  0  0  0  0
 21 24  2  0  0  0  0
 21 25  1  0  0  0  0
 25 26  1  0  0  0  0
 25 27  1  0  0  0  0
 25 28  1  0  0  0  0
 10 11  1  0  0  0  0
 16 19  1  0  0  0  0
M  END
>  <MolRegNo>
1430090

>  <m>
=

>  <Value>
13000

>  <Unit>
nM

>  <Type>
IC50

>  <pValue>
4.89

>  <Ligand Efficiency>
0

>  <Binding Efficiency>
0

>  <Surface Efficiency>
0

>  <Assay Index>
691778

>  <Assay Category>


>  <Assay Organism>
Homo sapiens

>  <Target ID>
17045

>  <Target Name>
Cytochrome P450 3A4

>  <Target Organism>
Homo sapiens

>  <Target Description>
Target is a single protein chain

>  <Sequence Accession>
P08684

>  <Reference>
J Med Chem 55 (16), 7114-7140 (2012)

>  <Pubmed ID>
22803959

>  <DOI>
10.1021/jm300601d

$$$$
1430104
Actelion Java MolfileCreator 1.0

 30 32  0  0  0  0  0  0  0  0999 V2000
    0.0000   -0.0000   -0.0000 F   0  0  0  0  0  0  0  0  0  0  0  0
    0.7324   -1.2876   -0.0000 C   0  0  0  0  0  0  0  0  0  0  0  0
   -0.7797   -1.2758   -0.0000 F   0  0  0  0  0  0  0  0  0  0  0  0
    1.7838   -0.2126   -0.0000 F   0  0  0  0  0  0  0  0  0  0  0  0
    1.4767   -2.5753   -0.0000 C   0  0  0  0  0  0  0  0  0  0  0  0
    0.7206   -3.8629   -0.0000 C   0  0  0  0  0  0  0  0  0  0  0  0
    2.9651   -2.5635   -0.0000 C   0  0  0  0  0  0  0  0  0  0  0  0
    1.4648   -5.1506   -0.0000 C   0  0  0  0  0  0  0  0  0  0  0  0
   -0.7915   -3.8511   -0.0000 C   0  0  0  0  0  0  0  0  0  0  0  0
    3.7094   -3.8511   -0.0000 C   0  0  0  0  0  0  0  0  0  0  0  0
    2.9533   -5.1388   -0.0000 C   0  0  0  0  0  0  0  0  0  0  0  0
   -1.5475   -5.1388   -0.0000 C   0  0  0  0  0  0  0  0  0  0  0  0
   -1.5475   -2.5399   -0.0000 C   0  0  0  0  0  0  0  0  0  0  0  0
    5.1978   -3.8393   -0.0000 C   0  0  0  0  0  0  0  0  0  0  0  0
   -3.0596   -5.1270   -0.0000 C   0  0  0  0  0  0  0  0  0  0  0  0
   -3.0596   -2.5280   -0.0000 C   0  0  0  0  0  0  0  0  0  0  0  0
    5.9421   -2.5280   -0.0000 O   0  0  0  0  0  0  0  0  0  0  0  0
    5.9421   -5.1270   -0.0000 N   0  0  0  0  0  0  0  0  0  0  0  0
   -3.8157   -3.8157   -0.0000 N   0  0  0  0  0  0  0  0  0  0  0  0
    7.4306   -5.1152   -0.0000 C   0  0  0  0  0  0  0  0  0  0  0  0
   -5.3278   -3.8039   -0.0000 C   0  0  0  0  0  0  0  0  0  0  0  0
    8.1748   -3.8039   -0.0000 N   0  0  0  0  0  0  0  0  0  0  0  0
    8.1748   -6.4028   -0.0000 N   0  0  0  0  0  0  0  0  0  0  0  0
   -6.0838   -5.0915   -0.0000 O   0  0  0  0  0  0  0  0  0  0  0  0
   -6.0838   -2.4926   -0.0000 C   0  0  0  0  0  0  0  0  0  0  0  0
   -7.5841   -2.3272   -0.0000 N   0  0  0  0  0  0  0  0  0  0  0  0
   -5.4814   -1.1104   -0.0000 C   0  0  0  0  0  0  0  0  0  0  0  0
   -7.9031   -0.8506   -0.0000 C   0  0  0  0  0  0  0  0  0  0  0  0
   -8.6001   -3.4259   -0.0000 C   0  0  0  0  0  0  0  0  0  0  0  0
   -6.6036   -0.0945   -0.0000 N   0  0  0  0  0  0  0  0  0  0  0  0
  1  2  1  0  0  0  0
  2  3  1  0  0  0  0
  2  4  1  0  0  0  0
  2  5  1  0  0  0  0
  5  6  2  0  0  0  0
  5  7  1  0  0  0  0
  6  8  1  0  0  0  0
  6  9  1  0  0  0  0
  7 10  2  0  0  0  0
  8 11  2  0  0  0  0
  9 12  1  0  0  0  0
  9 13  1  0  0  0  0
 10 14  1  0  0  0  0
 12 15  1  0  0  0  0
 13 16  1  0  0  0  0
 14 17  2  0  0  0  0
 14 18  1  0  0  0  0
 15 19  1  0  0  0  0
 18 20  1  0  0  0  0
 19 21  1  0  0  0  0
 20 22  2  0  0  0  0
 20 23  1  0  0  0  0
 21 24  2  0  0  0  0
 21 25  1  0  0  0  0
 25 26  1  0  0  0  0
 25 27  2  0  0  0  0
 26 28  1  0  0  0  0
 26 29  1  0  0  0  0
 27 30  1  0  0  0  0
 10 11  1  0  0  0  0
 16 19  1  0  0  0  0
 28 30  2  0  0  0  0
M  END
>  <MolRegNo>
1430104

>  <m>
=

>  <Value>
3000

>  <Unit>
nM

>  <Type>
IC50

>  <pValue>
5.52

>  <Ligand Efficiency>
0

>  <Binding Efficiency>
0

>  <Surface Efficiency>
0

>  <Assay Index>
691778

>  <Assay Category>


>  <Assay Organism>
Homo sapiens

>  <Target ID>
17045

>  <Target Name>
Cytochrome P450 3A4

>  <Target Organism>
Homo sapiens

>  <Target Description>
Target is a single protein chain

>  <Sequence Accession>
P08684

>  <Reference>
J Med Chem 55 (16), 7114-7140 (2012)

>  <Pubmed ID>
22803959

>  <DOI>
10.1021/jm300601d

$$$$
1430103
Actelion Java MolfileCreator 1.0

 30 32  0  0  0  0  0  0  0  0999 V2000
    0.0000   -0.0000   -0.0000 F   0  0  0  0  0  0  0  0  0  0  0  0
    0.7444   -1.2880   -0.0000 C   0  0  0  0  0  0  0  0  0  0  0  0
   -0.7681   -1.2761   -0.0000 F   0  0  0  0  0  0  0  0  0  0  0  0
    1.7961   -0.2127   -0.0000 F   0  0  0  0  0  0  0  0  0  0  0  0
    1.4770   -2.5759   -0.0000 C   0  0  0  0  0  0  0  0  0  0  0  0
    0.7208   -3.8639   -0.0000 C   0  0  0  0  0  0  0  0  0  0  0  0
    2.9659   -2.5641   -0.0000 C   0  0  0  0  0  0  0  0  0  0  0  0
    1.4534   -5.1519   -0.0000 C   0  0  0  0  0  0  0  0  0  0  0  0
   -0.7917   -3.8521   -0.0000 C   0  0  0  0  0  0  0  0  0  0  0  0
    3.6985   -3.8521   -0.0000 C   0  0  0  0  0  0  0  0  0  0  0  0
    2.9422   -5.1400   -0.0000 C   0  0  0  0  0  0  0  0  0  0  0  0
   -1.5479   -5.1400   -0.0000 C   0  0  0  0  0  0  0  0  0  0  0  0
   -1.5479   -2.5405   -0.0000 C   0  0  0  0  0  0  0  0  0  0  0  0
    5.1873   -3.8403   -0.0000 C   0  0  0  0  0  0  0  0  0  0  0  0
   -3.0604   -5.1282   -0.0000 C   0  0  0  0  0  0  0  0  0  0  0  0
   -3.0604   -2.5287   -0.0000 C   0  0  0  0  0  0  0  0  0  0  0  0
    5.9317   -2.5287   -0.0000 O   0  0  0  0  0  0  0  0  0  0  0  0
    5.9317   -5.1282   -0.0000 N   0  0  0  0  0  0  0  0  0  0  0  0
   -3.8166   -3.8166   -0.0000 N   0  0  0  0  0  0  0  0  0  0  0  0
    7.4206   -5.1164   -0.0000 C   0  0  0  0  0  0  0  0  0  0  0  0
   -5.3291   -3.8048   -0.0000 C   0  0  0  0  0  0  0  0  0  0  0  0
    8.1650   -3.8048   -0.0000 N   0  0  0  0  0  0  0  0  0  0  0  0
    8.1650   -6.4044   -0.0000 N   0  0  0  0  0  0  0  0  0  0  0  0
   -6.0853   -5.0928   -0.0000 O   0  0  0  0  0  0  0  0  0  0  0  0
   -6.0853   -2.4932   -0.0000 C   0  0  0  0  0  0  0  0  0  0  0  0
   -5.4827   -1.1107   -0.0000 N   0  0  0  0  0  0  0  0  0  0  0  0
   -7.5860   -2.3278   -0.0000 N   0  0  0  0  0  0  0  0  0  0  0  0
   -6.6052   -0.0945   -0.0000 C   0  0  0  0  0  0  0  0  0  0  0  0
   -7.9050   -0.8508   -0.0000 C   0  0  0  0  0  0  0  0  0  0  0  0
   -8.6022   -3.4267   -0.0000 C   0  0  0  0  0  0  0  0  0  0  0  0
  1  2  1  0  0  0  0
  2  3  1  0  0  0  0
  2  4  1  0  0  0  0
  2  5  1  0  0  0  0
  5  6  2  0  0  0  0
  5  7  1  0  0  0  0
  6  8  1  0  0  0  0
  6  9  1  0  0  0  0
  7 10  2  0  0  0  0
  8 11  2  0  0  0  0
  9 12  1  0  0  0  0
  9 13  1  0  0  0  0
 10 14  1  0  0  0  0
 12 15  1  0  0  0  0
 13 16  1  0  0  0  0
 14 17  2  0  0  0  0
 14 18  1  0  0  0  0
 15 19  1  0  0  0  0
 18 20  1  0  0  0  0
 19 21  1  0  0  0  0
 20 22  2  0  0  0  0
 20 23  1  0  0  0  0
 21 24  2  0  0  0  0
 21 25  1  0  0  0  0
 25 26  2  0  0  0  0
 25 27  1  0  0  0  0
 26 28  1  0  0  0  0
 27 29  1  0  0  0  0
 27 30  1  0  0  0  0
 10 11  1  0  0  0  0
 16 19  1  0  0  0  0
 28 29  2  0  0  0  0
M  END
>  <MolRegNo>
1430103

>  <m>
=

>  <Value>
26000

>  <Unit>
nM

>  <Type>
IC50

>  <pValue>
4.58

>  <Ligand Efficiency>
0

>  <Binding Efficiency>
0

>  <Surface Efficiency>
0

>  <Assay Index>
691778

>  <Assay Category>


>  <Assay Organism>
Homo sapiens

>  <Target ID>
17045

>  <Target Name>
Cytochrome P450 3A4

>  <Target Organism>
Homo sapiens

>  <Target Description>
Target is a single protein chain

>  <Sequence Accession>
P08684

>  <Reference>
J Med Chem 55 (16), 7114-7140 (2012)

>  <Pubmed ID>
22803959

>  <DOI>
10.1021/jm300601d

$$$$
1430101
Actelion Java MolfileCreator 1.0

 34 36  0  0  0  0  0  0  0  0999 V2000
    0.0000   -0.0000   -0.0000 S   0  0  0  0  0  0  0  0  0  0  0  0
    0.7338    1.3138   -0.0000 O   0  0  0  0  0  0  0  0  0  0  0  0
   -0.7693    1.3138   -0.0000 O   0  0  0  0  0  0  0  0  0  0  0  0
   -1.2783   -0.7101   -0.0000 N   0  0  0  0  0  0  0  0  0  0  0  0
    1.2901   -0.7457   -0.0000 C   0  0  0  0  0  0  0  0  0  0  0  0
    2.5802    0.0237   -0.0000 C   0  0  0  0  0  0  0  0  0  0  0  0
    1.2783   -2.2370   -0.0000 C   0  0  0  0  0  0  0  0  0  0  0  0
    3.8703   -0.7220   -0.0000 C   0  0  0  0  0  0  0  0  0  0  0  0
    2.5684   -2.9826   -0.0000 C   0  0  0  0  0  0  0  0  0  0  0  0
    3.8585   -2.2133   -0.0000 C   0  0  0  0  0  0  0  0  0  0  0  0
    5.1486   -2.9589   -0.0000 C   0  0  0  0  0  0  0  0  0  0  0  0
    5.1367   -4.4503   -0.0000 O   0  0  0  0  0  0  0  0  0  0  0  0
    6.4387   -2.1896   -0.0000 N   0  0  0  0  0  0  0  0  0  0  0  0
    7.7288   -2.9353   -0.0000 C   0  0  0  0  0  0  0  0  0  0  0  0
    6.4268   -0.6746   -0.0000 C   0  0  0  0  0  0  0  0  0  0  0  0
    9.0189   -2.1659   -0.0000 C   0  0  0  0  0  0  0  0  0  0  0  0
    7.7169    0.0947   -0.0000 C   0  0  0  0  0  0  0  0  0  0  0  0
    9.0070   -0.6510   -0.0000 C   0  0  0  0  0  0  0  0  0  0  0  0
   10.2971    0.1184   -0.0000 C   0  0  0  0  0  0  0  0  0  0  0  0
   10.2853    1.6333   -0.0000 C   0  0  0  0  0  0  0  0  0  0  0  0
   11.5872   -0.6273   -0.0000 C   0  0  0  0  0  0  0  0  0  0  0  0
   11.5754    2.3908   -0.0000 C   0  0  0  0  0  0  0  0  0  0  0  0
    8.9715    2.3908   -0.0000 C   0  0  0  0  0  0  0  0  0  0  0  0
   12.8773    0.1420   -0.0000 C   0  0  0  0  0  0  0  0  0  0  0  0
   12.8655    1.6452   -0.0000 C   0  0  0  0  0  0  0  0  0  0  0  0
    8.9597    3.9058   -0.0000 F   0  0  0  0  0  0  0  0  0  0  0  0
    7.6577    3.1483   -0.0000 F   0  0  0  0  0  0  0  0  0  0  0  0
    7.8945    1.3374   -0.0000 F   0  0  0  0  0  0  0  0  0  0  0  0
   14.1556    2.4027   -0.0000 C   0  0  0  0  0  0  0  0  0  0  0  0
   14.1438    3.9176   -0.0000 O   0  0  0  0  0  0  0  0  0  0  0  0
   15.4457    1.6570   -0.0000 N   0  0  0  0  0  0  0  0  0  0  0  0
   16.7358    2.4145   -0.0000 C   0  0  0  0  0  0  0  0  0  0  0  0
   16.7240    3.9295   -0.0000 N   0  0  0  0  0  0  0  0  0  0  0  0
   18.0259    1.6688   -0.0000 N   0  0  0  0  0  0  0  0  0  0  0  0
  1  2  2  0  0  0  0
  1  3  2  0  0  0  0
  1  4  1  0  0  0  0
  1  5  1  0  0  0  0
  5  6  2  0  0  0  0
  5  7  1  0  0  0  0
  6  8  1  0  0  0  0
  7  9  2  0  0  0  0
  8 10  2  0  0  0  0
 10 11  1  0  0  0  0
 11 12  2  0  0  0  0
 11 13  1  0  0  0  0
 13 14  1  0  0  0  0
 13 15  1  0  0  0  0
 14 16  1  0  0  0  0
 15 17  1  0  0  0  0
 16 18  1  0  0  0  0
 18 19  1  0  0  0  0
 19 20  2  0  0  0  0
 19 21  1  0  0  0  0
 20 22  1  0  0  0  0
 20 23  1  0  0  0  0
 21 24  2  0  0  0  0
 22 25  2  0  0  0  0
 23 26  1  0  0  0  0
 23 27  1  0  0  0  0
 23 28  1  0  0  0  0
 25 29  1  0  0  0  0
 29 30  2  0  0  0  0
 29 31  1  0  0  0  0
 31 32  1  0  0  0  0
 32 33  2  0  0  0  0
 32 34  1  0  0  0  0
  9 10  1  0  0  0  0
 17 18  1  0  0  0  0
 24 25  1  0  0  0  0
M  END
>  <MolRegNo>
1430101

>  <m>
=

>  <Value>
24000

>  <Unit>
nM

>  <Type>
IC50

>  <pValue>
4.62

>  <Ligand Efficiency>
0

>  <Binding Efficiency>
0

>  <Surface Efficiency>
0

>  <Assay Index>
691778

>  <Assay Category>


>  <Assay Organism>
Homo sapiens

>  <Target ID>
17045

>  <Target Name>
Cytochrome P450 3A4

>  <Target Organism>
Homo sapiens

>  <Target Description>
Target is a single protein chain

>  <Sequence Accession>
P08684

>  <Reference>
J Med Chem 55 (16), 7114-7140 (2012)

>  <Pubmed ID>
22803959

>  <DOI>
10.1021/jm300601d

$$$$
1430124
Actelion Java MolfileCreator 1.0

 33 35  0  0  0  0  0  0  0  0999 V2000
    0.0000   -0.0000   -0.0000 F   0  0  0  0  0  0  0  0  0  0  0  0
    1.2876   -0.7324   -0.0000 C   0  0  0  0  0  0  0  0  0  0  0  0
    1.2758    0.7797   -0.0000 F   0  0  0  0  0  0  0  0  0  0  0  0
    2.5752    0.0236   -0.0000 F   0  0  0  0  0  0  0  0  0  0  0  0
    1.2758   -2.2209   -0.0000 C   0  0  0  0  0  0  0  0  0  0  0  0
   -0.0354   -2.9651   -0.0000 C   0  0  0  0  0  0  0  0  0  0  0  0
    2.5634   -2.9651   -0.0000 C   0  0  0  0  0  0  0  0  0  0  0  0
   -0.0473   -4.4535   -0.0000 C   0  0  0  0  0  0  0  0  0  0  0  0
   -1.3467   -2.2090   -0.0000 C   0  0  0  0  0  0  0  0  0  0  0  0
    2.5516   -4.4535   -0.0000 C   0  0  0  0  0  0  0  0  0  0  0  0
    1.2404   -5.1859   -0.0000 C   0  0  0  0  0  0  0  0  0  0  0  0
   -1.3585   -0.6970   -0.0000 C   0  0  0  0  0  0  0  0  0  0  0  0
   -2.6579   -2.9533   -0.0000 C   0  0  0  0  0  0  0  0  0  0  0  0
    3.8392   -5.1859   -0.0000 C   0  0  0  0  0  0  0  0  0  0  0  0
   -2.6697    0.0591   -0.0000 C   0  0  0  0  0  0  0  0  0  0  0  0
   -3.9692   -2.1972   -0.0000 C   0  0  0  0  0  0  0  0  0  0  0  0
    3.8274   -6.6744   -0.0000 O   0  0  0  0  0  0  0  0  0  0  0  0
    5.1269   -4.4299   -0.0000 N   0  0  0  0  0  0  0  0  0  0  0  0
   -3.9810   -0.6733   -0.0000 N   0  0  0  0  0  0  0  0  0  0  0  0
    6.4145   -5.1623   -0.0000 C   0  0  0  0  0  0  0  0  0  0  0  0
   -5.2922    0.0827   -0.0000 C   0  0  0  0  0  0  0  0  0  0  0  0
    6.4027   -6.6507   -0.0000 N   0  0  0  0  0  0  0  0  0  0  0  0
    7.7021   -4.4063   -0.0000 N   0  0  0  0  0  0  0  0  0  0  0  0
   -5.3041    1.5948   -0.0000 O   0  0  0  0  0  0  0  0  0  0  0  0
   -6.6035   -0.6497   -0.0000 C   0  0  0  0  0  0  0  0  0  0  0  0
   -7.9147    0.1063   -0.0000 C   0  0  0  0  0  0  0  0  0  0  0  0
   -6.6153   -2.1382   -0.0000 C   0  0  0  0  0  0  0  0  0  0  0  0
   -9.2260   -0.6261   -0.0000 C   0  0  0  0  0  0  0  0  0  0  0  0
   -7.9265   -2.8824   -0.0000 C   0  0  0  0  0  0  0  0  0  0  0  0
   -9.2378   -2.1145   -0.0000 C   0  0  0  0  0  0  0  0  0  0  0  0
  -10.5490   -2.8588   -0.0000 C   0  0  0  0  0  0  0  0  0  0  0  0
  -10.5609   -4.3472   -0.0000 O   0  0  0  0  0  0  0  0  0  0  0  0
  -11.8603   -2.1027   -0.0000 N   0  0  0  0  0  0  0  0  0  0  0  0
  1  2  1  0  0  0  0
  2  3  1  0  0  0  0
  2  4  1  0  0  0  0
  2  5  1  0  0  0  0
  5  6  2  0  0  0  0
  5  7  1  0  0  0  0
  6  8  1  0  0  0  0
  6  9  1  0  0  0  0
  7 10  2  0  0  0  0
  8 11  2  0  0  0  0
  9 12  1  0  0  0  0
  9 13  1  0  0  0  0
 10 14  1  0  0  0  0
 12 15  1  0  0  0  0
 13 16  1  0  0  0  0
 14 17  2  0  0  0  0
 14 18  1  0  0  0  0
 15 19  1  0  0  0  0
 18 20  1  0  0  0  0
 19 21  1  0  0  0  0
 20 22  2  0  0  0  0
 20 23  1  0  0  0  0
 21 24  2  0  0  0  0
 21 25  1  0  0  0  0
 25 26  2  0  0  0  0
 25 27  1  0  0  0  0
 26 28  1  0  0  0  0
 27 29  2  0  0  0  0
 28 30  2  0  0  0  0
 30 31  1  0  0  0  0
 31 32  2  0  0  0  0
 31 33  1  0  0  0  0
 10 11  1  0  0  0  0
 16 19  1  0  0  0  0
 29 30  1  0  0  0  0
M  END
>  <MolRegNo>
1430124

>  <m>
=

>  <Value>
24500

>  <Unit>
nM

>  <Type>
IC50

>  <pValue>
4.61

>  <Ligand Efficiency>
0

>  <Binding Efficiency>
0

>  <Surface Efficiency>
0

>  <Assay Index>
691778

>  <Assay Category>


>  <Assay Organism>
Homo sapiens

>  <Target ID>
17045

>  <Target Name>
Cytochrome P450 3A4

>  <Target Organism>
Homo sapiens

>  <Target Description>
Target is a single protein chain

>  <Sequence Accession>
P08684

>  <Reference>
J Med Chem 55 (16), 7114-7140 (2012)

>  <Pubmed ID>
22803959

>  <DOI>
10.1021/jm300601d

$$$$
1430118
Actelion Java MolfileCreator 1.0

 34 36  0  0  0  0  0  0  0  0999 V2000
    0.0000   -0.0000   -0.0000 S   0  0  0  0  0  0  0  0  0  0  0  0
    0.7343    1.3147   -0.0000 O   0  0  0  0  0  0  0  0  0  0  0  0
   -1.0778    1.0778   -0.0000 O   0  0  0  0  0  0  0  0  0  0  0  0
    1.2910   -0.7343   -0.0000 C   0  0  0  0  0  0  0  0  0  0  0  0
   -1.4686   -0.3790   -0.0000 C   0  0  0  0  0  0  0  0  0  0  0  0
    2.5820    0.0237   -0.0000 C   0  0  0  0  0  0  0  0  0  0  0  0
    1.2791   -2.2266   -0.0000 C   0  0  0  0  0  0  0  0  0  0  0  0
    3.8729   -0.7106   -0.0000 C   0  0  0  0  0  0  0  0  0  0  0  0
    2.5701   -2.9610   -0.0000 C   0  0  0  0  0  0  0  0  0  0  0  0
    3.8611   -2.2030   -0.0000 C   0  0  0  0  0  0  0  0  0  0  0  0
    5.1521   -2.9373   -0.0000 C   0  0  0  0  0  0  0  0  0  0  0  0
    5.1402   -4.4296   -0.0000 O   0  0  0  0  0  0  0  0  0  0  0  0
    6.4431   -2.1793   -0.0000 N   0  0  0  0  0  0  0  0  0  0  0  0
    7.7340   -2.9136   -0.0000 C   0  0  0  0  0  0  0  0  0  0  0  0
    6.4312   -0.6633   -0.0000 C   0  0  0  0  0  0  0  0  0  0  0  0
    9.0250   -2.1556   -0.0000 C   0  0  0  0  0  0  0  0  0  0  0  0
    7.7222    0.0948   -0.0000 C   0  0  0  0  0  0  0  0  0  0  0  0
    9.0132   -0.6396   -0.0000 C   0  0  0  0  0  0  0  0  0  0  0  0
   10.3041    0.1184   -0.0000 C   0  0  0  0  0  0  0  0  0  0  0  0
   10.2923    1.6345   -0.0000 C   0  0  0  0  0  0  0  0  0  0  0  0
   11.5951   -0.6159   -0.0000 C   0  0  0  0  0  0  0  0  0  0  0  0
   11.5833    2.3925   -0.0000 C   0  0  0  0  0  0  0  0  0  0  0  0
    8.9776    2.3925   -0.0000 C   0  0  0  0  0  0  0  0  0  0  0  0
   12.8861    0.1421   -0.0000 C   0  0  0  0  0  0  0  0  0  0  0  0
   12.8743    1.6581   -0.0000 C   0  0  0  0  0  0  0  0  0  0  0  0
    8.9658    3.9085   -0.0000 F   0  0  0  0  0  0  0  0  0  0  0  0
    7.6630    3.1505   -0.0000 F   0  0  0  0  0  0  0  0  0  0  0  0
    7.6630    1.6581   -0.0000 F   0  0  0  0  0  0  0  0  0  0  0  0
   14.1652    2.4161   -0.0000 C   0  0  0  0  0  0  0  0  0  0  0  0
   14.1534    3.9322   -0.0000 O   0  0  0  0  0  0  0  0  0  0  0  0
   15.4562    1.6818   -0.0000 N   0  0  0  0  0  0  0  0  0  0  0  0
   16.7472    2.4398   -0.0000 C   0  0  0  0  0  0  0  0  0  0  0  0
   16.7353    3.9558   -0.0000 N   0  0  0  0  0  0  0  0  0  0  0  0
   18.0382    1.7055   -0.0000 N   0  0  0  0  0  0  0  0  0  0  0  0
  1  2  2  0  0  0  0
  1  3  2  0  0  0  0
  1  4  1  0  0  0  0
  1  5  1  0  0  0  0
  4  6  2  0  0  0  0
  4  7  1  0  0  0  0
  6  8  1  0  0  0  0
  7  9  2  0  0  0  0
  8 10  2  0  0  0  0
 10 11  1  0  0  0  0
 11 12  2  0  0  0  0
 11 13  1  0  0  0  0
 13 14  1  0  0  0  0
 13 15  1  0  0  0  0
 14 16  1  0  0  0  0
 15 17  1  0  0  0  0
 16 18  1  0  0  0  0
 18 19  1  0  0  0  0
 19 20  2  0  0  0  0
 19 21  1  0  0  0  0
 20 22  1  0  0  0  0
 20 23  1  0  0  0  0
 21 24  2  0  0  0  0
 22 25  2  0  0  0  0
 23 26  1  0  0  0  0
 23 27  1  0  0  0  0
 23 28  1  0  0  0  0
 25 29  1  0  0  0  0
 29 30  2  0  0  0  0
 29 31  1  0  0  0  0
 31 32  1  0  0  0  0
 32 33  2  0  0  0  0
 32 34  1  0  0  0  0
  9 10  1  0  0  0  0
 17 18  1  0  0  0  0
 24 25  1  0  0  0  0
M  END
>  <MolRegNo>
1430118

>  <m>
=

>  <Value>
15000

>  <Unit>
nM

>  <Type>
IC50

>  <pValue>
4.82

>  <Ligand Efficiency>
0

>  <Binding Efficiency>
0

>  <Surface Efficiency>
0

>  <Assay Index>
691778

>  <Assay Category>


>  <Assay Organism>
Homo sapiens

>  <Target ID>
17045

>  <Target Name>
Cytochrome P450 3A4

>  <Target Organism>
Homo sapiens

>  <Target Description>
Target is a single protein chain

>  <Sequence Accession>
P08684

>  <Reference>
J Med Chem 55 (16), 7114-7140 (2012)

>  <Pubmed ID>
22803959

>  <DOI>
10.1021/jm300601d

$$$$
1430116
Actelion Java MolfileCreator 1.0

 32 34  0  0  0  0  0  0  0  0999 V2000
    0.0000   -0.0000   -0.0000 F   0  0  0  0  0  0  0  0  0  0  0  0
   -0.0118   -1.4891   -0.0000 C   0  0  0  0  0  0  0  0  0  0  0  0
   -1.3236   -0.7327   -0.0000 F   0  0  0  0  0  0  0  0  0  0  0  0
   -1.3236   -2.2218   -0.0000 F   0  0  0  0  0  0  0  0  0  0  0  0
    1.2764   -2.2218   -0.0000 C   0  0  0  0  0  0  0  0  0  0  0  0
    1.2645   -3.7109   -0.0000 C   0  0  0  0  0  0  0  0  0  0  0  0
    2.5645   -1.4654   -0.0000 C   0  0  0  0  0  0  0  0  0  0  0  0
    2.5527   -4.4436   -0.0000 C   0  0  0  0  0  0  0  0  0  0  0  0
   -0.0473   -4.4436   -0.0000 C   0  0  0  0  0  0  0  0  0  0  0  0
    3.8527   -2.1982   -0.0000 C   0  0  0  0  0  0  0  0  0  0  0  0
    3.8409   -3.6873   -0.0000 C   0  0  0  0  0  0  0  0  0  0  0  0
   -0.0591   -5.9327   -0.0000 C   0  0  0  0  0  0  0  0  0  0  0  0
   -1.3591   -3.6873   -0.0000 C   0  0  0  0  0  0  0  0  0  0  0  0
    5.1409   -1.4418   -0.0000 C   0  0  0  0  0  0  0  0  0  0  0  0
   -1.3709   -6.6654   -0.0000 C   0  0  0  0  0  0  0  0  0  0  0  0
   -2.6709   -4.4200   -0.0000 C   0  0  0  0  0  0  0  0  0  0  0  0
    5.1291    0.0709   -0.0000 O   0  0  0  0  0  0  0  0  0  0  0  0
    6.4291   -2.1745   -0.0000 N   0  0  0  0  0  0  0  0  0  0  0  0
   -2.6827   -5.9091   -0.0000 N   0  0  0  0  0  0  0  0  0  0  0  0
    7.7172   -1.4182   -0.0000 C   0  0  0  0  0  0  0  0  0  0  0  0
   -3.9945   -6.6418   -0.0000 C   0  0  0  0  0  0  0  0  0  0  0  0
    7.7054    0.0945   -0.0000 N   0  0  0  0  0  0  0  0  0  0  0  0
    9.0054   -2.1509   -0.0000 N   0  0  0  0  0  0  0  0  0  0  0  0
   -4.0063   -8.1309   -0.0000 O   0  0  0  0  0  0  0  0  0  0  0  0
   -5.3063   -5.8854   -0.0000 C   0  0  0  0  0  0  0  0  0  0  0  0
   -5.3182   -4.3727   -0.0000 C   0  0  0  0  0  0  0  0  0  0  0  0
   -6.6181   -6.6181   -0.0000 C   0  0  0  0  0  0  0  0  0  0  0  0
   -6.6300   -3.6163   -0.0000 C   0  0  0  0  0  0  0  0  0  0  0  0
   -7.9300   -5.8618   -0.0000 C   0  0  0  0  0  0  0  0  0  0  0  0
   -6.6418   -2.1036   -0.0000 C   0  0  0  0  0  0  0  0  0  0  0  0
   -7.9418   -4.3491   -0.0000 C   0  0  0  0  0  0  0  0  0  0  0  0
   -6.6536   -0.5909   -0.0000 N   0  0  0  0  0  0  0  0  0  0  0  0
  1  2  1  0  0  0  0
  2  3  1  0  0  0  0
  2  4  1  0  0  0  0
  2  5  1  0  0  0  0
  5  6  2  0  0  0  0
  5  7  1  0  0  0  0
  6  8  1  0  0  0  0
  6  9  1  0  0  0  0
  7 10  2  0  0  0  0
  8 11  2  0  0  0  0
  9 12  1  0  0  0  0
  9 13  1  0  0  0  0
 10 14  1  0  0  0  0
 12 15  1  0  0  0  0
 13 16  1  0  0  0  0
 14 17  2  0  0  0  0
 14 18  1  0  0  0  0
 15 19  1  0  0  0  0
 18 20  1  0  0  0  0
 19 21  1  0  0  0  0
 20 22  2  0  0  0  0
 20 23  1  0  0  0  0
 21 24  2  0  0  0  0
 21 25  1  0  0  0  0
 25 26  2  0  0  0  0
 25 27  1  0  0  0  0
 26 28  1  0  0  0  0
 27 29  2  0  0  0  0
 28 30  1  0  0  0  0
 28 31  2  0  0  0  0
 30 32  3  0  0  0  0
 10 11  1  0  0  0  0
 16 19  1  0  0  0  0
 29 31  1  0  0  0  0
M  END
>  <MolRegNo>
1430116

>  <m>
=

>  <Value>
22000

>  <Unit>
nM

>  <Type>
IC50

>  <pValue>
4.66

>  <Ligand Efficiency>
0

>  <Binding Efficiency>
0

>  <Surface Efficiency>
0

>  <Assay Index>
691778

>  <Assay Category>


>  <Assay Organism>
Homo sapiens

>  <Target ID>
17045

>  <Target Name>
Cytochrome P450 3A4

>  <Target Organism>
Homo sapiens

>  <Target Description>
Target is a single protein chain

>  <Sequence Accession>
P08684

>  <Reference>
J Med Chem 55 (16), 7114-7140 (2012)

>  <Pubmed ID>
22803959

>  <DOI>
10.1021/jm300601d

$$$$
1430115
Actelion Java MolfileCreator 1.0

 32 34  0  0  0  0  0  0  0  0999 V2000
    0.0000   -0.0000   -0.0000 F   0  0  0  0  0  0  0  0  0  0  0  0
   -0.0118   -1.4887   -0.0000 C   0  0  0  0  0  0  0  0  0  0  0  0
   -1.3233   -0.7325   -0.0000 F   0  0  0  0  0  0  0  0  0  0  0  0
   -1.3233   -2.2212   -0.0000 F   0  0  0  0  0  0  0  0  0  0  0  0
    1.2760   -2.2212   -0.0000 C   0  0  0  0  0  0  0  0  0  0  0  0
    1.2642   -3.7098   -0.0000 C   0  0  0  0  0  0  0  0  0  0  0  0
    2.5638   -1.4650   -0.0000 C   0  0  0  0  0  0  0  0  0  0  0  0
    2.5520   -4.4542   -0.0000 C   0  0  0  0  0  0  0  0  0  0  0  0
   -0.0473   -4.4542   -0.0000 C   0  0  0  0  0  0  0  0  0  0  0  0
    3.8516   -2.1975   -0.0000 C   0  0  0  0  0  0  0  0  0  0  0  0
    3.8398   -3.6980   -0.0000 C   0  0  0  0  0  0  0  0  0  0  0  0
   -0.0591   -5.9428   -0.0000 C   0  0  0  0  0  0  0  0  0  0  0  0
   -1.3587   -3.6980   -0.0000 C   0  0  0  0  0  0  0  0  0  0  0  0
    5.1394   -1.4414   -0.0000 C   0  0  0  0  0  0  0  0  0  0  0  0
   -1.3705   -6.6753   -0.0000 C   0  0  0  0  0  0  0  0  0  0  0  0
   -2.6701   -4.4424   -0.0000 C   0  0  0  0  0  0  0  0  0  0  0  0
    5.1276    0.0709   -0.0000 O   0  0  0  0  0  0  0  0  0  0  0  0
    6.4272   -2.1739   -0.0000 N   0  0  0  0  0  0  0  0  0  0  0  0
   -2.6820   -5.9192   -0.0000 N   0  0  0  0  0  0  0  0  0  0  0  0
    7.7150   -1.4178   -0.0000 C   0  0  0  0  0  0  0  0  0  0  0  0
   -3.9934   -6.6517   -0.0000 C   0  0  0  0  0  0  0  0  0  0  0  0
    7.7032    0.0945   -0.0000 N   0  0  0  0  0  0  0  0  0  0  0  0
    9.0029   -2.1503   -0.0000 N   0  0  0  0  0  0  0  0  0  0  0  0
   -4.0052   -8.1404   -0.0000 O   0  0  0  0  0  0  0  0  0  0  0  0
   -5.3048   -5.8956   -0.0000 C   0  0  0  0  0  0  0  0  0  0  0  0
   -5.3166   -4.3833   -0.0000 C   0  0  0  0  0  0  0  0  0  0  0  0
   -6.6163   -6.6281   -0.0000 C   0  0  0  0  0  0  0  0  0  0  0  0
   -6.6281   -3.6271   -0.0000 C   0  0  0  0  0  0  0  0  0  0  0  0
   -7.9277   -5.8719   -0.0000 C   0  0  0  0  0  0  0  0  0  0  0  0
   -7.9395   -4.3715   -0.0000 C   0  0  0  0  0  0  0  0  0  0  0  0
   -9.2510   -3.6153   -0.0000 C   0  0  0  0  0  0  0  0  0  0  0  0
  -10.5624   -2.8592   -0.0000 N   0  0  0  0  0  0  0  0  0  0  0  0
  1  2  1  0  0  0  0
  2  3  1  0  0  0  0
  2  4  1  0  0  0  0
  2  5  1  0  0  0  0
  5  6  2  0  0  0  0
  5  7  1  0  0  0  0
  6  8  1  0  0  0  0
  6  9  1  0  0  0  0
  7 10  2  0  0  0  0
  8 11  2  0  0  0  0
  9 12  1  0  0  0  0
  9 13  1  0  0  0  0
 10 14  1  0  0  0  0
 12 15  1  0  0  0  0
 13 16  1  0  0  0  0
 14 17  2  0  0  0  0
 14 18  1  0  0  0  0
 15 19  1  0  0  0  0
 18 20  1  0  0  0  0
 19 21  1  0  0  0  0
 20 22  2  0  0  0  0
 20 23  1  0  0  0  0
 21 24  2  0  0  0  0
 21 25  1  0  0  0  0
 25 26  2  0  0  0  0
 25 27  1  0  0  0  0
 26 28  1  0  0  0  0
 27 29  2  0  0  0  0
 28 30  2  0  0  0  0
 30 31  1  0  0  0  0
 31 32  3  0  0  0  0
 10 11  1  0  0  0  0
 16 19  1  0  0  0  0
 29 30  1  0  0  0  0
M  END
>  <MolRegNo>
1430115

>  <m>
=

>  <Value>
11000

>  <Unit>
nM

>  <Type>
IC50

>  <pValue>
4.96

>  <Ligand Efficiency>
0

>  <Binding Efficiency>
0

>  <Surface Efficiency>
0

>  <Assay Index>
691778

>  <Assay Category>


>  <Assay Organism>
Homo sapiens

>  <Target ID>
17045

>  <Target Name>
Cytochrome P450 3A4

>  <Target Organism>
Homo sapiens

>  <Target Description>
Target is a single protein chain

>  <Sequence Accession>
P08684

>  <Reference>
J Med Chem 55 (16), 7114-7140 (2012)

>  <Pubmed ID>
22803959

>  <DOI>
10.1021/jm300601d

$$$$
1430129
Actelion Java MolfileCreator 1.0

 31 33  0  0  0  0  0  0  0  0999 V2000
    0.0000   -0.0000   -0.0000 F   0  0  0  0  0  0  0  0  0  0  0  0
    0.7335    1.3132   -0.0000 C   0  0  0  0  0  0  0  0  0  0  0  0
    2.2241    1.3250   -0.0000 C   0  0  0  0  0  0  0  0  0  0  0  0
   -0.0237    2.6264   -0.0000 C   0  0  0  0  0  0  0  0  0  0  0  0
    2.9576    2.6382   -0.0000 C   0  0  0  0  0  0  0  0  0  0  0  0
    0.7098    3.9396   -0.0000 C   0  0  0  0  0  0  0  0  0  0  0  0
    2.2005    3.9514   -0.0000 C   0  0  0  0  0  0  0  0  0  0  0  0
    2.9340    5.2646   -0.0000 C   0  0  0  0  0  0  0  0  0  0  0  0
    2.1768    6.5778   -0.0000 O   0  0  0  0  0  0  0  0  0  0  0  0
    4.4246    5.2764   -0.0000 N   0  0  0  0  0  0  0  0  0  0  0  0
    5.1699    3.9869   -0.0000 C   0  0  0  0  0  0  0  0  0  0  0  0
    5.1699    6.5896   -0.0000 C   0  0  0  0  0  0  0  0  0  0  0  0
    6.6606    3.9987   -0.0000 C   0  0  0  0  0  0  0  0  0  0  0  0
    6.6606    6.6014   -0.0000 C   0  0  0  0  0  0  0  0  0  0  0  0
    7.4059    5.3119   -0.0000 C   0  0  0  0  0  0  0  0  0  0  0  0
    8.8966    5.3237   -0.0000 C   0  0  0  0  0  0  0  0  0  0  0  0
    9.6419    6.6369   -0.0000 C   0  0  0  0  0  0  0  0  0  0  0  0
    9.6419    4.0342   -0.0000 C   0  0  0  0  0  0  0  0  0  0  0  0
   11.1325    6.6488   -0.0000 C   0  0  0  0  0  0  0  0  0  0  0  0
    8.8847    7.9501   -0.0000 C   0  0  0  0  0  0  0  0  0  0  0  0
   11.1325    4.0460   -0.0000 C   0  0  0  0  0  0  0  0  0  0  0  0
   11.8660    5.3592   -0.0000 C   0  0  0  0  0  0  0  0  0  0  0  0
    8.1276    9.2633   -0.0000 F   0  0  0  0  0  0  0  0  0  0  0  0
    7.3704    7.9620   -0.0000 F   0  0  0  0  0  0  0  0  0  0  0  0
    9.6301    9.2633   -0.0000 F   0  0  0  0  0  0  0  0  0  0  0  0
   13.3567    5.3711   -0.0000 C   0  0  0  0  0  0  0  0  0  0  0  0
   14.1020    6.6843   -0.0000 O   0  0  0  0  0  0  0  0  0  0  0  0
   14.1020    4.0815   -0.0000 N   0  0  0  0  0  0  0  0  0  0  0  0
   15.5927    4.0934   -0.0000 C   0  0  0  0  0  0  0  0  0  0  0  0
   16.3262    5.4066   -0.0000 N   0  0  0  0  0  0  0  0  0  0  0  0
   16.3262    2.8038   -0.0000 N   0  0  0  0  0  0  0  0  0  0  0  0
  1  2  1  0  0  0  0
  2  3  2  0  0  0  0
  2  4  1  0  0  0  0
  3  5  1  0  0  0  0
  4  6  2  0  0  0  0
  5  7  2  0  0  0  0
  7  8  1  0  0  0  0
  8  9  2  0  0  0  0
  8 10  1  0  0  0  0
 10 11  1  0  0  0  0
 10 12  1  0  0  0  0
 11 13  1  0  0  0  0
 12 14  1  0  0  0  0
 13 15  1  0  0  0  0
 15 16  1  0  0  0  0
 16 17  2  0  0  0  0
 16 18  1  0  0  0  0
 17 19  1  0  0  0  0
 17 20  1  0  0  0  0
 18 21  2  0  0  0  0
 19 22  2  0  0  0  0
 20 23  1  0  0  0  0
 20 24  1  0  0  0  0
 20 25  1  0  0  0  0
 22 26  1  0  0  0  0
 26 27  2  0  0  0  0
 26 28  1  0  0  0  0
 28 29  1  0  0  0  0
 29 30  2  0  0  0  0
 29 31  1  0  0  0  0
  6  7  1  0  0  0  0
 14 15  1  0  0  0  0
 21 22  1  0  0  0  0
M  END
>  <MolRegNo>
1430129

>  <m>
=

>  <Value>
6000

>  <Unit>
nM

>  <Type>
IC50

>  <pValue>
5.22

>  <Ligand Efficiency>
0

>  <Binding Efficiency>
0

>  <Surface Efficiency>
0

>  <Assay Index>
691778

>  <Assay Category>


>  <Assay Organism>
Homo sapiens

>  <Target ID>
17045

>  <Target Name>
Cytochrome P450 3A4

>  <Target Organism>
Homo sapiens

>  <Target Description>
Target is a single protein chain

>  <Sequence Accession>
P08684

>  <Reference>
J Med Chem 55 (16), 7114-7140 (2012)

>  <Pubmed ID>
22803959

>  <DOI>
10.1021/jm300601d

$$$$
1377693
Actelion Java MolfileCreator 1.0

 29 31  0  0  0  0  0  0  0  0999 V2000
    0.0000   -0.0000   -0.0000 F   0  0  0  0  0  0  0  0  0  0  0  0
    1.2855    0.7737   -0.0000 C   0  0  0  0  0  0  0  0  0  0  0  0
    2.0115    2.0829   -0.0000 F   0  0  0  0  0  0  0  0  0  0  0  0
    0.5118    2.0829   -0.0000 F   0  0  0  0  0  0  0  0  0  0  0  0
    2.5710    0.0238   -0.0000 C   0  0  0  0  0  0  0  0  0  0  0  0
    2.5710   -1.4640   -0.0000 C   0  0  0  0  0  0  0  0  0  0  0  0
    3.8564    0.7975   -0.0000 C   0  0  0  0  0  0  0  0  0  0  0  0
    1.2498   -2.1901   -0.0000 N   0  0  0  0  0  0  0  0  0  0  0  0
    3.8564   -2.1901   -0.0000 C   0  0  0  0  0  0  0  0  0  0  0  0
    5.1538    0.0714   -0.0000 C   0  0  0  0  0  0  0  0  0  0  0  0
   -0.0595   -1.4402   -0.0000 C   0  0  0  0  0  0  0  0  0  0  0  0
    1.2379   -3.6898   -0.0000 C   0  0  0  0  0  0  0  0  0  0  0  0
    5.1419   -1.4402   -0.0000 C   0  0  0  0  0  0  0  0  0  0  0  0
    6.4393    0.8213   -0.0000 C   0  0  0  0  0  0  0  0  0  0  0  0
   -1.3569   -2.1663   -0.0000 C   0  0  0  0  0  0  0  0  0  0  0  0
   -0.0714   -4.4158   -0.0000 C   0  0  0  0  0  0  0  0  0  0  0  0
    6.4274    2.3448   -0.0000 O   0  0  0  0  0  0  0  0  0  0  0  0
    7.7248    0.0952   -0.0000 N   0  0  0  0  0  0  0  0  0  0  0  0
   -1.3688   -3.6660   -0.0000 N   0  0  0  0  0  0  0  0  0  0  0  0
    9.0102    0.8451   -0.0000 C   0  0  0  0  0  0  0  0  0  0  0  0
   -2.6900   -4.3920   -0.0000 C   0  0  0  0  0  0  0  0  0  0  0  0
    8.9983    2.3686   -0.0000 N   0  0  0  0  0  0  0  0  0  0  0  0
   10.2957    0.1190   -0.0000 N   0  0  0  0  0  0  0  0  0  0  0  0
   -2.7019   -5.8799   -0.0000 O   0  0  0  0  0  0  0  0  0  0  0  0
   -3.9993   -3.6303   -0.0000 C   0  0  0  0  0  0  0  0  0  0  0  0
   -5.2252   -4.4992   -0.0000 N   0  0  0  0  0  0  0  0  0  0  0  0
   -4.4754   -2.1901   -0.0000 C   0  0  0  0  0  0  0  0  0  0  0  0
   -6.4512   -3.6065   -0.0000 C   0  0  0  0  0  0  0  0  0  0  0  0
   -5.9989   -2.1782   -0.0000 C   0  0  0  0  0  0  0  0  0  0  0  0
  1  2  1  0  0  0  0
  2  3  1  0  0  0  0
  2  4  1  0  0  0  0
  2  5  1  0  0  0  0
  5  6  2  0  0  0  0
  5  7  1  0  0  0  0
  6  8  1  0  0  0  0
  6  9  1  0  0  0  0
  7 10  2  0  0  0  0
  8 11  1  0  0  0  0
  8 12  1  0  0  0  0
  9 13  2  0  0  0  0
 10 14  1  0  0  0  0
 11 15  1  0  0  0  0
 12 16  1  0  0  0  0
 14 17  2  0  0  0  0
 14 18  1  0  0  0  0
 15 19  1  0  0  0  0
 18 20  1  0  0  0  0
 19 21  1  0  0  0  0
 20 22  2  0  0  0  0
 20 23  1  0  0  0  0
 21 24  2  0  0  0  0
 21 25  1  0  0  0  0
 25 26  1  0  0  0  0
 25 27  2  0  0  0  0
 26 28  1  0  0  0  0
 27 29  1  0  0  0  0
 10 13  1  0  0  0  0
 16 19  1  0  0  0  0
 28 29  2  0  0  0  0
M  END
>  <MolRegNo>
1377693

>  <m>
=

>  <Value>
7000

>  <Unit>
nM

>  <Type>
IC50

>  <pValue>
5.16

>  <Ligand Efficiency>
0

>  <Binding Efficiency>
0

>  <Surface Efficiency>
0

>  <Assay Index>
691778

>  <Assay Category>


>  <Assay Organism>
Homo sapiens

>  <Target ID>
17045

>  <Target Name>
Cytochrome P450 3A4

>  <Target Organism>
Homo sapiens

>  <Target Description>
Target is a single protein chain

>  <Sequence Accession>
P08684

>  <Reference>
J Med Chem 55 (16), 7114-7140 (2012)

>  <Pubmed ID>
22803959

>  <DOI>
10.1021/jm300601d

$$$$
1438374
Actelion Java MolfileCreator 1.0

 34 37  0  0  0  0  0  0  0  0999 V2000
    0.0000   -0.0000   -0.0000 Cl  0  0  0  0  0  0  0  0  0  0  0  0
   -0.7703   -1.2798   -0.0000 C   0  0  0  0  0  0  0  0  0  0  0  0
   -0.0474   -2.5715   -0.0000 C   0  0  0  0  0  0  0  0  0  0  0  0
   -2.2871   -1.2561   -0.0000 C   0  0  0  0  0  0  0  0  0  0  0  0
   -0.8177   -3.8513   -0.0000 C   0  0  0  0  0  0  0  0  0  0  0  0
   -3.0455   -2.5359   -0.0000 C   0  0  0  0  0  0  0  0  0  0  0  0
   -2.3345   -3.8276   -0.0000 C   0  0  0  0  0  0  0  0  0  0  0  0
   -3.1047   -5.1074   -0.0000 N   0  0  0  0  0  0  0  0  0  0  0  0
   -4.5741   -5.4274   -0.0000 C   0  0  0  0  0  0  0  0  0  0  0  0
   -5.6051   -4.3134   -0.0000 O   0  0  0  0  0  0  0  0  0  0  0  0
   -5.0244   -6.8494   -0.0000 C   0  0  0  0  0  0  0  0  0  0  0  0
   -6.4465   -7.3234   -0.0000 C   0  0  0  0  0  0  0  0  0  0  0  0
   -4.1357   -8.0344   -0.0000 C   0  0  0  0  0  0  0  0  0  0  0  0
   -7.6789   -6.4583   -0.0000 C   0  0  0  0  0  0  0  0  0  0  0  0
   -6.4346   -8.8046   -0.0000 C   0  0  0  0  0  0  0  0  0  0  0  0
   -5.0126   -9.2431   -0.0000 N   0  0  0  0  0  0  0  0  0  0  0  0
   -8.9942   -7.2049   -0.0000 C   0  0  0  0  0  0  0  0  0  0  0  0
   -7.7026   -4.9533   -0.0000 C   0  0  0  0  0  0  0  0  0  0  0  0
   -4.5386  -10.6414   -0.0000 C   0  0  0  0  0  0  0  0  0  0  0  0
  -10.2978   -6.4465   -0.0000 C   0  0  0  0  0  0  0  0  0  0  0  0
   -9.0061   -4.2068   -0.0000 C   0  0  0  0  0  0  0  0  0  0  0  0
  -10.3096   -4.9415   -0.0000 C   0  0  0  0  0  0  0  0  0  0  0  0
  -11.6131   -4.1831   -0.0000 C   0  0  0  0  0  0  0  0  0  0  0  0
  -11.6250   -2.6781   -0.0000 C   0  0  0  0  0  0  0  0  0  0  0  0
  -12.9285   -1.9197   -0.0000 C   0  0  0  0  0  0  0  0  0  0  0  0
  -12.9403   -0.4148   -0.0000 O   0  0  0  0  0  0  0  0  0  0  0  0
  -14.2320   -2.6544   -0.0000 N   0  0  0  0  0  0  0  0  0  0  0  0
  -15.5355   -1.8960   -0.0000 C   0  0  0  0  0  0  0  0  0  0  0  0
  -16.8509   -2.6307   -0.0000 C   0  0  0  0  0  0  0  0  0  0  0  0
  -15.5474   -0.3792   -0.0000 C   0  0  0  0  0  0  0  0  0  0  0  0
  -16.8627   -4.1120   -0.0000 N   0  0  0  0  0  0  0  0  0  0  0  0
  -18.1544   -1.8723   -0.0000 C   0  0  0  0  0  0  0  0  0  0  0  0
  -16.8509    0.3792   -0.0000 C   0  0  0  0  0  0  0  0  0  0  0  0
  -18.1662   -0.3555   -0.0000 C   0  0  0  0  0  0  0  0  0  0  0  0
  1  2  1  0  0  0  0
  2  3  2  0  0  0  0
  2  4  1  0  0  0  0
  3  5  1  0  0  0  0
  4  6  2  0  0  0  0
  5  7  2  0  0  0  0
  7  8  1  0  0  0  0
  8  9  1  0  0  0  0
  9 10  2  0  0  0  0
 11  9  1  1  0  0  0
 11 12  1  0  0  0  0
 11 13  1  0  0  0  0
 12 14  1  6  0  0  0
 12 15  1  0  0  0  0
 13 16  1  0  0  0  0
 14 17  2  0  0  0  0
 14 18  1  0  0  0  0
 16 19  1  0  0  0  0
 17 20  1  0  0  0  0
 18 21  2  0  0  0  0
 20 22  2  0  0  0  0
 22 23  1  0  0  0  0
 23 24  2  0  0  0  0
 24 25  1  0  0  0  0
 25 26  2  0  0  0  0
 25 27  1  0  0  0  0
 27 28  1  0  0  0  0
 28 29  2  0  0  0  0
 28 30  1  0  0  0  0
 29 31  1  0  0  0  0
 29 32  1  0  0  0  0
 30 33  2  0  0  0  0
 32 34  2  0  0  0  0
  6  7  1  0  0  0  0
 15 16  1  0  0  0  0
 21 22  1  0  0  0  0
 33 34  1  0  0  0  0
M  END
>  <MolRegNo>
1438374

>  <m>
=

>  <Value>
21000

>  <Unit>
nM

>  <Type>
IC50

>  <pValue>
4.68

>  <Ligand Efficiency>
0

>  <Binding Efficiency>
0

>  <Surface Efficiency>
0

>  <Assay Index>
698406

>  <Assay Category>


>  <Assay Organism>
Homo sapiens

>  <Target ID>
17045

>  <Target Name>
Cytochrome P450 3A4

>  <Target Organism>
Homo sapiens

>  <Target Description>
Target is a single protein chain

>  <Sequence Accession>
P08684

>  <Reference>
J Med Chem 55 (20), 8903-8925 (2012)

>  <Pubmed ID>
23061376

>  <DOI>
10.1021/jm3011838

$$$$
1438368
Actelion Java MolfileCreator 1.0

 35 38  0  0  0  0  0  0  0  0999 V2000
    0.0000   -0.0000   -0.0000 Cl  0  0  0  0  0  0  0  0  0  0  0  0
   -0.7704   -1.2801   -0.0000 C   0  0  0  0  0  0  0  0  0  0  0  0
   -0.0474   -2.5721   -0.0000 C   0  0  0  0  0  0  0  0  0  0  0  0
   -2.2876   -1.2564   -0.0000 C   0  0  0  0  0  0  0  0  0  0  0  0
   -0.8179   -3.8522   -0.0000 C   0  0  0  0  0  0  0  0  0  0  0  0
   -3.0462   -2.5365   -0.0000 C   0  0  0  0  0  0  0  0  0  0  0  0
   -2.3350   -3.8285   -0.0000 C   0  0  0  0  0  0  0  0  0  0  0  0
   -3.1055   -5.1086   -0.0000 N   0  0  0  0  0  0  0  0  0  0  0  0
   -4.5753   -5.4287   -0.0000 C   0  0  0  0  0  0  0  0  0  0  0  0
   -5.6065   -4.3145   -0.0000 O   0  0  0  0  0  0  0  0  0  0  0  0
   -5.0257   -6.8510   -0.0000 C   0  0  0  0  0  0  0  0  0  0  0  0
   -6.4480   -7.3252   -0.0000 C   0  0  0  0  0  0  0  0  0  0  0  0
   -4.1367   -8.0363   -0.0000 C   0  0  0  0  0  0  0  0  0  0  0  0
   -7.6807   -6.4599   -0.0000 C   0  0  0  0  0  0  0  0  0  0  0  0
   -6.4362   -8.8068   -0.0000 C   0  0  0  0  0  0  0  0  0  0  0  0
   -5.0138   -9.2453   -0.0000 N   0  0  0  0  0  0  0  0  0  0  0  0
   -8.9964   -7.2066   -0.0000 C   0  0  0  0  0  0  0  0  0  0  0  0
   -7.7045   -4.9546   -0.0000 C   0  0  0  0  0  0  0  0  0  0  0  0
   -5.0138  -10.7270   -0.0000 C   0  0  0  0  0  0  0  0  0  0  0  0
   -9.0083   -8.6883   -0.0000 F   0  0  0  0  0  0  0  0  0  0  0  0
  -10.3003   -6.4480   -0.0000 C   0  0  0  0  0  0  0  0  0  0  0  0
   -9.0083   -4.2078   -0.0000 C   0  0  0  0  0  0  0  0  0  0  0  0
  -10.3121   -4.9427   -0.0000 C   0  0  0  0  0  0  0  0  0  0  0  0
  -11.6159   -4.1841   -0.0000 C   0  0  0  0  0  0  0  0  0  0  0  0
  -11.6278   -2.6788   -0.0000 C   0  0  0  0  0  0  0  0  0  0  0  0
  -12.9316   -1.9202   -0.0000 C   0  0  0  0  0  0  0  0  0  0  0  0
  -12.9435   -0.4149   -0.0000 O   0  0  0  0  0  0  0  0  0  0  0  0
  -14.2355   -2.6551   -0.0000 N   0  0  0  0  0  0  0  0  0  0  0  0
  -15.5393   -1.8965   -0.0000 C   0  0  0  0  0  0  0  0  0  0  0  0
  -16.8550   -2.6314   -0.0000 C   0  0  0  0  0  0  0  0  0  0  0  0
  -15.5511   -0.3793   -0.0000 C   0  0  0  0  0  0  0  0  0  0  0  0
  -16.8668   -4.1130   -0.0000 N   0  0  0  0  0  0  0  0  0  0  0  0
  -18.1588   -1.8728   -0.0000 C   0  0  0  0  0  0  0  0  0  0  0  0
  -16.8550    0.3793   -0.0000 C   0  0  0  0  0  0  0  0  0  0  0  0
  -18.1707   -0.3556   -0.0000 C   0  0  0  0  0  0  0  0  0  0  0  0
  1  2  1  0  0  0  0
  2  3  2  0  0  0  0
  2  4  1  0  0  0  0
  3  5  1  0  0  0  0
  4  6  2  0  0  0  0
  5  7  2  0  0  0  0
  7  8  1  0  0  0  0
  8  9  1  0  0  0  0
  9 10  2  0  0  0  0
 11  9  1  1  0  0  0
 11 12  1  0  0  0  0
 11 13  1  0  0  0  0
 12 14  1  6  0  0  0
 12 15  1  0  0  0  0
 13 16  1  0  0  0  0
 14 17  2  0  0  0  0
 14 18  1  0  0  0  0
 16 19  1  0  0  0  0
 17 20  1  0  0  0  0
 17 21  1  0  0  0  0
 18 22  2  0  0  0  0
 21 23  2  0  0  0  0
 23 24  1  0  0  0  0
 24 25  2  0  0  0  0
 25 26  1  0  0  0  0
 26 27  2  0  0  0  0
 26 28  1  0  0  0  0
 28 29  1  0  0  0  0
 29 30  2  0  0  0  0
 29 31  1  0  0  0  0
 30 32  1  0  0  0  0
 30 33  1  0  0  0  0
 31 34  2  0  0  0  0
 33 35  2  0  0  0  0
  6  7  1  0  0  0  0
 15 16  1  0  0  0  0
 22 23  1  0  0  0  0
 34 35  1  0  0  0  0
M  END
>  <MolRegNo>
1438368

>  <m>
=

>  <Value>
4000

>  <Unit>
nM

>  <Type>
IC50

>  <pValue>
5.4

>  <Ligand Efficiency>
0

>  <Binding Efficiency>
0

>  <Surface Efficiency>
0

>  <Assay Index>
698406

>  <Assay Category>


>  <Assay Organism>
Homo sapiens

>  <Target ID>
17045

>  <Target Name>
Cytochrome P450 3A4

>  <Target Organism>
Homo sapiens

>  <Target Description>
Target is a single protein chain

>  <Sequence Accession>
P08684

>  <Reference>
J Med Chem 55 (20), 8903-8925 (2012)

>  <Pubmed ID>
23061376

>  <DOI>
10.1021/jm3011838

$$$$
1439016
Actelion Java MolfileCreator 1.0

 38 41  0  0  0  0  0  0  0  0999 V2000
    0.0000   -0.0000   -0.0000 Cl  0  0  0  0  0  0  0  0  0  0  0  0
   -0.7715   -1.2819   -0.0000 C   0  0  0  0  0  0  0  0  0  0  0  0
   -0.0475   -2.5757   -0.0000 C   0  0  0  0  0  0  0  0  0  0  0  0
   -2.2908   -1.2701   -0.0000 C   0  0  0  0  0  0  0  0  0  0  0  0
   -0.8190   -3.8576   -0.0000 C   0  0  0  0  0  0  0  0  0  0  0  0
   -3.0505   -2.5520   -0.0000 C   0  0  0  0  0  0  0  0  0  0  0  0
   -2.3383   -3.8339   -0.0000 C   0  0  0  0  0  0  0  0  0  0  0  0
   -3.1098   -5.1158   -0.0000 N   0  0  0  0  0  0  0  0  0  0  0  0
   -4.5817   -5.4363   -0.0000 C   0  0  0  0  0  0  0  0  0  0  0  0
   -5.6143   -4.3324   -0.0000 O   0  0  0  0  0  0  0  0  0  0  0  0
   -5.0327   -6.8606   -0.0000 C   0  0  0  0  0  0  0  0  0  0  0  0
   -6.4571   -7.3354   -0.0000 C   0  0  0  0  0  0  0  0  0  0  0  0
   -4.1425   -8.0476   -0.0000 C   0  0  0  0  0  0  0  0  0  0  0  0
   -7.6915   -6.4689   -0.0000 C   0  0  0  0  0  0  0  0  0  0  0  0
   -6.4452   -8.8191   -0.0000 C   0  0  0  0  0  0  0  0  0  0  0  0
   -5.0209   -9.2583   -0.0000 N   0  0  0  0  0  0  0  0  0  0  0  0
   -8.9972   -7.2049   -0.0000 C   0  0  0  0  0  0  0  0  0  0  0  0
   -7.7153   -4.9496   -0.0000 C   0  0  0  0  0  0  0  0  0  0  0  0
   -4.3205  -10.5640   -0.0000 C   0  0  0  0  0  0  0  0  0  0  0  0
  -10.3028   -6.4452   -0.0000 C   0  0  0  0  0  0  0  0  0  0  0  0
   -9.0209   -4.2018   -0.0000 C   0  0  0  0  0  0  0  0  0  0  0  0
   -2.8368  -10.5877   -0.0000 C   0  0  0  0  0  0  0  0  0  0  0  0
  -10.3147   -4.9378   -0.0000 C   0  0  0  0  0  0  0  0  0  0  0  0
   -2.1365  -11.8934   -0.0000 O   0  0  0  0  0  0  0  0  0  0  0  0
   -1.4837   -9.9467   -0.0000 C   0  0  0  0  0  0  0  0  0  0  0  0
   -2.8606   -9.0803   -0.0000 C   0  0  0  0  0  0  0  0  0  0  0  0
  -11.6204   -4.1781   -0.0000 C   0  0  0  0  0  0  0  0  0  0  0  0
  -12.9260   -4.9140   -0.0000 C   0  0  0  0  0  0  0  0  0  0  0  0
  -14.2317   -4.1544   -0.0000 C   0  0  0  0  0  0  0  0  0  0  0  0
  -14.2436   -2.6469   -0.0000 O   0  0  0  0  0  0  0  0  0  0  0  0
  -15.5373   -4.8903   -0.0000 N   0  0  0  0  0  0  0  0  0  0  0  0
  -16.8430   -4.1306   -0.0000 C   0  0  0  0  0  0  0  0  0  0  0  0
  -18.1605   -4.8665   -0.0000 C   0  0  0  0  0  0  0  0  0  0  0  0
  -16.8667   -2.6113   -0.0000 C   0  0  0  0  0  0  0  0  0  0  0  0
  -18.1724   -6.3503   -0.0000 N   0  0  0  0  0  0  0  0  0  0  0  0
  -19.4662   -4.1069   -0.0000 C   0  0  0  0  0  0  0  0  0  0  0  0
  -18.1724   -1.8635   -0.0000 C   0  0  0  0  0  0  0  0  0  0  0  0
  -19.4781   -2.5876   -0.0000 C   0  0  0  0  0  0  0  0  0  0  0  0
  1  2  1  0  0  0  0
  2  3  2  0  0  0  0
  2  4  1  0  0  0  0
  3  5  1  0  0  0  0
  4  6  2  0  0  0  0
  5  7  2  0  0  0  0
  7  8  1  0  0  0  0
  8  9  1  0  0  0  0
  9 10  2  0  0  0  0
 11  9  1  1  0  0  0
 11 12  1  0  0  0  0
 11 13  1  0  0  0  0
 12 14  1  6  0  0  0
 12 15  1  0  0  0  0
 13 16  1  0  0  0  0
 14 17  2  0  0  0  0
 14 18  1  0  0  0  0
 16 19  1  0  0  0  0
 17 20  1  0  0  0  0
 18 21  2  0  0  0  0
 19 22  1  0  0  0  0
 20 23  2  0  0  0  0
 22 24  1  0  0  0  0
 22 25  1  0  0  0  0
 22 26  1  0  0  0  0
 23 27  1  0  0  0  0
 27 28  2  0  0  0  0
 28 29  1  0  0  0  0
 29 30  2  0  0  0  0
 29 31  1  0  0  0  0
 31 32  1  0  0  0  0
 32 33  2  0  0  0  0
 32 34  1  0  0  0  0
 33 35  1  0  0  0  0
 33 36  1  0  0  0  0
 34 37  2  0  0  0  0
 36 38  2  0  0  0  0
  6  7  1  0  0  0  0
 15 16  1  0  0  0  0
 21 23  1  0  0  0  0
 37 38  1  0  0  0  0
M  END
>  <MolRegNo>
1439016

>  <m>
=

>  <Value>
3000

>  <Unit>
nM

>  <Type>
IC50

>  <pValue>
5.52

>  <Ligand Efficiency>
0

>  <Binding Efficiency>
0

>  <Surface Efficiency>
0

>  <Assay Index>
698406

>  <Assay Category>


>  <Assay Organism>
Homo sapiens

>  <Target ID>
17045

>  <Target Name>
Cytochrome P450 3A4

>  <Target Organism>
Homo sapiens

>  <Target Description>
Target is a single protein chain

>  <Sequence Accession>
P08684

>  <Reference>
J Med Chem 55 (20), 8903-8925 (2012)

>  <Pubmed ID>
23061376

>  <DOI>
10.1021/jm3011838

$$$$
1439014
Actelion Java MolfileCreator 1.0

 36 39  0  0  0  0  0  0  0  0999 V2000
    0.0000   -0.0000   -0.0000 Cl  0  0  0  0  0  0  0  0  0  0  0  0
   -0.7710   -1.2810   -0.0000 C   0  0  0  0  0  0  0  0  0  0  0  0
   -0.0474   -2.5738   -0.0000 C   0  0  0  0  0  0  0  0  0  0  0  0
   -2.2891   -1.2573   -0.0000 C   0  0  0  0  0  0  0  0  0  0  0  0
   -0.8184   -3.8548   -0.0000 C   0  0  0  0  0  0  0  0  0  0  0  0
   -3.0482   -2.5382   -0.0000 C   0  0  0  0  0  0  0  0  0  0  0  0
   -2.3366   -3.8311   -0.0000 C   0  0  0  0  0  0  0  0  0  0  0  0
   -3.1075   -5.1120   -0.0000 N   0  0  0  0  0  0  0  0  0  0  0  0
   -4.5783   -5.4323   -0.0000 C   0  0  0  0  0  0  0  0  0  0  0  0
   -5.6102   -4.3174   -0.0000 O   0  0  0  0  0  0  0  0  0  0  0  0
   -5.0290   -6.8556   -0.0000 C   0  0  0  0  0  0  0  0  0  0  0  0
   -6.4523   -7.3300   -0.0000 C   0  0  0  0  0  0  0  0  0  0  0  0
   -4.1394   -8.0417   -0.0000 C   0  0  0  0  0  0  0  0  0  0  0  0
   -7.6858   -6.4642   -0.0000 C   0  0  0  0  0  0  0  0  0  0  0  0
   -6.4404   -8.8126   -0.0000 C   0  0  0  0  0  0  0  0  0  0  0  0
   -5.0171   -9.2515   -0.0000 N   0  0  0  0  0  0  0  0  0  0  0  0
   -8.9905   -7.1995   -0.0000 C   0  0  0  0  0  0  0  0  0  0  0  0
   -7.7096   -4.9460   -0.0000 C   0  0  0  0  0  0  0  0  0  0  0  0
   -4.5427  -10.6510   -0.0000 C   0  0  0  0  0  0  0  0  0  0  0  0
  -10.2952   -6.4404   -0.0000 C   0  0  0  0  0  0  0  0  0  0  0  0
   -9.0143   -4.1987   -0.0000 C   0  0  0  0  0  0  0  0  0  0  0  0
   -5.5390  -11.7660   -0.0000 C   0  0  0  0  0  0  0  0  0  0  0  0
  -10.3071   -4.9341   -0.0000 C   0  0  0  0  0  0  0  0  0  0  0  0
   -5.0646  -13.1656   -0.0000 O   0  0  0  0  0  0  0  0  0  0  0  0
  -11.6118   -4.1750   -0.0000 C   0  0  0  0  0  0  0  0  0  0  0  0
  -12.9165   -4.9104   -0.0000 C   0  0  0  0  0  0  0  0  0  0  0  0
  -14.2212   -4.1513   -0.0000 C   0  0  0  0  0  0  0  0  0  0  0  0
  -14.2330   -2.6450   -0.0000 O   0  0  0  0  0  0  0  0  0  0  0  0
  -15.5259   -4.8867   -0.0000 N   0  0  0  0  0  0  0  0  0  0  0  0
  -16.8306   -4.1276   -0.0000 C   0  0  0  0  0  0  0  0  0  0  0  0
  -18.1471   -4.8630   -0.0000 C   0  0  0  0  0  0  0  0  0  0  0  0
  -16.8424   -2.6094   -0.0000 C   0  0  0  0  0  0  0  0  0  0  0  0
  -18.1590   -6.3456   -0.0000 N   0  0  0  0  0  0  0  0  0  0  0  0
  -19.4518   -4.1039   -0.0000 C   0  0  0  0  0  0  0  0  0  0  0  0
  -18.1471   -1.8503   -0.0000 C   0  0  0  0  0  0  0  0  0  0  0  0
  -19.4637   -2.5857   -0.0000 C   0  0  0  0  0  0  0  0  0  0  0  0
  1  2  1  0  0  0  0
  2  3  2  0  0  0  0
  2  4  1  0  0  0  0
  3  5  1  0  0  0  0
  4  6  2  0  0  0  0
  5  7  2  0  0  0  0
  7  8  1  0  0  0  0
  8  9  1  0  0  0  0
  9 10  2  0  0  0  0
 11  9  1  1  0  0  0
 11 12  1  0  0  0  0
 11 13  1  0  0  0  0
 12 14  1  6  0  0  0
 12 15  1  0  0  0  0
 13 16  1  0  0  0  0
 14 17  2  0  0  0  0
 14 18  1  0  0  0  0
 16 19  1  0  0  0  0
 17 20  1  0  0  0  0
 18 21  2  0  0  0  0
 19 22  1  0  0  0  0
 20 23  2  0  0  0  0
 22 24  1  0  0  0  0
 23 25  1  0  0  0  0
 25 26  2  0  0  0  0
 26 27  1  0  0  0  0
 27 28  2  0  0  0  0
 27 29  1  0  0  0  0
 29 30  1  0  0  0  0
 30 31  2  0  0  0  0
 30 32  1  0  0  0  0
 31 33  1  0  0  0  0
 31 34  1  0  0  0  0
 32 35  2  0  0  0  0
 34 36  2  0  0  0  0
  6  7  1  0  0  0  0
 15 16  1  0  0  0  0
 21 23  1  0  0  0  0
 35 36  1  0  0  0  0
M  END
>  <MolRegNo>
1439014

>  <m>
=

>  <Value>
2000

>  <Unit>
nM

>  <Type>
IC50

>  <pValue>
5.7

>  <Ligand Efficiency>
0

>  <Binding Efficiency>
0

>  <Surface Efficiency>
0

>  <Assay Index>
698406

>  <Assay Category>


>  <Assay Organism>
Homo sapiens

>  <Target ID>
17045

>  <Target Name>
Cytochrome P450 3A4

>  <Target Organism>
Homo sapiens

>  <Target Description>
Target is a single protein chain

>  <Sequence Accession>
P08684

>  <Reference>
J Med Chem 55 (20), 8903-8925 (2012)

>  <Pubmed ID>
23061376

>  <DOI>
10.1021/jm3011838

$$$$
1442710
Actelion Java MolfileCreator 1.0

 40 44  0  0  0  0  0  0  0  0999 V2000
    0.0000   -0.0000   -0.0000 O   0  0  0  0  0  0  0  0  0  0  0  0
   -1.3133   -0.7402   -0.0000 C   0  0  0  0  0  0  0  0  0  0  0  0
   -1.3253   -2.2327   -0.0000 N   0  0  0  0  0  0  0  0  0  0  0  0
   -2.6267    0.0239   -0.0000 C   0  0  0  0  0  0  0  0  0  0  0  0
   -0.0358   -2.9729   -0.0000 C   0  0  0  0  0  0  0  0  0  0  0  0
   -3.9520   -0.7164   -0.0000 O   0  0  0  0  0  0  0  0  0  0  0  0
   -2.6386    1.5521   -0.0000 C   0  0  0  0  0  0  0  0  0  0  0  0
    1.2536   -2.2088   -0.0000 C   0  0  0  0  0  0  0  0  0  0  0  0
   -0.0478   -4.4654   -0.0000 C   0  0  0  0  0  0  0  0  0  0  0  0
   -5.2772    0.0597   -0.0000 C   0  0  0  0  0  0  0  0  0  0  0  0
    1.2417   -0.6925   -0.0000 O   0  0  0  0  0  0  0  0  0  0  0  0
    2.5312   -2.9490   -0.0000 C   0  0  0  0  0  0  0  0  0  0  0  0
   -1.3611   -5.1937   -0.0000 C   0  0  0  0  0  0  0  0  0  0  0  0
    3.8206   -2.1969   -0.0000 N   0  0  0  0  0  0  0  0  0  0  0  0
   -2.6744   -4.4295   -0.0000 C   0  0  0  0  0  0  0  0  0  0  0  0
   -1.3730   -6.6861   -0.0000 C   0  0  0  0  0  0  0  0  0  0  0  0
    5.1101   -2.9371   -0.0000 C   0  0  0  0  0  0  0  0  0  0  0  0
   -3.9878   -5.1578   -0.0000 C   0  0  0  0  0  0  0  0  0  0  0  0
   -2.6864   -7.4144   -0.0000 C   0  0  0  0  0  0  0  0  0  0  0  0
    5.0981   -4.4295   -0.0000 C   0  0  0  0  0  0  0  0  0  0  0  0
    6.3995   -2.1849   -0.0000 C   0  0  0  0  0  0  0  0  0  0  0  0
   -5.4325   -4.6803   -0.0000 O   0  0  0  0  0  0  0  0  0  0  0  0
   -3.9997   -6.6503   -0.0000 C   0  0  0  0  0  0  0  0  0  0  0  0
    6.3876   -5.1698   -0.0000 C   0  0  0  0  0  0  0  0  0  0  0  0
    3.7848   -5.1698   -0.0000 C   0  0  0  0  0  0  0  0  0  0  0  0
    7.6771   -2.9252   -0.0000 C   0  0  0  0  0  0  0  0  0  0  0  0
   -6.3279   -5.8862   -0.0000 C   0  0  0  0  0  0  0  0  0  0  0  0
   -5.4444   -7.1040   -0.0000 O   0  0  0  0  0  0  0  0  0  0  0  0
    7.6771   -4.4176   -0.0000 O   0  0  0  0  0  0  0  0  0  0  0  0
    6.3757   -6.6622   -0.0000 N   0  0  0  0  0  0  0  0  0  0  0  0
    3.7729   -6.6622   -0.0000 C   0  0  0  0  0  0  0  0  0  0  0  0
    8.0591   -1.4686   -0.0000 C   0  0  0  0  0  0  0  0  0  0  0  0
    9.1217   -3.3072   -0.0000 C   0  0  0  0  0  0  0  0  0  0  0  0
    5.0623   -7.3905   -0.0000 C   0  0  0  0  0  0  0  0  0  0  0  0
    2.4595   -7.3905   -0.0000 C   0  0  0  0  0  0  0  0  0  0  0  0
    9.4919   -1.8506   -0.0000 C   0  0  0  0  0  0  0  0  0  0  0  0
    2.4476   -8.8830   -0.0000 C   0  0  0  0  0  0  0  0  0  0  0  0
    3.7370   -9.6232   -0.0000 C   0  0  0  0  0  0  0  0  0  0  0  0
    2.4356  -10.3754   -0.0000 C   0  0  0  0  0  0  0  0  0  0  0  0
    1.1342   -9.6232   -0.0000 C   0  0  0  0  0  0  0  0  0  0  0  0
  1  2  2  0  0  0  0
  2  3  1  0  0  0  0
  2  4  1  0  0  0  0
  5  3  1  6  0  0  0
  4  6  1  6  0  0  0
  4  7  1  0  0  0  0
  5  8  1  0  0  0  0
  5  9  1  0  0  0  0
  6 10  1  0  0  0  0
  8 11  1  6  0  0  0
  8 12  1  0  0  0  0
  9 13  1  0  0  0  0
 12 14  1  0  0  0  0
 13 15  2  0  0  0  0
 13 16  1  0  0  0  0
 17 14  1  1  0  0  0
 15 18  1  0  0  0  0
 16 19  2  0  0  0  0
 17 20  1  0  0  0  0
 17 21  1  0  0  0  0
 18 22  1  0  0  0  0
 18 23  2  0  0  0  0
 20 24  2  0  0  0  0
 20 25  1  0  0  0  0
 21 26  1  0  0  0  0
 22 27  1  0  0  0  0
 23 28  1  0  0  0  0
 24 29  1  0  0  0  0
 24 30  1  0  0  0  0
 25 31  2  0  0  0  0
 26 32  1  0  0  0  0
 26 33  1  0  0  0  0
 30 34  2  0  0  0  0
 31 35  1  0  0  0  0
 32 36  1  0  0  0  0
 35 37  1  0  0  0  0
 37 38  1  0  0  0  0
 37 39  1  0  0  0  0
 37 40  1  0  0  0  0
 19 23  1  0  0  0  0
 26 29  1  0  0  0  0
 27 28  1  0  0  0  0
 31 34  1  0  0  0  0
 33 36  1  0  0  0  0
M  END
>  <MolRegNo>
1442710

>  <m>
=

>  <Value>
50

>  <Unit>
nM

>  <Type>
IC50

>  <pValue>
7.3

>  <Ligand Efficiency>
0

>  <Binding Efficiency>
0

>  <Surface Efficiency>
0

>  <Assay Index>
696492

>  <Assay Category>


>  <Assay Organism>
Homo sapiens

>  <Target ID>
17045

>  <Target Name>
Cytochrome P450 3A4

>  <Target Organism>
Homo sapiens

>  <Target Description>
Target is a single protein chain

>  <Sequence Accession>
P08684

>  <Reference>
J Med Chem 55 (21), 9025-9044 (2012)

>  <Pubmed ID>
22468684

>  <DOI>
10.1021/jm300118s

$$$$
1442729
Actelion Java MolfileCreator 1.0

 38 41  0  0  0  0  0  0  0  0999 V2000
    0.0000   -0.0000   -0.0000 O   0  0  0  0  0  0  0  0  0  0  0  0
   -1.3135   -0.7403   -0.0000 C   0  0  0  0  0  0  0  0  0  0  0  0
   -1.3255   -2.2330   -0.0000 N   0  0  0  0  0  0  0  0  0  0  0  0
   -2.6270    0.0239   -0.0000 C   0  0  0  0  0  0  0  0  0  0  0  0
   -0.0358   -2.9733   -0.0000 C   0  0  0  0  0  0  0  0  0  0  0  0
   -3.9406   -0.7165   -0.0000 O   0  0  0  0  0  0  0  0  0  0  0  0
    1.2538   -2.2091   -0.0000 C   0  0  0  0  0  0  0  0  0  0  0  0
   -0.0478   -4.4660   -0.0000 C   0  0  0  0  0  0  0  0  0  0  0  0
   -5.2541    0.0478   -0.0000 C   0  0  0  0  0  0  0  0  0  0  0  0
    1.2419   -0.6926   -0.0000 O   0  0  0  0  0  0  0  0  0  0  0  0
    2.5435   -2.9494   -0.0000 C   0  0  0  0  0  0  0  0  0  0  0  0
   -1.3613   -5.2063   -0.0000 C   0  0  0  0  0  0  0  0  0  0  0  0
    3.8331   -2.1852   -0.0000 N   0  0  0  0  0  0  0  0  0  0  0  0
   -1.3732   -6.7109   -0.0000 C   0  0  0  0  0  0  0  0  0  0  0  0
   -2.6748   -4.4421   -0.0000 C   0  0  0  0  0  0  0  0  0  0  0  0
    5.1227   -2.9256   -0.0000 C   0  0  0  0  0  0  0  0  0  0  0  0
   -2.6987   -7.4512   -0.0000 C   0  0  0  0  0  0  0  0  0  0  0  0
   -3.9883   -5.1824   -0.0000 C   0  0  0  0  0  0  0  0  0  0  0  0
    5.1227   -4.4182   -0.0000 C   0  0  0  0  0  0  0  0  0  0  0  0
    6.4004   -2.1494   -0.0000 C   0  0  0  0  0  0  0  0  0  0  0  0
   -4.0122   -6.6870   -0.0000 C   0  0  0  0  0  0  0  0  0  0  0  0
    6.4004   -5.1585   -0.0000 C   0  0  0  0  0  0  0  0  0  0  0  0
    3.8211   -5.1466   -0.0000 C   0  0  0  0  0  0  0  0  0  0  0  0
    7.7020   -2.8897   -0.0000 C   0  0  0  0  0  0  0  0  0  0  0  0
   -5.3257   -7.4274   -0.0000 C   0  0  0  0  0  0  0  0  0  0  0  0
    7.6901   -4.3943   -0.0000 O   0  0  0  0  0  0  0  0  0  0  0  0
    6.3885   -6.6273   -0.0000 N   0  0  0  0  0  0  0  0  0  0  0  0
    3.8092   -6.6273   -0.0000 C   0  0  0  0  0  0  0  0  0  0  0  0
    9.1469   -3.2599   -0.0000 C   0  0  0  0  0  0  0  0  0  0  0  0
    8.0722   -1.4210   -0.0000 C   0  0  0  0  0  0  0  0  0  0  0  0
   -6.6512   -8.1558   -0.0000 C   0  0  0  0  0  0  0  0  0  0  0  0
    5.0869   -7.3677   -0.0000 C   0  0  0  0  0  0  0  0  0  0  0  0
    2.4957   -7.3677   -0.0000 C   0  0  0  0  0  0  0  0  0  0  0  0
    9.5170   -1.7912   -0.0000 C   0  0  0  0  0  0  0  0  0  0  0  0
    2.4837   -8.8603   -0.0000 C   0  0  0  0  0  0  0  0  0  0  0  0
    1.1702   -9.6006   -0.0000 C   0  0  0  0  0  0  0  0  0  0  0  0
    3.7734   -9.6006   -0.0000 C   0  0  0  0  0  0  0  0  0  0  0  0
    2.4599  -10.3529   -0.0000 C   0  0  0  0  0  0  0  0  0  0  0  0
  1  2  2  0  0  0  0
  2  3  1  0  0  0  0
  2  4  1  0  0  0  0
  5  3  1  6  0  0  0
  4  6  1  0  0  0  0
  5  7  1  0  0  0  0
  5  8  1  0  0  0  0
  6  9  1  0  0  0  0
  7 10  1  6  0  0  0
  7 11  1  0  0  0  0
  8 12  1  0  0  0  0
 11 13  1  0  0  0  0
 12 14  2  0  0  0  0
 12 15  1  0  0  0  0
 16 13  1  1  0  0  0
 14 17  1  0  0  0  0
 15 18  2  0  0  0  0
 16 19  1  0  0  0  0
 16 20  1  0  0  0  0
 17 21  2  0  0  0  0
 19 22  2  0  0  0  0
 19 23  1  0  0  0  0
 20 24  1  0  0  0  0
 21 25  1  0  0  0  0
 22 26  1  0  0  0  0
 22 27  1  0  0  0  0
 23 28  2  0  0  0  0
 24 29  1  0  0  0  0
 24 30  1  0  0  0  0
 25 31  3  0  0  0  0
 27 32  2  0  0  0  0
 28 33  1  0  0  0  0
 29 34  1  0  0  0  0
 33 35  1  0  0  0  0
 35 36  1  0  0  0  0
 35 37  1  0  0  0  0
 35 38  1  0  0  0  0
 18 21  1  0  0  0  0
 24 26  1  0  0  0  0
 28 32  1  0  0  0  0
 30 34  1  0  0  0  0
M  END
>  <MolRegNo>
1442729

>  <m>
=

>  <Value>
100

>  <Unit>
nM

>  <Type>
IC50

>  <pValue>
7

>  <Ligand Efficiency>
0

>  <Binding Efficiency>
0

>  <Surface Efficiency>
0

>  <Assay Index>
696492

>  <Assay Category>


>  <Assay Organism>
Homo sapiens

>  <Target ID>
17045

>  <Target Name>
Cytochrome P450 3A4

>  <Target Organism>
Homo sapiens

>  <Target Description>
Target is a single protein chain

>  <Sequence Accession>
P08684

>  <Reference>
J Med Chem 55 (21), 9025-9044 (2012)

>  <Pubmed ID>
22468684

>  <DOI>
10.1021/jm300118s

$$$$
1442728
Actelion Java MolfileCreator 1.0

 41 45  0  0  0  0  0  0  0  0999 V2000
    0.0000   -0.0000   -0.0000 S   0  0  0  0  0  0  0  0  0  0  0  0
   -0.0119    1.5155   -0.0000 C   0  0  0  0  0  0  0  0  0  0  0  0
   -1.4320   -0.4535   -0.0000 C   0  0  0  0  0  0  0  0  0  0  0  0
   -1.4559    1.9929   -0.0000 N   0  0  0  0  0  0  0  0  0  0  0  0
    1.1098    2.4344   -0.0000 C   0  0  0  0  0  0  0  0  0  0  0  0
   -2.3389    0.7757   -0.0000 C   0  0  0  0  0  0  0  0  0  0  0  0
    2.3986    1.6945   -0.0000 C   0  0  0  0  0  0  0  0  0  0  0  0
    1.0979    3.9619   -0.0000 C   0  0  0  0  0  0  0  0  0  0  0  0
    3.6994    2.4583   -0.0000 C   0  0  0  0  0  0  0  0  0  0  0  0
    2.3867    4.7256   -0.0000 C   0  0  0  0  0  0  0  0  0  0  0  0
    3.6874    3.9858   -0.0000 C   0  0  0  0  0  0  0  0  0  0  0  0
    4.9762    4.7495   -0.0000 C   0  0  0  0  0  0  0  0  0  0  0  0
    4.9643    6.2650   -0.0000 C   0  0  0  0  0  0  0  0  0  0  0  0
    3.6516    7.0288   -0.0000 N   0  0  0  0  0  0  0  0  0  0  0  0
    6.2531    7.0288   -0.0000 C   0  0  0  0  0  0  0  0  0  0  0  0
    3.6397    8.5443   -0.0000 C   0  0  0  0  0  0  0  0  0  0  0  0
    6.2412    8.5443   -0.0000 O   0  0  0  0  0  0  0  0  0  0  0  0
    7.5419    6.2889   -0.0000 C   0  0  0  0  0  0  0  0  0  0  0  0
    4.9285    9.3080   -0.0000 O   0  0  0  0  0  0  0  0  0  0  0  0
    2.3270    9.3080   -0.0000 C   0  0  0  0  0  0  0  0  0  0  0  0
    8.8307    7.0526   -0.0000 N   0  0  0  0  0  0  0  0  0  0  0  0
    1.0143    8.5682   -0.0000 O   0  0  0  0  0  0  0  0  0  0  0  0
   10.1195    6.3128   -0.0000 C   0  0  0  0  0  0  0  0  0  0  0  0
   -0.2983    9.3319   -0.0000 C   0  0  0  0  0  0  0  0  0  0  0  0
   10.1195    4.8211   -0.0000 C   0  0  0  0  0  0  0  0  0  0  0  0
   11.3964    7.0884   -0.0000 C   0  0  0  0  0  0  0  0  0  0  0  0
   11.3964    4.0812   -0.0000 C   0  0  0  0  0  0  0  0  0  0  0  0
    8.8188    4.0932   -0.0000 C   0  0  0  0  0  0  0  0  0  0  0  0
   12.6971    6.3486   -0.0000 C   0  0  0  0  0  0  0  0  0  0  0  0
   12.6852    4.8450   -0.0000 O   0  0  0  0  0  0  0  0  0  0  0  0
   11.3845    2.6134   -0.0000 N   0  0  0  0  0  0  0  0  0  0  0  0
    8.8068    2.6134   -0.0000 C   0  0  0  0  0  0  0  0  0  0  0  0
   14.1411    5.9786   -0.0000 C   0  0  0  0  0  0  0  0  0  0  0  0
   13.0671    7.8164   -0.0000 C   0  0  0  0  0  0  0  0  0  0  0  0
   10.0837    1.8735   -0.0000 C   0  0  0  0  0  0  0  0  0  0  0  0
    7.4942    1.8735   -0.0000 C   0  0  0  0  0  0  0  0  0  0  0  0
   14.5110    7.4464   -0.0000 C   0  0  0  0  0  0  0  0  0  0  0  0
    7.4822    0.3819   -0.0000 C   0  0  0  0  0  0  0  0  0  0  0  0
    6.1696   -0.3580   -0.0000 C   0  0  0  0  0  0  0  0  0  0  0  0
    8.7710   -0.3580   -0.0000 C   0  0  0  0  0  0  0  0  0  0  0  0
    7.4584   -1.1098   -0.0000 C   0  0  0  0  0  0  0  0  0  0  0  0
  1  2  1  0  0  0  0
  1  3  1  0  0  0  0
  2  4  2  0  0  0  0
  2  5  1  0  0  0  0
  3  6  2  0  0  0  0
  5  7  2  0  0  0  0
  5  8  1  0  0  0  0
  7  9  1  0  0  0  0
  8 10  2  0  0  0  0
  9 11  2  0  0  0  0
 11 12  1  0  0  0  0
 12 13  1  0  0  0  0
 13 14  1  6  0  0  0
 13 15  1  0  0  0  0
 14 16  1  0  0  0  0
 15 17  1  6  0  0  0
 15 18  1  0  0  0  0
 16 19  2  0  0  0  0
 16 20  1  0  0  0  0
 18 21  1  0  0  0  0
 20 22  1  0  0  0  0
 23 21  1  1  0  0  0
 22 24  1  0  0  0  0
 23 25  1  0  0  0  0
 23 26  1  0  0  0  0
 25 27  2  0  0  0  0
 25 28  1  0  0  0  0
 26 29  1  0  0  0  0
 27 30  1  0  0  0  0
 27 31  1  0  0  0  0
 28 32  2  0  0  0  0
 29 33  1  0  0  0  0
 29 34  1  0  0  0  0
 31 35  2  0  0  0  0
 32 36  1  0  0  0  0
 33 37  1  0  0  0  0
 36 38  1  0  0  0  0
 38 39  1  0  0  0  0
 38 40  1  0  0  0  0
 38 41  1  0  0  0  0
  4  6  1  0  0  0  0
 10 11  1  0  0  0  0
 29 30  1  0  0  0  0
 32 35  1  0  0  0  0
 34 37  1  0  0  0  0
M  END
>  <MolRegNo>
1442728

>  <m>
=

>  <Value>
30

>  <Unit>
nM

>  <Type>
IC50

>  <pValue>
7.52

>  <Ligand Efficiency>
0

>  <Binding Efficiency>
0

>  <Surface Efficiency>
0

>  <Assay Index>
696492

>  <Assay Category>


>  <Assay Organism>
Homo sapiens

>  <Target ID>
17045

>  <Target Name>
Cytochrome P450 3A4

>  <Target Organism>
Homo sapiens

>  <Target Description>
Target is a single protein chain

>  <Sequence Accession>
P08684

>  <Reference>
J Med Chem 55 (21), 9025-9044 (2012)

>  <Pubmed ID>
22468684

>  <DOI>
10.1021/jm300118s

$$$$
1442727
Actelion Java MolfileCreator 1.0

 39 42  0  0  0  0  0  0  0  0999 V2000
    0.0000   -0.0000   -0.0000 O   0  0  0  0  0  0  0  0  0  0  0  0
   -1.3127   -0.7399   -0.0000 C   0  0  0  0  0  0  0  0  0  0  0  0
   -1.3246   -2.2316   -0.0000 N   0  0  0  0  0  0  0  0  0  0  0  0
   -2.6254    0.0239   -0.0000 C   0  0  0  0  0  0  0  0  0  0  0  0
   -0.0358   -2.9715   -0.0000 C   0  0  0  0  0  0  0  0  0  0  0  0
   -3.9381   -0.7160   -0.0000 O   0  0  0  0  0  0  0  0  0  0  0  0
    1.2530   -2.2077   -0.0000 C   0  0  0  0  0  0  0  0  0  0  0  0
   -0.0477   -4.4632   -0.0000 C   0  0  0  0  0  0  0  0  0  0  0  0
   -5.2509    0.0477   -0.0000 C   0  0  0  0  0  0  0  0  0  0  0  0
    1.2411   -0.6922   -0.0000 O   0  0  0  0  0  0  0  0  0  0  0  0
    2.5419   -2.9476   -0.0000 C   0  0  0  0  0  0  0  0  0  0  0  0
   -1.3604   -5.2031   -0.0000 C   0  0  0  0  0  0  0  0  0  0  0  0
    3.8307   -2.1839   -0.0000 N   0  0  0  0  0  0  0  0  0  0  0  0
   -2.6732   -4.4394   -0.0000 C   0  0  0  0  0  0  0  0  0  0  0  0
   -1.3724   -6.7068   -0.0000 C   0  0  0  0  0  0  0  0  0  0  0  0
    5.1196   -2.9238   -0.0000 C   0  0  0  0  0  0  0  0  0  0  0  0
   -3.9859   -5.1793   -0.0000 C   0  0  0  0  0  0  0  0  0  0  0  0
   -2.6970   -7.4467   -0.0000 C   0  0  0  0  0  0  0  0  0  0  0  0
    5.1196   -4.4155   -0.0000 C   0  0  0  0  0  0  0  0  0  0  0  0
    6.3965   -2.1481   -0.0000 C   0  0  0  0  0  0  0  0  0  0  0  0
   -5.2986   -4.4155   -0.0000 C   0  0  0  0  0  0  0  0  0  0  0  0
   -3.9978   -6.6829   -0.0000 C   0  0  0  0  0  0  0  0  0  0  0  0
    6.3965   -5.1554   -0.0000 C   0  0  0  0  0  0  0  0  0  0  0  0
    3.8188   -5.1435   -0.0000 C   0  0  0  0  0  0  0  0  0  0  0  0
    7.6973   -2.8880   -0.0000 C   0  0  0  0  0  0  0  0  0  0  0  0
   -6.6232   -3.6517   -0.0000 C   0  0  0  0  0  0  0  0  0  0  0  0
    7.6853   -4.3916   -0.0000 O   0  0  0  0  0  0  0  0  0  0  0  0
    6.3846   -6.6232   -0.0000 N   0  0  0  0  0  0  0  0  0  0  0  0
    3.8069   -6.6232   -0.0000 C   0  0  0  0  0  0  0  0  0  0  0  0
    9.1413   -3.2579   -0.0000 C   0  0  0  0  0  0  0  0  0  0  0  0
    8.0672   -1.4201   -0.0000 C   0  0  0  0  0  0  0  0  0  0  0  0
   -7.9360   -2.8880   -0.0000 C   0  0  0  0  0  0  0  0  0  0  0  0
    5.0838   -7.3631   -0.0000 C   0  0  0  0  0  0  0  0  0  0  0  0
    2.4942   -7.3631   -0.0000 C   0  0  0  0  0  0  0  0  0  0  0  0
    9.5112   -1.7901   -0.0000 C   0  0  0  0  0  0  0  0  0  0  0  0
    2.4822   -8.8549   -0.0000 C   0  0  0  0  0  0  0  0  0  0  0  0
    1.1695   -9.5947   -0.0000 C   0  0  0  0  0  0  0  0  0  0  0  0
    3.7711   -9.5947   -0.0000 C   0  0  0  0  0  0  0  0  0  0  0  0
    2.4584  -10.3466   -0.0000 C   0  0  0  0  0  0  0  0  0  0  0  0
  1  2  2  0  0  0  0
  2  3  1  0  0  0  0
  2  4  1  0  0  0  0
  5  3  1  6  0  0  0
  4  6  1  0  0  0  0
  5  7  1  0  0  0  0
  5  8  1  0  0  0  0
  6  9  1  0  0  0  0
  7 10  1  6  0  0  0
  7 11  1  0  0  0  0
  8 12  1  0  0  0  0
 11 13  1  0  0  0  0
 12 14  2  0  0  0  0
 12 15  1  0  0  0  0
 16 13  1  1  0  0  0
 14 17  1  0  0  0  0
 15 18  2  0  0  0  0
 16 19  1  0  0  0  0
 16 20  1  0  0  0  0
 17 21  1  0  0  0  0
 17 22  2  0  0  0  0
 19 23  2  0  0  0  0
 19 24  1  0  0  0  0
 20 25  1  0  0  0  0
 21 26  3  0  0  0  0
 23 27  1  0  0  0  0
 23 28  1  0  0  0  0
 24 29  2  0  0  0  0
 25 30  1  0  0  0  0
 25 31  1  0  0  0  0
 26 32  1  0  0  0  0
 28 33  2  0  0  0  0
 29 34  1  0  0  0  0
 30 35  1  0  0  0  0
 34 36  1  0  0  0  0
 36 37  1  0  0  0  0
 36 38  1  0  0  0  0
 36 39  1  0  0  0  0
 18 22  1  0  0  0  0
 25 27  1  0  0  0  0
 29 33  1  0  0  0  0
 31 35  1  0  0  0  0
M  END
>  <MolRegNo>
1442727

>  <m>
=

>  <Value>
30

>  <Unit>
nM

>  <Type>
IC50

>  <pValue>
7.52

>  <Ligand Efficiency>
0

>  <Binding Efficiency>
0

>  <Surface Efficiency>
0

>  <Assay Index>
696492

>  <Assay Category>


>  <Assay Organism>
Homo sapiens

>  <Target ID>
17045

>  <Target Name>
Cytochrome P450 3A4

>  <Target Organism>
Homo sapiens

>  <Target Description>
Target is a single protein chain

>  <Sequence Accession>
P08684

>  <Reference>
J Med Chem 55 (21), 9025-9044 (2012)

>  <Pubmed ID>
22468684

>  <DOI>
10.1021/jm300118s

$$$$
1442726
Actelion Java MolfileCreator 1.0

 38 41  0  0  0  0  0  0  0  0999 V2000
    0.0000   -0.0000   -0.0000 O   0  0  0  0  0  0  0  0  0  0  0  0
   -1.3131   -0.7401   -0.0000 C   0  0  0  0  0  0  0  0  0  0  0  0
   -1.3251   -2.2323   -0.0000 N   0  0  0  0  0  0  0  0  0  0  0  0
   -2.6262    0.0239   -0.0000 C   0  0  0  0  0  0  0  0  0  0  0  0
   -0.0358   -2.9724   -0.0000 C   0  0  0  0  0  0  0  0  0  0  0  0
   -3.9393   -0.7162   -0.0000 O   0  0  0  0  0  0  0  0  0  0  0  0
    1.2534   -2.2084   -0.0000 C   0  0  0  0  0  0  0  0  0  0  0  0
   -0.0477   -4.4646   -0.0000 C   0  0  0  0  0  0  0  0  0  0  0  0
   -5.2525    0.0477   -0.0000 C   0  0  0  0  0  0  0  0  0  0  0  0
    1.2415   -0.6924   -0.0000 O   0  0  0  0  0  0  0  0  0  0  0  0
    2.5427   -2.9485   -0.0000 C   0  0  0  0  0  0  0  0  0  0  0  0
   -1.3609   -5.2047   -0.0000 C   0  0  0  0  0  0  0  0  0  0  0  0
    3.8319   -2.1845   -0.0000 N   0  0  0  0  0  0  0  0  0  0  0  0
   -2.6740   -4.4407   -0.0000 C   0  0  0  0  0  0  0  0  0  0  0  0
   -1.3728   -6.7088   -0.0000 C   0  0  0  0  0  0  0  0  0  0  0  0
    5.1211   -2.9247   -0.0000 C   0  0  0  0  0  0  0  0  0  0  0  0
   -3.9871   -5.1808   -0.0000 C   0  0  0  0  0  0  0  0  0  0  0  0
   -2.6979   -7.4489   -0.0000 C   0  0  0  0  0  0  0  0  0  0  0  0
    5.1211   -4.4168   -0.0000 C   0  0  0  0  0  0  0  0  0  0  0  0
    6.3984   -2.1487   -0.0000 C   0  0  0  0  0  0  0  0  0  0  0  0
   -5.3002   -4.4168   -0.0000 C   0  0  0  0  0  0  0  0  0  0  0  0
   -3.9990   -6.6849   -0.0000 C   0  0  0  0  0  0  0  0  0  0  0  0
    6.3984   -5.1570   -0.0000 C   0  0  0  0  0  0  0  0  0  0  0  0
    3.8200   -5.1450   -0.0000 C   0  0  0  0  0  0  0  0  0  0  0  0
    7.6996   -2.8889   -0.0000 C   0  0  0  0  0  0  0  0  0  0  0  0
   -6.6253   -3.6528   -0.0000 C   0  0  0  0  0  0  0  0  0  0  0  0
    7.6877   -4.3930   -0.0000 O   0  0  0  0  0  0  0  0  0  0  0  0
    6.3865   -6.6253   -0.0000 N   0  0  0  0  0  0  0  0  0  0  0  0
    3.8080   -6.6253   -0.0000 C   0  0  0  0  0  0  0  0  0  0  0  0
    9.1440   -3.2589   -0.0000 C   0  0  0  0  0  0  0  0  0  0  0  0
    8.0697   -1.4206   -0.0000 C   0  0  0  0  0  0  0  0  0  0  0  0
    5.0853   -7.3654   -0.0000 C   0  0  0  0  0  0  0  0  0  0  0  0
    2.4949   -7.3654   -0.0000 C   0  0  0  0  0  0  0  0  0  0  0  0
    9.5141   -1.7906   -0.0000 C   0  0  0  0  0  0  0  0  0  0  0  0
    2.4830   -8.8576   -0.0000 C   0  0  0  0  0  0  0  0  0  0  0  0
    1.1699   -9.5977   -0.0000 C   0  0  0  0  0  0  0  0  0  0  0  0
    3.7722   -9.5977   -0.0000 C   0  0  0  0  0  0  0  0  0  0  0  0
    2.4591  -10.3497   -0.0000 C   0  0  0  0  0  0  0  0  0  0  0  0
  1  2  2  0  0  0  0
  2  3  1  0  0  0  0
  2  4  1  0  0  0  0
  5  3  1  6  0  0  0
  4  6  1  0  0  0  0
  5  7  1  0  0  0  0
  5  8  1  0  0  0  0
  6  9  1  0  0  0  0
  7 10  1  6  0  0  0
  7 11  1  0  0  0  0
  8 12  1  0  0  0  0
 11 13  1  0  0  0  0
 12 14  2  0  0  0  0
 12 15  1  0  0  0  0
 16 13  1  1  0  0  0
 14 17  1  0  0  0  0
 15 18  2  0  0  0  0
 16 19  1  0  0  0  0
 16 20  1  0  0  0  0
 17 21  1  0  0  0  0
 17 22  2  0  0  0  0
 19 23  2  0  0  0  0
 19 24  1  0  0  0  0
 20 25  1  0  0  0  0
 21 26  3  0  0  0  0
 23 27  1  0  0  0  0
 23 28  1  0  0  0  0
 24 29  2  0  0  0  0
 25 30  1  0  0  0  0
 25 31  1  0  0  0  0
 28 32  2  0  0  0  0
 29 33  1  0  0  0  0
 30 34  1  0  0  0  0
 33 35  1  0  0  0  0
 35 36  1  0  0  0  0
 35 37  1  0  0  0  0
 35 38  1  0  0  0  0
 18 22  1  0  0  0  0
 25 27  1  0  0  0  0
 29 32  1  0  0  0  0
 31 34  1  0  0  0  0
M  END
>  <MolRegNo>
1442726

>  <m>
=

>  <Value>
30

>  <Unit>
nM

>  <Type>
IC50

>  <pValue>
7.52

>  <Ligand Efficiency>
0

>  <Binding Efficiency>
0

>  <Surface Efficiency>
0

>  <Assay Index>
696492

>  <Assay Category>


>  <Assay Organism>
Homo sapiens

>  <Target ID>
17045

>  <Target Name>
Cytochrome P450 3A4

>  <Target Organism>
Homo sapiens

>  <Target Description>
Target is a single protein chain

>  <Sequence Accession>
P08684

>  <Reference>
J Med Chem 55 (21), 9025-9044 (2012)

>  <Pubmed ID>
22468684

>  <DOI>
10.1021/jm300118s

$$$$
1442725
Actelion Java MolfileCreator 1.0

 42 46  0  0  0  0  0  0  0  0999 V2000
    0.0000   -0.0000   -0.0000 S   0  0  0  0  0  0  0  0  0  0  0  0
    1.4088    0.4776   -0.0000 C   0  0  0  0  0  0  0  0  0  0  0  0
   -0.9074    1.2297   -0.0000 C   0  0  0  0  0  0  0  0  0  0  0  0
    1.3968    1.9938   -0.0000 N   0  0  0  0  0  0  0  0  0  0  0  0
    2.6146   -0.3820   -0.0000 C   0  0  0  0  0  0  0  0  0  0  0  0
   -0.0358    2.4713   -0.0000 C   0  0  0  0  0  0  0  0  0  0  0  0
    3.9040    0.3820   -0.0000 C   0  0  0  0  0  0  0  0  0  0  0  0
    2.6027   -1.8863   -0.0000 C   0  0  0  0  0  0  0  0  0  0  0  0
   -0.5134    3.9159   -0.0000 C   0  0  0  0  0  0  0  0  0  0  0  0
    5.1934   -0.3582   -0.0000 C   0  0  0  0  0  0  0  0  0  0  0  0
    3.8921   -2.6265   -0.0000 C   0  0  0  0  0  0  0  0  0  0  0  0
    5.1815   -1.8625   -0.0000 C   0  0  0  0  0  0  0  0  0  0  0  0
    6.4828    0.4059   -0.0000 C   0  0  0  0  0  0  0  0  0  0  0  0
    6.4709    1.9222   -0.0000 C   0  0  0  0  0  0  0  0  0  0  0  0
    5.1576    2.6862   -0.0000 N   0  0  0  0  0  0  0  0  0  0  0  0
    7.7602    2.6862   -0.0000 C   0  0  0  0  0  0  0  0  0  0  0  0
    5.1456    4.2025   -0.0000 C   0  0  0  0  0  0  0  0  0  0  0  0
    7.7483    4.2025   -0.0000 O   0  0  0  0  0  0  0  0  0  0  0  0
    9.0496    1.9460   -0.0000 C   0  0  0  0  0  0  0  0  0  0  0  0
    6.4350    4.9666   -0.0000 O   0  0  0  0  0  0  0  0  0  0  0  0
    3.8324    4.9666   -0.0000 C   0  0  0  0  0  0  0  0  0  0  0  0
   10.3390    2.7101   -0.0000 N   0  0  0  0  0  0  0  0  0  0  0  0
    2.5191    4.2264   -0.0000 O   0  0  0  0  0  0  0  0  0  0  0  0
   11.6284    1.9699   -0.0000 C   0  0  0  0  0  0  0  0  0  0  0  0
    1.2058    4.9904   -0.0000 C   0  0  0  0  0  0  0  0  0  0  0  0
   11.6284    0.4776   -0.0000 C   0  0  0  0  0  0  0  0  0  0  0  0
   12.9059    2.7459   -0.0000 C   0  0  0  0  0  0  0  0  0  0  0  0
   12.9059   -0.2627   -0.0000 C   0  0  0  0  0  0  0  0  0  0  0  0
   10.3271   -0.2507   -0.0000 C   0  0  0  0  0  0  0  0  0  0  0  0
   14.2072    2.0057   -0.0000 C   0  0  0  0  0  0  0  0  0  0  0  0
   14.1953    0.5014   -0.0000 O   0  0  0  0  0  0  0  0  0  0  0  0
   12.8940   -1.7311   -0.0000 N   0  0  0  0  0  0  0  0  0  0  0  0
   10.3152   -1.7311   -0.0000 C   0  0  0  0  0  0  0  0  0  0  0  0
   15.6518    1.6356   -0.0000 C   0  0  0  0  0  0  0  0  0  0  0  0
   14.5773    3.4742   -0.0000 C   0  0  0  0  0  0  0  0  0  0  0  0
   11.5926   -2.4713   -0.0000 C   0  0  0  0  0  0  0  0  0  0  0  0
    9.0019   -2.4713   -0.0000 C   0  0  0  0  0  0  0  0  0  0  0  0
   16.0219    3.1041   -0.0000 C   0  0  0  0  0  0  0  0  0  0  0  0
    8.9900   -3.9637   -0.0000 C   0  0  0  0  0  0  0  0  0  0  0  0
    7.6767   -4.7039   -0.0000 C   0  0  0  0  0  0  0  0  0  0  0  0
   10.2793   -4.7039   -0.0000 C   0  0  0  0  0  0  0  0  0  0  0  0
    8.9661   -5.4561   -0.0000 C   0  0  0  0  0  0  0  0  0  0  0  0
  1  2  1  0  0  0  0
  1  3  1  0  0  0  0
  2  4  2  0  0  0  0
  2  5  1  0  0  0  0
  3  6  2  0  0  0  0
  5  7  2  0  0  0  0
  5  8  1  0  0  0  0
  6  9  1  0  0  0  0
  7 10  1  0  0  0  0
  8 11  2  0  0  0  0
 10 12  2  0  0  0  0
 10 13  1  0  0  0  0
 13 14  1  0  0  0  0
 14 15  1  6  0  0  0
 14 16  1  0  0  0  0
 15 17  1  0  0  0  0
 16 18  1  6  0  0  0
 16 19  1  0  0  0  0
 17 20  2  0  0  0  0
 17 21  1  0  0  0  0
 19 22  1  0  0  0  0
 21 23  1  0  0  0  0
 24 22  1  1  0  0  0
 23 25  1  0  0  0  0
 24 26  1  0  0  0  0
 24 27  1  0  0  0  0
 26 28  2  0  0  0  0
 26 29  1  0  0  0  0
 27 30  1  0  0  0  0
 28 31  1  0  0  0  0
 28 32  1  0  0  0  0
 29 33  2  0  0  0  0
 30 34  1  0  0  0  0
 30 35  1  0  0  0  0
 32 36  2  0  0  0  0
 33 37  1  0  0  0  0
 34 38  1  0  0  0  0
 37 39  1  0  0  0  0
 39 40  1  0  0  0  0
 39 41  1  0  0  0  0
 39 42  1  0  0  0  0
  4  6  1  0  0  0  0
 11 12  1  0  0  0  0
 30 31  1  0  0  0  0
 33 36  1  0  0  0  0
 35 38  1  0  0  0  0
M  END
>  <MolRegNo>
1442725

>  <m>
=

>  <Value>
100

>  <Unit>
nM

>  <Type>
IC50

>  <pValue>
7

>  <Ligand Efficiency>
0

>  <Binding Efficiency>
0

>  <Surface Efficiency>
0

>  <Assay Index>
696492

>  <Assay Category>


>  <Assay Organism>
Homo sapiens

>  <Target ID>
17045

>  <Target Name>
Cytochrome P450 3A4

>  <Target Organism>
Homo sapiens

>  <Target Description>
Target is a single protein chain

>  <Sequence Accession>
P08684

>  <Reference>
J Med Chem 55 (21), 9025-9044 (2012)

>  <Pubmed ID>
22468684

>  <DOI>
10.1021/jm300118s

$$$$
1442724
Actelion Java MolfileCreator 1.0

 41 45  0  0  0  0  0  0  0  0999 V2000
    0.0000   -0.0000   -0.0000 S   0  0  0  0  0  0  0  0  0  0  0  0
    0.8717    1.2419   -0.0000 C   0  0  0  0  0  0  0  0  0  0  0  0
    0.8836   -1.2060   -0.0000 C   0  0  0  0  0  0  0  0  0  0  0  0
    2.2927    0.7881   -0.0000 N   0  0  0  0  0  0  0  0  0  0  0  0
    2.2927   -0.7284   -0.0000 C   0  0  0  0  0  0  0  0  0  0  0  0
    3.4987   -1.5882   -0.0000 C   0  0  0  0  0  0  0  0  0  0  0  0
    4.7884   -0.8239   -0.0000 C   0  0  0  0  0  0  0  0  0  0  0  0
    3.4868   -3.0927   -0.0000 C   0  0  0  0  0  0  0  0  0  0  0  0
    6.0780   -1.5643   -0.0000 C   0  0  0  0  0  0  0  0  0  0  0  0
    4.7764   -3.8331   -0.0000 C   0  0  0  0  0  0  0  0  0  0  0  0
    6.0660   -3.0688   -0.0000 C   0  0  0  0  0  0  0  0  0  0  0  0
    7.3676   -0.7881   -0.0000 C   0  0  0  0  0  0  0  0  0  0  0  0
    7.3557    0.7284   -0.0000 C   0  0  0  0  0  0  0  0  0  0  0  0
    6.0302    1.4926   -0.0000 N   0  0  0  0  0  0  0  0  0  0  0  0
    8.6453    1.4926   -0.0000 C   0  0  0  0  0  0  0  0  0  0  0  0
    6.0183    3.0091   -0.0000 C   0  0  0  0  0  0  0  0  0  0  0  0
    8.6334    3.0091   -0.0000 O   0  0  0  0  0  0  0  0  0  0  0  0
    9.9469    0.7523   -0.0000 C   0  0  0  0  0  0  0  0  0  0  0  0
    7.3079    3.7853   -0.0000 O   0  0  0  0  0  0  0  0  0  0  0  0
    4.7048    3.7734   -0.0000 C   0  0  0  0  0  0  0  0  0  0  0  0
   11.2365    1.5165   -0.0000 N   0  0  0  0  0  0  0  0  0  0  0  0
    3.3913    3.0330   -0.0000 O   0  0  0  0  0  0  0  0  0  0  0  0
   12.5381    0.7762   -0.0000 C   0  0  0  0  0  0  0  0  0  0  0  0
    2.0777    3.7973   -0.0000 C   0  0  0  0  0  0  0  0  0  0  0  0
   12.5381   -0.7165   -0.0000 C   0  0  0  0  0  0  0  0  0  0  0  0
   13.8158    1.5523   -0.0000 C   0  0  0  0  0  0  0  0  0  0  0  0
   13.8158   -1.4568   -0.0000 C   0  0  0  0  0  0  0  0  0  0  0  0
   11.2365   -1.4449   -0.0000 C   0  0  0  0  0  0  0  0  0  0  0  0
   15.1174    0.8120   -0.0000 C   0  0  0  0  0  0  0  0  0  0  0  0
   15.1054   -0.6926   -0.0000 O   0  0  0  0  0  0  0  0  0  0  0  0
   13.8038   -2.9375   -0.0000 N   0  0  0  0  0  0  0  0  0  0  0  0
   11.2246   -2.9256   -0.0000 C   0  0  0  0  0  0  0  0  0  0  0  0
   16.5622    0.4418   -0.0000 C   0  0  0  0  0  0  0  0  0  0  0  0
   15.4875    2.2807   -0.0000 C   0  0  0  0  0  0  0  0  0  0  0  0
   12.5023   -3.6778   -0.0000 C   0  0  0  0  0  0  0  0  0  0  0  0
    9.9111   -3.6659   -0.0000 C   0  0  0  0  0  0  0  0  0  0  0  0
   16.9324    1.9106   -0.0000 C   0  0  0  0  0  0  0  0  0  0  0  0
    9.8991   -5.1585   -0.0000 C   0  0  0  0  0  0  0  0  0  0  0  0
    8.5856   -5.8989   -0.0000 C   0  0  0  0  0  0  0  0  0  0  0  0
   11.1888   -5.8989   -0.0000 C   0  0  0  0  0  0  0  0  0  0  0  0
    9.8752   -6.6512   -0.0000 C   0  0  0  0  0  0  0  0  0  0  0  0
  1  2  1  0  0  0  0
  1  3  1  0  0  0  0
  2  4  2  0  0  0  0
  3  5  2  0  0  0  0
  5  6  1  0  0  0  0
  6  7  2  0  0  0  0
  6  8  1  0  0  0  0
  7  9  1  0  0  0  0
  8 10  2  0  0  0  0
  9 11  2  0  0  0  0
  9 12  1  0  0  0  0
 12 13  1  0  0  0  0
 13 14  1  6  0  0  0
 13 15  1  0  0  0  0
 14 16  1  0  0  0  0
 15 17  1  6  0  0  0
 15 18  1  0  0  0  0
 16 19  2  0  0  0  0
 16 20  1  0  0  0  0
 18 21  1  0  0  0  0
 20 22  1  0  0  0  0
 23 21  1  1  0  0  0
 22 24  1  0  0  0  0
 23 25  1  0  0  0  0
 23 26  1  0  0  0  0
 25 27  2  0  0  0  0
 25 28  1  0  0  0  0
 26 29  1  0  0  0  0
 27 30  1  0  0  0  0
 27 31  1  0  0  0  0
 28 32  2  0  0  0  0
 29 33  1  0  0  0  0
 29 34  1  0  0  0  0
 31 35  2  0  0  0  0
 32 36  1  0  0  0  0
 33 37  1  0  0  0  0
 36 38  1  0  0  0  0
 38 39  1  0  0  0  0
 38 40  1  0  0  0  0
 38 41  1  0  0  0  0
  4  5  1  0  0  0  0
 10 11  1  0  0  0  0
 29 30  1  0  0  0  0
 32 35  1  0  0  0  0
 34 37  1  0  0  0  0
M  END
>  <MolRegNo>
1442724

>  <m>
=

>  <Value>
100

>  <Unit>
nM

>  <Type>
IC50

>  <pValue>
7

>  <Ligand Efficiency>
0

>  <Binding Efficiency>
0

>  <Surface Efficiency>
0

>  <Assay Index>
696492

>  <Assay Category>


>  <Assay Organism>
Homo sapiens

>  <Target ID>
17045

>  <Target Name>
Cytochrome P450 3A4

>  <Target Organism>
Homo sapiens

>  <Target Description>
Target is a single protein chain

>  <Sequence Accession>
P08684

>  <Reference>
J Med Chem 55 (21), 9025-9044 (2012)

>  <Pubmed ID>
22468684

>  <DOI>
10.1021/jm300118s

$$$$
1442723
Actelion Java MolfileCreator 1.0

 41 45  0  0  0  0  0  0  0  0999 V2000
    0.0000   -0.0000   -0.0000 S   0  0  0  0  0  0  0  0  0  0  0  0
    1.4080    0.4773   -0.0000 C   0  0  0  0  0  0  0  0  0  0  0  0
   -0.9068    1.2290   -0.0000 C   0  0  0  0  0  0  0  0  0  0  0  0
    2.6131   -0.3818   -0.0000 C   0  0  0  0  0  0  0  0  0  0  0  0
    1.3960    1.9926   -0.0000 C   0  0  0  0  0  0  0  0  0  0  0  0
   -0.0358    2.4699   -0.0000 N   0  0  0  0  0  0  0  0  0  0  0  0
    3.9017    0.3818   -0.0000 C   0  0  0  0  0  0  0  0  0  0  0  0
    2.6011   -1.8852   -0.0000 C   0  0  0  0  0  0  0  0  0  0  0  0
    5.1903   -0.3580   -0.0000 C   0  0  0  0  0  0  0  0  0  0  0  0
    3.8898   -2.6250   -0.0000 C   0  0  0  0  0  0  0  0  0  0  0  0
    5.1784   -1.8614   -0.0000 C   0  0  0  0  0  0  0  0  0  0  0  0
    6.4790    0.4176   -0.0000 C   0  0  0  0  0  0  0  0  0  0  0  0
    6.4670    1.9330   -0.0000 C   0  0  0  0  0  0  0  0  0  0  0  0
    5.1426    2.6966   -0.0000 N   0  0  0  0  0  0  0  0  0  0  0  0
    7.7557    2.6966   -0.0000 C   0  0  0  0  0  0  0  0  0  0  0  0
    5.1307    4.2119   -0.0000 C   0  0  0  0  0  0  0  0  0  0  0  0
    7.7437    4.2119   -0.0000 O   0  0  0  0  0  0  0  0  0  0  0  0
    9.0562    1.9568   -0.0000 C   0  0  0  0  0  0  0  0  0  0  0  0
    6.4193    4.9875   -0.0000 O   0  0  0  0  0  0  0  0  0  0  0  0
    3.8182    4.9756   -0.0000 C   0  0  0  0  0  0  0  0  0  0  0  0
   10.3449    2.7205   -0.0000 N   0  0  0  0  0  0  0  0  0  0  0  0
    2.5057    4.2358   -0.0000 O   0  0  0  0  0  0  0  0  0  0  0  0
   11.6455    1.9807   -0.0000 C   0  0  0  0  0  0  0  0  0  0  0  0
    1.1932    4.9994   -0.0000 C   0  0  0  0  0  0  0  0  0  0  0  0
   11.6455    0.4892   -0.0000 C   0  0  0  0  0  0  0  0  0  0  0  0
   12.9222    2.7562   -0.0000 C   0  0  0  0  0  0  0  0  0  0  0  0
   12.9222   -0.2506   -0.0000 C   0  0  0  0  0  0  0  0  0  0  0  0
   10.3449   -0.2386   -0.0000 C   0  0  0  0  0  0  0  0  0  0  0  0
   14.2227    2.0165   -0.0000 C   0  0  0  0  0  0  0  0  0  0  0  0
   14.2108    0.5131   -0.0000 O   0  0  0  0  0  0  0  0  0  0  0  0
   12.9102   -1.7301   -0.0000 N   0  0  0  0  0  0  0  0  0  0  0  0
   10.3330   -1.7182   -0.0000 C   0  0  0  0  0  0  0  0  0  0  0  0
   15.6665    1.6466   -0.0000 C   0  0  0  0  0  0  0  0  0  0  0  0
   14.5926    3.4841   -0.0000 C   0  0  0  0  0  0  0  0  0  0  0  0
   11.6097   -2.4699   -0.0000 C   0  0  0  0  0  0  0  0  0  0  0  0
    9.0205   -2.4580   -0.0000 C   0  0  0  0  0  0  0  0  0  0  0  0
   16.0364    3.1142   -0.0000 C   0  0  0  0  0  0  0  0  0  0  0  0
    9.0085   -3.9494   -0.0000 C   0  0  0  0  0  0  0  0  0  0  0  0
    7.6960   -4.6892   -0.0000 C   0  0  0  0  0  0  0  0  0  0  0  0
   10.2972   -4.6892   -0.0000 C   0  0  0  0  0  0  0  0  0  0  0  0
    8.9847   -5.4409   -0.0000 C   0  0  0  0  0  0  0  0  0  0  0  0
  1  2  1  0  0  0  0
  1  3  1  0  0  0  0
  2  4  1  0  0  0  0
  2  5  2  0  0  0  0
  3  6  2  0  0  0  0
  4  7  2  0  0  0  0
  4  8  1  0  0  0  0
  7  9  1  0  0  0  0
  8 10  2  0  0  0  0
  9 11  2  0  0  0  0
  9 12  1  0  0  0  0
 12 13  1  0  0  0  0
 13 14  1  6  0  0  0
 13 15  1  0  0  0  0
 14 16  1  0  0  0  0
 15 17  1  6  0  0  0
 15 18  1  0  0  0  0
 16 19  2  0  0  0  0
 16 20  1  0  0  0  0
 18 21  1  0  0  0  0
 20 22  1  0  0  0  0
 23 21  1  1  0  0  0
 22 24  1  0  0  0  0
 23 25  1  0  0  0  0
 23 26  1  0  0  0  0
 25 27  2  0  0  0  0
 25 28  1  0  0  0  0
 26 29  1  0  0  0  0
 27 30  1  0  0  0  0
 27 31  1  0  0  0  0
 28 32  2  0  0  0  0
 29 33  1  0  0  0  0
 29 34  1  0  0  0  0
 31 35  2  0  0  0  0
 32 36  1  0  0  0  0
 33 37  1  0  0  0  0
 36 38  1  0  0  0  0
 38 39  1  0  0  0  0
 38 40  1  0  0  0  0
 38 41  1  0  0  0  0
  5  6  1  0  0  0  0
 10 11  1  0  0  0  0
 29 30  1  0  0  0  0
 32 35  1  0  0  0  0
 34 37  1  0  0  0  0
M  END
>  <MolRegNo>
1442723

>  <m>
=

>  <Value>
30

>  <Unit>
nM

>  <Type>
IC50

>  <pValue>
7.52

>  <Ligand Efficiency>
0

>  <Binding Efficiency>
0

>  <Surface Efficiency>
0

>  <Assay Index>
696492

>  <Assay Category>


>  <Assay Organism>
Homo sapiens

>  <Target ID>
17045

>  <Target Name>
Cytochrome P450 3A4

>  <Target Organism>
Homo sapiens

>  <Target Description>
Target is a single protein chain

>  <Sequence Accession>
P08684

>  <Reference>
J Med Chem 55 (21), 9025-9044 (2012)

>  <Pubmed ID>
22468684

>  <DOI>
10.1021/jm300118s

$$$$
1442722
Actelion Java MolfileCreator 1.0

 41 45  0  0  0  0  0  0  0  0999 V2000
    0.0000   -0.0000   -0.0000 S   0  0  0  0  0  0  0  0  0  0  0  0
    1.4082    0.4774   -0.0000 C   0  0  0  0  0  0  0  0  0  0  0  0
   -0.9070    1.2292   -0.0000 C   0  0  0  0  0  0  0  0  0  0  0  0
    1.3963    1.9930   -0.0000 N   0  0  0  0  0  0  0  0  0  0  0  0
    2.6135   -0.3819   -0.0000 C   0  0  0  0  0  0  0  0  0  0  0  0
   -0.0358    2.4703   -0.0000 C   0  0  0  0  0  0  0  0  0  0  0  0
    3.9024    0.3819   -0.0000 C   0  0  0  0  0  0  0  0  0  0  0  0
    2.6016   -1.8856   -0.0000 C   0  0  0  0  0  0  0  0  0  0  0  0
    5.1913   -0.3580   -0.0000 C   0  0  0  0  0  0  0  0  0  0  0  0
    3.8905   -2.6255   -0.0000 C   0  0  0  0  0  0  0  0  0  0  0  0
    5.1793   -1.8617   -0.0000 C   0  0  0  0  0  0  0  0  0  0  0  0
    6.4801    0.4058   -0.0000 C   0  0  0  0  0  0  0  0  0  0  0  0
    6.4682    1.9214   -0.0000 C   0  0  0  0  0  0  0  0  0  0  0  0
    5.1435    2.6851   -0.0000 N   0  0  0  0  0  0  0  0  0  0  0  0
    7.7571    2.6851   -0.0000 C   0  0  0  0  0  0  0  0  0  0  0  0
    5.1316    4.2008   -0.0000 C   0  0  0  0  0  0  0  0  0  0  0  0
    7.7452    4.2008   -0.0000 O   0  0  0  0  0  0  0  0  0  0  0  0
    9.0579    1.9452   -0.0000 C   0  0  0  0  0  0  0  0  0  0  0  0
    6.4205    4.9645   -0.0000 O   0  0  0  0  0  0  0  0  0  0  0  0
    3.8189    4.9645   -0.0000 C   0  0  0  0  0  0  0  0  0  0  0  0
   10.3468    2.7090   -0.0000 N   0  0  0  0  0  0  0  0  0  0  0  0
    2.5061    4.2246   -0.0000 O   0  0  0  0  0  0  0  0  0  0  0  0
   11.6476    1.9691   -0.0000 C   0  0  0  0  0  0  0  0  0  0  0  0
    1.1934    4.9884   -0.0000 C   0  0  0  0  0  0  0  0  0  0  0  0
   11.6476    0.4774   -0.0000 C   0  0  0  0  0  0  0  0  0  0  0  0
   12.9245    2.7448   -0.0000 C   0  0  0  0  0  0  0  0  0  0  0  0
   12.9245   -0.2625   -0.0000 C   0  0  0  0  0  0  0  0  0  0  0  0
   10.3468   -0.2506   -0.0000 C   0  0  0  0  0  0  0  0  0  0  0  0
   14.2253    2.0049   -0.0000 C   0  0  0  0  0  0  0  0  0  0  0  0
   14.2134    0.5012   -0.0000 O   0  0  0  0  0  0  0  0  0  0  0  0
   12.9126   -1.7424   -0.0000 N   0  0  0  0  0  0  0  0  0  0  0  0
   10.3348   -1.7304   -0.0000 C   0  0  0  0  0  0  0  0  0  0  0  0
   15.6693    1.6350   -0.0000 C   0  0  0  0  0  0  0  0  0  0  0  0
   14.5953    3.4728   -0.0000 C   0  0  0  0  0  0  0  0  0  0  0  0
   11.6118   -2.4823   -0.0000 C   0  0  0  0  0  0  0  0  0  0  0  0
    9.0221   -2.4703   -0.0000 C   0  0  0  0  0  0  0  0  0  0  0  0
   16.0393    3.1028   -0.0000 C   0  0  0  0  0  0  0  0  0  0  0  0
    9.0102   -3.9621   -0.0000 C   0  0  0  0  0  0  0  0  0  0  0  0
    7.6974   -4.7020   -0.0000 C   0  0  0  0  0  0  0  0  0  0  0  0
   10.2990   -4.7020   -0.0000 C   0  0  0  0  0  0  0  0  0  0  0  0
    8.9863   -5.4538   -0.0000 C   0  0  0  0  0  0  0  0  0  0  0  0
  1  2  1  0  0  0  0
  1  3  1  0  0  0  0
  2  4  2  0  0  0  0
  2  5  1  0  0  0  0
  3  6  2  0  0  0  0
  5  7  2  0  0  0  0
  5  8  1  0  0  0  0
  7  9  1  0  0  0  0
  8 10  2  0  0  0  0
  9 11  2  0  0  0  0
  9 12  1  0  0  0  0
 12 13  1  0  0  0  0
 13 14  1  6  0  0  0
 13 15  1  0  0  0  0
 14 16  1  0  0  0  0
 15 17  1  6  0  0  0
 15 18  1  0  0  0  0
 16 19  2  0  0  0  0
 16 20  1  0  0  0  0
 18 21  1  0  0  0  0
 20 22  1  0  0  0  0
 23 21  1  1  0  0  0
 22 24  1  0  0  0  0
 23 25  1  0  0  0  0
 23 26  1  0  0  0  0
 25 27  2  0  0  0  0
 25 28  1  0  0  0  0
 26 29  1  0  0  0  0
 27 30  1  0  0  0  0
 27 31  1  0  0  0  0
 28 32  2  0  0  0  0
 29 33  1  0  0  0  0
 29 34  1  0  0  0  0
 31 35  2  0  0  0  0
 32 36  1  0  0  0  0
 33 37  1  0  0  0  0
 36 38  1  0  0  0  0
 38 39  1  0  0  0  0
 38 40  1  0  0  0  0
 38 41  1  0  0  0  0
  4  6  1  0  0  0  0
 10 11  1  0  0  0  0
 29 30  1  0  0  0  0
 32 35  1  0  0  0  0
 34 37  1  0  0  0  0
M  END
>  <MolRegNo>
1442722

>  <m>
=

>  <Value>
100

>  <Unit>
nM

>  <Type>
IC50

>  <pValue>
7

>  <Ligand Efficiency>
0

>  <Binding Efficiency>
0

>  <Surface Efficiency>
0

>  <Assay Index>
696492

>  <Assay Category>


>  <Assay Organism>
Homo sapiens

>  <Target ID>
17045

>  <Target Name>
Cytochrome P450 3A4

>  <Target Organism>
Homo sapiens

>  <Target Description>
Target is a single protein chain

>  <Sequence Accession>
P08684

>  <Reference>
J Med Chem 55 (21), 9025-9044 (2012)

>  <Pubmed ID>
22468684

>  <DOI>
10.1021/jm300118s

$$$$
1442721
Actelion Java MolfileCreator 1.0

 42 46  0  0  0  0  0  0  0  0999 V2000
    0.0000   -0.0000   -0.0000 O   0  0  0  0  0  0  0  0  0  0  0  0
   -1.3121   -0.7395   -0.0000 C   0  0  0  0  0  0  0  0  0  0  0  0
   -1.3240   -2.2305   -0.0000 N   0  0  0  0  0  0  0  0  0  0  0  0
   -2.6241    0.0239   -0.0000 C   0  0  0  0  0  0  0  0  0  0  0  0
   -0.0358   -2.9701   -0.0000 C   0  0  0  0  0  0  0  0  0  0  0  0
   -3.9362   -0.7276   -0.0000 O   0  0  0  0  0  0  0  0  0  0  0  0
    1.2524   -2.2067   -0.0000 C   0  0  0  0  0  0  0  0  0  0  0  0
   -0.0477   -4.4611   -0.0000 C   0  0  0  0  0  0  0  0  0  0  0  0
   -5.2483    0.0358   -0.0000 C   0  0  0  0  0  0  0  0  0  0  0  0
    1.2405   -0.6918   -0.0000 O   0  0  0  0  0  0  0  0  0  0  0  0
    2.5407   -2.9462   -0.0000 C   0  0  0  0  0  0  0  0  0  0  0  0
   -1.3598   -5.2125   -0.0000 C   0  0  0  0  0  0  0  0  0  0  0  0
    3.8289   -2.1828   -0.0000 N   0  0  0  0  0  0  0  0  0  0  0  0
   -2.6719   -4.4491   -0.0000 C   0  0  0  0  0  0  0  0  0  0  0  0
   -1.3717   -6.7154   -0.0000 C   0  0  0  0  0  0  0  0  0  0  0  0
    5.1290   -2.9223   -0.0000 C   0  0  0  0  0  0  0  0  0  0  0  0
   -3.9839   -5.1887   -0.0000 C   0  0  0  0  0  0  0  0  0  0  0  0
   -2.6957   -7.4550   -0.0000 C   0  0  0  0  0  0  0  0  0  0  0  0
    5.1290   -4.4133   -0.0000 C   0  0  0  0  0  0  0  0  0  0  0  0
    6.4053   -2.1470   -0.0000 C   0  0  0  0  0  0  0  0  0  0  0  0
   -5.2125   -4.3060   -0.0000 C   0  0  0  0  0  0  0  0  0  0  0  0
   -3.9959   -6.6916   -0.0000 C   0  0  0  0  0  0  0  0  0  0  0  0
    6.4053   -5.1529   -0.0000 C   0  0  0  0  0  0  0  0  0  0  0  0
    3.8289   -5.1409   -0.0000 C   0  0  0  0  0  0  0  0  0  0  0  0
    7.7055   -2.8866   -0.0000 C   0  0  0  0  0  0  0  0  0  0  0  0
   -5.2244   -2.7911   -0.0000 N   0  0  0  0  0  0  0  0  0  0  0  0
   -6.6439   -4.7593   -0.0000 N   0  0  0  0  0  0  0  0  0  0  0  0
    7.6935   -4.3895   -0.0000 O   0  0  0  0  0  0  0  0  0  0  0  0
    6.3934   -6.6200   -0.0000 N   0  0  0  0  0  0  0  0  0  0  0  0
    3.8169   -6.6200   -0.0000 C   0  0  0  0  0  0  0  0  0  0  0  0
    9.1487   -3.2563   -0.0000 C   0  0  0  0  0  0  0  0  0  0  0  0
    8.0752   -1.4194   -0.0000 C   0  0  0  0  0  0  0  0  0  0  0  0
   -6.6677   -2.3140   -0.0000 C   0  0  0  0  0  0  0  0  0  0  0  0
   -7.5504   -3.5307   -0.0000 C   0  0  0  0  0  0  0  0  0  0  0  0
   -7.1091   -6.1787   -0.0000 C   0  0  0  0  0  0  0  0  0  0  0  0
    5.0932   -7.3595   -0.0000 C   0  0  0  0  0  0  0  0  0  0  0  0
    2.5049   -7.3595   -0.0000 C   0  0  0  0  0  0  0  0  0  0  0  0
    9.5185   -1.7892   -0.0000 C   0  0  0  0  0  0  0  0  0  0  0  0
    2.4929   -8.8505   -0.0000 C   0  0  0  0  0  0  0  0  0  0  0  0
    1.1809   -9.5901   -0.0000 C   0  0  0  0  0  0  0  0  0  0  0  0
    3.7812   -9.5901   -0.0000 C   0  0  0  0  0  0  0  0  0  0  0  0
    2.4691  -10.3415   -0.0000 C   0  0  0  0  0  0  0  0  0  0  0  0
  1  2  2  0  0  0  0
  2  3  1  0  0  0  0
  2  4  1  0  0  0  0
  5  3  1  6  0  0  0
  4  6  1  0  0  0  0
  5  7  1  0  0  0  0
  5  8  1  0  0  0  0
  6  9  1  0  0  0  0
  7 10  1  6  0  0  0
  7 11  1  0  0  0  0
  8 12  1  0  0  0  0
 11 13  1  0  0  0  0
 12 14  2  0  0  0  0
 12 15  1  0  0  0  0
 16 13  1  1  0  0  0
 14 17  1  0  0  0  0
 15 18  2  0  0  0  0
 16 19  1  0  0  0  0
 16 20  1  0  0  0  0
 17 21  1  0  0  0  0
 17 22  2  0  0  0  0
 19 23  2  0  0  0  0
 19 24  1  0  0  0  0
 20 25  1  0  0  0  0
 21 26  2  0  0  0  0
 21 27  1  0  0  0  0
 23 28  1  0  0  0  0
 23 29  1  0  0  0  0
 24 30  2  0  0  0  0
 25 31  1  0  0  0  0
 25 32  1  0  0  0  0
 26 33  1  0  0  0  0
 27 34  1  0  0  0  0
 27 35  1  0  0  0  0
 29 36  2  0  0  0  0
 30 37  1  0  0  0  0
 31 38  1  0  0  0  0
 37 39  1  0  0  0  0
 39 40  1  0  0  0  0
 39 41  1  0  0  0  0
 39 42  1  0  0  0  0
 18 22  1  0  0  0  0
 25 28  1  0  0  0  0
 30 36  1  0  0  0  0
 32 38  1  0  0  0  0
 33 34  2  0  0  0  0
M  END
>  <MolRegNo>
1442721

>  <m>
=

>  <Value>
50

>  <Unit>
nM

>  <Type>
IC50

>  <pValue>
7.3

>  <Ligand Efficiency>
0

>  <Binding Efficiency>
0

>  <Surface Efficiency>
0

>  <Assay Index>
696492

>  <Assay Category>


>  <Assay Organism>
Homo sapiens

>  <Target ID>
17045

>  <Target Name>
Cytochrome P450 3A4

>  <Target Organism>
Homo sapiens

>  <Target Description>
Target is a single protein chain

>  <Sequence Accession>
P08684

>  <Reference>
J Med Chem 55 (21), 9025-9044 (2012)

>  <Pubmed ID>
22468684

>  <DOI>
10.1021/jm300118s

$$$$
1442720
Actelion Java MolfileCreator 1.0

 41 45  0  0  0  0  0  0  0  0999 V2000
    0.0000   -0.0000   -0.0000 O   0  0  0  0  0  0  0  0  0  0  0  0
   -1.3111   -0.7390   -0.0000 C   0  0  0  0  0  0  0  0  0  0  0  0
   -1.3230   -2.2288   -0.0000 N   0  0  0  0  0  0  0  0  0  0  0  0
   -2.6222    0.0238   -0.0000 C   0  0  0  0  0  0  0  0  0  0  0  0
   -0.0358   -2.9678   -0.0000 C   0  0  0  0  0  0  0  0  0  0  0  0
   -3.9332   -0.7151   -0.0000 O   0  0  0  0  0  0  0  0  0  0  0  0
    1.2515   -2.2050   -0.0000 C   0  0  0  0  0  0  0  0  0  0  0  0
   -0.0477   -4.4577   -0.0000 C   0  0  0  0  0  0  0  0  0  0  0  0
   -5.2443    0.0477   -0.0000 C   0  0  0  0  0  0  0  0  0  0  0  0
    1.2396   -0.6913   -0.0000 O   0  0  0  0  0  0  0  0  0  0  0  0
    2.5506   -2.9440   -0.0000 C   0  0  0  0  0  0  0  0  0  0  0  0
   -1.3588   -5.2086   -0.0000 C   0  0  0  0  0  0  0  0  0  0  0  0
    3.8379   -2.1812   -0.0000 N   0  0  0  0  0  0  0  0  0  0  0  0
   -2.6698   -4.4458   -0.0000 C   0  0  0  0  0  0  0  0  0  0  0  0
   -1.3707   -6.7104   -0.0000 C   0  0  0  0  0  0  0  0  0  0  0  0
    5.1371   -2.9201   -0.0000 C   0  0  0  0  0  0  0  0  0  0  0  0
   -3.9809   -5.1847   -0.0000 C   0  0  0  0  0  0  0  0  0  0  0  0
   -2.6937   -7.4493   -0.0000 C   0  0  0  0  0  0  0  0  0  0  0  0
    5.1371   -4.4100   -0.0000 C   0  0  0  0  0  0  0  0  0  0  0  0
    6.4124   -2.1454   -0.0000 C   0  0  0  0  0  0  0  0  0  0  0  0
   -5.2205   -4.3146   -0.0000 C   0  0  0  0  0  0  0  0  0  0  0  0
   -3.9928   -6.6865   -0.0000 C   0  0  0  0  0  0  0  0  0  0  0  0
    6.4124   -5.1490   -0.0000 C   0  0  0  0  0  0  0  0  0  0  0  0
    3.8379   -5.1371   -0.0000 C   0  0  0  0  0  0  0  0  0  0  0  0
    7.7115   -2.8844   -0.0000 C   0  0  0  0  0  0  0  0  0  0  0  0
   -6.6508   -4.7914   -0.0000 O   0  0  0  0  0  0  0  0  0  0  0  0
   -5.2562   -2.8009   -0.0000 N   0  0  0  0  0  0  0  0  0  0  0  0
    7.6996   -4.3862   -0.0000 O   0  0  0  0  0  0  0  0  0  0  0  0
    6.4005   -6.6269   -0.0000 N   0  0  0  0  0  0  0  0  0  0  0  0
    3.8260   -6.6150   -0.0000 C   0  0  0  0  0  0  0  0  0  0  0  0
    9.1537   -3.2539   -0.0000 C   0  0  0  0  0  0  0  0  0  0  0  0
    8.0810   -1.4184   -0.0000 C   0  0  0  0  0  0  0  0  0  0  0  0
   -7.5804   -3.5876   -0.0000 C   0  0  0  0  0  0  0  0  0  0  0  0
   -6.7104   -2.3480   -0.0000 C   0  0  0  0  0  0  0  0  0  0  0  0
    5.1013   -7.3659   -0.0000 C   0  0  0  0  0  0  0  0  0  0  0  0
    2.5149   -7.3540   -0.0000 C   0  0  0  0  0  0  0  0  0  0  0  0
    9.5232   -1.7878   -0.0000 C   0  0  0  0  0  0  0  0  0  0  0  0
    2.5030   -8.8438   -0.0000 C   0  0  0  0  0  0  0  0  0  0  0  0
    1.1919   -9.5828   -0.0000 C   0  0  0  0  0  0  0  0  0  0  0  0
    3.7902   -9.5828   -0.0000 C   0  0  0  0  0  0  0  0  0  0  0  0
    2.4791  -10.3337   -0.0000 C   0  0  0  0  0  0  0  0  0  0  0  0
  1  2  2  0  0  0  0
  2  3  1  0  0  0  0
  2  4  1  0  0  0  0
  5  3  1  6  0  0  0
  4  6  1  0  0  0  0
  5  7  1  0  0  0  0
  5  8  1  0  0  0  0
  6  9  1  0  0  0  0
  7 10  1  6  0  0  0
  7 11  1  0  0  0  0
  8 12  1  0  0  0  0
 11 13  1  0  0  0  0
 12 14  2  0  0  0  0
 12 15  1  0  0  0  0
 16 13  1  1  0  0  0
 14 17  1  0  0  0  0
 15 18  2  0  0  0  0
 16 19  1  0  0  0  0
 16 20  1  0  0  0  0
 17 21  1  0  0  0  0
 17 22  2  0  0  0  0
 19 23  2  0  0  0  0
 19 24  1  0  0  0  0
 20 25  1  0  0  0  0
 21 26  1  0  0  0  0
 21 27  2  0  0  0  0
 23 28  1  0  0  0  0
 23 29  1  0  0  0  0
 24 30  2  0  0  0  0
 25 31  1  0  0  0  0
 25 32  1  0  0  0  0
 26 33  1  0  0  0  0
 27 34  1  0  0  0  0
 29 35  2  0  0  0  0
 30 36  1  0  0  0  0
 31 37  1  0  0  0  0
 36 38  1  0  0  0  0
 38 39  1  0  0  0  0
 38 40  1  0  0  0  0
 38 41  1  0  0  0  0
 18 22  1  0  0  0  0
 25 28  1  0  0  0  0
 30 35  1  0  0  0  0
 32 37  1  0  0  0  0
 33 34  2  0  0  0  0
M  END
>  <MolRegNo>
1442720

>  <m>
=

>  <Value>
100

>  <Unit>
nM

>  <Type>
IC50

>  <pValue>
7

>  <Ligand Efficiency>
0

>  <Binding Efficiency>
0

>  <Surface Efficiency>
0

>  <Assay Index>
696492

>  <Assay Category>


>  <Assay Organism>
Homo sapiens

>  <Target ID>
17045

>  <Target Name>
Cytochrome P450 3A4

>  <Target Organism>
Homo sapiens

>  <Target Description>
Target is a single protein chain

>  <Sequence Accession>
P08684

>  <Reference>
J Med Chem 55 (21), 9025-9044 (2012)

>  <Pubmed ID>
22468684

>  <DOI>
10.1021/jm300118s

$$$$
1442719
Actelion Java MolfileCreator 1.0

 42 46  0  0  0  0  0  0  0  0999 V2000
    0.0000   -0.0000   -0.0000 O   0  0  0  0  0  0  0  0  0  0  0  0
   -1.3121   -0.7395   -0.0000 C   0  0  0  0  0  0  0  0  0  0  0  0
   -1.3240   -2.2305   -0.0000 N   0  0  0  0  0  0  0  0  0  0  0  0
   -2.6241    0.0239   -0.0000 C   0  0  0  0  0  0  0  0  0  0  0  0
   -0.0358   -2.9700   -0.0000 C   0  0  0  0  0  0  0  0  0  0  0  0
   -3.9362   -0.7157   -0.0000 O   0  0  0  0  0  0  0  0  0  0  0  0
    1.2524   -2.2066   -0.0000 C   0  0  0  0  0  0  0  0  0  0  0  0
   -0.0477   -4.4610   -0.0000 C   0  0  0  0  0  0  0  0  0  0  0  0
   -5.2482    0.0477   -0.0000 C   0  0  0  0  0  0  0  0  0  0  0  0
    1.2405   -0.6918   -0.0000 O   0  0  0  0  0  0  0  0  0  0  0  0
    2.5406   -2.9462   -0.0000 C   0  0  0  0  0  0  0  0  0  0  0  0
   -1.3598   -5.2005   -0.0000 C   0  0  0  0  0  0  0  0  0  0  0  0
    3.8288   -2.1828   -0.0000 N   0  0  0  0  0  0  0  0  0  0  0  0
   -2.6718   -4.4371   -0.0000 C   0  0  0  0  0  0  0  0  0  0  0  0
   -1.3717   -6.7034   -0.0000 C   0  0  0  0  0  0  0  0  0  0  0  0
    5.1170   -2.9223   -0.0000 C   0  0  0  0  0  0  0  0  0  0  0  0
   -3.9839   -5.1767   -0.0000 C   0  0  0  0  0  0  0  0  0  0  0  0
   -2.6957   -7.4429   -0.0000 C   0  0  0  0  0  0  0  0  0  0  0  0
    5.1170   -4.4133   -0.0000 C   0  0  0  0  0  0  0  0  0  0  0  0
    6.3933   -2.1470   -0.0000 C   0  0  0  0  0  0  0  0  0  0  0  0
   -5.2959   -4.4133   -0.0000 C   0  0  0  0  0  0  0  0  0  0  0  0
   -3.9958   -6.6795   -0.0000 C   0  0  0  0  0  0  0  0  0  0  0  0
    6.3933   -5.1528   -0.0000 C   0  0  0  0  0  0  0  0  0  0  0  0
    3.8169   -5.1409   -0.0000 C   0  0  0  0  0  0  0  0  0  0  0  0
    7.6934   -2.8865   -0.0000 C   0  0  0  0  0  0  0  0  0  0  0  0
   -5.3079   -2.8984   -0.0000 N   0  0  0  0  0  0  0  0  0  0  0  0
   -6.6080   -5.1528   -0.0000 C   0  0  0  0  0  0  0  0  0  0  0  0
    7.6815   -4.3894   -0.0000 O   0  0  0  0  0  0  0  0  0  0  0  0
    6.3814   -6.6199   -0.0000 N   0  0  0  0  0  0  0  0  0  0  0  0
    3.8050   -6.6199   -0.0000 C   0  0  0  0  0  0  0  0  0  0  0  0
    9.1367   -3.2563   -0.0000 C   0  0  0  0  0  0  0  0  0  0  0  0
    8.0632   -1.4194   -0.0000 C   0  0  0  0  0  0  0  0  0  0  0  0
   -6.6199   -2.1351   -0.0000 C   0  0  0  0  0  0  0  0  0  0  0  0
   -7.9200   -4.3894   -0.0000 C   0  0  0  0  0  0  0  0  0  0  0  0
    5.0812   -7.3594   -0.0000 C   0  0  0  0  0  0  0  0  0  0  0  0
    2.4929   -7.3594   -0.0000 C   0  0  0  0  0  0  0  0  0  0  0  0
    9.5064   -1.7892   -0.0000 C   0  0  0  0  0  0  0  0  0  0  0  0
   -7.9320   -2.8746   -0.0000 C   0  0  0  0  0  0  0  0  0  0  0  0
    2.4810   -8.8504   -0.0000 C   0  0  0  0  0  0  0  0  0  0  0  0
    1.1689   -9.5899   -0.0000 C   0  0  0  0  0  0  0  0  0  0  0  0
    3.7692   -9.5899   -0.0000 C   0  0  0  0  0  0  0  0  0  0  0  0
    2.4571  -10.3414   -0.0000 C   0  0  0  0  0  0  0  0  0  0  0  0
  1  2  2  0  0  0  0
  2  3  1  0  0  0  0
  2  4  1  0  0  0  0
  5  3  1  6  0  0  0
  4  6  1  0  0  0  0
  5  7  1  0  0  0  0
  5  8  1  0  0  0  0
  6  9  1  0  0  0  0
  7 10  1  6  0  0  0
  7 11  1  0  0  0  0
  8 12  1  0  0  0  0
 11 13  1  0  0  0  0
 12 14  2  0  0  0  0
 12 15  1  0  0  0  0
 16 13  1  1  0  0  0
 14 17  1  0  0  0  0
 15 18  2  0  0  0  0
 16 19  1  0  0  0  0
 16 20  1  0  0  0  0
 17 21  1  0  0  0  0
 17 22  2  0  0  0  0
 19 23  2  0  0  0  0
 19 24  1  0  0  0  0
 20 25  1  0  0  0  0
 21 26  2  0  0  0  0
 21 27  1  0  0  0  0
 23 28  1  0  0  0  0
 23 29  1  0  0  0  0
 24 30  2  0  0  0  0
 25 31  1  0  0  0  0
 25 32  1  0  0  0  0
 26 33  1  0  0  0  0
 27 34  2  0  0  0  0
 29 35  2  0  0  0  0
 30 36  1  0  0  0  0
 31 37  1  0  0  0  0
 33 38  2  0  0  0  0
 36 39  1  0  0  0  0
 39 40  1  0  0  0  0
 39 41  1  0  0  0  0
 39 42  1  0  0  0  0
 18 22  1  0  0  0  0
 25 28  1  0  0  0  0
 30 35  1  0  0  0  0
 32 37  1  0  0  0  0
 34 38  1  0  0  0  0
M  END
>  <MolRegNo>
1442719

>  <m>
=

>  <Value>
400

>  <Unit>
nM

>  <Type>
IC50

>  <pValue>
6.4

>  <Ligand Efficiency>
0

>  <Binding Efficiency>
0

>  <Surface Efficiency>
0

>  <Assay Index>
696492

>  <Assay Category>


>  <Assay Organism>
Homo sapiens

>  <Target ID>
17045

>  <Target Name>
Cytochrome P450 3A4

>  <Target Organism>
Homo sapiens

>  <Target Description>
Target is a single protein chain

>  <Sequence Accession>
P08684

>  <Reference>
J Med Chem 55 (21), 9025-9044 (2012)

>  <Pubmed ID>
22468684

>  <DOI>
10.1021/jm300118s

$$$$
1442718
Actelion Java MolfileCreator 1.0

 42 46  0  0  0  0  0  0  0  0999 V2000
    0.0000   -0.0000   -0.0000 O   0  0  0  0  0  0  0  0  0  0  0  0
   -1.3111   -0.7390   -0.0000 C   0  0  0  0  0  0  0  0  0  0  0  0
   -1.3230   -2.2289   -0.0000 N   0  0  0  0  0  0  0  0  0  0  0  0
   -2.6342    0.0238   -0.0000 C   0  0  0  0  0  0  0  0  0  0  0  0
   -0.0238   -2.9679   -0.0000 C   0  0  0  0  0  0  0  0  0  0  0  0
   -3.9453   -0.7152   -0.0000 O   0  0  0  0  0  0  0  0  0  0  0  0
    1.2634   -2.2051   -0.0000 C   0  0  0  0  0  0  0  0  0  0  0  0
   -0.0358   -4.4578   -0.0000 C   0  0  0  0  0  0  0  0  0  0  0  0
   -5.2683    0.0477   -0.0000 C   0  0  0  0  0  0  0  0  0  0  0  0
    1.2515   -0.6913   -0.0000 O   0  0  0  0  0  0  0  0  0  0  0  0
    2.5507   -2.9441   -0.0000 C   0  0  0  0  0  0  0  0  0  0  0  0
   -1.3469   -5.1968   -0.0000 C   0  0  0  0  0  0  0  0  0  0  0  0
    3.8380   -2.1812   -0.0000 N   0  0  0  0  0  0  0  0  0  0  0  0
   -2.6580   -4.4340   -0.0000 C   0  0  0  0  0  0  0  0  0  0  0  0
   -1.3588   -6.6987   -0.0000 C   0  0  0  0  0  0  0  0  0  0  0  0
    5.1253   -2.9202   -0.0000 C   0  0  0  0  0  0  0  0  0  0  0  0
   -3.9691   -5.1730   -0.0000 C   0  0  0  0  0  0  0  0  0  0  0  0
   -2.6818   -7.4377   -0.0000 C   0  0  0  0  0  0  0  0  0  0  0  0
    5.1253   -4.4101   -0.0000 C   0  0  0  0  0  0  0  0  0  0  0  0
    6.4007   -2.1455   -0.0000 C   0  0  0  0  0  0  0  0  0  0  0  0
   -5.2803   -4.4101   -0.0000 C   0  0  0  0  0  0  0  0  0  0  0  0
   -3.9811   -6.6748   -0.0000 C   0  0  0  0  0  0  0  0  0  0  0  0
    6.4007   -5.1491   -0.0000 C   0  0  0  0  0  0  0  0  0  0  0  0
    3.8261   -5.1372   -0.0000 C   0  0  0  0  0  0  0  0  0  0  0  0
    7.6999   -2.8845   -0.0000 C   0  0  0  0  0  0  0  0  0  0  0  0
   -5.2922   -2.8964   -0.0000 C   0  0  0  0  0  0  0  0  0  0  0  0
   -6.5914   -5.1491   -0.0000 C   0  0  0  0  0  0  0  0  0  0  0  0
    7.6880   -4.3863   -0.0000 O   0  0  0  0  0  0  0  0  0  0  0  0
    6.3888   -6.6271   -0.0000 N   0  0  0  0  0  0  0  0  0  0  0  0
    3.8142   -6.6152   -0.0000 C   0  0  0  0  0  0  0  0  0  0  0  0
    9.1421   -3.2540   -0.0000 C   0  0  0  0  0  0  0  0  0  0  0  0
    8.0694   -1.4184   -0.0000 C   0  0  0  0  0  0  0  0  0  0  0  0
   -6.6033   -2.1336   -0.0000 C   0  0  0  0  0  0  0  0  0  0  0  0
   -7.9025   -4.3863   -0.0000 C   0  0  0  0  0  0  0  0  0  0  0  0
    5.0895   -7.3661   -0.0000 C   0  0  0  0  0  0  0  0  0  0  0  0
    2.5031   -7.3542   -0.0000 C   0  0  0  0  0  0  0  0  0  0  0  0
    9.5116   -1.7879   -0.0000 C   0  0  0  0  0  0  0  0  0  0  0  0
   -7.9144   -2.8726   -0.0000 N   0  0  0  0  0  0  0  0  0  0  0  0
    2.4911   -8.8441   -0.0000 C   0  0  0  0  0  0  0  0  0  0  0  0
    1.1800   -9.5831   -0.0000 C   0  0  0  0  0  0  0  0  0  0  0  0
    3.7784   -9.5831   -0.0000 C   0  0  0  0  0  0  0  0  0  0  0  0
    2.4673  -10.3340   -0.0000 C   0  0  0  0  0  0  0  0  0  0  0  0
  1  2  2  0  0  0  0
  2  3  1  0  0  0  0
  2  4  1  0  0  0  0
  5  3  1  6  0  0  0
  4  6  1  0  0  0  0
  5  7  1  0  0  0  0
  5  8  1  0  0  0  0
  6  9  1  0  0  0  0
  7 10  1  6  0  0  0
  7 11  1  0  0  0  0
  8 12  1  0  0  0  0
 11 13  1  0  0  0  0
 12 14  2  0  0  0  0
 12 15  1  0  0  0  0
 16 13  1  1  0  0  0
 14 17  1  0  0  0  0
 15 18  2  0  0  0  0
 16 19  1  0  0  0  0
 16 20  1  0  0  0  0
 17 21  1  0  0  0  0
 17 22  2  0  0  0  0
 19 23  2  0  0  0  0
 19 24  1  0  0  0  0
 20 25  1  0  0  0  0
 21 26  2  0  0  0  0
 21 27  1  0  0  0  0
 23 28  1  0  0  0  0
 23 29  1  0  0  0  0
 24 30  2  0  0  0  0
 25 31  1  0  0  0  0
 25 32  1  0  0  0  0
 26 33  1  0  0  0  0
 27 34  2  0  0  0  0
 29 35  2  0  0  0  0
 30 36  1  0  0  0  0
 31 37  1  0  0  0  0
 33 38  2  0  0  0  0
 36 39  1  0  0  0  0
 39 40  1  0  0  0  0
 39 41  1  0  0  0  0
 39 42  1  0  0  0  0
 18 22  1  0  0  0  0
 25 28  1  0  0  0  0
 30 35  1  0  0  0  0
 32 37  1  0  0  0  0
 34 38  1  0  0  0  0
M  END
>  <MolRegNo>
1442718

>  <m>
=

>  <Value>
160

>  <Unit>
nM

>  <Type>
IC50

>  <pValue>
6.8

>  <Ligand Efficiency>
0

>  <Binding Efficiency>
0

>  <Surface Efficiency>
0

>  <Assay Index>
696492

>  <Assay Category>


>  <Assay Organism>
Homo sapiens

>  <Target ID>
17045

>  <Target Name>
Cytochrome P450 3A4

>  <Target Organism>
Homo sapiens

>  <Target Description>
Target is a single protein chain

>  <Sequence Accession>
P08684

>  <Reference>
J Med Chem 55 (21), 9025-9044 (2012)

>  <Pubmed ID>
22468684

>  <DOI>
10.1021/jm300118s

$$$$
1439516
Actelion Java MolfileCreator 1.0

 32 36  0  0  0  0  0  0  0  0999 V2000
    0.0000   -0.0000   -0.0000 S   0  0  0  0  0  0  0  0  0  0  0  0
    1.1016    1.0187   -0.0000 C   0  0  0  0  0  0  0  0  0  0  0  0
    0.6041   -1.3622   -0.0000 C   0  0  0  0  0  0  0  0  0  0  0  0
    2.3927    0.2724   -0.0000 C   0  0  0  0  0  0  0  0  0  0  0  0
    0.9358    2.5230   -0.0000 C   0  0  0  0  0  0  0  0  0  0  0  0
    2.0848   -1.1964   -0.0000 C   0  0  0  0  0  0  0  0  0  0  0  0
   -0.3790    1.7886   -0.0000 N   0  0  0  0  0  0  0  0  0  0  0  0
    0.9239    4.0392   -0.0000 C   0  0  0  0  0  0  0  0  0  0  0  0
    2.3572    2.0729   -0.0000 C   0  0  0  0  0  0  0  0  0  0  0  0
    3.0798   -2.2980   -0.0000 C   0  0  0  0  0  0  0  0  0  0  0  0
   -1.6939    2.5467   -0.0000 C   0  0  0  0  0  0  0  0  0  0  0  0
   -0.3909    4.7973   -0.0000 C   0  0  0  0  0  0  0  0  0  0  0  0
    2.3454    4.5131   -0.0000 C   0  0  0  0  0  0  0  0  0  0  0  0
    3.2338    3.3048   -0.0000 N   0  0  0  0  0  0  0  0  0  0  0  0
    4.5367   -1.9782   -0.0000 C   0  0  0  0  0  0  0  0  0  0  0  0
    2.6060   -3.7194   -0.0000 C   0  0  0  0  0  0  0  0  0  0  0  0
   -3.0087    1.8123   -0.0000 N   0  0  0  0  0  0  0  0  0  0  0  0
   -1.7057    4.0629   -0.0000 N   0  0  0  0  0  0  0  0  0  0  0  0
   -0.4027    6.3135   -0.0000 O   0  0  0  0  0  0  0  0  0  0  0  0
    4.7263    3.3167   -0.0000 C   0  0  0  0  0  0  0  0  0  0  0  0
    5.5317   -3.0798   -0.0000 C   0  0  0  0  0  0  0  0  0  0  0  0
    3.6010   -4.8210   -0.0000 C   0  0  0  0  0  0  0  0  0  0  0  0
   -3.0205    4.8210   -0.0000 C   0  0  0  0  0  0  0  0  0  0  0  0
    5.4725    2.0255   -0.0000 N   0  0  0  0  0  0  0  0  0  0  0  0
    5.4725    4.6315   -0.0000 N   0  0  0  0  0  0  0  0  0  0  0  0
    6.9887   -2.7600   -0.0000 C   0  0  0  0  0  0  0  0  0  0  0  0
    5.0579   -4.5012   -0.0000 C   0  0  0  0  0  0  0  0  0  0  0  0
    6.9650    2.0374   -0.0000 C   0  0  0  0  0  0  0  0  0  0  0  0
    6.9650    4.6434   -0.0000 C   0  0  0  0  0  0  0  0  0  0  0  0
    8.4457   -2.4401   -0.0000 N   0  0  0  0  0  0  0  0  0  0  0  0
    7.7113    3.3522   -0.0000 C   0  0  0  0  0  0  0  0  0  0  0  0
    9.2038    3.3641   -0.0000 F   0  0  0  0  0  0  0  0  0  0  0  0
  1  2  1  0  0  0  0
  1  3  1  0  0  0  0
  2  4  2  0  0  0  0
  5  2  1  1  0  0  0
  3  6  2  0  0  0  0
  5  7  1  0  0  0  0
  5  8  1  0  0  0  0
  5  9  1  0  0  0  0
  6 10  1  0  0  0  0
  7 11  1  0  0  0  0
  8 12  1  0  0  0  0
  8 13  1  6  0  0  0
  9 14  1  0  0  0  0
 10 15  2  0  0  0  0
 10 16  1  0  0  0  0
 11 17  2  0  0  0  0
 11 18  1  0  0  0  0
 12 19  2  0  0  0  0
 14 20  1  0  0  0  0
 15 21  1  0  0  0  0
 16 22  2  0  0  0  0
 18 23  1  0  0  0  0
 20 24  2  0  0  0  0
 20 25  1  0  0  0  0
 21 26  1  0  0  0  0
 21 27  2  0  0  0  0
 24 28  1  0  0  0  0
 25 29  2  0  0  0  0
 26 30  3  0  0  0  0
 28 31  2  0  0  0  0
 31 32  1  0  0  0  0
  4  6  1  0  0  0  0
 12 18  1  0  0  0  0
 13 14  1  0  0  0  0
 22 27  1  0  0  0  0
 29 31  1  0  0  0  0
M  END
>  <MolRegNo>
1439516

>  <m>
=

>  <Value>
1900

>  <Unit>
nM

>  <Type>
IC50

>  <pValue>
5.72

>  <Ligand Efficiency>
0

>  <Binding Efficiency>
0

>  <Surface Efficiency>
0

>  <Assay Index>
697326

>  <Assay Category>


>  <Assay Organism>


>  <Target ID>
17045

>  <Target Name>
Cytochrome P450 3A4

>  <Target Organism>
Homo sapiens

>  <Target Description>
Target is a single protein chain

>  <Sequence Accession>
P08684

>  <Reference>
J Med Chem 55 (21), 9331-9345 (2012)

>  <Pubmed ID>
22989333

>  <DOI>
10.1021/jm301039c

$$$$
1439512
Actelion Java MolfileCreator 1.0

 32 36  0  0  0  0  0  0  0  0999 V2000
    0.0000   -0.0000   -0.0000 S   0  0  0  0  0  0  0  0  0  0  0  0
    1.1021    1.0191   -0.0000 C   0  0  0  0  0  0  0  0  0  0  0  0
    0.6044   -1.3628   -0.0000 C   0  0  0  0  0  0  0  0  0  0  0  0
    2.3938    0.2726   -0.0000 C   0  0  0  0  0  0  0  0  0  0  0  0
    0.9362    2.5241   -0.0000 C   0  0  0  0  0  0  0  0  0  0  0  0
    2.0857   -1.1969   -0.0000 C   0  0  0  0  0  0  0  0  0  0  0  0
   -0.3792    1.7894   -0.0000 N   0  0  0  0  0  0  0  0  0  0  0  0
    0.9243    4.0410   -0.0000 C   0  0  0  0  0  0  0  0  0  0  0  0
    2.3582    2.0738   -0.0000 C   0  0  0  0  0  0  0  0  0  0  0  0
    3.0811   -2.2990   -0.0000 C   0  0  0  0  0  0  0  0  0  0  0  0
   -1.6946    2.5478   -0.0000 C   0  0  0  0  0  0  0  0  0  0  0  0
   -0.3911    4.7994   -0.0000 C   0  0  0  0  0  0  0  0  0  0  0  0
    2.3464    4.5150   -0.0000 C   0  0  0  0  0  0  0  0  0  0  0  0
    3.2352    3.3063   -0.0000 N   0  0  0  0  0  0  0  0  0  0  0  0
    4.5387   -1.9790   -0.0000 C   0  0  0  0  0  0  0  0  0  0  0  0
    2.6071   -3.7210   -0.0000 C   0  0  0  0  0  0  0  0  0  0  0  0
   -3.0100    1.8131   -0.0000 N   0  0  0  0  0  0  0  0  0  0  0  0
   -1.7065    4.0647   -0.0000 N   0  0  0  0  0  0  0  0  0  0  0  0
   -0.4029    6.3163   -0.0000 O   0  0  0  0  0  0  0  0  0  0  0  0
    4.7283    3.3181   -0.0000 C   0  0  0  0  0  0  0  0  0  0  0  0
    5.5341   -3.0811   -0.0000 C   0  0  0  0  0  0  0  0  0  0  0  0
    3.6025   -4.8231   -0.0000 C   0  0  0  0  0  0  0  0  0  0  0  0
   -3.0219    4.8231   -0.0000 C   0  0  0  0  0  0  0  0  0  0  0  0
    5.4630    2.0264   -0.0000 N   0  0  0  0  0  0  0  0  0  0  0  0
    5.4630    4.6335   -0.0000 C   0  0  0  0  0  0  0  0  0  0  0  0
    6.9917   -2.7611   -0.0000 C   0  0  0  0  0  0  0  0  0  0  0  0
    5.0601   -4.5032   -0.0000 C   0  0  0  0  0  0  0  0  0  0  0  0
    6.9562    2.0383   -0.0000 C   0  0  0  0  0  0  0  0  0  0  0  0
    6.9562    4.6454   -0.0000 C   0  0  0  0  0  0  0  0  0  0  0  0
    8.4493   -2.4412   -0.0000 N   0  0  0  0  0  0  0  0  0  0  0  0
    7.6909    3.3537   -0.0000 C   0  0  0  0  0  0  0  0  0  0  0  0
    9.1841    3.3655   -0.0000 F   0  0  0  0  0  0  0  0  0  0  0  0
  1  2  1  0  0  0  0
  1  3  1  0  0  0  0
  2  4  2  0  0  0  0
  5  2  1  1  0  0  0
  3  6  2  0  0  0  0
  5  7  1  0  0  0  0
  5  8  1  0  0  0  0
  5  9  1  0  0  0  0
  6 10  1  0  0  0  0
  7 11  1  0  0  0  0
  8 12  1  0  0  0  0
  8 13  1  6  0  0  0
  9 14  1  0  0  0  0
 10 15  2  0  0  0  0
 10 16  1  0  0  0  0
 11 17  2  0  0  0  0
 11 18  1  0  0  0  0
 12 19  2  0  0  0  0
 14 20  1  0  0  0  0
 15 21  1  0  0  0  0
 16 22  2  0  0  0  0
 18 23  1  0  0  0  0
 20 24  2  0  0  0  0
 20 25  1  0  0  0  0
 21 26  1  0  0  0  0
 21 27  2  0  0  0  0
 24 28  1  0  0  0  0
 25 29  2  0  0  0  0
 26 30  3  0  0  0  0
 28 31  2  0  0  0  0
 31 32  1  0  0  0  0
  4  6  1  0  0  0  0
 12 18  1  0  0  0  0
 13 14  1  0  0  0  0
 22 27  1  0  0  0  0
 29 31  1  0  0  0  0
M  END
>  <MolRegNo>
1439512

>  <m>
=

>  <Value>
6000

>  <Unit>
nM

>  <Type>
IC50

>  <pValue>
5.22

>  <Ligand Efficiency>
0

>  <Binding Efficiency>
0

>  <Surface Efficiency>
0

>  <Assay Index>
697363

>  <Assay Category>


>  <Assay Organism>


>  <Target ID>
17045

>  <Target Name>
Cytochrome P450 3A4

>  <Target Organism>
Homo sapiens

>  <Target Description>
Target is a single protein chain

>  <Sequence Accession>
P08684

>  <Reference>
J Med Chem 55 (21), 9331-9345 (2012)

>  <Pubmed ID>
22989333

>  <DOI>
10.1021/jm301039c

$$$$
1439051
Actelion Java MolfileCreator 1.0

 26 29  0  0  0  0  0  0  0  0999 V2000
    0.0000   -0.0000   -0.0000 Cl  0  0  0  0  0  0  0  0  0  0  0  0
   -0.3181    1.4728   -0.0000 C   0  0  0  0  0  0  0  0  0  0  0  0
   -1.7438    1.9558   -0.0000 C   0  0  0  0  0  0  0  0  0  0  0  0
    0.7894    2.4743   -0.0000 C   0  0  0  0  0  0  0  0  0  0  0  0
   -2.0501    3.4286   -0.0000 C   0  0  0  0  0  0  0  0  0  0  0  0
    0.4713    3.9588   -0.0000 C   0  0  0  0  0  0  0  0  0  0  0  0
   -3.4757    3.9117   -0.0000 C   0  0  0  0  0  0  0  0  0  0  0  0
   -0.9544    4.4301   -0.0000 C   0  0  0  0  0  0  0  0  0  0  0  0
   -4.7011    3.0516   -0.0000 N   0  0  0  0  0  0  0  0  0  0  0  0
   -3.9470    5.3491   -0.0000 C   0  0  0  0  0  0  0  0  0  0  0  0
   -5.9146    3.9470   -0.0000 C   0  0  0  0  0  0  0  0  0  0  0  0
   -5.4551    5.3609   -0.0000 S   0  0  0  0  0  0  0  0  0  0  0  0
   -3.0751    6.5627   -0.0000 N   0  0  0  0  0  0  0  0  0  0  0  0
   -7.3521    3.4993   -0.0000 C   0  0  0  0  0  0  0  0  0  0  0  0
   -3.6878    7.9412   -0.0000 C   0  0  0  0  0  0  0  0  0  0  0  0
   -5.1842    8.1179   -0.0000 O   0  0  0  0  0  0  0  0  0  0  0  0
   -2.8159    9.1547   -0.0000 C   0  0  0  0  0  0  0  0  0  0  0  0
   -1.3314    9.1547   -0.0000 C   0  0  0  0  0  0  0  0  0  0  0  0
   -3.2872   10.5922   -0.0000 C   0  0  0  0  0  0  0  0  0  0  0  0
   -0.3417    8.0590   -0.0000 N   0  0  0  0  0  0  0  0  0  0  0  0
   -0.8719   10.5922   -0.0000 N   0  0  0  0  0  0  0  0  0  0  0  0
   -2.0972   11.4876   -0.0000 N   0  0  0  0  0  0  0  0  0  0  0  0
    1.1193    8.3771   -0.0000 C   0  0  0  0  0  0  0  0  0  0  0  0
    0.5773   10.9221   -0.0000 C   0  0  0  0  0  0  0  0  0  0  0  0
    2.1090    7.2696   -0.0000 N   0  0  0  0  0  0  0  0  0  0  0  0
    1.5788    9.8145   -0.0000 C   0  0  0  0  0  0  0  0  0  0  0  0
  1  2  1  0  0  0  0
  2  3  2  0  0  0  0
  2  4  1  0  0  0  0
  3  5  1  0  0  0  0
  4  6  2  0  0  0  0
  5  7  1  0  0  0  0
  5  8  2  0  0  0  0
  7  9  1  0  0  0  0
  7 10  2  0  0  0  0
  9 11  2  0  0  0  0
 10 12  1  0  0  0  0
 10 13  1  0  0  0  0
 11 14  1  0  0  0  0
 13 15  1  0  0  0  0
 15 16  2  0  0  0  0
 15 17  1  0  0  0  0
 17 18  2  0  0  0  0
 17 19  1  0  0  0  0
 18 20  1  0  0  0  0
 18 21  1  0  0  0  0
 19 22  2  0  0  0  0
 20 23  2  0  0  0  0
 21 24  1  0  0  0  0
 23 25  1  0  0  0  0
 23 26  1  0  0  0  0
  6  8  1  0  0  0  0
 11 12  1  0  0  0  0
 21 22  1  0  0  0  0
 24 26  2  0  0  0  0
M  END
>  <MolRegNo>
1439051

>  <m>
=

>  <Value>
6700

>  <Unit>
nM

>  <Type>
IC50

>  <pValue>
5.17

>  <Ligand Efficiency>
0

>  <Binding Efficiency>
0

>  <Surface Efficiency>
0

>  <Assay Index>
696453

>  <Assay Category>


>  <Assay Organism>


>  <Target ID>
17045

>  <Target Name>
Cytochrome P450 3A4

>  <Target Organism>
Homo sapiens

>  <Target Description>
Target is a single protein chain

>  <Sequence Accession>
P08684

>  <Reference>
J Med Chem 55 (22), 10090-10107 (2012)

>  <Pubmed ID>
23061660

>  <DOI>
10.1021/jm3012239

$$$$
1439046
Actelion Java MolfileCreator 1.0

 24 27  0  0  0  0  0  0  0  0999 V2000
    0.0000   -0.0000   -0.0000 Cl  0  0  0  0  0  0  0  0  0  0  0  0
   -0.3180    1.4724   -0.0000 C   0  0  0  0  0  0  0  0  0  0  0  0
   -1.7434    1.9554   -0.0000 C   0  0  0  0  0  0  0  0  0  0  0  0
    0.7892    2.4737   -0.0000 C   0  0  0  0  0  0  0  0  0  0  0  0
   -2.0496    3.4278   -0.0000 C   0  0  0  0  0  0  0  0  0  0  0  0
    0.4712    3.9579   -0.0000 C   0  0  0  0  0  0  0  0  0  0  0  0
   -3.4750    3.9108   -0.0000 C   0  0  0  0  0  0  0  0  0  0  0  0
   -0.9541    4.4291   -0.0000 C   0  0  0  0  0  0  0  0  0  0  0  0
   -4.7000    3.0509   -0.0000 N   0  0  0  0  0  0  0  0  0  0  0  0
   -3.9461    5.3479   -0.0000 C   0  0  0  0  0  0  0  0  0  0  0  0
   -5.9133    3.9461   -0.0000 N   0  0  0  0  0  0  0  0  0  0  0  0
   -3.0744    6.5612   -0.0000 N   0  0  0  0  0  0  0  0  0  0  0  0
   -5.4539    5.3597   -0.0000 C   0  0  0  0  0  0  0  0  0  0  0  0
   -3.6870    7.9394   -0.0000 C   0  0  0  0  0  0  0  0  0  0  0  0
   -5.1830    8.1161   -0.0000 O   0  0  0  0  0  0  0  0  0  0  0  0
   -2.8153    9.1527   -0.0000 C   0  0  0  0  0  0  0  0  0  0  0  0
   -1.3311    9.1527   -0.0000 C   0  0  0  0  0  0  0  0  0  0  0  0
   -3.2865   10.5898   -0.0000 C   0  0  0  0  0  0  0  0  0  0  0  0
   -0.3416    8.0572   -0.0000 N   0  0  0  0  0  0  0  0  0  0  0  0
   -0.8717   10.5898   -0.0000 N   0  0  0  0  0  0  0  0  0  0  0  0
   -2.0968   11.4850   -0.0000 N   0  0  0  0  0  0  0  0  0  0  0  0
    1.1191    8.3752   -0.0000 C   0  0  0  0  0  0  0  0  0  0  0  0
    0.5772   10.9196   -0.0000 C   0  0  0  0  0  0  0  0  0  0  0  0
    1.5785    9.8123   -0.0000 C   0  0  0  0  0  0  0  0  0  0  0  0
  1  2  1  0  0  0  0
  2  3  2  0  0  0  0
  2  4  1  0  0  0  0
  3  5  1  0  0  0  0
  4  6  2  0  0  0  0
  5  7  1  0  0  0  0
  5  8  2  0  0  0  0
  7  9  2  0  0  0  0
  7 10  1  0  0  0  0
  9 11  1  0  0  0  0
 10 12  1  0  0  0  0
 10 13  2  0  0  0  0
 12 14  1  0  0  0  0
 14 15  2  0  0  0  0
 14 16  1  0  0  0  0
 16 17  2  0  0  0  0
 16 18  1  0  0  0  0
 17 19  1  0  0  0  0
 17 20  1  0  0  0  0
 18 21  2  0  0  0  0
 19 22  2  0  0  0  0
 20 23  1  0  0  0  0
 22 24  1  0  0  0  0
  6  8  1  0  0  0  0
 11 13  1  0  0  0  0
 20 21  1  0  0  0  0
 23 24  2  0  0  0  0
M  END
>  <MolRegNo>
1439046

>  <m>
=

>  <Value>
7200

>  <Unit>
nM

>  <Type>
IC50

>  <pValue>
5.14

>  <Ligand Efficiency>
0

>  <Binding Efficiency>
0

>  <Surface Efficiency>
0

>  <Assay Index>
696453

>  <Assay Category>


>  <Assay Organism>


>  <Target ID>
17045

>  <Target Name>
Cytochrome P450 3A4

>  <Target Organism>
Homo sapiens

>  <Target Description>
Target is a single protein chain

>  <Sequence Accession>
P08684

>  <Reference>
J Med Chem 55 (22), 10090-10107 (2012)

>  <Pubmed ID>
23061660

>  <DOI>
10.1021/jm3012239

$$$$
1439042
Actelion Java MolfileCreator 1.0

 25 28  0  0  0  0  0  0  0  0999 V2000
    0.0000   -0.0000   -0.0000 Cl  0  0  0  0  0  0  0  0  0  0  0  0
   -0.8836   -1.2017   -0.0000 C   0  0  0  0  0  0  0  0  0  0  0  0
   -2.3798   -1.0368   -0.0000 C   0  0  0  0  0  0  0  0  0  0  0  0
   -0.2828   -2.5566   -0.0000 C   0  0  0  0  0  0  0  0  0  0  0  0
   -3.2635   -2.2385   -0.0000 C   0  0  0  0  0  0  0  0  0  0  0  0
   -1.1781   -3.7583   -0.0000 C   0  0  0  0  0  0  0  0  0  0  0  0
   -4.7597   -2.0735   -0.0000 C   0  0  0  0  0  0  0  0  0  0  0  0
   -2.6626   -3.5933   -0.0000 C   0  0  0  0  0  0  0  0  0  0  0  0
   -5.3841   -0.6951   -0.0000 C   0  0  0  0  0  0  0  0  0  0  0  0
   -5.6433   -3.2752   -0.0000 C   0  0  0  0  0  0  0  0  0  0  0  0
   -4.5123    0.5184   -0.0000 N   0  0  0  0  0  0  0  0  0  0  0  0
   -6.8804   -0.5184   -0.0000 C   0  0  0  0  0  0  0  0  0  0  0  0
   -7.1513   -3.1103   -0.0000 N   0  0  0  0  0  0  0  0  0  0  0  0
   -5.1249    1.8968   -0.0000 C   0  0  0  0  0  0  0  0  0  0  0  0
   -7.7757   -1.7083   -0.0000 C   0  0  0  0  0  0  0  0  0  0  0  0
   -6.6212    2.0735   -0.0000 O   0  0  0  0  0  0  0  0  0  0  0  0
   -4.2531    3.1103   -0.0000 C   0  0  0  0  0  0  0  0  0  0  0  0
   -2.7686    3.1103   -0.0000 C   0  0  0  0  0  0  0  0  0  0  0  0
   -4.7244    4.5476   -0.0000 C   0  0  0  0  0  0  0  0  0  0  0  0
   -1.7790    2.0028   -0.0000 N   0  0  0  0  0  0  0  0  0  0  0  0
   -2.3092    4.5476   -0.0000 N   0  0  0  0  0  0  0  0  0  0  0  0
   -3.5344    5.4430   -0.0000 N   0  0  0  0  0  0  0  0  0  0  0  0
   -0.3181    2.3209   -0.0000 C   0  0  0  0  0  0  0  0  0  0  0  0
   -0.8483    4.8775   -0.0000 C   0  0  0  0  0  0  0  0  0  0  0  0
    0.1414    3.7583   -0.0000 C   0  0  0  0  0  0  0  0  0  0  0  0
  1  2  1  0  0  0  0
  2  3  2  0  0  0  0
  2  4  1  0  0  0  0
  3  5  1  0  0  0  0
  4  6  2  0  0  0  0
  5  7  1  0  0  0  0
  5  8  2  0  0  0  0
  7  9  2  0  0  0  0
  7 10  1  0  0  0  0
  9 11  1  0  0  0  0
  9 12  1  0  0  0  0
 10 13  2  0  0  0  0
 11 14  1  0  0  0  0
 12 15  2  0  0  0  0
 14 16  2  0  0  0  0
 14 17  1  0  0  0  0
 17 18  2  0  0  0  0
 17 19  1  0  0  0  0
 18 20  1  0  0  0  0
 18 21  1  0  0  0  0
 19 22  2  0  0  0  0
 20 23  2  0  0  0  0
 21 24  1  0  0  0  0
 23 25  1  0  0  0  0
  6  8  1  0  0  0  0
 13 15  1  0  0  0  0
 21 22  1  0  0  0  0
 24 25  2  0  0  0  0
M  END
>  <MolRegNo>
1439042

>  <m>
=

>  <Value>
200

>  <Unit>
nM

>  <Type>
IC50

>  <pValue>
6.7

>  <Ligand Efficiency>
0

>  <Binding Efficiency>
0

>  <Surface Efficiency>
0

>  <Assay Index>
696453

>  <Assay Category>


>  <Assay Organism>


>  <Target ID>
17045

>  <Target Name>
Cytochrome P450 3A4

>  <Target Organism>
Homo sapiens

>  <Target Description>
Target is a single protein chain

>  <Sequence Accession>
P08684

>  <Reference>
J Med Chem 55 (22), 10090-10107 (2012)

>  <Pubmed ID>
23061660

>  <DOI>
10.1021/jm3012239

$$$$
1439605
Actelion Java MolfileCreator 1.0

 25 28  0  0  0  0  0  0  0  0999 V2000
    0.0000   -0.0000   -0.0000 Cl  0  0  0  0  0  0  0  0  0  0  0  0
   -1.1206   -0.9909   -0.0000 C   0  0  0  0  0  0  0  0  0  0  0  0
   -2.5480   -0.5190   -0.0000 C   0  0  0  0  0  0  0  0  0  0  0  0
   -0.8257   -2.4536   -0.0000 C   0  0  0  0  0  0  0  0  0  0  0  0
   -3.6686   -1.4981   -0.0000 C   0  0  0  0  0  0  0  0  0  0  0  0
   -1.9582   -3.4327   -0.0000 C   0  0  0  0  0  0  0  0  0  0  0  0
   -5.0959   -1.0145   -0.0000 N   0  0  0  0  0  0  0  0  0  0  0  0
   -3.3855   -2.9490   -0.0000 C   0  0  0  0  0  0  0  0  0  0  0  0
   -6.3227   -1.8756   -0.0000 N   0  0  0  0  0  0  0  0  0  0  0  0
   -5.5678    0.4247   -0.0000 C   0  0  0  0  0  0  0  0  0  0  0  0
   -7.5377   -0.9791   -0.0000 C   0  0  0  0  0  0  0  0  0  0  0  0
   -4.6949    1.6397   -0.0000 N   0  0  0  0  0  0  0  0  0  0  0  0
   -7.0777    0.4365   -0.0000 C   0  0  0  0  0  0  0  0  0  0  0  0
   -8.9768   -1.4273   -0.0000 C   0  0  0  0  0  0  0  0  0  0  0  0
   -5.3082    3.0198   -0.0000 C   0  0  0  0  0  0  0  0  0  0  0  0
   -6.8064    3.1967   -0.0000 O   0  0  0  0  0  0  0  0  0  0  0  0
   -4.4353    4.2348   -0.0000 C   0  0  0  0  0  0  0  0  0  0  0  0
   -2.9490    4.2348   -0.0000 C   0  0  0  0  0  0  0  0  0  0  0  0
   -4.9072    5.6739   -0.0000 C   0  0  0  0  0  0  0  0  0  0  0  0
   -1.9582    3.1378   -0.0000 N   0  0  0  0  0  0  0  0  0  0  0  0
   -2.4890    5.6739   -0.0000 N   0  0  0  0  0  0  0  0  0  0  0  0
   -3.7158    6.5704   -0.0000 N   0  0  0  0  0  0  0  0  0  0  0  0
   -0.4954    3.4563   -0.0000 C   0  0  0  0  0  0  0  0  0  0  0  0
   -1.0381    6.0042   -0.0000 C   0  0  0  0  0  0  0  0  0  0  0  0
   -0.0354    4.8954   -0.0000 C   0  0  0  0  0  0  0  0  0  0  0  0
  1  2  1  0  0  0  0
  2  3  2  0  0  0  0
  2  4  1  0  0  0  0
  3  5  1  0  0  0  0
  4  6  2  0  0  0  0
  5  7  1  0  0  0  0
  5  8  2  0  0  0  0
  7  9  1  0  0  0  0
  7 10  1  0  0  0  0
  9 11  2  0  0  0  0
 10 12  1  0  0  0  0
 10 13  2  0  0  0  0
 11 14  1  0  0  0  0
 12 15  1  0  0  0  0
 15 16  2  0  0  0  0
 15 17  1  0  0  0  0
 17 18  2  0  0  0  0
 17 19  1  0  0  0  0
 18 20  1  0  0  0  0
 18 21  1  0  0  0  0
 19 22  2  0  0  0  0
 20 23  2  0  0  0  0
 21 24  1  0  0  0  0
 23 25  1  0  0  0  0
  6  8  1  0  0  0  0
 11 13  1  0  0  0  0
 21 22  1  0  0  0  0
 24 25  2  0  0  0  0
M  END
>  <MolRegNo>
1439605

>  <m>
=

>  <Value>
4600

>  <Unit>
nM

>  <Type>
IC50

>  <pValue>
5.34

>  <Ligand Efficiency>
0

>  <Binding Efficiency>
0

>  <Surface Efficiency>
0

>  <Assay Index>
696453

>  <Assay Category>


>  <Assay Organism>


>  <Target ID>
17045

>  <Target Name>
Cytochrome P450 3A4

>  <Target Organism>
Homo sapiens

>  <Target Description>
Target is a single protein chain

>  <Sequence Accession>
P08684

>  <Reference>
J Med Chem 55 (22), 10090-10107 (2012)

>  <Pubmed ID>
23061660

>  <DOI>
10.1021/jm3012239

$$$$
1441725
Actelion Java MolfileCreator 1.0

 36 39  0  0  0  0  0  0  0  0999 V2000
    0.0000   -0.0000   -0.0000 S   0  0  0  0  0  0  0  0  0  0  0  0
   -0.7811   -1.2782   -0.0000 O   0  0  0  0  0  0  0  0  0  0  0  0
    0.7219   -1.2782   -0.0000 O   0  0  0  0  0  0  0  0  0  0  0  0
   -1.3137    0.7575   -0.0000 N   0  0  0  0  0  0  0  0  0  0  0  0
    1.2900    0.7693   -0.0000 C   0  0  0  0  0  0  0  0  0  0  0  0
   -2.6156    0.0237   -0.0000 C   0  0  0  0  0  0  0  0  0  0  0  0
   -1.3255    2.2724   -0.0000 C   0  0  0  0  0  0  0  0  0  0  0  0
    2.5682    0.0237   -0.0000 C   0  0  0  0  0  0  0  0  0  0  0  0
    1.2664    2.2724   -0.0000 C   0  0  0  0  0  0  0  0  0  0  0  0
   -2.6274   -1.4676   -0.0000 C   0  0  0  0  0  0  0  0  0  0  0  0
   -3.9293    0.7811   -0.0000 C   0  0  0  0  0  0  0  0  0  0  0  0
   -0.5918    3.5861   -0.0000 C   0  0  0  0  0  0  0  0  0  0  0  0
   -2.0830    3.5861   -0.0000 C   0  0  0  0  0  0  0  0  0  0  0  0
    3.8583    0.7811   -0.0000 C   0  0  0  0  0  0  0  0  0  0  0  0
    2.5446    3.0416   -0.0000 C   0  0  0  0  0  0  0  0  0  0  0  0
   -3.9411   -2.2013   -0.0000 C   0  0  0  0  0  0  0  0  0  0  0  0
   -5.2430    0.0473   -0.0000 C   0  0  0  0  0  0  0  0  0  0  0  0
    3.8464    2.2960   -0.0000 C   0  0  0  0  0  0  0  0  0  0  0  0
    5.1483    0.0473   -0.0000 C   0  0  0  0  0  0  0  0  0  0  0  0
   -5.2548   -1.4439   -0.0000 N   0  0  0  0  0  0  0  0  0  0  0  0
    5.1365   -1.4439   -0.0000 F   0  0  0  0  0  0  0  0  0  0  0  0
    6.4384    0.8048   -0.0000 F   0  0  0  0  0  0  0  0  0  0  0  0
    6.4265   -0.6864   -0.0000 F   0  0  0  0  0  0  0  0  0  0  0  0
   -6.5567   -2.1777   -0.0000 C   0  0  0  0  0  0  0  0  0  0  0  0
   -6.5685   -3.6689   -0.0000 O   0  0  0  0  0  0  0  0  0  0  0  0
   -7.8704   -1.4202   -0.0000 C   0  0  0  0  0  0  0  0  0  0  0  0
   -9.1841   -2.1540   -0.0000 C   0  0  0  0  0  0  0  0  0  0  0  0
   -7.8822    0.0947   -0.0000 C   0  0  0  0  0  0  0  0  0  0  0  0
   -9.1960   -3.6452   -0.0000 S   0  0  0  0  0  0  0  0  0  0  0  0
  -10.4860   -1.3966   -0.0000 C   0  0  0  0  0  0  0  0  0  0  0  0
   -9.1960    0.8521   -0.0000 C   0  0  0  0  0  0  0  0  0  0  0  0
   -8.8172   -5.0773   -0.0000 O   0  0  0  0  0  0  0  0  0  0  0  0
   -7.7047   -3.6216   -0.0000 O   0  0  0  0  0  0  0  0  0  0  0  0
  -10.5097   -4.3790   -0.0000 C   0  0  0  0  0  0  0  0  0  0  0  0
  -10.4978    0.1184   -0.0000 C   0  0  0  0  0  0  0  0  0  0  0  0
   -9.2078    2.3670   -0.0000 F   0  0  0  0  0  0  0  0  0  0  0  0
  1  2  2  0  0  0  0
  1  3  2  0  0  0  0
  1  4  1  0  0  0  0
  1  5  1  0  0  0  0
  4  6  1  0  0  0  0
  4  7  1  0  0  0  0
  5  8  2  0  0  0  0
  5  9  1  0  0  0  0
  6 10  1  0  0  0  0
  6 11  1  0  0  0  0
  7 12  1  0  0  0  0
  7 13  1  0  0  0  0
  8 14  1  0  0  0  0
  9 15  2  0  0  0  0
 10 16  1  0  0  0  0
 11 17  1  0  0  0  0
 14 18  2  0  0  0  0
 14 19  1  0  0  0  0
 16 20  1  0  0  0  0
 19 21  1  0  0  0  0
 19 22  1  0  0  0  0
 19 23  1  0  0  0  0
 20 24  1  0  0  0  0
 24 25  2  0  0  0  0
 24 26  1  0  0  0  0
 26 27  2  0  0  0  0
 26 28  1  0  0  0  0
 27 29  1  0  0  0  0
 27 30  1  0  0  0  0
 28 31  2  0  0  0  0
 29 32  2  0  0  0  0
 29 33  2  0  0  0  0
 29 34  1  0  0  0  0
 30 35  2  0  0  0  0
 31 36  1  0  0  0  0
 12 13  1  0  0  0  0
 15 18  1  0  0  0  0
 17 20  1  0  0  0  0
 31 35  1  0  0  0  0
M  END
>  <MolRegNo>
1441725

>  <m>
=

>  <Value>
5100

>  <Unit>
nM

>  <Type>
IC50

>  <pValue>
5.29

>  <Ligand Efficiency>
0

>  <Binding Efficiency>
0

>  <Surface Efficiency>
0

>  <Assay Index>
700769

>  <Assay Category>


>  <Assay Organism>


>  <Target ID>
17045

>  <Target Name>
Cytochrome P450 3A4

>  <Target Organism>
Homo sapiens

>  <Target Description>
Target is a single protein chain

>  <Sequence Accession>
P08684

>  <Reference>
J Med Chem 55 (22), 9847-9855 (2012)

>  <Pubmed ID>
23098566

>  <DOI>
10.1021/jm301056k

$$$$
1439540
Actelion Java MolfileCreator 1.0

 30 33  0  0  0  0  0  0  0  0999 V2000
    0.0000   -0.0000   -0.0000 Cl  0  0  0  0  0  0  0  0  0  0  0  0
   -1.5127    0.0238   -0.0000 C   0  0  0  0  0  0  0  0  0  0  0  0
   -2.2868   -1.2506   -0.0000 C   0  0  0  0  0  0  0  0  0  0  0  0
   -2.2630    1.3340   -0.0000 C   0  0  0  0  0  0  0  0  0  0  0  0
   -3.7876   -1.2268   -0.0000 C   0  0  0  0  0  0  0  0  0  0  0  0
   -3.7638    1.3578   -0.0000 C   0  0  0  0  0  0  0  0  0  0  0  0
   -4.5618   -2.5131   -0.0000 N   0  0  0  0  0  0  0  0  0  0  0  0
   -4.5260    0.0834   -0.0000 C   0  0  0  0  0  0  0  0  0  0  0  0
   -3.8352   -3.8114   -0.0000 S   0  0  0  0  0  0  0  0  0  0  0  0
   -6.0625   -2.5012   -0.0000 C   0  0  0  0  0  0  0  0  0  0  0  0
   -6.0387    0.1072   -0.0000 O   0  0  0  0  0  0  0  0  0  0  0  0
   -2.5489   -3.0372   -0.0000 O   0  0  0  0  0  0  0  0  0  0  0  0
   -2.5370   -4.5499   -0.0000 O   0  0  0  0  0  0  0  0  0  0  0  0
   -4.5618   -5.1216   -0.0000 C   0  0  0  0  0  0  0  0  0  0  0  0
   -6.8129   -1.1792   -0.0000 C   0  0  0  0  0  0  0  0  0  0  0  0
   -3.7876   -6.3841   -0.0000 C   0  0  0  0  0  0  0  0  0  0  0  0
   -6.0744   -5.1454   -0.0000 C   0  0  0  0  0  0  0  0  0  0  0  0
   -4.5141   -7.6943   -0.0000 C   0  0  0  0  0  0  0  0  0  0  0  0
   -6.8129   -6.4556   -0.0000 C   0  0  0  0  0  0  0  0  0  0  0  0
   -3.7399   -8.9687   -0.0000 N   0  0  0  0  0  0  0  0  0  0  0  0
   -6.0387   -7.7181   -0.0000 C   0  0  0  0  0  0  0  0  0  0  0  0
   -2.2511   -8.9092   -0.0000 C   0  0  0  0  0  0  0  0  0  0  0  0
   -6.7653   -9.0283   -0.0000 O   0  0  0  0  0  0  0  0  0  0  0  0
   -1.4769  -10.1836   -0.0000 C   0  0  0  0  0  0  0  0  0  0  0  0
   -1.5484   -7.5752   -0.0000 C   0  0  0  0  0  0  0  0  0  0  0  0
   -8.2779   -9.0521   -0.0000 C   0  0  0  0  0  0  0  0  0  0  0  0
    0.0119  -10.1360   -0.0000 C   0  0  0  0  0  0  0  0  0  0  0  0
   -0.0476   -7.5275   -0.0000 C   0  0  0  0  0  0  0  0  0  0  0  0
    0.7265   -8.8020   -0.0000 N   0  0  0  0  0  0  0  0  0  0  0  0
    2.2154   -8.7543   -0.0000 C   0  0  0  0  0  0  0  0  0  0  0  0
  1  2  1  0  0  0  0
  2  3  2  0  0  0  0
  2  4  1  0  0  0  0
  3  5  1  0  0  0  0
  4  6  2  0  0  0  0
  5  7  1  0  0  0  0
  5  8  2  0  0  0  0
  7  9  1  0  0  0  0
  7 10  1  0  0  0  0
  8 11  1  0  0  0  0
  9 12  2  0  0  0  0
  9 13  2  0  0  0  0
  9 14  1  0  0  0  0
 10 15  1  0  0  0  0
 14 16  2  0  0  0  0
 14 17  1  0  0  0  0
 16 18  1  0  0  0  0
 17 19  2  0  0  0  0
 18 20  1  0  0  0  0
 18 21  2  0  0  0  0
 20 22  1  0  0  0  0
 21 23  1  0  0  0  0
 22 24  1  0  0  0  0
 22 25  1  0  0  0  0
 23 26  1  0  0  0  0
 24 27  1  0  0  0  0
 25 28  1  0  0  0  0
 27 29  1  0  0  0  0
 29 30  1  0  0  0  0
  6  8  1  0  0  0  0
 11 15  1  0  0  0  0
 19 21  1  0  0  0  0
 28 29  1  0  0  0  0
M  END
>  <MolRegNo>
1439540

>  <m>
=

>  <Value>
2800

>  <Unit>
nM

>  <Type>
IC50

>  <pValue>
5.55

>  <Ligand Efficiency>
0

>  <Binding Efficiency>
0

>  <Surface Efficiency>
0

>  <Assay Index>
698296

>  <Assay Category>


>  <Assay Organism>
Homo sapiens

>  <Target ID>
17045

>  <Target Name>
Cytochrome P450 3A4

>  <Target Organism>
Homo sapiens

>  <Target Description>
Target is a single protein chain

>  <Sequence Accession>
P08684

>  <Reference>
J Med Chem 55 (21), 9255-9269 (2012)

>  <Pubmed ID>
23006002

>  <DOI>
10.1021/jm300955x

$$$$
1852421
Actelion Java MolfileCreator 1.0

 40 42  0  0  0  0  0  0  0  0999 V2000
    0.0000   -0.0000   -0.0000 Cl  0  0  0  0  0  0  0  0  0  0  0  0
    1.2895   -0.7403   -0.0000 C   0  0  0  0  0  0  0  0  0  0  0  0
    2.5790    0.0239   -0.0000 C   0  0  0  0  0  0  0  0  0  0  0  0
    1.2776   -2.2328   -0.0000 C   0  0  0  0  0  0  0  0  0  0  0  0
    3.8685   -0.7164   -0.0000 C   0  0  0  0  0  0  0  0  0  0  0  0
    2.5671   -2.9730   -0.0000 C   0  0  0  0  0  0  0  0  0  0  0  0
    3.8566   -2.2208   -0.0000 C   0  0  0  0  0  0  0  0  0  0  0  0
    5.3013   -0.2388   -0.0000 C   0  0  0  0  0  0  0  0  0  0  0  0
    5.2894   -2.6745   -0.0000 N   0  0  0  0  0  0  0  0  0  0  0  0
    6.1849   -1.4567   -0.0000 N   0  0  0  0  0  0  0  0  0  0  0  0
    5.7550    1.2059   -0.0000 C   0  0  0  0  0  0  0  0  0  0  0  0
    5.7431   -4.0954   -0.0000 S   0  0  0  0  0  0  0  0  0  0  0  0
    7.0326   -3.3193   -0.0000 O   0  0  0  0  0  0  0  0  0  0  0  0
    7.0446   -4.8237   -0.0000 O   0  0  0  0  0  0  0  0  0  0  0  0
    5.0148   -5.4088   -0.0000 C   0  0  0  0  0  0  0  0  0  0  0  0
    5.7909   -6.6744   -0.0000 C   0  0  0  0  0  0  0  0  0  0  0  0
    3.4984   -5.4327   -0.0000 C   0  0  0  0  0  0  0  0  0  0  0  0
    5.0625   -7.9878   -0.0000 C   0  0  0  0  0  0  0  0  0  0  0  0
    2.7701   -6.7461   -0.0000 C   0  0  0  0  0  0  0  0  0  0  0  0
    5.8386   -9.2534   -0.0000 N   0  0  0  0  0  0  0  0  0  0  0  0
    3.5342   -8.0117   -0.0000 C   0  0  0  0  0  0  0  0  0  0  0  0
    7.3311   -9.2057   -0.0000 C   0  0  0  0  0  0  0  0  0  0  0  0
    2.8059   -9.3251   -0.0000 O   0  0  0  0  0  0  0  0  0  0  0  0
    8.1072  -10.4713   -0.0000 C   0  0  0  0  0  0  0  0  0  0  0  0
    8.0356   -7.8684   -0.0000 C   0  0  0  0  0  0  0  0  0  0  0  0
    1.2895   -9.3490   -0.0000 C   0  0  0  0  0  0  0  0  0  0  0  0
    9.5878  -10.4235   -0.0000 C   0  0  0  0  0  0  0  0  0  0  0  0
    9.5281   -7.8206   -0.0000 C   0  0  0  0  0  0  0  0  0  0  0  0
   10.3042   -9.0863   -0.0000 N   0  0  0  0  0  0  0  0  0  0  0  0
   11.7966   -9.0385   -0.0000 C   0  0  0  0  0  0  0  0  0  0  0  0
   10.0295   -5.4446   -0.0000 O   0  0  0  0  0  0  0  0  0  0  0  0
   10.0176   -3.9282   -0.0000 C   0  0  0  0  0  0  0  0  0  0  0  0
    8.7042   -3.1641   -0.0000 O   0  0  0  0  0  0  0  0  0  0  0  0
   11.3071   -3.1641   -0.0000 C   0  0  0  0  0  0  0  0  0  0  0  0
   11.2952   -1.6477   -0.0000 O   0  0  0  0  0  0  0  0  0  0  0  0
   12.5966   -3.9044   -0.0000 C   0  0  0  0  0  0  0  0  0  0  0  0
   12.5847   -5.3968   -0.0000 O   0  0  0  0  0  0  0  0  0  0  0  0
   13.8861   -3.1402   -0.0000 C   0  0  0  0  0  0  0  0  0  0  0  0
   13.8861   -1.6238   -0.0000 O   0  0  0  0  0  0  0  0  0  0  0  0
   15.1876   -3.8805   -0.0000 O   0  0  0  0  0  0  0  0  0  0  0  0
  1  2  1  0  0  0  0
  2  3  2  0  0  0  0
  2  4  1  0  0  0  0
  3  5  1  0  0  0  0
  4  6  2  0  0  0  0
  5  7  2  0  0  0  0
  5  8  1  0  0  0  0
  7  9  1  0  0  0  0
  8 10  2  0  0  0  0
  8 11  1  0  0  0  0
  9 12  1  0  0  0  0
 12 13  2  0  0  0  0
 12 14  2  0  0  0  0
 12 15  1  0  0  0  0
 15 16  2  0  0  0  0
 15 17  1  0  0  0  0
 16 18  1  0  0  0  0
 17 19  2  0  0  0  0
 18 20  1  0  0  0  0
 18 21  2  0  0  0  0
 20 22  1  0  0  0  0
 21 23  1  0  0  0  0
 22 24  1  0  0  0  0
 22 25  1  0  0  0  0
 23 26  1  0  0  0  0
 24 27  1  0  0  0  0
 25 28  1  0  0  0  0
 27 29  1  0  0  0  0
 29 30  1  0  0  0  0
 31 32  2  0  0  0  0
 32 33  1  0  0  0  0
 32 34  1  0  0  0  0
 34 35  1  1  0  0  0
 34 36  1  0  0  0  0
 36 37  1  1  0  0  0
 36 38  1  0  0  0  0
 38 39  2  0  0  0  0
 38 40  1  0  0  0  0
  6  7  1  0  0  0  0
  9 10  1  0  0  0  0
 19 21  1  0  0  0  0
 28 29  1  0  0  0  0
M  END
>  <MolRegNo>
1852421

>  <m>
=

>  <Value>
10000

>  <Unit>
nM

>  <Type>
IC50

>  <pValue>
5

>  <Ligand Efficiency>
0

>  <Binding Efficiency>
0

>  <Surface Efficiency>
0

>  <Assay Index>
698296

>  <Assay Category>


>  <Assay Organism>
Homo sapiens

>  <Target ID>
17045

>  <Target Name>
Cytochrome P450 3A4

>  <Target Organism>
Homo sapiens

>  <Target Description>
Target is a single protein chain

>  <Sequence Accession>
P08684

>  <Reference>
J Med Chem 55 (21), 9255-9269 (2012)

>  <Pubmed ID>
23006002

>  <DOI>
10.1021/jm300955x

$$$$
1440025
Actelion Java MolfileCreator 1.0

 30 33  0  0  0  0  0  0  0  0999 V2000
    0.0000   -0.0000   -0.0000 Cl  0  0  0  0  0  0  0  0  0  0  0  0
    1.2877   -0.7393   -0.0000 C   0  0  0  0  0  0  0  0  0  0  0  0
    1.2758   -2.2416   -0.0000 C   0  0  0  0  0  0  0  0  0  0  0  0
    2.5755    0.0238   -0.0000 C   0  0  0  0  0  0  0  0  0  0  0  0
    2.5755   -2.9809   -0.0000 N   0  0  0  0  0  0  0  0  0  0  0  0
    3.8751   -0.7154   -0.0000 C   0  0  0  0  0  0  0  0  0  0  0  0
    3.8632   -2.2178   -0.0000 C   0  0  0  0  0  0  0  0  0  0  0  0
    5.3059   -0.2385   -0.0000 C   0  0  0  0  0  0  0  0  0  0  0  0
    5.2940   -2.6709   -0.0000 N   0  0  0  0  0  0  0  0  0  0  0  0
    6.1883   -1.4547   -0.0000 C   0  0  0  0  0  0  0  0  0  0  0  0
    5.7590    1.2043   -0.0000 C   0  0  0  0  0  0  0  0  0  0  0  0
    5.7471   -4.0898   -0.0000 S   0  0  0  0  0  0  0  0  0  0  0  0
    7.0349   -3.3147   -0.0000 O   0  0  0  0  0  0  0  0  0  0  0  0
    7.0468   -4.8290   -0.0000 O   0  0  0  0  0  0  0  0  0  0  0  0
    5.0198   -5.4013   -0.0000 C   0  0  0  0  0  0  0  0  0  0  0  0
    5.7948   -6.6652   -0.0000 C   0  0  0  0  0  0  0  0  0  0  0  0
    3.5055   -5.4252   -0.0000 C   0  0  0  0  0  0  0  0  0  0  0  0
    5.0675   -7.9768   -0.0000 C   0  0  0  0  0  0  0  0  0  0  0  0
    2.7662   -6.7368   -0.0000 C   0  0  0  0  0  0  0  0  0  0  0  0
    5.8425   -9.2526   -0.0000 N   0  0  0  0  0  0  0  0  0  0  0  0
    3.5413   -8.0007   -0.0000 C   0  0  0  0  0  0  0  0  0  0  0  0
    7.3329   -9.1930   -0.0000 C   0  0  0  0  0  0  0  0  0  0  0  0
    2.8139   -9.3122   -0.0000 O   0  0  0  0  0  0  0  0  0  0  0  0
    8.1080  -10.4688   -0.0000 C   0  0  0  0  0  0  0  0  0  0  0  0
    8.0364   -7.8576   -0.0000 C   0  0  0  0  0  0  0  0  0  0  0  0
    1.2997   -9.3361   -0.0000 C   0  0  0  0  0  0  0  0  0  0  0  0
    9.5984  -10.4211   -0.0000 C   0  0  0  0  0  0  0  0  0  0  0  0
    9.5388   -7.8099   -0.0000 C   0  0  0  0  0  0  0  0  0  0  0  0
   10.3138   -9.0857   -0.0000 N   0  0  0  0  0  0  0  0  0  0  0  0
   11.8042   -9.0380   -0.0000 C   0  0  0  0  0  0  0  0  0  0  0  0
  1  2  1  0  0  0  0
  2  3  2  0  0  0  0
  2  4  1  0  0  0  0
  3  5  1  0  0  0  0
  4  6  2  0  0  0  0
  5  7  2  0  0  0  0
  6  8  1  0  0  0  0
  7  9  1  0  0  0  0
  8 10  2  0  0  0  0
  8 11  1  0  0  0  0
  9 12  1  0  0  0  0
 12 13  2  0  0  0  0
 12 14  2  0  0  0  0
 12 15  1  0  0  0  0
 15 16  2  0  0  0  0
 15 17  1  0  0  0  0
 16 18  1  0  0  0  0
 17 19  2  0  0  0  0
 18 20  1  0  0  0  0
 18 21  2  0  0  0  0
 20 22  1  0  0  0  0
 21 23  1  0  0  0  0
 22 24  1  0  0  0  0
 22 25  1  0  0  0  0
 23 26  1  0  0  0  0
 24 27  1  0  0  0  0
 25 28  1  0  0  0  0
 27 29  1  0  0  0  0
 29 30  1  0  0  0  0
  6  7  1  0  0  0  0
  9 10  1  0  0  0  0
 19 21  1  0  0  0  0
 28 29  1  0  0  0  0
M  END
>  <MolRegNo>
1440025

>  <m>
=

>  <Value>
10000

>  <Unit>
nM

>  <Type>
IC50

>  <pValue>
5

>  <Ligand Efficiency>
0

>  <Binding Efficiency>
0

>  <Surface Efficiency>
0

>  <Assay Index>
698296

>  <Assay Category>


>  <Assay Organism>
Homo sapiens

>  <Target ID>
17045

>  <Target Name>
Cytochrome P450 3A4

>  <Target Organism>
Homo sapiens

>  <Target Description>
Target is a single protein chain

>  <Sequence Accession>
P08684

>  <Reference>
J Med Chem 55 (21), 9255-9269 (2012)

>  <Pubmed ID>
23006002

>  <DOI>
10.1021/jm300955x

$$$$
1440020
Actelion Java MolfileCreator 1.0

 30 33  0  0  0  0  0  0  0  0999 V2000
    0.0000   -0.0000   -0.0000 Cl  0  0  0  0  0  0  0  0  0  0  0  0
    1.2906   -0.7409   -0.0000 C   0  0  0  0  0  0  0  0  0  0  0  0
    2.5813    0.0239   -0.0000 C   0  0  0  0  0  0  0  0  0  0  0  0
    1.2787   -2.2347   -0.0000 C   0  0  0  0  0  0  0  0  0  0  0  0
    3.8719   -0.7170   -0.0000 C   0  0  0  0  0  0  0  0  0  0  0  0
    2.5693   -2.9756   -0.0000 C   0  0  0  0  0  0  0  0  0  0  0  0
    3.8600   -2.2228   -0.0000 C   0  0  0  0  0  0  0  0  0  0  0  0
    5.3060   -0.2390   -0.0000 C   0  0  0  0  0  0  0  0  0  0  0  0
    5.2940   -2.6769   -0.0000 N   0  0  0  0  0  0  0  0  0  0  0  0
    6.1903   -1.4579   -0.0000 C   0  0  0  0  0  0  0  0  0  0  0  0
    5.7601    1.2070   -0.0000 C   0  0  0  0  0  0  0  0  0  0  0  0
    5.7481   -4.0990   -0.0000 S   0  0  0  0  0  0  0  0  0  0  0  0
    7.0388   -3.3222   -0.0000 O   0  0  0  0  0  0  0  0  0  0  0  0
    7.0507   -4.8279   -0.0000 O   0  0  0  0  0  0  0  0  0  0  0  0
    5.0192   -5.4135   -0.0000 C   0  0  0  0  0  0  0  0  0  0  0  0
    5.7959   -6.6803   -0.0000 C   0  0  0  0  0  0  0  0  0  0  0  0
    3.5015   -5.4374   -0.0000 C   0  0  0  0  0  0  0  0  0  0  0  0
    5.0670   -7.9948   -0.0000 C   0  0  0  0  0  0  0  0  0  0  0  0
    2.7725   -6.7520   -0.0000 C   0  0  0  0  0  0  0  0  0  0  0  0
    5.8437   -9.2615   -0.0000 N   0  0  0  0  0  0  0  0  0  0  0  0
    3.5373   -8.0187   -0.0000 C   0  0  0  0  0  0  0  0  0  0  0  0
    7.3375   -9.2137   -0.0000 C   0  0  0  0  0  0  0  0  0  0  0  0
    2.8083   -9.3332   -0.0000 O   0  0  0  0  0  0  0  0  0  0  0  0
    8.1143  -10.4805   -0.0000 C   0  0  0  0  0  0  0  0  0  0  0  0
    8.0426   -7.8753   -0.0000 C   0  0  0  0  0  0  0  0  0  0  0  0
    1.2906   -9.3571   -0.0000 C   0  0  0  0  0  0  0  0  0  0  0  0
    9.5961  -10.4327   -0.0000 C   0  0  0  0  0  0  0  0  0  0  0  0
    9.5364   -7.8275   -0.0000 C   0  0  0  0  0  0  0  0  0  0  0  0
   10.3132   -9.0942   -0.0000 N   0  0  0  0  0  0  0  0  0  0  0  0
   11.8070   -9.0464   -0.0000 C   0  0  0  0  0  0  0  0  0  0  0  0
  1  2  1  0  0  0  0
  2  3  2  0  0  0  0
  2  4  1  0  0  0  0
  3  5  1  0  0  0  0
  4  6  2  0  0  0  0
  5  7  2  0  0  0  0
  5  8  1  0  0  0  0
  7  9  1  0  0  0  0
  8 10  2  0  0  0  0
  8 11  1  0  0  0  0
  9 12  1  0  0  0  0
 12 13  2  0  0  0  0
 12 14  2  0  0  0  0
 12 15  1  0  0  0  0
 15 16  2  0  0  0  0
 15 17  1  0  0  0  0
 16 18  1  0  0  0  0
 17 19  2  0  0  0  0
 18 20  1  0  0  0  0
 18 21  2  0  0  0  0
 20 22  1  0  0  0  0
 21 23  1  0  0  0  0
 22 24  1  0  0  0  0
 22 25  1  0  0  0  0
 23 26  1  0  0  0  0
 24 27  1  0  0  0  0
 25 28  1  0  0  0  0
 27 29  1  0  0  0  0
 29 30  1  0  0  0  0
  6  7  1  0  0  0  0
  9 10  1  0  0  0  0
 19 21  1  0  0  0  0
 28 29  1  0  0  0  0
M  END
>  <MolRegNo>
1440020

>  <m>
=

>  <Value>
6460

>  <Unit>
nM

>  <Type>
IC50

>  <pValue>
5.19

>  <Ligand Efficiency>
0

>  <Binding Efficiency>
0

>  <Surface Efficiency>
0

>  <Assay Index>
698296

>  <Assay Category>


>  <Assay Organism>
Homo sapiens

>  <Target ID>
17045

>  <Target Name>
Cytochrome P450 3A4

>  <Target Organism>
Homo sapiens

>  <Target Description>
Target is a single protein chain

>  <Sequence Accession>
P08684

>  <Reference>
J Med Chem 55 (21), 9255-9269 (2012)

>  <Pubmed ID>
23006002

>  <DOI>
10.1021/jm300955x

$$$$
1439217
Actelion Java MolfileCreator 1.0

 39 44  0  0  0  0  0  0  0  0999 V2000
    0.0000   -0.0000   -0.0000 F   0  0  0  0  0  0  0  0  0  0  0  0
   -1.4711   -0.3440   -0.0000 C   0  0  0  0  0  0  0  0  0  0  0  0
   -2.5269    0.7593   -0.0000 C   0  0  0  0  0  0  0  0  0  0  0  0
   -1.9100   -1.7795   -0.0000 C   0  0  0  0  0  0  0  0  0  0  0  0
   -2.1117    2.2185   -0.0000 F   0  0  0  0  0  0  0  0  0  0  0  0
   -3.9980    0.4152   -0.0000 C   0  0  0  0  0  0  0  0  0  0  0  0
   -3.3811   -2.1236   -0.0000 C   0  0  0  0  0  0  0  0  0  0  0  0
   -0.8779   -2.8591   -0.0000 C   0  0  0  0  0  0  0  0  0  0  0  0
   -4.4370   -1.0203   -0.0000 C   0  0  0  0  0  0  0  0  0  0  0  0
    0.5457   -2.3846   -0.0000 C   0  0  0  0  0  0  0  0  0  0  0  0
   -1.4236   -4.2590   -0.0000 C   0  0  0  0  0  0  0  0  0  0  0  0
    0.7355   -0.8779   -0.0000 N   0  0  0  0  0  0  0  0  0  0  0  0
    1.7914   -3.2032   -0.0000 C   0  0  0  0  0  0  0  0  0  0  0  0
   -0.6644   -5.5403   -0.0000 C   0  0  0  0  0  0  0  0  0  0  0  0
    1.9100   -4.6861   -0.0000 C   0  0  0  0  0  0  0  0  0  0  0  0
    3.0134   -2.3253   -0.0000 C   0  0  0  0  0  0  0  0  0  0  0  0
    0.8186   -5.7301   -0.0000 C   0  0  0  0  0  0  0  0  0  0  0  0
    3.2625   -5.3030   -0.0000 N   0  0  0  0  0  0  0  0  0  0  0  0
    4.3658   -2.9422   -0.0000 C   0  0  0  0  0  0  0  0  0  0  0  0
    1.2694   -7.1538   -0.0000 O   0  0  0  0  0  0  0  0  0  0  0  0
    4.4844   -4.4251   -0.0000 C   0  0  0  0  0  0  0  0  0  0  0  0
    2.7286   -7.4503   -0.0000 C   0  0  0  0  0  0  0  0  0  0  0  0
    3.7252   -6.3233   -0.0000 O   0  0  0  0  0  0  0  0  0  0  0  0
    3.1794   -8.8740   -0.0000 N   0  0  0  0  0  0  0  0  0  0  0  0
    2.1592   -9.9773   -0.0000 C   0  0  0  0  0  0  0  0  0  0  0  0
    4.6387   -9.1706   -0.0000 C   0  0  0  0  0  0  0  0  0  0  0  0
    2.6100  -11.4009   -0.0000 C   0  0  0  0  0  0  0  0  0  0  0  0
    5.0895  -10.5942   -0.0000 C   0  0  0  0  0  0  0  0  0  0  0  0
    4.0692  -11.6975   -0.0000 C   0  0  0  0  0  0  0  0  0  0  0  0
    4.5200  -13.1211   -0.0000 N   0  0  0  0  0  0  0  0  0  0  0  0
    3.6184  -14.3312   -0.0000 C   0  0  0  0  0  0  0  0  0  0  0  0
    5.9437  -13.5720   -0.0000 C   0  0  0  0  0  0  0  0  0  0  0  0
    2.0999  -14.3194   -0.0000 O   0  0  0  0  0  0  0  0  0  0  0  0
    4.4963  -15.5413   -0.0000 N   0  0  0  0  0  0  0  0  0  0  0  0
    5.9318  -15.0668   -0.0000 C   0  0  0  0  0  0  0  0  0  0  0  0
    7.2368  -12.8127   -0.0000 C   0  0  0  0  0  0  0  0  0  0  0  0
    7.2249  -15.8023   -0.0000 N   0  0  0  0  0  0  0  0  0  0  0  0
    8.5299  -13.5482   -0.0000 C   0  0  0  0  0  0  0  0  0  0  0  0
    8.5181  -15.0430   -0.0000 C   0  0  0  0  0  0  0  0  0  0  0  0
  1  2  1  0  0  0  0
  2  3  2  0  0  0  0
  2  4  1  0  0  0  0
  3  5  1  0  0  0  0
  3  6  1  0  0  0  0
  4  7  2  0  0  0  0
  8  4  1  1  0  0  0
  6  9  2  0  0  0  0
  8 10  1  0  0  0  0
  8 11  1  0  0  0  0
 10 12  1  6  0  0  0
 10 13  1  0  0  0  0
 11 14  1  0  0  0  0
 13 15  2  0  0  0  0
 13 16  1  0  0  0  0
 14 17  1  0  0  0  0
 15 18  1  0  0  0  0
 16 19  2  0  0  0  0
 17 20  1  6  0  0  0
 18 21  2  0  0  0  0
 20 22  1  0  0  0  0
 22 23  2  0  0  0  0
 22 24  1  0  0  0  0
 24 25  1  0  0  0  0
 24 26  1  0  0  0  0
 25 27  1  0  0  0  0
 26 28  1  0  0  0  0
 27 29  1  0  0  0  0
 29 30  1  0  0  0  0
 30 31  1  0  0  0  0
 30 32  1  0  0  0  0
 31 33  2  0  0  0  0
 31 34  1  0  0  0  0
 32 35  2  0  0  0  0
 32 36  1  0  0  0  0
 35 37  1  0  0  0  0
 36 38  2  0  0  0  0
 37 39  2  0  0  0  0
  7  9  1  0  0  0  0
 15 17  1  0  0  0  0
 19 21  1  0  0  0  0
 28 29  1  0  0  0  0
 34 35  1  0  0  0  0
 38 39  1  0  0  0  0
M  END
>  <MolRegNo>
1439217

>  <m>
=

>  <Value>
17000

>  <Unit>
nM

>  <Type>
IC50

>  <pValue>
4.77

>  <Ligand Efficiency>
0

>  <Binding Efficiency>
0

>  <Surface Efficiency>
0

>  <Assay Index>
700466

>  <Assay Category>


>  <Assay Organism>
Homo sapiens

>  <Target ID>
17045

>  <Target Name>
Cytochrome P450 3A4

>  <Target Organism>
Homo sapiens

>  <Target Description>
Target is a single protein chain

>  <Sequence Accession>
P08684

>  <Reference>
J Med Chem 55 (23), 10644-10651 (2012)

>  <Pubmed ID>
23153230

>  <DOI>
10.1021/jm3013147

$$$$
1421829
Actelion Java MolfileCreator 1.0

 32 36  0  0  0  0  0  0  0  0999 V2000
    0.0000   -0.0000   -0.0000 F   0  0  0  0  0  0  0  0  0  0  0  0
   -0.7415   -1.3036   -0.0000 C   0  0  0  0  0  0  0  0  0  0  0  0
    0.0120   -2.5833   -0.0000 C   0  0  0  0  0  0  0  0  0  0  0  0
   -2.2604   -1.3156   -0.0000 C   0  0  0  0  0  0  0  0  0  0  0  0
   -0.7295   -3.8749   -0.0000 C   0  0  0  0  0  0  0  0  0  0  0  0
   -3.0019   -2.6072   -0.0000 C   0  0  0  0  0  0  0  0  0  0  0  0
   -2.2484   -3.8749   -0.0000 C   0  0  0  0  0  0  0  0  0  0  0  0
   -2.9899   -5.1666   -0.0000 C   0  0  0  0  0  0  0  0  0  0  0  0
   -4.4849   -5.3340   -0.0000 N   0  0  0  0  0  0  0  0  0  0  0  0
   -2.3800   -6.5061   -0.0000 N   0  0  0  0  0  0  0  0  0  0  0  0
   -4.7839   -6.7811   -0.0000 C   0  0  0  0  0  0  0  0  0  0  0  0
   -3.4922   -7.5107   -0.0000 C   0  0  0  0  0  0  0  0  0  0  0  0
   -0.9209   -6.7931   -0.0000 C   0  0  0  0  0  0  0  0  0  0  0  0
   -6.0875   -7.5346   -0.0000 C   0  0  0  0  0  0  0  0  0  0  0  0
   -3.4922   -9.0176   -0.0000 C   0  0  0  0  0  0  0  0  0  0  0  0
   -7.4030   -6.7811   -0.0000 N   0  0  0  0  0  0  0  0  0  0  0  0
   -6.0994   -9.0176   -0.0000 C   0  0  0  0  0  0  0  0  0  0  0  0
   -4.8078   -9.7591   -0.0000 C   0  0  0  0  0  0  0  0  0  0  0  0
   -8.7186   -7.5226   -0.0000 C   0  0  0  0  0  0  0  0  0  0  0  0
  -10.0342   -6.7692   -0.0000 N   0  0  0  0  0  0  0  0  0  0  0  0
   -8.7306   -9.0176   -0.0000 C   0  0  0  0  0  0  0  0  0  0  0  0
  -11.3378   -7.5107   -0.0000 C   0  0  0  0  0  0  0  0  0  0  0  0
  -10.0461   -9.7591   -0.0000 C   0  0  0  0  0  0  0  0  0  0  0  0
  -12.6534   -6.7453   -0.0000 O   0  0  0  0  0  0  0  0  0  0  0  0
  -11.3497   -9.0056   -0.0000 C   0  0  0  0  0  0  0  0  0  0  0  0
  -12.6653   -5.2264   -0.0000 C   0  0  0  0  0  0  0  0  0  0  0  0
  -12.6534   -9.7471   -0.0000 N   0  0  0  0  0  0  0  0  0  0  0  0
  -14.0407   -9.1252   -0.0000 C   0  0  0  0  0  0  0  0  0  0  0  0
  -12.8208  -11.2302   -0.0000 C   0  0  0  0  0  0  0  0  0  0  0  0
  -15.0573  -10.2255   -0.0000 N   0  0  0  0  0  0  0  0  0  0  0  0
  -14.3038  -11.5291   -0.0000 C   0  0  0  0  0  0  0  0  0  0  0  0
  -14.9257  -12.8925   -0.0000 C   0  0  0  0  0  0  0  0  0  0  0  0
  1  2  1  0  0  0  0
  2  3  2  0  0  0  0
  2  4  1  0  0  0  0
  3  5  1  0  0  0  0
  4  6  2  0  0  0  0
  5  7  2  0  0  0  0
  7  8  1  0  0  0  0
  8  9  2  0  0  0  0
  8 10  1  0  0  0  0
  9 11  1  0  0  0  0
 10 12  1  0  0  0  0
 10 13  1  0  0  0  0
 11 14  1  0  0  0  0
 12 15  1  0  0  0  0
 14 16  1  0  0  0  0
 14 17  2  0  0  0  0
 15 18  2  0  0  0  0
 16 19  1  0  0  0  0
 19 20  2  0  0  0  0
 19 21  1  0  0  0  0
 20 22  1  0  0  0  0
 21 23  2  0  0  0  0
 22 24  1  0  0  0  0
 22 25  2  0  0  0  0
 24 26  1  0  0  0  0
 25 27  1  0  0  0  0
 27 28  1  0  0  0  0
 27 29  1  0  0  0  0
 28 30  2  0  0  0  0
 29 31  2  0  0  0  0
 31 32  1  0  0  0  0
  6  7  1  0  0  0  0
 11 12  2  0  0  0  0
 17 18  1  0  0  0  0
 23 25  1  0  0  0  0
 30 31  1  0  0  0  0
M  END
>  <MolRegNo>
1421829

>  <m>
=

>  <Value>
2900

>  <Unit>
nM

>  <Type>
IC50

>  <pValue>
5.54

>  <Ligand Efficiency>
0

>  <Binding Efficiency>
0

>  <Surface Efficiency>
0

>  <Assay Index>
698182

>  <Assay Category>


>  <Assay Organism>
Homo sapiens

>  <Target ID>
17045

>  <Target Name>
Cytochrome P450 3A4

>  <Target Organism>
Homo sapiens

>  <Target Description>
Target is a single protein chain

>  <Sequence Accession>
P08684

>  <Reference>
J Med Chem 55 (21), 9089-9106 (2012)

>  <Pubmed ID>
22650177

>  <DOI>
10.1021/jm201710f

$$$$
1441910
Actelion Java MolfileCreator 1.0

 36 40  0  0  0  0  0  0  0  0999 V2000
    0.0000   -0.0000   -0.0000 O   0  0  0  0  0  0  0  0  0  0  0  0
   -1.3119   -0.7394   -0.0000 C   0  0  0  0  0  0  0  0  0  0  0  0
   -0.0119    1.5146   -0.0000 C   0  0  0  0  0  0  0  0  0  0  0  0
   -1.3477   -2.0155   -0.0000 C   0  0  0  0  0  0  0  0  0  0  0  0
   -1.3238    2.2779   -0.0000 C   0  0  0  0  0  0  0  0  0  0  0  0
   -0.0119   -2.6834   -0.0000 C   0  0  0  0  0  0  0  0  0  0  0  0
   -2.6118   -2.8146   -0.0000 C   0  0  0  0  0  0  0  0  0  0  0  0
   -1.3357    3.7925   -0.0000 C   0  0  0  0  0  0  0  0  0  0  0  0
    1.2403   -1.8605   -0.0000 O   0  0  0  0  0  0  0  0  0  0  0  0
    0.0477   -4.1742   -0.0000 C   0  0  0  0  0  0  0  0  0  0  0  0
   -2.6238   -4.2934   -0.0000 C   0  0  0  0  0  0  0  0  0  0  0  0
   -2.6476    4.5558   -0.0000 C   0  0  0  0  0  0  0  0  0  0  0  0
    2.5641   -2.5284   -0.0000 C   0  0  0  0  0  0  0  0  0  0  0  0
   -1.2284   -4.9732   -0.0000 C   0  0  0  0  0  0  0  0  0  0  0  0
   -3.8164   -5.0925   -0.0000 N   0  0  0  0  0  0  0  0  0  0  0  0
   -3.9595    3.8164   -0.0000 O   0  0  0  0  0  0  0  0  0  0  0  0
    3.8164   -1.7055   -0.0000 C   0  0  0  0  0  0  0  0  0  0  0  0
   -5.1641   -4.4008   -0.0000 C   0  0  0  0  0  0  0  0  0  0  0  0
   -3.9714    2.3256   -0.0000 C   0  0  0  0  0  0  0  0  0  0  0  0
    5.1402   -2.3733   -0.0000 N   0  0  0  0  0  0  0  0  0  0  0  0
   -5.2595   -2.8862   -0.0000 N   0  0  0  0  0  0  0  0  0  0  0  0
   -6.4879   -5.2237   -0.0000 N   0  0  0  0  0  0  0  0  0  0  0  0
   -5.2833    1.5862   -0.0000 C   0  0  0  0  0  0  0  0  0  0  0  0
    5.3668   -3.8403   -0.0000 C   0  0  0  0  0  0  0  0  0  0  0  0
    6.4640   -1.6816   -0.0000 C   0  0  0  0  0  0  0  0  0  0  0  0
   -6.5714   -2.1229   -0.0000 C   0  0  0  0  0  0  0  0  0  0  0  0
   -7.8355   -4.4485   -0.0000 C   0  0  0  0  0  0  0  0  0  0  0  0
   -5.2953    0.0835   -0.0000 C   0  0  0  0  0  0  0  0  0  0  0  0
   -6.6191    2.3614   -0.0000 C   0  0  0  0  0  0  0  0  0  0  0  0
    6.8337   -4.0668   -0.0000 C   0  0  0  0  0  0  0  0  0  0  0  0
    7.5135   -2.7311   -0.0000 C   0  0  0  0  0  0  0  0  0  0  0  0
   -6.5833   -0.6440   -0.0000 C   0  0  0  0  0  0  0  0  0  0  0  0
   -7.8475   -2.9339   -0.0000 C   0  0  0  0  0  0  0  0  0  0  0  0
   -7.9310    1.6220   -0.0000 C   0  0  0  0  0  0  0  0  0  0  0  0
   -7.9548    0.1312   -0.0000 C   0  0  0  0  0  0  0  0  0  0  0  0
   -9.1832   -2.2064   -0.0000 C   0  0  0  0  0  0  0  0  0  0  0  0
  1  2  1  0  0  0  0
  1  3  1  0  0  0  0
  2  4  1  0  0  0  0
  3  5  1  0  0  0  0
  4  6  2  0  0  0  0
  4  7  1  0  0  0  0
  5  8  2  3  0  0  0
  6  9  1  0  0  0  0
  6 10  1  0  0  0  0
  7 11  2  0  0  0  0
  8 12  1  0  0  0  0
  9 13  1  0  0  0  0
 10 14  2  0  0  0  0
 11 15  1  0  0  0  0
 12 16  1  0  0  0  0
 13 17  1  0  0  0  0
 15 18  1  0  0  0  0
 16 19  1  0  0  0  0
 17 20  1  0  0  0  0
 18 21  2  0  0  0  0
 18 22  1  0  0  0  0
 19 23  1  0  0  0  0
 20 24  1  0  0  0  0
 20 25  1  0  0  0  0
 21 26  1  0  0  0  0
 22 27  2  0  0  0  0
 23 28  2  0  0  0  0
 23 29  1  0  0  0  0
 24 30  1  0  0  0  0
 25 31  1  0  0  0  0
 26 32  1  0  0  0  0
 26 33  2  0  0  0  0
 29 34  2  0  0  0  0
 32 35  2  0  0  0  0
 33 36  1  0  0  0  0
 11 14  1  0  0  0  0
 27 33  1  0  0  0  0
 28 32  1  0  0  0  0
 30 31  1  0  0  0  0
 34 35  1  0  0  0  0
M  END
>  <MolRegNo>
1441910

>  <m>
=

>  <Value>
2500

>  <Unit>
nM

>  <Type>
IC50

>  <pValue>
5.6

>  <Ligand Efficiency>
0

>  <Binding Efficiency>
0

>  <Surface Efficiency>
0

>  <Assay Index>
694996

>  <Assay Category>


>  <Assay Organism>
Homo sapiens

>  <Target ID>
17045

>  <Target Name>
Cytochrome P450 3A4

>  <Target Organism>
Homo sapiens

>  <Target Description>
Target is a single protein chain

>  <Sequence Accession>
P08684

>  <Reference>
J Med Chem 54 (13), 4638-4658 (2011)

>  <Pubmed ID>
21604762

>  <DOI>
10.1021/jm200326p

$$$$
1442155
Actelion Java MolfileCreator 1.0

 36 40  0  0  0  0  0  0  0  0999 V2000
    0.0000   -0.0000   -0.0000 O   0  0  0  0  0  0  0  0  0  0  0  0
   -1.3131   -0.7401   -0.0000 C   0  0  0  0  0  0  0  0  0  0  0  0
   -0.0119    1.5161   -0.0000 C   0  0  0  0  0  0  0  0  0  0  0  0
   -1.3490   -2.0175   -0.0000 C   0  0  0  0  0  0  0  0  0  0  0  0
   -1.3251    2.2801   -0.0000 C   0  0  0  0  0  0  0  0  0  0  0  0
   -0.0119   -2.6860   -0.0000 C   0  0  0  0  0  0  0  0  0  0  0  0
   -2.6143   -2.8173   -0.0000 C   0  0  0  0  0  0  0  0  0  0  0  0
   -1.3370    3.7962   -0.0000 C   0  0  0  0  0  0  0  0  0  0  0  0
    1.2415   -1.8623   -0.0000 O   0  0  0  0  0  0  0  0  0  0  0  0
    0.0478   -4.1782   -0.0000 C   0  0  0  0  0  0  0  0  0  0  0  0
   -2.6263   -4.2975   -0.0000 C   0  0  0  0  0  0  0  0  0  0  0  0
   -2.6502    4.5602   -0.0000 C   0  0  0  0  0  0  0  0  0  0  0  0
    2.5666   -2.5308   -0.0000 C   0  0  0  0  0  0  0  0  0  0  0  0
   -1.2296   -4.9780   -0.0000 C   0  0  0  0  0  0  0  0  0  0  0  0
   -3.8200   -5.0974   -0.0000 N   0  0  0  0  0  0  0  0  0  0  0  0
   -3.9633    3.8200   -0.0000 O   0  0  0  0  0  0  0  0  0  0  0  0
    3.8200   -1.7071   -0.0000 C   0  0  0  0  0  0  0  0  0  0  0  0
   -5.1690   -4.4050   -0.0000 C   0  0  0  0  0  0  0  0  0  0  0  0
   -3.9752    2.3278   -0.0000 C   0  0  0  0  0  0  0  0  0  0  0  0
    5.1451   -2.3756   -0.0000 N   0  0  0  0  0  0  0  0  0  0  0  0
   -5.2645   -2.8889   -0.0000 N   0  0  0  0  0  0  0  0  0  0  0  0
   -6.4941   -5.2287   -0.0000 N   0  0  0  0  0  0  0  0  0  0  0  0
   -5.2884    1.5877   -0.0000 C   0  0  0  0  0  0  0  0  0  0  0  0
    5.2048   -3.8678   -0.0000 C   0  0  0  0  0  0  0  0  0  0  0  0
    6.3866   -1.5519   -0.0000 C   0  0  0  0  0  0  0  0  0  0  0  0
   -6.5776   -2.1249   -0.0000 C   0  0  0  0  0  0  0  0  0  0  0  0
   -7.8430   -4.4527   -0.0000 C   0  0  0  0  0  0  0  0  0  0  0  0
   -5.3003    0.0836   -0.0000 C   0  0  0  0  0  0  0  0  0  0  0  0
   -6.6254    2.3636   -0.0000 C   0  0  0  0  0  0  0  0  0  0  0  0
    6.5179   -4.5363   -0.0000 C   0  0  0  0  0  0  0  0  0  0  0  0
    7.7117   -2.2323   -0.0000 C   0  0  0  0  0  0  0  0  0  0  0  0
   -6.5896   -0.6446   -0.0000 C   0  0  0  0  0  0  0  0  0  0  0  0
   -7.8430   -2.9367   -0.0000 C   0  0  0  0  0  0  0  0  0  0  0  0
   -7.9385    1.6235   -0.0000 C   0  0  0  0  0  0  0  0  0  0  0  0
    7.7714   -3.7126   -0.0000 C   0  0  0  0  0  0  0  0  0  0  0  0
   -7.9624    0.1313   -0.0000 C   0  0  0  0  0  0  0  0  0  0  0  0
  1  2  1  0  0  0  0
  1  3  1  0  0  0  0
  2  4  1  0  0  0  0
  3  5  1  0  0  0  0
  4  6  2  0  0  0  0
  4  7  1  0  0  0  0
  5  8  2  3  0  0  0
  6  9  1  0  0  0  0
  6 10  1  0  0  0  0
  7 11  2  0  0  0  0
  8 12  1  0  0  0  0
  9 13  1  0  0  0  0
 10 14  2  0  0  0  0
 11 15  1  0  0  0  0
 12 16  1  0  0  0  0
 13 17  1  0  0  0  0
 15 18  1  0  0  0  0
 16 19  1  0  0  0  0
 17 20  1  0  0  0  0
 18 21  2  0  0  0  0
 18 22  1  0  0  0  0
 19 23  1  0  0  0  0
 20 24  1  0  0  0  0
 20 25  1  0  0  0  0
 21 26  1  0  0  0  0
 22 27  2  0  0  0  0
 23 28  2  0  0  0  0
 23 29  1  0  0  0  0
 24 30  1  0  0  0  0
 25 31  1  0  0  0  0
 26 32  1  0  0  0  0
 26 33  2  0  0  0  0
 29 34  2  0  0  0  0
 30 35  1  0  0  0  0
 32 36  2  0  0  0  0
 11 14  1  0  0  0  0
 27 33  1  0  0  0  0
 28 32  1  0  0  0  0
 31 35  1  0  0  0  0
 34 36  1  0  0  0  0
M  END
>  <MolRegNo>
1442155

>  <m>
=

>  <Value>
370

>  <Unit>
nM

>  <Type>
IC50

>  <pValue>
6.43

>  <Ligand Efficiency>
0

>  <Binding Efficiency>
0

>  <Surface Efficiency>
0

>  <Assay Index>
694996

>  <Assay Category>


>  <Assay Organism>
Homo sapiens

>  <Target ID>
17045

>  <Target Name>
Cytochrome P450 3A4

>  <Target Organism>
Homo sapiens

>  <Target Description>
Target is a single protein chain

>  <Sequence Accession>
P08684

>  <Reference>
J Med Chem 54 (13), 4638-4658 (2011)

>  <Pubmed ID>
21604762

>  <DOI>
10.1021/jm200326p

$$$$
1442153
Actelion Java MolfileCreator 1.0

 35 38  0  0  0  0  0  0  0  0999 V2000
    0.0000   -0.0000   -0.0000 O   0  0  0  0  0  0  0  0  0  0  0  0
   -1.3125   -0.7398   -0.0000 C   0  0  0  0  0  0  0  0  0  0  0  0
   -0.0119    1.5154   -0.0000 C   0  0  0  0  0  0  0  0  0  0  0  0
   -1.3483   -2.0165   -0.0000 C   0  0  0  0  0  0  0  0  0  0  0  0
   -1.3245    2.2790   -0.0000 C   0  0  0  0  0  0  0  0  0  0  0  0
   -0.0119   -2.6847   -0.0000 C   0  0  0  0  0  0  0  0  0  0  0  0
   -2.6131   -2.8160   -0.0000 C   0  0  0  0  0  0  0  0  0  0  0  0
   -1.3364    3.7944   -0.0000 C   0  0  0  0  0  0  0  0  0  0  0  0
    1.2290   -1.8614   -0.0000 O   0  0  0  0  0  0  0  0  0  0  0  0
    0.0477   -4.1762   -0.0000 C   0  0  0  0  0  0  0  0  0  0  0  0
   -2.6250   -4.2955   -0.0000 C   0  0  0  0  0  0  0  0  0  0  0  0
   -2.6489    4.5580   -0.0000 C   0  0  0  0  0  0  0  0  0  0  0  0
    2.5535   -2.5296   -0.0000 C   0  0  0  0  0  0  0  0  0  0  0  0
   -1.2290   -4.9757   -0.0000 C   0  0  0  0  0  0  0  0  0  0  0  0
   -3.8182   -5.0950   -0.0000 N   0  0  0  0  0  0  0  0  0  0  0  0
   -3.9614    3.8182   -0.0000 O   0  0  0  0  0  0  0  0  0  0  0  0
    3.7944   -1.7063   -0.0000 C   0  0  0  0  0  0  0  0  0  0  0  0
   -5.1666   -4.4029   -0.0000 C   0  0  0  0  0  0  0  0  0  0  0  0
   -3.9734    2.3267   -0.0000 C   0  0  0  0  0  0  0  0  0  0  0  0
    5.1188   -2.3745   -0.0000 N   0  0  0  0  0  0  0  0  0  0  0  0
   -5.2620   -2.8875   -0.0000 N   0  0  0  0  0  0  0  0  0  0  0  0
   -6.4910   -5.2262   -0.0000 N   0  0  0  0  0  0  0  0  0  0  0  0
   -5.2859    1.5870   -0.0000 C   0  0  0  0  0  0  0  0  0  0  0  0
    6.3717   -1.5512   -0.0000 C   0  0  0  0  0  0  0  0  0  0  0  0
    5.1785   -3.8660   -0.0000 C   0  0  0  0  0  0  0  0  0  0  0  0
   -6.5745   -2.1239   -0.0000 C   0  0  0  0  0  0  0  0  0  0  0  0
   -7.8393   -4.4506   -0.0000 C   0  0  0  0  0  0  0  0  0  0  0  0
   -5.2978    0.0835   -0.0000 C   0  0  0  0  0  0  0  0  0  0  0  0
   -6.6223    2.3625   -0.0000 C   0  0  0  0  0  0  0  0  0  0  0  0
    7.6962   -2.2194   -0.0000 C   0  0  0  0  0  0  0  0  0  0  0  0
    3.9137   -4.6654   -0.0000 C   0  0  0  0  0  0  0  0  0  0  0  0
   -6.5865   -0.6443   -0.0000 C   0  0  0  0  0  0  0  0  0  0  0  0
   -7.8393   -2.9353   -0.0000 C   0  0  0  0  0  0  0  0  0  0  0  0
   -7.9348    1.6228   -0.0000 C   0  0  0  0  0  0  0  0  0  0  0  0
   -7.9587    0.1313   -0.0000 C   0  0  0  0  0  0  0  0  0  0  0  0
  1  2  1  0  0  0  0
  1  3  1  0  0  0  0
  2  4  1  0  0  0  0
  3  5  1  0  0  0  0
  4  6  2  0  0  0  0
  4  7  1  0  0  0  0
  5  8  2  3  0  0  0
  6  9  1  0  0  0  0
  6 10  1  0  0  0  0
  7 11  2  0  0  0  0
  8 12  1  0  0  0  0
  9 13  1  0  0  0  0
 10 14  2  0  0  0  0
 11 15  1  0  0  0  0
 12 16  1  0  0  0  0
 13 17  1  0  0  0  0
 15 18  1  0  0  0  0
 16 19  1  0  0  0  0
 17 20  1  0  0  0  0
 18 21  2  0  0  0  0
 18 22  1  0  0  0  0
 19 23  1  0  0  0  0
 20 24  1  0  0  0  0
 20 25  1  0  0  0  0
 21 26  1  0  0  0  0
 22 27  2  0  0  0  0
 23 28  2  0  0  0  0
 23 29  1  0  0  0  0
 24 30  1  0  0  0  0
 25 31  1  0  0  0  0
 26 32  1  0  0  0  0
 26 33  2  0  0  0  0
 29 34  2  0  0  0  0
 32 35  2  0  0  0  0
 11 14  1  0  0  0  0
 27 33  1  0  0  0  0
 28 32  1  0  0  0  0
 34 35  1  0  0  0  0
M  END
>  <MolRegNo>
1442153

>  <m>
=

>  <Value>
2800

>  <Unit>
nM

>  <Type>
IC50

>  <pValue>
5.55

>  <Ligand Efficiency>
0

>  <Binding Efficiency>
0

>  <Surface Efficiency>
0

>  <Assay Index>
694996

>  <Assay Category>


>  <Assay Organism>
Homo sapiens

>  <Target ID>
17045

>  <Target Name>
Cytochrome P450 3A4

>  <Target Organism>
Homo sapiens

>  <Target Description>
Target is a single protein chain

>  <Sequence Accession>
P08684

>  <Reference>
J Med Chem 54 (13), 4638-4658 (2011)

>  <Pubmed ID>
21604762

>  <DOI>
10.1021/jm200326p

$$$$
1442456
Actelion Java MolfileCreator 1.0

 43 48  0  0  0  0  0  0  0  0999 V2000
    0.0000   -0.0000   -0.0000 O   0  0  0  0  0  0  0  0  0  0  0  0
   -0.0119   -1.4960   -0.0000 C   0  0  0  0  0  0  0  0  0  0  0  0
    1.2823   -2.2321   -0.0000 N   0  0  0  0  0  0  0  0  0  0  0  0
   -1.3297   -2.2321   -0.0000 C   0  0  0  0  0  0  0  0  0  0  0  0
    2.5645   -1.4485   -0.0000 C   0  0  0  0  0  0  0  0  0  0  0  0
   -2.6357   -1.4722   -0.0000 C   0  0  0  0  0  0  0  0  0  0  0  0
   -1.3416   -3.7280   -0.0000 C   0  0  0  0  0  0  0  0  0  0  0  0
    3.8586   -2.2083   -0.0000 C   0  0  0  0  0  0  0  0  0  0  0  0
    3.8468   -0.6767   -0.0000 C   0  0  0  0  0  0  0  0  0  0  0  0
    1.4247   -0.4393   -0.0000 C   0  0  0  0  0  0  0  0  0  0  0  0
   -3.9418   -2.2083   -0.0000 C   0  0  0  0  0  0  0  0  0  0  0  0
   -2.6595   -4.4642   -0.0000 C   0  0  0  0  0  0  0  0  0  0  0  0
    3.8468   -3.7043   -0.0000 O   0  0  0  0  0  0  0  0  0  0  0  0
    5.1528   -1.4485   -0.0000 N   0  0  0  0  0  0  0  0  0  0  0  0
    3.5143    0.8073   -0.0000 C   0  0  0  0  0  0  0  0  0  0  0  0
    2.0184    0.9498   -0.0000 C   0  0  0  0  0  0  0  0  0  0  0  0
   -5.3784   -1.7334   -0.0000 N   0  0  0  0  0  0  0  0  0  0  0  0
   -3.9655   -3.6924   -0.0000 C   0  0  0  0  0  0  0  0  0  0  0  0
    6.4469   -2.1846   -0.0000 C   0  0  0  0  0  0  0  0  0  0  0  0
   -6.2807   -2.9326   -0.0000 C   0  0  0  0  0  0  0  0  0  0  0  0
   -5.8533   -0.2968   -0.0000 C   0  0  0  0  0  0  0  0  0  0  0  0
   -5.4021   -4.1436   -0.0000 C   0  0  0  0  0  0  0  0  0  0  0  0
    6.4350   -3.6687   -0.0000 C   0  0  0  0  0  0  0  0  0  0  0  0
    7.7292   -1.4129   -0.0000 C   0  0  0  0  0  0  0  0  0  0  0  0
   -7.7885   -2.9207   -0.0000 C   0  0  0  0  0  0  0  0  0  0  0  0
   -5.8770   -5.5683   -0.0000 C   0  0  0  0  0  0  0  0  0  0  0  0
    7.7173   -4.4048   -0.0000 C   0  0  0  0  0  0  0  0  0  0  0  0
    9.0233   -2.1490   -0.0000 C   0  0  0  0  0  0  0  0  0  0  0  0
   -8.5484   -1.6147   -0.0000 C   0  0  0  0  0  0  0  0  0  0  0  0
   -8.5484   -4.2030   -0.0000 C   0  0  0  0  0  0  0  0  0  0  0  0
   -7.3136   -6.0195   -0.0000 C   0  0  0  0  0  0  0  0  0  0  0  0
   -5.0103   -6.7675   -0.0000 C   0  0  0  0  0  0  0  0  0  0  0  0
    9.0114   -3.6449   -0.0000 C   0  0  0  0  0  0  0  0  0  0  0  0
  -10.0562   -1.6028   -0.0000 C   0  0  0  0  0  0  0  0  0  0  0  0
  -10.0562   -4.1911   -0.0000 C   0  0  0  0  0  0  0  0  0  0  0  0
   -7.3255   -7.5154   -0.0000 C   0  0  0  0  0  0  0  0  0  0  0  0
   -5.9008   -7.9666   -0.0000 C   0  0  0  0  0  0  0  0  0  0  0  0
   10.3055   -4.3810   -0.0000 C   0  0  0  0  0  0  0  0  0  0  0  0
  -10.8161   -2.8851   -0.0000 N   0  0  0  0  0  0  0  0  0  0  0  0
   11.5997   -3.6212   -0.0000 C   0  0  0  0  0  0  0  0  0  0  0  0
   12.8938   -4.3573   -0.0000 C   0  0  0  0  0  0  0  0  0  0  0  0
   12.8819   -5.8533   -0.0000 O   0  0  0  0  0  0  0  0  0  0  0  0
   14.1879   -3.5974   -0.0000 O   0  0  0  0  0  0  0  0  0  0  0  0
  1  2  2  0  0  0  0
  2  3  1  0  0  0  0
  2  4  1  0  0  0  0
  3  5  1  0  0  0  0
  4  6  2  0  0  0  0
  4  7  1  0  0  0  0
  5  8  1  0  0  0  0
  5  9  1  0  0  0  0
  5 10  1  0  0  0  0
  6 11  1  0  0  0  0
  7 12  2  0  0  0  0
  8 13  2  0  0  0  0
  8 14  1  0  0  0  0
  9 15  1  0  0  0  0
 10 16  1  0  0  0  0
 11 17  1  0  0  0  0
 11 18  2  0  0  0  0
 14 19  1  0  0  0  0
 17 20  1  0  0  0  0
 17 21  1  0  0  0  0
 18 22  1  0  0  0  0
 19 23  2  0  0  0  0
 19 24  1  0  0  0  0
 20 25  1  0  0  0  0
 22 26  1  0  0  0  0
 23 27  1  0  0  0  0
 24 28  2  0  0  0  0
 25 29  2  0  0  0  0
 25 30  1  0  0  0  0
 26 31  1  0  0  0  0
 26 32  1  0  0  0  0
 27 33  2  0  0  0  0
 29 34  1  0  0  0  0
 30 35  2  0  0  0  0
 31 36  1  0  0  0  0
 32 37  1  0  0  0  0
 33 38  1  0  0  0  0
 34 39  2  0  0  0  0
 38 40  2  0  0  0  0
 40 41  1  0  0  0  0
 41 42  2  0  0  0  0
 41 43  1  0  0  0  0
 12 18  1  0  0  0  0
 15 16  1  0  0  0  0
 20 22  2  0  0  0  0
 28 33  1  0  0  0  0
 35 39  1  0  0  0  0
 36 37  1  0  0  0  0
M  END
>  <MolRegNo>
1442456

>  <m>
=

>  <Value>
4300

>  <Unit>
nM

>  <Type>
IC50

>  <pValue>
5.37

>  <Ligand Efficiency>
0

>  <Binding Efficiency>
0

>  <Surface Efficiency>
0

>  <Assay Index>
695803

>  <Assay Category>


>  <Assay Organism>


>  <Target ID>
17045

>  <Target Name>
Cytochrome P450 3A4

>  <Target Organism>
Homo sapiens

>  <Target Description>
Target is a single protein chain

>  <Sequence Accession>
P08684

>  <Reference>
J Med Chem 55 (17), 7650-7666 (2012)

>  <Pubmed ID>
22849725

>  <DOI>
10.1021/jm3006788

$$$$
1442448
Actelion Java MolfileCreator 1.0

 44 49  0  0  0  0  0  0  0  0999 V2000
    0.0000   -0.0000   -0.0000 Cl  0  0  0  0  0  0  0  0  0  0  0  0
    1.4936    0.0119   -0.0000 C   0  0  0  0  0  0  0  0  0  0  0  0
    2.2404   -1.2802   -0.0000 C   0  0  0  0  0  0  0  0  0  0  0  0
    2.2285    1.3158   -0.0000 C   0  0  0  0  0  0  0  0  0  0  0  0
    3.7221   -1.2684   -0.0000 N   0  0  0  0  0  0  0  0  0  0  0  0
    3.7103    1.3276   -0.0000 C   0  0  0  0  0  0  0  0  0  0  0  0
    4.4571    0.0356   -0.0000 C   0  0  0  0  0  0  0  0  0  0  0  0
    5.9388    0.0474   -0.0000 C   0  0  0  0  0  0  0  0  0  0  0  0
    6.8160    1.2802   -0.0000 N   0  0  0  0  0  0  0  0  0  0  0  0
    6.8041   -1.1617   -0.0000 C   0  0  0  0  0  0  0  0  0  0  0  0
    8.2384    0.8298   -0.0000 C   0  0  0  0  0  0  0  0  0  0  0  0
    6.3418    2.7264   -0.0000 C   0  0  0  0  0  0  0  0  0  0  0  0
    8.2147   -0.6875   -0.0000 C   0  0  0  0  0  0  0  0  0  0  0  0
    6.3300   -2.5841   -0.0000 C   0  0  0  0  0  0  0  0  0  0  0  0
    9.5305    1.5884   -0.0000 C   0  0  0  0  0  0  0  0  0  0  0  0
    9.4950   -1.4343   -0.0000 C   0  0  0  0  0  0  0  0  0  0  0  0
    4.8838   -3.0346   -0.0000 C   0  0  0  0  0  0  0  0  0  0  0  0
    7.2072   -3.7932   -0.0000 C   0  0  0  0  0  0  0  0  0  0  0  0
   10.8226    0.8535   -0.0000 C   0  0  0  0  0  0  0  0  0  0  0  0
   10.7870   -0.6757   -0.0000 C   0  0  0  0  0  0  0  0  0  0  0  0
    4.8719   -4.5282   -0.0000 C   0  0  0  0  0  0  0  0  0  0  0  0
    6.3063   -5.0023   -0.0000 C   0  0  0  0  0  0  0  0  0  0  0  0
   12.1147    1.6121   -0.0000 C   0  0  0  0  0  0  0  0  0  0  0  0
   12.1028    3.1294   -0.0000 O   0  0  0  0  0  0  0  0  0  0  0  0
   13.4067    0.8653   -0.0000 N   0  0  0  0  0  0  0  0  0  0  0  0
   14.6988    1.6358   -0.0000 C   0  0  0  0  0  0  0  0  0  0  0  0
   15.9909    0.8890   -0.0000 C   0  0  0  0  0  0  0  0  0  0  0  0
   15.7538    2.7145   -0.0000 C   0  0  0  0  0  0  0  0  0  0  0  0
   13.3356    2.3234   -0.0000 C   0  0  0  0  0  0  0  0  0  0  0  0
   15.9790   -0.6045   -0.0000 O   0  0  0  0  0  0  0  0  0  0  0  0
   17.2829    1.6477   -0.0000 N   0  0  0  0  0  0  0  0  0  0  0  0
   15.0544    4.0659   -0.0000 C   0  0  0  0  0  0  0  0  0  0  0  0
   13.5490    3.8288   -0.0000 C   0  0  0  0  0  0  0  0  0  0  0  0
   18.5750    0.9009   -0.0000 C   0  0  0  0  0  0  0  0  0  0  0  0
   18.5632   -0.5927   -0.0000 C   0  0  0  0  0  0  0  0  0  0  0  0
   19.8552    1.6714   -0.0000 C   0  0  0  0  0  0  0  0  0  0  0  0
   19.8552   -1.3395   -0.0000 C   0  0  0  0  0  0  0  0  0  0  0  0
   21.1473    0.9365   -0.0000 C   0  0  0  0  0  0  0  0  0  0  0  0
   21.1473   -0.5808   -0.0000 C   0  0  0  0  0  0  0  0  0  0  0  0
   22.4394   -1.3158   -0.0000 C   0  0  0  0  0  0  0  0  0  0  0  0
   23.7315   -0.5453   -0.0000 C   0  0  0  0  0  0  0  0  0  0  0  0
   25.0235   -1.2802   -0.0000 C   0  0  0  0  0  0  0  0  0  0  0  0
   25.0117   -2.7738   -0.0000 O   0  0  0  0  0  0  0  0  0  0  0  0
   26.3156   -0.5097   -0.0000 O   0  0  0  0  0  0  0  0  0  0  0  0
  1  2  1  0  0  0  0
  2  3  2  0  0  0  0
  2  4  1  0  0  0  0
  3  5  1  0  0  0  0
  4  6  2  0  0  0  0
  5  7  2  0  0  0  0
  7  8  1  0  0  0  0
  8  9  1  0  0  0  0
  8 10  2  0  0  0  0
  9 11  1  0  0  0  0
  9 12  1  0  0  0  0
 10 13  1  0  0  0  0
 10 14  1  0  0  0  0
 11 15  1  0  0  0  0
 13 16  1  0  0  0  0
 14 17  1  0  0  0  0
 14 18  1  0  0  0  0
 15 19  2  0  0  0  0
 16 20  2  0  0  0  0
 17 21  1  0  0  0  0
 18 22  1  0  0  0  0
 19 23  1  0  0  0  0
 23 24  2  0  0  0  0
 23 25  1  0  0  0  0
 25 26  1  0  0  0  0
 26 27  1  0  0  0  0
 26 28  1  0  0  0  0
 26 29  1  0  0  0  0
 27 30  2  0  0  0  0
 27 31  1  0  0  0  0
 28 32  1  0  0  0  0
 29 33  1  0  0  0  0
 31 34  1  0  0  0  0
 34 35  2  0  0  0  0
 34 36  1  0  0  0  0
 35 37  1  0  0  0  0
 36 38  2  0  0  0  0
 37 39  2  0  0  0  0
 39 40  1  0  0  0  0
 40 41  2  0  0  0  0
 41 42  1  0  0  0  0
 42 43  2  0  0  0  0
 42 44  1  0  0  0  0
  6  7  1  0  0  0  0
 11 13  2  0  0  0  0
 19 20  1  0  0  0  0
 21 22  1  0  0  0  0
 32 33  1  0  0  0  0
 38 39  1  0  0  0  0
M  END
>  <MolRegNo>
1442448

>  <m>
=

>  <Value>
10700

>  <Unit>
nM

>  <Type>
IC50

>  <pValue>
4.97

>  <Ligand Efficiency>
0

>  <Binding Efficiency>
0

>  <Surface Efficiency>
0

>  <Assay Index>
695803

>  <Assay Category>


>  <Assay Organism>


>  <Target ID>
17045

>  <Target Name>
Cytochrome P450 3A4

>  <Target Organism>
Homo sapiens

>  <Target Description>
Target is a single protein chain

>  <Sequence Accession>
P08684

>  <Reference>
J Med Chem 55 (17), 7650-7666 (2012)

>  <Pubmed ID>
22849725

>  <DOI>
10.1021/jm3006788

$$$$
1442445
Actelion Java MolfileCreator 1.0

 43 48  0  0  0  0  0  0  0  0999 V2000
    0.0000   -0.0000   -0.0000 O   0  0  0  0  0  0  0  0  0  0  0  0
   -0.0119   -1.4954   -0.0000 C   0  0  0  0  0  0  0  0  0  0  0  0
    1.2818   -2.2312   -0.0000 N   0  0  0  0  0  0  0  0  0  0  0  0
   -1.3292   -2.2312   -0.0000 C   0  0  0  0  0  0  0  0  0  0  0  0
    2.5635   -1.4479   -0.0000 C   0  0  0  0  0  0  0  0  0  0  0  0
   -2.6347   -1.4717   -0.0000 C   0  0  0  0  0  0  0  0  0  0  0  0
   -1.3411   -3.7266   -0.0000 C   0  0  0  0  0  0  0  0  0  0  0  0
    3.8572   -2.2075   -0.0000 C   0  0  0  0  0  0  0  0  0  0  0  0
    3.8453   -0.6765   -0.0000 C   0  0  0  0  0  0  0  0  0  0  0  0
    1.4242   -0.4391   -0.0000 C   0  0  0  0  0  0  0  0  0  0  0  0
   -3.9402   -2.2075   -0.0000 C   0  0  0  0  0  0  0  0  0  0  0  0
   -2.6585   -4.4624   -0.0000 C   0  0  0  0  0  0  0  0  0  0  0  0
    3.8453   -3.7029   -0.0000 O   0  0  0  0  0  0  0  0  0  0  0  0
    5.1508   -1.4479   -0.0000 N   0  0  0  0  0  0  0  0  0  0  0  0
    3.5130    0.8070   -0.0000 C   0  0  0  0  0  0  0  0  0  0  0  0
    2.0176    0.9495   -0.0000 C   0  0  0  0  0  0  0  0  0  0  0  0
   -5.3763   -1.7328   -0.0000 N   0  0  0  0  0  0  0  0  0  0  0  0
   -3.9640   -3.7029   -0.0000 C   0  0  0  0  0  0  0  0  0  0  0  0
    6.4444   -2.1837   -0.0000 C   0  0  0  0  0  0  0  0  0  0  0  0
   -6.2783   -2.9314   -0.0000 C   0  0  0  0  0  0  0  0  0  0  0  0
   -5.8510   -0.2967   -0.0000 C   0  0  0  0  0  0  0  0  0  0  0  0
   -5.4000   -4.1539   -0.0000 C   0  0  0  0  0  0  0  0  0  0  0  0
    6.4326   -3.6673   -0.0000 C   0  0  0  0  0  0  0  0  0  0  0  0
    7.7262   -1.4123   -0.0000 C   0  0  0  0  0  0  0  0  0  0  0  0
   -7.7855   -2.9196   -0.0000 C   0  0  0  0  0  0  0  0  0  0  0  0
   -5.8748   -5.5781   -0.0000 C   0  0  0  0  0  0  0  0  0  0  0  0
    7.7143   -4.4031   -0.0000 C   0  0  0  0  0  0  0  0  0  0  0  0
    9.0198   -2.1481   -0.0000 C   0  0  0  0  0  0  0  0  0  0  0  0
   -8.5451   -4.2013   -0.0000 N   0  0  0  0  0  0  0  0  0  0  0  0
   -8.5451   -1.6141   -0.0000 C   0  0  0  0  0  0  0  0  0  0  0  0
   -7.3108   -6.0290   -0.0000 C   0  0  0  0  0  0  0  0  0  0  0  0
   -5.0084   -6.7767   -0.0000 C   0  0  0  0  0  0  0  0  0  0  0  0
    9.0080   -3.6435   -0.0000 C   0  0  0  0  0  0  0  0  0  0  0  0
  -10.0524   -4.1895   -0.0000 C   0  0  0  0  0  0  0  0  0  0  0  0
  -10.0524   -1.6022   -0.0000 C   0  0  0  0  0  0  0  0  0  0  0  0
   -7.3227   -7.5244   -0.0000 C   0  0  0  0  0  0  0  0  0  0  0  0
   -5.8985   -7.9754   -0.0000 C   0  0  0  0  0  0  0  0  0  0  0  0
   10.3016   -4.3794   -0.0000 C   0  0  0  0  0  0  0  0  0  0  0  0
  -10.8238   -2.8840   -0.0000 C   0  0  0  0  0  0  0  0  0  0  0  0
   11.5952   -3.6198   -0.0000 C   0  0  0  0  0  0  0  0  0  0  0  0
   12.8889   -4.3556   -0.0000 C   0  0  0  0  0  0  0  0  0  0  0  0
   12.8770   -5.8510   -0.0000 O   0  0  0  0  0  0  0  0  0  0  0  0
   14.1825   -3.5961   -0.0000 O   0  0  0  0  0  0  0  0  0  0  0  0
  1  2  2  0  0  0  0
  2  3  1  0  0  0  0
  2  4  1  0  0  0  0
  3  5  1  0  0  0  0
  4  6  2  0  0  0  0
  4  7  1  0  0  0  0
  5  8  1  0  0  0  0
  5  9  1  0  0  0  0
  5 10  1  0  0  0  0
  6 11  1  0  0  0  0
  7 12  2  0  0  0  0
  8 13  2  0  0  0  0
  8 14  1  0  0  0  0
  9 15  1  0  0  0  0
 10 16  1  0  0  0  0
 11 17  1  0  0  0  0
 11 18  2  0  0  0  0
 14 19  1  0  0  0  0
 17 20  1  0  0  0  0
 17 21  1  0  0  0  0
 18 22  1  0  0  0  0
 19 23  2  0  0  0  0
 19 24  1  0  0  0  0
 20 25  1  0  0  0  0
 22 26  1  0  0  0  0
 23 27  1  0  0  0  0
 24 28  2  0  0  0  0
 25 29  2  0  0  0  0
 25 30  1  0  0  0  0
 26 31  1  0  0  0  0
 26 32  1  0  0  0  0
 27 33  2  0  0  0  0
 29 34  1  0  0  0  0
 30 35  2  0  0  0  0
 31 36  1  0  0  0  0
 32 37  1  0  0  0  0
 33 38  1  0  0  0  0
 34 39  2  0  0  0  0
 38 40  2  0  0  0  0
 40 41  1  0  0  0  0
 41 42  2  0  0  0  0
 41 43  1  0  0  0  0
 12 18  1  0  0  0  0
 15 16  1  0  0  0  0
 20 22  2  0  0  0  0
 28 33  1  0  0  0  0
 35 39  1  0  0  0  0
 36 37  1  0  0  0  0
M  END
>  <MolRegNo>
1442445

>  <m>
=

>  <Value>
6300

>  <Unit>
nM

>  <Type>
IC50

>  <pValue>
5.2

>  <Ligand Efficiency>
0

>  <Binding Efficiency>
0

>  <Surface Efficiency>
0

>  <Assay Index>
695803

>  <Assay Category>


>  <Assay Organism>


>  <Target ID>
17045

>  <Target Name>
Cytochrome P450 3A4

>  <Target Organism>
Homo sapiens

>  <Target Description>
Target is a single protein chain

>  <Sequence Accession>
P08684

>  <Reference>
J Med Chem 55 (17), 7650-7666 (2012)

>  <Pubmed ID>
22849725

>  <DOI>
10.1021/jm3006788

$$$$
1442470
Actelion Java MolfileCreator 1.0

 42 47  0  0  0  0  0  0  0  0999 V2000
    0.0000   -0.0000   -0.0000 O   0  0  0  0  0  0  0  0  0  0  0  0
   -0.0119   -1.4955   -0.0000 C   0  0  0  0  0  0  0  0  0  0  0  0
    1.2818   -2.2313   -0.0000 N   0  0  0  0  0  0  0  0  0  0  0  0
   -1.3293   -2.2313   -0.0000 C   0  0  0  0  0  0  0  0  0  0  0  0
    2.5755   -1.4599   -0.0000 C   0  0  0  0  0  0  0  0  0  0  0  0
   -2.6349   -1.4717   -0.0000 C   0  0  0  0  0  0  0  0  0  0  0  0
   -1.3412   -3.7268   -0.0000 C   0  0  0  0  0  0  0  0  0  0  0  0
    3.8573   -2.2076   -0.0000 C   0  0  0  0  0  0  0  0  0  0  0  0
    3.3114   -0.1424   -0.0000 C   0  0  0  0  0  0  0  0  0  0  0  0
    1.2581   -0.7003   -0.0000 C   0  0  0  0  0  0  0  0  0  0  0  0
   -3.9404   -2.2076   -0.0000 C   0  0  0  0  0  0  0  0  0  0  0  0
   -2.6586   -4.4627   -0.0000 C   0  0  0  0  0  0  0  0  0  0  0  0
    3.8455   -3.7031   -0.0000 O   0  0  0  0  0  0  0  0  0  0  0  0
    5.1510   -1.4480   -0.0000 N   0  0  0  0  0  0  0  0  0  0  0  0
    1.9940    0.6172   -0.0000 C   0  0  0  0  0  0  0  0  0  0  0  0
   -5.3765   -1.7328   -0.0000 N   0  0  0  0  0  0  0  0  0  0  0  0
   -3.9642   -3.7031   -0.0000 C   0  0  0  0  0  0  0  0  0  0  0  0
    6.4447   -2.1839   -0.0000 C   0  0  0  0  0  0  0  0  0  0  0  0
   -6.2786   -2.9316   -0.0000 C   0  0  0  0  0  0  0  0  0  0  0  0
   -5.8513   -0.2967   -0.0000 C   0  0  0  0  0  0  0  0  0  0  0  0
   -5.4003   -4.1541   -0.0000 C   0  0  0  0  0  0  0  0  0  0  0  0
    6.4329   -3.6674   -0.0000 C   0  0  0  0  0  0  0  0  0  0  0  0
    7.7266   -1.4124   -0.0000 C   0  0  0  0  0  0  0  0  0  0  0  0
   -7.7859   -2.9197   -0.0000 C   0  0  0  0  0  0  0  0  0  0  0  0
   -5.8750   -5.5783   -0.0000 C   0  0  0  0  0  0  0  0  0  0  0  0
    7.7147   -4.4033   -0.0000 C   0  0  0  0  0  0  0  0  0  0  0  0
    9.0203   -2.1482   -0.0000 C   0  0  0  0  0  0  0  0  0  0  0  0
   -8.5455   -4.2015   -0.0000 N   0  0  0  0  0  0  0  0  0  0  0  0
   -8.5455   -1.6142   -0.0000 C   0  0  0  0  0  0  0  0  0  0  0  0
   -7.3112   -6.0293   -0.0000 C   0  0  0  0  0  0  0  0  0  0  0  0
   -5.0086   -6.7771   -0.0000 C   0  0  0  0  0  0  0  0  0  0  0  0
    9.0084   -3.6437   -0.0000 C   0  0  0  0  0  0  0  0  0  0  0  0
  -10.0528   -4.1897   -0.0000 C   0  0  0  0  0  0  0  0  0  0  0  0
  -10.0528   -1.6023   -0.0000 N   0  0  0  0  0  0  0  0  0  0  0  0
   -7.3230   -7.5248   -0.0000 C   0  0  0  0  0  0  0  0  0  0  0  0
   -5.8988   -7.9758   -0.0000 C   0  0  0  0  0  0  0  0  0  0  0  0
   10.3021   -4.3796   -0.0000 C   0  0  0  0  0  0  0  0  0  0  0  0
  -10.8243   -2.8841   -0.0000 C   0  0  0  0  0  0  0  0  0  0  0  0
   11.5958   -3.6200   -0.0000 C   0  0  0  0  0  0  0  0  0  0  0  0
   12.8895   -4.3558   -0.0000 C   0  0  0  0  0  0  0  0  0  0  0  0
   12.8776   -5.8513   -0.0000 O   0  0  0  0  0  0  0  0  0  0  0  0
   14.1832   -3.5962   -0.0000 O   0  0  0  0  0  0  0  0  0  0  0  0
  1  2  2  0  0  0  0
  2  3  1  0  0  0  0
  2  4  1  0  0  0  0
  3  5  1  0  0  0  0
  4  6  2  0  0  0  0
  4  7  1  0  0  0  0
  5  8  1  0  0  0  0
  5  9  1  0  0  0  0
  5 10  1  0  0  0  0
  6 11  1  0  0  0  0
  7 12  2  0  0  0  0
  8 13  2  0  0  0  0
  8 14  1  0  0  0  0
  9 15  1  0  0  0  0
 11 16  1  0  0  0  0
 11 17  2  0  0  0  0
 14 18  1  0  0  0  0
 16 19  1  0  0  0  0
 16 20  1  0  0  0  0
 17 21  1  0  0  0  0
 18 22  2  0  0  0  0
 18 23  1  0  0  0  0
 19 24  1  0  0  0  0
 21 25  1  0  0  0  0
 22 26  1  0  0  0  0
 23 27  2  0  0  0  0
 24 28  2  0  0  0  0
 24 29  1  0  0  0  0
 25 30  1  0  0  0  0
 25 31  1  0  0  0  0
 26 32  2  0  0  0  0
 28 33  1  0  0  0  0
 29 34  2  0  0  0  0
 30 35  1  0  0  0  0
 31 36  1  0  0  0  0
 32 37  1  0  0  0  0
 33 38  2  0  0  0  0
 37 39  2  0  0  0  0
 39 40  1  0  0  0  0
 40 41  2  0  0  0  0
 40 42  1  0  0  0  0
 10 15  1  0  0  0  0
 12 17  1  0  0  0  0
 19 21  2  0  0  0  0
 27 32  1  0  0  0  0
 34 38  1  0  0  0  0
 35 36  1  0  0  0  0
M  END
>  <MolRegNo>
1442470

>  <m>
=

>  <Value>
10600

>  <Unit>
nM

>  <Type>
IC50

>  <pValue>
4.97

>  <Ligand Efficiency>
0

>  <Binding Efficiency>
0

>  <Surface Efficiency>
0

>  <Assay Index>
695803

>  <Assay Category>


>  <Assay Organism>


>  <Target ID>
17045

>  <Target Name>
Cytochrome P450 3A4

>  <Target Organism>
Homo sapiens

>  <Target Description>
Target is a single protein chain

>  <Sequence Accession>
P08684

>  <Reference>
J Med Chem 55 (17), 7650-7666 (2012)

>  <Pubmed ID>
22849725

>  <DOI>
10.1021/jm3006788

$$$$
1442468
Actelion Java MolfileCreator 1.0

 44 49  0  0  0  0  0  0  0  0999 V2000
    0.0000   -0.0000   -0.0000 O   0  0  0  0  0  0  0  0  0  0  0  0
   -0.0119   -1.4949   -0.0000 C   0  0  0  0  0  0  0  0  0  0  0  0
    1.2813   -2.2305   -0.0000 N   0  0  0  0  0  0  0  0  0  0  0  0
   -1.3288   -2.2305   -0.0000 C   0  0  0  0  0  0  0  0  0  0  0  0
    2.5745   -1.4593   -0.0000 C   0  0  0  0  0  0  0  0  0  0  0  0
   -2.6339   -1.4712   -0.0000 C   0  0  0  0  0  0  0  0  0  0  0  0
   -1.3407   -3.7254   -0.0000 C   0  0  0  0  0  0  0  0  0  0  0  0
    3.8559   -2.2068   -0.0000 C   0  0  0  0  0  0  0  0  0  0  0  0
    3.3101   -0.1424   -0.0000 C   0  0  0  0  0  0  0  0  0  0  0  0
    1.2576   -0.7000   -0.0000 C   0  0  0  0  0  0  0  0  0  0  0  0
   -3.9389   -2.2068   -0.0000 C   0  0  0  0  0  0  0  0  0  0  0  0
   -2.6576   -4.4610   -0.0000 C   0  0  0  0  0  0  0  0  0  0  0  0
    3.8440   -3.7016   -0.0000 O   0  0  0  0  0  0  0  0  0  0  0  0
    5.1491   -1.4474   -0.0000 N   0  0  0  0  0  0  0  0  0  0  0  0
    1.9932    0.6169   -0.0000 C   0  0  0  0  0  0  0  0  0  0  0  0
   -5.3745   -1.7322   -0.0000 N   0  0  0  0  0  0  0  0  0  0  0  0
   -3.9627   -3.7016   -0.0000 C   0  0  0  0  0  0  0  0  0  0  0  0
    6.4423   -2.1830   -0.0000 C   0  0  0  0  0  0  0  0  0  0  0  0
   -6.2762   -2.9305   -0.0000 C   0  0  0  0  0  0  0  0  0  0  0  0
   -5.8491   -0.2966   -0.0000 C   0  0  0  0  0  0  0  0  0  0  0  0
   -5.3982   -4.1525   -0.0000 C   0  0  0  0  0  0  0  0  0  0  0  0
    6.4304   -3.6661   -0.0000 C   0  0  0  0  0  0  0  0  0  0  0  0
    7.7236   -1.4118   -0.0000 C   0  0  0  0  0  0  0  0  0  0  0  0
   -7.7829   -2.9186   -0.0000 C   0  0  0  0  0  0  0  0  0  0  0  0
   -5.8728   -5.5762   -0.0000 C   0  0  0  0  0  0  0  0  0  0  0  0
    7.7118   -4.4016   -0.0000 C   0  0  0  0  0  0  0  0  0  0  0  0
    9.0168   -2.1474   -0.0000 C   0  0  0  0  0  0  0  0  0  0  0  0
   -8.5423   -1.6135   -0.0000 C   0  0  0  0  0  0  0  0  0  0  0  0
   -8.5423   -4.1999   -0.0000 C   0  0  0  0  0  0  0  0  0  0  0  0
   -7.3084   -6.0270   -0.0000 C   0  0  0  0  0  0  0  0  0  0  0  0
   -5.0067   -6.7745   -0.0000 C   0  0  0  0  0  0  0  0  0  0  0  0
    9.0050   -3.6423   -0.0000 C   0  0  0  0  0  0  0  0  0  0  0  0
  -10.0490   -1.6017   -0.0000 N   0  0  0  0  0  0  0  0  0  0  0  0
  -10.0490   -4.1881   -0.0000 C   0  0  0  0  0  0  0  0  0  0  0  0
   -7.3202   -7.5219   -0.0000 C   0  0  0  0  0  0  0  0  0  0  0  0
   -5.8965   -7.9728   -0.0000 C   0  0  0  0  0  0  0  0  0  0  0  0
   10.2982   -4.3779   -0.0000 C   0  0  0  0  0  0  0  0  0  0  0  0
  -10.8083   -2.8830   -0.0000 C   0  0  0  0  0  0  0  0  0  0  0  0
   11.5914   -3.6186   -0.0000 C   0  0  0  0  0  0  0  0  0  0  0  0
  -12.3270   -2.8711   -0.0000 O   0  0  0  0  0  0  0  0  0  0  0  0
   12.8846   -4.3542   -0.0000 C   0  0  0  0  0  0  0  0  0  0  0  0
  -13.0863   -1.5542   -0.0000 C   0  0  0  0  0  0  0  0  0  0  0  0
   12.8727   -5.8491   -0.0000 O   0  0  0  0  0  0  0  0  0  0  0  0
   14.1778   -3.5949   -0.0000 O   0  0  0  0  0  0  0  0  0  0  0  0
  1  2  2  0  0  0  0
  2  3  1  0  0  0  0
  2  4  1  0  0  0  0
  3  5  1  0  0  0  0
  4  6  2  0  0  0  0
  4  7  1  0  0  0  0
  5  8  1  0  0  0  0
  5  9  1  0  0  0  0
  5 10  1  0  0  0  0
  6 11  1  0  0  0  0
  7 12  2  0  0  0  0
  8 13  2  0  0  0  0
  8 14  1  0  0  0  0
  9 15  1  0  0  0  0
 11 16  1  0  0  0  0
 11 17  2  0  0  0  0
 14 18  1  0  0  0  0
 16 19  1  0  0  0  0
 16 20  1  0  0  0  0
 17 21  1  0  0  0  0
 18 22  2  0  0  0  0
 18 23  1  0  0  0  0
 19 24  1  0  0  0  0
 21 25  1  0  0  0  0
 22 26  1  0  0  0  0
 23 27  2  0  0  0  0
 24 28  2  0  0  0  0
 24 29  1  0  0  0  0
 25 30  1  0  0  0  0
 25 31  1  0  0  0  0
 26 32  2  0  0  0  0
 28 33  1  0  0  0  0
 29 34  2  0  0  0  0
 30 35  1  0  0  0  0
 31 36  1  0  0  0  0
 32 37  1  0  0  0  0
 33 38  2  0  0  0  0
 37 39  2  0  0  0  0
 38 40  1  0  0  0  0
 39 41  1  0  0  0  0
 40 42  1  0  0  0  0
 41 43  2  0  0  0  0
 41 44  1  0  0  0  0
 10 15  1  0  0  0  0
 12 17  1  0  0  0  0
 19 21  2  0  0  0  0
 27 32  1  0  0  0  0
 34 38  1  0  0  0  0
 35 36  1  0  0  0  0
M  END
>  <MolRegNo>
1442468

>  <m>
=

>  <Value>
1500

>  <Unit>
nM

>  <Type>
IC50

>  <pValue>
5.82

>  <Ligand Efficiency>
0

>  <Binding Efficiency>
0

>  <Surface Efficiency>
0

>  <Assay Index>
695803

>  <Assay Category>


>  <Assay Organism>


>  <Target ID>
17045

>  <Target Name>
Cytochrome P450 3A4

>  <Target Organism>
Homo sapiens

>  <Target Description>
Target is a single protein chain

>  <Sequence Accession>
P08684

>  <Reference>
J Med Chem 55 (17), 7650-7666 (2012)

>  <Pubmed ID>
22849725

>  <DOI>
10.1021/jm3006788

$$$$
1442465
Actelion Java MolfileCreator 1.0

 43 48  0  0  0  0  0  0  0  0999 V2000
    0.0000   -0.0000   -0.0000 O   0  0  0  0  0  0  0  0  0  0  0  0
   -0.0119   -1.4955   -0.0000 C   0  0  0  0  0  0  0  0  0  0  0  0
    1.2818   -2.2313   -0.0000 N   0  0  0  0  0  0  0  0  0  0  0  0
   -1.3293   -2.2313   -0.0000 C   0  0  0  0  0  0  0  0  0  0  0  0
    2.5755   -1.4599   -0.0000 C   0  0  0  0  0  0  0  0  0  0  0  0
   -2.6349   -1.4717   -0.0000 C   0  0  0  0  0  0  0  0  0  0  0  0
   -1.3412   -3.7268   -0.0000 C   0  0  0  0  0  0  0  0  0  0  0  0
    3.8573   -2.2076   -0.0000 C   0  0  0  0  0  0  0  0  0  0  0  0
    3.3114   -0.1424   -0.0000 C   0  0  0  0  0  0  0  0  0  0  0  0
    1.2581   -0.7003   -0.0000 C   0  0  0  0  0  0  0  0  0  0  0  0
   -3.9404   -2.2076   -0.0000 C   0  0  0  0  0  0  0  0  0  0  0  0
   -2.6586   -4.4626   -0.0000 C   0  0  0  0  0  0  0  0  0  0  0  0
    3.8455   -3.7030   -0.0000 O   0  0  0  0  0  0  0  0  0  0  0  0
    5.1510   -1.4480   -0.0000 N   0  0  0  0  0  0  0  0  0  0  0  0
    1.9939    0.6172   -0.0000 C   0  0  0  0  0  0  0  0  0  0  0  0
   -5.3765   -1.7328   -0.0000 N   0  0  0  0  0  0  0  0  0  0  0  0
   -3.9642   -3.7030   -0.0000 C   0  0  0  0  0  0  0  0  0  0  0  0
    6.4447   -2.1838   -0.0000 C   0  0  0  0  0  0  0  0  0  0  0  0
   -6.2786   -2.9316   -0.0000 C   0  0  0  0  0  0  0  0  0  0  0  0
   -5.8513   -0.2967   -0.0000 C   0  0  0  0  0  0  0  0  0  0  0  0
   -5.4003   -4.1541   -0.0000 C   0  0  0  0  0  0  0  0  0  0  0  0
    6.4328   -3.6674   -0.0000 C   0  0  0  0  0  0  0  0  0  0  0  0
    7.7265   -1.4124   -0.0000 C   0  0  0  0  0  0  0  0  0  0  0  0
   -7.7859   -2.9197   -0.0000 C   0  0  0  0  0  0  0  0  0  0  0  0
   -5.8750   -5.5783   -0.0000 C   0  0  0  0  0  0  0  0  0  0  0  0
    7.7147   -4.4033   -0.0000 C   0  0  0  0  0  0  0  0  0  0  0  0
    9.0202   -2.1482   -0.0000 C   0  0  0  0  0  0  0  0  0  0  0  0
   -8.5455   -4.2015   -0.0000 N   0  0  0  0  0  0  0  0  0  0  0  0
   -8.5455   -1.6141   -0.0000 C   0  0  0  0  0  0  0  0  0  0  0  0
   -7.3111   -6.0293   -0.0000 C   0  0  0  0  0  0  0  0  0  0  0  0
   -5.0086   -6.7770   -0.0000 C   0  0  0  0  0  0  0  0  0  0  0  0
    9.0084   -3.6437   -0.0000 C   0  0  0  0  0  0  0  0  0  0  0  0
  -10.0528   -4.1897   -0.0000 C   0  0  0  0  0  0  0  0  0  0  0  0
  -10.0528   -1.6023   -0.0000 C   0  0  0  0  0  0  0  0  0  0  0  0
   -7.3230   -7.5248   -0.0000 C   0  0  0  0  0  0  0  0  0  0  0  0
   -5.8988   -7.9758   -0.0000 C   0  0  0  0  0  0  0  0  0  0  0  0
   10.3020   -4.3796   -0.0000 C   0  0  0  0  0  0  0  0  0  0  0  0
  -10.8124   -5.4833   -0.0000 N   0  0  0  0  0  0  0  0  0  0  0  0
  -10.8243   -2.8841   -0.0000 C   0  0  0  0  0  0  0  0  0  0  0  0
   11.5957   -3.6200   -0.0000 C   0  0  0  0  0  0  0  0  0  0  0  0
   12.8894   -4.3558   -0.0000 C   0  0  0  0  0  0  0  0  0  0  0  0
   12.8776   -5.8513   -0.0000 O   0  0  0  0  0  0  0  0  0  0  0  0
   14.1831   -3.5962   -0.0000 O   0  0  0  0  0  0  0  0  0  0  0  0
  1  2  2  0  0  0  0
  2  3  1  0  0  0  0
  2  4  1  0  0  0  0
  3  5  1  0  0  0  0
  4  6  2  0  0  0  0
  4  7  1  0  0  0  0
  5  8  1  0  0  0  0
  5  9  1  0  0  0  0
  5 10  1  0  0  0  0
  6 11  1  0  0  0  0
  7 12  2  0  0  0  0
  8 13  2  0  0  0  0
  8 14  1  0  0  0  0
  9 15  1  0  0  0  0
 11 16  1  0  0  0  0
 11 17  2  0  0  0  0
 14 18  1  0  0  0  0
 16 19  1  0  0  0  0
 16 20  1  0  0  0  0
 17 21  1  0  0  0  0
 18 22  2  0  0  0  0
 18 23  1  0  0  0  0
 19 24  1  0  0  0  0
 21 25  1  0  0  0  0
 22 26  1  0  0  0  0
 23 27  2  0  0  0  0
 24 28  2  0  0  0  0
 24 29  1  0  0  0  0
 25 30  1  0  0  0  0
 25 31  1  0  0  0  0
 26 32  2  0  0  0  0
 28 33  1  0  0  0  0
 29 34  2  0  0  0  0
 30 35  1  0  0  0  0
 31 36  1  0  0  0  0
 32 37  1  0  0  0  0
 33 38  1  0  0  0  0
 33 39  2  0  0  0  0
 37 40  2  0  0  0  0
 40 41  1  0  0  0  0
 41 42  2  0  0  0  0
 41 43  1  0  0  0  0
 10 15  1  0  0  0  0
 12 17  1  0  0  0  0
 19 21  2  0  0  0  0
 27 32  1  0  0  0  0
 34 39  1  0  0  0  0
 35 36  1  0  0  0  0
M  END
>  <MolRegNo>
1442465

>  <m>
=

>  <Value>
7000

>  <Unit>
nM

>  <Type>
IC50

>  <pValue>
5.16

>  <Ligand Efficiency>
0

>  <Binding Efficiency>
0

>  <Surface Efficiency>
0

>  <Assay Index>
695803

>  <Assay Category>


>  <Assay Organism>


>  <Target ID>
17045

>  <Target Name>
Cytochrome P450 3A4

>  <Target Organism>
Homo sapiens

>  <Target Description>
Target is a single protein chain

>  <Sequence Accession>
P08684

>  <Reference>
J Med Chem 55 (17), 7650-7666 (2012)

>  <Pubmed ID>
22849725

>  <DOI>
10.1021/jm3006788

$$$$
1442462
Actelion Java MolfileCreator 1.0

 43 48  0  0  0  0  0  0  0  0999 V2000
    0.0000   -0.0000   -0.0000 F   0  0  0  0  0  0  0  0  0  0  0  0
    1.4943    0.0119   -0.0000 C   0  0  0  0  0  0  0  0  0  0  0  0
    2.2414   -1.2808   -0.0000 C   0  0  0  0  0  0  0  0  0  0  0  0
    2.2295    1.3164   -0.0000 C   0  0  0  0  0  0  0  0  0  0  0  0
    3.7238   -1.2689   -0.0000 N   0  0  0  0  0  0  0  0  0  0  0  0
    3.7120    1.3282   -0.0000 C   0  0  0  0  0  0  0  0  0  0  0  0
    4.4591    0.0356   -0.0000 C   0  0  0  0  0  0  0  0  0  0  0  0
    5.9415    0.0474   -0.0000 C   0  0  0  0  0  0  0  0  0  0  0  0
    6.8191    1.2808   -0.0000 N   0  0  0  0  0  0  0  0  0  0  0  0
    6.8072   -1.1622   -0.0000 C   0  0  0  0  0  0  0  0  0  0  0  0
    8.2422    0.8302   -0.0000 C   0  0  0  0  0  0  0  0  0  0  0  0
    6.3447    2.7276   -0.0000 C   0  0  0  0  0  0  0  0  0  0  0  0
    8.2185   -0.6878   -0.0000 C   0  0  0  0  0  0  0  0  0  0  0  0
    6.3329   -2.5853   -0.0000 C   0  0  0  0  0  0  0  0  0  0  0  0
    9.5349    1.5891   -0.0000 C   0  0  0  0  0  0  0  0  0  0  0  0
    9.4993   -1.4350   -0.0000 C   0  0  0  0  0  0  0  0  0  0  0  0
    4.8860   -3.0360   -0.0000 C   0  0  0  0  0  0  0  0  0  0  0  0
    7.2105   -3.7950   -0.0000 C   0  0  0  0  0  0  0  0  0  0  0  0
   10.8275    0.8539   -0.0000 C   0  0  0  0  0  0  0  0  0  0  0  0
   10.7920   -0.6760   -0.0000 C   0  0  0  0  0  0  0  0  0  0  0  0
    4.8742   -4.5303   -0.0000 C   0  0  0  0  0  0  0  0  0  0  0  0
    6.3091   -5.0046   -0.0000 C   0  0  0  0  0  0  0  0  0  0  0  0
   12.1202    1.6129   -0.0000 C   0  0  0  0  0  0  0  0  0  0  0  0
   12.1083    3.1309   -0.0000 O   0  0  0  0  0  0  0  0  0  0  0  0
   13.4129    0.8657   -0.0000 N   0  0  0  0  0  0  0  0  0  0  0  0
   14.7055    1.6366   -0.0000 C   0  0  0  0  0  0  0  0  0  0  0  0
   15.9982    0.8894   -0.0000 C   0  0  0  0  0  0  0  0  0  0  0  0
   15.7610    2.7158   -0.0000 C   0  0  0  0  0  0  0  0  0  0  0  0
   13.6263    2.7158   -0.0000 C   0  0  0  0  0  0  0  0  0  0  0  0
   15.9863   -0.6048   -0.0000 O   0  0  0  0  0  0  0  0  0  0  0  0
   17.2909    1.6484   -0.0000 N   0  0  0  0  0  0  0  0  0  0  0  0
   14.6818    3.7950   -0.0000 C   0  0  0  0  0  0  0  0  0  0  0  0
   18.5835    0.9013   -0.0000 C   0  0  0  0  0  0  0  0  0  0  0  0
   18.5717   -0.5930   -0.0000 C   0  0  0  0  0  0  0  0  0  0  0  0
   19.8643    1.6722   -0.0000 C   0  0  0  0  0  0  0  0  0  0  0  0
   19.8643   -1.3401   -0.0000 C   0  0  0  0  0  0  0  0  0  0  0  0
   21.1570    0.9369   -0.0000 C   0  0  0  0  0  0  0  0  0  0  0  0
   21.1570   -0.5811   -0.0000 C   0  0  0  0  0  0  0  0  0  0  0  0
   22.4497   -1.3164   -0.0000 C   0  0  0  0  0  0  0  0  0  0  0  0
   23.7423   -0.5455   -0.0000 C   0  0  0  0  0  0  0  0  0  0  0  0
   25.0350   -1.2808   -0.0000 C   0  0  0  0  0  0  0  0  0  0  0  0
   25.0231   -2.7751   -0.0000 O   0  0  0  0  0  0  0  0  0  0  0  0
   26.3277   -0.5100   -0.0000 O   0  0  0  0  0  0  0  0  0  0  0  0
  1  2  1  0  0  0  0
  2  3  2  0  0  0  0
  2  4  1  0  0  0  0
  3  5  1  0  0  0  0
  4  6  2  0  0  0  0
  5  7  2  0  0  0  0
  7  8  1  0  0  0  0
  8  9  1  0  0  0  0
  8 10  2  0  0  0  0
  9 11  1  0  0  0  0
  9 12  1  0  0  0  0
 10 13  1  0  0  0  0
 10 14  1  0  0  0  0
 11 15  1  0  0  0  0
 13 16  1  0  0  0  0
 14 17  1  0  0  0  0
 14 18  1  0  0  0  0
 15 19  2  0  0  0  0
 16 20  2  0  0  0  0
 17 21  1  0  0  0  0
 18 22  1  0  0  0  0
 19 23  1  0  0  0  0
 23 24  2  0  0  0  0
 23 25  1  0  0  0  0
 25 26  1  0  0  0  0
 26 27  1  0  0  0  0
 26 28  1  0  0  0  0
 26 29  1  0  0  0  0
 27 30  2  0  0  0  0
 27 31  1  0  0  0  0
 28 32  1  0  0  0  0
 31 33  1  0  0  0  0
 33 34  2  0  0  0  0
 33 35  1  0  0  0  0
 34 36  1  0  0  0  0
 35 37  2  0  0  0  0
 36 38  2  0  0  0  0
 38 39  1  0  0  0  0
 39 40  2  0  0  0  0
 40 41  1  0  0  0  0
 41 42  2  0  0  0  0
 41 43  1  0  0  0  0
  6  7  1  0  0  0  0
 11 13  2  0  0  0  0
 19 20  1  0  0  0  0
 21 22  1  0  0  0  0
 29 32  1  0  0  0  0
 37 38  1  0  0  0  0
M  END
>  <MolRegNo>
1442462

>  <m>
=

>  <Value>
6700

>  <Unit>
nM

>  <Type>
IC50

>  <pValue>
5.17

>  <Ligand Efficiency>
0

>  <Binding Efficiency>
0

>  <Surface Efficiency>
0

>  <Assay Index>
695803

>  <Assay Category>


>  <Assay Organism>


>  <Target ID>
17045

>  <Target Name>
Cytochrome P450 3A4

>  <Target Organism>
Homo sapiens

>  <Target Description>
Target is a single protein chain

>  <Sequence Accession>
P08684

>  <Reference>
J Med Chem 55 (17), 7650-7666 (2012)

>  <Pubmed ID>
22849725

>  <DOI>
10.1021/jm3006788

$$$$
1442461
Actelion Java MolfileCreator 1.0

 43 48  0  0  0  0  0  0  0  0999 V2000
    0.0000   -0.0000   -0.0000 Cl  0  0  0  0  0  0  0  0  0  0  0  0
    1.4946    0.0119   -0.0000 C   0  0  0  0  0  0  0  0  0  0  0  0
    2.2419   -1.2811   -0.0000 C   0  0  0  0  0  0  0  0  0  0  0  0
    2.2301    1.3167   -0.0000 C   0  0  0  0  0  0  0  0  0  0  0  0
    3.7247   -1.2692   -0.0000 N   0  0  0  0  0  0  0  0  0  0  0  0
    3.7128    1.3286   -0.0000 C   0  0  0  0  0  0  0  0  0  0  0  0
    4.4601    0.0356   -0.0000 C   0  0  0  0  0  0  0  0  0  0  0  0
    5.9429    0.0474   -0.0000 C   0  0  0  0  0  0  0  0  0  0  0  0
    6.8207    1.2811   -0.0000 N   0  0  0  0  0  0  0  0  0  0  0  0
    6.8088   -1.1625   -0.0000 C   0  0  0  0  0  0  0  0  0  0  0  0
    8.2441    0.8303   -0.0000 C   0  0  0  0  0  0  0  0  0  0  0  0
    6.3462    2.7283   -0.0000 C   0  0  0  0  0  0  0  0  0  0  0  0
    8.2204   -0.6880   -0.0000 C   0  0  0  0  0  0  0  0  0  0  0  0
    6.3343   -2.5859   -0.0000 C   0  0  0  0  0  0  0  0  0  0  0  0
    9.5371    1.5895   -0.0000 C   0  0  0  0  0  0  0  0  0  0  0  0
    9.5015   -1.4353   -0.0000 C   0  0  0  0  0  0  0  0  0  0  0  0
    4.8872   -3.0367   -0.0000 C   0  0  0  0  0  0  0  0  0  0  0  0
    7.2121   -3.7959   -0.0000 C   0  0  0  0  0  0  0  0  0  0  0  0
   10.8301    0.8541   -0.0000 C   0  0  0  0  0  0  0  0  0  0  0  0
   10.7945   -0.6761   -0.0000 C   0  0  0  0  0  0  0  0  0  0  0  0
    4.8753   -4.5313   -0.0000 C   0  0  0  0  0  0  0  0  0  0  0  0
    6.3106   -5.0058   -0.0000 C   0  0  0  0  0  0  0  0  0  0  0  0
   12.1230    1.6132   -0.0000 C   0  0  0  0  0  0  0  0  0  0  0  0
   12.1112    3.1316   -0.0000 O   0  0  0  0  0  0  0  0  0  0  0  0
   13.4160    0.8659   -0.0000 N   0  0  0  0  0  0  0  0  0  0  0  0
   14.7090    1.6370   -0.0000 C   0  0  0  0  0  0  0  0  0  0  0  0
   16.0019    0.8897   -0.0000 C   0  0  0  0  0  0  0  0  0  0  0  0
   15.4444    2.9537   -0.0000 C   0  0  0  0  0  0  0  0  0  0  0  0
   13.3923    2.3961   -0.0000 C   0  0  0  0  0  0  0  0  0  0  0  0
   15.9901   -0.6050   -0.0000 O   0  0  0  0  0  0  0  0  0  0  0  0
   17.2949    1.6488   -0.0000 N   0  0  0  0  0  0  0  0  0  0  0  0
   14.1277    3.7128   -0.0000 C   0  0  0  0  0  0  0  0  0  0  0  0
   18.5879    0.9015   -0.0000 C   0  0  0  0  0  0  0  0  0  0  0  0
   18.5760   -0.5931   -0.0000 C   0  0  0  0  0  0  0  0  0  0  0  0
   19.8690    1.6726   -0.0000 C   0  0  0  0  0  0  0  0  0  0  0  0
   19.8690   -1.3404   -0.0000 C   0  0  0  0  0  0  0  0  0  0  0  0
   21.1619    0.9371   -0.0000 C   0  0  0  0  0  0  0  0  0  0  0  0
   21.1619   -0.5812   -0.0000 C   0  0  0  0  0  0  0  0  0  0  0  0
   22.4549   -1.3167   -0.0000 C   0  0  0  0  0  0  0  0  0  0  0  0
   23.7479   -0.5457   -0.0000 C   0  0  0  0  0  0  0  0  0  0  0  0
   25.0408   -1.2811   -0.0000 C   0  0  0  0  0  0  0  0  0  0  0  0
   25.0290   -2.7757   -0.0000 O   0  0  0  0  0  0  0  0  0  0  0  0
   26.3338   -0.5101   -0.0000 O   0  0  0  0  0  0  0  0  0  0  0  0
  1  2  1  0  0  0  0
  2  3  2  0  0  0  0
  2  4  1  0  0  0  0
  3  5  1  0  0  0  0
  4  6  2  0  0  0  0
  5  7  2  0  0  0  0
  7  8  1  0  0  0  0
  8  9  1  0  0  0  0
  8 10  2  0  0  0  0
  9 11  1  0  0  0  0
  9 12  1  0  0  0  0
 10 13  1  0  0  0  0
 10 14  1  0  0  0  0
 11 15  1  0  0  0  0
 13 16  1  0  0  0  0
 14 17  1  0  0  0  0
 14 18  1  0  0  0  0
 15 19  2  0  0  0  0
 16 20  2  0  0  0  0
 17 21  1  0  0  0  0
 18 22  1  0  0  0  0
 19 23  1  0  0  0  0
 23 24  2  0  0  0  0
 23 25  1  0  0  0  0
 25 26  1  0  0  0  0
 26 27  1  0  0  0  0
 26 28  1  0  0  0  0
 26 29  1  0  0  0  0
 27 30  2  0  0  0  0
 27 31  1  0  0  0  0
 28 32  1  0  0  0  0
 31 33  1  0  0  0  0
 33 34  2  0  0  0  0
 33 35  1  0  0  0  0
 34 36  1  0  0  0  0
 35 37  2  0  0  0  0
 36 38  2  0  0  0  0
 38 39  1  0  0  0  0
 39 40  2  0  0  0  0
 40 41  1  0  0  0  0
 41 42  2  0  0  0  0
 41 43  1  0  0  0  0
  6  7  1  0  0  0  0
 11 13  2  0  0  0  0
 19 20  1  0  0  0  0
 21 22  1  0  0  0  0
 29 32  1  0  0  0  0
 37 38  1  0  0  0  0
M  END
>  <MolRegNo>
1442461

>  <m>
=

>  <Value>
10900

>  <Unit>
nM

>  <Type>
IC50

>  <pValue>
4.96

>  <Ligand Efficiency>
0

>  <Binding Efficiency>
0

>  <Surface Efficiency>
0

>  <Assay Index>
695803

>  <Assay Category>


>  <Assay Organism>


>  <Target ID>
17045

>  <Target Name>
Cytochrome P450 3A4

>  <Target Organism>
Homo sapiens

>  <Target Description>
Target is a single protein chain

>  <Sequence Accession>
P08684

>  <Reference>
J Med Chem 55 (17), 7650-7666 (2012)

>  <Pubmed ID>
22849725

>  <DOI>
10.1021/jm3006788

$$$$
1442606
Actelion Java MolfileCreator 1.0

 43 48  0  0  0  0  0  0  0  0999 V2000
    0.0000   -0.0000   -0.0000 O   0  0  0  0  0  0  0  0  0  0  0  0
   -0.0119   -1.4954   -0.0000 C   0  0  0  0  0  0  0  0  0  0  0  0
    1.2818   -2.2312   -0.0000 N   0  0  0  0  0  0  0  0  0  0  0  0
   -1.3292   -2.2312   -0.0000 C   0  0  0  0  0  0  0  0  0  0  0  0
    2.5635   -1.4598   -0.0000 C   0  0  0  0  0  0  0  0  0  0  0  0
   -2.6348   -1.4717   -0.0000 C   0  0  0  0  0  0  0  0  0  0  0  0
   -1.3411   -3.7266   -0.0000 C   0  0  0  0  0  0  0  0  0  0  0  0
    3.8572   -2.2075   -0.0000 C   0  0  0  0  0  0  0  0  0  0  0  0
    3.6080   -0.3798   -0.0000 C   0  0  0  0  0  0  0  0  0  0  0  0
    1.4835   -0.3917   -0.0000 C   0  0  0  0  0  0  0  0  0  0  0  0
   -3.9403   -2.2075   -0.0000 C   0  0  0  0  0  0  0  0  0  0  0  0
   -2.6585   -4.4625   -0.0000 C   0  0  0  0  0  0  0  0  0  0  0  0
    3.8453   -3.7029   -0.0000 O   0  0  0  0  0  0  0  0  0  0  0  0
    5.1508   -1.4479   -0.0000 N   0  0  0  0  0  0  0  0  0  0  0  0
    2.5279    0.6884   -0.0000 C   0  0  0  0  0  0  0  0  0  0  0  0
   -5.3763   -1.7328   -0.0000 N   0  0  0  0  0  0  0  0  0  0  0  0
   -3.9640   -3.7029   -0.0000 C   0  0  0  0  0  0  0  0  0  0  0  0
    6.4445   -2.1838   -0.0000 C   0  0  0  0  0  0  0  0  0  0  0  0
   -6.2783   -2.9315   -0.0000 C   0  0  0  0  0  0  0  0  0  0  0  0
   -5.8511   -0.2967   -0.0000 C   0  0  0  0  0  0  0  0  0  0  0  0
   -5.4001   -4.1539   -0.0000 C   0  0  0  0  0  0  0  0  0  0  0  0
    6.4326   -3.6673   -0.0000 C   0  0  0  0  0  0  0  0  0  0  0  0
    7.7262   -1.4123   -0.0000 C   0  0  0  0  0  0  0  0  0  0  0  0
   -7.7856   -2.9196   -0.0000 C   0  0  0  0  0  0  0  0  0  0  0  0
   -5.8748   -5.5781   -0.0000 C   0  0  0  0  0  0  0  0  0  0  0  0
    7.7144   -4.4031   -0.0000 C   0  0  0  0  0  0  0  0  0  0  0  0
    9.0199   -2.1482   -0.0000 C   0  0  0  0  0  0  0  0  0  0  0  0
   -8.5452   -4.2014   -0.0000 N   0  0  0  0  0  0  0  0  0  0  0  0
   -8.5452   -1.6141   -0.0000 C   0  0  0  0  0  0  0  0  0  0  0  0
   -7.3109   -6.0291   -0.0000 C   0  0  0  0  0  0  0  0  0  0  0  0
   -5.0084   -6.7768   -0.0000 C   0  0  0  0  0  0  0  0  0  0  0  0
    9.0080   -3.6436   -0.0000 C   0  0  0  0  0  0  0  0  0  0  0  0
  -10.0524   -4.1895   -0.0000 C   0  0  0  0  0  0  0  0  0  0  0  0
  -10.0524   -1.6022   -0.0000 C   0  0  0  0  0  0  0  0  0  0  0  0
   -7.3227   -7.5245   -0.0000 C   0  0  0  0  0  0  0  0  0  0  0  0
   -5.8985   -7.9755   -0.0000 C   0  0  0  0  0  0  0  0  0  0  0  0
   10.3017   -4.3794   -0.0000 C   0  0  0  0  0  0  0  0  0  0  0  0
  -10.8239   -2.8840   -0.0000 C   0  0  0  0  0  0  0  0  0  0  0  0
   11.5953   -3.6198   -0.0000 C   0  0  0  0  0  0  0  0  0  0  0  0
  -12.3430   -2.8721   -0.0000 C   0  0  0  0  0  0  0  0  0  0  0  0
   12.8889   -4.3557   -0.0000 C   0  0  0  0  0  0  0  0  0  0  0  0
   12.8771   -5.8511   -0.0000 O   0  0  0  0  0  0  0  0  0  0  0  0
   14.1826   -3.5961   -0.0000 O   0  0  0  0  0  0  0  0  0  0  0  0
  1  2  2  0  0  0  0
  2  3  1  0  0  0  0
  2  4  1  0  0  0  0
  3  5  1  0  0  0  0
  4  6  2  0  0  0  0
  4  7  1  0  0  0  0
  5  8  1  0  0  0  0
  5  9  1  0  0  0  0
  5 10  1  0  0  0  0
  6 11  1  0  0  0  0
  7 12  2  0  0  0  0
  8 13  2  0  0  0  0
  8 14  1  0  0  0  0
  9 15  1  0  0  0  0
 11 16  1  0  0  0  0
 11 17  2  0  0  0  0
 14 18  1  0  0  0  0
 16 19  1  0  0  0  0
 16 20  1  0  0  0  0
 17 21  1  0  0  0  0
 18 22  2  0  0  0  0
 18 23  1  0  0  0  0
 19 24  1  0  0  0  0
 21 25  1  0  0  0  0
 22 26  1  0  0  0  0
 23 27  2  0  0  0  0
 24 28  2  0  0  0  0
 24 29  1  0  0  0  0
 25 30  1  0  0  0  0
 25 31  1  0  0  0  0
 26 32  2  0  0  0  0
 28 33  1  0  0  0  0
 29 34  2  0  0  0  0
 30 35  1  0  0  0  0
 31 36  1  0  0  0  0
 32 37  1  0  0  0  0
 33 38  2  0  0  0  0
 37 39  2  0  0  0  0
 38 40  1  0  0  0  0
 39 41  1  0  0  0  0
 41 42  2  0  0  0  0
 41 43  1  0  0  0  0
 10 15  1  0  0  0  0
 12 17  1  0  0  0  0
 19 21  2  0  0  0  0
 27 32  1  0  0  0  0
 34 38  1  0  0  0  0
 35 36  1  0  0  0  0
M  END
>  <MolRegNo>
1442606

>  <m>
=

>  <Value>
5800

>  <Unit>
nM

>  <Type>
IC50

>  <pValue>
5.24

>  <Ligand Efficiency>
0

>  <Binding Efficiency>
0

>  <Surface Efficiency>
0

>  <Assay Index>
695803

>  <Assay Category>


>  <Assay Organism>


>  <Target ID>
17045

>  <Target Name>
Cytochrome P450 3A4

>  <Target Organism>
Homo sapiens

>  <Target Description>
Target is a single protein chain

>  <Sequence Accession>
P08684

>  <Reference>
J Med Chem 55 (17), 7650-7666 (2012)

>  <Pubmed ID>
22849725

>  <DOI>
10.1021/jm3006788

$$$$
1442605
Actelion Java MolfileCreator 1.0

 42 47  0  0  0  0  0  0  0  0999 V2000
    0.0000   -0.0000   -0.0000 O   0  0  0  0  0  0  0  0  0  0  0  0
   -0.0119   -1.4961   -0.0000 C   0  0  0  0  0  0  0  0  0  0  0  0
    1.2824   -2.2323   -0.0000 N   0  0  0  0  0  0  0  0  0  0  0  0
   -1.3299   -2.2323   -0.0000 C   0  0  0  0  0  0  0  0  0  0  0  0
    2.5648   -1.4605   -0.0000 C   0  0  0  0  0  0  0  0  0  0  0  0
   -2.6361   -1.4724   -0.0000 C   0  0  0  0  0  0  0  0  0  0  0  0
   -1.3418   -3.7285   -0.0000 C   0  0  0  0  0  0  0  0  0  0  0  0
    3.8591   -2.2086   -0.0000 C   0  0  0  0  0  0  0  0  0  0  0  0
    3.6097   -0.3800   -0.0000 C   0  0  0  0  0  0  0  0  0  0  0  0
    1.4843   -0.3918   -0.0000 C   0  0  0  0  0  0  0  0  0  0  0  0
   -3.9422   -2.2086   -0.0000 C   0  0  0  0  0  0  0  0  0  0  0  0
   -2.6598   -4.4647   -0.0000 C   0  0  0  0  0  0  0  0  0  0  0  0
    3.8472   -3.7047   -0.0000 O   0  0  0  0  0  0  0  0  0  0  0  0
    5.1534   -1.4486   -0.0000 N   0  0  0  0  0  0  0  0  0  0  0  0
    2.5292    0.6887   -0.0000 C   0  0  0  0  0  0  0  0  0  0  0  0
   -5.3790   -1.7336   -0.0000 N   0  0  0  0  0  0  0  0  0  0  0  0
   -3.9660   -3.6929   -0.0000 C   0  0  0  0  0  0  0  0  0  0  0  0
    6.4476   -2.1848   -0.0000 C   0  0  0  0  0  0  0  0  0  0  0  0
   -6.2814   -2.9329   -0.0000 C   0  0  0  0  0  0  0  0  0  0  0  0
   -5.8539   -0.2969   -0.0000 C   0  0  0  0  0  0  0  0  0  0  0  0
   -5.4027   -4.1441   -0.0000 C   0  0  0  0  0  0  0  0  0  0  0  0
    6.4358   -3.6691   -0.0000 C   0  0  0  0  0  0  0  0  0  0  0  0
    7.7300   -1.4130   -0.0000 C   0  0  0  0  0  0  0  0  0  0  0  0
   -7.7894   -2.9210   -0.0000 C   0  0  0  0  0  0  0  0  0  0  0  0
   -5.8777   -5.5690   -0.0000 C   0  0  0  0  0  0  0  0  0  0  0  0
    7.7182   -4.4053   -0.0000 C   0  0  0  0  0  0  0  0  0  0  0  0
    9.0243   -2.1492   -0.0000 C   0  0  0  0  0  0  0  0  0  0  0  0
   -8.5494   -4.2034   -0.0000 N   0  0  0  0  0  0  0  0  0  0  0  0
   -8.5494   -1.6149   -0.0000 C   0  0  0  0  0  0  0  0  0  0  0  0
   -7.3145   -6.0202   -0.0000 C   0  0  0  0  0  0  0  0  0  0  0  0
   -5.0109   -6.7682   -0.0000 C   0  0  0  0  0  0  0  0  0  0  0  0
    9.0125   -3.6454   -0.0000 C   0  0  0  0  0  0  0  0  0  0  0  0
  -10.0574   -4.1916   -0.0000 C   0  0  0  0  0  0  0  0  0  0  0  0
  -10.0574   -1.6030   -0.0000 C   0  0  0  0  0  0  0  0  0  0  0  0
   -7.3263   -7.5163   -0.0000 C   0  0  0  0  0  0  0  0  0  0  0  0
   -5.9014   -7.9675   -0.0000 C   0  0  0  0  0  0  0  0  0  0  0  0
   10.3067   -4.3815   -0.0000 C   0  0  0  0  0  0  0  0  0  0  0  0
  -10.8292   -2.8854   -0.0000 C   0  0  0  0  0  0  0  0  0  0  0  0
   11.6010   -3.6216   -0.0000 C   0  0  0  0  0  0  0  0  0  0  0  0
   12.8953   -4.3578   -0.0000 C   0  0  0  0  0  0  0  0  0  0  0  0
   12.8834   -5.8539   -0.0000 O   0  0  0  0  0  0  0  0  0  0  0  0
   14.1896   -3.5979   -0.0000 O   0  0  0  0  0  0  0  0  0  0  0  0
  1  2  2  0  0  0  0
  2  3  1  0  0  0  0
  2  4  1  0  0  0  0
  3  5  1  0  0  0  0
  4  6  2  0  0  0  0
  4  7  1  0  0  0  0
  5  8  1  0  0  0  0
  5  9  1  0  0  0  0
  5 10  1  0  0  0  0
  6 11  1  0  0  0  0
  7 12  2  0  0  0  0
  8 13  2  0  0  0  0
  8 14  1  0  0  0  0
  9 15  1  0  0  0  0
 11 16  1  0  0  0  0
 11 17  2  0  0  0  0
 14 18  1  0  0  0  0
 16 19  1  0  0  0  0
 16 20  1  0  0  0  0
 17 21  1  0  0  0  0
 18 22  2  0  0  0  0
 18 23  1  0  0  0  0
 19 24  1  0  0  0  0
 21 25  1  0  0  0  0
 22 26  1  0  0  0  0
 23 27  2  0  0  0  0
 24 28  2  0  0  0  0
 24 29  1  0  0  0  0
 25 30  1  0  0  0  0
 25 31  1  0  0  0  0
 26 32  2  0  0  0  0
 28 33  1  0  0  0  0
 29 34  2  0  0  0  0
 30 35  1  0  0  0  0
 31 36  1  0  0  0  0
 32 37  1  0  0  0  0
 33 38  2  0  0  0  0
 37 39  2  0  0  0  0
 39 40  1  0  0  0  0
 40 41  2  0  0  0  0
 40 42  1  0  0  0  0
 10 15  1  0  0  0  0
 12 17  1  0  0  0  0
 19 21  2  0  0  0  0
 27 32  1  0  0  0  0
 34 38  1  0  0  0  0
 35 36  1  0  0  0  0
M  END
>  <MolRegNo>
1442605

>  <m>
=

>  <Value>
9500

>  <Unit>
nM

>  <Type>
IC50

>  <pValue>
5.02

>  <Ligand Efficiency>
0

>  <Binding Efficiency>
0

>  <Surface Efficiency>
0

>  <Assay Index>
695803

>  <Assay Category>


>  <Assay Organism>


>  <Target ID>
17045

>  <Target Name>
Cytochrome P450 3A4

>  <Target Organism>
Homo sapiens

>  <Target Description>
Target is a single protein chain

>  <Sequence Accession>
P08684

>  <Reference>
J Med Chem 55 (17), 7650-7666 (2012)

>  <Pubmed ID>
22849725

>  <DOI>
10.1021/jm3006788

$$$$
1442604
Actelion Java MolfileCreator 1.0

 43 48  0  0  0  0  0  0  0  0999 V2000
    0.0000   -0.0000   -0.0000 Cl  0  0  0  0  0  0  0  0  0  0  0  0
    1.4949    0.0119   -0.0000 C   0  0  0  0  0  0  0  0  0  0  0  0
    2.2304    1.3169   -0.0000 C   0  0  0  0  0  0  0  0  0  0  0  0
    2.2423   -1.2813   -0.0000 C   0  0  0  0  0  0  0  0  0  0  0  0
    3.7134    1.3288   -0.0000 C   0  0  0  0  0  0  0  0  0  0  0  0
    3.7253   -1.2694   -0.0000 C   0  0  0  0  0  0  0  0  0  0  0  0
    4.4490    0.0356   -0.0000 C   0  0  0  0  0  0  0  0  0  0  0  0
    5.9320    0.0475   -0.0000 C   0  0  0  0  0  0  0  0  0  0  0  0
    6.8099    1.2813   -0.0000 N   0  0  0  0  0  0  0  0  0  0  0  0
    6.7981   -1.1627   -0.0000 C   0  0  0  0  0  0  0  0  0  0  0  0
    8.2336    0.8305   -0.0000 C   0  0  0  0  0  0  0  0  0  0  0  0
    6.3354    2.7287   -0.0000 C   0  0  0  0  0  0  0  0  0  0  0  0
    8.2099   -0.6881   -0.0000 C   0  0  0  0  0  0  0  0  0  0  0  0
    6.3235   -2.5863   -0.0000 C   0  0  0  0  0  0  0  0  0  0  0  0
    9.5268    1.5898   -0.0000 C   0  0  0  0  0  0  0  0  0  0  0  0
    9.4912   -1.4355   -0.0000 C   0  0  0  0  0  0  0  0  0  0  0  0
    4.8761   -3.0372   -0.0000 C   0  0  0  0  0  0  0  0  0  0  0  0
    7.2014   -3.7965   -0.0000 C   0  0  0  0  0  0  0  0  0  0  0  0
   10.8200    0.8542   -0.0000 C   0  0  0  0  0  0  0  0  0  0  0  0
   10.7844   -0.6762   -0.0000 C   0  0  0  0  0  0  0  0  0  0  0  0
    4.8642   -4.5320   -0.0000 C   0  0  0  0  0  0  0  0  0  0  0  0
    6.2998   -5.0066   -0.0000 C   0  0  0  0  0  0  0  0  0  0  0  0
   12.1131    1.6135   -0.0000 C   0  0  0  0  0  0  0  0  0  0  0  0
   12.1013    3.1321   -0.0000 O   0  0  0  0  0  0  0  0  0  0  0  0
   13.4063    0.8661   -0.0000 N   0  0  0  0  0  0  0  0  0  0  0  0
   14.6876    1.6372   -0.0000 C   0  0  0  0  0  0  0  0  0  0  0  0
   15.9927    0.8898   -0.0000 C   0  0  0  0  0  0  0  0  0  0  0  0
   15.4232    2.9541   -0.0000 C   0  0  0  0  0  0  0  0  0  0  0  0
   13.3707    2.3965   -0.0000 C   0  0  0  0  0  0  0  0  0  0  0  0
   15.9808   -0.6051   -0.0000 O   0  0  0  0  0  0  0  0  0  0  0  0
   17.2858    1.6491   -0.0000 N   0  0  0  0  0  0  0  0  0  0  0  0
   14.1063    3.7134   -0.0000 C   0  0  0  0  0  0  0  0  0  0  0  0
   18.5790    0.9017   -0.0000 C   0  0  0  0  0  0  0  0  0  0  0  0
   18.5671   -0.5932   -0.0000 C   0  0  0  0  0  0  0  0  0  0  0  0
   19.8603    1.6728   -0.0000 C   0  0  0  0  0  0  0  0  0  0  0  0
   19.8603   -1.3406   -0.0000 C   0  0  0  0  0  0  0  0  0  0  0  0
   21.1535    0.9373   -0.0000 C   0  0  0  0  0  0  0  0  0  0  0  0
   21.1535   -0.5813   -0.0000 C   0  0  0  0  0  0  0  0  0  0  0  0
   22.4467   -1.3169   -0.0000 C   0  0  0  0  0  0  0  0  0  0  0  0
   23.7398   -0.5457   -0.0000 C   0  0  0  0  0  0  0  0  0  0  0  0
   25.0330   -1.2813   -0.0000 C   0  0  0  0  0  0  0  0  0  0  0  0
   25.0211   -2.7762   -0.0000 O   0  0  0  0  0  0  0  0  0  0  0  0
   26.3262   -0.5102   -0.0000 O   0  0  0  0  0  0  0  0  0  0  0  0
  1  2  1  0  0  0  0
  2  3  2  0  0  0  0
  2  4  1  0  0  0  0
  3  5  1  0  0  0  0
  4  6  2  0  0  0  0
  5  7  2  0  0  0  0
  7  8  1  0  0  0  0
  8  9  1  0  0  0  0
  8 10  2  0  0  0  0
  9 11  1  0  0  0  0
  9 12  1  0  0  0  0
 10 13  1  0  0  0  0
 10 14  1  0  0  0  0
 11 15  1  0  0  0  0
 13 16  1  0  0  0  0
 14 17  1  0  0  0  0
 14 18  1  0  0  0  0
 15 19  2  0  0  0  0
 16 20  2  0  0  0  0
 17 21  1  0  0  0  0
 18 22  1  0  0  0  0
 19 23  1  0  0  0  0
 23 24  2  0  0  0  0
 23 25  1  0  0  0  0
 25 26  1  0  0  0  0
 26 27  1  0  0  0  0
 26 28  1  0  0  0  0
 26 29  1  0  0  0  0
 27 30  2  0  0  0  0
 27 31  1  0  0  0  0
 28 32  1  0  0  0  0
 31 33  1  0  0  0  0
 33 34  2  0  0  0  0
 33 35  1  0  0  0  0
 34 36  1  0  0  0  0
 35 37  2  0  0  0  0
 36 38  2  0  0  0  0
 38 39  1  0  0  0  0
 39 40  2  0  0  0  0
 40 41  1  0  0  0  0
 41 42  2  0  0  0  0
 41 43  1  0  0  0  0
  6  7  1  0  0  0  0
 11 13  2  0  0  0  0
 19 20  1  0  0  0  0
 21 22  1  0  0  0  0
 29 32  1  0  0  0  0
 37 38  1  0  0  0  0
M  END
>  <MolRegNo>
1442604

>  <m>
=

>  <Value>
8300

>  <Unit>
nM

>  <Type>
IC50

>  <pValue>
5.08

>  <Ligand Efficiency>
0

>  <Binding Efficiency>
0

>  <Surface Efficiency>
0

>  <Assay Index>
695803

>  <Assay Category>


>  <Assay Organism>


>  <Target ID>
17045

>  <Target Name>
Cytochrome P450 3A4

>  <Target Organism>
Homo sapiens

>  <Target Description>
Target is a single protein chain

>  <Sequence Accession>
P08684

>  <Reference>
J Med Chem 55 (17), 7650-7666 (2012)

>  <Pubmed ID>
22849725

>  <DOI>
10.1021/jm3006788

$$$$
1442593
Actelion Java MolfileCreator 1.0

 41 46  0  0  0  0  0  0  0  0999 V2000
    0.0000   -0.0000   -0.0000 O   0  0  0  0  0  0  0  0  0  0  0  0
   -0.0119   -1.4956   -0.0000 C   0  0  0  0  0  0  0  0  0  0  0  0
    1.2820   -2.2434   -0.0000 N   0  0  0  0  0  0  0  0  0  0  0  0
   -1.3294   -2.2434   -0.0000 C   0  0  0  0  0  0  0  0  0  0  0  0
    2.5639   -1.4719   -0.0000 C   0  0  0  0  0  0  0  0  0  0  0  0
   -2.6351   -1.4838   -0.0000 C   0  0  0  0  0  0  0  0  0  0  0  0
   -1.3413   -3.7391   -0.0000 C   0  0  0  0  0  0  0  0  0  0  0  0
    3.8578   -2.2197   -0.0000 C   0  0  0  0  0  0  0  0  0  0  0  0
    3.6085   -0.3917   -0.0000 C   0  0  0  0  0  0  0  0  0  0  0  0
    1.4838   -0.4036   -0.0000 C   0  0  0  0  0  0  0  0  0  0  0  0
   -3.9408   -2.2197   -0.0000 C   0  0  0  0  0  0  0  0  0  0  0  0
   -2.6470   -4.4631   -0.0000 C   0  0  0  0  0  0  0  0  0  0  0  0
    3.8459   -3.7153   -0.0000 O   0  0  0  0  0  0  0  0  0  0  0  0
    5.1516   -1.4481   -0.0000 N   0  0  0  0  0  0  0  0  0  0  0  0
    2.5283    0.6766   -0.0000 C   0  0  0  0  0  0  0  0  0  0  0  0
   -5.3771   -1.7330   -0.0000 N   0  0  0  0  0  0  0  0  0  0  0  0
   -3.9646   -3.7153   -0.0000 C   0  0  0  0  0  0  0  0  0  0  0  0
    6.4454   -2.1960   -0.0000 C   0  0  0  0  0  0  0  0  0  0  0  0
   -6.2792   -2.9319   -0.0000 C   0  0  0  0  0  0  0  0  0  0  0  0
   -5.8519   -0.2968   -0.0000 C   0  0  0  0  0  0  0  0  0  0  0  0
   -5.4009   -4.1664   -0.0000 C   0  0  0  0  0  0  0  0  0  0  0  0
    6.4335   -3.6797   -0.0000 C   0  0  0  0  0  0  0  0  0  0  0  0
    7.7274   -1.4244   -0.0000 C   0  0  0  0  0  0  0  0  0  0  0  0
   -7.7867   -2.9200   -0.0000 C   0  0  0  0  0  0  0  0  0  0  0  0
   -5.8757   -5.5908   -0.0000 C   0  0  0  0  0  0  0  0  0  0  0  0
    7.7155   -4.4156   -0.0000 C   0  0  0  0  0  0  0  0  0  0  0  0
    9.0093   -2.1603   -0.0000 C   0  0  0  0  0  0  0  0  0  0  0  0
   -8.6651   -4.1070   -0.0000 C   0  0  0  0  0  0  0  0  0  0  0  0
   -8.6651   -1.6855   -0.0000 C   0  0  0  0  0  0  0  0  0  0  0  0
   -7.3119   -6.0418   -0.0000 C   0  0  0  0  0  0  0  0  0  0  0  0
   -4.9973   -6.8015   -0.0000 C   0  0  0  0  0  0  0  0  0  0  0  0
    8.9975   -3.6560   -0.0000 C   0  0  0  0  0  0  0  0  0  0  0  0
  -10.1014   -3.6322   -0.0000 O   0  0  0  0  0  0  0  0  0  0  0  0
  -10.1014   -2.1366   -0.0000 C   0  0  0  0  0  0  0  0  0  0  0  0
   -7.3238   -7.5375   -0.0000 C   0  0  0  0  0  0  0  0  0  0  0  0
   -5.8994   -8.0004   -0.0000 C   0  0  0  0  0  0  0  0  0  0  0  0
   10.2913   -4.3919   -0.0000 C   0  0  0  0  0  0  0  0  0  0  0  0
   11.5851   -3.6322   -0.0000 C   0  0  0  0  0  0  0  0  0  0  0  0
   12.8790   -4.3682   -0.0000 C   0  0  0  0  0  0  0  0  0  0  0  0
   12.8671   -5.8638   -0.0000 O   0  0  0  0  0  0  0  0  0  0  0  0
   14.1728   -3.6085   -0.0000 O   0  0  0  0  0  0  0  0  0  0  0  0
  1  2  2  0  0  0  0
  2  3  1  0  0  0  0
  2  4  1  0  0  0  0
  3  5  1  0  0  0  0
  4  6  2  0  0  0  0
  4  7  1  0  0  0  0
  5  8  1  0  0  0  0
  5  9  1  0  0  0  0
  5 10  1  0  0  0  0
  6 11  1  0  0  0  0
  7 12  2  0  0  0  0
  8 13  2  0  0  0  0
  8 14  1  0  0  0  0
  9 15  1  0  0  0  0
 11 16  1  0  0  0  0
 11 17  2  0  0  0  0
 14 18  1  0  0  0  0
 16 19  1  0  0  0  0
 16 20  1  0  0  0  0
 17 21  1  0  0  0  0
 18 22  2  0  0  0  0
 18 23  1  0  0  0  0
 19 24  1  0  0  0  0
 21 25  1  0  0  0  0
 22 26  1  0  0  0  0
 23 27  2  0  0  0  0
 24 28  2  0  0  0  0
 24 29  1  0  0  0  0
 25 30  1  0  0  0  0
 25 31  1  0  0  0  0
 26 32  2  0  0  0  0
 28 33  1  0  0  0  0
 29 34  2  0  0  0  0
 30 35  1  0  0  0  0
 31 36  1  0  0  0  0
 32 37  1  0  0  0  0
 37 38  2  0  0  0  0
 38 39  1  0  0  0  0
 39 40  2  0  0  0  0
 39 41  1  0  0  0  0
 10 15  1  0  0  0  0
 12 17  1  0  0  0  0
 19 21  2  0  0  0  0
 27 32  1  0  0  0  0
 33 34  1  0  0  0  0
 35 36  1  0  0  0  0
M  END
>  <MolRegNo>
1442593

>  <m>
=

>  <Value>
9200

>  <Unit>
nM

>  <Type>
IC50

>  <pValue>
5.04

>  <Ligand Efficiency>
0

>  <Binding Efficiency>
0

>  <Surface Efficiency>
0

>  <Assay Index>
695803

>  <Assay Category>


>  <Assay Organism>


>  <Target ID>
17045

>  <Target Name>
Cytochrome P450 3A4

>  <Target Organism>
Homo sapiens

>  <Target Description>
Target is a single protein chain

>  <Sequence Accession>
P08684

>  <Reference>
J Med Chem 55 (17), 7650-7666 (2012)

>  <Pubmed ID>
22849725

>  <DOI>
10.1021/jm3006788

$$$$
1442618
Actelion Java MolfileCreator 1.0

 42 46  0  0  0  0  0  0  0  0999 V2000
    0.0000   -0.0000   -0.0000 Cl  0  0  0  0  0  0  0  0  0  0  0  0
    1.4954    0.0119   -0.0000 C   0  0  0  0  0  0  0  0  0  0  0  0
    2.2431   -1.2818   -0.0000 C   0  0  0  0  0  0  0  0  0  0  0  0
    2.2313    1.3174   -0.0000 C   0  0  0  0  0  0  0  0  0  0  0  0
    3.7267   -1.2699   -0.0000 N   0  0  0  0  0  0  0  0  0  0  0  0
    3.7148    1.3293   -0.0000 C   0  0  0  0  0  0  0  0  0  0  0  0
    4.4625    0.0356   -0.0000 C   0  0  0  0  0  0  0  0  0  0  0  0
    5.9461    0.0475   -0.0000 C   0  0  0  0  0  0  0  0  0  0  0  0
    6.8243    1.2818   -0.0000 N   0  0  0  0  0  0  0  0  0  0  0  0
    6.8125   -1.1631   -0.0000 C   0  0  0  0  0  0  0  0  0  0  0  0
    8.2485    0.8308   -0.0000 C   0  0  0  0  0  0  0  0  0  0  0  0
    6.3496    2.7297   -0.0000 C   0  0  0  0  0  0  0  0  0  0  0  0
    8.2248   -0.6884   -0.0000 C   0  0  0  0  0  0  0  0  0  0  0  0
    6.3377   -2.5873   -0.0000 C   0  0  0  0  0  0  0  0  0  0  0  0
    9.5422    1.5904   -0.0000 C   0  0  0  0  0  0  0  0  0  0  0  0
    9.5066   -1.4361   -0.0000 C   0  0  0  0  0  0  0  0  0  0  0  0
    4.8898   -3.0383   -0.0000 C   0  0  0  0  0  0  0  0  0  0  0  0
    7.2160   -3.7979   -0.0000 C   0  0  0  0  0  0  0  0  0  0  0  0
   10.8358    0.8545   -0.0000 C   0  0  0  0  0  0  0  0  0  0  0  0
   10.8002   -0.6765   -0.0000 C   0  0  0  0  0  0  0  0  0  0  0  0
    4.8779   -4.5337   -0.0000 C   0  0  0  0  0  0  0  0  0  0  0  0
    6.3140   -5.0085   -0.0000 C   0  0  0  0  0  0  0  0  0  0  0  0
   12.1295    1.6141   -0.0000 C   0  0  0  0  0  0  0  0  0  0  0  0
   12.1176    3.1333   -0.0000 O   0  0  0  0  0  0  0  0  0  0  0  0
   13.4231    0.8664   -0.0000 N   0  0  0  0  0  0  0  0  0  0  0  0
   14.7168    1.6378   -0.0000 C   0  0  0  0  0  0  0  0  0  0  0  0
   16.0105    0.8901   -0.0000 C   0  0  0  0  0  0  0  0  0  0  0  0
   13.3994    2.3855   -0.0000 C   0  0  0  0  0  0  0  0  0  0  0  0
   16.0105    2.4093   -0.0000 C   0  0  0  0  0  0  0  0  0  0  0  0
   15.9986   -0.6053   -0.0000 O   0  0  0  0  0  0  0  0  0  0  0  0
   17.3041    1.6497   -0.0000 N   0  0  0  0  0  0  0  0  0  0  0  0
   18.5978    0.9020   -0.0000 C   0  0  0  0  0  0  0  0  0  0  0  0
   18.5859   -0.5934   -0.0000 C   0  0  0  0  0  0  0  0  0  0  0  0
   19.8795    1.6734   -0.0000 C   0  0  0  0  0  0  0  0  0  0  0  0
   19.8795   -1.3411   -0.0000 C   0  0  0  0  0  0  0  0  0  0  0  0
   21.1732    0.9376   -0.0000 C   0  0  0  0  0  0  0  0  0  0  0  0
   21.1732   -0.5816   -0.0000 C   0  0  0  0  0  0  0  0  0  0  0  0
   22.4669   -1.3174   -0.0000 C   0  0  0  0  0  0  0  0  0  0  0  0
   23.7605   -0.5459   -0.0000 C   0  0  0  0  0  0  0  0  0  0  0  0
   25.0542   -1.2818   -0.0000 C   0  0  0  0  0  0  0  0  0  0  0  0
   25.0423   -2.7772   -0.0000 O   0  0  0  0  0  0  0  0  0  0  0  0
   26.3478   -0.5103   -0.0000 O   0  0  0  0  0  0  0  0  0  0  0  0
  1  2  1  0  0  0  0
  2  3  2  0  0  0  0
  2  4  1  0  0  0  0
  3  5  1  0  0  0  0
  4  6  2  0  0  0  0
  5  7  2  0  0  0  0
  7  8  1  0  0  0  0
  8  9  1  0  0  0  0
  8 10  2  0  0  0  0
  9 11  1  0  0  0  0
  9 12  1  0  0  0  0
 10 13  1  0  0  0  0
 10 14  1  0  0  0  0
 11 15  1  0  0  0  0
 13 16  1  0  0  0  0
 14 17  1  0  0  0  0
 14 18  1  0  0  0  0
 15 19  2  0  0  0  0
 16 20  2  0  0  0  0
 17 21  1  0  0  0  0
 18 22  1  0  0  0  0
 19 23  1  0  0  0  0
 23 24  2  0  0  0  0
 23 25  1  0  0  0  0
 25 26  1  0  0  0  0
 26 27  1  0  0  0  0
 26 28  1  0  0  0  0
 26 29  1  0  0  0  0
 27 30  2  0  0  0  0
 27 31  1  0  0  0  0
 31 32  1  0  0  0  0
 32 33  2  0  0  0  0
 32 34  1  0  0  0  0
 33 35  1  0  0  0  0
 34 36  2  0  0  0  0
 35 37  2  0  0  0  0
 37 38  1  0  0  0  0
 38 39  2  0  0  0  0
 39 40  1  0  0  0  0
 40 41  2  0  0  0  0
 40 42  1  0  0  0  0
  6  7  1  0  0  0  0
 11 13  2  0  0  0  0
 19 20  1  0  0  0  0
 21 22  1  0  0  0  0
 36 37  1  0  0  0  0
M  END
>  <MolRegNo>
1442618

>  <m>
=

>  <Value>
9400

>  <Unit>
nM

>  <Type>
IC50

>  <pValue>
5.03

>  <Ligand Efficiency>
0

>  <Binding Efficiency>
0

>  <Surface Efficiency>
0

>  <Assay Index>
695803

>  <Assay Category>


>  <Assay Organism>


>  <Target ID>
17045

>  <Target Name>
Cytochrome P450 3A4

>  <Target Organism>
Homo sapiens

>  <Target Description>
Target is a single protein chain

>  <Sequence Accession>
P08684

>  <Reference>
J Med Chem 55 (17), 7650-7666 (2012)

>  <Pubmed ID>
22849725

>  <DOI>
10.1021/jm3006788

$$$$
1442615
Actelion Java MolfileCreator 1.0

 41 45  0  0  0  0  0  0  0  0999 V2000
    0.0000   -0.0000   -0.0000 O   0  0  0  0  0  0  0  0  0  0  0  0
   -0.0119   -1.4968   -0.0000 C   0  0  0  0  0  0  0  0  0  0  0  0
    1.2830   -2.2333   -0.0000 N   0  0  0  0  0  0  0  0  0  0  0  0
   -1.3305   -2.2333   -0.0000 C   0  0  0  0  0  0  0  0  0  0  0  0
    2.5778   -1.4730   -0.0000 C   0  0  0  0  0  0  0  0  0  0  0  0
   -2.6372   -1.4730   -0.0000 C   0  0  0  0  0  0  0  0  0  0  0  0
   -1.3424   -3.7301   -0.0000 C   0  0  0  0  0  0  0  0  0  0  0  0
    3.8608   -2.2096   -0.0000 C   0  0  0  0  0  0  0  0  0  0  0  0
    1.2592   -0.7246   -0.0000 C   0  0  0  0  0  0  0  0  0  0  0  0
    3.8608   -0.7009   -0.0000 C   0  0  0  0  0  0  0  0  0  0  0  0
   -3.9440   -2.2096   -0.0000 C   0  0  0  0  0  0  0  0  0  0  0  0
   -2.6610   -4.4667   -0.0000 C   0  0  0  0  0  0  0  0  0  0  0  0
    3.8489   -3.7064   -0.0000 O   0  0  0  0  0  0  0  0  0  0  0  0
    5.1557   -1.4493   -0.0000 N   0  0  0  0  0  0  0  0  0  0  0  0
   -5.3814   -1.7344   -0.0000 N   0  0  0  0  0  0  0  0  0  0  0  0
   -3.9677   -3.7064   -0.0000 C   0  0  0  0  0  0  0  0  0  0  0  0
    6.4505   -2.1858   -0.0000 C   0  0  0  0  0  0  0  0  0  0  0  0
   -6.2842   -2.9342   -0.0000 C   0  0  0  0  0  0  0  0  0  0  0  0
   -5.8566   -0.2970   -0.0000 C   0  0  0  0  0  0  0  0  0  0  0  0
   -5.4051   -4.1578   -0.0000 C   0  0  0  0  0  0  0  0  0  0  0  0
    6.4386   -3.6707   -0.0000 C   0  0  0  0  0  0  0  0  0  0  0  0
    7.7335   -1.4137   -0.0000 C   0  0  0  0  0  0  0  0  0  0  0  0
   -7.7929   -2.9223   -0.0000 C   0  0  0  0  0  0  0  0  0  0  0  0
   -5.8803   -5.5833   -0.0000 C   0  0  0  0  0  0  0  0  0  0  0  0
    7.7216   -4.4073   -0.0000 C   0  0  0  0  0  0  0  0  0  0  0  0
    9.0284   -2.1502   -0.0000 C   0  0  0  0  0  0  0  0  0  0  0  0
   -8.5532   -4.2053   -0.0000 N   0  0  0  0  0  0  0  0  0  0  0  0
   -8.5532   -1.6156   -0.0000 C   0  0  0  0  0  0  0  0  0  0  0  0
   -7.3177   -6.0347   -0.0000 C   0  0  0  0  0  0  0  0  0  0  0  0
   -5.0131   -6.7831   -0.0000 C   0  0  0  0  0  0  0  0  0  0  0  0
    9.0165   -3.6470   -0.0000 C   0  0  0  0  0  0  0  0  0  0  0  0
  -10.0619   -4.1934   -0.0000 C   0  0  0  0  0  0  0  0  0  0  0  0
  -10.0619   -1.6037   -0.0000 C   0  0  0  0  0  0  0  0  0  0  0  0
   -7.3296   -7.5315   -0.0000 C   0  0  0  0  0  0  0  0  0  0  0  0
   -5.9041   -7.9830   -0.0000 C   0  0  0  0  0  0  0  0  0  0  0  0
   10.3113   -4.3835   -0.0000 C   0  0  0  0  0  0  0  0  0  0  0  0
  -10.8340   -2.8867   -0.0000 C   0  0  0  0  0  0  0  0  0  0  0  0
   11.6062   -3.6232   -0.0000 C   0  0  0  0  0  0  0  0  0  0  0  0
   12.9010   -4.3597   -0.0000 C   0  0  0  0  0  0  0  0  0  0  0  0
   12.8892   -5.8566   -0.0000 O   0  0  0  0  0  0  0  0  0  0  0  0
   14.1959   -3.5995   -0.0000 O   0  0  0  0  0  0  0  0  0  0  0  0
  1  2  2  0  0  0  0
  2  3  1  0  0  0  0
  2  4  1  0  0  0  0
  3  5  1  0  0  0  0
  4  6  2  0  0  0  0
  4  7  1  0  0  0  0
  5  8  1  0  0  0  0
  5  9  1  0  0  0  0
  5 10  1  0  0  0  0
  6 11  1  0  0  0  0
  7 12  2  0  0  0  0
  8 13  2  0  0  0  0
  8 14  1  0  0  0  0
 11 15  1  0  0  0  0
 11 16  2  0  0  0  0
 14 17  1  0  0  0  0
 15 18  1  0  0  0  0
 15 19  1  0  0  0  0
 16 20  1  0  0  0  0
 17 21  2  0  0  0  0
 17 22  1  0  0  0  0
 18 23  1  0  0  0  0
 20 24  1  0  0  0  0
 21 25  1  0  0  0  0
 22 26  2  0  0  0  0
 23 27  2  0  0  0  0
 23 28  1  0  0  0  0
 24 29  1  0  0  0  0
 24 30  1  0  0  0  0
 25 31  2  0  0  0  0
 27 32  1  0  0  0  0
 28 33  2  0  0  0  0
 29 34  1  0  0  0  0
 30 35  1  0  0  0  0
 31 36  1  0  0  0  0
 32 37  2  0  0  0  0
 36 38  2  0  0  0  0
 38 39  1  0  0  0  0
 39 40  2  0  0  0  0
 39 41  1  0  0  0  0
 12 16  1  0  0  0  0
 18 20  2  0  0  0  0
 26 31  1  0  0  0  0
 33 37  1  0  0  0  0
 34 35  1  0  0  0  0
M  END
>  <MolRegNo>
1442615

>  <m>
=

>  <Value>
7900

>  <Unit>
nM

>  <Type>
IC50

>  <pValue>
5.1

>  <Ligand Efficiency>
0

>  <Binding Efficiency>
0

>  <Surface Efficiency>
0

>  <Assay Index>
695803

>  <Assay Category>


>  <Assay Organism>


>  <Target ID>
17045

>  <Target Name>
Cytochrome P450 3A4

>  <Target Organism>
Homo sapiens

>  <Target Description>
Target is a single protein chain

>  <Sequence Accession>
P08684

>  <Reference>
J Med Chem 55 (17), 7650-7666 (2012)

>  <Pubmed ID>
22849725

>  <DOI>
10.1021/jm3006788

$$$$
1334999
Actelion Java MolfileCreator 1.0

 29 32  0  0  0  0  0  0  0  0999 V2000
    0.0000   -0.0000   -0.0000 O   0  0  0  0  0  0  0  0  0  0  0  0
    0.0000   -1.4801   -0.0000 C   0  0  0  0  0  0  0  0  0  0  0  0
    1.2907   -2.2025   -0.0000 N   0  0  0  0  0  0  0  0  0  0  0  0
   -1.3025   -2.2261   -0.0000 C   0  0  0  0  0  0  0  0  0  0  0  0
   -2.6169   -1.4801   -0.0000 C   0  0  0  0  0  0  0  0  0  0  0  0
   -1.3025   -3.7181   -0.0000 C   0  0  0  0  0  0  0  0  0  0  0  0
   -2.6406    0.0237   -0.0000 N   0  0  0  0  0  0  0  0  0  0  0  0
   -3.9194   -2.2143   -0.0000 C   0  0  0  0  0  0  0  0  0  0  0  0
   -2.6051   -4.4523   -0.0000 N   0  0  0  0  0  0  0  0  0  0  0  0
   -3.9549    0.7815   -0.0000 C   0  0  0  0  0  0  0  0  0  0  0  0
   -3.9313   -3.7063   -0.0000 C   0  0  0  0  0  0  0  0  0  0  0  0
   -5.2220   -1.4565   -0.0000 C   0  0  0  0  0  0  0  0  0  0  0  0
   -3.9668    2.2853   -0.0000 C   0  0  0  0  0  0  0  0  0  0  0  0
   -5.2456    0.0355   -0.0000 C   0  0  0  0  0  0  0  0  0  0  0  0
   -5.2338   -4.4523   -0.0000 C   0  0  0  0  0  0  0  0  0  0  0  0
   -6.5245   -2.1906   -0.0000 C   0  0  0  0  0  0  0  0  0  0  0  0
   -5.2693    3.0432   -0.0000 C   0  0  0  0  0  0  0  0  0  0  0  0
   -6.5600    0.7934   -0.0000 C   0  0  0  0  0  0  0  0  0  0  0  0
   -6.5363   -3.6944   -0.0000 C   0  0  0  0  0  0  0  0  0  0  0  0
   -7.8270   -1.4328   -0.0000 O   0  0  0  0  0  0  0  0  0  0  0  0
   -6.5718    2.3090   -0.0000 C   0  0  0  0  0  0  0  0  0  0  0  0
   -7.8389   -4.4286   -0.0000 C   0  0  0  0  0  0  0  0  0  0  0  0
   -7.8389    0.0710   -0.0000 C   0  0  0  0  0  0  0  0  0  0  0  0
   -9.2598   -3.9313   -0.0000 C   0  0  0  0  0  0  0  0  0  0  0  0
   -7.8862   -5.9087   -0.0000 C   0  0  0  0  0  0  0  0  0  0  0  0
  -10.1716   -5.1154   -0.0000 O   0  0  0  0  0  0  0  0  0  0  0  0
   -9.7098   -2.4866   -0.0000 C   0  0  0  0  0  0  0  0  0  0  0  0
   -9.3308   -6.3350   -0.0000 N   0  0  0  0  0  0  0  0  0  0  0  0
   -6.7021   -6.7968   -0.0000 C   0  0  0  0  0  0  0  0  0  0  0  0
  1  2  2  0  0  0  0
  2  3  1  0  0  0  0
  2  4  1  0  0  0  0
  4  5  2  0  0  0  0
  4  6  1  0  0  0  0
  5  7  1  0  0  0  0
  5  8  1  0  0  0  0
  6  9  2  0  0  0  0
  7 10  1  0  0  0  0
  8 11  1  0  0  0  0
  8 12  2  0  0  0  0
 10 13  1  0  0  0  0
 10 14  1  0  0  0  0
 11 15  2  0  0  0  0
 12 16  1  0  0  0  0
 13 17  1  0  0  0  0
 14 18  1  0  0  0  0
 15 19  1  0  0  0  0
 16 20  1  0  0  0  0
 17 21  1  0  0  0  0
 19 22  1  0  0  0  0
 20 23  1  0  0  0  0
 22 24  2  0  0  0  0
 22 25  1  0  0  0  0
 24 26  1  0  0  0  0
 24 27  1  0  0  0  0
 25 28  2  0  0  0  0
 25 29  1  0  0  0  0
  9 11  1  0  0  0  0
 16 19  2  0  0  0  0
 18 21  1  0  0  0  0
 26 28  1  0  0  0  0
M  END
>  <MolRegNo>
1334999

>  <m>
=

>  <Value>
6100

>  <Unit>
nM

>  <Type>
IC50

>  <pValue>
5.21

>  <Ligand Efficiency>
0

>  <Binding Efficiency>
0

>  <Surface Efficiency>
0

>  <Assay Index>
695987

>  <Assay Category>


>  <Assay Organism>


>  <Target ID>
17045

>  <Target Name>
Cytochrome P450 3A4

>  <Target Organism>
Homo sapiens

>  <Target Description>
Target is a single protein chain

>  <Sequence Accession>
P08684

>  <Reference>
Bioorg Med Chem Lett 22 (8), 2968-2972 (2012)

>  <Pubmed ID>
22437115

>  <DOI>
10.1016/j.bmcl.2012.02.041

$$$$
1443976
Actelion Java MolfileCreator 1.0

 22 23  0  0  0  0  0  0  0  0999 V2000
    0.0000   -0.0000   -0.0000 Cl  0  0  0  0  0  0  0  0  0  0  0  0
   -1.3247   -0.7096   -0.0000 C   0  0  0  0  0  0  0  0  0  0  0  0
   -1.3602   -2.1999   -0.0000 C   0  0  0  0  0  0  0  0  0  0  0  0
   -2.6257    0.0828   -0.0000 C   0  0  0  0  0  0  0  0  0  0  0  0
   -0.0828   -2.9687   -0.0000 S   0  0  0  0  0  0  0  0  0  0  0  0
   -2.6848   -2.9096   -0.0000 C   0  0  0  0  0  0  0  0  0  0  0  0
   -3.9504   -0.6269   -0.0000 C   0  0  0  0  0  0  0  0  0  0  0  0
   -0.1183   -4.4589   -0.0000 C   0  0  0  0  0  0  0  0  0  0  0  0
   -3.9859   -2.1171   -0.0000 C   0  0  0  0  0  0  0  0  0  0  0  0
   -5.2514    0.1656   -0.0000 C   0  0  0  0  0  0  0  0  0  0  0  0
    1.1591   -5.2277   -0.0000 C   0  0  0  0  0  0  0  0  0  0  0  0
   -1.4429   -5.1686   -0.0000 C   0  0  0  0  0  0  0  0  0  0  0  0
    2.4601   -4.4944   -0.0000 N   0  0  0  0  0  0  0  0  0  0  0  0
    1.1236   -6.7180   -0.0000 C   0  0  0  0  0  0  0  0  0  0  0  0
   -1.4784   -6.6589   -0.0000 C   0  0  0  0  0  0  0  0  0  0  0  0
    3.7375   -5.2632   -0.0000 C   0  0  0  0  0  0  0  0  0  0  0  0
    2.4719   -2.9805   -0.0000 C   0  0  0  0  0  0  0  0  0  0  0  0
   -0.2011   -7.4276   -0.0000 C   0  0  0  0  0  0  0  0  0  0  0  0
    5.0385   -4.5299   -0.0000 C   0  0  0  0  0  0  0  0  0  0  0  0
    3.7730   -2.2472   -0.0000 C   0  0  0  0  0  0  0  0  0  0  0  0
    5.0503   -3.0160   -0.0000 N   0  0  0  0  0  0  0  0  0  0  0  0
    9.1781   -4.0686   -0.0000 Cl  0  0  0  0  0  0  0  0  0  0  0  0
  1  2  1  0  0  0  0
  2  3  2  0  0  0  0
  2  4  1  0  0  0  0
  3  5  1  0  0  0  0
  3  6  1  0  0  0  0
  4  7  2  0  0  0  0
  5  8  1  0  0  0  0
  6  9  2  0  0  0  0
  7 10  1  0  0  0  0
  8 11  2  0  0  0  0
  8 12  1  0  0  0  0
 11 13  1  0  0  0  0
 11 14  1  0  0  0  0
 12 15  2  0  0  0  0
 13 16  1  0  0  0  0
 13 17  1  0  0  0  0
 14 18  2  0  0  0  0
 16 19  1  0  0  0  0
 17 20  1  0  0  0  0
 19 21  1  0  0  0  0
  7  9  1  0  0  0  0
 15 18  1  0  0  0  0
 20 21  1  0  0  0  0
M  END
>  <MolRegNo>
1443976

>  <m>
=

>  <Value>
5500

>  <Unit>
nM

>  <Type>
IC50

>  <pValue>
5.26

>  <Ligand Efficiency>
0

>  <Binding Efficiency>
0

>  <Surface Efficiency>
0

>  <Assay Index>
702627

>  <Assay Category>


>  <Assay Organism>
Homo sapiens

>  <Target ID>
17045

>  <Target Name>
Cytochrome P450 3A4

>  <Target Organism>
Homo sapiens

>  <Target Description>
Target is a single protein chain

>  <Sequence Accession>
P08684

>  <Reference>
J Med Chem 54 (9), 3206-3221 (2011)

>  <Pubmed ID>
21486038

>  <DOI>
10.1021/jm101459g

$$$$
1443973
Actelion Java MolfileCreator 1.0

 22 23  0  0  0  0  0  0  0  0999 V2000
    0.0000   -0.0000   -0.0000 Cl  0  0  0  0  0  0  0  0  0  0  0  0
   -8.2162   -1.7943   -0.0000 S   0  0  0  0  0  0  0  0  0  0  0  0
   -8.2398   -3.2818   -0.0000 C   0  0  0  0  0  0  0  0  0  0  0  0
   -9.5147   -1.0152   -0.0000 C   0  0  0  0  0  0  0  0  0  0  0  0
   -6.9649   -4.0373   -0.0000 C   0  0  0  0  0  0  0  0  0  0  0  0
   -9.5620   -4.0019   -0.0000 C   0  0  0  0  0  0  0  0  0  0  0  0
   -9.5147    0.4958   -0.0000 C   0  0  0  0  0  0  0  0  0  0  0  0
  -10.8369   -1.7353   -0.0000 C   0  0  0  0  0  0  0  0  0  0  0  0
   -5.6663   -3.2936   -0.0000 N   0  0  0  0  0  0  0  0  0  0  0  0
   -6.9885   -5.5247   -0.0000 C   0  0  0  0  0  0  0  0  0  0  0  0
   -9.5856   -5.4893   -0.0000 C   0  0  0  0  0  0  0  0  0  0  0  0
  -10.8133    1.2749   -0.0000 C   0  0  0  0  0  0  0  0  0  0  0  0
   -8.2162    1.2395   -0.0000 C   0  0  0  0  0  0  0  0  0  0  0  0
  -12.1354   -0.9562   -0.0000 C   0  0  0  0  0  0  0  0  0  0  0  0
   -4.3914   -4.0491   -0.0000 C   0  0  0  0  0  0  0  0  0  0  0  0
   -5.6663   -1.7825   -0.0000 C   0  0  0  0  0  0  0  0  0  0  0  0
   -8.3106   -6.2448   -0.0000 C   0  0  0  0  0  0  0  0  0  0  0  0
  -12.1354    0.5548   -0.0000 C   0  0  0  0  0  0  0  0  0  0  0  0
   -3.0929   -3.3054   -0.0000 C   0  0  0  0  0  0  0  0  0  0  0  0
   -4.3678   -1.0388   -0.0000 C   0  0  0  0  0  0  0  0  0  0  0  0
  -13.4340    1.3340   -0.0000 C   0  0  0  0  0  0  0  0  0  0  0  0
   -3.0929   -1.7943   -0.0000 N   0  0  0  0  0  0  0  0  0  0  0  0
  2  3  1  0  0  0  0
  2  4  1  0  0  0  0
  3  5  2  0  0  0  0
  3  6  1  0  0  0  0
  4  7  2  0  0  0  0
  4  8  1  0  0  0  0
  5  9  1  0  0  0  0
  5 10  1  0  0  0  0
  6 11  2  0  0  0  0
  7 12  1  0  0  0  0
  7 13  1  0  0  0  0
  8 14  2  0  0  0  0
  9 15  1  0  0  0  0
  9 16  1  0  0  0  0
 10 17  2  0  0  0  0
 12 18  2  0  0  0  0
 15 19  1  0  0  0  0
 16 20  1  0  0  0  0
 18 21  1  0  0  0  0
 19 22  1  0  0  0  0
 11 17  1  0  0  0  0
 14 18  1  0  0  0  0
 20 22  1  0  0  0  0
M  END
>  <MolRegNo>
1443973

>  <m>
=

>  <Value>
10000

>  <Unit>
nM

>  <Type>
IC50

>  <pValue>
5

>  <Ligand Efficiency>
0

>  <Binding Efficiency>
0

>  <Surface Efficiency>
0

>  <Assay Index>
702627

>  <Assay Category>


>  <Assay Organism>
Homo sapiens

>  <Target ID>
17045

>  <Target Name>
Cytochrome P450 3A4

>  <Target Organism>
Homo sapiens

>  <Target Description>
Target is a single protein chain

>  <Sequence Accession>
P08684

>  <Reference>
J Med Chem 54 (9), 3206-3221 (2011)

>  <Pubmed ID>
21486038

>  <DOI>
10.1021/jm101459g

$$$$
1443972
Actelion Java MolfileCreator 1.0

 22 23  0  0  0  0  0  0  0  0999 V2000
    0.0000   -0.0000   -0.0000 Cl  0  0  0  0  0  0  0  0  0  0  0  0
   -1.3248   -0.7216   -0.0000 C   0  0  0  0  0  0  0  0  0  0  0  0
   -1.3485   -2.2120   -0.0000 C   0  0  0  0  0  0  0  0  0  0  0  0
   -2.6260    0.0591   -0.0000 C   0  0  0  0  0  0  0  0  0  0  0  0
   -0.0710   -2.9691   -0.0000 S   0  0  0  0  0  0  0  0  0  0  0  0
   -2.6733   -2.9336   -0.0000 C   0  0  0  0  0  0  0  0  0  0  0  0
   -3.9509   -0.6624   -0.0000 C   0  0  0  0  0  0  0  0  0  0  0  0
   -0.0946   -4.4595   -0.0000 C   0  0  0  0  0  0  0  0  0  0  0  0
   -3.9745   -2.1529   -0.0000 C   0  0  0  0  0  0  0  0  0  0  0  0
   -5.2520    0.1183   -0.0000 Cl  0  0  0  0  0  0  0  0  0  0  0  0
    1.1829   -5.2166   -0.0000 C   0  0  0  0  0  0  0  0  0  0  0  0
   -1.4195   -5.1811   -0.0000 C   0  0  0  0  0  0  0  0  0  0  0  0
    2.4841   -4.4713   -0.0000 N   0  0  0  0  0  0  0  0  0  0  0  0
    1.1592   -6.7070   -0.0000 C   0  0  0  0  0  0  0  0  0  0  0  0
   -1.4431   -6.6715   -0.0000 C   0  0  0  0  0  0  0  0  0  0  0  0
    3.7616   -5.2284   -0.0000 C   0  0  0  0  0  0  0  0  0  0  0  0
    2.4841   -2.9572   -0.0000 C   0  0  0  0  0  0  0  0  0  0  0  0
   -0.1656   -7.4286   -0.0000 C   0  0  0  0  0  0  0  0  0  0  0  0
    5.0628   -4.4832   -0.0000 C   0  0  0  0  0  0  0  0  0  0  0  0
    3.7853   -2.2120   -0.0000 C   0  0  0  0  0  0  0  0  0  0  0  0
    5.0628   -2.9691   -0.0000 N   0  0  0  0  0  0  0  0  0  0  0  0
    8.0437   -1.0409   -0.0000 Cl  0  0  0  0  0  0  0  0  0  0  0  0
  1  2  1  0  0  0  0
  2  3  2  0  0  0  0
  2  4  1  0  0  0  0
  3  5  1  0  0  0  0
  3  6  1  0  0  0  0
  4  7  2  0  0  0  0
  5  8  1  0  0  0  0
  6  9  2  0  0  0  0
  7 10  1  0  0  0  0
  8 11  2  0  0  0  0
  8 12  1  0  0  0  0
 11 13  1  0  0  0  0
 11 14  1  0  0  0  0
 12 15  2  0  0  0  0
 13 16  1  0  0  0  0
 13 17  1  0  0  0  0
 14 18  2  0  0  0  0
 16 19  1  0  0  0  0
 17 20  1  0  0  0  0
 19 21  1  0  0  0  0
  7  9  1  0  0  0  0
 15 18  1  0  0  0  0
 20 21  1  0  0  0  0
M  END
>  <MolRegNo>
1443972

>  <m>
=

>  <Value>
4400

>  <Unit>
nM

>  <Type>
IC50

>  <pValue>
5.36

>  <Ligand Efficiency>
0

>  <Binding Efficiency>
0

>  <Surface Efficiency>
0

>  <Assay Index>
702627

>  <Assay Category>


>  <Assay Organism>
Homo sapiens

>  <Target ID>
17045

>  <Target Name>
Cytochrome P450 3A4

>  <Target Organism>
Homo sapiens

>  <Target Description>
Target is a single protein chain

>  <Sequence Accession>
P08684

>  <Reference>
J Med Chem 54 (9), 3206-3221 (2011)

>  <Pubmed ID>
21486038

>  <DOI>
10.1021/jm101459g

$$$$
1443970
Actelion Java MolfileCreator 1.0

 22 23  0  0  0  0  0  0  0  0999 V2000
    0.0000   -0.0000   -0.0000 Cl  0  0  0  0  0  0  0  0  0  0  0  0
   -9.7501   -1.5146   -0.0000 S   0  0  0  0  0  0  0  0  0  0  0  0
   -9.7738   -3.0055   -0.0000 C   0  0  0  0  0  0  0  0  0  0  0  0
  -11.0517   -0.7455   -0.0000 C   0  0  0  0  0  0  0  0  0  0  0  0
   -8.4959   -3.7510   -0.0000 C   0  0  0  0  0  0  0  0  0  0  0  0
  -11.0872   -3.7391   -0.0000 C   0  0  0  0  0  0  0  0  0  0  0  0
  -11.0517    0.7691   -0.0000 C   0  0  0  0  0  0  0  0  0  0  0  0
  -12.3652   -1.4791   -0.0000 C   0  0  0  0  0  0  0  0  0  0  0  0
   -7.2061   -2.9937   -0.0000 N   0  0  0  0  0  0  0  0  0  0  0  0
   -8.5195   -5.2419   -0.0000 C   0  0  0  0  0  0  0  0  0  0  0  0
  -11.1109   -5.2301   -0.0000 C   0  0  0  0  0  0  0  0  0  0  0  0
  -12.3533    1.5383   -0.0000 C   0  0  0  0  0  0  0  0  0  0  0  0
   -9.7620    1.5264   -0.0000 C   0  0  0  0  0  0  0  0  0  0  0  0
  -13.6668   -0.7100   -0.0000 C   0  0  0  0  0  0  0  0  0  0  0  0
   -5.9282   -3.7391   -0.0000 C   0  0  0  0  0  0  0  0  0  0  0  0
   -7.2061   -1.4791   -0.0000 C   0  0  0  0  0  0  0  0  0  0  0  0
   -9.8330   -5.9755   -0.0000 C   0  0  0  0  0  0  0  0  0  0  0  0
  -13.6668    0.8046   -0.0000 C   0  0  0  0  0  0  0  0  0  0  0  0
  -12.3533    3.0528   -0.0000 C   0  0  0  0  0  0  0  0  0  0  0  0
   -4.6384   -2.9818   -0.0000 C   0  0  0  0  0  0  0  0  0  0  0  0
   -5.9163   -0.7218   -0.0000 C   0  0  0  0  0  0  0  0  0  0  0  0
   -4.6384   -1.4673   -0.0000 N   0  0  0  0  0  0  0  0  0  0  0  0
  2  3  1  0  0  0  0
  2  4  1  0  0  0  0
  3  5  2  0  0  0  0
  3  6  1  0  0  0  0
  4  7  2  0  0  0  0
  4  8  1  0  0  0  0
  5  9  1  0  0  0  0
  5 10  1  0  0  0  0
  6 11  2  0  0  0  0
  7 12  1  0  0  0  0
  7 13  1  0  0  0  0
  8 14  2  0  0  0  0
  9 15  1  0  0  0  0
  9 16  1  0  0  0  0
 10 17  2  0  0  0  0
 12 18  2  0  0  0  0
 12 19  1  0  0  0  0
 15 20  1  0  0  0  0
 16 21  1  0  0  0  0
 20 22  1  0  0  0  0
 11 17  1  0  0  0  0
 14 18  1  0  0  0  0
 21 22  1  0  0  0  0
M  END
>  <MolRegNo>
1443970

>  <m>
=

>  <Value>
8700

>  <Unit>
nM

>  <Type>
IC50

>  <pValue>
5.06

>  <Ligand Efficiency>
0

>  <Binding Efficiency>
0

>  <Surface Efficiency>
0

>  <Assay Index>
702627

>  <Assay Category>


>  <Assay Organism>
Homo sapiens

>  <Target ID>
17045

>  <Target Name>
Cytochrome P450 3A4

>  <Target Organism>
Homo sapiens

>  <Target Description>
Target is a single protein chain

>  <Sequence Accession>
P08684

>  <Reference>
J Med Chem 54 (9), 3206-3221 (2011)

>  <Pubmed ID>
21486038

>  <DOI>
10.1021/jm101459g

$$$$
1443969
Actelion Java MolfileCreator 1.0

 22 23  0  0  0  0  0  0  0  0999 V2000
    0.0000   -0.0000   -0.0000 Cl  0  0  0  0  0  0  0  0  0  0  0  0
   -1.3161   -0.7351   -0.0000 C   0  0  0  0  0  0  0  0  0  0  0  0
   -2.6204    0.0356   -0.0000 C   0  0  0  0  0  0  0  0  0  0  0  0
   -1.3398   -2.2291   -0.0000 C   0  0  0  0  0  0  0  0  0  0  0  0
   -2.6204    1.5533   -0.0000 Cl  0  0  0  0  0  0  0  0  0  0  0  0
   -3.9365   -0.6996   -0.0000 C   0  0  0  0  0  0  0  0  0  0  0  0
   -0.0593   -2.9761   -0.0000 S   0  0  0  0  0  0  0  0  0  0  0  0
   -2.6560   -2.9642   -0.0000 C   0  0  0  0  0  0  0  0  0  0  0  0
   -3.9602   -2.1935   -0.0000 C   0  0  0  0  0  0  0  0  0  0  0  0
   -0.0830   -4.4701   -0.0000 C   0  0  0  0  0  0  0  0  0  0  0  0
    1.1976   -5.2171   -0.0000 C   0  0  0  0  0  0  0  0  0  0  0  0
   -1.3991   -5.2052   -0.0000 C   0  0  0  0  0  0  0  0  0  0  0  0
    2.4900   -4.4582   -0.0000 N   0  0  0  0  0  0  0  0  0  0  0  0
    1.1738   -6.7110   -0.0000 C   0  0  0  0  0  0  0  0  0  0  0  0
   -1.4228   -6.6992   -0.0000 C   0  0  0  0  0  0  0  0  0  0  0  0
    3.7705   -5.2052   -0.0000 C   0  0  0  0  0  0  0  0  0  0  0  0
    2.4900   -2.9405   -0.0000 C   0  0  0  0  0  0  0  0  0  0  0  0
   -0.1423   -7.4462   -0.0000 C   0  0  0  0  0  0  0  0  0  0  0  0
    5.0629   -4.4464   -0.0000 C   0  0  0  0  0  0  0  0  0  0  0  0
    3.7824   -2.1817   -0.0000 C   0  0  0  0  0  0  0  0  0  0  0  0
    5.0629   -2.9287   -0.0000 N   0  0  0  0  0  0  0  0  0  0  0  0
    9.4856   -1.3280   -0.0000 Cl  0  0  0  0  0  0  0  0  0  0  0  0
  1  2  1  0  0  0  0
  2  3  2  0  0  0  0
  2  4  1  0  0  0  0
  3  5  1  0  0  0  0
  3  6  1  0  0  0  0
  4  7  1  0  0  0  0
  4  8  2  0  0  0  0
  6  9  2  0  0  0  0
  7 10  1  0  0  0  0
 10 11  2  0  0  0  0
 10 12  1  0  0  0  0
 11 13  1  0  0  0  0
 11 14  1  0  0  0  0
 12 15  2  0  0  0  0
 13 16  1  0  0  0  0
 13 17  1  0  0  0  0
 14 18  2  0  0  0  0
 16 19  1  0  0  0  0
 17 20  1  0  0  0  0
 19 21  1  0  0  0  0
  8  9  1  0  0  0  0
 15 18  1  0  0  0  0
 20 21  1  0  0  0  0
M  END
>  <MolRegNo>
1443969

>  <m>
=

>  <Value>
6100

>  <Unit>
nM

>  <Type>
IC50

>  <pValue>
5.21

>  <Ligand Efficiency>
0

>  <Binding Efficiency>
0

>  <Surface Efficiency>
0

>  <Assay Index>
702627

>  <Assay Category>


>  <Assay Organism>
Homo sapiens

>  <Target ID>
17045

>  <Target Name>
Cytochrome P450 3A4

>  <Target Organism>
Homo sapiens

>  <Target Description>
Target is a single protein chain

>  <Sequence Accession>
P08684

>  <Reference>
J Med Chem 54 (9), 3206-3221 (2011)

>  <Pubmed ID>
21486038

>  <DOI>
10.1021/jm101459g

$$$$
1444674
Actelion Java MolfileCreator 1.0

 22 23  0  0  0  0  0  0  0  0999 V2000
    0.0000   -0.0000   -0.0000 Cl  0  0  0  0  0  0  0  0  0  0  0  0
   -8.8722    2.0765   -0.0000 S   0  0  0  0  0  0  0  0  0  0  0  0
   -8.9076    0.5899   -0.0000 C   0  0  0  0  0  0  0  0  0  0  0  0
  -10.1700    2.8552   -0.0000 C   0  0  0  0  0  0  0  0  0  0  0  0
   -7.6334   -0.1652   -0.0000 C   0  0  0  0  0  0  0  0  0  0  0  0
  -10.2290   -0.1298   -0.0000 C   0  0  0  0  0  0  0  0  0  0  0  0
  -10.1582    4.3653   -0.0000 C   0  0  0  0  0  0  0  0  0  0  0  0
  -11.4914    2.1355   -0.0000 C   0  0  0  0  0  0  0  0  0  0  0  0
   -6.3356    0.5781   -0.0000 N   0  0  0  0  0  0  0  0  0  0  0  0
   -7.6688   -1.6517   -0.0000 C   0  0  0  0  0  0  0  0  0  0  0  0
  -10.2644   -1.6163   -0.0000 C   0  0  0  0  0  0  0  0  0  0  0  0
  -11.4560    5.1440   -0.0000 C   0  0  0  0  0  0  0  0  0  0  0  0
  -12.7892    2.9141   -0.0000 C   0  0  0  0  0  0  0  0  0  0  0  0
   -5.0614   -0.1770   -0.0000 C   0  0  0  0  0  0  0  0  0  0  0  0
   -6.3238    2.0883   -0.0000 C   0  0  0  0  0  0  0  0  0  0  0  0
   -8.9902   -2.3714   -0.0000 C   0  0  0  0  0  0  0  0  0  0  0  0
  -12.7774    4.4243   -0.0000 C   0  0  0  0  0  0  0  0  0  0  0  0
  -11.4442    6.6542   -0.0000 C   0  0  0  0  0  0  0  0  0  0  0  0
   -3.7636    0.5663   -0.0000 C   0  0  0  0  0  0  0  0  0  0  0  0
   -5.0260    2.8316   -0.0000 C   0  0  0  0  0  0  0  0  0  0  0  0
  -14.0870    5.1912   -0.0000 C   0  0  0  0  0  0  0  0  0  0  0  0
   -3.7518    2.0765   -0.0000 N   0  0  0  0  0  0  0  0  0  0  0  0
  2  3  1  0  0  0  0
  2  4  1  0  0  0  0
  3  5  2  0  0  0  0
  3  6  1  0  0  0  0
  4  7  2  0  0  0  0
  4  8  1  0  0  0  0
  5  9  1  0  0  0  0
  5 10  1  0  0  0  0
  6 11  2  0  0  0  0
  7 12  1  0  0  0  0
  8 13  2  0  0  0  0
  9 14  1  0  0  0  0
  9 15  1  0  0  0  0
 10 16  2  0  0  0  0
 12 17  2  0  0  0  0
 12 18  1  0  0  0  0
 14 19  1  0  0  0  0
 15 20  1  0  0  0  0
 17 21  1  0  0  0  0
 19 22  1  0  0  0  0
 11 16  1  0  0  0  0
 13 17  1  0  0  0  0
 20 22  1  0  0  0  0
M  END
>  <MolRegNo>
1444674

>  <m>
=

>  <Value>
11000

>  <Unit>
nM

>  <Type>
IC50

>  <pValue>
4.96

>  <Ligand Efficiency>
0

>  <Binding Efficiency>
0

>  <Surface Efficiency>
0

>  <Assay Index>
702627

>  <Assay Category>


>  <Assay Organism>
Homo sapiens

>  <Target ID>
17045

>  <Target Name>
Cytochrome P450 3A4

>  <Target Organism>
Homo sapiens

>  <Target Description>
Target is a single protein chain

>  <Sequence Accession>
P08684

>  <Reference>
J Med Chem 54 (9), 3206-3221 (2011)

>  <Pubmed ID>
21486038

>  <DOI>
10.1021/jm101459g

$$$$
1444665
Actelion Java MolfileCreator 1.0

 21 22  0  0  0  0  0  0  0  0999 V2000
    0.0000   -0.0000   -0.0000 Cl  0  0  0  0  0  0  0  0  0  0  0  0
   -9.3496   -0.9444   -0.0000 S   0  0  0  0  0  0  0  0  0  0  0  0
   -9.3614   -2.4318   -0.0000 C   0  0  0  0  0  0  0  0  0  0  0  0
  -10.6600   -0.1771   -0.0000 C   0  0  0  0  0  0  0  0  0  0  0  0
   -8.0747   -3.1756   -0.0000 C   0  0  0  0  0  0  0  0  0  0  0  0
  -10.6718   -3.1638   -0.0000 C   0  0  0  0  0  0  0  0  0  0  0  0
  -10.6718    1.3340   -0.0000 C   0  0  0  0  0  0  0  0  0  0  0  0
  -11.9704   -0.9090   -0.0000 C   0  0  0  0  0  0  0  0  0  0  0  0
   -6.7879   -2.4200   -0.0000 N   0  0  0  0  0  0  0  0  0  0  0  0
   -8.0865   -4.6630   -0.0000 C   0  0  0  0  0  0  0  0  0  0  0  0
  -10.6836   -4.6512   -0.0000 C   0  0  0  0  0  0  0  0  0  0  0  0
  -11.9822    2.1013   -0.0000 C   0  0  0  0  0  0  0  0  0  0  0  0
  -13.2807   -0.1417   -0.0000 C   0  0  0  0  0  0  0  0  0  0  0  0
   -5.5012   -3.1638   -0.0000 C   0  0  0  0  0  0  0  0  0  0  0  0
   -6.7997   -0.9090   -0.0000 C   0  0  0  0  0  0  0  0  0  0  0  0
   -9.3969   -5.3949   -0.0000 C   0  0  0  0  0  0  0  0  0  0  0  0
  -13.2925    1.3694   -0.0000 C   0  0  0  0  0  0  0  0  0  0  0  0
   -4.2144   -2.4082   -0.0000 C   0  0  0  0  0  0  0  0  0  0  0  0
   -5.5130   -0.1535   -0.0000 C   0  0  0  0  0  0  0  0  0  0  0  0
  -14.6029    2.1249   -0.0000 C   0  0  0  0  0  0  0  0  0  0  0  0
   -4.2262   -0.8972   -0.0000 N   0  0  0  0  0  0  0  0  0  0  0  0
  2  3  1  0  0  0  0
  2  4  1  0  0  0  0
  3  5  2  0  0  0  0
  3  6  1  0  0  0  0
  4  7  2  0  0  0  0
  4  8  1  0  0  0  0
  5  9  1  0  0  0  0
  5 10  1  0  0  0  0
  6 11  2  0  0  0  0
  7 12  1  0  0  0  0
  8 13  2  0  0  0  0
  9 14  1  0  0  0  0
  9 15  1  0  0  0  0
 10 16  2  0  0  0  0
 12 17  2  0  0  0  0
 14 18  1  0  0  0  0
 15 19  1  0  0  0  0
 17 20  1  0  0  0  0
 18 21  1  0  0  0  0
 11 16  1  0  0  0  0
 13 17  1  0  0  0  0
 19 21  1  0  0  0  0
M  END
>  <MolRegNo>
1444665

>  <m>
=

>  <Value>
16000

>  <Unit>
nM

>  <Type>
IC50

>  <pValue>
4.8

>  <Ligand Efficiency>
0

>  <Binding Efficiency>
0

>  <Surface Efficiency>
0

>  <Assay Index>
702627

>  <Assay Category>


>  <Assay Organism>
Homo sapiens

>  <Target ID>
17045

>  <Target Name>
Cytochrome P450 3A4

>  <Target Organism>
Homo sapiens

>  <Target Description>
Target is a single protein chain

>  <Sequence Accession>
P08684

>  <Reference>
J Med Chem 54 (9), 3206-3221 (2011)

>  <Pubmed ID>
21486038

>  <DOI>
10.1021/jm101459g

$$$$
1444663
Actelion Java MolfileCreator 1.0

 21 22  0  0  0  0  0  0  0  0999 V2000
    0.0000   -0.0000   -0.0000 Cl  0  0  0  0  0  0  0  0  0  0  0  0
    1.2915   -0.7462   -0.0000 C   0  0  0  0  0  0  0  0  0  0  0  0
    2.5829    0.0287   -0.0000 C   0  0  0  0  0  0  0  0  0  0  0  0
    1.2771   -2.2385   -0.0000 C   0  0  0  0  0  0  0  0  0  0  0  0
    3.8744   -0.7175   -0.0000 C   0  0  0  0  0  0  0  0  0  0  0  0
    2.5686   -2.9847   -0.0000 C   0  0  0  0  0  0  0  0  0  0  0  0
    3.8600   -2.2098   -0.0000 C   0  0  0  0  0  0  0  0  0  0  0  0
    5.1515   -2.9560   -0.0000 S   0  0  0  0  0  0  0  0  0  0  0  0
    5.1372   -4.4484   -0.0000 C   0  0  0  0  0  0  0  0  0  0  0  0
    6.4286   -5.1946   -0.0000 C   0  0  0  0  0  0  0  0  0  0  0  0
    3.8170   -5.1946   -0.0000 C   0  0  0  0  0  0  0  0  0  0  0  0
    7.7201   -4.4197   -0.0000 N   0  0  0  0  0  0  0  0  0  0  0  0
    6.4143   -6.6869   -0.0000 C   0  0  0  0  0  0  0  0  0  0  0  0
    3.8026   -6.6869   -0.0000 C   0  0  0  0  0  0  0  0  0  0  0  0
    9.0116   -5.1659   -0.0000 C   0  0  0  0  0  0  0  0  0  0  0  0
    7.7057   -2.8986   -0.0000 C   0  0  0  0  0  0  0  0  0  0  0  0
    5.0941   -7.4331   -0.0000 C   0  0  0  0  0  0  0  0  0  0  0  0
   10.3030   -4.3910   -0.0000 C   0  0  0  0  0  0  0  0  0  0  0  0
    8.9972   -2.1237   -0.0000 C   0  0  0  0  0  0  0  0  0  0  0  0
   10.2887   -2.8699   -0.0000 N   0  0  0  0  0  0  0  0  0  0  0  0
   14.4644   -1.9515   -0.0000 Cl  0  0  0  0  0  0  0  0  0  0  0  0
  1  2  1  0  0  0  0
  2  3  2  0  0  0  0
  2  4  1  0  0  0  0
  3  5  1  0  0  0  0
  4  6  2  0  0  0  0
  5  7  2  0  0  0  0
  7  8  1  0  0  0  0
  8  9  1  0  0  0  0
  9 10  2  0  0  0  0
  9 11  1  0  0  0  0
 10 12  1  0  0  0  0
 10 13  1  0  0  0  0
 11 14  2  0  0  0  0
 12 15  1  0  0  0  0
 12 16  1  0  0  0  0
 13 17  2  0  0  0  0
 15 18  1  0  0  0  0
 16 19  1  0  0  0  0
 18 20  1  0  0  0  0
  6  7  1  0  0  0  0
 14 17  1  0  0  0  0
 19 20  1  0  0  0  0
M  END
>  <MolRegNo>
1444663

>  <m>
=

>  <Value>
6800

>  <Unit>
nM

>  <Type>
IC50

>  <pValue>
5.17

>  <Ligand Efficiency>
0

>  <Binding Efficiency>
0

>  <Surface Efficiency>
0

>  <Assay Index>
702627

>  <Assay Category>


>  <Assay Organism>
Homo sapiens

>  <Target ID>
17045

>  <Target Name>
Cytochrome P450 3A4

>  <Target Organism>
Homo sapiens

>  <Target Description>
Target is a single protein chain

>  <Sequence Accession>
P08684

>  <Reference>
J Med Chem 54 (9), 3206-3221 (2011)

>  <Pubmed ID>
21486038

>  <DOI>
10.1021/jm101459g

$$$$
1446722
Actelion Java MolfileCreator 1.0

 25 27  0  0  0  0  0  0  0  0999 V2000
    0.0000   -0.0000   -0.0000 Cl  0  0  0  0  0  0  0  0  0  0  0  0
   -1.3082   -0.7492   -0.0000 C   0  0  0  0  0  0  0  0  0  0  0  0
   -1.3082   -2.2477   -0.0000 C   0  0  0  0  0  0  0  0  0  0  0  0
   -2.6164   -0.0000   -0.0000 C   0  0  0  0  0  0  0  0  0  0  0  0
   -0.0119   -2.9851   -0.0000 Cl  0  0  0  0  0  0  0  0  0  0  0  0
   -2.6164   -2.9851   -0.0000 C   0  0  0  0  0  0  0  0  0  0  0  0
   -3.9127   -0.7492   -0.0000 C   0  0  0  0  0  0  0  0  0  0  0  0
   -3.9246   -2.2240   -0.0000 C   0  0  0  0  0  0  0  0  0  0  0  0
   -5.2209    0.0119   -0.0000 S   0  0  0  0  0  0  0  0  0  0  0  0
   -5.9940    1.3320   -0.0000 O   0  0  0  0  0  0  0  0  0  0  0  0
   -4.8523    1.4866   -0.0000 O   0  0  0  0  0  0  0  0  0  0  0  0
   -6.5291   -0.7255   -0.0000 N   0  0  0  0  0  0  0  0  0  0  0  0
   -6.5410   -2.2121   -0.0000 C   0  0  0  0  0  0  0  0  0  0  0  0
   -7.8492   -2.9494   -0.0000 C   0  0  0  0  0  0  0  0  0  0  0  0
   -5.2566   -2.9494   -0.0000 C   0  0  0  0  0  0  0  0  0  0  0  0
   -7.8611   -4.4479   -0.0000 C   0  0  0  0  0  0  0  0  0  0  0  0
   -9.1575   -2.1883   -0.0000 C   0  0  0  0  0  0  0  0  0  0  0  0
   -5.2685   -4.4479   -0.0000 C   0  0  0  0  0  0  0  0  0  0  0  0
   -6.5767   -5.1853   -0.0000 C   0  0  0  0  0  0  0  0  0  0  0  0
  -10.4657   -2.9256   -0.0000 N   0  0  0  0  0  0  0  0  0  0  0  0
   -3.9841   -5.1853   -0.0000 Cl  0  0  0  0  0  0  0  0  0  0  0  0
  -10.4775   -4.4003   -0.0000 N   0  0  0  0  0  0  0  0  0  0  0  0
  -11.9047   -2.4380   -0.0000 C   0  0  0  0  0  0  0  0  0  0  0  0
  -11.9166   -4.8523   -0.0000 N   0  0  0  0  0  0  0  0  0  0  0  0
  -12.7966   -3.6392   -0.0000 C   0  0  0  0  0  0  0  0  0  0  0  0
  1  2  1  0  0  0  0
  2  3  2  0  0  0  0
  2  4  1  0  0  0  0
  3  5  1  0  0  0  0
  3  6  1  0  0  0  0
  4  7  2  0  0  0  0
  6  8  2  0  0  0  0
  7  9  1  0  0  0  0
  9 10  2  0  0  0  0
  9 11  2  0  0  0  0
  9 12  1  0  0  0  0
 12 13  1  0  0  0  0
 13 14  2  0  0  0  0
 13 15  1  0  0  0  0
 14 16  1  0  0  0  0
 14 17  1  0  0  0  0
 15 18  2  0  0  0  0
 16 19  2  0  0  0  0
 17 20  1  0  0  0  0
 18 21  1  0  0  0  0
 20 22  1  0  0  0  0
 20 23  1  0  0  0  0
 22 24  2  0  0  0  0
 23 25  2  0  0  0  0
  7  8  1  0  0  0  0
 18 19  1  0  0  0  0
 24 25  1  0  0  0  0
M  END
>  <MolRegNo>
1446722

>  <m>
=

>  <Value>
3981.1

>  <Unit>
nM

>  <Type>
IC50

>  <pValue>
5.4

>  <Ligand Efficiency>
0

>  <Binding Efficiency>
0

>  <Surface Efficiency>
0

>  <Assay Index>
704530

>  <Assay Category>


>  <Assay Organism>


>  <Target ID>
17045

>  <Target Name>
Cytochrome P450 3A4

>  <Target Organism>
Homo sapiens

>  <Target Description>
Target is a single protein chain

>  <Sequence Accession>
P08684

>  <Reference>
Bioorg Med Chem Lett 22 (23), 7252-7255 (2012)

>  <Pubmed ID>
23079519

>  <DOI>
10.1016/j.bmcl.2012.09.020

$$$$
1446741
Actelion Java MolfileCreator 1.0

 24 26  0  0  0  0  0  0  0  0999 V2000
    0.0000   -0.0000   -0.0000 Cl  0  0  0  0  0  0  0  0  0  0  0  0
   -1.3052    0.7594   -0.0000 C   0  0  0  0  0  0  0  0  0  0  0  0
   -2.6224    0.0237   -0.0000 C   0  0  0  0  0  0  0  0  0  0  0  0
   -1.3171    2.2782   -0.0000 C   0  0  0  0  0  0  0  0  0  0  0  0
   -2.6342   -1.4595   -0.0000 Cl  0  0  0  0  0  0  0  0  0  0  0  0
   -3.9276    0.7831   -0.0000 C   0  0  0  0  0  0  0  0  0  0  0  0
   -2.6224    3.0377   -0.0000 C   0  0  0  0  0  0  0  0  0  0  0  0
   -3.9395    2.3020   -0.0000 C   0  0  0  0  0  0  0  0  0  0  0  0
   -2.6342    4.5446   -0.0000 N   0  0  0  0  0  0  0  0  0  0  0  0
   -5.2447    3.0614   -0.0000 C   0  0  0  0  0  0  0  0  0  0  0  0
   -1.3527    5.3040   -0.0000 S   0  0  0  0  0  0  0  0  0  0  0  0
   -6.5499    2.3257   -0.0000 N   0  0  0  0  0  0  0  0  0  0  0  0
   -2.1240    6.6211   -0.0000 O   0  0  0  0  0  0  0  0  0  0  0  0
   -0.9849    6.7754   -0.0000 O   0  0  0  0  0  0  0  0  0  0  0  0
   -0.0712    4.5683   -0.0000 C   0  0  0  0  0  0  0  0  0  0  0  0
   -7.9857    2.8122   -0.0000 N   0  0  0  0  0  0  0  0  0  0  0  0
   -6.5618    0.8543   -0.0000 C   0  0  0  0  0  0  0  0  0  0  0  0
    1.3408    5.0667   -0.0000 S   0  0  0  0  0  0  0  0  0  0  0  0
   -0.0475    3.0851   -0.0000 C   0  0  0  0  0  0  0  0  0  0  0  0
   -8.8756    1.6138   -0.0000 N   0  0  0  0  0  0  0  0  0  0  0  0
   -7.9976    0.4034   -0.0000 C   0  0  0  0  0  0  0  0  0  0  0  0
    2.2308    3.8801   -0.0000 C   0  0  0  0  0  0  0  0  0  0  0  0
    1.3764    2.6579   -0.0000 C   0  0  0  0  0  0  0  0  0  0  0  0
    3.7140    3.9157   -0.0000 Cl  0  0  0  0  0  0  0  0  0  0  0  0
  1  2  1  0  0  0  0
  2  3  2  0  0  0  0
  2  4  1  0  0  0  0
  3  5  1  0  0  0  0
  3  6  1  0  0  0  0
  4  7  2  0  0  0  0
  6  8  2  0  0  0  0
  7  9  1  0  0  0  0
  8 10  1  0  0  0  0
  9 11  1  0  0  0  0
 10 12  1  0  0  0  0
 11 13  2  0  0  0  0
 11 14  2  0  0  0  0
 11 15  1  0  0  0  0
 12 16  1  0  0  0  0
 12 17  1  0  0  0  0
 15 18  1  0  0  0  0
 15 19  2  0  0  0  0
 16 20  2  0  0  0  0
 17 21  2  0  0  0  0
 18 22  1  0  0  0  0
 19 23  1  0  0  0  0
 22 24  1  0  0  0  0
  7  8  1  0  0  0  0
 20 21  1  0  0  0  0
 22 23  2  0  0  0  0
M  END
>  <MolRegNo>
1446741

>  <m>
=

>  <Value>
5011.9

>  <Unit>
nM

>  <Type>
IC50

>  <pValue>
5.3

>  <Ligand Efficiency>
0

>  <Binding Efficiency>
0

>  <Surface Efficiency>
0

>  <Assay Index>
704530

>  <Assay Category>


>  <Assay Organism>


>  <Target ID>
17045

>  <Target Name>
Cytochrome P450 3A4

>  <Target Organism>
Homo sapiens

>  <Target Description>
Target is a single protein chain

>  <Sequence Accession>
P08684

>  <Reference>
Bioorg Med Chem Lett 22 (23), 7252-7255 (2012)

>  <Pubmed ID>
23079519

>  <DOI>
10.1016/j.bmcl.2012.09.020

$$$$
1446740
Actelion Java MolfileCreator 1.0

 26 28  0  0  0  0  0  0  0  0999 V2000
    0.0000   -0.0000   -0.0000 Cl  0  0  0  0  0  0  0  0  0  0  0  0
   -1.3093   -0.7498   -0.0000 C   0  0  0  0  0  0  0  0  0  0  0  0
   -1.3093   -2.2495   -0.0000 C   0  0  0  0  0  0  0  0  0  0  0  0
   -2.6185   -0.0000   -0.0000 C   0  0  0  0  0  0  0  0  0  0  0  0
   -0.0238   -2.9756   -0.0000 Cl  0  0  0  0  0  0  0  0  0  0  0  0
   -2.6185   -2.9875   -0.0000 C   0  0  0  0  0  0  0  0  0  0  0  0
   -3.9159   -0.7498   -0.0000 C   0  0  0  0  0  0  0  0  0  0  0  0
   -3.9278   -2.2257   -0.0000 C   0  0  0  0  0  0  0  0  0  0  0  0
   -5.2251    0.0119   -0.0000 S   0  0  0  0  0  0  0  0  0  0  0  0
   -5.9988    1.3331   -0.0000 O   0  0  0  0  0  0  0  0  0  0  0  0
   -4.8561    1.4759   -0.0000 O   0  0  0  0  0  0  0  0  0  0  0  0
   -6.5344   -0.7260   -0.0000 N   0  0  0  0  0  0  0  0  0  0  0  0
   -6.5463   -2.2138   -0.0000 C   0  0  0  0  0  0  0  0  0  0  0  0
   -7.8555   -2.9518   -0.0000 C   0  0  0  0  0  0  0  0  0  0  0  0
   -5.2608   -2.9399   -0.0000 C   0  0  0  0  0  0  0  0  0  0  0  0
   -7.8674   -4.4396   -0.0000 N   0  0  0  0  0  0  0  0  0  0  0  0
   -9.1648   -2.1900   -0.0000 C   0  0  0  0  0  0  0  0  0  0  0  0
   -5.2727   -4.4396   -0.0000 C   0  0  0  0  0  0  0  0  0  0  0  0
   -6.5820   -5.1775   -0.0000 C   0  0  0  0  0  0  0  0  0  0  0  0
  -10.4740   -2.9280   -0.0000 C   0  0  0  0  0  0  0  0  0  0  0  0
   -3.9873   -5.1775   -0.0000 Cl  0  0  0  0  0  0  0  0  0  0  0  0
  -10.4859   -4.4039   -0.0000 N   0  0  0  0  0  0  0  0  0  0  0  0
  -11.9142   -2.4400   -0.0000 N   0  0  0  0  0  0  0  0  0  0  0  0
  -11.9261   -4.8561   -0.0000 N   0  0  0  0  0  0  0  0  0  0  0  0
  -12.8069   -3.6421   -0.0000 N   0  0  0  0  0  0  0  0  0  0  0  0
  -12.3784   -0.9998   -0.0000 C   0  0  0  0  0  0  0  0  0  0  0  0
  1  2  1  0  0  0  0
  2  3  2  0  0  0  0
  2  4  1  0  0  0  0
  3  5  1  0  0  0  0
  3  6  1  0  0  0  0
  4  7  2  0  0  0  0
  6  8  2  0  0  0  0
  7  9  1  0  0  0  0
  9 10  2  0  0  0  0
  9 11  2  0  0  0  0
  9 12  1  0  0  0  0
 12 13  1  0  0  0  0
 13 14  2  0  0  0  0
 13 15  1  0  0  0  0
 14 16  1  0  0  0  0
 14 17  1  0  0  0  0
 15 18  2  0  0  0  0
 16 19  2  0  0  0  0
 17 20  1  0  0  0  0
 18 21  1  0  0  0  0
 20 22  2  0  0  0  0
 20 23  1  0  0  0  0
 22 24  1  0  0  0  0
 23 25  1  0  0  0  0
 23 26  1  0  0  0  0
  7  8  1  0  0  0  0
 18 19  1  0  0  0  0
 24 25  2  0  0  0  0
M  END
>  <MolRegNo>
1446740

>  <m>
=

>  <Value>
10000

>  <Unit>
nM

>  <Type>
IC50

>  <pValue>
5

>  <Ligand Efficiency>
0

>  <Binding Efficiency>
0

>  <Surface Efficiency>
0

>  <Assay Index>
704530

>  <Assay Category>


>  <Assay Organism>


>  <Target ID>
17045

>  <Target Name>
Cytochrome P450 3A4

>  <Target Organism>
Homo sapiens

>  <Target Description>
Target is a single protein chain

>  <Sequence Accession>
P08684

>  <Reference>
Bioorg Med Chem Lett 22 (23), 7252-7255 (2012)

>  <Pubmed ID>
23079519

>  <DOI>
10.1016/j.bmcl.2012.09.020

$$$$
1445403
Actelion Java MolfileCreator 1.0

 26 28  0  0  0  0  0  0  0  0999 V2000
    0.0000   -0.0000   -0.0000 O   0  0  0  0  0  0  0  0  0  0  0  0
   -0.0119   -1.4830   -0.0000 C   0  0  0  0  0  0  0  0  0  0  0  0
    1.2813   -2.2067   -0.0000 O   0  0  0  0  0  0  0  0  0  0  0  0
   -1.3169   -2.2185   -0.0000 C   0  0  0  0  0  0  0  0  0  0  0  0
    2.5626   -1.4355   -0.0000 C   0  0  0  0  0  0  0  0  0  0  0  0
   -2.6219   -1.4711   -0.0000 C   0  0  0  0  0  0  0  0  0  0  0  0
   -0.5932   -3.4998   -0.0000 C   0  0  0  0  0  0  0  0  0  0  0  0
   -2.0762   -3.4998   -0.0000 C   0  0  0  0  0  0  0  0  0  0  0  0
   -2.6338    0.0356   -0.0000 N   0  0  0  0  0  0  0  0  0  0  0  0
   -3.9269   -2.2067   -0.0000 C   0  0  0  0  0  0  0  0  0  0  0  0
   -1.4355    0.9254   -0.0000 N   0  0  0  0  0  0  0  0  0  0  0  0
   -3.8558    0.9254   -0.0000 C   0  0  0  0  0  0  0  0  0  0  0  0
   -3.9388   -3.6897   -0.0000 C   0  0  0  0  0  0  0  0  0  0  0  0
   -5.2438   -1.4474   -0.0000 C   0  0  0  0  0  0  0  0  0  0  0  0
   -1.9101    2.3490   -0.0000 C   0  0  0  0  0  0  0  0  0  0  0  0
   -3.4049    2.3609   -0.0000 N   0  0  0  0  0  0  0  0  0  0  0  0
   -5.2438   -4.4252   -0.0000 C   0  0  0  0  0  0  0  0  0  0  0  0
   -6.5489   -2.1948   -0.0000 C   0  0  0  0  0  0  0  0  0  0  0  0
   -6.5489   -3.6659   -0.0000 C   0  0  0  0  0  0  0  0  0  0  0  0
   -7.8539   -4.4015   -0.0000 N   0  0  0  0  0  0  0  0  0  0  0  0
   -9.1589   -3.6422   -0.0000 C   0  0  0  0  0  0  0  0  0  0  0  0
  -10.4758   -4.3778   -0.0000 C   0  0  0  0  0  0  0  0  0  0  0  0
   -9.1708   -2.1236   -0.0000 C   0  0  0  0  0  0  0  0  0  0  0  0
  -11.7808   -3.6185   -0.0000 C   0  0  0  0  0  0  0  0  0  0  0  0
  -10.4758   -1.3643   -0.0000 C   0  0  0  0  0  0  0  0  0  0  0  0
  -11.7927   -2.0999   -0.0000 C   0  0  0  0  0  0  0  0  0  0  0  0
  1  2  2  0  0  0  0
  2  3  1  0  0  0  0
  2  4  1  0  0  0  0
  3  5  1  0  0  0  0
  4  6  1  0  0  0  0
  4  7  1  0  0  0  0
  4  8  1  0  0  0  0
  6  9  1  0  0  0  0
  6 10  1  0  0  0  0
  9 11  1  0  0  0  0
  9 12  1  0  0  0  0
 10 13  2  0  0  0  0
 10 14  1  0  0  0  0
 11 15  2  0  0  0  0
 12 16  2  0  0  0  0
 13 17  1  0  0  0  0
 14 18  2  0  0  0  0
 17 19  2  0  0  0  0
 19 20  1  0  0  0  0
 20 21  1  0  0  0  0
 21 22  2  0  0  0  0
 21 23  1  0  0  0  0
 22 24  1  0  0  0  0
 23 25  2  0  0  0  0
 24 26  2  0  0  0  0
 15 16  1  0  0  0  0
 18 19  1  0  0  0  0
 25 26  1  0  0  0  0
M  END
>  <MolRegNo>
1445403

>  <m>
=

>  <Value>
200

>  <Unit>
nM

>  <Type>
IC50

>  <pValue>
6.7

>  <Ligand Efficiency>
0

>  <Binding Efficiency>
0

>  <Surface Efficiency>
0

>  <Assay Index>
703870

>  <Assay Category>


>  <Assay Organism>
Homo sapiens

>  <Target ID>
17045

>  <Target Name>
Cytochrome P450 3A4

>  <Target Organism>
Homo sapiens

>  <Target Description>
Target is a single protein chain

>  <Sequence Accession>
P08684

>  <Reference>
Bioorg Med Chem 20 (14), 4201-4207 (2012)

>  <Pubmed ID>
22727372

>  <DOI>
10.1016/j.bmc.2012.05.076

$$$$
1444083
Actelion Java MolfileCreator 1.0

 32 35  0  0  0  0  0  0  0  0999 V2000
    0.0000   -0.0000   -0.0000 F   0  0  0  0  0  0  0  0  0  0  0  0
    0.7116    1.3165   -0.0000 C   0  0  0  0  0  0  0  0  0  0  0  0
   -0.0712    2.6094   -0.0000 C   0  0  0  0  0  0  0  0  0  0  0  0
    2.1942    1.3640   -0.0000 C   0  0  0  0  0  0  0  0  0  0  0  0
    0.6286    3.9259   -0.0000 C   0  0  0  0  0  0  0  0  0  0  0  0
   -1.5775    2.5857   -0.0000 C   0  0  0  0  0  0  0  0  0  0  0  0
    2.9059    2.6924   -0.0000 C   0  0  0  0  0  0  0  0  0  0  0  0
    2.1112    3.9734   -0.0000 C   0  0  0  0  0  0  0  0  0  0  0  0
   -2.3603    3.8785   -0.0000 N   0  0  0  0  0  0  0  0  0  0  0  0
    4.3885    2.7398   -0.0000 F   0  0  0  0  0  0  0  0  0  0  0  0
   -3.8666    3.8548   -0.0000 N   0  0  0  0  0  0  0  0  0  0  0  0
   -1.6487    5.2069   -0.0000 C   0  0  0  0  0  0  0  0  0  0  0  0
   -4.6494    5.1476   -0.0000 C   0  0  0  0  0  0  0  0  0  0  0  0
   -0.1661    5.2543   -0.0000 O   0  0  0  0  0  0  0  0  0  0  0  0
   -2.4552    6.4997   -0.0000 C   0  0  0  0  0  0  0  0  0  0  0  0
   -3.9615    6.4641   -0.0000 C   0  0  0  0  0  0  0  0  0  0  0  0
   -6.1558    5.1239   -0.0000 C   0  0  0  0  0  0  0  0  0  0  0  0
   -6.8911    3.8192   -0.0000 C   0  0  0  0  0  0  0  0  0  0  0  0
   -8.3381    3.3685   -0.0000 C   0  0  0  0  0  0  0  0  0  0  0  0
   -6.0134    2.6094   -0.0000 C   0  0  0  0  0  0  0  0  0  0  0  0
   -8.3500    1.8740   -0.0000 C   0  0  0  0  0  0  0  0  0  0  0  0
   -9.6428    4.1276   -0.0000 C   0  0  0  0  0  0  0  0  0  0  0  0
   -6.9148    1.3996   -0.0000 N   0  0  0  0  0  0  0  0  0  0  0  0
   -4.5308    2.6212   -0.0000 C   0  0  0  0  0  0  0  0  0  0  0  0
   -9.6547    1.1386   -0.0000 C   0  0  0  0  0  0  0  0  0  0  0  0
  -10.9475    3.3922   -0.0000 C   0  0  0  0  0  0  0  0  0  0  0  0
   -6.2032    0.0949   -0.0000 C   0  0  0  0  0  0  0  0  0  0  0  0
  -10.9594    1.8977   -0.0000 C   0  0  0  0  0  0  0  0  0  0  0  0
  -12.2522    4.1513   -0.0000 F   0  0  0  0  0  0  0  0  0  0  0  0
   -6.9860   -1.1742   -0.0000 C   0  0  0  0  0  0  0  0  0  0  0  0
   -6.2862   -2.4789   -0.0000 O   0  0  0  0  0  0  0  0  0  0  0  0
   -8.4923   -1.1386   -0.0000 O   0  0  0  0  0  0  0  0  0  0  0  0
  1  2  1  0  0  0  0
  2  3  2  0  0  0  0
  2  4  1  0  0  0  0
  3  5  1  0  0  0  0
  3  6  1  0  0  0  0
  4  7  2  0  0  0  0
  5  8  2  0  0  0  0
  6  9  1  0  0  0  0
  7 10  1  0  0  0  0
  9 11  1  0  0  0  0
  9 12  1  0  0  0  0
 11 13  2  0  0  0  0
 12 14  2  0  0  0  0
 12 15  1  0  0  0  0
 13 16  1  0  0  0  0
 13 17  1  0  0  0  0
 17 18  1  0  0  0  0
 18 19  1  0  0  0  0
 18 20  2  0  0  0  0
 19 21  2  0  0  0  0
 19 22  1  0  0  0  0
 20 23  1  0  0  0  0
 20 24  1  0  0  0  0
 21 25  1  0  0  0  0
 22 26  2  0  0  0  0
 23 27  1  0  0  0  0
 25 28  2  0  0  0  0
 26 29  1  0  0  0  0
 27 30  1  0  0  0  0
 30 31  2  0  0  0  0
 30 32  1  0  0  0  0
  7  8  1  0  0  0  0
 15 16  2  0  0  0  0
 21 23  1  0  0  0  0
 26 28  1  0  0  0  0
M  END
>  <MolRegNo>
1444083

>  <m>
=

>  <Value>
16000

>  <Unit>
nM

>  <Type>
IC50

>  <pValue>
4.8

>  <Ligand Efficiency>
0

>  <Binding Efficiency>
0

>  <Surface Efficiency>
0

>  <Assay Index>
706588

>  <Assay Category>


>  <Assay Organism>


>  <Target ID>
17045

>  <Target Name>
Cytochrome P450 3A4

>  <Target Organism>
Homo sapiens

>  <Target Description>
Target is a single protein chain

>  <Sequence Accession>
P08684

>  <Reference>
J Med Chem 55 (11), 5088-5109 (2012)

>  <Pubmed ID>
22651823

>  <DOI>
10.1021/jm300007n

$$$$
1447032
Actelion Java MolfileCreator 1.0

 26 29  0  0  0  0  0  0  0  0999 V2000
    0.0000   -0.0000   -0.0000 S   0  0  0  0  0  0  0  0  0  0  0  0
    1.4196    0.4022   -0.0000 O   0  0  0  0  0  0  0  0  0  0  0  0
    1.0410   -1.0410   -0.0000 O   0  0  0  0  0  0  0  0  0  0  0  0
   -0.4732    1.4314   -0.0000 N   0  0  0  0  0  0  0  0  0  0  0  0
   -1.0056   -1.1002   -0.0000 C   0  0  0  0  0  0  0  0  0  0  0  0
   -1.9165    1.9046   -0.0000 C   0  0  0  0  0  0  0  0  0  0  0  0
    0.4022    2.6618   -0.0000 C   0  0  0  0  0  0  0  0  0  0  0  0
   -2.4725   -0.7808   -0.0000 C   0  0  0  0  0  0  0  0  0  0  0  0
   -0.5560   -2.4961   -0.0000 C   0  0  0  0  0  0  0  0  0  0  0  0
   -1.9283    3.4189   -0.0000 C   0  0  0  0  0  0  0  0  0  0  0  0
   -3.2178    1.1712   -0.0000 C   0  0  0  0  0  0  0  0  0  0  0  0
   -0.4969    3.8921   -0.0000 C   0  0  0  0  0  0  0  0  0  0  0  0
   -3.4780   -1.8810   -0.0000 C   0  0  0  0  0  0  0  0  0  0  0  0
   -1.5616   -3.5963   -0.0000 C   0  0  0  0  0  0  0  0  0  0  0  0
   -3.2296    4.1760   -0.0000 C   0  0  0  0  0  0  0  0  0  0  0  0
   -4.5191    1.9283   -0.0000 C   0  0  0  0  0  0  0  0  0  0  0  0
   -3.0285   -3.2888   -0.0000 C   0  0  0  0  0  0  0  0  0  0  0  0
   -4.5309    3.4426   -0.0000 C   0  0  0  0  0  0  0  0  0  0  0  0
   -3.2414    5.6784   -0.0000 C   0  0  0  0  0  0  0  0  0  0  0  0
   -4.5428    6.4356   -0.0000 N   0  0  0  0  0  0  0  0  0  0  0  0
   -4.5664    7.9498   -0.0000 C   0  0  0  0  0  0  0  0  0  0  0  0
   -5.8441    5.7021   -0.0000 C   0  0  0  0  0  0  0  0  0  0  0  0
   -5.8677    8.7069   -0.0000 C   0  0  0  0  0  0  0  0  0  0  0  0
   -7.1454    6.4592   -0.0000 C   0  0  0  0  0  0  0  0  0  0  0  0
   -7.1690    7.9735   -0.0000 N   0  0  0  0  0  0  0  0  0  0  0  0
   -8.4703    8.7306   -0.0000 C   0  0  0  0  0  0  0  0  0  0  0  0
  1  2  2  0  0  0  0
  1  3  2  0  0  0  0
  1  4  1  0  0  0  0
  1  5  1  0  0  0  0
  4  6  1  0  0  0  0
  4  7  1  0  0  0  0
  5  8  2  0  0  0  0
  5  9  1  0  0  0  0
  6 10  2  0  0  0  0
  6 11  1  0  0  0  0
  7 12  2  0  0  0  0
  8 13  1  0  0  0  0
  9 14  2  0  0  0  0
 10 15  1  0  0  0  0
 11 16  2  0  0  0  0
 13 17  2  0  0  0  0
 15 18  2  0  0  0  0
 15 19  1  0  0  0  0
 19 20  1  0  0  0  0
 20 21  1  0  0  0  0
 20 22  1  0  0  0  0
 21 23  1  0  0  0  0
 22 24  1  0  0  0  0
 23 25  1  0  0  0  0
 25 26  1  0  0  0  0
 10 12  1  0  0  0  0
 14 17  1  0  0  0  0
 16 18  1  0  0  0  0
 24 25  1  0  0  0  0
M  END
>  <MolRegNo>
1447032

>  <m>
=

>  <Value>
30500

>  <Unit>
nM

>  <Type>
IC50

>  <pValue>
4.52

>  <Ligand Efficiency>
0

>  <Binding Efficiency>
0

>  <Surface Efficiency>
0

>  <Assay Index>
709268

>  <Assay Category>


>  <Assay Organism>
Homo sapiens

>  <Target ID>
17045

>  <Target Name>
Cytochrome P450 3A4

>  <Target Organism>
Homo sapiens

>  <Target Description>
Target is a single protein chain

>  <Sequence Accession>
P08684

>  <Reference>
Bioorg Med Chem Lett 22 (24), 7431-7435 (2012)

>  <Pubmed ID>
23141912

>  <DOI>
10.1016/j.bmcl.2012.10.057

$$$$
1447030
Actelion Java MolfileCreator 1.0

 27 30  0  0  0  0  0  0  0  0999 V2000
    0.0000   -0.0000   -0.0000 Br  0  0  0  0  0  0  0  0  0  0  0  0
    0.4502   -1.4098   -0.0000 C   0  0  0  0  0  0  0  0  0  0  0  0
    1.8955   -1.7060   -0.0000 C   0  0  0  0  0  0  0  0  0  0  0  0
   -0.5568   -2.5116   -0.0000 C   0  0  0  0  0  0  0  0  0  0  0  0
    2.8789   -0.5805   -0.0000 S   0  0  0  0  0  0  0  0  0  0  0  0
    2.3457   -3.1040   -0.0000 C   0  0  0  0  0  0  0  0  0  0  0  0
   -0.1066   -3.9214   -0.0000 C   0  0  0  0  0  0  0  0  0  0  0  0
    4.3124   -0.1777   -0.0000 O   0  0  0  0  0  0  0  0  0  0  0  0
    3.9214   -1.6231   -0.0000 O   0  0  0  0  0  0  0  0  0  0  0  0
    2.4050    0.8530   -0.0000 N   0  0  0  0  0  0  0  0  0  0  0  0
    1.3387   -4.2057   -0.0000 C   0  0  0  0  0  0  0  0  0  0  0  0
    0.9596    1.3269   -0.0000 C   0  0  0  0  0  0  0  0  0  0  0  0
    3.2817    2.0851   -0.0000 C   0  0  0  0  0  0  0  0  0  0  0  0
    0.9478    2.8433   -0.0000 C   0  0  0  0  0  0  0  0  0  0  0  0
   -0.3436    0.5924   -0.0000 C   0  0  0  0  0  0  0  0  0  0  0  0
    2.3813    3.3172   -0.0000 C   0  0  0  0  0  0  0  0  0  0  0  0
   -0.3554    3.6015   -0.0000 C   0  0  0  0  0  0  0  0  0  0  0  0
   -1.6468    1.3506   -0.0000 C   0  0  0  0  0  0  0  0  0  0  0  0
   -1.6586    2.8670   -0.0000 C   0  0  0  0  0  0  0  0  0  0  0  0
   -0.3673    5.1061   -0.0000 C   0  0  0  0  0  0  0  0  0  0  0  0
   -1.6705    5.8643   -0.0000 N   0  0  0  0  0  0  0  0  0  0  0  0
   -1.6941    7.3808   -0.0000 C   0  0  0  0  0  0  0  0  0  0  0  0
   -2.9736    5.1298   -0.0000 C   0  0  0  0  0  0  0  0  0  0  0  0
   -2.9973    8.1390   -0.0000 C   0  0  0  0  0  0  0  0  0  0  0  0
   -4.2768    5.8880   -0.0000 C   0  0  0  0  0  0  0  0  0  0  0  0
   -4.3005    7.4045   -0.0000 N   0  0  0  0  0  0  0  0  0  0  0  0
   -5.6037    8.1627   -0.0000 C   0  0  0  0  0  0  0  0  0  0  0  0
  1  2  1  0  0  0  0
  2  3  2  0  0  0  0
  2  4  1  0  0  0  0
  3  5  1  0  0  0  0
  3  6  1  0  0  0  0
  4  7  2  0  0  0  0
  5  8  2  0  0  0  0
  5  9  2  0  0  0  0
  5 10  1  0  0  0  0
  6 11  2  0  0  0  0
 10 12  1  0  0  0  0
 10 13  1  0  0  0  0
 12 14  2  0  0  0  0
 12 15  1  0  0  0  0
 13 16  2  0  0  0  0
 14 17  1  0  0  0  0
 15 18  2  0  0  0  0
 17 19  2  0  0  0  0
 17 20  1  0  0  0  0
 20 21  1  0  0  0  0
 21 22  1  0  0  0  0
 21 23  1  0  0  0  0
 22 24  1  0  0  0  0
 23 25  1  0  0  0  0
 24 26  1  0  0  0  0
 26 27  1  0  0  0  0
  7 11  1  0  0  0  0
 14 16  1  0  0  0  0
 18 19  1  0  0  0  0
 25 26  1  0  0  0  0
M  END
>  <MolRegNo>
1447030

>  <m>
=

>  <Value>
35970

>  <Unit>
nM

>  <Type>
IC50

>  <pValue>
4.44

>  <Ligand Efficiency>
0

>  <Binding Efficiency>
0

>  <Surface Efficiency>
0

>  <Assay Index>
709268

>  <Assay Category>


>  <Assay Organism>
Homo sapiens

>  <Target ID>
17045

>  <Target Name>
Cytochrome P450 3A4

>  <Target Organism>
Homo sapiens

>  <Target Description>
Target is a single protein chain

>  <Sequence Accession>
P08684

>  <Reference>
Bioorg Med Chem Lett 22 (24), 7431-7435 (2012)

>  <Pubmed ID>
23141912

>  <DOI>
10.1016/j.bmcl.2012.10.057

$$$$
1515472
Actelion Java MolfileCreator 1.0

 38 41  0  0  0  0  0  0  0  0999 V2000
    0.0000   -0.0000   -0.0000 S   0  0  0  0  0  0  0  0  0  0  0  0
   -0.0119    1.5174   -0.0000 O   0  0  0  0  0  0  0  0  0  0  0  0
   -1.3159   -0.7468   -0.0000 C   0  0  0  0  0  0  0  0  0  0  0  0
    1.2921   -0.7350   -0.0000 C   0  0  0  0  0  0  0  0  0  0  0  0
   -1.3277   -2.2405   -0.0000 C   0  0  0  0  0  0  0  0  0  0  0  0
   -2.6436   -2.9873   -0.0000 C   0  0  0  0  0  0  0  0  0  0  0  0
   -0.0356   -2.9755   -0.0000 C   0  0  0  0  0  0  0  0  0  0  0  0
   -2.6554   -4.4810   -0.0000 C   0  0  0  0  0  0  0  0  0  0  0  0
   -3.9594   -2.2287   -0.0000 C   0  0  0  0  0  0  0  0  0  0  0  0
   -0.0474   -4.4692   -0.0000 C   0  0  0  0  0  0  0  0  0  0  0  0
   -1.3633   -5.2160   -0.0000 C   0  0  0  0  0  0  0  0  0  0  0  0
   -3.9594   -5.2279   -0.0000 C   0  0  0  0  0  0  0  0  0  0  0  0
   -5.2753   -2.9755   -0.0000 C   0  0  0  0  0  0  0  0  0  0  0  0
   -1.3751   -6.7097   -0.0000 C   0  0  0  0  0  0  0  0  0  0  0  0
   -5.2753   -4.4692   -0.0000 C   0  0  0  0  0  0  0  0  0  0  0  0
   -0.0830   -7.4447   -0.0000 O   0  0  0  0  0  0  0  0  0  0  0  0
   -2.6910   -7.4565   -0.0000 N   0  0  0  0  0  0  0  0  0  0  0  0
   -2.7028   -8.9502   -0.0000 C   0  0  0  0  0  0  0  0  0  0  0  0
   -4.0068   -9.6970   -0.0000 C   0  0  0  0  0  0  0  0  0  0  0  0
   -1.4107   -9.6852   -0.0000 C   0  0  0  0  0  0  0  0  0  0  0  0
   -4.0187  -11.1907   -0.0000 N   0  0  0  0  0  0  0  0  0  0  0  0
   -5.3227   -8.9383   -0.0000 C   0  0  0  0  0  0  0  0  0  0  0  0
   -1.4225  -11.1788   -0.0000 C   0  0  0  0  0  0  0  0  0  0  0  0
   -2.7265  -11.9257   -0.0000 C   0  0  0  0  0  0  0  0  0  0  0  0
   -5.3345   -7.4209   -0.0000 O   0  0  0  0  0  0  0  0  0  0  0  0
   -6.6267   -9.6852   -0.0000 N   0  0  0  0  0  0  0  0  0  0  0  0
   -2.7384  -13.4194   -0.0000 O   0  0  0  0  0  0  0  0  0  0  0  0
   -6.6385  -11.1788   -0.0000 C   0  0  0  0  0  0  0  0  0  0  0  0
   -1.4463  -14.1543   -0.0000 C   0  0  0  0  0  0  0  0  0  0  0  0
   -7.9544  -11.9257   -0.0000 C   0  0  0  0  0  0  0  0  0  0  0  0
   -1.4581  -15.6480   -0.0000 C   0  0  0  0  0  0  0  0  0  0  0  0
   -9.4244  -11.5226   -0.0000 C   0  0  0  0  0  0  0  0  0  0  0  0
   -8.3575  -13.3601   -0.0000 C   0  0  0  0  0  0  0  0  0  0  0  0
   -0.1660  -16.3830   -0.0000 O   0  0  0  0  0  0  0  0  0  0  0  0
   -9.8156  -12.9689   -0.0000 C   0  0  0  0  0  0  0  0  0  0  0  0
   -0.1778  -17.8767   -0.0000 C   0  0  0  0  0  0  0  0  0  0  0  0
    1.1143  -18.6116   -0.0000 C   0  0  0  0  0  0  0  0  0  0  0  0
    1.1025  -20.1053   -0.0000 O   0  0  0  0  0  0  0  0  0  0  0  0
  1  2  2  0  0  0  0
  1  3  1  0  0  0  0
  1  4  1  0  0  0  0
  3  5  1  0  0  0  0
  5  6  1  0  0  0  0
  5  7  2  0  0  0  0
  6  8  1  0  0  0  0
  6  9  2  0  0  0  0
  7 10  1  0  0  0  0
  8 11  1  0  0  0  0
  8 12  2  0  0  0  0
  9 13  1  0  0  0  0
 11 14  1  0  0  0  0
 12 15  1  0  0  0  0
 14 16  2  0  0  0  0
 14 17  1  0  0  0  0
 17 18  1  0  0  0  0
 18 19  2  0  0  0  0
 18 20  1  0  0  0  0
 19 21  1  0  0  0  0
 19 22  1  0  0  0  0
 20 23  2  0  0  0  0
 21 24  2  0  0  0  0
 22 25  2  0  0  0  0
 22 26  1  0  0  0  0
 24 27  1  0  0  0  0
 26 28  1  0  0  0  0
 27 29  1  0  0  0  0
 28 30  1  0  0  0  0
 29 31  1  0  0  0  0
 30 32  1  0  0  0  0
 30 33  1  0  0  0  0
 31 34  1  0  0  0  0
 32 35  1  0  0  0  0
 34 36  1  0  0  0  0
 36 37  1  0  0  0  0
 37 38  1  0  0  0  0
 10 11  2  0  0  0  0
 13 15  2  0  0  0  0
 23 24  1  0  0  0  0
 33 35  1  0  0  0  0
M  END
>  <MolRegNo>
1515472

>  <m>
=

>  <Value>
5500

>  <Unit>
nM

>  <Type>
IC50

>  <pValue>
5.26

>  <Ligand Efficiency>
0

>  <Binding Efficiency>
0

>  <Surface Efficiency>
0

>  <Assay Index>
751322

>  <Assay Category>


>  <Assay Organism>
Homo sapiens

>  <Target ID>
17045

>  <Target Name>
Cytochrome P450 3A4

>  <Target Organism>
Homo sapiens

>  <Target Description>
Target is a single protein chain

>  <Sequence Accession>
P08684

>  <Reference>
J Med Chem 56 (1), 220-240 (2013)

>  <Pubmed ID>
23227781

>  <DOI>
10.1021/jm301511h

$$$$
1515468
Actelion Java MolfileCreator 1.0

 35 38  0  0  0  0  0  0  0  0999 V2000
    0.0000   -0.0000   -0.0000 S   0  0  0  0  0  0  0  0  0  0  0  0
   -0.0118    1.5069   -0.0000 O   0  0  0  0  0  0  0  0  0  0  0  0
   -1.3068   -0.7417   -0.0000 C   0  0  0  0  0  0  0  0  0  0  0  0
    1.2832   -0.7299   -0.0000 C   0  0  0  0  0  0  0  0  0  0  0  0
   -2.6136    0.0118   -0.0000 C   0  0  0  0  0  0  0  0  0  0  0  0
   -3.9204   -0.7299   -0.0000 C   0  0  0  0  0  0  0  0  0  0  0  0
   -2.6254    1.5187   -0.0000 C   0  0  0  0  0  0  0  0  0  0  0  0
   -5.2272    0.0235   -0.0000 C   0  0  0  0  0  0  0  0  0  0  0  0
   -3.9321   -2.2133   -0.0000 C   0  0  0  0  0  0  0  0  0  0  0  0
   -3.9321    2.2722   -0.0000 C   0  0  0  0  0  0  0  0  0  0  0  0
   -5.2389    1.5305   -0.0000 C   0  0  0  0  0  0  0  0  0  0  0  0
   -6.5222   -0.7181   -0.0000 C   0  0  0  0  0  0  0  0  0  0  0  0
   -5.2389   -2.9550   -0.0000 C   0  0  0  0  0  0  0  0  0  0  0  0
   -6.5457    2.2839   -0.0000 C   0  0  0  0  0  0  0  0  0  0  0  0
   -6.5339   -2.2015   -0.0000 C   0  0  0  0  0  0  0  0  0  0  0  0
   -6.5575    3.7909   -0.0000 O   0  0  0  0  0  0  0  0  0  0  0  0
   -7.8525    1.5422   -0.0000 N   0  0  0  0  0  0  0  0  0  0  0  0
   -9.1593    2.2957   -0.0000 C   0  0  0  0  0  0  0  0  0  0  0  0
  -10.4543    1.5540   -0.0000 C   0  0  0  0  0  0  0  0  0  0  0  0
   -9.1711    3.8026   -0.0000 C   0  0  0  0  0  0  0  0  0  0  0  0
  -11.7611    2.3075   -0.0000 N   0  0  0  0  0  0  0  0  0  0  0  0
  -10.4661    0.0706   -0.0000 C   0  0  0  0  0  0  0  0  0  0  0  0
  -10.4779    4.5561   -0.0000 C   0  0  0  0  0  0  0  0  0  0  0  0
  -11.7729    3.8144   -0.0000 C   0  0  0  0  0  0  0  0  0  0  0  0
   -9.1828   -0.6593   -0.0000 O   0  0  0  0  0  0  0  0  0  0  0  0
  -11.7729   -0.6711   -0.0000 N   0  0  0  0  0  0  0  0  0  0  0  0
  -13.0797    4.5679   -0.0000 O   0  0  0  0  0  0  0  0  0  0  0  0
  -13.0797    0.0824   -0.0000 C   0  0  0  0  0  0  0  0  0  0  0  0
  -13.0914    6.0748   -0.0000 C   0  0  0  0  0  0  0  0  0  0  0  0
  -14.3747   -0.6593   -0.0000 C   0  0  0  0  0  0  0  0  0  0  0  0
  -15.6815    0.0942   -0.0000 C   0  0  0  0  0  0  0  0  0  0  0  0
  -14.3864   -2.1427   -0.0000 C   0  0  0  0  0  0  0  0  0  0  0  0
  -16.9883   -0.6475   -0.0000 C   0  0  0  0  0  0  0  0  0  0  0  0
  -15.6932   -2.8844   -0.0000 C   0  0  0  0  0  0  0  0  0  0  0  0
  -17.0000   -2.1309   -0.0000 O   0  0  0  0  0  0  0  0  0  0  0  0
  1  2  2  0  0  0  0
  1  3  1  0  0  0  0
  1  4  1  0  0  0  0
  3  5  1  0  0  0  0
  5  6  1  0  0  0  0
  5  7  2  0  0  0  0
  6  8  1  0  0  0  0
  6  9  2  0  0  0  0
  7 10  1  0  0  0  0
  8 11  1  0  0  0  0
  8 12  2  0  0  0  0
  9 13  1  0  0  0  0
 11 14  1  0  0  0  0
 12 15  1  0  0  0  0
 14 16  2  0  0  0  0
 14 17  1  0  0  0  0
 17 18  1  0  0  0  0
 18 19  2  0  0  0  0
 18 20  1  0  0  0  0
 19 21  1  0  0  0  0
 19 22  1  0  0  0  0
 20 23  2  0  0  0  0
 21 24  2  0  0  0  0
 22 25  2  0  0  0  0
 22 26  1  0  0  0  0
 24 27  1  0  0  0  0
 26 28  1  0  0  0  0
 27 29  1  0  0  0  0
 28 30  1  0  0  0  0
 30 31  1  0  0  0  0
 30 32  1  0  0  0  0
 31 33  1  0  0  0  0
 32 34  1  0  0  0  0
 33 35  1  0  0  0  0
 10 11  2  0  0  0  0
 13 15  2  0  0  0  0
 23 24  1  0  0  0  0
 34 35  1  0  0  0  0
M  END
>  <MolRegNo>
1515468

>  <m>
=

>  <Value>
8800

>  <Unit>
nM

>  <Type>
IC50

>  <pValue>
5.06

>  <Ligand Efficiency>
0

>  <Binding Efficiency>
0

>  <Surface Efficiency>
0

>  <Assay Index>
751322

>  <Assay Category>


>  <Assay Organism>
Homo sapiens

>  <Target ID>
17045

>  <Target Name>
Cytochrome P450 3A4

>  <Target Organism>
Homo sapiens

>  <Target Description>
Target is a single protein chain

>  <Sequence Accession>
P08684

>  <Reference>
J Med Chem 56 (1), 220-240 (2013)

>  <Pubmed ID>
23227781

>  <DOI>
10.1021/jm301511h

$$$$
1515465
Actelion Java MolfileCreator 1.0

 35 39  0  0  0  0  0  0  0  0999 V2000
    0.0000   -0.0000   -0.0000 O   0  0  0  0  0  0  0  0  0  0  0  0
   -1.3135    0.7573   -0.0000 C   0  0  0  0  0  0  0  0  0  0  0  0
   -2.6270    0.0237   -0.0000 N   0  0  0  0  0  0  0  0  0  0  0  0
   -1.3253    2.2720   -0.0000 C   0  0  0  0  0  0  0  0  0  0  0  0
   -3.9405    0.7810   -0.0000 C   0  0  0  0  0  0  0  0  0  0  0  0
   -2.6388    3.0293   -0.0000 N   0  0  0  0  0  0  0  0  0  0  0  0
   -0.0355    3.0293   -0.0000 C   0  0  0  0  0  0  0  0  0  0  0  0
   -5.2540    0.0473   -0.0000 C   0  0  0  0  0  0  0  0  0  0  0  0
   -2.6507    4.5440   -0.0000 C   0  0  0  0  0  0  0  0  0  0  0  0
    1.2543    2.2957   -0.0000 N   0  0  0  0  0  0  0  0  0  0  0  0
   -0.0473    4.5440   -0.0000 C   0  0  0  0  0  0  0  0  0  0  0  0
   -6.5675    0.8047   -0.0000 C   0  0  0  0  0  0  0  0  0  0  0  0
   -5.2659   -1.4437   -0.0000 C   0  0  0  0  0  0  0  0  0  0  0  0
   -1.3608    5.3014   -0.0000 C   0  0  0  0  0  0  0  0  0  0  0  0
    2.5442    3.0530   -0.0000 C   0  0  0  0  0  0  0  0  0  0  0  0
   -7.8810    0.0710   -0.0000 C   0  0  0  0  0  0  0  0  0  0  0  0
   -6.5794   -2.1773   -0.0000 C   0  0  0  0  0  0  0  0  0  0  0  0
    2.5323    4.5677   -0.0000 O   0  0  0  0  0  0  0  0  0  0  0  0
    3.8340    2.3193   -0.0000 C   0  0  0  0  0  0  0  0  0  0  0  0
   -7.8929   -1.4200   -0.0000 O   0  0  0  0  0  0  0  0  0  0  0  0
    3.8222    0.8283   -0.0000 C   0  0  0  0  0  0  0  0  0  0  0  0
    5.1239    3.0767   -0.0000 C   0  0  0  0  0  0  0  0  0  0  0  0
    5.1120    0.0947   -0.0000 C   0  0  0  0  0  0  0  0  0  0  0  0
    2.5087    0.0947   -0.0000 C   0  0  0  0  0  0  0  0  0  0  0  0
    6.4137    2.3430   -0.0000 C   0  0  0  0  0  0  0  0  0  0  0  0
    6.4019    0.8520   -0.0000 C   0  0  0  0  0  0  0  0  0  0  0  0
    5.1002   -1.3963   -0.0000 C   0  0  0  0  0  0  0  0  0  0  0  0
    2.4968   -1.3963   -0.0000 C   0  0  0  0  0  0  0  0  0  0  0  0
    7.6917    0.1183   -0.0000 C   0  0  0  0  0  0  0  0  0  0  0  0
    3.7867   -2.1300   -0.0000 C   0  0  0  0  0  0  0  0  0  0  0  0
    8.9815    0.8757   -0.0000 N   0  0  0  0  0  0  0  0  0  0  0  0
    9.1235    2.3785   -0.0000 N   0  0  0  0  0  0  0  0  0  0  0  0
   10.3424    0.2722   -0.0000 C   0  0  0  0  0  0  0  0  0  0  0  0
   10.5790    2.7098   -0.0000 N   0  0  0  0  0  0  0  0  0  0  0  0
   11.3245    1.4082   -0.0000 C   0  0  0  0  0  0  0  0  0  0  0  0
  1  2  2  0  0  0  0
  2  3  1  0  0  0  0
  2  4  1  0  0  0  0
  3  5  1  0  0  0  0
  4  6  2  0  0  0  0
  4  7  1  0  0  0  0
  5  8  1  0  0  0  0
  6  9  1  0  0  0  0
  7 10  1  0  0  0  0
  7 11  2  0  0  0  0
  8 12  1  0  0  0  0
  8 13  1  0  0  0  0
  9 14  2  0  0  0  0
 10 15  1  0  0  0  0
 12 16  1  0  0  0  0
 13 17  1  0  0  0  0
 15 18  2  0  0  0  0
 15 19  1  0  0  0  0
 16 20  1  0  0  0  0
 19 21  1  0  0  0  0
 19 22  2  0  0  0  0
 21 23  1  0  0  0  0
 21 24  2  0  0  0  0
 22 25  1  0  0  0  0
 23 26  1  0  0  0  0
 23 27  2  0  0  0  0
 24 28  1  0  0  0  0
 26 29  1  0  0  0  0
 27 30  1  0  0  0  0
 29 31  1  0  0  0  0
 31 32  1  0  0  0  0
 31 33  1  0  0  0  0
 32 34  2  0  0  0  0
 33 35  2  0  0  0  0
 11 14  1  0  0  0  0
 17 20  1  0  0  0  0
 25 26  2  0  0  0  0
 28 30  2  0  0  0  0
 34 35  1  0  0  0  0
M  END
>  <MolRegNo>
1515465

>  <m>
=

>  <Value>
610

>  <Unit>
nM

>  <Type>
IC50

>  <pValue>
6.21

>  <Ligand Efficiency>
0

>  <Binding Efficiency>
0

>  <Surface Efficiency>
0

>  <Assay Index>
751322

>  <Assay Category>


>  <Assay Organism>
Homo sapiens

>  <Target ID>
17045

>  <Target Name>
Cytochrome P450 3A4

>  <Target Organism>
Homo sapiens

>  <Target Description>
Target is a single protein chain

>  <Sequence Accession>
P08684

>  <Reference>
J Med Chem 56 (1), 220-240 (2013)

>  <Pubmed ID>
23227781

>  <DOI>
10.1021/jm301511h

$$$$
1515464
Actelion Java MolfileCreator 1.0

 37 41  0  0  0  0  0  0  0  0999 V2000
    0.0000   -0.0000   -0.0000 O   0  0  0  0  0  0  0  0  0  0  0  0
   -1.3128    0.7570   -0.0000 C   0  0  0  0  0  0  0  0  0  0  0  0
   -2.6257    0.0237   -0.0000 N   0  0  0  0  0  0  0  0  0  0  0  0
   -1.3247    2.2709   -0.0000 C   0  0  0  0  0  0  0  0  0  0  0  0
   -3.9385    0.7806   -0.0000 C   0  0  0  0  0  0  0  0  0  0  0  0
   -2.6375    3.0278   -0.0000 N   0  0  0  0  0  0  0  0  0  0  0  0
   -0.0355    3.0278   -0.0000 C   0  0  0  0  0  0  0  0  0  0  0  0
   -5.2514    0.0473   -0.0000 C   0  0  0  0  0  0  0  0  0  0  0  0
   -2.6493    4.5417   -0.0000 C   0  0  0  0  0  0  0  0  0  0  0  0
    1.2537    2.2945   -0.0000 N   0  0  0  0  0  0  0  0  0  0  0  0
   -0.0473    4.5417   -0.0000 C   0  0  0  0  0  0  0  0  0  0  0  0
   -6.5642    0.8043   -0.0000 C   0  0  0  0  0  0  0  0  0  0  0  0
   -5.2632   -1.4429   -0.0000 C   0  0  0  0  0  0  0  0  0  0  0  0
   -3.9622    5.2987   -0.0000 O   0  0  0  0  0  0  0  0  0  0  0  0
   -1.3602    5.2987   -0.0000 C   0  0  0  0  0  0  0  0  0  0  0  0
    2.5429    3.0515   -0.0000 C   0  0  0  0  0  0  0  0  0  0  0  0
   -7.8771    0.0710   -0.0000 C   0  0  0  0  0  0  0  0  0  0  0  0
   -6.5761   -2.1762   -0.0000 C   0  0  0  0  0  0  0  0  0  0  0  0
   -3.9740    6.8126   -0.0000 C   0  0  0  0  0  0  0  0  0  0  0  0
    2.5311    4.5654   -0.0000 O   0  0  0  0  0  0  0  0  0  0  0  0
    3.8321    2.3182   -0.0000 C   0  0  0  0  0  0  0  0  0  0  0  0
   -7.8889   -1.4193   -0.0000 O   0  0  0  0  0  0  0  0  0  0  0  0
    3.8203    0.8279   -0.0000 C   0  0  0  0  0  0  0  0  0  0  0  0
    5.1213    3.0751   -0.0000 C   0  0  0  0  0  0  0  0  0  0  0  0
    5.1095    0.0946   -0.0000 C   0  0  0  0  0  0  0  0  0  0  0  0
    2.5074    0.0946   -0.0000 C   0  0  0  0  0  0  0  0  0  0  0  0
    6.4105    2.3418   -0.0000 C   0  0  0  0  0  0  0  0  0  0  0  0
    6.3986    0.8516   -0.0000 C   0  0  0  0  0  0  0  0  0  0  0  0
    5.0976   -1.3956   -0.0000 C   0  0  0  0  0  0  0  0  0  0  0  0
    2.4956   -1.3956   -0.0000 C   0  0  0  0  0  0  0  0  0  0  0  0
    7.6878    0.1183   -0.0000 C   0  0  0  0  0  0  0  0  0  0  0  0
    3.7848   -2.1289   -0.0000 C   0  0  0  0  0  0  0  0  0  0  0  0
    8.9770    0.8752   -0.0000 N   0  0  0  0  0  0  0  0  0  0  0  0
    9.1190    2.3773   -0.0000 N   0  0  0  0  0  0  0  0  0  0  0  0
   10.3372    0.2720   -0.0000 C   0  0  0  0  0  0  0  0  0  0  0  0
   10.5737    2.7085   -0.0000 N   0  0  0  0  0  0  0  0  0  0  0  0
   11.3189    1.4075   -0.0000 C   0  0  0  0  0  0  0  0  0  0  0  0
  1  2  2  0  0  0  0
  2  3  1  0  0  0  0
  2  4  1  0  0  0  0
  3  5  1  0  0  0  0
  4  6  2  0  0  0  0
  4  7  1  0  0  0  0
  5  8  1  0  0  0  0
  6  9  1  0  0  0  0
  7 10  1  0  0  0  0
  7 11  2  0  0  0  0
  8 12  1  0  0  0  0
  8 13  1  0  0  0  0
  9 14  1  0  0  0  0
  9 15  2  0  0  0  0
 10 16  1  0  0  0  0
 12 17  1  0  0  0  0
 13 18  1  0  0  0  0
 14 19  1  0  0  0  0
 16 20  2  0  0  0  0
 16 21  1  0  0  0  0
 17 22  1  0  0  0  0
 21 23  1  0  0  0  0
 21 24  2  0  0  0  0
 23 25  1  0  0  0  0
 23 26  2  0  0  0  0
 24 27  1  0  0  0  0
 25 28  1  0  0  0  0
 25 29  2  0  0  0  0
 26 30  1  0  0  0  0
 28 31  1  0  0  0  0
 29 32  1  0  0  0  0
 31 33  1  0  0  0  0
 33 34  1  0  0  0  0
 33 35  1  0  0  0  0
 34 36  2  0  0  0  0
 35 37  2  0  0  0  0
 11 15  1  0  0  0  0
 18 22  1  0  0  0  0
 27 28  2  0  0  0  0
 30 32  2  0  0  0  0
 36 37  1  0  0  0  0
M  END
>  <MolRegNo>
1515464

>  <m>
=

>  <Value>
360

>  <Unit>
nM

>  <Type>
IC50

>  <pValue>
6.44

>  <Ligand Efficiency>
0

>  <Binding Efficiency>
0

>  <Surface Efficiency>
0

>  <Assay Index>
751322

>  <Assay Category>


>  <Assay Organism>
Homo sapiens

>  <Target ID>
17045

>  <Target Name>
Cytochrome P450 3A4

>  <Target Organism>
Homo sapiens

>  <Target Description>
Target is a single protein chain

>  <Sequence Accession>
P08684

>  <Reference>
J Med Chem 56 (1), 220-240 (2013)

>  <Pubmed ID>
23227781

>  <DOI>
10.1021/jm301511h

$$$$
1512824
Actelion Java MolfileCreator 1.0

 33 37  0  0  0  0  0  0  0  0999 V2000
    0.0000   -0.0000   -0.0000 F   0  0  0  0  0  0  0  0  0  0  0  0
   -1.2924   -0.7470   -0.0000 C   0  0  0  0  0  0  0  0  0  0  0  0
   -1.3043    0.7589   -0.0000 F   0  0  0  0  0  0  0  0  0  0  0  0
   -0.0119   -1.4822   -0.0000 F   0  0  0  0  0  0  0  0  0  0  0  0
   -2.5967   -1.4822   -0.0000 C   0  0  0  0  0  0  0  0  0  0  0  0
   -2.6086   -2.9762   -0.0000 C   0  0  0  0  0  0  0  0  0  0  0  0
   -3.9010   -0.7233   -0.0000 C   0  0  0  0  0  0  0  0  0  0  0  0
   -3.9129   -3.7113   -0.0000 N   0  0  0  0  0  0  0  0  0  0  0  0
   -5.1935   -1.4584   -0.0000 C   0  0  0  0  0  0  0  0  0  0  0  0
   -5.2172   -2.9524   -0.0000 C   0  0  0  0  0  0  0  0  0  0  0  0
   -6.4977   -0.6996   -0.0000 C   0  0  0  0  0  0  0  0  0  0  0  0
   -6.5215   -3.6876   -0.0000 C   0  0  0  0  0  0  0  0  0  0  0  0
   -7.8258   -1.4229   -0.0000 N   0  0  0  0  0  0  0  0  0  0  0  0
   -7.8376   -2.9169   -0.0000 C   0  0  0  0  0  0  0  0  0  0  0  0
   -9.1300   -0.6640   -0.0000 C   0  0  0  0  0  0  0  0  0  0  0  0
   -9.1300    0.8419   -0.0000 O   0  0  0  0  0  0  0  0  0  0  0  0
  -10.4462   -1.3873   -0.0000 C   0  0  0  0  0  0  0  0  0  0  0  0
  -11.7149   -2.1817   -0.0000 C   0  0  0  0  0  0  0  0  0  0  0  0
  -10.8375    0.0711   -0.0000 C   0  0  0  0  0  0  0  0  0  0  0  0
   -9.3079   -2.3240   -0.0000 C   0  0  0  0  0  0  0  0  0  0  0  0
  -12.8888   -1.2213   -0.0000 C   0  0  0  0  0  0  0  0  0  0  0  0
  -11.3473   -3.6283   -0.0000 C   0  0  0  0  0  0  0  0  0  0  0  0
  -12.3433    0.1660   -0.0000 C   0  0  0  0  0  0  0  0  0  0  0  0
   -9.8652   -3.6994   -0.0000 C   0  0  0  0  0  0  0  0  0  0  0  0
  -13.1615    1.4347   -0.0000 N   0  0  0  0  0  0  0  0  0  0  0  0
  -14.6674    1.3754   -0.0000 C   0  0  0  0  0  0  0  0  0  0  0  0
  -15.4855    2.6442   -0.0000 C   0  0  0  0  0  0  0  0  0  0  0  0
  -15.3669    0.0474   -0.0000 C   0  0  0  0  0  0  0  0  0  0  0  0
  -14.8215    3.9840   -0.0000 O   0  0  0  0  0  0  0  0  0  0  0  0
  -16.9795    2.5849   -0.0000 C   0  0  0  0  0  0  0  0  0  0  0  0
  -16.8728   -0.0119   -0.0000 C   0  0  0  0  0  0  0  0  0  0  0  0
  -13.3394    4.0670   -0.0000 C   0  0  0  0  0  0  0  0  0  0  0  0
  -17.6909    1.2687   -0.0000 O   0  0  0  0  0  0  0  0  0  0  0  0
  1  2  1  0  0  0  0
  2  3  1  0  0  0  0
  2  4  1  0  0  0  0
  2  5  1  0  0  0  0
  5  6  2  0  0  0  0
  5  7  1  0  0  0  0
  6  8  1  0  0  0  0
  7  9  2  0  0  0  0
  8 10  2  0  0  0  0
  9 11  1  0  0  0  0
 10 12  1  0  0  0  0
 11 13  1  0  0  0  0
 12 14  1  0  0  0  0
 13 15  1  0  0  0  0
 15 16  2  0  0  0  0
 17 15  1  6  0  0  0
 17 18  1  0  0  0  0
 17 19  1  0  0  0  0
 17 20  1  0  0  0  0
 18 21  1  1  0  0  0
 18 22  1  0  0  0  0
 19 23  1  0  0  0  0
 20 24  1  0  0  0  0
 23 25  1  6  0  0  0
 26 25  1  6  0  0  0
 26 27  1  0  0  0  0
 26 28  1  0  0  0  0
 27 29  1  6  0  0  0
 27 30  1  0  0  0  0
 28 31  1  0  0  0  0
 29 32  1  0  0  0  0
 30 33  1  0  0  0  0
  9 10  1  0  0  0  0
 13 14  1  0  0  0  0
 21 23  1  0  0  0  0
 22 24  1  0  0  0  0
 31 33  1  0  0  0  0
M  END
>  <MolRegNo>
1512824

>  <m>
=

>  <Value>
7500

>  <Unit>
nM

>  <Type>
IC50

>  <pValue>
5.12

>  <Ligand Efficiency>
0

>  <Binding Efficiency>
0

>  <Surface Efficiency>
0

>  <Assay Index>
750402

>  <Assay Category>


>  <Assay Organism>
Homo sapiens

>  <Target ID>
17045

>  <Target Name>
Cytochrome P450 3A4

>  <Target Organism>
Homo sapiens

>  <Target Description>
Target is a single protein chain

>  <Sequence Accession>
P08684

>  <Reference>
Bioorg Med Chem Lett 23 (1), 351-354 (2013)

>  <Pubmed ID>
23182090

>  <DOI>
10.1016/j.bmcl.2012.10.069

$$$$
1517937
Actelion Java MolfileCreator 1.0

 34 38  0  0  0  0  0  0  0  0999 V2000
    0.0000   -0.0000   -0.0000 S   0  0  0  0  0  0  0  0  0  0  0  0
   -0.4129   -1.4273   -0.0000 O   0  0  0  0  0  0  0  0  0  0  0  0
    1.0381   -1.0381   -0.0000 O   0  0  0  0  0  0  0  0  0  0  0  0
    1.0853    1.0263   -0.0000 N   0  0  0  0  0  0  0  0  0  0  0  0
   -1.4391    0.4483   -0.0000 C   0  0  0  0  0  0  0  0  0  0  0  0
    2.5008    0.6016   -0.0000 C   0  0  0  0  0  0  0  0  0  0  0  0
   -2.5480   -0.5544   -0.0000 C   0  0  0  0  0  0  0  0  0  0  0  0
    3.5861    1.6279   -0.0000 C   0  0  0  0  0  0  0  0  0  0  0  0
   -3.9871   -0.1062   -0.0000 C   0  0  0  0  0  0  0  0  0  0  0  0
   -2.2177   -2.0054   -0.0000 C   0  0  0  0  0  0  0  0  0  0  0  0
    5.0016    1.1914   -0.0000 N   0  0  0  0  0  0  0  0  0  0  0  0
    3.2322    3.0906   -0.0000 C   0  0  0  0  0  0  0  0  0  0  0  0
   -5.0960   -1.1088   -0.0000 C   0  0  0  0  0  0  0  0  0  0  0  0
   -3.3265   -3.0080   -0.0000 C   0  0  0  0  0  0  0  0  0  0  0  0
    6.0869    2.2177   -0.0000 C   0  0  0  0  0  0  0  0  0  0  0  0
    4.3056    4.1287   -0.0000 C   0  0  0  0  0  0  0  0  0  0  0  0
   -6.4525   -0.4365   -0.0000 C   0  0  0  0  0  0  0  0  0  0  0  0
   -4.7775   -2.5598   -0.0000 C   0  0  0  0  0  0  0  0  0  0  0  0
    5.7448    3.6922   -0.0000 C   0  0  0  0  0  0  0  0  0  0  0  0
   -6.4525    1.0735   -0.0000 O   0  0  0  0  0  0  0  0  0  0  0  0
   -7.8091   -1.0499   -0.0000 C   0  0  0  0  0  0  0  0  0  0  0  0
   -5.7330   -3.7040   -0.0000 C   0  0  0  0  0  0  0  0  0  0  0  0
   -8.1748   -2.5008   -0.0000 C   0  0  0  0  0  0  0  0  0  0  0  0
   -8.9061   -0.0118   -0.0000 C   0  0  0  0  0  0  0  0  0  0  0  0
   -7.2429   -3.6804   -0.0000 C   0  0  0  0  0  0  0  0  0  0  0  0
   -9.6139   -2.9137   -0.0000 N   0  0  0  0  0  0  0  0  0  0  0  0
  -10.3571   -0.4247   -0.0000 C   0  0  0  0  0  0  0  0  0  0  0  0
  -10.7110   -1.8756   -0.0000 C   0  0  0  0  0  0  0  0  0  0  0  0
  -11.4541    0.6252   -0.0000 C   0  0  0  0  0  0  0  0  0  0  0  0
  -11.2772    2.1233   -0.0000 C   0  0  0  0  0  0  0  0  0  0  0  0
  -12.9405    0.3657   -0.0000 C   0  0  0  0  0  0  0  0  0  0  0  0
  -12.6456    2.7721   -0.0000 N   0  0  0  0  0  0  0  0  0  0  0  0
  -13.6718    1.6869   -0.0000 N   0  0  0  0  0  0  0  0  0  0  0  0
  -15.1699    1.8874   -0.0000 C   0  0  0  0  0  0  0  0  0  0  0  0
  1  2  2  0  0  0  0
  1  3  2  0  0  0  0
  1  4  1  0  0  0  0
  1  5  1  0  0  0  0
  4  6  1  0  0  0  0
  5  7  1  0  0  0  0
  6  8  1  0  0  0  0
  7  9  2  0  0  0  0
  7 10  1  0  0  0  0
  8 11  2  0  0  0  0
  8 12  1  0  0  0  0
  9 13  1  0  0  0  0
 10 14  2  0  0  0  0
 11 15  1  0  0  0  0
 12 16  2  0  0  0  0
 13 17  1  0  0  0  0
 13 18  2  0  0  0  0
 15 19  2  0  0  0  0
 17 20  2  0  0  0  0
 17 21  1  0  0  0  0
 18 22  1  0  0  0  0
 21 23  2  0  0  0  0
 21 24  1  0  0  0  0
 22 25  2  0  0  0  0
 23 26  1  0  0  0  0
 24 27  2  0  0  0  0
 26 28  2  0  0  0  0
 27 29  1  0  0  0  0
 29 30  1  0  0  0  0
 29 31  2  0  0  0  0
 30 32  2  0  0  0  0
 31 33  1  0  0  0  0
 33 34  1  0  0  0  0
 14 18  1  0  0  0  0
 16 19  1  0  0  0  0
 23 25  1  0  0  0  0
 27 28  1  0  0  0  0
 32 33  1  0  0  0  0
M  END
>  <MolRegNo>
1517937

>  <m>
=

>  <Value>
11580

>  <Unit>
nM

>  <Type>
IC50

>  <pValue>
4.94

>  <Ligand Efficiency>
0

>  <Binding Efficiency>
0

>  <Surface Efficiency>
0

>  <Assay Index>
755148

>  <Assay Category>


>  <Assay Organism>
Homo sapiens

>  <Target ID>
17045

>  <Target Name>
Cytochrome P450 3A4

>  <Target Organism>
Homo sapiens

>  <Target Description>
Target is a single protein chain

>  <Sequence Accession>
P08684

>  <Reference>
J Med Chem 56 (6), 2294-2310 (2013)

>  <Pubmed ID>
23379595

>  <DOI>
10.1021/jm301619u

$$$$
1247675
Actelion Java MolfileCreator 1.0

 31 34  0  0  0  0  0  0  0  0999 V2000
    0.0000   -0.0000   -0.0000 F   0  0  0  0  0  0  0  0  0  0  0  0
   -0.7657   -1.2841   -0.0000 C   0  0  0  0  0  0  0  0  0  0  0  0
   -0.0236   -2.5681   -0.0000 C   0  0  0  0  0  0  0  0  0  0  0  0
   -2.2736   -1.2723   -0.0000 C   0  0  0  0  0  0  0  0  0  0  0  0
    1.4608   -2.5563   -0.0000 F   0  0  0  0  0  0  0  0  0  0  0  0
   -0.7893   -3.8522   -0.0000 C   0  0  0  0  0  0  0  0  0  0  0  0
   -3.0276   -2.5563   -0.0000 C   0  0  0  0  0  0  0  0  0  0  0  0
   -2.2972   -3.8404   -0.0000 C   0  0  0  0  0  0  0  0  0  0  0  0
   -4.5355   -2.5446   -0.0000 C   0  0  0  0  0  0  0  0  0  0  0  0
   -5.2894   -1.2369   -0.0000 O   0  0  0  0  0  0  0  0  0  0  0  0
   -5.2894   -3.8286   -0.0000 N   0  0  0  0  0  0  0  0  0  0  0  0
   -6.7973   -3.8169   -0.0000 C   0  0  0  0  0  0  0  0  0  0  0  0
   -7.5512   -5.1009   -0.0000 C   0  0  0  0  0  0  0  0  0  0  0  0
   -9.0591   -5.0891   -0.0000 N   0  0  0  0  0  0  0  0  0  0  0  0
   -9.8131   -6.3732   -0.0000 C   0  0  0  0  0  0  0  0  0  0  0  0
   -9.8131   -3.7815   -0.0000 C   0  0  0  0  0  0  0  0  0  0  0  0
  -11.3210   -6.3614   -0.0000 C   0  0  0  0  0  0  0  0  0  0  0  0
  -11.3210   -3.7697   -0.0000 C   0  0  0  0  0  0  0  0  0  0  0  0
  -12.0749   -5.0538   -0.0000 C   0  0  0  0  0  0  0  0  0  0  0  0
  -12.9702   -3.8286   -0.0000 N   0  0  0  0  0  0  0  0  0  0  0  0
  -12.9702   -6.2554   -0.0000 C   0  0  0  0  0  0  0  0  0  0  0  0
  -12.5226   -2.3914   -0.0000 C   0  0  0  0  0  0  0  0  0  0  0  0
  -14.4074   -4.2763   -0.0000 C   0  0  0  0  0  0  0  0  0  0  0  0
  -12.5226   -7.6690   -0.0000 O   0  0  0  0  0  0  0  0  0  0  0  0
  -14.4074   -5.7842   -0.0000 N   0  0  0  0  0  0  0  0  0  0  0  0
  -13.5357   -1.2723   -0.0000 C   0  0  0  0  0  0  0  0  0  0  0  0
  -11.0736   -2.0734   -0.0000 C   0  0  0  0  0  0  0  0  0  0  0  0
  -13.0880    0.1649   -0.0000 C   0  0  0  0  0  0  0  0  0  0  0  0
  -10.6259   -0.6361   -0.0000 C   0  0  0  0  0  0  0  0  0  0  0  0
  -14.1011    1.2841   -0.0000 F   0  0  0  0  0  0  0  0  0  0  0  0
  -11.6390    0.4830   -0.0000 C   0  0  0  0  0  0  0  0  0  0  0  0
  1  2  1  0  0  0  0
  2  3  2  0  0  0  0
  2  4  1  0  0  0  0
  3  5  1  0  0  0  0
  3  6  1  0  0  0  0
  4  7  2  0  0  0  0
  6  8  2  0  0  0  0
  7  9  1  0  0  0  0
  9 10  2  0  0  0  0
  9 11  1  0  0  0  0
 11 12  1  0  0  0  0
 12 13  1  0  0  0  0
 13 14  1  0  0  0  0
 14 15  1  0  0  0  0
 14 16  1  0  0  0  0
 15 17  1  0  0  0  0
 16 18  1  0  0  0  0
 17 19  1  0  0  0  0
 19 20  1  0  0  0  0
 19 21  1  0  0  0  0
 20 22  1  0  0  0  0
 20 23  1  0  0  0  0
 21 24  2  0  0  0  0
 21 25  1  0  0  0  0
 22 26  2  0  0  0  0
 22 27  1  0  0  0  0
 26 28  1  0  0  0  0
 27 29  2  0  0  0  0
 28 30  1  0  0  0  0
 28 31  2  0  0  0  0
  7  8  1  0  0  0  0
 18 19  1  0  0  0  0
 23 25  1  0  0  0  0
 29 31  1  0  0  0  0
M  END
>  <MolRegNo>
1247675

>  <m>
=

>  <Value>
17600

>  <Unit>
nM

>  <Type>
IC50

>  <pValue>
4.75

>  <Ligand Efficiency>
0

>  <Binding Efficiency>
0

>  <Surface Efficiency>
0

>  <Assay Index>
756538

>  <Assay Category>


>  <Assay Organism>
Homo sapiens

>  <Target ID>
17045

>  <Target Name>
Cytochrome P450 3A4

>  <Target Organism>
Homo sapiens

>  <Target Description>
Target is a single protein chain

>  <Sequence Accession>
P08684

>  <Reference>
J Med Chem 56 (6), 2695-2699 (2013)

>  <Pubmed ID>
23445448

>  <DOI>
10.1021/jm301782e

$$$$
1519664
Actelion Java MolfileCreator 1.0

 31 34  0  0  0  0  0  0  0  0999 V2000
    0.0000   -0.0000   -0.0000 Br  0  0  0  0  0  0  0  0  0  0  0  0
   -1.3345    0.6968   -0.0000 C   0  0  0  0  0  0  0  0  0  0  0  0
   -1.4171    2.2084   -0.0000 C   0  0  0  0  0  0  0  0  0  0  0  0
   -2.5981   -0.0945   -0.0000 C   0  0  0  0  0  0  0  0  0  0  0  0
   -2.7634    2.9051   -0.0000 C   0  0  0  0  0  0  0  0  0  0  0  0
   -3.9443    0.6023   -0.0000 C   0  0  0  0  0  0  0  0  0  0  0  0
   -4.0388    2.1139   -0.0000 C   0  0  0  0  0  0  0  0  0  0  0  0
   -5.3733    2.8106   -0.0000 C   0  0  0  0  0  0  0  0  0  0  0  0
   -5.4559    4.3104   -0.0000 O   0  0  0  0  0  0  0  0  0  0  0  0
   -6.6369    2.0194   -0.0000 N   0  0  0  0  0  0  0  0  0  0  0  0
   -7.9713    2.7162   -0.0000 C   0  0  0  0  0  0  0  0  0  0  0  0
   -9.2349    1.9249   -0.0000 C   0  0  0  0  0  0  0  0  0  0  0  0
   -8.0540    4.2159   -0.0000 C   0  0  0  0  0  0  0  0  0  0  0  0
  -10.5694    2.6217   -0.0000 N   0  0  0  0  0  0  0  0  0  0  0  0
  -10.6520    4.1333   -0.0000 C   0  0  0  0  0  0  0  0  0  0  0  0
  -11.8448    1.8305   -0.0000 C   0  0  0  0  0  0  0  0  0  0  0  0
  -11.9865    4.8300   -0.0000 C   0  0  0  0  0  0  0  0  0  0  0  0
  -13.1792    2.5390   -0.0000 C   0  0  0  0  0  0  0  0  0  0  0  0
  -13.2619    4.0388   -0.0000 C   0  0  0  0  0  0  0  0  0  0  0  0
  -14.4901    3.1767   -0.0000 N   0  0  0  0  0  0  0  0  0  0  0  0
  -13.7343    5.4795   -0.0000 C   0  0  0  0  0  0  0  0  0  0  0  0
  -14.5019    1.7005   -0.0000 C   0  0  0  0  0  0  0  0  0  0  0  0
  -15.7183    4.0742   -0.0000 C   0  0  0  0  0  0  0  0  0  0  0  0
  -12.8604    6.6959   -0.0000 O   0  0  0  0  0  0  0  0  0  0  0  0
  -15.2459    5.4914   -0.0000 N   0  0  0  0  0  0  0  0  0  0  0  0
  -13.2265    0.9684   -0.0000 C   0  0  0  0  0  0  0  0  0  0  0  0
  -15.8127    0.9684   -0.0000 C   0  0  0  0  0  0  0  0  0  0  0  0
  -13.2383   -0.5078   -0.0000 C   0  0  0  0  0  0  0  0  0  0  0  0
  -15.8245   -0.5078   -0.0000 C   0  0  0  0  0  0  0  0  0  0  0  0
  -14.5491   -1.2518   -0.0000 C   0  0  0  0  0  0  0  0  0  0  0  0
  -11.9511   -1.2400   -0.0000 C   0  0  0  0  0  0  0  0  0  0  0  0
  1  2  1  0  0  0  0
  2  3  2  0  0  0  0
  2  4  1  0  0  0  0
  3  5  1  0  0  0  0
  4  6  2  0  0  0  0
  5  7  2  0  0  0  0
  7  8  1  0  0  0  0
  8  9  2  0  0  0  0
  8 10  1  0  0  0  0
 11 10  1  6  0  0  0
 11 12  1  0  0  0  0
 11 13  1  0  0  0  0
 12 14  1  0  0  0  0
 14 15  1  0  0  0  0
 14 16  1  0  0  0  0
 15 17  1  0  0  0  0
 16 18  1  0  0  0  0
 17 19  1  0  0  0  0
 19 20  1  0  0  0  0
 19 21  1  0  0  0  0
 20 22  1  0  0  0  0
 20 23  1  0  0  0  0
 21 24  2  0  0  0  0
 21 25  1  0  0  0  0
 22 26  2  0  0  0  0
 22 27  1  0  0  0  0
 26 28  1  0  0  0  0
 27 29  2  0  0  0  0
 28 30  2  0  0  0  0
 28 31  1  0  0  0  0
  6  7  1  0  0  0  0
 18 19  1  0  0  0  0
 23 25  1  0  0  0  0
 29 30  1  0  0  0  0
M  END
>  <MolRegNo>
1519664

>  <m>
=

>  <Value>
6800

>  <Unit>
nM

>  <Type>
IC50

>  <pValue>
5.17

>  <Ligand Efficiency>
0

>  <Binding Efficiency>
0

>  <Surface Efficiency>
0

>  <Assay Index>
756538

>  <Assay Category>


>  <Assay Organism>
Homo sapiens

>  <Target ID>
17045

>  <Target Name>
Cytochrome P450 3A4

>  <Target Organism>
Homo sapiens

>  <Target Description>
Target is a single protein chain

>  <Sequence Accession>
P08684

>  <Reference>
J Med Chem 56 (6), 2695-2699 (2013)

>  <Pubmed ID>
23445448

>  <DOI>
10.1021/jm301782e

$$$$
1528169
Actelion Java MolfileCreator 1.0

 29 31  0  0  0  0  0  0  0  0999 V2000
    0.0000   -0.0000   -0.0000 Cl  0  0  0  0  0  0  0  0  0  0  0  0
    1.2782    0.7811   -0.0000 C   0  0  0  0  0  0  0  0  0  0  0  0
    2.5682    0.0592   -0.0000 C   0  0  0  0  0  0  0  0  0  0  0  0
    1.2427    2.2960   -0.0000 C   0  0  0  0  0  0  0  0  0  0  0  0
    2.5800   -1.4320   -0.0000 O   0  0  0  0  0  0  0  0  0  0  0  0
    3.8345    0.8403   -0.0000 C   0  0  0  0  0  0  0  0  0  0  0  0
    2.5090    3.0771   -0.0000 C   0  0  0  0  0  0  0  0  0  0  0  0
    1.2900   -2.1895   -0.0000 C   0  0  0  0  0  0  0  0  0  0  0  0
    5.1364    0.1183   -0.0000 Cl  0  0  0  0  0  0  0  0  0  0  0  0
    3.7990    2.3551   -0.0000 C   0  0  0  0  0  0  0  0  0  0  0  0
    2.4735    4.5919   -0.0000 N   0  0  0  0  0  0  0  0  0  0  0  0
   -0.0237   -1.4439   -0.0000 C   0  0  0  0  0  0  0  0  0  0  0  0
    1.3018   -3.6807   -0.0000 C   0  0  0  0  0  0  0  0  0  0  0  0
    1.1598    5.3376   -0.0000 S   0  0  0  0  0  0  0  0  0  0  0  0
   -1.3255   -2.2013   -0.0000 N   0  0  0  0  0  0  0  0  0  0  0  0
    0.0000   -4.4381   -0.0000 C   0  0  0  0  0  0  0  0  0  0  0  0
    0.3906    6.6512   -0.0000 O   0  0  0  0  0  0  0  0  0  0  0  0
    1.8818    6.6512   -0.0000 O   0  0  0  0  0  0  0  0  0  0  0  0
   -0.1420    4.6038   -0.0000 C   0  0  0  0  0  0  0  0  0  0  0  0
   -1.3137   -3.6925   -0.0000 C   0  0  0  0  0  0  0  0  0  0  0  0
    0.0118   -5.9293   -0.0000 C   0  0  0  0  0  0  0  0  0  0  0  0
   -1.4557    5.3612   -0.0000 C   0  0  0  0  0  0  0  0  0  0  0  0
   -0.1539    3.1126   -0.0000 C   0  0  0  0  0  0  0  0  0  0  0  0
    0.0237   -7.4087   -0.0000 N   0  0  0  0  0  0  0  0  0  0  0  0
   -1.4794    6.8761   -0.0000 Cl  0  0  0  0  0  0  0  0  0  0  0  0
   -2.7694    4.6156   -0.0000 C   0  0  0  0  0  0  0  0  0  0  0  0
   -1.4557    2.3670   -0.0000 C   0  0  0  0  0  0  0  0  0  0  0  0
   -2.7694    3.1363   -0.0000 C   0  0  0  0  0  0  0  0  0  0  0  0
   -4.0712    2.3907   -0.0000 Cl  0  0  0  0  0  0  0  0  0  0  0  0
  1  2  1  0  0  0  0
  2  3  2  0  0  0  0
  2  4  1  0  0  0  0
  3  5  1  0  0  0  0
  3  6  1  0  0  0  0
  4  7  2  0  0  0  0
  5  8  1  0  0  0  0
  6  9  1  0  0  0  0
  6 10  2  0  0  0  0
  7 11  1  0  0  0  0
  8 12  2  0  0  0  0
  8 13  1  0  0  0  0
 11 14  1  0  0  0  0
 12 15  1  0  0  0  0
 13 16  2  0  0  0  0
 14 17  2  0  0  0  0
 14 18  2  0  0  0  0
 14 19  1  0  0  0  0
 15 20  2  0  0  0  0
 16 21  1  0  0  0  0
 19 22  2  0  0  0  0
 19 23  1  0  0  0  0
 21 24  3  0  0  0  0
 22 25  1  0  0  0  0
 22 26  1  0  0  0  0
 23 27  2  0  0  0  0
 26 28  2  0  0  0  0
 28 29  1  0  0  0  0
  7 10  1  0  0  0  0
 16 20  1  0  0  0  0
 27 28  1  0  0  0  0
M  END
>  <MolRegNo>
1528169

>  <m>
=

>  <Value>
10

>  <Unit>
nM

>  <Type>
IC50

>  <pValue>
8

>  <Ligand Efficiency>
0

>  <Binding Efficiency>
0

>  <Surface Efficiency>
0

>  <Assay Index>
760134

>  <Assay Category>


>  <Assay Organism>
Homo sapiens

>  <Target ID>
17045

>  <Target Name>
Cytochrome P450 3A4

>  <Target Organism>
Homo sapiens

>  <Target Description>
Target is a single protein chain

>  <Sequence Accession>
P08684

>  <Reference>
Bioorg Med Chem 21 (4), 979-992 (2013)

>  <Pubmed ID>
23294830

>  <DOI>
10.1016/j.bmc.2012.11.058

$$$$
1528170
Actelion Java MolfileCreator 1.0

 28 30  0  0  0  0  0  0  0  0999 V2000
    0.0000   -0.0000   -0.0000 Cl  0  0  0  0  0  0  0  0  0  0  0  0
    1.2767    0.7802   -0.0000 C   0  0  0  0  0  0  0  0  0  0  0  0
    2.5653    0.0591   -0.0000 C   0  0  0  0  0  0  0  0  0  0  0  0
    1.2413    2.2934   -0.0000 C   0  0  0  0  0  0  0  0  0  0  0  0
    2.5771   -1.4304   -0.0000 O   0  0  0  0  0  0  0  0  0  0  0  0
    3.8420    0.8393   -0.0000 C   0  0  0  0  0  0  0  0  0  0  0  0
    2.5180    3.0736   -0.0000 C   0  0  0  0  0  0  0  0  0  0  0  0
    1.2767   -2.1870   -0.0000 C   0  0  0  0  0  0  0  0  0  0  0  0
    5.1424    0.1182   -0.0000 Cl  0  0  0  0  0  0  0  0  0  0  0  0
    3.8065    2.3525   -0.0000 C   0  0  0  0  0  0  0  0  0  0  0  0
    2.4825    4.5868   -0.0000 N   0  0  0  0  0  0  0  0  0  0  0  0
   -0.0355   -1.4422   -0.0000 C   0  0  0  0  0  0  0  0  0  0  0  0
    1.2885   -3.6765   -0.0000 C   0  0  0  0  0  0  0  0  0  0  0  0
    1.1703    5.3315   -0.0000 S   0  0  0  0  0  0  0  0  0  0  0  0
   -1.3358   -2.1988   -0.0000 N   0  0  0  0  0  0  0  0  0  0  0  0
   -0.0118   -4.4331   -0.0000 C   0  0  0  0  0  0  0  0  0  0  0  0
    0.4019    6.6437   -0.0000 O   0  0  0  0  0  0  0  0  0  0  0  0
    1.8914    6.6437   -0.0000 O   0  0  0  0  0  0  0  0  0  0  0  0
   -0.1300    4.5986   -0.0000 C   0  0  0  0  0  0  0  0  0  0  0  0
   -1.3240   -3.6883   -0.0000 C   0  0  0  0  0  0  0  0  0  0  0  0
    0.0000   -5.9226   -0.0000 C   0  0  0  0  0  0  0  0  0  0  0  0
   -1.4422    5.3552   -0.0000 C   0  0  0  0  0  0  0  0  0  0  0  0
   -0.1419    3.1091   -0.0000 C   0  0  0  0  0  0  0  0  0  0  0  0
   -1.4659    6.8683   -0.0000 Cl  0  0  0  0  0  0  0  0  0  0  0  0
   -2.7544    4.6104   -0.0000 C   0  0  0  0  0  0  0  0  0  0  0  0
   -1.4422    2.3643   -0.0000 C   0  0  0  0  0  0  0  0  0  0  0  0
   -2.7544    3.1327   -0.0000 C   0  0  0  0  0  0  0  0  0  0  0  0
   -4.0548    2.3879   -0.0000 Cl  0  0  0  0  0  0  0  0  0  0  0  0
  1  2  1  0  0  0  0
  2  3  2  0  0  0  0
  2  4  1  0  0  0  0
  3  5  1  0  0  0  0
  3  6  1  0  0  0  0
  4  7  2  0  0  0  0
  5  8  1  0  0  0  0
  6  9  1  0  0  0  0
  6 10  2  0  0  0  0
  7 11  1  0  0  0  0
  8 12  2  0  0  0  0
  8 13  1  0  0  0  0
 11 14  1  0  0  0  0
 12 15  1  0  0  0  0
 13 16  2  0  0  0  0
 14 17  2  0  0  0  0
 14 18  2  0  0  0  0
 14 19  1  0  0  0  0
 15 20  2  0  0  0  0
 16 21  1  0  0  0  0
 19 22  2  0  0  0  0
 19 23  1  0  0  0  0
 22 24  1  0  0  0  0
 22 25  1  0  0  0  0
 23 26  2  0  0  0  0
 25 27  2  0  0  0  0
 27 28  1  0  0  0  0
  7 10  1  0  0  0  0
 16 20  1  0  0  0  0
 26 27  1  0  0  0  0
M  END
>  <MolRegNo>
1528170

>  <m>
=

>  <Value>
1

>  <Unit>
nM

>  <Type>
IC50

>  <pValue>
9

>  <Ligand Efficiency>
0

>  <Binding Efficiency>
0

>  <Surface Efficiency>
0

>  <Assay Index>
760134

>  <Assay Category>


>  <Assay Organism>
Homo sapiens

>  <Target ID>
17045

>  <Target Name>
Cytochrome P450 3A4

>  <Target Organism>
Homo sapiens

>  <Target Description>
Target is a single protein chain

>  <Sequence Accession>
P08684

>  <Reference>
Bioorg Med Chem 21 (4), 979-992 (2013)

>  <Pubmed ID>
23294830

>  <DOI>
10.1016/j.bmc.2012.11.058

$$$$
1524413
Actelion Java MolfileCreator 1.0

 33 37  0  0  0  0  0  0  0  0999 V2000
    0.0000   -0.0000   -0.0000 O   0  0  0  0  0  0  0  0  0  0  0  0
    0.0000   -1.4771   -0.0000 C   0  0  0  0  0  0  0  0  0  0  0  0
   -1.2999   -2.2216   -0.0000 N   0  0  0  0  0  0  0  0  0  0  0  0
    1.2881   -2.2098   -0.0000 N   0  0  0  0  0  0  0  0  0  0  0  0
   -2.6116   -1.4653   -0.0000 C   0  0  0  0  0  0  0  0  0  0  0  0
    2.5643   -1.4417   -0.0000 C   0  0  0  0  0  0  0  0  0  0  0  0
   -3.9114   -2.2098   -0.0000 C   0  0  0  0  0  0  0  0  0  0  0  0
   -2.6352    0.0473   -0.0000 C   0  0  0  0  0  0  0  0  0  0  0  0
    3.8523   -2.1743   -0.0000 C   0  0  0  0  0  0  0  0  0  0  0  0
   -5.2231   -1.4535   -0.0000 C   0  0  0  0  0  0  0  0  0  0  0  0
   -3.9351    0.7917   -0.0000 C   0  0  0  0  0  0  0  0  0  0  0  0
   -5.2349    0.0591   -0.0000 C   0  0  0  0  0  0  0  0  0  0  0  0
   -6.5348    0.8154   -0.0000 C   0  0  0  0  0  0  0  0  0  0  0  0
   -6.5466    2.3161   -0.0000 N   0  0  0  0  0  0  0  0  0  0  0  0
   -7.8465    0.0709   -0.0000 N   0  0  0  0  0  0  0  0  0  0  0  0
   -7.8465    3.0724   -0.0000 C   0  0  0  0  0  0  0  0  0  0  0  0
   -9.1463    0.8272   -0.0000 C   0  0  0  0  0  0  0  0  0  0  0  0
   -7.8583    4.5732   -0.0000 N   0  0  0  0  0  0  0  0  0  0  0  0
   -9.1463    2.3398   -0.0000 C   0  0  0  0  0  0  0  0  0  0  0  0
  -10.4462    0.0827   -0.0000 C   0  0  0  0  0  0  0  0  0  0  0  0
   -6.5821    5.3295   -0.0000 C   0  0  0  0  0  0  0  0  0  0  0  0
   -9.1582    5.3295   -0.0000 C   0  0  0  0  0  0  0  0  0  0  0  0
  -10.4462    3.0960   -0.0000 C   0  0  0  0  0  0  0  0  0  0  0  0
  -11.7461    0.8508   -0.0000 C   0  0  0  0  0  0  0  0  0  0  0  0
   -6.5939    6.8302   -0.0000 C   0  0  0  0  0  0  0  0  0  0  0  0
   -5.3058    4.5968   -0.0000 C   0  0  0  0  0  0  0  0  0  0  0  0
   -9.1700    6.8302   -0.0000 C   0  0  0  0  0  0  0  0  0  0  0  0
  -11.7461    2.3634   -0.0000 N   0  0  0  0  0  0  0  0  0  0  0  0
   -7.8937    7.5983   -0.0000 O   0  0  0  0  0  0  0  0  0  0  0  0
  -13.0578    3.1197   -0.0000 C   0  0  0  0  0  0  0  0  0  0  0  0
  -13.4477    4.5732   -0.0000 C   0  0  0  0  0  0  0  0  0  0  0  0
  -14.5112    2.7415   -0.0000 C   0  0  0  0  0  0  0  0  0  0  0  0
  -14.9012    4.1950   -0.0000 O   0  0  0  0  0  0  0  0  0  0  0  0
  1  2  2  0  0  0  0
  2  3  1  0  0  0  0
  2  4  1  0  0  0  0
  3  5  1  0  0  0  0
  4  6  1  0  0  0  0
  5  7  2  0  0  0  0
  5  8  1  0  0  0  0
  6  9  1  0  0  0  0
  7 10  1  0  0  0  0
  8 11  2  0  0  0  0
 10 12  2  0  0  0  0
 12 13  1  0  0  0  0
 13 14  2  0  0  0  0
 13 15  1  0  0  0  0
 14 16  1  0  0  0  0
 15 17  2  0  0  0  0
 16 18  1  0  0  0  0
 16 19  2  0  0  0  0
 17 20  1  0  0  0  0
 18 21  1  0  0  0  0
 18 22  1  0  0  0  0
 19 23  1  0  0  0  0
 20 24  1  0  0  0  0
 21 25  1  0  0  0  0
 21 26  1  6  0  0  0
 22 27  1  0  0  0  0
 23 28  1  0  0  0  0
 25 29  1  0  0  0  0
 28 30  1  0  0  0  0
 30 31  1  0  0  0  0
 30 32  1  0  0  0  0
 31 33  1  0  0  0  0
 11 12  1  0  0  0  0
 17 19  1  0  0  0  0
 24 28  1  0  0  0  0
 27 29  1  0  0  0  0
 32 33  1  0  0  0  0
M  END
>  <MolRegNo>
1524413

>  <m>
=

>  <Value>
2500

>  <Unit>
nM

>  <Type>
IC50

>  <pValue>
5.6

>  <Ligand Efficiency>
0

>  <Binding Efficiency>
0

>  <Surface Efficiency>
0

>  <Assay Index>
757926

>  <Assay Category>


>  <Assay Organism>
Homo sapiens

>  <Target ID>
17045

>  <Target Name>
Cytochrome P450 3A4

>  <Target Organism>
Homo sapiens

>  <Target Description>
Target is a single protein chain

>  <Sequence Accession>
P08684

>  <Reference>
J Med Chem 56 (7), 3090-3101 (2013)

>  <Pubmed ID>
23473235

>  <DOI>
10.1021/jm400194n

$$$$
1524417
Actelion Java MolfileCreator 1.0

 35 39  0  0  0  0  0  0  0  0999 V2000
    0.0000   -0.0000   -0.0000 S   0  0  0  0  0  0  0  0  0  0  0  0
    0.3709   -1.4237   -0.0000 O   0  0  0  0  0  0  0  0  0  0  0  0
   -0.7657   -1.2682   -0.0000 O   0  0  0  0  0  0  0  0  0  0  0  0
    1.2802    0.7537   -0.0000 N   0  0  0  0  0  0  0  0  0  0  0  0
   -1.3041    0.7657   -0.0000 C   0  0  0  0  0  0  0  0  0  0  0  0
    2.5723   -0.0000   -0.0000 C   0  0  0  0  0  0  0  0  0  0  0  0
    1.2682    2.2852   -0.0000 C   0  0  0  0  0  0  0  0  0  0  0  0
    3.8644    0.7777   -0.0000 C   0  0  0  0  0  0  0  0  0  0  0  0
    3.4696    1.0170   -0.0000 C   0  0  0  0  0  0  0  0  0  0  0  0
    2.5603    3.0389   -0.0000 C   0  0  0  0  0  0  0  0  0  0  0  0
    2.7398    2.2971   -0.0000 C   0  0  0  0  0  0  0  0  0  0  0  0
    5.1566    0.0239   -0.0000 N   0  0  0  0  0  0  0  0  0  0  0  0
    3.8525    2.3091   -0.0000 C   0  0  0  0  0  0  0  0  0  0  0  0
    6.4606    0.8136   -0.0000 C   0  0  0  0  0  0  0  0  0  0  0  0
    5.1566    3.0628   -0.0000 C   0  0  0  0  0  0  0  0  0  0  0  0
    6.4487    2.3330   -0.0000 N   0  0  0  0  0  0  0  0  0  0  0  0
    7.7528    0.0718   -0.0000 C   0  0  0  0  0  0  0  0  0  0  0  0
    5.1446    4.5942   -0.0000 N   0  0  0  0  0  0  0  0  0  0  0  0
    7.7408   -1.4357   -0.0000 C   0  0  0  0  0  0  0  0  0  0  0  0
    9.0449    0.8495   -0.0000 C   0  0  0  0  0  0  0  0  0  0  0  0
    6.4487    5.3599   -0.0000 C   0  0  0  0  0  0  0  0  0  0  0  0
    3.8285    5.3599   -0.0000 C   0  0  0  0  0  0  0  0  0  0  0  0
    9.0449   -2.1655   -0.0000 C   0  0  0  0  0  0  0  0  0  0  0  0
   10.3370    0.1077   -0.0000 C   0  0  0  0  0  0  0  0  0  0  0  0
    6.4367    6.8794   -0.0000 C   0  0  0  0  0  0  0  0  0  0  0  0
    7.7408    4.6182   -0.0000 C   0  0  0  0  0  0  0  0  0  0  0  0
    3.8166    6.8794   -0.0000 C   0  0  0  0  0  0  0  0  0  0  0  0
   10.3370   -1.3998   -0.0000 C   0  0  0  0  0  0  0  0  0  0  0  0
    5.1087    7.6690   -0.0000 O   0  0  0  0  0  0  0  0  0  0  0  0
   11.6411   -2.1296   -0.0000 N   0  0  0  0  0  0  0  0  0  0  0  0
   12.9452   -1.3639   -0.0000 C   0  0  0  0  0  0  0  0  0  0  0  0
   12.9213    0.1555   -0.0000 O   0  0  0  0  0  0  0  0  0  0  0  0
   14.2493   -2.0937   -0.0000 N   0  0  0  0  0  0  0  0  0  0  0  0
   15.5414   -1.3280   -0.0000 C   0  0  0  0  0  0  0  0  0  0  0  0
   16.8455   -2.0578   -0.0000 C   0  0  0  0  0  0  0  0  0  0  0  0
  1  2  2  0  0  0  0
  1  3  2  0  0  0  0
  1  4  1  0  0  0  0
  1  5  1  0  0  0  0
  6  4  1  6  0  0  0
  7  4  1  6  0  0  0
  6  8  1  0  0  0  0
  6  9  1  0  0  0  0
  7 10  1  0  0  0  0
  7 11  1  0  0  0  0
  8 12  2  0  0  0  0
  8 13  1  0  0  0  0
 12 14  1  0  0  0  0
 13 15  2  0  0  0  0
 14 16  2  0  0  0  0
 14 17  1  0  0  0  0
 15 18  1  0  0  0  0
 17 19  2  0  0  0  0
 17 20  1  0  0  0  0
 18 21  1  0  0  0  0
 18 22  1  0  0  0  0
 19 23  1  0  0  0  0
 20 24  2  0  0  0  0
 21 25  1  0  0  0  0
 21 26  1  6  0  0  0
 22 27  1  0  0  0  0
 23 28  2  0  0  0  0
 25 29  1  0  0  0  0
 28 30  1  0  0  0  0
 30 31  1  0  0  0  0
 31 32  2  0  0  0  0
 31 33  1  0  0  0  0
 33 34  1  0  0  0  0
 34 35  1  0  0  0  0
  9 11  1  0  0  0  0
 10 13  1  0  0  0  0
 15 16  1  0  0  0  0
 24 28  1  0  0  0  0
 27 29  1  0  0  0  0
M  END
>  <MolRegNo>
1524417

>  <m>
=

>  <Value>
5000

>  <Unit>
nM

>  <Type>
IC50

>  <pValue>
5.3

>  <Ligand Efficiency>
0

>  <Binding Efficiency>
0

>  <Surface Efficiency>
0

>  <Assay Index>
757926

>  <Assay Category>


>  <Assay Organism>
Homo sapiens

>  <Target ID>
17045

>  <Target Name>
Cytochrome P450 3A4

>  <Target Organism>
Homo sapiens

>  <Target Description>
Target is a single protein chain

>  <Sequence Accession>
P08684

>  <Reference>
J Med Chem 56 (7), 3090-3101 (2013)

>  <Pubmed ID>
23473235

>  <DOI>
10.1021/jm400194n

$$$$
1524411
Actelion Java MolfileCreator 1.0

 35 39  0  0  0  0  0  0  0  0999 V2000
    0.0000   -0.0000   -0.0000 S   0  0  0  0  0  0  0  0  0  0  0  0
   -1.5192    0.0241   -0.0000 O   0  0  0  0  0  0  0  0  0  0  0  0
   -0.4099   -1.4348   -0.0000 O   0  0  0  0  0  0  0  0  0  0  0  0
    1.3142   -0.7596   -0.0000 N   0  0  0  0  0  0  0  0  0  0  0  0
   -0.0121    1.5071   -0.0000 C   0  0  0  0  0  0  0  0  0  0  0  0
    2.6284    0.0121   -0.0000 C   0  0  0  0  0  0  0  0  0  0  0  0
    1.3022   -2.2788   -0.0000 C   0  0  0  0  0  0  0  0  0  0  0  0
    3.9426   -0.7355   -0.0000 C   0  0  0  0  0  0  0  0  0  0  0  0
    3.0504   -0.8199   -0.0000 C   0  0  0  0  0  0  0  0  0  0  0  0
    2.6164   -3.0384   -0.0000 C   0  0  0  0  0  0  0  0  0  0  0  0
    2.6405   -2.2185   -0.0000 C   0  0  0  0  0  0  0  0  0  0  0  0
    5.2569    0.0362   -0.0000 C   0  0  0  0  0  0  0  0  0  0  0  0
    3.9306   -2.2547   -0.0000 C   0  0  0  0  0  0  0  0  0  0  0  0
    6.5711   -0.7114   -0.0000 N   0  0  0  0  0  0  0  0  0  0  0  0
    5.2448    1.5795   -0.0000 N   0  0  0  0  0  0  0  0  0  0  0  0
    5.2448   -3.0143   -0.0000 N   0  0  0  0  0  0  0  0  0  0  0  0
    6.5590   -2.2305   -0.0000 C   0  0  0  0  0  0  0  0  0  0  0  0
    6.5590    2.3511   -0.0000 C   0  0  0  0  0  0  0  0  0  0  0  0
    3.9185    2.3511   -0.0000 C   0  0  0  0  0  0  0  0  0  0  0  0
    7.8612   -2.9781   -0.0000 C   0  0  0  0  0  0  0  0  0  0  0  0
    6.5470    3.8944   -0.0000 C   0  0  0  0  0  0  0  0  0  0  0  0
    7.8612    1.5915   -0.0000 C   0  0  0  0  0  0  0  0  0  0  0  0
    3.9065    3.8944   -0.0000 C   0  0  0  0  0  0  0  0  0  0  0  0
    7.8491   -4.4973   -0.0000 C   0  0  0  0  0  0  0  0  0  0  0  0
    9.1633   -2.1944   -0.0000 C   0  0  0  0  0  0  0  0  0  0  0  0
    5.2086    4.6902   -0.0000 O   0  0  0  0  0  0  0  0  0  0  0  0
    9.1633   -5.2448   -0.0000 C   0  0  0  0  0  0  0  0  0  0  0  0
   10.4775   -2.9299   -0.0000 C   0  0  0  0  0  0  0  0  0  0  0  0
   10.4655   -4.4611   -0.0000 C   0  0  0  0  0  0  0  0  0  0  0  0
   11.7797   -5.2086   -0.0000 N   0  0  0  0  0  0  0  0  0  0  0  0
   13.0819   -4.4249   -0.0000 C   0  0  0  0  0  0  0  0  0  0  0  0
   13.0577   -2.8816   -0.0000 O   0  0  0  0  0  0  0  0  0  0  0  0
   14.3961   -5.1725   -0.0000 N   0  0  0  0  0  0  0  0  0  0  0  0
   15.6982   -4.3888   -0.0000 C   0  0  0  0  0  0  0  0  0  0  0  0
   17.0124   -5.1363   -0.0000 C   0  0  0  0  0  0  0  0  0  0  0  0
  1  2  2  0  0  0  0
  1  3  2  0  0  0  0
  1  4  1  0  0  0  0
  1  5  1  0  0  0  0
  6  4  1  1  0  0  0
  7  4  1  1  0  0  0
  6  8  1  0  0  0  0
  6  9  1  0  0  0  0
  7 10  1  0  0  0  0
  7 11  1  0  0  0  0
  8 12  2  0  0  0  0
  8 13  1  0  0  0  0
 12 14  1  0  0  0  0
 12 15  1  0  0  0  0
 13 16  2  0  0  0  0
 14 17  2  0  0  0  0
 15 18  1  0  0  0  0
 15 19  1  0  0  0  0
 17 20  1  0  0  0  0
 18 21  1  0  0  0  0
 18 22  1  6  0  0  0
 19 23  1  0  0  0  0
 20 24  2  0  0  0  0
 20 25  1  0  0  0  0
 21 26  1  0  0  0  0
 24 27  1  0  0  0  0
 25 28  2  0  0  0  0
 27 29  2  0  0  0  0
 29 30  1  0  0  0  0
 30 31  1  0  0  0  0
 31 32  2  0  0  0  0
 31 33  1  0  0  0  0
 33 34  1  0  0  0  0
 34 35  1  0  0  0  0
  9 11  1  0  0  0  0
 10 13  1  0  0  0  0
 16 17  1  0  0  0  0
 23 26  1  0  0  0  0
 28 29  1  0  0  0  0
M  END
>  <MolRegNo>
1524411

>  <m>
=

>  <Value>
5000

>  <Unit>
nM

>  <Type>
IC50

>  <pValue>
5.3

>  <Ligand Efficiency>
0

>  <Binding Efficiency>
0

>  <Surface Efficiency>
0

>  <Assay Index>
757926

>  <Assay Category>


>  <Assay Organism>
Homo sapiens

>  <Target ID>
17045

>  <Target Name>
Cytochrome P450 3A4

>  <Target Organism>
Homo sapiens

>  <Target Description>
Target is a single protein chain

>  <Sequence Accession>
P08684

>  <Reference>
J Med Chem 56 (7), 3090-3101 (2013)

>  <Pubmed ID>
23473235

>  <DOI>
10.1021/jm400194n

$$$$
1524412
Actelion Java MolfileCreator 1.0

 34 38  0  0  0  0  0  0  0  0999 V2000
    0.0000   -0.0000   -0.0000 O   0  0  0  0  0  0  0  0  0  0  0  0
    0.0000   -1.5022   -0.0000 C   0  0  0  0  0  0  0  0  0  0  0  0
   -1.3219   -2.2593   -0.0000 N   0  0  0  0  0  0  0  0  0  0  0  0
    1.3099   -2.2473   -0.0000 N   0  0  0  0  0  0  0  0  0  0  0  0
   -2.6559   -1.4902   -0.0000 C   0  0  0  0  0  0  0  0  0  0  0  0
    2.6078   -1.4661   -0.0000 C   0  0  0  0  0  0  0  0  0  0  0  0
   -3.9778   -2.2473   -0.0000 C   0  0  0  0  0  0  0  0  0  0  0  0
   -2.6799    0.0481   -0.0000 C   0  0  0  0  0  0  0  0  0  0  0  0
    3.9177   -2.2112   -0.0000 C   0  0  0  0  0  0  0  0  0  0  0  0
   -5.3118   -1.4782   -0.0000 C   0  0  0  0  0  0  0  0  0  0  0  0
   -4.0019    0.8052   -0.0000 C   0  0  0  0  0  0  0  0  0  0  0  0
   -5.3238    0.0601   -0.0000 C   0  0  0  0  0  0  0  0  0  0  0  0
   -6.6457    0.8292   -0.0000 C   0  0  0  0  0  0  0  0  0  0  0  0
   -6.6577    2.3554   -0.0000 N   0  0  0  0  0  0  0  0  0  0  0  0
   -7.9797    0.0721   -0.0000 N   0  0  0  0  0  0  0  0  0  0  0  0
   -7.9797    3.1246   -0.0000 C   0  0  0  0  0  0  0  0  0  0  0  0
   -9.3016    0.8412   -0.0000 C   0  0  0  0  0  0  0  0  0  0  0  0
   -7.9917    4.6508   -0.0000 N   0  0  0  0  0  0  0  0  0  0  0  0
   -9.3016    2.3795   -0.0000 C   0  0  0  0  0  0  0  0  0  0  0  0
  -10.6235    0.0841   -0.0000 C   0  0  0  0  0  0  0  0  0  0  0  0
   -6.6938    5.4199   -0.0000 C   0  0  0  0  0  0  0  0  0  0  0  0
   -9.3136    5.4199   -0.0000 C   0  0  0  0  0  0  0  0  0  0  0  0
  -10.6235    3.1486   -0.0000 C   0  0  0  0  0  0  0  0  0  0  0  0
  -11.9455    0.8653   -0.0000 C   0  0  0  0  0  0  0  0  0  0  0  0
   -6.7058    6.9462   -0.0000 C   0  0  0  0  0  0  0  0  0  0  0  0
   -5.3959    4.6748   -0.0000 C   0  0  0  0  0  0  0  0  0  0  0  0
   -9.3256    6.9462   -0.0000 C   0  0  0  0  0  0  0  0  0  0  0  0
  -11.9455    2.4035   -0.0000 N   0  0  0  0  0  0  0  0  0  0  0  0
  -10.2029    2.3194   -0.0000 C   0  0  0  0  0  0  0  0  0  0  0  0
  -10.6115    0.9254   -0.0000 C   0  0  0  0  0  0  0  0  0  0  0  0
   -8.0277    7.7273   -0.0000 O   0  0  0  0  0  0  0  0  0  0  0  0
  -13.2434    3.1606   -0.0000 C   0  0  0  0  0  0  0  0  0  0  0  0
  -13.2554    4.6628   -0.0000 O   0  0  0  0  0  0  0  0  0  0  0  0
  -14.5413    2.4276   -0.0000 C   0  0  0  0  0  0  0  0  0  0  0  0
  1  2  2  0  0  0  0
  2  3  1  0  0  0  0
  2  4  1  0  0  0  0
  3  5  1  0  0  0  0
  4  6  1  0  0  0  0
  5  7  2  0  0  0  0
  5  8  1  0  0  0  0
  6  9  1  0  0  0  0
  7 10  1  0  0  0  0
  8 11  2  0  0  0  0
 10 12  2  0  0  0  0
 12 13  1  0  0  0  0
 13 14  2  0  0  0  0
 13 15  1  0  0  0  0
 14 16  1  0  0  0  0
 15 17  2  0  0  0  0
 16 18  1  0  0  0  0
 16 19  2  0  0  0  0
 17 20  1  0  0  0  0
 18 21  1  0  0  0  0
 18 22  1  0  0  0  0
 19 23  1  0  0  0  0
 20 24  1  0  0  0  0
 21 25  1  0  0  0  0
 21 26  1  6  0  0  0
 22 27  1  0  0  0  0
 23 28  1  1  0  0  0
 23 29  1  0  0  0  0
 24 30  1  0  0  0  0
 25 31  1  0  0  0  0
 28 32  1  0  0  0  0
 32 33  2  0  0  0  0
 32 34  1  0  0  0  0
 11 12  1  0  0  0  0
 17 19  1  0  0  0  0
 24 28  1  1  0  0  0
 27 31  1  0  0  0  0
 29 30  1  0  0  0  0
M  END
>  <MolRegNo>
1524412

>  <m>
=

>  <Value>
7300

>  <Unit>
nM

>  <Type>
IC50

>  <pValue>
5.14

>  <Ligand Efficiency>
0

>  <Binding Efficiency>
0

>  <Surface Efficiency>
0

>  <Assay Index>
757926

>  <Assay Category>


>  <Assay Organism>
Homo sapiens

>  <Target ID>
17045

>  <Target Name>
Cytochrome P450 3A4

>  <Target Organism>
Homo sapiens

>  <Target Description>
Target is a single protein chain

>  <Sequence Accession>
P08684

>  <Reference>
J Med Chem 56 (7), 3090-3101 (2013)

>  <Pubmed ID>
23473235

>  <DOI>
10.1021/jm400194n

$$$$
1526081
Actelion Java MolfileCreator 1.0

 47 53  0  0  0  0  0  0  0  0999 V2000
    0.0000   -0.0000   -0.0000 Br  0  0  0  0  0  0  0  0  0  0  0  0
    1.4372    0.4039   -0.0000 C   0  0  0  0  0  0  0  0  0  0  0  0
    1.8173    1.8648   -0.0000 C   0  0  0  0  0  0  0  0  0  0  0  0
    2.4825   -0.6414   -0.0000 C   0  0  0  0  0  0  0  0  0  0  0  0
    3.2427    2.2687   -0.0000 C   0  0  0  0  0  0  0  0  0  0  0  0
    0.7483    2.9339   -0.0000 C   0  0  0  0  0  0  0  0  0  0  0  0
    3.9197   -0.2494   -0.0000 C   0  0  0  0  0  0  0  0  0  0  0  0
    4.2998    1.2353   -0.0000 C   0  0  0  0  0  0  0  0  0  0  0  0
    0.7364    4.4424   -0.0000 C   0  0  0  0  0  0  0  0  0  0  0  0
    5.1788   -1.0453   -0.0000 N   0  0  0  0  0  0  0  0  0  0  0  0
    5.7965    1.3422   -0.0000 O   0  0  0  0  0  0  0  0  0  0  0  0
    2.0193    5.2026   -0.0000 N   0  0  0  0  0  0  0  0  0  0  0  0
   -0.5820    5.2026   -0.0000 C   0  0  0  0  0  0  0  0  0  0  0  0
    6.3310   -0.0713   -0.0000 C   0  0  0  0  0  0  0  0  0  0  0  0
    3.3140    4.4661   -0.0000 C   0  0  0  0  0  0  0  0  0  0  0  0
   -0.5939    6.7111   -0.0000 O   0  0  0  0  0  0  0  0  0  0  0  0
   -1.8886    4.4661   -0.0000 N   0  0  0  0  0  0  0  0  0  0  0  0
    7.7682   -0.4395   -0.0000 O   0  0  0  0  0  0  0  0  0  0  0  0
    3.3021    2.9814   -0.0000 O   0  0  0  0  0  0  0  0  0  0  0  0
    4.5968    5.2263   -0.0000 N   0  0  0  0  0  0  0  0  0  0  0  0
   -3.2071    5.2382   -0.0000 C   0  0  0  0  0  0  0  0  0  0  0  0
   -1.9005    2.9814   -0.0000 C   0  0  0  0  0  0  0  0  0  0  0  0
    5.8796    4.4899   -0.0000 C   0  0  0  0  0  0  0  0  0  0  0  0
    4.5849    6.7348   -0.0000 C   0  0  0  0  0  0  0  0  0  0  0  0
   -4.5136    4.5018   -0.0000 C   0  0  0  0  0  0  0  0  0  0  0  0
   -3.2189    2.2449   -0.0000 C   0  0  0  0  0  0  0  0  0  0  0  0
    7.1624    5.2501   -0.0000 C   0  0  0  0  0  0  0  0  0  0  0  0
    5.8677    7.5069   -0.0000 C   0  0  0  0  0  0  0  0  0  0  0  0
   -4.5255    3.0051   -0.0000 C   0  0  0  0  0  0  0  0  0  0  0  0
    7.1506    6.7586   -0.0000 C   0  0  0  0  0  0  0  0  0  0  0  0
   -5.8440    2.2687   -0.0000 N   0  0  0  0  0  0  0  0  0  0  0  0
    8.4453    7.5188   -0.0000 N   0  0  0  0  0  0  0  0  0  0  0  0
   -7.1506    3.0408   -0.0000 C   0  0  0  0  0  0  0  0  0  0  0  0
   -5.8559    0.7839   -0.0000 C   0  0  0  0  0  0  0  0  0  0  0  0
    8.4334    9.0273   -0.0000 C   0  0  0  0  0  0  0  0  0  0  0  0
    9.7281    6.7705   -0.0000 C   0  0  0  0  0  0  0  0  0  0  0  0
   -8.4453    2.3162   -0.0000 C   0  0  0  0  0  0  0  0  0  0  0  0
   -7.1743    0.0475   -0.0000 C   0  0  0  0  0  0  0  0  0  0  0  0
    7.1268    9.7993   -0.0000 O   0  0  0  0  0  0  0  0  0  0  0  0
    9.7281    9.7875   -0.0000 N   0  0  0  0  0  0  0  0  0  0  0  0
   11.0109    7.5188   -0.0000 C   0  0  0  0  0  0  0  0  0  0  0  0
   -8.4809    0.8196   -0.0000 C   0  0  0  0  0  0  0  0  0  0  0  0
   11.0109    9.0392   -0.0000 C   0  0  0  0  0  0  0  0  0  0  0  0
   12.2937    6.7586   -0.0000 C   0  0  0  0  0  0  0  0  0  0  0  0
   12.3056    9.7875   -0.0000 C   0  0  0  0  0  0  0  0  0  0  0  0
   13.6003    7.5069   -0.0000 C   0  0  0  0  0  0  0  0  0  0  0  0
   13.5884    9.0392   -0.0000 C   0  0  0  0  0  0  0  0  0  0  0  0
  1  2  1  0  0  0  0
  2  3  2  0  0  0  0
  2  4  1  0  0  0  0
  3  5  1  0  0  0  0
  3  6  1  0  0  0  0
  4  7  2  0  0  0  0
  5  8  2  0  0  0  0
  6  9  1  0  0  0  0
  7 10  1  0  0  0  0
  8 11  1  0  0  0  0
  9 12  1  1  0  0  0
  9 13  1  0  0  0  0
 10 14  1  0  0  0  0
 12 15  1  0  0  0  0
 13 16  2  0  0  0  0
 13 17  1  0  0  0  0
 14 18  2  0  0  0  0
 15 19  2  0  0  0  0
 15 20  1  0  0  0  0
 17 21  1  0  0  0  0
 17 22  1  0  0  0  0
 20 23  1  0  0  0  0
 20 24  1  0  0  0  0
 21 25  1  0  0  0  0
 22 26  1  0  0  0  0
 23 27  1  0  0  0  0
 24 28  1  0  0  0  0
 25 29  1  0  0  0  0
 27 30  1  0  0  0  0
 29 31  1  0  0  0  0
 30 32  1  0  0  0  0
 31 33  1  0  0  0  0
 31 34  1  0  0  0  0
 32 35  1  0  0  0  0
 32 36  1  0  0  0  0
 33 37  1  0  0  0  0
 34 38  1  0  0  0  0
 35 39  2  0  0  0  0
 35 40  1  0  0  0  0
 36 41  1  0  0  0  0
 37 42  1  0  0  0  0
 40 43  1  0  0  0  0
 41 44  1  0  0  0  0
 43 45  1  0  0  0  0
 44 46  2  0  0  0  0
 45 47  2  0  0  0  0
  7  8  1  0  0  0  0
 11 14  1  0  0  0  0
 26 29  1  0  0  0  0
 28 30  1  0  0  0  0
 38 42  1  0  0  0  0
 41 43  2  0  0  0  0
 46 47  1  0  0  0  0
M  END
>  <MolRegNo>
1526081

>  <m>
=

>  <Value>
18000

>  <Unit>
nM

>  <Type>
IC50

>  <pValue>
4.75

>  <Ligand Efficiency>
0

>  <Binding Efficiency>
0

>  <Surface Efficiency>
0

>  <Assay Index>
763675

>  <Assay Category>


>  <Assay Organism>
Homo sapiens

>  <Target ID>
17045

>  <Target Name>
Cytochrome P450 3A4

>  <Target Organism>
Homo sapiens

>  <Target Description>
Target is a single protein chain

>  <Sequence Accession>
P08684

>  <Reference>
Bioorg Med Chem Lett 23 (6), 1870-1873 (2013)

>  <Pubmed ID>
23402880

>  <DOI>
10.1016/j.bmcl.2013.01.011

$$$$
1526084
Actelion Java MolfileCreator 1.0

 47 53  0  0  0  0  0  0  0  0999 V2000
    0.0000   -0.0000   -0.0000 I   0  0  0  0  0  0  0  0  0  0  0  0
    0.3799    1.4601   -0.0000 C   0  0  0  0  0  0  0  0  0  0  0  0
    1.8162    1.8518   -0.0000 C   0  0  0  0  0  0  0  0  0  0  0  0
   -0.6885    2.5285   -0.0000 C   0  0  0  0  0  0  0  0  0  0  0  0
    3.0745    1.0565   -0.0000 N   0  0  0  0  0  0  0  0  0  0  0  0
    2.1842    3.3238   -0.0000 C   0  0  0  0  0  0  0  0  0  0  0  0
   -0.3086    3.9886   -0.0000 C   0  0  0  0  0  0  0  0  0  0  0  0
    4.2260    2.0299   -0.0000 C   0  0  0  0  0  0  0  0  0  0  0  0
    3.6800    3.4307   -0.0000 O   0  0  0  0  0  0  0  0  0  0  0  0
    1.1040    4.3803   -0.0000 C   0  0  0  0  0  0  0  0  0  0  0  0
   -1.3770    5.0570   -0.0000 C   0  0  0  0  0  0  0  0  0  0  0  0
    5.6624    1.6619   -0.0000 O   0  0  0  0  0  0  0  0  0  0  0  0
   -1.3889    6.5646   -0.0000 C   0  0  0  0  0  0  0  0  0  0  0  0
   -0.1068    7.3243   -0.0000 N   0  0  0  0  0  0  0  0  0  0  0  0
   -2.7065    7.3243   -0.0000 C   0  0  0  0  0  0  0  0  0  0  0  0
    1.1871    6.5883   -0.0000 C   0  0  0  0  0  0  0  0  0  0  0  0
   -2.7184    8.8319   -0.0000 O   0  0  0  0  0  0  0  0  0  0  0  0
   -4.0123    6.5883   -0.0000 N   0  0  0  0  0  0  0  0  0  0  0  0
    1.1752    5.1045   -0.0000 O   0  0  0  0  0  0  0  0  0  0  0  0
    2.4691    7.3480   -0.0000 N   0  0  0  0  0  0  0  0  0  0  0  0
   -5.3300    7.3599   -0.0000 C   0  0  0  0  0  0  0  0  0  0  0  0
   -4.0242    5.1045   -0.0000 C   0  0  0  0  0  0  0  0  0  0  0  0
    3.7512    6.6120   -0.0000 C   0  0  0  0  0  0  0  0  0  0  0  0
    2.4573    8.8556   -0.0000 C   0  0  0  0  0  0  0  0  0  0  0  0
   -6.6358    6.6239   -0.0000 C   0  0  0  0  0  0  0  0  0  0  0  0
   -5.3419    4.3685   -0.0000 C   0  0  0  0  0  0  0  0  0  0  0  0
    5.0332    7.3718   -0.0000 C   0  0  0  0  0  0  0  0  0  0  0  0
    3.7393    9.6272   -0.0000 C   0  0  0  0  0  0  0  0  0  0  0  0
   -6.6477    5.1282   -0.0000 C   0  0  0  0  0  0  0  0  0  0  0  0
    5.0214    8.8794   -0.0000 C   0  0  0  0  0  0  0  0  0  0  0  0
   -7.9653    4.3922   -0.0000 N   0  0  0  0  0  0  0  0  0  0  0  0
    6.3153    9.6391   -0.0000 N   0  0  0  0  0  0  0  0  0  0  0  0
   -9.2711    5.1638   -0.0000 C   0  0  0  0  0  0  0  0  0  0  0  0
   -7.9772    2.9084   -0.0000 C   0  0  0  0  0  0  0  0  0  0  0  0
    6.3034   11.1467   -0.0000 C   0  0  0  0  0  0  0  0  0  0  0  0
    7.5973    8.8912   -0.0000 C   0  0  0  0  0  0  0  0  0  0  0  0
  -10.5650    4.4397   -0.0000 C   0  0  0  0  0  0  0  0  0  0  0  0
   -9.2949    2.1724   -0.0000 C   0  0  0  0  0  0  0  0  0  0  0  0
    4.9976   11.9183   -0.0000 O   0  0  0  0  0  0  0  0  0  0  0  0
    7.5973   11.9064   -0.0000 N   0  0  0  0  0  0  0  0  0  0  0  0
    8.8794    9.6391   -0.0000 C   0  0  0  0  0  0  0  0  0  0  0  0
  -10.6006    2.9440   -0.0000 C   0  0  0  0  0  0  0  0  0  0  0  0
    8.8794   11.1586   -0.0000 C   0  0  0  0  0  0  0  0  0  0  0  0
   10.1614    8.8794   -0.0000 C   0  0  0  0  0  0  0  0  0  0  0  0
   10.1733   11.9064   -0.0000 C   0  0  0  0  0  0  0  0  0  0  0  0
   11.4672    9.6272   -0.0000 C   0  0  0  0  0  0  0  0  0  0  0  0
   11.4553   11.1586   -0.0000 C   0  0  0  0  0  0  0  0  0  0  0  0
  1  2  1  0  0  0  0
  2  3  2  0  0  0  0
  2  4  1  0  0  0  0
  3  5  1  0  0  0  0
  3  6  1  0  0  0  0
  4  7  2  0  0  0  0
  5  8  1  0  0  0  0
  6  9  1  0  0  0  0
  6 10  2  0  0  0  0
  7 11  1  0  0  0  0
  8 12  2  0  0  0  0
 11 13  1  0  0  0  0
 13 14  1  1  0  0  0
 13 15  1  0  0  0  0
 14 16  1  0  0  0  0
 15 17  2  0  0  0  0
 15 18  1  0  0  0  0
 16 19  2  0  0  0  0
 16 20  1  0  0  0  0
 18 21  1  0  0  0  0
 18 22  1  0  0  0  0
 20 23  1  0  0  0  0
 20 24  1  0  0  0  0
 21 25  1  0  0  0  0
 22 26  1  0  0  0  0
 23 27  1  0  0  0  0
 24 28  1  0  0  0  0
 25 29  1  0  0  0  0
 27 30  1  0  0  0  0
 29 31  1  0  0  0  0
 30 32  1  0  0  0  0
 31 33  1  0  0  0  0
 31 34  1  0  0  0  0
 32 35  1  0  0  0  0
 32 36  1  0  0  0  0
 33 37  1  0  0  0  0
 34 38  1  0  0  0  0
 35 39  2  0  0  0  0
 35 40  1  0  0  0  0
 36 41  1  0  0  0  0
 37 42  1  0  0  0  0
 40 43  1  0  0  0  0
 41 44  1  0  0  0  0
 43 45  1  0  0  0  0
 44 46  2  0  0  0  0
 45 47  2  0  0  0  0
  7 10  1  0  0  0  0
  8  9  1  0  0  0  0
 26 29  1  0  0  0  0
 28 30  1  0  0  0  0
 38 42  1  0  0  0  0
 41 43  2  0  0  0  0
 46 47  1  0  0  0  0
M  END
>  <MolRegNo>
1526084

>  <m>
=

>  <Value>
32000

>  <Unit>
nM

>  <Type>
IC50

>  <pValue>
4.5

>  <Ligand Efficiency>
0

>  <Binding Efficiency>
0

>  <Surface Efficiency>
0

>  <Assay Index>
763675

>  <Assay Category>


>  <Assay Organism>
Homo sapiens

>  <Target ID>
17045

>  <Target Name>
Cytochrome P450 3A4

>  <Target Organism>
Homo sapiens

>  <Target Description>
Target is a single protein chain

>  <Sequence Accession>
P08684

>  <Reference>
Bioorg Med Chem Lett 23 (6), 1870-1873 (2013)

>  <Pubmed ID>
23402880

>  <DOI>
10.1016/j.bmcl.2013.01.011

$$$$
1526087
Actelion Java MolfileCreator 1.0

 47 53  0  0  0  0  0  0  0  0999 V2000
    0.0000   -0.0000   -0.0000 Cl  0  0  0  0  0  0  0  0  0  0  0  0
   -1.5082   -0.0119   -0.0000 C   0  0  0  0  0  0  0  0  0  0  0  0
   -2.2801    1.2825   -0.0000 C   0  0  0  0  0  0  0  0  0  0  0  0
   -2.2444   -1.3063   -0.0000 C   0  0  0  0  0  0  0  0  0  0  0  0
   -3.7882    1.2825   -0.0000 C   0  0  0  0  0  0  0  0  0  0  0  0
   -1.5557    2.6007   -0.0000 C   0  0  0  0  0  0  0  0  0  0  0  0
   -3.7645   -1.3182   -0.0000 C   0  0  0  0  0  0  0  0  0  0  0  0
   -1.7694   -2.7195   -0.0000 C   0  0  0  0  0  0  0  0  0  0  0  0
   -4.5364   -0.0119   -0.0000 C   0  0  0  0  0  0  0  0  0  0  0  0
   -1.5675    4.1089   -0.0000 C   0  0  0  0  0  0  0  0  0  0  0  0
   -4.2158   -2.7432   -0.0000 N   0  0  0  0  0  0  0  0  0  0  0  0
   -2.9807   -3.6101   -0.0000 N   0  0  0  0  0  0  0  0  0  0  0  0
   -6.0446   -0.0119   -0.0000 C   0  0  0  0  0  0  0  0  0  0  0  0
   -0.2850    4.8689   -0.0000 N   0  0  0  0  0  0  0  0  0  0  0  0
   -2.8738    4.8689   -0.0000 C   0  0  0  0  0  0  0  0  0  0  0  0
    0.9975    4.1326   -0.0000 C   0  0  0  0  0  0  0  0  0  0  0  0
   -2.8857    6.3771   -0.0000 O   0  0  0  0  0  0  0  0  0  0  0  0
   -4.1801    4.1326   -0.0000 N   0  0  0  0  0  0  0  0  0  0  0  0
    0.9857    2.6482   -0.0000 O   0  0  0  0  0  0  0  0  0  0  0  0
    2.2801    4.8926   -0.0000 N   0  0  0  0  0  0  0  0  0  0  0  0
   -5.4983    4.8926   -0.0000 C   0  0  0  0  0  0  0  0  0  0  0  0
   -4.1920    2.6482   -0.0000 C   0  0  0  0  0  0  0  0  0  0  0  0
    3.5626    4.1682   -0.0000 C   0  0  0  0  0  0  0  0  0  0  0  0
    2.2682    6.4008   -0.0000 C   0  0  0  0  0  0  0  0  0  0  0  0
   -6.8046    4.1564   -0.0000 C   0  0  0  0  0  0  0  0  0  0  0  0
   -5.5102    1.9119   -0.0000 C   0  0  0  0  0  0  0  0  0  0  0  0
    4.8451    4.9164   -0.0000 C   0  0  0  0  0  0  0  0  0  0  0  0
    3.5507    7.1727   -0.0000 C   0  0  0  0  0  0  0  0  0  0  0  0
   -6.8165    2.6720   -0.0000 C   0  0  0  0  0  0  0  0  0  0  0  0
    4.8333    6.4246   -0.0000 C   0  0  0  0  0  0  0  0  0  0  0  0
   -8.1346    1.9357   -0.0000 N   0  0  0  0  0  0  0  0  0  0  0  0
    6.1158    7.1846   -0.0000 N   0  0  0  0  0  0  0  0  0  0  0  0
   -9.4409    2.7076   -0.0000 C   0  0  0  0  0  0  0  0  0  0  0  0
   -8.1465    0.4513   -0.0000 C   0  0  0  0  0  0  0  0  0  0  0  0
    6.1039    8.6928   -0.0000 C   0  0  0  0  0  0  0  0  0  0  0  0
    7.3983    6.4364   -0.0000 C   0  0  0  0  0  0  0  0  0  0  0  0
  -10.7472    1.9832   -0.0000 C   0  0  0  0  0  0  0  0  0  0  0  0
   -9.4765   -0.2850   -0.0000 C   0  0  0  0  0  0  0  0  0  0  0  0
    4.7976    9.4647   -0.0000 O   0  0  0  0  0  0  0  0  0  0  0  0
    7.3983    9.4528   -0.0000 N   0  0  0  0  0  0  0  0  0  0  0  0
    8.6809    7.1846   -0.0000 C   0  0  0  0  0  0  0  0  0  0  0  0
  -10.7709    0.4988   -0.0000 C   0  0  0  0  0  0  0  0  0  0  0  0
    8.6809    8.7046   -0.0000 C   0  0  0  0  0  0  0  0  0  0  0  0
    9.9634    6.4364   -0.0000 C   0  0  0  0  0  0  0  0  0  0  0  0
    9.9753    9.4528   -0.0000 C   0  0  0  0  0  0  0  0  0  0  0  0
   11.2697    7.1846   -0.0000 C   0  0  0  0  0  0  0  0  0  0  0  0
   11.2578    8.7046   -0.0000 C   0  0  0  0  0  0  0  0  0  0  0  0
  1  2  1  0  0  0  0
  2  3  2  0  0  0  0
  2  4  1  0  0  0  0
  3  5  1  0  0  0  0
  3  6  1  0  0  0  0
  4  7  2  0  0  0  0
  4  8  1  0  0  0  0
  5  9  2  0  0  0  0
  6 10  1  0  0  0  0
  7 11  1  0  0  0  0
  8 12  2  0  0  0  0
  9 13  1  0  0  0  0
 10 14  1  1  0  0  0
 10 15  1  0  0  0  0
 14 16  1  0  0  0  0
 15 17  2  0  0  0  0
 15 18  1  0  0  0  0
 16 19  2  0  0  0  0
 16 20  1  0  0  0  0
 18 21  1  0  0  0  0
 18 22  1  0  0  0  0
 20 23  1  0  0  0  0
 20 24  1  0  0  0  0
 21 25  1  0  0  0  0
 22 26  1  0  0  0  0
 23 27  1  0  0  0  0
 24 28  1  0  0  0  0
 25 29  1  0  0  0  0
 27 30  1  0  0  0  0
 29 31  1  0  0  0  0
 30 32  1  0  0  0  0
 31 33  1  0  0  0  0
 31 34  1  0  0  0  0
 32 35  1  0  0  0  0
 32 36  1  0  0  0  0
 33 37  1  0  0  0  0
 34 38  1  0  0  0  0
 35 39  2  0  0  0  0
 35 40  1  0  0  0  0
 36 41  1  0  0  0  0
 37 42  1  0  0  0  0
 40 43  1  0  0  0  0
 41 44  1  0  0  0  0
 43 45  1  0  0  0  0
 44 46  2  0  0  0  0
 45 47  2  0  0  0  0
  7  9  1  0  0  0  0
 11 12  1  0  0  0  0
 26 29  1  0  0  0  0
 28 30  1  0  0  0  0
 38 42  1  0  0  0  0
 41 43  2  0  0  0  0
 46 47  1  0  0  0  0
M  END
>  <MolRegNo>
1526087

>  <m>
=

>  <Value>
3500

>  <Unit>
nM

>  <Type>
IC50

>  <pValue>
5.46

>  <Ligand Efficiency>
0

>  <Binding Efficiency>
0

>  <Surface Efficiency>
0

>  <Assay Index>
763675

>  <Assay Category>


>  <Assay Organism>
Homo sapiens

>  <Target ID>
17045

>  <Target Name>
Cytochrome P450 3A4

>  <Target Organism>
Homo sapiens

>  <Target Description>
Target is a single protein chain

>  <Sequence Accession>
P08684

>  <Reference>
Bioorg Med Chem Lett 23 (6), 1870-1873 (2013)

>  <Pubmed ID>
23402880

>  <DOI>
10.1016/j.bmcl.2013.01.011

$$$$
1526090
Actelion Java MolfileCreator 1.0

 47 53  0  0  0  0  0  0  0  0999 V2000
    0.0000   -0.0000   -0.0000 O   0  0  0  0  0  0  0  0  0  0  0  0
    1.2839   -0.7489   -0.0000 C   0  0  0  0  0  0  0  0  0  0  0  0
    1.2720   -2.2349   -0.0000 N   0  0  0  0  0  0  0  0  0  0  0  0
    2.5797    0.0119   -0.0000 N   0  0  0  0  0  0  0  0  0  0  0  0
   -0.0476   -2.9720   -0.0000 C   0  0  0  0  0  0  0  0  0  0  0  0
    2.5559   -2.9838   -0.0000 C   0  0  0  0  0  0  0  0  0  0  0  0
    3.8635   -0.7370   -0.0000 C   0  0  0  0  0  0  0  0  0  0  0  0
   -0.0594   -4.4579   -0.0000 C   0  0  0  0  0  0  0  0  0  0  0  0
   -1.3552   -2.1993   -0.0000 C   0  0  0  0  0  0  0  0  0  0  0  0
    3.8398   -2.2349   -0.0000 C   0  0  0  0  0  0  0  0  0  0  0  0
    5.1593    0.0119   -0.0000 C   0  0  0  0  0  0  0  0  0  0  0  0
   -1.3671   -5.1950   -0.0000 C   0  0  0  0  0  0  0  0  0  0  0  0
   -2.6629   -2.9482   -0.0000 C   0  0  0  0  0  0  0  0  0  0  0  0
    5.1237   -2.9957   -0.0000 C   0  0  0  0  0  0  0  0  0  0  0  0
    6.4432   -0.7370   -0.0000 C   0  0  0  0  0  0  0  0  0  0  0  0
   -2.6748   -4.4342   -0.0000 N   0  0  0  0  0  0  0  0  0  0  0  0
    6.4313   -2.2468   -0.0000 C   0  0  0  0  0  0  0  0  0  0  0  0
   -3.9824   -5.1712   -0.0000 C   0  0  0  0  0  0  0  0  0  0  0  0
   -3.9943   -6.6572   -0.0000 O   0  0  0  0  0  0  0  0  0  0  0  0
   -5.3020   -4.4104   -0.0000 N   0  0  0  0  0  0  0  0  0  0  0  0
   -6.6096   -5.1474   -0.0000 C   0  0  0  0  0  0  0  0  0  0  0  0
   -7.9292   -4.3866   -0.0000 C   0  0  0  0  0  0  0  0  0  0  0  0
   -6.6215   -6.6334   -0.0000 C   0  0  0  0  0  0  0  0  0  0  0  0
   -7.9411   -2.8769   -0.0000 O   0  0  0  0  0  0  0  0  0  0  0  0
   -9.2369   -5.1237   -0.0000 N   0  0  0  0  0  0  0  0  0  0  0  0
   -5.5754   -7.6795   -0.0000 C   0  0  0  0  0  0  0  0  0  0  0  0
  -10.5564   -4.3510   -0.0000 C   0  0  0  0  0  0  0  0  0  0  0  0
   -9.2487   -6.6096   -0.0000 C   0  0  0  0  0  0  0  0  0  0  0  0
   -5.9796   -9.1180   -0.0000 C   0  0  0  0  0  0  0  0  0  0  0  0
   -4.1489   -7.2754   -0.0000 C   0  0  0  0  0  0  0  0  0  0  0  0
  -11.8641   -5.0880   -0.0000 C   0  0  0  0  0  0  0  0  0  0  0  0
  -10.5683   -7.3467   -0.0000 C   0  0  0  0  0  0  0  0  0  0  0  0
   -4.9335  -10.1641   -0.0000 C   0  0  0  0  0  0  0  0  0  0  0  0
   -3.0908   -8.3096   -0.0000 C   0  0  0  0  0  0  0  0  0  0  0  0
  -11.8760   -6.5859   -0.0000 C   0  0  0  0  0  0  0  0  0  0  0  0
   -3.4950   -9.7718   -0.0000 C   0  0  0  0  0  0  0  0  0  0  0  0
   -5.3376  -11.6025   -0.0000 C   0  0  0  0  0  0  0  0  0  0  0  0
   -1.5930   -8.2026   -0.0000 C   0  0  0  0  0  0  0  0  0  0  0  0
  -13.1955   -7.3229   -0.0000 N   0  0  0  0  0  0  0  0  0  0  0  0
   -2.2349  -10.5683   -0.0000 N   0  0  0  0  0  0  0  0  0  0  0  0
   -6.7998  -11.9829   -0.0000 C   0  0  0  0  0  0  0  0  0  0  0  0
   -1.0461   -9.5935   -0.0000 N   0  0  0  0  0  0  0  0  0  0  0  0
  -14.5032   -6.5502   -0.0000 C   0  0  0  0  0  0  0  0  0  0  0  0
  -13.2074   -8.8089   -0.0000 C   0  0  0  0  0  0  0  0  0  0  0  0
  -15.7989   -7.2754   -0.0000 C   0  0  0  0  0  0  0  0  0  0  0  0
  -14.5269   -9.5459   -0.0000 C   0  0  0  0  0  0  0  0  0  0  0  0
  -15.8346   -8.7732   -0.0000 C   0  0  0  0  0  0  0  0  0  0  0  0
  1  2  2  0  0  0  0
  2  3  1  0  0  0  0
  2  4  1  0  0  0  0
  3  5  1  0  0  0  0
  3  6  1  0  0  0  0
  4  7  1  0  0  0  0
  5  8  1  0  0  0  0
  5  9  1  0  0  0  0
  6 10  1  0  0  0  0
  7 11  1  0  0  0  0
  8 12  1  0  0  0  0
  9 13  1  0  0  0  0
 10 14  1  0  0  0  0
 11 15  2  0  0  0  0
 12 16  1  0  0  0  0
 14 17  2  0  0  0  0
 16 18  1  0  0  0  0
 18 19  2  0  0  0  0
 18 20  1  0  0  0  0
 20 21  1  0  0  0  0
 21 22  1  0  0  0  0
 21 23  1  0  0  0  0
 22 24  2  0  0  0  0
 22 25  1  0  0  0  0
 23 26  1  0  0  0  0
 25 27  1  0  0  0  0
 25 28  1  0  0  0  0
 26 29  2  0  0  0  0
 26 30  1  0  0  0  0
 27 31  1  0  0  0  0
 28 32  1  0  0  0  0
 29 33  1  0  0  0  0
 30 34  2  0  0  0  0
 31 35  1  0  0  0  0
 33 36  2  0  0  0  0
 33 37  1  0  0  0  0
 34 38  1  0  0  0  0
 35 39  1  0  0  0  0
 36 40  1  0  0  0  0
 37 41  1  0  0  0  0
 38 42  2  0  0  0  0
 39 43  1  0  0  0  0
 39 44  1  0  0  0  0
 43 45  1  0  0  0  0
 44 46  1  0  0  0  0
 45 47  1  0  0  0  0
  7 10  2  0  0  0  0
 13 16  1  0  0  0  0
 15 17  1  0  0  0  0
 32 35  1  0  0  0  0
 34 36  1  0  0  0  0
 40 42  1  0  0  0  0
 46 47  1  0  0  0  0
M  END
>  <MolRegNo>
1526090

>  <m>
=

>  <Value>
25000

>  <Unit>
nM

>  <Type>
IC50

>  <pValue>
4.6

>  <Ligand Efficiency>
0

>  <Binding Efficiency>
0

>  <Surface Efficiency>
0

>  <Assay Index>
763675

>  <Assay Category>


>  <Assay Organism>
Homo sapiens

>  <Target ID>
17045

>  <Target Name>
Cytochrome P450 3A4

>  <Target Organism>
Homo sapiens

>  <Target Description>
Target is a single protein chain

>  <Sequence Accession>
P08684

>  <Reference>
Bioorg Med Chem Lett 23 (6), 1870-1873 (2013)

>  <Pubmed ID>
23402880

>  <DOI>
10.1016/j.bmcl.2013.01.011

$$$$
1526091
Actelion Java MolfileCreator 1.0

 46 52  0  0  0  0  0  0  0  0999 V2000
    0.0000   -0.0000   -0.0000 Cl  0  0  0  0  0  0  0  0  0  0  0  0
    0.3796    1.4592   -0.0000 C   0  0  0  0  0  0  0  0  0  0  0  0
    1.8151    1.8507   -0.0000 C   0  0  0  0  0  0  0  0  0  0  0  0
   -0.6881    2.5269   -0.0000 C   0  0  0  0  0  0  0  0  0  0  0  0
    3.0727    1.0559   -0.0000 N   0  0  0  0  0  0  0  0  0  0  0  0
    2.1829    3.3218   -0.0000 C   0  0  0  0  0  0  0  0  0  0  0  0
   -0.3085    3.9861   -0.0000 C   0  0  0  0  0  0  0  0  0  0  0  0
    4.2234    2.0287   -0.0000 N   0  0  0  0  0  0  0  0  0  0  0  0
    1.1033    4.3776   -0.0000 C   0  0  0  0  0  0  0  0  0  0  0  0
    3.6777    3.4286   -0.0000 C   0  0  0  0  0  0  0  0  0  0  0  0
   -1.3762    5.0539   -0.0000 C   0  0  0  0  0  0  0  0  0  0  0  0
   -1.3880    6.5605   -0.0000 C   0  0  0  0  0  0  0  0  0  0  0  0
   -0.1068    7.3198   -0.0000 N   0  0  0  0  0  0  0  0  0  0  0  0
   -2.7049    7.3198   -0.0000 C   0  0  0  0  0  0  0  0  0  0  0  0
    1.1864    6.5843   -0.0000 C   0  0  0  0  0  0  0  0  0  0  0  0
   -2.7167    8.8265   -0.0000 O   0  0  0  0  0  0  0  0  0  0  0  0
   -4.0099    6.5843   -0.0000 N   0  0  0  0  0  0  0  0  0  0  0  0
    1.1745    5.1013   -0.0000 O   0  0  0  0  0  0  0  0  0  0  0  0
    2.4676    7.3435   -0.0000 N   0  0  0  0  0  0  0  0  0  0  0  0
   -5.3267    7.3554   -0.0000 C   0  0  0  0  0  0  0  0  0  0  0  0
   -4.0217    5.1013   -0.0000 C   0  0  0  0  0  0  0  0  0  0  0  0
    3.7489    6.6080   -0.0000 C   0  0  0  0  0  0  0  0  0  0  0  0
    2.4558    8.8502   -0.0000 C   0  0  0  0  0  0  0  0  0  0  0  0
   -6.6317    6.6198   -0.0000 C   0  0  0  0  0  0  0  0  0  0  0  0
   -5.3386    4.3658   -0.0000 C   0  0  0  0  0  0  0  0  0  0  0  0
    5.0301    7.3673   -0.0000 C   0  0  0  0  0  0  0  0  0  0  0  0
    3.7370    9.6213   -0.0000 C   0  0  0  0  0  0  0  0  0  0  0  0
   -6.6436    5.1250   -0.0000 C   0  0  0  0  0  0  0  0  0  0  0  0
    5.0183    8.8739   -0.0000 C   0  0  0  0  0  0  0  0  0  0  0  0
   -7.9604    4.3895   -0.0000 N   0  0  0  0  0  0  0  0  0  0  0  0
    6.3114    9.6332   -0.0000 N   0  0  0  0  0  0  0  0  0  0  0  0
   -9.2773    5.1606   -0.0000 C   0  0  0  0  0  0  0  0  0  0  0  0
   -7.9723    2.9066   -0.0000 C   0  0  0  0  0  0  0  0  0  0  0  0
    6.2995   11.1399   -0.0000 C   0  0  0  0  0  0  0  0  0  0  0  0
    7.5927    8.8858   -0.0000 C   0  0  0  0  0  0  0  0  0  0  0  0
  -10.5823    4.4370   -0.0000 C   0  0  0  0  0  0  0  0  0  0  0  0
   -9.3010    2.1710   -0.0000 C   0  0  0  0  0  0  0  0  0  0  0  0
    4.9945   11.9110   -0.0000 O   0  0  0  0  0  0  0  0  0  0  0  0
    7.5927   11.8991   -0.0000 N   0  0  0  0  0  0  0  0  0  0  0  0
    8.8739    9.6332   -0.0000 C   0  0  0  0  0  0  0  0  0  0  0  0
  -10.6060    2.9422   -0.0000 C   0  0  0  0  0  0  0  0  0  0  0  0
    8.8739   11.1517   -0.0000 C   0  0  0  0  0  0  0  0  0  0  0  0
   10.1552    8.8739   -0.0000 C   0  0  0  0  0  0  0  0  0  0  0  0
   10.1670   11.8991   -0.0000 C   0  0  0  0  0  0  0  0  0  0  0  0
   11.4602    9.6213   -0.0000 C   0  0  0  0  0  0  0  0  0  0  0  0
   11.4483   11.1517   -0.0000 C   0  0  0  0  0  0  0  0  0  0  0  0
  1  2  1  0  0  0  0
  2  3  2  0  0  0  0
  2  4  1  0  0  0  0
  3  5  1  0  0  0  0
  3  6  1  0  0  0  0
  4  7  2  0  0  0  0
  5  8  1  0  0  0  0
  6  9  2  0  0  0  0
  6 10  1  0  0  0  0
  7 11  1  0  0  0  0
 11 12  1  0  0  0  0
 12 13  1  0  0  0  0
 12 14  1  0  0  0  0
 13 15  1  0  0  0  0
 14 16  2  0  0  0  0
 14 17  1  0  0  0  0
 15 18  2  0  0  0  0
 15 19  1  0  0  0  0
 17 20  1  0  0  0  0
 17 21  1  0  0  0  0
 19 22  1  0  0  0  0
 19 23  1  0  0  0  0
 20 24  1  0  0  0  0
 21 25  1  0  0  0  0
 22 26  1  0  0  0  0
 23 27  1  0  0  0  0
 24 28  1  0  0  0  0
 26 29  1  0  0  0  0
 28 30  1  0  0  0  0
 29 31  1  0  0  0  0
 30 32  1  0  0  0  0
 30 33  1  0  0  0  0
 31 34  1  0  0  0  0
 31 35  1  0  0  0  0
 32 36  1  0  0  0  0
 33 37  1  0  0  0  0
 34 38  2  0  0  0  0
 34 39  1  0  0  0  0
 35 40  1  0  0  0  0
 36 41  1  0  0  0  0
 39 42  1  0  0  0  0
 40 43  1  0  0  0  0
 42 44  1  0  0  0  0
 43 45  2  0  0  0  0
 44 46  2  0  0  0  0
  7  9  1  0  0  0  0
  8 10  2  0  0  0  0
 25 28  1  0  0  0  0
 27 29  1  0  0  0  0
 37 41  1  0  0  0  0
 40 42  2  0  0  0  0
 45 46  1  0  0  0  0
M  END
>  <MolRegNo>
1526091

>  <m>
=

>  <Value>
13000

>  <Unit>
nM

>  <Type>
IC50

>  <pValue>
4.89

>  <Ligand Efficiency>
0

>  <Binding Efficiency>
0

>  <Surface Efficiency>
0

>  <Assay Index>
763675

>  <Assay Category>


>  <Assay Organism>
Homo sapiens

>  <Target ID>
17045

>  <Target Name>
Cytochrome P450 3A4

>  <Target Organism>
Homo sapiens

>  <Target Description>
Target is a single protein chain

>  <Sequence Accession>
P08684

>  <Reference>
Bioorg Med Chem Lett 23 (6), 1870-1873 (2013)

>  <Pubmed ID>
23402880

>  <DOI>
10.1016/j.bmcl.2013.01.011

$$$$
1526093
Actelion Java MolfileCreator 1.0

 46 52  0  0  0  0  0  0  0  0999 V2000
    0.0000   -0.0000   -0.0000 O   0  0  0  0  0  0  0  0  0  0  0  0
    1.2841   -0.7490   -0.0000 C   0  0  0  0  0  0  0  0  0  0  0  0
    1.2722   -2.2352   -0.0000 N   0  0  0  0  0  0  0  0  0  0  0  0
    2.5800    0.0119   -0.0000 N   0  0  0  0  0  0  0  0  0  0  0  0
   -0.0476   -2.9724   -0.0000 C   0  0  0  0  0  0  0  0  0  0  0  0
    2.5562   -2.9843   -0.0000 C   0  0  0  0  0  0  0  0  0  0  0  0
    3.8641   -0.7371   -0.0000 C   0  0  0  0  0  0  0  0  0  0  0  0
   -0.0594   -4.4586   -0.0000 C   0  0  0  0  0  0  0  0  0  0  0  0
   -1.3554   -2.1996   -0.0000 C   0  0  0  0  0  0  0  0  0  0  0  0
    3.8403   -2.2352   -0.0000 C   0  0  0  0  0  0  0  0  0  0  0  0
    5.1600    0.0119   -0.0000 C   0  0  0  0  0  0  0  0  0  0  0  0
   -1.3673   -5.1957   -0.0000 C   0  0  0  0  0  0  0  0  0  0  0  0
   -2.6632   -2.9486   -0.0000 C   0  0  0  0  0  0  0  0  0  0  0  0
    5.1244   -2.9962   -0.0000 C   0  0  0  0  0  0  0  0  0  0  0  0
    6.4441   -0.7371   -0.0000 C   0  0  0  0  0  0  0  0  0  0  0  0
   -2.6751   -4.4348   -0.0000 N   0  0  0  0  0  0  0  0  0  0  0  0
    6.4322   -2.2471   -0.0000 C   0  0  0  0  0  0  0  0  0  0  0  0
   -3.9830   -5.1719   -0.0000 C   0  0  0  0  0  0  0  0  0  0  0  0
   -3.9949   -6.6581   -0.0000 O   0  0  0  0  0  0  0  0  0  0  0  0
   -5.3027   -4.4110   -0.0000 N   0  0  0  0  0  0  0  0  0  0  0  0
   -6.6106   -5.1482   -0.0000 C   0  0  0  0  0  0  0  0  0  0  0  0
   -7.9303   -4.3872   -0.0000 C   0  0  0  0  0  0  0  0  0  0  0  0
   -6.6225   -6.6343   -0.0000 C   0  0  0  0  0  0  0  0  0  0  0  0
   -7.9422   -2.8773   -0.0000 O   0  0  0  0  0  0  0  0  0  0  0  0
   -9.2381   -5.1244   -0.0000 N   0  0  0  0  0  0  0  0  0  0  0  0
   -5.5762   -7.6806   -0.0000 C   0  0  0  0  0  0  0  0  0  0  0  0
  -10.5579   -4.3516   -0.0000 C   0  0  0  0  0  0  0  0  0  0  0  0
   -9.2500   -6.6106   -0.0000 C   0  0  0  0  0  0  0  0  0  0  0  0
   -5.9804   -9.1192   -0.0000 C   0  0  0  0  0  0  0  0  0  0  0  0
   -4.1494   -7.2764   -0.0000 C   0  0  0  0  0  0  0  0  0  0  0  0
  -11.8657   -5.0887   -0.0000 C   0  0  0  0  0  0  0  0  0  0  0  0
  -10.5698   -7.3477   -0.0000 C   0  0  0  0  0  0  0  0  0  0  0  0
   -4.9341  -10.1655   -0.0000 C   0  0  0  0  0  0  0  0  0  0  0  0
   -3.0913   -8.3108   -0.0000 C   0  0  0  0  0  0  0  0  0  0  0  0
  -11.8776   -6.5868   -0.0000 C   0  0  0  0  0  0  0  0  0  0  0  0
   -3.4955   -9.7732   -0.0000 C   0  0  0  0  0  0  0  0  0  0  0  0
   -5.3384  -11.6042   -0.0000 C   0  0  0  0  0  0  0  0  0  0  0  0
   -1.5932   -8.2038   -0.0000 C   0  0  0  0  0  0  0  0  0  0  0  0
  -13.1973   -7.3239   -0.0000 N   0  0  0  0  0  0  0  0  0  0  0  0
   -2.2352  -10.5698   -0.0000 N   0  0  0  0  0  0  0  0  0  0  0  0
   -1.0463   -9.5948   -0.0000 N   0  0  0  0  0  0  0  0  0  0  0  0
  -14.5052   -6.5511   -0.0000 C   0  0  0  0  0  0  0  0  0  0  0  0
  -13.2092   -8.8101   -0.0000 C   0  0  0  0  0  0  0  0  0  0  0  0
  -15.8012   -7.2764   -0.0000 C   0  0  0  0  0  0  0  0  0  0  0  0
  -14.5290   -9.5473   -0.0000 C   0  0  0  0  0  0  0  0  0  0  0  0
  -15.8368   -8.7745   -0.0000 C   0  0  0  0  0  0  0  0  0  0  0  0
  1  2  2  0  0  0  0
  2  3  1  0  0  0  0
  2  4  1  0  0  0  0
  3  5  1  0  0  0  0
  3  6  1  0  0  0  0
  4  7  1  0  0  0  0
  5  8  1  0  0  0  0
  5  9  1  0  0  0  0
  6 10  1  0  0  0  0
  7 11  1  0  0  0  0
  8 12  1  0  0  0  0
  9 13  1  0  0  0  0
 10 14  1  0  0  0  0
 11 15  2  0  0  0  0
 12 16  1  0  0  0  0
 14 17  2  0  0  0  0
 16 18  1  0  0  0  0
 18 19  2  0  0  0  0
 18 20  1  0  0  0  0
 20 21  1  0  0  0  0
 21 22  1  0  0  0  0
 21 23  1  0  0  0  0
 22 24  2  0  0  0  0
 22 25  1  0  0  0  0
 23 26  1  0  0  0  0
 25 27  1  0  0  0  0
 25 28  1  0  0  0  0
 26 29  2  0  0  0  0
 26 30  1  0  0  0  0
 27 31  1  0  0  0  0
 28 32  1  0  0  0  0
 29 33  1  0  0  0  0
 30 34  2  0  0  0  0
 31 35  1  0  0  0  0
 33 36  2  0  0  0  0
 33 37  1  0  0  0  0
 34 38  1  0  0  0  0
 35 39  1  0  0  0  0
 36 40  1  0  0  0  0
 38 41  2  0  0  0  0
 39 42  1  0  0  0  0
 39 43  1  0  0  0  0
 42 44  1  0  0  0  0
 43 45  1  0  0  0  0
 44 46  1  0  0  0  0
  7 10  2  0  0  0  0
 13 16  1  0  0  0  0
 15 17  1  0  0  0  0
 32 35  1  0  0  0  0
 34 36  1  0  0  0  0
 40 41  1  0  0  0  0
 45 46  1  0  0  0  0
M  END
>  <MolRegNo>
1526093

>  <m>
=

>  <Value>
24000

>  <Unit>
nM

>  <Type>
IC50

>  <pValue>
4.62

>  <Ligand Efficiency>
0

>  <Binding Efficiency>
0

>  <Surface Efficiency>
0

>  <Assay Index>
763675

>  <Assay Category>


>  <Assay Organism>
Homo sapiens

>  <Target ID>
17045

>  <Target Name>
Cytochrome P450 3A4

>  <Target Organism>
Homo sapiens

>  <Target Description>
Target is a single protein chain

>  <Sequence Accession>
P08684

>  <Reference>
Bioorg Med Chem Lett 23 (6), 1870-1873 (2013)

>  <Pubmed ID>
23402880

>  <DOI>
10.1016/j.bmcl.2013.01.011

$$$$
1526080
Actelion Java MolfileCreator 1.0

 46 52  0  0  0  0  0  0  0  0999 V2000
    0.0000   -0.0000   -0.0000 O   0  0  0  0  0  0  0  0  0  0  0  0
    1.2846   -0.7494   -0.0000 C   0  0  0  0  0  0  0  0  0  0  0  0
    1.2727   -2.2362   -0.0000 N   0  0  0  0  0  0  0  0  0  0  0  0
    2.5811    0.0119   -0.0000 N   0  0  0  0  0  0  0  0  0  0  0  0
   -0.0476   -2.9736   -0.0000 C   0  0  0  0  0  0  0  0  0  0  0  0
    2.5573   -2.9855   -0.0000 C   0  0  0  0  0  0  0  0  0  0  0  0
    3.8657   -0.7375   -0.0000 C   0  0  0  0  0  0  0  0  0  0  0  0
   -0.0595   -4.4604   -0.0000 C   0  0  0  0  0  0  0  0  0  0  0  0
   -1.3560   -2.2005   -0.0000 C   0  0  0  0  0  0  0  0  0  0  0  0
    3.8419   -2.2362   -0.0000 C   0  0  0  0  0  0  0  0  0  0  0  0
    5.1622    0.0119   -0.0000 C   0  0  0  0  0  0  0  0  0  0  0  0
   -1.3679   -5.1979   -0.0000 C   0  0  0  0  0  0  0  0  0  0  0  0
   -2.6644   -2.9498   -0.0000 C   0  0  0  0  0  0  0  0  0  0  0  0
    5.1265   -2.9974   -0.0000 C   0  0  0  0  0  0  0  0  0  0  0  0
    6.4468   -0.7375   -0.0000 C   0  0  0  0  0  0  0  0  0  0  0  0
   -2.6763   -4.4366   -0.0000 N   0  0  0  0  0  0  0  0  0  0  0  0
    6.4349   -2.2481   -0.0000 C   0  0  0  0  0  0  0  0  0  0  0  0
   -3.9846   -5.1741   -0.0000 C   0  0  0  0  0  0  0  0  0  0  0  0
   -3.9965   -6.6609   -0.0000 O   0  0  0  0  0  0  0  0  0  0  0  0
   -5.3049   -4.4128   -0.0000 N   0  0  0  0  0  0  0  0  0  0  0  0
   -6.6133   -5.1503   -0.0000 C   0  0  0  0  0  0  0  0  0  0  0  0
   -7.9336   -4.3891   -0.0000 C   0  0  0  0  0  0  0  0  0  0  0  0
   -6.6252   -6.6371   -0.0000 C   0  0  0  0  0  0  0  0  0  0  0  0
   -7.9455   -2.8785   -0.0000 O   0  0  0  0  0  0  0  0  0  0  0  0
   -9.2420   -5.1265   -0.0000 N   0  0  0  0  0  0  0  0  0  0  0  0
   -5.5785   -7.6838   -0.0000 C   0  0  0  0  0  0  0  0  0  0  0  0
  -10.5623   -4.3534   -0.0000 C   0  0  0  0  0  0  0  0  0  0  0  0
   -9.2539   -6.6133   -0.0000 C   0  0  0  0  0  0  0  0  0  0  0  0
   -5.9829   -9.1230   -0.0000 C   0  0  0  0  0  0  0  0  0  0  0  0
   -4.1512   -7.2794   -0.0000 C   0  0  0  0  0  0  0  0  0  0  0  0
  -11.8707   -5.0908   -0.0000 C   0  0  0  0  0  0  0  0  0  0  0  0
  -10.5742   -7.3508   -0.0000 C   0  0  0  0  0  0  0  0  0  0  0  0
   -4.9362  -10.1698   -0.0000 C   0  0  0  0  0  0  0  0  0  0  0  0
   -3.1045   -8.3142   -0.0000 C   0  0  0  0  0  0  0  0  0  0  0  0
  -11.8826   -6.5776   -0.0000 C   0  0  0  0  0  0  0  0  0  0  0  0
   -3.4970   -9.7772   -0.0000 C   0  0  0  0  0  0  0  0  0  0  0  0
   -5.3406  -11.6090   -0.0000 C   0  0  0  0  0  0  0  0  0  0  0  0
   -1.6058   -8.2072   -0.0000 N   0  0  0  0  0  0  0  0  0  0  0  0
  -13.2028   -7.3151   -0.0000 N   0  0  0  0  0  0  0  0  0  0  0  0
   -2.2362  -10.5742   -0.0000 N   0  0  0  0  0  0  0  0  0  0  0  0
   -1.0586   -9.5988   -0.0000 N   0  0  0  0  0  0  0  0  0  0  0  0
  -14.5112   -6.5419   -0.0000 C   0  0  0  0  0  0  0  0  0  0  0  0
  -13.2147   -8.8019   -0.0000 C   0  0  0  0  0  0  0  0  0  0  0  0
  -15.8077   -7.2675   -0.0000 C   0  0  0  0  0  0  0  0  0  0  0  0
  -14.5350   -9.5394   -0.0000 C   0  0  0  0  0  0  0  0  0  0  0  0
  -15.8434   -8.7543   -0.0000 C   0  0  0  0  0  0  0  0  0  0  0  0
  1  2  2  0  0  0  0
  2  3  1  0  0  0  0
  2  4  1  0  0  0  0
  3  5  1  0  0  0  0
  3  6  1  0  0  0  0
  4  7  1  0  0  0  0
  5  8  1  0  0  0  0
  5  9  1  0  0  0  0
  6 10  1  0  0  0  0
  7 11  1  0  0  0  0
  8 12  1  0  0  0  0
  9 13  1  0  0  0  0
 10 14  1  0  0  0  0
 11 15  2  0  0  0  0
 12 16  1  0  0  0  0
 14 17  2  0  0  0  0
 16 18  1  0  0  0  0
 18 19  2  0  0  0  0
 18 20  1  0  0  0  0
 21 20  1  1  0  0  0
 21 22  1  0  0  0  0
 21 23  1  0  0  0  0
 22 24  2  0  0  0  0
 22 25  1  0  0  0  0
 23 26  1  0  0  0  0
 25 27  1  0  0  0  0
 25 28  1  0  0  0  0
 26 29  2  0  0  0  0
 26 30  1  0  0  0  0
 27 31  1  0  0  0  0
 28 32  1  0  0  0  0
 29 33  1  0  0  0  0
 30 34  2  0  0  0  0
 31 35  1  0  0  0  0
 33 36  2  0  0  0  0
 33 37  1  0  0  0  0
 34 38  1  0  0  0  0
 35 39  1  0  0  0  0
 36 40  1  0  0  0  0
 38 41  2  0  0  0  0
 39 42  1  0  0  0  0
 39 43  1  0  0  0  0
 42 44  1  0  0  0  0
 43 45  1  0  0  0  0
 44 46  1  0  0  0  0
  7 10  2  0  0  0  0
 13 16  1  0  0  0  0
 15 17  1  0  0  0  0
 32 35  1  0  0  0  0
 34 36  1  0  0  0  0
 40 41  1  0  0  0  0
 45 46  1  0  0  0  0
M  END
>  <MolRegNo>
1526080

>  <m>
=

>  <Value>
7300

>  <Unit>
nM

>  <Type>
IC50

>  <pValue>
5.14

>  <Ligand Efficiency>
0

>  <Binding Efficiency>
0

>  <Surface Efficiency>
0

>  <Assay Index>
763676

>  <Assay Category>


>  <Assay Organism>
Homo sapiens

>  <Target ID>
17045

>  <Target Name>
Cytochrome P450 3A4

>  <Target Organism>
Homo sapiens

>  <Target Description>
Target is a single protein chain

>  <Sequence Accession>
P08684

>  <Reference>
Bioorg Med Chem Lett 23 (6), 1870-1873 (2013)

>  <Pubmed ID>
23402880

>  <DOI>
10.1016/j.bmcl.2013.01.011

$$$$
1526082
Actelion Java MolfileCreator 1.0

 47 53  0  0  0  0  0  0  0  0999 V2000
    0.0000   -0.0000   -0.0000 Cl  0  0  0  0  0  0  0  0  0  0  0  0
    1.4372    0.4039   -0.0000 C   0  0  0  0  0  0  0  0  0  0  0  0
    1.8173    1.8648   -0.0000 C   0  0  0  0  0  0  0  0  0  0  0  0
    2.4825   -0.6414   -0.0000 C   0  0  0  0  0  0  0  0  0  0  0  0
    3.2427    2.2687   -0.0000 C   0  0  0  0  0  0  0  0  0  0  0  0
    0.7483    2.9339   -0.0000 C   0  0  0  0  0  0  0  0  0  0  0  0
    3.9197   -0.2494   -0.0000 C   0  0  0  0  0  0  0  0  0  0  0  0
    4.2998    1.2353   -0.0000 C   0  0  0  0  0  0  0  0  0  0  0  0
    0.7364    4.4424   -0.0000 C   0  0  0  0  0  0  0  0  0  0  0  0
    5.1788   -1.0453   -0.0000 N   0  0  0  0  0  0  0  0  0  0  0  0
    5.7965    1.3422   -0.0000 O   0  0  0  0  0  0  0  0  0  0  0  0
    2.0193    5.2026   -0.0000 N   0  0  0  0  0  0  0  0  0  0  0  0
   -0.5820    5.2026   -0.0000 C   0  0  0  0  0  0  0  0  0  0  0  0
    6.3310   -0.0713   -0.0000 C   0  0  0  0  0  0  0  0  0  0  0  0
    3.3140    4.4661   -0.0000 C   0  0  0  0  0  0  0  0  0  0  0  0
   -0.5939    6.7111   -0.0000 O   0  0  0  0  0  0  0  0  0  0  0  0
   -1.8886    4.4661   -0.0000 N   0  0  0  0  0  0  0  0  0  0  0  0
    7.7682   -0.4395   -0.0000 O   0  0  0  0  0  0  0  0  0  0  0  0
    3.3021    2.9814   -0.0000 O   0  0  0  0  0  0  0  0  0  0  0  0
    4.5968    5.2263   -0.0000 N   0  0  0  0  0  0  0  0  0  0  0  0
   -3.2071    5.2382   -0.0000 C   0  0  0  0  0  0  0  0  0  0  0  0
   -1.9005    2.9814   -0.0000 C   0  0  0  0  0  0  0  0  0  0  0  0
    5.8796    4.4899   -0.0000 C   0  0  0  0  0  0  0  0  0  0  0  0
    4.5849    6.7348   -0.0000 C   0  0  0  0  0  0  0  0  0  0  0  0
   -4.5136    4.5018   -0.0000 C   0  0  0  0  0  0  0  0  0  0  0  0
   -3.2189    2.2449   -0.0000 C   0  0  0  0  0  0  0  0  0  0  0  0
    7.1624    5.2501   -0.0000 C   0  0  0  0  0  0  0  0  0  0  0  0
    5.8677    7.5069   -0.0000 C   0  0  0  0  0  0  0  0  0  0  0  0
   -4.5255    3.0051   -0.0000 C   0  0  0  0  0  0  0  0  0  0  0  0
    7.1506    6.7586   -0.0000 C   0  0  0  0  0  0  0  0  0  0  0  0
   -5.8440    2.2687   -0.0000 N   0  0  0  0  0  0  0  0  0  0  0  0
    8.4453    7.5188   -0.0000 N   0  0  0  0  0  0  0  0  0  0  0  0
   -7.1506    3.0408   -0.0000 C   0  0  0  0  0  0  0  0  0  0  0  0
   -5.8559    0.7839   -0.0000 C   0  0  0  0  0  0  0  0  0  0  0  0
    8.4334    9.0273   -0.0000 C   0  0  0  0  0  0  0  0  0  0  0  0
    9.7281    6.7705   -0.0000 C   0  0  0  0  0  0  0  0  0  0  0  0
   -8.4453    2.3162   -0.0000 C   0  0  0  0  0  0  0  0  0  0  0  0
   -7.1743    0.0475   -0.0000 C   0  0  0  0  0  0  0  0  0  0  0  0
    7.1268    9.7993   -0.0000 O   0  0  0  0  0  0  0  0  0  0  0  0
    9.7281    9.7875   -0.0000 N   0  0  0  0  0  0  0  0  0  0  0  0
   11.0109    7.5188   -0.0000 C   0  0  0  0  0  0  0  0  0  0  0  0
   -8.4809    0.8196   -0.0000 C   0  0  0  0  0  0  0  0  0  0  0  0
   11.0109    9.0392   -0.0000 C   0  0  0  0  0  0  0  0  0  0  0  0
   12.2937    6.7586   -0.0000 C   0  0  0  0  0  0  0  0  0  0  0  0
   12.3056    9.7875   -0.0000 C   0  0  0  0  0  0  0  0  0  0  0  0
   13.6003    7.5069   -0.0000 C   0  0  0  0  0  0  0  0  0  0  0  0
   13.5884    9.0392   -0.0000 C   0  0  0  0  0  0  0  0  0  0  0  0
  1  2  1  0  0  0  0
  2  3  2  0  0  0  0
  2  4  1  0  0  0  0
  3  5  1  0  0  0  0
  3  6  1  0  0  0  0
  4  7  2  0  0  0  0
  5  8  2  0  0  0  0
  6  9  1  0  0  0  0
  7 10  1  0  0  0  0
  8 11  1  0  0  0  0
  9 12  1  1  0  0  0
  9 13  1  0  0  0  0
 10 14  1  0  0  0  0
 12 15  1  0  0  0  0
 13 16  2  0  0  0  0
 13 17  1  0  0  0  0
 14 18  2  0  0  0  0
 15 19  2  0  0  0  0
 15 20  1  0  0  0  0
 17 21  1  0  0  0  0
 17 22  1  0  0  0  0
 20 23  1  0  0  0  0
 20 24  1  0  0  0  0
 21 25  1  0  0  0  0
 22 26  1  0  0  0  0
 23 27  1  0  0  0  0
 24 28  1  0  0  0  0
 25 29  1  0  0  0  0
 27 30  1  0  0  0  0
 29 31  1  0  0  0  0
 30 32  1  0  0  0  0
 31 33  1  0  0  0  0
 31 34  1  0  0  0  0
 32 35  1  0  0  0  0
 32 36  1  0  0  0  0
 33 37  1  0  0  0  0
 34 38  1  0  0  0  0
 35 39  2  0  0  0  0
 35 40  1  0  0  0  0
 36 41  1  0  0  0  0
 37 42  1  0  0  0  0
 40 43  1  0  0  0  0
 41 44  1  0  0  0  0
 43 45  1  0  0  0  0
 44 46  2  0  0  0  0
 45 47  2  0  0  0  0
  7  8  1  0  0  0  0
 11 14  1  0  0  0  0
 26 29  1  0  0  0  0
 28 30  1  0  0  0  0
 38 42  1  0  0  0  0
 41 43  2  0  0  0  0
 46 47  1  0  0  0  0
M  END
>  <MolRegNo>
1526082

>  <m>
=

>  <Value>
5000

>  <Unit>
nM

>  <Type>
IC50

>  <pValue>
5.3

>  <Ligand Efficiency>
0

>  <Binding Efficiency>
0

>  <Surface Efficiency>
0

>  <Assay Index>
763676

>  <Assay Category>


>  <Assay Organism>
Homo sapiens

>  <Target ID>
17045

>  <Target Name>
Cytochrome P450 3A4

>  <Target Organism>
Homo sapiens

>  <Target Description>
Target is a single protein chain

>  <Sequence Accession>
P08684

>  <Reference>
Bioorg Med Chem Lett 23 (6), 1870-1873 (2013)

>  <Pubmed ID>
23402880

>  <DOI>
10.1016/j.bmcl.2013.01.011

$$$$
1526085
Actelion Java MolfileCreator 1.0

 47 53  0  0  0  0  0  0  0  0999 V2000
    0.0000   -0.0000   -0.0000 Br  0  0  0  0  0  0  0  0  0  0  0  0
    0.3799    1.4602   -0.0000 C   0  0  0  0  0  0  0  0  0  0  0  0
    1.8163    1.8519   -0.0000 C   0  0  0  0  0  0  0  0  0  0  0  0
   -0.6885    2.5286   -0.0000 C   0  0  0  0  0  0  0  0  0  0  0  0
    3.0747    1.0565   -0.0000 N   0  0  0  0  0  0  0  0  0  0  0  0
    2.1843    3.3239   -0.0000 C   0  0  0  0  0  0  0  0  0  0  0  0
   -0.3087    3.9887   -0.0000 C   0  0  0  0  0  0  0  0  0  0  0  0
    4.2262    2.0300   -0.0000 C   0  0  0  0  0  0  0  0  0  0  0  0
    3.6801    3.4308   -0.0000 O   0  0  0  0  0  0  0  0  0  0  0  0
    1.1159    4.3805   -0.0000 C   0  0  0  0  0  0  0  0  0  0  0  0
   -1.3771    5.0572   -0.0000 C   0  0  0  0  0  0  0  0  0  0  0  0
    5.6626    1.6620   -0.0000 O   0  0  0  0  0  0  0  0  0  0  0  0
   -1.3889    6.5648   -0.0000 C   0  0  0  0  0  0  0  0  0  0  0  0
   -0.1068    7.3246   -0.0000 N   0  0  0  0  0  0  0  0  0  0  0  0
   -2.7066    7.3246   -0.0000 C   0  0  0  0  0  0  0  0  0  0  0  0
    1.1871    6.5885   -0.0000 C   0  0  0  0  0  0  0  0  0  0  0  0
   -2.7185    8.8322   -0.0000 O   0  0  0  0  0  0  0  0  0  0  0  0
   -4.0125    6.5885   -0.0000 N   0  0  0  0  0  0  0  0  0  0  0  0
    1.1753    5.1046   -0.0000 O   0  0  0  0  0  0  0  0  0  0  0  0
    2.4692    7.3483   -0.0000 N   0  0  0  0  0  0  0  0  0  0  0  0
   -5.3302    7.3602   -0.0000 C   0  0  0  0  0  0  0  0  0  0  0  0
   -4.0244    5.1046   -0.0000 C   0  0  0  0  0  0  0  0  0  0  0  0
    3.7513    6.6123   -0.0000 C   0  0  0  0  0  0  0  0  0  0  0  0
    2.4573    8.8559   -0.0000 C   0  0  0  0  0  0  0  0  0  0  0  0
   -6.6360    6.6242   -0.0000 C   0  0  0  0  0  0  0  0  0  0  0  0
   -5.3421    4.3686   -0.0000 C   0  0  0  0  0  0  0  0  0  0  0  0
    5.0334    7.3720   -0.0000 C   0  0  0  0  0  0  0  0  0  0  0  0
    3.7394    9.6276   -0.0000 C   0  0  0  0  0  0  0  0  0  0  0  0
   -6.6479    5.1284   -0.0000 C   0  0  0  0  0  0  0  0  0  0  0  0
    5.0215    8.8797   -0.0000 C   0  0  0  0  0  0  0  0  0  0  0  0
   -7.9656    4.3924   -0.0000 N   0  0  0  0  0  0  0  0  0  0  0  0
    6.3155    9.6395   -0.0000 N   0  0  0  0  0  0  0  0  0  0  0  0
   -9.2714    5.1640   -0.0000 C   0  0  0  0  0  0  0  0  0  0  0  0
   -7.9775    2.9085   -0.0000 C   0  0  0  0  0  0  0  0  0  0  0  0
    6.3036   11.1471   -0.0000 C   0  0  0  0  0  0  0  0  0  0  0  0
    7.5976    8.8916   -0.0000 C   0  0  0  0  0  0  0  0  0  0  0  0
  -10.5654    4.4398   -0.0000 C   0  0  0  0  0  0  0  0  0  0  0  0
   -9.2952    2.1724   -0.0000 C   0  0  0  0  0  0  0  0  0  0  0  0
    4.9978   11.9187   -0.0000 O   0  0  0  0  0  0  0  0  0  0  0  0
    7.5976   11.9069   -0.0000 N   0  0  0  0  0  0  0  0  0  0  0  0
    8.8797    9.6395   -0.0000 C   0  0  0  0  0  0  0  0  0  0  0  0
  -10.6010    2.9559   -0.0000 C   0  0  0  0  0  0  0  0  0  0  0  0
    8.8797   11.1590   -0.0000 C   0  0  0  0  0  0  0  0  0  0  0  0
   10.1618    8.8797   -0.0000 C   0  0  0  0  0  0  0  0  0  0  0  0
   10.1737   11.9069   -0.0000 C   0  0  0  0  0  0  0  0  0  0  0  0
   11.4676    9.6276   -0.0000 C   0  0  0  0  0  0  0  0  0  0  0  0
   11.4558   11.1590   -0.0000 C   0  0  0  0  0  0  0  0  0  0  0  0
  1  2  1  0  0  0  0
  2  3  2  0  0  0  0
  2  4  1  0  0  0  0
  3  5  1  0  0  0  0
  3  6  1  0  0  0  0
  4  7  2  0  0  0  0
  5  8  1  0  0  0  0
  6  9  1  0  0  0  0
  6 10  2  0  0  0  0
  7 11  1  0  0  0  0
  8 12  2  0  0  0  0
 11 13  1  0  0  0  0
 13 14  1  1  0  0  0
 13 15  1  0  0  0  0
 14 16  1  0  0  0  0
 15 17  2  0  0  0  0
 15 18  1  0  0  0  0
 16 19  2  0  0  0  0
 16 20  1  0  0  0  0
 18 21  1  0  0  0  0
 18 22  1  0  0  0  0
 20 23  1  0  0  0  0
 20 24  1  0  0  0  0
 21 25  1  0  0  0  0
 22 26  1  0  0  0  0
 23 27  1  0  0  0  0
 24 28  1  0  0  0  0
 25 29  1  0  0  0  0
 27 30  1  0  0  0  0
 29 31  1  0  0  0  0
 30 32  1  0  0  0  0
 31 33  1  0  0  0  0
 31 34  1  0  0  0  0
 32 35  1  0  0  0  0
 32 36  1  0  0  0  0
 33 37  1  0  0  0  0
 34 38  1  0  0  0  0
 35 39  2  0  0  0  0
 35 40  1  0  0  0  0
 36 41  1  0  0  0  0
 37 42  1  0  0  0  0
 40 43  1  0  0  0  0
 41 44  1  0  0  0  0
 43 45  1  0  0  0  0
 44 46  2  0  0  0  0
 45 47  2  0  0  0  0
  7 10  1  0  0  0  0
  8  9  1  0  0  0  0
 26 29  1  0  0  0  0
 28 30  1  0  0  0  0
 38 42  1  0  0  0  0
 41 43  2  0  0  0  0
 46 47  1  0  0  0  0
M  END
>  <MolRegNo>
1526085

>  <m>
=

>  <Value>
7200

>  <Unit>
nM

>  <Type>
IC50

>  <pValue>
5.14

>  <Ligand Efficiency>
0

>  <Binding Efficiency>
0

>  <Surface Efficiency>
0

>  <Assay Index>
763676

>  <Assay Category>


>  <Assay Organism>
Homo sapiens

>  <Target ID>
17045

>  <Target Name>
Cytochrome P450 3A4

>  <Target Organism>
Homo sapiens

>  <Target Description>
Target is a single protein chain

>  <Sequence Accession>
P08684

>  <Reference>
Bioorg Med Chem Lett 23 (6), 1870-1873 (2013)

>  <Pubmed ID>
23402880

>  <DOI>
10.1016/j.bmcl.2013.01.011

$$$$
1526086
Actelion Java MolfileCreator 1.0

 47 53  0  0  0  0  0  0  0  0999 V2000
    0.0000   -0.0000   -0.0000 Cl  0  0  0  0  0  0  0  0  0  0  0  0
    0.3799    1.4601   -0.0000 C   0  0  0  0  0  0  0  0  0  0  0  0
    1.8162    1.8518   -0.0000 C   0  0  0  0  0  0  0  0  0  0  0  0
   -0.6885    2.5285   -0.0000 C   0  0  0  0  0  0  0  0  0  0  0  0
    3.0745    1.0565   -0.0000 N   0  0  0  0  0  0  0  0  0  0  0  0
    2.1842    3.3238   -0.0000 C   0  0  0  0  0  0  0  0  0  0  0  0
   -0.3086    3.9886   -0.0000 C   0  0  0  0  0  0  0  0  0  0  0  0
    4.2260    2.0299   -0.0000 C   0  0  0  0  0  0  0  0  0  0  0  0
    3.6800    3.4307   -0.0000 O   0  0  0  0  0  0  0  0  0  0  0  0
    1.1040    4.3803   -0.0000 C   0  0  0  0  0  0  0  0  0  0  0  0
   -1.3770    5.0570   -0.0000 C   0  0  0  0  0  0  0  0  0  0  0  0
    5.6624    1.6619   -0.0000 O   0  0  0  0  0  0  0  0  0  0  0  0
   -1.3889    6.5646   -0.0000 C   0  0  0  0  0  0  0  0  0  0  0  0
   -0.1068    7.3243   -0.0000 N   0  0  0  0  0  0  0  0  0  0  0  0
   -2.7065    7.3243   -0.0000 C   0  0  0  0  0  0  0  0  0  0  0  0
    1.1871    6.5883   -0.0000 C   0  0  0  0  0  0  0  0  0  0  0  0
   -2.7184    8.8319   -0.0000 O   0  0  0  0  0  0  0  0  0  0  0  0
   -4.0123    6.5883   -0.0000 N   0  0  0  0  0  0  0  0  0  0  0  0
    1.1752    5.1045   -0.0000 O   0  0  0  0  0  0  0  0  0  0  0  0
    2.4691    7.3480   -0.0000 N   0  0  0  0  0  0  0  0  0  0  0  0
   -5.3300    7.3599   -0.0000 C   0  0  0  0  0  0  0  0  0  0  0  0
   -4.0242    5.1045   -0.0000 C   0  0  0  0  0  0  0  0  0  0  0  0
    3.7512    6.6120   -0.0000 C   0  0  0  0  0  0  0  0  0  0  0  0
    2.4573    8.8556   -0.0000 C   0  0  0  0  0  0  0  0  0  0  0  0
   -6.6358    6.6239   -0.0000 C   0  0  0  0  0  0  0  0  0  0  0  0
   -5.3419    4.3685   -0.0000 C   0  0  0  0  0  0  0  0  0  0  0  0
    5.0332    7.3718   -0.0000 C   0  0  0  0  0  0  0  0  0  0  0  0
    3.7393    9.6272   -0.0000 C   0  0  0  0  0  0  0  0  0  0  0  0
   -6.6477    5.1282   -0.0000 C   0  0  0  0  0  0  0  0  0  0  0  0
    5.0214    8.8794   -0.0000 C   0  0  0  0  0  0  0  0  0  0  0  0
   -7.9653    4.3922   -0.0000 N   0  0  0  0  0  0  0  0  0  0  0  0
    6.3153    9.6391   -0.0000 N   0  0  0  0  0  0  0  0  0  0  0  0
   -9.2711    5.1638   -0.0000 C   0  0  0  0  0  0  0  0  0  0  0  0
   -7.9772    2.9084   -0.0000 C   0  0  0  0  0  0  0  0  0  0  0  0
    6.3034   11.1467   -0.0000 C   0  0  0  0  0  0  0  0  0  0  0  0
    7.5973    8.8912   -0.0000 C   0  0  0  0  0  0  0  0  0  0  0  0
  -10.5650    4.4397   -0.0000 C   0  0  0  0  0  0  0  0  0  0  0  0
   -9.2949    2.1724   -0.0000 C   0  0  0  0  0  0  0  0  0  0  0  0
    4.9976   11.9183   -0.0000 O   0  0  0  0  0  0  0  0  0  0  0  0
    7.5973   11.9064   -0.0000 N   0  0  0  0  0  0  0  0  0  0  0  0
    8.8794    9.6391   -0.0000 C   0  0  0  0  0  0  0  0  0  0  0  0
  -10.6006    2.9440   -0.0000 C   0  0  0  0  0  0  0  0  0  0  0  0
    8.8794   11.1586   -0.0000 C   0  0  0  0  0  0  0  0  0  0  0  0
   10.1614    8.8794   -0.0000 C   0  0  0  0  0  0  0  0  0  0  0  0
   10.1733   11.9064   -0.0000 C   0  0  0  0  0  0  0  0  0  0  0  0
   11.4672    9.6272   -0.0000 C   0  0  0  0  0  0  0  0  0  0  0  0
   11.4553   11.1586   -0.0000 C   0  0  0  0  0  0  0  0  0  0  0  0
  1  2  1  0  0  0  0
  2  3  2  0  0  0  0
  2  4  1  0  0  0  0
  3  5  1  0  0  0  0
  3  6  1  0  0  0  0
  4  7  2  0  0  0  0
  5  8  1  0  0  0  0
  6  9  1  0  0  0  0
  6 10  2  0  0  0  0
  7 11  1  0  0  0  0
  8 12  2  0  0  0  0
 11 13  1  0  0  0  0
 13 14  1  1  0  0  0
 13 15  1  0  0  0  0
 14 16  1  0  0  0  0
 15 17  2  0  0  0  0
 15 18  1  0  0  0  0
 16 19  2  0  0  0  0
 16 20  1  0  0  0  0
 18 21  1  0  0  0  0
 18 22  1  0  0  0  0
 20 23  1  0  0  0  0
 20 24  1  0  0  0  0
 21 25  1  0  0  0  0
 22 26  1  0  0  0  0
 23 27  1  0  0  0  0
 24 28  1  0  0  0  0
 25 29  1  0  0  0  0
 27 30  1  0  0  0  0
 29 31  1  0  0  0  0
 30 32  1  0  0  0  0
 31 33  1  0  0  0  0
 31 34  1  0  0  0  0
 32 35  1  0  0  0  0
 32 36  1  0  0  0  0
 33 37  1  0  0  0  0
 34 38  1  0  0  0  0
 35 39  2  0  0  0  0
 35 40  1  0  0  0  0
 36 41  1  0  0  0  0
 37 42  1  0  0  0  0
 40 43  1  0  0  0  0
 41 44  1  0  0  0  0
 43 45  1  0  0  0  0
 44 46  2  0  0  0  0
 45 47  2  0  0  0  0
  7 10  1  0  0  0  0
  8  9  1  0  0  0  0
 26 29  1  0  0  0  0
 28 30  1  0  0  0  0
 38 42  1  0  0  0  0
 41 43  2  0  0  0  0
 46 47  1  0  0  0  0
M  END
>  <MolRegNo>
1526086

>  <m>
=

>  <Value>
17000

>  <Unit>
nM

>  <Type>
IC50

>  <pValue>
4.77

>  <Ligand Efficiency>
0

>  <Binding Efficiency>
0

>  <Surface Efficiency>
0

>  <Assay Index>
763676

>  <Assay Category>


>  <Assay Organism>
Homo sapiens

>  <Target ID>
17045

>  <Target Name>
Cytochrome P450 3A4

>  <Target Organism>
Homo sapiens

>  <Target Description>
Target is a single protein chain

>  <Sequence Accession>
P08684

>  <Reference>
Bioorg Med Chem Lett 23 (6), 1870-1873 (2013)

>  <Pubmed ID>
23402880

>  <DOI>
10.1016/j.bmcl.2013.01.011

$$$$
1526088
Actelion Java MolfileCreator 1.0

 48 54  0  0  0  0  0  0  0  0999 V2000
    0.0000   -0.0000   -0.0000 O   0  0  0  0  0  0  0  0  0  0  0  0
    1.2837   -0.7488   -0.0000 C   0  0  0  0  0  0  0  0  0  0  0  0
    1.2718   -2.2346   -0.0000 N   0  0  0  0  0  0  0  0  0  0  0  0
    2.5793    0.0119   -0.0000 N   0  0  0  0  0  0  0  0  0  0  0  0
   -0.0475   -2.9716   -0.0000 C   0  0  0  0  0  0  0  0  0  0  0  0
    2.5555   -2.9834   -0.0000 C   0  0  0  0  0  0  0  0  0  0  0  0
    3.8630   -0.7369   -0.0000 C   0  0  0  0  0  0  0  0  0  0  0  0
   -0.0594   -4.4573   -0.0000 C   0  0  0  0  0  0  0  0  0  0  0  0
   -1.3550   -2.1990   -0.0000 C   0  0  0  0  0  0  0  0  0  0  0  0
    3.8393   -2.2346   -0.0000 C   0  0  0  0  0  0  0  0  0  0  0  0
    5.1586    0.0119   -0.0000 C   0  0  0  0  0  0  0  0  0  0  0  0
   -1.3669   -5.1943   -0.0000 C   0  0  0  0  0  0  0  0  0  0  0  0
   -2.6625   -2.9478   -0.0000 C   0  0  0  0  0  0  0  0  0  0  0  0
    5.1230   -2.9953   -0.0000 C   0  0  0  0  0  0  0  0  0  0  0  0
    6.4423   -0.7369   -0.0000 C   0  0  0  0  0  0  0  0  0  0  0  0
   -2.6744   -4.4336   -0.0000 N   0  0  0  0  0  0  0  0  0  0  0  0
    6.4305   -2.2465   -0.0000 C   0  0  0  0  0  0  0  0  0  0  0  0
   -3.9819   -5.1705   -0.0000 C   0  0  0  0  0  0  0  0  0  0  0  0
   -3.9938   -6.6563   -0.0000 O   0  0  0  0  0  0  0  0  0  0  0  0
   -5.3013   -4.4098   -0.0000 N   0  0  0  0  0  0  0  0  0  0  0  0
   -6.6088   -5.1467   -0.0000 C   0  0  0  0  0  0  0  0  0  0  0  0
   -7.9281   -4.3860   -0.0000 C   0  0  0  0  0  0  0  0  0  0  0  0
   -6.6206   -6.6325   -0.0000 C   0  0  0  0  0  0  0  0  0  0  0  0
   -7.9400   -2.8765   -0.0000 O   0  0  0  0  0  0  0  0  0  0  0  0
   -9.2356   -5.1230   -0.0000 N   0  0  0  0  0  0  0  0  0  0  0  0
   -5.5747   -7.6785   -0.0000 C   0  0  0  0  0  0  0  0  0  0  0  0
  -10.5550   -4.3504   -0.0000 C   0  0  0  0  0  0  0  0  0  0  0  0
   -9.2475   -6.6088   -0.0000 C   0  0  0  0  0  0  0  0  0  0  0  0
   -5.9788   -9.1168   -0.0000 C   0  0  0  0  0  0  0  0  0  0  0  0
   -4.1483   -7.2744   -0.0000 C   0  0  0  0  0  0  0  0  0  0  0  0
  -11.8625   -5.0873   -0.0000 C   0  0  0  0  0  0  0  0  0  0  0  0
  -10.5669   -7.3457   -0.0000 C   0  0  0  0  0  0  0  0  0  0  0  0
   -4.9328  -10.1627   -0.0000 C   0  0  0  0  0  0  0  0  0  0  0  0
   -3.0904   -8.3085   -0.0000 C   0  0  0  0  0  0  0  0  0  0  0  0
  -11.8744   -6.5850   -0.0000 C   0  0  0  0  0  0  0  0  0  0  0  0
   -3.4946   -9.7705   -0.0000 C   0  0  0  0  0  0  0  0  0  0  0  0
   -5.3369  -11.6010   -0.0000 C   0  0  0  0  0  0  0  0  0  0  0  0
   -1.5928   -8.2015   -0.0000 C   0  0  0  0  0  0  0  0  0  0  0  0
  -13.1937   -7.3219   -0.0000 N   0  0  0  0  0  0  0  0  0  0  0  0
   -2.2346  -10.5669   -0.0000 N   0  0  0  0  0  0  0  0  0  0  0  0
   -6.7989  -11.9813   -0.0000 C   0  0  0  0  0  0  0  0  0  0  0  0
   -1.0460   -9.5922   -0.0000 N   0  0  0  0  0  0  0  0  0  0  0  0
   -0.7964   -6.9178   -0.0000 C   0  0  0  0  0  0  0  0  0  0  0  0
  -14.5012   -6.5493   -0.0000 C   0  0  0  0  0  0  0  0  0  0  0  0
  -13.2056   -8.8077   -0.0000 C   0  0  0  0  0  0  0  0  0  0  0  0
  -15.7968   -7.2744   -0.0000 C   0  0  0  0  0  0  0  0  0  0  0  0
  -14.5250   -9.5447   -0.0000 C   0  0  0  0  0  0  0  0  0  0  0  0
  -15.8325   -8.7721   -0.0000 C   0  0  0  0  0  0  0  0  0  0  0  0
  1  2  2  0  0  0  0
  2  3  1  0  0  0  0
  2  4  1  0  0  0  0
  3  5  1  0  0  0  0
  3  6  1  0  0  0  0
  4  7  1  0  0  0  0
  5  8  1  0  0  0  0
  5  9  1  0  0  0  0
  6 10  1  0  0  0  0
  7 11  1  0  0  0  0
  8 12  1  0  0  0  0
  9 13  1  0  0  0  0
 10 14  1  0  0  0  0
 11 15  2  0  0  0  0
 12 16  1  0  0  0  0
 14 17  2  0  0  0  0
 16 18  1  0  0  0  0
 18 19  2  0  0  0  0
 18 20  1  0  0  0  0
 20 21  1  0  0  0  0
 21 22  1  0  0  0  0
 21 23  1  0  0  0  0
 22 24  2  0  0  0  0
 22 25  1  0  0  0  0
 23 26  1  0  0  0  0
 25 27  1  0  0  0  0
 25 28  1  0  0  0  0
 26 29  2  0  0  0  0
 26 30  1  0  0  0  0
 27 31  1  0  0  0  0
 28 32  1  0  0  0  0
 29 33  1  0  0  0  0
 30 34  2  0  0  0  0
 31 35  1  0  0  0  0
 33 36  2  0  0  0  0
 33 37  1  0  0  0  0
 34 38  1  0  0  0  0
 35 39  1  0  0  0  0
 36 40  1  0  0  0  0
 37 41  1  0  0  0  0
 38 42  2  0  0  0  0
 38 43  1  0  0  0  0
 39 44  1  0  0  0  0
 39 45  1  0  0  0  0
 44 46  1  0  0  0  0
 45 47  1  0  0  0  0
 46 48  1  0  0  0  0
  7 10  2  0  0  0  0
 13 16  1  0  0  0  0
 15 17  1  0  0  0  0
 32 35  1  0  0  0  0
 34 36  1  0  0  0  0
 40 42  1  0  0  0  0
 47 48  1  0  0  0  0
M  END
>  <MolRegNo>
1526088

>  <m>
=

>  <Value>
6900

>  <Unit>
nM

>  <Type>
IC50

>  <pValue>
5.16

>  <Ligand Efficiency>
0

>  <Binding Efficiency>
0

>  <Surface Efficiency>
0

>  <Assay Index>
763676

>  <Assay Category>


>  <Assay Organism>
Homo sapiens

>  <Target ID>
17045

>  <Target Name>
Cytochrome P450 3A4

>  <Target Organism>
Homo sapiens

>  <Target Description>
Target is a single protein chain

>  <Sequence Accession>
P08684

>  <Reference>
Bioorg Med Chem Lett 23 (6), 1870-1873 (2013)

>  <Pubmed ID>
23402880

>  <DOI>
10.1016/j.bmcl.2013.01.011

$$$$
1526089
Actelion Java MolfileCreator 1.0

 48 54  0  0  0  0  0  0  0  0999 V2000
    0.0000   -0.0000   -0.0000 O   0  0  0  0  0  0  0  0  0  0  0  0
    1.2842   -0.7491   -0.0000 C   0  0  0  0  0  0  0  0  0  0  0  0
    1.2723   -2.2355   -0.0000 N   0  0  0  0  0  0  0  0  0  0  0  0
    2.5803    0.0119   -0.0000 N   0  0  0  0  0  0  0  0  0  0  0  0
   -0.0476   -2.9727   -0.0000 C   0  0  0  0  0  0  0  0  0  0  0  0
    2.5565   -2.9846   -0.0000 C   0  0  0  0  0  0  0  0  0  0  0  0
    3.8645   -0.7372   -0.0000 C   0  0  0  0  0  0  0  0  0  0  0  0
   -0.0595   -4.4591   -0.0000 C   0  0  0  0  0  0  0  0  0  0  0  0
   -1.3556   -2.1998   -0.0000 C   0  0  0  0  0  0  0  0  0  0  0  0
    3.8407   -2.2355   -0.0000 C   0  0  0  0  0  0  0  0  0  0  0  0
    5.1606    0.0119   -0.0000 C   0  0  0  0  0  0  0  0  0  0  0  0
   -1.3674   -5.1963   -0.0000 C   0  0  0  0  0  0  0  0  0  0  0  0
   -2.6636   -2.9489   -0.0000 C   0  0  0  0  0  0  0  0  0  0  0  0
    5.1250   -2.9965   -0.0000 C   0  0  0  0  0  0  0  0  0  0  0  0
    6.4448   -0.7372   -0.0000 C   0  0  0  0  0  0  0  0  0  0  0  0
   -2.6754   -4.4353   -0.0000 N   0  0  0  0  0  0  0  0  0  0  0  0
    6.4330   -2.2474   -0.0000 C   0  0  0  0  0  0  0  0  0  0  0  0
   -3.9834   -5.1725   -0.0000 C   0  0  0  0  0  0  0  0  0  0  0  0
   -3.9953   -6.6589   -0.0000 O   0  0  0  0  0  0  0  0  0  0  0  0
   -5.3033   -4.4115   -0.0000 N   0  0  0  0  0  0  0  0  0  0  0  0
   -6.6113   -5.1487   -0.0000 C   0  0  0  0  0  0  0  0  0  0  0  0
   -7.9312   -4.3877   -0.0000 C   0  0  0  0  0  0  0  0  0  0  0  0
   -6.6232   -6.6351   -0.0000 C   0  0  0  0  0  0  0  0  0  0  0  0
   -7.9431   -2.8776   -0.0000 O   0  0  0  0  0  0  0  0  0  0  0  0
   -9.2392   -5.1250   -0.0000 N   0  0  0  0  0  0  0  0  0  0  0  0
   -5.5768   -7.6815   -0.0000 C   0  0  0  0  0  0  0  0  0  0  0  0
  -10.5591   -4.3521   -0.0000 C   0  0  0  0  0  0  0  0  0  0  0  0
   -9.2511   -6.6113   -0.0000 C   0  0  0  0  0  0  0  0  0  0  0  0
   -5.9811   -9.1203   -0.0000 C   0  0  0  0  0  0  0  0  0  0  0  0
   -4.1499   -7.2772   -0.0000 C   0  0  0  0  0  0  0  0  0  0  0  0
  -11.8671   -5.0893   -0.0000 C   0  0  0  0  0  0  0  0  0  0  0  0
  -10.5710   -7.3486   -0.0000 C   0  0  0  0  0  0  0  0  0  0  0  0
   -4.9347  -10.1667   -0.0000 C   0  0  0  0  0  0  0  0  0  0  0  0
   -3.0916   -8.3117   -0.0000 C   0  0  0  0  0  0  0  0  0  0  0  0
  -11.8790   -6.5875   -0.0000 C   0  0  0  0  0  0  0  0  0  0  0  0
   -3.4959   -9.7743   -0.0000 C   0  0  0  0  0  0  0  0  0  0  0  0
   -5.3390  -11.6055   -0.0000 C   0  0  0  0  0  0  0  0  0  0  0  0
   -1.5934   -8.2047   -0.0000 C   0  0  0  0  0  0  0  0  0  0  0  0
  -13.1989   -7.3248   -0.0000 N   0  0  0  0  0  0  0  0  0  0  0  0
   -2.2355  -10.5710   -0.0000 N   0  0  0  0  0  0  0  0  0  0  0  0
   -6.8016  -11.9860   -0.0000 C   0  0  0  0  0  0  0  0  0  0  0  0
   -4.2926  -12.6519   -0.0000 C   0  0  0  0  0  0  0  0  0  0  0  0
   -1.0464   -9.5959   -0.0000 N   0  0  0  0  0  0  0  0  0  0  0  0
  -14.5069   -6.5519   -0.0000 C   0  0  0  0  0  0  0  0  0  0  0  0
  -13.2107   -8.8111   -0.0000 C   0  0  0  0  0  0  0  0  0  0  0  0
  -15.8030   -7.2772   -0.0000 C   0  0  0  0  0  0  0  0  0  0  0  0
  -14.5306   -9.5484   -0.0000 C   0  0  0  0  0  0  0  0  0  0  0  0
  -15.8386   -8.7755   -0.0000 C   0  0  0  0  0  0  0  0  0  0  0  0
  1  2  2  0  0  0  0
  2  3  1  0  0  0  0
  2  4  1  0  0  0  0
  3  5  1  0  0  0  0
  3  6  1  0  0  0  0
  4  7  1  0  0  0  0
  5  8  1  0  0  0  0
  5  9  1  0  0  0  0
  6 10  1  0  0  0  0
  7 11  1  0  0  0  0
  8 12  1  0  0  0  0
  9 13  1  0  0  0  0
 10 14  1  0  0  0  0
 11 15  2  0  0  0  0
 12 16  1  0  0  0  0
 14 17  2  0  0  0  0
 16 18  1  0  0  0  0
 18 19  2  0  0  0  0
 18 20  1  0  0  0  0
 20 21  1  0  0  0  0
 21 22  1  0  0  0  0
 21 23  1  0  0  0  0
 22 24  2  0  0  0  0
 22 25  1  0  0  0  0
 23 26  1  0  0  0  0
 25 27  1  0  0  0  0
 25 28  1  0  0  0  0
 26 29  2  0  0  0  0
 26 30  1  0  0  0  0
 27 31  1  0  0  0  0
 28 32  1  0  0  0  0
 29 33  1  0  0  0  0
 30 34  2  0  0  0  0
 31 35  1  0  0  0  0
 33 36  2  0  0  0  0
 33 37  1  0  0  0  0
 34 38  1  0  0  0  0
 35 39  1  0  0  0  0
 36 40  1  0  0  0  0
 37 41  1  0  0  0  0
 37 42  1  0  0  0  0
 38 43  2  0  0  0  0
 39 44  1  0  0  0  0
 39 45  1  0  0  0  0
 44 46  1  0  0  0  0
 45 47  1  0  0  0  0
 46 48  1  0  0  0  0
  7 10  2  0  0  0  0
 13 16  1  0  0  0  0
 15 17  1  0  0  0  0
 32 35  1  0  0  0  0
 34 36  1  0  0  0  0
 40 43  1  0  0  0  0
 47 48  1  0  0  0  0
M  END
>  <MolRegNo>
1526089

>  <m>
=

>  <Value>
370

>  <Unit>
nM

>  <Type>
IC50

>  <pValue>
6.43

>  <Ligand Efficiency>
0

>  <Binding Efficiency>
0

>  <Surface Efficiency>
0

>  <Assay Index>
763676

>  <Assay Category>


>  <Assay Organism>
Homo sapiens

>  <Target ID>
17045

>  <Target Name>
Cytochrome P450 3A4

>  <Target Organism>
Homo sapiens

>  <Target Description>
Target is a single protein chain

>  <Sequence Accession>
P08684

>  <Reference>
Bioorg Med Chem Lett 23 (6), 1870-1873 (2013)

>  <Pubmed ID>
23402880

>  <DOI>
10.1016/j.bmcl.2013.01.011

$$$$
1521297
Actelion Java MolfileCreator 1.0

 36 40  0  0  0  0  0  0  0  0999 V2000
    0.0000   -0.0000   -0.0000 O   0  0  0  0  0  0  0  0  0  0  0  0
   -1.3008    0.7568   -0.0000 C   0  0  0  0  0  0  0  0  0  0  0  0
   -2.6016    0.0237   -0.0000 N   0  0  0  0  0  0  0  0  0  0  0  0
   -1.3126    2.2587   -0.0000 N   0  0  0  0  0  0  0  0  0  0  0  0
   -3.9024    0.7805   -0.0000 C   0  0  0  0  0  0  0  0  0  0  0  0
   -2.6134    3.0155   -0.0000 C   0  0  0  0  0  0  0  0  0  0  0  0
   -5.2032    0.0473   -0.0000 C   0  0  0  0  0  0  0  0  0  0  0  0
   -3.9261    2.2942   -0.0000 C   0  0  0  0  0  0  0  0  0  0  0  0
   -2.6253    4.5174   -0.0000 C   0  0  0  0  0  0  0  0  0  0  0  0
   -6.5041    0.8041   -0.0000 C   0  0  0  0  0  0  0  0  0  0  0  0
   -5.2269    3.0392   -0.0000 C   0  0  0  0  0  0  0  0  0  0  0  0
   -6.5159    2.3060   -0.0000 C   0  0  0  0  0  0  0  0  0  0  0  0
   -7.8167    3.0628   -0.0000 C   0  0  0  0  0  0  0  0  0  0  0  0
   -7.8285    4.5765   -0.0000 N   0  0  0  0  0  0  0  0  0  0  0  0
   -9.1293    2.3296   -0.0000 N   0  0  0  0  0  0  0  0  0  0  0  0
   -9.1293    5.3333   -0.0000 C   0  0  0  0  0  0  0  0  0  0  0  0
  -10.4301    3.0865   -0.0000 C   0  0  0  0  0  0  0  0  0  0  0  0
   -9.1530    6.8470   -0.0000 N   0  0  0  0  0  0  0  0  0  0  0  0
  -10.4301    4.6001   -0.0000 C   0  0  0  0  0  0  0  0  0  0  0  0
  -11.7309    2.3415   -0.0000 C   0  0  0  0  0  0  0  0  0  0  0  0
   -7.8758    7.6038   -0.0000 C   0  0  0  0  0  0  0  0  0  0  0  0
  -10.4538    7.5920   -0.0000 C   0  0  0  0  0  0  0  0  0  0  0  0
  -11.7309    5.3570   -0.0000 C   0  0  0  0  0  0  0  0  0  0  0  0
  -13.0436    3.1101   -0.0000 N   0  0  0  0  0  0  0  0  0  0  0  0
   -7.8876    9.1057   -0.0000 C   0  0  0  0  0  0  0  0  0  0  0  0
   -6.5987    6.8706   -0.0000 C   0  0  0  0  0  0  0  0  0  0  0  0
  -10.4656    9.1057   -0.0000 C   0  0  0  0  0  0  0  0  0  0  0  0
  -13.0436    4.6238   -0.0000 C   0  0  0  0  0  0  0  0  0  0  0  0
  -14.3444    2.3651   -0.0000 C   0  0  0  0  0  0  0  0  0  0  0  0
   -9.1885    9.8507   -0.0000 O   0  0  0  0  0  0  0  0  0  0  0  0
  -15.6452    3.1219   -0.0000 N   0  0  0  0  0  0  0  0  0  0  0  0
  -14.3444    0.8869   -0.0000 C   0  0  0  0  0  0  0  0  0  0  0  0
  -16.9460    2.3769   -0.0000 C   0  0  0  0  0  0  0  0  0  0  0  0
  -15.6452    0.1419   -0.0000 C   0  0  0  0  0  0  0  0  0  0  0  0
  -16.9460    0.8869   -0.0000 N   0  0  0  0  0  0  0  0  0  0  0  0
  -15.6452   -1.3363   -0.0000 C   0  0  0  0  0  0  0  0  0  0  0  0
  1  2  2  0  0  0  0
  2  3  1  0  0  0  0
  2  4  1  0  0  0  0
  3  5  1  0  0  0  0
  4  6  1  0  0  0  0
  5  7  2  0  0  0  0
  5  8  1  0  0  0  0
  6  9  1  0  0  0  0
  7 10  1  0  0  0  0
  8 11  2  0  0  0  0
 10 12  2  0  0  0  0
 12 13  1  0  0  0  0
 13 14  2  0  0  0  0
 13 15  1  0  0  0  0
 14 16  1  0  0  0  0
 15 17  2  0  0  0  0
 16 18  1  0  0  0  0
 16 19  2  0  0  0  0
 17 20  1  0  0  0  0
 18 21  1  0  0  0  0
 18 22  1  0  0  0  0
 19 23  1  0  0  0  0
 20 24  1  0  0  0  0
 21 25  1  0  0  0  0
 21 26  1  6  0  0  0
 22 27  1  0  0  0  0
 23 28  1  0  0  0  0
 24 29  1  0  0  0  0
 25 30  1  0  0  0  0
 29 31  2  0  0  0  0
 29 32  1  0  0  0  0
 31 33  1  0  0  0  0
 32 34  2  0  0  0  0
 33 35  2  0  0  0  0
 34 36  1  0  0  0  0
 11 12  1  0  0  0  0
 17 19  1  0  0  0  0
 24 28  1  0  0  0  0
 27 30  1  0  0  0  0
 34 35  1  0  0  0  0
M  END
>  <MolRegNo>
1521297

>  <m>
=

>  <Value>
8400

>  <Unit>
nM

>  <Type>
IC50

>  <pValue>
5.08

>  <Ligand Efficiency>
0

>  <Binding Efficiency>
0

>  <Surface Efficiency>
0

>  <Assay Index>
759497

>  <Assay Category>


>  <Assay Organism>
Homo sapiens

>  <Target ID>
17045

>  <Target Name>
Cytochrome P450 3A4

>  <Target Organism>
Homo sapiens

>  <Target Description>
Target is a single protein chain

>  <Sequence Accession>
P08684

>  <Reference>
ACS Med Chem Lett 4 (1), 103-107 (2013)

>  <Pubmed ID>
24900569

>  <DOI>
10.1021/ml3003132

$$$$
1521311
Actelion Java MolfileCreator 1.0

 36 40  0  0  0  0  0  0  0  0999 V2000
    0.0000   -0.0000   -0.0000 O   0  0  0  0  0  0  0  0  0  0  0  0
   -1.3000    0.7564   -0.0000 C   0  0  0  0  0  0  0  0  0  0  0  0
   -2.6000    0.0236   -0.0000 N   0  0  0  0  0  0  0  0  0  0  0  0
   -1.3118    2.2573   -0.0000 N   0  0  0  0  0  0  0  0  0  0  0  0
   -3.9000    0.7800   -0.0000 C   0  0  0  0  0  0  0  0  0  0  0  0
   -2.6118    3.0137   -0.0000 C   0  0  0  0  0  0  0  0  0  0  0  0
   -5.2000    0.0473   -0.0000 C   0  0  0  0  0  0  0  0  0  0  0  0
   -3.9237    2.2927   -0.0000 C   0  0  0  0  0  0  0  0  0  0  0  0
   -2.6237    4.5146   -0.0000 C   0  0  0  0  0  0  0  0  0  0  0  0
   -6.5000    0.8036   -0.0000 C   0  0  0  0  0  0  0  0  0  0  0  0
   -5.2237    3.0373   -0.0000 C   0  0  0  0  0  0  0  0  0  0  0  0
   -6.5119    2.3046   -0.0000 C   0  0  0  0  0  0  0  0  0  0  0  0
   -7.8119    3.0609   -0.0000 C   0  0  0  0  0  0  0  0  0  0  0  0
   -7.8237    4.5737   -0.0000 N   0  0  0  0  0  0  0  0  0  0  0  0
   -9.1237    2.3282   -0.0000 N   0  0  0  0  0  0  0  0  0  0  0  0
   -9.1237    5.3300   -0.0000 C   0  0  0  0  0  0  0  0  0  0  0  0
  -10.4237    3.0846   -0.0000 C   0  0  0  0  0  0  0  0  0  0  0  0
   -9.1473    6.8428   -0.0000 N   0  0  0  0  0  0  0  0  0  0  0  0
  -10.4237    4.5973   -0.0000 C   0  0  0  0  0  0  0  0  0  0  0  0
  -11.7237    2.3400   -0.0000 C   0  0  0  0  0  0  0  0  0  0  0  0
   -7.8710    7.5991   -0.0000 C   0  0  0  0  0  0  0  0  0  0  0  0
  -10.4473    7.5873   -0.0000 C   0  0  0  0  0  0  0  0  0  0  0  0
  -11.7237    5.3537   -0.0000 C   0  0  0  0  0  0  0  0  0  0  0  0
  -13.0355    3.1082   -0.0000 N   0  0  0  0  0  0  0  0  0  0  0  0
   -7.8828    9.1001   -0.0000 C   0  0  0  0  0  0  0  0  0  0  0  0
   -6.5946    6.8664   -0.0000 C   0  0  0  0  0  0  0  0  0  0  0  0
  -10.4592    9.1001   -0.0000 C   0  0  0  0  0  0  0  0  0  0  0  0
  -13.0355    4.6209   -0.0000 C   0  0  0  0  0  0  0  0  0  0  0  0
  -14.3356    2.3637   -0.0000 C   0  0  0  0  0  0  0  0  0  0  0  0
   -9.1828    9.8446   -0.0000 O   0  0  0  0  0  0  0  0  0  0  0  0
  -15.6356    3.1200   -0.0000 N   0  0  0  0  0  0  0  0  0  0  0  0
  -14.3356    0.8864   -0.0000 C   0  0  0  0  0  0  0  0  0  0  0  0
  -16.9356    2.3755   -0.0000 C   0  0  0  0  0  0  0  0  0  0  0  0
  -15.6356    0.1418   -0.0000 C   0  0  0  0  0  0  0  0  0  0  0  0
  -16.9356    0.8864   -0.0000 N   0  0  0  0  0  0  0  0  0  0  0  0
  -18.2474    3.1318   -0.0000 C   0  0  0  0  0  0  0  0  0  0  0  0
  1  2  2  0  0  0  0
  2  3  1  0  0  0  0
  2  4  1  0  0  0  0
  3  5  1  0  0  0  0
  4  6  1  0  0  0  0
  5  7  2  0  0  0  0
  5  8  1  0  0  0  0
  6  9  1  0  0  0  0
  7 10  1  0  0  0  0
  8 11  2  0  0  0  0
 10 12  2  0  0  0  0
 12 13  1  0  0  0  0
 13 14  2  0  0  0  0
 13 15  1  0  0  0  0
 14 16  1  0  0  0  0
 15 17  2  0  0  0  0
 16 18  1  0  0  0  0
 16 19  2  0  0  0  0
 17 20  1  0  0  0  0
 18 21  1  0  0  0  0
 18 22  1  0  0  0  0
 19 23  1  0  0  0  0
 20 24  1  0  0  0  0
 21 25  1  0  0  0  0
 21 26  1  6  0  0  0
 22 27  1  0  0  0  0
 23 28  1  0  0  0  0
 24 29  1  0  0  0  0
 25 30  1  0  0  0  0
 29 31  2  0  0  0  0
 29 32  1  0  0  0  0
 31 33  1  0  0  0  0
 32 34  2  0  0  0  0
 33 35  2  0  0  0  0
 33 36  1  0  0  0  0
 11 12  1  0  0  0  0
 17 19  1  0  0  0  0
 24 28  1  0  0  0  0
 27 30  1  0  0  0  0
 34 35  1  0  0  0  0
M  END
>  <MolRegNo>
1521311

>  <m>
=

>  <Value>
3300

>  <Unit>
nM

>  <Type>
IC50

>  <pValue>
5.48

>  <Ligand Efficiency>
0

>  <Binding Efficiency>
0

>  <Surface Efficiency>
0

>  <Assay Index>
759497

>  <Assay Category>


>  <Assay Organism>
Homo sapiens

>  <Target ID>
17045

>  <Target Name>
Cytochrome P450 3A4

>  <Target Organism>
Homo sapiens

>  <Target Description>
Target is a single protein chain

>  <Sequence Accession>
P08684

>  <Reference>
ACS Med Chem Lett 4 (1), 103-107 (2013)

>  <Pubmed ID>
24900569

>  <DOI>
10.1021/ml3003132

$$$$
1521310
Actelion Java MolfileCreator 1.0

 36 40  0  0  0  0  0  0  0  0999 V2000
    0.0000   -0.0000   -0.0000 F   0  0  0  0  0  0  0  0  0  0  0  0
    1.2862    0.7622   -0.0000 C   0  0  0  0  0  0  0  0  0  0  0  0
    1.2743    2.2747   -0.0000 C   0  0  0  0  0  0  0  0  0  0  0  0
    2.5843    0.0238   -0.0000 C   0  0  0  0  0  0  0  0  0  0  0  0
    2.5605    3.0369   -0.0000 N   0  0  0  0  0  0  0  0  0  0  0  0
    3.8705    0.7860   -0.0000 N   0  0  0  0  0  0  0  0  0  0  0  0
    3.8467    2.2985   -0.0000 C   0  0  0  0  0  0  0  0  0  0  0  0
    5.1329    3.0726   -0.0000 N   0  0  0  0  0  0  0  0  0  0  0  0
    6.4310    2.3223   -0.0000 C   0  0  0  0  0  0  0  0  0  0  0  0
    5.1210    4.5970   -0.0000 C   0  0  0  0  0  0  0  0  0  0  0  0
    7.7172    3.0964   -0.0000 C   0  0  0  0  0  0  0  0  0  0  0  0
    6.4191    5.3592   -0.0000 C   0  0  0  0  0  0  0  0  0  0  0  0
    9.0034    2.3580   -0.0000 N   0  0  0  0  0  0  0  0  0  0  0  0
    7.7053    4.6208   -0.0000 C   0  0  0  0  0  0  0  0  0  0  0  0
   10.3015    3.1202   -0.0000 C   0  0  0  0  0  0  0  0  0  0  0  0
    8.9915    5.3830   -0.0000 C   0  0  0  0  0  0  0  0  0  0  0  0
   10.2896    4.6446   -0.0000 N   0  0  0  0  0  0  0  0  0  0  0  0
   11.5877    2.3819   -0.0000 C   0  0  0  0  0  0  0  0  0  0  0  0
    8.9677    6.9074   -0.0000 N   0  0  0  0  0  0  0  0  0  0  0  0
   11.5758    0.8932   -0.0000 C   0  0  0  0  0  0  0  0  0  0  0  0
   12.8739    3.1440   -0.0000 C   0  0  0  0  0  0  0  0  0  0  0  0
   10.2539    7.6696   -0.0000 C   0  0  0  0  0  0  0  0  0  0  0  0
    7.6577    7.6577   -0.0000 C   0  0  0  0  0  0  0  0  0  0  0  0
   12.8620    0.1548   -0.0000 C   0  0  0  0  0  0  0  0  0  0  0  0
   14.1601    2.4176   -0.0000 C   0  0  0  0  0  0  0  0  0  0  0  0
   10.2420    9.1821   -0.0000 C   0  0  0  0  0  0  0  0  0  0  0  0
   11.5401    6.9312   -0.0000 C   0  0  0  0  0  0  0  0  0  0  0  0
    7.6458    9.1821   -0.0000 C   0  0  0  0  0  0  0  0  0  0  0  0
   14.1482    0.9170   -0.0000 C   0  0  0  0  0  0  0  0  0  0  0  0
    8.9320    9.9323   -0.0000 O   0  0  0  0  0  0  0  0  0  0  0  0
   15.4344    0.1786   -0.0000 N   0  0  0  0  0  0  0  0  0  0  0  0
   16.7206    0.9408   -0.0000 C   0  0  0  0  0  0  0  0  0  0  0  0
   18.0068    0.2025   -0.0000 O   0  0  0  0  0  0  0  0  0  0  0  0
   16.7087    2.4533   -0.0000 N   0  0  0  0  0  0  0  0  0  0  0  0
   15.3987    3.2155   -0.0000 C   0  0  0  0  0  0  0  0  0  0  0  0
   15.3868    4.7280   -0.0000 C   0  0  0  0  0  0  0  0  0  0  0  0
  1  2  1  0  0  0  0
  2  3  2  0  0  0  0
  2  4  1  0  0  0  0
  3  5  1  0  0  0  0
  4  6  2  0  0  0  0
  5  7  2  0  0  0  0
  7  8  1  0  0  0  0
  8  9  1  0  0  0  0
  8 10  1  0  0  0  0
  9 11  1  0  0  0  0
 10 12  1  0  0  0  0
 11 13  2  0  0  0  0
 11 14  1  0  0  0  0
 13 15  1  0  0  0  0
 14 16  2  0  0  0  0
 15 17  2  0  0  0  0
 15 18  1  0  0  0  0
 16 19  1  0  0  0  0
 18 20  2  0  0  0  0
 18 21  1  0  0  0  0
 19 22  1  0  0  0  0
 19 23  1  0  0  0  0
 20 24  1  0  0  0  0
 21 25  2  0  0  0  0
 22 26  1  0  0  0  0
 22 27  1  6  0  0  0
 23 28  1  0  0  0  0
 24 29  2  0  0  0  0
 26 30  1  0  0  0  0
 29 31  1  0  0  0  0
 31 32  1  0  0  0  0
 32 33  2  0  0  0  0
 32 34  1  0  0  0  0
 34 35  1  0  0  0  0
 35 36  1  0  0  0  0
  6  7  1  0  0  0  0
 12 14  1  0  0  0  0
 16 17  1  0  0  0  0
 25 29  1  0  0  0  0
 28 30  1  0  0  0  0
M  END
>  <MolRegNo>
1521310

>  <m>
=

>  <Value>
1400

>  <Unit>
nM

>  <Type>
IC50

>  <pValue>
5.85

>  <Ligand Efficiency>
0

>  <Binding Efficiency>
0

>  <Surface Efficiency>
0

>  <Assay Index>
759497

>  <Assay Category>


>  <Assay Organism>
Homo sapiens

>  <Target ID>
17045

>  <Target Name>
Cytochrome P450 3A4

>  <Target Organism>
Homo sapiens

>  <Target Description>
Target is a single protein chain

>  <Sequence Accession>
P08684

>  <Reference>
ACS Med Chem Lett 4 (1), 103-107 (2013)

>  <Pubmed ID>
24900569

>  <DOI>
10.1021/ml3003132

$$$$
1442348
Actelion Java MolfileCreator 1.0

 35 39  0  0  0  0  0  0  0  0999 V2000
    0.0000   -0.0000   -0.0000 O   0  0  0  0  0  0  0  0  0  0  0  0
   -0.0118   -1.4816   -0.0000 C   0  0  0  0  0  0  0  0  0  0  0  0
   -1.3170   -2.2107   -0.0000 N   0  0  0  0  0  0  0  0  0  0  0  0
    1.2700   -2.2107   -0.0000 N   0  0  0  0  0  0  0  0  0  0  0  0
   -2.6223   -1.4581   -0.0000 C   0  0  0  0  0  0  0  0  0  0  0  0
    2.5517   -1.4581   -0.0000 C   0  0  0  0  0  0  0  0  0  0  0  0
   -2.6340    0.0470   -0.0000 C   0  0  0  0  0  0  0  0  0  0  0  0
   -3.9275   -2.1872   -0.0000 C   0  0  0  0  0  0  0  0  0  0  0  0
    3.8335   -2.1872   -0.0000 C   0  0  0  0  0  0  0  0  0  0  0  0
   -3.9393    0.8114   -0.0000 C   0  0  0  0  0  0  0  0  0  0  0  0
   -5.2328   -1.4346   -0.0000 C   0  0  0  0  0  0  0  0  0  0  0  0
   -5.2446    0.0706   -0.0000 C   0  0  0  0  0  0  0  0  0  0  0  0
   -6.5498    0.8349   -0.0000 C   0  0  0  0  0  0  0  0  0  0  0  0
   -6.5616    2.3401   -0.0000 N   0  0  0  0  0  0  0  0  0  0  0  0
   -7.8551    0.0941   -0.0000 N   0  0  0  0  0  0  0  0  0  0  0  0
   -7.8668    3.1044   -0.0000 C   0  0  0  0  0  0  0  0  0  0  0  0
   -9.1603    0.8584   -0.0000 C   0  0  0  0  0  0  0  0  0  0  0  0
   -7.8786    4.6096   -0.0000 N   0  0  0  0  0  0  0  0  0  0  0  0
   -9.1721    2.3636   -0.0000 C   0  0  0  0  0  0  0  0  0  0  0  0
  -10.4656    0.1176   -0.0000 C   0  0  0  0  0  0  0  0  0  0  0  0
   -6.5969    5.3739   -0.0000 C   0  0  0  0  0  0  0  0  0  0  0  0
   -9.1839    5.3739   -0.0000 C   0  0  0  0  0  0  0  0  0  0  0  0
  -10.4774    3.1279   -0.0000 C   0  0  0  0  0  0  0  0  0  0  0  0
  -11.7709    0.8819   -0.0000 N   0  0  0  0  0  0  0  0  0  0  0  0
   -6.6086    6.8791   -0.0000 C   0  0  0  0  0  0  0  0  0  0  0  0
   -5.3151    4.6331   -0.0000 C   0  0  0  0  0  0  0  0  0  0  0  0
   -9.1956    6.8791   -0.0000 C   0  0  0  0  0  0  0  0  0  0  0  0
  -11.7826    2.3871   -0.0000 C   0  0  0  0  0  0  0  0  0  0  0  0
  -13.0761    0.1411   -0.0000 C   0  0  0  0  0  0  0  0  0  0  0  0
   -7.9139    7.6317   -0.0000 O   0  0  0  0  0  0  0  0  0  0  0  0
  -14.3814    0.9055   -0.0000 N   0  0  0  0  0  0  0  0  0  0  0  0
  -13.0879   -1.3405   -0.0000 N   0  0  0  0  0  0  0  0  0  0  0  0
  -15.6867    0.1646   -0.0000 C   0  0  0  0  0  0  0  0  0  0  0  0
  -14.3932   -2.0696   -0.0000 C   0  0  0  0  0  0  0  0  0  0  0  0
  -15.6984   -1.3170   -0.0000 C   0  0  0  0  0  0  0  0  0  0  0  0
  1  2  2  0  0  0  0
  2  3  1  0  0  0  0
  2  4  1  0  0  0  0
  3  5  1  0  0  0  0
  4  6  1  0  0  0  0
  5  7  2  0  0  0  0
  5  8  1  0  0  0  0
  6  9  1  0  0  0  0
  7 10  1  0  0  0  0
  8 11  2  0  0  0  0
 10 12  2  0  0  0  0
 12 13  1  0  0  0  0
 13 14  2  0  0  0  0
 13 15  1  0  0  0  0
 14 16  1  0  0  0  0
 15 17  2  0  0  0  0
 16 18  1  0  0  0  0
 16 19  2  0  0  0  0
 17 20  1  0  0  0  0
 18 21  1  0  0  0  0
 18 22  1  0  0  0  0
 19 23  1  0  0  0  0
 20 24  1  0  0  0  0
 21 25  1  0  0  0  0
 21 26  1  6  0  0  0
 22 27  1  0  0  0  0
 23 28  1  0  0  0  0
 24 29  1  0  0  0  0
 25 30  1  0  0  0  0
 29 31  2  0  0  0  0
 29 32  1  0  0  0  0
 31 33  1  0  0  0  0
 32 34  2  0  0  0  0
 33 35  2  0  0  0  0
 11 12  1  0  0  0  0
 17 19  1  0  0  0  0
 24 28  1  0  0  0  0
 27 30  1  0  0  0  0
 34 35  1  0  0  0  0
M  END
>  <MolRegNo>
1442348

>  <m>
=

>  <Value>
900

>  <Unit>
nM

>  <Type>
IC50

>  <pValue>
6.05

>  <Ligand Efficiency>
0

>  <Binding Efficiency>
0

>  <Surface Efficiency>
0

>  <Assay Index>
759497

>  <Assay Category>


>  <Assay Organism>
Homo sapiens

>  <Target ID>
17045

>  <Target Name>
Cytochrome P450 3A4

>  <Target Organism>
Homo sapiens

>  <Target Description>
Target is a single protein chain

>  <Sequence Accession>
P08684

>  <Reference>
ACS Med Chem Lett 4 (1), 103-107 (2013)

>  <Pubmed ID>
24900569

>  <DOI>
10.1021/ml3003132

$$$$
1523728
Actelion Java MolfileCreator 1.0

 39 43  0  0  0  0  0  0  0  0999 V2000
    0.0000   -0.0000   -0.0000 O   0  0  0  0  0  0  0  0  0  0  0  0
   -0.0118   -1.4901   -0.0000 C   0  0  0  0  0  0  0  0  0  0  0  0
    1.2773   -2.2234   -0.0000 O   0  0  0  0  0  0  0  0  0  0  0  0
   -1.3127   -2.2234   -0.0000 C   0  0  0  0  0  0  0  0  0  0  0  0
   -2.6137   -1.4665   -0.0000 C   0  0  0  0  0  0  0  0  0  0  0  0
   -1.3246   -3.7135   -0.0000 C   0  0  0  0  0  0  0  0  0  0  0  0
   -3.9028   -2.1997   -0.0000 C   0  0  0  0  0  0  0  0  0  0  0  0
   -2.6373   -4.4468   -0.0000 C   0  0  0  0  0  0  0  0  0  0  0  0
   -5.2037   -1.4428   -0.0000 O   0  0  0  0  0  0  0  0  0  0  0  0
   -3.9264   -3.6781   -0.0000 C   0  0  0  0  0  0  0  0  0  0  0  0
   -6.5046   -2.1761   -0.0000 C   0  0  0  0  0  0  0  0  0  0  0  0
   -7.8055   -1.4192   -0.0000 C   0  0  0  0  0  0  0  0  0  0  0  0
   -9.1183   -2.1524   -0.0000 C   0  0  0  0  0  0  0  0  0  0  0  0
   -7.8173    0.0828   -0.0000 C   0  0  0  0  0  0  0  0  0  0  0  0
  -10.4192   -1.3955   -0.0000 C   0  0  0  0  0  0  0  0  0  0  0  0
   -9.1183    0.8515   -0.0000 C   0  0  0  0  0  0  0  0  0  0  0  0
  -10.4310    0.1064   -0.0000 N   0  0  0  0  0  0  0  0  0  0  0  0
  -11.7319    0.8633   -0.0000 C   0  0  0  0  0  0  0  0  0  0  0  0
  -13.0447    0.1301   -0.0000 N   0  0  0  0  0  0  0  0  0  0  0  0
  -11.7437    2.3771   -0.0000 C   0  0  0  0  0  0  0  0  0  0  0  0
  -14.3456    0.8870   -0.0000 C   0  0  0  0  0  0  0  0  0  0  0  0
  -13.0447    3.1340   -0.0000 C   0  0  0  0  0  0  0  0  0  0  0  0
  -14.3574    2.4008   -0.0000 C   0  0  0  0  0  0  0  0  0  0  0  0
  -15.6583    3.1577   -0.0000 N   0  0  0  0  0  0  0  0  0  0  0  0
  -16.9592    2.4244   -0.0000 C   0  0  0  0  0  0  0  0  0  0  0  0
  -16.9711    0.9461   -0.0000 O   0  0  0  0  0  0  0  0  0  0  0  0
  -18.2602    3.1813   -0.0000 C   0  0  0  0  0  0  0  0  0  0  0  0
  -19.5493    2.4481   -0.0000 C   0  0  0  0  0  0  0  0  0  0  0  0
  -18.2602    4.6833   -0.0000 C   0  0  0  0  0  0  0  0  0  0  0  0
  -20.8502    3.1932   -0.0000 C   0  0  0  0  0  0  0  0  0  0  0  0
  -19.5611    5.4402   -0.0000 C   0  0  0  0  0  0  0  0  0  0  0  0
  -22.1511    2.4599   -0.0000 O   0  0  0  0  0  0  0  0  0  0  0  0
  -20.8620    4.6951   -0.0000 C   0  0  0  0  0  0  0  0  0  0  0  0
  -23.4520    3.2168   -0.0000 C   0  0  0  0  0  0  0  0  0  0  0  0
  -23.4638    4.7188   -0.0000 C   0  0  0  0  0  0  0  0  0  0  0  0
  -24.7411    2.4717   -0.0000 C   0  0  0  0  0  0  0  0  0  0  0  0
  -24.7648    5.4757   -0.0000 C   0  0  0  0  0  0  0  0  0  0  0  0
  -26.0420    3.2168   -0.0000 C   0  0  0  0  0  0  0  0  0  0  0  0
  -26.0657    4.7424   -0.0000 C   0  0  0  0  0  0  0  0  0  0  0  0
  1  2  2  0  0  0  0
  2  3  1  0  0  0  0
  2  4  1  0  0  0  0
  4  5  2  0  0  0  0
  4  6  1  0  0  0  0
  5  7  1  0  0  0  0
  6  8  2  0  0  0  0
  7  9  1  0  0  0  0
  7 10  2  0  0  0  0
  9 11  1  0  0  0  0
 11 12  1  0  0  0  0
 12 13  1  0  0  0  0
 12 14  1  0  0  0  0
 13 15  1  0  0  0  0
 14 16  1  0  0  0  0
 15 17  1  0  0  0  0
 17 18  1  0  0  0  0
 18 19  2  0  0  0  0
 18 20  1  0  0  0  0
 19 21  1  0  0  0  0
 20 22  2  0  0  0  0
 21 23  2  0  0  0  0
 23 24  1  0  0  0  0
 24 25  1  0  0  0  0
 25 26  2  0  0  0  0
 25 27  1  0  0  0  0
 27 28  2  0  0  0  0
 27 29  1  0  0  0  0
 28 30  1  0  0  0  0
 29 31  2  0  0  0  0
 30 32  1  0  0  0  0
 30 33  2  0  0  0  0
 32 34  1  0  0  0  0
 34 35  2  0  0  0  0
 34 36  1  0  0  0  0
 35 37  1  0  0  0  0
 36 38  2  0  0  0  0
 37 39  2  0  0  0  0
  8 10  1  0  0  0  0
 16 17  1  0  0  0  0
 22 23  1  0  0  0  0
 31 33  1  0  0  0  0
 38 39  1  0  0  0  0
M  END
>  <MolRegNo>
1523728

>  <m>
=

>  <Value>
5000

>  <Unit>
nM

>  <Type>
IC50

>  <pValue>
5.3

>  <Ligand Efficiency>
0

>  <Binding Efficiency>
0

>  <Surface Efficiency>
0

>  <Assay Index>
763043

>  <Assay Category>


>  <Assay Organism>
Homo sapiens

>  <Target ID>
17045

>  <Target Name>
Cytochrome P450 3A4

>  <Target Organism>
Homo sapiens

>  <Target Description>
Target is a single protein chain

>  <Sequence Accession>
P08684

>  <Reference>
Bioorg Med Chem Lett 23 (4), 985-988 (2013)

>  <Pubmed ID>
23317570

>  <DOI>
10.1016/j.bmcl.2012.12.040

$$$$
699274
Actelion Java MolfileCreator 1.0

 31 34  0  0  0  0  0  0  0  0999 V2000
    0.0000   -0.0000   -0.0000 Cl  0  0  0  0  0  0  0  0  0  0  0  0
   -1.3030   -0.7396   -0.0000 C   0  0  0  0  0  0  0  0  0  0  0  0
   -1.3148   -2.2187   -0.0000 C   0  0  0  0  0  0  0  0  0  0  0  0
   -2.6061    0.0235   -0.0000 C   0  0  0  0  0  0  0  0  0  0  0  0
   -0.0352   -2.9465   -0.0000 O   0  0  0  0  0  0  0  0  0  0  0  0
   -2.6178   -2.9465   -0.0000 C   0  0  0  0  0  0  0  0  0  0  0  0
   -3.9091   -0.7161   -0.0000 C   0  0  0  0  0  0  0  0  0  0  0  0
    1.2443   -2.1952   -0.0000 C   0  0  0  0  0  0  0  0  0  0  0  0
   -2.6296   -4.4256   -0.0000 Cl  0  0  0  0  0  0  0  0  0  0  0  0
   -3.9209   -2.1952   -0.0000 C   0  0  0  0  0  0  0  0  0  0  0  0
   -5.2122    0.0470   -0.0000 N   0  0  0  0  0  0  0  0  0  0  0  0
    1.2326   -0.6926   -0.0000 C   0  0  0  0  0  0  0  0  0  0  0  0
    2.5239   -2.9230   -0.0000 C   0  0  0  0  0  0  0  0  0  0  0  0
   -6.5152   -0.6926   -0.0000 S   0  0  0  0  0  0  0  0  0  0  0  0
    2.5122    0.0704   -0.0000 N   0  0  0  0  0  0  0  0  0  0  0  0
    3.8035   -2.1717   -0.0000 C   0  0  0  0  0  0  0  0  0  0  0  0
   -5.7874   -1.9722   -0.0000 O   0  0  0  0  0  0  0  0  0  0  0  0
   -7.2665    0.6104   -0.0000 O   0  0  0  0  0  0  0  0  0  0  0  0
   -7.8182   -1.4204   -0.0000 C   0  0  0  0  0  0  0  0  0  0  0  0
    3.7917   -0.6691   -0.0000 C   0  0  0  0  0  0  0  0  0  0  0  0
    5.1300   -2.9583   -0.0000 C   0  0  0  0  0  0  0  0  0  0  0  0
   -9.1213   -0.6691   -0.0000 C   0  0  0  0  0  0  0  0  0  0  0  0
   -7.8300   -2.8996   -0.0000 C   0  0  0  0  0  0  0  0  0  0  0  0
    5.1182    0.1409   -0.0000 C   0  0  0  0  0  0  0  0  0  0  0  0
    6.4682   -2.1835   -0.0000 C   0  0  0  0  0  0  0  0  0  0  0  0
   -9.1330    0.8335   -0.0000 Cl  0  0  0  0  0  0  0  0  0  0  0  0
  -10.4243   -1.3970   -0.0000 C   0  0  0  0  0  0  0  0  0  0  0  0
   -9.1330   -3.6274   -0.0000 C   0  0  0  0  0  0  0  0  0  0  0  0
    6.4565   -0.6104   -0.0000 C   0  0  0  0  0  0  0  0  0  0  0  0
  -10.4361   -2.8761   -0.0000 C   0  0  0  0  0  0  0  0  0  0  0  0
  -11.7391   -3.6039   -0.0000 Cl  0  0  0  0  0  0  0  0  0  0  0  0
  1  2  1  0  0  0  0
  2  3  2  0  0  0  0
  2  4  1  0  0  0  0
  3  5  1  0  0  0  0
  3  6  1  0  0  0  0
  4  7  2  0  0  0  0
  5  8  1  0  0  0  0
  6  9  1  0  0  0  0
  6 10  2  0  0  0  0
  7 11  1  0  0  0  0
  8 12  1  0  0  0  0
  8 13  2  0  0  0  0
 11 14  1  0  0  0  0
 12 15  2  0  0  0  0
 13 16  1  0  0  0  0
 14 17  2  0  0  0  0
 14 18  2  0  0  0  0
 14 19  1  0  0  0  0
 15 20  1  0  0  0  0
 16 21  2  0  0  0  0
 19 22  2  0  0  0  0
 19 23  1  0  0  0  0
 20 24  2  0  0  0  0
 21 25  1  0  0  0  0
 22 26  1  0  0  0  0
 22 27  1  0  0  0  0
 23 28  2  0  0  0  0
 24 29  1  0  0  0  0
 27 30  2  0  0  0  0
 30 31  1  0  0  0  0
  7 10  1  0  0  0  0
 16 20  1  0  0  0  0
 25 29  2  0  0  0  0
 28 30  1  0  0  0  0
M  END
>  <MolRegNo>
699274

>  <m>
=

>  <Value>
25000

>  <Unit>
nM

>  <Type>
IC50

>  <pValue>
4.6

>  <Ligand Efficiency>
0

>  <Binding Efficiency>
0

>  <Surface Efficiency>
0

>  <Assay Index>
760134

>  <Assay Category>


>  <Assay Organism>
Homo sapiens

>  <Target ID>
17045

>  <Target Name>
Cytochrome P450 3A4

>  <Target Organism>
Homo sapiens

>  <Target Description>
Target is a single protein chain

>  <Sequence Accession>
P08684

>  <Reference>
Bioorg Med Chem 21 (4), 979-992 (2013)

>  <Pubmed ID>
23294830

>  <DOI>
10.1016/j.bmc.2012.11.058

$$$$
1528163
Actelion Java MolfileCreator 1.0

 30 33  0  0  0  0  0  0  0  0999 V2000
    0.0000   -0.0000   -0.0000 Cl  0  0  0  0  0  0  0  0  0  0  0  0
    0.0000   -1.4974   -0.0000 C   0  0  0  0  0  0  0  0  0  0  0  0
    1.2954   -2.2342   -0.0000 C   0  0  0  0  0  0  0  0  0  0  0  0
   -1.3191   -2.2461   -0.0000 C   0  0  0  0  0  0  0  0  0  0  0  0
    2.5788   -1.4736   -0.0000 S   0  0  0  0  0  0  0  0  0  0  0  0
    1.2835   -3.7316   -0.0000 C   0  0  0  0  0  0  0  0  0  0  0  0
   -1.3191   -3.7316   -0.0000 C   0  0  0  0  0  0  0  0  0  0  0  0
    1.8064   -0.1545   -0.0000 O   0  0  0  0  0  0  0  0  0  0  0  0
    3.3038   -0.1545   -0.0000 O   0  0  0  0  0  0  0  0  0  0  0  0
    3.8742   -2.1985   -0.0000 N   0  0  0  0  0  0  0  0  0  0  0  0
   -0.0238   -4.4803   -0.0000 C   0  0  0  0  0  0  0  0  0  0  0  0
   -2.6264   -4.4803   -0.0000 Cl  0  0  0  0  0  0  0  0  0  0  0  0
    3.8861   -3.6840   -0.0000 C   0  0  0  0  0  0  0  0  0  0  0  0
    5.1814   -4.4090   -0.0000 C   0  0  0  0  0  0  0  0  0  0  0  0
    2.5907   -4.4446   -0.0000 C   0  0  0  0  0  0  0  0  0  0  0  0
    5.1933   -5.8945   -0.0000 C   0  0  0  0  0  0  0  0  0  0  0  0
    2.6026   -5.9301   -0.0000 C   0  0  0  0  0  0  0  0  0  0  0  0
    6.5006   -6.6194   -0.0000 F   0  0  0  0  0  0  0  0  0  0  0  0
    3.8980   -6.6550   -0.0000 C   0  0  0  0  0  0  0  0  0  0  0  0
    3.9098   -8.1406   -0.0000 O   0  0  0  0  0  0  0  0  0  0  0  0
    2.6145   -8.9011   -0.0000 C   0  0  0  0  0  0  0  0  0  0  0  0
    1.2954   -8.1524   -0.0000 C   0  0  0  0  0  0  0  0  0  0  0  0
    2.6264  -10.3866   -0.0000 C   0  0  0  0  0  0  0  0  0  0  0  0
   -0.0119   -8.9130   -0.0000 N   0  0  0  0  0  0  0  0  0  0  0  0
    1.3310  -11.1472   -0.0000 C   0  0  0  0  0  0  0  0  0  0  0  0
    0.0000  -10.3985   -0.0000 C   0  0  0  0  0  0  0  0  0  0  0  0
    1.3548  -12.6327   -0.0000 C   0  0  0  0  0  0  0  0  0  0  0  0
   -1.3072  -11.1591   -0.0000 C   0  0  0  0  0  0  0  0  0  0  0  0
    0.0594  -13.4052   -0.0000 C   0  0  0  0  0  0  0  0  0  0  0  0
   -1.2954  -12.6565   -0.0000 C   0  0  0  0  0  0  0  0  0  0  0  0
  1  2  1  0  0  0  0
  2  3  2  0  0  0  0
  2  4  1  0  0  0  0
  3  5  1  0  0  0  0
  3  6  1  0  0  0  0
  4  7  2  0  0  0  0
  5  8  2  0  0  0  0
  5  9  2  0  0  0  0
  5 10  1  0  0  0  0
  6 11  2  0  0  0  0
  7 12  1  0  0  0  0
 10 13  1  0  0  0  0
 13 14  2  0  0  0  0
 13 15  1  0  0  0  0
 14 16  1  0  0  0  0
 15 17  2  0  0  0  0
 16 18  1  0  0  0  0
 16 19  2  0  0  0  0
 19 20  1  0  0  0  0
 20 21  1  0  0  0  0
 21 22  1  0  0  0  0
 21 23  2  0  0  0  0
 22 24  2  0  0  0  0
 23 25  1  0  0  0  0
 24 26  1  0  0  0  0
 25 27  2  0  0  0  0
 26 28  2  0  0  0  0
 27 29  1  0  0  0  0
 28 30  1  0  0  0  0
  7 11  1  0  0  0  0
 17 19  1  0  0  0  0
 25 26  1  0  0  0  0
 29 30  2  0  0  0  0
M  END
>  <MolRegNo>
1528163

>  <m>
=

>  <Value>
10000

>  <Unit>
nM

>  <Type>
IC50

>  <pValue>
5

>  <Ligand Efficiency>
0

>  <Binding Efficiency>
0

>  <Surface Efficiency>
0

>  <Assay Index>
760134

>  <Assay Category>


>  <Assay Organism>
Homo sapiens

>  <Target ID>
17045

>  <Target Name>
Cytochrome P450 3A4

>  <Target Organism>
Homo sapiens

>  <Target Description>
Target is a single protein chain

>  <Sequence Accession>
P08684

>  <Reference>
Bioorg Med Chem 21 (4), 979-992 (2013)

>  <Pubmed ID>
23294830

>  <DOI>
10.1016/j.bmc.2012.11.058

$$$$
1528165
Actelion Java MolfileCreator 1.0

 32 35  0  0  0  0  0  0  0  0999 V2000
    0.0000   -0.0000   -0.0000 Cl  0  0  0  0  0  0  0  0  0  0  0  0
    0.0000   -1.4977   -0.0000 C   0  0  0  0  0  0  0  0  0  0  0  0
    1.2956   -2.2346   -0.0000 C   0  0  0  0  0  0  0  0  0  0  0  0
   -1.3194   -2.2465   -0.0000 C   0  0  0  0  0  0  0  0  0  0  0  0
    2.5793   -1.4739   -0.0000 S   0  0  0  0  0  0  0  0  0  0  0  0
    1.2837   -3.7323   -0.0000 C   0  0  0  0  0  0  0  0  0  0  0  0
   -1.3194   -3.7323   -0.0000 C   0  0  0  0  0  0  0  0  0  0  0  0
    1.8067   -0.1545   -0.0000 O   0  0  0  0  0  0  0  0  0  0  0  0
    3.3044   -0.1545   -0.0000 O   0  0  0  0  0  0  0  0  0  0  0  0
    3.8749   -2.1990   -0.0000 N   0  0  0  0  0  0  0  0  0  0  0  0
   -0.0238   -4.4812   -0.0000 C   0  0  0  0  0  0  0  0  0  0  0  0
   -2.6269   -4.4812   -0.0000 Cl  0  0  0  0  0  0  0  0  0  0  0  0
    3.8868   -3.6848   -0.0000 C   0  0  0  0  0  0  0  0  0  0  0  0
    5.1824   -4.4098   -0.0000 C   0  0  0  0  0  0  0  0  0  0  0  0
    2.5912   -4.4455   -0.0000 C   0  0  0  0  0  0  0  0  0  0  0  0
    5.1943   -5.8956   -0.0000 C   0  0  0  0  0  0  0  0  0  0  0  0
    2.6031   -5.9313   -0.0000 C   0  0  0  0  0  0  0  0  0  0  0  0
    3.8987   -6.6564   -0.0000 C   0  0  0  0  0  0  0  0  0  0  0  0
    6.5018   -6.6207   -0.0000 C   0  0  0  0  0  0  0  0  0  0  0  0
    3.9106   -8.1421   -0.0000 O   0  0  0  0  0  0  0  0  0  0  0  0
    6.5137   -8.1065   -0.0000 O   0  0  0  0  0  0  0  0  0  0  0  0
    7.7856   -5.8362   -0.0000 C   0  0  0  0  0  0  0  0  0  0  0  0
    2.6150   -8.9029   -0.0000 C   0  0  0  0  0  0  0  0  0  0  0  0
    1.2956   -8.1540   -0.0000 C   0  0  0  0  0  0  0  0  0  0  0  0
    2.6269  -10.3887   -0.0000 C   0  0  0  0  0  0  0  0  0  0  0  0
   -0.0119   -8.9148   -0.0000 N   0  0  0  0  0  0  0  0  0  0  0  0
    1.3313  -11.1494   -0.0000 C   0  0  0  0  0  0  0  0  0  0  0  0
    0.0000  -10.4006   -0.0000 C   0  0  0  0  0  0  0  0  0  0  0  0
    1.3550  -12.6352   -0.0000 C   0  0  0  0  0  0  0  0  0  0  0  0
   -1.3075  -11.1613   -0.0000 C   0  0  0  0  0  0  0  0  0  0  0  0
    0.0594  -13.4078   -0.0000 C   0  0  0  0  0  0  0  0  0  0  0  0
   -1.2956  -12.6590   -0.0000 C   0  0  0  0  0  0  0  0  0  0  0  0
  1  2  1  0  0  0  0
  2  3  2  0  0  0  0
  2  4  1  0  0  0  0
  3  5  1  0  0  0  0
  3  6  1  0  0  0  0
  4  7  2  0  0  0  0
  5  8  2  0  0  0  0
  5  9  2  0  0  0  0
  5 10  1  0  0  0  0
  6 11  2  0  0  0  0
  7 12  1  0  0  0  0
 10 13  1  0  0  0  0
 13 14  2  0  0  0  0
 13 15  1  0  0  0  0
 14 16  1  0  0  0  0
 15 17  2  0  0  0  0
 16 18  2  0  0  0  0
 16 19  1  0  0  0  0
 18 20  1  0  0  0  0
 19 21  2  0  0  0  0
 19 22  1  0  0  0  0
 20 23  1  0  0  0  0
 23 24  1  0  0  0  0
 23 25  2  0  0  0  0
 24 26  2  0  0  0  0
 25 27  1  0  0  0  0
 26 28  1  0  0  0  0
 27 29  2  0  0  0  0
 28 30  2  0  0  0  0
 29 31  1  0  0  0  0
 30 32  1  0  0  0  0
  7 11  1  0  0  0  0
 17 18  1  0  0  0  0
 27 28  1  0  0  0  0
 31 32  2  0  0  0  0
M  END
>  <MolRegNo>
1528165

>  <m>
=

>  <Value>
3000

>  <Unit>
nM

>  <Type>
IC50

>  <pValue>
5.52

>  <Ligand Efficiency>
0

>  <Binding Efficiency>
0

>  <Surface Efficiency>
0

>  <Assay Index>
760134

>  <Assay Category>


>  <Assay Organism>
Homo sapiens

>  <Target ID>
17045

>  <Target Name>
Cytochrome P450 3A4

>  <Target Organism>
Homo sapiens

>  <Target Description>
Target is a single protein chain

>  <Sequence Accession>
P08684

>  <Reference>
Bioorg Med Chem 21 (4), 979-992 (2013)

>  <Pubmed ID>
23294830

>  <DOI>
10.1016/j.bmc.2012.11.058

$$$$
1528162
Actelion Java MolfileCreator 1.0

 30 33  0  0  0  0  0  0  0  0999 V2000
    0.0000   -0.0000   -0.0000 Cl  0  0  0  0  0  0  0  0  0  0  0  0
    0.0000   -1.4974   -0.0000 C   0  0  0  0  0  0  0  0  0  0  0  0
    1.2954   -2.2342   -0.0000 C   0  0  0  0  0  0  0  0  0  0  0  0
   -1.3191   -2.2461   -0.0000 C   0  0  0  0  0  0  0  0  0  0  0  0
    2.5788   -1.4736   -0.0000 S   0  0  0  0  0  0  0  0  0  0  0  0
    1.2835   -3.7316   -0.0000 C   0  0  0  0  0  0  0  0  0  0  0  0
   -1.3191   -3.7316   -0.0000 C   0  0  0  0  0  0  0  0  0  0  0  0
    1.8064   -0.1545   -0.0000 O   0  0  0  0  0  0  0  0  0  0  0  0
    3.3038   -0.1545   -0.0000 O   0  0  0  0  0  0  0  0  0  0  0  0
    3.8742   -2.1985   -0.0000 N   0  0  0  0  0  0  0  0  0  0  0  0
   -0.0238   -4.4803   -0.0000 C   0  0  0  0  0  0  0  0  0  0  0  0
   -2.6264   -4.4803   -0.0000 Cl  0  0  0  0  0  0  0  0  0  0  0  0
    3.8861   -3.6840   -0.0000 C   0  0  0  0  0  0  0  0  0  0  0  0
    5.1814   -4.4090   -0.0000 C   0  0  0  0  0  0  0  0  0  0  0  0
    2.5907   -4.4446   -0.0000 C   0  0  0  0  0  0  0  0  0  0  0  0
    5.1933   -5.8945   -0.0000 C   0  0  0  0  0  0  0  0  0  0  0  0
    2.6026   -5.9301   -0.0000 C   0  0  0  0  0  0  0  0  0  0  0  0
    6.5006   -6.6194   -0.0000 Cl  0  0  0  0  0  0  0  0  0  0  0  0
    3.8980   -6.6550   -0.0000 C   0  0  0  0  0  0  0  0  0  0  0  0
    3.9098   -8.1406   -0.0000 O   0  0  0  0  0  0  0  0  0  0  0  0
    2.6145   -8.9011   -0.0000 C   0  0  0  0  0  0  0  0  0  0  0  0
    1.2954   -8.1524   -0.0000 C   0  0  0  0  0  0  0  0  0  0  0  0
    2.6264  -10.3866   -0.0000 C   0  0  0  0  0  0  0  0  0  0  0  0
   -0.0119   -8.9130   -0.0000 N   0  0  0  0  0  0  0  0  0  0  0  0
    1.3310  -11.1472   -0.0000 C   0  0  0  0  0  0  0  0  0  0  0  0
    0.0000  -10.3985   -0.0000 C   0  0  0  0  0  0  0  0  0  0  0  0
    1.3548  -12.6327   -0.0000 C   0  0  0  0  0  0  0  0  0  0  0  0
   -1.3072  -11.1591   -0.0000 C   0  0  0  0  0  0  0  0  0  0  0  0
    0.0594  -13.4052   -0.0000 C   0  0  0  0  0  0  0  0  0  0  0  0
   -1.2954  -12.6565   -0.0000 C   0  0  0  0  0  0  0  0  0  0  0  0
  1  2  1  0  0  0  0
  2  3  2  0  0  0  0
  2  4  1  0  0  0  0
  3  5  1  0  0  0  0
  3  6  1  0  0  0  0
  4  7  2  0  0  0  0
  5  8  2  0  0  0  0
  5  9  2  0  0  0  0
  5 10  1  0  0  0  0
  6 11  2  0  0  0  0
  7 12  1  0  0  0  0
 10 13  1  0  0  0  0
 13 14  2  0  0  0  0
 13 15  1  0  0  0  0
 14 16  1  0  0  0  0
 15 17  2  0  0  0  0
 16 18  1  0  0  0  0
 16 19  2  0  0  0  0
 19 20  1  0  0  0  0
 20 21  1  0  0  0  0
 21 22  1  0  0  0  0
 21 23  2  0  0  0  0
 22 24  2  0  0  0  0
 23 25  1  0  0  0  0
 24 26  1  0  0  0  0
 25 27  2  0  0  0  0
 26 28  2  0  0  0  0
 27 29  1  0  0  0  0
 28 30  1  0  0  0  0
  7 11  1  0  0  0  0
 17 19  1  0  0  0  0
 25 26  1  0  0  0  0
 29 30  2  0  0  0  0
M  END
>  <MolRegNo>
1528162

>  <m>
=

>  <Value>
2600

>  <Unit>
nM

>  <Type>
IC50

>  <pValue>
5.58

>  <Ligand Efficiency>
0

>  <Binding Efficiency>
0

>  <Surface Efficiency>
0

>  <Assay Index>
760134

>  <Assay Category>


>  <Assay Organism>
Homo sapiens

>  <Target ID>
17045

>  <Target Name>
Cytochrome P450 3A4

>  <Target Organism>
Homo sapiens

>  <Target Description>
Target is a single protein chain

>  <Sequence Accession>
P08684

>  <Reference>
Bioorg Med Chem 21 (4), 979-992 (2013)

>  <Pubmed ID>
23294830

>  <DOI>
10.1016/j.bmc.2012.11.058

$$$$
1528164
Actelion Java MolfileCreator 1.0

 34 37  0  0  0  0  0  0  0  0999 V2000
    0.0000   -0.0000   -0.0000 Cl  0  0  0  0  0  0  0  0  0  0  0  0
    1.2769    0.7803   -0.0000 C   0  0  0  0  0  0  0  0  0  0  0  0
    2.5656    0.0591   -0.0000 C   0  0  0  0  0  0  0  0  0  0  0  0
    1.2414    2.2936   -0.0000 C   0  0  0  0  0  0  0  0  0  0  0  0
    2.5774   -1.4306   -0.0000 O   0  0  0  0  0  0  0  0  0  0  0  0
    3.8306    0.8394   -0.0000 C   0  0  0  0  0  0  0  0  0  0  0  0
    2.5065    3.0740   -0.0000 C   0  0  0  0  0  0  0  0  0  0  0  0
    1.2887   -2.1872   -0.0000 C   0  0  0  0  0  0  0  0  0  0  0  0
    5.1311    0.1182   -0.0000 Cl  0  0  0  0  0  0  0  0  0  0  0  0
    3.7952    2.3528   -0.0000 C   0  0  0  0  0  0  0  0  0  0  0  0
    2.4710    4.5873   -0.0000 N   0  0  0  0  0  0  0  0  0  0  0  0
   -0.0236   -1.4424   -0.0000 C   0  0  0  0  0  0  0  0  0  0  0  0
    1.3005   -3.6769   -0.0000 C   0  0  0  0  0  0  0  0  0  0  0  0
    1.1586    5.3321   -0.0000 S   0  0  0  0  0  0  0  0  0  0  0  0
   -1.3242   -2.1991   -0.0000 N   0  0  0  0  0  0  0  0  0  0  0  0
    0.0118   -4.4336   -0.0000 C   0  0  0  0  0  0  0  0  0  0  0  0
    0.3902    6.6445   -0.0000 O   0  0  0  0  0  0  0  0  0  0  0  0
    1.8798    6.6445   -0.0000 O   0  0  0  0  0  0  0  0  0  0  0  0
   -0.1419    4.5991   -0.0000 C   0  0  0  0  0  0  0  0  0  0  0  0
   -1.3123   -3.6887   -0.0000 C   0  0  0  0  0  0  0  0  0  0  0  0
    0.0355   -5.9115   -0.0000 C   0  0  0  0  0  0  0  0  0  0  0  0
   -1.4542    5.3558   -0.0000 C   0  0  0  0  0  0  0  0  0  0  0  0
   -0.1537    3.1094   -0.0000 C   0  0  0  0  0  0  0  0  0  0  0  0
   -2.6129   -4.4454   -0.0000 C   0  0  0  0  0  0  0  0  0  0  0  0
   -1.2532   -6.6799   -0.0000 C   0  0  0  0  0  0  0  0  0  0  0  0
   -1.4779    6.8691   -0.0000 Cl  0  0  0  0  0  0  0  0  0  0  0  0
   -2.7666    4.6109   -0.0000 C   0  0  0  0  0  0  0  0  0  0  0  0
   -1.4542    2.3646   -0.0000 C   0  0  0  0  0  0  0  0  0  0  0  0
   -2.6010   -5.9351   -0.0000 C   0  0  0  0  0  0  0  0  0  0  0  0
   -2.7666    3.1331   -0.0000 C   0  0  0  0  0  0  0  0  0  0  0  0
   -4.0671    2.3882   -0.0000 C   0  0  0  0  0  0  0  0  0  0  0  0
   -5.3794    3.1449   -0.0000 F   0  0  0  0  0  0  0  0  0  0  0  0
   -4.0671    0.8985   -0.0000 F   0  0  0  0  0  0  0  0  0  0  0  0
   -5.3794    1.6670   -0.0000 F   0  0  0  0  0  0  0  0  0  0  0  0
  1  2  1  0  0  0  0
  2  3  2  0  0  0  0
  2  4  1  0  0  0  0
  3  5  1  0  0  0  0
  3  6  1  0  0  0  0
  4  7  2  0  0  0  0
  5  8  1  0  0  0  0
  6  9  1  0  0  0  0
  6 10  2  0  0  0  0
  7 11  1  0  0  0  0
  8 12  1  0  0  0  0
  8 13  2  0  0  0  0
 11 14  1  0  0  0  0
 12 15  2  0  0  0  0
 13 16  1  0  0  0  0
 14 17  2  0  0  0  0
 14 18  2  0  0  0  0
 14 19  1  0  0  0  0
 15 20  1  0  0  0  0
 16 21  2  0  0  0  0
 19 22  2  0  0  0  0
 19 23  1  0  0  0  0
 20 24  2  0  0  0  0
 21 25  1  0  0  0  0
 22 26  1  0  0  0  0
 22 27  1  0  0  0  0
 23 28  2  0  0  0  0
 24 29  1  0  0  0  0
 27 30  2  0  0  0  0
 30 31  1  0  0  0  0
 31 32  1  0  0  0  0
 31 33  1  0  0  0  0
 31 34  1  0  0  0  0
  7 10  1  0  0  0  0
 16 20  1  0  0  0  0
 25 29  2  0  0  0  0
 28 30  1  0  0  0  0
M  END
>  <MolRegNo>
1528164

>  <m>
=

>  <Value>
2300

>  <Unit>
nM

>  <Type>
IC50

>  <pValue>
5.64

>  <Ligand Efficiency>
0

>  <Binding Efficiency>
0

>  <Surface Efficiency>
0

>  <Assay Index>
760134

>  <Assay Category>


>  <Assay Organism>
Homo sapiens

>  <Target ID>
17045

>  <Target Name>
Cytochrome P450 3A4

>  <Target Organism>
Homo sapiens

>  <Target Description>
Target is a single protein chain

>  <Sequence Accession>
P08684

>  <Reference>
Bioorg Med Chem 21 (4), 979-992 (2013)

>  <Pubmed ID>
23294830

>  <DOI>
10.1016/j.bmc.2012.11.058

$$$$
1521394
Actelion Java MolfileCreator 1.0

 28 30  0  0  0  0  0  0  0  0999 V2000
    0.0000   -0.0000   -0.0000 Cl  0  0  0  0  0  0  0  0  0  0  0  0
    1.2767    0.7802   -0.0000 C   0  0  0  0  0  0  0  0  0  0  0  0
    2.5653    0.0591   -0.0000 C   0  0  0  0  0  0  0  0  0  0  0  0
    1.2413    2.2934   -0.0000 C   0  0  0  0  0  0  0  0  0  0  0  0
    2.5771   -1.4304   -0.0000 O   0  0  0  0  0  0  0  0  0  0  0  0
    3.8420    0.8393   -0.0000 C   0  0  0  0  0  0  0  0  0  0  0  0
    2.5062    3.0736   -0.0000 C   0  0  0  0  0  0  0  0  0  0  0  0
    1.2767   -2.1870   -0.0000 C   0  0  0  0  0  0  0  0  0  0  0  0
    5.1423    0.1182   -0.0000 Cl  0  0  0  0  0  0  0  0  0  0  0  0
    3.8065    2.3525   -0.0000 C   0  0  0  0  0  0  0  0  0  0  0  0
    2.4707    4.5867   -0.0000 N   0  0  0  0  0  0  0  0  0  0  0  0
   -0.0355   -1.4422   -0.0000 C   0  0  0  0  0  0  0  0  0  0  0  0
    1.2885   -3.6765   -0.0000 C   0  0  0  0  0  0  0  0  0  0  0  0
    1.1585    5.3315   -0.0000 S   0  0  0  0  0  0  0  0  0  0  0  0
   -1.3358   -2.1988   -0.0000 N   0  0  0  0  0  0  0  0  0  0  0  0
   -0.0118   -4.4330   -0.0000 C   0  0  0  0  0  0  0  0  0  0  0  0
    0.3901    6.6437   -0.0000 O   0  0  0  0  0  0  0  0  0  0  0  0
    1.8796    6.6437   -0.0000 O   0  0  0  0  0  0  0  0  0  0  0  0
   -0.1419    4.5985   -0.0000 C   0  0  0  0  0  0  0  0  0  0  0  0
   -1.3240   -3.6883   -0.0000 C   0  0  0  0  0  0  0  0  0  0  0  0
    0.0000   -5.9226   -0.0000 Cl  0  0  0  0  0  0  0  0  0  0  0  0
   -1.4540    5.3551   -0.0000 C   0  0  0  0  0  0  0  0  0  0  0  0
   -0.1537    3.1090   -0.0000 C   0  0  0  0  0  0  0  0  0  0  0  0
   -1.4777    6.8683   -0.0000 Cl  0  0  0  0  0  0  0  0  0  0  0  0
   -2.7662    4.6104   -0.0000 C   0  0  0  0  0  0  0  0  0  0  0  0
   -1.4540    2.3643   -0.0000 C   0  0  0  0  0  0  0  0  0  0  0  0
   -2.7662    3.1327   -0.0000 C   0  0  0  0  0  0  0  0  0  0  0  0
   -4.0666    2.3879   -0.0000 Cl  0  0  0  0  0  0  0  0  0  0  0  0
  1  2  1  0  0  0  0
  2  3  2  0  0  0  0
  2  4  1  0  0  0  0
  3  5  1  0  0  0  0
  3  6  1  0  0  0  0
  4  7  2  0  0  0  0
  5  8  1  0  0  0  0
  6  9  1  0  0  0  0
  6 10  2  0  0  0  0
  7 11  1  0  0  0  0
  8 12  2  0  0  0  0
  8 13  1  0  0  0  0
 11 14  1  0  0  0  0
 12 15  1  0  0  0  0
 13 16  2  0  0  0  0
 14 17  2  0  0  0  0
 14 18  2  0  0  0  0
 14 19  1  0  0  0  0
 15 20  2  0  0  0  0
 16 21  1  0  0  0  0
 19 22  2  0  0  0  0
 19 23  1  0  0  0  0
 22 24  1  0  0  0  0
 22 25  1  0  0  0  0
 23 26  2  0  0  0  0
 25 27  2  0  0  0  0
 27 28  1  0  0  0  0
  7 10  1  0  0  0  0
 16 20  1  0  0  0  0
 26 27  1  0  0  0  0
M  END
>  <MolRegNo>
1521394

>  <m>
=

>  <Value>
1200

>  <Unit>
nM

>  <Type>
IC50

>  <pValue>
5.92

>  <Ligand Efficiency>
0

>  <Binding Efficiency>
0

>  <Surface Efficiency>
0

>  <Assay Index>
760134

>  <Assay Category>


>  <Assay Organism>
Homo sapiens

>  <Target ID>
17045

>  <Target Name>
Cytochrome P450 3A4

>  <Target Organism>
Homo sapiens

>  <Target Description>
Target is a single protein chain

>  <Sequence Accession>
P08684

>  <Reference>
Bioorg Med Chem 21 (4), 979-992 (2013)

>  <Pubmed ID>
23294830

>  <DOI>
10.1016/j.bmc.2012.11.058

$$$$
1528167
Actelion Java MolfileCreator 1.0

 31 34  0  0  0  0  0  0  0  0999 V2000
    0.0000   -0.0000   -0.0000 Cl  0  0  0  0  0  0  0  0  0  0  0  0
    1.2777    0.7808   -0.0000 C   0  0  0  0  0  0  0  0  0  0  0  0
    2.5672    0.0592   -0.0000 C   0  0  0  0  0  0  0  0  0  0  0  0
    1.2422    2.2951   -0.0000 C   0  0  0  0  0  0  0  0  0  0  0  0
    2.5791   -1.4315   -0.0000 O   0  0  0  0  0  0  0  0  0  0  0  0
    3.8449    0.8400   -0.0000 C   0  0  0  0  0  0  0  0  0  0  0  0
    2.5081    3.0759   -0.0000 C   0  0  0  0  0  0  0  0  0  0  0  0
    1.2895   -2.1887   -0.0000 C   0  0  0  0  0  0  0  0  0  0  0  0
    5.1463    0.1183   -0.0000 Cl  0  0  0  0  0  0  0  0  0  0  0  0
    3.8094    2.3543   -0.0000 C   0  0  0  0  0  0  0  0  0  0  0  0
    2.4726    4.5903   -0.0000 N   0  0  0  0  0  0  0  0  0  0  0  0
   -0.0237   -1.4433   -0.0000 C   0  0  0  0  0  0  0  0  0  0  0  0
    1.3132   -3.6675   -0.0000 C   0  0  0  0  0  0  0  0  0  0  0  0
    1.1594    5.3356   -0.0000 S   0  0  0  0  0  0  0  0  0  0  0  0
   -1.3132   -2.2005   -0.0000 C   0  0  0  0  0  0  0  0  0  0  0  0
    0.0237   -4.4365   -0.0000 C   0  0  0  0  0  0  0  0  0  0  0  0
    0.3904    6.6606   -0.0000 O   0  0  0  0  0  0  0  0  0  0  0  0
    1.8929    6.6606   -0.0000 O   0  0  0  0  0  0  0  0  0  0  0  0
   -0.1301    4.6021   -0.0000 C   0  0  0  0  0  0  0  0  0  0  0  0
   -1.3014   -3.6793   -0.0000 C   0  0  0  0  0  0  0  0  0  0  0  0
   -2.6264   -1.4670   -0.0000 C   0  0  0  0  0  0  0  0  0  0  0  0
   -1.4433    5.3592   -0.0000 C   0  0  0  0  0  0  0  0  0  0  0  0
   -0.1420    3.1114   -0.0000 C   0  0  0  0  0  0  0  0  0  0  0  0
   -2.5909   -4.4365   -0.0000 N   0  0  0  0  0  0  0  0  0  0  0  0
   -3.9159   -2.2123   -0.0000 C   0  0  0  0  0  0  0  0  0  0  0  0
   -1.4670    6.8736   -0.0000 Cl  0  0  0  0  0  0  0  0  0  0  0  0
   -2.7565    4.6021   -0.0000 C   0  0  0  0  0  0  0  0  0  0  0  0
   -1.4433    2.3779   -0.0000 C   0  0  0  0  0  0  0  0  0  0  0  0
   -3.9041   -3.7030   -0.0000 C   0  0  0  0  0  0  0  0  0  0  0  0
   -2.7565    3.1233   -0.0000 C   0  0  0  0  0  0  0  0  0  0  0  0
   -4.0579    2.3779   -0.0000 Cl  0  0  0  0  0  0  0  0  0  0  0  0
  1  2  1  0  0  0  0
  2  3  2  0  0  0  0
  2  4  1  0  0  0  0
  3  5  1  0  0  0  0
  3  6  1  0  0  0  0
  4  7  2  0  0  0  0
  5  8  1  0  0  0  0
  6  9  1  0  0  0  0
  6 10  2  0  0  0  0
  7 11  1  0  0  0  0
  8 12  2  0  0  0  0
  8 13  1  0  0  0  0
 11 14  1  0  0  0  0
 12 15  1  0  0  0  0
 13 16  2  0  0  0  0
 14 17  2  0  0  0  0
 14 18  2  0  0  0  0
 14 19  1  0  0  0  0
 15 20  1  0  0  0  0
 15 21  2  0  0  0  0
 19 22  2  0  0  0  0
 19 23  1  0  0  0  0
 20 24  2  0  0  0  0
 21 25  1  0  0  0  0
 22 26  1  0  0  0  0
 22 27  1  0  0  0  0
 23 28  2  0  0  0  0
 24 29  1  0  0  0  0
 27 30  2  0  0  0  0
 30 31  1  0  0  0  0
  7 10  1  0  0  0  0
 16 20  1  0  0  0  0
 25 29  2  0  0  0  0
 28 30  1  0  0  0  0
M  END
>  <MolRegNo>
1528167

>  <m>
=

>  <Value>
1000

>  <Unit>
nM

>  <Type>
IC50

>  <pValue>
6

>  <Ligand Efficiency>
0

>  <Binding Efficiency>
0

>  <Surface Efficiency>
0

>  <Assay Index>
760134

>  <Assay Category>


>  <Assay Organism>
Homo sapiens

>  <Target ID>
17045

>  <Target Name>
Cytochrome P450 3A4

>  <Target Organism>
Homo sapiens

>  <Target Description>
Target is a single protein chain

>  <Sequence Accession>
P08684

>  <Reference>
Bioorg Med Chem 21 (4), 979-992 (2013)

>  <Pubmed ID>
23294830

>  <DOI>
10.1016/j.bmc.2012.11.058

$$$$
1528174
Actelion Java MolfileCreator 1.0

 28 30  0  0  0  0  0  0  0  0999 V2000
    0.0000   -0.0000   -0.0000 Cl  0  0  0  0  0  0  0  0  0  0  0  0
    0.0000   -1.4975   -0.0000 C   0  0  0  0  0  0  0  0  0  0  0  0
    1.2955   -2.2344   -0.0000 C   0  0  0  0  0  0  0  0  0  0  0  0
   -1.3193   -2.2463   -0.0000 C   0  0  0  0  0  0  0  0  0  0  0  0
    2.5791   -1.4738   -0.0000 S   0  0  0  0  0  0  0  0  0  0  0  0
    1.2836   -3.7319   -0.0000 C   0  0  0  0  0  0  0  0  0  0  0  0
   -1.3193   -3.7319   -0.0000 C   0  0  0  0  0  0  0  0  0  0  0  0
    1.8065   -0.1545   -0.0000 O   0  0  0  0  0  0  0  0  0  0  0  0
    3.3041   -0.1545   -0.0000 O   0  0  0  0  0  0  0  0  0  0  0  0
    3.8746   -2.1988   -0.0000 N   0  0  0  0  0  0  0  0  0  0  0  0
   -0.0238   -4.4807   -0.0000 C   0  0  0  0  0  0  0  0  0  0  0  0
   -2.6266   -4.4807   -0.0000 Cl  0  0  0  0  0  0  0  0  0  0  0  0
    3.8864   -3.6963   -0.0000 C   0  0  0  0  0  0  0  0  0  0  0  0
    5.1819   -4.4213   -0.0000 C   0  0  0  0  0  0  0  0  0  0  0  0
    2.5910   -4.4569   -0.0000 C   0  0  0  0  0  0  0  0  0  0  0  0
    5.1938   -5.9188   -0.0000 C   0  0  0  0  0  0  0  0  0  0  0  0
    2.6028   -5.9545   -0.0000 C   0  0  0  0  0  0  0  0  0  0  0  0
    6.5012   -6.6438   -0.0000 C   0  0  0  0  0  0  0  0  0  0  0  0
    3.8983   -6.6794   -0.0000 C   0  0  0  0  0  0  0  0  0  0  0  0
    7.7966   -7.3569   -0.0000 N   0  0  0  0  0  0  0  0  0  0  0  0
    3.9102   -8.1770   -0.0000 O   0  0  0  0  0  0  0  0  0  0  0  0
    2.6147   -8.9376   -0.0000 C   0  0  0  0  0  0  0  0  0  0  0  0
    1.2955   -8.1889   -0.0000 C   0  0  0  0  0  0  0  0  0  0  0  0
    2.6266  -10.4351   -0.0000 C   0  0  0  0  0  0  0  0  0  0  0  0
   -0.0119   -8.9495   -0.0000 N   0  0  0  0  0  0  0  0  0  0  0  0
    1.3311  -11.1958   -0.0000 C   0  0  0  0  0  0  0  0  0  0  0  0
    0.0000  -10.4470   -0.0000 C   0  0  0  0  0  0  0  0  0  0  0  0
    1.3430  -12.6933   -0.0000 Cl  0  0  0  0  0  0  0  0  0  0  0  0
  1  2  1  0  0  0  0
  2  3  2  0  0  0  0
  2  4  1  0  0  0  0
  3  5  1  0  0  0  0
  3  6  1  0  0  0  0
  4  7  2  0  0  0  0
  5  8  2  0  0  0  0
  5  9  2  0  0  0  0
  5 10  1  0  0  0  0
  6 11  2  0  0  0  0
  7 12  1  0  0  0  0
 10 13  1  0  0  0  0
 13 14  2  0  0  0  0
 13 15  1  0  0  0  0
 14 16  1  0  0  0  0
 15 17  2  0  0  0  0
 16 18  1  0  0  0  0
 16 19  2  0  0  0  0
 18 20  3  0  0  0  0
 19 21  1  0  0  0  0
 21 22  1  0  0  0  0
 22 23  2  0  0  0  0
 22 24  1  0  0  0  0
 23 25  1  0  0  0  0
 24 26  2  0  0  0  0
 25 27  2  0  0  0  0
 26 28  1  0  0  0  0
  7 11  1  0  0  0  0
 17 19  1  0  0  0  0
 26 27  1  0  0  0  0
M  END
>  <MolRegNo>
1528174

>  <m>
=

>  <Value>
600

>  <Unit>
nM

>  <Type>
IC50

>  <pValue>
6.22

>  <Ligand Efficiency>
0

>  <Binding Efficiency>
0

>  <Surface Efficiency>
0

>  <Assay Index>
760134

>  <Assay Category>


>  <Assay Organism>
Homo sapiens

>  <Target ID>
17045

>  <Target Name>
Cytochrome P450 3A4

>  <Target Organism>
Homo sapiens

>  <Target Description>
Target is a single protein chain

>  <Sequence Accession>
P08684

>  <Reference>
Bioorg Med Chem 21 (4), 979-992 (2013)

>  <Pubmed ID>
23294830

>  <DOI>
10.1016/j.bmc.2012.11.058

$$$$
1528172
Actelion Java MolfileCreator 1.0

 30 32  0  0  0  0  0  0  0  0999 V2000
    0.0000   -0.0000   -0.0000 Cl  0  0  0  0  0  0  0  0  0  0  0  0
    1.2775    0.7807   -0.0000 C   0  0  0  0  0  0  0  0  0  0  0  0
    2.5668    0.0591   -0.0000 C   0  0  0  0  0  0  0  0  0  0  0  0
    1.2420    2.2948   -0.0000 C   0  0  0  0  0  0  0  0  0  0  0  0
    2.5786   -1.4313   -0.0000 O   0  0  0  0  0  0  0  0  0  0  0  0
    3.8325    0.8398   -0.0000 C   0  0  0  0  0  0  0  0  0  0  0  0
    2.5077    3.0754   -0.0000 C   0  0  0  0  0  0  0  0  0  0  0  0
    1.2775   -2.1883   -0.0000 C   0  0  0  0  0  0  0  0  0  0  0  0
    5.1336    0.1183   -0.0000 Cl  0  0  0  0  0  0  0  0  0  0  0  0
    3.7970    2.3539   -0.0000 C   0  0  0  0  0  0  0  0  0  0  0  0
    2.4722    4.5895   -0.0000 N   0  0  0  0  0  0  0  0  0  0  0  0
   -0.0355   -1.4431   -0.0000 C   0  0  0  0  0  0  0  0  0  0  0  0
    1.2893   -3.6787   -0.0000 C   0  0  0  0  0  0  0  0  0  0  0  0
    1.1592    5.3347   -0.0000 S   0  0  0  0  0  0  0  0  0  0  0  0
   -1.3366   -2.2001   -0.0000 N   0  0  0  0  0  0  0  0  0  0  0  0
   -0.0118   -4.4357   -0.0000 C   0  0  0  0  0  0  0  0  0  0  0  0
    0.3903    6.6477   -0.0000 O   0  0  0  0  0  0  0  0  0  0  0  0
    1.8808    6.6477   -0.0000 O   0  0  0  0  0  0  0  0  0  0  0  0
   -0.1419    4.6013   -0.0000 C   0  0  0  0  0  0  0  0  0  0  0  0
   -1.3248   -3.6905   -0.0000 C   0  0  0  0  0  0  0  0  0  0  0  0
    0.0000   -5.9261   -0.0000 C   0  0  0  0  0  0  0  0  0  0  0  0
   -1.4549    5.3584   -0.0000 C   0  0  0  0  0  0  0  0  0  0  0  0
   -0.1538    3.1109   -0.0000 C   0  0  0  0  0  0  0  0  0  0  0  0
   -1.3011   -6.6832   -0.0000 O   0  0  0  0  0  0  0  0  0  0  0  0
    1.3011   -6.6477   -0.0000 C   0  0  0  0  0  0  0  0  0  0  0  0
   -1.4786    6.8724   -0.0000 Cl  0  0  0  0  0  0  0  0  0  0  0  0
   -2.7679    4.6132   -0.0000 C   0  0  0  0  0  0  0  0  0  0  0  0
   -1.4549    2.3657   -0.0000 C   0  0  0  0  0  0  0  0  0  0  0  0
   -2.7679    3.1346   -0.0000 C   0  0  0  0  0  0  0  0  0  0  0  0
   -4.0690    2.3894   -0.0000 Cl  0  0  0  0  0  0  0  0  0  0  0  0
  1  2  1  0  0  0  0
  2  3  2  0  0  0  0
  2  4  1  0  0  0  0
  3  5  1  0  0  0  0
  3  6  1  0  0  0  0
  4  7  2  0  0  0  0
  5  8  1  0  0  0  0
  6  9  1  0  0  0  0
  6 10  2  0  0  0  0
  7 11  1  0  0  0  0
  8 12  2  0  0  0  0
  8 13  1  0  0  0  0
 11 14  1  0  0  0  0
 12 15  1  0  0  0  0
 13 16  2  0  0  0  0
 14 17  2  0  0  0  0
 14 18  2  0  0  0  0
 14 19  1  0  0  0  0
 15 20  2  0  0  0  0
 16 21  1  0  0  0  0
 19 22  2  0  0  0  0
 19 23  1  0  0  0  0
 21 24  2  0  0  0  0
 21 25  1  0  0  0  0
 22 26  1  0  0  0  0
 22 27  1  0  0  0  0
 23 28  2  0  0  0  0
 27 29  2  0  0  0  0
 29 30  1  0  0  0  0
  7 10  1  0  0  0  0
 16 20  1  0  0  0  0
 28 29  1  0  0  0  0
M  END
>  <MolRegNo>
1528172

>  <m>
=

>  <Value>
360

>  <Unit>
nM

>  <Type>
IC50

>  <pValue>
6.44

>  <Ligand Efficiency>
0

>  <Binding Efficiency>
0

>  <Surface Efficiency>
0

>  <Assay Index>
760134

>  <Assay Category>


>  <Assay Organism>
Homo sapiens

>  <Target ID>
17045

>  <Target Name>
Cytochrome P450 3A4

>  <Target Organism>
Homo sapiens

>  <Target Description>
Target is a single protein chain

>  <Sequence Accession>
P08684

>  <Reference>
Bioorg Med Chem 21 (4), 979-992 (2013)

>  <Pubmed ID>
23294830

>  <DOI>
10.1016/j.bmc.2012.11.058

$$$$
1521408
Actelion Java MolfileCreator 1.0

 32 34  0  0  0  0  0  0  0  0999 V2000
    0.0000   -0.0000   -0.0000 Cl  0  0  0  0  0  0  0  0  0  0  0  0
    0.0000   -1.4864   -0.0000 C   0  0  0  0  0  0  0  0  0  0  0  0
    1.2961   -2.2236   -0.0000 C   0  0  0  0  0  0  0  0  0  0  0  0
   -1.3199   -2.2355   -0.0000 C   0  0  0  0  0  0  0  0  0  0  0  0
    2.5803   -1.4626   -0.0000 S   0  0  0  0  0  0  0  0  0  0  0  0
    1.2842   -3.7218   -0.0000 C   0  0  0  0  0  0  0  0  0  0  0  0
   -1.3199   -3.7218   -0.0000 C   0  0  0  0  0  0  0  0  0  0  0  0
    1.8074   -0.1427   -0.0000 O   0  0  0  0  0  0  0  0  0  0  0  0
    3.3057   -0.1427   -0.0000 O   0  0  0  0  0  0  0  0  0  0  0  0
    3.8764   -2.1879   -0.0000 N   0  0  0  0  0  0  0  0  0  0  0  0
   -0.0238   -4.4710   -0.0000 C   0  0  0  0  0  0  0  0  0  0  0  0
   -2.6279   -4.4710   -0.0000 Cl  0  0  0  0  0  0  0  0  0  0  0  0
    3.8883   -3.6862   -0.0000 C   0  0  0  0  0  0  0  0  0  0  0  0
   -0.0238   -5.9573   -0.0000 C   0  0  0  0  0  0  0  0  0  0  0  0
    5.1844   -4.4115   -0.0000 C   0  0  0  0  0  0  0  0  0  0  0  0
    2.5922   -4.4472   -0.0000 C   0  0  0  0  0  0  0  0  0  0  0  0
    5.1963   -5.9097   -0.0000 C   0  0  0  0  0  0  0  0  0  0  0  0
    2.6041   -5.9454   -0.0000 C   0  0  0  0  0  0  0  0  0  0  0  0
    3.9002   -6.6708   -0.0000 C   0  0  0  0  0  0  0  0  0  0  0  0
    6.5043   -6.6351   -0.0000 C   0  0  0  0  0  0  0  0  0  0  0  0
    3.9121   -8.1690   -0.0000 O   0  0  0  0  0  0  0  0  0  0  0  0
    6.5162   -8.1333   -0.0000 O   0  0  0  0  0  0  0  0  0  0  0  0
    7.7766   -5.8503   -0.0000 N   0  0  0  0  0  0  0  0  0  0  0  0
    2.6160   -8.9300   -0.0000 C   0  0  0  0  0  0  0  0  0  0  0  0
    9.0727   -6.5756   -0.0000 C   0  0  0  0  0  0  0  0  0  0  0  0
    1.2961   -8.1809   -0.0000 C   0  0  0  0  0  0  0  0  0  0  0  0
    2.6279  -10.4283   -0.0000 C   0  0  0  0  0  0  0  0  0  0  0  0
   10.3569   -5.7908   -0.0000 C   0  0  0  0  0  0  0  0  0  0  0  0
   -0.0119   -8.9419   -0.0000 N   0  0  0  0  0  0  0  0  0  0  0  0
    1.3318  -11.1893   -0.0000 C   0  0  0  0  0  0  0  0  0  0  0  0
    0.0000  -10.4401   -0.0000 C   0  0  0  0  0  0  0  0  0  0  0  0
    1.3437  -12.6875   -0.0000 Cl  0  0  0  0  0  0  0  0  0  0  0  0
  1  2  1  0  0  0  0
  2  3  2  0  0  0  0
  2  4  1  0  0  0  0
  3  5  1  0  0  0  0
  3  6  1  0  0  0  0
  4  7  2  0  0  0  0
  5  8  2  0  0  0  0
  5  9  2  0  0  0  0
  5 10  1  0  0  0  0
  6 11  2  0  0  0  0
  7 12  1  0  0  0  0
 10 13  1  0  0  0  0
 11 14  1  0  0  0  0
 13 15  2  0  0  0  0
 13 16  1  0  0  0  0
 15 17  1  0  0  0  0
 16 18  2  0  0  0  0
 17 19  2  0  0  0  0
 17 20  1  0  0  0  0
 19 21  1  0  0  0  0
 20 22  2  0  0  0  0
 20 23  1  0  0  0  0
 21 24  1  0  0  0  0
 23 25  1  0  0  0  0
 24 26  2  0  0  0  0
 24 27  1  0  0  0  0
 25 28  1  0  0  0  0
 26 29  1  0  0  0  0
 27 30  2  0  0  0  0
 29 31  2  0  0  0  0
 30 32  1  0  0  0  0
  7 11  1  0  0  0  0
 18 19  1  0  0  0  0
 30 31  1  0  0  0  0
M  END
>  <MolRegNo>
1521408

>  <m>
=

>  <Value>
360

>  <Unit>
nM

>  <Type>
IC50

>  <pValue>
6.44

>  <Ligand Efficiency>
0

>  <Binding Efficiency>
0

>  <Surface Efficiency>
0

>  <Assay Index>
760134

>  <Assay Category>


>  <Assay Organism>
Homo sapiens

>  <Target ID>
17045

>  <Target Name>
Cytochrome P450 3A4

>  <Target Organism>
Homo sapiens

>  <Target Description>
Target is a single protein chain

>  <Sequence Accession>
P08684

>  <Reference>
Bioorg Med Chem 21 (4), 979-992 (2013)

>  <Pubmed ID>
23294830

>  <DOI>
10.1016/j.bmc.2012.11.058

$$$$
1528171
Actelion Java MolfileCreator 1.0

 30 32  0  0  0  0  0  0  0  0999 V2000
    0.0000   -0.0000   -0.0000 Cl  0  0  0  0  0  0  0  0  0  0  0  0
    1.2778    0.7809   -0.0000 C   0  0  0  0  0  0  0  0  0  0  0  0
    2.5674    0.0592   -0.0000 C   0  0  0  0  0  0  0  0  0  0  0  0
    1.2423    2.2952   -0.0000 C   0  0  0  0  0  0  0  0  0  0  0  0
    2.5792   -1.4316   -0.0000 O   0  0  0  0  0  0  0  0  0  0  0  0
    3.8333    0.8400   -0.0000 C   0  0  0  0  0  0  0  0  0  0  0  0
    2.5082    3.0761   -0.0000 C   0  0  0  0  0  0  0  0  0  0  0  0
    1.2896   -2.1888   -0.0000 C   0  0  0  0  0  0  0  0  0  0  0  0
    5.1347    0.1183   -0.0000 Cl  0  0  0  0  0  0  0  0  0  0  0  0
    3.7978    2.3544   -0.0000 C   0  0  0  0  0  0  0  0  0  0  0  0
    2.4727    4.5905   -0.0000 N   0  0  0  0  0  0  0  0  0  0  0  0
   -0.0237   -1.4434   -0.0000 C   0  0  0  0  0  0  0  0  0  0  0  0
    1.3014   -3.6795   -0.0000 C   0  0  0  0  0  0  0  0  0  0  0  0
    1.1594    5.3358   -0.0000 S   0  0  0  0  0  0  0  0  0  0  0  0
   -1.3251   -2.2006   -0.0000 N   0  0  0  0  0  0  0  0  0  0  0  0
    0.0118   -4.4367   -0.0000 C   0  0  0  0  0  0  0  0  0  0  0  0
    0.3904    6.6491   -0.0000 O   0  0  0  0  0  0  0  0  0  0  0  0
    1.8811    6.6491   -0.0000 O   0  0  0  0  0  0  0  0  0  0  0  0
   -0.1420    4.6023   -0.0000 C   0  0  0  0  0  0  0  0  0  0  0  0
   -1.3133   -3.6913   -0.0000 C   0  0  0  0  0  0  0  0  0  0  0  0
    0.0237   -5.9274   -0.0000 C   0  0  0  0  0  0  0  0  0  0  0  0
   -1.4552    5.3595   -0.0000 C   0  0  0  0  0  0  0  0  0  0  0  0
   -0.1538    3.1116   -0.0000 C   0  0  0  0  0  0  0  0  0  0  0  0
   -1.2778   -6.6846   -0.0000 O   0  0  0  0  0  0  0  0  0  0  0  0
    1.3251   -6.6491   -0.0000 N   0  0  0  0  0  0  0  0  0  0  0  0
   -1.4789    6.8739   -0.0000 Cl  0  0  0  0  0  0  0  0  0  0  0  0
   -2.7685    4.6141   -0.0000 C   0  0  0  0  0  0  0  0  0  0  0  0
   -1.4552    2.3662   -0.0000 C   0  0  0  0  0  0  0  0  0  0  0  0
   -2.7685    3.1352   -0.0000 C   0  0  0  0  0  0  0  0  0  0  0  0
   -4.0699    2.3899   -0.0000 Cl  0  0  0  0  0  0  0  0  0  0  0  0
  1  2  1  0  0  0  0
  2  3  2  0  0  0  0
  2  4  1  0  0  0  0
  3  5  1  0  0  0  0
  3  6  1  0  0  0  0
  4  7  2  0  0  0  0
  5  8  1  0  0  0  0
  6  9  1  0  0  0  0
  6 10  2  0  0  0  0
  7 11  1  0  0  0  0
  8 12  2  0  0  0  0
  8 13  1  0  0  0  0
 11 14  1  0  0  0  0
 12 15  1  0  0  0  0
 13 16  2  0  0  0  0
 14 17  2  0  0  0  0
 14 18  2  0  0  0  0
 14 19  1  0  0  0  0
 15 20  2  0  0  0  0
 16 21  1  0  0  0  0
 19 22  2  0  0  0  0
 19 23  1  0  0  0  0
 21 24  2  0  0  0  0
 21 25  1  0  0  0  0
 22 26  1  0  0  0  0
 22 27  1  0  0  0  0
 23 28  2  0  0  0  0
 27 29  2  0  0  0  0
 29 30  1  0  0  0  0
  7 10  1  0  0  0  0
 16 20  1  0  0  0  0
 28 29  1  0  0  0  0
M  END
>  <MolRegNo>
1528171

>  <m>
=

>  <Value>
30

>  <Unit>
nM

>  <Type>
IC50

>  <pValue>
7.52

>  <Ligand Efficiency>
0

>  <Binding Efficiency>
0

>  <Surface Efficiency>
0

>  <Assay Index>
760134

>  <Assay Category>


>  <Assay Organism>
Homo sapiens

>  <Target ID>
17045

>  <Target Name>
Cytochrome P450 3A4

>  <Target Organism>
Homo sapiens

>  <Target Description>
Target is a single protein chain

>  <Sequence Accession>
P08684

>  <Reference>
Bioorg Med Chem 21 (4), 979-992 (2013)

>  <Pubmed ID>
23294830

>  <DOI>
10.1016/j.bmc.2012.11.058

$$$$
1529164
Actelion Java MolfileCreator 1.0

 35 38  0  0  0  0  0  0  0  0999 V2000
    0.0000   -0.0000   -0.0000 O   0  0  0  0  0  0  0  0  0  0  0  0
   -0.3202   -1.4587   -0.0000 C   0  0  0  0  0  0  0  0  0  0  0  0
    0.7827   -2.4430   -0.0000 O   0  0  0  0  0  0  0  0  0  0  0  0
   -1.7551   -1.9093   -0.0000 N   0  0  0  0  0  0  0  0  0  0  0  0
    2.1939   -1.9686   -0.0000 C   0  0  0  0  0  0  0  0  0  0  0  0
   -2.8818   -0.9013   -0.0000 C   0  0  0  0  0  0  0  0  0  0  0  0
   -4.3167   -1.3519   -0.0000 C   0  0  0  0  0  0  0  0  0  0  0  0
   -2.5853    0.5811   -0.0000 C   0  0  0  0  0  0  0  0  0  0  0  0
   -4.6369   -2.8106   -0.0000 O   0  0  0  0  0  0  0  0  0  0  0  0
   -5.4433   -0.3439   -0.0000 N   0  0  0  0  0  0  0  0  0  0  0  0
   -1.1740    1.0555   -0.0000 C   0  0  0  0  0  0  0  0  0  0  0  0
   -3.7119    1.5891   -0.0000 C   0  0  0  0  0  0  0  0  0  0  0  0
   -6.9138   -0.6522   -0.0000 C   0  0  0  0  0  0  0  0  0  0  0  0
   -5.3010    1.1622   -0.0000 C   0  0  0  0  0  0  0  0  0  0  0  0
   -7.5305   -2.0042   -0.0000 C   0  0  0  0  0  0  0  0  0  0  0  0
   -7.6847    0.6522   -0.0000 C   0  0  0  0  0  0  0  0  0  0  0  0
   -6.6767    1.7789   -0.0000 C   0  0  0  0  0  0  0  0  0  0  0  0
   -6.7953   -3.2850   -0.0000 N   0  0  0  0  0  0  0  0  0  0  0  0
   -9.0010   -2.3125   -0.0000 N   0  0  0  0  0  0  0  0  0  0  0  0
   -7.8033   -4.3879   -0.0000 C   0  0  0  0  0  0  0  0  0  0  0  0
   -9.1671   -3.7949   -0.0000 C   0  0  0  0  0  0  0  0  0  0  0  0
  -10.4834   -4.5420   -0.0000 C   0  0  0  0  0  0  0  0  0  0  0  0
  -10.4953   -6.0363   -0.0000 C   0  0  0  0  0  0  0  0  0  0  0  0
  -11.7879   -3.7830   -0.0000 C   0  0  0  0  0  0  0  0  0  0  0  0
  -11.8117   -6.7715   -0.0000 C   0  0  0  0  0  0  0  0  0  0  0  0
  -13.0924   -4.5183   -0.0000 C   0  0  0  0  0  0  0  0  0  0  0  0
  -13.1162   -6.0126   -0.0000 C   0  0  0  0  0  0  0  0  0  0  0  0
  -14.4207   -6.7597   -0.0000 C   0  0  0  0  0  0  0  0  0  0  0  0
  -15.7252   -6.0007   -0.0000 C   0  0  0  0  0  0  0  0  0  0  0  0
  -14.4325   -8.2421   -0.0000 C   0  0  0  0  0  0  0  0  0  0  0  0
  -17.0297   -6.7360   -0.0000 C   0  0  0  0  0  0  0  0  0  0  0  0
  -15.7370   -8.9773   -0.0000 C   0  0  0  0  0  0  0  0  0  0  0  0
  -17.0415   -8.2183   -0.0000 C   0  0  0  0  0  0  0  0  0  0  0  0
  -18.3460   -8.9536   -0.0000 C   0  0  0  0  0  0  0  0  0  0  0  0
  -19.6505   -8.1946   -0.0000 O   0  0  0  0  0  0  0  0  0  0  0  0
  1  2  2  0  0  0  0
  2  3  1  0  0  0  0
  2  4  1  0  0  0  0
  3  5  1  0  0  0  0
  6  4  1  6  0  0  0
  6  7  1  0  0  0  0
  6  8  1  0  0  0  0
  7  9  2  0  0  0  0
  7 10  1  0  0  0  0
  8 11  1  0  0  0  0
  8 12  1  0  0  0  0
 10 13  1  0  0  0  0
 10 14  1  0  0  0  0
 13 15  1  6  0  0  0
 13 16  1  0  0  0  0
 14 17  1  0  0  0  0
 15 18  2  0  0  0  0
 15 19  1  0  0  0  0
 18 20  1  0  0  0  0
 19 21  1  0  0  0  0
 21 22  1  0  0  0  0
 22 23  2  0  0  0  0
 22 24  1  0  0  0  0
 23 25  1  0  0  0  0
 24 26  2  0  0  0  0
 25 27  2  0  0  0  0
 27 28  1  0  0  0  0
 28 29  2  0  0  0  0
 28 30  1  0  0  0  0
 29 31  1  0  0  0  0
 30 32  2  0  0  0  0
 31 33  2  0  0  0  0
 33 34  1  0  0  0  0
 34 35  1  0  0  0  0
 16 17  1  0  0  0  0
 20 21  2  0  0  0  0
 26 27  1  0  0  0  0
 32 33  1  0  0  0  0
M  END
>  <MolRegNo>
1529164

>  <m>
=

>  <Value>
6900

>  <Unit>
nM

>  <Type>
IC50

>  <pValue>
5.16

>  <Ligand Efficiency>
0

>  <Binding Efficiency>
0

>  <Surface Efficiency>
0

>  <Assay Index>
765468

>  <Assay Category>


>  <Assay Organism>
Homo sapiens

>  <Target ID>
17045

>  <Target Name>
Cytochrome P450 3A4

>  <Target Organism>
Homo sapiens

>  <Target Description>
Target is a single protein chain

>  <Sequence Accession>
P08684

>  <Reference>
Bioorg Med Chem Lett 23 (7), 2031-2034 (2013)

>  <Pubmed ID>
23466233

>  <DOI>
10.1016/j.bmcl.2013.02.023

$$$$
1529155
Actelion Java MolfileCreator 1.0

 37 40  0  0  0  0  0  0  0  0999 V2000
    0.0000   -0.0000   -0.0000 F   0  0  0  0  0  0  0  0  0  0  0  0
    1.2864   -0.7385   -0.0000 C   0  0  0  0  0  0  0  0  0  0  0  0
    1.2745   -2.2275   -0.0000 F   0  0  0  0  0  0  0  0  0  0  0  0
   -0.0357   -1.4651   -0.0000 F   0  0  0  0  0  0  0  0  0  0  0  0
    2.5729    0.0238   -0.0000 C   0  0  0  0  0  0  0  0  0  0  0  0
    2.5610    1.5366   -0.0000 C   0  0  0  0  0  0  0  0  0  0  0  0
    3.8712   -0.7147   -0.0000 C   0  0  0  0  0  0  0  0  0  0  0  0
    3.8474    2.2989   -0.0000 C   0  0  0  0  0  0  0  0  0  0  0  0
    5.1577    0.0476   -0.0000 C   0  0  0  0  0  0  0  0  0  0  0  0
    5.1339    1.5604   -0.0000 C   0  0  0  0  0  0  0  0  0  0  0  0
    6.4203    2.3347   -0.0000 C   0  0  0  0  0  0  0  0  0  0  0  0
    7.7067    1.5961   -0.0000 C   0  0  0  0  0  0  0  0  0  0  0  0
    6.4084    3.8593   -0.0000 C   0  0  0  0  0  0  0  0  0  0  0  0
    9.0051    2.3585   -0.0000 C   0  0  0  0  0  0  0  0  0  0  0  0
    7.6948    4.6217   -0.0000 C   0  0  0  0  0  0  0  0  0  0  0  0
    8.9932    3.8832   -0.0000 C   0  0  0  0  0  0  0  0  0  0  0  0
   10.2915    4.6574   -0.0000 C   0  0  0  0  0  0  0  0  0  0  0  0
   10.4345    6.1702   -0.0000 N   0  0  0  0  0  0  0  0  0  0  0  0
   11.6495    4.0618   -0.0000 C   0  0  0  0  0  0  0  0  0  0  0  0
   11.8877    6.5037   -0.0000 C   0  0  0  0  0  0  0  0  0  0  0  0
   12.6381    5.1934   -0.0000 N   0  0  0  0  0  0  0  0  0  0  0  0
   12.4833    7.8854   -0.0000 C   0  0  0  0  0  0  0  0  0  0  0  0
   13.9365    8.2189   -0.0000 N   0  0  0  0  0  0  0  0  0  0  0  0
   11.7209    9.1957   -0.0000 C   0  0  0  0  0  0  0  0  0  0  0  0
   15.0442    7.2303   -0.0000 C   0  0  0  0  0  0  0  0  0  0  0  0
   14.0794    9.7317   -0.0000 C   0  0  0  0  0  0  0  0  0  0  0  0
   12.7096   10.3273   -0.0000 C   0  0  0  0  0  0  0  0  0  0  0  0
   14.7226    5.7771   -0.0000 O   0  0  0  0  0  0  0  0  0  0  0  0
   16.4617    7.7067   -0.0000 C   0  0  0  0  0  0  0  0  0  0  0  0
   17.5695    6.7181   -0.0000 N   0  0  0  0  0  0  0  0  0  0  0  0
   16.7595    9.1838   -0.0000 C   0  0  0  0  0  0  0  0  0  0  0  0
   18.9870    7.1946   -0.0000 C   0  0  0  0  0  0  0  0  0  0  0  0
   18.1770    9.6602   -0.0000 C   0  0  0  0  0  0  0  0  0  0  0  0
   15.6279   10.1963   -0.0000 C   0  0  0  0  0  0  0  0  0  0  0  0
   19.2847    8.6716   -0.0000 O   0  0  0  0  0  0  0  0  0  0  0  0
   20.0947    6.2059   -0.0000 O   0  0  0  0  0  0  0  0  0  0  0  0
   21.5122    6.6824   -0.0000 C   0  0  0  0  0  0  0  0  0  0  0  0
  1  2  1  0  0  0  0
  2  3  1  0  0  0  0
  2  4  1  0  0  0  0
  2  5  1  0  0  0  0
  5  6  2  0  0  0  0
  5  7  1  0  0  0  0
  6  8  1  0  0  0  0
  7  9  2  0  0  0  0
  8 10  2  0  0  0  0
 10 11  1  0  0  0  0
 11 12  2  0  0  0  0
 11 13  1  0  0  0  0
 12 14  1  0  0  0  0
 13 15  2  0  0  0  0
 14 16  2  0  0  0  0
 16 17  1  0  0  0  0
 17 18  1  0  0  0  0
 17 19  2  0  0  0  0
 18 20  1  0  0  0  0
 19 21  1  0  0  0  0
 22 20  1  6  0  0  0
 22 23  1  0  0  0  0
 22 24  1  0  0  0  0
 23 25  1  0  0  0  0
 23 26  1  0  0  0  0
 24 27  1  0  0  0  0
 25 28  2  0  0  0  0
 25 29  1  0  0  0  0
 29 30  1  6  0  0  0
 29 31  1  0  0  0  0
 30 32  1  0  0  0  0
 31 33  1  0  0  0  0
 31 34  1  0  0  0  0
 32 35  2  0  0  0  0
 32 36  1  0  0  0  0
 36 37  1  0  0  0  0
  9 10  1  0  0  0  0
 15 16  1  0  0  0  0
 20 21  2  0  0  0  0
 26 27  1  0  0  0  0
M  END
>  <MolRegNo>
1529155

>  <m>
=

>  <Value>
6500

>  <Unit>
nM

>  <Type>
IC50

>  <pValue>
5.19

>  <Ligand Efficiency>
0

>  <Binding Efficiency>
0

>  <Surface Efficiency>
0

>  <Assay Index>
765468

>  <Assay Category>


>  <Assay Organism>
Homo sapiens

>  <Target ID>
17045

>  <Target Name>
Cytochrome P450 3A4

>  <Target Organism>
Homo sapiens

>  <Target Description>
Target is a single protein chain

>  <Sequence Accession>
P08684

>  <Reference>
Bioorg Med Chem Lett 23 (7), 2031-2034 (2013)

>  <Pubmed ID>
23466233

>  <DOI>
10.1016/j.bmcl.2013.02.023

$$$$
1558400
Actelion Java MolfileCreator 1.0

 28 30  0  0  0  0  0  0  0  0999 V2000
    0.0000   -0.0000   -0.0000 Br  0  0  0  0  0  0  0  0  0  0  0  0
   -1.3037    0.7466   -0.0000 C   0  0  0  0  0  0  0  0  0  0  0  0
   -2.6073    0.0119   -0.0000 C   0  0  0  0  0  0  0  0  0  0  0  0
   -1.3274    2.2636   -0.0000 C   0  0  0  0  0  0  0  0  0  0  0  0
   -3.9110    0.7704   -0.0000 C   0  0  0  0  0  0  0  0  0  0  0  0
   -2.6429    3.0103   -0.0000 C   0  0  0  0  0  0  0  0  0  0  0  0
   -5.2147    0.0356   -0.0000 F   0  0  0  0  0  0  0  0  0  0  0  0
   -3.9229    2.2755   -0.0000 C   0  0  0  0  0  0  0  0  0  0  0  0
   -5.2384    3.0340   -0.0000 S   0  0  0  0  0  0  0  0  0  0  0  0
   -6.0087    1.7540   -0.0000 O   0  0  0  0  0  0  0  0  0  0  0  0
   -6.7435    3.0577   -0.0000 O   0  0  0  0  0  0  0  0  0  0  0  0
   -5.2502    4.5391   -0.0000 N   0  0  0  0  0  0  0  0  0  0  0  0
   -6.5539    5.2977   -0.0000 C   0  0  0  0  0  0  0  0  0  0  0  0
   -6.5658    6.8147   -0.0000 C   0  0  0  0  0  0  0  0  0  0  0  0
   -7.8576    4.5629   -0.0000 C   0  0  0  0  0  0  0  0  0  0  0  0
   -5.2858    7.5732   -0.0000 C   0  0  0  0  0  0  0  0  0  0  0  0
   -7.8694    7.5613   -0.0000 C   0  0  0  0  0  0  0  0  0  0  0  0
   -9.1613    5.3214   -0.0000 C   0  0  0  0  0  0  0  0  0  0  0  0
   -5.2977    9.0783   -0.0000 O   0  0  0  0  0  0  0  0  0  0  0  0
   -4.0058    6.8384   -0.0000 O   0  0  0  0  0  0  0  0  0  0  0  0
   -9.1731    6.8265   -0.0000 C   0  0  0  0  0  0  0  0  0  0  0  0
  -10.4768    7.5850   -0.0000 O   0  0  0  0  0  0  0  0  0  0  0  0
  -11.7805    6.8502   -0.0000 C   0  0  0  0  0  0  0  0  0  0  0  0
  -13.0841    7.6087   -0.0000 C   0  0  0  0  0  0  0  0  0  0  0  0
  -11.7923    5.3806   -0.0000 C   0  0  0  0  0  0  0  0  0  0  0  0
  -14.3878    6.8739   -0.0000 C   0  0  0  0  0  0  0  0  0  0  0  0
  -13.0841    4.6458   -0.0000 C   0  0  0  0  0  0  0  0  0  0  0  0
  -14.3997    5.3925   -0.0000 C   0  0  0  0  0  0  0  0  0  0  0  0
  1  2  1  0  0  0  0
  2  3  2  0  0  0  0
  2  4  1  0  0  0  0
  3  5  1  0  0  0  0
  4  6  2  0  0  0  0
  5  7  1  0  0  0  0
  5  8  2  0  0  0  0
  8  9  1  0  0  0  0
  9 10  2  0  0  0  0
  9 11  2  0  0  0  0
  9 12  1  0  0  0  0
 12 13  1  0  0  0  0
 13 14  2  0  0  0  0
 13 15  1  0  0  0  0
 14 16  1  0  0  0  0
 14 17  1  0  0  0  0
 15 18  2  0  0  0  0
 16 19  2  0  0  0  0
 16 20  1  0  0  0  0
 17 21  2  0  0  0  0
 21 22  1  0  0  0  0
 22 23  1  0  0  0  0
 23 24  2  0  0  0  0
 23 25  1  0  0  0  0
 24 26  1  0  0  0  0
 25 27  2  0  0  0  0
 26 28  2  0  0  0  0
  6  8  1  0  0  0  0
 18 21  1  0  0  0  0
 27 28  1  0  0  0  0
M  END
>  <MolRegNo>
1558400

>  <m>
=

>  <Value>
26000

>  <Unit>
nM

>  <Type>
IC50

>  <pValue>
4.58

>  <Ligand Efficiency>
0

>  <Binding Efficiency>
0

>  <Surface Efficiency>
0

>  <Assay Index>
769673

>  <Assay Category>


>  <Assay Organism>
Homo sapiens

>  <Target ID>
17045

>  <Target Name>
Cytochrome P450 3A4

>  <Target Organism>
Homo sapiens

>  <Target Description>
Target is a single protein chain

>  <Sequence Accession>
P08684

>  <Reference>
Bioorg Med Chem Lett 23 (9), 2585-2589 (2013)

>  <Pubmed ID>
23545108

>  <DOI>
10.1016/j.bmcl.2013.02.110

$$$$
1557416
Actelion Java MolfileCreator 1.0

 23 25  0  0  1  0  0  0  0  0999 V2000
    0.0000   -0.0000   -0.0000 O   0  0  0  0  0  0  0  0  0  0  0  0
    1.2905    0.7577   -0.0000 C   0  0  0  0  0  0  0  0  0  0  0  0
   -1.3142    0.7696   -0.0000 C   0  0  0  0  0  0  0  0  0  0  0  0
    2.5692    0.0118   -0.0000 C   0  0  0  0  0  0  0  0  0  0  0  0
    1.2787    2.2614   -0.0000 C   0  0  0  0  0  0  0  0  0  0  0  0
   -2.6284    0.0355   -0.0000 C   0  0  0  0  0  0  0  0  0  0  0  0
    3.8598    0.7696   -0.0000 C   0  0  0  0  0  0  0  0  0  0  0  0
    2.5692    3.0191   -0.0000 C   0  0  0  0  0  0  0  0  0  0  0  0
   -3.9426    0.8051   -0.0000 C   0  0  0  0  0  0  0  0  0  0  0  0
    3.8479    2.2851   -0.0000 C   0  0  0  0  0  0  0  0  0  0  0  0
   -5.2568    0.0710   -0.0000 N   0  0  0  0  0  0  0  0  0  0  0  0
    5.1384    3.0428   -0.0000 C   0  0  0  0  0  0  0  0  0  0  0  0
   -6.5592    0.8406   -0.0000 C   0  0  0  0  0  0  0  0  0  0  0  0
   -5.2687   -1.4208   -0.0000 C   0  0  0  0  0  0  0  0  0  0  0  0
    6.4171    2.2969   -0.0000 C   0  0  0  0  0  0  0  0  0  0  0  0
    5.1148    4.5465   -0.0000 C   0  0  0  0  0  0  0  0  0  0  0  0
   -7.8616    0.0947   -0.0000 C   0  0  0  0  0  0  0  0  0  0  0  0
   -6.5710   -2.1548   -0.0000 C   0  0  0  0  0  0  0  0  0  0  0  0
    7.7077    3.0547   -0.0000 C   0  0  0  0  0  0  0  0  0  0  0  0
    6.4171    5.3042   -0.0000 C   0  0  0  0  0  0  0  0  0  0  0  0
   -7.8734   -1.3971   -0.0000 C   0  0  0  0  0  0  0  0  0  0  0  0
    7.7077    4.5701   -0.0000 C   0  0  0  0  0  0  0  0  0  0  0  0
    8.9982    5.3279   -0.0000 O   0  0  0  0  0  0  0  0  0  0  0  0
  1  2  1  0  0  0  0
  1  3  1  0  0  0  0
  2  4  2  0  0  0  0
  2  5  1  0  0  0  0
  3  6  1  0  0  0  0
  4  7  1  0  0  0  0
  5  8  2  0  0  0  0
  6  9  1  0  0  0  0
  7 10  2  0  0  0  0
  9 11  1  0  0  0  0
 12 10  1  6  0  0  0
 11 13  1  0  0  0  0
 11 14  1  0  0  0  0
 12 15  1  0  0  0  0
 12 16  1  0  0  0  0
 13 17  1  0  0  0  0
 14 18  1  0  0  0  0
 15 19  1  0  0  0  0
 16 20  1  0  0  0  0
 17 21  1  0  0  0  0
 19 22  1  0  0  0  0
 22 23  1  1  0  0  0
  8 10  1  0  0  0  0
 18 21  1  0  0  0  0
 20 22  1  0  0  0  0
M  END
>  <MolRegNo>
1557416

>  <m>
=

>  <Value>
30300

>  <Unit>
nM

>  <Type>
IC50

>  <pValue>
4.52

>  <Ligand Efficiency>
0

>  <Binding Efficiency>
0

>  <Surface Efficiency>
0

>  <Assay Index>
771024

>  <Assay Category>


>  <Assay Organism>
Homo sapiens

>  <Target ID>
17045

>  <Target Name>
Cytochrome P450 3A4

>  <Target Organism>
Homo sapiens

>  <Target Description>
Target is a single protein chain

>  <Sequence Accession>
P08684

>  <Reference>
Bioorg Med Chem Lett 23 (9), 2548-2554 (2013)

>  <Pubmed ID>
23535326

>  <DOI>
10.1016/j.bmcl.2013.02.118

$$$$
1561360
Actelion Java MolfileCreator 1.0

 33 37  0  0  1  0  0  0  0  0999 V2000
    0.0000   -0.0000   -0.0000 F   0  0  0  0  0  0  0  0  0  0  0  0
   -1.0892   -0.6119   -0.0000 C   0  0  0  0  0  0  0  0  0  0  0  0
   -2.4476    0.1713   -0.0000 C   0  0  0  0  0  0  0  0  0  0  0  0
   -1.1014   -2.1539   -0.0000 C   0  0  0  0  0  0  0  0  0  0  0  0
   -2.4598    1.7378   -0.0000 C   0  0  0  0  0  0  0  0  0  0  0  0
   -3.8060   -0.5874   -0.0000 C   0  0  0  0  0  0  0  0  0  0  0  0
    0.0367   -3.1818   -0.0000 N   0  0  0  0  0  0  0  0  0  0  0  0
   -2.4598   -2.9126   -0.0000 C   0  0  0  0  0  0  0  0  0  0  0  0
   -2.4720    2.9983   -0.0000 N   0  0  0  0  0  0  0  0  0  0  0  0
   -3.8182   -2.1294   -0.0000 C   0  0  0  0  0  0  0  0  0  0  0  0
   -0.6119   -4.5892   -0.0000 C   0  0  0  0  0  0  0  0  0  0  0  0
   -2.1539   -4.4178   -0.0000 N   0  0  0  0  0  0  0  0  0  0  0  0
    0.0000   -5.6539   -0.0000 O   0  0  0  0  0  0  0  0  0  0  0  0
   -3.2063   -5.5560   -0.0000 C   0  0  0  0  0  0  0  0  0  0  0  0
   -4.7116   -5.1032   -0.0000 C   0  0  0  0  0  0  0  0  0  0  0  0
   -2.8514   -7.0490   -0.0000 C   0  0  0  0  0  0  0  0  0  0  0  0
   -5.8497   -6.1679   -0.0000 C   0  0  0  0  0  0  0  0  0  0  0  0
   -3.9895   -8.1137   -0.0000 C   0  0  0  0  0  0  0  0  0  0  0  0
   -5.4948   -7.6609   -0.0000 C   0  0  0  0  0  0  0  0  0  0  0  0
   -6.6329   -8.7256   -0.0000 N   0  0  0  0  0  0  0  0  0  0  0  0
   -8.1626   -8.4196   -0.0000 C   0  0  0  0  0  0  0  0  0  0  0  0
   -6.4249  -10.2308   -0.0000 C   0  0  0  0  0  0  0  0  0  0  0  0
   -8.7133   -7.2815   -0.0000 O   0  0  0  0  0  0  0  0  0  0  0  0
   -8.9091   -9.7780   -0.0000 O   0  0  0  0  0  0  0  0  0  0  0  0
   -5.0665  -10.9406   -0.0000 C   0  0  0  0  0  0  0  0  0  0  0  0
   -7.8322  -10.8917   -0.0000 C   0  0  0  0  0  0  0  0  0  0  0  0
   -3.7081  -10.2063   -0.0000 C   0  0  0  0  0  0  0  0  0  0  0  0
   -5.1521  -12.4826   -0.0000 C   0  0  0  0  0  0  0  0  0  0  0  0
   -6.8899  -11.6626   -0.0000 C   0  0  0  0  0  0  0  0  0  0  0  0
   -9.0193  -11.2833   -0.0000 C   0  0  0  0  0  0  0  0  0  0  0  0
   -2.4108  -11.0263   -0.0000 C   0  0  0  0  0  0  0  0  0  0  0  0
   -3.8549  -13.3025   -0.0000 C   0  0  0  0  0  0  0  0  0  0  0  0
   -2.4843  -12.5682   -0.0000 C   0  0  0  0  0  0  0  0  0  0  0  0
  1  2  1  0  0  0  0
  2  3  2  0  0  0  0
  2  4  1  0  0  0  0
  3  5  1  0  0  0  0
  3  6  1  0  0  0  0
  4  7  1  0  0  0  0
  4  8  2  0  0  0  0
  5  9  3  0  0  0  0
  6 10  2  0  0  0  0
  7 11  1  0  0  0  0
  8 12  1  0  0  0  0
 11 13  2  0  0  0  0
 14 12  1  6  0  0  0
 14 15  1  0  0  0  0
 14 16  1  0  0  0  0
 15 17  1  0  0  0  0
 16 18  1  0  0  0  0
 17 19  1  0  0  0  0
 19 20  1  1  0  0  0
 20 21  1  0  0  0  0
 20 22  1  0  0  0  0
 21 23  2  0  0  0  0
 21 24  1  0  0  0  0
 22 25  1  1  0  0  0
 22 26  1  0  0  0  0
 25 27  2  0  0  0  0
 25 28  1  0  0  0  0
 26 29  1  0  0  0  0
 26 30  1  0  0  0  0
 27 31  1  0  0  0  0
 28 32  2  0  0  0  0
 31 33  2  0  0  0  0
  8 10  1  0  0  0  0
 11 12  1  0  0  0  0
 18 19  1  0  0  0  0
 24 26  1  0  0  0  0
 32 33  1  0  0  0  0
M  END
>  <MolRegNo>
1561360

>  <m>
=

>  <Value>
5400

>  <Unit>
nM

>  <Type>
IC50

>  <pValue>
5.27

>  <Ligand Efficiency>
0

>  <Binding Efficiency>
0

>  <Surface Efficiency>
0

>  <Assay Index>
773364

>  <Assay Category>


>  <Assay Organism>
Homo sapiens

>  <Target ID>
17045

>  <Target Name>
Cytochrome P450 3A4

>  <Target Organism>
Homo sapiens

>  <Target Description>
Target is a single protein chain

>  <Sequence Accession>
P08684

>  <Reference>
J Med Chem 56 (11), 4320-4342 (2013)

>  <Pubmed ID>
23701517

>  <DOI>
10.1021/jm4000038

$$$$
1561359
Actelion Java MolfileCreator 1.0

 33 37  0  0  1  0  0  0  0  0999 V2000
    0.0000   -0.0000   -0.0000 F   0  0  0  0  0  0  0  0  0  0  0  0
    1.0671   -0.6133   -0.0000 C   0  0  0  0  0  0  0  0  0  0  0  0
    2.4041    0.1717   -0.0000 C   0  0  0  0  0  0  0  0  0  0  0  0
    1.0548   -2.1588   -0.0000 C   0  0  0  0  0  0  0  0  0  0  0  0
    2.3918    1.7417   -0.0000 C   0  0  0  0  0  0  0  0  0  0  0  0
    3.7410   -0.5888   -0.0000 C   0  0  0  0  0  0  0  0  0  0  0  0
    2.3918   -2.9192   -0.0000 C   0  0  0  0  0  0  0  0  0  0  0  0
    2.3795    3.0051   -0.0000 N   0  0  0  0  0  0  0  0  0  0  0  0
    3.7288   -2.1342   -0.0000 C   0  0  0  0  0  0  0  0  0  0  0  0
    2.6984   -4.4279   -0.0000 N   0  0  0  0  0  0  0  0  0  0  0  0
    4.8695   -3.1645   -0.0000 N   0  0  0  0  0  0  0  0  0  0  0  0
    4.2317   -4.5751   -0.0000 C   0  0  0  0  0  0  0  0  0  0  0  0
    1.6436   -5.5686   -0.0000 C   0  0  0  0  0  0  0  0  0  0  0  0
    4.8449   -5.6422   -0.0000 O   0  0  0  0  0  0  0  0  0  0  0  0
    0.1349   -5.1148   -0.0000 C   0  0  0  0  0  0  0  0  0  0  0  0
    1.9993   -7.0650   -0.0000 C   0  0  0  0  0  0  0  0  0  0  0  0
   -1.0058   -6.1819   -0.0000 C   0  0  0  0  0  0  0  0  0  0  0  0
    0.8586   -8.1321   -0.0000 C   0  0  0  0  0  0  0  0  0  0  0  0
   -0.6501   -7.6783   -0.0000 C   0  0  0  0  0  0  0  0  0  0  0  0
   -1.7908   -8.7454   -0.0000 N   0  0  0  0  0  0  0  0  0  0  0  0
   -3.3240   -8.4388   -0.0000 C   0  0  0  0  0  0  0  0  0  0  0  0
   -1.5823  -10.2541   -0.0000 C   0  0  0  0  0  0  0  0  0  0  0  0
   -3.8759   -7.2981   -0.0000 O   0  0  0  0  0  0  0  0  0  0  0  0
   -4.0722   -9.8003   -0.0000 O   0  0  0  0  0  0  0  0  0  0  0  0
   -0.2208  -10.9655   -0.0000 C   0  0  0  0  0  0  0  0  0  0  0  0
   -2.9928  -10.9164   -0.0000 C   0  0  0  0  0  0  0  0  0  0  0  0
    1.1407  -10.2296   -0.0000 C   0  0  0  0  0  0  0  0  0  0  0  0
   -0.3066  -12.5110   -0.0000 C   0  0  0  0  0  0  0  0  0  0  0  0
   -2.0484  -11.6892   -0.0000 C   0  0  0  0  0  0  0  0  0  0  0  0
   -4.1826  -11.3089   -0.0000 C   0  0  0  0  0  0  0  0  0  0  0  0
    2.4409  -11.0514   -0.0000 C   0  0  0  0  0  0  0  0  0  0  0  0
    0.9935  -13.3328   -0.0000 C   0  0  0  0  0  0  0  0  0  0  0  0
    2.3673  -12.5968   -0.0000 C   0  0  0  0  0  0  0  0  0  0  0  0
  1  2  1  0  0  0  0
  2  3  2  0  0  0  0
  2  4  1  0  0  0  0
  3  5  1  0  0  0  0
  3  6  1  0  0  0  0
  4  7  2  0  0  0  0
  5  8  3  0  0  0  0
  6  9  2  0  0  0  0
  7 10  1  0  0  0  0
  9 11  1  0  0  0  0
 10 12  1  0  0  0  0
 13 10  1  6  0  0  0
 12 14  2  0  0  0  0
 13 15  1  0  0  0  0
 13 16  1  0  0  0  0
 15 17  1  0  0  0  0
 16 18  1  0  0  0  0
 17 19  1  0  0  0  0
 19 20  1  1  0  0  0
 20 21  1  0  0  0  0
 20 22  1  0  0  0  0
 21 23  2  0  0  0  0
 21 24  1  0  0  0  0
 22 25  1  1  0  0  0
 22 26  1  0  0  0  0
 25 27  2  0  0  0  0
 25 28  1  0  0  0  0
 26 29  1  0  0  0  0
 26 30  1  0  0  0  0
 27 31  1  0  0  0  0
 28 32  2  0  0  0  0
 31 33  2  0  0  0  0
  7  9  1  0  0  0  0
 11 12  1  0  0  0  0
 18 19  1  0  0  0  0
 24 26  1  0  0  0  0
 32 33  1  0  0  0  0
M  END
>  <MolRegNo>
1561359

>  <m>
=

>  <Value>
7600

>  <Unit>
nM

>  <Type>
IC50

>  <pValue>
5.12

>  <Ligand Efficiency>
0

>  <Binding Efficiency>
0

>  <Surface Efficiency>
0

>  <Assay Index>
773364

>  <Assay Category>


>  <Assay Organism>
Homo sapiens

>  <Target ID>
17045

>  <Target Name>
Cytochrome P450 3A4

>  <Target Organism>
Homo sapiens

>  <Target Description>
Target is a single protein chain

>  <Sequence Accession>
P08684

>  <Reference>
J Med Chem 56 (11), 4320-4342 (2013)

>  <Pubmed ID>
23701517

>  <DOI>
10.1021/jm4000038

$$$$
1560137
Actelion Java MolfileCreator 1.0

 34 37  0  0  0  0  0  0  0  0999 V2000
    0.0000   -0.0000   -0.0000 S   0  0  0  0  0  0  0  0  0  0  0  0
    1.4415   -0.3545   -0.0000 O   0  0  0  0  0  0  0  0  0  0  0  0
    0.0000   -1.4770   -0.0000 O   0  0  0  0  0  0  0  0  0  0  0  0
   -1.4770   -0.3072   -0.0000 C   0  0  0  0  0  0  0  0  0  0  0  0
    0.4490    1.4415   -0.0000 C   0  0  0  0  0  0  0  0  0  0  0  0
   -2.4931    0.8271   -0.0000 C   0  0  0  0  0  0  0  0  0  0  0  0
   -1.9378   -1.7133   -0.0000 C   0  0  0  0  0  0  0  0  0  0  0  0
   -0.4490    2.6704   -0.0000 C   0  0  0  0  0  0  0  0  0  0  0  0
    1.8669    1.9260   -0.0000 C   0  0  0  0  0  0  0  0  0  0  0  0
   -3.9701    0.5199   -0.0000 C   0  0  0  0  0  0  0  0  0  0  0  0
   -3.4148   -2.0205   -0.0000 C   0  0  0  0  0  0  0  0  0  0  0  0
    0.4136    3.8992   -0.0000 N   0  0  0  0  0  0  0  0  0  0  0  0
    1.8551    3.4384   -0.0000 C   0  0  0  0  0  0  0  0  0  0  0  0
   -4.4427   -0.8980   -0.0000 C   0  0  0  0  0  0  0  0  0  0  0  0
   -0.0709    5.3407   -0.0000 C   0  0  0  0  0  0  0  0  0  0  0  0
    3.1666    4.1592   -0.0000 C   0  0  0  0  0  0  0  0  0  0  0  0
    0.9216    6.4750   -0.0000 O   0  0  0  0  0  0  0  0  0  0  0  0
   -1.5479    5.6598   -0.0000 C   0  0  0  0  0  0  0  0  0  0  0  0
    3.1903    5.6716   -0.0000 O   0  0  0  0  0  0  0  0  0  0  0  0
    4.4309    3.3911   -0.0000 N   0  0  0  0  0  0  0  0  0  0  0  0
    5.7425    4.1119   -0.0000 C   0  0  0  0  0  0  0  0  0  0  0  0
    7.0067    3.3439   -0.0000 C   0  0  0  0  0  0  0  0  0  0  0  0
    5.7661    5.6243   -0.0000 C   0  0  0  0  0  0  0  0  0  0  0  0
    6.9595    1.8551   -0.0000 O   0  0  0  0  0  0  0  0  0  0  0  0
    8.3183    4.0646   -0.0000 C   0  0  0  0  0  0  0  0  0  0  0  0
    7.0776    6.3451   -0.0000 C   0  0  0  0  0  0  0  0  0  0  0  0
    8.4955    5.5652   -0.0000 O   0  0  0  0  0  0  0  0  0  0  0  0
    9.6535    3.4266   -0.0000 N   0  0  0  0  0  0  0  0  0  0  0  0
    9.9607    5.8488   -0.0000 C   0  0  0  0  0  0  0  0  0  0  0  0
   10.6696    4.5254   -0.0000 C   0  0  0  0  0  0  0  0  0  0  0  0
   10.7287    7.1249   -0.0000 C   0  0  0  0  0  0  0  0  0  0  0  0
   12.1466    4.4900   -0.0000 C   0  0  0  0  0  0  0  0  0  0  0  0
   12.2057    7.1013   -0.0000 C   0  0  0  0  0  0  0  0  0  0  0  0
   12.9264    5.7779   -0.0000 C   0  0  0  0  0  0  0  0  0  0  0  0
  1  2  2  0  0  0  0
  1  3  2  0  0  0  0
  1  4  1  0  0  0  0
  5  1  1  1  0  0  0
  4  6  2  0  0  0  0
  4  7  1  0  0  0  0
  5  8  1  0  0  0  0
  5  9  1  0  0  0  0
  6 10  1  0  0  0  0
  7 11  2  0  0  0  0
  8 12  1  0  0  0  0
  9 13  1  0  0  0  0
 10 14  2  0  0  0  0
 12 15  1  0  0  0  0
 13 16  1  6  0  0  0
 15 17  2  0  0  0  0
 15 18  1  0  0  0  0
 16 19  2  0  0  0  0
 16 20  1  0  0  0  0
 21 20  1  1  0  0  0
 21 22  1  0  0  0  0
 21 23  1  0  0  0  0
 22 24  2  0  0  0  0
 22 25  1  0  0  0  0
 23 26  1  0  0  0  0
 25 27  1  0  0  0  0
 25 28  2  0  0  0  0
 27 29  1  0  0  0  0
 28 30  1  0  0  0  0
 29 31  1  0  0  0  0
 30 32  1  0  0  0  0
 31 33  2  0  0  0  0
 32 34  2  0  0  0  0
 11 14  1  0  0  0  0
 12 13  1  0  0  0  0
 29 30  2  0  0  0  0
 33 34  1  0  0  0  0
M  END
>  <MolRegNo>
1560137

>  <m>
=

>  <Value>
9950

>  <Unit>
nM

>  <Type>
IC50

>  <pValue>
5

>  <Ligand Efficiency>
0

>  <Binding Efficiency>
0

>  <Surface Efficiency>
0

>  <Assay Index>
773923

>  <Assay Category>


>  <Assay Organism>
Homo sapiens

>  <Target ID>
17045

>  <Target Name>
Cytochrome P450 3A4

>  <Target Organism>
Homo sapiens

>  <Target Description>
Target is a single protein chain

>  <Sequence Accession>
P08684

>  <Reference>
Bioorg Med Chem Lett 23 (11), 3140-3144 (2013)

>  <Pubmed ID>
23639544

>  <DOI>
10.1016/j.bmcl.2013.04.023

$$$$
1560481
Actelion Java MolfileCreator 1.0

 34 38  0  0  0  0  0  0  0  0999 V2000
    0.0000   -0.0000   -0.0000 F   0  0  0  0  0  0  0  0  0  0  0  0
   -0.0119    1.5070   -0.0000 C   0  0  0  0  0  0  0  0  0  0  0  0
    1.2696    2.2664   -0.0000 F   0  0  0  0  0  0  0  0  0  0  0  0
    1.2578    0.7713   -0.0000 F   0  0  0  0  0  0  0  0  0  0  0  0
   -1.3171    2.2664   -0.0000 C   0  0  0  0  0  0  0  0  0  0  0  0
   -2.6342    1.5307   -0.0000 C   0  0  0  0  0  0  0  0  0  0  0  0
   -1.3290    3.7852   -0.0000 C   0  0  0  0  0  0  0  0  0  0  0  0
   -3.9394    2.2901   -0.0000 N   0  0  0  0  0  0  0  0  0  0  0  0
   -2.6342    4.5446   -0.0000 C   0  0  0  0  0  0  0  0  0  0  0  0
   -3.9394    3.7970   -0.0000 C   0  0  0  0  0  0  0  0  0  0  0  0
   -5.2447    4.5565   -0.0000 N   0  0  0  0  0  0  0  0  0  0  0  0
   -6.5499    3.8208   -0.0000 C   0  0  0  0  0  0  0  0  0  0  0  0
   -7.8551    4.5802   -0.0000 C   0  0  0  0  0  0  0  0  0  0  0  0
   -9.1010    3.7496   -0.0000 N   0  0  0  0  0  0  0  0  0  0  0  0
   -8.2823    6.0278   -0.0000 C   0  0  0  0  0  0  0  0  0  0  0  0
   -9.1366    2.2664   -0.0000 C   0  0  0  0  0  0  0  0  0  0  0  0
  -10.2876    4.6751   -0.0000 C   0  0  0  0  0  0  0  0  0  0  0  0
   -9.7893    6.0871   -0.0000 C   0  0  0  0  0  0  0  0  0  0  0  0
   -7.8670    1.5070   -0.0000 O   0  0  0  0  0  0  0  0  0  0  0  0
  -10.4537    1.5425   -0.0000 C   0  0  0  0  0  0  0  0  0  0  0  0
  -11.2606    6.4906   -0.0000 C   0  0  0  0  0  0  0  0  0  0  0  0
  -10.1927    7.5585   -0.0000 C   0  0  0  0  0  0  0  0  0  0  0  0
  -11.7471    2.3257   -0.0000 N   0  0  0  0  0  0  0  0  0  0  0  0
  -10.4775    0.0593   -0.0000 C   0  0  0  0  0  0  0  0  0  0  0  0
  -13.0642    1.6137   -0.0000 C   0  0  0  0  0  0  0  0  0  0  0  0
   -9.2078   -0.6882   -0.0000 C   0  0  0  0  0  0  0  0  0  0  0  0
  -11.7946   -0.6645   -0.0000 C   0  0  0  0  0  0  0  0  0  0  0  0
  -13.0998    0.1305   -0.0000 C   0  0  0  0  0  0  0  0  0  0  0  0
  -14.3576    2.3969   -0.0000 C   0  0  0  0  0  0  0  0  0  0  0  0
   -9.2316   -2.1714   -0.0000 C   0  0  0  0  0  0  0  0  0  0  0  0
   -7.9263    0.0593   -0.0000 C   0  0  0  0  0  0  0  0  0  0  0  0
   -7.9501   -2.9190   -0.0000 C   0  0  0  0  0  0  0  0  0  0  0  0
   -6.6448   -0.6882   -0.0000 C   0  0  0  0  0  0  0  0  0  0  0  0
   -6.6567   -2.1714   -0.0000 C   0  0  0  0  0  0  0  0  0  0  0  0
  1  2  1  0  0  0  0
  2  3  1  0  0  0  0
  2  4  1  0  0  0  0
  2  5  1  0  0  0  0
  5  6  2  0  0  0  0
  5  7  1  0  0  0  0
  6  8  1  0  0  0  0
  7  9  2  0  0  0  0
  8 10  2  0  0  0  0
 10 11  1  0  0  0  0
 11 12  1  0  0  0  0
 13 12  1  6  0  0  0
 13 14  1  0  0  0  0
 13 15  1  0  0  0  0
 14 16  1  0  0  0  0
 14 17  1  0  0  0  0
 15 18  1  0  0  0  0
 16 19  2  0  0  0  0
 16 20  1  0  0  0  0
 18 21  1  0  0  0  0
 18 22  1  0  0  0  0
 20 23  2  0  0  0  0
 20 24  1  0  0  0  0
 23 25  1  0  0  0  0
 24 26  1  0  0  0  0
 24 27  2  0  0  0  0
 25 28  2  0  0  0  0
 25 29  1  0  0  0  0
 26 30  2  0  0  0  0
 26 31  1  0  0  0  0
 30 32  1  0  0  0  0
 31 33  2  0  0  0  0
 32 34  2  0  0  0  0
  9 10  1  0  0  0  0
 17 18  1  0  0  0  0
 21 22  1  0  0  0  0
 27 28  1  0  0  0  0
 33 34  1  0  0  0  0
M  END
>  <MolRegNo>
1560481

>  <m>
=

>  <Value>
64000

>  <Unit>
nM

>  <Type>
IC50

>  <pValue>
4.19

>  <Ligand Efficiency>
0

>  <Binding Efficiency>
0

>  <Surface Efficiency>
0

>  <Assay Index>
773410

>  <Assay Category>


>  <Assay Organism>
Homo sapiens

>  <Target ID>
17045

>  <Target Name>
Cytochrome P450 3A4

>  <Target Organism>
Homo sapiens

>  <Target Description>
Target is a single protein chain

>  <Sequence Accession>
P08684

>  <Reference>
Bioorg Med Chem Lett 23 (9), 2653-2658 (2013)

>  <Pubmed ID>
23535328

>  <DOI>
10.1016/j.bmcl.2013.02.093

$$$$
1560476
Actelion Java MolfileCreator 1.0

 31 35  0  0  0  0  0  0  0  0999 V2000
    0.0000   -0.0000   -0.0000 S   0  0  0  0  0  0  0  0  0  0  0  0
    1.4173    0.4883   -0.0000 C   0  0  0  0  0  0  0  0  0  0  0  0
   -0.9052    1.2267   -0.0000 C   0  0  0  0  0  0  0  0  0  0  0  0
    2.7393   -0.1906   -0.0000 C   0  0  0  0  0  0  0  0  0  0  0  0
    1.3935    2.0009   -0.0000 C   0  0  0  0  0  0  0  0  0  0  0  0
   -0.0357    2.4535   -0.0000 N   0  0  0  0  0  0  0  0  0  0  0  0
   -2.4177    1.2386   -0.0000 C   0  0  0  0  0  0  0  0  0  0  0  0
    2.7869   -1.6793   -0.0000 C   0  0  0  0  0  0  0  0  0  0  0  0
    3.9898    0.6312   -0.0000 C   0  0  0  0  0  0  0  0  0  0  0  0
    2.6917    2.7512   -0.0000 C   0  0  0  0  0  0  0  0  0  0  0  0
    4.1089   -2.3582   -0.0000 C   0  0  0  0  0  0  0  0  0  0  0  0
    5.3119   -0.0476   -0.0000 C   0  0  0  0  0  0  0  0  0  0  0  0
    3.9779    1.9890   -0.0000 O   0  0  0  0  0  0  0  0  0  0  0  0
    2.7036    4.2638   -0.0000 N   0  0  0  0  0  0  0  0  0  0  0  0
    5.3714   -1.5364   -0.0000 C   0  0  0  0  0  0  0  0  0  0  0  0
    3.9303    5.1213   -0.0000 C   0  0  0  0  0  0  0  0  0  0  0  0
    1.5126    5.1928   -0.0000 C   0  0  0  0  0  0  0  0  0  0  0  0
    3.5015    6.5743   -0.0000 C   0  0  0  0  0  0  0  0  0  0  0  0
    5.2166    4.3829   -0.0000 C   0  0  0  0  0  0  0  0  0  0  0  0
    2.0128    6.6220   -0.0000 C   0  0  0  0  0  0  0  0  0  0  0  0
    6.5029    5.1451   -0.0000 N   0  0  0  0  0  0  0  0  0  0  0  0
    0.5359    7.0269   -0.0000 C   0  0  0  0  0  0  0  0  0  0  0  0
    1.6078    8.0988   -0.0000 C   0  0  0  0  0  0  0  0  0  0  0  0
    7.7891    4.4067   -0.0000 C   0  0  0  0  0  0  0  0  0  0  0  0
    9.0754    5.1689   -0.0000 N   0  0  0  0  0  0  0  0  0  0  0  0
    7.7653    2.9179   -0.0000 N   0  0  0  0  0  0  0  0  0  0  0  0
   10.3617    4.4305   -0.0000 C   0  0  0  0  0  0  0  0  0  0  0  0
    9.0516    2.1795   -0.0000 C   0  0  0  0  0  0  0  0  0  0  0  0
   10.3498    2.9299   -0.0000 C   0  0  0  0  0  0  0  0  0  0  0  0
   11.6480    5.1928   -0.0000 C   0  0  0  0  0  0  0  0  0  0  0  0
    9.0397    0.6908   -0.0000 C   0  0  0  0  0  0  0  0  0  0  0  0
  1  2  1  0  0  0  0
  1  3  1  0  0  0  0
  2  4  1  0  0  0  0
  2  5  2  0  0  0  0
  3  6  2  0  0  0  0
  3  7  1  0  0  0  0
  4  8  2  0  0  0  0
  4  9  1  0  0  0  0
  5 10  1  0  0  0  0
  8 11  1  0  0  0  0
  9 12  2  0  0  0  0
 10 13  2  0  0  0  0
 10 14  1  0  0  0  0
 11 15  2  0  0  0  0
 14 16  1  0  0  0  0
 14 17  1  0  0  0  0
 16 18  1  0  0  0  0
 16 19  1  6  0  0  0
 17 20  1  0  0  0  0
 19 21  1  0  0  0  0
 20 22  1  0  0  0  0
 20 23  1  0  0  0  0
 21 24  1  0  0  0  0
 24 25  2  0  0  0  0
 24 26  1  0  0  0  0
 25 27  1  0  0  0  0
 26 28  2  0  0  0  0
 27 29  2  0  0  0  0
 27 30  1  0  0  0  0
 28 31  1  0  0  0  0
  5  6  1  0  0  0  0
 12 15  1  0  0  0  0
 18 20  1  0  0  0  0
 22 23  1  0  0  0  0
 28 29  1  0  0  0  0
M  END
>  <MolRegNo>
1560476

>  <m>
=

>  <Value>
7900

>  <Unit>
nM

>  <Type>
IC50

>  <pValue>
5.1

>  <Ligand Efficiency>
0

>  <Binding Efficiency>
0

>  <Surface Efficiency>
0

>  <Assay Index>
773410

>  <Assay Category>


>  <Assay Organism>
Homo sapiens

>  <Target ID>
17045

>  <Target Name>
Cytochrome P450 3A4

>  <Target Organism>
Homo sapiens

>  <Target Description>
Target is a single protein chain

>  <Sequence Accession>
P08684

>  <Reference>
Bioorg Med Chem Lett 23 (9), 2653-2658 (2013)

>  <Pubmed ID>
23535328

>  <DOI>
10.1016/j.bmcl.2013.02.093

$$$$
1564278
Actelion Java MolfileCreator 1.0

 31 35  0  0  0  0  0  0  0  0999 V2000
    0.0000   -0.0000   -0.0000 Cl  0  0  0  0  0  0  0  0  0  0  0  0
    0.7490   -1.2721   -0.0000 C   0  0  0  0  0  0  0  0  0  0  0  0
    0.0000   -2.5561   -0.0000 C   0  0  0  0  0  0  0  0  0  0  0  0
    2.2351   -1.2365   -0.0000 C   0  0  0  0  0  0  0  0  0  0  0  0
    0.7490   -3.8402   -0.0000 C   0  0  0  0  0  0  0  0  0  0  0  0
   -1.5099   -2.5561   -0.0000 C   0  0  0  0  0  0  0  0  0  0  0  0
    2.9960   -2.5205   -0.0000 C   0  0  0  0  0  0  0  0  0  0  0  0
    2.2351   -3.8164   -0.0000 C   0  0  0  0  0  0  0  0  0  0  0  0
    0.0000   -5.1361   -0.0000 C   0  0  0  0  0  0  0  0  0  0  0  0
   -2.4135   -1.3435   -0.0000 N   0  0  0  0  0  0  0  0  0  0  0  0
   -2.4016   -3.7688   -0.0000 N   0  0  0  0  0  0  0  0  0  0  0  0
   -1.5099   -5.1361   -0.0000 F   0  0  0  0  0  0  0  0  0  0  0  0
    0.7490   -6.4201   -0.0000 F   0  0  0  0  0  0  0  0  0  0  0  0
   -0.7728   -6.4082   -0.0000 F   0  0  0  0  0  0  0  0  0  0  0  0
   -3.8520   -1.8071   -0.0000 C   0  0  0  0  0  0  0  0  0  0  0  0
   -3.8520   -3.3052   -0.0000 C   0  0  0  0  0  0  0  0  0  0  0  0
   -5.1717   -1.0581   -0.0000 C   0  0  0  0  0  0  0  0  0  0  0  0
   -5.1480   -4.0423   -0.0000 C   0  0  0  0  0  0  0  0  0  0  0  0
   -5.1955    0.4518   -0.0000 O   0  0  0  0  0  0  0  0  0  0  0  0
   -6.4795   -1.8071   -0.0000 N   0  0  0  0  0  0  0  0  0  0  0  0
   -6.4676   -3.2933   -0.0000 C   0  0  0  0  0  0  0  0  0  0  0  0
   -5.1598   -5.5403   -0.0000 C   0  0  0  0  0  0  0  0  0  0  0  0
   -7.7754   -4.0304   -0.0000 C   0  0  0  0  0  0  0  0  0  0  0  0
   -6.4676   -6.2774   -0.0000 C   0  0  0  0  0  0  0  0  0  0  0  0
   -7.7873   -5.5165   -0.0000 C   0  0  0  0  0  0  0  0  0  0  0  0
   -9.0951   -6.2536   -0.0000 C   0  0  0  0  0  0  0  0  0  0  0  0
  -10.4029   -5.4927   -0.0000 C   0  0  0  0  0  0  0  0  0  0  0  0
   -9.1070   -7.7398   -0.0000 C   0  0  0  0  0  0  0  0  0  0  0  0
  -11.7107   -6.2299   -0.0000 C   0  0  0  0  0  0  0  0  0  0  0  0
  -10.4148   -8.4769   -0.0000 C   0  0  0  0  0  0  0  0  0  0  0  0
  -11.7226   -7.7160   -0.0000 C   0  0  0  0  0  0  0  0  0  0  0  0
  1  2  1  0  0  0  0
  2  3  2  0  0  0  0
  2  4  1  0  0  0  0
  3  5  1  0  0  0  0
  3  6  1  0  0  0  0
  4  7  2  0  0  0  0
  5  8  2  0  0  0  0
  5  9  1  0  0  0  0
  6 10  2  0  0  0  0
  6 11  1  0  0  0  0
  9 12  1  0  0  0  0
  9 13  1  0  0  0  0
  9 14  1  0  0  0  0
 10 15  1  0  0  0  0
 11 16  1  0  0  0  0
 15 17  1  0  0  0  0
 16 18  1  0  0  0  0
 17 19  2  0  0  0  0
 17 20  1  0  0  0  0
 18 21  2  0  0  0  0
 18 22  1  0  0  0  0
 21 23  1  0  0  0  0
 22 24  2  0  0  0  0
 23 25  2  0  0  0  0
 25 26  1  0  0  0  0
 26 27  2  0  0  0  0
 26 28  1  0  0  0  0
 27 29  1  0  0  0  0
 28 30  2  0  0  0  0
 29 31  2  0  0  0  0
  7  8  1  0  0  0  0
 15 16  2  0  0  0  0
 20 21  1  0  0  0  0
 24 25  1  0  0  0  0
 30 31  1  0  0  0  0
M  END
>  <MolRegNo>
1564278

>  <m>
=

>  <Value>
7500

>  <Unit>
nM

>  <Type>
IC50

>  <pValue>
5.12

>  <Ligand Efficiency>
0

>  <Binding Efficiency>
0

>  <Surface Efficiency>
0

>  <Assay Index>
775131

>  <Assay Category>


>  <Assay Organism>
Homo sapiens

>  <Target ID>
17045

>  <Target Name>
Cytochrome P450 3A4

>  <Target Organism>
Homo sapiens

>  <Target Description>
Target is a single protein chain

>  <Sequence Accession>
P08684

>  <Reference>
Bioorg Med Chem 21 (11), 2868-2878 (2013)

>  <Pubmed ID>
23623673

>  <DOI>
10.1016/j.bmc.2013.03.069

$$$$
1564383
Actelion Java MolfileCreator 1.0

 27 31  0  0  0  0  0  0  0  0999 V2000
    0.0000   -0.0000   -0.0000 Cl  0  0  0  0  0  0  0  0  0  0  0  0
    0.7490   -1.2722   -0.0000 C   0  0  0  0  0  0  0  0  0  0  0  0
    0.0000   -2.5562   -0.0000 C   0  0  0  0  0  0  0  0  0  0  0  0
    2.2352   -1.2365   -0.0000 C   0  0  0  0  0  0  0  0  0  0  0  0
   -1.5100   -2.5562   -0.0000 C   0  0  0  0  0  0  0  0  0  0  0  0
    0.7490   -3.8403   -0.0000 C   0  0  0  0  0  0  0  0  0  0  0  0
    2.9962   -2.5206   -0.0000 C   0  0  0  0  0  0  0  0  0  0  0  0
   -2.4136   -1.3435   -0.0000 N   0  0  0  0  0  0  0  0  0  0  0  0
   -2.3898   -3.7690   -0.0000 N   0  0  0  0  0  0  0  0  0  0  0  0
    2.2352   -3.8165   -0.0000 C   0  0  0  0  0  0  0  0  0  0  0  0
   -3.8522   -1.8072   -0.0000 C   0  0  0  0  0  0  0  0  0  0  0  0
   -3.8403   -3.3053   -0.0000 C   0  0  0  0  0  0  0  0  0  0  0  0
   -5.1719   -1.0582   -0.0000 C   0  0  0  0  0  0  0  0  0  0  0  0
   -5.1363   -4.0424   -0.0000 C   0  0  0  0  0  0  0  0  0  0  0  0
   -5.1957    0.4518   -0.0000 O   0  0  0  0  0  0  0  0  0  0  0  0
   -6.4798   -1.8072   -0.0000 N   0  0  0  0  0  0  0  0  0  0  0  0
   -6.4560   -3.2934   -0.0000 C   0  0  0  0  0  0  0  0  0  0  0  0
   -5.1482   -5.5405   -0.0000 C   0  0  0  0  0  0  0  0  0  0  0  0
   -7.7638   -4.0305   -0.0000 C   0  0  0  0  0  0  0  0  0  0  0  0
   -6.4560   -6.2777   -0.0000 C   0  0  0  0  0  0  0  0  0  0  0  0
   -7.7757   -5.5167   -0.0000 C   0  0  0  0  0  0  0  0  0  0  0  0
   -9.0836   -6.2539   -0.0000 C   0  0  0  0  0  0  0  0  0  0  0  0
   -9.0955   -7.7282   -0.0000 C   0  0  0  0  0  0  0  0  0  0  0  0
  -10.3914   -5.4930   -0.0000 C   0  0  0  0  0  0  0  0  0  0  0  0
  -10.4033   -8.4653   -0.0000 N   0  0  0  0  0  0  0  0  0  0  0  0
  -11.6993   -6.2301   -0.0000 C   0  0  0  0  0  0  0  0  0  0  0  0
  -11.7231   -7.7044   -0.0000 C   0  0  0  0  0  0  0  0  0  0  0  0
  1  2  1  0  0  0  0
  2  3  2  0  0  0  0
  2  4  1  0  0  0  0
  3  5  1  0  0  0  0
  3  6  1  0  0  0  0
  4  7  2  0  0  0  0
  5  8  2  0  0  0  0
  5  9  1  0  0  0  0
  6 10  2  0  0  0  0
  8 11  1  0  0  0  0
  9 12  1  0  0  0  0
 11 13  1  0  0  0  0
 12 14  1  0  0  0  0
 13 15  2  0  0  0  0
 13 16  1  0  0  0  0
 14 17  2  0  0  0  0
 14 18  1  0  0  0  0
 17 19  1  0  0  0  0
 18 20  2  0  0  0  0
 19 21  2  0  0  0  0
 21 22  1  0  0  0  0
 22 23  2  0  0  0  0
 22 24  1  0  0  0  0
 23 25  1  0  0  0  0
 24 26  2  0  0  0  0
 25 27  2  0  0  0  0
  7 10  1  0  0  0  0
 11 12  2  0  0  0  0
 16 17  1  0  0  0  0
 20 21  1  0  0  0  0
 26 27  1  0  0  0  0
M  END
>  <MolRegNo>
1564383

>  <m>
=

>  <Value>
24000

>  <Unit>
nM

>  <Type>
IC50

>  <pValue>
4.62

>  <Ligand Efficiency>
0

>  <Binding Efficiency>
0

>  <Surface Efficiency>
0

>  <Assay Index>
775131

>  <Assay Category>


>  <Assay Organism>
Homo sapiens

>  <Target ID>
17045

>  <Target Name>
Cytochrome P450 3A4

>  <Target Organism>
Homo sapiens

>  <Target Description>
Target is a single protein chain

>  <Sequence Accession>
P08684

>  <Reference>
Bioorg Med Chem 21 (11), 2868-2878 (2013)

>  <Pubmed ID>
23623673

>  <DOI>
10.1016/j.bmc.2013.03.069

$$$$
1272282
Actelion Java MolfileCreator 1.0

 22 25  0  0  0  0  0  0  0  0999 V2000
    0.0000   -0.0000   -0.0000 Br  0  0  0  0  0  0  0  0  0  0  0  0
    1.2975    0.7618   -0.0000 C   0  0  0  0  0  0  0  0  0  0  0  0
    1.2856    2.2854   -0.0000 C   0  0  0  0  0  0  0  0  0  0  0  0
    2.5949    0.0238   -0.0000 C   0  0  0  0  0  0  0  0  0  0  0  0
    2.5711    3.0472   -0.0000 C   0  0  0  0  0  0  0  0  0  0  0  0
    3.8924    0.7856   -0.0000 C   0  0  0  0  0  0  0  0  0  0  0  0
    2.5592    4.5470   -0.0000 N   0  0  0  0  0  0  0  0  0  0  0  0
    3.8567    2.3092   -0.0000 C   0  0  0  0  0  0  0  0  0  0  0  0
    3.8329    5.3089   -0.0000 C   0  0  0  0  0  0  0  0  0  0  0  0
    5.1422    3.0710   -0.0000 C   0  0  0  0  0  0  0  0  0  0  0  0
    3.8090    6.8325   -0.0000 O   0  0  0  0  0  0  0  0  0  0  0  0
    5.1303    4.5709   -0.0000 C   0  0  0  0  0  0  0  0  0  0  0  0
    6.5587    2.6187   -0.0000 N   0  0  0  0  0  0  0  0  0  0  0  0
    6.5468    5.0470   -0.0000 N   0  0  0  0  0  0  0  0  0  0  0  0
    7.4276    3.8448   -0.0000 C   0  0  0  0  0  0  0  0  0  0  0  0
    8.9275    3.8567   -0.0000 C   0  0  0  0  0  0  0  0  0  0  0  0
    9.6536    5.1660   -0.0000 C   0  0  0  0  0  0  0  0  0  0  0  0
    9.6655    2.5592   -0.0000 C   0  0  0  0  0  0  0  0  0  0  0  0
    8.8798    6.4754   -0.0000 Cl  0  0  0  0  0  0  0  0  0  0  0  0
   11.1415    5.1898   -0.0000 C   0  0  0  0  0  0  0  0  0  0  0  0
   11.1653    2.5711   -0.0000 C   0  0  0  0  0  0  0  0  0  0  0  0
   11.8914    3.8924   -0.0000 C   0  0  0  0  0  0  0  0  0  0  0  0
  1  2  1  0  0  0  0
  2  3  2  0  0  0  0
  2  4  1  0  0  0  0
  3  5  1  0  0  0  0
  4  6  2  0  0  0  0
  5  7  1  0  0  0  0
  5  8  2  0  0  0  0
  7  9  1  0  0  0  0
  8 10  1  0  0  0  0
  9 11  2  0  0  0  0
  9 12  1  0  0  0  0
 10 13  1  0  0  0  0
 12 14  1  0  0  0  0
 13 15  1  0  0  0  0
 15 16  1  0  0  0  0
 16 17  2  0  0  0  0
 16 18  1  0  0  0  0
 17 19  1  0  0  0  0
 17 20  1  0  0  0  0
 18 21  2  0  0  0  0
 20 22  2  0  0  0  0
  6  8  1  0  0  0  0
 10 12  2  0  0  0  0
 14 15  2  0  0  0  0
 21 22  1  0  0  0  0
M  END
>  <MolRegNo>
1272282

>  <m>
=

>  <Value>
24000

>  <Unit>
nM

>  <Type>
IC50

>  <pValue>
4.62

>  <Ligand Efficiency>
0

>  <Binding Efficiency>
0

>  <Surface Efficiency>
0

>  <Assay Index>
775131

>  <Assay Category>


>  <Assay Organism>
Homo sapiens

>  <Target ID>
17045

>  <Target Name>
Cytochrome P450 3A4

>  <Target Organism>
Homo sapiens

>  <Target Description>
Target is a single protein chain

>  <Sequence Accession>
P08684

>  <Reference>
Bioorg Med Chem 21 (11), 2868-2878 (2013)

>  <Pubmed ID>
23623673

>  <DOI>
10.1016/j.bmc.2013.03.069

$$$$
1563405
Actelion Java MolfileCreator 1.0

 25 28  0  0  1  0  0  0  0  0999 V2000
    0.0000   -0.0000   -0.0000 O   0  0  0  0  0  0  0  0  0  0  0  0
    1.4960    0.0237   -0.0000 C   0  0  0  0  0  0  0  0  0  0  0  0
    2.2439   -1.2704   -0.0000 C   0  0  0  0  0  0  0  0  0  0  0  0
    2.2321    1.3416   -0.0000 C   0  0  0  0  0  0  0  0  0  0  0  0
    1.6384   -2.6357   -0.0000 N   0  0  0  0  0  0  0  0  0  0  0  0
    3.7280   -1.4010   -0.0000 N   0  0  0  0  0  0  0  0  0  0  0  0
    2.7426   -3.6212   -0.0000 C   0  0  0  0  0  0  0  0  0  0  0  0
    4.0367   -2.8495   -0.0000 C   0  0  0  0  0  0  0  0  0  0  0  0
    4.7610   -0.3087   -0.0000 C   0  0  0  0  0  0  0  0  0  0  0  0
    2.7307   -5.1171   -0.0000 C   0  0  0  0  0  0  0  0  0  0  0  0
    5.3427   -3.5974   -0.0000 C   0  0  0  0  0  0  0  0  0  0  0  0
    6.2094   -0.6767   -0.0000 C   0  0  0  0  0  0  0  0  0  0  0  0
    4.3335    1.1398   -0.0000 C   0  0  0  0  0  0  0  0  0  0  0  0
    4.0249   -5.8532   -0.0000 N   0  0  0  0  0  0  0  0  0  0  0  0
    5.3308   -5.0934   -0.0000 C   0  0  0  0  0  0  0  0  0  0  0  0
    6.7674   -3.1107   -0.0000 C   0  0  0  0  0  0  0  0  0  0  0  0
    7.2424    0.4155   -0.0000 C   0  0  0  0  0  0  0  0  0  0  0  0
    5.3783    2.2321   -0.0000 C   0  0  0  0  0  0  0  0  0  0  0  0
    6.7556   -5.5446   -0.0000 N   0  0  0  0  0  0  0  0  0  0  0  0
    7.6460   -4.3217   -0.0000 C   0  0  0  0  0  0  0  0  0  0  0  0
    6.8268    1.8759   -0.0000 C   0  0  0  0  0  0  0  0  0  0  0  0
    7.8597    2.9682   -0.0000 C   0  0  0  0  0  0  0  0  0  0  0  0
    9.3082    2.6120   -0.0000 C   0  0  0  0  0  0  0  0  0  0  0  0
   10.3530    3.7043   -0.0000 C   0  0  0  0  0  0  0  0  0  0  0  0
   11.3859    4.7966   -0.0000 N   0  0  0  0  0  0  0  0  0  0  0  0
  2  1  1  1  0  0  0
  2  3  1  0  0  0  0
  2  4  1  0  0  0  0
  3  5  2  0  0  0  0
  3  6  1  0  0  0  0
  5  7  1  0  0  0  0
  6  8  1  0  0  0  0
  9  6  1  6  0  0  0
  7 10  1  0  0  0  0
  8 11  1  0  0  0  0
  9 12  1  0  0  0  0
  9 13  1  0  0  0  0
 10 14  2  0  0  0  0
 11 15  2  0  0  0  0
 11 16  1  0  0  0  0
 12 17  1  0  0  0  0
 13 18  1  0  0  0  0
 15 19  1  0  0  0  0
 16 20  2  0  0  0  0
 17 21  1  0  0  0  0
 21 22  1  1  0  0  0
 22 23  1  0  0  0  0
 23 24  1  0  0  0  0
 24 25  3  0  0  0  0
  7  8  2  0  0  0  0
 14 15  1  0  0  0  0
 18 21  1  0  0  0  0
 19 20  1  0  0  0  0
M  END
>  <MolRegNo>
1563405

>  <m>
=

>  <Value>
6700

>  <Unit>
nM

>  <Type>
IC50

>  <pValue>
5.17

>  <Ligand Efficiency>
0

>  <Binding Efficiency>
0

>  <Surface Efficiency>
0

>  <Assay Index>
776412

>  <Assay Category>


>  <Assay Organism>
Homo sapiens

>  <Target ID>
17045

>  <Target Name>
Cytochrome P450 3A4

>  <Target Organism>
Homo sapiens

>  <Target Description>
Target is a single protein chain

>  <Sequence Accession>
P08684

>  <Reference>
J Med Chem 56 (11), 4764-4785 (2013)

>  <Pubmed ID>
23659214

>  <DOI>
10.1021/jm4004895

$$$$
1563404
Actelion Java MolfileCreator 1.0

 24 27  0  0  1  0  0  0  0  0999 V2000
    0.0000   -0.0000   -0.0000 O   0  0  0  0  0  0  0  0  0  0  0  0
    1.4968    0.0238   -0.0000 C   0  0  0  0  0  0  0  0  0  0  0  0
    2.2452   -1.2711   -0.0000 C   0  0  0  0  0  0  0  0  0  0  0  0
    2.2334    1.3424   -0.0000 C   0  0  0  0  0  0  0  0  0  0  0  0
    1.6394   -2.6373   -0.0000 N   0  0  0  0  0  0  0  0  0  0  0  0
    3.7302   -1.4018   -0.0000 N   0  0  0  0  0  0  0  0  0  0  0  0
    2.7442   -3.6233   -0.0000 C   0  0  0  0  0  0  0  0  0  0  0  0
    4.0390   -2.8511   -0.0000 C   0  0  0  0  0  0  0  0  0  0  0  0
    4.7637   -0.3089   -0.0000 C   0  0  0  0  0  0  0  0  0  0  0  0
    2.7323   -5.1201   -0.0000 C   0  0  0  0  0  0  0  0  0  0  0  0
    5.3458   -3.5995   -0.0000 C   0  0  0  0  0  0  0  0  0  0  0  0
    6.2130   -0.6771   -0.0000 C   0  0  0  0  0  0  0  0  0  0  0  0
    4.3360    1.1404   -0.0000 C   0  0  0  0  0  0  0  0  0  0  0  0
    4.0272   -5.8566   -0.0000 N   0  0  0  0  0  0  0  0  0  0  0  0
    5.3339   -5.0963   -0.0000 C   0  0  0  0  0  0  0  0  0  0  0  0
    6.7713   -3.1124   -0.0000 C   0  0  0  0  0  0  0  0  0  0  0  0
    7.2465    0.4158   -0.0000 C   0  0  0  0  0  0  0  0  0  0  0  0
    5.3814    2.2334   -0.0000 C   0  0  0  0  0  0  0  0  0  0  0  0
    6.7595   -5.5477   -0.0000 N   0  0  0  0  0  0  0  0  0  0  0  0
    7.6504   -4.3242   -0.0000 C   0  0  0  0  0  0  0  0  0  0  0  0
    6.8307    1.8770   -0.0000 C   0  0  0  0  0  0  0  0  0  0  0  0
    7.8643    2.9699   -0.0000 C   0  0  0  0  0  0  0  0  0  0  0  0
    9.3136    2.6135   -0.0000 C   0  0  0  0  0  0  0  0  0  0  0  0
   10.7629    2.2571   -0.0000 N   0  0  0  0  0  0  0  0  0  0  0  0
  2  1  1  1  0  0  0
  2  3  1  0  0  0  0
  2  4  1  0  0  0  0
  3  5  2  0  0  0  0
  3  6  1  0  0  0  0
  5  7  1  0  0  0  0
  6  8  1  0  0  0  0
  9  6  1  6  0  0  0
  7 10  1  0  0  0  0
  8 11  1  0  0  0  0
  9 12  1  0  0  0  0
  9 13  1  0  0  0  0
 10 14  2  0  0  0  0
 11 15  2  0  0  0  0
 11 16  1  0  0  0  0
 12 17  1  0  0  0  0
 13 18  1  0  0  0  0
 15 19  1  0  0  0  0
 16 20  2  0  0  0  0
 17 21  1  0  0  0  0
 21 22  1  1  0  0  0
 22 23  1  0  0  0  0
 23 24  3  0  0  0  0
  7  8  2  0  0  0  0
 14 15  1  0  0  0  0
 18 21  1  0  0  0  0
 19 20  1  0  0  0  0
M  END
>  <MolRegNo>
1563404

>  <m>
=

>  <Value>
8800

>  <Unit>
nM

>  <Type>
IC50

>  <pValue>
5.06

>  <Ligand Efficiency>
0

>  <Binding Efficiency>
0

>  <Surface Efficiency>
0

>  <Assay Index>
776412

>  <Assay Category>


>  <Assay Organism>
Homo sapiens

>  <Target ID>
17045

>  <Target Name>
Cytochrome P450 3A4

>  <Target Organism>
Homo sapiens

>  <Target Description>
Target is a single protein chain

>  <Sequence Accession>
P08684

>  <Reference>
J Med Chem 56 (11), 4764-4785 (2013)

>  <Pubmed ID>
23659214

>  <DOI>
10.1021/jm4004895

$$$$
1563402
Actelion Java MolfileCreator 1.0

 23 26  0  0  1  0  0  0  0  0999 V2000
    0.0000   -0.0000   -0.0000 O   0  0  0  0  0  0  0  0  0  0  0  0
    1.4958    0.0237   -0.0000 C   0  0  0  0  0  0  0  0  0  0  0  0
    2.2437   -1.2702   -0.0000 C   0  0  0  0  0  0  0  0  0  0  0  0
    2.2318    1.3414   -0.0000 C   0  0  0  0  0  0  0  0  0  0  0  0
    1.6382   -2.6354   -0.0000 N   0  0  0  0  0  0  0  0  0  0  0  0
    3.7276   -1.4008   -0.0000 N   0  0  0  0  0  0  0  0  0  0  0  0
    2.7422   -3.6207   -0.0000 C   0  0  0  0  0  0  0  0  0  0  0  0
    4.0362   -2.8491   -0.0000 C   0  0  0  0  0  0  0  0  0  0  0  0
    4.7603   -0.3087   -0.0000 C   0  0  0  0  0  0  0  0  0  0  0  0
    2.7304   -5.1165   -0.0000 C   0  0  0  0  0  0  0  0  0  0  0  0
    5.3420   -3.5970   -0.0000 C   0  0  0  0  0  0  0  0  0  0  0  0
    6.2086   -0.6767   -0.0000 C   0  0  0  0  0  0  0  0  0  0  0  0
    4.3330    1.1396   -0.0000 C   0  0  0  0  0  0  0  0  0  0  0  0
    4.0243   -5.8525   -0.0000 N   0  0  0  0  0  0  0  0  0  0  0  0
    5.3302   -5.0927   -0.0000 C   0  0  0  0  0  0  0  0  0  0  0  0
    6.7666   -3.1102   -0.0000 C   0  0  0  0  0  0  0  0  0  0  0  0
    7.2414    0.4155   -0.0000 C   0  0  0  0  0  0  0  0  0  0  0  0
    5.3776    2.2318   -0.0000 C   0  0  0  0  0  0  0  0  0  0  0  0
    6.7547   -5.5438   -0.0000 N   0  0  0  0  0  0  0  0  0  0  0  0
    7.6450   -4.3211   -0.0000 C   0  0  0  0  0  0  0  0  0  0  0  0
    6.8259    1.8756   -0.0000 C   0  0  0  0  0  0  0  0  0  0  0  0
    7.8587    2.9678   -0.0000 C   0  0  0  0  0  0  0  0  0  0  0  0
    8.9034    4.0599   -0.0000 N   0  0  0  0  0  0  0  0  0  0  0  0
  2  1  1  1  0  0  0
  2  3  1  0  0  0  0
  2  4  1  0  0  0  0
  3  5  2  0  0  0  0
  3  6  1  0  0  0  0
  5  7  1  0  0  0  0
  6  8  1  0  0  0  0
  9  6  1  6  0  0  0
  7 10  1  0  0  0  0
  8 11  1  0  0  0  0
  9 12  1  0  0  0  0
  9 13  1  0  0  0  0
 10 14  2  0  0  0  0
 11 15  2  0  0  0  0
 11 16  1  0  0  0  0
 12 17  1  0  0  0  0
 13 18  1  0  0  0  0
 15 19  1  0  0  0  0
 16 20  2  0  0  0  0
 17 21  1  0  0  0  0
 21 22  1  1  0  0  0
 22 23  3  0  0  0  0
  7  8  2  0  0  0  0
 14 15  1  0  0  0  0
 18 21  1  0  0  0  0
 19 20  1  0  0  0  0
M  END
>  <MolRegNo>
1563402

>  <m>
=

>  <Value>
7900

>  <Unit>
nM

>  <Type>
IC50

>  <pValue>
5.1

>  <Ligand Efficiency>
0

>  <Binding Efficiency>
0

>  <Surface Efficiency>
0

>  <Assay Index>
776412

>  <Assay Category>


>  <Assay Organism>
Homo sapiens

>  <Target ID>
17045

>  <Target Name>
Cytochrome P450 3A4

>  <Target Organism>
Homo sapiens

>  <Target Description>
Target is a single protein chain

>  <Sequence Accession>
P08684

>  <Reference>
J Med Chem 56 (11), 4764-4785 (2013)

>  <Pubmed ID>
23659214

>  <DOI>
10.1021/jm4004895

$$$$
1564087
Actelion Java MolfileCreator 1.0

 30 33  0  0  0  0  0  0  0  0999 V2000
    0.0000   -0.0000   -0.0000 Cl  0  0  0  0  0  0  0  0  0  0  0  0
   -0.0119   -1.4891   -0.0000 C   0  0  0  0  0  0  0  0  0  0  0  0
   -1.3342   -2.2277   -0.0000 C   0  0  0  0  0  0  0  0  0  0  0  0
    1.2866   -2.2277   -0.0000 C   0  0  0  0  0  0  0  0  0  0  0  0
   -1.3342   -3.7287   -0.0000 C   0  0  0  0  0  0  0  0  0  0  0  0
    1.2627   -3.7168   -0.0000 C   0  0  0  0  0  0  0  0  0  0  0  0
   -2.6446   -4.4673   -0.0000 Cl  0  0  0  0  0  0  0  0  0  0  0  0
   -0.0477   -4.4673   -0.0000 C   0  0  0  0  0  0  0  0  0  0  0  0
    2.5493   -4.4554   -0.0000 N   0  0  0  0  0  0  0  0  0  0  0  0
    3.8359   -3.6929   -0.0000 C   0  0  0  0  0  0  0  0  0  0  0  0
    3.8240   -2.1800   -0.0000 O   0  0  0  0  0  0  0  0  0  0  0  0
    5.1225   -4.4315   -0.0000 N   0  0  0  0  0  0  0  0  0  0  0  0
    6.4090   -3.6691   -0.0000 C   0  0  0  0  0  0  0  0  0  0  0  0
    6.3971   -2.1443   -0.0000 C   0  0  0  0  0  0  0  0  0  0  0  0
    7.6956   -4.4077   -0.0000 C   0  0  0  0  0  0  0  0  0  0  0  0
    7.6837   -1.3819   -0.0000 C   0  0  0  0  0  0  0  0  0  0  0  0
    5.0867   -1.3819   -0.0000 C   0  0  0  0  0  0  0  0  0  0  0  0
    8.9941   -3.6453   -0.0000 C   0  0  0  0  0  0  0  0  0  0  0  0
    8.9822   -2.1205   -0.0000 C   0  0  0  0  0  0  0  0  0  0  0  0
   10.2688   -1.3461   -0.0000 N   0  0  0  0  0  0  0  0  0  0  0  0
   11.6387   -1.9418   -0.0000 C   0  0  0  0  0  0  0  0  0  0  0  0
   10.4117    0.1668   -0.0000 C   0  0  0  0  0  0  0  0  0  0  0  0
   12.6275   -0.8101   -0.0000 C   0  0  0  0  0  0  0  0  0  0  0  0
   11.8651    0.5003   -0.0000 C   0  0  0  0  0  0  0  0  0  0  0  0
   14.1166   -0.9530   -0.0000 N   0  0  0  0  0  0  0  0  0  0  0  0
   14.8671   -2.2396   -0.0000 C   0  0  0  0  0  0  0  0  0  0  0  0
   15.1053    0.1787   -0.0000 C   0  0  0  0  0  0  0  0  0  0  0  0
   16.3204   -1.9060   -0.0000 C   0  0  0  0  0  0  0  0  0  0  0  0
   14.2476   -3.6096   -0.0000 C   0  0  0  0  0  0  0  0  0  0  0  0
   16.4753   -0.4169   -0.0000 C   0  0  0  0  0  0  0  0  0  0  0  0
  1  2  1  0  0  0  0
  2  3  2  0  0  0  0
  2  4  1  0  0  0  0
  3  5  1  0  0  0  0
  4  6  2  0  0  0  0
  5  7  1  0  0  0  0
  5  8  2  0  0  0  0
  6  9  1  0  0  0  0
  9 10  1  0  0  0  0
 10 11  2  0  0  0  0
 10 12  1  0  0  0  0
 12 13  1  0  0  0  0
 13 14  2  0  0  0  0
 13 15  1  0  0  0  0
 14 16  1  0  0  0  0
 14 17  1  0  0  0  0
 15 18  2  0  0  0  0
 16 19  2  0  0  0  0
 19 20  1  0  0  0  0
 20 21  1  0  0  0  0
 20 22  1  0  0  0  0
 21 23  1  0  0  0  0
 22 24  1  0  0  0  0
 23 25  1  0  0  0  0
 25 26  1  0  0  0  0
 25 27  1  0  0  0  0
 26 28  1  0  0  0  0
 26 29  1  0  0  0  0
 27 30  1  0  0  0  0
  6  8  1  0  0  0  0
 18 19  1  0  0  0  0
 23 24  1  0  0  0  0
 28 30  1  0  0  0  0
M  END
>  <MolRegNo>
1564087

>  <m>
=

>  <Value>
13000

>  <Unit>
nM

>  <Type>
IC50

>  <pValue>
4.89

>  <Ligand Efficiency>
0

>  <Binding Efficiency>
0

>  <Surface Efficiency>
0

>  <Assay Index>
775003

>  <Assay Category>


>  <Assay Organism>
Homo sapiens

>  <Target ID>
17045

>  <Target Name>
Cytochrome P450 3A4

>  <Target Organism>
Homo sapiens

>  <Target Description>
Target is a single protein chain

>  <Sequence Accession>
P08684

>  <Reference>
Bioorg Med Chem Lett 23 (11), 3416-3420 (2013)

>  <Pubmed ID>
23591110

>  <DOI>
10.1016/j.bmcl.2013.03.080

$$$$
1567826
Actelion Java MolfileCreator 1.0

 24 25  0  0  0  0  0  0  0  0999 V2000
    0.0000   -0.0000   -0.0000 S   0  0  0  0  0  0  0  0  0  0  0  0
    0.9857    1.1282   -0.0000 C   0  0  0  0  0  0  0  0  0  0  0  0
   -1.3776    0.6175   -0.0000 C   0  0  0  0  0  0  0  0  0  0  0  0
    0.2256    2.4345   -0.0000 N   0  0  0  0  0  0  0  0  0  0  0  0
    2.4701    0.9857   -0.0000 N   0  0  0  0  0  0  0  0  0  0  0  0
   -2.6839   -0.1188   -0.0000 C   0  0  0  0  0  0  0  0  0  0  0  0
   -1.2351    2.1257   -0.0000 C   0  0  0  0  0  0  0  0  0  0  0  0
    3.0758   -0.3681   -0.0000 C   0  0  0  0  0  0  0  0  0  0  0  0
   -2.6958   -1.6151   -0.0000 C   0  0  0  0  0  0  0  0  0  0  0  0
   -3.9902    0.6413   -0.0000 C   0  0  0  0  0  0  0  0  0  0  0  0
   -2.3632    3.1352   -0.0000 C   0  0  0  0  0  0  0  0  0  0  0  0
    2.1851   -1.5676   -0.0000 O   0  0  0  0  0  0  0  0  0  0  0  0
    4.5602   -0.5107   -0.0000 C   0  0  0  0  0  0  0  0  0  0  0  0
   -4.0140   -2.3514   -0.0000 N   0  0  0  0  0  0  0  0  0  0  0  0
   -5.2965   -0.0950   -0.0000 C   0  0  0  0  0  0  0  0  0  0  0  0
    5.1659   -1.8645   -0.0000 C   0  0  0  0  0  0  0  0  0  0  0  0
    4.5365    0.9976   -0.0000 C   0  0  0  0  0  0  0  0  0  0  0  0
    5.9972   -0.1069   -0.0000 C   0  0  0  0  0  0  0  0  0  0  0  0
   -5.3203   -1.5913   -0.0000 C   0  0  0  0  0  0  0  0  0  0  0  0
    4.2752   -3.0639   -0.0000 C   0  0  0  0  0  0  0  0  0  0  0  0
   -6.6266   -2.3276   -0.0000 N   0  0  0  0  0  0  0  0  0  0  0  0
    4.8809   -4.4177   -0.0000 F   0  0  0  0  0  0  0  0  0  0  0  0
    2.7670   -2.8976   -0.0000 F   0  0  0  0  0  0  0  0  0  0  0  0
    3.5033   -4.3465   -0.0000 F   0  0  0  0  0  0  0  0  0  0  0  0
  1  2  1  0  0  0  0
  1  3  1  0  0  0  0
  2  4  2  0  0  0  0
  2  5  1  0  0  0  0
  3  6  1  0  0  0  0
  3  7  2  0  0  0  0
  5  8  1  0  0  0  0
  6  9  2  0  0  0  0
  6 10  1  0  0  0  0
  7 11  1  0  0  0  0
  8 12  2  0  0  0  0
  8 13  1  0  0  0  0
  9 14  1  0  0  0  0
 10 15  2  0  0  0  0
 13 16  1  0  0  0  0
 13 17  1  0  0  0  0
 13 18  1  0  0  0  0
 14 19  2  0  0  0  0
 16 20  1  0  0  0  0
 19 21  1  0  0  0  0
 20 22  1  0  0  0  0
 20 23  1  0  0  0  0
 20 24  1  0  0  0  0
  4  7  1  0  0  0  0
 15 19  1  0  0  0  0
M  END
>  <MolRegNo>
1567826

>  <m>
=

>  <Value>
17000

>  <Unit>
nM

>  <Type>
IC50

>  <pValue>
4.77

>  <Ligand Efficiency>
0

>  <Binding Efficiency>
0

>  <Surface Efficiency>
0

>  <Assay Index>
780410

>  <Assay Category>


>  <Assay Organism>
Homo sapiens

>  <Target ID>
17045

>  <Target Name>
Cytochrome P450 3A4

>  <Target Organism>
Homo sapiens

>  <Target Description>
Target is a single protein chain

>  <Sequence Accession>
P08684

>  <Reference>
Bioorg Med Chem Lett 23 (13), 3841-3847 (2013)

>  <Pubmed ID>
23726345

>  <DOI>
10.1016/j.bmcl.2013.04.077

$$$$
1567823
Actelion Java MolfileCreator 1.0

 29 32  0  0  0  0  0  0  0  0999 V2000
    0.0000   -0.0000   -0.0000 S   0  0  0  0  0  0  0  0  0  0  0  0
    0.9895    1.1326   -0.0000 C   0  0  0  0  0  0  0  0  0  0  0  0
   -1.3829    0.6199   -0.0000 C   0  0  0  0  0  0  0  0  0  0  0  0
    0.2265    2.4440   -0.0000 N   0  0  0  0  0  0  0  0  0  0  0  0
    2.4798    0.9895   -0.0000 N   0  0  0  0  0  0  0  0  0  0  0  0
   -2.6944   -0.1192   -0.0000 C   0  0  0  0  0  0  0  0  0  0  0  0
   -1.2399    2.1340   -0.0000 C   0  0  0  0  0  0  0  0  0  0  0  0
    3.0878   -0.3696   -0.0000 C   0  0  0  0  0  0  0  0  0  0  0  0
   -2.7063   -1.6214   -0.0000 C   0  0  0  0  0  0  0  0  0  0  0  0
   -4.0058    0.6438   -0.0000 C   0  0  0  0  0  0  0  0  0  0  0  0
   -2.3725    3.1474   -0.0000 C   0  0  0  0  0  0  0  0  0  0  0  0
    2.1936   -1.5737   -0.0000 O   0  0  0  0  0  0  0  0  0  0  0  0
    4.5780   -0.5126   -0.0000 C   0  0  0  0  0  0  0  0  0  0  0  0
   -4.0296   -2.3605   -0.0000 N   0  0  0  0  0  0  0  0  0  0  0  0
   -5.3172   -0.0954   -0.0000 C   0  0  0  0  0  0  0  0  0  0  0  0
    5.1861   -1.8717   -0.0000 C   0  0  0  0  0  0  0  0  0  0  0  0
   -5.3410   -1.5975   -0.0000 C   0  0  0  0  0  0  0  0  0  0  0  0
    4.4350   -3.1712   -0.0000 O   0  0  0  0  0  0  0  0  0  0  0  0
    6.6525   -2.1698   -0.0000 N   0  0  0  0  0  0  0  0  0  0  0  0
   -6.6525   -2.3367   -0.0000 N   0  0  0  0  0  0  0  0  0  0  0  0
    5.4364   -4.2681   -0.0000 C   0  0  0  0  0  0  0  0  0  0  0  0
    6.8074   -3.6481   -0.0000 C   0  0  0  0  0  0  0  0  0  0  0  0
    5.1145   -5.7225   -0.0000 C   0  0  0  0  0  0  0  0  0  0  0  0
    8.0950   -4.3873   -0.0000 C   0  0  0  0  0  0  0  0  0  0  0  0
    8.0831   -5.8775   -0.0000 C   0  0  0  0  0  0  0  0  0  0  0  0
    9.3707   -3.6243   -0.0000 C   0  0  0  0  0  0  0  0  0  0  0  0
    9.3707   -6.6167   -0.0000 C   0  0  0  0  0  0  0  0  0  0  0  0
   10.6582   -4.3515   -0.0000 C   0  0  0  0  0  0  0  0  0  0  0  0
   10.6582   -5.8418   -0.0000 C   0  0  0  0  0  0  0  0  0  0  0  0
  1  2  1  0  0  0  0
  1  3  1  0  0  0  0
  2  4  2  0  0  0  0
  2  5  1  0  0  0  0
  3  6  1  0  0  0  0
  3  7  2  0  0  0  0
  5  8  1  0  0  0  0
  6  9  2  0  0  0  0
  6 10  1  0  0  0  0
  7 11  1  0  0  0  0
  8 12  2  0  0  0  0
  8 13  1  0  0  0  0
  9 14  1  0  0  0  0
 10 15  2  0  0  0  0
 13 16  1  0  0  0  0
 14 17  2  0  0  0  0
 16 18  1  0  0  0  0
 16 19  2  0  0  0  0
 17 20  1  0  0  0  0
 18 21  1  0  0  0  0
 19 22  1  0  0  0  0
 21 23  1  0  0  0  0
 22 24  1  0  0  0  0
 24 25  2  0  0  0  0
 24 26  1  0  0  0  0
 25 27  1  0  0  0  0
 26 28  2  0  0  0  0
 27 29  2  0  0  0  0
  4  7  1  0  0  0  0
 15 17  1  0  0  0  0
 21 22  2  0  0  0  0
 28 29  1  0  0  0  0
M  END
>  <MolRegNo>
1567823

>  <m>
=

>  <Value>
7700

>  <Unit>
nM

>  <Type>
IC50

>  <pValue>
5.11

>  <Ligand Efficiency>
0

>  <Binding Efficiency>
0

>  <Surface Efficiency>
0

>  <Assay Index>
780410

>  <Assay Category>


>  <Assay Organism>
Homo sapiens

>  <Target ID>
17045

>  <Target Name>
Cytochrome P450 3A4

>  <Target Organism>
Homo sapiens

>  <Target Description>
Target is a single protein chain

>  <Sequence Accession>
P08684

>  <Reference>
Bioorg Med Chem Lett 23 (13), 3841-3847 (2013)

>  <Pubmed ID>
23726345

>  <DOI>
10.1016/j.bmcl.2013.04.077

$$$$
1567821
Actelion Java MolfileCreator 1.0

 23 25  0  0  0  0  0  0  0  0999 V2000
    0.0000   -0.0000   -0.0000 S   0  0  0  0  0  0  0  0  0  0  0  0
    0.9868    1.1294   -0.0000 C   0  0  0  0  0  0  0  0  0  0  0  0
   -1.3791    0.6182   -0.0000 C   0  0  0  0  0  0  0  0  0  0  0  0
    0.2259    2.4372   -0.0000 N   0  0  0  0  0  0  0  0  0  0  0  0
    2.4728    0.9868   -0.0000 N   0  0  0  0  0  0  0  0  0  0  0  0
   -2.6868   -0.1189   -0.0000 C   0  0  0  0  0  0  0  0  0  0  0  0
   -1.2364    2.1281   -0.0000 C   0  0  0  0  0  0  0  0  0  0  0  0
    3.0791   -0.3685   -0.0000 C   0  0  0  0  0  0  0  0  0  0  0  0
   -2.6987   -1.6169   -0.0000 C   0  0  0  0  0  0  0  0  0  0  0  0
   -3.9946    0.6420   -0.0000 C   0  0  0  0  0  0  0  0  0  0  0  0
   -2.3658    3.1386   -0.0000 C   0  0  0  0  0  0  0  0  0  0  0  0
    2.1875   -1.5693   -0.0000 O   0  0  0  0  0  0  0  0  0  0  0  0
    4.5652   -0.5112   -0.0000 C   0  0  0  0  0  0  0  0  0  0  0  0
   -4.0184   -2.3539   -0.0000 N   0  0  0  0  0  0  0  0  0  0  0  0
   -5.3023   -0.0951   -0.0000 C   0  0  0  0  0  0  0  0  0  0  0  0
    5.1597   -1.8665   -0.0000 C   0  0  0  0  0  0  0  0  0  0  0  0
    5.4212    0.7133   -0.0000 C   0  0  0  0  0  0  0  0  0  0  0  0
    4.1610    0.9511   -0.0000 C   0  0  0  0  0  0  0  0  0  0  0  0
   -5.3261   -1.5931   -0.0000 C   0  0  0  0  0  0  0  0  0  0  0  0
    6.6338   -2.0092   -0.0000 C   0  0  0  0  0  0  0  0  0  0  0  0
    6.9073    0.5707   -0.0000 C   0  0  0  0  0  0  0  0  0  0  0  0
   -6.6338   -2.3302   -0.0000 N   0  0  0  0  0  0  0  0  0  0  0  0
    7.5017   -0.7846   -0.0000 C   0  0  0  0  0  0  0  0  0  0  0  0
  1  2  1  0  0  0  0
  1  3  1  0  0  0  0
  2  4  2  0  0  0  0
  2  5  1  0  0  0  0
  3  6  1  0  0  0  0
  3  7  2  0  0  0  0
  5  8  1  0  0  0  0
  6  9  2  0  0  0  0
  6 10  1  0  0  0  0
  7 11  1  0  0  0  0
  8 12  2  0  0  0  0
  8 13  1  0  0  0  0
  9 14  1  0  0  0  0
 10 15  2  0  0  0  0
 13 16  1  0  0  0  0
 13 17  1  0  0  0  0
 13 18  1  0  0  0  0
 14 19  2  0  0  0  0
 16 20  1  0  0  0  0
 17 21  1  0  0  0  0
 19 22  1  0  0  0  0
 20 23  1  0  0  0  0
  4  7  1  0  0  0  0
 15 19  1  0  0  0  0
 21 23  1  0  0  0  0
M  END
>  <MolRegNo>
1567821

>  <m>
=

>  <Value>
17000

>  <Unit>
nM

>  <Type>
IC50

>  <pValue>
4.77

>  <Ligand Efficiency>
0

>  <Binding Efficiency>
0

>  <Surface Efficiency>
0

>  <Assay Index>
780410

>  <Assay Category>


>  <Assay Organism>
Homo sapiens

>  <Target ID>
17045

>  <Target Name>
Cytochrome P450 3A4

>  <Target Organism>
Homo sapiens

>  <Target Description>
Target is a single protein chain

>  <Sequence Accession>
P08684

>  <Reference>
Bioorg Med Chem Lett 23 (13), 3841-3847 (2013)

>  <Pubmed ID>
23726345

>  <DOI>
10.1016/j.bmcl.2013.04.077

$$$$
1567818
Actelion Java MolfileCreator 1.0

 33 36  0  0  0  0  0  0  0  0999 V2000
    0.0000   -0.0000   -0.0000 S   0  0  0  0  0  0  0  0  0  0  0  0
    0.9909    1.1341   -0.0000 C   0  0  0  0  0  0  0  0  0  0  0  0
   -1.3849    0.6089   -0.0000 C   0  0  0  0  0  0  0  0  0  0  0  0
    0.2268    2.4474   -0.0000 N   0  0  0  0  0  0  0  0  0  0  0  0
    2.4712    0.9909   -0.0000 N   0  0  0  0  0  0  0  0  0  0  0  0
   -2.6981   -0.1313   -0.0000 C   0  0  0  0  0  0  0  0  0  0  0  0
   -1.2416    2.1131   -0.0000 C   0  0  0  0  0  0  0  0  0  0  0  0
    3.0801   -0.3701   -0.0000 C   0  0  0  0  0  0  0  0  0  0  0  0
   -4.0232    0.6208   -0.0000 C   0  0  0  0  0  0  0  0  0  0  0  0
   -2.7100   -1.6356   -0.0000 C   0  0  0  0  0  0  0  0  0  0  0  0
    2.1847   -1.5759   -0.0000 O   0  0  0  0  0  0  0  0  0  0  0  0
    4.5605   -0.5134   -0.0000 C   0  0  0  0  0  0  0  0  0  0  0  0
   -5.3365   -0.1194   -0.0000 C   0  0  0  0  0  0  0  0  0  0  0  0
   -4.0232   -2.3877   -0.0000 C   0  0  0  0  0  0  0  0  0  0  0  0
    5.1574   -1.8743   -0.0000 N   0  0  0  0  0  0  0  0  0  0  0  0
   -5.3484   -1.6236   -0.0000 C   0  0  0  0  0  0  0  0  0  0  0  0
    4.2739   -3.0801   -0.0000 C   0  0  0  0  0  0  0  0  0  0  0  0
    6.6497   -1.8743   -0.0000 C   0  0  0  0  0  0  0  0  0  0  0  0
   -6.6616   -2.3638   -0.0000 N   0  0  0  0  0  0  0  0  0  0  0  0
    2.7697   -2.9130   -0.0000 O   0  0  0  0  0  0  0  0  0  0  0  0
    4.8709   -4.4411   -0.0000 C   0  0  0  0  0  0  0  0  0  0  0  0
    7.3899   -0.5730   -0.0000 C   0  0  0  0  0  0  0  0  0  0  0  0
    6.3512   -4.5724   -0.0000 C   0  0  0  0  0  0  0  0  0  0  0  0
    3.9874   -5.6469   -0.0000 C   0  0  0  0  0  0  0  0  0  0  0  0
    8.8702   -0.5730   -0.0000 C   0  0  0  0  0  0  0  0  0  0  0  0
    6.6377    0.7282   -0.0000 C   0  0  0  0  0  0  0  0  0  0  0  0
    6.9601   -5.9214   -0.0000 N   0  0  0  0  0  0  0  0  0  0  0  0
    4.5963   -7.0198   -0.0000 C   0  0  0  0  0  0  0  0  0  0  0  0
    9.6104    0.7282   -0.0000 C   0  0  0  0  0  0  0  0  0  0  0  0
    7.3779    2.0295   -0.0000 C   0  0  0  0  0  0  0  0  0  0  0  0
    6.0647   -7.1392   -0.0000 C   0  0  0  0  0  0  0  0  0  0  0  0
    8.8583    2.0415   -0.0000 C   0  0  0  0  0  0  0  0  0  0  0  0
    6.6736   -8.5001   -0.0000 C   0  0  0  0  0  0  0  0  0  0  0  0
  1  2  1  0  0  0  0
  1  3  1  0  0  0  0
  2  4  2  0  0  0  0
  2  5  1  0  0  0  0
  3  6  1  0  0  0  0
  3  7  2  0  0  0  0
  5  8  1  0  0  0  0
  6  9  2  0  0  0  0
  6 10  1  0  0  0  0
  8 11  2  0  0  0  0
  8 12  1  0  0  0  0
  9 13  1  0  0  0  0
 10 14  2  0  0  0  0
 12 15  1  0  0  0  0
 13 16  2  0  0  0  0
 15 17  1  0  0  0  0
 15 18  1  0  0  0  0
 16 19  1  0  0  0  0
 17 20  2  0  0  0  0
 17 21  1  0  0  0  0
 18 22  1  0  0  0  0
 21 23  2  0  0  0  0
 21 24  1  0  0  0  0
 22 25  2  0  0  0  0
 22 26  1  0  0  0  0
 23 27  1  0  0  0  0
 24 28  2  0  0  0  0
 25 29  1  0  0  0  0
 26 30  2  0  0  0  0
 27 31  2  0  0  0  0
 29 32  2  0  0  0  0
 31 33  1  0  0  0  0
  4  7  1  0  0  0  0
 14 16  1  0  0  0  0
 28 31  1  0  0  0  0
 30 32  1  0  0  0  0
M  END
>  <MolRegNo>
1567818

>  <m>
=

>  <Value>
15000

>  <Unit>
nM

>  <Type>
IC50

>  <pValue>
4.82

>  <Ligand Efficiency>
0

>  <Binding Efficiency>
0

>  <Surface Efficiency>
0

>  <Assay Index>
780410

>  <Assay Category>


>  <Assay Organism>
Homo sapiens

>  <Target ID>
17045

>  <Target Name>
Cytochrome P450 3A4

>  <Target Organism>
Homo sapiens

>  <Target Description>
Target is a single protein chain

>  <Sequence Accession>
P08684

>  <Reference>
Bioorg Med Chem Lett 23 (13), 3841-3847 (2013)

>  <Pubmed ID>
23726345

>  <DOI>
10.1016/j.bmcl.2013.04.077

$$$$
1567817
Actelion Java MolfileCreator 1.0

 29 32  0  0  0  0  0  0  0  0999 V2000
    0.0000   -0.0000   -0.0000 S   0  0  0  0  0  0  0  0  0  0  0  0
    0.9875    1.1303   -0.0000 C   0  0  0  0  0  0  0  0  0  0  0  0
   -1.3801    0.6187   -0.0000 C   0  0  0  0  0  0  0  0  0  0  0  0
    0.2261    2.4390   -0.0000 N   0  0  0  0  0  0  0  0  0  0  0  0
    2.4747    0.9875   -0.0000 N   0  0  0  0  0  0  0  0  0  0  0  0
   -2.6888   -0.1190   -0.0000 C   0  0  0  0  0  0  0  0  0  0  0  0
   -1.2373    2.1297   -0.0000 C   0  0  0  0  0  0  0  0  0  0  0  0
    3.0815   -0.3688   -0.0000 C   0  0  0  0  0  0  0  0  0  0  0  0
   -2.7007   -1.6181   -0.0000 C   0  0  0  0  0  0  0  0  0  0  0  0
   -3.9976    0.6425   -0.0000 C   0  0  0  0  0  0  0  0  0  0  0  0
    2.1891   -1.5705   -0.0000 O   0  0  0  0  0  0  0  0  0  0  0  0
    4.5687   -0.5116   -0.0000 C   0  0  0  0  0  0  0  0  0  0  0  0
   -4.0214   -2.3557   -0.0000 C   0  0  0  0  0  0  0  0  0  0  0  0
   -5.3063   -0.0952   -0.0000 C   0  0  0  0  0  0  0  0  0  0  0  0
    5.5561    0.6187   -0.0000 N   0  0  0  0  0  0  0  0  0  0  0  0
    5.3063   -1.7965   -0.0000 C   0  0  0  0  0  0  0  0  0  0  0  0
   -5.3301   -1.5943   -0.0000 C   0  0  0  0  0  0  0  0  0  0  0  0
    5.2230    2.0940   -0.0000 C   0  0  0  0  0  0  0  0  0  0  0  0
    6.9125    0.0238   -0.0000 C   0  0  0  0  0  0  0  0  0  0  0  0
    6.7578   -1.4634   -0.0000 C   0  0  0  0  0  0  0  0  0  0  0  0
   -6.6388   -2.3319   -0.0000 N   0  0  0  0  0  0  0  0  0  0  0  0
    3.7834    2.5580   -0.0000 O   0  0  0  0  0  0  0  0  0  0  0  0
    6.3176    3.1172   -0.0000 C   0  0  0  0  0  0  0  0  0  0  0  0
    8.1974    0.7852   -0.0000 C   0  0  0  0  0  0  0  0  0  0  0  0
    9.4823    0.0476   -0.0000 C   0  0  0  0  0  0  0  0  0  0  0  0
    8.1736    2.2843   -0.0000 C   0  0  0  0  0  0  0  0  0  0  0  0
   10.7673    0.8090   -0.0000 C   0  0  0  0  0  0  0  0  0  0  0  0
    9.4466    3.0577   -0.0000 C   0  0  0  0  0  0  0  0  0  0  0  0
   10.7554    2.3200   -0.0000 C   0  0  0  0  0  0  0  0  0  0  0  0
  1  2  1  0  0  0  0
  1  3  1  0  0  0  0
  2  4  2  0  0  0  0
  2  5  1  0  0  0  0
  3  6  1  0  0  0  0
  3  7  2  0  0  0  0
  5  8  1  0  0  0  0
  6  9  2  0  0  0  0
  6 10  1  0  0  0  0
  8 11  2  0  0  0  0
 12  8  1  6  0  0  0
  9 13  1  0  0  0  0
 10 14  2  0  0  0  0
 12 15  1  0  0  0  0
 12 16  1  0  0  0  0
 13 17  2  0  0  0  0
 15 18  1  0  0  0  0
 15 19  1  0  0  0  0
 16 20  1  0  0  0  0
 17 21  1  0  0  0  0
 18 22  2  0  0  0  0
 18 23  1  0  0  0  0
 19 24  1  6  0  0  0
 24 25  2  0  0  0  0
 24 26  1  0  0  0  0
 25 27  1  0  0  0  0
 26 28  2  0  0  0  0
 27 29  2  0  0  0  0
  4  7  1  0  0  0  0
 14 17  1  0  0  0  0
 19 20  1  0  0  0  0
 28 29  1  0  0  0  0
M  END
>  <MolRegNo>
1567817

>  <m>
=

>  <Value>
980

>  <Unit>
nM

>  <Type>
IC50

>  <pValue>
6.01

>  <Ligand Efficiency>
0

>  <Binding Efficiency>
0

>  <Surface Efficiency>
0

>  <Assay Index>
780410

>  <Assay Category>


>  <Assay Organism>
Homo sapiens

>  <Target ID>
17045

>  <Target Name>
Cytochrome P450 3A4

>  <Target Organism>
Homo sapiens

>  <Target Description>
Target is a single protein chain

>  <Sequence Accession>
P08684

>  <Reference>
Bioorg Med Chem Lett 23 (13), 3841-3847 (2013)

>  <Pubmed ID>
23726345

>  <DOI>
10.1016/j.bmcl.2013.04.077

$$$$
1567815
Actelion Java MolfileCreator 1.0

 33 36  0  0  0  0  0  0  0  0999 V2000
    0.0000   -0.0000   -0.0000 S   0  0  0  0  0  0  0  0  0  0  0  0
    0.9890    1.1320   -0.0000 C   0  0  0  0  0  0  0  0  0  0  0  0
   -1.3823    0.6077   -0.0000 C   0  0  0  0  0  0  0  0  0  0  0  0
    0.2264    2.4428   -0.0000 N   0  0  0  0  0  0  0  0  0  0  0  0
    2.4785    0.9890   -0.0000 N   0  0  0  0  0  0  0  0  0  0  0  0
   -2.6930   -0.1311   -0.0000 C   0  0  0  0  0  0  0  0  0  0  0  0
   -1.2393    2.1211   -0.0000 C   0  0  0  0  0  0  0  0  0  0  0  0
    3.0863   -0.3694   -0.0000 C   0  0  0  0  0  0  0  0  0  0  0  0
   -2.7049   -1.6325   -0.0000 C   0  0  0  0  0  0  0  0  0  0  0  0
   -4.0157    0.6196   -0.0000 C   0  0  0  0  0  0  0  0  0  0  0  0
   -2.3832    3.1339   -0.0000 C   0  0  0  0  0  0  0  0  0  0  0  0
    2.1926   -1.5729   -0.0000 O   0  0  0  0  0  0  0  0  0  0  0  0
    4.5758   -0.5124   -0.0000 C   0  0  0  0  0  0  0  0  0  0  0  0
   -4.0157   -2.3832   -0.0000 N   0  0  0  0  0  0  0  0  0  0  0  0
   -5.3265   -0.1192   -0.0000 C   0  0  0  0  0  0  0  0  0  0  0  0
    5.1716   -1.8708   -0.0000 N   0  0  0  0  0  0  0  0  0  0  0  0
   -5.3265   -1.6206   -0.0000 C   0  0  0  0  0  0  0  0  0  0  0  0
    4.2779   -3.0743   -0.0000 C   0  0  0  0  0  0  0  0  0  0  0  0
    6.6611   -1.8708   -0.0000 C   0  0  0  0  0  0  0  0  0  0  0  0
   -6.6372   -2.3594   -0.0000 N   0  0  0  0  0  0  0  0  0  0  0  0
    2.7645   -2.9075   -0.0000 O   0  0  0  0  0  0  0  0  0  0  0  0
    4.8737   -4.4328   -0.0000 C   0  0  0  0  0  0  0  0  0  0  0  0
    7.3999   -0.5720   -0.0000 C   0  0  0  0  0  0  0  0  0  0  0  0
    6.3513   -4.5638   -0.0000 C   0  0  0  0  0  0  0  0  0  0  0  0
    3.9800   -5.6363   -0.0000 C   0  0  0  0  0  0  0  0  0  0  0  0
    8.8775   -0.5720   -0.0000 C   0  0  0  0  0  0  0  0  0  0  0  0
    6.6492    0.7269   -0.0000 C   0  0  0  0  0  0  0  0  0  0  0  0
    6.9590   -5.9104   -0.0000 C   0  0  0  0  0  0  0  0  0  0  0  0
    4.5877   -6.9947   -0.0000 C   0  0  0  0  0  0  0  0  0  0  0  0
    9.6163    0.7269   -0.0000 C   0  0  0  0  0  0  0  0  0  0  0  0
    7.3880    2.0257   -0.0000 C   0  0  0  0  0  0  0  0  0  0  0  0
    6.0653   -7.1377   -0.0000 N   0  0  0  0  0  0  0  0  0  0  0  0
    8.8655    2.0376   -0.0000 C   0  0  0  0  0  0  0  0  0  0  0  0
  1  2  1  0  0  0  0
  1  3  1  0  0  0  0
  2  4  2  0  0  0  0
  2  5  1  0  0  0  0
  3  6  1  0  0  0  0
  3  7  2  0  0  0  0
  5  8  1  0  0  0  0
  6  9  2  0  0  0  0
  6 10  1  0  0  0  0
  7 11  1  0  0  0  0
  8 12  2  0  0  0  0
  8 13  1  0  0  0  0
  9 14  1  0  0  0  0
 10 15  2  0  0  0  0
 13 16  1  0  0  0  0
 14 17  2  0  0  0  0
 16 18  1  0  0  0  0
 16 19  1  0  0  0  0
 17 20  1  0  0  0  0
 18 21  2  0  0  0  0
 18 22  1  0  0  0  0
 19 23  1  0  0  0  0
 22 24  2  0  0  0  0
 22 25  1  0  0  0  0
 23 26  2  0  0  0  0
 23 27  1  0  0  0  0
 24 28  1  0  0  0  0
 25 29  2  0  0  0  0
 26 30  1  0  0  0  0
 27 31  2  0  0  0  0
 28 32  2  0  0  0  0
 30 33  2  0  0  0  0
  4  7  1  0  0  0  0
 15 17  1  0  0  0  0
 29 32  1  0  0  0  0
 31 33  1  0  0  0  0
M  END
>  <MolRegNo>
1567815

>  <m>
=

>  <Value>
710

>  <Unit>
nM

>  <Type>
IC50

>  <pValue>
6.15

>  <Ligand Efficiency>
0

>  <Binding Efficiency>
0

>  <Surface Efficiency>
0

>  <Assay Index>
780410

>  <Assay Category>


>  <Assay Organism>
Homo sapiens

>  <Target ID>
17045

>  <Target Name>
Cytochrome P450 3A4

>  <Target Organism>
Homo sapiens

>  <Target Description>
Target is a single protein chain

>  <Sequence Accession>
P08684

>  <Reference>
Bioorg Med Chem Lett 23 (13), 3841-3847 (2013)

>  <Pubmed ID>
23726345

>  <DOI>
10.1016/j.bmcl.2013.04.077

$$$$
1567814
Actelion Java MolfileCreator 1.0

 32 35  0  0  0  0  0  0  0  0999 V2000
    0.0000   -0.0000   -0.0000 S   0  0  0  0  0  0  0  0  0  0  0  0
    0.9893    1.1443   -0.0000 C   0  0  0  0  0  0  0  0  0  0  0  0
   -1.3827    0.6198   -0.0000 C   0  0  0  0  0  0  0  0  0  0  0  0
    0.2265    2.4554   -0.0000 N   0  0  0  0  0  0  0  0  0  0  0  0
    2.4673    1.0012   -0.0000 N   0  0  0  0  0  0  0  0  0  0  0  0
   -2.6938   -0.1192   -0.0000 C   0  0  0  0  0  0  0  0  0  0  0  0
   -1.2396    2.1217   -0.0000 C   0  0  0  0  0  0  0  0  0  0  0  0
    3.0752   -0.3576   -0.0000 C   0  0  0  0  0  0  0  0  0  0  0  0
   -2.7057   -1.6211   -0.0000 C   0  0  0  0  0  0  0  0  0  0  0  0
   -4.0169    0.6437   -0.0000 C   0  0  0  0  0  0  0  0  0  0  0  0
    2.1813   -1.5734   -0.0000 O   0  0  0  0  0  0  0  0  0  0  0  0
    4.5652   -0.5006   -0.0000 C   0  0  0  0  0  0  0  0  0  0  0  0
   -4.0169   -2.3601   -0.0000 N   0  0  0  0  0  0  0  0  0  0  0  0
   -5.3280   -0.0954   -0.0000 C   0  0  0  0  0  0  0  0  0  0  0  0
    5.1611   -1.8594   -0.0000 N   0  0  0  0  0  0  0  0  0  0  0  0
   -5.3280   -1.5972   -0.0000 C   0  0  0  0  0  0  0  0  0  0  0  0
    4.2672   -3.0752   -0.0000 C   0  0  0  0  0  0  0  0  0  0  0  0
    6.6392   -2.0025   -0.0000 C   0  0  0  0  0  0  0  0  0  0  0  0
   -6.6392   -2.3362   -0.0000 N   0  0  0  0  0  0  0  0  0  0  0  0
    2.7653   -2.9084   -0.0000 O   0  0  0  0  0  0  0  0  0  0  0  0
    4.8632   -4.4341   -0.0000 C   0  0  0  0  0  0  0  0  0  0  0  0
    7.4974   -0.7748   -0.0000 C   0  0  0  0  0  0  0  0  0  0  0  0
    6.3412   -4.5652   -0.0000 C   0  0  0  0  0  0  0  0  0  0  0  0
    3.9692   -5.6379   -0.0000 C   0  0  0  0  0  0  0  0  0  0  0  0
    8.9754   -0.9178   -0.0000 C   0  0  0  0  0  0  0  0  0  0  0  0
    6.8656    0.5841   -0.0000 C   0  0  0  0  0  0  0  0  0  0  0  0
    6.9491   -5.9121   -0.0000 C   0  0  0  0  0  0  0  0  0  0  0  0
    4.5771   -6.9967   -0.0000 C   0  0  0  0  0  0  0  0  0  0  0  0
    9.8336    0.3099   -0.0000 C   0  0  0  0  0  0  0  0  0  0  0  0
    7.7238    1.8118   -0.0000 C   0  0  0  0  0  0  0  0  0  0  0  0
    6.0551   -7.1279   -0.0000 N   0  0  0  0  0  0  0  0  0  0  0  0
    9.2019    1.6926   -0.0000 C   0  0  0  0  0  0  0  0  0  0  0  0
  1  2  1  0  0  0  0
  1  3  1  0  0  0  0
  2  4  2  0  0  0  0
  2  5  1  0  0  0  0
  3  6  1  0  0  0  0
  3  7  2  0  0  0  0
  5  8  1  0  0  0  0
  6  9  2  0  0  0  0
  6 10  1  0  0  0  0
  8 11  2  0  0  0  0
  8 12  1  0  0  0  0
  9 13  1  0  0  0  0
 10 14  2  0  0  0  0
 12 15  1  0  0  0  0
 13 16  2  0  0  0  0
 15 17  1  0  0  0  0
 15 18  1  0  0  0  0
 16 19  1  0  0  0  0
 17 20  2  0  0  0  0
 17 21  1  0  0  0  0
 18 22  1  0  0  0  0
 21 23  2  0  0  0  0
 21 24  1  0  0  0  0
 22 25  2  0  0  0  0
 22 26  1  0  0  0  0
 23 27  1  0  0  0  0
 24 28  2  0  0  0  0
 25 29  1  0  0  0  0
 26 30  2  0  0  0  0
 27 31  2  0  0  0  0
 29 32  2  0  0  0  0
  4  7  1  0  0  0  0
 14 16  1  0  0  0  0
 28 31  1  0  0  0  0
 30 32  1  0  0  0  0
M  END
>  <MolRegNo>
1567814

>  <m>
=

>  <Value>
1800

>  <Unit>
nM

>  <Type>
IC50

>  <pValue>
5.75

>  <Ligand Efficiency>
0

>  <Binding Efficiency>
0

>  <Surface Efficiency>
0

>  <Assay Index>
780410

>  <Assay Category>


>  <Assay Organism>
Homo sapiens

>  <Target ID>
17045

>  <Target Name>
Cytochrome P450 3A4

>  <Target Organism>
Homo sapiens

>  <Target Description>
Target is a single protein chain

>  <Sequence Accession>
P08684

>  <Reference>
Bioorg Med Chem Lett 23 (13), 3841-3847 (2013)

>  <Pubmed ID>
23726345

>  <DOI>
10.1016/j.bmcl.2013.04.077

$$$$
1567813
Actelion Java MolfileCreator 1.0

 32 35  0  0  0  0  0  0  0  0999 V2000
    0.0000   -0.0000   -0.0000 S   0  0  0  0  0  0  0  0  0  0  0  0
    0.9882    1.1430   -0.0000 C   0  0  0  0  0  0  0  0  0  0  0  0
   -1.3811    0.6191   -0.0000 C   0  0  0  0  0  0  0  0  0  0  0  0
    0.2262    2.4527   -0.0000 N   0  0  0  0  0  0  0  0  0  0  0  0
    2.4765    1.0001   -0.0000 N   0  0  0  0  0  0  0  0  0  0  0  0
   -2.6908   -0.1191   -0.0000 C   0  0  0  0  0  0  0  0  0  0  0  0
   -1.2383    2.1312   -0.0000 C   0  0  0  0  0  0  0  0  0  0  0  0
    3.0837   -0.3572   -0.0000 C   0  0  0  0  0  0  0  0  0  0  0  0
   -4.0124    0.6429   -0.0000 C   0  0  0  0  0  0  0  0  0  0  0  0
   -2.7027   -1.6193   -0.0000 C   0  0  0  0  0  0  0  0  0  0  0  0
    2.1908   -1.5716   -0.0000 O   0  0  0  0  0  0  0  0  0  0  0  0
    4.5720   -0.5001   -0.0000 C   0  0  0  0  0  0  0  0  0  0  0  0
   -5.3221   -0.0953   -0.0000 C   0  0  0  0  0  0  0  0  0  0  0  0
   -4.0124   -2.3575   -0.0000 C   0  0  0  0  0  0  0  0  0  0  0  0
    5.1673   -1.8574   -0.0000 N   0  0  0  0  0  0  0  0  0  0  0  0
   -5.3340   -1.5954   -0.0000 C   0  0  0  0  0  0  0  0  0  0  0  0
    4.2744   -3.0718   -0.0000 C   0  0  0  0  0  0  0  0  0  0  0  0
    6.6556   -1.7979   -0.0000 C   0  0  0  0  0  0  0  0  0  0  0  0
   -6.6437   -2.3336   -0.0000 N   0  0  0  0  0  0  0  0  0  0  0  0
    2.7623   -2.9051   -0.0000 O   0  0  0  0  0  0  0  0  0  0  0  0
    4.8697   -4.4291   -0.0000 C   0  0  0  0  0  0  0  0  0  0  0  0
    7.3462   -0.4643   -0.0000 C   0  0  0  0  0  0  0  0  0  0  0  0
    6.3461   -4.5601   -0.0000 C   0  0  0  0  0  0  0  0  0  0  0  0
    3.9767   -5.6317   -0.0000 C   0  0  0  0  0  0  0  0  0  0  0  0
    8.8226   -0.4167   -0.0000 C   0  0  0  0  0  0  0  0  0  0  0  0
    6.5485    0.8096   -0.0000 C   0  0  0  0  0  0  0  0  0  0  0  0
    6.9533   -5.9174   -0.0000 C   0  0  0  0  0  0  0  0  0  0  0  0
    4.5839   -6.9890   -0.0000 C   0  0  0  0  0  0  0  0  0  0  0  0
    9.5131    0.9049   -0.0000 C   0  0  0  0  0  0  0  0  0  0  0  0
    7.2390    2.1431   -0.0000 C   0  0  0  0  0  0  0  0  0  0  0  0
    6.0603   -7.1319   -0.0000 N   0  0  0  0  0  0  0  0  0  0  0  0
    8.7154    2.1908   -0.0000 C   0  0  0  0  0  0  0  0  0  0  0  0
  1  2  1  0  0  0  0
  1  3  1  0  0  0  0
  2  4  2  0  0  0  0
  2  5  1  0  0  0  0
  3  6  1  0  0  0  0
  3  7  2  0  0  0  0
  5  8  1  0  0  0  0
  6  9  2  0  0  0  0
  6 10  1  0  0  0  0
  8 11  2  0  0  0  0
  8 12  1  0  0  0  0
  9 13  1  0  0  0  0
 10 14  2  0  0  0  0
 12 15  1  0  0  0  0
 13 16  2  0  0  0  0
 15 17  1  0  0  0  0
 15 18  1  0  0  0  0
 16 19  1  0  0  0  0
 17 20  2  0  0  0  0
 17 21  1  0  0  0  0
 18 22  1  0  0  0  0
 21 23  2  0  0  0  0
 21 24  1  0  0  0  0
 22 25  2  0  0  0  0
 22 26  1  0  0  0  0
 23 27  1  0  0  0  0
 24 28  2  0  0  0  0
 25 29  1  0  0  0  0
 26 30  2  0  0  0  0
 27 31  2  0  0  0  0
 29 32  2  0  0  0  0
  4  7  1  0  0  0  0
 14 16  1  0  0  0  0
 28 31  1  0  0  0  0
 30 32  1  0  0  0  0
M  END
>  <MolRegNo>
1567813

>  <m>
=

>  <Value>
500

>  <Unit>
nM

>  <Type>
IC50

>  <pValue>
6.3

>  <Ligand Efficiency>
0

>  <Binding Efficiency>
0

>  <Surface Efficiency>
0

>  <Assay Index>
780410

>  <Assay Category>


>  <Assay Organism>
Homo sapiens

>  <Target ID>
17045

>  <Target Name>
Cytochrome P450 3A4

>  <Target Organism>
Homo sapiens

>  <Target Description>
Target is a single protein chain

>  <Sequence Accession>
P08684

>  <Reference>
Bioorg Med Chem Lett 23 (13), 3841-3847 (2013)

>  <Pubmed ID>
23726345

>  <DOI>
10.1016/j.bmcl.2013.04.077

$$$$
1567926
Actelion Java MolfileCreator 1.0

 47 53  0  0  0  0  0  0  0  0999 V2000
    0.0000   -0.0000   -0.0000 O   0  0  0  0  0  0  0  0  0  0  0  0
   -1.3161   -0.7351   -0.0000 C   0  0  0  0  0  0  0  0  0  0  0  0
   -2.6322    0.0237   -0.0000 N   0  0  0  0  0  0  0  0  0  0  0  0
   -1.3280   -2.2291   -0.0000 C   0  0  0  0  0  0  0  0  0  0  0  0
   -3.9484   -0.7114   -0.0000 C   0  0  0  0  0  0  0  0  0  0  0  0
   -2.6441   -2.9642   -0.0000 C   0  0  0  0  0  0  0  0  0  0  0  0
   -0.0356   -2.9761   -0.0000 C   0  0  0  0  0  0  0  0  0  0  0  0
   -3.9602   -2.2054   -0.0000 C   0  0  0  0  0  0  0  0  0  0  0  0
   -5.2645    0.0474   -0.0000 C   0  0  0  0  0  0  0  0  0  0  0  0
    1.2568   -2.2172   -0.0000 C   0  0  0  0  0  0  0  0  0  0  0  0
   -0.0474   -4.4701   -0.0000 C   0  0  0  0  0  0  0  0  0  0  0  0
   -5.2763   -2.9405   -0.0000 C   0  0  0  0  0  0  0  0  0  0  0  0
   -6.5806   -0.6877   -0.0000 C   0  0  0  0  0  0  0  0  0  0  0  0
    2.5492   -2.9524   -0.0000 C   0  0  0  0  0  0  0  0  0  0  0  0
    1.2450   -5.2052   -0.0000 C   0  0  0  0  0  0  0  0  0  0  0  0
   -6.5925   -2.1817   -0.0000 C   0  0  0  0  0  0  0  0  0  0  0  0
    2.5374   -4.4464   -0.0000 N   0  0  0  0  0  0  0  0  0  0  0  0
    3.8298   -5.1815   -0.0000 C   0  0  0  0  0  0  0  0  0  0  0  0
    5.1222   -4.4226   -0.0000 O   0  0  0  0  0  0  0  0  0  0  0  0
    3.8179   -6.6755   -0.0000 N   0  0  0  0  0  0  0  0  0  0  0  0
    5.1103   -7.4106   -0.0000 C   0  0  0  0  0  0  0  0  0  0  0  0
    5.0985   -8.9046   -0.0000 C   0  0  0  0  0  0  0  0  0  0  0  0
    6.4027   -6.6517   -0.0000 C   0  0  0  0  0  0  0  0  0  0  0  0
    6.3909   -9.6397   -0.0000 O   0  0  0  0  0  0  0  0  0  0  0  0
    3.7824   -9.6397   -0.0000 N   0  0  0  0  0  0  0  0  0  0  0  0
    7.6952   -7.3869   -0.0000 C   0  0  0  0  0  0  0  0  0  0  0  0
    2.4662   -8.8809   -0.0000 C   0  0  0  0  0  0  0  0  0  0  0  0
    3.7705  -11.1337   -0.0000 C   0  0  0  0  0  0  0  0  0  0  0  0
    8.9876   -6.6280   -0.0000 C   0  0  0  0  0  0  0  0  0  0  0  0
    7.6833   -8.8809   -0.0000 C   0  0  0  0  0  0  0  0  0  0  0  0
    1.1501   -9.6160   -0.0000 C   0  0  0  0  0  0  0  0  0  0  0  0
    2.4544  -11.8688   -0.0000 C   0  0  0  0  0  0  0  0  0  0  0  0
   10.2800   -7.3632   -0.0000 C   0  0  0  0  0  0  0  0  0  0  0  0
    8.9757   -9.6160   -0.0000 C   0  0  0  0  0  0  0  0  0  0  0  0
    1.1383  -11.1100   -0.0000 N   0  0  0  0  0  0  0  0  0  0  0  0
   10.2681   -8.8571   -0.0000 C   0  0  0  0  0  0  0  0  0  0  0  0
   11.5724   -6.6043   -0.0000 C   0  0  0  0  0  0  0  0  0  0  0  0
    9.2721  -11.0744   -0.0000 C   0  0  0  0  0  0  0  0  0  0  0  0
   -0.1779  -11.8451   -0.0000 C   0  0  0  0  0  0  0  0  0  0  0  0
   11.3708   -9.8531   -0.0000 N   0  0  0  0  0  0  0  0  0  0  0  0
   10.7542  -11.2167   -0.0000 N   0  0  0  0  0  0  0  0  0  0  0  0
   -1.4940  -11.0862   -0.0000 C   0  0  0  0  0  0  0  0  0  0  0  0
   -0.1897  -13.3391   -0.0000 C   0  0  0  0  0  0  0  0  0  0  0  0
   -2.8101  -11.8214   -0.0000 C   0  0  0  0  0  0  0  0  0  0  0  0
   -1.5058  -14.0742   -0.0000 C   0  0  0  0  0  0  0  0  0  0  0  0
   -2.8220  -13.3153   -0.0000 N   0  0  0  0  0  0  0  0  0  0  0  0
   -4.0906  -14.1216   -0.0000 C   0  0  0  0  0  0  0  0  0  0  0  0
  1  2  2  0  0  0  0
  2  3  1  0  0  0  0
  2  4  1  0  0  0  0
  3  5  1  0  0  0  0
  4  6  2  0  0  0  0
  4  7  1  0  0  0  0
  5  8  2  0  0  0  0
  5  9  1  0  0  0  0
  7 10  1  0  0  0  0
  7 11  1  0  0  0  0
  8 12  1  0  0  0  0
  9 13  2  0  0  0  0
 10 14  1  0  0  0  0
 11 15  1  0  0  0  0
 12 16  2  0  0  0  0
 14 17  1  0  0  0  0
 17 18  1  0  0  0  0
 18 19  2  0  0  0  0
 18 20  1  0  0  0  0
 21 20  1  1  0  0  0
 21 22  1  0  0  0  0
 21 23  1  0  0  0  0
 22 24  2  0  0  0  0
 22 25  1  0  0  0  0
 23 26  1  0  0  0  0
 25 27  1  0  0  0  0
 25 28  1  0  0  0  0
 26 29  2  0  0  0  0
 26 30  1  0  0  0  0
 27 31  1  0  0  0  0
 28 32  1  0  0  0  0
 29 33  1  0  0  0  0
 30 34  2  0  0  0  0
 31 35  1  0  0  0  0
 33 36  2  0  0  0  0
 33 37  1  0  0  0  0
 34 38  1  0  0  0  0
 35 39  1  0  0  0  0
 36 40  1  0  0  0  0
 38 41  2  0  0  0  0
 39 42  1  0  0  0  0
 39 43  1  0  0  0  0
 42 44  1  0  0  0  0
 43 45  1  0  0  0  0
 44 46  1  0  0  0  0
 46 47  1  0  0  0  0
  6  8  1  0  0  0  0
 13 16  1  0  0  0  0
 15 17  1  0  0  0  0
 32 35  1  0  0  0  0
 34 36  1  0  0  0  0
 40 41  1  0  0  0  0
 45 46  1  0  0  0  0
M  END
>  <MolRegNo>
1567926

>  <m>
=

>  <Value>
24000

>  <Unit>
nM

>  <Type>
IC50

>  <pValue>
4.62

>  <Ligand Efficiency>
0

>  <Binding Efficiency>
0

>  <Surface Efficiency>
0

>  <Assay Index>
782936

>  <Assay Category>


>  <Assay Organism>
Homo sapiens

>  <Target ID>
17045

>  <Target Name>
Cytochrome P450 3A4

>  <Target Organism>
Homo sapiens

>  <Target Description>
Target is a single protein chain

>  <Sequence Accession>
P08684

>  <Reference>
Bioorg Med Chem Lett 23 (11), 3157-3161 (2013)

>  <Pubmed ID>
23632269

>  <DOI>
10.1016/j.bmcl.2013.04.012

$$$$
1570164
Actelion Java MolfileCreator 1.0

 40 44  0  0  0  0  0  0  0  0999 V2000
    0.0000   -0.0000   -0.0000 F   0  0  0  0  0  0  0  0  0  0  0  0
   -0.0119    1.5071   -0.0000 C   0  0  0  0  0  0  0  0  0  0  0  0
    1.2697    2.2665   -0.0000 F   0  0  0  0  0  0  0  0  0  0  0  0
    1.2697    0.7713   -0.0000 F   0  0  0  0  0  0  0  0  0  0  0  0
   -1.3172    2.2665   -0.0000 C   0  0  0  0  0  0  0  0  0  0  0  0
   -1.3291    3.7854   -0.0000 C   0  0  0  0  0  0  0  0  0  0  0  0
   -2.6344    1.5308   -0.0000 C   0  0  0  0  0  0  0  0  0  0  0  0
   -2.6344    4.5449   -0.0000 C   0  0  0  0  0  0  0  0  0  0  0  0
   -3.9397    2.2903   -0.0000 C   0  0  0  0  0  0  0  0  0  0  0  0
   -3.9397    3.8092   -0.0000 C   0  0  0  0  0  0  0  0  0  0  0  0
   -2.6463    6.0520   -0.0000 C   0  0  0  0  0  0  0  0  0  0  0  0
   -5.2450    1.5545   -0.0000 C   0  0  0  0  0  0  0  0  0  0  0  0
   -1.3647    6.8114   -0.0000 F   0  0  0  0  0  0  0  0  0  0  0  0
   -3.9516    6.8114   -0.0000 F   0  0  0  0  0  0  0  0  0  0  0  0
   -2.6700    7.5709   -0.0000 F   0  0  0  0  0  0  0  0  0  0  0  0
   -5.2569    0.0712   -0.0000 O   0  0  0  0  0  0  0  0  0  0  0  0
   -6.5504    2.3140   -0.0000 C   0  0  0  0  0  0  0  0  0  0  0  0
   -6.5622   -0.6645   -0.0000 C   0  0  0  0  0  0  0  0  0  0  0  0
   -6.5622    3.8210   -0.0000 O   0  0  0  0  0  0  0  0  0  0  0  0
   -6.5860   -2.1479   -0.0000 C   0  0  0  0  0  0  0  0  0  0  0  0
   -7.8794    0.0949   -0.0000 C   0  0  0  0  0  0  0  0  0  0  0  0
   -5.3044   -2.8954   -0.0000 C   0  0  0  0  0  0  0  0  0  0  0  0
   -7.9032   -2.8836   -0.0000 C   0  0  0  0  0  0  0  0  0  0  0  0
   -9.1847   -0.6289   -0.0000 C   0  0  0  0  0  0  0  0  0  0  0  0
   -5.3281   -4.3788   -0.0000 C   0  0  0  0  0  0  0  0  0  0  0  0
   -4.0228   -2.1360   -0.0000 C   0  0  0  0  0  0  0  0  0  0  0  0
   -9.2085   -2.1123   -0.0000 C   0  0  0  0  0  0  0  0  0  0  0  0
   -8.2354   -4.3432   -0.0000 C   0  0  0  0  0  0  0  0  0  0  0  0
   -4.0465   -5.1264   -0.0000 C   0  0  0  0  0  0  0  0  0  0  0  0
   -6.6453   -5.1026   -0.0000 C   0  0  0  0  0  0  0  0  0  0  0  0
   -2.7412   -2.8717   -0.0000 C   0  0  0  0  0  0  0  0  0  0  0  0
  -10.3477   -3.0972   -0.0000 C   0  0  0  0  0  0  0  0  0  0  0  0
   -9.7425   -4.4737   -0.0000 N   0  0  0  0  0  0  0  0  0  0  0  0
   -2.7531   -4.3669   -0.0000 C   0  0  0  0  0  0  0  0  0  0  0  0
  -10.5138   -5.7553   -0.0000 C   0  0  0  0  0  0  0  0  0  0  0  0
   -9.9323   -7.1200   -0.0000 O   0  0  0  0  0  0  0  0  0  0  0  0
  -12.0209   -5.8858   -0.0000 N   0  0  0  0  0  0  0  0  0  0  0  0
  -11.0597   -8.1049   -0.0000 C   0  0  0  0  0  0  0  0  0  0  0  0
  -12.3531   -7.3336   -0.0000 C   0  0  0  0  0  0  0  0  0  0  0  0
  -13.7415   -7.9150   -0.0000 O   0  0  0  0  0  0  0  0  0  0  0  0
  1  2  1  0  0  0  0
  2  3  1  0  0  0  0
  2  4  1  0  0  0  0
  2  5  1  0  0  0  0
  5  6  2  0  0  0  0
  5  7  1  0  0  0  0
  6  8  1  0  0  0  0
  7  9  2  0  0  0  0
  8 10  2  0  0  0  0
  8 11  1  0  0  0  0
  9 12  1  0  0  0  0
 11 13  1  0  0  0  0
 11 14  1  0  0  0  0
 11 15  1  0  0  0  0
 12 16  1  6  0  0  0
 12 17  1  0  0  0  0
 18 16  1  6  0  0  0
 17 19  1  0  0  0  0
 18 20  1  0  0  0  0
 18 21  1  0  0  0  0
 20 22  1  1  0  0  0
 20 23  1  0  0  0  0
 21 24  1  0  0  0  0
 22 25  2  0  0  0  0
 22 26  1  0  0  0  0
 23 27  1  0  0  0  0
 23 28  1  6  0  0  0
 25 29  1  0  0  0  0
 25 30  1  0  0  0  0
 26 31  2  0  0  0  0
 27 32  1  1  0  0  0
 28 33  1  0  0  0  0
 29 34  2  0  0  0  0
 33 35  1  0  0  0  0
 35 36  1  0  0  0  0
 35 37  2  0  0  0  0
 36 38  1  0  0  0  0
 37 39  1  0  0  0  0
 39 40  2  0  0  0  0
  9 10  1  0  0  0  0
 24 27  1  0  0  0  0
 31 34  1  0  0  0  0
 32 33  1  0  0  0  0
 38 39  1  0  0  0  0
M  END
>  <MolRegNo>
1570164

>  <m>
=

>  <Value>
15000

>  <Unit>
nM

>  <Type>
IC50

>  <pValue>
4.82

>  <Ligand Efficiency>
0

>  <Binding Efficiency>
0

>  <Surface Efficiency>
0

>  <Assay Index>
783614

>  <Assay Category>


>  <Assay Organism>
Homo sapiens

>  <Target ID>
17045

>  <Target Name>
Cytochrome P450 3A4

>  <Target Organism>
Homo sapiens

>  <Target Description>
Target is a single protein chain

>  <Sequence Accession>
P08684

>  <Reference>
J Med Chem 56 (14), 5940-5948 (2013)

>  <Pubmed ID>
23808489

>  <DOI>
10.1021/jm400751p

$$$$
1571425
Actelion Java MolfileCreator 1.0

 49 54  0  0  0  0  0  0  0  0999 V2000
    0.0000   -0.0000   -0.0000 O   0  0  0  0  0  0  0  0  0  0  0  0
   -0.0238    1.5099   -0.0000 C   0  0  0  0  0  0  0  0  0  0  0  0
   -1.3434    2.2589   -0.0000 N   0  0  0  0  0  0  0  0  0  0  0  0
    1.2602    2.2826   -0.0000 N   0  0  0  0  0  0  0  0  0  0  0  0
   -2.6512    1.5099   -0.0000 C   0  0  0  0  0  0  0  0  0  0  0  0
    2.5561    1.5574   -0.0000 C   0  0  0  0  0  0  0  0  0  0  0  0
   -2.6512    0.0238   -0.0000 C   0  0  0  0  0  0  0  0  0  0  0  0
   -3.9708    2.2707   -0.0000 C   0  0  0  0  0  0  0  0  0  0  0  0
    3.8995    2.1875   -0.0000 N   0  0  0  0  0  0  0  0  0  0  0  0
    2.6987    0.0832   -0.0000 C   0  0  0  0  0  0  0  0  0  0  0  0
   -3.9589   -0.7252   -0.0000 C   0  0  0  0  0  0  0  0  0  0  0  0
   -5.2667    1.5218   -0.0000 C   0  0  0  0  0  0  0  0  0  0  0  0
    4.8982    1.0938   -0.0000 N   0  0  0  0  0  0  0  0  0  0  0  0
    4.1848    3.6617   -0.0000 C   0  0  0  0  0  0  0  0  0  0  0  0
    4.1611   -0.2021   -0.0000 C   0  0  0  0  0  0  0  0  0  0  0  0
   -5.2667    0.0357   -0.0000 C   0  0  0  0  0  0  0  0  0  0  0  0
    3.0554    4.6604   -0.0000 C   0  0  0  0  0  0  0  0  0  0  0  0
    5.5996    4.1492   -0.0000 C   0  0  0  0  0  0  0  0  0  0  0  0
    4.7674   -1.5574   -0.0000 C   0  0  0  0  0  0  0  0  0  0  0  0
   -6.5745   -0.7133   -0.0000 N   0  0  0  0  0  0  0  0  0  0  0  0
    3.3407    6.1346   -0.0000 C   0  0  0  0  0  0  0  0  0  0  0  0
    5.8849    5.6353   -0.0000 C   0  0  0  0  0  0  0  0  0  0  0  0
    3.8757   -2.7701   -0.0000 C   0  0  0  0  0  0  0  0  0  0  0  0
    6.2535   -1.6882   -0.0000 C   0  0  0  0  0  0  0  0  0  0  0  0
    5.4926   -2.8414   -0.0000 C   0  0  0  0  0  0  0  0  0  0  0  0
   -6.5745   -2.1994   -0.0000 C   0  0  0  0  0  0  0  0  0  0  0  0
    2.1994    7.1332   -0.0000 N   0  0  0  0  0  0  0  0  0  0  0  0
    4.7555    6.6339   -0.0000 C   0  0  0  0  0  0  0  0  0  0  0  0
   -5.2786   -2.9246   -0.0000 N   0  0  0  0  0  0  0  0  0  0  0  0
   -7.8822   -2.9365   -0.0000 C   0  0  0  0  0  0  0  0  0  0  0  0
   -5.2786   -4.4226   -0.0000 C   0  0  0  0  0  0  0  0  0  0  0  0
   -7.8941   -4.4345   -0.0000 C   0  0  0  0  0  0  0  0  0  0  0  0
   -9.1900   -2.1756   -0.0000 C   0  0  0  0  0  0  0  0  0  0  0  0
   -6.5864   -5.1597   -0.0000 N   0  0  0  0  0  0  0  0  0  0  0  0
   -9.2019   -5.1835   -0.0000 C   0  0  0  0  0  0  0  0  0  0  0  0
  -10.4977   -2.9127   -0.0000 C   0  0  0  0  0  0  0  0  0  0  0  0
  -10.5096   -4.4226   -0.0000 C   0  0  0  0  0  0  0  0  0  0  0  0
  -11.7936   -2.1519   -0.0000 N   0  0  0  0  0  0  0  0  0  0  0  0
  -11.7936   -0.6420   -0.0000 C   0  0  0  0  0  0  0  0  0  0  0  0
  -13.1014    0.1308   -0.0000 O   0  0  0  0  0  0  0  0  0  0  0  0
  -10.4977    0.1189   -0.0000 C   0  0  0  0  0  0  0  0  0  0  0  0
  -10.4977    1.6288   -0.0000 C   0  0  0  0  0  0  0  0  0  0  0  0
   -9.2019    2.3896   -0.0000 N   0  0  0  0  0  0  0  0  0  0  0  0
   -7.9179    1.6525   -0.0000 C   0  0  0  0  0  0  0  0  0  0  0  0
   -9.2138    3.9114   -0.0000 C   0  0  0  0  0  0  0  0  0  0  0  0
   -6.6339    2.4015   -0.0000 C   0  0  0  0  0  0  0  0  0  0  0  0
   -7.9179    4.6604   -0.0000 C   0  0  0  0  0  0  0  0  0  0  0  0
   -6.6339    3.9114   -0.0000 N   0  0  0  0  0  0  0  0  0  0  0  0
   -5.3380    4.6604   -0.0000 C   0  0  0  0  0  0  0  0  0  0  0  0
  1  2  2  0  0  0  0
  2  3  1  0  0  0  0
  2  4  1  0  0  0  0
  3  5  1  0  0  0  0
  4  6  1  0  0  0  0
  5  7  2  0  0  0  0
  5  8  1  0  0  0  0
  6  9  1  0  0  0  0
  6 10  2  0  0  0  0
  7 11  1  0  0  0  0
  8 12  2  0  0  0  0
  9 13  1  0  0  0  0
  9 14  1  0  0  0  0
 10 15  1  0  0  0  0
 11 16  2  0  0  0  0
 14 17  2  0  0  0  0
 14 18  1  0  0  0  0
 15 19  1  0  0  0  0
 16 20  1  0  0  0  0
 17 21  1  0  0  0  0
 18 22  2  0  0  0  0
 19 23  1  0  0  0  0
 19 24  1  0  0  0  0
 19 25  1  0  0  0  0
 20 26  1  0  0  0  0
 21 27  1  0  0  0  0
 21 28  2  0  0  0  0
 26 29  2  0  0  0  0
 26 30  1  0  0  0  0
 29 31  1  0  0  0  0
 30 32  1  0  0  0  0
 30 33  2  0  0  0  0
 31 34  2  0  0  0  0
 32 35  2  0  0  0  0
 33 36  1  0  0  0  0
 35 37  1  0  0  0  0
 36 38  1  0  0  0  0
 38 39  1  0  0  0  0
 39 40  2  0  0  0  0
 39 41  1  0  0  0  0
 41 42  1  0  0  0  0
 42 43  1  0  0  0  0
 43 44  1  0  0  0  0
 43 45  1  0  0  0  0
 44 46  1  0  0  0  0
 45 47  1  0  0  0  0
 46 48  1  0  0  0  0
 48 49  1  0  0  0  0
 12 16  1  0  0  0  0
 13 15  2  0  0  0  0
 22 28  1  0  0  0  0
 32 34  1  0  0  0  0
 36 37  2  0  0  0  0
 47 48  1  0  0  0  0
M  END
>  <MolRegNo>
1571425

>  <m>
=

>  <Value>
1950

>  <Unit>
nM

>  <Type>
IC50

>  <pValue>
5.71

>  <Ligand Efficiency>
0

>  <Binding Efficiency>
0

>  <Surface Efficiency>
0

>  <Assay Index>
784000

>  <Assay Category>


>  <Assay Organism>
Homo sapiens

>  <Target ID>
17045

>  <Target Name>
Cytochrome P450 3A4

>  <Target Organism>
Homo sapiens

>  <Target Description>
Target is a single protein chain

>  <Sequence Accession>
P08684

>  <Reference>
J Med Chem 56 (14), 5757-5772 (2013)

>  <Pubmed ID>
23773153

>  <DOI>
10.1021/jm4004076

$$$$
1571421
Actelion Java MolfileCreator 1.0

 37 41  0  0  0  0  0  0  0  0999 V2000
    0.0000   -0.0000   -0.0000 O   0  0  0  0  0  0  0  0  0  0  0  0
   -0.0238    1.5100   -0.0000 C   0  0  0  0  0  0  0  0  0  0  0  0
   -1.3435    2.2590   -0.0000 N   0  0  0  0  0  0  0  0  0  0  0  0
    1.2603    2.2828   -0.0000 N   0  0  0  0  0  0  0  0  0  0  0  0
   -2.6514    1.5100   -0.0000 C   0  0  0  0  0  0  0  0  0  0  0  0
    2.5563    1.5575   -0.0000 C   0  0  0  0  0  0  0  0  0  0  0  0
   -2.6514    0.0238   -0.0000 C   0  0  0  0  0  0  0  0  0  0  0  0
   -3.9712    2.2709   -0.0000 C   0  0  0  0  0  0  0  0  0  0  0  0
    3.8998    2.1877   -0.0000 N   0  0  0  0  0  0  0  0  0  0  0  0
    2.6990    0.0832   -0.0000 C   0  0  0  0  0  0  0  0  0  0  0  0
   -3.9593   -0.7253   -0.0000 C   0  0  0  0  0  0  0  0  0  0  0  0
   -5.2671    1.5219   -0.0000 C   0  0  0  0  0  0  0  0  0  0  0  0
    4.8986    1.0939   -0.0000 N   0  0  0  0  0  0  0  0  0  0  0  0
    4.1852    3.6620   -0.0000 C   0  0  0  0  0  0  0  0  0  0  0  0
    4.1614   -0.2021   -0.0000 C   0  0  0  0  0  0  0  0  0  0  0  0
   -5.2671    0.0357   -0.0000 C   0  0  0  0  0  0  0  0  0  0  0  0
    3.0557    4.6608   -0.0000 C   0  0  0  0  0  0  0  0  0  0  0  0
    5.6000    4.1495   -0.0000 C   0  0  0  0  0  0  0  0  0  0  0  0
    4.7678   -1.5575   -0.0000 C   0  0  0  0  0  0  0  0  0  0  0  0
   -6.5750   -0.7134   -0.0000 N   0  0  0  0  0  0  0  0  0  0  0  0
    3.3410    6.1351   -0.0000 C   0  0  0  0  0  0  0  0  0  0  0  0
    5.8854    5.6357   -0.0000 C   0  0  0  0  0  0  0  0  0  0  0  0
    3.8760   -2.7703   -0.0000 C   0  0  0  0  0  0  0  0  0  0  0  0
    6.2540   -1.6883   -0.0000 C   0  0  0  0  0  0  0  0  0  0  0  0
    5.4930   -2.8416   -0.0000 C   0  0  0  0  0  0  0  0  0  0  0  0
   -6.5750   -2.1996   -0.0000 C   0  0  0  0  0  0  0  0  0  0  0  0
    2.1996    7.1338   -0.0000 N   0  0  0  0  0  0  0  0  0  0  0  0
    4.7559    6.6344   -0.0000 C   0  0  0  0  0  0  0  0  0  0  0  0
   -5.2790   -2.9249   -0.0000 N   0  0  0  0  0  0  0  0  0  0  0  0
   -7.8829   -2.9368   -0.0000 C   0  0  0  0  0  0  0  0  0  0  0  0
   -5.2790   -4.4230   -0.0000 C   0  0  0  0  0  0  0  0  0  0  0  0
   -7.8948   -4.4349   -0.0000 C   0  0  0  0  0  0  0  0  0  0  0  0
   -9.2026   -2.1758   -0.0000 C   0  0  0  0  0  0  0  0  0  0  0  0
   -6.5869   -5.1601   -0.0000 N   0  0  0  0  0  0  0  0  0  0  0  0
   -9.2145   -5.1839   -0.0000 C   0  0  0  0  0  0  0  0  0  0  0  0
  -10.5105   -2.9130   -0.0000 C   0  0  0  0  0  0  0  0  0  0  0  0
  -10.5224   -4.4230   -0.0000 C   0  0  0  0  0  0  0  0  0  0  0  0
  1  2  2  0  0  0  0
  2  3  1  0  0  0  0
  2  4  1  0  0  0  0
  3  5  1  0  0  0  0
  4  6  1  0  0  0  0
  5  7  2  0  0  0  0
  5  8  1  0  0  0  0
  6  9  1  0  0  0  0
  6 10  2  0  0  0  0
  7 11  1  0  0  0  0
  8 12  2  0  0  0  0
  9 13  1  0  0  0  0
  9 14  1  0  0  0  0
 10 15  1  0  0  0  0
 11 16  2  0  0  0  0
 14 17  2  0  0  0  0
 14 18  1  0  0  0  0
 15 19  1  0  0  0  0
 16 20  1  0  0  0  0
 17 21  1  0  0  0  0
 18 22  2  0  0  0  0
 19 23  1  0  0  0  0
 19 24  1  0  0  0  0
 19 25  1  0  0  0  0
 20 26  1  0  0  0  0
 21 27  1  0  0  0  0
 21 28  2  0  0  0  0
 26 29  2  0  0  0  0
 26 30  1  0  0  0  0
 29 31  1  0  0  0  0
 30 32  1  0  0  0  0
 30 33  2  0  0  0  0
 31 34  2  0  0  0  0
 32 35  2  0  0  0  0
 33 36  1  0  0  0  0
 35 37  1  0  0  0  0
 12 16  1  0  0  0  0
 13 15  2  0  0  0  0
 22 28  1  0  0  0  0
 32 34  1  0  0  0  0
 36 37  2  0  0  0  0
M  END
>  <MolRegNo>
1571421

>  <m>
=

>  <Value>
14800

>  <Unit>
nM

>  <Type>
IC50

>  <pValue>
4.83

>  <Ligand Efficiency>
0

>  <Binding Efficiency>
0

>  <Surface Efficiency>
0

>  <Assay Index>
784000

>  <Assay Category>


>  <Assay Organism>
Homo sapiens

>  <Target ID>
17045

>  <Target Name>
Cytochrome P450 3A4

>  <Target Organism>
Homo sapiens

>  <Target Description>
Target is a single protein chain

>  <Sequence Accession>
P08684

>  <Reference>
J Med Chem 56 (14), 5757-5772 (2013)

>  <Pubmed ID>
23773153

>  <DOI>
10.1021/jm4004076

$$$$
1569403
Actelion Java MolfileCreator 1.0

 35 39  0  0  0  0  0  0  0  0999 V2000
    0.0000   -0.0000   -0.0000 Cl  0  0  0  0  0  0  0  0  0  0  0  0
   -0.0119    1.5157   -0.0000 C   0  0  0  0  0  0  0  0  0  0  0  0
   -1.3247    2.2795   -0.0000 C   0  0  0  0  0  0  0  0  0  0  0  0
    1.2770    2.2795   -0.0000 C   0  0  0  0  0  0  0  0  0  0  0  0
   -2.6375    1.5395   -0.0000 F   0  0  0  0  0  0  0  0  0  0  0  0
   -1.3366    3.8070   -0.0000 C   0  0  0  0  0  0  0  0  0  0  0  0
    1.2650    3.8070   -0.0000 C   0  0  0  0  0  0  0  0  0  0  0  0
    2.5659    1.5395   -0.0000 C   0  0  0  0  0  0  0  0  0  0  0  0
   -0.0477    4.5708   -0.0000 C   0  0  0  0  0  0  0  0  0  0  0  0
    2.5539    4.5828   -0.0000 Cl  0  0  0  0  0  0  0  0  0  0  0  0
    2.5539    0.0477   -0.0000 O   0  0  0  0  0  0  0  0  0  0  0  0
    3.8548    2.3033   -0.0000 C   0  0  0  0  0  0  0  0  0  0  0  0
    3.8429   -0.6922   -0.0000 C   0  0  0  0  0  0  0  0  0  0  0  0
    3.8429    3.8190   -0.0000 C   0  0  0  0  0  0  0  0  0  0  0  0
    3.8190   -2.1840   -0.0000 C   0  0  0  0  0  0  0  0  0  0  0  0
    5.1318    0.0835   -0.0000 C   0  0  0  0  0  0  0  0  0  0  0  0
    3.8190    5.3346   -0.0000 C   0  0  0  0  0  0  0  0  0  0  0  0
    5.1198   -2.9239   -0.0000 N   0  0  0  0  0  0  0  0  0  0  0  0
    2.5062   -2.9239   -0.0000 N   0  0  0  0  0  0  0  0  0  0  0  0
    5.4062    1.5634   -0.0000 O   0  0  0  0  0  0  0  0  0  0  0  0
    6.4207   -0.6445   -0.0000 C   0  0  0  0  0  0  0  0  0  0  0  0
    6.4087   -2.1601   -0.0000 C   0  0  0  0  0  0  0  0  0  0  0  0
    6.8861    1.7424   -0.0000 C   0  0  0  0  0  0  0  0  0  0  0  0
    7.5067    0.3819   -0.0000 C   0  0  0  0  0  0  0  0  0  0  0  0
    8.9627    0.0835   -0.0000 C   0  0  0  0  0  0  0  0  0  0  0  0
   10.0487    1.1099   -0.0000 C   0  0  0  0  0  0  0  0  0  0  0  0
    9.5713   -1.2770   -0.0000 C   0  0  0  0  0  0  0  0  0  0  0  0
   11.3495    0.3938   -0.0000 N   0  0  0  0  0  0  0  0  0  0  0  0
   11.0512   -1.0980   -0.0000 N   0  0  0  0  0  0  0  0  0  0  0  0
   12.0537   -2.1959   -0.0000 C   0  0  0  0  0  0  0  0  0  0  0  0
   13.5096   -1.8498   -0.0000 C   0  0  0  0  0  0  0  0  0  0  0  0
   11.5882   -3.6161   -0.0000 C   0  0  0  0  0  0  0  0  0  0  0  0
   14.5121   -2.9478   -0.0000 C   0  0  0  0  0  0  0  0  0  0  0  0
   12.5907   -4.7141   -0.0000 C   0  0  0  0  0  0  0  0  0  0  0  0
   14.0467   -4.3680   -0.0000 N   0  0  0  0  0  0  0  0  0  0  0  0
  1  2  1  0  0  0  0
  2  3  2  0  0  0  0
  2  4  1  0  0  0  0
  3  5  1  0  0  0  0
  3  6  1  0  0  0  0
  4  7  2  0  0  0  0
  4  8  1  0  0  0  0
  6  9  2  0  0  0  0
  7 10  1  0  0  0  0
  8 11  1  0  0  0  0
  8 12  1  0  0  0  0
 11 13  1  0  0  0  0
 12 14  1  0  0  0  0
 13 15  2  0  0  0  0
 13 16  1  0  0  0  0
 14 17  3  0  0  0  0
 15 18  1  0  0  0  0
 15 19  1  0  0  0  0
 16 20  1  0  0  0  0
 16 21  2  0  0  0  0
 18 22  2  0  0  0  0
 20 23  1  0  0  0  0
 21 24  1  0  0  0  0
 24 25  1  0  0  0  0
 25 26  1  0  0  0  0
 25 27  2  0  0  0  0
 26 28  2  0  0  0  0
 27 29  1  0  0  0  0
 29 30  1  0  0  0  0
 30 31  1  0  0  0  0
 30 32  1  0  0  0  0
 31 33  1  0  0  0  0
 32 34  1  0  0  0  0
 33 35  1  0  0  0  0
  7  9  1  0  0  0  0
 21 22  1  0  0  0  0
 23 24  2  0  0  0  0
 28 29  1  0  0  0  0
 34 35  1  0  0  0  0
M  END
>  <MolRegNo>
1569403

>  <m>
=

>  <Value>
1600

>  <Unit>
nM

>  <Type>
IC50

>  <pValue>
5.8

>  <Ligand Efficiency>
0

>  <Binding Efficiency>
0

>  <Surface Efficiency>
0

>  <Assay Index>
784150

>  <Assay Category>


>  <Assay Organism>
Homo sapiens

>  <Target ID>
17045

>  <Target Name>
Cytochrome P450 3A4

>  <Target Organism>
Homo sapiens

>  <Target Description>
Target is a single protein chain

>  <Sequence Accession>
P08684

>  <Reference>
Bioorg Med Chem Lett 23 (15), 4381-4387 (2013)

>  <Pubmed ID>
23773865

>  <DOI>
10.1016/j.bmcl.2013.05.074

$$$$
1570917
Actelion Java MolfileCreator 1.0

 34 37  0  0  0  0  0  0  0  0999 V2000
    0.0000   -0.0000   -0.0000 F   0  0  0  0  0  0  0  0  0  0  0  0
    1.2895    0.7335   -0.0000 C   0  0  0  0  0  0  0  0  0  0  0  0
    1.3013    2.2359   -0.0000 C   0  0  0  0  0  0  0  0  0  0  0  0
    2.5553   -0.0237   -0.0000 C   0  0  0  0  0  0  0  0  0  0  0  0
    2.5790    2.9812   -0.0000 C   0  0  0  0  0  0  0  0  0  0  0  0
    0.0118    2.9812   -0.0000 C   0  0  0  0  0  0  0  0  0  0  0  0
    3.8448    0.7216   -0.0000 C   0  0  0  0  0  0  0  0  0  0  0  0
    2.5790    4.4837   -0.0000 F   0  0  0  0  0  0  0  0  0  0  0  0
    3.8448    2.2359   -0.0000 C   0  0  0  0  0  0  0  0  0  0  0  0
    0.0000    4.4837   -0.0000 N   0  0  0  0  0  0  0  0  0  0  0  0
    5.1225   -0.0355   -0.0000 F   0  0  0  0  0  0  0  0  0  0  0  0
   -1.3132    5.2290   -0.0000 C   0  0  0  0  0  0  0  0  0  0  0  0
    1.2895    5.2526   -0.0000 C   0  0  0  0  0  0  0  0  0  0  0  0
   -1.3368    6.7433   -0.0000 C   0  0  0  0  0  0  0  0  0  0  0  0
   -2.6145    4.4837   -0.0000 C   0  0  0  0  0  0  0  0  0  0  0  0
    1.2658    6.7669   -0.0000 N   0  0  0  0  0  0  0  0  0  0  0  0
   -0.0592    7.5240   -0.0000 C   0  0  0  0  0  0  0  0  0  0  0  0
   -2.6500    7.4886   -0.0000 C   0  0  0  0  0  0  0  0  0  0  0  0
   -3.9158    5.2408   -0.0000 C   0  0  0  0  0  0  0  0  0  0  0  0
   -0.0828    9.0265   -0.0000 O   0  0  0  0  0  0  0  0  0  0  0  0
   -3.9395    6.7433   -0.0000 C   0  0  0  0  0  0  0  0  0  0  0  0
   -5.2526    7.5004   -0.0000 O   0  0  0  0  0  0  0  0  0  0  0  0
   -5.2881    9.0028   -0.0000 C   0  0  0  0  0  0  0  0  0  0  0  0
   -4.0223    9.7836   -0.0000 N   0  0  0  0  0  0  0  0  0  0  0  0
   -6.6131    9.7481   -0.0000 C   0  0  0  0  0  0  0  0  0  0  0  0
   -4.0578   11.2861   -0.0000 C   0  0  0  0  0  0  0  0  0  0  0  0
   -6.6486   11.2624   -0.0000 C   0  0  0  0  0  0  0  0  0  0  0  0
   -7.9026    8.9910   -0.0000 C   0  0  0  0  0  0  0  0  0  0  0  0
   -5.3709   12.0314   -0.0000 C   0  0  0  0  0  0  0  0  0  0  0  0
   -7.9618   12.0077   -0.0000 O   0  0  0  0  0  0  0  0  0  0  0  0
   -9.2158    9.7245   -0.0000 F   0  0  0  0  0  0  0  0  0  0  0  0
   -7.8908    7.5122   -0.0000 F   0  0  0  0  0  0  0  0  0  0  0  0
   -9.2158    8.2694   -0.0000 F   0  0  0  0  0  0  0  0  0  0  0  0
   -7.9973   13.5102   -0.0000 C   0  0  0  0  0  0  0  0  0  0  0  0
  1  2  1  0  0  0  0
  2  3  2  0  0  0  0
  2  4  1  0  0  0  0
  3  5  1  0  0  0  0
  3  6  1  0  0  0  0
  4  7  2  0  0  0  0
  5  8  1  0  0  0  0
  5  9  2  0  0  0  0
  6 10  1  0  0  0  0
  7 11  1  0  0  0  0
 10 12  1  0  0  0  0
 10 13  1  0  0  0  0
 12 14  2  0  0  0  0
 12 15  1  0  0  0  0
 13 16  2  0  0  0  0
 14 17  1  0  0  0  0
 14 18  1  0  0  0  0
 15 19  2  0  0  0  0
 17 20  2  0  0  0  0
 18 21  2  0  0  0  0
 21 22  1  0  0  0  0
 22 23  1  0  0  0  0
 23 24  2  0  0  0  0
 23 25  1  0  0  0  0
 24 26  1  0  0  0  0
 25 27  2  0  0  0  0
 25 28  1  0  0  0  0
 26 29  2  0  0  0  0
 27 30  1  0  0  0  0
 28 31  1  0  0  0  0
 28 32  1  0  0  0  0
 28 33  1  0  0  0  0
 30 34  1  0  0  0  0
  7  9  1  0  0  0  0
 16 17  1  0  0  0  0
 19 21  1  0  0  0  0
 27 29  1  0  0  0  0
M  END
>  <MolRegNo>
1570917

>  <m>
=

>  <Value>
18000

>  <Unit>
nM

>  <Type>
IC50

>  <pValue>
4.75

>  <Ligand Efficiency>
0

>  <Binding Efficiency>
0

>  <Surface Efficiency>
0

>  <Assay Index>
785851

>  <Assay Category>


>  <Assay Organism>
Homo sapiens

>  <Target ID>
17045

>  <Target Name>
Cytochrome P450 3A4

>  <Target Organism>
Homo sapiens

>  <Target Description>
Target is a single protein chain

>  <Sequence Accession>
P08684

>  <Reference>
Bioorg Med Chem Lett 23 (14), 4132-4140 (2013)

>  <Pubmed ID>
23768906

>  <DOI>
10.1016/j.bmcl.2013.05.037

$$$$
1574092
Actelion Java MolfileCreator 1.0

 34 36  0  0  0  0  0  0  0  0999 V2000
    0.0000   -0.0000   -0.0000 S   0  0  0  0  0  0  0  0  0  0  0  0
    0.7368   -1.2834   -0.0000 O   0  0  0  0  0  0  0  0  0  0  0  0
   -0.7606   -1.2834   -0.0000 O   0  0  0  0  0  0  0  0  0  0  0  0
   -1.3072    0.7606   -0.0000 N   0  0  0  0  0  0  0  0  0  0  0  0
    1.2834    0.7606   -0.0000 C   0  0  0  0  0  0  0  0  0  0  0  0
   -1.3072    2.2698   -0.0000 C   0  0  0  0  0  0  0  0  0  0  0  0
   -2.6144    0.0238   -0.0000 C   0  0  0  0  0  0  0  0  0  0  0  0
    2.5669    0.0238   -0.0000 C   0  0  0  0  0  0  0  0  0  0  0  0
   -2.6144    3.0303   -0.0000 C   0  0  0  0  0  0  0  0  0  0  0  0
   -3.9216    0.7962   -0.0000 C   0  0  0  0  0  0  0  0  0  0  0  0
    2.5550   -1.4617   -0.0000 N   0  0  0  0  0  0  0  0  0  0  0  0
    3.8503    0.7843   -0.0000 C   0  0  0  0  0  0  0  0  0  0  0  0
   -3.9335    2.2935   -0.0000 N   0  0  0  0  0  0  0  0  0  0  0  0
    3.8384   -2.1985   -0.0000 O   0  0  0  0  0  0  0  0  0  0  0  0
    1.2478   -2.1985   -0.0000 C   0  0  0  0  0  0  0  0  0  0  0  0
    5.1337    0.0475   -0.0000 C   0  0  0  0  0  0  0  0  0  0  0  0
   -5.2407    3.0660   -0.0000 C   0  0  0  0  0  0  0  0  0  0  0  0
    1.2359   -3.6839   -0.0000 O   0  0  0  0  0  0  0  0  0  0  0  0
    6.4172    0.8081   -0.0000 C   0  0  0  0  0  0  0  0  0  0  0  0
   -6.5479    2.3292   -0.0000 N   0  0  0  0  0  0  0  0  0  0  0  0
   -5.2407    4.5752   -0.0000 C   0  0  0  0  0  0  0  0  0  0  0  0
    7.7006    0.0713   -0.0000 C   0  0  0  0  0  0  0  0  0  0  0  0
   -7.8551    3.0897   -0.0000 C   0  0  0  0  0  0  0  0  0  0  0  0
   -6.5479    5.3476   -0.0000 C   0  0  0  0  0  0  0  0  0  0  0  0
    7.6887   -1.4260   -0.0000 N   0  0  0  0  0  0  0  0  0  0  0  0
    8.9840    0.8319   -0.0000 N   0  0  0  0  0  0  0  0  0  0  0  0
   -7.8670    4.6109   -0.0000 C   0  0  0  0  0  0  0  0  0  0  0  0
    8.9721   -2.1628   -0.0000 C   0  0  0  0  0  0  0  0  0  0  0  0
   10.2675    0.0951   -0.0000 C   0  0  0  0  0  0  0  0  0  0  0  0
   -9.1742    5.3714   -0.0000 C   0  0  0  0  0  0  0  0  0  0  0  0
   10.2675   -1.4023   -0.0000 C   0  0  0  0  0  0  0  0  0  0  0  0
   -9.1861    6.8806   -0.0000 F   0  0  0  0  0  0  0  0  0  0  0  0
  -10.4933    4.6346   -0.0000 F   0  0  0  0  0  0  0  0  0  0  0  0
  -10.4933    6.1438   -0.0000 F   0  0  0  0  0  0  0  0  0  0  0  0
  1  2  2  0  0  0  0
  1  3  2  0  0  0  0
  1  4  1  0  0  0  0
  1  5  1  0  0  0  0
  4  6  1  0  0  0  0
  4  7  1  0  0  0  0
  5  8  1  0  0  0  0
  6  9  1  0  0  0  0
  7 10  1  0  0  0  0
  8 11  1  6  0  0  0
  8 12  1  0  0  0  0
  9 13  1  0  0  0  0
 11 14  1  0  0  0  0
 11 15  1  0  0  0  0
 12 16  1  0  0  0  0
 13 17  1  0  0  0  0
 15 18  2  0  0  0  0
 16 19  1  0  0  0  0
 17 20  2  0  0  0  0
 17 21  1  0  0  0  0
 19 22  1  0  0  0  0
 20 23  1  0  0  0  0
 21 24  2  0  0  0  0
 22 25  2  0  0  0  0
 22 26  1  0  0  0  0
 23 27  2  0  0  0  0
 25 28  1  0  0  0  0
 26 29  2  0  0  0  0
 27 30  1  0  0  0  0
 28 31  2  0  0  0  0
 30 32  1  0  0  0  0
 30 33  1  0  0  0  0
 30 34  1  0  0  0  0
 10 13  1  0  0  0  0
 24 27  1  0  0  0  0
 29 31  1  0  0  0  0
M  END
>  <MolRegNo>
1574092

>  <m>
=

>  <Value>
1000

>  <Unit>
nM

>  <Type>
IC50

>  <pValue>
6

>  <Ligand Efficiency>
0

>  <Binding Efficiency>
0

>  <Surface Efficiency>
0

>  <Assay Index>
787339

>  <Assay Category>


>  <Assay Organism>
Homo sapiens

>  <Target ID>
17045

>  <Target Name>
Cytochrome P450 3A4

>  <Target Organism>
Homo sapiens

>  <Target Description>
Target is a single protein chain

>  <Sequence Accession>
P08684

>  <Reference>
Bioorg Med Chem Lett 23 (16), 4705-4712 (2013)

>  <Pubmed ID>
23810497

>  <DOI>
10.1016/j.bmcl.2013.05.089

$$$$
1572123
Actelion Java MolfileCreator 1.0

 29 32  0  0  0  0  0  0  0  0999 V2000
    0.0000   -0.0000   -0.0000 S   0  0  0  0  0  0  0  0  0  0  0  0
    0.1548   -1.4767   -0.0000 C   0  0  0  0  0  0  0  0  0  0  0  0
   -1.4886    0.3215   -0.0000 C   0  0  0  0  0  0  0  0  0  0  0  0
   -1.2385   -2.0841   -0.0000 N   0  0  0  0  0  0  0  0  0  0  0  0
    1.4529   -2.2151   -0.0000 N   0  0  0  0  0  0  0  0  0  0  0  0
   -2.2508   -0.9765   -0.0000 C   0  0  0  0  0  0  0  0  0  0  0  0
    2.7391   -1.4529   -0.0000 C   0  0  0  0  0  0  0  0  0  0  0  0
   -3.7632   -1.1194   -0.0000 C   0  0  0  0  0  0  0  0  0  0  0  0
    4.0371   -2.1912   -0.0000 C   0  0  0  0  0  0  0  0  0  0  0  0
   -4.6564    0.1072   -0.0000 C   0  0  0  0  0  0  0  0  0  0  0  0
   -4.3706   -2.4771   -0.0000 C   0  0  0  0  0  0  0  0  0  0  0  0
    4.0133   -3.6799   -0.0000 C   0  0  0  0  0  0  0  0  0  0  0  0
    5.3114   -1.4172   -0.0000 C   0  0  0  0  0  0  0  0  0  0  0  0
   -6.1688   -0.0357   -0.0000 C   0  0  0  0  0  0  0  0  0  0  0  0
   -5.8711   -2.6319   -0.0000 C   0  0  0  0  0  0  0  0  0  0  0  0
    5.2995   -4.4182   -0.0000 C   0  0  0  0  0  0  0  0  0  0  0  0
    6.5976   -2.1436   -0.0000 C   0  0  0  0  0  0  0  0  0  0  0  0
   -6.7881   -1.4053   -0.0000 C   0  0  0  0  0  0  0  0  0  0  0  0
    6.5856   -3.6560   -0.0000 C   0  0  0  0  0  0  0  0  0  0  0  0
    7.8837   -4.3944   -0.0000 C   0  0  0  0  0  0  0  0  0  0  0  0
    7.8718   -5.8830   -0.0000 O   0  0  0  0  0  0  0  0  0  0  0  0
    9.1699   -3.6203   -0.0000 N   0  0  0  0  0  0  0  0  0  0  0  0
   10.4680   -4.3587   -0.0000 C   0  0  0  0  0  0  0  0  0  0  0  0
   11.7422   -3.5846   -0.0000 C   0  0  0  0  0  0  0  0  0  0  0  0
   10.4560   -5.8473   -0.0000 C   0  0  0  0  0  0  0  0  0  0  0  0
   11.7184   -2.0722   -0.0000 N   0  0  0  0  0  0  0  0  0  0  0  0
   13.0403   -4.3110   -0.0000 C   0  0  0  0  0  0  0  0  0  0  0  0
   11.7541   -6.5856   -0.0000 C   0  0  0  0  0  0  0  0  0  0  0  0
   13.0403   -5.8116   -0.0000 C   0  0  0  0  0  0  0  0  0  0  0  0
  1  2  1  0  0  0  0
  1  3  1  0  0  0  0
  2  4  2  0  0  0  0
  2  5  1  0  0  0  0
  3  6  1  0  0  0  0
  5  7  1  0  0  0  0
  6  8  1  6  0  0  0
  7  9  1  0  0  0  0
  8 10  2  0  0  0  0
  8 11  1  0  0  0  0
  9 12  2  0  0  0  0
  9 13  1  0  0  0  0
 10 14  1  0  0  0  0
 11 15  2  0  0  0  0
 12 16  1  0  0  0  0
 13 17  2  0  0  0  0
 14 18  2  0  0  0  0
 16 19  2  0  0  0  0
 19 20  1  0  0  0  0
 20 21  2  0  0  0  0
 20 22  1  0  0  0  0
 22 23  1  0  0  0  0
 23 24  2  0  0  0  0
 23 25  1  0  0  0  0
 24 26  1  0  0  0  0
 24 27  1  0  0  0  0
 25 28  2  0  0  0  0
 27 29  2  0  0  0  0
  4  6  1  0  0  0  0
 15 18  1  0  0  0  0
 17 19  1  0  0  0  0
 28 29  1  0  0  0  0
M  END
>  <MolRegNo>
1572123

>  <m>
=

>  <Value>
16000

>  <Unit>
nM

>  <Type>
IC50

>  <pValue>
4.8

>  <Ligand Efficiency>
0

>  <Binding Efficiency>
0

>  <Surface Efficiency>
0

>  <Assay Index>
787858

>  <Assay Category>


>  <Assay Organism>
Homo sapiens

>  <Target ID>
17045

>  <Target Name>
Cytochrome P450 3A4

>  <Target Organism>
Homo sapiens

>  <Target Description>
Target is a single protein chain

>  <Sequence Accession>
P08684

>  <Reference>
J Med Chem 56 (15), 6156-6174 (2013)

>  <Pubmed ID>
23829483

>  <DOI>
10.1021/jm400634n

$$$$
1572308
Actelion Java MolfileCreator 1.0

 37 42  0  0  0  0  0  0  0  0999 V2000
    0.0000   -0.0000   -0.0000 O   0  0  0  0  0  0  0  0  0  0  0  0
   -1.5020    0.0117   -0.0000 C   0  0  0  0  0  0  0  0  0  0  0  0
   -2.3939   -1.1969   -0.0000 N   0  0  0  0  0  0  0  0  0  0  0  0
   -2.3939    1.2321   -0.0000 C   0  0  0  0  0  0  0  0  0  0  0  0
   -3.8372   -0.7275   -0.0000 C   0  0  0  0  0  0  0  0  0  0  0  0
   -3.8372    0.7745   -0.0000 C   0  0  0  0  0  0  0  0  0  0  0  0
   -1.9597    2.6637   -0.0000 C   0  0  0  0  0  0  0  0  0  0  0  0
   -5.1397   -1.4668   -0.0000 C   0  0  0  0  0  0  0  0  0  0  0  0
   -5.1397    1.5255   -0.0000 C   0  0  0  0  0  0  0  0  0  0  0  0
   -3.0041    3.7433   -0.0000 C   0  0  0  0  0  0  0  0  0  0  0  0
   -6.4423   -0.7041   -0.0000 C   0  0  0  0  0  0  0  0  0  0  0  0
   -6.4423    0.7862   -0.0000 C   0  0  0  0  0  0  0  0  0  0  0  0
   -2.5933    5.1749   -0.0000 C   0  0  0  0  0  0  0  0  0  0  0  0
   -4.4474    3.3913   -0.0000 C   0  0  0  0  0  0  0  0  0  0  0  0
   -7.7448    1.5372   -0.0000 O   0  0  0  0  0  0  0  0  0  0  0  0
   -3.6377    6.2545   -0.0000 C   0  0  0  0  0  0  0  0  0  0  0  0
   -5.4918    4.4709   -0.0000 C   0  0  0  0  0  0  0  0  0  0  0  0
   -7.7566    3.0393   -0.0000 C   0  0  0  0  0  0  0  0  0  0  0  0
   -3.5321    7.7448   -0.0000 N   0  0  0  0  0  0  0  0  0  0  0  0
   -5.0928    5.9142   -0.0000 C   0  0  0  0  0  0  0  0  0  0  0  0
   -4.9168    8.3198   -0.0000 N   0  0  0  0  0  0  0  0  0  0  0  0
   -5.8908    7.1933   -0.0000 C   0  0  0  0  0  0  0  0  0  0  0  0
   -7.3928    7.3224   -0.0000 C   0  0  0  0  0  0  0  0  0  0  0  0
   -8.2494    6.1020   -0.0000 C   0  0  0  0  0  0  0  0  0  0  0  0
   -9.7514    6.2311   -0.0000 C   0  0  0  0  0  0  0  0  0  0  0  0
  -10.5963    5.0224   -0.0000 C   0  0  0  0  0  0  0  0  0  0  0  0
  -10.3968    7.5923   -0.0000 C   0  0  0  0  0  0  0  0  0  0  0  0
  -12.0866    5.1397   -0.0000 N   0  0  0  0  0  0  0  0  0  0  0  0
  -11.8871    7.7214   -0.0000 C   0  0  0  0  0  0  0  0  0  0  0  0
  -12.7437    6.5010   -0.0000 C   0  0  0  0  0  0  0  0  0  0  0  0
  -14.2340    6.6300   -0.0000 N   0  0  0  0  0  0  0  0  0  0  0  0
  -14.8912    7.9912   -0.0000 C   0  0  0  0  0  0  0  0  0  0  0  0
  -15.0789    5.4096   -0.0000 C   0  0  0  0  0  0  0  0  0  0  0  0
  -16.3815    8.1203   -0.0000 C   0  0  0  0  0  0  0  0  0  0  0  0
  -16.5810    5.5387   -0.0000 C   0  0  0  0  0  0  0  0  0  0  0  0
  -17.2381    6.9117   -0.0000 N   0  0  0  0  0  0  0  0  0  0  0  0
  -18.7401    7.0407   -0.0000 C   0  0  0  0  0  0  0  0  0  0  0  0
  1  2  2  0  0  0  0
  2  3  1  0  0  0  0
  2  4  1  0  0  0  0
  3  5  1  0  0  0  0
  4  6  1  0  0  0  0
  4  7  2  0  0  0  0
  5  8  1  0  0  0  0
  6  9  1  0  0  0  0
  7 10  1  0  0  0  0
  8 11  2  0  0  0  0
  9 12  2  0  0  0  0
 10 13  2  0  0  0  0
 10 14  1  0  0  0  0
 12 15  1  0  0  0  0
 13 16  1  0  0  0  0
 14 17  2  0  0  0  0
 15 18  1  0  0  0  0
 16 19  1  0  0  0  0
 16 20  2  0  0  0  0
 19 21  1  0  0  0  0
 20 22  1  0  0  0  0
 22 23  1  0  0  0  0
 23 24  2  0  0  0  0
 24 25  1  0  0  0  0
 25 26  2  0  0  0  0
 25 27  1  0  0  0  0
 26 28  1  0  0  0  0
 27 29  2  0  0  0  0
 28 30  2  0  0  0  0
 30 31  1  0  0  0  0
 31 32  1  0  0  0  0
 31 33  1  0  0  0  0
 32 34  1  0  0  0  0
 33 35  1  0  0  0  0
 34 36  1  0  0  0  0
 36 37  1  0  0  0  0
  5  6  2  0  0  0  0
 11 12  1  0  0  0  0
 17 20  1  0  0  0  0
 21 22  2  0  0  0  0
 29 30  1  0  0  0  0
 35 36  1  0  0  0  0
M  END
>  <MolRegNo>
1572308

>  <m>
=

>  <Value>
10000

>  <Unit>
nM

>  <Type>
IC50

>  <pValue>
5

>  <Ligand Efficiency>
0

>  <Binding Efficiency>
0

>  <Surface Efficiency>
0

>  <Assay Index>
787895

>  <Assay Category>


>  <Assay Organism>
Homo sapiens

>  <Target ID>
17045

>  <Target Name>
Cytochrome P450 3A4

>  <Target Organism>
Homo sapiens

>  <Target Description>
Target is a single protein chain

>  <Sequence Accession>
P08684

>  <Reference>
J Med Chem 56 (15), 6069-6087 (2013)

>  <Pubmed ID>
23829549

>  <DOI>
10.1021/jm400380m

$$$$
1572307
Actelion Java MolfileCreator 1.0

 35 40  0  0  0  0  0  0  0  0999 V2000
    0.0000   -0.0000   -0.0000 O   0  0  0  0  0  0  0  0  0  0  0  0
   -1.5020    0.0117   -0.0000 C   0  0  0  0  0  0  0  0  0  0  0  0
   -2.3939   -1.1969   -0.0000 N   0  0  0  0  0  0  0  0  0  0  0  0
   -2.3939    1.2321   -0.0000 C   0  0  0  0  0  0  0  0  0  0  0  0
   -3.8372   -0.7276   -0.0000 C   0  0  0  0  0  0  0  0  0  0  0  0
   -3.8372    0.7745   -0.0000 C   0  0  0  0  0  0  0  0  0  0  0  0
   -1.9597    2.6638   -0.0000 C   0  0  0  0  0  0  0  0  0  0  0  0
   -5.1398   -1.4668   -0.0000 C   0  0  0  0  0  0  0  0  0  0  0  0
   -5.1398    1.5255   -0.0000 C   0  0  0  0  0  0  0  0  0  0  0  0
   -3.0041    3.7434   -0.0000 C   0  0  0  0  0  0  0  0  0  0  0  0
   -6.4423   -0.7041   -0.0000 C   0  0  0  0  0  0  0  0  0  0  0  0
   -6.4423    0.7862   -0.0000 C   0  0  0  0  0  0  0  0  0  0  0  0
   -2.5934    5.1750   -0.0000 C   0  0  0  0  0  0  0  0  0  0  0  0
   -4.4475    3.3913   -0.0000 C   0  0  0  0  0  0  0  0  0  0  0  0
   -3.6378    6.2546   -0.0000 C   0  0  0  0  0  0  0  0  0  0  0  0
   -5.4918    4.4709   -0.0000 C   0  0  0  0  0  0  0  0  0  0  0  0
   -3.5321    7.7449   -0.0000 N   0  0  0  0  0  0  0  0  0  0  0  0
   -5.0929    5.9143   -0.0000 C   0  0  0  0  0  0  0  0  0  0  0  0
   -4.9168    8.3199   -0.0000 N   0  0  0  0  0  0  0  0  0  0  0  0
   -5.8908    7.1934   -0.0000 C   0  0  0  0  0  0  0  0  0  0  0  0
   -7.3929    7.3225   -0.0000 C   0  0  0  0  0  0  0  0  0  0  0  0
   -8.2495    6.1020   -0.0000 C   0  0  0  0  0  0  0  0  0  0  0  0
   -9.7515    6.2311   -0.0000 C   0  0  0  0  0  0  0  0  0  0  0  0
  -10.5964    5.0225   -0.0000 C   0  0  0  0  0  0  0  0  0  0  0  0
  -10.3969    7.5924   -0.0000 C   0  0  0  0  0  0  0  0  0  0  0  0
  -12.0867    5.1398   -0.0000 N   0  0  0  0  0  0  0  0  0  0  0  0
  -11.8990    7.7214   -0.0000 C   0  0  0  0  0  0  0  0  0  0  0  0
  -12.7439    6.5010   -0.0000 C   0  0  0  0  0  0  0  0  0  0  0  0
  -14.2342    6.6301   -0.0000 N   0  0  0  0  0  0  0  0  0  0  0  0
  -14.8913    7.9913   -0.0000 C   0  0  0  0  0  0  0  0  0  0  0  0
  -15.0791    5.4097   -0.0000 C   0  0  0  0  0  0  0  0  0  0  0  0
  -16.3816    8.1204   -0.0000 C   0  0  0  0  0  0  0  0  0  0  0  0
  -16.5811    5.5388   -0.0000 C   0  0  0  0  0  0  0  0  0  0  0  0
  -17.2383    6.9117   -0.0000 N   0  0  0  0  0  0  0  0  0  0  0  0
  -18.7403    7.0408   -0.0000 C   0  0  0  0  0  0  0  0  0  0  0  0
  1  2  2  0  0  0  0
  2  3  1  0  0  0  0
  2  4  1  0  0  0  0
  3  5  1  0  0  0  0
  4  6  1  0  0  0  0
  4  7  2  0  0  0  0
  5  8  1  0  0  0  0
  6  9  1  0  0  0  0
  7 10  1  0  0  0  0
  8 11  2  0  0  0  0
  9 12  2  0  0  0  0
 10 13  2  0  0  0  0
 10 14  1  0  0  0  0
 13 15  1  0  0  0  0
 14 16  2  0  0  0  0
 15 17  1  0  0  0  0
 15 18  2  0  0  0  0
 17 19  1  0  0  0  0
 18 20  1  0  0  0  0
 20 21  1  0  0  0  0
 21 22  2  0  0  0  0
 22 23  1  0  0  0  0
 23 24  2  0  0  0  0
 23 25  1  0  0  0  0
 24 26  1  0  0  0  0
 25 27  2  0  0  0  0
 26 28  2  0  0  0  0
 28 29  1  0  0  0  0
 29 30  1  0  0  0  0
 29 31  1  0  0  0  0
 30 32  1  0  0  0  0
 31 33  1  0  0  0  0
 32 34  1  0  0  0  0
 34 35  1  0  0  0  0
  5  6  2  0  0  0  0
 11 12  1  0  0  0  0
 16 18  1  0  0  0  0
 19 20  2  0  0  0  0
 27 28  1  0  0  0  0
 33 34  1  0  0  0  0
M  END
>  <MolRegNo>
1572307

>  <m>
=

>  <Value>
800

>  <Unit>
nM

>  <Type>
IC50

>  <pValue>
6.1

>  <Ligand Efficiency>
0

>  <Binding Efficiency>
0

>  <Surface Efficiency>
0

>  <Assay Index>
787895

>  <Assay Category>


>  <Assay Organism>
Homo sapiens

>  <Target ID>
17045

>  <Target Name>
Cytochrome P450 3A4

>  <Target Organism>
Homo sapiens

>  <Target Description>
Target is a single protein chain

>  <Sequence Accession>
P08684

>  <Reference>
J Med Chem 56 (15), 6069-6087 (2013)

>  <Pubmed ID>
23829549

>  <DOI>
10.1021/jm400380m

$$$$
1572305
Actelion Java MolfileCreator 1.0

 32 36  0  0  0  0  0  0  0  0999 V2000
    0.0000   -0.0000   -0.0000 O   0  0  0  0  0  0  0  0  0  0  0  0
   -1.5022    0.0117   -0.0000 C   0  0  0  0  0  0  0  0  0  0  0  0
   -2.3942   -1.1971   -0.0000 N   0  0  0  0  0  0  0  0  0  0  0  0
   -2.3942    1.2323   -0.0000 C   0  0  0  0  0  0  0  0  0  0  0  0
   -3.8378   -0.7159   -0.0000 C   0  0  0  0  0  0  0  0  0  0  0  0
   -3.8378    0.7746   -0.0000 C   0  0  0  0  0  0  0  0  0  0  0  0
   -1.9600    2.6641   -0.0000 C   0  0  0  0  0  0  0  0  0  0  0  0
   -5.1405   -1.4553   -0.0000 C   0  0  0  0  0  0  0  0  0  0  0  0
   -5.1405    1.5257   -0.0000 C   0  0  0  0  0  0  0  0  0  0  0  0
   -3.0045    3.7439   -0.0000 C   0  0  0  0  0  0  0  0  0  0  0  0
   -6.4432   -0.6924   -0.0000 C   0  0  0  0  0  0  0  0  0  0  0  0
   -6.4432    0.7863   -0.0000 C   0  0  0  0  0  0  0  0  0  0  0  0
   -2.5937    5.1757   -0.0000 C   0  0  0  0  0  0  0  0  0  0  0  0
   -4.4481    3.3918   -0.0000 C   0  0  0  0  0  0  0  0  0  0  0  0
   -3.6383    6.2554   -0.0000 C   0  0  0  0  0  0  0  0  0  0  0  0
   -5.4926    4.4715   -0.0000 C   0  0  0  0  0  0  0  0  0  0  0  0
   -3.5326    7.7460   -0.0000 N   0  0  0  0  0  0  0  0  0  0  0  0
   -5.0936    5.9151   -0.0000 C   0  0  0  0  0  0  0  0  0  0  0  0
   -4.9175    8.3210   -0.0000 N   0  0  0  0  0  0  0  0  0  0  0  0
   -5.8916    7.1943   -0.0000 C   0  0  0  0  0  0  0  0  0  0  0  0
   -7.3939    7.3234   -0.0000 C   0  0  0  0  0  0  0  0  0  0  0  0
   -8.2506    6.1029   -0.0000 C   0  0  0  0  0  0  0  0  0  0  0  0
   -9.7529    6.2320   -0.0000 C   0  0  0  0  0  0  0  0  0  0  0  0
  -10.3984    7.5934   -0.0000 C   0  0  0  0  0  0  0  0  0  0  0  0
  -10.5979    5.0231   -0.0000 C   0  0  0  0  0  0  0  0  0  0  0  0
  -11.8889    7.7225   -0.0000 C   0  0  0  0  0  0  0  0  0  0  0  0
  -12.0884    5.1405   -0.0000 C   0  0  0  0  0  0  0  0  0  0  0  0
  -12.7456    6.5019   -0.0000 C   0  0  0  0  0  0  0  0  0  0  0  0
  -14.2479    6.6310   -0.0000 C   0  0  0  0  0  0  0  0  0  0  0  0
  -14.9051    7.9924   -0.0000 N   0  0  0  0  0  0  0  0  0  0  0  0
  -16.4073    8.1215   -0.0000 C   0  0  0  0  0  0  0  0  0  0  0  0
  -14.0718    9.2365   -0.0000 C   0  0  0  0  0  0  0  0  0  0  0  0
  1  2  2  0  0  0  0
  2  3  1  0  0  0  0
  2  4  1  0  0  0  0
  3  5  1  0  0  0  0
  4  6  1  0  0  0  0
  4  7  2  0  0  0  0
  5  8  1  0  0  0  0
  6  9  1  0  0  0  0
  7 10  1  0  0  0  0
  8 11  2  0  0  0  0
  9 12  2  0  0  0  0
 10 13  2  0  0  0  0
 10 14  1  0  0  0  0
 13 15  1  0  0  0  0
 14 16  2  0  0  0  0
 15 17  1  0  0  0  0
 15 18  2  0  0  0  0
 17 19  1  0  0  0  0
 18 20  1  0  0  0  0
 20 21  1  0  0  0  0
 21 22  2  0  0  0  0
 22 23  1  0  0  0  0
 23 24  2  0  0  0  0
 23 25  1  0  0  0  0
 24 26  1  0  0  0  0
 25 27  2  0  0  0  0
 26 28  2  0  0  0  0
 28 29  1  0  0  0  0
 29 30  1  0  0  0  0
 30 31  1  0  0  0  0
 30 32  1  0  0  0  0
  5  6  2  0  0  0  0
 11 12  1  0  0  0  0
 16 18  1  0  0  0  0
 19 20  2  0  0  0  0
 27 28  1  0  0  0  0
M  END
>  <MolRegNo>
1572305

>  <m>
=

>  <Value>
10000

>  <Unit>
nM

>  <Type>
IC50

>  <pValue>
5

>  <Ligand Efficiency>
0

>  <Binding Efficiency>
0

>  <Surface Efficiency>
0

>  <Assay Index>
787895

>  <Assay Category>


>  <Assay Organism>
Homo sapiens

>  <Target ID>
17045

>  <Target Name>
Cytochrome P450 3A4

>  <Target Organism>
Homo sapiens

>  <Target Description>
Target is a single protein chain

>  <Sequence Accession>
P08684

>  <Reference>
J Med Chem 56 (15), 6069-6087 (2013)

>  <Pubmed ID>
23829549

>  <DOI>
10.1021/jm400380m

$$$$
1572155
Actelion Java MolfileCreator 1.0

 28 32  0  0  0  0  0  0  0  0999 V2000
    0.0000   -0.0000   -0.0000 O   0  0  0  0  0  0  0  0  0  0  0  0
   -1.5019    0.0117   -0.0000 C   0  0  0  0  0  0  0  0  0  0  0  0
   -2.3936   -1.1968   -0.0000 N   0  0  0  0  0  0  0  0  0  0  0  0
   -2.3936    1.2320   -0.0000 C   0  0  0  0  0  0  0  0  0  0  0  0
   -3.8368   -0.7275   -0.0000 C   0  0  0  0  0  0  0  0  0  0  0  0
   -3.8368    0.7744   -0.0000 C   0  0  0  0  0  0  0  0  0  0  0  0
   -1.9595    2.6635   -0.0000 C   0  0  0  0  0  0  0  0  0  0  0  0
   -5.1392   -1.4667   -0.0000 C   0  0  0  0  0  0  0  0  0  0  0  0
   -5.1392    1.5253   -0.0000 C   0  0  0  0  0  0  0  0  0  0  0  0
   -3.0037    3.7429   -0.0000 C   0  0  0  0  0  0  0  0  0  0  0  0
   -6.4416   -0.7040   -0.0000 C   0  0  0  0  0  0  0  0  0  0  0  0
   -6.4416    0.7861   -0.0000 C   0  0  0  0  0  0  0  0  0  0  0  0
   -2.5931    5.1744   -0.0000 C   0  0  0  0  0  0  0  0  0  0  0  0
   -4.4469    3.3909   -0.0000 C   0  0  0  0  0  0  0  0  0  0  0  0
   -3.6373    6.2539   -0.0000 C   0  0  0  0  0  0  0  0  0  0  0  0
   -5.4912    4.4704   -0.0000 C   0  0  0  0  0  0  0  0  0  0  0  0
   -3.5317    7.7440   -0.0000 N   0  0  0  0  0  0  0  0  0  0  0  0
   -5.0923    5.9136   -0.0000 C   0  0  0  0  0  0  0  0  0  0  0  0
   -4.9163    8.3190   -0.0000 N   0  0  0  0  0  0  0  0  0  0  0  0
   -5.8901    7.1926   -0.0000 C   0  0  0  0  0  0  0  0  0  0  0  0
   -7.3920    7.3216   -0.0000 C   0  0  0  0  0  0  0  0  0  0  0  0
   -8.2486    6.1013   -0.0000 C   0  0  0  0  0  0  0  0  0  0  0  0
   -9.7504    6.2304   -0.0000 C   0  0  0  0  0  0  0  0  0  0  0  0
  -10.3958    7.5915   -0.0000 C   0  0  0  0  0  0  0  0  0  0  0  0
  -10.5952    5.0219   -0.0000 C   0  0  0  0  0  0  0  0  0  0  0  0
  -11.8976    7.7206   -0.0000 C   0  0  0  0  0  0  0  0  0  0  0  0
  -12.0854    5.1392   -0.0000 C   0  0  0  0  0  0  0  0  0  0  0  0
  -12.7542    6.5003   -0.0000 N   0  0  0  0  0  0  0  0  0  0  0  0
  1  2  2  0  0  0  0
  2  3  1  0  0  0  0
  2  4  1  0  0  0  0
  3  5  1  0  0  0  0
  4  6  1  0  0  0  0
  4  7  2  0  0  0  0
  5  8  1  0  0  0  0
  6  9  1  0  0  0  0
  7 10  1  0  0  0  0
  8 11  2  0  0  0  0
  9 12  2  0  0  0  0
 10 13  2  0  0  0  0
 10 14  1  0  0  0  0
 13 15  1  0  0  0  0
 14 16  2  0  0  0  0
 15 17  1  0  0  0  0
 15 18  2  0  0  0  0
 17 19  1  0  0  0  0
 18 20  1  0  0  0  0
 20 21  1  0  0  0  0
 21 22  2  0  0  0  0
 22 23  1  0  0  0  0
 23 24  2  0  0  0  0
 23 25  1  0  0  0  0
 24 26  1  0  0  0  0
 25 27  2  0  0  0  0
 26 28  2  0  0  0  0
  5  6  2  0  0  0  0
 11 12  1  0  0  0  0
 16 18  1  0  0  0  0
 19 20  2  0  0  0  0
 27 28  1  0  0  0  0
M  END
>  <MolRegNo>
1572155

>  <m>
=

>  <Value>
2700

>  <Unit>
nM

>  <Type>
IC50

>  <pValue>
5.57

>  <Ligand Efficiency>
0

>  <Binding Efficiency>
0

>  <Surface Efficiency>
0

>  <Assay Index>
787895

>  <Assay Category>


>  <Assay Organism>
Homo sapiens

>  <Target ID>
17045

>  <Target Name>
Cytochrome P450 3A4

>  <Target Organism>
Homo sapiens

>  <Target Description>
Target is a single protein chain

>  <Sequence Accession>
P08684

>  <Reference>
J Med Chem 56 (15), 6069-6087 (2013)

>  <Pubmed ID>
23829549

>  <DOI>
10.1021/jm400380m

$$$$
1572358
Actelion Java MolfileCreator 1.0

 26 28  0  0  0  0  0  0  0  0999 V2000
    0.0000   -0.0000   -0.0000 Br  0  0  0  0  0  0  0  0  0  0  0  0
   -1.2852    0.7422   -0.0000 C   0  0  0  0  0  0  0  0  0  0  0  0
   -2.5704    0.0362   -0.0000 C   0  0  0  0  0  0  0  0  0  0  0  0
   -1.3033    2.2446   -0.0000 C   0  0  0  0  0  0  0  0  0  0  0  0
   -3.8556    0.7784   -0.0000 C   0  0  0  0  0  0  0  0  0  0  0  0
   -2.5885    2.9867   -0.0000 C   0  0  0  0  0  0  0  0  0  0  0  0
   -3.8737    2.2627   -0.0000 C   0  0  0  0  0  0  0  0  0  0  0  0
   -5.1589    3.0048   -0.0000 C   0  0  0  0  0  0  0  0  0  0  0  0
   -5.1227    5.3218   -0.0000 C   0  0  0  0  0  0  0  0  0  0  0  0
   -6.4441    2.2808   -0.0000 C   0  0  0  0  0  0  0  0  0  0  0  0
   -3.8737    6.0639   -0.0000 C   0  0  0  0  0  0  0  0  0  0  0  0
   -6.3898    6.0639   -0.0000 C   0  0  0  0  0  0  0  0  0  0  0  0
   -7.7293    3.0229   -0.0000 C   0  0  0  0  0  0  0  0  0  0  0  0
   -3.8918    7.5302   -0.0000 C   0  0  0  0  0  0  0  0  0  0  0  0
   -2.6247    5.3399   -0.0000 C   0  0  0  0  0  0  0  0  0  0  0  0
   -6.4079    7.5302   -0.0000 C   0  0  0  0  0  0  0  0  0  0  0  0
   -7.7474    4.4891   -0.0000 N   0  0  0  0  0  0  0  0  0  0  0  0
   -9.0145    2.2989   -0.0000 C   0  0  0  0  0  0  0  0  0  0  0  0
   -5.1770    8.2723   -0.0000 C   0  0  0  0  0  0  0  0  0  0  0  0
   -6.4984    5.2313   -0.0000 O   0  0  0  0  0  0  0  0  0  0  0  0
   -9.0326    0.8508   -0.0000 C   0  0  0  0  0  0  0  0  0  0  0  0
  -10.2997    3.0410   -0.0000 C   0  0  0  0  0  0  0  0  0  0  0  0
  -10.3178    0.1448   -0.0000 C   0  0  0  0  0  0  0  0  0  0  0  0
  -11.5849    2.3351   -0.0000 C   0  0  0  0  0  0  0  0  0  0  0  0
  -11.6030    0.8870   -0.0000 N   0  0  0  0  0  0  0  0  0  0  0  0
  -10.3359   -1.3033   -0.0000 C   0  0  0  0  0  0  0  0  0  0  0  0
  1  2  1  0  0  0  0
  2  3  2  0  0  0  0
  2  4  1  0  0  0  0
  3  5  1  0  0  0  0
  4  6  2  0  0  0  0
  5  7  2  0  0  0  0
  7  8  1  0  0  0  0
  8  9  1  0  0  0  0
  8 10  1  0  0  0  0
  9 11  2  0  0  0  0
  9 12  1  0  0  0  0
 10 13  1  0  0  0  0
 11 14  1  0  0  0  0
 11 15  1  0  0  0  0
 12 16  2  0  0  0  0
 13 17  2  0  0  0  0
 13 18  1  0  0  0  0
 14 19  2  0  0  0  0
 17 20  1  0  0  0  0
 18 21  2  0  0  0  0
 18 22  1  0  0  0  0
 21 23  1  0  0  0  0
 22 24  2  0  0  0  0
 23 25  2  0  0  0  0
 23 26  1  0  0  0  0
  6  7  1  0  0  0  0
 16 19  1  0  0  0  0
 24 25  1  0  0  0  0
M  END
>  <MolRegNo>
1572358

>  <m>
=

>  <Value>
5000

>  <Unit>
nM

>  <Type>
IC50

>  <pValue>
5.3

>  <Ligand Efficiency>
0

>  <Binding Efficiency>
0

>  <Surface Efficiency>
0

>  <Assay Index>
787948

>  <Assay Category>


>  <Assay Organism>
Homo sapiens

>  <Target ID>
17045

>  <Target Name>
Cytochrome P450 3A4

>  <Target Organism>
Homo sapiens

>  <Target Description>
Target is a single protein chain

>  <Sequence Accession>
P08684

>  <Reference>
Bioorg Med Chem Lett 23 (16), 4627-4632 (2013)

>  <Pubmed ID>
23831134

>  <DOI>
10.1016/j.bmcl.2013.06.017

$$$$
1573443
Actelion Java MolfileCreator 1.0

 30 33  0  0  0  0  0  0  0  0999 V2000
    0.0000   -0.0000   -0.0000 S   0  0  0  0  0  0  0  0  0  0  0  0
   -0.1665   -1.4862   -0.0000 C   0  0  0  0  0  0  0  0  0  0  0  0
    1.4505    0.3329   -0.0000 C   0  0  0  0  0  0  0  0  0  0  0  0
   -1.4743   -2.2233   -0.0000 C   0  0  0  0  0  0  0  0  0  0  0  0
    1.1889   -2.0807   -0.0000 C   0  0  0  0  0  0  0  0  0  0  0  0
    2.1877   -0.9512   -0.0000 C   0  0  0  0  0  0  0  0  0  0  0  0
   -2.7821   -1.4624   -0.0000 N   0  0  0  0  0  0  0  0  0  0  0  0
   -1.4862   -3.7214   -0.0000 C   0  0  0  0  0  0  0  0  0  0  0  0
   -4.1019   -2.1996   -0.0000 C   0  0  0  0  0  0  0  0  0  0  0  0
   -2.8059   -4.4586   -0.0000 C   0  0  0  0  0  0  0  0  0  0  0  0
   -0.2021   -4.4586   -0.0000 C   0  0  0  0  0  0  0  0  0  0  0  0
   -4.1138   -3.6976   -0.0000 N   0  0  0  0  0  0  0  0  0  0  0  0
   -5.3978   -1.4267   -0.0000 N   0  0  0  0  0  0  0  0  0  0  0  0
   -5.5762    0.0713   -0.0000 N   0  0  0  0  0  0  0  0  0  0  0  0
   -6.7770   -2.0212   -0.0000 C   0  0  0  0  0  0  0  0  0  0  0  0
   -7.0624    0.3924   -0.0000 C   0  0  0  0  0  0  0  0  0  0  0  0
   -7.7995   -0.8917   -0.0000 C   0  0  0  0  0  0  0  0  0  0  0  0
   -7.0980   -3.4717   -0.0000 C   0  0  0  0  0  0  0  0  0  0  0  0
   -9.3095   -1.0344   -0.0000 C   0  0  0  0  0  0  0  0  0  0  0  0
   -5.9923   -4.4586   -0.0000 O   0  0  0  0  0  0  0  0  0  0  0  0
  -10.2012    0.1902   -0.0000 O   0  0  0  0  0  0  0  0  0  0  0  0
   -9.9277   -2.3898   -0.0000 N   0  0  0  0  0  0  0  0  0  0  0  0
   -6.3133   -5.9091   -0.0000 C   0  0  0  0  0  0  0  0  0  0  0  0
  -11.4377   -2.5325   -0.0000 C   0  0  0  0  0  0  0  0  0  0  0  0
  -12.0678   -3.8879   -0.0000 C   0  0  0  0  0  0  0  0  0  0  0  0
  -13.5659   -4.0305   -0.0000 C   0  0  0  0  0  0  0  0  0  0  0  0
  -11.1761   -5.0887   -0.0000 C   0  0  0  0  0  0  0  0  0  0  0  0
  -14.1842   -5.3859   -0.0000 C   0  0  0  0  0  0  0  0  0  0  0  0
  -11.7944   -6.4441   -0.0000 C   0  0  0  0  0  0  0  0  0  0  0  0
  -13.3162   -6.5868   -0.0000 N   0  0  0  0  0  0  0  0  0  0  0  0
  1  2  1  0  0  0  0
  1  3  1  0  0  0  0
  2  4  1  0  0  0  0
  2  5  2  0  0  0  0
  3  6  2  0  0  0  0
  4  7  2  0  0  0  0
  4  8  1  0  0  0  0
  7  9  1  0  0  0  0
  8 10  2  0  0  0  0
  8 11  1  0  0  0  0
  9 12  2  0  0  0  0
  9 13  1  0  0  0  0
 13 14  1  0  0  0  0
 13 15  1  0  0  0  0
 14 16  2  0  0  0  0
 15 17  2  0  0  0  0
 15 18  1  0  0  0  0
 17 19  1  0  0  0  0
 18 20  1  0  0  0  0
 19 21  2  0  0  0  0
 19 22  1  0  0  0  0
 20 23  1  0  0  0  0
 22 24  1  0  0  0  0
 24 25  1  0  0  0  0
 25 26  2  0  0  0  0
 25 27  1  0  0  0  0
 26 28  1  0  0  0  0
 27 29  2  0  0  0  0
 28 30  2  0  0  0  0
  5  6  1  0  0  0  0
 10 12  1  0  0  0  0
 16 17  1  0  0  0  0
 29 30  1  0  0  0  0
M  END
>  <MolRegNo>
1573443

>  <m>
=

>  <Value>
2900

>  <Unit>
nM

>  <Type>
IC50

>  <pValue>
5.54

>  <Ligand Efficiency>
0

>  <Binding Efficiency>
0

>  <Surface Efficiency>
0

>  <Assay Index>
786621

>  <Assay Category>


>  <Assay Organism>
Homo sapiens

>  <Target ID>
17045

>  <Target Name>
Cytochrome P450 3A4

>  <Target Organism>
Homo sapiens

>  <Target Description>
Target is a single protein chain

>  <Sequence Accession>
P08684

>  <Reference>
ACS Med Chem Lett 4 (8), 790-794 (2013)

>  <Pubmed ID>
24900747

>  <DOI>
10.1021/ml400186z

$$$$
1573426
Actelion Java MolfileCreator 1.0

 32 35  0  0  0  0  0  0  0  0999 V2000
    0.0000   -0.0000   -0.0000 O   0  0  0  0  0  0  0  0  0  0  0  0
    0.8734   -1.2084   -0.0000 C   0  0  0  0  0  0  0  0  0  0  0  0
    0.2512   -2.5723   -0.0000 N   0  0  0  0  0  0  0  0  0  0  0  0
    2.3570   -1.0409   -0.0000 C   0  0  0  0  0  0  0  0  0  0  0  0
   -1.2562   -2.7159   -0.0000 C   0  0  0  0  0  0  0  0  0  0  0  0
    3.3500   -2.1536   -0.0000 C   0  0  0  0  0  0  0  0  0  0  0  0
    3.0987    0.2752   -0.0000 C   0  0  0  0  0  0  0  0  0  0  0  0
   -1.8784   -4.0798   -0.0000 C   0  0  0  0  0  0  0  0  0  0  0  0
    4.7139   -1.5314   -0.0000 N   0  0  0  0  0  0  0  0  0  0  0  0
    3.0270   -3.6132   -0.0000 C   0  0  0  0  0  0  0  0  0  0  0  0
    4.5584   -0.0239   -0.0000 N   0  0  0  0  0  0  0  0  0  0  0  0
   -1.1366   -5.3719   -0.0000 N   0  0  0  0  0  0  0  0  0  0  0  0
   -3.3620   -4.3789   -0.0000 C   0  0  0  0  0  0  0  0  0  0  0  0
    6.0061   -2.2852   -0.0000 C   0  0  0  0  0  0  0  0  0  0  0  0
    4.1396   -4.6062   -0.0000 O   0  0  0  0  0  0  0  0  0  0  0  0
   -2.1536   -6.4846   -0.0000 C   0  0  0  0  0  0  0  0  0  0  0  0
    0.3470   -5.5155   -0.0000 C   0  0  0  0  0  0  0  0  0  0  0  0
   -3.5295   -5.8625   -0.0000 N   0  0  0  0  0  0  0  0  0  0  0  0
    7.2982   -1.5195   -0.0000 N   0  0  0  0  0  0  0  0  0  0  0  0
    5.9941   -3.7927   -0.0000 N   0  0  0  0  0  0  0  0  0  0  0  0
    3.8166   -6.0659   -0.0000 C   0  0  0  0  0  0  0  0  0  0  0  0
    8.5903   -2.2612   -0.0000 C   0  0  0  0  0  0  0  0  0  0  0  0
    7.2862   -4.5344   -0.0000 C   0  0  0  0  0  0  0  0  0  0  0  0
    4.9293   -7.0589   -0.0000 C   0  0  0  0  0  0  0  0  0  0  0  0
    9.8825   -1.4955   -0.0000 N   0  0  0  0  0  0  0  0  0  0  0  0
    8.5784   -3.7687   -0.0000 C   0  0  0  0  0  0  0  0  0  0  0  0
   11.1746   -2.2373   -0.0000 C   0  0  0  0  0  0  0  0  0  0  0  0
    9.8585    0.0239   -0.0000 C   0  0  0  0  0  0  0  0  0  0  0  0
    9.8705   -4.5105   -0.0000 C   0  0  0  0  0  0  0  0  0  0  0  0
   12.4667   -1.4716   -0.0000 C   0  0  0  0  0  0  0  0  0  0  0  0
   11.1626    0.7896   -0.0000 C   0  0  0  0  0  0  0  0  0  0  0  0
   12.4548    0.0479   -0.0000 C   0  0  0  0  0  0  0  0  0  0  0  0
  1  2  2  0  0  0  0
  2  3  1  0  0  0  0
  2  4  1  0  0  0  0
  3  5  1  0  0  0  0
  4  6  2  0  0  0  0
  4  7  1  0  0  0  0
  5  8  1  0  0  0  0
  6  9  1  0  0  0  0
  6 10  1  0  0  0  0
  7 11  2  0  0  0  0
  8 12  1  0  0  0  0
  8 13  2  0  0  0  0
  9 14  1  0  0  0  0
 10 15  1  0  0  0  0
 12 16  1  0  0  0  0
 12 17  1  0  0  0  0
 13 18  1  0  0  0  0
 14 19  2  0  0  0  0
 14 20  1  0  0  0  0
 15 21  1  0  0  0  0
 19 22  1  0  0  0  0
 20 23  2  0  0  0  0
 21 24  1  0  0  0  0
 22 25  1  0  0  0  0
 22 26  2  0  0  0  0
 25 27  1  0  0  0  0
 25 28  1  0  0  0  0
 26 29  1  0  0  0  0
 27 30  1  0  0  0  0
 28 31  1  0  0  0  0
 30 32  1  0  0  0  0
  9 11  1  0  0  0  0
 16 18  2  0  0  0  0
 23 26  1  0  0  0  0
 31 32  1  0  0  0  0
M  END
>  <MolRegNo>
1573426

>  <m>
=

>  <Value>
1000

>  <Unit>
nM

>  <Type>
IC50

>  <pValue>
6

>  <Ligand Efficiency>
0

>  <Binding Efficiency>
0

>  <Surface Efficiency>
0

>  <Assay Index>
786621

>  <Assay Category>


>  <Assay Organism>
Homo sapiens

>  <Target ID>
17045

>  <Target Name>
Cytochrome P450 3A4

>  <Target Organism>
Homo sapiens

>  <Target Description>
Target is a single protein chain

>  <Sequence Accession>
P08684

>  <Reference>
ACS Med Chem Lett 4 (8), 790-794 (2013)

>  <Pubmed ID>
24900747

>  <DOI>
10.1021/ml400186z

$$$$
1575112
Actelion Java MolfileCreator 1.0

 33 37  0  0  0  0  0  0  0  0999 V2000
    0.0000   -0.0000   -0.0000 Cl  0  0  0  0  0  0  0  0  0  0  0  0
   -0.0356   -1.4947   -0.0000 C   0  0  0  0  0  0  0  0  0  0  0  0
   -1.3642   -2.2065   -0.0000 C   0  0  0  0  0  0  0  0  0  0  0  0
    1.2456   -2.2658   -0.0000 C   0  0  0  0  0  0  0  0  0  0  0  0
   -1.3998   -3.7012   -0.0000 C   0  0  0  0  0  0  0  0  0  0  0  0
    1.2100   -3.7486   -0.0000 C   0  0  0  0  0  0  0  0  0  0  0  0
   -2.7284   -4.4248   -0.0000 N   0  0  0  0  0  0  0  0  0  0  0  0
   -0.1186   -4.4604   -0.0000 C   0  0  0  0  0  0  0  0  0  0  0  0
   -2.7640   -5.9195   -0.0000 C   0  0  0  0  0  0  0  0  0  0  0  0
   -0.1542   -5.9432   -0.0000 C   0  0  0  0  0  0  0  0  0  0  0  0
   -1.4710   -6.6787   -0.0000 C   0  0  0  0  0  0  0  0  0  0  0  0
    1.1270   -6.7025   -0.0000 N   0  0  0  0  0  0  0  0  0  0  0  0
    2.4200   -5.9314   -0.0000 C   0  0  0  0  0  0  0  0  0  0  0  0
    3.7130   -6.6787   -0.0000 C   0  0  0  0  0  0  0  0  0  0  0  0
    2.3963   -4.4248   -0.0000 C   0  0  0  0  0  0  0  0  0  0  0  0
    4.9942   -5.9077   -0.0000 C   0  0  0  0  0  0  0  0  0  0  0  0
    3.6775   -3.6537   -0.0000 C   0  0  0  0  0  0  0  0  0  0  0  0
    4.9705   -4.3892   -0.0000 C   0  0  0  0  0  0  0  0  0  0  0  0
    6.2873   -6.6431   -0.0000 C   0  0  0  0  0  0  0  0  0  0  0  0
    7.5447   -5.8246   -0.0000 N   0  0  0  0  0  0  0  0  0  0  0  0
    6.3466   -8.1379   -0.0000 C   0  0  0  0  0  0  0  0  0  0  0  0
    8.9208   -6.3703   -0.0000 C   0  0  0  0  0  0  0  0  0  0  0  0
    7.6278   -4.3180   -0.0000 C   0  0  0  0  0  0  0  0  0  0  0  0
    7.5922   -8.9564   -0.0000 N   0  0  0  0  0  0  0  0  0  0  0  0
    5.1603   -9.0632   -0.0000 N   0  0  0  0  0  0  0  0  0  0  0  0
    9.8698   -5.1959   -0.0000 C   0  0  0  0  0  0  0  0  0  0  0  0
    9.0750   -3.9266   -0.0000 C   0  0  0  0  0  0  0  0  0  0  0  0
    7.1770  -10.3918   -0.0000 N   0  0  0  0  0  0  0  0  0  0  0  0
    5.6704  -10.4630   -0.0000 N   0  0  0  0  0  0  0  0  0  0  0  0
    3.7012   -8.6480   -0.0000 C   0  0  0  0  0  0  0  0  0  0  0  0
    3.3097   -7.1770   -0.0000 C   0  0  0  0  0  0  0  0  0  0  0  0
    2.6217   -9.6919   -0.0000 C   0  0  0  0  0  0  0  0  0  0  0  0
    2.2302   -8.2328   -0.0000 C   0  0  0  0  0  0  0  0  0  0  0  0
  1  2  1  0  0  0  0
  2  3  2  0  0  0  0
  2  4  1  0  0  0  0
  3  5  1  0  0  0  0
  4  6  2  0  0  0  0
  5  7  2  0  0  0  0
  5  8  1  0  0  0  0
  7  9  1  0  0  0  0
  8 10  2  0  0  0  0
  9 11  2  0  0  0  0
 10 12  1  0  0  0  0
 12 13  1  0  0  0  0
 13 14  2  0  0  0  0
 13 15  1  0  0  0  0
 14 16  1  0  0  0  0
 15 17  2  0  0  0  0
 16 18  2  0  0  0  0
 16 19  1  0  0  0  0
 19 20  1  0  0  0  0
 19 21  1  0  0  0  0
 20 22  1  0  0  0  0
 20 23  1  0  0  0  0
 21 24  2  0  0  0  0
 21 25  1  0  0  0  0
 22 26  1  0  0  0  0
 23 27  1  0  0  0  0
 24 28  1  0  0  0  0
 25 29  1  0  0  0  0
 25 30  1  0  0  0  0
 30 31  1  0  0  0  0
 30 32  1  0  0  0  0
 30 33  1  0  0  0  0
  6  8  1  0  0  0  0
 10 11  1  0  0  0  0
 17 18  1  0  0  0  0
 26 27  1  0  0  0  0
 28 29  2  0  0  0  0
M  END
>  <MolRegNo>
1575112

>  <m>
=

>  <Value>
1450

>  <Unit>
nM

>  <Type>
IC50

>  <pValue>
5.84

>  <Ligand Efficiency>
0

>  <Binding Efficiency>
0

>  <Surface Efficiency>
0

>  <Assay Index>
791158

>  <Assay Category>


>  <Assay Organism>
Homo sapiens

>  <Target ID>
17045

>  <Target Name>
Cytochrome P450 3A4

>  <Target Organism>
Homo sapiens

>  <Target Description>
Target is a single protein chain

>  <Sequence Accession>
P08684

>  <Reference>
Bioorg Med Chem 21 (17), 4904-4913 (2013)

>  <Pubmed ID>
23896611

>  <DOI>
10.1016/j.bmc.2013.06.067

$$$$
1575111
Actelion Java MolfileCreator 1.0

 33 36  0  0  0  0  0  0  0  0999 V2000
    0.0000   -0.0000   -0.0000 Cl  0  0  0  0  0  0  0  0  0  0  0  0
   -0.0356   -1.4944   -0.0000 C   0  0  0  0  0  0  0  0  0  0  0  0
   -1.3640   -2.2061   -0.0000 C   0  0  0  0  0  0  0  0  0  0  0  0
    1.2454   -2.2654   -0.0000 C   0  0  0  0  0  0  0  0  0  0  0  0
   -1.3995   -3.7005   -0.0000 C   0  0  0  0  0  0  0  0  0  0  0  0
    1.2098   -3.7479   -0.0000 C   0  0  0  0  0  0  0  0  0  0  0  0
   -2.7279   -4.4240   -0.0000 N   0  0  0  0  0  0  0  0  0  0  0  0
   -0.1186   -4.4596   -0.0000 C   0  0  0  0  0  0  0  0  0  0  0  0
   -2.7635   -5.9184   -0.0000 C   0  0  0  0  0  0  0  0  0  0  0  0
   -0.1542   -5.9421   -0.0000 C   0  0  0  0  0  0  0  0  0  0  0  0
   -1.4707   -6.6775   -0.0000 C   0  0  0  0  0  0  0  0  0  0  0  0
    1.1268   -6.7012   -0.0000 N   0  0  0  0  0  0  0  0  0  0  0  0
    2.4195   -5.9303   -0.0000 C   0  0  0  0  0  0  0  0  0  0  0  0
    3.7123   -6.6775   -0.0000 C   0  0  0  0  0  0  0  0  0  0  0  0
    2.3958   -4.4240   -0.0000 C   0  0  0  0  0  0  0  0  0  0  0  0
    4.9933   -5.9065   -0.0000 C   0  0  0  0  0  0  0  0  0  0  0  0
    3.6768   -3.6530   -0.0000 C   0  0  0  0  0  0  0  0  0  0  0  0
    4.9696   -4.3884   -0.0000 C   0  0  0  0  0  0  0  0  0  0  0  0
    6.2861   -6.6419   -0.0000 C   0  0  0  0  0  0  0  0  0  0  0  0
    7.5433   -5.8235   -0.0000 N   0  0  0  0  0  0  0  0  0  0  0  0
    6.3335   -8.1363   -0.0000 C   0  0  0  0  0  0  0  0  0  0  0  0
    7.4721   -4.3054   -0.0000 C   0  0  0  0  0  0  0  0  0  0  0  0
    8.8598   -6.5114   -0.0000 C   0  0  0  0  0  0  0  0  0  0  0  0
    7.5789   -8.9547   -0.0000 N   0  0  0  0  0  0  0  0  0  0  0  0
    5.1475   -9.0614   -0.0000 N   0  0  0  0  0  0  0  0  0  0  0  0
    8.7294   -3.4870   -0.0000 C   0  0  0  0  0  0  0  0  0  0  0  0
   10.1170   -5.6931   -0.0000 C   0  0  0  0  0  0  0  0  0  0  0  0
    7.1638  -10.3898   -0.0000 N   0  0  0  0  0  0  0  0  0  0  0  0
    5.6575  -10.4610   -0.0000 N   0  0  0  0  0  0  0  0  0  0  0  0
    3.6886   -8.6463   -0.0000 C   0  0  0  0  0  0  0  0  0  0  0  0
    3.2972   -7.1756   -0.0000 C   0  0  0  0  0  0  0  0  0  0  0  0
    2.6093   -9.6901   -0.0000 C   0  0  0  0  0  0  0  0  0  0  0  0
    2.2179   -8.2312   -0.0000 C   0  0  0  0  0  0  0  0  0  0  0  0
  1  2  1  0  0  0  0
  2  3  2  0  0  0  0
  2  4  1  0  0  0  0
  3  5  1  0  0  0  0
  4  6  2  0  0  0  0
  5  7  2  0  0  0  0
  5  8  1  0  0  0  0
  7  9  1  0  0  0  0
  8 10  2  0  0  0  0
  9 11  2  0  0  0  0
 10 12  1  0  0  0  0
 12 13  1  0  0  0  0
 13 14  2  0  0  0  0
 13 15  1  0  0  0  0
 14 16  1  0  0  0  0
 15 17  2  0  0  0  0
 16 18  2  0  0  0  0
 16 19  1  0  0  0  0
 19 20  1  0  0  0  0
 19 21  1  0  0  0  0
 20 22  1  0  0  0  0
 20 23  1  0  0  0  0
 21 24  2  0  0  0  0
 21 25  1  0  0  0  0
 22 26  1  0  0  0  0
 23 27  1  0  0  0  0
 24 28  1  0  0  0  0
 25 29  1  0  0  0  0
 25 30  1  0  0  0  0
 30 31  1  0  0  0  0
 30 32  1  0  0  0  0
 30 33  1  0  0  0  0
  6  8  1  0  0  0  0
 10 11  1  0  0  0  0
 17 18  1  0  0  0  0
 28 29  2  0  0  0  0
M  END
>  <MolRegNo>
1575111

>  <m>
=

>  <Value>
6

>  <Unit>
nM

>  <Type>
IC50

>  <pValue>
8.22

>  <Ligand Efficiency>
0

>  <Binding Efficiency>
0

>  <Surface Efficiency>
0

>  <Assay Index>
791158

>  <Assay Category>


>  <Assay Organism>
Homo sapiens

>  <Target ID>
17045

>  <Target Name>
Cytochrome P450 3A4

>  <Target Organism>
Homo sapiens

>  <Target Description>
Target is a single protein chain

>  <Sequence Accession>
P08684

>  <Reference>
Bioorg Med Chem 21 (17), 4904-4913 (2013)

>  <Pubmed ID>
23896611

>  <DOI>
10.1016/j.bmc.2013.06.067

$$$$
1576340
Actelion Java MolfileCreator 1.0

 33 37  0  0  0  0  0  0  0  0999 V2000
    0.0000   -0.0000   -0.0000 F   0  0  0  0  0  0  0  0  0  0  0  0
   -0.4759    1.4397   -0.0000 C   0  0  0  0  0  0  0  0  0  0  0  0
    0.5235    2.5700   -0.0000 F   0  0  0  0  0  0  0  0  0  0  0  0
    0.9519    1.0708   -0.0000 F   0  0  0  0  0  0  0  0  0  0  0  0
   -1.9513    1.7728   -0.0000 C   0  0  0  0  0  0  0  0  0  0  0  0
   -2.9745    0.6663   -0.0000 C   0  0  0  0  0  0  0  0  0  0  0  0
   -2.4272    3.2125   -0.0000 C   0  0  0  0  0  0  0  0  0  0  0  0
   -4.4499    0.9875   -0.0000 C   0  0  0  0  0  0  0  0  0  0  0  0
   -2.5343   -0.7496   -0.0000 C   0  0  0  0  0  0  0  0  0  0  0  0
   -3.9026    3.5456   -0.0000 C   0  0  0  0  0  0  0  0  0  0  0  0
   -4.9258    2.4272   -0.0000 C   0  0  0  0  0  0  0  0  0  0  0  0
   -1.0827   -1.0589   -0.0000 O   0  0  0  0  0  0  0  0  0  0  0  0
   -3.5456   -1.8442   -0.0000 C   0  0  0  0  0  0  0  0  0  0  0  0
   -0.6425   -2.4629   -0.0000 C   0  0  0  0  0  0  0  0  0  0  0  0
   -5.0567   -1.8323   -0.0000 N   0  0  0  0  0  0  0  0  0  0  0  0
   -3.1054   -3.2482   -0.0000 N   0  0  0  0  0  0  0  0  0  0  0  0
   -1.6538   -3.5575   -0.0000 C   0  0  0  0  0  0  0  0  0  0  0  0
   -5.5326   -3.2482   -0.0000 C   0  0  0  0  0  0  0  0  0  0  0  0
   -4.3190   -4.1287   -0.0000 N   0  0  0  0  0  0  0  0  0  0  0  0
   -6.8771   -3.9264   -0.0000 C   0  0  0  0  0  0  0  0  0  0  0  0
   -6.8890   -5.4256   -0.0000 C   0  0  0  0  0  0  0  0  0  0  0  0
   -8.1859   -3.1649   -0.0000 C   0  0  0  0  0  0  0  0  0  0  0  0
   -8.2097   -6.1632   -0.0000 C   0  0  0  0  0  0  0  0  0  0  0  0
   -9.4947   -3.9026   -0.0000 C   0  0  0  0  0  0  0  0  0  0  0  0
   -8.2216   -7.6505   -0.0000 O   0  0  0  0  0  0  0  0  0  0  0  0
   -9.5185   -5.4018   -0.0000 C   0  0  0  0  0  0  0  0  0  0  0  0
   -6.9366   -8.3882   -0.0000 C   0  0  0  0  0  0  0  0  0  0  0  0
  -10.8273   -6.1394   -0.0000 N   0  0  0  0  0  0  0  0  0  0  0  0
  -12.2551   -5.6159   -0.0000 C   0  0  0  0  0  0  0  0  0  0  0  0
  -10.8868   -7.6267   -0.0000 C   0  0  0  0  0  0  0  0  0  0  0  0
  -13.1831   -6.7938   -0.0000 N   0  0  0  0  0  0  0  0  0  0  0  0
  -12.3384   -8.0312   -0.0000 C   0  0  0  0  0  0  0  0  0  0  0  0
  -12.8619   -9.4352   -0.0000 C   0  0  0  0  0  0  0  0  0  0  0  0
  1  2  1  0  0  0  0
  2  3  1  0  0  0  0
  2  4  1  0  0  0  0
  2  5  1  0  0  0  0
  5  6  2  0  0  0  0
  5  7  1  0  0  0  0
  6  8  1  0  0  0  0
  9  6  1  1  0  0  0
  7 10  2  0  0  0  0
  8 11  2  0  0  0  0
  9 12  1  0  0  0  0
  9 13  1  0  0  0  0
 12 14  1  0  0  0  0
 13 15  2  0  0  0  0
 13 16  1  0  0  0  0
 14 17  1  0  0  0  0
 15 18  1  0  0  0  0
 16 19  1  0  0  0  0
 18 20  1  0  0  0  0
 20 21  2  0  0  0  0
 20 22  1  0  0  0  0
 21 23  1  0  0  0  0
 22 24  2  0  0  0  0
 23 25  1  0  0  0  0
 23 26  2  0  0  0  0
 25 27  1  0  0  0  0
 26 28  1  0  0  0  0
 28 29  1  0  0  0  0
 28 30  1  0  0  0  0
 29 31  2  0  0  0  0
 30 32  2  0  0  0  0
 32 33  1  0  0  0  0
 10 11  1  0  0  0  0
 16 17  1  0  0  0  0
 18 19  2  0  0  0  0
 24 26  1  0  0  0  0
 31 32  1  0  0  0  0
M  END
>  <MolRegNo>
1576340

>  <m>
=

>  <Value>
1100

>  <Unit>
nM

>  <Type>
IC50

>  <pValue>
5.96

>  <Ligand Efficiency>
0

>  <Binding Efficiency>
0

>  <Surface Efficiency>
0

>  <Assay Index>
790733

>  <Assay Category>


>  <Assay Organism>
Homo sapiens

>  <Target ID>
17045

>  <Target Name>
Cytochrome P450 3A4

>  <Target Organism>
Homo sapiens

>  <Target Description>
Target is a single protein chain

>  <Sequence Accession>
P08684

>  <Reference>
Bioorg Med Chem Lett 23 (17), 4794-4800 (2013)

>  <Pubmed ID>
23890837

>  <DOI>
10.1016/j.bmcl.2013.06.100

$$$$
1576339
Actelion Java MolfileCreator 1.0

 33 37  0  0  0  0  0  0  0  0999 V2000
    0.0000   -0.0000   -0.0000 F   0  0  0  0  0  0  0  0  0  0  0  0
   -0.4761    1.4401   -0.0000 C   0  0  0  0  0  0  0  0  0  0  0  0
    0.5237    2.5707   -0.0000 F   0  0  0  0  0  0  0  0  0  0  0  0
    0.9521    1.0711   -0.0000 F   0  0  0  0  0  0  0  0  0  0  0  0
   -1.9518    1.7733   -0.0000 C   0  0  0  0  0  0  0  0  0  0  0  0
   -2.9753    0.6665   -0.0000 C   0  0  0  0  0  0  0  0  0  0  0  0
   -2.4279    3.2133   -0.0000 C   0  0  0  0  0  0  0  0  0  0  0  0
   -4.4511    0.9878   -0.0000 C   0  0  0  0  0  0  0  0  0  0  0  0
   -2.5350   -0.7498   -0.0000 C   0  0  0  0  0  0  0  0  0  0  0  0
   -3.9036    3.5466   -0.0000 C   0  0  0  0  0  0  0  0  0  0  0  0
   -4.9271    2.4279   -0.0000 C   0  0  0  0  0  0  0  0  0  0  0  0
   -3.5466   -1.8447   -0.0000 C   0  0  0  0  0  0  0  0  0  0  0  0
   -1.0830   -1.0592   -0.0000 C   0  0  0  0  0  0  0  0  0  0  0  0
   -5.0580   -1.8328   -0.0000 N   0  0  0  0  0  0  0  0  0  0  0  0
   -3.1062   -3.2490   -0.0000 N   0  0  0  0  0  0  0  0  0  0  0  0
   -0.6427   -2.4636   -0.0000 C   0  0  0  0  0  0  0  0  0  0  0  0
   -5.5341   -3.2490   -0.0000 C   0  0  0  0  0  0  0  0  0  0  0  0
   -4.3202   -4.1297   -0.0000 N   0  0  0  0  0  0  0  0  0  0  0  0
   -1.6662   -3.5466   -0.0000 C   0  0  0  0  0  0  0  0  0  0  0  0
   -6.8789   -3.9274   -0.0000 C   0  0  0  0  0  0  0  0  0  0  0  0
   -6.8908   -5.4270   -0.0000 C   0  0  0  0  0  0  0  0  0  0  0  0
   -8.1881   -3.1657   -0.0000 C   0  0  0  0  0  0  0  0  0  0  0  0
   -8.2119   -6.1649   -0.0000 C   0  0  0  0  0  0  0  0  0  0  0  0
   -9.4972   -3.9036   -0.0000 C   0  0  0  0  0  0  0  0  0  0  0  0
   -8.2238   -7.6525   -0.0000 O   0  0  0  0  0  0  0  0  0  0  0  0
   -9.5210   -5.4032   -0.0000 C   0  0  0  0  0  0  0  0  0  0  0  0
   -6.9384   -8.3904   -0.0000 C   0  0  0  0  0  0  0  0  0  0  0  0
  -10.8302   -6.1411   -0.0000 N   0  0  0  0  0  0  0  0  0  0  0  0
  -12.2583   -5.6174   -0.0000 C   0  0  0  0  0  0  0  0  0  0  0  0
  -10.8897   -7.6287   -0.0000 C   0  0  0  0  0  0  0  0  0  0  0  0
  -13.1866   -6.7956   -0.0000 N   0  0  0  0  0  0  0  0  0  0  0  0
  -12.3416   -8.0334   -0.0000 C   0  0  0  0  0  0  0  0  0  0  0  0
  -12.8653   -9.4377   -0.0000 C   0  0  0  0  0  0  0  0  0  0  0  0
  1  2  1  0  0  0  0
  2  3  1  0  0  0  0
  2  4  1  0  0  0  0
  2  5  1  0  0  0  0
  5  6  2  0  0  0  0
  5  7  1  0  0  0  0
  6  8  1  0  0  0  0
  9  6  1  1  0  0  0
  7 10  2  0  0  0  0
  8 11  2  0  0  0  0
  9 12  1  0  0  0  0
  9 13  1  0  0  0  0
 12 14  2  0  0  0  0
 12 15  1  0  0  0  0
 13 16  1  0  0  0  0
 14 17  1  0  0  0  0
 15 18  1  0  0  0  0
 15 19  1  0  0  0  0
 17 20  1  0  0  0  0
 20 21  2  0  0  0  0
 20 22  1  0  0  0  0
 21 23  1  0  0  0  0
 22 24  2  0  0  0  0
 23 25  1  0  0  0  0
 23 26  2  0  0  0  0
 25 27  1  0  0  0  0
 26 28  1  0  0  0  0
 28 29  1  0  0  0  0
 28 30  1  0  0  0  0
 29 31  2  0  0  0  0
 30 32  2  0  0  0  0
 32 33  1  0  0  0  0
 10 11  1  0  0  0  0
 16 19  1  0  0  0  0
 17 18  2  0  0  0  0
 24 26  1  0  0  0  0
 31 32  1  0  0  0  0
M  END
>  <MolRegNo>
1576339

>  <m>
=

>  <Value>
100

>  <Unit>
nM

>  <Type>
IC50

>  <pValue>
7

>  <Ligand Efficiency>
0

>  <Binding Efficiency>
0

>  <Surface Efficiency>
0

>  <Assay Index>
790733

>  <Assay Category>


>  <Assay Organism>
Homo sapiens

>  <Target ID>
17045

>  <Target Name>
Cytochrome P450 3A4

>  <Target Organism>
Homo sapiens

>  <Target Description>
Target is a single protein chain

>  <Sequence Accession>
P08684

>  <Reference>
Bioorg Med Chem Lett 23 (17), 4794-4800 (2013)

>  <Pubmed ID>
23890837

>  <DOI>
10.1016/j.bmcl.2013.06.100

$$$$
1576337
Actelion Java MolfileCreator 1.0

 31 35  0  0  0  0  0  0  0  0999 V2000
    0.0000   -0.0000   -0.0000 F   0  0  0  0  0  0  0  0  0  0  0  0
    0.4537   -1.4207   -0.0000 C   0  0  0  0  0  0  0  0  0  0  0  0
    1.9102   -1.7311   -0.0000 C   0  0  0  0  0  0  0  0  0  0  0  0
   -0.5731   -2.5310   -0.0000 C   0  0  0  0  0  0  0  0  0  0  0  0
    2.3639   -3.1519   -0.0000 C   0  0  0  0  0  0  0  0  0  0  0  0
   -0.1194   -3.9518   -0.0000 C   0  0  0  0  0  0  0  0  0  0  0  0
    1.3372   -4.2622   -0.0000 C   0  0  0  0  0  0  0  0  0  0  0  0
    3.8205   -3.4623   -0.0000 C   0  0  0  0  0  0  0  0  0  0  0  0
    1.7789   -5.6829   -0.0000 C   0  0  0  0  0  0  0  0  0  0  0  0
    0.7641   -6.7813   -0.0000 C   0  0  0  0  0  0  0  0  0  0  0  0
    3.2354   -5.9933   -0.0000 C   0  0  0  0  0  0  0  0  0  0  0  0
   -0.7522   -6.7694   -0.0000 N   0  0  0  0  0  0  0  0  0  0  0  0
    1.2058   -8.1901   -0.0000 N   0  0  0  0  0  0  0  0  0  0  0  0
    3.6772   -7.4021   -0.0000 C   0  0  0  0  0  0  0  0  0  0  0  0
   -1.2297   -8.1901   -0.0000 C   0  0  0  0  0  0  0  0  0  0  0  0
   -0.0119   -9.0736   -0.0000 N   0  0  0  0  0  0  0  0  0  0  0  0
    2.6504   -8.4886   -0.0000 C   0  0  0  0  0  0  0  0  0  0  0  0
   -2.5788   -8.8706   -0.0000 C   0  0  0  0  0  0  0  0  0  0  0  0
   -2.5907  -10.3749   -0.0000 C   0  0  0  0  0  0  0  0  0  0  0  0
   -3.8921   -8.1065   -0.0000 C   0  0  0  0  0  0  0  0  0  0  0  0
   -3.9160  -11.1151   -0.0000 C   0  0  0  0  0  0  0  0  0  0  0  0
   -5.2054   -8.8467   -0.0000 C   0  0  0  0  0  0  0  0  0  0  0  0
   -3.9279  -12.6075   -0.0000 O   0  0  0  0  0  0  0  0  0  0  0  0
   -5.2292  -10.3510   -0.0000 C   0  0  0  0  0  0  0  0  0  0  0  0
   -2.6385  -13.3477   -0.0000 C   0  0  0  0  0  0  0  0  0  0  0  0
   -6.5425  -11.0912   -0.0000 N   0  0  0  0  0  0  0  0  0  0  0  0
   -7.9752  -10.5659   -0.0000 C   0  0  0  0  0  0  0  0  0  0  0  0
   -6.6022  -12.5836   -0.0000 C   0  0  0  0  0  0  0  0  0  0  0  0
   -8.9064  -11.7479   -0.0000 N   0  0  0  0  0  0  0  0  0  0  0  0
   -8.0588  -12.9895   -0.0000 C   0  0  0  0  0  0  0  0  0  0  0  0
   -8.5841  -14.3983   -0.0000 C   0  0  0  0  0  0  0  0  0  0  0  0
  1  2  1  0  0  0  0
  2  3  2  0  0  0  0
  2  4  1  0  0  0  0
  3  5  1  0  0  0  0
  4  6  2  0  0  0  0
  5  7  2  0  0  0  0
  5  8  1  0  0  0  0
  9  7  1  1  0  0  0
  9 10  1  0  0  0  0
  9 11  1  0  0  0  0
 10 12  2  0  0  0  0
 10 13  1  0  0  0  0
 11 14  1  0  0  0  0
 12 15  1  0  0  0  0
 13 16  1  0  0  0  0
 13 17  1  0  0  0  0
 15 18  1  0  0  0  0
 18 19  2  0  0  0  0
 18 20  1  0  0  0  0
 19 21  1  0  0  0  0
 20 22  2  0  0  0  0
 21 23  1  0  0  0  0
 21 24  2  0  0  0  0
 23 25  1  0  0  0  0
 24 26  1  0  0  0  0
 26 27  1  0  0  0  0
 26 28  1  0  0  0  0
 27 29  2  0  0  0  0
 28 30  2  0  0  0  0
 30 31  1  0  0  0  0
  6  7  1  0  0  0  0
 14 17  1  0  0  0  0
 15 16  2  0  0  0  0
 22 24  1  0  0  0  0
 29 30  1  0  0  0  0
M  END
>  <MolRegNo>
1576337

>  <m>
=

>  <Value>
6940

>  <Unit>
nM

>  <Type>
IC50

>  <pValue>
5.16

>  <Ligand Efficiency>
0

>  <Binding Efficiency>
0

>  <Surface Efficiency>
0

>  <Assay Index>
790733

>  <Assay Category>


>  <Assay Organism>
Homo sapiens

>  <Target ID>
17045

>  <Target Name>
Cytochrome P450 3A4

>  <Target Organism>
Homo sapiens

>  <Target Description>
Target is a single protein chain

>  <Sequence Accession>
P08684

>  <Reference>
Bioorg Med Chem Lett 23 (17), 4794-4800 (2013)

>  <Pubmed ID>
23890837

>  <DOI>
10.1016/j.bmcl.2013.06.100

$$$$
1567857
Actelion Java MolfileCreator 1.0

 27 31  0  0  0  0  0  0  0  0999 V2000
    0.0000   -0.0000   -0.0000 O   0  0  0  0  0  0  0  0  0  0  0  0
    0.0000   -1.4849   -0.0000 C   0  0  0  0  0  0  0  0  0  0  0  0
    1.2902   -2.2152   -0.0000 N   0  0  0  0  0  0  0  0  0  0  0  0
   -1.3024   -2.2396   -0.0000 C   0  0  0  0  0  0  0  0  0  0  0  0
    2.5804   -1.4606   -0.0000 C   0  0  0  0  0  0  0  0  0  0  0  0
    1.2780   -3.7245   -0.0000 C   0  0  0  0  0  0  0  0  0  0  0  0
   -2.3004   -3.4689   -0.0000 C   0  0  0  0  0  0  0  0  0  0  0  0
   -2.6778   -2.5682   -0.0000 C   0  0  0  0  0  0  0  0  0  0  0  0
   -1.3024   -0.7303   -0.0000 C   0  0  0  0  0  0  0  0  0  0  0  0
    3.8706   -2.2031   -0.0000 C   0  0  0  0  0  0  0  0  0  0  0  0
    2.5682    0.0487   -0.0000 C   0  0  0  0  0  0  0  0  0  0  0  0
    2.5682   -4.4548   -0.0000 C   0  0  0  0  0  0  0  0  0  0  0  0
   -3.6880   -2.9090   -0.0000 C   0  0  0  0  0  0  0  0  0  0  0  0
   -3.9801   -2.0813   -0.0000 C   0  0  0  0  0  0  0  0  0  0  0  0
   -2.6778   -0.1582   -0.0000 C   0  0  0  0  0  0  0  0  0  0  0  0
    3.8584   -3.7002   -0.0000 N   0  0  0  0  0  0  0  0  0  0  0  0
   -5.1608   -3.3107   -0.0000 C   0  0  0  0  0  0  0  0  0  0  0  0
   -3.7002   -1.3510   -0.0000 C   0  0  0  0  0  0  0  0  0  0  0  0
   -4.0045   -0.6208   -0.0000 C   0  0  0  0  0  0  0  0  0  0  0  0
    5.1486   -4.4426   -0.0000 C   0  0  0  0  0  0  0  0  0  0  0  0
    5.1364   -5.9276   -0.0000 C   0  0  0  0  0  0  0  0  0  0  0  0
    6.4266   -3.6758   -0.0000 C   0  0  0  0  0  0  0  0  0  0  0  0
    6.4144   -6.6700   -0.0000 N   0  0  0  0  0  0  0  0  0  0  0  0
    3.8219   -6.6700   -0.0000 C   0  0  0  0  0  0  0  0  0  0  0  0
    7.7168   -4.4061   -0.0000 C   0  0  0  0  0  0  0  0  0  0  0  0
    7.7046   -5.9154   -0.0000 C   0  0  0  0  0  0  0  0  0  0  0  0
    2.5073   -7.4003   -0.0000 N   0  0  0  0  0  0  0  0  0  0  0  0
  1  2  2  0  0  0  0
  2  3  1  0  0  0  0
  2  4  1  0  0  0  0
  3  5  1  0  0  0  0
  3  6  1  0  0  0  0
  4  7  1  0  0  0  0
  4  8  1  0  0  0  0
  4  9  1  0  0  0  0
  5 10  1  0  0  0  0
  5 11  1  1  0  0  0
  6 12  1  0  0  0  0
  7 13  1  0  0  0  0
  8 14  1  0  0  0  0
  9 15  1  0  0  0  0
 10 16  1  0  0  0  0
 13 17  1  0  0  0  0
 13 18  1  0  0  0  0
 14 19  1  0  0  0  0
 16 20  1  0  0  0  0
 20 21  2  0  0  0  0
 20 22  1  0  0  0  0
 21 23  1  0  0  0  0
 21 24  1  0  0  0  0
 22 25  2  0  0  0  0
 23 26  2  0  0  0  0
 24 27  3  0  0  0  0
 12 16  1  0  0  0  0
 14 17  1  0  0  0  0
 15 18  1  0  0  0  0
 15 19  1  0  0  0  0
 25 26  1  0  0  0  0
M  END
>  <MolRegNo>
1567857

>  <m>
=

>  <Value>
7000

>  <Unit>
nM

>  <Type>
IC50

>  <pValue>
5.16

>  <Ligand Efficiency>
0

>  <Binding Efficiency>
0

>  <Surface Efficiency>
0

>  <Assay Index>
793562

>  <Assay Category>


>  <Assay Organism>
Homo sapiens

>  <Target ID>
17045

>  <Target Name>
Cytochrome P450 3A4

>  <Target Organism>
Homo sapiens

>  <Target Description>
Target is a single protein chain

>  <Sequence Accession>
P08684

>  <Reference>
Bioorg Med Chem Lett 23 (18), 5091-5096 (2013)

>  <Pubmed ID>
23932792

>  <DOI>
10.1016/j.bmcl.2013.07.029

$$$$
1577134
Actelion Java MolfileCreator 1.0

 26 31  0  0  1  0  0  0  0  0999 V2000
    0.0000   -0.0000   -0.0000 O   0  0  0  0  0  0  0  0  0  0  0  0
   -0.0375   -1.5009   -0.0000 C   0  0  0  0  0  0  0  0  0  0  0  0
    1.2507   -2.2638   -0.0000 N   0  0  0  0  0  0  0  0  0  0  0  0
   -1.3633   -2.2263   -0.0000 C   0  0  0  0  0  0  0  0  0  0  0  0
    1.3758   -3.7522   -0.0000 C   0  0  0  0  0  0  0  0  0  0  0  0
    2.5890   -1.6510   -0.0000 C   0  0  0  0  0  0  0  0  0  0  0  0
   -1.5134   -3.8022   -0.0000 C   0  0  0  0  0  0  0  0  0  0  0  0
   -2.3264   -3.2519   -0.0000 C   0  0  0  0  0  0  0  0  0  0  0  0
   -2.1888   -0.9631   -0.0000 C   0  0  0  0  0  0  0  0  0  0  0  0
    2.8392   -4.0524   -0.0000 C   0  0  0  0  0  0  0  0  0  0  0  0
    3.5896   -2.7641   -0.0000 C   0  0  0  0  0  0  0  0  0  0  0  0
   -2.9768   -4.0899   -0.0000 C   0  0  0  0  0  0  0  0  0  0  0  0
   -3.6897   -3.5521   -0.0000 C   0  0  0  0  0  0  0  0  0  0  0  0
   -3.6521   -1.2382   -0.0000 C   0  0  0  0  0  0  0  0  0  0  0  0
    3.8398   -5.1655   -0.0000 C   0  0  0  0  0  0  0  0  0  0  0  0
    5.0530   -3.0768   -0.0000 C   0  0  0  0  0  0  0  0  0  0  0  0
   -3.9898   -5.2281   -0.0000 C   0  0  0  0  0  0  0  0  0  0  0  0
   -3.8523   -2.7891   -0.0000 C   0  0  0  0  0  0  0  0  0  0  0  0
   -4.5152   -2.3389   -0.0000 C   0  0  0  0  0  0  0  0  0  0  0  0
    5.1906   -4.5402   -0.0000 N   0  0  0  0  0  0  0  0  0  0  0  0
    6.4413   -5.3531   -0.0000 C   0  0  0  0  0  0  0  0  0  0  0  0
    7.7796   -4.6527   -0.0000 N   0  0  0  0  0  0  0  0  0  0  0  0
    6.3412   -6.8540   -0.0000 C   0  0  0  0  0  0  0  0  0  0  0  0
    9.0303   -5.4657   -0.0000 C   0  0  0  0  0  0  0  0  0  0  0  0
    7.5920   -7.6545   -0.0000 C   0  0  0  0  0  0  0  0  0  0  0  0
    8.9303   -6.9666   -0.0000 C   0  0  0  0  0  0  0  0  0  0  0  0
  1  2  2  0  0  0  0
  2  3  1  0  0  0  0
  2  4  1  0  0  0  0
  3  5  1  0  0  0  0
  3  6  1  0  0  0  0
  4  7  1  0  0  0  0
  4  8  1  0  0  0  0
  4  9  1  0  0  0  0
 10  5  1  6  0  0  0
 11  6  1  6  0  0  0
  7 12  1  0  0  0  0
  8 13  1  0  0  0  0
  9 14  1  0  0  0  0
 10 15  1  0  0  0  0
 11 16  1  0  0  0  0
 12 17  1  0  0  0  0
 12 18  1  0  0  0  0
 13 19  1  0  0  0  0
 15 20  1  0  0  0  0
 20 21  1  0  0  0  0
 21 22  2  0  0  0  0
 21 23  1  0  0  0  0
 22 24  1  0  0  0  0
 23 25  2  0  0  0  0
 24 26  2  0  0  0  0
 10 11  1  0  0  0  0
 13 17  1  0  0  0  0
 14 18  1  0  0  0  0
 14 19  1  0  0  0  0
 16 20  1  0  0  0  0
 25 26  1  0  0  0  0
M  END
>  <MolRegNo>
1577134

>  <m>
=

>  <Value>
6200

>  <Unit>
nM

>  <Type>
IC50

>  <pValue>
5.21

>  <Ligand Efficiency>
0

>  <Binding Efficiency>
0

>  <Surface Efficiency>
0

>  <Assay Index>
793562

>  <Assay Category>


>  <Assay Organism>
Homo sapiens

>  <Target ID>
17045

>  <Target Name>
Cytochrome P450 3A4

>  <Target Organism>
Homo sapiens

>  <Target Description>
Target is a single protein chain

>  <Sequence Accession>
P08684

>  <Reference>
Bioorg Med Chem Lett 23 (18), 5091-5096 (2013)

>  <Pubmed ID>
23932792

>  <DOI>
10.1016/j.bmcl.2013.07.029

$$$$
1577724
Actelion Java MolfileCreator 1.0

 24 26  0  0  0  0  0  0  0  0999 V2000
    0.0000   -0.0000   -0.0000 S   0  0  0  0  0  0  0  0  0  0  0  0
    0.8721    1.2257   -0.0000 C   0  0  0  0  0  0  0  0  0  0  0  0
   -1.4261    0.4832   -0.0000 C   0  0  0  0  0  0  0  0  0  0  0  0
   -0.0118    2.4396   -0.0000 N   0  0  0  0  0  0  0  0  0  0  0  0
    2.3336    1.2375   -0.0000 N   0  0  0  0  0  0  0  0  0  0  0  0
   -1.4379    1.9918   -0.0000 C   0  0  0  0  0  0  0  0  0  0  0  0
   -2.7343   -0.2357   -0.0000 C   0  0  0  0  0  0  0  0  0  0  0  0
    3.0761    2.5575   -0.0000 C   0  0  0  0  0  0  0  0  0  0  0  0
   -2.7461    2.7461   -0.0000 C   0  0  0  0  0  0  0  0  0  0  0  0
   -4.0307    0.5186   -0.0000 C   0  0  0  0  0  0  0  0  0  0  0  0
    2.3218    3.8539   -0.0000 O   0  0  0  0  0  0  0  0  0  0  0  0
    4.5611    2.5693   -0.0000 C   0  0  0  0  0  0  0  0  0  0  0  0
   -4.0425    2.0154   -0.0000 C   0  0  0  0  0  0  0  0  0  0  0  0
   -5.3507   -0.2239   -0.0000 C   0  0  0  0  0  0  0  0  0  0  0  0
   -5.3625   -1.6971   -0.0000 C   0  0  0  0  0  0  0  0  0  0  0  0
   -6.6707    0.5421   -0.0000 C   0  0  0  0  0  0  0  0  0  0  0  0
   -6.6825   -2.4161   -0.0000 N   0  0  0  0  0  0  0  0  0  0  0  0
   -7.9672   -0.1886   -0.0000 C   0  0  0  0  0  0  0  0  0  0  0  0
   -7.9789   -1.6618   -0.0000 C   0  0  0  0  0  0  0  0  0  0  0  0
   -9.2872    0.5775   -0.0000 C   0  0  0  0  0  0  0  0  0  0  0  0
   -9.2989   -2.4043   -0.0000 N   0  0  0  0  0  0  0  0  0  0  0  0
  -10.5954   -0.1532   -0.0000 F   0  0  0  0  0  0  0  0  0  0  0  0
   -9.2989    2.0861   -0.0000 F   0  0  0  0  0  0  0  0  0  0  0  0
  -10.5954    1.3318   -0.0000 F   0  0  0  0  0  0  0  0  0  0  0  0
  1  2  1  0  0  0  0
  1  3  1  0  0  0  0
  2  4  2  0  0  0  0
  2  5  1  0  0  0  0
  3  6  2  0  0  0  0
  3  7  1  0  0  0  0
  5  8  1  0  0  0  0
  6  9  1  0  0  0  0
  7 10  2  0  0  0  0
  8 11  2  0  0  0  0
  8 12  1  0  0  0  0
  9 13  2  0  0  0  0
 10 14  1  0  0  0  0
 14 15  2  0  0  0  0
 14 16  1  0  0  0  0
 15 17  1  0  0  0  0
 16 18  2  0  0  0  0
 17 19  2  0  0  0  0
 18 20  1  0  0  0  0
 19 21  1  0  0  0  0
 20 22  1  0  0  0  0
 20 23  1  0  0  0  0
 20 24  1  0  0  0  0
  4  6  1  0  0  0  0
 10 13  1  0  0  0  0
 18 19  1  0  0  0  0
M  END
>  <MolRegNo>
1577724

>  <m>
=

>  <Value>
800

>  <Unit>
nM

>  <Type>
IC50

>  <pValue>
6.1

>  <Ligand Efficiency>
0

>  <Binding Efficiency>
0

>  <Surface Efficiency>
0

>  <Assay Index>
793318

>  <Assay Category>


>  <Assay Organism>
Homo sapiens

>  <Target ID>
17045

>  <Target Name>
Cytochrome P450 3A4

>  <Target Organism>
Homo sapiens

>  <Target Description>
Target is a single protein chain

>  <Sequence Accession>
P08684

>  <Reference>
Bioorg Med Chem Lett 23 (16), 4652-4656 (2013)

>  <Pubmed ID>
23820386

>  <DOI>
10.1016/j.bmcl.2013.06.010

$$$$
1577722
Actelion Java MolfileCreator 1.0

 20 22  0  0  0  0  0  0  0  0999 V2000
    0.0000   -0.0000   -0.0000 S   0  0  0  0  0  0  0  0  0  0  0  0
    0.8595    1.2534   -0.0000 C   0  0  0  0  0  0  0  0  0  0  0  0
   -1.4444    0.4656   -0.0000 C   0  0  0  0  0  0  0  0  0  0  0  0
   -0.0358    2.4352   -0.0000 N   0  0  0  0  0  0  0  0  0  0  0  0
    2.3158    1.2654   -0.0000 N   0  0  0  0  0  0  0  0  0  0  0  0
   -1.4564    1.9697   -0.0000 C   0  0  0  0  0  0  0  0  0  0  0  0
   -2.7456   -0.2984   -0.0000 C   0  0  0  0  0  0  0  0  0  0  0  0
    3.0560    2.5785   -0.0000 C   0  0  0  0  0  0  0  0  0  0  0  0
   -2.7695    2.7337   -0.0000 C   0  0  0  0  0  0  0  0  0  0  0  0
   -4.0706    0.4656   -0.0000 C   0  0  0  0  0  0  0  0  0  0  0  0
    2.3039    3.8796   -0.0000 O   0  0  0  0  0  0  0  0  0  0  0  0
    4.5362    2.5904   -0.0000 C   0  0  0  0  0  0  0  0  0  0  0  0
   -4.0826    1.9935   -0.0000 C   0  0  0  0  0  0  0  0  0  0  0  0
   -5.3599   -0.2626   -0.0000 C   0  0  0  0  0  0  0  0  0  0  0  0
   -5.3718   -1.7667   -0.0000 C   0  0  0  0  0  0  0  0  0  0  0  0
   -6.6491    0.4894   -0.0000 C   0  0  0  0  0  0  0  0  0  0  0  0
   -6.6610   -2.4949   -0.0000 N   0  0  0  0  0  0  0  0  0  0  0  0
   -7.9383   -0.2746   -0.0000 C   0  0  0  0  0  0  0  0  0  0  0  0
   -7.9503   -1.7429   -0.0000 C   0  0  0  0  0  0  0  0  0  0  0  0
   -9.2753   -2.4949   -0.0000 N   0  0  0  0  0  0  0  0  0  0  0  0
  1  2  1  0  0  0  0
  1  3  1  0  0  0  0
  2  4  2  0  0  0  0
  2  5  1  0  0  0  0
  3  6  2  0  0  0  0
  3  7  1  0  0  0  0
  5  8  1  0  0  0  0
  6  9  1  0  0  0  0
  7 10  2  0  0  0  0
  8 11  2  0  0  0  0
  8 12  1  0  0  0  0
  9 13  2  0  0  0  0
 10 14  1  0  0  0  0
 14 15  2  0  0  0  0
 14 16  1  0  0  0  0
 15 17  1  0  0  0  0
 16 18  2  0  0  0  0
 17 19  2  0  0  0  0
 19 20  1  0  0  0  0
  4  6  1  0  0  0  0
 10 13  1  0  0  0  0
 18 19  1  0  0  0  0
M  END
>  <MolRegNo>
1577722

>  <m>
=

>  <Value>
50

>  <Unit>
nM

>  <Type>
IC50

>  <pValue>
7.3

>  <Ligand Efficiency>
0

>  <Binding Efficiency>
0

>  <Surface Efficiency>
0

>  <Assay Index>
793318

>  <Assay Category>


>  <Assay Organism>
Homo sapiens

>  <Target ID>
17045

>  <Target Name>
Cytochrome P450 3A4

>  <Target Organism>
Homo sapiens

>  <Target Description>
Target is a single protein chain

>  <Sequence Accession>
P08684

>  <Reference>
Bioorg Med Chem Lett 23 (16), 4652-4656 (2013)

>  <Pubmed ID>
23820386

>  <DOI>
10.1016/j.bmcl.2013.06.010

$$$$
1579481
Actelion Java MolfileCreator 1.0

 22 25  0  0  0  0  0  0  0  0999 V2000
    0.0000   -0.0000   -0.0000 Cl  0  0  0  0  0  0  0  0  0  0  0  0
   -0.0119   -1.4938   -0.0000 C   0  0  0  0  0  0  0  0  0  0  0  0
   -1.3279   -2.2289   -0.0000 C   0  0  0  0  0  0  0  0  0  0  0  0
    1.2804   -2.2289   -0.0000 C   0  0  0  0  0  0  0  0  0  0  0  0
   -1.3397   -3.7228   -0.0000 C   0  0  0  0  0  0  0  0  0  0  0  0
   -2.6439   -1.4701   -0.0000 C   0  0  0  0  0  0  0  0  0  0  0  0
    2.5727   -1.4701   -0.0000 C   0  0  0  0  0  0  0  0  0  0  0  0
    1.2686   -3.7228   -0.0000 C   0  0  0  0  0  0  0  0  0  0  0  0
   -0.0474   -4.4578   -0.0000 C   0  0  0  0  0  0  0  0  0  0  0  0
   -2.6557   -4.4578   -0.0000 C   0  0  0  0  0  0  0  0  0  0  0  0
   -3.9599   -2.2052   -0.0000 C   0  0  0  0  0  0  0  0  0  0  0  0
    3.8650   -2.2052   -0.0000 C   0  0  0  0  0  0  0  0  0  0  0  0
    2.5609    0.0474   -0.0000 C   0  0  0  0  0  0  0  0  0  0  0  0
   -3.9717   -3.6990   -0.0000 C   0  0  0  0  0  0  0  0  0  0  0  0
   -5.2759   -1.4464   -0.0000 O   0  0  0  0  0  0  0  0  0  0  0  0
    5.1573   -1.4464   -0.0000 C   0  0  0  0  0  0  0  0  0  0  0  0
    3.8532   -3.6990   -0.0000 C   0  0  0  0  0  0  0  0  0  0  0  0
    3.8532    0.8062   -0.0000 N   0  0  0  0  0  0  0  0  0  0  0  0
    5.1455    0.0711   -0.0000 C   0  0  0  0  0  0  0  0  0  0  0  0
    6.4496   -2.1815   -0.0000 C   0  0  0  0  0  0  0  0  0  0  0  0
    5.1455   -4.4341   -0.0000 C   0  0  0  0  0  0  0  0  0  0  0  0
    6.4378   -3.6753   -0.0000 C   0  0  0  0  0  0  0  0  0  0  0  0
  1  2  1  0  0  0  0
  2  3  1  0  0  0  0
  2  4  2  0  0  0  0
  3  5  1  0  0  0  0
  3  6  2  0  0  0  0
  4  7  1  0  0  0  0
  4  8  1  0  0  0  0
  5  9  1  0  0  0  0
  5 10  2  0  0  0  0
  6 11  1  0  0  0  0
  7 12  1  0  0  0  0
  7 13  2  0  0  0  0
 10 14  1  0  0  0  0
 11 15  1  0  0  0  0
 12 16  1  0  0  0  0
 12 17  2  0  0  0  0
 13 18  1  0  0  0  0
 16 19  1  0  0  0  0
 16 20  2  0  0  0  0
 17 21  1  0  0  0  0
 20 22  1  0  0  0  0
  8  9  2  0  0  0  0
 11 14  2  0  0  0  0
 18 19  2  0  0  0  0
 21 22  2  0  0  0  0
M  END
>  <MolRegNo>
1579481

>  <m>
=

>  <Value>
1739

>  <Unit>
nM

>  <Type>
IC50

>  <pValue>
5.76

>  <Ligand Efficiency>
0

>  <Binding Efficiency>
0

>  <Surface Efficiency>
0

>  <Assay Index>
793045

>  <Assay Category>


>  <Assay Organism>
Homo sapiens

>  <Target ID>
17045

>  <Target Name>
Cytochrome P450 3A4

>  <Target Organism>
Homo sapiens

>  <Target Description>
Target is a single protein chain

>  <Sequence Accession>
P08684

>  <Reference>
J Med Chem 56 (15), 6101-6107 (2013)

>  <Pubmed ID>
23859149

>  <DOI>
10.1021/jm400484p

$$$$
1579479
Actelion Java MolfileCreator 1.0

 18 20  0  0  0  0  0  0  0  0999 V2000
    0.0000   -0.0000   -0.0000 Cl  0  0  0  0  0  0  0  0  0  0  0  0
   -0.0118   -1.4907   -0.0000 C   0  0  0  0  0  0  0  0  0  0  0  0
   -1.3250   -2.2242   -0.0000 C   0  0  0  0  0  0  0  0  0  0  0  0
    1.2777   -2.2242   -0.0000 C   0  0  0  0  0  0  0  0  0  0  0  0
   -1.3369   -3.7149   -0.0000 C   0  0  0  0  0  0  0  0  0  0  0  0
   -2.6383   -1.4670   -0.0000 C   0  0  0  0  0  0  0  0  0  0  0  0
    2.5673   -1.4670   -0.0000 C   0  0  0  0  0  0  0  0  0  0  0  0
    1.2659   -3.7149   -0.0000 C   0  0  0  0  0  0  0  0  0  0  0  0
   -0.0473   -4.4602   -0.0000 C   0  0  0  0  0  0  0  0  0  0  0  0
   -2.6501   -4.4602   -0.0000 C   0  0  0  0  0  0  0  0  0  0  0  0
   -3.9515   -2.2005   -0.0000 C   0  0  0  0  0  0  0  0  0  0  0  0
    2.5555    0.0473   -0.0000 C   0  0  0  0  0  0  0  0  0  0  0  0
    3.8568   -2.2005   -0.0000 C   0  0  0  0  0  0  0  0  0  0  0  0
   -3.9633   -3.6912   -0.0000 C   0  0  0  0  0  0  0  0  0  0  0  0
   -5.2647   -1.4434   -0.0000 O   0  0  0  0  0  0  0  0  0  0  0  0
    3.8450    0.8045   -0.0000 N   0  0  0  0  0  0  0  0  0  0  0  0
    5.1464   -1.4434   -0.0000 N   0  0  0  0  0  0  0  0  0  0  0  0
    5.1346    0.0710   -0.0000 C   0  0  0  0  0  0  0  0  0  0  0  0
  1  2  1  0  0  0  0
  2  3  1  0  0  0  0
  2  4  2  0  0  0  0
  3  5  1  0  0  0  0
  3  6  2  0  0  0  0
  4  7  1  0  0  0  0
  4  8  1  0  0  0  0
  5  9  1  0  0  0  0
  5 10  2  0  0  0  0
  6 11  1  0  0  0  0
  7 12  2  0  0  0  0
  7 13  1  0  0  0  0
 10 14  1  0  0  0  0
 11 15  1  0  0  0  0
 12 16  1  0  0  0  0
 13 17  2  0  0  0  0
 16 18  2  0  0  0  0
  8  9  2  0  0  0  0
 11 14  2  0  0  0  0
 17 18  1  0  0  0  0
M  END
>  <MolRegNo>
1579479

>  <m>
=

>  <Value>
2145

>  <Unit>
nM

>  <Type>
IC50

>  <pValue>
5.67

>  <Ligand Efficiency>
0

>  <Binding Efficiency>
0

>  <Surface Efficiency>
0

>  <Assay Index>
793045

>  <Assay Category>


>  <Assay Organism>
Homo sapiens

>  <Target ID>
17045

>  <Target Name>
Cytochrome P450 3A4

>  <Target Organism>
Homo sapiens

>  <Target Description>
Target is a single protein chain

>  <Sequence Accession>
P08684

>  <Reference>
J Med Chem 56 (15), 6101-6107 (2013)

>  <Pubmed ID>
23859149

>  <DOI>
10.1021/jm400484p

$$$$
1579477
Actelion Java MolfileCreator 1.0

 19 21  0  0  0  0  0  0  0  0999 V2000
    0.0000   -0.0000   -0.0000 Cl  0  0  0  0  0  0  0  0  0  0  0  0
   -0.0118   -1.4909   -0.0000 C   0  0  0  0  0  0  0  0  0  0  0  0
   -1.3252   -2.2245   -0.0000 C   0  0  0  0  0  0  0  0  0  0  0  0
    1.2779   -2.2245   -0.0000 C   0  0  0  0  0  0  0  0  0  0  0  0
   -1.3371   -3.7154   -0.0000 C   0  0  0  0  0  0  0  0  0  0  0  0
   -2.6386   -1.4672   -0.0000 C   0  0  0  0  0  0  0  0  0  0  0  0
    2.5677   -1.4672   -0.0000 C   0  0  0  0  0  0  0  0  0  0  0  0
    1.2661   -3.7154   -0.0000 C   0  0  0  0  0  0  0  0  0  0  0  0
   -0.0473   -4.4608   -0.0000 C   0  0  0  0  0  0  0  0  0  0  0  0
   -2.6505   -4.4608   -0.0000 C   0  0  0  0  0  0  0  0  0  0  0  0
   -3.9521   -2.2008   -0.0000 C   0  0  0  0  0  0  0  0  0  0  0  0
    2.5558    0.0473   -0.0000 C   0  0  0  0  0  0  0  0  0  0  0  0
    3.8574   -2.2008   -0.0000 C   0  0  0  0  0  0  0  0  0  0  0  0
   -3.9639   -3.6917   -0.0000 C   0  0  0  0  0  0  0  0  0  0  0  0
   -5.2655   -1.4436   -0.0000 O   0  0  0  0  0  0  0  0  0  0  0  0
    3.8456    0.8164   -0.0000 N   0  0  0  0  0  0  0  0  0  0  0  0
    5.1471   -1.4436   -0.0000 C   0  0  0  0  0  0  0  0  0  0  0  0
    5.1353    0.0710   -0.0000 C   0  0  0  0  0  0  0  0  0  0  0  0
    6.4369   -2.1772   -0.0000 O   0  0  0  0  0  0  0  0  0  0  0  0
  1  2  1  0  0  0  0
  2  3  1  0  0  0  0
  2  4  2  0  0  0  0
  3  5  1  0  0  0  0
  3  6  2  0  0  0  0
  4  7  1  0  0  0  0
  4  8  1  0  0  0  0
  5  9  1  0  0  0  0
  5 10  2  0  0  0  0
  6 11  1  0  0  0  0
  7 12  2  0  0  0  0
  7 13  1  0  0  0  0
 10 14  1  0  0  0  0
 11 15  1  0  0  0  0
 12 16  1  0  0  0  0
 13 17  2  0  0  0  0
 16 18  2  0  0  0  0
 17 19  1  0  0  0  0
  8  9  2  0  0  0  0
 11 14  2  0  0  0  0
 17 18  1  0  0  0  0
M  END
>  <MolRegNo>
1579477

>  <m>
=

>  <Value>
5046

>  <Unit>
nM

>  <Type>
IC50

>  <pValue>
5.3

>  <Ligand Efficiency>
0

>  <Binding Efficiency>
0

>  <Surface Efficiency>
0

>  <Assay Index>
793045

>  <Assay Category>


>  <Assay Organism>
Homo sapiens

>  <Target ID>
17045

>  <Target Name>
Cytochrome P450 3A4

>  <Target Organism>
Homo sapiens

>  <Target Description>
Target is a single protein chain

>  <Sequence Accession>
P08684

>  <Reference>
J Med Chem 56 (15), 6101-6107 (2013)

>  <Pubmed ID>
23859149

>  <DOI>
10.1021/jm400484p

$$$$
1579476
Actelion Java MolfileCreator 1.0

 20 22  0  0  0  0  0  0  0  0999 V2000
    0.0000   -0.0000   -0.0000 Cl  0  0  0  0  0  0  0  0  0  0  0  0
   -0.0118   -1.4912   -0.0000 C   0  0  0  0  0  0  0  0  0  0  0  0
   -1.3255   -2.2250   -0.0000 C   0  0  0  0  0  0  0  0  0  0  0  0
    1.2782   -2.2250   -0.0000 C   0  0  0  0  0  0  0  0  0  0  0  0
   -1.3374   -3.7162   -0.0000 C   0  0  0  0  0  0  0  0  0  0  0  0
   -2.6392   -1.4676   -0.0000 C   0  0  0  0  0  0  0  0  0  0  0  0
    2.5682   -1.4676   -0.0000 C   0  0  0  0  0  0  0  0  0  0  0  0
    1.2664   -3.7162   -0.0000 C   0  0  0  0  0  0  0  0  0  0  0  0
   -0.0473   -4.4619   -0.0000 C   0  0  0  0  0  0  0  0  0  0  0  0
   -2.6511   -4.4619   -0.0000 C   0  0  0  0  0  0  0  0  0  0  0  0
   -3.9530   -2.2013   -0.0000 C   0  0  0  0  0  0  0  0  0  0  0  0
    2.5564    0.0473   -0.0000 C   0  0  0  0  0  0  0  0  0  0  0  0
    3.8583   -2.2013   -0.0000 C   0  0  0  0  0  0  0  0  0  0  0  0
   -3.9648   -3.6926   -0.0000 C   0  0  0  0  0  0  0  0  0  0  0  0
   -5.2667   -1.4439   -0.0000 O   0  0  0  0  0  0  0  0  0  0  0  0
    3.8464    0.8048   -0.0000 N   0  0  0  0  0  0  0  0  0  0  0  0
    5.1483   -1.4439   -0.0000 C   0  0  0  0  0  0  0  0  0  0  0  0
   -6.5804   -2.1777   -0.0000 C   0  0  0  0  0  0  0  0  0  0  0  0
    5.1365    0.0710   -0.0000 C   0  0  0  0  0  0  0  0  0  0  0  0
    6.4383   -2.1777   -0.0000 O   0  0  0  0  0  0  0  0  0  0  0  0
  1  2  1  0  0  0  0
  2  3  1  0  0  0  0
  2  4  2  0  0  0  0
  3  5  1  0  0  0  0
  3  6  2  0  0  0  0
  4  7  1  0  0  0  0
  4  8  1  0  0  0  0
  5  9  1  0  0  0  0
  5 10  2  0  0  0  0
  6 11  1  0  0  0  0
  7 12  2  0  0  0  0
  7 13  1  0  0  0  0
 10 14  1  0  0  0  0
 11 15  1  0  0  0  0
 12 16  1  0  0  0  0
 13 17  2  0  0  0  0
 15 18  1  0  0  0  0
 16 19  2  0  0  0  0
 17 20  1  0  0  0  0
  8  9  2  0  0  0  0
 11 14  2  0  0  0  0
 17 19  1  0  0  0  0
M  END
>  <MolRegNo>
1579476

>  <m>
=

>  <Value>
6720

>  <Unit>
nM

>  <Type>
IC50

>  <pValue>
5.17

>  <Ligand Efficiency>
0

>  <Binding Efficiency>
0

>  <Surface Efficiency>
0

>  <Assay Index>
793045

>  <Assay Category>


>  <Assay Organism>
Homo sapiens

>  <Target ID>
17045

>  <Target Name>
Cytochrome P450 3A4

>  <Target Organism>
Homo sapiens

>  <Target Description>
Target is a single protein chain

>  <Sequence Accession>
P08684

>  <Reference>
J Med Chem 56 (15), 6101-6107 (2013)

>  <Pubmed ID>
23859149

>  <DOI>
10.1021/jm400484p

$$$$
1579475
Actelion Java MolfileCreator 1.0

 20 22  0  0  0  0  0  0  0  0999 V2000
    0.0000   -0.0000   -0.0000 Cl  0  0  0  0  0  0  0  0  0  0  0  0
   -0.0118   -1.4927   -0.0000 C   0  0  0  0  0  0  0  0  0  0  0  0
   -1.3268   -2.2272   -0.0000 C   0  0  0  0  0  0  0  0  0  0  0  0
    1.2794   -2.2272   -0.0000 C   0  0  0  0  0  0  0  0  0  0  0  0
   -1.3387   -3.7199   -0.0000 C   0  0  0  0  0  0  0  0  0  0  0  0
   -2.6418   -1.4690   -0.0000 C   0  0  0  0  0  0  0  0  0  0  0  0
    2.5707   -1.4690   -0.0000 C   0  0  0  0  0  0  0  0  0  0  0  0
    1.2676   -3.7199   -0.0000 C   0  0  0  0  0  0  0  0  0  0  0  0
   -0.0474   -4.4544   -0.0000 C   0  0  0  0  0  0  0  0  0  0  0  0
   -2.6537   -4.4544   -0.0000 C   0  0  0  0  0  0  0  0  0  0  0  0
   -3.9568   -2.2035   -0.0000 C   0  0  0  0  0  0  0  0  0  0  0  0
    2.5589    0.0474   -0.0000 C   0  0  0  0  0  0  0  0  0  0  0  0
    3.8620   -2.2035   -0.0000 C   0  0  0  0  0  0  0  0  0  0  0  0
   -3.9687   -3.6962   -0.0000 C   0  0  0  0  0  0  0  0  0  0  0  0
   -5.2718   -1.4453   -0.0000 O   0  0  0  0  0  0  0  0  0  0  0  0
    3.8502    0.8056   -0.0000 N   0  0  0  0  0  0  0  0  0  0  0  0
    5.1533   -1.4453   -0.0000 C   0  0  0  0  0  0  0  0  0  0  0  0
    5.1415    0.0711   -0.0000 C   0  0  0  0  0  0  0  0  0  0  0  0
    6.4446   -2.1798   -0.0000 O   0  0  0  0  0  0  0  0  0  0  0  0
    7.7359   -1.4216   -0.0000 C   0  0  0  0  0  0  0  0  0  0  0  0
  1  2  1  0  0  0  0
  2  3  1  0  0  0  0
  2  4  2  0  0  0  0
  3  5  1  0  0  0  0
  3  6  2  0  0  0  0
  4  7  1  0  0  0  0
  4  8  1  0  0  0  0
  5  9  1  0  0  0  0
  5 10  2  0  0  0  0
  6 11  1  0  0  0  0
  7 12  2  0  0  0  0
  7 13  1  0  0  0  0
 10 14  1  0  0  0  0
 11 15  1  0  0  0  0
 12 16  1  0  0  0  0
 13 17  2  0  0  0  0
 16 18  2  0  0  0  0
 17 19  1  0  0  0  0
 19 20  1  0  0  0  0
  8  9  2  0  0  0  0
 11 14  2  0  0  0  0
 17 18  1  0  0  0  0
M  END
>  <MolRegNo>
1579475

>  <m>
=

>  <Value>
4196

>  <Unit>
nM

>  <Type>
IC50

>  <pValue>
5.38

>  <Ligand Efficiency>
0

>  <Binding Efficiency>
0

>  <Surface Efficiency>
0

>  <Assay Index>
793045

>  <Assay Category>


>  <Assay Organism>
Homo sapiens

>  <Target ID>
17045

>  <Target Name>
Cytochrome P450 3A4

>  <Target Organism>
Homo sapiens

>  <Target Description>
Target is a single protein chain

>  <Sequence Accession>
P08684

>  <Reference>
J Med Chem 56 (15), 6101-6107 (2013)

>  <Pubmed ID>
23859149

>  <DOI>
10.1021/jm400484p

$$$$
1579473
Actelion Java MolfileCreator 1.0

 19 21  0  0  0  0  0  0  0  0999 V2000
    0.0000   -0.0000   -0.0000 Cl  0  0  0  0  0  0  0  0  0  0  0  0
   -0.0118   -1.4926   -0.0000 C   0  0  0  0  0  0  0  0  0  0  0  0
   -1.3267   -2.2270   -0.0000 C   0  0  0  0  0  0  0  0  0  0  0  0
    1.2793   -2.2270   -0.0000 C   0  0  0  0  0  0  0  0  0  0  0  0
   -1.3386   -3.7196   -0.0000 C   0  0  0  0  0  0  0  0  0  0  0  0
   -2.6416   -1.4689   -0.0000 C   0  0  0  0  0  0  0  0  0  0  0  0
    2.5705   -1.4689   -0.0000 C   0  0  0  0  0  0  0  0  0  0  0  0
    1.2675   -3.7196   -0.0000 C   0  0  0  0  0  0  0  0  0  0  0  0
   -0.0474   -4.4540   -0.0000 C   0  0  0  0  0  0  0  0  0  0  0  0
   -2.6535   -4.4540   -0.0000 C   0  0  0  0  0  0  0  0  0  0  0  0
   -3.9565   -2.2033   -0.0000 C   0  0  0  0  0  0  0  0  0  0  0  0
    2.5587    0.0474   -0.0000 C   0  0  0  0  0  0  0  0  0  0  0  0
    3.8617   -2.2033   -0.0000 C   0  0  0  0  0  0  0  0  0  0  0  0
   -3.9683   -3.6959   -0.0000 C   0  0  0  0  0  0  0  0  0  0  0  0
   -5.2714   -1.4452   -0.0000 O   0  0  0  0  0  0  0  0  0  0  0  0
    3.8499    0.8055   -0.0000 N   0  0  0  0  0  0  0  0  0  0  0  0
    5.1529   -1.4452   -0.0000 C   0  0  0  0  0  0  0  0  0  0  0  0
    5.1411    0.0711   -0.0000 C   0  0  0  0  0  0  0  0  0  0  0  0
    6.4441   -2.1796   -0.0000 F   0  0  0  0  0  0  0  0  0  0  0  0
  1  2  1  0  0  0  0
  2  3  1  0  0  0  0
  2  4  2  0  0  0  0
  3  5  1  0  0  0  0
  3  6  2  0  0  0  0
  4  7  1  0  0  0  0
  4  8  1  0  0  0  0
  5  9  1  0  0  0  0
  5 10  2  0  0  0  0
  6 11  1  0  0  0  0
  7 12  2  0  0  0  0
  7 13  1  0  0  0  0
 10 14  1  0  0  0  0
 11 15  1  0  0  0  0
 12 16  1  0  0  0  0
 13 17  2  0  0  0  0
 16 18  2  0  0  0  0
 17 19  1  0  0  0  0
  8  9  2  0  0  0  0
 11 14  2  0  0  0  0
 17 18  1  0  0  0  0
M  END
>  <MolRegNo>
1579473

>  <m>
=

>  <Value>
3581

>  <Unit>
nM

>  <Type>
IC50

>  <pValue>
5.45

>  <Ligand Efficiency>
0

>  <Binding Efficiency>
0

>  <Surface Efficiency>
0

>  <Assay Index>
793045

>  <Assay Category>


>  <Assay Organism>
Homo sapiens

>  <Target ID>
17045

>  <Target Name>
Cytochrome P450 3A4

>  <Target Organism>
Homo sapiens

>  <Target Description>
Target is a single protein chain

>  <Sequence Accession>
P08684

>  <Reference>
J Med Chem 56 (15), 6101-6107 (2013)

>  <Pubmed ID>
23859149

>  <DOI>
10.1021/jm400484p

$$$$
1579470
Actelion Java MolfileCreator 1.0

 20 22  0  0  0  0  0  0  0  0999 V2000
    0.0000   -0.0000   -0.0000 Cl  0  0  0  0  0  0  0  0  0  0  0  0
   -0.0118   -1.4896   -0.0000 C   0  0  0  0  0  0  0  0  0  0  0  0
   -1.3240   -2.2225   -0.0000 C   0  0  0  0  0  0  0  0  0  0  0  0
    1.2768   -2.2343   -0.0000 C   0  0  0  0  0  0  0  0  0  0  0  0
   -2.6363   -1.4659   -0.0000 C   0  0  0  0  0  0  0  0  0  0  0  0
   -1.3359   -3.7121   -0.0000 C   0  0  0  0  0  0  0  0  0  0  0  0
    2.5653   -1.4659   -0.0000 C   0  0  0  0  0  0  0  0  0  0  0  0
    1.2649   -3.7239   -0.0000 C   0  0  0  0  0  0  0  0  0  0  0  0
   -2.6481    0.0473   -0.0000 F   0  0  0  0  0  0  0  0  0  0  0  0
   -3.9485   -2.2107   -0.0000 C   0  0  0  0  0  0  0  0  0  0  0  0
   -2.6481   -4.4450   -0.0000 C   0  0  0  0  0  0  0  0  0  0  0  0
   -0.0473   -4.4450   -0.0000 C   0  0  0  0  0  0  0  0  0  0  0  0
    3.8539   -2.2107   -0.0000 C   0  0  0  0  0  0  0  0  0  0  0  0
    2.5535    0.0473   -0.0000 C   0  0  0  0  0  0  0  0  0  0  0  0
   -5.2607   -1.4423   -0.0000 O   0  0  0  0  0  0  0  0  0  0  0  0
   -3.9603   -3.7002   -0.0000 C   0  0  0  0  0  0  0  0  0  0  0  0
    5.1425   -1.4423   -0.0000 N   0  0  0  0  0  0  0  0  0  0  0  0
    3.8421    0.8039   -0.0000 C   0  0  0  0  0  0  0  0  0  0  0  0
   -6.5730   -2.1870   -0.0000 C   0  0  0  0  0  0  0  0  0  0  0  0
    5.1307    0.0709   -0.0000 C   0  0  0  0  0  0  0  0  0  0  0  0
  1  2  1  0  0  0  0
  2  3  1  0  0  0  0
  2  4  2  0  0  0  0
  3  5  2  0  0  0  0
  3  6  1  0  0  0  0
  4  7  1  0  0  0  0
  4  8  1  0  0  0  0
  5  9  1  0  0  0  0
  5 10  1  0  0  0  0
  6 11  2  0  0  0  0
  6 12  1  0  0  0  0
  7 13  2  0  0  0  0
  7 14  1  0  0  0  0
 10 15  1  0  0  0  0
 10 16  2  0  0  0  0
 13 17  1  0  0  0  0
 14 18  2  0  0  0  0
 15 19  1  0  0  0  0
 17 20  2  0  0  0  0
  8 12  2  0  0  0  0
 11 16  1  0  0  0  0
 18 20  1  0  0  0  0
M  END
>  <MolRegNo>
1579470

>  <m>
=

>  <Value>
1009

>  <Unit>
nM

>  <Type>
IC50

>  <pValue>
6

>  <Ligand Efficiency>
0

>  <Binding Efficiency>
0

>  <Surface Efficiency>
0

>  <Assay Index>
793045

>  <Assay Category>


>  <Assay Organism>
Homo sapiens

>  <Target ID>
17045

>  <Target Name>
Cytochrome P450 3A4

>  <Target Organism>
Homo sapiens

>  <Target Description>
Target is a single protein chain

>  <Sequence Accession>
P08684

>  <Reference>
J Med Chem 56 (15), 6101-6107 (2013)

>  <Pubmed ID>
23859149

>  <DOI>
10.1021/jm400484p

$$$$
1579469
Actelion Java MolfileCreator 1.0

 18 20  0  0  0  0  0  0  0  0999 V2000
    0.0000   -0.0000   -0.0000 F   0  0  0  0  0  0  0  0  0  0  0  0
   -0.0118   -1.4883   -0.0000 C   0  0  0  0  0  0  0  0  0  0  0  0
   -1.3230   -2.2325   -0.0000 C   0  0  0  0  0  0  0  0  0  0  0  0
    1.2757   -2.2325   -0.0000 C   0  0  0  0  0  0  0  0  0  0  0  0
   -1.3348   -3.7208   -0.0000 C   0  0  0  0  0  0  0  0  0  0  0  0
   -2.6341   -1.4647   -0.0000 C   0  0  0  0  0  0  0  0  0  0  0  0
    2.5632   -1.4647   -0.0000 C   0  0  0  0  0  0  0  0  0  0  0  0
    1.2639   -3.7208   -0.0000 C   0  0  0  0  0  0  0  0  0  0  0  0
   -0.0472   -4.4650   -0.0000 C   0  0  0  0  0  0  0  0  0  0  0  0
   -2.6459   -4.4650   -0.0000 C   0  0  0  0  0  0  0  0  0  0  0  0
   -3.9453   -2.2089   -0.0000 C   0  0  0  0  0  0  0  0  0  0  0  0
    2.5514    0.0472   -0.0000 C   0  0  0  0  0  0  0  0  0  0  0  0
    3.8508   -2.2089   -0.0000 C   0  0  0  0  0  0  0  0  0  0  0  0
   -3.9571   -3.7090   -0.0000 C   0  0  0  0  0  0  0  0  0  0  0  0
   -5.2564   -1.4411   -0.0000 O   0  0  0  0  0  0  0  0  0  0  0  0
    3.8390    0.8032   -0.0000 N   0  0  0  0  0  0  0  0  0  0  0  0
    5.1383   -1.4411   -0.0000 C   0  0  0  0  0  0  0  0  0  0  0  0
    5.1265    0.0591   -0.0000 C   0  0  0  0  0  0  0  0  0  0  0  0
  1  2  1  0  0  0  0
  2  3  1  0  0  0  0
  2  4  2  0  0  0  0
  3  5  1  0  0  0  0
  3  6  2  0  0  0  0
  4  7  1  0  0  0  0
  4  8  1  0  0  0  0
  5  9  1  0  0  0  0
  5 10  2  0  0  0  0
  6 11  1  0  0  0  0
  7 12  2  0  0  0  0
  7 13  1  0  0  0  0
 10 14  1  0  0  0  0
 11 15  1  0  0  0  0
 12 16  1  0  0  0  0
 13 17  2  0  0  0  0
 16 18  2  0  0  0  0
  8  9  2  0  0  0  0
 11 14  2  0  0  0  0
 17 18  1  0  0  0  0
M  END
>  <MolRegNo>
1579469

>  <m>
=

>  <Value>
1262

>  <Unit>
nM

>  <Type>
IC50

>  <pValue>
5.9

>  <Ligand Efficiency>
0

>  <Binding Efficiency>
0

>  <Surface Efficiency>
0

>  <Assay Index>
793045

>  <Assay Category>


>  <Assay Organism>
Homo sapiens

>  <Target ID>
17045

>  <Target Name>
Cytochrome P450 3A4

>  <Target Organism>
Homo sapiens

>  <Target Description>
Target is a single protein chain

>  <Sequence Accession>
P08684

>  <Reference>
J Med Chem 56 (15), 6101-6107 (2013)

>  <Pubmed ID>
23859149

>  <DOI>
10.1021/jm400484p

$$$$
1579467
Actelion Java MolfileCreator 1.0

 18 20  0  0  0  0  0  0  0  0999 V2000
    0.0000   -0.0000   -0.0000 Cl  0  0  0  0  0  0  0  0  0  0  0  0
   -0.0118   -1.4918   -0.0000 C   0  0  0  0  0  0  0  0  0  0  0  0
   -1.3261   -2.2259   -0.0000 C   0  0  0  0  0  0  0  0  0  0  0  0
    1.2787   -2.2259   -0.0000 C   0  0  0  0  0  0  0  0  0  0  0  0
   -1.3379   -3.7178   -0.0000 C   0  0  0  0  0  0  0  0  0  0  0  0
   -2.6403   -1.4682   -0.0000 C   0  0  0  0  0  0  0  0  0  0  0  0
    2.5693   -1.4682   -0.0000 C   0  0  0  0  0  0  0  0  0  0  0  0
    1.2669   -3.7178   -0.0000 C   0  0  0  0  0  0  0  0  0  0  0  0
   -0.0474   -4.4519   -0.0000 C   0  0  0  0  0  0  0  0  0  0  0  0
   -2.6522   -4.4519   -0.0000 C   0  0  0  0  0  0  0  0  0  0  0  0
   -3.9546   -2.2022   -0.0000 C   0  0  0  0  0  0  0  0  0  0  0  0
    2.5574    0.0474   -0.0000 C   0  0  0  0  0  0  0  0  0  0  0  0
    3.8599   -2.2022   -0.0000 C   0  0  0  0  0  0  0  0  0  0  0  0
   -3.9664   -3.6941   -0.0000 C   0  0  0  0  0  0  0  0  0  0  0  0
   -5.2688   -1.4445   -0.0000 O   0  0  0  0  0  0  0  0  0  0  0  0
    3.8480    0.8051   -0.0000 N   0  0  0  0  0  0  0  0  0  0  0  0
    5.1504   -1.4445   -0.0000 C   0  0  0  0  0  0  0  0  0  0  0  0
    5.1386    0.0710   -0.0000 C   0  0  0  0  0  0  0  0  0  0  0  0
  1  2  1  0  0  0  0
  2  3  1  0  0  0  0
  2  4  2  0  0  0  0
  3  5  1  0  0  0  0
  3  6  2  0  0  0  0
  4  7  1  0  0  0  0
  4  8  1  0  0  0  0
  5  9  1  0  0  0  0
  5 10  2  0  0  0  0
  6 11  1  0  0  0  0
  7 12  2  0  0  0  0
  7 13  1  0  0  0  0
 10 14  1  0  0  0  0
 11 15  1  0  0  0  0
 12 16  1  0  0  0  0
 13 17  2  0  0  0  0
 16 18  2  0  0  0  0
  8  9  2  0  0  0  0
 11 14  2  0  0  0  0
 17 18  1  0  0  0  0
M  END
>  <MolRegNo>
1579467

>  <m>
=

>  <Value>
1759

>  <Unit>
nM

>  <Type>
IC50

>  <pValue>
5.75

>  <Ligand Efficiency>
0

>  <Binding Efficiency>
0

>  <Surface Efficiency>
0

>  <Assay Index>
793045

>  <Assay Category>


>  <Assay Organism>
Homo sapiens

>  <Target ID>
17045

>  <Target Name>
Cytochrome P450 3A4

>  <Target Organism>
Homo sapiens

>  <Target Description>
Target is a single protein chain

>  <Sequence Accession>
P08684

>  <Reference>
J Med Chem 56 (15), 6101-6107 (2013)

>  <Pubmed ID>
23859149

>  <DOI>
10.1021/jm400484p

$$$$
327026
Actelion Java MolfileCreator 1.0

 19 21  0  0  0  0  0  0  0  0999 V2000
    0.0000   -0.0000   -0.0000 Cl  0  0  0  0  0  0  0  0  0  0  0  0
   -0.0120    1.2394   -0.0000 C   0  0  0  0  0  0  0  0  0  0  0  0
    1.2996    2.0096   -0.0000 C   0  0  0  0  0  0  0  0  0  0  0  0
   -1.3477    2.0096   -0.0000 C   0  0  0  0  0  0  0  0  0  0  0  0
    1.2876    3.5498   -0.0000 C   0  0  0  0  0  0  0  0  0  0  0  0
    2.6112    1.2635   -0.0000 C   0  0  0  0  0  0  0  0  0  0  0  0
   -2.6834    1.2515   -0.0000 C   0  0  0  0  0  0  0  0  0  0  0  0
   -1.3598    3.5498   -0.0000 C   0  0  0  0  0  0  0  0  0  0  0  0
   -0.0481    4.3200   -0.0000 C   0  0  0  0  0  0  0  0  0  0  0  0
    2.5992    4.3200   -0.0000 C   0  0  0  0  0  0  0  0  0  0  0  0
    3.9229    2.0336   -0.0000 C   0  0  0  0  0  0  0  0  0  0  0  0
   -2.6955   -0.2647   -0.0000 C   0  0  0  0  0  0  0  0  0  0  0  0
   -4.0191    2.0216   -0.0000 C   0  0  0  0  0  0  0  0  0  0  0  0
    3.9108    3.5739   -0.0000 C   0  0  0  0  0  0  0  0  0  0  0  0
    5.2345    1.2755   -0.0000 O   0  0  0  0  0  0  0  0  0  0  0  0
   -4.0312   -1.0228   -0.0000 N   0  0  0  0  0  0  0  0  0  0  0  0
   -5.3548    1.2635   -0.0000 C   0  0  0  0  0  0  0  0  0  0  0  0
    5.2224    0.0602   -0.0000 C   0  0  0  0  0  0  0  0  0  0  0  0
   -5.3668   -0.2527   -0.0000 C   0  0  0  0  0  0  0  0  0  0  0  0
  1  2  1  0  0  0  0
  2  3  1  0  0  0  0
  2  4  2  0  0  0  0
  3  5  1  0  0  0  0
  3  6  2  0  0  0  0
  4  7  1  0  0  0  0
  4  8  1  0  0  0  0
  5  9  1  0  0  0  0
  5 10  2  0  0  0  0
  6 11  1  0  0  0  0
  7 12  2  0  0  0  0
  7 13  1  0  0  0  0
 10 14  1  0  0  0  0
 11 15  1  0  0  0  0
 12 16  1  0  0  0  0
 13 17  2  0  0  0  0
 15 18  1  0  0  0  0
 16 19  2  0  0  0  0
  8  9  2  0  0  0  0
 11 14  2  0  0  0  0
 17 19  1  0  0  0  0
M  END
>  <MolRegNo>
327026

>  <m>
=

>  <Value>
3560

>  <Unit>
nM

>  <Type>
IC50

>  <pValue>
5.45

>  <Ligand Efficiency>
0

>  <Binding Efficiency>
0

>  <Surface Efficiency>
0

>  <Assay Index>
793045

>  <Assay Category>


>  <Assay Organism>
Homo sapiens

>  <Target ID>
17045

>  <Target Name>
Cytochrome P450 3A4

>  <Target Organism>
Homo sapiens

>  <Target Description>
Target is a single protein chain

>  <Sequence Accession>
P08684

>  <Reference>
J Med Chem 56 (15), 6101-6107 (2013)

>  <Pubmed ID>
23859149

>  <DOI>
10.1021/jm400484p

$$$$
751853
Actelion Java MolfileCreator 1.0

 17 18  0  0  0  0  0  0  0  0999 V2000
    0.0000   -0.0000   -0.0000 Cl  0  0  0  0  0  0  0  0  0  0  0  0
    1.2942    0.7599   -0.0000 C   0  0  0  0  0  0  0  0  0  0  0  0
    2.5884    0.0237   -0.0000 C   0  0  0  0  0  0  0  0  0  0  0  0
    1.2823    2.2796   -0.0000 C   0  0  0  0  0  0  0  0  0  0  0  0
    3.8825    0.7836   -0.0000 C   0  0  0  0  0  0  0  0  0  0  0  0
    2.5765   -1.4723   -0.0000 C   0  0  0  0  0  0  0  0  0  0  0  0
    2.5765    3.0395   -0.0000 C   0  0  0  0  0  0  0  0  0  0  0  0
    5.1767    0.0475   -0.0000 Cl  0  0  0  0  0  0  0  0  0  0  0  0
    3.8707    2.3034   -0.0000 C   0  0  0  0  0  0  0  0  0  0  0  0
    1.2586   -2.2203   -0.0000 O   0  0  0  0  0  0  0  0  0  0  0  0
    3.8707   -2.2203   -0.0000 N   0  0  0  0  0  0  0  0  0  0  0  0
    3.8588   -3.7163   -0.0000 C   0  0  0  0  0  0  0  0  0  0  0  0
    2.5409   -4.4524   -0.0000 C   0  0  0  0  0  0  0  0  0  0  0  0
    5.1530   -4.4524   -0.0000 C   0  0  0  0  0  0  0  0  0  0  0  0
    2.5290   -5.9485   -0.0000 C   0  0  0  0  0  0  0  0  0  0  0  0
    5.1411   -5.9485   -0.0000 C   0  0  0  0  0  0  0  0  0  0  0  0
    3.8232   -6.6846   -0.0000 N   0  0  0  0  0  0  0  0  0  0  0  0
  1  2  1  0  0  0  0
  2  3  2  0  0  0  0
  2  4  1  0  0  0  0
  3  5  1  0  0  0  0
  3  6  1  0  0  0  0
  4  7  2  0  0  0  0
  5  8  1  0  0  0  0
  5  9  2  0  0  0  0
  6 10  2  0  0  0  0
  6 11  1  0  0  0  0
 11 12  1  0  0  0  0
 12 13  2  0  0  0  0
 12 14  1  0  0  0  0
 13 15  1  0  0  0  0
 14 16  2  0  0  0  0
 15 17  2  0  0  0  0
  7  9  1  0  0  0  0
 16 17  1  0  0  0  0
M  END
>  <MolRegNo>
751853

>  <m>
=

>  <Value>
4700

>  <Unit>
nM

>  <Type>
IC50

>  <pValue>
5.33

>  <Ligand Efficiency>
0

>  <Binding Efficiency>
0

>  <Surface Efficiency>
0

>  <Assay Index>
793673

>  <Assay Category>


>  <Assay Organism>
Homo sapiens

>  <Target ID>
17045

>  <Target Name>
Cytochrome P450 3A4

>  <Target Organism>
Homo sapiens

>  <Target Description>
Target is a single protein chain

>  <Sequence Accession>
P08684

>  <Reference>


>  <Pubmed ID>
23867602

>  <DOI>
10.1016/j.ejmech.2013.03.070

$$$$
1578276
Actelion Java MolfileCreator 1.0

 35 37  0  0  0  0  0  0  0  0999 V2000
    0.0000   -0.0000   -0.0000 S   0  0  0  0  0  0  0  0  0  0  0  0
    0.7236   -1.2812   -0.0000 O   0  0  0  0  0  0  0  0  0  0  0  0
   -0.7592   -1.2812   -0.0000 O   0  0  0  0  0  0  0  0  0  0  0  0
   -1.3049    0.7473   -0.0000 N   0  0  0  0  0  0  0  0  0  0  0  0
    1.2930    0.7592   -0.0000 C   0  0  0  0  0  0  0  0  0  0  0  0
   -2.6098    0.0119   -0.0000 C   0  0  0  0  0  0  0  0  0  0  0  0
    2.5742    0.0237   -0.0000 C   0  0  0  0  0  0  0  0  0  0  0  0
   -2.6217   -1.4710   -0.0000 O   0  0  0  0  0  0  0  0  0  0  0  0
   -3.9147    0.7711   -0.0000 C   0  0  0  0  0  0  0  0  0  0  0  0
    3.8554    0.7829   -0.0000 C   0  0  0  0  0  0  0  0  0  0  0  0
    2.5505   -1.4591   -0.0000 C   0  0  0  0  0  0  0  0  0  0  0  0
   -5.2314    0.0356   -0.0000 C   0  0  0  0  0  0  0  0  0  0  0  0
   -3.9266    2.2895   -0.0000 C   0  0  0  0  0  0  0  0  0  0  0  0
    3.8435    2.2895   -0.0000 F   0  0  0  0  0  0  0  0  0  0  0  0
    5.1365    0.0475   -0.0000 C   0  0  0  0  0  0  0  0  0  0  0  0
    3.8317   -2.1946   -0.0000 C   0  0  0  0  0  0  0  0  0  0  0  0
   -6.5363    0.7948   -0.0000 C   0  0  0  0  0  0  0  0  0  0  0  0
   -5.2433    3.0606   -0.0000 C   0  0  0  0  0  0  0  0  0  0  0  0
    5.1247   -1.4472   -0.0000 C   0  0  0  0  0  0  0  0  0  0  0  0
   -6.5482    2.3014   -0.0000 N   0  0  0  0  0  0  0  0  0  0  0  0
    6.4059   -2.1827   -0.0000 F   0  0  0  0  0  0  0  0  0  0  0  0
   -7.8650    3.0606   -0.0000 C   0  0  0  0  0  0  0  0  0  0  0  0
   -9.1817    2.3251   -0.0000 N   0  0  0  0  0  0  0  0  0  0  0  0
   -7.8768    4.5790   -0.0000 C   0  0  0  0  0  0  0  0  0  0  0  0
  -10.4866    3.0843   -0.0000 C   0  0  0  0  0  0  0  0  0  0  0  0
   -6.5957    5.3382   -0.0000 C   0  0  0  0  0  0  0  0  0  0  0  0
   -9.1817    5.3382   -0.0000 C   0  0  0  0  0  0  0  0  0  0  0  0
  -10.4985    4.6027   -0.0000 C   0  0  0  0  0  0  0  0  0  0  0  0
  -11.7915    2.3488   -0.0000 C   0  0  0  0  0  0  0  0  0  0  0  0
   -5.3145    6.0974   -0.0000 N   0  0  0  0  0  0  0  0  0  0  0  0
  -11.8034    5.3619   -0.0000 C   0  0  0  0  0  0  0  0  0  0  0  0
  -11.8152    6.8685   -0.0000 O   0  0  0  0  0  0  0  0  0  0  0  0
  -13.1083    4.6265   -0.0000 O   0  0  0  0  0  0  0  0  0  0  0  0
  -14.4132    5.3857   -0.0000 C   0  0  0  0  0  0  0  0  0  0  0  0
  -15.7181    4.6502   -0.0000 C   0  0  0  0  0  0  0  0  0  0  0  0
  1  2  2  0  0  0  0
  1  3  2  0  0  0  0
  1  4  1  0  0  0  0
  1  5  1  0  0  0  0
  4  6  1  0  0  0  0
  5  7  1  0  0  0  0
  6  8  2  0  0  0  0
  6  9  1  0  0  0  0
  7 10  2  0  0  0  0
  7 11  1  0  0  0  0
  9 12  1  0  0  0  0
  9 13  1  0  0  0  0
 10 14  1  0  0  0  0
 10 15  1  0  0  0  0
 11 16  2  0  0  0  0
 12 17  1  0  0  0  0
 13 18  1  0  0  0  0
 15 19  2  0  0  0  0
 17 20  1  0  0  0  0
 19 21  1  0  0  0  0
 20 22  1  0  0  0  0
 22 23  2  0  0  0  0
 22 24  1  0  0  0  0
 23 25  1  0  0  0  0
 24 26  1  0  0  0  0
 24 27  2  0  0  0  0
 25 28  2  0  0  0  0
 25 29  1  0  0  0  0
 26 30  3  0  0  0  0
 28 31  1  0  0  0  0
 31 32  2  0  0  0  0
 31 33  1  0  0  0  0
 33 34  1  0  0  0  0
 34 35  1  0  0  0  0
 16 19  1  0  0  0  0
 18 20  1  0  0  0  0
 27 28  1  0  0  0  0
M  END
>  <MolRegNo>
1578276

>  <m>
=

>  <Value>
1400

>  <Unit>
nM

>  <Type>
IC50

>  <pValue>
5.85

>  <Ligand Efficiency>
0

>  <Binding Efficiency>
0

>  <Surface Efficiency>
0

>  <Assay Index>
794656

>  <Assay Category>


>  <Assay Organism>
Homo sapiens

>  <Target ID>
17045

>  <Target Name>
Cytochrome P450 3A4

>  <Target Organism>
Homo sapiens

>  <Target Description>
Target is a single protein chain

>  <Sequence Accession>
P08684

>  <Reference>
J Med Chem 56 (17), 7015-7024 (2013)

>  <Pubmed ID>
23899349

>  <DOI>
10.1021/jm400820m

$$$$
1578272
Actelion Java MolfileCreator 1.0

 34 36  0  0  0  0  0  0  0  0999 V2000
    0.0000   -0.0000   -0.0000 S   0  0  0  0  0  0  0  0  0  0  0  0
    0.7239   -1.2817   -0.0000 O   0  0  0  0  0  0  0  0  0  0  0  0
   -0.7595   -1.2817   -0.0000 O   0  0  0  0  0  0  0  0  0  0  0  0
   -1.3054    0.7477   -0.0000 N   0  0  0  0  0  0  0  0  0  0  0  0
    1.2817    0.7595   -0.0000 C   0  0  0  0  0  0  0  0  0  0  0  0
   -2.6109    0.0119   -0.0000 C   0  0  0  0  0  0  0  0  0  0  0  0
    2.5634    0.0237   -0.0000 C   0  0  0  0  0  0  0  0  0  0  0  0
   -2.6228   -1.4716   -0.0000 O   0  0  0  0  0  0  0  0  0  0  0  0
   -3.9163    0.7714   -0.0000 C   0  0  0  0  0  0  0  0  0  0  0  0
    2.5397   -1.4597   -0.0000 C   0  0  0  0  0  0  0  0  0  0  0  0
    3.8451    0.7833   -0.0000 C   0  0  0  0  0  0  0  0  0  0  0  0
   -5.2337    0.0356   -0.0000 C   0  0  0  0  0  0  0  0  0  0  0  0
   -3.9282    2.2905   -0.0000 C   0  0  0  0  0  0  0  0  0  0  0  0
    3.8214   -2.1955   -0.0000 C   0  0  0  0  0  0  0  0  0  0  0  0
    5.1268    0.0475   -0.0000 C   0  0  0  0  0  0  0  0  0  0  0  0
   -6.5391    0.7951   -0.0000 C   0  0  0  0  0  0  0  0  0  0  0  0
   -5.2455    3.0619   -0.0000 C   0  0  0  0  0  0  0  0  0  0  0  0
    5.1150   -1.4360   -0.0000 C   0  0  0  0  0  0  0  0  0  0  0  0
   -6.5510    2.3023   -0.0000 N   0  0  0  0  0  0  0  0  0  0  0  0
    6.3967   -2.1718   -0.0000 F   0  0  0  0  0  0  0  0  0  0  0  0
   -7.8683    3.0619   -0.0000 C   0  0  0  0  0  0  0  0  0  0  0  0
   -9.1856    2.3261   -0.0000 N   0  0  0  0  0  0  0  0  0  0  0  0
   -7.8801    4.5809   -0.0000 C   0  0  0  0  0  0  0  0  0  0  0  0
  -10.4910    3.0856   -0.0000 C   0  0  0  0  0  0  0  0  0  0  0  0
   -6.5984    5.3405   -0.0000 C   0  0  0  0  0  0  0  0  0  0  0  0
   -9.1856    5.3405   -0.0000 C   0  0  0  0  0  0  0  0  0  0  0  0
  -10.5029    4.6047   -0.0000 C   0  0  0  0  0  0  0  0  0  0  0  0
  -11.7965    2.3498   -0.0000 C   0  0  0  0  0  0  0  0  0  0  0  0
   -5.3167    6.1000   -0.0000 N   0  0  0  0  0  0  0  0  0  0  0  0
  -11.8083    5.3642   -0.0000 C   0  0  0  0  0  0  0  0  0  0  0  0
  -11.8202    6.8714   -0.0000 O   0  0  0  0  0  0  0  0  0  0  0  0
  -13.1138    4.6284   -0.0000 O   0  0  0  0  0  0  0  0  0  0  0  0
  -14.4192    5.3879   -0.0000 C   0  0  0  0  0  0  0  0  0  0  0  0
  -15.7247    4.6521   -0.0000 C   0  0  0  0  0  0  0  0  0  0  0  0
  1  2  2  0  0  0  0
  1  3  2  0  0  0  0
  1  4  1  0  0  0  0
  1  5  1  0  0  0  0
  4  6  1  0  0  0  0
  5  7  1  0  0  0  0
  6  8  2  0  0  0  0
  6  9  1  0  0  0  0
  7 10  2  0  0  0  0
  7 11  1  0  0  0  0
  9 12  1  0  0  0  0
  9 13  1  0  0  0  0
 10 14  1  0  0  0  0
 11 15  2  0  0  0  0
 12 16  1  0  0  0  0
 13 17  1  0  0  0  0
 14 18  2  0  0  0  0
 16 19  1  0  0  0  0
 18 20  1  0  0  0  0
 19 21  1  0  0  0  0
 21 22  2  0  0  0  0
 21 23  1  0  0  0  0
 22 24  1  0  0  0  0
 23 25  1  0  0  0  0
 23 26  2  0  0  0  0
 24 27  2  0  0  0  0
 24 28  1  0  0  0  0
 25 29  3  0  0  0  0
 27 30  1  0  0  0  0
 30 31  2  0  0  0  0
 30 32  1  0  0  0  0
 32 33  1  0  0  0  0
 33 34  1  0  0  0  0
 15 18  1  0  0  0  0
 17 19  1  0  0  0  0
 26 27  1  0  0  0  0
M  END
>  <MolRegNo>
1578272

>  <m>
=

>  <Value>
4500

>  <Unit>
nM

>  <Type>
IC50

>  <pValue>
5.35

>  <Ligand Efficiency>
0

>  <Binding Efficiency>
0

>  <Surface Efficiency>
0

>  <Assay Index>
794656

>  <Assay Category>


>  <Assay Organism>
Homo sapiens

>  <Target ID>
17045

>  <Target Name>
Cytochrome P450 3A4

>  <Target Organism>
Homo sapiens

>  <Target Description>
Target is a single protein chain

>  <Sequence Accession>
P08684

>  <Reference>
J Med Chem 56 (17), 7015-7024 (2013)

>  <Pubmed ID>
23899349

>  <DOI>
10.1021/jm400820m

$$$$
1578271
Actelion Java MolfileCreator 1.0

 33 35  0  0  0  0  0  0  0  0999 V2000
    0.0000   -0.0000   -0.0000 S   0  0  0  0  0  0  0  0  0  0  0  0
    0.7231   -1.2803   -0.0000 O   0  0  0  0  0  0  0  0  0  0  0  0
   -0.7587   -1.2803   -0.0000 O   0  0  0  0  0  0  0  0  0  0  0  0
   -1.3040    0.7468   -0.0000 N   0  0  0  0  0  0  0  0  0  0  0  0
    1.2921    0.7587   -0.0000 C   0  0  0  0  0  0  0  0  0  0  0  0
   -2.6080    0.0119   -0.0000 C   0  0  0  0  0  0  0  0  0  0  0  0
    2.5724    0.0237   -0.0000 C   0  0  0  0  0  0  0  0  0  0  0  0
   -2.6198   -1.4699   -0.0000 O   0  0  0  0  0  0  0  0  0  0  0  0
   -3.9119    0.7705   -0.0000 C   0  0  0  0  0  0  0  0  0  0  0  0
    2.5487   -1.4581   -0.0000 C   0  0  0  0  0  0  0  0  0  0  0  0
    3.8527    0.7824   -0.0000 C   0  0  0  0  0  0  0  0  0  0  0  0
   -5.2278    0.0356   -0.0000 C   0  0  0  0  0  0  0  0  0  0  0  0
   -3.9238    2.2879   -0.0000 C   0  0  0  0  0  0  0  0  0  0  0  0
    3.8290   -2.1931   -0.0000 C   0  0  0  0  0  0  0  0  0  0  0  0
    5.1329    0.0474   -0.0000 C   0  0  0  0  0  0  0  0  0  0  0  0
   -6.5318    0.7942   -0.0000 C   0  0  0  0  0  0  0  0  0  0  0  0
   -5.2396    3.0584   -0.0000 C   0  0  0  0  0  0  0  0  0  0  0  0
    5.1211   -1.4344   -0.0000 C   0  0  0  0  0  0  0  0  0  0  0  0
   -6.5436    2.2997   -0.0000 N   0  0  0  0  0  0  0  0  0  0  0  0
   -7.8594    3.0584   -0.0000 C   0  0  0  0  0  0  0  0  0  0  0  0
   -9.1753    2.3235   -0.0000 N   0  0  0  0  0  0  0  0  0  0  0  0
   -7.8713    4.5758   -0.0000 C   0  0  0  0  0  0  0  0  0  0  0  0
  -10.4793    3.0821   -0.0000 C   0  0  0  0  0  0  0  0  0  0  0  0
   -6.5910    5.3345   -0.0000 C   0  0  0  0  0  0  0  0  0  0  0  0
   -9.1753    5.3345   -0.0000 C   0  0  0  0  0  0  0  0  0  0  0  0
  -10.4911    4.5995   -0.0000 C   0  0  0  0  0  0  0  0  0  0  0  0
  -11.7832    2.3472   -0.0000 C   0  0  0  0  0  0  0  0  0  0  0  0
   -5.3108    6.1050   -0.0000 N   0  0  0  0  0  0  0  0  0  0  0  0
  -11.7951    5.3582   -0.0000 C   0  0  0  0  0  0  0  0  0  0  0  0
  -11.8069    6.8637   -0.0000 O   0  0  0  0  0  0  0  0  0  0  0  0
  -13.0991    4.6232   -0.0000 O   0  0  0  0  0  0  0  0  0  0  0  0
  -14.4149    5.3819   -0.0000 C   0  0  0  0  0  0  0  0  0  0  0  0
  -15.7307    4.6469   -0.0000 C   0  0  0  0  0  0  0  0  0  0  0  0
  1  2  2  0  0  0  0
  1  3  2  0  0  0  0
  1  4  1  0  0  0  0
  1  5  1  0  0  0  0
  4  6  1  0  0  0  0
  5  7  1  0  0  0  0
  6  8  2  0  0  0  0
  6  9  1  0  0  0  0
  7 10  2  0  0  0  0
  7 11  1  0  0  0  0
  9 12  1  0  0  0  0
  9 13  1  0  0  0  0
 10 14  1  0  0  0  0
 11 15  2  0  0  0  0
 12 16  1  0  0  0  0
 13 17  1  0  0  0  0
 14 18  2  0  0  0  0
 16 19  1  0  0  0  0
 19 20  1  0  0  0  0
 20 21  2  0  0  0  0
 20 22  1  0  0  0  0
 21 23  1  0  0  0  0
 22 24  1  0  0  0  0
 22 25  2  0  0  0  0
 23 26  2  0  0  0  0
 23 27  1  0  0  0  0
 24 28  3  0  0  0  0
 26 29  1  0  0  0  0
 29 30  2  0  0  0  0
 29 31  1  0  0  0  0
 31 32  1  0  0  0  0
 32 33  1  0  0  0  0
 15 18  1  0  0  0  0
 17 19  1  0  0  0  0
 25 26  1  0  0  0  0
M  END
>  <MolRegNo>
1578271

>  <m>
=

>  <Value>
20000

>  <Unit>
nM

>  <Type>
IC50

>  <pValue>
4.7

>  <Ligand Efficiency>
0

>  <Binding Efficiency>
0

>  <Surface Efficiency>
0

>  <Assay Index>
794656

>  <Assay Category>


>  <Assay Organism>
Homo sapiens

>  <Target ID>
17045

>  <Target Name>
Cytochrome P450 3A4

>  <Target Organism>
Homo sapiens

>  <Target Description>
Target is a single protein chain

>  <Sequence Accession>
P08684

>  <Reference>
J Med Chem 56 (17), 7015-7024 (2013)

>  <Pubmed ID>
23899349

>  <DOI>
10.1021/jm400820m

$$$$
1578268
Actelion Java MolfileCreator 1.0

 32 34  0  0  0  0  0  0  0  0999 V2000
    0.0000   -0.0000   -0.0000 S   0  0  0  0  0  0  0  0  0  0  0  0
    0.7245   -1.2826   -0.0000 O   0  0  0  0  0  0  0  0  0  0  0  0
   -0.7601   -1.2826   -0.0000 O   0  0  0  0  0  0  0  0  0  0  0  0
   -1.3064    0.7482   -0.0000 N   0  0  0  0  0  0  0  0  0  0  0  0
    1.2826    0.7601   -0.0000 C   0  0  0  0  0  0  0  0  0  0  0  0
   -2.6128    0.0119   -0.0000 C   0  0  0  0  0  0  0  0  0  0  0  0
    2.5653    0.0238   -0.0000 C   0  0  0  0  0  0  0  0  0  0  0  0
   -2.6247   -1.4727   -0.0000 O   0  0  0  0  0  0  0  0  0  0  0  0
   -3.9192    0.7720   -0.0000 C   0  0  0  0  0  0  0  0  0  0  0  0
    2.5415   -1.4608   -0.0000 C   0  0  0  0  0  0  0  0  0  0  0  0
    3.8479    0.7838   -0.0000 C   0  0  0  0  0  0  0  0  0  0  0  0
   -5.3800    0.3919   -0.0000 C   0  0  0  0  0  0  0  0  0  0  0  0
   -4.3230    2.2327   -0.0000 C   0  0  0  0  0  0  0  0  0  0  0  0
    3.8242   -2.1971   -0.0000 C   0  0  0  0  0  0  0  0  0  0  0  0
    5.1305    0.0475   -0.0000 C   0  0  0  0  0  0  0  0  0  0  0  0
   -5.7837    1.8527   -0.0000 N   0  0  0  0  0  0  0  0  0  0  0  0
    5.1187   -1.4370   -0.0000 C   0  0  0  0  0  0  0  0  0  0  0  0
   -7.1020    2.6128   -0.0000 C   0  0  0  0  0  0  0  0  0  0  0  0
    6.4013   -2.1734   -0.0000 C   0  0  0  0  0  0  0  0  0  0  0  0
   -8.4203    1.8765   -0.0000 N   0  0  0  0  0  0  0  0  0  0  0  0
   -7.1139    4.1329   -0.0000 C   0  0  0  0  0  0  0  0  0  0  0  0
   -9.7267    2.6365   -0.0000 C   0  0  0  0  0  0  0  0  0  0  0  0
   -5.8312    4.8930   -0.0000 C   0  0  0  0  0  0  0  0  0  0  0  0
   -8.4203    4.8930   -0.0000 C   0  0  0  0  0  0  0  0  0  0  0  0
   -9.7385    4.1567   -0.0000 C   0  0  0  0  0  0  0  0  0  0  0  0
  -11.0331    1.9002   -0.0000 C   0  0  0  0  0  0  0  0  0  0  0  0
   -4.5486    5.6531   -0.0000 N   0  0  0  0  0  0  0  0  0  0  0  0
  -11.0449    4.9168   -0.0000 C   0  0  0  0  0  0  0  0  0  0  0  0
  -11.0568    6.4251   -0.0000 O   0  0  0  0  0  0  0  0  0  0  0  0
  -12.3513    4.1804   -0.0000 O   0  0  0  0  0  0  0  0  0  0  0  0
  -13.6577    4.9405   -0.0000 C   0  0  0  0  0  0  0  0  0  0  0  0
  -14.9641    4.2042   -0.0000 C   0  0  0  0  0  0  0  0  0  0  0  0
  1  2  2  0  0  0  0
  1  3  2  0  0  0  0
  1  4  1  0  0  0  0
  1  5  1  0  0  0  0
  4  6  1  0  0  0  0
  5  7  1  0  0  0  0
  6  8  2  0  0  0  0
  6  9  1  0  0  0  0
  7 10  2  0  0  0  0
  7 11  1  0  0  0  0
  9 12  1  0  0  0  0
  9 13  1  0  0  0  0
 10 14  1  0  0  0  0
 11 15  2  0  0  0  0
 12 16  1  0  0  0  0
 14 17  2  0  0  0  0
 16 18  1  0  0  0  0
 17 19  1  0  0  0  0
 18 20  2  0  0  0  0
 18 21  1  0  0  0  0
 20 22  1  0  0  0  0
 21 23  1  0  0  0  0
 21 24  2  0  0  0  0
 22 25  2  0  0  0  0
 22 26  1  0  0  0  0
 23 27  3  0  0  0  0
 25 28  1  0  0  0  0
 28 29  2  0  0  0  0
 28 30  1  0  0  0  0
 30 31  1  0  0  0  0
 31 32  1  0  0  0  0
 13 16  1  0  0  0  0
 15 17  1  0  0  0  0
 24 25  1  0  0  0  0
M  END
>  <MolRegNo>
1578268

>  <m>
=

>  <Value>
20000

>  <Unit>
nM

>  <Type>
IC50

>  <pValue>
4.7

>  <Ligand Efficiency>
0

>  <Binding Efficiency>
0

>  <Surface Efficiency>
0

>  <Assay Index>
794656

>  <Assay Category>


>  <Assay Organism>
Homo sapiens

>  <Target ID>
17045

>  <Target Name>
Cytochrome P450 3A4

>  <Target Organism>
Homo sapiens

>  <Target Description>
Target is a single protein chain

>  <Sequence Accession>
P08684

>  <Reference>
J Med Chem 56 (17), 7015-7024 (2013)

>  <Pubmed ID>
23899349

>  <DOI>
10.1021/jm400820m

$$$$
1578266
Actelion Java MolfileCreator 1.0

 32 34  0  0  0  0  0  0  0  0999 V2000
    0.0000   -0.0000   -0.0000 Cl  0  0  0  0  0  0  0  0  0  0  0  0
   -1.3008    0.7568   -0.0000 C   0  0  0  0  0  0  0  0  0  0  0  0
   -2.6133    0.0237   -0.0000 C   0  0  0  0  0  0  0  0  0  0  0  0
   -1.3126    2.2704   -0.0000 C   0  0  0  0  0  0  0  0  0  0  0  0
   -3.9141    0.7805   -0.0000 C   0  0  0  0  0  0  0  0  0  0  0  0
   -2.6133    3.0272   -0.0000 C   0  0  0  0  0  0  0  0  0  0  0  0
   -3.9141    2.2822   -0.0000 C   0  0  0  0  0  0  0  0  0  0  0  0
   -5.2148    3.0390   -0.0000 C   0  0  0  0  0  0  0  0  0  0  0  0
   -6.5156    2.3059   -0.0000 S   0  0  0  0  0  0  0  0  0  0  0  0
   -5.7943    1.0288   -0.0000 O   0  0  0  0  0  0  0  0  0  0  0  0
   -7.2724    1.0288   -0.0000 O   0  0  0  0  0  0  0  0  0  0  0  0
   -7.8163    3.0509   -0.0000 N   0  0  0  0  0  0  0  0  0  0  0  0
   -9.1171    2.3177   -0.0000 C   0  0  0  0  0  0  0  0  0  0  0  0
   -9.1289    0.8396   -0.0000 O   0  0  0  0  0  0  0  0  0  0  0  0
  -10.4178    3.0745   -0.0000 C   0  0  0  0  0  0  0  0  0  0  0  0
  -11.8723    2.6961   -0.0000 C   0  0  0  0  0  0  0  0  0  0  0  0
  -10.8199    4.5290   -0.0000 C   0  0  0  0  0  0  0  0  0  0  0  0
  -12.2744    4.1506   -0.0000 N   0  0  0  0  0  0  0  0  0  0  0  0
  -13.5870    4.9074   -0.0000 C   0  0  0  0  0  0  0  0  0  0  0  0
  -14.8995    4.1742   -0.0000 N   0  0  0  0  0  0  0  0  0  0  0  0
  -13.5988    6.4210   -0.0000 C   0  0  0  0  0  0  0  0  0  0  0  0
  -16.2003    4.9310   -0.0000 C   0  0  0  0  0  0  0  0  0  0  0  0
  -12.3217    7.1778   -0.0000 C   0  0  0  0  0  0  0  0  0  0  0  0
  -14.8995    7.1778   -0.0000 C   0  0  0  0  0  0  0  0  0  0  0  0
  -16.2121    6.4446   -0.0000 C   0  0  0  0  0  0  0  0  0  0  0  0
  -17.5010    4.1979   -0.0000 C   0  0  0  0  0  0  0  0  0  0  0  0
  -11.0446    7.9346   -0.0000 N   0  0  0  0  0  0  0  0  0  0  0  0
  -17.5129    7.2014   -0.0000 C   0  0  0  0  0  0  0  0  0  0  0  0
  -17.5247    8.7032   -0.0000 O   0  0  0  0  0  0  0  0  0  0  0  0
  -18.8136    6.4683   -0.0000 O   0  0  0  0  0  0  0  0  0  0  0  0
  -20.1144    7.2251   -0.0000 C   0  0  0  0  0  0  0  0  0  0  0  0
  -21.4151    6.4919   -0.0000 C   0  0  0  0  0  0  0  0  0  0  0  0
  1  2  1  0  0  0  0
  2  3  2  0  0  0  0
  2  4  1  0  0  0  0
  3  5  1  0  0  0  0
  4  6  2  0  0  0  0
  5  7  2  0  0  0  0
  7  8  1  0  0  0  0
  8  9  1  0  0  0  0
  9 10  2  0  0  0  0
  9 11  2  0  0  0  0
  9 12  1  0  0  0  0
 12 13  1  0  0  0  0
 13 14  2  0  0  0  0
 13 15  1  0  0  0  0
 15 16  1  0  0  0  0
 15 17  1  0  0  0  0
 16 18  1  0  0  0  0
 18 19  1  0  0  0  0
 19 20  2  0  0  0  0
 19 21  1  0  0  0  0
 20 22  1  0  0  0  0
 21 23  1  0  0  0  0
 21 24  2  0  0  0  0
 22 25  2  0  0  0  0
 22 26  1  0  0  0  0
 23 27  3  0  0  0  0
 25 28  1  0  0  0  0
 28 29  2  0  0  0  0
 28 30  1  0  0  0  0
 30 31  1  0  0  0  0
 31 32  1  0  0  0  0
  6  7  1  0  0  0  0
 17 18  1  0  0  0  0
 24 25  1  0  0  0  0
M  END
>  <MolRegNo>
1578266

>  <m>
=

>  <Value>
3300

>  <Unit>
nM

>  <Type>
IC50

>  <pValue>
5.48

>  <Ligand Efficiency>
0

>  <Binding Efficiency>
0

>  <Surface Efficiency>
0

>  <Assay Index>
794656

>  <Assay Category>


>  <Assay Organism>
Homo sapiens

>  <Target ID>
17045

>  <Target Name>
Cytochrome P450 3A4

>  <Target Organism>
Homo sapiens

>  <Target Description>
Target is a single protein chain

>  <Sequence Accession>
P08684

>  <Reference>
J Med Chem 56 (17), 7015-7024 (2013)

>  <Pubmed ID>
23899349

>  <DOI>
10.1021/jm400820m

$$$$
1576400
Actelion Java MolfileCreator 1.0

 20 22  0  0  0  0  0  0  0  0999 V2000
    0.0000   -0.0000   -0.0000 N   0  0  0  0  0  0  0  0  0  0  0  0
   -1.3085    0.7613   -0.0000 C   0  0  0  0  0  0  0  0  0  0  0  0
    1.2966    0.7613   -0.0000 C   0  0  0  0  0  0  0  0  0  0  0  0
   -2.6171    0.0238   -0.0000 C   0  0  0  0  0  0  0  0  0  0  0  0
   -1.3204    2.2840   -0.0000 C   0  0  0  0  0  0  0  0  0  0  0  0
    1.2847    2.2840   -0.0000 C   0  0  0  0  0  0  0  0  0  0  0  0
   -3.9256    0.7851   -0.0000 C   0  0  0  0  0  0  0  0  0  0  0  0
   -2.6290   -1.4632   -0.0000 C   0  0  0  0  0  0  0  0  0  0  0  0
   -0.0357    3.0453   -0.0000 C   0  0  0  0  0  0  0  0  0  0  0  0
    2.5695    3.0453   -0.0000 C   0  0  0  0  0  0  0  0  0  0  0  0
   -5.2341    0.0476   -0.0000 C   0  0  0  0  0  0  0  0  0  0  0  0
   -3.9375   -2.2007   -0.0000 C   0  0  0  0  0  0  0  0  0  0  0  0
    3.8542    2.3078   -0.0000 C   0  0  0  0  0  0  0  0  0  0  0  0
   -5.2460   -1.4394   -0.0000 C   0  0  0  0  0  0  0  0  0  0  0  0
    3.8423    0.8208   -0.0000 C   0  0  0  0  0  0  0  0  0  0  0  0
    5.1270    3.0810   -0.0000 C   0  0  0  0  0  0  0  0  0  0  0  0
    5.1270    0.0833   -0.0000 N   0  0  0  0  0  0  0  0  0  0  0  0
    6.4118    2.3553   -0.0000 C   0  0  0  0  0  0  0  0  0  0  0  0
    6.4118    0.8446   -0.0000 C   0  0  0  0  0  0  0  0  0  0  0  0
    7.6965    3.1286   -0.0000 C   0  0  0  0  0  0  0  0  0  0  0  0
  1  2  2  0  0  0  0
  1  3  1  0  0  0  0
  2  4  1  0  0  0  0
  2  5  1  0  0  0  0
  3  6  2  0  0  0  0
  4  7  2  0  0  0  0
  4  8  1  0  0  0  0
  5  9  2  0  0  0  0
  6 10  1  0  0  0  0
  7 11  1  0  0  0  0
  8 12  2  0  0  0  0
 10 13  1  0  0  0  0
 11 14  2  0  0  0  0
 13 15  2  0  0  0  0
 13 16  1  0  0  0  0
 15 17  1  0  0  0  0
 16 18  2  0  0  0  0
 17 19  2  0  0  0  0
 18 20  1  0  0  0  0
  6  9  1  0  0  0  0
 12 14  1  0  0  0  0
 18 19  1  0  0  0  0
M  END
>  <MolRegNo>
1576400

>  <m>
=

>  <Value>
1100

>  <Unit>
nM

>  <Type>
IC50

>  <pValue>
5.96

>  <Ligand Efficiency>
0

>  <Binding Efficiency>
0

>  <Surface Efficiency>
0

>  <Assay Index>
793974

>  <Assay Category>


>  <Assay Organism>
Homo sapiens

>  <Target ID>
17045

>  <Target Name>
Cytochrome P450 3A4

>  <Target Organism>
Homo sapiens

>  <Target Description>
Target is a single protein chain

>  <Sequence Accession>
P08684

>  <Reference>
J Med Chem 56 (15), 6022-6032 (2013)

>  <Pubmed ID>
23869452

>  <DOI>
10.1021/jm400240r

$$$$
1581005
Actelion Java MolfileCreator 1.0

 30 33  0  0  0  0  0  0  0  0999 V2000
    0.0000   -0.0000   -0.0000 O   0  0  0  0  0  0  0  0  0  0  0  0
   -1.3066    0.7651   -0.0000 C   0  0  0  0  0  0  0  0  0  0  0  0
   -1.3183    2.2718   -0.0000 N   0  0  0  0  0  0  0  0  0  0  0  0
   -2.6131    0.0235   -0.0000 N   0  0  0  0  0  0  0  0  0  0  0  0
   -2.6249    3.0369   -0.0000 C   0  0  0  0  0  0  0  0  0  0  0  0
   -0.0353    3.0369   -0.0000 C   0  0  0  0  0  0  0  0  0  0  0  0
   -3.9197    0.7886   -0.0000 C   0  0  0  0  0  0  0  0  0  0  0  0
   -2.6249   -1.4596   -0.0000 C   0  0  0  0  0  0  0  0  0  0  0  0
   -2.6366    4.5435   -0.0000 N   0  0  0  0  0  0  0  0  0  0  0  0
   -3.9314    2.2953   -0.0000 C   0  0  0  0  0  0  0  0  0  0  0  0
    1.2477    2.2953   -0.0000 C   0  0  0  0  0  0  0  0  0  0  0  0
   -5.2262    0.0471   -0.0000 O   0  0  0  0  0  0  0  0  0  0  0  0
   -3.9314   -2.1894   -0.0000 C   0  0  0  0  0  0  0  0  0  0  0  0
   -3.9432    5.3086   -0.0000 C   0  0  0  0  0  0  0  0  0  0  0  0
   -1.3536    5.3086   -0.0000 C   0  0  0  0  0  0  0  0  0  0  0  0
    2.5307    1.5655   -0.0000 C   0  0  0  0  0  0  0  0  0  0  0  0
   -5.2380   -1.4360   -0.0000 N   0  0  0  0  0  0  0  0  0  0  0  0
   -3.9432   -3.6725   -0.0000 C   0  0  0  0  0  0  0  0  0  0  0  0
   -3.9550    6.8153   -0.0000 C   0  0  0  0  0  0  0  0  0  0  0  0
   -1.3654    6.8153   -0.0000 C   0  0  0  0  0  0  0  0  0  0  0  0
    3.8137    0.8240   -0.0000 C   0  0  0  0  0  0  0  0  0  0  0  0
   -6.5445   -2.1658   -0.0000 C   0  0  0  0  0  0  0  0  0  0  0  0
   -5.2498   -4.4140   -0.0000 C   0  0  0  0  0  0  0  0  0  0  0  0
   -5.2615    7.5686   -0.0000 N   0  0  0  0  0  0  0  0  0  0  0  0
   -2.6720    7.5686   -0.0000 C   0  0  0  0  0  0  0  0  0  0  0  0
   -6.5563   -3.6489   -0.0000 C   0  0  0  0  0  0  0  0  0  0  0  0
   -7.8511   -1.4125   -0.0000 C   0  0  0  0  0  0  0  0  0  0  0  0
   -7.8629   -4.3905   -0.0000 C   0  0  0  0  0  0  0  0  0  0  0  0
   -9.1576   -2.1423   -0.0000 C   0  0  0  0  0  0  0  0  0  0  0  0
   -9.1694   -3.6254   -0.0000 C   0  0  0  0  0  0  0  0  0  0  0  0
  1  2  2  0  0  0  0
  2  3  1  0  0  0  0
  2  4  1  0  0  0  0
  3  5  1  0  0  0  0
  3  6  1  0  0  0  0
  4  7  1  0  0  0  0
  4  8  1  0  0  0  0
  5  9  1  0  0  0  0
  5 10  2  0  0  0  0
  6 11  1  0  0  0  0
  7 12  2  0  0  0  0
  8 13  1  0  0  0  0
  9 14  1  0  0  0  0
  9 15  1  0  0  0  0
 11 16  3  0  0  0  0
 13 17  2  0  0  0  0
 13 18  1  0  0  0  0
 14 19  1  0  0  0  0
 15 20  1  0  0  0  0
 16 21  1  0  0  0  0
 17 22  1  0  0  0  0
 18 23  2  0  0  0  0
 19 24  1  1  0  0  0
 19 25  1  0  0  0  0
 22 26  1  0  0  0  0
 22 27  2  0  0  0  0
 26 28  2  0  0  0  0
 27 29  1  0  0  0  0
 28 30  1  0  0  0  0
  7 10  1  0  0  0  0
 20 25  1  0  0  0  0
 23 26  1  0  0  0  0
 29 30  2  0  0  0  0
M  END
>  <MolRegNo>
1581005

>  <m>
=

>  <Value>
97900

>  <Unit>
nM

>  <Type>
IC50

>  <pValue>
4.01

>  <Ligand Efficiency>
0

>  <Binding Efficiency>
0

>  <Surface Efficiency>
0

>  <Assay Index>
796730

>  <Assay Category>


>  <Assay Organism>
Homo sapiens

>  <Target ID>
17045

>  <Target Name>
Cytochrome P450 3A4

>  <Target Organism>
Homo sapiens

>  <Target Description>
Target is a single protein chain

>  <Sequence Accession>
P08684

>  <Reference>


>  <Pubmed ID>
23994324

>  <DOI>
10.1016/j.ejmech.2013.08.010

$$$$
1581008
Actelion Java MolfileCreator 1.0

 31 34  0  0  0  0  0  0  0  0999 V2000
    0.0000   -0.0000   -0.0000 Cl  0  0  0  0  0  0  0  0  0  0  0  0
    1.2886    0.7566   -0.0000 C   0  0  0  0  0  0  0  0  0  0  0  0
    2.5772    0.0236   -0.0000 C   0  0  0  0  0  0  0  0  0  0  0  0
    1.2768    2.2699   -0.0000 C   0  0  0  0  0  0  0  0  0  0  0  0
    3.8659    0.7803   -0.0000 C   0  0  0  0  0  0  0  0  0  0  0  0
    2.5654    3.0265   -0.0000 C   0  0  0  0  0  0  0  0  0  0  0  0
    3.8540    2.2935   -0.0000 C   0  0  0  0  0  0  0  0  0  0  0  0
    5.1545    0.0473   -0.0000 C   0  0  0  0  0  0  0  0  0  0  0  0
    5.1427    3.0501   -0.0000 N   0  0  0  0  0  0  0  0  0  0  0  0
    6.4431    0.8039   -0.0000 C   0  0  0  0  0  0  0  0  0  0  0  0
    6.4313    2.3053   -0.0000 C   0  0  0  0  0  0  0  0  0  0  0  0
    7.7199    3.0620   -0.0000 C   0  0  0  0  0  0  0  0  0  0  0  0
    7.7081    4.5752   -0.0000 N   0  0  0  0  0  0  0  0  0  0  0  0
    8.9967    5.3318   -0.0000 C   0  0  0  0  0  0  0  0  0  0  0  0
    6.3958    5.3318   -0.0000 C   0  0  0  0  0  0  0  0  0  0  0  0
   10.2853    4.5988   -0.0000 O   0  0  0  0  0  0  0  0  0  0  0  0
    8.9849    6.8451   -0.0000 N   0  0  0  0  0  0  0  0  0  0  0  0
    5.0836    4.5988   -0.0000 O   0  0  0  0  0  0  0  0  0  0  0  0
    6.3840    6.8451   -0.0000 C   0  0  0  0  0  0  0  0  0  0  0  0
    7.6726    7.6017   -0.0000 C   0  0  0  0  0  0  0  0  0  0  0  0
   10.2735    7.6017   -0.0000 C   0  0  0  0  0  0  0  0  0  0  0  0
    7.6608    9.1149   -0.0000 N   0  0  0  0  0  0  0  0  0  0  0  0
   11.5621    6.8687   -0.0000 C   0  0  0  0  0  0  0  0  0  0  0  0
    6.3485    9.8716   -0.0000 C   0  0  0  0  0  0  0  0  0  0  0  0
    8.9494    9.8716   -0.0000 C   0  0  0  0  0  0  0  0  0  0  0  0
   12.8508    6.1239   -0.0000 C   0  0  0  0  0  0  0  0  0  0  0  0
    6.3367   11.3848   -0.0000 C   0  0  0  0  0  0  0  0  0  0  0  0
    8.9376   11.3848   -0.0000 C   0  0  0  0  0  0  0  0  0  0  0  0
   14.1394    5.3791   -0.0000 C   0  0  0  0  0  0  0  0  0  0  0  0
    5.0244   12.1414   -0.0000 N   0  0  0  0  0  0  0  0  0  0  0  0
    7.6253   12.1414   -0.0000 C   0  0  0  0  0  0  0  0  0  0  0  0
  1  2  1  0  0  0  0
  2  3  2  0  0  0  0
  2  4  1  0  0  0  0
  3  5  1  0  0  0  0
  4  6  2  0  0  0  0
  5  7  1  0  0  0  0
  5  8  2  0  0  0  0
  7  9  2  0  0  0  0
  8 10  1  0  0  0  0
  9 11  1  0  0  0  0
 11 12  1  0  0  0  0
 12 13  1  0  0  0  0
 13 14  1  0  0  0  0
 13 15  1  0  0  0  0
 14 16  2  0  0  0  0
 14 17  1  0  0  0  0
 15 18  2  0  0  0  0
 15 19  1  0  0  0  0
 17 20  1  0  0  0  0
 17 21  1  0  0  0  0
 20 22  1  0  0  0  0
 21 23  1  0  0  0  0
 22 24  1  0  0  0  0
 22 25  1  0  0  0  0
 23 26  3  0  0  0  0
 24 27  1  0  0  0  0
 25 28  1  0  0  0  0
 26 29  1  0  0  0  0
 27 30  1  1  0  0  0
 27 31  1  0  0  0  0
  6  7  1  0  0  0  0
 10 11  2  0  0  0  0
 19 20  2  0  0  0  0
 28 31  1  0  0  0  0
M  END
>  <MolRegNo>
1581008

>  <m>
=

>  <Value>
91930

>  <Unit>
nM

>  <Type>
IC50

>  <pValue>
4.04

>  <Ligand Efficiency>
0

>  <Binding Efficiency>
0

>  <Surface Efficiency>
0

>  <Assay Index>
796730

>  <Assay Category>


>  <Assay Organism>
Homo sapiens

>  <Target ID>
17045

>  <Target Name>
Cytochrome P450 3A4

>  <Target Organism>
Homo sapiens

>  <Target Description>
Target is a single protein chain

>  <Sequence Accession>
P08684

>  <Reference>


>  <Pubmed ID>
23994324

>  <DOI>
10.1016/j.ejmech.2013.08.010

$$$$
1581007
Actelion Java MolfileCreator 1.0

 31 34  0  0  0  0  0  0  0  0999 V2000
    0.0000   -0.0000   -0.0000 Br  0  0  0  0  0  0  0  0  0  0  0  0
    1.2886    0.7566   -0.0000 C   0  0  0  0  0  0  0  0  0  0  0  0
    2.5772    0.0236   -0.0000 C   0  0  0  0  0  0  0  0  0  0  0  0
    1.2768    2.2699   -0.0000 C   0  0  0  0  0  0  0  0  0  0  0  0
    3.8659    0.7803   -0.0000 C   0  0  0  0  0  0  0  0  0  0  0  0
    2.5654    3.0265   -0.0000 C   0  0  0  0  0  0  0  0  0  0  0  0
    3.8540    2.2935   -0.0000 C   0  0  0  0  0  0  0  0  0  0  0  0
    5.1545    0.0473   -0.0000 C   0  0  0  0  0  0  0  0  0  0  0  0
    5.1427    3.0501   -0.0000 N   0  0  0  0  0  0  0  0  0  0  0  0
    6.4431    0.8039   -0.0000 C   0  0  0  0  0  0  0  0  0  0  0  0
    6.4313    2.3053   -0.0000 C   0  0  0  0  0  0  0  0  0  0  0  0
    7.7199    3.0620   -0.0000 C   0  0  0  0  0  0  0  0  0  0  0  0
    7.7081    4.5752   -0.0000 N   0  0  0  0  0  0  0  0  0  0  0  0
    8.9967    5.3318   -0.0000 C   0  0  0  0  0  0  0  0  0  0  0  0
    6.3958    5.3318   -0.0000 C   0  0  0  0  0  0  0  0  0  0  0  0
   10.2853    4.5988   -0.0000 O   0  0  0  0  0  0  0  0  0  0  0  0
    8.9849    6.8451   -0.0000 N   0  0  0  0  0  0  0  0  0  0  0  0
    5.0836    4.5988   -0.0000 O   0  0  0  0  0  0  0  0  0  0  0  0
    6.3840    6.8451   -0.0000 C   0  0  0  0  0  0  0  0  0  0  0  0
    7.6726    7.6017   -0.0000 C   0  0  0  0  0  0  0  0  0  0  0  0
   10.2735    7.6017   -0.0000 C   0  0  0  0  0  0  0  0  0  0  0  0
    7.6608    9.1149   -0.0000 N   0  0  0  0  0  0  0  0  0  0  0  0
   11.5621    6.8687   -0.0000 C   0  0  0  0  0  0  0  0  0  0  0  0
    6.3485    9.8716   -0.0000 C   0  0  0  0  0  0  0  0  0  0  0  0
    8.9494    9.8716   -0.0000 C   0  0  0  0  0  0  0  0  0  0  0  0
   12.8508    6.1239   -0.0000 C   0  0  0  0  0  0  0  0  0  0  0  0
    6.3367   11.3848   -0.0000 C   0  0  0  0  0  0  0  0  0  0  0  0
    8.9376   11.3848   -0.0000 C   0  0  0  0  0  0  0  0  0  0  0  0
   14.1394    5.3791   -0.0000 C   0  0  0  0  0  0  0  0  0  0  0  0
    5.0244   12.1414   -0.0000 N   0  0  0  0  0  0  0  0  0  0  0  0
    7.6253   12.1414   -0.0000 C   0  0  0  0  0  0  0  0  0  0  0  0
  1  2  1  0  0  0  0
  2  3  2  0  0  0  0
  2  4  1  0  0  0  0
  3  5  1  0  0  0  0
  4  6  2  0  0  0  0
  5  7  1  0  0  0  0
  5  8  2  0  0  0  0
  7  9  2  0  0  0  0
  8 10  1  0  0  0  0
  9 11  1  0  0  0  0
 11 12  1  0  0  0  0
 12 13  1  0  0  0  0
 13 14  1  0  0  0  0
 13 15  1  0  0  0  0
 14 16  2  0  0  0  0
 14 17  1  0  0  0  0
 15 18  2  0  0  0  0
 15 19  1  0  0  0  0
 17 20  1  0  0  0  0
 17 21  1  0  0  0  0
 20 22  1  0  0  0  0
 21 23  1  0  0  0  0
 22 24  1  0  0  0  0
 22 25  1  0  0  0  0
 23 26  3  0  0  0  0
 24 27  1  0  0  0  0
 25 28  1  0  0  0  0
 26 29  1  0  0  0  0
 27 30  1  1  0  0  0
 27 31  1  0  0  0  0
  6  7  1  0  0  0  0
 10 11  2  0  0  0  0
 19 20  2  0  0  0  0
 28 31  1  0  0  0  0
M  END
>  <MolRegNo>
1581007

>  <m>
=

>  <Value>
79360

>  <Unit>
nM

>  <Type>
IC50

>  <pValue>
4.1

>  <Ligand Efficiency>
0

>  <Binding Efficiency>
0

>  <Surface Efficiency>
0

>  <Assay Index>
796730

>  <Assay Category>


>  <Assay Organism>
Homo sapiens

>  <Target ID>
17045

>  <Target Name>
Cytochrome P450 3A4

>  <Target Organism>
Homo sapiens

>  <Target Description>
Target is a single protein chain

>  <Sequence Accession>
P08684

>  <Reference>


>  <Pubmed ID>
23994324

>  <DOI>
10.1016/j.ejmech.2013.08.010

$$$$
1581009
Actelion Java MolfileCreator 1.0

 31 34  0  0  0  0  0  0  0  0999 V2000
    0.0000   -0.0000   -0.0000 F   0  0  0  0  0  0  0  0  0  0  0  0
    1.2874    0.7559   -0.0000 C   0  0  0  0  0  0  0  0  0  0  0  0
    2.5749    0.0118   -0.0000 C   0  0  0  0  0  0  0  0  0  0  0  0
    1.2756    2.2678   -0.0000 C   0  0  0  0  0  0  0  0  0  0  0  0
    3.8623    0.7677   -0.0000 C   0  0  0  0  0  0  0  0  0  0  0  0
    2.5631    3.0237   -0.0000 C   0  0  0  0  0  0  0  0  0  0  0  0
    3.8505    2.2796   -0.0000 C   0  0  0  0  0  0  0  0  0  0  0  0
    5.1497    0.0236   -0.0000 C   0  0  0  0  0  0  0  0  0  0  0  0
    5.1379    3.0355   -0.0000 N   0  0  0  0  0  0  0  0  0  0  0  0
    6.4372    0.7795   -0.0000 C   0  0  0  0  0  0  0  0  0  0  0  0
    6.4254    2.3032   -0.0000 C   0  0  0  0  0  0  0  0  0  0  0  0
    7.7128    3.0591   -0.0000 C   0  0  0  0  0  0  0  0  0  0  0  0
    7.7010    4.5710   -0.0000 N   0  0  0  0  0  0  0  0  0  0  0  0
    8.9884    5.3269   -0.0000 C   0  0  0  0  0  0  0  0  0  0  0  0
    6.3899    5.3269   -0.0000 C   0  0  0  0  0  0  0  0  0  0  0  0
   10.2758    4.5828   -0.0000 O   0  0  0  0  0  0  0  0  0  0  0  0
    8.9766    6.8388   -0.0000 N   0  0  0  0  0  0  0  0  0  0  0  0
    5.0789    4.5828   -0.0000 O   0  0  0  0  0  0  0  0  0  0  0  0
    6.3781    6.8388   -0.0000 C   0  0  0  0  0  0  0  0  0  0  0  0
    7.6655    7.5947   -0.0000 C   0  0  0  0  0  0  0  0  0  0  0  0
   10.2640    7.5947   -0.0000 C   0  0  0  0  0  0  0  0  0  0  0  0
    7.6537    9.1065   -0.0000 N   0  0  0  0  0  0  0  0  0  0  0  0
   11.5515    6.8506   -0.0000 C   0  0  0  0  0  0  0  0  0  0  0  0
    6.3427    9.8624   -0.0000 C   0  0  0  0  0  0  0  0  0  0  0  0
    8.9412    9.8624   -0.0000 C   0  0  0  0  0  0  0  0  0  0  0  0
   12.8389    6.1065   -0.0000 C   0  0  0  0  0  0  0  0  0  0  0  0
    6.3309   11.3743   -0.0000 C   0  0  0  0  0  0  0  0  0  0  0  0
    8.9294   11.3743   -0.0000 C   0  0  0  0  0  0  0  0  0  0  0  0
   14.1263    5.3741   -0.0000 C   0  0  0  0  0  0  0  0  0  0  0  0
    5.0198   12.1302   -0.0000 N   0  0  0  0  0  0  0  0  0  0  0  0
    7.6183   12.1302   -0.0000 C   0  0  0  0  0  0  0  0  0  0  0  0
  1  2  1  0  0  0  0
  2  3  2  0  0  0  0
  2  4  1  0  0  0  0
  3  5  1  0  0  0  0
  4  6  2  0  0  0  0
  5  7  1  0  0  0  0
  5  8  2  0  0  0  0
  7  9  2  0  0  0  0
  8 10  1  0  0  0  0
  9 11  1  0  0  0  0
 11 12  1  0  0  0  0
 12 13  1  0  0  0  0
 13 14  1  0  0  0  0
 13 15  1  0  0  0  0
 14 16  2  0  0  0  0
 14 17  1  0  0  0  0
 15 18  2  0  0  0  0
 15 19  1  0  0  0  0
 17 20  1  0  0  0  0
 17 21  1  0  0  0  0
 20 22  1  0  0  0  0
 21 23  1  0  0  0  0
 22 24  1  0  0  0  0
 22 25  1  0  0  0  0
 23 26  3  0  0  0  0
 24 27  1  0  0  0  0
 25 28  1  0  0  0  0
 26 29  1  0  0  0  0
 27 30  1  1  0  0  0
 27 31  1  0  0  0  0
  6  7  1  0  0  0  0
 10 11  2  0  0  0  0
 19 20  2  0  0  0  0
 28 31  1  0  0  0  0
M  END
>  <MolRegNo>
1581009

>  <m>
=

>  <Value>
58280

>  <Unit>
nM

>  <Type>
IC50

>  <pValue>
4.23

>  <Ligand Efficiency>
0

>  <Binding Efficiency>
0

>  <Surface Efficiency>
0

>  <Assay Index>
796730

>  <Assay Category>


>  <Assay Organism>
Homo sapiens

>  <Target ID>
17045

>  <Target Name>
Cytochrome P450 3A4

>  <Target Organism>
Homo sapiens

>  <Target Description>
Target is a single protein chain

>  <Sequence Accession>
P08684

>  <Reference>


>  <Pubmed ID>
23994324

>  <DOI>
10.1016/j.ejmech.2013.08.010

$$$$
1581013
Actelion Java MolfileCreator 1.0

 31 34  0  0  0  0  0  0  0  0999 V2000
    0.0000   -0.0000   -0.0000 F   0  0  0  0  0  0  0  0  0  0  0  0
    1.2898   -0.7455   -0.0000 C   0  0  0  0  0  0  0  0  0  0  0  0
    2.5796    0.0118   -0.0000 C   0  0  0  0  0  0  0  0  0  0  0  0
    1.2780   -2.2365   -0.0000 C   0  0  0  0  0  0  0  0  0  0  0  0
    3.8695   -0.7337   -0.0000 C   0  0  0  0  0  0  0  0  0  0  0  0
    2.5678   -2.9820   -0.0000 C   0  0  0  0  0  0  0  0  0  0  0  0
    5.1593    0.0237   -0.0000 N   0  0  0  0  0  0  0  0  0  0  0  0
    3.8576   -2.2246   -0.0000 C   0  0  0  0  0  0  0  0  0  0  0  0
    6.4491   -0.7218   -0.0000 C   0  0  0  0  0  0  0  0  0  0  0  0
    5.1475   -2.9701   -0.0000 C   0  0  0  0  0  0  0  0  0  0  0  0
    6.4373   -2.2128   -0.0000 C   0  0  0  0  0  0  0  0  0  0  0  0
    7.7389    0.0355   -0.0000 C   0  0  0  0  0  0  0  0  0  0  0  0
    7.7271    1.5502   -0.0000 N   0  0  0  0  0  0  0  0  0  0  0  0
    9.0169    2.3075   -0.0000 C   0  0  0  0  0  0  0  0  0  0  0  0
    6.4136    2.3075   -0.0000 C   0  0  0  0  0  0  0  0  0  0  0  0
   10.3067    1.5738   -0.0000 O   0  0  0  0  0  0  0  0  0  0  0  0
    9.0051    3.8221   -0.0000 N   0  0  0  0  0  0  0  0  0  0  0  0
    5.1001    1.5738   -0.0000 O   0  0  0  0  0  0  0  0  0  0  0  0
    6.4018    3.8221   -0.0000 C   0  0  0  0  0  0  0  0  0  0  0  0
    7.6916    4.5795   -0.0000 C   0  0  0  0  0  0  0  0  0  0  0  0
   10.2949    4.5795   -0.0000 C   0  0  0  0  0  0  0  0  0  0  0  0
    7.6798    6.0941   -0.0000 N   0  0  0  0  0  0  0  0  0  0  0  0
   11.5847    3.8340   -0.0000 C   0  0  0  0  0  0  0  0  0  0  0  0
    6.3663    6.8514   -0.0000 C   0  0  0  0  0  0  0  0  0  0  0  0
    8.9696    6.8514   -0.0000 C   0  0  0  0  0  0  0  0  0  0  0  0
   12.8745    3.1003   -0.0000 C   0  0  0  0  0  0  0  0  0  0  0  0
    6.3544    8.3661   -0.0000 C   0  0  0  0  0  0  0  0  0  0  0  0
    8.9578    8.3661   -0.0000 C   0  0  0  0  0  0  0  0  0  0  0  0
   14.1644    2.3548   -0.0000 C   0  0  0  0  0  0  0  0  0  0  0  0
    5.0410    9.1234   -0.0000 N   0  0  0  0  0  0  0  0  0  0  0  0
    7.6443    9.1234   -0.0000 C   0  0  0  0  0  0  0  0  0  0  0  0
  1  2  1  0  0  0  0
  2  3  2  0  0  0  0
  2  4  1  0  0  0  0
  3  5  1  0  0  0  0
  4  6  2  0  0  0  0
  5  7  2  0  0  0  0
  5  8  1  0  0  0  0
  7  9  1  0  0  0  0
  8 10  2  0  0  0  0
  9 11  2  0  0  0  0
  9 12  1  0  0  0  0
 12 13  1  0  0  0  0
 13 14  1  0  0  0  0
 13 15  1  0  0  0  0
 14 16  2  0  0  0  0
 14 17  1  0  0  0  0
 15 18  2  0  0  0  0
 15 19  1  0  0  0  0
 17 20  1  0  0  0  0
 17 21  1  0  0  0  0
 20 22  1  0  0  0  0
 21 23  1  0  0  0  0
 22 24  1  0  0  0  0
 22 25  1  0  0  0  0
 23 26  3  0  0  0  0
 24 27  1  0  0  0  0
 25 28  1  0  0  0  0
 26 29  1  0  0  0  0
 27 30  1  1  0  0  0
 27 31  1  0  0  0  0
  6  8  1  0  0  0  0
 10 11  1  0  0  0  0
 19 20  2  0  0  0  0
 28 31  1  0  0  0  0
M  END
>  <MolRegNo>
1581013

>  <m>
=

>  <Value>
54650

>  <Unit>
nM

>  <Type>
IC50

>  <pValue>
4.26

>  <Ligand Efficiency>
0

>  <Binding Efficiency>
0

>  <Surface Efficiency>
0

>  <Assay Index>
796730

>  <Assay Category>


>  <Assay Organism>
Homo sapiens

>  <Target ID>
17045

>  <Target Name>
Cytochrome P450 3A4

>  <Target Organism>
Homo sapiens

>  <Target Description>
Target is a single protein chain

>  <Sequence Accession>
P08684

>  <Reference>


>  <Pubmed ID>
23994324

>  <DOI>
10.1016/j.ejmech.2013.08.010

$$$$
1581010
Actelion Java MolfileCreator 1.0

 31 34  0  0  0  0  0  0  0  0999 V2000
    0.0000   -0.0000   -0.0000 O   0  0  0  0  0  0  0  0  0  0  0  0
   -1.3082    0.7543   -0.0000 C   0  0  0  0  0  0  0  0  0  0  0  0
   -1.3199    2.2628   -0.0000 N   0  0  0  0  0  0  0  0  0  0  0  0
   -2.6163    0.0118   -0.0000 N   0  0  0  0  0  0  0  0  0  0  0  0
   -2.6281    3.0170   -0.0000 C   0  0  0  0  0  0  0  0  0  0  0  0
   -0.0354    3.0170   -0.0000 C   0  0  0  0  0  0  0  0  0  0  0  0
   -3.9245    0.7660   -0.0000 C   0  0  0  0  0  0  0  0  0  0  0  0
   -2.6281   -1.4731   -0.0000 C   0  0  0  0  0  0  0  0  0  0  0  0
   -2.6399    4.5255   -0.0000 N   0  0  0  0  0  0  0  0  0  0  0  0
   -3.9363    2.2745   -0.0000 C   0  0  0  0  0  0  0  0  0  0  0  0
    1.2492    2.2745   -0.0000 C   0  0  0  0  0  0  0  0  0  0  0  0
   -5.2326    0.0236   -0.0000 O   0  0  0  0  0  0  0  0  0  0  0  0
   -3.9363   -2.2038   -0.0000 C   0  0  0  0  0  0  0  0  0  0  0  0
   -3.9480    5.2798   -0.0000 C   0  0  0  0  0  0  0  0  0  0  0  0
   -1.3553    5.2798   -0.0000 C   0  0  0  0  0  0  0  0  0  0  0  0
    2.5338    1.5439   -0.0000 C   0  0  0  0  0  0  0  0  0  0  0  0
   -5.2444   -1.4496   -0.0000 N   0  0  0  0  0  0  0  0  0  0  0  0
   -3.9480   -3.6888   -0.0000 C   0  0  0  0  0  0  0  0  0  0  0  0
   -3.9598    6.7883   -0.0000 C   0  0  0  0  0  0  0  0  0  0  0  0
   -1.3671    6.7883   -0.0000 C   0  0  0  0  0  0  0  0  0  0  0  0
    3.8184    0.8014   -0.0000 C   0  0  0  0  0  0  0  0  0  0  0  0
   -6.5526   -2.1803   -0.0000 C   0  0  0  0  0  0  0  0  0  0  0  0
   -5.2562   -4.4194   -0.0000 C   0  0  0  0  0  0  0  0  0  0  0  0
   -5.2680    7.5425   -0.0000 N   0  0  0  0  0  0  0  0  0  0  0  0
   -2.6752    7.5425   -0.0000 C   0  0  0  0  0  0  0  0  0  0  0  0
   -6.5644   -3.6652   -0.0000 C   0  0  0  0  0  0  0  0  0  0  0  0
   -7.8607   -1.4260   -0.0000 C   0  0  0  0  0  0  0  0  0  0  0  0
   -7.8725   -4.3959   -0.0000 C   0  0  0  0  0  0  0  0  0  0  0  0
   -9.1689   -2.1567   -0.0000 C   0  0  0  0  0  0  0  0  0  0  0  0
   -9.1807   -3.6416   -0.0000 C   0  0  0  0  0  0  0  0  0  0  0  0
  -10.4888   -4.3723   -0.0000 C   0  0  0  0  0  0  0  0  0  0  0  0
  1  2  2  0  0  0  0
  2  3  1  0  0  0  0
  2  4  1  0  0  0  0
  3  5  1  0  0  0  0
  3  6  1  0  0  0  0
  4  7  1  0  0  0  0
  4  8  1  0  0  0  0
  5  9  1  0  0  0  0
  5 10  2  0  0  0  0
  6 11  1  0  0  0  0
  7 12  2  0  0  0  0
  8 13  1  0  0  0  0
  9 14  1  0  0  0  0
  9 15  1  0  0  0  0
 11 16  3  0  0  0  0
 13 17  2  0  0  0  0
 13 18  1  0  0  0  0
 14 19  1  0  0  0  0
 15 20  1  0  0  0  0
 16 21  1  0  0  0  0
 17 22  1  0  0  0  0
 18 23  2  0  0  0  0
 19 24  1  1  0  0  0
 19 25  1  0  0  0  0
 22 26  1  0  0  0  0
 22 27  2  0  0  0  0
 26 28  2  0  0  0  0
 27 29  1  0  0  0  0
 28 30  1  0  0  0  0
 30 31  1  0  0  0  0
  7 10  1  0  0  0  0
 20 25  1  0  0  0  0
 23 26  1  0  0  0  0
 29 30  2  0  0  0  0
M  END
>  <MolRegNo>
1581010

>  <m>
=

>  <Value>
46240

>  <Unit>
nM

>  <Type>
IC50

>  <pValue>
4.33

>  <Ligand Efficiency>
0

>  <Binding Efficiency>
0

>  <Surface Efficiency>
0

>  <Assay Index>
796730

>  <Assay Category>


>  <Assay Organism>
Homo sapiens

>  <Target ID>
17045

>  <Target Name>
Cytochrome P450 3A4

>  <Target Organism>
Homo sapiens

>  <Target Description>
Target is a single protein chain

>  <Sequence Accession>
P08684

>  <Reference>


>  <Pubmed ID>
23994324

>  <DOI>
10.1016/j.ejmech.2013.08.010

$$$$
1581012
Actelion Java MolfileCreator 1.0

 31 34  0  0  0  0  0  0  0  0999 V2000
    0.0000   -0.0000   -0.0000 Cl  0  0  0  0  0  0  0  0  0  0  0  0
    1.2895   -0.7453   -0.0000 C   0  0  0  0  0  0  0  0  0  0  0  0
    2.5791    0.0118   -0.0000 C   0  0  0  0  0  0  0  0  0  0  0  0
    1.2777   -2.2360   -0.0000 C   0  0  0  0  0  0  0  0  0  0  0  0
    3.8686   -0.7335   -0.0000 C   0  0  0  0  0  0  0  0  0  0  0  0
    2.5672   -2.9813   -0.0000 C   0  0  0  0  0  0  0  0  0  0  0  0
    5.1581    0.0237   -0.0000 N   0  0  0  0  0  0  0  0  0  0  0  0
    3.8567   -2.2241   -0.0000 C   0  0  0  0  0  0  0  0  0  0  0  0
    6.4476   -0.7217   -0.0000 C   0  0  0  0  0  0  0  0  0  0  0  0
    5.1463   -2.9695   -0.0000 C   0  0  0  0  0  0  0  0  0  0  0  0
    6.4358   -2.2123   -0.0000 C   0  0  0  0  0  0  0  0  0  0  0  0
    7.7372    0.0355   -0.0000 C   0  0  0  0  0  0  0  0  0  0  0  0
    7.7253    1.5498   -0.0000 N   0  0  0  0  0  0  0  0  0  0  0  0
    9.0148    2.3069   -0.0000 C   0  0  0  0  0  0  0  0  0  0  0  0
    6.4121    2.3069   -0.0000 C   0  0  0  0  0  0  0  0  0  0  0  0
   10.3044    1.5616   -0.0000 O   0  0  0  0  0  0  0  0  0  0  0  0
    9.0030    3.8213   -0.0000 N   0  0  0  0  0  0  0  0  0  0  0  0
    5.0990    1.5616   -0.0000 O   0  0  0  0  0  0  0  0  0  0  0  0
    6.4003    3.8213   -0.0000 C   0  0  0  0  0  0  0  0  0  0  0  0
    7.6898    4.5784   -0.0000 C   0  0  0  0  0  0  0  0  0  0  0  0
   10.2925    4.5784   -0.0000 C   0  0  0  0  0  0  0  0  0  0  0  0
    7.6780    6.0927   -0.0000 N   0  0  0  0  0  0  0  0  0  0  0  0
   11.5821    3.8331   -0.0000 C   0  0  0  0  0  0  0  0  0  0  0  0
    6.3648    6.8499   -0.0000 C   0  0  0  0  0  0  0  0  0  0  0  0
    8.9675    6.8499   -0.0000 C   0  0  0  0  0  0  0  0  0  0  0  0
   12.8716    3.0878   -0.0000 C   0  0  0  0  0  0  0  0  0  0  0  0
    6.3530    8.3642   -0.0000 C   0  0  0  0  0  0  0  0  0  0  0  0
    8.9557    8.3642   -0.0000 C   0  0  0  0  0  0  0  0  0  0  0  0
   14.1611    2.3543   -0.0000 C   0  0  0  0  0  0  0  0  0  0  0  0
    5.0398    9.1213   -0.0000 N   0  0  0  0  0  0  0  0  0  0  0  0
    7.6425    9.1213   -0.0000 C   0  0  0  0  0  0  0  0  0  0  0  0
  1  2  1  0  0  0  0
  2  3  2  0  0  0  0
  2  4  1  0  0  0  0
  3  5  1  0  0  0  0
  4  6  2  0  0  0  0
  5  7  2  0  0  0  0
  5  8  1  0  0  0  0
  7  9  1  0  0  0  0
  8 10  2  0  0  0  0
  9 11  2  0  0  0  0
  9 12  1  0  0  0  0
 12 13  1  0  0  0  0
 13 14  1  0  0  0  0
 13 15  1  0  0  0  0
 14 16  2  0  0  0  0
 14 17  1  0  0  0  0
 15 18  2  0  0  0  0
 15 19  1  0  0  0  0
 17 20  1  0  0  0  0
 17 21  1  0  0  0  0
 20 22  1  0  0  0  0
 21 23  1  0  0  0  0
 22 24  1  0  0  0  0
 22 25  1  0  0  0  0
 23 26  3  0  0  0  0
 24 27  1  0  0  0  0
 25 28  1  0  0  0  0
 26 29  1  0  0  0  0
 27 30  1  1  0  0  0
 27 31  1  0  0  0  0
  6  8  1  0  0  0  0
 10 11  1  0  0  0  0
 19 20  2  0  0  0  0
 28 31  1  0  0  0  0
M  END
>  <MolRegNo>
1581012

>  <m>
=

>  <Value>
46180

>  <Unit>
nM

>  <Type>
IC50

>  <pValue>
4.34

>  <Ligand Efficiency>
0

>  <Binding Efficiency>
0

>  <Surface Efficiency>
0

>  <Assay Index>
796730

>  <Assay Category>


>  <Assay Organism>
Homo sapiens

>  <Target ID>
17045

>  <Target Name>
Cytochrome P450 3A4

>  <Target Organism>
Homo sapiens

>  <Target Description>
Target is a single protein chain

>  <Sequence Accession>
P08684

>  <Reference>


>  <Pubmed ID>
23994324

>  <DOI>
10.1016/j.ejmech.2013.08.010

$$$$
1581011
Actelion Java MolfileCreator 1.0

 32 35  0  0  0  0  0  0  0  0999 V2000
    0.0000   -0.0000   -0.0000 O   0  0  0  0  0  0  0  0  0  0  0  0
   -0.7541    1.3079   -0.0000 C   0  0  0  0  0  0  0  0  0  0  0  0
   -0.0236    2.6157   -0.0000 N   0  0  0  0  0  0  0  0  0  0  0  0
   -2.2623    1.3196   -0.0000 N   0  0  0  0  0  0  0  0  0  0  0  0
   -0.7776    3.9236   -0.0000 C   0  0  0  0  0  0  0  0  0  0  0  0
    1.4610    2.6275   -0.0000 C   0  0  0  0  0  0  0  0  0  0  0  0
   -3.0163    2.6275   -0.0000 C   0  0  0  0  0  0  0  0  0  0  0  0
   -3.0163    0.0353   -0.0000 C   0  0  0  0  0  0  0  0  0  0  0  0
   -0.0471    5.2315   -0.0000 N   0  0  0  0  0  0  0  0  0  0  0  0
   -2.2858    3.9354   -0.0000 C   0  0  0  0  0  0  0  0  0  0  0  0
    2.1916    1.3432   -0.0000 C   0  0  0  0  0  0  0  0  0  0  0  0
   -4.5245    2.6393   -0.0000 O   0  0  0  0  0  0  0  0  0  0  0  0
   -4.5245    0.0471   -0.0000 C   0  0  0  0  0  0  0  0  0  0  0  0
   -0.8012    6.5393   -0.0000 C   0  0  0  0  0  0  0  0  0  0  0  0
    1.4375    5.2432   -0.0000 C   0  0  0  0  0  0  0  0  0  0  0  0
    2.9339    0.0589   -0.0000 C   0  0  0  0  0  0  0  0  0  0  0  0
   -5.2786    1.3550   -0.0000 N   0  0  0  0  0  0  0  0  0  0  0  0
   -5.2786   -1.2372   -0.0000 C   0  0  0  0  0  0  0  0  0  0  0  0
   -0.0707    7.8472   -0.0000 C   0  0  0  0  0  0  0  0  0  0  0  0
    2.1680    6.5511   -0.0000 C   0  0  0  0  0  0  0  0  0  0  0  0
    3.6644   -1.2254   -0.0000 C   0  0  0  0  0  0  0  0  0  0  0  0
   -6.7868    1.3668   -0.0000 C   0  0  0  0  0  0  0  0  0  0  0  0
   -6.7868   -1.2254   -0.0000 C   0  0  0  0  0  0  0  0  0  0  0  0
   -0.8248    9.1550   -0.0000 N   0  0  0  0  0  0  0  0  0  0  0  0
    1.4139    7.8590   -0.0000 C   0  0  0  0  0  0  0  0  0  0  0  0
   -7.5408    0.0825   -0.0000 C   0  0  0  0  0  0  0  0  0  0  0  0
   -7.5408    2.6746   -0.0000 C   0  0  0  0  0  0  0  0  0  0  0  0
   -9.0490    0.0943   -0.0000 C   0  0  0  0  0  0  0  0  0  0  0  0
   -9.0490    2.6864   -0.0000 C   0  0  0  0  0  0  0  0  0  0  0  0
   -9.8031    1.4021   -0.0000 C   0  0  0  0  0  0  0  0  0  0  0  0
  -11.3113    1.4139   -0.0000 O   0  0  0  0  0  0  0  0  0  0  0  0
  -12.0653    0.1296   -0.0000 C   0  0  0  0  0  0  0  0  0  0  0  0
  1  2  2  0  0  0  0
  2  3  1  0  0  0  0
  2  4  1  0  0  0  0
  3  5  1  0  0  0  0
  3  6  1  0  0  0  0
  4  7  1  0  0  0  0
  4  8  1  0  0  0  0
  5  9  1  0  0  0  0
  5 10  2  0  0  0  0
  6 11  1  0  0  0  0
  7 12  2  0  0  0  0
  8 13  1  0  0  0  0
  9 14  1  0  0  0  0
  9 15  1  0  0  0  0
 11 16  3  0  0  0  0
 13 17  2  0  0  0  0
 13 18  1  0  0  0  0
 14 19  1  0  0  0  0
 15 20  1  0  0  0  0
 16 21  1  0  0  0  0
 17 22  1  0  0  0  0
 18 23  2  0  0  0  0
 19 24  1  1  0  0  0
 19 25  1  0  0  0  0
 22 26  1  0  0  0  0
 22 27  2  0  0  0  0
 26 28  2  0  0  0  0
 27 29  1  0  0  0  0
 28 30  1  0  0  0  0
 30 31  1  0  0  0  0
 31 32  1  0  0  0  0
  7 10  1  0  0  0  0
 20 25  1  0  0  0  0
 23 26  1  0  0  0  0
 29 30  2  0  0  0  0
M  END
>  <MolRegNo>
1581011

>  <m>
=

>  <Value>
42190

>  <Unit>
nM

>  <Type>
IC50

>  <pValue>
4.38

>  <Ligand Efficiency>
0

>  <Binding Efficiency>
0

>  <Surface Efficiency>
0

>  <Assay Index>
796730

>  <Assay Category>


>  <Assay Organism>
Homo sapiens

>  <Target ID>
17045

>  <Target Name>
Cytochrome P450 3A4

>  <Target Organism>
Homo sapiens

>  <Target Description>
Target is a single protein chain

>  <Sequence Accession>
P08684

>  <Reference>


>  <Pubmed ID>
23994324

>  <DOI>
10.1016/j.ejmech.2013.08.010

$$$$
1581014
Actelion Java MolfileCreator 1.0

 31 34  0  0  0  0  0  0  0  0999 V2000
    0.0000   -0.0000   -0.0000 Cl  0  0  0  0  0  0  0  0  0  0  0  0
   -0.0118    1.5078   -0.0000 C   0  0  0  0  0  0  0  0  0  0  0  0
   -1.3194    2.2617   -0.0000 C   0  0  0  0  0  0  0  0  0  0  0  0
    1.2722    2.2617   -0.0000 C   0  0  0  0  0  0  0  0  0  0  0  0
   -1.3311    3.7696   -0.0000 C   0  0  0  0  0  0  0  0  0  0  0  0
   -2.6269    1.5196   -0.0000 C   0  0  0  0  0  0  0  0  0  0  0  0
    1.2605    3.7696   -0.0000 C   0  0  0  0  0  0  0  0  0  0  0  0
   -0.0471    4.5235   -0.0000 N   0  0  0  0  0  0  0  0  0  0  0  0
   -2.6387    4.5235   -0.0000 C   0  0  0  0  0  0  0  0  0  0  0  0
   -3.9345    2.2735   -0.0000 C   0  0  0  0  0  0  0  0  0  0  0  0
    2.5445    4.5235   -0.0000 C   0  0  0  0  0  0  0  0  0  0  0  0
   -3.9463    3.7814   -0.0000 C   0  0  0  0  0  0  0  0  0  0  0  0
    2.5327    6.0313   -0.0000 N   0  0  0  0  0  0  0  0  0  0  0  0
    3.8167    6.7852   -0.0000 C   0  0  0  0  0  0  0  0  0  0  0  0
    1.2251    6.7852   -0.0000 C   0  0  0  0  0  0  0  0  0  0  0  0
    5.1007    6.0549   -0.0000 O   0  0  0  0  0  0  0  0  0  0  0  0
    3.8049    8.2931   -0.0000 N   0  0  0  0  0  0  0  0  0  0  0  0
   -0.0825    6.0549   -0.0000 O   0  0  0  0  0  0  0  0  0  0  0  0
    1.2133    8.2931   -0.0000 C   0  0  0  0  0  0  0  0  0  0  0  0
    2.4973    9.0470   -0.0000 C   0  0  0  0  0  0  0  0  0  0  0  0
    5.0889    9.0470   -0.0000 C   0  0  0  0  0  0  0  0  0  0  0  0
    2.4856   10.5548   -0.0000 N   0  0  0  0  0  0  0  0  0  0  0  0
    6.3729    8.3166   -0.0000 C   0  0  0  0  0  0  0  0  0  0  0  0
    1.1780   11.3087   -0.0000 C   0  0  0  0  0  0  0  0  0  0  0  0
    3.7696   11.3087   -0.0000 C   0  0  0  0  0  0  0  0  0  0  0  0
    7.6570    7.5745   -0.0000 C   0  0  0  0  0  0  0  0  0  0  0  0
    1.1662   12.8166   -0.0000 C   0  0  0  0  0  0  0  0  0  0  0  0
    3.7578   12.8166   -0.0000 C   0  0  0  0  0  0  0  0  0  0  0  0
    8.9410    6.8324   -0.0000 C   0  0  0  0  0  0  0  0  0  0  0  0
   -0.1414   13.5705   -0.0000 N   0  0  0  0  0  0  0  0  0  0  0  0
    2.4502   13.5705   -0.0000 C   0  0  0  0  0  0  0  0  0  0  0  0
  1  2  1  0  0  0  0
  2  3  1  0  0  0  0
  2  4  2  0  0  0  0
  3  5  1  0  0  0  0
  3  6  2  0  0  0  0
  4  7  1  0  0  0  0
  5  8  1  0  0  0  0
  5  9  2  0  0  0  0
  6 10  1  0  0  0  0
  7 11  1  0  0  0  0
  9 12  1  0  0  0  0
 11 13  1  0  0  0  0
 13 14  1  0  0  0  0
 13 15  1  0  0  0  0
 14 16  2  0  0  0  0
 14 17  1  0  0  0  0
 15 18  2  0  0  0  0
 15 19  1  0  0  0  0
 17 20  1  0  0  0  0
 17 21  1  0  0  0  0
 20 22  1  0  0  0  0
 21 23  1  0  0  0  0
 22 24  1  0  0  0  0
 22 25  1  0  0  0  0
 23 26  3  0  0  0  0
 24 27  1  0  0  0  0
 25 28  1  0  0  0  0
 26 29  1  0  0  0  0
 27 30  1  1  0  0  0
 27 31  1  0  0  0  0
  7  8  2  0  0  0  0
 10 12  2  0  0  0  0
 19 20  2  0  0  0  0
 28 31  1  0  0  0  0
M  END
>  <MolRegNo>
1581014

>  <m>
=

>  <Value>
14080

>  <Unit>
nM

>  <Type>
IC50

>  <pValue>
4.85

>  <Ligand Efficiency>
0

>  <Binding Efficiency>
0

>  <Surface Efficiency>
0

>  <Assay Index>
796730

>  <Assay Category>


>  <Assay Organism>
Homo sapiens

>  <Target ID>
17045

>  <Target Name>
Cytochrome P450 3A4

>  <Target Organism>
Homo sapiens

>  <Target Description>
Target is a single protein chain

>  <Sequence Accession>
P08684

>  <Reference>


>  <Pubmed ID>
23994324

>  <DOI>
10.1016/j.ejmech.2013.08.010

$$$$
1581071
Actelion Java MolfileCreator 1.0

 32 35  0  0  0  0  0  0  0  0999 V2000
    0.0000   -0.0000   -0.0000 O   0  0  0  0  0  0  0  0  0  0  0  0
    0.0000   -1.4899   -0.0000 C   0  0  0  0  0  0  0  0  0  0  0  0
    1.2992   -2.2289   -0.0000 N   0  0  0  0  0  0  0  0  0  0  0  0
   -1.3111   -2.2408   -0.0000 C   0  0  0  0  0  0  0  0  0  0  0  0
    1.2992   -3.7308   -0.0000 C   0  0  0  0  0  0  0  0  0  0  0  0
    2.5865   -1.4661   -0.0000 C   0  0  0  0  0  0  0  0  0  0  0  0
   -1.3111   -3.7427   -0.0000 C   0  0  0  0  0  0  0  0  0  0  0  0
   -2.6223   -1.4899   -0.0000 C   0  0  0  0  0  0  0  0  0  0  0  0
   -0.0238   -4.4817   -0.0000 N   0  0  0  0  0  0  0  0  0  0  0  0
    2.5865   -4.4698   -0.0000 C   0  0  0  0  0  0  0  0  0  0  0  0
    3.8738   -2.2051   -0.0000 C   0  0  0  0  0  0  0  0  0  0  0  0
   -2.6223   -4.4817   -0.0000 C   0  0  0  0  0  0  0  0  0  0  0  0
   -3.9334   -2.2289   -0.0000 C   0  0  0  0  0  0  0  0  0  0  0  0
    2.5746   -5.9597   -0.0000 C   0  0  0  0  0  0  0  0  0  0  0  0
    5.1611   -1.4422   -0.0000 C   0  0  0  0  0  0  0  0  0  0  0  0
   -3.9334   -3.7188   -0.0000 C   0  0  0  0  0  0  0  0  0  0  0  0
   -2.6342   -5.9716   -0.0000 C   0  0  0  0  0  0  0  0  0  0  0  0
    6.4484   -2.1812   -0.0000 C   0  0  0  0  0  0  0  0  0  0  0  0
    5.1373    0.0596   -0.0000 C   0  0  0  0  0  0  0  0  0  0  0  0
   -3.9453   -6.7106   -0.0000 C   0  0  0  0  0  0  0  0  0  0  0  0
    7.7357   -1.4184   -0.0000 C   0  0  0  0  0  0  0  0  0  0  0  0
    6.4126    0.8224   -0.0000 C   0  0  0  0  0  0  0  0  0  0  0  0
   -5.2564   -5.9478   -0.0000 C   0  0  0  0  0  0  0  0  0  0  0  0
   -3.9453   -8.1886   -0.0000 C   0  0  0  0  0  0  0  0  0  0  0  0
    7.7238    0.0954   -0.0000 C   0  0  0  0  0  0  0  0  0  0  0  0
   -6.5676   -6.6868   -0.0000 C   0  0  0  0  0  0  0  0  0  0  0  0
   -5.2445   -8.9395   -0.0000 C   0  0  0  0  0  0  0  0  0  0  0  0
   -6.5795   -8.1767   -0.0000 C   0  0  0  0  0  0  0  0  0  0  0  0
   -7.8906   -8.9157   -0.0000 C   0  0  0  0  0  0  0  0  0  0  0  0
   -9.2018   -8.1648   -0.0000 O   0  0  0  0  0  0  0  0  0  0  0  0
   -7.8906  -10.4056   -0.0000 N   0  0  0  0  0  0  0  0  0  0  0  0
   -9.2018  -11.1446   -0.0000 O   0  0  0  0  0  0  0  0  0  0  0  0
  1  2  2  0  0  0  0
  2  3  1  0  0  0  0
  2  4  1  0  0  0  0
  3  5  1  0  0  0  0
  3  6  1  0  0  0  0
  4  7  2  0  0  0  0
  4  8  1  0  0  0  0
  5  9  2  0  0  0  0
  5 10  1  0  0  0  0
  6 11  1  0  0  0  0
  7 12  1  0  0  0  0
  8 13  2  0  0  0  0
 10 14  1  0  0  0  0
 11 15  1  0  0  0  0
 12 16  2  0  0  0  0
 12 17  1  0  0  0  0
 15 18  2  0  0  0  0
 15 19  1  0  0  0  0
 17 20  1  0  0  0  0
 18 21  1  0  0  0  0
 19 22  2  0  0  0  0
 20 23  2  0  0  0  0
 20 24  1  0  0  0  0
 21 25  2  0  0  0  0
 23 26  1  0  0  0  0
 24 27  2  0  0  0  0
 26 28  2  0  0  0  0
 28 29  1  0  0  0  0
 29 30  2  0  0  0  0
 29 31  1  0  0  0  0
 31 32  1  0  0  0  0
  7  9  1  0  0  0  0
 13 16  1  0  0  0  0
 22 25  1  0  0  0  0
 27 28  1  0  0  0  0
M  END
>  <MolRegNo>
1581071

>  <m>
=

>  <Value>
100

>  <Unit>
nM

>  <Type>
IC50

>  <pValue>
7

>  <Ligand Efficiency>
0

>  <Binding Efficiency>
0

>  <Surface Efficiency>
0

>  <Assay Index>
797399

>  <Assay Category>


>  <Assay Organism>
Homo sapiens

>  <Target ID>
17045

>  <Target Name>
Cytochrome P450 3A4

>  <Target Organism>
Homo sapiens

>  <Target Description>
Target is a single protein chain

>  <Sequence Accession>
P08684

>  <Reference>
J Med Chem 56 (17), 6775-6791 (2013)

>  <Pubmed ID>
23905680

>  <DOI>
10.1021/jm400564j

$$$$
1581077
Actelion Java MolfileCreator 1.0

 26 28  0  0  0  0  0  0  0  0999 V2000
    0.0000   -0.0000   -0.0000 O   0  0  0  0  0  0  0  0  0  0  0  0
    0.0000   -1.4908   -0.0000 C   0  0  0  0  0  0  0  0  0  0  0  0
    1.3000   -2.2303   -0.0000 N   0  0  0  0  0  0  0  0  0  0  0  0
   -1.3119   -2.2422   -0.0000 C   0  0  0  0  0  0  0  0  0  0  0  0
    1.3000   -3.7330   -0.0000 C   0  0  0  0  0  0  0  0  0  0  0  0
    2.5881   -1.4670   -0.0000 C   0  0  0  0  0  0  0  0  0  0  0  0
   -1.3119   -3.7449   -0.0000 C   0  0  0  0  0  0  0  0  0  0  0  0
   -2.6238   -1.4908   -0.0000 C   0  0  0  0  0  0  0  0  0  0  0  0
   -0.0239   -4.4844   -0.0000 N   0  0  0  0  0  0  0  0  0  0  0  0
    2.5881   -4.4724   -0.0000 C   0  0  0  0  0  0  0  0  0  0  0  0
    3.8761   -2.2064   -0.0000 C   0  0  0  0  0  0  0  0  0  0  0  0
   -2.6238   -4.4844   -0.0000 C   0  0  0  0  0  0  0  0  0  0  0  0
   -3.9358   -2.2303   -0.0000 C   0  0  0  0  0  0  0  0  0  0  0  0
    5.1642   -1.4431   -0.0000 C   0  0  0  0  0  0  0  0  0  0  0  0
   -3.9358   -3.7211   -0.0000 C   0  0  0  0  0  0  0  0  0  0  0  0
    6.4522   -2.1826   -0.0000 C   0  0  0  0  0  0  0  0  0  0  0  0
    5.1403    0.0596   -0.0000 C   0  0  0  0  0  0  0  0  0  0  0  0
   -5.2477   -4.4605   -0.0000 C   0  0  0  0  0  0  0  0  0  0  0  0
    7.7403   -1.4193   -0.0000 C   0  0  0  0  0  0  0  0  0  0  0  0
    6.4165    0.8229   -0.0000 C   0  0  0  0  0  0  0  0  0  0  0  0
   -5.2596   -5.9394   -0.0000 C   0  0  0  0  0  0  0  0  0  0  0  0
    7.7284    0.0954   -0.0000 C   0  0  0  0  0  0  0  0  0  0  0  0
   -6.5715   -6.6669   -0.0000 C   0  0  0  0  0  0  0  0  0  0  0  0
   -6.5954   -8.1577   -0.0000 O   0  0  0  0  0  0  0  0  0  0  0  0
   -7.8715   -5.8917   -0.0000 N   0  0  0  0  0  0  0  0  0  0  0  0
   -7.8715   -4.3770   -0.0000 O   0  0  0  0  0  0  0  0  0  0  0  0
  1  2  2  0  0  0  0
  2  3  1  0  0  0  0
  2  4  1  0  0  0  0
  3  5  1  0  0  0  0
  3  6  1  0  0  0  0
  4  7  2  0  0  0  0
  4  8  1  0  0  0  0
  5  9  2  0  0  0  0
  5 10  1  0  0  0  0
  6 11  1  0  0  0  0
  7 12  1  0  0  0  0
  8 13  2  0  0  0  0
 11 14  1  0  0  0  0
 12 15  2  0  0  0  0
 14 16  2  0  0  0  0
 14 17  1  0  0  0  0
 15 18  1  0  0  0  0
 16 19  1  0  0  0  0
 17 20  2  0  0  0  0
 18 21  2  0  0  0  0
 19 22  2  0  0  0  0
 21 23  1  0  0  0  0
 23 24  2  0  0  0  0
 23 25  1  0  0  0  0
 25 26  1  0  0  0  0
  7  9  1  0  0  0  0
 13 15  1  0  0  0  0
 20 22  1  0  0  0  0
M  END
>  <MolRegNo>
1581077

>  <m>
=

>  <Value>
6500

>  <Unit>
nM

>  <Type>
IC50

>  <pValue>
5.19

>  <Ligand Efficiency>
0

>  <Binding Efficiency>
0

>  <Surface Efficiency>
0

>  <Assay Index>
797399

>  <Assay Category>


>  <Assay Organism>
Homo sapiens

>  <Target ID>
17045

>  <Target Name>
Cytochrome P450 3A4

>  <Target Organism>
Homo sapiens

>  <Target Description>
Target is a single protein chain

>  <Sequence Accession>
P08684

>  <Reference>
J Med Chem 56 (17), 6775-6791 (2013)

>  <Pubmed ID>
23905680

>  <DOI>
10.1021/jm400564j

$$$$
1580723
Actelion Java MolfileCreator 1.0

 38 40  0  0  0  0  0  0  0  0999 V2000
    0.0000   -0.0000   -0.0000 S   0  0  0  0  0  0  0  0  0  0  0  0
   -0.0119    1.5091   -0.0000 O   0  0  0  0  0  0  0  0  0  0  0  0
    1.2953   -0.7486   -0.0000 C   0  0  0  0  0  0  0  0  0  0  0  0
   -1.2953   -0.7486   -0.0000 C   0  0  0  0  0  0  0  0  0  0  0  0
    1.2834   -2.2340   -0.0000 C   0  0  0  0  0  0  0  0  0  0  0  0
   -1.3071   -2.2340   -0.0000 C   0  0  0  0  0  0  0  0  0  0  0  0
    2.5667   -2.9708   -0.0000 N   0  0  0  0  0  0  0  0  0  0  0  0
   -0.0238   -2.9708   -0.0000 C   0  0  0  0  0  0  0  0  0  0  0  0
   -2.6143   -2.9708   -0.0000 C   0  0  0  0  0  0  0  0  0  0  0  0
    3.8501   -2.2102   -0.0000 C   0  0  0  0  0  0  0  0  0  0  0  0
   -0.0356   -4.4561   -0.0000 O   0  0  0  0  0  0  0  0  0  0  0  0
   -3.9333   -2.2102   -0.0000 C   0  0  0  0  0  0  0  0  0  0  0  0
    5.1454   -2.9589   -0.0000 C   0  0  0  0  0  0  0  0  0  0  0  0
   -5.2404   -2.9589   -0.0000 C   0  0  0  0  0  0  0  0  0  0  0  0
   -3.9452   -0.7011   -0.0000 C   0  0  0  0  0  0  0  0  0  0  0  0
    5.1216   -4.4443   -0.0000 N   0  0  0  0  0  0  0  0  0  0  0  0
    6.4287   -2.1984   -0.0000 C   0  0  0  0  0  0  0  0  0  0  0  0
   -6.5475   -2.2102   -0.0000 C   0  0  0  0  0  0  0  0  0  0  0  0
   -5.2523    0.0594   -0.0000 C   0  0  0  0  0  0  0  0  0  0  0  0
    6.4050   -5.1810   -0.0000 C   0  0  0  0  0  0  0  0  0  0  0  0
    7.7121   -2.9351   -0.0000 C   0  0  0  0  0  0  0  0  0  0  0  0
   -7.8547   -2.9589   -0.0000 F   0  0  0  0  0  0  0  0  0  0  0  0
   -6.5713   -0.6892   -0.0000 C   0  0  0  0  0  0  0  0  0  0  0  0
   -5.2642    1.5686   -0.0000 O   0  0  0  0  0  0  0  0  0  0  0  0
    7.7002   -4.4205   -0.0000 C   0  0  0  0  0  0  0  0  0  0  0  0
    8.9955   -2.1746   -0.0000 C   0  0  0  0  0  0  0  0  0  0  0  0
   -7.8903    0.0713   -0.0000 N   0  0  0  0  0  0  0  0  0  0  0  0
   -6.5713    2.3291   -0.0000 C   0  0  0  0  0  0  0  0  0  0  0  0
   10.2907   -2.9113   -0.0000 C   0  0  0  0  0  0  0  0  0  0  0  0
    8.9836   -0.6654   -0.0000 C   0  0  0  0  0  0  0  0  0  0  0  0
   10.2788   -1.4022   -0.0000 C   0  0  0  0  0  0  0  0  0  0  0  0
   -6.5832    3.8382   -0.0000 C   0  0  0  0  0  0  0  0  0  0  0  0
   -7.8784    1.5923   -0.0000 C   0  0  0  0  0  0  0  0  0  0  0  0
   -5.2998    4.5987   -0.0000 F   0  0  0  0  0  0  0  0  0  0  0  0
   -7.8903    4.5987   -0.0000 F   0  0  0  0  0  0  0  0  0  0  0  0
   -6.6070    5.3474   -0.0000 F   0  0  0  0  0  0  0  0  0  0  0  0
   -9.1856    2.3528   -0.0000 O   0  0  0  0  0  0  0  0  0  0  0  0
  -10.4927    1.6161   -0.0000 C   0  0  0  0  0  0  0  0  0  0  0  0
  1  2  2  0  0  0  0
  1  3  1  0  0  0  0
  1  4  1  0  0  0  0
  3  5  1  0  0  0  0
  4  6  1  0  0  0  0
  5  7  1  6  0  0  0
  5  8  1  0  0  0  0
  6  9  1  6  0  0  0
  7 10  1  0  0  0  0
  8 11  1  1  0  0  0
  9 12  1  0  0  0  0
 10 13  1  0  0  0  0
 12 14  2  0  0  0  0
 12 15  1  0  0  0  0
 13 16  2  0  0  0  0
 13 17  1  0  0  0  0
 14 18  1  0  0  0  0
 15 19  2  0  0  0  0
 16 20  1  0  0  0  0
 17 21  2  0  0  0  0
 18 22  1  0  0  0  0
 18 23  2  0  0  0  0
 19 24  1  0  0  0  0
 20 25  2  0  0  0  0
 21 26  1  0  0  0  0
 23 27  1  0  0  0  0
 28 24  1  6  0  0  0
 26 29  1  0  0  0  0
 26 30  1  0  0  0  0
 26 31  1  0  0  0  0
 28 32  1  0  0  0  0
 28 33  1  0  0  0  0
 32 34  1  0  0  0  0
 32 35  1  0  0  0  0
 32 36  1  0  0  0  0
 33 37  1  0  0  0  0
 37 38  1  0  0  0  0
  6  8  1  0  0  0  0
 19 23  1  0  0  0  0
 21 25  1  0  0  0  0
M  END
>  <MolRegNo>
1580723

>  <m>
=

>  <Value>
1600

>  <Unit>
nM

>  <Type>
IC50

>  <pValue>
5.8

>  <Ligand Efficiency>
0

>  <Binding Efficiency>
0

>  <Surface Efficiency>
0

>  <Assay Index>
796303

>  <Assay Category>


>  <Assay Organism>
Homo sapiens

>  <Target ID>
17045

>  <Target Name>
Cytochrome P450 3A4

>  <Target Organism>
Homo sapiens

>  <Target Description>
Target is a single protein chain

>  <Sequence Accession>
P08684

>  <Reference>
Bioorg Med Chem Lett 23 (19), 5300-5306 (2013)

>  <Pubmed ID>
23981898

>  <DOI>
10.1016/j.bmcl.2013.07.071

$$$$
1580722
Actelion Java MolfileCreator 1.0

 38 40  0  0  0  0  0  0  0  0999 V2000
    0.0000   -0.0000   -0.0000 S   0  0  0  0  0  0  0  0  0  0  0  0
   -0.0119    1.5092   -0.0000 O   0  0  0  0  0  0  0  0  0  0  0  0
    1.2953   -0.7487   -0.0000 C   0  0  0  0  0  0  0  0  0  0  0  0
   -1.2953   -0.7487   -0.0000 C   0  0  0  0  0  0  0  0  0  0  0  0
    1.2834   -2.2341   -0.0000 C   0  0  0  0  0  0  0  0  0  0  0  0
   -1.3072   -2.2341   -0.0000 C   0  0  0  0  0  0  0  0  0  0  0  0
    2.5669   -2.9709   -0.0000 N   0  0  0  0  0  0  0  0  0  0  0  0
   -0.0238   -2.9709   -0.0000 C   0  0  0  0  0  0  0  0  0  0  0  0
   -2.6144   -2.9709   -0.0000 C   0  0  0  0  0  0  0  0  0  0  0  0
    3.8503   -2.2103   -0.0000 C   0  0  0  0  0  0  0  0  0  0  0  0
   -0.0357   -4.4563   -0.0000 O   0  0  0  0  0  0  0  0  0  0  0  0
   -3.9335   -2.2103   -0.0000 C   0  0  0  0  0  0  0  0  0  0  0  0
    5.1456   -2.9471   -0.0000 C   0  0  0  0  0  0  0  0  0  0  0  0
   -5.2407   -2.9590   -0.0000 C   0  0  0  0  0  0  0  0  0  0  0  0
   -3.9453   -0.7011   -0.0000 C   0  0  0  0  0  0  0  0  0  0  0  0
    5.3001   -4.4207   -0.0000 N   0  0  0  0  0  0  0  0  0  0  0  0
    6.5122   -2.3173   -0.0000 C   0  0  0  0  0  0  0  0  0  0  0  0
   -6.5478   -2.2103   -0.0000 C   0  0  0  0  0  0  0  0  0  0  0  0
   -5.2525    0.0594   -0.0000 C   0  0  0  0  0  0  0  0  0  0  0  0
    6.7617   -4.7178   -0.0000 O   0  0  0  0  0  0  0  0  0  0  0  0
    7.5104   -3.4225   -0.0000 C   0  0  0  0  0  0  0  0  0  0  0  0
   -7.8550   -2.9590   -0.0000 F   0  0  0  0  0  0  0  0  0  0  0  0
   -6.5716   -0.6892   -0.0000 C   0  0  0  0  0  0  0  0  0  0  0  0
   -5.2644    1.5686   -0.0000 O   0  0  0  0  0  0  0  0  0  0  0  0
    8.9959   -3.2442   -0.0000 C   0  0  0  0  0  0  0  0  0  0  0  0
   -7.8907    0.0713   -0.0000 N   0  0  0  0  0  0  0  0  0  0  0  0
   -6.5716    2.3292   -0.0000 C   0  0  0  0  0  0  0  0  0  0  0  0
    9.8752   -4.4445   -0.0000 C   0  0  0  0  0  0  0  0  0  0  0  0
   -6.5835    3.8384   -0.0000 C   0  0  0  0  0  0  0  0  0  0  0  0
   -7.8788    1.5924   -0.0000 C   0  0  0  0  0  0  0  0  0  0  0  0
   11.3607   -4.2662   -0.0000 C   0  0  0  0  0  0  0  0  0  0  0  0
    9.2573   -5.8111   -0.0000 C   0  0  0  0  0  0  0  0  0  0  0  0
   10.6001   -5.7279   -0.0000 C   0  0  0  0  0  0  0  0  0  0  0  0
   -5.3001    4.5989   -0.0000 F   0  0  0  0  0  0  0  0  0  0  0  0
   -7.8907    4.5989   -0.0000 F   0  0  0  0  0  0  0  0  0  0  0  0
   -6.6073    5.3476   -0.0000 F   0  0  0  0  0  0  0  0  0  0  0  0
   -9.1860    2.3529   -0.0000 O   0  0  0  0  0  0  0  0  0  0  0  0
  -10.4932    1.6162   -0.0000 C   0  0  0  0  0  0  0  0  0  0  0  0
  1  2  2  0  0  0  0
  1  3  1  0  0  0  0
  1  4  1  0  0  0  0
  3  5  1  0  0  0  0
  4  6  1  0  0  0  0
  5  7  1  6  0  0  0
  5  8  1  0  0  0  0
  6  9  1  6  0  0  0
  7 10  1  0  0  0  0
  8 11  1  1  0  0  0
  9 12  1  0  0  0  0
 10 13  1  0  0  0  0
 12 14  2  0  0  0  0
 12 15  1  0  0  0  0
 13 16  2  0  0  0  0
 13 17  1  0  0  0  0
 14 18  1  0  0  0  0
 15 19  2  0  0  0  0
 16 20  1  0  0  0  0
 17 21  2  0  0  0  0
 18 22  1  0  0  0  0
 18 23  2  0  0  0  0
 19 24  1  0  0  0  0
 21 25  1  0  0  0  0
 23 26  1  0  0  0  0
 27 24  1  6  0  0  0
 25 28  1  0  0  0  0
 27 29  1  0  0  0  0
 27 30  1  0  0  0  0
 28 31  1  0  0  0  0
 28 32  1  0  0  0  0
 28 33  1  0  0  0  0
 29 34  1  0  0  0  0
 29 35  1  0  0  0  0
 29 36  1  0  0  0  0
 30 37  1  0  0  0  0
 37 38  1  0  0  0  0
  6  8  1  0  0  0  0
 19 23  1  0  0  0  0
 20 21  1  0  0  0  0
M  END
>  <MolRegNo>
1580722

>  <m>
=

>  <Value>
1100

>  <Unit>
nM

>  <Type>
IC50

>  <pValue>
5.96

>  <Ligand Efficiency>
0

>  <Binding Efficiency>
0

>  <Surface Efficiency>
0

>  <Assay Index>
796303

>  <Assay Category>


>  <Assay Organism>
Homo sapiens

>  <Target ID>
17045

>  <Target Name>
Cytochrome P450 3A4

>  <Target Organism>
Homo sapiens

>  <Target Description>
Target is a single protein chain

>  <Sequence Accession>
P08684

>  <Reference>
Bioorg Med Chem Lett 23 (19), 5300-5306 (2013)

>  <Pubmed ID>
23981898

>  <DOI>
10.1016/j.bmcl.2013.07.071

$$$$
1580721
Actelion Java MolfileCreator 1.0

 38 40  0  0  0  0  0  0  0  0999 V2000
    0.0000   -0.0000   -0.0000 S   0  0  0  0  0  0  0  0  0  0  0  0
   -0.0119    1.5092   -0.0000 O   0  0  0  0  0  0  0  0  0  0  0  0
    1.2953   -0.7487   -0.0000 C   0  0  0  0  0  0  0  0  0  0  0  0
   -1.2953   -0.7487   -0.0000 C   0  0  0  0  0  0  0  0  0  0  0  0
    1.2834   -2.2341   -0.0000 C   0  0  0  0  0  0  0  0  0  0  0  0
   -1.3072   -2.2341   -0.0000 C   0  0  0  0  0  0  0  0  0  0  0  0
    2.5669   -2.9709   -0.0000 N   0  0  0  0  0  0  0  0  0  0  0  0
   -0.0238   -2.9709   -0.0000 C   0  0  0  0  0  0  0  0  0  0  0  0
   -2.6144   -2.9709   -0.0000 C   0  0  0  0  0  0  0  0  0  0  0  0
    3.8503   -2.2103   -0.0000 C   0  0  0  0  0  0  0  0  0  0  0  0
   -0.0357   -4.4563   -0.0000 O   0  0  0  0  0  0  0  0  0  0  0  0
   -3.9335   -2.2103   -0.0000 C   0  0  0  0  0  0  0  0  0  0  0  0
    5.1456   -2.9471   -0.0000 C   0  0  0  0  0  0  0  0  0  0  0  0
   -5.2407   -2.9590   -0.0000 C   0  0  0  0  0  0  0  0  0  0  0  0
   -3.9453   -0.7011   -0.0000 C   0  0  0  0  0  0  0  0  0  0  0  0
    5.3001   -4.4207   -0.0000 C   0  0  0  0  0  0  0  0  0  0  0  0
    6.5122   -2.3173   -0.0000 C   0  0  0  0  0  0  0  0  0  0  0  0
   -6.5478   -2.2103   -0.0000 C   0  0  0  0  0  0  0  0  0  0  0  0
   -5.2525    0.0594   -0.0000 C   0  0  0  0  0  0  0  0  0  0  0  0
    6.7617   -4.7178   -0.0000 N   0  0  0  0  0  0  0  0  0  0  0  0
    7.5104   -3.4225   -0.0000 N   0  0  0  0  0  0  0  0  0  0  0  0
   -7.8550   -2.9590   -0.0000 F   0  0  0  0  0  0  0  0  0  0  0  0
   -6.5716   -0.6892   -0.0000 C   0  0  0  0  0  0  0  0  0  0  0  0
   -5.2644    1.5686   -0.0000 O   0  0  0  0  0  0  0  0  0  0  0  0
    8.9959   -3.2442   -0.0000 C   0  0  0  0  0  0  0  0  0  0  0  0
   -7.8907    0.0713   -0.0000 N   0  0  0  0  0  0  0  0  0  0  0  0
   -6.5716    2.3292   -0.0000 C   0  0  0  0  0  0  0  0  0  0  0  0
    9.8752   -4.4445   -0.0000 C   0  0  0  0  0  0  0  0  0  0  0  0
   -6.5835    3.8384   -0.0000 C   0  0  0  0  0  0  0  0  0  0  0  0
   -7.8788    1.5924   -0.0000 C   0  0  0  0  0  0  0  0  0  0  0  0
   11.3607   -4.2662   -0.0000 C   0  0  0  0  0  0  0  0  0  0  0  0
    9.2573   -5.8111   -0.0000 C   0  0  0  0  0  0  0  0  0  0  0  0
   10.6001   -5.7279   -0.0000 C   0  0  0  0  0  0  0  0  0  0  0  0
   -5.3001    4.5989   -0.0000 F   0  0  0  0  0  0  0  0  0  0  0  0
   -7.8907    4.5989   -0.0000 F   0  0  0  0  0  0  0  0  0  0  0  0
   -6.6073    5.3476   -0.0000 F   0  0  0  0  0  0  0  0  0  0  0  0
   -9.1860    2.3529   -0.0000 O   0  0  0  0  0  0  0  0  0  0  0  0
  -10.4932    1.6162   -0.0000 C   0  0  0  0  0  0  0  0  0  0  0  0
  1  2  2  0  0  0  0
  1  3  1  0  0  0  0
  1  4  1  0  0  0  0
  3  5  1  0  0  0  0
  4  6  1  0  0  0  0
  5  7  1  6  0  0  0
  5  8  1  0  0  0  0
  6  9  1  6  0  0  0
  7 10  1  0  0  0  0
  8 11  1  1  0  0  0
  9 12  1  0  0  0  0
 10 13  1  0  0  0  0
 12 14  2  0  0  0  0
 12 15  1  0  0  0  0
 13 16  1  0  0  0  0
 13 17  2  0  0  0  0
 14 18  1  0  0  0  0
 15 19  2  0  0  0  0
 16 20  2  0  0  0  0
 17 21  1  0  0  0  0
 18 22  1  0  0  0  0
 18 23  2  0  0  0  0
 19 24  1  0  0  0  0
 21 25  1  0  0  0  0
 23 26  1  0  0  0  0
 27 24  1  6  0  0  0
 25 28  1  0  0  0  0
 27 29  1  0  0  0  0
 27 30  1  0  0  0  0
 28 31  1  0  0  0  0
 28 32  1  0  0  0  0
 28 33  1  0  0  0  0
 29 34  1  0  0  0  0
 29 35  1  0  0  0  0
 29 36  1  0  0  0  0
 30 37  1  0  0  0  0
 37 38  1  0  0  0  0
  6  8  1  0  0  0  0
 19 23  1  0  0  0  0
 20 21  1  0  0  0  0
M  END
>  <MolRegNo>
1580721

>  <m>
=

>  <Value>
3600

>  <Unit>
nM

>  <Type>
IC50

>  <pValue>
5.44

>  <Ligand Efficiency>
0

>  <Binding Efficiency>
0

>  <Surface Efficiency>
0

>  <Assay Index>
796303

>  <Assay Category>


>  <Assay Organism>
Homo sapiens

>  <Target ID>
17045

>  <Target Name>
Cytochrome P450 3A4

>  <Target Organism>
Homo sapiens

>  <Target Description>
Target is a single protein chain

>  <Sequence Accession>
P08684

>  <Reference>
Bioorg Med Chem Lett 23 (19), 5300-5306 (2013)

>  <Pubmed ID>
23981898

>  <DOI>
10.1016/j.bmcl.2013.07.071

$$$$
1580720
Actelion Java MolfileCreator 1.0

 39 41  0  0  0  0  0  0  0  0999 V2000
    0.0000   -0.0000   -0.0000 S   0  0  0  0  0  0  0  0  0  0  0  0
   -0.0119    1.5078   -0.0000 O   0  0  0  0  0  0  0  0  0  0  0  0
    1.2941   -0.7480   -0.0000 C   0  0  0  0  0  0  0  0  0  0  0  0
   -1.2941   -0.7480   -0.0000 C   0  0  0  0  0  0  0  0  0  0  0  0
    1.2823   -2.2321   -0.0000 C   0  0  0  0  0  0  0  0  0  0  0  0
   -1.3060   -2.2321   -0.0000 C   0  0  0  0  0  0  0  0  0  0  0  0
    2.5645   -2.9682   -0.0000 N   0  0  0  0  0  0  0  0  0  0  0  0
   -0.0237   -2.9682   -0.0000 C   0  0  0  0  0  0  0  0  0  0  0  0
   -2.6120   -2.9682   -0.0000 C   0  0  0  0  0  0  0  0  0  0  0  0
    3.8468   -2.2083   -0.0000 C   0  0  0  0  0  0  0  0  0  0  0  0
   -0.0356   -4.4523   -0.0000 O   0  0  0  0  0  0  0  0  0  0  0  0
   -3.9299   -2.2083   -0.0000 C   0  0  0  0  0  0  0  0  0  0  0  0
    5.1409   -2.9563   -0.0000 C   0  0  0  0  0  0  0  0  0  0  0  0
   -5.2359   -2.9563   -0.0000 C   0  0  0  0  0  0  0  0  0  0  0  0
   -3.9417   -0.7005   -0.0000 C   0  0  0  0  0  0  0  0  0  0  0  0
    6.4231   -2.1965   -0.0000 C   0  0  0  0  0  0  0  0  0  0  0  0
    5.1171   -4.4404   -0.0000 C   0  0  0  0  0  0  0  0  0  0  0  0
   -6.5419   -2.2083   -0.0000 C   0  0  0  0  0  0  0  0  0  0  0  0
   -5.2477    0.0594   -0.0000 C   0  0  0  0  0  0  0  0  0  0  0  0
    7.7054   -2.9326   -0.0000 C   0  0  0  0  0  0  0  0  0  0  0  0
    6.3994   -5.1765   -0.0000 C   0  0  0  0  0  0  0  0  0  0  0  0
   -7.8479   -2.9563   -0.0000 F   0  0  0  0  0  0  0  0  0  0  0  0
   -6.5656   -0.6886   -0.0000 C   0  0  0  0  0  0  0  0  0  0  0  0
   -5.2596    1.5672   -0.0000 O   0  0  0  0  0  0  0  0  0  0  0  0
    8.9876   -2.1727   -0.0000 O   0  0  0  0  0  0  0  0  0  0  0  0
    7.6935   -4.4285   -0.0000 C   0  0  0  0  0  0  0  0  0  0  0  0
   -7.8835    0.0712   -0.0000 N   0  0  0  0  0  0  0  0  0  0  0  0
   -6.5656    2.3271   -0.0000 C   0  0  0  0  0  0  0  0  0  0  0  0
    8.9758   -0.6649   -0.0000 C   0  0  0  0  0  0  0  0  0  0  0  0
   -6.5775    3.8349   -0.0000 C   0  0  0  0  0  0  0  0  0  0  0  0
   -7.8716    1.5909   -0.0000 C   0  0  0  0  0  0  0  0  0  0  0  0
   10.2580    0.0950   -0.0000 F   0  0  0  0  0  0  0  0  0  0  0  0
    7.6579    0.0950   -0.0000 F   0  0  0  0  0  0  0  0  0  0  0  0
    8.9520    0.8548   -0.0000 F   0  0  0  0  0  0  0  0  0  0  0  0
   -5.2952    4.5947   -0.0000 F   0  0  0  0  0  0  0  0  0  0  0  0
   -7.8835    4.5947   -0.0000 F   0  0  0  0  0  0  0  0  0  0  0  0
   -6.6012    5.3427   -0.0000 F   0  0  0  0  0  0  0  0  0  0  0  0
   -9.1776    2.3508   -0.0000 O   0  0  0  0  0  0  0  0  0  0  0  0
  -10.4836    1.6147   -0.0000 C   0  0  0  0  0  0  0  0  0  0  0  0
  1  2  2  0  0  0  0
  1  3  1  0  0  0  0
  1  4  1  0  0  0  0
  3  5  1  0  0  0  0
  4  6  1  0  0  0  0
  5  7  1  6  0  0  0
  5  8  1  0  0  0  0
  6  9  1  6  0  0  0
  7 10  1  0  0  0  0
  8 11  1  1  0  0  0
  9 12  1  0  0  0  0
 10 13  1  0  0  0  0
 12 14  2  0  0  0  0
 12 15  1  0  0  0  0
 13 16  2  0  0  0  0
 13 17  1  0  0  0  0
 14 18  1  0  0  0  0
 15 19  2  0  0  0  0
 16 20  1  0  0  0  0
 17 21  2  0  0  0  0
 18 22  1  0  0  0  0
 18 23  2  0  0  0  0
 19 24  1  0  0  0  0
 20 25  1  0  0  0  0
 20 26  2  0  0  0  0
 23 27  1  0  0  0  0
 28 24  1  6  0  0  0
 25 29  1  0  0  0  0
 28 30  1  0  0  0  0
 28 31  1  0  0  0  0
 29 32  1  0  0  0  0
 29 33  1  0  0  0  0
 29 34  1  0  0  0  0
 30 35  1  0  0  0  0
 30 36  1  0  0  0  0
 30 37  1  0  0  0  0
 31 38  1  0  0  0  0
 38 39  1  0  0  0  0
  6  8  1  0  0  0  0
 19 23  1  0  0  0  0
 21 26  1  0  0  0  0
M  END
>  <MolRegNo>
1580720

>  <m>
=

>  <Value>
4700

>  <Unit>
nM

>  <Type>
IC50

>  <pValue>
5.33

>  <Ligand Efficiency>
0

>  <Binding Efficiency>
0

>  <Surface Efficiency>
0

>  <Assay Index>
796303

>  <Assay Category>


>  <Assay Organism>
Homo sapiens

>  <Target ID>
17045

>  <Target Name>
Cytochrome P450 3A4

>  <Target Organism>
Homo sapiens

>  <Target Description>
Target is a single protein chain

>  <Sequence Accession>
P08684

>  <Reference>
Bioorg Med Chem Lett 23 (19), 5300-5306 (2013)

>  <Pubmed ID>
23981898

>  <DOI>
10.1016/j.bmcl.2013.07.071

$$$$
1580719
Actelion Java MolfileCreator 1.0

 38 40  0  0  0  0  0  0  0  0999 V2000
    0.0000   -0.0000   -0.0000 S   0  0  0  0  0  0  0  0  0  0  0  0
   -0.0119    1.5083   -0.0000 O   0  0  0  0  0  0  0  0  0  0  0  0
    1.2946   -0.7482   -0.0000 C   0  0  0  0  0  0  0  0  0  0  0  0
   -1.2946   -0.7482   -0.0000 C   0  0  0  0  0  0  0  0  0  0  0  0
    1.2827   -2.2328   -0.0000 C   0  0  0  0  0  0  0  0  0  0  0  0
   -1.3064   -2.2328   -0.0000 C   0  0  0  0  0  0  0  0  0  0  0  0
    2.5654   -2.9692   -0.0000 N   0  0  0  0  0  0  0  0  0  0  0  0
   -0.0238   -2.9692   -0.0000 C   0  0  0  0  0  0  0  0  0  0  0  0
   -2.6129   -2.9692   -0.0000 C   0  0  0  0  0  0  0  0  0  0  0  0
    3.8480   -2.2091   -0.0000 C   0  0  0  0  0  0  0  0  0  0  0  0
   -0.0356   -4.4537   -0.0000 O   0  0  0  0  0  0  0  0  0  0  0  0
   -3.9312   -2.2091   -0.0000 C   0  0  0  0  0  0  0  0  0  0  0  0
    5.1426   -2.9573   -0.0000 C   0  0  0  0  0  0  0  0  0  0  0  0
   -5.2376   -2.9573   -0.0000 C   0  0  0  0  0  0  0  0  0  0  0  0
   -3.9430   -0.7007   -0.0000 C   0  0  0  0  0  0  0  0  0  0  0  0
    6.4253   -2.1972   -0.0000 C   0  0  0  0  0  0  0  0  0  0  0  0
    5.1188   -4.4419   -0.0000 C   0  0  0  0  0  0  0  0  0  0  0  0
   -6.5440   -2.2091   -0.0000 C   0  0  0  0  0  0  0  0  0  0  0  0
   -5.2495    0.0594   -0.0000 C   0  0  0  0  0  0  0  0  0  0  0  0
    7.7079   -2.9335   -0.0000 C   0  0  0  0  0  0  0  0  0  0  0  0
    6.4015   -5.1782   -0.0000 C   0  0  0  0  0  0  0  0  0  0  0  0
   -7.8505   -2.9573   -0.0000 F   0  0  0  0  0  0  0  0  0  0  0  0
   -6.5678   -0.6888   -0.0000 C   0  0  0  0  0  0  0  0  0  0  0  0
   -5.2614    1.5677   -0.0000 O   0  0  0  0  0  0  0  0  0  0  0  0
    8.9906   -2.1734   -0.0000 O   0  0  0  0  0  0  0  0  0  0  0  0
    7.6961   -4.4300   -0.0000 C   0  0  0  0  0  0  0  0  0  0  0  0
   -7.8861    0.0713   -0.0000 N   0  0  0  0  0  0  0  0  0  0  0  0
   -6.5678    2.3278   -0.0000 C   0  0  0  0  0  0  0  0  0  0  0  0
    8.9787   -0.6651   -0.0000 C   0  0  0  0  0  0  0  0  0  0  0  0
   -6.5797    3.8362   -0.0000 C   0  0  0  0  0  0  0  0  0  0  0  0
   -7.8742    1.5915   -0.0000 C   0  0  0  0  0  0  0  0  0  0  0  0
   10.2614    0.0950   -0.0000 C   0  0  0  0  0  0  0  0  0  0  0  0
    7.6604    0.0950   -0.0000 C   0  0  0  0  0  0  0  0  0  0  0  0
   -5.2970    4.5963   -0.0000 F   0  0  0  0  0  0  0  0  0  0  0  0
   -7.8861    4.5963   -0.0000 F   0  0  0  0  0  0  0  0  0  0  0  0
   -6.6034    5.3445   -0.0000 F   0  0  0  0  0  0  0  0  0  0  0  0
   -9.1806    2.3516   -0.0000 O   0  0  0  0  0  0  0  0  0  0  0  0
  -10.4871    1.6152   -0.0000 C   0  0  0  0  0  0  0  0  0  0  0  0
  1  2  2  0  0  0  0
  1  3  1  0  0  0  0
  1  4  1  0  0  0  0
  3  5  1  0  0  0  0
  4  6  1  0  0  0  0
  5  7  1  6  0  0  0
  5  8  1  0  0  0  0
  6  9  1  6  0  0  0
  7 10  1  0  0  0  0
  8 11  1  1  0  0  0
  9 12  1  0  0  0  0
 10 13  1  0  0  0  0
 12 14  2  0  0  0  0
 12 15  1  0  0  0  0
 13 16  2  0  0  0  0
 13 17  1  0  0  0  0
 14 18  1  0  0  0  0
 15 19  2  0  0  0  0
 16 20  1  0  0  0  0
 17 21  2  0  0  0  0
 18 22  1  0  0  0  0
 18 23  2  0  0  0  0
 19 24  1  0  0  0  0
 20 25  1  0  0  0  0
 20 26  2  0  0  0  0
 23 27  1  0  0  0  0
 28 24  1  6  0  0  0
 25 29  1  0  0  0  0
 28 30  1  0  0  0  0
 28 31  1  0  0  0  0
 29 32  1  0  0  0  0
 29 33  1  0  0  0  0
 30 34  1  0  0  0  0
 30 35  1  0  0  0  0
 30 36  1  0  0  0  0
 31 37  1  0  0  0  0
 37 38  1  0  0  0  0
  6  8  1  0  0  0  0
 19 23  1  0  0  0  0
 21 26  1  0  0  0  0
M  END
>  <MolRegNo>
1580719

>  <m>
=

>  <Value>
900

>  <Unit>
nM

>  <Type>
IC50

>  <pValue>
6.05

>  <Ligand Efficiency>
0

>  <Binding Efficiency>
0

>  <Surface Efficiency>
0

>  <Assay Index>
796303

>  <Assay Category>


>  <Assay Organism>
Homo sapiens

>  <Target ID>
17045

>  <Target Name>
Cytochrome P450 3A4

>  <Target Organism>
Homo sapiens

>  <Target Description>
Target is a single protein chain

>  <Sequence Accession>
P08684

>  <Reference>
Bioorg Med Chem Lett 23 (19), 5300-5306 (2013)

>  <Pubmed ID>
23981898

>  <DOI>
10.1016/j.bmcl.2013.07.071

$$$$
1580718
Actelion Java MolfileCreator 1.0

 38 40  0  0  0  0  0  0  0  0999 V2000
    0.0000   -0.0000   -0.0000 S   0  0  0  0  0  0  0  0  0  0  0  0
   -0.0119    1.5089   -0.0000 O   0  0  0  0  0  0  0  0  0  0  0  0
    1.2950   -0.7485   -0.0000 C   0  0  0  0  0  0  0  0  0  0  0  0
   -1.2950   -0.7485   -0.0000 C   0  0  0  0  0  0  0  0  0  0  0  0
    1.2831   -2.2336   -0.0000 C   0  0  0  0  0  0  0  0  0  0  0  0
   -1.3069   -2.2336   -0.0000 C   0  0  0  0  0  0  0  0  0  0  0  0
    2.5663   -2.9702   -0.0000 N   0  0  0  0  0  0  0  0  0  0  0  0
   -0.0238   -2.9702   -0.0000 C   0  0  0  0  0  0  0  0  0  0  0  0
   -2.6138   -2.9702   -0.0000 C   0  0  0  0  0  0  0  0  0  0  0  0
    3.8494   -2.2098   -0.0000 C   0  0  0  0  0  0  0  0  0  0  0  0
   -0.0356   -4.4553   -0.0000 O   0  0  0  0  0  0  0  0  0  0  0  0
   -3.9326   -2.2098   -0.0000 C   0  0  0  0  0  0  0  0  0  0  0  0
    5.1444   -2.9583   -0.0000 C   0  0  0  0  0  0  0  0  0  0  0  0
   -5.2395   -2.9583   -0.0000 C   0  0  0  0  0  0  0  0  0  0  0  0
   -3.9445   -0.7010   -0.0000 C   0  0  0  0  0  0  0  0  0  0  0  0
    6.4276   -2.1980   -0.0000 C   0  0  0  0  0  0  0  0  0  0  0  0
    5.1207   -4.4435   -0.0000 C   0  0  0  0  0  0  0  0  0  0  0  0
   -6.5464   -2.2098   -0.0000 C   0  0  0  0  0  0  0  0  0  0  0  0
   -5.2514    0.0594   -0.0000 C   0  0  0  0  0  0  0  0  0  0  0  0
    7.7107   -2.9346   -0.0000 C   0  0  0  0  0  0  0  0  0  0  0  0
    6.4038   -5.1801   -0.0000 C   0  0  0  0  0  0  0  0  0  0  0  0
   -7.8533   -2.9583   -0.0000 F   0  0  0  0  0  0  0  0  0  0  0  0
   -6.5701   -0.6891   -0.0000 C   0  0  0  0  0  0  0  0  0  0  0  0
   -5.2632    1.5683   -0.0000 O   0  0  0  0  0  0  0  0  0  0  0  0
    7.6988   -4.4316   -0.0000 C   0  0  0  0  0  0  0  0  0  0  0  0
    8.9938   -2.1742   -0.0000 C   0  0  0  0  0  0  0  0  0  0  0  0
   -7.8889    0.0713   -0.0000 N   0  0  0  0  0  0  0  0  0  0  0  0
   -6.5701    2.3287   -0.0000 C   0  0  0  0  0  0  0  0  0  0  0  0
   10.4195   -1.7703   -0.0000 O   0  0  0  0  0  0  0  0  0  0  0  0
   10.2889   -2.9108   -0.0000 C   0  0  0  0  0  0  0  0  0  0  0  0
    8.9820   -0.6653   -0.0000 C   0  0  0  0  0  0  0  0  0  0  0  0
   -6.5820    3.8375   -0.0000 C   0  0  0  0  0  0  0  0  0  0  0  0
   -7.8770    1.5920   -0.0000 C   0  0  0  0  0  0  0  0  0  0  0  0
   -5.2989    4.5979   -0.0000 F   0  0  0  0  0  0  0  0  0  0  0  0
   -7.8889    4.5979   -0.0000 F   0  0  0  0  0  0  0  0  0  0  0  0
   -6.6058    5.3464   -0.0000 F   0  0  0  0  0  0  0  0  0  0  0  0
   -9.1958    2.3524   -0.0000 O   0  0  0  0  0  0  0  0  0  0  0  0
  -10.5146    1.6158   -0.0000 C   0  0  0  0  0  0  0  0  0  0  0  0
  1  2  2  0  0  0  0
  1  3  1  0  0  0  0
  1  4  1  0  0  0  0
  3  5  1  0  0  0  0
  4  6  1  0  0  0  0
  5  7  1  6  0  0  0
  5  8  1  0  0  0  0
  6  9  1  6  0  0  0
  7 10  1  0  0  0  0
  8 11  1  1  0  0  0
  9 12  1  0  0  0  0
 10 13  1  0  0  0  0
 12 14  2  0  0  0  0
 12 15  1  0  0  0  0
 13 16  2  0  0  0  0
 13 17  1  0  0  0  0
 14 18  1  0  0  0  0
 15 19  2  0  0  0  0
 16 20  1  0  0  0  0
 17 21  2  0  0  0  0
 18 22  1  0  0  0  0
 18 23  2  0  0  0  0
 19 24  1  0  0  0  0
 20 25  2  0  0  0  0
 20 26  1  0  0  0  0
 23 27  1  0  0  0  0
 28 24  1  6  0  0  0
 26 29  1  0  0  0  0
 26 30  1  0  0  0  0
 26 31  1  0  0  0  0
 28 32  1  0  0  0  0
 28 33  1  0  0  0  0
 32 34  1  0  0  0  0
 32 35  1  0  0  0  0
 32 36  1  0  0  0  0
 33 37  1  0  0  0  0
 37 38  1  0  0  0  0
  6  8  1  0  0  0  0
 19 23  1  0  0  0  0
 21 25  1  0  0  0  0
M  END
>  <MolRegNo>
1580718

>  <m>
=

>  <Value>
2400

>  <Unit>
nM

>  <Type>
IC50

>  <pValue>
5.62

>  <Ligand Efficiency>
0

>  <Binding Efficiency>
0

>  <Surface Efficiency>
0

>  <Assay Index>
796303

>  <Assay Category>


>  <Assay Organism>
Homo sapiens

>  <Target ID>
17045

>  <Target Name>
Cytochrome P450 3A4

>  <Target Organism>
Homo sapiens

>  <Target Description>
Target is a single protein chain

>  <Sequence Accession>
P08684

>  <Reference>
Bioorg Med Chem Lett 23 (19), 5300-5306 (2013)

>  <Pubmed ID>
23981898

>  <DOI>
10.1016/j.bmcl.2013.07.071

$$$$
1580717
Actelion Java MolfileCreator 1.0

 39 41  0  0  0  0  0  0  0  0999 V2000
    0.0000   -0.0000   -0.0000 S   0  0  0  0  0  0  0  0  0  0  0  0
   -0.0119    1.5097   -0.0000 O   0  0  0  0  0  0  0  0  0  0  0  0
    1.2958   -0.7489   -0.0000 C   0  0  0  0  0  0  0  0  0  0  0  0
   -1.2958   -0.7489   -0.0000 C   0  0  0  0  0  0  0  0  0  0  0  0
    1.2839   -2.2349   -0.0000 C   0  0  0  0  0  0  0  0  0  0  0  0
   -1.3077   -2.2349   -0.0000 C   0  0  0  0  0  0  0  0  0  0  0  0
    2.5678   -2.9719   -0.0000 N   0  0  0  0  0  0  0  0  0  0  0  0
   -0.0238   -2.9719   -0.0000 C   0  0  0  0  0  0  0  0  0  0  0  0
   -2.6153   -2.9719   -0.0000 C   0  0  0  0  0  0  0  0  0  0  0  0
    3.8516   -2.2111   -0.0000 C   0  0  0  0  0  0  0  0  0  0  0  0
   -0.0357   -4.4579   -0.0000 O   0  0  0  0  0  0  0  0  0  0  0  0
   -3.9348   -2.2111   -0.0000 C   0  0  0  0  0  0  0  0  0  0  0  0
    5.1474   -2.9601   -0.0000 C   0  0  0  0  0  0  0  0  0  0  0  0
   -5.2425   -2.9601   -0.0000 C   0  0  0  0  0  0  0  0  0  0  0  0
   -3.9467   -0.7014   -0.0000 C   0  0  0  0  0  0  0  0  0  0  0  0
    6.4313   -2.1992   -0.0000 C   0  0  0  0  0  0  0  0  0  0  0  0
    5.1236   -4.4460   -0.0000 C   0  0  0  0  0  0  0  0  0  0  0  0
   -6.5502   -2.2111   -0.0000 C   0  0  0  0  0  0  0  0  0  0  0  0
   -5.2544    0.0594   -0.0000 C   0  0  0  0  0  0  0  0  0  0  0  0
    7.7152   -2.9363   -0.0000 C   0  0  0  0  0  0  0  0  0  0  0  0
    6.4075   -5.1831   -0.0000 C   0  0  0  0  0  0  0  0  0  0  0  0
   -7.8578   -2.9601   -0.0000 F   0  0  0  0  0  0  0  0  0  0  0  0
   -6.5739   -0.6895   -0.0000 C   0  0  0  0  0  0  0  0  0  0  0  0
   -5.2663    1.5692   -0.0000 O   0  0  0  0  0  0  0  0  0  0  0  0
    7.7033   -4.4341   -0.0000 C   0  0  0  0  0  0  0  0  0  0  0  0
    8.9990   -2.1755   -0.0000 C   0  0  0  0  0  0  0  0  0  0  0  0
   -7.8935    0.0713   -0.0000 N   0  0  0  0  0  0  0  0  0  0  0  0
   -6.5739    2.3300   -0.0000 C   0  0  0  0  0  0  0  0  0  0  0  0
   10.2948   -2.9125   -0.0000 C   0  0  0  0  0  0  0  0  0  0  0  0
    8.9871   -0.6657   -0.0000 C   0  0  0  0  0  0  0  0  0  0  0  0
   10.4256   -1.7713   -0.0000 C   0  0  0  0  0  0  0  0  0  0  0  0
   -6.5858    3.8397   -0.0000 C   0  0  0  0  0  0  0  0  0  0  0  0
   -7.8816    1.5930   -0.0000 C   0  0  0  0  0  0  0  0  0  0  0  0
   10.2829   -4.3985   -0.0000 O   0  0  0  0  0  0  0  0  0  0  0  0
   -5.3019    4.6006   -0.0000 F   0  0  0  0  0  0  0  0  0  0  0  0
   -7.8935    4.6006   -0.0000 F   0  0  0  0  0  0  0  0  0  0  0  0
   -6.6096    5.3495   -0.0000 F   0  0  0  0  0  0  0  0  0  0  0  0
   -9.1892    2.3538   -0.0000 O   0  0  0  0  0  0  0  0  0  0  0  0
  -10.4969    1.6167   -0.0000 C   0  0  0  0  0  0  0  0  0  0  0  0
  1  2  2  0  0  0  0
  1  3  1  0  0  0  0
  1  4  1  0  0  0  0
  3  5  1  0  0  0  0
  4  6  1  0  0  0  0
  5  7  1  6  0  0  0
  5  8  1  0  0  0  0
  6  9  1  6  0  0  0
  7 10  1  0  0  0  0
  8 11  1  1  0  0  0
  9 12  1  0  0  0  0
 10 13  1  0  0  0  0
 12 14  2  0  0  0  0
 12 15  1  0  0  0  0
 13 16  2  0  0  0  0
 13 17  1  0  0  0  0
 14 18  1  0  0  0  0
 15 19  2  0  0  0  0
 16 20  1  0  0  0  0
 17 21  2  0  0  0  0
 18 22  1  0  0  0  0
 18 23  2  0  0  0  0
 19 24  1  0  0  0  0
 20 25  2  0  0  0  0
 20 26  1  0  0  0  0
 23 27  1  0  0  0  0
 28 24  1  6  0  0  0
 26 29  1  0  0  0  0
 26 30  1  0  0  0  0
 26 31  1  0  0  0  0
 28 32  1  0  0  0  0
 28 33  1  0  0  0  0
 29 34  1  0  0  0  0
 32 35  1  0  0  0  0
 32 36  1  0  0  0  0
 32 37  1  0  0  0  0
 33 38  1  0  0  0  0
 38 39  1  0  0  0  0
  6  8  1  0  0  0  0
 19 23  1  0  0  0  0
 21 25  1  0  0  0  0
M  END
>  <MolRegNo>
1580717

>  <m>
=

>  <Value>
1000

>  <Unit>
nM

>  <Type>
IC50

>  <pValue>
6

>  <Ligand Efficiency>
0

>  <Binding Efficiency>
0

>  <Surface Efficiency>
0

>  <Assay Index>
796303

>  <Assay Category>


>  <Assay Organism>
Homo sapiens

>  <Target ID>
17045

>  <Target Name>
Cytochrome P450 3A4

>  <Target Organism>
Homo sapiens

>  <Target Description>
Target is a single protein chain

>  <Sequence Accession>
P08684

>  <Reference>
Bioorg Med Chem Lett 23 (19), 5300-5306 (2013)

>  <Pubmed ID>
23981898

>  <DOI>
10.1016/j.bmcl.2013.07.071

$$$$
1580716
Actelion Java MolfileCreator 1.0

 39 41  0  0  0  0  0  0  0  0999 V2000
    0.0000   -0.0000   -0.0000 S   0  0  0  0  0  0  0  0  0  0  0  0
   -0.0119    1.5095   -0.0000 O   0  0  0  0  0  0  0  0  0  0  0  0
    1.2956   -0.7488   -0.0000 C   0  0  0  0  0  0  0  0  0  0  0  0
   -1.2956   -0.7488   -0.0000 C   0  0  0  0  0  0  0  0  0  0  0  0
    1.2837   -2.2346   -0.0000 C   0  0  0  0  0  0  0  0  0  0  0  0
   -1.3075   -2.2346   -0.0000 C   0  0  0  0  0  0  0  0  0  0  0  0
    2.5674   -2.9715   -0.0000 N   0  0  0  0  0  0  0  0  0  0  0  0
   -0.0238   -2.9715   -0.0000 C   0  0  0  0  0  0  0  0  0  0  0  0
   -2.6149   -2.9715   -0.0000 C   0  0  0  0  0  0  0  0  0  0  0  0
    3.8511   -2.2108   -0.0000 C   0  0  0  0  0  0  0  0  0  0  0  0
   -0.0357   -4.4572   -0.0000 O   0  0  0  0  0  0  0  0  0  0  0  0
   -3.9224   -2.2108   -0.0000 C   0  0  0  0  0  0  0  0  0  0  0  0
    5.1466   -2.9596   -0.0000 C   0  0  0  0  0  0  0  0  0  0  0  0
   -5.2298   -2.9596   -0.0000 C   0  0  0  0  0  0  0  0  0  0  0  0
   -3.9343   -0.7013   -0.0000 C   0  0  0  0  0  0  0  0  0  0  0  0
    5.1229   -4.4454   -0.0000 C   0  0  0  0  0  0  0  0  0  0  0  0
    6.4303   -2.1989   -0.0000 C   0  0  0  0  0  0  0  0  0  0  0  0
   -6.5373   -2.2108   -0.0000 C   0  0  0  0  0  0  0  0  0  0  0  0
   -5.2417    0.0594   -0.0000 C   0  0  0  0  0  0  0  0  0  0  0  0
    3.8035   -5.1823   -0.0000 F   0  0  0  0  0  0  0  0  0  0  0  0
    6.4065   -5.1823   -0.0000 C   0  0  0  0  0  0  0  0  0  0  0  0
    7.7140   -2.9358   -0.0000 C   0  0  0  0  0  0  0  0  0  0  0  0
   -7.8447   -2.9596   -0.0000 F   0  0  0  0  0  0  0  0  0  0  0  0
   -6.5611   -0.6894   -0.0000 C   0  0  0  0  0  0  0  0  0  0  0  0
   -5.2536    1.5689   -0.0000 O   0  0  0  0  0  0  0  0  0  0  0  0
    7.7021   -4.4216   -0.0000 C   0  0  0  0  0  0  0  0  0  0  0  0
    8.9977   -2.1751   -0.0000 C   0  0  0  0  0  0  0  0  0  0  0  0
   -7.8804    0.0713   -0.0000 N   0  0  0  0  0  0  0  0  0  0  0  0
   -6.5611    2.3297   -0.0000 C   0  0  0  0  0  0  0  0  0  0  0  0
   10.2933   -2.9121   -0.0000 C   0  0  0  0  0  0  0  0  0  0  0  0
    8.9858   -0.6656   -0.0000 C   0  0  0  0  0  0  0  0  0  0  0  0
   10.4240   -1.7710   -0.0000 C   0  0  0  0  0  0  0  0  0  0  0  0
   -6.5729    3.8392   -0.0000 C   0  0  0  0  0  0  0  0  0  0  0  0
   -7.8685    1.5927   -0.0000 C   0  0  0  0  0  0  0  0  0  0  0  0
   -5.2893    4.5999   -0.0000 F   0  0  0  0  0  0  0  0  0  0  0  0
   -7.8804    4.5999   -0.0000 F   0  0  0  0  0  0  0  0  0  0  0  0
   -6.5967    5.3487   -0.0000 F   0  0  0  0  0  0  0  0  0  0  0  0
   -9.1760    2.3534   -0.0000 O   0  0  0  0  0  0  0  0  0  0  0  0
  -10.4834    1.6165   -0.0000 C   0  0  0  0  0  0  0  0  0  0  0  0
  1  2  2  0  0  0  0
  1  3  1  0  0  0  0
  1  4  1  0  0  0  0
  3  5  1  0  0  0  0
  4  6  1  0  0  0  0
  5  7  1  6  0  0  0
  5  8  1  0  0  0  0
  6  9  1  6  0  0  0
  7 10  1  0  0  0  0
  8 11  1  1  0  0  0
  9 12  1  0  0  0  0
 10 13  1  0  0  0  0
 12 14  2  0  0  0  0
 12 15  1  0  0  0  0
 13 16  2  0  0  0  0
 13 17  1  0  0  0  0
 14 18  1  0  0  0  0
 15 19  2  0  0  0  0
 16 20  1  0  0  0  0
 16 21  1  0  0  0  0
 17 22  2  0  0  0  0
 18 23  1  0  0  0  0
 18 24  2  0  0  0  0
 19 25  1  0  0  0  0
 21 26  2  0  0  0  0
 22 27  1  0  0  0  0
 24 28  1  0  0  0  0
 29 25  1  6  0  0  0
 27 30  1  0  0  0  0
 27 31  1  0  0  0  0
 27 32  1  0  0  0  0
 29 33  1  0  0  0  0
 29 34  1  0  0  0  0
 33 35  1  0  0  0  0
 33 36  1  0  0  0  0
 33 37  1  0  0  0  0
 34 38  1  0  0  0  0
 38 39  1  0  0  0  0
  6  8  1  0  0  0  0
 19 24  1  0  0  0  0
 22 26  1  0  0  0  0
M  END
>  <MolRegNo>
1580716

>  <m>
=

>  <Value>
100

>  <Unit>
nM

>  <Type>
IC50

>  <pValue>
7

>  <Ligand Efficiency>
0

>  <Binding Efficiency>
0

>  <Surface Efficiency>
0

>  <Assay Index>
796303

>  <Assay Category>


>  <Assay Organism>
Homo sapiens

>  <Target ID>
17045

>  <Target Name>
Cytochrome P450 3A4

>  <Target Organism>
Homo sapiens

>  <Target Description>
Target is a single protein chain

>  <Sequence Accession>
P08684

>  <Reference>
Bioorg Med Chem Lett 23 (19), 5300-5306 (2013)

>  <Pubmed ID>
23981898

>  <DOI>
10.1016/j.bmcl.2013.07.071

$$$$
1580715
Actelion Java MolfileCreator 1.0

 39 41  0  0  0  0  0  0  0  0999 V2000
    0.0000   -0.0000   -0.0000 S   0  0  0  0  0  0  0  0  0  0  0  0
   -0.0119    1.5088   -0.0000 O   0  0  0  0  0  0  0  0  0  0  0  0
    1.2949   -0.7484   -0.0000 C   0  0  0  0  0  0  0  0  0  0  0  0
   -1.2949   -0.7484   -0.0000 C   0  0  0  0  0  0  0  0  0  0  0  0
    1.2831   -2.2335   -0.0000 C   0  0  0  0  0  0  0  0  0  0  0  0
   -1.3068   -2.2335   -0.0000 C   0  0  0  0  0  0  0  0  0  0  0  0
    2.5661   -2.9700   -0.0000 N   0  0  0  0  0  0  0  0  0  0  0  0
   -0.0238   -2.9700   -0.0000 C   0  0  0  0  0  0  0  0  0  0  0  0
   -2.6136   -2.9700   -0.0000 C   0  0  0  0  0  0  0  0  0  0  0  0
    3.8492   -2.2097   -0.0000 C   0  0  0  0  0  0  0  0  0  0  0  0
   -0.0356   -4.4550   -0.0000 O   0  0  0  0  0  0  0  0  0  0  0  0
   -3.9323   -2.2097   -0.0000 C   0  0  0  0  0  0  0  0  0  0  0  0
    5.1441   -2.9581   -0.0000 C   0  0  0  0  0  0  0  0  0  0  0  0
    3.8373   -0.7009   -0.0000 C   0  0  0  0  0  0  0  0  0  0  0  0
   -5.2391   -2.9581   -0.0000 C   0  0  0  0  0  0  0  0  0  0  0  0
   -3.9442   -0.7009   -0.0000 C   0  0  0  0  0  0  0  0  0  0  0  0
    6.4271   -2.1978   -0.0000 C   0  0  0  0  0  0  0  0  0  0  0  0
    5.1203   -4.4432   -0.0000 C   0  0  0  0  0  0  0  0  0  0  0  0
   -6.5459   -2.2097   -0.0000 C   0  0  0  0  0  0  0  0  0  0  0  0
   -5.2510    0.0594   -0.0000 C   0  0  0  0  0  0  0  0  0  0  0  0
    7.7102   -2.9344   -0.0000 C   0  0  0  0  0  0  0  0  0  0  0  0
    6.4034   -5.1797   -0.0000 C   0  0  0  0  0  0  0  0  0  0  0  0
   -7.8528   -2.9581   -0.0000 F   0  0  0  0  0  0  0  0  0  0  0  0
   -6.5697   -0.6890   -0.0000 C   0  0  0  0  0  0  0  0  0  0  0  0
   -5.2629    1.5682   -0.0000 O   0  0  0  0  0  0  0  0  0  0  0  0
    7.6983   -4.4313   -0.0000 C   0  0  0  0  0  0  0  0  0  0  0  0
    8.9932   -2.1741   -0.0000 C   0  0  0  0  0  0  0  0  0  0  0  0
   -7.8884    0.0713   -0.0000 N   0  0  0  0  0  0  0  0  0  0  0  0
   -6.5697    2.3285   -0.0000 C   0  0  0  0  0  0  0  0  0  0  0  0
   10.2882   -2.9106   -0.0000 C   0  0  0  0  0  0  0  0  0  0  0  0
    8.9814   -0.6653   -0.0000 C   0  0  0  0  0  0  0  0  0  0  0  0
   10.2763   -1.4019   -0.0000 C   0  0  0  0  0  0  0  0  0  0  0  0
   -6.5816    3.8373   -0.0000 C   0  0  0  0  0  0  0  0  0  0  0  0
   -7.8765    1.5919   -0.0000 C   0  0  0  0  0  0  0  0  0  0  0  0
   -5.2985    4.5976   -0.0000 F   0  0  0  0  0  0  0  0  0  0  0  0
   -7.8884    4.5976   -0.0000 F   0  0  0  0  0  0  0  0  0  0  0  0
   -6.6053    5.3461   -0.0000 F   0  0  0  0  0  0  0  0  0  0  0  0
   -9.1833    2.3523   -0.0000 O   0  0  0  0  0  0  0  0  0  0  0  0
  -10.4901    1.6157   -0.0000 C   0  0  0  0  0  0  0  0  0  0  0  0
  1  2  2  0  0  0  0
  1  3  1  0  0  0  0
  1  4  1  0  0  0  0
  3  5  1  0  0  0  0
  4  6  1  0  0  0  0
  5  7  1  6  0  0  0
  5  8  1  0  0  0  0
  6  9  1  6  0  0  0
 10  7  1  6  0  0  0
  8 11  1  1  0  0  0
  9 12  1  0  0  0  0
 10 13  1  0  0  0  0
 10 14  1  0  0  0  0
 12 15  2  0  0  0  0
 12 16  1  0  0  0  0
 13 17  2  0  0  0  0
 13 18  1  0  0  0  0
 15 19  1  0  0  0  0
 16 20  2  0  0  0  0
 17 21  1  0  0  0  0
 18 22  2  0  0  0  0
 19 23  1  0  0  0  0
 19 24  2  0  0  0  0
 20 25  1  0  0  0  0
 21 26  2  0  0  0  0
 21 27  1  0  0  0  0
 24 28  1  0  0  0  0
 29 25  1  6  0  0  0
 27 30  1  0  0  0  0
 27 31  1  0  0  0  0
 27 32  1  0  0  0  0
 29 33  1  0  0  0  0
 29 34  1  0  0  0  0
 33 35  1  0  0  0  0
 33 36  1  0  0  0  0
 33 37  1  0  0  0  0
 34 38  1  0  0  0  0
 38 39  1  0  0  0  0
  6  8  1  0  0  0  0
 20 24  1  0  0  0  0
 22 26  1  0  0  0  0
M  END
>  <MolRegNo>
1580715

>  <m>
=

>  <Value>
100

>  <Unit>
nM

>  <Type>
IC50

>  <pValue>
7

>  <Ligand Efficiency>
0

>  <Binding Efficiency>
0

>  <Surface Efficiency>
0

>  <Assay Index>
796303

>  <Assay Category>


>  <Assay Organism>
Homo sapiens

>  <Target ID>
17045

>  <Target Name>
Cytochrome P450 3A4

>  <Target Organism>
Homo sapiens

>  <Target Description>
Target is a single protein chain

>  <Sequence Accession>
P08684

>  <Reference>
Bioorg Med Chem Lett 23 (19), 5300-5306 (2013)

>  <Pubmed ID>
23981898

>  <DOI>
10.1016/j.bmcl.2013.07.071

$$$$
1580734
Actelion Java MolfileCreator 1.0

 37 39  0  0  0  0  0  0  0  0999 V2000
    0.0000   -0.0000   -0.0000 S   0  0  0  0  0  0  0  0  0  0  0  0
   -0.0119    1.5092   -0.0000 O   0  0  0  0  0  0  0  0  0  0  0  0
    1.2953   -0.7487   -0.0000 C   0  0  0  0  0  0  0  0  0  0  0  0
   -1.2953   -0.7487   -0.0000 C   0  0  0  0  0  0  0  0  0  0  0  0
    1.2834   -2.2341   -0.0000 C   0  0  0  0  0  0  0  0  0  0  0  0
   -1.3072   -2.2341   -0.0000 C   0  0  0  0  0  0  0  0  0  0  0  0
    2.5668   -2.9709   -0.0000 N   0  0  0  0  0  0  0  0  0  0  0  0
   -0.0238   -2.9709   -0.0000 C   0  0  0  0  0  0  0  0  0  0  0  0
   -2.6144   -2.9709   -0.0000 C   0  0  0  0  0  0  0  0  0  0  0  0
    3.8503   -2.2103   -0.0000 C   0  0  0  0  0  0  0  0  0  0  0  0
   -0.0357   -4.4563   -0.0000 O   0  0  0  0  0  0  0  0  0  0  0  0
   -3.9216   -2.2103   -0.0000 C   0  0  0  0  0  0  0  0  0  0  0  0
    5.1456   -2.9590   -0.0000 C   0  0  0  0  0  0  0  0  0  0  0  0
   -5.2287   -2.9590   -0.0000 C   0  0  0  0  0  0  0  0  0  0  0  0
   -3.9334   -0.7011   -0.0000 C   0  0  0  0  0  0  0  0  0  0  0  0
    6.4290   -2.1984   -0.0000 C   0  0  0  0  0  0  0  0  0  0  0  0
    5.1218   -4.4444   -0.0000 C   0  0  0  0  0  0  0  0  0  0  0  0
   -6.5359   -2.2103   -0.0000 C   0  0  0  0  0  0  0  0  0  0  0  0
   -5.2406    0.0594   -0.0000 C   0  0  0  0  0  0  0  0  0  0  0  0
    7.7124   -2.9352   -0.0000 C   0  0  0  0  0  0  0  0  0  0  0  0
    6.4052   -5.1812   -0.0000 C   0  0  0  0  0  0  0  0  0  0  0  0
   -7.8431   -2.9590   -0.0000 F   0  0  0  0  0  0  0  0  0  0  0  0
   -6.5597   -0.6892   -0.0000 C   0  0  0  0  0  0  0  0  0  0  0  0
   -5.2525    1.5686   -0.0000 O   0  0  0  0  0  0  0  0  0  0  0  0
    7.7005   -4.4325   -0.0000 C   0  0  0  0  0  0  0  0  0  0  0  0
    8.9958   -2.1747   -0.0000 C   0  0  0  0  0  0  0  0  0  0  0  0
   -7.8788    0.0713   -0.0000 N   0  0  0  0  0  0  0  0  0  0  0  0
   -6.5597    2.3292   -0.0000 C   0  0  0  0  0  0  0  0  0  0  0  0
   10.2911   -2.9115   -0.0000 C   0  0  0  0  0  0  0  0  0  0  0  0
    8.9839   -0.6655   -0.0000 C   0  0  0  0  0  0  0  0  0  0  0  0
   -6.5716    3.8384   -0.0000 C   0  0  0  0  0  0  0  0  0  0  0  0
   -7.8669    1.5924   -0.0000 C   0  0  0  0  0  0  0  0  0  0  0  0
   -5.2882    4.5989   -0.0000 F   0  0  0  0  0  0  0  0  0  0  0  0
   -7.8788    4.5989   -0.0000 F   0  0  0  0  0  0  0  0  0  0  0  0
   -6.5953    5.3476   -0.0000 F   0  0  0  0  0  0  0  0  0  0  0  0
   -9.1741    2.3529   -0.0000 O   0  0  0  0  0  0  0  0  0  0  0  0
  -10.4812    1.6162   -0.0000 C   0  0  0  0  0  0  0  0  0  0  0  0
  1  2  2  0  0  0  0
  1  3  1  0  0  0  0
  1  4  1  0  0  0  0
  3  5  1  0  0  0  0
  4  6  1  0  0  0  0
  5  7  1  6  0  0  0
  5  8  1  0  0  0  0
  6  9  1  6  0  0  0
  7 10  1  0  0  0  0
  8 11  1  1  0  0  0
  9 12  1  0  0  0  0
 10 13  1  0  0  0  0
 12 14  2  0  0  0  0
 12 15  1  0  0  0  0
 13 16  2  0  0  0  0
 13 17  1  0  0  0  0
 14 18  1  0  0  0  0
 15 19  2  0  0  0  0
 16 20  1  0  0  0  0
 17 21  2  0  0  0  0
 18 22  1  0  0  0  0
 18 23  2  0  0  0  0
 19 24  1  0  0  0  0
 20 25  2  0  0  0  0
 20 26  1  0  0  0  0
 23 27  1  0  0  0  0
 28 24  1  6  0  0  0
 26 29  1  0  0  0  0
 26 30  1  0  0  0  0
 28 31  1  0  0  0  0
 28 32  1  0  0  0  0
 31 33  1  0  0  0  0
 31 34  1  0  0  0  0
 31 35  1  0  0  0  0
 32 36  1  0  0  0  0
 36 37  1  0  0  0  0
  6  8  1  0  0  0  0
 19 23  1  0  0  0  0
 21 25  1  0  0  0  0
M  END
>  <MolRegNo>
1580734

>  <m>
=

>  <Value>
700

>  <Unit>
nM

>  <Type>
IC50

>  <pValue>
6.16

>  <Ligand Efficiency>
0

>  <Binding Efficiency>
0

>  <Surface Efficiency>
0

>  <Assay Index>
796303

>  <Assay Category>


>  <Assay Organism>
Homo sapiens

>  <Target ID>
17045

>  <Target Name>
Cytochrome P450 3A4

>  <Target Organism>
Homo sapiens

>  <Target Description>
Target is a single protein chain

>  <Sequence Accession>
P08684

>  <Reference>
Bioorg Med Chem Lett 23 (19), 5300-5306 (2013)

>  <Pubmed ID>
23981898

>  <DOI>
10.1016/j.bmcl.2013.07.071

$$$$
1580733
Actelion Java MolfileCreator 1.0

 40 42  0  0  0  0  0  0  0  0999 V2000
    0.0000   -0.0000   -0.0000 S   0  0  0  0  0  0  0  0  0  0  0  0
   -0.0119    1.5083   -0.0000 O   0  0  0  0  0  0  0  0  0  0  0  0
    1.2945   -0.7482   -0.0000 C   0  0  0  0  0  0  0  0  0  0  0  0
   -1.2945   -0.7482   -0.0000 C   0  0  0  0  0  0  0  0  0  0  0  0
    1.2827   -2.2328   -0.0000 C   0  0  0  0  0  0  0  0  0  0  0  0
   -1.3064   -2.2328   -0.0000 C   0  0  0  0  0  0  0  0  0  0  0  0
    2.5653   -2.9691   -0.0000 N   0  0  0  0  0  0  0  0  0  0  0  0
   -0.0238   -2.9691   -0.0000 C   0  0  0  0  0  0  0  0  0  0  0  0
   -2.6128   -2.9691   -0.0000 C   0  0  0  0  0  0  0  0  0  0  0  0
    3.8480   -2.2090   -0.0000 C   0  0  0  0  0  0  0  0  0  0  0  0
   -0.0356   -4.4537   -0.0000 O   0  0  0  0  0  0  0  0  0  0  0  0
   -3.9192   -2.2090   -0.0000 C   0  0  0  0  0  0  0  0  0  0  0  0
    5.1425   -2.9572   -0.0000 C   0  0  0  0  0  0  0  0  0  0  0  0
    3.0760   -0.8907   -0.0000 H   0  0  0  0  0  0  0  0  0  0  0  0
    4.5843   -0.8907   -0.0000 H   0  0  0  0  0  0  0  0  0  0  0  0
   -5.2256   -2.9572   -0.0000 C   0  0  0  0  0  0  0  0  0  0  0  0
   -3.9311   -0.7007   -0.0000 C   0  0  0  0  0  0  0  0  0  0  0  0
    6.4252   -2.1971   -0.0000 C   0  0  0  0  0  0  0  0  0  0  0  0
    5.1187   -4.4418   -0.0000 C   0  0  0  0  0  0  0  0  0  0  0  0
   -6.5320   -2.2090   -0.0000 C   0  0  0  0  0  0  0  0  0  0  0  0
   -5.2375    0.0594   -0.0000 C   0  0  0  0  0  0  0  0  0  0  0  0
    7.7078   -2.9335   -0.0000 C   0  0  0  0  0  0  0  0  0  0  0  0
    6.4014   -5.1781   -0.0000 C   0  0  0  0  0  0  0  0  0  0  0  0
   -7.8384   -2.9572   -0.0000 F   0  0  0  0  0  0  0  0  0  0  0  0
   -6.5558   -0.6888   -0.0000 C   0  0  0  0  0  0  0  0  0  0  0  0
   -5.2494    1.5677   -0.0000 O   0  0  0  0  0  0  0  0  0  0  0  0
    7.6959   -4.4299   -0.0000 C   0  0  0  0  0  0  0  0  0  0  0  0
    8.9905   -2.1734   -0.0000 C   0  0  0  0  0  0  0  0  0  0  0  0
   -7.8741    0.0713   -0.0000 N   0  0  0  0  0  0  0  0  0  0  0  0
   -6.5558    2.3278   -0.0000 C   0  0  0  0  0  0  0  0  0  0  0  0
   10.2850   -2.9097   -0.0000 C   0  0  0  0  0  0  0  0  0  0  0  0
    8.9786   -0.6651   -0.0000 C   0  0  0  0  0  0  0  0  0  0  0  0
   10.2731   -1.4014   -0.0000 C   0  0  0  0  0  0  0  0  0  0  0  0
   -6.5677    3.8361   -0.0000 C   0  0  0  0  0  0  0  0  0  0  0  0
   -7.8622    1.5914   -0.0000 C   0  0  0  0  0  0  0  0  0  0  0  0
   -5.2850    4.5962   -0.0000 F   0  0  0  0  0  0  0  0  0  0  0  0
   -7.8741    4.5962   -0.0000 F   0  0  0  0  0  0  0  0  0  0  0  0
   -6.5914    5.3444   -0.0000 F   0  0  0  0  0  0  0  0  0  0  0  0
   -9.1686    2.3515   -0.0000 O   0  0  0  0  0  0  0  0  0  0  0  0
  -10.4750    1.6152   -0.0000 C   0  0  0  0  0  0  0  0  0  0  0  0
  1  2  2  0  0  0  0
  1  3  1  0  0  0  0
  1  4  1  0  0  0  0
  3  5  1  0  0  0  0
  4  6  1  0  0  0  0
  5  7  1  6  0  0  0
  5  8  1  0  0  0  0
  6  9  1  6  0  0  0
  7 10  1  0  0  0  0
  8 11  1  1  0  0  0
  9 12  1  0  0  0  0
 10 13  1  0  0  0  0
 10 14  1  0  0  0  0
 10 15  1  0  0  0  0
 12 16  2  0  0  0  0
 12 17  1  0  0  0  0
 13 18  2  0  0  0  0
 13 19  1  0  0  0  0
 16 20  1  0  0  0  0
 17 21  2  0  0  0  0
 18 22  1  0  0  0  0
 19 23  2  0  0  0  0
 20 24  1  0  0  0  0
 20 25  2  0  0  0  0
 21 26  1  0  0  0  0
 22 27  2  0  0  0  0
 22 28  1  0  0  0  0
 25 29  1  0  0  0  0
 30 26  1  6  0  0  0
 28 31  1  0  0  0  0
 28 32  1  0  0  0  0
 28 33  1  0  0  0  0
 30 34  1  0  0  0  0
 30 35  1  0  0  0  0
 34 36  1  0  0  0  0
 34 37  1  0  0  0  0
 34 38  1  0  0  0  0
 35 39  1  0  0  0  0
 39 40  1  0  0  0  0
  6  8  1  0  0  0  0
 21 25  1  0  0  0  0
 23 27  1  0  0  0  0
M  ISO  2  14   2  15   2
M  END
>  <MolRegNo>
1580733

>  <m>
=

>  <Value>
100

>  <Unit>
nM

>  <Type>
IC50

>  <pValue>
7

>  <Ligand Efficiency>
0

>  <Binding Efficiency>
0

>  <Surface Efficiency>
0

>  <Assay Index>
796303

>  <Assay Category>


>  <Assay Organism>
Homo sapiens

>  <Target ID>
17045

>  <Target Name>
Cytochrome P450 3A4

>  <Target Organism>
Homo sapiens

>  <Target Description>
Target is a single protein chain

>  <Sequence Accession>
P08684

>  <Reference>
Bioorg Med Chem Lett 23 (19), 5300-5306 (2013)

>  <Pubmed ID>
23981898

>  <DOI>
10.1016/j.bmcl.2013.07.071

$$$$
1580729
Actelion Java MolfileCreator 1.0

 37 39  0  0  0  0  0  0  0  0999 V2000
    0.0000   -0.0000   -0.0000 S   0  0  0  0  0  0  0  0  0  0  0  0
   -0.0119    1.5113   -0.0000 O   0  0  0  0  0  0  0  0  0  0  0  0
    1.2971   -0.7497   -0.0000 C   0  0  0  0  0  0  0  0  0  0  0  0
   -1.2971   -0.7497   -0.0000 C   0  0  0  0  0  0  0  0  0  0  0  0
    1.2852   -2.2372   -0.0000 C   0  0  0  0  0  0  0  0  0  0  0  0
   -1.3090   -2.2372   -0.0000 C   0  0  0  0  0  0  0  0  0  0  0  0
    2.5704   -2.9750   -0.0000 N   0  0  0  0  0  0  0  0  0  0  0  0
   -0.0238   -2.9750   -0.0000 C   0  0  0  0  0  0  0  0  0  0  0  0
   -2.6180   -2.9750   -0.0000 C   0  0  0  0  0  0  0  0  0  0  0  0
    3.8675   -2.2134   -0.0000 C   0  0  0  0  0  0  0  0  0  0  0  0
   -0.0357   -4.4625   -0.0000 O   0  0  0  0  0  0  0  0  0  0  0  0
   -3.9389   -2.2134   -0.0000 C   0  0  0  0  0  0  0  0  0  0  0  0
    5.1527   -2.9512   -0.0000 C   0  0  0  0  0  0  0  0  0  0  0  0
   -5.2479   -2.9631   -0.0000 C   0  0  0  0  0  0  0  0  0  0  0  0
   -3.9508   -0.7021   -0.0000 C   0  0  0  0  0  0  0  0  0  0  0  0
    5.1289   -4.4387   -0.0000 C   0  0  0  0  0  0  0  0  0  0  0  0
    6.4379   -2.1896   -0.0000 C   0  0  0  0  0  0  0  0  0  0  0  0
   -6.5569   -2.2134   -0.0000 C   0  0  0  0  0  0  0  0  0  0  0  0
   -5.2598    0.0595   -0.0000 C   0  0  0  0  0  0  0  0  0  0  0  0
    6.4141   -5.1765   -0.0000 C   0  0  0  0  0  0  0  0  0  0  0  0
    7.7231   -2.9274   -0.0000 C   0  0  0  0  0  0  0  0  0  0  0  0
   -7.8659   -2.9631   -0.0000 F   0  0  0  0  0  0  0  0  0  0  0  0
   -6.5807   -0.6902   -0.0000 C   0  0  0  0  0  0  0  0  0  0  0  0
   -5.2717    1.5708   -0.0000 O   0  0  0  0  0  0  0  0  0  0  0  0
    7.7112   -4.4149   -0.0000 C   0  0  0  0  0  0  0  0  0  0  0  0
    6.4022   -6.6640   -0.0000 C   0  0  0  0  0  0  0  0  0  0  0  0
   -7.9016    0.0714   -0.0000 N   0  0  0  0  0  0  0  0  0  0  0  0
   -3.9865    2.3324   -0.0000 C   0  0  0  0  0  0  0  0  0  0  0  0
    5.0813   -7.4018   -0.0000 C   0  0  0  0  0  0  0  0  0  0  0  0
    7.6874   -7.4018   -0.0000 C   0  0  0  0  0  0  0  0  0  0  0  0
    6.3784   -8.1515   -0.0000 C   0  0  0  0  0  0  0  0  0  0  0  0
   -3.9984    3.8437   -0.0000 C   0  0  0  0  0  0  0  0  0  0  0  0
   -2.7013    1.5946   -0.0000 C   0  0  0  0  0  0  0  0  0  0  0  0
   -2.7132    4.6053   -0.0000 F   0  0  0  0  0  0  0  0  0  0  0  0
   -5.3074    4.6053   -0.0000 F   0  0  0  0  0  0  0  0  0  0  0  0
   -4.0222    5.3669   -0.0000 F   0  0  0  0  0  0  0  0  0  0  0  0
   -1.4161    2.3562   -0.0000 O   0  0  0  0  0  0  0  0  0  0  0  0
  1  2  2  0  0  0  0
  1  3  1  0  0  0  0
  1  4  1  0  0  0  0
  3  5  1  0  0  0  0
  4  6  1  0  0  0  0
  5  7  1  6  0  0  0
  5  8  1  0  0  0  0
  6  9  1  6  0  0  0
  7 10  1  0  0  0  0
  8 11  1  1  0  0  0
  9 12  1  0  0  0  0
 10 13  1  0  0  0  0
 12 14  2  0  0  0  0
 12 15  1  0  0  0  0
 13 16  2  0  0  0  0
 13 17  1  0  0  0  0
 14 18  1  0  0  0  0
 15 19  2  0  0  0  0
 16 20  1  0  0  0  0
 17 21  2  0  0  0  0
 18 22  1  0  0  0  0
 18 23  2  0  0  0  0
 19 24  1  0  0  0  0
 20 25  2  0  0  0  0
 20 26  1  0  0  0  0
 23 27  1  0  0  0  0
 28 24  1  1  0  0  0
 26 29  1  0  0  0  0
 26 30  1  0  0  0  0
 26 31  1  0  0  0  0
 28 32  1  0  0  0  0
 28 33  1  0  0  0  0
 32 34  1  0  0  0  0
 32 35  1  0  0  0  0
 32 36  1  0  0  0  0
 33 37  1  0  0  0  0
  6  8  1  0  0  0  0
 19 23  1  0  0  0  0
 21 25  1  0  0  0  0
M  END
>  <MolRegNo>
1580729

>  <m>
=

>  <Value>
900

>  <Unit>
nM

>  <Type>
IC50

>  <pValue>
6.05

>  <Ligand Efficiency>
0

>  <Binding Efficiency>
0

>  <Surface Efficiency>
0

>  <Assay Index>
796303

>  <Assay Category>


>  <Assay Organism>
Homo sapiens

>  <Target ID>
17045

>  <Target Name>
Cytochrome P450 3A4

>  <Target Organism>
Homo sapiens

>  <Target Description>
Target is a single protein chain

>  <Sequence Accession>
P08684

>  <Reference>
Bioorg Med Chem Lett 23 (19), 5300-5306 (2013)

>  <Pubmed ID>
23981898

>  <DOI>
10.1016/j.bmcl.2013.07.071

$$$$
1580728
Actelion Java MolfileCreator 1.0

 38 40  0  0  0  0  0  0  0  0999 V2000
    0.0000   -0.0000   -0.0000 S   0  0  0  0  0  0  0  0  0  0  0  0
   -0.0119    1.5093   -0.0000 O   0  0  0  0  0  0  0  0  0  0  0  0
    1.2953   -0.7487   -0.0000 C   0  0  0  0  0  0  0  0  0  0  0  0
   -1.2953   -0.7487   -0.0000 C   0  0  0  0  0  0  0  0  0  0  0  0
    1.2835   -2.2342   -0.0000 C   0  0  0  0  0  0  0  0  0  0  0  0
   -1.3072   -2.2342   -0.0000 C   0  0  0  0  0  0  0  0  0  0  0  0
    2.5669   -2.9710   -0.0000 N   0  0  0  0  0  0  0  0  0  0  0  0
   -0.0238   -2.9710   -0.0000 C   0  0  0  0  0  0  0  0  0  0  0  0
   -2.6145   -2.9710   -0.0000 C   0  0  0  0  0  0  0  0  0  0  0  0
    3.8504   -2.2104   -0.0000 C   0  0  0  0  0  0  0  0  0  0  0  0
   -0.0357   -4.4565   -0.0000 O   0  0  0  0  0  0  0  0  0  0  0  0
   -3.9217   -2.2104   -0.0000 C   0  0  0  0  0  0  0  0  0  0  0  0
    5.1457   -2.9591   -0.0000 C   0  0  0  0  0  0  0  0  0  0  0  0
   -5.2289   -2.9591   -0.0000 C   0  0  0  0  0  0  0  0  0  0  0  0
   -3.9336   -0.7011   -0.0000 C   0  0  0  0  0  0  0  0  0  0  0  0
    6.4292   -2.1985   -0.0000 C   0  0  0  0  0  0  0  0  0  0  0  0
    5.1220   -4.4446   -0.0000 C   0  0  0  0  0  0  0  0  0  0  0  0
   -6.5361   -2.2104   -0.0000 C   0  0  0  0  0  0  0  0  0  0  0  0
   -5.2408    0.0594   -0.0000 C   0  0  0  0  0  0  0  0  0  0  0  0
    7.7126   -2.9353   -0.0000 C   0  0  0  0  0  0  0  0  0  0  0  0
    6.4054   -5.1814   -0.0000 C   0  0  0  0  0  0  0  0  0  0  0  0
   -7.8434   -2.9591   -0.0000 F   0  0  0  0  0  0  0  0  0  0  0  0
   -6.5599   -0.6893   -0.0000 C   0  0  0  0  0  0  0  0  0  0  0  0
   -5.2527    1.5687   -0.0000 O   0  0  0  0  0  0  0  0  0  0  0  0
    7.7008   -4.4327   -0.0000 C   0  0  0  0  0  0  0  0  0  0  0  0
    8.9961   -2.1748   -0.0000 C   0  0  0  0  0  0  0  0  0  0  0  0
   -7.8790    0.0713   -0.0000 N   0  0  0  0  0  0  0  0  0  0  0  0
   -6.5599    2.3292   -0.0000 C   0  0  0  0  0  0  0  0  0  0  0  0
   10.2915   -2.9116   -0.0000 C   0  0  0  0  0  0  0  0  0  0  0  0
    8.9842   -0.6655   -0.0000 C   0  0  0  0  0  0  0  0  0  0  0  0
   10.2796   -1.4023   -0.0000 C   0  0  0  0  0  0  0  0  0  0  0  0
   -6.5718    3.8385   -0.0000 C   0  0  0  0  0  0  0  0  0  0  0  0
   -7.8671    1.5924   -0.0000 C   0  0  0  0  0  0  0  0  0  0  0  0
   -5.2883    4.5991   -0.0000 F   0  0  0  0  0  0  0  0  0  0  0  0
   -7.8790    4.5991   -0.0000 F   0  0  0  0  0  0  0  0  0  0  0  0
   -6.5956    5.3478   -0.0000 F   0  0  0  0  0  0  0  0  0  0  0  0
   -9.1744    2.3530   -0.0000 O   0  0  0  0  0  0  0  0  0  0  0  0
  -10.4816    1.6162   -0.0000 C   0  0  0  0  0  0  0  0  0  0  0  0
  1  2  2  0  0  0  0
  1  3  1  0  0  0  0
  1  4  1  0  0  0  0
  3  5  1  0  0  0  0
  4  6  1  0  0  0  0
  5  7  1  6  0  0  0
  5  8  1  0  0  0  0
  6  9  1  6  0  0  0
  7 10  1  0  0  0  0
  8 11  1  1  0  0  0
  9 12  1  0  0  0  0
 10 13  1  0  0  0  0
 12 14  2  0  0  0  0
 12 15  1  0  0  0  0
 13 16  2  0  0  0  0
 13 17  1  0  0  0  0
 14 18  1  0  0  0  0
 15 19  2  0  0  0  0
 16 20  1  0  0  0  0
 17 21  2  0  0  0  0
 18 22  1  0  0  0  0
 18 23  2  0  0  0  0
 19 24  1  0  0  0  0
 20 25  2  0  0  0  0
 20 26  1  0  0  0  0
 23 27  1  0  0  0  0
 28 24  1  6  0  0  0
 26 29  1  0  0  0  0
 26 30  1  0  0  0  0
 26 31  1  0  0  0  0
 28 32  1  0  0  0  0
 28 33  1  0  0  0  0
 32 34  1  0  0  0  0
 32 35  1  0  0  0  0
 32 36  1  0  0  0  0
 33 37  1  0  0  0  0
 37 38  1  0  0  0  0
  6  8  1  0  0  0  0
 19 23  1  0  0  0  0
 21 25  1  0  0  0  0
M  END
>  <MolRegNo>
1580728

>  <m>
=

>  <Value>
200

>  <Unit>
nM

>  <Type>
IC50

>  <pValue>
6.7

>  <Ligand Efficiency>
0

>  <Binding Efficiency>
0

>  <Surface Efficiency>
0

>  <Assay Index>
796303

>  <Assay Category>


>  <Assay Organism>
Homo sapiens

>  <Target ID>
17045

>  <Target Name>
Cytochrome P450 3A4

>  <Target Organism>
Homo sapiens

>  <Target Description>
Target is a single protein chain

>  <Sequence Accession>
P08684

>  <Reference>
Bioorg Med Chem Lett 23 (19), 5300-5306 (2013)

>  <Pubmed ID>
23981898

>  <DOI>
10.1016/j.bmcl.2013.07.071

$$$$
1580727
Actelion Java MolfileCreator 1.0

 35 37  0  0  0  0  0  0  0  0999 V2000
    0.0000   -0.0000   -0.0000 S   0  0  0  0  0  0  0  0  0  0  0  0
   -0.0119    1.5101   -0.0000 O   0  0  0  0  0  0  0  0  0  0  0  0
    1.2961   -0.7491   -0.0000 C   0  0  0  0  0  0  0  0  0  0  0  0
   -1.2961   -0.7491   -0.0000 C   0  0  0  0  0  0  0  0  0  0  0  0
    1.2842   -2.2354   -0.0000 C   0  0  0  0  0  0  0  0  0  0  0  0
   -1.3079   -2.2354   -0.0000 C   0  0  0  0  0  0  0  0  0  0  0  0
    2.5683   -2.9726   -0.0000 N   0  0  0  0  0  0  0  0  0  0  0  0
   -0.0238   -2.9726   -0.0000 C   0  0  0  0  0  0  0  0  0  0  0  0
   -2.6159   -2.9726   -0.0000 C   0  0  0  0  0  0  0  0  0  0  0  0
    3.8644   -2.2116   -0.0000 C   0  0  0  0  0  0  0  0  0  0  0  0
   -0.0357   -4.4589   -0.0000 O   0  0  0  0  0  0  0  0  0  0  0  0
   -3.9357   -2.2116   -0.0000 C   0  0  0  0  0  0  0  0  0  0  0  0
    5.1486   -2.9488   -0.0000 C   0  0  0  0  0  0  0  0  0  0  0  0
   -5.2437   -2.9607   -0.0000 C   0  0  0  0  0  0  0  0  0  0  0  0
   -3.9476   -0.7015   -0.0000 C   0  0  0  0  0  0  0  0  0  0  0  0
    5.1248   -4.4351   -0.0000 C   0  0  0  0  0  0  0  0  0  0  0  0
    6.4327   -2.1878   -0.0000 C   0  0  0  0  0  0  0  0  0  0  0  0
   -6.5635   -2.2116   -0.0000 C   0  0  0  0  0  0  0  0  0  0  0  0
   -5.2556    0.0595   -0.0000 C   0  0  0  0  0  0  0  0  0  0  0  0
    6.4089   -5.1723   -0.0000 C   0  0  0  0  0  0  0  0  0  0  0  0
    7.7169   -2.9250   -0.0000 C   0  0  0  0  0  0  0  0  0  0  0  0
   -7.8715   -2.9607   -0.0000 F   0  0  0  0  0  0  0  0  0  0  0  0
   -6.5873   -0.6896   -0.0000 C   0  0  0  0  0  0  0  0  0  0  0  0
   -5.2675    1.5695   -0.0000 O   0  0  0  0  0  0  0  0  0  0  0  0
    7.7050   -4.4113   -0.0000 C   0  0  0  0  0  0  0  0  0  0  0  0
    6.3970   -6.6586   -0.0000 C   0  0  0  0  0  0  0  0  0  0  0  0
   -7.9071    0.0713   -0.0000 N   0  0  0  0  0  0  0  0  0  0  0  0
   -3.9833    2.3305   -0.0000 C   0  0  0  0  0  0  0  0  0  0  0  0
    5.0772   -7.3958   -0.0000 C   0  0  0  0  0  0  0  0  0  0  0  0
    7.6812   -7.3958   -0.0000 C   0  0  0  0  0  0  0  0  0  0  0  0
    6.3733   -8.1449   -0.0000 C   0  0  0  0  0  0  0  0  0  0  0  0
   -3.9952    3.8406   -0.0000 C   0  0  0  0  0  0  0  0  0  0  0  0
   -2.7110    4.6016   -0.0000 F   0  0  0  0  0  0  0  0  0  0  0  0
   -5.3031    4.6016   -0.0000 F   0  0  0  0  0  0  0  0  0  0  0  0
   -4.0190    5.3626   -0.0000 F   0  0  0  0  0  0  0  0  0  0  0  0
  1  2  2  0  0  0  0
  1  3  1  0  0  0  0
  1  4  1  0  0  0  0
  3  5  1  0  0  0  0
  4  6  1  0  0  0  0
  5  7  1  6  0  0  0
  5  8  1  0  0  0  0
  6  9  1  6  0  0  0
  7 10  1  0  0  0  0
  8 11  1  1  0  0  0
  9 12  1  0  0  0  0
 10 13  1  0  0  0  0
 12 14  2  0  0  0  0
 12 15  1  0  0  0  0
 13 16  2  0  0  0  0
 13 17  1  0  0  0  0
 14 18  1  0  0  0  0
 15 19  2  0  0  0  0
 16 20  1  0  0  0  0
 17 21  2  0  0  0  0
 18 22  1  0  0  0  0
 18 23  2  0  0  0  0
 19 24  1  0  0  0  0
 20 25  2  0  0  0  0
 20 26  1  0  0  0  0
 23 27  1  0  0  0  0
 24 28  1  0  0  0  0
 26 29  1  0  0  0  0
 26 30  1  0  0  0  0
 26 31  1  0  0  0  0
 28 32  1  0  0  0  0
 32 33  1  0  0  0  0
 32 34  1  0  0  0  0
 32 35  1  0  0  0  0
  6  8  1  0  0  0  0
 19 23  1  0  0  0  0
 21 25  1  0  0  0  0
M  END
>  <MolRegNo>
1580727

>  <m>
=

>  <Value>
300

>  <Unit>
nM

>  <Type>
IC50

>  <pValue>
6.52

>  <Ligand Efficiency>
0

>  <Binding Efficiency>
0

>  <Surface Efficiency>
0

>  <Assay Index>
796303

>  <Assay Category>


>  <Assay Organism>
Homo sapiens

>  <Target ID>
17045

>  <Target Name>
Cytochrome P450 3A4

>  <Target Organism>
Homo sapiens

>  <Target Description>
Target is a single protein chain

>  <Sequence Accession>
P08684

>  <Reference>
Bioorg Med Chem Lett 23 (19), 5300-5306 (2013)

>  <Pubmed ID>
23981898

>  <DOI>
10.1016/j.bmcl.2013.07.071

$$$$
1580726
Actelion Java MolfileCreator 1.0

 31 33  0  0  0  0  0  0  0  0999 V2000
    0.0000   -0.0000   -0.0000 S   0  0  0  0  0  0  0  0  0  0  0  0
   -0.0119    1.5119   -0.0000 O   0  0  0  0  0  0  0  0  0  0  0  0
    1.2976   -0.7500   -0.0000 C   0  0  0  0  0  0  0  0  0  0  0  0
   -1.2976   -0.7500   -0.0000 C   0  0  0  0  0  0  0  0  0  0  0  0
    1.2857   -2.2381   -0.0000 C   0  0  0  0  0  0  0  0  0  0  0  0
   -1.3095   -2.2381   -0.0000 C   0  0  0  0  0  0  0  0  0  0  0  0
    2.5714   -2.9761   -0.0000 N   0  0  0  0  0  0  0  0  0  0  0  0
   -0.0238   -2.9761   -0.0000 C   0  0  0  0  0  0  0  0  0  0  0  0
   -2.6190   -2.9761   -0.0000 C   0  0  0  0  0  0  0  0  0  0  0  0
    3.8690   -2.2143   -0.0000 C   0  0  0  0  0  0  0  0  0  0  0  0
   -0.0357   -4.4642   -0.0000 O   0  0  0  0  0  0  0  0  0  0  0  0
   -3.9404   -2.2143   -0.0000 C   0  0  0  0  0  0  0  0  0  0  0  0
    5.1547   -2.9523   -0.0000 C   0  0  0  0  0  0  0  0  0  0  0  0
   -5.2499   -2.9642   -0.0000 C   0  0  0  0  0  0  0  0  0  0  0  0
   -3.9523   -0.7024   -0.0000 C   0  0  0  0  0  0  0  0  0  0  0  0
    5.1309   -4.4404   -0.0000 C   0  0  0  0  0  0  0  0  0  0  0  0
    6.4404   -2.1904   -0.0000 C   0  0  0  0  0  0  0  0  0  0  0  0
   -6.5594   -2.2143   -0.0000 C   0  0  0  0  0  0  0  0  0  0  0  0
   -5.2618    0.0595   -0.0000 C   0  0  0  0  0  0  0  0  0  0  0  0
    6.4166   -5.1785   -0.0000 C   0  0  0  0  0  0  0  0  0  0  0  0
    7.7261   -2.9285   -0.0000 C   0  0  0  0  0  0  0  0  0  0  0  0
   -7.8689   -2.9642   -0.0000 F   0  0  0  0  0  0  0  0  0  0  0  0
   -6.5832   -0.6905   -0.0000 C   0  0  0  0  0  0  0  0  0  0  0  0
   -5.2737    1.5714   -0.0000 O   0  0  0  0  0  0  0  0  0  0  0  0
    7.7142   -4.4166   -0.0000 C   0  0  0  0  0  0  0  0  0  0  0  0
    6.4047   -6.6666   -0.0000 C   0  0  0  0  0  0  0  0  0  0  0  0
   -7.9046    0.0714   -0.0000 N   0  0  0  0  0  0  0  0  0  0  0  0
   -3.9880    2.3333   -0.0000 C   0  0  0  0  0  0  0  0  0  0  0  0
    5.0833   -7.4047   -0.0000 C   0  0  0  0  0  0  0  0  0  0  0  0
    7.6904   -7.4047   -0.0000 C   0  0  0  0  0  0  0  0  0  0  0  0
    6.3809   -8.1546   -0.0000 C   0  0  0  0  0  0  0  0  0  0  0  0
  1  2  2  0  0  0  0
  1  3  1  0  0  0  0
  1  4  1  0  0  0  0
  3  5  1  0  0  0  0
  4  6  1  0  0  0  0
  5  7  1  6  0  0  0
  5  8  1  0  0  0  0
  6  9  1  6  0  0  0
  7 10  1  0  0  0  0
  8 11  1  1  0  0  0
  9 12  1  0  0  0  0
 10 13  1  0  0  0  0
 12 14  2  0  0  0  0
 12 15  1  0  0  0  0
 13 16  2  0  0  0  0
 13 17  1  0  0  0  0
 14 18  1  0  0  0  0
 15 19  2  0  0  0  0
 16 20  1  0  0  0  0
 17 21  2  0  0  0  0
 18 22  1  0  0  0  0
 18 23  2  0  0  0  0
 19 24  1  0  0  0  0
 20 25  2  0  0  0  0
 20 26  1  0  0  0  0
 23 27  1  0  0  0  0
 24 28  1  0  0  0  0
 26 29  1  0  0  0  0
 26 30  1  0  0  0  0
 26 31  1  0  0  0  0
  6  8  1  0  0  0  0
 19 23  1  0  0  0  0
 21 25  1  0  0  0  0
M  END
>  <MolRegNo>
1580726

>  <m>
=

>  <Value>
300

>  <Unit>
nM

>  <Type>
IC50

>  <pValue>
6.52

>  <Ligand Efficiency>
0

>  <Binding Efficiency>
0

>  <Surface Efficiency>
0

>  <Assay Index>
796303

>  <Assay Category>


>  <Assay Organism>
Homo sapiens

>  <Target ID>
17045

>  <Target Name>
Cytochrome P450 3A4

>  <Target Organism>
Homo sapiens

>  <Target Description>
Target is a single protein chain

>  <Sequence Accession>
P08684

>  <Reference>
Bioorg Med Chem Lett 23 (19), 5300-5306 (2013)

>  <Pubmed ID>
23981898

>  <DOI>
10.1016/j.bmcl.2013.07.071

$$$$
1583513
Actelion Java MolfileCreator 1.0

 32 34  0  0  0  0  0  0  0  0999 V2000
    0.0000   -0.0000   -0.0000 S   0  0  0  0  0  0  0  0  0  0  0  0
   -0.7718   -1.2824   -0.0000 O   0  0  0  0  0  0  0  0  0  0  0  0
    0.7243   -1.2824   -0.0000 O   0  0  0  0  0  0  0  0  0  0  0  0
   -1.3180    0.7599   -0.0000 N   0  0  0  0  0  0  0  0  0  0  0  0
    1.2824    0.7718   -0.0000 C   0  0  0  0  0  0  0  0  0  0  0  0
   -2.6242    0.0119   -0.0000 C   0  0  0  0  0  0  0  0  0  0  0  0
   -2.6360   -1.4724   -0.0000 C   0  0  0  0  0  0  0  0  0  0  0  0
   -3.9422    0.7718   -0.0000 C   0  0  0  0  0  0  0  0  0  0  0  0
   -3.9422   -2.2086   -0.0000 C   0  0  0  0  0  0  0  0  0  0  0  0
   -5.2364    0.0237   -0.0000 C   0  0  0  0  0  0  0  0  0  0  0  0
   -5.2602   -1.4486   -0.0000 C   0  0  0  0  0  0  0  0  0  0  0  0
   -6.5663   -2.1848   -0.0000 C   0  0  0  0  0  0  0  0  0  0  0  0
   -7.8843   -1.4249   -0.0000 C   0  0  0  0  0  0  0  0  0  0  0  0
   -9.1905   -2.1611   -0.0000 C   0  0  0  0  0  0  0  0  0  0  0  0
   -9.2024   -3.6572   -0.0000 C   0  0  0  0  0  0  0  0  0  0  0  0
  -10.4966   -1.4011   -0.0000 C   0  0  0  0  0  0  0  0  0  0  0  0
   -7.9200   -4.3934   -0.0000 O   0  0  0  0  0  0  0  0  0  0  0  0
  -10.5204   -4.3934   -0.0000 C   0  0  0  0  0  0  0  0  0  0  0  0
  -11.8028   -2.1373   -0.0000 C   0  0  0  0  0  0  0  0  0  0  0  0
   -7.9318   -5.8776   -0.0000 C   0  0  0  0  0  0  0  0  0  0  0  0
  -11.8265   -3.6334   -0.0000 C   0  0  0  0  0  0  0  0  0  0  0  0
  -10.5323   -5.8776   -0.0000 C   0  0  0  0  0  0  0  0  0  0  0  0
  -13.1208   -1.3655   -0.0000 C   0  0  0  0  0  0  0  0  0  0  0  0
  -11.8384   -6.6138   -0.0000 C   0  0  0  0  0  0  0  0  0  0  0  0
   -9.2499   -6.6138   -0.0000 C   0  0  0  0  0  0  0  0  0  0  0  0
  -10.5560   -7.3619   -0.0000 C   0  0  0  0  0  0  0  0  0  0  0  0
  -13.1327    0.1425   -0.0000 C   0  0  0  0  0  0  0  0  0  0  0  0
  -14.4269   -2.1017   -0.0000 C   0  0  0  0  0  0  0  0  0  0  0  0
  -11.8503    0.9024   -0.0000 O   0  0  0  0  0  0  0  0  0  0  0  0
  -14.4388    0.9024   -0.0000 N   0  0  0  0  0  0  0  0  0  0  0  0
  -15.7331   -1.3299   -0.0000 C   0  0  0  0  0  0  0  0  0  0  0  0
  -15.7568    0.1662   -0.0000 C   0  0  0  0  0  0  0  0  0  0  0  0
  1  2  2  0  0  0  0
  1  3  2  0  0  0  0
  1  4  1  0  0  0  0
  1  5  1  0  0  0  0
  4  6  1  0  0  0  0
  6  7  2  0  0  0  0
  6  8  1  0  0  0  0
  7  9  1  0  0  0  0
  8 10  2  0  0  0  0
  9 11  2  0  0  0  0
 11 12  1  0  0  0  0
 12 13  1  0  0  0  0
 13 14  1  0  0  0  0
 14 15  2  0  0  0  0
 14 16  1  0  0  0  0
 15 17  1  0  0  0  0
 15 18  1  0  0  0  0
 16 19  2  0  0  0  0
 17 20  1  0  0  0  0
 18 21  2  0  0  0  0
 18 22  1  0  0  0  0
 19 23  1  0  0  0  0
 22 24  1  0  0  0  0
 22 25  1  0  0  0  0
 22 26  1  0  0  0  0
 23 27  1  0  0  0  0
 23 28  2  0  0  0  0
 27 29  2  0  0  0  0
 27 30  1  0  0  0  0
 28 31  1  0  0  0  0
 30 32  1  0  0  0  0
 10 11  1  0  0  0  0
 19 21  1  0  0  0  0
 31 32  2  0  0  0  0
M  END
>  <MolRegNo>
1583513

>  <m>
=

>  <Value>
340

>  <Unit>
nM

>  <Type>
IC50

>  <pValue>
6.47

>  <Ligand Efficiency>
0

>  <Binding Efficiency>
0

>  <Surface Efficiency>
0

>  <Assay Index>
798222

>  <Assay Category>


>  <Assay Organism>
Homo sapiens

>  <Target ID>
17045

>  <Target Name>
Cytochrome P450 3A4

>  <Target Organism>
Homo sapiens

>  <Target Description>
Target is a single protein chain

>  <Sequence Accession>
P08684

>  <Reference>
J Med Chem 56 (20), 8163-8182 (2013)

>  <Pubmed ID>
24069953

>  <DOI>
10.1021/jm401266k

$$$$
1583519
Actelion Java MolfileCreator 1.0

 32 34  0  0  0  0  0  0  0  0999 V2000
    0.0000   -0.0000   -0.0000 S   0  0  0  0  0  0  0  0  0  0  0  0
   -1.0812   -1.0455   -0.0000 O   0  0  0  0  0  0  0  0  0  0  0  0
    0.7247   -1.2831   -0.0000 O   0  0  0  0  0  0  0  0  0  0  0  0
   -1.3188    0.7604   -0.0000 N   0  0  0  0  0  0  0  0  0  0  0  0
    1.2831    0.7723   -0.0000 C   0  0  0  0  0  0  0  0  0  0  0  0
   -2.6257    0.0119   -0.0000 C   0  0  0  0  0  0  0  0  0  0  0  0
   -2.6376   -1.4732   -0.0000 C   0  0  0  0  0  0  0  0  0  0  0  0
   -3.9445    0.7723   -0.0000 C   0  0  0  0  0  0  0  0  0  0  0  0
   -3.9445   -2.2098   -0.0000 C   0  0  0  0  0  0  0  0  0  0  0  0
   -5.2395    0.0238   -0.0000 C   0  0  0  0  0  0  0  0  0  0  0  0
   -5.2632   -1.4376   -0.0000 C   0  0  0  0  0  0  0  0  0  0  0  0
   -6.5701   -2.1742   -0.0000 C   0  0  0  0  0  0  0  0  0  0  0  0
   -7.8770   -1.4138   -0.0000 C   0  0  0  0  0  0  0  0  0  0  0  0
   -9.1839   -2.1504   -0.0000 C   0  0  0  0  0  0  0  0  0  0  0  0
   -9.1958   -3.6474   -0.0000 C   0  0  0  0  0  0  0  0  0  0  0  0
  -10.4908   -1.3901   -0.0000 C   0  0  0  0  0  0  0  0  0  0  0  0
   -7.9127   -4.3841   -0.0000 O   0  0  0  0  0  0  0  0  0  0  0  0
  -10.5146   -4.3841   -0.0000 C   0  0  0  0  0  0  0  0  0  0  0  0
  -11.7977   -2.1267   -0.0000 C   0  0  0  0  0  0  0  0  0  0  0  0
   -7.9246   -5.8692   -0.0000 C   0  0  0  0  0  0  0  0  0  0  0  0
  -11.8215   -3.6237   -0.0000 C   0  0  0  0  0  0  0  0  0  0  0  0
  -10.5265   -5.8692   -0.0000 C   0  0  0  0  0  0  0  0  0  0  0  0
  -13.1165   -1.3544   -0.0000 C   0  0  0  0  0  0  0  0  0  0  0  0
  -11.8334   -6.6058   -0.0000 C   0  0  0  0  0  0  0  0  0  0  0  0
  -10.1582   -7.2949   -0.0000 C   0  0  0  0  0  0  0  0  0  0  0  0
   -9.1008   -6.2375   -0.0000 C   0  0  0  0  0  0  0  0  0  0  0  0
  -13.1284    0.1545   -0.0000 C   0  0  0  0  0  0  0  0  0  0  0  0
  -14.4234   -2.0910   -0.0000 C   0  0  0  0  0  0  0  0  0  0  0  0
  -11.8453    0.9148   -0.0000 O   0  0  0  0  0  0  0  0  0  0  0  0
  -14.4353    0.9148   -0.0000 N   0  0  0  0  0  0  0  0  0  0  0  0
  -15.7303   -1.3188   -0.0000 C   0  0  0  0  0  0  0  0  0  0  0  0
  -15.7541    0.1782   -0.0000 C   0  0  0  0  0  0  0  0  0  0  0  0
  1  2  2  0  0  0  0
  1  3  2  0  0  0  0
  1  4  1  0  0  0  0
  1  5  1  0  0  0  0
  4  6  1  0  0  0  0
  6  7  2  0  0  0  0
  6  8  1  0  0  0  0
  7  9  1  0  0  0  0
  8 10  2  0  0  0  0
  9 11  2  0  0  0  0
 11 12  1  0  0  0  0
 12 13  2  0  0  0  0
 13 14  1  0  0  0  0
 14 15  2  0  0  0  0
 14 16  1  0  0  0  0
 15 17  1  0  0  0  0
 15 18  1  0  0  0  0
 16 19  2  0  0  0  0
 17 20  1  0  0  0  0
 18 21  2  0  0  0  0
 18 22  1  0  0  0  0
 19 23  1  0  0  0  0
 22 24  1  0  0  0  0
 22 25  1  0  0  0  0
 22 26  1  0  0  0  0
 23 27  1  0  0  0  0
 23 28  2  0  0  0  0
 27 29  2  0  0  0  0
 27 30  1  0  0  0  0
 28 31  1  0  0  0  0
 30 32  1  0  0  0  0
 10 11  1  0  0  0  0
 19 21  1  0  0  0  0
 31 32  2  0  0  0  0
M  END
>  <MolRegNo>
1583519

>  <m>
=

>  <Value>
1100

>  <Unit>
nM

>  <Type>
IC50

>  <pValue>
5.96

>  <Ligand Efficiency>
0

>  <Binding Efficiency>
0

>  <Surface Efficiency>
0

>  <Assay Index>
798519

>  <Assay Category>


>  <Assay Organism>
Homo sapiens

>  <Target ID>
17045

>  <Target Name>
Cytochrome P450 3A4

>  <Target Organism>
Homo sapiens

>  <Target Description>
Target is a single protein chain

>  <Sequence Accession>
P08684

>  <Reference>
J Med Chem 56 (20), 8163-8182 (2013)

>  <Pubmed ID>
24069953

>  <DOI>
10.1021/jm401266k

$$$$
1585767
Actelion Java MolfileCreator 1.0

 38 43  0  0  0  0  0  0  0  0999 V2000
    0.0000   -0.0000   -0.0000 F   0  0  0  0  0  0  0  0  0  0  0  0
    0.0000   -1.4867   -0.0000 C   0  0  0  0  0  0  0  0  0  0  0  0
   -1.3083   -0.7136   -0.0000 C   0  0  0  0  0  0  0  0  0  0  0  0
   -0.0238   -2.9854   -0.0000 C   0  0  0  0  0  0  0  0  0  0  0  0
    1.2845   -0.7255   -0.0000 C   0  0  0  0  0  0  0  0  0  0  0  0
   -1.3202    0.7969   -0.0000 O   0  0  0  0  0  0  0  0  0  0  0  0
   -2.6167   -1.4511   -0.0000 N   0  0  0  0  0  0  0  0  0  0  0  0
    1.2489   -3.7228   -0.0000 C   0  0  0  0  0  0  0  0  0  0  0  0
    2.5691   -1.4867   -0.0000 C   0  0  0  0  0  0  0  0  0  0  0  0
   -3.9250   -0.6780   -0.0000 C   0  0  0  0  0  0  0  0  0  0  0  0
   -2.6286   -2.9378   -0.0000 C   0  0  0  0  0  0  0  0  0  0  0  0
    2.5453   -2.9735   -0.0000 N   0  0  0  0  0  0  0  0  0  0  0  0
   -5.2333   -1.4273   -0.0000 C   0  0  0  0  0  0  0  0  0  0  0  0
   -3.9369   -3.6633   -0.0000 C   0  0  0  0  0  0  0  0  0  0  0  0
    3.8298   -3.7228   -0.0000 C   0  0  0  0  0  0  0  0  0  0  0  0
   -5.2452   -2.9140   -0.0000 C   0  0  0  0  0  0  0  0  0  0  0  0
    5.1263   -2.9735   -0.0000 C   0  0  0  0  0  0  0  0  0  0  0  0
   -6.5654   -3.6633   -0.0000 N   0  0  0  0  0  0  0  0  0  0  0  0
    6.3989   -3.7228   -0.0000 C   0  0  0  0  0  0  0  0  0  0  0  0
    5.1144   -1.4748   -0.0000 C   0  0  0  0  0  0  0  0  0  0  0  0
   -6.4584   -5.1382   -0.0000 C   0  0  0  0  0  0  0  0  0  0  0  0
   -7.8262   -2.8070   -0.0000 C   0  0  0  0  0  0  0  0  0  0  0  0
    7.6954   -2.9735   -0.0000 C   0  0  0  0  0  0  0  0  0  0  0  0
    6.3989   -0.7136   -0.0000 C   0  0  0  0  0  0  0  0  0  0  0  0
   -7.5764   -6.1610   -0.0000 C   0  0  0  0  0  0  0  0  0  0  0  0
   -5.0311   -5.5545   -0.0000 C   0  0  0  0  0  0  0  0  0  0  0  0
   -9.2773   -3.2470   -0.0000 C   0  0  0  0  0  0  0  0  0  0  0  0
    7.6954   -1.4630   -0.0000 N   0  0  0  0  0  0  0  0  0  0  0  0
    8.9799   -3.7228   -0.0000 N   0  0  0  0  0  0  0  0  0  0  0  0
   -7.2434   -7.6121   -0.0000 C   0  0  0  0  0  0  0  0  0  0  0  0
   -9.0751   -5.9351   -0.0000 C   0  0  0  0  0  0  0  0  0  0  0  0
   -4.6981   -7.0055   -0.0000 C   0  0  0  0  0  0  0  0  0  0  0  0
   -9.8244   -4.6386   -0.0000 C   0  0  0  0  0  0  0  0  0  0  0  0
  -10.2288   -2.0695   -0.0000 C   0  0  0  0  0  0  0  0  0  0  0  0
   -5.8161   -8.0403   -0.0000 C   0  0  0  0  0  0  0  0  0  0  0  0
  -11.3111   -4.8646   -0.0000 C   0  0  0  0  0  0  0  0  0  0  0  0
  -11.7274   -2.2955   -0.0000 C   0  0  0  0  0  0  0  0  0  0  0  0
  -12.2745   -3.6990   -0.0000 C   0  0  0  0  0  0  0  0  0  0  0  0
  1  2  1  0  0  0  0
  2  3  1  0  0  0  0
  2  4  1  0  0  0  0
  2  5  1  0  0  0  0
  3  6  2  0  0  0  0
  3  7  1  0  0  0  0
  4  8  1  0  0  0  0
  5  9  1  0  0  0  0
  7 10  1  0  0  0  0
  7 11  1  0  0  0  0
  8 12  1  0  0  0  0
 10 13  1  0  0  0  0
 11 14  1  0  0  0  0
 12 15  1  0  0  0  0
 13 16  1  0  0  0  0
 15 17  1  0  0  0  0
 16 18  1  0  0  0  0
 17 19  2  0  0  0  0
 17 20  1  0  0  0  0
 18 21  1  0  0  0  0
 18 22  1  0  0  0  0
 19 23  1  0  0  0  0
 20 24  2  0  0  0  0
 21 25  2  0  0  0  0
 21 26  1  0  0  0  0
 22 27  1  0  0  0  0
 23 28  2  0  0  0  0
 23 29  1  0  0  0  0
 25 30  1  0  0  0  0
 25 31  1  0  0  0  0
 26 32  2  0  0  0  0
 27 33  2  0  0  0  0
 27 34  1  0  0  0  0
 30 35  2  0  0  0  0
 33 36  1  0  0  0  0
 34 37  2  0  0  0  0
 36 38  2  0  0  0  0
  9 12  1  0  0  0  0
 14 16  1  0  0  0  0
 24 28  1  0  0  0  0
 31 33  1  0  0  0  0
 32 35  1  0  0  0  0
 37 38  1  0  0  0  0
M  END
>  <MolRegNo>
1585767

>  <m>
=

>  <Value>
18000

>  <Unit>
nM

>  <Type>
IC50

>  <pValue>
4.75

>  <Ligand Efficiency>
0

>  <Binding Efficiency>
0

>  <Surface Efficiency>
0

>  <Assay Index>
802368

>  <Assay Category>


>  <Assay Organism>
Homo sapiens

>  <Target ID>
17045

>  <Target Name>
Cytochrome P450 3A4

>  <Target Organism>
Homo sapiens

>  <Target Description>
Target is a single protein chain

>  <Sequence Accession>
P08684

>  <Reference>
Bioorg Med Chem Lett 23 (21), 6004-6009 (2013)

>  <Pubmed ID>
24035485

>  <DOI>
10.1016/j.bmcl.2013.08.013

$$$$
1585784
Actelion Java MolfileCreator 1.0

 38 43  0  0  0  0  0  0  0  0999 V2000
    0.0000   -0.0000   -0.0000 F   0  0  0  0  0  0  0  0  0  0  0  0
    0.0000   -1.4879   -0.0000 C   0  0  0  0  0  0  0  0  0  0  0  0
   -1.3093   -0.7261   -0.0000 C   0  0  0  0  0  0  0  0  0  0  0  0
   -0.0238   -2.9877   -0.0000 C   0  0  0  0  0  0  0  0  0  0  0  0
    1.2855   -0.7380   -0.0000 C   0  0  0  0  0  0  0  0  0  0  0  0
   -1.3212    0.7975   -0.0000 O   0  0  0  0  0  0  0  0  0  0  0  0
   -2.6187   -1.4641   -0.0000 N   0  0  0  0  0  0  0  0  0  0  0  0
    1.2498   -3.7256   -0.0000 C   0  0  0  0  0  0  0  0  0  0  0  0
    2.5710   -1.4879   -0.0000 C   0  0  0  0  0  0  0  0  0  0  0  0
   -3.9280   -0.6904   -0.0000 C   0  0  0  0  0  0  0  0  0  0  0  0
   -2.6306   -2.9519   -0.0000 C   0  0  0  0  0  0  0  0  0  0  0  0
    2.5472   -2.9758   -0.0000 N   0  0  0  0  0  0  0  0  0  0  0  0
   -5.2373   -1.4403   -0.0000 C   0  0  0  0  0  0  0  0  0  0  0  0
   -3.9399   -3.6780   -0.0000 C   0  0  0  0  0  0  0  0  0  0  0  0
    3.8328   -3.7256   -0.0000 C   0  0  0  0  0  0  0  0  0  0  0  0
   -5.2492   -2.9281   -0.0000 C   0  0  0  0  0  0  0  0  0  0  0  0
    5.1302   -2.9758   -0.0000 C   0  0  0  0  0  0  0  0  0  0  0  0
   -6.5705   -3.6780   -0.0000 N   0  0  0  0  0  0  0  0  0  0  0  0
    6.4038   -3.7256   -0.0000 C   0  0  0  0  0  0  0  0  0  0  0  0
    5.1183   -1.4760   -0.0000 C   0  0  0  0  0  0  0  0  0  0  0  0
   -6.4752   -5.1540   -0.0000 C   0  0  0  0  0  0  0  0  0  0  0  0
   -7.8322   -2.8210   -0.0000 C   0  0  0  0  0  0  0  0  0  0  0  0
    7.7012   -2.9758   -0.0000 C   0  0  0  0  0  0  0  0  0  0  0  0
    6.4038   -0.7142   -0.0000 C   0  0  0  0  0  0  0  0  0  0  0  0
   -7.5822   -6.1658   -0.0000 C   0  0  0  0  0  0  0  0  0  0  0  0
   -9.2843   -3.2614   -0.0000 C   0  0  0  0  0  0  0  0  0  0  0  0
    7.7012   -1.4641   -0.0000 N   0  0  0  0  0  0  0  0  0  0  0  0
    8.9868   -3.7256   -0.0000 N   0  0  0  0  0  0  0  0  0  0  0  0
   -9.0820   -5.9396   -0.0000 C   0  0  0  0  0  0  0  0  0  0  0  0
   -7.0347   -7.5346   -0.0000 C   0  0  0  0  0  0  0  0  0  0  0  0
   -9.8319   -4.6541   -0.0000 C   0  0  0  0  0  0  0  0  0  0  0  0
  -10.2366   -2.0830   -0.0000 C   0  0  0  0  0  0  0  0  0  0  0  0
  -10.0104   -7.1061   -0.0000 C   0  0  0  0  0  0  0  0  0  0  0  0
   -7.9631   -8.7011   -0.0000 C   0  0  0  0  0  0  0  0  0  0  0  0
  -11.3198   -4.8802   -0.0000 C   0  0  0  0  0  0  0  0  0  0  0  0
  -11.7364   -2.3092   -0.0000 C   0  0  0  0  0  0  0  0  0  0  0  0
   -9.4629   -8.4868   -0.0000 C   0  0  0  0  0  0  0  0  0  0  0  0
  -12.2958   -3.7137   -0.0000 C   0  0  0  0  0  0  0  0  0  0  0  0
  1  2  1  0  0  0  0
  2  3  1  0  0  0  0
  2  4  1  0  0  0  0
  2  5  1  0  0  0  0
  3  6  2  0  0  0  0
  3  7  1  0  0  0  0
  4  8  1  0  0  0  0
  5  9  1  0  0  0  0
  7 10  1  0  0  0  0
  7 11  1  0  0  0  0
  8 12  1  0  0  0  0
 10 13  1  0  0  0  0
 11 14  1  0  0  0  0
 12 15  1  0  0  0  0
 13 16  1  0  0  0  0
 15 17  1  0  0  0  0
 16 18  1  0  0  0  0
 17 19  2  0  0  0  0
 17 20  1  0  0  0  0
 18 21  1  0  0  0  0
 18 22  1  0  0  0  0
 19 23  1  0  0  0  0
 20 24  2  0  0  0  0
 21 25  1  0  0  0  0
 22 26  1  0  0  0  0
 23 27  2  0  0  0  0
 23 28  1  0  0  0  0
 25 29  2  0  0  0  0
 25 30  1  0  0  0  0
 26 31  2  0  0  0  0
 26 32  1  0  0  0  0
 29 33  1  0  0  0  0
 30 34  2  0  0  0  0
 31 35  1  0  0  0  0
 32 36  2  0  0  0  0
 33 37  2  0  0  0  0
 35 38  2  0  0  0  0
  9 12  1  0  0  0  0
 14 16  1  0  0  0  0
 24 27  1  0  0  0  0
 29 31  1  0  0  0  0
 34 37  1  0  0  0  0
 36 38  1  0  0  0  0
M  END
>  <MolRegNo>
1585784

>  <m>
=

>  <Value>
18000

>  <Unit>
nM

>  <Type>
IC50

>  <pValue>
4.75

>  <Ligand Efficiency>
0

>  <Binding Efficiency>
0

>  <Surface Efficiency>
0

>  <Assay Index>
802368

>  <Assay Category>


>  <Assay Organism>
Homo sapiens

>  <Target ID>
17045

>  <Target Name>
Cytochrome P450 3A4

>  <Target Organism>
Homo sapiens

>  <Target Description>
Target is a single protein chain

>  <Sequence Accession>
P08684

>  <Reference>
Bioorg Med Chem Lett 23 (21), 6004-6009 (2013)

>  <Pubmed ID>
24035485

>  <DOI>
10.1016/j.bmcl.2013.08.013

$$$$
1586138
Actelion Java MolfileCreator 1.0

 25 29  0  0  0  0  0  0  0  0999 V2000
    0.0000   -0.0000   -0.0000 N   0  0  0  0  0  0  0  0  0  0  0  0
   -0.0118    1.5063   -0.0000 C   0  0  0  0  0  0  0  0  0  0  0  0
   -1.3063   -0.7296   -0.0000 C   0  0  0  0  0  0  0  0  0  0  0  0
   -1.3180    2.2595   -0.0000 N   0  0  0  0  0  0  0  0  0  0  0  0
    1.2710    2.2595   -0.0000 N   0  0  0  0  0  0  0  0  0  0  0  0
   -2.6125    0.0235   -0.0000 C   0  0  0  0  0  0  0  0  0  0  0  0
   -2.6243    1.5299   -0.0000 C   0  0  0  0  0  0  0  0  0  0  0  0
   -3.9188   -0.7061   -0.0000 C   0  0  0  0  0  0  0  0  0  0  0  0
   -3.9305   -2.1889   -0.0000 C   0  0  0  0  0  0  0  0  0  0  0  0
   -5.2250    0.0471   -0.0000 C   0  0  0  0  0  0  0  0  0  0  0  0
   -5.2368   -2.9185   -0.0000 N   0  0  0  0  0  0  0  0  0  0  0  0
   -6.5313   -0.6825   -0.0000 C   0  0  0  0  0  0  0  0  0  0  0  0
   -6.5431   -2.1653   -0.0000 C   0  0  0  0  0  0  0  0  0  0  0  0
   -7.9670   -0.2118   -0.0000 C   0  0  0  0  0  0  0  0  0  0  0  0
   -7.9788   -2.6125   -0.0000 N   0  0  0  0  0  0  0  0  0  0  0  0
   -8.4377    1.2239   -0.0000 C   0  0  0  0  0  0  0  0  0  0  0  0
   -8.8614   -1.4122   -0.0000 C   0  0  0  0  0  0  0  0  0  0  0  0
   -7.4492    2.3418   -0.0000 C   0  0  0  0  0  0  0  0  0  0  0  0
   -9.9087    1.5416   -0.0000 C   0  0  0  0  0  0  0  0  0  0  0  0
   -7.9199    3.7776   -0.0000 C   0  0  0  0  0  0  0  0  0  0  0  0
  -10.3794    2.9773   -0.0000 C   0  0  0  0  0  0  0  0  0  0  0  0
   -9.3909    4.0953   -0.0000 C   0  0  0  0  0  0  0  0  0  0  0  0
   -7.1903    5.0838   -0.0000 C   0  0  0  0  0  0  0  0  0  0  0  0
   -9.5557    5.5898   -0.0000 N   0  0  0  0  0  0  0  0  0  0  0  0
   -8.2024    6.2018   -0.0000 C   0  0  0  0  0  0  0  0  0  0  0  0
  1  2  2  0  0  0  0
  1  3  1  0  0  0  0
  2  4  1  0  0  0  0
  2  5  1  0  0  0  0
  3  6  2  0  0  0  0
  4  7  2  0  0  0  0
  6  8  1  0  0  0  0
  8  9  2  0  0  0  0
  8 10  1  0  0  0  0
  9 11  1  0  0  0  0
 10 12  2  0  0  0  0
 11 13  2  0  0  0  0
 12 14  1  0  0  0  0
 13 15  1  0  0  0  0
 14 16  1  0  0  0  0
 14 17  2  0  0  0  0
 16 18  2  0  0  0  0
 16 19  1  0  0  0  0
 18 20  1  0  0  0  0
 19 21  2  0  0  0  0
 20 22  2  0  0  0  0
 20 23  1  0  0  0  0
 22 24  1  0  0  0  0
 23 25  2  0  0  0  0
  6  7  1  0  0  0  0
 12 13  1  0  0  0  0
 15 17  1  0  0  0  0
 21 22  1  0  0  0  0
 24 25  1  0  0  0  0
M  END
>  <MolRegNo>
1586138

>  <m>
=

>  <Value>
21800

>  <Unit>
nM

>  <Type>
IC50

>  <pValue>
4.66

>  <Ligand Efficiency>
0

>  <Binding Efficiency>
0

>  <Surface Efficiency>
0

>  <Assay Index>
802859

>  <Assay Category>


>  <Assay Organism>
Homo sapiens

>  <Target ID>
17045

>  <Target Name>
Cytochrome P450 3A4

>  <Target Organism>
Homo sapiens

>  <Target Description>
Target is a single protein chain

>  <Sequence Accession>
P08684

>  <Reference>
J Med Chem 56 (20), 8032-8048 (2013)

>  <Pubmed ID>
24044867

>  <DOI>
10.1021/jm401094t

$$$$
1586133
Actelion Java MolfileCreator 1.0

 32 37  0  0  0  0  0  0  0  0999 V2000
    0.0000   -0.0000   -0.0000 N   0  0  0  0  0  0  0  0  0  0  0  0
    1.2993   -0.7205   -0.0000 C   0  0  0  0  0  0  0  0  0  0  0  0
   -1.2993   -0.7677   -0.0000 C   0  0  0  0  0  0  0  0  0  0  0  0
    2.7048   -0.2126   -0.0000 N   0  0  0  0  0  0  0  0  0  0  0  0
    1.3229   -2.2087   -0.0000 C   0  0  0  0  0  0  0  0  0  0  0  0
   -1.2756   -2.2560   -0.0000 C   0  0  0  0  0  0  0  0  0  0  0  0
    3.6025   -1.3938   -0.0000 C   0  0  0  0  0  0  0  0  0  0  0  0
    2.7521   -2.6340   -0.0000 C   0  0  0  0  0  0  0  0  0  0  0  0
    0.0236   -2.9765   -0.0000 C   0  0  0  0  0  0  0  0  0  0  0  0
   -2.5749   -3.0237   -0.0000 C   0  0  0  0  0  0  0  0  0  0  0  0
    3.2363   -4.0395   -0.0000 C   0  0  0  0  0  0  0  0  0  0  0  0
   -2.5513   -4.5120   -0.0000 C   0  0  0  0  0  0  0  0  0  0  0  0
   -3.8978   -2.2914   -0.0000 C   0  0  0  0  0  0  0  0  0  0  0  0
    2.2442   -5.1616   -0.0000 C   0  0  0  0  0  0  0  0  0  0  0  0
    4.7010   -4.3112   -0.0000 C   0  0  0  0  0  0  0  0  0  0  0  0
   -3.8505   -5.2797   -0.0000 C   0  0  0  0  0  0  0  0  0  0  0  0
   -5.1970   -3.0474   -0.0000 C   0  0  0  0  0  0  0  0  0  0  0  0
    2.7285   -6.5672   -0.0000 C   0  0  0  0  0  0  0  0  0  0  0  0
    5.1852   -5.7168   -0.0000 C   0  0  0  0  0  0  0  0  0  0  0  0
   -5.1734   -4.5356   -0.0000 C   0  0  0  0  0  0  0  0  0  0  0  0
    4.1931   -6.8388   -0.0000 C   0  0  0  0  0  0  0  0  0  0  0  0
    1.9843   -7.8783   -0.0000 C   0  0  0  0  0  0  0  0  0  0  0  0
   -6.4727   -5.3034   -0.0000 C   0  0  0  0  0  0  0  0  0  0  0  0
    4.3584   -8.3271   -0.0000 N   0  0  0  0  0  0  0  0  0  0  0  0
    3.0001   -8.9531   -0.0000 C   0  0  0  0  0  0  0  0  0  0  0  0
   -7.7956   -4.5710   -0.0000 N   0  0  0  0  0  0  0  0  0  0  0  0
   -9.0948   -5.3388   -0.0000 C   0  0  0  0  0  0  0  0  0  0  0  0
   -7.8428   -3.0592   -0.0000 C   0  0  0  0  0  0  0  0  0  0  0  0
  -10.4177   -4.5947   -0.0000 C   0  0  0  0  0  0  0  0  0  0  0  0
   -9.1657   -2.3150   -0.0000 C   0  0  0  0  0  0  0  0  0  0  0  0
  -10.4650   -3.0828   -0.0000 N   0  0  0  0  0  0  0  0  0  0  0  0
  -11.7879   -2.3387   -0.0000 C   0  0  0  0  0  0  0  0  0  0  0  0
  1  2  2  0  0  0  0
  1  3  1  0  0  0  0
  2  4  1  0  0  0  0
  2  5  1  0  0  0  0
  3  6  2  0  0  0  0
  4  7  1  0  0  0  0
  5  8  1  0  0  0  0
  5  9  2  0  0  0  0
  6 10  1  0  0  0  0
  8 11  1  0  0  0  0
 10 12  2  0  0  0  0
 10 13  1  0  0  0  0
 11 14  2  0  0  0  0
 11 15  1  0  0  0  0
 12 16  1  0  0  0  0
 13 17  2  0  0  0  0
 14 18  1  0  0  0  0
 15 19  2  0  0  0  0
 16 20  2  0  0  0  0
 18 21  2  0  0  0  0
 18 22  1  0  0  0  0
 20 23  1  0  0  0  0
 21 24  1  0  0  0  0
 22 25  2  0  0  0  0
 23 26  1  0  0  0  0
 26 27  1  0  0  0  0
 26 28  1  0  0  0  0
 27 29  1  0  0  0  0
 28 30  1  0  0  0  0
 29 31  1  0  0  0  0
 31 32  1  0  0  0  0
  6  9  1  0  0  0  0
  7  8  2  0  0  0  0
 17 20  1  0  0  0  0
 19 21  1  0  0  0  0
 24 25  1  0  0  0  0
 30 31  1  0  0  0  0
M  END
>  <MolRegNo>
1586133

>  <m>
=

>  <Value>
16200

>  <Unit>
nM

>  <Type>
IC50

>  <pValue>
4.79

>  <Ligand Efficiency>
0

>  <Binding Efficiency>
0

>  <Surface Efficiency>
0

>  <Assay Index>
802859

>  <Assay Category>


>  <Assay Organism>
Homo sapiens

>  <Target ID>
17045

>  <Target Name>
Cytochrome P450 3A4

>  <Target Organism>
Homo sapiens

>  <Target Description>
Target is a single protein chain

>  <Sequence Accession>
P08684

>  <Reference>
J Med Chem 56 (20), 8032-8048 (2013)

>  <Pubmed ID>
24044867

>  <DOI>
10.1021/jm401094t

$$$$
1586136
Actelion Java MolfileCreator 1.0

 25 29  0  0  0  0  0  0  0  0999 V2000
    0.0000   -0.0000   -0.0000 N   0  0  0  0  0  0  0  0  0  0  0  0
    1.2827   -0.7414   -0.0000 C   0  0  0  0  0  0  0  0  0  0  0  0
   -1.3062   -0.7414   -0.0000 C   0  0  0  0  0  0  0  0  0  0  0  0
    2.5654    0.0235   -0.0000 N   0  0  0  0  0  0  0  0  0  0  0  0
    1.2709   -2.2242   -0.0000 C   0  0  0  0  0  0  0  0  0  0  0  0
   -1.3180   -2.2242   -0.0000 C   0  0  0  0  0  0  0  0  0  0  0  0
   -0.0353   -2.9655   -0.0000 C   0  0  0  0  0  0  0  0  0  0  0  0
   -2.6243   -2.9655   -0.0000 C   0  0  0  0  0  0  0  0  0  0  0  0
   -2.6360   -4.4483   -0.0000 C   0  0  0  0  0  0  0  0  0  0  0  0
   -3.9305   -2.2006   -0.0000 C   0  0  0  0  0  0  0  0  0  0  0  0
   -3.9423   -5.1897   -0.0000 N   0  0  0  0  0  0  0  0  0  0  0  0
   -5.2368   -2.9420   -0.0000 C   0  0  0  0  0  0  0  0  0  0  0  0
   -5.2485   -4.4248   -0.0000 C   0  0  0  0  0  0  0  0  0  0  0  0
   -6.6725   -2.4713   -0.0000 C   0  0  0  0  0  0  0  0  0  0  0  0
   -6.6842   -4.8720   -0.0000 N   0  0  0  0  0  0  0  0  0  0  0  0
   -7.1432   -1.0356   -0.0000 C   0  0  0  0  0  0  0  0  0  0  0  0
   -7.5668   -3.6599   -0.0000 C   0  0  0  0  0  0  0  0  0  0  0  0
   -6.1664    0.0941   -0.0000 C   0  0  0  0  0  0  0  0  0  0  0  0
   -8.6260   -0.7061   -0.0000 C   0  0  0  0  0  0  0  0  0  0  0  0
   -6.6372    1.5298   -0.0000 C   0  0  0  0  0  0  0  0  0  0  0  0
   -9.0967    0.7296   -0.0000 C   0  0  0  0  0  0  0  0  0  0  0  0
   -8.1199    1.8476   -0.0000 C   0  0  0  0  0  0  0  0  0  0  0  0
   -5.8958    2.8361   -0.0000 C   0  0  0  0  0  0  0  0  0  0  0  0
   -8.2847    3.3539   -0.0000 N   0  0  0  0  0  0  0  0  0  0  0  0
   -6.9078    3.9541   -0.0000 C   0  0  0  0  0  0  0  0  0  0  0  0
  1  2  2  0  0  0  0
  1  3  1  0  0  0  0
  2  4  1  0  0  0  0
  2  5  1  0  0  0  0
  3  6  2  0  0  0  0
  5  7  2  0  0  0  0
  6  8  1  0  0  0  0
  8  9  2  0  0  0  0
  8 10  1  0  0  0  0
  9 11  1  0  0  0  0
 10 12  2  0  0  0  0
 11 13  2  0  0  0  0
 12 14  1  0  0  0  0
 13 15  1  0  0  0  0
 14 16  1  0  0  0  0
 14 17  2  0  0  0  0
 16 18  2  0  0  0  0
 16 19  1  0  0  0  0
 18 20  1  0  0  0  0
 19 21  2  0  0  0  0
 20 22  2  0  0  0  0
 20 23  1  0  0  0  0
 22 24  1  0  0  0  0
 23 25  2  0  0  0  0
  6  7  1  0  0  0  0
 12 13  1  0  0  0  0
 15 17  1  0  0  0  0
 21 22  1  0  0  0  0
 24 25  1  0  0  0  0
M  END
>  <MolRegNo>
1586136

>  <m>
=

>  <Value>
4200

>  <Unit>
nM

>  <Type>
IC50

>  <pValue>
5.38

>  <Ligand Efficiency>
0

>  <Binding Efficiency>
0

>  <Surface Efficiency>
0

>  <Assay Index>
802859

>  <Assay Category>


>  <Assay Organism>
Homo sapiens

>  <Target ID>
17045

>  <Target Name>
Cytochrome P450 3A4

>  <Target Organism>
Homo sapiens

>  <Target Description>
Target is a single protein chain

>  <Sequence Accession>
P08684

>  <Reference>
J Med Chem 56 (20), 8032-8048 (2013)

>  <Pubmed ID>
24044867

>  <DOI>
10.1021/jm401094t

$$$$
1585469
Actelion Java MolfileCreator 1.0

 37 39  0  0  0  0  0  0  0  0999 V2000
    0.0000   -0.0000   -0.0000 Cl  0  0  0  0  0  0  0  0  0  0  0  0
   -8.1407   -4.6383   -0.0000 O   0  0  0  0  0  0  0  0  0  0  0  0
   -7.7620   -3.1711   -0.0000 C   0  0  0  0  0  0  0  0  0  0  0  0
   -6.3658   -2.8989   -0.0000 N   0  0  0  0  0  0  0  0  0  0  0  0
   -8.8861   -2.2008   -0.0000 C   0  0  0  0  0  0  0  0  0  0  0  0
   -5.6440   -1.5145   -0.0000 C   0  0  0  0  0  0  0  0  0  0  0  0
   -5.9753   -4.3306   -0.0000 C   0  0  0  0  0  0  0  0  0  0  0  0
  -10.1877   -2.9463   -0.0000 N   0  0  0  0  0  0  0  0  0  0  0  0
   -8.9098   -0.7218   -0.0000 C   0  0  0  0  0  0  0  0  0  0  0  0
   -6.2593   -0.1183   -0.0000 C   0  0  0  0  0  0  0  0  0  0  0  0
   -4.1650   -1.6684   -0.0000 C   0  0  0  0  0  0  0  0  0  0  0  0
   -4.5318   -4.6974   -0.0000 C   0  0  0  0  0  0  0  0  0  0  0  0
  -11.5011   -2.1890   -0.0000 C   0  0  0  0  0  0  0  0  0  0  0  0
   -7.7029    0.2366   -0.0000 N   0  0  0  0  0  0  0  0  0  0  0  0
   -5.3837    1.1004   -0.0000 C   0  0  0  0  0  0  0  0  0  0  0  0
   -3.2776   -0.4496   -0.0000 C   0  0  0  0  0  0  0  0  0  0  0  0
   -4.1413   -6.1292   -0.0000 C   0  0  0  0  0  0  0  0  0  0  0  0
   -3.5024   -3.6089   -0.0000 C   0  0  0  0  0  0  0  0  0  0  0  0
  -11.5247   -0.6744   -0.0000 O   0  0  0  0  0  0  0  0  0  0  0  0
  -12.8026   -2.9344   -0.0000 C   0  0  0  0  0  0  0  0  0  0  0  0
   -8.0223    1.7157   -0.0000 C   0  0  0  0  0  0  0  0  0  0  0  0
   -3.9047    0.9466   -0.0000 C   0  0  0  0  0  0  0  0  0  0  0  0
   -2.7096   -6.4960   -0.0000 C   0  0  0  0  0  0  0  0  0  0  0  0
   -5.2062   -7.1822   -0.0000 C   0  0  0  0  0  0  0  0  0  0  0  0
   -2.0588   -3.9638   -0.0000 C   0  0  0  0  0  0  0  0  0  0  0  0
  -14.1160   -2.1772   -0.0000 N   0  0  0  0  0  0  0  0  0  0  0  0
  -12.8026   -4.4253   -0.0000 C   0  0  0  0  0  0  0  0  0  0  0  0
   -9.4659    2.2008   -0.0000 O   0  0  0  0  0  0  0  0  0  0  0  0
   -6.9101    2.7333   -0.0000 C   0  0  0  0  0  0  0  0  0  0  0  0
   -1.6684   -5.4074   -0.0000 C   0  0  0  0  0  0  0  0  0  0  0  0
   -2.3310   -7.9158   -0.0000 C   0  0  0  0  0  0  0  0  0  0  0  0
   -4.8276   -8.6140   -0.0000 C   0  0  0  0  0  0  0  0  0  0  0  0
  -15.4176   -2.9226   -0.0000 C   0  0  0  0  0  0  0  0  0  0  0  0
   -7.2296    4.2123   -0.0000 C   0  0  0  0  0  0  0  0  0  0  0  0
   -3.3841   -8.9689   -0.0000 C   0  0  0  0  0  0  0  0  0  0  0  0
   -6.1173    5.2299   -0.0000 C   0  0  0  0  0  0  0  0  0  0  0  0
   -8.6731    4.6974   -0.0000 C   0  0  0  0  0  0  0  0  0  0  0  0
  2  3  2  0  0  0  0
  3  4  1  0  0  0  0
  3  5  1  0  0  0  0
  4  6  1  0  0  0  0
  4  7  1  0  0  0  0
  5  8  1  1  0  0  0
  5  9  1  0  0  0  0
  6 10  2  0  0  0  0
  6 11  1  0  0  0  0
  7 12  1  0  0  0  0
  8 13  1  0  0  0  0
  9 14  1  0  0  0  0
 10 15  1  0  0  0  0
 11 16  2  0  0  0  0
 12 17  1  0  0  0  0
 12 18  2  0  0  0  0
 13 19  2  0  0  0  0
 13 20  1  0  0  0  0
 14 21  1  0  0  0  0
 15 22  2  0  0  0  0
 17 23  1  0  0  0  0
 17 24  2  0  0  0  0
 18 25  1  0  0  0  0
 20 26  1  6  0  0  0
 20 27  1  0  0  0  0
 21 28  2  0  0  0  0
 21 29  1  0  0  0  0
 23 30  1  0  0  0  0
 23 31  2  0  0  0  0
 24 32  1  0  0  0  0
 26 33  1  0  0  0  0
 29 34  1  0  0  0  0
 31 35  1  0  0  0  0
 34 36  1  0  0  0  0
 34 37  1  0  0  0  0
 10 14  1  0  0  0  0
 16 22  1  0  0  0  0
 25 30  2  0  0  0  0
 32 35  2  0  0  0  0
M  END
>  <MolRegNo>
1585469

>  <m>
=

>  <Value>
1800

>  <Unit>
nM

>  <Type>
IC50

>  <pValue>
5.75

>  <Ligand Efficiency>
0

>  <Binding Efficiency>
0

>  <Surface Efficiency>
0

>  <Assay Index>
802910

>  <Assay Category>


>  <Assay Organism>
Homo sapiens

>  <Target ID>
17045

>  <Target Name>
Cytochrome P450 3A4

>  <Target Organism>
Homo sapiens

>  <Target Description>
Target is a single protein chain

>  <Sequence Accession>
P08684

>  <Reference>
J Med Chem 56 (20), 7788-7803 (2013)

>  <Pubmed ID>
24093940

>  <DOI>
10.1021/jm400732v

$$$$
1586586
Actelion Java MolfileCreator 1.0

 38 43  0  0  0  0  0  0  0  0999 V2000
    0.0000   -0.0000   -0.0000 F   0  0  0  0  0  0  0  0  0  0  0  0
    1.4732   -0.1782   -0.0000 C   0  0  0  0  0  0  0  0  0  0  0  0
    2.0435   -1.5564   -0.0000 C   0  0  0  0  0  0  0  0  0  0  0  0
    2.3762    1.0336   -0.0000 C   0  0  0  0  0  0  0  0  0  0  0  0
    3.5168   -1.7465   -0.0000 C   0  0  0  0  0  0  0  0  0  0  0  0
    3.8613    0.8435   -0.0000 C   0  0  0  0  0  0  0  0  0  0  0  0
    4.3603   -2.9821   -0.0000 N   0  0  0  0  0  0  0  0  0  0  0  0
    4.4316   -0.5465   -0.0000 C   0  0  0  0  0  0  0  0  0  0  0  0
    5.7979   -2.5425   -0.0000 C   0  0  0  0  0  0  0  0  0  0  0  0
    3.8375   -4.3841   -0.0000 C   0  0  0  0  0  0  0  0  0  0  0  0
    5.8335   -1.0336   -0.0000 N   0  0  0  0  0  0  0  0  0  0  0  0
    6.9860   -3.4455   -0.0000 O   0  0  0  0  0  0  0  0  0  0  0  0
    2.3762   -4.7999   -0.0000 C   0  0  0  0  0  0  0  0  0  0  0  0
    4.6811   -5.6197   -0.0000 C   0  0  0  0  0  0  0  0  0  0  0  0
    7.0691   -0.1663   -0.0000 C   0  0  0  0  0  0  0  0  0  0  0  0
    2.3168   -6.2969   -0.0000 C   0  0  0  0  0  0  0  0  0  0  0  0
    3.7544   -6.7959   -0.0000 C   0  0  0  0  0  0  0  0  0  0  0  0
    8.3642   -0.9029   -0.0000 C   0  0  0  0  0  0  0  0  0  0  0  0
    7.0573    1.3425   -0.0000 C   0  0  0  0  0  0  0  0  0  0  0  0
    9.6473   -0.1426   -0.0000 C   0  0  0  0  0  0  0  0  0  0  0  0
    8.3523    2.1029   -0.0000 C   0  0  0  0  0  0  0  0  0  0  0  0
    9.6354    1.3782   -0.0000 N   0  0  0  0  0  0  0  0  0  0  0  0
   10.9304    2.1386   -0.0000 C   0  0  0  0  0  0  0  0  0  0  0  0
   10.9186    3.6593   -0.0000 O   0  0  0  0  0  0  0  0  0  0  0  0
   12.2255    1.3901   -0.0000 C   0  0  0  0  0  0  0  0  0  0  0  0
   12.2017   -0.1069   -0.0000 C   0  0  0  0  0  0  0  0  0  0  0  0
   13.5205    2.1623   -0.0000 C   0  0  0  0  0  0  0  0  0  0  0  0
   13.4848   -0.8554   -0.0000 C   0  0  0  0  0  0  0  0  0  0  0  0
   14.8155    1.4138   -0.0000 C   0  0  0  0  0  0  0  0  0  0  0  0
   14.7799   -0.0950   -0.0000 N   0  0  0  0  0  0  0  0  0  0  0  0
   16.0630   -0.8435   -0.0000 C   0  0  0  0  0  0  0  0  0  0  0  0
   17.3580   -0.0832   -0.0000 C   0  0  0  0  0  0  0  0  0  0  0  0
   18.6412   -0.8435   -0.0000 C   0  0  0  0  0  0  0  0  0  0  0  0
   17.3461    1.4257   -0.0000 C   0  0  0  0  0  0  0  0  0  0  0  0
   19.9362   -0.0832   -0.0000 C   0  0  0  0  0  0  0  0  0  0  0  0
   18.6412    2.1861   -0.0000 C   0  0  0  0  0  0  0  0  0  0  0  0
   19.9362    1.4376   -0.0000 N   0  0  0  0  0  0  0  0  0  0  0  0
   21.2193   -0.8317   -0.0000 N   0  0  0  0  0  0  0  0  0  0  0  0
  1  2  1  0  0  0  0
  2  3  2  0  0  0  0
  2  4  1  0  0  0  0
  3  5  1  0  0  0  0
  4  6  2  0  0  0  0
  5  7  1  0  0  0  0
  5  8  2  0  0  0  0
  7  9  1  0  0  0  0
  7 10  1  0  0  0  0
  8 11  1  0  0  0  0
  9 12  2  0  0  0  0
 10 13  1  0  0  0  0
 10 14  1  0  0  0  0
 11 15  1  0  0  0  0
 13 16  1  0  0  0  0
 14 17  1  0  0  0  0
 15 18  1  0  0  0  0
 15 19  1  0  0  0  0
 18 20  1  0  0  0  0
 19 21  1  0  0  0  0
 20 22  1  0  0  0  0
 22 23  1  0  0  0  0
 23 24  2  0  0  0  0
 23 25  1  0  0  0  0
 25 26  1  0  0  0  0
 25 27  1  0  0  0  0
 26 28  1  0  0  0  0
 27 29  1  0  0  0  0
 28 30  1  0  0  0  0
 30 31  1  0  0  0  0
 31 32  1  0  0  0  0
 32 33  2  0  0  0  0
 32 34  1  0  0  0  0
 33 35  1  0  0  0  0
 34 36  2  0  0  0  0
 35 37  2  0  0  0  0
 35 38  1  0  0  0  0
  6  8  1  0  0  0  0
  9 11  1  0  0  0  0
 16 17  1  0  0  0  0
 21 22  1  0  0  0  0
 29 30  1  0  0  0  0
 36 37  1  0  0  0  0
M  END
>  <MolRegNo>
1586586

>  <m>
=

>  <Value>
22000

>  <Unit>
nM

>  <Type>
IC50

>  <pValue>
4.66

>  <Ligand Efficiency>
0

>  <Binding Efficiency>
0

>  <Surface Efficiency>
0

>  <Assay Index>
800918

>  <Assay Category>


>  <Assay Organism>
Homo sapiens

>  <Target ID>
17045

>  <Target Name>
Cytochrome P450 3A4

>  <Target Organism>
Homo sapiens

>  <Target Description>
Target is a single protein chain

>  <Sequence Accession>
P08684

>  <Reference>
Bioorg Med Chem Lett 23 (21), 6001-6003 (2013)

>  <Pubmed ID>
24050887

>  <DOI>
10.1016/j.bmcl.2013.08.012

$$$$
1586585
Actelion Java MolfileCreator 1.0

 37 42  0  0  0  0  0  0  0  0999 V2000
    0.0000   -0.0000   -0.0000 F   0  0  0  0  0  0  0  0  0  0  0  0
    1.4723   -0.1781   -0.0000 C   0  0  0  0  0  0  0  0  0  0  0  0
    2.0422   -1.5554   -0.0000 C   0  0  0  0  0  0  0  0  0  0  0  0
    2.3746    1.0330   -0.0000 C   0  0  0  0  0  0  0  0  0  0  0  0
    3.5145   -1.7454   -0.0000 C   0  0  0  0  0  0  0  0  0  0  0  0
    3.8588    0.8430   -0.0000 C   0  0  0  0  0  0  0  0  0  0  0  0
    4.3575   -2.9802   -0.0000 N   0  0  0  0  0  0  0  0  0  0  0  0
    4.4287   -0.5462   -0.0000 C   0  0  0  0  0  0  0  0  0  0  0  0
    5.7941   -2.5409   -0.0000 C   0  0  0  0  0  0  0  0  0  0  0  0
    3.8351   -4.3812   -0.0000 C   0  0  0  0  0  0  0  0  0  0  0  0
    5.8298   -1.0330   -0.0000 N   0  0  0  0  0  0  0  0  0  0  0  0
    6.9815   -3.4432   -0.0000 O   0  0  0  0  0  0  0  0  0  0  0  0
    2.3390   -4.6424   -0.0000 C   0  0  0  0  0  0  0  0  0  0  0  0
    7.0646   -0.1662   -0.0000 C   0  0  0  0  0  0  0  0  0  0  0  0
    0.9024   -4.1319   -0.0000 C   0  0  0  0  0  0  0  0  0  0  0  0
    1.1755   -5.6160   -0.0000 C   0  0  0  0  0  0  0  0  0  0  0  0
    8.3588   -0.9024   -0.0000 C   0  0  0  0  0  0  0  0  0  0  0  0
    7.0527    1.3417   -0.0000 C   0  0  0  0  0  0  0  0  0  0  0  0
    9.6411   -0.1425   -0.0000 C   0  0  0  0  0  0  0  0  0  0  0  0
    8.3469    2.1016   -0.0000 C   0  0  0  0  0  0  0  0  0  0  0  0
    9.6292    1.3773   -0.0000 N   0  0  0  0  0  0  0  0  0  0  0  0
   10.9234    2.1372   -0.0000 C   0  0  0  0  0  0  0  0  0  0  0  0
   10.9115    3.6570   -0.0000 O   0  0  0  0  0  0  0  0  0  0  0  0
   12.2176    1.3892   -0.0000 C   0  0  0  0  0  0  0  0  0  0  0  0
   12.1938   -0.1069   -0.0000 C   0  0  0  0  0  0  0  0  0  0  0  0
   13.5118    2.1609   -0.0000 C   0  0  0  0  0  0  0  0  0  0  0  0
   13.4761   -0.8549   -0.0000 C   0  0  0  0  0  0  0  0  0  0  0  0
   14.8059    1.4129   -0.0000 C   0  0  0  0  0  0  0  0  0  0  0  0
   14.7703   -0.0950   -0.0000 N   0  0  0  0  0  0  0  0  0  0  0  0
   16.0526   -0.8430   -0.0000 C   0  0  0  0  0  0  0  0  0  0  0  0
   17.3468   -0.0831   -0.0000 C   0  0  0  0  0  0  0  0  0  0  0  0
   18.6291   -0.8430   -0.0000 C   0  0  0  0  0  0  0  0  0  0  0  0
   17.3349    1.4248   -0.0000 C   0  0  0  0  0  0  0  0  0  0  0  0
   19.9233   -0.0831   -0.0000 C   0  0  0  0  0  0  0  0  0  0  0  0
   18.6291    2.1847   -0.0000 C   0  0  0  0  0  0  0  0  0  0  0  0
   19.9233    1.4367   -0.0000 N   0  0  0  0  0  0  0  0  0  0  0  0
   21.2056   -0.8311   -0.0000 N   0  0  0  0  0  0  0  0  0  0  0  0
  1  2  1  0  0  0  0
  2  3  2  0  0  0  0
  2  4  1  0  0  0  0
  3  5  1  0  0  0  0
  4  6  2  0  0  0  0
  5  7  1  0  0  0  0
  5  8  2  0  0  0  0
  7  9  1  0  0  0  0
  7 10  1  0  0  0  0
  8 11  1  0  0  0  0
  9 12  2  0  0  0  0
 10 13  1  0  0  0  0
 11 14  1  0  0  0  0
 13 15  1  0  0  0  0
 13 16  1  0  0  0  0
 14 17  1  0  0  0  0
 14 18  1  0  0  0  0
 17 19  1  0  0  0  0
 18 20  1  0  0  0  0
 19 21  1  0  0  0  0
 21 22  1  0  0  0  0
 22 23  2  0  0  0  0
 22 24  1  0  0  0  0
 24 25  1  0  0  0  0
 24 26  1  0  0  0  0
 25 27  1  0  0  0  0
 26 28  1  0  0  0  0
 27 29  1  0  0  0  0
 29 30  1  0  0  0  0
 30 31  1  0  0  0  0
 31 32  2  0  0  0  0
 31 33  1  0  0  0  0
 32 34  1  0  0  0  0
 33 35  2  0  0  0  0
 34 36  2  0  0  0  0
 34 37  1  0  0  0  0
  6  8  1  0  0  0  0
  9 11  1  0  0  0  0
 15 16  1  0  0  0  0
 20 21  1  0  0  0  0
 28 29  1  0  0  0  0
 35 36  1  0  0  0  0
M  END
>  <MolRegNo>
1586585

>  <m>
=

>  <Value>
30000

>  <Unit>
nM

>  <Type>
IC50

>  <pValue>
4.52

>  <Ligand Efficiency>
0

>  <Binding Efficiency>
0

>  <Surface Efficiency>
0

>  <Assay Index>
800918

>  <Assay Category>


>  <Assay Organism>
Homo sapiens

>  <Target ID>
17045

>  <Target Name>
Cytochrome P450 3A4

>  <Target Organism>
Homo sapiens

>  <Target Description>
Target is a single protein chain

>  <Sequence Accession>
P08684

>  <Reference>
Bioorg Med Chem Lett 23 (21), 6001-6003 (2013)

>  <Pubmed ID>
24050887

>  <DOI>
10.1016/j.bmcl.2013.08.012

$$$$
1586582
Actelion Java MolfileCreator 1.0

 40 44  0  0  0  0  0  0  0  0999 V2000
    0.0000   -0.0000   -0.0000 F   0  0  0  0  0  0  0  0  0  0  0  0
    1.4832   -0.1780   -0.0000 C   0  0  0  0  0  0  0  0  0  0  0  0
    2.0527   -1.5543   -0.0000 C   0  0  0  0  0  0  0  0  0  0  0  0
    2.3849    1.0323   -0.0000 C   0  0  0  0  0  0  0  0  0  0  0  0
    3.5240   -1.7442   -0.0000 C   0  0  0  0  0  0  0  0  0  0  0  0
    3.8681    0.8424   -0.0000 C   0  0  0  0  0  0  0  0  0  0  0  0
    4.3664   -2.9782   -0.0000 N   0  0  0  0  0  0  0  0  0  0  0  0
    4.4376   -0.5458   -0.0000 C   0  0  0  0  0  0  0  0  0  0  0  0
    5.8021   -2.5392   -0.0000 C   0  0  0  0  0  0  0  0  0  0  0  0
    3.8443   -4.3783   -0.0000 C   0  0  0  0  0  0  0  0  0  0  0  0
    5.8377   -1.0323   -0.0000 N   0  0  0  0  0  0  0  0  0  0  0  0
    6.9886   -3.4409   -0.0000 O   0  0  0  0  0  0  0  0  0  0  0  0
    2.3493   -4.6393   -0.0000 C   0  0  0  0  0  0  0  0  0  0  0  0
    7.0717   -0.1661   -0.0000 C   0  0  0  0  0  0  0  0  0  0  0  0
    1.3645   -3.4765   -0.0000 C   0  0  0  0  0  0  0  0  0  0  0  0
    8.3650   -0.9018   -0.0000 C   0  0  0  0  0  0  0  0  0  0  0  0
    7.0598    1.3408   -0.0000 C   0  0  0  0  0  0  0  0  0  0  0  0
   -0.1305   -3.7376   -0.0000 C   0  0  0  0  0  0  0  0  0  0  0  0
    9.6465   -0.1424   -0.0000 C   0  0  0  0  0  0  0  0  0  0  0  0
    8.3531    2.1002   -0.0000 C   0  0  0  0  0  0  0  0  0  0  0  0
   -1.1153   -2.5748   -0.0000 F   0  0  0  0  0  0  0  0  0  0  0  0
   -0.6526   -5.1377   -0.0000 F   0  0  0  0  0  0  0  0  0  0  0  0
   -1.6493   -3.7138   -0.0000 F   0  0  0  0  0  0  0  0  0  0  0  0
    9.6346    1.3764   -0.0000 N   0  0  0  0  0  0  0  0  0  0  0  0
   10.9279    2.1357   -0.0000 C   0  0  0  0  0  0  0  0  0  0  0  0
   10.9160    3.6545   -0.0000 O   0  0  0  0  0  0  0  0  0  0  0  0
   12.2212    1.3882   -0.0000 C   0  0  0  0  0  0  0  0  0  0  0  0
   12.1975   -0.1068   -0.0000 C   0  0  0  0  0  0  0  0  0  0  0  0
   13.5145    2.1595   -0.0000 C   0  0  0  0  0  0  0  0  0  0  0  0
   13.4789   -0.8543   -0.0000 C   0  0  0  0  0  0  0  0  0  0  0  0
   14.8078    1.4120   -0.0000 C   0  0  0  0  0  0  0  0  0  0  0  0
   14.7723   -0.0949   -0.0000 N   0  0  0  0  0  0  0  0  0  0  0  0
   16.0537   -0.8424   -0.0000 C   0  0  0  0  0  0  0  0  0  0  0  0
   17.3470   -0.0831   -0.0000 C   0  0  0  0  0  0  0  0  0  0  0  0
   18.6285   -0.8424   -0.0000 C   0  0  0  0  0  0  0  0  0  0  0  0
   17.3351    1.4238   -0.0000 C   0  0  0  0  0  0  0  0  0  0  0  0
   19.9218   -0.0831   -0.0000 C   0  0  0  0  0  0  0  0  0  0  0  0
   18.6285    2.1832   -0.0000 C   0  0  0  0  0  0  0  0  0  0  0  0
   19.9218    1.4357   -0.0000 N   0  0  0  0  0  0  0  0  0  0  0  0
   21.2032   -0.8306   -0.0000 N   0  0  0  0  0  0  0  0  0  0  0  0
  1  2  1  0  0  0  0
  2  3  2  0  0  0  0
  2  4  1  0  0  0  0
  3  5  1  0  0  0  0
  4  6  2  0  0  0  0
  5  7  1  0  0  0  0
  5  8  2  0  0  0  0
  7  9  1  0  0  0  0
  7 10  1  0  0  0  0
  8 11  1  0  0  0  0
  9 12  2  0  0  0  0
 10 13  1  0  0  0  0
 11 14  1  0  0  0  0
 13 15  1  0  0  0  0
 14 16  1  0  0  0  0
 14 17  1  0  0  0  0
 15 18  1  0  0  0  0
 16 19  1  0  0  0  0
 17 20  1  0  0  0  0
 18 21  1  0  0  0  0
 18 22  1  0  0  0  0
 18 23  1  0  0  0  0
 19 24  1  0  0  0  0
 24 25  1  0  0  0  0
 25 26  2  0  0  0  0
 25 27  1  0  0  0  0
 27 28  1  0  0  0  0
 27 29  1  0  0  0  0
 28 30  1  0  0  0  0
 29 31  1  0  0  0  0
 30 32  1  0  0  0  0
 32 33  1  0  0  0  0
 33 34  1  0  0  0  0
 34 35  2  0  0  0  0
 34 36  1  0  0  0  0
 35 37  1  0  0  0  0
 36 38  2  0  0  0  0
 37 39  2  0  0  0  0
 37 40  1  0  0  0  0
  6  8  1  0  0  0  0
  9 11  1  0  0  0  0
 20 24  1  0  0  0  0
 31 32  1  0  0  0  0
 38 39  1  0  0  0  0
M  END
>  <MolRegNo>
1586582

>  <m>
=

>  <Value>
30000

>  <Unit>
nM

>  <Type>
IC50

>  <pValue>
4.52

>  <Ligand Efficiency>
0

>  <Binding Efficiency>
0

>  <Surface Efficiency>
0

>  <Assay Index>
800918

>  <Assay Category>


>  <Assay Organism>
Homo sapiens

>  <Target ID>
17045

>  <Target Name>
Cytochrome P450 3A4

>  <Target Organism>
Homo sapiens

>  <Target Description>
Target is a single protein chain

>  <Sequence Accession>
P08684

>  <Reference>
Bioorg Med Chem Lett 23 (21), 6001-6003 (2013)

>  <Pubmed ID>
24050887

>  <DOI>
10.1016/j.bmcl.2013.08.012

$$$$
1586580
Actelion Java MolfileCreator 1.0

 40 45  0  0  0  0  0  0  0  0999 V2000
    0.0000   -0.0000   -0.0000 O   0  0  0  0  0  0  0  0  0  0  0  0
   -1.2082    0.9239   -0.0000 C   0  0  0  0  0  0  0  0  0  0  0  0
   -1.1845    2.4401   -0.0000 N   0  0  0  0  0  0  0  0  0  0  0  0
   -2.6652    0.5093   -0.0000 N   0  0  0  0  0  0  0  0  0  0  0  0
   -2.6060    2.9495   -0.0000 C   0  0  0  0  0  0  0  0  0  0  0  0
    0.0474    3.3048   -0.0000 C   0  0  0  0  0  0  0  0  0  0  0  0
   -3.5299    1.7649   -0.0000 C   0  0  0  0  0  0  0  0  0  0  0  0
   -3.1864   -0.8884   -0.0000 C   0  0  0  0  0  0  0  0  0  0  0  0
   -3.1864    4.3472   -0.0000 C   0  0  0  0  0  0  0  0  0  0  0  0
    1.3267    2.5704   -0.0000 C   0  0  0  0  0  0  0  0  0  0  0  0
    0.0355    4.8092   -0.0000 C   0  0  0  0  0  0  0  0  0  0  0  0
   -5.0224    1.9782   -0.0000 C   0  0  0  0  0  0  0  0  0  0  0  0
   -4.6789   -1.1490   -0.0000 C   0  0  0  0  0  0  0  0  0  0  0  0
   -4.6907    4.5604   -0.0000 C   0  0  0  0  0  0  0  0  0  0  0  0
    2.6060    3.3285   -0.0000 C   0  0  0  0  0  0  0  0  0  0  0  0
    1.3267    5.5673   -0.0000 C   0  0  0  0  0  0  0  0  0  0  0  0
   -5.6028    3.3759   -0.0000 C   0  0  0  0  0  0  0  0  0  0  0  0
   -5.2001   -2.5467   -0.0000 N   0  0  0  0  0  0  0  0  0  0  0  0
    2.6060    4.8329   -0.0000 N   0  0  0  0  0  0  0  0  0  0  0  0
   -6.6926   -2.7955   -0.0000 C   0  0  0  0  0  0  0  0  0  0  0  0
   -4.2406   -3.6720   -0.0000 C   0  0  0  0  0  0  0  0  0  0  0  0
    3.8971    5.5910   -0.0000 C   0  0  0  0  0  0  0  0  0  0  0  0
   -7.2138   -4.1932   -0.0000 C   0  0  0  0  0  0  0  0  0  0  0  0
   -4.7618   -5.0816   -0.0000 C   0  0  0  0  0  0  0  0  0  0  0  0
    3.8852    7.1072   -0.0000 O   0  0  0  0  0  0  0  0  0  0  0  0
    5.1882    4.8447   -0.0000 C   0  0  0  0  0  0  0  0  0  0  0  0
   -6.2543   -5.3304   -0.0000 O   0  0  0  0  0  0  0  0  0  0  0  0
    5.1645    3.3522   -0.0000 C   0  0  0  0  0  0  0  0  0  0  0  0
    6.4794    5.6147   -0.0000 C   0  0  0  0  0  0  0  0  0  0  0  0
    6.4438    2.6060   -0.0000 C   0  0  0  0  0  0  0  0  0  0  0  0
    7.7705    4.8684   -0.0000 C   0  0  0  0  0  0  0  0  0  0  0  0
    7.7350    3.3641   -0.0000 N   0  0  0  0  0  0  0  0  0  0  0  0
    9.0142    2.6178   -0.0000 C   0  0  0  0  0  0  0  0  0  0  0  0
   10.3054    3.3759   -0.0000 C   0  0  0  0  0  0  0  0  0  0  0  0
   11.5847    2.6178   -0.0000 C   0  0  0  0  0  0  0  0  0  0  0  0
   10.2935    4.8802   -0.0000 C   0  0  0  0  0  0  0  0  0  0  0  0
   12.8758    3.3759   -0.0000 C   0  0  0  0  0  0  0  0  0  0  0  0
   11.5847    5.6383   -0.0000 C   0  0  0  0  0  0  0  0  0  0  0  0
   12.8758    4.8921   -0.0000 N   0  0  0  0  0  0  0  0  0  0  0  0
   14.1551    2.6296   -0.0000 N   0  0  0  0  0  0  0  0  0  0  0  0
  1  2  2  0  0  0  0
  2  3  1  0  0  0  0
  2  4  1  0  0  0  0
  3  5  1  0  0  0  0
  3  6  1  0  0  0  0
  4  7  1  0  0  0  0
  4  8  1  0  0  0  0
  5  9  1  0  0  0  0
  6 10  1  0  0  0  0
  6 11  1  0  0  0  0
  7 12  1  0  0  0  0
  8 13  1  0  0  0  0
  9 14  2  0  0  0  0
 10 15  1  0  0  0  0
 11 16  1  0  0  0  0
 12 17  2  0  0  0  0
 13 18  1  0  0  0  0
 15 19  1  0  0  0  0
 18 20  1  0  0  0  0
 18 21  1  0  0  0  0
 19 22  1  0  0  0  0
 20 23  1  0  0  0  0
 21 24  1  0  0  0  0
 22 25  2  0  0  0  0
 22 26  1  0  0  0  0
 23 27  1  0  0  0  0
 26 28  1  0  0  0  0
 26 29  1  0  0  0  0
 28 30  1  0  0  0  0
 29 31  1  0  0  0  0
 30 32  1  0  0  0  0
 32 33  1  0  0  0  0
 33 34  1  0  0  0  0
 34 35  2  0  0  0  0
 34 36  1  0  0  0  0
 35 37  1  0  0  0  0
 36 38  2  0  0  0  0
 37 39  2  0  0  0  0
 37 40  1  0  0  0  0
  5  7  2  0  0  0  0
 14 17  1  0  0  0  0
 16 19  1  0  0  0  0
 24 27  1  0  0  0  0
 31 32  1  0  0  0  0
 38 39  1  0  0  0  0
M  END
>  <MolRegNo>
1586580

>  <m>
=

>  <Value>
30000

>  <Unit>
nM

>  <Type>
IC50

>  <pValue>
4.52

>  <Ligand Efficiency>
0

>  <Binding Efficiency>
0

>  <Surface Efficiency>
0

>  <Assay Index>
800918

>  <Assay Category>


>  <Assay Organism>
Homo sapiens

>  <Target ID>
17045

>  <Target Name>
Cytochrome P450 3A4

>  <Target Organism>
Homo sapiens

>  <Target Description>
Target is a single protein chain

>  <Sequence Accession>
P08684

>  <Reference>
Bioorg Med Chem Lett 23 (21), 6001-6003 (2013)

>  <Pubmed ID>
24050887

>  <DOI>
10.1016/j.bmcl.2013.08.012

$$$$
1585367
Actelion Java MolfileCreator 1.0

 38 40  0  0  0  0  0  0  0  0999 V2000
    0.0000   -0.0000   -0.0000 Cl  0  0  0  0  0  0  0  0  0  0  0  0
   -8.8262    2.3726   -0.0000 S   0  0  0  0  0  0  0  0  0  0  0  0
   -7.3908    2.0049   -0.0000 O   0  0  0  0  0  0  0  0  0  0  0  0
   -8.1025    3.7013   -0.0000 O   0  0  0  0  0  0  0  0  0  0  0  0
   -8.7906    0.8779   -0.0000 C   0  0  0  0  0  0  0  0  0  0  0  0
  -10.1667    3.0963   -0.0000 C   0  0  0  0  0  0  0  0  0  0  0  0
   -7.4738    0.1779   -0.0000 C   0  0  0  0  0  0  0  0  0  0  0  0
   -6.2044    0.9846   -0.0000 O   0  0  0  0  0  0  0  0  0  0  0  0
   -7.4382   -1.3168   -0.0000 N   0  0  0  0  0  0  0  0  0  0  0  0
   -5.9909   -1.6727   -0.0000 C   0  0  0  0  0  0  0  0  0  0  0  0
   -8.6720   -2.2540   -0.0000 C   0  0  0  0  0  0  0  0  0  0  0  0
   -5.3977   -3.0488   -0.0000 C   0  0  0  0  0  0  0  0  0  0  0  0
   -5.1130   -0.4508   -0.0000 C   0  0  0  0  0  0  0  0  0  0  0  0
   -8.6720   -3.7132   -0.0000 C   0  0  0  0  0  0  0  0  0  0  0  0
  -10.0362   -1.5897   -0.0000 C   0  0  0  0  0  0  0  0  0  0  0  0
   -6.1451   -4.4131   -0.0000 N   0  0  0  0  0  0  0  0  0  0  0  0
   -3.9148   -3.2031   -0.0000 C   0  0  0  0  0  0  0  0  0  0  0  0
   -3.6301   -0.6050   -0.0000 C   0  0  0  0  0  0  0  0  0  0  0  0
   -9.9888   -4.4606   -0.0000 N   0  0  0  0  0  0  0  0  0  0  0  0
   -7.5687   -4.6622   -0.0000 C   0  0  0  0  0  0  0  0  0  0  0  0
   -5.7536   -5.8485   -0.0000 C   0  0  0  0  0  0  0  0  0  0  0  0
   -3.0251   -1.9811   -0.0000 C   0  0  0  0  0  0  0  0  0  0  0  0
  -11.3056   -3.7013   -0.0000 C   0  0  0  0  0  0  0  0  0  0  0  0
   -7.9721   -6.1095   -0.0000 O   0  0  0  0  0  0  0  0  0  0  0  0
   -4.3063   -6.2163   -0.0000 C   0  0  0  0  0  0  0  0  0  0  0  0
  -11.3293   -2.1828   -0.0000 O   0  0  0  0  0  0  0  0  0  0  0  0
  -12.6106   -4.4487   -0.0000 C   0  0  0  0  0  0  0  0  0  0  0  0
   -3.1556   -5.2317   -0.0000 N   0  0  0  0  0  0  0  0  0  0  0  0
   -3.7606   -7.5924   -0.0000 C   0  0  0  0  0  0  0  0  0  0  0  0
  -13.9274   -3.6894   -0.0000 N   0  0  0  0  0  0  0  0  0  0  0  0
  -12.6106   -5.9434   -0.0000 C   0  0  0  0  0  0  0  0  0  0  0  0
   -1.8981   -6.0265   -0.0000 O   0  0  0  0  0  0  0  0  0  0  0  0
   -2.2659   -7.4975   -0.0000 C   0  0  0  0  0  0  0  0  0  0  0  0
   -4.4487   -8.9211   -0.0000 C   0  0  0  0  0  0  0  0  0  0  0  0
  -15.2323   -4.4368   -0.0000 C   0  0  0  0  0  0  0  0  0  0  0  0
   -1.4473   -8.7313   -0.0000 C   0  0  0  0  0  0  0  0  0  0  0  0
   -3.6301  -10.1667   -0.0000 C   0  0  0  0  0  0  0  0  0  0  0  0
   -2.1235  -10.0600   -0.0000 C   0  0  0  0  0  0  0  0  0  0  0  0
  2  3  2  0  0  0  0
  2  4  2  0  0  0  0
  2  5  1  0  0  0  0
  2  6  1  0  0  0  0
  5  7  1  0  0  0  0
  7  8  2  0  0  0  0
  7  9  1  0  0  0  0
  9 10  1  0  0  0  0
  9 11  1  0  0  0  0
 10 12  2  0  0  0  0
 10 13  1  0  0  0  0
 11 14  1  0  0  0  0
 11 15  1  6  0  0  0
 12 16  1  0  0  0  0
 12 17  1  0  0  0  0
 13 18  2  0  0  0  0
 14 19  1  1  0  0  0
 14 20  1  0  0  0  0
 16 21  1  0  0  0  0
 17 22  2  0  0  0  0
 19 23  1  0  0  0  0
 20 24  2  0  0  0  0
 21 25  1  0  0  0  0
 23 26  2  0  0  0  0
 23 27  1  0  0  0  0
 25 28  2  0  0  0  0
 25 29  1  0  0  0  0
 27 30  1  6  0  0  0
 27 31  1  0  0  0  0
 28 32  1  0  0  0  0
 29 33  2  0  0  0  0
 29 34  1  0  0  0  0
 30 35  1  0  0  0  0
 33 36  1  0  0  0  0
 34 37  2  0  0  0  0
 36 38  2  0  0  0  0
 16 20  1  0  0  0  0
 18 22  1  0  0  0  0
 32 33  1  0  0  0  0
 37 38  1  0  0  0  0
M  END
>  <MolRegNo>
1585367

>  <m>
=

>  <Value>
38000

>  <Unit>
nM

>  <Type>
IC50

>  <pValue>
4.42

>  <Ligand Efficiency>
0

>  <Binding Efficiency>
0

>  <Surface Efficiency>
0

>  <Assay Index>
802910

>  <Assay Category>


>  <Assay Organism>
Homo sapiens

>  <Target ID>
17045

>  <Target Name>
Cytochrome P450 3A4

>  <Target Organism>
Homo sapiens

>  <Target Description>
Target is a single protein chain

>  <Sequence Accession>
P08684

>  <Reference>
J Med Chem 56 (20), 7788-7803 (2013)

>  <Pubmed ID>
24093940

>  <DOI>
10.1021/jm400732v

$$$$
1585472
Actelion Java MolfileCreator 1.0

 33 34  0  0  0  0  0  0  0  0999 V2000
    0.0000   -0.0000   -0.0000 Cl  0  0  0  0  0  0  0  0  0  0  0  0
   -9.3533   -5.0073   -0.0000 O   0  0  0  0  0  0  0  0  0  0  0  0
   -8.9754   -3.5429   -0.0000 C   0  0  0  0  0  0  0  0  0  0  0  0
   -7.5819   -3.2713   -0.0000 N   0  0  0  0  0  0  0  0  0  0  0  0
  -10.0973   -2.5745   -0.0000 C   0  0  0  0  0  0  0  0  0  0  0  0
   -6.8615   -1.8896   -0.0000 C   0  0  0  0  0  0  0  0  0  0  0  0
   -7.1921   -4.7003   -0.0000 C   0  0  0  0  0  0  0  0  0  0  0  0
  -11.4082   -3.3185   -0.0000 N   0  0  0  0  0  0  0  0  0  0  0  0
  -10.1209   -1.0983   -0.0000 C   0  0  0  0  0  0  0  0  0  0  0  0
   -7.4756   -0.4960   -0.0000 C   0  0  0  0  0  0  0  0  0  0  0  0
   -5.3852   -2.0431   -0.0000 C   0  0  0  0  0  0  0  0  0  0  0  0
   -5.7513   -5.0664   -0.0000 C   0  0  0  0  0  0  0  0  0  0  0  0
  -12.7191   -2.5627   -0.0000 C   0  0  0  0  0  0  0  0  0  0  0  0
   -8.9164   -0.1417   -0.0000 N   0  0  0  0  0  0  0  0  0  0  0  0
   -6.6016    0.7204   -0.0000 C   0  0  0  0  0  0  0  0  0  0  0  0
   -4.4995   -0.8267   -0.0000 C   0  0  0  0  0  0  0  0  0  0  0  0
   -4.7239   -3.9799   -0.0000 C   0  0  0  0  0  0  0  0  0  0  0  0
   -5.3616   -6.4954   -0.0000 C   0  0  0  0  0  0  0  0  0  0  0  0
  -12.7427   -1.0511   -0.0000 O   0  0  0  0  0  0  0  0  0  0  0  0
  -14.0182   -3.3067   -0.0000 C   0  0  0  0  0  0  0  0  0  0  0  0
   -9.2352    1.3345   -0.0000 C   0  0  0  0  0  0  0  0  0  0  0  0
   -5.1254    0.5669   -0.0000 C   0  0  0  0  0  0  0  0  0  0  0  0
   -3.2831   -4.3342   -0.0000 C   0  0  0  0  0  0  0  0  0  0  0  0
   -3.9326   -6.8615   -0.0000 C   0  0  0  0  0  0  0  0  0  0  0  0
  -15.3290   -2.5509   -0.0000 N   0  0  0  0  0  0  0  0  0  0  0  0
  -14.0182   -4.7948   -0.0000 C   0  0  0  0  0  0  0  0  0  0  0  0
   -8.1251    2.3501   -0.0000 O   0  0  0  0  0  0  0  0  0  0  0  0
  -10.6760    1.8187   -0.0000 C   0  0  0  0  0  0  0  0  0  0  0  0
   -2.8816   -5.7750   -0.0000 C   0  0  0  0  0  0  0  0  0  0  0  0
  -16.6281   -3.2949   -0.0000 C   0  0  0  0  0  0  0  0  0  0  0  0
  -10.9949    3.2949   -0.0000 C   0  0  0  0  0  0  0  0  0  0  0  0
  -12.4357    3.7791   -0.0000 C   0  0  0  0  0  0  0  0  0  0  0  0
   -9.8848    4.3106   -0.0000 C   0  0  0  0  0  0  0  0  0  0  0  0
  2  3  2  0  0  0  0
  3  4  1  0  0  0  0
  3  5  1  0  0  0  0
  4  6  1  0  0  0  0
  4  7  1  0  0  0  0
  5  8  1  1  0  0  0
  5  9  1  0  0  0  0
  6 10  2  0  0  0  0
  6 11  1  0  0  0  0
  7 12  1  0  0  0  0
  8 13  1  0  0  0  0
  9 14  1  0  0  0  0
 10 15  1  0  0  0  0
 11 16  2  0  0  0  0
 12 17  2  0  0  0  0
 12 18  1  0  0  0  0
 13 19  2  0  0  0  0
 13 20  1  0  0  0  0
 14 21  1  0  0  0  0
 15 22  2  0  0  0  0
 17 23  1  0  0  0  0
 18 24  2  0  0  0  0
 20 25  1  6  0  0  0
 20 26  1  0  0  0  0
 21 27  2  0  0  0  0
 21 28  1  0  0  0  0
 23 29  2  0  0  0  0
 25 30  1  0  0  0  0
 28 31  1  0  0  0  0
 31 32  1  0  0  0  0
 31 33  1  0  0  0  0
 10 14  1  0  0  0  0
 16 22  1  0  0  0  0
 24 29  1  0  0  0  0
M  END
>  <MolRegNo>
1585472

>  <m>
=

>  <Value>
15000

>  <Unit>
nM

>  <Type>
IC50

>  <pValue>
4.82

>  <Ligand Efficiency>
0

>  <Binding Efficiency>
0

>  <Surface Efficiency>
0

>  <Assay Index>
802910

>  <Assay Category>


>  <Assay Organism>
Homo sapiens

>  <Target ID>
17045

>  <Target Name>
Cytochrome P450 3A4

>  <Target Organism>
Homo sapiens

>  <Target Description>
Target is a single protein chain

>  <Sequence Accession>
P08684

>  <Reference>
J Med Chem 56 (20), 7788-7803 (2013)

>  <Pubmed ID>
24093940

>  <DOI>
10.1021/jm400732v

$$$$
1585355
Actelion Java MolfileCreator 1.0

 42 45  0  0  0  0  0  0  0  0999 V2000
    0.0000   -0.0000   -0.0000 Cl  0  0  0  0  0  0  0  0  0  0  0  0
   -7.4678   -6.2389   -0.0000 O   0  0  0  0  0  0  0  0  0  0  0  0
   -7.0897   -4.7737   -0.0000 C   0  0  0  0  0  0  0  0  0  0  0  0
   -5.6954   -4.5020   -0.0000 N   0  0  0  0  0  0  0  0  0  0  0  0
   -8.2122   -3.8048   -0.0000 C   0  0  0  0  0  0  0  0  0  0  0  0
   -4.9746   -3.1195   -0.0000 C   0  0  0  0  0  0  0  0  0  0  0  0
   -5.3055   -5.9317   -0.0000 C   0  0  0  0  0  0  0  0  0  0  0  0
   -9.5238   -4.5492   -0.0000 N   0  0  0  0  0  0  0  0  0  0  0  0
   -8.2359   -2.3278   -0.0000 C   0  0  0  0  0  0  0  0  0  0  0  0
   -5.5891   -1.7252   -0.0000 C   0  0  0  0  0  0  0  0  0  0  0  0
   -3.4976   -3.2731   -0.0000 C   0  0  0  0  0  0  0  0  0  0  0  0
   -3.8639   -6.2980   -0.0000 C   0  0  0  0  0  0  0  0  0  0  0  0
  -10.8354   -3.7930   -0.0000 C   0  0  0  0  0  0  0  0  0  0  0  0
   -7.0306   -1.3707   -0.0000 N   0  0  0  0  0  0  0  0  0  0  0  0
   -4.7147   -0.5081   -0.0000 C   0  0  0  0  0  0  0  0  0  0  0  0
   -2.6114   -2.0560   -0.0000 C   0  0  0  0  0  0  0  0  0  0  0  0
   -2.8359   -5.2109   -0.0000 C   0  0  0  0  0  0  0  0  0  0  0  0
   -3.4740   -7.7278   -0.0000 C   0  0  0  0  0  0  0  0  0  0  0  0
  -10.8591   -2.2805   -0.0000 O   0  0  0  0  0  0  0  0  0  0  0  0
  -12.1352   -4.5374   -0.0000 C   0  0  0  0  0  0  0  0  0  0  0  0
   -7.3497    0.1063   -0.0000 C   0  0  0  0  0  0  0  0  0  0  0  0
   -3.2376   -0.6617   -0.0000 C   0  0  0  0  0  0  0  0  0  0  0  0
   -3.2613   -3.7575   -0.0000 O   0  0  0  0  0  0  0  0  0  0  0  0
   -1.3943   -5.5654   -0.0000 C   0  0  0  0  0  0  0  0  0  0  0  0
   -2.0442   -8.0941   -0.0000 C   0  0  0  0  0  0  0  0  0  0  0  0
   -4.5374   -8.7794   -0.0000 C   0  0  0  0  0  0  0  0  0  0  0  0
  -13.4468   -3.7812   -0.0000 N   0  0  0  0  0  0  0  0  0  0  0  0
  -12.1352   -6.0263   -0.0000 C   0  0  0  0  0  0  0  0  0  0  0  0
   -6.2389    1.1225   -0.0000 O   0  0  0  0  0  0  0  0  0  0  0  0
   -8.7912    0.5908   -0.0000 C   0  0  0  0  0  0  0  0  0  0  0  0
   -2.2214   -2.6705   -0.0000 C   0  0  0  0  0  0  0  0  0  0  0  0
   -0.9926   -7.0070   -0.0000 C   0  0  0  0  0  0  0  0  0  0  0  0
   -1.6661   -9.5120   -0.0000 C   0  0  0  0  0  0  0  0  0  0  0  0
   -4.1593  -10.2092   -0.0000 C   0  0  0  0  0  0  0  0  0  0  0  0
  -14.7466   -4.5256   -0.0000 C   0  0  0  0  0  0  0  0  0  0  0  0
   -9.0985    2.0678   -0.0000 C   0  0  0  0  0  0  0  0  0  0  0  0
   -9.9020   -0.4018   -0.0000 C   0  0  0  0  0  0  0  0  0  0  0  0
   -2.7177  -10.5637   -0.0000 C   0  0  0  0  0  0  0  0  0  0  0  0
  -10.5400    2.5523   -0.0000 C   0  0  0  0  0  0  0  0  0  0  0  0
  -11.3317    0.0709   -0.0000 C   0  0  0  0  0  0  0  0  0  0  0  0
  -11.6744    1.5597   -0.0000 C   0  0  0  0  0  0  0  0  0  0  0  0
  -13.1160    2.0324   -0.0000 N   0  0  0  0  0  0  0  0  0  0  0  0
  2  3  2  0  0  0  0
  3  4  1  0  0  0  0
  3  5  1  0  0  0  0
  4  6  1  0  0  0  0
  4  7  1  0  0  0  0
  5  8  1  1  0  0  0
  5  9  1  0  0  0  0
  6 10  2  0  0  0  0
  6 11  1  0  0  0  0
  7 12  1  0  0  0  0
  8 13  1  0  0  0  0
  9 14  1  0  0  0  0
 10 15  1  0  0  0  0
 11 16  2  0  0  0  0
 12 17  2  0  0  0  0
 12 18  1  0  0  0  0
 13 19  2  0  0  0  0
 13 20  1  0  0  0  0
 14 21  1  0  0  0  0
 15 22  2  0  0  0  0
 17 23  1  0  0  0  0
 17 24  1  0  0  0  0
 18 25  1  0  0  0  0
 18 26  2  0  0  0  0
 20 27  1  6  0  0  0
 20 28  1  0  0  0  0
 21 29  2  0  0  0  0
 21 30  1  0  0  0  0
 23 31  1  0  0  0  0
 24 32  2  0  0  0  0
 25 33  2  0  0  0  0
 26 34  1  0  0  0  0
 27 35  1  0  0  0  0
 30 36  2  0  0  0  0
 30 37  1  0  0  0  0
 33 38  1  0  0  0  0
 36 39  1  0  0  0  0
 37 40  2  0  0  0  0
 39 41  2  0  0  0  0
 41 42  1  0  0  0  0
 10 14  1  0  0  0  0
 16 22  1  0  0  0  0
 25 32  1  0  0  0  0
 34 38  2  0  0  0  0
 40 41  1  0  0  0  0
M  END
>  <MolRegNo>
1585355

>  <m>
=

>  <Value>
10200

>  <Unit>
nM

>  <Type>
IC50

>  <pValue>
4.99

>  <Ligand Efficiency>
0

>  <Binding Efficiency>
0

>  <Surface Efficiency>
0

>  <Assay Index>
802910

>  <Assay Category>


>  <Assay Organism>
Homo sapiens

>  <Target ID>
17045

>  <Target Name>
Cytochrome P450 3A4

>  <Target Organism>
Homo sapiens

>  <Target Description>
Target is a single protein chain

>  <Sequence Accession>
P08684

>  <Reference>
J Med Chem 56 (20), 7788-7803 (2013)

>  <Pubmed ID>
24093940

>  <DOI>
10.1021/jm400732v

$$$$
1585362
Actelion Java MolfileCreator 1.0

 41 43  0  0  0  0  0  0  0  0999 V2000
    0.0000   -0.0000   -0.0000 Br  0  0  0  0  0  0  0  0  0  0  0  0
   -0.4126    1.4499   -0.0000 C   0  0  0  0  0  0  0  0  0  0  0  0
    0.6130    2.5227   -0.0000 C   0  0  0  0  0  0  0  0  0  0  0  0
   -1.8743    1.8390   -0.0000 C   0  0  0  0  0  0  0  0  0  0  0  0
    0.2004    3.9608   -0.0000 C   0  0  0  0  0  0  0  0  0  0  0  0
   -2.2751    3.2889   -0.0000 C   0  0  0  0  0  0  0  0  0  0  0  0
   -1.2495    4.3498   -0.0000 C   0  0  0  0  0  0  0  0  0  0  0  0
    1.2378    5.0453   -0.0000 C   0  0  0  0  0  0  0  0  0  0  0  0
   -1.6621    5.7998   -0.0000 C   0  0  0  0  0  0  0  0  0  0  0  0
    0.8134    6.5071   -0.0000 C   0  0  0  0  0  0  0  0  0  0  0  0
   -0.6366    6.8843   -0.0000 C   0  0  0  0  0  0  0  0  0  0  0  0
   -3.1239    6.1888   -0.0000 C   0  0  0  0  0  0  0  0  0  0  0  0
   -1.0609    8.3343   -0.0000 O   0  0  0  0  0  0  0  0  0  0  0  0
   -3.5365    7.6387   -0.0000 N   0  0  0  0  0  0  0  0  0  0  0  0
   -0.0354    9.4188   -0.0000 C   0  0  0  0  0  0  0  0  0  0  0  0
   -4.9510    7.3912   -0.0000 C   0  0  0  0  0  0  0  0  0  0  0  0
   -2.8174    9.0180   -0.0000 C   0  0  0  0  0  0  0  0  0  0  0  0
   -5.3518    5.9530   -0.0000 O   0  0  0  0  0  0  0  0  0  0  0  0
   -6.0709    8.3578   -0.0000 C   0  0  0  0  0  0  0  0  0  0  0  0
   -3.4304   10.4090   -0.0000 C   0  0  0  0  0  0  0  0  0  0  0  0
   -1.3439    8.8647   -0.0000 C   0  0  0  0  0  0  0  0  0  0  0  0
   -7.3676    7.6152   -0.0000 N   0  0  0  0  0  0  0  0  0  0  0  0
   -6.0945    9.8314   -0.0000 C   0  0  0  0  0  0  0  0  0  0  0  0
   -4.8921   10.7862   -0.0000 N   0  0  0  0  0  0  0  0  0  0  0  0
   -2.5580   11.6232   -0.0000 C   0  0  0  0  0  0  0  0  0  0  0  0
   -0.4597   10.0789   -0.0000 C   0  0  0  0  0  0  0  0  0  0  0  0
   -8.6761    8.3696   -0.0000 C   0  0  0  0  0  0  0  0  0  0  0  0
   -4.9510   12.2951   -0.0000 C   0  0  0  0  0  0  0  0  0  0  0  0
   -1.0845   11.4699   -0.0000 C   0  0  0  0  0  0  0  0  0  0  0  0
   -8.6997    9.8785   -0.0000 O   0  0  0  0  0  0  0  0  0  0  0  0
   -9.9728    7.6270   -0.0000 C   0  0  0  0  0  0  0  0  0  0  0  0
   -3.6897   13.0967   -0.0000 O   0  0  0  0  0  0  0  0  0  0  0  0
   -6.2831   13.0142   -0.0000 C   0  0  0  0  0  0  0  0  0  0  0  0
  -11.2813    8.3814   -0.0000 N   0  0  0  0  0  0  0  0  0  0  0  0
   -9.9728    6.1416   -0.0000 C   0  0  0  0  0  0  0  0  0  0  0  0
   -7.5680   12.2361   -0.0000 S   0  0  0  0  0  0  0  0  0  0  0  0
  -12.5780    7.6387   -0.0000 C   0  0  0  0  0  0  0  0  0  0  0  0
   -8.3343   10.9630   -0.0000 O   0  0  0  0  0  0  0  0  0  0  0  0
   -6.8372   10.9630   -0.0000 O   0  0  0  0  0  0  0  0  0  0  0  0
   -8.9001   12.9552   -0.0000 C   0  0  0  0  0  0  0  0  0  0  0  0
    3.3950   10.1850   -0.0000 Cl  0  0  0  0  0  0  0  0  0  0  0  0
  1  2  1  0  0  0  0
  2  3  2  0  0  0  0
  2  4  1  0  0  0  0
  3  5  1  0  0  0  0
  4  6  2  0  0  0  0
  5  7  1  0  0  0  0
  5  8  2  0  0  0  0
  7  9  2  0  0  0  0
  8 10  1  0  0  0  0
  9 11  1  0  0  0  0
  9 12  1  0  0  0  0
 11 13  1  0  0  0  0
 12 14  1  0  0  0  0
 13 15  1  0  0  0  0
 14 16  1  0  0  0  0
 14 17  1  0  0  0  0
 16 18  2  0  0  0  0
 16 19  1  0  0  0  0
 17 20  2  0  0  0  0
 17 21  1  0  0  0  0
 19 22  1  1  0  0  0
 19 23  1  0  0  0  0
 20 24  1  0  0  0  0
 20 25  1  0  0  0  0
 21 26  2  0  0  0  0
 22 27  1  0  0  0  0
 24 28  1  0  0  0  0
 25 29  2  0  0  0  0
 27 30  2  0  0  0  0
 27 31  1  0  0  0  0
 28 32  2  0  0  0  0
 28 33  1  0  0  0  0
 31 34  1  6  0  0  0
 31 35  1  0  0  0  0
 33 36  1  0  0  0  0
 34 37  1  0  0  0  0
 36 38  2  0  0  0  0
 36 39  2  0  0  0  0
 36 40  1  0  0  0  0
  6  7  1  0  0  0  0
 10 11  2  0  0  0  0
 23 24  1  0  0  0  0
 26 29  1  0  0  0  0
M  END
>  <MolRegNo>
1585362

>  <m>
=

>  <Value>
10000

>  <Unit>
nM

>  <Type>
IC50

>  <pValue>
5

>  <Ligand Efficiency>
0

>  <Binding Efficiency>
0

>  <Surface Efficiency>
0

>  <Assay Index>
802910

>  <Assay Category>


>  <Assay Organism>
Homo sapiens

>  <Target ID>
17045

>  <Target Name>
Cytochrome P450 3A4

>  <Target Organism>
Homo sapiens

>  <Target Description>
Target is a single protein chain

>  <Sequence Accession>
P08684

>  <Reference>
J Med Chem 56 (20), 7788-7803 (2013)

>  <Pubmed ID>
24093940

>  <DOI>
10.1021/jm400732v

$$$$
1585365
Actelion Java MolfileCreator 1.0

 41 43  0  0  0  0  0  0  0  0999 V2000
    0.0000   -0.0000   -0.0000 Cl  0  0  0  0  0  0  0  0  0  0  0  0
   -8.7315    2.7523   -0.0000 S   0  0  0  0  0  0  0  0  0  0  0  0
   -7.2960    2.3846   -0.0000 O   0  0  0  0  0  0  0  0  0  0  0  0
   -8.0078    4.0810   -0.0000 O   0  0  0  0  0  0  0  0  0  0  0  0
   -8.6959    1.2575   -0.0000 C   0  0  0  0  0  0  0  0  0  0  0  0
  -10.0721    3.4760   -0.0000 C   0  0  0  0  0  0  0  0  0  0  0  0
   -7.3791    0.5576   -0.0000 C   0  0  0  0  0  0  0  0  0  0  0  0
   -6.1097    1.3643   -0.0000 O   0  0  0  0  0  0  0  0  0  0  0  0
   -7.3435   -0.9372   -0.0000 N   0  0  0  0  0  0  0  0  0  0  0  0
   -5.8961   -1.2931   -0.0000 C   0  0  0  0  0  0  0  0  0  0  0  0
   -8.5773   -1.8744   -0.0000 C   0  0  0  0  0  0  0  0  0  0  0  0
   -5.3030   -2.6693   -0.0000 C   0  0  0  0  0  0  0  0  0  0  0  0
   -5.0182   -0.0712   -0.0000 C   0  0  0  0  0  0  0  0  0  0  0  0
   -8.5773   -3.3336   -0.0000 C   0  0  0  0  0  0  0  0  0  0  0  0
   -9.9416   -1.2101   -0.0000 C   0  0  0  0  0  0  0  0  0  0  0  0
   -6.0504   -4.0336   -0.0000 N   0  0  0  0  0  0  0  0  0  0  0  0
   -3.8200   -2.8235   -0.0000 C   0  0  0  0  0  0  0  0  0  0  0  0
   -3.5353   -0.2254   -0.0000 C   0  0  0  0  0  0  0  0  0  0  0  0
   -9.8941   -4.0810   -0.0000 N   0  0  0  0  0  0  0  0  0  0  0  0
   -7.4740   -4.2827   -0.0000 C   0  0  0  0  0  0  0  0  0  0  0  0
   -5.6589   -5.4691   -0.0000 C   0  0  0  0  0  0  0  0  0  0  0  0
   -2.9303   -1.6016   -0.0000 C   0  0  0  0  0  0  0  0  0  0  0  0
  -11.2110   -3.3218   -0.0000 C   0  0  0  0  0  0  0  0  0  0  0  0
   -7.8773   -5.7301   -0.0000 O   0  0  0  0  0  0  0  0  0  0  0  0
   -4.2115   -5.8368   -0.0000 C   0  0  0  0  0  0  0  0  0  0  0  0
  -11.2347   -1.8032   -0.0000 O   0  0  0  0  0  0  0  0  0  0  0  0
  -12.5160   -4.0692   -0.0000 C   0  0  0  0  0  0  0  0  0  0  0  0
   -3.1794   -4.7454   -0.0000 C   0  0  0  0  0  0  0  0  0  0  0  0
   -3.8200   -7.2723   -0.0000 C   0  0  0  0  0  0  0  0  0  0  0  0
  -13.8328   -3.3099   -0.0000 N   0  0  0  0  0  0  0  0  0  0  0  0
  -12.5160   -5.5640   -0.0000 C   0  0  0  0  0  0  0  0  0  0  0  0
   -3.6065   -3.2862   -0.0000 O   0  0  0  0  0  0  0  0  0  0  0  0
   -1.7321   -5.1013   -0.0000 C   0  0  0  0  0  0  0  0  0  0  0  0
   -2.3846   -7.6401   -0.0000 C   0  0  0  0  0  0  0  0  0  0  0  0
   -4.8877   -8.3282   -0.0000 C   0  0  0  0  0  0  0  0  0  0  0  0
  -15.1378   -4.0573   -0.0000 C   0  0  0  0  0  0  0  0  0  0  0  0
   -2.5744   -2.1947   -0.0000 C   0  0  0  0  0  0  0  0  0  0  0  0
   -1.3287   -6.5486   -0.0000 C   0  0  0  0  0  0  0  0  0  0  0  0
   -1.9931   -9.0637   -0.0000 C   0  0  0  0  0  0  0  0  0  0  0  0
   -4.5081   -9.7636   -0.0000 C   0  0  0  0  0  0  0  0  0  0  0  0
   -3.0489  -10.1195   -0.0000 C   0  0  0  0  0  0  0  0  0  0  0  0
  2  3  2  0  0  0  0
  2  4  2  0  0  0  0
  2  5  1  0  0  0  0
  2  6  1  0  0  0  0
  5  7  1  0  0  0  0
  7  8  2  0  0  0  0
  7  9  1  0  0  0  0
  9 10  1  0  0  0  0
  9 11  1  0  0  0  0
 10 12  2  0  0  0  0
 10 13  1  0  0  0  0
 11 14  1  0  0  0  0
 11 15  1  6  0  0  0
 12 16  1  0  0  0  0
 12 17  1  0  0  0  0
 13 18  2  0  0  0  0
 14 19  1  1  0  0  0
 14 20  1  0  0  0  0
 16 21  1  0  0  0  0
 17 22  2  0  0  0  0
 19 23  1  0  0  0  0
 20 24  2  0  0  0  0
 21 25  1  0  0  0  0
 23 26  2  0  0  0  0
 23 27  1  0  0  0  0
 25 28  2  0  0  0  0
 25 29  1  0  0  0  0
 27 30  1  6  0  0  0
 27 31  1  0  0  0  0
 28 32  1  0  0  0  0
 28 33  1  0  0  0  0
 29 34  1  0  0  0  0
 29 35  2  0  0  0  0
 30 36  1  0  0  0  0
 32 37  1  0  0  0  0
 33 38  2  0  0  0  0
 34 39  2  0  0  0  0
 35 40  1  0  0  0  0
 39 41  1  0  0  0  0
 16 20  1  0  0  0  0
 18 22  1  0  0  0  0
 34 38  1  0  0  0  0
 40 41  2  0  0  0  0
M  END
>  <MolRegNo>
1585365

>  <m>
=

>  <Value>
9700

>  <Unit>
nM

>  <Type>
IC50

>  <pValue>
5.01

>  <Ligand Efficiency>
0

>  <Binding Efficiency>
0

>  <Surface Efficiency>
0

>  <Assay Index>
802910

>  <Assay Category>


>  <Assay Organism>
Homo sapiens

>  <Target ID>
17045

>  <Target Name>
Cytochrome P450 3A4

>  <Target Organism>
Homo sapiens

>  <Target Description>
Target is a single protein chain

>  <Sequence Accession>
P08684

>  <Reference>
J Med Chem 56 (20), 7788-7803 (2013)

>  <Pubmed ID>
24093940

>  <DOI>
10.1021/jm400732v

$$$$
1585363
Actelion Java MolfileCreator 1.0

 42 44  0  0  0  0  0  0  0  0999 V2000
    0.0000   -0.0000   -0.0000 Br  0  0  0  0  0  0  0  0  0  0  0  0
   -0.4123    1.4489   -0.0000 C   0  0  0  0  0  0  0  0  0  0  0  0
    0.6125    2.5208   -0.0000 C   0  0  0  0  0  0  0  0  0  0  0  0
   -1.8730    1.8376   -0.0000 C   0  0  0  0  0  0  0  0  0  0  0  0
    0.2003    3.9580   -0.0000 C   0  0  0  0  0  0  0  0  0  0  0  0
   -2.2735    3.2865   -0.0000 C   0  0  0  0  0  0  0  0  0  0  0  0
   -1.2486    4.3467   -0.0000 C   0  0  0  0  0  0  0  0  0  0  0  0
    1.2369    5.0417   -0.0000 C   0  0  0  0  0  0  0  0  0  0  0  0
   -1.6609    5.7956   -0.0000 C   0  0  0  0  0  0  0  0  0  0  0  0
    0.8128    6.5024   -0.0000 C   0  0  0  0  0  0  0  0  0  0  0  0
   -0.6361    6.8793   -0.0000 C   0  0  0  0  0  0  0  0  0  0  0  0
   -3.1216    6.1843   -0.0000 C   0  0  0  0  0  0  0  0  0  0  0  0
   -1.0602    8.3282   -0.0000 O   0  0  0  0  0  0  0  0  0  0  0  0
   -3.5339    7.6332   -0.0000 N   0  0  0  0  0  0  0  0  0  0  0  0
   -0.0353    9.4119   -0.0000 C   0  0  0  0  0  0  0  0  0  0  0  0
   -4.9474    7.3858   -0.0000 C   0  0  0  0  0  0  0  0  0  0  0  0
   -2.8153    9.0114   -0.0000 C   0  0  0  0  0  0  0  0  0  0  0  0
   -5.3480    5.9487   -0.0000 O   0  0  0  0  0  0  0  0  0  0  0  0
   -6.0665    8.3518   -0.0000 C   0  0  0  0  0  0  0  0  0  0  0  0
   -3.4279   10.4014   -0.0000 C   0  0  0  0  0  0  0  0  0  0  0  0
   -1.3429    8.8583   -0.0000 C   0  0  0  0  0  0  0  0  0  0  0  0
   -7.3741    7.6096   -0.0000 N   0  0  0  0  0  0  0  0  0  0  0  0
   -6.0901    9.8242   -0.0000 C   0  0  0  0  0  0  0  0  0  0  0  0
   -4.8886   10.7784   -0.0000 N   0  0  0  0  0  0  0  0  0  0  0  0
   -2.5562   11.6147   -0.0000 C   0  0  0  0  0  0  0  0  0  0  0  0
   -0.4594   10.0716   -0.0000 C   0  0  0  0  0  0  0  0  0  0  0  0
   -8.6816    8.3635   -0.0000 C   0  0  0  0  0  0  0  0  0  0  0  0
   -7.4447   10.4839   -0.0000 C   0  0  0  0  0  0  0  0  0  0  0  0
   -4.9474   12.2862   -0.0000 C   0  0  0  0  0  0  0  0  0  0  0  0
   -1.0837   11.4616   -0.0000 C   0  0  0  0  0  0  0  0  0  0  0  0
   -8.7052    9.8713   -0.0000 O   0  0  0  0  0  0  0  0  0  0  0  0
   -9.9774    7.6214   -0.0000 C   0  0  0  0  0  0  0  0  0  0  0  0
   -3.6870   13.0872   -0.0000 O   0  0  0  0  0  0  0  0  0  0  0  0
   -6.2785   13.0047   -0.0000 C   0  0  0  0  0  0  0  0  0  0  0  0
  -11.2849    8.3753   -0.0000 N   0  0  0  0  0  0  0  0  0  0  0  0
   -9.9774    6.1372   -0.0000 C   0  0  0  0  0  0  0  0  0  0  0  0
   -6.3374   14.5125   -0.0000 S   0  0  0  0  0  0  0  0  0  0  0  0
  -12.5807    7.6332   -0.0000 C   0  0  0  0  0  0  0  0  0  0  0  0
   -4.9121   14.1473   -0.0000 O   0  0  0  0  0  0  0  0  0  0  0  0
   -5.6189   15.8318   -0.0000 O   0  0  0  0  0  0  0  0  0  0  0  0
   -7.6685   15.2311   -0.0000 C   0  0  0  0  0  0  0  0  0  0  0  0
    3.0156   11.9681   -0.0000 Cl  0  0  0  0  0  0  0  0  0  0  0  0
  1  2  1  0  0  0  0
  2  3  2  0  0  0  0
  2  4  1  0  0  0  0
  3  5  1  0  0  0  0
  4  6  2  0  0  0  0
  5  7  1  0  0  0  0
  5  8  2  0  0  0  0
  7  9  2  0  0  0  0
  8 10  1  0  0  0  0
  9 11  1  0  0  0  0
  9 12  1  0  0  0  0
 11 13  1  0  0  0  0
 12 14  1  0  0  0  0
 13 15  1  0  0  0  0
 14 16  1  0  0  0  0
 14 17  1  0  0  0  0
 16 18  2  0  0  0  0
 16 19  1  0  0  0  0
 17 20  2  0  0  0  0
 17 21  1  0  0  0  0
 19 22  1  1  0  0  0
 19 23  1  0  0  0  0
 20 24  1  0  0  0  0
 20 25  1  0  0  0  0
 21 26  2  0  0  0  0
 22 27  1  0  0  0  0
 23 28  1  6  0  0  0
 24 29  1  0  0  0  0
 25 30  2  0  0  0  0
 27 31  2  0  0  0  0
 27 32  1  0  0  0  0
 29 33  2  0  0  0  0
 29 34  1  0  0  0  0
 32 35  1  6  0  0  0
 32 36  1  0  0  0  0
 34 37  1  0  0  0  0
 35 38  1  0  0  0  0
 37 39  2  0  0  0  0
 37 40  2  0  0  0  0
 37 41  1  0  0  0  0
  6  7  1  0  0  0  0
 10 11  2  0  0  0  0
 23 24  1  0  0  0  0
 26 30  1  0  0  0  0
M  END
>  <MolRegNo>
1585363

>  <m>
=

>  <Value>
4800

>  <Unit>
nM

>  <Type>
IC50

>  <pValue>
5.32

>  <Ligand Efficiency>
0

>  <Binding Efficiency>
0

>  <Surface Efficiency>
0

>  <Assay Index>
802910

>  <Assay Category>


>  <Assay Organism>
Homo sapiens

>  <Target ID>
17045

>  <Target Name>
Cytochrome P450 3A4

>  <Target Organism>
Homo sapiens

>  <Target Description>
Target is a single protein chain

>  <Sequence Accession>
P08684

>  <Reference>
J Med Chem 56 (20), 7788-7803 (2013)

>  <Pubmed ID>
24093940

>  <DOI>
10.1021/jm400732v

$$$$
1585473
Actelion Java MolfileCreator 1.0

 34 35  0  0  0  0  0  0  0  0999 V2000
    0.0000   -0.0000   -0.0000 Cl  0  0  0  0  0  0  0  0  0  0  0  0
   -8.1299   -5.8611   -0.0000 O   0  0  0  0  0  0  0  0  0  0  0  0
   -7.7518   -4.3958   -0.0000 C   0  0  0  0  0  0  0  0  0  0  0  0
   -6.3574   -4.1240   -0.0000 N   0  0  0  0  0  0  0  0  0  0  0  0
   -8.8744   -3.4269   -0.0000 C   0  0  0  0  0  0  0  0  0  0  0  0
   -5.6366   -2.7415   -0.0000 C   0  0  0  0  0  0  0  0  0  0  0  0
   -5.9674   -5.5539   -0.0000 C   0  0  0  0  0  0  0  0  0  0  0  0
  -10.1860   -4.1713   -0.0000 N   0  0  0  0  0  0  0  0  0  0  0  0
   -8.8980   -1.9498   -0.0000 C   0  0  0  0  0  0  0  0  0  0  0  0
   -6.2510   -1.3471   -0.0000 C   0  0  0  0  0  0  0  0  0  0  0  0
   -4.1595   -2.8951   -0.0000 C   0  0  0  0  0  0  0  0  0  0  0  0
   -4.5258   -5.9202   -0.0000 C   0  0  0  0  0  0  0  0  0  0  0  0
  -11.4977   -3.4150   -0.0000 C   0  0  0  0  0  0  0  0  0  0  0  0
   -7.6927   -0.9926   -0.0000 N   0  0  0  0  0  0  0  0  0  0  0  0
   -5.3766   -0.1300   -0.0000 C   0  0  0  0  0  0  0  0  0  0  0  0
   -3.2732   -1.6780   -0.0000 C   0  0  0  0  0  0  0  0  0  0  0  0
   -4.1359   -7.3500   -0.0000 C   0  0  0  0  0  0  0  0  0  0  0  0
  -11.5213   -1.9025   -0.0000 O   0  0  0  0  0  0  0  0  0  0  0  0
  -12.7975   -4.1595   -0.0000 C   0  0  0  0  0  0  0  0  0  0  0  0
   -8.0117    0.4845   -0.0000 C   0  0  0  0  0  0  0  0  0  0  0  0
   -3.8995   -0.2836   -0.0000 C   0  0  0  0  0  0  0  0  0  0  0  0
   -5.1994   -8.4017   -0.0000 C   0  0  0  0  0  0  0  0  0  0  0  0
   -2.6942   -7.7045   -0.0000 C   0  0  0  0  0  0  0  0  0  0  0  0
  -14.1092   -3.4032   -0.0000 N   0  0  0  0  0  0  0  0  0  0  0  0
  -12.7975   -5.6484   -0.0000 C   0  0  0  0  0  0  0  0  0  0  0  0
   -6.9010    1.5007   -0.0000 O   0  0  0  0  0  0  0  0  0  0  0  0
   -9.4534    0.9690   -0.0000 C   0  0  0  0  0  0  0  0  0  0  0  0
   -4.8094   -9.8315   -0.0000 C   0  0  0  0  0  0  0  0  0  0  0  0
   -2.3043   -9.1343   -0.0000 C   0  0  0  0  0  0  0  0  0  0  0  0
  -15.4090   -4.1477   -0.0000 C   0  0  0  0  0  0  0  0  0  0  0  0
   -9.7724    2.4461   -0.0000 C   0  0  0  0  0  0  0  0  0  0  0  0
   -3.3678  -10.1978   -0.0000 C   0  0  0  0  0  0  0  0  0  0  0  0
  -11.2141    2.9305   -0.0000 C   0  0  0  0  0  0  0  0  0  0  0  0
   -8.6617    3.4623   -0.0000 C   0  0  0  0  0  0  0  0  0  0  0  0
  2  3  2  0  0  0  0
  3  4  1  0  0  0  0
  3  5  1  0  0  0  0
  4  6  1  0  0  0  0
  4  7  1  0  0  0  0
  5  8  1  1  0  0  0
  5  9  1  0  0  0  0
  6 10  2  0  0  0  0
  6 11  1  0  0  0  0
  7 12  1  0  0  0  0
  8 13  1  0  0  0  0
  9 14  1  0  0  0  0
 10 15  1  0  0  0  0
 11 16  2  0  0  0  0
 12 17  1  0  0  0  0
 13 18  2  0  0  0  0
 13 19  1  0  0  0  0
 14 20  1  0  0  0  0
 15 21  2  0  0  0  0
 17 22  2  0  0  0  0
 17 23  1  0  0  0  0
 19 24  1  6  0  0  0
 19 25  1  0  0  0  0
 20 26  2  0  0  0  0
 20 27  1  0  0  0  0
 22 28  1  0  0  0  0
 23 29  2  0  0  0  0
 24 30  1  0  0  0  0
 27 31  1  0  0  0  0
 28 32  2  0  0  0  0
 31 33  1  0  0  0  0
 31 34  1  0  0  0  0
 10 14  1  0  0  0  0
 16 21  1  0  0  0  0
 29 32  1  0  0  0  0
M  END
>  <MolRegNo>
1585473

>  <m>
=

>  <Value>
3300

>  <Unit>
nM

>  <Type>
IC50

>  <pValue>
5.48

>  <Ligand Efficiency>
0

>  <Binding Efficiency>
0

>  <Surface Efficiency>
0

>  <Assay Index>
802910

>  <Assay Category>


>  <Assay Organism>
Homo sapiens

>  <Target ID>
17045

>  <Target Name>
Cytochrome P450 3A4

>  <Target Organism>
Homo sapiens

>  <Target Description>
Target is a single protein chain

>  <Sequence Accession>
P08684

>  <Reference>
J Med Chem 56 (20), 7788-7803 (2013)

>  <Pubmed ID>
24093940

>  <DOI>
10.1021/jm400732v

$$$$
1585361
Actelion Java MolfileCreator 1.0

 37 39  0  0  0  0  0  0  0  0999 V2000
    0.0000   -0.0000   -0.0000 Br  0  0  0  0  0  0  0  0  0  0  0  0
   -0.4124    1.4492   -0.0000 C   0  0  0  0  0  0  0  0  0  0  0  0
    0.6127    2.5214   -0.0000 C   0  0  0  0  0  0  0  0  0  0  0  0
   -1.8734    1.8380   -0.0000 C   0  0  0  0  0  0  0  0  0  0  0  0
    0.2003    3.9588   -0.0000 C   0  0  0  0  0  0  0  0  0  0  0  0
   -2.2739    3.2872   -0.0000 C   0  0  0  0  0  0  0  0  0  0  0  0
   -1.2489    4.3476   -0.0000 C   0  0  0  0  0  0  0  0  0  0  0  0
    1.2371    5.0427   -0.0000 C   0  0  0  0  0  0  0  0  0  0  0  0
   -1.6613    5.7968   -0.0000 C   0  0  0  0  0  0  0  0  0  0  0  0
    0.8130    6.5037   -0.0000 C   0  0  0  0  0  0  0  0  0  0  0  0
   -0.6362    6.8808   -0.0000 C   0  0  0  0  0  0  0  0  0  0  0  0
   -3.1223    6.1856   -0.0000 C   0  0  0  0  0  0  0  0  0  0  0  0
   -1.0604    8.3300   -0.0000 O   0  0  0  0  0  0  0  0  0  0  0  0
   -3.5346    7.6348   -0.0000 N   0  0  0  0  0  0  0  0  0  0  0  0
   -0.0353    9.4139   -0.0000 C   0  0  0  0  0  0  0  0  0  0  0  0
   -4.9485    7.3874   -0.0000 C   0  0  0  0  0  0  0  0  0  0  0  0
   -2.8159    9.0133   -0.0000 C   0  0  0  0  0  0  0  0  0  0  0  0
   -5.3491    5.9500   -0.0000 O   0  0  0  0  0  0  0  0  0  0  0  0
   -6.0678    8.3535   -0.0000 C   0  0  0  0  0  0  0  0  0  0  0  0
   -3.4286   10.4036   -0.0000 C   0  0  0  0  0  0  0  0  0  0  0  0
   -1.3432    8.8601   -0.0000 C   0  0  0  0  0  0  0  0  0  0  0  0
   -7.3638    7.6112   -0.0000 N   0  0  0  0  0  0  0  0  0  0  0  0
   -6.0913    9.8263   -0.0000 C   0  0  0  0  0  0  0  0  0  0  0  0
   -4.8896   10.7806   -0.0000 N   0  0  0  0  0  0  0  0  0  0  0  0
   -2.5567   11.6172   -0.0000 C   0  0  0  0  0  0  0  0  0  0  0  0
   -0.4595   10.0737   -0.0000 C   0  0  0  0  0  0  0  0  0  0  0  0
   -8.6716    8.3653   -0.0000 C   0  0  0  0  0  0  0  0  0  0  0  0
   -4.9485   12.2887   -0.0000 C   0  0  0  0  0  0  0  0  0  0  0  0
   -1.0840   11.4640   -0.0000 C   0  0  0  0  0  0  0  0  0  0  0  0
   -8.6952    9.8734   -0.0000 O   0  0  0  0  0  0  0  0  0  0  0  0
   -9.9677    7.6230   -0.0000 C   0  0  0  0  0  0  0  0  0  0  0  0
   -3.6878   13.0899   -0.0000 O   0  0  0  0  0  0  0  0  0  0  0  0
   -6.2799   13.0074   -0.0000 C   0  0  0  0  0  0  0  0  0  0  0  0
  -11.2755    8.3771   -0.0000 N   0  0  0  0  0  0  0  0  0  0  0  0
   -9.9677    6.1385   -0.0000 C   0  0  0  0  0  0  0  0  0  0  0  0
  -12.5715    7.6348   -0.0000 C   0  0  0  0  0  0  0  0  0  0  0  0
    3.2990   10.3683   -0.0000 Cl  0  0  0  0  0  0  0  0  0  0  0  0
  1  2  1  0  0  0  0
  2  3  2  0  0  0  0
  2  4  1  0  0  0  0
  3  5  1  0  0  0  0
  4  6  2  0  0  0  0
  5  7  1  0  0  0  0
  5  8  2  0  0  0  0
  7  9  2  0  0  0  0
  8 10  1  0  0  0  0
  9 11  1  0  0  0  0
  9 12  1  0  0  0  0
 11 13  1  0  0  0  0
 12 14  1  0  0  0  0
 13 15  1  0  0  0  0
 14 16  1  0  0  0  0
 14 17  1  0  0  0  0
 16 18  2  0  0  0  0
 16 19  1  0  0  0  0
 17 20  2  0  0  0  0
 17 21  1  0  0  0  0
 19 22  1  1  0  0  0
 19 23  1  0  0  0  0
 20 24  1  0  0  0  0
 20 25  1  0  0  0  0
 21 26  2  0  0  0  0
 22 27  1  0  0  0  0
 24 28  1  0  0  0  0
 25 29  2  0  0  0  0
 27 30  2  0  0  0  0
 27 31  1  0  0  0  0
 28 32  2  0  0  0  0
 28 33  1  0  0  0  0
 31 34  1  6  0  0  0
 31 35  1  0  0  0  0
 34 36  1  0  0  0  0
  6  7  1  0  0  0  0
 10 11  2  0  0  0  0
 23 24  1  0  0  0  0
 26 29  1  0  0  0  0
M  END
>  <MolRegNo>
1585361

>  <m>
=

>  <Value>
3200

>  <Unit>
nM

>  <Type>
IC50

>  <pValue>
5.5

>  <Ligand Efficiency>
0

>  <Binding Efficiency>
0

>  <Surface Efficiency>
0

>  <Assay Index>
802910

>  <Assay Category>


>  <Assay Organism>
Homo sapiens

>  <Target ID>
17045

>  <Target Name>
Cytochrome P450 3A4

>  <Target Organism>
Homo sapiens

>  <Target Description>
Target is a single protein chain

>  <Sequence Accession>
P08684

>  <Reference>
J Med Chem 56 (20), 7788-7803 (2013)

>  <Pubmed ID>
24093940

>  <DOI>
10.1021/jm400732v

$$$$
1585357
Actelion Java MolfileCreator 1.0

 43 46  0  0  0  0  0  0  0  0999 V2000
    0.0000   -0.0000   -0.0000 Br  0  0  0  0  0  0  0  0  0  0  0  0
   -0.4161    1.4565   -0.0000 C   0  0  0  0  0  0  0  0  0  0  0  0
    0.6120    2.5213   -0.0000 C   0  0  0  0  0  0  0  0  0  0  0  0
   -1.8726    1.8359   -0.0000 C   0  0  0  0  0  0  0  0  0  0  0  0
    0.2081    3.9656   -0.0000 C   0  0  0  0  0  0  0  0  0  0  0  0
   -2.2765    3.2802   -0.0000 C   0  0  0  0  0  0  0  0  0  0  0  0
   -1.2484    4.3573   -0.0000 C   0  0  0  0  0  0  0  0  0  0  0  0
    1.2484    5.0427   -0.0000 C   0  0  0  0  0  0  0  0  0  0  0  0
   -1.6646    5.8015   -0.0000 C   0  0  0  0  0  0  0  0  0  0  0  0
    0.8323    6.4992   -0.0000 C   0  0  0  0  0  0  0  0  0  0  0  0
   -0.6365    6.8786   -0.0000 C   0  0  0  0  0  0  0  0  0  0  0  0
   -3.1211    6.1810   -0.0000 C   0  0  0  0  0  0  0  0  0  0  0  0
   -1.0526    8.3229   -0.0000 O   0  0  0  0  0  0  0  0  0  0  0  0
   -3.5372    7.6375   -0.0000 N   0  0  0  0  0  0  0  0  0  0  0  0
   -0.0245    9.4122   -0.0000 C   0  0  0  0  0  0  0  0  0  0  0  0
   -4.9570    7.3927   -0.0000 C   0  0  0  0  0  0  0  0  0  0  0  0
   -2.8273    9.0083   -0.0000 C   0  0  0  0  0  0  0  0  0  0  0  0
   -5.3609    5.9606   -0.0000 O   0  0  0  0  0  0  0  0  0  0  0  0
   -6.0830    8.3596   -0.0000 C   0  0  0  0  0  0  0  0  0  0  0  0
   -3.4393   10.3913   -0.0000 C   0  0  0  0  0  0  0  0  0  0  0  0
   -1.3586    8.8492   -0.0000 C   0  0  0  0  0  0  0  0  0  0  0  0
   -7.3804    7.6130   -0.0000 N   0  0  0  0  0  0  0  0  0  0  0  0
   -6.1075    9.8406   -0.0000 C   0  0  0  0  0  0  0  0  0  0  0  0
   -4.8958   10.7708   -0.0000 N   0  0  0  0  0  0  0  0  0  0  0  0
   -2.5703   11.6031   -0.0000 C   0  0  0  0  0  0  0  0  0  0  0  0
   -0.4773   10.0609   -0.0000 C   0  0  0  0  0  0  0  0  0  0  0  0
   -8.6901    8.3596   -0.0000 C   0  0  0  0  0  0  0  0  0  0  0  0
   -5.2140   12.2395   -0.0000 C   0  0  0  0  0  0  0  0  0  0  0  0
   -1.1016   11.4562   -0.0000 C   0  0  0  0  0  0  0  0  0  0  0  0
   -8.7145    9.8650   -0.0000 O   0  0  0  0  0  0  0  0  0  0  0  0
   -9.9874    7.6130   -0.0000 C   0  0  0  0  0  0  0  0  0  0  0  0
   -4.1125   13.2432   -0.0000 O   0  0  0  0  0  0  0  0  0  0  0  0
   -6.6461   12.7169   -0.0000 C   0  0  0  0  0  0  0  0  0  0  0  0
  -11.2971    8.3596   -0.0000 N   0  0  0  0  0  0  0  0  0  0  0  0
   -9.9874    6.1320   -0.0000 C   0  0  0  0  0  0  0  0  0  0  0  0
   -6.9643   14.1856   -0.0000 C   0  0  0  0  0  0  0  0  0  0  0  0
  -12.5945    7.6130   -0.0000 C   0  0  0  0  0  0  0  0  0  0  0  0
   -5.8627   15.1892   -0.0000 C   0  0  0  0  0  0  0  0  0  0  0  0
   -8.3963   14.6507   -0.0000 C   0  0  0  0  0  0  0  0  0  0  0  0
   -6.1810   16.6580   -0.0000 N   0  0  0  0  0  0  0  0  0  0  0  0
   -8.7145   16.1194   -0.0000 C   0  0  0  0  0  0  0  0  0  0  0  0
   -7.6130   17.1353   -0.0000 C   0  0  0  0  0  0  0  0  0  0  0  0
    2.5458   12.5333   -0.0000 Cl  0  0  0  0  0  0  0  0  0  0  0  0
  1  2  1  0  0  0  0
  2  3  2  0  0  0  0
  2  4  1  0  0  0  0
  3  5  1  0  0  0  0
  4  6  2  0  0  0  0
  5  7  1  0  0  0  0
  5  8  2  0  0  0  0
  7  9  2  0  0  0  0
  8 10  1  0  0  0  0
  9 11  1  0  0  0  0
  9 12  1  0  0  0  0
 11 13  1  0  0  0  0
 12 14  1  0  0  0  0
 13 15  1  0  0  0  0
 14 16  1  0  0  0  0
 14 17  1  0  0  0  0
 16 18  2  0  0  0  0
 16 19  1  0  0  0  0
 17 20  2  0  0  0  0
 17 21  1  0  0  0  0
 19 22  1  1  0  0  0
 19 23  1  0  0  0  0
 20 24  1  0  0  0  0
 20 25  1  0  0  0  0
 21 26  2  0  0  0  0
 22 27  1  0  0  0  0
 24 28  1  0  0  0  0
 25 29  2  0  0  0  0
 27 30  2  0  0  0  0
 27 31  1  0  0  0  0
 28 32  2  0  0  0  0
 28 33  1  0  0  0  0
 31 34  1  6  0  0  0
 31 35  1  0  0  0  0
 33 36  1  0  0  0  0
 34 37  1  0  0  0  0
 36 38  2  0  0  0  0
 36 39  1  0  0  0  0
 38 40  1  0  0  0  0
 39 41  2  0  0  0  0
 40 42  2  0  0  0  0
  6  7  1  0  0  0  0
 10 11  2  0  0  0  0
 23 24  1  0  0  0  0
 26 29  1  0  0  0  0
 41 42  1  0  0  0  0
M  END
>  <MolRegNo>
1585357

>  <m>
=

>  <Value>
2800

>  <Unit>
nM

>  <Type>
IC50

>  <pValue>
5.55

>  <Ligand Efficiency>
0

>  <Binding Efficiency>
0

>  <Surface Efficiency>
0

>  <Assay Index>
802910

>  <Assay Category>


>  <Assay Organism>
Homo sapiens

>  <Target ID>
17045

>  <Target Name>
Cytochrome P450 3A4

>  <Target Organism>
Homo sapiens

>  <Target Description>
Target is a single protein chain

>  <Sequence Accession>
P08684

>  <Reference>
J Med Chem 56 (20), 7788-7803 (2013)

>  <Pubmed ID>
24093940

>  <DOI>
10.1021/jm400732v

$$$$
1585360
Actelion Java MolfileCreator 1.0

 42 45  0  0  0  0  0  0  0  0999 V2000
    0.0000   -0.0000   -0.0000 Br  0  0  0  0  0  0  0  0  0  0  0  0
   -0.4126    1.4502   -0.0000 C   0  0  0  0  0  0  0  0  0  0  0  0
    0.6131    2.5230   -0.0000 C   0  0  0  0  0  0  0  0  0  0  0  0
   -1.8746    1.8392   -0.0000 C   0  0  0  0  0  0  0  0  0  0  0  0
    0.2122    3.9614   -0.0000 C   0  0  0  0  0  0  0  0  0  0  0  0
   -2.2754    3.2894   -0.0000 C   0  0  0  0  0  0  0  0  0  0  0  0
   -1.2379    4.3505   -0.0000 C   0  0  0  0  0  0  0  0  0  0  0  0
    1.2497    5.0343   -0.0000 C   0  0  0  0  0  0  0  0  0  0  0  0
   -1.6506    5.7888   -0.0000 C   0  0  0  0  0  0  0  0  0  0  0  0
    0.8253    6.4962   -0.0000 C   0  0  0  0  0  0  0  0  0  0  0  0
   -0.6249    6.8735   -0.0000 C   0  0  0  0  0  0  0  0  0  0  0  0
   -3.1125    6.1779   -0.0000 C   0  0  0  0  0  0  0  0  0  0  0  0
   -1.0493    8.3237   -0.0000 O   0  0  0  0  0  0  0  0  0  0  0  0
   -3.5252    7.6281   -0.0000 N   0  0  0  0  0  0  0  0  0  0  0  0
   -0.0236    9.4083   -0.0000 C   0  0  0  0  0  0  0  0  0  0  0  0
   -4.9400    7.3805   -0.0000 C   0  0  0  0  0  0  0  0  0  0  0  0
   -2.8060    9.0075   -0.0000 C   0  0  0  0  0  0  0  0  0  0  0  0
   -5.3408    5.9539   -0.0000 O   0  0  0  0  0  0  0  0  0  0  0  0
   -6.0600    8.3472   -0.0000 C   0  0  0  0  0  0  0  0  0  0  0  0
   -3.4191   10.3869   -0.0000 C   0  0  0  0  0  0  0  0  0  0  0  0
   -1.3323    8.8542   -0.0000 C   0  0  0  0  0  0  0  0  0  0  0  0
   -7.3569    7.6045   -0.0000 N   0  0  0  0  0  0  0  0  0  0  0  0
   -6.0836    9.8210   -0.0000 C   0  0  0  0  0  0  0  0  0  0  0  0
   -4.8692   10.7642   -0.0000 N   0  0  0  0  0  0  0  0  0  0  0  0
   -2.5466   11.6013   -0.0000 C   0  0  0  0  0  0  0  0  0  0  0  0
   -0.4598   10.0686   -0.0000 C   0  0  0  0  0  0  0  0  0  0  0  0
   -8.6656    8.3472   -0.0000 C   0  0  0  0  0  0  0  0  0  0  0  0
   -4.9282   12.2733   -0.0000 C   0  0  0  0  0  0  0  0  0  0  0  0
   -1.0729   11.4480   -0.0000 C   0  0  0  0  0  0  0  0  0  0  0  0
   -8.6892    9.8564   -0.0000 O   0  0  0  0  0  0  0  0  0  0  0  0
   -9.9625    7.6045   -0.0000 C   0  0  0  0  0  0  0  0  0  0  0  0
   -3.6667   13.0750   -0.0000 O   0  0  0  0  0  0  0  0  0  0  0  0
   -6.2604   12.9925   -0.0000 C   0  0  0  0  0  0  0  0  0  0  0  0
  -11.2711    8.3472   -0.0000 N   0  0  0  0  0  0  0  0  0  0  0  0
   -9.9625    6.1190   -0.0000 C   0  0  0  0  0  0  0  0  0  0  0  0
   -6.3194   14.5016   -0.0000 C   0  0  0  0  0  0  0  0  0  0  0  0
   -7.5455   12.2143   -0.0000 C   0  0  0  0  0  0  0  0  0  0  0  0
  -12.5680    7.6045   -0.0000 C   0  0  0  0  0  0  0  0  0  0  0  0
   -7.6399   15.2208   -0.0000 C   0  0  0  0  0  0  0  0  0  0  0  0
   -8.8778   12.9453   -0.0000 C   0  0  0  0  0  0  0  0  0  0  0  0
   -8.9250   14.4544   -0.0000 O   0  0  0  0  0  0  0  0  0  0  0  0
    2.7353   11.0353   -0.0000 Cl  0  0  0  0  0  0  0  0  0  0  0  0
  1  2  1  0  0  0  0
  2  3  2  0  0  0  0
  2  4  1  0  0  0  0
  3  5  1  0  0  0  0
  4  6  2  0  0  0  0
  5  7  1  0  0  0  0
  5  8  2  0  0  0  0
  7  9  2  0  0  0  0
  8 10  1  0  0  0  0
  9 11  1  0  0  0  0
  9 12  1  0  0  0  0
 11 13  1  0  0  0  0
 12 14  1  0  0  0  0
 13 15  1  0  0  0  0
 14 16  1  0  0  0  0
 14 17  1  0  0  0  0
 16 18  2  0  0  0  0
 16 19  1  0  0  0  0
 17 20  2  0  0  0  0
 17 21  1  0  0  0  0
 19 22  1  1  0  0  0
 19 23  1  0  0  0  0
 20 24  1  0  0  0  0
 20 25  1  0  0  0  0
 21 26  2  0  0  0  0
 22 27  1  0  0  0  0
 24 28  1  0  0  0  0
 25 29  2  0  0  0  0
 27 30  2  0  0  0  0
 27 31  1  0  0  0  0
 28 32  2  0  0  0  0
 28 33  1  0  0  0  0
 31 34  1  6  0  0  0
 31 35  1  0  0  0  0
 33 36  1  0  0  0  0
 33 37  1  0  0  0  0
 34 38  1  0  0  0  0
 36 39  1  0  0  0  0
 37 40  1  0  0  0  0
 39 41  1  0  0  0  0
  6  7  1  0  0  0  0
 10 11  2  0  0  0  0
 23 24  1  0  0  0  0
 26 29  1  0  0  0  0
 40 41  1  0  0  0  0
M  END
>  <MolRegNo>
1585360

>  <m>
=

>  <Value>
2300

>  <Unit>
nM

>  <Type>
IC50

>  <pValue>
5.64

>  <Ligand Efficiency>
0

>  <Binding Efficiency>
0

>  <Surface Efficiency>
0

>  <Assay Index>
802910

>  <Assay Category>


>  <Assay Organism>
Homo sapiens

>  <Target ID>
17045

>  <Target Name>
Cytochrome P450 3A4

>  <Target Organism>
Homo sapiens

>  <Target Description>
Target is a single protein chain

>  <Sequence Accession>
P08684

>  <Reference>
J Med Chem 56 (20), 7788-7803 (2013)

>  <Pubmed ID>
24093940

>  <DOI>
10.1021/jm400732v

$$$$
1585352
Actelion Java MolfileCreator 1.0

 46 49  0  0  0  0  0  0  0  0999 V2000
    0.0000   -0.0000   -0.0000 Br  0  0  0  0  0  0  0  0  0  0  0  0
   -0.4116    1.4463   -0.0000 C   0  0  0  0  0  0  0  0  0  0  0  0
    0.6115    2.5164   -0.0000 C   0  0  0  0  0  0  0  0  0  0  0  0
   -1.8696    1.8344   -0.0000 C   0  0  0  0  0  0  0  0  0  0  0  0
    0.1999    3.9509   -0.0000 C   0  0  0  0  0  0  0  0  0  0  0  0
   -2.2694    3.2807   -0.0000 C   0  0  0  0  0  0  0  0  0  0  0  0
   -1.2464    4.3390   -0.0000 C   0  0  0  0  0  0  0  0  0  0  0  0
    1.2347    5.0327   -0.0000 C   0  0  0  0  0  0  0  0  0  0  0  0
   -1.6580    5.7853   -0.0000 C   0  0  0  0  0  0  0  0  0  0  0  0
    0.8113    6.4908   -0.0000 C   0  0  0  0  0  0  0  0  0  0  0  0
   -0.6350    6.8671   -0.0000 C   0  0  0  0  0  0  0  0  0  0  0  0
   -3.1161    6.1733   -0.0000 C   0  0  0  0  0  0  0  0  0  0  0  0
   -1.0583    8.3134   -0.0000 O   0  0  0  0  0  0  0  0  0  0  0  0
   -3.5276    7.6196   -0.0000 N   0  0  0  0  0  0  0  0  0  0  0  0
   -0.0235    9.3952   -0.0000 C   0  0  0  0  0  0  0  0  0  0  0  0
   -4.9387    7.3727   -0.0000 C   0  0  0  0  0  0  0  0  0  0  0  0
   -2.8103    8.9954   -0.0000 C   0  0  0  0  0  0  0  0  0  0  0  0
   -5.3384    5.9381   -0.0000 O   0  0  0  0  0  0  0  0  0  0  0  0
   -6.0557    8.3369   -0.0000 C   0  0  0  0  0  0  0  0  0  0  0  0
   -3.4218   10.3829   -0.0000 C   0  0  0  0  0  0  0  0  0  0  0  0
   -1.3405    8.8425   -0.0000 C   0  0  0  0  0  0  0  0  0  0  0  0
   -7.3609    7.5961   -0.0000 N   0  0  0  0  0  0  0  0  0  0  0  0
   -6.0792    9.8067   -0.0000 C   0  0  0  0  0  0  0  0  0  0  0  0
   -4.8799   10.7592   -0.0000 N   0  0  0  0  0  0  0  0  0  0  0  0
   -2.5516   11.5941   -0.0000 C   0  0  0  0  0  0  0  0  0  0  0  0
   -0.4586   10.0537   -0.0000 C   0  0  0  0  0  0  0  0  0  0  0  0
   -8.6779    8.3487   -0.0000 C   0  0  0  0  0  0  0  0  0  0  0  0
   -5.1973   12.2290   -0.0000 C   0  0  0  0  0  0  0  0  0  0  0  0
   -1.0818   11.4412   -0.0000 C   0  0  0  0  0  0  0  0  0  0  0  0
   -8.7014    9.8538   -0.0000 O   0  0  0  0  0  0  0  0  0  0  0  0
   -9.9714    7.6079   -0.0000 C   0  0  0  0  0  0  0  0  0  0  0  0
   -4.0920   13.2403   -0.0000 O   0  0  0  0  0  0  0  0  0  0  0  0
   -6.6319   12.7111   -0.0000 C   0  0  0  0  0  0  0  0  0  0  0  0
  -11.2883    8.3604   -0.0000 N   0  0  0  0  0  0  0  0  0  0  0  0
   -9.9714    6.1263   -0.0000 C   0  0  0  0  0  0  0  0  0  0  0  0
   -6.9376   14.1810   -0.0000 C   0  0  0  0  0  0  0  0  0  0  0  0
   -7.7372   11.7234   -0.0000 C   0  0  0  0  0  0  0  0  0  0  0  0
  -12.5818    7.6196   -0.0000 C   0  0  0  0  0  0  0  0  0  0  0  0
   -8.3722   14.6631   -0.0000 C   0  0  0  0  0  0  0  0  0  0  0  0
   -9.1718   12.1938   -0.0000 C   0  0  0  0  0  0  0  0  0  0  0  0
   -9.5010   13.6754   -0.0000 C   0  0  0  0  0  0  0  0  0  0  0  0
  -10.9356   14.1457   -0.0000 S   0  0  0  0  0  0  0  0  0  0  0  0
  -12.0174   15.2275   -0.0000 O   0  0  0  0  0  0  0  0  0  0  0  0
  -10.2065   15.4627   -0.0000 O   0  0  0  0  0  0  0  0  0  0  0  0
  -12.0644   13.1580   -0.0000 C   0  0  0  0  0  0  0  0  0  0  0  0
    2.7280   11.9468   -0.0000 Cl  0  0  0  0  0  0  0  0  0  0  0  0
  1  2  1  0  0  0  0
  2  3  2  0  0  0  0
  2  4  1  0  0  0  0
  3  5  1  0  0  0  0
  4  6  2  0  0  0  0
  5  7  1  0  0  0  0
  5  8  2  0  0  0  0
  7  9  2  0  0  0  0
  8 10  1  0  0  0  0
  9 11  1  0  0  0  0
  9 12  1  0  0  0  0
 11 13  1  0  0  0  0
 12 14  1  0  0  0  0
 13 15  1  0  0  0  0
 14 16  1  0  0  0  0
 14 17  1  0  0  0  0
 16 18  2  0  0  0  0
 16 19  1  0  0  0  0
 17 20  2  0  0  0  0
 17 21  1  0  0  0  0
 19 22  1  1  0  0  0
 19 23  1  0  0  0  0
 20 24  1  0  0  0  0
 20 25  1  0  0  0  0
 21 26  2  0  0  0  0
 22 27  1  0  0  0  0
 24 28  1  0  0  0  0
 25 29  2  0  0  0  0
 27 30  2  0  0  0  0
 27 31  1  0  0  0  0
 28 32  2  0  0  0  0
 28 33  1  0  0  0  0
 31 34  1  6  0  0  0
 31 35  1  0  0  0  0
 33 36  2  0  0  0  0
 33 37  1  0  0  0  0
 34 38  1  0  0  0  0
 36 39  1  0  0  0  0
 37 40  2  0  0  0  0
 39 41  2  0  0  0  0
 41 42  1  0  0  0  0
 42 43  2  0  0  0  0
 42 44  2  0  0  0  0
 42 45  1  0  0  0  0
  6  7  1  0  0  0  0
 10 11  2  0  0  0  0
 23 24  1  0  0  0  0
 26 29  1  0  0  0  0
 40 41  1  0  0  0  0
M  END
>  <MolRegNo>
1585352

>  <m>
=

>  <Value>
2000

>  <Unit>
nM

>  <Type>
IC50

>  <pValue>
5.7

>  <Ligand Efficiency>
0

>  <Binding Efficiency>
0

>  <Surface Efficiency>
0

>  <Assay Index>
802910

>  <Assay Category>


>  <Assay Organism>
Homo sapiens

>  <Target ID>
17045

>  <Target Name>
Cytochrome P450 3A4

>  <Target Organism>
Homo sapiens

>  <Target Description>
Target is a single protein chain

>  <Sequence Accession>
P08684

>  <Reference>
J Med Chem 56 (20), 7788-7803 (2013)

>  <Pubmed ID>
24093940

>  <DOI>
10.1021/jm400732v

$$$$
1585359
Actelion Java MolfileCreator 1.0

 42 45  0  0  0  0  0  0  0  0999 V2000
    0.0000   -0.0000   -0.0000 Br  0  0  0  0  0  0  0  0  0  0  0  0
   -0.4123    1.4490   -0.0000 C   0  0  0  0  0  0  0  0  0  0  0  0
    0.6126    2.5211   -0.0000 C   0  0  0  0  0  0  0  0  0  0  0  0
   -1.8731    1.8378   -0.0000 C   0  0  0  0  0  0  0  0  0  0  0  0
    0.2121    3.9583   -0.0000 C   0  0  0  0  0  0  0  0  0  0  0  0
   -2.2737    3.2868   -0.0000 C   0  0  0  0  0  0  0  0  0  0  0  0
   -1.2370    4.3471   -0.0000 C   0  0  0  0  0  0  0  0  0  0  0  0
    1.2487    5.0421   -0.0000 C   0  0  0  0  0  0  0  0  0  0  0  0
   -1.6493    5.7961   -0.0000 C   0  0  0  0  0  0  0  0  0  0  0  0
    0.8246    6.5029   -0.0000 C   0  0  0  0  0  0  0  0  0  0  0  0
   -0.6244    6.8799   -0.0000 C   0  0  0  0  0  0  0  0  0  0  0  0
   -3.1101    6.1848   -0.0000 C   0  0  0  0  0  0  0  0  0  0  0  0
   -1.0485    8.3289   -0.0000 O   0  0  0  0  0  0  0  0  0  0  0  0
   -3.5224    7.6339   -0.0000 N   0  0  0  0  0  0  0  0  0  0  0  0
   -0.0236    9.4127   -0.0000 C   0  0  0  0  0  0  0  0  0  0  0  0
   -4.9361    7.3865   -0.0000 C   0  0  0  0  0  0  0  0  0  0  0  0
   -2.8038    9.0122   -0.0000 C   0  0  0  0  0  0  0  0  0  0  0  0
   -5.3366    5.9610   -0.0000 O   0  0  0  0  0  0  0  0  0  0  0  0
   -6.0553    8.3525   -0.0000 C   0  0  0  0  0  0  0  0  0  0  0  0
   -3.4164   10.4023   -0.0000 C   0  0  0  0  0  0  0  0  0  0  0  0
   -1.3312    8.8590   -0.0000 C   0  0  0  0  0  0  0  0  0  0  0  0
   -7.3511    7.6103   -0.0000 N   0  0  0  0  0  0  0  0  0  0  0  0
   -6.0788    9.8251   -0.0000 C   0  0  0  0  0  0  0  0  0  0  0  0
   -4.8772   10.7793   -0.0000 N   0  0  0  0  0  0  0  0  0  0  0  0
   -2.5446   11.6157   -0.0000 C   0  0  0  0  0  0  0  0  0  0  0  0
   -0.4594   10.0725   -0.0000 C   0  0  0  0  0  0  0  0  0  0  0  0
   -8.6588    8.3643   -0.0000 C   0  0  0  0  0  0  0  0  0  0  0  0
   -5.1953   12.2519   -0.0000 C   0  0  0  0  0  0  0  0  0  0  0  0
   -1.0720   11.4626   -0.0000 C   0  0  0  0  0  0  0  0  0  0  0  0
   -8.6823    9.8722   -0.0000 O   0  0  0  0  0  0  0  0  0  0  0  0
   -9.9546    7.6221   -0.0000 C   0  0  0  0  0  0  0  0  0  0  0  0
   -4.0879   13.2650   -0.0000 O   0  0  0  0  0  0  0  0  0  0  0  0
   -6.6325   12.7349   -0.0000 C   0  0  0  0  0  0  0  0  0  0  0  0
  -11.2623    8.3760   -0.0000 N   0  0  0  0  0  0  0  0  0  0  0  0
   -9.9546    6.1377   -0.0000 C   0  0  0  0  0  0  0  0  0  0  0  0
   -7.8459   11.8749   -0.0000 O   0  0  0  0  0  0  0  0  0  0  0  0
   -7.1037   14.1721   -0.0000 C   0  0  0  0  0  0  0  0  0  0  0  0
  -12.5582    7.6339   -0.0000 C   0  0  0  0  0  0  0  0  0  0  0  0
   -9.0711   12.7702   -0.0000 C   0  0  0  0  0  0  0  0  0  0  0  0
   -8.6117   14.1839   -0.0000 C   0  0  0  0  0  0  0  0  0  0  0  0
  -10.5083   12.3226   -0.0000 C   0  0  0  0  0  0  0  0  0  0  0  0
    2.3561   10.7439   -0.0000 Cl  0  0  0  0  0  0  0  0  0  0  0  0
  1  2  1  0  0  0  0
  2  3  2  0  0  0  0
  2  4  1  0  0  0  0
  3  5  1  0  0  0  0
  4  6  2  0  0  0  0
  5  7  1  0  0  0  0
  5  8  2  0  0  0  0
  7  9  2  0  0  0  0
  8 10  1  0  0  0  0
  9 11  1  0  0  0  0
  9 12  1  0  0  0  0
 11 13  1  0  0  0  0
 12 14  1  0  0  0  0
 13 15  1  0  0  0  0
 14 16  1  0  0  0  0
 14 17  1  0  0  0  0
 16 18  2  0  0  0  0
 16 19  1  0  0  0  0
 17 20  2  0  0  0  0
 17 21  1  0  0  0  0
 19 22  1  1  0  0  0
 19 23  1  0  0  0  0
 20 24  1  0  0  0  0
 20 25  1  0  0  0  0
 21 26  2  0  0  0  0
 22 27  1  0  0  0  0
 24 28  1  0  0  0  0
 25 29  2  0  0  0  0
 27 30  2  0  0  0  0
 27 31  1  0  0  0  0
 28 32  2  0  0  0  0
 28 33  1  0  0  0  0
 31 34  1  6  0  0  0
 31 35  1  0  0  0  0
 33 36  1  0  0  0  0
 33 37  2  0  0  0  0
 34 38  1  0  0  0  0
 36 39  1  0  0  0  0
 37 40  1  0  0  0  0
 39 41  1  0  0  0  0
  6  7  1  0  0  0  0
 10 11  2  0  0  0  0
 23 24  1  0  0  0  0
 26 29  1  0  0  0  0
 39 40  2  0  0  0  0
M  END
>  <MolRegNo>
1585359

>  <m>
=

>  <Value>
1900

>  <Unit>
nM

>  <Type>
IC50

>  <pValue>
5.72

>  <Ligand Efficiency>
0

>  <Binding Efficiency>
0

>  <Surface Efficiency>
0

>  <Assay Index>
802910

>  <Assay Category>


>  <Assay Organism>
Homo sapiens

>  <Target ID>
17045

>  <Target Name>
Cytochrome P450 3A4

>  <Target Organism>
Homo sapiens

>  <Target Description>
Target is a single protein chain

>  <Sequence Accession>
P08684

>  <Reference>
J Med Chem 56 (20), 7788-7803 (2013)

>  <Pubmed ID>
24093940

>  <DOI>
10.1021/jm400732v

$$$$
1585353
Actelion Java MolfileCreator 1.0

 45 48  0  0  0  0  0  0  0  0999 V2000
    0.0000   -0.0000   -0.0000 Br  0  0  0  0  0  0  0  0  0  0  0  0
   -0.4117    1.4470   -0.0000 C   0  0  0  0  0  0  0  0  0  0  0  0
    0.6117    2.5175   -0.0000 C   0  0  0  0  0  0  0  0  0  0  0  0
   -1.8704    1.8352   -0.0000 C   0  0  0  0  0  0  0  0  0  0  0  0
    0.2000    3.9526   -0.0000 C   0  0  0  0  0  0  0  0  0  0  0  0
   -2.2704    3.2821   -0.0000 C   0  0  0  0  0  0  0  0  0  0  0  0
   -1.2470    4.3409   -0.0000 C   0  0  0  0  0  0  0  0  0  0  0  0
    1.2352    5.0349   -0.0000 C   0  0  0  0  0  0  0  0  0  0  0  0
   -1.6587    5.7878   -0.0000 C   0  0  0  0  0  0  0  0  0  0  0  0
    0.8117    6.4936   -0.0000 C   0  0  0  0  0  0  0  0  0  0  0  0
   -0.6352    6.8701   -0.0000 C   0  0  0  0  0  0  0  0  0  0  0  0
   -3.1174    6.1760   -0.0000 C   0  0  0  0  0  0  0  0  0  0  0  0
   -1.0587    8.3170   -0.0000 O   0  0  0  0  0  0  0  0  0  0  0  0
   -3.5291    7.6230   -0.0000 N   0  0  0  0  0  0  0  0  0  0  0  0
   -0.0235    9.3993   -0.0000 C   0  0  0  0  0  0  0  0  0  0  0  0
   -4.9408    7.3759   -0.0000 C   0  0  0  0  0  0  0  0  0  0  0  0
   -2.8116    8.9993   -0.0000 C   0  0  0  0  0  0  0  0  0  0  0  0
   -5.3408    5.9407   -0.0000 O   0  0  0  0  0  0  0  0  0  0  0  0
   -6.0584    8.3406   -0.0000 C   0  0  0  0  0  0  0  0  0  0  0  0
   -3.4233   10.3875   -0.0000 C   0  0  0  0  0  0  0  0  0  0  0  0
   -1.3411    8.8464   -0.0000 C   0  0  0  0  0  0  0  0  0  0  0  0
   -7.3642    7.5994   -0.0000 N   0  0  0  0  0  0  0  0  0  0  0  0
   -6.0819    9.8110   -0.0000 C   0  0  0  0  0  0  0  0  0  0  0  0
   -4.8820   10.7639   -0.0000 N   0  0  0  0  0  0  0  0  0  0  0  0
   -2.5528   11.5991   -0.0000 C   0  0  0  0  0  0  0  0  0  0  0  0
   -0.4588   10.0581   -0.0000 C   0  0  0  0  0  0  0  0  0  0  0  0
   -8.6817    8.3523   -0.0000 C   0  0  0  0  0  0  0  0  0  0  0  0
   -5.1996   12.2344   -0.0000 C   0  0  0  0  0  0  0  0  0  0  0  0
   -1.0823   11.4462   -0.0000 C   0  0  0  0  0  0  0  0  0  0  0  0
   -8.7052    9.8581   -0.0000 O   0  0  0  0  0  0  0  0  0  0  0  0
   -9.9757    7.6112   -0.0000 C   0  0  0  0  0  0  0  0  0  0  0  0
   -4.0938   13.2461   -0.0000 O   0  0  0  0  0  0  0  0  0  0  0  0
   -6.6348   12.7167   -0.0000 C   0  0  0  0  0  0  0  0  0  0  0  0
  -11.2933    8.3641   -0.0000 N   0  0  0  0  0  0  0  0  0  0  0  0
   -9.9757    6.1290   -0.0000 C   0  0  0  0  0  0  0  0  0  0  0  0
   -6.9407   14.1872   -0.0000 C   0  0  0  0  0  0  0  0  0  0  0  0
   -7.7406   11.7285   -0.0000 C   0  0  0  0  0  0  0  0  0  0  0  0
  -12.5873    7.6230   -0.0000 C   0  0  0  0  0  0  0  0  0  0  0  0
   -8.3758   14.6695   -0.0000 C   0  0  0  0  0  0  0  0  0  0  0  0
   -9.1758   12.1991   -0.0000 C   0  0  0  0  0  0  0  0  0  0  0  0
   -9.5052   13.6813   -0.0000 C   0  0  0  0  0  0  0  0  0  0  0  0
  -10.9404   14.1519   -0.0000 C   0  0  0  0  0  0  0  0  0  0  0  0
  -11.2580   15.6224   -0.0000 O   0  0  0  0  0  0  0  0  0  0  0  0
  -12.0697   13.1637   -0.0000 C   0  0  0  0  0  0  0  0  0  0  0  0
    2.7292   11.5756   -0.0000 Cl  0  0  0  0  0  0  0  0  0  0  0  0
  1  2  1  0  0  0  0
  2  3  2  0  0  0  0
  2  4  1  0  0  0  0
  3  5  1  0  0  0  0
  4  6  2  0  0  0  0
  5  7  1  0  0  0  0
  5  8  2  0  0  0  0
  7  9  2  0  0  0  0
  8 10  1  0  0  0  0
  9 11  1  0  0  0  0
  9 12  1  0  0  0  0
 11 13  1  0  0  0  0
 12 14  1  0  0  0  0
 13 15  1  0  0  0  0
 14 16  1  0  0  0  0
 14 17  1  0  0  0  0
 16 18  2  0  0  0  0
 16 19  1  0  0  0  0
 17 20  2  0  0  0  0
 17 21  1  0  0  0  0
 19 22  1  1  0  0  0
 19 23  1  0  0  0  0
 20 24  1  0  0  0  0
 20 25  1  0  0  0  0
 21 26  2  0  0  0  0
 22 27  1  0  0  0  0
 24 28  1  0  0  0  0
 25 29  2  0  0  0  0
 27 30  2  0  0  0  0
 27 31  1  0  0  0  0
 28 32  2  0  0  0  0
 28 33  1  0  0  0  0
 31 34  1  6  0  0  0
 31 35  1  0  0  0  0
 33 36  2  0  0  0  0
 33 37  1  0  0  0  0
 34 38  1  0  0  0  0
 36 39  1  0  0  0  0
 37 40  2  0  0  0  0
 39 41  2  0  0  0  0
 41 42  1  0  0  0  0
 42 43  2  0  0  0  0
 42 44  1  0  0  0  0
  6  7  1  0  0  0  0
 10 11  2  0  0  0  0
 23 24  1  0  0  0  0
 26 29  1  0  0  0  0
 40 41  1  0  0  0  0
M  END
>  <MolRegNo>
1585353

>  <m>
=

>  <Value>
1800

>  <Unit>
nM

>  <Type>
IC50

>  <pValue>
5.75

>  <Ligand Efficiency>
0

>  <Binding Efficiency>
0

>  <Surface Efficiency>
0

>  <Assay Index>
802910

>  <Assay Category>


>  <Assay Organism>
Homo sapiens

>  <Target ID>
17045

>  <Target Name>
Cytochrome P450 3A4

>  <Target Organism>
Homo sapiens

>  <Target Description>
Target is a single protein chain

>  <Sequence Accession>
P08684

>  <Reference>
J Med Chem 56 (20), 7788-7803 (2013)

>  <Pubmed ID>
24093940

>  <DOI>
10.1021/jm400732v

$$$$
1585374
Actelion Java MolfileCreator 1.0

 44 49  0  0  0  0  0  0  0  0999 V2000
    0.0000   -0.0000   -0.0000 O   0  0  0  0  0  0  0  0  0  0  0  0
    0.1303    1.5045   -0.0000 C   0  0  0  0  0  0  0  0  0  0  0  0
    1.5282    2.0376   -0.0000 N   0  0  0  0  0  0  0  0  0  0  0  0
   -1.1728    2.2982   -0.0000 C   0  0  0  0  0  0  0  0  0  0  0  0
    1.9783    3.4828   -0.0000 C   0  0  0  0  0  0  0  0  0  0  0  0
    2.5944    1.0069   -0.0000 C   0  0  0  0  0  0  0  0  0  0  0  0
   -2.2508    1.2557   -0.0000 N   0  0  0  0  0  0  0  0  0  0  0  0
   -1.3742    3.7790   -0.0000 C   0  0  0  0  0  0  0  0  0  0  0  0
    1.1491    4.7504   -0.0000 C   0  0  0  0  0  0  0  0  0  0  0  0
    3.4591    3.5776   -0.0000 C   0  0  0  0  0  0  0  0  0  0  0  0
    2.5944   -0.4857   -0.0000 C   0  0  0  0  0  0  0  0  0  0  0  0
   -3.7079    1.6585   -0.0000 C   0  0  0  0  0  0  0  0  0  0  0  0
   -0.3435    4.8807   -0.0000 O   0  0  0  0  0  0  0  0  0  0  0  0
   -1.3742    5.2953   -0.0000 C   0  0  0  0  0  0  0  0  0  0  0  0
   -2.6891    3.0445   -0.0000 C   0  0  0  0  0  0  0  0  0  0  0  0
    1.8006    6.1009   -0.0000 C   0  0  0  0  0  0  0  0  0  0  0  0
    4.1225    4.9281   -0.0000 C   0  0  0  0  0  0  0  0  0  0  0  0
    3.8027   -1.3505   -0.0000 C   0  0  0  0  0  0  0  0  0  0  0  0
    1.3860   -1.3742   -0.0000 C   0  0  0  0  0  0  0  0  0  0  0  0
   -4.1107    3.1156   -0.0000 O   0  0  0  0  0  0  0  0  0  0  0  0
   -4.7741    0.6042   -0.0000 C   0  0  0  0  0  0  0  0  0  0  0  0
   -2.6773    6.0653   -0.0000 C   0  0  0  0  0  0  0  0  0  0  0  0
   -4.0041    3.8264   -0.0000 C   0  0  0  0  0  0  0  0  0  0  0  0
    3.2814    6.2075   -0.0000 C   0  0  0  0  0  0  0  0  0  0  0  0
    3.3407   -2.7721   -0.0000 N   0  0  0  0  0  0  0  0  0  0  0  0
    5.2124   -0.8648   -0.0000 C   0  0  0  0  0  0  0  0  0  0  0  0
    1.8480   -2.7839   -0.0000 C   0  0  0  0  0  0  0  0  0  0  0  0
   -0.0829   -1.0662   -0.0000 C   0  0  0  0  0  0  0  0  0  0  0  0
   -6.2312    1.0069   -0.0000 N   0  0  0  0  0  0  0  0  0  0  0  0
   -4.3950   -0.8292   -0.0000 C   0  0  0  0  0  0  0  0  0  0  0  0
   -4.0041    5.3427   -0.0000 O   0  0  0  0  0  0  0  0  0  0  0  0
    4.2173   -3.9685   -0.0000 C   0  0  0  0  0  0  0  0  0  0  0  0
    6.6221   -0.3791   -0.0000 N   0  0  0  0  0  0  0  0  0  0  0  0
    0.8529   -3.8856   -0.0000 C   0  0  0  0  0  0  0  0  0  0  0  0
   -1.0899   -2.1679   -0.0000 C   0  0  0  0  0  0  0  0  0  0  0  0
   -6.6340    2.4640   -0.0000 C   0  0  0  0  0  0  0  0  0  0  0  0
    3.6013   -5.3309   -0.0000 C   0  0  0  0  0  0  0  0  0  0  0  0
    5.6863   -3.7908   -0.0000 C   0  0  0  0  0  0  0  0  0  0  0  0
   -0.6160   -3.5776   -0.0000 C   0  0  0  0  0  0  0  0  0  0  0  0
    2.0968   -5.4849   -0.0000 C   0  0  0  0  0  0  0  0  0  0  0  0
    4.4779   -6.5273   -0.0000 C   0  0  0  0  0  0  0  0  0  0  0  0
    6.5629   -4.9755   -0.0000 C   0  0  0  0  0  0  0  0  0  0  0  0
    0.5923   -5.6389   -0.0000 N   0  0  0  0  0  0  0  0  0  0  0  0
    5.9587   -6.3497   -0.0000 C   0  0  0  0  0  0  0  0  0  0  0  0
  1  2  2  0  0  0  0
  2  3  1  0  0  0  0
  2  4  1  0  0  0  0
  3  5  1  0  0  0  0
  3  6  1  0  0  0  0
  4  7  1  1  0  0  0
  4  8  1  0  0  0  0
  5  9  2  0  0  0  0
  5 10  1  0  0  0  0
  6 11  1  0  0  0  0
  7 12  1  0  0  0  0
  8 13  1  0  0  0  0
  8 14  1  0  0  0  0
  8 15  1  0  0  0  0
  9 16  1  0  0  0  0
 10 17  2  0  0  0  0
 11 18  2  0  0  0  0
 11 19  1  0  0  0  0
 12 20  2  0  0  0  0
 12 21  1  0  0  0  0
 14 22  1  0  0  0  0
 15 23  1  0  0  0  0
 16 24  2  0  0  0  0
 18 25  1  0  0  0  0
 18 26  1  0  0  0  0
 19 27  2  0  0  0  0
 19 28  1  0  0  0  0
 21 29  1  6  0  0  0
 21 30  1  0  0  0  0
 22 31  1  0  0  0  0
 25 32  1  0  0  0  0
 26 33  3  0  0  0  0
 27 34  1  0  0  0  0
 28 35  2  0  0  0  0
 29 36  1  0  0  0  0
 32 37  2  0  0  0  0
 32 38  1  0  0  0  0
 34 39  2  0  0  0  0
 37 40  1  0  0  0  0
 37 41  1  0  0  0  0
 38 42  2  0  0  0  0
 40 43  3  0  0  0  0
 41 44  2  0  0  0  0
  9 13  1  0  0  0  0
 17 24  1  0  0  0  0
 23 31  1  0  0  0  0
 25 27  1  0  0  0  0
 35 39  1  0  0  0  0
 42 44  1  0  0  0  0
M  END
>  <MolRegNo>
1585374

>  <m>
=

>  <Value>
1800

>  <Unit>
nM

>  <Type>
IC50

>  <pValue>
5.75

>  <Ligand Efficiency>
0

>  <Binding Efficiency>
0

>  <Surface Efficiency>
0

>  <Assay Index>
802910

>  <Assay Category>


>  <Assay Organism>
Homo sapiens

>  <Target ID>
17045

>  <Target Name>
Cytochrome P450 3A4

>  <Target Organism>
Homo sapiens

>  <Target Description>
Target is a single protein chain

>  <Sequence Accession>
P08684

>  <Reference>
J Med Chem 56 (20), 7788-7803 (2013)

>  <Pubmed ID>
24093940

>  <DOI>
10.1021/jm400732v

$$$$
1585364
Actelion Java MolfileCreator 1.0

 42 44  0  0  0  0  0  0  0  0999 V2000
    0.0000   -0.0000   -0.0000 Br  0  0  0  0  0  0  0  0  0  0  0  0
   -1.4604    0.3887   -0.0000 C   0  0  0  0  0  0  0  0  0  0  0  0
   -1.8726    1.8255   -0.0000 C   0  0  0  0  0  0  0  0  0  0  0  0
   -2.5086   -0.6595   -0.0000 C   0  0  0  0  0  0  0  0  0  0  0  0
   -3.3212    2.2141   -0.0000 C   0  0  0  0  0  0  0  0  0  0  0  0
   -0.8362    2.9090   -0.0000 C   0  0  0  0  0  0  0  0  0  0  0  0
   -3.9690   -0.2709   -0.0000 C   0  0  0  0  0  0  0  0  0  0  0  0
   -3.7334    3.6627   -0.0000 C   0  0  0  0  0  0  0  0  0  0  0  0
   -4.3812    1.1660   -0.0000 C   0  0  0  0  0  0  0  0  0  0  0  0
   -1.2602    4.3694   -0.0000 C   0  0  0  0  0  0  0  0  0  0  0  0
   -2.7088    4.7463   -0.0000 C   0  0  0  0  0  0  0  0  0  0  0  0
   -5.1938    4.0514   -0.0000 C   0  0  0  0  0  0  0  0  0  0  0  0
   -3.1328    6.1949   -0.0000 O   0  0  0  0  0  0  0  0  0  0  0  0
   -5.6060    5.5000   -0.0000 N   0  0  0  0  0  0  0  0  0  0  0  0
   -2.1081    7.2784   -0.0000 C   0  0  0  0  0  0  0  0  0  0  0  0
   -7.0193    5.2527   -0.0000 C   0  0  0  0  0  0  0  0  0  0  0  0
   -4.8876    6.8779   -0.0000 C   0  0  0  0  0  0  0  0  0  0  0  0
   -7.4197    3.8158   -0.0000 O   0  0  0  0  0  0  0  0  0  0  0  0
   -8.1381    6.2184   -0.0000 C   0  0  0  0  0  0  0  0  0  0  0  0
   -5.5000    8.2677   -0.0000 C   0  0  0  0  0  0  0  0  0  0  0  0
   -3.4154    6.7248   -0.0000 C   0  0  0  0  0  0  0  0  0  0  0  0
   -9.4454    5.4764   -0.0000 N   0  0  0  0  0  0  0  0  0  0  0  0
   -8.1617    7.6906   -0.0000 C   0  0  0  0  0  0  0  0  0  0  0  0
   -6.9604    8.6445   -0.0000 N   0  0  0  0  0  0  0  0  0  0  0  0
   -4.6285    9.4807   -0.0000 C   0  0  0  0  0  0  0  0  0  0  0  0
   -2.5321    7.9379   -0.0000 C   0  0  0  0  0  0  0  0  0  0  0  0
  -10.7527    6.2302   -0.0000 C   0  0  0  0  0  0  0  0  0  0  0  0
   -9.5161    8.3501   -0.0000 C   0  0  0  0  0  0  0  0  0  0  0  0
   -7.0193   10.1520   -0.0000 C   0  0  0  0  0  0  0  0  0  0  0  0
   -3.1563    9.3276   -0.0000 C   0  0  0  0  0  0  0  0  0  0  0  0
  -10.7762    7.7377   -0.0000 O   0  0  0  0  0  0  0  0  0  0  0  0
  -12.0482    5.4882   -0.0000 C   0  0  0  0  0  0  0  0  0  0  0  0
   -5.7591   10.9529   -0.0000 O   0  0  0  0  0  0  0  0  0  0  0  0
   -8.3501   10.8705   -0.0000 C   0  0  0  0  0  0  0  0  0  0  0  0
  -13.3555    6.2420   -0.0000 N   0  0  0  0  0  0  0  0  0  0  0  0
  -12.0482    4.0043   -0.0000 C   0  0  0  0  0  0  0  0  0  0  0  0
   -8.4090   12.3780   -0.0000 S   0  0  0  0  0  0  0  0  0  0  0  0
  -14.6510    5.5000   -0.0000 C   0  0  0  0  0  0  0  0  0  0  0  0
   -6.9839   12.0129   -0.0000 O   0  0  0  0  0  0  0  0  0  0  0  0
   -7.6906   13.6970   -0.0000 O   0  0  0  0  0  0  0  0  0  0  0  0
   -9.7398   13.0964   -0.0000 C   0  0  0  0  0  0  0  0  0  0  0  0
   -0.2827    9.9872   -0.0000 Cl  0  0  0  0  0  0  0  0  0  0  0  0
  1  2  1  0  0  0  0
  2  3  1  0  0  0  0
  2  4  2  0  0  0  0
  3  5  1  0  0  0  0
  3  6  2  0  0  0  0
  4  7  1  0  0  0  0
  5  8  2  0  0  0  0
  5  9  1  0  0  0  0
  6 10  1  0  0  0  0
  8 11  1  0  0  0  0
  8 12  1  0  0  0  0
 11 13  1  0  0  0  0
 12 14  1  0  0  0  0
 13 15  1  0  0  0  0
 14 16  1  0  0  0  0
 14 17  1  0  0  0  0
 16 18  2  0  0  0  0
 16 19  1  0  0  0  0
 17 20  2  0  0  0  0
 17 21  1  0  0  0  0
 19 22  1  1  0  0  0
 19 23  1  0  0  0  0
 20 24  1  0  0  0  0
 20 25  1  0  0  0  0
 21 26  2  0  0  0  0
 22 27  1  0  0  0  0
 23 28  1  6  0  0  0
 24 29  1  0  0  0  0
 25 30  2  0  0  0  0
 27 31  2  0  0  0  0
 27 32  1  0  0  0  0
 29 33  2  0  0  0  0
 29 34  1  0  0  0  0
 32 35  1  6  0  0  0
 32 36  1  0  0  0  0
 34 37  1  0  0  0  0
 35 38  1  0  0  0  0
 37 39  2  0  0  0  0
 37 40  2  0  0  0  0
 37 41  1  0  0  0  0
  7  9  2  0  0  0  0
 10 11  2  0  0  0  0
 23 24  1  0  0  0  0
 26 30  1  0  0  0  0
M  END
>  <MolRegNo>
1585364

>  <m>
=

>  <Value>
1700

>  <Unit>
nM

>  <Type>
IC50

>  <pValue>
5.77

>  <Ligand Efficiency>
0

>  <Binding Efficiency>
0

>  <Surface Efficiency>
0

>  <Assay Index>
802910

>  <Assay Category>


>  <Assay Organism>
Homo sapiens

>  <Target ID>
17045

>  <Target Name>
Cytochrome P450 3A4

>  <Target Organism>
Homo sapiens

>  <Target Description>
Target is a single protein chain

>  <Sequence Accession>
P08684

>  <Reference>
J Med Chem 56 (20), 7788-7803 (2013)

>  <Pubmed ID>
24093940

>  <DOI>
10.1021/jm400732v

$$$$
1585358
Actelion Java MolfileCreator 1.0

 42 45  0  0  0  0  0  0  0  0999 V2000
    0.0000   -0.0000   -0.0000 Br  0  0  0  0  0  0  0  0  0  0  0  0
   -0.4138    1.4542   -0.0000 C   0  0  0  0  0  0  0  0  0  0  0  0
    0.6148    2.5300   -0.0000 C   0  0  0  0  0  0  0  0  0  0  0  0
   -1.8680    1.8443   -0.0000 C   0  0  0  0  0  0  0  0  0  0  0  0
    0.2128    3.9724   -0.0000 C   0  0  0  0  0  0  0  0  0  0  0  0
   -2.2699    3.2867   -0.0000 C   0  0  0  0  0  0  0  0  0  0  0  0
   -1.2414    4.3625   -0.0000 C   0  0  0  0  0  0  0  0  0  0  0  0
    1.2532    5.0483   -0.0000 C   0  0  0  0  0  0  0  0  0  0  0  0
   -1.6552    5.8049   -0.0000 C   0  0  0  0  0  0  0  0  0  0  0  0
    0.8394    6.5024   -0.0000 C   0  0  0  0  0  0  0  0  0  0  0  0
   -0.6266    6.8808   -0.0000 C   0  0  0  0  0  0  0  0  0  0  0  0
   -3.1093    6.1950   -0.0000 C   0  0  0  0  0  0  0  0  0  0  0  0
   -1.0404    8.3349   -0.0000 O   0  0  0  0  0  0  0  0  0  0  0  0
   -3.5231    7.6492   -0.0000 N   0  0  0  0  0  0  0  0  0  0  0  0
   -0.0118    9.4226   -0.0000 C   0  0  0  0  0  0  0  0  0  0  0  0
   -4.9419    7.4010   -0.0000 C   0  0  0  0  0  0  0  0  0  0  0  0
   -2.8020    9.0207   -0.0000 C   0  0  0  0  0  0  0  0  0  0  0  0
   -5.3438    5.9704   -0.0000 O   0  0  0  0  0  0  0  0  0  0  0  0
   -6.0650    8.3704   -0.0000 C   0  0  0  0  0  0  0  0  0  0  0  0
   -3.4049   10.4039   -0.0000 C   0  0  0  0  0  0  0  0  0  0  0  0
   -1.3241    8.8670   -0.0000 C   0  0  0  0  0  0  0  0  0  0  0  0
   -7.3655    7.6256   -0.0000 N   0  0  0  0  0  0  0  0  0  0  0  0
   -6.0886    9.8482   -0.0000 C   0  0  0  0  0  0  0  0  0  0  0  0
   -4.8591   10.7822   -0.0000 N   0  0  0  0  0  0  0  0  0  0  0  0
   -2.5300   11.6216   -0.0000 C   0  0  0  0  0  0  0  0  0  0  0  0
   -0.4493   10.0847   -0.0000 C   0  0  0  0  0  0  0  0  0  0  0  0
   -8.6778    8.3704   -0.0000 C   0  0  0  0  0  0  0  0  0  0  0  0
   -4.9182   12.2837   -0.0000 C   0  0  0  0  0  0  0  0  0  0  0  0
   -1.0640   11.4679   -0.0000 C   0  0  0  0  0  0  0  0  0  0  0  0
   -8.7014    9.8719   -0.0000 O   0  0  0  0  0  0  0  0  0  0  0  0
   -9.9783    7.6256   -0.0000 C   0  0  0  0  0  0  0  0  0  0  0  0
   -3.6650   13.0876   -0.0000 O   0  0  0  0  0  0  0  0  0  0  0  0
   -6.2423   13.0049   -0.0000 C   0  0  0  0  0  0  0  0  0  0  0  0
  -11.2906    8.3704   -0.0000 N   0  0  0  0  0  0  0  0  0  0  0  0
   -9.9783    6.1478   -0.0000 C   0  0  0  0  0  0  0  0  0  0  0  0
   -7.5074   12.2246   -0.0000 N   0  0  0  0  0  0  0  0  0  0  0  0
   -6.2896   14.5063   -0.0000 C   0  0  0  0  0  0  0  0  0  0  0  0
  -12.5911    7.6256   -0.0000 C   0  0  0  0  0  0  0  0  0  0  0  0
   -8.8315   12.9339   -0.0000 C   0  0  0  0  0  0  0  0  0  0  0  0
   -7.6138   15.2275   -0.0000 N   0  0  0  0  0  0  0  0  0  0  0  0
   -8.8906   14.4472   -0.0000 C   0  0  0  0  0  0  0  0  0  0  0  0
    3.3103   11.7280   -0.0000 Cl  0  0  0  0  0  0  0  0  0  0  0  0
  1  2  1  0  0  0  0
  2  3  2  0  0  0  0
  2  4  1  0  0  0  0
  3  5  1  0  0  0  0
  4  6  2  0  0  0  0
  5  7  1  0  0  0  0
  5  8  2  0  0  0  0
  7  9  2  0  0  0  0
  8 10  1  0  0  0  0
  9 11  1  0  0  0  0
  9 12  1  0  0  0  0
 11 13  1  0  0  0  0
 12 14  1  0  0  0  0
 13 15  1  0  0  0  0
 14 16  1  0  0  0  0
 14 17  1  0  0  0  0
 16 18  2  0  0  0  0
 16 19  1  0  0  0  0
 17 20  2  0  0  0  0
 17 21  1  0  0  0  0
 19 22  1  1  0  0  0
 19 23  1  0  0  0  0
 20 24  1  0  0  0  0
 20 25  1  0  0  0  0
 21 26  2  0  0  0  0
 22 27  1  0  0  0  0
 24 28  1  0  0  0  0
 25 29  2  0  0  0  0
 27 30  2  0  0  0  0
 27 31  1  0  0  0  0
 28 32  2  0  0  0  0
 28 33  1  0  0  0  0
 31 34  1  6  0  0  0
 31 35  1  0  0  0  0
 33 36  2  0  0  0  0
 33 37  1  0  0  0  0
 34 38  1  0  0  0  0
 36 39  1  0  0  0  0
 37 40  2  0  0  0  0
 39 41  2  0  0  0  0
  6  7  1  0  0  0  0
 10 11  2  0  0  0  0
 23 24  1  0  0  0  0
 26 29  1  0  0  0  0
 40 41  1  0  0  0  0
M  END
>  <MolRegNo>
1585358

>  <m>
=

>  <Value>
1600

>  <Unit>
nM

>  <Type>
IC50

>  <pValue>
5.8

>  <Ligand Efficiency>
0

>  <Binding Efficiency>
0

>  <Surface Efficiency>
0

>  <Assay Index>
802910

>  <Assay Category>


>  <Assay Organism>
Homo sapiens

>  <Target ID>
17045

>  <Target Name>
Cytochrome P450 3A4

>  <Target Organism>
Homo sapiens

>  <Target Description>
Target is a single protein chain

>  <Sequence Accession>
P08684

>  <Reference>
J Med Chem 56 (20), 7788-7803 (2013)

>  <Pubmed ID>
24093940

>  <DOI>
10.1021/jm400732v

$$$$
1585479
Actelion Java MolfileCreator 1.0

 43 46  0  0  0  0  0  0  0  0999 V2000
    0.0000   -0.0000   -0.0000 Br  0  0  0  0  0  0  0  0  0  0  0  0
   -0.4120    1.4477   -0.0000 C   0  0  0  0  0  0  0  0  0  0  0  0
    0.6120    2.5188   -0.0000 C   0  0  0  0  0  0  0  0  0  0  0  0
   -1.8715    1.8361   -0.0000 C   0  0  0  0  0  0  0  0  0  0  0  0
    0.2119    3.9548   -0.0000 C   0  0  0  0  0  0  0  0  0  0  0  0
   -2.2716    3.2839   -0.0000 C   0  0  0  0  0  0  0  0  0  0  0  0
   -1.2359    4.3432   -0.0000 C   0  0  0  0  0  0  0  0  0  0  0  0
    1.2476    5.0376   -0.0000 C   0  0  0  0  0  0  0  0  0  0  0  0
   -1.6478    5.7909   -0.0000 C   0  0  0  0  0  0  0  0  0  0  0  0
    0.8239    6.4971   -0.0000 C   0  0  0  0  0  0  0  0  0  0  0  0
   -0.6238    6.8738   -0.0000 C   0  0  0  0  0  0  0  0  0  0  0  0
   -3.1073    6.1793   -0.0000 C   0  0  0  0  0  0  0  0  0  0  0  0
   -1.0475    8.3215   -0.0000 O   0  0  0  0  0  0  0  0  0  0  0  0
   -3.5193    7.6271   -0.0000 N   0  0  0  0  0  0  0  0  0  0  0  0
   -0.0235    9.4044   -0.0000 C   0  0  0  0  0  0  0  0  0  0  0  0
   -4.9317    7.3799   -0.0000 C   0  0  0  0  0  0  0  0  0  0  0  0
   -2.8013    9.0042   -0.0000 C   0  0  0  0  0  0  0  0  0  0  0  0
   -5.3319    5.9439   -0.0000 O   0  0  0  0  0  0  0  0  0  0  0  0
   -6.0499    8.3450   -0.0000 C   0  0  0  0  0  0  0  0  0  0  0  0
   -3.4133   10.3931   -0.0000 C   0  0  0  0  0  0  0  0  0  0  0  0
   -1.3300    8.8512   -0.0000 C   0  0  0  0  0  0  0  0  0  0  0  0
   -7.3564    7.6035   -0.0000 N   0  0  0  0  0  0  0  0  0  0  0  0
   -6.0734    9.8163   -0.0000 C   0  0  0  0  0  0  0  0  0  0  0  0
   -4.8728   10.7697   -0.0000 N   0  0  0  0  0  0  0  0  0  0  0  0
   -2.5424   11.6054   -0.0000 C   0  0  0  0  0  0  0  0  0  0  0  0
   -0.4473   10.0635   -0.0000 C   0  0  0  0  0  0  0  0  0  0  0  0
   -8.6628    8.3568   -0.0000 C   0  0  0  0  0  0  0  0  0  0  0  0
   -5.1906   12.2410   -0.0000 C   0  0  0  0  0  0  0  0  0  0  0  0
   -1.0711   11.4524   -0.0000 C   0  0  0  0  0  0  0  0  0  0  0  0
   -8.6864    9.8634   -0.0000 O   0  0  0  0  0  0  0  0  0  0  0  0
   -9.9576    7.6153   -0.0000 C   0  0  0  0  0  0  0  0  0  0  0  0
   -4.0842   13.2532   -0.0000 O   0  0  0  0  0  0  0  0  0  0  0  0
   -6.6266   12.7235   -0.0000 C   0  0  0  0  0  0  0  0  0  0  0  0
  -11.2640    8.3686   -0.0000 N   0  0  0  0  0  0  0  0  0  0  0  0
   -9.9576    6.1323   -0.0000 C   0  0  0  0  0  0  0  0  0  0  0  0
   -6.9326   14.1948   -0.0000 C   0  0  0  0  0  0  0  0  0  0  0  0
   -7.7330   11.7349   -0.0000 C   0  0  0  0  0  0  0  0  0  0  0  0
  -12.5588    7.6271   -0.0000 C   0  0  0  0  0  0  0  0  0  0  0  0
   -8.3686   14.6774   -0.0000 C   0  0  0  0  0  0  0  0  0  0  0  0
   -9.1572   12.2057   -0.0000 C   0  0  0  0  0  0  0  0  0  0  0  0
   -9.4985   13.6887   -0.0000 C   0  0  0  0  0  0  0  0  0  0  0  0
  -10.9345   14.1595   -0.0000 F   0  0  0  0  0  0  0  0  0  0  0  0
    2.1657   11.2994   -0.0000 Cl  0  0  0  0  0  0  0  0  0  0  0  0
  1  2  1  0  0  0  0
  2  3  2  0  0  0  0
  2  4  1  0  0  0  0
  3  5  1  0  0  0  0
  4  6  2  0  0  0  0
  5  7  1  0  0  0  0
  5  8  2  0  0  0  0
  7  9  2  0  0  0  0
  8 10  1  0  0  0  0
  9 11  1  0  0  0  0
  9 12  1  0  0  0  0
 11 13  1  0  0  0  0
 12 14  1  0  0  0  0
 13 15  1  0  0  0  0
 14 16  1  0  0  0  0
 14 17  1  0  0  0  0
 16 18  2  0  0  0  0
 16 19  1  0  0  0  0
 17 20  2  0  0  0  0
 17 21  1  0  0  0  0
 19 22  1  1  0  0  0
 19 23  1  0  0  0  0
 20 24  1  0  0  0  0
 20 25  1  0  0  0  0
 21 26  2  0  0  0  0
 22 27  1  0  0  0  0
 24 28  1  0  0  0  0
 25 29  2  0  0  0  0
 27 30  2  0  0  0  0
 27 31  1  0  0  0  0
 28 32  2  0  0  0  0
 28 33  1  0  0  0  0
 31 34  1  6  0  0  0
 31 35  1  0  0  0  0
 33 36  2  0  0  0  0
 33 37  1  0  0  0  0
 34 38  1  0  0  0  0
 36 39  1  0  0  0  0
 37 40  2  0  0  0  0
 39 41  2  0  0  0  0
 41 42  1  0  0  0  0
  6  7  1  0  0  0  0
 10 11  2  0  0  0  0
 23 24  1  0  0  0  0
 26 29  1  0  0  0  0
 40 41  1  0  0  0  0
M  END
>  <MolRegNo>
1585479

>  <m>
=

>  <Value>
1500

>  <Unit>
nM

>  <Type>
IC50

>  <pValue>
5.82

>  <Ligand Efficiency>
0

>  <Binding Efficiency>
0

>  <Surface Efficiency>
0

>  <Assay Index>
802910

>  <Assay Category>


>  <Assay Organism>
Homo sapiens

>  <Target ID>
17045

>  <Target Name>
Cytochrome P450 3A4

>  <Target Organism>
Homo sapiens

>  <Target Description>
Target is a single protein chain

>  <Sequence Accession>
P08684

>  <Reference>
J Med Chem 56 (20), 7788-7803 (2013)

>  <Pubmed ID>
24093940

>  <DOI>
10.1021/jm400732v

$$$$
1585476
Actelion Java MolfileCreator 1.0

 39 41  0  0  0  0  0  0  0  0999 V2000
    0.0000   -0.0000   -0.0000 Cl  0  0  0  0  0  0  0  0  0  0  0  0
   -8.3226   -5.0125   -0.0000 O   0  0  0  0  0  0  0  0  0  0  0  0
   -7.9443   -3.5466   -0.0000 C   0  0  0  0  0  0  0  0  0  0  0  0
   -6.5493   -3.2746   -0.0000 N   0  0  0  0  0  0  0  0  0  0  0  0
   -9.0674   -2.5772   -0.0000 C   0  0  0  0  0  0  0  0  0  0  0  0
   -5.8282   -1.8915   -0.0000 C   0  0  0  0  0  0  0  0  0  0  0  0
   -6.1592   -4.7051   -0.0000 C   0  0  0  0  0  0  0  0  0  0  0  0
  -10.3796   -3.3219   -0.0000 N   0  0  0  0  0  0  0  0  0  0  0  0
   -9.0910   -1.0994   -0.0000 C   0  0  0  0  0  0  0  0  0  0  0  0
   -6.4429   -0.4965   -0.0000 C   0  0  0  0  0  0  0  0  0  0  0  0
   -4.3504   -2.0452   -0.0000 C   0  0  0  0  0  0  0  0  0  0  0  0
   -4.7169   -5.0716   -0.0000 C   0  0  0  0  0  0  0  0  0  0  0  0
  -11.6918   -2.5653   -0.0000 C   0  0  0  0  0  0  0  0  0  0  0  0
   -7.8852   -0.1419   -0.0000 N   0  0  0  0  0  0  0  0  0  0  0  0
   -5.5681    0.7211   -0.0000 C   0  0  0  0  0  0  0  0  0  0  0  0
   -3.4638   -0.8275   -0.0000 C   0  0  0  0  0  0  0  0  0  0  0  0
   -3.6884   -3.9840   -0.0000 C   0  0  0  0  0  0  0  0  0  0  0  0
   -4.3268   -6.5020   -0.0000 C   0  0  0  0  0  0  0  0  0  0  0  0
  -11.7154   -1.0521   -0.0000 O   0  0  0  0  0  0  0  0  0  0  0  0
  -13.0040   -3.3101   -0.0000 C   0  0  0  0  0  0  0  0  0  0  0  0
   -8.2044    1.3359   -0.0000 C   0  0  0  0  0  0  0  0  0  0  0  0
   -4.0904    0.5674   -0.0000 C   0  0  0  0  0  0  0  0  0  0  0  0
   -4.1140   -2.5299   -0.0000 O   0  0  0  0  0  0  0  0  0  0  0  0
   -2.2461   -4.3386   -0.0000 C   0  0  0  0  0  0  0  0  0  0  0  0
   -2.8964   -6.8685   -0.0000 C   0  0  0  0  0  0  0  0  0  0  0  0
   -5.3908   -7.5542   -0.0000 C   0  0  0  0  0  0  0  0  0  0  0  0
  -14.3162   -2.5535   -0.0000 N   0  0  0  0  0  0  0  0  0  0  0  0
  -13.0040   -4.7997   -0.0000 C   0  0  0  0  0  0  0  0  0  0  0  0
   -7.0931    2.3525   -0.0000 O   0  0  0  0  0  0  0  0  0  0  0  0
   -9.6466    1.8206   -0.0000 C   0  0  0  0  0  0  0  0  0  0  0  0
   -3.0737   -1.4423   -0.0000 C   0  0  0  0  0  0  0  0  0  0  0  0
   -1.8442   -5.7809   -0.0000 C   0  0  0  0  0  0  0  0  0  0  0  0
   -2.5181   -8.2871   -0.0000 C   0  0  0  0  0  0  0  0  0  0  0  0
   -5.0125   -8.9846   -0.0000 C   0  0  0  0  0  0  0  0  0  0  0  0
  -15.6167   -3.2983   -0.0000 C   0  0  0  0  0  0  0  0  0  0  0  0
   -9.9658    3.2983   -0.0000 C   0  0  0  0  0  0  0  0  0  0  0  0
   -3.5702   -9.3393   -0.0000 C   0  0  0  0  0  0  0  0  0  0  0  0
  -11.4081    3.7830   -0.0000 C   0  0  0  0  0  0  0  0  0  0  0  0
   -8.8546    4.3150   -0.0000 C   0  0  0  0  0  0  0  0  0  0  0  0
  2  3  2  0  0  0  0
  3  4  1  0  0  0  0
  3  5  1  0  0  0  0
  4  6  1  0  0  0  0
  4  7  1  0  0  0  0
  5  8  1  1  0  0  0
  5  9  1  0  0  0  0
  6 10  2  0  0  0  0
  6 11  1  0  0  0  0
  7 12  1  0  0  0  0
  8 13  1  0  0  0  0
  9 14  1  0  0  0  0
 10 15  1  0  0  0  0
 11 16  2  0  0  0  0
 12 17  2  0  0  0  0
 12 18  1  0  0  0  0
 13 19  2  0  0  0  0
 13 20  1  0  0  0  0
 14 21  1  0  0  0  0
 15 22  2  0  0  0  0
 17 23  1  0  0  0  0
 17 24  1  0  0  0  0
 18 25  1  0  0  0  0
 18 26  2  0  0  0  0
 20 27  1  6  0  0  0
 20 28  1  0  0  0  0
 21 29  2  0  0  0  0
 21 30  1  0  0  0  0
 23 31  1  0  0  0  0
 24 32  2  0  0  0  0
 25 33  2  0  0  0  0
 26 34  1  0  0  0  0
 27 35  1  0  0  0  0
 30 36  1  0  0  0  0
 33 37  1  0  0  0  0
 36 38  1  0  0  0  0
 36 39  1  0  0  0  0
 10 14  1  0  0  0  0
 16 22  1  0  0  0  0
 25 32  1  0  0  0  0
 34 37  2  0  0  0  0
M  END
>  <MolRegNo>
1585476

>  <m>
=

>  <Value>
1500

>  <Unit>
nM

>  <Type>
IC50

>  <pValue>
5.82

>  <Ligand Efficiency>
0

>  <Binding Efficiency>
0

>  <Surface Efficiency>
0

>  <Assay Index>
802910

>  <Assay Category>


>  <Assay Organism>
Homo sapiens

>  <Target ID>
17045

>  <Target Name>
Cytochrome P450 3A4

>  <Target Organism>
Homo sapiens

>  <Target Description>
Target is a single protein chain

>  <Sequence Accession>
P08684

>  <Reference>
J Med Chem 56 (20), 7788-7803 (2013)

>  <Pubmed ID>
24093940

>  <DOI>
10.1021/jm400732v

$$$$
1585482
Actelion Java MolfileCreator 1.0

 43 46  0  0  0  0  0  0  0  0999 V2000
    0.0000   -0.0000   -0.0000 Br  0  0  0  0  0  0  0  0  0  0  0  0
   -0.4118    1.4471   -0.0000 C   0  0  0  0  0  0  0  0  0  0  0  0
    0.6118    2.5176   -0.0000 C   0  0  0  0  0  0  0  0  0  0  0  0
   -1.8706    1.8353   -0.0000 C   0  0  0  0  0  0  0  0  0  0  0  0
    0.2000    3.9529   -0.0000 C   0  0  0  0  0  0  0  0  0  0  0  0
   -2.2706    3.2823   -0.0000 C   0  0  0  0  0  0  0  0  0  0  0  0
   -1.2471    4.3412   -0.0000 C   0  0  0  0  0  0  0  0  0  0  0  0
    1.2353    5.0353   -0.0000 C   0  0  0  0  0  0  0  0  0  0  0  0
   -1.6588    5.7882   -0.0000 C   0  0  0  0  0  0  0  0  0  0  0  0
    0.8118    6.4941   -0.0000 C   0  0  0  0  0  0  0  0  0  0  0  0
   -0.6353    6.8706   -0.0000 C   0  0  0  0  0  0  0  0  0  0  0  0
   -3.1176    6.1765   -0.0000 C   0  0  0  0  0  0  0  0  0  0  0  0
   -1.0588    8.3176   -0.0000 O   0  0  0  0  0  0  0  0  0  0  0  0
   -3.5294    7.6235   -0.0000 N   0  0  0  0  0  0  0  0  0  0  0  0
   -0.0235    9.4000   -0.0000 C   0  0  0  0  0  0  0  0  0  0  0  0
   -4.9412    7.3765   -0.0000 C   0  0  0  0  0  0  0  0  0  0  0  0
   -2.8118    9.0000   -0.0000 C   0  0  0  0  0  0  0  0  0  0  0  0
   -5.3412    5.9412   -0.0000 O   0  0  0  0  0  0  0  0  0  0  0  0
   -6.0588    8.3412   -0.0000 C   0  0  0  0  0  0  0  0  0  0  0  0
   -3.4235   10.3882   -0.0000 C   0  0  0  0  0  0  0  0  0  0  0  0
   -1.3412    8.8470   -0.0000 C   0  0  0  0  0  0  0  0  0  0  0  0
   -7.3647    7.6000   -0.0000 N   0  0  0  0  0  0  0  0  0  0  0  0
   -6.0823    9.8117   -0.0000 C   0  0  0  0  0  0  0  0  0  0  0  0
   -4.8823   10.7647   -0.0000 N   0  0  0  0  0  0  0  0  0  0  0  0
   -2.5529   11.6000   -0.0000 C   0  0  0  0  0  0  0  0  0  0  0  0
   -0.4588   10.0588   -0.0000 C   0  0  0  0  0  0  0  0  0  0  0  0
   -8.6823    8.3529   -0.0000 C   0  0  0  0  0  0  0  0  0  0  0  0
   -5.2000   12.2353   -0.0000 C   0  0  0  0  0  0  0  0  0  0  0  0
   -1.0824   11.4470   -0.0000 C   0  0  0  0  0  0  0  0  0  0  0  0
   -8.7059    9.8588   -0.0000 O   0  0  0  0  0  0  0  0  0  0  0  0
   -9.9765    7.6118   -0.0000 C   0  0  0  0  0  0  0  0  0  0  0  0
   -4.0941   13.2470   -0.0000 O   0  0  0  0  0  0  0  0  0  0  0  0
   -6.6353   12.7176   -0.0000 C   0  0  0  0  0  0  0  0  0  0  0  0
  -11.2941    8.3647   -0.0000 N   0  0  0  0  0  0  0  0  0  0  0  0
   -9.9765    6.1294   -0.0000 C   0  0  0  0  0  0  0  0  0  0  0  0
   -6.9412   14.1882   -0.0000 C   0  0  0  0  0  0  0  0  0  0  0  0
   -7.7412   11.7294   -0.0000 C   0  0  0  0  0  0  0  0  0  0  0  0
  -12.5882    7.6235   -0.0000 C   0  0  0  0  0  0  0  0  0  0  0  0
   -8.3765   14.6706   -0.0000 C   0  0  0  0  0  0  0  0  0  0  0  0
   -9.1765   12.2000   -0.0000 C   0  0  0  0  0  0  0  0  0  0  0  0
   -9.5059   13.6823   -0.0000 C   0  0  0  0  0  0  0  0  0  0  0  0
  -10.9412   14.1529   -0.0000 C   0  0  0  0  0  0  0  0  0  0  0  0
    2.8235   11.6706   -0.0000 Cl  0  0  0  0  0  0  0  0  0  0  0  0
  1  2  1  0  0  0  0
  2  3  2  0  0  0  0
  2  4  1  0  0  0  0
  3  5  1  0  0  0  0
  4  6  2  0  0  0  0
  5  7  1  0  0  0  0
  5  8  2  0  0  0  0
  7  9  2  0  0  0  0
  8 10  1  0  0  0  0
  9 11  1  0  0  0  0
  9 12  1  0  0  0  0
 11 13  1  0  0  0  0
 12 14  1  0  0  0  0
 13 15  1  0  0  0  0
 14 16  1  0  0  0  0
 14 17  1  0  0  0  0
 16 18  2  0  0  0  0
 16 19  1  0  0  0  0
 17 20  2  0  0  0  0
 17 21  1  0  0  0  0
 19 22  1  1  0  0  0
 19 23  1  0  0  0  0
 20 24  1  0  0  0  0
 20 25  1  0  0  0  0
 21 26  2  0  0  0  0
 22 27  1  0  0  0  0
 24 28  1  0  0  0  0
 25 29  2  0  0  0  0
 27 30  2  0  0  0  0
 27 31  1  0  0  0  0
 28 32  2  0  0  0  0
 28 33  1  0  0  0  0
 31 34  1  6  0  0  0
 31 35  1  0  0  0  0
 33 36  2  0  0  0  0
 33 37  1  0  0  0  0
 34 38  1  0  0  0  0
 36 39  1  0  0  0  0
 37 40  2  0  0  0  0
 39 41  2  0  0  0  0
 41 42  1  0  0  0  0
  6  7  1  0  0  0  0
 10 11  2  0  0  0  0
 23 24  1  0  0  0  0
 26 29  1  0  0  0  0
 40 41  1  0  0  0  0
M  END
>  <MolRegNo>
1585482

>  <m>
=

>  <Value>
1400

>  <Unit>
nM

>  <Type>
IC50

>  <pValue>
5.85

>  <Ligand Efficiency>
0

>  <Binding Efficiency>
0

>  <Surface Efficiency>
0

>  <Assay Index>
802910

>  <Assay Category>


>  <Assay Organism>
Homo sapiens

>  <Target ID>
17045

>  <Target Name>
Cytochrome P450 3A4

>  <Target Organism>
Homo sapiens

>  <Target Description>
Target is a single protein chain

>  <Sequence Accession>
P08684

>  <Reference>
J Med Chem 56 (20), 7788-7803 (2013)

>  <Pubmed ID>
24093940

>  <DOI>
10.1021/jm400732v

$$$$
1585475
Actelion Java MolfileCreator 1.0

 38 40  0  0  0  0  0  0  0  0999 V2000
    0.0000   -0.0000   -0.0000 Cl  0  0  0  0  0  0  0  0  0  0  0  0
   -8.7047   -4.6362   -0.0000 O   0  0  0  0  0  0  0  0  0  0  0  0
   -8.3263   -3.1697   -0.0000 C   0  0  0  0  0  0  0  0  0  0  0  0
   -6.9307   -2.8976   -0.0000 N   0  0  0  0  0  0  0  0  0  0  0  0
   -9.4498   -2.1998   -0.0000 C   0  0  0  0  0  0  0  0  0  0  0  0
   -6.2092   -1.5139   -0.0000 C   0  0  0  0  0  0  0  0  0  0  0  0
   -6.5404   -4.3287   -0.0000 C   0  0  0  0  0  0  0  0  0  0  0  0
  -10.7627   -2.9449   -0.0000 N   0  0  0  0  0  0  0  0  0  0  0  0
   -9.4735   -0.7215   -0.0000 C   0  0  0  0  0  0  0  0  0  0  0  0
   -6.8242   -0.1183   -0.0000 C   0  0  0  0  0  0  0  0  0  0  0  0
   -4.7308   -1.6676   -0.0000 C   0  0  0  0  0  0  0  0  0  0  0  0
   -5.0975   -4.6954   -0.0000 C   0  0  0  0  0  0  0  0  0  0  0  0
  -12.0755   -2.1880   -0.0000 C   0  0  0  0  0  0  0  0  0  0  0  0
   -8.2671    0.2365   -0.0000 N   0  0  0  0  0  0  0  0  0  0  0  0
   -5.9490    1.0999   -0.0000 C   0  0  0  0  0  0  0  0  0  0  0  0
   -3.8438   -0.4494   -0.0000 C   0  0  0  0  0  0  0  0  0  0  0  0
   -4.7072   -6.1264   -0.0000 C   0  0  0  0  0  0  0  0  0  0  0  0
   -4.0685   -3.6073   -0.0000 C   0  0  0  0  0  0  0  0  0  0  0  0
  -12.0991   -0.6741   -0.0000 O   0  0  0  0  0  0  0  0  0  0  0  0
  -13.3764   -2.9331   -0.0000 C   0  0  0  0  0  0  0  0  0  0  0  0
   -8.5865    1.7149   -0.0000 C   0  0  0  0  0  0  0  0  0  0  0  0
   -4.4706    0.9462   -0.0000 C   0  0  0  0  0  0  0  0  0  0  0  0
   -3.2761   -6.4931   -0.0000 C   0  0  0  0  0  0  0  0  0  0  0  0
   -5.7716   -7.1790   -0.0000 C   0  0  0  0  0  0  0  0  0  0  0  0
   -2.6256   -3.9621   -0.0000 C   0  0  0  0  0  0  0  0  0  0  0  0
   -4.4943   -2.1525   -0.0000 C   0  0  0  0  0  0  0  0  0  0  0  0
  -14.6892   -2.1762   -0.0000 N   0  0  0  0  0  0  0  0  0  0  0  0
  -13.3764   -4.4233   -0.0000 C   0  0  0  0  0  0  0  0  0  0  0  0
   -7.4747    2.7321   -0.0000 O   0  0  0  0  0  0  0  0  0  0  0  0
  -10.0294    2.1998   -0.0000 C   0  0  0  0  0  0  0  0  0  0  0  0
   -2.2353   -5.4050   -0.0000 C   0  0  0  0  0  0  0  0  0  0  0  0
   -2.8976   -7.9123   -0.0000 C   0  0  0  0  0  0  0  0  0  0  0  0
   -5.3932   -8.6101   -0.0000 C   0  0  0  0  0  0  0  0  0  0  0  0
  -15.9902   -2.9213   -0.0000 C   0  0  0  0  0  0  0  0  0  0  0  0
  -10.3487    3.6782   -0.0000 C   0  0  0  0  0  0  0  0  0  0  0  0
   -3.9502   -8.9649   -0.0000 C   0  0  0  0  0  0  0  0  0  0  0  0
  -11.7916    4.1631   -0.0000 C   0  0  0  0  0  0  0  0  0  0  0  0
   -9.2370    4.6954   -0.0000 C   0  0  0  0  0  0  0  0  0  0  0  0
  2  3  2  0  0  0  0
  3  4  1  0  0  0  0
  3  5  1  0  0  0  0
  4  6  1  0  0  0  0
  4  7  1  0  0  0  0
  5  8  1  1  0  0  0
  5  9  1  0  0  0  0
  6 10  2  0  0  0  0
  6 11  1  0  0  0  0
  7 12  1  0  0  0  0
  8 13  1  0  0  0  0
  9 14  1  0  0  0  0
 10 15  1  0  0  0  0
 11 16  2  0  0  0  0
 12 17  1  0  0  0  0
 12 18  2  0  0  0  0
 13 19  2  0  0  0  0
 13 20  1  0  0  0  0
 14 21  1  0  0  0  0
 15 22  2  0  0  0  0
 17 23  1  0  0  0  0
 17 24  2  0  0  0  0
 18 25  1  0  0  0  0
 18 26  1  0  0  0  0
 20 27  1  6  0  0  0
 20 28  1  0  0  0  0
 21 29  2  0  0  0  0
 21 30  1  0  0  0  0
 23 31  1  0  0  0  0
 23 32  2  0  0  0  0
 24 33  1  0  0  0  0
 27 34  1  0  0  0  0
 30 35  1  0  0  0  0
 32 36  1  0  0  0  0
 35 37  1  0  0  0  0
 35 38  1  0  0  0  0
 10 14  1  0  0  0  0
 16 22  1  0  0  0  0
 25 31  2  0  0  0  0
 33 36  2  0  0  0  0
M  END
>  <MolRegNo>
1585475

>  <m>
=

>  <Value>
1300

>  <Unit>
nM

>  <Type>
IC50

>  <pValue>
5.89

>  <Ligand Efficiency>
0

>  <Binding Efficiency>
0

>  <Surface Efficiency>
0

>  <Assay Index>
802910

>  <Assay Category>


>  <Assay Organism>
Homo sapiens

>  <Target ID>
17045

>  <Target Name>
Cytochrome P450 3A4

>  <Target Organism>
Homo sapiens

>  <Target Description>
Target is a single protein chain

>  <Sequence Accession>
P08684

>  <Reference>
J Med Chem 56 (20), 7788-7803 (2013)

>  <Pubmed ID>
24093940

>  <DOI>
10.1021/jm400732v

$$$$
1585356
Actelion Java MolfileCreator 1.0

 42 45  0  0  0  0  0  0  0  0999 V2000
    0.0000   -0.0000   -0.0000 Br  0  0  0  0  0  0  0  0  0  0  0  0
   -0.4184    1.4465   -0.0000 C   0  0  0  0  0  0  0  0  0  0  0  0
    0.6097    2.5224   -0.0000 C   0  0  0  0  0  0  0  0  0  0  0  0
   -1.8769    1.8291   -0.0000 C   0  0  0  0  0  0  0  0  0  0  0  0
    0.2032    3.9570   -0.0000 C   0  0  0  0  0  0  0  0  0  0  0  0
   -2.2834    3.2756   -0.0000 C   0  0  0  0  0  0  0  0  0  0  0  0
   -1.2433    4.3515   -0.0000 C   0  0  0  0  0  0  0  0  0  0  0  0
    1.2433    5.0329   -0.0000 C   0  0  0  0  0  0  0  0  0  0  0  0
   -1.6617    5.7980   -0.0000 C   0  0  0  0  0  0  0  0  0  0  0  0
    0.8249    6.4914   -0.0000 C   0  0  0  0  0  0  0  0  0  0  0  0
   -0.6336    6.8740   -0.0000 C   0  0  0  0  0  0  0  0  0  0  0  0
   -3.1202    6.1806   -0.0000 C   0  0  0  0  0  0  0  0  0  0  0  0
   -1.0520    8.3205   -0.0000 O   0  0  0  0  0  0  0  0  0  0  0  0
   -3.5266    7.6271   -0.0000 N   0  0  0  0  0  0  0  0  0  0  0  0
   -0.0239    9.4084   -0.0000 C   0  0  0  0  0  0  0  0  0  0  0  0
   -4.9373    7.3880   -0.0000 C   0  0  0  0  0  0  0  0  0  0  0  0
   -2.8094    9.0019   -0.0000 C   0  0  0  0  0  0  0  0  0  0  0  0
   -5.3438    5.9534   -0.0000 O   0  0  0  0  0  0  0  0  0  0  0  0
   -6.0610    8.3563   -0.0000 C   0  0  0  0  0  0  0  0  0  0  0  0
   -3.4190   10.3886   -0.0000 C   0  0  0  0  0  0  0  0  0  0  0  0
   -1.3389    8.8465   -0.0000 C   0  0  0  0  0  0  0  0  0  0  0  0
   -7.3641    7.6152   -0.0000 N   0  0  0  0  0  0  0  0  0  0  0  0
   -6.0849    9.8268   -0.0000 C   0  0  0  0  0  0  0  0  0  0  0  0
   -4.8775   10.7712   -0.0000 N   0  0  0  0  0  0  0  0  0  0  0  0
   -2.5464   11.5961   -0.0000 C   0  0  0  0  0  0  0  0  0  0  0  0
   -0.4662   10.0659   -0.0000 C   0  0  0  0  0  0  0  0  0  0  0  0
   -8.6791    8.3683   -0.0000 C   0  0  0  0  0  0  0  0  0  0  0  0
   -5.2003   12.2416   -0.0000 C   0  0  0  0  0  0  0  0  0  0  0  0
   -1.0759   11.4526   -0.0000 C   0  0  0  0  0  0  0  0  0  0  0  0
   -8.7030    9.8746   -0.0000 O   0  0  0  0  0  0  0  0  0  0  0  0
   -9.9822    7.6271   -0.0000 C   0  0  0  0  0  0  0  0  0  0  0  0
   -4.1005   13.2458   -0.0000 O   0  0  0  0  0  0  0  0  0  0  0  0
   -6.6349   12.7198   -0.0000 C   0  0  0  0  0  0  0  0  0  0  0  0
  -11.2972    8.3803   -0.0000 N   0  0  0  0  0  0  0  0  0  0  0  0
   -9.9822    6.1447   -0.0000 C   0  0  0  0  0  0  0  0  0  0  0  0
   -6.9457   14.1902   -0.0000 C   0  0  0  0  0  0  0  0  0  0  0  0
   -7.7467   11.7395   -0.0000 C   0  0  0  0  0  0  0  0  0  0  0  0
  -12.6003    7.6391   -0.0000 C   0  0  0  0  0  0  0  0  0  0  0  0
   -8.3803   14.6684   -0.0000 N   0  0  0  0  0  0  0  0  0  0  0  0
   -9.1812   12.2058   -0.0000 C   0  0  0  0  0  0  0  0  0  0  0  0
   -9.5040   13.6881   -0.0000 C   0  0  0  0  0  0  0  0  0  0  0  0
    1.3389   12.2416   -0.0000 Cl  0  0  0  0  0  0  0  0  0  0  0  0
  1  2  1  0  0  0  0
  2  3  2  0  0  0  0
  2  4  1  0  0  0  0
  3  5  1  0  0  0  0
  4  6  2  0  0  0  0
  5  7  1  0  0  0  0
  5  8  2  0  0  0  0
  7  9  2  0  0  0  0
  8 10  1  0  0  0  0
  9 11  1  0  0  0  0
  9 12  1  0  0  0  0
 11 13  1  0  0  0  0
 12 14  1  0  0  0  0
 13 15  1  0  0  0  0
 14 16  1  0  0  0  0
 14 17  1  0  0  0  0
 16 18  2  0  0  0  0
 16 19  1  0  0  0  0
 17 20  2  0  0  0  0
 17 21  1  0  0  0  0
 19 22  1  1  0  0  0
 19 23  1  0  0  0  0
 20 24  1  0  0  0  0
 20 25  1  0  0  0  0
 21 26  2  0  0  0  0
 22 27  1  0  0  0  0
 24 28  1  0  0  0  0
 25 29  2  0  0  0  0
 27 30  2  0  0  0  0
 27 31  1  0  0  0  0
 28 32  2  0  0  0  0
 28 33  1  0  0  0  0
 31 34  1  6  0  0  0
 31 35  1  0  0  0  0
 33 36  2  0  0  0  0
 33 37  1  0  0  0  0
 34 38  1  0  0  0  0
 36 39  1  0  0  0  0
 37 40  2  0  0  0  0
 39 41  2  0  0  0  0
  6  7  1  0  0  0  0
 10 11  2  0  0  0  0
 23 24  1  0  0  0  0
 26 29  1  0  0  0  0
 40 41  1  0  0  0  0
M  END
>  <MolRegNo>
1585356

>  <m>
=

>  <Value>
1200

>  <Unit>
nM

>  <Type>
IC50

>  <pValue>
5.92

>  <Ligand Efficiency>
0

>  <Binding Efficiency>
0

>  <Surface Efficiency>
0

>  <Assay Index>
802910

>  <Assay Category>


>  <Assay Organism>
Homo sapiens

>  <Target ID>
17045

>  <Target Name>
Cytochrome P450 3A4

>  <Target Organism>
Homo sapiens

>  <Target Description>
Target is a single protein chain

>  <Sequence Accession>
P08684

>  <Reference>
J Med Chem 56 (20), 7788-7803 (2013)

>  <Pubmed ID>
24093940

>  <DOI>
10.1021/jm400732v

$$$$
1585480
Actelion Java MolfileCreator 1.0

 43 46  0  0  0  0  0  0  0  0999 V2000
    0.0000   -0.0000   -0.0000 Br  0  0  0  0  0  0  0  0  0  0  0  0
   -0.4120    1.4479   -0.0000 C   0  0  0  0  0  0  0  0  0  0  0  0
    0.6121    2.5190   -0.0000 C   0  0  0  0  0  0  0  0  0  0  0  0
   -1.8716    1.8363   -0.0000 C   0  0  0  0  0  0  0  0  0  0  0  0
    0.2119    3.9551   -0.0000 C   0  0  0  0  0  0  0  0  0  0  0  0
   -2.2718    3.2842   -0.0000 C   0  0  0  0  0  0  0  0  0  0  0  0
   -1.2360    4.3436   -0.0000 C   0  0  0  0  0  0  0  0  0  0  0  0
    1.2477    5.0381   -0.0000 C   0  0  0  0  0  0  0  0  0  0  0  0
   -1.6480    5.7914   -0.0000 C   0  0  0  0  0  0  0  0  0  0  0  0
    0.8240    6.4977   -0.0000 C   0  0  0  0  0  0  0  0  0  0  0  0
   -0.6239    6.8744   -0.0000 C   0  0  0  0  0  0  0  0  0  0  0  0
   -3.1076    6.1799   -0.0000 C   0  0  0  0  0  0  0  0  0  0  0  0
   -1.0476    8.3222   -0.0000 O   0  0  0  0  0  0  0  0  0  0  0  0
   -3.5196    7.6277   -0.0000 N   0  0  0  0  0  0  0  0  0  0  0  0
   -0.0235    9.4052   -0.0000 C   0  0  0  0  0  0  0  0  0  0  0  0
   -4.9321    7.3805   -0.0000 C   0  0  0  0  0  0  0  0  0  0  0  0
   -2.8015    9.0050   -0.0000 C   0  0  0  0  0  0  0  0  0  0  0  0
   -5.3323    5.9444   -0.0000 O   0  0  0  0  0  0  0  0  0  0  0  0
   -6.0504    8.3458   -0.0000 C   0  0  0  0  0  0  0  0  0  0  0  0
   -3.4136   10.3940   -0.0000 C   0  0  0  0  0  0  0  0  0  0  0  0
   -1.3301    8.8519   -0.0000 C   0  0  0  0  0  0  0  0  0  0  0  0
   -7.3570    7.6042   -0.0000 N   0  0  0  0  0  0  0  0  0  0  0  0
   -6.0739    9.8172   -0.0000 C   0  0  0  0  0  0  0  0  0  0  0  0
   -4.8733   10.7706   -0.0000 N   0  0  0  0  0  0  0  0  0  0  0  0
   -2.5426   11.6064   -0.0000 C   0  0  0  0  0  0  0  0  0  0  0  0
   -0.4473   10.0644   -0.0000 C   0  0  0  0  0  0  0  0  0  0  0  0
   -8.6636    8.3575   -0.0000 C   0  0  0  0  0  0  0  0  0  0  0  0
   -5.1911   12.2420   -0.0000 C   0  0  0  0  0  0  0  0  0  0  0  0
   -1.0712   11.4534   -0.0000 C   0  0  0  0  0  0  0  0  0  0  0  0
   -8.6871    9.8642   -0.0000 O   0  0  0  0  0  0  0  0  0  0  0  0
   -9.9584    7.6160   -0.0000 C   0  0  0  0  0  0  0  0  0  0  0  0
   -4.0846   13.2543   -0.0000 O   0  0  0  0  0  0  0  0  0  0  0  0
   -6.6272   12.7246   -0.0000 C   0  0  0  0  0  0  0  0  0  0  0  0
  -11.2650    8.3693   -0.0000 N   0  0  0  0  0  0  0  0  0  0  0  0
   -9.9584    6.1328   -0.0000 C   0  0  0  0  0  0  0  0  0  0  0  0
   -6.9332   14.1960   -0.0000 C   0  0  0  0  0  0  0  0  0  0  0  0
   -7.7337   11.7359   -0.0000 C   0  0  0  0  0  0  0  0  0  0  0  0
  -12.5598    7.6277   -0.0000 C   0  0  0  0  0  0  0  0  0  0  0  0
   -8.3693   14.6787   -0.0000 C   0  0  0  0  0  0  0  0  0  0  0  0
   -9.1580   12.2067   -0.0000 C   0  0  0  0  0  0  0  0  0  0  0  0
   -8.6871   16.1501   -0.0000 F   0  0  0  0  0  0  0  0  0  0  0  0
   -9.4993   13.6899   -0.0000 C   0  0  0  0  0  0  0  0  0  0  0  0
    1.8834   12.0537   -0.0000 Cl  0  0  0  0  0  0  0  0  0  0  0  0
  1  2  1  0  0  0  0
  2  3  2  0  0  0  0
  2  4  1  0  0  0  0
  3  5  1  0  0  0  0
  4  6  2  0  0  0  0
  5  7  1  0  0  0  0
  5  8  2  0  0  0  0
  7  9  2  0  0  0  0
  8 10  1  0  0  0  0
  9 11  1  0  0  0  0
  9 12  1  0  0  0  0
 11 13  1  0  0  0  0
 12 14  1  0  0  0  0
 13 15  1  0  0  0  0
 14 16  1  0  0  0  0
 14 17  1  0  0  0  0
 16 18  2  0  0  0  0
 16 19  1  0  0  0  0
 17 20  2  0  0  0  0
 17 21  1  0  0  0  0
 19 22  1  1  0  0  0
 19 23  1  0  0  0  0
 20 24  1  0  0  0  0
 20 25  1  0  0  0  0
 21 26  2  0  0  0  0
 22 27  1  0  0  0  0
 24 28  1  0  0  0  0
 25 29  2  0  0  0  0
 27 30  2  0  0  0  0
 27 31  1  0  0  0  0
 28 32  2  0  0  0  0
 28 33  1  0  0  0  0
 31 34  1  6  0  0  0
 31 35  1  0  0  0  0
 33 36  2  0  0  0  0
 33 37  1  0  0  0  0
 34 38  1  0  0  0  0
 36 39  1  0  0  0  0
 37 40  2  0  0  0  0
 39 41  1  0  0  0  0
 39 42  2  0  0  0  0
  6  7  1  0  0  0  0
 10 11  2  0  0  0  0
 23 24  1  0  0  0  0
 26 29  1  0  0  0  0
 40 42  1  0  0  0  0
M  END
>  <MolRegNo>
1585480

>  <m>
=

>  <Value>
1200

>  <Unit>
nM

>  <Type>
IC50

>  <pValue>
5.92

>  <Ligand Efficiency>
0

>  <Binding Efficiency>
0

>  <Surface Efficiency>
0

>  <Assay Index>
802910

>  <Assay Category>


>  <Assay Organism>
Homo sapiens

>  <Target ID>
17045

>  <Target Name>
Cytochrome P450 3A4

>  <Target Organism>
Homo sapiens

>  <Target Description>
Target is a single protein chain

>  <Sequence Accession>
P08684

>  <Reference>
J Med Chem 56 (20), 7788-7803 (2013)

>  <Pubmed ID>
24093940

>  <DOI>
10.1021/jm400732v

$$$$
1585478
Actelion Java MolfileCreator 1.0

 42 45  0  0  0  0  0  0  0  0999 V2000
    0.0000   -0.0000   -0.0000 Br  0  0  0  0  0  0  0  0  0  0  0  0
   -0.4120    1.4479   -0.0000 C   0  0  0  0  0  0  0  0  0  0  0  0
    0.6121    2.5191   -0.0000 C   0  0  0  0  0  0  0  0  0  0  0  0
   -1.8717    1.8364   -0.0000 C   0  0  0  0  0  0  0  0  0  0  0  0
    0.2001    3.9552   -0.0000 C   0  0  0  0  0  0  0  0  0  0  0  0
   -2.2719    3.2843   -0.0000 C   0  0  0  0  0  0  0  0  0  0  0  0
   -1.2478    4.3437   -0.0000 C   0  0  0  0  0  0  0  0  0  0  0  0
    1.2360    5.0382   -0.0000 C   0  0  0  0  0  0  0  0  0  0  0  0
   -1.6598    5.7916   -0.0000 C   0  0  0  0  0  0  0  0  0  0  0  0
    0.8122    6.4979   -0.0000 C   0  0  0  0  0  0  0  0  0  0  0  0
   -0.6357    6.8746   -0.0000 C   0  0  0  0  0  0  0  0  0  0  0  0
   -3.1195    6.1801   -0.0000 C   0  0  0  0  0  0  0  0  0  0  0  0
   -1.0594    8.3225   -0.0000 O   0  0  0  0  0  0  0  0  0  0  0  0
   -3.5315    7.6280   -0.0000 N   0  0  0  0  0  0  0  0  0  0  0  0
   -0.0235    9.4055   -0.0000 C   0  0  0  0  0  0  0  0  0  0  0  0
   -4.9441    7.3808   -0.0000 C   0  0  0  0  0  0  0  0  0  0  0  0
   -2.8134    9.0052   -0.0000 C   0  0  0  0  0  0  0  0  0  0  0  0
   -5.3443    5.9446   -0.0000 O   0  0  0  0  0  0  0  0  0  0  0  0
   -6.0624    8.3460   -0.0000 C   0  0  0  0  0  0  0  0  0  0  0  0
   -3.4255   10.3943   -0.0000 C   0  0  0  0  0  0  0  0  0  0  0  0
   -1.3420    8.8522   -0.0000 C   0  0  0  0  0  0  0  0  0  0  0  0
   -7.3690    7.6044   -0.0000 N   0  0  0  0  0  0  0  0  0  0  0  0
   -6.0859    9.8175   -0.0000 C   0  0  0  0  0  0  0  0  0  0  0  0
   -4.8852   10.7710   -0.0000 N   0  0  0  0  0  0  0  0  0  0  0  0
   -2.5544   11.6068   -0.0000 C   0  0  0  0  0  0  0  0  0  0  0  0
   -0.4591   10.0647   -0.0000 C   0  0  0  0  0  0  0  0  0  0  0  0
   -8.6756    8.3578   -0.0000 C   0  0  0  0  0  0  0  0  0  0  0  0
   -5.2030   12.2424   -0.0000 C   0  0  0  0  0  0  0  0  0  0  0  0
   -1.0830   11.4537   -0.0000 C   0  0  0  0  0  0  0  0  0  0  0  0
   -8.6992    9.8646   -0.0000 O   0  0  0  0  0  0  0  0  0  0  0  0
   -9.9705    7.6162   -0.0000 C   0  0  0  0  0  0  0  0  0  0  0  0
   -4.0965   13.2548   -0.0000 O   0  0  0  0  0  0  0  0  0  0  0  0
   -6.6392   12.7251   -0.0000 C   0  0  0  0  0  0  0  0  0  0  0  0
  -11.2772    8.3696   -0.0000 N   0  0  0  0  0  0  0  0  0  0  0  0
   -9.9705    6.1330   -0.0000 C   0  0  0  0  0  0  0  0  0  0  0  0
   -6.9452   14.1965   -0.0000 C   0  0  0  0  0  0  0  0  0  0  0  0
   -7.7457   11.7363   -0.0000 C   0  0  0  0  0  0  0  0  0  0  0  0
  -12.5720    7.6280   -0.0000 C   0  0  0  0  0  0  0  0  0  0  0  0
   -8.3814   14.6791   -0.0000 C   0  0  0  0  0  0  0  0  0  0  0  0
   -9.1701   12.2071   -0.0000 C   0  0  0  0  0  0  0  0  0  0  0  0
   -9.5114   13.6903   -0.0000 C   0  0  0  0  0  0  0  0  0  0  0  0
    3.5786   11.1124   -0.0000 Cl  0  0  0  0  0  0  0  0  0  0  0  0
  1  2  1  0  0  0  0
  2  3  2  0  0  0  0
  2  4  1  0  0  0  0
  3  5  1  0  0  0  0
  4  6  2  0  0  0  0
  5  7  1  0  0  0  0
  5  8  2  0  0  0  0
  7  9  2  0  0  0  0
  8 10  1  0  0  0  0
  9 11  1  0  0  0  0
  9 12  1  0  0  0  0
 11 13  1  0  0  0  0
 12 14  1  0  0  0  0
 13 15  1  0  0  0  0
 14 16  1  0  0  0  0
 14 17  1  0  0  0  0
 16 18  2  0  0  0  0
 16 19  1  0  0  0  0
 17 20  2  0  0  0  0
 17 21  1  0  0  0  0
 19 22  1  1  0  0  0
 19 23  1  0  0  0  0
 20 24  1  0  0  0  0
 20 25  1  0  0  0  0
 21 26  2  0  0  0  0
 22 27  1  0  0  0  0
 24 28  1  0  0  0  0
 25 29  2  0  0  0  0
 27 30  2  0  0  0  0
 27 31  1  0  0  0  0
 28 32  2  0  0  0  0
 28 33  1  0  0  0  0
 31 34  1  6  0  0  0
 31 35  1  0  0  0  0
 33 36  2  0  0  0  0
 33 37  1  0  0  0  0
 34 38  1  0  0  0  0
 36 39  1  0  0  0  0
 37 40  2  0  0  0  0
 39 41  2  0  0  0  0
  6  7  1  0  0  0  0
 10 11  2  0  0  0  0
 23 24  1  0  0  0  0
 26 29  1  0  0  0  0
 40 41  1  0  0  0  0
M  END
>  <MolRegNo>
1585478

>  <m>
=

>  <Value>
1200

>  <Unit>
nM

>  <Type>
IC50

>  <pValue>
5.92

>  <Ligand Efficiency>
0

>  <Binding Efficiency>
0

>  <Surface Efficiency>
0

>  <Assay Index>
802910

>  <Assay Category>


>  <Assay Organism>
Homo sapiens

>  <Target ID>
17045

>  <Target Name>
Cytochrome P450 3A4

>  <Target Organism>
Homo sapiens

>  <Target Description>
Target is a single protein chain

>  <Sequence Accession>
P08684

>  <Reference>
J Med Chem 56 (20), 7788-7803 (2013)

>  <Pubmed ID>
24093940

>  <DOI>
10.1021/jm400732v

$$$$
1585477
Actelion Java MolfileCreator 1.0

 40 42  0  0  0  0  0  0  0  0999 V2000
    0.0000   -0.0000   -0.0000 Br  0  0  0  0  0  0  0  0  0  0  0  0
   -0.4120    1.4480   -0.0000 C   0  0  0  0  0  0  0  0  0  0  0  0
    0.6122    2.5193   -0.0000 C   0  0  0  0  0  0  0  0  0  0  0  0
   -1.8718    1.8365   -0.0000 C   0  0  0  0  0  0  0  0  0  0  0  0
    0.2001    3.9556   -0.0000 C   0  0  0  0  0  0  0  0  0  0  0  0
   -2.2721    3.2846   -0.0000 C   0  0  0  0  0  0  0  0  0  0  0  0
   -1.2479    4.3441   -0.0000 C   0  0  0  0  0  0  0  0  0  0  0  0
    1.2361    5.0387   -0.0000 C   0  0  0  0  0  0  0  0  0  0  0  0
   -1.6599    5.7921   -0.0000 C   0  0  0  0  0  0  0  0  0  0  0  0
    0.8123    6.4985   -0.0000 C   0  0  0  0  0  0  0  0  0  0  0  0
   -0.6357    6.8752   -0.0000 C   0  0  0  0  0  0  0  0  0  0  0  0
   -3.1197    6.1806   -0.0000 C   0  0  0  0  0  0  0  0  0  0  0  0
   -1.0595    8.3232   -0.0000 O   0  0  0  0  0  0  0  0  0  0  0  0
   -3.5318    7.6286   -0.0000 N   0  0  0  0  0  0  0  0  0  0  0  0
   -0.0235    9.4063   -0.0000 C   0  0  0  0  0  0  0  0  0  0  0  0
   -4.9445    7.3814   -0.0000 C   0  0  0  0  0  0  0  0  0  0  0  0
   -2.8137    9.0060   -0.0000 C   0  0  0  0  0  0  0  0  0  0  0  0
   -5.3448    5.9452   -0.0000 O   0  0  0  0  0  0  0  0  0  0  0  0
   -6.0629    8.3468   -0.0000 C   0  0  0  0  0  0  0  0  0  0  0  0
   -3.4258   10.3952   -0.0000 C   0  0  0  0  0  0  0  0  0  0  0  0
   -1.3421    8.8530   -0.0000 C   0  0  0  0  0  0  0  0  0  0  0  0
   -7.3696    7.6051   -0.0000 N   0  0  0  0  0  0  0  0  0  0  0  0
   -6.0864    9.8183   -0.0000 C   0  0  0  0  0  0  0  0  0  0  0  0
   -4.8856   10.7719   -0.0000 N   0  0  0  0  0  0  0  0  0  0  0  0
   -2.5547   11.6078   -0.0000 C   0  0  0  0  0  0  0  0  0  0  0  0
   -0.4591   10.0656   -0.0000 C   0  0  0  0  0  0  0  0  0  0  0  0
   -8.6764    8.3585   -0.0000 C   0  0  0  0  0  0  0  0  0  0  0  0
   -5.2035   12.2435   -0.0000 C   0  0  0  0  0  0  0  0  0  0  0  0
   -1.0831   11.4547   -0.0000 C   0  0  0  0  0  0  0  0  0  0  0  0
   -8.7000    9.8654   -0.0000 O   0  0  0  0  0  0  0  0  0  0  0  0
   -9.9714    7.6169   -0.0000 C   0  0  0  0  0  0  0  0  0  0  0  0
   -4.0969   13.2559   -0.0000 O   0  0  0  0  0  0  0  0  0  0  0  0
   -6.6397   12.7262   -0.0000 C   0  0  0  0  0  0  0  0  0  0  0  0
  -11.2782    8.3703   -0.0000 N   0  0  0  0  0  0  0  0  0  0  0  0
   -9.9714    6.1335   -0.0000 C   0  0  0  0  0  0  0  0  0  0  0  0
   -6.9576   14.1978   -0.0000 C   0  0  0  0  0  0  0  0  0  0  0  0
  -12.5731    7.6286   -0.0000 C   0  0  0  0  0  0  0  0  0  0  0  0
   -8.3939   14.6804   -0.0000 C   0  0  0  0  0  0  0  0  0  0  0  0
   -5.8510   15.2102   -0.0000 C   0  0  0  0  0  0  0  0  0  0  0  0
    3.5789   10.6424   -0.0000 Cl  0  0  0  0  0  0  0  0  0  0  0  0
  1  2  1  0  0  0  0
  2  3  2  0  0  0  0
  2  4  1  0  0  0  0
  3  5  1  0  0  0  0
  4  6  2  0  0  0  0
  5  7  1  0  0  0  0
  5  8  2  0  0  0  0
  7  9  2  0  0  0  0
  8 10  1  0  0  0  0
  9 11  1  0  0  0  0
  9 12  1  0  0  0  0
 11 13  1  0  0  0  0
 12 14  1  0  0  0  0
 13 15  1  0  0  0  0
 14 16  1  0  0  0  0
 14 17  1  0  0  0  0
 16 18  2  0  0  0  0
 16 19  1  0  0  0  0
 17 20  2  0  0  0  0
 17 21  1  0  0  0  0
 19 22  1  1  0  0  0
 19 23  1  0  0  0  0
 20 24  1  0  0  0  0
 20 25  1  0  0  0  0
 21 26  2  0  0  0  0
 22 27  1  0  0  0  0
 24 28  1  0  0  0  0
 25 29  2  0  0  0  0
 27 30  2  0  0  0  0
 27 31  1  0  0  0  0
 28 32  2  0  0  0  0
 28 33  1  0  0  0  0
 31 34  1  6  0  0  0
 31 35  1  0  0  0  0
 33 36  1  0  0  0  0
 34 37  1  0  0  0  0
 36 38  1  0  0  0  0
 36 39  1  0  0  0  0
  6  7  1  0  0  0  0
 10 11  2  0  0  0  0
 23 24  1  0  0  0  0
 26 29  1  0  0  0  0
M  END
>  <MolRegNo>
1585477

>  <m>
=

>  <Value>
1100

>  <Unit>
nM

>  <Type>
IC50

>  <pValue>
5.96

>  <Ligand Efficiency>
0

>  <Binding Efficiency>
0

>  <Surface Efficiency>
0

>  <Assay Index>
802910

>  <Assay Category>


>  <Assay Organism>
Homo sapiens

>  <Target ID>
17045

>  <Target Name>
Cytochrome P450 3A4

>  <Target Organism>
Homo sapiens

>  <Target Description>
Target is a single protein chain

>  <Sequence Accession>
P08684

>  <Reference>
J Med Chem 56 (20), 7788-7803 (2013)

>  <Pubmed ID>
24093940

>  <DOI>
10.1021/jm400732v

$$$$
1585481
Actelion Java MolfileCreator 1.0

 43 46  0  0  0  0  0  0  0  0999 V2000
    0.0000   -0.0000   -0.0000 Br  0  0  0  0  0  0  0  0  0  0  0  0
   -0.4120    1.4478   -0.0000 C   0  0  0  0  0  0  0  0  0  0  0  0
    0.6121    2.5189   -0.0000 C   0  0  0  0  0  0  0  0  0  0  0  0
   -1.8715    1.8362   -0.0000 C   0  0  0  0  0  0  0  0  0  0  0  0
    0.2119    3.9549   -0.0000 C   0  0  0  0  0  0  0  0  0  0  0  0
   -2.2717    3.2840   -0.0000 C   0  0  0  0  0  0  0  0  0  0  0  0
   -1.2359    4.3434   -0.0000 C   0  0  0  0  0  0  0  0  0  0  0  0
    1.2477    5.0378   -0.0000 C   0  0  0  0  0  0  0  0  0  0  0  0
   -1.6479    5.7912   -0.0000 C   0  0  0  0  0  0  0  0  0  0  0  0
    0.8239    6.4974   -0.0000 C   0  0  0  0  0  0  0  0  0  0  0  0
   -0.6238    6.8741   -0.0000 C   0  0  0  0  0  0  0  0  0  0  0  0
   -3.1074    6.1796   -0.0000 C   0  0  0  0  0  0  0  0  0  0  0  0
   -1.0476    8.3218   -0.0000 O   0  0  0  0  0  0  0  0  0  0  0  0
   -3.5194    7.6274   -0.0000 N   0  0  0  0  0  0  0  0  0  0  0  0
   -0.0118    9.4047   -0.0000 C   0  0  0  0  0  0  0  0  0  0  0  0
   -4.9319    7.3802   -0.0000 C   0  0  0  0  0  0  0  0  0  0  0  0
   -2.8014    9.0045   -0.0000 C   0  0  0  0  0  0  0  0  0  0  0  0
   -5.3321    5.9442   -0.0000 O   0  0  0  0  0  0  0  0  0  0  0  0
   -6.0501    8.3454   -0.0000 C   0  0  0  0  0  0  0  0  0  0  0  0
   -3.4135   10.3935   -0.0000 C   0  0  0  0  0  0  0  0  0  0  0  0
   -1.3301    8.8515   -0.0000 C   0  0  0  0  0  0  0  0  0  0  0  0
   -7.3567    7.6038   -0.0000 N   0  0  0  0  0  0  0  0  0  0  0  0
   -6.0737    9.8167   -0.0000 C   0  0  0  0  0  0  0  0  0  0  0  0
   -4.8730   10.7701   -0.0000 N   0  0  0  0  0  0  0  0  0  0  0  0
   -2.5425   11.6059   -0.0000 C   0  0  0  0  0  0  0  0  0  0  0  0
   -0.4473   10.0639   -0.0000 C   0  0  0  0  0  0  0  0  0  0  0  0
   -8.6632    8.3572   -0.0000 C   0  0  0  0  0  0  0  0  0  0  0  0
   -5.1909   12.2415   -0.0000 C   0  0  0  0  0  0  0  0  0  0  0  0
   -1.0711   11.4528   -0.0000 C   0  0  0  0  0  0  0  0  0  0  0  0
   -8.6867    9.8638   -0.0000 O   0  0  0  0  0  0  0  0  0  0  0  0
   -9.9580    7.6156   -0.0000 C   0  0  0  0  0  0  0  0  0  0  0  0
   -4.0844   13.2537   -0.0000 O   0  0  0  0  0  0  0  0  0  0  0  0
   -6.6269   12.7241   -0.0000 C   0  0  0  0  0  0  0  0  0  0  0  0
  -11.2645    8.3689   -0.0000 N   0  0  0  0  0  0  0  0  0  0  0  0
   -9.9580    6.1325   -0.0000 C   0  0  0  0  0  0  0  0  0  0  0  0
   -6.9329   14.1954   -0.0000 C   0  0  0  0  0  0  0  0  0  0  0  0
   -7.7333   11.7353   -0.0000 C   0  0  0  0  0  0  0  0  0  0  0  0
  -12.5593    7.6274   -0.0000 C   0  0  0  0  0  0  0  0  0  0  0  0
   -5.8265   15.1959   -0.0000 F   0  0  0  0  0  0  0  0  0  0  0  0
   -8.3689   14.6780   -0.0000 C   0  0  0  0  0  0  0  0  0  0  0  0
   -9.1693   12.2062   -0.0000 C   0  0  0  0  0  0  0  0  0  0  0  0
   -9.4989   13.6893   -0.0000 C   0  0  0  0  0  0  0  0  0  0  0  0
    2.6366   11.8648   -0.0000 Cl  0  0  0  0  0  0  0  0  0  0  0  0
  1  2  1  0  0  0  0
  2  3  2  0  0  0  0
  2  4  1  0  0  0  0
  3  5  1  0  0  0  0
  4  6  2  0  0  0  0
  5  7  1  0  0  0  0
  5  8  2  0  0  0  0
  7  9  2  0  0  0  0
  8 10  1  0  0  0  0
  9 11  1  0  0  0  0
  9 12  1  0  0  0  0
 11 13  1  0  0  0  0
 12 14  1  0  0  0  0
 13 15  1  0  0  0  0
 14 16  1  0  0  0  0
 14 17  1  0  0  0  0
 16 18  2  0  0  0  0
 16 19  1  0  0  0  0
 17 20  2  0  0  0  0
 17 21  1  0  0  0  0
 19 22  1  1  0  0  0
 19 23  1  0  0  0  0
 20 24  1  0  0  0  0
 20 25  1  0  0  0  0
 21 26  2  0  0  0  0
 22 27  1  0  0  0  0
 24 28  1  0  0  0  0
 25 29  2  0  0  0  0
 27 30  2  0  0  0  0
 27 31  1  0  0  0  0
 28 32  2  0  0  0  0
 28 33  1  0  0  0  0
 31 34  1  6  0  0  0
 31 35  1  0  0  0  0
 33 36  2  0  0  0  0
 33 37  1  0  0  0  0
 34 38  1  0  0  0  0
 36 39  1  0  0  0  0
 36 40  1  0  0  0  0
 37 41  2  0  0  0  0
 40 42  2  0  0  0  0
  6  7  1  0  0  0  0
 10 11  2  0  0  0  0
 23 24  1  0  0  0  0
 26 29  1  0  0  0  0
 41 42  1  0  0  0  0
M  END
>  <MolRegNo>
1585481

>  <m>
=

>  <Value>
860

>  <Unit>
nM

>  <Type>
IC50

>  <pValue>
6.07

>  <Ligand Efficiency>
0

>  <Binding Efficiency>
0

>  <Surface Efficiency>
0

>  <Assay Index>
802910

>  <Assay Category>


>  <Assay Organism>
Homo sapiens

>  <Target ID>
17045

>  <Target Name>
Cytochrome P450 3A4

>  <Target Organism>
Homo sapiens

>  <Target Description>
Target is a single protein chain

>  <Sequence Accession>
P08684

>  <Reference>
J Med Chem 56 (20), 7788-7803 (2013)

>  <Pubmed ID>
24093940

>  <DOI>
10.1021/jm400732v

$$$$
1587859
Actelion Java MolfileCreator 1.0

 31 35  0  0  0  0  0  0  0  0999 V2000
    0.0000   -0.0000   -0.0000 F   0  0  0  0  0  0  0  0  0  0  0  0
   -0.0118    1.5100   -0.0000 C   0  0  0  0  0  0  0  0  0  0  0  0
   -1.3213    2.2651   -0.0000 C   0  0  0  0  0  0  0  0  0  0  0  0
    1.2741    2.2769   -0.0000 C   0  0  0  0  0  0  0  0  0  0  0  0
   -2.5364    1.3921   -0.0000 C   0  0  0  0  0  0  0  0  0  0  0  0
   -1.3331    3.7751   -0.0000 C   0  0  0  0  0  0  0  0  0  0  0  0
    1.2505    3.7869   -0.0000 C   0  0  0  0  0  0  0  0  0  0  0  0
    2.6898    1.8286   -0.0000 C   0  0  0  0  0  0  0  0  0  0  0  0
   -3.9757    1.8640   -0.0000 C   0  0  0  0  0  0  0  0  0  0  0  0
   -2.5482   -0.0944   -0.0000 C   0  0  0  0  0  0  0  0  0  0  0  0
   -0.0590    4.5301   -0.0000 C   0  0  0  0  0  0  0  0  0  0  0  0
    2.6544    4.2706   -0.0000 N   0  0  0  0  0  0  0  0  0  0  0  0
    3.5510    3.0555   -0.0000 C   0  0  0  0  0  0  0  0  0  0  0  0
   -4.6009    3.2442   -0.0000 C   0  0  0  0  0  0  0  0  0  0  0  0
   -4.8605    0.6606   -0.0000 C   0  0  0  0  0  0  0  0  0  0  0  0
   -3.9875   -0.5427   -0.0000 N   0  0  0  0  0  0  0  0  0  0  0  0
    3.0909    5.7099   -0.0000 C   0  0  0  0  0  0  0  0  0  0  0  0
   -6.0992    3.4094   -0.0000 N   0  0  0  0  0  0  0  0  0  0  0  0
   -3.7397    4.4712   -0.0000 N   0  0  0  0  0  0  0  0  0  0  0  0
   -6.3587    0.8258   -0.0000 N   0  0  0  0  0  0  0  0  0  0  0  0
   -4.4594   -1.9465   -0.0000 C   0  0  0  0  0  0  0  0  0  0  0  0
    2.0763    6.8306   -0.0000 O   0  0  0  0  0  0  0  0  0  0  0  0
    4.5419    6.0402   -0.0000 C   0  0  0  0  0  0  0  0  0  0  0  0
   -6.9840    2.2061   -0.0000 C   0  0  0  0  0  0  0  0  0  0  0  0
    4.9784    7.4795   -0.0000 N   0  0  0  0  0  0  0  0  0  0  0  0
    6.3823    7.9631   -0.0000 N   0  0  0  0  0  0  0  0  0  0  0  0
    4.0936    8.6946   -0.0000 C   0  0  0  0  0  0  0  0  0  0  0  0
    6.3705    9.4732   -0.0000 C   0  0  0  0  0  0  0  0  0  0  0  0
    4.9548    9.9215   -0.0000 C   0  0  0  0  0  0  0  0  0  0  0  0
    2.5836    8.7064   -0.0000 C   0  0  0  0  0  0  0  0  0  0  0  0
    7.5620   10.3698   -0.0000 C   0  0  0  0  0  0  0  0  0  0  0  0
  1  2  1  0  0  0  0
  2  3  2  0  0  0  0
  2  4  1  0  0  0  0
  3  5  1  0  0  0  0
  3  6  1  0  0  0  0
  4  7  2  0  0  0  0
  4  8  1  0  0  0  0
  5  9  1  0  0  0  0
  5 10  2  0  0  0  0
  6 11  2  0  0  0  0
  7 12  1  0  0  0  0
  8 13  1  0  0  0  0
  9 14  2  0  0  0  0
  9 15  1  0  0  0  0
 10 16  1  0  0  0  0
 12 17  1  0  0  0  0
 14 18  1  0  0  0  0
 14 19  1  0  0  0  0
 15 20  2  0  0  0  0
 16 21  1  0  0  0  0
 17 22  2  0  0  0  0
 17 23  1  0  0  0  0
 18 24  2  0  0  0  0
 23 25  1  0  0  0  0
 25 26  1  0  0  0  0
 25 27  1  0  0  0  0
 26 28  2  0  0  0  0
 27 29  2  0  0  0  0
 27 30  1  0  0  0  0
 28 31  1  0  0  0  0
  7 11  1  0  0  0  0
 12 13  1  0  0  0  0
 15 16  1  0  0  0  0
 20 24  1  0  0  0  0
 28 29  1  0  0  0  0
M  END
>  <MolRegNo>
1587859

>  <m>
=

>  <Value>
20500

>  <Unit>
nM

>  <Type>
IC50

>  <pValue>
4.69

>  <Ligand Efficiency>
0

>  <Binding Efficiency>
0

>  <Surface Efficiency>
0

>  <Assay Index>
807213

>  <Assay Category>


>  <Assay Organism>
Homo sapiens

>  <Target ID>
17045

>  <Target Name>
Cytochrome P450 3A4

>  <Target Organism>
Homo sapiens

>  <Target Description>
Target is a single protein chain

>  <Sequence Accession>
P08684

>  <Reference>
ACS Med Chem Lett 4 (10), 964-968 (2013)

>  <Pubmed ID>
24900593

>  <DOI>
10.1021/ml400228e

$$$$
1587855
Actelion Java MolfileCreator 1.0

 34 38  0  0  0  0  0  0  0  0999 V2000
    0.0000   -0.0000   -0.0000 F   0  0  0  0  0  0  0  0  0  0  0  0
   -0.0118    1.5115   -0.0000 C   0  0  0  0  0  0  0  0  0  0  0  0
   -1.3225    2.2672   -0.0000 C   0  0  0  0  0  0  0  0  0  0  0  0
    1.2753    2.2790   -0.0000 C   0  0  0  0  0  0  0  0  0  0  0  0
   -2.5388    1.3934   -0.0000 C   0  0  0  0  0  0  0  0  0  0  0  0
   -1.3343    3.7787   -0.0000 C   0  0  0  0  0  0  0  0  0  0  0  0
    1.2517    3.7905   -0.0000 C   0  0  0  0  0  0  0  0  0  0  0  0
    2.6923    1.8303   -0.0000 C   0  0  0  0  0  0  0  0  0  0  0  0
   -3.9794    1.8657   -0.0000 C   0  0  0  0  0  0  0  0  0  0  0  0
   -2.5506   -0.0945   -0.0000 C   0  0  0  0  0  0  0  0  0  0  0  0
   -0.0590    4.5344   -0.0000 C   0  0  0  0  0  0  0  0  0  0  0  0
    2.6569    4.2746   -0.0000 N   0  0  0  0  0  0  0  0  0  0  0  0
    3.5543    3.0583   -0.0000 C   0  0  0  0  0  0  0  0  0  0  0  0
   -4.6052    3.2473   -0.0000 C   0  0  0  0  0  0  0  0  0  0  0  0
   -4.8650    0.6613   -0.0000 C   0  0  0  0  0  0  0  0  0  0  0  0
   -3.9912   -0.5432   -0.0000 N   0  0  0  0  0  0  0  0  0  0  0  0
    3.0938    5.7152   -0.0000 C   0  0  0  0  0  0  0  0  0  0  0  0
   -6.1049    3.4126   -0.0000 N   0  0  0  0  0  0  0  0  0  0  0  0
   -3.7432    4.4753   -0.0000 N   0  0  0  0  0  0  0  0  0  0  0  0
   -6.3647    0.8266   -0.0000 N   0  0  0  0  0  0  0  0  0  0  0  0
   -4.4635   -1.9484   -0.0000 C   0  0  0  0  0  0  0  0  0  0  0  0
    2.0783    6.8370   -0.0000 O   0  0  0  0  0  0  0  0  0  0  0  0
    4.5462    6.0458   -0.0000 C   0  0  0  0  0  0  0  0  0  0  0  0
   -6.9905    2.2082   -0.0000 C   0  0  0  0  0  0  0  0  0  0  0  0
    4.9831    7.4865   -0.0000 C   0  0  0  0  0  0  0  0  0  0  0  0
    6.4473    7.8171   -0.0000 N   0  0  0  0  0  0  0  0  0  0  0  0
    3.9794    8.5964   -0.0000 C   0  0  0  0  0  0  0  0  0  0  0  0
    6.8842    9.2577   -0.0000 C   0  0  0  0  0  0  0  0  0  0  0  0
    4.4163   10.0252   -0.0000 C   0  0  0  0  0  0  0  0  0  0  0  0
    5.8687   10.3677   -0.0000 C   0  0  0  0  0  0  0  0  0  0  0  0
    8.3367    9.5883   -0.0000 C   0  0  0  0  0  0  0  0  0  0  0  0
    8.7736   11.0289   -0.0000 F   0  0  0  0  0  0  0  0  0  0  0  0
    9.3286    8.5020   -0.0000 F   0  0  0  0  0  0  0  0  0  0  0  0
    9.7655    9.9898   -0.0000 F   0  0  0  0  0  0  0  0  0  0  0  0
  1  2  1  0  0  0  0
  2  3  2  0  0  0  0
  2  4  1  0  0  0  0
  3  5  1  0  0  0  0
  3  6  1  0  0  0  0
  4  7  2  0  0  0  0
  4  8  1  0  0  0  0
  5  9  1  0  0  0  0
  5 10  2  0  0  0  0
  6 11  2  0  0  0  0
  7 12  1  0  0  0  0
  8 13  1  0  0  0  0
  9 14  2  0  0  0  0
  9 15  1  0  0  0  0
 10 16  1  0  0  0  0
 12 17  1  0  0  0  0
 14 18  1  0  0  0  0
 14 19  1  0  0  0  0
 15 20  2  0  0  0  0
 16 21  1  0  0  0  0
 17 22  2  0  0  0  0
 17 23  1  0  0  0  0
 18 24  2  0  0  0  0
 23 25  1  0  0  0  0
 25 26  2  0  0  0  0
 25 27  1  0  0  0  0
 26 28  1  0  0  0  0
 27 29  2  0  0  0  0
 28 30  2  0  0  0  0
 28 31  1  0  0  0  0
 31 32  1  0  0  0  0
 31 33  1  0  0  0  0
 31 34  1  0  0  0  0
  7 11  1  0  0  0  0
 12 13  1  0  0  0  0
 15 16  1  0  0  0  0
 20 24  1  0  0  0  0
 29 30  1  0  0  0  0
M  END
>  <MolRegNo>
1587855

>  <m>
=

>  <Value>
7400

>  <Unit>
nM

>  <Type>
IC50

>  <pValue>
5.13

>  <Ligand Efficiency>
0

>  <Binding Efficiency>
0

>  <Surface Efficiency>
0

>  <Assay Index>
807213

>  <Assay Category>


>  <Assay Organism>
Homo sapiens

>  <Target ID>
17045

>  <Target Name>
Cytochrome P450 3A4

>  <Target Organism>
Homo sapiens

>  <Target Description>
Target is a single protein chain

>  <Sequence Accession>
P08684

>  <Reference>
ACS Med Chem Lett 4 (10), 964-968 (2013)

>  <Pubmed ID>
24900593

>  <DOI>
10.1021/ml400228e

$$$$
1587853
Actelion Java MolfileCreator 1.0

 31 35  0  0  0  0  0  0  0  0999 V2000
    0.0000   -0.0000   -0.0000 F   0  0  0  0  0  0  0  0  0  0  0  0
   -0.0118    1.5103   -0.0000 C   0  0  0  0  0  0  0  0  0  0  0  0
   -1.3215    2.2655   -0.0000 C   0  0  0  0  0  0  0  0  0  0  0  0
    1.2743    2.2773   -0.0000 C   0  0  0  0  0  0  0  0  0  0  0  0
   -2.5369    1.3923   -0.0000 C   0  0  0  0  0  0  0  0  0  0  0  0
   -1.3333    3.7758   -0.0000 C   0  0  0  0  0  0  0  0  0  0  0  0
    1.2507    3.7876   -0.0000 C   0  0  0  0  0  0  0  0  0  0  0  0
    2.6903    1.8289   -0.0000 C   0  0  0  0  0  0  0  0  0  0  0  0
   -3.9764    1.8643   -0.0000 C   0  0  0  0  0  0  0  0  0  0  0  0
   -2.5487   -0.0944   -0.0000 C   0  0  0  0  0  0  0  0  0  0  0  0
   -0.0590    4.5310   -0.0000 C   0  0  0  0  0  0  0  0  0  0  0  0
    2.6549    4.2714   -0.0000 N   0  0  0  0  0  0  0  0  0  0  0  0
    3.5516    3.0561   -0.0000 C   0  0  0  0  0  0  0  0  0  0  0  0
   -4.6018    3.2448   -0.0000 C   0  0  0  0  0  0  0  0  0  0  0  0
   -4.8614    0.6608   -0.0000 C   0  0  0  0  0  0  0  0  0  0  0  0
   -3.9882   -0.5428   -0.0000 N   0  0  0  0  0  0  0  0  0  0  0  0
    3.0915    5.7109   -0.0000 C   0  0  0  0  0  0  0  0  0  0  0  0
   -6.1003    3.4100   -0.0000 N   0  0  0  0  0  0  0  0  0  0  0  0
   -3.7404    4.4720   -0.0000 N   0  0  0  0  0  0  0  0  0  0  0  0
   -6.3599    0.8260   -0.0000 N   0  0  0  0  0  0  0  0  0  0  0  0
   -4.4602   -1.9469   -0.0000 C   0  0  0  0  0  0  0  0  0  0  0  0
    2.0767    6.8319   -0.0000 O   0  0  0  0  0  0  0  0  0  0  0  0
    4.5428    6.0413   -0.0000 C   0  0  0  0  0  0  0  0  0  0  0  0
   -6.9853    2.2065   -0.0000 C   0  0  0  0  0  0  0  0  0  0  0  0
    4.9794    7.4808   -0.0000 C   0  0  0  0  0  0  0  0  0  0  0  0
    6.4425    7.8112   -0.0000 N   0  0  0  0  0  0  0  0  0  0  0  0
    3.9764    8.5900   -0.0000 C   0  0  0  0  0  0  0  0  0  0  0  0
    6.8791    9.2508   -0.0000 C   0  0  0  0  0  0  0  0  0  0  0  0
    4.4130   10.0177   -0.0000 C   0  0  0  0  0  0  0  0  0  0  0  0
    5.8643   10.3599   -0.0000 C   0  0  0  0  0  0  0  0  0  0  0  0
    8.3304    9.5811   -0.0000 C   0  0  0  0  0  0  0  0  0  0  0  0
  1  2  1  0  0  0  0
  2  3  2  0  0  0  0
  2  4  1  0  0  0  0
  3  5  1  0  0  0  0
  3  6  1  0  0  0  0
  4  7  2  0  0  0  0
  4  8  1  0  0  0  0
  5  9  1  0  0  0  0
  5 10  2  0  0  0  0
  6 11  2  0  0  0  0
  7 12  1  0  0  0  0
  8 13  1  0  0  0  0
  9 14  2  0  0  0  0
  9 15  1  0  0  0  0
 10 16  1  0  0  0  0
 12 17  1  0  0  0  0
 14 18  1  0  0  0  0
 14 19  1  0  0  0  0
 15 20  2  0  0  0  0
 16 21  1  0  0  0  0
 17 22  2  0  0  0  0
 17 23  1  0  0  0  0
 18 24  2  0  0  0  0
 23 25  1  0  0  0  0
 25 26  2  0  0  0  0
 25 27  1  0  0  0  0
 26 28  1  0  0  0  0
 27 29  2  0  0  0  0
 28 30  2  0  0  0  0
 28 31  1  0  0  0  0
  7 11  1  0  0  0  0
 12 13  1  0  0  0  0
 15 16  1  0  0  0  0
 20 24  1  0  0  0  0
 29 30  1  0  0  0  0
M  END
>  <MolRegNo>
1587853

>  <m>
=

>  <Value>
19700

>  <Unit>
nM

>  <Type>
IC50

>  <pValue>
4.71

>  <Ligand Efficiency>
0

>  <Binding Efficiency>
0

>  <Surface Efficiency>
0

>  <Assay Index>
807213

>  <Assay Category>


>  <Assay Organism>
Homo sapiens

>  <Target ID>
17045

>  <Target Name>
Cytochrome P450 3A4

>  <Target Organism>
Homo sapiens

>  <Target Description>
Target is a single protein chain

>  <Sequence Accession>
P08684

>  <Reference>
ACS Med Chem Lett 4 (10), 964-968 (2013)

>  <Pubmed ID>
24900593

>  <DOI>
10.1021/ml400228e

$$$$
1430615
Actelion Java MolfileCreator 1.0

 33 37  0  0  0  0  0  0  0  0999 V2000
    0.0000   -0.0000   -0.0000 F   0  0  0  0  0  0  0  0  0  0  0  0
   -0.7813    1.2904   -0.0000 C   0  0  0  0  0  0  0  0  0  0  0  0
   -0.0710    2.6044   -0.0000 F   0  0  0  0  0  0  0  0  0  0  0  0
    0.6985    1.3022   -0.0000 F   0  0  0  0  0  0  0  0  0  0  0  0
   -2.2848    1.2785   -0.0000 C   0  0  0  0  0  0  0  0  0  0  0  0
   -3.0661    2.5689   -0.0000 C   0  0  0  0  0  0  0  0  0  0  0  0
   -3.0188   -0.0237   -0.0000 C   0  0  0  0  0  0  0  0  0  0  0  0
   -4.5578    2.5571   -0.0000 C   0  0  0  0  0  0  0  0  0  0  0  0
   -4.5223   -0.0355   -0.0000 C   0  0  0  0  0  0  0  0  0  0  0  0
   -5.3036    1.2667   -0.0000 C   0  0  0  0  0  0  0  0  0  0  0  0
   -5.3391    3.8475   -0.0000 C   0  0  0  0  0  0  0  0  0  0  0  0
   -6.8426    3.8356   -0.0000 C   0  0  0  0  0  0  0  0  0  0  0  0
   -7.6239    5.1260   -0.0000 O   0  0  0  0  0  0  0  0  0  0  0  0
   -7.5766    2.5453   -0.0000 N   0  0  0  0  0  0  0  0  0  0  0  0
   -9.0090    2.1072   -0.0000 C   0  0  0  0  0  0  0  0  0  0  0  0
   -6.7124    1.3377   -0.0000 C   0  0  0  0  0  0  0  0  0  0  0  0
   -9.0327    0.6274   -0.0000 C   0  0  0  0  0  0  0  0  0  0  0  0
  -10.3231    2.8649   -0.0000 C   0  0  0  0  0  0  0  0  0  0  0  0
   -7.6121    0.1421   -0.0000 C   0  0  0  0  0  0  0  0  0  0  0  0
  -10.3349   -0.1065   -0.0000 C   0  0  0  0  0  0  0  0  0  0  0  0
  -11.6253    2.1309   -0.0000 C   0  0  0  0  0  0  0  0  0  0  0  0
  -11.6371    0.6629   -0.0000 C   0  0  0  0  0  0  0  0  0  0  0  0
  -12.9393   -0.0710   -0.0000 C   0  0  0  0  0  0  0  0  0  0  0  0
  -14.0640    0.9471   -0.0000 C   0  0  0  0  0  0  0  0  0  0  0  0
  -13.5668   -1.4324   -0.0000 C   0  0  0  0  0  0  0  0  0  0  0  0
  -14.0758    2.4624   -0.0000 C   0  0  0  0  0  0  0  0  0  0  0  0
  -15.3781    0.2131   -0.0000 C   0  0  0  0  0  0  0  0  0  0  0  0
  -15.0703   -1.2549   -0.0000 N   0  0  0  0  0  0  0  0  0  0  0  0
  -15.3781    3.2200   -0.0000 N   0  0  0  0  0  0  0  0  0  0  0  0
  -12.7973    3.2200   -0.0000 N   0  0  0  0  0  0  0  0  0  0  0  0
  -16.6803    0.9707   -0.0000 N   0  0  0  0  0  0  0  0  0  0  0  0
  -16.0884   -2.3558   -0.0000 C   0  0  0  0  0  0  0  0  0  0  0  0
  -16.6803    2.4861   -0.0000 C   0  0  0  0  0  0  0  0  0  0  0  0
  1  2  1  0  0  0  0
  2  3  1  0  0  0  0
  2  4  1  0  0  0  0
  2  5  1  0  0  0  0
  5  6  2  0  0  0  0
  5  7  1  0  0  0  0
  6  8  1  0  0  0  0
  7  9  2  0  0  0  0
  8 10  2  0  0  0  0
  8 11  1  0  0  0  0
 11 12  1  0  0  0  0
 12 13  2  0  0  0  0
 12 14  1  0  0  0  0
 14 15  1  0  0  0  0
 14 16  1  0  0  0  0
 15 17  2  0  0  0  0
 15 18  1  0  0  0  0
 16 19  1  0  0  0  0
 17 20  1  0  0  0  0
 18 21  2  0  0  0  0
 20 22  2  0  0  0  0
 22 23  1  0  0  0  0
 23 24  1  0  0  0  0
 23 25  2  0  0  0  0
 24 26  2  0  0  0  0
 24 27  1  0  0  0  0
 25 28  1  0  0  0  0
 26 29  1  0  0  0  0
 26 30  1  0  0  0  0
 27 31  2  0  0  0  0
 28 32  1  0  0  0  0
 29 33  2  0  0  0  0
  9 10  1  0  0  0  0
 17 19  1  0  0  0  0
 21 22  1  0  0  0  0
 27 28  1  0  0  0  0
 31 33  1  0  0  0  0
M  END
>  <MolRegNo>
1430615

>  <m>
=

>  <Value>
10000

>  <Unit>
nM

>  <Type>
IC50

>  <pValue>
5

>  <Ligand Efficiency>
0

>  <Binding Efficiency>
0

>  <Surface Efficiency>
0

>  <Assay Index>
807213

>  <Assay Category>


>  <Assay Organism>
Homo sapiens

>  <Target ID>
17045

>  <Target Name>
Cytochrome P450 3A4

>  <Target Organism>
Homo sapiens

>  <Target Description>
Target is a single protein chain

>  <Sequence Accession>
P08684

>  <Reference>
ACS Med Chem Lett 4 (10), 964-968 (2013)

>  <Pubmed ID>
24900593

>  <DOI>
10.1021/ml400228e

$$$$
1588474
Actelion Java MolfileCreator 1.0

 30 33  0  0  0  0  0  0  0  0999 V2000
    0.0000   -0.0000   -0.0000 Cl  0  0  0  0  0  0  0  0  0  0  0  0
   -1.3042   -0.7351   -0.0000 C   0  0  0  0  0  0  0  0  0  0  0  0
   -2.6085    0.0237   -0.0000 C   0  0  0  0  0  0  0  0  0  0  0  0
   -1.3161   -2.2172   -0.0000 C   0  0  0  0  0  0  0  0  0  0  0  0
   -2.6204    1.5295   -0.0000 C   0  0  0  0  0  0  0  0  0  0  0  0
   -3.9127   -0.6996   -0.0000 C   0  0  0  0  0  0  0  0  0  0  0  0
   -2.6322   -2.9523   -0.0000 C   0  0  0  0  0  0  0  0  0  0  0  0
   -1.3398    2.2884   -0.0000 C   0  0  0  0  0  0  0  0  0  0  0  0
   -3.9246    2.2884   -0.0000 C   0  0  0  0  0  0  0  0  0  0  0  0
   -3.9246   -2.1817   -0.0000 C   0  0  0  0  0  0  0  0  0  0  0  0
   -2.6441   -4.4344   -0.0000 Cl  0  0  0  0  0  0  0  0  0  0  0  0
   -1.3517    3.8060   -0.0000 C   0  0  0  0  0  0  0  0  0  0  0  0
   -0.0593    1.5532   -0.0000 C   0  0  0  0  0  0  0  0  0  0  0  0
   -5.3593    1.8259   -0.0000 C   0  0  0  0  0  0  0  0  0  0  0  0
   -3.9483    3.8060   -0.0000 C   0  0  0  0  0  0  0  0  0  0  0  0
   -2.6559    4.5649   -0.0000 N   0  0  0  0  0  0  0  0  0  0  0  0
   -0.0711    4.5649   -0.0000 C   0  0  0  0  0  0  0  0  0  0  0  0
    1.2212    2.3121   -0.0000 N   0  0  0  0  0  0  0  0  0  0  0  0
   -5.8217    0.4150   -0.0000 O   0  0  0  0  0  0  0  0  0  0  0  0
   -6.2604    3.0472   -0.0000 N   0  0  0  0  0  0  0  0  0  0  0  0
   -5.3948    4.2803   -0.0000 C   0  0  0  0  0  0  0  0  0  0  0  0
   -7.7662    3.0472   -0.0000 C   0  0  0  0  0  0  0  0  0  0  0  0
   -8.5369    4.3514   -0.0000 C   0  0  0  0  0  0  0  0  0  0  0  0
  -10.0427    4.3514   -0.0000 O   0  0  0  0  0  0  0  0  0  0  0  0
   -7.8136    5.6675   -0.0000 N   0  0  0  0  0  0  0  0  0  0  0  0
   -6.3315    5.6794   -0.0000 C   0  0  0  0  0  0  0  0  0  0  0  0
   -8.5843    6.9599   -0.0000 C   0  0  0  0  0  0  0  0  0  0  0  0
   -5.6083    6.9837   -0.0000 C   0  0  0  0  0  0  0  0  0  0  0  0
   -7.8492    8.2760   -0.0000 C   0  0  0  0  0  0  0  0  0  0  0  0
   -6.3671    8.2879   -0.0000 C   0  0  0  0  0  0  0  0  0  0  0  0
  1  2  1  0  0  0  0
  2  3  2  0  0  0  0
  2  4  1  0  0  0  0
  3  5  1  0  0  0  0
  3  6  1  0  0  0  0
  4  7  2  0  0  0  0
  5  8  2  0  0  0  0
  5  9  1  0  0  0  0
  6 10  2  0  0  0  0
  7 11  1  0  0  0  0
  8 12  1  0  0  0  0
  8 13  1  0  0  0  0
  9 14  1  0  0  0  0
  9 15  2  0  0  0  0
 12 16  2  0  0  0  0
 12 17  1  0  0  0  0
 13 18  1  0  0  0  0
 14 19  2  0  0  0  0
 14 20  1  0  0  0  0
 15 21  1  0  0  0  0
 20 22  1  0  0  0  0
 22 23  1  0  0  0  0
 23 24  2  0  0  0  0
 23 25  1  0  0  0  0
 25 26  1  0  0  0  0
 25 27  1  0  0  0  0
 26 28  1  0  0  0  0
 27 29  1  0  0  0  0
 28 30  1  0  0  0  0
  7 10  1  0  0  0  0
 15 16  1  0  0  0  0
 20 21  1  0  0  0  0
 29 30  1  0  0  0  0
M  END
>  <MolRegNo>
1588474

>  <m>
=

>  <Value>
8200

>  <Unit>
nM

>  <Type>
IC50

>  <pValue>
5.09

>  <Ligand Efficiency>
0

>  <Binding Efficiency>
0

>  <Surface Efficiency>
0

>  <Assay Index>
805535

>  <Assay Category>


>  <Assay Organism>
Homo sapiens

>  <Target ID>
17045

>  <Target Name>
Cytochrome P450 3A4

>  <Target Organism>
Homo sapiens

>  <Target Description>
Target is a single protein chain

>  <Sequence Accession>
P08684

>  <Reference>
J Med Chem 56 (18), 7343-7357 (2013)

>  <Pubmed ID>
23964740

>  <DOI>
10.1021/jm4008906

$$$$
1588473
Actelion Java MolfileCreator 1.0

 29 32  0  0  0  0  0  0  0  0999 V2000
    0.0000   -0.0000   -0.0000 Cl  0  0  0  0  0  0  0  0  0  0  0  0
   -1.3041   -0.7350   -0.0000 C   0  0  0  0  0  0  0  0  0  0  0  0
   -2.6081    0.0237   -0.0000 C   0  0  0  0  0  0  0  0  0  0  0  0
   -1.3159   -2.2169   -0.0000 C   0  0  0  0  0  0  0  0  0  0  0  0
   -2.6200    1.5293   -0.0000 C   0  0  0  0  0  0  0  0  0  0  0  0
   -3.9122   -0.6995   -0.0000 C   0  0  0  0  0  0  0  0  0  0  0  0
   -2.6318   -2.9519   -0.0000 C   0  0  0  0  0  0  0  0  0  0  0  0
   -1.3396    2.2880   -0.0000 C   0  0  0  0  0  0  0  0  0  0  0  0
   -3.9241    2.2880   -0.0000 C   0  0  0  0  0  0  0  0  0  0  0  0
   -3.9241   -2.1814   -0.0000 C   0  0  0  0  0  0  0  0  0  0  0  0
   -2.6437   -4.4338   -0.0000 Cl  0  0  0  0  0  0  0  0  0  0  0  0
   -1.3515    3.8055   -0.0000 C   0  0  0  0  0  0  0  0  0  0  0  0
   -0.0593    1.5530   -0.0000 C   0  0  0  0  0  0  0  0  0  0  0  0
   -5.3585    1.8257   -0.0000 C   0  0  0  0  0  0  0  0  0  0  0  0
   -3.9478    3.8055   -0.0000 C   0  0  0  0  0  0  0  0  0  0  0  0
   -2.6556    4.5642   -0.0000 N   0  0  0  0  0  0  0  0  0  0  0  0
   -0.0711    4.5642   -0.0000 C   0  0  0  0  0  0  0  0  0  0  0  0
    1.2211    2.3118   -0.0000 N   0  0  0  0  0  0  0  0  0  0  0  0
   -5.8209    0.4149   -0.0000 O   0  0  0  0  0  0  0  0  0  0  0  0
   -6.2595    3.0468   -0.0000 N   0  0  0  0  0  0  0  0  0  0  0  0
   -5.3941    4.2797   -0.0000 C   0  0  0  0  0  0  0  0  0  0  0  0
   -7.7651    3.0468   -0.0000 C   0  0  0  0  0  0  0  0  0  0  0  0
   -8.5357    4.3508   -0.0000 C   0  0  0  0  0  0  0  0  0  0  0  0
  -10.0413    4.3508   -0.0000 O   0  0  0  0  0  0  0  0  0  0  0  0
   -7.8126    5.6668   -0.0000 N   0  0  0  0  0  0  0  0  0  0  0  0
   -6.3307    5.6549   -0.0000 C   0  0  0  0  0  0  0  0  0  0  0  0
   -8.2512    7.1131   -0.0000 C   0  0  0  0  0  0  0  0  0  0  0  0
   -5.8446    7.0775   -0.0000 C   0  0  0  0  0  0  0  0  0  0  0  0
   -7.0301    7.9785   -0.0000 C   0  0  0  0  0  0  0  0  0  0  0  0
  1  2  1  0  0  0  0
  2  3  2  0  0  0  0
  2  4  1  0  0  0  0
  3  5  1  0  0  0  0
  3  6  1  0  0  0  0
  4  7  2  0  0  0  0
  5  8  2  0  0  0  0
  5  9  1  0  0  0  0
  6 10  2  0  0  0  0
  7 11  1  0  0  0  0
  8 12  1  0  0  0  0
  8 13  1  0  0  0  0
  9 14  1  0  0  0  0
  9 15  2  0  0  0  0
 12 16  2  0  0  0  0
 12 17  1  0  0  0  0
 13 18  1  0  0  0  0
 14 19  2  0  0  0  0
 14 20  1  0  0  0  0
 15 21  1  0  0  0  0
 20 22  1  0  0  0  0
 22 23  1  0  0  0  0
 23 24  2  0  0  0  0
 23 25  1  0  0  0  0
 25 26  1  0  0  0  0
 25 27  1  0  0  0  0
 26 28  1  0  0  0  0
 27 29  1  0  0  0  0
  7 10  1  0  0  0  0
 15 16  1  0  0  0  0
 20 21  1  0  0  0  0
 28 29  1  0  0  0  0
M  END
>  <MolRegNo>
1588473

>  <m>
=

>  <Value>
23000

>  <Unit>
nM

>  <Type>
IC50

>  <pValue>
4.64

>  <Ligand Efficiency>
0

>  <Binding Efficiency>
0

>  <Surface Efficiency>
0

>  <Assay Index>
805535

>  <Assay Category>


>  <Assay Organism>
Homo sapiens

>  <Target ID>
17045

>  <Target Name>
Cytochrome P450 3A4

>  <Target Organism>
Homo sapiens

>  <Target Description>
Target is a single protein chain

>  <Sequence Accession>
P08684

>  <Reference>
J Med Chem 56 (18), 7343-7357 (2013)

>  <Pubmed ID>
23964740

>  <DOI>
10.1021/jm4008906

$$$$
1588472
Actelion Java MolfileCreator 1.0

 29 31  0  0  0  0  0  0  0  0999 V2000
    0.0000   -0.0000   -0.0000 Cl  0  0  0  0  0  0  0  0  0  0  0  0
   -1.3029   -0.7344   -0.0000 C   0  0  0  0  0  0  0  0  0  0  0  0
   -2.6058    0.0237   -0.0000 C   0  0  0  0  0  0  0  0  0  0  0  0
   -1.3147   -2.2149   -0.0000 C   0  0  0  0  0  0  0  0  0  0  0  0
   -2.6176    1.5279   -0.0000 C   0  0  0  0  0  0  0  0  0  0  0  0
   -3.9087   -0.6988   -0.0000 C   0  0  0  0  0  0  0  0  0  0  0  0
   -2.6295   -2.9493   -0.0000 C   0  0  0  0  0  0  0  0  0  0  0  0
   -1.3384    2.2860   -0.0000 C   0  0  0  0  0  0  0  0  0  0  0  0
   -3.9205    2.2860   -0.0000 C   0  0  0  0  0  0  0  0  0  0  0  0
   -3.9205   -2.1794   -0.0000 C   0  0  0  0  0  0  0  0  0  0  0  0
   -2.6413   -4.4298   -0.0000 Cl  0  0  0  0  0  0  0  0  0  0  0  0
   -1.3503    3.8021   -0.0000 C   0  0  0  0  0  0  0  0  0  0  0  0
   -0.0592    1.5516   -0.0000 C   0  0  0  0  0  0  0  0  0  0  0  0
   -5.3537    1.8240   -0.0000 C   0  0  0  0  0  0  0  0  0  0  0  0
   -3.9442    3.8021   -0.0000 C   0  0  0  0  0  0  0  0  0  0  0  0
   -2.6532    4.5601   -0.0000 N   0  0  0  0  0  0  0  0  0  0  0  0
   -0.0711    4.5601   -0.0000 C   0  0  0  0  0  0  0  0  0  0  0  0
    1.2200    2.3097   -0.0000 N   0  0  0  0  0  0  0  0  0  0  0  0
   -5.8156    0.4146   -0.0000 O   0  0  0  0  0  0  0  0  0  0  0  0
   -6.2539    3.0440   -0.0000 N   0  0  0  0  0  0  0  0  0  0  0  0
   -5.3892    4.2758   -0.0000 C   0  0  0  0  0  0  0  0  0  0  0  0
   -7.7581    3.0440   -0.0000 C   0  0  0  0  0  0  0  0  0  0  0  0
   -8.5280    4.3469   -0.0000 C   0  0  0  0  0  0  0  0  0  0  0  0
  -10.0322    4.3469   -0.0000 O   0  0  0  0  0  0  0  0  0  0  0  0
   -7.7936    5.6616   -0.0000 N   0  0  0  0  0  0  0  0  0  0  0  0
   -8.5635    6.9645   -0.0000 C   0  0  0  0  0  0  0  0  0  0  0  0
   -6.3131    5.6853   -0.0000 C   0  0  0  0  0  0  0  0  0  0  0  0
   -7.8292    8.2793   -0.0000 C   0  0  0  0  0  0  0  0  0  0  0  0
   -8.5991    9.5821   -0.0000 C   0  0  0  0  0  0  0  0  0  0  0  0
  1  2  1  0  0  0  0
  2  3  2  0  0  0  0
  2  4  1  0  0  0  0
  3  5  1  0  0  0  0
  3  6  1  0  0  0  0
  4  7  2  0  0  0  0
  5  8  2  0  0  0  0
  5  9  1  0  0  0  0
  6 10  2  0  0  0  0
  7 11  1  0  0  0  0
  8 12  1  0  0  0  0
  8 13  1  0  0  0  0
  9 14  1  0  0  0  0
  9 15  2  0  0  0  0
 12 16  2  0  0  0  0
 12 17  1  0  0  0  0
 13 18  1  0  0  0  0
 14 19  2  0  0  0  0
 14 20  1  0  0  0  0
 15 21  1  0  0  0  0
 20 22  1  0  0  0  0
 22 23  1  0  0  0  0
 23 24  2  0  0  0  0
 23 25  1  0  0  0  0
 25 26  1  0  0  0  0
 25 27  1  0  0  0  0
 26 28  1  0  0  0  0
 28 29  1  0  0  0  0
  7 10  1  0  0  0  0
 15 16  1  0  0  0  0
 20 21  1  0  0  0  0
M  END
>  <MolRegNo>
1588472

>  <m>
=

>  <Value>
5500

>  <Unit>
nM

>  <Type>
IC50

>  <pValue>
5.26

>  <Ligand Efficiency>
0

>  <Binding Efficiency>
0

>  <Surface Efficiency>
0

>  <Assay Index>
805535

>  <Assay Category>


>  <Assay Organism>
Homo sapiens

>  <Target ID>
17045

>  <Target Name>
Cytochrome P450 3A4

>  <Target Organism>
Homo sapiens

>  <Target Description>
Target is a single protein chain

>  <Sequence Accession>
P08684

>  <Reference>
J Med Chem 56 (18), 7343-7357 (2013)

>  <Pubmed ID>
23964740

>  <DOI>
10.1021/jm4008906

$$$$
1588471
Actelion Java MolfileCreator 1.0

 27 29  0  0  0  0  0  0  0  0999 V2000
    0.0000   -0.0000   -0.0000 Cl  0  0  0  0  0  0  0  0  0  0  0  0
   -1.3035   -0.7347   -0.0000 C   0  0  0  0  0  0  0  0  0  0  0  0
   -2.6069    0.0237   -0.0000 C   0  0  0  0  0  0  0  0  0  0  0  0
   -1.3153   -2.2159   -0.0000 C   0  0  0  0  0  0  0  0  0  0  0  0
   -2.6188    1.5286   -0.0000 C   0  0  0  0  0  0  0  0  0  0  0  0
   -3.9104   -0.6991   -0.0000 C   0  0  0  0  0  0  0  0  0  0  0  0
   -2.6306   -2.9506   -0.0000 C   0  0  0  0  0  0  0  0  0  0  0  0
   -1.3390    2.2870   -0.0000 C   0  0  0  0  0  0  0  0  0  0  0  0
   -3.9222    2.2870   -0.0000 C   0  0  0  0  0  0  0  0  0  0  0  0
   -3.9222   -2.1803   -0.0000 C   0  0  0  0  0  0  0  0  0  0  0  0
   -2.6425   -4.4318   -0.0000 Cl  0  0  0  0  0  0  0  0  0  0  0  0
   -1.3509    3.8037   -0.0000 C   0  0  0  0  0  0  0  0  0  0  0  0
   -0.0592    1.5523   -0.0000 C   0  0  0  0  0  0  0  0  0  0  0  0
   -5.3561    1.8248   -0.0000 C   0  0  0  0  0  0  0  0  0  0  0  0
   -3.9459    3.8037   -0.0000 C   0  0  0  0  0  0  0  0  0  0  0  0
   -2.6543    4.5621   -0.0000 N   0  0  0  0  0  0  0  0  0  0  0  0
   -0.0711    4.5621   -0.0000 C   0  0  0  0  0  0  0  0  0  0  0  0
    1.2205    2.3107   -0.0000 N   0  0  0  0  0  0  0  0  0  0  0  0
   -5.8182    0.4147   -0.0000 O   0  0  0  0  0  0  0  0  0  0  0  0
   -6.2566    3.0454   -0.0000 N   0  0  0  0  0  0  0  0  0  0  0  0
   -5.3916    4.2777   -0.0000 C   0  0  0  0  0  0  0  0  0  0  0  0
   -7.7615    3.0454   -0.0000 C   0  0  0  0  0  0  0  0  0  0  0  0
   -8.5318    4.3488   -0.0000 C   0  0  0  0  0  0  0  0  0  0  0  0
  -10.0367    4.3488   -0.0000 O   0  0  0  0  0  0  0  0  0  0  0  0
   -7.7971    5.6641   -0.0000 N   0  0  0  0  0  0  0  0  0  0  0  0
   -6.3159    5.6878   -0.0000 C   0  0  0  0  0  0  0  0  0  0  0  0
   -8.5673    6.9676   -0.0000 C   0  0  0  0  0  0  0  0  0  0  0  0
  1  2  1  0  0  0  0
  2  3  2  0  0  0  0
  2  4  1  0  0  0  0
  3  5  1  0  0  0  0
  3  6  1  0  0  0  0
  4  7  2  0  0  0  0
  5  8  2  0  0  0  0
  5  9  1  0  0  0  0
  6 10  2  0  0  0  0
  7 11  1  0  0  0  0
  8 12  1  0  0  0  0
  8 13  1  0  0  0  0
  9 14  1  0  0  0  0
  9 15  2  0  0  0  0
 12 16  2  0  0  0  0
 12 17  1  0  0  0  0
 13 18  1  0  0  0  0
 14 19  2  0  0  0  0
 14 20  1  0  0  0  0
 15 21  1  0  0  0  0
 20 22  1  0  0  0  0
 22 23  1  0  0  0  0
 23 24  2  0  0  0  0
 23 25  1  0  0  0  0
 25 26  1  0  0  0  0
 25 27  1  0  0  0  0
  7 10  1  0  0  0  0
 15 16  1  0  0  0  0
 20 21  1  0  0  0  0
M  END
>  <MolRegNo>
1588471

>  <m>
=

>  <Value>
13000

>  <Unit>
nM

>  <Type>
IC50

>  <pValue>
4.89

>  <Ligand Efficiency>
0

>  <Binding Efficiency>
0

>  <Surface Efficiency>
0

>  <Assay Index>
805535

>  <Assay Category>


>  <Assay Organism>
Homo sapiens

>  <Target ID>
17045

>  <Target Name>
Cytochrome P450 3A4

>  <Target Organism>
Homo sapiens

>  <Target Description>
Target is a single protein chain

>  <Sequence Accession>
P08684

>  <Reference>
J Med Chem 56 (18), 7343-7357 (2013)

>  <Pubmed ID>
23964740

>  <DOI>
10.1021/jm4008906

$$$$
1588366
Actelion Java MolfileCreator 1.0

 30 32  0  0  0  0  0  0  0  0999 V2000
    0.0000   -0.0000   -0.0000 Cl  0  0  0  0  0  0  0  0  0  0  0  0
   -1.3074   -0.7369   -0.0000 C   0  0  0  0  0  0  0  0  0  0  0  0
   -2.6148    0.0238   -0.0000 C   0  0  0  0  0  0  0  0  0  0  0  0
   -1.3193   -2.2226   -0.0000 C   0  0  0  0  0  0  0  0  0  0  0  0
   -2.6267    1.5332   -0.0000 C   0  0  0  0  0  0  0  0  0  0  0  0
   -3.9223   -0.7013   -0.0000 C   0  0  0  0  0  0  0  0  0  0  0  0
   -2.6386   -2.9595   -0.0000 C   0  0  0  0  0  0  0  0  0  0  0  0
   -1.3431    2.2939   -0.0000 C   0  0  0  0  0  0  0  0  0  0  0  0
   -3.9341    2.2939   -0.0000 C   0  0  0  0  0  0  0  0  0  0  0  0
   -3.9341   -2.1870   -0.0000 C   0  0  0  0  0  0  0  0  0  0  0  0
   -2.6505   -4.4452   -0.0000 Cl  0  0  0  0  0  0  0  0  0  0  0  0
   -1.3550    3.8153   -0.0000 C   0  0  0  0  0  0  0  0  0  0  0  0
   -0.0594    1.5570   -0.0000 C   0  0  0  0  0  0  0  0  0  0  0  0
   -5.3723    1.8304   -0.0000 C   0  0  0  0  0  0  0  0  0  0  0  0
   -3.9579    3.8153   -0.0000 C   0  0  0  0  0  0  0  0  0  0  0  0
   -2.6624    4.5760   -0.0000 N   0  0  0  0  0  0  0  0  0  0  0  0
   -0.0713    4.5760   -0.0000 C   0  0  0  0  0  0  0  0  0  0  0  0
    1.2242    2.3177   -0.0000 N   0  0  0  0  0  0  0  0  0  0  0  0
   -5.8359    0.4160   -0.0000 O   0  0  0  0  0  0  0  0  0  0  0  0
   -6.2756    3.0546   -0.0000 N   0  0  0  0  0  0  0  0  0  0  0  0
   -5.4080    4.2907   -0.0000 C   0  0  0  0  0  0  0  0  0  0  0  0
   -7.7851    3.0546   -0.0000 C   0  0  0  0  0  0  0  0  0  0  0  0
   -8.5339    1.7710   -0.0000 C   0  0  0  0  0  0  0  0  0  0  0  0
   -8.5458    4.3501   -0.0000 C   0  0  0  0  0  0  0  0  0  0  0  0
   -7.7970    0.4992   -0.0000 O   0  0  0  0  0  0  0  0  0  0  0  0
  -10.0315    1.7710   -0.0000 N   0  0  0  0  0  0  0  0  0  0  0  0
  -10.7922    3.0665   -0.0000 C   0  0  0  0  0  0  0  0  0  0  0  0
  -10.7803    0.4873   -0.0000 C   0  0  0  0  0  0  0  0  0  0  0  0
  -12.2898    3.0665   -0.0000 C   0  0  0  0  0  0  0  0  0  0  0  0
  -10.0434   -0.7845   -0.0000 C   0  0  0  0  0  0  0  0  0  0  0  0
  1  2  1  0  0  0  0
  2  3  2  0  0  0  0
  2  4  1  0  0  0  0
  3  5  1  0  0  0  0
  3  6  1  0  0  0  0
  4  7  2  0  0  0  0
  5  8  2  0  0  0  0
  5  9  1  0  0  0  0
  6 10  2  0  0  0  0
  7 11  1  0  0  0  0
  8 12  1  0  0  0  0
  8 13  1  0  0  0  0
  9 14  1  0  0  0  0
  9 15  2  0  0  0  0
 12 16  2  0  0  0  0
 12 17  1  0  0  0  0
 13 18  1  0  0  0  0
 14 19  2  0  0  0  0
 14 20  1  0  0  0  0
 15 21  1  0  0  0  0
 22 20  1  6  0  0  0
 22 23  1  0  0  0  0
 22 24  1  0  0  0  0
 23 25  2  0  0  0  0
 23 26  1  0  0  0  0
 26 27  1  0  0  0  0
 26 28  1  0  0  0  0
 27 29  1  0  0  0  0
 28 30  1  0  0  0  0
  7 10  1  0  0  0  0
 15 16  1  0  0  0  0
 20 21  1  0  0  0  0
M  END
>  <MolRegNo>
1588366

>  <m>
=

>  <Value>
9600

>  <Unit>
nM

>  <Type>
IC50

>  <pValue>
5.02

>  <Ligand Efficiency>
0

>  <Binding Efficiency>
0

>  <Surface Efficiency>
0

>  <Assay Index>
805535

>  <Assay Category>


>  <Assay Organism>
Homo sapiens

>  <Target ID>
17045

>  <Target Name>
Cytochrome P450 3A4

>  <Target Organism>
Homo sapiens

>  <Target Description>
Target is a single protein chain

>  <Sequence Accession>
P08684

>  <Reference>
J Med Chem 56 (18), 7343-7357 (2013)

>  <Pubmed ID>
23964740

>  <DOI>
10.1021/jm4008906

$$$$
1588365
Actelion Java MolfileCreator 1.0

 30 32  0  0  0  0  0  0  0  0999 V2000
    0.0000   -0.0000   -0.0000 Cl  0  0  0  0  0  0  0  0  0  0  0  0
   -1.3041   -0.7351   -0.0000 C   0  0  0  0  0  0  0  0  0  0  0  0
   -2.6083    0.0237   -0.0000 C   0  0  0  0  0  0  0  0  0  0  0  0
   -1.3160   -2.2170   -0.0000 C   0  0  0  0  0  0  0  0  0  0  0  0
   -2.6201    1.5294   -0.0000 C   0  0  0  0  0  0  0  0  0  0  0  0
   -3.9124   -0.6995   -0.0000 C   0  0  0  0  0  0  0  0  0  0  0  0
   -2.6320   -2.9521   -0.0000 C   0  0  0  0  0  0  0  0  0  0  0  0
   -1.3397    2.2882   -0.0000 C   0  0  0  0  0  0  0  0  0  0  0  0
   -3.9242    2.2882   -0.0000 C   0  0  0  0  0  0  0  0  0  0  0  0
   -3.9242   -2.1815   -0.0000 C   0  0  0  0  0  0  0  0  0  0  0  0
   -2.6438   -4.4340   -0.0000 Cl  0  0  0  0  0  0  0  0  0  0  0  0
   -1.3516    3.8057   -0.0000 C   0  0  0  0  0  0  0  0  0  0  0  0
   -0.0593    1.5531   -0.0000 C   0  0  0  0  0  0  0  0  0  0  0  0
   -5.3588    1.8258   -0.0000 C   0  0  0  0  0  0  0  0  0  0  0  0
   -3.9480    3.8057   -0.0000 C   0  0  0  0  0  0  0  0  0  0  0  0
   -2.6557    4.5645   -0.0000 N   0  0  0  0  0  0  0  0  0  0  0  0
   -0.0711    4.5645   -0.0000 C   0  0  0  0  0  0  0  0  0  0  0  0
    1.2211    2.3119   -0.0000 N   0  0  0  0  0  0  0  0  0  0  0  0
   -5.8212    0.4150   -0.0000 O   0  0  0  0  0  0  0  0  0  0  0  0
   -6.2598    3.0469   -0.0000 N   0  0  0  0  0  0  0  0  0  0  0  0
   -5.3944    4.2799   -0.0000 C   0  0  0  0  0  0  0  0  0  0  0  0
   -7.7655    3.0469   -0.0000 C   0  0  0  0  0  0  0  0  0  0  0  0
   -8.5361    4.3511   -0.0000 C   0  0  0  0  0  0  0  0  0  0  0  0
  -10.0418    4.3511   -0.0000 C   0  0  0  0  0  0  0  0  0  0  0  0
  -10.8124    5.6552   -0.0000 O   0  0  0  0  0  0  0  0  0  0  0  0
  -10.8006    3.0588   -0.0000 N   0  0  0  0  0  0  0  0  0  0  0  0
  -12.3062    3.0588   -0.0000 C   0  0  0  0  0  0  0  0  0  0  0  0
  -10.0537    1.7784   -0.0000 C   0  0  0  0  0  0  0  0  0  0  0  0
  -13.0650    1.7665   -0.0000 C   0  0  0  0  0  0  0  0  0  0  0  0
   -8.5717    1.8021   -0.0000 C   0  0  0  0  0  0  0  0  0  0  0  0
  1  2  1  0  0  0  0
  2  3  2  0  0  0  0
  2  4  1  0  0  0  0
  3  5  1  0  0  0  0
  3  6  1  0  0  0  0
  4  7  2  0  0  0  0
  5  8  2  0  0  0  0
  5  9  1  0  0  0  0
  6 10  2  0  0  0  0
  7 11  1  0  0  0  0
  8 12  1  0  0  0  0
  8 13  1  0  0  0  0
  9 14  1  0  0  0  0
  9 15  2  0  0  0  0
 12 16  2  0  0  0  0
 12 17  1  0  0  0  0
 13 18  1  0  0  0  0
 14 19  2  0  0  0  0
 14 20  1  0  0  0  0
 15 21  1  0  0  0  0
 20 22  1  0  0  0  0
 22 23  1  0  0  0  0
 23 24  1  0  0  0  0
 24 25  2  0  0  0  0
 24 26  1  0  0  0  0
 26 27  1  0  0  0  0
 26 28  1  0  0  0  0
 27 29  1  0  0  0  0
 28 30  1  0  0  0  0
  7 10  1  0  0  0  0
 15 16  1  0  0  0  0
 20 21  1  0  0  0  0
M  END
>  <MolRegNo>
1588365

>  <m>
=

>  <Value>
8300

>  <Unit>
nM

>  <Type>
IC50

>  <pValue>
5.08

>  <Ligand Efficiency>
0

>  <Binding Efficiency>
0

>  <Surface Efficiency>
0

>  <Assay Index>
805535

>  <Assay Category>


>  <Assay Organism>
Homo sapiens

>  <Target ID>
17045

>  <Target Name>
Cytochrome P450 3A4

>  <Target Organism>
Homo sapiens

>  <Target Description>
Target is a single protein chain

>  <Sequence Accession>
P08684

>  <Reference>
J Med Chem 56 (18), 7343-7357 (2013)

>  <Pubmed ID>
23964740

>  <DOI>
10.1021/jm4008906

$$$$
1588364
Actelion Java MolfileCreator 1.0

 29 31  0  0  0  0  0  0  0  0999 V2000
    0.0000   -0.0000   -0.0000 Cl  0  0  0  0  0  0  0  0  0  0  0  0
   -1.3031   -0.7345   -0.0000 C   0  0  0  0  0  0  0  0  0  0  0  0
   -2.6063    0.0237   -0.0000 C   0  0  0  0  0  0  0  0  0  0  0  0
   -1.3150   -2.2153   -0.0000 C   0  0  0  0  0  0  0  0  0  0  0  0
   -2.6181    1.5282   -0.0000 C   0  0  0  0  0  0  0  0  0  0  0  0
   -3.9094   -0.6990   -0.0000 C   0  0  0  0  0  0  0  0  0  0  0  0
   -2.6300   -2.9498   -0.0000 C   0  0  0  0  0  0  0  0  0  0  0  0
   -1.3387    2.2864   -0.0000 C   0  0  0  0  0  0  0  0  0  0  0  0
   -3.9213    2.2864   -0.0000 C   0  0  0  0  0  0  0  0  0  0  0  0
   -3.9213   -2.1798   -0.0000 C   0  0  0  0  0  0  0  0  0  0  0  0
   -2.6418   -4.4307   -0.0000 Cl  0  0  0  0  0  0  0  0  0  0  0  0
   -1.3505    3.8028   -0.0000 C   0  0  0  0  0  0  0  0  0  0  0  0
   -0.0592    1.5519   -0.0000 C   0  0  0  0  0  0  0  0  0  0  0  0
   -5.3547    1.8244   -0.0000 C   0  0  0  0  0  0  0  0  0  0  0  0
   -3.9450    3.8028   -0.0000 C   0  0  0  0  0  0  0  0  0  0  0  0
   -2.6537    4.5610   -0.0000 N   0  0  0  0  0  0  0  0  0  0  0  0
   -0.0711    4.5610   -0.0000 C   0  0  0  0  0  0  0  0  0  0  0  0
    1.2202    2.3101   -0.0000 N   0  0  0  0  0  0  0  0  0  0  0  0
   -5.8168    0.4146   -0.0000 O   0  0  0  0  0  0  0  0  0  0  0  0
   -6.2551    3.0446   -0.0000 N   0  0  0  0  0  0  0  0  0  0  0  0
   -5.3903    4.2767   -0.0000 C   0  0  0  0  0  0  0  0  0  0  0  0
   -7.7596    3.0446   -0.0000 C   0  0  0  0  0  0  0  0  0  0  0  0
   -8.5297    4.3478   -0.0000 C   0  0  0  0  0  0  0  0  0  0  0  0
  -10.0342    4.3478   -0.0000 O   0  0  0  0  0  0  0  0  0  0  0  0
   -7.7952    5.6627   -0.0000 N   0  0  0  0  0  0  0  0  0  0  0  0
   -6.3143    5.6864   -0.0000 C   0  0  0  0  0  0  0  0  0  0  0  0
   -8.5652    6.9659   -0.0000 C   0  0  0  0  0  0  0  0  0  0  0  0
   -5.5798    7.0014   -0.0000 C   0  0  0  0  0  0  0  0  0  0  0  0
  -10.0697    6.9659   -0.0000 C   0  0  0  0  0  0  0  0  0  0  0  0
  1  2  1  0  0  0  0
  2  3  2  0  0  0  0
  2  4  1  0  0  0  0
  3  5  1  0  0  0  0
  3  6  1  0  0  0  0
  4  7  2  0  0  0  0
  5  8  2  0  0  0  0
  5  9  1  0  0  0  0
  6 10  2  0  0  0  0
  7 11  1  0  0  0  0
  8 12  1  0  0  0  0
  8 13  1  0  0  0  0
  9 14  1  0  0  0  0
  9 15  2  0  0  0  0
 12 16  2  0  0  0  0
 12 17  1  0  0  0  0
 13 18  1  0  0  0  0
 14 19  2  0  0  0  0
 14 20  1  0  0  0  0
 15 21  1  0  0  0  0
 20 22  1  0  0  0  0
 22 23  1  0  0  0  0
 23 24  2  0  0  0  0
 23 25  1  0  0  0  0
 25 26  1  0  0  0  0
 25 27  1  0  0  0  0
 26 28  1  0  0  0  0
 27 29  1  0  0  0  0
  7 10  1  0  0  0  0
 15 16  1  0  0  0  0
 20 21  1  0  0  0  0
M  END
>  <MolRegNo>
1588364

>  <m>
=

>  <Value>
6600

>  <Unit>
nM

>  <Type>
IC50

>  <pValue>
5.18

>  <Ligand Efficiency>
0

>  <Binding Efficiency>
0

>  <Surface Efficiency>
0

>  <Assay Index>
805535

>  <Assay Category>


>  <Assay Organism>
Homo sapiens

>  <Target ID>
17045

>  <Target Name>
Cytochrome P450 3A4

>  <Target Organism>
Homo sapiens

>  <Target Description>
Target is a single protein chain

>  <Sequence Accession>
P08684

>  <Reference>
J Med Chem 56 (18), 7343-7357 (2013)

>  <Pubmed ID>
23964740

>  <DOI>
10.1021/jm4008906

$$$$
1588361
Actelion Java MolfileCreator 1.0

 26 28  0  0  0  0  0  0  0  0999 V2000
    0.0000   -0.0000   -0.0000 Cl  0  0  0  0  0  0  0  0  0  0  0  0
   -1.3029   -0.7344   -0.0000 C   0  0  0  0  0  0  0  0  0  0  0  0
   -2.6058    0.0237   -0.0000 C   0  0  0  0  0  0  0  0  0  0  0  0
   -1.3148   -2.2150   -0.0000 C   0  0  0  0  0  0  0  0  0  0  0  0
   -2.6177    1.5280   -0.0000 C   0  0  0  0  0  0  0  0  0  0  0  0
   -3.9088   -0.6988   -0.0000 C   0  0  0  0  0  0  0  0  0  0  0  0
   -2.6295   -2.9493   -0.0000 C   0  0  0  0  0  0  0  0  0  0  0  0
   -1.3385    2.2860   -0.0000 C   0  0  0  0  0  0  0  0  0  0  0  0
   -3.9206    2.2860   -0.0000 C   0  0  0  0  0  0  0  0  0  0  0  0
   -3.9206   -2.1794   -0.0000 C   0  0  0  0  0  0  0  0  0  0  0  0
   -2.6414   -4.4299   -0.0000 Cl  0  0  0  0  0  0  0  0  0  0  0  0
   -1.3503    3.8022   -0.0000 C   0  0  0  0  0  0  0  0  0  0  0  0
   -0.0592    1.5517   -0.0000 C   0  0  0  0  0  0  0  0  0  0  0  0
   -5.3538    1.8241   -0.0000 C   0  0  0  0  0  0  0  0  0  0  0  0
   -3.9443    3.8022   -0.0000 C   0  0  0  0  0  0  0  0  0  0  0  0
   -2.6532    4.5602   -0.0000 N   0  0  0  0  0  0  0  0  0  0  0  0
   -0.0711    4.5721   -0.0000 C   0  0  0  0  0  0  0  0  0  0  0  0
    1.2200    2.3097   -0.0000 N   0  0  0  0  0  0  0  0  0  0  0  0
   -5.8158    0.4146   -0.0000 O   0  0  0  0  0  0  0  0  0  0  0  0
   -6.2540    3.0441   -0.0000 N   0  0  0  0  0  0  0  0  0  0  0  0
   -5.3893    4.2759   -0.0000 C   0  0  0  0  0  0  0  0  0  0  0  0
   -7.7583    3.0441   -0.0000 C   0  0  0  0  0  0  0  0  0  0  0  0
   -8.5164    1.7530   -0.0000 O   0  0  0  0  0  0  0  0  0  0  0  0
   -8.5282    4.3470   -0.0000 O   0  0  0  0  0  0  0  0  0  0  0  0
   -7.7938    5.6618   -0.0000 C   0  0  0  0  0  0  0  0  0  0  0  0
   -8.5637    6.9647   -0.0000 C   0  0  0  0  0  0  0  0  0  0  0  0
  1  2  1  0  0  0  0
  2  3  2  0  0  0  0
  2  4  1  0  0  0  0
  3  5  1  0  0  0  0
  3  6  1  0  0  0  0
  4  7  2  0  0  0  0
  5  8  2  0  0  0  0
  5  9  1  0  0  0  0
  6 10  2  0  0  0  0
  7 11  1  0  0  0  0
  8 12  1  0  0  0  0
  8 13  1  0  0  0  0
  9 14  1  0  0  0  0
  9 15  2  0  0  0  0
 12 16  2  0  0  0  0
 12 17  1  0  0  0  0
 13 18  1  0  0  0  0
 14 19  2  0  0  0  0
 14 20  1  0  0  0  0
 15 21  1  0  0  0  0
 20 22  1  0  0  0  0
 22 23  2  0  0  0  0
 22 24  1  0  0  0  0
 24 25  1  0  0  0  0
 25 26  1  0  0  0  0
  7 10  1  0  0  0  0
 15 16  1  0  0  0  0
 20 21  1  0  0  0  0
M  END
>  <MolRegNo>
1588361

>  <m>
=

>  <Value>
6400

>  <Unit>
nM

>  <Type>
IC50

>  <pValue>
5.19

>  <Ligand Efficiency>
0

>  <Binding Efficiency>
0

>  <Surface Efficiency>
0

>  <Assay Index>
805535

>  <Assay Category>


>  <Assay Organism>
Homo sapiens

>  <Target ID>
17045

>  <Target Name>
Cytochrome P450 3A4

>  <Target Organism>
Homo sapiens

>  <Target Description>
Target is a single protein chain

>  <Sequence Accession>
P08684

>  <Reference>
J Med Chem 56 (18), 7343-7357 (2013)

>  <Pubmed ID>
23964740

>  <DOI>
10.1021/jm4008906

$$$$
1588359
Actelion Java MolfileCreator 1.0

 33 37  0  0  0  0  0  0  0  0999 V2000
    0.0000   -0.0000   -0.0000 Cl  0  0  0  0  0  0  0  0  0  0  0  0
   -1.3085   -0.7375   -0.0000 C   0  0  0  0  0  0  0  0  0  0  0  0
   -2.6170    0.0238   -0.0000 C   0  0  0  0  0  0  0  0  0  0  0  0
   -1.3204   -2.2245   -0.0000 C   0  0  0  0  0  0  0  0  0  0  0  0
   -2.6289    1.5345   -0.0000 C   0  0  0  0  0  0  0  0  0  0  0  0
   -3.9255   -0.7018   -0.0000 C   0  0  0  0  0  0  0  0  0  0  0  0
   -2.6408   -2.9620   -0.0000 C   0  0  0  0  0  0  0  0  0  0  0  0
   -1.3442    2.2958   -0.0000 C   0  0  0  0  0  0  0  0  0  0  0  0
   -3.9374    2.2958   -0.0000 C   0  0  0  0  0  0  0  0  0  0  0  0
   -3.9374   -2.1888   -0.0000 C   0  0  0  0  0  0  0  0  0  0  0  0
   -2.6527   -4.4489   -0.0000 Cl  0  0  0  0  0  0  0  0  0  0  0  0
   -1.3561    3.8184   -0.0000 C   0  0  0  0  0  0  0  0  0  0  0  0
   -0.0595    1.5583   -0.0000 C   0  0  0  0  0  0  0  0  0  0  0  0
   -5.3768    1.8319   -0.0000 C   0  0  0  0  0  0  0  0  0  0  0  0
   -3.9612    3.8184   -0.0000 C   0  0  0  0  0  0  0  0  0  0  0  0
   -2.6646    4.5798   -0.0000 N   0  0  0  0  0  0  0  0  0  0  0  0
   -0.0714    4.5798   -0.0000 C   0  0  0  0  0  0  0  0  0  0  0  0
    1.2252    2.3196   -0.0000 N   0  0  0  0  0  0  0  0  0  0  0  0
   -5.8407    0.4163   -0.0000 O   0  0  0  0  0  0  0  0  0  0  0  0
   -6.2808    3.0571   -0.0000 N   0  0  0  0  0  0  0  0  0  0  0  0
   -5.4124    4.2943   -0.0000 C   0  0  0  0  0  0  0  0  0  0  0  0
   -7.7915    3.0571   -0.0000 C   0  0  0  0  0  0  0  0  0  0  0  0
   -8.5410    1.7724   -0.0000 C   0  0  0  0  0  0  0  0  0  0  0  0
  -10.0398    1.8557   -0.0000 N   0  0  0  0  0  0  0  0  0  0  0  0
   -8.1484    0.3569   -0.0000 C   0  0  0  0  0  0  0  0  0  0  0  0
  -10.8725    3.1047   -0.0000 S   0  0  0  0  0  0  0  0  0  0  0  0
  -10.5751    0.4758   -0.0000 C   0  0  0  0  0  0  0  0  0  0  0  0
   -9.3974   -0.4520   -0.0000 C   0  0  0  0  0  0  0  0  0  0  0  0
  -12.2167    3.7828   -0.0000 O   0  0  0  0  0  0  0  0  0  0  0  0
  -12.1215    2.2958   -0.0000 O   0  0  0  0  0  0  0  0  0  0  0  0
  -10.2182    4.4489   -0.0000 C   0  0  0  0  0  0  0  0  0  0  0  0
   -8.9097    5.1388   -0.0000 C   0  0  0  0  0  0  0  0  0  0  0  0
  -10.1587    5.9477   -0.0000 C   0  0  0  0  0  0  0  0  0  0  0  0
  1  2  1  0  0  0  0
  2  3  2  0  0  0  0
  2  4  1  0  0  0  0
  3  5  1  0  0  0  0
  3  6  1  0  0  0  0
  4  7  2  0  0  0  0
  5  8  2  0  0  0  0
  5  9  1  0  0  0  0
  6 10  2  0  0  0  0
  7 11  1  0  0  0  0
  8 12  1  0  0  0  0
  8 13  1  0  0  0  0
  9 14  1  0  0  0  0
  9 15  2  0  0  0  0
 12 16  2  0  0  0  0
 12 17  1  0  0  0  0
 13 18  1  0  0  0  0
 14 19  2  0  0  0  0
 14 20  1  0  0  0  0
 15 21  1  0  0  0  0
 20 22  1  0  0  0  0
 23 22  1  1  0  0  0
 23 24  1  0  0  0  0
 23 25  1  0  0  0  0
 24 26  1  0  0  0  0
 24 27  1  0  0  0  0
 25 28  1  0  0  0  0
 26 29  2  0  0  0  0
 26 30  2  0  0  0  0
 26 31  1  0  0  0  0
 31 32  1  0  0  0  0
 31 33  1  0  0  0  0
  7 10  1  0  0  0  0
 15 16  1  0  0  0  0
 20 21  1  0  0  0  0
 27 28  1  0  0  0  0
 32 33  1  0  0  0  0
M  END
>  <MolRegNo>
1588359

>  <m>
=

>  <Value>
3000

>  <Unit>
nM

>  <Type>
IC50

>  <pValue>
5.52

>  <Ligand Efficiency>
0

>  <Binding Efficiency>
0

>  <Surface Efficiency>
0

>  <Assay Index>
805535

>  <Assay Category>


>  <Assay Organism>
Homo sapiens

>  <Target ID>
17045

>  <Target Name>
Cytochrome P450 3A4

>  <Target Organism>
Homo sapiens

>  <Target Description>
Target is a single protein chain

>  <Sequence Accession>
P08684

>  <Reference>
J Med Chem 56 (18), 7343-7357 (2013)

>  <Pubmed ID>
23964740

>  <DOI>
10.1021/jm4008906

$$$$
1588358
Actelion Java MolfileCreator 1.0

 27 30  0  0  0  0  0  0  0  0999 V2000
    0.0000   -0.0000   -0.0000 Cl  0  0  0  0  0  0  0  0  0  0  0  0
   -1.3020   -0.7339   -0.0000 C   0  0  0  0  0  0  0  0  0  0  0  0
   -2.6041    0.0237   -0.0000 C   0  0  0  0  0  0  0  0  0  0  0  0
   -1.3139   -2.2135   -0.0000 C   0  0  0  0  0  0  0  0  0  0  0  0
   -2.6159    1.5269   -0.0000 C   0  0  0  0  0  0  0  0  0  0  0  0
   -3.9061   -0.6984   -0.0000 C   0  0  0  0  0  0  0  0  0  0  0  0
   -2.6278   -2.9474   -0.0000 C   0  0  0  0  0  0  0  0  0  0  0  0
   -1.3376    2.2845   -0.0000 C   0  0  0  0  0  0  0  0  0  0  0  0
   -3.9180    2.2845   -0.0000 C   0  0  0  0  0  0  0  0  0  0  0  0
   -3.9180   -2.1780   -0.0000 C   0  0  0  0  0  0  0  0  0  0  0  0
   -2.6396   -4.4270   -0.0000 Cl  0  0  0  0  0  0  0  0  0  0  0  0
   -1.3494    3.7996   -0.0000 C   0  0  0  0  0  0  0  0  0  0  0  0
   -0.0592    1.5506   -0.0000 C   0  0  0  0  0  0  0  0  0  0  0  0
   -5.3502    1.8229   -0.0000 C   0  0  0  0  0  0  0  0  0  0  0  0
   -3.9417    3.7996   -0.0000 C   0  0  0  0  0  0  0  0  0  0  0  0
   -2.6514    4.5572   -0.0000 N   0  0  0  0  0  0  0  0  0  0  0  0
   -0.0710    4.5572   -0.0000 C   0  0  0  0  0  0  0  0  0  0  0  0
    1.2192    2.3082   -0.0000 N   0  0  0  0  0  0  0  0  0  0  0  0
   -5.8119    0.4143   -0.0000 O   0  0  0  0  0  0  0  0  0  0  0  0
   -6.2498    3.0421   -0.0000 N   0  0  0  0  0  0  0  0  0  0  0  0
   -5.3857    4.2731   -0.0000 C   0  0  0  0  0  0  0  0  0  0  0  0
   -7.7531    3.0421   -0.0000 C   0  0  0  0  0  0  0  0  0  0  0  0
   -8.5225    4.3441   -0.0000 C   0  0  0  0  0  0  0  0  0  0  0  0
   -8.0135    5.7527   -0.0000 N   0  0  0  0  0  0  0  0  0  0  0  0
  -10.0376    4.4151   -0.0000 C   0  0  0  0  0  0  0  0  0  0  0  0
   -9.1972    6.6996   -0.0000 C   0  0  0  0  0  0  0  0  0  0  0  0
  -10.4519    5.8711   -0.0000 C   0  0  0  0  0  0  0  0  0  0  0  0
  1  2  1  0  0  0  0
  2  3  2  0  0  0  0
  2  4  1  0  0  0  0
  3  5  1  0  0  0  0
  3  6  1  0  0  0  0
  4  7  2  0  0  0  0
  5  8  2  0  0  0  0
  5  9  1  0  0  0  0
  6 10  2  0  0  0  0
  7 11  1  0  0  0  0
  8 12  1  0  0  0  0
  8 13  1  0  0  0  0
  9 14  1  0  0  0  0
  9 15  2  0  0  0  0
 12 16  2  0  0  0  0
 12 17  1  0  0  0  0
 13 18  1  0  0  0  0
 14 19  2  0  0  0  0
 14 20  1  0  0  0  0
 15 21  1  0  0  0  0
 20 22  1  0  0  0  0
 23 22  1  1  0  0  0
 23 24  1  0  0  0  0
 23 25  1  0  0  0  0
 24 26  1  0  0  0  0
 25 27  1  0  0  0  0
  7 10  1  0  0  0  0
 15 16  1  0  0  0  0
 20 21  1  0  0  0  0
 26 27  1  0  0  0  0
M  END
>  <MolRegNo>
1588358

>  <m>
=

>  <Value>
40000

>  <Unit>
nM

>  <Type>
IC50

>  <pValue>
4.4

>  <Ligand Efficiency>
0

>  <Binding Efficiency>
0

>  <Surface Efficiency>
0

>  <Assay Index>
805535

>  <Assay Category>


>  <Assay Organism>
Homo sapiens

>  <Target ID>
17045

>  <Target Name>
Cytochrome P450 3A4

>  <Target Organism>
Homo sapiens

>  <Target Description>
Target is a single protein chain

>  <Sequence Accession>
P08684

>  <Reference>
J Med Chem 56 (18), 7343-7357 (2013)

>  <Pubmed ID>
23964740

>  <DOI>
10.1021/jm4008906

$$$$
1588357
Actelion Java MolfileCreator 1.0

 27 30  0  0  0  0  0  0  0  0999 V2000
    0.0000   -0.0000   -0.0000 Cl  0  0  0  0  0  0  0  0  0  0  0  0
   -1.3020   -0.7339   -0.0000 C   0  0  0  0  0  0  0  0  0  0  0  0
   -2.6041    0.0237   -0.0000 C   0  0  0  0  0  0  0  0  0  0  0  0
   -1.3139   -2.2135   -0.0000 C   0  0  0  0  0  0  0  0  0  0  0  0
   -2.6159    1.5269   -0.0000 C   0  0  0  0  0  0  0  0  0  0  0  0
   -3.9061   -0.6984   -0.0000 C   0  0  0  0  0  0  0  0  0  0  0  0
   -2.6278   -2.9474   -0.0000 C   0  0  0  0  0  0  0  0  0  0  0  0
   -1.3376    2.2845   -0.0000 C   0  0  0  0  0  0  0  0  0  0  0  0
   -3.9180    2.2845   -0.0000 C   0  0  0  0  0  0  0  0  0  0  0  0
   -3.9180   -2.1780   -0.0000 C   0  0  0  0  0  0  0  0  0  0  0  0
   -2.6396   -4.4270   -0.0000 Cl  0  0  0  0  0  0  0  0  0  0  0  0
   -1.3494    3.7996   -0.0000 C   0  0  0  0  0  0  0  0  0  0  0  0
   -0.0592    1.5506   -0.0000 C   0  0  0  0  0  0  0  0  0  0  0  0
   -5.3502    1.8229   -0.0000 C   0  0  0  0  0  0  0  0  0  0  0  0
   -3.9417    3.7996   -0.0000 C   0  0  0  0  0  0  0  0  0  0  0  0
   -2.6514    4.5572   -0.0000 N   0  0  0  0  0  0  0  0  0  0  0  0
   -0.0710    4.5572   -0.0000 C   0  0  0  0  0  0  0  0  0  0  0  0
    1.2192    2.3082   -0.0000 N   0  0  0  0  0  0  0  0  0  0  0  0
   -5.8119    0.4143   -0.0000 O   0  0  0  0  0  0  0  0  0  0  0  0
   -6.2498    3.0421   -0.0000 N   0  0  0  0  0  0  0  0  0  0  0  0
   -5.3857    4.2731   -0.0000 C   0  0  0  0  0  0  0  0  0  0  0  0
   -7.7531    3.0421   -0.0000 C   0  0  0  0  0  0  0  0  0  0  0  0
   -8.5225    4.3441   -0.0000 C   0  0  0  0  0  0  0  0  0  0  0  0
   -8.0135    5.7527   -0.0000 O   0  0  0  0  0  0  0  0  0  0  0  0
  -10.0376    4.4151   -0.0000 C   0  0  0  0  0  0  0  0  0  0  0  0
   -9.1972    6.6996   -0.0000 C   0  0  0  0  0  0  0  0  0  0  0  0
  -10.4519    5.8711   -0.0000 C   0  0  0  0  0  0  0  0  0  0  0  0
  1  2  1  0  0  0  0
  2  3  2  0  0  0  0
  2  4  1  0  0  0  0
  3  5  1  0  0  0  0
  3  6  1  0  0  0  0
  4  7  2  0  0  0  0
  5  8  2  0  0  0  0
  5  9  1  0  0  0  0
  6 10  2  0  0  0  0
  7 11  1  0  0  0  0
  8 12  1  0  0  0  0
  8 13  1  0  0  0  0
  9 14  1  0  0  0  0
  9 15  2  0  0  0  0
 12 16  2  0  0  0  0
 12 17  1  0  0  0  0
 13 18  1  0  0  0  0
 14 19  2  0  0  0  0
 14 20  1  0  0  0  0
 15 21  1  0  0  0  0
 20 22  1  0  0  0  0
 23 22  1  1  0  0  0
 23 24  1  0  0  0  0
 23 25  1  0  0  0  0
 24 26  1  0  0  0  0
 25 27  1  0  0  0  0
  7 10  1  0  0  0  0
 15 16  1  0  0  0  0
 20 21  1  0  0  0  0
 26 27  1  0  0  0  0
M  END
>  <MolRegNo>
1588357

>  <m>
=

>  <Value>
15000

>  <Unit>
nM

>  <Type>
IC50

>  <pValue>
4.82

>  <Ligand Efficiency>
0

>  <Binding Efficiency>
0

>  <Surface Efficiency>
0

>  <Assay Index>
805535

>  <Assay Category>


>  <Assay Organism>
Homo sapiens

>  <Target ID>
17045

>  <Target Name>
Cytochrome P450 3A4

>  <Target Organism>
Homo sapiens

>  <Target Description>
Target is a single protein chain

>  <Sequence Accession>
P08684

>  <Reference>
J Med Chem 56 (18), 7343-7357 (2013)

>  <Pubmed ID>
23964740

>  <DOI>
10.1021/jm4008906

$$$$
1588355
Actelion Java MolfileCreator 1.0

 26 28  0  0  0  0  0  0  0  0999 V2000
    0.0000   -0.0000   -0.0000 Cl  0  0  0  0  0  0  0  0  0  0  0  0
   -1.3030   -0.7344   -0.0000 C   0  0  0  0  0  0  0  0  0  0  0  0
   -2.6059    0.0237   -0.0000 C   0  0  0  0  0  0  0  0  0  0  0  0
   -1.3148   -2.2151   -0.0000 C   0  0  0  0  0  0  0  0  0  0  0  0
   -2.6178    1.5280   -0.0000 C   0  0  0  0  0  0  0  0  0  0  0  0
   -3.9089   -0.6989   -0.0000 C   0  0  0  0  0  0  0  0  0  0  0  0
   -2.6296   -2.9495   -0.0000 C   0  0  0  0  0  0  0  0  0  0  0  0
   -1.3385    2.2861   -0.0000 C   0  0  0  0  0  0  0  0  0  0  0  0
   -3.9208    2.2861   -0.0000 C   0  0  0  0  0  0  0  0  0  0  0  0
   -3.9208   -2.1795   -0.0000 C   0  0  0  0  0  0  0  0  0  0  0  0
   -2.6415   -4.4301   -0.0000 Cl  0  0  0  0  0  0  0  0  0  0  0  0
   -1.3504    3.8023   -0.0000 C   0  0  0  0  0  0  0  0  0  0  0  0
   -0.0592    1.5517   -0.0000 C   0  0  0  0  0  0  0  0  0  0  0  0
   -5.3540    1.8242   -0.0000 C   0  0  0  0  0  0  0  0  0  0  0  0
   -3.9444    3.8023   -0.0000 C   0  0  0  0  0  0  0  0  0  0  0  0
   -2.6533    4.5604   -0.0000 N   0  0  0  0  0  0  0  0  0  0  0  0
   -0.0711    4.5722   -0.0000 C   0  0  0  0  0  0  0  0  0  0  0  0
    1.2201    2.3098   -0.0000 N   0  0  0  0  0  0  0  0  0  0  0  0
   -5.8160    0.4146   -0.0000 O   0  0  0  0  0  0  0  0  0  0  0  0
   -6.2543    3.0442   -0.0000 N   0  0  0  0  0  0  0  0  0  0  0  0
   -5.3896    4.2761   -0.0000 C   0  0  0  0  0  0  0  0  0  0  0  0
   -7.7586    3.0442   -0.0000 C   0  0  0  0  0  0  0  0  0  0  0  0
   -8.5285    4.3472   -0.0000 C   0  0  0  0  0  0  0  0  0  0  0  0
   -8.5167    1.7531   -0.0000 C   0  0  0  0  0  0  0  0  0  0  0  0
  -10.0329    4.3472   -0.0000 O   0  0  0  0  0  0  0  0  0  0  0  0
  -10.8028    5.6502   -0.0000 C   0  0  0  0  0  0  0  0  0  0  0  0
  1  2  1  0  0  0  0
  2  3  2  0  0  0  0
  2  4  1  0  0  0  0
  3  5  1  0  0  0  0
  3  6  1  0  0  0  0
  4  7  2  0  0  0  0
  5  8  2  0  0  0  0
  5  9  1  0  0  0  0
  6 10  2  0  0  0  0
  7 11  1  0  0  0  0
  8 12  1  0  0  0  0
  8 13  1  0  0  0  0
  9 14  1  0  0  0  0
  9 15  2  0  0  0  0
 12 16  2  0  0  0  0
 12 17  1  0  0  0  0
 13 18  1  0  0  0  0
 14 19  2  0  0  0  0
 14 20  1  0  0  0  0
 15 21  1  0  0  0  0
 22 20  1  1  0  0  0
 22 23  1  0  0  0  0
 22 24  1  0  0  0  0
 23 25  1  0  0  0  0
 25 26  1  0  0  0  0
  7 10  1  0  0  0  0
 15 16  1  0  0  0  0
 20 21  1  0  0  0  0
M  END
>  <MolRegNo>
1588355

>  <m>
=

>  <Value>
13000

>  <Unit>
nM

>  <Type>
IC50

>  <pValue>
4.89

>  <Ligand Efficiency>
0

>  <Binding Efficiency>
0

>  <Surface Efficiency>
0

>  <Assay Index>
805535

>  <Assay Category>


>  <Assay Organism>
Homo sapiens

>  <Target ID>
17045

>  <Target Name>
Cytochrome P450 3A4

>  <Target Organism>
Homo sapiens

>  <Target Description>
Target is a single protein chain

>  <Sequence Accession>
P08684

>  <Reference>
J Med Chem 56 (18), 7343-7357 (2013)

>  <Pubmed ID>
23964740

>  <DOI>
10.1021/jm4008906

$$$$
1588354
Actelion Java MolfileCreator 1.0

 25 27  0  0  0  0  0  0  0  0999 V2000
    0.0000   -0.0000   -0.0000 Cl  0  0  0  0  0  0  0  0  0  0  0  0
   -1.3031   -0.7345   -0.0000 C   0  0  0  0  0  0  0  0  0  0  0  0
   -2.6062    0.0237   -0.0000 C   0  0  0  0  0  0  0  0  0  0  0  0
   -1.3149   -2.2152   -0.0000 C   0  0  0  0  0  0  0  0  0  0  0  0
   -2.6180    1.5282   -0.0000 C   0  0  0  0  0  0  0  0  0  0  0  0
   -3.9092   -0.6989   -0.0000 C   0  0  0  0  0  0  0  0  0  0  0  0
   -2.6298   -2.9497   -0.0000 C   0  0  0  0  0  0  0  0  0  0  0  0
   -1.3386    2.2863   -0.0000 C   0  0  0  0  0  0  0  0  0  0  0  0
   -3.9211    2.2863   -0.0000 C   0  0  0  0  0  0  0  0  0  0  0  0
   -3.9211   -2.1797   -0.0000 C   0  0  0  0  0  0  0  0  0  0  0  0
   -2.6417   -4.4305   -0.0000 Cl  0  0  0  0  0  0  0  0  0  0  0  0
   -1.3505    3.8026   -0.0000 C   0  0  0  0  0  0  0  0  0  0  0  0
   -0.0592    1.5518   -0.0000 C   0  0  0  0  0  0  0  0  0  0  0  0
   -5.3545    1.8243   -0.0000 C   0  0  0  0  0  0  0  0  0  0  0  0
   -3.9448    3.8026   -0.0000 C   0  0  0  0  0  0  0  0  0  0  0  0
   -2.6535    4.5608   -0.0000 N   0  0  0  0  0  0  0  0  0  0  0  0
   -0.0711    4.5608   -0.0000 C   0  0  0  0  0  0  0  0  0  0  0  0
    1.2202    2.3100   -0.0000 N   0  0  0  0  0  0  0  0  0  0  0  0
   -5.8165    0.4146   -0.0000 O   0  0  0  0  0  0  0  0  0  0  0  0
   -6.2548    3.0445   -0.0000 N   0  0  0  0  0  0  0  0  0  0  0  0
   -5.3900    4.2765   -0.0000 C   0  0  0  0  0  0  0  0  0  0  0  0
   -7.7592    3.0445   -0.0000 C   0  0  0  0  0  0  0  0  0  0  0  0
   -8.5292    4.3475   -0.0000 C   0  0  0  0  0  0  0  0  0  0  0  0
  -10.0337    4.3475   -0.0000 O   0  0  0  0  0  0  0  0  0  0  0  0
  -10.8037    5.6506   -0.0000 C   0  0  0  0  0  0  0  0  0  0  0  0
  1  2  1  0  0  0  0
  2  3  2  0  0  0  0
  2  4  1  0  0  0  0
  3  5  1  0  0  0  0
  3  6  1  0  0  0  0
  4  7  2  0  0  0  0
  5  8  2  0  0  0  0
  5  9  1  0  0  0  0
  6 10  2  0  0  0  0
  7 11  1  0  0  0  0
  8 12  1  0  0  0  0
  8 13  1  0  0  0  0
  9 14  1  0  0  0  0
  9 15  2  0  0  0  0
 12 16  2  0  0  0  0
 12 17  1  0  0  0  0
 13 18  1  0  0  0  0
 14 19  2  0  0  0  0
 14 20  1  0  0  0  0
 15 21  1  0  0  0  0
 20 22  1  0  0  0  0
 22 23  1  0  0  0  0
 23 24  1  0  0  0  0
 24 25  1  0  0  0  0
  7 10  1  0  0  0  0
 15 16  1  0  0  0  0
 20 21  1  0  0  0  0
M  END
>  <MolRegNo>
1588354

>  <m>
=

>  <Value>
14000

>  <Unit>
nM

>  <Type>
IC50

>  <pValue>
4.85

>  <Ligand Efficiency>
0

>  <Binding Efficiency>
0

>  <Surface Efficiency>
0

>  <Assay Index>
805535

>  <Assay Category>


>  <Assay Organism>
Homo sapiens

>  <Target ID>
17045

>  <Target Name>
Cytochrome P450 3A4

>  <Target Organism>
Homo sapiens

>  <Target Description>
Target is a single protein chain

>  <Sequence Accession>
P08684

>  <Reference>
J Med Chem 56 (18), 7343-7357 (2013)

>  <Pubmed ID>
23964740

>  <DOI>
10.1021/jm4008906

$$$$
1588353
Actelion Java MolfileCreator 1.0

 28 31  0  0  0  0  0  0  0  0999 V2000
    0.0000   -0.0000   -0.0000 Cl  0  0  0  0  0  0  0  0  0  0  0  0
   -1.3019   -0.7338   -0.0000 C   0  0  0  0  0  0  0  0  0  0  0  0
   -2.6038    0.0237   -0.0000 C   0  0  0  0  0  0  0  0  0  0  0  0
   -1.3138   -2.2133   -0.0000 C   0  0  0  0  0  0  0  0  0  0  0  0
   -2.6157    1.5268   -0.0000 C   0  0  0  0  0  0  0  0  0  0  0  0
   -3.9058   -0.6983   -0.0000 C   0  0  0  0  0  0  0  0  0  0  0  0
   -2.6275   -2.9471   -0.0000 C   0  0  0  0  0  0  0  0  0  0  0  0
   -1.3374    2.2843   -0.0000 C   0  0  0  0  0  0  0  0  0  0  0  0
   -3.9176    2.2843   -0.0000 C   0  0  0  0  0  0  0  0  0  0  0  0
   -3.9176   -2.1778   -0.0000 C   0  0  0  0  0  0  0  0  0  0  0  0
   -2.6394   -4.4265   -0.0000 Cl  0  0  0  0  0  0  0  0  0  0  0  0
   -1.3493    3.7992   -0.0000 C   0  0  0  0  0  0  0  0  0  0  0  0
   -0.0592    1.5505   -0.0000 C   0  0  0  0  0  0  0  0  0  0  0  0
   -5.3497    1.8227   -0.0000 C   0  0  0  0  0  0  0  0  0  0  0  0
   -3.9413    3.7992   -0.0000 C   0  0  0  0  0  0  0  0  0  0  0  0
   -2.6512    4.5567   -0.0000 N   0  0  0  0  0  0  0  0  0  0  0  0
   -0.0710    4.5567   -0.0000 C   0  0  0  0  0  0  0  0  0  0  0  0
    1.2191    2.3080   -0.0000 N   0  0  0  0  0  0  0  0  0  0  0  0
   -5.8113    0.4142   -0.0000 O   0  0  0  0  0  0  0  0  0  0  0  0
   -6.2492    3.0418   -0.0000 N   0  0  0  0  0  0  0  0  0  0  0  0
   -5.3852    4.2727   -0.0000 C   0  0  0  0  0  0  0  0  0  0  0  0
   -7.7524    3.0418   -0.0000 C   0  0  0  0  0  0  0  0  0  0  0  0
   -8.5217    4.3437   -0.0000 C   0  0  0  0  0  0  0  0  0  0  0  0
  -10.0366    4.4147   -0.0000 N   0  0  0  0  0  0  0  0  0  0  0  0
   -8.0127    5.7521   -0.0000 C   0  0  0  0  0  0  0  0  0  0  0  0
  -10.4509    5.8705   -0.0000 O   0  0  0  0  0  0  0  0  0  0  0  0
   -9.1963    6.6990   -0.0000 C   0  0  0  0  0  0  0  0  0  0  0  0
   -9.1371    8.2021   -0.0000 C   0  0  0  0  0  0  0  0  0  0  0  0
  1  2  1  0  0  0  0
  2  3  2  0  0  0  0
  2  4  1  0  0  0  0
  3  5  1  0  0  0  0
  3  6  1  0  0  0  0
  4  7  2  0  0  0  0
  5  8  2  0  0  0  0
  5  9  1  0  0  0  0
  6 10  2  0  0  0  0
  7 11  1  0  0  0  0
  8 12  1  0  0  0  0
  8 13  1  0  0  0  0
  9 14  1  0  0  0  0
  9 15  2  0  0  0  0
 12 16  2  0  0  0  0
 12 17  1  0  0  0  0
 13 18  1  0  0  0  0
 14 19  2  0  0  0  0
 14 20  1  0  0  0  0
 15 21  1  0  0  0  0
 20 22  1  0  0  0  0
 22 23  1  0  0  0  0
 23 24  2  0  0  0  0
 23 25  1  0  0  0  0
 24 26  1  0  0  0  0
 25 27  2  0  0  0  0
 27 28  1  0  0  0  0
  7 10  1  0  0  0  0
 15 16  1  0  0  0  0
 20 21  1  0  0  0  0
 26 27  1  0  0  0  0
M  END
>  <MolRegNo>
1588353

>  <m>
=

>  <Value>
4700

>  <Unit>
nM

>  <Type>
IC50

>  <pValue>
5.33

>  <Ligand Efficiency>
0

>  <Binding Efficiency>
0

>  <Surface Efficiency>
0

>  <Assay Index>
805535

>  <Assay Category>


>  <Assay Organism>
Homo sapiens

>  <Target ID>
17045

>  <Target Name>
Cytochrome P450 3A4

>  <Target Organism>
Homo sapiens

>  <Target Description>
Target is a single protein chain

>  <Sequence Accession>
P08684

>  <Reference>
J Med Chem 56 (18), 7343-7357 (2013)

>  <Pubmed ID>
23964740

>  <DOI>
10.1021/jm4008906

$$$$
1588352
Actelion Java MolfileCreator 1.0

 27 30  0  0  0  0  0  0  0  0999 V2000
    0.0000   -0.0000   -0.0000 Cl  0  0  0  0  0  0  0  0  0  0  0  0
   -1.3019   -0.7338   -0.0000 C   0  0  0  0  0  0  0  0  0  0  0  0
   -2.6037    0.0237   -0.0000 C   0  0  0  0  0  0  0  0  0  0  0  0
   -1.3137   -2.2132   -0.0000 C   0  0  0  0  0  0  0  0  0  0  0  0
   -2.6156    1.5267   -0.0000 C   0  0  0  0  0  0  0  0  0  0  0  0
   -3.9056   -0.6983   -0.0000 C   0  0  0  0  0  0  0  0  0  0  0  0
   -2.6274   -2.9470   -0.0000 C   0  0  0  0  0  0  0  0  0  0  0  0
   -1.3374    2.2842   -0.0000 C   0  0  0  0  0  0  0  0  0  0  0  0
   -3.9175    2.2842   -0.0000 C   0  0  0  0  0  0  0  0  0  0  0  0
   -3.9175   -2.1777   -0.0000 C   0  0  0  0  0  0  0  0  0  0  0  0
   -2.6392   -4.4264   -0.0000 Cl  0  0  0  0  0  0  0  0  0  0  0  0
   -1.3492    3.7991   -0.0000 C   0  0  0  0  0  0  0  0  0  0  0  0
   -0.0592    1.5504   -0.0000 C   0  0  0  0  0  0  0  0  0  0  0  0
   -5.3495    1.8226   -0.0000 C   0  0  0  0  0  0  0  0  0  0  0  0
   -3.9411    3.7991   -0.0000 C   0  0  0  0  0  0  0  0  0  0  0  0
   -2.6511    4.5566   -0.0000 N   0  0  0  0  0  0  0  0  0  0  0  0
   -0.0710    4.5684   -0.0000 C   0  0  0  0  0  0  0  0  0  0  0  0
    1.2190    2.3079   -0.0000 N   0  0  0  0  0  0  0  0  0  0  0  0
   -5.8111    0.4142   -0.0000 O   0  0  0  0  0  0  0  0  0  0  0  0
   -6.2490    3.0416   -0.0000 N   0  0  0  0  0  0  0  0  0  0  0  0
   -5.3850    4.2725   -0.0000 C   0  0  0  0  0  0  0  0  0  0  0  0
   -7.7521    3.0416   -0.0000 C   0  0  0  0  0  0  0  0  0  0  0  0
   -8.5213    4.3435   -0.0000 C   0  0  0  0  0  0  0  0  0  0  0  0
   -8.0124    5.7519   -0.0000 O   0  0  0  0  0  0  0  0  0  0  0  0
  -10.0363    4.4145   -0.0000 N   0  0  0  0  0  0  0  0  0  0  0  0
   -9.1960    6.6987   -0.0000 C   0  0  0  0  0  0  0  0  0  0  0  0
  -10.4505    5.8703   -0.0000 C   0  0  0  0  0  0  0  0  0  0  0  0
  1  2  1  0  0  0  0
  2  3  2  0  0  0  0
  2  4  1  0  0  0  0
  3  5  1  0  0  0  0
  3  6  1  0  0  0  0
  4  7  2  0  0  0  0
  5  8  2  0  0  0  0
  5  9  1  0  0  0  0
  6 10  2  0  0  0  0
  7 11  1  0  0  0  0
  8 12  1  0  0  0  0
  8 13  1  0  0  0  0
  9 14  1  0  0  0  0
  9 15  2  0  0  0  0
 12 16  2  0  0  0  0
 12 17  1  0  0  0  0
 13 18  1  0  0  0  0
 14 19  2  0  0  0  0
 14 20  1  0  0  0  0
 15 21  1  0  0  0  0
 20 22  1  0  0  0  0
 22 23  1  0  0  0  0
 23 24  1  0  0  0  0
 23 25  2  0  0  0  0
 24 26  1  0  0  0  0
 25 27  1  0  0  0  0
  7 10  1  0  0  0  0
 15 16  1  0  0  0  0
 20 21  1  0  0  0  0
 26 27  2  0  0  0  0
M  END
>  <MolRegNo>
1588352

>  <m>
=

>  <Value>
7700

>  <Unit>
nM

>  <Type>
IC50

>  <pValue>
5.11

>  <Ligand Efficiency>
0

>  <Binding Efficiency>
0

>  <Surface Efficiency>
0

>  <Assay Index>
805535

>  <Assay Category>


>  <Assay Organism>
Homo sapiens

>  <Target ID>
17045

>  <Target Name>
Cytochrome P450 3A4

>  <Target Organism>
Homo sapiens

>  <Target Description>
Target is a single protein chain

>  <Sequence Accession>
P08684

>  <Reference>
J Med Chem 56 (18), 7343-7357 (2013)

>  <Pubmed ID>
23964740

>  <DOI>
10.1021/jm4008906

$$$$
1588351
Actelion Java MolfileCreator 1.0

 28 31  0  0  0  0  0  0  0  0999 V2000
    0.0000   -0.0000   -0.0000 Cl  0  0  0  0  0  0  0  0  0  0  0  0
   -1.3019   -0.7338   -0.0000 C   0  0  0  0  0  0  0  0  0  0  0  0
   -2.6038    0.0237   -0.0000 C   0  0  0  0  0  0  0  0  0  0  0  0
   -1.3137   -2.2132   -0.0000 C   0  0  0  0  0  0  0  0  0  0  0  0
   -2.6156    1.5268   -0.0000 C   0  0  0  0  0  0  0  0  0  0  0  0
   -3.9056   -0.6983   -0.0000 C   0  0  0  0  0  0  0  0  0  0  0  0
   -2.6274   -2.9470   -0.0000 C   0  0  0  0  0  0  0  0  0  0  0  0
   -1.3374    2.2842   -0.0000 C   0  0  0  0  0  0  0  0  0  0  0  0
   -3.9175    2.2842   -0.0000 C   0  0  0  0  0  0  0  0  0  0  0  0
   -3.9175   -2.1777   -0.0000 C   0  0  0  0  0  0  0  0  0  0  0  0
   -2.6393   -4.4264   -0.0000 Cl  0  0  0  0  0  0  0  0  0  0  0  0
   -1.3492    3.7991   -0.0000 C   0  0  0  0  0  0  0  0  0  0  0  0
   -0.0592    1.5504   -0.0000 C   0  0  0  0  0  0  0  0  0  0  0  0
   -5.3496    1.8226   -0.0000 C   0  0  0  0  0  0  0  0  0  0  0  0
   -3.9412    3.7991   -0.0000 C   0  0  0  0  0  0  0  0  0  0  0  0
   -2.6511    4.5566   -0.0000 N   0  0  0  0  0  0  0  0  0  0  0  0
   -0.0710    4.5566   -0.0000 C   0  0  0  0  0  0  0  0  0  0  0  0
    1.2190    2.3079   -0.0000 N   0  0  0  0  0  0  0  0  0  0  0  0
   -5.8111    0.4142   -0.0000 O   0  0  0  0  0  0  0  0  0  0  0  0
   -6.2490    3.0417   -0.0000 N   0  0  0  0  0  0  0  0  0  0  0  0
   -5.3851    4.2725   -0.0000 C   0  0  0  0  0  0  0  0  0  0  0  0
   -7.7521    3.0417   -0.0000 C   0  0  0  0  0  0  0  0  0  0  0  0
   -8.5214    4.3436   -0.0000 C   0  0  0  0  0  0  0  0  0  0  0  0
  -10.0363    4.4146   -0.0000 N   0  0  0  0  0  0  0  0  0  0  0  0
   -8.0125    5.7520   -0.0000 C   0  0  0  0  0  0  0  0  0  0  0  0
  -10.4506    5.8703   -0.0000 N   0  0  0  0  0  0  0  0  0  0  0  0
   -9.1960    6.6988   -0.0000 C   0  0  0  0  0  0  0  0  0  0  0  0
  -11.8590    6.4029   -0.0000 C   0  0  0  0  0  0  0  0  0  0  0  0
  1  2  1  0  0  0  0
  2  3  2  0  0  0  0
  2  4  1  0  0  0  0
  3  5  1  0  0  0  0
  3  6  1  0  0  0  0
  4  7  2  0  0  0  0
  5  8  2  0  0  0  0
  5  9  1  0  0  0  0
  6 10  2  0  0  0  0
  7 11  1  0  0  0  0
  8 12  1  0  0  0  0
  8 13  1  0  0  0  0
  9 14  1  0  0  0  0
  9 15  2  0  0  0  0
 12 16  2  0  0  0  0
 12 17  1  0  0  0  0
 13 18  1  0  0  0  0
 14 19  2  0  0  0  0
 14 20  1  0  0  0  0
 15 21  1  0  0  0  0
 20 22  1  0  0  0  0
 22 23  1  0  0  0  0
 23 24  2  0  0  0  0
 23 25  1  0  0  0  0
 24 26  1  0  0  0  0
 25 27  2  0  0  0  0
 26 28  1  0  0  0  0
  7 10  1  0  0  0  0
 15 16  1  0  0  0  0
 20 21  1  0  0  0  0
 26 27  1  0  0  0  0
M  END
>  <MolRegNo>
1588351

>  <m>
=

>  <Value>
7900

>  <Unit>
nM

>  <Type>
IC50

>  <pValue>
5.1

>  <Ligand Efficiency>
0

>  <Binding Efficiency>
0

>  <Surface Efficiency>
0

>  <Assay Index>
805535

>  <Assay Category>


>  <Assay Organism>
Homo sapiens

>  <Target ID>
17045

>  <Target Name>
Cytochrome P450 3A4

>  <Target Organism>
Homo sapiens

>  <Target Description>
Target is a single protein chain

>  <Sequence Accession>
P08684

>  <Reference>
J Med Chem 56 (18), 7343-7357 (2013)

>  <Pubmed ID>
23964740

>  <DOI>
10.1021/jm4008906

$$$$
1588350
Actelion Java MolfileCreator 1.0

 28 31  0  0  0  0  0  0  0  0999 V2000
    0.0000   -0.0000   -0.0000 Cl  0  0  0  0  0  0  0  0  0  0  0  0
   -1.3028   -0.7343   -0.0000 C   0  0  0  0  0  0  0  0  0  0  0  0
   -2.6056    0.0237   -0.0000 C   0  0  0  0  0  0  0  0  0  0  0  0
   -1.3146   -2.2148   -0.0000 C   0  0  0  0  0  0  0  0  0  0  0  0
   -2.6174    1.5278   -0.0000 C   0  0  0  0  0  0  0  0  0  0  0  0
   -3.9084   -0.6988   -0.0000 C   0  0  0  0  0  0  0  0  0  0  0  0
   -2.6293   -2.9491   -0.0000 C   0  0  0  0  0  0  0  0  0  0  0  0
   -1.3383    2.2858   -0.0000 C   0  0  0  0  0  0  0  0  0  0  0  0
   -3.9203    2.2858   -0.0000 C   0  0  0  0  0  0  0  0  0  0  0  0
   -3.9203   -2.1792   -0.0000 C   0  0  0  0  0  0  0  0  0  0  0  0
   -2.6411   -4.4295   -0.0000 Cl  0  0  0  0  0  0  0  0  0  0  0  0
   -1.3502    3.8018   -0.0000 C   0  0  0  0  0  0  0  0  0  0  0  0
   -0.0592    1.5515   -0.0000 C   0  0  0  0  0  0  0  0  0  0  0  0
   -5.3533    1.8239   -0.0000 C   0  0  0  0  0  0  0  0  0  0  0  0
   -3.9439    3.8018   -0.0000 C   0  0  0  0  0  0  0  0  0  0  0  0
   -2.6530    4.5598   -0.0000 N   0  0  0  0  0  0  0  0  0  0  0  0
   -0.0711    4.5598   -0.0000 C   0  0  0  0  0  0  0  0  0  0  0  0
    1.2199    2.3095   -0.0000 N   0  0  0  0  0  0  0  0  0  0  0  0
   -5.8152    0.4145   -0.0000 O   0  0  0  0  0  0  0  0  0  0  0  0
   -6.2535    3.0438   -0.0000 N   0  0  0  0  0  0  0  0  0  0  0  0
   -5.3889    4.2756   -0.0000 C   0  0  0  0  0  0  0  0  0  0  0  0
   -7.7576    3.0438   -0.0000 C   0  0  0  0  0  0  0  0  0  0  0  0
   -8.5274    4.3466   -0.0000 C   0  0  0  0  0  0  0  0  0  0  0  0
   -7.7931    5.6494   -0.0000 C   0  0  0  0  0  0  0  0  0  0  0  0
  -10.0316    4.3466   -0.0000 C   0  0  0  0  0  0  0  0  0  0  0  0
   -8.5630    6.9522   -0.0000 C   0  0  0  0  0  0  0  0  0  0  0  0
  -10.8014    5.6376   -0.0000 C   0  0  0  0  0  0  0  0  0  0  0  0
  -10.0671    6.9522   -0.0000 C   0  0  0  0  0  0  0  0  0  0  0  0
  1  2  1  0  0  0  0
  2  3  2  0  0  0  0
  2  4  1  0  0  0  0
  3  5  1  0  0  0  0
  3  6  1  0  0  0  0
  4  7  2  0  0  0  0
  5  8  2  0  0  0  0
  5  9  1  0  0  0  0
  6 10  2  0  0  0  0
  7 11  1  0  0  0  0
  8 12  1  0  0  0  0
  8 13  1  0  0  0  0
  9 14  1  0  0  0  0
  9 15  2  0  0  0  0
 12 16  2  0  0  0  0
 12 17  1  0  0  0  0
 13 18  1  0  0  0  0
 14 19  2  0  0  0  0
 14 20  1  0  0  0  0
 15 21  1  0  0  0  0
 20 22  1  0  0  0  0
 22 23  1  0  0  0  0
 23 24  2  0  0  0  0
 23 25  1  0  0  0  0
 24 26  1  0  0  0  0
 25 27  2  0  0  0  0
 26 28  2  0  0  0  0
  7 10  1  0  0  0  0
 15 16  1  0  0  0  0
 20 21  1  0  0  0  0
 27 28  1  0  0  0  0
M  END
>  <MolRegNo>
1588350

>  <m>
=

>  <Value>
900

>  <Unit>
nM

>  <Type>
IC50

>  <pValue>
6.05

>  <Ligand Efficiency>
0

>  <Binding Efficiency>
0

>  <Surface Efficiency>
0

>  <Assay Index>
805535

>  <Assay Category>


>  <Assay Organism>
Homo sapiens

>  <Target ID>
17045

>  <Target Name>
Cytochrome P450 3A4

>  <Target Organism>
Homo sapiens

>  <Target Description>
Target is a single protein chain

>  <Sequence Accession>
P08684

>  <Reference>
J Med Chem 56 (18), 7343-7357 (2013)

>  <Pubmed ID>
23964740

>  <DOI>
10.1021/jm4008906

$$$$
1588349
Actelion Java MolfileCreator 1.0

 27 30  0  0  0  0  0  0  0  0999 V2000
    0.0000   -0.0000   -0.0000 Cl  0  0  0  0  0  0  0  0  0  0  0  0
   -1.3036   -0.7348   -0.0000 C   0  0  0  0  0  0  0  0  0  0  0  0
   -2.6072    0.0237   -0.0000 C   0  0  0  0  0  0  0  0  0  0  0  0
   -1.3154   -2.2161   -0.0000 C   0  0  0  0  0  0  0  0  0  0  0  0
   -2.6190    1.5288   -0.0000 C   0  0  0  0  0  0  0  0  0  0  0  0
   -3.9108   -0.6992   -0.0000 C   0  0  0  0  0  0  0  0  0  0  0  0
   -2.6309   -2.9509   -0.0000 C   0  0  0  0  0  0  0  0  0  0  0  0
   -1.3391    2.2872   -0.0000 C   0  0  0  0  0  0  0  0  0  0  0  0
   -3.9226    2.2872   -0.0000 C   0  0  0  0  0  0  0  0  0  0  0  0
   -3.9226   -2.1806   -0.0000 C   0  0  0  0  0  0  0  0  0  0  0  0
   -2.6427   -4.4322   -0.0000 Cl  0  0  0  0  0  0  0  0  0  0  0  0
   -1.3510    3.8041   -0.0000 C   0  0  0  0  0  0  0  0  0  0  0  0
   -0.0593    1.5525   -0.0000 C   0  0  0  0  0  0  0  0  0  0  0  0
   -5.3566    1.8250   -0.0000 C   0  0  0  0  0  0  0  0  0  0  0  0
   -3.9463    3.8041   -0.0000 C   0  0  0  0  0  0  0  0  0  0  0  0
   -2.6546    4.5626   -0.0000 N   0  0  0  0  0  0  0  0  0  0  0  0
   -0.0711    4.5626   -0.0000 C   0  0  0  0  0  0  0  0  0  0  0  0
    1.2206    2.3109   -0.0000 N   0  0  0  0  0  0  0  0  0  0  0  0
   -5.8188    0.4148   -0.0000 O   0  0  0  0  0  0  0  0  0  0  0  0
   -6.2573    3.0457   -0.0000 N   0  0  0  0  0  0  0  0  0  0  0  0
   -5.3921    4.2782   -0.0000 C   0  0  0  0  0  0  0  0  0  0  0  0
   -7.7623    3.0457   -0.0000 C   0  0  0  0  0  0  0  0  0  0  0  0
   -8.6511    1.8369   -0.0000 N   0  0  0  0  0  0  0  0  0  0  0  0
   -8.6630    4.2545   -0.0000 C   0  0  0  0  0  0  0  0  0  0  0  0
  -10.0851    2.2991   -0.0000 N   0  0  0  0  0  0  0  0  0  0  0  0
  -10.0969    3.7923   -0.0000 C   0  0  0  0  0  0  0  0  0  0  0  0
  -11.3057    1.4221   -0.0000 C   0  0  0  0  0  0  0  0  0  0  0  0
  1  2  1  0  0  0  0
  2  3  2  0  0  0  0
  2  4  1  0  0  0  0
  3  5  1  0  0  0  0
  3  6  1  0  0  0  0
  4  7  2  0  0  0  0
  5  8  2  0  0  0  0
  5  9  1  0  0  0  0
  6 10  2  0  0  0  0
  7 11  1  0  0  0  0
  8 12  1  0  0  0  0
  8 13  1  0  0  0  0
  9 14  1  0  0  0  0
  9 15  2  0  0  0  0
 12 16  2  0  0  0  0
 12 17  1  0  0  0  0
 13 18  1  0  0  0  0
 14 19  2  0  0  0  0
 14 20  1  0  0  0  0
 15 21  1  0  0  0  0
 20 22  1  0  0  0  0
 22 23  2  0  0  0  0
 22 24  1  0  0  0  0
 23 25  1  0  0  0  0
 24 26  2  0  0  0  0
 25 27  1  0  0  0  0
  7 10  1  0  0  0  0
 15 16  1  0  0  0  0
 20 21  1  0  0  0  0
 25 26  1  0  0  0  0
M  END
>  <MolRegNo>
1588349

>  <m>
=

>  <Value>
11000

>  <Unit>
nM

>  <Type>
IC50

>  <pValue>
4.96

>  <Ligand Efficiency>
0

>  <Binding Efficiency>
0

>  <Surface Efficiency>
0

>  <Assay Index>
805535

>  <Assay Category>


>  <Assay Organism>
Homo sapiens

>  <Target ID>
17045

>  <Target Name>
Cytochrome P450 3A4

>  <Target Organism>
Homo sapiens

>  <Target Description>
Target is a single protein chain

>  <Sequence Accession>
P08684

>  <Reference>
J Med Chem 56 (18), 7343-7357 (2013)

>  <Pubmed ID>
23964740

>  <DOI>
10.1021/jm4008906

$$$$
1588348
Actelion Java MolfileCreator 1.0

 29 32  0  0  0  0  0  0  0  0999 V2000
    0.0000   -0.0000   -0.0000 Cl  0  0  0  0  0  0  0  0  0  0  0  0
   -1.3033   -0.7346   -0.0000 C   0  0  0  0  0  0  0  0  0  0  0  0
   -2.6067    0.0237   -0.0000 C   0  0  0  0  0  0  0  0  0  0  0  0
   -1.3152   -2.2157   -0.0000 C   0  0  0  0  0  0  0  0  0  0  0  0
   -2.6185    1.5285   -0.0000 C   0  0  0  0  0  0  0  0  0  0  0  0
   -3.9100   -0.6991   -0.0000 C   0  0  0  0  0  0  0  0  0  0  0  0
   -2.6304   -2.9503   -0.0000 C   0  0  0  0  0  0  0  0  0  0  0  0
   -1.3389    2.2868   -0.0000 C   0  0  0  0  0  0  0  0  0  0  0  0
   -3.9218    2.2868   -0.0000 C   0  0  0  0  0  0  0  0  0  0  0  0
   -3.9218   -2.1801   -0.0000 C   0  0  0  0  0  0  0  0  0  0  0  0
   -2.6422   -4.4313   -0.0000 Cl  0  0  0  0  0  0  0  0  0  0  0  0
   -1.3507    3.8034   -0.0000 C   0  0  0  0  0  0  0  0  0  0  0  0
   -0.0592    1.5522   -0.0000 C   0  0  0  0  0  0  0  0  0  0  0  0
   -5.3555    1.8247   -0.0000 C   0  0  0  0  0  0  0  0  0  0  0  0
   -3.9455    3.8034   -0.0000 C   0  0  0  0  0  0  0  0  0  0  0  0
   -2.6541    4.5617   -0.0000 N   0  0  0  0  0  0  0  0  0  0  0  0
   -0.0711    4.5617   -0.0000 C   0  0  0  0  0  0  0  0  0  0  0  0
    1.2204    2.3105   -0.0000 N   0  0  0  0  0  0  0  0  0  0  0  0
   -5.8176    0.4147   -0.0000 O   0  0  0  0  0  0  0  0  0  0  0  0
   -6.2560    3.0451   -0.0000 N   0  0  0  0  0  0  0  0  0  0  0  0
   -5.3911    4.2773   -0.0000 C   0  0  0  0  0  0  0  0  0  0  0  0
   -7.7608    3.0451   -0.0000 C   0  0  0  0  0  0  0  0  0  0  0  0
   -8.5191    4.3484   -0.0000 C   0  0  0  0  0  0  0  0  0  0  0  0
   -8.5072    1.7536   -0.0000 C   0  0  0  0  0  0  0  0  0  0  0  0
   -7.7844    5.6517   -0.0000 O   0  0  0  0  0  0  0  0  0  0  0  0
  -10.0238    4.3484   -0.0000 C   0  0  0  0  0  0  0  0  0  0  0  0
  -10.0120    1.7536   -0.0000 C   0  0  0  0  0  0  0  0  0  0  0  0
   -8.5428    6.9551   -0.0000 C   0  0  0  0  0  0  0  0  0  0  0  0
  -10.7821    3.0569   -0.0000 C   0  0  0  0  0  0  0  0  0  0  0  0
  1  2  1  0  0  0  0
  2  3  2  0  0  0  0
  2  4  1  0  0  0  0
  3  5  1  0  0  0  0
  3  6  1  0  0  0  0
  4  7  2  0  0  0  0
  5  8  2  0  0  0  0
  5  9  1  0  0  0  0
  6 10  2  0  0  0  0
  7 11  1  0  0  0  0
  8 12  1  0  0  0  0
  8 13  1  0  0  0  0
  9 14  1  0  0  0  0
  9 15  2  0  0  0  0
 12 16  2  0  0  0  0
 12 17  1  0  0  0  0
 13 18  1  0  0  0  0
 14 19  2  0  0  0  0
 14 20  1  0  0  0  0
 15 21  1  0  0  0  0
 20 22  1  0  0  0  0
 22 23  2  0  0  0  0
 22 24  1  0  0  0  0
 23 25  1  0  0  0  0
 23 26  1  0  0  0  0
 24 27  2  0  0  0  0
 25 28  1  0  0  0  0
 26 29  2  0  0  0  0
  7 10  1  0  0  0  0
 15 16  1  0  0  0  0
 20 21  1  0  0  0  0
 27 29  1  0  0  0  0
M  END
>  <MolRegNo>
1588348

>  <m>
=

>  <Value>
800

>  <Unit>
nM

>  <Type>
IC50

>  <pValue>
6.1

>  <Ligand Efficiency>
0

>  <Binding Efficiency>
0

>  <Surface Efficiency>
0

>  <Assay Index>
805535

>  <Assay Category>


>  <Assay Organism>
Homo sapiens

>  <Target ID>
17045

>  <Target Name>
Cytochrome P450 3A4

>  <Target Organism>
Homo sapiens

>  <Target Description>
Target is a single protein chain

>  <Sequence Accession>
P08684

>  <Reference>
J Med Chem 56 (18), 7343-7357 (2013)

>  <Pubmed ID>
23964740

>  <DOI>
10.1021/jm4008906

$$$$
1588347
Actelion Java MolfileCreator 1.0

 29 32  0  0  0  0  0  0  0  0999 V2000
    0.0000   -0.0000   -0.0000 Cl  0  0  0  0  0  0  0  0  0  0  0  0
   -1.3029   -0.7344   -0.0000 C   0  0  0  0  0  0  0  0  0  0  0  0
   -2.6059    0.0237   -0.0000 C   0  0  0  0  0  0  0  0  0  0  0  0
   -1.3148   -2.2150   -0.0000 C   0  0  0  0  0  0  0  0  0  0  0  0
   -2.6177    1.5280   -0.0000 C   0  0  0  0  0  0  0  0  0  0  0  0
   -3.9088   -0.6988   -0.0000 C   0  0  0  0  0  0  0  0  0  0  0  0
   -2.6296   -2.9494   -0.0000 C   0  0  0  0  0  0  0  0  0  0  0  0
   -1.3385    2.2861   -0.0000 C   0  0  0  0  0  0  0  0  0  0  0  0
   -3.9206    2.2861   -0.0000 C   0  0  0  0  0  0  0  0  0  0  0  0
   -3.9206   -2.1795   -0.0000 C   0  0  0  0  0  0  0  0  0  0  0  0
   -2.6414   -4.4300   -0.0000 Cl  0  0  0  0  0  0  0  0  0  0  0  0
   -1.3503    3.8022   -0.0000 C   0  0  0  0  0  0  0  0  0  0  0  0
   -0.0592    1.5517   -0.0000 C   0  0  0  0  0  0  0  0  0  0  0  0
   -5.3539    1.8241   -0.0000 C   0  0  0  0  0  0  0  0  0  0  0  0
   -3.9443    3.8022   -0.0000 C   0  0  0  0  0  0  0  0  0  0  0  0
   -2.6532    4.5603   -0.0000 N   0  0  0  0  0  0  0  0  0  0  0  0
   -0.0711    4.5603   -0.0000 C   0  0  0  0  0  0  0  0  0  0  0  0
    1.2200    2.3097   -0.0000 N   0  0  0  0  0  0  0  0  0  0  0  0
   -5.8158    0.4146   -0.0000 O   0  0  0  0  0  0  0  0  0  0  0  0
   -6.2541    3.0441   -0.0000 N   0  0  0  0  0  0  0  0  0  0  0  0
   -5.3894    4.2760   -0.0000 C   0  0  0  0  0  0  0  0  0  0  0  0
   -7.7584    3.0441   -0.0000 C   0  0  0  0  0  0  0  0  0  0  0  0
   -8.5165    4.3471   -0.0000 C   0  0  0  0  0  0  0  0  0  0  0  0
   -8.5046    1.7530   -0.0000 C   0  0  0  0  0  0  0  0  0  0  0  0
  -10.0208    4.3471   -0.0000 C   0  0  0  0  0  0  0  0  0  0  0  0
  -10.0089    1.7530   -0.0000 C   0  0  0  0  0  0  0  0  0  0  0  0
  -10.7788    3.0560   -0.0000 C   0  0  0  0  0  0  0  0  0  0  0  0
  -12.2831    3.0560   -0.0000 O   0  0  0  0  0  0  0  0  0  0  0  0
  -13.0530    4.3589   -0.0000 C   0  0  0  0  0  0  0  0  0  0  0  0
  1  2  1  0  0  0  0
  2  3  2  0  0  0  0
  2  4  1  0  0  0  0
  3  5  1  0  0  0  0
  3  6  1  0  0  0  0
  4  7  2  0  0  0  0
  5  8  2  0  0  0  0
  5  9  1  0  0  0  0
  6 10  2  0  0  0  0
  7 11  1  0  0  0  0
  8 12  1  0  0  0  0
  8 13  1  0  0  0  0
  9 14  1  0  0  0  0
  9 15  2  0  0  0  0
 12 16  2  0  0  0  0
 12 17  1  0  0  0  0
 13 18  1  0  0  0  0
 14 19  2  0  0  0  0
 14 20  1  0  0  0  0
 15 21  1  0  0  0  0
 20 22  1  0  0  0  0
 22 23  2  0  0  0  0
 22 24  1  0  0  0  0
 23 25  1  0  0  0  0
 24 26  2  0  0  0  0
 25 27  2  0  0  0  0
 27 28  1  0  0  0  0
 28 29  1  0  0  0  0
  7 10  1  0  0  0  0
 15 16  1  0  0  0  0
 20 21  1  0  0  0  0
 26 27  1  0  0  0  0
M  END
>  <MolRegNo>
1588347

>  <m>
=

>  <Value>
900

>  <Unit>
nM

>  <Type>
IC50

>  <pValue>
6.05

>  <Ligand Efficiency>
0

>  <Binding Efficiency>
0

>  <Surface Efficiency>
0

>  <Assay Index>
805535

>  <Assay Category>


>  <Assay Organism>
Homo sapiens

>  <Target ID>
17045

>  <Target Name>
Cytochrome P450 3A4

>  <Target Organism>
Homo sapiens

>  <Target Description>
Target is a single protein chain

>  <Sequence Accession>
P08684

>  <Reference>
J Med Chem 56 (18), 7343-7357 (2013)

>  <Pubmed ID>
23964740

>  <DOI>
10.1021/jm4008906

$$$$
1587145
Actelion Java MolfileCreator 1.0

 26 28  0  0  0  0  0  0  0  0999 V2000
    0.0000   -0.0000   -0.0000 Cl  0  0  0  0  0  0  0  0  0  0  0  0
    1.2867    0.7744   -0.0000 C   0  0  0  0  0  0  0  0  0  0  0  0
    1.2629    2.2875   -0.0000 C   0  0  0  0  0  0  0  0  0  0  0  0
    2.5853    0.0357   -0.0000 C   0  0  0  0  0  0  0  0  0  0  0  0
    2.5615    3.0619   -0.0000 C   0  0  0  0  0  0  0  0  0  0  0  0
    3.8721    0.8102   -0.0000 C   0  0  0  0  0  0  0  0  0  0  0  0
    2.5258    4.5869   -0.0000 O   0  0  0  0  0  0  0  0  0  0  0  0
    3.8601    2.3232   -0.0000 C   0  0  0  0  0  0  0  0  0  0  0  0
    5.1707    0.0834   -0.0000 C   0  0  0  0  0  0  0  0  0  0  0  0
    3.8006    5.3732   -0.0000 C   0  0  0  0  0  0  0  0  0  0  0  0
    5.1707   -1.4059   -0.0000 O   0  0  0  0  0  0  0  0  0  0  0  0
    6.4574    0.8578   -0.0000 N   0  0  0  0  0  0  0  0  0  0  0  0
    5.0992    4.6465   -0.0000 C   0  0  0  0  0  0  0  0  0  0  0  0
    3.7529    6.8863   -0.0000 C   0  0  0  0  0  0  0  0  0  0  0  0
    7.7560    0.1311   -0.0000 C   0  0  0  0  0  0  0  0  0  0  0  0
    6.3740    5.4328   -0.0000 N   0  0  0  0  0  0  0  0  0  0  0  0
    5.0277    7.6726   -0.0000 C   0  0  0  0  0  0  0  0  0  0  0  0
    9.0308    0.9055   -0.0000 N   0  0  0  0  0  0  0  0  0  0  0  0
    7.7441   -1.3582   -0.0000 C   0  0  0  0  0  0  0  0  0  0  0  0
    6.3382    6.9459   -0.0000 C   0  0  0  0  0  0  0  0  0  0  0  0
    4.9801    9.1857   -0.0000 C   0  0  0  0  0  0  0  0  0  0  0  0
   10.3294    0.1787   -0.0000 C   0  0  0  0  0  0  0  0  0  0  0  0
    9.0427   -2.0850   -0.0000 C   0  0  0  0  0  0  0  0  0  0  0  0
    4.9324   10.6988   -0.0000 N   0  0  0  0  0  0  0  0  0  0  0  0
   10.3294   -1.3225   -0.0000 C   0  0  0  0  0  0  0  0  0  0  0  0
   11.6281   -2.0492   -0.0000 F   0  0  0  0  0  0  0  0  0  0  0  0
  1  2  1  0  0  0  0
  2  3  2  0  0  0  0
  2  4  1  0  0  0  0
  3  5  1  0  0  0  0
  4  6  2  0  0  0  0
  5  7  1  0  0  0  0
  5  8  2  0  0  0  0
  6  9  1  0  0  0  0
  7 10  1  0  0  0  0
  9 11  2  0  0  0  0
  9 12  1  0  0  0  0
 10 13  2  0  0  0  0
 10 14  1  0  0  0  0
 12 15  1  0  0  0  0
 13 16  1  0  0  0  0
 14 17  2  0  0  0  0
 15 18  2  0  0  0  0
 15 19  1  0  0  0  0
 16 20  2  0  0  0  0
 17 21  1  0  0  0  0
 18 22  1  0  0  0  0
 19 23  2  0  0  0  0
 21 24  3  0  0  0  0
 22 25  2  0  0  0  0
 25 26  1  0  0  0  0
  6  8  1  0  0  0  0
 17 20  1  0  0  0  0
 23 25  1  0  0  0  0
M  END
>  <MolRegNo>
1587145

>  <m>
=

>  <Value>
1700

>  <Unit>
nM

>  <Type>
IC50

>  <pValue>
5.77

>  <Ligand Efficiency>
0

>  <Binding Efficiency>
0

>  <Surface Efficiency>
0

>  <Assay Index>
804370

>  <Assay Category>


>  <Assay Organism>
Homo sapiens

>  <Target ID>
17045

>  <Target Name>
Cytochrome P450 3A4

>  <Target Organism>
Homo sapiens

>  <Target Description>
Target is a single protein chain

>  <Sequence Accession>
P08684

>  <Reference>
Bioorg Med Chem Lett 23 (21), 5779-5785 (2013)

>  <Pubmed ID>
24074843

>  <DOI>
10.1016/j.bmcl.2013.09.001

$$$$
1587144
Actelion Java MolfileCreator 1.0

 25 27  0  0  0  0  0  0  0  0999 V2000
    0.0000   -0.0000   -0.0000 Cl  0  0  0  0  0  0  0  0  0  0  0  0
    1.2861    0.7740   -0.0000 C   0  0  0  0  0  0  0  0  0  0  0  0
    1.2622    2.2863   -0.0000 C   0  0  0  0  0  0  0  0  0  0  0  0
    2.5840    0.0357   -0.0000 C   0  0  0  0  0  0  0  0  0  0  0  0
    2.5602    3.0603   -0.0000 C   0  0  0  0  0  0  0  0  0  0  0  0
    3.8701    0.8097   -0.0000 C   0  0  0  0  0  0  0  0  0  0  0  0
    2.5245    4.5846   -0.0000 O   0  0  0  0  0  0  0  0  0  0  0  0
    3.8582    2.3220   -0.0000 C   0  0  0  0  0  0  0  0  0  0  0  0
    5.1680    0.0834   -0.0000 C   0  0  0  0  0  0  0  0  0  0  0  0
    3.7986    5.3705   -0.0000 C   0  0  0  0  0  0  0  0  0  0  0  0
    5.1680   -1.4051   -0.0000 O   0  0  0  0  0  0  0  0  0  0  0  0
    6.4541    0.8574   -0.0000 N   0  0  0  0  0  0  0  0  0  0  0  0
    5.1085    4.6441   -0.0000 C   0  0  0  0  0  0  0  0  0  0  0  0
    3.7510    6.8828   -0.0000 C   0  0  0  0  0  0  0  0  0  0  0  0
    7.7521    0.1310   -0.0000 C   0  0  0  0  0  0  0  0  0  0  0  0
    6.3827    5.4300   -0.0000 N   0  0  0  0  0  0  0  0  0  0  0  0
    5.0251    7.6687   -0.0000 C   0  0  0  0  0  0  0  0  0  0  0  0
    9.0262    0.9050   -0.0000 N   0  0  0  0  0  0  0  0  0  0  0  0
    7.7402   -1.3575   -0.0000 C   0  0  0  0  0  0  0  0  0  0  0  0
    6.3469    6.9423   -0.0000 C   0  0  0  0  0  0  0  0  0  0  0  0
    4.9775    9.1810   -0.0000 F   0  0  0  0  0  0  0  0  0  0  0  0
   10.3242    0.1786   -0.0000 C   0  0  0  0  0  0  0  0  0  0  0  0
    9.0381   -2.0839   -0.0000 C   0  0  0  0  0  0  0  0  0  0  0  0
   10.3242   -1.3218   -0.0000 C   0  0  0  0  0  0  0  0  0  0  0  0
   11.6102    0.9526   -0.0000 C   0  0  0  0  0  0  0  0  0  0  0  0
  1  2  1  0  0  0  0
  2  3  2  0  0  0  0
  2  4  1  0  0  0  0
  3  5  1  0  0  0  0
  4  6  2  0  0  0  0
  5  7  1  0  0  0  0
  5  8  2  0  0  0  0
  6  9  1  0  0  0  0
  7 10  1  0  0  0  0
  9 11  2  0  0  0  0
  9 12  1  0  0  0  0
 10 13  2  0  0  0  0
 10 14  1  0  0  0  0
 12 15  1  0  0  0  0
 13 16  1  0  0  0  0
 14 17  2  0  0  0  0
 15 18  2  0  0  0  0
 15 19  1  0  0  0  0
 16 20  2  0  0  0  0
 17 21  1  0  0  0  0
 18 22  1  0  0  0  0
 19 23  2  0  0  0  0
 22 24  2  0  0  0  0
 22 25  1  0  0  0  0
  6  8  1  0  0  0  0
 17 20  1  0  0  0  0
 23 24  1  0  0  0  0
M  END
>  <MolRegNo>
1587144

>  <m>
=

>  <Value>
700

>  <Unit>
nM

>  <Type>
IC50

>  <pValue>
6.16

>  <Ligand Efficiency>
0

>  <Binding Efficiency>
0

>  <Surface Efficiency>
0

>  <Assay Index>
804370

>  <Assay Category>


>  <Assay Organism>
Homo sapiens

>  <Target ID>
17045

>  <Target Name>
Cytochrome P450 3A4

>  <Target Organism>
Homo sapiens

>  <Target Description>
Target is a single protein chain

>  <Sequence Accession>
P08684

>  <Reference>
Bioorg Med Chem Lett 23 (21), 5779-5785 (2013)

>  <Pubmed ID>
24074843

>  <DOI>
10.1016/j.bmcl.2013.09.001

$$$$
1587143
Actelion Java MolfileCreator 1.0

 25 27  0  0  0  0  0  0  0  0999 V2000
    0.0000   -0.0000   -0.0000 Cl  0  0  0  0  0  0  0  0  0  0  0  0
    1.2865    0.7743   -0.0000 C   0  0  0  0  0  0  0  0  0  0  0  0
    1.2627    2.2871   -0.0000 C   0  0  0  0  0  0  0  0  0  0  0  0
    2.5849    0.0357   -0.0000 C   0  0  0  0  0  0  0  0  0  0  0  0
    2.5611    3.0614   -0.0000 C   0  0  0  0  0  0  0  0  0  0  0  0
    3.8714    0.8100   -0.0000 C   0  0  0  0  0  0  0  0  0  0  0  0
    2.5253    4.5861   -0.0000 O   0  0  0  0  0  0  0  0  0  0  0  0
    3.8595    2.3228   -0.0000 C   0  0  0  0  0  0  0  0  0  0  0  0
    5.1698    0.0834   -0.0000 C   0  0  0  0  0  0  0  0  0  0  0  0
    3.7999    5.3723   -0.0000 C   0  0  0  0  0  0  0  0  0  0  0  0
    5.1698   -1.4056   -0.0000 O   0  0  0  0  0  0  0  0  0  0  0  0
    6.4563    0.8577   -0.0000 N   0  0  0  0  0  0  0  0  0  0  0  0
    5.1102    4.6457   -0.0000 C   0  0  0  0  0  0  0  0  0  0  0  0
    3.7523    6.8851   -0.0000 C   0  0  0  0  0  0  0  0  0  0  0  0
    7.7547    0.1310   -0.0000 C   0  0  0  0  0  0  0  0  0  0  0  0
    6.3848    5.4318   -0.0000 N   0  0  0  0  0  0  0  0  0  0  0  0
    5.0268    7.6713   -0.0000 C   0  0  0  0  0  0  0  0  0  0  0  0
    9.0293    0.9053   -0.0000 N   0  0  0  0  0  0  0  0  0  0  0  0
    7.7428   -1.3580   -0.0000 C   0  0  0  0  0  0  0  0  0  0  0  0
    6.3491    6.9447   -0.0000 C   0  0  0  0  0  0  0  0  0  0  0  0
    4.9792    9.1841   -0.0000 F   0  0  0  0  0  0  0  0  0  0  0  0
   10.3277    0.1787   -0.0000 C   0  0  0  0  0  0  0  0  0  0  0  0
    9.0412   -2.0846   -0.0000 C   0  0  0  0  0  0  0  0  0  0  0  0
   10.3277   -1.3222   -0.0000 C   0  0  0  0  0  0  0  0  0  0  0  0
   11.6261   -2.0489   -0.0000 F   0  0  0  0  0  0  0  0  0  0  0  0
  1  2  1  0  0  0  0
  2  3  2  0  0  0  0
  2  4  1  0  0  0  0
  3  5  1  0  0  0  0
  4  6  2  0  0  0  0
  5  7  1  0  0  0  0
  5  8  2  0  0  0  0
  6  9  1  0  0  0  0
  7 10  1  0  0  0  0
  9 11  2  0  0  0  0
  9 12  1  0  0  0  0
 10 13  2  0  0  0  0
 10 14  1  0  0  0  0
 12 15  1  0  0  0  0
 13 16  1  0  0  0  0
 14 17  2  0  0  0  0
 15 18  2  0  0  0  0
 15 19  1  0  0  0  0
 16 20  2  0  0  0  0
 17 21  1  0  0  0  0
 18 22  1  0  0  0  0
 19 23  2  0  0  0  0
 22 24  2  0  0  0  0
 24 25  1  0  0  0  0
  6  8  1  0  0  0  0
 17 20  1  0  0  0  0
 23 24  1  0  0  0  0
M  END
>  <MolRegNo>
1587143

>  <m>
=

>  <Value>
1300

>  <Unit>
nM

>  <Type>
IC50

>  <pValue>
5.89

>  <Ligand Efficiency>
0

>  <Binding Efficiency>
0

>  <Surface Efficiency>
0

>  <Assay Index>
804370

>  <Assay Category>


>  <Assay Organism>
Homo sapiens

>  <Target ID>
17045

>  <Target Name>
Cytochrome P450 3A4

>  <Target Organism>
Homo sapiens

>  <Target Description>
Target is a single protein chain

>  <Sequence Accession>
P08684

>  <Reference>
Bioorg Med Chem Lett 23 (21), 5779-5785 (2013)

>  <Pubmed ID>
24074843

>  <DOI>
10.1016/j.bmcl.2013.09.001

$$$$
1587132
Actelion Java MolfileCreator 1.0

 24 26  0  0  0  0  0  0  0  0999 V2000
    0.0000   -0.0000   -0.0000 Cl  0  0  0  0  0  0  0  0  0  0  0  0
    1.2835    0.7724   -0.0000 C   0  0  0  0  0  0  0  0  0  0  0  0
    1.2597    2.2817   -0.0000 C   0  0  0  0  0  0  0  0  0  0  0  0
    2.5788    0.0357   -0.0000 C   0  0  0  0  0  0  0  0  0  0  0  0
    2.5550    3.0541   -0.0000 C   0  0  0  0  0  0  0  0  0  0  0  0
    3.8622    0.8081   -0.0000 C   0  0  0  0  0  0  0  0  0  0  0  0
    2.5313    4.5634   -0.0000 O   0  0  0  0  0  0  0  0  0  0  0  0
    3.8504    2.3173   -0.0000 C   0  0  0  0  0  0  0  0  0  0  0  0
    5.1576    0.0832   -0.0000 C   0  0  0  0  0  0  0  0  0  0  0  0
    1.2122    5.3240   -0.0000 C   0  0  0  0  0  0  0  0  0  0  0  0
    5.1576   -1.4023   -0.0000 O   0  0  0  0  0  0  0  0  0  0  0  0
    6.4410    0.8556   -0.0000 N   0  0  0  0  0  0  0  0  0  0  0  0
    1.1884    6.8332   -0.0000 C   0  0  0  0  0  0  0  0  0  0  0  0
   -0.0951    4.5753   -0.0000 C   0  0  0  0  0  0  0  0  0  0  0  0
    7.7364    0.1307   -0.0000 C   0  0  0  0  0  0  0  0  0  0  0  0
   -0.1307    7.5938   -0.0000 N   0  0  0  0  0  0  0  0  0  0  0  0
   -1.4142    5.3240   -0.0000 N   0  0  0  0  0  0  0  0  0  0  0  0
    9.0079    0.9032   -0.0000 N   0  0  0  0  0  0  0  0  0  0  0  0
    7.7245   -1.3548   -0.0000 C   0  0  0  0  0  0  0  0  0  0  0  0
   -1.4379    6.8451   -0.0000 C   0  0  0  0  0  0  0  0  0  0  0  0
   10.3033    0.1783   -0.0000 C   0  0  0  0  0  0  0  0  0  0  0  0
    9.0198   -2.0797   -0.0000 C   0  0  0  0  0  0  0  0  0  0  0  0
   10.3033   -1.3191   -0.0000 C   0  0  0  0  0  0  0  0  0  0  0  0
   11.5867    0.9507   -0.0000 C   0  0  0  0  0  0  0  0  0  0  0  0
  1  2  1  0  0  0  0
  2  3  2  0  0  0  0
  2  4  1  0  0  0  0
  3  5  1  0  0  0  0
  4  6  2  0  0  0  0
  5  7  1  0  0  0  0
  5  8  2  0  0  0  0
  6  9  1  0  0  0  0
  7 10  1  0  0  0  0
  9 11  2  0  0  0  0
  9 12  1  0  0  0  0
 10 13  2  0  0  0  0
 10 14  1  0  0  0  0
 12 15  1  0  0  0  0
 13 16  1  0  0  0  0
 14 17  2  0  0  0  0
 15 18  2  0  0  0  0
 15 19  1  0  0  0  0
 16 20  2  0  0  0  0
 18 21  1  0  0  0  0
 19 22  2  0  0  0  0
 21 23  2  0  0  0  0
 21 24  1  0  0  0  0
  6  8  1  0  0  0  0
 17 20  1  0  0  0  0
 22 23  1  0  0  0  0
M  END
>  <MolRegNo>
1587132

>  <m>
=

>  <Value>
4300

>  <Unit>
nM

>  <Type>
IC50

>  <pValue>
5.37

>  <Ligand Efficiency>
0

>  <Binding Efficiency>
0

>  <Surface Efficiency>
0

>  <Assay Index>
804370

>  <Assay Category>


>  <Assay Organism>
Homo sapiens

>  <Target ID>
17045

>  <Target Name>
Cytochrome P450 3A4

>  <Target Organism>
Homo sapiens

>  <Target Description>
Target is a single protein chain

>  <Sequence Accession>
P08684

>  <Reference>
Bioorg Med Chem Lett 23 (21), 5779-5785 (2013)

>  <Pubmed ID>
24074843

>  <DOI>
10.1016/j.bmcl.2013.09.001

$$$$
1587131
Actelion Java MolfileCreator 1.0

 24 26  0  0  0  0  0  0  0  0999 V2000
    0.0000   -0.0000   -0.0000 Cl  0  0  0  0  0  0  0  0  0  0  0  0
    1.0523   -0.6048   -0.0000 C   0  0  0  0  0  0  0  0  0  0  0  0
    2.3706    0.1693   -0.0000 N   0  0  0  0  0  0  0  0  0  0  0  0
    1.0402   -2.1287   -0.0000 C   0  0  0  0  0  0  0  0  0  0  0  0
    3.6890   -0.5806   -0.0000 C   0  0  0  0  0  0  0  0  0  0  0  0
    2.3585   -2.8786   -0.0000 C   0  0  0  0  0  0  0  0  0  0  0  0
    5.0073    0.2056   -0.0000 N   0  0  0  0  0  0  0  0  0  0  0  0
    3.6769   -2.1045   -0.0000 C   0  0  0  0  0  0  0  0  0  0  0  0
    4.9952    1.7538   -0.0000 C   0  0  0  0  0  0  0  0  0  0  0  0
    3.9188    2.3827   -0.0000 O   0  0  0  0  0  0  0  0  0  0  0  0
    6.3136    2.5400   -0.0000 C   0  0  0  0  0  0  0  0  0  0  0  0
    7.6320    1.7901   -0.0000 C   0  0  0  0  0  0  0  0  0  0  0  0
    6.3015    4.0881   -0.0000 C   0  0  0  0  0  0  0  0  0  0  0  0
    8.9503    2.5641   -0.0000 C   0  0  0  0  0  0  0  0  0  0  0  0
    7.6199    4.8622   -0.0000 C   0  0  0  0  0  0  0  0  0  0  0  0
   10.0026    1.9594   -0.0000 Cl  0  0  0  0  0  0  0  0  0  0  0  0
    8.9382    4.1123   -0.0000 C   0  0  0  0  0  0  0  0  0  0  0  0
    7.6078    6.4104   -0.0000 O   0  0  0  0  0  0  0  0  0  0  0  0
    6.2652    7.1844   -0.0000 C   0  0  0  0  0  0  0  0  0  0  0  0
    6.2531    8.7326   -0.0000 C   0  0  0  0  0  0  0  0  0  0  0  0
    4.9227    6.4225   -0.0000 C   0  0  0  0  0  0  0  0  0  0  0  0
    4.9106    9.5067   -0.0000 N   0  0  0  0  0  0  0  0  0  0  0  0
    3.5801    7.1965   -0.0000 N   0  0  0  0  0  0  0  0  0  0  0  0
    3.5680    8.7447   -0.0000 C   0  0  0  0  0  0  0  0  0  0  0  0
  1  2  1  0  0  0  0
  2  3  2  0  0  0  0
  2  4  1  0  0  0  0
  3  5  1  0  0  0  0
  4  6  2  0  0  0  0
  5  7  1  0  0  0  0
  5  8  2  0  0  0  0
  7  9  1  0  0  0  0
  9 10  2  0  0  0  0
  9 11  1  0  0  0  0
 11 12  2  0  0  0  0
 11 13  1  0  0  0  0
 12 14  1  0  0  0  0
 13 15  2  0  0  0  0
 14 16  1  0  0  0  0
 14 17  2  0  0  0  0
 15 18  1  0  0  0  0
 18 19  1  0  0  0  0
 19 20  2  0  0  0  0
 19 21  1  0  0  0  0
 20 22  1  0  0  0  0
 21 23  2  0  0  0  0
 22 24  2  0  0  0  0
  6  8  1  0  0  0  0
 15 17  1  0  0  0  0
 23 24  1  0  0  0  0
M  END
>  <MolRegNo>
1587131

>  <m>
=

>  <Value>
1900

>  <Unit>
nM

>  <Type>
IC50

>  <pValue>
5.72

>  <Ligand Efficiency>
0

>  <Binding Efficiency>
0

>  <Surface Efficiency>
0

>  <Assay Index>
804370

>  <Assay Category>


>  <Assay Organism>
Homo sapiens

>  <Target ID>
17045

>  <Target Name>
Cytochrome P450 3A4

>  <Target Organism>
Homo sapiens

>  <Target Description>
Target is a single protein chain

>  <Sequence Accession>
P08684

>  <Reference>
Bioorg Med Chem Lett 23 (21), 5779-5785 (2013)

>  <Pubmed ID>
24074843

>  <DOI>
10.1016/j.bmcl.2013.09.001

$$$$
1587169
Actelion Java MolfileCreator 1.0

 24 26  0  0  0  0  0  0  0  0999 V2000
    0.0000   -0.0000   -0.0000 Cl  0  0  0  0  0  0  0  0  0  0  0  0
    1.0568    0.6317   -0.0000 C   0  0  0  0  0  0  0  0  0  0  0  0
    1.0447    2.1865   -0.0000 C   0  0  0  0  0  0  0  0  0  0  0  0
    2.3808   -0.1215   -0.0000 C   0  0  0  0  0  0  0  0  0  0  0  0
    2.3687    2.9639   -0.0000 C   0  0  0  0  0  0  0  0  0  0  0  0
    3.7049    0.6559   -0.0000 C   0  0  0  0  0  0  0  0  0  0  0  0
    2.3565    4.5187   -0.0000 O   0  0  0  0  0  0  0  0  0  0  0  0
    3.6927    2.2108   -0.0000 C   0  0  0  0  0  0  0  0  0  0  0  0
    5.0289   -0.0972   -0.0000 C   0  0  0  0  0  0  0  0  0  0  0  0
    3.6806    5.2962   -0.0000 C   0  0  0  0  0  0  0  0  0  0  0  0
    5.0168   -1.3240   -0.0000 O   0  0  0  0  0  0  0  0  0  0  0  0
    6.3530    0.6924   -0.0000 N   0  0  0  0  0  0  0  0  0  0  0  0
    3.6684    6.8510   -0.0000 C   0  0  0  0  0  0  0  0  0  0  0  0
    5.0046    4.5309   -0.0000 C   0  0  0  0  0  0  0  0  0  0  0  0
    7.6770   -0.0607   -0.0000 C   0  0  0  0  0  0  0  0  0  0  0  0
    4.9925    7.6284   -0.0000 N   0  0  0  0  0  0  0  0  0  0  0  0
    6.3287    5.3083   -0.0000 N   0  0  0  0  0  0  0  0  0  0  0  0
    7.6648   -1.5913   -0.0000 N   0  0  0  0  0  0  0  0  0  0  0  0
    9.0010    0.7167   -0.0000 C   0  0  0  0  0  0  0  0  0  0  0  0
    6.3165    6.8631   -0.0000 C   0  0  0  0  0  0  0  0  0  0  0  0
    8.9889   -2.3444   -0.0000 C   0  0  0  0  0  0  0  0  0  0  0  0
   10.3251   -0.0364   -0.0000 C   0  0  0  0  0  0  0  0  0  0  0  0
   10.3129   -1.5670   -0.0000 C   0  0  0  0  0  0  0  0  0  0  0  0
   11.3697   -2.1743   -0.0000 F   0  0  0  0  0  0  0  0  0  0  0  0
  1  2  1  0  0  0  0
  2  3  2  0  0  0  0
  2  4  1  0  0  0  0
  3  5  1  0  0  0  0
  4  6  2  0  0  0  0
  5  7  1  0  0  0  0
  5  8  2  0  0  0  0
  6  9  1  0  0  0  0
  7 10  1  0  0  0  0
  9 11  2  0  0  0  0
  9 12  1  0  0  0  0
 10 13  2  0  0  0  0
 10 14  1  0  0  0  0
 12 15  1  0  0  0  0
 13 16  1  0  0  0  0
 14 17  2  0  0  0  0
 15 18  2  0  0  0  0
 15 19  1  0  0  0  0
 16 20  2  0  0  0  0
 18 21  1  0  0  0  0
 19 22  2  0  0  0  0
 21 23  2  0  0  0  0
 23 24  1  0  0  0  0
  6  8  1  0  0  0  0
 17 20  1  0  0  0  0
 22 23  1  0  0  0  0
M  END
>  <MolRegNo>
1587169

>  <m>
=

>  <Value>
6200

>  <Unit>
nM

>  <Type>
IC50

>  <pValue>
5.21

>  <Ligand Efficiency>
0

>  <Binding Efficiency>
0

>  <Surface Efficiency>
0

>  <Assay Index>
804370

>  <Assay Category>


>  <Assay Organism>
Homo sapiens

>  <Target ID>
17045

>  <Target Name>
Cytochrome P450 3A4

>  <Target Organism>
Homo sapiens

>  <Target Description>
Target is a single protein chain

>  <Sequence Accession>
P08684

>  <Reference>
Bioorg Med Chem Lett 23 (21), 5779-5785 (2013)

>  <Pubmed ID>
24074843

>  <DOI>
10.1016/j.bmcl.2013.09.001

$$$$
1587166
Actelion Java MolfileCreator 1.0

 23 25  0  0  0  0  0  0  0  0999 V2000
    0.0000   -0.0000   -0.0000 Cl  0  0  0  0  0  0  0  0  0  0  0  0
   -0.0122   -1.2309   -0.0000 C   0  0  0  0  0  0  0  0  0  0  0  0
   -1.3650   -1.9865   -0.0000 C   0  0  0  0  0  0  0  0  0  0  0  0
    1.3162   -1.9865   -0.0000 C   0  0  0  0  0  0  0  0  0  0  0  0
   -1.3772   -3.5221   -0.0000 C   0  0  0  0  0  0  0  0  0  0  0  0
    1.3040   -3.5221   -0.0000 C   0  0  0  0  0  0  0  0  0  0  0  0
   -2.7299   -4.2899   -0.0000 O   0  0  0  0  0  0  0  0  0  0  0  0
   -0.0487   -4.2777   -0.0000 C   0  0  0  0  0  0  0  0  0  0  0  0
    2.6324   -4.2899   -0.0000 C   0  0  0  0  0  0  0  0  0  0  0  0
   -2.7421   -5.8255   -0.0000 C   0  0  0  0  0  0  0  0  0  0  0  0
    3.6927   -3.6562   -0.0000 O   0  0  0  0  0  0  0  0  0  0  0  0
    2.6202   -5.8255   -0.0000 N   0  0  0  0  0  0  0  0  0  0  0  0
   -4.0949   -6.5933   -0.0000 C   0  0  0  0  0  0  0  0  0  0  0  0
   -1.4137   -6.5811   -0.0000 C   0  0  0  0  0  0  0  0  0  0  0  0
    3.9487   -6.5933   -0.0000 C   0  0  0  0  0  0  0  0  0  0  0  0
   -4.1071   -8.1289   -0.0000 N   0  0  0  0  0  0  0  0  0  0  0  0
   -1.4259   -8.1167   -0.0000 N   0  0  0  0  0  0  0  0  0  0  0  0
    4.0827   -8.1045   -0.0000 S   0  0  0  0  0  0  0  0  0  0  0  0
    5.3258   -5.9352   -0.0000 N   0  0  0  0  0  0  0  0  0  0  0  0
   -2.7787   -8.8845   -0.0000 C   0  0  0  0  0  0  0  0  0  0  0  0
    5.5817   -8.4092   -0.0000 C   0  0  0  0  0  0  0  0  0  0  0  0
    6.3495   -7.0686   -0.0000 C   0  0  0  0  0  0  0  0  0  0  0  0
    7.5683   -6.9223   -0.0000 C   0  0  0  0  0  0  0  0  0  0  0  0
  1  2  1  0  0  0  0
  2  3  2  0  0  0  0
  2  4  1  0  0  0  0
  3  5  1  0  0  0  0
  4  6  2  0  0  0  0
  5  7  1  0  0  0  0
  5  8  2  0  0  0  0
  6  9  1  0  0  0  0
  7 10  1  0  0  0  0
  9 11  2  0  0  0  0
  9 12  1  0  0  0  0
 10 13  2  0  0  0  0
 10 14  1  0  0  0  0
 12 15  1  0  0  0  0
 13 16  1  0  0  0  0
 14 17  2  0  0  0  0
 15 18  1  0  0  0  0
 15 19  2  0  0  0  0
 16 20  2  0  0  0  0
 18 21  1  0  0  0  0
 19 22  1  0  0  0  0
 22 23  1  0  0  0  0
  6  8  1  0  0  0  0
 17 20  1  0  0  0  0
 21 22  2  0  0  0  0
M  END
>  <MolRegNo>
1587166

>  <m>
=

>  <Value>
2200

>  <Unit>
nM

>  <Type>
IC50

>  <pValue>
5.66

>  <Ligand Efficiency>
0

>  <Binding Efficiency>
0

>  <Surface Efficiency>
0

>  <Assay Index>
804370

>  <Assay Category>


>  <Assay Organism>
Homo sapiens

>  <Target ID>
17045

>  <Target Name>
Cytochrome P450 3A4

>  <Target Organism>
Homo sapiens

>  <Target Description>
Target is a single protein chain

>  <Sequence Accession>
P08684

>  <Reference>
Bioorg Med Chem Lett 23 (21), 5779-5785 (2013)

>  <Pubmed ID>
24074843

>  <DOI>
10.1016/j.bmcl.2013.09.001

$$$$
1587165
Actelion Java MolfileCreator 1.0

 23 25  0  0  0  0  0  0  0  0999 V2000
    0.0000   -0.0000   -0.0000 S   0  0  0  0  0  0  0  0  0  0  0  0
   -0.1573    1.5242   -0.0000 C   0  0  0  0  0  0  0  0  0  0  0  0
    1.4880   -0.3024   -0.0000 C   0  0  0  0  0  0  0  0  0  0  0  0
    1.2097    2.1775   -0.0000 N   0  0  0  0  0  0  0  0  0  0  0  0
   -1.5000    2.3106   -0.0000 N   0  0  0  0  0  0  0  0  0  0  0  0
    2.2380    1.0404   -0.0000 C   0  0  0  0  0  0  0  0  0  0  0  0
   -1.5121    3.8590   -0.0000 C   0  0  0  0  0  0  0  0  0  0  0  0
    3.4477    1.1855   -0.0000 C   0  0  0  0  0  0  0  0  0  0  0  0
   -0.4597    4.4881   -0.0000 O   0  0  0  0  0  0  0  0  0  0  0  0
   -2.8549    4.6453   -0.0000 C   0  0  0  0  0  0  0  0  0  0  0  0
   -2.8670    6.1938   -0.0000 C   0  0  0  0  0  0  0  0  0  0  0  0
   -4.1977    3.8953   -0.0000 C   0  0  0  0  0  0  0  0  0  0  0  0
   -4.2098    6.9680   -0.0000 C   0  0  0  0  0  0  0  0  0  0  0  0
   -5.5405    4.6695   -0.0000 C   0  0  0  0  0  0  0  0  0  0  0  0
   -4.2219    8.2140   -0.0000 F   0  0  0  0  0  0  0  0  0  0  0  0
   -5.5526    6.2179   -0.0000 C   0  0  0  0  0  0  0  0  0  0  0  0
   -6.8833    3.9074   -0.0000 O   0  0  0  0  0  0  0  0  0  0  0  0
   -6.8954    2.3831   -0.0000 C   0  0  0  0  0  0  0  0  0  0  0  0
   -8.2382    1.6210   -0.0000 C   0  0  0  0  0  0  0  0  0  0  0  0
   -5.5768    1.6331   -0.0000 C   0  0  0  0  0  0  0  0  0  0  0  0
   -8.2503    0.0968   -0.0000 N   0  0  0  0  0  0  0  0  0  0  0  0
   -5.5889    0.1089   -0.0000 N   0  0  0  0  0  0  0  0  0  0  0  0
   -6.9317   -0.6532   -0.0000 C   0  0  0  0  0  0  0  0  0  0  0  0
  1  2  1  0  0  0  0
  1  3  1  0  0  0  0
  2  4  2  0  0  0  0
  2  5  1  0  0  0  0
  3  6  2  0  0  0  0
  5  7  1  0  0  0  0
  6  8  1  0  0  0  0
  7  9  2  0  0  0  0
  7 10  1  0  0  0  0
 10 11  2  0  0  0  0
 10 12  1  0  0  0  0
 11 13  1  0  0  0  0
 12 14  2  0  0  0  0
 13 15  1  0  0  0  0
 13 16  2  0  0  0  0
 14 17  1  0  0  0  0
 17 18  1  0  0  0  0
 18 19  2  0  0  0  0
 18 20  1  0  0  0  0
 19 21  1  0  0  0  0
 20 22  2  0  0  0  0
 21 23  2  0  0  0  0
  4  6  1  0  0  0  0
 14 16  1  0  0  0  0
 22 23  1  0  0  0  0
M  END
>  <MolRegNo>
1587165

>  <m>
=

>  <Value>
22300

>  <Unit>
nM

>  <Type>
IC50

>  <pValue>
4.65

>  <Ligand Efficiency>
0

>  <Binding Efficiency>
0

>  <Surface Efficiency>
0

>  <Assay Index>
804370

>  <Assay Category>


>  <Assay Organism>
Homo sapiens

>  <Target ID>
17045

>  <Target Name>
Cytochrome P450 3A4

>  <Target Organism>
Homo sapiens

>  <Target Description>
Target is a single protein chain

>  <Sequence Accession>
P08684

>  <Reference>
Bioorg Med Chem Lett 23 (21), 5779-5785 (2013)

>  <Pubmed ID>
24074843

>  <DOI>
10.1016/j.bmcl.2013.09.001

$$$$
1587720
Actelion Java MolfileCreator 1.0

 40 44  0  0  0  0  0  0  0  0999 V2000
    0.0000   -0.0000   -0.0000 Cl  0  0  0  0  0  0  0  0  0  0  0  0
   -0.0118   -1.4809   -0.0000 C   0  0  0  0  0  0  0  0  0  0  0  0
   -1.3032   -2.2155   -0.0000 C   0  0  0  0  0  0  0  0  0  0  0  0
    1.2677   -2.2155   -0.0000 C   0  0  0  0  0  0  0  0  0  0  0  0
   -2.6064   -1.4572   -0.0000 N   0  0  0  0  0  0  0  0  0  0  0  0
   -1.3269   -3.6964   -0.0000 C   0  0  0  0  0  0  0  0  0  0  0  0
    1.2558   -3.7082   -0.0000 C   0  0  0  0  0  0  0  0  0  0  0  0
   -3.9096   -2.1918   -0.0000 C   0  0  0  0  0  0  0  0  0  0  0  0
   -0.0474   -4.4309   -0.0000 C   0  0  0  0  0  0  0  0  0  0  0  0
   -3.9215   -3.6727   -0.0000 O   0  0  0  0  0  0  0  0  0  0  0  0
   -5.2128   -1.4335   -0.0000 N   0  0  0  0  0  0  0  0  0  0  0  0
   -6.5279   -2.1681   -0.0000 C   0  0  0  0  0  0  0  0  0  0  0  0
   -5.2247    0.0711   -0.0000 C   0  0  0  0  0  0  0  0  0  0  0  0
   -7.8311   -1.4098   -0.0000 C   0  0  0  0  0  0  0  0  0  0  0  0
   -6.5279    0.8412   -0.0000 C   0  0  0  0  0  0  0  0  0  0  0  0
   -7.8429    0.0948   -0.0000 N   0  0  0  0  0  0  0  0  0  0  0  0
   -9.1462    0.8530   -0.0000 C   0  0  0  0  0  0  0  0  0  0  0  0
  -10.4612    0.1185   -0.0000 N   0  0  0  0  0  0  0  0  0  0  0  0
   -9.1580    2.3695   -0.0000 C   0  0  0  0  0  0  0  0  0  0  0  0
  -11.7644    0.8767   -0.0000 C   0  0  0  0  0  0  0  0  0  0  0  0
  -10.4612    3.1277   -0.0000 C   0  0  0  0  0  0  0  0  0  0  0  0
  -11.7763    2.3932   -0.0000 C   0  0  0  0  0  0  0  0  0  0  0  0
  -13.0795    3.1514   -0.0000 N   0  0  0  0  0  0  0  0  0  0  0  0
  -14.3827    2.4169   -0.0000 C   0  0  0  0  0  0  0  0  0  0  0  0
  -14.3945    0.9359   -0.0000 O   0  0  0  0  0  0  0  0  0  0  0  0
  -15.6267    3.2817   -0.0000 C   0  0  0  0  0  0  0  0  0  0  0  0
  -17.0365    2.8078   -0.0000 O   0  0  0  0  0  0  0  0  0  0  0  0
  -15.6622    4.7982   -0.0000 C   0  0  0  0  0  0  0  0  0  0  0  0
  -17.9487    4.0044   -0.0000 C   0  0  0  0  0  0  0  0  0  0  0  0
  -17.1076    5.2365   -0.0000 N   0  0  0  0  0  0  0  0  0  0  0  0
  -14.4775    5.7104   -0.0000 C   0  0  0  0  0  0  0  0  0  0  0  0
  -19.4534    3.9807   -0.0000 N   0  0  0  0  0  0  0  0  0  0  0  0
  -13.1150    5.1418   -0.0000 F   0  0  0  0  0  0  0  0  0  0  0  0
  -14.6789    7.2032   -0.0000 F   0  0  0  0  0  0  0  0  0  0  0  0
  -13.1980    6.4805   -0.0000 F   0  0  0  0  0  0  0  0  0  0  0  0
  -20.2353    5.2721   -0.0000 C   0  0  0  0  0  0  0  0  0  0  0  0
  -20.1760    2.6775   -0.0000 C   0  0  0  0  0  0  0  0  0  0  0  0
  -21.7399    5.2484   -0.0000 C   0  0  0  0  0  0  0  0  0  0  0  0
  -21.6807    2.6538   -0.0000 C   0  0  0  0  0  0  0  0  0  0  0  0
  -22.4744    3.9452   -0.0000 C   0  0  0  0  0  0  0  0  0  0  0  0
  1  2  1  0  0  0  0
  2  3  2  0  0  0  0
  2  4  1  0  0  0  0
  3  5  1  0  0  0  0
  3  6  1  0  0  0  0
  4  7  2  0  0  0  0
  5  8  1  0  0  0  0
  6  9  2  0  0  0  0
  8 10  2  0  0  0  0
  8 11  1  0  0  0  0
 11 12  1  0  0  0  0
 11 13  1  0  0  0  0
 12 14  1  0  0  0  0
 13 15  1  0  0  0  0
 14 16  1  0  0  0  0
 16 17  1  0  0  0  0
 17 18  2  0  0  0  0
 17 19  1  0  0  0  0
 18 20  1  0  0  0  0
 19 21  2  0  0  0  0
 20 22  2  0  0  0  0
 22 23  1  0  0  0  0
 23 24  1  0  0  0  0
 24 25  2  0  0  0  0
 24 26  1  0  0  0  0
 26 27  1  0  0  0  0
 26 28  2  0  0  0  0
 27 29  1  0  0  0  0
 28 30  1  0  0  0  0
 28 31  1  0  0  0  0
 29 32  1  0  0  0  0
 31 33  1  0  0  0  0
 31 34  1  0  0  0  0
 31 35  1  0  0  0  0
 32 36  1  0  0  0  0
 32 37  1  0  0  0  0
 36 38  1  0  0  0  0
 37 39  1  0  0  0  0
 38 40  1  0  0  0  0
  7  9  1  0  0  0  0
 15 16  1  0  0  0  0
 21 22  1  0  0  0  0
 29 30  2  0  0  0  0
 39 40  1  0  0  0  0
M  END
>  <MolRegNo>
1587720

>  <m>
=

>  <Value>
5000

>  <Unit>
nM

>  <Type>
IC50

>  <pValue>
5.3

>  <Ligand Efficiency>
0

>  <Binding Efficiency>
0

>  <Surface Efficiency>
0

>  <Assay Index>
804133

>  <Assay Category>


>  <Assay Organism>
Homo sapiens

>  <Target ID>
17045

>  <Target Name>
Cytochrome P450 3A4

>  <Target Organism>
Homo sapiens

>  <Target Description>
Target is a single protein chain

>  <Sequence Accession>
P08684

>  <Reference>
Bioorg Med Chem Lett 23 (23), 6410-6414 (2013)

>  <Pubmed ID>
24120540

>  <DOI>
10.1016/j.bmcl.2013.09.048

$$$$
1590774
Actelion Java MolfileCreator 1.0

 22 23  0  0  0  0  0  0  0  0999 V2000
    0.0000   -0.0000   -0.0000 Br  0  0  0  0  0  0  0  0  0  0  0  0
   -1.0599    0.6192   -0.0000 C   0  0  0  0  0  0  0  0  0  0  0  0
   -2.3817   -0.1310   -0.0000 C   0  0  0  0  0  0  0  0  0  0  0  0
   -1.0718    2.1435   -0.0000 C   0  0  0  0  0  0  0  0  0  0  0  0
   -3.7035    0.6431   -0.0000 C   0  0  0  0  0  0  0  0  0  0  0  0
   -2.3936    2.9176   -0.0000 C   0  0  0  0  0  0  0  0  0  0  0  0
   -3.7155    2.1673   -0.0000 C   0  0  0  0  0  0  0  0  0  0  0  0
   -5.0254   -0.1072   -0.0000 C   0  0  0  0  0  0  0  0  0  0  0  0
   -5.0373    2.9414   -0.0000 C   0  0  0  0  0  0  0  0  0  0  0  0
   -6.3710    0.6669   -0.0000 C   0  0  0  0  0  0  0  0  0  0  0  0
   -6.3830    2.1912   -0.0000 C   0  0  0  0  0  0  0  0  0  0  0  0
   -7.7048    2.9533   -0.0000 O   0  0  0  0  0  0  0  0  0  0  0  0
   -9.0266    2.2031   -0.0000 C   0  0  0  0  0  0  0  0  0  0  0  0
  -10.3485    2.9652   -0.0000 C   0  0  0  0  0  0  0  0  0  0  0  0
  -10.3604    4.1918   -0.0000 O   0  0  0  0  0  0  0  0  0  0  0  0
  -11.6703    2.2150   -0.0000 C   0  0  0  0  0  0  0  0  0  0  0  0
  -12.9922    2.9771   -0.0000 N   0  0  0  0  0  0  0  0  0  0  0  0
  -13.1470    4.4895   -0.0000 C   0  0  0  0  0  0  0  0  0  0  0  0
  -14.3736    2.3579   -0.0000 C   0  0  0  0  0  0  0  0  0  0  0  0
  -14.6355    4.8110   -0.0000 N   0  0  0  0  0  0  0  0  0  0  0  0
  -15.3977    3.5011   -0.0000 C   0  0  0  0  0  0  0  0  0  0  0  0
    2.6675    2.3817   -0.0000 Cl  0  0  0  0  0  0  0  0  0  0  0  0
  1  2  1  0  0  0  0
  2  3  2  0  0  0  0
  2  4  1  0  0  0  0
  3  5  1  0  0  0  0
  4  6  2  0  0  0  0
  5  7  1  0  0  0  0
  5  8  2  0  0  0  0
  7  9  2  0  0  0  0
  8 10  1  0  0  0  0
  9 11  1  0  0  0  0
 11 12  1  0  0  0  0
 12 13  1  0  0  0  0
 13 14  1  0  0  0  0
 14 15  1  0  0  0  0
 14 16  1  0  0  0  0
 16 17  1  0  0  0  0
 17 18  1  0  0  0  0
 17 19  1  0  0  0  0
 18 20  2  0  0  0  0
 19 21  2  0  0  0  0
  6  7  1  0  0  0  0
 10 11  2  0  0  0  0
 20 21  1  0  0  0  0
M  END
>  <MolRegNo>
1590774

>  <m>
=

>  <Value>
700

>  <Unit>
nM

>  <Type>
IC50

>  <pValue>
6.16

>  <Ligand Efficiency>
0

>  <Binding Efficiency>
0

>  <Surface Efficiency>
0

>  <Assay Index>
807358

>  <Assay Category>


>  <Assay Organism>


>  <Target ID>
17045

>  <Target Name>
Cytochrome P450 3A4

>  <Target Organism>
Homo sapiens

>  <Target Description>
Target is a single protein chain

>  <Sequence Accession>
P08684

>  <Reference>


>  <Pubmed ID>


>  <DOI>
10.6019/CHEMBL2448688

$$$$
1590777
Actelion Java MolfileCreator 1.0

 33 34  0  0  0  0  0  0  0  0999 V2000
    0.0000   -0.0000   -0.0000 Cl  0  0  0  0  0  0  0  0  0  0  0  0
   -0.0123   -1.2460   -0.0000 C   0  0  0  0  0  0  0  0  0  0  0  0
   -1.3817   -2.0109   -0.0000 C   0  0  0  0  0  0  0  0  0  0  0  0
    1.3324   -2.0109   -0.0000 C   0  0  0  0  0  0  0  0  0  0  0  0
   -2.7512   -1.2214   -0.0000 N   0  0  0  0  0  0  0  0  0  0  0  0
   -1.3941   -3.5654   -0.0000 C   0  0  0  0  0  0  0  0  0  0  0  0
    1.3201   -3.5654   -0.0000 C   0  0  0  0  0  0  0  0  0  0  0  0
   -4.1206   -1.9986   -0.0000 C   0  0  0  0  0  0  0  0  0  0  0  0
   -0.0493   -4.3303   -0.0000 C   0  0  0  0  0  0  0  0  0  0  0  0
    2.6648   -4.3303   -0.0000 S   0  0  0  0  0  0  0  0  0  0  0  0
   -4.1329   -3.2446   -0.0000 O   0  0  0  0  0  0  0  0  0  0  0  0
   -5.4900   -1.2090   -0.0000 C   0  0  0  0  0  0  0  0  0  0  0  0
    2.6525   -5.5763   -0.0000 O   0  0  0  0  0  0  0  0  0  0  0  0
    3.7381   -4.9472   -0.0000 O   0  0  0  0  0  0  0  0  0  0  0  0
    4.0095   -3.5407   -0.0000 N   0  0  0  0  0  0  0  0  0  0  0  0
   -6.8594   -1.9863   -0.0000 N   0  0  0  0  0  0  0  0  0  0  0  0
    5.3543   -4.3056   -0.0000 C   0  0  0  0  0  0  0  0  0  0  0  0
    3.9972   -1.9616   -0.0000 C   0  0  0  0  0  0  0  0  0  0  0  0
   -8.2288   -1.1967   -0.0000 C   0  0  0  0  0  0  0  0  0  0  0  0
   -6.8717   -3.2323   -0.0000 C   0  0  0  0  0  0  0  0  0  0  0  0
    6.6990   -3.5161   -0.0000 C   0  0  0  0  0  0  0  0  0  0  0  0
    5.3419   -5.8601   -0.0000 C   0  0  0  0  0  0  0  0  0  0  0  0
    5.0705   -1.3201   -0.0000 C   0  0  0  0  0  0  0  0  0  0  0  0
   -9.5982   -1.9616   -0.0000 C   0  0  0  0  0  0  0  0  0  0  0  0
   -8.2411    0.3824   -0.0000 C   0  0  0  0  0  0  0  0  0  0  0  0
    8.0438   -4.2933   -0.0000 C   0  0  0  0  0  0  0  0  0  0  0  0
    6.6867   -6.6373   -0.0000 C   0  0  0  0  0  0  0  0  0  0  0  0
  -10.9676   -1.1720   -0.0000 C   0  0  0  0  0  0  0  0  0  0  0  0
   -9.6106    1.1720   -0.0000 C   0  0  0  0  0  0  0  0  0  0  0  0
    8.0314   -5.8478   -0.0000 C   0  0  0  0  0  0  0  0  0  0  0  0
  -10.9800    0.4071   -0.0000 N   0  0  0  0  0  0  0  0  0  0  0  0
  -12.0780    1.0486   -0.0000 C   0  0  0  0  0  0  0  0  0  0  0  0
   10.6592   -2.7635   -0.0000 Cl  0  0  0  0  0  0  0  0  0  0  0  0
  1  2  1  0  0  0  0
  2  3  2  0  0  0  0
  2  4  1  0  0  0  0
  3  5  1  0  0  0  0
  3  6  1  0  0  0  0
  4  7  2  0  0  0  0
  5  8  1  0  0  0  0
  6  9  2  0  0  0  0
  7 10  1  0  0  0  0
  8 11  2  0  0  0  0
  8 12  1  0  0  0  0
 10 13  2  0  0  0  0
 10 14  2  0  0  0  0
 10 15  1  0  0  0  0
 12 16  1  0  0  0  0
 15 17  1  0  0  0  0
 15 18  1  0  0  0  0
 16 19  1  0  0  0  0
 16 20  1  0  0  0  0
 17 21  2  0  0  0  0
 17 22  1  0  0  0  0
 18 23  1  0  0  0  0
 19 24  1  0  0  0  0
 19 25  1  0  0  0  0
 21 26  1  0  0  0  0
 22 27  2  0  0  0  0
 24 28  1  0  0  0  0
 25 29  1  0  0  0  0
 26 30  2  0  0  0  0
 28 31  1  0  0  0  0
 31 32  1  0  0  0  0
  7  9  1  0  0  0  0
 27 30  1  0  0  0  0
 29 31  1  0  0  0  0
M  END
>  <MolRegNo>
1590777

>  <m>
=

>  <Value>
19000

>  <Unit>
nM

>  <Type>
IC50

>  <pValue>
4.72

>  <Ligand Efficiency>
0

>  <Binding Efficiency>
0

>  <Surface Efficiency>
0

>  <Assay Index>
807357

>  <Assay Category>


>  <Assay Organism>
Homo sapiens

>  <Target ID>
17045

>  <Target Name>
Cytochrome P450 3A4

>  <Target Organism>
Homo sapiens

>  <Target Description>
Target is a single protein chain

>  <Sequence Accession>
P08684

>  <Reference>


>  <Pubmed ID>


>  <DOI>
10.6019/CHEMBL2448688

$$$$
1590778
Actelion Java MolfileCreator 1.0

 32 35  0  0  0  0  0  0  0  0999 V2000
    0.0000   -0.0000   -0.0000 Cl  0  0  0  0  0  0  0  0  0  0  0  0
    0.0000    1.5050   -0.0000 C   0  0  0  0  0  0  0  0  0  0  0  0
   -1.3036    2.2872   -0.0000 C   0  0  0  0  0  0  0  0  0  0  0  0
    1.2917    2.2635   -0.0000 C   0  0  0  0  0  0  0  0  0  0  0  0
   -2.6190    1.5525   -0.0000 N   0  0  0  0  0  0  0  0  0  0  0  0
   -1.3036    3.7922   -0.0000 C   0  0  0  0  0  0  0  0  0  0  0  0
    1.2917    3.7804   -0.0000 C   0  0  0  0  0  0  0  0  0  0  0  0
   -3.9226    2.3228   -0.0000 C   0  0  0  0  0  0  0  0  0  0  0  0
   -0.0119    4.5388   -0.0000 C   0  0  0  0  0  0  0  0  0  0  0  0
   -3.9226    3.8278   -0.0000 O   0  0  0  0  0  0  0  0  0  0  0  0
   -5.2380    1.5999   -0.0000 C   0  0  0  0  0  0  0  0  0  0  0  0
   -0.0119    6.0439   -0.0000 S   0  0  0  0  0  0  0  0  0  0  0  0
   -6.5416    2.3702   -0.0000 C   0  0  0  0  0  0  0  0  0  0  0  0
   -5.2617    0.1185   -0.0000 C   0  0  0  0  0  0  0  0  0  0  0  0
    1.4695    6.0320   -0.0000 O   0  0  0  0  0  0  0  0  0  0  0  0
   -1.5169    6.0320   -0.0000 O   0  0  0  0  0  0  0  0  0  0  0  0
   -0.0237    7.5489   -0.0000 N   0  0  0  0  0  0  0  0  0  0  0  0
   -7.8452    1.6354   -0.0000 C   0  0  0  0  0  0  0  0  0  0  0  0
   -6.5772   -0.6162   -0.0000 C   0  0  0  0  0  0  0  0  0  0  0  0
    1.2562    8.3074   -0.0000 C   0  0  0  0  0  0  0  0  0  0  0  0
   -1.3273    8.3074   -0.0000 C   0  0  0  0  0  0  0  0  0  0  0  0
   -7.8808    0.1541   -0.0000 C   0  0  0  0  0  0  0  0  0  0  0  0
   -9.1369    2.4057   -0.0000 C   0  0  0  0  0  0  0  0  0  0  0  0
    1.2443    9.8124   -0.0000 C   0  0  0  0  0  0  0  0  0  0  0  0
    2.5361    7.5845   -0.0000 C   0  0  0  0  0  0  0  0  0  0  0  0
   -1.3510    9.8124   -0.0000 C   0  0  0  0  0  0  0  0  0  0  0  0
   -9.1962   -0.5688   -0.0000 C   0  0  0  0  0  0  0  0  0  0  0  0
  -10.4524    1.6947   -0.0000 C   0  0  0  0  0  0  0  0  0  0  0  0
    2.5242   10.5827   -0.0000 C   0  0  0  0  0  0  0  0  0  0  0  0
    3.8159    8.3311   -0.0000 C   0  0  0  0  0  0  0  0  0  0  0  0
  -10.4879    0.2015   -0.0000 N   0  0  0  0  0  0  0  0  0  0  0  0
    3.8041    9.8361   -0.0000 C   0  0  0  0  0  0  0  0  0  0  0  0
  1  2  1  0  0  0  0
  2  3  2  0  0  0  0
  2  4  1  0  0  0  0
  3  5  1  0  0  0  0
  3  6  1  0  0  0  0
  4  7  2  0  0  0  0
  5  8  1  0  0  0  0
  6  9  2  0  0  0  0
  8 10  2  0  0  0  0
  8 11  1  0  0  0  0
  9 12  1  0  0  0  0
 11 13  2  0  0  0  0
 11 14  1  0  0  0  0
 12 15  2  0  0  0  0
 12 16  2  0  0  0  0
 12 17  1  0  0  0  0
 13 18  1  0  0  0  0
 14 19  2  0  0  0  0
 17 20  1  0  0  0  0
 17 21  1  0  0  0  0
 18 22  2  0  0  0  0
 18 23  1  0  0  0  0
 20 24  2  0  0  0  0
 20 25  1  0  0  0  0
 21 26  1  0  0  0  0
 22 27  1  0  0  0  0
 23 28  1  0  0  0  0
 24 29  1  0  0  0  0
 25 30  2  0  0  0  0
 27 31  1  0  0  0  0
 29 32  2  0  0  0  0
  7  9  1  0  0  0  0
 19 22  1  0  0  0  0
 28 31  1  0  0  0  0
 30 32  1  0  0  0  0
M  END
>  <MolRegNo>
1590778

>  <m>
=

>  <Value>
5830

>  <Unit>
nM

>  <Type>
IC50

>  <pValue>
5.23

>  <Ligand Efficiency>
0

>  <Binding Efficiency>
0

>  <Surface Efficiency>
0

>  <Assay Index>
807357

>  <Assay Category>


>  <Assay Organism>
Homo sapiens

>  <Target ID>
17045

>  <Target Name>
Cytochrome P450 3A4

>  <Target Organism>
Homo sapiens

>  <Target Description>
Target is a single protein chain

>  <Sequence Accession>
P08684

>  <Reference>


>  <Pubmed ID>


>  <DOI>
10.6019/CHEMBL2448688

$$$$
1590780
Actelion Java MolfileCreator 1.0

 34 37  0  0  0  0  0  0  0  0999 V2000
    0.0000   -0.0000   -0.0000 S   0  0  0  0  0  0  0  0  0  0  0  0
   -0.9287    1.2144   -0.0000 O   0  0  0  0  0  0  0  0  0  0  0  0
    0.8810   -1.2144   -0.0000 O   0  0  0  0  0  0  0  0  0  0  0  0
    1.2858    0.7739   -0.0000 N   0  0  0  0  0  0  0  0  0  0  0  0
   -1.3097   -0.7382   -0.0000 C   0  0  0  0  0  0  0  0  0  0  0  0
    1.2620    2.2859   -0.0000 C   0  0  0  0  0  0  0  0  0  0  0  0
    2.5836    0.0476   -0.0000 C   0  0  0  0  0  0  0  0  0  0  0  0
   -1.3335   -2.2383   -0.0000 C   0  0  0  0  0  0  0  0  0  0  0  0
   -2.6312    0.0238   -0.0000 C   0  0  0  0  0  0  0  0  0  0  0  0
    2.5360    3.0598   -0.0000 C   0  0  0  0  0  0  0  0  0  0  0  0
    3.8694    0.8215   -0.0000 C   0  0  0  0  0  0  0  0  0  0  0  0
   -2.6431   -2.9765   -0.0000 C   0  0  0  0  0  0  0  0  0  0  0  0
   -3.9290   -0.7144   -0.0000 C   0  0  0  0  0  0  0  0  0  0  0  0
   -2.6669   -4.4647   -0.0000 N   0  0  0  0  0  0  0  0  0  0  0  0
   -3.9409   -2.2145   -0.0000 C   0  0  0  0  0  0  0  0  0  0  0  0
   -1.3811   -5.2148   -0.0000 C   0  0  0  0  0  0  0  0  0  0  0  0
   -5.2624   -2.9527   -0.0000 N   0  0  0  0  0  0  0  0  0  0  0  0
   -0.0833   -4.4528   -0.0000 O   0  0  0  0  0  0  0  0  0  0  0  0
   -1.3930   -6.7031   -0.0000 C   0  0  0  0  0  0  0  0  0  0  0  0
   -6.6435   -2.3217   -0.0000 C   0  0  0  0  0  0  0  0  0  0  0  0
   -5.4291   -4.4409   -0.0000 C   0  0  0  0  0  0  0  0  0  0  0  0
   -2.7146   -7.4293   -0.0000 C   0  0  0  0  0  0  0  0  0  0  0  0
   -0.1191   -7.4412   -0.0000 C   0  0  0  0  0  0  0  0  0  0  0  0
   -7.6555   -3.4289   -0.0000 N   0  0  0  0  0  0  0  0  0  0  0  0
   -6.9174   -4.7386   -0.0000 C   0  0  0  0  0  0  0  0  0  0  0  0
   -2.7384   -8.9176   -0.0000 N   0  0  0  0  0  0  0  0  0  0  0  0
   -0.1310   -8.9295   -0.0000 N   0  0  0  0  0  0  0  0  0  0  0  0
   -1.4525   -9.6676   -0.0000 C   0  0  0  0  0  0  0  0  0  0  0  0
   -1.4644  -11.1559   -0.0000 C   0  0  0  0  0  0  0  0  0  0  0  0
   -0.1786  -11.8941   -0.0000 C   0  0  0  0  0  0  0  0  0  0  0  0
   -2.7860  -11.8941   -0.0000 C   0  0  0  0  0  0  0  0  0  0  0  0
   -0.1905  -13.3823   -0.0000 C   0  0  0  0  0  0  0  0  0  0  0  0
   -2.8098  -13.3823   -0.0000 C   0  0  0  0  0  0  0  0  0  0  0  0
   -1.5121  -14.1205   -0.0000 C   0  0  0  0  0  0  0  0  0  0  0  0
  1  2  2  0  0  0  0
  1  3  2  0  0  0  0
  1  4  1  0  0  0  0
  1  5  1  0  0  0  0
  4  6  1  0  0  0  0
  4  7  1  0  0  0  0
  5  8  2  0  0  0  0
  5  9  1  0  0  0  0
  6 10  1  0  0  0  0
  7 11  1  0  0  0  0
  8 12  1  0  0  0  0
  9 13  2  0  0  0  0
 12 14  1  0  0  0  0
 12 15  2  0  0  0  0
 14 16  1  0  0  0  0
 15 17  1  0  0  0  0
 16 18  2  0  0  0  0
 16 19  1  0  0  0  0
 17 20  1  0  0  0  0
 17 21  1  0  0  0  0
 19 22  2  0  0  0  0
 19 23  1  0  0  0  0
 20 24  2  0  0  0  0
 21 25  2  0  0  0  0
 22 26  1  0  0  0  0
 23 27  2  0  0  0  0
 26 28  2  0  0  0  0
 28 29  1  0  0  0  0
 29 30  2  0  0  0  0
 29 31  1  0  0  0  0
 30 32  1  0  0  0  0
 31 33  2  0  0  0  0
 32 34  2  0  0  0  0
 13 15  1  0  0  0  0
 24 25  1  0  0  0  0
 27 28  1  0  0  0  0
 33 34  1  0  0  0  0
M  END
>  <MolRegNo>
1590780

>  <m>
=

>  <Value>
20000

>  <Unit>
nM

>  <Type>
IC50

>  <pValue>
4.7

>  <Ligand Efficiency>
0

>  <Binding Efficiency>
0

>  <Surface Efficiency>
0

>  <Assay Index>
807357

>  <Assay Category>


>  <Assay Organism>
Homo sapiens

>  <Target ID>
17045

>  <Target Name>
Cytochrome P450 3A4

>  <Target Organism>
Homo sapiens

>  <Target Description>
Target is a single protein chain

>  <Sequence Accession>
P08684

>  <Reference>


>  <Pubmed ID>


>  <DOI>
10.6019/CHEMBL2448688

$$$$
1590782
Actelion Java MolfileCreator 1.0

 34 35  0  0  0  0  0  0  0  0999 V2000
    0.0000   -0.0000   -0.0000 Cl  0  0  0  0  0  0  0  0  0  0  0  0
    1.0809   -0.6212   -0.0000 C   0  0  0  0  0  0  0  0  0  0  0  0
    2.4351    0.1739   -0.0000 C   0  0  0  0  0  0  0  0  0  0  0  0
    1.0685   -2.1866   -0.0000 C   0  0  0  0  0  0  0  0  0  0  0  0
    2.4227    1.7642   -0.0000 N   0  0  0  0  0  0  0  0  0  0  0  0
    3.7893   -0.5963   -0.0000 C   0  0  0  0  0  0  0  0  0  0  0  0
    2.4227   -2.9569   -0.0000 C   0  0  0  0  0  0  0  0  0  0  0  0
    3.7769    2.5593   -0.0000 C   0  0  0  0  0  0  0  0  0  0  0  0
    3.7769   -2.1618   -0.0000 C   0  0  0  0  0  0  0  0  0  0  0  0
    4.8577    1.9381   -0.0000 O   0  0  0  0  0  0  0  0  0  0  0  0
    3.7644    4.1496   -0.0000 C   0  0  0  0  0  0  0  0  0  0  0  0
    5.1311   -2.9320   -0.0000 S   0  0  0  0  0  0  0  0  0  0  0  0
    5.1186    4.9447   -0.0000 N   0  0  0  0  0  0  0  0  0  0  0  0
    5.1186   -4.1868   -0.0000 O   0  0  0  0  0  0  0  0  0  0  0  0
    6.2119   -3.5532   -0.0000 O   0  0  0  0  0  0  0  0  0  0  0  0
    6.4853   -2.1369   -0.0000 N   0  0  0  0  0  0  0  0  0  0  0  0
    5.1062    6.5350   -0.0000 C   0  0  0  0  0  0  0  0  0  0  0  0
    7.8395   -2.9072   -0.0000 C   0  0  0  0  0  0  0  0  0  0  0  0
    6.4728   -0.5466   -0.0000 C   0  0  0  0  0  0  0  0  0  0  0  0
    6.4604    7.3301   -0.0000 C   0  0  0  0  0  0  0  0  0  0  0  0
    3.7272    7.3301   -0.0000 C   0  0  0  0  0  0  0  0  0  0  0  0
    7.8270   -4.4726   -0.0000 C   0  0  0  0  0  0  0  0  0  0  0  0
    9.1937   -2.1121   -0.0000 C   0  0  0  0  0  0  0  0  0  0  0  0
    7.5537    0.0994   -0.0000 C   0  0  0  0  0  0  0  0  0  0  0  0
    6.4480    8.9203   -0.0000 N   0  0  0  0  0  0  0  0  0  0  0  0
    3.7147    8.9203   -0.0000 C   0  0  0  0  0  0  0  0  0  0  0  0
    9.1812   -5.2553   -0.0000 C   0  0  0  0  0  0  0  0  0  0  0  0
   10.5479   -2.8948   -0.0000 C   0  0  0  0  0  0  0  0  0  0  0  0
    5.0689    9.7155   -0.0000 C   0  0  0  0  0  0  0  0  0  0  0  0
    7.5289    9.5664   -0.0000 C   0  0  0  0  0  0  0  0  0  0  0  0
   10.5354   -4.4602   -0.0000 C   0  0  0  0  0  0  0  0  0  0  0  0
   -5.4665    1.9878   -0.0000 O   0  0  0  0  0  0  0  0  0  0  0  0
   -4.3856    2.6339   -0.0000 C   0  0  0  0  0  0  0  0  0  0  0  0
   -3.3047    2.0127   -0.0000 O   0  0  0  0  0  0  0  0  0  0  0  0
  1  2  1  0  0  0  0
  2  3  2  0  0  0  0
  2  4  1  0  0  0  0
  3  5  1  0  0  0  0
  3  6  1  0  0  0  0
  4  7  2  0  0  0  0
  5  8  1  0  0  0  0
  6  9  2  0  0  0  0
  8 10  2  0  0  0  0
  8 11  1  0  0  0  0
  9 12  1  0  0  0  0
 11 13  1  0  0  0  0
 12 14  2  0  0  0  0
 12 15  2  0  0  0  0
 12 16  1  0  0  0  0
 13 17  1  0  0  0  0
 16 18  1  0  0  0  0
 16 19  1  0  0  0  0
 17 20  1  0  0  0  0
 17 21  1  0  0  0  0
 18 22  2  0  0  0  0
 18 23  1  0  0  0  0
 19 24  1  0  0  0  0
 20 25  1  0  0  0  0
 21 26  1  0  0  0  0
 22 27  1  0  0  0  0
 23 28  2  0  0  0  0
 25 29  1  0  0  0  0
 25 30  1  0  0  0  0
 27 31  2  0  0  0  0
 32 33  2  0  0  0  0
 33 34  1  0  0  0  0
  7  9  1  0  0  0  0
 26 29  1  0  0  0  0
 28 31  1  0  0  0  0
M  END
>  <MolRegNo>
1590782

>  <m>
=

>  <Value>
16300

>  <Unit>
nM

>  <Type>
IC50

>  <pValue>
4.79

>  <Ligand Efficiency>
0

>  <Binding Efficiency>
0

>  <Surface Efficiency>
0

>  <Assay Index>
807357

>  <Assay Category>


>  <Assay Organism>
Homo sapiens

>  <Target ID>
17045

>  <Target Name>
Cytochrome P450 3A4

>  <Target Organism>
Homo sapiens

>  <Target Description>
Target is a single protein chain

>  <Sequence Accession>
P08684

>  <Reference>


>  <Pubmed ID>


>  <DOI>
10.6019/CHEMBL2448688

$$$$
1590785
Actelion Java MolfileCreator 1.0

 21 23  0  0  0  0  0  0  0  0999 V2000
    0.0000   -0.0000   -0.0000 Br  0  0  0  0  0  0  0  0  0  0  0  0
   -1.3023   -0.7459   -0.0000 C   0  0  0  0  0  0  0  0  0  0  0  0
   -2.6165    0.0118   -0.0000 C   0  0  0  0  0  0  0  0  0  0  0  0
   -1.3142   -2.2377   -0.0000 C   0  0  0  0  0  0  0  0  0  0  0  0
   -3.9189   -0.7341   -0.0000 C   0  0  0  0  0  0  0  0  0  0  0  0
   -2.6284   -2.9717   -0.0000 C   0  0  0  0  0  0  0  0  0  0  0  0
   -3.9307   -2.2140   -0.0000 C   0  0  0  0  0  0  0  0  0  0  0  0
   -5.2212    0.0237   -0.0000 C   0  0  0  0  0  0  0  0  0  0  0  0
   -5.2331   -2.9480   -0.0000 C   0  0  0  0  0  0  0  0  0  0  0  0
   -6.5236   -0.7104   -0.0000 C   0  0  0  0  0  0  0  0  0  0  0  0
   -6.5354   -2.1903   -0.0000 C   0  0  0  0  0  0  0  0  0  0  0  0
   -7.8378   -2.9362   -0.0000 C   0  0  0  0  0  0  0  0  0  0  0  0
   -7.8496   -4.4161   -0.0000 O   0  0  0  0  0  0  0  0  0  0  0  0
   -9.1519   -2.1785   -0.0000 N   0  0  0  0  0  0  0  0  0  0  0  0
  -10.4543   -2.9244   -0.0000 C   0  0  0  0  0  0  0  0  0  0  0  0
  -11.7685   -2.1666   -0.0000 C   0  0  0  0  0  0  0  0  0  0  0  0
  -13.0708   -2.9007   -0.0000 C   0  0  0  0  0  0  0  0  0  0  0  0
  -13.2366   -4.3925   -0.0000 N   0  0  0  0  0  0  0  0  0  0  0  0
  -14.4561   -2.2969   -0.0000 C   0  0  0  0  0  0  0  0  0  0  0  0
  -14.7165   -4.6884   -0.0000 C   0  0  0  0  0  0  0  0  0  0  0  0
  -15.4624   -3.3979   -0.0000 N   0  0  0  0  0  0  0  0  0  0  0  0
  1  2  1  0  0  0  0
  2  3  2  0  0  0  0
  2  4  1  0  0  0  0
  3  5  1  0  0  0  0
  4  6  2  0  0  0  0
  5  7  1  0  0  0  0
  5  8  2  0  0  0  0
  7  9  2  0  0  0  0
  8 10  1  0  0  0  0
  9 11  1  0  0  0  0
 11 12  1  0  0  0  0
 12 13  2  0  0  0  0
 12 14  1  0  0  0  0
 14 15  1  0  0  0  0
 15 16  1  0  0  0  0
 16 17  1  0  0  0  0
 17 18  1  0  0  0  0
 17 19  2  0  0  0  0
 18 20  1  0  0  0  0
 19 21  1  0  0  0  0
  6  7  1  0  0  0  0
 10 11  2  0  0  0  0
 20 21  2  0  0  0  0
M  END
>  <MolRegNo>
1590785

>  <m>
=

>  <Value>
3280

>  <Unit>
nM

>  <Type>
IC50

>  <pValue>
5.48

>  <Ligand Efficiency>
0

>  <Binding Efficiency>
0

>  <Surface Efficiency>
0

>  <Assay Index>
807357

>  <Assay Category>


>  <Assay Organism>
Homo sapiens

>  <Target ID>
17045

>  <Target Name>
Cytochrome P450 3A4

>  <Target Organism>
Homo sapiens

>  <Target Description>
Target is a single protein chain

>  <Sequence Accession>
P08684

>  <Reference>


>  <Pubmed ID>


>  <DOI>
10.6019/CHEMBL2448688

$$$$
1590786
Actelion Java MolfileCreator 1.0

 31 34  0  0  0  0  0  0  0  0999 V2000
    0.0000   -0.0000   -0.0000 O   0  0  0  0  0  0  0  0  0  0  0  0
    1.2954   -0.7368   -0.0000 C   0  0  0  0  0  0  0  0  0  0  0  0
    1.2954   -2.2224   -0.0000 N   0  0  0  0  0  0  0  0  0  0  0  0
    2.5789    0.0357   -0.0000 C   0  0  0  0  0  0  0  0  0  0  0  0
   -0.0119   -2.9711   -0.0000 C   0  0  0  0  0  0  0  0  0  0  0  0
    3.8624   -0.7131   -0.0000 C   0  0  0  0  0  0  0  0  0  0  0  0
    2.5551    1.5331   -0.0000 C   0  0  0  0  0  0  0  0  0  0  0  0
   -0.0238   -4.4685   -0.0000 C   0  0  0  0  0  0  0  0  0  0  0  0
   -1.3310   -2.2105   -0.0000 C   0  0  0  0  0  0  0  0  0  0  0  0
    5.1459    0.0594   -0.0000 N   0  0  0  0  0  0  0  0  0  0  0  0
    3.8267    2.3055   -0.0000 N   0  0  0  0  0  0  0  0  0  0  0  0
    1.2716   -5.2053   -0.0000 N   0  0  0  0  0  0  0  0  0  0  0  0
   -1.3429   -5.2053   -0.0000 C   0  0  0  0  0  0  0  0  0  0  0  0
   -2.6383   -2.9473   -0.0000 C   0  0  0  0  0  0  0  0  0  0  0  0
    5.1221    1.5687   -0.0000 C   0  0  0  0  0  0  0  0  0  0  0  0
    1.4142   -6.6790   -0.0000 C   0  0  0  0  0  0  0  0  0  0  0  0
    2.6383   -4.5754   -0.0000 C   0  0  0  0  0  0  0  0  0  0  0  0
   -2.6502   -4.4447   -0.0000 C   0  0  0  0  0  0  0  0  0  0  0  0
   -3.9456   -2.1867   -0.0000 C   0  0  0  0  0  0  0  0  0  0  0  0
    6.4056    2.3412   -0.0000 C   0  0  0  0  0  0  0  0  0  0  0  0
    2.8760   -6.9761   -0.0000 N   0  0  0  0  0  0  0  0  0  0  0  0
    3.6366   -5.6807   -0.0000 C   0  0  0  0  0  0  0  0  0  0  0  0
   -5.2647   -2.9116   -0.0000 N   0  0  0  0  0  0  0  0  0  0  0  0
   -3.9456   -0.6774   -0.0000 C   0  0  0  0  0  0  0  0  0  0  0  0
    6.3819    3.8505   -0.0000 C   0  0  0  0  0  0  0  0  0  0  0  0
    7.6891    1.6044   -0.0000 C   0  0  0  0  0  0  0  0  0  0  0  0
   -6.3462   -1.8302   -0.0000 O   0  0  0  0  0  0  0  0  0  0  0  0
    7.6654    4.6230   -0.0000 C   0  0  0  0  0  0  0  0  0  0  0  0
    8.9726    2.3769   -0.0000 C   0  0  0  0  0  0  0  0  0  0  0  0
   -7.8080   -2.2105   -0.0000 C   0  0  0  0  0  0  0  0  0  0  0  0
    8.9607    3.8862   -0.0000 C   0  0  0  0  0  0  0  0  0  0  0  0
  1  2  2  0  0  0  0
  2  3  1  0  0  0  0
  2  4  1  0  0  0  0
  3  5  1  0  0  0  0
  4  6  2  0  0  0  0
  4  7  1  0  0  0  0
  5  8  2  0  0  0  0
  5  9  1  0  0  0  0
  6 10  1  0  0  0  0
  7 11  2  0  0  0  0
  8 12  1  0  0  0  0
  8 13  1  0  0  0  0
  9 14  2  0  0  0  0
 10 15  2  0  0  0  0
 12 16  1  0  0  0  0
 12 17  1  0  0  0  0
 13 18  2  0  0  0  0
 14 19  1  0  0  0  0
 15 20  1  0  0  0  0
 16 21  2  0  0  0  0
 17 22  2  0  0  0  0
 19 23  2  0  0  0  0
 19 24  1  0  0  0  0
 20 25  2  0  0  0  0
 20 26  1  0  0  0  0
 23 27  1  0  0  0  0
 25 28  1  0  0  0  0
 26 29  2  0  0  0  0
 27 30  1  0  0  0  0
 28 31  2  0  0  0  0
 11 15  1  0  0  0  0
 14 18  1  0  0  0  0
 21 22  1  0  0  0  0
 29 31  1  0  0  0  0
M  END
>  <MolRegNo>
1590786

>  <m>
=

>  <Value>
18000

>  <Unit>
nM

>  <Type>
IC50

>  <pValue>
4.75

>  <Ligand Efficiency>
0

>  <Binding Efficiency>
0

>  <Surface Efficiency>
0

>  <Assay Index>
807357

>  <Assay Category>


>  <Assay Organism>
Homo sapiens

>  <Target ID>
17045

>  <Target Name>
Cytochrome P450 3A4

>  <Target Organism>
Homo sapiens

>  <Target Description>
Target is a single protein chain

>  <Sequence Accession>
P08684

>  <Reference>


>  <Pubmed ID>


>  <DOI>
10.6019/CHEMBL2448688

$$$$
1590787
Actelion Java MolfileCreator 1.0

 22 24  0  0  0  0  0  0  0  0999 V2000
    0.0000   -0.0000   -0.0000 O   0  0  0  0  0  0  0  0  0  0  0  0
   -0.0118    1.5030   -0.0000 C   0  0  0  0  0  0  0  0  0  0  0  0
    1.2663    2.2722   -0.0000 N   0  0  0  0  0  0  0  0  0  0  0  0
   -1.3254    2.2604   -0.0000 C   0  0  0  0  0  0  0  0  0  0  0  0
    2.5562    1.5385   -0.0000 C   0  0  0  0  0  0  0  0  0  0  0  0
   -2.6272    1.5266   -0.0000 N   0  0  0  0  0  0  0  0  0  0  0  0
   -1.3491    3.7752   -0.0000 C   0  0  0  0  0  0  0  0  0  0  0  0
    3.8343    2.3077   -0.0000 C   0  0  0  0  0  0  0  0  0  0  0  0
   -3.9408    2.2840   -0.0000 C   0  0  0  0  0  0  0  0  0  0  0  0
   -2.6509    4.5326   -0.0000 N   0  0  0  0  0  0  0  0  0  0  0  0
    5.1243    1.5740   -0.0000 C   0  0  0  0  0  0  0  0  0  0  0  0
   -3.9408    3.7870   -0.0000 C   0  0  0  0  0  0  0  0  0  0  0  0
    5.2663    0.1065   -0.0000 N   0  0  0  0  0  0  0  0  0  0  0  0
    6.4852    2.2012   -0.0000 C   0  0  0  0  0  0  0  0  0  0  0  0
   -5.2545    4.5444   -0.0000 C   0  0  0  0  0  0  0  0  0  0  0  0
    6.7219   -0.1893   -0.0000 C   0  0  0  0  0  0  0  0  0  0  0  0
    7.4793    1.1006   -0.0000 N   0  0  0  0  0  0  0  0  0  0  0  0
   -6.5681    3.8107   -0.0000 C   0  0  0  0  0  0  0  0  0  0  0  0
   -5.2663    6.0592   -0.0000 C   0  0  0  0  0  0  0  0  0  0  0  0
   -7.8699    4.5681   -0.0000 C   0  0  0  0  0  0  0  0  0  0  0  0
   -6.5799    6.8166   -0.0000 C   0  0  0  0  0  0  0  0  0  0  0  0
   -7.8817    6.0829   -0.0000 C   0  0  0  0  0  0  0  0  0  0  0  0
  1  2  2  0  0  0  0
  2  3  1  0  0  0  0
  2  4  1  0  0  0  0
  3  5  1  0  0  0  0
  4  6  2  0  0  0  0
  4  7  1  0  0  0  0
  5  8  1  0  0  0  0
  6  9  1  0  0  0  0
  7 10  2  0  0  0  0
  8 11  1  0  0  0  0
  9 12  2  0  0  0  0
 11 13  1  0  0  0  0
 11 14  2  0  0  0  0
 12 15  1  0  0  0  0
 13 16  1  0  0  0  0
 14 17  1  0  0  0  0
 15 18  2  0  0  0  0
 15 19  1  0  0  0  0
 18 20  1  0  0  0  0
 19 21  2  0  0  0  0
 20 22  2  0  0  0  0
 10 12  1  0  0  0  0
 16 17  2  0  0  0  0
 21 22  1  0  0  0  0
M  END
>  <MolRegNo>
1590787

>  <m>
=

>  <Value>
16000

>  <Unit>
nM

>  <Type>
IC50

>  <pValue>
4.8

>  <Ligand Efficiency>
0

>  <Binding Efficiency>
0

>  <Surface Efficiency>
0

>  <Assay Index>
807357

>  <Assay Category>


>  <Assay Organism>
Homo sapiens

>  <Target ID>
17045

>  <Target Name>
Cytochrome P450 3A4

>  <Target Organism>
Homo sapiens

>  <Target Description>
Target is a single protein chain

>  <Sequence Accession>
P08684

>  <Reference>


>  <Pubmed ID>


>  <DOI>
10.6019/CHEMBL2448688

$$$$
1590790
Actelion Java MolfileCreator 1.0

 25 28  0  0  0  0  0  0  0  0999 V2000
    0.0000   -0.0000   -0.0000 S   0  0  0  0  0  0  0  0  0  0  0  0
   -1.3790   -0.6063   -0.0000 C   0  0  0  0  0  0  0  0  0  0  0  0
    0.9867   -1.1056   -0.0000 C   0  0  0  0  0  0  0  0  0  0  0  0
   -1.2364   -2.0804   -0.0000 N   0  0  0  0  0  0  0  0  0  0  0  0
   -2.6867    0.1545   -0.0000 C   0  0  0  0  0  0  0  0  0  0  0  0
    0.2259   -2.3895   -0.0000 C   0  0  0  0  0  0  0  0  0  0  0  0
    2.4608   -1.0937   -0.0000 C   0  0  0  0  0  0  0  0  0  0  0  0
   -3.9944   -0.5825   -0.0000 C   0  0  0  0  0  0  0  0  0  0  0  0
   -2.6986    1.6643   -0.0000 C   0  0  0  0  0  0  0  0  0  0  0  0
    0.9629   -3.6734   -0.0000 C   0  0  0  0  0  0  0  0  0  0  0  0
    3.1979   -2.3657   -0.0000 C   0  0  0  0  0  0  0  0  0  0  0  0
   -5.3021    0.1783   -0.0000 C   0  0  0  0  0  0  0  0  0  0  0  0
   -4.0182    2.4252   -0.0000 C   0  0  0  0  0  0  0  0  0  0  0  0
    2.4490   -3.6615   -0.0000 C   0  0  0  0  0  0  0  0  0  0  0  0
   -6.6098   -0.5587   -0.0000 N   0  0  0  0  0  0  0  0  0  0  0  0
   -5.3259    1.6881   -0.0000 C   0  0  0  0  0  0  0  0  0  0  0  0
   -7.9175    0.2021   -0.0000 C   0  0  0  0  0  0  0  0  0  0  0  0
   -6.6217   -2.0448   -0.0000 C   0  0  0  0  0  0  0  0  0  0  0  0
   -7.9294    1.7119   -0.0000 C   0  0  0  0  0  0  0  0  0  0  0  0
   -5.3378   -2.7818   -0.0000 C   0  0  0  0  0  0  0  0  0  0  0  0
   -9.2371    2.4727   -0.0000 C   0  0  0  0  0  0  0  0  0  0  0  0
   -6.6336    2.4727   -0.0000 C   0  0  0  0  0  0  0  0  0  0  0  0
   -9.2490    3.9944   -0.0000 N   0  0  0  0  0  0  0  0  0  0  0  0
   -6.6455    3.9944   -0.0000 C   0  0  0  0  0  0  0  0  0  0  0  0
   -7.9651    4.7553   -0.0000 C   0  0  0  0  0  0  0  0  0  0  0  0
  1  2  1  0  0  0  0
  1  3  1  0  0  0  0
  2  4  2  0  0  0  0
  2  5  1  0  0  0  0
  3  6  2  0  0  0  0
  3  7  1  0  0  0  0
  5  8  2  0  0  0  0
  5  9  1  0  0  0  0
  6 10  1  0  0  0  0
  7 11  2  0  0  0  0
  8 12  1  0  0  0  0
  9 13  2  0  0  0  0
 10 14  2  0  0  0  0
 12 15  1  0  0  0  0
 12 16  2  0  0  0  0
 15 17  1  0  0  0  0
 15 18  1  0  0  0  0
 17 19  1  0  0  0  0
 18 20  1  0  0  0  0
 19 21  2  0  0  0  0
 19 22  1  0  0  0  0
 21 23  1  0  0  0  0
 22 24  2  0  0  0  0
 23 25  2  0  0  0  0
  4  6  1  0  0  0  0
 11 14  1  0  0  0  0
 13 16  1  0  0  0  0
 24 25  1  0  0  0  0
M  END
>  <MolRegNo>
1590790

>  <m>
=

>  <Value>
1000

>  <Unit>
nM

>  <Type>
IC50

>  <pValue>
6

>  <Ligand Efficiency>
0

>  <Binding Efficiency>
0

>  <Surface Efficiency>
0

>  <Assay Index>
807357

>  <Assay Category>


>  <Assay Organism>
Homo sapiens

>  <Target ID>
17045

>  <Target Name>
Cytochrome P450 3A4

>  <Target Organism>
Homo sapiens

>  <Target Description>
Target is a single protein chain

>  <Sequence Accession>
P08684

>  <Reference>


>  <Pubmed ID>


>  <DOI>
10.6019/CHEMBL2448688

$$$$
1590791
Actelion Java MolfileCreator 1.0

 24 26  0  0  0  0  0  0  0  0999 V2000
    0.0000   -0.0000   -0.0000 Br  0  0  0  0  0  0  0  0  0  0  0  0
   -1.3119    0.7564   -0.0000 C   0  0  0  0  0  0  0  0  0  0  0  0
   -2.6237    0.0236   -0.0000 C   0  0  0  0  0  0  0  0  0  0  0  0
   -1.3355    2.2692   -0.0000 C   0  0  0  0  0  0  0  0  0  0  0  0
   -3.9238    0.7800   -0.0000 C   0  0  0  0  0  0  0  0  0  0  0  0
   -2.6356    3.0256   -0.0000 C   0  0  0  0  0  0  0  0  0  0  0  0
   -3.9356    2.2810   -0.0000 C   0  0  0  0  0  0  0  0  0  0  0  0
   -5.2356    0.0473   -0.0000 C   0  0  0  0  0  0  0  0  0  0  0  0
   -5.2356    3.0374   -0.0000 C   0  0  0  0  0  0  0  0  0  0  0  0
   -6.5357    0.8037   -0.0000 C   0  0  0  0  0  0  0  0  0  0  0  0
   -6.5239    2.3046   -0.0000 C   0  0  0  0  0  0  0  0  0  0  0  0
   -7.8239    3.0728   -0.0000 O   0  0  0  0  0  0  0  0  0  0  0  0
   -9.1358    2.3401   -0.0000 C   0  0  0  0  0  0  0  0  0  0  0  0
  -10.4358    3.1083   -0.0000 C   0  0  0  0  0  0  0  0  0  0  0  0
  -10.4358    4.6093   -0.0000 O   0  0  0  0  0  0  0  0  0  0  0  0
  -11.7477    2.3755   -0.0000 C   0  0  0  0  0  0  0  0  0  0  0  0
  -13.0477    3.1438   -0.0000 N   0  0  0  0  0  0  0  0  0  0  0  0
  -14.3596    2.4110   -0.0000 C   0  0  0  0  0  0  0  0  0  0  0  0
  -15.6597    3.1792   -0.0000 C   0  0  0  0  0  0  0  0  0  0  0  0
  -14.3714    0.9337   -0.0000 C   0  0  0  0  0  0  0  0  0  0  0  0
  -16.9479    2.4346   -0.0000 C   0  0  0  0  0  0  0  0  0  0  0  0
  -15.6715    0.2127   -0.0000 C   0  0  0  0  0  0  0  0  0  0  0  0
  -16.9597    0.9573   -0.0000 N   0  0  0  0  0  0  0  0  0  0  0  0
  -18.2716    0.2246   -0.0000 C   0  0  0  0  0  0  0  0  0  0  0  0
  1  2  1  0  0  0  0
  2  3  2  0  0  0  0
  2  4  1  0  0  0  0
  3  5  1  0  0  0  0
  4  6  2  0  0  0  0
  5  7  1  0  0  0  0
  5  8  2  0  0  0  0
  7  9  2  0  0  0  0
  8 10  1  0  0  0  0
  9 11  1  0  0  0  0
 11 12  1  0  0  0  0
 12 13  1  0  0  0  0
 13 14  1  0  0  0  0
 14 15  1  0  0  0  0
 14 16  1  0  0  0  0
 16 17  1  0  0  0  0
 17 18  1  0  0  0  0
 18 19  1  0  0  0  0
 18 20  1  0  0  0  0
 19 21  1  0  0  0  0
 20 22  1  0  0  0  0
 21 23  1  0  0  0  0
 23 24  1  0  0  0  0
  6  7  1  0  0  0  0
 10 11  2  0  0  0  0
 22 23  1  0  0  0  0
M  END
>  <MolRegNo>
1590791

>  <m>
=

>  <Value>
44400

>  <Unit>
nM

>  <Type>
IC50

>  <pValue>
4.35

>  <Ligand Efficiency>
0

>  <Binding Efficiency>
0

>  <Surface Efficiency>
0

>  <Assay Index>
807357

>  <Assay Category>


>  <Assay Organism>
Homo sapiens

>  <Target ID>
17045

>  <Target Name>
Cytochrome P450 3A4

>  <Target Organism>
Homo sapiens

>  <Target Description>
Target is a single protein chain

>  <Sequence Accession>
P08684

>  <Reference>


>  <Pubmed ID>


>  <DOI>
10.6019/CHEMBL2448688

$$$$
1590793
Actelion Java MolfileCreator 1.0

 28 32  0  0  0  0  0  0  0  0999 V2000
    0.0000   -0.0000   -0.0000 S   0  0  0  0  0  0  0  0  0  0  0  0
   -1.3798   -0.6066   -0.0000 C   0  0  0  0  0  0  0  0  0  0  0  0
    0.9872   -1.1062   -0.0000 C   0  0  0  0  0  0  0  0  0  0  0  0
   -1.2370   -2.0815   -0.0000 N   0  0  0  0  0  0  0  0  0  0  0  0
   -2.6881    0.1546   -0.0000 C   0  0  0  0  0  0  0  0  0  0  0  0
    0.2260   -2.3908   -0.0000 C   0  0  0  0  0  0  0  0  0  0  0  0
    2.4621   -1.0943   -0.0000 C   0  0  0  0  0  0  0  0  0  0  0  0
   -3.9965   -0.5828   -0.0000 C   0  0  0  0  0  0  0  0  0  0  0  0
   -2.7000    1.6652   -0.0000 C   0  0  0  0  0  0  0  0  0  0  0  0
    0.9634   -3.6754   -0.0000 C   0  0  0  0  0  0  0  0  0  0  0  0
    3.1996   -2.3670   -0.0000 C   0  0  0  0  0  0  0  0  0  0  0  0
   -5.3049    0.1784   -0.0000 C   0  0  0  0  0  0  0  0  0  0  0  0
   -4.0203    2.4265   -0.0000 C   0  0  0  0  0  0  0  0  0  0  0  0
    2.4502   -3.6635   -0.0000 C   0  0  0  0  0  0  0  0  0  0  0  0
   -6.6133   -0.5590   -0.0000 N   0  0  0  0  0  0  0  0  0  0  0  0
   -5.3287    1.6890   -0.0000 C   0  0  0  0  0  0  0  0  0  0  0  0
   -6.6252   -2.0458   -0.0000 C   0  0  0  0  0  0  0  0  0  0  0  0
   -7.9217    0.2022   -0.0000 C   0  0  0  0  0  0  0  0  0  0  0  0
   -7.9336   -2.7833   -0.0000 O   0  0  0  0  0  0  0  0  0  0  0  0
   -5.3406   -2.7833   -0.0000 C   0  0  0  0  0  0  0  0  0  0  0  0
   -7.9336    1.7128   -0.0000 C   0  0  0  0  0  0  0  0  0  0  0  0
   -4.6031   -4.0679   -0.0000 C   0  0  0  0  0  0  0  0  0  0  0  0
   -3.8538   -2.7595   -0.0000 C   0  0  0  0  0  0  0  0  0  0  0  0
   -9.2420    2.4740   -0.0000 C   0  0  0  0  0  0  0  0  0  0  0  0
   -6.6371    2.4740   -0.0000 C   0  0  0  0  0  0  0  0  0  0  0  0
   -9.2538    3.9965   -0.0000 N   0  0  0  0  0  0  0  0  0  0  0  0
   -6.6490    3.9965   -0.0000 C   0  0  0  0  0  0  0  0  0  0  0  0
   -7.9693    4.7578   -0.0000 C   0  0  0  0  0  0  0  0  0  0  0  0
  1  2  1  0  0  0  0
  1  3  1  0  0  0  0
  2  4  2  0  0  0  0
  2  5  1  0  0  0  0
  3  6  2  0  0  0  0
  3  7  1  0  0  0  0
  5  8  2  0  0  0  0
  5  9  1  0  0  0  0
  6 10  1  0  0  0  0
  7 11  2  0  0  0  0
  8 12  1  0  0  0  0
  9 13  2  0  0  0  0
 10 14  2  0  0  0  0
 12 15  1  0  0  0  0
 12 16  2  0  0  0  0
 15 17  1  0  0  0  0
 15 18  1  0  0  0  0
 17 19  2  0  0  0  0
 17 20  1  0  0  0  0
 18 21  1  0  0  0  0
 20 22  1  0  0  0  0
 20 23  1  0  0  0  0
 21 24  2  0  0  0  0
 21 25  1  0  0  0  0
 24 26  1  0  0  0  0
 25 27  2  0  0  0  0
 26 28  2  0  0  0  0
  4  6  1  0  0  0  0
 11 14  1  0  0  0  0
 13 16  1  0  0  0  0
 22 23  1  0  0  0  0
 27 28  1  0  0  0  0
M  END
>  <MolRegNo>
1590793

>  <m>
=

>  <Value>
1400

>  <Unit>
nM

>  <Type>
IC50

>  <pValue>
5.85

>  <Ligand Efficiency>
0

>  <Binding Efficiency>
0

>  <Surface Efficiency>
0

>  <Assay Index>
807357

>  <Assay Category>


>  <Assay Organism>
Homo sapiens

>  <Target ID>
17045

>  <Target Name>
Cytochrome P450 3A4

>  <Target Organism>
Homo sapiens

>  <Target Description>
Target is a single protein chain

>  <Sequence Accession>
P08684

>  <Reference>


>  <Pubmed ID>


>  <DOI>
10.6019/CHEMBL2448688

$$$$
1590794
Actelion Java MolfileCreator 1.0

 27 30  0  0  0  0  0  0  0  0999 V2000
    0.0000   -0.0000   -0.0000 S   0  0  0  0  0  0  0  0  0  0  0  0
    0.9874    1.1302   -0.0000 C   0  0  0  0  0  0  0  0  0  0  0  0
   -1.3800    0.6067   -0.0000 C   0  0  0  0  0  0  0  0  0  0  0  0
    0.2141    2.4388   -0.0000 N   0  0  0  0  0  0  0  0  0  0  0  0
    2.4745    0.9993   -0.0000 C   0  0  0  0  0  0  0  0  0  0  0  0
   -2.6886   -0.1428   -0.0000 C   0  0  0  0  0  0  0  0  0  0  0  0
   -1.2491    2.1176   -0.0000 C   0  0  0  0  0  0  0  0  0  0  0  0
    3.0812   -0.3569   -0.0000 C   0  0  0  0  0  0  0  0  0  0  0  0
    3.3310    2.2247   -0.0000 C   0  0  0  0  0  0  0  0  0  0  0  0
   -4.0091    0.6067   -0.0000 O   0  0  0  0  0  0  0  0  0  0  0  0
   -2.6886   -1.6298   -0.0000 N   0  0  0  0  0  0  0  0  0  0  0  0
    4.5564   -0.4878   -0.0000 C   0  0  0  0  0  0  0  0  0  0  0  0
    4.8062    2.0938   -0.0000 C   0  0  0  0  0  0  0  0  0  0  0  0
   -3.9972   -2.3674   -0.0000 C   0  0  0  0  0  0  0  0  0  0  0  0
    5.4248    0.7495   -0.0000 C   0  0  0  0  0  0  0  0  0  0  0  0
   -4.0091   -3.8664   -0.0000 C   0  0  0  0  0  0  0  0  0  0  0  0
   -5.3059   -1.6060   -0.0000 C   0  0  0  0  0  0  0  0  0  0  0  0
   -2.7243   -4.6040   -0.0000 N   0  0  0  0  0  0  0  0  0  0  0  0
   -5.3297   -4.6040   -0.0000 C   0  0  0  0  0  0  0  0  0  0  0  0
   -6.6145   -2.3436   -0.0000 C   0  0  0  0  0  0  0  0  0  0  0  0
   -1.3681   -3.9734   -0.0000 C   0  0  0  0  0  0  0  0  0  0  0  0
   -2.5816   -6.0791   -0.0000 C   0  0  0  0  0  0  0  0  0  0  0  0
   -6.6383   -3.8426   -0.0000 C   0  0  0  0  0  0  0  0  0  0  0  0
   -7.9231   -1.5822   -0.0000 C   0  0  0  0  0  0  0  0  0  0  0  0
   -0.3688   -5.0798   -0.0000 N   0  0  0  0  0  0  0  0  0  0  0  0
   -1.1302   -6.3766   -0.0000 C   0  0  0  0  0  0  0  0  0  0  0  0
   -9.2436   -0.8209   -0.0000 N   0  0  0  0  0  0  0  0  0  0  0  0
  1  2  1  0  0  0  0
  1  3  1  0  0  0  0
  2  4  2  0  0  0  0
  2  5  1  0  0  0  0
  3  6  1  0  0  0  0
  3  7  2  0  0  0  0
  5  8  2  0  0  0  0
  5  9  1  0  0  0  0
  6 10  2  0  0  0  0
  6 11  1  0  0  0  0
  8 12  1  0  0  0  0
  9 13  2  0  0  0  0
 11 14  1  0  0  0  0
 12 15  2  0  0  0  0
 14 16  2  0  0  0  0
 14 17  1  0  0  0  0
 16 18  1  0  0  0  0
 16 19  1  0  0  0  0
 17 20  2  0  0  0  0
 18 21  1  0  0  0  0
 18 22  1  0  0  0  0
 19 23  2  0  0  0  0
 20 24  1  0  0  0  0
 21 25  2  0  0  0  0
 22 26  2  0  0  0  0
 24 27  3  0  0  0  0
  4  7  1  0  0  0  0
 13 15  1  0  0  0  0
 20 23  1  0  0  0  0
 25 26  1  0  0  0  0
M  END
>  <MolRegNo>
1590794

>  <m>
=

>  <Value>
4500

>  <Unit>
nM

>  <Type>
IC50

>  <pValue>
5.35

>  <Ligand Efficiency>
0

>  <Binding Efficiency>
0

>  <Surface Efficiency>
0

>  <Assay Index>
807357

>  <Assay Category>


>  <Assay Organism>
Homo sapiens

>  <Target ID>
17045

>  <Target Name>
Cytochrome P450 3A4

>  <Target Organism>
Homo sapiens

>  <Target Description>
Target is a single protein chain

>  <Sequence Accession>
P08684

>  <Reference>


>  <Pubmed ID>


>  <DOI>
10.6019/CHEMBL2448688

$$$$
1590795
Actelion Java MolfileCreator 1.0

 31 34  0  0  0  0  0  0  0  0999 V2000
    0.0000   -0.0000   -0.0000 S   0  0  0  0  0  0  0  0  0  0  0  0
    0.7246    1.3186   -0.0000 O   0  0  0  0  0  0  0  0  0  0  0  0
   -0.7722   -1.2830   -0.0000 O   0  0  0  0  0  0  0  0  0  0  0  0
   -1.3186    0.7722   -0.0000 N   0  0  0  0  0  0  0  0  0  0  0  0
    1.2830   -0.7365   -0.0000 C   0  0  0  0  0  0  0  0  0  0  0  0
   -1.3305    2.2808   -0.0000 C   0  0  0  0  0  0  0  0  0  0  0  0
   -2.6253    0.0356   -0.0000 C   0  0  0  0  0  0  0  0  0  0  0  0
    2.5659    0.0238   -0.0000 C   0  0  0  0  0  0  0  0  0  0  0  0
    1.2711   -2.2333   -0.0000 C   0  0  0  0  0  0  0  0  0  0  0  0
    3.8608   -0.7128   -0.0000 C   0  0  0  0  0  0  0  0  0  0  0  0
    2.5540   -2.9698   -0.0000 C   0  0  0  0  0  0  0  0  0  0  0  0
    5.1437    0.0594   -0.0000 N   0  0  0  0  0  0  0  0  0  0  0  0
    3.8489   -2.2095   -0.0000 C   0  0  0  0  0  0  0  0  0  0  0  0
    5.1200    1.5681   -0.0000 C   0  0  0  0  0  0  0  0  0  0  0  0
    5.1437   -2.9461   -0.0000 N   0  0  0  0  0  0  0  0  0  0  0  0
    3.8014    2.3283   -0.0000 O   0  0  0  0  0  0  0  0  0  0  0  0
    6.4029    2.3402   -0.0000 C   0  0  0  0  0  0  0  0  0  0  0  0
    5.2863   -4.4191   -0.0000 C   0  0  0  0  0  0  0  0  0  0  0  0
    6.5098   -2.3165   -0.0000 C   0  0  0  0  0  0  0  0  0  0  0  0
    6.5455    3.8489   -0.0000 S   0  0  0  0  0  0  0  0  0  0  0  0
    7.7690    1.7581   -0.0000 C   0  0  0  0  0  0  0  0  0  0  0  0
    6.7474   -4.7161   -0.0000 N   0  0  0  0  0  0  0  0  0  0  0  0
    7.5077   -3.4212   -0.0000 C   0  0  0  0  0  0  0  0  0  0  0  0
    7.9947    4.1815   -0.0000 C   0  0  0  0  0  0  0  0  0  0  0  0
    8.7550    2.8867   -0.0000 N   0  0  0  0  0  0  0  0  0  0  0  0
    8.5887    5.5714   -0.0000 C   0  0  0  0  0  0  0  0  0  0  0  0
    7.6859    6.7831   -0.0000 C   0  0  0  0  0  0  0  0  0  0  0  0
   10.0736    5.7377   -0.0000 C   0  0  0  0  0  0  0  0  0  0  0  0
    8.2680    8.1729   -0.0000 C   0  0  0  0  0  0  0  0  0  0  0  0
   10.6676    7.1276   -0.0000 C   0  0  0  0  0  0  0  0  0  0  0  0
    9.7529    8.3511   -0.0000 C   0  0  0  0  0  0  0  0  0  0  0  0
  1  2  2  0  0  0  0
  1  3  2  0  0  0  0
  1  4  1  0  0  0  0
  1  5  1  0  0  0  0
  4  6  1  0  0  0  0
  4  7  1  0  0  0  0
  5  8  2  0  0  0  0
  5  9  1  0  0  0  0
  8 10  1  0  0  0  0
  9 11  2  0  0  0  0
 10 12  1  0  0  0  0
 10 13  2  0  0  0  0
 12 14  1  0  0  0  0
 13 15  1  0  0  0  0
 14 16  2  0  0  0  0
 14 17  1  0  0  0  0
 15 18  1  0  0  0  0
 15 19  1  0  0  0  0
 17 20  1  0  0  0  0
 17 21  2  0  0  0  0
 18 22  2  0  0  0  0
 19 23  2  0  0  0  0
 20 24  1  0  0  0  0
 21 25  1  0  0  0  0
 24 26  1  0  0  0  0
 26 27  2  0  0  0  0
 26 28  1  0  0  0  0
 27 29  1  0  0  0  0
 28 30  2  0  0  0  0
 29 31  2  0  0  0  0
 11 13  1  0  0  0  0
 22 23  1  0  0  0  0
 24 25  2  0  0  0  0
 30 31  1  0  0  0  0
M  END
>  <MolRegNo>
1590795

>  <m>
=

>  <Value>
10000

>  <Unit>
nM

>  <Type>
IC50

>  <pValue>
5

>  <Ligand Efficiency>
0

>  <Binding Efficiency>
0

>  <Surface Efficiency>
0

>  <Assay Index>
807357

>  <Assay Category>


>  <Assay Organism>
Homo sapiens

>  <Target ID>
17045

>  <Target Name>
Cytochrome P450 3A4

>  <Target Organism>
Homo sapiens

>  <Target Description>
Target is a single protein chain

>  <Sequence Accession>
P08684

>  <Reference>


>  <Pubmed ID>


>  <DOI>
10.6019/CHEMBL2448688

$$$$
1590797
Actelion Java MolfileCreator 1.0

 25 28  0  0  0  0  0  0  0  0999 V2000
    0.0000   -0.0000   -0.0000 S   0  0  0  0  0  0  0  0  0  0  0  0
   -1.3780   -0.6059   -0.0000 C   0  0  0  0  0  0  0  0  0  0  0  0
    0.9979   -1.1048   -0.0000 C   0  0  0  0  0  0  0  0  0  0  0  0
   -1.2355   -2.0789   -0.0000 N   0  0  0  0  0  0  0  0  0  0  0  0
   -2.6967    0.1544   -0.0000 C   0  0  0  0  0  0  0  0  0  0  0  0
    0.2257   -2.3878   -0.0000 C   0  0  0  0  0  0  0  0  0  0  0  0
    2.4710   -1.0929   -0.0000 C   0  0  0  0  0  0  0  0  0  0  0  0
   -2.7086    1.6750   -0.0000 C   0  0  0  0  0  0  0  0  0  0  0  0
   -4.0153   -0.5821   -0.0000 C   0  0  0  0  0  0  0  0  0  0  0  0
    0.9623   -3.6589   -0.0000 C   0  0  0  0  0  0  0  0  0  0  0  0
    3.2075   -2.3641   -0.0000 C   0  0  0  0  0  0  0  0  0  0  0  0
   -4.0272    2.4353   -0.0000 N   0  0  0  0  0  0  0  0  0  0  0  0
   -5.3221    0.1782   -0.0000 C   0  0  0  0  0  0  0  0  0  0  0  0
    2.4472   -3.6589   -0.0000 C   0  0  0  0  0  0  0  0  0  0  0  0
   -5.3340    1.6988   -0.0000 C   0  0  0  0  0  0  0  0  0  0  0  0
   -6.6407   -0.5583   -0.0000 N   0  0  0  0  0  0  0  0  0  0  0  0
   -7.9475    0.2020   -0.0000 C   0  0  0  0  0  0  0  0  0  0  0  0
   -6.6526   -2.0433   -0.0000 C   0  0  0  0  0  0  0  0  0  0  0  0
   -9.2661   -0.5346   -0.0000 C   0  0  0  0  0  0  0  0  0  0  0  0
   -5.3577   -2.7798   -0.0000 C   0  0  0  0  0  0  0  0  0  0  0  0
   -9.2661   -2.0195   -0.0000 C   0  0  0  0  0  0  0  0  0  0  0  0
  -10.5729    0.2376   -0.0000 C   0  0  0  0  0  0  0  0  0  0  0  0
  -10.5729   -2.7561   -0.0000 N   0  0  0  0  0  0  0  0  0  0  0  0
  -11.8797   -0.4989   -0.0000 C   0  0  0  0  0  0  0  0  0  0  0  0
  -11.8916   -1.9958   -0.0000 C   0  0  0  0  0  0  0  0  0  0  0  0
  1  2  1  0  0  0  0
  1  3  1  0  0  0  0
  2  4  2  0  0  0  0
  2  5  1  0  0  0  0
  3  6  2  0  0  0  0
  3  7  1  0  0  0  0
  5  8  2  0  0  0  0
  5  9  1  0  0  0  0
  6 10  1  0  0  0  0
  7 11  2  0  0  0  0
  8 12  1  0  0  0  0
  9 13  2  0  0  0  0
 10 14  2  0  0  0  0
 12 15  2  0  0  0  0
 13 16  1  0  0  0  0
 16 17  1  0  0  0  0
 16 18  1  0  0  0  0
 17 19  1  0  0  0  0
 18 20  1  0  0  0  0
 19 21  2  0  0  0  0
 19 22  1  0  0  0  0
 21 23  1  0  0  0  0
 22 24  2  0  0  0  0
 23 25  2  0  0  0  0
  4  6  1  0  0  0  0
 11 14  1  0  0  0  0
 13 15  1  0  0  0  0
 24 25  1  0  0  0  0
M  END
>  <MolRegNo>
1590797

>  <m>
=

>  <Value>
790

>  <Unit>
nM

>  <Type>
IC50

>  <pValue>
6.1

>  <Ligand Efficiency>
0

>  <Binding Efficiency>
0

>  <Surface Efficiency>
0

>  <Assay Index>
807357

>  <Assay Category>


>  <Assay Organism>
Homo sapiens

>  <Target ID>
17045

>  <Target Name>
Cytochrome P450 3A4

>  <Target Organism>
Homo sapiens

>  <Target Description>
Target is a single protein chain

>  <Sequence Accession>
P08684

>  <Reference>


>  <Pubmed ID>


>  <DOI>
10.6019/CHEMBL2448688

$$$$
1590798
Actelion Java MolfileCreator 1.0

 30 33  0  0  0  0  0  0  0  0999 V2000
    0.0000   -0.0000   -0.0000 S   0  0  0  0  0  0  0  0  0  0  0  0
   -0.4863   -1.4114   -0.0000 C   0  0  0  0  0  0  0  0  0  0  0  0
   -1.2335    0.9014   -0.0000 C   0  0  0  0  0  0  0  0  0  0  0  0
   -1.9926   -1.3996   -0.0000 N   0  0  0  0  0  0  0  0  0  0  0  0
    0.3914   -2.6212   -0.0000 C   0  0  0  0  0  0  0  0  0  0  0  0
   -1.2454    2.4077   -0.0000 C   0  0  0  0  0  0  0  0  0  0  0  0
   -2.4552    0.0237   -0.0000 C   0  0  0  0  0  0  0  0  0  0  0  0
   -0.2372   -3.9734   -0.0000 C   0  0  0  0  0  0  0  0  0  0  0  0
    1.8503   -2.4433   -0.0000 C   0  0  0  0  0  0  0  0  0  0  0  0
    0.0356    3.1668   -0.0000 O   0  0  0  0  0  0  0  0  0  0  0  0
   -2.5619    3.1668   -0.0000 N   0  0  0  0  0  0  0  0  0  0  0  0
    0.6286   -5.1713   -0.0000 C   0  0  0  0  0  0  0  0  0  0  0  0
    2.7280   -3.6413   -0.0000 C   0  0  0  0  0  0  0  0  0  0  0  0
   -2.5738    4.6732   -0.0000 C   0  0  0  0  0  0  0  0  0  0  0  0
    2.1112   -5.0053   -0.0000 C   0  0  0  0  0  0  0  0  0  0  0  0
   -3.8785    5.4323   -0.0000 C   0  0  0  0  0  0  0  0  0  0  0  0
   -1.2810    5.4323   -0.0000 C   0  0  0  0  0  0  0  0  0  0  0  0
   -5.1950    4.6969   -0.0000 N   0  0  0  0  0  0  0  0  0  0  0  0
   -3.8903    6.9504   -0.0000 C   0  0  0  0  0  0  0  0  0  0  0  0
   -1.2928    6.9504   -0.0000 C   0  0  0  0  0  0  0  0  0  0  0  0
   -6.5709    5.3255   -0.0000 C   0  0  0  0  0  0  0  0  0  0  0  0
   -5.3611    3.2380   -0.0000 C   0  0  0  0  0  0  0  0  0  0  0  0
   -2.6094    7.7095   -0.0000 C   0  0  0  0  0  0  0  0  0  0  0  0
   -0.0119    7.7214   -0.0000 C   0  0  0  0  0  0  0  0  0  0  0  0
   -7.5909    4.2224   -0.0000 N   0  0  0  0  0  0  0  0  0  0  0  0
   -6.8437    2.9296   -0.0000 C   0  0  0  0  0  0  0  0  0  0  0  0
   -0.0356    9.2277   -0.0000 N   0  0  0  0  0  0  0  0  0  0  0  0
    1.2810    6.9860   -0.0000 C   0  0  0  0  0  0  0  0  0  0  0  0
    1.2454    9.9987   -0.0000 O   0  0  0  0  0  0  0  0  0  0  0  0
    1.2217   11.5050   -0.0000 C   0  0  0  0  0  0  0  0  0  0  0  0
  1  2  1  0  0  0  0
  1  3  1  0  0  0  0
  2  4  2  0  0  0  0
  2  5  1  0  0  0  0
  3  6  1  0  0  0  0
  3  7  2  0  0  0  0
  5  8  2  0  0  0  0
  5  9  1  0  0  0  0
  6 10  2  0  0  0  0
  6 11  1  0  0  0  0
  8 12  1  0  0  0  0
  9 13  2  0  0  0  0
 11 14  1  0  0  0  0
 12 15  2  0  0  0  0
 14 16  2  0  0  0  0
 14 17  1  0  0  0  0
 16 18  1  0  0  0  0
 16 19  1  0  0  0  0
 17 20  2  0  0  0  0
 18 21  1  0  0  0  0
 18 22  1  0  0  0  0
 19 23  2  0  0  0  0
 20 24  1  0  0  0  0
 21 25  2  0  0  0  0
 22 26  2  0  0  0  0
 24 27  2  0  0  0  0
 24 28  1  0  0  0  0
 27 29  1  0  0  0  0
 29 30  1  0  0  0  0
  4  7  1  0  0  0  0
 13 15  1  0  0  0  0
 20 23  1  0  0  0  0
 25 26  1  0  0  0  0
M  END
>  <MolRegNo>
1590798

>  <m>
=

>  <Value>
1000

>  <Unit>
nM

>  <Type>
IC50

>  <pValue>
6

>  <Ligand Efficiency>
0

>  <Binding Efficiency>
0

>  <Surface Efficiency>
0

>  <Assay Index>
807357

>  <Assay Category>


>  <Assay Organism>
Homo sapiens

>  <Target ID>
17045

>  <Target Name>
Cytochrome P450 3A4

>  <Target Organism>
Homo sapiens

>  <Target Description>
Target is a single protein chain

>  <Sequence Accession>
P08684

>  <Reference>


>  <Pubmed ID>


>  <DOI>
10.6019/CHEMBL2448688

$$$$
1590799
Actelion Java MolfileCreator 1.0

 30 33  0  0  0  0  0  0  0  0999 V2000
    0.0000   -0.0000   -0.0000 S   0  0  0  0  0  0  0  0  0  0  0  0
   -0.1776    1.4918   -0.0000 C   0  0  0  0  0  0  0  0  0  0  0  0
    1.4563   -0.2842   -0.0000 C   0  0  0  0  0  0  0  0  0  0  0  0
   -1.4918    2.2377   -0.0000 C   0  0  0  0  0  0  0  0  0  0  0  0
    1.1721    2.1193   -0.0000 C   0  0  0  0  0  0  0  0  0  0  0  0
    2.1785    1.0301   -0.0000 C   0  0  0  0  0  0  0  0  0  0  0  0
   -2.7942    1.4918   -0.0000 N   0  0  0  0  0  0  0  0  0  0  0  0
   -1.5155    3.7532   -0.0000 C   0  0  0  0  0  0  0  0  0  0  0  0
   -4.1084    2.2377   -0.0000 C   0  0  0  0  0  0  0  0  0  0  0  0
   -2.8297    4.4991   -0.0000 C   0  0  0  0  0  0  0  0  0  0  0  0
   -4.1202    3.7414   -0.0000 C   0  0  0  0  0  0  0  0  0  0  0  0
   -5.4345    4.4873   -0.0000 C   0  0  0  0  0  0  0  0  0  0  0  0
   -5.4581    5.9909   -0.0000 O   0  0  0  0  0  0  0  0  0  0  0  0
   -6.7368    3.7414   -0.0000 N   0  0  0  0  0  0  0  0  0  0  0  0
   -8.0392    4.4991   -0.0000 C   0  0  0  0  0  0  0  0  0  0  0  0
   -9.3534    3.7651   -0.0000 C   0  0  0  0  0  0  0  0  0  0  0  0
   -8.0511    6.0146   -0.0000 C   0  0  0  0  0  0  0  0  0  0  0  0
   -9.3653    2.2851   -0.0000 N   0  0  0  0  0  0  0  0  0  0  0  0
  -10.6558    4.5228   -0.0000 C   0  0  0  0  0  0  0  0  0  0  0  0
   -9.3534    6.7724   -0.0000 C   0  0  0  0  0  0  0  0  0  0  0  0
  -10.5729    1.4208   -0.0000 C   0  0  0  0  0  0  0  0  0  0  0  0
   -8.1576    1.4208   -0.0000 C   0  0  0  0  0  0  0  0  0  0  0  0
  -10.6677    6.0383   -0.0000 C   0  0  0  0  0  0  0  0  0  0  0  0
   -9.3653    8.2760   -0.0000 C   0  0  0  0  0  0  0  0  0  0  0  0
  -10.1230    0.0118   -0.0000 N   0  0  0  0  0  0  0  0  0  0  0  0
   -8.6312    0.0118   -0.0000 C   0  0  0  0  0  0  0  0  0  0  0  0
  -10.6677    9.0338   -0.0000 N   0  0  0  0  0  0  0  0  0  0  0  0
   -8.0866    9.0338   -0.0000 C   0  0  0  0  0  0  0  0  0  0  0  0
  -10.6795   10.5374   -0.0000 O   0  0  0  0  0  0  0  0  0  0  0  0
  -11.9819   11.2952   -0.0000 C   0  0  0  0  0  0  0  0  0  0  0  0
  1  2  1  0  0  0  0
  1  3  1  0  0  0  0
  2  4  1  0  0  0  0
  2  5  2  0  0  0  0
  3  6  2  0  0  0  0
  4  7  2  0  0  0  0
  4  8  1  0  0  0  0
  7  9  1  0  0  0  0
  8 10  2  0  0  0  0
  9 11  2  0  0  0  0
 11 12  1  0  0  0  0
 12 13  2  0  0  0  0
 12 14  1  0  0  0  0
 14 15  1  0  0  0  0
 15 16  2  0  0  0  0
 15 17  1  0  0  0  0
 16 18  1  0  0  0  0
 16 19  1  0  0  0  0
 17 20  2  0  0  0  0
 18 21  1  0  0  0  0
 18 22  1  0  0  0  0
 19 23  2  0  0  0  0
 20 24  1  0  0  0  0
 21 25  2  0  0  0  0
 22 26  2  0  0  0  0
 24 27  2  0  0  0  0
 24 28  1  0  0  0  0
 27 29  1  0  0  0  0
 29 30  1  0  0  0  0
  5  6  1  0  0  0  0
 10 11  1  0  0  0  0
 20 23  1  0  0  0  0
 25 26  1  0  0  0  0
M  END
>  <MolRegNo>
1590799

>  <m>
=

>  <Value>
1400

>  <Unit>
nM

>  <Type>
IC50

>  <pValue>
5.85

>  <Ligand Efficiency>
0

>  <Binding Efficiency>
0

>  <Surface Efficiency>
0

>  <Assay Index>
807357

>  <Assay Category>


>  <Assay Organism>
Homo sapiens

>  <Target ID>
17045

>  <Target Name>
Cytochrome P450 3A4

>  <Target Organism>
Homo sapiens

>  <Target Description>
Target is a single protein chain

>  <Sequence Accession>
P08684

>  <Reference>


>  <Pubmed ID>


>  <DOI>
10.6019/CHEMBL2448688

$$$$
1590800
Actelion Java MolfileCreator 1.0

 31 34  0  0  0  0  0  0  0  0999 V2000
    0.0000   -0.0000   -0.0000 O   0  0  0  0  0  0  0  0  0  0  0  0
    0.0000   -1.4887   -0.0000 C   0  0  0  0  0  0  0  0  0  0  0  0
   -1.3101   -2.2390   -0.0000 N   0  0  0  0  0  0  0  0  0  0  0  0
    1.2982   -2.2152   -0.0000 C   0  0  0  0  0  0  0  0  0  0  0  0
   -2.6201   -1.4768   -0.0000 C   0  0  0  0  0  0  0  0  0  0  0  0
    1.2863   -3.7039   -0.0000 C   0  0  0  0  0  0  0  0  0  0  0  0
    2.5725   -1.4411   -0.0000 C   0  0  0  0  0  0  0  0  0  0  0  0
   -3.9421   -2.2152   -0.0000 C   0  0  0  0  0  0  0  0  0  0  0  0
   -2.6321    0.0476   -0.0000 C   0  0  0  0  0  0  0  0  0  0  0  0
    2.5844   -4.4304   -0.0000 N   0  0  0  0  0  0  0  0  0  0  0  0
    3.8707   -2.1676   -0.0000 C   0  0  0  0  0  0  0  0  0  0  0  0
   -3.9540   -3.7039   -0.0000 N   0  0  0  0  0  0  0  0  0  0  0  0
   -5.2522   -1.4530   -0.0000 C   0  0  0  0  0  0  0  0  0  0  0  0
   -3.9421    0.8099   -0.0000 C   0  0  0  0  0  0  0  0  0  0  0  0
    3.8707   -3.6563   -0.0000 C   0  0  0  0  0  0  0  0  0  0  0  0
   -5.1688   -4.5734   -0.0000 C   0  0  0  0  0  0  0  0  0  0  0  0
   -2.7392   -4.5734   -0.0000 C   0  0  0  0  0  0  0  0  0  0  0  0
   -5.2641    0.0715   -0.0000 C   0  0  0  0  0  0  0  0  0  0  0  0
   -3.9540    2.3224   -0.0000 C   0  0  0  0  0  0  0  0  0  0  0  0
    5.1688   -4.3828   -0.0000 C   0  0  0  0  0  0  0  0  0  0  0  0
   -4.7163   -5.9906   -0.0000 N   0  0  0  0  0  0  0  0  0  0  0  0
   -3.2156   -5.9906   -0.0000 C   0  0  0  0  0  0  0  0  0  0  0  0
   -5.2641    3.0846   -0.0000 N   0  0  0  0  0  0  0  0  0  0  0  0
   -2.6678    3.0846   -0.0000 C   0  0  0  0  0  0  0  0  0  0  0  0
    5.1688   -5.8715   -0.0000 C   0  0  0  0  0  0  0  0  0  0  0  0
    6.4432   -3.6087   -0.0000 C   0  0  0  0  0  0  0  0  0  0  0  0
   -5.2760    4.5972   -0.0000 O   0  0  0  0  0  0  0  0  0  0  0  0
    6.4670   -6.5980   -0.0000 C   0  0  0  0  0  0  0  0  0  0  0  0
    7.7413   -4.3352   -0.0000 C   0  0  0  0  0  0  0  0  0  0  0  0
   -6.5861    5.3594   -0.0000 C   0  0  0  0  0  0  0  0  0  0  0  0
    7.7533   -5.8239   -0.0000 C   0  0  0  0  0  0  0  0  0  0  0  0
  1  2  2  0  0  0  0
  2  3  1  0  0  0  0
  2  4  1  0  0  0  0
  3  5  1  0  0  0  0
  4  6  2  0  0  0  0
  4  7  1  0  0  0  0
  5  8  2  0  0  0  0
  5  9  1  0  0  0  0
  6 10  1  0  0  0  0
  7 11  2  0  0  0  0
  8 12  1  0  0  0  0
  8 13  1  0  0  0  0
  9 14  2  0  0  0  0
 10 15  2  0  0  0  0
 12 16  1  0  0  0  0
 12 17  1  0  0  0  0
 13 18  2  0  0  0  0
 14 19  1  0  0  0  0
 15 20  1  0  0  0  0
 16 21  2  0  0  0  0
 17 22  2  0  0  0  0
 19 23  2  0  0  0  0
 19 24  1  0  0  0  0
 20 25  2  0  0  0  0
 20 26  1  0  0  0  0
 23 27  1  0  0  0  0
 25 28  1  0  0  0  0
 26 29  2  0  0  0  0
 27 30  1  0  0  0  0
 28 31  2  0  0  0  0
 11 15  1  0  0  0  0
 14 18  1  0  0  0  0
 21 22  1  0  0  0  0
 29 31  1  0  0  0  0
M  END
>  <MolRegNo>
1590800

>  <m>
=

>  <Value>
4000

>  <Unit>
nM

>  <Type>
IC50

>  <pValue>
5.4

>  <Ligand Efficiency>
0

>  <Binding Efficiency>
0

>  <Surface Efficiency>
0

>  <Assay Index>
807357

>  <Assay Category>


>  <Assay Organism>
Homo sapiens

>  <Target ID>
17045

>  <Target Name>
Cytochrome P450 3A4

>  <Target Organism>
Homo sapiens

>  <Target Description>
Target is a single protein chain

>  <Sequence Accession>
P08684

>  <Reference>


>  <Pubmed ID>


>  <DOI>
10.6019/CHEMBL2448688

$$$$
1590801
Actelion Java MolfileCreator 1.0

 31 34  0  0  0  0  0  0  0  0999 V2000
    0.0000   -0.0000   -0.0000 O   0  0  0  0  0  0  0  0  0  0  0  0
    0.0000   -1.4887   -0.0000 C   0  0  0  0  0  0  0  0  0  0  0  0
   -1.3101   -2.2390   -0.0000 N   0  0  0  0  0  0  0  0  0  0  0  0
    1.2982   -2.2152   -0.0000 C   0  0  0  0  0  0  0  0  0  0  0  0
   -2.6201   -1.4768   -0.0000 C   0  0  0  0  0  0  0  0  0  0  0  0
    1.2863   -3.7039   -0.0000 C   0  0  0  0  0  0  0  0  0  0  0  0
    2.5725   -1.4411   -0.0000 C   0  0  0  0  0  0  0  0  0  0  0  0
   -3.9421   -2.2152   -0.0000 C   0  0  0  0  0  0  0  0  0  0  0  0
   -2.6321    0.0476   -0.0000 C   0  0  0  0  0  0  0  0  0  0  0  0
    2.5844   -4.4304   -0.0000 C   0  0  0  0  0  0  0  0  0  0  0  0
    3.8707   -2.1676   -0.0000 C   0  0  0  0  0  0  0  0  0  0  0  0
   -3.9540   -3.7039   -0.0000 N   0  0  0  0  0  0  0  0  0  0  0  0
   -5.2522   -1.4530   -0.0000 C   0  0  0  0  0  0  0  0  0  0  0  0
   -3.9421    0.8099   -0.0000 C   0  0  0  0  0  0  0  0  0  0  0  0
    3.8707   -3.6563   -0.0000 C   0  0  0  0  0  0  0  0  0  0  0  0
   -5.1688   -4.5734   -0.0000 C   0  0  0  0  0  0  0  0  0  0  0  0
   -2.7392   -4.5734   -0.0000 C   0  0  0  0  0  0  0  0  0  0  0  0
   -5.2641    0.0715   -0.0000 C   0  0  0  0  0  0  0  0  0  0  0  0
   -3.9540    2.3224   -0.0000 C   0  0  0  0  0  0  0  0  0  0  0  0
    5.1688   -4.3828   -0.0000 C   0  0  0  0  0  0  0  0  0  0  0  0
   -4.7163   -5.9906   -0.0000 N   0  0  0  0  0  0  0  0  0  0  0  0
   -3.2156   -5.9906   -0.0000 C   0  0  0  0  0  0  0  0  0  0  0  0
   -5.2641    3.0846   -0.0000 N   0  0  0  0  0  0  0  0  0  0  0  0
   -2.6678    3.0846   -0.0000 C   0  0  0  0  0  0  0  0  0  0  0  0
    5.1688   -5.8715   -0.0000 C   0  0  0  0  0  0  0  0  0  0  0  0
    6.4432   -3.6087   -0.0000 C   0  0  0  0  0  0  0  0  0  0  0  0
   -5.2760    4.5972   -0.0000 O   0  0  0  0  0  0  0  0  0  0  0  0
    6.4670   -6.5980   -0.0000 C   0  0  0  0  0  0  0  0  0  0  0  0
    7.7413   -4.3352   -0.0000 C   0  0  0  0  0  0  0  0  0  0  0  0
   -6.5861    5.3594   -0.0000 C   0  0  0  0  0  0  0  0  0  0  0  0
    7.7533   -5.8239   -0.0000 C   0  0  0  0  0  0  0  0  0  0  0  0
  1  2  2  0  0  0  0
  2  3  1  0  0  0  0
  2  4  1  0  0  0  0
  3  5  1  0  0  0  0
  4  6  2  0  0  0  0
  4  7  1  0  0  0  0
  5  8  2  0  0  0  0
  5  9  1  0  0  0  0
  6 10  1  0  0  0  0
  7 11  2  0  0  0  0
  8 12  1  0  0  0  0
  8 13  1  0  0  0  0
  9 14  2  0  0  0  0
 10 15  2  0  0  0  0
 12 16  1  0  0  0  0
 12 17  1  0  0  0  0
 13 18  2  0  0  0  0
 14 19  1  0  0  0  0
 15 20  1  0  0  0  0
 16 21  2  0  0  0  0
 17 22  2  0  0  0  0
 19 23  2  0  0  0  0
 19 24  1  0  0  0  0
 20 25  2  0  0  0  0
 20 26  1  0  0  0  0
 23 27  1  0  0  0  0
 25 28  1  0  0  0  0
 26 29  2  0  0  0  0
 27 30  1  0  0  0  0
 28 31  2  0  0  0  0
 11 15  1  0  0  0  0
 14 18  1  0  0  0  0
 21 22  1  0  0  0  0
 29 31  1  0  0  0  0
M  END
>  <MolRegNo>
1590801

>  <m>
=

>  <Value>
3000

>  <Unit>
nM

>  <Type>
IC50

>  <pValue>
5.52

>  <Ligand Efficiency>
0

>  <Binding Efficiency>
0

>  <Surface Efficiency>
0

>  <Assay Index>
807357

>  <Assay Category>


>  <Assay Organism>
Homo sapiens

>  <Target ID>
17045

>  <Target Name>
Cytochrome P450 3A4

>  <Target Organism>
Homo sapiens

>  <Target Description>
Target is a single protein chain

>  <Sequence Accession>
P08684

>  <Reference>


>  <Pubmed ID>


>  <DOI>
10.6019/CHEMBL2448688

$$$$
1590802
Actelion Java MolfileCreator 1.0

 30 33  0  0  0  0  0  0  0  0999 V2000
    0.0000   -0.0000   -0.0000 S   0  0  0  0  0  0  0  0  0  0  0  0
    1.4614   -0.2852   -0.0000 C   0  0  0  0  0  0  0  0  0  0  0  0
   -0.1901    1.4971   -0.0000 C   0  0  0  0  0  0  0  0  0  0  0  0
    2.0674   -1.6397   -0.0000 C   0  0  0  0  0  0  0  0  0  0  0  0
    2.1862    1.0337   -0.0000 C   0  0  0  0  0  0  0  0  0  0  0  0
   -1.5090    2.2456   -0.0000 C   0  0  0  0  0  0  0  0  0  0  0  0
    1.1644    2.1268   -0.0000 C   0  0  0  0  0  0  0  0  0  0  0  0
    3.5407   -1.7704   -0.0000 N   0  0  0  0  0  0  0  0  0  0  0  0
    1.1763   -2.8397   -0.0000 C   0  0  0  0  0  0  0  0  0  0  0  0
   -1.5327    3.7546   -0.0000 O   0  0  0  0  0  0  0  0  0  0  0  0
   -2.8160    1.4971   -0.0000 N   0  0  0  0  0  0  0  0  0  0  0  0
    4.1467   -3.1130   -0.0000 C   0  0  0  0  0  0  0  0  0  0  0  0
    1.7823   -4.1942   -0.0000 C   0  0  0  0  0  0  0  0  0  0  0  0
   -4.1229    2.2575   -0.0000 C   0  0  0  0  0  0  0  0  0  0  0  0
    3.2675   -4.3249   -0.0000 C   0  0  0  0  0  0  0  0  0  0  0  0
   -5.4418    1.5209   -0.0000 C   0  0  0  0  0  0  0  0  0  0  0  0
   -4.1348    3.7784   -0.0000 C   0  0  0  0  0  0  0  0  0  0  0  0
   -5.4537    0.0356   -0.0000 N   0  0  0  0  0  0  0  0  0  0  0  0
   -6.7488    2.2813   -0.0000 C   0  0  0  0  0  0  0  0  0  0  0  0
   -5.4418    4.5388   -0.0000 C   0  0  0  0  0  0  0  0  0  0  0  0
   -6.6656   -0.8317   -0.0000 C   0  0  0  0  0  0  0  0  0  0  0  0
   -4.2418   -0.8317   -0.0000 C   0  0  0  0  0  0  0  0  0  0  0  0
   -6.7607    3.8021   -0.0000 C   0  0  0  0  0  0  0  0  0  0  0  0
   -5.4537    6.0478   -0.0000 C   0  0  0  0  0  0  0  0  0  0  0  0
   -6.2141   -2.2456   -0.0000 N   0  0  0  0  0  0  0  0  0  0  0  0
   -4.7170   -2.2456   -0.0000 C   0  0  0  0  0  0  0  0  0  0  0  0
   -6.7607    6.8082   -0.0000 N   0  0  0  0  0  0  0  0  0  0  0  0
   -4.1705    6.8082   -0.0000 C   0  0  0  0  0  0  0  0  0  0  0  0
   -6.7726    8.3172   -0.0000 O   0  0  0  0  0  0  0  0  0  0  0  0
   -8.0795    9.0776   -0.0000 C   0  0  0  0  0  0  0  0  0  0  0  0
  1  2  1  0  0  0  0
  1  3  1  0  0  0  0
  2  4  1  0  0  0  0
  2  5  2  0  0  0  0
  3  6  1  0  0  0  0
  3  7  2  0  0  0  0
  4  8  2  0  0  0  0
  4  9  1  0  0  0  0
  6 10  2  0  0  0  0
  6 11  1  0  0  0  0
  8 12  1  0  0  0  0
  9 13  2  0  0  0  0
 11 14  1  0  0  0  0
 12 15  2  0  0  0  0
 14 16  2  0  0  0  0
 14 17  1  0  0  0  0
 16 18  1  0  0  0  0
 16 19  1  0  0  0  0
 17 20  2  0  0  0  0
 18 21  1  0  0  0  0
 18 22  1  0  0  0  0
 19 23  2  0  0  0  0
 20 24  1  0  0  0  0
 21 25  2  0  0  0  0
 22 26  2  0  0  0  0
 24 27  2  0  0  0  0
 24 28  1  0  0  0  0
 27 29  1  0  0  0  0
 29 30  1  0  0  0  0
  5  7  1  0  0  0  0
 13 15  1  0  0  0  0
 20 23  1  0  0  0  0
 25 26  1  0  0  0  0
M  END
>  <MolRegNo>
1590802

>  <m>
=

>  <Value>
2000

>  <Unit>
nM

>  <Type>
IC50

>  <pValue>
5.7

>  <Ligand Efficiency>
0

>  <Binding Efficiency>
0

>  <Surface Efficiency>
0

>  <Assay Index>
807357

>  <Assay Category>


>  <Assay Organism>
Homo sapiens

>  <Target ID>
17045

>  <Target Name>
Cytochrome P450 3A4

>  <Target Organism>
Homo sapiens

>  <Target Description>
Target is a single protein chain

>  <Sequence Accession>
P08684

>  <Reference>


>  <Pubmed ID>


>  <DOI>
10.6019/CHEMBL2448688

$$$$
1590803
Actelion Java MolfileCreator 1.0

 28 32  0  0  0  0  0  0  0  0999 V2000
    0.0000   -0.0000   -0.0000 S   0  0  0  0  0  0  0  0  0  0  0  0
   -1.3817   -0.6075   -0.0000 C   0  0  0  0  0  0  0  0  0  0  0  0
    1.0005   -1.0958   -0.0000 C   0  0  0  0  0  0  0  0  0  0  0  0
   -1.2268   -2.0845   -0.0000 N   0  0  0  0  0  0  0  0  0  0  0  0
   -2.6919    0.1548   -0.0000 C   0  0  0  0  0  0  0  0  0  0  0  0
    0.2382   -2.3822   -0.0000 C   0  0  0  0  0  0  0  0  0  0  0  0
    2.4775   -1.0839   -0.0000 C   0  0  0  0  0  0  0  0  0  0  0  0
   -2.7038    1.6676   -0.0000 C   0  0  0  0  0  0  0  0  0  0  0  0
   -4.0021   -0.5836   -0.0000 C   0  0  0  0  0  0  0  0  0  0  0  0
    0.9767   -3.6686   -0.0000 C   0  0  0  0  0  0  0  0  0  0  0  0
    3.2160   -2.3584   -0.0000 C   0  0  0  0  0  0  0  0  0  0  0  0
   -4.0260    2.4299   -0.0000 N   0  0  0  0  0  0  0  0  0  0  0  0
   -5.3124    0.1787   -0.0000 C   0  0  0  0  0  0  0  0  0  0  0  0
    2.4656   -3.6567   -0.0000 C   0  0  0  0  0  0  0  0  0  0  0  0
   -5.3243    1.6795   -0.0000 C   0  0  0  0  0  0  0  0  0  0  0  0
   -6.6226   -0.5598   -0.0000 N   0  0  0  0  0  0  0  0  0  0  0  0
   -6.6345   -2.0487   -0.0000 C   0  0  0  0  0  0  0  0  0  0  0  0
   -7.9328    0.2025   -0.0000 C   0  0  0  0  0  0  0  0  0  0  0  0
   -7.9447   -2.7872   -0.0000 O   0  0  0  0  0  0  0  0  0  0  0  0
   -5.3481   -2.7872   -0.0000 C   0  0  0  0  0  0  0  0  0  0  0  0
   -9.2431   -0.5360   -0.0000 C   0  0  0  0  0  0  0  0  0  0  0  0
   -4.6096   -4.0736   -0.0000 C   0  0  0  0  0  0  0  0  0  0  0  0
   -3.8592   -2.7634   -0.0000 C   0  0  0  0  0  0  0  0  0  0  0  0
   -9.2550   -2.0368   -0.0000 C   0  0  0  0  0  0  0  0  0  0  0  0
  -10.5533    0.2263   -0.0000 C   0  0  0  0  0  0  0  0  0  0  0  0
  -10.5771   -2.7753   -0.0000 N   0  0  0  0  0  0  0  0  0  0  0  0
  -11.8635   -0.5122   -0.0000 C   0  0  0  0  0  0  0  0  0  0  0  0
  -11.8873   -2.0130   -0.0000 C   0  0  0  0  0  0  0  0  0  0  0  0
  1  2  1  0  0  0  0
  1  3  1  0  0  0  0
  2  4  2  0  0  0  0
  2  5  1  0  0  0  0
  3  6  2  0  0  0  0
  3  7  1  0  0  0  0
  5  8  2  0  0  0  0
  5  9  1  0  0  0  0
  6 10  1  0  0  0  0
  7 11  2  0  0  0  0
  8 12  1  0  0  0  0
  9 13  2  0  0  0  0
 10 14  2  0  0  0  0
 12 15  2  0  0  0  0
 13 16  1  0  0  0  0
 16 17  1  0  0  0  0
 16 18  1  0  0  0  0
 17 19  2  0  0  0  0
 17 20  1  0  0  0  0
 18 21  1  0  0  0  0
 20 22  1  0  0  0  0
 20 23  1  0  0  0  0
 21 24  2  0  0  0  0
 21 25  1  0  0  0  0
 24 26  1  0  0  0  0
 25 27  2  0  0  0  0
 26 28  2  0  0  0  0
  4  6  1  0  0  0  0
 11 14  1  0  0  0  0
 13 15  1  0  0  0  0
 22 23  1  0  0  0  0
 27 28  1  0  0  0  0
M  END
>  <MolRegNo>
1590803

>  <m>
=

>  <Value>
1120

>  <Unit>
nM

>  <Type>
IC50

>  <pValue>
5.95

>  <Ligand Efficiency>
0

>  <Binding Efficiency>
0

>  <Surface Efficiency>
0

>  <Assay Index>
807357

>  <Assay Category>


>  <Assay Organism>
Homo sapiens

>  <Target ID>
17045

>  <Target Name>
Cytochrome P450 3A4

>  <Target Organism>
Homo sapiens

>  <Target Description>
Target is a single protein chain

>  <Sequence Accession>
P08684

>  <Reference>


>  <Pubmed ID>


>  <DOI>
10.6019/CHEMBL2448688

$$$$
1590804
Actelion Java MolfileCreator 1.0

 30 33  0  0  0  0  0  0  0  0999 V2000
    0.0000   -0.0000   -0.0000 O   0  0  0  0  0  0  0  0  0  0  0  0
    0.7086   -1.3109   -0.0000 C   0  0  0  0  0  0  0  0  0  0  0  0
   -0.0709   -2.5745   -0.0000 N   0  0  0  0  0  0  0  0  0  0  0  0
    2.1966   -1.3345   -0.0000 C   0  0  0  0  0  0  0  0  0  0  0  0
   -1.5825   -2.5273   -0.0000 C   0  0  0  0  0  0  0  0  0  0  0  0
    3.0351   -2.5509   -0.0000 C   0  0  0  0  0  0  0  0  0  0  0  0
    3.0941   -0.1181   -0.0000 C   0  0  0  0  0  0  0  0  0  0  0  0
   -2.3856   -3.8027   -0.0000 C   0  0  0  0  0  0  0  0  0  0  0  0
   -2.3265   -1.1928   -0.0000 C   0  0  0  0  0  0  0  0  0  0  0  0
    4.4641   -2.1021   -0.0000 N   0  0  0  0  0  0  0  0  0  0  0  0
    4.4995   -0.6023   -0.0000 N   0  0  0  0  0  0  0  0  0  0  0  0
   -1.6770   -5.1136   -0.0000 N   0  0  0  0  0  0  0  0  0  0  0  0
   -3.8972   -3.7555   -0.0000 C   0  0  0  0  0  0  0  0  0  0  0  0
   -3.8263   -1.1455   -0.0000 C   0  0  0  0  0  0  0  0  0  0  0  0
    5.7159    0.2598   -0.0000 C   0  0  0  0  0  0  0  0  0  0  0  0
   -0.2008   -5.2907   -0.0000 C   0  0  0  0  0  0  0  0  0  0  0  0
   -2.3265   -6.4481   -0.0000 C   0  0  0  0  0  0  0  0  0  0  0  0
   -4.6294   -2.4210   -0.0000 C   0  0  0  0  0  0  0  0  0  0  0  0
   -4.5585    0.1890   -0.0000 C   0  0  0  0  0  0  0  0  0  0  0  0
    5.5860    1.7596   -0.0000 N   0  0  0  0  0  0  0  0  0  0  0  0
    7.0622   -0.3779   -0.0000 C   0  0  0  0  0  0  0  0  0  0  0  0
    0.0709   -6.7433   -0.0000 N   0  0  0  0  0  0  0  0  0  0  0  0
   -1.2518   -7.4637   -0.0000 C   0  0  0  0  0  0  0  0  0  0  0  0
   -6.0702    0.2362   -0.0000 N   0  0  0  0  0  0  0  0  0  0  0  0
   -3.7791    1.4762   -0.0000 C   0  0  0  0  0  0  0  0  0  0  0  0
    6.7906    2.6218   -0.0000 C   0  0  0  0  0  0  0  0  0  0  0  0
    8.2904    0.4842   -0.0000 C   0  0  0  0  0  0  0  0  0  0  0  0
   -6.7906    1.5707   -0.0000 O   0  0  0  0  0  0  0  0  0  0  0  0
    8.1487    1.9958   -0.0000 C   0  0  0  0  0  0  0  0  0  0  0  0
   -8.3022    1.6179   -0.0000 C   0  0  0  0  0  0  0  0  0  0  0  0
  1  2  2  0  0  0  0
  2  3  1  0  0  0  0
  2  4  1  0  0  0  0
  3  5  1  0  0  0  0
  4  6  1  0  0  0  0
  4  7  2  0  0  0  0
  5  8  2  0  0  0  0
  5  9  1  0  0  0  0
  6 10  2  0  0  0  0
  7 11  1  0  0  0  0
  8 12  1  0  0  0  0
  8 13  1  0  0  0  0
  9 14  2  0  0  0  0
 11 15  1  0  0  0  0
 12 16  1  0  0  0  0
 12 17  1  0  0  0  0
 13 18  2  0  0  0  0
 14 19  1  0  0  0  0
 15 20  2  0  0  0  0
 15 21  1  0  0  0  0
 16 22  2  0  0  0  0
 17 23  2  0  0  0  0
 19 24  2  0  0  0  0
 19 25  1  0  0  0  0
 20 26  1  0  0  0  0
 21 27  2  0  0  0  0
 24 28  1  0  0  0  0
 26 29  2  0  0  0  0
 28 30  1  0  0  0  0
 10 11  1  0  0  0  0
 14 18  1  0  0  0  0
 22 23  1  0  0  0  0
 27 29  1  0  0  0  0
M  END
>  <MolRegNo>
1590804

>  <m>
=

>  <Value>
1400

>  <Unit>
nM

>  <Type>
IC50

>  <pValue>
5.85

>  <Ligand Efficiency>
0

>  <Binding Efficiency>
0

>  <Surface Efficiency>
0

>  <Assay Index>
807357

>  <Assay Category>


>  <Assay Organism>
Homo sapiens

>  <Target ID>
17045

>  <Target Name>
Cytochrome P450 3A4

>  <Target Organism>
Homo sapiens

>  <Target Description>
Target is a single protein chain

>  <Sequence Accession>
P08684

>  <Reference>


>  <Pubmed ID>


>  <DOI>
10.6019/CHEMBL2448688

$$$$
1590805
Actelion Java MolfileCreator 1.0

 26 29  0  0  0  0  0  0  0  0999 V2000
    0.0000   -0.0000   -0.0000 S   0  0  0  0  0  0  0  0  0  0  0  0
   -0.1545   -1.4854   -0.0000 C   0  0  0  0  0  0  0  0  0  0  0  0
    1.4616    0.3327   -0.0000 C   0  0  0  0  0  0  0  0  0  0  0  0
    1.2121   -2.0795   -0.0000 N   0  0  0  0  0  0  0  0  0  0  0  0
   -1.4616   -2.2340   -0.0000 C   0  0  0  0  0  0  0  0  0  0  0  0
    2.1983   -0.9506   -0.0000 C   0  0  0  0  0  0  0  0  0  0  0  0
    2.1865    1.6398   -0.0000 C   0  0  0  0  0  0  0  0  0  0  0  0
   -2.7925   -1.4735   -0.0000 C   0  0  0  0  0  0  0  0  0  0  0  0
   -1.4735   -3.7194   -0.0000 C   0  0  0  0  0  0  0  0  0  0  0  0
    3.6837   -0.9388   -0.0000 C   0  0  0  0  0  0  0  0  0  0  0  0
    3.6718    1.6636   -0.0000 C   0  0  0  0  0  0  0  0  0  0  0  0
   -4.0877   -2.2221   -0.0000 C   0  0  0  0  0  0  0  0  0  0  0  0
   -2.7806   -4.4680   -0.0000 C   0  0  0  0  0  0  0  0  0  0  0  0
    4.4205    0.3803   -0.0000 C   0  0  0  0  0  0  0  0  0  0  0  0
   -4.0877   -3.7075   -0.0000 C   0  0  0  0  0  0  0  0  0  0  0  0
   -5.3949   -4.4442   -0.0000 N   0  0  0  0  0  0  0  0  0  0  0  0
   -5.4067   -5.9296   -0.0000 C   0  0  0  0  0  0  0  0  0  0  0  0
   -6.7139   -3.6837   -0.0000 C   0  0  0  0  0  0  0  0  0  0  0  0
   -6.7139   -6.6782   -0.0000 O   0  0  0  0  0  0  0  0  0  0  0  0
   -4.1115   -6.6663   -0.0000 C   0  0  0  0  0  0  0  0  0  0  0  0
   -8.0210   -4.4323   -0.0000 C   0  0  0  0  0  0  0  0  0  0  0  0
   -8.0329   -5.9296   -0.0000 C   0  0  0  0  0  0  0  0  0  0  0  0
   -9.3400   -3.6718   -0.0000 C   0  0  0  0  0  0  0  0  0  0  0  0
   -9.3519   -6.6663   -0.0000 N   0  0  0  0  0  0  0  0  0  0  0  0
  -10.6471   -4.4086   -0.0000 C   0  0  0  0  0  0  0  0  0  0  0  0
  -10.6590   -5.9058   -0.0000 C   0  0  0  0  0  0  0  0  0  0  0  0
  1  2  1  0  0  0  0
  1  3  1  0  0  0  0
  2  4  2  0  0  0  0
  2  5  1  0  0  0  0
  3  6  2  0  0  0  0
  3  7  1  0  0  0  0
  5  8  2  0  0  0  0
  5  9  1  0  0  0  0
  6 10  1  0  0  0  0
  7 11  2  0  0  0  0
  8 12  1  0  0  0  0
  9 13  2  0  0  0  0
 10 14  2  0  0  0  0
 12 15  2  0  0  0  0
 15 16  1  0  0  0  0
 16 17  1  0  0  0  0
 16 18  1  0  0  0  0
 17 19  2  0  0  0  0
 17 20  1  0  0  0  0
 18 21  1  0  0  0  0
 21 22  2  0  0  0  0
 21 23  1  0  0  0  0
 22 24  1  0  0  0  0
 23 25  2  0  0  0  0
 24 26  2  0  0  0  0
  4  6  1  0  0  0  0
 11 14  1  0  0  0  0
 13 15  1  0  0  0  0
 25 26  1  0  0  0  0
M  END
>  <MolRegNo>
1590805

>  <m>
=

>  <Value>
2900

>  <Unit>
nM

>  <Type>
IC50

>  <pValue>
5.54

>  <Ligand Efficiency>
0

>  <Binding Efficiency>
0

>  <Surface Efficiency>
0

>  <Assay Index>
807357

>  <Assay Category>


>  <Assay Organism>
Homo sapiens

>  <Target ID>
17045

>  <Target Name>
Cytochrome P450 3A4

>  <Target Organism>
Homo sapiens

>  <Target Description>
Target is a single protein chain

>  <Sequence Accession>
P08684

>  <Reference>


>  <Pubmed ID>


>  <DOI>
10.6019/CHEMBL2448688

$$$$
1590806
Actelion Java MolfileCreator 1.0

 28 31  0  0  0  0  0  0  0  0999 V2000
    0.0000   -0.0000   -0.0000 S   0  0  0  0  0  0  0  0  0  0  0  0
    1.4883    0.0238   -0.0000 O   0  0  0  0  0  0  0  0  0  0  0  0
   -1.5121    0.0238   -0.0000 O   0  0  0  0  0  0  0  0  0  0  0  0
   -0.0119    1.5121   -0.0000 N   0  0  0  0  0  0  0  0  0  0  0  0
   -0.0238   -1.4883   -0.0000 C   0  0  0  0  0  0  0  0  0  0  0  0
    1.2739    2.2741   -0.0000 C   0  0  0  0  0  0  0  0  0  0  0  0
   -1.3335    2.2741   -0.0000 C   0  0  0  0  0  0  0  0  0  0  0  0
   -1.3454   -2.2264   -0.0000 C   0  0  0  0  0  0  0  0  0  0  0  0
    1.2501    3.7861   -0.0000 C   0  0  0  0  0  0  0  0  0  0  0  0
    2.5598    1.5359   -0.0000 C   0  0  0  0  0  0  0  0  0  0  0  0
   -2.6431    1.5240   -0.0000 C   0  0  0  0  0  0  0  0  0  0  0  0
    2.5241    4.5600   -0.0000 N   0  0  0  0  0  0  0  0  0  0  0  0
    3.8457    2.3098   -0.0000 C   0  0  0  0  0  0  0  0  0  0  0  0
   -2.6550    0.0238   -0.0000 C   0  0  0  0  0  0  0  0  0  0  0  0
   -3.9647    2.2860   -0.0000 C   0  0  0  0  0  0  0  0  0  0  0  0
    3.8337    3.8218   -0.0000 C   0  0  0  0  0  0  0  0  0  0  0  0
    5.1434    1.5716   -0.0000 C   0  0  0  0  0  0  0  0  0  0  0  0
   -3.9766   -0.7144   -0.0000 N   0  0  0  0  0  0  0  0  0  0  0  0
   -5.2744    1.5478   -0.0000 C   0  0  0  0  0  0  0  0  0  0  0  0
    6.5126    2.2026   -0.0000 S   0  0  0  0  0  0  0  0  0  0  0  0
    5.2982    0.0952   -0.0000 N   0  0  0  0  0  0  0  0  0  0  0  0
   -5.2863    0.0476   -0.0000 C   0  0  0  0  0  0  0  0  0  0  0  0
    7.5127    1.0954   -0.0000 C   0  0  0  0  0  0  0  0  0  0  0  0
    6.7507   -0.2024   -0.0000 C   0  0  0  0  0  0  0  0  0  0  0  0
    8.9891    1.1192   -0.0000 C   0  0  0  0  0  0  0  0  0  0  0  0
    7.4889   -1.4763   -0.0000 C   0  0  0  0  0  0  0  0  0  0  0  0
    9.7391   -0.1548   -0.0000 C   0  0  0  0  0  0  0  0  0  0  0  0
    8.9772   -1.4644   -0.0000 C   0  0  0  0  0  0  0  0  0  0  0  0
  1  2  2  0  0  0  0
  1  3  2  0  0  0  0
  1  4  1  0  0  0  0
  1  5  1  0  0  0  0
  4  6  1  0  0  0  0
  4  7  1  0  0  0  0
  5  8  1  0  0  0  0
  6  9  2  0  0  0  0
  6 10  1  0  0  0  0
  7 11  1  0  0  0  0
  9 12  1  0  0  0  0
 10 13  2  0  0  0  0
 11 14  2  0  0  0  0
 11 15  1  0  0  0  0
 12 16  2  0  0  0  0
 13 17  1  0  0  0  0
 14 18  1  0  0  0  0
 15 19  2  0  0  0  0
 17 20  1  0  0  0  0
 17 21  2  0  0  0  0
 18 22  2  0  0  0  0
 20 23  1  0  0  0  0
 21 24  1  0  0  0  0
 23 25  1  0  0  0  0
 24 26  1  0  0  0  0
 25 27  2  0  0  0  0
 26 28  2  0  0  0  0
 13 16  1  0  0  0  0
 19 22  1  0  0  0  0
 23 24  2  0  0  0  0
 27 28  1  0  0  0  0
M  END
>  <MolRegNo>
1590806

>  <m>
=

>  <Value>
1040

>  <Unit>
nM

>  <Type>
IC50

>  <pValue>
5.98

>  <Ligand Efficiency>
0

>  <Binding Efficiency>
0

>  <Surface Efficiency>
0

>  <Assay Index>
807357

>  <Assay Category>


>  <Assay Organism>
Homo sapiens

>  <Target ID>
17045

>  <Target Name>
Cytochrome P450 3A4

>  <Target Organism>
Homo sapiens

>  <Target Description>
Target is a single protein chain

>  <Sequence Accession>
P08684

>  <Reference>


>  <Pubmed ID>


>  <DOI>
10.6019/CHEMBL2448688

$$$$
1590807
Actelion Java MolfileCreator 1.0

 25 28  0  0  0  0  0  0  0  0999 V2000
    0.0000   -0.0000   -0.0000 S   0  0  0  0  0  0  0  0  0  0  0  0
   -0.4860   -1.4105   -0.0000 C   0  0  0  0  0  0  0  0  0  0  0  0
   -1.2327    0.9008   -0.0000 C   0  0  0  0  0  0  0  0  0  0  0  0
   -1.9912   -1.3986   -0.0000 N   0  0  0  0  0  0  0  0  0  0  0  0
    0.3911   -2.6194   -0.0000 C   0  0  0  0  0  0  0  0  0  0  0  0
   -1.2445    2.4061   -0.0000 C   0  0  0  0  0  0  0  0  0  0  0  0
   -2.4535    0.0237   -0.0000 C   0  0  0  0  0  0  0  0  0  0  0  0
    1.8490   -2.4416   -0.0000 C   0  0  0  0  0  0  0  0  0  0  0  0
   -0.2371   -3.9706   -0.0000 C   0  0  0  0  0  0  0  0  0  0  0  0
    0.0356    3.1647   -0.0000 O   0  0  0  0  0  0  0  0  0  0  0  0
   -2.5602    3.1647   -0.0000 N   0  0  0  0  0  0  0  0  0  0  0  0
    2.7261   -3.6388   -0.0000 C   0  0  0  0  0  0  0  0  0  0  0  0
    0.6282   -5.1678   -0.0000 C   0  0  0  0  0  0  0  0  0  0  0  0
   -2.5720    4.6699   -0.0000 C   0  0  0  0  0  0  0  0  0  0  0  0
    2.1098   -5.0018   -0.0000 C   0  0  0  0  0  0  0  0  0  0  0  0
   -3.8758    5.4285   -0.0000 C   0  0  0  0  0  0  0  0  0  0  0  0
   -1.2801    5.4285   -0.0000 C   0  0  0  0  0  0  0  0  0  0  0  0
   -5.1915    4.6936   -0.0000 N   0  0  0  0  0  0  0  0  0  0  0  0
   -3.8877    6.9457   -0.0000 C   0  0  0  0  0  0  0  0  0  0  0  0
   -1.2919    6.9457   -0.0000 C   0  0  0  0  0  0  0  0  0  0  0  0
   -6.5545    5.3218   -0.0000 C   0  0  0  0  0  0  0  0  0  0  0  0
   -5.3455    3.2121   -0.0000 C   0  0  0  0  0  0  0  0  0  0  0  0
   -2.6076    7.7042   -0.0000 C   0  0  0  0  0  0  0  0  0  0  0  0
   -7.5738    4.2195   -0.0000 N   0  0  0  0  0  0  0  0  0  0  0  0
   -6.8271    2.9158   -0.0000 C   0  0  0  0  0  0  0  0  0  0  0  0
  1  2  1  0  0  0  0
  1  3  1  0  0  0  0
  2  4  2  0  0  0  0
  2  5  1  0  0  0  0
  3  6  1  0  0  0  0
  3  7  2  0  0  0  0
  5  8  2  0  0  0  0
  5  9  1  0  0  0  0
  6 10  2  0  0  0  0
  6 11  1  0  0  0  0
  8 12  1  0  0  0  0
  9 13  2  0  0  0  0
 11 14  1  0  0  0  0
 12 15  2  0  0  0  0
 14 16  2  0  0  0  0
 14 17  1  0  0  0  0
 16 18  1  0  0  0  0
 16 19  1  0  0  0  0
 17 20  2  0  0  0  0
 18 21  1  0  0  0  0
 18 22  1  0  0  0  0
 19 23  2  0  0  0  0
 21 24  2  0  0  0  0
 22 25  2  0  0  0  0
  4  7  1  0  0  0  0
 13 15  1  0  0  0  0
 20 23  1  0  0  0  0
 24 25  1  0  0  0  0
M  END
>  <MolRegNo>
1590807

>  <m>
=

>  <Value>
2000

>  <Unit>
nM

>  <Type>
IC50

>  <pValue>
5.7

>  <Ligand Efficiency>
0

>  <Binding Efficiency>
0

>  <Surface Efficiency>
0

>  <Assay Index>
807357

>  <Assay Category>


>  <Assay Organism>
Homo sapiens

>  <Target ID>
17045

>  <Target Name>
Cytochrome P450 3A4

>  <Target Organism>
Homo sapiens

>  <Target Description>
Target is a single protein chain

>  <Sequence Accession>
P08684

>  <Reference>


>  <Pubmed ID>


>  <DOI>
10.6019/CHEMBL2448688

$$$$
1590810
Actelion Java MolfileCreator 1.0

 26 29  0  0  0  0  0  0  0  0999 V2000
    0.0000   -0.0000   -0.0000 S   0  0  0  0  0  0  0  0  0  0  0  0
   -1.3883   -0.6051   -0.0000 C   0  0  0  0  0  0  0  0  0  0  0  0
    0.9967   -1.1035   -0.0000 C   0  0  0  0  0  0  0  0  0  0  0  0
   -1.2459   -2.0765   -0.0000 N   0  0  0  0  0  0  0  0  0  0  0  0
   -2.7053    0.1543   -0.0000 C   0  0  0  0  0  0  0  0  0  0  0  0
    0.2373   -2.3850   -0.0000 C   0  0  0  0  0  0  0  0  0  0  0  0
    2.4680   -1.0798   -0.0000 C   0  0  0  0  0  0  0  0  0  0  0  0
   -2.7172    1.6730   -0.0000 C   0  0  0  0  0  0  0  0  0  0  0  0
   -4.0224   -0.5814   -0.0000 C   0  0  0  0  0  0  0  0  0  0  0  0
    0.9730   -3.6665   -0.0000 C   0  0  0  0  0  0  0  0  0  0  0  0
    3.2037   -2.3612   -0.0000 C   0  0  0  0  0  0  0  0  0  0  0  0
   -4.0343    2.4324   -0.0000 C   0  0  0  0  0  0  0  0  0  0  0  0
   -5.3276    0.1780   -0.0000 C   0  0  0  0  0  0  0  0  0  0  0  0
    2.4562   -3.6546   -0.0000 C   0  0  0  0  0  0  0  0  0  0  0  0
   -4.0580    3.9394   -0.0000 F   0  0  0  0  0  0  0  0  0  0  0  0
   -5.3395    1.6968   -0.0000 C   0  0  0  0  0  0  0  0  0  0  0  0
   -6.6447   -0.5577   -0.0000 N   0  0  0  0  0  0  0  0  0  0  0  0
   -7.9499    0.2017   -0.0000 C   0  0  0  0  0  0  0  0  0  0  0  0
   -6.6566   -2.0409   -0.0000 C   0  0  0  0  0  0  0  0  0  0  0  0
   -9.2670   -0.5340   -0.0000 C   0  0  0  0  0  0  0  0  0  0  0  0
   -5.3632   -2.7765   -0.0000 C   0  0  0  0  0  0  0  0  0  0  0  0
   -9.2670   -2.0171   -0.0000 C   0  0  0  0  0  0  0  0  0  0  0  0
  -10.5722    0.2373   -0.0000 C   0  0  0  0  0  0  0  0  0  0  0  0
  -10.5722   -2.7528   -0.0000 N   0  0  0  0  0  0  0  0  0  0  0  0
  -11.8774   -0.4984   -0.0000 C   0  0  0  0  0  0  0  0  0  0  0  0
  -11.8893   -1.9934   -0.0000 C   0  0  0  0  0  0  0  0  0  0  0  0
  1  2  1  0  0  0  0
  1  3  1  0  0  0  0
  2  4  2  0  0  0  0
  2  5  1  0  0  0  0
  3  6  2  0  0  0  0
  3  7  1  0  0  0  0
  5  8  2  0  0  0  0
  5  9  1  0  0  0  0
  6 10  1  0  0  0  0
  7 11  2  0  0  0  0
  8 12  1  0  0  0  0
  9 13  2  0  0  0  0
 10 14  2  0  0  0  0
 12 15  1  0  0  0  0
 12 16  2  0  0  0  0
 13 17  1  0  0  0  0
 17 18  1  0  0  0  0
 17 19  1  0  0  0  0
 18 20  1  0  0  0  0
 19 21  1  0  0  0  0
 20 22  2  0  0  0  0
 20 23  1  0  0  0  0
 22 24  1  0  0  0  0
 23 25  2  0  0  0  0
 24 26  2  0  0  0  0
  4  6  1  0  0  0  0
 11 14  1  0  0  0  0
 13 16  1  0  0  0  0
 25 26  1  0  0  0  0
M  END
>  <MolRegNo>
1590810

>  <m>
=

>  <Value>
775

>  <Unit>
nM

>  <Type>
IC50

>  <pValue>
6.11

>  <Ligand Efficiency>
0

>  <Binding Efficiency>
0

>  <Surface Efficiency>
0

>  <Assay Index>
807357

>  <Assay Category>


>  <Assay Organism>
Homo sapiens

>  <Target ID>
17045

>  <Target Name>
Cytochrome P450 3A4

>  <Target Organism>
Homo sapiens

>  <Target Description>
Target is a single protein chain

>  <Sequence Accession>
P08684

>  <Reference>


>  <Pubmed ID>


>  <DOI>
10.6019/CHEMBL2448688

$$$$
1590811
Actelion Java MolfileCreator 1.0

 29 33  0  0  0  0  0  0  0  0999 V2000
    0.0000   -0.0000   -0.0000 S   0  0  0  0  0  0  0  0  0  0  0  0
   -1.3905   -0.6061   -0.0000 C   0  0  0  0  0  0  0  0  0  0  0  0
    0.9983   -1.1052   -0.0000 C   0  0  0  0  0  0  0  0  0  0  0  0
   -1.2478   -2.0797   -0.0000 N   0  0  0  0  0  0  0  0  0  0  0  0
   -2.7096    0.1545   -0.0000 C   0  0  0  0  0  0  0  0  0  0  0  0
    0.2377   -2.3887   -0.0000 C   0  0  0  0  0  0  0  0  0  0  0  0
    2.4719   -1.0815   -0.0000 C   0  0  0  0  0  0  0  0  0  0  0  0
   -2.7215    1.6757   -0.0000 C   0  0  0  0  0  0  0  0  0  0  0  0
   -4.0288   -0.5823   -0.0000 C   0  0  0  0  0  0  0  0  0  0  0  0
    0.9745   -3.6604   -0.0000 C   0  0  0  0  0  0  0  0  0  0  0  0
    3.2087   -2.3531   -0.0000 C   0  0  0  0  0  0  0  0  0  0  0  0
   -4.0406    2.4363   -0.0000 C   0  0  0  0  0  0  0  0  0  0  0  0
   -5.3360    0.1783   -0.0000 C   0  0  0  0  0  0  0  0  0  0  0  0
    2.4600   -3.6485   -0.0000 C   0  0  0  0  0  0  0  0  0  0  0  0
   -4.0644    3.9456   -0.0000 F   0  0  0  0  0  0  0  0  0  0  0  0
   -5.3479    1.6994   -0.0000 C   0  0  0  0  0  0  0  0  0  0  0  0
   -6.6552   -0.5586   -0.0000 N   0  0  0  0  0  0  0  0  0  0  0  0
   -6.6671   -2.0441   -0.0000 C   0  0  0  0  0  0  0  0  0  0  0  0
   -7.9625    0.2020   -0.0000 C   0  0  0  0  0  0  0  0  0  0  0  0
   -7.9743   -2.7809   -0.0000 O   0  0  0  0  0  0  0  0  0  0  0  0
   -5.3717   -2.7809   -0.0000 C   0  0  0  0  0  0  0  0  0  0  0  0
   -9.2816   -0.5348   -0.0000 C   0  0  0  0  0  0  0  0  0  0  0  0
   -4.6349   -4.0644   -0.0000 C   0  0  0  0  0  0  0  0  0  0  0  0
   -3.8862   -2.7690   -0.0000 C   0  0  0  0  0  0  0  0  0  0  0  0
   -9.2935   -2.0203   -0.0000 C   0  0  0  0  0  0  0  0  0  0  0  0
  -10.5889    0.2377   -0.0000 C   0  0  0  0  0  0  0  0  0  0  0  0
  -10.5889   -2.7571   -0.0000 N   0  0  0  0  0  0  0  0  0  0  0  0
  -11.8961   -0.4991   -0.0000 C   0  0  0  0  0  0  0  0  0  0  0  0
  -11.9080   -1.9966   -0.0000 C   0  0  0  0  0  0  0  0  0  0  0  0
  1  2  1  0  0  0  0
  1  3  1  0  0  0  0
  2  4  2  0  0  0  0
  2  5  1  0  0  0  0
  3  6  2  0  0  0  0
  3  7  1  0  0  0  0
  5  8  2  0  0  0  0
  5  9  1  0  0  0  0
  6 10  1  0  0  0  0
  7 11  2  0  0  0  0
  8 12  1  0  0  0  0
  9 13  2  0  0  0  0
 10 14  2  0  0  0  0
 12 15  1  0  0  0  0
 12 16  2  0  0  0  0
 13 17  1  0  0  0  0
 17 18  1  0  0  0  0
 17 19  1  0  0  0  0
 18 20  2  0  0  0  0
 18 21  1  0  0  0  0
 19 22  1  0  0  0  0
 21 23  1  0  0  0  0
 21 24  1  0  0  0  0
 22 25  2  0  0  0  0
 22 26  1  0  0  0  0
 25 27  1  0  0  0  0
 26 28  2  0  0  0  0
 27 29  2  0  0  0  0
  4  6  1  0  0  0  0
 11 14  1  0  0  0  0
 13 16  1  0  0  0  0
 23 24  1  0  0  0  0
 28 29  1  0  0  0  0
M  END
>  <MolRegNo>
1590811

>  <m>
=

>  <Value>
1110

>  <Unit>
nM

>  <Type>
IC50

>  <pValue>
5.96

>  <Ligand Efficiency>
0

>  <Binding Efficiency>
0

>  <Surface Efficiency>
0

>  <Assay Index>
807357

>  <Assay Category>


>  <Assay Organism>
Homo sapiens

>  <Target ID>
17045

>  <Target Name>
Cytochrome P450 3A4

>  <Target Organism>
Homo sapiens

>  <Target Description>
Target is a single protein chain

>  <Sequence Accession>
P08684

>  <Reference>


>  <Pubmed ID>


>  <DOI>
10.6019/CHEMBL2448688

$$$$
1590816
Actelion Java MolfileCreator 1.0

 24 26  0  0  0  0  0  0  0  0999 V2000
    0.0000   -0.0000   -0.0000 F   0  0  0  0  0  0  0  0  0  0  0  0
    1.2972   -0.7378   -0.0000 C   0  0  0  0  0  0  0  0  0  0  0  0
    1.2972   -2.2254   -0.0000 C   0  0  0  0  0  0  0  0  0  0  0  0
    2.5824    0.0357   -0.0000 C   0  0  0  0  0  0  0  0  0  0  0  0
   -0.0119   -2.9632   -0.0000 N   0  0  0  0  0  0  0  0  0  0  0  0
    2.5824   -2.9632   -0.0000 C   0  0  0  0  0  0  0  0  0  0  0  0
    3.8796   -0.7021   -0.0000 C   0  0  0  0  0  0  0  0  0  0  0  0
   -1.3329   -2.2016   -0.0000 C   0  0  0  0  0  0  0  0  0  0  0  0
   -0.0238   -4.4508   -0.0000 C   0  0  0  0  0  0  0  0  0  0  0  0
    3.8677   -2.1897   -0.0000 C   0  0  0  0  0  0  0  0  0  0  0  0
    5.1529    0.0714   -0.0000 C   0  0  0  0  0  0  0  0  0  0  0  0
   -2.6419   -2.9513   -0.0000 C   0  0  0  0  0  0  0  0  0  0  0  0
    1.2734   -5.1886   -0.0000 C   0  0  0  0  0  0  0  0  0  0  0  0
    6.4501   -0.6664   -0.0000 C   0  0  0  0  0  0  0  0  0  0  0  0
    5.1291    1.5828   -0.0000 C   0  0  0  0  0  0  0  0  0  0  0  0
   -2.6538   -4.4508   -0.0000 C   0  0  0  0  0  0  0  0  0  0  0  0
   -3.9629   -2.1897   -0.0000 C   0  0  0  0  0  0  0  0  0  0  0  0
    7.7354    0.1071   -0.0000 C   0  0  0  0  0  0  0  0  0  0  0  0
    6.4025    2.3563   -0.0000 C   0  0  0  0  0  0  0  0  0  0  0  0
   -3.9748   -5.1886   -0.0000 N   0  0  0  0  0  0  0  0  0  0  0  0
   -5.2720   -2.9275   -0.0000 C   0  0  0  0  0  0  0  0  0  0  0  0
    7.7116    1.6185   -0.0000 C   0  0  0  0  0  0  0  0  0  0  0  0
   -5.2839   -4.4270   -0.0000 C   0  0  0  0  0  0  0  0  0  0  0  0
    8.9849    2.3920   -0.0000 F   0  0  0  0  0  0  0  0  0  0  0  0
  1  2  1  0  0  0  0
  2  3  2  0  0  0  0
  2  4  1  0  0  0  0
  3  5  1  0  0  0  0
  3  6  1  0  0  0  0
  4  7  2  0  0  0  0
  5  8  1  0  0  0  0
  5  9  1  0  0  0  0
  6 10  2  0  0  0  0
  7 11  1  0  0  0  0
  8 12  1  0  0  0  0
  9 13  1  0  0  0  0
 11 14  2  0  0  0  0
 11 15  1  0  0  0  0
 12 16  2  0  0  0  0
 12 17  1  0  0  0  0
 14 18  1  0  0  0  0
 15 19  2  0  0  0  0
 16 20  1  0  0  0  0
 17 21  2  0  0  0  0
 18 22  2  0  0  0  0
 20 23  2  0  0  0  0
 22 24  1  0  0  0  0
  7 10  1  0  0  0  0
 19 22  1  0  0  0  0
 21 23  1  0  0  0  0
M  END
>  <MolRegNo>
1590816

>  <m>
=

>  <Value>
1000

>  <Unit>
nM

>  <Type>
IC50

>  <pValue>
6

>  <Ligand Efficiency>
0

>  <Binding Efficiency>
0

>  <Surface Efficiency>
0

>  <Assay Index>
807357

>  <Assay Category>


>  <Assay Organism>
Homo sapiens

>  <Target ID>
17045

>  <Target Name>
Cytochrome P450 3A4

>  <Target Organism>
Homo sapiens

>  <Target Description>
Target is a single protein chain

>  <Sequence Accession>
P08684

>  <Reference>


>  <Pubmed ID>


>  <DOI>
10.6019/CHEMBL2448688

$$$$
1590817
Actelion Java MolfileCreator 1.0

 25 27  0  0  0  0  0  0  0  0999 V2000
    0.0000   -0.0000   -0.0000 F   0  0  0  0  0  0  0  0  0  0  0  0
    1.2969   -0.7377   -0.0000 C   0  0  0  0  0  0  0  0  0  0  0  0
    1.2969   -2.2249   -0.0000 C   0  0  0  0  0  0  0  0  0  0  0  0
    2.5700    0.0357   -0.0000 C   0  0  0  0  0  0  0  0  0  0  0  0
   -0.0119   -2.9626   -0.0000 N   0  0  0  0  0  0  0  0  0  0  0  0
    2.5819   -2.9626   -0.0000 C   0  0  0  0  0  0  0  0  0  0  0  0
    3.8788   -0.7020   -0.0000 C   0  0  0  0  0  0  0  0  0  0  0  0
   -0.0238   -4.4499   -0.0000 C   0  0  0  0  0  0  0  0  0  0  0  0
   -1.3326   -2.2011   -0.0000 C   0  0  0  0  0  0  0  0  0  0  0  0
    3.8669   -2.1892   -0.0000 C   0  0  0  0  0  0  0  0  0  0  0  0
    5.1518    0.0714   -0.0000 C   0  0  0  0  0  0  0  0  0  0  0  0
   -1.3326   -5.1994   -0.0000 O   0  0  0  0  0  0  0  0  0  0  0  0
    1.2731   -5.1875   -0.0000 C   0  0  0  0  0  0  0  0  0  0  0  0
   -2.6414   -2.9507   -0.0000 C   0  0  0  0  0  0  0  0  0  0  0  0
    5.1280    1.5824   -0.0000 C   0  0  0  0  0  0  0  0  0  0  0  0
    6.4487   -0.6663   -0.0000 C   0  0  0  0  0  0  0  0  0  0  0  0
   -2.6533   -4.4499   -0.0000 C   0  0  0  0  0  0  0  0  0  0  0  0
   -3.9620   -2.1892   -0.0000 C   0  0  0  0  0  0  0  0  0  0  0  0
    6.4011    2.3558   -0.0000 C   0  0  0  0  0  0  0  0  0  0  0  0
    7.7337    0.1071   -0.0000 C   0  0  0  0  0  0  0  0  0  0  0  0
   -3.9739   -5.1875   -0.0000 N   0  0  0  0  0  0  0  0  0  0  0  0
   -5.2708   -2.9269   -0.0000 C   0  0  0  0  0  0  0  0  0  0  0  0
    7.7099    1.6181   -0.0000 C   0  0  0  0  0  0  0  0  0  0  0  0
   -5.2827   -4.4261   -0.0000 C   0  0  0  0  0  0  0  0  0  0  0  0
    8.9830    2.3915   -0.0000 F   0  0  0  0  0  0  0  0  0  0  0  0
  1  2  1  0  0  0  0
  2  3  2  0  0  0  0
  2  4  1  0  0  0  0
  3  5  1  0  0  0  0
  3  6  1  0  0  0  0
  4  7  2  0  0  0  0
  5  8  1  0  0  0  0
  5  9  1  0  0  0  0
  6 10  2  0  0  0  0
  7 11  1  0  0  0  0
  8 12  2  0  0  0  0
  8 13  1  0  0  0  0
  9 14  1  0  0  0  0
 11 15  2  0  0  0  0
 11 16  1  0  0  0  0
 14 17  2  0  0  0  0
 14 18  1  0  0  0  0
 15 19  1  0  0  0  0
 16 20  2  0  0  0  0
 17 21  1  0  0  0  0
 18 22  2  0  0  0  0
 19 23  2  0  0  0  0
 21 24  2  0  0  0  0
 23 25  1  0  0  0  0
  7 10  1  0  0  0  0
 20 23  1  0  0  0  0
 22 24  1  0  0  0  0
M  END
>  <MolRegNo>
1590817

>  <m>
=

>  <Value>
470

>  <Unit>
nM

>  <Type>
IC50

>  <pValue>
6.33

>  <Ligand Efficiency>
0

>  <Binding Efficiency>
0

>  <Surface Efficiency>
0

>  <Assay Index>
807357

>  <Assay Category>


>  <Assay Organism>
Homo sapiens

>  <Target ID>
17045

>  <Target Name>
Cytochrome P450 3A4

>  <Target Organism>
Homo sapiens

>  <Target Description>
Target is a single protein chain

>  <Sequence Accession>
P08684

>  <Reference>


>  <Pubmed ID>


>  <DOI>
10.6019/CHEMBL2448688

$$$$
1590818
Actelion Java MolfileCreator 1.0

 26 29  0  0  0  0  0  0  0  0999 V2000
    0.0000   -0.0000   -0.0000 S   0  0  0  0  0  0  0  0  0  0  0  0
   -1.5184    0.0237   -0.0000 O   0  0  0  0  0  0  0  0  0  0  0  0
    1.4828    0.0119   -0.0000 O   0  0  0  0  0  0  0  0  0  0  0  0
   -0.0119    1.5066   -0.0000 N   0  0  0  0  0  0  0  0  0  0  0  0
   -0.0237   -1.4828   -0.0000 C   0  0  0  0  0  0  0  0  0  0  0  0
    1.2812    2.2658   -0.0000 C   0  0  0  0  0  0  0  0  0  0  0  0
   -1.3168    2.2658   -0.0000 C   0  0  0  0  0  0  0  0  0  0  0  0
    1.2693    3.7723   -0.0000 C   0  0  0  0  0  0  0  0  0  0  0  0
    2.5623    1.5303   -0.0000 C   0  0  0  0  0  0  0  0  0  0  0  0
   -1.3286    3.7723   -0.0000 C   0  0  0  0  0  0  0  0  0  0  0  0
    2.5505    4.5434   -0.0000 C   0  0  0  0  0  0  0  0  0  0  0  0
    3.8554    2.2895   -0.0000 C   0  0  0  0  0  0  0  0  0  0  0  0
   -2.5623    4.6739   -0.0000 N   0  0  0  0  0  0  0  0  0  0  0  0
   -0.1305    4.6620   -0.0000 C   0  0  0  0  0  0  0  0  0  0  0  0
    3.8435    3.8079   -0.0000 C   0  0  0  0  0  0  0  0  0  0  0  0
   -2.0997    6.1093   -0.0000 C   0  0  0  0  0  0  0  0  0  0  0  0
   -0.6050    6.1093   -0.0000 N   0  0  0  0  0  0  0  0  0  0  0  0
    5.1247    4.5790   -0.0000 C   0  0  0  0  0  0  0  0  0  0  0  0
    6.4889    3.9740   -0.0000 S   0  0  0  0  0  0  0  0  0  0  0  0
    5.2552    6.0737   -0.0000 N   0  0  0  0  0  0  0  0  0  0  0  0
    7.4735    5.1009   -0.0000 C   0  0  0  0  0  0  0  0  0  0  0  0
    6.7143    6.4058   -0.0000 C   0  0  0  0  0  0  0  0  0  0  0  0
    8.9563    5.1247   -0.0000 C   0  0  0  0  0  0  0  0  0  0  0  0
    7.4379    7.7107   -0.0000 C   0  0  0  0  0  0  0  0  0  0  0  0
    9.6918    6.4296   -0.0000 C   0  0  0  0  0  0  0  0  0  0  0  0
    8.9207    7.7344   -0.0000 C   0  0  0  0  0  0  0  0  0  0  0  0
  1  2  2  0  0  0  0
  1  3  2  0  0  0  0
  1  4  1  0  0  0  0
  1  5  1  0  0  0  0
  4  6  1  0  0  0  0
  4  7  1  0  0  0  0
  6  8  2  0  0  0  0
  6  9  1  0  0  0  0
  7 10  1  0  0  0  0
  8 11  1  0  0  0  0
  9 12  2  0  0  0  0
 10 13  1  0  0  0  0
 10 14  2  0  0  0  0
 11 15  2  0  0  0  0
 13 16  1  0  0  0  0
 14 17  1  0  0  0  0
 15 18  1  0  0  0  0
 18 19  1  0  0  0  0
 18 20  2  0  0  0  0
 19 21  1  0  0  0  0
 20 22  1  0  0  0  0
 21 23  1  0  0  0  0
 22 24  1  0  0  0  0
 23 25  2  0  0  0  0
 24 26  2  0  0  0  0
 12 15  1  0  0  0  0
 16 17  2  0  0  0  0
 21 22  2  0  0  0  0
 25 26  1  0  0  0  0
M  END
>  <MolRegNo>
1590818

>  <m>
=

>  <Value>
1500

>  <Unit>
nM

>  <Type>
IC50

>  <pValue>
5.82

>  <Ligand Efficiency>
0

>  <Binding Efficiency>
0

>  <Surface Efficiency>
0

>  <Assay Index>
807357

>  <Assay Category>


>  <Assay Organism>
Homo sapiens

>  <Target ID>
17045

>  <Target Name>
Cytochrome P450 3A4

>  <Target Organism>
Homo sapiens

>  <Target Description>
Target is a single protein chain

>  <Sequence Accession>
P08684

>  <Reference>


>  <Pubmed ID>


>  <DOI>
10.6019/CHEMBL2448688

$$$$
1590819
Actelion Java MolfileCreator 1.0

 30 33  0  0  0  0  0  0  0  0999 V2000
    0.0000   -0.0000   -0.0000 S   0  0  0  0  0  0  0  0  0  0  0  0
    0.4507   -1.4113   -0.0000 C   0  0  0  0  0  0  0  0  0  0  0  0
    1.1979    0.9014   -0.0000 C   0  0  0  0  0  0  0  0  0  0  0  0
    1.9332   -1.3995   -0.0000 N   0  0  0  0  0  0  0  0  0  0  0  0
   -0.4270   -2.6092   -0.0000 C   0  0  0  0  0  0  0  0  0  0  0  0
    1.1860    2.4076   -0.0000 C   0  0  0  0  0  0  0  0  0  0  0  0
    2.4076    0.0237   -0.0000 C   0  0  0  0  0  0  0  0  0  0  0  0
   -1.9332   -2.4431   -0.0000 N   0  0  0  0  0  0  0  0  0  0  0  0
    0.1660   -3.9612   -0.0000 C   0  0  0  0  0  0  0  0  0  0  0  0
    2.4669    3.1666   -0.0000 O   0  0  0  0  0  0  0  0  0  0  0  0
   -0.1305    3.1666   -0.0000 N   0  0  0  0  0  0  0  0  0  0  0  0
   -2.8227   -3.6410   -0.0000 C   0  0  0  0  0  0  0  0  0  0  0  0
   -0.7116   -5.1591   -0.0000 C   0  0  0  0  0  0  0  0  0  0  0  0
   -0.1423    4.6728   -0.0000 C   0  0  0  0  0  0  0  0  0  0  0  0
   -2.2297   -5.0049   -0.0000 C   0  0  0  0  0  0  0  0  0  0  0  0
   -1.4469    5.4318   -0.0000 C   0  0  0  0  0  0  0  0  0  0  0  0
    1.1504    5.4318   -0.0000 C   0  0  0  0  0  0  0  0  0  0  0  0
   -2.7515    4.6847   -0.0000 N   0  0  0  0  0  0  0  0  0  0  0  0
   -1.4588    6.9499   -0.0000 C   0  0  0  0  0  0  0  0  0  0  0  0
    1.1386    6.9499   -0.0000 C   0  0  0  0  0  0  0  0  0  0  0  0
   -4.1272    5.3132   -0.0000 C   0  0  0  0  0  0  0  0  0  0  0  0
   -2.9175    3.2022   -0.0000 C   0  0  0  0  0  0  0  0  0  0  0  0
   -0.1779    7.7089   -0.0000 C   0  0  0  0  0  0  0  0  0  0  0  0
    2.4194    7.7208   -0.0000 C   0  0  0  0  0  0  0  0  0  0  0  0
   -5.1353    4.2103   -0.0000 N   0  0  0  0  0  0  0  0  0  0  0  0
   -4.4000    2.9057   -0.0000 C   0  0  0  0  0  0  0  0  0  0  0  0
    2.3957    9.2270   -0.0000 N   0  0  0  0  0  0  0  0  0  0  0  0
    3.7122    6.9855   -0.0000 C   0  0  0  0  0  0  0  0  0  0  0  0
    3.6766    9.9979   -0.0000 O   0  0  0  0  0  0  0  0  0  0  0  0
    3.6529   11.5041   -0.0000 C   0  0  0  0  0  0  0  0  0  0  0  0
  1  2  1  0  0  0  0
  1  3  1  0  0  0  0
  2  4  2  0  0  0  0
  2  5  1  0  0  0  0
  3  6  1  0  0  0  0
  3  7  2  0  0  0  0
  5  8  2  0  0  0  0
  5  9  1  0  0  0  0
  6 10  2  0  0  0  0
  6 11  1  0  0  0  0
  8 12  1  0  0  0  0
  9 13  2  0  0  0  0
 11 14  1  0  0  0  0
 12 15  2  0  0  0  0
 14 16  2  0  0  0  0
 14 17  1  0  0  0  0
 16 18  1  0  0  0  0
 16 19  1  0  0  0  0
 17 20  2  0  0  0  0
 18 21  1  0  0  0  0
 18 22  1  0  0  0  0
 19 23  2  0  0  0  0
 20 24  1  0  0  0  0
 21 25  2  0  0  0  0
 22 26  2  0  0  0  0
 24 27  2  0  0  0  0
 24 28  1  0  0  0  0
 27 29  1  0  0  0  0
 29 30  1  0  0  0  0
  4  7  1  0  0  0  0
 13 15  1  0  0  0  0
 20 23  1  0  0  0  0
 25 26  1  0  0  0  0
M  END
>  <MolRegNo>
1590819

>  <m>
=

>  <Value>
3000

>  <Unit>
nM

>  <Type>
IC50

>  <pValue>
5.52

>  <Ligand Efficiency>
0

>  <Binding Efficiency>
0

>  <Surface Efficiency>
0

>  <Assay Index>
807357

>  <Assay Category>


>  <Assay Organism>
Homo sapiens

>  <Target ID>
17045

>  <Target Name>
Cytochrome P450 3A4

>  <Target Organism>
Homo sapiens

>  <Target Description>
Target is a single protein chain

>  <Sequence Accession>
P08684

>  <Reference>


>  <Pubmed ID>


>  <DOI>
10.6019/CHEMBL2448688

$$$$
1590823
Actelion Java MolfileCreator 1.0

 24 27  0  0  0  0  0  0  0  0999 V2000
    0.0000   -0.0000   -0.0000 S   0  0  0  0  0  0  0  0  0  0  0  0
   -0.1663   -1.4850   -0.0000 C   0  0  0  0  0  0  0  0  0  0  0  0
    1.4494    0.3327   -0.0000 C   0  0  0  0  0  0  0  0  0  0  0  0
    1.1999   -2.0672   -0.0000 N   0  0  0  0  0  0  0  0  0  0  0  0
   -1.4732   -2.2335   -0.0000 C   0  0  0  0  0  0  0  0  0  0  0  0
    2.1860   -0.9623   -0.0000 C   0  0  0  0  0  0  0  0  0  0  0  0
    2.1860    1.6276   -0.0000 C   0  0  0  0  0  0  0  0  0  0  0  0
   -1.4850   -3.7304   -0.0000 C   0  0  0  0  0  0  0  0  0  0  0  0
   -2.7919   -1.4732   -0.0000 C   0  0  0  0  0  0  0  0  0  0  0  0
    3.6710   -0.9504   -0.0000 C   0  0  0  0  0  0  0  0  0  0  0  0
    3.6710    1.6514   -0.0000 C   0  0  0  0  0  0  0  0  0  0  0  0
   -2.8038   -4.4670   -0.0000 C   0  0  0  0  0  0  0  0  0  0  0  0
   -4.0987   -2.2216   -0.0000 C   0  0  0  0  0  0  0  0  0  0  0  0
    4.4076    0.3564   -0.0000 C   0  0  0  0  0  0  0  0  0  0  0  0
   -4.1106   -3.7067   -0.0000 C   0  0  0  0  0  0  0  0  0  0  0  0
   -5.4293   -4.4433   -0.0000 N   0  0  0  0  0  0  0  0  0  0  0  0
   -6.7362   -3.6829   -0.0000 C   0  0  0  0  0  0  0  0  0  0  0  0
   -5.4412   -5.9283   -0.0000 C   0  0  0  0  0  0  0  0  0  0  0  0
   -6.7481   -2.1741   -0.0000 C   0  0  0  0  0  0  0  0  0  0  0  0
   -6.7481   -6.6649   -0.0000 C   0  0  0  0  0  0  0  0  0  0  0  0
   -7.9836   -1.2712   -0.0000 N   0  0  0  0  0  0  0  0  0  0  0  0
   -5.5481   -1.2831   -0.0000 C   0  0  0  0  0  0  0  0  0  0  0  0
   -7.5203    0.1663   -0.0000 C   0  0  0  0  0  0  0  0  0  0  0  0
   -6.0234    0.1663   -0.0000 N   0  0  0  0  0  0  0  0  0  0  0  0
  1  2  1  0  0  0  0
  1  3  1  0  0  0  0
  2  4  2  0  0  0  0
  2  5  1  0  0  0  0
  3  6  2  0  0  0  0
  3  7  1  0  0  0  0
  5  8  2  0  0  0  0
  5  9  1  0  0  0  0
  6 10  1  0  0  0  0
  7 11  2  0  0  0  0
  8 12  1  0  0  0  0
  9 13  2  0  0  0  0
 10 14  2  0  0  0  0
 12 15  2  0  0  0  0
 15 16  1  0  0  0  0
 16 17  1  0  0  0  0
 16 18  1  0  0  0  0
 17 19  1  0  0  0  0
 18 20  1  0  0  0  0
 19 21  1  0  0  0  0
 19 22  2  0  0  0  0
 21 23  2  0  0  0  0
 22 24  1  0  0  0  0
  4  6  1  0  0  0  0
 11 14  1  0  0  0  0
 13 15  1  0  0  0  0
 23 24  1  0  0  0  0
M  END
>  <MolRegNo>
1590823

>  <m>
=

>  <Value>
4000

>  <Unit>
nM

>  <Type>
IC50

>  <pValue>
5.4

>  <Ligand Efficiency>
0

>  <Binding Efficiency>
0

>  <Surface Efficiency>
0

>  <Assay Index>
807357

>  <Assay Category>


>  <Assay Organism>
Homo sapiens

>  <Target ID>
17045

>  <Target Name>
Cytochrome P450 3A4

>  <Target Organism>
Homo sapiens

>  <Target Description>
Target is a single protein chain

>  <Sequence Accession>
P08684

>  <Reference>


>  <Pubmed ID>


>  <DOI>
10.6019/CHEMBL2448688

$$$$
1590824
Actelion Java MolfileCreator 1.0

 26 28  0  0  0  0  0  0  0  0999 V2000
    0.0000   -0.0000   -0.0000 S   0  0  0  0  0  0  0  0  0  0  0  0
   -1.5198    0.0237   -0.0000 O   0  0  0  0  0  0  0  0  0  0  0  0
    1.4842    0.0119   -0.0000 O   0  0  0  0  0  0  0  0  0  0  0  0
   -0.0119    1.5079   -0.0000 N   0  0  0  0  0  0  0  0  0  0  0  0
   -0.0237   -1.4842   -0.0000 C   0  0  0  0  0  0  0  0  0  0  0  0
    1.2705    2.2678   -0.0000 C   0  0  0  0  0  0  0  0  0  0  0  0
   -1.3298    2.2678   -0.0000 C   0  0  0  0  0  0  0  0  0  0  0  0
    1.2467    3.7758   -0.0000 C   0  0  0  0  0  0  0  0  0  0  0  0
    2.5528    1.5317   -0.0000 C   0  0  0  0  0  0  0  0  0  0  0  0
   -2.6359    1.5198   -0.0000 C   0  0  0  0  0  0  0  0  0  0  0  0
   -0.0712    4.5357   -0.0000 F   0  0  0  0  0  0  0  0  0  0  0  0
    2.5290    4.5475   -0.0000 C   0  0  0  0  0  0  0  0  0  0  0  0
    3.8351    2.3034   -0.0000 C   0  0  0  0  0  0  0  0  0  0  0  0
   -2.6478    0.0237   -0.0000 C   0  0  0  0  0  0  0  0  0  0  0  0
   -3.9539    2.2797   -0.0000 C   0  0  0  0  0  0  0  0  0  0  0  0
    3.8232    3.8114   -0.0000 C   0  0  0  0  0  0  0  0  0  0  0  0
   -3.9657   -0.7124   -0.0000 N   0  0  0  0  0  0  0  0  0  0  0  0
   -5.2599    1.5317   -0.0000 C   0  0  0  0  0  0  0  0  0  0  0  0
    5.1056    4.5831   -0.0000 C   0  0  0  0  0  0  0  0  0  0  0  0
   -5.2718    0.0475   -0.0000 C   0  0  0  0  0  0  0  0  0  0  0  0
    6.3879    3.8470   -0.0000 C   0  0  0  0  0  0  0  0  0  0  0  0
    5.0700    6.0911   -0.0000 C   0  0  0  0  0  0  0  0  0  0  0  0
    7.6702    4.6188   -0.0000 C   0  0  0  0  0  0  0  0  0  0  0  0
    6.3404    6.8629   -0.0000 C   0  0  0  0  0  0  0  0  0  0  0  0
    7.6465    6.1267   -0.0000 C   0  0  0  0  0  0  0  0  0  0  0  0
    8.9170    6.8985   -0.0000 F   0  0  0  0  0  0  0  0  0  0  0  0
  1  2  2  0  0  0  0
  1  3  2  0  0  0  0
  1  4  1  0  0  0  0
  1  5  1  0  0  0  0
  4  6  1  0  0  0  0
  4  7  1  0  0  0  0
  6  8  2  0  0  0  0
  6  9  1  0  0  0  0
  7 10  1  0  0  0  0
  8 11  1  0  0  0  0
  8 12  1  0  0  0  0
  9 13  2  0  0  0  0
 10 14  2  0  0  0  0
 10 15  1  0  0  0  0
 12 16  2  0  0  0  0
 14 17  1  0  0  0  0
 15 18  2  0  0  0  0
 16 19  1  0  0  0  0
 17 20  2  0  0  0  0
 19 21  2  0  0  0  0
 19 22  1  0  0  0  0
 21 23  1  0  0  0  0
 22 24  2  0  0  0  0
 23 25  2  0  0  0  0
 25 26  1  0  0  0  0
 13 16  1  0  0  0  0
 18 20  1  0  0  0  0
 24 25  1  0  0  0  0
M  END
>  <MolRegNo>
1590824

>  <m>
=

>  <Value>
612

>  <Unit>
nM

>  <Type>
IC50

>  <pValue>
6.21

>  <Ligand Efficiency>
0

>  <Binding Efficiency>
0

>  <Surface Efficiency>
0

>  <Assay Index>
807357

>  <Assay Category>


>  <Assay Organism>
Homo sapiens

>  <Target ID>
17045

>  <Target Name>
Cytochrome P450 3A4

>  <Target Organism>
Homo sapiens

>  <Target Description>
Target is a single protein chain

>  <Sequence Accession>
P08684

>  <Reference>


>  <Pubmed ID>


>  <DOI>
10.6019/CHEMBL2448688

$$$$
1590826
Actelion Java MolfileCreator 1.0

 25 28  0  0  0  0  0  0  0  0999 V2000
    0.0000   -0.0000   -0.0000 S   0  0  0  0  0  0  0  0  0  0  0  0
   -1.3803   -0.5949   -0.0000 C   0  0  0  0  0  0  0  0  0  0  0  0
    0.9995   -1.1066   -0.0000 C   0  0  0  0  0  0  0  0  0  0  0  0
   -1.2375   -2.0704   -0.0000 N   0  0  0  0  0  0  0  0  0  0  0  0
   -2.6891    0.1666   -0.0000 C   0  0  0  0  0  0  0  0  0  0  0  0
    0.2380   -2.3917   -0.0000 C   0  0  0  0  0  0  0  0  0  0  0  0
    2.4750   -1.0828   -0.0000 C   0  0  0  0  0  0  0  0  0  0  0  0
   -2.7010    1.6896   -0.0000 C   0  0  0  0  0  0  0  0  0  0  0  0
   -4.0099   -0.5711   -0.0000 C   0  0  0  0  0  0  0  0  0  0  0  0
    0.9757   -3.6649   -0.0000 C   0  0  0  0  0  0  0  0  0  0  0  0
    3.2127   -2.3560   -0.0000 C   0  0  0  0  0  0  0  0  0  0  0  0
   -4.0099    2.4512   -0.0000 C   0  0  0  0  0  0  0  0  0  0  0  0
   -5.3188    0.1904   -0.0000 C   0  0  0  0  0  0  0  0  0  0  0  0
    2.4631   -3.6530   -0.0000 C   0  0  0  0  0  0  0  0  0  0  0  0
   -4.0218    3.9623   -0.0000 F   0  0  0  0  0  0  0  0  0  0  0  0
   -5.3188    1.7134   -0.0000 C   0  0  0  0  0  0  0  0  0  0  0  0
   -6.6277   -0.5473   -0.0000 N   0  0  0  0  0  0  0  0  0  0  0  0
   -7.9366    0.2142   -0.0000 C   0  0  0  0  0  0  0  0  0  0  0  0
   -6.6396   -2.0347   -0.0000 C   0  0  0  0  0  0  0  0  0  0  0  0
   -9.2454   -0.5236   -0.0000 C   0  0  0  0  0  0  0  0  0  0  0  0
   -5.3545   -2.7724   -0.0000 C   0  0  0  0  0  0  0  0  0  0  0  0
  -10.6257    0.0952   -0.0000 N   0  0  0  0  0  0  0  0  0  0  0  0
   -9.4120   -2.0109   -0.0000 C   0  0  0  0  0  0  0  0  0  0  0  0
  -11.6371   -1.0114   -0.0000 C   0  0  0  0  0  0  0  0  0  0  0  0
  -10.8875   -2.3084   -0.0000 N   0  0  0  0  0  0  0  0  0  0  0  0
  1  2  1  0  0  0  0
  1  3  1  0  0  0  0
  2  4  2  0  0  0  0
  2  5  1  0  0  0  0
  3  6  2  0  0  0  0
  3  7  1  0  0  0  0
  5  8  2  0  0  0  0
  5  9  1  0  0  0  0
  6 10  1  0  0  0  0
  7 11  2  0  0  0  0
  8 12  1  0  0  0  0
  9 13  2  0  0  0  0
 10 14  2  0  0  0  0
 12 15  1  0  0  0  0
 12 16  2  0  0  0  0
 13 17  1  0  0  0  0
 17 18  1  0  0  0  0
 17 19  1  0  0  0  0
 18 20  1  0  0  0  0
 19 21  1  0  0  0  0
 20 22  1  0  0  0  0
 20 23  2  0  0  0  0
 22 24  1  0  0  0  0
 23 25  1  0  0  0  0
  4  6  1  0  0  0  0
 11 14  1  0  0  0  0
 13 16  1  0  0  0  0
 24 25  2  0  0  0  0
M  END
>  <MolRegNo>
1590826

>  <m>
=

>  <Value>
576

>  <Unit>
nM

>  <Type>
IC50

>  <pValue>
6.24

>  <Ligand Efficiency>
0

>  <Binding Efficiency>
0

>  <Surface Efficiency>
0

>  <Assay Index>
807357

>  <Assay Category>


>  <Assay Organism>
Homo sapiens

>  <Target ID>
17045

>  <Target Name>
Cytochrome P450 3A4

>  <Target Organism>
Homo sapiens

>  <Target Description>
Target is a single protein chain

>  <Sequence Accession>
P08684

>  <Reference>


>  <Pubmed ID>


>  <DOI>
10.6019/CHEMBL2448688

$$$$
1590827
Actelion Java MolfileCreator 1.0

 27 30  0  0  0  0  0  0  0  0999 V2000
    0.0000   -0.0000   -0.0000 S   0  0  0  0  0  0  0  0  0  0  0  0
    0.8750    1.2465   -0.0000 C   0  0  0  0  0  0  0  0  0  0  0  0
   -1.4503    0.4794   -0.0000 C   0  0  0  0  0  0  0  0  0  0  0  0
   -0.0240    2.4571   -0.0000 N   0  0  0  0  0  0  0  0  0  0  0  0
    2.3852    1.2705   -0.0000 C   0  0  0  0  0  0  0  0  0  0  0  0
   -1.4623    2.0136   -0.0000 C   0  0  0  0  0  0  0  0  0  0  0  0
   -2.7807   -0.2877   -0.0000 C   0  0  0  0  0  0  0  0  0  0  0  0
    3.2361    0.0360   -0.0000 C   0  0  0  0  0  0  0  0  0  0  0  0
    3.0204    2.6608   -0.0000 C   0  0  0  0  0  0  0  0  0  0  0  0
   -2.7927    2.8046   -0.0000 C   0  0  0  0  0  0  0  0  0  0  0  0
   -4.1231    0.5034   -0.0000 C   0  0  0  0  0  0  0  0  0  0  0  0
    4.7463    0.1678   -0.0000 C   0  0  0  0  0  0  0  0  0  0  0  0
    4.5306    2.7927   -0.0000 C   0  0  0  0  0  0  0  0  0  0  0  0
   -4.1351    2.0376   -0.0000 C   0  0  0  0  0  0  0  0  0  0  0  0
    5.3816    1.5581   -0.0000 C   0  0  0  0  0  0  0  0  0  0  0  0
    6.8918    1.7020   -0.0000 N   0  0  0  0  0  0  0  0  0  0  0  0
    7.7547    0.4674   -0.0000 C   0  0  0  0  0  0  0  0  0  0  0  0
    7.5270    3.0923   -0.0000 C   0  0  0  0  0  0  0  0  0  0  0  0
    7.2274   -0.6233   -0.0000 O   0  0  0  0  0  0  0  0  0  0  0  0
    9.2649    0.6113   -0.0000 C   0  0  0  0  0  0  0  0  0  0  0  0
    9.0372    3.2361   -0.0000 C   0  0  0  0  0  0  0  0  0  0  0  0
    9.9481   -0.3716   -0.0000 N   0  0  0  0  0  0  0  0  0  0  0  0
    9.6724    4.6265   -0.0000 C   0  0  0  0  0  0  0  0  0  0  0  0
    9.8882    2.0016   -0.0000 C   0  0  0  0  0  0  0  0  0  0  0  0
   11.1826    4.7583   -0.0000 N   0  0  0  0  0  0  0  0  0  0  0  0
   11.3984    2.1335   -0.0000 C   0  0  0  0  0  0  0  0  0  0  0  0
   12.0336    3.5238   -0.0000 C   0  0  0  0  0  0  0  0  0  0  0  0
  1  2  1  0  0  0  0
  1  3  1  0  0  0  0
  2  4  2  0  0  0  0
  2  5  1  0  0  0  0
  3  6  2  0  0  0  0
  3  7  1  0  0  0  0
  5  8  2  0  0  0  0
  5  9  1  0  0  0  0
  6 10  1  0  0  0  0
  7 11  2  0  0  0  0
  8 12  1  0  0  0  0
  9 13  2  0  0  0  0
 10 14  2  0  0  0  0
 12 15  2  0  0  0  0
 15 16  1  0  0  0  0
 16 17  1  0  0  0  0
 16 18  1  0  0  0  0
 17 19  2  0  0  0  0
 17 20  1  0  0  0  0
 18 21  1  0  0  0  0
 20 22  1  0  0  0  0
 21 23  2  0  0  0  0
 21 24  1  0  0  0  0
 23 25  1  0  0  0  0
 24 26  2  0  0  0  0
 25 27  2  0  0  0  0
  4  6  1  0  0  0  0
 11 14  1  0  0  0  0
 13 15  1  0  0  0  0
 26 27  1  0  0  0  0
M  END
>  <MolRegNo>
1590827

>  <m>
=

>  <Value>
13040

>  <Unit>
nM

>  <Type>
IC50

>  <pValue>
4.88

>  <Ligand Efficiency>
0

>  <Binding Efficiency>
0

>  <Surface Efficiency>
0

>  <Assay Index>
807357

>  <Assay Category>


>  <Assay Organism>
Homo sapiens

>  <Target ID>
17045

>  <Target Name>
Cytochrome P450 3A4

>  <Target Organism>
Homo sapiens

>  <Target Description>
Target is a single protein chain

>  <Sequence Accession>
P08684

>  <Reference>


>  <Pubmed ID>


>  <DOI>
10.6019/CHEMBL2448688

$$$$
1590831
Actelion Java MolfileCreator 1.0

 23 25  0  0  0  0  0  0  0  0999 V2000
    0.0000   -0.0000   -0.0000 F   0  0  0  0  0  0  0  0  0  0  0  0
   -0.0119    1.5060   -0.0000 C   0  0  0  0  0  0  0  0  0  0  0  0
   -1.3163    2.2649   -0.0000 C   0  0  0  0  0  0  0  0  0  0  0  0
    1.2807    2.2649   -0.0000 C   0  0  0  0  0  0  0  0  0  0  0  0
   -2.6207    1.5297   -0.0000 N   0  0  0  0  0  0  0  0  0  0  0  0
   -1.3281    3.7828   -0.0000 C   0  0  0  0  0  0  0  0  0  0  0  0
    1.2688    3.7828   -0.0000 C   0  0  0  0  0  0  0  0  0  0  0  0
   -3.9251    2.2886   -0.0000 C   0  0  0  0  0  0  0  0  0  0  0  0
   -2.6325    0.0474   -0.0000 C   0  0  0  0  0  0  0  0  0  0  0  0
   -0.0474    4.5417   -0.0000 C   0  0  0  0  0  0  0  0  0  0  0  0
    2.5495    4.5417   -0.0000 C   0  0  0  0  0  0  0  0  0  0  0  0
   -3.9369    3.7946   -0.0000 C   0  0  0  0  0  0  0  0  0  0  0  0
   -3.9369   -0.6878   -0.0000 C   0  0  0  0  0  0  0  0  0  0  0  0
    3.8302    3.8065   -0.0000 C   0  0  0  0  0  0  0  0  0  0  0  0
    2.5258    6.0358   -0.0000 C   0  0  0  0  0  0  0  0  0  0  0  0
   -2.7392    4.6840   -0.0000 N   0  0  0  0  0  0  0  0  0  0  0  0
   -5.1583    4.6958   -0.0000 C   0  0  0  0  0  0  0  0  0  0  0  0
    5.1109    4.5654   -0.0000 C   0  0  0  0  0  0  0  0  0  0  0  0
    3.7946    6.8066   -0.0000 C   0  0  0  0  0  0  0  0  0  0  0  0
   -3.2136    6.1188   -0.0000 C   0  0  0  0  0  0  0  0  0  0  0  0
   -4.7077    6.1307   -0.0000 N   0  0  0  0  0  0  0  0  0  0  0  0
    5.0990    6.0714   -0.0000 C   0  0  0  0  0  0  0  0  0  0  0  0
    6.3797    6.8422   -0.0000 F   0  0  0  0  0  0  0  0  0  0  0  0
  1  2  1  0  0  0  0
  2  3  2  0  0  0  0
  2  4  1  0  0  0  0
  3  5  1  0  0  0  0
  3  6  1  0  0  0  0
  4  7  2  0  0  0  0
  5  8  1  0  0  0  0
  5  9  1  0  0  0  0
  6 10  2  0  0  0  0
  7 11  1  0  0  0  0
  8 12  1  0  0  0  0
  9 13  1  0  0  0  0
 11 14  2  0  0  0  0
 11 15  1  0  0  0  0
 12 16  1  0  0  0  0
 12 17  2  0  0  0  0
 14 18  1  0  0  0  0
 15 19  2  0  0  0  0
 16 20  2  0  0  0  0
 17 21  1  0  0  0  0
 18 22  2  0  0  0  0
 22 23  1  0  0  0  0
  7 10  1  0  0  0  0
 19 22  1  0  0  0  0
 20 21  1  0  0  0  0
M  END
>  <MolRegNo>
1590831

>  <m>
=

>  <Value>
4000

>  <Unit>
nM

>  <Type>
IC50

>  <pValue>
5.4

>  <Ligand Efficiency>
0

>  <Binding Efficiency>
0

>  <Surface Efficiency>
0

>  <Assay Index>
807357

>  <Assay Category>


>  <Assay Organism>
Homo sapiens

>  <Target ID>
17045

>  <Target Name>
Cytochrome P450 3A4

>  <Target Organism>
Homo sapiens

>  <Target Description>
Target is a single protein chain

>  <Sequence Accession>
P08684

>  <Reference>


>  <Pubmed ID>


>  <DOI>
10.6019/CHEMBL2448688

$$$$
1605660
Actelion Java MolfileCreator 1.0

 29 32  0  0  0  0  0  0  0  0999 V2000
    0.0000   -0.0000   -0.0000 S   0  0  0  0  0  0  0  0  0  0  0  0
   -1.4999   -0.1653   -0.0000 C   0  0  0  0  0  0  0  0  0  0  0  0
    0.2834    1.4763   -0.0000 C   0  0  0  0  0  0  0  0  0  0  0  0
   -2.1377    1.2046   -0.0000 N   0  0  0  0  0  0  0  0  0  0  0  0
   -2.2439   -1.4645   -0.0000 N   0  0  0  0  0  0  0  0  0  0  0  0
   -1.0275    2.2203   -0.0000 N   0  0  0  0  0  0  0  0  0  0  0  0
    1.6298    2.1140   -0.0000 C   0  0  0  0  0  0  0  0  0  0  0  0
   -3.7557   -1.4408   -0.0000 C   0  0  0  0  0  0  0  0  0  0  0  0
    0.9921    3.4840   -0.0000 O   0  0  0  0  0  0  0  0  0  0  0  0
    2.8463    1.2519   -0.0000 C   0  0  0  0  0  0  0  0  0  0  0  0
    2.4802    3.3423   -0.0000 C   0  0  0  0  0  0  0  0  0  0  0  0
   -4.6650   -2.6337   -0.0000 N   0  0  0  0  0  0  0  0  0  0  0  0
   -4.6296   -0.2126   -0.0000 N   0  0  0  0  0  0  0  0  0  0  0  0
    2.8581   -0.2244   -0.0000 S   0  0  0  0  0  0  0  0  0  0  0  0
    4.2517    1.7479   -0.0000 N   0  0  0  0  0  0  0  0  0  0  0  0
   -6.0941   -2.1495   -0.0000 N   0  0  0  0  0  0  0  0  0  0  0  0
   -6.0705   -0.6496   -0.0000 C   0  0  0  0  0  0  0  0  0  0  0  0
    4.2753   -0.6614   -0.0000 C   0  0  0  0  0  0  0  0  0  0  0  0
    5.1375    0.5551   -0.0000 C   0  0  0  0  0  0  0  0  0  0  0  0
   -7.3223   -2.9998   -0.0000 C   0  0  0  0  0  0  0  0  0  0  0  0
    6.6255    0.5787   -0.0000 C   0  0  0  0  0  0  0  0  0  0  0  0
   -8.6923   -2.3620   -0.0000 C   0  0  0  0  0  0  0  0  0  0  0  0
   -9.9324   -3.2124   -0.0000 C   0  0  0  0  0  0  0  0  0  0  0  0
   -8.8459   -0.8503   -0.0000 C   0  0  0  0  0  0  0  0  0  0  0  0
   -9.8025   -4.6887   -0.0000 F   0  0  0  0  0  0  0  0  0  0  0  0
  -11.3024   -2.5746   -0.0000 C   0  0  0  0  0  0  0  0  0  0  0  0
   -7.6412    0.0236   -0.0000 F   0  0  0  0  0  0  0  0  0  0  0  0
  -10.2159   -0.2126   -0.0000 C   0  0  0  0  0  0  0  0  0  0  0  0
  -11.4441   -1.0629   -0.0000 C   0  0  0  0  0  0  0  0  0  0  0  0
  1  2  1  0  0  0  0
  1  3  1  0  0  0  0
  2  4  2  0  0  0  0
  2  5  1  0  0  0  0
  3  6  2  0  0  0  0
  3  7  1  0  0  0  0
  5  8  1  0  0  0  0
  7  9  1  0  0  0  0
  7 10  1  0  0  0  0
  7 11  1  0  0  0  0
  8 12  2  0  0  0  0
  8 13  1  0  0  0  0
 10 14  1  0  0  0  0
 10 15  2  0  0  0  0
 12 16  1  0  0  0  0
 13 17  2  0  0  0  0
 14 18  1  0  0  0  0
 15 19  1  0  0  0  0
 16 20  1  0  0  0  0
 19 21  1  0  0  0  0
 20 22  1  0  0  0  0
 22 23  2  0  0  0  0
 22 24  1  0  0  0  0
 23 25  1  0  0  0  0
 23 26  1  0  0  0  0
 24 27  1  0  0  0  0
 24 28  2  0  0  0  0
 26 29  2  0  0  0  0
  4  6  1  0  0  0  0
 16 17  1  0  0  0  0
 18 19  2  0  0  0  0
 28 29  1  0  0  0  0
M  END
>  <MolRegNo>
1605660

>  <m>
=

>  <Value>
48000

>  <Unit>
nM

>  <Type>
IC50

>  <pValue>
4.32

>  <Ligand Efficiency>
0

>  <Binding Efficiency>
0

>  <Surface Efficiency>
0

>  <Assay Index>
809543

>  <Assay Category>


>  <Assay Organism>
Homo sapiens

>  <Target ID>
17045

>  <Target Name>
Cytochrome P450 3A4

>  <Target Organism>
Homo sapiens

>  <Target Description>
Target is a single protein chain

>  <Sequence Accession>
P08684

>  <Reference>
J Med Chem 56 (21), 8533-8542 (2013)

>  <Pubmed ID>
24107081

>  <DOI>
10.1021/jm4012033

$$$$
1605657
Actelion Java MolfileCreator 1.0

 29 32  0  0  0  0  0  0  0  0999 V2000
    0.0000   -0.0000   -0.0000 S   0  0  0  0  0  0  0  0  0  0  0  0
    0.7352    1.3044   -0.0000 C   0  0  0  0  0  0  0  0  0  0  0  0
    0.9961   -1.1028   -0.0000 C   0  0  0  0  0  0  0  0  0  0  0  0
    2.1938    1.0079   -0.0000 N   0  0  0  0  0  0  0  0  0  0  0  0
    0.1186    2.6799   -0.0000 N   0  0  0  0  0  0  0  0  0  0  0  0
    2.3479   -0.4862   -0.0000 N   0  0  0  0  0  0  0  0  0  0  0  0
    0.6759   -2.5495   -0.0000 C   0  0  0  0  0  0  0  0  0  0  0  0
   -1.3755    2.8460   -0.0000 C   0  0  0  0  0  0  0  0  0  0  0  0
    2.1226   -2.8460   -0.0000 O   0  0  0  0  0  0  0  0  0  0  0  0
   -0.7589   -3.0001   -0.0000 C   0  0  0  0  0  0  0  0  0  0  0  0
    1.1265   -3.9606   -0.0000 C   0  0  0  0  0  0  0  0  0  0  0  0
   -2.3835    1.7431   -0.0000 N   0  0  0  0  0  0  0  0  0  0  0  0
   -2.1345    4.1504   -0.0000 C   0  0  0  0  0  0  0  0  0  0  0  0
   -1.2332   -4.4231   -0.0000 S   0  0  0  0  0  0  0  0  0  0  0  0
   -1.9803   -2.1226   -0.0000 N   0  0  0  0  0  0  0  0  0  0  0  0
   -3.7709    2.3598   -0.0000 N   0  0  0  0  0  0  0  0  0  0  0  0
   -3.6049    3.8539   -0.0000 C   0  0  0  0  0  0  0  0  0  0  0  0
   -2.7392   -4.4112   -0.0000 C   0  0  0  0  0  0  0  0  0  0  0  0
   -3.2017   -2.9883   -0.0000 C   0  0  0  0  0  0  0  0  0  0  0  0
   -5.0753    1.6246   -0.0000 C   0  0  0  0  0  0  0  0  0  0  0  0
   -4.6365   -2.5139   -0.0000 C   0  0  0  0  0  0  0  0  0  0  0  0
   -6.3797    2.3835   -0.0000 C   0  0  0  0  0  0  0  0  0  0  0  0
   -7.6959    1.6483   -0.0000 C   0  0  0  0  0  0  0  0  0  0  0  0
   -6.3915    3.9013   -0.0000 C   0  0  0  0  0  0  0  0  0  0  0  0
   -7.7078    0.1660   -0.0000 F   0  0  0  0  0  0  0  0  0  0  0  0
   -9.0003    2.4072   -0.0000 C   0  0  0  0  0  0  0  0  0  0  0  0
   -5.1109    4.6603   -0.0000 F   0  0  0  0  0  0  0  0  0  0  0  0
   -7.6959    4.6603   -0.0000 C   0  0  0  0  0  0  0  0  0  0  0  0
   -9.0122    3.9251   -0.0000 C   0  0  0  0  0  0  0  0  0  0  0  0
  1  2  1  0  0  0  0
  1  3  1  0  0  0  0
  2  4  2  0  0  0  0
  2  5  1  0  0  0  0
  3  6  2  0  0  0  0
  3  7  1  0  0  0  0
  5  8  1  0  0  0  0
  7  9  1  1  0  0  0
  7 10  1  0  0  0  0
  7 11  1  0  0  0  0
  8 12  2  0  0  0  0
  8 13  1  0  0  0  0
 10 14  1  0  0  0  0
 10 15  2  0  0  0  0
 12 16  1  0  0  0  0
 13 17  2  0  0  0  0
 14 18  1  0  0  0  0
 15 19  1  0  0  0  0
 16 20  1  0  0  0  0
 19 21  1  0  0  0  0
 20 22  1  0  0  0  0
 22 23  2  0  0  0  0
 22 24  1  0  0  0  0
 23 25  1  0  0  0  0
 23 26  1  0  0  0  0
 24 27  1  0  0  0  0
 24 28  2  0  0  0  0
 26 29  2  0  0  0  0
  4  6  1  0  0  0  0
 16 17  1  0  0  0  0
 18 19  2  0  0  0  0
 28 29  1  0  0  0  0
M  END
>  <MolRegNo>
1605657

>  <m>
=

>  <Value>
1900

>  <Unit>
nM

>  <Type>
IC50

>  <pValue>
5.72

>  <Ligand Efficiency>
0

>  <Binding Efficiency>
0

>  <Surface Efficiency>
0

>  <Assay Index>
809543

>  <Assay Category>


>  <Assay Organism>
Homo sapiens

>  <Target ID>
17045

>  <Target Name>
Cytochrome P450 3A4

>  <Target Organism>
Homo sapiens

>  <Target Description>
Target is a single protein chain

>  <Sequence Accession>
P08684

>  <Reference>
J Med Chem 56 (21), 8533-8542 (2013)

>  <Pubmed ID>
24107081

>  <DOI>
10.1021/jm4012033

$$$$
1604516
Actelion Java MolfileCreator 1.0

 32 34  0  0  0  0  0  0  0  0999 V2000
    0.0000   -0.0000   -0.0000 S   0  0  0  0  0  0  0  0  0  0  0  0
   -0.7717   -1.2822   -0.0000 O   0  0  0  0  0  0  0  0  0  0  0  0
    0.3680   -1.4365   -0.0000 O   0  0  0  0  0  0  0  0  0  0  0  0
   -1.3059    0.7598   -0.0000 N   0  0  0  0  0  0  0  0  0  0  0  0
    1.2941    0.7598   -0.0000 C   0  0  0  0  0  0  0  0  0  0  0  0
   -2.6238    0.0237   -0.0000 C   0  0  0  0  0  0  0  0  0  0  0  0
    1.2822    2.2795   -0.0000 C   0  0  0  0  0  0  0  0  0  0  0  0
    2.5881    0.0237   -0.0000 C   0  0  0  0  0  0  0  0  0  0  0  0
   -3.9297    0.7954   -0.0000 C   0  0  0  0  0  0  0  0  0  0  0  0
   -2.6356   -1.4603   -0.0000 C   0  0  0  0  0  0  0  0  0  0  0  0
    2.5644    3.0393   -0.0000 C   0  0  0  0  0  0  0  0  0  0  0  0
    3.8822    0.7836   -0.0000 C   0  0  0  0  0  0  0  0  0  0  0  0
   -5.2356    0.0594   -0.0000 C   0  0  0  0  0  0  0  0  0  0  0  0
   -3.9416   -2.1964   -0.0000 C   0  0  0  0  0  0  0  0  0  0  0  0
    3.8585    2.3032   -0.0000 C   0  0  0  0  0  0  0  0  0  0  0  0
    2.5525    4.5471   -0.0000 C   0  0  0  0  0  0  0  0  0  0  0  0
    5.1763    0.0475   -0.0000 C   0  0  0  0  0  0  0  0  0  0  0  0
   -5.2475   -1.4365   -0.0000 C   0  0  0  0  0  0  0  0  0  0  0  0
    3.8347    5.3188   -0.0000 F   0  0  0  0  0  0  0  0  0  0  0  0
    1.2347    5.3069   -0.0000 F   0  0  0  0  0  0  0  0  0  0  0  0
    2.5288    6.0667   -0.0000 F   0  0  0  0  0  0  0  0  0  0  0  0
    5.1644   -1.4365   -0.0000 F   0  0  0  0  0  0  0  0  0  0  0  0
    6.4585    0.8073   -0.0000 F   0  0  0  0  0  0  0  0  0  0  0  0
    6.4585   -0.6886   -0.0000 F   0  0  0  0  0  0  0  0  0  0  0  0
   -6.5535   -2.1726   -0.0000 C   0  0  0  0  0  0  0  0  0  0  0  0
   -6.5653   -3.6566   -0.0000 C   0  0  0  0  0  0  0  0  0  0  0  0
   -7.8713   -1.4128   -0.0000 C   0  0  0  0  0  0  0  0  0  0  0  0
   -7.8713   -4.4046   -0.0000 C   0  0  0  0  0  0  0  0  0  0  0  0
   -9.1772   -2.1489   -0.0000 C   0  0  0  0  0  0  0  0  0  0  0  0
   -9.1891   -3.6448   -0.0000 N   0  0  0  0  0  0  0  0  0  0  0  0
   -7.8713   -5.8886   -0.0000 C   0  0  0  0  0  0  0  0  0  0  0  0
   -6.5772   -6.6247   -0.0000 C   0  0  0  0  0  0  0  0  0  0  0  0
  1  2  2  0  0  0  0
  1  3  2  0  0  0  0
  1  4  1  0  0  0  0
  1  5  1  0  0  0  0
  4  6  1  0  0  0  0
  5  7  2  0  0  0  0
  5  8  1  0  0  0  0
  6  9  2  0  0  0  0
  6 10  1  0  0  0  0
  7 11  1  0  0  0  0
  8 12  2  0  0  0  0
  9 13  1  0  0  0  0
 10 14  2  0  0  0  0
 11 15  2  0  0  0  0
 11 16  1  0  0  0  0
 12 17  1  0  0  0  0
 13 18  2  0  0  0  0
 16 19  1  0  0  0  0
 16 20  1  0  0  0  0
 16 21  1  0  0  0  0
 17 22  1  0  0  0  0
 17 23  1  0  0  0  0
 17 24  1  0  0  0  0
 18 25  1  0  0  0  0
 25 26  2  0  0  0  0
 25 27  1  0  0  0  0
 26 28  1  0  0  0  0
 27 29  2  0  0  0  0
 28 30  2  0  0  0  0
 28 31  1  0  0  0  0
 31 32  1  0  0  0  0
 12 15  1  0  0  0  0
 14 18  1  0  0  0  0
 29 30  1  0  0  0  0
M  END
>  <MolRegNo>
1604516

>  <m>
=

>  <Value>
12200

>  <Unit>
nM

>  <Type>
IC50

>  <pValue>
4.91

>  <Ligand Efficiency>
0

>  <Binding Efficiency>
0

>  <Surface Efficiency>
0

>  <Assay Index>
809405

>  <Assay Category>


>  <Assay Organism>
Homo sapiens

>  <Target ID>
17045

>  <Target Name>
Cytochrome P450 3A4

>  <Target Organism>
Homo sapiens

>  <Target Description>
Target is a single protein chain

>  <Sequence Accession>
P08684

>  <Reference>
Bioorg Med Chem Lett 23 (23), 6447-6454 (2013)

>  <Pubmed ID>
24139583

>  <DOI>
10.1016/j.bmcl.2013.09.041

$$$$
1604515
Actelion Java MolfileCreator 1.0

 32 34  0  0  0  0  0  0  0  0999 V2000
    0.0000   -0.0000   -0.0000 S   0  0  0  0  0  0  0  0  0  0  0  0
   -0.7717   -1.2822   -0.0000 O   0  0  0  0  0  0  0  0  0  0  0  0
    0.3680   -1.4365   -0.0000 O   0  0  0  0  0  0  0  0  0  0  0  0
   -1.3059    0.7598   -0.0000 N   0  0  0  0  0  0  0  0  0  0  0  0
    1.2941    0.7598   -0.0000 C   0  0  0  0  0  0  0  0  0  0  0  0
   -2.6238    0.0237   -0.0000 C   0  0  0  0  0  0  0  0  0  0  0  0
    1.2822    2.2795   -0.0000 C   0  0  0  0  0  0  0  0  0  0  0  0
    2.5881    0.0237   -0.0000 C   0  0  0  0  0  0  0  0  0  0  0  0
   -3.9297    0.7954   -0.0000 C   0  0  0  0  0  0  0  0  0  0  0  0
   -2.6356   -1.4603   -0.0000 C   0  0  0  0  0  0  0  0  0  0  0  0
    2.5644    3.0393   -0.0000 C   0  0  0  0  0  0  0  0  0  0  0  0
    3.8822    0.7836   -0.0000 C   0  0  0  0  0  0  0  0  0  0  0  0
   -5.2356    0.0594   -0.0000 C   0  0  0  0  0  0  0  0  0  0  0  0
   -3.9416   -2.1964   -0.0000 C   0  0  0  0  0  0  0  0  0  0  0  0
    3.8585    2.3032   -0.0000 C   0  0  0  0  0  0  0  0  0  0  0  0
    2.5525    4.5471   -0.0000 C   0  0  0  0  0  0  0  0  0  0  0  0
    5.1763    0.0475   -0.0000 C   0  0  0  0  0  0  0  0  0  0  0  0
   -5.2475   -1.4365   -0.0000 C   0  0  0  0  0  0  0  0  0  0  0  0
    3.8347    5.3188   -0.0000 F   0  0  0  0  0  0  0  0  0  0  0  0
    1.2347    5.3069   -0.0000 F   0  0  0  0  0  0  0  0  0  0  0  0
    2.5288    6.0667   -0.0000 F   0  0  0  0  0  0  0  0  0  0  0  0
    5.1644   -1.4365   -0.0000 F   0  0  0  0  0  0  0  0  0  0  0  0
    6.4585    0.8073   -0.0000 F   0  0  0  0  0  0  0  0  0  0  0  0
    6.4585   -0.6886   -0.0000 F   0  0  0  0  0  0  0  0  0  0  0  0
   -6.5535   -2.1726   -0.0000 C   0  0  0  0  0  0  0  0  0  0  0  0
   -6.5653   -3.6566   -0.0000 C   0  0  0  0  0  0  0  0  0  0  0  0
   -7.8713   -1.4128   -0.0000 C   0  0  0  0  0  0  0  0  0  0  0  0
   -7.8713   -4.4046   -0.0000 C   0  0  0  0  0  0  0  0  0  0  0  0
   -9.1772   -2.1489   -0.0000 C   0  0  0  0  0  0  0  0  0  0  0  0
   -9.1891   -3.6448   -0.0000 N   0  0  0  0  0  0  0  0  0  0  0  0
   -7.8713   -5.8886   -0.0000 C   0  0  0  0  0  0  0  0  0  0  0  0
   -6.5772   -6.6247   -0.0000 C   0  0  0  0  0  0  0  0  0  0  0  0
  1  2  2  0  0  0  0
  1  3  2  0  0  0  0
  1  4  1  0  0  0  0
  1  5  1  0  0  0  0
  4  6  1  0  0  0  0
  5  7  2  0  0  0  0
  5  8  1  0  0  0  0
  6  9  2  0  0  0  0
  6 10  1  0  0  0  0
  7 11  1  0  0  0  0
  8 12  2  0  0  0  0
  9 13  1  0  0  0  0
 10 14  2  0  0  0  0
 11 15  2  0  0  0  0
 11 16  1  0  0  0  0
 12 17  1  0  0  0  0
 13 18  2  0  0  0  0
 16 19  1  0  0  0  0
 16 20  1  0  0  0  0
 16 21  1  0  0  0  0
 17 22  1  0  0  0  0
 17 23  1  0  0  0  0
 17 24  1  0  0  0  0
 18 25  1  0  0  0  0
 25 26  2  0  0  0  0
 25 27  1  0  0  0  0
 26 28  1  0  0  0  0
 27 29  2  0  0  0  0
 28 30  2  0  0  0  0
 28 31  1  0  0  0  0
 31 32  2  0  0  0  0
 12 15  1  0  0  0  0
 14 18  1  0  0  0  0
 29 30  1  0  0  0  0
M  END
>  <MolRegNo>
1604515

>  <m>
=

>  <Value>
4500

>  <Unit>
nM

>  <Type>
IC50

>  <pValue>
5.35

>  <Ligand Efficiency>
0

>  <Binding Efficiency>
0

>  <Surface Efficiency>
0

>  <Assay Index>
809405

>  <Assay Category>


>  <Assay Organism>
Homo sapiens

>  <Target ID>
17045

>  <Target Name>
Cytochrome P450 3A4

>  <Target Organism>
Homo sapiens

>  <Target Description>
Target is a single protein chain

>  <Sequence Accession>
P08684

>  <Reference>
Bioorg Med Chem Lett 23 (23), 6447-6454 (2013)

>  <Pubmed ID>
24139583

>  <DOI>
10.1016/j.bmcl.2013.09.041

$$$$
1604514
Actelion Java MolfileCreator 1.0

 33 35  0  0  0  0  0  0  0  0999 V2000
    0.0000   -0.0000   -0.0000 S   0  0  0  0  0  0  0  0  0  0  0  0
   -0.7714   -1.2817   -0.0000 O   0  0  0  0  0  0  0  0  0  0  0  0
    0.3679   -1.4360   -0.0000 O   0  0  0  0  0  0  0  0  0  0  0  0
   -1.3055    0.7595   -0.0000 N   0  0  0  0  0  0  0  0  0  0  0  0
    1.2936    0.7595   -0.0000 C   0  0  0  0  0  0  0  0  0  0  0  0
   -2.6228    0.0237   -0.0000 C   0  0  0  0  0  0  0  0  0  0  0  0
    1.2817    2.2786   -0.0000 C   0  0  0  0  0  0  0  0  0  0  0  0
    2.5872    0.0237   -0.0000 C   0  0  0  0  0  0  0  0  0  0  0  0
   -3.9282    0.7951   -0.0000 C   0  0  0  0  0  0  0  0  0  0  0  0
   -2.6346   -1.4597   -0.0000 C   0  0  0  0  0  0  0  0  0  0  0  0
    2.5634    3.0381   -0.0000 C   0  0  0  0  0  0  0  0  0  0  0  0
    3.8808    0.7833   -0.0000 C   0  0  0  0  0  0  0  0  0  0  0  0
   -3.9401    2.3023   -0.0000 O   0  0  0  0  0  0  0  0  0  0  0  0
   -5.2337    0.0593   -0.0000 C   0  0  0  0  0  0  0  0  0  0  0  0
   -3.9401   -2.1955   -0.0000 C   0  0  0  0  0  0  0  0  0  0  0  0
    3.8570    2.3023   -0.0000 C   0  0  0  0  0  0  0  0  0  0  0  0
    2.5516    4.5454   -0.0000 C   0  0  0  0  0  0  0  0  0  0  0  0
    5.1743    0.0475   -0.0000 C   0  0  0  0  0  0  0  0  0  0  0  0
   -2.6465    3.0619   -0.0000 C   0  0  0  0  0  0  0  0  0  0  0  0
   -5.2456   -1.4360   -0.0000 C   0  0  0  0  0  0  0  0  0  0  0  0
    3.8333    5.3168   -0.0000 F   0  0  0  0  0  0  0  0  0  0  0  0
    1.2342    5.3049   -0.0000 F   0  0  0  0  0  0  0  0  0  0  0  0
    2.5278    6.0644   -0.0000 F   0  0  0  0  0  0  0  0  0  0  0  0
    5.1625   -1.4360   -0.0000 F   0  0  0  0  0  0  0  0  0  0  0  0
    6.4561    0.8070   -0.0000 F   0  0  0  0  0  0  0  0  0  0  0  0
    6.4561   -0.6883   -0.0000 F   0  0  0  0  0  0  0  0  0  0  0  0
   -6.5510   -2.1718   -0.0000 C   0  0  0  0  0  0  0  0  0  0  0  0
   -6.5629   -3.6553   -0.0000 C   0  0  0  0  0  0  0  0  0  0  0  0
   -7.8683   -1.4123   -0.0000 C   0  0  0  0  0  0  0  0  0  0  0  0
   -7.8683   -4.4029   -0.0000 C   0  0  0  0  0  0  0  0  0  0  0  0
   -9.1738   -2.1481   -0.0000 C   0  0  0  0  0  0  0  0  0  0  0  0
   -9.1857   -3.6434   -0.0000 N   0  0  0  0  0  0  0  0  0  0  0  0
   -7.8683   -5.8864   -0.0000 C   0  0  0  0  0  0  0  0  0  0  0  0
  1  2  2  0  0  0  0
  1  3  2  0  0  0  0
  1  4  1  0  0  0  0
  1  5  1  0  0  0  0
  4  6  1  0  0  0  0
  5  7  2  0  0  0  0
  5  8  1  0  0  0  0
  6  9  2  0  0  0  0
  6 10  1  0  0  0  0
  7 11  1  0  0  0  0
  8 12  2  0  0  0  0
  9 13  1  0  0  0  0
  9 14  1  0  0  0  0
 10 15  2  0  0  0  0
 11 16  2  0  0  0  0
 11 17  1  0  0  0  0
 12 18  1  0  0  0  0
 13 19  1  0  0  0  0
 14 20  2  0  0  0  0
 17 21  1  0  0  0  0
 17 22  1  0  0  0  0
 17 23  1  0  0  0  0
 18 24  1  0  0  0  0
 18 25  1  0  0  0  0
 18 26  1  0  0  0  0
 20 27  1  0  0  0  0
 27 28  2  0  0  0  0
 27 29  1  0  0  0  0
 28 30  1  0  0  0  0
 29 31  2  0  0  0  0
 30 32  2  0  0  0  0
 30 33  1  0  0  0  0
 12 16  1  0  0  0  0
 15 20  1  0  0  0  0
 31 32  1  0  0  0  0
M  END
>  <MolRegNo>
1604514

>  <m>
=

>  <Value>
2200

>  <Unit>
nM

>  <Type>
IC50

>  <pValue>
5.66

>  <Ligand Efficiency>
0

>  <Binding Efficiency>
0

>  <Surface Efficiency>
0

>  <Assay Index>
809405

>  <Assay Category>


>  <Assay Organism>
Homo sapiens

>  <Target ID>
17045

>  <Target Name>
Cytochrome P450 3A4

>  <Target Organism>
Homo sapiens

>  <Target Description>
Target is a single protein chain

>  <Sequence Accession>
P08684

>  <Reference>
Bioorg Med Chem Lett 23 (23), 6447-6454 (2013)

>  <Pubmed ID>
24139583

>  <DOI>
10.1016/j.bmcl.2013.09.041

$$$$
1604511
Actelion Java MolfileCreator 1.0

 25 27  0  0  0  0  0  0  0  0999 V2000
    0.0000   -0.0000   -0.0000 Cl  0  0  0  0  0  0  0  0  0  0  0  0
   -0.0119   -1.4893   -0.0000 C   0  0  0  0  0  0  0  0  0  0  0  0
    1.2748   -2.2280   -0.0000 C   0  0  0  0  0  0  0  0  0  0  0  0
   -1.3225   -2.2280   -0.0000 C   0  0  0  0  0  0  0  0  0  0  0  0
    1.2629   -3.7292   -0.0000 C   0  0  0  0  0  0  0  0  0  0  0  0
   -1.3344   -3.7292   -0.0000 C   0  0  0  0  0  0  0  0  0  0  0  0
    2.5497   -4.4679   -0.0000 Cl  0  0  0  0  0  0  0  0  0  0  0  0
   -0.0596   -4.4679   -0.0000 C   0  0  0  0  0  0  0  0  0  0  0  0
   -2.6450   -4.4679   -0.0000 S   0  0  0  0  0  0  0  0  0  0  0  0
   -3.4194   -5.7547   -0.0000 O   0  0  0  0  0  0  0  0  0  0  0  0
   -2.2757   -5.8976   -0.0000 O   0  0  0  0  0  0  0  0  0  0  0  0
   -3.9556   -3.7054   -0.0000 N   0  0  0  0  0  0  0  0  0  0  0  0
   -5.2662   -4.4441   -0.0000 C   0  0  0  0  0  0  0  0  0  0  0  0
   -6.5768   -3.6816   -0.0000 C   0  0  0  0  0  0  0  0  0  0  0  0
   -5.2781   -5.9334   -0.0000 C   0  0  0  0  0  0  0  0  0  0  0  0
   -7.8874   -4.4203   -0.0000 C   0  0  0  0  0  0  0  0  0  0  0  0
   -6.5887   -6.6721   -0.0000 C   0  0  0  0  0  0  0  0  0  0  0  0
   -7.8993   -5.9096   -0.0000 C   0  0  0  0  0  0  0  0  0  0  0  0
   -9.2099   -6.6483   -0.0000 C   0  0  0  0  0  0  0  0  0  0  0  0
   -9.2218   -8.1376   -0.0000 C   0  0  0  0  0  0  0  0  0  0  0  0
  -10.5204   -5.8857   -0.0000 C   0  0  0  0  0  0  0  0  0  0  0  0
  -10.5324   -8.8763   -0.0000 C   0  0  0  0  0  0  0  0  0  0  0  0
  -11.8310   -6.6244   -0.0000 C   0  0  0  0  0  0  0  0  0  0  0  0
  -11.8549   -8.1137   -0.0000 N   0  0  0  0  0  0  0  0  0  0  0  0
  -10.5324  -10.3656   -0.0000 C   0  0  0  0  0  0  0  0  0  0  0  0
  1  2  1  0  0  0  0
  2  3  2  0  0  0  0
  2  4  1  0  0  0  0
  3  5  1  0  0  0  0
  4  6  2  0  0  0  0
  5  7  1  0  0  0  0
  5  8  2  0  0  0  0
  6  9  1  0  0  0  0
  9 10  2  0  0  0  0
  9 11  2  0  0  0  0
  9 12  1  0  0  0  0
 12 13  1  0  0  0  0
 13 14  2  0  0  0  0
 13 15  1  0  0  0  0
 14 16  1  0  0  0  0
 15 17  2  0  0  0  0
 16 18  2  0  0  0  0
 18 19  1  0  0  0  0
 19 20  2  0  0  0  0
 19 21  1  0  0  0  0
 20 22  1  0  0  0  0
 21 23  2  0  0  0  0
 22 24  2  0  0  0  0
 22 25  1  0  0  0  0
  6  8  1  0  0  0  0
 17 18  1  0  0  0  0
 23 24  1  0  0  0  0
M  END
>  <MolRegNo>
1604511

>  <m>
=

>  <Value>
4700

>  <Unit>
nM

>  <Type>
IC50

>  <pValue>
5.33

>  <Ligand Efficiency>
0

>  <Binding Efficiency>
0

>  <Surface Efficiency>
0

>  <Assay Index>
809405

>  <Assay Category>


>  <Assay Organism>
Homo sapiens

>  <Target ID>
17045

>  <Target Name>
Cytochrome P450 3A4

>  <Target Organism>
Homo sapiens

>  <Target Description>
Target is a single protein chain

>  <Sequence Accession>
P08684

>  <Reference>
Bioorg Med Chem Lett 23 (23), 6447-6454 (2013)

>  <Pubmed ID>
24139583

>  <DOI>
10.1016/j.bmcl.2013.09.041

$$$$
1604510
Actelion Java MolfileCreator 1.0

 24 26  0  0  0  0  0  0  0  0999 V2000
    0.0000   -0.0000   -0.0000 Cl  0  0  0  0  0  0  0  0  0  0  0  0
   -0.0119   -1.4888   -0.0000 C   0  0  0  0  0  0  0  0  0  0  0  0
    1.2744   -2.2273   -0.0000 C   0  0  0  0  0  0  0  0  0  0  0  0
   -1.3221   -2.2273   -0.0000 C   0  0  0  0  0  0  0  0  0  0  0  0
    1.2625   -3.7280   -0.0000 C   0  0  0  0  0  0  0  0  0  0  0  0
   -1.3340   -3.7280   -0.0000 C   0  0  0  0  0  0  0  0  0  0  0  0
    2.5489   -4.4665   -0.0000 Cl  0  0  0  0  0  0  0  0  0  0  0  0
   -0.0596   -4.4665   -0.0000 C   0  0  0  0  0  0  0  0  0  0  0  0
   -2.6442   -4.4665   -0.0000 S   0  0  0  0  0  0  0  0  0  0  0  0
   -3.4184   -5.7529   -0.0000 O   0  0  0  0  0  0  0  0  0  0  0  0
   -2.2749   -5.8958   -0.0000 O   0  0  0  0  0  0  0  0  0  0  0  0
   -3.9543   -3.7042   -0.0000 N   0  0  0  0  0  0  0  0  0  0  0  0
   -5.2645   -4.4427   -0.0000 C   0  0  0  0  0  0  0  0  0  0  0  0
   -6.5747   -3.6685   -0.0000 C   0  0  0  0  0  0  0  0  0  0  0  0
   -5.2764   -5.9315   -0.0000 C   0  0  0  0  0  0  0  0  0  0  0  0
   -7.8849   -4.4070   -0.0000 C   0  0  0  0  0  0  0  0  0  0  0  0
   -6.5866   -6.6700   -0.0000 C   0  0  0  0  0  0  0  0  0  0  0  0
   -7.8968   -5.8958   -0.0000 C   0  0  0  0  0  0  0  0  0  0  0  0
   -9.2070   -6.6342   -0.0000 C   0  0  0  0  0  0  0  0  0  0  0  0
  -10.5171   -5.8720   -0.0000 C   0  0  0  0  0  0  0  0  0  0  0  0
   -9.2189   -8.1231   -0.0000 C   0  0  0  0  0  0  0  0  0  0  0  0
  -11.8273   -6.6104   -0.0000 N   0  0  0  0  0  0  0  0  0  0  0  0
  -10.5290   -8.8615   -0.0000 N   0  0  0  0  0  0  0  0  0  0  0  0
  -11.8392   -8.0993   -0.0000 C   0  0  0  0  0  0  0  0  0  0  0  0
  1  2  1  0  0  0  0
  2  3  2  0  0  0  0
  2  4  1  0  0  0  0
  3  5  1  0  0  0  0
  4  6  2  0  0  0  0
  5  7  1  0  0  0  0
  5  8  2  0  0  0  0
  6  9  1  0  0  0  0
  9 10  2  0  0  0  0
  9 11  2  0  0  0  0
  9 12  1  0  0  0  0
 12 13  1  0  0  0  0
 13 14  2  0  0  0  0
 13 15  1  0  0  0  0
 14 16  1  0  0  0  0
 15 17  2  0  0  0  0
 16 18  2  0  0  0  0
 18 19  1  0  0  0  0
 19 20  2  0  0  0  0
 19 21  1  0  0  0  0
 20 22  1  0  0  0  0
 21 23  2  0  0  0  0
 22 24  2  0  0  0  0
  6  8  1  0  0  0  0
 17 18  1  0  0  0  0
 23 24  1  0  0  0  0
M  END
>  <MolRegNo>
1604510

>  <m>
=

>  <Value>
3500

>  <Unit>
nM

>  <Type>
IC50

>  <pValue>
5.46

>  <Ligand Efficiency>
0

>  <Binding Efficiency>
0

>  <Surface Efficiency>
0

>  <Assay Index>
809405

>  <Assay Category>


>  <Assay Organism>
Homo sapiens

>  <Target ID>
17045

>  <Target Name>
Cytochrome P450 3A4

>  <Target Organism>
Homo sapiens

>  <Target Description>
Target is a single protein chain

>  <Sequence Accession>
P08684

>  <Reference>
Bioorg Med Chem Lett 23 (23), 6447-6454 (2013)

>  <Pubmed ID>
24139583

>  <DOI>
10.1016/j.bmcl.2013.09.041

$$$$
1604509
Actelion Java MolfileCreator 1.0

 24 26  0  0  0  0  0  0  0  0999 V2000
    0.0000   -0.0000   -0.0000 Cl  0  0  0  0  0  0  0  0  0  0  0  0
   -0.0119   -1.4888   -0.0000 C   0  0  0  0  0  0  0  0  0  0  0  0
    1.2744   -2.2273   -0.0000 C   0  0  0  0  0  0  0  0  0  0  0  0
   -1.3221   -2.2273   -0.0000 C   0  0  0  0  0  0  0  0  0  0  0  0
    1.2625   -3.7280   -0.0000 C   0  0  0  0  0  0  0  0  0  0  0  0
   -1.3340   -3.7280   -0.0000 C   0  0  0  0  0  0  0  0  0  0  0  0
    2.5489   -4.4665   -0.0000 Cl  0  0  0  0  0  0  0  0  0  0  0  0
   -0.0596   -4.4665   -0.0000 C   0  0  0  0  0  0  0  0  0  0  0  0
   -2.6442   -4.4665   -0.0000 S   0  0  0  0  0  0  0  0  0  0  0  0
   -3.4184   -5.7529   -0.0000 O   0  0  0  0  0  0  0  0  0  0  0  0
   -2.2749   -5.8958   -0.0000 O   0  0  0  0  0  0  0  0  0  0  0  0
   -3.9543   -3.7042   -0.0000 N   0  0  0  0  0  0  0  0  0  0  0  0
   -5.2645   -4.4427   -0.0000 C   0  0  0  0  0  0  0  0  0  0  0  0
   -6.5747   -3.6685   -0.0000 C   0  0  0  0  0  0  0  0  0  0  0  0
   -5.2764   -5.9315   -0.0000 C   0  0  0  0  0  0  0  0  0  0  0  0
   -7.8849   -4.4070   -0.0000 C   0  0  0  0  0  0  0  0  0  0  0  0
   -6.5866   -6.6700   -0.0000 C   0  0  0  0  0  0  0  0  0  0  0  0
   -7.8968   -5.8958   -0.0000 C   0  0  0  0  0  0  0  0  0  0  0  0
   -9.2070   -6.6342   -0.0000 C   0  0  0  0  0  0  0  0  0  0  0  0
  -10.5171   -5.8720   -0.0000 N   0  0  0  0  0  0  0  0  0  0  0  0
   -9.2189   -8.1231   -0.0000 N   0  0  0  0  0  0  0  0  0  0  0  0
  -11.8273   -6.6104   -0.0000 C   0  0  0  0  0  0  0  0  0  0  0  0
  -10.5290   -8.8615   -0.0000 C   0  0  0  0  0  0  0  0  0  0  0  0
  -11.8392   -8.0993   -0.0000 C   0  0  0  0  0  0  0  0  0  0  0  0
  1  2  1  0  0  0  0
  2  3  2  0  0  0  0
  2  4  1  0  0  0  0
  3  5  1  0  0  0  0
  4  6  2  0  0  0  0
  5  7  1  0  0  0  0
  5  8  2  0  0  0  0
  6  9  1  0  0  0  0
  9 10  2  0  0  0  0
  9 11  2  0  0  0  0
  9 12  1  0  0  0  0
 12 13  1  0  0  0  0
 13 14  2  0  0  0  0
 13 15  1  0  0  0  0
 14 16  1  0  0  0  0
 15 17  2  0  0  0  0
 16 18  2  0  0  0  0
 18 19  1  0  0  0  0
 19 20  2  0  0  0  0
 19 21  1  0  0  0  0
 20 22  1  0  0  0  0
 21 23  2  0  0  0  0
 22 24  2  0  0  0  0
  6  8  1  0  0  0  0
 17 18  1  0  0  0  0
 23 24  1  0  0  0  0
M  END
>  <MolRegNo>
1604509

>  <m>
=

>  <Value>
16200

>  <Unit>
nM

>  <Type>
IC50

>  <pValue>
4.79

>  <Ligand Efficiency>
0

>  <Binding Efficiency>
0

>  <Surface Efficiency>
0

>  <Assay Index>
809405

>  <Assay Category>


>  <Assay Organism>
Homo sapiens

>  <Target ID>
17045

>  <Target Name>
Cytochrome P450 3A4

>  <Target Organism>
Homo sapiens

>  <Target Description>
Target is a single protein chain

>  <Sequence Accession>
P08684

>  <Reference>
Bioorg Med Chem Lett 23 (23), 6447-6454 (2013)

>  <Pubmed ID>
24139583

>  <DOI>
10.1016/j.bmcl.2013.09.041

$$$$
1604832
Actelion Java MolfileCreator 1.0

 24 26  0  0  0  0  0  0  0  0999 V2000
    0.0000   -0.0000   -0.0000 Cl  0  0  0  0  0  0  0  0  0  0  0  0
   -0.0119   -1.4888   -0.0000 C   0  0  0  0  0  0  0  0  0  0  0  0
    1.2744   -2.2273   -0.0000 C   0  0  0  0  0  0  0  0  0  0  0  0
   -1.3221   -2.2273   -0.0000 C   0  0  0  0  0  0  0  0  0  0  0  0
    1.2625   -3.7280   -0.0000 C   0  0  0  0  0  0  0  0  0  0  0  0
   -1.3340   -3.7280   -0.0000 C   0  0  0  0  0  0  0  0  0  0  0  0
    2.5489   -4.4665   -0.0000 Cl  0  0  0  0  0  0  0  0  0  0  0  0
   -0.0596   -4.4665   -0.0000 C   0  0  0  0  0  0  0  0  0  0  0  0
   -2.6442   -4.4665   -0.0000 S   0  0  0  0  0  0  0  0  0  0  0  0
   -3.4184   -5.7529   -0.0000 O   0  0  0  0  0  0  0  0  0  0  0  0
   -2.2749   -5.8958   -0.0000 O   0  0  0  0  0  0  0  0  0  0  0  0
   -3.9543   -3.7042   -0.0000 N   0  0  0  0  0  0  0  0  0  0  0  0
   -5.2645   -4.4427   -0.0000 C   0  0  0  0  0  0  0  0  0  0  0  0
   -6.5747   -3.6685   -0.0000 C   0  0  0  0  0  0  0  0  0  0  0  0
   -5.2764   -5.9315   -0.0000 C   0  0  0  0  0  0  0  0  0  0  0  0
   -7.8849   -4.4070   -0.0000 C   0  0  0  0  0  0  0  0  0  0  0  0
   -6.5866   -6.6700   -0.0000 C   0  0  0  0  0  0  0  0  0  0  0  0
   -7.8968   -5.8958   -0.0000 C   0  0  0  0  0  0  0  0  0  0  0  0
   -9.2070   -6.6342   -0.0000 C   0  0  0  0  0  0  0  0  0  0  0  0
  -10.5171   -5.8720   -0.0000 C   0  0  0  0  0  0  0  0  0  0  0  0
   -9.2189   -8.1231   -0.0000 C   0  0  0  0  0  0  0  0  0  0  0  0
  -11.8273   -6.6104   -0.0000 C   0  0  0  0  0  0  0  0  0  0  0  0
  -10.5290   -8.8615   -0.0000 C   0  0  0  0  0  0  0  0  0  0  0  0
  -11.8392   -8.0993   -0.0000 N   0  0  0  0  0  0  0  0  0  0  0  0
  1  2  1  0  0  0  0
  2  3  2  0  0  0  0
  2  4  1  0  0  0  0
  3  5  1  0  0  0  0
  4  6  2  0  0  0  0
  5  7  1  0  0  0  0
  5  8  2  0  0  0  0
  6  9  1  0  0  0  0
  9 10  2  0  0  0  0
  9 11  2  0  0  0  0
  9 12  1  0  0  0  0
 12 13  1  0  0  0  0
 13 14  2  0  0  0  0
 13 15  1  0  0  0  0
 14 16  1  0  0  0  0
 15 17  2  0  0  0  0
 16 18  2  0  0  0  0
 18 19  1  0  0  0  0
 19 20  2  0  0  0  0
 19 21  1  0  0  0  0
 20 22  1  0  0  0  0
 21 23  2  0  0  0  0
 22 24  2  0  0  0  0
  6  8  1  0  0  0  0
 17 18  1  0  0  0  0
 23 24  1  0  0  0  0
M  END
>  <MolRegNo>
1604832

>  <m>
=

>  <Value>
600

>  <Unit>
nM

>  <Type>
IC50

>  <pValue>
6.22

>  <Ligand Efficiency>
0

>  <Binding Efficiency>
0

>  <Surface Efficiency>
0

>  <Assay Index>
809405

>  <Assay Category>


>  <Assay Organism>
Homo sapiens

>  <Target ID>
17045

>  <Target Name>
Cytochrome P450 3A4

>  <Target Organism>
Homo sapiens

>  <Target Description>
Target is a single protein chain

>  <Sequence Accession>
P08684

>  <Reference>
Bioorg Med Chem Lett 23 (23), 6447-6454 (2013)

>  <Pubmed ID>
24139583

>  <DOI>
10.1016/j.bmcl.2013.09.041

$$$$
1604829
Actelion Java MolfileCreator 1.0

 23 25  0  0  0  0  0  0  0  0999 V2000
    0.0000   -0.0000   -0.0000 Cl  0  0  0  0  0  0  0  0  0  0  0  0
   -0.0119   -1.4892   -0.0000 C   0  0  0  0  0  0  0  0  0  0  0  0
    1.2748   -2.2279   -0.0000 C   0  0  0  0  0  0  0  0  0  0  0  0
   -1.3224   -2.2279   -0.0000 C   0  0  0  0  0  0  0  0  0  0  0  0
    1.2629   -3.7290   -0.0000 C   0  0  0  0  0  0  0  0  0  0  0  0
   -1.3343   -3.7290   -0.0000 C   0  0  0  0  0  0  0  0  0  0  0  0
    2.5496   -4.4677   -0.0000 Cl  0  0  0  0  0  0  0  0  0  0  0  0
   -0.0596   -4.4677   -0.0000 C   0  0  0  0  0  0  0  0  0  0  0  0
   -2.6449   -4.4677   -0.0000 S   0  0  0  0  0  0  0  0  0  0  0  0
   -3.4193   -5.7544   -0.0000 O   0  0  0  0  0  0  0  0  0  0  0  0
   -2.2755   -5.8973   -0.0000 O   0  0  0  0  0  0  0  0  0  0  0  0
   -3.9554   -3.7052   -0.0000 N   0  0  0  0  0  0  0  0  0  0  0  0
   -5.2659   -4.4439   -0.0000 C   0  0  0  0  0  0  0  0  0  0  0  0
   -6.5764   -3.6695   -0.0000 C   0  0  0  0  0  0  0  0  0  0  0  0
   -5.2778   -5.9331   -0.0000 C   0  0  0  0  0  0  0  0  0  0  0  0
   -7.8870   -4.4081   -0.0000 C   0  0  0  0  0  0  0  0  0  0  0  0
   -6.5884   -6.6717   -0.0000 C   0  0  0  0  0  0  0  0  0  0  0  0
   -7.8989   -5.8973   -0.0000 C   0  0  0  0  0  0  0  0  0  0  0  0
   -9.2213   -6.6360   -0.0000 N   0  0  0  0  0  0  0  0  0  0  0  0
   -9.3881   -8.1133   -0.0000 C   0  0  0  0  0  0  0  0  0  0  0  0
  -10.6033   -6.0165   -0.0000 C   0  0  0  0  0  0  0  0  0  0  0  0
  -10.8654   -8.4112   -0.0000 N   0  0  0  0  0  0  0  0  0  0  0  0
  -11.6160   -7.1245   -0.0000 C   0  0  0  0  0  0  0  0  0  0  0  0
  1  2  1  0  0  0  0
  2  3  2  0  0  0  0
  2  4  1  0  0  0  0
  3  5  1  0  0  0  0
  4  6  2  0  0  0  0
  5  7  1  0  0  0  0
  5  8  2  0  0  0  0
  6  9  1  0  0  0  0
  9 10  2  0  0  0  0
  9 11  2  0  0  0  0
  9 12  1  0  0  0  0
 12 13  1  0  0  0  0
 13 14  2  0  0  0  0
 13 15  1  0  0  0  0
 14 16  1  0  0  0  0
 15 17  2  0  0  0  0
 16 18  2  0  0  0  0
 18 19  1  0  0  0  0
 19 20  1  0  0  0  0
 19 21  1  0  0  0  0
 20 22  2  0  0  0  0
 21 23  2  0  0  0  0
  6  8  1  0  0  0  0
 17 18  1  0  0  0  0
 22 23  1  0  0  0  0
M  END
>  <MolRegNo>
1604829

>  <m>
=

>  <Value>
100

>  <Unit>
nM

>  <Type>
IC50

>  <pValue>
7

>  <Ligand Efficiency>
0

>  <Binding Efficiency>
0

>  <Surface Efficiency>
0

>  <Assay Index>
809405

>  <Assay Category>


>  <Assay Organism>
Homo sapiens

>  <Target ID>
17045

>  <Target Name>
Cytochrome P450 3A4

>  <Target Organism>
Homo sapiens

>  <Target Description>
Target is a single protein chain

>  <Sequence Accession>
P08684

>  <Reference>
Bioorg Med Chem Lett 23 (23), 6447-6454 (2013)

>  <Pubmed ID>
24139583

>  <DOI>
10.1016/j.bmcl.2013.09.041

$$$$
1604828
Actelion Java MolfileCreator 1.0

 23 25  0  0  0  0  0  0  0  0999 V2000
    0.0000   -0.0000   -0.0000 Cl  0  0  0  0  0  0  0  0  0  0  0  0
   -0.0119   -1.4897   -0.0000 C   0  0  0  0  0  0  0  0  0  0  0  0
    1.2752   -2.2286   -0.0000 C   0  0  0  0  0  0  0  0  0  0  0  0
   -1.3229   -2.2286   -0.0000 C   0  0  0  0  0  0  0  0  0  0  0  0
    1.2633   -3.7302   -0.0000 C   0  0  0  0  0  0  0  0  0  0  0  0
   -1.3348   -3.7302   -0.0000 C   0  0  0  0  0  0  0  0  0  0  0  0
    2.5504   -4.4691   -0.0000 Cl  0  0  0  0  0  0  0  0  0  0  0  0
   -0.0596   -4.4691   -0.0000 C   0  0  0  0  0  0  0  0  0  0  0  0
   -2.6457   -4.4691   -0.0000 S   0  0  0  0  0  0  0  0  0  0  0  0
   -3.4204   -5.7562   -0.0000 O   0  0  0  0  0  0  0  0  0  0  0  0
   -2.2763   -5.8992   -0.0000 O   0  0  0  0  0  0  0  0  0  0  0  0
   -3.9567   -3.7064   -0.0000 N   0  0  0  0  0  0  0  0  0  0  0  0
   -5.2676   -4.4453   -0.0000 C   0  0  0  0  0  0  0  0  0  0  0  0
   -6.5786   -3.6826   -0.0000 C   0  0  0  0  0  0  0  0  0  0  0  0
   -5.2795   -5.9350   -0.0000 C   0  0  0  0  0  0  0  0  0  0  0  0
   -7.8895   -4.4215   -0.0000 C   0  0  0  0  0  0  0  0  0  0  0  0
   -6.5905   -6.6739   -0.0000 C   0  0  0  0  0  0  0  0  0  0  0  0
   -7.9014   -5.9112   -0.0000 C   0  0  0  0  0  0  0  0  0  0  0  0
   -9.2243   -6.6501   -0.0000 C   0  0  0  0  0  0  0  0  0  0  0  0
   -9.3911   -8.1278   -0.0000 N   0  0  0  0  0  0  0  0  0  0  0  0
  -10.6067   -6.0303   -0.0000 C   0  0  0  0  0  0  0  0  0  0  0  0
  -10.8689   -8.4258   -0.0000 N   0  0  0  0  0  0  0  0  0  0  0  0
  -11.6197   -7.1387   -0.0000 C   0  0  0  0  0  0  0  0  0  0  0  0
  1  2  1  0  0  0  0
  2  3  2  0  0  0  0
  2  4  1  0  0  0  0
  3  5  1  0  0  0  0
  4  6  2  0  0  0  0
  5  7  1  0  0  0  0
  5  8  2  0  0  0  0
  6  9  1  0  0  0  0
  9 10  2  0  0  0  0
  9 11  2  0  0  0  0
  9 12  1  0  0  0  0
 12 13  1  0  0  0  0
 13 14  2  0  0  0  0
 13 15  1  0  0  0  0
 14 16  1  0  0  0  0
 15 17  2  0  0  0  0
 16 18  2  0  0  0  0
 18 19  1  0  0  0  0
 19 20  2  0  0  0  0
 19 21  1  0  0  0  0
 20 22  1  0  0  0  0
 21 23  2  0  0  0  0
  6  8  1  0  0  0  0
 17 18  1  0  0  0  0
 22 23  1  0  0  0  0
M  END
>  <MolRegNo>
1604828

>  <m>
=

>  <Value>
15300

>  <Unit>
nM

>  <Type>
IC50

>  <pValue>
4.82

>  <Ligand Efficiency>
0

>  <Binding Efficiency>
0

>  <Surface Efficiency>
0

>  <Assay Index>
809405

>  <Assay Category>


>  <Assay Organism>
Homo sapiens

>  <Target ID>
17045

>  <Target Name>
Cytochrome P450 3A4

>  <Target Organism>
Homo sapiens

>  <Target Description>
Target is a single protein chain

>  <Sequence Accession>
P08684

>  <Reference>
Bioorg Med Chem Lett 23 (23), 6447-6454 (2013)

>  <Pubmed ID>
24139583

>  <DOI>
10.1016/j.bmcl.2013.09.041

$$$$
1604826
Actelion Java MolfileCreator 1.0

 23 25  0  0  0  0  0  0  0  0999 V2000
    0.0000   -0.0000   -0.0000 Cl  0  0  0  0  0  0  0  0  0  0  0  0
   -0.0119   -1.4892   -0.0000 C   0  0  0  0  0  0  0  0  0  0  0  0
    1.2748   -2.2279   -0.0000 C   0  0  0  0  0  0  0  0  0  0  0  0
   -1.3224   -2.2279   -0.0000 C   0  0  0  0  0  0  0  0  0  0  0  0
    1.2629   -3.7290   -0.0000 C   0  0  0  0  0  0  0  0  0  0  0  0
   -1.3343   -3.7290   -0.0000 C   0  0  0  0  0  0  0  0  0  0  0  0
    2.5496   -4.4677   -0.0000 Cl  0  0  0  0  0  0  0  0  0  0  0  0
   -0.0596   -4.4677   -0.0000 C   0  0  0  0  0  0  0  0  0  0  0  0
   -2.6449   -4.4677   -0.0000 S   0  0  0  0  0  0  0  0  0  0  0  0
   -3.4193   -5.7544   -0.0000 O   0  0  0  0  0  0  0  0  0  0  0  0
   -2.2755   -5.8973   -0.0000 O   0  0  0  0  0  0  0  0  0  0  0  0
   -3.9554   -3.7052   -0.0000 N   0  0  0  0  0  0  0  0  0  0  0  0
   -5.2659   -4.4439   -0.0000 C   0  0  0  0  0  0  0  0  0  0  0  0
   -6.5764   -3.6695   -0.0000 C   0  0  0  0  0  0  0  0  0  0  0  0
   -5.2778   -5.9331   -0.0000 C   0  0  0  0  0  0  0  0  0  0  0  0
   -7.8870   -4.4081   -0.0000 C   0  0  0  0  0  0  0  0  0  0  0  0
   -6.5884   -6.6717   -0.0000 C   0  0  0  0  0  0  0  0  0  0  0  0
   -7.8989   -5.8973   -0.0000 C   0  0  0  0  0  0  0  0  0  0  0  0
   -9.2213   -6.6360   -0.0000 C   0  0  0  0  0  0  0  0  0  0  0  0
  -10.6033   -6.0165   -0.0000 O   0  0  0  0  0  0  0  0  0  0  0  0
   -9.3881   -8.1133   -0.0000 N   0  0  0  0  0  0  0  0  0  0  0  0
  -11.6160   -7.1245   -0.0000 C   0  0  0  0  0  0  0  0  0  0  0  0
  -10.8654   -8.4112   -0.0000 N   0  0  0  0  0  0  0  0  0  0  0  0
  1  2  1  0  0  0  0
  2  3  2  0  0  0  0
  2  4  1  0  0  0  0
  3  5  1  0  0  0  0
  4  6  2  0  0  0  0
  5  7  1  0  0  0  0
  5  8  2  0  0  0  0
  6  9  1  0  0  0  0
  9 10  2  0  0  0  0
  9 11  2  0  0  0  0
  9 12  1  0  0  0  0
 12 13  1  0  0  0  0
 13 14  2  0  0  0  0
 13 15  1  0  0  0  0
 14 16  1  0  0  0  0
 15 17  2  0  0  0  0
 16 18  2  0  0  0  0
 18 19  1  0  0  0  0
 19 20  1  0  0  0  0
 19 21  2  0  0  0  0
 20 22  1  0  0  0  0
 21 23  1  0  0  0  0
  6  8  1  0  0  0  0
 17 18  1  0  0  0  0
 22 23  2  0  0  0  0
M  END
>  <MolRegNo>
1604826

>  <m>
=

>  <Value>
27000

>  <Unit>
nM

>  <Type>
IC50

>  <pValue>
4.57

>  <Ligand Efficiency>
0

>  <Binding Efficiency>
0

>  <Surface Efficiency>
0

>  <Assay Index>
809405

>  <Assay Category>


>  <Assay Organism>
Homo sapiens

>  <Target ID>
17045

>  <Target Name>
Cytochrome P450 3A4

>  <Target Organism>
Homo sapiens

>  <Target Description>
Target is a single protein chain

>  <Sequence Accession>
P08684

>  <Reference>
Bioorg Med Chem Lett 23 (23), 6447-6454 (2013)

>  <Pubmed ID>
24139583

>  <DOI>
10.1016/j.bmcl.2013.09.041

$$$$
1604825
Actelion Java MolfileCreator 1.0

 23 25  0  0  0  0  0  0  0  0999 V2000
    0.0000   -0.0000   -0.0000 Cl  0  0  0  0  0  0  0  0  0  0  0  0
   -0.0119   -1.4892   -0.0000 C   0  0  0  0  0  0  0  0  0  0  0  0
    1.2748   -2.2279   -0.0000 C   0  0  0  0  0  0  0  0  0  0  0  0
   -1.3224   -2.2279   -0.0000 C   0  0  0  0  0  0  0  0  0  0  0  0
    1.2629   -3.7290   -0.0000 C   0  0  0  0  0  0  0  0  0  0  0  0
   -1.3343   -3.7290   -0.0000 C   0  0  0  0  0  0  0  0  0  0  0  0
    2.5496   -4.4677   -0.0000 Cl  0  0  0  0  0  0  0  0  0  0  0  0
   -0.0596   -4.4677   -0.0000 C   0  0  0  0  0  0  0  0  0  0  0  0
   -2.6449   -4.4677   -0.0000 S   0  0  0  0  0  0  0  0  0  0  0  0
   -3.4193   -5.7544   -0.0000 O   0  0  0  0  0  0  0  0  0  0  0  0
   -2.2755   -5.8973   -0.0000 O   0  0  0  0  0  0  0  0  0  0  0  0
   -3.9554   -3.7052   -0.0000 N   0  0  0  0  0  0  0  0  0  0  0  0
   -5.2659   -4.4439   -0.0000 C   0  0  0  0  0  0  0  0  0  0  0  0
   -6.5764   -3.6695   -0.0000 C   0  0  0  0  0  0  0  0  0  0  0  0
   -5.2778   -5.9331   -0.0000 C   0  0  0  0  0  0  0  0  0  0  0  0
   -7.8870   -4.4081   -0.0000 C   0  0  0  0  0  0  0  0  0  0  0  0
   -6.5884   -6.6717   -0.0000 C   0  0  0  0  0  0  0  0  0  0  0  0
   -7.8989   -5.8973   -0.0000 C   0  0  0  0  0  0  0  0  0  0  0  0
   -9.2213   -6.6360   -0.0000 C   0  0  0  0  0  0  0  0  0  0  0  0
  -10.6033   -6.0165   -0.0000 O   0  0  0  0  0  0  0  0  0  0  0  0
   -9.3881   -8.1133   -0.0000 C   0  0  0  0  0  0  0  0  0  0  0  0
  -11.6160   -7.1245   -0.0000 C   0  0  0  0  0  0  0  0  0  0  0  0
  -10.8654   -8.4112   -0.0000 C   0  0  0  0  0  0  0  0  0  0  0  0
  1  2  1  0  0  0  0
  2  3  2  0  0  0  0
  2  4  1  0  0  0  0
  3  5  1  0  0  0  0
  4  6  2  0  0  0  0
  5  7  1  0  0  0  0
  5  8  2  0  0  0  0
  6  9  1  0  0  0  0
  9 10  2  0  0  0  0
  9 11  2  0  0  0  0
  9 12  1  0  0  0  0
 12 13  1  0  0  0  0
 13 14  2  0  0  0  0
 13 15  1  0  0  0  0
 14 16  1  0  0  0  0
 15 17  2  0  0  0  0
 16 18  2  0  0  0  0
 18 19  1  0  0  0  0
 19 20  1  0  0  0  0
 19 21  2  0  0  0  0
 20 22  1  0  0  0  0
 21 23  1  0  0  0  0
  6  8  1  0  0  0  0
 17 18  1  0  0  0  0
 22 23  2  0  0  0  0
M  END
>  <MolRegNo>
1604825

>  <m>
=

>  <Value>
13000

>  <Unit>
nM

>  <Type>
IC50

>  <pValue>
4.89

>  <Ligand Efficiency>
0

>  <Binding Efficiency>
0

>  <Surface Efficiency>
0

>  <Assay Index>
809405

>  <Assay Category>


>  <Assay Organism>
Homo sapiens

>  <Target ID>
17045

>  <Target Name>
Cytochrome P450 3A4

>  <Target Organism>
Homo sapiens

>  <Target Description>
Target is a single protein chain

>  <Sequence Accession>
P08684

>  <Reference>
Bioorg Med Chem Lett 23 (23), 6447-6454 (2013)

>  <Pubmed ID>
24139583

>  <DOI>
10.1016/j.bmcl.2013.09.041

$$$$
1604824
Actelion Java MolfileCreator 1.0

 23 25  0  0  0  0  0  0  0  0999 V2000
    0.0000   -0.0000   -0.0000 Cl  0  0  0  0  0  0  0  0  0  0  0  0
   -0.0119   -1.4897   -0.0000 C   0  0  0  0  0  0  0  0  0  0  0  0
    1.2752   -2.2286   -0.0000 C   0  0  0  0  0  0  0  0  0  0  0  0
   -1.3229   -2.2286   -0.0000 C   0  0  0  0  0  0  0  0  0  0  0  0
    1.2633   -3.7302   -0.0000 C   0  0  0  0  0  0  0  0  0  0  0  0
   -1.3348   -3.7302   -0.0000 C   0  0  0  0  0  0  0  0  0  0  0  0
    2.5504   -4.4691   -0.0000 Cl  0  0  0  0  0  0  0  0  0  0  0  0
   -0.0596   -4.4691   -0.0000 C   0  0  0  0  0  0  0  0  0  0  0  0
   -2.6457   -4.4691   -0.0000 S   0  0  0  0  0  0  0  0  0  0  0  0
   -3.4204   -5.7562   -0.0000 O   0  0  0  0  0  0  0  0  0  0  0  0
   -2.2763   -5.8992   -0.0000 O   0  0  0  0  0  0  0  0  0  0  0  0
   -3.9567   -3.7064   -0.0000 N   0  0  0  0  0  0  0  0  0  0  0  0
   -5.2676   -4.4453   -0.0000 C   0  0  0  0  0  0  0  0  0  0  0  0
   -6.5786   -3.6826   -0.0000 C   0  0  0  0  0  0  0  0  0  0  0  0
   -5.2795   -5.9350   -0.0000 C   0  0  0  0  0  0  0  0  0  0  0  0
   -7.8895   -4.4215   -0.0000 C   0  0  0  0  0  0  0  0  0  0  0  0
   -6.5905   -6.6739   -0.0000 C   0  0  0  0  0  0  0  0  0  0  0  0
   -7.9014   -5.9112   -0.0000 C   0  0  0  0  0  0  0  0  0  0  0  0
   -9.2243   -6.6501   -0.0000 C   0  0  0  0  0  0  0  0  0  0  0  0
  -10.6067   -6.0303   -0.0000 O   0  0  0  0  0  0  0  0  0  0  0  0
   -9.3911   -8.1278   -0.0000 C   0  0  0  0  0  0  0  0  0  0  0  0
  -11.6197   -7.1387   -0.0000 C   0  0  0  0  0  0  0  0  0  0  0  0
  -10.8689   -8.4258   -0.0000 N   0  0  0  0  0  0  0  0  0  0  0  0
  1  2  1  0  0  0  0
  2  3  2  0  0  0  0
  2  4  1  0  0  0  0
  3  5  1  0  0  0  0
  4  6  2  0  0  0  0
  5  7  1  0  0  0  0
  5  8  2  0  0  0  0
  6  9  1  0  0  0  0
  9 10  2  0  0  0  0
  9 11  2  0  0  0  0
  9 12  1  0  0  0  0
 12 13  1  0  0  0  0
 13 14  2  0  0  0  0
 13 15  1  0  0  0  0
 14 16  1  0  0  0  0
 15 17  2  0  0  0  0
 16 18  2  0  0  0  0
 18 19  1  0  0  0  0
 19 20  1  0  0  0  0
 19 21  2  0  0  0  0
 20 22  1  0  0  0  0
 21 23  1  0  0  0  0
  6  8  1  0  0  0  0
 17 18  1  0  0  0  0
 22 23  2  0  0  0  0
M  END
>  <MolRegNo>
1604824

>  <m>
=

>  <Value>
1600

>  <Unit>
nM

>  <Type>
IC50

>  <pValue>
5.8

>  <Ligand Efficiency>
0

>  <Binding Efficiency>
0

>  <Surface Efficiency>
0

>  <Assay Index>
809405

>  <Assay Category>


>  <Assay Organism>
Homo sapiens

>  <Target ID>
17045

>  <Target Name>
Cytochrome P450 3A4

>  <Target Organism>
Homo sapiens

>  <Target Description>
Target is a single protein chain

>  <Sequence Accession>
P08684

>  <Reference>
Bioorg Med Chem Lett 23 (23), 6447-6454 (2013)

>  <Pubmed ID>
24139583

>  <DOI>
10.1016/j.bmcl.2013.09.041

$$$$
1603509
Actelion Java MolfileCreator 1.0

 40 45  0  0  0  0  0  0  0  0999 V2000
    0.0000   -0.0000   -0.0000 Cl  0  0  0  0  0  0  0  0  0  0  0  0
    1.2845    0.7731   -0.0000 C   0  0  0  0  0  0  0  0  0  0  0  0
    1.2726    2.2955   -0.0000 C   0  0  0  0  0  0  0  0  0  0  0  0
    2.5809    0.0357   -0.0000 C   0  0  0  0  0  0  0  0  0  0  0  0
    2.5571    3.0567   -0.0000 C   0  0  0  0  0  0  0  0  0  0  0  0
    3.8654    0.8088   -0.0000 C   0  0  0  0  0  0  0  0  0  0  0  0
    3.8416    2.3193   -0.0000 C   0  0  0  0  0  0  0  0  0  0  0  0
    5.1380    3.0804   -0.0000 C   0  0  0  0  0  0  0  0  0  0  0  0
    6.4345    2.3430   -0.0000 N   0  0  0  0  0  0  0  0  0  0  0  0
    7.7309    3.1042   -0.0000 C   0  0  0  0  0  0  0  0  0  0  0  0
    7.7190    4.6266   -0.0000 C   0  0  0  0  0  0  0  0  0  0  0  0
    9.0154    2.3668   -0.0000 C   0  0  0  0  0  0  0  0  0  0  0  0
    9.0035    5.3997   -0.0000 C   0  0  0  0  0  0  0  0  0  0  0  0
   10.2999    3.1280   -0.0000 C   0  0  0  0  0  0  0  0  0  0  0  0
    8.9916    6.9102   -0.0000 C   0  0  0  0  0  0  0  0  0  0  0  0
   10.2880    4.6504   -0.0000 C   0  0  0  0  0  0  0  0  0  0  0  0
    7.6714    7.6714   -0.0000 C   0  0  0  0  0  0  0  0  0  0  0  0
   10.2880    7.6714   -0.0000 C   0  0  0  0  0  0  0  0  0  0  0  0
   11.5844    5.4116   -0.0000 C   0  0  0  0  0  0  0  0  0  0  0  0
    7.6714    9.1938   -0.0000 C   0  0  0  0  0  0  0  0  0  0  0  0
    6.3512    6.9340   -0.0000 C   0  0  0  0  0  0  0  0  0  0  0  0
   10.2761    9.1819   -0.0000 C   0  0  0  0  0  0  0  0  0  0  0  0
   11.5725    6.9340   -0.0000 O   0  0  0  0  0  0  0  0  0  0  0  0
   12.8689    4.6623   -0.0000 N   0  0  0  0  0  0  0  0  0  0  0  0
    8.9678    9.9550   -0.0000 C   0  0  0  0  0  0  0  0  0  0  0  0
   13.2376    3.2113   -0.0000 C   0  0  0  0  0  0  0  0  0  0  0  0
   14.3080    5.0548   -0.0000 C   0  0  0  0  0  0  0  0  0  0  0  0
   14.6767    3.6038   -0.0000 C   0  0  0  0  0  0  0  0  0  0  0  0
   16.1159    4.0200   -0.0000 C   0  0  0  0  0  0  0  0  0  0  0  0
   15.0573    2.1646   -0.0000 C   0  0  0  0  0  0  0  0  0  0  0  0
   17.1744    2.9734   -0.0000 C   0  0  0  0  0  0  0  0  0  0  0  0
   16.4727    5.4830   -0.0000 C   0  0  0  0  0  0  0  0  0  0  0  0
   13.9869    1.1180   -0.0000 C   0  0  0  0  0  0  0  0  0  0  0  0
   16.4846    1.7959   -0.0000 C   0  0  0  0  0  0  0  0  0  0  0  0
   18.6135    3.3897   -0.0000 C   0  0  0  0  0  0  0  0  0  0  0  0
   17.9118    5.8992   -0.0000 C   0  0  0  0  0  0  0  0  0  0  0  0
   14.3556   -0.3092   -0.0000 C   0  0  0  0  0  0  0  0  0  0  0  0
   16.8652    0.3687   -0.0000 C   0  0  0  0  0  0  0  0  0  0  0  0
   18.9822    4.8645   -0.0000 C   0  0  0  0  0  0  0  0  0  0  0  0
   15.7947   -0.6898   -0.0000 C   0  0  0  0  0  0  0  0  0  0  0  0
  1  2  1  0  0  0  0
  2  3  2  0  0  0  0
  2  4  1  0  0  0  0
  3  5  1  0  0  0  0
  4  6  2  0  0  0  0
  5  7  2  0  0  0  0
  7  8  1  0  0  0  0
  8  9  1  0  0  0  0
 10  9  1  6  0  0  0
 10 11  1  0  0  0  0
 10 12  1  0  0  0  0
 11 13  1  0  0  0  0
 12 14  1  0  0  0  0
 13 15  1  6  0  0  0
 13 16  1  0  0  0  0
 15 17  2  0  0  0  0
 15 18  1  0  0  0  0
 16 19  1  1  0  0  0
 17 20  1  0  0  0  0
 17 21  1  0  0  0  0
 18 22  2  0  0  0  0
 19 23  2  0  0  0  0
 19 24  1  0  0  0  0
 20 25  2  0  0  0  0
 24 26  1  0  0  0  0
 24 27  1  0  0  0  0
 26 28  1  0  0  0  0
 28 29  1  0  0  0  0
 28 30  1  0  0  0  0
 29 31  2  0  0  0  0
 29 32  1  0  0  0  0
 30 33  2  0  0  0  0
 30 34  1  0  0  0  0
 31 35  1  0  0  0  0
 32 36  2  0  0  0  0
 33 37  1  0  0  0  0
 34 38  2  0  0  0  0
 35 39  2  0  0  0  0
 37 40  2  0  0  0  0
  6  7  1  0  0  0  0
 14 16  1  0  0  0  0
 22 25  1  0  0  0  0
 27 28  1  0  0  0  0
 36 39  1  0  0  0  0
 38 40  1  0  0  0  0
M  END
>  <MolRegNo>
1603509

>  <m>
=

>  <Value>
25000

>  <Unit>
nM

>  <Type>
IC50

>  <pValue>
4.6

>  <Ligand Efficiency>
0

>  <Binding Efficiency>
0

>  <Surface Efficiency>
0

>  <Assay Index>
808387

>  <Assay Category>


>  <Assay Organism>
Homo sapiens

>  <Target ID>
17045

>  <Target Name>
Cytochrome P450 3A4

>  <Target Organism>
Homo sapiens

>  <Target Description>
Target is a single protein chain

>  <Sequence Accession>
P08684

>  <Reference>
Bioorg Med Chem Lett 23 (23), 6228-6233 (2013)

>  <Pubmed ID>
24157366

>  <DOI>
10.1016/j.bmcl.2013.09.094

$$$$
1603542
Actelion Java MolfileCreator 1.0

 32 34  0  0  0  0  0  0  0  0999 V2000
    0.0000   -0.0000   -0.0000 S   0  0  0  0  0  0  0  0  0  0  0  0
   -0.7688    1.3129   -0.0000 O   0  0  0  0  0  0  0  0  0  0  0  0
    0.7333    1.3129   -0.0000 O   0  0  0  0  0  0  0  0  0  0  0  0
   -1.3011   -0.7451   -0.0000 N   0  0  0  0  0  0  0  0  0  0  0  0
    1.2892   -0.7333   -0.0000 N   0  0  0  0  0  0  0  0  0  0  0  0
   -2.6139    0.0118   -0.0000 C   0  0  0  0  0  0  0  0  0  0  0  0
   -3.9150   -0.7215   -0.0000 C   0  0  0  0  0  0  0  0  0  0  0  0
   -2.6258    1.5140   -0.0000 C   0  0  0  0  0  0  0  0  0  0  0  0
   -3.9268   -2.2000   -0.0000 F   0  0  0  0  0  0  0  0  0  0  0  0
   -5.2160    0.0355   -0.0000 C   0  0  0  0  0  0  0  0  0  0  0  0
   -3.9386    2.2709   -0.0000 C   0  0  0  0  0  0  0  0  0  0  0  0
   -5.2397    1.5258   -0.0000 C   0  0  0  0  0  0  0  0  0  0  0  0
   -6.5171   -0.7097   -0.0000 C   0  0  0  0  0  0  0  0  0  0  0  0
   -7.8300    0.0473   -0.0000 C   0  0  0  0  0  0  0  0  0  0  0  0
   -7.8536    1.5613   -0.0000 C   0  0  0  0  0  0  0  0  0  0  0  0
   -9.1310   -0.6860   -0.0000 C   0  0  0  0  0  0  0  0  0  0  0  0
   -6.5762    2.3301   -0.0000 O   0  0  0  0  0  0  0  0  0  0  0  0
   -9.1665    2.3064   -0.0000 O   0  0  0  0  0  0  0  0  0  0  0  0
  -10.4321    0.0710   -0.0000 C   0  0  0  0  0  0  0  0  0  0  0  0
   -9.1429   -2.1645   -0.0000 C   0  0  0  0  0  0  0  0  0  0  0  0
  -10.4676    1.5731   -0.0000 C   0  0  0  0  0  0  0  0  0  0  0  0
  -11.7331   -0.6742   -0.0000 C   0  0  0  0  0  0  0  0  0  0  0  0
  -11.7686    2.3301   -0.0000 C   0  0  0  0  0  0  0  0  0  0  0  0
  -13.0342    0.0828   -0.0000 C   0  0  0  0  0  0  0  0  0  0  0  0
  -13.0697    1.5967   -0.0000 C   0  0  0  0  0  0  0  0  0  0  0  0
  -14.3353   -0.6505   -0.0000 F   0  0  0  0  0  0  0  0  0  0  0  0
  -14.3707    2.3537   -0.0000 O   0  0  0  0  0  0  0  0  0  0  0  0
  -15.6718    1.6204   -0.0000 C   0  0  0  0  0  0  0  0  0  0  0  0
  -15.6836    0.1419   -0.0000 O   0  0  0  0  0  0  0  0  0  0  0  0
  -16.9728    2.3774   -0.0000 N   0  0  0  0  0  0  0  0  0  0  0  0
  -16.9847    3.8795   -0.0000 C   0  0  0  0  0  0  0  0  0  0  0  0
  -18.2739    1.6441   -0.0000 C   0  0  0  0  0  0  0  0  0  0  0  0
  1  2  2  0  0  0  0
  1  3  2  0  0  0  0
  1  4  1  0  0  0  0
  1  5  1  0  0  0  0
  4  6  1  0  0  0  0
  6  7  2  0  0  0  0
  6  8  1  0  0  0  0
  7  9  1  0  0  0  0
  7 10  1  0  0  0  0
  8 11  2  0  0  0  0
 10 12  2  0  0  0  0
 10 13  1  0  0  0  0
 13 14  1  0  0  0  0
 14 15  1  0  0  0  0
 14 16  2  0  0  0  0
 15 17  2  0  0  0  0
 15 18  1  0  0  0  0
 16 19  1  0  0  0  0
 16 20  1  0  0  0  0
 18 21  1  0  0  0  0
 19 22  1  0  0  0  0
 21 23  1  0  0  0  0
 22 24  2  0  0  0  0
 23 25  2  0  0  0  0
 24 26  1  0  0  0  0
 25 27  1  0  0  0  0
 27 28  1  0  0  0  0
 28 29  2  0  0  0  0
 28 30  1  0  0  0  0
 30 31  1  0  0  0  0
 30 32  1  0  0  0  0
 11 12  1  0  0  0  0
 19 21  2  0  0  0  0
 24 25  1  0  0  0  0
M  END
>  <MolRegNo>
1603542

>  <m>
=

>  <Value>
18000

>  <Unit>
nM

>  <Type>
IC50

>  <pValue>
4.75

>  <Ligand Efficiency>
0

>  <Binding Efficiency>
0

>  <Surface Efficiency>
0

>  <Assay Index>
808417

>  <Assay Category>


>  <Assay Organism>
Homo sapiens

>  <Target ID>
17045

>  <Target Name>
Cytochrome P450 3A4

>  <Target Organism>
Homo sapiens

>  <Target Description>
Target is a single protein chain

>  <Sequence Accession>
P08684

>  <Reference>
Bioorg Med Chem Lett 23 (23), 6223-6227 (2013)

>  <Pubmed ID>
24157370

>  <DOI>
10.1016/j.bmcl.2013.10.001

$$$$
1607844
Actelion Java MolfileCreator 1.0

 28 30  0  0  0  0  0  0  0  0999 V2000
    0.0000   -0.0000   -0.0000 Cl  0  0  0  0  0  0  0  0  0  0  0  0
   -0.0119   -1.4833   -0.0000 C   0  0  0  0  0  0  0  0  0  0  0  0
   -1.3172   -2.2190   -0.0000 C   0  0  0  0  0  0  0  0  0  0  0  0
    1.2697   -2.2190   -0.0000 C   0  0  0  0  0  0  0  0  0  0  0  0
   -2.6224   -1.4595   -0.0000 S   0  0  0  0  0  0  0  0  0  0  0  0
   -1.3290   -3.7141   -0.0000 C   0  0  0  0  0  0  0  0  0  0  0  0
    1.2578   -3.7141   -0.0000 C   0  0  0  0  0  0  0  0  0  0  0  0
   -3.3937   -0.1424   -0.0000 O   0  0  0  0  0  0  0  0  0  0  0  0
   -1.8986   -0.1424   -0.0000 O   0  0  0  0  0  0  0  0  0  0  0  0
   -3.9277   -2.1953   -0.0000 N   0  0  0  0  0  0  0  0  0  0  0  0
   -2.6343   -4.4498   -0.0000 N   0  0  0  0  0  0  0  0  0  0  0  0
   -0.0475   -4.4498   -0.0000 C   0  0  0  0  0  0  0  0  0  0  0  0
    2.5394   -4.4498   -0.0000 Cl  0  0  0  0  0  0  0  0  0  0  0  0
   -5.2330   -1.4358   -0.0000 C   0  0  0  0  0  0  0  0  0  0  0  0
   -6.5383   -2.1715   -0.0000 C   0  0  0  0  0  0  0  0  0  0  0  0
   -5.2449    0.0712   -0.0000 C   0  0  0  0  0  0  0  0  0  0  0  0
   -7.8436   -1.4121   -0.0000 N   0  0  0  0  0  0  0  0  0  0  0  0
   -3.9633    0.8306   -0.0000 C   0  0  0  0  0  0  0  0  0  0  0  0
   -8.0097    0.0949   -0.0000 C   0  0  0  0  0  0  0  0  0  0  0  0
   -9.2201   -2.0054   -0.0000 C   0  0  0  0  0  0  0  0  0  0  0  0
   -9.4811    0.4272   -0.0000 C   0  0  0  0  0  0  0  0  0  0  0  0
   -7.0248    1.2104   -0.0000 C   0  0  0  0  0  0  0  0  0  0  0  0
  -10.2287   -0.8781   -0.0000 C   0  0  0  0  0  0  0  0  0  0  0  0
   -9.9439    1.8511   -0.0000 C   0  0  0  0  0  0  0  0  0  0  0  0
   -7.4876    2.6462   -0.0000 C   0  0  0  0  0  0  0  0  0  0  0  0
  -11.7239   -1.0205   -0.0000 C   0  0  0  0  0  0  0  0  0  0  0  0
   -8.9590    2.9666   -0.0000 C   0  0  0  0  0  0  0  0  0  0  0  0
  -13.2309   -1.1748   -0.0000 N   0  0  0  0  0  0  0  0  0  0  0  0
  1  2  1  0  0  0  0
  2  3  2  0  0  0  0
  2  4  1  0  0  0  0
  3  5  1  0  0  0  0
  3  6  1  0  0  0  0
  4  7  2  0  0  0  0
  5  8  2  0  0  0  0
  5  9  2  0  0  0  0
  5 10  1  0  0  0  0
  6 11  1  0  0  0  0
  6 12  2  0  0  0  0
  7 13  1  0  0  0  0
 14 10  1  6  0  0  0
 14 15  1  0  0  0  0
 14 16  1  0  0  0  0
 15 17  1  0  0  0  0
 16 18  1  0  0  0  0
 17 19  1  0  0  0  0
 17 20  1  0  0  0  0
 19 21  2  0  0  0  0
 19 22  1  0  0  0  0
 20 23  2  0  0  0  0
 21 24  1  0  0  0  0
 22 25  2  0  0  0  0
 23 26  1  0  0  0  0
 24 27  2  0  0  0  0
 26 28  3  0  0  0  0
  7 12  1  0  0  0  0
 21 23  1  0  0  0  0
 25 27  1  0  0  0  0
M  END
>  <MolRegNo>
1607844

>  <m>
=

>  <Value>
5800

>  <Unit>
nM

>  <Type>
IC50

>  <pValue>
5.24

>  <Ligand Efficiency>
0

>  <Binding Efficiency>
0

>  <Surface Efficiency>
0

>  <Assay Index>
810534

>  <Assay Category>


>  <Assay Organism>
Homo sapiens

>  <Target ID>
17045

>  <Target Name>
Cytochrome P450 3A4

>  <Target Organism>
Homo sapiens

>  <Target Description>
Target is a single protein chain

>  <Sequence Accession>
P08684

>  <Reference>
Bioorg Med Chem Lett 23 (24), 6640-6644 (2013)

>  <Pubmed ID>
24215891

>  <DOI>
10.1016/j.bmcl.2013.10.052

$$$$
1607843
Actelion Java MolfileCreator 1.0

 27 29  0  0  0  0  0  0  0  0999 V2000
    0.0000   -0.0000   -0.0000 Cl  0  0  0  0  0  0  0  0  0  0  0  0
   -0.0119   -1.4838   -0.0000 C   0  0  0  0  0  0  0  0  0  0  0  0
   -1.3176   -2.2197   -0.0000 C   0  0  0  0  0  0  0  0  0  0  0  0
    1.2701   -2.2197   -0.0000 C   0  0  0  0  0  0  0  0  0  0  0  0
   -2.6233   -1.4600   -0.0000 S   0  0  0  0  0  0  0  0  0  0  0  0
   -1.3295   -3.7154   -0.0000 C   0  0  0  0  0  0  0  0  0  0  0  0
    1.2583   -3.7154   -0.0000 C   0  0  0  0  0  0  0  0  0  0  0  0
   -3.3949   -0.1424   -0.0000 O   0  0  0  0  0  0  0  0  0  0  0  0
   -1.8992   -0.1424   -0.0000 O   0  0  0  0  0  0  0  0  0  0  0  0
   -3.9291   -2.1960   -0.0000 N   0  0  0  0  0  0  0  0  0  0  0  0
   -2.6352   -4.4514   -0.0000 N   0  0  0  0  0  0  0  0  0  0  0  0
   -0.0475   -4.4514   -0.0000 C   0  0  0  0  0  0  0  0  0  0  0  0
    2.5402   -4.4514   -0.0000 Cl  0  0  0  0  0  0  0  0  0  0  0  0
   -5.2348   -1.4363   -0.0000 C   0  0  0  0  0  0  0  0  0  0  0  0
   -6.5405   -2.1723   -0.0000 C   0  0  0  0  0  0  0  0  0  0  0  0
   -5.2467    0.0712   -0.0000 C   0  0  0  0  0  0  0  0  0  0  0  0
   -7.8463   -1.4126   -0.0000 N   0  0  0  0  0  0  0  0  0  0  0  0
   -3.9647    0.8309   -0.0000 C   0  0  0  0  0  0  0  0  0  0  0  0
   -8.0125    0.0950   -0.0000 C   0  0  0  0  0  0  0  0  0  0  0  0
   -9.2232   -2.0061   -0.0000 C   0  0  0  0  0  0  0  0  0  0  0  0
   -9.4844    0.4273   -0.0000 C   0  0  0  0  0  0  0  0  0  0  0  0
   -7.0272    1.2108   -0.0000 C   0  0  0  0  0  0  0  0  0  0  0  0
  -10.2322   -0.8784   -0.0000 C   0  0  0  0  0  0  0  0  0  0  0  0
   -9.9473    1.8518   -0.0000 C   0  0  0  0  0  0  0  0  0  0  0  0
   -7.4902    2.6471   -0.0000 C   0  0  0  0  0  0  0  0  0  0  0  0
  -11.7279   -1.0208   -0.0000 C   0  0  0  0  0  0  0  0  0  0  0  0
   -8.9621    2.9676   -0.0000 C   0  0  0  0  0  0  0  0  0  0  0  0
  1  2  1  0  0  0  0
  2  3  2  0  0  0  0
  2  4  1  0  0  0  0
  3  5  1  0  0  0  0
  3  6  1  0  0  0  0
  4  7  2  0  0  0  0
  5  8  2  0  0  0  0
  5  9  2  0  0  0  0
  5 10  1  0  0  0  0
  6 11  1  0  0  0  0
  6 12  2  0  0  0  0
  7 13  1  0  0  0  0
 14 10  1  6  0  0  0
 14 15  1  0  0  0  0
 14 16  1  0  0  0  0
 15 17  1  0  0  0  0
 16 18  1  0  0  0  0
 17 19  1  0  0  0  0
 17 20  1  0  0  0  0
 19 21  2  0  0  0  0
 19 22  1  0  0  0  0
 20 23  2  0  0  0  0
 21 24  1  0  0  0  0
 22 25  2  0  0  0  0
 23 26  1  0  0  0  0
 24 27  2  0  0  0  0
  7 12  1  0  0  0  0
 21 23  1  0  0  0  0
 25 27  1  0  0  0  0
M  END
>  <MolRegNo>
1607843

>  <m>
=

>  <Value>
940

>  <Unit>
nM

>  <Type>
IC50

>  <pValue>
6.03

>  <Ligand Efficiency>
0

>  <Binding Efficiency>
0

>  <Surface Efficiency>
0

>  <Assay Index>
810534

>  <Assay Category>


>  <Assay Organism>
Homo sapiens

>  <Target ID>
17045

>  <Target Name>
Cytochrome P450 3A4

>  <Target Organism>
Homo sapiens

>  <Target Description>
Target is a single protein chain

>  <Sequence Accession>
P08684

>  <Reference>
Bioorg Med Chem Lett 23 (24), 6640-6644 (2013)

>  <Pubmed ID>
24215891

>  <DOI>
10.1016/j.bmcl.2013.10.052

$$$$
1607842
Actelion Java MolfileCreator 1.0

 26 28  0  0  0  0  0  0  0  0999 V2000
    0.0000   -0.0000   -0.0000 Cl  0  0  0  0  0  0  0  0  0  0  0  0
   -0.0119   -1.4839   -0.0000 C   0  0  0  0  0  0  0  0  0  0  0  0
   -1.3177   -2.2199   -0.0000 C   0  0  0  0  0  0  0  0  0  0  0  0
    1.2702   -2.2199   -0.0000 C   0  0  0  0  0  0  0  0  0  0  0  0
   -2.6235   -1.4601   -0.0000 S   0  0  0  0  0  0  0  0  0  0  0  0
   -1.3296   -3.7156   -0.0000 C   0  0  0  0  0  0  0  0  0  0  0  0
    1.2583   -3.7156   -0.0000 C   0  0  0  0  0  0  0  0  0  0  0  0
   -3.3951   -0.1425   -0.0000 O   0  0  0  0  0  0  0  0  0  0  0  0
   -1.8994   -0.1425   -0.0000 O   0  0  0  0  0  0  0  0  0  0  0  0
   -3.9293   -2.1961   -0.0000 N   0  0  0  0  0  0  0  0  0  0  0  0
   -2.6354   -4.4516   -0.0000 N   0  0  0  0  0  0  0  0  0  0  0  0
   -0.0475   -4.4516   -0.0000 C   0  0  0  0  0  0  0  0  0  0  0  0
    2.5404   -4.4516   -0.0000 Cl  0  0  0  0  0  0  0  0  0  0  0  0
   -5.2351   -1.4364   -0.0000 C   0  0  0  0  0  0  0  0  0  0  0  0
   -6.5409   -2.1724   -0.0000 C   0  0  0  0  0  0  0  0  0  0  0  0
   -5.2470    0.0712   -0.0000 C   0  0  0  0  0  0  0  0  0  0  0  0
   -7.8467   -1.4126   -0.0000 N   0  0  0  0  0  0  0  0  0  0  0  0
   -3.9649    0.8310   -0.0000 C   0  0  0  0  0  0  0  0  0  0  0  0
   -8.0129    0.0950   -0.0000 C   0  0  0  0  0  0  0  0  0  0  0  0
   -9.2238   -2.0062   -0.0000 C   0  0  0  0  0  0  0  0  0  0  0  0
   -9.4849    0.4274   -0.0000 C   0  0  0  0  0  0  0  0  0  0  0  0
   -7.0276    1.2108   -0.0000 C   0  0  0  0  0  0  0  0  0  0  0  0
  -10.2328   -0.8785   -0.0000 C   0  0  0  0  0  0  0  0  0  0  0  0
   -9.9479    1.8519   -0.0000 C   0  0  0  0  0  0  0  0  0  0  0  0
   -7.4906    2.6472   -0.0000 C   0  0  0  0  0  0  0  0  0  0  0  0
   -8.9626    2.9677   -0.0000 C   0  0  0  0  0  0  0  0  0  0  0  0
  1  2  1  0  0  0  0
  2  3  2  0  0  0  0
  2  4  1  0  0  0  0
  3  5  1  0  0  0  0
  3  6  1  0  0  0  0
  4  7  2  0  0  0  0
  5  8  2  0  0  0  0
  5  9  2  0  0  0  0
  5 10  1  0  0  0  0
  6 11  1  0  0  0  0
  6 12  2  0  0  0  0
  7 13  1  0  0  0  0
 14 10  1  6  0  0  0
 14 15  1  0  0  0  0
 14 16  1  0  0  0  0
 15 17  1  0  0  0  0
 16 18  1  0  0  0  0
 17 19  1  0  0  0  0
 17 20  1  0  0  0  0
 19 21  2  0  0  0  0
 19 22  1  0  0  0  0
 20 23  2  0  0  0  0
 21 24  1  0  0  0  0
 22 25  2  0  0  0  0
 24 26  2  0  0  0  0
  7 12  1  0  0  0  0
 21 23  1  0  0  0  0
 25 26  1  0  0  0  0
M  END
>  <MolRegNo>
1607842

>  <m>
=

>  <Value>
570

>  <Unit>
nM

>  <Type>
IC50

>  <pValue>
6.24

>  <Ligand Efficiency>
0

>  <Binding Efficiency>
0

>  <Surface Efficiency>
0

>  <Assay Index>
810534

>  <Assay Category>


>  <Assay Organism>
Homo sapiens

>  <Target ID>
17045

>  <Target Name>
Cytochrome P450 3A4

>  <Target Organism>
Homo sapiens

>  <Target Description>
Target is a single protein chain

>  <Sequence Accession>
P08684

>  <Reference>
Bioorg Med Chem Lett 23 (24), 6640-6644 (2013)

>  <Pubmed ID>
24215891

>  <DOI>
10.1016/j.bmcl.2013.10.052

$$$$
1606566
Actelion Java MolfileCreator 1.0

 35 37  0  0  0  0  0  0  0  0999 V2000
    0.0000   -0.0000   -0.0000 S   0  0  0  0  0  0  0  0  0  0  0  0
   -0.7610   -1.2841   -0.0000 O   0  0  0  0  0  0  0  0  0  0  0  0
    0.7372   -1.2841   -0.0000 O   0  0  0  0  0  0  0  0  0  0  0  0
    1.2841    0.7610   -0.0000 C   0  0  0  0  0  0  0  0  0  0  0  0
   -1.3198    0.7728   -0.0000 C   0  0  0  0  0  0  0  0  0  0  0  0
    2.5682    0.0119   -0.0000 C   0  0  0  0  0  0  0  0  0  0  0  0
    1.2722    2.2591   -0.0000 C   0  0  0  0  0  0  0  0  0  0  0  0
   -2.6277    0.0357   -0.0000 C   0  0  0  0  0  0  0  0  0  0  0  0
   -2.0926    2.0926   -0.0000 C   0  0  0  0  0  0  0  0  0  0  0  0
   -0.5826    2.0926   -0.0000 C   0  0  0  0  0  0  0  0  0  0  0  0
    3.8524    0.7728   -0.0000 C   0  0  0  0  0  0  0  0  0  0  0  0
    2.5563    3.0201   -0.0000 C   0  0  0  0  0  0  0  0  0  0  0  0
   -2.6396   -1.4506   -0.0000 C   0  0  0  0  0  0  0  0  0  0  0  0
   -3.9356    0.7966   -0.0000 C   0  0  0  0  0  0  0  0  0  0  0  0
    3.8405    2.2829   -0.0000 C   0  0  0  0  0  0  0  0  0  0  0  0
    5.1365    0.0357   -0.0000 C   0  0  0  0  0  0  0  0  0  0  0  0
   -3.9475   -2.1878   -0.0000 C   0  0  0  0  0  0  0  0  0  0  0  0
   -5.2554    0.0594   -0.0000 C   0  0  0  0  0  0  0  0  0  0  0  0
    5.1246   -1.4506   -0.0000 F   0  0  0  0  0  0  0  0  0  0  0  0
    6.4206    0.7966   -0.0000 F   0  0  0  0  0  0  0  0  0  0  0  0
    6.4087   -0.7015   -0.0000 F   0  0  0  0  0  0  0  0  0  0  0  0
   -5.2554   -1.4268   -0.0000 N   0  0  0  0  0  0  0  0  0  0  0  0
   -6.5633   -2.1640   -0.0000 C   0  0  0  0  0  0  0  0  0  0  0  0
   -6.5752   -3.6502   -0.0000 O   0  0  0  0  0  0  0  0  0  0  0  0
   -7.8712   -1.4030   -0.0000 C   0  0  0  0  0  0  0  0  0  0  0  0
   -9.1910   -2.1402   -0.0000 C   0  0  0  0  0  0  0  0  0  0  0  0
   -7.8831    0.1189   -0.0000 C   0  0  0  0  0  0  0  0  0  0  0  0
   -9.2147   -3.6264   -0.0000 S   0  0  0  0  0  0  0  0  0  0  0  0
  -10.4989   -1.3792   -0.0000 C   0  0  0  0  0  0  0  0  0  0  0  0
   -9.1910    0.8799   -0.0000 C   0  0  0  0  0  0  0  0  0  0  0  0
   -7.7285   -3.6146   -0.0000 O   0  0  0  0  0  0  0  0  0  0  0  0
   -8.4776   -4.9106   -0.0000 O   0  0  0  0  0  0  0  0  0  0  0  0
  -10.5226   -4.3636   -0.0000 C   0  0  0  0  0  0  0  0  0  0  0  0
  -10.5108    0.1427   -0.0000 C   0  0  0  0  0  0  0  0  0  0  0  0
   -9.2029    2.3899   -0.0000 F   0  0  0  0  0  0  0  0  0  0  0  0
  1  2  2  0  0  0  0
  1  3  2  0  0  0  0
  1  4  1  0  0  0  0
  1  5  1  0  0  0  0
  4  6  2  0  0  0  0
  4  7  1  0  0  0  0
  5  8  1  0  0  0  0
  5  9  1  0  0  0  0
  5 10  1  0  0  0  0
  6 11  1  0  0  0  0
  7 12  2  0  0  0  0
  8 13  1  0  0  0  0
  8 14  1  0  0  0  0
 11 15  2  0  0  0  0
 11 16  1  0  0  0  0
 13 17  1  0  0  0  0
 14 18  1  0  0  0  0
 16 19  1  0  0  0  0
 16 20  1  0  0  0  0
 16 21  1  0  0  0  0
 17 22  1  0  0  0  0
 22 23  1  0  0  0  0
 23 24  2  0  0  0  0
 23 25  1  0  0  0  0
 25 26  2  0  0  0  0
 25 27  1  0  0  0  0
 26 28  1  0  0  0  0
 26 29  1  0  0  0  0
 27 30  2  0  0  0  0
 28 31  2  0  0  0  0
 28 32  2  0  0  0  0
 28 33  1  0  0  0  0
 29 34  2  0  0  0  0
 30 35  1  0  0  0  0
 12 15  1  0  0  0  0
 18 22  1  0  0  0  0
 30 34  1  0  0  0  0
M  END
>  <MolRegNo>
1606566

>  <m>
=

>  <Value>
10000

>  <Unit>
nM

>  <Type>
IC50

>  <pValue>
5

>  <Ligand Efficiency>
0

>  <Binding Efficiency>
0

>  <Surface Efficiency>
0

>  <Assay Index>
812254

>  <Assay Category>


>  <Assay Organism>
Homo sapiens

>  <Target ID>
17045

>  <Target Name>
Cytochrome P450 3A4

>  <Target Organism>
Homo sapiens

>  <Target Description>
Target is a single protein chain

>  <Sequence Accession>
P08684

>  <Reference>
ACS Med Chem Lett 4 (11), 1064-1068 (2013)

>  <Pubmed ID>
24900606

>  <DOI>
10.1021/ml4002612

$$$$
1606565
Actelion Java MolfileCreator 1.0

 39 41  0  0  0  0  0  0  0  0999 V2000
    0.0000   -0.0000   -0.0000 S   0  0  0  0  0  0  0  0  0  0  0  0
   -0.7599   -1.2824   -0.0000 O   0  0  0  0  0  0  0  0  0  0  0  0
    0.7362   -1.2824   -0.0000 O   0  0  0  0  0  0  0  0  0  0  0  0
    1.2824    0.7599   -0.0000 C   0  0  0  0  0  0  0  0  0  0  0  0
   -1.3180    0.7718   -0.0000 C   0  0  0  0  0  0  0  0  0  0  0  0
    2.5647    0.0119   -0.0000 C   0  0  0  0  0  0  0  0  0  0  0  0
    1.2705    2.2560   -0.0000 C   0  0  0  0  0  0  0  0  0  0  0  0
   -2.6241    0.0356   -0.0000 C   0  0  0  0  0  0  0  0  0  0  0  0
   -2.0898    2.0898   -0.0000 C   0  0  0  0  0  0  0  0  0  0  0  0
   -0.5818    2.0898   -0.0000 C   0  0  0  0  0  0  0  0  0  0  0  0
    3.8471    0.7718   -0.0000 C   0  0  0  0  0  0  0  0  0  0  0  0
    2.5529    3.0159   -0.0000 C   0  0  0  0  0  0  0  0  0  0  0  0
   -2.6360   -1.4486   -0.0000 C   0  0  0  0  0  0  0  0  0  0  0  0
   -3.9302    0.7955   -0.0000 C   0  0  0  0  0  0  0  0  0  0  0  0
    3.8352    2.2798   -0.0000 C   0  0  0  0  0  0  0  0  0  0  0  0
    5.1295    0.0356   -0.0000 C   0  0  0  0  0  0  0  0  0  0  0  0
   -3.9421   -2.1848   -0.0000 C   0  0  0  0  0  0  0  0  0  0  0  0
   -5.2482    0.0594   -0.0000 C   0  0  0  0  0  0  0  0  0  0  0  0
    5.1176   -1.4486   -0.0000 F   0  0  0  0  0  0  0  0  0  0  0  0
    6.4119    0.7955   -0.0000 F   0  0  0  0  0  0  0  0  0  0  0  0
    6.4000   -0.7006   -0.0000 F   0  0  0  0  0  0  0  0  0  0  0  0
   -5.2482   -1.4249   -0.0000 N   0  0  0  0  0  0  0  0  0  0  0  0
   -6.5543   -2.1610   -0.0000 C   0  0  0  0  0  0  0  0  0  0  0  0
   -6.5662   -3.6453   -0.0000 O   0  0  0  0  0  0  0  0  0  0  0  0
   -7.8605   -1.4011   -0.0000 C   0  0  0  0  0  0  0  0  0  0  0  0
   -9.1784   -2.1373   -0.0000 C   0  0  0  0  0  0  0  0  0  0  0  0
   -7.8723    0.1187   -0.0000 C   0  0  0  0  0  0  0  0  0  0  0  0
   -9.1903   -3.6215   -0.0000 O   0  0  0  0  0  0  0  0  0  0  0  0
  -10.4846   -1.3774   -0.0000 C   0  0  0  0  0  0  0  0  0  0  0  0
   -9.1784    0.8787   -0.0000 C   0  0  0  0  0  0  0  0  0  0  0  0
  -10.4964   -4.3577   -0.0000 C   0  0  0  0  0  0  0  0  0  0  0  0
  -10.4964    0.1425   -0.0000 C   0  0  0  0  0  0  0  0  0  0  0  0
  -10.5083   -5.8419   -0.0000 F   0  0  0  0  0  0  0  0  0  0  0  0
  -11.8026   -3.5978   -0.0000 F   0  0  0  0  0  0  0  0  0  0  0  0
  -11.8144   -5.0820   -0.0000 F   0  0  0  0  0  0  0  0  0  0  0  0
  -11.8026    0.9024   -0.0000 S   0  0  0  0  0  0  0  0  0  0  0  0
  -12.5744    2.2204   -0.0000 O   0  0  0  0  0  0  0  0  0  0  0  0
  -11.0664    2.2204   -0.0000 O   0  0  0  0  0  0  0  0  0  0  0  0
  -13.1087    0.1662   -0.0000 C   0  0  0  0  0  0  0  0  0  0  0  0
  1  2  2  0  0  0  0
  1  3  2  0  0  0  0
  1  4  1  0  0  0  0
  1  5  1  0  0  0  0
  4  6  2  0  0  0  0
  4  7  1  0  0  0  0
  5  8  1  0  0  0  0
  5  9  1  0  0  0  0
  5 10  1  0  0  0  0
  6 11  1  0  0  0  0
  7 12  2  0  0  0  0
  8 13  1  0  0  0  0
  8 14  1  0  0  0  0
 11 15  2  0  0  0  0
 11 16  1  0  0  0  0
 13 17  1  0  0  0  0
 14 18  1  0  0  0  0
 16 19  1  0  0  0  0
 16 20  1  0  0  0  0
 16 21  1  0  0  0  0
 17 22  1  0  0  0  0
 22 23  1  0  0  0  0
 23 24  2  0  0  0  0
 23 25  1  0  0  0  0
 25 26  2  0  0  0  0
 25 27  1  0  0  0  0
 26 28  1  0  0  0  0
 26 29  1  0  0  0  0
 27 30  2  0  0  0  0
 28 31  1  0  0  0  0
 29 32  2  0  0  0  0
 31 33  1  0  0  0  0
 31 34  1  0  0  0  0
 31 35  1  0  0  0  0
 32 36  1  0  0  0  0
 36 37  2  0  0  0  0
 36 38  2  0  0  0  0
 36 39  1  0  0  0  0
 12 15  1  0  0  0  0
 18 22  1  0  0  0  0
 30 32  1  0  0  0  0
M  END
>  <MolRegNo>
1606565

>  <m>
=

>  <Value>
10000

>  <Unit>
nM

>  <Type>
IC50

>  <pValue>
5

>  <Ligand Efficiency>
0

>  <Binding Efficiency>
0

>  <Surface Efficiency>
0

>  <Assay Index>
812254

>  <Assay Category>


>  <Assay Organism>
Homo sapiens

>  <Target ID>
17045

>  <Target Name>
Cytochrome P450 3A4

>  <Target Organism>
Homo sapiens

>  <Target Description>
Target is a single protein chain

>  <Sequence Accession>
P08684

>  <Reference>
ACS Med Chem Lett 4 (11), 1064-1068 (2013)

>  <Pubmed ID>
24900606

>  <DOI>
10.1021/ml4002612

$$$$
1606791
Actelion Java MolfileCreator 1.0

 28 32  0  0  0  0  0  0  0  0999 V2000
    0.0000   -0.0000   -0.0000 F   0  0  0  0  0  0  0  0  0  0  0  0
    0.7450   -1.2890   -0.0000 C   0  0  0  0  0  0  0  0  0  0  0  0
   -0.0237   -2.5781   -0.0000 C   0  0  0  0  0  0  0  0  0  0  0  0
    2.2351   -1.2772   -0.0000 C   0  0  0  0  0  0  0  0  0  0  0  0
   -1.5374   -2.5662   -0.0000 C   0  0  0  0  0  0  0  0  0  0  0  0
    0.7214   -3.8671   -0.0000 C   0  0  0  0  0  0  0  0  0  0  0  0
    2.9683   -2.5662   -0.0000 C   0  0  0  0  0  0  0  0  0  0  0  0
   -2.2942   -1.2536   -0.0000 C   0  0  0  0  0  0  0  0  0  0  0  0
   -2.2942   -3.8553   -0.0000 C   0  0  0  0  0  0  0  0  0  0  0  0
    2.2115   -3.8553   -0.0000 C   0  0  0  0  0  0  0  0  0  0  0  0
    4.4584   -2.5544   -0.0000 N   0  0  0  0  0  0  0  0  0  0  0  0
   -3.8080   -1.2417   -0.0000 C   0  0  0  0  0  0  0  0  0  0  0  0
   -3.8080   -3.8434   -0.0000 C   0  0  0  0  0  0  0  0  0  0  0  0
    5.3335   -1.3245   -0.0000 C   0  0  0  0  0  0  0  0  0  0  0  0
    5.3335   -3.7607   -0.0000 C   0  0  0  0  0  0  0  0  0  0  0  0
   -4.8250   -0.1183   -0.0000 N   0  0  0  0  0  0  0  0  0  0  0  0
   -4.5767   -2.5308   -0.0000 N   0  0  0  0  0  0  0  0  0  0  0  0
    4.8487    0.1183   -0.0000 O   0  0  0  0  0  0  0  0  0  0  0  0
    6.7526   -1.7857   -0.0000 O   0  0  0  0  0  0  0  0  0  0  0  0
    6.7526   -3.2876   -0.0000 C   0  0  0  0  0  0  0  0  0  0  0  0
   -6.2086   -0.7096   -0.0000 C   0  0  0  0  0  0  0  0  0  0  0  0
   -6.0549   -2.2115   -0.0000 C   0  0  0  0  0  0  0  0  0  0  0  0
    7.9471   -4.1509   -0.0000 C   0  0  0  0  0  0  0  0  0  0  0  0
    9.3071   -3.5360   -0.0000 N   0  0  0  0  0  0  0  0  0  0  0  0
   10.5961   -4.2692   -0.0000 N   0  0  0  0  0  0  0  0  0  0  0  0
    9.6145   -2.0577   -0.0000 C   0  0  0  0  0  0  0  0  0  0  0  0
   11.7077   -3.2521   -0.0000 N   0  0  0  0  0  0  0  0  0  0  0  0
   11.0928   -1.8922   -0.0000 C   0  0  0  0  0  0  0  0  0  0  0  0
  1  2  1  0  0  0  0
  2  3  2  0  0  0  0
  2  4  1  0  0  0  0
  3  5  1  0  0  0  0
  3  6  1  0  0  0  0
  4  7  2  0  0  0  0
  5  8  2  0  0  0  0
  5  9  1  0  0  0  0
  6 10  2  0  0  0  0
  7 11  1  0  0  0  0
  8 12  1  0  0  0  0
  9 13  2  0  0  0  0
 11 14  1  0  0  0  0
 11 15  1  0  0  0  0
 12 16  2  0  0  0  0
 12 17  1  0  0  0  0
 14 18  2  0  0  0  0
 14 19  1  0  0  0  0
 15 20  1  0  0  0  0
 16 21  1  0  0  0  0
 17 22  1  0  0  0  0
 20 23  1  1  0  0  0
 23 24  1  0  0  0  0
 24 25  1  0  0  0  0
 24 26  1  0  0  0  0
 25 27  2  0  0  0  0
 26 28  2  0  0  0  0
  7 10  1  0  0  0  0
 13 17  1  0  0  0  0
 19 20  1  0  0  0  0
 21 22  2  0  0  0  0
 27 28  1  0  0  0  0
M  END
>  <MolRegNo>
1606791

>  <m>
=

>  <Value>
15000

>  <Unit>
nM

>  <Type>
IC50

>  <pValue>
4.82

>  <Ligand Efficiency>
0

>  <Binding Efficiency>
0

>  <Surface Efficiency>
0

>  <Assay Index>
812292

>  <Assay Category>


>  <Assay Organism>
Homo sapiens

>  <Target ID>
17045

>  <Target Name>
Cytochrome P450 3A4

>  <Target Organism>
Homo sapiens

>  <Target Description>
Target is a single protein chain

>  <Sequence Accession>
P08684

>  <Reference>
ACS Med Chem Lett 4 (11), 1074-1078 (2013)

>  <Pubmed ID>
24900607

>  <DOI>
10.1021/ml400280z

$$$$
1575489
Actelion Java MolfileCreator 1.0

 32 35  0  0  0  0  0  0  0  0999 V2000
    0.0000   -0.0000   -0.0000 Cl  0  0  0  0  0  0  0  0  0  0  0  0
    1.2783    0.7542   -0.0000 C   0  0  0  0  0  0  0  0  0  0  0  0
    2.5567    0.0256   -0.0000 C   0  0  0  0  0  0  0  0  0  0  0  0
    1.2656    2.2627   -0.0000 C   0  0  0  0  0  0  0  0  0  0  0  0
    3.8350    0.7926   -0.0000 C   0  0  0  0  0  0  0  0  0  0  0  0
    2.5311    3.0297   -0.0000 C   0  0  0  0  0  0  0  0  0  0  0  0
    5.1133    0.0639   -0.0000 N   0  0  0  0  0  0  0  0  0  0  0  0
    3.8222    2.3010   -0.0000 C   0  0  0  0  0  0  0  0  0  0  0  0
    6.3917    0.8181   -0.0000 C   0  0  0  0  0  0  0  0  0  0  0  0
    5.0878    3.0552   -0.0000 C   0  0  0  0  0  0  0  0  0  0  0  0
    6.3789    2.3266   -0.0000 C   0  0  0  0  0  0  0  0  0  0  0  0
    5.0750    4.5637   -0.0000 N   0  0  0  0  0  0  0  0  0  0  0  0
    6.3533    5.3179   -0.0000 C   0  0  0  0  0  0  0  0  0  0  0  0
    7.6317    4.5892   -0.0000 C   0  0  0  0  0  0  0  0  0  0  0  0
    8.9100    5.3434   -0.0000 N   0  0  0  0  0  0  0  0  0  0  0  0
    8.8972    6.8519   -0.0000 C   0  0  0  0  0  0  0  0  0  0  0  0
    7.5933    7.6061   -0.0000 C   0  0  0  0  0  0  0  0  0  0  0  0
   10.0989    7.7212   -0.0000 C   0  0  0  0  0  0  0  0  0  0  0  0
    7.5805    9.1145   -0.0000 C   0  0  0  0  0  0  0  0  0  0  0  0
    6.3022    6.8775   -0.0000 C   0  0  0  0  0  0  0  0  0  0  0  0
   10.0989    9.2168   -0.0000 N   0  0  0  0  0  0  0  0  0  0  0  0
   11.4922    7.2482   -0.0000 N   0  0  0  0  0  0  0  0  0  0  0  0
    6.2766    9.8688   -0.0000 C   0  0  0  0  0  0  0  0  0  0  0  0
    4.9855    7.6317   -0.0000 C   0  0  0  0  0  0  0  0  0  0  0  0
   11.5050    9.6770   -0.0000 N   0  0  0  0  0  0  0  0  0  0  0  0
   12.3615    8.4626   -0.0000 N   0  0  0  0  0  0  0  0  0  0  0  0
   11.9141    5.8420   -0.0000 C   0  0  0  0  0  0  0  0  0  0  0  0
    4.9727    9.1401   -0.0000 C   0  0  0  0  0  0  0  0  0  0  0  0
   10.8531    4.5892   -0.0000 C   0  0  0  0  0  0  0  0  0  0  0  0
   13.5248    5.4074   -0.0000 C   0  0  0  0  0  0  0  0  0  0  0  0
   12.3360    4.4230   -0.0000 C   0  0  0  0  0  0  0  0  0  0  0  0
    3.6688    9.8943   -0.0000 Cl  0  0  0  0  0  0  0  0  0  0  0  0
  1  2  1  0  0  0  0
  2  3  2  0  0  0  0
  2  4  1  0  0  0  0
  3  5  1  0  0  0  0
  4  6  2  0  0  0  0
  5  7  2  0  0  0  0
  5  8  1  0  0  0  0
  7  9  1  0  0  0  0
  8 10  2  0  0  0  0
  9 11  2  0  0  0  0
 10 12  1  0  0  0  0
 12 13  1  0  0  0  0
 13 14  1  0  0  0  0
 14 15  1  0  0  0  0
 15 16  1  0  0  0  0
 16 17  1  0  0  0  0
 16 18  1  0  0  0  0
 17 19  2  0  0  0  0
 17 20  1  0  0  0  0
 18 21  2  0  0  0  0
 18 22  1  0  0  0  0
 19 23  1  0  0  0  0
 20 24  2  0  0  0  0
 21 25  1  0  0  0  0
 22 26  1  0  0  0  0
 22 27  1  0  0  0  0
 23 28  2  0  0  0  0
 27 29  1  0  0  0  0
 27 30  1  0  0  0  0
 27 31  1  0  0  0  0
 28 32  1  0  0  0  0
  6  8  1  0  0  0  0
 10 11  1  0  0  0  0
 24 28  1  0  0  0  0
 25 26  2  0  0  0  0
M  END
>  <MolRegNo>
1575489

>  <m>
=

>  <Value>
80

>  <Unit>
nM

>  <Type>
IC50

>  <pValue>
7.1

>  <Ligand Efficiency>
0

>  <Binding Efficiency>
0

>  <Surface Efficiency>
0

>  <Assay Index>
814614

>  <Assay Category>


>  <Assay Organism>
Homo sapiens

>  <Target ID>
17045

>  <Target Name>
Cytochrome P450 3A4

>  <Target Organism>
Homo sapiens

>  <Target Description>
Target is a single protein chain

>  <Sequence Accession>
P08684

>  <Reference>
ACS Med Chem Lett 4 (12), 1198-1202 (2013)

>  <Pubmed ID>
24900630

>  <DOI>
10.1021/ml400311r

$$$$
1610602
Actelion Java MolfileCreator 1.0

 32 35  0  0  0  0  0  0  0  0999 V2000
    0.0000   -0.0000   -0.0000 Cl  0  0  0  0  0  0  0  0  0  0  0  0
    1.2903    0.7646   -0.0000 C   0  0  0  0  0  0  0  0  0  0  0  0
    2.5806    0.0239   -0.0000 C   0  0  0  0  0  0  0  0  0  0  0  0
    1.2784    2.2939   -0.0000 C   0  0  0  0  0  0  0  0  0  0  0  0
    3.8710    0.8005   -0.0000 C   0  0  0  0  0  0  0  0  0  0  0  0
    2.5687    3.0585   -0.0000 C   0  0  0  0  0  0  0  0  0  0  0  0
    5.1613    0.0597   -0.0000 N   0  0  0  0  0  0  0  0  0  0  0  0
    3.8590    2.3298   -0.0000 C   0  0  0  0  0  0  0  0  0  0  0  0
    6.4516    0.8244   -0.0000 C   0  0  0  0  0  0  0  0  0  0  0  0
    5.1494    3.0944   -0.0000 C   0  0  0  0  0  0  0  0  0  0  0  0
    6.4277    2.3536   -0.0000 C   0  0  0  0  0  0  0  0  0  0  0  0
    5.1255    4.6117   -0.0000 N   0  0  0  0  0  0  0  0  0  0  0  0
    6.4158    5.3883   -0.0000 C   0  0  0  0  0  0  0  0  0  0  0  0
    7.7181    4.6476   -0.0000 C   0  0  0  0  0  0  0  0  0  0  0  0
    9.0084    5.4241   -0.0000 N   0  0  0  0  0  0  0  0  0  0  0  0
   10.3106    4.6834   -0.0000 C   0  0  0  0  0  0  0  0  0  0  0  0
   10.3106    3.1900   -0.0000 C   0  0  0  0  0  0  0  0  0  0  0  0
   11.6010    5.4600   -0.0000 C   0  0  0  0  0  0  0  0  0  0  0  0
    8.9964    2.4492   -0.0000 C   0  0  0  0  0  0  0  0  0  0  0  0
   11.6010    2.4612   -0.0000 C   0  0  0  0  0  0  0  0  0  0  0  0
   11.7324    6.9773   -0.0000 N   0  0  0  0  0  0  0  0  0  0  0  0
   12.9630    4.8746   -0.0000 N   0  0  0  0  0  0  0  0  0  0  0  0
    8.9964    0.9558   -0.0000 C   0  0  0  0  0  0  0  0  0  0  0  0
   11.6010    0.9677   -0.0000 C   0  0  0  0  0  0  0  0  0  0  0  0
   13.1900    7.3118   -0.0000 N   0  0  0  0  0  0  0  0  0  0  0  0
   13.9546    6.0096   -0.0000 N   0  0  0  0  0  0  0  0  0  0  0  0
   13.2736    3.4170   -0.0000 C   0  0  0  0  0  0  0  0  0  0  0  0
   10.2987    0.2151   -0.0000 C   0  0  0  0  0  0  0  0  0  0  0  0
   14.6954    2.9749   -0.0000 C   0  0  0  0  0  0  0  0  0  0  0  0
   12.8555    1.9833   -0.0000 C   0  0  0  0  0  0  0  0  0  0  0  0
   14.0024    2.1266   -0.0000 C   0  0  0  0  0  0  0  0  0  0  0  0
   10.2987   -1.2784   -0.0000 C   0  0  0  0  0  0  0  0  0  0  0  0
  1  2  1  0  0  0  0
  2  3  2  0  0  0  0
  2  4  1  0  0  0  0
  3  5  1  0  0  0  0
  4  6  2  0  0  0  0
  5  7  2  0  0  0  0
  5  8  1  0  0  0  0
  7  9  1  0  0  0  0
  8 10  2  0  0  0  0
  9 11  2  0  0  0  0
 10 12  1  0  0  0  0
 12 13  1  0  0  0  0
 13 14  1  0  0  0  0
 14 15  1  0  0  0  0
 15 16  1  0  0  0  0
 16 17  1  0  0  0  0
 16 18  1  0  0  0  0
 17 19  2  0  0  0  0
 17 20  1  0  0  0  0
 18 21  2  0  0  0  0
 18 22  1  0  0  0  0
 19 23  1  0  0  0  0
 20 24  2  0  0  0  0
 21 25  1  0  0  0  0
 22 26  1  0  0  0  0
 22 27  1  0  0  0  0
 23 28  2  0  0  0  0
 27 29  1  0  0  0  0
 27 30  1  0  0  0  0
 27 31  1  0  0  0  0
 28 32  1  0  0  0  0
  6  8  1  0  0  0  0
 10 11  1  0  0  0  0
 24 28  1  0  0  0  0
 25 26  2  0  0  0  0
M  END
>  <MolRegNo>
1610602

>  <m>
=

>  <Value>
170

>  <Unit>
nM

>  <Type>
IC50

>  <pValue>
6.77

>  <Ligand Efficiency>
0

>  <Binding Efficiency>
0

>  <Surface Efficiency>
0

>  <Assay Index>
814614

>  <Assay Category>


>  <Assay Organism>
Homo sapiens

>  <Target ID>
17045

>  <Target Name>
Cytochrome P450 3A4

>  <Target Organism>
Homo sapiens

>  <Target Description>
Target is a single protein chain

>  <Sequence Accession>
P08684

>  <Reference>
ACS Med Chem Lett 4 (12), 1198-1202 (2013)

>  <Pubmed ID>
24900630

>  <DOI>
10.1021/ml400311r

$$$$
1612572
Actelion Java MolfileCreator 1.0

 32 35  0  0  0  0  0  0  0  0999 V2000
    0.0000   -0.0000   -0.0000 Cl  0  0  0  0  0  0  0  0  0  0  0  0
    0.7385    1.3222   -0.0000 C   0  0  0  0  0  0  0  0  0  0  0  0
   -0.0238    2.6325   -0.0000 C   0  0  0  0  0  0  0  0  0  0  0  0
    2.2394    1.3460   -0.0000 C   0  0  0  0  0  0  0  0  0  0  0  0
    0.7147    3.9427   -0.0000 C   0  0  0  0  0  0  0  0  0  0  0  0
    2.9660    2.6563   -0.0000 C   0  0  0  0  0  0  0  0  0  0  0  0
    2.2036    3.9547   -0.0000 C   0  0  0  0  0  0  0  0  0  0  0  0
    2.9422    5.2768   -0.0000 C   0  0  0  0  0  0  0  0  0  0  0  0
    2.1798    6.5871   -0.0000 C   0  0  0  0  0  0  0  0  0  0  0  0
    4.4311    5.2888   -0.0000 C   0  0  0  0  0  0  0  0  0  0  0  0
    0.6671    6.5871   -0.0000 C   0  0  0  0  0  0  0  0  0  0  0  0
    2.9183    7.8974   -0.0000 C   0  0  0  0  0  0  0  0  0  0  0  0
    5.1696    6.6109   -0.0000 O   0  0  0  0  0  0  0  0  0  0  0  0
    5.1816    4.0023   -0.0000 N   0  0  0  0  0  0  0  0  0  0  0  0
   -0.1072    7.8974   -0.0000 N   0  0  0  0  0  0  0  0  0  0  0  0
    2.1560    9.2077   -0.0000 C   0  0  0  0  0  0  0  0  0  0  0  0
    4.4192    2.7158   -0.0000 C   0  0  0  0  0  0  0  0  0  0  0  0
    6.6705    4.0261   -0.0000 C   0  0  0  0  0  0  0  0  0  0  0  0
    0.6313    9.2196   -0.0000 C   0  0  0  0  0  0  0  0  0  0  0  0
    5.1577    1.4413   -0.0000 C   0  0  0  0  0  0  0  0  0  0  0  0
    7.4090    2.7397   -0.0000 C   0  0  0  0  0  0  0  0  0  0  0  0
    6.6467    1.4532   -0.0000 N   0  0  0  0  0  0  0  0  0  0  0  0
    7.3852    0.1668   -0.0000 C   0  0  0  0  0  0  0  0  0  0  0  0
    8.8742    0.1787   -0.0000 C   0  0  0  0  0  0  0  0  0  0  0  0
    6.6229   -1.1197   -0.0000 C   0  0  0  0  0  0  0  0  0  0  0  0
    9.6246   -1.0959   -0.0000 C   0  0  0  0  0  0  0  0  0  0  0  0
    7.3614   -2.4181   -0.0000 C   0  0  0  0  0  0  0  0  0  0  0  0
    8.8742   -2.3823   -0.0000 C   0  0  0  0  0  0  0  0  0  0  0  0
    9.6246   -3.6688   -0.0000 S   0  0  0  0  0  0  0  0  0  0  0  0
   10.9110   -4.4073   -0.0000 O   0  0  0  0  0  0  0  0  0  0  0  0
   10.6728   -2.5848   -0.0000 O   0  0  0  0  0  0  0  0  0  0  0  0
    8.8622   -4.9671   -0.0000 C   0  0  0  0  0  0  0  0  0  0  0  0
  1  2  1  0  0  0  0
  2  3  2  0  0  0  0
  2  4  1  0  0  0  0
  3  5  1  0  0  0  0
  4  6  2  0  0  0  0
  5  7  2  0  0  0  0
  7  8  1  0  0  0  0
  8  9  1  0  0  0  0
  8 10  1  0  0  0  0
  9 11  2  0  0  0  0
  9 12  1  0  0  0  0
 10 13  2  0  0  0  0
 10 14  1  0  0  0  0
 11 15  1  0  0  0  0
 12 16  2  0  0  0  0
 14 17  1  0  0  0  0
 14 18  1  0  0  0  0
 15 19  2  0  0  0  0
 17 20  1  0  0  0  0
 18 21  1  0  0  0  0
 20 22  1  0  0  0  0
 22 23  1  0  0  0  0
 23 24  2  0  0  0  0
 23 25  1  0  0  0  0
 24 26  1  0  0  0  0
 25 27  2  0  0  0  0
 26 28  2  0  0  0  0
 28 29  1  0  0  0  0
 29 30  2  0  0  0  0
 29 31  2  0  0  0  0
 29 32  1  0  0  0  0
  6  7  1  0  0  0  0
 16 19  1  0  0  0  0
 21 22  1  0  0  0  0
 27 28  1  0  0  0  0
M  END
>  <MolRegNo>
1612572

>  <m>
=

>  <Value>
4000

>  <Unit>
nM

>  <Type>
IC50

>  <pValue>
5.4

>  <Ligand Efficiency>
0

>  <Binding Efficiency>
0

>  <Surface Efficiency>
0

>  <Assay Index>
816462

>  <Assay Category>


>  <Assay Organism>
Homo sapiens

>  <Target ID>
17045

>  <Target Name>
Cytochrome P450 3A4

>  <Target Organism>
Homo sapiens

>  <Target Description>
Target is a single protein chain

>  <Sequence Accession>
P08684

>  <Reference>
J Med Chem 56 (24), 10158-10170 (2013)

>  <Pubmed ID>
24304150

>  <DOI>
10.1021/jm401610c

$$$$
1612570
Actelion Java MolfileCreator 1.0

 32 35  0  0  0  0  0  0  0  0999 V2000
    0.0000   -0.0000   -0.0000 Cl  0  0  0  0  0  0  0  0  0  0  0  0
    0.7389    1.3228   -0.0000 C   0  0  0  0  0  0  0  0  0  0  0  0
   -0.0238    2.6337   -0.0000 C   0  0  0  0  0  0  0  0  0  0  0  0
    2.2404    1.3466   -0.0000 C   0  0  0  0  0  0  0  0  0  0  0  0
    0.7150    3.9446   -0.0000 C   0  0  0  0  0  0  0  0  0  0  0  0
    2.9674    2.6575   -0.0000 C   0  0  0  0  0  0  0  0  0  0  0  0
    2.2047    3.9565   -0.0000 C   0  0  0  0  0  0  0  0  0  0  0  0
    2.9435    5.2793   -0.0000 C   0  0  0  0  0  0  0  0  0  0  0  0
    2.1808    6.5902   -0.0000 C   0  0  0  0  0  0  0  0  0  0  0  0
    4.4332    5.2912   -0.0000 C   0  0  0  0  0  0  0  0  0  0  0  0
    0.6674    6.5902   -0.0000 C   0  0  0  0  0  0  0  0  0  0  0  0
    2.9197    7.9011   -0.0000 C   0  0  0  0  0  0  0  0  0  0  0  0
    5.1721    6.6140   -0.0000 O   0  0  0  0  0  0  0  0  0  0  0  0
    5.1840    4.0042   -0.0000 N   0  0  0  0  0  0  0  0  0  0  0  0
   -0.1073    7.9011   -0.0000 N   0  0  0  0  0  0  0  0  0  0  0  0
    2.1570    9.2120   -0.0000 C   0  0  0  0  0  0  0  0  0  0  0  0
    4.4213    2.7171   -0.0000 C   0  0  0  0  0  0  0  0  0  0  0  0
    6.6736    4.0280   -0.0000 C   0  0  0  0  0  0  0  0  0  0  0  0
    0.6316    9.2239   -0.0000 C   0  0  0  0  0  0  0  0  0  0  0  0
    5.1602    1.4420   -0.0000 C   0  0  0  0  0  0  0  0  0  0  0  0
    7.4125    2.7410   -0.0000 C   0  0  0  0  0  0  0  0  0  0  0  0
    6.6498    1.4539   -0.0000 N   0  0  0  0  0  0  0  0  0  0  0  0
    7.3887    0.1668   -0.0000 C   0  0  0  0  0  0  0  0  0  0  0  0
    8.8783    0.1788   -0.0000 N   0  0  0  0  0  0  0  0  0  0  0  0
    6.6260   -1.1202   -0.0000 C   0  0  0  0  0  0  0  0  0  0  0  0
    9.6291   -1.0964   -0.0000 C   0  0  0  0  0  0  0  0  0  0  0  0
    7.3648   -2.4192   -0.0000 C   0  0  0  0  0  0  0  0  0  0  0  0
    8.8783   -2.3834   -0.0000 C   0  0  0  0  0  0  0  0  0  0  0  0
    9.6291   -3.6705   -0.0000 C   0  0  0  0  0  0  0  0  0  0  0  0
    8.8664   -4.9695   -0.0000 F   0  0  0  0  0  0  0  0  0  0  0  0
   11.1188   -3.6467   -0.0000 F   0  0  0  0  0  0  0  0  0  0  0  0
   10.3561   -4.9576   -0.0000 F   0  0  0  0  0  0  0  0  0  0  0  0
  1  2  1  0  0  0  0
  2  3  2  0  0  0  0
  2  4  1  0  0  0  0
  3  5  1  0  0  0  0
  4  6  2  0  0  0  0
  5  7  2  0  0  0  0
  7  8  1  0  0  0  0
  8  9  1  0  0  0  0
  8 10  1  0  0  0  0
  9 11  2  0  0  0  0
  9 12  1  0  0  0  0
 10 13  2  0  0  0  0
 10 14  1  0  0  0  0
 11 15  1  0  0  0  0
 12 16  2  0  0  0  0
 14 17  1  0  0  0  0
 14 18  1  0  0  0  0
 15 19  2  0  0  0  0
 17 20  1  0  0  0  0
 18 21  1  0  0  0  0
 20 22  1  0  0  0  0
 22 23  1  0  0  0  0
 23 24  2  0  0  0  0
 23 25  1  0  0  0  0
 24 26  1  0  0  0  0
 25 27  2  0  0  0  0
 26 28  2  0  0  0  0
 28 29  1  0  0  0  0
 29 30  1  0  0  0  0
 29 31  1  0  0  0  0
 29 32  1  0  0  0  0
  6  7  1  0  0  0  0
 16 19  1  0  0  0  0
 21 22  1  0  0  0  0
 27 28  1  0  0  0  0
M  END
>  <MolRegNo>
1612570

>  <m>
=

>  <Value>
7000

>  <Unit>
nM

>  <Type>
IC50

>  <pValue>
5.16

>  <Ligand Efficiency>
0

>  <Binding Efficiency>
0

>  <Surface Efficiency>
0

>  <Assay Index>
816462

>  <Assay Category>


>  <Assay Organism>
Homo sapiens

>  <Target ID>
17045

>  <Target Name>
Cytochrome P450 3A4

>  <Target Organism>
Homo sapiens

>  <Target Description>
Target is a single protein chain

>  <Sequence Accession>
P08684

>  <Reference>
J Med Chem 56 (24), 10158-10170 (2013)

>  <Pubmed ID>
24304150

>  <DOI>
10.1021/jm401610c

$$$$
1612561
Actelion Java MolfileCreator 1.0

 33 36  0  0  0  0  0  0  0  0999 V2000
    0.0000   -0.0000   -0.0000 F   0  0  0  0  0  0  0  0  0  0  0  0
   -0.7539    1.3075   -0.0000 C   0  0  0  0  0  0  0  0  0  0  0  0
   -0.0236    2.6150   -0.0000 F   0  0  0  0  0  0  0  0  0  0  0  0
    0.7303    1.3193   -0.0000 F   0  0  0  0  0  0  0  0  0  0  0  0
   -2.2616    1.3193   -0.0000 C   0  0  0  0  0  0  0  0  0  0  0  0
   -3.0273    2.6268   -0.0000 C   0  0  0  0  0  0  0  0  0  0  0  0
   -3.0273    0.0353   -0.0000 C   0  0  0  0  0  0  0  0  0  0  0  0
   -4.5351    2.6386   -0.0000 N   0  0  0  0  0  0  0  0  0  0  0  0
   -4.5351    0.0471   -0.0000 C   0  0  0  0  0  0  0  0  0  0  0  0
   -5.2890    1.3664   -0.0000 C   0  0  0  0  0  0  0  0  0  0  0  0
   -6.7849    1.3782   -0.0000 N   0  0  0  0  0  0  0  0  0  0  0  0
   -7.5388    0.1060   -0.0000 C   0  0  0  0  0  0  0  0  0  0  0  0
   -7.5388    2.6857   -0.0000 C   0  0  0  0  0  0  0  0  0  0  0  0
   -9.0466    0.1178   -0.0000 C   0  0  0  0  0  0  0  0  0  0  0  0
   -9.0466    2.6975   -0.0000 C   0  0  0  0  0  0  0  0  0  0  0  0
   -9.8123    1.4135   -0.0000 C   0  0  0  0  0  0  0  0  0  0  0  0
  -11.3200    1.4253   -0.0000 N   0  0  0  0  0  0  0  0  0  0  0  0
  -12.0857    2.7328   -0.0000 C   0  0  0  0  0  0  0  0  0  0  0  0
  -12.0739    0.1414   -0.0000 C   0  0  0  0  0  0  0  0  0  0  0  0
  -11.3436    4.0403   -0.0000 C   0  0  0  0  0  0  0  0  0  0  0  0
  -13.5817    2.7328   -0.0000 C   0  0  0  0  0  0  0  0  0  0  0  0
  -13.5817    0.1531   -0.0000 C   0  0  0  0  0  0  0  0  0  0  0  0
  -11.3318   -1.1308   -0.0000 C   0  0  0  0  0  0  0  0  0  0  0  0
  -12.0975    5.3479   -0.0000 N   0  0  0  0  0  0  0  0  0  0  0  0
  -14.3473    4.0286   -0.0000 N   0  0  0  0  0  0  0  0  0  0  0  0
  -14.3355   -1.1308   -0.0000 C   0  0  0  0  0  0  0  0  0  0  0  0
  -12.0857   -2.4148   -0.0000 C   0  0  0  0  0  0  0  0  0  0  0  0
  -13.6052    5.3596   -0.0000 C   0  0  0  0  0  0  0  0  0  0  0  0
  -13.5934   -2.4148   -0.0000 C   0  0  0  0  0  0  0  0  0  0  0  0
  -14.3473   -3.6987   -0.0000 C   0  0  0  0  0  0  0  0  0  0  0  0
  -15.8551   -3.6870   -0.0000 F   0  0  0  0  0  0  0  0  0  0  0  0
  -13.6052   -4.9827   -0.0000 F   0  0  0  0  0  0  0  0  0  0  0  0
  -15.1248   -4.9709   -0.0000 F   0  0  0  0  0  0  0  0  0  0  0  0
  1  2  1  0  0  0  0
  2  3  1  0  0  0  0
  2  4  1  0  0  0  0
  2  5  1  0  0  0  0
  5  6  2  0  0  0  0
  5  7  1  0  0  0  0
  6  8  1  0  0  0  0
  7  9  2  0  0  0  0
  8 10  2  0  0  0  0
 10 11  1  0  0  0  0
 11 12  1  0  0  0  0
 11 13  1  0  0  0  0
 12 14  1  0  0  0  0
 13 15  1  0  0  0  0
 14 16  1  0  0  0  0
 16 17  1  0  0  0  0
 17 18  1  0  0  0  0
 17 19  1  0  0  0  0
 18 20  2  0  0  0  0
 18 21  1  0  0  0  0
 19 22  2  0  0  0  0
 19 23  1  0  0  0  0
 20 24  1  0  0  0  0
 21 25  2  0  0  0  0
 22 26  1  0  0  0  0
 23 27  2  0  0  0  0
 24 28  2  0  0  0  0
 26 29  2  0  0  0  0
 29 30  1  0  0  0  0
 30 31  1  0  0  0  0
 30 32  1  0  0  0  0
 30 33  1  0  0  0  0
  9 10  1  0  0  0  0
 15 16  1  0  0  0  0
 25 28  1  0  0  0  0
 27 29  1  0  0  0  0
M  END
>  <MolRegNo>
1612561

>  <m>
=

>  <Value>
6300

>  <Unit>
nM

>  <Type>
IC50

>  <pValue>
5.2

>  <Ligand Efficiency>
0

>  <Binding Efficiency>
0

>  <Surface Efficiency>
0

>  <Assay Index>
816462

>  <Assay Category>


>  <Assay Organism>
Homo sapiens

>  <Target ID>
17045

>  <Target Name>
Cytochrome P450 3A4

>  <Target Organism>
Homo sapiens

>  <Target Description>
Target is a single protein chain

>  <Sequence Accession>
P08684

>  <Reference>
J Med Chem 56 (24), 10158-10170 (2013)

>  <Pubmed ID>
24304150

>  <DOI>
10.1021/jm401610c

$$$$
1612560
Actelion Java MolfileCreator 1.0

 31 34  0  0  0  0  0  0  0  0999 V2000
    0.0000   -0.0000   -0.0000 S   0  0  0  0  0  0  0  0  0  0  0  0
    0.7385    1.3048   -0.0000 O   0  0  0  0  0  0  0  0  0  0  0  0
    1.5510    0.0246   -0.0000 O   0  0  0  0  0  0  0  0  0  0  0  0
   -1.3048    0.7632   -0.0000 C   0  0  0  0  0  0  0  0  0  0  0  0
   -0.0862   -1.3786   -0.0000 C   0  0  0  0  0  0  0  0  0  0  0  0
   -1.3171    2.2649   -0.0000 C   0  0  0  0  0  0  0  0  0  0  0  0
   -2.6095    0.0246   -0.0000 C   0  0  0  0  0  0  0  0  0  0  0  0
   -2.6218    3.0280   -0.0000 C   0  0  0  0  0  0  0  0  0  0  0  0
   -3.9143    0.7878   -0.0000 C   0  0  0  0  0  0  0  0  0  0  0  0
   -3.9266    2.2895   -0.0000 C   0  0  0  0  0  0  0  0  0  0  0  0
   -5.2314    3.0527   -0.0000 N   0  0  0  0  0  0  0  0  0  0  0  0
   -6.5361    2.3141   -0.0000 C   0  0  0  0  0  0  0  0  0  0  0  0
   -5.2437    4.5544   -0.0000 C   0  0  0  0  0  0  0  0  0  0  0  0
   -7.8409    3.0773   -0.0000 C   0  0  0  0  0  0  0  0  0  0  0  0
   -6.5485    5.3175   -0.0000 C   0  0  0  0  0  0  0  0  0  0  0  0
   -7.8532    4.5790   -0.0000 C   0  0  0  0  0  0  0  0  0  0  0  0
   -9.1580    5.3422   -0.0000 N   0  0  0  0  0  0  0  0  0  0  0  0
   -9.1703    6.8439   -0.0000 C   0  0  0  0  0  0  0  0  0  0  0  0
  -10.4628    4.6036   -0.0000 C   0  0  0  0  0  0  0  0  0  0  0  0
   -7.8902    7.6070   -0.0000 C   0  0  0  0  0  0  0  0  0  0  0  0
  -10.4751    7.6070   -0.0000 C   0  0  0  0  0  0  0  0  0  0  0  0
  -11.7675    5.3668   -0.0000 C   0  0  0  0  0  0  0  0  0  0  0  0
  -10.4751    3.1265   -0.0000 C   0  0  0  0  0  0  0  0  0  0  0  0
   -7.9025    9.1088   -0.0000 N   0  0  0  0  0  0  0  0  0  0  0  0
  -10.4874    9.1088   -0.0000 C   0  0  0  0  0  0  0  0  0  0  0  0
  -13.0723    4.6282   -0.0000 C   0  0  0  0  0  0  0  0  0  0  0  0
  -11.7798    2.3880   -0.0000 C   0  0  0  0  0  0  0  0  0  0  0  0
   -9.2072    9.8719   -0.0000 C   0  0  0  0  0  0  0  0  0  0  0  0
  -13.0846    3.1511   -0.0000 C   0  0  0  0  0  0  0  0  0  0  0  0
  -14.3894    2.4126   -0.0000 C   0  0  0  0  0  0  0  0  0  0  0  0
  -15.6941    1.6740   -0.0000 N   0  0  0  0  0  0  0  0  0  0  0  0
  1  2  2  0  0  0  0
  1  3  2  0  0  0  0
  1  4  1  0  0  0  0
  1  5  1  0  0  0  0
  4  6  2  0  0  0  0
  4  7  1  0  0  0  0
  6  8  1  0  0  0  0
  7  9  2  0  0  0  0
  8 10  2  0  0  0  0
 10 11  1  0  0  0  0
 11 12  1  0  0  0  0
 11 13  1  0  0  0  0
 12 14  1  0  0  0  0
 13 15  1  0  0  0  0
 14 16  1  0  0  0  0
 16 17  1  0  0  0  0
 17 18  1  0  0  0  0
 17 19  1  0  0  0  0
 18 20  2  0  0  0  0
 18 21  1  0  0  0  0
 19 22  2  0  0  0  0
 19 23  1  0  0  0  0
 20 24  1  0  0  0  0
 21 25  2  0  0  0  0
 22 26  1  0  0  0  0
 23 27  2  0  0  0  0
 24 28  2  0  0  0  0
 26 29  2  0  0  0  0
 29 30  1  0  0  0  0
 30 31  3  0  0  0  0
  9 10  1  0  0  0  0
 15 16  1  0  0  0  0
 25 28  1  0  0  0  0
 27 29  1  0  0  0  0
M  END
>  <MolRegNo>
1612560

>  <m>
=

>  <Value>
12000

>  <Unit>
nM

>  <Type>
IC50

>  <pValue>
4.92

>  <Ligand Efficiency>
0

>  <Binding Efficiency>
0

>  <Surface Efficiency>
0

>  <Assay Index>
816462

>  <Assay Category>


>  <Assay Organism>
Homo sapiens

>  <Target ID>
17045

>  <Target Name>
Cytochrome P450 3A4

>  <Target Organism>
Homo sapiens

>  <Target Description>
Target is a single protein chain

>  <Sequence Accession>
P08684

>  <Reference>
J Med Chem 56 (24), 10158-10170 (2013)

>  <Pubmed ID>
24304150

>  <DOI>
10.1021/jm401610c

$$$$
1612555
Actelion Java MolfileCreator 1.0

 33 36  0  0  0  0  0  0  0  0999 V2000
    0.0000   -0.0000   -0.0000 F   0  0  0  0  0  0  0  0  0  0  0  0
    0.4959   -1.4877   -0.0000 C   0  0  0  0  0  0  0  0  0  0  0  0
   -0.6021   -2.8336   -0.0000 F   0  0  0  0  0  0  0  0  0  0  0  0
   -1.0154   -1.4759   -0.0000 F   0  0  0  0  0  0  0  0  0  0  0  0
    1.9835   -1.4759   -0.0000 C   0  0  0  0  0  0  0  0  0  0  0  0
    2.7156   -0.1653   -0.0000 N   0  0  0  0  0  0  0  0  0  0  0  0
    2.7156   -2.7628   -0.0000 C   0  0  0  0  0  0  0  0  0  0  0  0
    4.2032   -0.1535   -0.0000 C   0  0  0  0  0  0  0  0  0  0  0  0
    4.2032   -2.7510   -0.0000 C   0  0  0  0  0  0  0  0  0  0  0  0
    4.9353   -1.4404   -0.0000 C   0  0  0  0  0  0  0  0  0  0  0  0
    6.4229   -1.4286   -0.0000 N   0  0  0  0  0  0  0  0  0  0  0  0
    7.1549   -0.1181   -0.0000 C   0  0  0  0  0  0  0  0  0  0  0  0
    7.1549   -2.7156   -0.0000 C   0  0  0  0  0  0  0  0  0  0  0  0
    8.6426   -0.1063   -0.0000 C   0  0  0  0  0  0  0  0  0  0  0  0
    8.6426   -2.7038   -0.0000 C   0  0  0  0  0  0  0  0  0  0  0  0
    9.3864   -1.3932   -0.0000 C   0  0  0  0  0  0  0  0  0  0  0  0
   10.8741   -1.3814   -0.0000 N   0  0  0  0  0  0  0  0  0  0  0  0
   11.6179   -2.6683   -0.0000 C   0  0  0  0  0  0  0  0  0  0  0  0
   11.6179   -0.0708   -0.0000 C   0  0  0  0  0  0  0  0  0  0  0  0
   10.8505   -3.9553   -0.0000 C   0  0  0  0  0  0  0  0  0  0  0  0
   13.1056   -2.6565   -0.0000 C   0  0  0  0  0  0  0  0  0  0  0  0
   10.8505    1.2397   -0.0000 C   0  0  0  0  0  0  0  0  0  0  0  0
   13.1056   -0.0590   -0.0000 C   0  0  0  0  0  0  0  0  0  0  0  0
   11.5943   -5.2422   -0.0000 N   0  0  0  0  0  0  0  0  0  0  0  0
   13.8494   -3.9435   -0.0000 C   0  0  0  0  0  0  0  0  0  0  0  0
   11.5943    2.5503   -0.0000 C   0  0  0  0  0  0  0  0  0  0  0  0
   13.8494    1.2515   -0.0000 C   0  0  0  0  0  0  0  0  0  0  0  0
   13.0820   -5.2304   -0.0000 C   0  0  0  0  0  0  0  0  0  0  0  0
   13.0820    2.5621   -0.0000 C   0  0  0  0  0  0  0  0  0  0  0  0
   13.8258    3.8726   -0.0000 C   0  0  0  0  0  0  0  0  0  0  0  0
   13.3889    5.2186   -0.0000 F   0  0  0  0  0  0  0  0  0  0  0  0
   14.5578    5.1832   -0.0000 F   0  0  0  0  0  0  0  0  0  0  0  0
   15.2544    4.0734   -0.0000 F   0  0  0  0  0  0  0  0  0  0  0  0
  1  2  1  0  0  0  0
  2  3  1  0  0  0  0
  2  4  1  0  0  0  0
  2  5  1  0  0  0  0
  5  6  2  0  0  0  0
  5  7  1  0  0  0  0
  6  8  1  0  0  0  0
  7  9  2  0  0  0  0
  8 10  2  0  0  0  0
 10 11  1  0  0  0  0
 11 12  1  0  0  0  0
 11 13  1  0  0  0  0
 12 14  1  0  0  0  0
 13 15  1  0  0  0  0
 14 16  1  0  0  0  0
 16 17  1  0  0  0  0
 17 18  1  0  0  0  0
 17 19  1  0  0  0  0
 18 20  2  0  0  0  0
 18 21  1  0  0  0  0
 19 22  2  0  0  0  0
 19 23  1  0  0  0  0
 20 24  1  0  0  0  0
 21 25  2  0  0  0  0
 22 26  1  0  0  0  0
 23 27  2  0  0  0  0
 24 28  2  0  0  0  0
 26 29  2  0  0  0  0
 29 30  1  0  0  0  0
 30 31  1  0  0  0  0
 30 32  1  0  0  0  0
 30 33  1  0  0  0  0
  9 10  1  0  0  0  0
 15 16  1  0  0  0  0
 25 28  1  0  0  0  0
 27 29  1  0  0  0  0
M  END
>  <MolRegNo>
1612555

>  <m>
=

>  <Value>
16000

>  <Unit>
nM

>  <Type>
IC50

>  <pValue>
4.8

>  <Ligand Efficiency>
0

>  <Binding Efficiency>
0

>  <Surface Efficiency>
0

>  <Assay Index>
816462

>  <Assay Category>


>  <Assay Organism>
Homo sapiens

>  <Target ID>
17045

>  <Target Name>
Cytochrome P450 3A4

>  <Target Organism>
Homo sapiens

>  <Target Description>
Target is a single protein chain

>  <Sequence Accession>
P08684

>  <Reference>
J Med Chem 56 (24), 10158-10170 (2013)

>  <Pubmed ID>
24304150

>  <DOI>
10.1021/jm401610c

$$$$
1612620
Actelion Java MolfileCreator 1.0

 31 34  0  0  0  0  0  0  0  0999 V2000
    0.0000   -0.0000   -0.0000 F   0  0  0  0  0  0  0  0  0  0  0  0
    1.4983    0.0119   -0.0000 C   0  0  0  0  0  0  0  0  0  0  0  0
    2.2474   -1.2724   -0.0000 F   0  0  0  0  0  0  0  0  0  0  0  0
    0.7254   -1.2724   -0.0000 F   0  0  0  0  0  0  0  0  0  0  0  0
    2.2474    1.3318   -0.0000 C   0  0  0  0  0  0  0  0  0  0  0  0
    3.7338    1.3437   -0.0000 C   0  0  0  0  0  0  0  0  0  0  0  0
    1.4745    2.6398   -0.0000 C   0  0  0  0  0  0  0  0  0  0  0  0
    4.4711    2.6517   -0.0000 C   0  0  0  0  0  0  0  0  0  0  0  0
    2.2236    3.9597   -0.0000 C   0  0  0  0  0  0  0  0  0  0  0  0
    3.7100    3.9716   -0.0000 C   0  0  0  0  0  0  0  0  0  0  0  0
    4.4473    5.2797   -0.0000 N   0  0  0  0  0  0  0  0  0  0  0  0
    3.6863    6.5877   -0.0000 C   0  0  0  0  0  0  0  0  0  0  0  0
    5.9337    5.2916   -0.0000 C   0  0  0  0  0  0  0  0  0  0  0  0
    4.4235    7.9076   -0.0000 C   0  0  0  0  0  0  0  0  0  0  0  0
    2.1761    6.5996   -0.0000 C   0  0  0  0  0  0  0  0  0  0  0  0
    6.6828    4.0073   -0.0000 C   0  0  0  0  0  0  0  0  0  0  0  0
    6.6828    6.5996   -0.0000 C   0  0  0  0  0  0  0  0  0  0  0  0
    3.6625    9.2156   -0.0000 N   0  0  0  0  0  0  0  0  0  0  0  0
    1.4032    7.9195   -0.0000 C   0  0  0  0  0  0  0  0  0  0  0  0
    8.1692    4.0192   -0.0000 C   0  0  0  0  0  0  0  0  0  0  0  0
    8.1692    6.6115   -0.0000 C   0  0  0  0  0  0  0  0  0  0  0  0
    2.1523    9.2275   -0.0000 C   0  0  0  0  0  0  0  0  0  0  0  0
    8.9065    5.3272   -0.0000 N   0  0  0  0  0  0  0  0  0  0  0  0
   10.3929    5.3391   -0.0000 C   0  0  0  0  0  0  0  0  0  0  0  0
   11.1301    4.0430   -0.0000 C   0  0  0  0  0  0  0  0  0  0  0  0
   11.1301    6.6471   -0.0000 C   0  0  0  0  0  0  0  0  0  0  0  0
   10.3691    2.7587   -0.0000 C   0  0  0  0  0  0  0  0  0  0  0  0
   12.6165    4.0549   -0.0000 C   0  0  0  0  0  0  0  0  0  0  0  0
   12.6165    6.6590   -0.0000 C   0  0  0  0  0  0  0  0  0  0  0  0
    9.6080    1.4745   -0.0000 N   0  0  0  0  0  0  0  0  0  0  0  0
   13.3537    5.3748   -0.0000 C   0  0  0  0  0  0  0  0  0  0  0  0
  1  2  1  0  0  0  0
  2  3  1  0  0  0  0
  2  4  1  0  0  0  0
  2  5  1  0  0  0  0
  5  6  2  0  0  0  0
  5  7  1  0  0  0  0
  6  8  1  0  0  0  0
  7  9  2  0  0  0  0
  8 10  2  0  0  0  0
 10 11  1  0  0  0  0
 11 12  1  0  0  0  0
 11 13  1  0  0  0  0
 12 14  2  0  0  0  0
 12 15  1  0  0  0  0
 13 16  1  0  0  0  0
 13 17  1  0  0  0  0
 14 18  1  0  0  0  0
 15 19  2  0  0  0  0
 16 20  1  0  0  0  0
 17 21  1  0  0  0  0
 18 22  2  0  0  0  0
 20 23  1  0  0  0  0
 23 24  1  0  0  0  0
 24 25  2  0  0  0  0
 24 26  1  0  0  0  0
 25 27  1  0  0  0  0
 25 28  1  0  0  0  0
 26 29  2  0  0  0  0
 27 30  3  0  0  0  0
 28 31  2  0  0  0  0
  9 10  1  0  0  0  0
 19 22  1  0  0  0  0
 21 23  1  0  0  0  0
 29 31  1  0  0  0  0
M  END
>  <MolRegNo>
1612620

>  <m>
=

>  <Value>
5200

>  <Unit>
nM

>  <Type>
IC50

>  <pValue>
5.28

>  <Ligand Efficiency>
0

>  <Binding Efficiency>
0

>  <Surface Efficiency>
0

>  <Assay Index>
816462

>  <Assay Category>


>  <Assay Organism>
Homo sapiens

>  <Target ID>
17045

>  <Target Name>
Cytochrome P450 3A4

>  <Target Organism>
Homo sapiens

>  <Target Description>
Target is a single protein chain

>  <Sequence Accession>
P08684

>  <Reference>
J Med Chem 56 (24), 10158-10170 (2013)

>  <Pubmed ID>
24304150

>  <DOI>
10.1021/jm401610c

$$$$
1612617
Actelion Java MolfileCreator 1.0

 31 34  0  0  0  0  0  0  0  0999 V2000
    0.0000   -0.0000   -0.0000 F   0  0  0  0  0  0  0  0  0  0  0  0
   -1.3459   -0.8888   -0.0000 C   0  0  0  0  0  0  0  0  0  0  0  0
   -0.0762   -1.6253   -0.0000 F   0  0  0  0  0  0  0  0  0  0  0  0
   -1.4475   -2.4887   -0.0000 F   0  0  0  0  0  0  0  0  0  0  0  0
   -2.6410   -0.1270   -0.0000 C   0  0  0  0  0  0  0  0  0  0  0  0
   -2.6537    1.3713   -0.0000 C   0  0  0  0  0  0  0  0  0  0  0  0
   -3.9362   -0.8634   -0.0000 C   0  0  0  0  0  0  0  0  0  0  0  0
   -3.9489    2.1332   -0.0000 C   0  0  0  0  0  0  0  0  0  0  0  0
   -5.2313   -0.1016   -0.0000 C   0  0  0  0  0  0  0  0  0  0  0  0
   -5.2440    1.3967   -0.0000 C   0  0  0  0  0  0  0  0  0  0  0  0
   -6.5391    2.1586   -0.0000 N   0  0  0  0  0  0  0  0  0  0  0  0
   -6.5518    3.6568   -0.0000 C   0  0  0  0  0  0  0  0  0  0  0  0
   -7.8343    1.4221   -0.0000 C   0  0  0  0  0  0  0  0  0  0  0  0
   -5.2821    4.4187   -0.0000 C   0  0  0  0  0  0  0  0  0  0  0  0
   -7.8470    4.4187   -0.0000 C   0  0  0  0  0  0  0  0  0  0  0  0
   -9.1294    2.1839   -0.0000 C   0  0  0  0  0  0  0  0  0  0  0  0
   -7.8470   -0.0508   -0.0000 C   0  0  0  0  0  0  0  0  0  0  0  0
   -5.2948    5.9170   -0.0000 N   0  0  0  0  0  0  0  0  0  0  0  0
   -7.8597    5.9170   -0.0000 C   0  0  0  0  0  0  0  0  0  0  0  0
  -10.4245    1.4475   -0.0000 C   0  0  0  0  0  0  0  0  0  0  0  0
   -9.1421   -0.7872   -0.0000 C   0  0  0  0  0  0  0  0  0  0  0  0
   -6.5899    6.6788   -0.0000 C   0  0  0  0  0  0  0  0  0  0  0  0
  -10.4372   -0.0254   -0.0000 N   0  0  0  0  0  0  0  0  0  0  0  0
  -11.7324   -0.7618   -0.0000 C   0  0  0  0  0  0  0  0  0  0  0  0
  -13.0275   -0.0000   -0.0000 C   0  0  0  0  0  0  0  0  0  0  0  0
  -14.3226   -0.7364   -0.0000 C   0  0  0  0  0  0  0  0  0  0  0  0
  -13.0402    1.4983   -0.0000 C   0  0  0  0  0  0  0  0  0  0  0  0
  -15.6177    0.0254   -0.0000 C   0  0  0  0  0  0  0  0  0  0  0  0
  -14.3353   -2.2093   -0.0000 C   0  0  0  0  0  0  0  0  0  0  0  0
  -14.3353    2.2601   -0.0000 C   0  0  0  0  0  0  0  0  0  0  0  0
  -15.6304    1.5237   -0.0000 C   0  0  0  0  0  0  0  0  0  0  0  0
  1  2  1  0  0  0  0
  2  3  1  0  0  0  0
  2  4  1  0  0  0  0
  2  5  1  0  0  0  0
  5  6  2  0  0  0  0
  5  7  1  0  0  0  0
  6  8  1  0  0  0  0
  7  9  2  0  0  0  0
  8 10  2  0  0  0  0
 10 11  1  0  0  0  0
 11 12  1  0  0  0  0
 11 13  1  0  0  0  0
 12 14  2  0  0  0  0
 12 15  1  0  0  0  0
 13 16  1  0  0  0  0
 13 17  1  0  0  0  0
 14 18  1  0  0  0  0
 15 19  2  0  0  0  0
 16 20  1  0  0  0  0
 17 21  1  0  0  0  0
 18 22  2  0  0  0  0
 20 23  1  0  0  0  0
 23 24  1  0  0  0  0
 24 25  1  0  0  0  0
 25 26  2  0  0  0  0
 25 27  1  0  0  0  0
 26 28  1  0  0  0  0
 26 29  1  0  0  0  0
 27 30  2  0  0  0  0
 28 31  2  0  0  0  0
  9 10  1  0  0  0  0
 19 22  1  0  0  0  0
 21 23  1  0  0  0  0
 30 31  1  0  0  0  0
M  END
>  <MolRegNo>
1612617

>  <m>
=

>  <Value>
18000

>  <Unit>
nM

>  <Type>
IC50

>  <pValue>
4.75

>  <Ligand Efficiency>
0

>  <Binding Efficiency>
0

>  <Surface Efficiency>
0

>  <Assay Index>
816462

>  <Assay Category>


>  <Assay Organism>
Homo sapiens

>  <Target ID>
17045

>  <Target Name>
Cytochrome P450 3A4

>  <Target Organism>
Homo sapiens

>  <Target Description>
Target is a single protein chain

>  <Sequence Accession>
P08684

>  <Reference>
J Med Chem 56 (24), 10158-10170 (2013)

>  <Pubmed ID>
24304150

>  <DOI>
10.1021/jm401610c

$$$$
1612609
Actelion Java MolfileCreator 1.0

 32 35  0  0  0  0  0  0  0  0999 V2000
    0.0000   -0.0000   -0.0000 Cl  0  0  0  0  0  0  0  0  0  0  0  0
    0.7387    1.3225   -0.0000 C   0  0  0  0  0  0  0  0  0  0  0  0
   -0.0238    2.6450   -0.0000 C   0  0  0  0  0  0  0  0  0  0  0  0
    2.2399    1.3463   -0.0000 C   0  0  0  0  0  0  0  0  0  0  0  0
    0.7149    3.9556   -0.0000 C   0  0  0  0  0  0  0  0  0  0  0  0
    2.9667    2.6569   -0.0000 C   0  0  0  0  0  0  0  0  0  0  0  0
    2.2042    3.9675   -0.0000 C   0  0  0  0  0  0  0  0  0  0  0  0
    2.9428    5.2900   -0.0000 C   0  0  0  0  0  0  0  0  0  0  0  0
    2.1803    6.6006   -0.0000 C   0  0  0  0  0  0  0  0  0  0  0  0
    4.4321    5.3019   -0.0000 C   0  0  0  0  0  0  0  0  0  0  0  0
    0.6672    6.6006   -0.0000 C   0  0  0  0  0  0  0  0  0  0  0  0
    2.9190    7.9111   -0.0000 C   0  0  0  0  0  0  0  0  0  0  0  0
    5.1708    6.6244   -0.0000 O   0  0  0  0  0  0  0  0  0  0  0  0
    5.1828    4.0151   -0.0000 N   0  0  0  0  0  0  0  0  0  0  0  0
   -0.1072    7.9111   -0.0000 N   0  0  0  0  0  0  0  0  0  0  0  0
    2.1565    9.2217   -0.0000 C   0  0  0  0  0  0  0  0  0  0  0  0
    4.4202    2.7284   -0.0000 C   0  0  0  0  0  0  0  0  0  0  0  0
    6.6720    4.0390   -0.0000 C   0  0  0  0  0  0  0  0  0  0  0  0
    0.6315    9.2336   -0.0000 C   0  0  0  0  0  0  0  0  0  0  0  0
    5.1589    1.4536   -0.0000 C   0  0  0  0  0  0  0  0  0  0  0  0
    7.4107    2.7522   -0.0000 C   0  0  0  0  0  0  0  0  0  0  0  0
    6.6482    1.4655   -0.0000 N   0  0  0  0  0  0  0  0  0  0  0  0
    7.3869    0.1787   -0.0000 C   0  0  0  0  0  0  0  0  0  0  0  0
    6.6244   -1.1200   -0.0000 C   0  0  0  0  0  0  0  0  0  0  0  0
    8.8762    0.1906   -0.0000 C   0  0  0  0  0  0  0  0  0  0  0  0
    7.3631   -2.4067   -0.0000 C   0  0  0  0  0  0  0  0  0  0  0  0
    9.6268   -1.0961   -0.0000 C   0  0  0  0  0  0  0  0  0  0  0  0
    8.8524   -2.3948   -0.0000 C   0  0  0  0  0  0  0  0  0  0  0  0
    9.5911   -3.6815   -0.0000 C   0  0  0  0  0  0  0  0  0  0  0  0
    8.8285   -4.9802   -0.0000 F   0  0  0  0  0  0  0  0  0  0  0  0
   11.0804   -3.6696   -0.0000 F   0  0  0  0  0  0  0  0  0  0  0  0
   10.3178   -4.9564   -0.0000 F   0  0  0  0  0  0  0  0  0  0  0  0
  1  2  1  0  0  0  0
  2  3  2  0  0  0  0
  2  4  1  0  0  0  0
  3  5  1  0  0  0  0
  4  6  2  0  0  0  0
  5  7  2  0  0  0  0
  8  7  1  1  0  0  0
  8  9  1  0  0  0  0
  8 10  1  0  0  0  0
  9 11  2  0  0  0  0
  9 12  1  0  0  0  0
 10 13  2  0  0  0  0
 10 14  1  0  0  0  0
 11 15  1  0  0  0  0
 12 16  2  0  0  0  0
 14 17  1  0  0  0  0
 14 18  1  0  0  0  0
 15 19  2  0  0  0  0
 17 20  1  0  0  0  0
 18 21  1  0  0  0  0
 20 22  1  0  0  0  0
 22 23  1  0  0  0  0
 23 24  2  0  0  0  0
 23 25  1  0  0  0  0
 24 26  1  0  0  0  0
 25 27  2  0  0  0  0
 26 28  2  0  0  0  0
 28 29  1  0  0  0  0
 29 30  1  0  0  0  0
 29 31  1  0  0  0  0
 29 32  1  0  0  0  0
  6  7  1  0  0  0  0
 16 19  1  0  0  0  0
 21 22  1  0  0  0  0
 27 28  1  0  0  0  0
M  END
>  <MolRegNo>
1612609

>  <m>
=

>  <Value>
15000

>  <Unit>
nM

>  <Type>
IC50

>  <pValue>
4.82

>  <Ligand Efficiency>
0

>  <Binding Efficiency>
0

>  <Surface Efficiency>
0

>  <Assay Index>
816462

>  <Assay Category>


>  <Assay Organism>
Homo sapiens

>  <Target ID>
17045

>  <Target Name>
Cytochrome P450 3A4

>  <Target Organism>
Homo sapiens

>  <Target Description>
Target is a single protein chain

>  <Sequence Accession>
P08684

>  <Reference>
J Med Chem 56 (24), 10158-10170 (2013)

>  <Pubmed ID>
24304150

>  <DOI>
10.1021/jm401610c

$$$$
1612457
Actelion Java MolfileCreator 1.0

 32 35  0  0  0  0  0  0  0  0999 V2000
    0.0000   -0.0000   -0.0000 Cl  0  0  0  0  0  0  0  0  0  0  0  0
    0.7390    1.3230   -0.0000 C   0  0  0  0  0  0  0  0  0  0  0  0
   -0.0238    2.6341   -0.0000 C   0  0  0  0  0  0  0  0  0  0  0  0
    2.2408    1.3469   -0.0000 C   0  0  0  0  0  0  0  0  0  0  0  0
    0.7151    3.9452   -0.0000 C   0  0  0  0  0  0  0  0  0  0  0  0
    2.9678    2.6579   -0.0000 C   0  0  0  0  0  0  0  0  0  0  0  0
    2.2050    3.9571   -0.0000 C   0  0  0  0  0  0  0  0  0  0  0  0
    2.9440    5.2801   -0.0000 C   0  0  0  0  0  0  0  0  0  0  0  0
    2.1812    6.5912   -0.0000 C   0  0  0  0  0  0  0  0  0  0  0  0
    4.4339    5.2921   -0.0000 C   0  0  0  0  0  0  0  0  0  0  0  0
    0.6675    6.5912   -0.0000 C   0  0  0  0  0  0  0  0  0  0  0  0
    2.9202    7.9023   -0.0000 C   0  0  0  0  0  0  0  0  0  0  0  0
    5.1729    6.6151   -0.0000 O   0  0  0  0  0  0  0  0  0  0  0  0
    5.1848    4.0048   -0.0000 N   0  0  0  0  0  0  0  0  0  0  0  0
   -0.1073    7.9023   -0.0000 N   0  0  0  0  0  0  0  0  0  0  0  0
    2.1573    9.2134   -0.0000 C   0  0  0  0  0  0  0  0  0  0  0  0
    4.4220    2.7175   -0.0000 C   0  0  0  0  0  0  0  0  0  0  0  0
    6.6747    4.0286   -0.0000 C   0  0  0  0  0  0  0  0  0  0  0  0
    0.6317    9.2253   -0.0000 C   0  0  0  0  0  0  0  0  0  0  0  0
    5.1609    1.4422   -0.0000 C   0  0  0  0  0  0  0  0  0  0  0  0
    7.4136    2.7414   -0.0000 C   0  0  0  0  0  0  0  0  0  0  0  0
    6.6508    1.4541   -0.0000 N   0  0  0  0  0  0  0  0  0  0  0  0
    7.3898    0.1669   -0.0000 C   0  0  0  0  0  0  0  0  0  0  0  0
    6.6270   -1.1323   -0.0000 C   0  0  0  0  0  0  0  0  0  0  0  0
    8.8797    0.1788   -0.0000 C   0  0  0  0  0  0  0  0  0  0  0  0
    7.3660   -2.4196   -0.0000 C   0  0  0  0  0  0  0  0  0  0  0  0
    9.6306   -1.1085   -0.0000 C   0  0  0  0  0  0  0  0  0  0  0  0
    8.8559   -2.4076   -0.0000 C   0  0  0  0  0  0  0  0  0  0  0  0
    9.5948   -3.6949   -0.0000 C   0  0  0  0  0  0  0  0  0  0  0  0
    8.8320   -4.9941   -0.0000 F   0  0  0  0  0  0  0  0  0  0  0  0
   11.0847   -3.6830   -0.0000 F   0  0  0  0  0  0  0  0  0  0  0  0
   10.3219   -4.9702   -0.0000 F   0  0  0  0  0  0  0  0  0  0  0  0
  1  2  1  0  0  0  0
  2  3  2  0  0  0  0
  2  4  1  0  0  0  0
  3  5  1  0  0  0  0
  4  6  2  0  0  0  0
  5  7  2  0  0  0  0
  7  8  1  0  0  0  0
  8  9  1  0  0  0  0
  8 10  1  0  0  0  0
  9 11  2  0  0  0  0
  9 12  1  0  0  0  0
 10 13  2  0  0  0  0
 10 14  1  0  0  0  0
 11 15  1  0  0  0  0
 12 16  2  0  0  0  0
 14 17  1  0  0  0  0
 14 18  1  0  0  0  0
 15 19  2  0  0  0  0
 17 20  1  0  0  0  0
 18 21  1  0  0  0  0
 20 22  1  0  0  0  0
 22 23  1  0  0  0  0
 23 24  2  0  0  0  0
 23 25  1  0  0  0  0
 24 26  1  0  0  0  0
 25 27  2  0  0  0  0
 26 28  2  0  0  0  0
 28 29  1  0  0  0  0
 29 30  1  0  0  0  0
 29 31  1  0  0  0  0
 29 32  1  0  0  0  0
  6  7  1  0  0  0  0
 16 19  1  0  0  0  0
 21 22  1  0  0  0  0
 27 28  1  0  0  0  0
M  END
>  <MolRegNo>
1612457

>  <m>
=

>  <Value>
16000

>  <Unit>
nM

>  <Type>
IC50

>  <pValue>
4.8

>  <Ligand Efficiency>
0

>  <Binding Efficiency>
0

>  <Surface Efficiency>
0

>  <Assay Index>
816462

>  <Assay Category>


>  <Assay Organism>
Homo sapiens

>  <Target ID>
17045

>  <Target Name>
Cytochrome P450 3A4

>  <Target Organism>
Homo sapiens

>  <Target Description>
Target is a single protein chain

>  <Sequence Accession>
P08684

>  <Reference>
J Med Chem 56 (24), 10158-10170 (2013)

>  <Pubmed ID>
24304150

>  <DOI>
10.1021/jm401610c

$$$$
1613318
Actelion Java MolfileCreator 1.0

 30 34  0  0  0  0  0  0  0  0999 V2000
    0.0000   -0.0000   -0.0000 Cl  0  0  0  0  0  0  0  0  0  0  0  0
    0.9289   -1.1552   -0.0000 C   0  0  0  0  0  0  0  0  0  0  0  0
    2.4056   -0.9170   -0.0000 C   0  0  0  0  0  0  0  0  0  0  0  0
    0.3692   -2.5485   -0.0000 C   0  0  0  0  0  0  0  0  0  0  0  0
    3.3345   -2.0722   -0.0000 C   0  0  0  0  0  0  0  0  0  0  0  0
    1.2981   -3.7037   -0.0000 C   0  0  0  0  0  0  0  0  0  0  0  0
    2.7748   -3.4536   -0.0000 C   0  0  0  0  0  0  0  0  0  0  0  0
    3.7037   -4.6087   -0.0000 C   0  0  0  0  0  0  0  0  0  0  0  0
    4.5730   -5.8235   -0.0000 N   0  0  0  0  0  0  0  0  0  0  0  0
    4.5730   -3.3821   -0.0000 N   0  0  0  0  0  0  0  0  0  0  0  0
    2.2508   -5.0613   -0.0000 C   0  0  0  0  0  0  0  0  0  0  0  0
    3.6799   -7.0382   -0.0000 C   0  0  0  0  0  0  0  0  0  0  0  0
    6.0021   -5.3471   -0.0000 C   0  0  0  0  0  0  0  0  0  0  0  0
    4.5968   -1.8697   -0.0000 C   0  0  0  0  0  0  0  0  0  0  0  0
    6.0021   -3.8347   -0.0000 C   0  0  0  0  0  0  0  0  0  0  0  0
    2.2389   -6.5618   -0.0000 C   0  0  0  0  0  0  0  0  0  0  0  0
    0.9408   -4.2991   -0.0000 C   0  0  0  0  0  0  0  0  0  0  0  0
    4.1324   -8.4553   -0.0000 O   0  0  0  0  0  0  0  0  0  0  0  0
    3.2988   -1.0837   -0.0000 O   0  0  0  0  0  0  0  0  0  0  0  0
    5.9068   -1.1313   -0.0000 C   0  0  0  0  0  0  0  0  0  0  0  0
    0.9289   -7.3002   -0.0000 C   0  0  0  0  0  0  0  0  0  0  0  0
   -0.3692   -5.0375   -0.0000 C   0  0  0  0  0  0  0  0  0  0  0  0
    7.1692   -1.9054   -0.0000 C   0  0  0  0  0  0  0  0  0  0  0  0
    5.9187    0.3811   -0.0000 C   0  0  0  0  0  0  0  0  0  0  0  0
   -0.3811   -6.5380   -0.0000 C   0  0  0  0  0  0  0  0  0  0  0  0
    8.4672   -1.1671   -0.0000 C   0  0  0  0  0  0  0  0  0  0  0  0
    7.2168    1.1194   -0.0000 C   0  0  0  0  0  0  0  0  0  0  0  0
    9.7415   -1.9292   -0.0000 F   0  0  0  0  0  0  0  0  0  0  0  0
    8.4911    0.3454   -0.0000 C   0  0  0  0  0  0  0  0  0  0  0  0
    9.7891    1.0837   -0.0000 F   0  0  0  0  0  0  0  0  0  0  0  0
  1  2  1  0  0  0  0
  2  3  2  0  0  0  0
  2  4  1  0  0  0  0
  3  5  1  0  0  0  0
  4  6  2  0  0  0  0
  5  7  2  0  0  0  0
  8  7  1  1  0  0  0
  8  9  1  0  0  0  0
  8 10  1  0  0  0  0
  8 11  1  0  0  0  0
  9 12  1  0  0  0  0
  9 13  1  0  0  0  0
 10 14  1  0  0  0  0
 10 15  1  0  0  0  0
 11 16  2  0  0  0  0
 11 17  1  0  0  0  0
 12 18  2  0  0  0  0
 14 19  2  0  0  0  0
 14 20  1  0  0  0  0
 16 21  1  0  0  0  0
 17 22  2  0  0  0  0
 20 23  2  0  0  0  0
 20 24  1  0  0  0  0
 21 25  2  0  0  0  0
 23 26  1  0  0  0  0
 24 27  2  0  0  0  0
 26 28  1  0  0  0  0
 26 29  2  0  0  0  0
 29 30  1  0  0  0  0
  6  7  1  0  0  0  0
 12 16  1  0  0  0  0
 13 15  1  0  0  0  0
 22 25  1  0  0  0  0
 27 29  1  0  0  0  0
M  END
>  <MolRegNo>
1613318

>  <m>
=

>  <Value>
16000

>  <Unit>
nM

>  <Type>
IC50

>  <pValue>
4.8

>  <Ligand Efficiency>
0

>  <Binding Efficiency>
0

>  <Surface Efficiency>
0

>  <Assay Index>
817670

>  <Assay Category>


>  <Assay Organism>
Homo sapiens

>  <Target ID>
17045

>  <Target Name>
Cytochrome P450 3A4

>  <Target Organism>
Homo sapiens

>  <Target Description>
Target is a single protein chain

>  <Sequence Accession>
P08684

>  <Reference>
J Med Chem 56 (22), 9351-9355 (2013)

>  <Pubmed ID>
24164599

>  <DOI>
10.1021/jm4013246

$$$$
1612330
Actelion Java MolfileCreator 1.0

 29 31  0  0  0  0  0  0  0  0999 V2000
    0.0000   -0.0000   -0.0000 Cl  0  0  0  0  0  0  0  0  0  0  0  0
   -1.0883   -0.6114   -0.0000 C   0  0  0  0  0  0  0  0  0  0  0  0
   -2.4456    0.1712   -0.0000 C   0  0  0  0  0  0  0  0  0  0  0  0
   -1.1005   -2.1521   -0.0000 C   0  0  0  0  0  0  0  0  0  0  0  0
   -3.8029   -0.5869   -0.0000 C   0  0  0  0  0  0  0  0  0  0  0  0
   -2.4578   -2.9103   -0.0000 C   0  0  0  0  0  0  0  0  0  0  0  0
   -3.8151   -2.1277   -0.0000 C   0  0  0  0  0  0  0  0  0  0  0  0
   -5.1602    0.2079   -0.0000 C   0  0  0  0  0  0  0  0  0  0  0  0
   -4.9034   -2.7391   -0.0000 O   0  0  0  0  0  0  0  0  0  0  0  0
   -5.1724    1.7731   -0.0000 N   0  0  0  0  0  0  0  0  0  0  0  0
   -6.2485   -0.4035   -0.0000 C   0  0  0  0  0  0  0  0  0  0  0  0
   -6.5297    2.5679   -0.0000 N   0  0  0  0  0  0  0  0  0  0  0  0
   -6.5420    4.1331   -0.0000 C   0  0  0  0  0  0  0  0  0  0  0  0
   -5.4781    4.7689   -0.0000 O   0  0  0  0  0  0  0  0  0  0  0  0
   -7.8993    4.9279   -0.0000 C   0  0  0  0  0  0  0  0  0  0  0  0
   -9.2566    4.1697   -0.0000 C   0  0  0  0  0  0  0  0  0  0  0  0
   -7.9115    6.4931   -0.0000 C   0  0  0  0  0  0  0  0  0  0  0  0
  -10.6139    4.9523   -0.0000 C   0  0  0  0  0  0  0  0  0  0  0  0
   -9.2688    7.2756   -0.0000 C   0  0  0  0  0  0  0  0  0  0  0  0
  -11.9712    4.1942   -0.0000 S   0  0  0  0  0  0  0  0  0  0  0  0
  -10.6261    6.5175   -0.0000 C   0  0  0  0  0  0  0  0  0  0  0  0
  -11.9834    2.9592   -0.0000 O   0  0  0  0  0  0  0  0  0  0  0  0
  -10.9074    3.5828   -0.0000 O   0  0  0  0  0  0  0  0  0  0  0  0
  -13.3285    4.9768   -0.0000 N   0  0  0  0  0  0  0  0  0  0  0  0
  -14.6858    4.2064   -0.0000 C   0  0  0  0  0  0  0  0  0  0  0  0
  -13.3407    6.5420   -0.0000 C   0  0  0  0  0  0  0  0  0  0  0  0
  -16.0431    4.9890   -0.0000 C   0  0  0  0  0  0  0  0  0  0  0  0
  -14.6980    7.3246   -0.0000 C   0  0  0  0  0  0  0  0  0  0  0  0
  -16.0553    6.5542   -0.0000 O   0  0  0  0  0  0  0  0  0  0  0  0
  1  2  1  0  0  0  0
  2  3  2  0  0  0  0
  2  4  1  0  0  0  0
  3  5  1  0  0  0  0
  4  6  2  0  0  0  0
  5  7  2  0  0  0  0
  5  8  1  0  0  0  0
  7  9  1  0  0  0  0
  8 10  2  0  0  0  0
  8 11  1  0  0  0  0
 10 12  1  0  0  0  0
 12 13  1  0  0  0  0
 13 14  2  0  0  0  0
 13 15  1  0  0  0  0
 15 16  2  0  0  0  0
 15 17  1  0  0  0  0
 16 18  1  0  0  0  0
 17 19  2  0  0  0  0
 18 20  1  0  0  0  0
 18 21  2  0  0  0  0
 20 22  2  0  0  0  0
 20 23  2  0  0  0  0
 20 24  1  0  0  0  0
 24 25  1  0  0  0  0
 24 26  1  0  0  0  0
 25 27  1  0  0  0  0
 26 28  1  0  0  0  0
 27 29  1  0  0  0  0
  6  7  1  0  0  0  0
 19 21  1  0  0  0  0
 28 29  1  0  0  0  0
M  END
>  <MolRegNo>
1612330

>  <m>
=

>  <Value>
2610

>  <Unit>
nM

>  <Type>
IC50

>  <pValue>
5.58

>  <Ligand Efficiency>
0

>  <Binding Efficiency>
0

>  <Surface Efficiency>
0

>  <Assay Index>
818327

>  <Assay Category>


>  <Assay Organism>
Homo sapiens

>  <Target ID>
17045

>  <Target Name>
Cytochrome P450 3A4

>  <Target Organism>
Homo sapiens

>  <Target Description>
Target is a single protein chain

>  <Sequence Accession>
P08684

>  <Reference>
J Med Chem 56 (23), 9496-9508 (2013)

>  <Pubmed ID>
24237195

>  <DOI>
10.1021/jm400870h

$$$$
1443001
Actelion Java MolfileCreator 1.0

 32 36  0  0  0  0  0  0  0  0999 V2000
    0.0000   -0.0000   -0.0000 Br  0  0  0  0  0  0  0  0  0  0  0  0
    1.2920    0.7705   -0.0000 C   0  0  0  0  0  0  0  0  0  0  0  0
    2.5840    0.0356   -0.0000 C   0  0  0  0  0  0  0  0  0  0  0  0
    3.8760    0.7942   -0.0000 C   0  0  0  0  0  0  0  0  0  0  0  0
    5.1799    0.0474   -0.0000 C   0  0  0  0  0  0  0  0  0  0  0  0
    3.8642    2.3114   -0.0000 C   0  0  0  0  0  0  0  0  0  0  0  0
    6.4482    0.8179   -0.0000 C   0  0  0  0  0  0  0  0  0  0  0  0
    5.1562    3.0819   -0.0000 C   0  0  0  0  0  0  0  0  0  0  0  0
    6.4482    2.3351   -0.0000 C   0  0  0  0  0  0  0  0  0  0  0  0
    7.7520    0.0711   -0.0000 C   0  0  0  0  0  0  0  0  0  0  0  0
    7.7402    3.0937   -0.0000 C   0  0  0  0  0  0  0  0  0  0  0  0
    9.0440    0.8297   -0.0000 C   0  0  0  0  0  0  0  0  0  0  0  0
    9.0322    2.3469   -0.0000 C   0  0  0  0  0  0  0  0  0  0  0  0
    7.7402    4.6109   -0.0000 C   0  0  0  0  0  0  0  0  0  0  0  0
   10.3242    3.0937   -0.0000 C   0  0  0  0  0  0  0  0  0  0  0  0
    9.0440    5.3695   -0.0000 C   0  0  0  0  0  0  0  0  0  0  0  0
   10.3242    4.6109   -0.0000 C   0  0  0  0  0  0  0  0  0  0  0  0
   11.7466    2.6433   -0.0000 C   0  0  0  0  0  0  0  0  0  0  0  0
   11.7466    5.0732   -0.0000 C   0  0  0  0  0  0  0  0  0  0  0  0
   10.3005    6.1281   -0.0000 C   0  0  0  0  0  0  0  0  0  0  0  0
   12.6356    3.8642   -0.0000 C   0  0  0  0  0  0  0  0  0  0  0  0
   12.1970    6.5193   -0.0000 O   0  0  0  0  0  0  0  0  0  0  0  0
   14.1291    3.8642   -0.0000 C   0  0  0  0  0  0  0  0  0  0  0  0
   14.8640    2.5722   -0.0000 C   0  0  0  0  0  0  0  0  0  0  0  0
   16.3575    2.5840   -0.0000 C   0  0  0  0  0  0  0  0  0  0  0  0
   14.0935    1.2920   -0.0000 C   0  0  0  0  0  0  0  0  0  0  0  0
   17.0924    1.2920   -0.0000 C   0  0  0  0  0  0  0  0  0  0  0  0
   14.8284   -0.0000   -0.0000 C   0  0  0  0  0  0  0  0  0  0  0  0
   18.5859    1.2920   -0.0000 C   0  0  0  0  0  0  0  0  0  0  0  0
   16.3220   -0.0000   -0.0000 C   0  0  0  0  0  0  0  0  0  0  0  0
   19.3327    2.6077   -0.0000 O   0  0  0  0  0  0  0  0  0  0  0  0
   19.3208   -0.0000   -0.0000 N   0  0  0  0  0  0  0  0  0  0  0  0
  1  2  1  0  0  0  0
  2  3  1  0  0  0  0
  3  4  1  0  0  0  0
  4  5  2  0  0  0  0
  4  6  1  0  0  0  0
  5  7  1  0  0  0  0
  6  8  2  0  0  0  0
  7  9  2  0  0  0  0
  7 10  1  0  0  0  0
  9 11  1  0  0  0  0
 10 12  1  0  0  0  0
 11 13  1  0  0  0  0
 11 14  1  1  0  0  0
 13 15  1  0  0  0  0
 14 16  1  0  0  0  0
 15 17  1  0  0  0  0
 15 18  1  1  0  0  0
 17 19  1  0  0  0  0
 17 20  1  1  0  0  0
 18 21  1  0  0  0  0
 19 22  1  1  0  0  0
 21 23  1  1  0  0  0
 23 24  1  0  0  0  0
 24 25  2  0  0  0  0
 24 26  1  0  0  0  0
 25 27  1  0  0  0  0
 26 28  2  0  0  0  0
 27 29  1  0  0  0  0
 27 30  2  0  0  0  0
 29 31  2  0  0  0  0
 29 32  1  0  0  0  0
  8  9  1  0  0  0  0
 13 12  1  6  0  0  0
 16 17  1  0  0  0  0
 19 21  1  0  0  0  0
 28 30  1  0  0  0  0
M  END
>  <MolRegNo>
1443001

>  <m>
=

>  <Value>
3900

>  <Unit>
nM

>  <Type>
IC50

>  <pValue>
5.41

>  <Ligand Efficiency>
0

>  <Binding Efficiency>
0

>  <Surface Efficiency>
0

>  <Assay Index>
820156

>  <Assay Category>


>  <Assay Organism>
Homo sapiens

>  <Target ID>
17045

>  <Target Name>
Cytochrome P450 3A4

>  <Target Organism>
Homo sapiens

>  <Target Description>
Target is a single protein chain

>  <Sequence Accession>
P08684

>  <Reference>
J Med Chem 57 (1), 204-222 (2014)

>  <Pubmed ID>
24328103

>  <DOI>
10.1021/jm401639v

$$$$
439337
Actelion Java MolfileCreator 1.0

 30 34  0  0  0  0  0  0  0  0999 V2000
    0.0000   -0.0000   -0.0000 O   0  0  0  0  0  0  0  0  0  0  0  0
    1.3910   -0.4951   -0.0000 C   0  0  0  0  0  0  0  0  0  0  0  0
    2.5226    0.4833   -0.0000 N   0  0  0  0  0  0  0  0  0  0  0  0
    1.6385   -1.9568   -0.0000 C   0  0  0  0  0  0  0  0  0  0  0  0
    0.4833   -2.9116   -0.0000 C   0  0  0  0  0  0  0  0  0  0  0  0
    3.0413   -2.4519   -0.0000 C   0  0  0  0  0  0  0  0  0  0  0  0
    0.7309   -4.3733   -0.0000 C   0  0  0  0  0  0  0  0  0  0  0  0
    3.2888   -3.9136   -0.0000 C   0  0  0  0  0  0  0  0  0  0  0  0
    2.1218   -4.8684   -0.0000 C   0  0  0  0  0  0  0  0  0  0  0  0
   -0.4244   -5.3282   -0.0000 C   0  0  0  0  0  0  0  0  0  0  0  0
   -1.8389   -4.8095   -0.0000 C   0  0  0  0  0  0  0  0  0  0  0  0
   -2.2633   -3.3596   -0.0000 C   0  0  0  0  0  0  0  0  0  0  0  0
   -3.0884   -5.6346   -0.0000 C   0  0  0  0  0  0  0  0  0  0  0  0
   -1.3556   -2.1690   -0.0000 O   0  0  0  0  0  0  0  0  0  0  0  0
   -3.7721   -3.3006   -0.0000 C   0  0  0  0  0  0  0  0  0  0  0  0
   -4.2790   -4.7034   -0.0000 C   0  0  0  0  0  0  0  0  0  0  0  0
   -4.7505   -2.1454   -0.0000 C   0  0  0  0  0  0  0  0  0  0  0  0
   -3.1356   -1.9450   -0.0000 C   0  0  0  0  0  0  0  0  0  0  0  0
   -5.7643   -4.9509   -0.0000 C   0  0  0  0  0  0  0  0  0  0  0  0
   -6.2358   -2.3930   -0.0000 C   0  0  0  0  0  0  0  0  0  0  0  0
   -6.7427   -3.7957   -0.0000 C   0  0  0  0  0  0  0  0  0  0  0  0
   -6.2830   -6.3537   -0.0000 C   0  0  0  0  0  0  0  0  0  0  0  0
   -8.2280   -4.0433   -0.0000 C   0  0  0  0  0  0  0  0  0  0  0  0
   -7.7683   -6.6013   -0.0000 C   0  0  0  0  0  0  0  0  0  0  0  0
   -8.7467   -5.4460   -0.0000 C   0  0  0  0  0  0  0  0  0  0  0  0
   -9.2064   -2.8881   -0.0000 C   0  0  0  0  0  0  0  0  0  0  0  0
  -10.2320   -5.6936   -0.0000 C   0  0  0  0  0  0  0  0  0  0  0  0
  -10.6917   -3.1356   -0.0000 C   0  0  0  0  0  0  0  0  0  0  0  0
  -11.2104   -4.5384   -0.0000 C   0  0  0  0  0  0  0  0  0  0  0  0
  -12.6956   -4.7859   -0.0000 O   0  0  0  0  0  0  0  0  0  0  0  0
  1  2  2  0  0  0  0
  2  3  1  0  0  0  0
  2  4  1  0  0  0  0
  4  5  2  0  0  0  0
  4  6  1  0  0  0  0
  5  7  1  0  0  0  0
  6  8  2  0  0  0  0
  7  9  2  0  0  0  0
  7 10  1  0  0  0  0
 11 10  1  1  0  0  0
 11 12  1  0  0  0  0
 11 13  1  0  0  0  0
 12 14  1  1  0  0  0
 12 15  1  0  0  0  0
 16 13  1  1  0  0  0
 15 17  1  0  0  0  0
 15 18  1  1  0  0  0
 16 19  1  0  0  0  0
 17 20  1  0  0  0  0
 19 21  1  0  0  0  0
 19 22  1  6  0  0  0
 21 23  1  0  0  0  0
 22 24  1  0  0  0  0
 23 25  2  0  0  0  0
 23 26  1  0  0  0  0
 25 27  1  0  0  0  0
 26 28  2  0  0  0  0
 27 29  2  0  0  0  0
 29 30  1  0  0  0  0
  8  9  1  0  0  0  0
 15 16  1  0  0  0  0
 21 20  1  1  0  0  0
 24 25  1  0  0  0  0
 28 29  1  0  0  0  0
M  END
>  <MolRegNo>
439337

>  <m>
=

>  <Value>
1500

>  <Unit>
nM

>  <Type>
IC50

>  <pValue>
5.82

>  <Ligand Efficiency>
0

>  <Binding Efficiency>
0

>  <Surface Efficiency>
0

>  <Assay Index>
820156

>  <Assay Category>


>  <Assay Organism>
Homo sapiens

>  <Target ID>
17045

>  <Target Name>
Cytochrome P450 3A4

>  <Target Organism>
Homo sapiens

>  <Target Description>
Target is a single protein chain

>  <Sequence Accession>
P08684

>  <Reference>
J Med Chem 57 (1), 204-222 (2014)

>  <Pubmed ID>
24328103

>  <DOI>
10.1021/jm401639v

$$$$
1618230
Actelion Java MolfileCreator 1.0

 38 42  0  0  0  0  0  0  0  0999 V2000
    0.0000   -0.0000   -0.0000 Cl  0  0  0  0  0  0  0  0  0  0  0  0
   -1.4977   -0.1297   -0.0000 C   0  0  0  0  0  0  0  0  0  0  0  0
   -2.3704    1.1085   -0.0000 C   0  0  0  0  0  0  0  0  0  0  0  0
   -2.1463   -1.4859   -0.0000 C   0  0  0  0  0  0  0  0  0  0  0  0
   -3.8681    0.9906   -0.0000 C   0  0  0  0  0  0  0  0  0  0  0  0
   -3.6558   -1.6039   -0.0000 C   0  0  0  0  0  0  0  0  0  0  0  0
   -4.5403    2.3586   -0.0000 C   0  0  0  0  0  0  0  0  0  0  0  0
   -4.5167   -0.3656   -0.0000 C   0  0  0  0  0  0  0  0  0  0  0  0
   -6.0262    2.6888   -0.0000 C   0  0  0  0  0  0  0  0  0  0  0  0
   -3.9153    3.7148   -0.0000 C   0  0  0  0  0  0  0  0  0  0  0  0
   -5.9909   -0.7076   -0.0000 C   0  0  0  0  0  0  0  0  0  0  0  0
   -7.2055    1.7454   -0.0000 C   0  0  0  0  0  0  0  0  0  0  0  0
   -2.6416    2.9836   -0.0000 O   0  0  0  0  0  0  0  0  0  0  0  0
   -4.7762    4.9531   -0.0000 C   0  0  0  0  0  0  0  0  0  0  0  0
   -2.6416    4.4814   -0.0000 C   0  0  0  0  0  0  0  0  0  0  0  0
   -6.6984   -2.0166   -0.0000 N   0  0  0  0  0  0  0  0  0  0  0  0
   -7.1938    0.2359   -0.0000 C   0  0  0  0  0  0  0  0  0  0  0  0
   -8.5146    2.5001   -0.0000 C   0  0  0  0  0  0  0  0  0  0  0  0
   -4.3045    6.3800   -0.0000 N   0  0  0  0  0  0  0  0  0  0  0  0
   -6.2857    5.0003   -0.0000 C   0  0  0  0  0  0  0  0  0  0  0  0
   -8.1962   -2.0638   -0.0000 C   0  0  0  0  0  0  0  0  0  0  0  0
   -5.8965   -3.2667   -0.0000 C   0  0  0  0  0  0  0  0  0  0  0  0
   -8.5028   -0.5071   -0.0000 N   0  0  0  0  0  0  0  0  0  0  0  0
   -9.8118    1.7690   -0.0000 C   0  0  0  0  0  0  0  0  0  0  0  0
   -5.5074    7.2999   -0.0000 C   0  0  0  0  0  0  0  0  0  0  0  0
   -2.8893    6.8164   -0.0000 C   0  0  0  0  0  0  0  0  0  0  0  0
   -6.7338    6.4390   -0.0000 N   0  0  0  0  0  0  0  0  0  0  0  0
   -8.9037   -3.3728   -0.0000 C   0  0  0  0  0  0  0  0  0  0  0  0
   -6.6041   -4.5757   -0.0000 C   0  0  0  0  0  0  0  0  0  0  0  0
   -9.8118    0.2477   -0.0000 C   0  0  0  0  0  0  0  0  0  0  0  0
   -8.1254   -4.6229   -0.0000 N   0  0  0  0  0  0  0  0  0  0  0  0
   -8.8330   -5.9319   -0.0000 C   0  0  0  0  0  0  0  0  0  0  0  0
  -10.3307   -5.9791   -0.0000 O   0  0  0  0  0  0  0  0  0  0  0  0
   -8.0429   -7.1820   -0.0000 O   0  0  0  0  0  0  0  0  0  0  0  0
   -6.5687   -7.1112   -0.0000 C   0  0  0  0  0  0  0  0  0  0  0  0
   -5.7786   -8.3613   -0.0000 C   0  0  0  0  0  0  0  0  0  0  0  0
   -5.8847   -5.7786   -0.0000 C   0  0  0  0  0  0  0  0  0  0  0  0
   -5.0946   -7.0994   -0.0000 C   0  0  0  0  0  0  0  0  0  0  0  0
  1  2  1  0  0  0  0
  2  3  2  0  0  0  0
  2  4  1  0  0  0  0
  3  5  1  0  0  0  0
  4  6  2  0  0  0  0
  5  7  1  0  0  0  0
  5  8  2  0  0  0  0
  7  9  2  0  0  0  0
  7 10  1  0  0  0  0
  8 11  1  0  0  0  0
  9 12  1  0  0  0  0
 10 13  1  6  0  0  0
 10 14  1  0  0  0  0
 10 15  1  0  0  0  0
 11 16  1  1  0  0  0
 11 17  1  0  0  0  0
 12 18  1  0  0  0  0
 14 19  1  0  0  0  0
 14 20  2  0  0  0  0
 16 21  1  0  0  0  0
 16 22  1  0  0  0  0
 17 23  1  0  0  0  0
 18 24  2  0  0  0  0
 19 25  1  0  0  0  0
 19 26  1  0  0  0  0
 20 27  1  0  0  0  0
 21 28  1  0  0  0  0
 22 29  1  0  0  0  0
 23 30  2  0  0  0  0
 28 31  1  0  0  0  0
 31 32  1  0  0  0  0
 32 33  2  0  0  0  0
 32 34  1  0  0  0  0
 34 35  1  0  0  0  0
 35 36  1  0  0  0  0
 35 37  1  0  0  0  0
 35 38  1  0  0  0  0
  6  8  1  0  0  0  0
 12 17  2  0  0  0  0
 24 30  1  0  0  0  0
 25 27  2  0  0  0  0
 29 31  1  0  0  0  0
M  END
>  <MolRegNo>
1618230

>  <m>
=

>  <Value>
300

>  <Unit>
nM

>  <Type>
IC50

>  <pValue>
6.52

>  <Ligand Efficiency>
0

>  <Binding Efficiency>
0

>  <Surface Efficiency>
0

>  <Assay Index>
821802

>  <Assay Category>


>  <Assay Organism>
Homo sapiens

>  <Target ID>
17045

>  <Target Name>
Cytochrome P450 3A4

>  <Target Organism>
Homo sapiens

>  <Target Description>
Target is a single protein chain

>  <Sequence Accession>
P08684

>  <Reference>
Bioorg Med Chem Lett 24 (4), 1228-1231 (2014)

>  <Pubmed ID>
24462667

>  <DOI>
10.1016/j.bmcl.2013.12.046

$$$$
1615730
Actelion Java MolfileCreator 1.0

 49 52  0  0  0  0  0  0  0  0999 V2000
    0.0000   -0.0000   -0.0000 Cl  0  0  0  0  0  0  0  0  0  0  0  0
    9.5836    3.3210   -0.0000 F   0  0  0  0  0  0  0  0  0  0  0  0
    8.2552    4.0564   -0.0000 C   0  0  0  0  0  0  0  0  0  0  0  0
    8.2196    5.5627   -0.0000 F   0  0  0  0  0  0  0  0  0  0  0  0
    9.5243    4.8511   -0.0000 F   0  0  0  0  0  0  0  0  0  0  0  0
    6.9623    3.2973   -0.0000 C   0  0  0  0  0  0  0  0  0  0  0  0
    5.6458    4.0327   -0.0000 C   0  0  0  0  0  0  0  0  0  0  0  0
    6.9742    1.8147   -0.0000 C   0  0  0  0  0  0  0  0  0  0  0  0
    5.6102    5.5390   -0.0000 C   0  0  0  0  0  0  0  0  0  0  0  0
    4.3411    3.2855   -0.0000 C   0  0  0  0  0  0  0  0  0  0  0  0
    5.6695    1.0556   -0.0000 C   0  0  0  0  0  0  0  0  0  0  0  0
    6.8912    6.3218   -0.0000 O   0  0  0  0  0  0  0  0  0  0  0  0
    4.2818    6.2863   -0.0000 N   0  0  0  0  0  0  0  0  0  0  0  0
    4.3529    1.8029   -0.0000 N   0  0  0  0  0  0  0  0  0  0  0  0
    4.2462    7.8044   -0.0000 C   0  0  0  0  0  0  0  0  0  0  0  0
    2.9771    5.5272   -0.0000 C   0  0  0  0  0  0  0  0  0  0  0  0
    2.9296    8.5398   -0.0000 C   0  0  0  0  0  0  0  0  0  0  0  0
    1.6605    6.2744   -0.0000 C   0  0  0  0  0  0  0  0  0  0  0  0
    4.0327    9.5599   -0.0000 O   0  0  0  0  0  0  0  0  0  0  0  0
    2.1705    9.8564   -0.0000 C   0  0  0  0  0  0  0  0  0  0  0  0
    1.6249    7.7807   -0.0000 C   0  0  0  0  0  0  0  0  0  0  0  0
    5.5153    9.6073   -0.0000 C   0  0  0  0  0  0  0  0  0  0  0  0
    2.9178   11.1611   -0.0000 O   0  0  0  0  0  0  0  0  0  0  0  0
    0.6642    9.8801   -0.0000 N   0  0  0  0  0  0  0  0  0  0  0  0
    6.2744    8.3382   -0.0000 C   0  0  0  0  0  0  0  0  0  0  0  0
    6.2151   10.9239   -0.0000 C   0  0  0  0  0  0  0  0  0  0  0  0
   -0.1067    8.5991   -0.0000 C   0  0  0  0  0  0  0  0  0  0  0  0
   -0.0949   11.1967   -0.0000 C   0  0  0  0  0  0  0  0  0  0  0  0
    7.7451    8.3856   -0.0000 C   0  0  0  0  0  0  0  0  0  0  0  0
    7.6977   10.9594   -0.0000 C   0  0  0  0  0  0  0  0  0  0  0  0
   -1.6131    8.6110   -0.0000 C   0  0  0  0  0  0  0  0  0  0  0  0
   -1.6131   11.2204   -0.0000 C   0  0  0  0  0  0  0  0  0  0  0  0
    8.4568    9.7022   -0.0000 C   0  0  0  0  0  0  0  0  0  0  0  0
   -2.3722    9.9275   -0.0000 N   0  0  0  0  0  0  0  0  0  0  0  0
    9.9394    9.7378   -0.0000 C   0  0  0  0  0  0  0  0  0  0  0  0
   -3.8785    9.9394   -0.0000 C   0  0  0  0  0  0  0  0  0  0  0  0
   10.6985    8.4687   -0.0000 F   0  0  0  0  0  0  0  0  0  0  0  0
   10.6511   11.0662   -0.0000 F   0  0  0  0  0  0  0  0  0  0  0  0
   11.4220    9.7496   -0.0000 F   0  0  0  0  0  0  0  0  0  0  0  0
   -4.6376    8.6584   -0.0000 C   0  0  0  0  0  0  0  0  0  0  0  0
   -4.6495   11.2441   -0.0000 C   0  0  0  0  0  0  0  0  0  0  0  0
   -3.8904    7.3775   -0.0000 O   0  0  0  0  0  0  0  0  0  0  0  0
   -6.1558    8.6703   -0.0000 C   0  0  0  0  0  0  0  0  0  0  0  0
   -6.1558   11.2560   -0.0000 C   0  0  0  0  0  0  0  0  0  0  0  0
   -4.6495    6.0846   -0.0000 C   0  0  0  0  0  0  0  0  0  0  0  0
   -6.9149    9.9868   -0.0000 C   0  0  0  0  0  0  0  0  0  0  0  0
   -3.9022    4.8036   -0.0000 C   0  0  0  0  0  0  0  0  0  0  0  0
   -2.4196    4.8155   -0.0000 O   0  0  0  0  0  0  0  0  0  0  0  0
   -1.6724    3.5345   -0.0000 C   0  0  0  0  0  0  0  0  0  0  0  0
  2  3  1  0  0  0  0
  3  4  1  0  0  0  0
  3  5  1  0  0  0  0
  3  6  1  0  0  0  0
  6  7  2  0  0  0  0
  6  8  1  0  0  0  0
  7  9  1  0  0  0  0
  7 10  1  0  0  0  0
  8 11  2  0  0  0  0
  9 12  2  0  0  0  0
  9 13  1  0  0  0  0
 10 14  2  0  0  0  0
 13 15  1  0  0  0  0
 13 16  1  0  0  0  0
 15 17  1  0  0  0  0
 16 18  1  0  0  0  0
 17 19  1  0  0  0  0
 17 20  1  0  0  0  0
 17 21  1  0  0  0  0
 19 22  1  0  0  0  0
 20 23  2  0  0  0  0
 20 24  1  0  0  0  0
 22 25  2  0  0  0  0
 22 26  1  0  0  0  0
 24 27  1  0  0  0  0
 24 28  1  0  0  0  0
 25 29  1  0  0  0  0
 26 30  2  0  0  0  0
 27 31  1  0  0  0  0
 28 32  1  0  0  0  0
 29 33  2  0  0  0  0
 31 34  1  0  0  0  0
 33 35  1  0  0  0  0
 34 36  1  0  0  0  0
 35 37  1  0  0  0  0
 35 38  1  0  0  0  0
 35 39  1  0  0  0  0
 36 40  2  0  0  0  0
 36 41  1  0  0  0  0
 40 42  1  0  0  0  0
 40 43  1  0  0  0  0
 41 44  2  0  0  0  0
 42 45  1  0  0  0  0
 43 46  2  0  0  0  0
 45 47  1  0  0  0  0
 47 48  1  0  0  0  0
 48 49  1  0  0  0  0
 11 14  1  0  0  0  0
 18 21  1  0  0  0  0
 30 33  1  0  0  0  0
 32 34  1  0  0  0  0
 44 46  1  0  0  0  0
M  END
>  <MolRegNo>
1615730

>  <m>
=

>  <Value>
300

>  <Unit>
nM

>  <Type>
IC50

>  <pValue>
6.52

>  <Ligand Efficiency>
0

>  <Binding Efficiency>
0

>  <Surface Efficiency>
0

>  <Assay Index>
823313

>  <Assay Category>


>  <Assay Organism>
Homo sapiens

>  <Target ID>
17045

>  <Target Name>
Cytochrome P450 3A4

>  <Target Organism>
Homo sapiens

>  <Target Description>
Target is a single protein chain

>  <Sequence Accession>
P08684

>  <Reference>
Bioorg Med Chem Lett 24 (4), 1026-1030 (2014)

>  <Pubmed ID>
24486134

>  <DOI>
10.1016/j.bmcl.2014.01.026

$$$$
1615820
Actelion Java MolfileCreator 1.0

 26 29  0  0  1  0  0  0  0  0999 V2000
    0.0000   -0.0000   -0.0000 O   0  0  0  0  0  0  0  0  0  0  0  0
    1.1853   -0.2419   -0.0000 C   0  0  0  0  0  0  0  0  0  0  0  0
    2.2013    0.9071   -0.0000 N   0  0  0  0  0  0  0  0  0  0  0  0
    1.6449   -1.6933   -0.0000 C   0  0  0  0  0  0  0  0  0  0  0  0
    3.6890    0.6048   -0.0000 C   0  0  0  0  0  0  0  0  0  0  0  0
    3.1326   -1.9957   -0.0000 C   0  0  0  0  0  0  0  0  0  0  0  0
    4.1486   -0.8467   -0.0000 N   0  0  0  0  0  0  0  0  0  0  0  0
    4.7050    1.7659   -0.0000 C   0  0  0  0  0  0  0  0  0  0  0  0
    3.5922   -3.4471   -0.0000 N   0  0  0  0  0  0  0  0  0  0  0  0
    4.2212    3.2415   -0.0000 C   0  0  0  0  0  0  0  0  0  0  0  0
    5.0799   -3.7615   -0.0000 C   0  0  0  0  0  0  0  0  0  0  0  0
    2.5520   -4.5719   -0.0000 C   0  0  0  0  0  0  0  0  0  0  0  0
    3.0117    3.5076   -0.0000 O   0  0  0  0  0  0  0  0  0  0  0  0
    5.2371    4.3905   -0.0000 N   0  0  0  0  0  0  0  0  0  0  0  0
    5.5395   -5.2129   -0.0000 C   0  0  0  0  0  0  0  0  0  0  0  0
    3.0117   -6.0233   -0.0000 C   0  0  0  0  0  0  0  0  0  0  0  0
    4.9106    5.9024   -0.0000 C   0  0  0  0  0  0  0  0  0  0  0  0
    6.7490    4.2453   -0.0000 C   0  0  0  0  0  0  0  0  0  0  0  0
    4.4993   -6.3378   -0.0000 O   0  0  0  0  0  0  0  0  0  0  0  0
    6.2289    6.6764   -0.0000 C   0  0  0  0  0  0  0  0  0  0  0  0
    3.5680    6.6764   -0.0000 C   0  0  0  0  0  0  0  0  0  0  0  0
    7.3659    5.6605   -0.0000 C   0  0  0  0  0  0  0  0  0  0  0  0
    7.3538    3.1931   -0.0000 C   0  0  0  0  0  0  0  0  0  0  0  0
    6.2168    8.2246   -0.0000 C   0  0  0  0  0  0  0  0  0  0  0  0
    3.5559    8.2246   -0.0000 C   0  0  0  0  0  0  0  0  0  0  0  0
    4.8743    8.9987   -0.0000 C   0  0  0  0  0  0  0  0  0  0  0  0
  1  2  2  0  0  0  0
  2  3  1  0  0  0  0
  2  4  1  0  0  0  0
  3  5  1  0  0  0  0
  4  6  2  0  0  0  0
  5  7  2  0  0  0  0
  5  8  1  0  0  0  0
  6  9  1  0  0  0  0
  8 10  1  0  0  0  0
  9 11  1  0  0  0  0
  9 12  1  0  0  0  0
 10 13  2  0  0  0  0
 10 14  1  0  0  0  0
 11 15  1  0  0  0  0
 12 16  1  0  0  0  0
 14 17  1  0  0  0  0
 14 18  1  0  0  0  0
 15 19  1  0  0  0  0
 17 20  2  0  0  0  0
 17 21  1  0  0  0  0
 18 22  1  0  0  0  0
 18 23  1  1  0  0  0
 20 24  1  0  0  0  0
 21 25  2  0  0  0  0
 24 26  2  0  0  0  0
  6  7  1  0  0  0  0
 16 19  1  0  0  0  0
 20 22  1  0  0  0  0
 25 26  1  0  0  0  0
M  END
>  <MolRegNo>
1615820

>  <m>
=

>  <Value>
40000

>  <Unit>
nM

>  <Type>
IC50

>  <pValue>
4.4

>  <Ligand Efficiency>
0

>  <Binding Efficiency>
0

>  <Surface Efficiency>
0

>  <Assay Index>
822742

>  <Assay Category>


>  <Assay Organism>
Homo sapiens

>  <Target ID>
17045

>  <Target Name>
Cytochrome P450 3A4

>  <Target Organism>
Homo sapiens

>  <Target Description>
Target is a single protein chain

>  <Sequence Accession>
P08684

>  <Reference>
J Med Chem 57 (3), 903-920 (2014)

>  <Pubmed ID>
24387221

>  <DOI>
10.1021/jm401642q

$$$$
1615819
Actelion Java MolfileCreator 1.0

 26 29  0  0  1  0  0  0  0  0999 V2000
    0.0000   -0.0000   -0.0000 O   0  0  0  0  0  0  0  0  0  0  0  0
    1.1853   -0.2419   -0.0000 C   0  0  0  0  0  0  0  0  0  0  0  0
    2.2013    0.9071   -0.0000 N   0  0  0  0  0  0  0  0  0  0  0  0
    1.6449   -1.6933   -0.0000 C   0  0  0  0  0  0  0  0  0  0  0  0
    3.6890    0.6048   -0.0000 C   0  0  0  0  0  0  0  0  0  0  0  0
    3.1326   -1.9957   -0.0000 C   0  0  0  0  0  0  0  0  0  0  0  0
    4.1486   -0.8467   -0.0000 N   0  0  0  0  0  0  0  0  0  0  0  0
    4.7050    1.7659   -0.0000 C   0  0  0  0  0  0  0  0  0  0  0  0
    3.5922   -3.4471   -0.0000 N   0  0  0  0  0  0  0  0  0  0  0  0
    4.2212    3.2415   -0.0000 C   0  0  0  0  0  0  0  0  0  0  0  0
    5.0799   -3.7615   -0.0000 C   0  0  0  0  0  0  0  0  0  0  0  0
    2.5520   -4.5719   -0.0000 C   0  0  0  0  0  0  0  0  0  0  0  0
    3.0117    3.5076   -0.0000 O   0  0  0  0  0  0  0  0  0  0  0  0
    5.2371    4.3905   -0.0000 N   0  0  0  0  0  0  0  0  0  0  0  0
    5.5395   -5.2129   -0.0000 C   0  0  0  0  0  0  0  0  0  0  0  0
    3.0117   -6.0233   -0.0000 C   0  0  0  0  0  0  0  0  0  0  0  0
    4.9106    5.9024   -0.0000 C   0  0  0  0  0  0  0  0  0  0  0  0
    6.7490    4.2453   -0.0000 C   0  0  0  0  0  0  0  0  0  0  0  0
    4.4993   -6.3378   -0.0000 O   0  0  0  0  0  0  0  0  0  0  0  0
    6.2289    6.6764   -0.0000 C   0  0  0  0  0  0  0  0  0  0  0  0
    3.5680    6.6764   -0.0000 C   0  0  0  0  0  0  0  0  0  0  0  0
    7.3659    5.6605   -0.0000 C   0  0  0  0  0  0  0  0  0  0  0  0
    7.3538    3.1931   -0.0000 C   0  0  0  0  0  0  0  0  0  0  0  0
    6.2168    8.2246   -0.0000 C   0  0  0  0  0  0  0  0  0  0  0  0
    3.5559    8.2246   -0.0000 C   0  0  0  0  0  0  0  0  0  0  0  0
    4.8743    8.9987   -0.0000 C   0  0  0  0  0  0  0  0  0  0  0  0
  1  2  2  0  0  0  0
  2  3  1  0  0  0  0
  2  4  1  0  0  0  0
  3  5  1  0  0  0  0
  4  6  2  0  0  0  0
  5  7  2  0  0  0  0
  5  8  1  0  0  0  0
  6  9  1  0  0  0  0
  8 10  1  0  0  0  0
  9 11  1  0  0  0  0
  9 12  1  0  0  0  0
 10 13  2  0  0  0  0
 10 14  1  0  0  0  0
 11 15  1  0  0  0  0
 12 16  1  0  0  0  0
 14 17  1  0  0  0  0
 14 18  1  0  0  0  0
 15 19  1  0  0  0  0
 17 20  2  0  0  0  0
 17 21  1  0  0  0  0
 18 22  1  0  0  0  0
 18 23  1  6  0  0  0
 20 24  1  0  0  0  0
 21 25  2  0  0  0  0
 24 26  2  0  0  0  0
  6  7  1  0  0  0  0
 16 19  1  0  0  0  0
 20 22  1  0  0  0  0
 25 26  1  0  0  0  0
M  END
>  <MolRegNo>
1615819

>  <m>
=

>  <Value>
40000

>  <Unit>
nM

>  <Type>
IC50

>  <pValue>
4.4

>  <Ligand Efficiency>
0

>  <Binding Efficiency>
0

>  <Surface Efficiency>
0

>  <Assay Index>
822742

>  <Assay Category>


>  <Assay Organism>
Homo sapiens

>  <Target ID>
17045

>  <Target Name>
Cytochrome P450 3A4

>  <Target Organism>
Homo sapiens

>  <Target Description>
Target is a single protein chain

>  <Sequence Accession>
P08684

>  <Reference>
J Med Chem 57 (3), 903-920 (2014)

>  <Pubmed ID>
24387221

>  <DOI>
10.1021/jm401642q

$$$$
1615818
Actelion Java MolfileCreator 1.0

 27 30  0  0  0  0  0  0  0  0999 V2000
    0.0000   -0.0000   -0.0000 O   0  0  0  0  0  0  0  0  0  0  0  0
   -0.3884   -1.1652   -0.0000 C   0  0  0  0  0  0  0  0  0  0  0  0
   -1.9056   -1.4687   -0.0000 N   0  0  0  0  0  0  0  0  0  0  0  0
    0.6312   -2.2940   -0.0000 C   0  0  0  0  0  0  0  0  0  0  0  0
   -2.3911   -2.9252   -0.0000 C   0  0  0  0  0  0  0  0  0  0  0  0
    0.1457   -3.7505   -0.0000 C   0  0  0  0  0  0  0  0  0  0  0  0
   -1.3716   -4.0540   -0.0000 N   0  0  0  0  0  0  0  0  0  0  0  0
   -3.9083   -3.2286   -0.0000 C   0  0  0  0  0  0  0  0  0  0  0  0
    1.1652   -4.8793   -0.0000 N   0  0  0  0  0  0  0  0  0  0  0  0
   -4.9522   -2.0634   -0.0000 C   0  0  0  0  0  0  0  0  0  0  0  0
    0.6797   -6.3358   -0.0000 C   0  0  0  0  0  0  0  0  0  0  0  0
    2.6581   -4.5395   -0.0000 C   0  0  0  0  0  0  0  0  0  0  0  0
   -4.5759   -0.8739   -0.0000 O   0  0  0  0  0  0  0  0  0  0  0  0
   -6.4694   -2.3668   -0.0000 N   0  0  0  0  0  0  0  0  0  0  0  0
    1.6993   -7.4646   -0.0000 C   0  0  0  0  0  0  0  0  0  0  0  0
    3.6777   -5.6683   -0.0000 C   0  0  0  0  0  0  0  0  0  0  0  0
   -7.6224   -1.3230   -0.0000 C   0  0  0  0  0  0  0  0  0  0  0  0
   -7.1127   -3.7627   -0.0000 C   0  0  0  0  0  0  0  0  0  0  0  0
    3.1922   -7.1248   -0.0000 O   0  0  0  0  0  0  0  0  0  0  0  0
   -8.9697   -2.0877   -0.0000 C   0  0  0  0  0  0  0  0  0  0  0  0
   -7.6346    0.2306   -0.0000 C   0  0  0  0  0  0  0  0  0  0  0  0
   -8.6541   -3.5927   -0.0000 C   0  0  0  0  0  0  0  0  0  0  0  0
  -10.3170   -1.3109   -0.0000 C   0  0  0  0  0  0  0  0  0  0  0  0
   -8.9819    1.0074   -0.0000 C   0  0  0  0  0  0  0  0  0  0  0  0
   -9.8679   -3.3014   -0.0000 C   0  0  0  0  0  0  0  0  0  0  0  0
   -8.2657   -4.7458   -0.0000 C   0  0  0  0  0  0  0  0  0  0  0  0
  -10.3291    0.2428   -0.0000 C   0  0  0  0  0  0  0  0  0  0  0  0
  1  2  2  0  0  0  0
  2  3  1  0  0  0  0
  2  4  1  0  0  0  0
  3  5  1  0  0  0  0
  4  6  2  0  0  0  0
  5  7  2  0  0  0  0
  5  8  1  0  0  0  0
  6  9  1  0  0  0  0
  8 10  1  0  0  0  0
  9 11  1  0  0  0  0
  9 12  1  0  0  0  0
 10 13  2  0  0  0  0
 10 14  1  0  0  0  0
 11 15  1  0  0  0  0
 12 16  1  0  0  0  0
 14 17  1  0  0  0  0
 14 18  1  0  0  0  0
 15 19  1  0  0  0  0
 17 20  2  0  0  0  0
 17 21  1  0  0  0  0
 18 22  1  0  0  0  0
 20 23  1  0  0  0  0
 21 24  2  0  0  0  0
 22 25  1  0  0  0  0
 22 26  1  0  0  0  0
 23 27  2  0  0  0  0
  6  7  1  0  0  0  0
 16 19  1  0  0  0  0
 20 22  1  0  0  0  0
 24 27  1  0  0  0  0
M  END
>  <MolRegNo>
1615818

>  <m>
=

>  <Value>
40000

>  <Unit>
nM

>  <Type>
IC50

>  <pValue>
4.4

>  <Ligand Efficiency>
0

>  <Binding Efficiency>
0

>  <Surface Efficiency>
0

>  <Assay Index>
822742

>  <Assay Category>


>  <Assay Organism>
Homo sapiens

>  <Target ID>
17045

>  <Target Name>
Cytochrome P450 3A4

>  <Target Organism>
Homo sapiens

>  <Target Description>
Target is a single protein chain

>  <Sequence Accession>
P08684

>  <Reference>
J Med Chem 57 (3), 903-920 (2014)

>  <Pubmed ID>
24387221

>  <DOI>
10.1021/jm401642q

$$$$
1615817
Actelion Java MolfileCreator 1.0

 26 29  0  0  0  0  0  0  0  0999 V2000
    0.0000   -0.0000   -0.0000 O   0  0  0  0  0  0  0  0  0  0  0  0
   -0.3861   -1.1582   -0.0000 C   0  0  0  0  0  0  0  0  0  0  0  0
   -1.8942   -1.4598   -0.0000 N   0  0  0  0  0  0  0  0  0  0  0  0
    0.6274   -2.2802   -0.0000 C   0  0  0  0  0  0  0  0  0  0  0  0
   -2.3767   -2.9076   -0.0000 C   0  0  0  0  0  0  0  0  0  0  0  0
    0.1448   -3.7280   -0.0000 C   0  0  0  0  0  0  0  0  0  0  0  0
   -1.3633   -4.0296   -0.0000 N   0  0  0  0  0  0  0  0  0  0  0  0
   -3.8848   -3.2092   -0.0000 C   0  0  0  0  0  0  0  0  0  0  0  0
    1.1582   -4.8500   -0.0000 N   0  0  0  0  0  0  0  0  0  0  0  0
   -4.9224   -2.0510   -0.0000 C   0  0  0  0  0  0  0  0  0  0  0  0
    0.6756   -6.2978   -0.0000 C   0  0  0  0  0  0  0  0  0  0  0  0
    2.6422   -4.5122   -0.0000 C   0  0  0  0  0  0  0  0  0  0  0  0
   -4.5484   -0.8687   -0.0000 O   0  0  0  0  0  0  0  0  0  0  0  0
   -6.4305   -2.3526   -0.0000 N   0  0  0  0  0  0  0  0  0  0  0  0
    1.6891   -7.4198   -0.0000 C   0  0  0  0  0  0  0  0  0  0  0  0
    3.6556   -5.6342   -0.0000 C   0  0  0  0  0  0  0  0  0  0  0  0
   -7.5766   -1.3150   -0.0000 C   0  0  0  0  0  0  0  0  0  0  0  0
   -7.0699   -3.7400   -0.0000 C   0  0  0  0  0  0  0  0  0  0  0  0
    3.1730   -7.0820   -0.0000 O   0  0  0  0  0  0  0  0  0  0  0  0
   -8.9158   -2.0751   -0.0000 C   0  0  0  0  0  0  0  0  0  0  0  0
   -7.5887    0.2292   -0.0000 C   0  0  0  0  0  0  0  0  0  0  0  0
   -8.6021   -3.5711   -0.0000 C   0  0  0  0  0  0  0  0  0  0  0  0
  -10.2550   -1.3030   -0.0000 C   0  0  0  0  0  0  0  0  0  0  0  0
   -8.9279    1.0014   -0.0000 C   0  0  0  0  0  0  0  0  0  0  0  0
   -9.4346   -4.4639   -0.0000 C   0  0  0  0  0  0  0  0  0  0  0  0
  -10.2670    0.2413   -0.0000 C   0  0  0  0  0  0  0  0  0  0  0  0
  1  2  2  0  0  0  0
  2  3  1  0  0  0  0
  2  4  1  0  0  0  0
  3  5  1  0  0  0  0
  4  6  2  0  0  0  0
  5  7  2  0  0  0  0
  5  8  1  0  0  0  0
  6  9  1  0  0  0  0
  8 10  1  0  0  0  0
  9 11  1  0  0  0  0
  9 12  1  0  0  0  0
 10 13  2  0  0  0  0
 10 14  1  0  0  0  0
 11 15  1  0  0  0  0
 12 16  1  0  0  0  0
 14 17  1  0  0  0  0
 14 18  1  0  0  0  0
 15 19  1  0  0  0  0
 17 20  2  0  0  0  0
 17 21  1  0  0  0  0
 18 22  1  0  0  0  0
 20 23  1  0  0  0  0
 21 24  2  0  0  0  0
 22 25  1  0  0  0  0
 23 26  2  0  0  0  0
  6  7  1  0  0  0  0
 16 19  1  0  0  0  0
 20 22  1  0  0  0  0
 24 26  1  0  0  0  0
M  END
>  <MolRegNo>
1615817

>  <m>
=

>  <Value>
40000

>  <Unit>
nM

>  <Type>
IC50

>  <pValue>
4.4

>  <Ligand Efficiency>
0

>  <Binding Efficiency>
0

>  <Surface Efficiency>
0

>  <Assay Index>
822742

>  <Assay Category>


>  <Assay Organism>
Homo sapiens

>  <Target ID>
17045

>  <Target Name>
Cytochrome P450 3A4

>  <Target Organism>
Homo sapiens

>  <Target Description>
Target is a single protein chain

>  <Sequence Accession>
P08684

>  <Reference>
J Med Chem 57 (3), 903-920 (2014)

>  <Pubmed ID>
24387221

>  <DOI>
10.1021/jm401642q

$$$$
1615814
Actelion Java MolfileCreator 1.0

 26 29  0  0  0  0  0  0  0  0999 V2000
    0.0000   -0.0000   -0.0000 O   0  0  0  0  0  0  0  0  0  0  0  0
   -0.3844    1.1773   -0.0000 C   0  0  0  0  0  0  0  0  0  0  0  0
    0.6247    2.3187   -0.0000 N   0  0  0  0  0  0  0  0  0  0  0  0
   -1.8862    1.5017   -0.0000 C   0  0  0  0  0  0  0  0  0  0  0  0
    0.1442    3.7843   -0.0000 C   0  0  0  0  0  0  0  0  0  0  0  0
    1.8021    2.0784   -0.0000 C   0  0  0  0  0  0  0  0  0  0  0  0
   -2.3667    2.9674   -0.0000 C   0  0  0  0  0  0  0  0  0  0  0  0
   -1.3576    4.1087   -0.0000 N   0  0  0  0  0  0  0  0  0  0  0  0
    1.1533    4.9377   -0.0000 C   0  0  0  0  0  0  0  0  0  0  0  0
   -3.8684    3.2918   -0.0000 N   0  0  0  0  0  0  0  0  0  0  0  0
    0.6728    6.4033   -0.0000 C   0  0  0  0  0  0  0  0  0  0  0  0
   -4.9016    2.1745   -0.0000 C   0  0  0  0  0  0  0  0  0  0  0  0
   -4.3490    4.7574   -0.0000 C   0  0  0  0  0  0  0  0  0  0  0  0
   -0.5286    6.6676   -0.0000 O   0  0  0  0  0  0  0  0  0  0  0  0
    1.6819    7.5446   -0.0000 N   0  0  0  0  0  0  0  0  0  0  0  0
   -6.4033    2.5109   -0.0000 C   0  0  0  0  0  0  0  0  0  0  0  0
   -5.8507    5.0938   -0.0000 C   0  0  0  0  0  0  0  0  0  0  0  0
    1.3576    9.0464   -0.0000 C   0  0  0  0  0  0  0  0  0  0  0  0
    3.1836    7.4005   -0.0000 C   0  0  0  0  0  0  0  0  0  0  0  0
   -6.8839    3.9766   -0.0000 O   0  0  0  0  0  0  0  0  0  0  0  0
    2.6671    9.8152   -0.0000 C   0  0  0  0  0  0  0  0  0  0  0  0
    0.0240    9.8152   -0.0000 C   0  0  0  0  0  0  0  0  0  0  0  0
    3.7963    8.8061   -0.0000 C   0  0  0  0  0  0  0  0  0  0  0  0
    2.6550   11.3530   -0.0000 C   0  0  0  0  0  0  0  0  0  0  0  0
    0.0120   11.3530   -0.0000 C   0  0  0  0  0  0  0  0  0  0  0  0
    1.3215   12.1219   -0.0000 C   0  0  0  0  0  0  0  0  0  0  0  0
  1  2  2  0  0  0  0
  2  3  1  0  0  0  0
  2  4  1  0  0  0  0
  3  5  1  0  0  0  0
  3  6  1  0  0  0  0
  4  7  2  0  0  0  0
  5  8  2  0  0  0  0
  5  9  1  0  0  0  0
  7 10  1  0  0  0  0
  9 11  1  0  0  0  0
 10 12  1  0  0  0  0
 10 13  1  0  0  0  0
 11 14  2  0  0  0  0
 11 15  1  0  0  0  0
 12 16  1  0  0  0  0
 13 17  1  0  0  0  0
 15 18  1  0  0  0  0
 15 19  1  0  0  0  0
 16 20  1  0  0  0  0
 18 21  2  0  0  0  0
 18 22  1  0  0  0  0
 19 23  1  0  0  0  0
 21 24  1  0  0  0  0
 22 25  2  0  0  0  0
 24 26  2  0  0  0  0
  7  8  1  0  0  0  0
 17 20  1  0  0  0  0
 21 23  1  0  0  0  0
 25 26  1  0  0  0  0
M  END
>  <MolRegNo>
1615814

>  <m>
=

>  <Value>
40000

>  <Unit>
nM

>  <Type>
IC50

>  <pValue>
4.4

>  <Ligand Efficiency>
0

>  <Binding Efficiency>
0

>  <Surface Efficiency>
0

>  <Assay Index>
822742

>  <Assay Category>


>  <Assay Organism>
Homo sapiens

>  <Target ID>
17045

>  <Target Name>
Cytochrome P450 3A4

>  <Target Organism>
Homo sapiens

>  <Target Description>
Target is a single protein chain

>  <Sequence Accession>
P08684

>  <Reference>
J Med Chem 57 (3), 903-920 (2014)

>  <Pubmed ID>
24387221

>  <DOI>
10.1021/jm401642q

$$$$
1615811
Actelion Java MolfileCreator 1.0

 31 35  0  0  0  0  0  0  0  0999 V2000
    0.0000   -0.0000   -0.0000 O   0  0  0  0  0  0  0  0  0  0  0  0
    0.8033   -0.8873   -0.0000 C   0  0  0  0  0  0  0  0  0  0  0  0
    0.3237   -2.3261   -0.0000 N   0  0  0  0  0  0  0  0  0  0  0  0
    2.2781   -0.5635   -0.0000 C   0  0  0  0  0  0  0  0  0  0  0  0
    1.3309   -3.4411   -0.0000 C   0  0  0  0  0  0  0  0  0  0  0  0
    3.2853   -1.6786   -0.0000 C   0  0  0  0  0  0  0  0  0  0  0  0
    2.8057   -3.1174   -0.0000 N   0  0  0  0  0  0  0  0  0  0  0  0
    0.8513   -4.8799   -0.0000 C   0  0  0  0  0  0  0  0  0  0  0  0
    4.7600   -1.3549   -0.0000 N   0  0  0  0  0  0  0  0  0  0  0  0
   -0.6475   -5.1797   -0.0000 C   0  0  0  0  0  0  0  0  0  0  0  0
    5.7672   -2.4699   -0.0000 C   0  0  0  0  0  0  0  0  0  0  0  0
    5.2157    0.1079   -0.0000 C   0  0  0  0  0  0  0  0  0  0  0  0
   -1.4748   -4.2565   -0.0000 O   0  0  0  0  0  0  0  0  0  0  0  0
   -1.1271   -6.6185   -0.0000 N   0  0  0  0  0  0  0  0  0  0  0  0
    7.2420   -2.1342   -0.0000 C   0  0  0  0  0  0  0  0  0  0  0  0
    6.6904    0.4436   -0.0000 C   0  0  0  0  0  0  0  0  0  0  0  0
   -2.5898   -7.0741   -0.0000 C   0  0  0  0  0  0  0  0  0  0  0  0
   -0.2398   -7.8415   -0.0000 C   0  0  0  0  0  0  0  0  0  0  0  0
    7.6976   -0.6714   -0.0000 O   0  0  0  0  0  0  0  0  0  0  0  0
   -2.6018   -8.5849   -0.0000 C   0  0  0  0  0  0  0  0  0  0  0  0
   -3.9207   -6.3068   -0.0000 C   0  0  0  0  0  0  0  0  0  0  0  0
   -1.1510   -9.0645   -0.0000 C   0  0  0  0  0  0  0  0  0  0  0  0
   -3.9327   -9.3282   -0.0000 C   0  0  0  0  0  0  0  0  0  0  0  0
   -5.2516   -7.0501   -0.0000 C   0  0  0  0  0  0  0  0  0  0  0  0
   -3.9447  -10.8390   -0.0000 C   0  0  0  0  0  0  0  0  0  0  0  0
   -5.2636   -8.5609   -0.0000 C   0  0  0  0  0  0  0  0  0  0  0  0
   -5.2756  -11.5944   -0.0000 C   0  0  0  0  0  0  0  0  0  0  0  0
   -2.6378  -11.5824   -0.0000 C   0  0  0  0  0  0  0  0  0  0  0  0
   -5.2876  -13.1051   -0.0000 C   0  0  0  0  0  0  0  0  0  0  0  0
   -2.6498  -13.0931   -0.0000 C   0  0  0  0  0  0  0  0  0  0  0  0
   -3.9807  -13.8485   -0.0000 N   0  0  0  0  0  0  0  0  0  0  0  0
  1  2  2  0  0  0  0
  2  3  1  0  0  0  0
  2  4  1  0  0  0  0
  3  5  1  0  0  0  0
  4  6  2  0  0  0  0
  5  7  2  0  0  0  0
  5  8  1  0  0  0  0
  6  9  1  0  0  0  0
  8 10  1  0  0  0  0
  9 11  1  0  0  0  0
  9 12  1  0  0  0  0
 10 13  2  0  0  0  0
 10 14  1  0  0  0  0
 11 15  1  0  0  0  0
 12 16  1  0  0  0  0
 14 17  1  0  0  0  0
 14 18  1  0  0  0  0
 15 19  1  0  0  0  0
 17 20  2  0  0  0  0
 17 21  1  0  0  0  0
 18 22  1  0  0  0  0
 20 23  1  0  0  0  0
 21 24  2  0  0  0  0
 23 25  1  0  0  0  0
 23 26  2  0  0  0  0
 25 27  2  0  0  0  0
 25 28  1  0  0  0  0
 27 29  1  0  0  0  0
 28 30  2  0  0  0  0
 29 31  2  0  0  0  0
  6  7  1  0  0  0  0
 16 19  1  0  0  0  0
 20 22  1  0  0  0  0
 24 26  1  0  0  0  0
 30 31  1  0  0  0  0
M  END
>  <MolRegNo>
1615811

>  <m>
=

>  <Value>
31000

>  <Unit>
nM

>  <Type>
IC50

>  <pValue>
4.51

>  <Ligand Efficiency>
0

>  <Binding Efficiency>
0

>  <Surface Efficiency>
0

>  <Assay Index>
822742

>  <Assay Category>


>  <Assay Organism>
Homo sapiens

>  <Target ID>
17045

>  <Target Name>
Cytochrome P450 3A4

>  <Target Organism>
Homo sapiens

>  <Target Description>
Target is a single protein chain

>  <Sequence Accession>
P08684

>  <Reference>
J Med Chem 57 (3), 903-920 (2014)

>  <Pubmed ID>
24387221

>  <DOI>
10.1021/jm401642q

$$$$
1615810
Actelion Java MolfileCreator 1.0

 31 35  0  0  0  0  0  0  0  0999 V2000
    0.0000   -0.0000   -0.0000 O   0  0  0  0  0  0  0  0  0  0  0  0
    0.8033   -0.8873   -0.0000 C   0  0  0  0  0  0  0  0  0  0  0  0
    0.3237   -2.3261   -0.0000 N   0  0  0  0  0  0  0  0  0  0  0  0
    2.2781   -0.5635   -0.0000 C   0  0  0  0  0  0  0  0  0  0  0  0
    1.3309   -3.4411   -0.0000 C   0  0  0  0  0  0  0  0  0  0  0  0
    3.2853   -1.6786   -0.0000 C   0  0  0  0  0  0  0  0  0  0  0  0
    2.8057   -3.1174   -0.0000 N   0  0  0  0  0  0  0  0  0  0  0  0
    0.8513   -4.8799   -0.0000 C   0  0  0  0  0  0  0  0  0  0  0  0
    4.7600   -1.3549   -0.0000 N   0  0  0  0  0  0  0  0  0  0  0  0
   -0.6475   -5.1797   -0.0000 C   0  0  0  0  0  0  0  0  0  0  0  0
    5.7672   -2.4699   -0.0000 C   0  0  0  0  0  0  0  0  0  0  0  0
    5.2157    0.1079   -0.0000 C   0  0  0  0  0  0  0  0  0  0  0  0
   -1.4748   -4.2565   -0.0000 O   0  0  0  0  0  0  0  0  0  0  0  0
   -1.1271   -6.6185   -0.0000 N   0  0  0  0  0  0  0  0  0  0  0  0
    7.2420   -2.1342   -0.0000 C   0  0  0  0  0  0  0  0  0  0  0  0
    6.6904    0.4436   -0.0000 C   0  0  0  0  0  0  0  0  0  0  0  0
   -2.5898   -7.0741   -0.0000 C   0  0  0  0  0  0  0  0  0  0  0  0
   -0.2398   -7.8415   -0.0000 C   0  0  0  0  0  0  0  0  0  0  0  0
    7.6976   -0.6714   -0.0000 O   0  0  0  0  0  0  0  0  0  0  0  0
   -2.6018   -8.5849   -0.0000 C   0  0  0  0  0  0  0  0  0  0  0  0
   -3.9207   -6.3068   -0.0000 C   0  0  0  0  0  0  0  0  0  0  0  0
   -1.1510   -9.0645   -0.0000 C   0  0  0  0  0  0  0  0  0  0  0  0
   -3.9327   -9.3282   -0.0000 C   0  0  0  0  0  0  0  0  0  0  0  0
   -5.2516   -7.0501   -0.0000 C   0  0  0  0  0  0  0  0  0  0  0  0
   -3.9447  -10.8390   -0.0000 C   0  0  0  0  0  0  0  0  0  0  0  0
   -5.2636   -8.5609   -0.0000 C   0  0  0  0  0  0  0  0  0  0  0  0
   -2.6378  -11.5824   -0.0000 C   0  0  0  0  0  0  0  0  0  0  0  0
   -5.2756  -11.5944   -0.0000 C   0  0  0  0  0  0  0  0  0  0  0  0
   -2.6498  -13.0931   -0.0000 N   0  0  0  0  0  0  0  0  0  0  0  0
   -5.2876  -13.1051   -0.0000 C   0  0  0  0  0  0  0  0  0  0  0  0
   -3.9807  -13.8485   -0.0000 C   0  0  0  0  0  0  0  0  0  0  0  0
  1  2  2  0  0  0  0
  2  3  1  0  0  0  0
  2  4  1  0  0  0  0
  3  5  1  0  0  0  0
  4  6  2  0  0  0  0
  5  7  2  0  0  0  0
  5  8  1  0  0  0  0
  6  9  1  0  0  0  0
  8 10  1  0  0  0  0
  9 11  1  0  0  0  0
  9 12  1  0  0  0  0
 10 13  2  0  0  0  0
 10 14  1  0  0  0  0
 11 15  1  0  0  0  0
 12 16  1  0  0  0  0
 14 17  1  0  0  0  0
 14 18  1  0  0  0  0
 15 19  1  0  0  0  0
 17 20  2  0  0  0  0
 17 21  1  0  0  0  0
 18 22  1  0  0  0  0
 20 23  1  0  0  0  0
 21 24  2  0  0  0  0
 23 25  1  0  0  0  0
 23 26  2  0  0  0  0
 25 27  2  0  0  0  0
 25 28  1  0  0  0  0
 27 29  1  0  0  0  0
 28 30  2  0  0  0  0
 29 31  2  0  0  0  0
  6  7  1  0  0  0  0
 16 19  1  0  0  0  0
 20 22  1  0  0  0  0
 24 26  1  0  0  0  0
 30 31  1  0  0  0  0
M  END
>  <MolRegNo>
1615810

>  <m>
=

>  <Value>
40000

>  <Unit>
nM

>  <Type>
IC50

>  <pValue>
4.4

>  <Ligand Efficiency>
0

>  <Binding Efficiency>
0

>  <Surface Efficiency>
0

>  <Assay Index>
822742

>  <Assay Category>


>  <Assay Organism>
Homo sapiens

>  <Target ID>
17045

>  <Target Name>
Cytochrome P450 3A4

>  <Target Organism>
Homo sapiens

>  <Target Description>
Target is a single protein chain

>  <Sequence Accession>
P08684

>  <Reference>
J Med Chem 57 (3), 903-920 (2014)

>  <Pubmed ID>
24387221

>  <DOI>
10.1021/jm401642q

$$$$
1615809
Actelion Java MolfileCreator 1.0

 31 35  0  0  0  0  0  0  0  0999 V2000
    0.0000   -0.0000   -0.0000 O   0  0  0  0  0  0  0  0  0  0  0  0
    0.8033   -0.8873   -0.0000 C   0  0  0  0  0  0  0  0  0  0  0  0
    0.3237   -2.3261   -0.0000 N   0  0  0  0  0  0  0  0  0  0  0  0
    2.2781   -0.5635   -0.0000 C   0  0  0  0  0  0  0  0  0  0  0  0
    1.3309   -3.4411   -0.0000 C   0  0  0  0  0  0  0  0  0  0  0  0
    3.2853   -1.6786   -0.0000 C   0  0  0  0  0  0  0  0  0  0  0  0
    2.8057   -3.1174   -0.0000 N   0  0  0  0  0  0  0  0  0  0  0  0
    0.8513   -4.8799   -0.0000 C   0  0  0  0  0  0  0  0  0  0  0  0
    4.7600   -1.3549   -0.0000 N   0  0  0  0  0  0  0  0  0  0  0  0
   -0.6475   -5.1797   -0.0000 C   0  0  0  0  0  0  0  0  0  0  0  0
    5.7672   -2.4699   -0.0000 C   0  0  0  0  0  0  0  0  0  0  0  0
    5.2157    0.1079   -0.0000 C   0  0  0  0  0  0  0  0  0  0  0  0
   -1.4748   -4.2565   -0.0000 O   0  0  0  0  0  0  0  0  0  0  0  0
   -1.1271   -6.6185   -0.0000 N   0  0  0  0  0  0  0  0  0  0  0  0
    7.2420   -2.1342   -0.0000 C   0  0  0  0  0  0  0  0  0  0  0  0
    6.6904    0.4436   -0.0000 C   0  0  0  0  0  0  0  0  0  0  0  0
   -2.5898   -7.0741   -0.0000 C   0  0  0  0  0  0  0  0  0  0  0  0
   -0.2398   -7.8415   -0.0000 C   0  0  0  0  0  0  0  0  0  0  0  0
    7.6976   -0.6714   -0.0000 O   0  0  0  0  0  0  0  0  0  0  0  0
   -2.6018   -8.5849   -0.0000 C   0  0  0  0  0  0  0  0  0  0  0  0
   -3.9207   -6.3068   -0.0000 C   0  0  0  0  0  0  0  0  0  0  0  0
   -1.1510   -9.0645   -0.0000 C   0  0  0  0  0  0  0  0  0  0  0  0
   -3.9327   -9.3282   -0.0000 C   0  0  0  0  0  0  0  0  0  0  0  0
   -5.2516   -7.0501   -0.0000 C   0  0  0  0  0  0  0  0  0  0  0  0
   -3.9447  -10.8390   -0.0000 C   0  0  0  0  0  0  0  0  0  0  0  0
   -5.2636   -8.5609   -0.0000 C   0  0  0  0  0  0  0  0  0  0  0  0
   -2.6378  -11.5824   -0.0000 N   0  0  0  0  0  0  0  0  0  0  0  0
   -5.2756  -11.5944   -0.0000 C   0  0  0  0  0  0  0  0  0  0  0  0
   -2.6498  -13.0931   -0.0000 C   0  0  0  0  0  0  0  0  0  0  0  0
   -5.2876  -13.1051   -0.0000 C   0  0  0  0  0  0  0  0  0  0  0  0
   -3.9807  -13.8485   -0.0000 C   0  0  0  0  0  0  0  0  0  0  0  0
  1  2  2  0  0  0  0
  2  3  1  0  0  0  0
  2  4  1  0  0  0  0
  3  5  1  0  0  0  0
  4  6  2  0  0  0  0
  5  7  2  0  0  0  0
  5  8  1  0  0  0  0
  6  9  1  0  0  0  0
  8 10  1  0  0  0  0
  9 11  1  0  0  0  0
  9 12  1  0  0  0  0
 10 13  2  0  0  0  0
 10 14  1  0  0  0  0
 11 15  1  0  0  0  0
 12 16  1  0  0  0  0
 14 17  1  0  0  0  0
 14 18  1  0  0  0  0
 15 19  1  0  0  0  0
 17 20  2  0  0  0  0
 17 21  1  0  0  0  0
 18 22  1  0  0  0  0
 20 23  1  0  0  0  0
 21 24  2  0  0  0  0
 23 25  1  0  0  0  0
 23 26  2  0  0  0  0
 25 27  2  0  0  0  0
 25 28  1  0  0  0  0
 27 29  1  0  0  0  0
 28 30  2  0  0  0  0
 29 31  2  0  0  0  0
  6  7  1  0  0  0  0
 16 19  1  0  0  0  0
 20 22  1  0  0  0  0
 24 26  1  0  0  0  0
 30 31  1  0  0  0  0
M  END
>  <MolRegNo>
1615809

>  <m>
=

>  <Value>
11000

>  <Unit>
nM

>  <Type>
IC50

>  <pValue>
4.96

>  <Ligand Efficiency>
0

>  <Binding Efficiency>
0

>  <Surface Efficiency>
0

>  <Assay Index>
822742

>  <Assay Category>


>  <Assay Organism>
Homo sapiens

>  <Target ID>
17045

>  <Target Name>
Cytochrome P450 3A4

>  <Target Organism>
Homo sapiens

>  <Target Description>
Target is a single protein chain

>  <Sequence Accession>
P08684

>  <Reference>
J Med Chem 57 (3), 903-920 (2014)

>  <Pubmed ID>
24387221

>  <DOI>
10.1021/jm401642q

$$$$
1615808
Actelion Java MolfileCreator 1.0

 31 35  0  0  0  0  0  0  0  0999 V2000
    0.0000   -0.0000   -0.0000 O   0  0  0  0  0  0  0  0  0  0  0  0
    0.8033   -0.8873   -0.0000 C   0  0  0  0  0  0  0  0  0  0  0  0
    0.3237   -2.3261   -0.0000 N   0  0  0  0  0  0  0  0  0  0  0  0
    2.2781   -0.5635   -0.0000 C   0  0  0  0  0  0  0  0  0  0  0  0
    1.3309   -3.4411   -0.0000 C   0  0  0  0  0  0  0  0  0  0  0  0
    3.2853   -1.6786   -0.0000 C   0  0  0  0  0  0  0  0  0  0  0  0
    2.8057   -3.1174   -0.0000 N   0  0  0  0  0  0  0  0  0  0  0  0
    0.8513   -4.8799   -0.0000 C   0  0  0  0  0  0  0  0  0  0  0  0
    4.7600   -1.3549   -0.0000 N   0  0  0  0  0  0  0  0  0  0  0  0
   -0.6475   -5.1797   -0.0000 C   0  0  0  0  0  0  0  0  0  0  0  0
    5.7672   -2.4699   -0.0000 C   0  0  0  0  0  0  0  0  0  0  0  0
    5.2157    0.1079   -0.0000 C   0  0  0  0  0  0  0  0  0  0  0  0
   -1.4748   -4.2565   -0.0000 O   0  0  0  0  0  0  0  0  0  0  0  0
   -1.1271   -6.6185   -0.0000 N   0  0  0  0  0  0  0  0  0  0  0  0
    7.2420   -2.1342   -0.0000 C   0  0  0  0  0  0  0  0  0  0  0  0
    6.6904    0.4436   -0.0000 C   0  0  0  0  0  0  0  0  0  0  0  0
   -2.5898   -7.0741   -0.0000 C   0  0  0  0  0  0  0  0  0  0  0  0
   -0.2398   -7.8415   -0.0000 C   0  0  0  0  0  0  0  0  0  0  0  0
    7.6976   -0.6714   -0.0000 O   0  0  0  0  0  0  0  0  0  0  0  0
   -2.6018   -8.5849   -0.0000 C   0  0  0  0  0  0  0  0  0  0  0  0
   -3.9207   -6.3068   -0.0000 C   0  0  0  0  0  0  0  0  0  0  0  0
   -1.1510   -9.0645   -0.0000 C   0  0  0  0  0  0  0  0  0  0  0  0
   -3.9327   -9.3282   -0.0000 C   0  0  0  0  0  0  0  0  0  0  0  0
   -5.2516   -7.0501   -0.0000 C   0  0  0  0  0  0  0  0  0  0  0  0
   -3.9447  -10.8390   -0.0000 C   0  0  0  0  0  0  0  0  0  0  0  0
   -5.2636   -8.5609   -0.0000 C   0  0  0  0  0  0  0  0  0  0  0  0
   -5.2756  -11.5944   -0.0000 C   0  0  0  0  0  0  0  0  0  0  0  0
   -2.6378  -11.5824   -0.0000 C   0  0  0  0  0  0  0  0  0  0  0  0
   -5.2876  -13.1051   -0.0000 C   0  0  0  0  0  0  0  0  0  0  0  0
   -2.6498  -13.0931   -0.0000 C   0  0  0  0  0  0  0  0  0  0  0  0
   -3.9807  -13.8485   -0.0000 C   0  0  0  0  0  0  0  0  0  0  0  0
  1  2  2  0  0  0  0
  2  3  1  0  0  0  0
  2  4  1  0  0  0  0
  3  5  1  0  0  0  0
  4  6  2  0  0  0  0
  5  7  2  0  0  0  0
  5  8  1  0  0  0  0
  6  9  1  0  0  0  0
  8 10  1  0  0  0  0
  9 11  1  0  0  0  0
  9 12  1  0  0  0  0
 10 13  2  0  0  0  0
 10 14  1  0  0  0  0
 11 15  1  0  0  0  0
 12 16  1  0  0  0  0
 14 17  1  0  0  0  0
 14 18  1  0  0  0  0
 15 19  1  0  0  0  0
 17 20  2  0  0  0  0
 17 21  1  0  0  0  0
 18 22  1  0  0  0  0
 20 23  1  0  0  0  0
 21 24  2  0  0  0  0
 23 25  1  0  0  0  0
 23 26  2  0  0  0  0
 25 27  2  0  0  0  0
 25 28  1  0  0  0  0
 27 29  1  0  0  0  0
 28 30  2  0  0  0  0
 29 31  2  0  0  0  0
  6  7  1  0  0  0  0
 16 19  1  0  0  0  0
 20 22  1  0  0  0  0
 24 26  1  0  0  0  0
 30 31  1  0  0  0  0
M  END
>  <MolRegNo>
1615808

>  <m>
=

>  <Value>
40000

>  <Unit>
nM

>  <Type>
IC50

>  <pValue>
4.4

>  <Ligand Efficiency>
0

>  <Binding Efficiency>
0

>  <Surface Efficiency>
0

>  <Assay Index>
822742

>  <Assay Category>


>  <Assay Organism>
Homo sapiens

>  <Target ID>
17045

>  <Target Name>
Cytochrome P450 3A4

>  <Target Organism>
Homo sapiens

>  <Target Description>
Target is a single protein chain

>  <Sequence Accession>
P08684

>  <Reference>
J Med Chem 57 (3), 903-920 (2014)

>  <Pubmed ID>
24387221

>  <DOI>
10.1021/jm401642q

$$$$
1615807
Actelion Java MolfileCreator 1.0

 30 33  0  0  0  0  0  0  0  0999 V2000
    0.0000   -0.0000   -0.0000 F   0  0  0  0  0  0  0  0  0  0  0  0
   -1.0796    0.6308   -0.0000 C   0  0  0  0  0  0  0  0  0  0  0  0
   -1.0917    1.8802   -0.0000 F   0  0  0  0  0  0  0  0  0  0  0  0
   -0.0243    1.2615   -0.0000 F   0  0  0  0  0  0  0  0  0  0  0  0
   -2.4260   -0.1334   -0.0000 O   0  0  0  0  0  0  0  0  0  0  0  0
   -3.7725    0.6429   -0.0000 C   0  0  0  0  0  0  0  0  0  0  0  0
   -5.1189   -0.1213   -0.0000 C   0  0  0  0  0  0  0  0  0  0  0  0
   -3.7846    2.1956   -0.0000 C   0  0  0  0  0  0  0  0  0  0  0  0
   -6.4654    0.6550   -0.0000 C   0  0  0  0  0  0  0  0  0  0  0  0
   -5.4464   -1.6133   -0.0000 C   0  0  0  0  0  0  0  0  0  0  0  0
   -5.1310    2.9719   -0.0000 C   0  0  0  0  0  0  0  0  0  0  0  0
   -7.6177   -0.3639   -0.0000 N   0  0  0  0  0  0  0  0  0  0  0  0
   -6.4775    2.2077   -0.0000 C   0  0  0  0  0  0  0  0  0  0  0  0
   -6.9870   -1.7589   -0.0000 C   0  0  0  0  0  0  0  0  0  0  0  0
   -9.1340   -0.0364   -0.0000 C   0  0  0  0  0  0  0  0  0  0  0  0
   -9.5343    1.1524   -0.0000 O   0  0  0  0  0  0  0  0  0  0  0  0
  -10.1772   -1.1766   -0.0000 C   0  0  0  0  0  0  0  0  0  0  0  0
  -11.6935   -0.8491   -0.0000 C   0  0  0  0  0  0  0  0  0  0  0  0
  -12.7366   -1.9772   -0.0000 N   0  0  0  0  0  0  0  0  0  0  0  0
  -12.1787    0.6308   -0.0000 N   0  0  0  0  0  0  0  0  0  0  0  0
  -14.2529   -1.6497   -0.0000 C   0  0  0  0  0  0  0  0  0  0  0  0
  -13.6949    0.9583   -0.0000 C   0  0  0  0  0  0  0  0  0  0  0  0
  -15.2961   -2.7778   -0.0000 N   0  0  0  0  0  0  0  0  0  0  0  0
  -14.7381   -0.1698   -0.0000 C   0  0  0  0  0  0  0  0  0  0  0  0
  -14.0831    2.1470   -0.0000 O   0  0  0  0  0  0  0  0  0  0  0  0
  -14.8352   -4.2334   -0.0000 C   0  0  0  0  0  0  0  0  0  0  0  0
  -16.8124   -2.4382   -0.0000 C   0  0  0  0  0  0  0  0  0  0  0  0
  -15.8783   -5.3615   -0.0000 C   0  0  0  0  0  0  0  0  0  0  0  0
  -17.8556   -3.5663   -0.0000 C   0  0  0  0  0  0  0  0  0  0  0  0
  -17.3946   -5.0219   -0.0000 O   0  0  0  0  0  0  0  0  0  0  0  0
  1  2  1  0  0  0  0
  2  3  1  0  0  0  0
  2  4  1  0  0  0  0
  2  5  1  0  0  0  0
  5  6  1  0  0  0  0
  6  7  2  0  0  0  0
  6  8  1  0  0  0  0
  7  9  1  0  0  0  0
  7 10  1  0  0  0  0
  8 11  2  0  0  0  0
  9 12  1  0  0  0  0
  9 13  2  0  0  0  0
 10 14  1  0  0  0  0
 12 15  1  0  0  0  0
 15 16  2  0  0  0  0
 15 17  1  0  0  0  0
 17 18  1  0  0  0  0
 18 19  2  0  0  0  0
 18 20  1  0  0  0  0
 19 21  1  0  0  0  0
 20 22  1  0  0  0  0
 21 23  1  0  0  0  0
 21 24  2  0  0  0  0
 22 25  2  0  0  0  0
 23 26  1  0  0  0  0
 23 27  1  0  0  0  0
 26 28  1  0  0  0  0
 27 29  1  0  0  0  0
 28 30  1  0  0  0  0
 11 13  1  0  0  0  0
 12 14  1  0  0  0  0
 22 24  1  0  0  0  0
 29 30  1  0  0  0  0
M  END
>  <MolRegNo>
1615807

>  <m>
=

>  <Value>
40000

>  <Unit>
nM

>  <Type>
IC50

>  <pValue>
4.4

>  <Ligand Efficiency>
0

>  <Binding Efficiency>
0

>  <Surface Efficiency>
0

>  <Assay Index>
822742

>  <Assay Category>


>  <Assay Organism>
Homo sapiens

>  <Target ID>
17045

>  <Target Name>
Cytochrome P450 3A4

>  <Target Organism>
Homo sapiens

>  <Target Description>
Target is a single protein chain

>  <Sequence Accession>
P08684

>  <Reference>
J Med Chem 57 (3), 903-920 (2014)

>  <Pubmed ID>
24387221

>  <DOI>
10.1021/jm401642q

$$$$
1615806
Actelion Java MolfileCreator 1.0

 29 32  0  0  0  0  0  0  0  0999 V2000
    0.0000   -0.0000   -0.0000 F   0  0  0  0  0  0  0  0  0  0  0  0
   -1.0816   -0.6077   -0.0000 C   0  0  0  0  0  0  0  0  0  0  0  0
   -1.0938   -1.8351   -0.0000 F   0  0  0  0  0  0  0  0  0  0  0  0
   -0.0243   -1.2153   -0.0000 F   0  0  0  0  0  0  0  0  0  0  0  0
   -2.4306    0.1823   -0.0000 C   0  0  0  0  0  0  0  0  0  0  0  0
   -3.7796   -0.5833   -0.0000 C   0  0  0  0  0  0  0  0  0  0  0  0
   -2.4428    1.7379   -0.0000 C   0  0  0  0  0  0  0  0  0  0  0  0
   -5.1286    0.1944   -0.0000 C   0  0  0  0  0  0  0  0  0  0  0  0
   -4.1077   -2.0782   -0.0000 C   0  0  0  0  0  0  0  0  0  0  0  0
   -3.7918    2.5157   -0.0000 C   0  0  0  0  0  0  0  0  0  0  0  0
   -6.2832   -0.8264   -0.0000 N   0  0  0  0  0  0  0  0  0  0  0  0
   -5.1408    1.7500   -0.0000 C   0  0  0  0  0  0  0  0  0  0  0  0
   -5.6512   -2.2240   -0.0000 C   0  0  0  0  0  0  0  0  0  0  0  0
   -7.8023   -0.4983   -0.0000 C   0  0  0  0  0  0  0  0  0  0  0  0
   -8.2033    0.6927   -0.0000 O   0  0  0  0  0  0  0  0  0  0  0  0
   -8.8475   -1.6407   -0.0000 C   0  0  0  0  0  0  0  0  0  0  0  0
  -10.3666   -1.3125   -0.0000 C   0  0  0  0  0  0  0  0  0  0  0  0
  -11.4118   -2.4428   -0.0000 N   0  0  0  0  0  0  0  0  0  0  0  0
  -10.8527    0.1701   -0.0000 N   0  0  0  0  0  0  0  0  0  0  0  0
  -12.9309   -2.1146   -0.0000 C   0  0  0  0  0  0  0  0  0  0  0  0
  -12.3719    0.4983   -0.0000 C   0  0  0  0  0  0  0  0  0  0  0  0
  -13.9761   -3.2449   -0.0000 N   0  0  0  0  0  0  0  0  0  0  0  0
  -13.4170   -0.6320   -0.0000 C   0  0  0  0  0  0  0  0  0  0  0  0
  -12.7608    1.6893   -0.0000 O   0  0  0  0  0  0  0  0  0  0  0  0
  -13.5142   -4.7032   -0.0000 C   0  0  0  0  0  0  0  0  0  0  0  0
  -15.4952   -2.9046   -0.0000 C   0  0  0  0  0  0  0  0  0  0  0  0
  -14.5594   -5.8335   -0.0000 C   0  0  0  0  0  0  0  0  0  0  0  0
  -16.5404   -4.0348   -0.0000 C   0  0  0  0  0  0  0  0  0  0  0  0
  -16.0786   -5.4932   -0.0000 O   0  0  0  0  0  0  0  0  0  0  0  0
  1  2  1  0  0  0  0
  2  3  1  0  0  0  0
  2  4  1  0  0  0  0
  2  5  1  0  0  0  0
  5  6  2  0  0  0  0
  5  7  1  0  0  0  0
  6  8  1  0  0  0  0
  6  9  1  0  0  0  0
  7 10  2  0  0  0  0
  8 11  1  0  0  0  0
  8 12  2  0  0  0  0
  9 13  1  0  0  0  0
 11 14  1  0  0  0  0
 14 15  2  0  0  0  0
 14 16  1  0  0  0  0
 16 17  1  0  0  0  0
 17 18  2  0  0  0  0
 17 19  1  0  0  0  0
 18 20  1  0  0  0  0
 19 21  1  0  0  0  0
 20 22  1  0  0  0  0
 20 23  2  0  0  0  0
 21 24  2  0  0  0  0
 22 25  1  0  0  0  0
 22 26  1  0  0  0  0
 25 27  1  0  0  0  0
 26 28  1  0  0  0  0
 27 29  1  0  0  0  0
 10 12  1  0  0  0  0
 11 13  1  0  0  0  0
 21 23  1  0  0  0  0
 28 29  1  0  0  0  0
M  END
>  <MolRegNo>
1615806

>  <m>
=

>  <Value>
40000

>  <Unit>
nM

>  <Type>
IC50

>  <pValue>
4.4

>  <Ligand Efficiency>
0

>  <Binding Efficiency>
0

>  <Surface Efficiency>
0

>  <Assay Index>
822742

>  <Assay Category>


>  <Assay Organism>
Homo sapiens

>  <Target ID>
17045

>  <Target Name>
Cytochrome P450 3A4

>  <Target Organism>
Homo sapiens

>  <Target Description>
Target is a single protein chain

>  <Sequence Accession>
P08684

>  <Reference>
J Med Chem 57 (3), 903-920 (2014)

>  <Pubmed ID>
24387221

>  <DOI>
10.1021/jm401642q

$$$$
1615805
Actelion Java MolfileCreator 1.0

 27 30  0  0  0  0  0  0  0  0999 V2000
    0.0000   -0.0000   -0.0000 O   0  0  0  0  0  0  0  0  0  0  0  0
    0.3630   -1.1616   -0.0000 C   0  0  0  0  0  0  0  0  0  0  0  0
    1.8513   -1.4641   -0.0000 N   0  0  0  0  0  0  0  0  0  0  0  0
   -0.6776   -2.2869   -0.0000 C   0  0  0  0  0  0  0  0  0  0  0  0
    2.3111   -2.9162   -0.0000 C   0  0  0  0  0  0  0  0  0  0  0  0
   -0.2178   -3.7390   -0.0000 C   0  0  0  0  0  0  0  0  0  0  0  0
    1.2705   -4.0415   -0.0000 N   0  0  0  0  0  0  0  0  0  0  0  0
    3.7995   -3.2187   -0.0000 C   0  0  0  0  0  0  0  0  0  0  0  0
   -1.2584   -4.8643   -0.0000 N   0  0  0  0  0  0  0  0  0  0  0  0
    4.8159   -2.0570   -0.0000 C   0  0  0  0  0  0  0  0  0  0  0  0
   -0.7986   -6.3163   -0.0000 C   0  0  0  0  0  0  0  0  0  0  0  0
   -2.7709   -4.5255   -0.0000 C   0  0  0  0  0  0  0  0  0  0  0  0
    4.4166   -0.8712   -0.0000 O   0  0  0  0  0  0  0  0  0  0  0  0
    6.3042   -2.3595   -0.0000 N   0  0  0  0  0  0  0  0  0  0  0  0
   -1.8392   -7.4416   -0.0000 C   0  0  0  0  0  0  0  0  0  0  0  0
   -3.8116   -5.6508   -0.0000 C   0  0  0  0  0  0  0  0  0  0  0  0
    7.4295   -1.3189   -0.0000 C   0  0  0  0  0  0  0  0  0  0  0  0
    6.9213   -3.7511   -0.0000 C   0  0  0  0  0  0  0  0  0  0  0  0
   -3.3518   -7.1028   -0.0000 O   0  0  0  0  0  0  0  0  0  0  0  0
    8.7485   -2.0812   -0.0000 C   0  0  0  0  0  0  0  0  0  0  0  0
    7.4174    0.2299   -0.0000 C   0  0  0  0  0  0  0  0  0  0  0  0
    8.4338   -3.5817   -0.0000 C   0  0  0  0  0  0  0  0  0  0  0  0
   10.0674   -1.3068   -0.0000 C   0  0  0  0  0  0  0  0  0  0  0  0
    8.7364    1.0043   -0.0000 C   0  0  0  0  0  0  0  0  0  0  0  0
   11.3863   -2.0570   -0.0000 O   0  0  0  0  0  0  0  0  0  0  0  0
   10.0553    0.2420   -0.0000 C   0  0  0  0  0  0  0  0  0  0  0  0
   12.4390   -1.4278   -0.0000 C   0  0  0  0  0  0  0  0  0  0  0  0
  1  2  2  0  0  0  0
  2  3  1  0  0  0  0
  2  4  1  0  0  0  0
  3  5  1  0  0  0  0
  4  6  2  0  0  0  0
  5  7  2  0  0  0  0
  5  8  1  0  0  0  0
  6  9  1  0  0  0  0
  8 10  1  0  0  0  0
  9 11  1  0  0  0  0
  9 12  1  0  0  0  0
 10 13  2  0  0  0  0
 10 14  1  0  0  0  0
 11 15  1  0  0  0  0
 12 16  1  0  0  0  0
 14 17  1  0  0  0  0
 14 18  1  0  0  0  0
 15 19  1  0  0  0  0
 17 20  2  0  0  0  0
 17 21  1  0  0  0  0
 18 22  1  0  0  0  0
 20 23  1  0  0  0  0
 21 24  2  0  0  0  0
 23 25  1  0  0  0  0
 23 26  2  0  0  0  0
 25 27  1  0  0  0  0
  6  7  1  0  0  0  0
 16 19  1  0  0  0  0
 20 22  1  0  0  0  0
 24 26  1  0  0  0  0
M  END
>  <MolRegNo>
1615805

>  <m>
=

>  <Value>
40000

>  <Unit>
nM

>  <Type>
IC50

>  <pValue>
4.4

>  <Ligand Efficiency>
0

>  <Binding Efficiency>
0

>  <Surface Efficiency>
0

>  <Assay Index>
822742

>  <Assay Category>


>  <Assay Organism>
Homo sapiens

>  <Target ID>
17045

>  <Target Name>
Cytochrome P450 3A4

>  <Target Organism>
Homo sapiens

>  <Target Description>
Target is a single protein chain

>  <Sequence Accession>
P08684

>  <Reference>
J Med Chem 57 (3), 903-920 (2014)

>  <Pubmed ID>
24387221

>  <DOI>
10.1021/jm401642q

$$$$
1615803
Actelion Java MolfileCreator 1.0

 26 29  0  0  0  0  0  0  0  0999 V2000
    0.0000   -0.0000   -0.0000 Br  0  0  0  0  0  0  0  0  0  0  0  0
   -1.0693    0.6248   -0.0000 C   0  0  0  0  0  0  0  0  0  0  0  0
   -2.4029   -0.1322   -0.0000 C   0  0  0  0  0  0  0  0  0  0  0  0
   -1.0813    2.1626   -0.0000 C   0  0  0  0  0  0  0  0  0  0  0  0
   -3.7365    0.6368   -0.0000 C   0  0  0  0  0  0  0  0  0  0  0  0
   -2.7273   -1.6099   -0.0000 C   0  0  0  0  0  0  0  0  0  0  0  0
   -2.4149    2.9315   -0.0000 C   0  0  0  0  0  0  0  0  0  0  0  0
   -4.8779   -0.3724   -0.0000 N   0  0  0  0  0  0  0  0  0  0  0  0
   -3.7485    2.1746   -0.0000 C   0  0  0  0  0  0  0  0  0  0  0  0
   -4.2531   -1.7541   -0.0000 C   0  0  0  0  0  0  0  0  0  0  0  0
   -6.3797   -0.0481   -0.0000 C   0  0  0  0  0  0  0  0  0  0  0  0
   -6.7762    1.1294   -0.0000 O   0  0  0  0  0  0  0  0  0  0  0  0
   -7.4129   -1.1774   -0.0000 C   0  0  0  0  0  0  0  0  0  0  0  0
   -8.9148   -0.8530   -0.0000 C   0  0  0  0  0  0  0  0  0  0  0  0
   -9.9480   -1.9704   -0.0000 N   0  0  0  0  0  0  0  0  0  0  0  0
   -9.3953    0.6127   -0.0000 N   0  0  0  0  0  0  0  0  0  0  0  0
  -11.4498   -1.6460   -0.0000 C   0  0  0  0  0  0  0  0  0  0  0  0
  -10.8972    0.9371   -0.0000 C   0  0  0  0  0  0  0  0  0  0  0  0
  -12.4831   -2.7633   -0.0000 N   0  0  0  0  0  0  0  0  0  0  0  0
  -11.9304   -0.1802   -0.0000 C   0  0  0  0  0  0  0  0  0  0  0  0
  -11.2816    2.1146   -0.0000 O   0  0  0  0  0  0  0  0  0  0  0  0
  -12.0265   -4.2051   -0.0000 C   0  0  0  0  0  0  0  0  0  0  0  0
  -13.9849   -2.4269   -0.0000 C   0  0  0  0  0  0  0  0  0  0  0  0
  -13.0598   -5.3224   -0.0000 C   0  0  0  0  0  0  0  0  0  0  0  0
  -15.0181   -3.5443   -0.0000 C   0  0  0  0  0  0  0  0  0  0  0  0
  -14.5616   -4.9860   -0.0000 O   0  0  0  0  0  0  0  0  0  0  0  0
  1  2  1  0  0  0  0
  2  3  2  0  0  0  0
  2  4  1  0  0  0  0
  3  5  1  0  0  0  0
  3  6  1  0  0  0  0
  4  7  2  0  0  0  0
  5  8  1  0  0  0  0
  5  9  2  0  0  0  0
  6 10  1  0  0  0  0
  8 11  1  0  0  0  0
 11 12  2  0  0  0  0
 11 13  1  0  0  0  0
 13 14  1  0  0  0  0
 14 15  2  0  0  0  0
 14 16  1  0  0  0  0
 15 17  1  0  0  0  0
 16 18  1  0  0  0  0
 17 19  1  0  0  0  0
 17 20  2  0  0  0  0
 18 21  2  0  0  0  0
 19 22  1  0  0  0  0
 19 23  1  0  0  0  0
 22 24  1  0  0  0  0
 23 25  1  0  0  0  0
 24 26  1  0  0  0  0
  7  9  1  0  0  0  0
  8 10  1  0  0  0  0
 18 20  1  0  0  0  0
 25 26  1  0  0  0  0
M  END
>  <MolRegNo>
1615803

>  <m>
=

>  <Value>
40000

>  <Unit>
nM

>  <Type>
IC50

>  <pValue>
4.4

>  <Ligand Efficiency>
0

>  <Binding Efficiency>
0

>  <Surface Efficiency>
0

>  <Assay Index>
822742

>  <Assay Category>


>  <Assay Organism>
Homo sapiens

>  <Target ID>
17045

>  <Target Name>
Cytochrome P450 3A4

>  <Target Organism>
Homo sapiens

>  <Target Description>
Target is a single protein chain

>  <Sequence Accession>
P08684

>  <Reference>
J Med Chem 57 (3), 903-920 (2014)

>  <Pubmed ID>
24387221

>  <DOI>
10.1021/jm401642q

$$$$
1615802
Actelion Java MolfileCreator 1.0

 26 29  0  0  0  0  0  0  0  0999 V2000
    0.0000   -0.0000   -0.0000 Cl  0  0  0  0  0  0  0  0  0  0  0  0
   -1.0693    0.6248   -0.0000 C   0  0  0  0  0  0  0  0  0  0  0  0
   -2.4029   -0.1322   -0.0000 C   0  0  0  0  0  0  0  0  0  0  0  0
   -1.0813    2.1626   -0.0000 C   0  0  0  0  0  0  0  0  0  0  0  0
   -3.7365    0.6368   -0.0000 C   0  0  0  0  0  0  0  0  0  0  0  0
   -2.7273   -1.6099   -0.0000 C   0  0  0  0  0  0  0  0  0  0  0  0
   -2.4149    2.9315   -0.0000 C   0  0  0  0  0  0  0  0  0  0  0  0
   -4.8779   -0.3724   -0.0000 N   0  0  0  0  0  0  0  0  0  0  0  0
   -3.7485    2.1746   -0.0000 C   0  0  0  0  0  0  0  0  0  0  0  0
   -4.2531   -1.7541   -0.0000 C   0  0  0  0  0  0  0  0  0  0  0  0
   -6.3797   -0.0481   -0.0000 C   0  0  0  0  0  0  0  0  0  0  0  0
   -6.7762    1.1294   -0.0000 O   0  0  0  0  0  0  0  0  0  0  0  0
   -7.4129   -1.1774   -0.0000 C   0  0  0  0  0  0  0  0  0  0  0  0
   -8.9148   -0.8530   -0.0000 C   0  0  0  0  0  0  0  0  0  0  0  0
   -9.9480   -1.9704   -0.0000 N   0  0  0  0  0  0  0  0  0  0  0  0
   -9.3953    0.6127   -0.0000 N   0  0  0  0  0  0  0  0  0  0  0  0
  -11.4498   -1.6460   -0.0000 C   0  0  0  0  0  0  0  0  0  0  0  0
  -10.8972    0.9371   -0.0000 C   0  0  0  0  0  0  0  0  0  0  0  0
  -12.4831   -2.7633   -0.0000 N   0  0  0  0  0  0  0  0  0  0  0  0
  -11.9304   -0.1802   -0.0000 C   0  0  0  0  0  0  0  0  0  0  0  0
  -11.2816    2.1146   -0.0000 O   0  0  0  0  0  0  0  0  0  0  0  0
  -12.0265   -4.2051   -0.0000 C   0  0  0  0  0  0  0  0  0  0  0  0
  -13.9849   -2.4269   -0.0000 C   0  0  0  0  0  0  0  0  0  0  0  0
  -13.0598   -5.3224   -0.0000 C   0  0  0  0  0  0  0  0  0  0  0  0
  -15.0181   -3.5443   -0.0000 C   0  0  0  0  0  0  0  0  0  0  0  0
  -14.5616   -4.9860   -0.0000 O   0  0  0  0  0  0  0  0  0  0  0  0
  1  2  1  0  0  0  0
  2  3  2  0  0  0  0
  2  4  1  0  0  0  0
  3  5  1  0  0  0  0
  3  6  1  0  0  0  0
  4  7  2  0  0  0  0
  5  8  1  0  0  0  0
  5  9  2  0  0  0  0
  6 10  1  0  0  0  0
  8 11  1  0  0  0  0
 11 12  2  0  0  0  0
 11 13  1  0  0  0  0
 13 14  1  0  0  0  0
 14 15  2  0  0  0  0
 14 16  1  0  0  0  0
 15 17  1  0  0  0  0
 16 18  1  0  0  0  0
 17 19  1  0  0  0  0
 17 20  2  0  0  0  0
 18 21  2  0  0  0  0
 19 22  1  0  0  0  0
 19 23  1  0  0  0  0
 22 24  1  0  0  0  0
 23 25  1  0  0  0  0
 24 26  1  0  0  0  0
  7  9  1  0  0  0  0
  8 10  1  0  0  0  0
 18 20  1  0  0  0  0
 25 26  1  0  0  0  0
M  END
>  <MolRegNo>
1615802

>  <m>
=

>  <Value>
40000

>  <Unit>
nM

>  <Type>
IC50

>  <pValue>
4.4

>  <Ligand Efficiency>
0

>  <Binding Efficiency>
0

>  <Surface Efficiency>
0

>  <Assay Index>
822742

>  <Assay Category>


>  <Assay Organism>
Homo sapiens

>  <Target ID>
17045

>  <Target Name>
Cytochrome P450 3A4

>  <Target Organism>
Homo sapiens

>  <Target Description>
Target is a single protein chain

>  <Sequence Accession>
P08684

>  <Reference>
J Med Chem 57 (3), 903-920 (2014)

>  <Pubmed ID>
24387221

>  <DOI>
10.1021/jm401642q

$$$$
1615801
Actelion Java MolfileCreator 1.0

 26 29  0  0  0  0  0  0  0  0999 V2000
    0.0000   -0.0000   -0.0000 F   0  0  0  0  0  0  0  0  0  0  0  0
   -1.0693    0.6248   -0.0000 C   0  0  0  0  0  0  0  0  0  0  0  0
   -2.4029   -0.1322   -0.0000 C   0  0  0  0  0  0  0  0  0  0  0  0
   -1.0813    2.1626   -0.0000 C   0  0  0  0  0  0  0  0  0  0  0  0
   -3.7365    0.6368   -0.0000 C   0  0  0  0  0  0  0  0  0  0  0  0
   -2.7273   -1.6099   -0.0000 C   0  0  0  0  0  0  0  0  0  0  0  0
   -2.4149    2.9315   -0.0000 C   0  0  0  0  0  0  0  0  0  0  0  0
   -4.8779   -0.3724   -0.0000 N   0  0  0  0  0  0  0  0  0  0  0  0
   -3.7485    2.1746   -0.0000 C   0  0  0  0  0  0  0  0  0  0  0  0
   -4.2531   -1.7541   -0.0000 C   0  0  0  0  0  0  0  0  0  0  0  0
   -6.3797   -0.0481   -0.0000 C   0  0  0  0  0  0  0  0  0  0  0  0
   -6.7762    1.1294   -0.0000 O   0  0  0  0  0  0  0  0  0  0  0  0
   -7.4129   -1.1774   -0.0000 C   0  0  0  0  0  0  0  0  0  0  0  0
   -8.9148   -0.8530   -0.0000 C   0  0  0  0  0  0  0  0  0  0  0  0
   -9.9480   -1.9704   -0.0000 N   0  0  0  0  0  0  0  0  0  0  0  0
   -9.3953    0.6127   -0.0000 N   0  0  0  0  0  0  0  0  0  0  0  0
  -11.4498   -1.6460   -0.0000 C   0  0  0  0  0  0  0  0  0  0  0  0
  -10.8972    0.9371   -0.0000 C   0  0  0  0  0  0  0  0  0  0  0  0
  -12.4831   -2.7633   -0.0000 N   0  0  0  0  0  0  0  0  0  0  0  0
  -11.9304   -0.1802   -0.0000 C   0  0  0  0  0  0  0  0  0  0  0  0
  -11.2816    2.1146   -0.0000 O   0  0  0  0  0  0  0  0  0  0  0  0
  -12.0265   -4.2051   -0.0000 C   0  0  0  0  0  0  0  0  0  0  0  0
  -13.9849   -2.4269   -0.0000 C   0  0  0  0  0  0  0  0  0  0  0  0
  -13.0598   -5.3224   -0.0000 C   0  0  0  0  0  0  0  0  0  0  0  0
  -15.0181   -3.5443   -0.0000 C   0  0  0  0  0  0  0  0  0  0  0  0
  -14.5616   -4.9860   -0.0000 O   0  0  0  0  0  0  0  0  0  0  0  0
  1  2  1  0  0  0  0
  2  3  2  0  0  0  0
  2  4  1  0  0  0  0
  3  5  1  0  0  0  0
  3  6  1  0  0  0  0
  4  7  2  0  0  0  0
  5  8  1  0  0  0  0
  5  9  2  0  0  0  0
  6 10  1  0  0  0  0
  8 11  1  0  0  0  0
 11 12  2  0  0  0  0
 11 13  1  0  0  0  0
 13 14  1  0  0  0  0
 14 15  2  0  0  0  0
 14 16  1  0  0  0  0
 15 17  1  0  0  0  0
 16 18  1  0  0  0  0
 17 19  1  0  0  0  0
 17 20  2  0  0  0  0
 18 21  2  0  0  0  0
 19 22  1  0  0  0  0
 19 23  1  0  0  0  0
 22 24  1  0  0  0  0
 23 25  1  0  0  0  0
 24 26  1  0  0  0  0
  7  9  1  0  0  0  0
  8 10  1  0  0  0  0
 18 20  1  0  0  0  0
 25 26  1  0  0  0  0
M  END
>  <MolRegNo>
1615801

>  <m>
=

>  <Value>
40000

>  <Unit>
nM

>  <Type>
IC50

>  <pValue>
4.4

>  <Ligand Efficiency>
0

>  <Binding Efficiency>
0

>  <Surface Efficiency>
0

>  <Assay Index>
822742

>  <Assay Category>


>  <Assay Organism>
Homo sapiens

>  <Target ID>
17045

>  <Target Name>
Cytochrome P450 3A4

>  <Target Organism>
Homo sapiens

>  <Target Description>
Target is a single protein chain

>  <Sequence Accession>
P08684

>  <Reference>
J Med Chem 57 (3), 903-920 (2014)

>  <Pubmed ID>
24387221

>  <DOI>
10.1021/jm401642q

$$$$
1615800
Actelion Java MolfileCreator 1.0

 26 29  0  0  0  0  0  0  0  0999 V2000
    0.0000   -0.0000   -0.0000 Cl  0  0  0  0  0  0  0  0  0  0  0  0
   -1.0664    0.6230   -0.0000 C   0  0  0  0  0  0  0  0  0  0  0  0
   -2.3963   -0.1318   -0.0000 C   0  0  0  0  0  0  0  0  0  0  0  0
   -1.0783    2.1567   -0.0000 C   0  0  0  0  0  0  0  0  0  0  0  0
   -3.7262    0.6350   -0.0000 C   0  0  0  0  0  0  0  0  0  0  0  0
   -2.4083    2.9235   -0.0000 C   0  0  0  0  0  0  0  0  0  0  0  0
   -3.7382    2.1686   -0.0000 C   0  0  0  0  0  0  0  0  0  0  0  0
   -5.1880    0.1797   -0.0000 C   0  0  0  0  0  0  0  0  0  0  0  0
   -5.2000    2.6479   -0.0000 N   0  0  0  0  0  0  0  0  0  0  0  0
   -6.0986    1.4258   -0.0000 C   0  0  0  0  0  0  0  0  0  0  0  0
   -5.6792    4.1096   -0.0000 C   0  0  0  0  0  0  0  0  0  0  0  0
   -4.8765    5.0322   -0.0000 O   0  0  0  0  0  0  0  0  0  0  0  0
   -7.1769    4.4331   -0.0000 C   0  0  0  0  0  0  0  0  0  0  0  0
   -7.6562    5.8949   -0.0000 C   0  0  0  0  0  0  0  0  0  0  0  0
   -9.1538    6.2184   -0.0000 N   0  0  0  0  0  0  0  0  0  0  0  0
   -6.6497    7.0331   -0.0000 N   0  0  0  0  0  0  0  0  0  0  0  0
   -9.6331    7.6801   -0.0000 C   0  0  0  0  0  0  0  0  0  0  0  0
   -7.1290    8.4949   -0.0000 C   0  0  0  0  0  0  0  0  0  0  0  0
  -11.1308    8.0036   -0.0000 N   0  0  0  0  0  0  0  0  0  0  0  0
   -8.6267    8.8184   -0.0000 C   0  0  0  0  0  0  0  0  0  0  0  0
   -6.3262    9.4055   -0.0000 O   0  0  0  0  0  0  0  0  0  0  0  0
  -12.1612    6.8893   -0.0000 C   0  0  0  0  0  0  0  0  0  0  0  0
  -11.6100    9.4654   -0.0000 C   0  0  0  0  0  0  0  0  0  0  0  0
  -13.6589    7.2248   -0.0000 C   0  0  0  0  0  0  0  0  0  0  0  0
  -13.1077    9.8008   -0.0000 C   0  0  0  0  0  0  0  0  0  0  0  0
  -14.1381    8.6866   -0.0000 O   0  0  0  0  0  0  0  0  0  0  0  0
  1  2  1  0  0  0  0
  2  3  2  0  0  0  0
  2  4  1  0  0  0  0
  3  5  1  0  0  0  0
  4  6  2  0  0  0  0
  5  7  2  0  0  0  0
  5  8  1  0  0  0  0
  7  9  1  0  0  0  0
  8 10  1  0  0  0  0
  9 11  1  0  0  0  0
 11 12  2  0  0  0  0
 11 13  1  0  0  0  0
 13 14  1  0  0  0  0
 14 15  2  0  0  0  0
 14 16  1  0  0  0  0
 15 17  1  0  0  0  0
 16 18  1  0  0  0  0
 17 19  1  0  0  0  0
 17 20  2  0  0  0  0
 18 21  2  0  0  0  0
 19 22  1  0  0  0  0
 19 23  1  0  0  0  0
 22 24  1  0  0  0  0
 23 25  1  0  0  0  0
 24 26  1  0  0  0  0
  6  7  1  0  0  0  0
  9 10  1  0  0  0  0
 18 20  1  0  0  0  0
 25 26  1  0  0  0  0
M  END
>  <MolRegNo>
1615800

>  <m>
=

>  <Value>
40000

>  <Unit>
nM

>  <Type>
IC50

>  <pValue>
4.4

>  <Ligand Efficiency>
0

>  <Binding Efficiency>
0

>  <Surface Efficiency>
0

>  <Assay Index>
822742

>  <Assay Category>


>  <Assay Organism>
Homo sapiens

>  <Target ID>
17045

>  <Target Name>
Cytochrome P450 3A4

>  <Target Organism>
Homo sapiens

>  <Target Description>
Target is a single protein chain

>  <Sequence Accession>
P08684

>  <Reference>
J Med Chem 57 (3), 903-920 (2014)

>  <Pubmed ID>
24387221

>  <DOI>
10.1021/jm401642q

$$$$
1615799
Actelion Java MolfileCreator 1.0

 26 29  0  0  0  0  0  0  0  0999 V2000
    0.0000   -0.0000   -0.0000 F   0  0  0  0  0  0  0  0  0  0  0  0
   -1.0664    0.6230   -0.0000 C   0  0  0  0  0  0  0  0  0  0  0  0
   -2.3963   -0.1318   -0.0000 C   0  0  0  0  0  0  0  0  0  0  0  0
   -1.0783    2.1567   -0.0000 C   0  0  0  0  0  0  0  0  0  0  0  0
   -3.7262    0.6350   -0.0000 C   0  0  0  0  0  0  0  0  0  0  0  0
   -2.4083    2.9235   -0.0000 C   0  0  0  0  0  0  0  0  0  0  0  0
   -3.7382    2.1686   -0.0000 C   0  0  0  0  0  0  0  0  0  0  0  0
   -5.1880    0.1797   -0.0000 C   0  0  0  0  0  0  0  0  0  0  0  0
   -5.2000    2.6479   -0.0000 N   0  0  0  0  0  0  0  0  0  0  0  0
   -6.0986    1.4258   -0.0000 C   0  0  0  0  0  0  0  0  0  0  0  0
   -5.6792    4.1096   -0.0000 C   0  0  0  0  0  0  0  0  0  0  0  0
   -4.8765    5.0322   -0.0000 O   0  0  0  0  0  0  0  0  0  0  0  0
   -7.1769    4.4331   -0.0000 C   0  0  0  0  0  0  0  0  0  0  0  0
   -7.6562    5.8949   -0.0000 C   0  0  0  0  0  0  0  0  0  0  0  0
   -9.1538    6.2184   -0.0000 N   0  0  0  0  0  0  0  0  0  0  0  0
   -6.6497    7.0331   -0.0000 N   0  0  0  0  0  0  0  0  0  0  0  0
   -9.6331    7.6801   -0.0000 C   0  0  0  0  0  0  0  0  0  0  0  0
   -7.1290    8.4949   -0.0000 C   0  0  0  0  0  0  0  0  0  0  0  0
  -11.1308    8.0036   -0.0000 N   0  0  0  0  0  0  0  0  0  0  0  0
   -8.6267    8.8184   -0.0000 C   0  0  0  0  0  0  0  0  0  0  0  0
   -6.3262    9.4055   -0.0000 O   0  0  0  0  0  0  0  0  0  0  0  0
  -12.1612    6.8893   -0.0000 C   0  0  0  0  0  0  0  0  0  0  0  0
  -11.6100    9.4654   -0.0000 C   0  0  0  0  0  0  0  0  0  0  0  0
  -13.6589    7.2248   -0.0000 C   0  0  0  0  0  0  0  0  0  0  0  0
  -13.1077    9.8008   -0.0000 C   0  0  0  0  0  0  0  0  0  0  0  0
  -14.1381    8.6866   -0.0000 O   0  0  0  0  0  0  0  0  0  0  0  0
  1  2  1  0  0  0  0
  2  3  2  0  0  0  0
  2  4  1  0  0  0  0
  3  5  1  0  0  0  0
  4  6  2  0  0  0  0
  5  7  2  0  0  0  0
  5  8  1  0  0  0  0
  7  9  1  0  0  0  0
  8 10  1  0  0  0  0
  9 11  1  0  0  0  0
 11 12  2  0  0  0  0
 11 13  1  0  0  0  0
 13 14  1  0  0  0  0
 14 15  2  0  0  0  0
 14 16  1  0  0  0  0
 15 17  1  0  0  0  0
 16 18  1  0  0  0  0
 17 19  1  0  0  0  0
 17 20  2  0  0  0  0
 18 21  2  0  0  0  0
 19 22  1  0  0  0  0
 19 23  1  0  0  0  0
 22 24  1  0  0  0  0
 23 25  1  0  0  0  0
 24 26  1  0  0  0  0
  6  7  1  0  0  0  0
  9 10  1  0  0  0  0
 18 20  1  0  0  0  0
 25 26  1  0  0  0  0
M  END
>  <MolRegNo>
1615799

>  <m>
=

>  <Value>
40000

>  <Unit>
nM

>  <Type>
IC50

>  <pValue>
4.4

>  <Ligand Efficiency>
0

>  <Binding Efficiency>
0

>  <Surface Efficiency>
0

>  <Assay Index>
822742

>  <Assay Category>


>  <Assay Organism>
Homo sapiens

>  <Target ID>
17045

>  <Target Name>
Cytochrome P450 3A4

>  <Target Organism>
Homo sapiens

>  <Target Description>
Target is a single protein chain

>  <Sequence Accession>
P08684

>  <Reference>
J Med Chem 57 (3), 903-920 (2014)

>  <Pubmed ID>
24387221

>  <DOI>
10.1021/jm401642q

$$$$
1615641
Actelion Java MolfileCreator 1.0

 25 28  0  0  0  0  0  0  0  0999 V2000
    0.0000   -0.0000   -0.0000 O   0  0  0  0  0  0  0  0  0  0  0  0
    1.1773   -0.2403   -0.0000 C   0  0  0  0  0  0  0  0  0  0  0  0
    2.1864    0.9010   -0.0000 N   0  0  0  0  0  0  0  0  0  0  0  0
    1.6338   -1.6818   -0.0000 C   0  0  0  0  0  0  0  0  0  0  0  0
    3.6640    0.6007   -0.0000 C   0  0  0  0  0  0  0  0  0  0  0  0
    3.1114   -1.9822   -0.0000 C   0  0  0  0  0  0  0  0  0  0  0  0
    4.1205   -0.8409   -0.0000 N   0  0  0  0  0  0  0  0  0  0  0  0
    4.6731    1.7539   -0.0000 C   0  0  0  0  0  0  0  0  0  0  0  0
    3.5679   -3.4237   -0.0000 N   0  0  0  0  0  0  0  0  0  0  0  0
    4.1926    3.2195   -0.0000 C   0  0  0  0  0  0  0  0  0  0  0  0
    5.0455   -3.7361   -0.0000 C   0  0  0  0  0  0  0  0  0  0  0  0
    2.5348   -4.5410   -0.0000 C   0  0  0  0  0  0  0  0  0  0  0  0
    2.9913    3.4838   -0.0000 O   0  0  0  0  0  0  0  0  0  0  0  0
    5.2017    4.3608   -0.0000 N   0  0  0  0  0  0  0  0  0  0  0  0
    5.5020   -5.1776   -0.0000 C   0  0  0  0  0  0  0  0  0  0  0  0
    2.9913   -5.9825   -0.0000 C   0  0  0  0  0  0  0  0  0  0  0  0
    4.8773    5.8624   -0.0000 C   0  0  0  0  0  0  0  0  0  0  0  0
    6.7033    4.2166   -0.0000 C   0  0  0  0  0  0  0  0  0  0  0  0
    4.4689   -6.2949   -0.0000 O   0  0  0  0  0  0  0  0  0  0  0  0
    6.1867    6.6312   -0.0000 C   0  0  0  0  0  0  0  0  0  0  0  0
    3.5439    6.6312   -0.0000 C   0  0  0  0  0  0  0  0  0  0  0  0
    7.3160    5.6221   -0.0000 C   0  0  0  0  0  0  0  0  0  0  0  0
    6.1747    8.1689   -0.0000 C   0  0  0  0  0  0  0  0  0  0  0  0
    3.5319    8.1689   -0.0000 C   0  0  0  0  0  0  0  0  0  0  0  0
    4.8413    8.9377   -0.0000 C   0  0  0  0  0  0  0  0  0  0  0  0
  1  2  2  0  0  0  0
  2  3  1  0  0  0  0
  2  4  1  0  0  0  0
  3  5  1  0  0  0  0
  4  6  2  0  0  0  0
  5  7  2  0  0  0  0
  5  8  1  0  0  0  0
  6  9  1  0  0  0  0
  8 10  1  0  0  0  0
  9 11  1  0  0  0  0
  9 12  1  0  0  0  0
 10 13  2  0  0  0  0
 10 14  1  0  0  0  0
 11 15  1  0  0  0  0
 12 16  1  0  0  0  0
 14 17  1  0  0  0  0
 14 18  1  0  0  0  0
 15 19  1  0  0  0  0
 17 20  2  0  0  0  0
 17 21  1  0  0  0  0
 18 22  1  0  0  0  0
 20 23  1  0  0  0  0
 21 24  2  0  0  0  0
 23 25  2  0  0  0  0
  6  7  1  0  0  0  0
 16 19  1  0  0  0  0
 20 22  1  0  0  0  0
 24 25  1  0  0  0  0
M  END
>  <MolRegNo>
1615641

>  <m>
=

>  <Value>
40000

>  <Unit>
nM

>  <Type>
IC50

>  <pValue>
4.4

>  <Ligand Efficiency>
0

>  <Binding Efficiency>
0

>  <Surface Efficiency>
0

>  <Assay Index>
822742

>  <Assay Category>


>  <Assay Organism>
Homo sapiens

>  <Target ID>
17045

>  <Target Name>
Cytochrome P450 3A4

>  <Target Organism>
Homo sapiens

>  <Target Description>
Target is a single protein chain

>  <Sequence Accession>
P08684

>  <Reference>
J Med Chem 57 (3), 903-920 (2014)

>  <Pubmed ID>
24387221

>  <DOI>
10.1021/jm401642q

$$$$
1617711
Actelion Java MolfileCreator 1.0

 52 56  0  0  0  0  0  0  0  0999 V2000
    0.0000   -0.0000   -0.0000 S   0  0  0  0  0  0  0  0  0  0  0  0
   -1.3827   -0.5791   -0.0000 C   0  0  0  0  0  0  0  0  0  0  0  0
    0.9809   -1.1109   -0.0000 C   0  0  0  0  0  0  0  0  0  0  0  0
   -1.2527   -2.0563   -0.0000 C   0  0  0  0  0  0  0  0  0  0  0  0
   -2.6827    0.1891   -0.0000 C   0  0  0  0  0  0  0  0  0  0  0  0
    0.2127   -2.3872   -0.0000 N   0  0  0  0  0  0  0  0  0  0  0  0
   -3.9945   -0.5318   -0.0000 O   0  0  0  0  0  0  0  0  0  0  0  0
   -5.3063    0.2364   -0.0000 C   0  0  0  0  0  0  0  0  0  0  0  0
   -5.3063    1.7491   -0.0000 O   0  0  0  0  0  0  0  0  0  0  0  0
   -6.6299   -0.4845   -0.0000 N   0  0  0  0  0  0  0  0  0  0  0  0
   -6.6417   -1.9736   -0.0000 C   0  0  0  0  0  0  0  0  0  0  0  0
   -7.9417    0.2482   -0.0000 C   0  0  0  0  0  0  0  0  0  0  0  0
   -5.3536   -2.7181   -0.0000 C   0  0  0  0  0  0  0  0  0  0  0  0
   -9.2417   -0.5082   -0.0000 C   0  0  0  0  0  0  0  0  0  0  0  0
   -5.3772   -4.1954   -0.0000 C   0  0  0  0  0  0  0  0  0  0  0  0
   -4.0772   -1.9500   -0.0000 C   0  0  0  0  0  0  0  0  0  0  0  0
  -10.5535    0.2245   -0.0000 N   0  0  0  0  0  0  0  0  0  0  0  0
   -9.2299   -1.9972   -0.0000 C   0  0  0  0  0  0  0  0  0  0  0  0
   -4.0890   -4.9281   -0.0000 C   0  0  0  0  0  0  0  0  0  0  0  0
   -2.7891   -2.6827   -0.0000 C   0  0  0  0  0  0  0  0  0  0  0  0
  -11.8535   -0.5318   -0.0000 C   0  0  0  0  0  0  0  0  0  0  0  0
  -10.3053   -3.0372   -0.0000 C   0  0  0  0  0  0  0  0  0  0  0  0
   -2.8009   -4.1718   -0.0000 C   0  0  0  0  0  0  0  0  0  0  0  0
  -11.8417   -2.0209   -0.0000 O   0  0  0  0  0  0  0  0  0  0  0  0
  -13.1653    0.2009   -0.0000 C   0  0  0  0  0  0  0  0  0  0  0  0
  -11.7708   -2.6236   -0.0000 C   0  0  0  0  0  0  0  0  0  0  0  0
   -9.9390   -4.4790   -0.0000 C   0  0  0  0  0  0  0  0  0  0  0  0
  -14.4653   -0.5554   -0.0000 N   0  0  0  0  0  0  0  0  0  0  0  0
  -13.2007    1.7136   -0.0000 C   0  0  0  0  0  0  0  0  0  0  0  0
  -12.8580   -3.6636   -0.0000 C   0  0  0  0  0  0  0  0  0  0  0  0
  -11.0262   -5.5190   -0.0000 C   0  0  0  0  0  0  0  0  0  0  0  0
  -15.8243    0.1064   -0.0000 C   0  0  0  0  0  0  0  0  0  0  0  0
  -11.9244    2.4936   -0.0000 C   0  0  0  0  0  0  0  0  0  0  0  0
  -12.4917   -5.1054   -0.0000 C   0  0  0  0  0  0  0  0  0  0  0  0
  -15.8362    1.6191   -0.0000 O   0  0  0  0  0  0  0  0  0  0  0  0
  -17.0770   -0.7091   -0.0000 N   0  0  0  0  0  0  0  0  0  0  0  0
  -11.9598    4.0063   -0.0000 N   0  0  0  0  0  0  0  0  0  0  0  0
  -18.4361   -0.0355   -0.0000 C   0  0  0  0  0  0  0  0  0  0  0  0
  -17.0770   -2.1982   -0.0000 C   0  0  0  0  0  0  0  0  0  0  0  0
  -10.6953    4.7745   -0.0000 C   0  0  0  0  0  0  0  0  0  0  0  0
  -13.2835    4.7390   -0.0000 C   0  0  0  0  0  0  0  0  0  0  0  0
  -19.6888   -0.8627   -0.0000 C   0  0  0  0  0  0  0  0  0  0  0  0
  -10.7308    6.2754   -0.0000 C   0  0  0  0  0  0  0  0  0  0  0  0
  -13.3071    6.2517   -0.0000 C   0  0  0  0  0  0  0  0  0  0  0  0
  -21.1070   -0.3309   -0.0000 N   0  0  0  0  0  0  0  0  0  0  0  0
  -19.7597   -2.3518   -0.0000 C   0  0  0  0  0  0  0  0  0  0  0  0
  -12.0426    7.0317   -0.0000 O   0  0  0  0  0  0  0  0  0  0  0  0
  -22.0288   -1.5009   -0.0000 C   0  0  0  0  0  0  0  0  0  0  0  0
  -21.2134   -2.7536   -0.0000 S   0  0  0  0  0  0  0  0  0  0  0  0
  -23.5415   -1.4418   -0.0000 C   0  0  0  0  0  0  0  0  0  0  0  0
  -24.2624   -0.1064   -0.0000 C   0  0  0  0  0  0  0  0  0  0  0  0
  -24.3451   -2.7063   -0.0000 C   0  0  0  0  0  0  0  0  0  0  0  0
  1  2  1  0  0  0  0
  1  3  1  0  0  0  0
  2  4  2  0  0  0  0
  2  5  1  0  0  0  0
  3  6  2  0  0  0  0
  5  7  1  0  0  0  0
  7  8  1  0  0  0  0
  8  9  2  0  0  0  0
  8 10  1  0  0  0  0
 10 11  1  0  0  0  0
 10 12  1  0  0  0  0
 11 13  1  0  0  0  0
 12 14  1  0  0  0  0
 13 15  2  0  0  0  0
 13 16  1  0  0  0  0
 14 17  1  0  0  0  0
 14 18  1  0  0  0  0
 15 19  1  0  0  0  0
 16 20  2  0  0  0  0
 17 21  1  0  0  0  0
 18 22  1  0  0  0  0
 19 23  2  0  0  0  0
 21 24  2  0  0  0  0
 21 25  1  0  0  0  0
 22 26  2  0  0  0  0
 22 27  1  0  0  0  0
 25 28  1  1  0  0  0
 25 29  1  0  0  0  0
 26 30  1  0  0  0  0
 27 31  2  0  0  0  0
 28 32  1  0  0  0  0
 29 33  1  0  0  0  0
 30 34  2  0  0  0  0
 32 35  2  0  0  0  0
 32 36  1  0  0  0  0
 33 37  1  0  0  0  0
 36 38  1  0  0  0  0
 36 39  1  0  0  0  0
 37 40  1  0  0  0  0
 37 41  1  0  0  0  0
 38 42  1  0  0  0  0
 40 43  1  0  0  0  0
 41 44  1  0  0  0  0
 42 45  1  0  0  0  0
 42 46  2  0  0  0  0
 43 47  1  0  0  0  0
 45 48  2  0  0  0  0
 46 49  1  0  0  0  0
 48 50  1  0  0  0  0
 50 51  1  0  0  0  0
 50 52  1  0  0  0  0
  4  6  1  0  0  0  0
 20 23  1  0  0  0  0
 31 34  1  0  0  0  0
 44 47  1  0  0  0  0
 48 49  1  0  0  0  0
M  END
>  <MolRegNo>
1617711

>  <m>
=

>  <Value>
500

>  <Unit>
nM

>  <Type>
IC50

>  <pValue>
6.3

>  <Ligand Efficiency>
0

>  <Binding Efficiency>
0

>  <Surface Efficiency>
0

>  <Assay Index>
824434

>  <Assay Category>


>  <Assay Organism>
Homo sapiens

>  <Target ID>
17045

>  <Target Name>
Cytochrome P450 3A4

>  <Target Organism>
Homo sapiens

>  <Target Description>
Target is a single protein chain

>  <Sequence Accession>
P08684

>  <Reference>
Bioorg Med Chem Lett 24 (3), 989-994 (2014)

>  <Pubmed ID>
24411125

>  <DOI>
10.1016/j.bmcl.2013.12.058

$$$$
1617710
Actelion Java MolfileCreator 1.0

 47 50  0  0  0  0  0  0  0  0999 V2000
    0.0000   -0.0000   -0.0000 S   0  0  0  0  0  0  0  0  0  0  0  0
   -1.3809   -0.5901   -0.0000 C   0  0  0  0  0  0  0  0  0  0  0  0
    0.9796   -1.1095   -0.0000 C   0  0  0  0  0  0  0  0  0  0  0  0
   -1.2511   -2.0655   -0.0000 C   0  0  0  0  0  0  0  0  0  0  0  0
   -2.6793    0.1770   -0.0000 C   0  0  0  0  0  0  0  0  0  0  0  0
    0.2125   -2.3842   -0.0000 N   0  0  0  0  0  0  0  0  0  0  0  0
   -3.9894   -0.5429   -0.0000 O   0  0  0  0  0  0  0  0  0  0  0  0
   -5.2877    0.2243   -0.0000 C   0  0  0  0  0  0  0  0  0  0  0  0
   -5.2877    1.7350   -0.0000 O   0  0  0  0  0  0  0  0  0  0  0  0
   -6.6096   -0.4957   -0.0000 N   0  0  0  0  0  0  0  0  0  0  0  0
   -7.9316    0.2479   -0.0000 C   0  0  0  0  0  0  0  0  0  0  0  0
   -9.2299   -0.5075   -0.0000 C   0  0  0  0  0  0  0  0  0  0  0  0
   -7.9670    1.7586   -0.0000 C   0  0  0  0  0  0  0  0  0  0  0  0
  -10.5518    0.2361   -0.0000 N   0  0  0  0  0  0  0  0  0  0  0  0
   -9.2181   -1.9947   -0.0000 C   0  0  0  0  0  0  0  0  0  0  0  0
   -6.9283    2.8327   -0.0000 C   0  0  0  0  0  0  0  0  0  0  0  0
  -11.8501   -0.5193   -0.0000 C   0  0  0  0  0  0  0  0  0  0  0  0
   -7.9198   -2.7147   -0.0000 C   0  0  0  0  0  0  0  0  0  0  0  0
   -5.4884    2.4668   -0.0000 C   0  0  0  0  0  0  0  0  0  0  0  0
   -7.3414    4.2845   -0.0000 C   0  0  0  0  0  0  0  0  0  0  0  0
  -11.8383   -2.0065   -0.0000 O   0  0  0  0  0  0  0  0  0  0  0  0
  -13.1720    0.2243   -0.0000 C   0  0  0  0  0  0  0  0  0  0  0  0
   -7.9079   -4.2018   -0.0000 C   0  0  0  0  0  0  0  0  0  0  0  0
   -6.6568   -1.9357   -0.0000 C   0  0  0  0  0  0  0  0  0  0  0  0
   -4.4497    3.5409   -0.0000 C   0  0  0  0  0  0  0  0  0  0  0  0
   -6.3028    5.3703   -0.0000 C   0  0  0  0  0  0  0  0  0  0  0  0
  -14.4704   -0.5311   -0.0000 N   0  0  0  0  0  0  0  0  0  0  0  0
  -13.2075    1.7350   -0.0000 C   0  0  0  0  0  0  0  0  0  0  0  0
   -6.6096   -4.9218   -0.0000 C   0  0  0  0  0  0  0  0  0  0  0  0
   -5.3585   -2.6439   -0.0000 C   0  0  0  0  0  0  0  0  0  0  0  0
   -4.8628    5.0044   -0.0000 C   0  0  0  0  0  0  0  0  0  0  0  0
  -15.8277    0.1416   -0.0000 C   0  0  0  0  0  0  0  0  0  0  0  0
  -11.9327    2.5140   -0.0000 C   0  0  0  0  0  0  0  0  0  0  0  0
  -14.5294    2.4786   -0.0000 C   0  0  0  0  0  0  0  0  0  0  0  0
   -5.3349   -4.1428   -0.0000 C   0  0  0  0  0  0  0  0  0  0  0  0
  -15.8395    1.6524   -0.0000 O   0  0  0  0  0  0  0  0  0  0  0  0
  -17.0788   -0.6846   -0.0000 N   0  0  0  0  0  0  0  0  0  0  0  0
  -18.4361   -0.0118   -0.0000 C   0  0  0  0  0  0  0  0  0  0  0  0
  -17.0788   -2.1717   -0.0000 C   0  0  0  0  0  0  0  0  0  0  0  0
  -19.6873   -0.8380   -0.0000 C   0  0  0  0  0  0  0  0  0  0  0  0
  -21.1154   -0.3187   -0.0000 N   0  0  0  0  0  0  0  0  0  0  0  0
  -19.7581   -2.3252   -0.0000 C   0  0  0  0  0  0  0  0  0  0  0  0
  -22.0478   -1.4872   -0.0000 C   0  0  0  0  0  0  0  0  0  0  0  0
  -21.2098   -2.7265   -0.0000 S   0  0  0  0  0  0  0  0  0  0  0  0
  -23.5586   -1.4282   -0.0000 C   0  0  0  0  0  0  0  0  0  0  0  0
  -24.2786   -0.0944   -0.0000 C   0  0  0  0  0  0  0  0  0  0  0  0
  -24.3612   -2.6911   -0.0000 C   0  0  0  0  0  0  0  0  0  0  0  0
  1  2  1  0  0  0  0
  1  3  1  0  0  0  0
  2  4  2  0  0  0  0
  2  5  1  0  0  0  0
  3  6  2  0  0  0  0
  5  7  1  0  0  0  0
  7  8  1  0  0  0  0
  8  9  2  0  0  0  0
  8 10  1  0  0  0  0
 11 10  1  6  0  0  0
 11 12  1  0  0  0  0
 11 13  1  0  0  0  0
 12 14  1  6  0  0  0
 12 15  1  0  0  0  0
 13 16  1  0  0  0  0
 14 17  1  0  0  0  0
 15 18  1  0  0  0  0
 16 19  2  0  0  0  0
 16 20  1  0  0  0  0
 17 21  2  0  0  0  0
 17 22  1  0  0  0  0
 18 23  2  0  0  0  0
 18 24  1  0  0  0  0
 19 25  1  0  0  0  0
 20 26  2  0  0  0  0
 22 27  1  1  0  0  0
 22 28  1  0  0  0  0
 23 29  1  0  0  0  0
 24 30  2  0  0  0  0
 25 31  2  0  0  0  0
 27 32  1  0  0  0  0
 28 33  1  0  0  0  0
 28 34  1  0  0  0  0
 29 35  2  0  0  0  0
 32 36  2  0  0  0  0
 32 37  1  0  0  0  0
 37 38  1  0  0  0  0
 37 39  1  0  0  0  0
 38 40  1  0  0  0  0
 40 41  1  0  0  0  0
 40 42  2  0  0  0  0
 41 43  2  0  0  0  0
 42 44  1  0  0  0  0
 43 45  1  0  0  0  0
 45 46  1  0  0  0  0
 45 47  1  0  0  0  0
  4  6  1  0  0  0  0
 26 31  1  0  0  0  0
 30 35  1  0  0  0  0
 43 44  1  0  0  0  0
M  END
>  <MolRegNo>
1617710

>  <m>
=

>  <Value>
220

>  <Unit>
nM

>  <Type>
IC50

>  <pValue>
6.66

>  <Ligand Efficiency>
0

>  <Binding Efficiency>
0

>  <Surface Efficiency>
0

>  <Assay Index>
824434

>  <Assay Category>


>  <Assay Organism>
Homo sapiens

>  <Target ID>
17045

>  <Target Name>
Cytochrome P450 3A4

>  <Target Organism>
Homo sapiens

>  <Target Description>
Target is a single protein chain

>  <Sequence Accession>
P08684

>  <Reference>
Bioorg Med Chem Lett 24 (3), 989-994 (2014)

>  <Pubmed ID>
24411125

>  <DOI>
10.1016/j.bmcl.2013.12.058

$$$$
1617709
Actelion Java MolfileCreator 1.0

 35 37  0  0  0  0  0  0  0  0999 V2000
    0.0000   -0.0000   -0.0000 S   0  0  0  0  0  0  0  0  0  0  0  0
   -1.3787   -0.5892   -0.0000 C   0  0  0  0  0  0  0  0  0  0  0  0
    0.9780   -1.1076   -0.0000 C   0  0  0  0  0  0  0  0  0  0  0  0
   -1.2490   -2.0621   -0.0000 C   0  0  0  0  0  0  0  0  0  0  0  0
   -2.6748    0.1768   -0.0000 C   0  0  0  0  0  0  0  0  0  0  0  0
    0.2121   -2.3803   -0.0000 N   0  0  0  0  0  0  0  0  0  0  0  0
   -3.9946   -0.5420   -0.0000 O   0  0  0  0  0  0  0  0  0  0  0  0
   -5.2908    0.2239   -0.0000 C   0  0  0  0  0  0  0  0  0  0  0  0
   -5.2908    1.7322   -0.0000 O   0  0  0  0  0  0  0  0  0  0  0  0
   -6.6105   -0.4949   -0.0000 N   0  0  0  0  0  0  0  0  0  0  0  0
   -6.6105   -1.9796   -0.0000 C   0  0  0  0  0  0  0  0  0  0  0  0
   -7.9302    0.2475   -0.0000 C   0  0  0  0  0  0  0  0  0  0  0  0
   -7.9067   -2.7338   -0.0000 C   0  0  0  0  0  0  0  0  0  0  0  0
   -9.2382   -0.5067   -0.0000 C   0  0  0  0  0  0  0  0  0  0  0  0
   -9.2146   -1.9796   -0.0000 N   0  0  0  0  0  0  0  0  0  0  0  0
  -10.5108   -2.7338   -0.0000 C   0  0  0  0  0  0  0  0  0  0  0  0
  -10.4990   -4.2185   -0.0000 O   0  0  0  0  0  0  0  0  0  0  0  0
  -11.8306   -1.9914   -0.0000 C   0  0  0  0  0  0  0  0  0  0  0  0
  -13.1267   -2.7455   -0.0000 N   0  0  0  0  0  0  0  0  0  0  0  0
  -11.8659   -0.4831   -0.0000 C   0  0  0  0  0  0  0  0  0  0  0  0
  -14.4818   -2.0739   -0.0000 C   0  0  0  0  0  0  0  0  0  0  0  0
  -10.5933    0.2946   -0.0000 C   0  0  0  0  0  0  0  0  0  0  0  0
  -13.1856    0.2592   -0.0000 C   0  0  0  0  0  0  0  0  0  0  0  0
  -14.4936   -0.5656   -0.0000 O   0  0  0  0  0  0  0  0  0  0  0  0
  -15.7309   -2.8987   -0.0000 N   0  0  0  0  0  0  0  0  0  0  0  0
  -17.0860   -2.2271   -0.0000 C   0  0  0  0  0  0  0  0  0  0  0  0
  -15.7309   -4.3834   -0.0000 C   0  0  0  0  0  0  0  0  0  0  0  0
  -18.3350   -3.0519   -0.0000 C   0  0  0  0  0  0  0  0  0  0  0  0
  -19.7608   -2.5217   -0.0000 N   0  0  0  0  0  0  0  0  0  0  0  0
  -18.4057   -4.5366   -0.0000 C   0  0  0  0  0  0  0  0  0  0  0  0
  -20.6917   -3.6882   -0.0000 C   0  0  0  0  0  0  0  0  0  0  0  0
  -19.8551   -4.9373   -0.0000 S   0  0  0  0  0  0  0  0  0  0  0  0
  -22.2000   -3.6293   -0.0000 C   0  0  0  0  0  0  0  0  0  0  0  0
  -22.9188   -2.2978   -0.0000 C   0  0  0  0  0  0  0  0  0  0  0  0
  -23.0012   -4.8901   -0.0000 C   0  0  0  0  0  0  0  0  0  0  0  0
  1  2  1  0  0  0  0
  1  3  1  0  0  0  0
  2  4  2  0  0  0  0
  2  5  1  0  0  0  0
  3  6  2  0  0  0  0
  5  7  1  0  0  0  0
  7  8  1  0  0  0  0
  8  9  2  0  0  0  0
  8 10  1  0  0  0  0
 10 11  1  0  0  0  0
 10 12  1  0  0  0  0
 11 13  1  0  0  0  0
 12 14  1  0  0  0  0
 13 15  1  0  0  0  0
 15 16  1  0  0  0  0
 16 17  2  0  0  0  0
 16 18  1  0  0  0  0
 18 19  1  1  0  0  0
 18 20  1  0  0  0  0
 19 21  1  0  0  0  0
 20 22  1  0  0  0  0
 20 23  1  0  0  0  0
 21 24  2  0  0  0  0
 21 25  1  0  0  0  0
 25 26  1  0  0  0  0
 25 27  1  0  0  0  0
 26 28  1  0  0  0  0
 28 29  1  0  0  0  0
 28 30  2  0  0  0  0
 29 31  2  0  0  0  0
 30 32  1  0  0  0  0
 31 33  1  0  0  0  0
 33 34  1  0  0  0  0
 33 35  1  0  0  0  0
  4  6  1  0  0  0  0
 14 15  1  0  0  0  0
 31 32  1  0  0  0  0
M  END
>  <MolRegNo>
1617709

>  <m>
=

>  <Value>
1400

>  <Unit>
nM

>  <Type>
IC50

>  <pValue>
5.85

>  <Ligand Efficiency>
0

>  <Binding Efficiency>
0

>  <Surface Efficiency>
0

>  <Assay Index>
824434

>  <Assay Category>


>  <Assay Organism>
Homo sapiens

>  <Target ID>
17045

>  <Target Name>
Cytochrome P450 3A4

>  <Target Organism>
Homo sapiens

>  <Target Description>
Target is a single protein chain

>  <Sequence Accession>
P08684

>  <Reference>
Bioorg Med Chem Lett 24 (3), 989-994 (2014)

>  <Pubmed ID>
24411125

>  <DOI>
10.1016/j.bmcl.2013.12.058

$$$$
1617708
Actelion Java MolfileCreator 1.0

 33 34  0  0  0  0  0  0  0  0999 V2000
    0.0000   -0.0000   -0.0000 S   0  0  0  0  0  0  0  0  0  0  0  0
   -1.3773   -0.5886   -0.0000 C   0  0  0  0  0  0  0  0  0  0  0  0
    0.9771   -1.1066   -0.0000 C   0  0  0  0  0  0  0  0  0  0  0  0
   -1.2479   -2.0601   -0.0000 C   0  0  0  0  0  0  0  0  0  0  0  0
   -2.6723    0.1884   -0.0000 C   0  0  0  0  0  0  0  0  0  0  0  0
    0.2001   -2.3780   -0.0000 N   0  0  0  0  0  0  0  0  0  0  0  0
   -3.9908   -0.5297   -0.0000 O   0  0  0  0  0  0  0  0  0  0  0  0
   -5.2857    0.2472   -0.0000 C   0  0  0  0  0  0  0  0  0  0  0  0
   -5.2857    1.7541   -0.0000 O   0  0  0  0  0  0  0  0  0  0  0  0
   -6.6042   -0.4709   -0.0000 N   0  0  0  0  0  0  0  0  0  0  0  0
   -7.8991    0.3061   -0.0000 C   0  0  0  0  0  0  0  0  0  0  0  0
   -9.2176   -0.4120   -0.0000 C   0  0  0  0  0  0  0  0  0  0  0  0
  -10.5479    0.3178   -0.0000 N   0  0  0  0  0  0  0  0  0  0  0  0
  -11.8428   -0.4356   -0.0000 C   0  0  0  0  0  0  0  0  0  0  0  0
  -11.8311   -1.9189   -0.0000 O   0  0  0  0  0  0  0  0  0  0  0  0
  -13.1613    0.3061   -0.0000 C   0  0  0  0  0  0  0  0  0  0  0  0
  -14.4563   -0.4473   -0.0000 N   0  0  0  0  0  0  0  0  0  0  0  0
  -13.1966    1.8129   -0.0000 C   0  0  0  0  0  0  0  0  0  0  0  0
  -15.8101    0.2237   -0.0000 C   0  0  0  0  0  0  0  0  0  0  0  0
  -11.9252    2.5899   -0.0000 C   0  0  0  0  0  0  0  0  0  0  0  0
  -14.5151    2.5546   -0.0000 C   0  0  0  0  0  0  0  0  0  0  0  0
  -15.8218    1.7305   -0.0000 O   0  0  0  0  0  0  0  0  0  0  0  0
  -17.0579   -0.6004   -0.0000 N   0  0  0  0  0  0  0  0  0  0  0  0
  -18.4117    0.0706   -0.0000 C   0  0  0  0  0  0  0  0  0  0  0  0
  -17.0579   -2.0837   -0.0000 C   0  0  0  0  0  0  0  0  0  0  0  0
  -19.6596   -0.7534   -0.0000 C   0  0  0  0  0  0  0  0  0  0  0  0
  -21.0840   -0.2237   -0.0000 N   0  0  0  0  0  0  0  0  0  0  0  0
  -19.7302   -2.2367   -0.0000 C   0  0  0  0  0  0  0  0  0  0  0  0
  -22.0140   -1.3891   -0.0000 C   0  0  0  0  0  0  0  0  0  0  0  0
  -21.1782   -2.6370   -0.0000 S   0  0  0  0  0  0  0  0  0  0  0  0
  -23.5209   -1.3303   -0.0000 C   0  0  0  0  0  0  0  0  0  0  0  0
  -24.2390   -0.0000   -0.0000 C   0  0  0  0  0  0  0  0  0  0  0  0
  -24.3214   -2.5899   -0.0000 C   0  0  0  0  0  0  0  0  0  0  0  0
  1  2  1  0  0  0  0
  1  3  1  0  0  0  0
  2  4  2  0  0  0  0
  2  5  1  0  0  0  0
  3  6  2  0  0  0  0
  5  7  1  0  0  0  0
  7  8  1  0  0  0  0
  8  9  2  0  0  0  0
  8 10  1  0  0  0  0
 10 11  1  0  0  0  0
 11 12  1  0  0  0  0
 12 13  1  0  0  0  0
 13 14  1  0  0  0  0
 14 15  2  0  0  0  0
 14 16  1  0  0  0  0
 16 17  1  1  0  0  0
 16 18  1  0  0  0  0
 17 19  1  0  0  0  0
 18 20  1  0  0  0  0
 18 21  1  0  0  0  0
 19 22  2  0  0  0  0
 19 23  1  0  0  0  0
 23 24  1  0  0  0  0
 23 25  1  0  0  0  0
 24 26  1  0  0  0  0
 26 27  1  0  0  0  0
 26 28  2  0  0  0  0
 27 29  2  0  0  0  0
 28 30  1  0  0  0  0
 29 31  1  0  0  0  0
 31 32  1  0  0  0  0
 31 33  1  0  0  0  0
  4  6  1  0  0  0  0
 29 30  1  0  0  0  0
M  END
>  <MolRegNo>
1617708

>  <m>
=

>  <Value>
1100

>  <Unit>
nM

>  <Type>
IC50

>  <pValue>
5.96

>  <Ligand Efficiency>
0

>  <Binding Efficiency>
0

>  <Surface Efficiency>
0

>  <Assay Index>
824434

>  <Assay Category>


>  <Assay Organism>
Homo sapiens

>  <Target ID>
17045

>  <Target Name>
Cytochrome P450 3A4

>  <Target Organism>
Homo sapiens

>  <Target Description>
Target is a single protein chain

>  <Sequence Accession>
P08684

>  <Reference>
Bioorg Med Chem Lett 24 (3), 989-994 (2014)

>  <Pubmed ID>
24411125

>  <DOI>
10.1016/j.bmcl.2013.12.058

$$$$
1617707
Actelion Java MolfileCreator 1.0

 50 53  0  0  0  0  0  0  0  0999 V2000
    0.0000   -0.0000   -0.0000 S   0  0  0  0  0  0  0  0  0  0  0  0
   -1.3798    0.6132   -0.0000 C   0  0  0  0  0  0  0  0  0  0  0  0
    0.9788    1.1321   -0.0000 C   0  0  0  0  0  0  0  0  0  0  0  0
   -1.2501    2.1110   -0.0000 C   0  0  0  0  0  0  0  0  0  0  0  0
   -2.6770   -0.1297   -0.0000 C   0  0  0  0  0  0  0  0  0  0  0  0
    0.2123    2.4294   -0.0000 N   0  0  0  0  0  0  0  0  0  0  0  0
   -3.9860    0.6132   -0.0000 O   0  0  0  0  0  0  0  0  0  0  0  0
   -5.2833   -0.1297   -0.0000 C   0  0  0  0  0  0  0  0  0  0  0  0
   -5.2833   -1.6156   -0.0000 O   0  0  0  0  0  0  0  0  0  0  0  0
   -6.6041    0.6132   -0.0000 N   0  0  0  0  0  0  0  0  0  0  0  0
   -7.9013   -0.1415   -0.0000 C   0  0  0  0  0  0  0  0  0  0  0  0
   -7.8895   -1.6274   -0.0000 C   0  0  0  0  0  0  0  0  0  0  0  0
   -9.2222    0.6014   -0.0000 C   0  0  0  0  0  0  0  0  0  0  0  0
   -9.1868   -2.3822   -0.0000 C   0  0  0  0  0  0  0  0  0  0  0  0
  -10.5194   -0.1533   -0.0000 C   0  0  0  0  0  0  0  0  0  0  0  0
  -10.4958   -1.6392   -0.0000 C   0  0  0  0  0  0  0  0  0  0  0  0
   -9.1750   -3.8563   -0.0000 C   0  0  0  0  0  0  0  0  0  0  0  0
  -11.8402    0.5897   -0.0000 N   0  0  0  0  0  0  0  0  0  0  0  0
  -11.7930   -2.3940   -0.0000 C   0  0  0  0  0  0  0  0  0  0  0  0
  -10.4604   -4.6111   -0.0000 C   0  0  0  0  0  0  0  0  0  0  0  0
  -13.1374   -0.1651   -0.0000 C   0  0  0  0  0  0  0  0  0  0  0  0
  -11.8756    2.0992   -0.0000 C   0  0  0  0  0  0  0  0  0  0  0  0
  -11.7812   -3.8799   -0.0000 C   0  0  0  0  0  0  0  0  0  0  0  0
  -13.1257   -1.6510   -0.0000 O   0  0  0  0  0  0  0  0  0  0  0  0
  -14.4583    0.5779   -0.0000 C   0  0  0  0  0  0  0  0  0  0  0  0
  -10.6019    2.8775   -0.0000 C   0  0  0  0  0  0  0  0  0  0  0  0
  -15.7555   -0.1769   -0.0000 N   0  0  0  0  0  0  0  0  0  0  0  0
  -14.4936    2.0874   -0.0000 C   0  0  0  0  0  0  0  0  0  0  0  0
  -10.6373    4.3870   -0.0000 C   0  0  0  0  0  0  0  0  0  0  0  0
   -9.3047    2.1581   -0.0000 C   0  0  0  0  0  0  0  0  0  0  0  0
  -17.1117    0.4953   -0.0000 C   0  0  0  0  0  0  0  0  0  0  0  0
  -13.2200    2.8657   -0.0000 C   0  0  0  0  0  0  0  0  0  0  0  0
  -17.1235    2.0048   -0.0000 O   0  0  0  0  0  0  0  0  0  0  0  0
  -18.3618   -0.3302   -0.0000 N   0  0  0  0  0  0  0  0  0  0  0  0
  -13.2554    4.3752   -0.0000 N   0  0  0  0  0  0  0  0  0  0  0  0
  -19.7180    0.3420   -0.0000 C   0  0  0  0  0  0  0  0  0  0  0  0
  -18.3618   -1.8161   -0.0000 C   0  0  0  0  0  0  0  0  0  0  0  0
  -11.9817    5.1418   -0.0000 C   0  0  0  0  0  0  0  0  0  0  0  0
  -14.5762    5.0946   -0.0000 C   0  0  0  0  0  0  0  0  0  0  0  0
  -20.9680   -0.4835   -0.0000 C   0  0  0  0  0  0  0  0  0  0  0  0
  -12.0171    6.6395   -0.0000 C   0  0  0  0  0  0  0  0  0  0  0  0
  -14.5998    6.6041   -0.0000 C   0  0  0  0  0  0  0  0  0  0  0  0
  -22.3832    0.0354   -0.0000 N   0  0  0  0  0  0  0  0  0  0  0  0
  -21.0388   -1.9694   -0.0000 C   0  0  0  0  0  0  0  0  0  0  0  0
  -13.3261    7.3824   -0.0000 O   0  0  0  0  0  0  0  0  0  0  0  0
  -23.3031   -1.1321   -0.0000 C   0  0  0  0  0  0  0  0  0  0  0  0
  -22.4893   -2.3704   -0.0000 S   0  0  0  0  0  0  0  0  0  0  0  0
  -24.8126   -1.0732   -0.0000 C   0  0  0  0  0  0  0  0  0  0  0  0
  -25.5319    0.2594   -0.0000 C   0  0  0  0  0  0  0  0  0  0  0  0
  -25.6145   -2.3232   -0.0000 C   0  0  0  0  0  0  0  0  0  0  0  0
  1  2  1  0  0  0  0
  1  3  1  0  0  0  0
  2  4  2  0  0  0  0
  2  5  1  0  0  0  0
  3  6  2  0  0  0  0
  5  7  1  0  0  0  0
  7  8  1  0  0  0  0
  8  9  2  0  0  0  0
  8 10  1  0  0  0  0
 11 10  1  1  0  0  0
 11 12  1  0  0  0  0
 11 13  1  0  0  0  0
 12 14  1  0  0  0  0
 13 15  1  0  0  0  0
 14 16  2  0  0  0  0
 14 17  1  0  0  0  0
 15 18  1  0  0  0  0
 16 19  1  0  0  0  0
 17 20  2  0  0  0  0
 18 21  1  0  0  0  0
 18 22  1  0  0  0  0
 19 23  2  0  0  0  0
 21 24  2  0  0  0  0
 21 25  1  0  0  0  0
 22 26  1  0  0  0  0
 25 27  1  1  0  0  0
 25 28  1  0  0  0  0
 26 29  1  0  0  0  0
 26 30  1  0  0  0  0
 27 31  1  0  0  0  0
 28 32  1  0  0  0  0
 31 33  2  0  0  0  0
 31 34  1  0  0  0  0
 32 35  1  0  0  0  0
 34 36  1  0  0  0  0
 34 37  1  0  0  0  0
 35 38  1  0  0  0  0
 35 39  1  0  0  0  0
 36 40  1  0  0  0  0
 38 41  1  0  0  0  0
 39 42  1  0  0  0  0
 40 43  1  0  0  0  0
 40 44  2  0  0  0  0
 41 45  1  0  0  0  0
 43 46  2  0  0  0  0
 44 47  1  0  0  0  0
 46 48  1  0  0  0  0
 48 49  1  0  0  0  0
 48 50  1  0  0  0  0
  4  6  1  0  0  0  0
 20 23  1  0  0  0  0
 42 45  1  0  0  0  0
 46 47  1  0  0  0  0
M  END
>  <MolRegNo>
1617707

>  <m>
=

>  <Value>
270

>  <Unit>
nM

>  <Type>
IC50

>  <pValue>
6.57

>  <Ligand Efficiency>
0

>  <Binding Efficiency>
0

>  <Surface Efficiency>
0

>  <Assay Index>
824434

>  <Assay Category>


>  <Assay Organism>
Homo sapiens

>  <Target ID>
17045

>  <Target Name>
Cytochrome P450 3A4

>  <Target Organism>
Homo sapiens

>  <Target Description>
Target is a single protein chain

>  <Sequence Accession>
P08684

>  <Reference>
Bioorg Med Chem Lett 24 (3), 989-994 (2014)

>  <Pubmed ID>
24411125

>  <DOI>
10.1016/j.bmcl.2013.12.058

$$$$
1617706
Actelion Java MolfileCreator 1.0

 50 53  0  0  0  0  0  0  0  0999 V2000
    0.0000   -0.0000   -0.0000 S   0  0  0  0  0  0  0  0  0  0  0  0
   -1.3816    0.6141   -0.0000 C   0  0  0  0  0  0  0  0  0  0  0  0
    0.9801    1.1336   -0.0000 C   0  0  0  0  0  0  0  0  0  0  0  0
   -1.2517    2.1138   -0.0000 C   0  0  0  0  0  0  0  0  0  0  0  0
   -2.6806   -0.1299   -0.0000 C   0  0  0  0  0  0  0  0  0  0  0  0
    0.2126    2.4326   -0.0000 N   0  0  0  0  0  0  0  0  0  0  0  0
   -3.9914    0.6141   -0.0000 O   0  0  0  0  0  0  0  0  0  0  0  0
   -5.2903   -0.1299   -0.0000 C   0  0  0  0  0  0  0  0  0  0  0  0
   -5.2903   -1.6178   -0.0000 O   0  0  0  0  0  0  0  0  0  0  0  0
   -6.6129    0.6141   -0.0000 N   0  0  0  0  0  0  0  0  0  0  0  0
   -6.6484    2.1256   -0.0000 C   0  0  0  0  0  0  0  0  0  0  0  0
   -7.9119   -0.1417   -0.0000 C   0  0  0  0  0  0  0  0  0  0  0  0
   -5.3730    2.9050   -0.0000 C   0  0  0  0  0  0  0  0  0  0  0  0
   -9.2345    0.6022   -0.0000 C   0  0  0  0  0  0  0  0  0  0  0  0
   -4.0858    2.1846   -0.0000 C   0  0  0  0  0  0  0  0  0  0  0  0
   -5.4202    4.4047   -0.0000 C   0  0  0  0  0  0  0  0  0  0  0  0
  -10.5335   -0.1535   -0.0000 C   0  0  0  0  0  0  0  0  0  0  0  0
  -11.8560    0.5904   -0.0000 N   0  0  0  0  0  0  0  0  0  0  0  0
  -10.5216   -1.6414   -0.0000 C   0  0  0  0  0  0  0  0  0  0  0  0
  -13.1550   -0.1653   -0.0000 C   0  0  0  0  0  0  0  0  0  0  0  0
   -9.2227   -2.3618   -0.0000 C   0  0  0  0  0  0  0  0  0  0  0  0
  -13.1432   -1.6532   -0.0000 O   0  0  0  0  0  0  0  0  0  0  0  0
  -14.4776    0.5786   -0.0000 C   0  0  0  0  0  0  0  0  0  0  0  0
   -9.2227   -3.8497   -0.0000 C   0  0  0  0  0  0  0  0  0  0  0  0
   -7.9709   -1.5824   -0.0000 C   0  0  0  0  0  0  0  0  0  0  0  0
  -15.7766   -0.1771   -0.0000 N   0  0  0  0  0  0  0  0  0  0  0  0
  -14.5130    2.0902   -0.0000 C   0  0  0  0  0  0  0  0  0  0  0  0
   -7.9355   -4.5700   -0.0000 C   0  0  0  0  0  0  0  0  0  0  0  0
   -6.6720   -2.2909   -0.0000 C   0  0  0  0  0  0  0  0  0  0  0  0
  -17.1346    0.4960   -0.0000 C   0  0  0  0  0  0  0  0  0  0  0  0
  -13.2377    2.8695   -0.0000 C   0  0  0  0  0  0  0  0  0  0  0  0
   -6.6602   -3.7906   -0.0000 C   0  0  0  0  0  0  0  0  0  0  0  0
  -17.1464    2.0075   -0.0000 O   0  0  0  0  0  0  0  0  0  0  0  0
  -18.3863   -0.3306   -0.0000 N   0  0  0  0  0  0  0  0  0  0  0  0
  -13.2731    4.3811   -0.0000 N   0  0  0  0  0  0  0  0  0  0  0  0
  -19.7443    0.3425   -0.0000 C   0  0  0  0  0  0  0  0  0  0  0  0
  -18.3863   -1.8186   -0.0000 C   0  0  0  0  0  0  0  0  0  0  0  0
  -11.9977    5.1486   -0.0000 C   0  0  0  0  0  0  0  0  0  0  0  0
  -14.5957    5.1014   -0.0000 C   0  0  0  0  0  0  0  0  0  0  0  0
  -20.9961   -0.4842   -0.0000 C   0  0  0  0  0  0  0  0  0  0  0  0
  -12.0332    6.6484   -0.0000 C   0  0  0  0  0  0  0  0  0  0  0  0
  -14.6193    6.6129   -0.0000 C   0  0  0  0  0  0  0  0  0  0  0  0
  -22.4131    0.0354   -0.0000 N   0  0  0  0  0  0  0  0  0  0  0  0
  -21.0669   -1.9721   -0.0000 C   0  0  0  0  0  0  0  0  0  0  0  0
  -13.3439    7.3923   -0.0000 O   0  0  0  0  0  0  0  0  0  0  0  0
  -23.3342   -1.1336   -0.0000 C   0  0  0  0  0  0  0  0  0  0  0  0
  -22.5194   -2.3736   -0.0000 S   0  0  0  0  0  0  0  0  0  0  0  0
  -24.8457   -1.0746   -0.0000 C   0  0  0  0  0  0  0  0  0  0  0  0
  -25.5661    0.2598   -0.0000 C   0  0  0  0  0  0  0  0  0  0  0  0
  -25.6487   -2.3263   -0.0000 C   0  0  0  0  0  0  0  0  0  0  0  0
  1  2  1  0  0  0  0
  1  3  1  0  0  0  0
  2  4  2  0  0  0  0
  2  5  1  0  0  0  0
  3  6  2  0  0  0  0
  5  7  1  0  0  0  0
  7  8  1  0  0  0  0
  8  9  2  0  0  0  0
  8 10  1  0  0  0  0
 10 11  1  0  0  0  0
 10 12  1  0  0  0  0
 11 13  1  0  0  0  0
 12 14  1  0  0  0  0
 13 15  1  0  0  0  0
 13 16  1  0  0  0  0
 14 17  1  0  0  0  0
 17 18  1  6  0  0  0
 17 19  1  0  0  0  0
 18 20  1  0  0  0  0
 19 21  1  0  0  0  0
 20 22  2  0  0  0  0
 20 23  1  0  0  0  0
 21 24  2  0  0  0  0
 21 25  1  0  0  0  0
 23 26  1  1  0  0  0
 23 27  1  0  0  0  0
 24 28  1  0  0  0  0
 25 29  2  0  0  0  0
 26 30  1  0  0  0  0
 27 31  1  0  0  0  0
 28 32  2  0  0  0  0
 30 33  2  0  0  0  0
 30 34  1  0  0  0  0
 31 35  1  0  0  0  0
 34 36  1  0  0  0  0
 34 37  1  0  0  0  0
 35 38  1  0  0  0  0
 35 39  1  0  0  0  0
 36 40  1  0  0  0  0
 38 41  1  0  0  0  0
 39 42  1  0  0  0  0
 40 43  1  0  0  0  0
 40 44  2  0  0  0  0
 41 45  1  0  0  0  0
 43 46  2  0  0  0  0
 44 47  1  0  0  0  0
 46 48  1  0  0  0  0
 48 49  1  0  0  0  0
 48 50  1  0  0  0  0
  4  6  1  0  0  0  0
 29 32  1  0  0  0  0
 42 45  1  0  0  0  0
 46 47  1  0  0  0  0
M  END
>  <MolRegNo>
1617706

>  <m>
=

>  <Value>
350

>  <Unit>
nM

>  <Type>
IC50

>  <pValue>
6.46

>  <Ligand Efficiency>
0

>  <Binding Efficiency>
0

>  <Surface Efficiency>
0

>  <Assay Index>
824434

>  <Assay Category>


>  <Assay Organism>
Homo sapiens

>  <Target ID>
17045

>  <Target Name>
Cytochrome P450 3A4

>  <Target Organism>
Homo sapiens

>  <Target Description>
Target is a single protein chain

>  <Sequence Accession>
P08684

>  <Reference>
Bioorg Med Chem Lett 24 (3), 989-994 (2014)

>  <Pubmed ID>
24411125

>  <DOI>
10.1016/j.bmcl.2013.12.058

$$$$
1617705
Actelion Java MolfileCreator 1.0

 54 58  0  0  0  0  0  0  0  0999 V2000
    0.0000   -0.0000   -0.0000 Cl  0  0  0  0  0  0  0  0  0  0  0  0
    1.3027   -0.7105   -0.0000 C   0  0  0  0  0  0  0  0  0  0  0  0
    1.3263   -2.1908   -0.0000 C   0  0  0  0  0  0  0  0  0  0  0  0
    2.5698    0.0711   -0.0000 C   0  0  0  0  0  0  0  0  0  0  0  0
    2.6172   -2.9132   -0.0000 C   0  0  0  0  0  0  0  0  0  0  0  0
    0.0237   -2.9488   -0.0000 C   0  0  0  0  0  0  0  0  0  0  0  0
    3.8725   -0.6513   -0.0000 C   0  0  0  0  0  0  0  0  0  0  0  0
    3.8962   -2.1316   -0.0000 C   0  0  0  0  0  0  0  0  0  0  0  0
    0.0355   -4.4409   -0.0000 N   0  0  0  0  0  0  0  0  0  0  0  0
    1.3382   -5.1633   -0.0000 C   0  0  0  0  0  0  0  0  0  0  0  0
   -1.2671   -5.1988   -0.0000 C   0  0  0  0  0  0  0  0  0  0  0  0
    1.3382   -6.6554   -0.0000 O   0  0  0  0  0  0  0  0  0  0  0  0
    2.6172   -4.3935   -0.0000 O   0  0  0  0  0  0  0  0  0  0  0  0
   -2.5935   -4.4527   -0.0000 C   0  0  0  0  0  0  0  0  0  0  0  0
    3.9080   -5.1159   -0.0000 C   0  0  0  0  0  0  0  0  0  0  0  0
   -3.8962   -5.2107   -0.0000 C   0  0  0  0  0  0  0  0  0  0  0  0
    5.1870   -4.3462   -0.0000 C   0  0  0  0  0  0  0  0  0  0  0  0
   -5.2225   -4.4646   -0.0000 N   0  0  0  0  0  0  0  0  0  0  0  0
   -3.8843   -6.7028   -0.0000 C   0  0  0  0  0  0  0  0  0  0  0  0
    6.5489   -4.9383   -0.0000 S   0  0  0  0  0  0  0  0  0  0  0  0
    5.3172   -2.8422   -0.0000 C   0  0  0  0  0  0  0  0  0  0  0  0
   -6.5252   -5.2225   -0.0000 C   0  0  0  0  0  0  0  0  0  0  0  0
   -2.5816   -7.4252   -0.0000 C   0  0  0  0  0  0  0  0  0  0  0  0
    7.5318   -3.8014   -0.0000 C   0  0  0  0  0  0  0  0  0  0  0  0
    6.7739   -2.5106   -0.0000 N   0  0  0  0  0  0  0  0  0  0  0  0
   -6.5133   -6.7146   -0.0000 O   0  0  0  0  0  0  0  0  0  0  0  0
   -7.8515   -4.4764   -0.0000 C   0  0  0  0  0  0  0  0  0  0  0  0
   -2.5816   -8.9173   -0.0000 C   0  0  0  0  0  0  0  0  0  0  0  0
   -1.3145   -6.6436   -0.0000 C   0  0  0  0  0  0  0  0  0  0  0  0
   -9.1542   -5.2343   -0.0000 N   0  0  0  0  0  0  0  0  0  0  0  0
   -7.8870   -2.9606   -0.0000 C   0  0  0  0  0  0  0  0  0  0  0  0
   -1.2908   -9.6397   -0.0000 C   0  0  0  0  0  0  0  0  0  0  0  0
   -0.0118   -7.3541   -0.0000 C   0  0  0  0  0  0  0  0  0  0  0  0
  -10.5161   -4.5593   -0.0000 C   0  0  0  0  0  0  0  0  0  0  0  0
   -6.6081   -2.1790   -0.0000 C   0  0  0  0  0  0  0  0  0  0  0  0
   -0.0118   -8.8581   -0.0000 C   0  0  0  0  0  0  0  0  0  0  0  0
  -10.5279   -3.0435   -0.0000 O   0  0  0  0  0  0  0  0  0  0  0  0
  -11.7714   -5.3883   -0.0000 N   0  0  0  0  0  0  0  0  0  0  0  0
   -6.6436   -0.6632   -0.0000 N   0  0  0  0  0  0  0  0  0  0  0  0
  -13.1332   -4.7133   -0.0000 C   0  0  0  0  0  0  0  0  0  0  0  0
  -11.7714   -6.8804   -0.0000 C   0  0  0  0  0  0  0  0  0  0  0  0
   -5.3646    0.1066   -0.0000 C   0  0  0  0  0  0  0  0  0  0  0  0
   -7.9699    0.0592   -0.0000 C   0  0  0  0  0  0  0  0  0  0  0  0
  -14.3885   -5.5422   -0.0000 C   0  0  0  0  0  0  0  0  0  0  0  0
   -5.4001    1.6106   -0.0000 C   0  0  0  0  0  0  0  0  0  0  0  0
   -7.9936    1.5750   -0.0000 C   0  0  0  0  0  0  0  0  0  0  0  0
  -15.8096   -5.0212   -0.0000 N   0  0  0  0  0  0  0  0  0  0  0  0
  -14.4596   -7.0344   -0.0000 C   0  0  0  0  0  0  0  0  0  0  0  0
   -6.7146    2.3566   -0.0000 O   0  0  0  0  0  0  0  0  0  0  0  0
  -16.7333   -6.1936   -0.0000 C   0  0  0  0  0  0  0  0  0  0  0  0
  -15.9162   -7.4370   -0.0000 S   0  0  0  0  0  0  0  0  0  0  0  0
  -18.2492   -6.1344   -0.0000 C   0  0  0  0  0  0  0  0  0  0  0  0
  -18.9715   -4.7962   -0.0000 C   0  0  0  0  0  0  0  0  0  0  0  0
  -19.0544   -7.3897   -0.0000 C   0  0  0  0  0  0  0  0  0  0  0  0
  1  2  1  0  0  0  0
  2  3  2  0  0  0  0
  2  4  1  0  0  0  0
  3  5  1  0  0  0  0
  3  6  1  0  0  0  0
  4  7  2  0  0  0  0
  5  8  2  0  0  0  0
  6  9  1  0  0  0  0
  9 10  1  0  0  0  0
  9 11  1  0  0  0  0
 10 12  2  0  0  0  0
 10 13  1  0  0  0  0
 11 14  1  0  0  0  0
 13 15  1  0  0  0  0
 14 16  1  0  0  0  0
 15 17  1  0  0  0  0
 16 18  1  6  0  0  0
 16 19  1  0  0  0  0
 17 20  1  0  0  0  0
 17 21  2  0  0  0  0
 18 22  1  0  0  0  0
 19 23  1  0  0  0  0
 20 24  1  0  0  0  0
 21 25  1  0  0  0  0
 22 26  2  0  0  0  0
 22 27  1  0  0  0  0
 23 28  2  0  0  0  0
 23 29  1  0  0  0  0
 27 30  1  1  0  0  0
 27 31  1  0  0  0  0
 28 32  1  0  0  0  0
 29 33  2  0  0  0  0
 30 34  1  0  0  0  0
 31 35  1  0  0  0  0
 32 36  2  0  0  0  0
 34 37  2  0  0  0  0
 34 38  1  0  0  0  0
 35 39  1  0  0  0  0
 38 40  1  0  0  0  0
 38 41  1  0  0  0  0
 39 42  1  0  0  0  0
 39 43  1  0  0  0  0
 40 44  1  0  0  0  0
 42 45  1  0  0  0  0
 43 46  1  0  0  0  0
 44 47  1  0  0  0  0
 44 48  2  0  0  0  0
 45 49  1  0  0  0  0
 47 50  2  0  0  0  0
 48 51  1  0  0  0  0
 50 52  1  0  0  0  0
 52 53  1  0  0  0  0
 52 54  1  0  0  0  0
  7  8  1  0  0  0  0
 24 25  2  0  0  0  0
 33 36  1  0  0  0  0
 46 49  1  0  0  0  0
 50 51  1  0  0  0  0
M  END
>  <MolRegNo>
1617705

>  <m>
=

>  <Value>
340

>  <Unit>
nM

>  <Type>
IC50

>  <pValue>
6.47

>  <Ligand Efficiency>
0

>  <Binding Efficiency>
0

>  <Surface Efficiency>
0

>  <Assay Index>
824434

>  <Assay Category>


>  <Assay Organism>
Homo sapiens

>  <Target ID>
17045

>  <Target Name>
Cytochrome P450 3A4

>  <Target Organism>
Homo sapiens

>  <Target Description>
Target is a single protein chain

>  <Sequence Accession>
P08684

>  <Reference>
Bioorg Med Chem Lett 24 (3), 989-994 (2014)

>  <Pubmed ID>
24411125

>  <DOI>
10.1016/j.bmcl.2013.12.058

$$$$
1617704
Actelion Java MolfileCreator 1.0

 54 58  0  0  0  0  0  0  0  0999 V2000
    0.0000   -0.0000   -0.0000 Cl  0  0  0  0  0  0  0  0  0  0  0  0
   -1.3009   -0.7569   -0.0000 C   0  0  0  0  0  0  0  0  0  0  0  0
   -1.2891   -2.2470   -0.0000 C   0  0  0  0  0  0  0  0  0  0  0  0
   -2.6255   -0.0118   -0.0000 C   0  0  0  0  0  0  0  0  0  0  0  0
   -2.5900   -3.0039   -0.0000 C   0  0  0  0  0  0  0  0  0  0  0  0
   -3.9146   -0.7687   -0.0000 C   0  0  0  0  0  0  0  0  0  0  0  0
   -3.9027   -2.2589   -0.0000 C   0  0  0  0  0  0  0  0  0  0  0  0
   -5.2036   -3.0157   -0.0000 C   0  0  0  0  0  0  0  0  0  0  0  0
   -5.1918   -4.5059   -0.0000 N   0  0  0  0  0  0  0  0  0  0  0  0
   -3.8909   -5.2273   -0.0000 C   0  0  0  0  0  0  0  0  0  0  0  0
   -6.4927   -5.2628   -0.0000 C   0  0  0  0  0  0  0  0  0  0  0  0
   -3.8909   -6.7174   -0.0000 O   0  0  0  0  0  0  0  0  0  0  0  0
   -2.6136   -4.4586   -0.0000 O   0  0  0  0  0  0  0  0  0  0  0  0
   -7.8173   -4.5177   -0.0000 C   0  0  0  0  0  0  0  0  0  0  0  0
   -1.3246   -5.1800   -0.0000 C   0  0  0  0  0  0  0  0  0  0  0  0
   -9.1182   -5.2746   -0.0000 C   0  0  0  0  0  0  0  0  0  0  0  0
   -0.0473   -4.4113   -0.0000 C   0  0  0  0  0  0  0  0  0  0  0  0
  -10.4428   -4.5295   -0.0000 N   0  0  0  0  0  0  0  0  0  0  0  0
   -9.1064   -6.7647   -0.0000 C   0  0  0  0  0  0  0  0  0  0  0  0
    1.3127   -5.0026   -0.0000 S   0  0  0  0  0  0  0  0  0  0  0  0
    0.0828   -2.9093   -0.0000 C   0  0  0  0  0  0  0  0  0  0  0  0
  -11.7437   -5.2864   -0.0000 C   0  0  0  0  0  0  0  0  0  0  0  0
   -7.8055   -7.4861   -0.0000 C   0  0  0  0  0  0  0  0  0  0  0  0
    2.2943   -3.8672   -0.0000 C   0  0  0  0  0  0  0  0  0  0  0  0
    1.5374   -2.5782   -0.0000 N   0  0  0  0  0  0  0  0  0  0  0  0
  -11.7318   -6.7766   -0.0000 O   0  0  0  0  0  0  0  0  0  0  0  0
  -13.0682   -4.5414   -0.0000 C   0  0  0  0  0  0  0  0  0  0  0  0
   -7.8055   -8.9763   -0.0000 C   0  0  0  0  0  0  0  0  0  0  0  0
   -6.5519   -6.7056   -0.0000 C   0  0  0  0  0  0  0  0  0  0  0  0
  -14.3691   -5.2982   -0.0000 N   0  0  0  0  0  0  0  0  0  0  0  0
  -13.1037   -3.0276   -0.0000 C   0  0  0  0  0  0  0  0  0  0  0  0
   -6.5164   -9.6977   -0.0000 C   0  0  0  0  0  0  0  0  0  0  0  0
   -5.2509   -7.4152   -0.0000 C   0  0  0  0  0  0  0  0  0  0  0  0
  -15.7292   -4.6241   -0.0000 C   0  0  0  0  0  0  0  0  0  0  0  0
  -11.8264   -2.2470   -0.0000 C   0  0  0  0  0  0  0  0  0  0  0  0
   -5.2391   -8.9171   -0.0000 C   0  0  0  0  0  0  0  0  0  0  0  0
  -15.7410   -3.1104   -0.0000 O   0  0  0  0  0  0  0  0  0  0  0  0
  -16.9828   -5.4520   -0.0000 N   0  0  0  0  0  0  0  0  0  0  0  0
  -11.8619   -0.7332   -0.0000 N   0  0  0  0  0  0  0  0  0  0  0  0
  -18.3428   -4.7779   -0.0000 C   0  0  0  0  0  0  0  0  0  0  0  0
  -16.9828   -6.9421   -0.0000 C   0  0  0  0  0  0  0  0  0  0  0  0
  -10.5847    0.0355   -0.0000 C   0  0  0  0  0  0  0  0  0  0  0  0
  -13.1865   -0.0118   -0.0000 C   0  0  0  0  0  0  0  0  0  0  0  0
  -19.5964   -5.6057   -0.0000 C   0  0  0  0  0  0  0  0  0  0  0  0
  -10.6201    1.5374   -0.0000 C   0  0  0  0  0  0  0  0  0  0  0  0
  -13.2101    1.5020   -0.0000 C   0  0  0  0  0  0  0  0  0  0  0  0
  -21.0156   -5.0854   -0.0000 N   0  0  0  0  0  0  0  0  0  0  0  0
  -19.6674   -7.0959   -0.0000 C   0  0  0  0  0  0  0  0  0  0  0  0
  -11.9329    2.2825   -0.0000 O   0  0  0  0  0  0  0  0  0  0  0  0
  -21.9381   -6.2562   -0.0000 C   0  0  0  0  0  0  0  0  0  0  0  0
  -21.1220   -7.4980   -0.0000 S   0  0  0  0  0  0  0  0  0  0  0  0
  -23.4518   -6.1971   -0.0000 C   0  0  0  0  0  0  0  0  0  0  0  0
  -24.1733   -4.8607   -0.0000 C   0  0  0  0  0  0  0  0  0  0  0  0
  -24.2560   -7.4507   -0.0000 C   0  0  0  0  0  0  0  0  0  0  0  0
  1  2  1  0  0  0  0
  2  3  2  0  0  0  0
  2  4  1  0  0  0  0
  3  5  1  0  0  0  0
  4  6  2  0  0  0  0
  5  7  2  0  0  0  0
  7  8  1  0  0  0  0
  8  9  1  0  0  0  0
  9 10  1  0  0  0  0
  9 11  1  0  0  0  0
 10 12  2  0  0  0  0
 10 13  1  0  0  0  0
 11 14  1  0  0  0  0
 13 15  1  0  0  0  0
 14 16  1  0  0  0  0
 15 17  1  0  0  0  0
 16 18  1  6  0  0  0
 16 19  1  0  0  0  0
 17 20  1  0  0  0  0
 17 21  2  0  0  0  0
 18 22  1  0  0  0  0
 19 23  1  0  0  0  0
 20 24  1  0  0  0  0
 21 25  1  0  0  0  0
 22 26  2  0  0  0  0
 22 27  1  0  0  0  0
 23 28  2  0  0  0  0
 23 29  1  0  0  0  0
 27 30  1  1  0  0  0
 27 31  1  0  0  0  0
 28 32  1  0  0  0  0
 29 33  2  0  0  0  0
 30 34  1  0  0  0  0
 31 35  1  0  0  0  0
 32 36  2  0  0  0  0
 34 37  2  0  0  0  0
 34 38  1  0  0  0  0
 35 39  1  0  0  0  0
 38 40  1  0  0  0  0
 38 41  1  0  0  0  0
 39 42  1  0  0  0  0
 39 43  1  0  0  0  0
 40 44  1  0  0  0  0
 42 45  1  0  0  0  0
 43 46  1  0  0  0  0
 44 47  1  0  0  0  0
 44 48  2  0  0  0  0
 45 49  1  0  0  0  0
 47 50  2  0  0  0  0
 48 51  1  0  0  0  0
 50 52  1  0  0  0  0
 52 53  1  0  0  0  0
 52 54  1  0  0  0  0
  6  7  1  0  0  0  0
 24 25  2  0  0  0  0
 33 36  1  0  0  0  0
 46 49  1  0  0  0  0
 50 51  1  0  0  0  0
M  END
>  <MolRegNo>
1617704

>  <m>
=

>  <Value>
440

>  <Unit>
nM

>  <Type>
IC50

>  <pValue>
6.36

>  <Ligand Efficiency>
0

>  <Binding Efficiency>
0

>  <Surface Efficiency>
0

>  <Assay Index>
824434

>  <Assay Category>


>  <Assay Organism>
Homo sapiens

>  <Target ID>
17045

>  <Target Name>
Cytochrome P450 3A4

>  <Target Organism>
Homo sapiens

>  <Target Description>
Target is a single protein chain

>  <Sequence Accession>
P08684

>  <Reference>
Bioorg Med Chem Lett 24 (3), 989-994 (2014)

>  <Pubmed ID>
24411125

>  <DOI>
10.1016/j.bmcl.2013.12.058

$$$$
1617703
Actelion Java MolfileCreator 1.0

 53 57  0  0  0  0  0  0  0  0999 V2000
    0.0000   -0.0000   -0.0000 S   0  0  0  0  0  0  0  0  0  0  0  0
   -1.3818    0.6141   -0.0000 C   0  0  0  0  0  0  0  0  0  0  0  0
    0.9802    1.1338   -0.0000 C   0  0  0  0  0  0  0  0  0  0  0  0
   -1.2519    2.1140   -0.0000 C   0  0  0  0  0  0  0  0  0  0  0  0
   -2.6809   -0.1299   -0.0000 C   0  0  0  0  0  0  0  0  0  0  0  0
    0.2126    2.4329   -0.0000 N   0  0  0  0  0  0  0  0  0  0  0  0
   -3.9918    0.6141   -0.0000 O   0  0  0  0  0  0  0  0  0  0  0  0
   -5.2909   -0.1299   -0.0000 C   0  0  0  0  0  0  0  0  0  0  0  0
   -5.2909   -1.6180   -0.0000 O   0  0  0  0  0  0  0  0  0  0  0  0
   -6.6136    0.6141   -0.0000 N   0  0  0  0  0  0  0  0  0  0  0  0
   -6.6491    2.1258   -0.0000 C   0  0  0  0  0  0  0  0  0  0  0  0
   -7.9127   -0.1417   -0.0000 C   0  0  0  0  0  0  0  0  0  0  0  0
   -5.3736    2.9053   -0.0000 C   0  0  0  0  0  0  0  0  0  0  0  0
   -9.2355    0.6023   -0.0000 C   0  0  0  0  0  0  0  0  0  0  0  0
   -4.0863    2.1849   -0.0000 C   0  0  0  0  0  0  0  0  0  0  0  0
   -5.4208    4.4051   -0.0000 C   0  0  0  0  0  0  0  0  0  0  0  0
  -10.5346   -0.1535   -0.0000 C   0  0  0  0  0  0  0  0  0  0  0  0
   -2.8108    2.9643   -0.0000 C   0  0  0  0  0  0  0  0  0  0  0  0
   -4.1571    5.1846   -0.0000 C   0  0  0  0  0  0  0  0  0  0  0  0
  -11.8573    0.5905   -0.0000 N   0  0  0  0  0  0  0  0  0  0  0  0
  -10.5227   -1.6416   -0.0000 C   0  0  0  0  0  0  0  0  0  0  0  0
   -2.8462    4.4760   -0.0000 C   0  0  0  0  0  0  0  0  0  0  0  0
  -13.1564   -0.1653   -0.0000 C   0  0  0  0  0  0  0  0  0  0  0  0
   -9.2236   -2.3620   -0.0000 C   0  0  0  0  0  0  0  0  0  0  0  0
  -13.1446   -1.6534   -0.0000 O   0  0  0  0  0  0  0  0  0  0  0  0
  -14.4791    0.5787   -0.0000 C   0  0  0  0  0  0  0  0  0  0  0  0
   -9.2236   -3.8501   -0.0000 C   0  0  0  0  0  0  0  0  0  0  0  0
   -7.9718   -1.5825   -0.0000 C   0  0  0  0  0  0  0  0  0  0  0  0
  -15.7782   -0.1772   -0.0000 N   0  0  0  0  0  0  0  0  0  0  0  0
  -14.5145    2.0904   -0.0000 C   0  0  0  0  0  0  0  0  0  0  0  0
   -7.9363   -4.5705   -0.0000 C   0  0  0  0  0  0  0  0  0  0  0  0
   -6.6727   -2.2911   -0.0000 C   0  0  0  0  0  0  0  0  0  0  0  0
  -17.1364    0.4960   -0.0000 C   0  0  0  0  0  0  0  0  0  0  0  0
  -13.2391    2.8698   -0.0000 C   0  0  0  0  0  0  0  0  0  0  0  0
   -6.6609   -3.7910   -0.0000 C   0  0  0  0  0  0  0  0  0  0  0  0
  -17.1482    2.0077   -0.0000 O   0  0  0  0  0  0  0  0  0  0  0  0
  -18.3882   -0.3307   -0.0000 N   0  0  0  0  0  0  0  0  0  0  0  0
  -13.2745    4.3815   -0.0000 N   0  0  0  0  0  0  0  0  0  0  0  0
  -19.7464    0.3425   -0.0000 C   0  0  0  0  0  0  0  0  0  0  0  0
  -18.3882   -1.8187   -0.0000 C   0  0  0  0  0  0  0  0  0  0  0  0
  -11.9990    5.1492   -0.0000 C   0  0  0  0  0  0  0  0  0  0  0  0
  -14.5972    5.1019   -0.0000 C   0  0  0  0  0  0  0  0  0  0  0  0
  -20.9982   -0.4842   -0.0000 C   0  0  0  0  0  0  0  0  0  0  0  0
  -12.0344    6.6491   -0.0000 C   0  0  0  0  0  0  0  0  0  0  0  0
  -14.6208    6.6136   -0.0000 C   0  0  0  0  0  0  0  0  0  0  0  0
  -22.4155    0.0354   -0.0000 N   0  0  0  0  0  0  0  0  0  0  0  0
  -21.0691   -1.9723   -0.0000 C   0  0  0  0  0  0  0  0  0  0  0  0
  -13.3453    7.3931   -0.0000 O   0  0  0  0  0  0  0  0  0  0  0  0
  -23.3603   -1.1338   -0.0000 C   0  0  0  0  0  0  0  0  0  0  0  0
  -22.5217   -2.3738   -0.0000 S   0  0  0  0  0  0  0  0  0  0  0  0
  -24.8483   -1.0747   -0.0000 C   0  0  0  0  0  0  0  0  0  0  0  0
  -25.5805    0.2598   -0.0000 C   0  0  0  0  0  0  0  0  0  0  0  0
  -25.6514   -2.3266   -0.0000 C   0  0  0  0  0  0  0  0  0  0  0  0
  1  2  1  0  0  0  0
  1  3  1  0  0  0  0
  2  4  2  0  0  0  0
  2  5  1  0  0  0  0
  3  6  2  0  0  0  0
  5  7  1  0  0  0  0
  7  8  1  0  0  0  0
  8  9  2  0  0  0  0
  8 10  1  0  0  0  0
 10 11  1  0  0  0  0
 10 12  1  0  0  0  0
 11 13  1  0  0  0  0
 12 14  1  0  0  0  0
 13 15  2  0  0  0  0
 13 16  1  0  0  0  0
 14 17  1  0  0  0  0
 15 18  1  0  0  0  0
 16 19  2  0  0  0  0
 17 20  1  6  0  0  0
 17 21  1  0  0  0  0
 18 22  2  0  0  0  0
 20 23  1  0  0  0  0
 21 24  1  0  0  0  0
 23 25  2  0  0  0  0
 23 26  1  0  0  0  0
 24 27  2  0  0  0  0
 24 28  1  0  0  0  0
 26 29  1  1  0  0  0
 26 30  1  0  0  0  0
 27 31  1  0  0  0  0
 28 32  2  0  0  0  0
 29 33  1  0  0  0  0
 30 34  1  0  0  0  0
 31 35  2  0  0  0  0
 33 36  2  0  0  0  0
 33 37  1  0  0  0  0
 34 38  1  0  0  0  0
 37 39  1  0  0  0  0
 37 40  1  0  0  0  0
 38 41  1  0  0  0  0
 38 42  1  0  0  0  0
 39 43  1  0  0  0  0
 41 44  1  0  0  0  0
 42 45  1  0  0  0  0
 43 46  1  0  0  0  0
 43 47  2  0  0  0  0
 44 48  1  0  0  0  0
 46 49  2  0  0  0  0
 47 50  1  0  0  0  0
 49 51  1  0  0  0  0
 51 52  1  0  0  0  0
 51 53  1  0  0  0  0
  4  6  1  0  0  0  0
 19 22  1  0  0  0  0
 32 35  1  0  0  0  0
 45 48  1  0  0  0  0
 49 50  1  0  0  0  0
M  END
>  <MolRegNo>
1617703

>  <m>
=

>  <Value>
340

>  <Unit>
nM

>  <Type>
IC50

>  <pValue>
6.47

>  <Ligand Efficiency>
0

>  <Binding Efficiency>
0

>  <Surface Efficiency>
0

>  <Assay Index>
824434

>  <Assay Category>


>  <Assay Organism>
Homo sapiens

>  <Target ID>
17045

>  <Target Name>
Cytochrome P450 3A4

>  <Target Organism>
Homo sapiens

>  <Target Description>
Target is a single protein chain

>  <Sequence Accession>
P08684

>  <Reference>
Bioorg Med Chem Lett 24 (3), 989-994 (2014)

>  <Pubmed ID>
24411125

>  <DOI>
10.1016/j.bmcl.2013.12.058

$$$$
1617702
Actelion Java MolfileCreator 1.0

 48 51  0  0  0  0  0  0  0  0999 V2000
    0.0000   -0.0000   -0.0000 S   0  0  0  0  0  0  0  0  0  0  0  0
   -1.3809    0.6137   -0.0000 C   0  0  0  0  0  0  0  0  0  0  0  0
    0.9796    1.1330   -0.0000 C   0  0  0  0  0  0  0  0  0  0  0  0
   -1.2511    2.1127   -0.0000 C   0  0  0  0  0  0  0  0  0  0  0  0
   -2.6792   -0.1298   -0.0000 C   0  0  0  0  0  0  0  0  0  0  0  0
    0.2124    2.4313   -0.0000 N   0  0  0  0  0  0  0  0  0  0  0  0
   -3.9893    0.6137   -0.0000 O   0  0  0  0  0  0  0  0  0  0  0  0
   -5.2876   -0.1298   -0.0000 C   0  0  0  0  0  0  0  0  0  0  0  0
   -5.2876   -1.6170   -0.0000 O   0  0  0  0  0  0  0  0  0  0  0  0
   -6.6094    0.6137   -0.0000 N   0  0  0  0  0  0  0  0  0  0  0  0
   -6.6449    2.1245   -0.0000 C   0  0  0  0  0  0  0  0  0  0  0  0
   -7.9077   -0.1416   -0.0000 C   0  0  0  0  0  0  0  0  0  0  0  0
   -5.3702    2.9034   -0.0000 C   0  0  0  0  0  0  0  0  0  0  0  0
   -9.2296    0.6019   -0.0000 C   0  0  0  0  0  0  0  0  0  0  0  0
   -4.0837    2.1835   -0.0000 C   0  0  0  0  0  0  0  0  0  0  0  0
   -5.4174    4.4024   -0.0000 C   0  0  0  0  0  0  0  0  0  0  0  0
  -10.5279   -0.1534   -0.0000 C   0  0  0  0  0  0  0  0  0  0  0  0
   -2.8090    2.9624   -0.0000 C   0  0  0  0  0  0  0  0  0  0  0  0
   -4.1545    5.1813   -0.0000 C   0  0  0  0  0  0  0  0  0  0  0  0
  -11.8498    0.5901   -0.0000 N   0  0  0  0  0  0  0  0  0  0  0  0
  -10.5161   -1.6406   -0.0000 C   0  0  0  0  0  0  0  0  0  0  0  0
   -2.8444    4.4732   -0.0000 C   0  0  0  0  0  0  0  0  0  0  0  0
  -13.1481   -0.1652   -0.0000 C   0  0  0  0  0  0  0  0  0  0  0  0
   -9.2178   -2.3605   -0.0000 C   0  0  0  0  0  0  0  0  0  0  0  0
  -13.1363   -1.6524   -0.0000 O   0  0  0  0  0  0  0  0  0  0  0  0
  -14.4700    0.5783   -0.0000 C   0  0  0  0  0  0  0  0  0  0  0  0
   -9.2178   -3.8476   -0.0000 C   0  0  0  0  0  0  0  0  0  0  0  0
   -7.9549   -1.5815   -0.0000 C   0  0  0  0  0  0  0  0  0  0  0  0
  -15.7683   -0.1770   -0.0000 N   0  0  0  0  0  0  0  0  0  0  0  0
  -14.5054    2.0891   -0.0000 C   0  0  0  0  0  0  0  0  0  0  0  0
   -7.9195   -4.5676   -0.0000 C   0  0  0  0  0  0  0  0  0  0  0  0
   -6.6567   -2.2897   -0.0000 C   0  0  0  0  0  0  0  0  0  0  0  0
  -17.1255    0.4957   -0.0000 C   0  0  0  0  0  0  0  0  0  0  0  0
  -13.2307    2.8680   -0.0000 C   0  0  0  0  0  0  0  0  0  0  0  0
  -15.8273    2.8326   -0.0000 C   0  0  0  0  0  0  0  0  0  0  0  0
   -6.6449   -3.7886   -0.0000 C   0  0  0  0  0  0  0  0  0  0  0  0
  -17.1373    2.0064   -0.0000 O   0  0  0  0  0  0  0  0  0  0  0  0
  -18.3766   -0.3305   -0.0000 N   0  0  0  0  0  0  0  0  0  0  0  0
  -19.7339    0.3423   -0.0000 C   0  0  0  0  0  0  0  0  0  0  0  0
  -18.3766   -1.8176   -0.0000 C   0  0  0  0  0  0  0  0  0  0  0  0
  -20.9850   -0.4839   -0.0000 C   0  0  0  0  0  0  0  0  0  0  0  0
  -22.4131    0.0354   -0.0000 N   0  0  0  0  0  0  0  0  0  0  0  0
  -21.0558   -1.9710   -0.0000 C   0  0  0  0  0  0  0  0  0  0  0  0
  -23.3455   -1.1330   -0.0000 C   0  0  0  0  0  0  0  0  0  0  0  0
  -22.5075   -2.3723   -0.0000 S   0  0  0  0  0  0  0  0  0  0  0  0
  -24.8562   -1.0740   -0.0000 C   0  0  0  0  0  0  0  0  0  0  0  0
  -25.5762    0.2597   -0.0000 C   0  0  0  0  0  0  0  0  0  0  0  0
  -25.6588   -2.3369   -0.0000 C   0  0  0  0  0  0  0  0  0  0  0  0
  1  2  1  0  0  0  0
  1  3  1  0  0  0  0
  2  4  2  0  0  0  0
  2  5  1  0  0  0  0
  3  6  2  0  0  0  0
  5  7  1  0  0  0  0
  7  8  1  0  0  0  0
  8  9  2  0  0  0  0
  8 10  1  0  0  0  0
 10 11  1  0  0  0  0
 10 12  1  0  0  0  0
 11 13  1  0  0  0  0
 12 14  1  0  0  0  0
 13 15  2  0  0  0  0
 13 16  1  0  0  0  0
 14 17  1  0  0  0  0
 15 18  1  0  0  0  0
 16 19  2  0  0  0  0
 17 20  1  6  0  0  0
 17 21  1  0  0  0  0
 18 22  2  0  0  0  0
 20 23  1  0  0  0  0
 21 24  1  0  0  0  0
 23 25  2  0  0  0  0
 23 26  1  0  0  0  0
 24 27  2  0  0  0  0
 24 28  1  0  0  0  0
 26 29  1  1  0  0  0
 26 30  1  0  0  0  0
 27 31  1  0  0  0  0
 28 32  2  0  0  0  0
 29 33  1  0  0  0  0
 30 34  1  0  0  0  0
 30 35  1  0  0  0  0
 31 36  2  0  0  0  0
 33 37  2  0  0  0  0
 33 38  1  0  0  0  0
 38 39  1  0  0  0  0
 38 40  1  0  0  0  0
 39 41  1  0  0  0  0
 41 42  1  0  0  0  0
 41 43  2  0  0  0  0
 42 44  2  0  0  0  0
 43 45  1  0  0  0  0
 44 46  1  0  0  0  0
 46 47  1  0  0  0  0
 46 48  1  0  0  0  0
  4  6  1  0  0  0  0
 19 22  1  0  0  0  0
 32 36  1  0  0  0  0
 44 45  1  0  0  0  0
M  END
>  <MolRegNo>
1617702

>  <m>
=

>  <Value>
320

>  <Unit>
nM

>  <Type>
IC50

>  <pValue>
6.5

>  <Ligand Efficiency>
0

>  <Binding Efficiency>
0

>  <Surface Efficiency>
0

>  <Assay Index>
824434

>  <Assay Category>


>  <Assay Organism>
Homo sapiens

>  <Target ID>
17045

>  <Target Name>
Cytochrome P450 3A4

>  <Target Organism>
Homo sapiens

>  <Target Description>
Target is a single protein chain

>  <Sequence Accession>
P08684

>  <Reference>
Bioorg Med Chem Lett 24 (3), 989-994 (2014)

>  <Pubmed ID>
24411125

>  <DOI>
10.1016/j.bmcl.2013.12.058

$$$$
1617701
Actelion Java MolfileCreator 1.0

 48 51  0  0  0  0  0  0  0  0999 V2000
    0.0000   -0.0000   -0.0000 S   0  0  0  0  0  0  0  0  0  0  0  0
   -1.3799    0.6133   -0.0000 C   0  0  0  0  0  0  0  0  0  0  0  0
    0.9789    1.1322   -0.0000 C   0  0  0  0  0  0  0  0  0  0  0  0
   -1.2501    2.1111   -0.0000 C   0  0  0  0  0  0  0  0  0  0  0  0
   -2.6772   -0.1297   -0.0000 C   0  0  0  0  0  0  0  0  0  0  0  0
    0.2123    2.4295   -0.0000 N   0  0  0  0  0  0  0  0  0  0  0  0
   -3.9862    0.6133   -0.0000 O   0  0  0  0  0  0  0  0  0  0  0  0
   -5.2835   -0.1297   -0.0000 C   0  0  0  0  0  0  0  0  0  0  0  0
   -5.2835   -1.6157   -0.0000 O   0  0  0  0  0  0  0  0  0  0  0  0
   -6.6044    0.6133   -0.0000 N   0  0  0  0  0  0  0  0  0  0  0  0
   -6.6398    2.1229   -0.0000 C   0  0  0  0  0  0  0  0  0  0  0  0
   -7.9017   -0.1415   -0.0000 C   0  0  0  0  0  0  0  0  0  0  0  0
   -5.3661    2.9012   -0.0000 C   0  0  0  0  0  0  0  0  0  0  0  0
   -9.2226    0.6015   -0.0000 C   0  0  0  0  0  0  0  0  0  0  0  0
   -4.0806    2.1818   -0.0000 C   0  0  0  0  0  0  0  0  0  0  0  0
   -5.4133    4.3990   -0.0000 C   0  0  0  0  0  0  0  0  0  0  0  0
  -10.5199   -0.1533   -0.0000 C   0  0  0  0  0  0  0  0  0  0  0  0
   -2.8069    2.9602   -0.0000 C   0  0  0  0  0  0  0  0  0  0  0  0
   -4.1514    5.1774   -0.0000 C   0  0  0  0  0  0  0  0  0  0  0  0
  -11.8408    0.5897   -0.0000 N   0  0  0  0  0  0  0  0  0  0  0  0
   -2.8423    4.4698   -0.0000 C   0  0  0  0  0  0  0  0  0  0  0  0
  -13.1381   -0.1651   -0.0000 C   0  0  0  0  0  0  0  0  0  0  0  0
  -11.8762    2.0993   -0.0000 C   0  0  0  0  0  0  0  0  0  0  0  0
  -13.1263   -1.6511   -0.0000 O   0  0  0  0  0  0  0  0  0  0  0  0
  -14.4590    0.5779   -0.0000 C   0  0  0  0  0  0  0  0  0  0  0  0
  -10.6025    2.8776   -0.0000 C   0  0  0  0  0  0  0  0  0  0  0  0
  -15.7563   -0.1769   -0.0000 N   0  0  0  0  0  0  0  0  0  0  0  0
  -14.4944    2.0875   -0.0000 C   0  0  0  0  0  0  0  0  0  0  0  0
   -9.3170    2.1582   -0.0000 C   0  0  0  0  0  0  0  0  0  0  0  0
  -10.6496    4.3754   -0.0000 C   0  0  0  0  0  0  0  0  0  0  0  0
  -17.1126    0.4953   -0.0000 C   0  0  0  0  0  0  0  0  0  0  0  0
  -13.2207    2.8659   -0.0000 C   0  0  0  0  0  0  0  0  0  0  0  0
  -15.8153    2.8305   -0.0000 C   0  0  0  0  0  0  0  0  0  0  0  0
   -8.0433    2.9366   -0.0000 C   0  0  0  0  0  0  0  0  0  0  0  0
   -9.3877    5.1538   -0.0000 C   0  0  0  0  0  0  0  0  0  0  0  0
  -17.1244    2.0049   -0.0000 O   0  0  0  0  0  0  0  0  0  0  0  0
  -18.3627   -0.3302   -0.0000 N   0  0  0  0  0  0  0  0  0  0  0  0
   -8.0786    4.4462   -0.0000 C   0  0  0  0  0  0  0  0  0  0  0  0
  -19.7190    0.3420   -0.0000 C   0  0  0  0  0  0  0  0  0  0  0  0
  -18.3627   -1.8162   -0.0000 C   0  0  0  0  0  0  0  0  0  0  0  0
  -20.9691   -0.4835   -0.0000 C   0  0  0  0  0  0  0  0  0  0  0  0
  -22.3961    0.0354   -0.0000 N   0  0  0  0  0  0  0  0  0  0  0  0
  -21.0398   -1.9695   -0.0000 C   0  0  0  0  0  0  0  0  0  0  0  0
  -23.3278   -1.1322   -0.0000 C   0  0  0  0  0  0  0  0  0  0  0  0
  -22.4905   -2.3705   -0.0000 S   0  0  0  0  0  0  0  0  0  0  0  0
  -24.8374   -1.0732   -0.0000 C   0  0  0  0  0  0  0  0  0  0  0  0
  -25.5568    0.2595   -0.0000 C   0  0  0  0  0  0  0  0  0  0  0  0
  -25.6394   -2.3351   -0.0000 C   0  0  0  0  0  0  0  0  0  0  0  0
  1  2  1  0  0  0  0
  1  3  1  0  0  0  0
  2  4  2  0  0  0  0
  2  5  1  0  0  0  0
  3  6  2  0  0  0  0
  5  7  1  0  0  0  0
  7  8  1  0  0  0  0
  8  9  2  0  0  0  0
  8 10  1  0  0  0  0
 10 11  1  0  0  0  0
 10 12  1  0  0  0  0
 11 13  1  0  0  0  0
 12 14  1  0  0  0  0
 13 15  2  0  0  0  0
 13 16  1  0  0  0  0
 14 17  1  0  0  0  0
 15 18  1  0  0  0  0
 16 19  2  0  0  0  0
 17 20  1  0  0  0  0
 18 21  2  0  0  0  0
 20 22  1  0  0  0  0
 20 23  1  0  0  0  0
 22 24  2  0  0  0  0
 22 25  1  0  0  0  0
 23 26  1  0  0  0  0
 25 27  1  1  0  0  0
 25 28  1  0  0  0  0
 26 29  2  0  0  0  0
 26 30  1  0  0  0  0
 27 31  1  0  0  0  0
 28 32  1  0  0  0  0
 28 33  1  0  0  0  0
 29 34  1  0  0  0  0
 30 35  2  0  0  0  0
 31 36  2  0  0  0  0
 31 37  1  0  0  0  0
 34 38  2  0  0  0  0
 37 39  1  0  0  0  0
 37 40  1  0  0  0  0
 39 41  1  0  0  0  0
 41 42  1  0  0  0  0
 41 43  2  0  0  0  0
 42 44  2  0  0  0  0
 43 45  1  0  0  0  0
 44 46  1  0  0  0  0
 46 47  1  0  0  0  0
 46 48  1  0  0  0  0
  4  6  1  0  0  0  0
 19 21  1  0  0  0  0
 35 38  1  0  0  0  0
 44 45  1  0  0  0  0
M  END
>  <MolRegNo>
1617701

>  <m>
=

>  <Value>
300

>  <Unit>
nM

>  <Type>
IC50

>  <pValue>
6.52

>  <Ligand Efficiency>
0

>  <Binding Efficiency>
0

>  <Surface Efficiency>
0

>  <Assay Index>
824434

>  <Assay Category>


>  <Assay Organism>
Homo sapiens

>  <Target ID>
17045

>  <Target Name>
Cytochrome P450 3A4

>  <Target Organism>
Homo sapiens

>  <Target Description>
Target is a single protein chain

>  <Sequence Accession>
P08684

>  <Reference>
Bioorg Med Chem Lett 24 (3), 989-994 (2014)

>  <Pubmed ID>
24411125

>  <DOI>
10.1016/j.bmcl.2013.12.058

$$$$
1617700
Actelion Java MolfileCreator 1.0

 36 38  0  0  0  0  0  0  0  0999 V2000
    0.0000   -0.0000   -0.0000 S   0  0  0  0  0  0  0  0  0  0  0  0
   -1.3769    0.6119   -0.0000 C   0  0  0  0  0  0  0  0  0  0  0  0
    0.9768    1.1297   -0.0000 C   0  0  0  0  0  0  0  0  0  0  0  0
   -1.2474    2.1065   -0.0000 C   0  0  0  0  0  0  0  0  0  0  0  0
   -2.6714   -0.1412   -0.0000 C   0  0  0  0  0  0  0  0  0  0  0  0
    0.2001    2.4242   -0.0000 N   0  0  0  0  0  0  0  0  0  0  0  0
   -3.9894    0.6002   -0.0000 O   0  0  0  0  0  0  0  0  0  0  0  0
   -5.2839   -0.1530   -0.0000 C   0  0  0  0  0  0  0  0  0  0  0  0
   -5.2839   -1.6358   -0.0000 O   0  0  0  0  0  0  0  0  0  0  0  0
   -6.6019    0.5884   -0.0000 N   0  0  0  0  0  0  0  0  0  0  0  0
   -6.6254    2.0830   -0.0000 C   0  0  0  0  0  0  0  0  0  0  0  0
   -7.8846   -0.1765   -0.0000 C   0  0  0  0  0  0  0  0  0  0  0  0
   -7.9317    2.8243   -0.0000 C   0  0  0  0  0  0  0  0  0  0  0  0
   -9.2027    0.5766   -0.0000 C   0  0  0  0  0  0  0  0  0  0  0  0
   -9.2262    2.0712   -0.0000 C   0  0  0  0  0  0  0  0  0  0  0  0
  -10.5442    2.8126   -0.0000 N   0  0  0  0  0  0  0  0  0  0  0  0
  -11.8387    2.0594   -0.0000 C   0  0  0  0  0  0  0  0  0  0  0  0
  -11.8269    0.5766   -0.0000 O   0  0  0  0  0  0  0  0  0  0  0  0
  -13.1567    2.8008   -0.0000 C   0  0  0  0  0  0  0  0  0  0  0  0
  -14.4512    2.0476   -0.0000 N   0  0  0  0  0  0  0  0  0  0  0  0
  -13.1920    4.3071   -0.0000 C   0  0  0  0  0  0  0  0  0  0  0  0
  -15.8046    2.7184   -0.0000 C   0  0  0  0  0  0  0  0  0  0  0  0
  -11.9211    5.0838   -0.0000 C   0  0  0  0  0  0  0  0  0  0  0  0
  -14.5101    5.0485   -0.0000 C   0  0  0  0  0  0  0  0  0  0  0  0
  -15.8163    4.2247   -0.0000 O   0  0  0  0  0  0  0  0  0  0  0  0
  -17.0520    1.8947   -0.0000 N   0  0  0  0  0  0  0  0  0  0  0  0
  -18.4053    2.5654   -0.0000 C   0  0  0  0  0  0  0  0  0  0  0  0
  -17.0520    0.4119   -0.0000 C   0  0  0  0  0  0  0  0  0  0  0  0
  -19.6527    1.7417   -0.0000 C   0  0  0  0  0  0  0  0  0  0  0  0
  -21.0767    2.2595   -0.0000 N   0  0  0  0  0  0  0  0  0  0  0  0
  -19.7233    0.2589   -0.0000 C   0  0  0  0  0  0  0  0  0  0  0  0
  -22.0063    1.0944   -0.0000 C   0  0  0  0  0  0  0  0  0  0  0  0
  -21.1708   -0.1412   -0.0000 S   0  0  0  0  0  0  0  0  0  0  0  0
  -23.5127    1.1533   -0.0000 C   0  0  0  0  0  0  0  0  0  0  0  0
  -24.2305    2.4831   -0.0000 C   0  0  0  0  0  0  0  0  0  0  0  0
  -24.3129   -0.1059   -0.0000 C   0  0  0  0  0  0  0  0  0  0  0  0
  1  2  1  0  0  0  0
  1  3  1  0  0  0  0
  2  4  2  0  0  0  0
  2  5  1  0  0  0  0
  3  6  2  0  0  0  0
  5  7  1  0  0  0  0
  7  8  1  0  0  0  0
  8  9  2  0  0  0  0
  8 10  1  0  0  0  0
 10 11  1  0  0  0  0
 10 12  1  0  0  0  0
 11 13  1  0  0  0  0
 12 14  1  0  0  0  0
 13 15  1  0  0  0  0
 15 16  1  0  0  0  0
 16 17  1  0  0  0  0
 17 18  2  0  0  0  0
 17 19  1  0  0  0  0
 19 20  1  1  0  0  0
 19 21  1  0  0  0  0
 20 22  1  0  0  0  0
 21 23  1  0  0  0  0
 21 24  1  0  0  0  0
 22 25  2  0  0  0  0
 22 26  1  0  0  0  0
 26 27  1  0  0  0  0
 26 28  1  0  0  0  0
 27 29  1  0  0  0  0
 29 30  1  0  0  0  0
 29 31  2  0  0  0  0
 30 32  2  0  0  0  0
 31 33  1  0  0  0  0
 32 34  1  0  0  0  0
 34 35  1  0  0  0  0
 34 36  1  0  0  0  0
  4  6  1  0  0  0  0
 14 15  1  0  0  0  0
 32 33  1  0  0  0  0
M  END
>  <MolRegNo>
1617700

>  <m>
=

>  <Value>
1670

>  <Unit>
nM

>  <Type>
IC50

>  <pValue>
5.78

>  <Ligand Efficiency>
0

>  <Binding Efficiency>
0

>  <Surface Efficiency>
0

>  <Assay Index>
824434

>  <Assay Category>


>  <Assay Organism>
Homo sapiens

>  <Target ID>
17045

>  <Target Name>
Cytochrome P450 3A4

>  <Target Organism>
Homo sapiens

>  <Target Description>
Target is a single protein chain

>  <Sequence Accession>
P08684

>  <Reference>
Bioorg Med Chem Lett 24 (3), 989-994 (2014)

>  <Pubmed ID>
24411125

>  <DOI>
10.1016/j.bmcl.2013.12.058

$$$$
1617699
Actelion Java MolfileCreator 1.0

 36 38  0  0  0  0  0  0  0  0999 V2000
    0.0000   -0.0000   -0.0000 S   0  0  0  0  0  0  0  0  0  0  0  0
   -1.3775    0.6122   -0.0000 C   0  0  0  0  0  0  0  0  0  0  0  0
    0.9772    1.1303   -0.0000 C   0  0  0  0  0  0  0  0  0  0  0  0
   -1.2480    2.1075   -0.0000 C   0  0  0  0  0  0  0  0  0  0  0  0
   -2.6727   -0.1295   -0.0000 C   0  0  0  0  0  0  0  0  0  0  0  0
    0.2119    2.4254   -0.0000 N   0  0  0  0  0  0  0  0  0  0  0  0
   -3.9914    0.6122   -0.0000 O   0  0  0  0  0  0  0  0  0  0  0  0
   -5.2865   -0.1295   -0.0000 C   0  0  0  0  0  0  0  0  0  0  0  0
   -5.2865   -1.6130   -0.0000 O   0  0  0  0  0  0  0  0  0  0  0  0
   -6.6052    0.6122   -0.0000 N   0  0  0  0  0  0  0  0  0  0  0  0
   -7.9003   -0.1413   -0.0000 C   0  0  0  0  0  0  0  0  0  0  0  0
   -7.9003   -1.6248   -0.0000 C   0  0  0  0  0  0  0  0  0  0  0  0
   -9.2190    0.6005   -0.0000 C   0  0  0  0  0  0  0  0  0  0  0  0
   -9.1954   -2.3783   -0.0000 C   0  0  0  0  0  0  0  0  0  0  0  0
  -10.5259   -0.1531   -0.0000 C   0  0  0  0  0  0  0  0  0  0  0  0
  -10.5023   -1.6248   -0.0000 N   0  0  0  0  0  0  0  0  0  0  0  0
  -11.7975   -2.3783   -0.0000 C   0  0  0  0  0  0  0  0  0  0  0  0
  -11.7857   -3.8618   -0.0000 O   0  0  0  0  0  0  0  0  0  0  0  0
  -13.1161   -1.6366   -0.0000 C   0  0  0  0  0  0  0  0  0  0  0  0
  -14.4113   -2.3901   -0.0000 N   0  0  0  0  0  0  0  0  0  0  0  0
  -13.1515   -0.1295   -0.0000 C   0  0  0  0  0  0  0  0  0  0  0  0
  -15.7653   -1.7190   -0.0000 C   0  0  0  0  0  0  0  0  0  0  0  0
  -11.8799    0.6476   -0.0000 C   0  0  0  0  0  0  0  0  0  0  0  0
  -14.4701    0.6122   -0.0000 C   0  0  0  0  0  0  0  0  0  0  0  0
  -15.7770   -0.2119   -0.0000 O   0  0  0  0  0  0  0  0  0  0  0  0
  -17.0133   -2.5432   -0.0000 N   0  0  0  0  0  0  0  0  0  0  0  0
  -18.3673   -1.8721   -0.0000 C   0  0  0  0  0  0  0  0  0  0  0  0
  -17.0133   -4.0267   -0.0000 C   0  0  0  0  0  0  0  0  0  0  0  0
  -19.6153   -2.6962   -0.0000 C   0  0  0  0  0  0  0  0  0  0  0  0
  -21.0400   -2.1664   -0.0000 N   0  0  0  0  0  0  0  0  0  0  0  0
  -19.6860   -4.1797   -0.0000 C   0  0  0  0  0  0  0  0  0  0  0  0
  -21.9701   -3.3320   -0.0000 C   0  0  0  0  0  0  0  0  0  0  0  0
  -21.1342   -4.5801   -0.0000 S   0  0  0  0  0  0  0  0  0  0  0  0
  -23.4772   -3.2731   -0.0000 C   0  0  0  0  0  0  0  0  0  0  0  0
  -24.1954   -1.9427   -0.0000 C   0  0  0  0  0  0  0  0  0  0  0  0
  -24.2778   -4.5330   -0.0000 C   0  0  0  0  0  0  0  0  0  0  0  0
  1  2  1  0  0  0  0
  1  3  1  0  0  0  0
  2  4  2  0  0  0  0
  2  5  1  0  0  0  0
  3  6  2  0  0  0  0
  5  7  1  0  0  0  0
  7  8  1  0  0  0  0
  8  9  2  0  0  0  0
  8 10  1  0  0  0  0
 10 11  1  0  0  0  0
 11 12  1  0  0  0  0
 11 13  1  0  0  0  0
 12 14  1  0  0  0  0
 13 15  1  0  0  0  0
 14 16  1  0  0  0  0
 16 17  1  0  0  0  0
 17 18  2  0  0  0  0
 17 19  1  0  0  0  0
 19 20  1  1  0  0  0
 19 21  1  0  0  0  0
 20 22  1  0  0  0  0
 21 23  1  0  0  0  0
 21 24  1  0  0  0  0
 22 25  2  0  0  0  0
 22 26  1  0  0  0  0
 26 27  1  0  0  0  0
 26 28  1  0  0  0  0
 27 29  1  0  0  0  0
 29 30  1  0  0  0  0
 29 31  2  0  0  0  0
 30 32  2  0  0  0  0
 31 33  1  0  0  0  0
 32 34  1  0  0  0  0
 34 35  1  0  0  0  0
 34 36  1  0  0  0  0
  4  6  1  0  0  0  0
 15 16  1  0  0  0  0
 32 33  1  0  0  0  0
M  END
>  <MolRegNo>
1617699

>  <m>
=

>  <Value>
1840

>  <Unit>
nM

>  <Type>
IC50

>  <pValue>
5.74

>  <Ligand Efficiency>
0

>  <Binding Efficiency>
0

>  <Surface Efficiency>
0

>  <Assay Index>
824434

>  <Assay Category>


>  <Assay Organism>
Homo sapiens

>  <Target ID>
17045

>  <Target Name>
Cytochrome P450 3A4

>  <Target Organism>
Homo sapiens

>  <Target Description>
Target is a single protein chain

>  <Sequence Accession>
P08684

>  <Reference>
Bioorg Med Chem Lett 24 (3), 989-994 (2014)

>  <Pubmed ID>
24411125

>  <DOI>
10.1016/j.bmcl.2013.12.058

$$$$
1617698
Actelion Java MolfileCreator 1.0

 34 35  0  0  0  0  0  0  0  0999 V2000
    0.0000   -0.0000   -0.0000 S   0  0  0  0  0  0  0  0  0  0  0  0
   -1.3763    0.6117   -0.0000 C   0  0  0  0  0  0  0  0  0  0  0  0
    0.9764    1.1293   -0.0000 C   0  0  0  0  0  0  0  0  0  0  0  0
   -1.2469    2.1057   -0.0000 C   0  0  0  0  0  0  0  0  0  0  0  0
   -2.6703   -0.1412   -0.0000 C   0  0  0  0  0  0  0  0  0  0  0  0
    0.2000    2.4233   -0.0000 N   0  0  0  0  0  0  0  0  0  0  0  0
   -3.9878    0.5999   -0.0000 O   0  0  0  0  0  0  0  0  0  0  0  0
   -5.2818   -0.1529   -0.0000 C   0  0  0  0  0  0  0  0  0  0  0  0
   -5.2818   -1.6351   -0.0000 O   0  0  0  0  0  0  0  0  0  0  0  0
   -6.5993    0.5882   -0.0000 N   0  0  0  0  0  0  0  0  0  0  0  0
   -7.8933   -0.1647   -0.0000 C   0  0  0  0  0  0  0  0  0  0  0  0
   -9.2108    0.5764   -0.0000 C   0  0  0  0  0  0  0  0  0  0  0  0
  -10.5048   -0.1765   -0.0000 C   0  0  0  0  0  0  0  0  0  0  0  0
  -11.8223    0.5646   -0.0000 N   0  0  0  0  0  0  0  0  0  0  0  0
  -13.1162   -0.1882   -0.0000 C   0  0  0  0  0  0  0  0  0  0  0  0
  -13.1045   -1.6704   -0.0000 O   0  0  0  0  0  0  0  0  0  0  0  0
  -14.4338    0.5529   -0.0000 C   0  0  0  0  0  0  0  0  0  0  0  0
  -15.7277   -0.2000   -0.0000 N   0  0  0  0  0  0  0  0  0  0  0  0
  -14.4690    2.0586   -0.0000 C   0  0  0  0  0  0  0  0  0  0  0  0
  -17.0805    0.4705   -0.0000 C   0  0  0  0  0  0  0  0  0  0  0  0
  -13.1986    2.8350   -0.0000 C   0  0  0  0  0  0  0  0  0  0  0  0
  -15.7866    2.7997   -0.0000 C   0  0  0  0  0  0  0  0  0  0  0  0
  -17.0923    1.9763   -0.0000 O   0  0  0  0  0  0  0  0  0  0  0  0
  -18.3275   -0.3529   -0.0000 N   0  0  0  0  0  0  0  0  0  0  0  0
  -19.6803    0.3176   -0.0000 C   0  0  0  0  0  0  0  0  0  0  0  0
  -18.3275   -1.8351   -0.0000 C   0  0  0  0  0  0  0  0  0  0  0  0
  -20.9272   -0.5058   -0.0000 C   0  0  0  0  0  0  0  0  0  0  0  0
  -22.3506    0.0235   -0.0000 N   0  0  0  0  0  0  0  0  0  0  0  0
  -20.9978   -1.9880   -0.0000 C   0  0  0  0  0  0  0  0  0  0  0  0
  -23.2799   -1.1411   -0.0000 C   0  0  0  0  0  0  0  0  0  0  0  0
  -22.4447   -2.3880   -0.0000 S   0  0  0  0  0  0  0  0  0  0  0  0
  -24.7856   -1.0822   -0.0000 C   0  0  0  0  0  0  0  0  0  0  0  0
  -25.5032    0.2470   -0.0000 C   0  0  0  0  0  0  0  0  0  0  0  0
  -25.5855   -2.3409   -0.0000 C   0  0  0  0  0  0  0  0  0  0  0  0
  1  2  1  0  0  0  0
  1  3  1  0  0  0  0
  2  4  2  0  0  0  0
  2  5  1  0  0  0  0
  3  6  2  0  0  0  0
  5  7  1  0  0  0  0
  7  8  1  0  0  0  0
  8  9  2  0  0  0  0
  8 10  1  0  0  0  0
 10 11  1  0  0  0  0
 11 12  1  0  0  0  0
 12 13  1  0  0  0  0
 13 14  1  0  0  0  0
 14 15  1  0  0  0  0
 15 16  2  0  0  0  0
 15 17  1  0  0  0  0
 17 18  1  1  0  0  0
 17 19  1  0  0  0  0
 18 20  1  0  0  0  0
 19 21  1  0  0  0  0
 19 22  1  0  0  0  0
 20 23  2  0  0  0  0
 20 24  1  0  0  0  0
 24 25  1  0  0  0  0
 24 26  1  0  0  0  0
 25 27  1  0  0  0  0
 27 28  1  0  0  0  0
 27 29  2  0  0  0  0
 28 30  2  0  0  0  0
 29 31  1  0  0  0  0
 30 32  1  0  0  0  0
 32 33  1  0  0  0  0
 32 34  1  0  0  0  0
  4  6  1  0  0  0  0
 30 31  1  0  0  0  0
M  END
>  <MolRegNo>
1617698

>  <m>
=

>  <Value>
1260

>  <Unit>
nM

>  <Type>
IC50

>  <pValue>
5.9

>  <Ligand Efficiency>
0

>  <Binding Efficiency>
0

>  <Surface Efficiency>
0

>  <Assay Index>
824434

>  <Assay Category>


>  <Assay Organism>
Homo sapiens

>  <Target ID>
17045

>  <Target Name>
Cytochrome P450 3A4

>  <Target Organism>
Homo sapiens

>  <Target Description>
Target is a single protein chain

>  <Sequence Accession>
P08684

>  <Reference>
Bioorg Med Chem Lett 24 (3), 989-994 (2014)

>  <Pubmed ID>
24411125

>  <DOI>
10.1016/j.bmcl.2013.12.058

$$$$
1617697
Actelion Java MolfileCreator 1.0

 49 52  0  0  0  0  0  0  0  0999 V2000
    0.0000   -0.0000   -0.0000 S   0  0  0  0  0  0  0  0  0  0  0  0
   -1.3790   -0.5893   -0.0000 C   0  0  0  0  0  0  0  0  0  0  0  0
    0.9783   -1.1079   -0.0000 C   0  0  0  0  0  0  0  0  0  0  0  0
   -1.2494   -2.0626   -0.0000 C   0  0  0  0  0  0  0  0  0  0  0  0
   -2.6755    0.1768   -0.0000 C   0  0  0  0  0  0  0  0  0  0  0  0
    0.2004   -2.3808   -0.0000 N   0  0  0  0  0  0  0  0  0  0  0  0
   -3.9956   -0.5422   -0.0000 O   0  0  0  0  0  0  0  0  0  0  0  0
   -5.2921    0.2357   -0.0000 C   0  0  0  0  0  0  0  0  0  0  0  0
   -5.2921    1.7444   -0.0000 O   0  0  0  0  0  0  0  0  0  0  0  0
   -6.6122   -0.4832   -0.0000 N   0  0  0  0  0  0  0  0  0  0  0  0
   -7.9322    0.2593   -0.0000 N   0  0  0  0  0  0  0  0  0  0  0  0
   -7.9676    1.7680   -0.0000 C   0  0  0  0  0  0  0  0  0  0  0  0
   -9.2287   -0.4950   -0.0000 C   0  0  0  0  0  0  0  0  0  0  0  0
   -9.2877    2.5105   -0.0000 C   0  0  0  0  0  0  0  0  0  0  0  0
  -10.5488    0.2475   -0.0000 C   0  0  0  0  0  0  0  0  0  0  0  0
   -9.3112    4.0192   -0.0000 C   0  0  0  0  0  0  0  0  0  0  0  0
  -10.5724    1.7562   -0.0000 C   0  0  0  0  0  0  0  0  0  0  0  0
  -11.8453   -0.5068   -0.0000 C   0  0  0  0  0  0  0  0  0  0  0  0
  -10.6313    4.7617   -0.0000 C   0  0  0  0  0  0  0  0  0  0  0  0
  -11.8925    2.4869   -0.0000 C   0  0  0  0  0  0  0  0  0  0  0  0
  -13.1654    0.2357   -0.0000 N   0  0  0  0  0  0  0  0  0  0  0  0
  -11.8335   -1.9919   -0.0000 C   0  0  0  0  0  0  0  0  0  0  0  0
  -11.9278    4.0074   -0.0000 C   0  0  0  0  0  0  0  0  0  0  0  0
  -14.4619   -0.5186   -0.0000 C   0  0  0  0  0  0  0  0  0  0  0  0
  -10.5370   -2.7109   -0.0000 C   0  0  0  0  0  0  0  0  0  0  0  0
  -14.4501   -2.0037   -0.0000 O   0  0  0  0  0  0  0  0  0  0  0  0
  -15.7820    0.2239   -0.0000 C   0  0  0  0  0  0  0  0  0  0  0  0
  -10.5370   -4.1959   -0.0000 C   0  0  0  0  0  0  0  0  0  0  0  0
   -9.2759   -1.9330   -0.0000 C   0  0  0  0  0  0  0  0  0  0  0  0
  -17.0785   -0.5304   -0.0000 N   0  0  0  0  0  0  0  0  0  0  0  0
  -15.8173    1.7326   -0.0000 C   0  0  0  0  0  0  0  0  0  0  0  0
   -9.2405   -4.9149   -0.0000 C   0  0  0  0  0  0  0  0  0  0  0  0
   -7.9794   -2.6401   -0.0000 C   0  0  0  0  0  0  0  0  0  0  0  0
  -18.4339    0.1414   -0.0000 C   0  0  0  0  0  0  0  0  0  0  0  0
  -14.5444    2.5105   -0.0000 C   0  0  0  0  0  0  0  0  0  0  0  0
  -17.1374    2.4751   -0.0000 C   0  0  0  0  0  0  0  0  0  0  0  0
   -7.9676   -4.1370   -0.0000 C   0  0  0  0  0  0  0  0  0  0  0  0
  -18.4457    1.6501   -0.0000 O   0  0  0  0  0  0  0  0  0  0  0  0
  -19.6832   -0.6836   -0.0000 N   0  0  0  0  0  0  0  0  0  0  0  0
  -21.0387   -0.0118   -0.0000 C   0  0  0  0  0  0  0  0  0  0  0  0
  -19.6832   -2.1687   -0.0000 C   0  0  0  0  0  0  0  0  0  0  0  0
  -22.2880   -0.8368   -0.0000 C   0  0  0  0  0  0  0  0  0  0  0  0
  -23.7142   -0.3182   -0.0000 N   0  0  0  0  0  0  0  0  0  0  0  0
  -22.3588   -2.3219   -0.0000 C   0  0  0  0  0  0  0  0  0  0  0  0
  -24.6453   -1.4851   -0.0000 C   0  0  0  0  0  0  0  0  0  0  0  0
  -23.8085   -2.7227   -0.0000 S   0  0  0  0  0  0  0  0  0  0  0  0
  -26.1540   -1.4262   -0.0000 C   0  0  0  0  0  0  0  0  0  0  0  0
  -26.8729   -0.0943   -0.0000 C   0  0  0  0  0  0  0  0  0  0  0  0
  -26.9554   -2.6873   -0.0000 C   0  0  0  0  0  0  0  0  0  0  0  0
  1  2  1  0  0  0  0
  1  3  1  0  0  0  0
  2  4  2  0  0  0  0
  2  5  1  0  0  0  0
  3  6  2  0  0  0  0
  5  7  1  0  0  0  0
  7  8  1  0  0  0  0
  8  9  2  0  0  0  0
  8 10  1  0  0  0  0
 10 11  1  0  0  0  0
 11 12  1  0  0  0  0
 11 13  1  0  0  0  0
 12 14  1  0  0  0  0
 13 15  1  0  0  0  0
 14 16  2  0  0  0  0
 14 17  1  0  0  0  0
 15 18  1  0  0  0  0
 16 19  1  0  0  0  0
 17 20  2  0  0  0  0
 18 21  1  6  0  0  0
 18 22  1  0  0  0  0
 19 23  2  0  0  0  0
 21 24  1  0  0  0  0
 22 25  1  0  0  0  0
 24 26  2  0  0  0  0
 24 27  1  0  0  0  0
 25 28  2  0  0  0  0
 25 29  1  0  0  0  0
 27 30  1  1  0  0  0
 27 31  1  0  0  0  0
 28 32  1  0  0  0  0
 29 33  2  0  0  0  0
 30 34  1  0  0  0  0
 31 35  1  0  0  0  0
 31 36  1  0  0  0  0
 32 37  2  0  0  0  0
 34 38  2  0  0  0  0
 34 39  1  0  0  0  0
 39 40  1  0  0  0  0
 39 41  1  0  0  0  0
 40 42  1  0  0  0  0
 42 43  1  0  0  0  0
 42 44  2  0  0  0  0
 43 45  2  0  0  0  0
 44 46  1  0  0  0  0
 45 47  1  0  0  0  0
 47 48  1  0  0  0  0
 47 49  1  0  0  0  0
  4  6  1  0  0  0  0
 20 23  1  0  0  0  0
 33 37  1  0  0  0  0
 45 46  1  0  0  0  0
M  END
>  <MolRegNo>
1617697

>  <m>
=

>  <Value>
300

>  <Unit>
nM

>  <Type>
IC50

>  <pValue>
6.52

>  <Ligand Efficiency>
0

>  <Binding Efficiency>
0

>  <Surface Efficiency>
0

>  <Assay Index>
824434

>  <Assay Category>


>  <Assay Organism>
Homo sapiens

>  <Target ID>
17045

>  <Target Name>
Cytochrome P450 3A4

>  <Target Organism>
Homo sapiens

>  <Target Description>
Target is a single protein chain

>  <Sequence Accession>
P08684

>  <Reference>
Bioorg Med Chem Lett 24 (3), 989-994 (2014)

>  <Pubmed ID>
24411125

>  <DOI>
10.1016/j.bmcl.2013.12.058

$$$$
1617696
Actelion Java MolfileCreator 1.0

 42 44  0  0  0  0  0  0  0  0999 V2000
    0.0000   -0.0000   -0.0000 S   0  0  0  0  0  0  0  0  0  0  0  0
   -1.3801   -0.5898   -0.0000 C   0  0  0  0  0  0  0  0  0  0  0  0
    0.9791   -1.1088   -0.0000 C   0  0  0  0  0  0  0  0  0  0  0  0
   -1.2504   -2.0643   -0.0000 C   0  0  0  0  0  0  0  0  0  0  0  0
   -2.6776    0.1887   -0.0000 C   0  0  0  0  0  0  0  0  0  0  0  0
    0.2005   -2.3828   -0.0000 N   0  0  0  0  0  0  0  0  0  0  0  0
   -3.9988   -0.5308   -0.0000 O   0  0  0  0  0  0  0  0  0  0  0  0
   -5.2963    0.2359   -0.0000 C   0  0  0  0  0  0  0  0  0  0  0  0
   -5.2963    1.7458   -0.0000 O   0  0  0  0  0  0  0  0  0  0  0  0
   -6.6174   -0.4836   -0.0000 N   0  0  0  0  0  0  0  0  0  0  0  0
   -7.9386    0.2595   -0.0000 N   0  0  0  0  0  0  0  0  0  0  0  0
   -9.2361   -0.4954   -0.0000 C   0  0  0  0  0  0  0  0  0  0  0  0
  -10.5572    0.2477   -0.0000 C   0  0  0  0  0  0  0  0  0  0  0  0
  -11.8548   -0.5072   -0.0000 C   0  0  0  0  0  0  0  0  0  0  0  0
  -13.1759    0.2359   -0.0000 N   0  0  0  0  0  0  0  0  0  0  0  0
  -11.8430   -1.9935   -0.0000 C   0  0  0  0  0  0  0  0  0  0  0  0
  -14.4734   -0.5190   -0.0000 C   0  0  0  0  0  0  0  0  0  0  0  0
  -10.5454   -2.7130   -0.0000 C   0  0  0  0  0  0  0  0  0  0  0  0
  -14.4616   -2.0053   -0.0000 O   0  0  0  0  0  0  0  0  0  0  0  0
  -15.7946    0.2241   -0.0000 C   0  0  0  0  0  0  0  0  0  0  0  0
  -10.5454   -4.1993   -0.0000 C   0  0  0  0  0  0  0  0  0  0  0  0
   -9.2833   -1.9345   -0.0000 C   0  0  0  0  0  0  0  0  0  0  0  0
  -17.0921   -0.5308   -0.0000 N   0  0  0  0  0  0  0  0  0  0  0  0
  -15.8300    1.7340   -0.0000 C   0  0  0  0  0  0  0  0  0  0  0  0
   -9.2479   -4.9188   -0.0000 C   0  0  0  0  0  0  0  0  0  0  0  0
   -7.9858   -2.6423   -0.0000 C   0  0  0  0  0  0  0  0  0  0  0  0
  -18.4486    0.1415   -0.0000 C   0  0  0  0  0  0  0  0  0  0  0  0
  -14.5560    2.5125   -0.0000 C   0  0  0  0  0  0  0  0  0  0  0  0
  -17.1511    2.4771   -0.0000 C   0  0  0  0  0  0  0  0  0  0  0  0
   -7.9740   -4.1403   -0.0000 C   0  0  0  0  0  0  0  0  0  0  0  0
  -18.4604    1.6514   -0.0000 O   0  0  0  0  0  0  0  0  0  0  0  0
  -19.6990   -0.6842   -0.0000 N   0  0  0  0  0  0  0  0  0  0  0  0
  -21.0555   -0.0118   -0.0000 C   0  0  0  0  0  0  0  0  0  0  0  0
  -19.6990   -2.1704   -0.0000 C   0  0  0  0  0  0  0  0  0  0  0  0
  -22.3058   -0.8375   -0.0000 C   0  0  0  0  0  0  0  0  0  0  0  0
  -23.7331   -0.3067   -0.0000 N   0  0  0  0  0  0  0  0  0  0  0  0
  -22.3766   -2.3238   -0.0000 C   0  0  0  0  0  0  0  0  0  0  0  0
  -24.6650   -1.4745   -0.0000 C   0  0  0  0  0  0  0  0  0  0  0  0
  -23.8275   -2.7248   -0.0000 S   0  0  0  0  0  0  0  0  0  0  0  0
  -26.1749   -1.4155   -0.0000 C   0  0  0  0  0  0  0  0  0  0  0  0
  -26.8944   -0.0826   -0.0000 C   0  0  0  0  0  0  0  0  0  0  0  0
  -26.9770   -2.6776   -0.0000 C   0  0  0  0  0  0  0  0  0  0  0  0
  1  2  1  0  0  0  0
  1  3  1  0  0  0  0
  2  4  2  0  0  0  0
  2  5  1  0  0  0  0
  3  6  2  0  0  0  0
  5  7  1  0  0  0  0
  7  8  1  0  0  0  0
  8  9  2  0  0  0  0
  8 10  1  0  0  0  0
 10 11  1  0  0  0  0
 11 12  1  0  0  0  0
 12 13  1  0  0  0  0
 13 14  1  0  0  0  0
 14 15  1  6  0  0  0
 14 16  1  0  0  0  0
 15 17  1  0  0  0  0
 16 18  1  0  0  0  0
 17 19  2  0  0  0  0
 17 20  1  0  0  0  0
 18 21  2  0  0  0  0
 18 22  1  0  0  0  0
 20 23  1  1  0  0  0
 20 24  1  0  0  0  0
 21 25  1  0  0  0  0
 22 26  2  0  0  0  0
 23 27  1  0  0  0  0
 24 28  1  0  0  0  0
 24 29  1  0  0  0  0
 25 30  2  0  0  0  0
 27 31  2  0  0  0  0
 27 32  1  0  0  0  0
 32 33  1  0  0  0  0
 32 34  1  0  0  0  0
 33 35  1  0  0  0  0
 35 36  1  0  0  0  0
 35 37  2  0  0  0  0
 36 38  2  0  0  0  0
 37 39  1  0  0  0  0
 38 40  1  0  0  0  0
 40 41  1  0  0  0  0
 40 42  1  0  0  0  0
  4  6  1  0  0  0  0
 26 30  1  0  0  0  0
 38 39  1  0  0  0  0
M  END
>  <MolRegNo>
1617696

>  <m>
=

>  <Value>
630

>  <Unit>
nM

>  <Type>
IC50

>  <pValue>
6.2

>  <Ligand Efficiency>
0

>  <Binding Efficiency>
0

>  <Surface Efficiency>
0

>  <Assay Index>
824434

>  <Assay Category>


>  <Assay Organism>
Homo sapiens

>  <Target ID>
17045

>  <Target Name>
Cytochrome P450 3A4

>  <Target Organism>
Homo sapiens

>  <Target Description>
Target is a single protein chain

>  <Sequence Accession>
P08684

>  <Reference>
Bioorg Med Chem Lett 24 (3), 989-994 (2014)

>  <Pubmed ID>
24411125

>  <DOI>
10.1016/j.bmcl.2013.12.058

$$$$
1617695
Actelion Java MolfileCreator 1.0

 49 52  0  0  0  0  0  0  0  0999 V2000
    0.0000   -0.0000   -0.0000 S   0  0  0  0  0  0  0  0  0  0  0  0
   -1.3797   -0.5896   -0.0000 C   0  0  0  0  0  0  0  0  0  0  0  0
    0.9787   -1.1084   -0.0000 C   0  0  0  0  0  0  0  0  0  0  0  0
   -1.2499   -2.0636   -0.0000 C   0  0  0  0  0  0  0  0  0  0  0  0
   -2.6768    0.1769   -0.0000 C   0  0  0  0  0  0  0  0  0  0  0  0
    0.2123   -2.3820   -0.0000 N   0  0  0  0  0  0  0  0  0  0  0  0
   -3.9857   -0.5424   -0.0000 O   0  0  0  0  0  0  0  0  0  0  0  0
   -5.2828    0.2240   -0.0000 C   0  0  0  0  0  0  0  0  0  0  0  0
   -5.2828    1.7334   -0.0000 O   0  0  0  0  0  0  0  0  0  0  0  0
   -6.5917   -0.4953   -0.0000 N   0  0  0  0  0  0  0  0  0  0  0  0
   -6.6035   -1.9810   -0.0000 C   0  0  0  0  0  0  0  0  0  0  0  0
   -7.9124    0.2476   -0.0000 C   0  0  0  0  0  0  0  0  0  0  0  0
   -7.9124   -2.7239   -0.0000 C   0  0  0  0  0  0  0  0  0  0  0  0
   -9.2095   -0.5071   -0.0000 C   0  0  0  0  0  0  0  0  0  0  0  0
   -9.2213   -1.9575   -0.0000 C   0  0  0  0  0  0  0  0  0  0  0  0
   -7.9124   -4.1979   -0.0000 C   0  0  0  0  0  0  0  0  0  0  0  0
  -10.5302    0.2358   -0.0000 C   0  0  0  0  0  0  0  0  0  0  0  0
  -10.5302   -2.7004   -0.0000 C   0  0  0  0  0  0  0  0  0  0  0  0
   -9.2095   -4.9408   -0.0000 C   0  0  0  0  0  0  0  0  0  0  0  0
  -11.8273   -0.5188   -0.0000 C   0  0  0  0  0  0  0  0  0  0  0  0
  -10.5420   -4.1861   -0.0000 C   0  0  0  0  0  0  0  0  0  0  0  0
  -13.1480    0.2240   -0.0000 N   0  0  0  0  0  0  0  0  0  0  0  0
  -14.4451   -0.5306   -0.0000 C   0  0  0  0  0  0  0  0  0  0  0  0
  -13.1834    1.7334   -0.0000 C   0  0  0  0  0  0  0  0  0  0  0  0
  -14.4333   -2.0164   -0.0000 O   0  0  0  0  0  0  0  0  0  0  0  0
  -15.7658    0.2123   -0.0000 C   0  0  0  0  0  0  0  0  0  0  0  0
  -11.9099    2.5117   -0.0000 C   0  0  0  0  0  0  0  0  0  0  0  0
  -17.0629   -0.5424   -0.0000 N   0  0  0  0  0  0  0  0  0  0  0  0
  -15.8012    1.7216   -0.0000 C   0  0  0  0  0  0  0  0  0  0  0  0
  -10.6245    1.7924   -0.0000 C   0  0  0  0  0  0  0  0  0  0  0  0
  -11.9570    4.0093   -0.0000 C   0  0  0  0  0  0  0  0  0  0  0  0
  -18.4190    0.1297   -0.0000 C   0  0  0  0  0  0  0  0  0  0  0  0
  -14.5277    2.4999   -0.0000 C   0  0  0  0  0  0  0  0  0  0  0  0
  -17.1219    2.4645   -0.0000 C   0  0  0  0  0  0  0  0  0  0  0  0
   -9.3510    2.5706   -0.0000 C   0  0  0  0  0  0  0  0  0  0  0  0
  -10.6953    4.7875   -0.0000 C   0  0  0  0  0  0  0  0  0  0  0  0
  -18.4308    1.6391   -0.0000 O   0  0  0  0  0  0  0  0  0  0  0  0
  -19.6690   -0.6957   -0.0000 N   0  0  0  0  0  0  0  0  0  0  0  0
   -9.3864    4.0800   -0.0000 C   0  0  0  0  0  0  0  0  0  0  0  0
  -21.0250   -0.0236   -0.0000 C   0  0  0  0  0  0  0  0  0  0  0  0
  -19.6690   -2.1815   -0.0000 C   0  0  0  0  0  0  0  0  0  0  0  0
  -22.2750   -0.8490   -0.0000 C   0  0  0  0  0  0  0  0  0  0  0  0
  -23.7018   -0.3302   -0.0000 N   0  0  0  0  0  0  0  0  0  0  0  0
  -22.3457   -2.3348   -0.0000 C   0  0  0  0  0  0  0  0  0  0  0  0
  -24.6334   -1.4976   -0.0000 C   0  0  0  0  0  0  0  0  0  0  0  0
  -23.7961   -2.7357   -0.0000 S   0  0  0  0  0  0  0  0  0  0  0  0
  -26.1427   -1.4386   -0.0000 C   0  0  0  0  0  0  0  0  0  0  0  0
  -26.8621   -0.1061   -0.0000 C   0  0  0  0  0  0  0  0  0  0  0  0
  -26.9446   -2.7004   -0.0000 C   0  0  0  0  0  0  0  0  0  0  0  0
  1  2  1  0  0  0  0
  1  3  1  0  0  0  0
  2  4  2  0  0  0  0
  2  5  1  0  0  0  0
  3  6  2  0  0  0  0
  5  7  1  0  0  0  0
  7  8  1  0  0  0  0
  8  9  2  0  0  0  0
  8 10  1  0  0  0  0
 10 11  1  0  0  0  0
 10 12  1  0  0  0  0
 11 13  1  0  0  0  0
 12 14  1  0  0  0  0
 13 15  2  0  0  0  0
 13 16  1  0  0  0  0
 14 17  1  0  0  0  0
 15 18  1  0  0  0  0
 16 19  2  0  0  0  0
 17 20  1  0  0  0  0
 18 21  2  0  0  0  0
 20 22  1  0  0  0  0
 22 23  1  0  0  0  0
 22 24  1  0  0  0  0
 23 25  2  0  0  0  0
 23 26  1  0  0  0  0
 24 27  1  0  0  0  0
 26 28  1  1  0  0  0
 26 29  1  0  0  0  0
 27 30  2  0  0  0  0
 27 31  1  0  0  0  0
 28 32  1  0  0  0  0
 29 33  1  0  0  0  0
 29 34  1  0  0  0  0
 30 35  1  0  0  0  0
 31 36  2  0  0  0  0
 32 37  2  0  0  0  0
 32 38  1  0  0  0  0
 35 39  2  0  0  0  0
 38 40  1  0  0  0  0
 38 41  1  0  0  0  0
 40 42  1  0  0  0  0
 42 43  1  0  0  0  0
 42 44  2  0  0  0  0
 43 45  2  0  0  0  0
 44 46  1  0  0  0  0
 45 47  1  0  0  0  0
 47 48  1  0  0  0  0
 47 49  1  0  0  0  0
  4  6  1  0  0  0  0
 19 21  1  0  0  0  0
 36 39  1  0  0  0  0
 45 46  1  0  0  0  0
M  END
>  <MolRegNo>
1617695

>  <m>
=

>  <Value>
240

>  <Unit>
nM

>  <Type>
IC50

>  <pValue>
6.62

>  <Ligand Efficiency>
0

>  <Binding Efficiency>
0

>  <Surface Efficiency>
0

>  <Assay Index>
824434

>  <Assay Category>


>  <Assay Organism>
Homo sapiens

>  <Target ID>
17045

>  <Target Name>
Cytochrome P450 3A4

>  <Target Organism>
Homo sapiens

>  <Target Description>
Target is a single protein chain

>  <Sequence Accession>
P08684

>  <Reference>
Bioorg Med Chem Lett 24 (3), 989-994 (2014)

>  <Pubmed ID>
24411125

>  <DOI>
10.1016/j.bmcl.2013.12.058

$$$$
1617694
Actelion Java MolfileCreator 1.0

 35 36  0  0  0  0  0  0  0  0999 V2000
    0.0000   -0.0000   -0.0000 S   0  0  0  0  0  0  0  0  0  0  0  0
   -1.3772   -0.5885   -0.0000 C   0  0  0  0  0  0  0  0  0  0  0  0
    0.9770   -1.1065   -0.0000 C   0  0  0  0  0  0  0  0  0  0  0  0
   -1.2477   -2.0599   -0.0000 C   0  0  0  0  0  0  0  0  0  0  0  0
   -2.6720    0.1883   -0.0000 C   0  0  0  0  0  0  0  0  0  0  0  0
    0.2001   -2.3777   -0.0000 N   0  0  0  0  0  0  0  0  0  0  0  0
   -3.9903   -0.5297   -0.0000 O   0  0  0  0  0  0  0  0  0  0  0  0
   -5.2852    0.2472   -0.0000 C   0  0  0  0  0  0  0  0  0  0  0  0
   -5.2852    1.7539   -0.0000 O   0  0  0  0  0  0  0  0  0  0  0  0
   -6.6035   -0.4708   -0.0000 N   0  0  0  0  0  0  0  0  0  0  0  0
   -7.9218    0.2707   -0.0000 C   0  0  0  0  0  0  0  0  0  0  0  0
   -9.2166   -0.4826   -0.0000 C   0  0  0  0  0  0  0  0  0  0  0  0
  -10.5350    0.2590   -0.0000 C   0  0  0  0  0  0  0  0  0  0  0  0
  -11.8298   -0.4944   -0.0000 C   0  0  0  0  0  0  0  0  0  0  0  0
  -13.1481    0.2472   -0.0000 N   0  0  0  0  0  0  0  0  0  0  0  0
  -14.4429   -0.5062   -0.0000 C   0  0  0  0  0  0  0  0  0  0  0  0
  -14.4312   -1.9893   -0.0000 O   0  0  0  0  0  0  0  0  0  0  0  0
  -15.7613    0.2354   -0.0000 C   0  0  0  0  0  0  0  0  0  0  0  0
  -17.0561   -0.5179   -0.0000 N   0  0  0  0  0  0  0  0  0  0  0  0
  -15.7966    1.7421   -0.0000 C   0  0  0  0  0  0  0  0  0  0  0  0
  -18.4098    0.1530   -0.0000 C   0  0  0  0  0  0  0  0  0  0  0  0
  -14.5253    2.5190   -0.0000 C   0  0  0  0  0  0  0  0  0  0  0  0
  -17.1150    2.4837   -0.0000 C   0  0  0  0  0  0  0  0  0  0  0  0
  -18.4215    1.6597   -0.0000 O   0  0  0  0  0  0  0  0  0  0  0  0
  -19.6575   -0.6709   -0.0000 N   0  0  0  0  0  0  0  0  0  0  0  0
  -21.0111   -0.0000   -0.0000 C   0  0  0  0  0  0  0  0  0  0  0  0
  -19.6575   -2.1541   -0.0000 C   0  0  0  0  0  0  0  0  0  0  0  0
  -22.2589   -0.8240   -0.0000 C   0  0  0  0  0  0  0  0  0  0  0  0
  -23.6831   -0.2943   -0.0000 N   0  0  0  0  0  0  0  0  0  0  0  0
  -22.3295   -2.3071   -0.0000 C   0  0  0  0  0  0  0  0  0  0  0  0
  -24.6130   -1.4596   -0.0000 C   0  0  0  0  0  0  0  0  0  0  0  0
  -23.7773   -2.7073   -0.0000 S   0  0  0  0  0  0  0  0  0  0  0  0
  -26.1197   -1.4007   -0.0000 C   0  0  0  0  0  0  0  0  0  0  0  0
  -26.8378   -0.0706   -0.0000 C   0  0  0  0  0  0  0  0  0  0  0  0
  -26.9201   -2.6602   -0.0000 C   0  0  0  0  0  0  0  0  0  0  0  0
  1  2  1  0  0  0  0
  1  3  1  0  0  0  0
  2  4  2  0  0  0  0
  2  5  1  0  0  0  0
  3  6  2  0  0  0  0
  5  7  1  0  0  0  0
  7  8  1  0  0  0  0
  8  9  2  0  0  0  0
  8 10  1  0  0  0  0
 10 11  1  0  0  0  0
 11 12  1  0  0  0  0
 12 13  1  0  0  0  0
 13 14  1  0  0  0  0
 14 15  1  0  0  0  0
 15 16  1  0  0  0  0
 16 17  2  0  0  0  0
 16 18  1  0  0  0  0
 18 19  1  1  0  0  0
 18 20  1  0  0  0  0
 19 21  1  0  0  0  0
 20 22  1  0  0  0  0
 20 23  1  0  0  0  0
 21 24  2  0  0  0  0
 21 25  1  0  0  0  0
 25 26  1  0  0  0  0
 25 27  1  0  0  0  0
 26 28  1  0  0  0  0
 28 29  1  0  0  0  0
 28 30  2  0  0  0  0
 29 31  2  0  0  0  0
 30 32  1  0  0  0  0
 31 33  1  0  0  0  0
 33 34  1  0  0  0  0
 33 35  1  0  0  0  0
  4  6  1  0  0  0  0
 31 32  1  0  0  0  0
M  END
>  <MolRegNo>
1617694

>  <m>
=

>  <Value>
870

>  <Unit>
nM

>  <Type>
IC50

>  <pValue>
6.06

>  <Ligand Efficiency>
0

>  <Binding Efficiency>
0

>  <Surface Efficiency>
0

>  <Assay Index>
824434

>  <Assay Category>


>  <Assay Organism>
Homo sapiens

>  <Target ID>
17045

>  <Target Name>
Cytochrome P450 3A4

>  <Target Organism>
Homo sapiens

>  <Target Description>
Target is a single protein chain

>  <Sequence Accession>
P08684

>  <Reference>
Bioorg Med Chem Lett 24 (3), 989-994 (2014)

>  <Pubmed ID>
24411125

>  <DOI>
10.1016/j.bmcl.2013.12.058

$$$$
1617693
Actelion Java MolfileCreator 1.0

 49 52  0  0  0  0  0  0  0  0999 V2000
    0.0000   -0.0000   -0.0000 S   0  0  0  0  0  0  0  0  0  0  0  0
   -1.3787   -0.5892   -0.0000 C   0  0  0  0  0  0  0  0  0  0  0  0
    0.9780   -1.1076   -0.0000 C   0  0  0  0  0  0  0  0  0  0  0  0
   -1.2490   -2.0621   -0.0000 C   0  0  0  0  0  0  0  0  0  0  0  0
   -2.6748    0.1885   -0.0000 C   0  0  0  0  0  0  0  0  0  0  0  0
    0.2003   -2.3802   -0.0000 N   0  0  0  0  0  0  0  0  0  0  0  0
   -3.9946   -0.5303   -0.0000 O   0  0  0  0  0  0  0  0  0  0  0  0
   -5.2907    0.2475   -0.0000 C   0  0  0  0  0  0  0  0  0  0  0  0
   -5.2907    1.7557   -0.0000 O   0  0  0  0  0  0  0  0  0  0  0  0
   -6.6105   -0.4713   -0.0000 N   0  0  0  0  0  0  0  0  0  0  0  0
   -7.9302    0.2710   -0.0000 C   0  0  0  0  0  0  0  0  0  0  0  0
   -7.9656    1.7793   -0.0000 C   0  0  0  0  0  0  0  0  0  0  0  0
   -9.2264   -0.4831   -0.0000 C   0  0  0  0  0  0  0  0  0  0  0  0
   -9.2853    2.5216   -0.0000 C   0  0  0  0  0  0  0  0  0  0  0  0
  -10.5461    0.2592   -0.0000 C   0  0  0  0  0  0  0  0  0  0  0  0
   -9.3089    4.0299   -0.0000 C   0  0  0  0  0  0  0  0  0  0  0  0
  -10.5697    1.7675   -0.0000 C   0  0  0  0  0  0  0  0  0  0  0  0
  -11.8423   -0.4949   -0.0000 C   0  0  0  0  0  0  0  0  0  0  0  0
  -10.6286    4.7723   -0.0000 C   0  0  0  0  0  0  0  0  0  0  0  0
  -11.8894    2.4981   -0.0000 C   0  0  0  0  0  0  0  0  0  0  0  0
  -13.1620    0.2475   -0.0000 N   0  0  0  0  0  0  0  0  0  0  0  0
  -11.8305   -1.9796   -0.0000 C   0  0  0  0  0  0  0  0  0  0  0  0
  -11.9248    4.0181   -0.0000 C   0  0  0  0  0  0  0  0  0  0  0  0
  -14.4582   -0.5067   -0.0000 C   0  0  0  0  0  0  0  0  0  0  0  0
  -10.5343   -2.6984   -0.0000 C   0  0  0  0  0  0  0  0  0  0  0  0
  -14.4464   -1.9914   -0.0000 O   0  0  0  0  0  0  0  0  0  0  0  0
  -15.7779    0.2357   -0.0000 C   0  0  0  0  0  0  0  0  0  0  0  0
  -10.5343   -4.1831   -0.0000 C   0  0  0  0  0  0  0  0  0  0  0  0
   -9.2735   -1.9207   -0.0000 C   0  0  0  0  0  0  0  0  0  0  0  0
  -17.0741   -0.5185   -0.0000 N   0  0  0  0  0  0  0  0  0  0  0  0
  -15.8133    1.7439   -0.0000 C   0  0  0  0  0  0  0  0  0  0  0  0
   -9.2382   -4.9019   -0.0000 C   0  0  0  0  0  0  0  0  0  0  0  0
   -7.9773   -2.6277   -0.0000 C   0  0  0  0  0  0  0  0  0  0  0  0
  -18.4292    0.1532   -0.0000 C   0  0  0  0  0  0  0  0  0  0  0  0
  -14.5407    2.5216   -0.0000 C   0  0  0  0  0  0  0  0  0  0  0  0
  -17.1330    2.4863   -0.0000 C   0  0  0  0  0  0  0  0  0  0  0  0
   -7.9656   -4.1242   -0.0000 C   0  0  0  0  0  0  0  0  0  0  0  0
  -18.4410    1.6615   -0.0000 O   0  0  0  0  0  0  0  0  0  0  0  0
  -19.6782   -0.6717   -0.0000 N   0  0  0  0  0  0  0  0  0  0  0  0
  -21.0333   -0.0000   -0.0000 C   0  0  0  0  0  0  0  0  0  0  0  0
  -19.6782   -2.1564   -0.0000 C   0  0  0  0  0  0  0  0  0  0  0  0
  -22.2824   -0.8248   -0.0000 C   0  0  0  0  0  0  0  0  0  0  0  0
  -23.7081   -0.2946   -0.0000 N   0  0  0  0  0  0  0  0  0  0  0  0
  -22.3531   -2.3095   -0.0000 C   0  0  0  0  0  0  0  0  0  0  0  0
  -24.6390   -1.4611   -0.0000 C   0  0  0  0  0  0  0  0  0  0  0  0
  -23.8024   -2.7102   -0.0000 S   0  0  0  0  0  0  0  0  0  0  0  0
  -26.1473   -1.4022   -0.0000 C   0  0  0  0  0  0  0  0  0  0  0  0
  -26.8661   -0.0707   -0.0000 C   0  0  0  0  0  0  0  0  0  0  0  0
  -26.9486   -2.6630   -0.0000 C   0  0  0  0  0  0  0  0  0  0  0  0
  1  2  1  0  0  0  0
  1  3  1  0  0  0  0
  2  4  2  0  0  0  0
  2  5  1  0  0  0  0
  3  6  2  0  0  0  0
  5  7  1  0  0  0  0
  7  8  1  0  0  0  0
  8  9  2  0  0  0  0
  8 10  1  0  0  0  0
 11 10  1  1  0  0  0
 11 12  1  0  0  0  0
 11 13  1  0  0  0  0
 12 14  1  0  0  0  0
 13 15  1  0  0  0  0
 14 16  2  0  0  0  0
 14 17  1  0  0  0  0
 15 18  1  0  0  0  0
 16 19  1  0  0  0  0
 17 20  2  0  0  0  0
 18 21  1  1  0  0  0
 18 22  1  0  0  0  0
 19 23  2  0  0  0  0
 21 24  1  0  0  0  0
 22 25  1  0  0  0  0
 24 26  2  0  0  0  0
 24 27  1  0  0  0  0
 25 28  2  0  0  0  0
 25 29  1  0  0  0  0
 27 30  1  1  0  0  0
 27 31  1  0  0  0  0
 28 32  1  0  0  0  0
 29 33  2  0  0  0  0
 30 34  1  0  0  0  0
 31 35  1  0  0  0  0
 31 36  1  0  0  0  0
 32 37  2  0  0  0  0
 34 38  2  0  0  0  0
 34 39  1  0  0  0  0
 39 40  1  0  0  0  0
 39 41  1  0  0  0  0
 40 42  1  0  0  0  0
 42 43  1  0  0  0  0
 42 44  2  0  0  0  0
 43 45  2  0  0  0  0
 44 46  1  0  0  0  0
 45 47  1  0  0  0  0
 47 48  1  0  0  0  0
 47 49  1  0  0  0  0
  4  6  1  0  0  0  0
 20 23  1  0  0  0  0
 33 37  1  0  0  0  0
 45 46  1  0  0  0  0
M  END
>  <MolRegNo>
1617693

>  <m>
=

>  <Value>
140

>  <Unit>
nM

>  <Type>
IC50

>  <pValue>
6.85

>  <Ligand Efficiency>
0

>  <Binding Efficiency>
0

>  <Surface Efficiency>
0

>  <Assay Index>
824434

>  <Assay Category>


>  <Assay Organism>
Homo sapiens

>  <Target ID>
17045

>  <Target Name>
Cytochrome P450 3A4

>  <Target Organism>
Homo sapiens

>  <Target Description>
Target is a single protein chain

>  <Sequence Accession>
P08684

>  <Reference>
Bioorg Med Chem Lett 24 (3), 989-994 (2014)

>  <Pubmed ID>
24411125

>  <DOI>
10.1016/j.bmcl.2013.12.058

$$$$
1617692
Actelion Java MolfileCreator 1.0

 54 58  0  0  0  0  0  0  0  0999 V2000
    0.0000   -0.0000   -0.0000 S   0  0  0  0  0  0  0  0  0  0  0  0
   -1.3839   -0.5914   -0.0000 C   0  0  0  0  0  0  0  0  0  0  0  0
    0.9817   -1.1118   -0.0000 C   0  0  0  0  0  0  0  0  0  0  0  0
   -1.2538   -2.0699   -0.0000 C   0  0  0  0  0  0  0  0  0  0  0  0
   -2.6849    0.1774   -0.0000 C   0  0  0  0  0  0  0  0  0  0  0  0
    0.2129   -2.3892   -0.0000 N   0  0  0  0  0  0  0  0  0  0  0  0
   -3.9978   -0.5441   -0.0000 O   0  0  0  0  0  0  0  0  0  0  0  0
   -5.2989    0.2247   -0.0000 C   0  0  0  0  0  0  0  0  0  0  0  0
   -5.2989    1.7269   -0.0000 O   0  0  0  0  0  0  0  0  0  0  0  0
   -6.6118   -0.4968   -0.0000 N   0  0  0  0  0  0  0  0  0  0  0  0
   -7.9247    0.2484   -0.0000 C   0  0  0  0  0  0  0  0  0  0  0  0
   -9.2258   -0.5086   -0.0000 C   0  0  0  0  0  0  0  0  0  0  0  0
   -7.9602    1.7505   -0.0000 C   0  0  0  0  0  0  0  0  0  0  0  0
   -9.2494    1.0054   -0.0000 O   0  0  0  0  0  0  0  0  0  0  0  0
  -10.5387    0.2366   -0.0000 C   0  0  0  0  0  0  0  0  0  0  0  0
   -6.9193    2.8269   -0.0000 C   0  0  0  0  0  0  0  0  0  0  0  0
   -9.2731    2.5075   -0.0000 C   0  0  0  0  0  0  0  0  0  0  0  0
  -10.5742    1.7387   -0.0000 O   0  0  0  0  0  0  0  0  0  0  0  0
  -11.8398   -0.5204   -0.0000 C   0  0  0  0  0  0  0  0  0  0  0  0
   -5.4763    2.4484   -0.0000 C   0  0  0  0  0  0  0  0  0  0  0  0
   -7.3333    4.2817   -0.0000 C   0  0  0  0  0  0  0  0  0  0  0  0
   -7.9957    3.2763   -0.0000 C   0  0  0  0  0  0  0  0  0  0  0  0
   -9.2968    4.0097   -0.0000 C   0  0  0  0  0  0  0  0  0  0  0  0
  -13.1527    0.2247   -0.0000 N   0  0  0  0  0  0  0  0  0  0  0  0
  -11.8279   -1.9989   -0.0000 C   0  0  0  0  0  0  0  0  0  0  0  0
   -4.4355    3.5247   -0.0000 C   0  0  0  0  0  0  0  0  0  0  0  0
   -6.2925    5.3699   -0.0000 C   0  0  0  0  0  0  0  0  0  0  0  0
  -14.4537   -0.5323   -0.0000 C   0  0  0  0  0  0  0  0  0  0  0  0
  -12.5968   -3.2763   -0.0000 C   0  0  0  0  0  0  0  0  0  0  0  0
   -4.8495    4.9914   -0.0000 C   0  0  0  0  0  0  0  0  0  0  0  0
  -14.4419   -2.0107   -0.0000 O   0  0  0  0  0  0  0  0  0  0  0  0
  -15.7666    0.2129   -0.0000 C   0  0  0  0  0  0  0  0  0  0  0  0
  -14.1107   -3.2527   -0.0000 C   0  0  0  0  0  0  0  0  0  0  0  0
  -11.8752   -4.5538   -0.0000 C   0  0  0  0  0  0  0  0  0  0  0  0
  -17.0677   -0.5441   -0.0000 N   0  0  0  0  0  0  0  0  0  0  0  0
  -15.8021    1.7151   -0.0000 C   0  0  0  0  0  0  0  0  0  0  0  0
  -14.8795   -4.5301   -0.0000 C   0  0  0  0  0  0  0  0  0  0  0  0
  -12.6441   -5.8312   -0.0000 C   0  0  0  0  0  0  0  0  0  0  0  0
  -18.4279    0.1183   -0.0000 C   0  0  0  0  0  0  0  0  0  0  0  0
  -14.5247    2.4957   -0.0000 C   0  0  0  0  0  0  0  0  0  0  0  0
  -17.1150    2.4602   -0.0000 C   0  0  0  0  0  0  0  0  0  0  0  0
  -14.1580   -5.8193   -0.0000 C   0  0  0  0  0  0  0  0  0  0  0  0
  -18.4398    1.6204   -0.0000 O   0  0  0  0  0  0  0  0  0  0  0  0
  -19.6817   -0.7097   -0.0000 N   0  0  0  0  0  0  0  0  0  0  0  0
  -21.0419   -0.0355   -0.0000 C   0  0  0  0  0  0  0  0  0  0  0  0
  -19.6817   -2.1882   -0.0000 C   0  0  0  0  0  0  0  0  0  0  0  0
  -22.2957   -0.8634   -0.0000 C   0  0  0  0  0  0  0  0  0  0  0  0
  -23.7150   -0.3430   -0.0000 N   0  0  0  0  0  0  0  0  0  0  0  0
  -22.3666   -2.3419   -0.0000 C   0  0  0  0  0  0  0  0  0  0  0  0
  -24.6376   -1.5140   -0.0000 C   0  0  0  0  0  0  0  0  0  0  0  0
  -23.8215   -2.7441   -0.0000 S   0  0  0  0  0  0  0  0  0  0  0  0
  -26.1397   -1.4548   -0.0000 C   0  0  0  0  0  0  0  0  0  0  0  0
  -26.8612   -0.1183   -0.0000 C   0  0  0  0  0  0  0  0  0  0  0  0
  -26.9440   -2.7086   -0.0000 C   0  0  0  0  0  0  0  0  0  0  0  0
  1  2  1  0  0  0  0
  1  3  1  0  0  0  0
  2  4  2  0  0  0  0
  2  5  1  0  0  0  0
  3  6  2  0  0  0  0
  5  7  1  0  0  0  0
  7  8  1  0  0  0  0
  8  9  2  0  0  0  0
  8 10  1  0  0  0  0
 11 10  1  1  0  0  0
 11 12  1  0  0  0  0
 11 13  1  0  0  0  0
 12 14  1  6  0  0  0
 12 15  1  0  0  0  0
 13 16  1  0  0  0  0
 14 17  1  0  0  0  0
 15 18  1  6  0  0  0
 15 19  1  0  0  0  0
 16 20  2  0  0  0  0
 16 21  1  0  0  0  0
 17 22  1  0  0  0  0
 17 23  1  0  0  0  0
 19 24  1  1  0  0  0
 19 25  1  0  0  0  0
 20 26  1  0  0  0  0
 21 27  2  0  0  0  0
 24 28  1  0  0  0  0
 25 29  1  0  0  0  0
 26 30  2  0  0  0  0
 28 31  2  0  0  0  0
 28 32  1  0  0  0  0
 29 33  2  0  0  0  0
 29 34  1  0  0  0  0
 32 35  1  6  0  0  0
 32 36  1  0  0  0  0
 33 37  1  0  0  0  0
 34 38  2  0  0  0  0
 35 39  1  0  0  0  0
 36 40  1  0  0  0  0
 36 41  1  0  0  0  0
 37 42  2  0  0  0  0
 39 43  2  0  0  0  0
 39 44  1  0  0  0  0
 44 45  1  0  0  0  0
 44 46  1  0  0  0  0
 45 47  1  0  0  0  0
 47 48  1  0  0  0  0
 47 49  2  0  0  0  0
 48 50  2  0  0  0  0
 49 51  1  0  0  0  0
 50 52  1  0  0  0  0
 52 53  1  0  0  0  0
 52 54  1  0  0  0  0
  4  6  1  0  0  0  0
 17 18  1  0  0  0  0
 27 30  1  0  0  0  0
 38 42  1  0  0  0  0
 50 51  1  0  0  0  0
M  END
>  <MolRegNo>
1617692

>  <m>
=

>  <Value>
310

>  <Unit>
nM

>  <Type>
IC50

>  <pValue>
6.51

>  <Ligand Efficiency>
0

>  <Binding Efficiency>
0

>  <Surface Efficiency>
0

>  <Assay Index>
824434

>  <Assay Category>


>  <Assay Organism>
Homo sapiens

>  <Target ID>
17045

>  <Target Name>
Cytochrome P450 3A4

>  <Target Organism>
Homo sapiens

>  <Target Description>
Target is a single protein chain

>  <Sequence Accession>
P08684

>  <Reference>
Bioorg Med Chem Lett 24 (3), 989-994 (2014)

>  <Pubmed ID>
24411125

>  <DOI>
10.1016/j.bmcl.2013.12.058

$$$$
1617691
Actelion Java MolfileCreator 1.0

 37 38  0  0  0  0  0  0  0  0999 V2000
    0.0000   -0.0000   -0.0000 S   0  0  0  0  0  0  0  0  0  0  0  0
   -1.3774   -0.5886   -0.0000 C   0  0  0  0  0  0  0  0  0  0  0  0
    0.9772   -1.1067   -0.0000 C   0  0  0  0  0  0  0  0  0  0  0  0
   -1.2479   -2.0603   -0.0000 C   0  0  0  0  0  0  0  0  0  0  0  0
   -2.6725    0.1884   -0.0000 C   0  0  0  0  0  0  0  0  0  0  0  0
    0.2001   -2.3781   -0.0000 N   0  0  0  0  0  0  0  0  0  0  0  0
   -3.9910   -0.5298   -0.0000 O   0  0  0  0  0  0  0  0  0  0  0  0
   -5.2861    0.2472   -0.0000 C   0  0  0  0  0  0  0  0  0  0  0  0
   -5.2861    1.7542   -0.0000 O   0  0  0  0  0  0  0  0  0  0  0  0
   -6.6046   -0.4709   -0.0000 N   0  0  0  0  0  0  0  0  0  0  0  0
   -7.9232    0.2708   -0.0000 C   0  0  0  0  0  0  0  0  0  0  0  0
   -9.2182   -0.4827   -0.0000 C   0  0  0  0  0  0  0  0  0  0  0  0
   -7.9585    1.7777   -0.0000 C   0  0  0  0  0  0  0  0  0  0  0  0
  -10.5368    0.2590   -0.0000 C   0  0  0  0  0  0  0  0  0  0  0  0
  -11.8318   -0.4945   -0.0000 C   0  0  0  0  0  0  0  0  0  0  0  0
  -13.1504    0.2472   -0.0000 N   0  0  0  0  0  0  0  0  0  0  0  0
  -11.8200   -1.9779   -0.0000 C   0  0  0  0  0  0  0  0  0  0  0  0
  -14.4454   -0.5062   -0.0000 C   0  0  0  0  0  0  0  0  0  0  0  0
  -14.4336   -1.9896   -0.0000 O   0  0  0  0  0  0  0  0  0  0  0  0
  -15.7640    0.2355   -0.0000 C   0  0  0  0  0  0  0  0  0  0  0  0
  -17.0590   -0.5180   -0.0000 N   0  0  0  0  0  0  0  0  0  0  0  0
  -15.7993    1.7424   -0.0000 C   0  0  0  0  0  0  0  0  0  0  0  0
  -18.4129    0.1530   -0.0000 C   0  0  0  0  0  0  0  0  0  0  0  0
  -14.5278    2.5194   -0.0000 C   0  0  0  0  0  0  0  0  0  0  0  0
  -17.1179    2.4841   -0.0000 C   0  0  0  0  0  0  0  0  0  0  0  0
  -18.4247    1.6600   -0.0000 O   0  0  0  0  0  0  0  0  0  0  0  0
  -19.6608   -0.6711   -0.0000 N   0  0  0  0  0  0  0  0  0  0  0  0
  -21.0147   -0.0000   -0.0000 C   0  0  0  0  0  0  0  0  0  0  0  0
  -19.6608   -2.1545   -0.0000 C   0  0  0  0  0  0  0  0  0  0  0  0
  -22.2627   -0.8241   -0.0000 C   0  0  0  0  0  0  0  0  0  0  0  0
  -23.6872   -0.2943   -0.0000 N   0  0  0  0  0  0  0  0  0  0  0  0
  -22.3333   -2.3075   -0.0000 C   0  0  0  0  0  0  0  0  0  0  0  0
  -24.6172   -1.4598   -0.0000 C   0  0  0  0  0  0  0  0  0  0  0  0
  -23.7814   -2.7078   -0.0000 S   0  0  0  0  0  0  0  0  0  0  0  0
  -26.1242   -1.4010   -0.0000 C   0  0  0  0  0  0  0  0  0  0  0  0
  -26.8423   -0.0706   -0.0000 C   0  0  0  0  0  0  0  0  0  0  0  0
  -26.9247   -2.6607   -0.0000 C   0  0  0  0  0  0  0  0  0  0  0  0
  1  2  1  0  0  0  0
  1  3  1  0  0  0  0
  2  4  2  0  0  0  0
  2  5  1  0  0  0  0
  3  6  2  0  0  0  0
  5  7  1  0  0  0  0
  7  8  1  0  0  0  0
  8  9  2  0  0  0  0
  8 10  1  0  0  0  0
 11 10  1  6  0  0  0
 11 12  1  0  0  0  0
 11 13  1  0  0  0  0
 12 14  1  0  0  0  0
 14 15  1  0  0  0  0
 15 16  1  6  0  0  0
 15 17  1  0  0  0  0
 16 18  1  0  0  0  0
 18 19  2  0  0  0  0
 18 20  1  0  0  0  0
 20 21  1  1  0  0  0
 20 22  1  0  0  0  0
 21 23  1  0  0  0  0
 22 24  1  0  0  0  0
 22 25  1  0  0  0  0
 23 26  2  0  0  0  0
 23 27  1  0  0  0  0
 27 28  1  0  0  0  0
 27 29  1  0  0  0  0
 28 30  1  0  0  0  0
 30 31  1  0  0  0  0
 30 32  2  0  0  0  0
 31 33  2  0  0  0  0
 32 34  1  0  0  0  0
 33 35  1  0  0  0  0
 35 36  1  0  0  0  0
 35 37  1  0  0  0  0
  4  6  1  0  0  0  0
 33 34  1  0  0  0  0
M  END
>  <MolRegNo>
1617691

>  <m>
=

>  <Value>
510

>  <Unit>
nM

>  <Type>
IC50

>  <pValue>
6.29

>  <Ligand Efficiency>
0

>  <Binding Efficiency>
0

>  <Surface Efficiency>
0

>  <Assay Index>
824434

>  <Assay Category>


>  <Assay Organism>
Homo sapiens

>  <Target ID>
17045

>  <Target Name>
Cytochrome P450 3A4

>  <Target Organism>
Homo sapiens

>  <Target Description>
Target is a single protein chain

>  <Sequence Accession>
P08684

>  <Reference>
Bioorg Med Chem Lett 24 (3), 989-994 (2014)

>  <Pubmed ID>
24411125

>  <DOI>
10.1016/j.bmcl.2013.12.058

$$$$
1617690
Actelion Java MolfileCreator 1.0

 39 40  0  0  0  0  0  0  0  0999 V2000
    0.0000   -0.0000   -0.0000 S   0  0  0  0  0  0  0  0  0  0  0  0
   -1.3776   -0.5887   -0.0000 C   0  0  0  0  0  0  0  0  0  0  0  0
    0.9773   -1.1068   -0.0000 C   0  0  0  0  0  0  0  0  0  0  0  0
   -1.2481   -2.0605   -0.0000 C   0  0  0  0  0  0  0  0  0  0  0  0
   -2.6727    0.1884   -0.0000 C   0  0  0  0  0  0  0  0  0  0  0  0
    0.2002   -2.3784   -0.0000 N   0  0  0  0  0  0  0  0  0  0  0  0
   -3.9915   -0.5298   -0.0000 O   0  0  0  0  0  0  0  0  0  0  0  0
   -5.2866    0.2473   -0.0000 C   0  0  0  0  0  0  0  0  0  0  0  0
   -5.2866    1.7544   -0.0000 O   0  0  0  0  0  0  0  0  0  0  0  0
   -6.6053   -0.4710   -0.0000 N   0  0  0  0  0  0  0  0  0  0  0  0
   -7.9240    0.2708   -0.0000 C   0  0  0  0  0  0  0  0  0  0  0  0
   -9.2192   -0.4827   -0.0000 C   0  0  0  0  0  0  0  0  0  0  0  0
   -7.9594    1.7779   -0.0000 C   0  0  0  0  0  0  0  0  0  0  0  0
  -10.5379    0.2590   -0.0000 C   0  0  0  0  0  0  0  0  0  0  0  0
   -9.2781    2.5197   -0.0000 C   0  0  0  0  0  0  0  0  0  0  0  0
  -11.8331   -0.4945   -0.0000 C   0  0  0  0  0  0  0  0  0  0  0  0
  -13.1518    0.2473   -0.0000 N   0  0  0  0  0  0  0  0  0  0  0  0
  -11.8213   -1.9781   -0.0000 C   0  0  0  0  0  0  0  0  0  0  0  0
  -14.4469   -0.5063   -0.0000 C   0  0  0  0  0  0  0  0  0  0  0  0
  -10.5261   -2.6963   -0.0000 C   0  0  0  0  0  0  0  0  0  0  0  0
  -14.4352   -1.9898   -0.0000 O   0  0  0  0  0  0  0  0  0  0  0  0
  -15.7656    0.2355   -0.0000 C   0  0  0  0  0  0  0  0  0  0  0  0
  -17.0608   -0.5181   -0.0000 N   0  0  0  0  0  0  0  0  0  0  0  0
  -15.8010    1.7426   -0.0000 C   0  0  0  0  0  0  0  0  0  0  0  0
  -18.4148    0.1531   -0.0000 C   0  0  0  0  0  0  0  0  0  0  0  0
  -14.5294    2.5197   -0.0000 C   0  0  0  0  0  0  0  0  0  0  0  0
  -17.1197    2.4844   -0.0000 C   0  0  0  0  0  0  0  0  0  0  0  0
  -18.4266    1.6602   -0.0000 O   0  0  0  0  0  0  0  0  0  0  0  0
  -19.6629   -0.6711   -0.0000 N   0  0  0  0  0  0  0  0  0  0  0  0
  -21.0169   -0.0000   -0.0000 C   0  0  0  0  0  0  0  0  0  0  0  0
  -19.6629   -2.1547   -0.0000 C   0  0  0  0  0  0  0  0  0  0  0  0
  -22.2650   -0.8242   -0.0000 C   0  0  0  0  0  0  0  0  0  0  0  0
  -23.6897   -0.2944   -0.0000 N   0  0  0  0  0  0  0  0  0  0  0  0
  -22.3356   -2.3077   -0.0000 C   0  0  0  0  0  0  0  0  0  0  0  0
  -24.6198   -1.4600   -0.0000 C   0  0  0  0  0  0  0  0  0  0  0  0
  -23.7839   -2.7081   -0.0000 S   0  0  0  0  0  0  0  0  0  0  0  0
  -26.1269   -1.4011   -0.0000 C   0  0  0  0  0  0  0  0  0  0  0  0
  -26.8452   -0.0706   -0.0000 C   0  0  0  0  0  0  0  0  0  0  0  0
  -26.9276   -2.6610   -0.0000 C   0  0  0  0  0  0  0  0  0  0  0  0
  1  2  1  0  0  0  0
  1  3  1  0  0  0  0
  2  4  2  0  0  0  0
  2  5  1  0  0  0  0
  3  6  2  0  0  0  0
  5  7  1  0  0  0  0
  7  8  1  0  0  0  0
  8  9  2  0  0  0  0
  8 10  1  0  0  0  0
 11 10  1  6  0  0  0
 11 12  1  0  0  0  0
 11 13  1  0  0  0  0
 12 14  1  0  0  0  0
 13 15  1  0  0  0  0
 14 16  1  0  0  0  0
 16 17  1  6  0  0  0
 16 18  1  0  0  0  0
 17 19  1  0  0  0  0
 18 20  1  0  0  0  0
 19 21  2  0  0  0  0
 19 22  1  0  0  0  0
 22 23  1  1  0  0  0
 22 24  1  0  0  0  0
 23 25  1  0  0  0  0
 24 26  1  0  0  0  0
 24 27  1  0  0  0  0
 25 28  2  0  0  0  0
 25 29  1  0  0  0  0
 29 30  1  0  0  0  0
 29 31  1  0  0  0  0
 30 32  1  0  0  0  0
 32 33  1  0  0  0  0
 32 34  2  0  0  0  0
 33 35  2  0  0  0  0
 34 36  1  0  0  0  0
 35 37  1  0  0  0  0
 37 38  1  0  0  0  0
 37 39  1  0  0  0  0
  4  6  1  0  0  0  0
 35 36  1  0  0  0  0
M  END
>  <MolRegNo>
1617690

>  <m>
=

>  <Value>
190

>  <Unit>
nM

>  <Type>
IC50

>  <pValue>
6.72

>  <Ligand Efficiency>
0

>  <Binding Efficiency>
0

>  <Surface Efficiency>
0

>  <Assay Index>
824434

>  <Assay Category>


>  <Assay Organism>
Homo sapiens

>  <Target ID>
17045

>  <Target Name>
Cytochrome P450 3A4

>  <Target Organism>
Homo sapiens

>  <Target Description>
Target is a single protein chain

>  <Sequence Accession>
P08684

>  <Reference>
Bioorg Med Chem Lett 24 (3), 989-994 (2014)

>  <Pubmed ID>
24411125

>  <DOI>
10.1016/j.bmcl.2013.12.058

$$$$
1617689
Actelion Java MolfileCreator 1.0

 45 47  0  0  0  0  0  0  0  0999 V2000
    0.0000   -0.0000   -0.0000 S   0  0  0  0  0  0  0  0  0  0  0  0
   -1.3777   -0.5888   -0.0000 C   0  0  0  0  0  0  0  0  0  0  0  0
    0.9773   -1.1069   -0.0000 C   0  0  0  0  0  0  0  0  0  0  0  0
   -1.2482   -2.0607   -0.0000 C   0  0  0  0  0  0  0  0  0  0  0  0
   -2.6730    0.1766   -0.0000 C   0  0  0  0  0  0  0  0  0  0  0  0
    0.2002   -2.3786   -0.0000 N   0  0  0  0  0  0  0  0  0  0  0  0
   -3.9918   -0.5417   -0.0000 O   0  0  0  0  0  0  0  0  0  0  0  0
   -5.2871    0.2355   -0.0000 C   0  0  0  0  0  0  0  0  0  0  0  0
   -5.2871    1.7427   -0.0000 O   0  0  0  0  0  0  0  0  0  0  0  0
   -6.6059   -0.4828   -0.0000 N   0  0  0  0  0  0  0  0  0  0  0  0
   -7.9247    0.2591   -0.0000 C   0  0  0  0  0  0  0  0  0  0  0  0
   -7.9600    1.7663   -0.0000 C   0  0  0  0  0  0  0  0  0  0  0  0
   -9.2200   -0.4946   -0.0000 C   0  0  0  0  0  0  0  0  0  0  0  0
   -9.2789    2.5081   -0.0000 C   0  0  0  0  0  0  0  0  0  0  0  0
  -10.5388    0.2473   -0.0000 C   0  0  0  0  0  0  0  0  0  0  0  0
   -9.3024    4.0153   -0.0000 C   0  0  0  0  0  0  0  0  0  0  0  0
  -10.5624    1.7545   -0.0000 C   0  0  0  0  0  0  0  0  0  0  0  0
  -11.8341   -0.5063   -0.0000 C   0  0  0  0  0  0  0  0  0  0  0  0
  -10.6212    4.7572   -0.0000 C   0  0  0  0  0  0  0  0  0  0  0  0
  -11.8812    2.4846   -0.0000 C   0  0  0  0  0  0  0  0  0  0  0  0
  -13.1529    0.2355   -0.0000 N   0  0  0  0  0  0  0  0  0  0  0  0
  -11.8223   -1.9900   -0.0000 C   0  0  0  0  0  0  0  0  0  0  0  0
  -11.9165    4.0036   -0.0000 C   0  0  0  0  0  0  0  0  0  0  0  0
  -14.4482   -0.5181   -0.0000 C   0  0  0  0  0  0  0  0  0  0  0  0
  -10.5270   -2.7083   -0.0000 C   0  0  0  0  0  0  0  0  0  0  0  0
  -14.4364   -2.0018   -0.0000 O   0  0  0  0  0  0  0  0  0  0  0  0
  -15.7670    0.2237   -0.0000 C   0  0  0  0  0  0  0  0  0  0  0  0
   -9.2671   -1.9311   -0.0000 C   0  0  0  0  0  0  0  0  0  0  0  0
  -17.0623   -0.5299   -0.0000 N   0  0  0  0  0  0  0  0  0  0  0  0
  -15.8023    1.7310   -0.0000 C   0  0  0  0  0  0  0  0  0  0  0  0
  -18.4164    0.1413   -0.0000 C   0  0  0  0  0  0  0  0  0  0  0  0
  -14.5306    2.5081   -0.0000 C   0  0  0  0  0  0  0  0  0  0  0  0
  -17.1212    2.4728   -0.0000 C   0  0  0  0  0  0  0  0  0  0  0  0
  -18.4282    1.6485   -0.0000 O   0  0  0  0  0  0  0  0  0  0  0  0
  -19.6646   -0.6830   -0.0000 N   0  0  0  0  0  0  0  0  0  0  0  0
  -21.0187   -0.0118   -0.0000 C   0  0  0  0  0  0  0  0  0  0  0  0
  -19.6646   -2.1666   -0.0000 C   0  0  0  0  0  0  0  0  0  0  0  0
  -22.2669   -0.8360   -0.0000 C   0  0  0  0  0  0  0  0  0  0  0  0
  -23.6917   -0.3179   -0.0000 N   0  0  0  0  0  0  0  0  0  0  0  0
  -22.3376   -2.3197   -0.0000 C   0  0  0  0  0  0  0  0  0  0  0  0
  -24.6220   -1.4837   -0.0000 C   0  0  0  0  0  0  0  0  0  0  0  0
  -23.7859   -2.7201   -0.0000 S   0  0  0  0  0  0  0  0  0  0  0  0
  -26.1292   -1.4248   -0.0000 C   0  0  0  0  0  0  0  0  0  0  0  0
  -26.8475   -0.0942   -0.0000 C   0  0  0  0  0  0  0  0  0  0  0  0
  -26.9299   -2.6847   -0.0000 C   0  0  0  0  0  0  0  0  0  0  0  0
  1  2  1  0  0  0  0
  1  3  1  0  0  0  0
  2  4  2  0  0  0  0
  2  5  1  0  0  0  0
  3  6  2  0  0  0  0
  5  7  1  0  0  0  0
  7  8  1  0  0  0  0
  8  9  2  0  0  0  0
  8 10  1  0  0  0  0
 11 10  1  6  0  0  0
 11 12  1  0  0  0  0
 11 13  1  0  0  0  0
 12 14  1  0  0  0  0
 13 15  1  0  0  0  0
 14 16  2  0  0  0  0
 14 17  1  0  0  0  0
 15 18  1  0  0  0  0
 16 19  1  0  0  0  0
 17 20  2  0  0  0  0
 18 21  1  6  0  0  0
 18 22  1  0  0  0  0
 19 23  2  0  0  0  0
 21 24  1  0  0  0  0
 22 25  1  0  0  0  0
 24 26  2  0  0  0  0
 24 27  1  0  0  0  0
 25 28  1  0  0  0  0
 27 29  1  1  0  0  0
 27 30  1  0  0  0  0
 29 31  1  0  0  0  0
 30 32  1  0  0  0  0
 30 33  1  0  0  0  0
 31 34  2  0  0  0  0
 31 35  1  0  0  0  0
 35 36  1  0  0  0  0
 35 37  1  0  0  0  0
 36 38  1  0  0  0  0
 38 39  1  0  0  0  0
 38 40  2  0  0  0  0
 39 41  2  0  0  0  0
 40 42  1  0  0  0  0
 41 43  1  0  0  0  0
 43 44  1  0  0  0  0
 43 45  1  0  0  0  0
  4  6  1  0  0  0  0
 20 23  1  0  0  0  0
 41 42  1  0  0  0  0
M  END
>  <MolRegNo>
1617689

>  <m>
=

>  <Value>
130

>  <Unit>
nM

>  <Type>
IC50

>  <pValue>
6.89

>  <Ligand Efficiency>
0

>  <Binding Efficiency>
0

>  <Surface Efficiency>
0

>  <Assay Index>
824434

>  <Assay Category>


>  <Assay Organism>
Homo sapiens

>  <Target ID>
17045

>  <Target Name>
Cytochrome P450 3A4

>  <Target Organism>
Homo sapiens

>  <Target Description>
Target is a single protein chain

>  <Sequence Accession>
P08684

>  <Reference>
Bioorg Med Chem Lett 24 (3), 989-994 (2014)

>  <Pubmed ID>
24411125

>  <DOI>
10.1016/j.bmcl.2013.12.058

$$$$
1617688
Actelion Java MolfileCreator 1.0

 45 47  0  0  0  0  0  0  0  0999 V2000
    0.0000   -0.0000   -0.0000 S   0  0  0  0  0  0  0  0  0  0  0  0
   -1.3799   -0.5897   -0.0000 C   0  0  0  0  0  0  0  0  0  0  0  0
    0.9789   -1.1087   -0.0000 C   0  0  0  0  0  0  0  0  0  0  0  0
   -1.2502   -2.0640   -0.0000 C   0  0  0  0  0  0  0  0  0  0  0  0
   -2.6773    0.1887   -0.0000 C   0  0  0  0  0  0  0  0  0  0  0  0
    0.2005   -2.3824   -0.0000 N   0  0  0  0  0  0  0  0  0  0  0  0
   -3.9983   -0.5307   -0.0000 O   0  0  0  0  0  0  0  0  0  0  0  0
   -5.2956    0.2477   -0.0000 C   0  0  0  0  0  0  0  0  0  0  0  0
   -5.2956    1.7573   -0.0000 O   0  0  0  0  0  0  0  0  0  0  0  0
   -6.6166   -0.4718   -0.0000 N   0  0  0  0  0  0  0  0  0  0  0  0
   -7.9375    0.2713   -0.0000 C   0  0  0  0  0  0  0  0  0  0  0  0
   -9.2349   -0.4836   -0.0000 C   0  0  0  0  0  0  0  0  0  0  0  0
   -7.9729    1.7809   -0.0000 C   0  0  0  0  0  0  0  0  0  0  0  0
  -10.5559    0.2595   -0.0000 C   0  0  0  0  0  0  0  0  0  0  0  0
   -9.2939    2.5240   -0.0000 C   0  0  0  0  0  0  0  0  0  0  0  0
  -11.8532   -0.4954   -0.0000 C   0  0  0  0  0  0  0  0  0  0  0  0
  -10.5794    1.7691   -0.0000 C   0  0  0  0  0  0  0  0  0  0  0  0
  -13.1742    0.2477   -0.0000 N   0  0  0  0  0  0  0  0  0  0  0  0
  -11.8414   -1.9814   -0.0000 C   0  0  0  0  0  0  0  0  0  0  0  0
  -14.4715   -0.5072   -0.0000 C   0  0  0  0  0  0  0  0  0  0  0  0
  -10.5441   -2.7009   -0.0000 C   0  0  0  0  0  0  0  0  0  0  0  0
  -14.4597   -1.9932   -0.0000 O   0  0  0  0  0  0  0  0  0  0  0  0
  -15.7925    0.2359   -0.0000 C   0  0  0  0  0  0  0  0  0  0  0  0
  -10.5441   -4.1870   -0.0000 C   0  0  0  0  0  0  0  0  0  0  0  0
   -9.2821   -1.9225   -0.0000 C   0  0  0  0  0  0  0  0  0  0  0  0
  -17.0899   -0.5189   -0.0000 N   0  0  0  0  0  0  0  0  0  0  0  0
  -15.8279    1.7455   -0.0000 C   0  0  0  0  0  0  0  0  0  0  0  0
   -9.2467   -4.9064   -0.0000 C   0  0  0  0  0  0  0  0  0  0  0  0
   -7.9847   -2.6301   -0.0000 C   0  0  0  0  0  0  0  0  0  0  0  0
  -18.4462    0.1533   -0.0000 C   0  0  0  0  0  0  0  0  0  0  0  0
  -14.5541    2.5240   -0.0000 C   0  0  0  0  0  0  0  0  0  0  0  0
  -17.1488    2.4886   -0.0000 C   0  0  0  0  0  0  0  0  0  0  0  0
   -7.9729   -4.1280   -0.0000 C   0  0  0  0  0  0  0  0  0  0  0  0
  -18.4580    1.6630   -0.0000 O   0  0  0  0  0  0  0  0  0  0  0  0
  -19.6964   -0.6723   -0.0000 N   0  0  0  0  0  0  0  0  0  0  0  0
  -21.0527   -0.0000   -0.0000 C   0  0  0  0  0  0  0  0  0  0  0  0
  -19.6964   -2.1583   -0.0000 C   0  0  0  0  0  0  0  0  0  0  0  0
  -22.3029   -0.8256   -0.0000 C   0  0  0  0  0  0  0  0  0  0  0  0
  -23.7300   -0.3067   -0.0000 N   0  0  0  0  0  0  0  0  0  0  0  0
  -22.3737   -2.3117   -0.0000 C   0  0  0  0  0  0  0  0  0  0  0  0
  -24.6618   -1.4743   -0.0000 C   0  0  0  0  0  0  0  0  0  0  0  0
  -23.8244   -2.7127   -0.0000 S   0  0  0  0  0  0  0  0  0  0  0  0
  -26.1714   -1.4153   -0.0000 C   0  0  0  0  0  0  0  0  0  0  0  0
  -26.8909   -0.0826   -0.0000 C   0  0  0  0  0  0  0  0  0  0  0  0
  -26.9734   -2.6773   -0.0000 C   0  0  0  0  0  0  0  0  0  0  0  0
  1  2  1  0  0  0  0
  1  3  1  0  0  0  0
  2  4  2  0  0  0  0
  2  5  1  0  0  0  0
  3  6  2  0  0  0  0
  5  7  1  0  0  0  0
  7  8  1  0  0  0  0
  8  9  2  0  0  0  0
  8 10  1  0  0  0  0
 11 10  1  6  0  0  0
 11 12  1  0  0  0  0
 11 13  1  0  0  0  0
 12 14  1  0  0  0  0
 13 15  1  0  0  0  0
 14 16  1  0  0  0  0
 15 17  1  0  0  0  0
 16 18  1  6  0  0  0
 16 19  1  0  0  0  0
 18 20  1  0  0  0  0
 19 21  1  0  0  0  0
 20 22  2  0  0  0  0
 20 23  1  0  0  0  0
 21 24  2  0  0  0  0
 21 25  1  0  0  0  0
 23 26  1  1  0  0  0
 23 27  1  0  0  0  0
 24 28  1  0  0  0  0
 25 29  2  0  0  0  0
 26 30  1  0  0  0  0
 27 31  1  0  0  0  0
 27 32  1  0  0  0  0
 28 33  2  0  0  0  0
 30 34  2  0  0  0  0
 30 35  1  0  0  0  0
 35 36  1  0  0  0  0
 35 37  1  0  0  0  0
 36 38  1  0  0  0  0
 38 39  1  0  0  0  0
 38 40  2  0  0  0  0
 39 41  2  0  0  0  0
 40 42  1  0  0  0  0
 41 43  1  0  0  0  0
 43 44  1  0  0  0  0
 43 45  1  0  0  0  0
  4  6  1  0  0  0  0
 29 33  1  0  0  0  0
 41 42  1  0  0  0  0
M  END
>  <MolRegNo>
1617688

>  <m>
=

>  <Value>
130

>  <Unit>
nM

>  <Type>
IC50

>  <pValue>
6.89

>  <Ligand Efficiency>
0

>  <Binding Efficiency>
0

>  <Surface Efficiency>
0

>  <Assay Index>
824434

>  <Assay Category>


>  <Assay Organism>
Homo sapiens

>  <Target ID>
17045

>  <Target Name>
Cytochrome P450 3A4

>  <Target Organism>
Homo sapiens

>  <Target Description>
Target is a single protein chain

>  <Sequence Accession>
P08684

>  <Reference>
Bioorg Med Chem Lett 24 (3), 989-994 (2014)

>  <Pubmed ID>
24411125

>  <DOI>
10.1016/j.bmcl.2013.12.058

$$$$
1617712
Actelion Java MolfileCreator 1.0

 50 53  0  0  0  0  0  0  0  0999 V2000
    0.0000   -0.0000   -0.0000 S   0  0  0  0  0  0  0  0  0  0  0  0
   -1.3782   -0.5890   -0.0000 C   0  0  0  0  0  0  0  0  0  0  0  0
    0.9777   -1.1073   -0.0000 C   0  0  0  0  0  0  0  0  0  0  0  0
   -1.2486   -2.0614   -0.0000 C   0  0  0  0  0  0  0  0  0  0  0  0
   -2.6739    0.1885   -0.0000 C   0  0  0  0  0  0  0  0  0  0  0  0
    0.2003   -2.3794   -0.0000 N   0  0  0  0  0  0  0  0  0  0  0  0
   -3.9932   -0.5301   -0.0000 O   0  0  0  0  0  0  0  0  0  0  0  0
   -5.2890    0.2474   -0.0000 C   0  0  0  0  0  0  0  0  0  0  0  0
   -5.2890    1.7551   -0.0000 O   0  0  0  0  0  0  0  0  0  0  0  0
   -6.6083   -0.4712   -0.0000 N   0  0  0  0  0  0  0  0  0  0  0  0
   -7.9275    0.2709   -0.0000 C   0  0  0  0  0  0  0  0  0  0  0  0
   -7.9629    1.7787   -0.0000 C   0  0  0  0  0  0  0  0  0  0  0  0
   -9.2233   -0.4830   -0.0000 C   0  0  0  0  0  0  0  0  0  0  0  0
   -9.2822    2.5208   -0.0000 C   0  0  0  0  0  0  0  0  0  0  0  0
  -10.5426    0.2591   -0.0000 C   0  0  0  0  0  0  0  0  0  0  0  0
   -9.3057    4.0286   -0.0000 C   0  0  0  0  0  0  0  0  0  0  0  0
  -10.5661    1.7669   -0.0000 C   0  0  0  0  0  0  0  0  0  0  0  0
  -11.8383   -0.4947   -0.0000 C   0  0  0  0  0  0  0  0  0  0  0  0
  -10.6250    4.7707   -0.0000 C   0  0  0  0  0  0  0  0  0  0  0  0
  -11.8854    2.4972   -0.0000 C   0  0  0  0  0  0  0  0  0  0  0  0
  -13.1576    0.2474   -0.0000 N   0  0  0  0  0  0  0  0  0  0  0  0
  -11.8265   -1.9789   -0.0000 C   0  0  0  0  0  0  0  0  0  0  0  0
  -11.9208    4.0168   -0.0000 C   0  0  0  0  0  0  0  0  0  0  0  0
  -14.4533   -0.5065   -0.0000 C   0  0  0  0  0  0  0  0  0  0  0  0
  -13.1929    1.7551   -0.0000 C   0  0  0  0  0  0  0  0  0  0  0  0
  -10.5308   -2.6975   -0.0000 C   0  0  0  0  0  0  0  0  0  0  0  0
  -14.4416   -1.9907   -0.0000 O   0  0  0  0  0  0  0  0  0  0  0  0
  -15.7726    0.2356   -0.0000 C   0  0  0  0  0  0  0  0  0  0  0  0
  -10.5308   -4.1817   -0.0000 C   0  0  0  0  0  0  0  0  0  0  0  0
   -9.2704   -1.9083   -0.0000 C   0  0  0  0  0  0  0  0  0  0  0  0
  -17.0684   -0.5183   -0.0000 N   0  0  0  0  0  0  0  0  0  0  0  0
  -15.8080    1.7434   -0.0000 C   0  0  0  0  0  0  0  0  0  0  0  0
   -9.2351   -4.9002   -0.0000 C   0  0  0  0  0  0  0  0  0  0  0  0
   -7.9747   -2.6150   -0.0000 C   0  0  0  0  0  0  0  0  0  0  0  0
  -18.4230    0.1531   -0.0000 C   0  0  0  0  0  0  0  0  0  0  0  0
  -14.5358    2.5208   -0.0000 C   0  0  0  0  0  0  0  0  0  0  0  0
  -17.1273    2.4855   -0.0000 C   0  0  0  0  0  0  0  0  0  0  0  0
   -7.9629   -4.1228   -0.0000 C   0  0  0  0  0  0  0  0  0  0  0  0
  -18.4348    1.6609   -0.0000 O   0  0  0  0  0  0  0  0  0  0  0  0
  -19.6716   -0.6714   -0.0000 N   0  0  0  0  0  0  0  0  0  0  0  0
  -21.0263   -0.0000   -0.0000 C   0  0  0  0  0  0  0  0  0  0  0  0
  -19.6716   -2.1556   -0.0000 C   0  0  0  0  0  0  0  0  0  0  0  0
  -22.2749   -0.8246   -0.0000 C   0  0  0  0  0  0  0  0  0  0  0  0
  -23.7002   -0.2945   -0.0000 N   0  0  0  0  0  0  0  0  0  0  0  0
  -22.3456   -2.3088   -0.0000 C   0  0  0  0  0  0  0  0  0  0  0  0
  -24.6308   -1.4606   -0.0000 C   0  0  0  0  0  0  0  0  0  0  0  0
  -23.7944   -2.7093   -0.0000 S   0  0  0  0  0  0  0  0  0  0  0  0
  -26.1385   -1.4018   -0.0000 C   0  0  0  0  0  0  0  0  0  0  0  0
  -26.8571   -0.0707   -0.0000 C   0  0  0  0  0  0  0  0  0  0  0  0
  -26.9395   -2.6621   -0.0000 C   0  0  0  0  0  0  0  0  0  0  0  0
  1  2  1  0  0  0  0
  1  3  1  0  0  0  0
  2  4  2  0  0  0  0
  2  5  1  0  0  0  0
  3  6  2  0  0  0  0
  5  7  1  0  0  0  0
  7  8  1  0  0  0  0
  8  9  2  0  0  0  0
  8 10  1  0  0  0  0
 11 10  1  6  0  0  0
 11 12  1  0  0  0  0
 11 13  1  0  0  0  0
 12 14  1  0  0  0  0
 13 15  1  0  0  0  0
 14 16  2  0  0  0  0
 14 17  1  0  0  0  0
 15 18  1  0  0  0  0
 16 19  1  0  0  0  0
 17 20  2  0  0  0  0
 18 21  1  6  0  0  0
 18 22  1  0  0  0  0
 19 23  2  0  0  0  0
 21 24  1  0  0  0  0
 21 25  1  0  0  0  0
 22 26  1  0  0  0  0
 24 27  2  0  0  0  0
 24 28  1  0  0  0  0
 26 29  2  0  0  0  0
 26 30  1  0  0  0  0
 28 31  1  1  0  0  0
 28 32  1  0  0  0  0
 29 33  1  0  0  0  0
 30 34  2  0  0  0  0
 31 35  1  0  0  0  0
 32 36  1  0  0  0  0
 32 37  1  0  0  0  0
 33 38  2  0  0  0  0
 35 39  2  0  0  0  0
 35 40  1  0  0  0  0
 40 41  1  0  0  0  0
 40 42  1  0  0  0  0
 41 43  1  0  0  0  0
 43 44  1  0  0  0  0
 43 45  2  0  0  0  0
 44 46  2  0  0  0  0
 45 47  1  0  0  0  0
 46 48  1  0  0  0  0
 48 49  1  0  0  0  0
 48 50  1  0  0  0  0
  4  6  1  0  0  0  0
 20 23  1  0  0  0  0
 34 38  1  0  0  0  0
 46 47  1  0  0  0  0
M  END
>  <MolRegNo>
1617712

>  <m>
=

>  <Value>
410

>  <Unit>
nM

>  <Type>
IC50

>  <pValue>
6.39

>  <Ligand Efficiency>
0

>  <Binding Efficiency>
0

>  <Surface Efficiency>
0

>  <Assay Index>
824434

>  <Assay Category>


>  <Assay Organism>
Homo sapiens

>  <Target ID>
17045

>  <Target Name>
Cytochrome P450 3A4

>  <Target Organism>
Homo sapiens

>  <Target Description>
Target is a single protein chain

>  <Sequence Accession>
P08684

>  <Reference>
Bioorg Med Chem Lett 24 (3), 989-994 (2014)

>  <Pubmed ID>
24411125

>  <DOI>
10.1016/j.bmcl.2013.12.058

$$$$
1617687
Actelion Java MolfileCreator 1.0

 50 53  0  0  0  0  0  0  0  0999 V2000
    0.0000   -0.0000   -0.0000 S   0  0  0  0  0  0  0  0  0  0  0  0
   -1.3793   -0.5894   -0.0000 C   0  0  0  0  0  0  0  0  0  0  0  0
    0.9785   -1.1081   -0.0000 C   0  0  0  0  0  0  0  0  0  0  0  0
   -1.2496   -2.0630   -0.0000 C   0  0  0  0  0  0  0  0  0  0  0  0
   -2.6760    0.1768   -0.0000 C   0  0  0  0  0  0  0  0  0  0  0  0
    0.2004   -2.3813   -0.0000 N   0  0  0  0  0  0  0  0  0  0  0  0
   -3.9963   -0.5423   -0.0000 O   0  0  0  0  0  0  0  0  0  0  0  0
   -5.2931    0.2358   -0.0000 C   0  0  0  0  0  0  0  0  0  0  0  0
   -5.2931    1.7447   -0.0000 O   0  0  0  0  0  0  0  0  0  0  0  0
   -6.6134   -0.4833   -0.0000 N   0  0  0  0  0  0  0  0  0  0  0  0
   -7.9337    0.2593   -0.0000 C   0  0  0  0  0  0  0  0  0  0  0  0
   -6.6252   -1.9687   -0.0000 C   0  0  0  0  0  0  0  0  0  0  0  0
   -7.9691    1.7683   -0.0000 C   0  0  0  0  0  0  0  0  0  0  0  0
   -9.2305   -0.4951   -0.0000 C   0  0  0  0  0  0  0  0  0  0  0  0
   -9.2894    2.5110   -0.0000 C   0  0  0  0  0  0  0  0  0  0  0  0
  -10.5508    0.2476   -0.0000 C   0  0  0  0  0  0  0  0  0  0  0  0
   -9.3130    4.0199   -0.0000 C   0  0  0  0  0  0  0  0  0  0  0  0
  -10.5744    1.7565   -0.0000 C   0  0  0  0  0  0  0  0  0  0  0  0
  -11.8475   -0.5069   -0.0000 C   0  0  0  0  0  0  0  0  0  0  0  0
  -10.6333    4.7626   -0.0000 C   0  0  0  0  0  0  0  0  0  0  0  0
  -11.8947    2.4874   -0.0000 C   0  0  0  0  0  0  0  0  0  0  0  0
  -13.1678    0.2358   -0.0000 N   0  0  0  0  0  0  0  0  0  0  0  0
  -11.8357   -1.9923   -0.0000 C   0  0  0  0  0  0  0  0  0  0  0  0
  -11.9300    4.0081   -0.0000 C   0  0  0  0  0  0  0  0  0  0  0  0
  -14.4646   -0.5187   -0.0000 C   0  0  0  0  0  0  0  0  0  0  0  0
  -10.5390   -2.7114   -0.0000 C   0  0  0  0  0  0  0  0  0  0  0  0
  -14.4528   -2.0041   -0.0000 O   0  0  0  0  0  0  0  0  0  0  0  0
  -15.7849    0.2240   -0.0000 C   0  0  0  0  0  0  0  0  0  0  0  0
  -10.5390   -4.1967   -0.0000 C   0  0  0  0  0  0  0  0  0  0  0  0
   -9.2776   -1.9333   -0.0000 C   0  0  0  0  0  0  0  0  0  0  0  0
  -17.0817   -0.5305   -0.0000 N   0  0  0  0  0  0  0  0  0  0  0  0
  -15.8203    1.7329   -0.0000 C   0  0  0  0  0  0  0  0  0  0  0  0
   -9.2422   -4.9158   -0.0000 C   0  0  0  0  0  0  0  0  0  0  0  0
   -7.9809   -2.6406   -0.0000 C   0  0  0  0  0  0  0  0  0  0  0  0
  -18.4373    0.1415   -0.0000 C   0  0  0  0  0  0  0  0  0  0  0  0
  -14.5471    2.5110   -0.0000 C   0  0  0  0  0  0  0  0  0  0  0  0
  -17.1406    2.4756   -0.0000 C   0  0  0  0  0  0  0  0  0  0  0  0
   -7.9691   -4.1378   -0.0000 C   0  0  0  0  0  0  0  0  0  0  0  0
  -18.4491    1.6504   -0.0000 O   0  0  0  0  0  0  0  0  0  0  0  0
  -19.6869   -0.6837   -0.0000 N   0  0  0  0  0  0  0  0  0  0  0  0
  -21.0426   -0.0118   -0.0000 C   0  0  0  0  0  0  0  0  0  0  0  0
  -19.6869   -2.1691   -0.0000 C   0  0  0  0  0  0  0  0  0  0  0  0
  -22.2922   -0.8370   -0.0000 C   0  0  0  0  0  0  0  0  0  0  0  0
  -23.7186   -0.3183   -0.0000 N   0  0  0  0  0  0  0  0  0  0  0  0
  -22.3629   -2.3224   -0.0000 C   0  0  0  0  0  0  0  0  0  0  0  0
  -24.6499   -1.4854   -0.0000 C   0  0  0  0  0  0  0  0  0  0  0  0
  -23.8129   -2.7232   -0.0000 S   0  0  0  0  0  0  0  0  0  0  0  0
  -26.1589   -1.4264   -0.0000 C   0  0  0  0  0  0  0  0  0  0  0  0
  -26.8780   -0.0943   -0.0000 C   0  0  0  0  0  0  0  0  0  0  0  0
  -26.9605   -2.6878   -0.0000 C   0  0  0  0  0  0  0  0  0  0  0  0
  1  2  1  0  0  0  0
  1  3  1  0  0  0  0
  2  4  2  0  0  0  0
  2  5  1  0  0  0  0
  3  6  2  0  0  0  0
  5  7  1  0  0  0  0
  7  8  1  0  0  0  0
  8  9  2  0  0  0  0
  8 10  1  0  0  0  0
 11 10  1  6  0  0  0
 10 12  1  0  0  0  0
 11 13  1  0  0  0  0
 11 14  1  0  0  0  0
 13 15  1  0  0  0  0
 14 16  1  0  0  0  0
 15 17  2  0  0  0  0
 15 18  1  0  0  0  0
 16 19  1  0  0  0  0
 17 20  1  0  0  0  0
 18 21  2  0  0  0  0
 19 22  1  6  0  0  0
 19 23  1  0  0  0  0
 20 24  2  0  0  0  0
 22 25  1  0  0  0  0
 23 26  1  0  0  0  0
 25 27  2  0  0  0  0
 25 28  1  0  0  0  0
 26 29  2  0  0  0  0
 26 30  1  0  0  0  0
 28 31  1  1  0  0  0
 28 32  1  0  0  0  0
 29 33  1  0  0  0  0
 30 34  2  0  0  0  0
 31 35  1  0  0  0  0
 32 36  1  0  0  0  0
 32 37  1  0  0  0  0
 33 38  2  0  0  0  0
 35 39  2  0  0  0  0
 35 40  1  0  0  0  0
 40 41  1  0  0  0  0
 40 42  1  0  0  0  0
 41 43  1  0  0  0  0
 43 44  1  0  0  0  0
 43 45  2  0  0  0  0
 44 46  2  0  0  0  0
 45 47  1  0  0  0  0
 46 48  1  0  0  0  0
 48 49  1  0  0  0  0
 48 50  1  0  0  0  0
  4  6  1  0  0  0  0
 21 24  1  0  0  0  0
 34 38  1  0  0  0  0
 46 47  1  0  0  0  0
M  END
>  <MolRegNo>
1617687

>  <m>
=

>  <Value>
710

>  <Unit>
nM

>  <Type>
IC50

>  <pValue>
6.15

>  <Ligand Efficiency>
0

>  <Binding Efficiency>
0

>  <Surface Efficiency>
0

>  <Assay Index>
824434

>  <Assay Category>


>  <Assay Organism>
Homo sapiens

>  <Target ID>
17045

>  <Target Name>
Cytochrome P450 3A4

>  <Target Organism>
Homo sapiens

>  <Target Description>
Target is a single protein chain

>  <Sequence Accession>
P08684

>  <Reference>
Bioorg Med Chem Lett 24 (3), 989-994 (2014)

>  <Pubmed ID>
24411125

>  <DOI>
10.1016/j.bmcl.2013.12.058

$$$$
1617686
Actelion Java MolfileCreator 1.0

 49 52  0  0  0  0  0  0  0  0999 V2000
    0.0000   -0.0000   -0.0000 S   0  0  0  0  0  0  0  0  0  0  0  0
   -1.3782   -0.5890   -0.0000 C   0  0  0  0  0  0  0  0  0  0  0  0
    0.9777   -1.1073   -0.0000 C   0  0  0  0  0  0  0  0  0  0  0  0
   -1.2487   -2.0615   -0.0000 C   0  0  0  0  0  0  0  0  0  0  0  0
   -2.6740    0.1885   -0.0000 C   0  0  0  0  0  0  0  0  0  0  0  0
    0.2120   -2.3795   -0.0000 N   0  0  0  0  0  0  0  0  0  0  0  0
   -3.9934   -0.5301   -0.0000 O   0  0  0  0  0  0  0  0  0  0  0  0
   -5.2891    0.2474   -0.0000 C   0  0  0  0  0  0  0  0  0  0  0  0
   -5.2891    1.7552   -0.0000 O   0  0  0  0  0  0  0  0  0  0  0  0
   -6.6085   -0.4712   -0.0000 N   0  0  0  0  0  0  0  0  0  0  0  0
   -7.9278    0.2709   -0.0000 C   0  0  0  0  0  0  0  0  0  0  0  0
   -9.2236   -0.4830   -0.0000 C   0  0  0  0  0  0  0  0  0  0  0  0
   -7.9632    1.7788   -0.0000 C   0  0  0  0  0  0  0  0  0  0  0  0
  -10.5430    0.2592   -0.0000 C   0  0  0  0  0  0  0  0  0  0  0  0
   -9.2825    2.5209   -0.0000 C   0  0  0  0  0  0  0  0  0  0  0  0
  -11.8387   -0.4948   -0.0000 C   0  0  0  0  0  0  0  0  0  0  0  0
   -9.3061    4.0287   -0.0000 C   0  0  0  0  0  0  0  0  0  0  0  0
  -10.5665    1.7670   -0.0000 C   0  0  0  0  0  0  0  0  0  0  0  0
  -13.1581    0.2474   -0.0000 N   0  0  0  0  0  0  0  0  0  0  0  0
  -11.8270   -1.9790   -0.0000 C   0  0  0  0  0  0  0  0  0  0  0  0
  -10.6254    4.7708   -0.0000 C   0  0  0  0  0  0  0  0  0  0  0  0
  -11.8859    2.4973   -0.0000 C   0  0  0  0  0  0  0  0  0  0  0  0
  -14.4539   -0.5065   -0.0000 C   0  0  0  0  0  0  0  0  0  0  0  0
  -10.5312   -2.6976   -0.0000 C   0  0  0  0  0  0  0  0  0  0  0  0
  -11.9212    4.0169   -0.0000 C   0  0  0  0  0  0  0  0  0  0  0  0
  -14.4421   -1.9908   -0.0000 O   0  0  0  0  0  0  0  0  0  0  0  0
  -15.7732    0.2356   -0.0000 C   0  0  0  0  0  0  0  0  0  0  0  0
  -10.5312   -4.1818   -0.0000 C   0  0  0  0  0  0  0  0  0  0  0  0
   -9.2707   -1.9083   -0.0000 C   0  0  0  0  0  0  0  0  0  0  0  0
  -17.0690   -0.5183   -0.0000 N   0  0  0  0  0  0  0  0  0  0  0  0
  -15.8085    1.7434   -0.0000 C   0  0  0  0  0  0  0  0  0  0  0  0
   -9.2354   -4.9004   -0.0000 C   0  0  0  0  0  0  0  0  0  0  0  0
   -7.9750   -2.6151   -0.0000 C   0  0  0  0  0  0  0  0  0  0  0  0
  -18.4237    0.1531   -0.0000 C   0  0  0  0  0  0  0  0  0  0  0  0
  -14.5363    2.5209   -0.0000 C   0  0  0  0  0  0  0  0  0  0  0  0
  -17.1279    2.4855   -0.0000 C   0  0  0  0  0  0  0  0  0  0  0  0
   -7.9632   -4.1229   -0.0000 C   0  0  0  0  0  0  0  0  0  0  0  0
  -18.4354    1.6610   -0.0000 O   0  0  0  0  0  0  0  0  0  0  0  0
  -19.6723   -0.6715   -0.0000 N   0  0  0  0  0  0  0  0  0  0  0  0
  -21.0270   -0.0000   -0.0000 C   0  0  0  0  0  0  0  0  0  0  0  0
  -19.6723   -2.1557   -0.0000 C   0  0  0  0  0  0  0  0  0  0  0  0
  -22.2757   -0.8246   -0.0000 C   0  0  0  0  0  0  0  0  0  0  0  0
  -23.7010   -0.2945   -0.0000 N   0  0  0  0  0  0  0  0  0  0  0  0
  -22.3464   -2.3088   -0.0000 C   0  0  0  0  0  0  0  0  0  0  0  0
  -24.6316   -1.4607   -0.0000 C   0  0  0  0  0  0  0  0  0  0  0  0
  -23.7953   -2.7094   -0.0000 S   0  0  0  0  0  0  0  0  0  0  0  0
  -26.1395   -1.4018   -0.0000 C   0  0  0  0  0  0  0  0  0  0  0  0
  -26.8580   -0.0707   -0.0000 C   0  0  0  0  0  0  0  0  0  0  0  0
  -26.9405   -2.6622   -0.0000 C   0  0  0  0  0  0  0  0  0  0  0  0
  1  2  1  0  0  0  0
  1  3  1  0  0  0  0
  2  4  2  0  0  0  0
  2  5  1  0  0  0  0
  3  6  2  0  0  0  0
  5  7  1  0  0  0  0
  7  8  1  0  0  0  0
  8  9  2  0  0  0  0
  8 10  1  0  0  0  0
 11 10  1  6  0  0  0
 11 12  1  0  0  0  0
 11 13  1  0  0  0  0
 12 14  2  0  0  0  0
 13 15  1  0  0  0  0
 14 16  1  0  0  0  0
 15 17  2  0  0  0  0
 15 18  1  0  0  0  0
 16 19  1  6  0  0  0
 16 20  1  0  0  0  0
 17 21  1  0  0  0  0
 18 22  2  0  0  0  0
 19 23  1  0  0  0  0
 20 24  1  0  0  0  0
 21 25  2  0  0  0  0
 23 26  2  0  0  0  0
 23 27  1  0  0  0  0
 24 28  2  0  0  0  0
 24 29  1  0  0  0  0
 27 30  1  1  0  0  0
 27 31  1  0  0  0  0
 28 32  1  0  0  0  0
 29 33  2  0  0  0  0
 30 34  1  0  0  0  0
 31 35  1  0  0  0  0
 31 36  1  0  0  0  0
 32 37  2  0  0  0  0
 34 38  2  0  0  0  0
 34 39  1  0  0  0  0
 39 40  1  0  0  0  0
 39 41  1  0  0  0  0
 40 42  1  0  0  0  0
 42 43  1  0  0  0  0
 42 44  2  0  0  0  0
 43 45  2  0  0  0  0
 44 46  1  0  0  0  0
 45 47  1  0  0  0  0
 47 48  1  0  0  0  0
 47 49  1  0  0  0  0
  4  6  1  0  0  0  0
 22 25  1  0  0  0  0
 33 37  1  0  0  0  0
 45 46  1  0  0  0  0
M  END
>  <MolRegNo>
1617686

>  <m>
=

>  <Value>
150

>  <Unit>
nM

>  <Type>
IC50

>  <pValue>
6.82

>  <Ligand Efficiency>
0

>  <Binding Efficiency>
0

>  <Surface Efficiency>
0

>  <Assay Index>
824434

>  <Assay Category>


>  <Assay Organism>
Homo sapiens

>  <Target ID>
17045

>  <Target Name>
Cytochrome P450 3A4

>  <Target Organism>
Homo sapiens

>  <Target Description>
Target is a single protein chain

>  <Sequence Accession>
P08684

>  <Reference>
Bioorg Med Chem Lett 24 (3), 989-994 (2014)

>  <Pubmed ID>
24411125

>  <DOI>
10.1016/j.bmcl.2013.12.058

$$$$
1617685
Actelion Java MolfileCreator 1.0

 50 53  0  0  0  0  0  0  0  0999 V2000
    0.0000   -0.0000   -0.0000 S   0  0  0  0  0  0  0  0  0  0  0  0
   -1.3795   -0.5895   -0.0000 C   0  0  0  0  0  0  0  0  0  0  0  0
    0.9786   -1.1083   -0.0000 C   0  0  0  0  0  0  0  0  0  0  0  0
   -1.2498   -2.0634   -0.0000 C   0  0  0  0  0  0  0  0  0  0  0  0
   -2.6765    0.1769   -0.0000 C   0  0  0  0  0  0  0  0  0  0  0  0
    0.2122   -2.3818   -0.0000 N   0  0  0  0  0  0  0  0  0  0  0  0
   -3.9971   -0.5424   -0.0000 O   0  0  0  0  0  0  0  0  0  0  0  0
   -5.2941    0.2240   -0.0000 C   0  0  0  0  0  0  0  0  0  0  0  0
   -5.2941    1.7333   -0.0000 O   0  0  0  0  0  0  0  0  0  0  0  0
   -6.6147   -0.4952   -0.0000 N   0  0  0  0  0  0  0  0  0  0  0  0
   -7.9353    0.2476   -0.0000 C   0  0  0  0  0  0  0  0  0  0  0  0
   -9.2323   -0.5070   -0.0000 C   0  0  0  0  0  0  0  0  0  0  0  0
   -7.9707    1.7569   -0.0000 C   0  0  0  0  0  0  0  0  0  0  0  0
   -9.2205   -1.9927   -0.0000 O   0  0  0  0  0  0  0  0  0  0  0  0
  -10.5529    0.2358   -0.0000 C   0  0  0  0  0  0  0  0  0  0  0  0
   -9.2913    2.4997   -0.0000 C   0  0  0  0  0  0  0  0  0  0  0  0
  -11.8499   -0.5188   -0.0000 C   0  0  0  0  0  0  0  0  0  0  0  0
   -9.3148    4.0089   -0.0000 C   0  0  0  0  0  0  0  0  0  0  0  0
  -10.5765    1.7451   -0.0000 C   0  0  0  0  0  0  0  0  0  0  0  0
  -13.1705    0.2240   -0.0000 N   0  0  0  0  0  0  0  0  0  0  0  0
  -11.8381   -2.0045   -0.0000 C   0  0  0  0  0  0  0  0  0  0  0  0
  -10.6354    4.7518   -0.0000 C   0  0  0  0  0  0  0  0  0  0  0  0
  -11.8971    2.4761   -0.0000 C   0  0  0  0  0  0  0  0  0  0  0  0
  -14.4675   -0.5306   -0.0000 C   0  0  0  0  0  0  0  0  0  0  0  0
  -10.7887   -3.0539   -0.0000 C   0  0  0  0  0  0  0  0  0  0  0  0
  -11.9324    3.9971   -0.0000 C   0  0  0  0  0  0  0  0  0  0  0  0
  -14.4557   -2.0163   -0.0000 O   0  0  0  0  0  0  0  0  0  0  0  0
  -15.7881    0.2122   -0.0000 C   0  0  0  0  0  0  0  0  0  0  0  0
  -11.1896   -4.4806   -0.0000 C   0  0  0  0  0  0  0  0  0  0  0  0
   -9.3620   -2.6530   -0.0000 C   0  0  0  0  0  0  0  0  0  0  0  0
  -17.0851   -0.5424   -0.0000 N   0  0  0  0  0  0  0  0  0  0  0  0
  -15.8234    1.7215   -0.0000 C   0  0  0  0  0  0  0  0  0  0  0  0
  -10.1520   -5.5300   -0.0000 C   0  0  0  0  0  0  0  0  0  0  0  0
   -8.3126   -3.6906   -0.0000 C   0  0  0  0  0  0  0  0  0  0  0  0
  -18.4410    0.1297   -0.0000 C   0  0  0  0  0  0  0  0  0  0  0  0
  -14.5500    2.4997   -0.0000 C   0  0  0  0  0  0  0  0  0  0  0  0
  -17.1440    2.4643   -0.0000 C   0  0  0  0  0  0  0  0  0  0  0  0
   -8.7135   -5.1291   -0.0000 C   0  0  0  0  0  0  0  0  0  0  0  0
  -18.4528    1.6389   -0.0000 O   0  0  0  0  0  0  0  0  0  0  0  0
  -19.6909   -0.6957   -0.0000 N   0  0  0  0  0  0  0  0  0  0  0  0
  -21.0468   -0.0236   -0.0000 C   0  0  0  0  0  0  0  0  0  0  0  0
  -19.6909   -2.1813   -0.0000 C   0  0  0  0  0  0  0  0  0  0  0  0
  -22.2967   -0.8489   -0.0000 C   0  0  0  0  0  0  0  0  0  0  0  0
  -23.7234   -0.3301   -0.0000 N   0  0  0  0  0  0  0  0  0  0  0  0
  -22.3674   -2.3346   -0.0000 C   0  0  0  0  0  0  0  0  0  0  0  0
  -24.6549   -1.4975   -0.0000 C   0  0  0  0  0  0  0  0  0  0  0  0
  -23.8177   -2.7355   -0.0000 S   0  0  0  0  0  0  0  0  0  0  0  0
  -26.1641   -1.4385   -0.0000 C   0  0  0  0  0  0  0  0  0  0  0  0
  -26.8834   -0.1061   -0.0000 C   0  0  0  0  0  0  0  0  0  0  0  0
  -26.9659   -2.7001   -0.0000 C   0  0  0  0  0  0  0  0  0  0  0  0
  1  2  1  0  0  0  0
  1  3  1  0  0  0  0
  2  4  2  0  0  0  0
  2  5  1  0  0  0  0
  3  6  2  0  0  0  0
  5  7  1  0  0  0  0
  7  8  1  0  0  0  0
  8  9  2  0  0  0  0
  8 10  1  0  0  0  0
 11 10  1  6  0  0  0
 11 12  1  0  0  0  0
 11 13  1  0  0  0  0
 12 14  2  0  0  0  0
 12 15  1  0  0  0  0
 13 16  1  0  0  0  0
 15 17  1  0  0  0  0
 16 18  2  0  0  0  0
 16 19  1  0  0  0  0
 17 20  1  6  0  0  0
 17 21  1  0  0  0  0
 18 22  1  0  0  0  0
 19 23  2  0  0  0  0
 20 24  1  0  0  0  0
 21 25  1  0  0  0  0
 22 26  2  0  0  0  0
 24 27  2  0  0  0  0
 24 28  1  0  0  0  0
 25 29  2  0  0  0  0
 25 30  1  0  0  0  0
 28 31  1  1  0  0  0
 28 32  1  0  0  0  0
 29 33  1  0  0  0  0
 30 34  2  0  0  0  0
 31 35  1  0  0  0  0
 32 36  1  0  0  0  0
 32 37  1  0  0  0  0
 33 38  2  0  0  0  0
 35 39  2  0  0  0  0
 35 40  1  0  0  0  0
 40 41  1  0  0  0  0
 40 42  1  0  0  0  0
 41 43  1  0  0  0  0
 43 44  1  0  0  0  0
 43 45  2  0  0  0  0
 44 46  2  0  0  0  0
 45 47  1  0  0  0  0
 46 48  1  0  0  0  0
 48 49  1  0  0  0  0
 48 50  1  0  0  0  0
  4  6  1  0  0  0  0
 23 26  1  0  0  0  0
 34 38  1  0  0  0  0
 46 47  1  0  0  0  0
M  END
>  <MolRegNo>
1617685

>  <m>
=

>  <Value>
280

>  <Unit>
nM

>  <Type>
IC50

>  <pValue>
6.55

>  <Ligand Efficiency>
0

>  <Binding Efficiency>
0

>  <Surface Efficiency>
0

>  <Assay Index>
824434

>  <Assay Category>


>  <Assay Organism>
Homo sapiens

>  <Target ID>
17045

>  <Target Name>
Cytochrome P450 3A4

>  <Target Organism>
Homo sapiens

>  <Target Description>
Target is a single protein chain

>  <Sequence Accession>
P08684

>  <Reference>
Bioorg Med Chem Lett 24 (3), 989-994 (2014)

>  <Pubmed ID>
24411125

>  <DOI>
10.1016/j.bmcl.2013.12.058

$$$$
1617684
Actelion Java MolfileCreator 1.0

 49 52  0  0  0  0  0  0  0  0999 V2000
    0.0000   -0.0000   -0.0000 S   0  0  0  0  0  0  0  0  0  0  0  0
   -1.3789   -0.5893   -0.0000 C   0  0  0  0  0  0  0  0  0  0  0  0
    0.9782   -1.1078   -0.0000 C   0  0  0  0  0  0  0  0  0  0  0  0
   -1.2492   -2.0624   -0.0000 C   0  0  0  0  0  0  0  0  0  0  0  0
   -2.6752    0.1768   -0.0000 C   0  0  0  0  0  0  0  0  0  0  0  0
    0.2003   -2.3806   -0.0000 N   0  0  0  0  0  0  0  0  0  0  0  0
   -3.9952   -0.5421   -0.0000 O   0  0  0  0  0  0  0  0  0  0  0  0
   -5.2916    0.2239   -0.0000 C   0  0  0  0  0  0  0  0  0  0  0  0
   -5.2916    1.7324   -0.0000 O   0  0  0  0  0  0  0  0  0  0  0  0
   -6.6115   -0.4950   -0.0000 N   0  0  0  0  0  0  0  0  0  0  0  0
   -7.9314    0.2475   -0.0000 C   0  0  0  0  0  0  0  0  0  0  0  0
   -7.9668    1.7560   -0.0000 C   0  0  0  0  0  0  0  0  0  0  0  0
   -9.2278   -0.5068   -0.0000 C   0  0  0  0  0  0  0  0  0  0  0  0
   -9.2867    2.4985   -0.0000 C   0  0  0  0  0  0  0  0  0  0  0  0
  -10.5477    0.2357   -0.0000 C   0  0  0  0  0  0  0  0  0  0  0  0
   -9.3103    4.0070   -0.0000 C   0  0  0  0  0  0  0  0  0  0  0  0
  -10.5713    1.7442   -0.0000 C   0  0  0  0  0  0  0  0  0  0  0  0
  -11.8441   -0.5185   -0.0000 C   0  0  0  0  0  0  0  0  0  0  0  0
  -10.6302    4.7494   -0.0000 C   0  0  0  0  0  0  0  0  0  0  0  0
  -11.8913    2.4749   -0.0000 C   0  0  0  0  0  0  0  0  0  0  0  0
  -13.1641    0.2239   -0.0000 N   0  0  0  0  0  0  0  0  0  0  0  0
  -11.8323   -2.0035   -0.0000 C   0  0  0  0  0  0  0  0  0  0  0  0
  -11.9266    3.9952   -0.0000 C   0  0  0  0  0  0  0  0  0  0  0  0
  -14.4604   -0.5303   -0.0000 C   0  0  0  0  0  0  0  0  0  0  0  0
  -10.5360   -2.7224   -0.0000 C   0  0  0  0  0  0  0  0  0  0  0  0
  -14.4486   -2.0153   -0.0000 O   0  0  0  0  0  0  0  0  0  0  0  0
  -15.7804    0.2121   -0.0000 C   0  0  0  0  0  0  0  0  0  0  0  0
  -10.5360   -4.2073   -0.0000 C   0  0  0  0  0  0  0  0  0  0  0  0
   -9.2749   -1.9446   -0.0000 C   0  0  0  0  0  0  0  0  0  0  0  0
  -17.0767   -0.5421   -0.0000 N   0  0  0  0  0  0  0  0  0  0  0  0
  -15.8157    1.7206   -0.0000 C   0  0  0  0  0  0  0  0  0  0  0  0
   -9.2396   -4.9262   -0.0000 C   0  0  0  0  0  0  0  0  0  0  0  0
   -7.9786   -2.6517   -0.0000 C   0  0  0  0  0  0  0  0  0  0  0  0
  -18.4320    0.1296   -0.0000 C   0  0  0  0  0  0  0  0  0  0  0  0
  -14.5429    2.4985   -0.0000 C   0  0  0  0  0  0  0  0  0  0  0  0
  -17.1357    2.4631   -0.0000 C   0  0  0  0  0  0  0  0  0  0  0  0
   -7.9668   -4.1484   -0.0000 C   0  0  0  0  0  0  0  0  0  0  0  0
  -18.4438    1.6381   -0.0000 O   0  0  0  0  0  0  0  0  0  0  0  0
  -19.6813   -0.6953   -0.0000 N   0  0  0  0  0  0  0  0  0  0  0  0
  -21.0366   -0.0236   -0.0000 C   0  0  0  0  0  0  0  0  0  0  0  0
  -19.6813   -2.1803   -0.0000 C   0  0  0  0  0  0  0  0  0  0  0  0
  -22.2858   -0.8485   -0.0000 C   0  0  0  0  0  0  0  0  0  0  0  0
  -23.7118   -0.3182   -0.0000 N   0  0  0  0  0  0  0  0  0  0  0  0
  -22.3565   -2.3335   -0.0000 C   0  0  0  0  0  0  0  0  0  0  0  0
  -24.6428   -1.4849   -0.0000 C   0  0  0  0  0  0  0  0  0  0  0  0
  -23.8061   -2.7342   -0.0000 S   0  0  0  0  0  0  0  0  0  0  0  0
  -26.1513   -1.4260   -0.0000 C   0  0  0  0  0  0  0  0  0  0  0  0
  -26.8702   -0.0943   -0.0000 C   0  0  0  0  0  0  0  0  0  0  0  0
  -26.9527   -2.6870   -0.0000 C   0  0  0  0  0  0  0  0  0  0  0  0
  1  2  1  0  0  0  0
  1  3  1  0  0  0  0
  2  4  2  0  0  0  0
  2  5  1  0  0  0  0
  3  6  2  0  0  0  0
  5  7  1  0  0  0  0
  7  8  1  0  0  0  0
  8  9  2  0  0  0  0
  8 10  1  0  0  0  0
 11 10  1  6  0  0  0
 11 12  1  0  0  0  0
 11 13  1  0  0  0  0
 12 14  1  0  0  0  0
 13 15  1  0  0  0  0
 14 16  2  0  0  0  0
 14 17  1  0  0  0  0
 15 18  1  0  0  0  0
 16 19  1  0  0  0  0
 17 20  2  0  0  0  0
 18 21  1  6  0  0  0
 18 22  1  0  0  0  0
 19 23  2  0  0  0  0
 21 24  1  0  0  0  0
 22 25  1  0  0  0  0
 24 26  2  0  0  0  0
 24 27  1  0  0  0  0
 25 28  2  0  0  0  0
 25 29  1  0  0  0  0
 27 30  1  1  0  0  0
 27 31  1  0  0  0  0
 28 32  1  0  0  0  0
 29 33  2  0  0  0  0
 30 34  1  0  0  0  0
 31 35  1  0  0  0  0
 31 36  1  0  0  0  0
 32 37  2  0  0  0  0
 34 38  2  0  0  0  0
 34 39  1  0  0  0  0
 39 40  1  0  0  0  0
 39 41  1  0  0  0  0
 40 42  1  0  0  0  0
 42 43  1  0  0  0  0
 42 44  2  0  0  0  0
 43 45  2  0  0  0  0
 44 46  1  0  0  0  0
 45 47  1  0  0  0  0
 47 48  1  0  0  0  0
 47 49  1  0  0  0  0
  4  6  1  0  0  0  0
 20 23  1  0  0  0  0
 33 37  1  0  0  0  0
 45 46  1  0  0  0  0
M  END
>  <MolRegNo>
1617684

>  <m>
=

>  <Value>
130

>  <Unit>
nM

>  <Type>
IC50

>  <pValue>
6.89

>  <Ligand Efficiency>
0

>  <Binding Efficiency>
0

>  <Surface Efficiency>
0

>  <Assay Index>
824434

>  <Assay Category>


>  <Assay Organism>
Homo sapiens

>  <Target ID>
17045

>  <Target Name>
Cytochrome P450 3A4

>  <Target Organism>
Homo sapiens

>  <Target Description>
Target is a single protein chain

>  <Sequence Accession>
P08684

>  <Reference>
Bioorg Med Chem Lett 24 (3), 989-994 (2014)

>  <Pubmed ID>
24411125

>  <DOI>
10.1016/j.bmcl.2013.12.058

$$$$
1617867
Actelion Java MolfileCreator 1.0

 37 41  0  0  0  0  0  0  0  0999 V2000
    0.0000   -0.0000   -0.0000 S   0  0  0  0  0  0  0  0  0  0  0  0
   -0.4177   -1.4440   -0.0000 O   0  0  0  0  0  0  0  0  0  0  0  0
   -1.5276    0.0119   -0.0000 O   0  0  0  0  0  0  0  0  0  0  0  0
    1.2889   -0.7399   -0.0000 C   0  0  0  0  0  0  0  0  0  0  0  0
   -0.0119    1.5156   -0.0000 C   0  0  0  0  0  0  0  0  0  0  0  0
    2.5897    0.0239   -0.0000 C   0  0  0  0  0  0  0  0  0  0  0  0
    1.2769   -2.2436   -0.0000 C   0  0  0  0  0  0  0  0  0  0  0  0
    3.8786   -0.7160   -0.0000 C   0  0  0  0  0  0  0  0  0  0  0  0
    2.5658   -2.9835   -0.0000 C   0  0  0  0  0  0  0  0  0  0  0  0
    3.8547   -2.2078   -0.0000 C   0  0  0  0  0  0  0  0  0  0  0  0
    5.1436   -2.9477   -0.0000 O   0  0  0  0  0  0  0  0  0  0  0  0
    6.4444   -2.1839   -0.0000 C   0  0  0  0  0  0  0  0  0  0  0  0
    6.4324   -0.6564   -0.0000 N   0  0  0  0  0  0  0  0  0  0  0  0
    7.7333   -2.9358   -0.0000 C   0  0  0  0  0  0  0  0  0  0  0  0
    7.7213    0.1074   -0.0000 C   0  0  0  0  0  0  0  0  0  0  0  0
    9.0341   -2.1601   -0.0000 C   0  0  0  0  0  0  0  0  0  0  0  0
    8.0435   -4.4037   -0.0000 C   0  0  0  0  0  0  0  0  0  0  0  0
    9.0221   -0.6325   -0.0000 N   0  0  0  0  0  0  0  0  0  0  0  0
   10.1559   -3.1625   -0.0000 N   0  0  0  0  0  0  0  0  0  0  0  0
    9.5353   -4.5469   -0.0000 N   0  0  0  0  0  0  0  0  0  0  0  0
   11.6476   -3.1745   -0.0000 C   0  0  0  0  0  0  0  0  0  0  0  0
   12.3756   -4.4753   -0.0000 C   0  0  0  0  0  0  0  0  0  0  0  0
   12.3995   -1.8617   -0.0000 C   0  0  0  0  0  0  0  0  0  0  0  0
   13.8674   -4.4753   -0.0000 C   0  0  0  0  0  0  0  0  0  0  0  0
   13.9032   -1.8736   -0.0000 C   0  0  0  0  0  0  0  0  0  0  0  0
   14.6311   -3.1625   -0.0000 N   0  0  0  0  0  0  0  0  0  0  0  0
   16.1229   -3.1745   -0.0000 C   0  0  0  0  0  0  0  0  0  0  0  0
   16.8509   -4.4753   -0.0000 C   0  0  0  0  0  0  0  0  0  0  0  0
   16.0632   -5.7522   -0.0000 C   0  0  0  0  0  0  0  0  0  0  0  0
   18.3426   -4.4753   -0.0000 C   0  0  0  0  0  0  0  0  0  0  0  0
   16.7912   -7.0530   -0.0000 C   0  0  0  0  0  0  0  0  0  0  0  0
   19.0706   -5.7761   -0.0000 C   0  0  0  0  0  0  0  0  0  0  0  0
   18.2830   -7.0650   -0.0000 C   0  0  0  0  0  0  0  0  0  0  0  0
   19.0109   -8.3658   -0.0000 C   0  0  0  0  0  0  0  0  0  0  0  0
   18.2352   -9.6546   -0.0000 F   0  0  0  0  0  0  0  0  0  0  0  0
   20.5027   -8.3658   -0.0000 F   0  0  0  0  0  0  0  0  0  0  0  0
   19.7389   -9.6546   -0.0000 F   0  0  0  0  0  0  0  0  0  0  0  0
  1  2  2  0  0  0  0
  1  3  2  0  0  0  0
  1  4  1  0  0  0  0
  1  5  1  0  0  0  0
  4  6  2  0  0  0  0
  4  7  1  0  0  0  0
  6  8  1  0  0  0  0
  7  9  2  0  0  0  0
  8 10  2  0  0  0  0
 10 11  1  0  0  0  0
 11 12  1  0  0  0  0
 12 13  2  0  0  0  0
 12 14  1  0  0  0  0
 13 15  1  0  0  0  0
 14 16  2  0  0  0  0
 14 17  1  0  0  0  0
 15 18  2  0  0  0  0
 16 19  1  0  0  0  0
 17 20  2  0  0  0  0
 19 21  1  0  0  0  0
 21 22  1  0  0  0  0
 21 23  1  0  0  0  0
 22 24  1  0  0  0  0
 23 25  1  0  0  0  0
 24 26  1  0  0  0  0
 26 27  1  0  0  0  0
 27 28  1  0  0  0  0
 28 29  2  0  0  0  0
 28 30  1  0  0  0  0
 29 31  1  0  0  0  0
 30 32  2  0  0  0  0
 31 33  2  0  0  0  0
 33 34  1  0  0  0  0
 34 35  1  0  0  0  0
 34 36  1  0  0  0  0
 34 37  1  0  0  0  0
  9 10  1  0  0  0  0
 16 18  1  0  0  0  0
 19 20  1  0  0  0  0
 25 26  1  0  0  0  0
 32 33  1  0  0  0  0
M  END
>  <MolRegNo>
1617867

>  <m>
=

>  <Value>
1800

>  <Unit>
nM

>  <Type>
IC50

>  <pValue>
5.75

>  <Ligand Efficiency>
0

>  <Binding Efficiency>
0

>  <Surface Efficiency>
0

>  <Assay Index>
821104

>  <Assay Category>


>  <Assay Organism>
Homo sapiens

>  <Target ID>
17045

>  <Target Name>
Cytochrome P450 3A4

>  <Target Organism>
Homo sapiens

>  <Target Description>
Target is a single protein chain

>  <Sequence Accession>
P08684

>  <Reference>
Bioorg Med Chem Lett 24 (3), 949-953 (2014)

>  <Pubmed ID>
24412066

>  <DOI>
10.1016/j.bmcl.2013.12.063

$$$$
1617878
Actelion Java MolfileCreator 1.0

 33 36  0  0  0  0  0  0  0  0999 V2000
    0.0000   -0.0000   -0.0000 S   0  0  0  0  0  0  0  0  0  0  0  0
   -0.4172   -1.4422   -0.0000 O   0  0  0  0  0  0  0  0  0  0  0  0
   -1.5256    0.0119   -0.0000 O   0  0  0  0  0  0  0  0  0  0  0  0
    1.2872   -0.7390   -0.0000 C   0  0  0  0  0  0  0  0  0  0  0  0
   -0.0119    1.5137   -0.0000 C   0  0  0  0  0  0  0  0  0  0  0  0
    2.5864    0.0238   -0.0000 C   0  0  0  0  0  0  0  0  0  0  0  0
    1.2753   -2.2407   -0.0000 C   0  0  0  0  0  0  0  0  0  0  0  0
    3.8736   -0.7151   -0.0000 C   0  0  0  0  0  0  0  0  0  0  0  0
    2.5625   -2.9797   -0.0000 C   0  0  0  0  0  0  0  0  0  0  0  0
    3.8498   -2.2050   -0.0000 C   0  0  0  0  0  0  0  0  0  0  0  0
    5.1370   -2.9439   -0.0000 O   0  0  0  0  0  0  0  0  0  0  0  0
    6.4361   -2.1811   -0.0000 C   0  0  0  0  0  0  0  0  0  0  0  0
    6.4242   -0.6555   -0.0000 N   0  0  0  0  0  0  0  0  0  0  0  0
    7.7234   -2.9320   -0.0000 C   0  0  0  0  0  0  0  0  0  0  0  0
    7.7115    0.1073   -0.0000 C   0  0  0  0  0  0  0  0  0  0  0  0
    9.0225   -2.1573   -0.0000 C   0  0  0  0  0  0  0  0  0  0  0  0
    8.0333   -4.3980   -0.0000 C   0  0  0  0  0  0  0  0  0  0  0  0
    9.0106   -0.6317   -0.0000 N   0  0  0  0  0  0  0  0  0  0  0  0
   10.1429   -3.1585   -0.0000 N   0  0  0  0  0  0  0  0  0  0  0  0
    9.5231   -4.5411   -0.0000 N   0  0  0  0  0  0  0  0  0  0  0  0
   11.6327   -3.1704   -0.0000 C   0  0  0  0  0  0  0  0  0  0  0  0
   12.3598   -4.4695   -0.0000 C   0  0  0  0  0  0  0  0  0  0  0  0
   12.3836   -1.8593   -0.0000 C   0  0  0  0  0  0  0  0  0  0  0  0
   13.8496   -4.4695   -0.0000 C   0  0  0  0  0  0  0  0  0  0  0  0
   13.8854   -1.8712   -0.0000 C   0  0  0  0  0  0  0  0  0  0  0  0
   14.6124   -3.1585   -0.0000 N   0  0  0  0  0  0  0  0  0  0  0  0
   16.1023   -3.1704   -0.0000 C   0  0  0  0  0  0  0  0  0  0  0  0
   16.8293   -4.4695   -0.0000 O   0  0  0  0  0  0  0  0  0  0  0  0
   16.8651   -1.8593   -0.0000 O   0  0  0  0  0  0  0  0  0  0  0  0
   18.3549   -1.8712   -0.0000 C   0  0  0  0  0  0  0  0  0  0  0  0
   19.1177   -0.5602   -0.0000 C   0  0  0  0  0  0  0  0  0  0  0  0
   19.0820   -3.1704   -0.0000 C   0  0  0  0  0  0  0  0  0  0  0  0
   19.8448   -1.8593   -0.0000 C   0  0  0  0  0  0  0  0  0  0  0  0
  1  2  2  0  0  0  0
  1  3  2  0  0  0  0
  1  4  1  0  0  0  0
  1  5  1  0  0  0  0
  4  6  2  0  0  0  0
  4  7  1  0  0  0  0
  6  8  1  0  0  0  0
  7  9  2  0  0  0  0
  8 10  2  0  0  0  0
 10 11  1  0  0  0  0
 11 12  1  0  0  0  0
 12 13  2  0  0  0  0
 12 14  1  0  0  0  0
 13 15  1  0  0  0  0
 14 16  2  0  0  0  0
 14 17  1  0  0  0  0
 15 18  2  0  0  0  0
 16 19  1  0  0  0  0
 17 20  2  0  0  0  0
 19 21  1  0  0  0  0
 21 22  1  0  0  0  0
 21 23  1  0  0  0  0
 22 24  1  0  0  0  0
 23 25  1  0  0  0  0
 24 26  1  0  0  0  0
 26 27  1  0  0  0  0
 27 28  2  0  0  0  0
 27 29  1  0  0  0  0
 29 30  1  0  0  0  0
 30 31  1  0  0  0  0
 30 32  1  0  0  0  0
 30 33  1  0  0  0  0
  9 10  1  0  0  0  0
 16 18  1  0  0  0  0
 19 20  1  0  0  0  0
 25 26  1  0  0  0  0
M  END
>  <MolRegNo>
1617878

>  <m>
=

>  <Value>
3100

>  <Unit>
nM

>  <Type>
IC50

>  <pValue>
5.51

>  <Ligand Efficiency>
0

>  <Binding Efficiency>
0

>  <Surface Efficiency>
0

>  <Assay Index>
821104

>  <Assay Category>


>  <Assay Organism>
Homo sapiens

>  <Target ID>
17045

>  <Target Name>
Cytochrome P450 3A4

>  <Target Organism>
Homo sapiens

>  <Target Description>
Target is a single protein chain

>  <Sequence Accession>
P08684

>  <Reference>
Bioorg Med Chem Lett 24 (3), 949-953 (2014)

>  <Pubmed ID>
24412066

>  <DOI>
10.1016/j.bmcl.2013.12.063

$$$$
1617869
Actelion Java MolfileCreator 1.0

 34 37  0  0  0  0  0  0  0  0999 V2000
    0.0000   -0.0000   -0.0000 S   0  0  0  0  0  0  0  0  0  0  0  0
   -0.4172   -1.4423   -0.0000 O   0  0  0  0  0  0  0  0  0  0  0  0
   -1.5257    0.0119   -0.0000 O   0  0  0  0  0  0  0  0  0  0  0  0
    1.2873   -0.7390   -0.0000 C   0  0  0  0  0  0  0  0  0  0  0  0
   -0.0119    1.5138   -0.0000 C   0  0  0  0  0  0  0  0  0  0  0  0
    1.2754   -2.2409   -0.0000 C   0  0  0  0  0  0  0  0  0  0  0  0
    2.5866    0.0238   -0.0000 C   0  0  0  0  0  0  0  0  0  0  0  0
    2.5627   -2.9799   -0.0000 C   0  0  0  0  0  0  0  0  0  0  0  0
    3.8739   -0.7152   -0.0000 C   0  0  0  0  0  0  0  0  0  0  0  0
    2.5508   -4.4699   -0.0000 F   0  0  0  0  0  0  0  0  0  0  0  0
    3.8501   -2.2171   -0.0000 C   0  0  0  0  0  0  0  0  0  0  0  0
    5.1374   -2.9561   -0.0000 N   0  0  0  0  0  0  0  0  0  0  0  0
    6.4366   -2.1932   -0.0000 C   0  0  0  0  0  0  0  0  0  0  0  0
    6.4247   -0.6675   -0.0000 N   0  0  0  0  0  0  0  0  0  0  0  0
    7.7240   -2.9442   -0.0000 C   0  0  0  0  0  0  0  0  0  0  0  0
    7.7120    0.0954   -0.0000 C   0  0  0  0  0  0  0  0  0  0  0  0
    9.0232   -2.1694   -0.0000 C   0  0  0  0  0  0  0  0  0  0  0  0
    8.0339   -4.4103   -0.0000 C   0  0  0  0  0  0  0  0  0  0  0  0
    9.0113   -0.6437   -0.0000 N   0  0  0  0  0  0  0  0  0  0  0  0
   10.1437   -3.1706   -0.0000 N   0  0  0  0  0  0  0  0  0  0  0  0
    9.5238   -4.5533   -0.0000 N   0  0  0  0  0  0  0  0  0  0  0  0
   11.6336   -3.1826   -0.0000 C   0  0  0  0  0  0  0  0  0  0  0  0
   12.3607   -4.4818   -0.0000 C   0  0  0  0  0  0  0  0  0  0  0  0
   12.3846   -1.8714   -0.0000 C   0  0  0  0  0  0  0  0  0  0  0  0
   13.8507   -4.4818   -0.0000 C   0  0  0  0  0  0  0  0  0  0  0  0
   13.8865   -1.8833   -0.0000 C   0  0  0  0  0  0  0  0  0  0  0  0
   14.6136   -3.1706   -0.0000 N   0  0  0  0  0  0  0  0  0  0  0  0
   16.1035   -3.1826   -0.0000 C   0  0  0  0  0  0  0  0  0  0  0  0
   16.8306   -4.4818   -0.0000 O   0  0  0  0  0  0  0  0  0  0  0  0
   16.8664   -1.8714   -0.0000 O   0  0  0  0  0  0  0  0  0  0  0  0
   18.3563   -1.8833   -0.0000 C   0  0  0  0  0  0  0  0  0  0  0  0
   19.1192   -0.5721   -0.0000 C   0  0  0  0  0  0  0  0  0  0  0  0
   19.0834   -3.1826   -0.0000 C   0  0  0  0  0  0  0  0  0  0  0  0
   19.8463   -1.8714   -0.0000 C   0  0  0  0  0  0  0  0  0  0  0  0
  1  2  2  0  0  0  0
  1  3  2  0  0  0  0
  1  4  1  0  0  0  0
  1  5  1  0  0  0  0
  4  6  2  0  0  0  0
  4  7  1  0  0  0  0
  6  8  1  0  0  0  0
  7  9  2  0  0  0  0
  8 10  1  0  0  0  0
  8 11  2  0  0  0  0
 11 12  1  0  0  0  0
 12 13  1  0  0  0  0
 13 14  2  0  0  0  0
 13 15  1  0  0  0  0
 14 16  1  0  0  0  0
 15 17  2  0  0  0  0
 15 18  1  0  0  0  0
 16 19  2  0  0  0  0
 17 20  1  0  0  0  0
 18 21  2  0  0  0  0
 20 22  1  0  0  0  0
 22 23  1  0  0  0  0
 22 24  1  0  0  0  0
 23 25  1  0  0  0  0
 24 26  1  0  0  0  0
 25 27  1  0  0  0  0
 27 28  1  0  0  0  0
 28 29  2  0  0  0  0
 28 30  1  0  0  0  0
 30 31  1  0  0  0  0
 31 32  1  0  0  0  0
 31 33  1  0  0  0  0
 31 34  1  0  0  0  0
  9 11  1  0  0  0  0
 17 19  1  0  0  0  0
 20 21  1  0  0  0  0
 26 27  1  0  0  0  0
M  END
>  <MolRegNo>
1617869

>  <m>
=

>  <Value>
3100

>  <Unit>
nM

>  <Type>
IC50

>  <pValue>
5.51

>  <Ligand Efficiency>
0

>  <Binding Efficiency>
0

>  <Surface Efficiency>
0

>  <Assay Index>
821104

>  <Assay Category>


>  <Assay Organism>
Homo sapiens

>  <Target ID>
17045

>  <Target Name>
Cytochrome P450 3A4

>  <Target Organism>
Homo sapiens

>  <Target Description>
Target is a single protein chain

>  <Sequence Accession>
P08684

>  <Reference>
Bioorg Med Chem Lett 24 (3), 949-953 (2014)

>  <Pubmed ID>
24412066

>  <DOI>
10.1016/j.bmcl.2013.12.063

$$$$
1618167
Actelion Java MolfileCreator 1.0

 52 56  0  0  0  0  0  0  0  0999 V2000
    0.0000   -0.0000   -0.0000 S   0  0  0  0  0  0  0  0  0  0  0  0
   -1.4369   -0.4750   -0.0000 C   0  0  0  0  0  0  0  0  0  0  0  0
    0.8787   -1.1994   -0.0000 C   0  0  0  0  0  0  0  0  0  0  0  0
   -1.4369   -1.9593   -0.0000 C   0  0  0  0  0  0  0  0  0  0  0  0
   -2.7431    0.2850   -0.0000 C   0  0  0  0  0  0  0  0  0  0  0  0
    0.0000   -2.4106   -0.0000 N   0  0  0  0  0  0  0  0  0  0  0  0
   -4.0493   -0.4512   -0.0000 O   0  0  0  0  0  0  0  0  0  0  0  0
   -5.3556    0.3087   -0.0000 C   0  0  0  0  0  0  0  0  0  0  0  0
   -5.3674    1.8169   -0.0000 O   0  0  0  0  0  0  0  0  0  0  0  0
   -6.6618   -0.4275   -0.0000 N   0  0  0  0  0  0  0  0  0  0  0  0
   -7.9680    0.3325   -0.0000 C   0  0  0  0  0  0  0  0  0  0  0  0
   -7.9799    1.8406   -0.0000 C   0  0  0  0  0  0  0  0  0  0  0  0
   -9.2743   -0.4037   -0.0000 C   0  0  0  0  0  0  0  0  0  0  0  0
   -9.2861    2.6006   -0.0000 C   0  0  0  0  0  0  0  0  0  0  0  0
  -10.5805    0.3562   -0.0000 C   0  0  0  0  0  0  0  0  0  0  0  0
   -9.2980    4.1087   -0.0000 C   0  0  0  0  0  0  0  0  0  0  0  0
  -10.5924    1.8644   -0.0000 C   0  0  0  0  0  0  0  0  0  0  0  0
  -11.8867   -0.3800   -0.0000 C   0  0  0  0  0  0  0  0  0  0  0  0
  -10.6042    4.8687   -0.0000 C   0  0  0  0  0  0  0  0  0  0  0  0
  -11.8986    2.6243   -0.0000 C   0  0  0  0  0  0  0  0  0  0  0  0
  -13.1930    0.3800   -0.0000 N   0  0  0  0  0  0  0  0  0  0  0  0
  -11.8986   -1.8644   -0.0000 C   0  0  0  0  0  0  0  0  0  0  0  0
  -11.9223    4.1324   -0.0000 C   0  0  0  0  0  0  0  0  0  0  0  0
  -14.4992   -0.3562   -0.0000 C   0  0  0  0  0  0  0  0  0  0  0  0
  -10.6161   -2.6006   -0.0000 C   0  0  0  0  0  0  0  0  0  0  0  0
  -14.5111   -1.8406   -0.0000 O   0  0  0  0  0  0  0  0  0  0  0  0
  -15.8054    0.4037   -0.0000 C   0  0  0  0  0  0  0  0  0  0  0  0
  -10.6399   -4.0849   -0.0000 C   0  0  0  0  0  0  0  0  0  0  0  0
   -9.3455   -1.8406   -0.0000 C   0  0  0  0  0  0  0  0  0  0  0  0
  -17.1116   -0.3325   -0.0000 N   0  0  0  0  0  0  0  0  0  0  0  0
  -15.8173    1.9118   -0.0000 C   0  0  0  0  0  0  0  0  0  0  0  0
   -9.3574   -4.8212   -0.0000 C   0  0  0  0  0  0  0  0  0  0  0  0
   -8.0630   -2.5768   -0.0000 C   0  0  0  0  0  0  0  0  0  0  0  0
  -18.4179    0.4275   -0.0000 C   0  0  0  0  0  0  0  0  0  0  0  0
  -14.5348    2.6718   -0.0000 C   0  0  0  0  0  0  0  0  0  0  0  0
   -8.0630   -4.0612   -0.0000 C   0  0  0  0  0  0  0  0  0  0  0  0
  -18.4298    1.9356   -0.0000 O   0  0  0  0  0  0  0  0  0  0  0  0
  -19.7241   -0.3087   -0.0000 N   0  0  0  0  0  0  0  0  0  0  0  0
  -13.1336    2.1850   -0.0000 N   0  0  0  0  0  0  0  0  0  0  0  0
  -14.5229    4.1799   -0.0000 C   0  0  0  0  0  0  0  0  0  0  0  0
  -21.0303    0.4512   -0.0000 C   0  0  0  0  0  0  0  0  0  0  0  0
  -19.7360   -1.7931   -0.0000 C   0  0  0  0  0  0  0  0  0  0  0  0
  -12.2311    3.3843   -0.0000 C   0  0  0  0  0  0  0  0  0  0  0  0
  -13.0980    4.6193   -0.0000 N   0  0  0  0  0  0  0  0  0  0  0  0
  -22.3366   -0.2850   -0.0000 C   0  0  0  0  0  0  0  0  0  0  0  0
  -23.7734    0.1781   -0.0000 N   0  0  0  0  0  0  0  0  0  0  0  0
  -22.3485   -1.7812   -0.0000 C   0  0  0  0  0  0  0  0  0  0  0  0
  -24.6640   -1.0212   -0.0000 C   0  0  0  0  0  0  0  0  0  0  0  0
  -23.7853   -2.2325   -0.0000 S   0  0  0  0  0  0  0  0  0  0  0  0
  -26.1722   -1.0094   -0.0000 C   0  0  0  0  0  0  0  0  0  0  0  0
  -26.9321    0.2969   -0.0000 C   0  0  0  0  0  0  0  0  0  0  0  0
  -26.9321   -2.2918   -0.0000 C   0  0  0  0  0  0  0  0  0  0  0  0
  1  2  1  0  0  0  0
  1  3  1  0  0  0  0
  2  4  2  0  0  0  0
  2  5  1  0  0  0  0
  3  6  2  0  0  0  0
  5  7  1  0  0  0  0
  7  8  1  0  0  0  0
  8  9  2  0  0  0  0
  8 10  1  0  0  0  0
 11 10  1  1  0  0  0
 11 12  1  0  0  0  0
 11 13  1  0  0  0  0
 12 14  1  0  0  0  0
 13 15  1  0  0  0  0
 14 16  2  0  0  0  0
 14 17  1  0  0  0  0
 15 18  1  0  0  0  0
 16 19  1  0  0  0  0
 17 20  2  0  0  0  0
 18 21  1  1  0  0  0
 18 22  1  0  0  0  0
 19 23  2  0  0  0  0
 21 24  1  0  0  0  0
 22 25  1  0  0  0  0
 24 26  2  0  0  0  0
 24 27  1  0  0  0  0
 25 28  2  0  0  0  0
 25 29  1  0  0  0  0
 27 30  1  1  0  0  0
 27 31  1  0  0  0  0
 28 32  1  0  0  0  0
 29 33  2  0  0  0  0
 30 34  1  0  0  0  0
 31 35  1  0  0  0  0
 32 36  2  0  0  0  0
 34 37  2  0  0  0  0
 34 38  1  0  0  0  0
 35 39  1  0  0  0  0
 35 40  2  0  0  0  0
 38 41  1  0  0  0  0
 38 42  1  0  0  0  0
 39 43  2  0  0  0  0
 40 44  1  0  0  0  0
 41 45  1  0  0  0  0
 45 46  1  0  0  0  0
 45 47  2  0  0  0  0
 46 48  2  0  0  0  0
 47 49  1  0  0  0  0
 48 50  1  0  0  0  0
 50 51  1  0  0  0  0
 50 52  1  0  0  0  0
  4  6  1  0  0  0  0
 20 23  1  0  0  0  0
 33 36  1  0  0  0  0
 43 44  1  0  0  0  0
 48 49  1  0  0  0  0
M  END
>  <MolRegNo>
1618167

>  <m>
=

>  <Value>
90

>  <Unit>
nM

>  <Type>
IC50

>  <pValue>
7.05

>  <Ligand Efficiency>
0

>  <Binding Efficiency>
0

>  <Surface Efficiency>
0

>  <Assay Index>
821142

>  <Assay Category>


>  <Assay Organism>
Homo sapiens

>  <Target ID>
17045

>  <Target Name>
Cytochrome P450 3A4

>  <Target Organism>
Homo sapiens

>  <Target Description>
Target is a single protein chain

>  <Sequence Accession>
P08684

>  <Reference>
Bioorg Med Chem Lett 24 (3), 995-999 (2014)

>  <Pubmed ID>
24412072

>  <DOI>
10.1016/j.bmcl.2013.12.057

$$$$
1618166
Actelion Java MolfileCreator 1.0

 47 51  0  0  0  0  0  0  0  0999 V2000
    0.0000   -0.0000   -0.0000 S   0  0  0  0  0  0  0  0  0  0  0  0
   -1.4289   -0.4724   -0.0000 C   0  0  0  0  0  0  0  0  0  0  0  0
    0.8739   -1.1927   -0.0000 C   0  0  0  0  0  0  0  0  0  0  0  0
   -1.4289   -1.9485   -0.0000 C   0  0  0  0  0  0  0  0  0  0  0  0
   -2.7397    0.2834   -0.0000 C   0  0  0  0  0  0  0  0  0  0  0  0
   -0.0118   -2.3973   -0.0000 N   0  0  0  0  0  0  0  0  0  0  0  0
   -4.0505   -0.4487   -0.0000 O   0  0  0  0  0  0  0  0  0  0  0  0
   -5.3614    0.3070   -0.0000 C   0  0  0  0  0  0  0  0  0  0  0  0
   -5.3732    1.8186   -0.0000 O   0  0  0  0  0  0  0  0  0  0  0  0
   -6.6722   -0.4251   -0.0000 N   0  0  0  0  0  0  0  0  0  0  0  0
   -7.9830    0.3307   -0.0000 C   0  0  0  0  0  0  0  0  0  0  0  0
   -7.9948    1.8422   -0.0000 C   0  0  0  0  0  0  0  0  0  0  0  0
   -9.2938   -0.4015   -0.0000 C   0  0  0  0  0  0  0  0  0  0  0  0
   -9.3056    2.5980   -0.0000 C   0  0  0  0  0  0  0  0  0  0  0  0
  -10.6046    0.3543   -0.0000 C   0  0  0  0  0  0  0  0  0  0  0  0
   -9.3174    4.1096   -0.0000 C   0  0  0  0  0  0  0  0  0  0  0  0
  -10.6046    1.8658   -0.0000 C   0  0  0  0  0  0  0  0  0  0  0  0
  -11.9154   -0.3779   -0.0000 C   0  0  0  0  0  0  0  0  0  0  0  0
  -10.6282    4.8654   -0.0000 C   0  0  0  0  0  0  0  0  0  0  0  0
  -11.9154    2.6216   -0.0000 C   0  0  0  0  0  0  0  0  0  0  0  0
  -13.2263    0.3779   -0.0000 N   0  0  0  0  0  0  0  0  0  0  0  0
  -11.9272   -1.8658   -0.0000 C   0  0  0  0  0  0  0  0  0  0  0  0
  -11.9391    4.1332   -0.0000 C   0  0  0  0  0  0  0  0  0  0  0  0
  -14.5371   -0.3543   -0.0000 C   0  0  0  0  0  0  0  0  0  0  0  0
  -10.6401   -2.5980   -0.0000 C   0  0  0  0  0  0  0  0  0  0  0  0
  -14.5489   -1.8422   -0.0000 O   0  0  0  0  0  0  0  0  0  0  0  0
  -15.8479    0.4015   -0.0000 C   0  0  0  0  0  0  0  0  0  0  0  0
  -10.6637   -4.0860   -0.0000 C   0  0  0  0  0  0  0  0  0  0  0  0
   -9.3647   -1.8422   -0.0000 C   0  0  0  0  0  0  0  0  0  0  0  0
  -17.1587   -0.3307   -0.0000 N   0  0  0  0  0  0  0  0  0  0  0  0
  -15.8597    1.9131   -0.0000 C   0  0  0  0  0  0  0  0  0  0  0  0
   -9.3765   -4.8181   -0.0000 C   0  0  0  0  0  0  0  0  0  0  0  0
   -8.0775   -2.5744   -0.0000 C   0  0  0  0  0  0  0  0  0  0  0  0
  -18.4695    0.4251   -0.0000 C   0  0  0  0  0  0  0  0  0  0  0  0
  -14.5725    2.6689   -0.0000 O   0  0  0  0  0  0  0  0  0  0  0  0
   -8.0893   -4.0624   -0.0000 C   0  0  0  0  0  0  0  0  0  0  0  0
  -18.4813    1.9367   -0.0000 O   0  0  0  0  0  0  0  0  0  0  0  0
  -19.7803   -0.3070   -0.0000 N   0  0  0  0  0  0  0  0  0  0  0  0
  -19.7921   -1.7950   -0.0000 C   0  0  0  0  0  0  0  0  0  0  0  0
  -21.0912    0.4487   -0.0000 C   0  0  0  0  0  0  0  0  0  0  0  0
  -20.5479   -3.0822   -0.0000 C   0  0  0  0  0  0  0  0  0  0  0  0
  -19.0600   -3.0822   -0.0000 C   0  0  0  0  0  0  0  0  0  0  0  0
  -22.4020   -0.2834   -0.0000 C   0  0  0  0  0  0  0  0  0  0  0  0
  -23.8309    0.2362   -0.0000 S   0  0  0  0  0  0  0  0  0  0  0  0
  -22.4610   -1.7714   -0.0000 C   0  0  0  0  0  0  0  0  0  0  0  0
  -24.7638   -0.9329   -0.0000 C   0  0  0  0  0  0  0  0  0  0  0  0
  -23.9135   -2.1847   -0.0000 N   0  0  0  0  0  0  0  0  0  0  0  0
  1  2  1  0  0  0  0
  1  3  1  0  0  0  0
  2  4  2  0  0  0  0
  2  5  1  0  0  0  0
  3  6  2  0  0  0  0
  5  7  1  0  0  0  0
  7  8  1  0  0  0  0
  8  9  2  0  0  0  0
  8 10  1  0  0  0  0
 11 10  1  1  0  0  0
 11 12  1  0  0  0  0
 11 13  1  0  0  0  0
 12 14  1  0  0  0  0
 13 15  1  0  0  0  0
 14 16  2  0  0  0  0
 14 17  1  0  0  0  0
 15 18  1  0  0  0  0
 16 19  1  0  0  0  0
 17 20  2  0  0  0  0
 18 21  1  1  0  0  0
 18 22  1  0  0  0  0
 19 23  2  0  0  0  0
 21 24  1  0  0  0  0
 22 25  1  0  0  0  0
 24 26  2  0  0  0  0
 24 27  1  0  0  0  0
 25 28  2  0  0  0  0
 25 29  1  0  0  0  0
 27 30  1  1  0  0  0
 27 31  1  0  0  0  0
 28 32  1  0  0  0  0
 29 33  2  0  0  0  0
 30 34  1  0  0  0  0
 31 35  1  0  0  0  0
 32 36  2  0  0  0  0
 34 37  2  0  0  0  0
 34 38  1  0  0  0  0
 38 39  1  0  0  0  0
 38 40  1  0  0  0  0
 39 41  1  0  0  0  0
 39 42  1  0  0  0  0
 40 43  1  0  0  0  0
 43 44  1  0  0  0  0
 43 45  2  0  0  0  0
 44 46  1  0  0  0  0
 45 47  1  0  0  0  0
  4  6  1  0  0  0  0
 20 23  1  0  0  0  0
 33 36  1  0  0  0  0
 41 42  1  0  0  0  0
 46 47  2  0  0  0  0
M  END
>  <MolRegNo>
1618166

>  <m>
=

>  <Value>
80

>  <Unit>
nM

>  <Type>
IC50

>  <pValue>
7.1

>  <Ligand Efficiency>
0

>  <Binding Efficiency>
0

>  <Surface Efficiency>
0

>  <Assay Index>
821142

>  <Assay Category>


>  <Assay Organism>
Homo sapiens

>  <Target ID>
17045

>  <Target Name>
Cytochrome P450 3A4

>  <Target Organism>
Homo sapiens

>  <Target Description>
Target is a single protein chain

>  <Sequence Accession>
P08684

>  <Reference>
Bioorg Med Chem Lett 24 (3), 995-999 (2014)

>  <Pubmed ID>
24412072

>  <DOI>
10.1016/j.bmcl.2013.12.057

$$$$
1618165
Actelion Java MolfileCreator 1.0

 46 49  0  0  0  0  0  0  0  0999 V2000
    0.0000   -0.0000   -0.0000 S   0  0  0  0  0  0  0  0  0  0  0  0
   -1.4279   -0.4720   -0.0000 C   0  0  0  0  0  0  0  0  0  0  0  0
    0.8733   -1.1919   -0.0000 C   0  0  0  0  0  0  0  0  0  0  0  0
   -1.4279   -1.9471   -0.0000 C   0  0  0  0  0  0  0  0  0  0  0  0
   -2.7378    0.2832   -0.0000 C   0  0  0  0  0  0  0  0  0  0  0  0
   -0.0118   -2.3956   -0.0000 N   0  0  0  0  0  0  0  0  0  0  0  0
   -4.0477   -0.4484   -0.0000 O   0  0  0  0  0  0  0  0  0  0  0  0
   -5.3576    0.3068   -0.0000 C   0  0  0  0  0  0  0  0  0  0  0  0
   -5.3694    1.8173   -0.0000 O   0  0  0  0  0  0  0  0  0  0  0  0
   -6.6675   -0.4248   -0.0000 N   0  0  0  0  0  0  0  0  0  0  0  0
   -7.9774    0.3304   -0.0000 C   0  0  0  0  0  0  0  0  0  0  0  0
   -7.9892    1.8409   -0.0000 C   0  0  0  0  0  0  0  0  0  0  0  0
   -9.2873   -0.4012   -0.0000 C   0  0  0  0  0  0  0  0  0  0  0  0
   -9.2991    2.5962   -0.0000 C   0  0  0  0  0  0  0  0  0  0  0  0
  -10.5972    0.3540   -0.0000 C   0  0  0  0  0  0  0  0  0  0  0  0
   -9.3109    4.1067   -0.0000 C   0  0  0  0  0  0  0  0  0  0  0  0
  -10.5972    1.8645   -0.0000 C   0  0  0  0  0  0  0  0  0  0  0  0
  -11.9071   -0.3776   -0.0000 C   0  0  0  0  0  0  0  0  0  0  0  0
  -10.6208    4.8620   -0.0000 C   0  0  0  0  0  0  0  0  0  0  0  0
  -11.9071    2.6198   -0.0000 C   0  0  0  0  0  0  0  0  0  0  0  0
  -13.2170    0.3776   -0.0000 N   0  0  0  0  0  0  0  0  0  0  0  0
  -11.9189   -1.8645   -0.0000 C   0  0  0  0  0  0  0  0  0  0  0  0
  -11.9307    4.1303   -0.0000 C   0  0  0  0  0  0  0  0  0  0  0  0
  -14.5269   -0.3540   -0.0000 C   0  0  0  0  0  0  0  0  0  0  0  0
  -10.6326   -2.5962   -0.0000 C   0  0  0  0  0  0  0  0  0  0  0  0
  -14.5387   -1.8409   -0.0000 O   0  0  0  0  0  0  0  0  0  0  0  0
  -15.8368    0.4012   -0.0000 C   0  0  0  0  0  0  0  0  0  0  0  0
  -10.6562   -4.0831   -0.0000 C   0  0  0  0  0  0  0  0  0  0  0  0
   -9.3581   -1.8409   -0.0000 C   0  0  0  0  0  0  0  0  0  0  0  0
  -17.1467   -0.3304   -0.0000 N   0  0  0  0  0  0  0  0  0  0  0  0
  -15.8486    1.9117   -0.0000 C   0  0  0  0  0  0  0  0  0  0  0  0
   -9.3699   -4.8148   -0.0000 C   0  0  0  0  0  0  0  0  0  0  0  0
   -8.0718   -2.5726   -0.0000 C   0  0  0  0  0  0  0  0  0  0  0  0
  -18.4566    0.4248   -0.0000 C   0  0  0  0  0  0  0  0  0  0  0  0
  -17.1585    2.6670   -0.0000 C   0  0  0  0  0  0  0  0  0  0  0  0
  -14.5623    2.6670   -0.0000 C   0  0  0  0  0  0  0  0  0  0  0  0
   -8.0836   -4.0595   -0.0000 C   0  0  0  0  0  0  0  0  0  0  0  0
  -18.4684    1.9353   -0.0000 O   0  0  0  0  0  0  0  0  0  0  0  0
  -19.7665   -0.3068   -0.0000 N   0  0  0  0  0  0  0  0  0  0  0  0
  -21.0764    0.4484   -0.0000 C   0  0  0  0  0  0  0  0  0  0  0  0
  -19.7783   -1.7937   -0.0000 C   0  0  0  0  0  0  0  0  0  0  0  0
  -22.3863   -0.2832   -0.0000 C   0  0  0  0  0  0  0  0  0  0  0  0
  -23.8142    0.2360   -0.0000 N   0  0  0  0  0  0  0  0  0  0  0  0
  -22.4453   -1.7701   -0.0000 C   0  0  0  0  0  0  0  0  0  0  0  0
  -24.7464   -0.9323   -0.0000 C   0  0  0  0  0  0  0  0  0  0  0  0
  -23.8968   -2.1832   -0.0000 S   0  0  0  0  0  0  0  0  0  0  0  0
  1  2  1  0  0  0  0
  1  3  1  0  0  0  0
  2  4  2  0  0  0  0
  2  5  1  0  0  0  0
  3  6  2  0  0  0  0
  5  7  1  0  0  0  0
  7  8  1  0  0  0  0
  8  9  2  0  0  0  0
  8 10  1  0  0  0  0
 11 10  1  1  0  0  0
 11 12  1  0  0  0  0
 11 13  1  0  0  0  0
 12 14  1  0  0  0  0
 13 15  1  0  0  0  0
 14 16  2  0  0  0  0
 14 17  1  0  0  0  0
 15 18  1  0  0  0  0
 16 19  1  0  0  0  0
 17 20  2  0  0  0  0
 18 21  1  1  0  0  0
 18 22  1  0  0  0  0
 19 23  2  0  0  0  0
 21 24  1  0  0  0  0
 22 25  1  0  0  0  0
 24 26  2  0  0  0  0
 24 27  1  0  0  0  0
 25 28  2  0  0  0  0
 25 29  1  0  0  0  0
 27 30  1  1  0  0  0
 27 31  1  0  0  0  0
 28 32  1  0  0  0  0
 29 33  2  0  0  0  0
 30 34  1  0  0  0  0
 31 35  1  0  0  0  0
 31 36  1  0  0  0  0
 32 37  2  0  0  0  0
 34 38  2  0  0  0  0
 34 39  1  0  0  0  0
 39 40  1  0  0  0  0
 39 41  1  0  0  0  0
 40 42  1  0  0  0  0
 42 43  1  0  0  0  0
 42 44  2  0  0  0  0
 43 45  2  0  0  0  0
 44 46  1  0  0  0  0
  4  6  1  0  0  0  0
 20 23  1  0  0  0  0
 33 37  1  0  0  0  0
 45 46  1  0  0  0  0
M  END
>  <MolRegNo>
1618165

>  <m>
=

>  <Value>
120

>  <Unit>
nM

>  <Type>
IC50

>  <pValue>
6.92

>  <Ligand Efficiency>
0

>  <Binding Efficiency>
0

>  <Surface Efficiency>
0

>  <Assay Index>
821142

>  <Assay Category>


>  <Assay Organism>
Homo sapiens

>  <Target ID>
17045

>  <Target Name>
Cytochrome P450 3A4

>  <Target Organism>
Homo sapiens

>  <Target Description>
Target is a single protein chain

>  <Sequence Accession>
P08684

>  <Reference>
Bioorg Med Chem Lett 24 (3), 995-999 (2014)

>  <Pubmed ID>
24412072

>  <DOI>
10.1016/j.bmcl.2013.12.057

$$$$
1618164
Actelion Java MolfileCreator 1.0

 52 55  0  0  0  0  0  0  0  0999 V2000
    0.0000   -0.0000   -0.0000 S   0  0  0  0  0  0  0  0  0  0  0  0
   -1.4271   -0.4718   -0.0000 C   0  0  0  0  0  0  0  0  0  0  0  0
    0.8728   -1.1912   -0.0000 C   0  0  0  0  0  0  0  0  0  0  0  0
   -1.4271   -1.9461   -0.0000 C   0  0  0  0  0  0  0  0  0  0  0  0
   -2.7363    0.2831   -0.0000 C   0  0  0  0  0  0  0  0  0  0  0  0
   -0.0118   -2.3943   -0.0000 N   0  0  0  0  0  0  0  0  0  0  0  0
   -4.0455   -0.4482   -0.0000 O   0  0  0  0  0  0  0  0  0  0  0  0
   -5.3547    0.3067   -0.0000 C   0  0  0  0  0  0  0  0  0  0  0  0
   -5.3665    1.8164   -0.0000 O   0  0  0  0  0  0  0  0  0  0  0  0
   -6.6639   -0.4246   -0.0000 N   0  0  0  0  0  0  0  0  0  0  0  0
   -7.9731    0.3302   -0.0000 C   0  0  0  0  0  0  0  0  0  0  0  0
   -7.9849    1.8399   -0.0000 C   0  0  0  0  0  0  0  0  0  0  0  0
   -9.2823   -0.4010   -0.0000 C   0  0  0  0  0  0  0  0  0  0  0  0
   -9.2941    2.5948   -0.0000 C   0  0  0  0  0  0  0  0  0  0  0  0
  -10.5915    0.3538   -0.0000 C   0  0  0  0  0  0  0  0  0  0  0  0
   -9.3059    4.1045   -0.0000 C   0  0  0  0  0  0  0  0  0  0  0  0
  -10.5915    1.8635   -0.0000 C   0  0  0  0  0  0  0  0  0  0  0  0
  -11.9006   -0.3774   -0.0000 C   0  0  0  0  0  0  0  0  0  0  0  0
  -10.6150    4.8593   -0.0000 C   0  0  0  0  0  0  0  0  0  0  0  0
  -11.9006    2.6184   -0.0000 C   0  0  0  0  0  0  0  0  0  0  0  0
  -13.2098    0.3774   -0.0000 N   0  0  0  0  0  0  0  0  0  0  0  0
  -11.9124   -1.8635   -0.0000 C   0  0  0  0  0  0  0  0  0  0  0  0
  -11.9242    4.1281   -0.0000 C   0  0  0  0  0  0  0  0  0  0  0  0
  -14.5190   -0.3538   -0.0000 C   0  0  0  0  0  0  0  0  0  0  0  0
  -10.6268   -2.5948   -0.0000 C   0  0  0  0  0  0  0  0  0  0  0  0
  -14.5308   -1.8399   -0.0000 O   0  0  0  0  0  0  0  0  0  0  0  0
  -15.8282    0.4010   -0.0000 C   0  0  0  0  0  0  0  0  0  0  0  0
  -10.6504   -4.0809   -0.0000 C   0  0  0  0  0  0  0  0  0  0  0  0
   -9.3530   -1.8399   -0.0000 C   0  0  0  0  0  0  0  0  0  0  0  0
  -17.1374   -0.3302   -0.0000 N   0  0  0  0  0  0  0  0  0  0  0  0
  -15.8400    1.9107   -0.0000 C   0  0  0  0  0  0  0  0  0  0  0  0
   -9.3648   -4.8122   -0.0000 C   0  0  0  0  0  0  0  0  0  0  0  0
   -8.0674   -2.5712   -0.0000 C   0  0  0  0  0  0  0  0  0  0  0  0
  -18.4466    0.4246   -0.0000 C   0  0  0  0  0  0  0  0  0  0  0  0
  -14.5544    2.6656   -0.0000 C   0  0  0  0  0  0  0  0  0  0  0  0
   -8.0792   -4.0573   -0.0000 C   0  0  0  0  0  0  0  0  0  0  0  0
  -18.4584    1.9343   -0.0000 O   0  0  0  0  0  0  0  0  0  0  0  0
  -19.7558   -0.3067   -0.0000 N   0  0  0  0  0  0  0  0  0  0  0  0
  -14.5662    4.1752   -0.0000 N   0  0  0  0  0  0  0  0  0  0  0  0
  -21.0650    0.4482   -0.0000 C   0  0  0  0  0  0  0  0  0  0  0  0
  -19.7676   -1.7928   -0.0000 C   0  0  0  0  0  0  0  0  0  0  0  0
  -15.8754    4.9301   -0.0000 C   0  0  0  0  0  0  0  0  0  0  0  0
  -22.3741   -0.2831   -0.0000 C   0  0  0  0  0  0  0  0  0  0  0  0
  -15.8872    6.4398   -0.0000 O   0  0  0  0  0  0  0  0  0  0  0  0
  -17.1846    4.1988   -0.0000 C   0  0  0  0  0  0  0  0  0  0  0  0
  -23.8013    0.2359   -0.0000 N   0  0  0  0  0  0  0  0  0  0  0  0
  -22.4331   -1.7692   -0.0000 C   0  0  0  0  0  0  0  0  0  0  0  0
  -24.7330   -0.9318   -0.0000 C   0  0  0  0  0  0  0  0  0  0  0  0
  -23.8838   -2.1820   -0.0000 S   0  0  0  0  0  0  0  0  0  0  0  0
  -26.2427   -0.8728   -0.0000 C   0  0  0  0  0  0  0  0  0  0  0  0
  -26.9622    0.4600   -0.0000 C   0  0  0  0  0  0  0  0  0  0  0  0
  -27.0448   -2.1348   -0.0000 C   0  0  0  0  0  0  0  0  0  0  0  0
  1  2  1  0  0  0  0
  1  3  1  0  0  0  0
  2  4  2  0  0  0  0
  2  5  1  0  0  0  0
  3  6  2  0  0  0  0
  5  7  1  0  0  0  0
  7  8  1  0  0  0  0
  8  9  2  0  0  0  0
  8 10  1  0  0  0  0
 11 10  1  1  0  0  0
 11 12  1  0  0  0  0
 11 13  1  0  0  0  0
 12 14  1  0  0  0  0
 13 15  1  0  0  0  0
 14 16  2  0  0  0  0
 14 17  1  0  0  0  0
 15 18  1  0  0  0  0
 16 19  1  0  0  0  0
 17 20  2  0  0  0  0
 18 21  1  1  0  0  0
 18 22  1  0  0  0  0
 19 23  2  0  0  0  0
 21 24  1  0  0  0  0
 22 25  1  0  0  0  0
 24 26  2  0  0  0  0
 24 27  1  0  0  0  0
 25 28  2  0  0  0  0
 25 29  1  0  0  0  0
 27 30  1  1  0  0  0
 27 31  1  0  0  0  0
 28 32  1  0  0  0  0
 29 33  2  0  0  0  0
 30 34  1  0  0  0  0
 31 35  1  0  0  0  0
 32 36  2  0  0  0  0
 34 37  2  0  0  0  0
 34 38  1  0  0  0  0
 35 39  1  0  0  0  0
 38 40  1  0  0  0  0
 38 41  1  0  0  0  0
 39 42  1  0  0  0  0
 40 43  1  0  0  0  0
 42 44  2  0  0  0  0
 42 45  1  0  0  0  0
 43 46  1  0  0  0  0
 43 47  2  0  0  0  0
 46 48  2  0  0  0  0
 47 49  1  0  0  0  0
 48 50  1  0  0  0  0
 50 51  1  0  0  0  0
 50 52  1  0  0  0  0
  4  6  1  0  0  0  0
 20 23  1  0  0  0  0
 33 36  1  0  0  0  0
 48 49  1  0  0  0  0
M  END
>  <MolRegNo>
1618164

>  <m>
=

>  <Value>
120

>  <Unit>
nM

>  <Type>
IC50

>  <pValue>
6.92

>  <Ligand Efficiency>
0

>  <Binding Efficiency>
0

>  <Surface Efficiency>
0

>  <Assay Index>
821142

>  <Assay Category>


>  <Assay Organism>
Homo sapiens

>  <Target ID>
17045

>  <Target Name>
Cytochrome P450 3A4

>  <Target Organism>
Homo sapiens

>  <Target Description>
Target is a single protein chain

>  <Sequence Accession>
P08684

>  <Reference>
Bioorg Med Chem Lett 24 (3), 995-999 (2014)

>  <Pubmed ID>
24412072

>  <DOI>
10.1016/j.bmcl.2013.12.057

$$$$
1618163
Actelion Java MolfileCreator 1.0

 48 51  0  0  0  0  0  0  0  0999 V2000
    0.0000   -0.0000   -0.0000 S   0  0  0  0  0  0  0  0  0  0  0  0
   -1.4353   -0.4745   -0.0000 C   0  0  0  0  0  0  0  0  0  0  0  0
    0.8778   -1.1980   -0.0000 C   0  0  0  0  0  0  0  0  0  0  0  0
   -1.4353   -1.9572   -0.0000 C   0  0  0  0  0  0  0  0  0  0  0  0
   -2.7401    0.2847   -0.0000 C   0  0  0  0  0  0  0  0  0  0  0  0
    0.0000   -2.4079   -0.0000 N   0  0  0  0  0  0  0  0  0  0  0  0
   -4.0449   -0.4507   -0.0000 O   0  0  0  0  0  0  0  0  0  0  0  0
   -5.3497    0.3084   -0.0000 C   0  0  0  0  0  0  0  0  0  0  0  0
   -5.3615    1.8149   -0.0000 O   0  0  0  0  0  0  0  0  0  0  0  0
   -6.6545   -0.4270   -0.0000 N   0  0  0  0  0  0  0  0  0  0  0  0
   -7.9592    0.3321   -0.0000 C   0  0  0  0  0  0  0  0  0  0  0  0
   -7.9711    1.8386   -0.0000 C   0  0  0  0  0  0  0  0  0  0  0  0
   -9.2640   -0.4033   -0.0000 C   0  0  0  0  0  0  0  0  0  0  0  0
   -9.2759    2.5977   -0.0000 C   0  0  0  0  0  0  0  0  0  0  0  0
  -10.5688    0.3559   -0.0000 C   0  0  0  0  0  0  0  0  0  0  0  0
   -9.2878    4.1160   -0.0000 C   0  0  0  0  0  0  0  0  0  0  0  0
  -10.5807    1.8623   -0.0000 C   0  0  0  0  0  0  0  0  0  0  0  0
  -11.8736   -0.3796   -0.0000 C   0  0  0  0  0  0  0  0  0  0  0  0
  -10.5926    4.8752   -0.0000 C   0  0  0  0  0  0  0  0  0  0  0  0
  -11.8855    2.6215   -0.0000 C   0  0  0  0  0  0  0  0  0  0  0  0
  -13.1784    0.3796   -0.0000 N   0  0  0  0  0  0  0  0  0  0  0  0
  -11.8855   -1.8623   -0.0000 C   0  0  0  0  0  0  0  0  0  0  0  0
  -11.9092    4.1398   -0.0000 C   0  0  0  0  0  0  0  0  0  0  0  0
  -14.4832   -0.3559   -0.0000 C   0  0  0  0  0  0  0  0  0  0  0  0
  -10.6044   -2.5977   -0.0000 C   0  0  0  0  0  0  0  0  0  0  0  0
  -14.4951   -1.8386   -0.0000 O   0  0  0  0  0  0  0  0  0  0  0  0
  -15.7880    0.4033   -0.0000 C   0  0  0  0  0  0  0  0  0  0  0  0
  -10.6281   -4.0923   -0.0000 C   0  0  0  0  0  0  0  0  0  0  0  0
   -9.3352   -1.8386   -0.0000 C   0  0  0  0  0  0  0  0  0  0  0  0
  -17.0928   -0.3321   -0.0000 N   0  0  0  0  0  0  0  0  0  0  0  0
  -15.7999    1.9097   -0.0000 C   0  0  0  0  0  0  0  0  0  0  0  0
   -9.3471   -4.8277   -0.0000 C   0  0  0  0  0  0  0  0  0  0  0  0
   -8.0541   -2.5740   -0.0000 C   0  0  0  0  0  0  0  0  0  0  0  0
  -18.3976    0.4270   -0.0000 C   0  0  0  0  0  0  0  0  0  0  0  0
  -14.5188    2.6689   -0.0000 O   0  0  0  0  0  0  0  0  0  0  0  0
   -8.0541   -4.0686   -0.0000 C   0  0  0  0  0  0  0  0  0  0  0  0
  -18.4095    1.9335   -0.0000 O   0  0  0  0  0  0  0  0  0  0  0  0
  -19.7024   -0.3084   -0.0000 N   0  0  0  0  0  0  0  0  0  0  0  0
  -21.0072    0.4507   -0.0000 C   0  0  0  0  0  0  0  0  0  0  0  0
  -19.7143   -1.7911   -0.0000 C   0  0  0  0  0  0  0  0  0  0  0  0
  -22.3120   -0.2847   -0.0000 C   0  0  0  0  0  0  0  0  0  0  0  0
  -23.7473    0.2372   -0.0000 N   0  0  0  0  0  0  0  0  0  0  0  0
  -22.3713   -1.7674   -0.0000 C   0  0  0  0  0  0  0  0  0  0  0  0
  -24.6725   -0.9371   -0.0000 C   0  0  0  0  0  0  0  0  0  0  0  0
  -23.8184   -2.1707   -0.0000 S   0  0  0  0  0  0  0  0  0  0  0  0
  -26.1908   -0.8778   -0.0000 C   0  0  0  0  0  0  0  0  0  0  0  0
  -26.9144    0.4507   -0.0000 C   0  0  0  0  0  0  0  0  0  0  0  0
  -26.9855   -2.1351   -0.0000 C   0  0  0  0  0  0  0  0  0  0  0  0
  1  2  1  0  0  0  0
  1  3  1  0  0  0  0
  2  4  2  0  0  0  0
  2  5  1  0  0  0  0
  3  6  2  0  0  0  0
  5  7  1  0  0  0  0
  7  8  1  0  0  0  0
  8  9  2  0  0  0  0
  8 10  1  0  0  0  0
 11 10  1  1  0  0  0
 11 12  1  0  0  0  0
 11 13  1  0  0  0  0
 12 14  1  0  0  0  0
 13 15  1  0  0  0  0
 14 16  2  0  0  0  0
 14 17  1  0  0  0  0
 15 18  1  0  0  0  0
 16 19  1  0  0  0  0
 17 20  2  0  0  0  0
 18 21  1  1  0  0  0
 18 22  1  0  0  0  0
 19 23  2  0  0  0  0
 21 24  1  0  0  0  0
 22 25  1  0  0  0  0
 24 26  2  0  0  0  0
 24 27  1  0  0  0  0
 25 28  2  0  0  0  0
 25 29  1  0  0  0  0
 27 30  1  1  0  0  0
 27 31  1  0  0  0  0
 28 32  1  0  0  0  0
 29 33  2  0  0  0  0
 30 34  1  0  0  0  0
 31 35  1  0  0  0  0
 32 36  2  0  0  0  0
 34 37  2  0  0  0  0
 34 38  1  0  0  0  0
 38 39  1  0  0  0  0
 38 40  1  0  0  0  0
 39 41  1  0  0  0  0
 41 42  1  0  0  0  0
 41 43  2  0  0  0  0
 42 44  2  0  0  0  0
 43 45  1  0  0  0  0
 44 46  1  0  0  0  0
 46 47  1  0  0  0  0
 46 48  1  0  0  0  0
  4  6  1  0  0  0  0
 20 23  1  0  0  0  0
 33 36  1  0  0  0  0
 44 45  1  0  0  0  0
M  END
>  <MolRegNo>
1618163

>  <m>
=

>  <Value>
140

>  <Unit>
nM

>  <Type>
IC50

>  <pValue>
6.85

>  <Ligand Efficiency>
0

>  <Binding Efficiency>
0

>  <Surface Efficiency>
0

>  <Assay Index>
821142

>  <Assay Category>


>  <Assay Organism>
Homo sapiens

>  <Target ID>
17045

>  <Target Name>
Cytochrome P450 3A4

>  <Target Organism>
Homo sapiens

>  <Target Description>
Target is a single protein chain

>  <Sequence Accession>
P08684

>  <Reference>
Bioorg Med Chem Lett 24 (3), 995-999 (2014)

>  <Pubmed ID>
24412072

>  <DOI>
10.1016/j.bmcl.2013.12.057

$$$$
1618162
Actelion Java MolfileCreator 1.0

 52 56  0  0  0  0  0  0  0  0999 V2000
    0.0000   -0.0000   -0.0000 S   0  0  0  0  0  0  0  0  0  0  0  0
   -1.4287   -0.4723   -0.0000 C   0  0  0  0  0  0  0  0  0  0  0  0
    0.8738   -1.1926   -0.0000 C   0  0  0  0  0  0  0  0  0  0  0  0
   -1.4287   -1.9482   -0.0000 C   0  0  0  0  0  0  0  0  0  0  0  0
   -2.7394    0.2834   -0.0000 C   0  0  0  0  0  0  0  0  0  0  0  0
   -0.0118   -2.3969   -0.0000 N   0  0  0  0  0  0  0  0  0  0  0  0
   -4.0500   -0.4487   -0.0000 O   0  0  0  0  0  0  0  0  0  0  0  0
   -5.3606    0.3070   -0.0000 C   0  0  0  0  0  0  0  0  0  0  0  0
   -5.3724    1.8184   -0.0000 O   0  0  0  0  0  0  0  0  0  0  0  0
   -6.6713   -0.4251   -0.0000 N   0  0  0  0  0  0  0  0  0  0  0  0
   -7.9819    0.3306   -0.0000 C   0  0  0  0  0  0  0  0  0  0  0  0
   -7.9937    1.8420   -0.0000 C   0  0  0  0  0  0  0  0  0  0  0  0
   -9.2925   -0.4015   -0.0000 C   0  0  0  0  0  0  0  0  0  0  0  0
   -9.3043    2.5977   -0.0000 C   0  0  0  0  0  0  0  0  0  0  0  0
  -10.6032    0.3542   -0.0000 C   0  0  0  0  0  0  0  0  0  0  0  0
   -9.3162    4.1090   -0.0000 C   0  0  0  0  0  0  0  0  0  0  0  0
  -10.6032    1.8656   -0.0000 C   0  0  0  0  0  0  0  0  0  0  0  0
  -11.9138   -0.3778   -0.0000 C   0  0  0  0  0  0  0  0  0  0  0  0
  -10.6268    4.8647   -0.0000 C   0  0  0  0  0  0  0  0  0  0  0  0
  -11.9138    2.6213   -0.0000 C   0  0  0  0  0  0  0  0  0  0  0  0
  -13.2244    0.3778   -0.0000 N   0  0  0  0  0  0  0  0  0  0  0  0
  -11.9256   -1.8656   -0.0000 C   0  0  0  0  0  0  0  0  0  0  0  0
  -11.9374    4.1326   -0.0000 C   0  0  0  0  0  0  0  0  0  0  0  0
  -14.5351   -0.3542   -0.0000 C   0  0  0  0  0  0  0  0  0  0  0  0
  -10.6386   -2.5977   -0.0000 C   0  0  0  0  0  0  0  0  0  0  0  0
  -14.5469   -1.8420   -0.0000 O   0  0  0  0  0  0  0  0  0  0  0  0
  -15.8457    0.4015   -0.0000 C   0  0  0  0  0  0  0  0  0  0  0  0
  -10.6622   -4.0854   -0.0000 C   0  0  0  0  0  0  0  0  0  0  0  0
   -9.3634   -1.8420   -0.0000 C   0  0  0  0  0  0  0  0  0  0  0  0
  -17.1564   -0.3306   -0.0000 N   0  0  0  0  0  0  0  0  0  0  0  0
  -15.8575    1.9128   -0.0000 C   0  0  0  0  0  0  0  0  0  0  0  0
   -9.3752   -4.8175   -0.0000 C   0  0  0  0  0  0  0  0  0  0  0  0
   -8.0764   -2.5740   -0.0000 C   0  0  0  0  0  0  0  0  0  0  0  0
  -18.4670    0.4251   -0.0000 C   0  0  0  0  0  0  0  0  0  0  0  0
  -14.5705    2.6685   -0.0000 N   0  0  0  0  0  0  0  0  0  0  0  0
   -8.0882   -4.0618   -0.0000 C   0  0  0  0  0  0  0  0  0  0  0  0
  -18.4788    1.9364   -0.0000 O   0  0  0  0  0  0  0  0  0  0  0  0
  -19.7776   -0.3070   -0.0000 N   0  0  0  0  0  0  0  0  0  0  0  0
  -14.5587    4.1799   -0.0000 N   0  0  0  0  0  0  0  0  0  0  0  0
  -13.1772    2.1844   -0.0000 C   0  0  0  0  0  0  0  0  0  0  0  0
  -21.0883    0.4487   -0.0000 C   0  0  0  0  0  0  0  0  0  0  0  0
  -19.7894   -1.7947   -0.0000 C   0  0  0  0  0  0  0  0  0  0  0  0
  -13.1300    4.6167   -0.0000 C   0  0  0  0  0  0  0  0  0  0  0  0
  -12.2798    3.3888   -0.0000 C   0  0  0  0  0  0  0  0  0  0  0  0
  -22.3989   -0.2834   -0.0000 C   0  0  0  0  0  0  0  0  0  0  0  0
  -23.8512    0.1535   -0.0000 N   0  0  0  0  0  0  0  0  0  0  0  0
  -22.3753   -1.7711   -0.0000 C   0  0  0  0  0  0  0  0  0  0  0  0
  -24.7014   -1.0745   -0.0000 C   0  0  0  0  0  0  0  0  0  0  0  0
  -23.7922   -2.2670   -0.0000 S   0  0  0  0  0  0  0  0  0  0  0  0
  -26.2127   -1.1099   -0.0000 C   0  0  0  0  0  0  0  0  0  0  0  0
  -27.0157    0.1771   -0.0000 C   0  0  0  0  0  0  0  0  0  0  0  0
  -26.9330   -2.4205   -0.0000 C   0  0  0  0  0  0  0  0  0  0  0  0
  1  2  1  0  0  0  0
  1  3  1  0  0  0  0
  2  4  2  0  0  0  0
  2  5  1  0  0  0  0
  3  6  2  0  0  0  0
  5  7  1  0  0  0  0
  7  8  1  0  0  0  0
  8  9  2  0  0  0  0
  8 10  1  0  0  0  0
 11 10  1  6  0  0  0
 11 12  1  0  0  0  0
 11 13  1  0  0  0  0
 12 14  1  0  0  0  0
 13 15  1  0  0  0  0
 14 16  2  0  0  0  0
 14 17  1  0  0  0  0
 15 18  1  0  0  0  0
 16 19  1  0  0  0  0
 17 20  2  0  0  0  0
 18 21  1  6  0  0  0
 18 22  1  0  0  0  0
 19 23  2  0  0  0  0
 21 24  1  0  0  0  0
 22 25  1  0  0  0  0
 24 26  2  0  0  0  0
 24 27  1  0  0  0  0
 25 28  2  0  0  0  0
 25 29  1  0  0  0  0
 27 30  1  1  0  0  0
 27 31  1  0  0  0  0
 28 32  1  0  0  0  0
 29 33  2  0  0  0  0
 30 34  1  0  0  0  0
 31 35  1  0  0  0  0
 32 36  2  0  0  0  0
 34 37  2  0  0  0  0
 34 38  1  0  0  0  0
 35 39  1  0  0  0  0
 35 40  1  0  0  0  0
 38 41  1  0  0  0  0
 38 42  1  0  0  0  0
 39 43  2  0  0  0  0
 40 44  2  0  0  0  0
 41 45  1  0  0  0  0
 45 46  1  0  0  0  0
 45 47  2  0  0  0  0
 46 48  2  0  0  0  0
 47 49  1  0  0  0  0
 48 50  1  0  0  0  0
 50 51  1  0  0  0  0
 50 52  1  0  0  0  0
  4  6  1  0  0  0  0
 20 23  1  0  0  0  0
 33 36  1  0  0  0  0
 43 44  1  0  0  0  0
 48 49  1  0  0  0  0
M  END
>  <MolRegNo>
1618162

>  <m>
=

>  <Value>
100

>  <Unit>
nM

>  <Type>
IC50

>  <pValue>
7

>  <Ligand Efficiency>
0

>  <Binding Efficiency>
0

>  <Surface Efficiency>
0

>  <Assay Index>
821142

>  <Assay Category>


>  <Assay Organism>
Homo sapiens

>  <Target ID>
17045

>  <Target Name>
Cytochrome P450 3A4

>  <Target Organism>
Homo sapiens

>  <Target Description>
Target is a single protein chain

>  <Sequence Accession>
P08684

>  <Reference>
Bioorg Med Chem Lett 24 (3), 995-999 (2014)

>  <Pubmed ID>
24412072

>  <DOI>
10.1016/j.bmcl.2013.12.057

$$$$
1618161
Actelion Java MolfileCreator 1.0

 53 57  0  0  0  0  0  0  0  0999 V2000
    0.0000   -0.0000   -0.0000 S   0  0  0  0  0  0  0  0  0  0  0  0
   -1.4286   -0.4723   -0.0000 C   0  0  0  0  0  0  0  0  0  0  0  0
    0.8737   -1.1924   -0.0000 C   0  0  0  0  0  0  0  0  0  0  0  0
   -1.4286   -1.9481   -0.0000 C   0  0  0  0  0  0  0  0  0  0  0  0
   -2.7391    0.2834   -0.0000 C   0  0  0  0  0  0  0  0  0  0  0  0
   -0.0118   -2.3967   -0.0000 N   0  0  0  0  0  0  0  0  0  0  0  0
   -4.0496   -0.4486   -0.0000 O   0  0  0  0  0  0  0  0  0  0  0  0
   -5.3601    0.3070   -0.0000 C   0  0  0  0  0  0  0  0  0  0  0  0
   -5.3719    1.8182   -0.0000 O   0  0  0  0  0  0  0  0  0  0  0  0
   -6.6706   -0.4250   -0.0000 N   0  0  0  0  0  0  0  0  0  0  0  0
   -7.9811    0.3306   -0.0000 C   0  0  0  0  0  0  0  0  0  0  0  0
   -7.9929    1.8418   -0.0000 C   0  0  0  0  0  0  0  0  0  0  0  0
   -9.2916   -0.4014   -0.0000 C   0  0  0  0  0  0  0  0  0  0  0  0
   -9.3034    2.5974   -0.0000 C   0  0  0  0  0  0  0  0  0  0  0  0
  -10.6021    0.3542   -0.0000 C   0  0  0  0  0  0  0  0  0  0  0  0
   -9.3152    4.1086   -0.0000 C   0  0  0  0  0  0  0  0  0  0  0  0
  -10.6021    1.8654   -0.0000 C   0  0  0  0  0  0  0  0  0  0  0  0
  -11.9126   -0.3778   -0.0000 C   0  0  0  0  0  0  0  0  0  0  0  0
  -10.6257    4.8642   -0.0000 C   0  0  0  0  0  0  0  0  0  0  0  0
  -11.9126    2.6210   -0.0000 C   0  0  0  0  0  0  0  0  0  0  0  0
  -13.2231    0.3778   -0.0000 N   0  0  0  0  0  0  0  0  0  0  0  0
  -11.9244   -1.8654   -0.0000 C   0  0  0  0  0  0  0  0  0  0  0  0
  -11.9362    4.1322   -0.0000 C   0  0  0  0  0  0  0  0  0  0  0  0
  -14.5336   -0.3542   -0.0000 C   0  0  0  0  0  0  0  0  0  0  0  0
  -10.6375   -2.5974   -0.0000 C   0  0  0  0  0  0  0  0  0  0  0  0
  -14.5454   -1.8418   -0.0000 O   0  0  0  0  0  0  0  0  0  0  0  0
  -15.8441    0.4014   -0.0000 C   0  0  0  0  0  0  0  0  0  0  0  0
  -10.6612   -4.0850   -0.0000 C   0  0  0  0  0  0  0  0  0  0  0  0
   -9.3625   -1.8418   -0.0000 C   0  0  0  0  0  0  0  0  0  0  0  0
  -17.1547   -0.3306   -0.0000 N   0  0  0  0  0  0  0  0  0  0  0  0
  -15.8560    1.9126   -0.0000 C   0  0  0  0  0  0  0  0  0  0  0  0
   -9.3743   -4.8170   -0.0000 C   0  0  0  0  0  0  0  0  0  0  0  0
   -8.0756   -2.5738   -0.0000 C   0  0  0  0  0  0  0  0  0  0  0  0
  -18.4652    0.4250   -0.0000 C   0  0  0  0  0  0  0  0  0  0  0  0
  -14.5691    2.6682   -0.0000 C   0  0  0  0  0  0  0  0  0  0  0  0
   -8.0874   -4.0614   -0.0000 C   0  0  0  0  0  0  0  0  0  0  0  0
  -18.4770    1.9362   -0.0000 O   0  0  0  0  0  0  0  0  0  0  0  0
  -19.7757   -0.3070   -0.0000 N   0  0  0  0  0  0  0  0  0  0  0  0
  -13.1759    2.1842   -0.0000 N   0  0  0  0  0  0  0  0  0  0  0  0
  -14.5573    4.1795   -0.0000 C   0  0  0  0  0  0  0  0  0  0  0  0
  -21.0862    0.4486   -0.0000 C   0  0  0  0  0  0  0  0  0  0  0  0
  -19.7875   -1.7946   -0.0000 C   0  0  0  0  0  0  0  0  0  0  0  0
  -12.2786    3.3884   -0.0000 C   0  0  0  0  0  0  0  0  0  0  0  0
  -13.1287    4.6163   -0.0000 N   0  0  0  0  0  0  0  0  0  0  0  0
  -22.3967   -0.2834   -0.0000 C   0  0  0  0  0  0  0  0  0  0  0  0
  -12.6446    6.0449   -0.0000 C   0  0  0  0  0  0  0  0  0  0  0  0
  -23.8489    0.1535   -0.0000 N   0  0  0  0  0  0  0  0  0  0  0  0
  -22.3731   -1.7710   -0.0000 C   0  0  0  0  0  0  0  0  0  0  0  0
  -24.6989   -1.0744   -0.0000 C   0  0  0  0  0  0  0  0  0  0  0  0
  -23.7898   -2.2668   -0.0000 S   0  0  0  0  0  0  0  0  0  0  0  0
  -26.2101   -1.1098   -0.0000 C   0  0  0  0  0  0  0  0  0  0  0  0
  -27.0130    0.1771   -0.0000 C   0  0  0  0  0  0  0  0  0  0  0  0
  -26.9303   -2.4203   -0.0000 C   0  0  0  0  0  0  0  0  0  0  0  0
  1  2  1  0  0  0  0
  1  3  1  0  0  0  0
  2  4  2  0  0  0  0
  2  5  1  0  0  0  0
  3  6  2  0  0  0  0
  5  7  1  0  0  0  0
  7  8  1  0  0  0  0
  8  9  2  0  0  0  0
  8 10  1  0  0  0  0
 11 10  1  6  0  0  0
 11 12  1  0  0  0  0
 11 13  1  0  0  0  0
 12 14  1  0  0  0  0
 13 15  1  0  0  0  0
 14 16  2  0  0  0  0
 14 17  1  0  0  0  0
 15 18  1  0  0  0  0
 16 19  1  0  0  0  0
 17 20  2  0  0  0  0
 18 21  1  6  0  0  0
 18 22  1  0  0  0  0
 19 23  2  0  0  0  0
 21 24  1  0  0  0  0
 22 25  1  0  0  0  0
 24 26  2  0  0  0  0
 24 27  1  0  0  0  0
 25 28  2  0  0  0  0
 25 29  1  0  0  0  0
 27 30  1  1  0  0  0
 27 31  1  0  0  0  0
 28 32  1  0  0  0  0
 29 33  2  0  0  0  0
 30 34  1  0  0  0  0
 31 35  1  0  0  0  0
 32 36  2  0  0  0  0
 34 37  2  0  0  0  0
 34 38  1  0  0  0  0
 35 39  1  0  0  0  0
 35 40  2  0  0  0  0
 38 41  1  0  0  0  0
 38 42  1  0  0  0  0
 39 43  2  0  0  0  0
 40 44  1  0  0  0  0
 41 45  1  0  0  0  0
 44 46  1  0  0  0  0
 45 47  1  0  0  0  0
 45 48  2  0  0  0  0
 47 49  2  0  0  0  0
 48 50  1  0  0  0  0
 49 51  1  0  0  0  0
 51 52  1  0  0  0  0
 51 53  1  0  0  0  0
  4  6  1  0  0  0  0
 20 23  1  0  0  0  0
 33 36  1  0  0  0  0
 43 44  1  0  0  0  0
 49 50  1  0  0  0  0
M  END
>  <MolRegNo>
1618161

>  <m>
=

>  <Value>
110

>  <Unit>
nM

>  <Type>
IC50

>  <pValue>
6.96

>  <Ligand Efficiency>
0

>  <Binding Efficiency>
0

>  <Surface Efficiency>
0

>  <Assay Index>
821142

>  <Assay Category>


>  <Assay Organism>
Homo sapiens

>  <Target ID>
17045

>  <Target Name>
Cytochrome P450 3A4

>  <Target Organism>
Homo sapiens

>  <Target Description>
Target is a single protein chain

>  <Sequence Accession>
P08684

>  <Reference>
Bioorg Med Chem Lett 24 (3), 995-999 (2014)

>  <Pubmed ID>
24412072

>  <DOI>
10.1016/j.bmcl.2013.12.057

$$$$
1618160
Actelion Java MolfileCreator 1.0

 52 56  0  0  0  0  0  0  0  0999 V2000
    0.0000   -0.0000   -0.0000 S   0  0  0  0  0  0  0  0  0  0  0  0
   -1.4287   -0.4723   -0.0000 C   0  0  0  0  0  0  0  0  0  0  0  0
    0.8738   -1.1926   -0.0000 C   0  0  0  0  0  0  0  0  0  0  0  0
   -1.4287   -1.9482   -0.0000 C   0  0  0  0  0  0  0  0  0  0  0  0
   -2.7394    0.2834   -0.0000 C   0  0  0  0  0  0  0  0  0  0  0  0
   -0.0118   -2.3969   -0.0000 N   0  0  0  0  0  0  0  0  0  0  0  0
   -4.0500   -0.4487   -0.0000 O   0  0  0  0  0  0  0  0  0  0  0  0
   -5.3606    0.3070   -0.0000 C   0  0  0  0  0  0  0  0  0  0  0  0
   -5.3724    1.8184   -0.0000 O   0  0  0  0  0  0  0  0  0  0  0  0
   -6.6713   -0.4251   -0.0000 N   0  0  0  0  0  0  0  0  0  0  0  0
   -7.9819    0.3306   -0.0000 C   0  0  0  0  0  0  0  0  0  0  0  0
   -7.9937    1.8420   -0.0000 C   0  0  0  0  0  0  0  0  0  0  0  0
   -9.2925   -0.4015   -0.0000 C   0  0  0  0  0  0  0  0  0  0  0  0
   -9.3043    2.5977   -0.0000 C   0  0  0  0  0  0  0  0  0  0  0  0
  -10.6032    0.3542   -0.0000 C   0  0  0  0  0  0  0  0  0  0  0  0
   -9.3162    4.1090   -0.0000 C   0  0  0  0  0  0  0  0  0  0  0  0
  -10.6032    1.8656   -0.0000 C   0  0  0  0  0  0  0  0  0  0  0  0
  -11.9138   -0.3778   -0.0000 C   0  0  0  0  0  0  0  0  0  0  0  0
  -10.6268    4.8647   -0.0000 C   0  0  0  0  0  0  0  0  0  0  0  0
  -11.9138    2.6213   -0.0000 C   0  0  0  0  0  0  0  0  0  0  0  0
  -13.2244    0.3778   -0.0000 N   0  0  0  0  0  0  0  0  0  0  0  0
  -11.9256   -1.8656   -0.0000 C   0  0  0  0  0  0  0  0  0  0  0  0
  -11.9374    4.1326   -0.0000 C   0  0  0  0  0  0  0  0  0  0  0  0
  -14.5351   -0.3542   -0.0000 C   0  0  0  0  0  0  0  0  0  0  0  0
  -10.6386   -2.5977   -0.0000 C   0  0  0  0  0  0  0  0  0  0  0  0
  -14.5469   -1.8420   -0.0000 O   0  0  0  0  0  0  0  0  0  0  0  0
  -15.8457    0.4015   -0.0000 C   0  0  0  0  0  0  0  0  0  0  0  0
  -10.6622   -4.0854   -0.0000 C   0  0  0  0  0  0  0  0  0  0  0  0
   -9.3634   -1.8420   -0.0000 C   0  0  0  0  0  0  0  0  0  0  0  0
  -17.1564   -0.3306   -0.0000 N   0  0  0  0  0  0  0  0  0  0  0  0
  -15.8575    1.9128   -0.0000 C   0  0  0  0  0  0  0  0  0  0  0  0
   -9.3752   -4.8175   -0.0000 C   0  0  0  0  0  0  0  0  0  0  0  0
   -8.0764   -2.5740   -0.0000 C   0  0  0  0  0  0  0  0  0  0  0  0
  -18.4670    0.4251   -0.0000 C   0  0  0  0  0  0  0  0  0  0  0  0
  -14.5705    2.6685   -0.0000 C   0  0  0  0  0  0  0  0  0  0  0  0
   -8.0882   -4.0618   -0.0000 C   0  0  0  0  0  0  0  0  0  0  0  0
  -18.4788    1.9364   -0.0000 O   0  0  0  0  0  0  0  0  0  0  0  0
  -19.7776   -0.3070   -0.0000 N   0  0  0  0  0  0  0  0  0  0  0  0
  -13.1772    2.1844   -0.0000 N   0  0  0  0  0  0  0  0  0  0  0  0
  -14.5587    4.1799   -0.0000 C   0  0  0  0  0  0  0  0  0  0  0  0
  -21.0883    0.4487   -0.0000 C   0  0  0  0  0  0  0  0  0  0  0  0
  -19.7894   -1.7947   -0.0000 C   0  0  0  0  0  0  0  0  0  0  0  0
  -12.2798    3.3888   -0.0000 C   0  0  0  0  0  0  0  0  0  0  0  0
  -13.1300    4.6167   -0.0000 N   0  0  0  0  0  0  0  0  0  0  0  0
  -22.3989   -0.2834   -0.0000 C   0  0  0  0  0  0  0  0  0  0  0  0
  -23.8512    0.1535   -0.0000 N   0  0  0  0  0  0  0  0  0  0  0  0
  -22.3753   -1.7711   -0.0000 C   0  0  0  0  0  0  0  0  0  0  0  0
  -24.7014   -1.0745   -0.0000 C   0  0  0  0  0  0  0  0  0  0  0  0
  -23.7922   -2.2670   -0.0000 S   0  0  0  0  0  0  0  0  0  0  0  0
  -26.2127   -1.1099   -0.0000 C   0  0  0  0  0  0  0  0  0  0  0  0
  -27.0157    0.1771   -0.0000 C   0  0  0  0  0  0  0  0  0  0  0  0
  -26.9330   -2.4205   -0.0000 C   0  0  0  0  0  0  0  0  0  0  0  0
  1  2  1  0  0  0  0
  1  3  1  0  0  0  0
  2  4  2  0  0  0  0
  2  5  1  0  0  0  0
  3  6  2  0  0  0  0
  5  7  1  0  0  0  0
  7  8  1  0  0  0  0
  8  9  2  0  0  0  0
  8 10  1  0  0  0  0
 11 10  1  6  0  0  0
 11 12  1  0  0  0  0
 11 13  1  0  0  0  0
 12 14  1  0  0  0  0
 13 15  1  0  0  0  0
 14 16  2  0  0  0  0
 14 17  1  0  0  0  0
 15 18  1  0  0  0  0
 16 19  1  0  0  0  0
 17 20  2  0  0  0  0
 18 21  1  6  0  0  0
 18 22  1  0  0  0  0
 19 23  2  0  0  0  0
 21 24  1  0  0  0  0
 22 25  1  0  0  0  0
 24 26  2  0  0  0  0
 24 27  1  0  0  0  0
 25 28  2  0  0  0  0
 25 29  1  0  0  0  0
 27 30  1  1  0  0  0
 27 31  1  0  0  0  0
 28 32  1  0  0  0  0
 29 33  2  0  0  0  0
 30 34  1  0  0  0  0
 31 35  1  0  0  0  0
 32 36  2  0  0  0  0
 34 37  2  0  0  0  0
 34 38  1  0  0  0  0
 35 39  1  0  0  0  0
 35 40  2  0  0  0  0
 38 41  1  0  0  0  0
 38 42  1  0  0  0  0
 39 43  2  0  0  0  0
 40 44  1  0  0  0  0
 41 45  1  0  0  0  0
 45 46  1  0  0  0  0
 45 47  2  0  0  0  0
 46 48  2  0  0  0  0
 47 49  1  0  0  0  0
 48 50  1  0  0  0  0
 50 51  1  0  0  0  0
 50 52  1  0  0  0  0
  4  6  1  0  0  0  0
 20 23  1  0  0  0  0
 33 36  1  0  0  0  0
 43 44  1  0  0  0  0
 48 49  1  0  0  0  0
M  END
>  <MolRegNo>
1618160

>  <m>
=

>  <Value>
120

>  <Unit>
nM

>  <Type>
IC50

>  <pValue>
6.92

>  <Ligand Efficiency>
0

>  <Binding Efficiency>
0

>  <Surface Efficiency>
0

>  <Assay Index>
821142

>  <Assay Category>


>  <Assay Organism>
Homo sapiens

>  <Target ID>
17045

>  <Target Name>
Cytochrome P450 3A4

>  <Target Organism>
Homo sapiens

>  <Target Description>
Target is a single protein chain

>  <Sequence Accession>
P08684

>  <Reference>
Bioorg Med Chem Lett 24 (3), 995-999 (2014)

>  <Pubmed ID>
24412072

>  <DOI>
10.1016/j.bmcl.2013.12.057

$$$$
1618159
Actelion Java MolfileCreator 1.0

 53 56  0  0  0  0  0  0  0  0999 V2000
    0.0000   -0.0000   -0.0000 S   0  0  0  0  0  0  0  0  0  0  0  0
   -1.5174    0.0119   -0.0000 O   0  0  0  0  0  0  0  0  0  0  0  0
   -0.7587   -1.2921   -0.0000 O   0  0  0  0  0  0  0  0  0  0  0  0
    1.2921   -0.7350   -0.0000 N   0  0  0  0  0  0  0  0  0  0  0  0
   -0.0119    1.5174   -0.0000 C   0  0  0  0  0  0  0  0  0  0  0  0
    1.2803   -2.2286   -0.0000 C   0  0  0  0  0  0  0  0  0  0  0  0
   -0.0356   -2.9636   -0.0000 C   0  0  0  0  0  0  0  0  0  0  0  0
   -0.0474   -4.4572   -0.0000 C   0  0  0  0  0  0  0  0  0  0  0  0
   -1.3632   -5.1922   -0.0000 N   0  0  0  0  0  0  0  0  0  0  0  0
    1.2447   -5.1922   -0.0000 C   0  0  0  0  0  0  0  0  0  0  0  0
   -2.6791   -4.4335   -0.0000 C   0  0  0  0  0  0  0  0  0  0  0  0
    1.2329   -6.6858   -0.0000 O   0  0  0  0  0  0  0  0  0  0  0  0
    2.5368   -4.4335   -0.0000 N   0  0  0  0  0  0  0  0  0  0  0  0
   -2.6909   -2.9162   -0.0000 O   0  0  0  0  0  0  0  0  0  0  0  0
   -3.9949   -5.1685   -0.0000 N   0  0  0  0  0  0  0  0  0  0  0  0
    3.8289   -5.1685   -0.0000 C   0  0  0  0  0  0  0  0  0  0  0  0
   -5.3107   -4.4098   -0.0000 C   0  0  0  0  0  0  0  0  0  0  0  0
   -4.0068   -6.6621   -0.0000 C   0  0  0  0  0  0  0  0  0  0  0  0
    3.8171   -6.6621   -0.0000 C   0  0  0  0  0  0  0  0  0  0  0  0
    5.1211   -4.4098   -0.0000 C   0  0  0  0  0  0  0  0  0  0  0  0
   -6.6266   -5.1448   -0.0000 C   0  0  0  0  0  0  0  0  0  0  0  0
    5.1092   -7.3971   -0.0000 C   0  0  0  0  0  0  0  0  0  0  0  0
    6.4132   -5.1448   -0.0000 C   0  0  0  0  0  0  0  0  0  0  0  0
   -8.0847   -4.7062   -0.0000 N   0  0  0  0  0  0  0  0  0  0  0  0
   -6.6266   -6.6384   -0.0000 C   0  0  0  0  0  0  0  0  0  0  0  0
    5.0855   -8.8907   -0.0000 C   0  0  0  0  0  0  0  0  0  0  0  0
    6.3895   -6.6384   -0.0000 C   0  0  0  0  0  0  0  0  0  0  0  0
    7.7053   -4.3861   -0.0000 C   0  0  0  0  0  0  0  0  0  0  0  0
   -8.9500   -5.9272   -0.0000 C   0  0  0  0  0  0  0  0  0  0  0  0
   -8.0491   -7.1126   -0.0000 S   0  0  0  0  0  0  0  0  0  0  0  0
    6.3658   -9.6257   -0.0000 C   0  0  0  0  0  0  0  0  0  0  0  0
    7.6816   -7.3734   -0.0000 C   0  0  0  0  0  0  0  0  0  0  0  0
    8.9974   -5.1211   -0.0000 N   0  0  0  0  0  0  0  0  0  0  0  0
    7.6935   -2.8687   -0.0000 C   0  0  0  0  0  0  0  0  0  0  0  0
  -10.4674   -5.9509   -0.0000 C   0  0  0  0  0  0  0  0  0  0  0  0
    7.6579   -8.8670   -0.0000 C   0  0  0  0  0  0  0  0  0  0  0  0
   10.2896   -4.3624   -0.0000 C   0  0  0  0  0  0  0  0  0  0  0  0
    6.3776   -2.1101   -0.0000 C   0  0  0  0  0  0  0  0  0  0  0  0
  -11.2498   -4.6588   -0.0000 C   0  0  0  0  0  0  0  0  0  0  0  0
  -11.2023   -7.2549   -0.0000 C   0  0  0  0  0  0  0  0  0  0  0  0
   10.2777   -2.8450   -0.0000 O   0  0  0  0  0  0  0  0  0  0  0  0
   11.5817   -5.0974   -0.0000 O   0  0  0  0  0  0  0  0  0  0  0  0
    6.3658   -0.5927   -0.0000 C   0  0  0  0  0  0  0  0  0  0  0  0
    5.0737   -2.8450   -0.0000 C   0  0  0  0  0  0  0  0  0  0  0  0
   12.8738   -4.3387   -0.0000 C   0  0  0  0  0  0  0  0  0  0  0  0
    5.0618    0.1660   -0.0000 C   0  0  0  0  0  0  0  0  0  0  0  0
    3.7578   -2.0864   -0.0000 C   0  0  0  0  0  0  0  0  0  0  0  0
   14.1659   -5.0737   -0.0000 C   0  0  0  0  0  0  0  0  0  0  0  0
    3.7460   -0.5690   -0.0000 C   0  0  0  0  0  0  0  0  0  0  0  0
   15.5766   -4.5758   -0.0000 S   0  0  0  0  0  0  0  0  0  0  0  0
   14.1659   -6.5554   -0.0000 C   0  0  0  0  0  0  0  0  0  0  0  0
   16.4538   -5.7731   -0.0000 C   0  0  0  0  0  0  0  0  0  0  0  0
   15.5884   -6.9941   -0.0000 N   0  0  0  0  0  0  0  0  0  0  0  0
  1  2  2  0  0  0  0
  1  3  2  0  0  0  0
  1  4  1  0  0  0  0
  1  5  1  0  0  0  0
  4  6  1  0  0  0  0
  6  7  1  0  0  0  0
  7  8  1  0  0  0  0
  8  9  1  1  0  0  0
  8 10  1  0  0  0  0
  9 11  1  0  0  0  0
 10 12  2  0  0  0  0
 10 13  1  0  0  0  0
 11 14  2  0  0  0  0
 11 15  1  0  0  0  0
 16 13  1  6  0  0  0
 15 17  1  0  0  0  0
 15 18  1  0  0  0  0
 16 19  1  0  0  0  0
 16 20  1  0  0  0  0
 17 21  1  0  0  0  0
 19 22  1  0  0  0  0
 20 23  1  0  0  0  0
 21 24  1  0  0  0  0
 21 25  2  0  0  0  0
 22 26  2  0  0  0  0
 22 27  1  0  0  0  0
 23 28  1  0  0  0  0
 24 29  2  0  0  0  0
 25 30  1  0  0  0  0
 26 31  1  0  0  0  0
 27 32  2  0  0  0  0
 28 33  1  6  0  0  0
 28 34  1  0  0  0  0
 29 35  1  0  0  0  0
 31 36  2  0  0  0  0
 33 37  1  0  0  0  0
 34 38  1  0  0  0  0
 35 39  1  0  0  0  0
 35 40  1  0  0  0  0
 37 41  2  0  0  0  0
 37 42  1  0  0  0  0
 38 43  2  0  0  0  0
 38 44  1  0  0  0  0
 42 45  1  0  0  0  0
 43 46  1  0  0  0  0
 44 47  2  0  0  0  0
 45 48  1  0  0  0  0
 46 49  2  0  0  0  0
 48 50  1  0  0  0  0
 48 51  2  0  0  0  0
 50 52  1  0  0  0  0
 51 53  1  0  0  0  0
 29 30  1  0  0  0  0
 32 36  1  0  0  0  0
 47 49  1  0  0  0  0
 52 53  2  0  0  0  0
M  END
>  <MolRegNo>
1618159

>  <m>
=

>  <Value>
120

>  <Unit>
nM

>  <Type>
IC50

>  <pValue>
6.92

>  <Ligand Efficiency>
0

>  <Binding Efficiency>
0

>  <Surface Efficiency>
0

>  <Assay Index>
821142

>  <Assay Category>


>  <Assay Organism>
Homo sapiens

>  <Target ID>
17045

>  <Target Name>
Cytochrome P450 3A4

>  <Target Organism>
Homo sapiens

>  <Target Description>
Target is a single protein chain

>  <Sequence Accession>
P08684

>  <Reference>
Bioorg Med Chem Lett 24 (3), 995-999 (2014)

>  <Pubmed ID>
24412072

>  <DOI>
10.1016/j.bmcl.2013.12.057

$$$$
1618158
Actelion Java MolfileCreator 1.0

 52 55  0  0  0  0  0  0  0  0999 V2000
    0.0000   -0.0000   -0.0000 S   0  0  0  0  0  0  0  0  0  0  0  0
   -1.4287   -0.4723   -0.0000 C   0  0  0  0  0  0  0  0  0  0  0  0
    0.8738   -1.1926   -0.0000 C   0  0  0  0  0  0  0  0  0  0  0  0
   -1.4287   -1.9482   -0.0000 C   0  0  0  0  0  0  0  0  0  0  0  0
   -2.7393    0.2834   -0.0000 C   0  0  0  0  0  0  0  0  0  0  0  0
    0.0000   -2.3969   -0.0000 N   0  0  0  0  0  0  0  0  0  0  0  0
   -4.0500   -0.4487   -0.0000 O   0  0  0  0  0  0  0  0  0  0  0  0
   -5.3606    0.3070   -0.0000 C   0  0  0  0  0  0  0  0  0  0  0  0
   -5.3724    1.8184   -0.0000 O   0  0  0  0  0  0  0  0  0  0  0  0
   -6.6712   -0.4251   -0.0000 N   0  0  0  0  0  0  0  0  0  0  0  0
   -7.9819    0.3306   -0.0000 C   0  0  0  0  0  0  0  0  0  0  0  0
   -7.9937    1.8420   -0.0000 C   0  0  0  0  0  0  0  0  0  0  0  0
   -9.2925   -0.4015   -0.0000 C   0  0  0  0  0  0  0  0  0  0  0  0
   -9.3043    2.5976   -0.0000 C   0  0  0  0  0  0  0  0  0  0  0  0
  -10.6031    0.3542   -0.0000 C   0  0  0  0  0  0  0  0  0  0  0  0
   -9.3161    4.1090   -0.0000 C   0  0  0  0  0  0  0  0  0  0  0  0
  -10.6031    1.8656   -0.0000 C   0  0  0  0  0  0  0  0  0  0  0  0
  -11.9137   -0.3778   -0.0000 C   0  0  0  0  0  0  0  0  0  0  0  0
  -10.6149    4.8647   -0.0000 C   0  0  0  0  0  0  0  0  0  0  0  0
  -11.9137    2.6213   -0.0000 C   0  0  0  0  0  0  0  0  0  0  0  0
  -13.2244    0.3778   -0.0000 N   0  0  0  0  0  0  0  0  0  0  0  0
  -11.9256   -1.8656   -0.0000 C   0  0  0  0  0  0  0  0  0  0  0  0
  -11.9256    4.1326   -0.0000 C   0  0  0  0  0  0  0  0  0  0  0  0
  -14.5350   -0.3542   -0.0000 C   0  0  0  0  0  0  0  0  0  0  0  0
  -10.6385   -2.5976   -0.0000 C   0  0  0  0  0  0  0  0  0  0  0  0
  -14.5468   -1.8420   -0.0000 O   0  0  0  0  0  0  0  0  0  0  0  0
  -15.8456    0.4015   -0.0000 C   0  0  0  0  0  0  0  0  0  0  0  0
  -10.6622   -4.0854   -0.0000 C   0  0  0  0  0  0  0  0  0  0  0  0
   -9.3633   -1.8420   -0.0000 C   0  0  0  0  0  0  0  0  0  0  0  0
  -17.1563   -0.3306   -0.0000 N   0  0  0  0  0  0  0  0  0  0  0  0
  -15.8574    1.9128   -0.0000 C   0  0  0  0  0  0  0  0  0  0  0  0
   -9.3869   -4.8175   -0.0000 C   0  0  0  0  0  0  0  0  0  0  0  0
   -8.0763   -2.5740   -0.0000 C   0  0  0  0  0  0  0  0  0  0  0  0
  -18.4669    0.4251   -0.0000 C   0  0  0  0  0  0  0  0  0  0  0  0
  -14.5704    2.6685   -0.0000 C   0  0  0  0  0  0  0  0  0  0  0  0
   -8.0999   -4.0618   -0.0000 C   0  0  0  0  0  0  0  0  0  0  0  0
  -18.4787    1.9364   -0.0000 O   0  0  0  0  0  0  0  0  0  0  0  0
  -19.7775   -0.3070   -0.0000 N   0  0  0  0  0  0  0  0  0  0  0  0
  -14.5822    4.1798   -0.0000 N   0  0  0  0  0  0  0  0  0  0  0  0
  -21.0882    0.4487   -0.0000 C   0  0  0  0  0  0  0  0  0  0  0  0
  -19.7893   -1.7947   -0.0000 C   0  0  0  0  0  0  0  0  0  0  0  0
  -15.8929    4.9355   -0.0000 C   0  0  0  0  0  0  0  0  0  0  0  0
  -22.3988   -0.2834   -0.0000 C   0  0  0  0  0  0  0  0  0  0  0  0
  -15.9047    6.4469   -0.0000 O   0  0  0  0  0  0  0  0  0  0  0  0
  -17.2035    4.2035   -0.0000 C   0  0  0  0  0  0  0  0  0  0  0  0
  -23.8511    0.1535   -0.0000 N   0  0  0  0  0  0  0  0  0  0  0  0
  -22.3988   -1.7711   -0.0000 C   0  0  0  0  0  0  0  0  0  0  0  0
  -24.7131   -1.0627   -0.0000 C   0  0  0  0  0  0  0  0  0  0  0  0
  -23.8157   -2.2434   -0.0000 S   0  0  0  0  0  0  0  0  0  0  0  0
  -26.2244   -1.0863   -0.0000 C   0  0  0  0  0  0  0  0  0  0  0  0
  -27.0037    0.2007   -0.0000 C   0  0  0  0  0  0  0  0  0  0  0  0
  -26.9565   -2.3851   -0.0000 C   0  0  0  0  0  0  0  0  0  0  0  0
  1  2  1  0  0  0  0
  1  3  1  0  0  0  0
  2  4  2  0  0  0  0
  2  5  1  0  0  0  0
  3  6  2  0  0  0  0
  5  7  1  0  0  0  0
  7  8  1  0  0  0  0
  8  9  2  0  0  0  0
  8 10  1  0  0  0  0
 11 10  1  6  0  0  0
 11 12  1  0  0  0  0
 11 13  1  0  0  0  0
 12 14  1  0  0  0  0
 13 15  1  0  0  0  0
 14 16  2  0  0  0  0
 14 17  1  0  0  0  0
 15 18  1  0  0  0  0
 16 19  1  0  0  0  0
 17 20  2  0  0  0  0
 18 21  1  6  0  0  0
 18 22  1  0  0  0  0
 19 23  2  0  0  0  0
 21 24  1  0  0  0  0
 22 25  1  0  0  0  0
 24 26  2  0  0  0  0
 24 27  1  0  0  0  0
 25 28  2  0  0  0  0
 25 29  1  0  0  0  0
 27 30  1  1  0  0  0
 27 31  1  0  0  0  0
 28 32  1  0  0  0  0
 29 33  2  0  0  0  0
 30 34  1  0  0  0  0
 31 35  1  0  0  0  0
 32 36  2  0  0  0  0
 34 37  2  0  0  0  0
 34 38  1  0  0  0  0
 35 39  1  0  0  0  0
 38 40  1  0  0  0  0
 38 41  1  0  0  0  0
 39 42  1  0  0  0  0
 40 43  1  0  0  0  0
 42 44  2  0  0  0  0
 42 45  1  0  0  0  0
 43 46  1  0  0  0  0
 43 47  2  0  0  0  0
 46 48  2  0  0  0  0
 47 49  1  0  0  0  0
 48 50  1  0  0  0  0
 50 51  1  0  0  0  0
 50 52  1  0  0  0  0
  4  6  1  0  0  0  0
 20 23  1  0  0  0  0
 33 36  1  0  0  0  0
 48 49  1  0  0  0  0
M  END
>  <MolRegNo>
1618158

>  <m>
=

>  <Value>
150

>  <Unit>
nM

>  <Type>
IC50

>  <pValue>
6.82

>  <Ligand Efficiency>
0

>  <Binding Efficiency>
0

>  <Surface Efficiency>
0

>  <Assay Index>
821142

>  <Assay Category>


>  <Assay Organism>
Homo sapiens

>  <Target ID>
17045

>  <Target Name>
Cytochrome P450 3A4

>  <Target Organism>
Homo sapiens

>  <Target Description>
Target is a single protein chain

>  <Sequence Accession>
P08684

>  <Reference>
Bioorg Med Chem Lett 24 (3), 995-999 (2014)

>  <Pubmed ID>
24412072

>  <DOI>
10.1016/j.bmcl.2013.12.057

$$$$
1618157
Actelion Java MolfileCreator 1.0

 51 54  0  0  0  0  0  0  0  0999 V2000
    0.0000   -0.0000   -0.0000 S   0  0  0  0  0  0  0  0  0  0  0  0
   -1.4287   -0.4723   -0.0000 C   0  0  0  0  0  0  0  0  0  0  0  0
    0.8738   -1.1926   -0.0000 C   0  0  0  0  0  0  0  0  0  0  0  0
   -1.4287   -1.9483   -0.0000 C   0  0  0  0  0  0  0  0  0  0  0  0
   -2.7394    0.2834   -0.0000 C   0  0  0  0  0  0  0  0  0  0  0  0
    0.0000   -2.3970   -0.0000 N   0  0  0  0  0  0  0  0  0  0  0  0
   -4.0500   -0.4487   -0.0000 O   0  0  0  0  0  0  0  0  0  0  0  0
   -5.3607    0.3070   -0.0000 C   0  0  0  0  0  0  0  0  0  0  0  0
   -5.3725    1.8184   -0.0000 O   0  0  0  0  0  0  0  0  0  0  0  0
   -6.6713   -0.4251   -0.0000 N   0  0  0  0  0  0  0  0  0  0  0  0
   -7.9820    0.3306   -0.0000 C   0  0  0  0  0  0  0  0  0  0  0  0
   -7.9938    1.8420   -0.0000 C   0  0  0  0  0  0  0  0  0  0  0  0
   -9.2926   -0.4015   -0.0000 C   0  0  0  0  0  0  0  0  0  0  0  0
   -9.3044    2.5977   -0.0000 C   0  0  0  0  0  0  0  0  0  0  0  0
  -10.6033    0.3542   -0.0000 C   0  0  0  0  0  0  0  0  0  0  0  0
   -9.3162    4.1091   -0.0000 C   0  0  0  0  0  0  0  0  0  0  0  0
  -10.6033    1.8656   -0.0000 C   0  0  0  0  0  0  0  0  0  0  0  0
  -11.9139   -0.3778   -0.0000 C   0  0  0  0  0  0  0  0  0  0  0  0
  -10.6151    4.8648   -0.0000 C   0  0  0  0  0  0  0  0  0  0  0  0
  -11.9139    2.6213   -0.0000 C   0  0  0  0  0  0  0  0  0  0  0  0
  -13.2246    0.3778   -0.0000 N   0  0  0  0  0  0  0  0  0  0  0  0
  -11.9257   -1.8656   -0.0000 C   0  0  0  0  0  0  0  0  0  0  0  0
  -11.9257    4.1327   -0.0000 C   0  0  0  0  0  0  0  0  0  0  0  0
  -14.5352   -0.3542   -0.0000 C   0  0  0  0  0  0  0  0  0  0  0  0
  -10.6387   -2.5977   -0.0000 C   0  0  0  0  0  0  0  0  0  0  0  0
  -14.5470   -1.8420   -0.0000 O   0  0  0  0  0  0  0  0  0  0  0  0
  -15.8459    0.4015   -0.0000 C   0  0  0  0  0  0  0  0  0  0  0  0
  -10.6623   -4.0855   -0.0000 C   0  0  0  0  0  0  0  0  0  0  0  0
   -9.3635   -1.8420   -0.0000 C   0  0  0  0  0  0  0  0  0  0  0  0
  -17.1565   -0.3306   -0.0000 N   0  0  0  0  0  0  0  0  0  0  0  0
  -15.8577    1.9128   -0.0000 C   0  0  0  0  0  0  0  0  0  0  0  0
   -9.3871   -4.8175   -0.0000 C   0  0  0  0  0  0  0  0  0  0  0  0
   -8.0764   -2.5741   -0.0000 C   0  0  0  0  0  0  0  0  0  0  0  0
  -18.4672    0.4251   -0.0000 C   0  0  0  0  0  0  0  0  0  0  0  0
  -14.5707    2.6685   -0.0000 C   0  0  0  0  0  0  0  0  0  0  0  0
   -8.1001   -4.0618   -0.0000 C   0  0  0  0  0  0  0  0  0  0  0  0
  -18.4790    1.9365   -0.0000 O   0  0  0  0  0  0  0  0  0  0  0  0
  -19.7778   -0.3070   -0.0000 N   0  0  0  0  0  0  0  0  0  0  0  0
  -14.5825    4.1799   -0.0000 C   0  0  0  0  0  0  0  0  0  0  0  0
  -21.0885    0.4487   -0.0000 C   0  0  0  0  0  0  0  0  0  0  0  0
  -19.7896   -1.7948   -0.0000 C   0  0  0  0  0  0  0  0  0  0  0  0
  -15.8931    4.9356   -0.0000 C   0  0  0  0  0  0  0  0  0  0  0  0
  -22.3991   -0.2834   -0.0000 C   0  0  0  0  0  0  0  0  0  0  0  0
  -15.9049    6.4470   -0.0000 N   0  0  0  0  0  0  0  0  0  0  0  0
  -23.8515    0.1535   -0.0000 N   0  0  0  0  0  0  0  0  0  0  0  0
  -22.3991   -1.7711   -0.0000 C   0  0  0  0  0  0  0  0  0  0  0  0
  -24.7134   -1.0627   -0.0000 C   0  0  0  0  0  0  0  0  0  0  0  0
  -23.8161   -2.2435   -0.0000 S   0  0  0  0  0  0  0  0  0  0  0  0
  -26.2248   -1.0863   -0.0000 C   0  0  0  0  0  0  0  0  0  0  0  0
  -27.0041    0.2007   -0.0000 C   0  0  0  0  0  0  0  0  0  0  0  0
  -26.9569   -2.3851   -0.0000 C   0  0  0  0  0  0  0  0  0  0  0  0
  1  2  1  0  0  0  0
  1  3  1  0  0  0  0
  2  4  2  0  0  0  0
  2  5  1  0  0  0  0
  3  6  2  0  0  0  0
  5  7  1  0  0  0  0
  7  8  1  0  0  0  0
  8  9  2  0  0  0  0
  8 10  1  0  0  0  0
 11 10  1  6  0  0  0
 11 12  1  0  0  0  0
 11 13  1  0  0  0  0
 12 14  1  0  0  0  0
 13 15  1  0  0  0  0
 14 16  2  0  0  0  0
 14 17  1  0  0  0  0
 15 18  1  0  0  0  0
 16 19  1  0  0  0  0
 17 20  2  0  0  0  0
 18 21  1  6  0  0  0
 18 22  1  0  0  0  0
 19 23  2  0  0  0  0
 21 24  1  0  0  0  0
 22 25  1  0  0  0  0
 24 26  2  0  0  0  0
 24 27  1  0  0  0  0
 25 28  2  0  0  0  0
 25 29  1  0  0  0  0
 27 30  1  1  0  0  0
 27 31  1  0  0  0  0
 28 32  1  0  0  0  0
 29 33  2  0  0  0  0
 30 34  1  0  0  0  0
 31 35  1  0  0  0  0
 32 36  2  0  0  0  0
 34 37  2  0  0  0  0
 34 38  1  0  0  0  0
 35 39  1  0  0  0  0
 38 40  1  0  0  0  0
 38 41  1  0  0  0  0
 39 42  1  0  0  0  0
 40 43  1  0  0  0  0
 42 44  1  0  0  0  0
 43 45  1  0  0  0  0
 43 46  2  0  0  0  0
 45 47  2  0  0  0  0
 46 48  1  0  0  0  0
 47 49  1  0  0  0  0
 49 50  1  0  0  0  0
 49 51  1  0  0  0  0
  4  6  1  0  0  0  0
 20 23  1  0  0  0  0
 33 36  1  0  0  0  0
 47 48  1  0  0  0  0
M  END
>  <MolRegNo>
1618157

>  <m>
=

>  <Value>
120

>  <Unit>
nM

>  <Type>
IC50

>  <pValue>
6.92

>  <Ligand Efficiency>
0

>  <Binding Efficiency>
0

>  <Surface Efficiency>
0

>  <Assay Index>
821142

>  <Assay Category>


>  <Assay Organism>
Homo sapiens

>  <Target ID>
17045

>  <Target Name>
Cytochrome P450 3A4

>  <Target Organism>
Homo sapiens

>  <Target Description>
Target is a single protein chain

>  <Sequence Accession>
P08684

>  <Reference>
Bioorg Med Chem Lett 24 (3), 995-999 (2014)

>  <Pubmed ID>
24412072

>  <DOI>
10.1016/j.bmcl.2013.12.057

$$$$
1618156
Actelion Java MolfileCreator 1.0

 54 58  0  0  0  0  0  0  0  0999 V2000
    0.0000   -0.0000   -0.0000 S   0  0  0  0  0  0  0  0  0  0  0  0
   -1.4290   -0.4724   -0.0000 C   0  0  0  0  0  0  0  0  0  0  0  0
    0.8740   -1.1928   -0.0000 C   0  0  0  0  0  0  0  0  0  0  0  0
   -1.4290   -1.9487   -0.0000 C   0  0  0  0  0  0  0  0  0  0  0  0
   -2.7400    0.2834   -0.0000 C   0  0  0  0  0  0  0  0  0  0  0  0
    0.0000   -2.3975   -0.0000 N   0  0  0  0  0  0  0  0  0  0  0  0
   -4.0509   -0.4488   -0.0000 O   0  0  0  0  0  0  0  0  0  0  0  0
   -5.3618    0.3071   -0.0000 C   0  0  0  0  0  0  0  0  0  0  0  0
   -5.3736    1.8188   -0.0000 O   0  0  0  0  0  0  0  0  0  0  0  0
   -6.6728   -0.4252   -0.0000 N   0  0  0  0  0  0  0  0  0  0  0  0
   -7.9837    0.3307   -0.0000 C   0  0  0  0  0  0  0  0  0  0  0  0
   -7.9955    1.8424   -0.0000 C   0  0  0  0  0  0  0  0  0  0  0  0
   -9.2946   -0.4015   -0.0000 C   0  0  0  0  0  0  0  0  0  0  0  0
   -9.3064    2.5982   -0.0000 C   0  0  0  0  0  0  0  0  0  0  0  0
  -10.6055    0.3543   -0.0000 C   0  0  0  0  0  0  0  0  0  0  0  0
   -9.3182    4.1099   -0.0000 C   0  0  0  0  0  0  0  0  0  0  0  0
  -10.6055    1.8660   -0.0000 C   0  0  0  0  0  0  0  0  0  0  0  0
  -11.9165   -0.3779   -0.0000 C   0  0  0  0  0  0  0  0  0  0  0  0
  -10.6174    4.8658   -0.0000 C   0  0  0  0  0  0  0  0  0  0  0  0
  -11.9165    2.6219   -0.0000 C   0  0  0  0  0  0  0  0  0  0  0  0
  -13.2274    0.3779   -0.0000 N   0  0  0  0  0  0  0  0  0  0  0  0
  -11.9283   -1.8660   -0.0000 C   0  0  0  0  0  0  0  0  0  0  0  0
  -11.9283    4.1336   -0.0000 C   0  0  0  0  0  0  0  0  0  0  0  0
  -14.5383   -0.3543   -0.0000 C   0  0  0  0  0  0  0  0  0  0  0  0
  -10.6410   -2.5982   -0.0000 C   0  0  0  0  0  0  0  0  0  0  0  0
  -14.5501   -1.8424   -0.0000 O   0  0  0  0  0  0  0  0  0  0  0  0
  -15.8493    0.4015   -0.0000 C   0  0  0  0  0  0  0  0  0  0  0  0
  -10.6646   -4.0863   -0.0000 C   0  0  0  0  0  0  0  0  0  0  0  0
   -9.3655   -1.8424   -0.0000 C   0  0  0  0  0  0  0  0  0  0  0  0
  -17.1602   -0.3307   -0.0000 N   0  0  0  0  0  0  0  0  0  0  0  0
  -15.8611    1.9132   -0.0000 C   0  0  0  0  0  0  0  0  0  0  0  0
   -9.3891   -4.8186   -0.0000 C   0  0  0  0  0  0  0  0  0  0  0  0
   -8.0782   -2.5746   -0.0000 C   0  0  0  0  0  0  0  0  0  0  0  0
  -18.4711    0.4252   -0.0000 C   0  0  0  0  0  0  0  0  0  0  0  0
  -14.5738    2.6691   -0.0000 C   0  0  0  0  0  0  0  0  0  0  0  0
   -8.1018   -4.0627   -0.0000 C   0  0  0  0  0  0  0  0  0  0  0  0
  -18.4829    1.9369   -0.0000 O   0  0  0  0  0  0  0  0  0  0  0  0
  -19.7821   -0.3071   -0.0000 N   0  0  0  0  0  0  0  0  0  0  0  0
  -14.5856    4.1808   -0.0000 N   0  0  0  0  0  0  0  0  0  0  0  0
  -21.0930    0.4488   -0.0000 C   0  0  0  0  0  0  0  0  0  0  0  0
  -19.7939   -1.7951   -0.0000 C   0  0  0  0  0  0  0  0  0  0  0  0
  -13.2983    4.9248   -0.0000 C   0  0  0  0  0  0  0  0  0  0  0  0
  -15.8965    4.9248   -0.0000 C   0  0  0  0  0  0  0  0  0  0  0  0
  -22.4039   -0.2834   -0.0000 C   0  0  0  0  0  0  0  0  0  0  0  0
  -13.3101    6.4247   -0.0000 C   0  0  0  0  0  0  0  0  0  0  0  0
  -15.8965    6.4366   -0.0000 C   0  0  0  0  0  0  0  0  0  0  0  0
  -23.8566    0.1535   -0.0000 N   0  0  0  0  0  0  0  0  0  0  0  0
  -22.4039   -1.7715   -0.0000 C   0  0  0  0  0  0  0  0  0  0  0  0
  -14.6092    7.1924   -0.0000 O   0  0  0  0  0  0  0  0  0  0  0  0
  -24.7187   -1.0629   -0.0000 C   0  0  0  0  0  0  0  0  0  0  0  0
  -23.8211   -2.2439   -0.0000 S   0  0  0  0  0  0  0  0  0  0  0  0
  -26.2304   -1.0865   -0.0000 C   0  0  0  0  0  0  0  0  0  0  0  0
  -27.0099    0.2008   -0.0000 C   0  0  0  0  0  0  0  0  0  0  0  0
  -26.9627   -2.3857   -0.0000 C   0  0  0  0  0  0  0  0  0  0  0  0
  1  2  1  0  0  0  0
  1  3  1  0  0  0  0
  2  4  2  0  0  0  0
  2  5  1  0  0  0  0
  3  6  2  0  0  0  0
  5  7  1  0  0  0  0
  7  8  1  0  0  0  0
  8  9  2  0  0  0  0
  8 10  1  0  0  0  0
 11 10  1  1  0  0  0
 11 12  1  0  0  0  0
 11 13  1  0  0  0  0
 12 14  1  0  0  0  0
 13 15  1  0  0  0  0
 14 16  2  0  0  0  0
 14 17  1  0  0  0  0
 15 18  1  0  0  0  0
 16 19  1  0  0  0  0
 17 20  2  0  0  0  0
 18 21  1  1  0  0  0
 18 22  1  0  0  0  0
 19 23  2  0  0  0  0
 21 24  1  0  0  0  0
 22 25  1  0  0  0  0
 24 26  2  0  0  0  0
 24 27  1  0  0  0  0
 25 28  2  0  0  0  0
 25 29  1  0  0  0  0
 27 30  1  1  0  0  0
 27 31  1  0  0  0  0
 28 32  1  0  0  0  0
 29 33  2  0  0  0  0
 30 34  1  0  0  0  0
 31 35  1  0  0  0  0
 32 36  2  0  0  0  0
 34 37  2  0  0  0  0
 34 38  1  0  0  0  0
 35 39  1  0  0  0  0
 38 40  1  0  0  0  0
 38 41  1  0  0  0  0
 39 42  1  0  0  0  0
 39 43  1  0  0  0  0
 40 44  1  0  0  0  0
 42 45  1  0  0  0  0
 43 46  1  0  0  0  0
 44 47  1  0  0  0  0
 44 48  2  0  0  0  0
 45 49  1  0  0  0  0
 47 50  2  0  0  0  0
 48 51  1  0  0  0  0
 50 52  1  0  0  0  0
 52 53  1  0  0  0  0
 52 54  1  0  0  0  0
  4  6  1  0  0  0  0
 20 23  1  0  0  0  0
 33 36  1  0  0  0  0
 46 49  1  0  0  0  0
 50 51  1  0  0  0  0
M  END
>  <MolRegNo>
1618156

>  <m>
=

>  <Value>
150

>  <Unit>
nM

>  <Type>
IC50

>  <pValue>
6.82

>  <Ligand Efficiency>
0

>  <Binding Efficiency>
0

>  <Surface Efficiency>
0

>  <Assay Index>
821142

>  <Assay Category>


>  <Assay Organism>
Homo sapiens

>  <Target ID>
17045

>  <Target Name>
Cytochrome P450 3A4

>  <Target Organism>
Homo sapiens

>  <Target Description>
Target is a single protein chain

>  <Sequence Accession>
P08684

>  <Reference>
Bioorg Med Chem Lett 24 (3), 995-999 (2014)

>  <Pubmed ID>
24412072

>  <DOI>
10.1016/j.bmcl.2013.12.057

$$$$
1369604
Actelion Java MolfileCreator 1.0

 54 58  0  0  0  0  0  0  0  0999 V2000
    0.0000   -0.0000   -0.0000 S   0  0  0  0  0  0  0  0  0  0  0  0
   -1.3791   -0.6011   -0.0000 C   0  0  0  0  0  0  0  0  0  0  0  0
    0.9901   -1.0962   -0.0000 C   0  0  0  0  0  0  0  0  0  0  0  0
   -1.2376   -2.0745   -0.0000 C   0  0  0  0  0  0  0  0  0  0  0  0
   -2.6874    0.1532   -0.0000 C   0  0  0  0  0  0  0  0  0  0  0  0
    0.2357   -2.3810   -0.0000 N   0  0  0  0  0  0  0  0  0  0  0  0
   -3.9958   -0.5776   -0.0000 O   0  0  0  0  0  0  0  0  0  0  0  0
   -5.3041    0.1768   -0.0000 C   0  0  0  0  0  0  0  0  0  0  0  0
   -5.3159    1.6855   -0.0000 O   0  0  0  0  0  0  0  0  0  0  0  0
   -6.6125   -0.5540   -0.0000 N   0  0  0  0  0  0  0  0  0  0  0  0
   -7.9208    0.2004   -0.0000 C   0  0  0  0  0  0  0  0  0  0  0  0
   -7.9326    1.7091   -0.0000 C   0  0  0  0  0  0  0  0  0  0  0  0
   -9.2292   -0.5304   -0.0000 C   0  0  0  0  0  0  0  0  0  0  0  0
   -9.2410    2.4635   -0.0000 C   0  0  0  0  0  0  0  0  0  0  0  0
  -10.5375    0.2240   -0.0000 C   0  0  0  0  0  0  0  0  0  0  0  0
   -9.2528    3.9722   -0.0000 C   0  0  0  0  0  0  0  0  0  0  0  0
  -10.5493    1.7327   -0.0000 C   0  0  0  0  0  0  0  0  0  0  0  0
  -11.8459   -0.5068   -0.0000 C   0  0  0  0  0  0  0  0  0  0  0  0
  -10.5611    4.7266   -0.0000 C   0  0  0  0  0  0  0  0  0  0  0  0
  -11.8577    2.4870   -0.0000 C   0  0  0  0  0  0  0  0  0  0  0  0
  -13.1542    0.2475   -0.0000 N   0  0  0  0  0  0  0  0  0  0  0  0
  -11.8577   -1.9920   -0.0000 C   0  0  0  0  0  0  0  0  0  0  0  0
  -11.8695    3.9840   -0.0000 C   0  0  0  0  0  0  0  0  0  0  0  0
  -14.4626   -0.4833   -0.0000 C   0  0  0  0  0  0  0  0  0  0  0  0
  -10.5729   -2.7228   -0.0000 C   0  0  0  0  0  0  0  0  0  0  0  0
  -14.4744   -1.9684   -0.0000 O   0  0  0  0  0  0  0  0  0  0  0  0
  -15.7709    0.2711   -0.0000 C   0  0  0  0  0  0  0  0  0  0  0  0
  -10.5847   -4.2079   -0.0000 C   0  0  0  0  0  0  0  0  0  0  0  0
   -9.2881   -1.9566   -0.0000 C   0  0  0  0  0  0  0  0  0  0  0  0
  -17.0793   -0.4597   -0.0000 N   0  0  0  0  0  0  0  0  0  0  0  0
  -15.7827    1.7798   -0.0000 C   0  0  0  0  0  0  0  0  0  0  0  0
   -9.2999   -4.9387   -0.0000 C   0  0  0  0  0  0  0  0  0  0  0  0
   -8.0033   -2.6874   -0.0000 C   0  0  0  0  0  0  0  0  0  0  0  0
  -18.3876    0.2947   -0.0000 C   0  0  0  0  0  0  0  0  0  0  0  0
  -14.4979    2.5342   -0.0000 C   0  0  0  0  0  0  0  0  0  0  0  0
   -8.0151   -4.1844   -0.0000 C   0  0  0  0  0  0  0  0  0  0  0  0
  -18.3994    1.8034   -0.0000 O   0  0  0  0  0  0  0  0  0  0  0  0
  -19.6960   -0.4361   -0.0000 N   0  0  0  0  0  0  0  0  0  0  0  0
  -14.5097    4.0429   -0.0000 N   0  0  0  0  0  0  0  0  0  0  0  0
  -21.0043    0.3182   -0.0000 C   0  0  0  0  0  0  0  0  0  0  0  0
  -19.7078   -1.9213   -0.0000 C   0  0  0  0  0  0  0  0  0  0  0  0
  -13.2250    4.7973   -0.0000 C   0  0  0  0  0  0  0  0  0  0  0  0
  -15.8181    4.7973   -0.0000 C   0  0  0  0  0  0  0  0  0  0  0  0
  -22.2655   -0.4833   -0.0000 C   0  0  0  0  0  0  0  0  0  0  0  0
  -13.2367    6.3060   -0.0000 C   0  0  0  0  0  0  0  0  0  0  0  0
  -15.8299    6.3060   -0.0000 C   0  0  0  0  0  0  0  0  0  0  0  0
  -23.6800    0.0707   -0.0000 N   0  0  0  0  0  0  0  0  0  0  0  0
  -22.3598   -1.9684   -0.0000 C   0  0  0  0  0  0  0  0  0  0  0  0
  -14.5451    7.0604   -0.0000 O   0  0  0  0  0  0  0  0  0  0  0  0
  -24.6347   -1.0844   -0.0000 C   0  0  0  0  0  0  0  0  0  0  0  0
  -23.8214   -2.3456   -0.0000 S   0  0  0  0  0  0  0  0  0  0  0  0
  -26.1435   -0.9901   -0.0000 C   0  0  0  0  0  0  0  0  0  0  0  0
  -26.9685   -2.2277   -0.0000 C   0  0  0  0  0  0  0  0  0  0  0  0
  -26.8389    0.3536   -0.0000 C   0  0  0  0  0  0  0  0  0  0  0  0
  1  2  1  0  0  0  0
  1  3  1  0  0  0  0
  2  4  2  0  0  0  0
  2  5  1  0  0  0  0
  3  6  2  0  0  0  0
  5  7  1  0  0  0  0
  7  8  1  0  0  0  0
  8  9  2  0  0  0  0
  8 10  1  0  0  0  0
 11 10  1  6  0  0  0
 11 12  1  0  0  0  0
 11 13  1  0  0  0  0
 12 14  1  0  0  0  0
 13 15  1  0  0  0  0
 14 16  2  0  0  0  0
 14 17  1  0  0  0  0
 15 18  1  0  0  0  0
 16 19  1  0  0  0  0
 17 20  2  0  0  0  0
 18 21  1  6  0  0  0
 18 22  1  0  0  0  0
 19 23  2  0  0  0  0
 21 24  1  0  0  0  0
 22 25  1  0  0  0  0
 24 26  2  0  0  0  0
 24 27  1  0  0  0  0
 25 28  2  0  0  0  0
 25 29  1  0  0  0  0
 27 30  1  1  0  0  0
 27 31  1  0  0  0  0
 28 32  1  0  0  0  0
 29 33  2  0  0  0  0
 30 34  1  0  0  0  0
 31 35  1  0  0  0  0
 32 36  2  0  0  0  0
 34 37  2  0  0  0  0
 34 38  1  0  0  0  0
 35 39  1  0  0  0  0
 38 40  1  0  0  0  0
 38 41  1  0  0  0  0
 39 42  1  0  0  0  0
 39 43  1  0  0  0  0
 40 44  1  0  0  0  0
 42 45  1  0  0  0  0
 43 46  1  0  0  0  0
 44 47  1  0  0  0  0
 44 48  2  0  0  0  0
 45 49  1  0  0  0  0
 47 50  2  0  0  0  0
 48 51  1  0  0  0  0
 50 52  1  0  0  0  0
 52 53  1  0  0  0  0
 52 54  1  0  0  0  0
  4  6  1  0  0  0  0
 20 23  1  0  0  0  0
 33 36  1  0  0  0  0
 46 49  1  0  0  0  0
 50 51  1  0  0  0  0
M  END
>  <MolRegNo>
1369604

>  <m>
=

>  <Value>
150

>  <Unit>
nM

>  <Type>
IC50

>  <pValue>
6.82

>  <Ligand Efficiency>
0

>  <Binding Efficiency>
0

>  <Surface Efficiency>
0

>  <Assay Index>
821142

>  <Assay Category>


>  <Assay Organism>
Homo sapiens

>  <Target ID>
17045

>  <Target Name>
Cytochrome P450 3A4

>  <Target Organism>
Homo sapiens

>  <Target Description>
Target is a single protein chain

>  <Sequence Accession>
P08684

>  <Reference>
Bioorg Med Chem Lett 24 (3), 995-999 (2014)

>  <Pubmed ID>
24412072

>  <DOI>
10.1016/j.bmcl.2013.12.057

$$$$
1618155
Actelion Java MolfileCreator 1.0

 51 54  0  0  0  0  0  0  0  0999 V2000
    0.0000   -0.0000   -0.0000 S   0  0  0  0  0  0  0  0  0  0  0  0
   -1.4291   -0.4724   -0.0000 C   0  0  0  0  0  0  0  0  0  0  0  0
    0.8740   -1.1929   -0.0000 C   0  0  0  0  0  0  0  0  0  0  0  0
   -1.4291   -1.9487   -0.0000 C   0  0  0  0  0  0  0  0  0  0  0  0
   -2.7400    0.2835   -0.0000 C   0  0  0  0  0  0  0  0  0  0  0  0
    0.0000   -2.3975   -0.0000 N   0  0  0  0  0  0  0  0  0  0  0  0
   -4.0510   -0.4488   -0.0000 O   0  0  0  0  0  0  0  0  0  0  0  0
   -5.3619    0.3071   -0.0000 C   0  0  0  0  0  0  0  0  0  0  0  0
   -5.3737    1.8188   -0.0000 O   0  0  0  0  0  0  0  0  0  0  0  0
   -6.6729   -0.4252   -0.0000 N   0  0  0  0  0  0  0  0  0  0  0  0
   -7.9838    0.3307   -0.0000 C   0  0  0  0  0  0  0  0  0  0  0  0
   -7.9957    1.8424   -0.0000 C   0  0  0  0  0  0  0  0  0  0  0  0
   -9.2948   -0.4016   -0.0000 C   0  0  0  0  0  0  0  0  0  0  0  0
   -9.3066    2.5983   -0.0000 C   0  0  0  0  0  0  0  0  0  0  0  0
  -10.6058    0.3543   -0.0000 C   0  0  0  0  0  0  0  0  0  0  0  0
   -9.3184    4.1100   -0.0000 C   0  0  0  0  0  0  0  0  0  0  0  0
  -10.6058    1.8660   -0.0000 C   0  0  0  0  0  0  0  0  0  0  0  0
  -11.9167   -0.3779   -0.0000 C   0  0  0  0  0  0  0  0  0  0  0  0
  -10.6176    4.8659   -0.0000 C   0  0  0  0  0  0  0  0  0  0  0  0
  -11.9167    2.6219   -0.0000 C   0  0  0  0  0  0  0  0  0  0  0  0
  -13.2277    0.3779   -0.0000 N   0  0  0  0  0  0  0  0  0  0  0  0
  -11.9285   -1.8660   -0.0000 C   0  0  0  0  0  0  0  0  0  0  0  0
  -11.9285    4.1336   -0.0000 C   0  0  0  0  0  0  0  0  0  0  0  0
  -14.5386   -0.3543   -0.0000 C   0  0  0  0  0  0  0  0  0  0  0  0
  -10.6412   -2.5983   -0.0000 C   0  0  0  0  0  0  0  0  0  0  0  0
  -14.5504   -1.8424   -0.0000 O   0  0  0  0  0  0  0  0  0  0  0  0
  -15.8496    0.4016   -0.0000 C   0  0  0  0  0  0  0  0  0  0  0  0
  -10.6648   -4.0864   -0.0000 C   0  0  0  0  0  0  0  0  0  0  0  0
   -9.3657   -1.8424   -0.0000 C   0  0  0  0  0  0  0  0  0  0  0  0
  -17.1605   -0.3307   -0.0000 N   0  0  0  0  0  0  0  0  0  0  0  0
  -15.8614    1.9133   -0.0000 C   0  0  0  0  0  0  0  0  0  0  0  0
   -9.3893   -4.8187   -0.0000 C   0  0  0  0  0  0  0  0  0  0  0  0
   -8.0783   -2.5747   -0.0000 C   0  0  0  0  0  0  0  0  0  0  0  0
  -18.4715    0.4252   -0.0000 C   0  0  0  0  0  0  0  0  0  0  0  0
  -14.5741    2.6692   -0.0000 C   0  0  0  0  0  0  0  0  0  0  0  0
   -8.1019   -4.0628   -0.0000 C   0  0  0  0  0  0  0  0  0  0  0  0
  -18.4833    1.9369   -0.0000 O   0  0  0  0  0  0  0  0  0  0  0  0
  -19.7825   -0.3071   -0.0000 N   0  0  0  0  0  0  0  0  0  0  0  0
  -14.5859    4.1809   -0.0000 N   0  0  0  0  0  0  0  0  0  0  0  0
  -21.0934    0.4488   -0.0000 C   0  0  0  0  0  0  0  0  0  0  0  0
  -19.7943   -1.7952   -0.0000 C   0  0  0  0  0  0  0  0  0  0  0  0
  -13.2985    4.9368   -0.0000 C   0  0  0  0  0  0  0  0  0  0  0  0
  -15.8968    4.9368   -0.0000 C   0  0  0  0  0  0  0  0  0  0  0  0
  -22.4044   -0.2835   -0.0000 C   0  0  0  0  0  0  0  0  0  0  0  0
  -23.8571    0.1535   -0.0000 N   0  0  0  0  0  0  0  0  0  0  0  0
  -22.4044   -1.7716   -0.0000 C   0  0  0  0  0  0  0  0  0  0  0  0
  -24.7192   -1.0629   -0.0000 C   0  0  0  0  0  0  0  0  0  0  0  0
  -23.8216   -2.2440   -0.0000 S   0  0  0  0  0  0  0  0  0  0  0  0
  -26.2309   -1.0866   -0.0000 C   0  0  0  0  0  0  0  0  0  0  0  0
  -27.0104    0.2008   -0.0000 C   0  0  0  0  0  0  0  0  0  0  0  0
  -26.9632   -2.3857   -0.0000 C   0  0  0  0  0  0  0  0  0  0  0  0
  1  2  1  0  0  0  0
  1  3  1  0  0  0  0
  2  4  2  0  0  0  0
  2  5  1  0  0  0  0
  3  6  2  0  0  0  0
  5  7  1  0  0  0  0
  7  8  1  0  0  0  0
  8  9  2  0  0  0  0
  8 10  1  0  0  0  0
 11 10  1  6  0  0  0
 11 12  1  0  0  0  0
 11 13  1  0  0  0  0
 12 14  1  0  0  0  0
 13 15  1  0  0  0  0
 14 16  2  0  0  0  0
 14 17  1  0  0  0  0
 15 18  1  0  0  0  0
 16 19  1  0  0  0  0
 17 20  2  0  0  0  0
 18 21  1  6  0  0  0
 18 22  1  0  0  0  0
 19 23  2  0  0  0  0
 21 24  1  0  0  0  0
 22 25  1  0  0  0  0
 24 26  2  0  0  0  0
 24 27  1  0  0  0  0
 25 28  2  0  0  0  0
 25 29  1  0  0  0  0
 27 30  1  1  0  0  0
 27 31  1  0  0  0  0
 28 32  1  0  0  0  0
 29 33  2  0  0  0  0
 30 34  1  0  0  0  0
 31 35  1  0  0  0  0
 32 36  2  0  0  0  0
 34 37  2  0  0  0  0
 34 38  1  0  0  0  0
 35 39  1  0  0  0  0
 38 40  1  0  0  0  0
 38 41  1  0  0  0  0
 39 42  1  0  0  0  0
 39 43  1  0  0  0  0
 40 44  1  0  0  0  0
 44 45  1  0  0  0  0
 44 46  2  0  0  0  0
 45 47  2  0  0  0  0
 46 48  1  0  0  0  0
 47 49  1  0  0  0  0
 49 50  1  0  0  0  0
 49 51  1  0  0  0  0
  4  6  1  0  0  0  0
 20 23  1  0  0  0  0
 33 36  1  0  0  0  0
 47 48  1  0  0  0  0
M  END
>  <MolRegNo>
1618155

>  <m>
=

>  <Value>
140

>  <Unit>
nM

>  <Type>
IC50

>  <pValue>
6.85

>  <Ligand Efficiency>
0

>  <Binding Efficiency>
0

>  <Surface Efficiency>
0

>  <Assay Index>
821142

>  <Assay Category>


>  <Assay Organism>
Homo sapiens

>  <Target ID>
17045

>  <Target Name>
Cytochrome P450 3A4

>  <Target Organism>
Homo sapiens

>  <Target Description>
Target is a single protein chain

>  <Sequence Accession>
P08684

>  <Reference>
Bioorg Med Chem Lett 24 (3), 995-999 (2014)

>  <Pubmed ID>
24412072

>  <DOI>
10.1016/j.bmcl.2013.12.057

$$$$
1618154
Actelion Java MolfileCreator 1.0

 50 53  0  0  0  0  0  0  0  0999 V2000
    0.0000   -0.0000   -0.0000 S   0  0  0  0  0  0  0  0  0  0  0  0
   -1.4293   -0.4725   -0.0000 C   0  0  0  0  0  0  0  0  0  0  0  0
    0.8741   -1.1931   -0.0000 C   0  0  0  0  0  0  0  0  0  0  0  0
   -1.4293   -1.9490   -0.0000 C   0  0  0  0  0  0  0  0  0  0  0  0
   -2.7405    0.2835   -0.0000 C   0  0  0  0  0  0  0  0  0  0  0  0
    0.0000   -2.3979   -0.0000 N   0  0  0  0  0  0  0  0  0  0  0  0
   -4.0517   -0.4489   -0.0000 O   0  0  0  0  0  0  0  0  0  0  0  0
   -5.3628    0.3071   -0.0000 C   0  0  0  0  0  0  0  0  0  0  0  0
   -5.3746    1.8191   -0.0000 O   0  0  0  0  0  0  0  0  0  0  0  0
   -6.6740   -0.4252   -0.0000 N   0  0  0  0  0  0  0  0  0  0  0  0
   -7.9852    0.3307   -0.0000 C   0  0  0  0  0  0  0  0  0  0  0  0
   -7.9970    1.8427   -0.0000 C   0  0  0  0  0  0  0  0  0  0  0  0
   -9.2964   -0.4016   -0.0000 C   0  0  0  0  0  0  0  0  0  0  0  0
   -9.3082    2.5987   -0.0000 C   0  0  0  0  0  0  0  0  0  0  0  0
  -10.6075    0.3544   -0.0000 C   0  0  0  0  0  0  0  0  0  0  0  0
   -9.3200    4.1107   -0.0000 C   0  0  0  0  0  0  0  0  0  0  0  0
  -10.6075    1.8664   -0.0000 C   0  0  0  0  0  0  0  0  0  0  0  0
  -11.9187   -0.3780   -0.0000 C   0  0  0  0  0  0  0  0  0  0  0  0
  -10.6193    4.8667   -0.0000 C   0  0  0  0  0  0  0  0  0  0  0  0
  -11.9187    2.6224   -0.0000 C   0  0  0  0  0  0  0  0  0  0  0  0
  -13.2299    0.3780   -0.0000 N   0  0  0  0  0  0  0  0  0  0  0  0
  -11.9305   -1.8664   -0.0000 C   0  0  0  0  0  0  0  0  0  0  0  0
  -11.9305    4.1343   -0.0000 C   0  0  0  0  0  0  0  0  0  0  0  0
  -14.5411   -0.3544   -0.0000 C   0  0  0  0  0  0  0  0  0  0  0  0
  -10.6430   -2.5987   -0.0000 C   0  0  0  0  0  0  0  0  0  0  0  0
  -14.5529   -1.8427   -0.0000 O   0  0  0  0  0  0  0  0  0  0  0  0
  -15.8522    0.4016   -0.0000 C   0  0  0  0  0  0  0  0  0  0  0  0
  -10.6666   -4.0871   -0.0000 C   0  0  0  0  0  0  0  0  0  0  0  0
   -9.3672   -1.8427   -0.0000 C   0  0  0  0  0  0  0  0  0  0  0  0
  -17.1634   -0.3307   -0.0000 N   0  0  0  0  0  0  0  0  0  0  0  0
  -15.8640    1.9136   -0.0000 C   0  0  0  0  0  0  0  0  0  0  0  0
   -9.3909   -4.8195   -0.0000 C   0  0  0  0  0  0  0  0  0  0  0  0
   -8.0797   -2.5751   -0.0000 C   0  0  0  0  0  0  0  0  0  0  0  0
  -18.4746    0.4252   -0.0000 C   0  0  0  0  0  0  0  0  0  0  0  0
  -14.5765    2.6696   -0.0000 C   0  0  0  0  0  0  0  0  0  0  0  0
   -8.1033   -4.0635   -0.0000 C   0  0  0  0  0  0  0  0  0  0  0  0
  -18.4864    1.9372   -0.0000 O   0  0  0  0  0  0  0  0  0  0  0  0
  -19.7858   -0.3071   -0.0000 N   0  0  0  0  0  0  0  0  0  0  0  0
  -14.5883    4.1816   -0.0000 N   0  0  0  0  0  0  0  0  0  0  0  0
  -21.0969    0.4489   -0.0000 C   0  0  0  0  0  0  0  0  0  0  0  0
  -19.7976   -1.7955   -0.0000 C   0  0  0  0  0  0  0  0  0  0  0  0
  -13.3008    4.9376   -0.0000 C   0  0  0  0  0  0  0  0  0  0  0  0
  -22.4081   -0.2835   -0.0000 C   0  0  0  0  0  0  0  0  0  0  0  0
  -23.8610    0.1536   -0.0000 N   0  0  0  0  0  0  0  0  0  0  0  0
  -22.4081   -1.7719   -0.0000 C   0  0  0  0  0  0  0  0  0  0  0  0
  -24.7233   -1.0631   -0.0000 C   0  0  0  0  0  0  0  0  0  0  0  0
  -23.8256   -2.2444   -0.0000 S   0  0  0  0  0  0  0  0  0  0  0  0
  -26.2353   -1.0867   -0.0000 C   0  0  0  0  0  0  0  0  0  0  0  0
  -27.0149    0.2008   -0.0000 C   0  0  0  0  0  0  0  0  0  0  0  0
  -26.9677   -2.3861   -0.0000 C   0  0  0  0  0  0  0  0  0  0  0  0
  1  2  1  0  0  0  0
  1  3  1  0  0  0  0
  2  4  2  0  0  0  0
  2  5  1  0  0  0  0
  3  6  2  0  0  0  0
  5  7  1  0  0  0  0
  7  8  1  0  0  0  0
  8  9  2  0  0  0  0
  8 10  1  0  0  0  0
 11 10  1  6  0  0  0
 11 12  1  0  0  0  0
 11 13  1  0  0  0  0
 12 14  1  0  0  0  0
 13 15  1  0  0  0  0
 14 16  2  0  0  0  0
 14 17  1  0  0  0  0
 15 18  1  0  0  0  0
 16 19  1  0  0  0  0
 17 20  2  0  0  0  0
 18 21  1  6  0  0  0
 18 22  1  0  0  0  0
 19 23  2  0  0  0  0
 21 24  1  0  0  0  0
 22 25  1  0  0  0  0
 24 26  2  0  0  0  0
 24 27  1  0  0  0  0
 25 28  2  0  0  0  0
 25 29  1  0  0  0  0
 27 30  1  1  0  0  0
 27 31  1  0  0  0  0
 28 32  1  0  0  0  0
 29 33  2  0  0  0  0
 30 34  1  0  0  0  0
 31 35  1  0  0  0  0
 32 36  2  0  0  0  0
 34 37  2  0  0  0  0
 34 38  1  0  0  0  0
 35 39  1  0  0  0  0
 38 40  1  0  0  0  0
 38 41  1  0  0  0  0
 39 42  1  0  0  0  0
 40 43  1  0  0  0  0
 43 44  1  0  0  0  0
 43 45  2  0  0  0  0
 44 46  2  0  0  0  0
 45 47  1  0  0  0  0
 46 48  1  0  0  0  0
 48 49  1  0  0  0  0
 48 50  1  0  0  0  0
  4  6  1  0  0  0  0
 20 23  1  0  0  0  0
 33 36  1  0  0  0  0
 46 47  1  0  0  0  0
M  END
>  <MolRegNo>
1618154

>  <m>
=

>  <Value>
130

>  <Unit>
nM

>  <Type>
IC50

>  <pValue>
6.89

>  <Ligand Efficiency>
0

>  <Binding Efficiency>
0

>  <Surface Efficiency>
0

>  <Assay Index>
821142

>  <Assay Category>


>  <Assay Organism>
Homo sapiens

>  <Target ID>
17045

>  <Target Name>
Cytochrome P450 3A4

>  <Target Organism>
Homo sapiens

>  <Target Description>
Target is a single protein chain

>  <Sequence Accession>
P08684

>  <Reference>
Bioorg Med Chem Lett 24 (3), 995-999 (2014)

>  <Pubmed ID>
24412072

>  <DOI>
10.1016/j.bmcl.2013.12.057

$$$$
1618153
Actelion Java MolfileCreator 1.0

 49 52  0  0  0  0  0  0  0  0999 V2000
    0.0000   -0.0000   -0.0000 S   0  0  0  0  0  0  0  0  0  0  0  0
   -1.4292   -0.4725   -0.0000 C   0  0  0  0  0  0  0  0  0  0  0  0
    0.8740   -1.1929   -0.0000 C   0  0  0  0  0  0  0  0  0  0  0  0
   -1.4292   -1.9489   -0.0000 C   0  0  0  0  0  0  0  0  0  0  0  0
   -2.7402    0.2835   -0.0000 C   0  0  0  0  0  0  0  0  0  0  0  0
    0.0000   -2.3977   -0.0000 N   0  0  0  0  0  0  0  0  0  0  0  0
   -4.0513   -0.4488   -0.0000 O   0  0  0  0  0  0  0  0  0  0  0  0
   -5.3624    0.3071   -0.0000 C   0  0  0  0  0  0  0  0  0  0  0  0
   -5.3742    1.8189   -0.0000 O   0  0  0  0  0  0  0  0  0  0  0  0
   -6.6734   -0.4252   -0.0000 N   0  0  0  0  0  0  0  0  0  0  0  0
   -7.9845    0.3307   -0.0000 C   0  0  0  0  0  0  0  0  0  0  0  0
   -7.9963    1.8426   -0.0000 C   0  0  0  0  0  0  0  0  0  0  0  0
   -9.2955   -0.4016   -0.0000 C   0  0  0  0  0  0  0  0  0  0  0  0
   -9.3073    2.5985   -0.0000 C   0  0  0  0  0  0  0  0  0  0  0  0
  -10.6066    0.3543   -0.0000 C   0  0  0  0  0  0  0  0  0  0  0  0
   -9.3192    4.1103   -0.0000 C   0  0  0  0  0  0  0  0  0  0  0  0
  -10.6066    1.8662   -0.0000 C   0  0  0  0  0  0  0  0  0  0  0  0
  -11.9176   -0.3780   -0.0000 C   0  0  0  0  0  0  0  0  0  0  0  0
  -10.6184    4.8663   -0.0000 C   0  0  0  0  0  0  0  0  0  0  0  0
  -11.9176    2.6221   -0.0000 C   0  0  0  0  0  0  0  0  0  0  0  0
  -13.2287    0.3780   -0.0000 N   0  0  0  0  0  0  0  0  0  0  0  0
  -11.9295   -1.8662   -0.0000 C   0  0  0  0  0  0  0  0  0  0  0  0
  -11.9295    4.1340   -0.0000 C   0  0  0  0  0  0  0  0  0  0  0  0
  -14.5398   -0.3543   -0.0000 C   0  0  0  0  0  0  0  0  0  0  0  0
  -10.6420   -2.5985   -0.0000 C   0  0  0  0  0  0  0  0  0  0  0  0
  -14.5516   -1.8426   -0.0000 O   0  0  0  0  0  0  0  0  0  0  0  0
  -15.8508    0.4016   -0.0000 C   0  0  0  0  0  0  0  0  0  0  0  0
  -10.6656   -4.0867   -0.0000 C   0  0  0  0  0  0  0  0  0  0  0  0
   -9.3664   -1.8426   -0.0000 C   0  0  0  0  0  0  0  0  0  0  0  0
  -17.1619   -0.3307   -0.0000 N   0  0  0  0  0  0  0  0  0  0  0  0
  -15.8626    1.9134   -0.0000 C   0  0  0  0  0  0  0  0  0  0  0  0
   -9.3900   -4.8190   -0.0000 C   0  0  0  0  0  0  0  0  0  0  0  0
   -8.0790   -2.5749   -0.0000 C   0  0  0  0  0  0  0  0  0  0  0  0
  -18.4729    0.4252   -0.0000 C   0  0  0  0  0  0  0  0  0  0  0  0
  -14.5752    2.6694   -0.0000 C   0  0  0  0  0  0  0  0  0  0  0  0
   -8.1026   -4.0631   -0.0000 C   0  0  0  0  0  0  0  0  0  0  0  0
  -18.4848    1.9371   -0.0000 O   0  0  0  0  0  0  0  0  0  0  0  0
  -19.7840   -0.3071   -0.0000 N   0  0  0  0  0  0  0  0  0  0  0  0
  -14.5870    4.1812   -0.0000 N   0  0  0  0  0  0  0  0  0  0  0  0
  -21.0951    0.4488   -0.0000 C   0  0  0  0  0  0  0  0  0  0  0  0
  -19.7958   -1.7953   -0.0000 C   0  0  0  0  0  0  0  0  0  0  0  0
  -22.4061   -0.2835   -0.0000 C   0  0  0  0  0  0  0  0  0  0  0  0
  -23.8589    0.1535   -0.0000 N   0  0  0  0  0  0  0  0  0  0  0  0
  -22.4061   -1.7717   -0.0000 C   0  0  0  0  0  0  0  0  0  0  0  0
  -24.7211   -1.0630   -0.0000 C   0  0  0  0  0  0  0  0  0  0  0  0
  -23.8235   -2.2442   -0.0000 S   0  0  0  0  0  0  0  0  0  0  0  0
  -26.2330   -1.0866   -0.0000 C   0  0  0  0  0  0  0  0  0  0  0  0
  -27.0125    0.2008   -0.0000 C   0  0  0  0  0  0  0  0  0  0  0  0
  -26.9653   -2.3859   -0.0000 C   0  0  0  0  0  0  0  0  0  0  0  0
  1  2  1  0  0  0  0
  1  3  1  0  0  0  0
  2  4  2  0  0  0  0
  2  5  1  0  0  0  0
  3  6  2  0  0  0  0
  5  7  1  0  0  0  0
  7  8  1  0  0  0  0
  8  9  2  0  0  0  0
  8 10  1  0  0  0  0
 11 10  1  6  0  0  0
 11 12  1  0  0  0  0
 11 13  1  0  0  0  0
 12 14  1  0  0  0  0
 13 15  1  0  0  0  0
 14 16  2  0  0  0  0
 14 17  1  0  0  0  0
 15 18  1  0  0  0  0
 16 19  1  0  0  0  0
 17 20  2  0  0  0  0
 18 21  1  6  0  0  0
 18 22  1  0  0  0  0
 19 23  2  0  0  0  0
 21 24  1  0  0  0  0
 22 25  1  0  0  0  0
 24 26  2  0  0  0  0
 24 27  1  0  0  0  0
 25 28  2  0  0  0  0
 25 29  1  0  0  0  0
 27 30  1  1  0  0  0
 27 31  1  0  0  0  0
 28 32  1  0  0  0  0
 29 33  2  0  0  0  0
 30 34  1  0  0  0  0
 31 35  1  0  0  0  0
 32 36  2  0  0  0  0
 34 37  2  0  0  0  0
 34 38  1  0  0  0  0
 35 39  1  0  0  0  0
 38 40  1  0  0  0  0
 38 41  1  0  0  0  0
 40 42  1  0  0  0  0
 42 43  1  0  0  0  0
 42 44  2  0  0  0  0
 43 45  2  0  0  0  0
 44 46  1  0  0  0  0
 45 47  1  0  0  0  0
 47 48  1  0  0  0  0
 47 49  1  0  0  0  0
  4  6  1  0  0  0  0
 20 23  1  0  0  0  0
 33 36  1  0  0  0  0
 45 46  1  0  0  0  0
M  END
>  <MolRegNo>
1618153

>  <m>
=

>  <Value>
210

>  <Unit>
nM

>  <Type>
IC50

>  <pValue>
6.68

>  <Ligand Efficiency>
0

>  <Binding Efficiency>
0

>  <Surface Efficiency>
0

>  <Assay Index>
821142

>  <Assay Category>


>  <Assay Organism>
Homo sapiens

>  <Target ID>
17045

>  <Target Name>
Cytochrome P450 3A4

>  <Target Organism>
Homo sapiens

>  <Target Description>
Target is a single protein chain

>  <Sequence Accession>
P08684

>  <Reference>
Bioorg Med Chem Lett 24 (3), 995-999 (2014)

>  <Pubmed ID>
24412072

>  <DOI>
10.1016/j.bmcl.2013.12.057

$$$$
1618152
Actelion Java MolfileCreator 1.0

 49 52  0  0  0  0  0  0  0  0999 V2000
    0.0000   -0.0000   -0.0000 S   0  0  0  0  0  0  0  0  0  0  0  0
   -1.4292   -0.4725   -0.0000 C   0  0  0  0  0  0  0  0  0  0  0  0
    0.8740   -1.1929   -0.0000 C   0  0  0  0  0  0  0  0  0  0  0  0
   -1.4292   -1.9489   -0.0000 C   0  0  0  0  0  0  0  0  0  0  0  0
   -2.7402    0.2835   -0.0000 C   0  0  0  0  0  0  0  0  0  0  0  0
    0.0000   -2.3977   -0.0000 N   0  0  0  0  0  0  0  0  0  0  0  0
   -4.0513   -0.4488   -0.0000 O   0  0  0  0  0  0  0  0  0  0  0  0
   -5.3624    0.3071   -0.0000 C   0  0  0  0  0  0  0  0  0  0  0  0
   -5.3742    1.8189   -0.0000 O   0  0  0  0  0  0  0  0  0  0  0  0
   -6.6734   -0.4252   -0.0000 N   0  0  0  0  0  0  0  0  0  0  0  0
   -7.9845    0.3307   -0.0000 C   0  0  0  0  0  0  0  0  0  0  0  0
   -7.9963    1.8426   -0.0000 C   0  0  0  0  0  0  0  0  0  0  0  0
   -9.2955   -0.4016   -0.0000 C   0  0  0  0  0  0  0  0  0  0  0  0
   -9.3073    2.5985   -0.0000 C   0  0  0  0  0  0  0  0  0  0  0  0
  -10.6066    0.3543   -0.0000 C   0  0  0  0  0  0  0  0  0  0  0  0
   -9.3192    4.1103   -0.0000 C   0  0  0  0  0  0  0  0  0  0  0  0
  -10.6066    1.8662   -0.0000 C   0  0  0  0  0  0  0  0  0  0  0  0
  -11.9176   -0.3780   -0.0000 C   0  0  0  0  0  0  0  0  0  0  0  0
  -10.6184    4.8663   -0.0000 C   0  0  0  0  0  0  0  0  0  0  0  0
  -11.9176    2.6221   -0.0000 C   0  0  0  0  0  0  0  0  0  0  0  0
  -13.2287    0.3780   -0.0000 N   0  0  0  0  0  0  0  0  0  0  0  0
  -11.9295   -1.8662   -0.0000 C   0  0  0  0  0  0  0  0  0  0  0  0
  -11.9295    4.1340   -0.0000 C   0  0  0  0  0  0  0  0  0  0  0  0
  -14.5398   -0.3543   -0.0000 C   0  0  0  0  0  0  0  0  0  0  0  0
  -10.6420   -2.5985   -0.0000 C   0  0  0  0  0  0  0  0  0  0  0  0
  -14.5516   -1.8426   -0.0000 O   0  0  0  0  0  0  0  0  0  0  0  0
  -15.8508    0.4016   -0.0000 C   0  0  0  0  0  0  0  0  0  0  0  0
  -10.6656   -4.0867   -0.0000 C   0  0  0  0  0  0  0  0  0  0  0  0
   -9.3664   -1.8426   -0.0000 C   0  0  0  0  0  0  0  0  0  0  0  0
  -17.1619   -0.3307   -0.0000 N   0  0  0  0  0  0  0  0  0  0  0  0
  -15.8626    1.9134   -0.0000 C   0  0  0  0  0  0  0  0  0  0  0  0
   -9.3900   -4.8190   -0.0000 C   0  0  0  0  0  0  0  0  0  0  0  0
   -8.0790   -2.5749   -0.0000 C   0  0  0  0  0  0  0  0  0  0  0  0
  -18.4729    0.4252   -0.0000 C   0  0  0  0  0  0  0  0  0  0  0  0
  -14.5752    2.6694   -0.0000 C   0  0  0  0  0  0  0  0  0  0  0  0
   -8.1026   -4.0631   -0.0000 C   0  0  0  0  0  0  0  0  0  0  0  0
  -18.4848    1.9371   -0.0000 O   0  0  0  0  0  0  0  0  0  0  0  0
  -19.7840   -0.3071   -0.0000 N   0  0  0  0  0  0  0  0  0  0  0  0
  -14.5870    4.1812   -0.0000 O   0  0  0  0  0  0  0  0  0  0  0  0
  -21.0951    0.4488   -0.0000 C   0  0  0  0  0  0  0  0  0  0  0  0
  -19.7958   -1.7953   -0.0000 C   0  0  0  0  0  0  0  0  0  0  0  0
  -22.4061   -0.2835   -0.0000 C   0  0  0  0  0  0  0  0  0  0  0  0
  -23.8589    0.1535   -0.0000 N   0  0  0  0  0  0  0  0  0  0  0  0
  -22.4061   -1.7717   -0.0000 C   0  0  0  0  0  0  0  0  0  0  0  0
  -24.7211   -1.0630   -0.0000 C   0  0  0  0  0  0  0  0  0  0  0  0
  -23.8235   -2.2442   -0.0000 S   0  0  0  0  0  0  0  0  0  0  0  0
  -26.2330   -1.0866   -0.0000 C   0  0  0  0  0  0  0  0  0  0  0  0
  -27.0125    0.2008   -0.0000 C   0  0  0  0  0  0  0  0  0  0  0  0
  -26.9653   -2.3859   -0.0000 C   0  0  0  0  0  0  0  0  0  0  0  0
  1  2  1  0  0  0  0
  1  3  1  0  0  0  0
  2  4  2  0  0  0  0
  2  5  1  0  0  0  0
  3  6  2  0  0  0  0
  5  7  1  0  0  0  0
  7  8  1  0  0  0  0
  8  9  2  0  0  0  0
  8 10  1  0  0  0  0
 11 10  1  6  0  0  0
 11 12  1  0  0  0  0
 11 13  1  0  0  0  0
 12 14  1  0  0  0  0
 13 15  1  0  0  0  0
 14 16  2  0  0  0  0
 14 17  1  0  0  0  0
 15 18  1  0  0  0  0
 16 19  1  0  0  0  0
 17 20  2  0  0  0  0
 18 21  1  6  0  0  0
 18 22  1  0  0  0  0
 19 23  2  0  0  0  0
 21 24  1  0  0  0  0
 22 25  1  0  0  0  0
 24 26  2  0  0  0  0
 24 27  1  0  0  0  0
 25 28  2  0  0  0  0
 25 29  1  0  0  0  0
 27 30  1  1  0  0  0
 27 31  1  0  0  0  0
 28 32  1  0  0  0  0
 29 33  2  0  0  0  0
 30 34  1  0  0  0  0
 31 35  1  0  0  0  0
 32 36  2  0  0  0  0
 34 37  2  0  0  0  0
 34 38  1  0  0  0  0
 35 39  1  0  0  0  0
 38 40  1  0  0  0  0
 38 41  1  0  0  0  0
 40 42  1  0  0  0  0
 42 43  1  0  0  0  0
 42 44  2  0  0  0  0
 43 45  2  0  0  0  0
 44 46  1  0  0  0  0
 45 47  1  0  0  0  0
 47 48  1  0  0  0  0
 47 49  1  0  0  0  0
  4  6  1  0  0  0  0
 20 23  1  0  0  0  0
 33 36  1  0  0  0  0
 45 46  1  0  0  0  0
M  END
>  <MolRegNo>
1618152

>  <m>
=

>  <Value>
140

>  <Unit>
nM

>  <Type>
IC50

>  <pValue>
6.85

>  <Ligand Efficiency>
0

>  <Binding Efficiency>
0

>  <Surface Efficiency>
0

>  <Assay Index>
821142

>  <Assay Category>


>  <Assay Organism>
Homo sapiens

>  <Target ID>
17045

>  <Target Name>
Cytochrome P450 3A4

>  <Target Organism>
Homo sapiens

>  <Target Description>
Target is a single protein chain

>  <Sequence Accession>
P08684

>  <Reference>
Bioorg Med Chem Lett 24 (3), 995-999 (2014)

>  <Pubmed ID>
24412072

>  <DOI>
10.1016/j.bmcl.2013.12.057

$$$$
1618151
Actelion Java MolfileCreator 1.0

 50 53  0  0  0  0  0  0  0  0999 V2000
    0.0000   -0.0000   -0.0000 S   0  0  0  0  0  0  0  0  0  0  0  0
   -1.4293   -0.4725   -0.0000 C   0  0  0  0  0  0  0  0  0  0  0  0
    0.8741   -1.1930   -0.0000 C   0  0  0  0  0  0  0  0  0  0  0  0
   -1.4293   -1.9490   -0.0000 C   0  0  0  0  0  0  0  0  0  0  0  0
   -2.7404    0.2835   -0.0000 C   0  0  0  0  0  0  0  0  0  0  0  0
    0.0000   -2.3979   -0.0000 N   0  0  0  0  0  0  0  0  0  0  0  0
   -4.0516   -0.4489   -0.0000 O   0  0  0  0  0  0  0  0  0  0  0  0
   -5.3628    0.3071   -0.0000 C   0  0  0  0  0  0  0  0  0  0  0  0
   -5.3746    1.8191   -0.0000 O   0  0  0  0  0  0  0  0  0  0  0  0
   -6.6739   -0.4252   -0.0000 N   0  0  0  0  0  0  0  0  0  0  0  0
   -7.9851    0.3307   -0.0000 C   0  0  0  0  0  0  0  0  0  0  0  0
   -7.9969    1.8427   -0.0000 C   0  0  0  0  0  0  0  0  0  0  0  0
   -9.2962   -0.4016   -0.0000 C   0  0  0  0  0  0  0  0  0  0  0  0
   -9.3080    2.5987   -0.0000 C   0  0  0  0  0  0  0  0  0  0  0  0
  -10.6074    0.3544   -0.0000 C   0  0  0  0  0  0  0  0  0  0  0  0
   -9.3199    4.1107   -0.0000 C   0  0  0  0  0  0  0  0  0  0  0  0
  -10.6074    1.8663   -0.0000 C   0  0  0  0  0  0  0  0  0  0  0  0
  -11.9185   -0.3780   -0.0000 C   0  0  0  0  0  0  0  0  0  0  0  0
  -10.6192    4.8666   -0.0000 C   0  0  0  0  0  0  0  0  0  0  0  0
  -11.9185    2.6223   -0.0000 C   0  0  0  0  0  0  0  0  0  0  0  0
  -13.2297    0.3780   -0.0000 N   0  0  0  0  0  0  0  0  0  0  0  0
  -11.9304   -1.8663   -0.0000 C   0  0  0  0  0  0  0  0  0  0  0  0
  -11.9304    4.1343   -0.0000 C   0  0  0  0  0  0  0  0  0  0  0  0
  -14.5409   -0.3544   -0.0000 C   0  0  0  0  0  0  0  0  0  0  0  0
  -10.6428   -2.5987   -0.0000 C   0  0  0  0  0  0  0  0  0  0  0  0
  -14.5527   -1.8427   -0.0000 O   0  0  0  0  0  0  0  0  0  0  0  0
  -15.8520    0.4016   -0.0000 C   0  0  0  0  0  0  0  0  0  0  0  0
  -10.6664   -4.0870   -0.0000 C   0  0  0  0  0  0  0  0  0  0  0  0
   -9.3671   -1.8427   -0.0000 C   0  0  0  0  0  0  0  0  0  0  0  0
  -17.1632   -0.3307   -0.0000 N   0  0  0  0  0  0  0  0  0  0  0  0
  -15.8638    1.9136   -0.0000 C   0  0  0  0  0  0  0  0  0  0  0  0
   -9.3907   -4.8194   -0.0000 C   0  0  0  0  0  0  0  0  0  0  0  0
   -8.0796   -2.5751   -0.0000 C   0  0  0  0  0  0  0  0  0  0  0  0
  -18.4743    0.4252   -0.0000 C   0  0  0  0  0  0  0  0  0  0  0  0
  -14.5763    2.6696   -0.0000 N   0  0  0  0  0  0  0  0  0  0  0  0
   -8.1032   -4.0634   -0.0000 C   0  0  0  0  0  0  0  0  0  0  0  0
  -18.4861    1.9372   -0.0000 O   0  0  0  0  0  0  0  0  0  0  0  0
  -19.7855   -0.3071   -0.0000 N   0  0  0  0  0  0  0  0  0  0  0  0
  -14.5881    4.1815   -0.0000 C   0  0  0  0  0  0  0  0  0  0  0  0
  -13.2888    1.9372   -0.0000 C   0  0  0  0  0  0  0  0  0  0  0  0
  -21.0967    0.4489   -0.0000 C   0  0  0  0  0  0  0  0  0  0  0  0
  -19.7973   -1.7955   -0.0000 C   0  0  0  0  0  0  0  0  0  0  0  0
  -22.4078   -0.2835   -0.0000 C   0  0  0  0  0  0  0  0  0  0  0  0
  -23.8607    0.1654   -0.0000 N   0  0  0  0  0  0  0  0  0  0  0  0
  -22.4078   -1.7718   -0.0000 C   0  0  0  0  0  0  0  0  0  0  0  0
  -24.7230   -1.0513   -0.0000 C   0  0  0  0  0  0  0  0  0  0  0  0
  -23.8253   -2.2443   -0.0000 S   0  0  0  0  0  0  0  0  0  0  0  0
  -26.2350   -1.0749   -0.0000 C   0  0  0  0  0  0  0  0  0  0  0  0
  -27.0146    0.2126   -0.0000 C   0  0  0  0  0  0  0  0  0  0  0  0
  -26.9673   -2.3743   -0.0000 C   0  0  0  0  0  0  0  0  0  0  0  0
  1  2  1  0  0  0  0
  1  3  1  0  0  0  0
  2  4  2  0  0  0  0
  2  5  1  0  0  0  0
  3  6  2  0  0  0  0
  5  7  1  0  0  0  0
  7  8  1  0  0  0  0
  8  9  2  0  0  0  0
  8 10  1  0  0  0  0
 11 10  1  1  0  0  0
 11 12  1  0  0  0  0
 11 13  1  0  0  0  0
 12 14  1  0  0  0  0
 13 15  1  0  0  0  0
 14 16  2  0  0  0  0
 14 17  1  0  0  0  0
 15 18  1  0  0  0  0
 16 19  1  0  0  0  0
 17 20  2  0  0  0  0
 18 21  1  1  0  0  0
 18 22  1  0  0  0  0
 19 23  2  0  0  0  0
 21 24  1  0  0  0  0
 22 25  1  0  0  0  0
 24 26  2  0  0  0  0
 24 27  1  0  0  0  0
 25 28  2  0  0  0  0
 25 29  1  0  0  0  0
 27 30  1  0  0  0  0
 27 31  1  0  0  0  0
 28 32  1  0  0  0  0
 29 33  2  0  0  0  0
 30 34  1  0  0  0  0
 31 35  1  0  0  0  0
 32 36  2  0  0  0  0
 34 37  2  0  0  0  0
 34 38  1  0  0  0  0
 35 39  1  0  0  0  0
 35 40  1  0  0  0  0
 38 41  1  0  0  0  0
 38 42  1  0  0  0  0
 41 43  1  0  0  0  0
 43 44  1  0  0  0  0
 43 45  2  0  0  0  0
 44 46  2  0  0  0  0
 45 47  1  0  0  0  0
 46 48  1  0  0  0  0
 48 49  1  0  0  0  0
 48 50  1  0  0  0  0
  4  6  1  0  0  0  0
 20 23  1  0  0  0  0
 33 36  1  0  0  0  0
 46 47  1  0  0  0  0
M  END
>  <MolRegNo>
1618151

>  <m>
=

>  <Value>
140

>  <Unit>
nM

>  <Type>
IC50

>  <pValue>
6.85

>  <Ligand Efficiency>
0

>  <Binding Efficiency>
0

>  <Surface Efficiency>
0

>  <Assay Index>
821142

>  <Assay Category>


>  <Assay Organism>
Homo sapiens

>  <Target ID>
17045

>  <Target Name>
Cytochrome P450 3A4

>  <Target Organism>
Homo sapiens

>  <Target Description>
Target is a single protein chain

>  <Sequence Accession>
P08684

>  <Reference>
Bioorg Med Chem Lett 24 (3), 995-999 (2014)

>  <Pubmed ID>
24412072

>  <DOI>
10.1016/j.bmcl.2013.12.057

$$$$
1618150
Actelion Java MolfileCreator 1.0

 50 53  0  0  0  0  0  0  0  0999 V2000
    0.0000   -0.0000   -0.0000 S   0  0  0  0  0  0  0  0  0  0  0  0
   -1.4293   -0.4725   -0.0000 C   0  0  0  0  0  0  0  0  0  0  0  0
    0.8741   -1.1930   -0.0000 C   0  0  0  0  0  0  0  0  0  0  0  0
   -1.4293   -1.9490   -0.0000 C   0  0  0  0  0  0  0  0  0  0  0  0
   -2.7404    0.2835   -0.0000 C   0  0  0  0  0  0  0  0  0  0  0  0
    0.0000   -2.3979   -0.0000 N   0  0  0  0  0  0  0  0  0  0  0  0
   -4.0516   -0.4489   -0.0000 O   0  0  0  0  0  0  0  0  0  0  0  0
   -5.3628    0.3071   -0.0000 C   0  0  0  0  0  0  0  0  0  0  0  0
   -5.3746    1.8191   -0.0000 O   0  0  0  0  0  0  0  0  0  0  0  0
   -6.6739   -0.4252   -0.0000 N   0  0  0  0  0  0  0  0  0  0  0  0
   -7.9851    0.3307   -0.0000 C   0  0  0  0  0  0  0  0  0  0  0  0
   -7.9969    1.8427   -0.0000 C   0  0  0  0  0  0  0  0  0  0  0  0
   -9.2962   -0.4016   -0.0000 C   0  0  0  0  0  0  0  0  0  0  0  0
   -9.3080    2.5987   -0.0000 C   0  0  0  0  0  0  0  0  0  0  0  0
  -10.6074    0.3544   -0.0000 C   0  0  0  0  0  0  0  0  0  0  0  0
   -9.3199    4.1107   -0.0000 C   0  0  0  0  0  0  0  0  0  0  0  0
  -10.6074    1.8663   -0.0000 C   0  0  0  0  0  0  0  0  0  0  0  0
  -11.9185   -0.3780   -0.0000 C   0  0  0  0  0  0  0  0  0  0  0  0
  -10.6192    4.8666   -0.0000 C   0  0  0  0  0  0  0  0  0  0  0  0
  -11.9185    2.6223   -0.0000 C   0  0  0  0  0  0  0  0  0  0  0  0
  -13.2297    0.3780   -0.0000 N   0  0  0  0  0  0  0  0  0  0  0  0
  -11.9304   -1.8663   -0.0000 C   0  0  0  0  0  0  0  0  0  0  0  0
  -11.9304    4.1343   -0.0000 C   0  0  0  0  0  0  0  0  0  0  0  0
  -14.5409   -0.3544   -0.0000 C   0  0  0  0  0  0  0  0  0  0  0  0
  -10.6428   -2.5987   -0.0000 C   0  0  0  0  0  0  0  0  0  0  0  0
  -14.5527   -1.8427   -0.0000 O   0  0  0  0  0  0  0  0  0  0  0  0
  -15.8520    0.4016   -0.0000 C   0  0  0  0  0  0  0  0  0  0  0  0
  -10.6664   -4.0870   -0.0000 C   0  0  0  0  0  0  0  0  0  0  0  0
   -9.3671   -1.8427   -0.0000 C   0  0  0  0  0  0  0  0  0  0  0  0
  -17.1632   -0.3307   -0.0000 N   0  0  0  0  0  0  0  0  0  0  0  0
  -15.8638    1.9136   -0.0000 C   0  0  0  0  0  0  0  0  0  0  0  0
   -9.3907   -4.8194   -0.0000 C   0  0  0  0  0  0  0  0  0  0  0  0
   -8.0796   -2.5751   -0.0000 C   0  0  0  0  0  0  0  0  0  0  0  0
  -18.4743    0.4252   -0.0000 C   0  0  0  0  0  0  0  0  0  0  0  0
  -14.5763    2.6696   -0.0000 C   0  0  0  0  0  0  0  0  0  0  0  0
   -8.1032   -4.0634   -0.0000 C   0  0  0  0  0  0  0  0  0  0  0  0
  -18.4861    1.9372   -0.0000 O   0  0  0  0  0  0  0  0  0  0  0  0
  -19.7855   -0.3071   -0.0000 N   0  0  0  0  0  0  0  0  0  0  0  0
  -13.2888    1.9372   -0.0000 O   0  0  0  0  0  0  0  0  0  0  0  0
  -14.5881    4.1815   -0.0000 N   0  0  0  0  0  0  0  0  0  0  0  0
  -21.0967    0.4489   -0.0000 C   0  0  0  0  0  0  0  0  0  0  0  0
  -19.7973   -1.7955   -0.0000 C   0  0  0  0  0  0  0  0  0  0  0  0
  -22.4078   -0.2835   -0.0000 C   0  0  0  0  0  0  0  0  0  0  0  0
  -23.8607    0.1654   -0.0000 N   0  0  0  0  0  0  0  0  0  0  0  0
  -22.4078   -1.7718   -0.0000 C   0  0  0  0  0  0  0  0  0  0  0  0
  -24.7230   -1.0513   -0.0000 C   0  0  0  0  0  0  0  0  0  0  0  0
  -23.8253   -2.2443   -0.0000 S   0  0  0  0  0  0  0  0  0  0  0  0
  -26.2350   -1.0749   -0.0000 C   0  0  0  0  0  0  0  0  0  0  0  0
  -27.0146    0.2126   -0.0000 C   0  0  0  0  0  0  0  0  0  0  0  0
  -26.9673   -2.3743   -0.0000 C   0  0  0  0  0  0  0  0  0  0  0  0
  1  2  1  0  0  0  0
  1  3  1  0  0  0  0
  2  4  2  0  0  0  0
  2  5  1  0  0  0  0
  3  6  2  0  0  0  0
  5  7  1  0  0  0  0
  7  8  1  0  0  0  0
  8  9  2  0  0  0  0
  8 10  1  0  0  0  0
 11 10  1  6  0  0  0
 11 12  1  0  0  0  0
 11 13  1  0  0  0  0
 12 14  1  0  0  0  0
 13 15  1  0  0  0  0
 14 16  2  0  0  0  0
 14 17  1  0  0  0  0
 15 18  1  0  0  0  0
 16 19  1  0  0  0  0
 17 20  2  0  0  0  0
 18 21  1  6  0  0  0
 18 22  1  0  0  0  0
 19 23  2  0  0  0  0
 21 24  1  0  0  0  0
 22 25  1  0  0  0  0
 24 26  2  0  0  0  0
 24 27  1  0  0  0  0
 25 28  2  0  0  0  0
 25 29  1  0  0  0  0
 27 30  1  1  0  0  0
 27 31  1  0  0  0  0
 28 32  1  0  0  0  0
 29 33  2  0  0  0  0
 30 34  1  0  0  0  0
 31 35  1  0  0  0  0
 32 36  2  0  0  0  0
 34 37  2  0  0  0  0
 34 38  1  0  0  0  0
 35 39  2  0  0  0  0
 35 40  1  0  0  0  0
 38 41  1  0  0  0  0
 38 42  1  0  0  0  0
 41 43  1  0  0  0  0
 43 44  1  0  0  0  0
 43 45  2  0  0  0  0
 44 46  2  0  0  0  0
 45 47  1  0  0  0  0
 46 48  1  0  0  0  0
 48 49  1  0  0  0  0
 48 50  1  0  0  0  0
  4  6  1  0  0  0  0
 20 23  1  0  0  0  0
 33 36  1  0  0  0  0
 46 47  1  0  0  0  0
M  END
>  <MolRegNo>
1618150

>  <m>
=

>  <Value>
130

>  <Unit>
nM

>  <Type>
IC50

>  <pValue>
6.89

>  <Ligand Efficiency>
0

>  <Binding Efficiency>
0

>  <Surface Efficiency>
0

>  <Assay Index>
821142

>  <Assay Category>


>  <Assay Organism>
Homo sapiens

>  <Target ID>
17045

>  <Target Name>
Cytochrome P450 3A4

>  <Target Organism>
Homo sapiens

>  <Target Description>
Target is a single protein chain

>  <Sequence Accession>
P08684

>  <Reference>
Bioorg Med Chem Lett 24 (3), 995-999 (2014)

>  <Pubmed ID>
24412072

>  <DOI>
10.1016/j.bmcl.2013.12.057

$$$$
1618149
Actelion Java MolfileCreator 1.0

 50 53  0  0  0  0  0  0  0  0999 V2000
    0.0000   -0.0000   -0.0000 S   0  0  0  0  0  0  0  0  0  0  0  0
   -1.4295   -0.4726   -0.0000 C   0  0  0  0  0  0  0  0  0  0  0  0
    0.8742   -1.1932   -0.0000 C   0  0  0  0  0  0  0  0  0  0  0  0
   -1.4295   -1.9493   -0.0000 C   0  0  0  0  0  0  0  0  0  0  0  0
   -2.7409    0.2835   -0.0000 C   0  0  0  0  0  0  0  0  0  0  0  0
    0.0000   -2.3983   -0.0000 N   0  0  0  0  0  0  0  0  0  0  0  0
   -4.0523   -0.4489   -0.0000 O   0  0  0  0  0  0  0  0  0  0  0  0
   -5.3636    0.3072   -0.0000 C   0  0  0  0  0  0  0  0  0  0  0  0
   -5.3754    1.8194   -0.0000 O   0  0  0  0  0  0  0  0  0  0  0  0
   -6.6750   -0.4253   -0.0000 N   0  0  0  0  0  0  0  0  0  0  0  0
   -7.9864    0.3308   -0.0000 C   0  0  0  0  0  0  0  0  0  0  0  0
   -7.9982    1.8430   -0.0000 C   0  0  0  0  0  0  0  0  0  0  0  0
   -9.2977   -0.4017   -0.0000 C   0  0  0  0  0  0  0  0  0  0  0  0
   -9.3095    2.5991   -0.0000 C   0  0  0  0  0  0  0  0  0  0  0  0
  -10.6091    0.3544   -0.0000 C   0  0  0  0  0  0  0  0  0  0  0  0
   -9.3214    4.1113   -0.0000 C   0  0  0  0  0  0  0  0  0  0  0  0
  -10.6091    1.8666   -0.0000 C   0  0  0  0  0  0  0  0  0  0  0  0
  -11.9205   -0.3781   -0.0000 C   0  0  0  0  0  0  0  0  0  0  0  0
  -10.6209    4.8674   -0.0000 C   0  0  0  0  0  0  0  0  0  0  0  0
  -11.9205    2.6227   -0.0000 C   0  0  0  0  0  0  0  0  0  0  0  0
  -13.2318    0.3781   -0.0000 N   0  0  0  0  0  0  0  0  0  0  0  0
  -11.9323   -1.8666   -0.0000 C   0  0  0  0  0  0  0  0  0  0  0  0
  -11.9323    4.1350   -0.0000 C   0  0  0  0  0  0  0  0  0  0  0  0
  -14.5432   -0.3544   -0.0000 C   0  0  0  0  0  0  0  0  0  0  0  0
  -10.6445   -2.5991   -0.0000 C   0  0  0  0  0  0  0  0  0  0  0  0
  -14.5550   -1.8430   -0.0000 O   0  0  0  0  0  0  0  0  0  0  0  0
  -15.8546    0.4017   -0.0000 C   0  0  0  0  0  0  0  0  0  0  0  0
  -10.6682   -4.0877   -0.0000 C   0  0  0  0  0  0  0  0  0  0  0  0
   -9.3686   -1.8430   -0.0000 C   0  0  0  0  0  0  0  0  0  0  0  0
  -17.1660   -0.3308   -0.0000 N   0  0  0  0  0  0  0  0  0  0  0  0
  -15.8664    1.9139   -0.0000 C   0  0  0  0  0  0  0  0  0  0  0  0
   -9.3922   -4.8202   -0.0000 C   0  0  0  0  0  0  0  0  0  0  0  0
   -8.0809   -2.5755   -0.0000 C   0  0  0  0  0  0  0  0  0  0  0  0
  -18.4773    0.4253   -0.0000 C   0  0  0  0  0  0  0  0  0  0  0  0
  -14.5787    2.6700   -0.0000 C   0  0  0  0  0  0  0  0  0  0  0  0
   -8.1045   -4.0641   -0.0000 C   0  0  0  0  0  0  0  0  0  0  0  0
  -18.4891    1.9375   -0.0000 O   0  0  0  0  0  0  0  0  0  0  0  0
  -19.7887   -0.3072   -0.0000 N   0  0  0  0  0  0  0  0  0  0  0  0
  -13.2909    1.9375   -0.0000 O   0  0  0  0  0  0  0  0  0  0  0  0
  -14.5905    4.1822   -0.0000 O   0  0  0  0  0  0  0  0  0  0  0  0
  -21.1001    0.4489   -0.0000 C   0  0  0  0  0  0  0  0  0  0  0  0
  -19.8005   -1.7958   -0.0000 C   0  0  0  0  0  0  0  0  0  0  0  0
  -22.4114   -0.2835   -0.0000 C   0  0  0  0  0  0  0  0  0  0  0  0
  -23.8646    0.1536   -0.0000 N   0  0  0  0  0  0  0  0  0  0  0  0
  -22.4114   -1.7721   -0.0000 C   0  0  0  0  0  0  0  0  0  0  0  0
  -24.7270   -1.0633   -0.0000 C   0  0  0  0  0  0  0  0  0  0  0  0
  -23.8291   -2.2447   -0.0000 S   0  0  0  0  0  0  0  0  0  0  0  0
  -26.2392   -1.0869   -0.0000 C   0  0  0  0  0  0  0  0  0  0  0  0
  -27.0190    0.2008   -0.0000 C   0  0  0  0  0  0  0  0  0  0  0  0
  -26.9717   -2.3865   -0.0000 C   0  0  0  0  0  0  0  0  0  0  0  0
  1  2  1  0  0  0  0
  1  3  1  0  0  0  0
  2  4  2  0  0  0  0
  2  5  1  0  0  0  0
  3  6  2  0  0  0  0
  5  7  1  0  0  0  0
  7  8  1  0  0  0  0
  8  9  2  0  0  0  0
  8 10  1  0  0  0  0
 11 10  1  6  0  0  0
 11 12  1  0  0  0  0
 11 13  1  0  0  0  0
 12 14  1  0  0  0  0
 13 15  1  0  0  0  0
 14 16  2  0  0  0  0
 14 17  1  0  0  0  0
 15 18  1  0  0  0  0
 16 19  1  0  0  0  0
 17 20  2  0  0  0  0
 18 21  1  6  0  0  0
 18 22  1  0  0  0  0
 19 23  2  0  0  0  0
 21 24  1  0  0  0  0
 22 25  1  0  0  0  0
 24 26  2  0  0  0  0
 24 27  1  0  0  0  0
 25 28  2  0  0  0  0
 25 29  1  0  0  0  0
 27 30  1  1  0  0  0
 27 31  1  0  0  0  0
 28 32  1  0  0  0  0
 29 33  2  0  0  0  0
 30 34  1  0  0  0  0
 31 35  1  0  0  0  0
 32 36  2  0  0  0  0
 34 37  2  0  0  0  0
 34 38  1  0  0  0  0
 35 39  2  0  0  0  0
 35 40  1  0  0  0  0
 38 41  1  0  0  0  0
 38 42  1  0  0  0  0
 41 43  1  0  0  0  0
 43 44  1  0  0  0  0
 43 45  2  0  0  0  0
 44 46  2  0  0  0  0
 45 47  1  0  0  0  0
 46 48  1  0  0  0  0
 48 49  1  0  0  0  0
 48 50  1  0  0  0  0
  4  6  1  0  0  0  0
 20 23  1  0  0  0  0
 33 36  1  0  0  0  0
 46 47  1  0  0  0  0
M  END
>  <MolRegNo>
1618149

>  <m>
=

>  <Value>
500

>  <Unit>
nM

>  <Type>
IC50

>  <pValue>
6.3

>  <Ligand Efficiency>
0

>  <Binding Efficiency>
0

>  <Surface Efficiency>
0

>  <Assay Index>
821142

>  <Assay Category>


>  <Assay Organism>
Homo sapiens

>  <Target ID>
17045

>  <Target Name>
Cytochrome P450 3A4

>  <Target Organism>
Homo sapiens

>  <Target Description>
Target is a single protein chain

>  <Sequence Accession>
P08684

>  <Reference>
Bioorg Med Chem Lett 24 (3), 995-999 (2014)

>  <Pubmed ID>
24412072

>  <DOI>
10.1016/j.bmcl.2013.12.057

$$$$
1618148
Actelion Java MolfileCreator 1.0

 55 59  0  0  0  0  0  0  0  0999 V2000
    0.0000   -0.0000   -0.0000 S   0  0  0  0  0  0  0  0  0  0  0  0
   -1.4268   -0.4717   -0.0000 C   0  0  0  0  0  0  0  0  0  0  0  0
    0.8726   -1.1910   -0.0000 C   0  0  0  0  0  0  0  0  0  0  0  0
   -1.4268   -1.9456   -0.0000 C   0  0  0  0  0  0  0  0  0  0  0  0
   -2.7357    0.2830   -0.0000 C   0  0  0  0  0  0  0  0  0  0  0  0
   -0.0118   -2.3937   -0.0000 N   0  0  0  0  0  0  0  0  0  0  0  0
   -4.0445   -0.4481   -0.0000 O   0  0  0  0  0  0  0  0  0  0  0  0
   -5.3534    0.3066   -0.0000 C   0  0  0  0  0  0  0  0  0  0  0  0
   -5.3652    1.8159   -0.0000 O   0  0  0  0  0  0  0  0  0  0  0  0
   -6.6623   -0.4245   -0.0000 N   0  0  0  0  0  0  0  0  0  0  0  0
   -7.9711    0.3302   -0.0000 C   0  0  0  0  0  0  0  0  0  0  0  0
   -7.9829    1.8395   -0.0000 C   0  0  0  0  0  0  0  0  0  0  0  0
   -9.2800   -0.4009   -0.0000 C   0  0  0  0  0  0  0  0  0  0  0  0
   -9.2918    2.5942   -0.0000 C   0  0  0  0  0  0  0  0  0  0  0  0
  -10.5889    0.3537   -0.0000 C   0  0  0  0  0  0  0  0  0  0  0  0
   -9.3036    4.1035   -0.0000 C   0  0  0  0  0  0  0  0  0  0  0  0
  -10.5889    1.8631   -0.0000 C   0  0  0  0  0  0  0  0  0  0  0  0
  -11.8978   -0.3773   -0.0000 C   0  0  0  0  0  0  0  0  0  0  0  0
  -10.6125    4.8582   -0.0000 C   0  0  0  0  0  0  0  0  0  0  0  0
  -11.8978    2.6177   -0.0000 C   0  0  0  0  0  0  0  0  0  0  0  0
  -13.2066    0.3773   -0.0000 N   0  0  0  0  0  0  0  0  0  0  0  0
  -11.9096   -1.8631   -0.0000 C   0  0  0  0  0  0  0  0  0  0  0  0
  -11.9213    4.1271   -0.0000 C   0  0  0  0  0  0  0  0  0  0  0  0
  -14.5155   -0.3537   -0.0000 C   0  0  0  0  0  0  0  0  0  0  0  0
  -10.6243   -2.5942   -0.0000 C   0  0  0  0  0  0  0  0  0  0  0  0
  -14.5273   -1.8395   -0.0000 O   0  0  0  0  0  0  0  0  0  0  0  0
  -15.8244    0.4009   -0.0000 C   0  0  0  0  0  0  0  0  0  0  0  0
  -10.6478   -4.0799   -0.0000 C   0  0  0  0  0  0  0  0  0  0  0  0
   -9.3508   -1.8395   -0.0000 C   0  0  0  0  0  0  0  0  0  0  0  0
  -17.1332   -0.3302   -0.0000 N   0  0  0  0  0  0  0  0  0  0  0  0
  -15.8362    1.9102   -0.0000 C   0  0  0  0  0  0  0  0  0  0  0  0
   -9.3626   -4.8110   -0.0000 C   0  0  0  0  0  0  0  0  0  0  0  0
   -8.0655   -2.5706   -0.0000 C   0  0  0  0  0  0  0  0  0  0  0  0
  -18.4421    0.4245   -0.0000 C   0  0  0  0  0  0  0  0  0  0  0  0
  -14.5509    2.6649   -0.0000 O   0  0  0  0  0  0  0  0  0  0  0  0
   -8.0773   -4.0563   -0.0000 C   0  0  0  0  0  0  0  0  0  0  0  0
  -18.4539    1.9338   -0.0000 O   0  0  0  0  0  0  0  0  0  0  0  0
  -19.7510   -0.3066   -0.0000 N   0  0  0  0  0  0  0  0  0  0  0  0
  -14.5627    4.1742   -0.0000 C   0  0  0  0  0  0  0  0  0  0  0  0
  -21.0599    0.4481   -0.0000 C   0  0  0  0  0  0  0  0  0  0  0  0
  -19.7628   -1.7923   -0.0000 C   0  0  0  0  0  0  0  0  0  0  0  0
  -15.8715    4.9289   -0.0000 C   0  0  0  0  0  0  0  0  0  0  0  0
  -22.3687   -0.2830   -0.0000 C   0  0  0  0  0  0  0  0  0  0  0  0
  -15.8715    6.4382   -0.0000 C   0  0  0  0  0  0  0  0  0  0  0  0
  -17.1686    4.1978   -0.0000 C   0  0  0  0  0  0  0  0  0  0  0  0
  -23.7955    0.2358   -0.0000 N   0  0  0  0  0  0  0  0  0  0  0  0
  -22.4277   -1.7687   -0.0000 C   0  0  0  0  0  0  0  0  0  0  0  0
  -17.1804    7.1929   -0.0000 C   0  0  0  0  0  0  0  0  0  0  0  0
  -18.4775    4.9525   -0.0000 C   0  0  0  0  0  0  0  0  0  0  0  0
  -24.7271   -0.9315   -0.0000 C   0  0  0  0  0  0  0  0  0  0  0  0
  -23.8781   -2.1815   -0.0000 S   0  0  0  0  0  0  0  0  0  0  0  0
  -18.4893    6.4618   -0.0000 C   0  0  0  0  0  0  0  0  0  0  0  0
  -26.2364   -0.8726   -0.0000 C   0  0  0  0  0  0  0  0  0  0  0  0
  -26.9557    0.4599   -0.0000 C   0  0  0  0  0  0  0  0  0  0  0  0
  -27.0382   -2.1343   -0.0000 C   0  0  0  0  0  0  0  0  0  0  0  0
  1  2  1  0  0  0  0
  1  3  1  0  0  0  0
  2  4  2  0  0  0  0
  2  5  1  0  0  0  0
  3  6  2  0  0  0  0
  5  7  1  0  0  0  0
  7  8  1  0  0  0  0
  8  9  2  0  0  0  0
  8 10  1  0  0  0  0
 11 10  1  6  0  0  0
 11 12  1  0  0  0  0
 11 13  1  0  0  0  0
 12 14  1  0  0  0  0
 13 15  1  0  0  0  0
 14 16  2  0  0  0  0
 14 17  1  0  0  0  0
 15 18  1  0  0  0  0
 16 19  1  0  0  0  0
 17 20  2  0  0  0  0
 18 21  1  6  0  0  0
 18 22  1  0  0  0  0
 19 23  2  0  0  0  0
 21 24  1  0  0  0  0
 22 25  1  0  0  0  0
 24 26  2  0  0  0  0
 24 27  1  0  0  0  0
 25 28  2  0  0  0  0
 25 29  1  0  0  0  0
 27 30  1  1  0  0  0
 27 31  1  0  0  0  0
 28 32  1  0  0  0  0
 29 33  2  0  0  0  0
 30 34  1  0  0  0  0
 31 35  1  0  0  0  0
 32 36  2  0  0  0  0
 34 37  2  0  0  0  0
 34 38  1  0  0  0  0
 35 39  1  0  0  0  0
 38 40  1  0  0  0  0
 38 41  1  0  0  0  0
 39 42  1  0  0  0  0
 40 43  1  0  0  0  0
 42 44  2  0  0  0  0
 42 45  1  0  0  0  0
 43 46  1  0  0  0  0
 43 47  2  0  0  0  0
 44 48  1  0  0  0  0
 45 49  2  0  0  0  0
 46 50  2  0  0  0  0
 47 51  1  0  0  0  0
 48 52  2  0  0  0  0
 50 53  1  0  0  0  0
 53 54  1  0  0  0  0
 53 55  1  0  0  0  0
  4  6  1  0  0  0  0
 20 23  1  0  0  0  0
 33 36  1  0  0  0  0
 49 52  1  0  0  0  0
 50 51  1  0  0  0  0
M  END
>  <MolRegNo>
1618148

>  <m>
=

>  <Value>
170

>  <Unit>
nM

>  <Type>
IC50

>  <pValue>
6.77

>  <Ligand Efficiency>
0

>  <Binding Efficiency>
0

>  <Surface Efficiency>
0

>  <Assay Index>
821142

>  <Assay Category>


>  <Assay Organism>
Homo sapiens

>  <Target ID>
17045

>  <Target Name>
Cytochrome P450 3A4

>  <Target Organism>
Homo sapiens

>  <Target Description>
Target is a single protein chain

>  <Sequence Accession>
P08684

>  <Reference>
Bioorg Med Chem Lett 24 (3), 995-999 (2014)

>  <Pubmed ID>
24412072

>  <DOI>
10.1016/j.bmcl.2013.12.057

$$$$
1618147
Actelion Java MolfileCreator 1.0

 49 52  0  0  0  0  0  0  0  0999 V2000
    0.0000   -0.0000   -0.0000 S   0  0  0  0  0  0  0  0  0  0  0  0
   -1.4275   -0.4719   -0.0000 C   0  0  0  0  0  0  0  0  0  0  0  0
    0.8730   -1.1916   -0.0000 C   0  0  0  0  0  0  0  0  0  0  0  0
   -1.4275   -1.9466   -0.0000 C   0  0  0  0  0  0  0  0  0  0  0  0
   -2.7370    0.2831   -0.0000 C   0  0  0  0  0  0  0  0  0  0  0  0
   -0.0118   -2.3949   -0.0000 N   0  0  0  0  0  0  0  0  0  0  0  0
   -4.0466   -0.4483   -0.0000 O   0  0  0  0  0  0  0  0  0  0  0  0
   -5.3561    0.3067   -0.0000 C   0  0  0  0  0  0  0  0  0  0  0  0
   -5.3679    1.8168   -0.0000 O   0  0  0  0  0  0  0  0  0  0  0  0
   -6.6656   -0.4247   -0.0000 N   0  0  0  0  0  0  0  0  0  0  0  0
   -7.9752    0.3303   -0.0000 C   0  0  0  0  0  0  0  0  0  0  0  0
   -7.9870    1.8404   -0.0000 C   0  0  0  0  0  0  0  0  0  0  0  0
   -9.2847   -0.4011   -0.0000 C   0  0  0  0  0  0  0  0  0  0  0  0
   -9.2965    2.5955   -0.0000 C   0  0  0  0  0  0  0  0  0  0  0  0
  -10.5942    0.3539   -0.0000 C   0  0  0  0  0  0  0  0  0  0  0  0
   -9.3083    4.1056   -0.0000 C   0  0  0  0  0  0  0  0  0  0  0  0
  -10.5942    1.8640   -0.0000 C   0  0  0  0  0  0  0  0  0  0  0  0
  -11.9038   -0.3775   -0.0000 C   0  0  0  0  0  0  0  0  0  0  0  0
  -10.6178    4.8606   -0.0000 C   0  0  0  0  0  0  0  0  0  0  0  0
  -11.9038    2.6191   -0.0000 C   0  0  0  0  0  0  0  0  0  0  0  0
  -13.2133    0.3775   -0.0000 N   0  0  0  0  0  0  0  0  0  0  0  0
  -11.9156   -1.8640   -0.0000 C   0  0  0  0  0  0  0  0  0  0  0  0
  -11.9274    4.1292   -0.0000 C   0  0  0  0  0  0  0  0  0  0  0  0
  -14.5228   -0.3539   -0.0000 C   0  0  0  0  0  0  0  0  0  0  0  0
  -10.6296   -2.5955   -0.0000 C   0  0  0  0  0  0  0  0  0  0  0  0
  -14.5346   -1.8404   -0.0000 O   0  0  0  0  0  0  0  0  0  0  0  0
  -15.8324    0.4011   -0.0000 C   0  0  0  0  0  0  0  0  0  0  0  0
  -10.6532   -4.0820   -0.0000 C   0  0  0  0  0  0  0  0  0  0  0  0
   -9.3555   -1.8404   -0.0000 C   0  0  0  0  0  0  0  0  0  0  0  0
  -17.1419   -0.3303   -0.0000 N   0  0  0  0  0  0  0  0  0  0  0  0
  -15.8442    1.9112   -0.0000 C   0  0  0  0  0  0  0  0  0  0  0  0
   -9.3673   -4.8134   -0.0000 C   0  0  0  0  0  0  0  0  0  0  0  0
   -8.0696   -2.5719   -0.0000 C   0  0  0  0  0  0  0  0  0  0  0  0
  -18.4514    0.4247   -0.0000 C   0  0  0  0  0  0  0  0  0  0  0  0
  -14.5582    2.6663   -0.0000 O   0  0  0  0  0  0  0  0  0  0  0  0
   -8.0814   -4.0584   -0.0000 C   0  0  0  0  0  0  0  0  0  0  0  0
  -18.4632    1.9348   -0.0000 O   0  0  0  0  0  0  0  0  0  0  0  0
  -19.7610   -0.3067   -0.0000 N   0  0  0  0  0  0  0  0  0  0  0  0
  -14.5700    4.1763   -0.0000 C   0  0  0  0  0  0  0  0  0  0  0  0
  -21.0705    0.4483   -0.0000 C   0  0  0  0  0  0  0  0  0  0  0  0
  -19.7728   -1.7932   -0.0000 C   0  0  0  0  0  0  0  0  0  0  0  0
  -22.3800   -0.2831   -0.0000 C   0  0  0  0  0  0  0  0  0  0  0  0
  -23.8075    0.2360   -0.0000 N   0  0  0  0  0  0  0  0  0  0  0  0
  -22.4390   -1.7696   -0.0000 C   0  0  0  0  0  0  0  0  0  0  0  0
  -24.7396   -0.9320   -0.0000 C   0  0  0  0  0  0  0  0  0  0  0  0
  -23.8901   -2.1826   -0.0000 S   0  0  0  0  0  0  0  0  0  0  0  0
  -26.2496   -0.8730   -0.0000 C   0  0  0  0  0  0  0  0  0  0  0  0
  -26.9693    0.4601   -0.0000 C   0  0  0  0  0  0  0  0  0  0  0  0
  -27.0519   -2.1354   -0.0000 C   0  0  0  0  0  0  0  0  0  0  0  0
  1  2  1  0  0  0  0
  1  3  1  0  0  0  0
  2  4  2  0  0  0  0
  2  5  1  0  0  0  0
  3  6  2  0  0  0  0
  5  7  1  0  0  0  0
  7  8  1  0  0  0  0
  8  9  2  0  0  0  0
  8 10  1  0  0  0  0
 11 10  1  6  0  0  0
 11 12  1  0  0  0  0
 11 13  1  0  0  0  0
 12 14  1  0  0  0  0
 13 15  1  0  0  0  0
 14 16  2  0  0  0  0
 14 17  1  0  0  0  0
 15 18  1  0  0  0  0
 16 19  1  0  0  0  0
 17 20  2  0  0  0  0
 18 21  1  6  0  0  0
 18 22  1  0  0  0  0
 19 23  2  0  0  0  0
 21 24  1  0  0  0  0
 22 25  1  0  0  0  0
 24 26  2  0  0  0  0
 24 27  1  0  0  0  0
 25 28  2  0  0  0  0
 25 29  1  0  0  0  0
 27 30  1  1  0  0  0
 27 31  1  0  0  0  0
 28 32  1  0  0  0  0
 29 33  2  0  0  0  0
 30 34  1  0  0  0  0
 31 35  1  0  0  0  0
 32 36  2  0  0  0  0
 34 37  2  0  0  0  0
 34 38  1  0  0  0  0
 35 39  1  0  0  0  0
 38 40  1  0  0  0  0
 38 41  1  0  0  0  0
 40 42  1  0  0  0  0
 42 43  1  0  0  0  0
 42 44  2  0  0  0  0
 43 45  2  0  0  0  0
 44 46  1  0  0  0  0
 45 47  1  0  0  0  0
 47 48  1  0  0  0  0
 47 49  1  0  0  0  0
  4  6  1  0  0  0  0
 20 23  1  0  0  0  0
 33 36  1  0  0  0  0
 45 46  1  0  0  0  0
M  END
>  <MolRegNo>
1618147

>  <m>
=

>  <Value>
150

>  <Unit>
nM

>  <Type>
IC50

>  <pValue>
6.82

>  <Ligand Efficiency>
0

>  <Binding Efficiency>
0

>  <Surface Efficiency>
0

>  <Assay Index>
821142

>  <Assay Category>


>  <Assay Organism>
Homo sapiens

>  <Target ID>
17045

>  <Target Name>
Cytochrome P450 3A4

>  <Target Organism>
Homo sapiens

>  <Target Description>
Target is a single protein chain

>  <Sequence Accession>
P08684

>  <Reference>
Bioorg Med Chem Lett 24 (3), 995-999 (2014)

>  <Pubmed ID>
24412072

>  <DOI>
10.1016/j.bmcl.2013.12.057

$$$$
1618146
Actelion Java MolfileCreator 1.0

 47 51  0  0  0  0  0  0  0  0999 V2000
    0.0000   -0.0000   -0.0000 S   0  0  0  0  0  0  0  0  0  0  0  0
   -1.4286   -0.4723   -0.0000 C   0  0  0  0  0  0  0  0  0  0  0  0
    0.8737   -1.1924   -0.0000 C   0  0  0  0  0  0  0  0  0  0  0  0
   -1.4286   -1.9481   -0.0000 C   0  0  0  0  0  0  0  0  0  0  0  0
   -2.7391    0.2834   -0.0000 C   0  0  0  0  0  0  0  0  0  0  0  0
   -0.0118   -2.3967   -0.0000 N   0  0  0  0  0  0  0  0  0  0  0  0
   -4.0496   -0.4486   -0.0000 O   0  0  0  0  0  0  0  0  0  0  0  0
   -5.3601    0.3070   -0.0000 C   0  0  0  0  0  0  0  0  0  0  0  0
   -5.3719    1.8182   -0.0000 O   0  0  0  0  0  0  0  0  0  0  0  0
   -6.6706   -0.4250   -0.0000 N   0  0  0  0  0  0  0  0  0  0  0  0
   -7.9811    0.3306   -0.0000 C   0  0  0  0  0  0  0  0  0  0  0  0
   -7.9930    1.8418   -0.0000 C   0  0  0  0  0  0  0  0  0  0  0  0
   -9.2917   -0.4014   -0.0000 C   0  0  0  0  0  0  0  0  0  0  0  0
   -9.3035    2.5974   -0.0000 C   0  0  0  0  0  0  0  0  0  0  0  0
  -10.6022    0.3542   -0.0000 C   0  0  0  0  0  0  0  0  0  0  0  0
   -9.3153    4.1086   -0.0000 C   0  0  0  0  0  0  0  0  0  0  0  0
  -10.6022    1.8654   -0.0000 C   0  0  0  0  0  0  0  0  0  0  0  0
  -11.9127   -0.3778   -0.0000 C   0  0  0  0  0  0  0  0  0  0  0  0
  -10.6258    4.8642   -0.0000 C   0  0  0  0  0  0  0  0  0  0  0  0
  -11.9127    2.6210   -0.0000 C   0  0  0  0  0  0  0  0  0  0  0  0
  -13.2232    0.3778   -0.0000 N   0  0  0  0  0  0  0  0  0  0  0  0
  -11.9245   -1.8654   -0.0000 C   0  0  0  0  0  0  0  0  0  0  0  0
  -11.9363    4.1323   -0.0000 C   0  0  0  0  0  0  0  0  0  0  0  0
  -14.5337   -0.3542   -0.0000 C   0  0  0  0  0  0  0  0  0  0  0  0
  -10.6376   -2.5974   -0.0000 C   0  0  0  0  0  0  0  0  0  0  0  0
  -14.5455   -1.8418   -0.0000 O   0  0  0  0  0  0  0  0  0  0  0  0
  -15.8442    0.4014   -0.0000 C   0  0  0  0  0  0  0  0  0  0  0  0
  -10.6612   -4.0850   -0.0000 C   0  0  0  0  0  0  0  0  0  0  0  0
   -9.3625   -1.8418   -0.0000 C   0  0  0  0  0  0  0  0  0  0  0  0
  -17.1547   -0.3306   -0.0000 N   0  0  0  0  0  0  0  0  0  0  0  0
  -15.8560    1.9126   -0.0000 C   0  0  0  0  0  0  0  0  0  0  0  0
   -9.3743   -4.8170   -0.0000 C   0  0  0  0  0  0  0  0  0  0  0  0
   -8.0756   -2.5738   -0.0000 C   0  0  0  0  0  0  0  0  0  0  0  0
  -18.4653    0.4250   -0.0000 C   0  0  0  0  0  0  0  0  0  0  0  0
  -14.5691    2.6683   -0.0000 O   0  0  0  0  0  0  0  0  0  0  0  0
   -8.0874   -4.0614   -0.0000 C   0  0  0  0  0  0  0  0  0  0  0  0
  -18.4771    1.9363   -0.0000 O   0  0  0  0  0  0  0  0  0  0  0  0
  -19.7758   -0.3070   -0.0000 N   0  0  0  0  0  0  0  0  0  0  0  0
  -19.7876   -1.7946   -0.0000 C   0  0  0  0  0  0  0  0  0  0  0  0
  -21.0863    0.4486   -0.0000 C   0  0  0  0  0  0  0  0  0  0  0  0
  -20.5432   -3.0815   -0.0000 C   0  0  0  0  0  0  0  0  0  0  0  0
  -19.0438   -3.0815   -0.0000 C   0  0  0  0  0  0  0  0  0  0  0  0
  -22.3968   -0.2834   -0.0000 C   0  0  0  0  0  0  0  0  0  0  0  0
  -23.8254    0.2361   -0.0000 S   0  0  0  0  0  0  0  0  0  0  0  0
  -22.4558   -1.7710   -0.0000 C   0  0  0  0  0  0  0  0  0  0  0  0
  -24.7581   -0.9327   -0.0000 C   0  0  0  0  0  0  0  0  0  0  0  0
  -23.9080   -2.1842   -0.0000 N   0  0  0  0  0  0  0  0  0  0  0  0
  1  2  1  0  0  0  0
  1  3  1  0  0  0  0
  2  4  2  0  0  0  0
  2  5  1  0  0  0  0
  3  6  2  0  0  0  0
  5  7  1  0  0  0  0
  7  8  1  0  0  0  0
  8  9  2  0  0  0  0
  8 10  1  0  0  0  0
 11 10  1  6  0  0  0
 11 12  1  0  0  0  0
 11 13  1  0  0  0  0
 12 14  1  0  0  0  0
 13 15  1  0  0  0  0
 14 16  2  0  0  0  0
 14 17  1  0  0  0  0
 15 18  1  0  0  0  0
 16 19  1  0  0  0  0
 17 20  2  0  0  0  0
 18 21  1  6  0  0  0
 18 22  1  0  0  0  0
 19 23  2  0  0  0  0
 21 24  1  0  0  0  0
 22 25  1  0  0  0  0
 24 26  2  0  0  0  0
 24 27  1  0  0  0  0
 25 28  2  0  0  0  0
 25 29  1  0  0  0  0
 27 30  1  1  0  0  0
 27 31  1  0  0  0  0
 28 32  1  0  0  0  0
 29 33  2  0  0  0  0
 30 34  1  0  0  0  0
 31 35  1  0  0  0  0
 32 36  2  0  0  0  0
 34 37  2  0  0  0  0
 34 38  1  0  0  0  0
 38 39  1  0  0  0  0
 38 40  1  0  0  0  0
 39 41  1  0  0  0  0
 39 42  1  0  0  0  0
 40 43  1  0  0  0  0
 43 44  1  0  0  0  0
 43 45  2  0  0  0  0
 44 46  1  0  0  0  0
 45 47  1  0  0  0  0
  4  6  1  0  0  0  0
 20 23  1  0  0  0  0
 33 36  1  0  0  0  0
 41 42  1  0  0  0  0
 46 47  2  0  0  0  0
M  END
>  <MolRegNo>
1618146

>  <m>
=

>  <Value>
120

>  <Unit>
nM

>  <Type>
IC50

>  <pValue>
6.92

>  <Ligand Efficiency>
0

>  <Binding Efficiency>
0

>  <Surface Efficiency>
0

>  <Assay Index>
821142

>  <Assay Category>


>  <Assay Organism>
Homo sapiens

>  <Target ID>
17045

>  <Target Name>
Cytochrome P450 3A4

>  <Target Organism>
Homo sapiens

>  <Target Description>
Target is a single protein chain

>  <Sequence Accession>
P08684

>  <Reference>
Bioorg Med Chem Lett 24 (3), 995-999 (2014)

>  <Pubmed ID>
24412072

>  <DOI>
10.1016/j.bmcl.2013.12.057

$$$$
1618145
Actelion Java MolfileCreator 1.0

 45 48  0  0  0  0  0  0  0  0999 V2000
    0.0000   -0.0000   -0.0000 S   0  0  0  0  0  0  0  0  0  0  0  0
   -1.4278   -0.4720   -0.0000 C   0  0  0  0  0  0  0  0  0  0  0  0
    0.8850   -1.1918   -0.0000 C   0  0  0  0  0  0  0  0  0  0  0  0
   -1.4278   -1.9470   -0.0000 C   0  0  0  0  0  0  0  0  0  0  0  0
   -2.7376    0.2832   -0.0000 C   0  0  0  0  0  0  0  0  0  0  0  0
    0.0000   -2.3954   -0.0000 N   0  0  0  0  0  0  0  0  0  0  0  0
   -4.0473   -0.4484   -0.0000 O   0  0  0  0  0  0  0  0  0  0  0  0
   -5.3571    0.3068   -0.0000 C   0  0  0  0  0  0  0  0  0  0  0  0
   -5.3689    1.8172   -0.0000 O   0  0  0  0  0  0  0  0  0  0  0  0
   -6.6669   -0.4248   -0.0000 N   0  0  0  0  0  0  0  0  0  0  0  0
   -7.9767    0.3304   -0.0000 C   0  0  0  0  0  0  0  0  0  0  0  0
   -7.9885    1.8408   -0.0000 C   0  0  0  0  0  0  0  0  0  0  0  0
   -9.2865   -0.4012   -0.0000 C   0  0  0  0  0  0  0  0  0  0  0  0
   -9.2983    2.5960   -0.0000 C   0  0  0  0  0  0  0  0  0  0  0  0
  -10.5963    0.3540   -0.0000 C   0  0  0  0  0  0  0  0  0  0  0  0
   -9.3101    4.1063   -0.0000 C   0  0  0  0  0  0  0  0  0  0  0  0
  -10.5963    1.8644   -0.0000 C   0  0  0  0  0  0  0  0  0  0  0  0
  -11.9061   -0.3776   -0.0000 C   0  0  0  0  0  0  0  0  0  0  0  0
  -10.6199    4.8615   -0.0000 C   0  0  0  0  0  0  0  0  0  0  0  0
  -11.9061    2.6196   -0.0000 C   0  0  0  0  0  0  0  0  0  0  0  0
  -13.2158    0.3776   -0.0000 N   0  0  0  0  0  0  0  0  0  0  0  0
  -11.9179   -1.8644   -0.0000 C   0  0  0  0  0  0  0  0  0  0  0  0
  -11.9297    4.1299   -0.0000 C   0  0  0  0  0  0  0  0  0  0  0  0
  -14.5256   -0.3540   -0.0000 C   0  0  0  0  0  0  0  0  0  0  0  0
  -10.6317   -2.5960   -0.0000 C   0  0  0  0  0  0  0  0  0  0  0  0
  -14.5374   -1.8408   -0.0000 O   0  0  0  0  0  0  0  0  0  0  0  0
  -15.8354    0.4012   -0.0000 C   0  0  0  0  0  0  0  0  0  0  0  0
  -10.6553   -4.0827   -0.0000 C   0  0  0  0  0  0  0  0  0  0  0  0
   -9.3573   -1.8408   -0.0000 C   0  0  0  0  0  0  0  0  0  0  0  0
  -17.1452   -0.3304   -0.0000 N   0  0  0  0  0  0  0  0  0  0  0  0
  -15.8472    1.9116   -0.0000 C   0  0  0  0  0  0  0  0  0  0  0  0
   -9.3691   -4.8143   -0.0000 C   0  0  0  0  0  0  0  0  0  0  0  0
   -8.0711   -2.5724   -0.0000 C   0  0  0  0  0  0  0  0  0  0  0  0
  -18.4550    0.4248   -0.0000 C   0  0  0  0  0  0  0  0  0  0  0  0
  -14.5610    2.6668   -0.0000 O   0  0  0  0  0  0  0  0  0  0  0  0
   -8.0829   -4.0591   -0.0000 C   0  0  0  0  0  0  0  0  0  0  0  0
  -18.4668    1.9352   -0.0000 O   0  0  0  0  0  0  0  0  0  0  0  0
  -19.7648   -0.3068   -0.0000 N   0  0  0  0  0  0  0  0  0  0  0  0
  -21.0745    0.4484   -0.0000 C   0  0  0  0  0  0  0  0  0  0  0  0
  -19.7766   -1.7936   -0.0000 C   0  0  0  0  0  0  0  0  0  0  0  0
  -22.3843   -0.2832   -0.0000 C   0  0  0  0  0  0  0  0  0  0  0  0
  -23.8121    0.2360   -0.0000 S   0  0  0  0  0  0  0  0  0  0  0  0
  -22.4433   -1.7700   -0.0000 C   0  0  0  0  0  0  0  0  0  0  0  0
  -24.7443   -0.9322   -0.0000 C   0  0  0  0  0  0  0  0  0  0  0  0
  -23.8947   -2.1830   -0.0000 N   0  0  0  0  0  0  0  0  0  0  0  0
  1  2  1  0  0  0  0
  1  3  1  0  0  0  0
  2  4  2  0  0  0  0
  2  5  1  0  0  0  0
  3  6  2  0  0  0  0
  5  7  1  0  0  0  0
  7  8  1  0  0  0  0
  8  9  2  0  0  0  0
  8 10  1  0  0  0  0
 11 10  1  6  0  0  0
 11 12  1  0  0  0  0
 11 13  1  0  0  0  0
 12 14  1  0  0  0  0
 13 15  1  0  0  0  0
 14 16  2  0  0  0  0
 14 17  1  0  0  0  0
 15 18  1  0  0  0  0
 16 19  1  0  0  0  0
 17 20  2  0  0  0  0
 18 21  1  6  0  0  0
 18 22  1  0  0  0  0
 19 23  2  0  0  0  0
 21 24  1  0  0  0  0
 22 25  1  0  0  0  0
 24 26  2  0  0  0  0
 24 27  1  0  0  0  0
 25 28  2  0  0  0  0
 25 29  1  0  0  0  0
 27 30  1  1  0  0  0
 27 31  1  0  0  0  0
 28 32  1  0  0  0  0
 29 33  2  0  0  0  0
 30 34  1  0  0  0  0
 31 35  1  0  0  0  0
 32 36  2  0  0  0  0
 34 37  2  0  0  0  0
 34 38  1  0  0  0  0
 38 39  1  0  0  0  0
 38 40  1  0  0  0  0
 39 41  1  0  0  0  0
 41 42  1  0  0  0  0
 41 43  2  0  0  0  0
 42 44  1  0  0  0  0
 43 45  1  0  0  0  0
  4  6  1  0  0  0  0
 20 23  1  0  0  0  0
 33 36  1  0  0  0  0
 44 45  2  0  0  0  0
M  END
>  <MolRegNo>
1618145

>  <m>
=

>  <Value>
170

>  <Unit>
nM

>  <Type>
IC50

>  <pValue>
6.77

>  <Ligand Efficiency>
0

>  <Binding Efficiency>
0

>  <Surface Efficiency>
0

>  <Assay Index>
821142

>  <Assay Category>


>  <Assay Organism>
Homo sapiens

>  <Target ID>
17045

>  <Target Name>
Cytochrome P450 3A4

>  <Target Organism>
Homo sapiens

>  <Target Description>
Target is a single protein chain

>  <Sequence Accession>
P08684

>  <Reference>
Bioorg Med Chem Lett 24 (3), 995-999 (2014)

>  <Pubmed ID>
24412072

>  <DOI>
10.1016/j.bmcl.2013.12.057

$$$$
1618144
Actelion Java MolfileCreator 1.0

 50 54  0  0  0  0  0  0  0  0999 V2000
    0.0000   -0.0000   -0.0000 S   0  0  0  0  0  0  0  0  0  0  0  0
   -1.4281   -0.4721   -0.0000 C   0  0  0  0  0  0  0  0  0  0  0  0
    0.8734   -1.1921   -0.0000 C   0  0  0  0  0  0  0  0  0  0  0  0
   -1.4281   -1.9475   -0.0000 C   0  0  0  0  0  0  0  0  0  0  0  0
   -2.7382    0.2833   -0.0000 C   0  0  0  0  0  0  0  0  0  0  0  0
   -0.0118   -2.3960   -0.0000 N   0  0  0  0  0  0  0  0  0  0  0  0
   -4.0483   -0.4485   -0.0000 O   0  0  0  0  0  0  0  0  0  0  0  0
   -5.3584    0.3069   -0.0000 C   0  0  0  0  0  0  0  0  0  0  0  0
   -5.3702    1.8176   -0.0000 O   0  0  0  0  0  0  0  0  0  0  0  0
   -6.6686   -0.4249   -0.0000 N   0  0  0  0  0  0  0  0  0  0  0  0
   -7.9787    0.3305   -0.0000 C   0  0  0  0  0  0  0  0  0  0  0  0
   -7.9905    1.8412   -0.0000 C   0  0  0  0  0  0  0  0  0  0  0  0
   -9.2888   -0.4013   -0.0000 C   0  0  0  0  0  0  0  0  0  0  0  0
   -9.3006    2.5966   -0.0000 C   0  0  0  0  0  0  0  0  0  0  0  0
  -10.5989    0.3541   -0.0000 C   0  0  0  0  0  0  0  0  0  0  0  0
   -9.3124    4.1074   -0.0000 C   0  0  0  0  0  0  0  0  0  0  0  0
  -10.5989    1.8648   -0.0000 C   0  0  0  0  0  0  0  0  0  0  0  0
  -11.9090   -0.3777   -0.0000 C   0  0  0  0  0  0  0  0  0  0  0  0
  -10.6225    4.8627   -0.0000 C   0  0  0  0  0  0  0  0  0  0  0  0
  -11.9090    2.6202   -0.0000 C   0  0  0  0  0  0  0  0  0  0  0  0
  -13.2191    0.3777   -0.0000 N   0  0  0  0  0  0  0  0  0  0  0  0
  -11.9208   -1.8648   -0.0000 C   0  0  0  0  0  0  0  0  0  0  0  0
  -11.9326    4.1310   -0.0000 C   0  0  0  0  0  0  0  0  0  0  0  0
  -14.5292   -0.3541   -0.0000 C   0  0  0  0  0  0  0  0  0  0  0  0
  -10.6343   -2.5966   -0.0000 C   0  0  0  0  0  0  0  0  0  0  0  0
  -14.5410   -1.8412   -0.0000 O   0  0  0  0  0  0  0  0  0  0  0  0
  -15.8393    0.4013   -0.0000 C   0  0  0  0  0  0  0  0  0  0  0  0
  -10.6579   -4.0837   -0.0000 C   0  0  0  0  0  0  0  0  0  0  0  0
   -9.3596   -1.8412   -0.0000 C   0  0  0  0  0  0  0  0  0  0  0  0
  -17.1494   -0.3305   -0.0000 N   0  0  0  0  0  0  0  0  0  0  0  0
  -15.8511    1.9120   -0.0000 C   0  0  0  0  0  0  0  0  0  0  0  0
   -9.3714   -4.8155   -0.0000 C   0  0  0  0  0  0  0  0  0  0  0  0
   -8.0731   -2.5730   -0.0000 C   0  0  0  0  0  0  0  0  0  0  0  0
  -18.4595    0.4249   -0.0000 C   0  0  0  0  0  0  0  0  0  0  0  0
  -14.5646    2.6674   -0.0000 O   0  0  0  0  0  0  0  0  0  0  0  0
   -8.0849   -4.0601   -0.0000 C   0  0  0  0  0  0  0  0  0  0  0  0
  -18.4713    1.9356   -0.0000 O   0  0  0  0  0  0  0  0  0  0  0  0
  -19.7696   -0.3069   -0.0000 N   0  0  0  0  0  0  0  0  0  0  0  0
  -19.7814   -1.7940   -0.0000 C   0  0  0  0  0  0  0  0  0  0  0  0
  -21.0797    0.4485   -0.0000 C   0  0  0  0  0  0  0  0  0  0  0  0
  -20.5368   -3.0805   -0.0000 C   0  0  0  0  0  0  0  0  0  0  0  0
  -19.0378   -3.0805   -0.0000 C   0  0  0  0  0  0  0  0  0  0  0  0
  -22.3898   -0.2833   -0.0000 C   0  0  0  0  0  0  0  0  0  0  0  0
  -23.8179    0.2361   -0.0000 N   0  0  0  0  0  0  0  0  0  0  0  0
  -22.4488   -1.7704   -0.0000 C   0  0  0  0  0  0  0  0  0  0  0  0
  -24.7504   -0.9324   -0.0000 C   0  0  0  0  0  0  0  0  0  0  0  0
  -23.9006   -2.1835   -0.0000 S   0  0  0  0  0  0  0  0  0  0  0  0
  -26.2611   -0.8734   -0.0000 C   0  0  0  0  0  0  0  0  0  0  0  0
  -26.9811    0.4603   -0.0000 C   0  0  0  0  0  0  0  0  0  0  0  0
  -27.0637   -2.1363   -0.0000 C   0  0  0  0  0  0  0  0  0  0  0  0
  1  2  1  0  0  0  0
  1  3  1  0  0  0  0
  2  4  2  0  0  0  0
  2  5  1  0  0  0  0
  3  6  2  0  0  0  0
  5  7  1  0  0  0  0
  7  8  1  0  0  0  0
  8  9  2  0  0  0  0
  8 10  1  0  0  0  0
 11 10  1  6  0  0  0
 11 12  1  0  0  0  0
 11 13  1  0  0  0  0
 12 14  1  0  0  0  0
 13 15  1  0  0  0  0
 14 16  2  0  0  0  0
 14 17  1  0  0  0  0
 15 18  1  0  0  0  0
 16 19  1  0  0  0  0
 17 20  2  0  0  0  0
 18 21  1  6  0  0  0
 18 22  1  0  0  0  0
 19 23  2  0  0  0  0
 21 24  1  0  0  0  0
 22 25  1  0  0  0  0
 24 26  2  0  0  0  0
 24 27  1  0  0  0  0
 25 28  2  0  0  0  0
 25 29  1  0  0  0  0
 27 30  1  1  0  0  0
 27 31  1  0  0  0  0
 28 32  1  0  0  0  0
 29 33  2  0  0  0  0
 30 34  1  0  0  0  0
 31 35  1  0  0  0  0
 32 36  2  0  0  0  0
 34 37  2  0  0  0  0
 34 38  1  0  0  0  0
 38 39  1  0  0  0  0
 38 40  1  0  0  0  0
 39 41  1  0  0  0  0
 39 42  1  0  0  0  0
 40 43  1  0  0  0  0
 43 44  1  0  0  0  0
 43 45  2  0  0  0  0
 44 46  2  0  0  0  0
 45 47  1  0  0  0  0
 46 48  1  0  0  0  0
 48 49  1  0  0  0  0
 48 50  1  0  0  0  0
  4  6  1  0  0  0  0
 20 23  1  0  0  0  0
 33 36  1  0  0  0  0
 41 42  1  0  0  0  0
 46 47  1  0  0  0  0
M  END
>  <MolRegNo>
1618144

>  <m>
=

>  <Value>
110

>  <Unit>
nM

>  <Type>
IC50

>  <pValue>
6.96

>  <Ligand Efficiency>
0

>  <Binding Efficiency>
0

>  <Surface Efficiency>
0

>  <Assay Index>
821142

>  <Assay Category>


>  <Assay Organism>
Homo sapiens

>  <Target ID>
17045

>  <Target Name>
Cytochrome P450 3A4

>  <Target Organism>
Homo sapiens

>  <Target Description>
Target is a single protein chain

>  <Sequence Accession>
P08684

>  <Reference>
Bioorg Med Chem Lett 24 (3), 995-999 (2014)

>  <Pubmed ID>
24412072

>  <DOI>
10.1016/j.bmcl.2013.12.057

$$$$
1618143
Actelion Java MolfileCreator 1.0

 48 51  0  0  0  0  0  0  0  0999 V2000
    0.0000   -0.0000   -0.0000 S   0  0  0  0  0  0  0  0  0  0  0  0
   -1.4274   -0.4719   -0.0000 C   0  0  0  0  0  0  0  0  0  0  0  0
    0.8847   -1.1914   -0.0000 C   0  0  0  0  0  0  0  0  0  0  0  0
   -1.4274   -1.9464   -0.0000 C   0  0  0  0  0  0  0  0  0  0  0  0
   -2.7368    0.2831   -0.0000 C   0  0  0  0  0  0  0  0  0  0  0  0
    0.0000   -2.3947   -0.0000 N   0  0  0  0  0  0  0  0  0  0  0  0
   -4.0461   -0.4483   -0.0000 O   0  0  0  0  0  0  0  0  0  0  0  0
   -5.3555    0.3067   -0.0000 C   0  0  0  0  0  0  0  0  0  0  0  0
   -5.3673    1.8166   -0.0000 O   0  0  0  0  0  0  0  0  0  0  0  0
   -6.6649   -0.4247   -0.0000 N   0  0  0  0  0  0  0  0  0  0  0  0
   -7.9743    0.3303   -0.0000 C   0  0  0  0  0  0  0  0  0  0  0  0
   -7.9861    1.8402   -0.0000 C   0  0  0  0  0  0  0  0  0  0  0  0
   -9.2837   -0.4011   -0.0000 C   0  0  0  0  0  0  0  0  0  0  0  0
   -9.2955    2.5952   -0.0000 C   0  0  0  0  0  0  0  0  0  0  0  0
  -10.5931    0.3539   -0.0000 C   0  0  0  0  0  0  0  0  0  0  0  0
   -9.3073    4.1051   -0.0000 C   0  0  0  0  0  0  0  0  0  0  0  0
  -10.5931    1.8638   -0.0000 C   0  0  0  0  0  0  0  0  0  0  0  0
  -11.9025   -0.3775   -0.0000 C   0  0  0  0  0  0  0  0  0  0  0  0
  -10.6167    4.8601   -0.0000 C   0  0  0  0  0  0  0  0  0  0  0  0
  -11.9025    2.6188   -0.0000 C   0  0  0  0  0  0  0  0  0  0  0  0
  -13.2119    0.3775   -0.0000 N   0  0  0  0  0  0  0  0  0  0  0  0
  -11.9143   -1.8638   -0.0000 C   0  0  0  0  0  0  0  0  0  0  0  0
  -11.9261    4.1287   -0.0000 C   0  0  0  0  0  0  0  0  0  0  0  0
  -14.5213   -0.3539   -0.0000 C   0  0  0  0  0  0  0  0  0  0  0  0
  -10.6285   -2.5952   -0.0000 C   0  0  0  0  0  0  0  0  0  0  0  0
  -14.5331   -1.8402   -0.0000 O   0  0  0  0  0  0  0  0  0  0  0  0
  -15.8307    0.4011   -0.0000 C   0  0  0  0  0  0  0  0  0  0  0  0
  -10.6521   -4.0815   -0.0000 C   0  0  0  0  0  0  0  0  0  0  0  0
   -9.3545   -1.8402   -0.0000 C   0  0  0  0  0  0  0  0  0  0  0  0
  -17.1401   -0.3303   -0.0000 N   0  0  0  0  0  0  0  0  0  0  0  0
  -15.8425    1.9110   -0.0000 C   0  0  0  0  0  0  0  0  0  0  0  0
   -9.3663   -4.8129   -0.0000 C   0  0  0  0  0  0  0  0  0  0  0  0
   -8.0687   -2.5716   -0.0000 C   0  0  0  0  0  0  0  0  0  0  0  0
  -18.4495    0.4247   -0.0000 C   0  0  0  0  0  0  0  0  0  0  0  0
  -14.5567    2.6660   -0.0000 O   0  0  0  0  0  0  0  0  0  0  0  0
   -8.0805   -4.0579   -0.0000 C   0  0  0  0  0  0  0  0  0  0  0  0
  -18.4613    1.9346   -0.0000 O   0  0  0  0  0  0  0  0  0  0  0  0
  -19.7589   -0.3067   -0.0000 N   0  0  0  0  0  0  0  0  0  0  0  0
  -21.0683    0.4483   -0.0000 C   0  0  0  0  0  0  0  0  0  0  0  0
  -19.7707   -1.7930   -0.0000 C   0  0  0  0  0  0  0  0  0  0  0  0
  -22.3777   -0.2831   -0.0000 C   0  0  0  0  0  0  0  0  0  0  0  0
  -23.8050    0.2359   -0.0000 N   0  0  0  0  0  0  0  0  0  0  0  0
  -22.4366   -1.7695   -0.0000 C   0  0  0  0  0  0  0  0  0  0  0  0
  -24.7369   -0.9319   -0.0000 C   0  0  0  0  0  0  0  0  0  0  0  0
  -23.8876   -2.1823   -0.0000 S   0  0  0  0  0  0  0  0  0  0  0  0
  -26.2469   -0.8729   -0.0000 C   0  0  0  0  0  0  0  0  0  0  0  0
  -26.9664    0.4601   -0.0000 C   0  0  0  0  0  0  0  0  0  0  0  0
  -27.0490   -2.1351   -0.0000 C   0  0  0  0  0  0  0  0  0  0  0  0
  1  2  1  0  0  0  0
  1  3  1  0  0  0  0
  2  4  2  0  0  0  0
  2  5  1  0  0  0  0
  3  6  2  0  0  0  0
  5  7  1  0  0  0  0
  7  8  1  0  0  0  0
  8  9  2  0  0  0  0
  8 10  1  0  0  0  0
 11 10  1  6  0  0  0
 11 12  1  0  0  0  0
 11 13  1  0  0  0  0
 12 14  1  0  0  0  0
 13 15  1  0  0  0  0
 14 16  2  0  0  0  0
 14 17  1  0  0  0  0
 15 18  1  0  0  0  0
 16 19  1  0  0  0  0
 17 20  2  0  0  0  0
 18 21  1  6  0  0  0
 18 22  1  0  0  0  0
 19 23  2  0  0  0  0
 21 24  1  0  0  0  0
 22 25  1  0  0  0  0
 24 26  2  0  0  0  0
 24 27  1  0  0  0  0
 25 28  2  0  0  0  0
 25 29  1  0  0  0  0
 27 30  1  1  0  0  0
 27 31  1  0  0  0  0
 28 32  1  0  0  0  0
 29 33  2  0  0  0  0
 30 34  1  0  0  0  0
 31 35  1  0  0  0  0
 32 36  2  0  0  0  0
 34 37  2  0  0  0  0
 34 38  1  0  0  0  0
 38 39  1  0  0  0  0
 38 40  1  0  0  0  0
 39 41  1  0  0  0  0
 41 42  1  0  0  0  0
 41 43  2  0  0  0  0
 42 44  2  0  0  0  0
 43 45  1  0  0  0  0
 44 46  1  0  0  0  0
 46 47  1  0  0  0  0
 46 48  1  0  0  0  0
  4  6  1  0  0  0  0
 20 23  1  0  0  0  0
 33 36  1  0  0  0  0
 44 45  1  0  0  0  0
M  END
>  <MolRegNo>
1618143

>  <m>
=

>  <Value>
150

>  <Unit>
nM

>  <Type>
IC50

>  <pValue>
6.82

>  <Ligand Efficiency>
0

>  <Binding Efficiency>
0

>  <Surface Efficiency>
0

>  <Assay Index>
821142

>  <Assay Category>


>  <Assay Organism>
Homo sapiens

>  <Target ID>
17045

>  <Target Name>
Cytochrome P450 3A4

>  <Target Organism>
Homo sapiens

>  <Target Description>
Target is a single protein chain

>  <Sequence Accession>
P08684

>  <Reference>
Bioorg Med Chem Lett 24 (3), 995-999 (2014)

>  <Pubmed ID>
24412072

>  <DOI>
10.1016/j.bmcl.2013.12.057

$$$$
1618142
Actelion Java MolfileCreator 1.0

 44 47  0  0  0  0  0  0  0  0999 V2000
    0.0000   -0.0000   -0.0000 S   0  0  0  0  0  0  0  0  0  0  0  0
   -1.4302   -0.4728   -0.0000 C   0  0  0  0  0  0  0  0  0  0  0  0
    0.8747   -1.1938   -0.0000 C   0  0  0  0  0  0  0  0  0  0  0  0
   -1.4302   -1.9503   -0.0000 C   0  0  0  0  0  0  0  0  0  0  0  0
   -2.7422    0.2837   -0.0000 C   0  0  0  0  0  0  0  0  0  0  0  0
   -0.0118   -2.3994   -0.0000 N   0  0  0  0  0  0  0  0  0  0  0  0
   -4.0542   -0.4492   -0.0000 O   0  0  0  0  0  0  0  0  0  0  0  0
   -5.3662    0.3073   -0.0000 C   0  0  0  0  0  0  0  0  0  0  0  0
   -5.3780    1.8203   -0.0000 O   0  0  0  0  0  0  0  0  0  0  0  0
   -6.6782   -0.4255   -0.0000 N   0  0  0  0  0  0  0  0  0  0  0  0
   -7.9902    0.3310   -0.0000 C   0  0  0  0  0  0  0  0  0  0  0  0
   -8.0020    1.8439   -0.0000 C   0  0  0  0  0  0  0  0  0  0  0  0
   -9.3022   -0.4019   -0.0000 C   0  0  0  0  0  0  0  0  0  0  0  0
   -9.3140    2.6004   -0.0000 C   0  0  0  0  0  0  0  0  0  0  0  0
  -10.6142    0.3546   -0.0000 C   0  0  0  0  0  0  0  0  0  0  0  0
   -9.3258    4.1133   -0.0000 C   0  0  0  0  0  0  0  0  0  0  0  0
  -10.6142    1.8675   -0.0000 C   0  0  0  0  0  0  0  0  0  0  0  0
  -11.9262   -0.3782   -0.0000 C   0  0  0  0  0  0  0  0  0  0  0  0
  -10.6378    4.8698   -0.0000 C   0  0  0  0  0  0  0  0  0  0  0  0
  -11.9262    2.6240   -0.0000 C   0  0  0  0  0  0  0  0  0  0  0  0
  -13.2382    0.3782   -0.0000 N   0  0  0  0  0  0  0  0  0  0  0  0
  -11.9380   -1.8675   -0.0000 C   0  0  0  0  0  0  0  0  0  0  0  0
  -11.9498    4.1369   -0.0000 C   0  0  0  0  0  0  0  0  0  0  0  0
  -14.5502   -0.3546   -0.0000 C   0  0  0  0  0  0  0  0  0  0  0  0
  -10.6497   -2.6004   -0.0000 C   0  0  0  0  0  0  0  0  0  0  0  0
  -14.5620   -1.8439   -0.0000 O   0  0  0  0  0  0  0  0  0  0  0  0
  -15.8622    0.4019   -0.0000 C   0  0  0  0  0  0  0  0  0  0  0  0
  -10.6733   -4.0897   -0.0000 C   0  0  0  0  0  0  0  0  0  0  0  0
   -9.3731   -1.8439   -0.0000 C   0  0  0  0  0  0  0  0  0  0  0  0
  -17.1742   -0.3310   -0.0000 C   0  0  0  0  0  0  0  0  0  0  0  0
   -9.3849   -4.8225   -0.0000 C   0  0  0  0  0  0  0  0  0  0  0  0
   -8.0848   -2.5767   -0.0000 C   0  0  0  0  0  0  0  0  0  0  0  0
  -18.4744    0.4373   -0.0000 N   0  0  0  0  0  0  0  0  0  0  0  0
   -8.0966   -4.0660   -0.0000 C   0  0  0  0  0  0  0  0  0  0  0  0
  -19.7982   -0.2837   -0.0000 C   0  0  0  0  0  0  0  0  0  0  0  0
  -21.0984    0.4964   -0.0000 O   0  0  0  0  0  0  0  0  0  0  0  0
  -19.8337   -1.7730   -0.0000 N   0  0  0  0  0  0  0  0  0  0  0  0
  -21.1575   -2.4940   -0.0000 C   0  0  0  0  0  0  0  0  0  0  0  0
  -18.5571   -2.5294   -0.0000 C   0  0  0  0  0  0  0  0  0  0  0  0
  -21.1929   -3.9833   -0.0000 C   0  0  0  0  0  0  0  0  0  0  0  0
  -22.3749   -4.9289   -0.0000 S   0  0  0  0  0  0  0  0  0  0  0  0
  -19.9518   -4.7870   -0.0000 C   0  0  0  0  0  0  0  0  0  0  0  0
  -21.8430   -6.3118   -0.0000 C   0  0  0  0  0  0  0  0  0  0  0  0
  -20.3419   -6.2290   -0.0000 N   0  0  0  0  0  0  0  0  0  0  0  0
  1  2  1  0  0  0  0
  1  3  1  0  0  0  0
  2  4  2  0  0  0  0
  2  5  1  0  0  0  0
  3  6  2  0  0  0  0
  5  7  1  0  0  0  0
  7  8  1  0  0  0  0
  8  9  2  0  0  0  0
  8 10  1  0  0  0  0
 11 10  1  1  0  0  0
 11 12  1  0  0  0  0
 11 13  1  0  0  0  0
 12 14  1  0  0  0  0
 13 15  1  0  0  0  0
 14 16  2  0  0  0  0
 14 17  1  0  0  0  0
 15 18  1  0  0  0  0
 16 19  1  0  0  0  0
 17 20  2  0  0  0  0
 18 21  1  1  0  0  0
 18 22  1  0  0  0  0
 19 23  2  0  0  0  0
 21 24  1  0  0  0  0
 22 25  1  0  0  0  0
 24 26  2  0  0  0  0
 24 27  1  0  0  0  0
 25 28  2  0  0  0  0
 25 29  1  0  0  0  0
 27 30  1  0  0  0  0
 28 31  1  0  0  0  0
 29 32  2  0  0  0  0
 30 33  1  0  0  0  0
 31 34  2  0  0  0  0
 33 35  1  0  0  0  0
 35 36  2  0  0  0  0
 35 37  1  0  0  0  0
 37 38  1  0  0  0  0
 37 39  1  0  0  0  0
 38 40  1  0  0  0  0
 40 41  1  0  0  0  0
 40 42  2  0  0  0  0
 41 43  1  0  0  0  0
 42 44  1  0  0  0  0
  4  6  1  0  0  0  0
 20 23  1  0  0  0  0
 32 34  1  0  0  0  0
 43 44  2  0  0  0  0
M  END
>  <MolRegNo>
1618142

>  <m>
=

>  <Value>
130

>  <Unit>
nM

>  <Type>
IC50

>  <pValue>
6.89

>  <Ligand Efficiency>
0

>  <Binding Efficiency>
0

>  <Surface Efficiency>
0

>  <Assay Index>
821142

>  <Assay Category>


>  <Assay Organism>
Homo sapiens

>  <Target ID>
17045

>  <Target Name>
Cytochrome P450 3A4

>  <Target Organism>
Homo sapiens

>  <Target Description>
Target is a single protein chain

>  <Sequence Accession>
P08684

>  <Reference>
Bioorg Med Chem Lett 24 (3), 995-999 (2014)

>  <Pubmed ID>
24412072

>  <DOI>
10.1016/j.bmcl.2013.12.057

$$$$
1618141
Actelion Java MolfileCreator 1.0

 46 49  0  0  0  0  0  0  0  0999 V2000
    0.0000   -0.0000   -0.0000 S   0  0  0  0  0  0  0  0  0  0  0  0
   -1.4279   -0.4720   -0.0000 C   0  0  0  0  0  0  0  0  0  0  0  0
    0.8733   -1.1919   -0.0000 C   0  0  0  0  0  0  0  0  0  0  0  0
   -1.4279   -1.9471   -0.0000 C   0  0  0  0  0  0  0  0  0  0  0  0
   -2.7378    0.2832   -0.0000 C   0  0  0  0  0  0  0  0  0  0  0  0
   -0.0118   -2.3956   -0.0000 N   0  0  0  0  0  0  0  0  0  0  0  0
   -4.0477   -0.4484   -0.0000 O   0  0  0  0  0  0  0  0  0  0  0  0
   -5.3576    0.3068   -0.0000 C   0  0  0  0  0  0  0  0  0  0  0  0
   -5.3694    1.8173   -0.0000 O   0  0  0  0  0  0  0  0  0  0  0  0
   -6.6675   -0.4248   -0.0000 N   0  0  0  0  0  0  0  0  0  0  0  0
   -7.9774    0.3304   -0.0000 C   0  0  0  0  0  0  0  0  0  0  0  0
   -7.9892    1.8409   -0.0000 C   0  0  0  0  0  0  0  0  0  0  0  0
   -9.2873   -0.4012   -0.0000 C   0  0  0  0  0  0  0  0  0  0  0  0
   -9.2991    2.5962   -0.0000 C   0  0  0  0  0  0  0  0  0  0  0  0
  -10.5972    0.3540   -0.0000 C   0  0  0  0  0  0  0  0  0  0  0  0
   -9.3109    4.1067   -0.0000 C   0  0  0  0  0  0  0  0  0  0  0  0
  -10.5972    1.8645   -0.0000 C   0  0  0  0  0  0  0  0  0  0  0  0
  -11.9071   -0.3776   -0.0000 C   0  0  0  0  0  0  0  0  0  0  0  0
  -10.6208    4.8620   -0.0000 C   0  0  0  0  0  0  0  0  0  0  0  0
  -11.9071    2.6198   -0.0000 C   0  0  0  0  0  0  0  0  0  0  0  0
  -13.2170    0.3776   -0.0000 N   0  0  0  0  0  0  0  0  0  0  0  0
  -11.9189   -1.8645   -0.0000 C   0  0  0  0  0  0  0  0  0  0  0  0
  -11.9307    4.1303   -0.0000 C   0  0  0  0  0  0  0  0  0  0  0  0
  -14.5269   -0.3540   -0.0000 C   0  0  0  0  0  0  0  0  0  0  0  0
  -10.6326   -2.5962   -0.0000 C   0  0  0  0  0  0  0  0  0  0  0  0
  -14.5387   -1.8409   -0.0000 O   0  0  0  0  0  0  0  0  0  0  0  0
  -15.8368    0.4012   -0.0000 C   0  0  0  0  0  0  0  0  0  0  0  0
  -10.6562   -4.0831   -0.0000 C   0  0  0  0  0  0  0  0  0  0  0  0
   -9.3581   -1.8409   -0.0000 C   0  0  0  0  0  0  0  0  0  0  0  0
  -17.1467   -0.3304   -0.0000 N   0  0  0  0  0  0  0  0  0  0  0  0
  -15.8486    1.9117   -0.0000 C   0  0  0  0  0  0  0  0  0  0  0  0
   -9.3699   -4.8148   -0.0000 C   0  0  0  0  0  0  0  0  0  0  0  0
   -8.0718   -2.5726   -0.0000 C   0  0  0  0  0  0  0  0  0  0  0  0
  -18.4566    0.4248   -0.0000 C   0  0  0  0  0  0  0  0  0  0  0  0
  -14.5623    2.6670   -0.0000 C   0  0  0  0  0  0  0  0  0  0  0  0
  -17.1585    2.6670   -0.0000 C   0  0  0  0  0  0  0  0  0  0  0  0
   -8.0836   -4.0595   -0.0000 C   0  0  0  0  0  0  0  0  0  0  0  0
  -18.4684    1.9353   -0.0000 O   0  0  0  0  0  0  0  0  0  0  0  0
  -19.7665   -0.3068   -0.0000 N   0  0  0  0  0  0  0  0  0  0  0  0
  -21.0764    0.4484   -0.0000 C   0  0  0  0  0  0  0  0  0  0  0  0
  -19.7783   -1.7937   -0.0000 C   0  0  0  0  0  0  0  0  0  0  0  0
  -22.3863   -0.2832   -0.0000 C   0  0  0  0  0  0  0  0  0  0  0  0
  -23.8142    0.2360   -0.0000 S   0  0  0  0  0  0  0  0  0  0  0  0
  -22.4453   -1.7701   -0.0000 C   0  0  0  0  0  0  0  0  0  0  0  0
  -24.7464   -0.9323   -0.0000 C   0  0  0  0  0  0  0  0  0  0  0  0
  -23.8968   -2.1832   -0.0000 N   0  0  0  0  0  0  0  0  0  0  0  0
  1  2  1  0  0  0  0
  1  3  1  0  0  0  0
  2  4  2  0  0  0  0
  2  5  1  0  0  0  0
  3  6  2  0  0  0  0
  5  7  1  0  0  0  0
  7  8  1  0  0  0  0
  8  9  2  0  0  0  0
  8 10  1  0  0  0  0
 11 10  1  6  0  0  0
 11 12  1  0  0  0  0
 11 13  1  0  0  0  0
 12 14  1  0  0  0  0
 13 15  1  0  0  0  0
 14 16  2  0  0  0  0
 14 17  1  0  0  0  0
 15 18  1  0  0  0  0
 16 19  1  0  0  0  0
 17 20  2  0  0  0  0
 18 21  1  6  0  0  0
 18 22  1  0  0  0  0
 19 23  2  0  0  0  0
 21 24  1  0  0  0  0
 22 25  1  0  0  0  0
 24 26  2  0  0  0  0
 24 27  1  0  0  0  0
 25 28  2  0  0  0  0
 25 29  1  0  0  0  0
 27 30  1  1  0  0  0
 27 31  1  0  0  0  0
 28 32  1  0  0  0  0
 29 33  2  0  0  0  0
 30 34  1  0  0  0  0
 31 35  1  0  0  0  0
 31 36  1  0  0  0  0
 32 37  2  0  0  0  0
 34 38  2  0  0  0  0
 34 39  1  0  0  0  0
 39 40  1  0  0  0  0
 39 41  1  0  0  0  0
 40 42  1  0  0  0  0
 42 43  1  0  0  0  0
 42 44  2  0  0  0  0
 43 45  1  0  0  0  0
 44 46  1  0  0  0  0
  4  6  1  0  0  0  0
 20 23  1  0  0  0  0
 33 37  1  0  0  0  0
 45 46  2  0  0  0  0
M  END
>  <MolRegNo>
1618141

>  <m>
=

>  <Value>
80

>  <Unit>
nM

>  <Type>
IC50

>  <pValue>
7.1

>  <Ligand Efficiency>
0

>  <Binding Efficiency>
0

>  <Surface Efficiency>
0

>  <Assay Index>
821142

>  <Assay Category>


>  <Assay Organism>
Homo sapiens

>  <Target ID>
17045

>  <Target Name>
Cytochrome P450 3A4

>  <Target Organism>
Homo sapiens

>  <Target Description>
Target is a single protein chain

>  <Sequence Accession>
P08684

>  <Reference>
Bioorg Med Chem Lett 24 (3), 995-999 (2014)

>  <Pubmed ID>
24412072

>  <DOI>
10.1016/j.bmcl.2013.12.057

$$$$
1618139
Actelion Java MolfileCreator 1.0

 46 49  0  0  0  0  0  0  0  0999 V2000
    0.0000   -0.0000   -0.0000 S   0  0  0  0  0  0  0  0  0  0  0  0
   -1.4279   -0.4720   -0.0000 C   0  0  0  0  0  0  0  0  0  0  0  0
    0.8733   -1.1919   -0.0000 C   0  0  0  0  0  0  0  0  0  0  0  0
   -1.4279   -1.9471   -0.0000 C   0  0  0  0  0  0  0  0  0  0  0  0
   -2.7378    0.2832   -0.0000 C   0  0  0  0  0  0  0  0  0  0  0  0
   -0.0118   -2.3956   -0.0000 N   0  0  0  0  0  0  0  0  0  0  0  0
   -4.0477   -0.4484   -0.0000 O   0  0  0  0  0  0  0  0  0  0  0  0
   -5.3576    0.3068   -0.0000 C   0  0  0  0  0  0  0  0  0  0  0  0
   -5.3694    1.8173   -0.0000 O   0  0  0  0  0  0  0  0  0  0  0  0
   -6.6675   -0.4248   -0.0000 N   0  0  0  0  0  0  0  0  0  0  0  0
   -7.9774    0.3304   -0.0000 C   0  0  0  0  0  0  0  0  0  0  0  0
   -7.9892    1.8409   -0.0000 C   0  0  0  0  0  0  0  0  0  0  0  0
   -9.2873   -0.4012   -0.0000 C   0  0  0  0  0  0  0  0  0  0  0  0
   -9.2991    2.5962   -0.0000 C   0  0  0  0  0  0  0  0  0  0  0  0
  -10.5972    0.3540   -0.0000 C   0  0  0  0  0  0  0  0  0  0  0  0
   -9.3109    4.1067   -0.0000 C   0  0  0  0  0  0  0  0  0  0  0  0
  -10.5972    1.8645   -0.0000 C   0  0  0  0  0  0  0  0  0  0  0  0
  -11.9071   -0.3776   -0.0000 C   0  0  0  0  0  0  0  0  0  0  0  0
  -10.6208    4.8620   -0.0000 C   0  0  0  0  0  0  0  0  0  0  0  0
  -11.9071    2.6198   -0.0000 C   0  0  0  0  0  0  0  0  0  0  0  0
  -13.2170    0.3776   -0.0000 N   0  0  0  0  0  0  0  0  0  0  0  0
  -11.9189   -1.8645   -0.0000 C   0  0  0  0  0  0  0  0  0  0  0  0
  -11.9307    4.1303   -0.0000 C   0  0  0  0  0  0  0  0  0  0  0  0
  -14.5269   -0.3540   -0.0000 C   0  0  0  0  0  0  0  0  0  0  0  0
  -10.6326   -2.5962   -0.0000 C   0  0  0  0  0  0  0  0  0  0  0  0
  -14.5387   -1.8409   -0.0000 O   0  0  0  0  0  0  0  0  0  0  0  0
  -15.8368    0.4012   -0.0000 C   0  0  0  0  0  0  0  0  0  0  0  0
  -10.6562   -4.0831   -0.0000 C   0  0  0  0  0  0  0  0  0  0  0  0
   -9.3581   -1.8409   -0.0000 C   0  0  0  0  0  0  0  0  0  0  0  0
  -17.1467   -0.3304   -0.0000 N   0  0  0  0  0  0  0  0  0  0  0  0
  -15.8486    1.9117   -0.0000 C   0  0  0  0  0  0  0  0  0  0  0  0
   -9.3699   -4.8148   -0.0000 C   0  0  0  0  0  0  0  0  0  0  0  0
   -8.0718   -2.5726   -0.0000 C   0  0  0  0  0  0  0  0  0  0  0  0
  -18.4566    0.4248   -0.0000 C   0  0  0  0  0  0  0  0  0  0  0  0
  -14.5623    2.6670   -0.0000 C   0  0  0  0  0  0  0  0  0  0  0  0
  -17.1585    2.6670   -0.0000 C   0  0  0  0  0  0  0  0  0  0  0  0
   -8.0836   -4.0595   -0.0000 C   0  0  0  0  0  0  0  0  0  0  0  0
  -18.4684    1.9353   -0.0000 O   0  0  0  0  0  0  0  0  0  0  0  0
  -19.7665   -0.3068   -0.0000 N   0  0  0  0  0  0  0  0  0  0  0  0
  -21.0764    0.4484   -0.0000 C   0  0  0  0  0  0  0  0  0  0  0  0
  -19.7783   -1.7937   -0.0000 C   0  0  0  0  0  0  0  0  0  0  0  0
  -22.3863   -0.2832   -0.0000 C   0  0  0  0  0  0  0  0  0  0  0  0
  -23.8142    0.2360   -0.0000 N   0  0  0  0  0  0  0  0  0  0  0  0
  -22.4453   -1.7701   -0.0000 C   0  0  0  0  0  0  0  0  0  0  0  0
  -24.7464   -0.9323   -0.0000 C   0  0  0  0  0  0  0  0  0  0  0  0
  -23.8968   -2.1832   -0.0000 S   0  0  0  0  0  0  0  0  0  0  0  0
  1  2  1  0  0  0  0
  1  3  1  0  0  0  0
  2  4  2  0  0  0  0
  2  5  1  0  0  0  0
  3  6  2  0  0  0  0
  5  7  1  0  0  0  0
  7  8  1  0  0  0  0
  8  9  2  0  0  0  0
  8 10  1  0  0  0  0
 11 10  1  6  0  0  0
 11 12  1  0  0  0  0
 11 13  1  0  0  0  0
 12 14  1  0  0  0  0
 13 15  1  0  0  0  0
 14 16  2  0  0  0  0
 14 17  1  0  0  0  0
 15 18  1  0  0  0  0
 16 19  1  0  0  0  0
 17 20  2  0  0  0  0
 18 21  1  6  0  0  0
 18 22  1  0  0  0  0
 19 23  2  0  0  0  0
 21 24  1  0  0  0  0
 22 25  1  0  0  0  0
 24 26  2  0  0  0  0
 24 27  1  0  0  0  0
 25 28  2  0  0  0  0
 25 29  1  0  0  0  0
 27 30  1  1  0  0  0
 27 31  1  0  0  0  0
 28 32  1  0  0  0  0
 29 33  2  0  0  0  0
 30 34  1  0  0  0  0
 31 35  1  0  0  0  0
 31 36  1  0  0  0  0
 32 37  2  0  0  0  0
 34 38  2  0  0  0  0
 34 39  1  0  0  0  0
 39 40  1  0  0  0  0
 39 41  1  0  0  0  0
 40 42  1  0  0  0  0
 42 43  1  0  0  0  0
 42 44  2  0  0  0  0
 43 45  2  0  0  0  0
 44 46  1  0  0  0  0
  4  6  1  0  0  0  0
 20 23  1  0  0  0  0
 33 37  1  0  0  0  0
 45 46  1  0  0  0  0
M  END
>  <MolRegNo>
1618139

>  <m>
=

>  <Value>
140

>  <Unit>
nM

>  <Type>
IC50

>  <pValue>
6.85

>  <Ligand Efficiency>
0

>  <Binding Efficiency>
0

>  <Surface Efficiency>
0

>  <Assay Index>
821142

>  <Assay Category>


>  <Assay Organism>
Homo sapiens

>  <Target ID>
17045

>  <Target Name>
Cytochrome P450 3A4

>  <Target Organism>
Homo sapiens

>  <Target Description>
Target is a single protein chain

>  <Sequence Accession>
P08684

>  <Reference>
Bioorg Med Chem Lett 24 (3), 995-999 (2014)

>  <Pubmed ID>
24412072

>  <DOI>
10.1016/j.bmcl.2013.12.057

$$$$
1618138
Actelion Java MolfileCreator 1.0

 47 50  0  0  0  0  0  0  0  0999 V2000
    0.0000   -0.0000   -0.0000 S   0  0  0  0  0  0  0  0  0  0  0  0
   -1.4277   -0.4720   -0.0000 C   0  0  0  0  0  0  0  0  0  0  0  0
    0.8731   -1.1917   -0.0000 C   0  0  0  0  0  0  0  0  0  0  0  0
   -1.4277   -1.9468   -0.0000 C   0  0  0  0  0  0  0  0  0  0  0  0
   -2.7374    0.2832   -0.0000 C   0  0  0  0  0  0  0  0  0  0  0  0
   -0.0118   -2.3952   -0.0000 N   0  0  0  0  0  0  0  0  0  0  0  0
   -4.0471   -0.4484   -0.0000 O   0  0  0  0  0  0  0  0  0  0  0  0
   -5.3568    0.3068   -0.0000 C   0  0  0  0  0  0  0  0  0  0  0  0
   -5.3686    1.8171   -0.0000 O   0  0  0  0  0  0  0  0  0  0  0  0
   -6.6665   -0.4248   -0.0000 N   0  0  0  0  0  0  0  0  0  0  0  0
   -7.9762    0.3304   -0.0000 C   0  0  0  0  0  0  0  0  0  0  0  0
   -7.9879    1.8407   -0.0000 C   0  0  0  0  0  0  0  0  0  0  0  0
   -9.2858   -0.4012   -0.0000 C   0  0  0  0  0  0  0  0  0  0  0  0
   -9.2976    2.5958   -0.0000 C   0  0  0  0  0  0  0  0  0  0  0  0
  -10.5955    0.3540   -0.0000 C   0  0  0  0  0  0  0  0  0  0  0  0
   -9.3094    4.1061   -0.0000 C   0  0  0  0  0  0  0  0  0  0  0  0
  -10.5955    1.8642   -0.0000 C   0  0  0  0  0  0  0  0  0  0  0  0
  -11.9052   -0.3776   -0.0000 C   0  0  0  0  0  0  0  0  0  0  0  0
  -10.6191    4.8612   -0.0000 C   0  0  0  0  0  0  0  0  0  0  0  0
  -11.9052    2.6194   -0.0000 C   0  0  0  0  0  0  0  0  0  0  0  0
  -13.2149    0.3776   -0.0000 N   0  0  0  0  0  0  0  0  0  0  0  0
  -11.9170   -1.8642   -0.0000 C   0  0  0  0  0  0  0  0  0  0  0  0
  -11.9288    4.1297   -0.0000 C   0  0  0  0  0  0  0  0  0  0  0  0
  -14.5246   -0.3540   -0.0000 C   0  0  0  0  0  0  0  0  0  0  0  0
  -10.6309   -2.5958   -0.0000 C   0  0  0  0  0  0  0  0  0  0  0  0
  -14.5364   -1.8407   -0.0000 O   0  0  0  0  0  0  0  0  0  0  0  0
  -15.8343    0.4012   -0.0000 C   0  0  0  0  0  0  0  0  0  0  0  0
  -10.6545   -4.0825   -0.0000 C   0  0  0  0  0  0  0  0  0  0  0  0
   -9.3566   -1.8407   -0.0000 C   0  0  0  0  0  0  0  0  0  0  0  0
  -17.1440   -0.3304   -0.0000 N   0  0  0  0  0  0  0  0  0  0  0  0
  -15.8461    1.9114   -0.0000 C   0  0  0  0  0  0  0  0  0  0  0  0
   -9.3684   -4.8140   -0.0000 C   0  0  0  0  0  0  0  0  0  0  0  0
   -8.0705   -2.5722   -0.0000 C   0  0  0  0  0  0  0  0  0  0  0  0
  -18.4537    0.4248   -0.0000 C   0  0  0  0  0  0  0  0  0  0  0  0
  -14.5600    2.6666   -0.0000 C   0  0  0  0  0  0  0  0  0  0  0  0
  -17.1558    2.6666   -0.0000 C   0  0  0  0  0  0  0  0  0  0  0  0
   -8.0823   -4.0589   -0.0000 C   0  0  0  0  0  0  0  0  0  0  0  0
  -18.4655    1.9350   -0.0000 O   0  0  0  0  0  0  0  0  0  0  0  0
  -19.7634   -0.3068   -0.0000 N   0  0  0  0  0  0  0  0  0  0  0  0
  -21.0731    0.4484   -0.0000 C   0  0  0  0  0  0  0  0  0  0  0  0
  -19.7752   -1.7935   -0.0000 C   0  0  0  0  0  0  0  0  0  0  0  0
  -22.3828   -0.2832   -0.0000 C   0  0  0  0  0  0  0  0  0  0  0  0
  -23.8105    0.2360   -0.0000 N   0  0  0  0  0  0  0  0  0  0  0  0
  -22.4418   -1.7699   -0.0000 C   0  0  0  0  0  0  0  0  0  0  0  0
  -24.7426   -0.9321   -0.0000 C   0  0  0  0  0  0  0  0  0  0  0  0
  -23.8931   -2.1828   -0.0000 S   0  0  0  0  0  0  0  0  0  0  0  0
  -26.2529   -0.8731   -0.0000 C   0  0  0  0  0  0  0  0  0  0  0  0
  1  2  1  0  0  0  0
  1  3  1  0  0  0  0
  2  4  2  0  0  0  0
  2  5  1  0  0  0  0
  3  6  2  0  0  0  0
  5  7  1  0  0  0  0
  7  8  1  0  0  0  0
  8  9  2  0  0  0  0
  8 10  1  0  0  0  0
 11 10  1  6  0  0  0
 11 12  1  0  0  0  0
 11 13  1  0  0  0  0
 12 14  1  0  0  0  0
 13 15  1  0  0  0  0
 14 16  2  0  0  0  0
 14 17  1  0  0  0  0
 15 18  1  0  0  0  0
 16 19  1  0  0  0  0
 17 20  2  0  0  0  0
 18 21  1  6  0  0  0
 18 22  1  0  0  0  0
 19 23  2  0  0  0  0
 21 24  1  0  0  0  0
 22 25  1  0  0  0  0
 24 26  2  0  0  0  0
 24 27  1  0  0  0  0
 25 28  2  0  0  0  0
 25 29  1  0  0  0  0
 27 30  1  1  0  0  0
 27 31  1  0  0  0  0
 28 32  1  0  0  0  0
 29 33  2  0  0  0  0
 30 34  1  0  0  0  0
 31 35  1  0  0  0  0
 31 36  1  0  0  0  0
 32 37  2  0  0  0  0
 34 38  2  0  0  0  0
 34 39  1  0  0  0  0
 39 40  1  0  0  0  0
 39 41  1  0  0  0  0
 40 42  1  0  0  0  0
 42 43  1  0  0  0  0
 42 44  2  0  0  0  0
 43 45  2  0  0  0  0
 44 46  1  0  0  0  0
 45 47  1  0  0  0  0
  4  6  1  0  0  0  0
 20 23  1  0  0  0  0
 33 37  1  0  0  0  0
 45 46  1  0  0  0  0
M  END
>  <MolRegNo>
1618138

>  <m>
=

>  <Value>
100

>  <Unit>
nM

>  <Type>
IC50

>  <pValue>
7

>  <Ligand Efficiency>
0

>  <Binding Efficiency>
0

>  <Surface Efficiency>
0

>  <Assay Index>
821142

>  <Assay Category>


>  <Assay Organism>
Homo sapiens

>  <Target ID>
17045

>  <Target Name>
Cytochrome P450 3A4

>  <Target Organism>
Homo sapiens

>  <Target Description>
Target is a single protein chain

>  <Sequence Accession>
P08684

>  <Reference>
Bioorg Med Chem Lett 24 (3), 995-999 (2014)

>  <Pubmed ID>
24412072

>  <DOI>
10.1016/j.bmcl.2013.12.057

$$$$
1618137
Actelion Java MolfileCreator 1.0

 51 55  0  0  0  0  0  0  0  0999 V2000
    0.0000   -0.0000   -0.0000 S   0  0  0  0  0  0  0  0  0  0  0  0
   -1.4259   -0.4634   -0.0000 C   0  0  0  0  0  0  0  0  0  0  0  0
    0.8793   -1.1883   -0.0000 C   0  0  0  0  0  0  0  0  0  0  0  0
   -1.4259   -1.9369   -0.0000 C   0  0  0  0  0  0  0  0  0  0  0  0
   -2.7330    0.2971   -0.0000 C   0  0  0  0  0  0  0  0  0  0  0  0
    0.0000   -2.4003   -0.0000 N   0  0  0  0  0  0  0  0  0  0  0  0
   -4.0402   -0.4397   -0.0000 O   0  0  0  0  0  0  0  0  0  0  0  0
   -5.3473    0.3208   -0.0000 C   0  0  0  0  0  0  0  0  0  0  0  0
   -5.3591    1.8300   -0.0000 O   0  0  0  0  0  0  0  0  0  0  0  0
   -6.6544   -0.4159   -0.0000 N   0  0  0  0  0  0  0  0  0  0  0  0
   -7.9615    0.3446   -0.0000 C   0  0  0  0  0  0  0  0  0  0  0  0
   -7.9734    1.8537   -0.0000 C   0  0  0  0  0  0  0  0  0  0  0  0
   -9.2686   -0.3921   -0.0000 C   0  0  0  0  0  0  0  0  0  0  0  0
   -9.2805    2.6142   -0.0000 C   0  0  0  0  0  0  0  0  0  0  0  0
  -10.5757    0.3684   -0.0000 C   0  0  0  0  0  0  0  0  0  0  0  0
   -9.2924    4.1352   -0.0000 C   0  0  0  0  0  0  0  0  0  0  0  0
  -10.5757    1.8775   -0.0000 C   0  0  0  0  0  0  0  0  0  0  0  0
  -11.8828   -0.3684   -0.0000 C   0  0  0  0  0  0  0  0  0  0  0  0
  -10.5995    4.8957   -0.0000 C   0  0  0  0  0  0  0  0  0  0  0  0
  -11.8828    2.6261   -0.0000 C   0  0  0  0  0  0  0  0  0  0  0  0
  -13.1899    0.3921   -0.0000 N   0  0  0  0  0  0  0  0  0  0  0  0
  -11.8947   -1.8537   -0.0000 C   0  0  0  0  0  0  0  0  0  0  0  0
  -11.9066    4.1590   -0.0000 C   0  0  0  0  0  0  0  0  0  0  0  0
  -14.4970   -0.3446   -0.0000 C   0  0  0  0  0  0  0  0  0  0  0  0
  -10.6113   -2.5905   -0.0000 C   0  0  0  0  0  0  0  0  0  0  0  0
  -14.5089   -1.8300   -0.0000 O   0  0  0  0  0  0  0  0  0  0  0  0
  -15.8041    0.4159   -0.0000 C   0  0  0  0  0  0  0  0  0  0  0  0
  -10.6351   -4.0758   -0.0000 C   0  0  0  0  0  0  0  0  0  0  0  0
   -9.3399   -1.8300   -0.0000 C   0  0  0  0  0  0  0  0  0  0  0  0
  -17.1112   -0.3208   -0.0000 N   0  0  0  0  0  0  0  0  0  0  0  0
  -15.8160    1.9250   -0.0000 C   0  0  0  0  0  0  0  0  0  0  0  0
   -9.3518   -4.8125   -0.0000 C   0  0  0  0  0  0  0  0  0  0  0  0
   -8.0565   -2.5548   -0.0000 C   0  0  0  0  0  0  0  0  0  0  0  0
  -18.4184    0.4397   -0.0000 C   0  0  0  0  0  0  0  0  0  0  0  0
  -14.5327    2.6855   -0.0000 C   0  0  0  0  0  0  0  0  0  0  0  0
  -17.1231    2.6855   -0.0000 C   0  0  0  0  0  0  0  0  0  0  0  0
   -8.0684   -4.0520   -0.0000 C   0  0  0  0  0  0  0  0  0  0  0  0
  -18.4302    1.9488   -0.0000 O   0  0  0  0  0  0  0  0  0  0  0  0
  -19.7255   -0.2971   -0.0000 N   0  0  0  0  0  0  0  0  0  0  0  0
  -19.7373   -1.7824   -0.0000 C   0  0  0  0  0  0  0  0  0  0  0  0
  -21.0326    0.4634   -0.0000 C   0  0  0  0  0  0  0  0  0  0  0  0
  -20.4860   -3.0658   -0.0000 C   0  0  0  0  0  0  0  0  0  0  0  0
  -18.9887   -3.0658   -0.0000 C   0  0  0  0  0  0  0  0  0  0  0  0
  -22.3397   -0.2733   -0.0000 C   0  0  0  0  0  0  0  0  0  0  0  0
  -23.7656    0.2495   -0.0000 N   0  0  0  0  0  0  0  0  0  0  0  0
  -22.3991   -1.7587   -0.0000 C   0  0  0  0  0  0  0  0  0  0  0  0
  -24.6925   -0.9269   -0.0000 C   0  0  0  0  0  0  0  0  0  0  0  0
  -23.8488   -2.1627   -0.0000 S   0  0  0  0  0  0  0  0  0  0  0  0
  -26.2016   -0.8674   -0.0000 C   0  0  0  0  0  0  0  0  0  0  0  0
  -26.9264    0.4634   -0.0000 C   0  0  0  0  0  0  0  0  0  0  0  0
  -26.9977   -2.1270   -0.0000 C   0  0  0  0  0  0  0  0  0  0  0  0
  1  2  1  0  0  0  0
  1  3  1  0  0  0  0
  2  4  2  0  0  0  0
  2  5  1  0  0  0  0
  3  6  2  0  0  0  0
  5  7  1  0  0  0  0
  7  8  1  0  0  0  0
  8  9  2  0  0  0  0
  8 10  1  0  0  0  0
 11 10  1  6  0  0  0
 11 12  1  0  0  0  0
 11 13  1  0  0  0  0
 12 14  1  0  0  0  0
 13 15  1  0  0  0  0
 14 16  2  0  0  0  0
 14 17  1  0  0  0  0
 15 18  1  0  0  0  0
 16 19  1  0  0  0  0
 17 20  2  0  0  0  0
 18 21  1  6  0  0  0
 18 22  1  0  0  0  0
 19 23  2  0  0  0  0
 21 24  1  0  0  0  0
 22 25  1  0  0  0  0
 24 26  2  0  0  0  0
 24 27  1  0  0  0  0
 25 28  2  0  0  0  0
 25 29  1  0  0  0  0
 27 30  1  1  0  0  0
 27 31  1  0  0  0  0
 28 32  1  0  0  0  0
 29 33  2  0  0  0  0
 30 34  1  0  0  0  0
 31 35  1  0  0  0  0
 31 36  1  0  0  0  0
 32 37  2  0  0  0  0
 34 38  2  0  0  0  0
 34 39  1  0  0  0  0
 39 40  1  0  0  0  0
 39 41  1  0  0  0  0
 40 42  1  0  0  0  0
 40 43  1  0  0  0  0
 41 44  1  0  0  0  0
 44 45  1  0  0  0  0
 44 46  2  0  0  0  0
 45 47  2  0  0  0  0
 46 48  1  0  0  0  0
 47 49  1  0  0  0  0
 49 50  1  0  0  0  0
 49 51  1  0  0  0  0
  4  6  1  0  0  0  0
 20 23  1  0  0  0  0
 33 37  1  0  0  0  0
 42 43  1  0  0  0  0
 47 48  1  0  0  0  0
M  END
>  <MolRegNo>
1618137

>  <m>
=

>  <Value>
210

>  <Unit>
nM

>  <Type>
IC50

>  <pValue>
6.68

>  <Ligand Efficiency>
0

>  <Binding Efficiency>
0

>  <Surface Efficiency>
0

>  <Assay Index>
821142

>  <Assay Category>


>  <Assay Organism>
Homo sapiens

>  <Target ID>
17045

>  <Target Name>
Cytochrome P450 3A4

>  <Target Organism>
Homo sapiens

>  <Target Description>
Target is a single protein chain

>  <Sequence Accession>
P08684

>  <Reference>
Bioorg Med Chem Lett 24 (3), 995-999 (2014)

>  <Pubmed ID>
24412072

>  <DOI>
10.1016/j.bmcl.2013.12.057

$$$$
1618804
Actelion Java MolfileCreator 1.0

 30 34  0  0  0  0  0  0  0  0999 V2000
    0.0000   -0.0000   -0.0000 F   0  0  0  0  0  0  0  0  0  0  0  0
   -0.7568   -1.2973   -0.0000 C   0  0  0  0  0  0  0  0  0  0  0  0
   -0.0240   -2.5947   -0.0000 C   0  0  0  0  0  0  0  0  0  0  0  0
   -2.2703   -1.2853   -0.0000 C   0  0  0  0  0  0  0  0  0  0  0  0
    1.4655   -2.5827   -0.0000 C   0  0  0  0  0  0  0  0  0  0  0  0
   -0.7808   -3.8920   -0.0000 C   0  0  0  0  0  0  0  0  0  0  0  0
   -3.0391   -2.5827   -0.0000 C   0  0  0  0  0  0  0  0  0  0  0  0
    2.3544   -1.3574   -0.0000 N   0  0  0  0  0  0  0  0  0  0  0  0
    2.3544   -3.7839   -0.0000 N   0  0  0  0  0  0  0  0  0  0  0  0
   -2.2944   -3.8800   -0.0000 C   0  0  0  0  0  0  0  0  0  0  0  0
    3.7719   -1.8139   -0.0000 C   0  0  0  0  0  0  0  0  0  0  0  0
    3.7719   -3.3034   -0.0000 C   0  0  0  0  0  0  0  0  0  0  0  0
   -3.0031   -5.2134   -0.0000 N   0  0  0  0  0  0  0  0  0  0  0  0
    5.0692   -1.0451   -0.0000 C   0  0  0  0  0  0  0  0  0  0  0  0
    5.0692   -4.0362   -0.0000 N   0  0  0  0  0  0  0  0  0  0  0  0
   -4.5407   -5.2734   -0.0000 C   0  0  0  0  0  0  0  0  0  0  0  0
    6.3666   -1.7898   -0.0000 C   0  0  0  0  0  0  0  0  0  0  0  0
    6.3666   -3.2794   -0.0000 C   0  0  0  0  0  0  0  0  0  0  0  0
   -5.3815   -4.0001   -0.0000 O   0  0  0  0  0  0  0  0  0  0  0  0
   -5.2254   -6.6068   -0.0000 N   0  0  0  0  0  0  0  0  0  0  0  0
    7.6519   -1.0331   -0.0000 C   0  0  0  0  0  0  0  0  0  0  0  0
   -6.7149   -6.8350   -0.0000 C   0  0  0  0  0  0  0  0  0  0  0  0
   -4.5527   -7.9282   -0.0000 C   0  0  0  0  0  0  0  0  0  0  0  0
    8.9372   -1.7778   -0.0000 C   0  0  0  0  0  0  0  0  0  0  0  0
    7.6399    0.4685   -0.0000 C   0  0  0  0  0  0  0  0  0  0  0  0
   -6.9672   -8.3005   -0.0000 C   0  0  0  0  0  0  0  0  0  0  0  0
   -5.6218   -8.9732   -0.0000 C   0  0  0  0  0  0  0  0  0  0  0  0
   10.2225   -1.0211   -0.0000 C   0  0  0  0  0  0  0  0  0  0  0  0
    8.9252    1.2373   -0.0000 C   0  0  0  0  0  0  0  0  0  0  0  0
   10.2105    0.4925   -0.0000 C   0  0  0  0  0  0  0  0  0  0  0  0
  1  2  1  0  0  0  0
  2  3  2  0  0  0  0
  2  4  1  0  0  0  0
  3  5  1  0  0  0  0
  3  6  1  0  0  0  0
  4  7  2  0  0  0  0
  5  8  2  0  0  0  0
  5  9  1  0  0  0  0
  6 10  2  0  0  0  0
  8 11  1  0  0  0  0
  9 12  1  0  0  0  0
 10 13  1  0  0  0  0
 11 14  1  0  0  0  0
 12 15  1  0  0  0  0
 13 16  1  0  0  0  0
 14 17  2  0  0  0  0
 15 18  2  0  0  0  0
 16 19  2  0  0  0  0
 16 20  1  0  0  0  0
 17 21  1  0  0  0  0
 20 22  1  0  0  0  0
 20 23  1  0  0  0  0
 21 24  2  0  0  0  0
 21 25  1  0  0  0  0
 22 26  1  0  0  0  0
 23 27  1  0  0  0  0
 24 28  1  0  0  0  0
 25 29  2  0  0  0  0
 28 30  2  0  0  0  0
  7 10  1  0  0  0  0
 11 12  2  0  0  0  0
 17 18  1  0  0  0  0
 26 27  1  0  0  0  0
 29 30  1  0  0  0  0
M  END
>  <MolRegNo>
1618804

>  <m>
=

>  <Value>
1500

>  <Unit>
nM

>  <Type>
IC50

>  <pValue>
5.82

>  <Ligand Efficiency>
0

>  <Binding Efficiency>
0

>  <Surface Efficiency>
0

>  <Assay Index>
823814

>  <Assay Category>


>  <Assay Organism>
Homo sapiens

>  <Target ID>
17045

>  <Target Name>
Cytochrome P450 3A4

>  <Target Organism>
Homo sapiens

>  <Target Description>
Target is a single protein chain

>  <Sequence Accession>
P08684

>  <Reference>
J Med Chem 57 (3), 828-835 (2014)

>  <Pubmed ID>
24354316

>  <DOI>
10.1021/jm401178t

$$$$
1619144
Actelion Java MolfileCreator 1.0

 39 42  0  0  0  0  0  0  0  0999 V2000
    0.0000   -0.0000   -0.0000 Cl  0  0  0  0  0  0  0  0  0  0  0  0
    1.2930   -0.7355   -0.0000 C   0  0  0  0  0  0  0  0  0  0  0  0
    1.2811   -2.2301   -0.0000 C   0  0  0  0  0  0  0  0  0  0  0  0
    2.5741    0.0237   -0.0000 C   0  0  0  0  0  0  0  0  0  0  0  0
    2.5741   -2.9655   -0.0000 N   0  0  0  0  0  0  0  0  0  0  0  0
    3.8671   -0.7117   -0.0000 C   0  0  0  0  0  0  0  0  0  0  0  0
    3.8671   -2.2064   -0.0000 C   0  0  0  0  0  0  0  0  0  0  0  0
    5.1600   -2.9418   -0.0000 C   0  0  0  0  0  0  0  0  0  0  0  0
    6.4412   -2.1589   -0.0000 N   0  0  0  0  0  0  0  0  0  0  0  0
    5.1482   -4.4365   -0.0000 C   0  0  0  0  0  0  0  0  0  0  0  0
    6.4530   -3.6654   -0.0000 C   0  0  0  0  0  0  0  0  0  0  0  0
    6.4293   -0.6406   -0.0000 C   0  0  0  0  0  0  0  0  0  0  0  0
    6.4293   -5.1719   -0.0000 C   0  0  0  0  0  0  0  0  0  0  0  0
    3.8315   -5.1719   -0.0000 C   0  0  0  0  0  0  0  0  0  0  0  0
    7.7341   -2.8825   -0.0000 C   0  0  0  0  0  0  0  0  0  0  0  0
    7.6274    0.2610   -0.0000 S   0  0  0  0  0  0  0  0  0  0  0  0
    5.1956    0.2610   -0.0000 N   0  0  0  0  0  0  0  0  0  0  0  0
    6.4293   -6.6547   -0.0000 C   0  0  0  0  0  0  0  0  0  0  0  0
    3.8196   -6.6665   -0.0000 C   0  0  0  0  0  0  0  0  0  0  0  0
    9.0271   -3.6061   -0.0000 C   0  0  0  0  0  0  0  0  0  0  0  0
    7.6867   -1.3760   -0.0000 C   0  0  0  0  0  0  0  0  0  0  0  0
    7.1410    1.6963   -0.0000 C   0  0  0  0  0  0  0  0  0  0  0  0
    5.6464    1.6963   -0.0000 C   0  0  0  0  0  0  0  0  0  0  0  0
    7.7223   -7.3901   -0.0000 F   0  0  0  0  0  0  0  0  0  0  0  0
    5.1126   -7.4020   -0.0000 C   0  0  0  0  0  0  0  0  0  0  0  0
    2.5029   -7.4020   -0.0000 O   0  0  0  0  0  0  0  0  0  0  0  0
   10.3082   -2.8232   -0.0000 C   0  0  0  0  0  0  0  0  0  0  0  0
    8.9559   -0.5931   -0.0000 C   0  0  0  0  0  0  0  0  0  0  0  0
    4.7449    2.9181   -0.0000 C   0  0  0  0  0  0  0  0  0  0  0  0
    2.4911   -8.8966   -0.0000 C   0  0  0  0  0  0  0  0  0  0  0  0
   10.2726   -1.3048   -0.0000 C   0  0  0  0  0  0  0  0  0  0  0  0
    5.3380    4.3060   -0.0000 F   0  0  0  0  0  0  0  0  0  0  0  0
    3.2384    2.7757   -0.0000 F   0  0  0  0  0  0  0  0  0  0  0  0
    3.6654    4.0094   -0.0000 F   0  0  0  0  0  0  0  0  0  0  0  0
    3.2265  -10.1896   -0.0000 F   0  0  0  0  0  0  0  0  0  0  0  0
    3.9857   -8.8848   -0.0000 F   0  0  0  0  0  0  0  0  0  0  0  0
    1.1744   -9.6321   -0.0000 C   0  0  0  0  0  0  0  0  0  0  0  0
    1.1625  -11.1267   -0.0000 F   0  0  0  0  0  0  0  0  0  0  0  0
   -0.1423   -8.8729   -0.0000 F   0  0  0  0  0  0  0  0  0  0  0  0
  1  2  1  0  0  0  0
  2  3  2  0  0  0  0
  2  4  1  0  0  0  0
  3  5  1  0  0  0  0
  4  6  2  0  0  0  0
  5  7  2  0  0  0  0
  7  8  1  0  0  0  0
  8  9  1  0  0  0  0
  8 10  1  0  0  0  0
  8 11  1  6  0  0  0
  9 12  1  0  0  0  0
 10 13  2  0  0  0  0
 10 14  1  0  0  0  0
 11 15  1  0  0  0  0
 12 16  1  0  0  0  0
 12 17  2  0  0  0  0
 13 18  1  0  0  0  0
 14 19  2  0  0  0  0
 15 20  2  0  0  0  0
 15 21  1  0  0  0  0
 16 22  1  0  0  0  0
 17 23  1  0  0  0  0
 18 24  1  0  0  0  0
 18 25  2  0  0  0  0
 19 26  1  0  0  0  0
 20 27  1  0  0  0  0
 21 28  2  0  0  0  0
 23 29  1  0  0  0  0
 26 30  1  0  0  0  0
 27 31  2  0  0  0  0
 29 32  1  0  0  0  0
 29 33  1  0  0  0  0
 29 34  1  0  0  0  0
 30 35  1  0  0  0  0
 30 36  1  0  0  0  0
 30 37  1  0  0  0  0
 37 38  1  0  0  0  0
 37 39  1  0  0  0  0
  6  7  1  0  0  0  0
 19 25  1  0  0  0  0
 22 23  2  0  0  0  0
 28 31  1  0  0  0  0
M  END
>  <MolRegNo>
1619144

>  <m>
=

>  <Value>
40000

>  <Unit>
nM

>  <Type>
IC50

>  <pValue>
4.4

>  <Ligand Efficiency>
0

>  <Binding Efficiency>
0

>  <Surface Efficiency>
0

>  <Assay Index>
822103

>  <Assay Category>


>  <Assay Organism>
Homo sapiens

>  <Target ID>
17045

>  <Target Name>
Cytochrome P450 3A4

>  <Target Organism>
Homo sapiens

>  <Target Description>
Target is a single protein chain

>  <Sequence Accession>
P08684

>  <Reference>
Bioorg Med Chem Lett 24 (3), 860-864 (2014)

>  <Pubmed ID>
24424134

>  <DOI>
10.1016/j.bmcl.2013.12.088

$$$$
1619140
Actelion Java MolfileCreator 1.0

 41 45  0  0  0  0  0  0  0  0999 V2000
    0.0000   -0.0000   -0.0000 Cl  0  0  0  0  0  0  0  0  0  0  0  0
    1.2928   -0.7354   -0.0000 C   0  0  0  0  0  0  0  0  0  0  0  0
    1.2809   -2.2298   -0.0000 C   0  0  0  0  0  0  0  0  0  0  0  0
    2.5737    0.0237   -0.0000 C   0  0  0  0  0  0  0  0  0  0  0  0
    2.5737   -2.9651   -0.0000 N   0  0  0  0  0  0  0  0  0  0  0  0
    3.8665   -0.7116   -0.0000 C   0  0  0  0  0  0  0  0  0  0  0  0
    3.8665   -2.2061   -0.0000 C   0  0  0  0  0  0  0  0  0  0  0  0
    5.1593   -2.9414   -0.0000 C   0  0  0  0  0  0  0  0  0  0  0  0
    6.4403   -2.1586   -0.0000 N   0  0  0  0  0  0  0  0  0  0  0  0
    5.1475   -4.4358   -0.0000 C   0  0  0  0  0  0  0  0  0  0  0  0
    6.4521   -3.6649   -0.0000 C   0  0  0  0  0  0  0  0  0  0  0  0
    6.4284   -0.6405   -0.0000 C   0  0  0  0  0  0  0  0  0  0  0  0
    6.4284   -5.1712   -0.0000 C   0  0  0  0  0  0  0  0  0  0  0  0
    3.8310   -5.1712   -0.0000 C   0  0  0  0  0  0  0  0  0  0  0  0
    7.7331   -2.8821   -0.0000 C   0  0  0  0  0  0  0  0  0  0  0  0
    7.6263    0.2609   -0.0000 N   0  0  0  0  0  0  0  0  0  0  0  0
    5.1949    0.2609   -0.0000 N   0  0  0  0  0  0  0  0  0  0  0  0
    6.4284   -6.6538   -0.0000 C   0  0  0  0  0  0  0  0  0  0  0  0
    3.8191   -6.6656   -0.0000 C   0  0  0  0  0  0  0  0  0  0  0  0
    9.0259   -3.6056   -0.0000 C   0  0  0  0  0  0  0  0  0  0  0  0
    7.6856   -1.3758   -0.0000 C   0  0  0  0  0  0  0  0  0  0  0  0
    7.1400    1.6961   -0.0000 C   0  0  0  0  0  0  0  0  0  0  0  0
    5.6456    1.6961   -0.0000 C   0  0  0  0  0  0  0  0  0  0  0  0
    7.7212   -7.3891   -0.0000 F   0  0  0  0  0  0  0  0  0  0  0  0
    5.1119   -7.4010   -0.0000 C   0  0  0  0  0  0  0  0  0  0  0  0
    2.5026   -7.4010   -0.0000 O   0  0  0  0  0  0  0  0  0  0  0  0
   10.3068   -2.8228   -0.0000 C   0  0  0  0  0  0  0  0  0  0  0  0
    8.9547   -0.5930   -0.0000 C   0  0  0  0  0  0  0  0  0  0  0  0
    7.8754    3.0126   -0.0000 C   0  0  0  0  0  0  0  0  0  0  0  0
    4.8747    3.0007   -0.0000 C   0  0  0  0  0  0  0  0  0  0  0  0
    2.4907   -8.8954   -0.0000 C   0  0  0  0  0  0  0  0  0  0  0  0
   10.2712   -1.3047   -0.0000 C   0  0  0  0  0  0  0  0  0  0  0  0
    7.1045    4.3291   -0.0000 C   0  0  0  0  0  0  0  0  0  0  0  0
    3.3565    3.0007   -0.0000 F   0  0  0  0  0  0  0  0  0  0  0  0
    5.5982    4.3172   -0.0000 C   0  0  0  0  0  0  0  0  0  0  0  0
    3.2261  -10.1882   -0.0000 F   0  0  0  0  0  0  0  0  0  0  0  0
    3.9851   -8.8835   -0.0000 F   0  0  0  0  0  0  0  0  0  0  0  0
    1.1742   -9.6308   -0.0000 C   0  0  0  0  0  0  0  0  0  0  0  0
    7.8398    5.6456   -0.0000 F   0  0  0  0  0  0  0  0  0  0  0  0
    1.1623  -11.1252   -0.0000 F   0  0  0  0  0  0  0  0  0  0  0  0
   -0.1423   -8.8717   -0.0000 F   0  0  0  0  0  0  0  0  0  0  0  0
  1  2  1  0  0  0  0
  2  3  2  0  0  0  0
  2  4  1  0  0  0  0
  3  5  1  0  0  0  0
  4  6  2  0  0  0  0
  5  7  2  0  0  0  0
  7  8  1  0  0  0  0
  8  9  1  0  0  0  0
  8 10  1  0  0  0  0
  8 11  1  6  0  0  0
  9 12  1  0  0  0  0
 10 13  2  0  0  0  0
 10 14  1  0  0  0  0
 11 15  1  0  0  0  0
 12 16  2  0  0  0  0
 12 17  1  0  0  0  0
 13 18  1  0  0  0  0
 14 19  2  0  0  0  0
 15 20  2  0  0  0  0
 15 21  1  0  0  0  0
 16 22  1  0  0  0  0
 17 23  1  0  0  0  0
 18 24  1  0  0  0  0
 18 25  2  0  0  0  0
 19 26  1  0  0  0  0
 20 27  1  0  0  0  0
 21 28  2  0  0  0  0
 22 29  1  0  0  0  0
 23 30  1  0  0  0  0
 26 31  1  0  0  0  0
 27 32  2  0  0  0  0
 29 33  2  0  0  0  0
 30 34  1  0  0  0  0
 30 35  2  0  0  0  0
 31 36  1  0  0  0  0
 31 37  1  0  0  0  0
 31 38  1  0  0  0  0
 33 39  1  0  0  0  0
 38 40  1  0  0  0  0
 38 41  1  0  0  0  0
  6  7  1  0  0  0  0
 19 25  1  0  0  0  0
 22 23  2  0  0  0  0
 28 32  1  0  0  0  0
 33 35  1  0  0  0  0
M  END
>  <MolRegNo>
1619140

>  <m>
=

>  <Value>
24000

>  <Unit>
nM

>  <Type>
IC50

>  <pValue>
4.62

>  <Ligand Efficiency>
0

>  <Binding Efficiency>
0

>  <Surface Efficiency>
0

>  <Assay Index>
822103

>  <Assay Category>


>  <Assay Organism>
Homo sapiens

>  <Target ID>
17045

>  <Target Name>
Cytochrome P450 3A4

>  <Target Organism>
Homo sapiens

>  <Target Description>
Target is a single protein chain

>  <Sequence Accession>
P08684

>  <Reference>
Bioorg Med Chem Lett 24 (3), 860-864 (2014)

>  <Pubmed ID>
24424134

>  <DOI>
10.1016/j.bmcl.2013.12.088

$$$$
1619141
Actelion Java MolfileCreator 1.0

 40 44  0  0  0  0  0  0  0  0999 V2000
    0.0000   -0.0000   -0.0000 Cl  0  0  0  0  0  0  0  0  0  0  0  0
    1.2932   -0.7356   -0.0000 C   0  0  0  0  0  0  0  0  0  0  0  0
    1.2813   -2.2304   -0.0000 C   0  0  0  0  0  0  0  0  0  0  0  0
    2.5744    0.0237   -0.0000 C   0  0  0  0  0  0  0  0  0  0  0  0
    2.5744   -2.9660   -0.0000 N   0  0  0  0  0  0  0  0  0  0  0  0
    3.8676   -0.7118   -0.0000 C   0  0  0  0  0  0  0  0  0  0  0  0
    3.8676   -2.2067   -0.0000 C   0  0  0  0  0  0  0  0  0  0  0  0
    5.1608   -2.9422   -0.0000 C   0  0  0  0  0  0  0  0  0  0  0  0
    6.4420   -2.1592   -0.0000 N   0  0  0  0  0  0  0  0  0  0  0  0
    5.1489   -4.4371   -0.0000 C   0  0  0  0  0  0  0  0  0  0  0  0
    6.4539   -3.6659   -0.0000 C   0  0  0  0  0  0  0  0  0  0  0  0
    6.4302   -0.6406   -0.0000 C   0  0  0  0  0  0  0  0  0  0  0  0
    6.4302   -5.1726   -0.0000 C   0  0  0  0  0  0  0  0  0  0  0  0
    3.8320   -5.1726   -0.0000 C   0  0  0  0  0  0  0  0  0  0  0  0
    7.7352   -2.8829   -0.0000 C   0  0  0  0  0  0  0  0  0  0  0  0
    7.6284    0.2610   -0.0000 N   0  0  0  0  0  0  0  0  0  0  0  0
    5.1963    0.2610   -0.0000 N   0  0  0  0  0  0  0  0  0  0  0  0
    6.4302   -6.6556   -0.0000 C   0  0  0  0  0  0  0  0  0  0  0  0
    3.8201   -6.6675   -0.0000 C   0  0  0  0  0  0  0  0  0  0  0  0
    9.0284   -3.6066   -0.0000 C   0  0  0  0  0  0  0  0  0  0  0  0
    7.6877   -1.3762   -0.0000 C   0  0  0  0  0  0  0  0  0  0  0  0
    7.1420    1.6965   -0.0000 C   0  0  0  0  0  0  0  0  0  0  0  0
    5.6472    1.6965   -0.0000 C   0  0  0  0  0  0  0  0  0  0  0  0
    7.7233   -7.3912   -0.0000 F   0  0  0  0  0  0  0  0  0  0  0  0
    5.1133   -7.4030   -0.0000 C   0  0  0  0  0  0  0  0  0  0  0  0
    2.5033   -7.4030   -0.0000 O   0  0  0  0  0  0  0  0  0  0  0  0
   10.3096   -2.8236   -0.0000 C   0  0  0  0  0  0  0  0  0  0  0  0
    8.9572   -0.5932   -0.0000 C   0  0  0  0  0  0  0  0  0  0  0  0
    7.8776    3.0134   -0.0000 C   0  0  0  0  0  0  0  0  0  0  0  0
    4.8760    3.0015   -0.0000 C   0  0  0  0  0  0  0  0  0  0  0  0
    2.4914   -8.8979   -0.0000 C   0  0  0  0  0  0  0  0  0  0  0  0
   10.2741   -1.3050   -0.0000 C   0  0  0  0  0  0  0  0  0  0  0  0
    7.1064    4.3303   -0.0000 C   0  0  0  0  0  0  0  0  0  0  0  0
    5.5997    4.3184   -0.0000 C   0  0  0  0  0  0  0  0  0  0  0  0
    3.2270  -10.1910   -0.0000 F   0  0  0  0  0  0  0  0  0  0  0  0
    3.9862   -8.8860   -0.0000 F   0  0  0  0  0  0  0  0  0  0  0  0
    1.1745   -9.6334   -0.0000 C   0  0  0  0  0  0  0  0  0  0  0  0
    7.8420    5.6472   -0.0000 F   0  0  0  0  0  0  0  0  0  0  0  0
    1.1627  -11.1282   -0.0000 F   0  0  0  0  0  0  0  0  0  0  0  0
   -0.1424   -8.8741   -0.0000 F   0  0  0  0  0  0  0  0  0  0  0  0
  1  2  1  0  0  0  0
  2  3  2  0  0  0  0
  2  4  1  0  0  0  0
  3  5  1  0  0  0  0
  4  6  2  0  0  0  0
  5  7  2  0  0  0  0
  7  8  1  0  0  0  0
  8  9  1  0  0  0  0
  8 10  1  0  0  0  0
  8 11  1  6  0  0  0
  9 12  1  0  0  0  0
 10 13  2  0  0  0  0
 10 14  1  0  0  0  0
 11 15  1  0  0  0  0
 12 16  2  0  0  0  0
 12 17  1  0  0  0  0
 13 18  1  0  0  0  0
 14 19  2  0  0  0  0
 15 20  2  0  0  0  0
 15 21  1  0  0  0  0
 16 22  1  0  0  0  0
 17 23  1  0  0  0  0
 18 24  1  0  0  0  0
 18 25  2  0  0  0  0
 19 26  1  0  0  0  0
 20 27  1  0  0  0  0
 21 28  2  0  0  0  0
 22 29  1  0  0  0  0
 23 30  1  0  0  0  0
 26 31  1  0  0  0  0
 27 32  2  0  0  0  0
 29 33  2  0  0  0  0
 30 34  2  0  0  0  0
 31 35  1  0  0  0  0
 31 36  1  0  0  0  0
 31 37  1  0  0  0  0
 33 38  1  0  0  0  0
 37 39  1  0  0  0  0
 37 40  1  0  0  0  0
  6  7  1  0  0  0  0
 19 25  1  0  0  0  0
 22 23  2  0  0  0  0
 28 32  1  0  0  0  0
 33 34  1  0  0  0  0
M  END
>  <MolRegNo>
1619141

>  <m>
=

>  <Value>
32000

>  <Unit>
nM

>  <Type>
IC50

>  <pValue>
4.5

>  <Ligand Efficiency>
0

>  <Binding Efficiency>
0

>  <Surface Efficiency>
0

>  <Assay Index>
822103

>  <Assay Category>


>  <Assay Organism>
Homo sapiens

>  <Target ID>
17045

>  <Target Name>
Cytochrome P450 3A4

>  <Target Organism>
Homo sapiens

>  <Target Description>
Target is a single protein chain

>  <Sequence Accession>
P08684

>  <Reference>
Bioorg Med Chem Lett 24 (3), 860-864 (2014)

>  <Pubmed ID>
24424134

>  <DOI>
10.1016/j.bmcl.2013.12.088

$$$$
1619142
Actelion Java MolfileCreator 1.0

 39 43  0  0  0  0  0  0  0  0999 V2000
    0.0000   -0.0000   -0.0000 Cl  0  0  0  0  0  0  0  0  0  0  0  0
    1.2933   -0.7357   -0.0000 C   0  0  0  0  0  0  0  0  0  0  0  0
    1.2815   -2.2307   -0.0000 C   0  0  0  0  0  0  0  0  0  0  0  0
    2.5748    0.0237   -0.0000 C   0  0  0  0  0  0  0  0  0  0  0  0
    2.5748   -2.9663   -0.0000 N   0  0  0  0  0  0  0  0  0  0  0  0
    3.8681   -0.7119   -0.0000 C   0  0  0  0  0  0  0  0  0  0  0  0
    3.8681   -2.2070   -0.0000 C   0  0  0  0  0  0  0  0  0  0  0  0
    5.1614   -2.9426   -0.0000 C   0  0  0  0  0  0  0  0  0  0  0  0
    6.4429   -2.1595   -0.0000 N   0  0  0  0  0  0  0  0  0  0  0  0
    5.1496   -4.4376   -0.0000 C   0  0  0  0  0  0  0  0  0  0  0  0
    6.4547   -3.6664   -0.0000 C   0  0  0  0  0  0  0  0  0  0  0  0
    6.4310   -0.6407   -0.0000 C   0  0  0  0  0  0  0  0  0  0  0  0
    6.4310   -5.1733   -0.0000 C   0  0  0  0  0  0  0  0  0  0  0  0
    3.8325   -5.1733   -0.0000 C   0  0  0  0  0  0  0  0  0  0  0  0
    7.7362   -2.8833   -0.0000 C   0  0  0  0  0  0  0  0  0  0  0  0
    7.6294    0.2610   -0.0000 N   0  0  0  0  0  0  0  0  0  0  0  0
    5.1970    0.2610   -0.0000 N   0  0  0  0  0  0  0  0  0  0  0  0
    6.4310   -6.6565   -0.0000 C   0  0  0  0  0  0  0  0  0  0  0  0
    3.8206   -6.6683   -0.0000 C   0  0  0  0  0  0  0  0  0  0  0  0
    9.0295   -3.6071   -0.0000 C   0  0  0  0  0  0  0  0  0  0  0  0
    7.6887   -1.3764   -0.0000 C   0  0  0  0  0  0  0  0  0  0  0  0
    7.1429    1.6967   -0.0000 C   0  0  0  0  0  0  0  0  0  0  0  0
    5.6479    1.6967   -0.0000 C   0  0  0  0  0  0  0  0  0  0  0  0
    7.7243   -7.3921   -0.0000 F   0  0  0  0  0  0  0  0  0  0  0  0
    5.1140   -7.4040   -0.0000 C   0  0  0  0  0  0  0  0  0  0  0  0
    2.5036   -7.4040   -0.0000 O   0  0  0  0  0  0  0  0  0  0  0  0
   10.3110   -2.8240   -0.0000 C   0  0  0  0  0  0  0  0  0  0  0  0
    8.9583   -0.5933   -0.0000 C   0  0  0  0  0  0  0  0  0  0  0  0
    7.8786    3.0138   -0.0000 C   0  0  0  0  0  0  0  0  0  0  0  0
    4.8767    3.0019   -0.0000 C   0  0  0  0  0  0  0  0  0  0  0  0
    2.4917   -8.8990   -0.0000 C   0  0  0  0  0  0  0  0  0  0  0  0
   10.2754   -1.3052   -0.0000 C   0  0  0  0  0  0  0  0  0  0  0  0
    7.1073    4.3309   -0.0000 C   0  0  0  0  0  0  0  0  0  0  0  0
    5.6004    4.3190   -0.0000 C   0  0  0  0  0  0  0  0  0  0  0  0
    3.2274  -10.1923   -0.0000 F   0  0  0  0  0  0  0  0  0  0  0  0
    3.9868   -8.8871   -0.0000 F   0  0  0  0  0  0  0  0  0  0  0  0
    1.1747   -9.6347   -0.0000 C   0  0  0  0  0  0  0  0  0  0  0  0
    1.1628  -11.1297   -0.0000 F   0  0  0  0  0  0  0  0  0  0  0  0
   -0.1424   -8.8753   -0.0000 F   0  0  0  0  0  0  0  0  0  0  0  0
  1  2  1  0  0  0  0
  2  3  2  0  0  0  0
  2  4  1  0  0  0  0
  3  5  1  0  0  0  0
  4  6  2  0  0  0  0
  5  7  2  0  0  0  0
  7  8  1  0  0  0  0
  8  9  1  0  0  0  0
  8 10  1  0  0  0  0
  8 11  1  6  0  0  0
  9 12  1  0  0  0  0
 10 13  2  0  0  0  0
 10 14  1  0  0  0  0
 11 15  1  0  0  0  0
 12 16  2  0  0  0  0
 12 17  1  0  0  0  0
 13 18  1  0  0  0  0
 14 19  2  0  0  0  0
 15 20  2  0  0  0  0
 15 21  1  0  0  0  0
 16 22  1  0  0  0  0
 17 23  1  0  0  0  0
 18 24  1  0  0  0  0
 18 25  2  0  0  0  0
 19 26  1  0  0  0  0
 20 27  1  0  0  0  0
 21 28  2  0  0  0  0
 22 29  1  0  0  0  0
 23 30  1  0  0  0  0
 26 31  1  0  0  0  0
 27 32  2  0  0  0  0
 29 33  2  0  0  0  0
 30 34  2  0  0  0  0
 31 35  1  0  0  0  0
 31 36  1  0  0  0  0
 31 37  1  0  0  0  0
 37 38  1  0  0  0  0
 37 39  1  0  0  0  0
  6  7  1  0  0  0  0
 19 25  1  0  0  0  0
 22 23  2  0  0  0  0
 28 32  1  0  0  0  0
 33 34  1  0  0  0  0
M  END
>  <MolRegNo>
1619142

>  <m>
=

>  <Value>
40000

>  <Unit>
nM

>  <Type>
IC50

>  <pValue>
4.4

>  <Ligand Efficiency>
0

>  <Binding Efficiency>
0

>  <Surface Efficiency>
0

>  <Assay Index>
822103

>  <Assay Category>


>  <Assay Organism>
Homo sapiens

>  <Target ID>
17045

>  <Target Name>
Cytochrome P450 3A4

>  <Target Organism>
Homo sapiens

>  <Target Description>
Target is a single protein chain

>  <Sequence Accession>
P08684

>  <Reference>
Bioorg Med Chem Lett 24 (3), 860-864 (2014)

>  <Pubmed ID>
24424134

>  <DOI>
10.1016/j.bmcl.2013.12.088

$$$$
1422840
Actelion Java MolfileCreator 1.0

 38 41  0  0  0  0  0  0  0  0999 V2000
    0.0000   -0.0000   -0.0000 Cl  0  0  0  0  0  0  0  0  0  0  0  0
    1.4962    0.0359   -0.0000 C   0  0  0  0  0  0  0  0  0  0  0  0
    2.2622   -1.2568   -0.0000 C   0  0  0  0  0  0  0  0  0  0  0  0
    2.2263    1.3645   -0.0000 C   0  0  0  0  0  0  0  0  0  0  0  0
    3.7583   -1.2209   -0.0000 N   0  0  0  0  0  0  0  0  0  0  0  0
    3.7224    1.3884   -0.0000 C   0  0  0  0  0  0  0  0  0  0  0  0
    4.4765    0.1077   -0.0000 C   0  0  0  0  0  0  0  0  0  0  0  0
    5.9726    0.1317   -0.0000 C   0  0  0  0  0  0  0  0  0  0  0  0
    5.9487    1.6637   -0.0000 N   0  0  0  0  0  0  0  0  0  0  0  0
    5.9607   -1.3645   -0.0000 C   0  0  0  0  0  0  0  0  0  0  0  0
    7.4688    0.1556   -0.0000 C   0  0  0  0  0  0  0  0  0  0  0  0
    7.2414    2.4417   -0.0000 C   0  0  0  0  0  0  0  0  0  0  0  0
    7.2534   -2.1066   -0.0000 C   0  0  0  0  0  0  0  0  0  0  0  0
    4.6441   -2.1066   -0.0000 C   0  0  0  0  0  0  0  0  0  0  0  0
    8.7495   -0.5865   -0.0000 C   0  0  0  0  0  0  0  0  0  0  0  0
    8.5460    1.7116   -0.0000 O   0  0  0  0  0  0  0  0  0  0  0  0
    7.2174    3.9618   -0.0000 N   0  0  0  0  0  0  0  0  0  0  0  0
    7.2414   -3.6147   -0.0000 C   0  0  0  0  0  0  0  0  0  0  0  0
    4.6321   -3.6027   -0.0000 C   0  0  0  0  0  0  0  0  0  0  0  0
    8.7375   -2.0707   -0.0000 C   0  0  0  0  0  0  0  0  0  0  0  0
   10.0302    0.1676   -0.0000 C   0  0  0  0  0  0  0  0  0  0  0  0
    8.5101    4.7398   -0.0000 C   0  0  0  0  0  0  0  0  0  0  0  0
    8.5341   -4.3568   -0.0000 F   0  0  0  0  0  0  0  0  0  0  0  0
    5.9128   -4.3568   -0.0000 C   0  0  0  0  0  0  0  0  0  0  0  0
    3.3155   -4.3448   -0.0000 O   0  0  0  0  0  0  0  0  0  0  0  0
   10.0182   -2.8128   -0.0000 C   0  0  0  0  0  0  0  0  0  0  0  0
   11.3109   -0.5626   -0.0000 C   0  0  0  0  0  0  0  0  0  0  0  0
    9.8866    4.1533   -0.0000 C   0  0  0  0  0  0  0  0  0  0  0  0
    8.6418    6.2479   -0.0000 C   0  0  0  0  0  0  0  0  0  0  0  0
    3.3035   -5.8410   -0.0000 C   0  0  0  0  0  0  0  0  0  0  0  0
   11.3109   -2.0467   -0.0000 C   0  0  0  0  0  0  0  0  0  0  0  0
   10.8800    5.3024   -0.0000 C   0  0  0  0  0  0  0  0  0  0  0  0
   10.1020    6.5831   -0.0000 C   0  0  0  0  0  0  0  0  0  0  0  0
    4.0336   -7.1337   -0.0000 F   0  0  0  0  0  0  0  0  0  0  0  0
    4.7997   -5.8290   -0.0000 F   0  0  0  0  0  0  0  0  0  0  0  0
    1.9869   -6.5831   -0.0000 C   0  0  0  0  0  0  0  0  0  0  0  0
    1.9749   -8.0792   -0.0000 F   0  0  0  0  0  0  0  0  0  0  0  0
    0.6703   -5.8170   -0.0000 F   0  0  0  0  0  0  0  0  0  0  0  0
  1  2  1  0  0  0  0
  2  3  2  0  0  0  0
  2  4  1  0  0  0  0
  3  5  1  0  0  0  0
  4  6  2  0  0  0  0
  5  7  2  0  0  0  0
  7  8  1  0  0  0  0
  8  9  1  1  0  0  0
  8 10  1  0  0  0  0
  8 11  1  0  0  0  0
  9 12  1  0  0  0  0
 10 13  2  0  0  0  0
 10 14  1  0  0  0  0
 11 15  1  0  0  0  0
 12 16  2  0  0  0  0
 12 17  1  0  0  0  0
 13 18  1  0  0  0  0
 14 19  2  0  0  0  0
 15 20  2  0  0  0  0
 15 21  1  0  0  0  0
 17 22  1  0  0  0  0
 18 23  1  0  0  0  0
 18 24  2  0  0  0  0
 19 25  1  0  0  0  0
 20 26  1  0  0  0  0
 21 27  2  0  0  0  0
 22 28  1  0  0  0  0
 22 29  1  0  0  0  0
 25 30  1  0  0  0  0
 26 31  2  0  0  0  0
 28 32  1  0  0  0  0
 29 33  1  0  0  0  0
 30 34  1  0  0  0  0
 30 35  1  0  0  0  0
 30 36  1  0  0  0  0
 36 37  1  0  0  0  0
 36 38  1  0  0  0  0
  6  7  1  0  0  0  0
 19 24  1  0  0  0  0
 27 31  1  0  0  0  0
 32 33  1  0  0  0  0
M  END
>  <MolRegNo>
1422840

>  <m>
=

>  <Value>
8800

>  <Unit>
nM

>  <Type>
IC50

>  <pValue>
5.06

>  <Ligand Efficiency>
0

>  <Binding Efficiency>
0

>  <Surface Efficiency>
0

>  <Assay Index>
822103

>  <Assay Category>


>  <Assay Organism>
Homo sapiens

>  <Target ID>
17045

>  <Target Name>
Cytochrome P450 3A4

>  <Target Organism>
Homo sapiens

>  <Target Description>
Target is a single protein chain

>  <Sequence Accession>
P08684

>  <Reference>
Bioorg Med Chem Lett 24 (3), 860-864 (2014)

>  <Pubmed ID>
24424134

>  <DOI>
10.1016/j.bmcl.2013.12.088

$$$$
1571493
Actelion Java MolfileCreator 1.0

 50 54  0  0  0  0  0  0  0  0999 V2000
    0.0000   -0.0000   -0.0000 S   0  0  0  0  0  0  0  0  0  0  0  0
   -1.1379   -0.9838   -0.0000 O   0  0  0  0  0  0  0  0  0  0  0  0
    0.2845   -1.4580   -0.0000 O   0  0  0  0  0  0  0  0  0  0  0  0
   -1.0076    1.1379   -0.0000 N   0  0  0  0  0  0  0  0  0  0  0  0
    1.4580    0.3082   -0.0000 C   0  0  0  0  0  0  0  0  0  0  0  0
   -0.5453    2.5722   -0.0000 C   0  0  0  0  0  0  0  0  0  0  0  0
    2.8567   -0.1541   -0.0000 C   0  0  0  0  0  0  0  0  0  0  0  0
    2.5604    1.3157   -0.0000 C   0  0  0  0  0  0  0  0  0  0  0  0
    0.9127    2.8804   -0.0000 O   0  0  0  0  0  0  0  0  0  0  0  0
   -1.5528    3.7102   -0.0000 C   0  0  0  0  0  0  0  0  0  0  0  0
   -3.0227    3.4257   -0.0000 N   0  0  0  0  0  0  0  0  0  0  0  0
   -0.4386    4.7177   -0.0000 C   0  0  0  0  0  0  0  0  0  0  0  0
   -1.8610    5.1919   -0.0000 C   0  0  0  0  0  0  0  0  0  0  0  0
   -4.0302    4.5636   -0.0000 C   0  0  0  0  0  0  0  0  0  0  0  0
    1.0194    5.0259   -0.0000 C   0  0  0  0  0  0  0  0  0  0  0  0
   -5.5119    4.2910   -0.0000 O   0  0  0  0  0  0  0  0  0  0  0  0
   -3.5679    5.9979   -0.0000 C   0  0  0  0  0  0  0  0  0  0  0  0
    2.0032    3.9117   -0.0000 C   0  0  0  0  0  0  0  0  0  0  0  0
   -4.4451    7.2307   -0.0000 N   0  0  0  0  0  0  0  0  0  0  0  0
   -2.1455    6.4602   -0.0000 C   0  0  0  0  0  0  0  0  0  0  0  0
   -5.9505    7.2662   -0.0000 C   0  0  0  0  0  0  0  0  0  0  0  0
   -3.5561    8.4397   -0.0000 C   0  0  0  0  0  0  0  0  0  0  0  0
   -2.1455    7.9656   -0.0000 C   0  0  0  0  0  0  0  0  0  0  0  0
   -6.7328    5.9860   -0.0000 O   0  0  0  0  0  0  0  0  0  0  0  0
   -6.6973    8.5820   -0.0000 C   0  0  0  0  0  0  0  0  0  0  0  0
   -0.9364    8.8427   -0.0000 O   0  0  0  0  0  0  0  0  0  0  0  0
   -8.2027    8.6175   -0.0000 N   0  0  0  0  0  0  0  0  0  0  0  0
   -5.9505    9.8859   -0.0000 C   0  0  0  0  0  0  0  0  0  0  0  0
   -0.9483   10.3481   -0.0000 C   0  0  0  0  0  0  0  0  0  0  0  0
   -8.9850    7.3373   -0.0000 C   0  0  0  0  0  0  0  0  0  0  0  0
   -4.4569    9.8740   -0.0000 C   0  0  0  0  0  0  0  0  0  0  0  0
   -6.6973   11.2016   -0.0000 C   0  0  0  0  0  0  0  0  0  0  0  0
   -5.2274   11.2016   -0.0000 C   0  0  0  0  0  0  0  0  0  0  0  0
   -2.2522   11.1068   -0.0000 N   0  0  0  0  0  0  0  0  0  0  0  0
    0.3438   11.1186   -0.0000 C   0  0  0  0  0  0  0  0  0  0  0  0
   -8.2619    6.0453   -0.0000 O   0  0  0  0  0  0  0  0  0  0  0  0
  -10.4904    7.3729   -0.0000 O   0  0  0  0  0  0  0  0  0  0  0  0
   -2.2640   12.6122   -0.0000 C   0  0  0  0  0  0  0  0  0  0  0  0
    0.3319   12.6359   -0.0000 C   0  0  0  0  0  0  0  0  0  0  0  0
    1.6358   10.3837   -0.0000 C   0  0  0  0  0  0  0  0  0  0  0  0
  -11.2727    6.0927   -0.0000 C   0  0  0  0  0  0  0  0  0  0  0  0
   -0.9957   13.3708   -0.0000 C   0  0  0  0  0  0  0  0  0  0  0  0
    1.6121   13.4064   -0.0000 C   0  0  0  0  0  0  0  0  0  0  0  0
    2.9160   11.1542   -0.0000 C   0  0  0  0  0  0  0  0  0  0  0  0
  -12.7781    6.1283   -0.0000 C   0  0  0  0  0  0  0  0  0  0  0  0
  -10.5497    4.8007   -0.0000 C   0  0  0  0  0  0  0  0  0  0  0  0
  -12.0432    4.8125   -0.0000 C   0  0  0  0  0  0  0  0  0  0  0  0
    2.9041   12.6714   -0.0000 C   0  0  0  0  0  0  0  0  0  0  0  0
    4.1843   13.4419   -0.0000 O   0  0  0  0  0  0  0  0  0  0  0  0
    5.4763   12.7070   -0.0000 C   0  0  0  0  0  0  0  0  0  0  0  0
  1  2  2  0  0  0  0
  1  3  2  0  0  0  0
  1  4  1  0  0  0  0
  1  5  1  0  0  0  0
  4  6  1  0  0  0  0
  5  7  1  0  0  0  0
  5  8  1  0  0  0  0
  6  9  2  0  0  0  0
  6 10  1  0  0  0  0
 10 11  1  1  0  0  0
 10 12  1  0  0  0  0
 10 13  1  0  0  0  0
 11 14  1  0  0  0  0
 12 15  1  6  0  0  0
 14 16  2  0  0  0  0
 17 14  1  6  0  0  0
 15 18  2  0  0  0  0
 17 19  1  0  0  0  0
 17 20  1  0  0  0  0
 19 21  1  0  0  0  0
 19 22  1  0  0  0  0
 20 23  1  0  0  0  0
 21 24  2  0  0  0  0
 21 25  1  0  0  0  0
 23 26  1  1  0  0  0
 25 27  1  6  0  0  0
 25 28  1  0  0  0  0
 26 29  1  0  0  0  0
 27 30  1  0  0  0  0
 28 31  1  0  0  0  0
 28 32  1  0  0  0  0
 28 33  1  0  0  0  0
 29 34  2  0  0  0  0
 29 35  1  0  0  0  0
 30 36  2  0  0  0  0
 30 37  1  0  0  0  0
 34 38  1  0  0  0  0
 35 39  1  0  0  0  0
 35 40  2  0  0  0  0
 37 41  1  0  0  0  0
 38 42  2  0  0  0  0
 39 43  2  0  0  0  0
 40 44  1  0  0  0  0
 41 45  1  0  0  0  0
 41 46  1  0  0  0  0
 41 47  1  0  0  0  0
 43 48  1  0  0  0  0
 48 49  1  0  0  0  0
 49 50  1  0  0  0  0
  7  8  1  0  0  0  0
 12 13  1  0  0  0  0
 22 23  1  0  0  0  0
 39 42  1  0  0  0  0
 44 48  2  0  0  0  0
M  END
>  <MolRegNo>
1571493

>  <m>
=

>  <Value>
2000

>  <Unit>
nM

>  <Type>
IC50

>  <pValue>
5.7

>  <Ligand Efficiency>
0

>  <Binding Efficiency>
0

>  <Surface Efficiency>
0

>  <Assay Index>
827728

>  <Assay Category>


>  <Assay Organism>
Homo sapiens

>  <Target ID>
17045

>  <Target Name>
Cytochrome P450 3A4

>  <Target Organism>
Homo sapiens

>  <Target Description>
Target is a single protein chain

>  <Sequence Accession>
P08684

>  <Reference>
J Med Chem 57 (5), 1708-1729 (2014)

>  <Pubmed ID>
24555570

>  <DOI>
10.1021/jm401840s

$$$$
1624813
Actelion Java MolfileCreator 1.0

 32 36  0  0  0  0  0  0  0  0999 V2000
    0.0000   -0.0000   -0.0000 S   0  0  0  0  0  0  0  0  0  0  0  0
   -1.4438   -0.4024   -0.0000 C   0  0  0  0  0  0  0  0  0  0  0  0
    0.0118    1.5148   -0.0000 C   0  0  0  0  0  0  0  0  0  0  0  0
   -2.3195    0.8284   -0.0000 C   0  0  0  0  0  0  0  0  0  0  0  0
   -2.3550   -1.5858   -0.0000 C   0  0  0  0  0  0  0  0  0  0  0  0
   -1.4083    2.0118   -0.0000 N   0  0  0  0  0  0  0  0  0  0  0  0
    1.2189    2.3787   -0.0000 C   0  0  0  0  0  0  0  0  0  0  0  0
   -3.7515    0.4024   -0.0000 C   0  0  0  0  0  0  0  0  0  0  0  0
   -3.7751   -1.0888   -0.0000 C   0  0  0  0  0  0  0  0  0  0  0  0
   -5.0296    1.2071   -0.0000 C   0  0  0  0  0  0  0  0  0  0  0  0
   -4.9941    2.7101   -0.0000 O   0  0  0  0  0  0  0  0  0  0  0  0
   -6.3669    0.5207   -0.0000 N   0  0  0  0  0  0  0  0  0  0  0  0
   -7.6450    1.3136   -0.0000 C   0  0  0  0  0  0  0  0  0  0  0  0
   -7.6095    2.8166   -0.0000 C   0  0  0  0  0  0  0  0  0  0  0  0
   -8.9586    0.6272   -0.0000 C   0  0  0  0  0  0  0  0  0  0  0  0
   -8.8757    3.6213   -0.0000 C   0  0  0  0  0  0  0  0  0  0  0  0
  -10.2367    1.4201   -0.0000 C   0  0  0  0  0  0  0  0  0  0  0  0
  -10.2012    2.9231   -0.0000 C   0  0  0  0  0  0  0  0  0  0  0  0
  -11.4793    3.7278   -0.0000 C   0  0  0  0  0  0  0  0  0  0  0  0
  -12.9112    3.2663   -0.0000 C   0  0  0  0  0  0  0  0  0  0  0  0
  -14.1302    4.1657   -0.0000 N   0  0  0  0  0  0  0  0  0  0  0  0
  -13.3846    1.8698   -0.0000 C   0  0  0  0  0  0  0  0  0  0  0  0
  -15.3609    3.3018   -0.0000 C   0  0  0  0  0  0  0  0  0  0  0  0
  -14.8875    1.8817   -0.0000 C   0  0  0  0  0  0  0  0  0  0  0  0
  -16.6864    4.0237   -0.0000 C   0  0  0  0  0  0  0  0  0  0  0  0
  -16.7455    5.5266   -0.0000 O   0  0  0  0  0  0  0  0  0  0  0  0
  -17.9526    3.2426   -0.0000 C   0  0  0  0  0  0  0  0  0  0  0  0
  -17.9171    1.7515   -0.0000 C   0  0  0  0  0  0  0  0  0  0  0  0
  -19.2781    3.9527   -0.0000 C   0  0  0  0  0  0  0  0  0  0  0  0
  -19.2071    0.9822   -0.0000 N   0  0  0  0  0  0  0  0  0  0  0  0
  -20.5680    3.1716   -0.0000 C   0  0  0  0  0  0  0  0  0  0  0  0
  -20.5325    1.6923   -0.0000 C   0  0  0  0  0  0  0  0  0  0  0  0
  1  2  1  0  0  0  0
  1  3  1  0  0  0  0
  2  4  2  0  0  0  0
  2  5  1  0  0  0  0
  3  6  2  0  0  0  0
  3  7  1  0  0  0  0
  4  8  1  0  0  0  0
  5  9  1  0  0  0  0
  8 10  1  1  0  0  0
 10 11  2  0  0  0  0
 10 12  1  0  0  0  0
 12 13  1  0  0  0  0
 13 14  2  0  0  0  0
 13 15  1  0  0  0  0
 14 16  1  0  0  0  0
 15 17  2  0  0  0  0
 16 18  2  0  0  0  0
 18 19  1  0  0  0  0
 20 19  1  6  0  0  0
 20 21  1  0  0  0  0
 20 22  1  0  0  0  0
 23 21  1  6  0  0  0
 22 24  1  0  0  0  0
 23 25  1  0  0  0  0
 25 26  1  1  0  0  0
 25 27  1  0  0  0  0
 27 28  2  0  0  0  0
 27 29  1  0  0  0  0
 28 30  1  0  0  0  0
 29 31  2  0  0  0  0
 30 32  2  0  0  0  0
  4  6  1  0  0  0  0
  8  9  1  0  0  0  0
 17 18  1  0  0  0  0
 23 24  1  0  0  0  0
 31 32  1  0  0  0  0
M  END
>  <MolRegNo>
1624813

>  <m>
=

>  <Value>
41800

>  <Unit>
nM

>  <Type>
IC50

>  <pValue>
4.38

>  <Ligand Efficiency>
0

>  <Binding Efficiency>
0

>  <Surface Efficiency>
0

>  <Assay Index>
827860

>  <Assay Category>


>  <Assay Organism>
Homo sapiens

>  <Target ID>
17045

>  <Target Name>
Cytochrome P450 3A4

>  <Target Organism>
Homo sapiens

>  <Target Description>
Target is a single protein chain

>  <Sequence Accession>
P08684

>  <Reference>
J Med Chem 57 (4), 1437-1453 (2014)

>  <Pubmed ID>
24437735

>  <DOI>
10.1021/jm4017224

$$$$
1624827
Actelion Java MolfileCreator 1.0

 32 36  0  0  0  0  0  0  0  0999 V2000
    0.0000   -0.0000   -0.0000 S   0  0  0  0  0  0  0  0  0  0  0  0
   -0.7235    1.3403   -0.0000 C   0  0  0  0  0  0  0  0  0  0  0  0
   -1.0556   -1.0438   -0.0000 C   0  0  0  0  0  0  0  0  0  0  0  0
   -2.2061    1.0793   -0.0000 N   0  0  0  0  0  0  0  0  0  0  0  0
   -0.0949    2.6924   -0.0000 N   0  0  0  0  0  0  0  0  0  0  0  0
   -2.4078   -0.3914   -0.0000 C   0  0  0  0  0  0  0  0  0  0  0  0
   -1.2691   -2.5027   -0.0000 C   0  0  0  0  0  0  0  0  0  0  0  0
   -3.4515   -1.4589   -0.0000 C   0  0  0  0  0  0  0  0  0  0  0  0
   -2.7517   -2.7636   -0.0000 C   0  0  0  0  0  0  0  0  0  0  0  0
   -4.7325   -0.6524   -0.0000 C   0  0  0  0  0  0  0  0  0  0  0  0
   -4.6970    0.8540   -0.0000 O   0  0  0  0  0  0  0  0  0  0  0  0
   -6.0610   -1.3522   -0.0000 N   0  0  0  0  0  0  0  0  0  0  0  0
   -7.3420   -0.5575   -0.0000 C   0  0  0  0  0  0  0  0  0  0  0  0
   -7.3182    0.9489   -0.0000 C   0  0  0  0  0  0  0  0  0  0  0  0
   -8.6585   -1.2454   -0.0000 C   0  0  0  0  0  0  0  0  0  0  0  0
   -8.5874    1.7554   -0.0000 C   0  0  0  0  0  0  0  0  0  0  0  0
   -9.9395   -0.4507   -0.0000 C   0  0  0  0  0  0  0  0  0  0  0  0
   -9.9158    1.0556   -0.0000 C   0  0  0  0  0  0  0  0  0  0  0  0
  -11.1968    1.8622   -0.0000 C   0  0  0  0  0  0  0  0  0  0  0  0
  -12.6320    1.3996   -0.0000 C   0  0  0  0  0  0  0  0  0  0  0  0
  -13.8536    2.2892   -0.0000 N   0  0  0  0  0  0  0  0  0  0  0  0
  -13.1064   -0.0000   -0.0000 C   0  0  0  0  0  0  0  0  0  0  0  0
  -15.0872    1.4233   -0.0000 C   0  0  0  0  0  0  0  0  0  0  0  0
  -14.6127    0.0119   -0.0000 C   0  0  0  0  0  0  0  0  0  0  0  0
  -16.4156    2.1350   -0.0000 C   0  0  0  0  0  0  0  0  0  0  0  0
  -16.4749    3.6413   -0.0000 O   0  0  0  0  0  0  0  0  0  0  0  0
  -17.6847    1.3522   -0.0000 C   0  0  0  0  0  0  0  0  0  0  0  0
  -19.0132    2.0638   -0.0000 C   0  0  0  0  0  0  0  0  0  0  0  0
  -17.6491   -0.1305   -0.0000 C   0  0  0  0  0  0  0  0  0  0  0  0
  -20.3060    1.2928   -0.0000 C   0  0  0  0  0  0  0  0  0  0  0  0
  -18.9420   -0.9014   -0.0000 C   0  0  0  0  0  0  0  0  0  0  0  0
  -20.2704   -0.2016   -0.0000 C   0  0  0  0  0  0  0  0  0  0  0  0
  1  2  1  0  0  0  0
  1  3  1  0  0  0  0
  2  4  2  0  0  0  0
  2  5  1  0  0  0  0
  3  6  2  0  0  0  0
  3  7  1  0  0  0  0
  6  8  1  0  0  0  0
  7  9  1  0  0  0  0
  8 10  1  1  0  0  0
 10 11  2  0  0  0  0
 10 12  1  0  0  0  0
 12 13  1  0  0  0  0
 13 14  2  0  0  0  0
 13 15  1  0  0  0  0
 14 16  1  0  0  0  0
 15 17  2  0  0  0  0
 16 18  2  0  0  0  0
 18 19  1  0  0  0  0
 20 19  1  6  0  0  0
 20 21  1  0  0  0  0
 20 22  1  0  0  0  0
 23 21  1  6  0  0  0
 22 24  1  0  0  0  0
 23 25  1  0  0  0  0
 25 26  1  1  0  0  0
 25 27  1  0  0  0  0
 27 28  2  0  0  0  0
 27 29  1  0  0  0  0
 28 30  1  0  0  0  0
 29 31  2  0  0  0  0
 30 32  2  0  0  0  0
  4  6  1  0  0  0  0
  8  9  1  0  0  0  0
 17 18  1  0  0  0  0
 23 24  1  0  0  0  0
 31 32  1  0  0  0  0
M  END
>  <MolRegNo>
1624827

>  <m>
=

>  <Value>
86000

>  <Unit>
nM

>  <Type>
IC50

>  <pValue>
4.07

>  <Ligand Efficiency>
0

>  <Binding Efficiency>
0

>  <Surface Efficiency>
0

>  <Assay Index>
827860

>  <Assay Category>


>  <Assay Organism>
Homo sapiens

>  <Target ID>
17045

>  <Target Name>
Cytochrome P450 3A4

>  <Target Organism>
Homo sapiens

>  <Target Description>
Target is a single protein chain

>  <Sequence Accession>
P08684

>  <Reference>
J Med Chem 57 (4), 1437-1453 (2014)

>  <Pubmed ID>
24437735

>  <DOI>
10.1021/jm4017224

$$$$
1621979
Actelion Java MolfileCreator 1.0

 28 31  0  0  0  0  0  0  0  0999 V2000
    0.0000   -0.0000   -0.0000 S   0  0  0  0  0  0  0  0  0  0  0  0
    1.2187   -0.8756   -0.0000 C   0  0  0  0  0  0  0  0  0  0  0  0
    0.4614    1.4317   -0.0000 C   0  0  0  0  0  0  0  0  0  0  0  0
    2.4019    0.0237   -0.0000 N   0  0  0  0  0  0  0  0  0  0  0  0
    1.2068   -2.3664   -0.0000 N   0  0  0  0  0  0  0  0  0  0  0  0
    1.9523    1.4435   -0.0000 C   0  0  0  0  0  0  0  0  0  0  0  0
   -0.4378    2.6622   -0.0000 C   0  0  0  0  0  0  0  0  0  0  0  0
    2.4847   -3.1118   -0.0000 C   0  0  0  0  0  0  0  0  0  0  0  0
   -0.1065   -3.1118   -0.0000 C   0  0  0  0  0  0  0  0  0  0  0  0
    2.7450    2.7332   -0.0000 C   0  0  0  0  0  0  0  0  0  0  0  0
   -1.9404    2.5320   -0.0000 O   0  0  0  0  0  0  0  0  0  0  0  0
    0.1656    4.0583   -0.0000 N   0  0  0  0  0  0  0  0  0  0  0  0
    2.4729   -4.6026   -0.0000 C   0  0  0  0  0  0  0  0  0  0  0  0
   -0.1183   -4.6026   -0.0000 C   0  0  0  0  0  0  0  0  0  0  0  0
    4.2358    2.6977   -0.0000 C   0  0  0  0  0  0  0  0  0  0  0  0
    1.1714   -5.3362   -0.0000 O   0  0  0  0  0  0  0  0  0  0  0  0
    4.9221    1.3725   -0.0000 O   0  0  0  0  0  0  0  0  0  0  0  0
    5.0285    3.9873   -0.0000 N   0  0  0  0  0  0  0  0  0  0  0  0
    6.5194    4.1057   -0.0000 C   0  0  0  0  0  0  0  0  0  0  0  0
    4.4606    5.3953   -0.0000 C   0  0  0  0  0  0  0  0  0  0  0  0
    6.8743    5.5728   -0.0000 C   0  0  0  0  0  0  0  0  0  0  0  0
    7.5842    3.0645   -0.0000 C   0  0  0  0  0  0  0  0  0  0  0  0
    5.6083    6.3655   -0.0000 C   0  0  0  0  0  0  0  0  0  0  0  0
    2.9935    5.7739   -0.0000 C   0  0  0  0  0  0  0  0  0  0  0  0
    8.2941    5.9869   -0.0000 C   0  0  0  0  0  0  0  0  0  0  0  0
    9.0277    3.4786   -0.0000 C   0  0  0  0  0  0  0  0  0  0  0  0
    9.3708    4.9694   -0.0000 C   0  0  0  0  0  0  0  0  0  0  0  0
   10.8143    5.4072   -0.0000 F   0  0  0  0  0  0  0  0  0  0  0  0
  1  2  1  0  0  0  0
  1  3  1  0  0  0  0
  2  4  2  0  0  0  0
  2  5  1  0  0  0  0
  3  6  2  0  0  0  0
  3  7  1  0  0  0  0
  5  8  1  0  0  0  0
  5  9  1  0  0  0  0
  6 10  1  0  0  0  0
  7 11  2  0  0  0  0
  7 12  1  0  0  0  0
  8 13  1  0  0  0  0
  9 14  1  0  0  0  0
 10 15  1  0  0  0  0
 13 16  1  0  0  0  0
 15 17  2  0  0  0  0
 15 18  1  0  0  0  0
 18 19  1  0  0  0  0
 18 20  1  0  0  0  0
 19 21  2  0  0  0  0
 19 22  1  0  0  0  0
 20 23  1  0  0  0  0
 20 24  1  0  0  0  0
 21 25  1  0  0  0  0
 22 26  2  0  0  0  0
 25 27  2  0  0  0  0
 27 28  1  0  0  0  0
  4  6  1  0  0  0  0
 14 16  1  0  0  0  0
 21 23  1  0  0  0  0
 26 27  1  0  0  0  0
M  END
>  <MolRegNo>
1621979

>  <m>
=

>  <Value>
40

>  <Unit>
nM

>  <Type>
IC50

>  <pValue>
7.4

>  <Ligand Efficiency>
0

>  <Binding Efficiency>
0

>  <Surface Efficiency>
0

>  <Assay Index>
828329

>  <Assay Category>


>  <Assay Organism>
Homo sapiens

>  <Target ID>
17045

>  <Target Name>
Cytochrome P450 3A4

>  <Target Organism>
Homo sapiens

>  <Target Description>
Target is a single protein chain

>  <Sequence Accession>
P08684

>  <Reference>
Bioorg Med Chem Lett 24 (6), 1506-1510 (2014)

>  <Pubmed ID>
24560540

>  <DOI>
10.1016/j.bmcl.2014.02.004

$$$$
1621999
Actelion Java MolfileCreator 1.0

 28 31  0  0  0  0  0  0  0  0999 V2000
    0.0000   -0.0000   -0.0000 Br  0  0  0  0  0  0  0  0  0  0  0  0
   -0.3792   -1.4459   -0.0000 C   0  0  0  0  0  0  0  0  0  0  0  0
   -1.8251   -1.8488   -0.0000 C   0  0  0  0  0  0  0  0  0  0  0  0
    0.6874   -2.4769   -0.0000 C   0  0  0  0  0  0  0  0  0  0  0  0
   -2.2044   -3.2947   -0.0000 C   0  0  0  0  0  0  0  0  0  0  0  0
   -3.1051   -1.0429   -0.0000 C   0  0  0  0  0  0  0  0  0  0  0  0
    0.3081   -3.9228   -0.0000 C   0  0  0  0  0  0  0  0  0  0  0  0
   -3.7213   -3.3895   -0.0000 N   0  0  0  0  0  0  0  0  0  0  0  0
   -1.1377   -4.3257   -0.0000 C   0  0  0  0  0  0  0  0  0  0  0  0
   -4.2665   -1.9910   -0.0000 C   0  0  0  0  0  0  0  0  0  0  0  0
   -4.5272   -4.6457   -0.0000 C   0  0  0  0  0  0  0  0  0  0  0  0
   -5.7361   -1.6118   -0.0000 C   0  0  0  0  0  0  0  0  0  0  0  0
   -3.8398   -5.9612   -0.0000 O   0  0  0  0  0  0  0  0  0  0  0  0
   -6.0442   -4.5746   -0.0000 C   0  0  0  0  0  0  0  0  0  0  0  0
   -6.8501   -5.8309   -0.0000 C   0  0  0  0  0  0  0  0  0  0  0  0
   -6.3997   -7.2530   -0.0000 N   0  0  0  0  0  0  0  0  0  0  0  0
   -8.3671   -5.8190   -0.0000 C   0  0  0  0  0  0  0  0  0  0  0  0
   -7.6204   -8.1300   -0.0000 C   0  0  0  0  0  0  0  0  0  0  0  0
   -8.8411   -7.2412   -0.0000 S   0  0  0  0  0  0  0  0  0  0  0  0
   -9.2678   -4.5865   -0.0000 C   0  0  0  0  0  0  0  0  0  0  0  0
   -7.6323   -9.6233   -0.0000 N   0  0  0  0  0  0  0  0  0  0  0  0
  -10.7729   -4.7287   -0.0000 O   0  0  0  0  0  0  0  0  0  0  0  0
   -8.6633   -3.1999   -0.0000 N   0  0  0  0  0  0  0  0  0  0  0  0
   -8.9359  -10.3699   -0.0000 C   0  0  0  0  0  0  0  0  0  0  0  0
   -6.3523  -10.3699   -0.0000 C   0  0  0  0  0  0  0  0  0  0  0  0
   -8.9478  -11.8632   -0.0000 C   0  0  0  0  0  0  0  0  0  0  0  0
   -6.3642  -11.8632   -0.0000 C   0  0  0  0  0  0  0  0  0  0  0  0
   -7.6678  -12.5980   -0.0000 O   0  0  0  0  0  0  0  0  0  0  0  0
  1  2  1  0  0  0  0
  2  3  2  0  0  0  0
  2  4  1  0  0  0  0
  3  5  1  0  0  0  0
  3  6  1  0  0  0  0
  4  7  2  0  0  0  0
  5  8  1  0  0  0  0
  5  9  2  0  0  0  0
  6 10  1  0  0  0  0
  8 11  1  0  0  0  0
 10 12  1  0  0  0  0
 11 13  2  0  0  0  0
 11 14  1  0  0  0  0
 14 15  1  0  0  0  0
 15 16  1  0  0  0  0
 15 17  2  0  0  0  0
 16 18  2  0  0  0  0
 17 19  1  0  0  0  0
 17 20  1  0  0  0  0
 18 21  1  0  0  0  0
 20 22  2  0  0  0  0
 20 23  1  0  0  0  0
 21 24  1  0  0  0  0
 21 25  1  0  0  0  0
 24 26  1  0  0  0  0
 25 27  1  0  0  0  0
 26 28  1  0  0  0  0
  7  9  1  0  0  0  0
  8 10  1  0  0  0  0
 18 19  1  0  0  0  0
 27 28  1  0  0  0  0
M  END
>  <MolRegNo>
1621999

>  <m>
=

>  <Value>
40000

>  <Unit>
nM

>  <Type>
IC50

>  <pValue>
4.4

>  <Ligand Efficiency>
0

>  <Binding Efficiency>
0

>  <Surface Efficiency>
0

>  <Assay Index>
828329

>  <Assay Category>


>  <Assay Organism>
Homo sapiens

>  <Target ID>
17045

>  <Target Name>
Cytochrome P450 3A4

>  <Target Organism>
Homo sapiens

>  <Target Description>
Target is a single protein chain

>  <Sequence Accession>
P08684

>  <Reference>
Bioorg Med Chem Lett 24 (6), 1506-1510 (2014)

>  <Pubmed ID>
24560540

>  <DOI>
10.1016/j.bmcl.2014.02.004

$$$$
1621998
Actelion Java MolfileCreator 1.0

 28 31  0  0  0  0  0  0  0  0999 V2000
    0.0000   -0.0000   -0.0000 Cl  0  0  0  0  0  0  0  0  0  0  0  0
   -0.3792   -1.4459   -0.0000 C   0  0  0  0  0  0  0  0  0  0  0  0
   -1.8251   -1.8488   -0.0000 C   0  0  0  0  0  0  0  0  0  0  0  0
    0.6874   -2.4769   -0.0000 C   0  0  0  0  0  0  0  0  0  0  0  0
   -2.2044   -3.2947   -0.0000 C   0  0  0  0  0  0  0  0  0  0  0  0
   -3.1051   -1.0429   -0.0000 C   0  0  0  0  0  0  0  0  0  0  0  0
    0.3081   -3.9228   -0.0000 C   0  0  0  0  0  0  0  0  0  0  0  0
   -3.7213   -3.3895   -0.0000 N   0  0  0  0  0  0  0  0  0  0  0  0
   -1.1377   -4.3257   -0.0000 C   0  0  0  0  0  0  0  0  0  0  0  0
   -4.2665   -1.9910   -0.0000 C   0  0  0  0  0  0  0  0  0  0  0  0
   -4.5272   -4.6457   -0.0000 C   0  0  0  0  0  0  0  0  0  0  0  0
   -5.7361   -1.6118   -0.0000 C   0  0  0  0  0  0  0  0  0  0  0  0
   -3.8398   -5.9612   -0.0000 O   0  0  0  0  0  0  0  0  0  0  0  0
   -6.0442   -4.5746   -0.0000 C   0  0  0  0  0  0  0  0  0  0  0  0
   -6.8501   -5.8309   -0.0000 C   0  0  0  0  0  0  0  0  0  0  0  0
   -6.3997   -7.2530   -0.0000 N   0  0  0  0  0  0  0  0  0  0  0  0
   -8.3671   -5.8190   -0.0000 C   0  0  0  0  0  0  0  0  0  0  0  0
   -7.6204   -8.1300   -0.0000 C   0  0  0  0  0  0  0  0  0  0  0  0
   -8.8411   -7.2412   -0.0000 S   0  0  0  0  0  0  0  0  0  0  0  0
   -9.2678   -4.5865   -0.0000 C   0  0  0  0  0  0  0  0  0  0  0  0
   -7.6323   -9.6233   -0.0000 N   0  0  0  0  0  0  0  0  0  0  0  0
  -10.7729   -4.7287   -0.0000 O   0  0  0  0  0  0  0  0  0  0  0  0
   -8.6633   -3.1999   -0.0000 N   0  0  0  0  0  0  0  0  0  0  0  0
   -8.9359  -10.3699   -0.0000 C   0  0  0  0  0  0  0  0  0  0  0  0
   -6.3523  -10.3699   -0.0000 C   0  0  0  0  0  0  0  0  0  0  0  0
   -8.9478  -11.8632   -0.0000 C   0  0  0  0  0  0  0  0  0  0  0  0
   -6.3642  -11.8632   -0.0000 C   0  0  0  0  0  0  0  0  0  0  0  0
   -7.6678  -12.5980   -0.0000 O   0  0  0  0  0  0  0  0  0  0  0  0
  1  2  1  0  0  0  0
  2  3  2  0  0  0  0
  2  4  1  0  0  0  0
  3  5  1  0  0  0  0
  3  6  1  0  0  0  0
  4  7  2  0  0  0  0
  5  8  1  0  0  0  0
  5  9  2  0  0  0  0
  6 10  1  0  0  0  0
  8 11  1  0  0  0  0
 10 12  1  0  0  0  0
 11 13  2  0  0  0  0
 11 14  1  0  0  0  0
 14 15  1  0  0  0  0
 15 16  1  0  0  0  0
 15 17  2  0  0  0  0
 16 18  2  0  0  0  0
 17 19  1  0  0  0  0
 17 20  1  0  0  0  0
 18 21  1  0  0  0  0
 20 22  2  0  0  0  0
 20 23  1  0  0  0  0
 21 24  1  0  0  0  0
 21 25  1  0  0  0  0
 24 26  1  0  0  0  0
 25 27  1  0  0  0  0
 26 28  1  0  0  0  0
  7  9  1  0  0  0  0
  8 10  1  0  0  0  0
 18 19  1  0  0  0  0
 27 28  1  0  0  0  0
M  END
>  <MolRegNo>
1621998

>  <m>
=

>  <Value>
40000

>  <Unit>
nM

>  <Type>
IC50

>  <pValue>
4.4

>  <Ligand Efficiency>
0

>  <Binding Efficiency>
0

>  <Surface Efficiency>
0

>  <Assay Index>
828329

>  <Assay Category>


>  <Assay Organism>
Homo sapiens

>  <Target ID>
17045

>  <Target Name>
Cytochrome P450 3A4

>  <Target Organism>
Homo sapiens

>  <Target Description>
Target is a single protein chain

>  <Sequence Accession>
P08684

>  <Reference>
Bioorg Med Chem Lett 24 (6), 1506-1510 (2014)

>  <Pubmed ID>
24560540

>  <DOI>
10.1016/j.bmcl.2014.02.004

$$$$
1621995
Actelion Java MolfileCreator 1.0

 27 30  0  0  0  0  0  0  0  0999 V2000
    0.0000   -0.0000   -0.0000 S   0  0  0  0  0  0  0  0  0  0  0  0
    1.2100   -0.8778   -0.0000 C   0  0  0  0  0  0  0  0  0  0  0  0
    0.4508    1.4472   -0.0000 C   0  0  0  0  0  0  0  0  0  0  0  0
    2.4081    0.0237   -0.0000 N   0  0  0  0  0  0  0  0  0  0  0  0
    1.1981   -2.3725   -0.0000 N   0  0  0  0  0  0  0  0  0  0  0  0
    1.9454    1.4591   -0.0000 C   0  0  0  0  0  0  0  0  0  0  0  0
   -0.4508    2.6809   -0.0000 C   0  0  0  0  0  0  0  0  0  0  0  0
   -0.1068   -3.1198   -0.0000 C   0  0  0  0  0  0  0  0  0  0  0  0
    2.4792   -3.1198   -0.0000 C   0  0  0  0  0  0  0  0  0  0  0  0
    2.7284    2.7402   -0.0000 C   0  0  0  0  0  0  0  0  0  0  0  0
   -1.9573    2.5386   -0.0000 O   0  0  0  0  0  0  0  0  0  0  0  0
    0.1542    4.0688   -0.0000 N   0  0  0  0  0  0  0  0  0  0  0  0
   -0.1186   -4.6145   -0.0000 C   0  0  0  0  0  0  0  0  0  0  0  0
    2.4674   -4.6145   -0.0000 C   0  0  0  0  0  0  0  0  0  0  0  0
    4.2230    2.6928   -0.0000 C   0  0  0  0  0  0  0  0  0  0  0  0
    1.1625   -5.3500   -0.0000 O   0  0  0  0  0  0  0  0  0  0  0  0
    4.9110    1.3760   -0.0000 O   0  0  0  0  0  0  0  0  0  0  0  0
    5.0059    3.9739   -0.0000 N   0  0  0  0  0  0  0  0  0  0  0  0
    6.5006    4.0925   -0.0000 C   0  0  0  0  0  0  0  0  0  0  0  0
    4.4365    5.3855   -0.0000 C   0  0  0  0  0  0  0  0  0  0  0  0
    6.8565    5.5635   -0.0000 C   0  0  0  0  0  0  0  0  0  0  0  0
    7.5682    3.0605   -0.0000 C   0  0  0  0  0  0  0  0  0  0  0  0
    5.5753    6.3583   -0.0000 C   0  0  0  0  0  0  0  0  0  0  0  0
    8.2800    5.9905   -0.0000 C   0  0  0  0  0  0  0  0  0  0  0  0
    9.0036    3.4876   -0.0000 C   0  0  0  0  0  0  0  0  0  0  0  0
    9.3476    4.9585   -0.0000 C   0  0  0  0  0  0  0  0  0  0  0  0
   10.7829    5.3855   -0.0000 F   0  0  0  0  0  0  0  0  0  0  0  0
  1  2  1  0  0  0  0
  1  3  1  0  0  0  0
  2  4  2  0  0  0  0
  2  5  1  0  0  0  0
  3  6  2  0  0  0  0
  3  7  1  0  0  0  0
  5  8  1  0  0  0  0
  5  9  1  0  0  0  0
  6 10  1  0  0  0  0
  7 11  2  0  0  0  0
  7 12  1  0  0  0  0
  8 13  1  0  0  0  0
  9 14  1  0  0  0  0
 10 15  1  0  0  0  0
 13 16  1  0  0  0  0
 15 17  2  0  0  0  0
 15 18  1  0  0  0  0
 18 19  1  0  0  0  0
 18 20  1  0  0  0  0
 19 21  2  0  0  0  0
 19 22  1  0  0  0  0
 20 23  1  0  0  0  0
 21 24  1  0  0  0  0
 22 25  2  0  0  0  0
 24 26  2  0  0  0  0
 26 27  1  0  0  0  0
  4  6  1  0  0  0  0
 14 16  1  0  0  0  0
 21 23  1  0  0  0  0
 25 26  1  0  0  0  0
M  END
>  <MolRegNo>
1621995

>  <m>
=

>  <Value>
40000

>  <Unit>
nM

>  <Type>
IC50

>  <pValue>
4.4

>  <Ligand Efficiency>
0

>  <Binding Efficiency>
0

>  <Surface Efficiency>
0

>  <Assay Index>
828329

>  <Assay Category>


>  <Assay Organism>
Homo sapiens

>  <Target ID>
17045

>  <Target Name>
Cytochrome P450 3A4

>  <Target Organism>
Homo sapiens

>  <Target Description>
Target is a single protein chain

>  <Sequence Accession>
P08684

>  <Reference>
Bioorg Med Chem Lett 24 (6), 1506-1510 (2014)

>  <Pubmed ID>
24560540

>  <DOI>
10.1016/j.bmcl.2014.02.004

$$$$
1621994
Actelion Java MolfileCreator 1.0

 27 30  0  0  0  0  0  0  0  0999 V2000
    0.0000   -0.0000   -0.0000 Br  0  0  0  0  0  0  0  0  0  0  0  0
   -0.3794   -1.4464   -0.0000 C   0  0  0  0  0  0  0  0  0  0  0  0
   -1.8258   -1.8495   -0.0000 C   0  0  0  0  0  0  0  0  0  0  0  0
    0.6876   -2.4779   -0.0000 C   0  0  0  0  0  0  0  0  0  0  0  0
   -2.2052   -3.2960   -0.0000 C   0  0  0  0  0  0  0  0  0  0  0  0
   -3.1063   -1.0433   -0.0000 C   0  0  0  0  0  0  0  0  0  0  0  0
    0.3083   -3.9243   -0.0000 C   0  0  0  0  0  0  0  0  0  0  0  0
   -3.7228   -3.3908   -0.0000 N   0  0  0  0  0  0  0  0  0  0  0  0
   -1.1382   -4.3275   -0.0000 C   0  0  0  0  0  0  0  0  0  0  0  0
   -4.2682   -1.9918   -0.0000 C   0  0  0  0  0  0  0  0  0  0  0  0
   -4.5290   -4.6476   -0.0000 C   0  0  0  0  0  0  0  0  0  0  0  0
   -3.8414   -5.9636   -0.0000 O   0  0  0  0  0  0  0  0  0  0  0  0
   -6.0466   -4.5764   -0.0000 C   0  0  0  0  0  0  0  0  0  0  0  0
   -6.8528   -5.8332   -0.0000 C   0  0  0  0  0  0  0  0  0  0  0  0
   -6.4023   -7.2559   -0.0000 N   0  0  0  0  0  0  0  0  0  0  0  0
   -8.3704   -5.8213   -0.0000 C   0  0  0  0  0  0  0  0  0  0  0  0
   -7.6234   -8.1332   -0.0000 C   0  0  0  0  0  0  0  0  0  0  0  0
   -8.8446   -7.2440   -0.0000 S   0  0  0  0  0  0  0  0  0  0  0  0
   -9.2714   -4.5883   -0.0000 C   0  0  0  0  0  0  0  0  0  0  0  0
   -7.6353   -9.6271   -0.0000 N   0  0  0  0  0  0  0  0  0  0  0  0
  -10.7771   -4.7306   -0.0000 O   0  0  0  0  0  0  0  0  0  0  0  0
   -8.6668   -3.2011   -0.0000 N   0  0  0  0  0  0  0  0  0  0  0  0
   -8.9394  -10.3740   -0.0000 C   0  0  0  0  0  0  0  0  0  0  0  0
   -6.3548  -10.3740   -0.0000 C   0  0  0  0  0  0  0  0  0  0  0  0
   -8.9513  -11.8679   -0.0000 C   0  0  0  0  0  0  0  0  0  0  0  0
   -6.3667  -11.8679   -0.0000 C   0  0  0  0  0  0  0  0  0  0  0  0
   -7.6708  -12.6030   -0.0000 O   0  0  0  0  0  0  0  0  0  0  0  0
  1  2  1  0  0  0  0
  2  3  2  0  0  0  0
  2  4  1  0  0  0  0
  3  5  1  0  0  0  0
  3  6  1  0  0  0  0
  4  7  2  0  0  0  0
  5  8  1  0  0  0  0
  5  9  2  0  0  0  0
  6 10  1  0  0  0  0
  8 11  1  0  0  0  0
 11 12  2  0  0  0  0
 11 13  1  0  0  0  0
 13 14  1  0  0  0  0
 14 15  1  0  0  0  0
 14 16  2  0  0  0  0
 15 17  2  0  0  0  0
 16 18  1  0  0  0  0
 16 19  1  0  0  0  0
 17 20  1  0  0  0  0
 19 21  2  0  0  0  0
 19 22  1  0  0  0  0
 20 23  1  0  0  0  0
 20 24  1  0  0  0  0
 23 25  1  0  0  0  0
 24 26  1  0  0  0  0
 25 27  1  0  0  0  0
  7  9  1  0  0  0  0
  8 10  1  0  0  0  0
 17 18  1  0  0  0  0
 26 27  1  0  0  0  0
M  END
>  <MolRegNo>
1621994

>  <m>
=

>  <Value>
40000

>  <Unit>
nM

>  <Type>
IC50

>  <pValue>
4.4

>  <Ligand Efficiency>
0

>  <Binding Efficiency>
0

>  <Surface Efficiency>
0

>  <Assay Index>
828329

>  <Assay Category>


>  <Assay Organism>
Homo sapiens

>  <Target ID>
17045

>  <Target Name>
Cytochrome P450 3A4

>  <Target Organism>
Homo sapiens

>  <Target Description>
Target is a single protein chain

>  <Sequence Accession>
P08684

>  <Reference>
Bioorg Med Chem Lett 24 (6), 1506-1510 (2014)

>  <Pubmed ID>
24560540

>  <DOI>
10.1016/j.bmcl.2014.02.004

$$$$
1621993
Actelion Java MolfileCreator 1.0

 27 30  0  0  0  0  0  0  0  0999 V2000
    0.0000   -0.0000   -0.0000 Cl  0  0  0  0  0  0  0  0  0  0  0  0
   -0.3794   -1.4464   -0.0000 C   0  0  0  0  0  0  0  0  0  0  0  0
   -1.8258   -1.8495   -0.0000 C   0  0  0  0  0  0  0  0  0  0  0  0
    0.6876   -2.4779   -0.0000 C   0  0  0  0  0  0  0  0  0  0  0  0
   -2.2052   -3.2960   -0.0000 C   0  0  0  0  0  0  0  0  0  0  0  0
   -3.1063   -1.0433   -0.0000 C   0  0  0  0  0  0  0  0  0  0  0  0
    0.3083   -3.9243   -0.0000 C   0  0  0  0  0  0  0  0  0  0  0  0
   -3.7228   -3.3908   -0.0000 N   0  0  0  0  0  0  0  0  0  0  0  0
   -1.1382   -4.3275   -0.0000 C   0  0  0  0  0  0  0  0  0  0  0  0
   -4.2682   -1.9918   -0.0000 C   0  0  0  0  0  0  0  0  0  0  0  0
   -4.5290   -4.6476   -0.0000 C   0  0  0  0  0  0  0  0  0  0  0  0
   -3.8414   -5.9636   -0.0000 O   0  0  0  0  0  0  0  0  0  0  0  0
   -6.0466   -4.5764   -0.0000 C   0  0  0  0  0  0  0  0  0  0  0  0
   -6.8528   -5.8332   -0.0000 C   0  0  0  0  0  0  0  0  0  0  0  0
   -6.4023   -7.2559   -0.0000 N   0  0  0  0  0  0  0  0  0  0  0  0
   -8.3704   -5.8213   -0.0000 C   0  0  0  0  0  0  0  0  0  0  0  0
   -7.6234   -8.1332   -0.0000 C   0  0  0  0  0  0  0  0  0  0  0  0
   -8.8446   -7.2440   -0.0000 S   0  0  0  0  0  0  0  0  0  0  0  0
   -9.2714   -4.5883   -0.0000 C   0  0  0  0  0  0  0  0  0  0  0  0
   -7.6353   -9.6271   -0.0000 N   0  0  0  0  0  0  0  0  0  0  0  0
  -10.7771   -4.7306   -0.0000 O   0  0  0  0  0  0  0  0  0  0  0  0
   -8.6668   -3.2011   -0.0000 N   0  0  0  0  0  0  0  0  0  0  0  0
   -8.9394  -10.3740   -0.0000 C   0  0  0  0  0  0  0  0  0  0  0  0
   -6.3548  -10.3740   -0.0000 C   0  0  0  0  0  0  0  0  0  0  0  0
   -8.9513  -11.8679   -0.0000 C   0  0  0  0  0  0  0  0  0  0  0  0
   -6.3667  -11.8679   -0.0000 C   0  0  0  0  0  0  0  0  0  0  0  0
   -7.6708  -12.6030   -0.0000 O   0  0  0  0  0  0  0  0  0  0  0  0
  1  2  1  0  0  0  0
  2  3  2  0  0  0  0
  2  4  1  0  0  0  0
  3  5  1  0  0  0  0
  3  6  1  0  0  0  0
  4  7  2  0  0  0  0
  5  8  1  0  0  0  0
  5  9  2  0  0  0  0
  6 10  1  0  0  0  0
  8 11  1  0  0  0  0
 11 12  2  0  0  0  0
 11 13  1  0  0  0  0
 13 14  1  0  0  0  0
 14 15  1  0  0  0  0
 14 16  2  0  0  0  0
 15 17  2  0  0  0  0
 16 18  1  0  0  0  0
 16 19  1  0  0  0  0
 17 20  1  0  0  0  0
 19 21  2  0  0  0  0
 19 22  1  0  0  0  0
 20 23  1  0  0  0  0
 20 24  1  0  0  0  0
 23 25  1  0  0  0  0
 24 26  1  0  0  0  0
 25 27  1  0  0  0  0
  7  9  1  0  0  0  0
  8 10  1  0  0  0  0
 17 18  1  0  0  0  0
 26 27  1  0  0  0  0
M  END
>  <MolRegNo>
1621993

>  <m>
=

>  <Value>
40000

>  <Unit>
nM

>  <Type>
IC50

>  <pValue>
4.4

>  <Ligand Efficiency>
0

>  <Binding Efficiency>
0

>  <Surface Efficiency>
0

>  <Assay Index>
828329

>  <Assay Category>


>  <Assay Organism>
Homo sapiens

>  <Target ID>
17045

>  <Target Name>
Cytochrome P450 3A4

>  <Target Organism>
Homo sapiens

>  <Target Description>
Target is a single protein chain

>  <Sequence Accession>
P08684

>  <Reference>
Bioorg Med Chem Lett 24 (6), 1506-1510 (2014)

>  <Pubmed ID>
24560540

>  <DOI>
10.1016/j.bmcl.2014.02.004

$$$$
1621989
Actelion Java MolfileCreator 1.0

 26 29  0  0  0  0  0  0  0  0999 V2000
    0.0000   -0.0000   -0.0000 S   0  0  0  0  0  0  0  0  0  0  0  0
    1.2099   -0.8778   -0.0000 C   0  0  0  0  0  0  0  0  0  0  0  0
    0.4507    1.4471   -0.0000 C   0  0  0  0  0  0  0  0  0  0  0  0
    2.4079    0.0237   -0.0000 N   0  0  0  0  0  0  0  0  0  0  0  0
    1.1980   -2.3723   -0.0000 N   0  0  0  0  0  0  0  0  0  0  0  0
    1.9453    1.4590   -0.0000 C   0  0  0  0  0  0  0  0  0  0  0  0
   -0.4507    2.6808   -0.0000 C   0  0  0  0  0  0  0  0  0  0  0  0
   -0.1068   -3.1196   -0.0000 C   0  0  0  0  0  0  0  0  0  0  0  0
    2.4791   -3.1196   -0.0000 C   0  0  0  0  0  0  0  0  0  0  0  0
    2.7282    2.7401   -0.0000 C   0  0  0  0  0  0  0  0  0  0  0  0
   -1.9572    2.5384   -0.0000 O   0  0  0  0  0  0  0  0  0  0  0  0
    0.1542    4.0686   -0.0000 N   0  0  0  0  0  0  0  0  0  0  0  0
   -0.1186   -4.6142   -0.0000 C   0  0  0  0  0  0  0  0  0  0  0  0
    2.4672   -4.6142   -0.0000 C   0  0  0  0  0  0  0  0  0  0  0  0
    4.2228    2.6926   -0.0000 C   0  0  0  0  0  0  0  0  0  0  0  0
    1.1625   -5.3496   -0.0000 O   0  0  0  0  0  0  0  0  0  0  0  0
    4.9108    1.3760   -0.0000 O   0  0  0  0  0  0  0  0  0  0  0  0
    5.0057    3.9737   -0.0000 N   0  0  0  0  0  0  0  0  0  0  0  0
    6.5002    4.0923   -0.0000 C   0  0  0  0  0  0  0  0  0  0  0  0
    4.4363    5.3852   -0.0000 C   0  0  0  0  0  0  0  0  0  0  0  0
    6.8561    5.5632   -0.0000 C   0  0  0  0  0  0  0  0  0  0  0  0
    7.5678    3.0603   -0.0000 C   0  0  0  0  0  0  0  0  0  0  0  0
    5.5750    6.3579   -0.0000 C   0  0  0  0  0  0  0  0  0  0  0  0
    8.2795    5.9902   -0.0000 C   0  0  0  0  0  0  0  0  0  0  0  0
    9.0031    3.4874   -0.0000 C   0  0  0  0  0  0  0  0  0  0  0  0
    9.3471    4.9582   -0.0000 C   0  0  0  0  0  0  0  0  0  0  0  0
  1  2  1  0  0  0  0
  1  3  1  0  0  0  0
  2  4  2  0  0  0  0
  2  5  1  0  0  0  0
  3  6  2  0  0  0  0
  3  7  1  0  0  0  0
  5  8  1  0  0  0  0
  5  9  1  0  0  0  0
  6 10  1  0  0  0  0
  7 11  2  0  0  0  0
  7 12  1  0  0  0  0
  8 13  1  0  0  0  0
  9 14  1  0  0  0  0
 10 15  1  0  0  0  0
 13 16  1  0  0  0  0
 15 17  2  0  0  0  0
 15 18  1  0  0  0  0
 18 19  1  0  0  0  0
 18 20  1  0  0  0  0
 19 21  2  0  0  0  0
 19 22  1  0  0  0  0
 20 23  1  0  0  0  0
 21 24  1  0  0  0  0
 22 25  2  0  0  0  0
 24 26  2  0  0  0  0
  4  6  1  0  0  0  0
 14 16  1  0  0  0  0
 21 23  1  0  0  0  0
 25 26  1  0  0  0  0
M  END
>  <MolRegNo>
1621989

>  <m>
=

>  <Value>
40000

>  <Unit>
nM

>  <Type>
IC50

>  <pValue>
4.4

>  <Ligand Efficiency>
0

>  <Binding Efficiency>
0

>  <Surface Efficiency>
0

>  <Assay Index>
828329

>  <Assay Category>


>  <Assay Organism>
Homo sapiens

>  <Target ID>
17045

>  <Target Name>
Cytochrome P450 3A4

>  <Target Organism>
Homo sapiens

>  <Target Description>
Target is a single protein chain

>  <Sequence Accession>
P08684

>  <Reference>
Bioorg Med Chem Lett 24 (6), 1506-1510 (2014)

>  <Pubmed ID>
24560540

>  <DOI>
10.1016/j.bmcl.2014.02.004

$$$$
1621988
Actelion Java MolfileCreator 1.0

 28 31  0  0  0  0  0  0  0  0999 V2000
    0.0000   -0.0000   -0.0000 Br  0  0  0  0  0  0  0  0  0  0  0  0
   -0.3792   -1.4459   -0.0000 C   0  0  0  0  0  0  0  0  0  0  0  0
   -1.8251   -1.8488   -0.0000 C   0  0  0  0  0  0  0  0  0  0  0  0
    0.6874   -2.4769   -0.0000 C   0  0  0  0  0  0  0  0  0  0  0  0
   -2.2044   -3.2947   -0.0000 C   0  0  0  0  0  0  0  0  0  0  0  0
   -3.1051   -1.0429   -0.0000 C   0  0  0  0  0  0  0  0  0  0  0  0
    0.3081   -3.9228   -0.0000 C   0  0  0  0  0  0  0  0  0  0  0  0
   -3.7213   -3.3895   -0.0000 N   0  0  0  0  0  0  0  0  0  0  0  0
   -1.1377   -4.3257   -0.0000 C   0  0  0  0  0  0  0  0  0  0  0  0
   -4.2665   -1.9910   -0.0000 C   0  0  0  0  0  0  0  0  0  0  0  0
   -4.5272   -4.6457   -0.0000 C   0  0  0  0  0  0  0  0  0  0  0  0
   -5.7361   -1.6118   -0.0000 C   0  0  0  0  0  0  0  0  0  0  0  0
   -3.8398   -5.9612   -0.0000 O   0  0  0  0  0  0  0  0  0  0  0  0
   -6.0442   -4.5746   -0.0000 C   0  0  0  0  0  0  0  0  0  0  0  0
   -6.8501   -5.8309   -0.0000 C   0  0  0  0  0  0  0  0  0  0  0  0
   -6.3997   -7.2530   -0.0000 N   0  0  0  0  0  0  0  0  0  0  0  0
   -8.3671   -5.8190   -0.0000 C   0  0  0  0  0  0  0  0  0  0  0  0
   -7.6204   -8.1300   -0.0000 C   0  0  0  0  0  0  0  0  0  0  0  0
   -8.8411   -7.2412   -0.0000 S   0  0  0  0  0  0  0  0  0  0  0  0
   -9.2678   -4.5865   -0.0000 C   0  0  0  0  0  0  0  0  0  0  0  0
   -7.6323   -9.6233   -0.0000 N   0  0  0  0  0  0  0  0  0  0  0  0
  -10.7729   -4.7287   -0.0000 O   0  0  0  0  0  0  0  0  0  0  0  0
   -8.6633   -3.1999   -0.0000 O   0  0  0  0  0  0  0  0  0  0  0  0
   -8.9359  -10.3699   -0.0000 C   0  0  0  0  0  0  0  0  0  0  0  0
   -6.3523  -10.3699   -0.0000 C   0  0  0  0  0  0  0  0  0  0  0  0
   -8.9478  -11.8632   -0.0000 C   0  0  0  0  0  0  0  0  0  0  0  0
   -6.3642  -11.8632   -0.0000 C   0  0  0  0  0  0  0  0  0  0  0  0
   -7.6678  -12.5980   -0.0000 O   0  0  0  0  0  0  0  0  0  0  0  0
  1  2  1  0  0  0  0
  2  3  2  0  0  0  0
  2  4  1  0  0  0  0
  3  5  1  0  0  0  0
  3  6  1  0  0  0  0
  4  7  2  0  0  0  0
  5  8  1  0  0  0  0
  5  9  2  0  0  0  0
  6 10  1  0  0  0  0
  8 11  1  0  0  0  0
 10 12  1  0  0  0  0
 11 13  2  0  0  0  0
 11 14  1  0  0  0  0
 14 15  1  0  0  0  0
 15 16  1  0  0  0  0
 15 17  2  0  0  0  0
 16 18  2  0  0  0  0
 17 19  1  0  0  0  0
 17 20  1  0  0  0  0
 18 21  1  0  0  0  0
 20 22  2  0  0  0  0
 20 23  1  0  0  0  0
 21 24  1  0  0  0  0
 21 25  1  0  0  0  0
 24 26  1  0  0  0  0
 25 27  1  0  0  0  0
 26 28  1  0  0  0  0
  7  9  1  0  0  0  0
  8 10  1  0  0  0  0
 18 19  1  0  0  0  0
 27 28  1  0  0  0  0
M  END
>  <MolRegNo>
1621988

>  <m>
=

>  <Value>
40000

>  <Unit>
nM

>  <Type>
IC50

>  <pValue>
4.4

>  <Ligand Efficiency>
0

>  <Binding Efficiency>
0

>  <Surface Efficiency>
0

>  <Assay Index>
828329

>  <Assay Category>


>  <Assay Organism>
Homo sapiens

>  <Target ID>
17045

>  <Target Name>
Cytochrome P450 3A4

>  <Target Organism>
Homo sapiens

>  <Target Description>
Target is a single protein chain

>  <Sequence Accession>
P08684

>  <Reference>
Bioorg Med Chem Lett 24 (6), 1506-1510 (2014)

>  <Pubmed ID>
24560540

>  <DOI>
10.1016/j.bmcl.2014.02.004

$$$$
1621987
Actelion Java MolfileCreator 1.0

 27 30  0  0  0  0  0  0  0  0999 V2000
    0.0000   -0.0000   -0.0000 Br  0  0  0  0  0  0  0  0  0  0  0  0
   -0.3794   -1.4464   -0.0000 C   0  0  0  0  0  0  0  0  0  0  0  0
   -1.8258   -1.8495   -0.0000 C   0  0  0  0  0  0  0  0  0  0  0  0
    0.6876   -2.4779   -0.0000 C   0  0  0  0  0  0  0  0  0  0  0  0
   -2.2052   -3.2960   -0.0000 C   0  0  0  0  0  0  0  0  0  0  0  0
   -3.1063   -1.0433   -0.0000 C   0  0  0  0  0  0  0  0  0  0  0  0
    0.3083   -3.9243   -0.0000 C   0  0  0  0  0  0  0  0  0  0  0  0
   -3.7228   -3.3908   -0.0000 N   0  0  0  0  0  0  0  0  0  0  0  0
   -1.1382   -4.3275   -0.0000 C   0  0  0  0  0  0  0  0  0  0  0  0
   -4.2682   -1.9918   -0.0000 C   0  0  0  0  0  0  0  0  0  0  0  0
   -4.5290   -4.6476   -0.0000 C   0  0  0  0  0  0  0  0  0  0  0  0
   -3.8414   -5.9636   -0.0000 O   0  0  0  0  0  0  0  0  0  0  0  0
   -6.0466   -4.5764   -0.0000 C   0  0  0  0  0  0  0  0  0  0  0  0
   -6.8528   -5.8332   -0.0000 C   0  0  0  0  0  0  0  0  0  0  0  0
   -6.4023   -7.2559   -0.0000 N   0  0  0  0  0  0  0  0  0  0  0  0
   -8.3704   -5.8213   -0.0000 C   0  0  0  0  0  0  0  0  0  0  0  0
   -7.6234   -8.1332   -0.0000 C   0  0  0  0  0  0  0  0  0  0  0  0
   -8.8446   -7.2440   -0.0000 S   0  0  0  0  0  0  0  0  0  0  0  0
   -9.2714   -4.5883   -0.0000 C   0  0  0  0  0  0  0  0  0  0  0  0
   -7.6353   -9.6271   -0.0000 N   0  0  0  0  0  0  0  0  0  0  0  0
  -10.7771   -4.7306   -0.0000 O   0  0  0  0  0  0  0  0  0  0  0  0
   -8.6668   -3.2011   -0.0000 O   0  0  0  0  0  0  0  0  0  0  0  0
   -8.9394  -10.3740   -0.0000 C   0  0  0  0  0  0  0  0  0  0  0  0
   -6.3548  -10.3740   -0.0000 C   0  0  0  0  0  0  0  0  0  0  0  0
   -8.9513  -11.8679   -0.0000 C   0  0  0  0  0  0  0  0  0  0  0  0
   -6.3667  -11.8679   -0.0000 C   0  0  0  0  0  0  0  0  0  0  0  0
   -7.6708  -12.6030   -0.0000 O   0  0  0  0  0  0  0  0  0  0  0  0
  1  2  1  0  0  0  0
  2  3  2  0  0  0  0
  2  4  1  0  0  0  0
  3  5  1  0  0  0  0
  3  6  1  0  0  0  0
  4  7  2  0  0  0  0
  5  8  1  0  0  0  0
  5  9  2  0  0  0  0
  6 10  1  0  0  0  0
  8 11  1  0  0  0  0
 11 12  2  0  0  0  0
 11 13  1  0  0  0  0
 13 14  1  0  0  0  0
 14 15  1  0  0  0  0
 14 16  2  0  0  0  0
 15 17  2  0  0  0  0
 16 18  1  0  0  0  0
 16 19  1  0  0  0  0
 17 20  1  0  0  0  0
 19 21  2  0  0  0  0
 19 22  1  0  0  0  0
 20 23  1  0  0  0  0
 20 24  1  0  0  0  0
 23 25  1  0  0  0  0
 24 26  1  0  0  0  0
 25 27  1  0  0  0  0
  7  9  1  0  0  0  0
  8 10  1  0  0  0  0
 17 18  1  0  0  0  0
 26 27  1  0  0  0  0
M  END
>  <MolRegNo>
1621987

>  <m>
=

>  <Value>
40000

>  <Unit>
nM

>  <Type>
IC50

>  <pValue>
4.4

>  <Ligand Efficiency>
0

>  <Binding Efficiency>
0

>  <Surface Efficiency>
0

>  <Assay Index>
828329

>  <Assay Category>


>  <Assay Organism>
Homo sapiens

>  <Target ID>
17045

>  <Target Name>
Cytochrome P450 3A4

>  <Target Organism>
Homo sapiens

>  <Target Description>
Target is a single protein chain

>  <Sequence Accession>
P08684

>  <Reference>
Bioorg Med Chem Lett 24 (6), 1506-1510 (2014)

>  <Pubmed ID>
24560540

>  <DOI>
10.1016/j.bmcl.2014.02.004

$$$$
1621985
Actelion Java MolfileCreator 1.0

 28 31  0  0  0  0  0  0  0  0999 V2000
    0.0000   -0.0000   -0.0000 S   0  0  0  0  0  0  0  0  0  0  0  0
    1.2095   -0.8775   -0.0000 C   0  0  0  0  0  0  0  0  0  0  0  0
    0.4506    1.4466   -0.0000 C   0  0  0  0  0  0  0  0  0  0  0  0
    2.4071    0.0237   -0.0000 N   0  0  0  0  0  0  0  0  0  0  0  0
    1.1976   -2.3715   -0.0000 N   0  0  0  0  0  0  0  0  0  0  0  0
    1.9446    1.4585   -0.0000 C   0  0  0  0  0  0  0  0  0  0  0  0
   -0.4506    2.6798   -0.0000 C   0  0  0  0  0  0  0  0  0  0  0  0
   -0.1067   -3.1185   -0.0000 C   0  0  0  0  0  0  0  0  0  0  0  0
    2.4782   -3.1185   -0.0000 C   0  0  0  0  0  0  0  0  0  0  0  0
    2.7272    2.7391   -0.0000 C   0  0  0  0  0  0  0  0  0  0  0  0
   -1.9565    2.5375   -0.0000 O   0  0  0  0  0  0  0  0  0  0  0  0
    0.1541    4.0671   -0.0000 O   0  0  0  0  0  0  0  0  0  0  0  0
   -0.1186   -4.6126   -0.0000 C   0  0  0  0  0  0  0  0  0  0  0  0
    2.4664   -4.6126   -0.0000 C   0  0  0  0  0  0  0  0  0  0  0  0
    4.2213    2.6917   -0.0000 C   0  0  0  0  0  0  0  0  0  0  0  0
    1.1620   -5.3477   -0.0000 O   0  0  0  0  0  0  0  0  0  0  0  0
    4.9090    1.3755   -0.0000 O   0  0  0  0  0  0  0  0  0  0  0  0
    5.0039    3.9723   -0.0000 N   0  0  0  0  0  0  0  0  0  0  0  0
    6.4979    4.0909   -0.0000 C   0  0  0  0  0  0  0  0  0  0  0  0
    4.4347    5.3833   -0.0000 C   0  0  0  0  0  0  0  0  0  0  0  0
    6.8537    5.5612   -0.0000 C   0  0  0  0  0  0  0  0  0  0  0  0
    7.5651    3.0592   -0.0000 C   0  0  0  0  0  0  0  0  0  0  0  0
    5.5730    6.3556   -0.0000 C   0  0  0  0  0  0  0  0  0  0  0  0
    2.9644    5.7628   -0.0000 C   0  0  0  0  0  0  0  0  0  0  0  0
    8.2766    5.9881   -0.0000 C   0  0  0  0  0  0  0  0  0  0  0  0
    8.9999    3.4861   -0.0000 C   0  0  0  0  0  0  0  0  0  0  0  0
    9.3437    4.9565   -0.0000 C   0  0  0  0  0  0  0  0  0  0  0  0
   10.7785    5.3833   -0.0000 F   0  0  0  0  0  0  0  0  0  0  0  0
  1  2  1  0  0  0  0
  1  3  1  0  0  0  0
  2  4  2  0  0  0  0
  2  5  1  0  0  0  0
  3  6  2  0  0  0  0
  3  7  1  0  0  0  0
  5  8  1  0  0  0  0
  5  9  1  0  0  0  0
  6 10  1  0  0  0  0
  7 11  2  0  0  0  0
  7 12  1  0  0  0  0
  8 13  1  0  0  0  0
  9 14  1  0  0  0  0
 10 15  1  0  0  0  0
 13 16  1  0  0  0  0
 15 17  2  0  0  0  0
 15 18  1  0  0  0  0
 18 19  1  0  0  0  0
 18 20  1  0  0  0  0
 19 21  2  0  0  0  0
 19 22  1  0  0  0  0
 20 23  1  0  0  0  0
 20 24  1  0  0  0  0
 21 25  1  0  0  0  0
 22 26  2  0  0  0  0
 25 27  2  0  0  0  0
 27 28  1  0  0  0  0
  4  6  1  0  0  0  0
 14 16  1  0  0  0  0
 21 23  1  0  0  0  0
 26 27  1  0  0  0  0
M  END
>  <MolRegNo>
1621985

>  <m>
=

>  <Value>
40000

>  <Unit>
nM

>  <Type>
IC50

>  <pValue>
4.4

>  <Ligand Efficiency>
0

>  <Binding Efficiency>
0

>  <Surface Efficiency>
0

>  <Assay Index>
828329

>  <Assay Category>


>  <Assay Organism>
Homo sapiens

>  <Target ID>
17045

>  <Target Name>
Cytochrome P450 3A4

>  <Target Organism>
Homo sapiens

>  <Target Description>
Target is a single protein chain

>  <Sequence Accession>
P08684

>  <Reference>
Bioorg Med Chem Lett 24 (6), 1506-1510 (2014)

>  <Pubmed ID>
24560540

>  <DOI>
10.1016/j.bmcl.2014.02.004

$$$$
1621984
Actelion Java MolfileCreator 1.0

 27 30  0  0  0  0  0  0  0  0999 V2000
    0.0000   -0.0000   -0.0000 S   0  0  0  0  0  0  0  0  0  0  0  0
    1.2100   -0.8778   -0.0000 C   0  0  0  0  0  0  0  0  0  0  0  0
    0.4508    1.4472   -0.0000 C   0  0  0  0  0  0  0  0  0  0  0  0
    2.4081    0.0237   -0.0000 N   0  0  0  0  0  0  0  0  0  0  0  0
    1.1981   -2.3725   -0.0000 N   0  0  0  0  0  0  0  0  0  0  0  0
    1.9454    1.4591   -0.0000 C   0  0  0  0  0  0  0  0  0  0  0  0
   -0.4508    2.6809   -0.0000 C   0  0  0  0  0  0  0  0  0  0  0  0
   -0.1068   -3.1198   -0.0000 C   0  0  0  0  0  0  0  0  0  0  0  0
    2.4792   -3.1198   -0.0000 C   0  0  0  0  0  0  0  0  0  0  0  0
    2.7284    2.7402   -0.0000 C   0  0  0  0  0  0  0  0  0  0  0  0
   -1.9573    2.5386   -0.0000 O   0  0  0  0  0  0  0  0  0  0  0  0
    0.1542    4.0688   -0.0000 O   0  0  0  0  0  0  0  0  0  0  0  0
   -0.1186   -4.6145   -0.0000 C   0  0  0  0  0  0  0  0  0  0  0  0
    2.4674   -4.6145   -0.0000 C   0  0  0  0  0  0  0  0  0  0  0  0
    4.2230    2.6928   -0.0000 C   0  0  0  0  0  0  0  0  0  0  0  0
    1.1625   -5.3500   -0.0000 O   0  0  0  0  0  0  0  0  0  0  0  0
    4.9110    1.3760   -0.0000 O   0  0  0  0  0  0  0  0  0  0  0  0
    5.0059    3.9739   -0.0000 N   0  0  0  0  0  0  0  0  0  0  0  0
    6.5006    4.0925   -0.0000 C   0  0  0  0  0  0  0  0  0  0  0  0
    4.4365    5.3855   -0.0000 C   0  0  0  0  0  0  0  0  0  0  0  0
    6.8565    5.5635   -0.0000 C   0  0  0  0  0  0  0  0  0  0  0  0
    7.5682    3.0605   -0.0000 C   0  0  0  0  0  0  0  0  0  0  0  0
    5.5753    6.3583   -0.0000 C   0  0  0  0  0  0  0  0  0  0  0  0
    8.2800    5.9905   -0.0000 C   0  0  0  0  0  0  0  0  0  0  0  0
    9.0036    3.4876   -0.0000 C   0  0  0  0  0  0  0  0  0  0  0  0
    9.3476    4.9585   -0.0000 C   0  0  0  0  0  0  0  0  0  0  0  0
   10.7829    5.3855   -0.0000 F   0  0  0  0  0  0  0  0  0  0  0  0
  1  2  1  0  0  0  0
  1  3  1  0  0  0  0
  2  4  2  0  0  0  0
  2  5  1  0  0  0  0
  3  6  2  0  0  0  0
  3  7  1  0  0  0  0
  5  8  1  0  0  0  0
  5  9  1  0  0  0  0
  6 10  1  0  0  0  0
  7 11  2  0  0  0  0
  7 12  1  0  0  0  0
  8 13  1  0  0  0  0
  9 14  1  0  0  0  0
 10 15  1  0  0  0  0
 13 16  1  0  0  0  0
 15 17  2  0  0  0  0
 15 18  1  0  0  0  0
 18 19  1  0  0  0  0
 18 20  1  0  0  0  0
 19 21  2  0  0  0  0
 19 22  1  0  0  0  0
 20 23  1  0  0  0  0
 21 24  1  0  0  0  0
 22 25  2  0  0  0  0
 24 26  2  0  0  0  0
 26 27  1  0  0  0  0
  4  6  1  0  0  0  0
 14 16  1  0  0  0  0
 21 23  1  0  0  0  0
 25 26  1  0  0  0  0
M  END
>  <MolRegNo>
1621984

>  <m>
=

>  <Value>
40000

>  <Unit>
nM

>  <Type>
IC50

>  <pValue>
4.4

>  <Ligand Efficiency>
0

>  <Binding Efficiency>
0

>  <Surface Efficiency>
0

>  <Assay Index>
828329

>  <Assay Category>


>  <Assay Organism>
Homo sapiens

>  <Target ID>
17045

>  <Target Name>
Cytochrome P450 3A4

>  <Target Organism>
Homo sapiens

>  <Target Description>
Target is a single protein chain

>  <Sequence Accession>
P08684

>  <Reference>
Bioorg Med Chem Lett 24 (6), 1506-1510 (2014)

>  <Pubmed ID>
24560540

>  <DOI>
10.1016/j.bmcl.2014.02.004

$$$$
1621983
Actelion Java MolfileCreator 1.0

 28 31  0  0  0  0  0  0  0  0999 V2000
    0.0000   -0.0000   -0.0000 Cl  0  0  0  0  0  0  0  0  0  0  0  0
   -0.3792   -1.4459   -0.0000 C   0  0  0  0  0  0  0  0  0  0  0  0
   -1.8251   -1.8488   -0.0000 C   0  0  0  0  0  0  0  0  0  0  0  0
    0.6874   -2.4769   -0.0000 C   0  0  0  0  0  0  0  0  0  0  0  0
   -2.2044   -3.2947   -0.0000 C   0  0  0  0  0  0  0  0  0  0  0  0
   -3.1051   -1.0429   -0.0000 C   0  0  0  0  0  0  0  0  0  0  0  0
    0.3081   -3.9228   -0.0000 C   0  0  0  0  0  0  0  0  0  0  0  0
   -3.7213   -3.3895   -0.0000 N   0  0  0  0  0  0  0  0  0  0  0  0
   -1.1377   -4.3257   -0.0000 C   0  0  0  0  0  0  0  0  0  0  0  0
   -4.2665   -1.9910   -0.0000 C   0  0  0  0  0  0  0  0  0  0  0  0
   -4.5272   -4.6457   -0.0000 C   0  0  0  0  0  0  0  0  0  0  0  0
   -5.7361   -1.6118   -0.0000 C   0  0  0  0  0  0  0  0  0  0  0  0
   -3.8398   -5.9612   -0.0000 O   0  0  0  0  0  0  0  0  0  0  0  0
   -6.0442   -4.5746   -0.0000 C   0  0  0  0  0  0  0  0  0  0  0  0
   -6.8501   -5.8309   -0.0000 C   0  0  0  0  0  0  0  0  0  0  0  0
   -6.3997   -7.2530   -0.0000 N   0  0  0  0  0  0  0  0  0  0  0  0
   -8.3671   -5.8190   -0.0000 C   0  0  0  0  0  0  0  0  0  0  0  0
   -7.6204   -8.1300   -0.0000 C   0  0  0  0  0  0  0  0  0  0  0  0
   -8.8411   -7.2412   -0.0000 S   0  0  0  0  0  0  0  0  0  0  0  0
   -9.2678   -4.5865   -0.0000 C   0  0  0  0  0  0  0  0  0  0  0  0
   -7.6323   -9.6233   -0.0000 N   0  0  0  0  0  0  0  0  0  0  0  0
  -10.7729   -4.7287   -0.0000 O   0  0  0  0  0  0  0  0  0  0  0  0
   -8.6633   -3.1999   -0.0000 O   0  0  0  0  0  0  0  0  0  0  0  0
   -8.9359  -10.3699   -0.0000 C   0  0  0  0  0  0  0  0  0  0  0  0
   -6.3523  -10.3699   -0.0000 C   0  0  0  0  0  0  0  0  0  0  0  0
   -8.9478  -11.8632   -0.0000 C   0  0  0  0  0  0  0  0  0  0  0  0
   -6.3642  -11.8632   -0.0000 C   0  0  0  0  0  0  0  0  0  0  0  0
   -7.6678  -12.5980   -0.0000 O   0  0  0  0  0  0  0  0  0  0  0  0
  1  2  1  0  0  0  0
  2  3  2  0  0  0  0
  2  4  1  0  0  0  0
  3  5  1  0  0  0  0
  3  6  1  0  0  0  0
  4  7  2  0  0  0  0
  5  8  1  0  0  0  0
  5  9  2  0  0  0  0
  6 10  1  0  0  0  0
  8 11  1  0  0  0  0
 10 12  1  0  0  0  0
 11 13  2  0  0  0  0
 11 14  1  0  0  0  0
 14 15  1  0  0  0  0
 15 16  1  0  0  0  0
 15 17  2  0  0  0  0
 16 18  2  0  0  0  0
 17 19  1  0  0  0  0
 17 20  1  0  0  0  0
 18 21  1  0  0  0  0
 20 22  2  0  0  0  0
 20 23  1  0  0  0  0
 21 24  1  0  0  0  0
 21 25  1  0  0  0  0
 24 26  1  0  0  0  0
 25 27  1  0  0  0  0
 26 28  1  0  0  0  0
  7  9  1  0  0  0  0
  8 10  1  0  0  0  0
 18 19  1  0  0  0  0
 27 28  1  0  0  0  0
M  END
>  <MolRegNo>
1621983

>  <m>
=

>  <Value>
40000

>  <Unit>
nM

>  <Type>
IC50

>  <pValue>
4.4

>  <Ligand Efficiency>
0

>  <Binding Efficiency>
0

>  <Surface Efficiency>
0

>  <Assay Index>
828329

>  <Assay Category>


>  <Assay Organism>
Homo sapiens

>  <Target ID>
17045

>  <Target Name>
Cytochrome P450 3A4

>  <Target Organism>
Homo sapiens

>  <Target Description>
Target is a single protein chain

>  <Sequence Accession>
P08684

>  <Reference>
Bioorg Med Chem Lett 24 (6), 1506-1510 (2014)

>  <Pubmed ID>
24560540

>  <DOI>
10.1016/j.bmcl.2014.02.004

$$$$
1621982
Actelion Java MolfileCreator 1.0

 27 30  0  0  0  0  0  0  0  0999 V2000
    0.0000   -0.0000   -0.0000 Cl  0  0  0  0  0  0  0  0  0  0  0  0
   -0.3794   -1.4464   -0.0000 C   0  0  0  0  0  0  0  0  0  0  0  0
   -1.8258   -1.8495   -0.0000 C   0  0  0  0  0  0  0  0  0  0  0  0
    0.6876   -2.4779   -0.0000 C   0  0  0  0  0  0  0  0  0  0  0  0
   -2.2052   -3.2960   -0.0000 C   0  0  0  0  0  0  0  0  0  0  0  0
   -3.1063   -1.0433   -0.0000 C   0  0  0  0  0  0  0  0  0  0  0  0
    0.3083   -3.9243   -0.0000 C   0  0  0  0  0  0  0  0  0  0  0  0
   -3.7228   -3.3908   -0.0000 N   0  0  0  0  0  0  0  0  0  0  0  0
   -1.1382   -4.3275   -0.0000 C   0  0  0  0  0  0  0  0  0  0  0  0
   -4.2682   -1.9918   -0.0000 C   0  0  0  0  0  0  0  0  0  0  0  0
   -4.5290   -4.6476   -0.0000 C   0  0  0  0  0  0  0  0  0  0  0  0
   -3.8414   -5.9636   -0.0000 O   0  0  0  0  0  0  0  0  0  0  0  0
   -6.0466   -4.5764   -0.0000 C   0  0  0  0  0  0  0  0  0  0  0  0
   -6.8528   -5.8332   -0.0000 C   0  0  0  0  0  0  0  0  0  0  0  0
   -6.4023   -7.2559   -0.0000 N   0  0  0  0  0  0  0  0  0  0  0  0
   -8.3704   -5.8213   -0.0000 C   0  0  0  0  0  0  0  0  0  0  0  0
   -7.6234   -8.1332   -0.0000 C   0  0  0  0  0  0  0  0  0  0  0  0
   -8.8446   -7.2440   -0.0000 S   0  0  0  0  0  0  0  0  0  0  0  0
   -9.2714   -4.5883   -0.0000 C   0  0  0  0  0  0  0  0  0  0  0  0
   -7.6353   -9.6271   -0.0000 N   0  0  0  0  0  0  0  0  0  0  0  0
  -10.7771   -4.7306   -0.0000 O   0  0  0  0  0  0  0  0  0  0  0  0
   -8.6668   -3.2011   -0.0000 O   0  0  0  0  0  0  0  0  0  0  0  0
   -8.9394  -10.3740   -0.0000 C   0  0  0  0  0  0  0  0  0  0  0  0
   -6.3548  -10.3740   -0.0000 C   0  0  0  0  0  0  0  0  0  0  0  0
   -8.9513  -11.8679   -0.0000 C   0  0  0  0  0  0  0  0  0  0  0  0
   -6.3667  -11.8679   -0.0000 C   0  0  0  0  0  0  0  0  0  0  0  0
   -7.6708  -12.6030   -0.0000 O   0  0  0  0  0  0  0  0  0  0  0  0
  1  2  1  0  0  0  0
  2  3  2  0  0  0  0
  2  4  1  0  0  0  0
  3  5  1  0  0  0  0
  3  6  1  0  0  0  0
  4  7  2  0  0  0  0
  5  8  1  0  0  0  0
  5  9  2  0  0  0  0
  6 10  1  0  0  0  0
  8 11  1  0  0  0  0
 11 12  2  0  0  0  0
 11 13  1  0  0  0  0
 13 14  1  0  0  0  0
 14 15  1  0  0  0  0
 14 16  2  0  0  0  0
 15 17  2  0  0  0  0
 16 18  1  0  0  0  0
 16 19  1  0  0  0  0
 17 20  1  0  0  0  0
 19 21  2  0  0  0  0
 19 22  1  0  0  0  0
 20 23  1  0  0  0  0
 20 24  1  0  0  0  0
 23 25  1  0  0  0  0
 24 26  1  0  0  0  0
 25 27  1  0  0  0  0
  7  9  1  0  0  0  0
  8 10  1  0  0  0  0
 17 18  1  0  0  0  0
 26 27  1  0  0  0  0
M  END
>  <MolRegNo>
1621982

>  <m>
=

>  <Value>
40000

>  <Unit>
nM

>  <Type>
IC50

>  <pValue>
4.4

>  <Ligand Efficiency>
0

>  <Binding Efficiency>
0

>  <Surface Efficiency>
0

>  <Assay Index>
828329

>  <Assay Category>


>  <Assay Organism>
Homo sapiens

>  <Target ID>
17045

>  <Target Name>
Cytochrome P450 3A4

>  <Target Organism>
Homo sapiens

>  <Target Description>
Target is a single protein chain

>  <Sequence Accession>
P08684

>  <Reference>
Bioorg Med Chem Lett 24 (6), 1506-1510 (2014)

>  <Pubmed ID>
24560540

>  <DOI>
10.1016/j.bmcl.2014.02.004

$$$$
1622996
Actelion Java MolfileCreator 1.0

 42 43  0  0  0  0  0  0  0  0999 V2000
    0.0000   -0.0000   -0.0000 S   0  0  0  0  0  0  0  0  0  0  0  0
   -0.7579    1.3145   -0.0000 O   0  0  0  0  0  0  0  0  0  0  0  0
   -1.5040    0.0237   -0.0000 O   0  0  0  0  0  0  0  0  0  0  0  0
   -0.0118   -1.4921   -0.0000 C   0  0  0  0  0  0  0  0  0  0  0  0
    1.1961    0.8882   -0.0000 C   0  0  0  0  0  0  0  0  0  0  0  0
   -1.3145   -2.2264   -0.0000 C   0  0  0  0  0  0  0  0  0  0  0  0
    1.2790   -2.2145   -0.0000 C   0  0  0  0  0  0  0  0  0  0  0  0
    2.6053    0.4500   -0.0000 C   0  0  0  0  0  0  0  0  0  0  0  0
    1.1842    2.3922   -0.0000 C   0  0  0  0  0  0  0  0  0  0  0  0
   -1.3263   -3.7067   -0.0000 C   0  0  0  0  0  0  0  0  0  0  0  0
    1.2671   -3.7067   -0.0000 C   0  0  0  0  0  0  0  0  0  0  0  0
    3.4698    1.6698   -0.0000 C   0  0  0  0  0  0  0  0  0  0  0  0
    2.5935    2.8658   -0.0000 C   0  0  0  0  0  0  0  0  0  0  0  0
   -0.0355   -4.4409   -0.0000 C   0  0  0  0  0  0  0  0  0  0  0  0
   -2.6290   -4.4409   -0.0000 C   0  0  0  0  0  0  0  0  0  0  0  0
   -3.9435   -3.6830   -0.0000 C   0  0  0  0  0  0  0  0  0  0  0  0
   -5.2462   -4.4290   -0.0000 C   0  0  0  0  0  0  0  0  0  0  0  0
   -6.5488   -3.6593   -0.0000 C   0  0  0  0  0  0  0  0  0  0  0  0
   -7.8515   -4.4054   -0.0000 O   0  0  0  0  0  0  0  0  0  0  0  0
   -9.1660   -3.6356   -0.0000 C   0  0  0  0  0  0  0  0  0  0  0  0
  -10.4686   -4.3817   -0.0000 C   0  0  0  0  0  0  0  0  0  0  0  0
  -11.7713   -3.6119   -0.0000 C   0  0  0  0  0  0  0  0  0  0  0  0
  -13.0740   -4.3580   -0.0000 C   0  0  0  0  0  0  0  0  0  0  0  0
  -14.3885   -3.5882   -0.0000 C   0  0  0  0  0  0  0  0  0  0  0  0
  -15.6911   -4.3343   -0.0000 C   0  0  0  0  0  0  0  0  0  0  0  0
  -16.9938   -3.5645   -0.0000 N   0  0  0  0  0  0  0  0  0  0  0  0
  -18.2964   -4.3106   -0.0000 C   0  0  0  0  0  0  0  0  0  0  0  0
  -19.5991   -3.5409   -0.0000 C   0  0  0  0  0  0  0  0  0  0  0  0
  -19.6109   -2.0369   -0.0000 O   0  0  0  0  0  0  0  0  0  0  0  0
  -20.9136   -4.2869   -0.0000 C   0  0  0  0  0  0  0  0  0  0  0  0
  -22.2162   -3.5172   -0.0000 C   0  0  0  0  0  0  0  0  0  0  0  0
  -20.9254   -5.7672   -0.0000 C   0  0  0  0  0  0  0  0  0  0  0  0
  -23.5189   -4.2632   -0.0000 C   0  0  0  0  0  0  0  0  0  0  0  0
  -22.2281   -6.5133   -0.0000 C   0  0  0  0  0  0  0  0  0  0  0  0
  -23.5307   -5.7435   -0.0000 C   0  0  0  0  0  0  0  0  0  0  0  0
  -24.8216   -3.4935   -0.0000 C   0  0  0  0  0  0  0  0  0  0  0  0
  -24.8334   -6.4896   -0.0000 O   0  0  0  0  0  0  0  0  0  0  0  0
  -26.1361   -4.2396   -0.0000 O   0  0  0  0  0  0  0  0  0  0  0  0
    6.8212   -0.6632   -0.0000 O   0  0  0  0  0  0  0  0  0  0  0  0
    6.0633   -1.9540   -0.0000 C   0  0  0  0  0  0  0  0  0  0  0  0
    6.7975   -3.2330   -0.0000 O   0  0  0  0  0  0  0  0  0  0  0  0
    4.5593   -1.9421   -0.0000 C   0  0  0  0  0  0  0  0  0  0  0  0
  1  2  2  0  0  0  0
  1  3  2  0  0  0  0
  1  4  1  0  0  0  0
  1  5  1  0  0  0  0
  4  6  2  0  0  0  0
  4  7  1  0  0  0  0
  5  8  1  0  0  0  0
  5  9  1  0  0  0  0
  6 10  1  0  0  0  0
  7 11  2  0  0  0  0
  8 12  1  0  0  0  0
  9 13  1  0  0  0  0
 10 14  2  0  0  0  0
 10 15  1  0  0  0  0
 15 16  1  0  0  0  0
 16 17  1  0  0  0  0
 17 18  1  0  0  0  0
 18 19  1  0  0  0  0
 19 20  1  0  0  0  0
 20 21  1  0  0  0  0
 21 22  1  0  0  0  0
 22 23  1  0  0  0  0
 23 24  1  0  0  0  0
 24 25  1  0  0  0  0
 25 26  1  0  0  0  0
 26 27  1  0  0  0  0
 27 28  1  0  0  0  0
 28 29  1  1  0  0  0
 28 30  1  0  0  0  0
 30 31  2  0  0  0  0
 30 32  1  0  0  0  0
 31 33  1  0  0  0  0
 32 34  2  0  0  0  0
 33 35  2  0  0  0  0
 33 36  1  0  0  0  0
 35 37  1  0  0  0  0
 36 38  1  0  0  0  0
 39 40  2  0  0  0  0
 40 41  1  0  0  0  0
 40 42  1  0  0  0  0
 11 14  1  0  0  0  0
 12 13  1  0  0  0  0
 34 35  1  0  0  0  0
M  END
>  <MolRegNo>
1622996

>  <m>
=

>  <Value>
3800

>  <Unit>
nM

>  <Type>
IC50

>  <pValue>
5.42

>  <Ligand Efficiency>
0

>  <Binding Efficiency>
0

>  <Surface Efficiency>
0

>  <Assay Index>
830726

>  <Assay Category>


>  <Assay Organism>
Homo sapiens

>  <Target ID>
17045

>  <Target Name>
Cytochrome P450 3A4

>  <Target Organism>
Homo sapiens

>  <Target Description>
Target is a single protein chain

>  <Sequence Accession>
P08684

>  <Reference>
J Med Chem 57 (1), 159-170 (2014)

>  <Pubmed ID>
24359185

>  <DOI>
10.1021/jm401532g

$$$$
1624120
Actelion Java MolfileCreator 1.0

 32 36  0  0  0  0  0  0  0  0999 V2000
    0.0000   -0.0000   -0.0000 S   0  0  0  0  0  0  0  0  0  0  0  0
    0.7357    1.3171   -0.0000 O   0  0  0  0  0  0  0  0  0  0  0  0
   -0.7594    1.3171   -0.0000 O   0  0  0  0  0  0  0  0  0  0  0  0
   -1.3171   -0.7357   -0.0000 C   0  0  0  0  0  0  0  0  0  0  0  0
    1.2933   -0.7357   -0.0000 C   0  0  0  0  0  0  0  0  0  0  0  0
   -1.3289   -2.2307   -0.0000 C   0  0  0  0  0  0  0  0  0  0  0  0
   -2.6341    0.0237   -0.0000 C   0  0  0  0  0  0  0  0  0  0  0  0
    2.5392    0.1068   -0.0000 C   0  0  0  0  0  0  0  0  0  0  0  0
    1.6849   -2.1595   -0.0000 C   0  0  0  0  0  0  0  0  0  0  0  0
   -2.6460   -2.9663   -0.0000 C   0  0  0  0  0  0  0  0  0  0  0  0
   -3.9393   -0.7119   -0.0000 C   0  0  0  0  0  0  0  0  0  0  0  0
    3.7020   -0.8187   -0.0000 N   0  0  0  0  0  0  0  0  0  0  0  0
    3.1681   -2.2188   -0.0000 N   0  0  0  0  0  0  0  0  0  0  0  0
   -3.9512   -2.1951   -0.0000 C   0  0  0  0  0  0  0  0  0  0  0  0
    3.9868   -3.4647   -0.0000 C   0  0  0  0  0  0  0  0  0  0  0  0
   -5.2682   -2.9307   -0.0000 N   0  0  0  0  0  0  0  0  0  0  0  0
    3.2986   -4.7936   -0.0000 C   0  0  0  0  0  0  0  0  0  0  0  0
    5.4699   -3.3579   -0.0000 C   0  0  0  0  0  0  0  0  0  0  0  0
   -6.5734   -2.1714   -0.0000 C   0  0  0  0  0  0  0  0  0  0  0  0
    4.1054   -6.0276   -0.0000 C   0  0  0  0  0  0  0  0  0  0  0  0
    6.2768   -4.6038   -0.0000 C   0  0  0  0  0  0  0  0  0  0  0  0
   -6.5853   -0.6645   -0.0000 O   0  0  0  0  0  0  0  0  0  0  0  0
   -7.8905   -2.9070   -0.0000 C   0  0  0  0  0  0  0  0  0  0  0  0
    5.5886   -5.9327   -0.0000 O   0  0  0  0  0  0  0  0  0  0  0  0
   -9.3974   -2.8952   -0.0000 C   0  0  0  0  0  0  0  0  0  0  0  0
   -8.6499   -4.2003   -0.0000 C   0  0  0  0  0  0  0  0  0  0  0  0
  -10.7144   -3.6308   -0.0000 C   0  0  0  0  0  0  0  0  0  0  0  0
  -12.0196   -2.8477   -0.0000 C   0  0  0  0  0  0  0  0  0  0  0  0
  -10.7382   -5.1140   -0.0000 C   0  0  0  0  0  0  0  0  0  0  0  0
  -13.3367   -3.5715   -0.0000 N   0  0  0  0  0  0  0  0  0  0  0  0
  -12.0552   -5.8496   -0.0000 C   0  0  0  0  0  0  0  0  0  0  0  0
  -13.3604   -5.0665   -0.0000 C   0  0  0  0  0  0  0  0  0  0  0  0
  1  2  2  0  0  0  0
  1  3  2  0  0  0  0
  1  4  1  0  0  0  0
  1  5  1  0  0  0  0
  4  6  2  0  0  0  0
  4  7  1  0  0  0  0
  5  8  1  0  0  0  0
  5  9  2  0  0  0  0
  6 10  1  0  0  0  0
  7 11  2  0  0  0  0
  8 12  2  0  0  0  0
  9 13  1  0  0  0  0
 10 14  2  0  0  0  0
 13 15  1  0  0  0  0
 14 16  1  0  0  0  0
 15 17  1  0  0  0  0
 15 18  1  0  0  0  0
 16 19  1  0  0  0  0
 17 20  1  0  0  0  0
 18 21  1  0  0  0  0
 19 22  2  0  0  0  0
 23 19  1  1  0  0  0
 20 24  1  0  0  0  0
 23 25  1  0  0  0  0
 23 26  1  0  0  0  0
 25 27  1  6  0  0  0
 27 28  2  0  0  0  0
 27 29  1  0  0  0  0
 28 30  1  0  0  0  0
 29 31  2  0  0  0  0
 30 32  2  0  0  0  0
 11 14  1  0  0  0  0
 12 13  1  0  0  0  0
 21 24  1  0  0  0  0
 25 26  1  0  0  0  0
 31 32  1  0  0  0  0
M  END
>  <MolRegNo>
1624120

>  <m>
=

>  <Value>
1800

>  <Unit>
nM

>  <Type>
IC50

>  <pValue>
5.75

>  <Ligand Efficiency>
0

>  <Binding Efficiency>
0

>  <Surface Efficiency>
0

>  <Assay Index>
829212

>  <Assay Category>


>  <Assay Organism>
Homo sapiens

>  <Target ID>
17045

>  <Target Name>
Cytochrome P450 3A4

>  <Target Organism>
Homo sapiens

>  <Target Description>
Target is a single protein chain

>  <Sequence Accession>
P08684

>  <Reference>
J Med Chem 57 (3), 770-792 (2014)

>  <Pubmed ID>
24405419

>  <DOI>
10.1021/jm4015108

$$$$
1624136
Actelion Java MolfileCreator 1.0

 29 32  0  0  0  0  0  0  0  0999 V2000
    0.0000   -0.0000   -0.0000 S   0  0  0  0  0  0  0  0  0  0  0  0
    0.7352    1.3162   -0.0000 O   0  0  0  0  0  0  0  0  0  0  0  0
   -0.7589    1.3043   -0.0000 O   0  0  0  0  0  0  0  0  0  0  0  0
   -1.3043   -0.7352   -0.0000 C   0  0  0  0  0  0  0  0  0  0  0  0
    1.2925   -0.7352   -0.0000 C   0  0  0  0  0  0  0  0  0  0  0  0
   -1.3162   -2.2292   -0.0000 C   0  0  0  0  0  0  0  0  0  0  0  0
   -2.6205    0.0237   -0.0000 C   0  0  0  0  0  0  0  0  0  0  0  0
    2.5375    0.1067   -0.0000 C   0  0  0  0  0  0  0  0  0  0  0  0
    1.6838   -2.1581   -0.0000 C   0  0  0  0  0  0  0  0  0  0  0  0
   -2.6324   -2.9644   -0.0000 C   0  0  0  0  0  0  0  0  0  0  0  0
   -3.9249   -0.7115   -0.0000 C   0  0  0  0  0  0  0  0  0  0  0  0
    3.6996   -0.8182   -0.0000 N   0  0  0  0  0  0  0  0  0  0  0  0
    3.1660   -2.2174   -0.0000 N   0  0  0  0  0  0  0  0  0  0  0  0
   -3.9367   -2.1937   -0.0000 C   0  0  0  0  0  0  0  0  0  0  0  0
    3.9842   -3.4624   -0.0000 C   0  0  0  0  0  0  0  0  0  0  0  0
   -5.2529   -2.9288   -0.0000 N   0  0  0  0  0  0  0  0  0  0  0  0
    5.4664   -3.3676   -0.0000 C   0  0  0  0  0  0  0  0  0  0  0  0
    3.2964   -4.7905   -0.0000 C   0  0  0  0  0  0  0  0  0  0  0  0
   -6.5573   -2.1699   -0.0000 C   0  0  0  0  0  0  0  0  0  0  0  0
   -6.5691   -0.6640   -0.0000 O   0  0  0  0  0  0  0  0  0  0  0  0
   -7.8735   -2.9051   -0.0000 C   0  0  0  0  0  0  0  0  0  0  0  0
   -9.3794   -2.8933   -0.0000 C   0  0  0  0  0  0  0  0  0  0  0  0
   -8.6323   -4.1976   -0.0000 C   0  0  0  0  0  0  0  0  0  0  0  0
  -10.6956   -3.6166   -0.0000 C   0  0  0  0  0  0  0  0  0  0  0  0
  -11.9999   -2.8340   -0.0000 C   0  0  0  0  0  0  0  0  0  0  0  0
  -10.7193   -5.0988   -0.0000 C   0  0  0  0  0  0  0  0  0  0  0  0
  -13.3161   -3.5573   -0.0000 N   0  0  0  0  0  0  0  0  0  0  0  0
  -12.0355   -5.8339   -0.0000 C   0  0  0  0  0  0  0  0  0  0  0  0
  -13.3398   -5.0513   -0.0000 C   0  0  0  0  0  0  0  0  0  0  0  0
  1  2  2  0  0  0  0
  1  3  2  0  0  0  0
  1  4  1  0  0  0  0
  1  5  1  0  0  0  0
  4  6  2  0  0  0  0
  4  7  1  0  0  0  0
  5  8  1  0  0  0  0
  5  9  2  0  0  0  0
  6 10  1  0  0  0  0
  7 11  2  0  0  0  0
  8 12  2  0  0  0  0
  9 13  1  0  0  0  0
 10 14  2  0  0  0  0
 13 15  1  0  0  0  0
 14 16  1  0  0  0  0
 15 17  1  0  0  0  0
 15 18  1  0  0  0  0
 16 19  1  0  0  0  0
 19 20  2  0  0  0  0
 21 19  1  1  0  0  0
 21 22  1  0  0  0  0
 21 23  1  0  0  0  0
 22 24  1  6  0  0  0
 24 25  2  0  0  0  0
 24 26  1  0  0  0  0
 25 27  1  0  0  0  0
 26 28  2  0  0  0  0
 27 29  2  0  0  0  0
 11 14  1  0  0  0  0
 12 13  1  0  0  0  0
 22 23  1  0  0  0  0
 28 29  1  0  0  0  0
M  END
>  <MolRegNo>
1624136

>  <m>
=

>  <Value>
1900

>  <Unit>
nM

>  <Type>
IC50

>  <pValue>
5.72

>  <Ligand Efficiency>
0

>  <Binding Efficiency>
0

>  <Surface Efficiency>
0

>  <Assay Index>
829212

>  <Assay Category>


>  <Assay Organism>
Homo sapiens

>  <Target ID>
17045

>  <Target Name>
Cytochrome P450 3A4

>  <Target Organism>
Homo sapiens

>  <Target Description>
Target is a single protein chain

>  <Sequence Accession>
P08684

>  <Reference>
J Med Chem 57 (3), 770-792 (2014)

>  <Pubmed ID>
24405419

>  <DOI>
10.1021/jm4015108

$$$$
1624133
Actelion Java MolfileCreator 1.0

 29 32  0  0  0  0  0  0  0  0999 V2000
    0.0000   -0.0000   -0.0000 S   0  0  0  0  0  0  0  0  0  0  0  0
    0.7353    1.3164   -0.0000 O   0  0  0  0  0  0  0  0  0  0  0  0
   -0.7590    1.3045   -0.0000 O   0  0  0  0  0  0  0  0  0  0  0  0
   -1.3045   -0.7353   -0.0000 C   0  0  0  0  0  0  0  0  0  0  0  0
    1.2926   -0.7353   -0.0000 C   0  0  0  0  0  0  0  0  0  0  0  0
   -1.3164   -2.2295   -0.0000 C   0  0  0  0  0  0  0  0  0  0  0  0
   -2.6208    0.0237   -0.0000 C   0  0  0  0  0  0  0  0  0  0  0  0
    2.5378    0.1067   -0.0000 C   0  0  0  0  0  0  0  0  0  0  0  0
    1.6840   -2.1583   -0.0000 C   0  0  0  0  0  0  0  0  0  0  0  0
   -2.6327   -2.9648   -0.0000 C   0  0  0  0  0  0  0  0  0  0  0  0
   -3.9253   -0.7115   -0.0000 C   0  0  0  0  0  0  0  0  0  0  0  0
    3.7000   -0.8183   -0.0000 N   0  0  0  0  0  0  0  0  0  0  0  0
    3.1664   -2.2176   -0.0000 N   0  0  0  0  0  0  0  0  0  0  0  0
   -3.9372   -2.1939   -0.0000 C   0  0  0  0  0  0  0  0  0  0  0  0
    3.9846   -3.4628   -0.0000 C   0  0  0  0  0  0  0  0  0  0  0  0
   -5.2536   -2.9292   -0.0000 N   0  0  0  0  0  0  0  0  0  0  0  0
    5.4670   -3.3680   -0.0000 C   0  0  0  0  0  0  0  0  0  0  0  0
   -6.5580   -2.1702   -0.0000 C   0  0  0  0  0  0  0  0  0  0  0  0
    6.2853   -4.6132   -0.0000 C   0  0  0  0  0  0  0  0  0  0  0  0
   -6.5699   -0.6641   -0.0000 O   0  0  0  0  0  0  0  0  0  0  0  0
   -7.8744   -2.9055   -0.0000 C   0  0  0  0  0  0  0  0  0  0  0  0
   -9.3805   -2.8936   -0.0000 C   0  0  0  0  0  0  0  0  0  0  0  0
   -8.6334   -4.1981   -0.0000 C   0  0  0  0  0  0  0  0  0  0  0  0
  -10.6968   -3.6170   -0.0000 C   0  0  0  0  0  0  0  0  0  0  0  0
  -12.0013   -2.8343   -0.0000 C   0  0  0  0  0  0  0  0  0  0  0  0
  -10.7206   -5.0994   -0.0000 C   0  0  0  0  0  0  0  0  0  0  0  0
  -13.3177   -3.5577   -0.0000 N   0  0  0  0  0  0  0  0  0  0  0  0
  -12.0369   -5.8346   -0.0000 C   0  0  0  0  0  0  0  0  0  0  0  0
  -13.3414   -5.0519   -0.0000 C   0  0  0  0  0  0  0  0  0  0  0  0
  1  2  2  0  0  0  0
  1  3  2  0  0  0  0
  1  4  1  0  0  0  0
  1  5  1  0  0  0  0
  4  6  2  0  0  0  0
  4  7  1  0  0  0  0
  5  8  1  0  0  0  0
  5  9  2  0  0  0  0
  6 10  1  0  0  0  0
  7 11  2  0  0  0  0
  8 12  2  0  0  0  0
  9 13  1  0  0  0  0
 10 14  2  0  0  0  0
 13 15  1  0  0  0  0
 14 16  1  0  0  0  0
 15 17  1  0  0  0  0
 16 18  1  0  0  0  0
 17 19  1  0  0  0  0
 18 20  2  0  0  0  0
 21 18  1  1  0  0  0
 21 22  1  0  0  0  0
 21 23  1  0  0  0  0
 22 24  1  6  0  0  0
 24 25  2  0  0  0  0
 24 26  1  0  0  0  0
 25 27  1  0  0  0  0
 26 28  2  0  0  0  0
 27 29  2  0  0  0  0
 11 14  1  0  0  0  0
 12 13  1  0  0  0  0
 22 23  1  0  0  0  0
 28 29  1  0  0  0  0
M  END
>  <MolRegNo>
1624133

>  <m>
=

>  <Value>
1500

>  <Unit>
nM

>  <Type>
IC50

>  <pValue>
5.82

>  <Ligand Efficiency>
0

>  <Binding Efficiency>
0

>  <Surface Efficiency>
0

>  <Assay Index>
829212

>  <Assay Category>


>  <Assay Organism>
Homo sapiens

>  <Target ID>
17045

>  <Target Name>
Cytochrome P450 3A4

>  <Target Organism>
Homo sapiens

>  <Target Description>
Target is a single protein chain

>  <Sequence Accession>
P08684

>  <Reference>
J Med Chem 57 (3), 770-792 (2014)

>  <Pubmed ID>
24405419

>  <DOI>
10.1021/jm4015108

$$$$
1624127
Actelion Java MolfileCreator 1.0

 32 35  0  0  0  0  0  0  0  0999 V2000
    0.0000   -0.0000   -0.0000 S   0  0  0  0  0  0  0  0  0  0  0  0
    0.7378    1.3090   -0.0000 O   0  0  0  0  0  0  0  0  0  0  0  0
   -0.7616    1.3090   -0.0000 O   0  0  0  0  0  0  0  0  0  0  0  0
    1.2852   -0.7378   -0.0000 C   0  0  0  0  0  0  0  0  0  0  0  0
   -1.3090   -0.7378   -0.0000 C   0  0  0  0  0  0  0  0  0  0  0  0
    2.5584    0.0238   -0.0000 C   0  0  0  0  0  0  0  0  0  0  0  0
    1.2614   -2.2252   -0.0000 C   0  0  0  0  0  0  0  0  0  0  0  0
   -1.3209   -2.2252   -0.0000 C   0  0  0  0  0  0  0  0  0  0  0  0
   -2.6298    0.0238   -0.0000 C   0  0  0  0  0  0  0  0  0  0  0  0
    3.8436   -0.7140   -0.0000 C   0  0  0  0  0  0  0  0  0  0  0  0
    2.5465   -2.9630   -0.0000 C   0  0  0  0  0  0  0  0  0  0  0  0
   -2.6298   -2.9630   -0.0000 C   0  0  0  0  0  0  0  0  0  0  0  0
   -3.9388   -0.7140   -0.0000 C   0  0  0  0  0  0  0  0  0  0  0  0
    5.1287    0.0595   -0.0000 O   0  0  0  0  0  0  0  0  0  0  0  0
    3.8317   -2.2133   -0.0000 C   0  0  0  0  0  0  0  0  0  0  0  0
   -3.9388   -2.1895   -0.0000 C   0  0  0  0  0  0  0  0  0  0  0  0
    6.4258   -0.6783   -0.0000 C   0  0  0  0  0  0  0  0  0  0  0  0
   -5.2477   -2.9273   -0.0000 N   0  0  0  0  0  0  0  0  0  0  0  0
    7.7110    0.0952   -0.0000 F   0  0  0  0  0  0  0  0  0  0  0  0
    6.4258   -2.1657   -0.0000 F   0  0  0  0  0  0  0  0  0  0  0  0
    7.7110   -1.4161   -0.0000 F   0  0  0  0  0  0  0  0  0  0  0  0
   -6.5567   -2.1657   -0.0000 C   0  0  0  0  0  0  0  0  0  0  0  0
   -6.5686   -0.6545   -0.0000 O   0  0  0  0  0  0  0  0  0  0  0  0
   -7.8657   -2.9035   -0.0000 C   0  0  0  0  0  0  0  0  0  0  0  0
   -9.3769   -2.8916   -0.0000 C   0  0  0  0  0  0  0  0  0  0  0  0
   -8.6272   -4.1887   -0.0000 C   0  0  0  0  0  0  0  0  0  0  0  0
  -10.6978   -3.6175   -0.0000 C   0  0  0  0  0  0  0  0  0  0  0  0
  -12.0067   -2.8321   -0.0000 C   0  0  0  0  0  0  0  0  0  0  0  0
  -10.7216   -5.1049   -0.0000 C   0  0  0  0  0  0  0  0  0  0  0  0
  -13.3276   -3.5580   -0.0000 N   0  0  0  0  0  0  0  0  0  0  0  0
  -12.0424   -5.8427   -0.0000 C   0  0  0  0  0  0  0  0  0  0  0  0
  -13.3514   -5.0573   -0.0000 C   0  0  0  0  0  0  0  0  0  0  0  0
  1  2  2  0  0  0  0
  1  3  2  0  0  0  0
  1  4  1  0  0  0  0
  1  5  1  0  0  0  0
  4  6  2  0  0  0  0
  4  7  1  0  0  0  0
  5  8  2  0  0  0  0
  5  9  1  0  0  0  0
  6 10  1  0  0  0  0
  7 11  2  0  0  0  0
  8 12  1  0  0  0  0
  9 13  2  0  0  0  0
 10 14  1  0  0  0  0
 10 15  2  0  0  0  0
 12 16  2  0  0  0  0
 14 17  1  0  0  0  0
 16 18  1  0  0  0  0
 17 19  1  0  0  0  0
 17 20  1  0  0  0  0
 17 21  1  0  0  0  0
 18 22  1  0  0  0  0
 22 23  2  0  0  0  0
 24 22  1  1  0  0  0
 24 25  1  0  0  0  0
 24 26  1  0  0  0  0
 25 27  1  6  0  0  0
 27 28  2  0  0  0  0
 27 29  1  0  0  0  0
 28 30  1  0  0  0  0
 29 31  2  0  0  0  0
 30 32  2  0  0  0  0
 11 15  1  0  0  0  0
 13 16  1  0  0  0  0
 25 26  1  0  0  0  0
 31 32  1  0  0  0  0
M  END
>  <MolRegNo>
1624127

>  <m>
=

>  <Value>
890

>  <Unit>
nM

>  <Type>
IC50

>  <pValue>
6.05

>  <Ligand Efficiency>
0

>  <Binding Efficiency>
0

>  <Surface Efficiency>
0

>  <Assay Index>
829212

>  <Assay Category>


>  <Assay Organism>
Homo sapiens

>  <Target ID>
17045

>  <Target Name>
Cytochrome P450 3A4

>  <Target Organism>
Homo sapiens

>  <Target Description>
Target is a single protein chain

>  <Sequence Accession>
P08684

>  <Reference>
J Med Chem 57 (3), 770-792 (2014)

>  <Pubmed ID>
24405419

>  <DOI>
10.1021/jm4015108

$$$$
1624126
Actelion Java MolfileCreator 1.0

 31 34  0  0  0  0  0  0  0  0999 V2000
    0.0000   -0.0000   -0.0000 S   0  0  0  0  0  0  0  0  0  0  0  0
    0.7369    1.3073   -0.0000 O   0  0  0  0  0  0  0  0  0  0  0  0
   -0.7606    1.3073   -0.0000 O   0  0  0  0  0  0  0  0  0  0  0  0
    1.2835   -0.7369   -0.0000 C   0  0  0  0  0  0  0  0  0  0  0  0
   -1.3073   -0.7369   -0.0000 C   0  0  0  0  0  0  0  0  0  0  0  0
    2.5552    0.0238   -0.0000 C   0  0  0  0  0  0  0  0  0  0  0  0
    1.2598   -2.2224   -0.0000 C   0  0  0  0  0  0  0  0  0  0  0  0
   -1.3192   -2.2224   -0.0000 C   0  0  0  0  0  0  0  0  0  0  0  0
   -2.6265    0.0238   -0.0000 C   0  0  0  0  0  0  0  0  0  0  0  0
    3.8388   -0.7131   -0.0000 C   0  0  0  0  0  0  0  0  0  0  0  0
    2.5433   -2.9593   -0.0000 C   0  0  0  0  0  0  0  0  0  0  0  0
   -2.6265   -2.9593   -0.0000 C   0  0  0  0  0  0  0  0  0  0  0  0
   -3.9338   -0.7131   -0.0000 C   0  0  0  0  0  0  0  0  0  0  0  0
    5.1223    0.0594   -0.0000 S   0  0  0  0  0  0  0  0  0  0  0  0
    3.8269   -2.2106   -0.0000 C   0  0  0  0  0  0  0  0  0  0  0  0
   -3.9338   -2.1868   -0.0000 C   0  0  0  0  0  0  0  0  0  0  0  0
    5.8592    1.3786   -0.0000 O   0  0  0  0  0  0  0  0  0  0  0  0
    4.3498    1.3667   -0.0000 O   0  0  0  0  0  0  0  0  0  0  0  0
    6.4177   -0.6774   -0.0000 C   0  0  0  0  0  0  0  0  0  0  0  0
   -5.2412   -2.9236   -0.0000 N   0  0  0  0  0  0  0  0  0  0  0  0
   -6.5485   -2.1630   -0.0000 C   0  0  0  0  0  0  0  0  0  0  0  0
   -6.5604   -0.6537   -0.0000 O   0  0  0  0  0  0  0  0  0  0  0  0
   -7.8558   -2.8999   -0.0000 C   0  0  0  0  0  0  0  0  0  0  0  0
   -9.3652   -2.8880   -0.0000 C   0  0  0  0  0  0  0  0  0  0  0  0
   -8.6164   -4.1834   -0.0000 C   0  0  0  0  0  0  0  0  0  0  0  0
  -10.6844   -3.6130   -0.0000 C   0  0  0  0  0  0  0  0  0  0  0  0
  -11.9917   -2.8286   -0.0000 C   0  0  0  0  0  0  0  0  0  0  0  0
  -10.7081   -5.0985   -0.0000 C   0  0  0  0  0  0  0  0  0  0  0  0
  -13.3109   -3.5535   -0.0000 N   0  0  0  0  0  0  0  0  0  0  0  0
  -12.0273   -5.8354   -0.0000 C   0  0  0  0  0  0  0  0  0  0  0  0
  -13.3346   -5.0510   -0.0000 C   0  0  0  0  0  0  0  0  0  0  0  0
  1  2  2  0  0  0  0
  1  3  2  0  0  0  0
  1  4  1  0  0  0  0
  1  5  1  0  0  0  0
  4  6  2  0  0  0  0
  4  7  1  0  0  0  0
  5  8  2  0  0  0  0
  5  9  1  0  0  0  0
  6 10  1  0  0  0  0
  7 11  2  0  0  0  0
  8 12  1  0  0  0  0
  9 13  2  0  0  0  0
 10 14  1  0  0  0  0
 10 15  2  0  0  0  0
 12 16  2  0  0  0  0
 14 17  2  0  0  0  0
 14 18  2  0  0  0  0
 14 19  1  0  0  0  0
 16 20  1  0  0  0  0
 20 21  1  0  0  0  0
 21 22  2  0  0  0  0
 23 21  1  1  0  0  0
 23 24  1  0  0  0  0
 23 25  1  0  0  0  0
 24 26  1  6  0  0  0
 26 27  2  0  0  0  0
 26 28  1  0  0  0  0
 27 29  1  0  0  0  0
 28 30  2  0  0  0  0
 29 31  2  0  0  0  0
 11 15  1  0  0  0  0
 13 16  1  0  0  0  0
 24 25  1  0  0  0  0
 30 31  1  0  0  0  0
M  END
>  <MolRegNo>
1624126

>  <m>
=

>  <Value>
890

>  <Unit>
nM

>  <Type>
IC50

>  <pValue>
6.05

>  <Ligand Efficiency>
0

>  <Binding Efficiency>
0

>  <Surface Efficiency>
0

>  <Assay Index>
829212

>  <Assay Category>


>  <Assay Organism>
Homo sapiens

>  <Target ID>
17045

>  <Target Name>
Cytochrome P450 3A4

>  <Target Organism>
Homo sapiens

>  <Target Description>
Target is a single protein chain

>  <Sequence Accession>
P08684

>  <Reference>
J Med Chem 57 (3), 770-792 (2014)

>  <Pubmed ID>
24405419

>  <DOI>
10.1021/jm4015108

$$$$
1624151
Actelion Java MolfileCreator 1.0

 29 33  0  0  0  0  0  0  0  0999 V2000
    0.0000   -0.0000   -0.0000 S   0  0  0  0  0  0  0  0  0  0  0  0
    0.7467    1.3247   -0.0000 O   0  0  0  0  0  0  0  0  0  0  0  0
   -0.7708    1.3247   -0.0000 O   0  0  0  0  0  0  0  0  0  0  0  0
    1.3007   -0.7467   -0.0000 N   0  0  0  0  0  0  0  0  0  0  0  0
   -1.3247   -0.7587   -0.0000 C   0  0  0  0  0  0  0  0  0  0  0  0
    1.2886   -2.2521   -0.0000 C   0  0  0  0  0  0  0  0  0  0  0  0
    2.5893    0.0361   -0.0000 C   0  0  0  0  0  0  0  0  0  0  0  0
   -2.6495    0.0120   -0.0000 C   0  0  0  0  0  0  0  0  0  0  0  0
   -1.3368   -2.2761   -0.0000 C   0  0  0  0  0  0  0  0  0  0  0  0
    2.5893   -2.9987   -0.0000 C   0  0  0  0  0  0  0  0  0  0  0  0
    3.8899   -0.6985   -0.0000 C   0  0  0  0  0  0  0  0  0  0  0  0
   -3.9742   -0.7346   -0.0000 C   0  0  0  0  0  0  0  0  0  0  0  0
   -2.6736   -3.0228   -0.0000 C   0  0  0  0  0  0  0  0  0  0  0  0
    3.8899   -2.2159   -0.0000 O   0  0  0  0  0  0  0  0  0  0  0  0
    1.9871   -1.8065   -0.0000 C   0  0  0  0  0  0  0  0  0  0  0  0
    2.5050   -0.7708   -0.0000 C   0  0  0  0  0  0  0  0  0  0  0  0
   -3.9863   -2.2521   -0.0000 C   0  0  0  0  0  0  0  0  0  0  0  0
   -5.3110   -2.9987   -0.0000 N   0  0  0  0  0  0  0  0  0  0  0  0
   -6.6357   -2.2280   -0.0000 C   0  0  0  0  0  0  0  0  0  0  0  0
   -6.6478   -0.6985   -0.0000 O   0  0  0  0  0  0  0  0  0  0  0  0
   -7.9605   -2.9746   -0.0000 C   0  0  0  0  0  0  0  0  0  0  0  0
   -9.4900   -2.9626   -0.0000 C   0  0  0  0  0  0  0  0  0  0  0  0
   -8.7312   -4.2753   -0.0000 C   0  0  0  0  0  0  0  0  0  0  0  0
  -10.8267   -3.6972   -0.0000 C   0  0  0  0  0  0  0  0  0  0  0  0
  -12.1515   -2.9024   -0.0000 C   0  0  0  0  0  0  0  0  0  0  0  0
  -10.8508   -5.2026   -0.0000 C   0  0  0  0  0  0  0  0  0  0  0  0
  -13.4883   -3.6370   -0.0000 N   0  0  0  0  0  0  0  0  0  0  0  0
  -12.1876   -5.9493   -0.0000 C   0  0  0  0  0  0  0  0  0  0  0  0
  -13.5123   -5.1544   -0.0000 C   0  0  0  0  0  0  0  0  0  0  0  0
  1  2  2  0  0  0  0
  1  3  2  0  0  0  0
  1  4  1  0  0  0  0
  1  5  1  0  0  0  0
  4  6  1  0  0  0  0
  4  7  1  0  0  0  0
  5  8  2  0  0  0  0
  5  9  1  0  0  0  0
  6 10  1  0  0  0  0
  7 11  1  0  0  0  0
  8 12  1  0  0  0  0
  9 13  2  0  0  0  0
 10 14  1  0  0  0  0
 10 15  1  0  0  0  0
 11 16  1  0  0  0  0
 12 17  2  0  0  0  0
 17 18  1  0  0  0  0
 18 19  1  0  0  0  0
 19 20  2  0  0  0  0
 21 19  1  1  0  0  0
 21 22  1  0  0  0  0
 21 23  1  0  0  0  0
 22 24  1  6  0  0  0
 24 25  2  0  0  0  0
 24 26  1  0  0  0  0
 25 27  1  0  0  0  0
 26 28  2  0  0  0  0
 27 29  2  0  0  0  0
 11 14  1  0  0  0  0
 13 17  1  0  0  0  0
 15 16  1  0  0  0  0
 22 23  1  0  0  0  0
 28 29  1  0  0  0  0
M  END
>  <MolRegNo>
1624151

>  <m>
=

>  <Value>
8900

>  <Unit>
nM

>  <Type>
IC50

>  <pValue>
5.05

>  <Ligand Efficiency>
0

>  <Binding Efficiency>
0

>  <Surface Efficiency>
0

>  <Assay Index>
829212

>  <Assay Category>


>  <Assay Organism>
Homo sapiens

>  <Target ID>
17045

>  <Target Name>
Cytochrome P450 3A4

>  <Target Organism>
Homo sapiens

>  <Target Description>
Target is a single protein chain

>  <Sequence Accession>
P08684

>  <Reference>
J Med Chem 57 (3), 770-792 (2014)

>  <Pubmed ID>
24405419

>  <DOI>
10.1021/jm4015108

$$$$
1624148
Actelion Java MolfileCreator 1.0

 28 31  0  0  0  0  0  0  0  0999 V2000
    0.0000   -0.0000   -0.0000 S   0  0  0  0  0  0  0  0  0  0  0  0
    0.7364    1.3065   -0.0000 O   0  0  0  0  0  0  0  0  0  0  0  0
   -0.7720    1.3065   -0.0000 O   0  0  0  0  0  0  0  0  0  0  0  0
   -1.3065   -0.7482   -0.0000 C   0  0  0  0  0  0  0  0  0  0  0  0
    1.2827   -0.7364   -0.0000 C   0  0  0  0  0  0  0  0  0  0  0  0
   -2.6129    0.0119   -0.0000 C   0  0  0  0  0  0  0  0  0  0  0  0
   -1.3183   -2.2447   -0.0000 C   0  0  0  0  0  0  0  0  0  0  0  0
    1.2708   -2.2210   -0.0000 C   0  0  0  0  0  0  0  0  0  0  0  0
    2.5535    0.0356   -0.0000 C   0  0  0  0  0  0  0  0  0  0  0  0
   -3.9194   -0.7245   -0.0000 C   0  0  0  0  0  0  0  0  0  0  0  0
   -2.6367   -2.9811   -0.0000 C   0  0  0  0  0  0  0  0  0  0  0  0
    2.5535   -2.9573   -0.0000 C   0  0  0  0  0  0  0  0  0  0  0  0
    3.8362   -0.6889   -0.0000 C   0  0  0  0  0  0  0  0  0  0  0  0
   -3.9312   -2.2210   -0.0000 C   0  0  0  0  0  0  0  0  0  0  0  0
    3.8362   -2.1853   -0.0000 C   0  0  0  0  0  0  0  0  0  0  0  0
   -5.2377   -2.9573   -0.0000 N   0  0  0  0  0  0  0  0  0  0  0  0
   -6.5441   -2.1972   -0.0000 C   0  0  0  0  0  0  0  0  0  0  0  0
   -6.5560   -0.6889   -0.0000 O   0  0  0  0  0  0  0  0  0  0  0  0
   -7.8506   -2.9336   -0.0000 C   0  0  0  0  0  0  0  0  0  0  0  0
   -9.3589   -2.9217   -0.0000 C   0  0  0  0  0  0  0  0  0  0  0  0
   -8.6107   -4.2163   -0.0000 C   0  0  0  0  0  0  0  0  0  0  0  0
  -10.6773   -3.6462   -0.0000 C   0  0  0  0  0  0  0  0  0  0  0  0
  -11.9837   -2.8623   -0.0000 C   0  0  0  0  0  0  0  0  0  0  0  0
  -10.7010   -5.1308   -0.0000 C   0  0  0  0  0  0  0  0  0  0  0  0
  -13.3020   -3.5868   -0.0000 N   0  0  0  0  0  0  0  0  0  0  0  0
  -12.0193   -5.8672   -0.0000 C   0  0  0  0  0  0  0  0  0  0  0  0
  -13.3258   -5.0833   -0.0000 C   0  0  0  0  0  0  0  0  0  0  0  0
  -14.6441   -5.8078   -0.0000 N   0  0  0  0  0  0  0  0  0  0  0  0
  1  2  2  0  0  0  0
  1  3  2  0  0  0  0
  1  4  1  0  0  0  0
  1  5  1  0  0  0  0
  4  6  2  0  0  0  0
  4  7  1  0  0  0  0
  5  8  2  0  0  0  0
  5  9  1  0  0  0  0
  6 10  1  0  0  0  0
  7 11  2  0  0  0  0
  8 12  1  0  0  0  0
  9 13  2  0  0  0  0
 10 14  2  0  0  0  0
 12 15  2  0  0  0  0
 14 16  1  0  0  0  0
 16 17  1  0  0  0  0
 17 18  2  0  0  0  0
 19 17  1  1  0  0  0
 19 20  1  0  0  0  0
 19 21  1  0  0  0  0
 20 22  1  6  0  0  0
 22 23  2  0  0  0  0
 22 24  1  0  0  0  0
 23 25  1  0  0  0  0
 24 26  2  0  0  0  0
 25 27  2  0  0  0  0
 27 28  1  0  0  0  0
 11 14  1  0  0  0  0
 13 15  1  0  0  0  0
 20 21  1  0  0  0  0
 26 27  1  0  0  0  0
M  END
>  <MolRegNo>
1624148

>  <m>
=

>  <Value>
3500

>  <Unit>
nM

>  <Type>
IC50

>  <pValue>
5.46

>  <Ligand Efficiency>
0

>  <Binding Efficiency>
0

>  <Surface Efficiency>
0

>  <Assay Index>
829212

>  <Assay Category>


>  <Assay Organism>
Homo sapiens

>  <Target ID>
17045

>  <Target Name>
Cytochrome P450 3A4

>  <Target Organism>
Homo sapiens

>  <Target Description>
Target is a single protein chain

>  <Sequence Accession>
P08684

>  <Reference>
J Med Chem 57 (3), 770-792 (2014)

>  <Pubmed ID>
24405419

>  <DOI>
10.1021/jm4015108

$$$$
1624147
Actelion Java MolfileCreator 1.0

 27 30  0  0  0  0  0  0  0  0999 V2000
    0.0000   -0.0000   -0.0000 S   0  0  0  0  0  0  0  0  0  0  0  0
    0.7353    1.3045   -0.0000 O   0  0  0  0  0  0  0  0  0  0  0  0
   -0.7590    1.3045   -0.0000 O   0  0  0  0  0  0  0  0  0  0  0  0
   -1.3045   -0.7471   -0.0000 C   0  0  0  0  0  0  0  0  0  0  0  0
    1.2808   -0.7353   -0.0000 C   0  0  0  0  0  0  0  0  0  0  0  0
   -2.6209    0.0119   -0.0000 C   0  0  0  0  0  0  0  0  0  0  0  0
   -1.3164   -2.2414   -0.0000 C   0  0  0  0  0  0  0  0  0  0  0  0
    1.2689   -2.2176   -0.0000 C   0  0  0  0  0  0  0  0  0  0  0  0
    2.5497    0.0356   -0.0000 C   0  0  0  0  0  0  0  0  0  0  0  0
   -3.9254   -0.7234   -0.0000 C   0  0  0  0  0  0  0  0  0  0  0  0
   -2.6327   -2.9766   -0.0000 C   0  0  0  0  0  0  0  0  0  0  0  0
    2.5497   -2.9529   -0.0000 C   0  0  0  0  0  0  0  0  0  0  0  0
    3.8423   -0.6878   -0.0000 C   0  0  0  0  0  0  0  0  0  0  0  0
   -3.9372   -2.2176   -0.0000 C   0  0  0  0  0  0  0  0  0  0  0  0
    3.8423   -2.1939   -0.0000 C   0  0  0  0  0  0  0  0  0  0  0  0
   -5.2417   -2.9529   -0.0000 N   0  0  0  0  0  0  0  0  0  0  0  0
   -6.5581   -2.1939   -0.0000 C   0  0  0  0  0  0  0  0  0  0  0  0
   -6.5699   -0.6878   -0.0000 O   0  0  0  0  0  0  0  0  0  0  0  0
   -7.8626   -2.9292   -0.0000 C   0  0  0  0  0  0  0  0  0  0  0  0
   -9.3687   -2.9173   -0.0000 C   0  0  0  0  0  0  0  0  0  0  0  0
   -8.6215   -4.2100   -0.0000 C   0  0  0  0  0  0  0  0  0  0  0  0
  -10.6850   -3.6407   -0.0000 C   0  0  0  0  0  0  0  0  0  0  0  0
  -11.9895   -2.8580   -0.0000 C   0  0  0  0  0  0  0  0  0  0  0  0
  -10.7087   -5.1231   -0.0000 C   0  0  0  0  0  0  0  0  0  0  0  0
  -13.3177   -3.5814   -0.0000 N   0  0  0  0  0  0  0  0  0  0  0  0
  -12.0132   -5.8584   -0.0000 C   0  0  0  0  0  0  0  0  0  0  0  0
  -13.3415   -5.0757   -0.0000 C   0  0  0  0  0  0  0  0  0  0  0  0
  1  2  2  0  0  0  0
  1  3  2  0  0  0  0
  1  4  1  0  0  0  0
  1  5  1  0  0  0  0
  4  6  2  0  0  0  0
  4  7  1  0  0  0  0
  5  8  2  0  0  0  0
  5  9  1  0  0  0  0
  6 10  1  0  0  0  0
  7 11  2  0  0  0  0
  8 12  1  0  0  0  0
  9 13  2  0  0  0  0
 10 14  2  0  0  0  0
 12 15  2  0  0  0  0
 14 16  1  0  0  0  0
 16 17  1  0  0  0  0
 17 18  2  0  0  0  0
 19 17  1  1  0  0  0
 19 20  1  0  0  0  0
 19 21  1  0  0  0  0
 20 22  1  6  0  0  0
 22 23  2  0  0  0  0
 22 24  1  0  0  0  0
 23 25  1  0  0  0  0
 24 26  2  0  0  0  0
 25 27  2  0  0  0  0
 11 14  1  0  0  0  0
 13 15  1  0  0  0  0
 20 21  1  0  0  0  0
 26 27  1  0  0  0  0
M  END
>  <MolRegNo>
1624147

>  <m>
=

>  <Value>
680

>  <Unit>
nM

>  <Type>
IC50

>  <pValue>
6.17

>  <Ligand Efficiency>
0

>  <Binding Efficiency>
0

>  <Surface Efficiency>
0

>  <Assay Index>
829212

>  <Assay Category>


>  <Assay Organism>
Homo sapiens

>  <Target ID>
17045

>  <Target Name>
Cytochrome P450 3A4

>  <Target Organism>
Homo sapiens

>  <Target Description>
Target is a single protein chain

>  <Sequence Accession>
P08684

>  <Reference>
J Med Chem 57 (3), 770-792 (2014)

>  <Pubmed ID>
24405419

>  <DOI>
10.1021/jm4015108

$$$$
1624623
Actelion Java MolfileCreator 1.0

 23 25  0  0  0  0  0  0  0  0999 V2000
    0.0000   -0.0000   -0.0000 Br  0  0  0  0  0  0  0  0  0  0  0  0
    0.7430    1.3091   -0.0000 C   0  0  0  0  0  0  0  0  0  0  0  0
   -0.0118    2.6182   -0.0000 C   0  0  0  0  0  0  0  0  0  0  0  0
    2.2290    1.3209   -0.0000 C   0  0  0  0  0  0  0  0  0  0  0  0
    0.7312    3.9274   -0.0000 C   0  0  0  0  0  0  0  0  0  0  0  0
   -1.5214    2.6300   -0.0000 C   0  0  0  0  0  0  0  0  0  0  0  0
    2.9721    2.6300   -0.0000 C   0  0  0  0  0  0  0  0  0  0  0  0
    2.2173    3.9392   -0.0000 C   0  0  0  0  0  0  0  0  0  0  0  0
   -2.2762    1.3445   -0.0000 C   0  0  0  0  0  0  0  0  0  0  0  0
    4.4227    2.9485   -0.0000 O   0  0  0  0  0  0  0  0  0  0  0  0
    3.2079    5.0596   -0.0000 O   0  0  0  0  0  0  0  0  0  0  0  0
   -1.5450    0.0590   -0.0000 N   0  0  0  0  0  0  0  0  0  0  0  0
   -3.7858    1.3563   -0.0000 C   0  0  0  0  0  0  0  0  0  0  0  0
    4.5642    4.4463   -0.0000 C   0  0  0  0  0  0  0  0  0  0  0  0
   -4.5407    0.0708   -0.0000 O   0  0  0  0  0  0  0  0  0  0  0  0
   -4.5407    2.6654   -0.0000 N   0  0  0  0  0  0  0  0  0  0  0  0
   -6.0385    2.8305   -0.0000 C   0  0  0  0  0  0  0  0  0  0  0  0
   -3.9392    4.0453   -0.0000 C   0  0  0  0  0  0  0  0  0  0  0  0
   -7.0528    1.7337   -0.0000 C   0  0  0  0  0  0  0  0  0  0  0  0
   -6.3569    4.3048   -0.0000 C   0  0  0  0  0  0  0  0  0  0  0  0
   -5.0596    5.0596   -0.0000 C   0  0  0  0  0  0  0  0  0  0  0  0
   -8.0670    0.6369   -0.0000 N   0  0  0  0  0  0  0  0  0  0  0  0
   -4.9181    6.5574   -0.0000 F   0  0  0  0  0  0  0  0  0  0  0  0
  1  2  1  0  0  0  0
  2  3  2  0  0  0  0
  2  4  1  0  0  0  0
  3  5  1  0  0  0  0
  3  6  1  0  0  0  0
  4  7  2  0  0  0  0
  5  8  2  0  0  0  0
  6  9  1  0  0  0  0
  7 10  1  0  0  0  0
  8 11  1  0  0  0  0
  9 12  1  6  0  0  0
  9 13  1  0  0  0  0
 10 14  1  0  0  0  0
 13 15  2  0  0  0  0
 13 16  1  0  0  0  0
 16 17  1  0  0  0  0
 16 18  1  0  0  0  0
 17 19  1  6  0  0  0
 17 20  1  0  0  0  0
 18 21  1  0  0  0  0
 19 22  3  0  0  0  0
 21 23  1  6  0  0  0
  7  8  1  0  0  0  0
 11 14  1  0  0  0  0
 20 21  1  0  0  0  0
M  END
>  <MolRegNo>
1624623

>  <m>
=

>  <Value>
2200

>  <Unit>
nM

>  <Type>
IC50

>  <pValue>
5.66

>  <Ligand Efficiency>
0

>  <Binding Efficiency>
0

>  <Surface Efficiency>
0

>  <Assay Index>
831165

>  <Assay Category>


>  <Assay Organism>
Homo sapiens

>  <Target ID>
17045

>  <Target Name>
Cytochrome P450 3A4

>  <Target Organism>
Homo sapiens

>  <Target Description>
Target is a single protein chain

>  <Sequence Accession>
P08684

>  <Reference>


>  <Pubmed ID>
24531224

>  <DOI>
10.1016/j.ejmech.2014.01.021

$$$$
1612568
Actelion Java MolfileCreator 1.0

 32 35  0  0  0  0  0  0  0  0999 V2000
    0.0000   -0.0000   -0.0000 Cl  0  0  0  0  0  0  0  0  0  0  0  0
    0.7389    1.3228   -0.0000 C   0  0  0  0  0  0  0  0  0  0  0  0
   -0.0238    2.6337   -0.0000 C   0  0  0  0  0  0  0  0  0  0  0  0
    2.2404    1.3466   -0.0000 C   0  0  0  0  0  0  0  0  0  0  0  0
    0.7150    3.9446   -0.0000 C   0  0  0  0  0  0  0  0  0  0  0  0
    2.9674    2.6575   -0.0000 C   0  0  0  0  0  0  0  0  0  0  0  0
    2.2047    3.9565   -0.0000 C   0  0  0  0  0  0  0  0  0  0  0  0
    2.9435    5.2793   -0.0000 C   0  0  0  0  0  0  0  0  0  0  0  0
    2.1808    6.5902   -0.0000 C   0  0  0  0  0  0  0  0  0  0  0  0
    4.4332    5.2912   -0.0000 C   0  0  0  0  0  0  0  0  0  0  0  0
    0.6674    6.5902   -0.0000 C   0  0  0  0  0  0  0  0  0  0  0  0
    2.9197    7.9011   -0.0000 C   0  0  0  0  0  0  0  0  0  0  0  0
    5.1721    6.6140   -0.0000 O   0  0  0  0  0  0  0  0  0  0  0  0
    5.1840    4.0042   -0.0000 N   0  0  0  0  0  0  0  0  0  0  0  0
   -0.1073    7.9011   -0.0000 N   0  0  0  0  0  0  0  0  0  0  0  0
    2.1570    9.2120   -0.0000 C   0  0  0  0  0  0  0  0  0  0  0  0
    4.4213    2.7171   -0.0000 C   0  0  0  0  0  0  0  0  0  0  0  0
    6.6736    4.0280   -0.0000 C   0  0  0  0  0  0  0  0  0  0  0  0
    0.6316    9.2239   -0.0000 C   0  0  0  0  0  0  0  0  0  0  0  0
    5.1602    1.4420   -0.0000 C   0  0  0  0  0  0  0  0  0  0  0  0
    7.4125    2.7410   -0.0000 C   0  0  0  0  0  0  0  0  0  0  0  0
    6.6498    1.4539   -0.0000 N   0  0  0  0  0  0  0  0  0  0  0  0
    7.3887    0.1668   -0.0000 C   0  0  0  0  0  0  0  0  0  0  0  0
    8.8783    0.1788   -0.0000 C   0  0  0  0  0  0  0  0  0  0  0  0
    6.6260   -1.1202   -0.0000 C   0  0  0  0  0  0  0  0  0  0  0  0
    9.6291   -1.0964   -0.0000 N   0  0  0  0  0  0  0  0  0  0  0  0
    7.3648   -2.4192   -0.0000 C   0  0  0  0  0  0  0  0  0  0  0  0
    8.8783   -2.3834   -0.0000 C   0  0  0  0  0  0  0  0  0  0  0  0
    9.6291   -3.6705   -0.0000 C   0  0  0  0  0  0  0  0  0  0  0  0
    8.8664   -4.9695   -0.0000 F   0  0  0  0  0  0  0  0  0  0  0  0
   11.1188   -3.6467   -0.0000 F   0  0  0  0  0  0  0  0  0  0  0  0
   10.3561   -4.9576   -0.0000 F   0  0  0  0  0  0  0  0  0  0  0  0
  1  2  1  0  0  0  0
  2  3  2  0  0  0  0
  2  4  1  0  0  0  0
  3  5  1  0  0  0  0
  4  6  2  0  0  0  0
  5  7  2  0  0  0  0
  7  8  1  0  0  0  0
  8  9  1  0  0  0  0
  8 10  1  0  0  0  0
  9 11  2  0  0  0  0
  9 12  1  0  0  0  0
 10 13  2  0  0  0  0
 10 14  1  0  0  0  0
 11 15  1  0  0  0  0
 12 16  2  0  0  0  0
 14 17  1  0  0  0  0
 14 18  1  0  0  0  0
 15 19  2  0  0  0  0
 17 20  1  0  0  0  0
 18 21  1  0  0  0  0
 20 22  1  0  0  0  0
 22 23  1  0  0  0  0
 23 24  2  0  0  0  0
 23 25  1  0  0  0  0
 24 26  1  0  0  0  0
 25 27  2  0  0  0  0
 26 28  2  0  0  0  0
 28 29  1  0  0  0  0
 29 30  1  0  0  0  0
 29 31  1  0  0  0  0
 29 32  1  0  0  0  0
  6  7  1  0  0  0  0
 16 19  1  0  0  0  0
 21 22  1  0  0  0  0
 27 28  1  0  0  0  0
M  END
>  <MolRegNo>
1612568

>  <m>
=

>  <Value>
20000

>  <Unit>
nM

>  <Type>
IC50

>  <pValue>
4.7

>  <Ligand Efficiency>
0

>  <Binding Efficiency>
0

>  <Surface Efficiency>
0

>  <Assay Index>
834034

>  <Assay Category>


>  <Assay Organism>


>  <Target ID>
17045

>  <Target Name>
Cytochrome P450 3A4

>  <Target Organism>
Homo sapiens

>  <Target Description>
Target is a single protein chain

>  <Sequence Accession>
P08684

>  <Reference>


>  <Pubmed ID>


>  <DOI>
10.6019/CHEMBL3137386

$$$$
1626836
Actelion Java MolfileCreator 1.0

 32 35  0  0  0  0  0  0  0  0999 V2000
    0.0000   -0.0000   -0.0000 Cl  0  0  0  0  0  0  0  0  0  0  0  0
    1.3392    0.6874   -0.0000 C   0  0  0  0  0  0  0  0  0  0  0  0
    1.4222    2.2044   -0.0000 C   0  0  0  0  0  0  0  0  0  0  0  0
    2.5836   -0.1304   -0.0000 C   0  0  0  0  0  0  0  0  0  0  0  0
    2.7495    2.8918   -0.0000 C   0  0  0  0  0  0  0  0  0  0  0  0
    3.9228    0.5570   -0.0000 C   0  0  0  0  0  0  0  0  0  0  0  0
    3.9939    2.0859   -0.0000 C   0  0  0  0  0  0  0  0  0  0  0  0
    5.3213    2.7851   -0.0000 C   0  0  0  0  0  0  0  0  0  0  0  0
    6.5657    1.9673   -0.0000 C   0  0  0  0  0  0  0  0  0  0  0  0
    5.3924    4.2902   -0.0000 C   0  0  0  0  0  0  0  0  0  0  0  0
    6.4709    0.4859   -0.0000 C   0  0  0  0  0  0  0  0  0  0  0  0
    7.8812    2.6666   -0.0000 C   0  0  0  0  0  0  0  0  0  0  0  0
    4.1243    5.1198   -0.0000 O   0  0  0  0  0  0  0  0  0  0  0  0
    6.7316    4.9895   -0.0000 N   0  0  0  0  0  0  0  0  0  0  0  0
    7.7153   -0.3200   -0.0000 N   0  0  0  0  0  0  0  0  0  0  0  0
    9.1256    1.8607   -0.0000 N   0  0  0  0  0  0  0  0  0  0  0  0
    6.7909    6.4946   -0.0000 C   0  0  0  0  0  0  0  0  0  0  0  0
    7.9642    4.1717   -0.0000 C   0  0  0  0  0  0  0  0  0  0  0  0
    9.0545    0.3792   -0.0000 C   0  0  0  0  0  0  0  0  0  0  0  0
    8.1301    7.1820   -0.0000 C   0  0  0  0  0  0  0  0  0  0  0  0
    9.2916    4.8591   -0.0000 C   0  0  0  0  0  0  0  0  0  0  0  0
    9.3745    6.3761   -0.0000 N   0  0  0  0  0  0  0  0  0  0  0  0
   10.7137    7.0635   -0.0000 C   0  0  0  0  0  0  0  0  0  0  0  0
   10.7730    8.5686   -0.0000 N   0  0  0  0  0  0  0  0  0  0  0  0
   11.9463    6.2339   -0.0000 C   0  0  0  0  0  0  0  0  0  0  0  0
   12.1004    9.2679   -0.0000 C   0  0  0  0  0  0  0  0  0  0  0  0
   13.2855    6.9213   -0.0000 C   0  0  0  0  0  0  0  0  0  0  0  0
   13.3448    8.4501   -0.0000 C   0  0  0  0  0  0  0  0  0  0  0  0
   14.6840    9.1375   -0.0000 C   0  0  0  0  0  0  0  0  0  0  0  0
   13.9018   10.4412   -0.0000 F   0  0  0  0  0  0  0  0  0  0  0  0
   15.4899    7.8931   -0.0000 F   0  0  0  0  0  0  0  0  0  0  0  0
   16.0232    9.8130   -0.0000 F   0  0  0  0  0  0  0  0  0  0  0  0
  1  2  1  0  0  0  0
  2  3  2  0  0  0  0
  2  4  1  0  0  0  0
  3  5  1  0  0  0  0
  4  6  2  0  0  0  0
  5  7  2  0  0  0  0
  7  8  1  0  0  0  0
  8  9  1  0  0  0  0
  8 10  1  0  0  0  0
  9 11  2  0  0  0  0
  9 12  1  0  0  0  0
 10 13  2  0  0  0  0
 10 14  1  0  0  0  0
 11 15  1  0  0  0  0
 12 16  2  0  0  0  0
 14 17  1  0  0  0  0
 14 18  1  0  0  0  0
 15 19  2  0  0  0  0
 17 20  1  0  0  0  0
 18 21  1  0  0  0  0
 20 22  1  0  0  0  0
 22 23  1  0  0  0  0
 23 24  2  0  0  0  0
 23 25  1  0  0  0  0
 24 26  1  0  0  0  0
 25 27  2  0  0  0  0
 26 28  2  0  0  0  0
 28 29  1  0  0  0  0
 29 30  1  0  0  0  0
 29 31  1  0  0  0  0
 29 32  1  0  0  0  0
  6  7  1  0  0  0  0
 16 19  1  0  0  0  0
 21 22  1  0  0  0  0
 27 28  1  0  0  0  0
M  END
>  <MolRegNo>
1626836

>  <m>
=

>  <Value>
18000

>  <Unit>
nM

>  <Type>
IC50

>  <pValue>
4.75

>  <Ligand Efficiency>
0

>  <Binding Efficiency>
0

>  <Surface Efficiency>
0

>  <Assay Index>
834033

>  <Assay Category>


>  <Assay Organism>


>  <Target ID>
17045

>  <Target Name>
Cytochrome P450 3A4

>  <Target Organism>
Homo sapiens

>  <Target Description>
Target is a single protein chain

>  <Sequence Accession>
P08684

>  <Reference>


>  <Pubmed ID>


>  <DOI>
10.6019/CHEMBL3137386

$$$$
1626837
Actelion Java MolfileCreator 1.0

 32 35  0  0  0  0  0  0  0  0999 V2000
    0.0000   -0.0000   -0.0000 Cl  0  0  0  0  0  0  0  0  0  0  0  0
    1.3399    0.6877   -0.0000 C   0  0  0  0  0  0  0  0  0  0  0  0
    1.4229    2.2054   -0.0000 C   0  0  0  0  0  0  0  0  0  0  0  0
    2.5848   -0.1304   -0.0000 C   0  0  0  0  0  0  0  0  0  0  0  0
    2.7508    2.8931   -0.0000 C   0  0  0  0  0  0  0  0  0  0  0  0
    3.9247    0.5573   -0.0000 C   0  0  0  0  0  0  0  0  0  0  0  0
    3.9958    2.0869   -0.0000 C   0  0  0  0  0  0  0  0  0  0  0  0
    5.3238    2.7864   -0.0000 C   0  0  0  0  0  0  0  0  0  0  0  0
    6.5688    1.9683   -0.0000 C   0  0  0  0  0  0  0  0  0  0  0  0
    5.3950    4.2923   -0.0000 C   0  0  0  0  0  0  0  0  0  0  0  0
    6.4740    0.4861   -0.0000 C   0  0  0  0  0  0  0  0  0  0  0  0
    7.8850    2.6678   -0.0000 C   0  0  0  0  0  0  0  0  0  0  0  0
    4.1263    5.1223   -0.0000 O   0  0  0  0  0  0  0  0  0  0  0  0
    6.7348    4.9918   -0.0000 N   0  0  0  0  0  0  0  0  0  0  0  0
    7.7190   -0.3201   -0.0000 N   0  0  0  0  0  0  0  0  0  0  0  0
    9.1300    1.8616   -0.0000 N   0  0  0  0  0  0  0  0  0  0  0  0
    6.7941    6.4977   -0.0000 C   0  0  0  0  0  0  0  0  0  0  0  0
    7.9680    4.1737   -0.0000 C   0  0  0  0  0  0  0  0  0  0  0  0
    9.0588    0.3794   -0.0000 C   0  0  0  0  0  0  0  0  0  0  0  0
    8.1340    7.1854   -0.0000 C   0  0  0  0  0  0  0  0  0  0  0  0
    9.2960    4.8614   -0.0000 C   0  0  0  0  0  0  0  0  0  0  0  0
    9.3790    6.3791   -0.0000 N   0  0  0  0  0  0  0  0  0  0  0  0
   10.7188    7.0668   -0.0000 C   0  0  0  0  0  0  0  0  0  0  0  0
   11.9520    6.2368   -0.0000 C   0  0  0  0  0  0  0  0  0  0  0  0
   10.8018    8.5727   -0.0000 C   0  0  0  0  0  0  0  0  0  0  0  0
   13.2918    6.9246   -0.0000 C   0  0  0  0  0  0  0  0  0  0  0  0
   12.1417    9.2604   -0.0000 C   0  0  0  0  0  0  0  0  0  0  0  0
   13.3630    8.4423   -0.0000 C   0  0  0  0  0  0  0  0  0  0  0  0
   14.7028    9.1300   -0.0000 C   0  0  0  0  0  0  0  0  0  0  0  0
   16.0427    9.8058   -0.0000 F   0  0  0  0  0  0  0  0  0  0  0  0
   13.9202   10.4343   -0.0000 F   0  0  0  0  0  0  0  0  0  0  0  0
   15.5091    7.8850   -0.0000 F   0  0  0  0  0  0  0  0  0  0  0  0
  1  2  1  0  0  0  0
  2  3  2  0  0  0  0
  2  4  1  0  0  0  0
  3  5  1  0  0  0  0
  4  6  2  0  0  0  0
  5  7  2  0  0  0  0
  7  8  1  0  0  0  0
  8  9  1  0  0  0  0
  8 10  1  0  0  0  0
  9 11  2  0  0  0  0
  9 12  1  0  0  0  0
 10 13  2  0  0  0  0
 10 14  1  0  0  0  0
 11 15  1  0  0  0  0
 12 16  2  0  0  0  0
 14 17  1  0  0  0  0
 14 18  1  0  0  0  0
 15 19  2  0  0  0  0
 17 20  1  0  0  0  0
 18 21  1  0  0  0  0
 20 22  1  0  0  0  0
 22 23  1  0  0  0  0
 23 24  2  0  0  0  0
 23 25  1  0  0  0  0
 24 26  1  0  0  0  0
 25 27  2  0  0  0  0
 26 28  2  0  0  0  0
 28 29  1  0  0  0  0
 29 30  1  0  0  0  0
 29 31  1  0  0  0  0
 29 32  1  0  0  0  0
  6  7  1  0  0  0  0
 16 19  1  0  0  0  0
 21 22  1  0  0  0  0
 27 28  1  0  0  0  0
M  END
>  <MolRegNo>
1626837

>  <m>
=

>  <Value>
20000

>  <Unit>
nM

>  <Type>
IC50

>  <pValue>
4.7

>  <Ligand Efficiency>
0

>  <Binding Efficiency>
0

>  <Surface Efficiency>
0

>  <Assay Index>
834033

>  <Assay Category>


>  <Assay Organism>


>  <Target ID>
17045

>  <Target Name>
Cytochrome P450 3A4

>  <Target Organism>
Homo sapiens

>  <Target Description>
Target is a single protein chain

>  <Sequence Accession>
P08684

>  <Reference>


>  <Pubmed ID>


>  <DOI>
10.6019/CHEMBL3137386

$$$$
1626839
Actelion Java MolfileCreator 1.0

 33 36  0  0  0  0  0  0  0  0999 V2000
    0.0000   -0.0000   -0.0000 Cl  0  0  0  0  0  0  0  0  0  0  0  0
    1.2985    0.7624   -0.0000 C   0  0  0  0  0  0  0  0  0  0  0  0
    1.2866    2.2754   -0.0000 C   0  0  0  0  0  0  0  0  0  0  0  0
    2.5971    0.0119   -0.0000 C   0  0  0  0  0  0  0  0  0  0  0  0
    2.5852    3.0379   -0.0000 C   0  0  0  0  0  0  0  0  0  0  0  0
    3.8837    0.7744   -0.0000 C   0  0  0  0  0  0  0  0  0  0  0  0
    3.8718    2.2873   -0.0000 C   0  0  0  0  0  0  0  0  0  0  0  0
    5.1703    3.0498   -0.0000 C   0  0  0  0  0  0  0  0  0  0  0  0
    6.4569    2.2992   -0.0000 C   0  0  0  0  0  0  0  0  0  0  0  0
    5.1584    4.5627   -0.0000 C   0  0  0  0  0  0  0  0  0  0  0  0
    6.4331    0.8101   -0.0000 C   0  0  0  0  0  0  0  0  0  0  0  0
    7.7435    3.0617   -0.0000 C   0  0  0  0  0  0  0  0  0  0  0  0
    3.8479    5.3252   -0.0000 O   0  0  0  0  0  0  0  0  0  0  0  0
    6.4569    5.3252   -0.0000 N   0  0  0  0  0  0  0  0  0  0  0  0
    7.7197    0.0715   -0.0000 N   0  0  0  0  0  0  0  0  0  0  0  0
    9.0302    2.3231   -0.0000 C   0  0  0  0  0  0  0  0  0  0  0  0
    6.4569    6.8381   -0.0000 C   0  0  0  0  0  0  0  0  0  0  0  0
    7.7555    4.5866   -0.0000 C   0  0  0  0  0  0  0  0  0  0  0  0
    9.0183    0.8339   -0.0000 C   0  0  0  0  0  0  0  0  0  0  0  0
    7.7435    7.6006   -0.0000 C   0  0  0  0  0  0  0  0  0  0  0  0
    9.0540    5.3490   -0.0000 C   0  0  0  0  0  0  0  0  0  0  0  0
    9.0302    6.8501   -0.0000 N   0  0  0  0  0  0  0  0  0  0  0  0
   10.3287    7.6125   -0.0000 C   0  0  0  0  0  0  0  0  0  0  0  0
   11.6153    6.8739   -0.0000 C   0  0  0  0  0  0  0  0  0  0  0  0
   12.9019    7.6363   -0.0000 C   0  0  0  0  0  0  0  0  0  0  0  0
   11.5915    5.3847   -0.0000 C   0  0  0  0  0  0  0  0  0  0  0  0
   14.1886    6.8977   -0.0000 C   0  0  0  0  0  0  0  0  0  0  0  0
   12.8781    9.1493   -0.0000 C   0  0  0  0  0  0  0  0  0  0  0  0
   12.8781    4.6461   -0.0000 C   0  0  0  0  0  0  0  0  0  0  0  0
   14.1886    5.3967   -0.0000 C   0  0  0  0  0  0  0  0  0  0  0  0
   14.3673    9.3399   -0.0000 F   0  0  0  0  0  0  0  0  0  0  0  0
   11.4009    9.5067   -0.0000 F   0  0  0  0  0  0  0  0  0  0  0  0
   12.8185   10.6623   -0.0000 F   0  0  0  0  0  0  0  0  0  0  0  0
  1  2  1  0  0  0  0
  2  3  2  0  0  0  0
  2  4  1  0  0  0  0
  3  5  1  0  0  0  0
  4  6  2  0  0  0  0
  5  7  2  0  0  0  0
  7  8  1  0  0  0  0
  8  9  1  0  0  0  0
  8 10  1  0  0  0  0
  9 11  2  0  0  0  0
  9 12  1  0  0  0  0
 10 13  2  0  0  0  0
 10 14  1  0  0  0  0
 11 15  1  0  0  0  0
 12 16  2  0  0  0  0
 14 17  1  0  0  0  0
 14 18  1  0  0  0  0
 15 19  2  0  0  0  0
 17 20  1  0  0  0  0
 18 21  1  0  0  0  0
 20 22  1  0  0  0  0
 22 23  1  0  0  0  0
 23 24  1  0  0  0  0
 24 25  2  0  0  0  0
 24 26  1  0  0  0  0
 25 27  1  0  0  0  0
 25 28  1  0  0  0  0
 26 29  2  0  0  0  0
 27 30  2  0  0  0  0
 28 31  1  0  0  0  0
 28 32  1  0  0  0  0
 28 33  1  0  0  0  0
  6  7  1  0  0  0  0
 16 19  1  0  0  0  0
 21 22  1  0  0  0  0
 29 30  1  0  0  0  0
M  END
>  <MolRegNo>
1626839

>  <m>
=

>  <Value>
15000

>  <Unit>
nM

>  <Type>
IC50

>  <pValue>
4.82

>  <Ligand Efficiency>
0

>  <Binding Efficiency>
0

>  <Surface Efficiency>
0

>  <Assay Index>
834033

>  <Assay Category>


>  <Assay Organism>


>  <Target ID>
17045

>  <Target Name>
Cytochrome P450 3A4

>  <Target Organism>
Homo sapiens

>  <Target Description>
Target is a single protein chain

>  <Sequence Accession>
P08684

>  <Reference>


>  <Pubmed ID>


>  <DOI>
10.6019/CHEMBL3137386

$$$$
1626865
Actelion Java MolfileCreator 1.0

 24 26  0  0  0  0  0  0  0  0999 V2000
    0.0000   -0.0000   -0.0000 Cl  0  0  0  0  0  0  0  0  0  0  0  0
    1.2948    0.7602   -0.0000 C   0  0  0  0  0  0  0  0  0  0  0  0
    2.5777    0.0238   -0.0000 C   0  0  0  0  0  0  0  0  0  0  0  0
    1.2829    2.2807   -0.0000 C   0  0  0  0  0  0  0  0  0  0  0  0
    3.8725    0.7840   -0.0000 C   0  0  0  0  0  0  0  0  0  0  0  0
    2.5658    3.0410   -0.0000 C   0  0  0  0  0  0  0  0  0  0  0  0
    3.8606    2.3045   -0.0000 C   0  0  0  0  0  0  0  0  0  0  0  0
    5.1435    3.0766   -0.0000 N   0  0  0  0  0  0  0  0  0  0  0  0
    6.4383    2.3401   -0.0000 C   0  0  0  0  0  0  0  0  0  0  0  0
    5.1198    4.5852   -0.0000 C   0  0  0  0  0  0  0  0  0  0  0  0
    6.4264    0.8553   -0.0000 C   0  0  0  0  0  0  0  0  0  0  0  0
    7.7094    3.1123   -0.0000 C   0  0  0  0  0  0  0  0  0  0  0  0
    3.8012    5.3336   -0.0000 C   0  0  0  0  0  0  0  0  0  0  0  0
    6.4027    5.3455   -0.0000 C   0  0  0  0  0  0  0  0  0  0  0  0
    7.7094    0.1188   -0.0000 N   0  0  0  0  0  0  0  0  0  0  0  0
    9.0042    2.3876   -0.0000 C   0  0  0  0  0  0  0  0  0  0  0  0
    3.7893    6.8541   -0.0000 C   0  0  0  0  0  0  0  0  0  0  0  0
    6.3908    6.8541   -0.0000 C   0  0  0  0  0  0  0  0  0  0  0  0
    9.0042    0.8909   -0.0000 C   0  0  0  0  0  0  0  0  0  0  0  0
    5.0841    7.6143   -0.0000 N   0  0  0  0  0  0  0  0  0  0  0  0
    5.0723    9.1229   -0.0000 S   0  0  0  0  0  0  0  0  0  0  0  0
    3.5636    9.1348   -0.0000 O   0  0  0  0  0  0  0  0  0  0  0  0
    6.5571    9.1348   -0.0000 O   0  0  0  0  0  0  0  0  0  0  0  0
    5.0604   10.6316   -0.0000 C   0  0  0  0  0  0  0  0  0  0  0  0
  1  2  1  0  0  0  0
  2  3  2  0  0  0  0
  2  4  1  0  0  0  0
  3  5  1  0  0  0  0
  4  6  2  0  0  0  0
  5  7  2  0  0  0  0
  7  8  1  0  0  0  0
  8  9  1  0  0  0  0
  8 10  1  0  0  0  0
  9 11  2  0  0  0  0
  9 12  1  0  0  0  0
 10 13  1  0  0  0  0
 10 14  1  0  0  0  0
 11 15  1  0  0  0  0
 12 16  2  0  0  0  0
 13 17  1  0  0  0  0
 14 18  1  0  0  0  0
 15 19  2  0  0  0  0
 17 20  1  0  0  0  0
 20 21  1  0  0  0  0
 21 22  2  0  0  0  0
 21 23  2  0  0  0  0
 21 24  1  0  0  0  0
  6  7  1  0  0  0  0
 16 19  1  0  0  0  0
 18 20  1  0  0  0  0
M  END
>  <MolRegNo>
1626865

>  <m>
=

>  <Value>
2600

>  <Unit>
nM

>  <Type>
IC50

>  <pValue>
5.58

>  <Ligand Efficiency>
0

>  <Binding Efficiency>
0

>  <Surface Efficiency>
0

>  <Assay Index>
834084

>  <Assay Category>


>  <Assay Organism>


>  <Target ID>
17045

>  <Target Name>
Cytochrome P450 3A4

>  <Target Organism>
Homo sapiens

>  <Target Description>
Target is a single protein chain

>  <Sequence Accession>
P08684

>  <Reference>


>  <Pubmed ID>


>  <DOI>
10.6019/CHEMBL3137440

$$$$
1612611
Actelion Java MolfileCreator 1.0

 27 29  0  0  0  0  0  0  0  0999 V2000
    0.0000   -0.0000   -0.0000 Cl  0  0  0  0  0  0  0  0  0  0  0  0
    0.7390    1.3138   -0.0000 C   0  0  0  0  0  0  0  0  0  0  0  0
   -0.0235    2.6159   -0.0000 C   0  0  0  0  0  0  0  0  0  0  0  0
    2.2171    1.3255   -0.0000 C   0  0  0  0  0  0  0  0  0  0  0  0
    0.7156    3.9180   -0.0000 C   0  0  0  0  0  0  0  0  0  0  0  0
    2.9443    2.6276   -0.0000 C   0  0  0  0  0  0  0  0  0  0  0  0
    2.1936    3.9297   -0.0000 C   0  0  0  0  0  0  0  0  0  0  0  0
    2.9209    5.2318   -0.0000 N   0  0  0  0  0  0  0  0  0  0  0  0
    2.1701    6.5339   -0.0000 C   0  0  0  0  0  0  0  0  0  0  0  0
    4.3989    5.2435   -0.0000 C   0  0  0  0  0  0  0  0  0  0  0  0
    2.8974    7.8360   -0.0000 C   0  0  0  0  0  0  0  0  0  0  0  0
    0.6686    6.5456   -0.0000 C   0  0  0  0  0  0  0  0  0  0  0  0
    5.1379    3.9649   -0.0000 C   0  0  0  0  0  0  0  0  0  0  0  0
    5.1379    6.5456   -0.0000 C   0  0  0  0  0  0  0  0  0  0  0  0
    2.1467    9.1380   -0.0000 N   0  0  0  0  0  0  0  0  0  0  0  0
   -0.0938    7.8477   -0.0000 C   0  0  0  0  0  0  0  0  0  0  0  0
    6.6160    3.9766   -0.0000 C   0  0  0  0  0  0  0  0  0  0  0  0
    6.6160    6.5573   -0.0000 C   0  0  0  0  0  0  0  0  0  0  0  0
    0.6452    9.1498   -0.0000 C   0  0  0  0  0  0  0  0  0  0  0  0
    7.3433    5.2787   -0.0000 N   0  0  0  0  0  0  0  0  0  0  0  0
    8.8213    5.2904   -0.0000 C   0  0  0  0  0  0  0  0  0  0  0  0
    9.5603    4.0118   -0.0000 O   0  0  0  0  0  0  0  0  0  0  0  0
    9.5603    6.5925   -0.0000 C   0  0  0  0  0  0  0  0  0  0  0  0
   11.0384    6.6043   -0.0000 C   0  0  0  0  0  0  0  0  0  0  0  0
   11.6835    7.9767   -0.0000 C   0  0  0  0  0  0  0  0  0  0  0  0
   12.5164    6.6160   -0.0000 C   0  0  0  0  0  0  0  0  0  0  0  0
   12.1410    5.2552   -0.0000 C   0  0  0  0  0  0  0  0  0  0  0  0
  1  2  1  0  0  0  0
  2  3  2  0  0  0  0
  2  4  1  0  0  0  0
  3  5  1  0  0  0  0
  4  6  2  0  0  0  0
  5  7  2  0  0  0  0
  7  8  1  0  0  0  0
  8  9  1  0  0  0  0
  8 10  1  0  0  0  0
  9 11  2  0  0  0  0
  9 12  1  0  0  0  0
 10 13  1  0  0  0  0
 10 14  1  0  0  0  0
 11 15  1  0  0  0  0
 12 16  2  0  0  0  0
 13 17  1  0  0  0  0
 14 18  1  0  0  0  0
 15 19  2  0  0  0  0
 17 20  1  0  0  0  0
 20 21  1  0  0  0  0
 21 22  2  0  0  0  0
 21 23  1  0  0  0  0
 23 24  1  0  0  0  0
 24 25  1  0  0  0  0
 24 26  1  0  0  0  0
 24 27  1  0  0  0  0
  6  7  1  0  0  0  0
 16 19  1  0  0  0  0
 18 20  1  0  0  0  0
M  END
>  <MolRegNo>
1612611

>  <m>
=

>  <Value>
800

>  <Unit>
nM

>  <Type>
IC50

>  <pValue>
6.1

>  <Ligand Efficiency>
0

>  <Binding Efficiency>
0

>  <Surface Efficiency>
0

>  <Assay Index>
834084

>  <Assay Category>


>  <Assay Organism>


>  <Target ID>
17045

>  <Target Name>
Cytochrome P450 3A4

>  <Target Organism>
Homo sapiens

>  <Target Description>
Target is a single protein chain

>  <Sequence Accession>
P08684

>  <Reference>


>  <Pubmed ID>


>  <DOI>
10.6019/CHEMBL3137440

$$$$
1626866
Actelion Java MolfileCreator 1.0

 25 28  0  0  0  0  0  0  0  0999 V2000
    0.0000   -0.0000   -0.0000 Cl  0  0  0  0  0  0  0  0  0  0  0  0
    1.2947    0.7602   -0.0000 C   0  0  0  0  0  0  0  0  0  0  0  0
    2.5776    0.0238   -0.0000 C   0  0  0  0  0  0  0  0  0  0  0  0
    1.2829    2.2806   -0.0000 C   0  0  0  0  0  0  0  0  0  0  0  0
    3.8723    0.7840   -0.0000 C   0  0  0  0  0  0  0  0  0  0  0  0
    2.5657    3.0408   -0.0000 C   0  0  0  0  0  0  0  0  0  0  0  0
    3.8604    2.3044   -0.0000 C   0  0  0  0  0  0  0  0  0  0  0  0
    5.1433    3.0765   -0.0000 N   0  0  0  0  0  0  0  0  0  0  0  0
    6.4380    2.3400   -0.0000 C   0  0  0  0  0  0  0  0  0  0  0  0
    5.1195    4.5850   -0.0000 C   0  0  0  0  0  0  0  0  0  0  0  0
    6.4262    0.8552   -0.0000 C   0  0  0  0  0  0  0  0  0  0  0  0
    7.7090    3.1121   -0.0000 C   0  0  0  0  0  0  0  0  0  0  0  0
    6.4024    5.3452   -0.0000 C   0  0  0  0  0  0  0  0  0  0  0  0
    3.8011    5.3334   -0.0000 C   0  0  0  0  0  0  0  0  0  0  0  0
    7.7090    0.1188   -0.0000 N   0  0  0  0  0  0  0  0  0  0  0  0
    9.0037    2.3875   -0.0000 C   0  0  0  0  0  0  0  0  0  0  0  0
    6.3905    6.8538   -0.0000 C   0  0  0  0  0  0  0  0  0  0  0  0
    3.7892    6.8538   -0.0000 C   0  0  0  0  0  0  0  0  0  0  0  0
    9.0037    0.8909   -0.0000 C   0  0  0  0  0  0  0  0  0  0  0  0
    5.0839    7.6140   -0.0000 N   0  0  0  0  0  0  0  0  0  0  0  0
    5.0720    9.1225   -0.0000 C   0  0  0  0  0  0  0  0  0  0  0  0
    3.7535    9.8827   -0.0000 O   0  0  0  0  0  0  0  0  0  0  0  0
    6.3549    9.8827   -0.0000 C   0  0  0  0  0  0  0  0  0  0  0  0
    7.8397    9.9065   -0.0000 C   0  0  0  0  0  0  0  0  0  0  0  0
    7.0913   11.2012   -0.0000 C   0  0  0  0  0  0  0  0  0  0  0  0
  1  2  1  0  0  0  0
  2  3  2  0  0  0  0
  2  4  1  0  0  0  0
  3  5  1  0  0  0  0
  4  6  2  0  0  0  0
  5  7  2  0  0  0  0
  7  8  1  0  0  0  0
  8  9  1  0  0  0  0
  8 10  1  0  0  0  0
  9 11  2  0  0  0  0
  9 12  1  0  0  0  0
 10 13  1  0  0  0  0
 10 14  1  0  0  0  0
 11 15  1  0  0  0  0
 12 16  2  0  0  0  0
 13 17  1  0  0  0  0
 14 18  1  0  0  0  0
 15 19  2  0  0  0  0
 17 20  1  0  0  0  0
 20 21  1  0  0  0  0
 21 22  2  0  0  0  0
 21 23  1  0  0  0  0
 23 24  1  0  0  0  0
 23 25  1  0  0  0  0
  6  7  1  0  0  0  0
 16 19  1  0  0  0  0
 18 20  1  0  0  0  0
 24 25  1  0  0  0  0
M  END
>  <MolRegNo>
1626866

>  <m>
=

>  <Value>
1500

>  <Unit>
nM

>  <Type>
IC50

>  <pValue>
5.82

>  <Ligand Efficiency>
0

>  <Binding Efficiency>
0

>  <Surface Efficiency>
0

>  <Assay Index>
834084

>  <Assay Category>


>  <Assay Organism>


>  <Target ID>
17045

>  <Target Name>
Cytochrome P450 3A4

>  <Target Organism>
Homo sapiens

>  <Target Description>
Target is a single protein chain

>  <Sequence Accession>
P08684

>  <Reference>


>  <Pubmed ID>


>  <DOI>
10.6019/CHEMBL3137440

$$$$
1626867
Actelion Java MolfileCreator 1.0

 28 31  0  0  0  0  0  0  0  0999 V2000
    0.0000   -0.0000   -0.0000 Cl  0  0  0  0  0  0  0  0  0  0  0  0
    1.2946    0.7601   -0.0000 C   0  0  0  0  0  0  0  0  0  0  0  0
    2.5772    0.0238   -0.0000 C   0  0  0  0  0  0  0  0  0  0  0  0
    1.2827    2.2803   -0.0000 C   0  0  0  0  0  0  0  0  0  0  0  0
    3.8718    0.7839   -0.0000 C   0  0  0  0  0  0  0  0  0  0  0  0
    2.5654    3.0404   -0.0000 C   0  0  0  0  0  0  0  0  0  0  0  0
    3.8599    2.3041   -0.0000 C   0  0  0  0  0  0  0  0  0  0  0  0
    5.1426    3.0761   -0.0000 N   0  0  0  0  0  0  0  0  0  0  0  0
    6.4372    2.3397   -0.0000 C   0  0  0  0  0  0  0  0  0  0  0  0
    5.1189    4.5844   -0.0000 C   0  0  0  0  0  0  0  0  0  0  0  0
    6.4253    0.8551   -0.0000 C   0  0  0  0  0  0  0  0  0  0  0  0
    7.7080    3.1117   -0.0000 C   0  0  0  0  0  0  0  0  0  0  0  0
    3.8006    5.3327   -0.0000 C   0  0  0  0  0  0  0  0  0  0  0  0
    6.4016    5.3445   -0.0000 C   0  0  0  0  0  0  0  0  0  0  0  0
    7.7080    0.1188   -0.0000 N   0  0  0  0  0  0  0  0  0  0  0  0
    9.0026    2.3872   -0.0000 C   0  0  0  0  0  0  0  0  0  0  0  0
    3.7887    6.8529   -0.0000 C   0  0  0  0  0  0  0  0  0  0  0  0
    6.3897    6.8529   -0.0000 C   0  0  0  0  0  0  0  0  0  0  0  0
    9.0026    0.8908   -0.0000 C   0  0  0  0  0  0  0  0  0  0  0  0
    5.0832    7.6130   -0.0000 N   0  0  0  0  0  0  0  0  0  0  0  0
    5.0714    9.1213   -0.0000 C   0  0  0  0  0  0  0  0  0  0  0  0
    3.7530    9.8814   -0.0000 O   0  0  0  0  0  0  0  0  0  0  0  0
    6.3540    9.8814   -0.0000 C   0  0  0  0  0  0  0  0  0  0  0  0
    6.3303   11.3898   -0.0000 C   0  0  0  0  0  0  0  0  0  0  0  0
    7.6367    9.1451   -0.0000 C   0  0  0  0  0  0  0  0  0  0  0  0
    7.6130   12.1618   -0.0000 C   0  0  0  0  0  0  0  0  0  0  0  0
    8.9313    9.9052   -0.0000 C   0  0  0  0  0  0  0  0  0  0  0  0
    8.9075   11.4254   -0.0000 C   0  0  0  0  0  0  0  0  0  0  0  0
  1  2  1  0  0  0  0
  2  3  2  0  0  0  0
  2  4  1  0  0  0  0
  3  5  1  0  0  0  0
  4  6  2  0  0  0  0
  5  7  2  0  0  0  0
  7  8  1  0  0  0  0
  8  9  1  0  0  0  0
  8 10  1  0  0  0  0
  9 11  2  0  0  0  0
  9 12  1  0  0  0  0
 10 13  1  0  0  0  0
 10 14  1  0  0  0  0
 11 15  1  0  0  0  0
 12 16  2  0  0  0  0
 13 17  1  0  0  0  0
 14 18  1  0  0  0  0
 15 19  2  0  0  0  0
 17 20  1  0  0  0  0
 20 21  1  0  0  0  0
 21 22  2  0  0  0  0
 21 23  1  0  0  0  0
 23 24  2  0  0  0  0
 23 25  1  0  0  0  0
 24 26  1  0  0  0  0
 25 27  2  0  0  0  0
 26 28  2  0  0  0  0
  6  7  1  0  0  0  0
 16 19  1  0  0  0  0
 18 20  1  0  0  0  0
 27 28  1  0  0  0  0
M  END
>  <MolRegNo>
1626867

>  <m>
=

>  <Value>
1900

>  <Unit>
nM

>  <Type>
IC50

>  <pValue>
5.72

>  <Ligand Efficiency>
0

>  <Binding Efficiency>
0

>  <Surface Efficiency>
0

>  <Assay Index>
834084

>  <Assay Category>


>  <Assay Organism>


>  <Target ID>
17045

>  <Target Name>
Cytochrome P450 3A4

>  <Target Organism>
Homo sapiens

>  <Target Description>
Target is a single protein chain

>  <Sequence Accession>
P08684

>  <Reference>


>  <Pubmed ID>


>  <DOI>
10.6019/CHEMBL3137440

$$$$
1612612
Actelion Java MolfileCreator 1.0

 29 31  0  0  0  0  0  0  0  0999 V2000
    0.0000   -0.0000   -0.0000 F   0  0  0  0  0  0  0  0  0  0  0  0
    1.4952    0.0119   -0.0000 C   0  0  0  0  0  0  0  0  0  0  0  0
    2.2428   -1.2698   -0.0000 F   0  0  0  0  0  0  0  0  0  0  0  0
    0.4153   -1.0324   -0.0000 F   0  0  0  0  0  0  0  0  0  0  0  0
    2.2428    1.3291   -0.0000 C   0  0  0  0  0  0  0  0  0  0  0  0
    3.7262    1.3410   -0.0000 C   0  0  0  0  0  0  0  0  0  0  0  0
    1.4715    2.6344   -0.0000 C   0  0  0  0  0  0  0  0  0  0  0  0
    4.4619    2.6463   -0.0000 C   0  0  0  0  0  0  0  0  0  0  0  0
    2.2191    3.9517   -0.0000 C   0  0  0  0  0  0  0  0  0  0  0  0
    3.7025    3.9635   -0.0000 C   0  0  0  0  0  0  0  0  0  0  0  0
    4.4382    5.2689   -0.0000 N   0  0  0  0  0  0  0  0  0  0  0  0
    3.6787    6.5742   -0.0000 C   0  0  0  0  0  0  0  0  0  0  0  0
    5.9216    5.2807   -0.0000 C   0  0  0  0  0  0  0  0  0  0  0  0
    4.4145    7.8914   -0.0000 C   0  0  0  0  0  0  0  0  0  0  0  0
    2.1716    6.5861   -0.0000 C   0  0  0  0  0  0  0  0  0  0  0  0
    6.6692    3.9991   -0.0000 C   0  0  0  0  0  0  0  0  0  0  0  0
    6.6692    6.5861   -0.0000 C   0  0  0  0  0  0  0  0  0  0  0  0
    3.6550    9.1968   -0.0000 N   0  0  0  0  0  0  0  0  0  0  0  0
    1.4003    7.9033   -0.0000 C   0  0  0  0  0  0  0  0  0  0  0  0
    8.1525    4.0110   -0.0000 C   0  0  0  0  0  0  0  0  0  0  0  0
    8.1525    6.5980   -0.0000 C   0  0  0  0  0  0  0  0  0  0  0  0
    2.1479    9.2087   -0.0000 C   0  0  0  0  0  0  0  0  0  0  0  0
    8.8883    5.3163   -0.0000 N   0  0  0  0  0  0  0  0  0  0  0  0
   10.3716    5.3282   -0.0000 C   0  0  0  0  0  0  0  0  0  0  0  0
   11.1192    4.0466   -0.0000 O   0  0  0  0  0  0  0  0  0  0  0  0
   11.1192    6.6336   -0.0000 C   0  0  0  0  0  0  0  0  0  0  0  0
   12.6145    6.6454   -0.0000 C   0  0  0  0  0  0  0  0  0  0  0  0
   10.3598    7.9508   -0.0000 C   0  0  0  0  0  0  0  0  0  0  0  0
   11.8431    7.9626   -0.0000 C   0  0  0  0  0  0  0  0  0  0  0  0
  1  2  1  0  0  0  0
  2  3  1  0  0  0  0
  2  4  1  0  0  0  0
  2  5  1  0  0  0  0
  5  6  2  0  0  0  0
  5  7  1  0  0  0  0
  6  8  1  0  0  0  0
  7  9  2  0  0  0  0
  8 10  2  0  0  0  0
 10 11  1  0  0  0  0
 11 12  1  0  0  0  0
 11 13  1  0  0  0  0
 12 14  2  0  0  0  0
 12 15  1  0  0  0  0
 13 16  1  0  0  0  0
 13 17  1  0  0  0  0
 14 18  1  0  0  0  0
 15 19  2  0  0  0  0
 16 20  1  0  0  0  0
 17 21  1  0  0  0  0
 18 22  2  0  0  0  0
 20 23  1  0  0  0  0
 23 24  1  0  0  0  0
 24 25  2  0  0  0  0
 24 26  1  0  0  0  0
 26 27  1  0  0  0  0
 26 28  1  0  0  0  0
 26 29  1  0  0  0  0
  9 10  1  0  0  0  0
 19 22  1  0  0  0  0
 21 23  1  0  0  0  0
M  END
>  <MolRegNo>
1612612

>  <m>
=

>  <Value>
1900

>  <Unit>
nM

>  <Type>
IC50

>  <pValue>
5.72

>  <Ligand Efficiency>
0

>  <Binding Efficiency>
0

>  <Surface Efficiency>
0

>  <Assay Index>
834085

>  <Assay Category>


>  <Assay Organism>


>  <Target ID>
17045

>  <Target Name>
Cytochrome P450 3A4

>  <Target Organism>
Homo sapiens

>  <Target Description>
Target is a single protein chain

>  <Sequence Accession>
P08684

>  <Reference>


>  <Pubmed ID>


>  <DOI>
10.6019/CHEMBL3137440

$$$$
1612614
Actelion Java MolfileCreator 1.0

 35 38  0  0  0  0  0  0  0  0999 V2000
    0.0000   -0.0000   -0.0000 F   0  0  0  0  0  0  0  0  0  0  0  0
    0.7462    1.3028   -0.0000 C   0  0  0  0  0  0  0  0  0  0  0  0
    2.2266    1.3028   -0.0000 F   0  0  0  0  0  0  0  0  0  0  0  0
    1.4686    0.0237   -0.0000 F   0  0  0  0  0  0  0  0  0  0  0  0
    0.0000    2.6175   -0.0000 C   0  0  0  0  0  0  0  0  0  0  0  0
   -1.5042    2.6412   -0.0000 C   0  0  0  0  0  0  0  0  0  0  0  0
    0.7462    3.9203   -0.0000 C   0  0  0  0  0  0  0  0  0  0  0  0
   -2.2740    1.3620   -0.0000 C   0  0  0  0  0  0  0  0  0  0  0  0
   -2.2622    3.9440   -0.0000 C   0  0  0  0  0  0  0  0  0  0  0  0
   -0.0118    5.2350   -0.0000 C   0  0  0  0  0  0  0  0  0  0  0  0
   -1.5279    0.0829   -0.0000 O   0  0  0  0  0  0  0  0  0  0  0  0
   -3.7782    1.3739   -0.0000 N   0  0  0  0  0  0  0  0  0  0  0  0
   -1.5279    5.2468   -0.0000 C   0  0  0  0  0  0  0  0  0  0  0  0
   -4.5362    0.0948   -0.0000 C   0  0  0  0  0  0  0  0  0  0  0  0
   -4.5362    2.6767   -0.0000 C   0  0  0  0  0  0  0  0  0  0  0  0
   -6.0404    0.1066   -0.0000 C   0  0  0  0  0  0  0  0  0  0  0  0
   -6.0404    2.6885   -0.0000 C   0  0  0  0  0  0  0  0  0  0  0  0
   -6.8102    1.4094   -0.0000 C   0  0  0  0  0  0  0  0  0  0  0  0
   -8.3144    1.4213   -0.0000 N   0  0  0  0  0  0  0  0  0  0  0  0
   -9.0724    2.7241   -0.0000 C   0  0  0  0  0  0  0  0  0  0  0  0
   -9.0724    0.1421   -0.0000 C   0  0  0  0  0  0  0  0  0  0  0  0
   -8.3381    4.0387   -0.0000 C   0  0  0  0  0  0  0  0  0  0  0  0
  -10.5765    2.7359   -0.0000 C   0  0  0  0  0  0  0  0  0  0  0  0
   -8.3381   -1.1489   -0.0000 C   0  0  0  0  0  0  0  0  0  0  0  0
  -10.5765    0.1540   -0.0000 C   0  0  0  0  0  0  0  0  0  0  0  0
   -9.0961    5.3416   -0.0000 N   0  0  0  0  0  0  0  0  0  0  0  0
  -11.3464    4.0506   -0.0000 C   0  0  0  0  0  0  0  0  0  0  0  0
   -9.0961   -2.4280   -0.0000 C   0  0  0  0  0  0  0  0  0  0  0  0
  -11.3464   -1.1370   -0.0000 C   0  0  0  0  0  0  0  0  0  0  0  0
  -10.6002    5.3534   -0.0000 C   0  0  0  0  0  0  0  0  0  0  0  0
  -10.6002   -2.4161   -0.0000 C   0  0  0  0  0  0  0  0  0  0  0  0
  -11.3701   -3.7071   -0.0000 C   0  0  0  0  0  0  0  0  0  0  0  0
  -12.8861   -3.6953   -0.0000 F   0  0  0  0  0  0  0  0  0  0  0  0
  -10.6239   -4.9863   -0.0000 F   0  0  0  0  0  0  0  0  0  0  0  0
  -12.4479   -4.7494   -0.0000 F   0  0  0  0  0  0  0  0  0  0  0  0
  1  2  1  0  0  0  0
  2  3  1  0  0  0  0
  2  4  1  0  0  0  0
  2  5  1  0  0  0  0
  5  6  2  0  0  0  0
  5  7  1  0  0  0  0
  6  8  1  0  0  0  0
  6  9  1  0  0  0  0
  7 10  2  0  0  0  0
  8 11  2  0  0  0  0
  8 12  1  0  0  0  0
  9 13  2  0  0  0  0
 12 14  1  0  0  0  0
 12 15  1  0  0  0  0
 14 16  1  0  0  0  0
 15 17  1  0  0  0  0
 16 18  1  0  0  0  0
 18 19  1  0  0  0  0
 19 20  1  0  0  0  0
 19 21  1  0  0  0  0
 20 22  2  0  0  0  0
 20 23  1  0  0  0  0
 21 24  2  0  0  0  0
 21 25  1  0  0  0  0
 22 26  1  0  0  0  0
 23 27  2  0  0  0  0
 24 28  1  0  0  0  0
 25 29  2  0  0  0  0
 26 30  2  0  0  0  0
 28 31  2  0  0  0  0
 31 32  1  0  0  0  0
 32 33  1  0  0  0  0
 32 34  1  0  0  0  0
 32 35  1  0  0  0  0
 10 13  1  0  0  0  0
 17 18  1  0  0  0  0
 27 30  1  0  0  0  0
 29 31  1  0  0  0  0
M  END
>  <MolRegNo>
1612614

>  <m>
=

>  <Value>
1700

>  <Unit>
nM

>  <Type>
IC50

>  <pValue>
5.77

>  <Ligand Efficiency>
0

>  <Binding Efficiency>
0

>  <Surface Efficiency>
0

>  <Assay Index>
834085

>  <Assay Category>


>  <Assay Organism>


>  <Target ID>
17045

>  <Target Name>
Cytochrome P450 3A4

>  <Target Organism>
Homo sapiens

>  <Target Description>
Target is a single protein chain

>  <Sequence Accession>
P08684

>  <Reference>


>  <Pubmed ID>


>  <DOI>
10.6019/CHEMBL3137440

$$$$
1626840
Actelion Java MolfileCreator 1.0

 32 35  0  0  0  0  0  0  0  0999 V2000
    0.0000   -0.0000   -0.0000 F   0  0  0  0  0  0  0  0  0  0  0  0
   -0.0119    1.5081   -0.0000 C   0  0  0  0  0  0  0  0  0  0  0  0
   -0.4156    2.9686   -0.0000 F   0  0  0  0  0  0  0  0  0  0  0  0
   -1.3181    2.2680   -0.0000 F   0  0  0  0  0  0  0  0  0  0  0  0
    1.2825    2.2680   -0.0000 C   0  0  0  0  0  0  0  0  0  0  0  0
    1.2706    3.7880   -0.0000 C   0  0  0  0  0  0  0  0  0  0  0  0
    2.5649    1.5318   -0.0000 C   0  0  0  0  0  0  0  0  0  0  0  0
    2.5530    4.5479   -0.0000 C   0  0  0  0  0  0  0  0  0  0  0  0
    3.8592    2.2918   -0.0000 C   0  0  0  0  0  0  0  0  0  0  0  0
    3.8474    3.8117   -0.0000 C   0  0  0  0  0  0  0  0  0  0  0  0
    5.1298    4.5836   -0.0000 N   0  0  0  0  0  0  0  0  0  0  0  0
    6.4241    3.8474   -0.0000 C   0  0  0  0  0  0  0  0  0  0  0  0
    5.1061    6.0916   -0.0000 C   0  0  0  0  0  0  0  0  0  0  0  0
    6.4123    2.3630   -0.0000 C   0  0  0  0  0  0  0  0  0  0  0  0
    7.6947    4.6192   -0.0000 C   0  0  0  0  0  0  0  0  0  0  0  0
    6.3885    6.8516   -0.0000 C   0  0  0  0  0  0  0  0  0  0  0  0
    3.7880    6.8397   -0.0000 C   0  0  0  0  0  0  0  0  0  0  0  0
    7.6947    1.6268   -0.0000 N   0  0  0  0  0  0  0  0  0  0  0  0
    8.9890    3.8948   -0.0000 C   0  0  0  0  0  0  0  0  0  0  0  0
    6.3766    8.3597   -0.0000 C   0  0  0  0  0  0  0  0  0  0  0  0
    3.7761    8.3597   -0.0000 C   0  0  0  0  0  0  0  0  0  0  0  0
    8.9890    2.3987   -0.0000 C   0  0  0  0  0  0  0  0  0  0  0  0
    5.0704    9.1196   -0.0000 N   0  0  0  0  0  0  0  0  0  0  0  0
    5.0586   10.6277   -0.0000 C   0  0  0  0  0  0  0  0  0  0  0  0
    3.7405   11.3877   -0.0000 O   0  0  0  0  0  0  0  0  0  0  0  0
    6.3410   11.3877   -0.0000 C   0  0  0  0  0  0  0  0  0  0  0  0
    7.6947   10.7940   -0.0000 C   0  0  0  0  0  0  0  0  0  0  0  0
    6.4835   12.8957   -0.0000 C   0  0  0  0  0  0  0  0  0  0  0  0
    8.6803   11.9220   -0.0000 O   0  0  0  0  0  0  0  0  0  0  0  0
    7.9916    9.3453   -0.0000 C   0  0  0  0  0  0  0  0  0  0  0  0
    7.9441   13.2164   -0.0000 N   0  0  0  0  0  0  0  0  0  0  0  0
    5.3554   13.9051   -0.0000 C   0  0  0  0  0  0  0  0  0  0  0  0
  1  2  1  0  0  0  0
  2  3  1  0  0  0  0
  2  4  1  0  0  0  0
  2  5  1  0  0  0  0
  5  6  2  0  0  0  0
  5  7  1  0  0  0  0
  6  8  1  0  0  0  0
  7  9  2  0  0  0  0
  8 10  2  0  0  0  0
 10 11  1  0  0  0  0
 11 12  1  0  0  0  0
 11 13  1  0  0  0  0
 12 14  2  0  0  0  0
 12 15  1  0  0  0  0
 13 16  1  0  0  0  0
 13 17  1  0  0  0  0
 14 18  1  0  0  0  0
 15 19  2  0  0  0  0
 16 20  1  0  0  0  0
 17 21  1  0  0  0  0
 18 22  2  0  0  0  0
 20 23  1  0  0  0  0
 23 24  1  0  0  0  0
 24 25  2  0  0  0  0
 24 26  1  0  0  0  0
 26 27  2  0  0  0  0
 26 28  1  0  0  0  0
 27 29  1  0  0  0  0
 27 30  1  0  0  0  0
 28 31  2  0  0  0  0
 28 32  1  0  0  0  0
  9 10  1  0  0  0  0
 19 22  1  0  0  0  0
 21 23  1  0  0  0  0
 29 31  1  0  0  0  0
M  END
>  <MolRegNo>
1626840

>  <m>
=

>  <Value>
2100

>  <Unit>
nM

>  <Type>
IC50

>  <pValue>
5.68

>  <Ligand Efficiency>
0

>  <Binding Efficiency>
0

>  <Surface Efficiency>
0

>  <Assay Index>
834085

>  <Assay Category>


>  <Assay Organism>


>  <Target ID>
17045

>  <Target Name>
Cytochrome P450 3A4

>  <Target Organism>
Homo sapiens

>  <Target Description>
Target is a single protein chain

>  <Sequence Accession>
P08684

>  <Reference>


>  <Pubmed ID>


>  <DOI>
10.6019/CHEMBL3137440

$$$$
1626841
Actelion Java MolfileCreator 1.0

 31 34  0  0  0  0  0  0  0  0999 V2000
    0.0000   -0.0000   -0.0000 S   0  0  0  0  0  0  0  0  0  0  0  0
   -1.3893    0.6175   -0.0000 C   0  0  0  0  0  0  0  0  0  0  0  0
    0.9855    1.1280   -0.0000 C   0  0  0  0  0  0  0  0  0  0  0  0
   -1.2468    2.1255   -0.0000 C   0  0  0  0  0  0  0  0  0  0  0  0
   -2.6954   -0.1187   -0.0000 C   0  0  0  0  0  0  0  0  0  0  0  0
    0.2256    2.4461   -0.0000 N   0  0  0  0  0  0  0  0  0  0  0  0
   -2.3748    3.1348   -0.0000 C   0  0  0  0  0  0  0  0  0  0  0  0
   -4.0134    0.6412   -0.0000 O   0  0  0  0  0  0  0  0  0  0  0  0
   -2.7073   -1.6030   -0.0000 N   0  0  0  0  0  0  0  0  0  0  0  0
   -1.4249   -2.3392   -0.0000 C   0  0  0  0  0  0  0  0  0  0  0  0
   -4.0253   -2.3392   -0.0000 C   0  0  0  0  0  0  0  0  0  0  0  0
   -1.4368   -3.8235   -0.0000 C   0  0  0  0  0  0  0  0  0  0  0  0
   -4.0372   -3.8353   -0.0000 C   0  0  0  0  0  0  0  0  0  0  0  0
   -2.7429   -4.5596   -0.0000 C   0  0  0  0  0  0  0  0  0  0  0  0
   -2.7429   -6.0439   -0.0000 N   0  0  0  0  0  0  0  0  0  0  0  0
   -1.4486   -6.7801   -0.0000 C   0  0  0  0  0  0  0  0  0  0  0  0
   -4.0491   -6.7920   -0.0000 C   0  0  0  0  0  0  0  0  0  0  0  0
   -1.4605   -8.2644   -0.0000 C   0  0  0  0  0  0  0  0  0  0  0  0
   -0.1781   -6.0083   -0.0000 C   0  0  0  0  0  0  0  0  0  0  0  0
   -5.3671   -6.0320   -0.0000 C   0  0  0  0  0  0  0  0  0  0  0  0
   -4.0609   -8.2881   -0.0000 C   0  0  0  0  0  0  0  0  0  0  0  0
   -0.1781   -9.0006   -0.0000 N   0  0  0  0  0  0  0  0  0  0  0  0
    1.1162   -6.7326   -0.0000 C   0  0  0  0  0  0  0  0  0  0  0  0
   -6.6732   -6.7682   -0.0000 C   0  0  0  0  0  0  0  0  0  0  0  0
   -5.3790   -9.0243   -0.0000 C   0  0  0  0  0  0  0  0  0  0  0  0
    1.1162   -8.2287   -0.0000 C   0  0  0  0  0  0  0  0  0  0  0  0
   -6.6851   -8.2644   -0.0000 C   0  0  0  0  0  0  0  0  0  0  0  0
   -8.0031   -9.0006   -0.0000 C   0  0  0  0  0  0  0  0  0  0  0  0
   -8.0150  -10.4848   -0.0000 F   0  0  0  0  0  0  0  0  0  0  0  0
   -8.4069   -7.5400   -0.0000 F   0  0  0  0  0  0  0  0  0  0  0  0
   -9.3093   -8.2406   -0.0000 F   0  0  0  0  0  0  0  0  0  0  0  0
  1  2  1  0  0  0  0
  1  3  1  0  0  0  0
  2  4  2  0  0  0  0
  2  5  1  0  0  0  0
  3  6  2  0  0  0  0
  4  7  1  0  0  0  0
  5  8  2  0  0  0  0
  5  9  1  0  0  0  0
  9 10  1  0  0  0  0
  9 11  1  0  0  0  0
 10 12  1  0  0  0  0
 11 13  1  0  0  0  0
 12 14  1  0  0  0  0
 14 15  1  0  0  0  0
 15 16  1  0  0  0  0
 15 17  1  0  0  0  0
 16 18  2  0  0  0  0
 16 19  1  0  0  0  0
 17 20  2  0  0  0  0
 17 21  1  0  0  0  0
 18 22  1  0  0  0  0
 19 23  2  0  0  0  0
 20 24  1  0  0  0  0
 21 25  2  0  0  0  0
 22 26  2  0  0  0  0
 24 27  2  0  0  0  0
 27 28  1  0  0  0  0
 28 29  1  0  0  0  0
 28 30  1  0  0  0  0
 28 31  1  0  0  0  0
  4  6  1  0  0  0  0
 13 14  1  0  0  0  0
 23 26  1  0  0  0  0
 25 27  1  0  0  0  0
M  END
>  <MolRegNo>
1626841

>  <m>
=

>  <Value>
2900

>  <Unit>
nM

>  <Type>
IC50

>  <pValue>
5.54

>  <Ligand Efficiency>
0

>  <Binding Efficiency>
0

>  <Surface Efficiency>
0

>  <Assay Index>
834085

>  <Assay Category>


>  <Assay Organism>


>  <Target ID>
17045

>  <Target Name>
Cytochrome P450 3A4

>  <Target Organism>
Homo sapiens

>  <Target Description>
Target is a single protein chain

>  <Sequence Accession>
P08684

>  <Reference>


>  <Pubmed ID>


>  <DOI>
10.6019/CHEMBL3137440

$$$$
1626842
Actelion Java MolfileCreator 1.0

 32 35  0  0  0  0  0  0  0  0999 V2000
    0.0000   -0.0000   -0.0000 F   0  0  0  0  0  0  0  0  0  0  0  0
   -1.3079   -0.7372   -0.0000 C   0  0  0  0  0  0  0  0  0  0  0  0
   -1.3198   -2.2235   -0.0000 C   0  0  0  0  0  0  0  0  0  0  0  0
   -2.6277    0.0238   -0.0000 C   0  0  0  0  0  0  0  0  0  0  0  0
   -2.6396   -2.9607   -0.0000 C   0  0  0  0  0  0  0  0  0  0  0  0
   -3.9357   -0.7253   -0.0000 C   0  0  0  0  0  0  0  0  0  0  0  0
   -3.9476   -2.1997   -0.0000 C   0  0  0  0  0  0  0  0  0  0  0  0
   -5.2555   -2.9369   -0.0000 C   0  0  0  0  0  0  0  0  0  0  0  0
   -6.5753   -2.1759   -0.0000 O   0  0  0  0  0  0  0  0  0  0  0  0
   -5.2674   -4.4232   -0.0000 N   0  0  0  0  0  0  0  0  0  0  0  0
   -6.5872   -5.1604   -0.0000 C   0  0  0  0  0  0  0  0  0  0  0  0
   -3.9832   -5.1604   -0.0000 C   0  0  0  0  0  0  0  0  0  0  0  0
   -6.5991   -6.6585   -0.0000 C   0  0  0  0  0  0  0  0  0  0  0  0
   -3.9951   -6.6467   -0.0000 C   0  0  0  0  0  0  0  0  0  0  0  0
   -5.3031   -7.3838   -0.0000 C   0  0  0  0  0  0  0  0  0  0  0  0
   -5.3031   -8.8701   -0.0000 N   0  0  0  0  0  0  0  0  0  0  0  0
   -4.0070   -9.6073   -0.0000 C   0  0  0  0  0  0  0  0  0  0  0  0
   -6.6110   -9.6192   -0.0000 C   0  0  0  0  0  0  0  0  0  0  0  0
   -4.0189  -11.0936   -0.0000 C   0  0  0  0  0  0  0  0  0  0  0  0
   -2.7348   -8.8345   -0.0000 C   0  0  0  0  0  0  0  0  0  0  0  0
   -7.9308   -8.8582   -0.0000 C   0  0  0  0  0  0  0  0  0  0  0  0
   -6.6229  -11.1174   -0.0000 C   0  0  0  0  0  0  0  0  0  0  0  0
   -2.7348  -11.8308   -0.0000 N   0  0  0  0  0  0  0  0  0  0  0  0
   -1.4387   -9.5598   -0.0000 C   0  0  0  0  0  0  0  0  0  0  0  0
   -9.2387   -9.5954   -0.0000 C   0  0  0  0  0  0  0  0  0  0  0  0
   -7.9427  -11.8546   -0.0000 C   0  0  0  0  0  0  0  0  0  0  0  0
   -1.4387  -11.0579   -0.0000 C   0  0  0  0  0  0  0  0  0  0  0  0
   -9.2506  -11.0936   -0.0000 C   0  0  0  0  0  0  0  0  0  0  0  0
  -10.5704  -11.8308   -0.0000 C   0  0  0  0  0  0  0  0  0  0  0  0
  -11.8784  -11.0698   -0.0000 F   0  0  0  0  0  0  0  0  0  0  0  0
  -10.5823  -13.3171   -0.0000 F   0  0  0  0  0  0  0  0  0  0  0  0
  -10.9747  -10.3683   -0.0000 F   0  0  0  0  0  0  0  0  0  0  0  0
  1  2  1  0  0  0  0
  2  3  2  0  0  0  0
  2  4  1  0  0  0  0
  3  5  1  0  0  0  0
  4  6  2  0  0  0  0
  5  7  2  0  0  0  0
  7  8  1  0  0  0  0
  8  9  2  0  0  0  0
  8 10  1  0  0  0  0
 10 11  1  0  0  0  0
 10 12  1  0  0  0  0
 11 13  1  0  0  0  0
 12 14  1  0  0  0  0
 13 15  1  0  0  0  0
 15 16  1  0  0  0  0
 16 17  1  0  0  0  0
 16 18  1  0  0  0  0
 17 19  2  0  0  0  0
 17 20  1  0  0  0  0
 18 21  2  0  0  0  0
 18 22  1  0  0  0  0
 19 23  1  0  0  0  0
 20 24  2  0  0  0  0
 21 25  1  0  0  0  0
 22 26  2  0  0  0  0
 23 27  2  0  0  0  0
 25 28  2  0  0  0  0
 28 29  1  0  0  0  0
 29 30  1  0  0  0  0
 29 31  1  0  0  0  0
 29 32  1  0  0  0  0
  6  7  1  0  0  0  0
 14 15  1  0  0  0  0
 24 27  1  0  0  0  0
 26 28  1  0  0  0  0
M  END
>  <MolRegNo>
1626842

>  <m>
=

>  <Value>
4400

>  <Unit>
nM

>  <Type>
IC50

>  <pValue>
5.36

>  <Ligand Efficiency>
0

>  <Binding Efficiency>
0

>  <Surface Efficiency>
0

>  <Assay Index>
834085

>  <Assay Category>


>  <Assay Organism>


>  <Target ID>
17045

>  <Target Name>
Cytochrome P450 3A4

>  <Target Organism>
Homo sapiens

>  <Target Description>
Target is a single protein chain

>  <Sequence Accession>
P08684

>  <Reference>


>  <Pubmed ID>


>  <DOI>
10.6019/CHEMBL3137440

$$$$
1612619
Actelion Java MolfileCreator 1.0

 33 36  0  0  0  0  0  0  0  0999 V2000
    0.0000   -0.0000   -0.0000 F   0  0  0  0  0  0  0  0  0  0  0  0
    0.8620   -1.4117   -0.0000 C   0  0  0  0  0  0  0  0  0  0  0  0
   -0.3123   -2.6110   -0.0000 F   0  0  0  0  0  0  0  0  0  0  0  0
   -0.6496   -1.3992   -0.0000 F   0  0  0  0  0  0  0  0  0  0  0  0
    2.3486   -1.3992   -0.0000 C   0  0  0  0  0  0  0  0  0  0  0  0
    3.0857   -2.6859   -0.0000 C   0  0  0  0  0  0  0  0  0  0  0  0
    3.0857   -0.0874   -0.0000 C   0  0  0  0  0  0  0  0  0  0  0  0
    4.5723   -2.6734   -0.0000 C   0  0  0  0  0  0  0  0  0  0  0  0
    4.5723   -0.0750   -0.0000 C   0  0  0  0  0  0  0  0  0  0  0  0
    5.3094   -1.3617   -0.0000 C   0  0  0  0  0  0  0  0  0  0  0  0
    6.7960   -1.3492   -0.0000 N   0  0  0  0  0  0  0  0  0  0  0  0
    7.5331   -0.0375   -0.0000 C   0  0  0  0  0  0  0  0  0  0  0  0
    7.5331   -2.6360   -0.0000 C   0  0  0  0  0  0  0  0  0  0  0  0
    9.0198   -0.0250   -0.0000 C   0  0  0  0  0  0  0  0  0  0  0  0
    9.0198   -2.6235   -0.0000 C   0  0  0  0  0  0  0  0  0  0  0  0
    9.7568   -1.3117   -0.0000 C   0  0  0  0  0  0  0  0  0  0  0  0
   11.2435   -1.2992   -0.0000 N   0  0  0  0  0  0  0  0  0  0  0  0
   11.9805   -2.5860   -0.0000 C   0  0  0  0  0  0  0  0  0  0  0  0
   11.9805    0.0125   -0.0000 C   0  0  0  0  0  0  0  0  0  0  0  0
   11.2185   -3.8727   -0.0000 C   0  0  0  0  0  0  0  0  0  0  0  0
   13.4672   -2.5735   -0.0000 C   0  0  0  0  0  0  0  0  0  0  0  0
   11.2185    1.3242   -0.0000 C   0  0  0  0  0  0  0  0  0  0  0  0
   13.4672    0.0250   -0.0000 C   0  0  0  0  0  0  0  0  0  0  0  0
   11.9555   -5.1595   -0.0000 N   0  0  0  0  0  0  0  0  0  0  0  0
   14.2042   -3.8603   -0.0000 C   0  0  0  0  0  0  0  0  0  0  0  0
   11.9555    2.6360   -0.0000 C   0  0  0  0  0  0  0  0  0  0  0  0
   14.2042    1.3367   -0.0000 C   0  0  0  0  0  0  0  0  0  0  0  0
   13.4422   -5.1470   -0.0000 C   0  0  0  0  0  0  0  0  0  0  0  0
   13.4422    2.6485   -0.0000 C   0  0  0  0  0  0  0  0  0  0  0  0
   14.1793    3.9602   -0.0000 C   0  0  0  0  0  0  0  0  0  0  0  0
   13.5921    5.0845   -0.0000 F   0  0  0  0  0  0  0  0  0  0  0  0
   14.9163    5.2719   -0.0000 F   0  0  0  0  0  0  0  0  0  0  0  0
   15.7533    4.1601   -0.0000 F   0  0  0  0  0  0  0  0  0  0  0  0
  1  2  1  0  0  0  0
  2  3  1  0  0  0  0
  2  4  1  0  0  0  0
  2  5  1  0  0  0  0
  5  6  2  0  0  0  0
  5  7  1  0  0  0  0
  6  8  1  0  0  0  0
  7  9  2  0  0  0  0
  8 10  2  0  0  0  0
 10 11  1  0  0  0  0
 11 12  1  0  0  0  0
 11 13  1  0  0  0  0
 12 14  1  0  0  0  0
 13 15  1  0  0  0  0
 14 16  1  0  0  0  0
 16 17  1  0  0  0  0
 17 18  1  0  0  0  0
 17 19  1  0  0  0  0
 18 20  2  0  0  0  0
 18 21  1  0  0  0  0
 19 22  2  0  0  0  0
 19 23  1  0  0  0  0
 20 24  1  0  0  0  0
 21 25  2  0  0  0  0
 22 26  1  0  0  0  0
 23 27  2  0  0  0  0
 24 28  2  0  0  0  0
 26 29  2  0  0  0  0
 29 30  1  0  0  0  0
 30 31  1  0  0  0  0
 30 32  1  0  0  0  0
 30 33  1  0  0  0  0
  9 10  1  0  0  0  0
 15 16  1  0  0  0  0
 25 28  1  0  0  0  0
 27 29  1  0  0  0  0
M  END
>  <MolRegNo>
1612619

>  <m>
=

>  <Value>
0

>  <Unit>
nM

>  <Type>
IC50

>  <pValue>
0

>  <Ligand Efficiency>
0

>  <Binding Efficiency>
0

>  <Surface Efficiency>
0

>  <Assay Index>
834085

>  <Assay Category>


>  <Assay Organism>


>  <Target ID>
17045

>  <Target Name>
Cytochrome P450 3A4

>  <Target Organism>
Homo sapiens

>  <Target Description>
Target is a single protein chain

>  <Sequence Accession>
P08684

>  <Reference>


>  <Pubmed ID>


>  <DOI>
10.6019/CHEMBL3137440

$$$$
1612554
Actelion Java MolfileCreator 1.0

 30 33  0  0  0  0  0  0  0  0999 V2000
    0.0000   -0.0000   -0.0000 Cl  0  0  0  0  0  0  0  0  0  0  0  0
   -1.3083    0.7543   -0.0000 C   0  0  0  0  0  0  0  0  0  0  0  0
   -1.3201    2.2630   -0.0000 C   0  0  0  0  0  0  0  0  0  0  0  0
   -2.6166    0.0118   -0.0000 C   0  0  0  0  0  0  0  0  0  0  0  0
   -2.6284    3.0174   -0.0000 C   0  0  0  0  0  0  0  0  0  0  0  0
   -3.9249    0.7661   -0.0000 C   0  0  0  0  0  0  0  0  0  0  0  0
   -3.9367    2.2866   -0.0000 C   0  0  0  0  0  0  0  0  0  0  0  0
   -5.2450    3.0409   -0.0000 N   0  0  0  0  0  0  0  0  0  0  0  0
   -6.5534    2.3102   -0.0000 C   0  0  0  0  0  0  0  0  0  0  0  0
   -5.2568    4.5496   -0.0000 C   0  0  0  0  0  0  0  0  0  0  0  0
   -7.8617    3.0645   -0.0000 C   0  0  0  0  0  0  0  0  0  0  0  0
   -6.5651    5.3040   -0.0000 C   0  0  0  0  0  0  0  0  0  0  0  0
   -7.8734    4.5732   -0.0000 C   0  0  0  0  0  0  0  0  0  0  0  0
   -9.1818    5.3275   -0.0000 N   0  0  0  0  0  0  0  0  0  0  0  0
   -9.1935    6.8362   -0.0000 C   0  0  0  0  0  0  0  0  0  0  0  0
  -10.4901    4.5968   -0.0000 C   0  0  0  0  0  0  0  0  0  0  0  0
   -7.9088    7.5906   -0.0000 C   0  0  0  0  0  0  0  0  0  0  0  0
  -10.5019    7.5906   -0.0000 C   0  0  0  0  0  0  0  0  0  0  0  0
  -10.5019    3.1117   -0.0000 C   0  0  0  0  0  0  0  0  0  0  0  0
  -11.7984    5.3511   -0.0000 C   0  0  0  0  0  0  0  0  0  0  0  0
   -7.9206    9.0993   -0.0000 N   0  0  0  0  0  0  0  0  0  0  0  0
  -10.5136    9.0993   -0.0000 C   0  0  0  0  0  0  0  0  0  0  0  0
  -11.8102    2.3809   -0.0000 C   0  0  0  0  0  0  0  0  0  0  0  0
  -13.1067    4.6203   -0.0000 C   0  0  0  0  0  0  0  0  0  0  0  0
   -9.2289    9.8536   -0.0000 C   0  0  0  0  0  0  0  0  0  0  0  0
  -13.1185    3.1352   -0.0000 C   0  0  0  0  0  0  0  0  0  0  0  0
  -14.4268    2.4045   -0.0000 C   0  0  0  0  0  0  0  0  0  0  0  0
  -15.6172    3.1352   -0.0000 F   0  0  0  0  0  0  0  0  0  0  0  0
  -14.7804    0.9783   -0.0000 F   0  0  0  0  0  0  0  0  0  0  0  0
  -15.7351    1.6619   -0.0000 F   0  0  0  0  0  0  0  0  0  0  0  0
  1  2  1  0  0  0  0
  2  3  2  0  0  0  0
  2  4  1  0  0  0  0
  3  5  1  0  0  0  0
  4  6  2  0  0  0  0
  5  7  2  0  0  0  0
  7  8  1  0  0  0  0
  8  9  1  0  0  0  0
  8 10  1  0  0  0  0
  9 11  1  0  0  0  0
 10 12  1  0  0  0  0
 11 13  1  0  0  0  0
 13 14  1  0  0  0  0
 14 15  1  0  0  0  0
 14 16  1  0  0  0  0
 15 17  2  0  0  0  0
 15 18  1  0  0  0  0
 16 19  2  0  0  0  0
 16 20  1  0  0  0  0
 17 21  1  0  0  0  0
 18 22  2  0  0  0  0
 19 23  1  0  0  0  0
 20 24  2  0  0  0  0
 21 25  2  0  0  0  0
 23 26  2  0  0  0  0
 26 27  1  0  0  0  0
 27 28  1  0  0  0  0
 27 29  1  0  0  0  0
 27 30  1  0  0  0  0
  6  7  1  0  0  0  0
 12 13  1  0  0  0  0
 22 25  1  0  0  0  0
 24 26  1  0  0  0  0
M  END
>  <MolRegNo>
1612554

>  <m>
=

>  <Value>
0

>  <Unit>
nM

>  <Type>
IC50

>  <pValue>
0

>  <Ligand Efficiency>
0

>  <Binding Efficiency>
0

>  <Surface Efficiency>
0

>  <Assay Index>
834085

>  <Assay Category>


>  <Assay Organism>


>  <Target ID>
17045

>  <Target Name>
Cytochrome P450 3A4

>  <Target Organism>
Homo sapiens

>  <Target Description>
Target is a single protein chain

>  <Sequence Accession>
P08684

>  <Reference>


>  <Pubmed ID>


>  <DOI>
10.6019/CHEMBL3137440

$$$$
1626845
Actelion Java MolfileCreator 1.0

 34 37  0  0  0  0  0  0  0  0999 V2000
    0.0000   -0.0000   -0.0000 F   0  0  0  0  0  0  0  0  0  0  0  0
   -0.0238    1.5085   -0.0000 C   0  0  0  0  0  0  0  0  0  0  0  0
    1.2472    2.2805   -0.0000 F   0  0  0  0  0  0  0  0  0  0  0  0
   -1.0928    0.4514   -0.0000 F   0  0  0  0  0  0  0  0  0  0  0  0
   -1.3422    2.2568   -0.0000 C   0  0  0  0  0  0  0  0  0  0  0  0
   -2.6369    1.5085   -0.0000 C   0  0  0  0  0  0  0  0  0  0  0  0
   -1.3660    3.7772   -0.0000 C   0  0  0  0  0  0  0  0  0  0  0  0
   -3.9553    2.2687   -0.0000 C   0  0  0  0  0  0  0  0  0  0  0  0
   -2.6963    4.5255   -0.0000 C   0  0  0  0  0  0  0  0  0  0  0  0
   -3.9910    3.7772   -0.0000 C   0  0  0  0  0  0  0  0  0  0  0  0
   -5.2619    1.5204   -0.0000 C   0  0  0  0  0  0  0  0  0  0  0  0
   -5.2738    0.0356   -0.0000 N   0  0  0  0  0  0  0  0  0  0  0  0
   -6.5922   -0.7008   -0.0000 C   0  0  0  0  0  0  0  0  0  0  0  0
   -3.9910   -0.7008   -0.0000 C   0  0  0  0  0  0  0  0  0  0  0  0
   -6.6041   -2.1974   -0.0000 C   0  0  0  0  0  0  0  0  0  0  0  0
   -4.0028   -2.1855   -0.0000 C   0  0  0  0  0  0  0  0  0  0  0  0
   -5.3094   -2.9220   -0.0000 C   0  0  0  0  0  0  0  0  0  0  0  0
   -5.3094   -4.4067   -0.0000 N   0  0  0  0  0  0  0  0  0  0  0  0
   -4.0147   -5.1431   -0.0000 C   0  0  0  0  0  0  0  0  0  0  0  0
   -6.6160   -5.1550   -0.0000 C   0  0  0  0  0  0  0  0  0  0  0  0
   -4.0266   -6.6278   -0.0000 C   0  0  0  0  0  0  0  0  0  0  0  0
   -2.7438   -4.3711   -0.0000 C   0  0  0  0  0  0  0  0  0  0  0  0
   -7.9344   -4.3948   -0.0000 C   0  0  0  0  0  0  0  0  0  0  0  0
   -6.6278   -6.6516   -0.0000 C   0  0  0  0  0  0  0  0  0  0  0  0
   -2.7438   -7.3643   -0.0000 N   0  0  0  0  0  0  0  0  0  0  0  0
   -1.4491   -5.0956   -0.0000 C   0  0  0  0  0  0  0  0  0  0  0  0
   -9.2410   -5.1431   -0.0000 C   0  0  0  0  0  0  0  0  0  0  0  0
   -7.9463   -7.3880   -0.0000 C   0  0  0  0  0  0  0  0  0  0  0  0
   -1.4491   -6.5922   -0.0000 C   0  0  0  0  0  0  0  0  0  0  0  0
   -9.2529   -6.6278   -0.0000 C   0  0  0  0  0  0  0  0  0  0  0  0
  -10.5713   -7.3643   -0.0000 C   0  0  0  0  0  0  0  0  0  0  0  0
  -10.5832   -8.8490   -0.0000 F   0  0  0  0  0  0  0  0  0  0  0  0
  -10.9751   -5.9033   -0.0000 F   0  0  0  0  0  0  0  0  0  0  0  0
  -11.8779   -6.6041   -0.0000 F   0  0  0  0  0  0  0  0  0  0  0  0
  1  2  1  0  0  0  0
  2  3  1  0  0  0  0
  2  4  1  0  0  0  0
  2  5  1  0  0  0  0
  5  6  2  0  0  0  0
  5  7  1  0  0  0  0
  6  8  1  0  0  0  0
  7  9  2  0  0  0  0
  8 10  2  0  0  0  0
  8 11  1  0  0  0  0
 11 12  1  0  0  0  0
 12 13  1  0  0  0  0
 12 14  1  0  0  0  0
 13 15  1  0  0  0  0
 14 16  1  0  0  0  0
 15 17  1  0  0  0  0
 17 18  1  0  0  0  0
 18 19  1  0  0  0  0
 18 20  1  0  0  0  0
 19 21  2  0  0  0  0
 19 22  1  0  0  0  0
 20 23  2  0  0  0  0
 20 24  1  0  0  0  0
 21 25  1  0  0  0  0
 22 26  2  0  0  0  0
 23 27  1  0  0  0  0
 24 28  2  0  0  0  0
 25 29  2  0  0  0  0
 27 30  2  0  0  0  0
 30 31  1  0  0  0  0
 31 32  1  0  0  0  0
 31 33  1  0  0  0  0
 31 34  1  0  0  0  0
  9 10  1  0  0  0  0
 16 17  1  0  0  0  0
 26 29  1  0  0  0  0
 28 30  1  0  0  0  0
M  END
>  <MolRegNo>
1626845

>  <m>
=

>  <Value>
0

>  <Unit>
nM

>  <Type>
IC50

>  <pValue>
0

>  <Ligand Efficiency>
0

>  <Binding Efficiency>
0

>  <Surface Efficiency>
0

>  <Assay Index>
834085

>  <Assay Category>


>  <Assay Organism>


>  <Target ID>
17045

>  <Target Name>
Cytochrome P450 3A4

>  <Target Organism>
Homo sapiens

>  <Target Description>
Target is a single protein chain

>  <Sequence Accession>
P08684

>  <Reference>


>  <Pubmed ID>


>  <DOI>
10.6019/CHEMBL3137440

$$$$
1626847
Actelion Java MolfileCreator 1.0

 34 37  0  0  0  0  0  0  0  0999 V2000
    0.0000   -0.0000   -0.0000 F   0  0  0  0  0  0  0  0  0  0  0  0
    0.3805   -1.4386   -0.0000 C   0  0  0  0  0  0  0  0  0  0  0  0
   -0.9274   -0.6777   -0.0000 F   0  0  0  0  0  0  0  0  0  0  0  0
    0.3686   -2.9248   -0.0000 F   0  0  0  0  0  0  0  0  0  0  0  0
    1.6764   -0.6777   -0.0000 C   0  0  0  0  0  0  0  0  0  0  0  0
    2.9605   -1.4149   -0.0000 C   0  0  0  0  0  0  0  0  0  0  0  0
    1.6645    0.8442   -0.0000 C   0  0  0  0  0  0  0  0  0  0  0  0
    4.2565   -0.6539   -0.0000 C   0  0  0  0  0  0  0  0  0  0  0  0
    2.9486    1.6051   -0.0000 C   0  0  0  0  0  0  0  0  0  0  0  0
    4.2446    0.8679   -0.0000 C   0  0  0  0  0  0  0  0  0  0  0  0
    5.5286    1.6408   -0.0000 N   0  0  0  0  0  0  0  0  0  0  0  0
    6.8246    0.9036   -0.0000 C   0  0  0  0  0  0  0  0  0  0  0  0
    5.5049    3.1507   -0.0000 C   0  0  0  0  0  0  0  0  0  0  0  0
    6.8127   -0.5826   -0.0000 C   0  0  0  0  0  0  0  0  0  0  0  0
    8.0968    1.6764   -0.0000 C   0  0  0  0  0  0  0  0  0  0  0  0
    4.1851    3.8998   -0.0000 C   0  0  0  0  0  0  0  0  0  0  0  0
    6.7889    3.9117   -0.0000 C   0  0  0  0  0  0  0  0  0  0  0  0
    8.0968   -1.3197   -0.0000 N   0  0  0  0  0  0  0  0  0  0  0  0
    9.3927    0.9512   -0.0000 C   0  0  0  0  0  0  0  0  0  0  0  0
    4.1732    5.4216   -0.0000 C   0  0  0  0  0  0  0  0  0  0  0  0
    6.7770    5.4216   -0.0000 C   0  0  0  0  0  0  0  0  0  0  0  0
    9.3927   -0.5469   -0.0000 C   0  0  0  0  0  0  0  0  0  0  0  0
    5.4692    6.1826   -0.0000 N   0  0  0  0  0  0  0  0  0  0  0  0
    5.4573    7.6925   -0.0000 C   0  0  0  0  0  0  0  0  0  0  0  0
    6.7414    8.4535   -0.0000 C   0  0  0  0  0  0  0  0  0  0  0  0
    8.0254    7.7163   -0.0000 C   0  0  0  0  0  0  0  0  0  0  0  0
    6.7176    9.9634   -0.0000 C   0  0  0  0  0  0  0  0  0  0  0  0
    9.3214    8.4772   -0.0000 C   0  0  0  0  0  0  0  0  0  0  0  0
    8.0017   10.7362   -0.0000 C   0  0  0  0  0  0  0  0  0  0  0  0
    9.3095    9.9872   -0.0000 C   0  0  0  0  0  0  0  0  0  0  0  0
   10.5936   10.7481   -0.0000 C   0  0  0  0  0  0  0  0  0  0  0  0
   11.8895   10.0110   -0.0000 F   0  0  0  0  0  0  0  0  0  0  0  0
   10.5817   12.2581   -0.0000 F   0  0  0  0  0  0  0  0  0  0  0  0
   10.9740    9.3095   -0.0000 F   0  0  0  0  0  0  0  0  0  0  0  0
  1  2  1  0  0  0  0
  2  3  1  0  0  0  0
  2  4  1  0  0  0  0
  2  5  1  0  0  0  0
  5  6  2  0  0  0  0
  5  7  1  0  0  0  0
  6  8  1  0  0  0  0
  7  9  2  0  0  0  0
  8 10  2  0  0  0  0
 10 11  1  0  0  0  0
 11 12  1  0  0  0  0
 11 13  1  0  0  0  0
 12 14  2  0  0  0  0
 12 15  1  0  0  0  0
 13 16  1  0  0  0  0
 13 17  1  0  0  0  0
 14 18  1  0  0  0  0
 15 19  2  0  0  0  0
 16 20  1  0  0  0  0
 17 21  1  0  0  0  0
 18 22  2  0  0  0  0
 20 23  1  0  0  0  0
 23 24  1  0  0  0  0
 24 25  1  0  0  0  0
 25 26  2  0  0  0  0
 25 27  1  0  0  0  0
 26 28  1  0  0  0  0
 27 29  2  0  0  0  0
 28 30  2  0  0  0  0
 30 31  1  0  0  0  0
 31 32  1  0  0  0  0
 31 33  1  0  0  0  0
 31 34  1  0  0  0  0
  9 10  1  0  0  0  0
 19 22  1  0  0  0  0
 21 23  1  0  0  0  0
 29 30  1  0  0  0  0
M  END
>  <MolRegNo>
1626847

>  <m>
=

>  <Value>
0

>  <Unit>
nM

>  <Type>
IC50

>  <pValue>
0

>  <Ligand Efficiency>
0

>  <Binding Efficiency>
0

>  <Surface Efficiency>
0

>  <Assay Index>
834085

>  <Assay Category>


>  <Assay Organism>


>  <Target ID>
17045

>  <Target Name>
Cytochrome P450 3A4

>  <Target Organism>
Homo sapiens

>  <Target Description>
Target is a single protein chain

>  <Sequence Accession>
P08684

>  <Reference>


>  <Pubmed ID>


>  <DOI>
10.6019/CHEMBL3137440

$$$$
1626849
Actelion Java MolfileCreator 1.0

 32 35  0  0  0  0  0  0  0  0999 V2000
    0.0000   -0.0000   -0.0000 F   0  0  0  0  0  0  0  0  0  0  0  0
    1.2841   -0.7372   -0.0000 C   0  0  0  0  0  0  0  0  0  0  0  0
    1.2722   -2.2234   -0.0000 F   0  0  0  0  0  0  0  0  0  0  0  0
    0.8798    0.7253   -0.0000 F   0  0  0  0  0  0  0  0  0  0  0  0
    2.5801    0.0238   -0.0000 C   0  0  0  0  0  0  0  0  0  0  0  0
    3.8642   -0.7134   -0.0000 C   0  0  0  0  0  0  0  0  0  0  0  0
    2.5682    1.5457   -0.0000 C   0  0  0  0  0  0  0  0  0  0  0  0
    5.1602    0.0476   -0.0000 C   0  0  0  0  0  0  0  0  0  0  0  0
    3.8523    2.3066   -0.0000 C   0  0  0  0  0  0  0  0  0  0  0  0
    5.1483    1.5695   -0.0000 C   0  0  0  0  0  0  0  0  0  0  0  0
    6.4324    2.3423   -0.0000 N   0  0  0  0  0  0  0  0  0  0  0  0
    7.7284    1.6051   -0.0000 C   0  0  0  0  0  0  0  0  0  0  0  0
    6.4086    3.8523   -0.0000 C   0  0  0  0  0  0  0  0  0  0  0  0
    7.7165    0.1189   -0.0000 C   0  0  0  0  0  0  0  0  0  0  0  0
    9.0006    2.3780   -0.0000 C   0  0  0  0  0  0  0  0  0  0  0  0
    5.0889    4.6014   -0.0000 C   0  0  0  0  0  0  0  0  0  0  0  0
    7.6927    4.6133   -0.0000 C   0  0  0  0  0  0  0  0  0  0  0  0
    9.0006   -0.6183   -0.0000 N   0  0  0  0  0  0  0  0  0  0  0  0
   10.2966    1.6527   -0.0000 C   0  0  0  0  0  0  0  0  0  0  0  0
    5.0770    6.1233   -0.0000 C   0  0  0  0  0  0  0  0  0  0  0  0
    7.6808    6.1233   -0.0000 C   0  0  0  0  0  0  0  0  0  0  0  0
   10.2966    0.1546   -0.0000 C   0  0  0  0  0  0  0  0  0  0  0  0
    6.3730    6.8842   -0.0000 N   0  0  0  0  0  0  0  0  0  0  0  0
    6.3611    8.3942   -0.0000 C   0  0  0  0  0  0  0  0  0  0  0  0
    7.6452    9.1552   -0.0000 C   0  0  0  0  0  0  0  0  0  0  0  0
    8.9293    8.4180   -0.0000 C   0  0  0  0  0  0  0  0  0  0  0  0
    7.6214   10.6652   -0.0000 C   0  0  0  0  0  0  0  0  0  0  0  0
   10.2253    9.1790   -0.0000 C   0  0  0  0  0  0  0  0  0  0  0  0
    8.9055   11.4380   -0.0000 C   0  0  0  0  0  0  0  0  0  0  0  0
   10.2134   10.6890   -0.0000 C   0  0  0  0  0  0  0  0  0  0  0  0
   11.4975   11.4499   -0.0000 O   0  0  0  0  0  0  0  0  0  0  0  0
   12.7935   10.7128   -0.0000 C   0  0  0  0  0  0  0  0  0  0  0  0
  1  2  1  0  0  0  0
  2  3  1  0  0  0  0
  2  4  1  0  0  0  0
  2  5  1  0  0  0  0
  5  6  2  0  0  0  0
  5  7  1  0  0  0  0
  6  8  1  0  0  0  0
  7  9  2  0  0  0  0
  8 10  2  0  0  0  0
 10 11  1  0  0  0  0
 11 12  1  0  0  0  0
 11 13  1  0  0  0  0
 12 14  2  0  0  0  0
 12 15  1  0  0  0  0
 13 16  1  0  0  0  0
 13 17  1  0  0  0  0
 14 18  1  0  0  0  0
 15 19  2  0  0  0  0
 16 20  1  0  0  0  0
 17 21  1  0  0  0  0
 18 22  2  0  0  0  0
 20 23  1  0  0  0  0
 23 24  1  0  0  0  0
 24 25  1  0  0  0  0
 25 26  2  0  0  0  0
 25 27  1  0  0  0  0
 26 28  1  0  0  0  0
 27 29  2  0  0  0  0
 28 30  2  0  0  0  0
 30 31  1  0  0  0  0
 31 32  1  0  0  0  0
  9 10  1  0  0  0  0
 19 22  1  0  0  0  0
 21 23  1  0  0  0  0
 29 30  1  0  0  0  0
M  END
>  <MolRegNo>
1626849

>  <m>
=

>  <Value>
15000

>  <Unit>
nM

>  <Type>
IC50

>  <pValue>
4.82

>  <Ligand Efficiency>
0

>  <Binding Efficiency>
0

>  <Surface Efficiency>
0

>  <Assay Index>
834085

>  <Assay Category>


>  <Assay Organism>


>  <Target ID>
17045

>  <Target Name>
Cytochrome P450 3A4

>  <Target Organism>
Homo sapiens

>  <Target Description>
Target is a single protein chain

>  <Sequence Accession>
P08684

>  <Reference>


>  <Pubmed ID>


>  <DOI>
10.6019/CHEMBL3137440

$$$$
1626851
Actelion Java MolfileCreator 1.0

 28 31  0  0  0  0  0  0  0  0999 V2000
    0.0000   -0.0000   -0.0000 S   0  0  0  0  0  0  0  0  0  0  0  0
   -1.2247   -0.8680   -0.0000 C   0  0  0  0  0  0  0  0  0  0  0  0
   -0.4756    1.4387   -0.0000 C   0  0  0  0  0  0  0  0  0  0  0  0
   -2.4494    0.0238   -0.0000 N   0  0  0  0  0  0  0  0  0  0  0  0
   -1.2366   -2.3543   -0.0000 N   0  0  0  0  0  0  0  0  0  0  0  0
   -1.9857    1.4506   -0.0000 C   0  0  0  0  0  0  0  0  0  0  0  0
    0.0476   -3.0915   -0.0000 C   0  0  0  0  0  0  0  0  0  0  0  0
   -2.5565   -3.0915   -0.0000 C   0  0  0  0  0  0  0  0  0  0  0  0
    0.0357   -4.5778   -0.0000 C   0  0  0  0  0  0  0  0  0  0  0  0
   -2.5683   -4.5897   -0.0000 C   0  0  0  0  0  0  0  0  0  0  0  0
   -1.2723   -5.3150   -0.0000 C   0  0  0  0  0  0  0  0  0  0  0  0
   -1.2723   -6.8014   -0.0000 N   0  0  0  0  0  0  0  0  0  0  0  0
    0.0238   -7.5386   -0.0000 C   0  0  0  0  0  0  0  0  0  0  0  0
   -2.5802   -7.5505   -0.0000 C   0  0  0  0  0  0  0  0  0  0  0  0
    0.0119   -9.0249   -0.0000 C   0  0  0  0  0  0  0  0  0  0  0  0
    1.2961   -6.7657   -0.0000 C   0  0  0  0  0  0  0  0  0  0  0  0
   -3.9001   -6.7895   -0.0000 C   0  0  0  0  0  0  0  0  0  0  0  0
   -2.5921   -9.0487   -0.0000 C   0  0  0  0  0  0  0  0  0  0  0  0
    1.2961   -9.7621   -0.0000 N   0  0  0  0  0  0  0  0  0  0  0  0
    2.5921   -7.4910   -0.0000 C   0  0  0  0  0  0  0  0  0  0  0  0
   -5.2080   -7.5267   -0.0000 C   0  0  0  0  0  0  0  0  0  0  0  0
   -3.9120   -9.7859   -0.0000 C   0  0  0  0  0  0  0  0  0  0  0  0
    2.5921   -8.9892   -0.0000 C   0  0  0  0  0  0  0  0  0  0  0  0
   -5.2199   -9.0249   -0.0000 C   0  0  0  0  0  0  0  0  0  0  0  0
   -6.5398   -9.7621   -0.0000 C   0  0  0  0  0  0  0  0  0  0  0  0
   -7.8477   -9.0011   -0.0000 F   0  0  0  0  0  0  0  0  0  0  0  0
   -6.5517  -11.2484   -0.0000 F   0  0  0  0  0  0  0  0  0  0  0  0
   -6.9440   -8.2996   -0.0000 F   0  0  0  0  0  0  0  0  0  0  0  0
  1  2  1  0  0  0  0
  1  3  1  0  0  0  0
  2  4  2  0  0  0  0
  2  5  1  0  0  0  0
  3  6  2  0  0  0  0
  5  7  1  0  0  0  0
  5  8  1  0  0  0  0
  7  9  1  0  0  0  0
  8 10  1  0  0  0  0
  9 11  1  0  0  0  0
 11 12  1  0  0  0  0
 12 13  1  0  0  0  0
 12 14  1  0  0  0  0
 13 15  2  0  0  0  0
 13 16  1  0  0  0  0
 14 17  2  0  0  0  0
 14 18  1  0  0  0  0
 15 19  1  0  0  0  0
 16 20  2  0  0  0  0
 17 21  1  0  0  0  0
 18 22  2  0  0  0  0
 19 23  2  0  0  0  0
 21 24  2  0  0  0  0
 24 25  1  0  0  0  0
 25 26  1  0  0  0  0
 25 27  1  0  0  0  0
 25 28  1  0  0  0  0
  4  6  1  0  0  0  0
 10 11  1  0  0  0  0
 20 23  1  0  0  0  0
 22 24  1  0  0  0  0
M  END
>  <MolRegNo>
1626851

>  <m>
=

>  <Value>
0

>  <Unit>
nM

>  <Type>
IC50

>  <pValue>
0

>  <Ligand Efficiency>
0

>  <Binding Efficiency>
0

>  <Surface Efficiency>
0

>  <Assay Index>
834085

>  <Assay Category>


>  <Assay Organism>


>  <Target ID>
17045

>  <Target Name>
Cytochrome P450 3A4

>  <Target Organism>
Homo sapiens

>  <Target Description>
Target is a single protein chain

>  <Sequence Accession>
P08684

>  <Reference>


>  <Pubmed ID>


>  <DOI>
10.6019/CHEMBL3137440

$$$$
1612456
Actelion Java MolfileCreator 1.0

 33 36  0  0  0  0  0  0  0  0999 V2000
    0.0000   -0.0000   -0.0000 F   0  0  0  0  0  0  0  0  0  0  0  0
   -1.0822   -0.6080   -0.0000 C   0  0  0  0  0  0  0  0  0  0  0  0
   -1.0944   -1.8361   -0.0000 F   0  0  0  0  0  0  0  0  0  0  0  0
   -0.0243   -1.2160   -0.0000 F   0  0  0  0  0  0  0  0  0  0  0  0
   -2.4319    0.1702   -0.0000 C   0  0  0  0  0  0  0  0  0  0  0  0
   -2.4441    1.7266   -0.0000 C   0  0  0  0  0  0  0  0  0  0  0  0
   -3.7816   -0.5837   -0.0000 C   0  0  0  0  0  0  0  0  0  0  0  0
   -3.7938    2.5049   -0.0000 N   0  0  0  0  0  0  0  0  0  0  0  0
   -5.1313    0.1946   -0.0000 C   0  0  0  0  0  0  0  0  0  0  0  0
   -5.1435    1.7510   -0.0000 C   0  0  0  0  0  0  0  0  0  0  0  0
   -6.4932    2.5292   -0.0000 N   0  0  0  0  0  0  0  0  0  0  0  0
   -7.8429    1.7631   -0.0000 C   0  0  0  0  0  0  0  0  0  0  0  0
   -6.5053    4.0856   -0.0000 C   0  0  0  0  0  0  0  0  0  0  0  0
   -9.1926    2.5413   -0.0000 C   0  0  0  0  0  0  0  0  0  0  0  0
   -7.8550    4.8638   -0.0000 C   0  0  0  0  0  0  0  0  0  0  0  0
   -9.2047    4.0978   -0.0000 C   0  0  0  0  0  0  0  0  0  0  0  0
  -10.5545    4.8760   -0.0000 N   0  0  0  0  0  0  0  0  0  0  0  0
  -10.5666    6.4324   -0.0000 C   0  0  0  0  0  0  0  0  0  0  0  0
  -11.9042    4.1099   -0.0000 C   0  0  0  0  0  0  0  0  0  0  0  0
   -9.2412    7.2227   -0.0000 C   0  0  0  0  0  0  0  0  0  0  0  0
  -11.9163    7.2106   -0.0000 C   0  0  0  0  0  0  0  0  0  0  0  0
  -13.2539    4.8881   -0.0000 C   0  0  0  0  0  0  0  0  0  0  0  0
  -11.9163    2.5778   -0.0000 C   0  0  0  0  0  0  0  0  0  0  0  0
   -9.2655    8.7792   -0.0000 N   0  0  0  0  0  0  0  0  0  0  0  0
  -11.9406    8.7670   -0.0000 C   0  0  0  0  0  0  0  0  0  0  0  0
  -14.6036    4.1221   -0.0000 C   0  0  0  0  0  0  0  0  0  0  0  0
  -13.2660    1.8118   -0.0000 C   0  0  0  0  0  0  0  0  0  0  0  0
  -10.6152    9.5574   -0.0000 C   0  0  0  0  0  0  0  0  0  0  0  0
  -14.6157    2.5900   -0.0000 C   0  0  0  0  0  0  0  0  0  0  0  0
  -15.9654    1.8239   -0.0000 C   0  0  0  0  0  0  0  0  0  0  0  0
  -17.0476    2.4562   -0.0000 F   0  0  0  0  0  0  0  0  0  0  0  0
  -15.9776    0.5958   -0.0000 F   0  0  0  0  0  0  0  0  0  0  0  0
  -17.0476    1.2160   -0.0000 F   0  0  0  0  0  0  0  0  0  0  0  0
  1  2  1  0  0  0  0
  2  3  1  0  0  0  0
  2  4  1  0  0  0  0
  2  5  1  0  0  0  0
  5  6  2  0  0  0  0
  5  7  1  0  0  0  0
  6  8  1  0  0  0  0
  7  9  2  0  0  0  0
  8 10  2  0  0  0  0
 10 11  1  0  0  0  0
 11 12  1  0  0  0  0
 11 13  1  0  0  0  0
 12 14  1  0  0  0  0
 13 15  1  0  0  0  0
 14 16  1  0  0  0  0
 16 17  1  0  0  0  0
 17 18  1  0  0  0  0
 17 19  1  0  0  0  0
 18 20  2  0  0  0  0
 18 21  1  0  0  0  0
 19 22  2  0  0  0  0
 19 23  1  0  0  0  0
 20 24  1  0  0  0  0
 21 25  2  0  0  0  0
 22 26  1  0  0  0  0
 23 27  2  0  0  0  0
 24 28  2  0  0  0  0
 26 29  2  0  0  0  0
 29 30  1  0  0  0  0
 30 31  1  0  0  0  0
 30 32  1  0  0  0  0
 30 33  1  0  0  0  0
  9 10  1  0  0  0  0
 15 16  1  0  0  0  0
 25 28  1  0  0  0  0
 27 29  1  0  0  0  0
M  END
>  <MolRegNo>
1612456

>  <m>
=

>  <Value>
0

>  <Unit>
nM

>  <Type>
IC50

>  <pValue>
0

>  <Ligand Efficiency>
0

>  <Binding Efficiency>
0

>  <Surface Efficiency>
0

>  <Assay Index>
834085

>  <Assay Category>


>  <Assay Organism>


>  <Target ID>
17045

>  <Target Name>
Cytochrome P450 3A4

>  <Target Organism>
Homo sapiens

>  <Target Description>
Target is a single protein chain

>  <Sequence Accession>
P08684

>  <Reference>


>  <Pubmed ID>


>  <DOI>
10.6019/CHEMBL3137440

$$$$
1626854
Actelion Java MolfileCreator 1.0

 30 33  0  0  0  0  0  0  0  0999 V2000
    0.0000   -0.0000   -0.0000 F   0  0  0  0  0  0  0  0  0  0  0  0
   -0.0119   -1.4889   -0.0000 C   0  0  0  0  0  0  0  0  0  0  0  0
   -1.3341   -2.2393   -0.0000 C   0  0  0  0  0  0  0  0  0  0  0  0
    1.2864   -2.2274   -0.0000 C   0  0  0  0  0  0  0  0  0  0  0  0
   -1.3341   -3.7282   -0.0000 N   0  0  0  0  0  0  0  0  0  0  0  0
    1.2626   -3.7163   -0.0000 N   0  0  0  0  0  0  0  0  0  0  0  0
   -0.0476   -4.4667   -0.0000 C   0  0  0  0  0  0  0  0  0  0  0  0
   -0.0596   -5.9556   -0.0000 N   0  0  0  0  0  0  0  0  0  0  0  0
    1.2269   -6.6941   -0.0000 C   0  0  0  0  0  0  0  0  0  0  0  0
   -1.3817   -6.6941   -0.0000 C   0  0  0  0  0  0  0  0  0  0  0  0
    1.2149   -8.1830   -0.0000 C   0  0  0  0  0  0  0  0  0  0  0  0
   -1.3936   -8.1949   -0.0000 C   0  0  0  0  0  0  0  0  0  0  0  0
   -0.0953   -8.9215   -0.0000 C   0  0  0  0  0  0  0  0  0  0  0  0
   -0.0953  -10.4104   -0.0000 N   0  0  0  0  0  0  0  0  0  0  0  0
    1.2030  -11.1489   -0.0000 C   0  0  0  0  0  0  0  0  0  0  0  0
   -1.4055  -11.1608   -0.0000 C   0  0  0  0  0  0  0  0  0  0  0  0
    1.1911  -12.6378   -0.0000 C   0  0  0  0  0  0  0  0  0  0  0  0
    2.4775  -10.3747   -0.0000 C   0  0  0  0  0  0  0  0  0  0  0  0
   -1.4174  -12.6616   -0.0000 C   0  0  0  0  0  0  0  0  0  0  0  0
   -2.7277  -10.3985   -0.0000 C   0  0  0  0  0  0  0  0  0  0  0  0
    2.4775  -13.3763   -0.0000 N   0  0  0  0  0  0  0  0  0  0  0  0
    3.7758  -11.1012   -0.0000 C   0  0  0  0  0  0  0  0  0  0  0  0
   -2.7396  -13.4001   -0.0000 C   0  0  0  0  0  0  0  0  0  0  0  0
   -4.0379  -11.1370   -0.0000 C   0  0  0  0  0  0  0  0  0  0  0  0
    3.7758  -12.6020   -0.0000 C   0  0  0  0  0  0  0  0  0  0  0  0
   -4.0498  -12.6378   -0.0000 C   0  0  0  0  0  0  0  0  0  0  0  0
   -5.3720  -13.3763   -0.0000 C   0  0  0  0  0  0  0  0  0  0  0  0
   -6.6822  -12.6140   -0.0000 F   0  0  0  0  0  0  0  0  0  0  0  0
   -5.3839  -14.8652   -0.0000 F   0  0  0  0  0  0  0  0  0  0  0  0
   -5.7769  -11.9112   -0.0000 F   0  0  0  0  0  0  0  0  0  0  0  0
  1  2  1  0  0  0  0
  2  3  2  0  0  0  0
  2  4  1  0  0  0  0
  3  5  1  0  0  0  0
  4  6  2  0  0  0  0
  5  7  2  0  0  0  0
  7  8  1  0  0  0  0
  8  9  1  0  0  0  0
  8 10  1  0  0  0  0
  9 11  1  0  0  0  0
 10 12  1  0  0  0  0
 11 13  1  0  0  0  0
 13 14  1  0  0  0  0
 14 15  1  0  0  0  0
 14 16  1  0  0  0  0
 15 17  2  0  0  0  0
 15 18  1  0  0  0  0
 16 19  2  0  0  0  0
 16 20  1  0  0  0  0
 17 21  1  0  0  0  0
 18 22  2  0  0  0  0
 19 23  1  0  0  0  0
 20 24  2  0  0  0  0
 21 25  2  0  0  0  0
 23 26  2  0  0  0  0
 26 27  1  0  0  0  0
 27 28  1  0  0  0  0
 27 29  1  0  0  0  0
 27 30  1  0  0  0  0
  6  7  1  0  0  0  0
 12 13  1  0  0  0  0
 22 25  1  0  0  0  0
 24 26  1  0  0  0  0
M  END
>  <MolRegNo>
1626854

>  <m>
=

>  <Value>
0

>  <Unit>
nM

>  <Type>
IC50

>  <pValue>
0

>  <Ligand Efficiency>
0

>  <Binding Efficiency>
0

>  <Surface Efficiency>
0

>  <Assay Index>
834085

>  <Assay Category>


>  <Assay Organism>


>  <Target ID>
17045

>  <Target Name>
Cytochrome P450 3A4

>  <Target Organism>
Homo sapiens

>  <Target Description>
Target is a single protein chain

>  <Sequence Accession>
P08684

>  <Reference>


>  <Pubmed ID>


>  <DOI>
10.6019/CHEMBL3137440

$$$$
1626855
Actelion Java MolfileCreator 1.0

 29 32  0  0  0  0  0  0  0  0999 V2000
    0.0000   -0.0000   -0.0000 F   0  0  0  0  0  0  0  0  0  0  0  0
    0.3798   -1.4362   -0.0000 C   0  0  0  0  0  0  0  0  0  0  0  0
   -0.9258   -0.6766   -0.0000 F   0  0  0  0  0  0  0  0  0  0  0  0
    0.3680   -2.9199   -0.0000 F   0  0  0  0  0  0  0  0  0  0  0  0
    1.6736   -0.6766   -0.0000 C   0  0  0  0  0  0  0  0  0  0  0  0
    1.6618    0.8427   -0.0000 C   0  0  0  0  0  0  0  0  0  0  0  0
    2.9555   -1.4125   -0.0000 C   0  0  0  0  0  0  0  0  0  0  0  0
    2.9437    1.6024   -0.0000 C   0  0  0  0  0  0  0  0  0  0  0  0
    4.2493   -0.6528   -0.0000 C   0  0  0  0  0  0  0  0  0  0  0  0
    4.2375    0.8665   -0.0000 C   0  0  0  0  0  0  0  0  0  0  0  0
    5.5194    1.6380   -0.0000 N   0  0  0  0  0  0  0  0  0  0  0  0
    6.8132    0.9021   -0.0000 C   0  0  0  0  0  0  0  0  0  0  0  0
    5.4957    3.1455   -0.0000 C   0  0  0  0  0  0  0  0  0  0  0  0
    6.8013   -0.5816   -0.0000 C   0  0  0  0  0  0  0  0  0  0  0  0
    8.0832    1.6736   -0.0000 C   0  0  0  0  0  0  0  0  0  0  0  0
    6.7776    3.9051   -0.0000 C   0  0  0  0  0  0  0  0  0  0  0  0
    4.1781    3.8932   -0.0000 C   0  0  0  0  0  0  0  0  0  0  0  0
    8.0832   -1.3175   -0.0000 N   0  0  0  0  0  0  0  0  0  0  0  0
    9.3770    0.9496   -0.0000 C   0  0  0  0  0  0  0  0  0  0  0  0
    6.7657    5.4126   -0.0000 C   0  0  0  0  0  0  0  0  0  0  0  0
    4.1662    5.4126   -0.0000 C   0  0  0  0  0  0  0  0  0  0  0  0
    9.3770   -0.5460   -0.0000 C   0  0  0  0  0  0  0  0  0  0  0  0
    5.4600    6.1722   -0.0000 N   0  0  0  0  0  0  0  0  0  0  0  0
    5.4482    7.6797   -0.0000 C   0  0  0  0  0  0  0  0  0  0  0  0
    4.1425    8.4393   -0.0000 N   0  0  0  0  0  0  0  0  0  0  0  0
    6.7301    8.4393   -0.0000 N   0  0  0  0  0  0  0  0  0  0  0  0
    4.1188    9.9468   -0.0000 C   0  0  0  0  0  0  0  0  0  0  0  0
    6.7301    9.9468   -0.0000 C   0  0  0  0  0  0  0  0  0  0  0  0
    5.4126   10.7183   -0.0000 C   0  0  0  0  0  0  0  0  0  0  0  0
  1  2  1  0  0  0  0
  2  3  1  0  0  0  0
  2  4  1  0  0  0  0
  2  5  1  0  0  0  0
  5  6  2  0  0  0  0
  5  7  1  0  0  0  0
  6  8  1  0  0  0  0
  7  9  2  0  0  0  0
  8 10  2  0  0  0  0
 10 11  1  0  0  0  0
 11 12  1  0  0  0  0
 11 13  1  0  0  0  0
 12 14  2  0  0  0  0
 12 15  1  0  0  0  0
 13 16  1  0  0  0  0
 13 17  1  0  0  0  0
 14 18  1  0  0  0  0
 15 19  2  0  0  0  0
 16 20  1  0  0  0  0
 17 21  1  0  0  0  0
 18 22  2  0  0  0  0
 20 23  1  0  0  0  0
 23 24  1  0  0  0  0
 24 25  2  0  0  0  0
 24 26  1  0  0  0  0
 25 27  1  0  0  0  0
 26 28  2  0  0  0  0
 27 29  2  0  0  0  0
  9 10  1  0  0  0  0
 19 22  1  0  0  0  0
 21 23  1  0  0  0  0
 28 29  1  0  0  0  0
M  END
>  <MolRegNo>
1626855

>  <m>
=

>  <Value>
0

>  <Unit>
nM

>  <Type>
IC50

>  <pValue>
0

>  <Ligand Efficiency>
0

>  <Binding Efficiency>
0

>  <Surface Efficiency>
0

>  <Assay Index>
834085

>  <Assay Category>


>  <Assay Organism>


>  <Target ID>
17045

>  <Target Name>
Cytochrome P450 3A4

>  <Target Organism>
Homo sapiens

>  <Target Description>
Target is a single protein chain

>  <Sequence Accession>
P08684

>  <Reference>


>  <Pubmed ID>


>  <DOI>
10.6019/CHEMBL3137440

$$$$
1612621
Actelion Java MolfileCreator 1.0

 31 34  0  0  0  0  0  0  0  0999 V2000
    0.0000   -0.0000   -0.0000 F   0  0  0  0  0  0  0  0  0  0  0  0
    1.4997    0.0119   -0.0000 C   0  0  0  0  0  0  0  0  0  0  0  0
    2.2495   -1.2735   -0.0000 F   0  0  0  0  0  0  0  0  0  0  0  0
    0.7260   -1.2735   -0.0000 F   0  0  0  0  0  0  0  0  0  0  0  0
    2.2495    1.3331   -0.0000 C   0  0  0  0  0  0  0  0  0  0  0  0
    3.7373    1.3450   -0.0000 C   0  0  0  0  0  0  0  0  0  0  0  0
    1.4759    2.6423   -0.0000 C   0  0  0  0  0  0  0  0  0  0  0  0
    4.4634    2.6542   -0.0000 C   0  0  0  0  0  0  0  0  0  0  0  0
    2.2257    3.9635   -0.0000 C   0  0  0  0  0  0  0  0  0  0  0  0
    3.7135    3.9754   -0.0000 C   0  0  0  0  0  0  0  0  0  0  0  0
    4.4396    5.2846   -0.0000 N   0  0  0  0  0  0  0  0  0  0  0  0
    3.6897    6.5939   -0.0000 C   0  0  0  0  0  0  0  0  0  0  0  0
    5.9273    5.2965   -0.0000 C   0  0  0  0  0  0  0  0  0  0  0  0
    4.4157    7.9150   -0.0000 C   0  0  0  0  0  0  0  0  0  0  0  0
    2.1781    6.6058   -0.0000 C   0  0  0  0  0  0  0  0  0  0  0  0
    6.6772    4.0111   -0.0000 C   0  0  0  0  0  0  0  0  0  0  0  0
    6.6772    6.6058   -0.0000 C   0  0  0  0  0  0  0  0  0  0  0  0
    3.6659    9.2243   -0.0000 N   0  0  0  0  0  0  0  0  0  0  0  0
    1.4045    7.9269   -0.0000 C   0  0  0  0  0  0  0  0  0  0  0  0
    8.1650    4.0230   -0.0000 C   0  0  0  0  0  0  0  0  0  0  0  0
    8.1650    6.6177   -0.0000 C   0  0  0  0  0  0  0  0  0  0  0  0
    2.1543    9.2362   -0.0000 C   0  0  0  0  0  0  0  0  0  0  0  0
    8.9029    5.3322   -0.0000 N   0  0  0  0  0  0  0  0  0  0  0  0
   10.3907    5.3441   -0.0000 C   0  0  0  0  0  0  0  0  0  0  0  0
   11.1286    4.0468   -0.0000 C   0  0  0  0  0  0  0  0  0  0  0  0
   11.1167    6.6534   -0.0000 C   0  0  0  0  0  0  0  0  0  0  0  0
   12.6164    4.0587   -0.0000 C   0  0  0  0  0  0  0  0  0  0  0  0
   12.6045    6.6653   -0.0000 C   0  0  0  0  0  0  0  0  0  0  0  0
   13.3663    5.3798   -0.0000 C   0  0  0  0  0  0  0  0  0  0  0  0
   14.8421    5.3917   -0.0000 C   0  0  0  0  0  0  0  0  0  0  0  0
   16.3299    5.4036   -0.0000 N   0  0  0  0  0  0  0  0  0  0  0  0
  1  2  1  0  0  0  0
  2  3  1  0  0  0  0
  2  4  1  0  0  0  0
  2  5  1  0  0  0  0
  5  6  2  0  0  0  0
  5  7  1  0  0  0  0
  6  8  1  0  0  0  0
  7  9  2  0  0  0  0
  8 10  2  0  0  0  0
 10 11  1  0  0  0  0
 11 12  1  0  0  0  0
 11 13  1  0  0  0  0
 12 14  2  0  0  0  0
 12 15  1  0  0  0  0
 13 16  1  0  0  0  0
 13 17  1  0  0  0  0
 14 18  1  0  0  0  0
 15 19  2  0  0  0  0
 16 20  1  0  0  0  0
 17 21  1  0  0  0  0
 18 22  2  0  0  0  0
 20 23  1  0  0  0  0
 23 24  1  0  0  0  0
 24 25  2  0  0  0  0
 24 26  1  0  0  0  0
 25 27  1  0  0  0  0
 26 28  2  0  0  0  0
 27 29  2  0  0  0  0
 29 30  1  0  0  0  0
 30 31  3  0  0  0  0
  9 10  1  0  0  0  0
 19 22  1  0  0  0  0
 21 23  1  0  0  0  0
 28 29  1  0  0  0  0
M  END
>  <MolRegNo>
1612621

>  <m>
=

>  <Value>
0

>  <Unit>
nM

>  <Type>
IC50

>  <pValue>
0

>  <Ligand Efficiency>
0

>  <Binding Efficiency>
0

>  <Surface Efficiency>
0

>  <Assay Index>
834085

>  <Assay Category>


>  <Assay Organism>


>  <Target ID>
17045

>  <Target Name>
Cytochrome P450 3A4

>  <Target Organism>
Homo sapiens

>  <Target Description>
Target is a single protein chain

>  <Sequence Accession>
P08684

>  <Reference>


>  <Pubmed ID>


>  <DOI>
10.6019/CHEMBL3137440

$$$$
1626844
Actelion Java MolfileCreator 1.0

 29 32  0  0  0  0  0  0  0  0999 V2000
    0.0000   -0.0000   -0.0000 F   0  0  0  0  0  0  0  0  0  0  0  0
    1.2820   -0.7360   -0.0000 C   0  0  0  0  0  0  0  0  0  0  0  0
    1.2701   -2.2198   -0.0000 F   0  0  0  0  0  0  0  0  0  0  0  0
    0.8784    0.7241   -0.0000 F   0  0  0  0  0  0  0  0  0  0  0  0
    2.5759    0.0237   -0.0000 C   0  0  0  0  0  0  0  0  0  0  0  0
    2.5640    1.5432   -0.0000 C   0  0  0  0  0  0  0  0  0  0  0  0
    3.8579   -0.7122   -0.0000 C   0  0  0  0  0  0  0  0  0  0  0  0
    3.8460    2.3029   -0.0000 C   0  0  0  0  0  0  0  0  0  0  0  0
    5.1518    0.0475   -0.0000 C   0  0  0  0  0  0  0  0  0  0  0  0
    5.1399    1.5669   -0.0000 C   0  0  0  0  0  0  0  0  0  0  0  0
    6.4219    2.3385   -0.0000 N   0  0  0  0  0  0  0  0  0  0  0  0
    7.7158    1.6025   -0.0000 C   0  0  0  0  0  0  0  0  0  0  0  0
    6.3982    3.8460   -0.0000 C   0  0  0  0  0  0  0  0  0  0  0  0
    7.7039    0.1187   -0.0000 C   0  0  0  0  0  0  0  0  0  0  0  0
    8.9860    2.3741   -0.0000 C   0  0  0  0  0  0  0  0  0  0  0  0
    5.0806    4.5939   -0.0000 C   0  0  0  0  0  0  0  0  0  0  0  0
    7.6802    4.6057   -0.0000 C   0  0  0  0  0  0  0  0  0  0  0  0
    8.9860   -0.6173   -0.0000 N   0  0  0  0  0  0  0  0  0  0  0  0
   10.2798    1.6500   -0.0000 C   0  0  0  0  0  0  0  0  0  0  0  0
    5.0687    6.1133   -0.0000 C   0  0  0  0  0  0  0  0  0  0  0  0
    7.6683    6.1133   -0.0000 C   0  0  0  0  0  0  0  0  0  0  0  0
   10.2798    0.1543   -0.0000 C   0  0  0  0  0  0  0  0  0  0  0  0
    6.3626    6.8730   -0.0000 N   0  0  0  0  0  0  0  0  0  0  0  0
    6.3507    8.3806   -0.0000 C   0  0  0  0  0  0  0  0  0  0  0  0
    5.0450    9.1403   -0.0000 C   0  0  0  0  0  0  0  0  0  0  0  0
    7.6327    9.1403   -0.0000 C   0  0  0  0  0  0  0  0  0  0  0  0
    5.0212   10.6478   -0.0000 C   0  0  0  0  0  0  0  0  0  0  0  0
    7.6327   10.6478   -0.0000 C   0  0  0  0  0  0  0  0  0  0  0  0
    6.3151   11.4194   -0.0000 C   0  0  0  0  0  0  0  0  0  0  0  0
  1  2  1  0  0  0  0
  2  3  1  0  0  0  0
  2  4  1  0  0  0  0
  2  5  1  0  0  0  0
  5  6  2  0  0  0  0
  5  7  1  0  0  0  0
  6  8  1  0  0  0  0
  7  9  2  0  0  0  0
  8 10  2  0  0  0  0
 10 11  1  0  0  0  0
 11 12  1  0  0  0  0
 11 13  1  0  0  0  0
 12 14  2  0  0  0  0
 12 15  1  0  0  0  0
 13 16  1  0  0  0  0
 13 17  1  0  0  0  0
 14 18  1  0  0  0  0
 15 19  2  0  0  0  0
 16 20  1  0  0  0  0
 17 21  1  0  0  0  0
 18 22  2  0  0  0  0
 20 23  1  0  0  0  0
 23 24  1  0  0  0  0
 24 25  2  0  0  0  0
 24 26  1  0  0  0  0
 25 27  1  0  0  0  0
 26 28  2  0  0  0  0
 27 29  2  0  0  0  0
  9 10  1  0  0  0  0
 19 22  1  0  0  0  0
 21 23  1  0  0  0  0
 28 29  1  0  0  0  0
M  END
>  <MolRegNo>
1626844

>  <m>
=

>  <Value>
11000

>  <Unit>
nM

>  <Type>
IC50

>  <pValue>
4.96

>  <Ligand Efficiency>
0

>  <Binding Efficiency>
0

>  <Surface Efficiency>
0

>  <Assay Index>
834088

>  <Assay Category>


>  <Assay Organism>


>  <Target ID>
17045

>  <Target Name>
Cytochrome P450 3A4

>  <Target Organism>
Homo sapiens

>  <Target Description>
Target is a single protein chain

>  <Sequence Accession>
P08684

>  <Reference>


>  <Pubmed ID>


>  <DOI>
10.6019/CHEMBL3137440

$$$$
1626857
Actelion Java MolfileCreator 1.0

 30 33  0  0  0  0  0  0  0  0999 V2000
    0.0000   -0.0000   -0.0000 F   0  0  0  0  0  0  0  0  0  0  0  0
    1.2820   -0.7360   -0.0000 C   0  0  0  0  0  0  0  0  0  0  0  0
    1.2701   -2.2198   -0.0000 F   0  0  0  0  0  0  0  0  0  0  0  0
    0.8784    0.7241   -0.0000 F   0  0  0  0  0  0  0  0  0  0  0  0
    2.5759    0.0237   -0.0000 C   0  0  0  0  0  0  0  0  0  0  0  0
    2.5640    1.5431   -0.0000 C   0  0  0  0  0  0  0  0  0  0  0  0
    3.8579   -0.7122   -0.0000 C   0  0  0  0  0  0  0  0  0  0  0  0
    3.8460    2.3029   -0.0000 C   0  0  0  0  0  0  0  0  0  0  0  0
    5.1517    0.0475   -0.0000 C   0  0  0  0  0  0  0  0  0  0  0  0
    5.1399    1.5669   -0.0000 C   0  0  0  0  0  0  0  0  0  0  0  0
    6.4219    2.3385   -0.0000 N   0  0  0  0  0  0  0  0  0  0  0  0
    7.7157    1.6025   -0.0000 C   0  0  0  0  0  0  0  0  0  0  0  0
    6.3981    3.8460   -0.0000 C   0  0  0  0  0  0  0  0  0  0  0  0
    7.7039    0.1187   -0.0000 C   0  0  0  0  0  0  0  0  0  0  0  0
    8.9859    2.3741   -0.0000 C   0  0  0  0  0  0  0  0  0  0  0  0
    7.6801    4.6057   -0.0000 C   0  0  0  0  0  0  0  0  0  0  0  0
    5.0805    4.5938   -0.0000 C   0  0  0  0  0  0  0  0  0  0  0  0
    8.9859   -0.6173   -0.0000 N   0  0  0  0  0  0  0  0  0  0  0  0
   10.2797    1.6500   -0.0000 C   0  0  0  0  0  0  0  0  0  0  0  0
    7.6683    6.1132   -0.0000 C   0  0  0  0  0  0  0  0  0  0  0  0
    5.0686    6.1132   -0.0000 C   0  0  0  0  0  0  0  0  0  0  0  0
   10.2797    0.1543   -0.0000 C   0  0  0  0  0  0  0  0  0  0  0  0
    6.3625    6.8729   -0.0000 N   0  0  0  0  0  0  0  0  0  0  0  0
    6.3506    8.3805   -0.0000 C   0  0  0  0  0  0  0  0  0  0  0  0
    5.0449    9.1402   -0.0000 C   0  0  0  0  0  0  0  0  0  0  0  0
    7.6445    9.1402   -0.0000 C   0  0  0  0  0  0  0  0  0  0  0  0
    5.0212   10.6477   -0.0000 N   0  0  0  0  0  0  0  0  0  0  0  0
    7.6326   10.6477   -0.0000 C   0  0  0  0  0  0  0  0  0  0  0  0
    6.3150   11.4193   -0.0000 C   0  0  0  0  0  0  0  0  0  0  0  0
    8.9146   11.4074   -0.0000 C   0  0  0  0  0  0  0  0  0  0  0  0
  1  2  1  0  0  0  0
  2  3  1  0  0  0  0
  2  4  1  0  0  0  0
  2  5  1  0  0  0  0
  5  6  2  0  0  0  0
  5  7  1  0  0  0  0
  6  8  1  0  0  0  0
  7  9  2  0  0  0  0
  8 10  2  0  0  0  0
 10 11  1  0  0  0  0
 11 12  1  0  0  0  0
 11 13  1  0  0  0  0
 12 14  2  0  0  0  0
 12 15  1  0  0  0  0
 13 16  1  0  0  0  0
 13 17  1  0  0  0  0
 14 18  1  0  0  0  0
 15 19  2  0  0  0  0
 16 20  1  0  0  0  0
 17 21  1  0  0  0  0
 18 22  2  0  0  0  0
 20 23  1  0  0  0  0
 23 24  1  0  0  0  0
 24 25  2  0  0  0  0
 24 26  1  0  0  0  0
 25 27  1  0  0  0  0
 26 28  2  0  0  0  0
 27 29  2  0  0  0  0
 28 30  1  0  0  0  0
  9 10  1  0  0  0  0
 19 22  1  0  0  0  0
 21 23  1  0  0  0  0
 28 29  1  0  0  0  0
M  END
>  <MolRegNo>
1626857

>  <m>
=

>  <Value>
600

>  <Unit>
nM

>  <Type>
IC50

>  <pValue>
6.22

>  <Ligand Efficiency>
0

>  <Binding Efficiency>
0

>  <Surface Efficiency>
0

>  <Assay Index>
834088

>  <Assay Category>


>  <Assay Organism>


>  <Target ID>
17045

>  <Target Name>
Cytochrome P450 3A4

>  <Target Organism>
Homo sapiens

>  <Target Description>
Target is a single protein chain

>  <Sequence Accession>
P08684

>  <Reference>


>  <Pubmed ID>


>  <DOI>
10.6019/CHEMBL3137440

$$$$
1612559
Actelion Java MolfileCreator 1.0

 30 33  0  0  0  0  0  0  0  0999 V2000
    0.0000   -0.0000   -0.0000 Cl  0  0  0  0  0  0  0  0  0  0  0  0
   -0.7690   -1.2896   -0.0000 C   0  0  0  0  0  0  0  0  0  0  0  0
   -2.2834   -1.2778   -0.0000 C   0  0  0  0  0  0  0  0  0  0  0  0
   -0.0237   -2.5792   -0.0000 C   0  0  0  0  0  0  0  0  0  0  0  0
   -3.0525   -2.5674   -0.0000 C   0  0  0  0  0  0  0  0  0  0  0  0
   -0.7927   -3.8688   -0.0000 C   0  0  0  0  0  0  0  0  0  0  0  0
   -2.3071   -3.8570   -0.0000 C   0  0  0  0  0  0  0  0  0  0  0  0
   -3.0761   -5.1466   -0.0000 N   0  0  0  0  0  0  0  0  0  0  0  0
   -2.3308   -6.4362   -0.0000 C   0  0  0  0  0  0  0  0  0  0  0  0
   -4.5905   -5.1348   -0.0000 C   0  0  0  0  0  0  0  0  0  0  0  0
   -3.0998   -7.7258   -0.0000 C   0  0  0  0  0  0  0  0  0  0  0  0
   -0.8400   -6.4244   -0.0000 C   0  0  0  0  0  0  0  0  0  0  0  0
   -5.3596   -3.8215   -0.0000 C   0  0  0  0  0  0  0  0  0  0  0  0
   -5.3596   -6.4244   -0.0000 C   0  0  0  0  0  0  0  0  0  0  0  0
   -2.3544   -9.0155   -0.0000 N   0  0  0  0  0  0  0  0  0  0  0  0
   -0.0947   -7.7140   -0.0000 C   0  0  0  0  0  0  0  0  0  0  0  0
   -6.8740   -3.8097   -0.0000 C   0  0  0  0  0  0  0  0  0  0  0  0
   -6.8740   -6.4126   -0.0000 C   0  0  0  0  0  0  0  0  0  0  0  0
   -0.8637   -9.0036   -0.0000 C   0  0  0  0  0  0  0  0  0  0  0  0
   -7.6430   -5.0993   -0.0000 N   0  0  0  0  0  0  0  0  0  0  0  0
   -9.1574   -5.0875   -0.0000 C   0  0  0  0  0  0  0  0  0  0  0  0
   -9.9146   -6.3771   -0.0000 C   0  0  0  0  0  0  0  0  0  0  0  0
   -9.9146   -3.7742   -0.0000 C   0  0  0  0  0  0  0  0  0  0  0  0
  -11.4290   -6.3652   -0.0000 C   0  0  0  0  0  0  0  0  0  0  0  0
  -11.4290   -3.7624   -0.0000 C   0  0  0  0  0  0  0  0  0  0  0  0
  -12.1862   -5.0520   -0.0000 C   0  0  0  0  0  0  0  0  0  0  0  0
  -13.7006   -5.0401   -0.0000 S   0  0  0  0  0  0  0  0  0  0  0  0
  -13.7125   -3.5257   -0.0000 O   0  0  0  0  0  0  0  0  0  0  0  0
  -15.0967   -4.6379   -0.0000 O   0  0  0  0  0  0  0  0  0  0  0  0
  -14.4933   -6.1878   -0.0000 C   0  0  0  0  0  0  0  0  0  0  0  0
  1  2  1  0  0  0  0
  2  3  2  0  0  0  0
  2  4  1  0  0  0  0
  3  5  1  0  0  0  0
  4  6  2  0  0  0  0
  5  7  2  0  0  0  0
  7  8  1  0  0  0  0
  8  9  1  0  0  0  0
  8 10  1  0  0  0  0
  9 11  2  0  0  0  0
  9 12  1  0  0  0  0
 10 13  1  0  0  0  0
 10 14  1  0  0  0  0
 11 15  1  0  0  0  0
 12 16  2  0  0  0  0
 13 17  1  0  0  0  0
 14 18  1  0  0  0  0
 15 19  2  0  0  0  0
 17 20  1  0  0  0  0
 20 21  1  0  0  0  0
 21 22  2  0  0  0  0
 21 23  1  0  0  0  0
 22 24  1  0  0  0  0
 23 25  2  0  0  0  0
 24 26  2  0  0  0  0
 26 27  1  0  0  0  0
 27 28  2  0  0  0  0
 27 29  2  0  0  0  0
 27 30  1  0  0  0  0
  6  7  1  0  0  0  0
 16 19  1  0  0  0  0
 18 20  1  0  0  0  0
 25 26  1  0  0  0  0
M  END
>  <MolRegNo>
1612559

>  <m>
=

>  <Value>
2000

>  <Unit>
nM

>  <Type>
IC50

>  <pValue>
5.7

>  <Ligand Efficiency>
0

>  <Binding Efficiency>
0

>  <Surface Efficiency>
0

>  <Assay Index>
834088

>  <Assay Category>


>  <Assay Organism>


>  <Target ID>
17045

>  <Target Name>
Cytochrome P450 3A4

>  <Target Organism>
Homo sapiens

>  <Target Description>
Target is a single protein chain

>  <Sequence Accession>
P08684

>  <Reference>


>  <Pubmed ID>


>  <DOI>
10.6019/CHEMBL3137440

$$$$
1626858
Actelion Java MolfileCreator 1.0

 29 32  0  0  0  0  0  0  0  0999 V2000
    0.0000   -0.0000   -0.0000 F   0  0  0  0  0  0  0  0  0  0  0  0
   -1.3083   -0.7374   -0.0000 C   0  0  0  0  0  0  0  0  0  0  0  0
   -2.6285    0.0238   -0.0000 C   0  0  0  0  0  0  0  0  0  0  0  0
   -1.3321   -2.2241   -0.0000 C   0  0  0  0  0  0  0  0  0  0  0  0
   -2.6404    1.5343   -0.0000 F   0  0  0  0  0  0  0  0  0  0  0  0
   -3.9487   -0.7255   -0.0000 C   0  0  0  0  0  0  0  0  0  0  0  0
   -2.6404   -2.9615   -0.0000 C   0  0  0  0  0  0  0  0  0  0  0  0
   -3.9487   -2.2122   -0.0000 C   0  0  0  0  0  0  0  0  0  0  0  0
   -2.6523   -4.4482   -0.0000 N   0  0  0  0  0  0  0  0  0  0  0  0
   -3.9725   -5.1857   -0.0000 C   0  0  0  0  0  0  0  0  0  0  0  0
   -1.3678   -5.1857   -0.0000 C   0  0  0  0  0  0  0  0  0  0  0  0
   -3.9844   -6.6843   -0.0000 C   0  0  0  0  0  0  0  0  0  0  0  0
   -1.3797   -6.6724   -0.0000 C   0  0  0  0  0  0  0  0  0  0  0  0
   -2.6880   -7.4098   -0.0000 C   0  0  0  0  0  0  0  0  0  0  0  0
   -2.6880   -8.8965   -0.0000 N   0  0  0  0  0  0  0  0  0  0  0  0
   -1.3916   -9.6339   -0.0000 C   0  0  0  0  0  0  0  0  0  0  0  0
   -3.9963   -9.6458   -0.0000 C   0  0  0  0  0  0  0  0  0  0  0  0
   -1.4035  -11.1206   -0.0000 C   0  0  0  0  0  0  0  0  0  0  0  0
   -0.1189   -8.8608   -0.0000 C   0  0  0  0  0  0  0  0  0  0  0  0
   -5.3165   -8.8846   -0.0000 C   0  0  0  0  0  0  0  0  0  0  0  0
   -4.0082  -11.1444   -0.0000 C   0  0  0  0  0  0  0  0  0  0  0  0
   -0.1189  -11.8580   -0.0000 N   0  0  0  0  0  0  0  0  0  0  0  0
    1.1775   -9.5863   -0.0000 C   0  0  0  0  0  0  0  0  0  0  0  0
   -6.6248   -9.6220   -0.0000 C   0  0  0  0  0  0  0  0  0  0  0  0
   -5.3284  -11.8818   -0.0000 C   0  0  0  0  0  0  0  0  0  0  0  0
    1.1775  -11.0849   -0.0000 C   0  0  0  0  0  0  0  0  0  0  0  0
   -6.6367  -11.1206   -0.0000 C   0  0  0  0  0  0  0  0  0  0  0  0
   -7.9569  -11.8580   -0.0000 C   0  0  0  0  0  0  0  0  0  0  0  0
   -9.2771  -12.5954   -0.0000 N   0  0  0  0  0  0  0  0  0  0  0  0
  1  2  1  0  0  0  0
  2  3  2  0  0  0  0
  2  4  1  0  0  0  0
  3  5  1  0  0  0  0
  3  6  1  0  0  0  0
  4  7  2  0  0  0  0
  6  8  2  0  0  0  0
  7  9  1  0  0  0  0
  9 10  1  0  0  0  0
  9 11  1  0  0  0  0
 10 12  1  0  0  0  0
 11 13  1  0  0  0  0
 12 14  1  0  0  0  0
 14 15  1  0  0  0  0
 15 16  1  0  0  0  0
 15 17  1  0  0  0  0
 16 18  2  0  0  0  0
 16 19  1  0  0  0  0
 17 20  2  0  0  0  0
 17 21  1  0  0  0  0
 18 22  1  0  0  0  0
 19 23  2  0  0  0  0
 20 24  1  0  0  0  0
 21 25  2  0  0  0  0
 22 26  2  0  0  0  0
 24 27  2  0  0  0  0
 27 28  1  0  0  0  0
 28 29  3  0  0  0  0
  7  8  1  0  0  0  0
 13 14  1  0  0  0  0
 23 26  1  0  0  0  0
 25 27  1  0  0  0  0
M  END
>  <MolRegNo>
1626858

>  <m>
=

>  <Value>
4300

>  <Unit>
nM

>  <Type>
IC50

>  <pValue>
5.37

>  <Ligand Efficiency>
0

>  <Binding Efficiency>
0

>  <Surface Efficiency>
0

>  <Assay Index>
834088

>  <Assay Category>


>  <Assay Organism>


>  <Target ID>
17045

>  <Target Name>
Cytochrome P450 3A4

>  <Target Organism>
Homo sapiens

>  <Target Description>
Target is a single protein chain

>  <Sequence Accession>
P08684

>  <Reference>


>  <Pubmed ID>


>  <DOI>
10.6019/CHEMBL3137440

$$$$
1626859
Actelion Java MolfileCreator 1.0

 28 30  0  0  0  0  0  0  0  0999 V2000
    0.0000   -0.0000   -0.0000 F   0  0  0  0  0  0  0  0  0  0  0  0
    1.2834   -0.7368   -0.0000 C   0  0  0  0  0  0  0  0  0  0  0  0
    1.2715   -2.2222   -0.0000 F   0  0  0  0  0  0  0  0  0  0  0  0
    0.8794    0.7249   -0.0000 F   0  0  0  0  0  0  0  0  0  0  0  0
    2.5787    0.0238   -0.0000 C   0  0  0  0  0  0  0  0  0  0  0  0
    3.8621   -0.7130   -0.0000 C   0  0  0  0  0  0  0  0  0  0  0  0
    2.5668    1.5448   -0.0000 C   0  0  0  0  0  0  0  0  0  0  0  0
    5.1573    0.0475   -0.0000 C   0  0  0  0  0  0  0  0  0  0  0  0
    3.8502    2.3054   -0.0000 C   0  0  0  0  0  0  0  0  0  0  0  0
    5.1454    1.5686   -0.0000 C   0  0  0  0  0  0  0  0  0  0  0  0
    6.4288    2.3410   -0.0000 N   0  0  0  0  0  0  0  0  0  0  0  0
    7.7241    1.6042   -0.0000 C   0  0  0  0  0  0  0  0  0  0  0  0
    6.4051    3.8502   -0.0000 C   0  0  0  0  0  0  0  0  0  0  0  0
    7.7122    0.1188   -0.0000 C   0  0  0  0  0  0  0  0  0  0  0  0
    8.9956    2.3767   -0.0000 C   0  0  0  0  0  0  0  0  0  0  0  0
    7.6885    4.6107   -0.0000 C   0  0  0  0  0  0  0  0  0  0  0  0
    5.0860    4.5988   -0.0000 C   0  0  0  0  0  0  0  0  0  0  0  0
    8.9956   -0.6179   -0.0000 N   0  0  0  0  0  0  0  0  0  0  0  0
   10.2909    1.6518   -0.0000 C   0  0  0  0  0  0  0  0  0  0  0  0
    7.6766    6.1199   -0.0000 C   0  0  0  0  0  0  0  0  0  0  0  0
    5.0741    6.1199   -0.0000 C   0  0  0  0  0  0  0  0  0  0  0  0
   10.2909    0.1545   -0.0000 C   0  0  0  0  0  0  0  0  0  0  0  0
    6.3694    6.8804   -0.0000 N   0  0  0  0  0  0  0  0  0  0  0  0
    6.3575    8.3896   -0.0000 C   0  0  0  0  0  0  0  0  0  0  0  0
    7.6409    9.1501   -0.0000 C   0  0  0  0  0  0  0  0  0  0  0  0
    8.9362    8.4133   -0.0000 O   0  0  0  0  0  0  0  0  0  0  0  0
    7.6290   10.6593   -0.0000 C   0  0  0  0  0  0  0  0  0  0  0  0
    6.1793    9.5541   -0.0000 C   0  0  0  0  0  0  0  0  0  0  0  0
  1  2  1  0  0  0  0
  2  3  1  0  0  0  0
  2  4  1  0  0  0  0
  2  5  1  0  0  0  0
  5  6  2  0  0  0  0
  5  7  1  0  0  0  0
  6  8  1  0  0  0  0
  7  9  2  0  0  0  0
  8 10  2  0  0  0  0
 10 11  1  0  0  0  0
 11 12  1  0  0  0  0
 11 13  1  0  0  0  0
 12 14  2  0  0  0  0
 12 15  1  0  0  0  0
 13 16  1  0  0  0  0
 13 17  1  0  0  0  0
 14 18  1  0  0  0  0
 15 19  2  0  0  0  0
 16 20  1  0  0  0  0
 17 21  1  0  0  0  0
 18 22  2  0  0  0  0
 20 23  1  0  0  0  0
 23 24  1  0  0  0  0
 24 25  1  0  0  0  0
 25 26  1  0  0  0  0
 25 27  1  0  0  0  0
 25 28  1  0  0  0  0
  9 10  1  0  0  0  0
 19 22  1  0  0  0  0
 21 23  1  0  0  0  0
M  END
>  <MolRegNo>
1626859

>  <m>
=

>  <Value>
5300

>  <Unit>
nM

>  <Type>
IC50

>  <pValue>
5.28

>  <Ligand Efficiency>
0

>  <Binding Efficiency>
0

>  <Surface Efficiency>
0

>  <Assay Index>
834088

>  <Assay Category>


>  <Assay Organism>


>  <Target ID>
17045

>  <Target Name>
Cytochrome P450 3A4

>  <Target Organism>
Homo sapiens

>  <Target Description>
Target is a single protein chain

>  <Sequence Accession>
P08684

>  <Reference>


>  <Pubmed ID>


>  <DOI>
10.6019/CHEMBL3137440

$$$$
1626860
Actelion Java MolfileCreator 1.0

 33 36  0  0  0  0  0  0  0  0999 V2000
    0.0000   -0.0000   -0.0000 S   0  0  0  0  0  0  0  0  0  0  0  0
    1.0460    1.0935   -0.0000 O   0  0  0  0  0  0  0  0  0  0  0  0
   -0.0238   -1.4858   -0.0000 O   0  0  0  0  0  0  0  0  0  0  0  0
    1.2837   -0.7369   -0.0000 N   0  0  0  0  0  0  0  0  0  0  0  0
   -1.3075    0.7607   -0.0000 C   0  0  0  0  0  0  0  0  0  0  0  0
    1.6640   -2.1870   -0.0000 C   0  0  0  0  0  0  0  0  0  0  0  0
    2.5674    0.0238   -0.0000 C   0  0  0  0  0  0  0  0  0  0  0  0
   -2.6268    0.0238   -0.0000 C   0  0  0  0  0  0  0  0  0  0  0  0
   -1.3193    2.2702   -0.0000 C   0  0  0  0  0  0  0  0  0  0  0  0
   -2.6387   -1.4620   -0.0000 N   0  0  0  0  0  0  0  0  0  0  0  0
   -3.9343    0.7845   -0.0000 C   0  0  0  0  0  0  0  0  0  0  0  0
   -2.6387    3.0309   -0.0000 C   0  0  0  0  0  0  0  0  0  0  0  0
   -1.3550   -2.1989   -0.0000 C   0  0  0  0  0  0  0  0  0  0  0  0
   -3.9580   -2.1989   -0.0000 C   0  0  0  0  0  0  0  0  0  0  0  0
   -3.9580    2.2940   -0.0000 C   0  0  0  0  0  0  0  0  0  0  0  0
   -1.3669   -3.6847   -0.0000 C   0  0  0  0  0  0  0  0  0  0  0  0
   -3.9699   -3.6966   -0.0000 C   0  0  0  0  0  0  0  0  0  0  0  0
   -2.6744   -4.4216   -0.0000 C   0  0  0  0  0  0  0  0  0  0  0  0
   -2.6744   -5.9074   -0.0000 N   0  0  0  0  0  0  0  0  0  0  0  0
   -1.3788   -6.6443   -0.0000 C   0  0  0  0  0  0  0  0  0  0  0  0
   -3.9818   -6.6562   -0.0000 C   0  0  0  0  0  0  0  0  0  0  0  0
   -1.3907   -8.1300   -0.0000 C   0  0  0  0  0  0  0  0  0  0  0  0
   -0.1070   -5.8717   -0.0000 C   0  0  0  0  0  0  0  0  0  0  0  0
   -3.9937   -8.1538   -0.0000 C   0  0  0  0  0  0  0  0  0  0  0  0
   -5.3012   -5.8955   -0.0000 C   0  0  0  0  0  0  0  0  0  0  0  0
   -0.1070   -8.8670   -0.0000 N   0  0  0  0  0  0  0  0  0  0  0  0
    1.1886   -6.5967   -0.0000 C   0  0  0  0  0  0  0  0  0  0  0  0
   -5.3131   -8.8907   -0.0000 C   0  0  0  0  0  0  0  0  0  0  0  0
   -6.6086   -6.6324   -0.0000 C   0  0  0  0  0  0  0  0  0  0  0  0
    1.1886   -8.0944   -0.0000 C   0  0  0  0  0  0  0  0  0  0  0  0
   -6.6205   -8.1300   -0.0000 C   0  0  0  0  0  0  0  0  0  0  0  0
   -7.9399   -8.8670   -0.0000 C   0  0  0  0  0  0  0  0  0  0  0  0
   -9.2592   -9.6039   -0.0000 N   0  0  0  0  0  0  0  0  0  0  0  0
  1  2  2  0  0  0  0
  1  3  2  0  0  0  0
  1  4  1  0  0  0  0
  1  5  1  0  0  0  0
  4  6  1  0  0  0  0
  4  7  1  0  0  0  0
  5  8  2  0  0  0  0
  5  9  1  0  0  0  0
  8 10  1  0  0  0  0
  8 11  1  0  0  0  0
  9 12  2  0  0  0  0
 10 13  1  0  0  0  0
 10 14  1  0  0  0  0
 11 15  2  0  0  0  0
 13 16  1  0  0  0  0
 14 17  1  0  0  0  0
 16 18  1  0  0  0  0
 18 19  1  0  0  0  0
 19 20  1  0  0  0  0
 19 21  1  0  0  0  0
 20 22  2  0  0  0  0
 20 23  1  0  0  0  0
 21 24  2  0  0  0  0
 21 25  1  0  0  0  0
 22 26  1  0  0  0  0
 23 27  2  0  0  0  0
 24 28  1  0  0  0  0
 25 29  2  0  0  0  0
 26 30  2  0  0  0  0
 28 31  2  0  0  0  0
 31 32  1  0  0  0  0
 32 33  3  0  0  0  0
 12 15  1  0  0  0  0
 17 18  1  0  0  0  0
 27 30  1  0  0  0  0
 29 31  1  0  0  0  0
M  END
>  <MolRegNo>
1626860

>  <m>
=

>  <Value>
2000

>  <Unit>
nM

>  <Type>
IC50

>  <pValue>
5.7

>  <Ligand Efficiency>
0

>  <Binding Efficiency>
0

>  <Surface Efficiency>
0

>  <Assay Index>
834088

>  <Assay Category>


>  <Assay Organism>


>  <Target ID>
17045

>  <Target Name>
Cytochrome P450 3A4

>  <Target Organism>
Homo sapiens

>  <Target Description>
Target is a single protein chain

>  <Sequence Accession>
P08684

>  <Reference>


>  <Pubmed ID>


>  <DOI>
10.6019/CHEMBL3137440

$$$$
1626861
Actelion Java MolfileCreator 1.0

 35 38  0  0  0  0  0  0  0  0999 V2000
    0.0000   -0.0000   -0.0000 S   0  0  0  0  0  0  0  0  0  0  0  0
    1.0471   -1.0471   -0.0000 O   0  0  0  0  0  0  0  0  0  0  0  0
   -0.0238    1.5111   -0.0000 O   0  0  0  0  0  0  0  0  0  0  0  0
    1.2850    0.7734   -0.0000 N   0  0  0  0  0  0  0  0  0  0  0  0
   -1.3088   -0.7377   -0.0000 C   0  0  0  0  0  0  0  0  0  0  0  0
    2.7128    0.3926   -0.0000 C   0  0  0  0  0  0  0  0  0  0  0  0
    1.2612    2.2845   -0.0000 C   0  0  0  0  0  0  0  0  0  0  0  0
   -1.3207   -2.2250   -0.0000 C   0  0  0  0  0  0  0  0  0  0  0  0
   -2.6295    0.0238   -0.0000 C   0  0  0  0  0  0  0  0  0  0  0  0
   -2.6414   -2.9627   -0.0000 C   0  0  0  0  0  0  0  0  0  0  0  0
   -3.9503   -0.7258   -0.0000 C   0  0  0  0  0  0  0  0  0  0  0  0
   -2.6533   -4.4500   -0.0000 N   0  0  0  0  0  0  0  0  0  0  0  0
   -3.9503   -2.2012   -0.0000 C   0  0  0  0  0  0  0  0  0  0  0  0
   -3.9741   -5.1877   -0.0000 C   0  0  0  0  0  0  0  0  0  0  0  0
   -1.3683   -5.1877   -0.0000 C   0  0  0  0  0  0  0  0  0  0  0  0
   -3.9860   -6.6869   -0.0000 C   0  0  0  0  0  0  0  0  0  0  0  0
   -1.3802   -6.6750   -0.0000 C   0  0  0  0  0  0  0  0  0  0  0  0
   -2.6890   -7.4127   -0.0000 C   0  0  0  0  0  0  0  0  0  0  0  0
   -2.6890   -8.9000   -0.0000 N   0  0  0  0  0  0  0  0  0  0  0  0
   -1.3921   -9.6377   -0.0000 C   0  0  0  0  0  0  0  0  0  0  0  0
   -3.9979   -9.6496   -0.0000 C   0  0  0  0  0  0  0  0  0  0  0  0
   -1.4040  -11.1250   -0.0000 C   0  0  0  0  0  0  0  0  0  0  0  0
   -0.1190   -8.8643   -0.0000 C   0  0  0  0  0  0  0  0  0  0  0  0
   -5.3186   -8.8881   -0.0000 C   0  0  0  0  0  0  0  0  0  0  0  0
   -4.0097  -11.1488   -0.0000 C   0  0  0  0  0  0  0  0  0  0  0  0
   -0.1190  -11.8627   -0.0000 N   0  0  0  0  0  0  0  0  0  0  0  0
    1.1779   -9.5901   -0.0000 C   0  0  0  0  0  0  0  0  0  0  0  0
   -6.6274   -9.6258   -0.0000 C   0  0  0  0  0  0  0  0  0  0  0  0
   -5.3305  -11.8865   -0.0000 C   0  0  0  0  0  0  0  0  0  0  0  0
    1.1779  -11.0893   -0.0000 C   0  0  0  0  0  0  0  0  0  0  0  0
   -6.6393  -11.1250   -0.0000 C   0  0  0  0  0  0  0  0  0  0  0  0
   -7.9600  -11.8627   -0.0000 C   0  0  0  0  0  0  0  0  0  0  0  0
   -9.2688  -11.1012   -0.0000 F   0  0  0  0  0  0  0  0  0  0  0  0
   -7.9719  -13.3500   -0.0000 F   0  0  0  0  0  0  0  0  0  0  0  0
   -8.3646  -10.3992   -0.0000 F   0  0  0  0  0  0  0  0  0  0  0  0
  1  2  2  0  0  0  0
  1  3  2  0  0  0  0
  1  4  1  0  0  0  0
  1  5  1  0  0  0  0
  4  6  1  0  0  0  0
  4  7  1  0  0  0  0
  5  8  2  0  0  0  0
  5  9  1  0  0  0  0
  8 10  1  0  0  0  0
  9 11  2  0  0  0  0
 10 12  1  0  0  0  0
 10 13  2  0  0  0  0
 12 14  1  0  0  0  0
 12 15  1  0  0  0  0
 14 16  1  0  0  0  0
 15 17  1  0  0  0  0
 16 18  1  0  0  0  0
 18 19  1  0  0  0  0
 19 20  1  0  0  0  0
 19 21  1  0  0  0  0
 20 22  2  0  0  0  0
 20 23  1  0  0  0  0
 21 24  2  0  0  0  0
 21 25  1  0  0  0  0
 22 26  1  0  0  0  0
 23 27  2  0  0  0  0
 24 28  1  0  0  0  0
 25 29  2  0  0  0  0
 26 30  2  0  0  0  0
 28 31  2  0  0  0  0
 31 32  1  0  0  0  0
 32 33  1  0  0  0  0
 32 34  1  0  0  0  0
 32 35  1  0  0  0  0
 11 13  1  0  0  0  0
 17 18  1  0  0  0  0
 27 30  1  0  0  0  0
 29 31  1  0  0  0  0
M  END
>  <MolRegNo>
1626861

>  <m>
=

>  <Value>
7000

>  <Unit>
nM

>  <Type>
IC50

>  <pValue>
5.16

>  <Ligand Efficiency>
0

>  <Binding Efficiency>
0

>  <Surface Efficiency>
0

>  <Assay Index>
834088

>  <Assay Category>


>  <Assay Organism>


>  <Target ID>
17045

>  <Target Name>
Cytochrome P450 3A4

>  <Target Organism>
Homo sapiens

>  <Target Description>
Target is a single protein chain

>  <Sequence Accession>
P08684

>  <Reference>


>  <Pubmed ID>


>  <DOI>
10.6019/CHEMBL3137440

$$$$
1626862
Actelion Java MolfileCreator 1.0

 33 36  0  0  0  0  0  0  0  0999 V2000
    0.0000   -0.0000   -0.0000 S   0  0  0  0  0  0  0  0  0  0  0  0
   -0.0238    1.5225   -0.0000 O   0  0  0  0  0  0  0  0  0  0  0  0
    1.0467   -1.0467   -0.0000 O   0  0  0  0  0  0  0  0  0  0  0  0
    1.2846    0.7732   -0.0000 N   0  0  0  0  0  0  0  0  0  0  0  0
   -1.3084   -0.7375   -0.0000 C   0  0  0  0  0  0  0  0  0  0  0  0
    2.7239    0.3925   -0.0000 C   0  0  0  0  0  0  0  0  0  0  0  0
    1.2608    2.2838   -0.0000 C   0  0  0  0  0  0  0  0  0  0  0  0
   -1.3203   -2.2243   -0.0000 C   0  0  0  0  0  0  0  0  0  0  0  0
   -2.6287    0.0238   -0.0000 C   0  0  0  0  0  0  0  0  0  0  0  0
   -2.6406   -2.9618   -0.0000 C   0  0  0  0  0  0  0  0  0  0  0  0
   -3.9491   -0.7256   -0.0000 C   0  0  0  0  0  0  0  0  0  0  0  0
   -2.6525   -4.4487   -0.0000 N   0  0  0  0  0  0  0  0  0  0  0  0
   -3.9491   -2.2005   -0.0000 C   0  0  0  0  0  0  0  0  0  0  0  0
   -1.3679   -5.1861   -0.0000 C   0  0  0  0  0  0  0  0  0  0  0  0
   -3.9729   -5.1861   -0.0000 C   0  0  0  0  0  0  0  0  0  0  0  0
   -1.3798   -6.6730   -0.0000 C   0  0  0  0  0  0  0  0  0  0  0  0
   -3.9848   -6.6849   -0.0000 C   0  0  0  0  0  0  0  0  0  0  0  0
   -2.6882   -7.4105   -0.0000 C   0  0  0  0  0  0  0  0  0  0  0  0
   -2.6882   -8.8973   -0.0000 N   0  0  0  0  0  0  0  0  0  0  0  0
   -1.3917   -9.6348   -0.0000 C   0  0  0  0  0  0  0  0  0  0  0  0
   -3.9967   -9.6467   -0.0000 C   0  0  0  0  0  0  0  0  0  0  0  0
   -1.4036  -11.1216   -0.0000 C   0  0  0  0  0  0  0  0  0  0  0  0
   -0.1189   -8.8616   -0.0000 C   0  0  0  0  0  0  0  0  0  0  0  0
   -4.0085  -11.1454   -0.0000 C   0  0  0  0  0  0  0  0  0  0  0  0
   -5.3170   -8.8854   -0.0000 C   0  0  0  0  0  0  0  0  0  0  0  0
   -0.1189  -11.8591   -0.0000 N   0  0  0  0  0  0  0  0  0  0  0  0
    1.1776   -9.5872   -0.0000 C   0  0  0  0  0  0  0  0  0  0  0  0
   -5.3289  -11.8829   -0.0000 C   0  0  0  0  0  0  0  0  0  0  0  0
   -6.6254   -9.6229   -0.0000 C   0  0  0  0  0  0  0  0  0  0  0  0
    1.1776  -11.0859   -0.0000 C   0  0  0  0  0  0  0  0  0  0  0  0
   -6.6373  -11.1216   -0.0000 C   0  0  0  0  0  0  0  0  0  0  0  0
   -7.9576  -11.8591   -0.0000 C   0  0  0  0  0  0  0  0  0  0  0  0
   -9.2779  -12.5966   -0.0000 N   0  0  0  0  0  0  0  0  0  0  0  0
  1  2  2  0  0  0  0
  1  3  2  0  0  0  0
  1  4  1  0  0  0  0
  1  5  1  0  0  0  0
  4  6  1  0  0  0  0
  4  7  1  0  0  0  0
  5  8  2  0  0  0  0
  5  9  1  0  0  0  0
  8 10  1  0  0  0  0
  9 11  2  0  0  0  0
 10 12  1  0  0  0  0
 10 13  2  0  0  0  0
 12 14  1  0  0  0  0
 12 15  1  0  0  0  0
 14 16  1  0  0  0  0
 15 17  1  0  0  0  0
 16 18  1  0  0  0  0
 18 19  1  0  0  0  0
 19 20  1  0  0  0  0
 19 21  1  0  0  0  0
 20 22  2  0  0  0  0
 20 23  1  0  0  0  0
 21 24  2  0  0  0  0
 21 25  1  0  0  0  0
 22 26  1  0  0  0  0
 23 27  2  0  0  0  0
 24 28  1  0  0  0  0
 25 29  2  0  0  0  0
 26 30  2  0  0  0  0
 28 31  2  0  0  0  0
 31 32  1  0  0  0  0
 32 33  3  0  0  0  0
 11 13  1  0  0  0  0
 17 18  1  0  0  0  0
 27 30  1  0  0  0  0
 29 31  1  0  0  0  0
M  END
>  <MolRegNo>
1626862

>  <m>
=

>  <Value>
6000

>  <Unit>
nM

>  <Type>
IC50

>  <pValue>
5.22

>  <Ligand Efficiency>
0

>  <Binding Efficiency>
0

>  <Surface Efficiency>
0

>  <Assay Index>
834088

>  <Assay Category>


>  <Assay Organism>


>  <Target ID>
17045

>  <Target Name>
Cytochrome P450 3A4

>  <Target Organism>
Homo sapiens

>  <Target Description>
Target is a single protein chain

>  <Sequence Accession>
P08684

>  <Reference>


>  <Pubmed ID>


>  <DOI>
10.6019/CHEMBL3137440

$$$$
1626863
Actelion Java MolfileCreator 1.0

 29 31  0  0  0  0  0  0  0  0999 V2000
    0.0000   -0.0000   -0.0000 F   0  0  0  0  0  0  0  0  0  0  0  0
    0.3801   -1.4372   -0.0000 C   0  0  0  0  0  0  0  0  0  0  0  0
   -0.9265   -0.6770   -0.0000 F   0  0  0  0  0  0  0  0  0  0  0  0
    0.3682   -2.9220   -0.0000 F   0  0  0  0  0  0  0  0  0  0  0  0
    1.6748   -0.6770   -0.0000 C   0  0  0  0  0  0  0  0  0  0  0  0
    1.6629    0.8433   -0.0000 C   0  0  0  0  0  0  0  0  0  0  0  0
    2.9576   -1.4135   -0.0000 C   0  0  0  0  0  0  0  0  0  0  0  0
    2.9458    1.6035   -0.0000 C   0  0  0  0  0  0  0  0  0  0  0  0
    4.2523   -0.6533   -0.0000 C   0  0  0  0  0  0  0  0  0  0  0  0
    4.2405    0.8671   -0.0000 C   0  0  0  0  0  0  0  0  0  0  0  0
    5.5233    1.6392   -0.0000 N   0  0  0  0  0  0  0  0  0  0  0  0
    6.8180    0.9027   -0.0000 C   0  0  0  0  0  0  0  0  0  0  0  0
    5.4995    3.1477   -0.0000 C   0  0  0  0  0  0  0  0  0  0  0  0
    6.8061   -0.5820   -0.0000 C   0  0  0  0  0  0  0  0  0  0  0  0
    8.0890    1.6748   -0.0000 C   0  0  0  0  0  0  0  0  0  0  0  0
    4.1811    3.8960   -0.0000 C   0  0  0  0  0  0  0  0  0  0  0  0
    6.7824    3.9079   -0.0000 C   0  0  0  0  0  0  0  0  0  0  0  0
    8.0890   -1.3185   -0.0000 N   0  0  0  0  0  0  0  0  0  0  0  0
    9.3837    0.9502   -0.0000 C   0  0  0  0  0  0  0  0  0  0  0  0
    4.1692    5.4164   -0.0000 C   0  0  0  0  0  0  0  0  0  0  0  0
    6.7705    5.4164   -0.0000 C   0  0  0  0  0  0  0  0  0  0  0  0
    9.3837   -0.5464   -0.0000 C   0  0  0  0  0  0  0  0  0  0  0  0
    5.4639    6.1766   -0.0000 N   0  0  0  0  0  0  0  0  0  0  0  0
    5.4520    7.6851   -0.0000 C   0  0  0  0  0  0  0  0  0  0  0  0
    6.7349    8.4453   -0.0000 C   0  0  0  0  0  0  0  0  0  0  0  0
    4.1336    8.4453   -0.0000 C   0  0  0  0  0  0  0  0  0  0  0  0
    6.7230    9.9538   -0.0000 O   0  0  0  0  0  0  0  0  0  0  0  0
    8.0296    7.7089   -0.0000 C   0  0  0  0  0  0  0  0  0  0  0  0
    2.8151    7.7089   -0.0000 C   0  0  0  0  0  0  0  0  0  0  0  0
  1  2  1  0  0  0  0
  2  3  1  0  0  0  0
  2  4  1  0  0  0  0
  2  5  1  0  0  0  0
  5  6  2  0  0  0  0
  5  7  1  0  0  0  0
  6  8  1  0  0  0  0
  7  9  2  0  0  0  0
  8 10  2  0  0  0  0
 10 11  1  0  0  0  0
 11 12  1  0  0  0  0
 11 13  1  0  0  0  0
 12 14  2  0  0  0  0
 12 15  1  0  0  0  0
 13 16  1  0  0  0  0
 13 17  1  0  0  0  0
 14 18  1  0  0  0  0
 15 19  2  0  0  0  0
 16 20  1  0  0  0  0
 17 21  1  0  0  0  0
 18 22  2  0  0  0  0
 20 23  1  0  0  0  0
 23 24  1  0  0  0  0
 24 25  1  0  0  0  0
 24 26  1  0  0  0  0
 25 27  2  0  0  0  0
 25 28  1  0  0  0  0
 26 29  1  0  0  0  0
  9 10  1  0  0  0  0
 19 22  1  0  0  0  0
 21 23  1  0  0  0  0
M  END
>  <MolRegNo>
1626863

>  <m>
=

>  <Value>
10000

>  <Unit>
nM

>  <Type>
IC50

>  <pValue>
5

>  <Ligand Efficiency>
0

>  <Binding Efficiency>
0

>  <Surface Efficiency>
0

>  <Assay Index>
834088

>  <Assay Category>


>  <Assay Organism>


>  <Target ID>
17045

>  <Target Name>
Cytochrome P450 3A4

>  <Target Organism>
Homo sapiens

>  <Target Description>
Target is a single protein chain

>  <Sequence Accession>
P08684

>  <Reference>


>  <Pubmed ID>


>  <DOI>
10.6019/CHEMBL3137440

$$$$
1626870
Actelion Java MolfileCreator 1.0

 28 30  0  0  0  0  0  0  0  0999 V2000
    0.0000   -0.0000   -0.0000 F   0  0  0  0  0  0  0  0  0  0  0  0
    0.3801   -1.4372   -0.0000 C   0  0  0  0  0  0  0  0  0  0  0  0
   -0.9265   -0.6770   -0.0000 F   0  0  0  0  0  0  0  0  0  0  0  0
    0.3682   -2.9220   -0.0000 F   0  0  0  0  0  0  0  0  0  0  0  0
    1.6748   -0.6770   -0.0000 C   0  0  0  0  0  0  0  0  0  0  0  0
    1.6629    0.8433   -0.0000 C   0  0  0  0  0  0  0  0  0  0  0  0
    2.9576   -1.4135   -0.0000 C   0  0  0  0  0  0  0  0  0  0  0  0
    2.9458    1.6035   -0.0000 C   0  0  0  0  0  0  0  0  0  0  0  0
    4.2523   -0.6533   -0.0000 C   0  0  0  0  0  0  0  0  0  0  0  0
    4.2405    0.8671   -0.0000 C   0  0  0  0  0  0  0  0  0  0  0  0
    5.5233    1.6392   -0.0000 N   0  0  0  0  0  0  0  0  0  0  0  0
    6.8180    0.9027   -0.0000 C   0  0  0  0  0  0  0  0  0  0  0  0
    5.4995    3.1477   -0.0000 C   0  0  0  0  0  0  0  0  0  0  0  0
    6.8061   -0.5820   -0.0000 C   0  0  0  0  0  0  0  0  0  0  0  0
    8.0889    1.6748   -0.0000 C   0  0  0  0  0  0  0  0  0  0  0  0
    6.7824    3.9079   -0.0000 C   0  0  0  0  0  0  0  0  0  0  0  0
    4.1811    3.8960   -0.0000 C   0  0  0  0  0  0  0  0  0  0  0  0
    8.0889   -1.3185   -0.0000 N   0  0  0  0  0  0  0  0  0  0  0  0
    9.3836    0.9502   -0.0000 C   0  0  0  0  0  0  0  0  0  0  0  0
    6.7705    5.4164   -0.0000 C   0  0  0  0  0  0  0  0  0  0  0  0
    4.1692    5.4164   -0.0000 C   0  0  0  0  0  0  0  0  0  0  0  0
    9.3836   -0.5464   -0.0000 C   0  0  0  0  0  0  0  0  0  0  0  0
    5.4639    6.1766   -0.0000 N   0  0  0  0  0  0  0  0  0  0  0  0
    5.4520    7.6851   -0.0000 C   0  0  0  0  0  0  0  0  0  0  0  0
    4.1336    8.4453   -0.0000 C   0  0  0  0  0  0  0  0  0  0  0  0
    6.7348    8.4453   -0.0000 C   0  0  0  0  0  0  0  0  0  0  0  0
    4.1217    9.9538   -0.0000 O   0  0  0  0  0  0  0  0  0  0  0  0
    2.8270    7.7088   -0.0000 C   0  0  0  0  0  0  0  0  0  0  0  0
  1  2  1  0  0  0  0
  2  3  1  0  0  0  0
  2  4  1  0  0  0  0
  2  5  1  0  0  0  0
  5  6  2  0  0  0  0
  5  7  1  0  0  0  0
  6  8  1  0  0  0  0
  7  9  2  0  0  0  0
  8 10  2  0  0  0  0
 10 11  1  0  0  0  0
 11 12  1  0  0  0  0
 11 13  1  0  0  0  0
 12 14  2  0  0  0  0
 12 15  1  0  0  0  0
 13 16  1  0  0  0  0
 13 17  1  0  0  0  0
 14 18  1  0  0  0  0
 15 19  2  0  0  0  0
 16 20  1  0  0  0  0
 17 21  1  0  0  0  0
 18 22  2  0  0  0  0
 20 23  1  0  0  0  0
 23 24  1  0  0  0  0
 24 25  1  0  0  0  0
 24 26  1  0  0  0  0
 25 27  2  0  0  0  0
 25 28  1  0  0  0  0
  9 10  1  0  0  0  0
 19 22  1  0  0  0  0
 21 23  1  0  0  0  0
M  END
>  <MolRegNo>
1626870

>  <m>
=

>  <Value>
5000

>  <Unit>
nM

>  <Type>
IC50

>  <pValue>
5.3

>  <Ligand Efficiency>
0

>  <Binding Efficiency>
0

>  <Surface Efficiency>
0

>  <Assay Index>
834088

>  <Assay Category>


>  <Assay Organism>


>  <Target ID>
17045

>  <Target Name>
Cytochrome P450 3A4

>  <Target Organism>
Homo sapiens

>  <Target Description>
Target is a single protein chain

>  <Sequence Accession>
P08684

>  <Reference>


>  <Pubmed ID>


>  <DOI>
10.6019/CHEMBL3137440

$$$$
1626876
Actelion Java MolfileCreator 1.0

 29 31  0  0  0  0  0  0  0  0999 V2000
    0.0000   -0.0000   -0.0000 F   0  0  0  0  0  0  0  0  0  0  0  0
    1.2821   -0.7360   -0.0000 C   0  0  0  0  0  0  0  0  0  0  0  0
    1.2703   -2.2200   -0.0000 F   0  0  0  0  0  0  0  0  0  0  0  0
    0.8785    0.7242   -0.0000 F   0  0  0  0  0  0  0  0  0  0  0  0
    2.5762    0.0237   -0.0000 C   0  0  0  0  0  0  0  0  0  0  0  0
    2.5643    1.5433   -0.0000 C   0  0  0  0  0  0  0  0  0  0  0  0
    3.8583   -0.7123   -0.0000 C   0  0  0  0  0  0  0  0  0  0  0  0
    3.8464    2.3031   -0.0000 C   0  0  0  0  0  0  0  0  0  0  0  0
    5.1523    0.0475   -0.0000 C   0  0  0  0  0  0  0  0  0  0  0  0
    5.1404    1.5671   -0.0000 C   0  0  0  0  0  0  0  0  0  0  0  0
    6.4226    2.3387   -0.0000 N   0  0  0  0  0  0  0  0  0  0  0  0
    7.7166    1.6027   -0.0000 C   0  0  0  0  0  0  0  0  0  0  0  0
    6.3870    3.8464   -0.0000 C   0  0  0  0  0  0  0  0  0  0  0  0
    7.7047    0.1187   -0.0000 C   0  0  0  0  0  0  0  0  0  0  0  0
    8.9869    2.3743   -0.0000 C   0  0  0  0  0  0  0  0  0  0  0  0
    7.6691    4.6181   -0.0000 C   0  0  0  0  0  0  0  0  0  0  0  0
    5.0692    4.5825   -0.0000 C   0  0  0  0  0  0  0  0  0  0  0  0
    8.9869   -0.6173   -0.0000 N   0  0  0  0  0  0  0  0  0  0  0  0
   10.2809    1.6502   -0.0000 C   0  0  0  0  0  0  0  0  0  0  0  0
    7.6454    6.1139   -0.0000 C   0  0  0  0  0  0  0  0  0  0  0  0
    5.0455    6.1021   -0.0000 C   0  0  0  0  0  0  0  0  0  0  0  0
   10.2809    0.1543   -0.0000 C   0  0  0  0  0  0  0  0  0  0  0  0
    6.3276    6.8737   -0.0000 N   0  0  0  0  0  0  0  0  0  0  0  0
    6.3039    8.3814   -0.0000 C   0  0  0  0  0  0  0  0  0  0  0  0
    4.9861    9.1293   -0.0000 C   0  0  0  0  0  0  0  0  0  0  0  0
    7.5860    9.1650   -0.0000 C   0  0  0  0  0  0  0  0  0  0  0  0
    4.9624   10.6489   -0.0000 O   0  0  0  0  0  0  0  0  0  0  0  0
    3.6802    8.3814   -0.0000 C   0  0  0  0  0  0  0  0  0  0  0  0
    7.5623   10.6727   -0.0000 C   0  0  0  0  0  0  0  0  0  0  0  0
  1  2  1  0  0  0  0
  2  3  1  0  0  0  0
  2  4  1  0  0  0  0
  2  5  1  0  0  0  0
  5  6  2  0  0  0  0
  5  7  1  0  0  0  0
  6  8  1  0  0  0  0
  7  9  2  0  0  0  0
  8 10  2  0  0  0  0
 10 11  1  0  0  0  0
 11 12  1  0  0  0  0
 11 13  1  0  0  0  0
 12 14  2  0  0  0  0
 12 15  1  0  0  0  0
 13 16  1  0  0  0  0
 13 17  1  0  0  0  0
 14 18  1  0  0  0  0
 15 19  2  0  0  0  0
 16 20  1  0  0  0  0
 17 21  1  0  0  0  0
 18 22  2  0  0  0  0
 20 23  1  0  0  0  0
 23 24  1  0  0  0  0
 24 25  1  0  0  0  0
 24 26  1  0  0  0  0
 25 27  1  0  0  0  0
 25 28  1  0  0  0  0
 26 29  1  0  0  0  0
  9 10  1  0  0  0  0
 19 22  1  0  0  0  0
 21 23  1  0  0  0  0
M  END
>  <MolRegNo>
1626876

>  <m>
=

>  <Value>
17000

>  <Unit>
nM

>  <Type>
IC50

>  <pValue>
4.77

>  <Ligand Efficiency>
0

>  <Binding Efficiency>
0

>  <Surface Efficiency>
0

>  <Assay Index>
834088

>  <Assay Category>


>  <Assay Organism>


>  <Target ID>
17045

>  <Target Name>
Cytochrome P450 3A4

>  <Target Organism>
Homo sapiens

>  <Target Description>
Target is a single protein chain

>  <Sequence Accession>
P08684

>  <Reference>


>  <Pubmed ID>


>  <DOI>
10.6019/CHEMBL3137440

$$$$
1626878
Actelion Java MolfileCreator 1.0

 33 36  0  0  0  0  0  0  0  0999 V2000
    0.0000   -0.0000   -0.0000 F   0  0  0  0  0  0  0  0  0  0  0  0
   -1.3089   -0.7378   -0.0000 C   0  0  0  0  0  0  0  0  0  0  0  0
   -2.6298    0.0238   -0.0000 F   0  0  0  0  0  0  0  0  0  0  0  0
    0.1309   -1.1185   -0.0000 F   0  0  0  0  0  0  0  0  0  0  0  0
   -1.3208   -2.2252   -0.0000 C   0  0  0  0  0  0  0  0  0  0  0  0
   -2.6417   -2.9749   -0.0000 C   0  0  0  0  0  0  0  0  0  0  0  0
   -0.0238   -2.9630   -0.0000 C   0  0  0  0  0  0  0  0  0  0  0  0
   -2.6417   -4.4623   -0.0000 C   0  0  0  0  0  0  0  0  0  0  0  0
   -0.0357   -4.4504   -0.0000 C   0  0  0  0  0  0  0  0  0  0  0  0
   -1.3565   -5.2000   -0.0000 C   0  0  0  0  0  0  0  0  0  0  0  0
   -1.3684   -6.6875   -0.0000 N   0  0  0  0  0  0  0  0  0  0  0  0
   -2.6893   -7.4252   -0.0000 C   0  0  0  0  0  0  0  0  0  0  0  0
   -0.0833   -7.4252   -0.0000 C   0  0  0  0  0  0  0  0  0  0  0  0
   -2.7012   -8.9246   -0.0000 C   0  0  0  0  0  0  0  0  0  0  0  0
   -0.0952   -8.9127   -0.0000 C   0  0  0  0  0  0  0  0  0  0  0  0
   -1.4041   -9.6504   -0.0000 C   0  0  0  0  0  0  0  0  0  0  0  0
   -1.4041  -11.1379   -0.0000 N   0  0  0  0  0  0  0  0  0  0  0  0
   -0.1071  -11.8756   -0.0000 C   0  0  0  0  0  0  0  0  0  0  0  0
   -2.7131  -11.8875   -0.0000 C   0  0  0  0  0  0  0  0  0  0  0  0
    1.1661  -11.1022   -0.0000 C   0  0  0  0  0  0  0  0  0  0  0  0
   -0.1190  -13.3631   -0.0000 C   0  0  0  0  0  0  0  0  0  0  0  0
   -4.0339  -11.1260   -0.0000 C   0  0  0  0  0  0  0  0  0  0  0  0
   -2.7250  -13.3869   -0.0000 C   0  0  0  0  0  0  0  0  0  0  0  0
    2.4632  -11.8280   -0.0000 N   0  0  0  0  0  0  0  0  0  0  0  0
    1.1661  -14.1008   -0.0000 N   0  0  0  0  0  0  0  0  0  0  0  0
   -5.3428  -11.8637   -0.0000 C   0  0  0  0  0  0  0  0  0  0  0  0
   -4.0458  -14.1246   -0.0000 C   0  0  0  0  0  0  0  0  0  0  0  0
    2.4632  -13.3274   -0.0000 C   0  0  0  0  0  0  0  0  0  0  0  0
   -5.3547  -13.3631   -0.0000 C   0  0  0  0  0  0  0  0  0  0  0  0
   -6.6756  -14.1008   -0.0000 C   0  0  0  0  0  0  0  0  0  0  0  0
   -7.9964  -13.3393   -0.0000 F   0  0  0  0  0  0  0  0  0  0  0  0
   -6.6875  -15.6001   -0.0000 F   0  0  0  0  0  0  0  0  0  0  0  0
   -7.0802  -12.6372   -0.0000 F   0  0  0  0  0  0  0  0  0  0  0  0
  1  2  1  0  0  0  0
  2  3  1  0  0  0  0
  2  4  1  0  0  0  0
  2  5  1  0  0  0  0
  5  6  2  0  0  0  0
  5  7  1  0  0  0  0
  6  8  1  0  0  0  0
  7  9  2  0  0  0  0
  8 10  2  0  0  0  0
 10 11  1  0  0  0  0
 11 12  1  0  0  0  0
 11 13  1  0  0  0  0
 12 14  1  0  0  0  0
 13 15  1  0  0  0  0
 14 16  1  0  0  0  0
 16 17  1  0  0  0  0
 17 18  1  0  0  0  0
 17 19  1  0  0  0  0
 18 20  2  0  0  0  0
 18 21  1  0  0  0  0
 19 22  2  0  0  0  0
 19 23  1  0  0  0  0
 20 24  1  0  0  0  0
 21 25  2  0  0  0  0
 22 26  1  0  0  0  0
 23 27  2  0  0  0  0
 24 28  2  0  0  0  0
 26 29  2  0  0  0  0
 29 30  1  0  0  0  0
 30 31  1  0  0  0  0
 30 32  1  0  0  0  0
 30 33  1  0  0  0  0
  9 10  1  0  0  0  0
 15 16  1  0  0  0  0
 25 28  1  0  0  0  0
 27 29  1  0  0  0  0
M  END
>  <MolRegNo>
1626878

>  <m>
=

>  <Value>
16000

>  <Unit>
nM

>  <Type>
IC50

>  <pValue>
4.8

>  <Ligand Efficiency>
0

>  <Binding Efficiency>
0

>  <Surface Efficiency>
0

>  <Assay Index>
834088

>  <Assay Category>


>  <Assay Organism>


>  <Target ID>
17045

>  <Target Name>
Cytochrome P450 3A4

>  <Target Organism>
Homo sapiens

>  <Target Description>
Target is a single protein chain

>  <Sequence Accession>
P08684

>  <Reference>


>  <Pubmed ID>


>  <DOI>
10.6019/CHEMBL3137440

$$$$
1626879
Actelion Java MolfileCreator 1.0

 33 36  0  0  0  0  0  0  0  0999 V2000
    0.0000   -0.0000   -0.0000 F   0  0  0  0  0  0  0  0  0  0  0  0
   -1.3097   -0.7382   -0.0000 C   0  0  0  0  0  0  0  0  0  0  0  0
   -2.6314    0.0238   -0.0000 F   0  0  0  0  0  0  0  0  0  0  0  0
    0.1310   -1.1192   -0.0000 F   0  0  0  0  0  0  0  0  0  0  0  0
   -1.3216   -2.2265   -0.0000 C   0  0  0  0  0  0  0  0  0  0  0  0
   -2.6433   -2.9766   -0.0000 N   0  0  0  0  0  0  0  0  0  0  0  0
   -0.0238   -2.9647   -0.0000 C   0  0  0  0  0  0  0  0  0  0  0  0
   -2.6433   -4.4650   -0.0000 C   0  0  0  0  0  0  0  0  0  0  0  0
   -0.0476   -4.4531   -0.0000 C   0  0  0  0  0  0  0  0  0  0  0  0
   -1.3573   -5.2032   -0.0000 C   0  0  0  0  0  0  0  0  0  0  0  0
   -1.3693   -6.6915   -0.0000 N   0  0  0  0  0  0  0  0  0  0  0  0
   -0.0833   -7.4297   -0.0000 C   0  0  0  0  0  0  0  0  0  0  0  0
   -2.6909   -7.4297   -0.0000 C   0  0  0  0  0  0  0  0  0  0  0  0
   -0.0953   -8.9180   -0.0000 C   0  0  0  0  0  0  0  0  0  0  0  0
   -2.7028   -8.9299   -0.0000 C   0  0  0  0  0  0  0  0  0  0  0  0
   -1.4050   -9.6562   -0.0000 C   0  0  0  0  0  0  0  0  0  0  0  0
   -1.4050  -11.1445   -0.0000 N   0  0  0  0  0  0  0  0  0  0  0  0
   -0.1072  -11.8828   -0.0000 C   0  0  0  0  0  0  0  0  0  0  0  0
   -2.7147  -11.8947   -0.0000 C   0  0  0  0  0  0  0  0  0  0  0  0
   -0.1191  -13.3711   -0.0000 C   0  0  0  0  0  0  0  0  0  0  0  0
    1.1668  -11.1088   -0.0000 C   0  0  0  0  0  0  0  0  0  0  0  0
   -4.0363  -11.1326   -0.0000 C   0  0  0  0  0  0  0  0  0  0  0  0
   -2.7266  -13.3949   -0.0000 C   0  0  0  0  0  0  0  0  0  0  0  0
    1.1668  -14.1093   -0.0000 N   0  0  0  0  0  0  0  0  0  0  0  0
    2.4647  -11.8351   -0.0000 N   0  0  0  0  0  0  0  0  0  0  0  0
   -5.3460  -11.8708   -0.0000 C   0  0  0  0  0  0  0  0  0  0  0  0
   -4.0482  -14.1331   -0.0000 C   0  0  0  0  0  0  0  0  0  0  0  0
    2.4647  -13.3354   -0.0000 C   0  0  0  0  0  0  0  0  0  0  0  0
   -5.3580  -13.3711   -0.0000 C   0  0  0  0  0  0  0  0  0  0  0  0
   -6.6796  -14.1093   -0.0000 C   0  0  0  0  0  0  0  0  0  0  0  0
   -7.9893  -13.3473   -0.0000 F   0  0  0  0  0  0  0  0  0  0  0  0
   -6.6915  -15.5976   -0.0000 F   0  0  0  0  0  0  0  0  0  0  0  0
   -7.0844  -12.6448   -0.0000 F   0  0  0  0  0  0  0  0  0  0  0  0
  1  2  1  0  0  0  0
  2  3  1  0  0  0  0
  2  4  1  0  0  0  0
  2  5  1  0  0  0  0
  5  6  2  0  0  0  0
  5  7  1  0  0  0  0
  6  8  1  0  0  0  0
  7  9  2  0  0  0  0
  8 10  2  0  0  0  0
 10 11  1  0  0  0  0
 11 12  1  0  0  0  0
 11 13  1  0  0  0  0
 12 14  1  0  0  0  0
 13 15  1  0  0  0  0
 14 16  1  0  0  0  0
 16 17  1  0  0  0  0
 17 18  1  0  0  0  0
 17 19  1  0  0  0  0
 18 20  2  0  0  0  0
 18 21  1  0  0  0  0
 19 22  2  0  0  0  0
 19 23  1  0  0  0  0
 20 24  1  0  0  0  0
 21 25  2  0  0  0  0
 22 26  1  0  0  0  0
 23 27  2  0  0  0  0
 24 28  2  0  0  0  0
 26 29  2  0  0  0  0
 29 30  1  0  0  0  0
 30 31  1  0  0  0  0
 30 32  1  0  0  0  0
 30 33  1  0  0  0  0
  9 10  1  0  0  0  0
 15 16  1  0  0  0  0
 25 28  1  0  0  0  0
 27 29  1  0  0  0  0
M  END
>  <MolRegNo>
1626879

>  <m>
=

>  <Value>
9000

>  <Unit>
nM

>  <Type>
IC50

>  <pValue>
5.05

>  <Ligand Efficiency>
0

>  <Binding Efficiency>
0

>  <Surface Efficiency>
0

>  <Assay Index>
834088

>  <Assay Category>


>  <Assay Organism>


>  <Target ID>
17045

>  <Target Name>
Cytochrome P450 3A4

>  <Target Organism>
Homo sapiens

>  <Target Description>
Target is a single protein chain

>  <Sequence Accession>
P08684

>  <Reference>


>  <Pubmed ID>


>  <DOI>
10.6019/CHEMBL3137440

$$$$
1626881
Actelion Java MolfileCreator 1.0

 28 30  0  0  0  0  0  0  0  0999 V2000
    0.0000   -0.0000   -0.0000 F   0  0  0  0  0  0  0  0  0  0  0  0
   -1.2831   -0.7128   -0.0000 C   0  0  0  0  0  0  0  0  0  0  0  0
   -0.0407   -1.4256   -0.0000 F   0  0  0  0  0  0  0  0  0  0  0  0
   -1.3034   -2.1385   -0.0000 F   0  0  0  0  0  0  0  0  0  0  0  0
   -2.5662    0.0407   -0.0000 C   0  0  0  0  0  0  0  0  0  0  0  0
   -2.5662    1.5071   -0.0000 C   0  0  0  0  0  0  0  0  0  0  0  0
   -3.8492   -0.6517   -0.0000 C   0  0  0  0  0  0  0  0  0  0  0  0
   -3.8492    2.2810   -0.0000 C   0  0  0  0  0  0  0  0  0  0  0  0
   -5.1119    0.1018   -0.0000 C   0  0  0  0  0  0  0  0  0  0  0  0
   -5.1323    1.5886   -0.0000 C   0  0  0  0  0  0  0  0  0  0  0  0
   -6.3950    2.3421   -0.0000 N   0  0  0  0  0  0  0  0  0  0  0  0
   -7.6781    1.6497   -0.0000 C   0  0  0  0  0  0  0  0  0  0  0  0
   -6.4154    3.8085   -0.0000 C   0  0  0  0  0  0  0  0  0  0  0  0
   -7.6985    0.2240   -0.0000 C   0  0  0  0  0  0  0  0  0  0  0  0
   -8.9408    2.4236   -0.0000 C   0  0  0  0  0  0  0  0  0  0  0  0
   -5.1730    4.5417   -0.0000 C   0  0  0  0  0  0  0  0  0  0  0  0
   -7.6781    4.5417   -0.0000 C   0  0  0  0  0  0  0  0  0  0  0  0
   -8.9815   -0.4684   -0.0000 N   0  0  0  0  0  0  0  0  0  0  0  0
  -10.2239    1.7311   -0.0000 C   0  0  0  0  0  0  0  0  0  0  0  0
   -5.1934    6.0081   -0.0000 C   0  0  0  0  0  0  0  0  0  0  0  0
   -7.6985    6.0081   -0.0000 C   0  0  0  0  0  0  0  0  0  0  0  0
  -10.2443    0.2851   -0.0000 C   0  0  0  0  0  0  0  0  0  0  0  0
   -6.4765    6.7616   -0.0000 N   0  0  0  0  0  0  0  0  0  0  0  0
   -6.4765    9.3685   -0.0000 C   0  0  0  0  0  0  0  0  0  0  0  0
   -7.7596   10.1221   -0.0000 C   0  0  0  0  0  0  0  0  0  0  0  0
   -7.7799   11.5884   -0.0000 F   0  0  0  0  0  0  0  0  0  0  0  0
   -7.8003    8.6964   -0.0000 C   0  0  0  0  0  0  0  0  0  0  0  0
   -9.2259   10.1424   -0.0000 C   0  0  0  0  0  0  0  0  0  0  0  0
  1  2  1  0  0  0  0
  2  3  1  0  0  0  0
  2  4  1  0  0  0  0
  2  5  1  0  0  0  0
  5  6  2  0  0  0  0
  5  7  1  0  0  0  0
  6  8  1  0  0  0  0
  7  9  2  0  0  0  0
  8 10  2  0  0  0  0
 10 11  1  0  0  0  0
 11 12  1  0  0  0  0
 11 13  1  0  0  0  0
 12 14  2  0  0  0  0
 12 15  1  0  0  0  0
 13 16  1  0  0  0  0
 13 17  1  0  0  0  0
 14 18  1  0  0  0  0
 15 19  2  0  0  0  0
 16 20  1  0  0  0  0
 17 21  1  0  0  0  0
 18 22  2  0  0  0  0
 20 23  1  0  0  0  0
 23 24  1  0  0  0  0
 24 25  1  0  0  0  0
 25 26  1  0  0  0  0
 25 27  1  0  0  0  0
 25 28  1  0  0  0  0
  9 10  1  0  0  0  0
 19 22  1  0  0  0  0
 21 23  1  0  0  0  0
M  END
>  <MolRegNo>
1626881

>  <m>
=

>  <Value>
16000

>  <Unit>
nM

>  <Type>
IC50

>  <pValue>
4.8

>  <Ligand Efficiency>
0

>  <Binding Efficiency>
0

>  <Surface Efficiency>
0

>  <Assay Index>
834088

>  <Assay Category>


>  <Assay Organism>


>  <Target ID>
17045

>  <Target Name>
Cytochrome P450 3A4

>  <Target Organism>
Homo sapiens

>  <Target Description>
Target is a single protein chain

>  <Sequence Accession>
P08684

>  <Reference>


>  <Pubmed ID>


>  <DOI>
10.6019/CHEMBL3137440

$$$$
1725238
Actelion Java MolfileCreator 1.0

 35 40  0  0  0  0  0  0  0  0999 V2000
    0.0000   -0.0000   -0.0000 Cl  0  0  0  0  0  0  0  0  0  0  0  0
   -1.3046   -0.7353   -0.0000 C   0  0  0  0  0  0  0  0  0  0  0  0
   -1.3164   -2.2296   -0.0000 C   0  0  0  0  0  0  0  0  0  0  0  0
   -2.6091    0.0237   -0.0000 C   0  0  0  0  0  0  0  0  0  0  0  0
   -0.0356   -2.9649   -0.0000 N   0  0  0  0  0  0  0  0  0  0  0  0
   -2.6329   -2.9649   -0.0000 C   0  0  0  0  0  0  0  0  0  0  0  0
   -3.9137   -0.7116   -0.0000 N   0  0  0  0  0  0  0  0  0  0  0  0
    1.2453   -2.2059   -0.0000 C   0  0  0  0  0  0  0  0  0  0  0  0
   -2.9649   -4.4237   -0.0000 N   0  0  0  0  0  0  0  0  0  0  0  0
   -3.9493   -2.1940   -0.0000 C   0  0  0  0  0  0  0  0  0  0  0  0
    2.5261   -2.9412   -0.0000 C   0  0  0  0  0  0  0  0  0  0  0  0
    1.2334   -0.6997   -0.0000 C   0  0  0  0  0  0  0  0  0  0  0  0
   -4.4711   -4.5660   -0.0000 C   0  0  0  0  0  0  0  0  0  0  0  0
   -5.0760   -3.1784   -0.0000 N   0  0  0  0  0  0  0  0  0  0  0  0
    2.5143   -4.4237   -0.0000 C   0  0  0  0  0  0  0  0  0  0  0  0
    3.8070   -2.1822   -0.0000 C   0  0  0  0  0  0  0  0  0  0  0  0
    2.5261    0.0593   -0.0000 C   0  0  0  0  0  0  0  0  0  0  0  0
    2.2415   -1.9450   -0.0000 C   0  0  0  0  0  0  0  0  0  0  0  0
   -5.2301   -5.8468   -0.0000 C   0  0  0  0  0  0  0  0  0  0  0  0
    1.2097   -5.1590   -0.0000 O   0  0  0  0  0  0  0  0  0  0  0  0
    3.7951   -5.1590   -0.0000 N   0  0  0  0  0  0  0  0  0  0  0  0
    3.7951   -0.6760   -0.0000 C   0  0  0  0  0  0  0  0  0  0  0  0
   -6.7363   -5.8231   -0.0000 C   0  0  0  0  0  0  0  0  0  0  0  0
   -4.4948   -7.1277   -0.0000 C   0  0  0  0  0  0  0  0  0  0  0  0
   -7.4953   -4.5067   -0.0000 O   0  0  0  0  0  0  0  0  0  0  0  0
   -7.4953   -7.1040   -0.0000 C   0  0  0  0  0  0  0  0  0  0  0  0
   -5.2539   -8.4085   -0.0000 C   0  0  0  0  0  0  0  0  0  0  0  0
   -9.0015   -4.4830   -0.0000 C   0  0  0  0  0  0  0  0  0  0  0  0
   -6.7600   -8.3967   -0.0000 C   0  0  0  0  0  0  0  0  0  0  0  0
   -7.5191   -9.6775   -0.0000 N   0  0  0  0  0  0  0  0  0  0  0  0
   -6.7719  -10.9584   -0.0000 C   0  0  0  0  0  0  0  0  0  0  0  0
   -9.0253   -9.6657   -0.0000 C   0  0  0  0  0  0  0  0  0  0  0  0
   -7.5428  -12.2392   -0.0000 C   0  0  0  0  0  0  0  0  0  0  0  0
   -9.7843  -10.9465   -0.0000 C   0  0  0  0  0  0  0  0  0  0  0  0
   -9.0490  -12.2274   -0.0000 O   0  0  0  0  0  0  0  0  0  0  0  0
  1  2  1  0  0  0  0
  2  3  2  0  0  0  0
  2  4  1  0  0  0  0
  3  5  1  0  0  0  0
  3  6  1  0  0  0  0
  4  7  2  0  0  0  0
  8  5  1  1  0  0  0
  6  9  1  0  0  0  0
  6 10  2  0  0  0  0
  8 11  1  0  0  0  0
  8 12  1  0  0  0  0
  9 13  2  0  0  0  0
 10 14  1  0  0  0  0
 11 15  1  1  0  0  0
 11 16  1  0  0  0  0
 12 17  1  6  0  0  0
 12 18  1  0  0  0  0
 13 19  1  0  0  0  0
 15 20  2  0  0  0  0
 15 21  1  0  0  0  0
 16 22  1  6  0  0  0
 19 23  2  0  0  0  0
 19 24  1  0  0  0  0
 23 25  1  0  0  0  0
 23 26  1  0  0  0  0
 24 27  2  0  0  0  0
 25 28  1  0  0  0  0
 26 29  2  0  0  0  0
 29 30  1  0  0  0  0
 30 31  1  0  0  0  0
 30 32  1  0  0  0  0
 31 33  1  0  0  0  0
 32 34  1  0  0  0  0
 33 35  1  0  0  0  0
  7 10  1  0  0  0  0
 13 14  1  0  0  0  0
 16 18  1  0  0  0  0
 17 22  2  0  0  0  0
 27 29  1  0  0  0  0
 34 35  1  0  0  0  0
M  END
>  <MolRegNo>
1725238

>  <m>
=

>  <Value>
5300

>  <Unit>
nM

>  <Type>
IC50

>  <pValue>
5.28

>  <Ligand Efficiency>
0

>  <Binding Efficiency>
0

>  <Surface Efficiency>
0

>  <Assay Index>
835295

>  <Assay Category>


>  <Assay Organism>
Homo sapiens

>  <Target ID>
17045

>  <Target Name>
Cytochrome P450 3A4

>  <Target Organism>
Homo sapiens

>  <Target Description>
Target is a single protein chain

>  <Sequence Accession>
P08684

>  <Reference>
Medchemcomm 3 (9), 1138-1142 (2012)

>  <Pubmed ID>


>  <DOI>
10.1039/C2MD20061A

$$$$
1725239
Actelion Java MolfileCreator 1.0

 36 41  0  0  0  0  0  0  0  0999 V2000
    0.0000   -0.0000   -0.0000 Cl  0  0  0  0  0  0  0  0  0  0  0  0
   -1.3047   -0.7354   -0.0000 C   0  0  0  0  0  0  0  0  0  0  0  0
   -1.3165   -2.2298   -0.0000 C   0  0  0  0  0  0  0  0  0  0  0  0
   -2.6094    0.0237   -0.0000 C   0  0  0  0  0  0  0  0  0  0  0  0
   -0.0356   -2.9652   -0.0000 N   0  0  0  0  0  0  0  0  0  0  0  0
   -2.6331   -2.9652   -0.0000 C   0  0  0  0  0  0  0  0  0  0  0  0
   -3.9140   -0.7116   -0.0000 N   0  0  0  0  0  0  0  0  0  0  0  0
    1.2454   -2.2061   -0.0000 C   0  0  0  0  0  0  0  0  0  0  0  0
   -2.9652   -4.4240   -0.0000 N   0  0  0  0  0  0  0  0  0  0  0  0
   -3.9496   -2.1942   -0.0000 C   0  0  0  0  0  0  0  0  0  0  0  0
    2.5263   -2.9415   -0.0000 C   0  0  0  0  0  0  0  0  0  0  0  0
    1.2335   -0.6998   -0.0000 C   0  0  0  0  0  0  0  0  0  0  0  0
   -4.4715   -4.5664   -0.0000 C   0  0  0  0  0  0  0  0  0  0  0  0
   -5.0764   -3.1787   -0.0000 N   0  0  0  0  0  0  0  0  0  0  0  0
    2.5145   -4.4240   -0.0000 C   0  0  0  0  0  0  0  0  0  0  0  0
    3.8073   -2.1824   -0.0000 C   0  0  0  0  0  0  0  0  0  0  0  0
    2.5263    0.0593   -0.0000 C   0  0  0  0  0  0  0  0  0  0  0  0
    2.2417   -1.9452   -0.0000 C   0  0  0  0  0  0  0  0  0  0  0  0
   -5.2306   -5.8473   -0.0000 C   0  0  0  0  0  0  0  0  0  0  0  0
    1.2098   -5.1594   -0.0000 O   0  0  0  0  0  0  0  0  0  0  0  0
    3.7954   -5.1594   -0.0000 N   0  0  0  0  0  0  0  0  0  0  0  0
    3.7954   -0.6761   -0.0000 C   0  0  0  0  0  0  0  0  0  0  0  0
   -6.7369   -5.8236   -0.0000 C   0  0  0  0  0  0  0  0  0  0  0  0
   -4.4952   -7.1283   -0.0000 C   0  0  0  0  0  0  0  0  0  0  0  0
   -7.4960   -4.5071   -0.0000 O   0  0  0  0  0  0  0  0  0  0  0  0
   -7.4960   -7.1046   -0.0000 C   0  0  0  0  0  0  0  0  0  0  0  0
   -5.2543   -8.4092   -0.0000 C   0  0  0  0  0  0  0  0  0  0  0  0
   -9.0023   -4.4833   -0.0000 C   0  0  0  0  0  0  0  0  0  0  0  0
   -6.7606   -8.3974   -0.0000 C   0  0  0  0  0  0  0  0  0  0  0  0
   -7.5197   -9.6783   -0.0000 N   0  0  0  0  0  0  0  0  0  0  0  0
   -9.0260   -9.6665   -0.0000 C   0  0  0  0  0  0  0  0  0  0  0  0
   -6.7725  -10.9593   -0.0000 C   0  0  0  0  0  0  0  0  0  0  0  0
   -9.7851  -10.9474   -0.0000 C   0  0  0  0  0  0  0  0  0  0  0  0
   -7.5434  -12.2402   -0.0000 C   0  0  0  0  0  0  0  0  0  0  0  0
   -9.0616  -12.2402   -0.0000 N   0  0  0  0  0  0  0  0  0  0  0  0
   -9.8207  -13.5093   -0.0000 C   0  0  0  0  0  0  0  0  0  0  0  0
  1  2  1  0  0  0  0
  2  3  2  0  0  0  0
  2  4  1  0  0  0  0
  3  5  1  0  0  0  0
  3  6  1  0  0  0  0
  4  7  2  0  0  0  0
  8  5  1  1  0  0  0
  6  9  1  0  0  0  0
  6 10  2  0  0  0  0
  8 11  1  0  0  0  0
  8 12  1  0  0  0  0
  9 13  2  0  0  0  0
 10 14  1  0  0  0  0
 11 15  1  1  0  0  0
 11 16  1  0  0  0  0
 12 17  1  6  0  0  0
 12 18  1  0  0  0  0
 13 19  1  0  0  0  0
 15 20  2  0  0  0  0
 15 21  1  0  0  0  0
 16 22  1  6  0  0  0
 19 23  2  0  0  0  0
 19 24  1  0  0  0  0
 23 25  1  0  0  0  0
 23 26  1  0  0  0  0
 24 27  2  0  0  0  0
 25 28  1  0  0  0  0
 26 29  2  0  0  0  0
 29 30  1  0  0  0  0
 30 31  1  0  0  0  0
 30 32  1  0  0  0  0
 31 33  1  0  0  0  0
 32 34  1  0  0  0  0
 33 35  1  0  0  0  0
 35 36  1  0  0  0  0
  7 10  1  0  0  0  0
 13 14  1  0  0  0  0
 16 18  1  0  0  0  0
 17 22  2  0  0  0  0
 27 29  1  0  0  0  0
 34 35  1  0  0  0  0
M  END
>  <MolRegNo>
1725239

>  <m>
=

>  <Value>
8500

>  <Unit>
nM

>  <Type>
IC50

>  <pValue>
5.07

>  <Ligand Efficiency>
0

>  <Binding Efficiency>
0

>  <Surface Efficiency>
0

>  <Assay Index>
835295

>  <Assay Category>


>  <Assay Organism>
Homo sapiens

>  <Target ID>
17045

>  <Target Name>
Cytochrome P450 3A4

>  <Target Organism>
Homo sapiens

>  <Target Description>
Target is a single protein chain

>  <Sequence Accession>
P08684

>  <Reference>
Medchemcomm 3 (9), 1138-1142 (2012)

>  <Pubmed ID>


>  <DOI>
10.1039/C2MD20061A

$$$$
1725240
Actelion Java MolfileCreator 1.0

 41 47  0  0  0  0  0  0  0  0999 V2000
    0.0000   -0.0000   -0.0000 Cl  0  0  0  0  0  0  0  0  0  0  0  0
   -1.3054   -0.7358   -0.0000 C   0  0  0  0  0  0  0  0  0  0  0  0
   -1.3173   -2.2311   -0.0000 C   0  0  0  0  0  0  0  0  0  0  0  0
   -2.6109    0.0237   -0.0000 C   0  0  0  0  0  0  0  0  0  0  0  0
   -0.0356   -2.9669   -0.0000 N   0  0  0  0  0  0  0  0  0  0  0  0
   -2.6346   -2.9669   -0.0000 C   0  0  0  0  0  0  0  0  0  0  0  0
   -3.9163   -0.7121   -0.0000 N   0  0  0  0  0  0  0  0  0  0  0  0
    1.2461   -2.2074   -0.0000 C   0  0  0  0  0  0  0  0  0  0  0  0
   -2.9669   -4.4266   -0.0000 N   0  0  0  0  0  0  0  0  0  0  0  0
   -3.9519   -2.1955   -0.0000 C   0  0  0  0  0  0  0  0  0  0  0  0
    2.5278   -2.9432   -0.0000 C   0  0  0  0  0  0  0  0  0  0  0  0
    1.2342   -0.7002   -0.0000 C   0  0  0  0  0  0  0  0  0  0  0  0
   -4.4741   -4.5690   -0.0000 C   0  0  0  0  0  0  0  0  0  0  0  0
   -5.0793   -3.1805   -0.0000 N   0  0  0  0  0  0  0  0  0  0  0  0
    2.5159   -4.4266   -0.0000 C   0  0  0  0  0  0  0  0  0  0  0  0
    3.8095   -2.1836   -0.0000 C   0  0  0  0  0  0  0  0  0  0  0  0
    2.5278    0.0593   -0.0000 C   0  0  0  0  0  0  0  0  0  0  0  0
    2.2548   -1.9463   -0.0000 C   0  0  0  0  0  0  0  0  0  0  0  0
   -5.2336   -5.8507   -0.0000 C   0  0  0  0  0  0  0  0  0  0  0  0
    1.2105   -5.1624   -0.0000 O   0  0  0  0  0  0  0  0  0  0  0  0
    3.7976   -5.1624   -0.0000 N   0  0  0  0  0  0  0  0  0  0  0  0
    3.7976   -0.6765   -0.0000 C   0  0  0  0  0  0  0  0  0  0  0  0
   -6.7408   -5.8270   -0.0000 C   0  0  0  0  0  0  0  0  0  0  0  0
   -4.4978   -7.1324   -0.0000 C   0  0  0  0  0  0  0  0  0  0  0  0
   -7.5003   -4.5216   -0.0000 O   0  0  0  0  0  0  0  0  0  0  0  0
   -7.5003   -7.1087   -0.0000 C   0  0  0  0  0  0  0  0  0  0  0  0
   -5.2573   -8.4141   -0.0000 C   0  0  0  0  0  0  0  0  0  0  0  0
   -9.0075   -4.4978   -0.0000 C   0  0  0  0  0  0  0  0  0  0  0  0
   -6.7645   -8.4023   -0.0000 C   0  0  0  0  0  0  0  0  0  0  0  0
   -7.5241   -9.6840   -0.0000 N   0  0  0  0  0  0  0  0  0  0  0  0
   -9.0312   -9.6721   -0.0000 C   0  0  0  0  0  0  0  0  0  0  0  0
   -6.7764  -10.9657   -0.0000 C   0  0  0  0  0  0  0  0  0  0  0  0
   -9.7908  -10.9538   -0.0000 C   0  0  0  0  0  0  0  0  0  0  0  0
   -7.5478  -12.2474   -0.0000 C   0  0  0  0  0  0  0  0  0  0  0  0
   -9.0668  -12.2474   -0.0000 C   0  0  0  0  0  0  0  0  0  0  0  0
   -9.8382  -13.5290   -0.0000 N   0  0  0  0  0  0  0  0  0  0  0  0
   -9.1024  -14.8107   -0.0000 C   0  0  0  0  0  0  0  0  0  0  0  0
  -11.3454  -13.5053   -0.0000 C   0  0  0  0  0  0  0  0  0  0  0  0
   -9.8738  -16.0924   -0.0000 C   0  0  0  0  0  0  0  0  0  0  0  0
  -12.1168  -14.7751   -0.0000 C   0  0  0  0  0  0  0  0  0  0  0  0
  -11.3810  -16.0687   -0.0000 O   0  0  0  0  0  0  0  0  0  0  0  0
  1  2  1  0  0  0  0
  2  3  2  0  0  0  0
  2  4  1  0  0  0  0
  3  5  1  0  0  0  0
  3  6  1  0  0  0  0
  4  7  2  0  0  0  0
  8  5  1  1  0  0  0
  6  9  1  0  0  0  0
  6 10  2  0  0  0  0
  8 11  1  0  0  0  0
  8 12  1  0  0  0  0
  9 13  2  0  0  0  0
 10 14  1  0  0  0  0
 11 15  1  1  0  0  0
 11 16  1  0  0  0  0
 12 17  1  6  0  0  0
 12 18  1  0  0  0  0
 13 19  1  0  0  0  0
 15 20  2  0  0  0  0
 15 21  1  0  0  0  0
 16 22  1  6  0  0  0
 19 23  2  0  0  0  0
 19 24  1  0  0  0  0
 23 25  1  0  0  0  0
 23 26  1  0  0  0  0
 24 27  2  0  0  0  0
 25 28  1  0  0  0  0
 26 29  2  0  0  0  0
 29 30  1  0  0  0  0
 30 31  1  0  0  0  0
 30 32  1  0  0  0  0
 31 33  1  0  0  0  0
 32 34  1  0  0  0  0
 33 35  1  0  0  0  0
 35 36  1  0  0  0  0
 36 37  1  0  0  0  0
 36 38  1  0  0  0  0
 37 39  1  0  0  0  0
 38 40  1  0  0  0  0
 39 41  1  0  0  0  0
  7 10  1  0  0  0  0
 13 14  1  0  0  0  0
 16 18  1  0  0  0  0
 17 22  2  0  0  0  0
 27 29  1  0  0  0  0
 34 35  1  0  0  0  0
 40 41  1  0  0  0  0
M  END
>  <MolRegNo>
1725240

>  <m>
=

>  <Value>
14200

>  <Unit>
nM

>  <Type>
IC50

>  <pValue>
4.85

>  <Ligand Efficiency>
0

>  <Binding Efficiency>
0

>  <Surface Efficiency>
0

>  <Assay Index>
835296

>  <Assay Category>


>  <Assay Organism>
Homo sapiens

>  <Target ID>
17045

>  <Target Name>
Cytochrome P450 3A4

>  <Target Organism>
Homo sapiens

>  <Target Description>
Target is a single protein chain

>  <Sequence Accession>
P08684

>  <Reference>
Medchemcomm 3 (9), 1138-1142 (2012)

>  <Pubmed ID>


>  <DOI>
10.1039/C2MD20061A

$$$$
1725027
Actelion Java MolfileCreator 1.0

 35 39  0  0  0  0  0  0  0  0999 V2000
    0.0000   -0.0000   -0.0000 Cl  0  0  0  0  0  0  0  0  0  0  0  0
   -1.3047   -0.7472   -0.0000 C   0  0  0  0  0  0  0  0  0  0  0  0
   -1.3165   -2.2298   -0.0000 C   0  0  0  0  0  0  0  0  0  0  0  0
   -2.6212    0.0119   -0.0000 C   0  0  0  0  0  0  0  0  0  0  0  0
   -2.6212   -2.9651   -0.0000 C   0  0  0  0  0  0  0  0  0  0  0  0
   -3.9140   -0.7354   -0.0000 C   0  0  0  0  0  0  0  0  0  0  0  0
   -3.9377   -2.2061   -0.0000 C   0  0  0  0  0  0  0  0  0  0  0  0
   -5.2424   -2.9414   -0.0000 C   0  0  0  0  0  0  0  0  0  0  0  0
   -6.5470   -2.1823   -0.0000 C   0  0  0  0  0  0  0  0  0  0  0  0
   -5.2542   -4.4359   -0.0000 C   0  0  0  0  0  0  0  0  0  0  0  0
   -7.8517   -2.9177   -0.0000 C   0  0  0  0  0  0  0  0  0  0  0  0
   -6.5708   -5.1712   -0.0000 C   0  0  0  0  0  0  0  0  0  0  0  0
   -9.1564   -2.1586   -0.0000 C   0  0  0  0  0  0  0  0  0  0  0  0
   -7.8636   -4.4003   -0.0000 C   0  0  0  0  0  0  0  0  0  0  0  0
   -9.1682   -0.6523   -0.0000 O   0  0  0  0  0  0  0  0  0  0  0  0
  -10.4610   -2.8940   -0.0000 N   0  0  0  0  0  0  0  0  0  0  0  0
   -9.1682   -5.1356   -0.0000 N   0  0  0  0  0  0  0  0  0  0  0  0
  -10.4729   -4.3884   -0.0000 C   0  0  0  0  0  0  0  0  0  0  0  0
  -11.7657   -2.1349   -0.0000 C   0  0  0  0  0  0  0  0  0  0  0  0
  -11.7775   -5.1238   -0.0000 C   0  0  0  0  0  0  0  0  0  0  0  0
  -11.7775   -0.6286   -0.0000 C   0  0  0  0  0  0  0  0  0  0  0  0
  -11.7775   -6.5945   -0.0000 C   0  0  0  0  0  0  0  0  0  0  0  0
  -13.0822   -4.3647   -0.0000 C   0  0  0  0  0  0  0  0  0  0  0  0
  -13.0703    0.1305   -0.0000 C   0  0  0  0  0  0  0  0  0  0  0  0
  -10.4847    0.1305   -0.0000 C   0  0  0  0  0  0  0  0  0  0  0  0
  -13.0822   -7.3417   -0.0000 C   0  0  0  0  0  0  0  0  0  0  0  0
  -10.4847   -7.3180   -0.0000 C   0  0  0  0  0  0  0  0  0  0  0  0
  -14.3869   -5.1000   -0.0000 C   0  0  0  0  0  0  0  0  0  0  0  0
  -13.0703    1.6486   -0.0000 N   0  0  0  0  0  0  0  0  0  0  0  0
  -10.4966    1.6368   -0.0000 C   0  0  0  0  0  0  0  0  0  0  0  0
  -14.3987   -6.5826   -0.0000 C   0  0  0  0  0  0  0  0  0  0  0  0
  -14.3750    2.4077   -0.0000 C   0  0  0  0  0  0  0  0  0  0  0  0
  -11.7775    2.4077   -0.0000 C   0  0  0  0  0  0  0  0  0  0  0  0
  -14.3869    3.9140   -0.0000 C   0  0  0  0  0  0  0  0  0  0  0  0
  -15.6797    1.6723   -0.0000 C   0  0  0  0  0  0  0  0  0  0  0  0
  1  2  1  0  0  0  0
  2  3  2  0  0  0  0
  2  4  1  0  0  0  0
  3  5  1  0  0  0  0
  4  6  2  0  0  0  0
  5  7  2  0  0  0  0
  7  8  1  0  0  0  0
  8  9  2  0  0  0  0
  8 10  1  0  0  0  0
  9 11  1  0  0  0  0
 10 12  2  0  0  0  0
 11 13  1  0  0  0  0
 11 14  2  0  0  0  0
 13 15  2  0  0  0  0
 13 16  1  0  0  0  0
 14 17  1  0  0  0  0
 16 18  1  0  0  0  0
 16 19  1  0  0  0  0
 18 20  1  0  0  0  0
 21 19  1  6  0  0  0
 20 22  2  0  0  0  0
 20 23  1  0  0  0  0
 21 24  1  0  0  0  0
 21 25  1  0  0  0  0
 22 26  1  0  0  0  0
 22 27  1  0  0  0  0
 23 28  2  0  0  0  0
 24 29  1  0  0  0  0
 25 30  1  0  0  0  0
 26 31  2  0  0  0  0
 29 32  1  0  0  0  0
 29 33  1  0  0  0  0
 32 34  1  0  0  0  0
 32 35  1  0  0  0  0
  6  7  1  0  0  0  0
 12 14  1  0  0  0  0
 17 18  2  0  0  0  0
 28 31  1  0  0  0  0
 30 33  1  0  0  0  0
M  END
>  <MolRegNo>
1725027

>  <m>
=

>  <Value>
680

>  <Unit>
nM

>  <Type>
IC50

>  <pValue>
6.17

>  <Ligand Efficiency>
0

>  <Binding Efficiency>
0

>  <Surface Efficiency>
0

>  <Assay Index>
839167

>  <Assay Category>


>  <Assay Organism>
Homo sapiens

>  <Target ID>
17045

>  <Target Name>
Cytochrome P450 3A4

>  <Target Organism>
Homo sapiens

>  <Target Description>
Target is a single protein chain

>  <Sequence Accession>
P08684

>  <Reference>
Medchemcomm 4 (2), 456-462 (2013)

>  <Pubmed ID>


>  <DOI>
10.1039/C2MD20340E

$$$$
1733079
Actelion Java MolfileCreator 1.0

 36 39  0  0  0  0  0  0  0  0999 V2000
    0.0000   -0.0000   -0.0000 F   0  0  0  0  0  0  0  0  0  0  0  0
   -1.3118   -0.7394   -0.0000 C   0  0  0  0  0  0  0  0  0  0  0  0
   -2.6236    0.0239   -0.0000 F   0  0  0  0  0  0  0  0  0  0  0  0
   -1.3356    0.7871   -0.0000 F   0  0  0  0  0  0  0  0  0  0  0  0
   -1.3237   -2.2300   -0.0000 C   0  0  0  0  0  0  0  0  0  0  0  0
   -0.0358   -2.9694   -0.0000 N   0  0  0  0  0  0  0  0  0  0  0  0
   -2.6355   -2.9694   -0.0000 C   0  0  0  0  0  0  0  0  0  0  0  0
   -0.0477   -4.4720   -0.0000 C   0  0  0  0  0  0  0  0  0  0  0  0
   -2.6474   -4.4720   -0.0000 C   0  0  0  0  0  0  0  0  0  0  0  0
   -1.3714   -5.2114   -0.0000 N   0  0  0  0  0  0  0  0  0  0  0  0
    1.2402   -5.2114   -0.0000 N   0  0  0  0  0  0  0  0  0  0  0  0
   -3.9592   -5.2114   -0.0000 N   0  0  0  0  0  0  0  0  0  0  0  0
    2.5282   -4.4481   -0.0000 C   0  0  0  0  0  0  0  0  0  0  0  0
    1.2283   -6.7020   -0.0000 C   0  0  0  0  0  0  0  0  0  0  0  0
   -5.2710   -4.4481   -0.0000 C   0  0  0  0  0  0  0  0  0  0  0  0
   -3.9711   -6.7020   -0.0000 C   0  0  0  0  0  0  0  0  0  0  0  0
    3.8161   -5.1994   -0.0000 C   0  0  0  0  0  0  0  0  0  0  0  0
    2.5162   -7.4414   -0.0000 C   0  0  0  0  0  0  0  0  0  0  0  0
   -6.5828   -5.1756   -0.0000 C   0  0  0  0  0  0  0  0  0  0  0  0
   -5.2948   -7.4414   -0.0000 C   0  0  0  0  0  0  0  0  0  0  0  0
    5.1040   -4.4362   -0.0000 C   0  0  0  0  0  0  0  0  0  0  0  0
    3.8042   -6.6901   -0.0000 C   0  0  0  0  0  0  0  0  0  0  0  0
   -6.6066   -6.6663   -0.0000 N   0  0  0  0  0  0  0  0  0  0  0  0
    5.0921   -2.9217   -0.0000 O   0  0  0  0  0  0  0  0  0  0  0  0
    6.3920   -5.1756   -0.0000 N   0  0  0  0  0  0  0  0  0  0  0  0
   -7.9303   -7.4056   -0.0000 C   0  0  0  0  0  0  0  0  0  0  0  0
    7.6799   -4.4124   -0.0000 C   0  0  0  0  0  0  0  0  0  0  0  0
    8.9678   -5.1517   -0.0000 C   0  0  0  0  0  0  0  0  0  0  0  0
   10.2558   -4.3885   -0.0000 C   0  0  0  0  0  0  0  0  0  0  0  0
   11.5437   -5.1279   -0.0000 C   0  0  0  0  0  0  0  0  0  0  0  0
   10.2319   -2.8740   -0.0000 C   0  0  0  0  0  0  0  0  0  0  0  0
   12.8316   -4.3647   -0.0000 C   0  0  0  0  0  0  0  0  0  0  0  0
   11.5199   -2.1108   -0.0000 C   0  0  0  0  0  0  0  0  0  0  0  0
   12.8197   -2.8502   -0.0000 C   0  0  0  0  0  0  0  0  0  0  0  0
   14.1077   -2.0750   -0.0000 C   0  0  0  0  0  0  0  0  0  0  0  0
   15.3956   -1.3118   -0.0000 N   0  0  0  0  0  0  0  0  0  0  0  0
  1  2  1  0  0  0  0
  2  3  1  0  0  0  0
  2  4  1  0  0  0  0
  2  5  1  0  0  0  0
  5  6  2  0  0  0  0
  5  7  1  0  0  0  0
  6  8  1  0  0  0  0
  7  9  2  0  0  0  0
  8 10  2  0  0  0  0
  8 11  1  0  0  0  0
  9 12  1  0  0  0  0
 11 13  1  0  0  0  0
 11 14  1  0  0  0  0
 12 15  1  0  0  0  0
 12 16  1  0  0  0  0
 13 17  1  0  0  0  0
 14 18  1  0  0  0  0
 15 19  1  0  0  0  0
 16 20  1  0  0  0  0
 17 21  1  1  0  0  0
 17 22  1  0  0  0  0
 19 23  1  0  0  0  0
 21 24  2  0  0  0  0
 21 25  1  0  0  0  0
 23 26  1  0  0  0  0
 25 27  1  0  0  0  0
 27 28  1  0  0  0  0
 28 29  1  0  0  0  0
 29 30  2  0  0  0  0
 29 31  1  0  0  0  0
 30 32  1  0  0  0  0
 31 33  2  0  0  0  0
 32 34  2  0  0  0  0
 34 35  1  0  0  0  0
 35 36  3  0  0  0  0
  9 10  1  0  0  0  0
 18 22  1  0  0  0  0
 20 23  1  0  0  0  0
 33 34  1  0  0  0  0
M  END
>  <MolRegNo>
1733079

>  <m>
=

>  <Value>
2000

>  <Unit>
nM

>  <Type>
IC50

>  <pValue>
5.7

>  <Ligand Efficiency>
0

>  <Binding Efficiency>
0

>  <Surface Efficiency>
0

>  <Assay Index>
842945

>  <Assay Category>


>  <Assay Organism>
Homo sapiens

>  <Target ID>
17045

>  <Target Name>
Cytochrome P450 3A4

>  <Target Organism>
Homo sapiens

>  <Target Description>
Target is a single protein chain

>  <Sequence Accession>
P08684

>  <Reference>
J Med Chem 57 (8), 3263-3282 (2014)

>  <Pubmed ID>
24666203

>  <DOI>
10.1021/jm401731q

$$$$
1733080
Actelion Java MolfileCreator 1.0

 34 37  0  0  0  0  0  0  0  0999 V2000
    0.0000   -0.0000   -0.0000 F   0  0  0  0  0  0  0  0  0  0  0  0
    1.2949   -0.7365   -0.0000 C   0  0  0  0  0  0  0  0  0  0  0  0
    1.2830   -2.2334   -0.0000 C   0  0  0  0  0  0  0  0  0  0  0  0
    2.5779    0.0238   -0.0000 C   0  0  0  0  0  0  0  0  0  0  0  0
    2.5779   -2.9699   -0.0000 N   0  0  0  0  0  0  0  0  0  0  0  0
   -0.0238   -2.9699   -0.0000 N   0  0  0  0  0  0  0  0  0  0  0  0
    3.8727   -0.7128   -0.0000 N   0  0  0  0  0  0  0  0  0  0  0  0
    2.5660    1.5443   -0.0000 C   0  0  0  0  0  0  0  0  0  0  0  0
    3.8727   -2.2096   -0.0000 C   0  0  0  0  0  0  0  0  0  0  0  0
   -1.3424   -2.1977   -0.0000 C   0  0  0  0  0  0  0  0  0  0  0  0
   -0.0356   -4.4548   -0.0000 C   0  0  0  0  0  0  0  0  0  0  0  0
    5.1557   -2.9461   -0.0000 N   0  0  0  0  0  0  0  0  0  0  0  0
   -2.6491   -2.9343   -0.0000 C   0  0  0  0  0  0  0  0  0  0  0  0
   -1.3543   -5.1914   -0.0000 C   0  0  0  0  0  0  0  0  0  0  0  0
    6.4387   -2.1740   -0.0000 C   0  0  0  0  0  0  0  0  0  0  0  0
    5.1439   -4.4430   -0.0000 C   0  0  0  0  0  0  0  0  0  0  0  0
   -2.6729   -4.4311   -0.0000 N   0  0  0  0  0  0  0  0  0  0  0  0
    7.7336   -2.9224   -0.0000 C   0  0  0  0  0  0  0  0  0  0  0  0
    6.4269   -5.1795   -0.0000 C   0  0  0  0  0  0  0  0  0  0  0  0
   -3.9915   -5.1676   -0.0000 C   0  0  0  0  0  0  0  0  0  0  0  0
    9.0285   -2.1621   -0.0000 C   0  0  0  0  0  0  0  0  0  0  0  0
    7.7217   -4.4192   -0.0000 C   0  0  0  0  0  0  0  0  0  0  0  0
    9.0166   -0.6415   -0.0000 O   0  0  0  0  0  0  0  0  0  0  0  0
   10.3234   -2.9105   -0.0000 N   0  0  0  0  0  0  0  0  0  0  0  0
   11.6182   -2.1502   -0.0000 C   0  0  0  0  0  0  0  0  0  0  0  0
   12.9131   -2.8986   -0.0000 C   0  0  0  0  0  0  0  0  0  0  0  0
   14.2080   -2.1383   -0.0000 C   0  0  0  0  0  0  0  0  0  0  0  0
   15.4910   -2.8867   -0.0000 C   0  0  0  0  0  0  0  0  0  0  0  0
   14.1842   -0.6296   -0.0000 C   0  0  0  0  0  0  0  0  0  0  0  0
   16.7859   -2.1264   -0.0000 C   0  0  0  0  0  0  0  0  0  0  0  0
   15.4672    0.1307   -0.0000 C   0  0  0  0  0  0  0  0  0  0  0  0
   16.7740   -0.6059   -0.0000 C   0  0  0  0  0  0  0  0  0  0  0  0
   18.0570    0.1663   -0.0000 C   0  0  0  0  0  0  0  0  0  0  0  0
   19.3519    0.9266   -0.0000 N   0  0  0  0  0  0  0  0  0  0  0  0
  1  2  1  0  0  0  0
  2  3  2  0  0  0  0
  2  4  1  0  0  0  0
  3  5  1  0  0  0  0
  3  6  1  0  0  0  0
  4  7  2  0  0  0  0
  4  8  1  0  0  0  0
  5  9  2  0  0  0  0
  6 10  1  0  0  0  0
  6 11  1  0  0  0  0
  9 12  1  0  0  0  0
 10 13  1  0  0  0  0
 11 14  1  0  0  0  0
 12 15  1  0  0  0  0
 12 16  1  0  0  0  0
 13 17  1  0  0  0  0
 15 18  1  0  0  0  0
 16 19  1  0  0  0  0
 17 20  1  0  0  0  0
 18 21  1  1  0  0  0
 18 22  1  0  0  0  0
 21 23  2  0  0  0  0
 21 24  1  0  0  0  0
 24 25  1  0  0  0  0
 25 26  1  0  0  0  0
 26 27  1  0  0  0  0
 27 28  2  0  0  0  0
 27 29  1  0  0  0  0
 28 30  1  0  0  0  0
 29 31  2  0  0  0  0
 30 32  2  0  0  0  0
 32 33  1  0  0  0  0
 33 34  3  0  0  0  0
  7  9  1  0  0  0  0
 14 17  1  0  0  0  0
 19 22  1  0  0  0  0
 31 32  1  0  0  0  0
M  END
>  <MolRegNo>
1733080

>  <m>
=

>  <Value>
7600

>  <Unit>
nM

>  <Type>
IC50

>  <pValue>
5.12

>  <Ligand Efficiency>
0

>  <Binding Efficiency>
0

>  <Surface Efficiency>
0

>  <Assay Index>
842945

>  <Assay Category>


>  <Assay Organism>
Homo sapiens

>  <Target ID>
17045

>  <Target Name>
Cytochrome P450 3A4

>  <Target Organism>
Homo sapiens

>  <Target Description>
Target is a single protein chain

>  <Sequence Accession>
P08684

>  <Reference>
J Med Chem 57 (8), 3263-3282 (2014)

>  <Pubmed ID>
24666203

>  <DOI>
10.1021/jm401731q

$$$$
1733084
Actelion Java MolfileCreator 1.0

 39 43  0  0  0  0  0  0  0  0999 V2000
    0.0000   -0.0000   -0.0000 F   0  0  0  0  0  0  0  0  0  0  0  0
   -1.3112   -0.7390   -0.0000 C   0  0  0  0  0  0  0  0  0  0  0  0
   -2.6223    0.0238   -0.0000 F   0  0  0  0  0  0  0  0  0  0  0  0
   -1.3350    0.7867   -0.0000 F   0  0  0  0  0  0  0  0  0  0  0  0
   -1.3231   -2.2290   -0.0000 C   0  0  0  0  0  0  0  0  0  0  0  0
   -0.0358   -2.9680   -0.0000 N   0  0  0  0  0  0  0  0  0  0  0  0
   -2.6342   -2.9680   -0.0000 N   0  0  0  0  0  0  0  0  0  0  0  0
   -0.0477   -4.4699   -0.0000 C   0  0  0  0  0  0  0  0  0  0  0  0
   -2.6462   -4.4699   -0.0000 C   0  0  0  0  0  0  0  0  0  0  0  0
    1.2396   -5.2089   -0.0000 N   0  0  0  0  0  0  0  0  0  0  0  0
   -1.3708   -5.2089   -0.0000 C   0  0  0  0  0  0  0  0  0  0  0  0
   -3.9573   -5.2089   -0.0000 N   0  0  0  0  0  0  0  0  0  0  0  0
    2.5270   -4.4460   -0.0000 C   0  0  0  0  0  0  0  0  0  0  0  0
    1.2277   -6.6988   -0.0000 C   0  0  0  0  0  0  0  0  0  0  0  0
   -5.2685   -4.4460   -0.0000 C   0  0  0  0  0  0  0  0  0  0  0  0
   -3.9692   -6.6988   -0.0000 C   0  0  0  0  0  0  0  0  0  0  0  0
    3.8143   -5.1969   -0.0000 C   0  0  0  0  0  0  0  0  0  0  0  0
    2.5150   -7.4378   -0.0000 C   0  0  0  0  0  0  0  0  0  0  0  0
   -6.5796   -5.1731   -0.0000 C   0  0  0  0  0  0  0  0  0  0  0  0
   -5.2923   -7.4378   -0.0000 C   0  0  0  0  0  0  0  0  0  0  0  0
    5.1016   -4.4341   -0.0000 C   0  0  0  0  0  0  0  0  0  0  0  0
    3.8024   -6.6869   -0.0000 C   0  0  0  0  0  0  0  0  0  0  0  0
   -6.6035   -6.6631   -0.0000 N   0  0  0  0  0  0  0  0  0  0  0  0
    5.0897   -2.9203   -0.0000 O   0  0  0  0  0  0  0  0  0  0  0  0
    6.3889   -5.1731   -0.0000 N   0  0  0  0  0  0  0  0  0  0  0  0
   -7.9146   -7.4021   -0.0000 C   0  0  0  0  0  0  0  0  0  0  0  0
    7.6762   -4.4103   -0.0000 C   0  0  0  0  0  0  0  0  0  0  0  0
   -9.3807   -6.9968   -0.0000 C   0  0  0  0  0  0  0  0  0  0  0  0
   -8.3199   -8.8443   -0.0000 C   0  0  0  0  0  0  0  0  0  0  0  0
    8.9635   -5.1493   -0.0000 C   0  0  0  0  0  0  0  0  0  0  0  0
   -9.7860   -8.4391   -0.0000 O   0  0  0  0  0  0  0  0  0  0  0  0
   10.2509   -4.3864   -0.0000 C   0  0  0  0  0  0  0  0  0  0  0  0
   11.5382   -5.1254   -0.0000 C   0  0  0  0  0  0  0  0  0  0  0  0
   10.2270   -2.8726   -0.0000 C   0  0  0  0  0  0  0  0  0  0  0  0
   12.8255   -4.3626   -0.0000 C   0  0  0  0  0  0  0  0  0  0  0  0
   11.5143   -2.1098   -0.0000 C   0  0  0  0  0  0  0  0  0  0  0  0
   12.8136   -2.8488   -0.0000 C   0  0  0  0  0  0  0  0  0  0  0  0
   14.1009   -2.0740   -0.0000 C   0  0  0  0  0  0  0  0  0  0  0  0
   15.3882   -1.3112   -0.0000 N   0  0  0  0  0  0  0  0  0  0  0  0
  1  2  1  0  0  0  0
  2  3  1  0  0  0  0
  2  4  1  0  0  0  0
  2  5  1  0  0  0  0
  5  6  2  0  0  0  0
  5  7  1  0  0  0  0
  6  8  1  0  0  0  0
  7  9  2  0  0  0  0
  8 10  1  0  0  0  0
  8 11  2  0  0  0  0
  9 12  1  0  0  0  0
 10 13  1  0  0  0  0
 10 14  1  0  0  0  0
 12 15  1  0  0  0  0
 12 16  1  0  0  0  0
 13 17  1  0  0  0  0
 14 18  1  0  0  0  0
 15 19  1  0  0  0  0
 16 20  1  0  0  0  0
 17 21  1  1  0  0  0
 17 22  1  0  0  0  0
 19 23  1  0  0  0  0
 21 24  2  0  0  0  0
 21 25  1  0  0  0  0
 23 26  1  0  0  0  0
 25 27  1  0  0  0  0
 26 28  1  0  0  0  0
 26 29  1  0  0  0  0
 27 30  1  0  0  0  0
 28 31  1  0  0  0  0
 30 32  1  0  0  0  0
 32 33  2  0  0  0  0
 32 34  1  0  0  0  0
 33 35  1  0  0  0  0
 34 36  2  0  0  0  0
 35 37  2  0  0  0  0
 37 38  1  0  0  0  0
 38 39  3  0  0  0  0
  9 11  1  0  0  0  0
 18 22  1  0  0  0  0
 20 23  1  0  0  0  0
 29 31  1  0  0  0  0
 36 37  1  0  0  0  0
M  END
>  <MolRegNo>
1733084

>  <m>
=

>  <Value>
1100

>  <Unit>
nM

>  <Type>
IC50

>  <pValue>
5.96

>  <Ligand Efficiency>
0

>  <Binding Efficiency>
0

>  <Surface Efficiency>
0

>  <Assay Index>
842945

>  <Assay Category>


>  <Assay Organism>
Homo sapiens

>  <Target ID>
17045

>  <Target Name>
Cytochrome P450 3A4

>  <Target Organism>
Homo sapiens

>  <Target Description>
Target is a single protein chain

>  <Sequence Accession>
P08684

>  <Reference>
J Med Chem 57 (8), 3263-3282 (2014)

>  <Pubmed ID>
24666203

>  <DOI>
10.1021/jm401731q

$$$$
1733085
Actelion Java MolfileCreator 1.0

 36 39  0  0  0  0  0  0  0  0999 V2000
    0.0000   -0.0000   -0.0000 F   0  0  0  0  0  0  0  0  0  0  0  0
   -1.3115   -0.7392   -0.0000 C   0  0  0  0  0  0  0  0  0  0  0  0
   -2.6230    0.0238   -0.0000 F   0  0  0  0  0  0  0  0  0  0  0  0
   -1.3354    0.7869   -0.0000 F   0  0  0  0  0  0  0  0  0  0  0  0
   -1.3234   -2.2296   -0.0000 C   0  0  0  0  0  0  0  0  0  0  0  0
   -0.0358   -2.9688   -0.0000 N   0  0  0  0  0  0  0  0  0  0  0  0
   -2.6349   -2.9688   -0.0000 N   0  0  0  0  0  0  0  0  0  0  0  0
   -0.0477   -4.4711   -0.0000 C   0  0  0  0  0  0  0  0  0  0  0  0
   -2.6469   -4.4711   -0.0000 C   0  0  0  0  0  0  0  0  0  0  0  0
    1.2400   -5.2103   -0.0000 N   0  0  0  0  0  0  0  0  0  0  0  0
   -1.3711   -5.2103   -0.0000 C   0  0  0  0  0  0  0  0  0  0  0  0
   -3.9584   -5.2103   -0.0000 N   0  0  0  0  0  0  0  0  0  0  0  0
    2.5276   -4.4472   -0.0000 C   0  0  0  0  0  0  0  0  0  0  0  0
    1.2281   -6.7006   -0.0000 C   0  0  0  0  0  0  0  0  0  0  0  0
   -5.2699   -4.4353   -0.0000 C   0  0  0  0  0  0  0  0  0  0  0  0
   -3.9703   -6.7006   -0.0000 C   0  0  0  0  0  0  0  0  0  0  0  0
    3.8153   -5.1984   -0.0000 C   0  0  0  0  0  0  0  0  0  0  0  0
    2.5157   -7.4399   -0.0000 C   0  0  0  0  0  0  0  0  0  0  0  0
   -6.5814   -5.1626   -0.0000 C   0  0  0  0  0  0  0  0  0  0  0  0
   -5.2937   -7.4399   -0.0000 C   0  0  0  0  0  0  0  0  0  0  0  0
    5.1030   -4.4353   -0.0000 C   0  0  0  0  0  0  0  0  0  0  0  0
    3.8034   -6.6887   -0.0000 C   0  0  0  0  0  0  0  0  0  0  0  0
   -6.6053   -6.6529   -0.0000 N   0  0  0  0  0  0  0  0  0  0  0  0
    5.0911   -2.9211   -0.0000 O   0  0  0  0  0  0  0  0  0  0  0  0
    6.3906   -5.1745   -0.0000 N   0  0  0  0  0  0  0  0  0  0  0  0
   -7.9287   -7.3922   -0.0000 C   0  0  0  0  0  0  0  0  0  0  0  0
    7.6783   -4.4115   -0.0000 C   0  0  0  0  0  0  0  0  0  0  0  0
    8.9660   -5.1507   -0.0000 C   0  0  0  0  0  0  0  0  0  0  0  0
   10.2536   -4.3876   -0.0000 C   0  0  0  0  0  0  0  0  0  0  0  0
   10.2298   -2.8734   -0.0000 C   0  0  0  0  0  0  0  0  0  0  0  0
   11.5413   -5.1268   -0.0000 C   0  0  0  0  0  0  0  0  0  0  0  0
   11.5175   -2.1103   -0.0000 N   0  0  0  0  0  0  0  0  0  0  0  0
   12.8290   -4.3638   -0.0000 C   0  0  0  0  0  0  0  0  0  0  0  0
   12.8171   -2.8496   -0.0000 C   0  0  0  0  0  0  0  0  0  0  0  0
   14.1047   -2.0746   -0.0000 C   0  0  0  0  0  0  0  0  0  0  0  0
   15.3924   -1.3115   -0.0000 N   0  0  0  0  0  0  0  0  0  0  0  0
  1  2  1  0  0  0  0
  2  3  1  0  0  0  0
  2  4  1  0  0  0  0
  2  5  1  0  0  0  0
  5  6  2  0  0  0  0
  5  7  1  0  0  0  0
  6  8  1  0  0  0  0
  7  9  2  0  0  0  0
  8 10  1  0  0  0  0
  8 11  2  0  0  0  0
  9 12  1  0  0  0  0
 10 13  1  0  0  0  0
 10 14  1  0  0  0  0
 12 15  1  0  0  0  0
 12 16  1  0  0  0  0
 13 17  1  0  0  0  0
 14 18  1  0  0  0  0
 15 19  1  0  0  0  0
 16 20  1  0  0  0  0
 17 21  1  1  0  0  0
 17 22  1  0  0  0  0
 19 23  1  0  0  0  0
 21 24  2  0  0  0  0
 21 25  1  0  0  0  0
 23 26  1  0  0  0  0
 25 27  1  0  0  0  0
 27 28  1  0  0  0  0
 28 29  1  0  0  0  0
 29 30  2  0  0  0  0
 29 31  1  0  0  0  0
 30 32  1  0  0  0  0
 31 33  2  0  0  0  0
 32 34  2  0  0  0  0
 34 35  1  0  0  0  0
 35 36  3  0  0  0  0
  9 11  1  0  0  0  0
 18 22  1  0  0  0  0
 20 23  1  0  0  0  0
 33 34  1  0  0  0  0
M  END
>  <MolRegNo>
1733085

>  <m>
=

>  <Value>
10000

>  <Unit>
nM

>  <Type>
IC50

>  <pValue>
5

>  <Ligand Efficiency>
0

>  <Binding Efficiency>
0

>  <Surface Efficiency>
0

>  <Assay Index>
842945

>  <Assay Category>


>  <Assay Organism>
Homo sapiens

>  <Target ID>
17045

>  <Target Name>
Cytochrome P450 3A4

>  <Target Organism>
Homo sapiens

>  <Target Description>
Target is a single protein chain

>  <Sequence Accession>
P08684

>  <Reference>
J Med Chem 57 (8), 3263-3282 (2014)

>  <Pubmed ID>
24666203

>  <DOI>
10.1021/jm401731q

$$$$
1733087
Actelion Java MolfileCreator 1.0

 37 40  0  0  0  0  0  0  0  0999 V2000
    0.0000   -0.0000   -0.0000 F   0  0  0  0  0  0  0  0  0  0  0  0
   -1.3113   -0.7391   -0.0000 C   0  0  0  0  0  0  0  0  0  0  0  0
   -2.6225    0.0238   -0.0000 F   0  0  0  0  0  0  0  0  0  0  0  0
   -1.3351    0.7868   -0.0000 F   0  0  0  0  0  0  0  0  0  0  0  0
   -1.3232   -2.2292   -0.0000 C   0  0  0  0  0  0  0  0  0  0  0  0
   -0.0358   -2.9682   -0.0000 N   0  0  0  0  0  0  0  0  0  0  0  0
   -2.6345   -2.9682   -0.0000 N   0  0  0  0  0  0  0  0  0  0  0  0
   -0.0477   -4.4702   -0.0000 C   0  0  0  0  0  0  0  0  0  0  0  0
   -2.6464   -4.4702   -0.0000 C   0  0  0  0  0  0  0  0  0  0  0  0
    1.2397   -5.2093   -0.0000 N   0  0  0  0  0  0  0  0  0  0  0  0
   -1.3709   -5.2093   -0.0000 C   0  0  0  0  0  0  0  0  0  0  0  0
   -3.9576   -5.2093   -0.0000 N   0  0  0  0  0  0  0  0  0  0  0  0
    2.5272   -4.4464   -0.0000 C   0  0  0  0  0  0  0  0  0  0  0  0
    1.2278   -6.6994   -0.0000 C   0  0  0  0  0  0  0  0  0  0  0  0
   -5.2689   -4.4464   -0.0000 C   0  0  0  0  0  0  0  0  0  0  0  0
   -3.9696   -6.6994   -0.0000 C   0  0  0  0  0  0  0  0  0  0  0  0
    3.8146   -5.1974   -0.0000 C   0  0  0  0  0  0  0  0  0  0  0  0
    2.5152   -7.4385   -0.0000 C   0  0  0  0  0  0  0  0  0  0  0  0
   -6.5802   -5.1735   -0.0000 C   0  0  0  0  0  0  0  0  0  0  0  0
   -5.2928   -7.4385   -0.0000 C   0  0  0  0  0  0  0  0  0  0  0  0
    5.1020   -4.4345   -0.0000 C   0  0  0  0  0  0  0  0  0  0  0  0
    3.8027   -6.6875   -0.0000 C   0  0  0  0  0  0  0  0  0  0  0  0
   -6.6040   -6.6636   -0.0000 N   0  0  0  0  0  0  0  0  0  0  0  0
    5.0901   -2.9206   -0.0000 O   0  0  0  0  0  0  0  0  0  0  0  0
    6.3894   -5.1735   -0.0000 N   0  0  0  0  0  0  0  0  0  0  0  0
   -7.9272   -7.4027   -0.0000 C   0  0  0  0  0  0  0  0  0  0  0  0
    7.6769   -4.4106   -0.0000 C   0  0  0  0  0  0  0  0  0  0  0  0
   -9.2385   -6.6279   -0.0000 C   0  0  0  0  0  0  0  0  0  0  0  0
    8.9643   -5.1497   -0.0000 C   0  0  0  0  0  0  0  0  0  0  0  0
   10.2517   -4.3868   -0.0000 C   0  0  0  0  0  0  0  0  0  0  0  0
   11.5392   -5.1259   -0.0000 C   0  0  0  0  0  0  0  0  0  0  0  0
   10.2279   -2.8729   -0.0000 C   0  0  0  0  0  0  0  0  0  0  0  0
   12.8266   -4.3629   -0.0000 N   0  0  0  0  0  0  0  0  0  0  0  0
   11.5153   -2.1099   -0.0000 N   0  0  0  0  0  0  0  0  0  0  0  0
   12.8147   -2.8490   -0.0000 C   0  0  0  0  0  0  0  0  0  0  0  0
   14.1021   -2.0742   -0.0000 C   0  0  0  0  0  0  0  0  0  0  0  0
   15.3895   -1.3113   -0.0000 N   0  0  0  0  0  0  0  0  0  0  0  0
  1  2  1  0  0  0  0
  2  3  1  0  0  0  0
  2  4  1  0  0  0  0
  2  5  1  0  0  0  0
  5  6  2  0  0  0  0
  5  7  1  0  0  0  0
  6  8  1  0  0  0  0
  7  9  2  0  0  0  0
  8 10  1  0  0  0  0
  8 11  2  0  0  0  0
  9 12  1  0  0  0  0
 10 13  1  0  0  0  0
 10 14  1  0  0  0  0
 12 15  1  0  0  0  0
 12 16  1  0  0  0  0
 13 17  1  0  0  0  0
 14 18  1  0  0  0  0
 15 19  1  0  0  0  0
 16 20  1  0  0  0  0
 17 21  1  1  0  0  0
 17 22  1  0  0  0  0
 19 23  1  0  0  0  0
 21 24  2  0  0  0  0
 21 25  1  0  0  0  0
 23 26  1  0  0  0  0
 25 27  1  0  0  0  0
 26 28  1  0  0  0  0
 27 29  1  0  0  0  0
 29 30  1  0  0  0  0
 30 31  2  0  0  0  0
 30 32  1  0  0  0  0
 31 33  1  0  0  0  0
 32 34  2  0  0  0  0
 33 35  2  0  0  0  0
 35 36  1  0  0  0  0
 36 37  3  0  0  0  0
  9 11  1  0  0  0  0
 18 22  1  0  0  0  0
 20 23  1  0  0  0  0
 34 35  1  0  0  0  0
M  END
>  <MolRegNo>
1733087

>  <m>
=

>  <Value>
5200

>  <Unit>
nM

>  <Type>
IC50

>  <pValue>
5.28

>  <Ligand Efficiency>
0

>  <Binding Efficiency>
0

>  <Surface Efficiency>
0

>  <Assay Index>
842945

>  <Assay Category>


>  <Assay Organism>
Homo sapiens

>  <Target ID>
17045

>  <Target Name>
Cytochrome P450 3A4

>  <Target Organism>
Homo sapiens

>  <Target Description>
Target is a single protein chain

>  <Sequence Accession>
P08684

>  <Reference>
J Med Chem 57 (8), 3263-3282 (2014)

>  <Pubmed ID>
24666203

>  <DOI>
10.1021/jm401731q

$$$$
1733088
Actelion Java MolfileCreator 1.0

 36 39  0  0  0  0  0  0  0  0999 V2000
    0.0000   -0.0000   -0.0000 F   0  0  0  0  0  0  0  0  0  0  0  0
   -1.3133   -0.7402   -0.0000 C   0  0  0  0  0  0  0  0  0  0  0  0
   -2.6266    0.0239   -0.0000 F   0  0  0  0  0  0  0  0  0  0  0  0
   -1.3372    0.7880   -0.0000 F   0  0  0  0  0  0  0  0  0  0  0  0
   -1.3252   -2.2326   -0.0000 C   0  0  0  0  0  0  0  0  0  0  0  0
   -0.0358   -2.9728   -0.0000 N   0  0  0  0  0  0  0  0  0  0  0  0
   -2.6385   -2.9728   -0.0000 N   0  0  0  0  0  0  0  0  0  0  0  0
   -0.0478   -4.4772   -0.0000 C   0  0  0  0  0  0  0  0  0  0  0  0
   -2.6505   -4.4772   -0.0000 C   0  0  0  0  0  0  0  0  0  0  0  0
    1.2417   -5.2174   -0.0000 N   0  0  0  0  0  0  0  0  0  0  0  0
   -1.3730   -5.2174   -0.0000 C   0  0  0  0  0  0  0  0  0  0  0  0
   -3.9638   -5.2174   -0.0000 N   0  0  0  0  0  0  0  0  0  0  0  0
    2.5311   -4.4533   -0.0000 C   0  0  0  0  0  0  0  0  0  0  0  0
    1.2297   -6.7098   -0.0000 C   0  0  0  0  0  0  0  0  0  0  0  0
   -5.2771   -4.4533   -0.0000 C   0  0  0  0  0  0  0  0  0  0  0  0
   -3.9757   -6.7098   -0.0000 C   0  0  0  0  0  0  0  0  0  0  0  0
    2.5191   -2.9370   -0.0000 C   0  0  0  0  0  0  0  0  0  0  0  0
    3.8205   -5.2054   -0.0000 C   0  0  0  0  0  0  0  0  0  0  0  0
    2.5191   -7.4500   -0.0000 C   0  0  0  0  0  0  0  0  0  0  0  0
   -6.5904   -5.1816   -0.0000 C   0  0  0  0  0  0  0  0  0  0  0  0
   -5.3009   -7.4500   -0.0000 C   0  0  0  0  0  0  0  0  0  0  0  0
    1.2058   -2.1729   -0.0000 O   0  0  0  0  0  0  0  0  0  0  0  0
    3.8086   -2.1729   -0.0000 N   0  0  0  0  0  0  0  0  0  0  0  0
    3.8086   -6.6978   -0.0000 C   0  0  0  0  0  0  0  0  0  0  0  0
   -6.6142   -6.6739   -0.0000 N   0  0  0  0  0  0  0  0  0  0  0  0
    5.0980   -2.9131   -0.0000 C   0  0  0  0  0  0  0  0  0  0  0  0
   -7.9395   -7.4142   -0.0000 C   0  0  0  0  0  0  0  0  0  0  0  0
    6.3874   -2.1490   -0.0000 C   0  0  0  0  0  0  0  0  0  0  0  0
    7.6768   -2.8893   -0.0000 C   0  0  0  0  0  0  0  0  0  0  0  0
    7.6529   -4.3816   -0.0000 C   0  0  0  0  0  0  0  0  0  0  0  0
    8.9543   -2.1252   -0.0000 C   0  0  0  0  0  0  0  0  0  0  0  0
    8.9424   -5.1219   -0.0000 C   0  0  0  0  0  0  0  0  0  0  0  0
   10.2437   -2.8534   -0.0000 C   0  0  0  0  0  0  0  0  0  0  0  0
   10.2318   -4.3578   -0.0000 C   0  0  0  0  0  0  0  0  0  0  0  0
   11.5331   -5.0860   -0.0000 C   0  0  0  0  0  0  0  0  0  0  0  0
   12.8226   -5.8263   -0.0000 N   0  0  0  0  0  0  0  0  0  0  0  0
  1  2  1  0  0  0  0
  2  3  1  0  0  0  0
  2  4  1  0  0  0  0
  2  5  1  0  0  0  0
  5  6  2  0  0  0  0
  5  7  1  0  0  0  0
  6  8  1  0  0  0  0
  7  9  2  0  0  0  0
  8 10  1  0  0  0  0
  8 11  2  0  0  0  0
  9 12  1  0  0  0  0
 10 13  1  0  0  0  0
 10 14  1  0  0  0  0
 12 15  1  0  0  0  0
 12 16  1  0  0  0  0
 13 17  1  6  0  0  0
 13 18  1  0  0  0  0
 14 19  1  0  0  0  0
 15 20  1  0  0  0  0
 16 21  1  0  0  0  0
 17 22  2  0  0  0  0
 17 23  1  0  0  0  0
 18 24  1  0  0  0  0
 20 25  1  0  0  0  0
 23 26  1  0  0  0  0
 25 27  1  0  0  0  0
 26 28  1  0  0  0  0
 28 29  1  0  0  0  0
 29 30  2  0  0  0  0
 29 31  1  0  0  0  0
 30 32  1  0  0  0  0
 31 33  2  0  0  0  0
 32 34  2  0  0  0  0
 34 35  1  0  0  0  0
 35 36  3  0  0  0  0
  9 11  1  0  0  0  0
 19 24  1  0  0  0  0
 21 25  1  0  0  0  0
 33 34  1  0  0  0  0
M  END
>  <MolRegNo>
1733088

>  <m>
=

>  <Value>
400

>  <Unit>
nM

>  <Type>
IC50

>  <pValue>
6.4

>  <Ligand Efficiency>
0

>  <Binding Efficiency>
0

>  <Surface Efficiency>
0

>  <Assay Index>
842945

>  <Assay Category>


>  <Assay Organism>
Homo sapiens

>  <Target ID>
17045

>  <Target Name>
Cytochrome P450 3A4

>  <Target Organism>
Homo sapiens

>  <Target Description>
Target is a single protein chain

>  <Sequence Accession>
P08684

>  <Reference>
J Med Chem 57 (8), 3263-3282 (2014)

>  <Pubmed ID>
24666203

>  <DOI>
10.1021/jm401731q

$$$$
1733089
Actelion Java MolfileCreator 1.0

 35 38  0  0  0  0  0  0  0  0999 V2000
    0.0000   -0.0000   -0.0000 F   0  0  0  0  0  0  0  0  0  0  0  0
   -1.3135   -0.7403   -0.0000 C   0  0  0  0  0  0  0  0  0  0  0  0
   -2.6270    0.0239   -0.0000 F   0  0  0  0  0  0  0  0  0  0  0  0
   -1.3374    0.7881   -0.0000 F   0  0  0  0  0  0  0  0  0  0  0  0
   -1.3255   -2.2330   -0.0000 C   0  0  0  0  0  0  0  0  0  0  0  0
   -2.6390   -2.9733   -0.0000 N   0  0  0  0  0  0  0  0  0  0  0  0
   -0.0358   -2.9733   -0.0000 N   0  0  0  0  0  0  0  0  0  0  0  0
   -2.6509   -4.4779   -0.0000 C   0  0  0  0  0  0  0  0  0  0  0  0
   -0.0478   -4.4779   -0.0000 C   0  0  0  0  0  0  0  0  0  0  0  0
   -3.9645   -5.2183   -0.0000 N   0  0  0  0  0  0  0  0  0  0  0  0
   -1.3613   -5.2183   -0.0000 C   0  0  0  0  0  0  0  0  0  0  0  0
    1.2419   -5.2183   -0.0000 N   0  0  0  0  0  0  0  0  0  0  0  0
   -5.2780   -4.4540   -0.0000 C   0  0  0  0  0  0  0  0  0  0  0  0
   -3.9764   -6.7109   -0.0000 C   0  0  0  0  0  0  0  0  0  0  0  0
    2.6032   -4.5854   -0.0000 C   0  0  0  0  0  0  0  0  0  0  0  0
    1.3971   -6.6870   -0.0000 C   0  0  0  0  0  0  0  0  0  0  0  0
   -6.5915   -5.1824   -0.0000 C   0  0  0  0  0  0  0  0  0  0  0  0
   -5.3019   -7.4513   -0.0000 C   0  0  0  0  0  0  0  0  0  0  0  0
    2.9017   -3.1047   -0.0000 C   0  0  0  0  0  0  0  0  0  0  0  0
    3.5943   -5.6840   -0.0000 C   0  0  0  0  0  0  0  0  0  0  0  0
    2.8539   -6.9856   -0.0000 C   0  0  0  0  0  0  0  0  0  0  0  0
   -6.6154   -6.6751   -0.0000 N   0  0  0  0  0  0  0  0  0  0  0  0
    1.7673   -2.0897   -0.0000 O   0  0  0  0  0  0  0  0  0  0  0  0
    4.3227   -2.6270   -0.0000 N   0  0  0  0  0  0  0  0  0  0  0  0
   -7.9408   -7.4154   -0.0000 C   0  0  0  0  0  0  0  0  0  0  0  0
    5.4332   -3.6182   -0.0000 C   0  0  0  0  0  0  0  0  0  0  0  0
    6.8542   -3.1405   -0.0000 C   0  0  0  0  0  0  0  0  0  0  0  0
    7.9647   -4.1316   -0.0000 C   0  0  0  0  0  0  0  0  0  0  0  0
    7.6423   -5.5884   -0.0000 C   0  0  0  0  0  0  0  0  0  0  0  0
    9.3738   -3.6420   -0.0000 C   0  0  0  0  0  0  0  0  0  0  0  0
    8.7528   -6.5796   -0.0000 C   0  0  0  0  0  0  0  0  0  0  0  0
   10.4843   -4.6332   -0.0000 C   0  0  0  0  0  0  0  0  0  0  0  0
   10.1738   -6.1019   -0.0000 C   0  0  0  0  0  0  0  0  0  0  0  0
   11.2844   -7.0930   -0.0000 C   0  0  0  0  0  0  0  0  0  0  0  0
   12.3949   -8.0841   -0.0000 N   0  0  0  0  0  0  0  0  0  0  0  0
  1  2  1  0  0  0  0
  2  3  1  0  0  0  0
  2  4  1  0  0  0  0
  2  5  1  0  0  0  0
  5  6  2  0  0  0  0
  5  7  1  0  0  0  0
  6  8  1  0  0  0  0
  7  9  2  0  0  0  0
  8 10  1  0  0  0  0
  8 11  2  0  0  0  0
  9 12  1  0  0  0  0
 10 13  1  0  0  0  0
 10 14  1  0  0  0  0
 12 15  1  0  0  0  0
 12 16  1  0  0  0  0
 13 17  1  0  0  0  0
 14 18  1  0  0  0  0
 15 19  1  6  0  0  0
 15 20  1  0  0  0  0
 16 21  1  0  0  0  0
 17 22  1  0  0  0  0
 19 23  2  0  0  0  0
 19 24  1  0  0  0  0
 22 25  1  0  0  0  0
 24 26  1  0  0  0  0
 26 27  1  0  0  0  0
 27 28  1  0  0  0  0
 28 29  2  0  0  0  0
 28 30  1  0  0  0  0
 29 31  1  0  0  0  0
 30 32  2  0  0  0  0
 31 33  2  0  0  0  0
 33 34  1  0  0  0  0
 34 35  3  0  0  0  0
  9 11  1  0  0  0  0
 18 22  1  0  0  0  0
 20 21  1  0  0  0  0
 32 33  1  0  0  0  0
M  END
>  <MolRegNo>
1733089

>  <m>
=

>  <Value>
2200

>  <Unit>
nM

>  <Type>
IC50

>  <pValue>
5.66

>  <Ligand Efficiency>
0

>  <Binding Efficiency>
0

>  <Surface Efficiency>
0

>  <Assay Index>
842945

>  <Assay Category>


>  <Assay Organism>
Homo sapiens

>  <Target ID>
17045

>  <Target Name>
Cytochrome P450 3A4

>  <Target Organism>
Homo sapiens

>  <Target Description>
Target is a single protein chain

>  <Sequence Accession>
P08684

>  <Reference>
J Med Chem 57 (8), 3263-3282 (2014)

>  <Pubmed ID>
24666203

>  <DOI>
10.1021/jm401731q

$$$$
1733091
Actelion Java MolfileCreator 1.0

 34 37  0  0  0  0  0  0  0  0999 V2000
    0.0000   -0.0000   -0.0000 F   0  0  0  0  0  0  0  0  0  0  0  0
   -1.3132   -0.7402   -0.0000 C   0  0  0  0  0  0  0  0  0  0  0  0
   -2.6264    0.0239   -0.0000 F   0  0  0  0  0  0  0  0  0  0  0  0
   -1.3371    0.7879   -0.0000 F   0  0  0  0  0  0  0  0  0  0  0  0
   -1.3251   -2.2324   -0.0000 C   0  0  0  0  0  0  0  0  0  0  0  0
   -2.6383   -2.9726   -0.0000 N   0  0  0  0  0  0  0  0  0  0  0  0
   -0.0358   -2.9726   -0.0000 N   0  0  0  0  0  0  0  0  0  0  0  0
   -2.6503   -4.4768   -0.0000 C   0  0  0  0  0  0  0  0  0  0  0  0
   -0.0478   -4.4768   -0.0000 C   0  0  0  0  0  0  0  0  0  0  0  0
   -3.9635   -5.2170   -0.0000 N   0  0  0  0  0  0  0  0  0  0  0  0
   -1.3609   -5.2170   -0.0000 C   0  0  0  0  0  0  0  0  0  0  0  0
    1.2416   -5.2170   -0.0000 N   0  0  0  0  0  0  0  0  0  0  0  0
   -5.2767   -4.4410   -0.0000 C   0  0  0  0  0  0  0  0  0  0  0  0
   -3.9754   -6.7092   -0.0000 C   0  0  0  0  0  0  0  0  0  0  0  0
    2.6741   -4.8111   -0.0000 C   0  0  0  0  0  0  0  0  0  0  0  0
    1.6116   -6.6495   -0.0000 C   0  0  0  0  0  0  0  0  0  0  0  0
   -6.5898   -5.1692   -0.0000 C   0  0  0  0  0  0  0  0  0  0  0  0
   -5.3005   -7.4494   -0.0000 C   0  0  0  0  0  0  0  0  0  0  0  0
    3.4143   -3.4979   -0.0000 C   0  0  0  0  0  0  0  0  0  0  0  0
    3.0562   -6.2436   -0.0000 C   0  0  0  0  0  0  0  0  0  0  0  0
   -6.6137   -6.6615   -0.0000 N   0  0  0  0  0  0  0  0  0  0  0  0
    2.6503   -2.1847   -0.0000 O   0  0  0  0  0  0  0  0  0  0  0  0
    4.9066   -3.4859   -0.0000 N   0  0  0  0  0  0  0  0  0  0  0  0
   -7.9389   -7.4016   -0.0000 C   0  0  0  0  0  0  0  0  0  0  0  0
    5.6467   -4.7753   -0.0000 C   0  0  0  0  0  0  0  0  0  0  0  0
    7.1390   -4.7633   -0.0000 C   0  0  0  0  0  0  0  0  0  0  0  0
    7.8792   -6.0526   -0.0000 C   0  0  0  0  0  0  0  0  0  0  0  0
    7.1151   -7.3420   -0.0000 C   0  0  0  0  0  0  0  0  0  0  0  0
    9.3714   -6.0288   -0.0000 C   0  0  0  0  0  0  0  0  0  0  0  0
    7.8553   -8.6313   -0.0000 C   0  0  0  0  0  0  0  0  0  0  0  0
   10.1235   -7.3061   -0.0000 C   0  0  0  0  0  0  0  0  0  0  0  0
    9.3476   -8.6193   -0.0000 C   0  0  0  0  0  0  0  0  0  0  0  0
   10.0877   -9.8967   -0.0000 C   0  0  0  0  0  0  0  0  0  0  0  0
   10.8398  -11.1860   -0.0000 N   0  0  0  0  0  0  0  0  0  0  0  0
  1  2  1  0  0  0  0
  2  3  1  0  0  0  0
  2  4  1  0  0  0  0
  2  5  1  0  0  0  0
  5  6  2  0  0  0  0
  5  7  1  0  0  0  0
  6  8  1  0  0  0  0
  7  9  2  0  0  0  0
  8 10  1  0  0  0  0
  8 11  2  0  0  0  0
  9 12  1  0  0  0  0
 10 13  1  0  0  0  0
 10 14  1  0  0  0  0
 12 15  1  0  0  0  0
 12 16  1  0  0  0  0
 13 17  1  0  0  0  0
 14 18  1  0  0  0  0
 15 19  1  6  0  0  0
 15 20  1  0  0  0  0
 17 21  1  0  0  0  0
 19 22  2  0  0  0  0
 19 23  1  0  0  0  0
 21 24  1  0  0  0  0
 23 25  1  0  0  0  0
 25 26  1  0  0  0  0
 26 27  1  0  0  0  0
 27 28  2  0  0  0  0
 27 29  1  0  0  0  0
 28 30  1  0  0  0  0
 29 31  2  0  0  0  0
 30 32  2  0  0  0  0
 32 33  1  0  0  0  0
 33 34  3  0  0  0  0
  9 11  1  0  0  0  0
 16 20  1  0  0  0  0
 18 21  1  0  0  0  0
 31 32  1  0  0  0  0
M  END
>  <MolRegNo>
1733091

>  <m>
=

>  <Value>
3000

>  <Unit>
nM

>  <Type>
IC50

>  <pValue>
5.52

>  <Ligand Efficiency>
0

>  <Binding Efficiency>
0

>  <Surface Efficiency>
0

>  <Assay Index>
842945

>  <Assay Category>


>  <Assay Organism>
Homo sapiens

>  <Target ID>
17045

>  <Target Name>
Cytochrome P450 3A4

>  <Target Organism>
Homo sapiens

>  <Target Description>
Target is a single protein chain

>  <Sequence Accession>
P08684

>  <Reference>
J Med Chem 57 (8), 3263-3282 (2014)

>  <Pubmed ID>
24666203

>  <DOI>
10.1021/jm401731q

$$$$
1733093
Actelion Java MolfileCreator 1.0

 35 38  0  0  0  0  0  0  0  0999 V2000
    0.0000   -0.0000   -0.0000 F   0  0  0  0  0  0  0  0  0  0  0  0
   -1.3127   -0.7399   -0.0000 C   0  0  0  0  0  0  0  0  0  0  0  0
   -2.6254    0.0239   -0.0000 F   0  0  0  0  0  0  0  0  0  0  0  0
   -1.3366    0.7876   -0.0000 F   0  0  0  0  0  0  0  0  0  0  0  0
   -1.3246   -2.2316   -0.0000 C   0  0  0  0  0  0  0  0  0  0  0  0
   -2.6374   -2.9715   -0.0000 N   0  0  0  0  0  0  0  0  0  0  0  0
   -0.0358   -2.9715   -0.0000 N   0  0  0  0  0  0  0  0  0  0  0  0
   -2.6493   -4.4751   -0.0000 C   0  0  0  0  0  0  0  0  0  0  0  0
   -0.0477   -4.4751   -0.0000 C   0  0  0  0  0  0  0  0  0  0  0  0
   -3.9620   -5.2150   -0.0000 N   0  0  0  0  0  0  0  0  0  0  0  0
   -1.3604   -5.2150   -0.0000 C   0  0  0  0  0  0  0  0  0  0  0  0
    1.2411   -5.2150   -0.0000 N   0  0  0  0  0  0  0  0  0  0  0  0
   -5.2747   -4.4393   -0.0000 C   0  0  0  0  0  0  0  0  0  0  0  0
   -3.9739   -6.7068   -0.0000 C   0  0  0  0  0  0  0  0  0  0  0  0
    2.6732   -4.8093   -0.0000 C   0  0  0  0  0  0  0  0  0  0  0  0
    1.6111   -6.6471   -0.0000 C   0  0  0  0  0  0  0  0  0  0  0  0
   -6.5874   -5.1673   -0.0000 C   0  0  0  0  0  0  0  0  0  0  0  0
   -5.2986   -7.4466   -0.0000 C   0  0  0  0  0  0  0  0  0  0  0  0
    3.4130   -3.4966   -0.0000 C   0  0  0  0  0  0  0  0  0  0  0  0
    3.0550   -6.2413   -0.0000 C   0  0  0  0  0  0  0  0  0  0  0  0
   -6.6113   -6.6590   -0.0000 N   0  0  0  0  0  0  0  0  0  0  0  0
    2.6493   -2.1839   -0.0000 O   0  0  0  0  0  0  0  0  0  0  0  0
    4.9048   -3.4846   -0.0000 N   0  0  0  0  0  0  0  0  0  0  0  0
   -7.9359   -7.3989   -0.0000 C   0  0  0  0  0  0  0  0  0  0  0  0
    5.6446   -4.7735   -0.0000 C   0  0  0  0  0  0  0  0  0  0  0  0
   -9.2486   -6.6232   -0.0000 C   0  0  0  0  0  0  0  0  0  0  0  0
    7.1364   -4.7616   -0.0000 C   0  0  0  0  0  0  0  0  0  0  0  0
    7.8763   -6.0504   -0.0000 C   0  0  0  0  0  0  0  0  0  0  0  0
    9.3680   -6.0265   -0.0000 C   0  0  0  0  0  0  0  0  0  0  0  0
    7.1125   -7.3392   -0.0000 C   0  0  0  0  0  0  0  0  0  0  0  0
   10.1198   -7.3034   -0.0000 N   0  0  0  0  0  0  0  0  0  0  0  0
    7.8524   -8.6281   -0.0000 C   0  0  0  0  0  0  0  0  0  0  0  0
    9.3560   -8.6042   -0.0000 C   0  0  0  0  0  0  0  0  0  0  0  0
   10.0959   -9.8811   -0.0000 C   0  0  0  0  0  0  0  0  0  0  0  0
   10.8478  -11.1700   -0.0000 N   0  0  0  0  0  0  0  0  0  0  0  0
  1  2  1  0  0  0  0
  2  3  1  0  0  0  0
  2  4  1  0  0  0  0
  2  5  1  0  0  0  0
  5  6  2  0  0  0  0
  5  7  1  0  0  0  0
  6  8  1  0  0  0  0
  7  9  2  0  0  0  0
  8 10  1  0  0  0  0
  8 11  2  0  0  0  0
  9 12  1  0  0  0  0
 10 13  1  0  0  0  0
 10 14  1  0  0  0  0
 12 15  1  0  0  0  0
 12 16  1  0  0  0  0
 13 17  1  0  0  0  0
 14 18  1  0  0  0  0
 15 19  1  6  0  0  0
 15 20  1  0  0  0  0
 17 21  1  0  0  0  0
 19 22  2  0  0  0  0
 19 23  1  0  0  0  0
 21 24  1  0  0  0  0
 23 25  1  0  0  0  0
 24 26  1  0  0  0  0
 25 27  1  0  0  0  0
 27 28  1  0  0  0  0
 28 29  2  0  0  0  0
 28 30  1  0  0  0  0
 29 31  1  0  0  0  0
 30 32  2  0  0  0  0
 31 33  2  0  0  0  0
 33 34  1  0  0  0  0
 34 35  3  0  0  0  0
  9 11  1  0  0  0  0
 16 20  1  0  0  0  0
 18 21  1  0  0  0  0
 32 33  1  0  0  0  0
M  END
>  <MolRegNo>
1733093

>  <m>
=

>  <Value>
7800

>  <Unit>
nM

>  <Type>
IC50

>  <pValue>
5.11

>  <Ligand Efficiency>
0

>  <Binding Efficiency>
0

>  <Surface Efficiency>
0

>  <Assay Index>
842945

>  <Assay Category>


>  <Assay Organism>
Homo sapiens

>  <Target ID>
17045

>  <Target Name>
Cytochrome P450 3A4

>  <Target Organism>
Homo sapiens

>  <Target Description>
Target is a single protein chain

>  <Sequence Accession>
P08684

>  <Reference>
J Med Chem 57 (8), 3263-3282 (2014)

>  <Pubmed ID>
24666203

>  <DOI>
10.1021/jm401731q

$$$$
1733786
Actelion Java MolfileCreator 1.0

 31 34  0  0  0  0  0  0  0  0999 V2000
    0.0000   -0.0000   -0.0000 O   0  0  0  0  0  0  0  0  0  0  0  0
   -0.0119    1.5131   -0.0000 C   0  0  0  0  0  0  0  0  0  0  0  0
    1.2748    2.2756   -0.0000 N   0  0  0  0  0  0  0  0  0  0  0  0
   -1.3225    2.2756   -0.0000 C   0  0  0  0  0  0  0  0  0  0  0  0
    1.2510    3.7768   -0.0000 C   0  0  0  0  0  0  0  0  0  0  0  0
    2.5615    1.5250   -0.0000 C   0  0  0  0  0  0  0  0  0  0  0  0
   -2.6449    1.5369   -0.0000 C   0  0  0  0  0  0  0  0  0  0  0  0
   -1.3344    3.8006   -0.0000 C   0  0  0  0  0  0  0  0  0  0  0  0
    2.5496    4.5393   -0.0000 C   0  0  0  0  0  0  0  0  0  0  0  0
   -0.0596    4.5393   -0.0000 C   0  0  0  0  0  0  0  0  0  0  0  0
    3.8483    2.2875   -0.0000 C   0  0  0  0  0  0  0  0  0  0  0  0
   -2.6569    0.0477   -0.0000 N   0  0  0  0  0  0  0  0  0  0  0  0
   -3.9555    2.2994   -0.0000 C   0  0  0  0  0  0  0  0  0  0  0  0
   -2.6449    4.5631   -0.0000 C   0  0  0  0  0  0  0  0  0  0  0  0
    3.8364    3.8006   -0.0000 C   0  0  0  0  0  0  0  0  0  0  0  0
    5.1350    1.5488   -0.0000 C   0  0  0  0  0  0  0  0  0  0  0  0
   -3.8840   -0.8221   -0.0000 N   0  0  0  0  0  0  0  0  0  0  0  0
   -1.4535   -0.8221   -0.0000 N   0  0  0  0  0  0  0  0  0  0  0  0
   -3.9674    3.8244   -0.0000 C   0  0  0  0  0  0  0  0  0  0  0  0
   -2.6569    6.0762   -0.0000 C   0  0  0  0  0  0  0  0  0  0  0  0
    6.4217    0.8221   -0.0000 C   0  0  0  0  0  0  0  0  0  0  0  0
   -3.4313   -2.2399   -0.0000 C   0  0  0  0  0  0  0  0  0  0  0  0
   -1.9301   -2.2399   -0.0000 C   0  0  0  0  0  0  0  0  0  0  0  0
    7.7085    0.0834   -0.0000 C   0  0  0  0  0  0  0  0  0  0  0  0
    8.9833    0.8578   -0.0000 C   0  0  0  0  0  0  0  0  0  0  0  0
    7.6965   -1.4059   -0.0000 C   0  0  0  0  0  0  0  0  0  0  0  0
   10.2700    0.1311   -0.0000 C   0  0  0  0  0  0  0  0  0  0  0  0
    8.9833   -2.1445   -0.0000 C   0  0  0  0  0  0  0  0  0  0  0  0
   10.2700   -1.3701   -0.0000 C   0  0  0  0  0  0  0  0  0  0  0  0
   11.5567    0.9055   -0.0000 C   0  0  0  0  0  0  0  0  0  0  0  0
   12.8554    0.1787   -0.0000 O   0  0  0  0  0  0  0  0  0  0  0  0
  1  2  2  0  0  0  0
  2  3  1  0  0  0  0
  2  4  1  0  0  0  0
  3  5  1  0  0  0  0
  3  6  1  0  0  0  0
  4  7  2  0  0  0  0
  4  8  1  0  0  0  0
  5  9  1  0  0  0  0
  5 10  1  1  0  0  0
  6 11  1  0  0  0  0
  7 12  1  0  0  0  0
  7 13  1  0  0  0  0
  8 14  2  0  0  0  0
  9 15  1  0  0  0  0
 11 16  1  6  0  0  0
 12 17  1  0  0  0  0
 12 18  1  0  0  0  0
 13 19  2  0  0  0  0
 14 20  1  0  0  0  0
 16 21  3  0  0  0  0
 17 22  2  0  0  0  0
 18 23  2  0  0  0  0
 21 24  1  0  0  0  0
 24 25  2  0  0  0  0
 24 26  1  0  0  0  0
 25 27  1  0  0  0  0
 26 28  2  0  0  0  0
 27 29  2  0  0  0  0
 27 30  1  0  0  0  0
 30 31  1  0  0  0  0
 11 15  1  0  0  0  0
 14 19  1  0  0  0  0
 22 23  1  0  0  0  0
 28 29  1  0  0  0  0
M  END
>  <MolRegNo>
1733786

>  <m>
=

>  <Value>
4000

>  <Unit>
nM

>  <Type>
IC50

>  <pValue>
5.4

>  <Ligand Efficiency>
0

>  <Binding Efficiency>
0

>  <Surface Efficiency>
0

>  <Assay Index>
844613

>  <Assay Category>


>  <Assay Organism>
Homo sapiens

>  <Target ID>
17045

>  <Target Name>
Cytochrome P450 3A4

>  <Target Organism>
Homo sapiens

>  <Target Description>
Target is a single protein chain

>  <Sequence Accession>
P08684

>  <Reference>
Bioorg Med Chem Lett 24 (7), 1784-1789 (2014)

>  <Pubmed ID>
24630562

>  <DOI>
10.1016/j.bmcl.2014.02.026

$$$$
1735985
Actelion Java MolfileCreator 1.0

 31 36  0  0  0  0  0  0  0  0999 V2000
    0.0000   -0.0000   -0.0000 N   0  0  0  0  0  0  0  0  0  0  0  0
   -0.8992   -1.2068   -0.0000 C   0  0  0  0  0  0  0  0  0  0  0  0
   -0.6270    1.3842   -0.0000 C   0  0  0  0  0  0  0  0  0  0  0  0
   -2.4017   -1.0411   -0.0000 N   0  0  0  0  0  0  0  0  0  0  0  0
   -0.2958   -2.5673   -0.0000 N   0  0  0  0  0  0  0  0  0  0  0  0
   -0.0237    2.7685   -0.0000 N   0  0  0  0  0  0  0  0  0  0  0  0
   -2.1296    1.5499   -0.0000 C   0  0  0  0  0  0  0  0  0  0  0  0
   -3.0288    0.3431   -0.0000 C   0  0  0  0  0  0  0  0  0  0  0  0
    1.1831   -2.7093   -0.0000 C   0  0  0  0  0  0  0  0  0  0  0  0
   -1.1476    3.7859   -0.0000 C   0  0  0  0  0  0  0  0  0  0  0  0
    1.4316    3.0879   -0.0000 C   0  0  0  0  0  0  0  0  0  0  0  0
   -2.4490    3.0288   -0.0000 C   0  0  0  0  0  0  0  0  0  0  0  0
    2.0468   -1.4789   -0.0000 N   0  0  0  0  0  0  0  0  0  0  0  0
    1.7865   -4.0699   -0.0000 C   0  0  0  0  0  0  0  0  0  0  0  0
   -1.1594    5.3003   -0.0000 C   0  0  0  0  0  0  0  0  0  0  0  0
    2.4254    1.9994   -0.0000 C   0  0  0  0  0  0  0  0  0  0  0  0
    2.1059    4.4130   -0.0000 C   0  0  0  0  0  0  0  0  0  0  0  0
   -3.7623    3.7859   -0.0000 C   0  0  0  0  0  0  0  0  0  0  0  0
    3.5257   -1.6209   -0.0000 C   0  0  0  0  0  0  0  0  0  0  0  0
    3.2654   -4.2119   -0.0000 C   0  0  0  0  0  0  0  0  0  0  0  0
   -2.4727    6.0575   -0.0000 N   0  0  0  0  0  0  0  0  0  0  0  0
    3.7741    2.6620   -0.0000 C   0  0  0  0  0  0  0  0  0  0  0  0
    3.5730    4.1527   -0.0000 C   0  0  0  0  0  0  0  0  0  0  0  0
   -3.7741    5.3003   -0.0000 C   0  0  0  0  0  0  0  0  0  0  0  0
    4.1290   -2.9814   -0.0000 C   0  0  0  0  0  0  0  0  0  0  0  0
    5.6079   -3.1234   -0.0000 N   0  0  0  0  0  0  0  0  0  0  0  0
    6.2113   -4.4840   -0.0000 C   0  0  0  0  0  0  0  0  0  0  0  0
    6.4716   -1.8930   -0.0000 C   0  0  0  0  0  0  0  0  0  0  0  0
    7.6902   -4.6259   -0.0000 C   0  0  0  0  0  0  0  0  0  0  0  0
    7.9505   -2.0349   -0.0000 C   0  0  0  0  0  0  0  0  0  0  0  0
    8.5539   -3.3955   -0.0000 N   0  0  0  0  0  0  0  0  0  0  0  0
  1  2  2  0  0  0  0
  1  3  1  0  0  0  0
  2  4  1  0  0  0  0
  2  5  1  0  0  0  0
  3  6  1  0  0  0  0
  3  7  2  0  0  0  0
  4  8  2  0  0  0  0
  5  9  1  0  0  0  0
  6 10  1  0  0  0  0
  6 11  1  0  0  0  0
  7 12  1  0  0  0  0
  9 13  2  0  0  0  0
  9 14  1  0  0  0  0
 10 15  1  0  0  0  0
 11 16  1  0  0  0  0
 11 17  1  0  0  0  0
 12 18  1  0  0  0  0
 13 19  1  0  0  0  0
 14 20  2  0  0  0  0
 15 21  2  0  0  0  0
 16 22  1  0  0  0  0
 17 23  1  0  0  0  0
 18 24  2  0  0  0  0
 19 25  2  0  0  0  0
 25 26  1  0  0  0  0
 26 27  1  0  0  0  0
 26 28  1  0  0  0  0
 27 29  1  0  0  0  0
 28 30  1  0  0  0  0
 29 31  1  0  0  0  0
  7  8  1  0  0  0  0
 10 12  2  0  0  0  0
 20 25  1  0  0  0  0
 21 24  1  0  0  0  0
 22 23  1  0  0  0  0
 30 31  1  0  0  0  0
M  END
>  <MolRegNo>
1735985

>  <m>
=

>  <Value>
550

>  <Unit>
nM

>  <Type>
IC50

>  <pValue>
6.26

>  <Ligand Efficiency>
0

>  <Binding Efficiency>
0

>  <Surface Efficiency>
0

>  <Assay Index>
843414

>  <Assay Category>


>  <Assay Organism>
Homo sapiens

>  <Target ID>
17045

>  <Target Name>
Cytochrome P450 3A4

>  <Target Organism>
Homo sapiens

>  <Target Description>
Target is a single protein chain

>  <Sequence Accession>
P08684

>  <Reference>
J Med Chem 57 (8), 3430-3449 (2014)

>  <Pubmed ID>
24641103

>  <DOI>
10.1021/jm500118j

$$$$
1736250
Actelion Java MolfileCreator 1.0

 34 39  0  0  0  0  0  0  0  0999 V2000
    0.0000   -0.0000   -0.0000 N   0  0  0  0  0  0  0  0  0  0  0  0
   -0.9082   -1.2189   -0.0000 C   0  0  0  0  0  0  0  0  0  0  0  0
   -0.6334    1.3982   -0.0000 C   0  0  0  0  0  0  0  0  0  0  0  0
   -2.4259   -1.0516   -0.0000 N   0  0  0  0  0  0  0  0  0  0  0  0
   -0.2988   -2.5932   -0.0000 N   0  0  0  0  0  0  0  0  0  0  0  0
   -0.0239    2.7964   -0.0000 N   0  0  0  0  0  0  0  0  0  0  0  0
   -2.1511    1.5655   -0.0000 C   0  0  0  0  0  0  0  0  0  0  0  0
   -3.0593    0.3466   -0.0000 C   0  0  0  0  0  0  0  0  0  0  0  0
    1.1950   -2.7366   -0.0000 C   0  0  0  0  0  0  0  0  0  0  0  0
   -1.1592    3.8241   -0.0000 C   0  0  0  0  0  0  0  0  0  0  0  0
    1.4460    3.1191   -0.0000 C   0  0  0  0  0  0  0  0  0  0  0  0
   -2.4737    3.0593   -0.0000 C   0  0  0  0  0  0  0  0  0  0  0  0
    2.0674   -1.4938   -0.0000 N   0  0  0  0  0  0  0  0  0  0  0  0
    1.8045   -4.1109   -0.0000 C   0  0  0  0  0  0  0  0  0  0  0  0
   -1.1711    5.3538   -0.0000 C   0  0  0  0  0  0  0  0  0  0  0  0
    2.0077    4.5292   -0.0000 C   0  0  0  0  0  0  0  0  0  0  0  0
    2.3542    1.9240   -0.0000 C   0  0  0  0  0  0  0  0  0  0  0  0
   -3.8002    3.8241   -0.0000 C   0  0  0  0  0  0  0  0  0  0  0  0
    3.5612   -1.6372   -0.0000 C   0  0  0  0  0  0  0  0  0  0  0  0
    3.2983   -4.2543   -0.0000 C   0  0  0  0  0  0  0  0  0  0  0  0
   -2.4976    6.1186   -0.0000 N   0  0  0  0  0  0  0  0  0  0  0  0
    3.5015    4.7443   -0.0000 C   0  0  0  0  0  0  0  0  0  0  0  0
    3.8480    2.1391   -0.0000 C   0  0  0  0  0  0  0  0  0  0  0  0
   -3.8122    5.3538   -0.0000 C   0  0  0  0  0  0  0  0  0  0  0  0
    4.1707   -3.0115   -0.0000 C   0  0  0  0  0  0  0  0  0  0  0  0
    4.4216    3.5612   -0.0000 C   0  0  0  0  0  0  0  0  0  0  0  0
    5.6645   -3.1549   -0.0000 N   0  0  0  0  0  0  0  0  0  0  0  0
    4.8399    4.7085   -0.0000 C   0  0  0  0  0  0  0  0  0  0  0  0
    5.1267    2.5932   -0.0000 C   0  0  0  0  0  0  0  0  0  0  0  0
    6.2740   -4.5292   -0.0000 C   0  0  0  0  0  0  0  0  0  0  0  0
    6.5369   -1.9121   -0.0000 C   0  0  0  0  0  0  0  0  0  0  0  0
    7.7677   -4.6726   -0.0000 C   0  0  0  0  0  0  0  0  0  0  0  0
    8.0307   -2.0555   -0.0000 C   0  0  0  0  0  0  0  0  0  0  0  0
    8.6401   -3.4298   -0.0000 N   0  0  0  0  0  0  0  0  0  0  0  0
  1  2  2  0  0  0  0
  1  3  1  0  0  0  0
  2  4  1  0  0  0  0
  2  5  1  0  0  0  0
  3  6  1  0  0  0  0
  3  7  2  0  0  0  0
  4  8  2  0  0  0  0
  5  9  1  0  0  0  0
  6 10  1  0  0  0  0
  6 11  1  0  0  0  0
  7 12  1  0  0  0  0
  9 13  2  0  0  0  0
  9 14  1  0  0  0  0
 10 15  1  0  0  0  0
 11 16  1  0  0  0  0
 11 17  1  0  0  0  0
 12 18  1  0  0  0  0
 13 19  1  0  0  0  0
 14 20  2  0  0  0  0
 15 21  2  0  0  0  0
 16 22  1  0  0  0  0
 17 23  1  0  0  0  0
 18 24  2  0  0  0  0
 19 25  2  0  0  0  0
 22 26  1  0  0  0  0
 25 27  1  0  0  0  0
 26 28  1  0  0  0  0
 26 29  1  0  0  0  0
 27 30  1  0  0  0  0
 27 31  1  0  0  0  0
 30 32  1  0  0  0  0
 31 33  1  0  0  0  0
 32 34  1  0  0  0  0
  7  8  1  0  0  0  0
 10 12  2  0  0  0  0
 20 25  1  0  0  0  0
 21 24  1  0  0  0  0
 23 26  1  0  0  0  0
 33 34  1  0  0  0  0
M  END
>  <MolRegNo>
1736250

>  <m>
=

>  <Value>
9500

>  <Unit>
nM

>  <Type>
IC50

>  <pValue>
5.02

>  <Ligand Efficiency>
0

>  <Binding Efficiency>
0

>  <Surface Efficiency>
0

>  <Assay Index>
843414

>  <Assay Category>


>  <Assay Organism>
Homo sapiens

>  <Target ID>
17045

>  <Target Name>
Cytochrome P450 3A4

>  <Target Organism>
Homo sapiens

>  <Target Description>
Target is a single protein chain

>  <Sequence Accession>
P08684

>  <Reference>
J Med Chem 57 (8), 3430-3449 (2014)

>  <Pubmed ID>
24641103

>  <DOI>
10.1021/jm500118j

$$$$
1734890
Actelion Java MolfileCreator 1.0

 39 42  0  0  0  0  0  0  0  0999 V2000
    0.0000   -0.0000   -0.0000 Cl  0  0  0  0  0  0  0  0  0  0  0  0
   -1.2967    0.7597   -0.0000 C   0  0  0  0  0  0  0  0  0  0  0  0
   -1.3098    2.2528   -0.0000 C   0  0  0  0  0  0  0  0  0  0  0  0
   -2.5933    0.0262   -0.0000 C   0  0  0  0  0  0  0  0  0  0  0  0
   -2.6064    3.0125   -0.0000 C   0  0  0  0  0  0  0  0  0  0  0  0
   -3.8900    0.7859   -0.0000 C   0  0  0  0  0  0  0  0  0  0  0  0
   -3.9031    2.2790   -0.0000 C   0  0  0  0  0  0  0  0  0  0  0  0
   -2.6195    4.5056   -0.0000 C   0  0  0  0  0  0  0  0  0  0  0  0
   -3.9162    5.2653   -0.0000 C   0  0  0  0  0  0  0  0  0  0  0  0
   -1.3491    5.2653   -0.0000 C   0  0  0  0  0  0  0  0  0  0  0  0
   -3.9293    6.7584   -0.0000 N   0  0  0  0  0  0  0  0  0  0  0  0
   -5.2129    4.5318   -0.0000 C   0  0  0  0  0  0  0  0  0  0  0  0
   -1.3622    6.7584   -0.0000 C   0  0  0  0  0  0  0  0  0  0  0  0
   -2.6588    7.5181   -0.0000 C   0  0  0  0  0  0  0  0  0  0  0  0
   -5.6058    7.7407   -0.0000 C   0  0  0  0  0  0  0  0  0  0  0  0
   -5.2260    3.0649   -0.0000 C   0  0  0  0  0  0  0  0  0  0  0  0
   -6.5096    5.2915   -0.0000 C   0  0  0  0  0  0  0  0  0  0  0  0
   -0.0786    7.5050   -0.0000 C   0  0  0  0  0  0  0  0  0  0  0  0
   -1.3884    8.2646   -0.0000 C   0  0  0  0  0  0  0  0  0  0  0  0
   -2.6719    9.0112   -0.0000 O   0  0  0  0  0  0  0  0  0  0  0  0
   -5.6189    9.2339   -0.0000 C   0  0  0  0  0  0  0  0  0  0  0  0
   -6.9025    7.0204   -0.0000 C   0  0  0  0  0  0  0  0  0  0  0  0
   -6.5227    2.3314   -0.0000 C   0  0  0  0  0  0  0  0  0  0  0  0
   -7.8062    4.5580   -0.0000 C   0  0  0  0  0  0  0  0  0  0  0  0
    1.1788    6.7715   -0.0000 C   0  0  0  0  0  0  0  0  0  0  0  0
   -6.9156    9.9935   -0.0000 S   0  0  0  0  0  0  0  0  0  0  0  0
   -8.1992    7.7800   -0.0000 C   0  0  0  0  0  0  0  0  0  0  0  0
   -7.8193    3.0911   -0.0000 C   0  0  0  0  0  0  0  0  0  0  0  0
    1.3098    5.3046   -0.0000 N   0  0  0  0  0  0  0  0  0  0  0  0
    2.5017    7.3740   -0.0000 N   0  0  0  0  0  0  0  0  0  0  0  0
   -7.6752    8.7231   -0.0000 O   0  0  0  0  0  0  0  0  0  0  0  0
   -8.2254   10.7532   -0.0000 O   0  0  0  0  0  0  0  0  0  0  0  0
   -6.9418   11.4998   -0.0000 C   0  0  0  0  0  0  0  0  0  0  0  0
   -9.1160    2.3707   -0.0000 Cl  0  0  0  0  0  0  0  0  0  0  0  0
    2.7374    5.0033   -0.0000 N   0  0  0  0  0  0  0  0  0  0  0  0
    3.4709    6.2869   -0.0000 N   0  0  0  0  0  0  0  0  0  0  0  0
   -5.6713   12.2725   -0.0000 C   0  0  0  0  0  0  0  0  0  0  0  0
   -8.2515   12.2463   -0.0000 C   0  0  0  0  0  0  0  0  0  0  0  0
   -6.9680   13.0060   -0.0000 C   0  0  0  0  0  0  0  0  0  0  0  0
  1  2  1  0  0  0  0
  2  3  2  0  0  0  0
  2  4  1  0  0  0  0
  3  5  1  0  0  0  0
  4  6  2  0  0  0  0
  5  7  2  0  0  0  0
  8  5  1  6  0  0  0
  8  9  1  0  0  0  0
  8 10  1  0  0  0  0
  9 11  1  0  0  0  0
  9 12  1  1  0  0  0
 10 13  1  0  0  0  0
 11 14  1  0  0  0  0
 15 11  1  1  0  0  0
 12 16  2  0  0  0  0
 12 17  1  0  0  0  0
 13 18  1  0  0  0  0
 13 19  1  6  0  0  0
 14 20  2  0  0  0  0
 15 21  1  0  0  0  0
 15 22  1  0  0  0  0
 16 23  1  0  0  0  0
 17 24  2  0  0  0  0
 18 25  1  0  0  0  0
 21 26  1  0  0  0  0
 22 27  1  0  0  0  0
 23 28  2  0  0  0  0
 25 29  2  0  0  0  0
 25 30  1  0  0  0  0
 26 31  2  0  0  0  0
 26 32  2  0  0  0  0
 26 33  1  0  0  0  0
 28 34  1  0  0  0  0
 29 35  1  0  0  0  0
 30 36  1  0  0  0  0
 33 37  1  0  0  0  0
 33 38  1  0  0  0  0
 33 39  1  0  0  0  0
  6  7  1  0  0  0  0
 13 14  1  0  0  0  0
 24 28  1  0  0  0  0
 35 36  2  0  0  0  0
M  END
>  <MolRegNo>
1734890

>  <m>
=

>  <Value>
2500

>  <Unit>
nM

>  <Type>
IC50

>  <pValue>
5.6

>  <Ligand Efficiency>
0

>  <Binding Efficiency>
0

>  <Surface Efficiency>
0

>  <Assay Index>
844155

>  <Assay Category>


>  <Assay Organism>
Homo sapiens

>  <Target ID>
17045

>  <Target Name>
Cytochrome P450 3A4

>  <Target Organism>
Homo sapiens

>  <Target Description>
Target is a single protein chain

>  <Sequence Accession>
P08684

>  <Reference>
J Med Chem 57 (7), 2963-2988 (2014)

>  <Pubmed ID>
24601644

>  <DOI>
10.1021/jm401911v

$$$$
1734891
Actelion Java MolfileCreator 1.0

 40 43  0  0  0  0  0  0  0  0999 V2000
    0.0000   -0.0000   -0.0000 Cl  0  0  0  0  0  0  0  0  0  0  0  0
   -1.2971    0.7599   -0.0000 C   0  0  0  0  0  0  0  0  0  0  0  0
   -1.3102    2.2536   -0.0000 C   0  0  0  0  0  0  0  0  0  0  0  0
   -2.5943    0.0262   -0.0000 C   0  0  0  0  0  0  0  0  0  0  0  0
   -2.6074    3.0136   -0.0000 C   0  0  0  0  0  0  0  0  0  0  0  0
   -3.8914    0.7861   -0.0000 C   0  0  0  0  0  0  0  0  0  0  0  0
   -3.9045    2.2798   -0.0000 C   0  0  0  0  0  0  0  0  0  0  0  0
   -2.6205    4.5072   -0.0000 C   0  0  0  0  0  0  0  0  0  0  0  0
   -3.9176    5.2672   -0.0000 C   0  0  0  0  0  0  0  0  0  0  0  0
   -1.3495    5.2672   -0.0000 C   0  0  0  0  0  0  0  0  0  0  0  0
   -3.9307    6.7608   -0.0000 N   0  0  0  0  0  0  0  0  0  0  0  0
   -5.2148    4.5334   -0.0000 C   0  0  0  0  0  0  0  0  0  0  0  0
   -1.3627    6.7608   -0.0000 C   0  0  0  0  0  0  0  0  0  0  0  0
   -2.6598    7.5208   -0.0000 C   0  0  0  0  0  0  0  0  0  0  0  0
   -5.6078    7.7435   -0.0000 C   0  0  0  0  0  0  0  0  0  0  0  0
   -5.2279    3.0660   -0.0000 C   0  0  0  0  0  0  0  0  0  0  0  0
   -6.5119    5.2934   -0.0000 C   0  0  0  0  0  0  0  0  0  0  0  0
   -0.0786    7.5077   -0.0000 C   0  0  0  0  0  0  0  0  0  0  0  0
   -1.3889    8.2676   -0.0000 C   0  0  0  0  0  0  0  0  0  0  0  0
   -2.6729    9.0145   -0.0000 O   0  0  0  0  0  0  0  0  0  0  0  0
   -5.6209    9.2372   -0.0000 C   0  0  0  0  0  0  0  0  0  0  0  0
   -6.9050    7.0229   -0.0000 C   0  0  0  0  0  0  0  0  0  0  0  0
   -6.5250    2.3322   -0.0000 C   0  0  0  0  0  0  0  0  0  0  0  0
   -7.8090    4.5596   -0.0000 C   0  0  0  0  0  0  0  0  0  0  0  0
    1.1792    6.7739   -0.0000 C   0  0  0  0  0  0  0  0  0  0  0  0
   -6.9181    9.9971   -0.0000 S   0  0  0  0  0  0  0  0  0  0  0  0
   -8.2021    7.7828   -0.0000 C   0  0  0  0  0  0  0  0  0  0  0  0
   -7.8221    3.0922   -0.0000 C   0  0  0  0  0  0  0  0  0  0  0  0
    1.3102    5.3065   -0.0000 N   0  0  0  0  0  0  0  0  0  0  0  0
    2.5026    7.3767   -0.0000 N   0  0  0  0  0  0  0  0  0  0  0  0
   -7.6780    8.7262   -0.0000 O   0  0  0  0  0  0  0  0  0  0  0  0
   -8.2283   10.7571   -0.0000 O   0  0  0  0  0  0  0  0  0  0  0  0
   -6.9443   11.5039   -0.0000 C   0  0  0  0  0  0  0  0  0  0  0  0
   -9.1193    2.3715   -0.0000 Cl  0  0  0  0  0  0  0  0  0  0  0  0
    2.7384    5.0051   -0.0000 O   0  0  0  0  0  0  0  0  0  0  0  0
    3.4721    6.2892   -0.0000 C   0  0  0  0  0  0  0  0  0  0  0  0
   -5.6733   12.2770   -0.0000 C   0  0  0  0  0  0  0  0  0  0  0  0
   -8.2545   12.2508   -0.0000 C   0  0  0  0  0  0  0  0  0  0  0  0
   -6.9705   13.0107   -0.0000 C   0  0  0  0  0  0  0  0  0  0  0  0
    4.9396    6.4595   -0.0000 O   0  0  0  0  0  0  0  0  0  0  0  0
  1  2  1  0  0  0  0
  2  3  2  0  0  0  0
  2  4  1  0  0  0  0
  3  5  1  0  0  0  0
  4  6  2  0  0  0  0
  5  7  2  0  0  0  0
  8  5  1  6  0  0  0
  8  9  1  0  0  0  0
  8 10  1  0  0  0  0
  9 11  1  0  0  0  0
  9 12  1  1  0  0  0
 10 13  1  0  0  0  0
 11 14  1  0  0  0  0
 15 11  1  1  0  0  0
 12 16  2  0  0  0  0
 12 17  1  0  0  0  0
 13 18  1  0  0  0  0
 13 19  1  6  0  0  0
 14 20  2  0  0  0  0
 15 21  1  0  0  0  0
 15 22  1  0  0  0  0
 16 23  1  0  0  0  0
 17 24  2  0  0  0  0
 18 25  1  0  0  0  0
 21 26  1  0  0  0  0
 22 27  1  0  0  0  0
 23 28  2  0  0  0  0
 25 29  2  0  0  0  0
 25 30  1  0  0  0  0
 26 31  2  0  0  0  0
 26 32  2  0  0  0  0
 26 33  1  0  0  0  0
 28 34  1  0  0  0  0
 29 35  1  0  0  0  0
 30 36  1  0  0  0  0
 33 37  1  0  0  0  0
 33 38  1  0  0  0  0
 33 39  1  0  0  0  0
 36 40  2  0  0  0  0
  6  7  1  0  0  0  0
 13 14  1  0  0  0  0
 24 28  1  0  0  0  0
 35 36  1  0  0  0  0
M  END
>  <MolRegNo>
1734891

>  <m>
=

>  <Value>
1200

>  <Unit>
nM

>  <Type>
IC50

>  <pValue>
5.92

>  <Ligand Efficiency>
0

>  <Binding Efficiency>
0

>  <Surface Efficiency>
0

>  <Assay Index>
844155

>  <Assay Category>


>  <Assay Organism>
Homo sapiens

>  <Target ID>
17045

>  <Target Name>
Cytochrome P450 3A4

>  <Target Organism>
Homo sapiens

>  <Target Description>
Target is a single protein chain

>  <Sequence Accession>
P08684

>  <Reference>
J Med Chem 57 (7), 2963-2988 (2014)

>  <Pubmed ID>
24601644

>  <DOI>
10.1021/jm401911v

$$$$
1734892
Actelion Java MolfileCreator 1.0

 44 46  0  0  0  0  0  0  0  0999 V2000
    0.0000   -0.0000   -0.0000 Cl  0  0  0  0  0  0  0  0  0  0  0  0
   -1.2967    0.7597   -0.0000 C   0  0  0  0  0  0  0  0  0  0  0  0
   -1.3098    2.2529   -0.0000 C   0  0  0  0  0  0  0  0  0  0  0  0
   -2.5935    0.0262   -0.0000 C   0  0  0  0  0  0  0  0  0  0  0  0
   -2.6066    3.0126   -0.0000 C   0  0  0  0  0  0  0  0  0  0  0  0
   -3.8902    0.7859   -0.0000 C   0  0  0  0  0  0  0  0  0  0  0  0
   -3.9033    2.2791   -0.0000 C   0  0  0  0  0  0  0  0  0  0  0  0
   -2.6197    4.5059   -0.0000 C   0  0  0  0  0  0  0  0  0  0  0  0
   -3.9164    5.2656   -0.0000 C   0  0  0  0  0  0  0  0  0  0  0  0
   -1.3491    5.2656   -0.0000 C   0  0  0  0  0  0  0  0  0  0  0  0
   -3.9295    6.7588   -0.0000 N   0  0  0  0  0  0  0  0  0  0  0  0
   -5.2132    4.5321   -0.0000 C   0  0  0  0  0  0  0  0  0  0  0  0
   -1.3622    6.7588   -0.0000 C   0  0  0  0  0  0  0  0  0  0  0  0
   -2.6590    7.5185   -0.0000 C   0  0  0  0  0  0  0  0  0  0  0  0
   -5.6061    7.7412   -0.0000 C   0  0  0  0  0  0  0  0  0  0  0  0
   -5.2263    3.0650   -0.0000 C   0  0  0  0  0  0  0  0  0  0  0  0
   -6.5099    5.2918   -0.0000 C   0  0  0  0  0  0  0  0  0  0  0  0
   -0.0786    7.5054   -0.0000 C   0  0  0  0  0  0  0  0  0  0  0  0
   -1.3884    8.2651   -0.0000 C   0  0  0  0  0  0  0  0  0  0  0  0
   -2.6721    9.0117   -0.0000 O   0  0  0  0  0  0  0  0  0  0  0  0
   -5.6192    9.2344   -0.0000 C   0  0  0  0  0  0  0  0  0  0  0  0
   -6.9029    7.0208   -0.0000 C   0  0  0  0  0  0  0  0  0  0  0  0
   -6.5230    2.3315   -0.0000 C   0  0  0  0  0  0  0  0  0  0  0  0
   -7.8067    4.5583   -0.0000 C   0  0  0  0  0  0  0  0  0  0  0  0
    1.1920    6.7719   -0.0000 C   0  0  0  0  0  0  0  0  0  0  0  0
   -6.9160    9.9941   -0.0000 S   0  0  0  0  0  0  0  0  0  0  0  0
   -8.1996    7.7805   -0.0000 C   0  0  0  0  0  0  0  0  0  0  0  0
   -7.8198    3.0912   -0.0000 C   0  0  0  0  0  0  0  0  0  0  0  0
    1.1658    5.2918   -0.0000 O   0  0  0  0  0  0  0  0  0  0  0  0
    2.4756    7.5185   -0.0000 N   0  0  0  0  0  0  0  0  0  0  0  0
   -7.6757    8.7236   -0.0000 O   0  0  0  0  0  0  0  0  0  0  0  0
   -8.2258   10.7538   -0.0000 O   0  0  0  0  0  0  0  0  0  0  0  0
   -6.9422   11.5004   -0.0000 C   0  0  0  0  0  0  0  0  0  0  0  0
   -9.1165    2.3708   -0.0000 Cl  0  0  0  0  0  0  0  0  0  0  0  0
    3.7462    6.7850   -0.0000 S   0  0  0  0  0  0  0  0  0  0  0  0
   -5.6716   12.2732   -0.0000 C   0  0  0  0  0  0  0  0  0  0  0  0
   -8.2520   12.2470   -0.0000 C   0  0  0  0  0  0  0  0  0  0  0  0
   -6.9684   13.0068   -0.0000 C   0  0  0  0  0  0  0  0  0  0  0  0
    2.9733    5.5144   -0.0000 O   0  0  0  0  0  0  0  0  0  0  0  0
    4.4666    5.5144   -0.0000 O   0  0  0  0  0  0  0  0  0  0  0  0
    5.0298    7.5316   -0.0000 C   0  0  0  0  0  0  0  0  0  0  0  0
    6.3004    6.7981   -0.0000 F   0  0  0  0  0  0  0  0  0  0  0  0
    5.0298    9.0248   -0.0000 F   0  0  0  0  0  0  0  0  0  0  0  0
    6.3004    8.2913   -0.0000 F   0  0  0  0  0  0  0  0  0  0  0  0
  1  2  1  0  0  0  0
  2  3  2  0  0  0  0
  2  4  1  0  0  0  0
  3  5  1  0  0  0  0
  4  6  2  0  0  0  0
  5  7  2  0  0  0  0
  8  5  1  6  0  0  0
  8  9  1  0  0  0  0
  8 10  1  0  0  0  0
  9 11  1  0  0  0  0
  9 12  1  1  0  0  0
 10 13  1  0  0  0  0
 11 14  1  0  0  0  0
 15 11  1  1  0  0  0
 12 16  2  0  0  0  0
 12 17  1  0  0  0  0
 13 18  1  0  0  0  0
 13 19  1  6  0  0  0
 14 20  2  0  0  0  0
 15 21  1  0  0  0  0
 15 22  1  0  0  0  0
 16 23  1  0  0  0  0
 17 24  2  0  0  0  0
 18 25  1  0  0  0  0
 21 26  1  0  0  0  0
 22 27  1  0  0  0  0
 23 28  2  0  0  0  0
 25 29  2  0  0  0  0
 25 30  1  0  0  0  0
 26 31  2  0  0  0  0
 26 32  2  0  0  0  0
 26 33  1  0  0  0  0
 28 34  1  0  0  0  0
 30 35  1  0  0  0  0
 33 36  1  0  0  0  0
 33 37  1  0  0  0  0
 33 38  1  0  0  0  0
 35 39  2  0  0  0  0
 35 40  2  0  0  0  0
 35 41  1  0  0  0  0
 41 42  1  0  0  0  0
 41 43  1  0  0  0  0
 41 44  1  0  0  0  0
  6  7  1  0  0  0  0
 13 14  1  0  0  0  0
 24 28  1  0  0  0  0
M  END
>  <MolRegNo>
1734892

>  <m>
=

>  <Value>
3800

>  <Unit>
nM

>  <Type>
IC50

>  <pValue>
5.42

>  <Ligand Efficiency>
0

>  <Binding Efficiency>
0

>  <Surface Efficiency>
0

>  <Assay Index>
844155

>  <Assay Category>


>  <Assay Organism>
Homo sapiens

>  <Target ID>
17045

>  <Target Name>
Cytochrome P450 3A4

>  <Target Organism>
Homo sapiens

>  <Target Description>
Target is a single protein chain

>  <Sequence Accession>
P08684

>  <Reference>
J Med Chem 57 (7), 2963-2988 (2014)

>  <Pubmed ID>
24601644

>  <DOI>
10.1021/jm401911v

$$$$
1734894
Actelion Java MolfileCreator 1.0

 38 40  0  0  0  0  0  0  0  0999 V2000
    0.0000   -0.0000   -0.0000 Cl  0  0  0  0  0  0  0  0  0  0  0  0
   -1.2938    0.7580   -0.0000 C   0  0  0  0  0  0  0  0  0  0  0  0
   -1.3068    2.2478   -0.0000 C   0  0  0  0  0  0  0  0  0  0  0  0
   -2.5875    0.0261   -0.0000 C   0  0  0  0  0  0  0  0  0  0  0  0
   -2.6006    3.0057   -0.0000 C   0  0  0  0  0  0  0  0  0  0  0  0
   -3.8813    0.7841   -0.0000 C   0  0  0  0  0  0  0  0  0  0  0  0
   -3.8944    2.2739   -0.0000 C   0  0  0  0  0  0  0  0  0  0  0  0
   -2.6137    4.4955   -0.0000 C   0  0  0  0  0  0  0  0  0  0  0  0
   -3.9074    5.2535   -0.0000 C   0  0  0  0  0  0  0  0  0  0  0  0
   -1.3460    5.2535   -0.0000 C   0  0  0  0  0  0  0  0  0  0  0  0
   -3.9205    6.7433   -0.0000 N   0  0  0  0  0  0  0  0  0  0  0  0
   -5.2012    4.5217   -0.0000 C   0  0  0  0  0  0  0  0  0  0  0  0
   -1.3591    6.7433   -0.0000 C   0  0  0  0  0  0  0  0  0  0  0  0
   -2.6529    7.5013   -0.0000 C   0  0  0  0  0  0  0  0  0  0  0  0
   -5.5933    7.7234   -0.0000 C   0  0  0  0  0  0  0  0  0  0  0  0
   -5.2143    3.0580   -0.0000 C   0  0  0  0  0  0  0  0  0  0  0  0
   -6.4950    5.2796   -0.0000 C   0  0  0  0  0  0  0  0  0  0  0  0
   -0.0784    7.4882   -0.0000 C   0  0  0  0  0  0  0  0  0  0  0  0
   -1.3852    8.2462   -0.0000 C   0  0  0  0  0  0  0  0  0  0  0  0
   -2.6660    8.9911   -0.0000 O   0  0  0  0  0  0  0  0  0  0  0  0
   -5.6063    9.2132   -0.0000 C   0  0  0  0  0  0  0  0  0  0  0  0
   -6.8870    7.0047   -0.0000 C   0  0  0  0  0  0  0  0  0  0  0  0
   -6.5081    2.3262   -0.0000 C   0  0  0  0  0  0  0  0  0  0  0  0
   -7.7888    4.5478   -0.0000 C   0  0  0  0  0  0  0  0  0  0  0  0
    1.1892    6.7564   -0.0000 C   0  0  0  0  0  0  0  0  0  0  0  0
   -6.9001    9.9712   -0.0000 S   0  0  0  0  0  0  0  0  0  0  0  0
   -8.1939    7.7626   -0.0000 C   0  0  0  0  0  0  0  0  0  0  0  0
   -7.8018    3.0841   -0.0000 C   0  0  0  0  0  0  0  0  0  0  0  0
    1.1631    5.2796   -0.0000 O   0  0  0  0  0  0  0  0  0  0  0  0
    2.4699    7.5013   -0.0000 C   0  0  0  0  0  0  0  0  0  0  0  0
   -7.6581    8.7035   -0.0000 O   0  0  0  0  0  0  0  0  0  0  0  0
   -8.2069   10.7291   -0.0000 O   0  0  0  0  0  0  0  0  0  0  0  0
   -6.9262   11.4740   -0.0000 C   0  0  0  0  0  0  0  0  0  0  0  0
   -9.0956    2.3654   -0.0000 Cl  0  0  0  0  0  0  0  0  0  0  0  0
    3.7376    6.7694   -0.0000 O   0  0  0  0  0  0  0  0  0  0  0  0
   -5.6586   12.2451   -0.0000 C   0  0  0  0  0  0  0  0  0  0  0  0
   -8.2331   12.2189   -0.0000 C   0  0  0  0  0  0  0  0  0  0  0  0
   -6.9524   12.9769   -0.0000 C   0  0  0  0  0  0  0  0  0  0  0  0
  1  2  1  0  0  0  0
  2  3  2  0  0  0  0
  2  4  1  0  0  0  0
  3  5  1  0  0  0  0
  4  6  2  0  0  0  0
  5  7  2  0  0  0  0
  8  5  1  6  0  0  0
  8  9  1  0  0  0  0
  8 10  1  0  0  0  0
  9 11  1  0  0  0  0
  9 12  1  1  0  0  0
 10 13  1  0  0  0  0
 11 14  1  0  0  0  0
 15 11  1  1  0  0  0
 12 16  2  0  0  0  0
 12 17  1  0  0  0  0
 13 18  1  0  0  0  0
 13 19  1  6  0  0  0
 14 20  2  0  0  0  0
 15 21  1  0  0  0  0
 15 22  1  0  0  0  0
 16 23  1  0  0  0  0
 17 24  2  0  0  0  0
 18 25  1  0  0  0  0
 21 26  1  0  0  0  0
 22 27  1  0  0  0  0
 23 28  2  0  0  0  0
 25 29  2  0  0  0  0
 25 30  1  0  0  0  0
 26 31  2  0  0  0  0
 26 32  2  0  0  0  0
 26 33  1  0  0  0  0
 28 34  1  0  0  0  0
 30 35  1  0  0  0  0
 33 36  1  0  0  0  0
 33 37  1  0  0  0  0
 33 38  1  0  0  0  0
  6  7  1  0  0  0  0
 13 14  1  0  0  0  0
 24 28  1  0  0  0  0
M  END
>  <MolRegNo>
1734894

>  <m>
=

>  <Value>
700

>  <Unit>
nM

>  <Type>
IC50

>  <pValue>
6.16

>  <Ligand Efficiency>
0

>  <Binding Efficiency>
0

>  <Surface Efficiency>
0

>  <Assay Index>
844155

>  <Assay Category>


>  <Assay Organism>
Homo sapiens

>  <Target ID>
17045

>  <Target Name>
Cytochrome P450 3A4

>  <Target Organism>
Homo sapiens

>  <Target Description>
Target is a single protein chain

>  <Sequence Accession>
P08684

>  <Reference>
J Med Chem 57 (7), 2963-2988 (2014)

>  <Pubmed ID>
24601644

>  <DOI>
10.1021/jm401911v

$$$$
1734895
Actelion Java MolfileCreator 1.0

 37 39  0  0  0  0  0  0  0  0999 V2000
    0.0000   -0.0000   -0.0000 Cl  0  0  0  0  0  0  0  0  0  0  0  0
   -1.2932    0.7576   -0.0000 C   0  0  0  0  0  0  0  0  0  0  0  0
   -1.3063    2.2468   -0.0000 C   0  0  0  0  0  0  0  0  0  0  0  0
   -2.5864    0.0261   -0.0000 C   0  0  0  0  0  0  0  0  0  0  0  0
   -2.5995    3.0044   -0.0000 C   0  0  0  0  0  0  0  0  0  0  0  0
   -3.8797    0.7838   -0.0000 C   0  0  0  0  0  0  0  0  0  0  0  0
   -3.8927    2.2729   -0.0000 C   0  0  0  0  0  0  0  0  0  0  0  0
   -2.6126    4.4936   -0.0000 C   0  0  0  0  0  0  0  0  0  0  0  0
   -3.9058    5.2512   -0.0000 C   0  0  0  0  0  0  0  0  0  0  0  0
   -1.3455    5.2512   -0.0000 C   0  0  0  0  0  0  0  0  0  0  0  0
   -3.9188    6.7404   -0.0000 N   0  0  0  0  0  0  0  0  0  0  0  0
   -5.1990    4.5197   -0.0000 C   0  0  0  0  0  0  0  0  0  0  0  0
   -1.3585    6.7404   -0.0000 C   0  0  0  0  0  0  0  0  0  0  0  0
   -2.6518    7.4981   -0.0000 C   0  0  0  0  0  0  0  0  0  0  0  0
   -5.5909    7.7201   -0.0000 C   0  0  0  0  0  0  0  0  0  0  0  0
   -5.2121    3.0567   -0.0000 C   0  0  0  0  0  0  0  0  0  0  0  0
   -6.4922    5.2774   -0.0000 C   0  0  0  0  0  0  0  0  0  0  0  0
   -0.0784    7.4850   -0.0000 C   0  0  0  0  0  0  0  0  0  0  0  0
   -1.3847    8.2426   -0.0000 C   0  0  0  0  0  0  0  0  0  0  0  0
   -2.6648    8.9872   -0.0000 O   0  0  0  0  0  0  0  0  0  0  0  0
   -5.6039    9.2093   -0.0000 C   0  0  0  0  0  0  0  0  0  0  0  0
   -6.8841    7.0017   -0.0000 C   0  0  0  0  0  0  0  0  0  0  0  0
   -6.5053    2.3252   -0.0000 C   0  0  0  0  0  0  0  0  0  0  0  0
   -7.7854    4.5459   -0.0000 C   0  0  0  0  0  0  0  0  0  0  0  0
    1.1887    6.7535   -0.0000 C   0  0  0  0  0  0  0  0  0  0  0  0
   -6.8972    9.9669   -0.0000 S   0  0  0  0  0  0  0  0  0  0  0  0
   -8.1773    7.7593   -0.0000 C   0  0  0  0  0  0  0  0  0  0  0  0
   -7.7985    3.0828   -0.0000 C   0  0  0  0  0  0  0  0  0  0  0  0
    1.1626    5.2774   -0.0000 O   0  0  0  0  0  0  0  0  0  0  0  0
    2.4689    7.4981   -0.0000 N   0  0  0  0  0  0  0  0  0  0  0  0
   -7.6548    8.6998   -0.0000 O   0  0  0  0  0  0  0  0  0  0  0  0
   -8.2034   10.7246   -0.0000 O   0  0  0  0  0  0  0  0  0  0  0  0
   -6.9233   11.4691   -0.0000 C   0  0  0  0  0  0  0  0  0  0  0  0
   -9.0917    2.3644   -0.0000 Cl  0  0  0  0  0  0  0  0  0  0  0  0
   -5.6562   12.2399   -0.0000 C   0  0  0  0  0  0  0  0  0  0  0  0
   -8.2296   12.2137   -0.0000 C   0  0  0  0  0  0  0  0  0  0  0  0
   -6.9494   12.9714   -0.0000 C   0  0  0  0  0  0  0  0  0  0  0  0
  1  2  1  0  0  0  0
  2  3  2  0  0  0  0
  2  4  1  0  0  0  0
  3  5  1  0  0  0  0
  4  6  2  0  0  0  0
  5  7  2  0  0  0  0
  8  5  1  6  0  0  0
  8  9  1  0  0  0  0
  8 10  1  0  0  0  0
  9 11  1  0  0  0  0
  9 12  1  1  0  0  0
 10 13  1  0  0  0  0
 11 14  1  0  0  0  0
 15 11  1  1  0  0  0
 12 16  2  0  0  0  0
 12 17  1  0  0  0  0
 13 18  1  0  0  0  0
 13 19  1  6  0  0  0
 14 20  2  0  0  0  0
 15 21  1  0  0  0  0
 15 22  1  0  0  0  0
 16 23  1  0  0  0  0
 17 24  2  0  0  0  0
 18 25  1  0  0  0  0
 21 26  1  0  0  0  0
 22 27  1  0  0  0  0
 23 28  2  0  0  0  0
 25 29  2  0  0  0  0
 25 30  1  0  0  0  0
 26 31  2  0  0  0  0
 26 32  2  0  0  0  0
 26 33  1  0  0  0  0
 28 34  1  0  0  0  0
 33 35  1  0  0  0  0
 33 36  1  0  0  0  0
 33 37  1  0  0  0  0
  6  7  1  0  0  0  0
 13 14  1  0  0  0  0
 24 28  1  0  0  0  0
M  END
>  <MolRegNo>
1734895

>  <m>
=

>  <Value>
1300

>  <Unit>
nM

>  <Type>
IC50

>  <pValue>
5.89

>  <Ligand Efficiency>
0

>  <Binding Efficiency>
0

>  <Surface Efficiency>
0

>  <Assay Index>
844155

>  <Assay Category>


>  <Assay Organism>
Homo sapiens

>  <Target ID>
17045

>  <Target Name>
Cytochrome P450 3A4

>  <Target Organism>
Homo sapiens

>  <Target Description>
Target is a single protein chain

>  <Sequence Accession>
P08684

>  <Reference>
J Med Chem 57 (7), 2963-2988 (2014)

>  <Pubmed ID>
24601644

>  <DOI>
10.1021/jm401911v

$$$$
1734896
Actelion Java MolfileCreator 1.0

 38 41  0  0  1  0  0  0  0  0999 V2000
    0.0000   -0.0000   -0.0000 Cl  0  0  0  0  0  0  0  0  0  0  0  0
   -1.1159   -0.6269   -0.0000 C   0  0  0  0  0  0  0  0  0  0  0  0
   -1.1284   -2.2067   -0.0000 C   0  0  0  0  0  0  0  0  0  0  0  0
   -2.5076    0.1881   -0.0000 C   0  0  0  0  0  0  0  0  0  0  0  0
   -2.5201   -2.9840   -0.0000 C   0  0  0  0  0  0  0  0  0  0  0  0
   -3.8993   -0.5893   -0.0000 C   0  0  0  0  0  0  0  0  0  0  0  0
   -3.9118   -2.1691   -0.0000 C   0  0  0  0  0  0  0  0  0  0  0  0
   -2.5326   -4.5638   -0.0000 C   0  0  0  0  0  0  0  0  0  0  0  0
   -1.1660   -5.3411   -0.0000 C   0  0  0  0  0  0  0  0  0  0  0  0
   -3.9244   -5.3411   -0.0000 C   0  0  0  0  0  0  0  0  0  0  0  0
   -1.1786   -6.9209   -0.0000 N   0  0  0  0  0  0  0  0  0  0  0  0
    0.2006   -4.5387   -0.0000 C   0  0  0  0  0  0  0  0  0  0  0  0
   -3.9369   -6.9209   -0.0000 C   0  0  0  0  0  0  0  0  0  0  0  0
   -2.5703   -7.6983   -0.0000 C   0  0  0  0  0  0  0  0  0  0  0  0
    0.1881   -7.6983   -0.0000 C   0  0  0  0  0  0  0  0  0  0  0  0
    0.1881   -2.9339   -0.0000 C   0  0  0  0  0  0  0  0  0  0  0  0
    1.5672   -5.3286   -0.0000 C   0  0  0  0  0  0  0  0  0  0  0  0
   -5.2910   -6.0934   -0.0000 C   0  0  0  0  0  0  0  0  0  0  0  0
   -3.9244   -8.1872   -0.0000 C   0  0  0  0  0  0  0  0  0  0  0  0
   -2.5828   -8.9646   -0.0000 O   0  0  0  0  0  0  0  0  0  0  0  0
    1.5547   -6.8958   -0.0000 C   0  0  0  0  0  0  0  0  0  0  0  0
    0.1755   -9.2780   -0.0000 C   0  0  0  0  0  0  0  0  0  0  0  0
    1.5547   -2.1314   -0.0000 C   0  0  0  0  0  0  0  0  0  0  0  0
    2.9339   -4.5262   -0.0000 C   0  0  0  0  0  0  0  0  0  0  0  0
   -5.3035   -4.4886   -0.0000 C   0  0  0  0  0  0  0  0  0  0  0  0
    2.2568   -5.5543   -0.0000 C   0  0  0  0  0  0  0  0  0  0  0  0
    3.0467   -6.9334   -0.0000 C   0  0  0  0  0  0  0  0  0  0  0  0
   -1.2162  -10.0554   -0.0000 S   0  0  0  0  0  0  0  0  0  0  0  0
    2.9213   -2.9213   -0.0000 C   0  0  0  0  0  0  0  0  0  0  0  0
   -6.4194   -3.8366   -0.0000 O   0  0  0  0  0  0  0  0  0  0  0  0
   -4.2127   -3.8366   -0.0000 N   0  0  0  0  0  0  0  0  0  0  0  0
   -1.2287   -8.7640   -0.0000 O   0  0  0  0  0  0  0  0  0  0  0  0
   -2.3320   -9.4034   -0.0000 O   0  0  0  0  0  0  0  0  0  0  0  0
   -1.2287  -11.6351   -0.0000 C   0  0  0  0  0  0  0  0  0  0  0  0
    4.0121   -2.2694   -0.0000 Cl  0  0  0  0  0  0  0  0  0  0  0  0
   -2.3446  -12.2620   -0.0000 C   0  0  0  0  0  0  0  0  0  0  0  0
   -1.2412  -12.9015   -0.0000 C   0  0  0  0  0  0  0  0  0  0  0  0
   -0.1379  -12.2620   -0.0000 C   0  0  0  0  0  0  0  0  0  0  0  0
  1  2  1  0  0  0  0
  2  3  2  0  0  0  0
  2  4  1  0  0  0  0
  3  5  1  0  0  0  0
  4  6  2  0  0  0  0
  5  7  2  0  0  0  0
  8  5  1  6  0  0  0
  8  9  1  0  0  0  0
  8 10  1  0  0  0  0
  9 11  1  0  0  0  0
  9 12  1  1  0  0  0
 13 10  1  6  0  0  0
 11 14  1  0  0  0  0
 15 11  1  1  0  0  0
 12 16  2  0  0  0  0
 12 17  1  0  0  0  0
 13 18  1  0  0  0  0
 13 19  1  0  0  0  0
 14 20  2  0  0  0  0
 15 21  1  0  0  0  0
 15 22  1  0  0  0  0
 16 23  1  0  0  0  0
 17 24  2  0  0  0  0
 18 25  1  0  0  0  0
 21 26  1  0  0  0  0
 21 27  1  0  0  0  0
 22 28  1  0  0  0  0
 23 29  2  0  0  0  0
 25 30  2  0  0  0  0
 25 31  1  0  0  0  0
 28 32  2  0  0  0  0
 28 33  2  0  0  0  0
 28 34  1  0  0  0  0
 29 35  1  0  0  0  0
 34 36  1  0  0  0  0
 34 37  1  0  0  0  0
 34 38  1  0  0  0  0
  6  7  1  0  0  0  0
 13 14  1  0  0  0  0
 24 29  1  0  0  0  0
 26 27  1  0  0  0  0
M  END
>  <MolRegNo>
1734896

>  <m>
=

>  <Value>
1200

>  <Unit>
nM

>  <Type>
IC50

>  <pValue>
5.92

>  <Ligand Efficiency>
0

>  <Binding Efficiency>
0

>  <Surface Efficiency>
0

>  <Assay Index>
844155

>  <Assay Category>


>  <Assay Organism>
Homo sapiens

>  <Target ID>
17045

>  <Target Name>
Cytochrome P450 3A4

>  <Target Organism>
Homo sapiens

>  <Target Description>
Target is a single protein chain

>  <Sequence Accession>
P08684

>  <Reference>
J Med Chem 57 (7), 2963-2988 (2014)

>  <Pubmed ID>
24601644

>  <DOI>
10.1021/jm401911v

$$$$
1734897
Actelion Java MolfileCreator 1.0

 39 42  0  0  0  0  0  0  0  0999 V2000
    0.0000   -0.0000   -0.0000 Cl  0  0  0  0  0  0  0  0  0  0  0  0
   -1.2956    0.7591   -0.0000 C   0  0  0  0  0  0  0  0  0  0  0  0
   -1.3087    2.2510   -0.0000 C   0  0  0  0  0  0  0  0  0  0  0  0
   -2.5913    0.0262   -0.0000 C   0  0  0  0  0  0  0  0  0  0  0  0
   -2.6044    3.0101   -0.0000 C   0  0  0  0  0  0  0  0  0  0  0  0
   -3.8869    0.7852   -0.0000 C   0  0  0  0  0  0  0  0  0  0  0  0
   -3.9000    2.2772   -0.0000 C   0  0  0  0  0  0  0  0  0  0  0  0
   -2.6175    4.5020   -0.0000 C   0  0  0  0  0  0  0  0  0  0  0  0
   -3.9131    5.2611   -0.0000 C   0  0  0  0  0  0  0  0  0  0  0  0
   -1.3480    5.2611   -0.0000 C   0  0  0  0  0  0  0  0  0  0  0  0
   -3.9262    6.7531   -0.0000 N   0  0  0  0  0  0  0  0  0  0  0  0
   -5.2088    4.5282   -0.0000 C   0  0  0  0  0  0  0  0  0  0  0  0
   -1.3611    6.7531   -0.0000 C   0  0  0  0  0  0  0  0  0  0  0  0
   -2.6567    7.5121   -0.0000 C   0  0  0  0  0  0  0  0  0  0  0  0
   -5.6014    7.7346   -0.0000 C   0  0  0  0  0  0  0  0  0  0  0  0
   -5.2219    3.0624   -0.0000 C   0  0  0  0  0  0  0  0  0  0  0  0
   -6.5044    5.2873   -0.0000 C   0  0  0  0  0  0  0  0  0  0  0  0
   -0.0785    7.4991   -0.0000 C   0  0  0  0  0  0  0  0  0  0  0  0
   -1.3873    8.2581   -0.0000 C   0  0  0  0  0  0  0  0  0  0  0  0
   -2.6698    9.0041   -0.0000 O   0  0  0  0  0  0  0  0  0  0  0  0
   -6.8970    7.0148   -0.0000 C   0  0  0  0  0  0  0  0  0  0  0  0
   -5.6145    9.2266   -0.0000 C   0  0  0  0  0  0  0  0  0  0  0  0
   -6.5175    2.3295   -0.0000 C   0  0  0  0  0  0  0  0  0  0  0  0
   -7.8001    4.5544   -0.0000 C   0  0  0  0  0  0  0  0  0  0  0  0
    1.1909    6.7662   -0.0000 S   0  0  0  0  0  0  0  0  0  0  0  0
   -8.3890    7.0279   -0.0000 C   0  0  0  0  0  0  0  0  0  0  0  0
   -7.6430    5.7453   -0.0000 C   0  0  0  0  0  0  0  0  0  0  0  0
   -6.9101    9.9856   -0.0000 S   0  0  0  0  0  0  0  0  0  0  0  0
   -7.8131    3.0886   -0.0000 C   0  0  0  0  0  0  0  0  0  0  0  0
    0.4188    5.5098   -0.0000 O   0  0  0  0  0  0  0  0  0  0  0  0
    1.9108    5.5098   -0.0000 O   0  0  0  0  0  0  0  0  0  0  0  0
    2.4735    7.5121   -0.0000 N   0  0  0  0  0  0  0  0  0  0  0  0
   -7.6692    8.7162   -0.0000 O   0  0  0  0  0  0  0  0  0  0  0  0
   -8.2189   10.7447   -0.0000 O   0  0  0  0  0  0  0  0  0  0  0  0
   -6.9363   11.4907   -0.0000 C   0  0  0  0  0  0  0  0  0  0  0  0
   -9.1088    2.3688   -0.0000 Cl  0  0  0  0  0  0  0  0  0  0  0  0
   -5.6668   12.2628   -0.0000 C   0  0  0  0  0  0  0  0  0  0  0  0
   -8.2450   12.2367   -0.0000 C   0  0  0  0  0  0  0  0  0  0  0  0
   -6.9625   12.9957   -0.0000 C   0  0  0  0  0  0  0  0  0  0  0  0
  1  2  1  0  0  0  0
  2  3  2  0  0  0  0
  2  4  1  0  0  0  0
  3  5  1  0  0  0  0
  4  6  2  0  0  0  0
  5  7  2  0  0  0  0
  8  5  1  6  0  0  0
  8  9  1  0  0  0  0
  8 10  1  0  0  0  0
  9 11  1  0  0  0  0
  9 12  1  1  0  0  0
 10 13  1  0  0  0  0
 11 14  1  0  0  0  0
 15 11  1  1  0  0  0
 12 16  2  0  0  0  0
 12 17  1  0  0  0  0
 13 18  1  0  0  0  0
 13 19  1  6  0  0  0
 14 20  2  0  0  0  0
 15 21  1  0  0  0  0
 15 22  1  0  0  0  0
 16 23  1  0  0  0  0
 17 24  2  0  0  0  0
 18 25  1  0  0  0  0
 21 26  1  0  0  0  0
 21 27  1  0  0  0  0
 22 28  1  0  0  0  0
 23 29  2  0  0  0  0
 25 30  2  0  0  0  0
 25 31  2  0  0  0  0
 25 32  1  0  0  0  0
 28 33  2  0  0  0  0
 28 34  2  0  0  0  0
 28 35  1  0  0  0  0
 29 36  1  0  0  0  0
 35 37  1  0  0  0  0
 35 38  1  0  0  0  0
 35 39  1  0  0  0  0
  6  7  1  0  0  0  0
 13 14  1  0  0  0  0
 24 29  1  0  0  0  0
 26 27  1  0  0  0  0
M  END
>  <MolRegNo>
1734897

>  <m>
=

>  <Value>
500

>  <Unit>
nM

>  <Type>
IC50

>  <pValue>
6.3

>  <Ligand Efficiency>
0

>  <Binding Efficiency>
0

>  <Surface Efficiency>
0

>  <Assay Index>
844155

>  <Assay Category>


>  <Assay Organism>
Homo sapiens

>  <Target ID>
17045

>  <Target Name>
Cytochrome P450 3A4

>  <Target Organism>
Homo sapiens

>  <Target Description>
Target is a single protein chain

>  <Sequence Accession>
P08684

>  <Reference>
J Med Chem 57 (7), 2963-2988 (2014)

>  <Pubmed ID>
24601644

>  <DOI>
10.1021/jm401911v

$$$$
1735172
Actelion Java MolfileCreator 1.0

 41 45  0  0  0  0  0  0  0  0999 V2000
    0.0000   -0.0000   -0.0000 Cl  0  0  0  0  0  0  0  0  0  0  0  0
   -1.2969    0.7598   -0.0000 C   0  0  0  0  0  0  0  0  0  0  0  0
   -1.3100    2.2533   -0.0000 C   0  0  0  0  0  0  0  0  0  0  0  0
   -2.5939    0.0262   -0.0000 C   0  0  0  0  0  0  0  0  0  0  0  0
   -2.6070    3.0131   -0.0000 C   0  0  0  0  0  0  0  0  0  0  0  0
   -3.8908    0.7860   -0.0000 C   0  0  0  0  0  0  0  0  0  0  0  0
   -3.9039    2.2795   -0.0000 C   0  0  0  0  0  0  0  0  0  0  0  0
   -2.6201    4.5065   -0.0000 C   0  0  0  0  0  0  0  0  0  0  0  0
   -3.9170    5.2663   -0.0000 C   0  0  0  0  0  0  0  0  0  0  0  0
   -1.3493    5.2663   -0.0000 C   0  0  0  0  0  0  0  0  0  0  0  0
   -3.9301    6.7598   -0.0000 N   0  0  0  0  0  0  0  0  0  0  0  0
   -5.2139    4.5327   -0.0000 C   0  0  0  0  0  0  0  0  0  0  0  0
   -1.3624    6.7598   -0.0000 C   0  0  0  0  0  0  0  0  0  0  0  0
   -2.6594    7.5196   -0.0000 C   0  0  0  0  0  0  0  0  0  0  0  0
   -5.6069    7.7423   -0.0000 C   0  0  0  0  0  0  0  0  0  0  0  0
   -5.2270    3.0655   -0.0000 C   0  0  0  0  0  0  0  0  0  0  0  0
   -6.5109    5.2925   -0.0000 C   0  0  0  0  0  0  0  0  0  0  0  0
   -0.0786    7.5065   -0.0000 C   0  0  0  0  0  0  0  0  0  0  0  0
   -1.3886    8.2663   -0.0000 C   0  0  0  0  0  0  0  0  0  0  0  0
   -2.6725    9.0130   -0.0000 O   0  0  0  0  0  0  0  0  0  0  0  0
   -6.9039    7.0218   -0.0000 C   0  0  0  0  0  0  0  0  0  0  0  0
   -5.6200    9.2357   -0.0000 C   0  0  0  0  0  0  0  0  0  0  0  0
   -6.5240    2.3319   -0.0000 C   0  0  0  0  0  0  0  0  0  0  0  0
   -7.8078    4.5589   -0.0000 C   0  0  0  0  0  0  0  0  0  0  0  0
    1.1921    6.7729   -0.0000 C   0  0  0  0  0  0  0  0  0  0  0  0
   -8.3973    7.0349   -0.0000 C   0  0  0  0  0  0  0  0  0  0  0  0
   -7.6506    5.7510   -0.0000 C   0  0  0  0  0  0  0  0  0  0  0  0
   -6.9170    9.9956   -0.0000 S   0  0  0  0  0  0  0  0  0  0  0  0
   -7.8209    3.0917   -0.0000 C   0  0  0  0  0  0  0  0  0  0  0  0
    2.4629    7.5327   -0.0000 N   0  0  0  0  0  0  0  0  0  0  0  0
    1.1659    5.3056   -0.0000 C   0  0  0  0  0  0  0  0  0  0  0  0
   -7.6768    8.7248   -0.0000 O   0  0  0  0  0  0  0  0  0  0  0  0
   -8.2270   10.7554   -0.0000 O   0  0  0  0  0  0  0  0  0  0  0  0
   -6.9432   11.5021   -0.0000 C   0  0  0  0  0  0  0  0  0  0  0  0
   -9.1178    2.3712   -0.0000 Cl  0  0  0  0  0  0  0  0  0  0  0  0
    3.7336    6.7991   -0.0000 C   0  0  0  0  0  0  0  0  0  0  0  0
    2.4367    4.5720   -0.0000 C   0  0  0  0  0  0  0  0  0  0  0  0
   -5.6724   12.2750   -0.0000 C   0  0  0  0  0  0  0  0  0  0  0  0
   -8.2532   12.2488   -0.0000 C   0  0  0  0  0  0  0  0  0  0  0  0
   -6.9694   13.0086   -0.0000 C   0  0  0  0  0  0  0  0  0  0  0  0
    3.7205    5.3187   -0.0000 C   0  0  0  0  0  0  0  0  0  0  0  0
  1  2  1  0  0  0  0
  2  3  2  0  0  0  0
  2  4  1  0  0  0  0
  3  5  1  0  0  0  0
  4  6  2  0  0  0  0
  5  7  2  0  0  0  0
  8  5  1  6  0  0  0
  8  9  1  0  0  0  0
  8 10  1  0  0  0  0
  9 11  1  0  0  0  0
  9 12  1  1  0  0  0
 10 13  1  0  0  0  0
 11 14  1  0  0  0  0
 15 11  1  1  0  0  0
 12 16  2  0  0  0  0
 12 17  1  0  0  0  0
 13 18  1  0  0  0  0
 13 19  1  6  0  0  0
 14 20  2  0  0  0  0
 15 21  1  0  0  0  0
 15 22  1  0  0  0  0
 16 23  1  0  0  0  0
 17 24  2  0  0  0  0
 18 25  1  0  0  0  0
 21 26  1  0  0  0  0
 21 27  1  0  0  0  0
 22 28  1  0  0  0  0
 23 29  2  0  0  0  0
 25 30  2  0  0  0  0
 25 31  1  0  0  0  0
 28 32  2  0  0  0  0
 28 33  2  0  0  0  0
 28 34  1  0  0  0  0
 29 35  1  0  0  0  0
 30 36  1  0  0  0  0
 31 37  2  0  0  0  0
 34 38  1  0  0  0  0
 34 39  1  0  0  0  0
 34 40  1  0  0  0  0
 36 41  2  0  0  0  0
  6  7  1  0  0  0  0
 13 14  1  0  0  0  0
 24 29  1  0  0  0  0
 26 27  1  0  0  0  0
 37 41  1  0  0  0  0
M  END
>  <MolRegNo>
1735172

>  <m>
=

>  <Value>
700

>  <Unit>
nM

>  <Type>
IC50

>  <pValue>
6.16

>  <Ligand Efficiency>
0

>  <Binding Efficiency>
0

>  <Surface Efficiency>
0

>  <Assay Index>
844155

>  <Assay Category>


>  <Assay Organism>
Homo sapiens

>  <Target ID>
17045

>  <Target Name>
Cytochrome P450 3A4

>  <Target Organism>
Homo sapiens

>  <Target Description>
Target is a single protein chain

>  <Sequence Accession>
P08684

>  <Reference>
J Med Chem 57 (7), 2963-2988 (2014)

>  <Pubmed ID>
24601644

>  <DOI>
10.1021/jm401911v

$$$$
1735173
Actelion Java MolfileCreator 1.0

 41 45  0  0  0  0  0  0  0  0999 V2000
    0.0000   -0.0000   -0.0000 Cl  0  0  0  0  0  0  0  0  0  0  0  0
   -1.2969    0.7598   -0.0000 C   0  0  0  0  0  0  0  0  0  0  0  0
   -1.3100    2.2533   -0.0000 C   0  0  0  0  0  0  0  0  0  0  0  0
   -2.5939    0.0262   -0.0000 C   0  0  0  0  0  0  0  0  0  0  0  0
   -2.6070    3.0131   -0.0000 C   0  0  0  0  0  0  0  0  0  0  0  0
   -3.8908    0.7860   -0.0000 C   0  0  0  0  0  0  0  0  0  0  0  0
   -3.9039    2.2795   -0.0000 C   0  0  0  0  0  0  0  0  0  0  0  0
   -2.6201    4.5065   -0.0000 C   0  0  0  0  0  0  0  0  0  0  0  0
   -3.9170    5.2663   -0.0000 C   0  0  0  0  0  0  0  0  0  0  0  0
   -1.3493    5.2663   -0.0000 C   0  0  0  0  0  0  0  0  0  0  0  0
   -3.9301    6.7598   -0.0000 N   0  0  0  0  0  0  0  0  0  0  0  0
   -5.2139    4.5327   -0.0000 C   0  0  0  0  0  0  0  0  0  0  0  0
   -1.3624    6.7598   -0.0000 C   0  0  0  0  0  0  0  0  0  0  0  0
   -2.6594    7.5196   -0.0000 C   0  0  0  0  0  0  0  0  0  0  0  0
   -5.6069    7.7423   -0.0000 C   0  0  0  0  0  0  0  0  0  0  0  0
   -5.2270    3.0655   -0.0000 C   0  0  0  0  0  0  0  0  0  0  0  0
   -6.5109    5.2925   -0.0000 C   0  0  0  0  0  0  0  0  0  0  0  0
   -0.0786    7.5065   -0.0000 C   0  0  0  0  0  0  0  0  0  0  0  0
   -1.3886    8.2663   -0.0000 C   0  0  0  0  0  0  0  0  0  0  0  0
   -2.6725    9.0130   -0.0000 O   0  0  0  0  0  0  0  0  0  0  0  0
   -6.9039    7.0218   -0.0000 C   0  0  0  0  0  0  0  0  0  0  0  0
   -5.6200    9.2357   -0.0000 C   0  0  0  0  0  0  0  0  0  0  0  0
   -6.5240    2.3319   -0.0000 C   0  0  0  0  0  0  0  0  0  0  0  0
   -7.8078    4.5589   -0.0000 C   0  0  0  0  0  0  0  0  0  0  0  0
    1.1921    6.7729   -0.0000 C   0  0  0  0  0  0  0  0  0  0  0  0
   -8.3973    7.0349   -0.0000 C   0  0  0  0  0  0  0  0  0  0  0  0
   -7.6506    5.7510   -0.0000 C   0  0  0  0  0  0  0  0  0  0  0  0
   -6.9170    9.9956   -0.0000 S   0  0  0  0  0  0  0  0  0  0  0  0
   -7.8209    3.0917   -0.0000 C   0  0  0  0  0  0  0  0  0  0  0  0
    1.1659    5.3056   -0.0000 C   0  0  0  0  0  0  0  0  0  0  0  0
    2.4629    7.5327   -0.0000 C   0  0  0  0  0  0  0  0  0  0  0  0
   -7.6768    8.7248   -0.0000 O   0  0  0  0  0  0  0  0  0  0  0  0
   -8.2270   10.7554   -0.0000 O   0  0  0  0  0  0  0  0  0  0  0  0
   -6.9432   11.5021   -0.0000 C   0  0  0  0  0  0  0  0  0  0  0  0
   -9.1178    2.3712   -0.0000 Cl  0  0  0  0  0  0  0  0  0  0  0  0
    2.4367    4.5720   -0.0000 C   0  0  0  0  0  0  0  0  0  0  0  0
    3.7336    6.7991   -0.0000 C   0  0  0  0  0  0  0  0  0  0  0  0
   -5.6724   12.2750   -0.0000 C   0  0  0  0  0  0  0  0  0  0  0  0
   -8.2532   12.2488   -0.0000 C   0  0  0  0  0  0  0  0  0  0  0  0
   -6.9694   13.0086   -0.0000 C   0  0  0  0  0  0  0  0  0  0  0  0
    3.7205    5.3187   -0.0000 C   0  0  0  0  0  0  0  0  0  0  0  0
  1  2  1  0  0  0  0
  2  3  2  0  0  0  0
  2  4  1  0  0  0  0
  3  5  1  0  0  0  0
  4  6  2  0  0  0  0
  5  7  2  0  0  0  0
  8  5  1  6  0  0  0
  8  9  1  0  0  0  0
  8 10  1  0  0  0  0
  9 11  1  0  0  0  0
  9 12  1  1  0  0  0
 10 13  1  0  0  0  0
 11 14  1  0  0  0  0
 15 11  1  1  0  0  0
 12 16  2  0  0  0  0
 12 17  1  0  0  0  0
 13 18  1  0  0  0  0
 13 19  1  6  0  0  0
 14 20  2  0  0  0  0
 15 21  1  0  0  0  0
 15 22  1  0  0  0  0
 16 23  1  0  0  0  0
 17 24  2  0  0  0  0
 18 25  1  0  0  0  0
 21 26  1  0  0  0  0
 21 27  1  0  0  0  0
 22 28  1  0  0  0  0
 23 29  2  0  0  0  0
 25 30  2  0  0  0  0
 25 31  1  0  0  0  0
 28 32  2  0  0  0  0
 28 33  2  0  0  0  0
 28 34  1  0  0  0  0
 29 35  1  0  0  0  0
 30 36  1  0  0  0  0
 31 37  2  0  0  0  0
 34 38  1  0  0  0  0
 34 39  1  0  0  0  0
 34 40  1  0  0  0  0
 36 41  2  0  0  0  0
  6  7  1  0  0  0  0
 13 14  1  0  0  0  0
 24 29  1  0  0  0  0
 26 27  1  0  0  0  0
 37 41  1  0  0  0  0
M  END
>  <MolRegNo>
1735173

>  <m>
=

>  <Value>
1700

>  <Unit>
nM

>  <Type>
IC50

>  <pValue>
5.77

>  <Ligand Efficiency>
0

>  <Binding Efficiency>
0

>  <Surface Efficiency>
0

>  <Assay Index>
844155

>  <Assay Category>


>  <Assay Organism>
Homo sapiens

>  <Target ID>
17045

>  <Target Name>
Cytochrome P450 3A4

>  <Target Organism>
Homo sapiens

>  <Target Description>
Target is a single protein chain

>  <Sequence Accession>
P08684

>  <Reference>
J Med Chem 57 (7), 2963-2988 (2014)

>  <Pubmed ID>
24601644

>  <DOI>
10.1021/jm401911v

$$$$
1735189
Actelion Java MolfileCreator 1.0

 44 48  0  0  0  0  0  0  0  0999 V2000
    0.0000   -0.0000   -0.0000 Cl  0  0  0  0  0  0  0  0  0  0  0  0
   -1.2971    0.7599   -0.0000 C   0  0  0  0  0  0  0  0  0  0  0  0
   -1.3102    2.2536   -0.0000 C   0  0  0  0  0  0  0  0  0  0  0  0
   -2.5943    0.0262   -0.0000 C   0  0  0  0  0  0  0  0  0  0  0  0
   -2.6074    3.0135   -0.0000 C   0  0  0  0  0  0  0  0  0  0  0  0
   -3.8914    0.7861   -0.0000 C   0  0  0  0  0  0  0  0  0  0  0  0
   -3.9045    2.2798   -0.0000 C   0  0  0  0  0  0  0  0  0  0  0  0
   -2.6205    4.5072   -0.0000 C   0  0  0  0  0  0  0  0  0  0  0  0
   -3.9176    5.2671   -0.0000 C   0  0  0  0  0  0  0  0  0  0  0  0
   -1.3495    5.2671   -0.0000 C   0  0  0  0  0  0  0  0  0  0  0  0
   -3.9307    6.7608   -0.0000 N   0  0  0  0  0  0  0  0  0  0  0  0
   -5.2147    4.5334   -0.0000 C   0  0  0  0  0  0  0  0  0  0  0  0
   -1.3626    6.7608   -0.0000 C   0  0  0  0  0  0  0  0  0  0  0  0
   -2.6598    7.5207   -0.0000 C   0  0  0  0  0  0  0  0  0  0  0  0
   -5.6078    7.7435   -0.0000 C   0  0  0  0  0  0  0  0  0  0  0  0
   -5.2278    3.0659   -0.0000 C   0  0  0  0  0  0  0  0  0  0  0  0
   -6.5118    5.2933   -0.0000 C   0  0  0  0  0  0  0  0  0  0  0  0
   -0.0786    7.5076   -0.0000 C   0  0  0  0  0  0  0  0  0  0  0  0
   -1.3888    8.2675   -0.0000 C   0  0  0  0  0  0  0  0  0  0  0  0
   -2.6729    9.0144   -0.0000 O   0  0  0  0  0  0  0  0  0  0  0  0
   -6.9049    7.0228   -0.0000 C   0  0  0  0  0  0  0  0  0  0  0  0
   -5.6209    9.2371   -0.0000 C   0  0  0  0  0  0  0  0  0  0  0  0
   -6.5249    2.3322   -0.0000 C   0  0  0  0  0  0  0  0  0  0  0  0
   -7.8090    4.5596   -0.0000 C   0  0  0  0  0  0  0  0  0  0  0  0
    1.1923    6.7739   -0.0000 C   0  0  0  0  0  0  0  0  0  0  0  0
   -8.3986    7.0359   -0.0000 C   0  0  0  0  0  0  0  0  0  0  0  0
   -7.6517    5.7519   -0.0000 C   0  0  0  0  0  0  0  0  0  0  0  0
   -6.9180    9.9971   -0.0000 S   0  0  0  0  0  0  0  0  0  0  0  0
   -7.8221    3.0921   -0.0000 C   0  0  0  0  0  0  0  0  0  0  0  0
    2.5287    7.3766   -0.0000 S   0  0  0  0  0  0  0  0  0  0  0  0
    1.3233    5.3064   -0.0000 N   0  0  0  0  0  0  0  0  0  0  0  0
   -7.6779    8.7261   -0.0000 O   0  0  0  0  0  0  0  0  0  0  0  0
   -8.2282   10.7570   -0.0000 O   0  0  0  0  0  0  0  0  0  0  0  0
   -6.9442   11.5038   -0.0000 C   0  0  0  0  0  0  0  0  0  0  0  0
   -9.1192    2.3715   -0.0000 Cl  0  0  0  0  0  0  0  0  0  0  0  0
    3.5114    6.2760   -0.0000 C   0  0  0  0  0  0  0  0  0  0  0  0
    2.7646    5.0051   -0.0000 C   0  0  0  0  0  0  0  0  0  0  0  0
   -5.6733   12.2769   -0.0000 C   0  0  0  0  0  0  0  0  0  0  0  0
   -8.2544   12.2506   -0.0000 C   0  0  0  0  0  0  0  0  0  0  0  0
   -6.9704   13.0106   -0.0000 C   0  0  0  0  0  0  0  0  0  0  0  0
    4.9920    6.4463   -0.0000 C   0  0  0  0  0  0  0  0  0  0  0  0
    5.8567    5.2409   -0.0000 O   0  0  0  0  0  0  0  0  0  0  0  0
    5.5947    7.8352   -0.0000 C   0  0  0  0  0  0  0  0  0  0  0  0
    7.0752    8.0055   -0.0000 O   0  0  0  0  0  0  0  0  0  0  0  0
  1  2  1  0  0  0  0
  2  3  2  0  0  0  0
  2  4  1  0  0  0  0
  3  5  1  0  0  0  0
  4  6  2  0  0  0  0
  5  7  2  0  0  0  0
  8  5  1  6  0  0  0
  8  9  1  0  0  0  0
  8 10  1  0  0  0  0
  9 11  1  0  0  0  0
  9 12  1  1  0  0  0
 10 13  1  0  0  0  0
 11 14  1  0  0  0  0
 15 11  1  1  0  0  0
 12 16  2  0  0  0  0
 12 17  1  0  0  0  0
 13 18  1  0  0  0  0
 13 19  1  6  0  0  0
 14 20  2  0  0  0  0
 15 21  1  0  0  0  0
 15 22  1  0  0  0  0
 16 23  1  0  0  0  0
 17 24  2  0  0  0  0
 18 25  1  0  0  0  0
 21 26  1  0  0  0  0
 21 27  1  0  0  0  0
 22 28  1  0  0  0  0
 23 29  2  0  0  0  0
 25 30  1  0  0  0  0
 25 31  2  0  0  0  0
 28 32  2  0  0  0  0
 28 33  2  0  0  0  0
 28 34  1  0  0  0  0
 29 35  1  0  0  0  0
 30 36  1  0  0  0  0
 31 37  1  0  0  0  0
 34 38  1  0  0  0  0
 34 39  1  0  0  0  0
 34 40  1  0  0  0  0
 36 41  1  0  0  0  0
 41 42  2  0  0  0  0
 41 43  1  0  0  0  0
 43 44  1  0  0  0  0
  6  7  1  0  0  0  0
 13 14  1  0  0  0  0
 24 29  1  0  0  0  0
 26 27  1  0  0  0  0
 36 37  2  0  0  0  0
M  END
>  <MolRegNo>
1735189

>  <m>
=

>  <Value>
800

>  <Unit>
nM

>  <Type>
IC50

>  <pValue>
6.1

>  <Ligand Efficiency>
0

>  <Binding Efficiency>
0

>  <Surface Efficiency>
0

>  <Assay Index>
844155

>  <Assay Category>


>  <Assay Organism>
Homo sapiens

>  <Target ID>
17045

>  <Target Name>
Cytochrome P450 3A4

>  <Target Organism>
Homo sapiens

>  <Target Description>
Target is a single protein chain

>  <Sequence Accession>
P08684

>  <Reference>
J Med Chem 57 (7), 2963-2988 (2014)

>  <Pubmed ID>
24601644

>  <DOI>
10.1021/jm401911v

$$$$
1748621
Actelion Java MolfileCreator 1.0

 44 49  0  0  0  0  0  0  0  0999 V2000
    0.0000   -0.0000   -0.0000 O   0  0  0  0  0  0  0  0  0  0  0  0
    0.0000   -1.4873   -0.0000 C   0  0  0  0  0  0  0  0  0  0  0  0
   -1.3088   -2.2250   -0.0000 N   0  0  0  0  0  0  0  0  0  0  0  0
    1.2850   -2.2250   -0.0000 C   0  0  0  0  0  0  0  0  0  0  0  0
   -2.6295   -1.4635   -0.0000 C   0  0  0  0  0  0  0  0  0  0  0  0
   -1.3207   -3.7122   -0.0000 C   0  0  0  0  0  0  0  0  0  0  0  0
    2.5700   -1.4635   -0.0000 C   0  0  0  0  0  0  0  0  0  0  0  0
    1.2850   -3.7241   -0.0000 C   0  0  0  0  0  0  0  0  0  0  0  0
   -3.9383   -2.2012   -0.0000 C   0  0  0  0  0  0  0  0  0  0  0  0
   -2.6414   -4.4499   -0.0000 C   0  0  0  0  0  0  0  0  0  0  0  0
    3.8550   -2.2012   -0.0000 C   0  0  0  0  0  0  0  0  0  0  0  0
    2.5700   -4.4499   -0.0000 C   0  0  0  0  0  0  0  0  0  0  0  0
   -3.9502   -3.6884   -0.0000 O   0  0  0  0  0  0  0  0  0  0  0  0
    3.8431   -3.7003   -0.0000 C   0  0  0  0  0  0  0  0  0  0  0  0
    5.1281   -4.4380   -0.0000 N   0  0  0  0  0  0  0  0  0  0  0  0
    5.1162   -5.9253   -0.0000 C   0  0  0  0  0  0  0  0  0  0  0  0
    3.8074   -6.6630   -0.0000 N   0  0  0  0  0  0  0  0  0  0  0  0
    6.4012   -6.6630   -0.0000 C   0  0  0  0  0  0  0  0  0  0  0  0
    3.7955   -8.1502   -0.0000 C   0  0  0  0  0  0  0  0  0  0  0  0
    7.8290   -6.1870   -0.0000 N   0  0  0  0  0  0  0  0  0  0  0  0
    6.3893   -8.1621   -0.0000 C   0  0  0  0  0  0  0  0  0  0  0  0
    5.0805   -8.8879   -0.0000 N   0  0  0  0  0  0  0  0  0  0  0  0
    2.4867   -8.8879   -0.0000 C   0  0  0  0  0  0  0  0  0  0  0  0
    8.7095   -7.4007   -0.0000 C   0  0  0  0  0  0  0  0  0  0  0  0
    7.8171   -8.6143   -0.0000 N   0  0  0  0  0  0  0  0  0  0  0  0
    1.1779   -8.1264   -0.0000 C   0  0  0  0  0  0  0  0  0  0  0  0
    2.4748  -10.3752   -0.0000 C   0  0  0  0  0  0  0  0  0  0  0  0
   -0.1309   -8.8641   -0.0000 C   0  0  0  0  0  0  0  0  0  0  0  0
    1.1660   -6.6154   -0.0000 C   0  0  0  0  0  0  0  0  0  0  0  0
    1.1660  -11.1129   -0.0000 C   0  0  0  0  0  0  0  0  0  0  0  0
   -1.4397   -8.1027   -0.0000 N   0  0  0  0  0  0  0  0  0  0  0  0
   -0.1428  -10.3514   -0.0000 C   0  0  0  0  0  0  0  0  0  0  0  0
   -2.7485   -8.8403   -0.0000 C   0  0  0  0  0  0  0  0  0  0  0  0
   -2.7604  -10.3276   -0.0000 O   0  0  0  0  0  0  0  0  0  0  0  0
   -4.0573   -8.0789   -0.0000 C   0  0  0  0  0  0  0  0  0  0  0  0
   -4.0692   -6.5678   -0.0000 C   0  0  0  0  0  0  0  0  0  0  0  0
   -5.3661   -8.8165   -0.0000 C   0  0  0  0  0  0  0  0  0  0  0  0
   -5.3780   -5.8063   -0.0000 C   0  0  0  0  0  0  0  0  0  0  0  0
   -6.6749   -8.0551   -0.0000 C   0  0  0  0  0  0  0  0  0  0  0  0
   -6.6868   -6.5440   -0.0000 C   0  0  0  0  0  0  0  0  0  0  0  0
   -7.9956   -5.7825   -0.0000 C   0  0  0  0  0  0  0  0  0  0  0  0
   -8.0075   -4.2714   -0.0000 C   0  0  0  0  0  0  0  0  0  0  0  0
   -9.3044   -6.5202   -0.0000 C   0  0  0  0  0  0  0  0  0  0  0  0
   -9.3163   -5.0210   -0.0000 C   0  0  0  0  0  0  0  0  0  0  0  0
  1  2  2  0  0  0  0
  2  3  1  0  0  0  0
  2  4  1  0  0  0  0
  3  5  1  0  0  0  0
  3  6  1  0  0  0  0
  4  7  2  0  0  0  0
  4  8  1  0  0  0  0
  5  9  1  0  0  0  0
  6 10  1  0  0  0  0
  7 11  1  0  0  0  0
  8 12  2  0  0  0  0
  9 13  1  0  0  0  0
 11 14  2  0  0  0  0
 14 15  1  0  0  0  0
 15 16  1  0  0  0  0
 16 17  2  0  0  0  0
 16 18  1  0  0  0  0
 17 19  1  0  0  0  0
 18 20  1  0  0  0  0
 18 21  2  0  0  0  0
 19 22  2  0  0  0  0
 19 23  1  0  0  0  0
 20 24  2  0  0  0  0
 21 25  1  0  0  0  0
 23 26  2  0  0  0  0
 23 27  1  0  0  0  0
 26 28  1  0  0  0  0
 26 29  1  0  0  0  0
 27 30  2  0  0  0  0
 28 31  1  0  0  0  0
 28 32  2  0  0  0  0
 31 33  1  0  0  0  0
 33 34  2  0  0  0  0
 33 35  1  0  0  0  0
 35 36  2  0  0  0  0
 35 37  1  0  0  0  0
 36 38  1  0  0  0  0
 37 39  2  0  0  0  0
 38 40  2  0  0  0  0
 40 41  1  0  0  0  0
 41 42  1  0  0  0  0
 41 43  1  0  0  0  0
 41 44  1  0  0  0  0
 10 13  1  0  0  0  0
 12 14  1  0  0  0  0
 21 22  1  0  0  0  0
 24 25  1  0  0  0  0
 30 32  1  0  0  0  0
 39 40  1  0  0  0  0
M  END
>  <MolRegNo>
1748621

>  <m>
=

>  <Value>
9800

>  <Unit>
nM

>  <Type>
IC50

>  <pValue>
5.01

>  <Ligand Efficiency>
0

>  <Binding Efficiency>
0

>  <Surface Efficiency>
0

>  <Assay Index>
859127

>  <Assay Category>


>  <Assay Organism>
Homo sapiens

>  <Target ID>
17045

>  <Target Name>
Cytochrome P450 3A4

>  <Target Organism>
Homo sapiens

>  <Target Description>
Target is a single protein chain

>  <Sequence Accession>
P08684

>  <Reference>
Bioorg Med Chem Lett 24 (9), 2206-2211 (2014)

>  <Pubmed ID>
24685542

>  <DOI>
10.1016/j.bmcl.2014.02.075

$$$$
1745691
Actelion Java MolfileCreator 1.0

 36 40  0  0  0  0  0  0  0  0999 V2000
    0.0000   -0.0000   -0.0000 Cl  0  0  0  0  0  0  0  0  0  0  0  0
    1.2772    0.7568   -0.0000 C   0  0  0  0  0  0  0  0  0  0  0  0
    2.5662    0.0237   -0.0000 C   0  0  0  0  0  0  0  0  0  0  0  0
    1.2653    2.2705   -0.0000 C   0  0  0  0  0  0  0  0  0  0  0  0
    3.8552    0.7923   -0.0000 C   0  0  0  0  0  0  0  0  0  0  0  0
    2.5543    3.0392   -0.0000 C   0  0  0  0  0  0  0  0  0  0  0  0
    3.8433    2.3060   -0.0000 C   0  0  0  0  0  0  0  0  0  0  0  0
    5.1323    3.0747   -0.0000 C   0  0  0  0  0  0  0  0  0  0  0  0
    5.1205    4.5765   -0.0000 C   0  0  0  0  0  0  0  0  0  0  0  0
    6.4213    2.3415   -0.0000 C   0  0  0  0  0  0  0  0  0  0  0  0
    6.4095    5.3452   -0.0000 C   0  0  0  0  0  0  0  0  0  0  0  0
    3.8079    5.3334   -0.0000 C   0  0  0  0  0  0  0  0  0  0  0  0
    6.7170    0.8869   -0.0000 N   0  0  0  0  0  0  0  0  0  0  0  0
    7.6985    3.0983   -0.0000 N   0  0  0  0  0  0  0  0  0  0  0  0
    6.3977    6.8471   -0.0000 O   0  0  0  0  0  0  0  0  0  0  0  0
    7.6985    4.6120   -0.0000 N   0  0  0  0  0  0  0  0  0  0  0  0
    3.7960    6.8471   -0.0000 C   0  0  0  0  0  0  0  0  0  0  0  0
    2.5070    4.6002   -0.0000 C   0  0  0  0  0  0  0  0  0  0  0  0
    8.1834    0.7450   -0.0000 N   0  0  0  0  0  0  0  0  0  0  0  0
    8.7983    2.1050   -0.0000 C   0  0  0  0  0  0  0  0  0  0  0  0
    8.9757    5.3689   -0.0000 C   0  0  0  0  0  0  0  0  0  0  0  0
    2.4834    7.6039   -0.0000 C   0  0  0  0  0  0  0  0  0  0  0  0
    1.1944    5.3570   -0.0000 C   0  0  0  0  0  0  0  0  0  0  0  0
    8.9284   -0.5440   -0.0000 C   0  0  0  0  0  0  0  0  0  0  0  0
   10.2529    2.4361   -0.0000 O   0  0  0  0  0  0  0  0  0  0  0  0
    8.9520    6.8826   -0.0000 C   0  0  0  0  0  0  0  0  0  0  0  0
    1.1707    6.8589   -0.0000 N   0  0  0  0  0  0  0  0  0  0  0  0
   10.2410    7.6512   -0.0000 C   0  0  0  0  0  0  0  0  0  0  0  0
    7.6394    7.6276   -0.0000 C   0  0  0  0  0  0  0  0  0  0  0  0
   10.2174    9.1649   -0.0000 N   0  0  0  0  0  0  0  0  0  0  0  0
    7.6157    9.1413   -0.0000 C   0  0  0  0  0  0  0  0  0  0  0  0
    8.9047    9.9218   -0.0000 C   0  0  0  0  0  0  0  0  0  0  0  0
    8.8811   11.4236   -0.0000 C   0  0  0  0  0  0  0  0  0  0  0  0
   10.1583   12.1923   -0.0000 F   0  0  0  0  0  0  0  0  0  0  0  0
    7.5684   12.1686   -0.0000 F   0  0  0  0  0  0  0  0  0  0  0  0
    8.8574   12.9373   -0.0000 F   0  0  0  0  0  0  0  0  0  0  0  0
  1  2  1  0  0  0  0
  2  3  2  0  0  0  0
  2  4  1  0  0  0  0
  3  5  1  0  0  0  0
  4  6  2  0  0  0  0
  5  7  2  0  0  0  0
  7  8  1  0  0  0  0
  8  9  2  0  0  0  0
  8 10  1  0  0  0  0
  9 11  1  0  0  0  0
  9 12  1  0  0  0  0
 10 13  2  0  0  0  0
 10 14  1  0  0  0  0
 11 15  2  0  0  0  0
 11 16  1  0  0  0  0
 12 17  2  0  0  0  0
 12 18  1  0  0  0  0
 13 19  1  0  0  0  0
 14 20  1  0  0  0  0
 16 21  1  0  0  0  0
 17 22  1  0  0  0  0
 18 23  2  0  0  0  0
 19 24  1  0  0  0  0
 20 25  2  0  0  0  0
 21 26  1  0  0  0  0
 22 27  2  0  0  0  0
 26 28  2  0  0  0  0
 26 29  1  0  0  0  0
 28 30  1  0  0  0  0
 29 31  2  0  0  0  0
 30 32  2  0  0  0  0
 32 33  1  0  0  0  0
 33 34  1  0  0  0  0
 33 35  1  0  0  0  0
 33 36  1  0  0  0  0
  6  7  1  0  0  0  0
 14 16  1  0  0  0  0
 19 20  1  0  0  0  0
 23 27  1  0  0  0  0
 31 32  1  0  0  0  0
M  END
>  <MolRegNo>
1745691

>  <m>
=

>  <Value>
6600

>  <Unit>
nM

>  <Type>
IC50

>  <pValue>
5.18

>  <Ligand Efficiency>
0

>  <Binding Efficiency>
0

>  <Surface Efficiency>
0

>  <Assay Index>
859586

>  <Assay Category>


>  <Assay Organism>
Homo sapiens

>  <Target ID>
17045

>  <Target Name>
Cytochrome P450 3A4

>  <Target Organism>
Homo sapiens

>  <Target Description>
Target is a single protein chain

>  <Sequence Accession>
P08684

>  <Reference>
J Med Chem 56 (23), 9586-9600 (2013)

>  <Pubmed ID>
24182233

>  <DOI>
10.1021/jm4010835

$$$$
1745692
Actelion Java MolfileCreator 1.0

 37 41  0  0  0  0  0  0  0  0999 V2000
    0.0000   -0.0000   -0.0000 Cl  0  0  0  0  0  0  0  0  0  0  0  0
    1.2775    0.7571   -0.0000 C   0  0  0  0  0  0  0  0  0  0  0  0
    2.5669    0.0237   -0.0000 C   0  0  0  0  0  0  0  0  0  0  0  0
    1.2657    2.2712   -0.0000 C   0  0  0  0  0  0  0  0  0  0  0  0
    3.8562    0.7925   -0.0000 C   0  0  0  0  0  0  0  0  0  0  0  0
    2.5551    3.0400   -0.0000 C   0  0  0  0  0  0  0  0  0  0  0  0
    3.8444    2.3066   -0.0000 C   0  0  0  0  0  0  0  0  0  0  0  0
    5.1338    3.0755   -0.0000 C   0  0  0  0  0  0  0  0  0  0  0  0
    5.1219    4.5778   -0.0000 C   0  0  0  0  0  0  0  0  0  0  0  0
    6.4231    2.3421   -0.0000 C   0  0  0  0  0  0  0  0  0  0  0  0
    6.4113    5.3467   -0.0000 C   0  0  0  0  0  0  0  0  0  0  0  0
    3.8089    5.3349   -0.0000 C   0  0  0  0  0  0  0  0  0  0  0  0
    6.7189    0.8872   -0.0000 N   0  0  0  0  0  0  0  0  0  0  0  0
    7.7007    3.0992   -0.0000 N   0  0  0  0  0  0  0  0  0  0  0  0
    6.3995    6.8490   -0.0000 O   0  0  0  0  0  0  0  0  0  0  0  0
    7.7007    4.6133   -0.0000 N   0  0  0  0  0  0  0  0  0  0  0  0
    3.7971    6.8490   -0.0000 C   0  0  0  0  0  0  0  0  0  0  0  0
    2.5077    4.6015   -0.0000 C   0  0  0  0  0  0  0  0  0  0  0  0
    8.1856    0.7452   -0.0000 N   0  0  0  0  0  0  0  0  0  0  0  0
    8.8008    2.1056   -0.0000 C   0  0  0  0  0  0  0  0  0  0  0  0
    8.9782    5.3704   -0.0000 C   0  0  0  0  0  0  0  0  0  0  0  0
    2.4841    7.6060   -0.0000 C   0  0  0  0  0  0  0  0  0  0  0  0
    1.1947    5.3585   -0.0000 C   0  0  0  0  0  0  0  0  0  0  0  0
    8.9309   -0.5441   -0.0000 C   0  0  0  0  0  0  0  0  0  0  0  0
   10.2557    2.4368   -0.0000 O   0  0  0  0  0  0  0  0  0  0  0  0
    8.9545    6.8845   -0.0000 C   0  0  0  0  0  0  0  0  0  0  0  0
    1.1711    6.8608   -0.0000 N   0  0  0  0  0  0  0  0  0  0  0  0
   10.2439    7.6533   -0.0000 C   0  0  0  0  0  0  0  0  0  0  0  0
    7.6415    7.6297   -0.0000 C   0  0  0  0  0  0  0  0  0  0  0  0
   10.2202    9.1675   -0.0000 N   0  0  0  0  0  0  0  0  0  0  0  0
   11.5332    6.9199   -0.0000 C   0  0  0  0  0  0  0  0  0  0  0  0
    7.6179    9.1438   -0.0000 C   0  0  0  0  0  0  0  0  0  0  0  0
    8.9072    9.9245   -0.0000 C   0  0  0  0  0  0  0  0  0  0  0  0
    8.8836   11.4268   -0.0000 C   0  0  0  0  0  0  0  0  0  0  0  0
   10.1611   12.1957   -0.0000 F   0  0  0  0  0  0  0  0  0  0  0  0
    7.5705   12.1720   -0.0000 F   0  0  0  0  0  0  0  0  0  0  0  0
    8.8599   12.9409   -0.0000 F   0  0  0  0  0  0  0  0  0  0  0  0
  1  2  1  0  0  0  0
  2  3  2  0  0  0  0
  2  4  1  0  0  0  0
  3  5  1  0  0  0  0
  4  6  2  0  0  0  0
  5  7  2  0  0  0  0
  7  8  1  0  0  0  0
  8  9  2  0  0  0  0
  8 10  1  0  0  0  0
  9 11  1  0  0  0  0
  9 12  1  0  0  0  0
 10 13  2  0  0  0  0
 10 14  1  0  0  0  0
 11 15  2  0  0  0  0
 11 16  1  0  0  0  0
 12 17  2  0  0  0  0
 12 18  1  0  0  0  0
 13 19  1  0  0  0  0
 14 20  1  0  0  0  0
 16 21  1  0  0  0  0
 17 22  1  0  0  0  0
 18 23  2  0  0  0  0
 19 24  1  0  0  0  0
 20 25  2  0  0  0  0
 21 26  1  0  0  0  0
 22 27  2  0  0  0  0
 26 28  2  0  0  0  0
 26 29  1  0  0  0  0
 28 30  1  0  0  0  0
 28 31  1  0  0  0  0
 29 32  2  0  0  0  0
 30 33  2  0  0  0  0
 33 34  1  0  0  0  0
 34 35  1  0  0  0  0
 34 36  1  0  0  0  0
 34 37  1  0  0  0  0
  6  7  1  0  0  0  0
 14 16  1  0  0  0  0
 19 20  1  0  0  0  0
 23 27  1  0  0  0  0
 32 33  1  0  0  0  0
M  END
>  <MolRegNo>
1745692

>  <m>
=

>  <Value>
6800

>  <Unit>
nM

>  <Type>
IC50

>  <pValue>
5.17

>  <Ligand Efficiency>
0

>  <Binding Efficiency>
0

>  <Surface Efficiency>
0

>  <Assay Index>
859586

>  <Assay Category>


>  <Assay Organism>
Homo sapiens

>  <Target ID>
17045

>  <Target Name>
Cytochrome P450 3A4

>  <Target Organism>
Homo sapiens

>  <Target Description>
Target is a single protein chain

>  <Sequence Accession>
P08684

>  <Reference>
J Med Chem 56 (23), 9586-9600 (2013)

>  <Pubmed ID>
24182233

>  <DOI>
10.1021/jm4010835

$$$$
1745693
Actelion Java MolfileCreator 1.0

 37 41  0  0  0  0  0  0  0  0999 V2000
    0.0000   -0.0000   -0.0000 Cl  0  0  0  0  0  0  0  0  0  0  0  0
    1.2773    0.7569   -0.0000 C   0  0  0  0  0  0  0  0  0  0  0  0
    2.5664    0.0237   -0.0000 C   0  0  0  0  0  0  0  0  0  0  0  0
    1.2655    2.2707   -0.0000 C   0  0  0  0  0  0  0  0  0  0  0  0
    3.8555    0.7924   -0.0000 C   0  0  0  0  0  0  0  0  0  0  0  0
    2.5546    3.0395   -0.0000 C   0  0  0  0  0  0  0  0  0  0  0  0
    3.8437    2.3062   -0.0000 C   0  0  0  0  0  0  0  0  0  0  0  0
    5.1328    3.0749   -0.0000 C   0  0  0  0  0  0  0  0  0  0  0  0
    5.1210    4.5769   -0.0000 C   0  0  0  0  0  0  0  0  0  0  0  0
    6.4219    2.3417   -0.0000 C   0  0  0  0  0  0  0  0  0  0  0  0
    6.4101    5.3457   -0.0000 C   0  0  0  0  0  0  0  0  0  0  0  0
    3.8082    5.3338   -0.0000 C   0  0  0  0  0  0  0  0  0  0  0  0
    6.7176    0.8870   -0.0000 N   0  0  0  0  0  0  0  0  0  0  0  0
    7.6992    3.0986   -0.0000 N   0  0  0  0  0  0  0  0  0  0  0  0
    6.3982    6.8477   -0.0000 O   0  0  0  0  0  0  0  0  0  0  0  0
    7.6992    4.6124   -0.0000 N   0  0  0  0  0  0  0  0  0  0  0  0
    3.7964    6.8477   -0.0000 C   0  0  0  0  0  0  0  0  0  0  0  0
    2.5073    4.6006   -0.0000 C   0  0  0  0  0  0  0  0  0  0  0  0
    8.1841    0.7451   -0.0000 N   0  0  0  0  0  0  0  0  0  0  0  0
    8.7991    2.1052   -0.0000 C   0  0  0  0  0  0  0  0  0  0  0  0
    8.9765    5.3693   -0.0000 C   0  0  0  0  0  0  0  0  0  0  0  0
    2.4836    7.6046   -0.0000 C   0  0  0  0  0  0  0  0  0  0  0  0
    1.1945    5.3575   -0.0000 C   0  0  0  0  0  0  0  0  0  0  0  0
    8.9292   -0.5440   -0.0000 C   0  0  0  0  0  0  0  0  0  0  0  0
   10.2537    2.4363   -0.0000 O   0  0  0  0  0  0  0  0  0  0  0  0
    8.9528    6.8831   -0.0000 C   0  0  0  0  0  0  0  0  0  0  0  0
    1.1708    6.8595   -0.0000 N   0  0  0  0  0  0  0  0  0  0  0  0
    8.1722   -1.8331   -0.0000 C   0  0  0  0  0  0  0  0  0  0  0  0
   10.2419    7.6519   -0.0000 C   0  0  0  0  0  0  0  0  0  0  0  0
    7.6400    7.6282   -0.0000 C   0  0  0  0  0  0  0  0  0  0  0  0
   10.2183    9.1657   -0.0000 N   0  0  0  0  0  0  0  0  0  0  0  0
    7.6164    9.1420   -0.0000 C   0  0  0  0  0  0  0  0  0  0  0  0
    8.9055    9.9226   -0.0000 C   0  0  0  0  0  0  0  0  0  0  0  0
    8.8818   11.4246   -0.0000 C   0  0  0  0  0  0  0  0  0  0  0  0
   10.1591   12.1933   -0.0000 F   0  0  0  0  0  0  0  0  0  0  0  0
    7.5691   12.1697   -0.0000 F   0  0  0  0  0  0  0  0  0  0  0  0
    8.8582   12.9384   -0.0000 F   0  0  0  0  0  0  0  0  0  0  0  0
  1  2  1  0  0  0  0
  2  3  2  0  0  0  0
  2  4  1  0  0  0  0
  3  5  1  0  0  0  0
  4  6  2  0  0  0  0
  5  7  2  0  0  0  0
  7  8  1  0  0  0  0
  8  9  2  0  0  0  0
  8 10  1  0  0  0  0
  9 11  1  0  0  0  0
  9 12  1  0  0  0  0
 10 13  2  0  0  0  0
 10 14  1  0  0  0  0
 11 15  2  0  0  0  0
 11 16  1  0  0  0  0
 12 17  2  0  0  0  0
 12 18  1  0  0  0  0
 13 19  1  0  0  0  0
 14 20  1  0  0  0  0
 16 21  1  0  0  0  0
 17 22  1  0  0  0  0
 18 23  2  0  0  0  0
 19 24  1  0  0  0  0
 20 25  2  0  0  0  0
 21 26  1  0  0  0  0
 22 27  2  0  0  0  0
 24 28  1  0  0  0  0
 26 29  2  0  0  0  0
 26 30  1  0  0  0  0
 29 31  1  0  0  0  0
 30 32  2  0  0  0  0
 31 33  2  0  0  0  0
 33 34  1  0  0  0  0
 34 35  1  0  0  0  0
 34 36  1  0  0  0  0
 34 37  1  0  0  0  0
  6  7  1  0  0  0  0
 14 16  1  0  0  0  0
 19 20  1  0  0  0  0
 23 27  1  0  0  0  0
 32 33  1  0  0  0  0
M  END
>  <MolRegNo>
1745693

>  <m>
=

>  <Value>
18000

>  <Unit>
nM

>  <Type>
IC50

>  <pValue>
4.75

>  <Ligand Efficiency>
0

>  <Binding Efficiency>
0

>  <Surface Efficiency>
0

>  <Assay Index>
859586

>  <Assay Category>


>  <Assay Organism>
Homo sapiens

>  <Target ID>
17045

>  <Target Name>
Cytochrome P450 3A4

>  <Target Organism>
Homo sapiens

>  <Target Description>
Target is a single protein chain

>  <Sequence Accession>
P08684

>  <Reference>
J Med Chem 56 (23), 9586-9600 (2013)

>  <Pubmed ID>
24182233

>  <DOI>
10.1021/jm4010835

$$$$
1745706
Actelion Java MolfileCreator 1.0

 39 43  0  0  0  0  0  0  0  0999 V2000
    0.0000   -0.0000   -0.0000 Cl  0  0  0  0  0  0  0  0  0  0  0  0
    1.2779    0.7573   -0.0000 C   0  0  0  0  0  0  0  0  0  0  0  0
    2.5677    0.0237   -0.0000 C   0  0  0  0  0  0  0  0  0  0  0  0
    1.2661    2.2719   -0.0000 C   0  0  0  0  0  0  0  0  0  0  0  0
    3.8574    0.7928   -0.0000 C   0  0  0  0  0  0  0  0  0  0  0  0
    2.5558    3.0410   -0.0000 C   0  0  0  0  0  0  0  0  0  0  0  0
    3.8456    2.3074   -0.0000 C   0  0  0  0  0  0  0  0  0  0  0  0
    5.1354    3.0765   -0.0000 C   0  0  0  0  0  0  0  0  0  0  0  0
    5.1235    4.5792   -0.0000 C   0  0  0  0  0  0  0  0  0  0  0  0
    6.4251    2.3429   -0.0000 C   0  0  0  0  0  0  0  0  0  0  0  0
    6.4133    5.3483   -0.0000 C   0  0  0  0  0  0  0  0  0  0  0  0
    3.8101    5.3365   -0.0000 C   0  0  0  0  0  0  0  0  0  0  0  0
    6.7209    0.8874   -0.0000 N   0  0  0  0  0  0  0  0  0  0  0  0
    7.7030    3.1001   -0.0000 N   0  0  0  0  0  0  0  0  0  0  0  0
    6.4014    6.8511   -0.0000 O   0  0  0  0  0  0  0  0  0  0  0  0
    7.7030    4.6147   -0.0000 N   0  0  0  0  0  0  0  0  0  0  0  0
    3.7983    6.8511   -0.0000 C   0  0  0  0  0  0  0  0  0  0  0  0
    2.5085    4.6029   -0.0000 C   0  0  0  0  0  0  0  0  0  0  0  0
    8.1882    0.7455   -0.0000 N   0  0  0  0  0  0  0  0  0  0  0  0
    8.8035    2.1062   -0.0000 C   0  0  0  0  0  0  0  0  0  0  0  0
    8.9809    5.3720   -0.0000 C   0  0  0  0  0  0  0  0  0  0  0  0
    5.0762    7.6084   -0.0000 F   0  0  0  0  0  0  0  0  0  0  0  0
    2.4848    7.6084   -0.0000 C   0  0  0  0  0  0  0  0  0  0  0  0
    1.1951    5.3602   -0.0000 C   0  0  0  0  0  0  0  0  0  0  0  0
    8.9336   -0.5443   -0.0000 C   0  0  0  0  0  0  0  0  0  0  0  0
   10.2589    2.4375   -0.0000 O   0  0  0  0  0  0  0  0  0  0  0  0
    8.9573    6.8866   -0.0000 C   0  0  0  0  0  0  0  0  0  0  0  0
    1.1714    6.8629   -0.0000 N   0  0  0  0  0  0  0  0  0  0  0  0
    8.1763   -1.8341   -0.0000 C   0  0  0  0  0  0  0  0  0  0  0  0
   10.2470    7.6557   -0.0000 C   0  0  0  0  0  0  0  0  0  0  0  0
    7.6439    7.6320   -0.0000 C   0  0  0  0  0  0  0  0  0  0  0  0
   10.2234    9.1703   -0.0000 N   0  0  0  0  0  0  0  0  0  0  0  0
   11.5368    6.9221   -0.0000 C   0  0  0  0  0  0  0  0  0  0  0  0
    7.6202    9.1466   -0.0000 C   0  0  0  0  0  0  0  0  0  0  0  0
    8.9100    9.9276   -0.0000 C   0  0  0  0  0  0  0  0  0  0  0  0
    8.8863   11.4303   -0.0000 C   0  0  0  0  0  0  0  0  0  0  0  0
   10.1642   12.1994   -0.0000 F   0  0  0  0  0  0  0  0  0  0  0  0
    7.5729   12.1758   -0.0000 F   0  0  0  0  0  0  0  0  0  0  0  0
    8.8626   12.9449   -0.0000 F   0  0  0  0  0  0  0  0  0  0  0  0
  1  2  1  0  0  0  0
  2  3  2  0  0  0  0
  2  4  1  0  0  0  0
  3  5  1  0  0  0  0
  4  6  2  0  0  0  0
  5  7  2  0  0  0  0
  7  8  1  0  0  0  0
  8  9  2  0  0  0  0
  8 10  1  0  0  0  0
  9 11  1  0  0  0  0
  9 12  1  0  0  0  0
 10 13  2  0  0  0  0
 10 14  1  0  0  0  0
 11 15  2  0  0  0  0
 11 16  1  0  0  0  0
 12 17  2  0  0  0  0
 12 18  1  0  0  0  0
 13 19  1  0  0  0  0
 14 20  1  0  0  0  0
 16 21  1  0  0  0  0
 17 22  1  0  0  0  0
 17 23  1  0  0  0  0
 18 24  2  0  0  0  0
 19 25  1  0  0  0  0
 20 26  2  0  0  0  0
 21 27  1  0  0  0  0
 23 28  2  0  0  0  0
 25 29  1  0  0  0  0
 27 30  2  0  0  0  0
 27 31  1  0  0  0  0
 30 32  1  0  0  0  0
 30 33  1  0  0  0  0
 31 34  2  0  0  0  0
 32 35  2  0  0  0  0
 35 36  1  0  0  0  0
 36 37  1  0  0  0  0
 36 38  1  0  0  0  0
 36 39  1  0  0  0  0
  6  7  1  0  0  0  0
 14 16  1  0  0  0  0
 19 20  1  0  0  0  0
 24 28  1  0  0  0  0
 34 35  1  0  0  0  0
M  END
>  <MolRegNo>
1745706

>  <m>
=

>  <Value>
7000

>  <Unit>
nM

>  <Type>
IC50

>  <pValue>
5.16

>  <Ligand Efficiency>
0

>  <Binding Efficiency>
0

>  <Surface Efficiency>
0

>  <Assay Index>
859586

>  <Assay Category>


>  <Assay Organism>
Homo sapiens

>  <Target ID>
17045

>  <Target Name>
Cytochrome P450 3A4

>  <Target Organism>
Homo sapiens

>  <Target Description>
Target is a single protein chain

>  <Sequence Accession>
P08684

>  <Reference>
J Med Chem 56 (23), 9586-9600 (2013)

>  <Pubmed ID>
24182233

>  <DOI>
10.1021/jm4010835

$$$$
1745707
Actelion Java MolfileCreator 1.0

 35 39  0  0  0  0  0  0  0  0999 V2000
    0.0000   -0.0000   -0.0000 Cl  0  0  0  0  0  0  0  0  0  0  0  0
    1.2887    0.7567   -0.0000 C   0  0  0  0  0  0  0  0  0  0  0  0
    2.5773    0.0236   -0.0000 C   0  0  0  0  0  0  0  0  0  0  0  0
    1.2769    2.2700   -0.0000 C   0  0  0  0  0  0  0  0  0  0  0  0
    3.8660    0.7921   -0.0000 C   0  0  0  0  0  0  0  0  0  0  0  0
    2.5655    3.0384   -0.0000 C   0  0  0  0  0  0  0  0  0  0  0  0
    3.8542    2.3054   -0.0000 C   0  0  0  0  0  0  0  0  0  0  0  0
    5.1429    3.0739   -0.0000 C   0  0  0  0  0  0  0  0  0  0  0  0
    5.1310    4.5754   -0.0000 C   0  0  0  0  0  0  0  0  0  0  0  0
    6.4315    2.3409   -0.0000 C   0  0  0  0  0  0  0  0  0  0  0  0
    6.4197    5.3439   -0.0000 C   0  0  0  0  0  0  0  0  0  0  0  0
    3.8897    5.4384   -0.0000 C   0  0  0  0  0  0  0  0  0  0  0  0
    6.7271    0.8867   -0.0000 N   0  0  0  0  0  0  0  0  0  0  0  0
    7.7084    3.0975   -0.0000 N   0  0  0  0  0  0  0  0  0  0  0  0
    6.4079    6.8453   -0.0000 O   0  0  0  0  0  0  0  0  0  0  0  0
    7.7084    4.6108   -0.0000 N   0  0  0  0  0  0  0  0  0  0  0  0
    3.8542    6.9517   -0.0000 C   0  0  0  0  0  0  0  0  0  0  0  0
    2.4709    4.9655   -0.0000 C   0  0  0  0  0  0  0  0  0  0  0  0
    8.2049    0.7448   -0.0000 N   0  0  0  0  0  0  0  0  0  0  0  0
    8.8079    2.1044   -0.0000 C   0  0  0  0  0  0  0  0  0  0  0  0
    8.9971    5.3675   -0.0000 C   0  0  0  0  0  0  0  0  0  0  0  0
    2.4118    7.4010   -0.0000 N   0  0  0  0  0  0  0  0  0  0  0  0
    1.5488    6.1714   -0.0000 N   0  0  0  0  0  0  0  0  0  0  0  0
    8.9498   -0.5438   -0.0000 C   0  0  0  0  0  0  0  0  0  0  0  0
   10.2621    2.4355   -0.0000 O   0  0  0  0  0  0  0  0  0  0  0  0
    8.9734    6.8808   -0.0000 C   0  0  0  0  0  0  0  0  0  0  0  0
    0.0473    6.1478   -0.0000 C   0  0  0  0  0  0  0  0  0  0  0  0
    8.1931   -1.8325   -0.0000 C   0  0  0  0  0  0  0  0  0  0  0  0
   10.2621    7.6493   -0.0000 C   0  0  0  0  0  0  0  0  0  0  0  0
    7.6611    7.6256   -0.0000 C   0  0  0  0  0  0  0  0  0  0  0  0
   10.2385    9.1626   -0.0000 C   0  0  0  0  0  0  0  0  0  0  0  0
    7.6375    9.1389   -0.0000 C   0  0  0  0  0  0  0  0  0  0  0  0
    8.9261    9.9192   -0.0000 C   0  0  0  0  0  0  0  0  0  0  0  0
    8.8907   11.4207   -0.0000 C   0  0  0  0  0  0  0  0  0  0  0  0
    8.8670   12.9340   -0.0000 N   0  0  0  0  0  0  0  0  0  0  0  0
  1  2  1  0  0  0  0
  2  3  2  0  0  0  0
  2  4  1  0  0  0  0
  3  5  1  0  0  0  0
  4  6  2  0  0  0  0
  5  7  2  0  0  0  0
  7  8  1  0  0  0  0
  8  9  2  0  0  0  0
  8 10  1  0  0  0  0
  9 11  1  0  0  0  0
  9 12  1  0  0  0  0
 10 13  2  0  0  0  0
 10 14  1  0  0  0  0
 11 15  2  0  0  0  0
 11 16  1  0  0  0  0
 12 17  1  0  0  0  0
 12 18  2  0  0  0  0
 13 19  1  0  0  0  0
 14 20  1  0  0  0  0
 16 21  1  0  0  0  0
 17 22  2  0  0  0  0
 18 23  1  0  0  0  0
 19 24  1  0  0  0  0
 20 25  2  0  0  0  0
 21 26  1  0  0  0  0
 23 27  1  0  0  0  0
 24 28  1  0  0  0  0
 26 29  2  0  0  0  0
 26 30  1  0  0  0  0
 29 31  1  0  0  0  0
 30 32  2  0  0  0  0
 31 33  2  0  0  0  0
 33 34  1  0  0  0  0
 34 35  3  0  0  0  0
  6  7  1  0  0  0  0
 14 16  1  0  0  0  0
 19 20  1  0  0  0  0
 22 23  1  0  0  0  0
 32 33  1  0  0  0  0
M  END
>  <MolRegNo>
1745707

>  <m>
=

>  <Value>
3400

>  <Unit>
nM

>  <Type>
IC50

>  <pValue>
5.47

>  <Ligand Efficiency>
0

>  <Binding Efficiency>
0

>  <Surface Efficiency>
0

>  <Assay Index>
859586

>  <Assay Category>


>  <Assay Organism>
Homo sapiens

>  <Target ID>
17045

>  <Target Name>
Cytochrome P450 3A4

>  <Target Organism>
Homo sapiens

>  <Target Description>
Target is a single protein chain

>  <Sequence Accession>
P08684

>  <Reference>
J Med Chem 56 (23), 9586-9600 (2013)

>  <Pubmed ID>
24182233

>  <DOI>
10.1021/jm4010835

$$$$
1745694
Actelion Java MolfileCreator 1.0

 38 42  0  0  0  0  0  0  0  0999 V2000
    0.0000   -0.0000   -0.0000 Cl  0  0  0  0  0  0  0  0  0  0  0  0
    1.2776    0.7571   -0.0000 C   0  0  0  0  0  0  0  0  0  0  0  0
    2.5671    0.0237   -0.0000 C   0  0  0  0  0  0  0  0  0  0  0  0
    1.2658    2.2713   -0.0000 C   0  0  0  0  0  0  0  0  0  0  0  0
    3.8565    0.7926   -0.0000 C   0  0  0  0  0  0  0  0  0  0  0  0
    2.5553    3.0403   -0.0000 C   0  0  0  0  0  0  0  0  0  0  0  0
    3.8447    2.3068   -0.0000 C   0  0  0  0  0  0  0  0  0  0  0  0
    5.1342    3.0758   -0.0000 C   0  0  0  0  0  0  0  0  0  0  0  0
    5.1223    4.5782   -0.0000 C   0  0  0  0  0  0  0  0  0  0  0  0
    6.4236    2.3423   -0.0000 C   0  0  0  0  0  0  0  0  0  0  0  0
    6.4118    5.3471   -0.0000 C   0  0  0  0  0  0  0  0  0  0  0  0
    3.8092    5.3353   -0.0000 C   0  0  0  0  0  0  0  0  0  0  0  0
    6.7194    0.8872   -0.0000 N   0  0  0  0  0  0  0  0  0  0  0  0
    7.7012    3.0994   -0.0000 N   0  0  0  0  0  0  0  0  0  0  0  0
    6.4000    6.8495   -0.0000 O   0  0  0  0  0  0  0  0  0  0  0  0
    7.7012    4.6137   -0.0000 N   0  0  0  0  0  0  0  0  0  0  0  0
    3.7974    6.8495   -0.0000 C   0  0  0  0  0  0  0  0  0  0  0  0
    2.5079    4.6018   -0.0000 C   0  0  0  0  0  0  0  0  0  0  0  0
    8.1863    0.7453   -0.0000 N   0  0  0  0  0  0  0  0  0  0  0  0
    8.8014    2.1057   -0.0000 C   0  0  0  0  0  0  0  0  0  0  0  0
    8.9789    5.3708   -0.0000 C   0  0  0  0  0  0  0  0  0  0  0  0
    2.4843    7.6066   -0.0000 C   0  0  0  0  0  0  0  0  0  0  0  0
    1.1948    5.3589   -0.0000 C   0  0  0  0  0  0  0  0  0  0  0  0
    8.9316   -0.5442   -0.0000 C   0  0  0  0  0  0  0  0  0  0  0  0
   10.2565    2.4370   -0.0000 O   0  0  0  0  0  0  0  0  0  0  0  0
    8.9552    6.8850   -0.0000 C   0  0  0  0  0  0  0  0  0  0  0  0
    1.1712    6.8613   -0.0000 N   0  0  0  0  0  0  0  0  0  0  0  0
    8.1744   -1.8336   -0.0000 C   0  0  0  0  0  0  0  0  0  0  0  0
   10.2447    7.6539   -0.0000 C   0  0  0  0  0  0  0  0  0  0  0  0
    7.6421    7.6303   -0.0000 C   0  0  0  0  0  0  0  0  0  0  0  0
   10.2210    9.1682   -0.0000 N   0  0  0  0  0  0  0  0  0  0  0  0
   11.5341    6.9205   -0.0000 C   0  0  0  0  0  0  0  0  0  0  0  0
    7.6184    9.1445   -0.0000 C   0  0  0  0  0  0  0  0  0  0  0  0
    8.9079    9.9253   -0.0000 C   0  0  0  0  0  0  0  0  0  0  0  0
    8.8842   11.4277   -0.0000 C   0  0  0  0  0  0  0  0  0  0  0  0
   10.1619   12.1966   -0.0000 F   0  0  0  0  0  0  0  0  0  0  0  0
    7.5711   12.1729   -0.0000 F   0  0  0  0  0  0  0  0  0  0  0  0
    8.8606   12.9419   -0.0000 F   0  0  0  0  0  0  0  0  0  0  0  0
  1  2  1  0  0  0  0
  2  3  2  0  0  0  0
  2  4  1  0  0  0  0
  3  5  1  0  0  0  0
  4  6  2  0  0  0  0
  5  7  2  0  0  0  0
  7  8  1  0  0  0  0
  8  9  2  0  0  0  0
  8 10  1  0  0  0  0
  9 11  1  0  0  0  0
  9 12  1  0  0  0  0
 10 13  2  0  0  0  0
 10 14  1  0  0  0  0
 11 15  2  0  0  0  0
 11 16  1  0  0  0  0
 12 17  2  0  0  0  0
 12 18  1  0  0  0  0
 13 19  1  0  0  0  0
 14 20  1  0  0  0  0
 16 21  1  0  0  0  0
 17 22  1  0  0  0  0
 18 23  2  0  0  0  0
 19 24  1  0  0  0  0
 20 25  2  0  0  0  0
 21 26  1  0  0  0  0
 22 27  2  0  0  0  0
 24 28  1  0  0  0  0
 26 29  2  0  0  0  0
 26 30  1  0  0  0  0
 29 31  1  0  0  0  0
 29 32  1  0  0  0  0
 30 33  2  0  0  0  0
 31 34  2  0  0  0  0
 34 35  1  0  0  0  0
 35 36  1  0  0  0  0
 35 37  1  0  0  0  0
 35 38  1  0  0  0  0
  6  7  1  0  0  0  0
 14 16  1  0  0  0  0
 19 20  1  0  0  0  0
 23 27  1  0  0  0  0
 33 34  1  0  0  0  0
M  END
>  <MolRegNo>
1745694

>  <m>
=

>  <Value>
3000

>  <Unit>
nM

>  <Type>
IC50

>  <pValue>
5.52

>  <Ligand Efficiency>
0

>  <Binding Efficiency>
0

>  <Surface Efficiency>
0

>  <Assay Index>
859587

>  <Assay Category>


>  <Assay Organism>
Homo sapiens

>  <Target ID>
17045

>  <Target Name>
Cytochrome P450 3A4

>  <Target Organism>
Homo sapiens

>  <Target Description>
Target is a single protein chain

>  <Sequence Accession>
P08684

>  <Reference>
J Med Chem 56 (23), 9586-9600 (2013)

>  <Pubmed ID>
24182233

>  <DOI>
10.1021/jm4010835

$$$$
1606563
Actelion Java MolfileCreator 1.0

 33 36  0  0  0  0  0  0  0  0999 V2000
    0.0000   -0.0000   -0.0000 S   0  0  0  0  0  0  0  0  0  0  0  0
   -0.7408    1.3288   -0.0000 O   0  0  0  0  0  0  0  0  0  0  0  0
    0.7408    1.3053   -0.0000 O   0  0  0  0  0  0  0  0  0  0  0  0
   -1.2347   -0.8467   -0.0000 N   0  0  0  0  0  0  0  0  0  0  0  0
    1.3288   -0.6350   -0.0000 N   0  0  0  0  0  0  0  0  0  0  0  0
   -2.5517   -0.1176   -0.0000 C   0  0  0  0  0  0  0  0  0  0  0  0
    2.5400    0.2234   -0.0000 C   0  0  0  0  0  0  0  0  0  0  0  0
   -3.8335   -0.8937   -0.0000 C   0  0  0  0  0  0  0  0  0  0  0  0
   -2.5988    1.3876   -0.0000 C   0  0  0  0  0  0  0  0  0  0  0  0
   -3.8100   -2.3754   -0.0000 F   0  0  0  0  0  0  0  0  0  0  0  0
   -5.1623   -0.1646   -0.0000 C   0  0  0  0  0  0  0  0  0  0  0  0
   -3.9276    2.1049   -0.0000 C   0  0  0  0  0  0  0  0  0  0  0  0
   -5.2093    1.3406   -0.0000 C   0  0  0  0  0  0  0  0  0  0  0  0
   -6.4558   -0.9407   -0.0000 C   0  0  0  0  0  0  0  0  0  0  0  0
   -7.7846   -0.2117   -0.0000 C   0  0  0  0  0  0  0  0  0  0  0  0
   -7.8316    1.2818   -0.0000 C   0  0  0  0  0  0  0  0  0  0  0  0
   -9.0664   -0.9878   -0.0000 C   0  0  0  0  0  0  0  0  0  0  0  0
   -6.5734    2.0696   -0.0000 O   0  0  0  0  0  0  0  0  0  0  0  0
   -9.1604    1.9991   -0.0000 O   0  0  0  0  0  0  0  0  0  0  0  0
  -10.3834   -0.2705   -0.0000 C   0  0  0  0  0  0  0  0  0  0  0  0
   -9.0428   -2.4694   -0.0000 C   0  0  0  0  0  0  0  0  0  0  0  0
  -10.4422    1.2347   -0.0000 C   0  0  0  0  0  0  0  0  0  0  0  0
  -11.6651   -1.0466   -0.0000 C   0  0  0  0  0  0  0  0  0  0  0  0
  -11.7710    1.9520   -0.0000 C   0  0  0  0  0  0  0  0  0  0  0  0
  -12.9939   -0.3175   -0.0000 C   0  0  0  0  0  0  0  0  0  0  0  0
  -13.0527    1.1877   -0.0000 C   0  0  0  0  0  0  0  0  0  0  0  0
  -14.3698    1.9050   -0.0000 O   0  0  0  0  0  0  0  0  0  0  0  0
  -15.6868    1.1877   -0.0000 C   0  0  0  0  0  0  0  0  0  0  0  0
  -15.7103   -0.2822   -0.0000 N   0  0  0  0  0  0  0  0  0  0  0  0
  -16.9921    1.9638   -0.0000 N   0  0  0  0  0  0  0  0  0  0  0  0
  -17.0273   -1.0113   -0.0000 C   0  0  0  0  0  0  0  0  0  0  0  0
  -18.3091    1.2465   -0.0000 C   0  0  0  0  0  0  0  0  0  0  0  0
  -18.3326   -0.2352   -0.0000 C   0  0  0  0  0  0  0  0  0  0  0  0
  1  2  2  0  0  0  0
  1  3  2  0  0  0  0
  1  4  1  0  0  0  0
  1  5  1  0  0  0  0
  4  6  1  0  0  0  0
  5  7  1  0  0  0  0
  6  8  2  0  0  0  0
  6  9  1  0  0  0  0
  8 10  1  0  0  0  0
  8 11  1  0  0  0  0
  9 12  2  0  0  0  0
 11 13  2  0  0  0  0
 11 14  1  0  0  0  0
 14 15  1  0  0  0  0
 15 16  1  0  0  0  0
 15 17  2  0  0  0  0
 16 18  2  0  0  0  0
 16 19  1  0  0  0  0
 17 20  1  0  0  0  0
 17 21  1  0  0  0  0
 19 22  1  0  0  0  0
 20 23  1  0  0  0  0
 22 24  1  0  0  0  0
 23 25  2  0  0  0  0
 24 26  2  0  0  0  0
 26 27  1  0  0  0  0
 27 28  1  0  0  0  0
 28 29  2  0  0  0  0
 28 30  1  0  0  0  0
 29 31  1  0  0  0  0
 30 32  2  0  0  0  0
 31 33  2  0  0  0  0
 12 13  1  0  0  0  0
 20 22  2  0  0  0  0
 25 26  1  0  0  0  0
 32 33  1  0  0  0  0
M  END
>  <MolRegNo>
1606563

>  <m>
=

>  <Value>
26000

>  <Unit>
nM

>  <Type>
IC50

>  <pValue>
4.58

>  <Ligand Efficiency>
0

>  <Binding Efficiency>
0

>  <Surface Efficiency>
0

>  <Assay Index>
860713

>  <Assay Category>


>  <Assay Organism>
Homo sapiens

>  <Target ID>
17045

>  <Target Name>
Cytochrome P450 3A4

>  <Target Organism>
Homo sapiens

>  <Target Description>
Target is a single protein chain

>  <Sequence Accession>
P08684

>  <Reference>
ACS Med Chem Lett 5 (4), 309-314 (2014)

>  <Pubmed ID>
24900832

>  <DOI>
10.1021/ml400379x

$$$$
1606557
Actelion Java MolfileCreator 1.0

 31 33  0  0  0  0  0  0  0  0999 V2000
    0.0000   -0.0000   -0.0000 S   0  0  0  0  0  0  0  0  0  0  0  0
    0.7463    1.2320   -0.0000 O   0  0  0  0  0  0  0  0  0  0  0  0
    1.4926   -0.3198   -0.0000 O   0  0  0  0  0  0  0  0  0  0  0  0
   -1.2202    0.8885   -0.0000 N   0  0  0  0  0  0  0  0  0  0  0  0
   -0.0118   -1.3268   -0.0000 N   0  0  0  0  0  0  0  0  0  0  0  0
   -1.2557    2.3929   -0.0000 C   0  0  0  0  0  0  0  0  0  0  0  0
    1.1728   -2.2152   -0.0000 C   0  0  0  0  0  0  0  0  0  0  0  0
   -2.5825    3.1392   -0.0000 C   0  0  0  0  0  0  0  0  0  0  0  0
    0.0118    3.1985   -0.0000 C   0  0  0  0  0  0  0  0  0  0  0  0
   -2.6298    4.6555   -0.0000 C   0  0  0  0  0  0  0  0  0  0  0  0
   -0.0355    4.7029   -0.0000 C   0  0  0  0  0  0  0  0  0  0  0  0
   -1.3623    5.4374   -0.0000 C   0  0  0  0  0  0  0  0  0  0  0  0
   -3.9566    5.3782   -0.0000 C   0  0  0  0  0  0  0  0  0  0  0  0
   -5.2597    4.6200   -0.0000 C   0  0  0  0  0  0  0  0  0  0  0  0
   -5.2360    3.1274   -0.0000 C   0  0  0  0  0  0  0  0  0  0  0  0
   -6.5865    5.3426   -0.0000 C   0  0  0  0  0  0  0  0  0  0  0  0
   -3.9329    2.4048   -0.0000 O   0  0  0  0  0  0  0  0  0  0  0  0
   -6.5272    2.3455   -0.0000 O   0  0  0  0  0  0  0  0  0  0  0  0
   -7.8895    4.5845   -0.0000 C   0  0  0  0  0  0  0  0  0  0  0  0
   -6.6338    6.8589   -0.0000 C   0  0  0  0  0  0  0  0  0  0  0  0
   -7.8658    3.0918   -0.0000 C   0  0  0  0  0  0  0  0  0  0  0  0
   -9.2163    5.3071   -0.0000 C   0  0  0  0  0  0  0  0  0  0  0  0
   -9.1571    2.3218   -0.0000 C   0  0  0  0  0  0  0  0  0  0  0  0
  -10.5075    4.5489   -0.0000 C   0  0  0  0  0  0  0  0  0  0  0  0
  -10.4838    3.0682   -0.0000 C   0  0  0  0  0  0  0  0  0  0  0  0
  -11.7751    2.2863   -0.0000 O   0  0  0  0  0  0  0  0  0  0  0  0
  -13.1018    3.0326   -0.0000 C   0  0  0  0  0  0  0  0  0  0  0  0
  -14.4049    2.2626   -0.0000 O   0  0  0  0  0  0  0  0  0  0  0  0
  -13.1492    4.5489   -0.0000 N   0  0  0  0  0  0  0  0  0  0  0  0
  -14.4878    5.2715   -0.0000 C   0  0  0  0  0  0  0  0  0  0  0  0
  -11.8817    5.3308   -0.0000 C   0  0  0  0  0  0  0  0  0  0  0  0
  1  2  2  0  0  0  0
  1  3  2  0  0  0  0
  1  4  1  0  0  0  0
  1  5  1  0  0  0  0
  4  6  1  0  0  0  0
  5  7  1  0  0  0  0
  6  8  2  0  0  0  0
  6  9  1  0  0  0  0
  8 10  1  0  0  0  0
  9 11  2  0  0  0  0
 10 12  2  0  0  0  0
 10 13  1  0  0  0  0
 13 14  1  0  0  0  0
 14 15  1  0  0  0  0
 14 16  2  0  0  0  0
 15 17  2  0  0  0  0
 15 18  1  0  0  0  0
 16 19  1  0  0  0  0
 16 20  1  0  0  0  0
 18 21  1  0  0  0  0
 19 22  1  0  0  0  0
 21 23  1  0  0  0  0
 22 24  2  0  0  0  0
 23 25  2  0  0  0  0
 25 26  1  0  0  0  0
 26 27  1  0  0  0  0
 27 28  2  0  0  0  0
 27 29  1  0  0  0  0
 29 30  1  0  0  0  0
 29 31  1  0  0  0  0
 11 12  1  0  0  0  0
 19 21  2  0  0  0  0
 24 25  1  0  0  0  0
M  END
>  <MolRegNo>
1606557

>  <m>
=

>  <Value>
13000

>  <Unit>
nM

>  <Type>
IC50

>  <pValue>
4.89

>  <Ligand Efficiency>
0

>  <Binding Efficiency>
0

>  <Surface Efficiency>
0

>  <Assay Index>
860713

>  <Assay Category>


>  <Assay Organism>
Homo sapiens

>  <Target ID>
17045

>  <Target Name>
Cytochrome P450 3A4

>  <Target Organism>
Homo sapiens

>  <Target Description>
Target is a single protein chain

>  <Sequence Accession>
P08684

>  <Reference>
ACS Med Chem Lett 5 (4), 309-314 (2014)

>  <Pubmed ID>
24900832

>  <DOI>
10.1021/ml400379x

$$$$
1744850
Actelion Java MolfileCreator 1.0

 33 37  0  0  0  0  0  0  0  0999 V2000
    0.0000   -0.0000   -0.0000 O   0  0  0  0  0  0  0  0  0  0  0  0
   -1.3038   -0.7467   -0.0000 C   0  0  0  0  0  0  0  0  0  0  0  0
   -1.3038   -2.2283   -0.0000 O   0  0  0  0  0  0  0  0  0  0  0  0
   -2.6194   -0.0000   -0.0000 C   0  0  0  0  0  0  0  0  0  0  0  0
   -2.6431    1.5053   -0.0000 O   0  0  0  0  0  0  0  0  0  0  0  0
   -3.9232   -0.7467   -0.0000 C   0  0  0  0  0  0  0  0  0  0  0  0
   -1.3630    2.2757   -0.0000 C   0  0  0  0  0  0  0  0  0  0  0  0
   -5.2388   -0.0000   -0.0000 C   0  0  0  0  0  0  0  0  0  0  0  0
   -3.9232   -2.2401   -0.0000 C   0  0  0  0  0  0  0  0  0  0  0  0
   -1.3867    3.7809   -0.0000 C   0  0  0  0  0  0  0  0  0  0  0  0
   -0.0711    1.5527   -0.0000 C   0  0  0  0  0  0  0  0  0  0  0  0
   -0.0830    3.0461   -0.0000 C   0  0  0  0  0  0  0  0  0  0  0  0
   -5.2625    1.4934   -0.0000 C   0  0  0  0  0  0  0  0  0  0  0  0
   -6.5426   -0.7349   -0.0000 C   0  0  0  0  0  0  0  0  0  0  0  0
   -5.2269   -2.9750   -0.0000 N   0  0  0  0  0  0  0  0  0  0  0  0
   -2.6312   -2.9750   -0.0000 C   0  0  0  0  0  0  0  0  0  0  0  0
   -6.5663    2.2401   -0.0000 C   0  0  0  0  0  0  0  0  0  0  0  0
   -3.9824    2.2638   -0.0000 C   0  0  0  0  0  0  0  0  0  0  0  0
   -6.5544   -2.2164   -0.0000 C   0  0  0  0  0  0  0  0  0  0  0  0
   -7.8463    0.0237   -0.0000 C   0  0  0  0  0  0  0  0  0  0  0  0
   -7.8582    1.5053   -0.0000 N   0  0  0  0  0  0  0  0  0  0  0  0
   -6.5900    3.7454   -0.0000 C   0  0  0  0  0  0  0  0  0  0  0  0
   -4.0061    3.7691   -0.0000 C   0  0  0  0  0  0  0  0  0  0  0  0
   -7.8582   -2.9631   -0.0000 C   0  0  0  0  0  0  0  0  0  0  0  0
   -9.1501   -0.7111   -0.0000 C   0  0  0  0  0  0  0  0  0  0  0  0
   -9.1619    2.2401   -0.0000 C   0  0  0  0  0  0  0  0  0  0  0  0
   -5.3099    4.5158   -0.0000 C   0  0  0  0  0  0  0  0  0  0  0  0
   -7.9056    4.4921   -0.0000 C   0  0  0  0  0  0  0  0  0  0  0  0
   -9.1619   -2.2046   -0.0000 C   0  0  0  0  0  0  0  0  0  0  0  0
   -9.1857    3.7454   -0.0000 C   0  0  0  0  0  0  0  0  0  0  0  0
   -5.3336    6.0210   -0.0000 O   0  0  0  0  0  0  0  0  0  0  0  0
   -7.9293    6.0092   -0.0000 C   0  0  0  0  0  0  0  0  0  0  0  0
   -6.6492    6.7796   -0.0000 C   0  0  0  0  0  0  0  0  0  0  0  0
  1  2  2  0  0  0  0
  2  3  1  0  0  0  0
  2  4  1  0  0  0  0
  4  5  1  1  0  0  0
  4  6  1  0  0  0  0
  5  7  1  0  0  0  0
  6  8  2  0  0  0  0
  6  9  1  0  0  0  0
  7 10  1  0  0  0  0
  7 11  1  0  0  0  0
  7 12  1  0  0  0  0
  8 13  1  0  0  0  0
  8 14  1  0  0  0  0
  9 15  2  0  0  0  0
  9 16  1  0  0  0  0
 13 17  1  0  0  0  0
 13 18  2  0  0  0  0
 14 19  1  0  0  0  0
 14 20  2  0  0  0  0
 17 21  2  0  0  0  0
 17 22  1  0  0  0  0
 18 23  1  0  0  0  0
 19 24  2  0  0  0  0
 20 25  1  0  0  0  0
 21 26  1  0  0  0  0
 22 27  1  0  0  0  0
 22 28  2  0  0  0  0
 24 29  1  0  0  0  0
 26 30  2  0  0  0  0
 27 31  1  0  0  0  0
 28 32  1  0  0  0  0
 31 33  1  0  0  0  0
 15 19  1  0  0  0  0
 23 27  2  0  0  0  0
 25 29  2  0  0  0  0
 28 30  1  0  0  0  0
 32 33  1  0  0  0  0
M  END
>  <MolRegNo>
1744850

>  <m>
=

>  <Value>
23000

>  <Unit>
nM

>  <Type>
IC50

>  <pValue>
4.64

>  <Ligand Efficiency>
0

>  <Binding Efficiency>
0

>  <Surface Efficiency>
0

>  <Assay Index>
858745

>  <Assay Category>


>  <Assay Organism>
Homo sapiens

>  <Target ID>
17045

>  <Target Name>
Cytochrome P450 3A4

>  <Target Organism>
Homo sapiens

>  <Target Description>
Target is a single protein chain

>  <Sequence Accession>
P08684

>  <Reference>
ACS Med Chem Lett 5 (4), 422-427 (2014)

>  <Pubmed ID>
24900852

>  <DOI>
10.1021/ml500002n

$$$$
1746365
Actelion Java MolfileCreator 1.0

 33 36  0  0  0  0  0  0  0  0999 V2000
    0.0000   -0.0000   -0.0000 S   0  0  0  0  0  0  0  0  0  0  0  0
   -0.7705    1.3157   -0.0000 O   0  0  0  0  0  0  0  0  0  0  0  0
    1.0431    1.0905   -0.0000 O   0  0  0  0  0  0  0  0  0  0  0  0
    1.2802   -0.7349   -0.0000 N   0  0  0  0  0  0  0  0  0  0  0  0
   -1.3157   -0.7468   -0.0000 C   0  0  0  0  0  0  0  0  0  0  0  0
    2.5722    0.0356   -0.0000 C   0  0  0  0  0  0  0  0  0  0  0  0
   -2.6315    0.0237   -0.0000 C   0  0  0  0  0  0  0  0  0  0  0  0
   -1.3157   -2.2285   -0.0000 C   0  0  0  0  0  0  0  0  0  0  0  0
    3.8761   -0.6994   -0.0000 C   0  0  0  0  0  0  0  0  0  0  0  0
    2.5604    1.5528   -0.0000 C   0  0  0  0  0  0  0  0  0  0  0  0
   -3.9472   -0.7231   -0.0000 C   0  0  0  0  0  0  0  0  0  0  0  0
   -2.6433    1.5410   -0.0000 C   0  0  0  0  0  0  0  0  0  0  0  0
   -2.6196   -2.9752   -0.0000 C   0  0  0  0  0  0  0  0  0  0  0  0
   -0.0237   -2.9634   -0.0000 C   0  0  0  0  0  0  0  0  0  0  0  0
    5.1682    0.0711   -0.0000 N   0  0  0  0  0  0  0  0  0  0  0  0
   -3.9591   -2.2166   -0.0000 C   0  0  0  0  0  0  0  0  0  0  0  0
    6.4602   -0.6638   -0.0000 C   0  0  0  0  0  0  0  0  0  0  0  0
   -5.2748   -2.9634   -0.0000 C   0  0  0  0  0  0  0  0  0  0  0  0
    7.7167    0.1067   -0.0000 C   0  0  0  0  0  0  0  0  0  0  0  0
    6.4483   -2.1573   -0.0000 C   0  0  0  0  0  0  0  0  0  0  0  0
    9.0206   -0.6164   -0.0000 C   0  0  0  0  0  0  0  0  0  0  0  0
    8.0012    1.6002   -0.0000 C   0  0  0  0  0  0  0  0  0  0  0  0
    7.7404   -2.8804   -0.0000 C   0  0  0  0  0  0  0  0  0  0  0  0
   10.1229    0.4267   -0.0000 N   0  0  0  0  0  0  0  0  0  0  0  0
    9.0206   -2.1099   -0.0000 C   0  0  0  0  0  0  0  0  0  0  0  0
    9.4947    1.7899   -0.0000 N   0  0  0  0  0  0  0  0  0  0  0  0
   11.5809    0.1541   -0.0000 C   0  0  0  0  0  0  0  0  0  0  0  0
   12.0551   -1.2565   -0.0000 C   0  0  0  0  0  0  0  0  0  0  0  0
   12.5529    1.2920   -0.0000 C   0  0  0  0  0  0  0  0  0  0  0  0
   13.5131   -1.5410   -0.0000 C   0  0  0  0  0  0  0  0  0  0  0  0
   14.0109    1.0194   -0.0000 C   0  0  0  0  0  0  0  0  0  0  0  0
   14.4969   -0.3912   -0.0000 C   0  0  0  0  0  0  0  0  0  0  0  0
   15.9549   -0.6638   -0.0000 F   0  0  0  0  0  0  0  0  0  0  0  0
  1  2  2  0  0  0  0
  1  3  2  0  0  0  0
  1  4  1  0  0  0  0
  1  5  1  0  0  0  0
  6  4  1  1  0  0  0
  5  7  2  0  0  0  0
  5  8  1  0  0  0  0
  6  9  1  0  0  0  0
  6 10  1  0  0  0  0
  7 11  1  0  0  0  0
  7 12  1  0  0  0  0
  8 13  2  0  0  0  0
  8 14  1  0  0  0  0
  9 15  1  0  0  0  0
 11 16  2  0  0  0  0
 15 17  1  0  0  0  0
 16 18  1  0  0  0  0
 17 19  2  0  0  0  0
 17 20  1  0  0  0  0
 19 21  1  0  0  0  0
 19 22  1  0  0  0  0
 20 23  2  0  0  0  0
 21 24  1  0  0  0  0
 21 25  2  0  0  0  0
 22 26  2  0  0  0  0
 24 27  1  0  0  0  0
 27 28  2  0  0  0  0
 27 29  1  0  0  0  0
 28 30  1  0  0  0  0
 29 31  2  0  0  0  0
 30 32  2  0  0  0  0
 32 33  1  0  0  0  0
 13 16  1  0  0  0  0
 23 25  1  0  0  0  0
 24 26  1  0  0  0  0
 31 32  1  0  0  0  0
M  END
>  <MolRegNo>
1746365

>  <m>
=

>  <Value>
10000

>  <Unit>
nM

>  <Type>
IC50

>  <pValue>
5

>  <Ligand Efficiency>
0

>  <Binding Efficiency>
0

>  <Surface Efficiency>
0

>  <Assay Index>
858315

>  <Assay Category>


>  <Assay Organism>
Homo sapiens

>  <Target ID>
17045

>  <Target Name>
Cytochrome P450 3A4

>  <Target Organism>
Homo sapiens

>  <Target Description>
Target is a single protein chain

>  <Sequence Accession>
P08684

>  <Reference>
Bioorg Med Chem Lett 24 (11), 2571-2577 (2014)

>  <Pubmed ID>
24755427

>  <DOI>
10.1016/j.bmcl.2014.03.070

$$$$
1746383
Actelion Java MolfileCreator 1.0

 36 40  0  0  0  0  0  0  0  0999 V2000
    0.0000   -0.0000   -0.0000 S   0  0  0  0  0  0  0  0  0  0  0  0
   -0.7698    1.3265   -0.0000 O   0  0  0  0  0  0  0  0  0  0  0  0
    1.0422    1.0896   -0.0000 O   0  0  0  0  0  0  0  0  0  0  0  0
    1.2909   -0.7343   -0.0000 N   0  0  0  0  0  0  0  0  0  0  0  0
   -1.3146   -0.7461   -0.0000 C   0  0  0  0  0  0  0  0  0  0  0  0
    2.5819    0.0355   -0.0000 C   0  0  0  0  0  0  0  0  0  0  0  0
   -2.7003   -0.1303   -0.0000 C   0  0  0  0  0  0  0  0  0  0  0  0
   -1.4804   -2.2384   -0.0000 C   0  0  0  0  0  0  0  0  0  0  0  0
    3.8846   -0.6988   -0.0000 C   0  0  0  0  0  0  0  0  0  0  0  0
    2.5700    1.5515   -0.0000 C   0  0  0  0  0  0  0  0  0  0  0  0
   -3.7188   -1.2436   -0.0000 N   0  0  0  0  0  0  0  0  0  0  0  0
   -3.0319    1.3501   -0.0000 C   0  0  0  0  0  0  0  0  0  0  0  0
   -2.9608   -2.5463   -0.0000 N   0  0  0  0  0  0  0  0  0  0  0  0
   -0.3671   -3.2214   -0.0000 C   0  0  0  0  0  0  0  0  0  0  0  0
    5.1756    0.0711   -0.0000 N   0  0  0  0  0  0  0  0  0  0  0  0
   -3.5767   -3.9083   -0.0000 C   0  0  0  0  0  0  0  0  0  0  0  0
    6.4665   -0.6632   -0.0000 C   0  0  0  0  0  0  0  0  0  0  0  0
   -5.0690   -4.2162   -0.0000 C   0  0  0  0  0  0  0  0  0  0  0  0
   -2.8306   -5.1874   -0.0000 C   0  0  0  0  0  0  0  0  0  0  0  0
    7.7219    0.1066   -0.0000 C   0  0  0  0  0  0  0  0  0  0  0  0
    6.4546   -2.1555   -0.0000 C   0  0  0  0  0  0  0  0  0  0  0  0
   -5.2229   -5.6967   -0.0000 C   0  0  0  0  0  0  0  0  0  0  0  0
   -3.8373   -6.3007   -0.0000 C   0  0  0  0  0  0  0  0  0  0  0  0
    9.0365   -0.6159   -0.0000 C   0  0  0  0  0  0  0  0  0  0  0  0
    8.0061    1.5989   -0.0000 C   0  0  0  0  0  0  0  0  0  0  0  0
    7.7456   -2.8779   -0.0000 C   0  0  0  0  0  0  0  0  0  0  0  0
   10.1379    0.4264   -0.0000 N   0  0  0  0  0  0  0  0  0  0  0  0
    9.0365   -2.1081   -0.0000 C   0  0  0  0  0  0  0  0  0  0  0  0
    9.4984    1.7884   -0.0000 N   0  0  0  0  0  0  0  0  0  0  0  0
   11.5947    0.1540   -0.0000 C   0  0  0  0  0  0  0  0  0  0  0  0
   12.0684   -1.2554   -0.0000 C   0  0  0  0  0  0  0  0  0  0  0  0
   12.5658    1.2909   -0.0000 C   0  0  0  0  0  0  0  0  0  0  0  0
   13.5251   -1.5396   -0.0000 N   0  0  0  0  0  0  0  0  0  0  0  0
   14.0226    1.0185   -0.0000 C   0  0  0  0  0  0  0  0  0  0  0  0
   14.5081   -0.3908   -0.0000 C   0  0  0  0  0  0  0  0  0  0  0  0
   15.9767   -0.6632   -0.0000 F   0  0  0  0  0  0  0  0  0  0  0  0
  1  2  2  0  0  0  0
  1  3  2  0  0  0  0
  1  4  1  0  0  0  0
  1  5  1  0  0  0  0
  6  4  1  1  0  0  0
  5  7  1  0  0  0  0
  5  8  2  0  0  0  0
  6  9  1  0  0  0  0
  6 10  1  0  0  0  0
  7 11  2  0  0  0  0
  7 12  1  0  0  0  0
  8 13  1  0  0  0  0
  8 14  1  0  0  0  0
  9 15  1  0  0  0  0
 13 16  1  0  0  0  0
 15 17  1  0  0  0  0
 16 18  1  0  0  0  0
 16 19  1  0  0  0  0
 17 20  2  0  0  0  0
 17 21  1  0  0  0  0
 18 22  1  0  0  0  0
 19 23  1  0  0  0  0
 20 24  1  0  0  0  0
 20 25  1  0  0  0  0
 21 26  2  0  0  0  0
 24 27  1  0  0  0  0
 24 28  2  0  0  0  0
 25 29  2  0  0  0  0
 27 30  1  0  0  0  0
 30 31  2  0  0  0  0
 30 32  1  0  0  0  0
 31 33  1  0  0  0  0
 32 34  2  0  0  0  0
 33 35  2  0  0  0  0
 35 36  1  0  0  0  0
 11 13  1  0  0  0  0
 22 23  1  0  0  0  0
 26 28  1  0  0  0  0
 27 29  1  0  0  0  0
 34 35  1  0  0  0  0
M  END
>  <MolRegNo>
1746383

>  <m>
=

>  <Value>
22000

>  <Unit>
nM

>  <Type>
IC50

>  <pValue>
4.66

>  <Ligand Efficiency>
0

>  <Binding Efficiency>
0

>  <Surface Efficiency>
0

>  <Assay Index>
858315

>  <Assay Category>


>  <Assay Organism>
Homo sapiens

>  <Target ID>
17045

>  <Target Name>
Cytochrome P450 3A4

>  <Target Organism>
Homo sapiens

>  <Target Description>
Target is a single protein chain

>  <Sequence Accession>
P08684

>  <Reference>
Bioorg Med Chem Lett 24 (11), 2571-2577 (2014)

>  <Pubmed ID>
24755427

>  <DOI>
10.1016/j.bmcl.2014.03.070

$$$$
1749589
Actelion Java MolfileCreator 1.0

 24 26  0  0  0  0  0  0  0  0999 V2000
    0.0000   -0.0000   -0.0000 S   0  0  0  0  0  0  0  0  0  0  0  0
   -1.2822   -0.8800   -0.0000 C   0  0  0  0  0  0  0  0  0  0  0  0
   -0.5028    1.4959   -0.0000 C   0  0  0  0  0  0  0  0  0  0  0  0
   -2.5645    0.0251   -0.0000 C   0  0  0  0  0  0  0  0  0  0  0  0
   -1.2948   -2.4388   -0.0000 C   0  0  0  0  0  0  0  0  0  0  0  0
   -2.0868    1.5085   -0.0000 N   0  0  0  0  0  0  0  0  0  0  0  0
   -2.3885   -3.0547   -0.0000 O   0  0  0  0  0  0  0  0  0  0  0  0
    0.0503   -3.2056   -0.0000 C   0  0  0  0  0  0  0  0  0  0  0  0
   -1.3074   -4.0227   -0.0000 C   0  0  0  0  0  0  0  0  0  0  0  0
    0.0377   -4.7644   -0.0000 C   0  0  0  0  0  0  0  0  0  0  0  0
    1.3954   -2.4136   -0.0000 C   0  0  0  0  0  0  0  0  0  0  0  0
   -2.4010   -4.6387   -0.0000 C   0  0  0  0  0  0  0  0  0  0  0  0
   -0.2388   -4.6387   -0.0000 C   0  0  0  0  0  0  0  0  0  0  0  0
    1.3828   -5.5312   -0.0000 C   0  0  0  0  0  0  0  0  0  0  0  0
    2.7405   -3.1804   -0.0000 C   0  0  0  0  0  0  0  0  0  0  0  0
    2.7279   -4.7392   -0.0000 C   0  0  0  0  0  0  0  0  0  0  0  0
    1.3702   -7.0900   -0.0000 C   0  0  0  0  0  0  0  0  0  0  0  0
    4.0730   -5.5061   -0.0000 C   0  0  0  0  0  0  0  0  0  0  0  0
    2.7153   -7.8568   -0.0000 C   0  0  0  0  0  0  0  0  0  0  0  0
    4.0604   -7.0649   -0.0000 C   0  0  0  0  0  0  0  0  0  0  0  0
    2.7027   -9.4156   -0.0000 O   0  0  0  0  0  0  0  0  0  0  0  0
    5.4055   -7.8317   -0.0000 O   0  0  0  0  0  0  0  0  0  0  0  0
    1.6091  -10.0316   -0.0000 C   0  0  0  0  0  0  0  0  0  0  0  0
    6.4740   -7.1906   -0.0000 C   0  0  0  0  0  0  0  0  0  0  0  0
  1  2  1  0  0  0  0
  1  3  1  0  0  0  0
  2  4  2  0  0  0  0
  2  5  1  0  0  0  0
  3  6  2  0  0  0  0
  5  7  1  0  0  0  0
  5  8  1  0  0  0  0
  5  9  1  0  0  0  0
  8 10  2  0  0  0  0
  8 11  1  0  0  0  0
  9 12  1  0  0  0  0
  9 13  1  0  0  0  0
 10 14  1  0  0  0  0
 11 15  2  0  0  0  0
 14 16  1  0  0  0  0
 14 17  2  0  0  0  0
 16 18  2  0  0  0  0
 17 19  1  0  0  0  0
 18 20  1  0  0  0  0
 19 21  1  0  0  0  0
 20 22  1  0  0  0  0
 21 23  1  0  0  0  0
 22 24  1  0  0  0  0
  4  6  1  0  0  0  0
 15 16  1  0  0  0  0
 19 20  2  0  0  0  0
M  END
>  <MolRegNo>
1749589

>  <m>
=

>  <Value>
770

>  <Unit>
nM

>  <Type>
IC50

>  <pValue>
6.11

>  <Ligand Efficiency>
0

>  <Binding Efficiency>
0

>  <Surface Efficiency>
0

>  <Assay Index>
855301

>  <Assay Category>


>  <Assay Organism>
Homo sapiens

>  <Target ID>
17045

>  <Target Name>
Cytochrome P450 3A4

>  <Target Organism>
Homo sapiens

>  <Target Description>
Target is a single protein chain

>  <Sequence Accession>
P08684

>  <Reference>
Bioorg Med Chem Lett 24 (11), 2444-2447 (2014)

>  <Pubmed ID>
24775307

>  <DOI>
10.1016/j.bmcl.2014.04.024

$$$$
1749594
Actelion Java MolfileCreator 1.0

 24 26  0  0  0  0  0  0  0  0999 V2000
    0.0000   -0.0000   -0.0000 O   0  0  0  0  0  0  0  0  0  0  0  0
    1.2967   -0.7376   -0.0000 C   0  0  0  0  0  0  0  0  0  0  0  0
   -1.3086   -0.7376   -0.0000 C   0  0  0  0  0  0  0  0  0  0  0  0
    1.2848   -2.2366   -0.0000 C   0  0  0  0  0  0  0  0  0  0  0  0
    2.5935    0.0238   -0.0000 C   0  0  0  0  0  0  0  0  0  0  0  0
   -0.0357   -2.9742   -0.0000 O   0  0  0  0  0  0  0  0  0  0  0  0
    2.5697   -2.9742   -0.0000 C   0  0  0  0  0  0  0  0  0  0  0  0
    3.8783   -0.7138   -0.0000 C   0  0  0  0  0  0  0  0  0  0  0  0
   -1.3562   -2.2128   -0.0000 C   0  0  0  0  0  0  0  0  0  0  0  0
    3.8545   -2.2128   -0.0000 C   0  0  0  0  0  0  0  0  0  0  0  0
    5.1631    0.0595   -0.0000 C   0  0  0  0  0  0  0  0  0  0  0  0
    5.1512   -2.9504   -0.0000 C   0  0  0  0  0  0  0  0  0  0  0  0
    6.4599   -0.6781   -0.0000 C   0  0  0  0  0  0  0  0  0  0  0  0
    6.4480   -2.1890   -0.0000 C   0  0  0  0  0  0  0  0  0  0  0  0
    7.7447    0.0952   -0.0000 C   0  0  0  0  0  0  0  0  0  0  0  0
    6.9714    1.4157   -0.0000 O   0  0  0  0  0  0  0  0  0  0  0  0
    9.0414   -0.6424   -0.0000 C   0  0  0  0  0  0  0  0  0  0  0  0
    8.4704    1.4157   -0.0000 C   0  0  0  0  0  0  0  0  0  0  0  0
   10.3977   -0.0119   -0.0000 N   0  0  0  0  0  0  0  0  0  0  0  0
    9.1961   -2.1295   -0.0000 C   0  0  0  0  0  0  0  0  0  0  0  0
    7.6971    2.7243   -0.0000 C   0  0  0  0  0  0  0  0  0  0  0  0
    9.9575    1.4395   -0.0000 C   0  0  0  0  0  0  0  0  0  0  0  0
   11.3970   -1.1183   -0.0000 C   0  0  0  0  0  0  0  0  0  0  0  0
   10.6594   -2.4269   -0.0000 N   0  0  0  0  0  0  0  0  0  0  0  0
  1  2  1  0  0  0  0
  1  3  1  0  0  0  0
  2  4  1  0  0  0  0
  2  5  2  0  0  0  0
  4  6  1  0  0  0  0
  4  7  2  0  0  0  0
  5  8  1  0  0  0  0
  6  9  1  0  0  0  0
  7 10  1  0  0  0  0
  8 11  2  0  0  0  0
 10 12  2  0  0  0  0
 11 13  1  0  0  0  0
 12 14  1  0  0  0  0
 13 15  1  0  0  0  0
 15 16  1  0  0  0  0
 15 17  1  0  0  0  0
 15 18  1  0  0  0  0
 17 19  1  0  0  0  0
 17 20  2  0  0  0  0
 18 21  1  0  0  0  0
 18 22  1  0  0  0  0
 19 23  2  0  0  0  0
 20 24  1  0  0  0  0
  8 10  1  0  0  0  0
 13 14  2  0  0  0  0
 23 24  1  0  0  0  0
M  END
>  <MolRegNo>
1749594

>  <m>
=

>  <Value>
1600

>  <Unit>
nM

>  <Type>
IC50

>  <pValue>
5.8

>  <Ligand Efficiency>
0

>  <Binding Efficiency>
0

>  <Surface Efficiency>
0

>  <Assay Index>
855301

>  <Assay Category>


>  <Assay Organism>
Homo sapiens

>  <Target ID>
17045

>  <Target Name>
Cytochrome P450 3A4

>  <Target Organism>
Homo sapiens

>  <Target Description>
Target is a single protein chain

>  <Sequence Accession>
P08684

>  <Reference>
Bioorg Med Chem Lett 24 (11), 2444-2447 (2014)

>  <Pubmed ID>
24775307

>  <DOI>
10.1016/j.bmcl.2014.04.024

$$$$
1749585
Actelion Java MolfileCreator 1.0

 24 26  0  0  0  0  0  0  0  0999 V2000
    0.0000   -0.0000   -0.0000 O   0  0  0  0  0  0  0  0  0  0  0  0
    1.2971   -0.7378   -0.0000 C   0  0  0  0  0  0  0  0  0  0  0  0
   -1.3090   -0.7378   -0.0000 C   0  0  0  0  0  0  0  0  0  0  0  0
    1.2852   -2.2372   -0.0000 C   0  0  0  0  0  0  0  0  0  0  0  0
    2.5942    0.0238   -0.0000 C   0  0  0  0  0  0  0  0  0  0  0  0
   -0.0238   -2.9750   -0.0000 O   0  0  0  0  0  0  0  0  0  0  0  0
    2.5704   -2.9750   -0.0000 C   0  0  0  0  0  0  0  0  0  0  0  0
    3.8793   -0.7140   -0.0000 C   0  0  0  0  0  0  0  0  0  0  0  0
   -1.3447   -2.2134   -0.0000 C   0  0  0  0  0  0  0  0  0  0  0  0
    3.8555   -2.2134   -0.0000 C   0  0  0  0  0  0  0  0  0  0  0  0
    5.1645    0.0595   -0.0000 C   0  0  0  0  0  0  0  0  0  0  0  0
    5.1526   -2.9512   -0.0000 C   0  0  0  0  0  0  0  0  0  0  0  0
    6.4616   -0.6783   -0.0000 C   0  0  0  0  0  0  0  0  0  0  0  0
    6.4497   -2.1896   -0.0000 C   0  0  0  0  0  0  0  0  0  0  0  0
    7.7468    0.0952   -0.0000 C   0  0  0  0  0  0  0  0  0  0  0  0
    6.9733    1.4161   -0.0000 O   0  0  0  0  0  0  0  0  0  0  0  0
    9.0439   -0.6426   -0.0000 C   0  0  0  0  0  0  0  0  0  0  0  0
    8.4727    1.4161   -0.0000 C   0  0  0  0  0  0  0  0  0  0  0  0
   10.4004   -0.0119   -0.0000 N   0  0  0  0  0  0  0  0  0  0  0  0
    9.1986   -2.1301   -0.0000 C   0  0  0  0  0  0  0  0  0  0  0  0
    7.6992    2.7251   -0.0000 C   0  0  0  0  0  0  0  0  0  0  0  0
    9.9601    1.4399   -0.0000 C   0  0  0  0  0  0  0  0  0  0  0  0
   11.4000   -1.1186   -0.0000 N   0  0  0  0  0  0  0  0  0  0  0  0
   10.6622   -2.4276   -0.0000 C   0  0  0  0  0  0  0  0  0  0  0  0
  1  2  1  0  0  0  0
  1  3  1  0  0  0  0
  2  4  1  0  0  0  0
  2  5  2  0  0  0  0
  4  6  1  0  0  0  0
  4  7  2  0  0  0  0
  5  8  1  0  0  0  0
  6  9  1  0  0  0  0
  7 10  1  0  0  0  0
  8 11  2  0  0  0  0
 10 12  2  0  0  0  0
 11 13  1  0  0  0  0
 12 14  1  0  0  0  0
 13 15  1  0  0  0  0
 15 16  1  0  0  0  0
 15 17  1  0  0  0  0
 15 18  1  0  0  0  0
 17 19  2  0  0  0  0
 17 20  1  0  0  0  0
 18 21  1  0  0  0  0
 18 22  1  0  0  0  0
 19 23  1  0  0  0  0
 20 24  2  0  0  0  0
  8 10  1  0  0  0  0
 13 14  2  0  0  0  0
 23 24  1  0  0  0  0
M  END
>  <MolRegNo>
1749585

>  <m>
=

>  <Value>
1800

>  <Unit>
nM

>  <Type>
IC50

>  <pValue>
5.75

>  <Ligand Efficiency>
0

>  <Binding Efficiency>
0

>  <Surface Efficiency>
0

>  <Assay Index>
855301

>  <Assay Category>


>  <Assay Organism>
Homo sapiens

>  <Target ID>
17045

>  <Target Name>
Cytochrome P450 3A4

>  <Target Organism>
Homo sapiens

>  <Target Description>
Target is a single protein chain

>  <Sequence Accession>
P08684

>  <Reference>
Bioorg Med Chem Lett 24 (11), 2444-2447 (2014)

>  <Pubmed ID>
24775307

>  <DOI>
10.1016/j.bmcl.2014.04.024

$$$$
1749592
Actelion Java MolfileCreator 1.0

 25 27  0  0  0  0  0  0  0  0999 V2000
    0.0000   -0.0000   -0.0000 O   0  0  0  0  0  0  0  0  0  0  0  0
    1.2863   -0.7384   -0.0000 C   0  0  0  0  0  0  0  0  0  0  0  0
   -1.3101   -0.7384   -0.0000 C   0  0  0  0  0  0  0  0  0  0  0  0
    1.2743   -2.2390   -0.0000 C   0  0  0  0  0  0  0  0  0  0  0  0
    2.5844    0.0238   -0.0000 C   0  0  0  0  0  0  0  0  0  0  0  0
   -0.0357   -2.9775   -0.0000 O   0  0  0  0  0  0  0  0  0  0  0  0
    2.5606   -2.9775   -0.0000 C   0  0  0  0  0  0  0  0  0  0  0  0
    3.8707   -0.7146   -0.0000 C   0  0  0  0  0  0  0  0  0  0  0  0
   -1.3577   -2.2152   -0.0000 C   0  0  0  0  0  0  0  0  0  0  0  0
    3.8469   -2.2152   -0.0000 C   0  0  0  0  0  0  0  0  0  0  0  0
    5.1569    0.0595   -0.0000 C   0  0  0  0  0  0  0  0  0  0  0  0
    5.1450   -2.9536   -0.0000 C   0  0  0  0  0  0  0  0  0  0  0  0
    6.4551   -0.6789   -0.0000 C   0  0  0  0  0  0  0  0  0  0  0  0
    6.4432   -2.1914   -0.0000 C   0  0  0  0  0  0  0  0  0  0  0  0
    7.7414    0.0953   -0.0000 C   0  0  0  0  0  0  0  0  0  0  0  0
    6.9672    1.4173   -0.0000 O   0  0  0  0  0  0  0  0  0  0  0  0
    9.0395   -0.6431   -0.0000 C   0  0  0  0  0  0  0  0  0  0  0  0
    8.4679    1.4173   -0.0000 C   0  0  0  0  0  0  0  0  0  0  0  0
    9.0276   -2.1319   -0.0000 C   0  0  0  0  0  0  0  0  0  0  0  0
   10.3139    0.1310   -0.0000 C   0  0  0  0  0  0  0  0  0  0  0  0
    7.6937    2.7273   -0.0000 C   0  0  0  0  0  0  0  0  0  0  0  0
    9.9566    1.4411   -0.0000 C   0  0  0  0  0  0  0  0  0  0  0  0
   10.3258   -2.8703   -0.0000 C   0  0  0  0  0  0  0  0  0  0  0  0
   11.6121   -0.5955   -0.0000 C   0  0  0  0  0  0  0  0  0  0  0  0
   11.6121   -2.0961   -0.0000 N   0  0  0  0  0  0  0  0  0  0  0  0
  1  2  1  0  0  0  0
  1  3  1  0  0  0  0
  2  4  1  0  0  0  0
  2  5  2  0  0  0  0
  4  6  1  0  0  0  0
  4  7  2  0  0  0  0
  5  8  1  0  0  0  0
  6  9  1  0  0  0  0
  7 10  1  0  0  0  0
  8 11  2  0  0  0  0
 10 12  2  0  0  0  0
 11 13  1  0  0  0  0
 12 14  1  0  0  0  0
 13 15  1  0  0  0  0
 15 16  1  0  0  0  0
 15 17  1  0  0  0  0
 15 18  1  0  0  0  0
 17 19  2  0  0  0  0
 17 20  1  0  0  0  0
 18 21  1  0  0  0  0
 18 22  1  0  0  0  0
 19 23  1  0  0  0  0
 20 24  2  0  0  0  0
 23 25  2  0  0  0  0
  8 10  1  0  0  0  0
 13 14  2  0  0  0  0
 24 25  1  0  0  0  0
M  END
>  <MolRegNo>
1749592

>  <m>
=

>  <Value>
4500

>  <Unit>
nM

>  <Type>
IC50

>  <pValue>
5.35

>  <Ligand Efficiency>
0

>  <Binding Efficiency>
0

>  <Surface Efficiency>
0

>  <Assay Index>
855301

>  <Assay Category>


>  <Assay Organism>
Homo sapiens

>  <Target ID>
17045

>  <Target Name>
Cytochrome P450 3A4

>  <Target Organism>
Homo sapiens

>  <Target Description>
Target is a single protein chain

>  <Sequence Accession>
P08684

>  <Reference>
Bioorg Med Chem Lett 24 (11), 2444-2447 (2014)

>  <Pubmed ID>
24775307

>  <DOI>
10.1016/j.bmcl.2014.04.024

$$$$
1749590
Actelion Java MolfileCreator 1.0

 24 26  0  0  0  0  0  0  0  0999 V2000
    0.0000   -0.0000   -0.0000 O   0  0  0  0  0  0  0  0  0  0  0  0
   -1.3766   -0.6052   -0.0000 C   0  0  0  0  0  0  0  0  0  0  0  0
    0.9968   -1.0918   -0.0000 C   0  0  0  0  0  0  0  0  0  0  0  0
   -1.2223   -2.0768   -0.0000 C   0  0  0  0  0  0  0  0  0  0  0  0
   -2.6820    0.1543   -0.0000 C   0  0  0  0  0  0  0  0  0  0  0  0
    0.2373   -2.3734   -0.0000 N   0  0  0  0  0  0  0  0  0  0  0  0
   -3.4534    1.4715   -0.0000 O   0  0  0  0  0  0  0  0  0  0  0  0
   -3.9874   -0.5815   -0.0000 C   0  0  0  0  0  0  0  0  0  0  0  0
   -1.9581    1.4715   -0.0000 C   0  0  0  0  0  0  0  0  0  0  0  0
   -5.2928    0.1780   -0.0000 C   0  0  0  0  0  0  0  0  0  0  0  0
   -3.9993   -2.0768   -0.0000 C   0  0  0  0  0  0  0  0  0  0  0  0
   -2.7295    2.7769   -0.0000 C   0  0  0  0  0  0  0  0  0  0  0  0
   -0.4747    1.4953   -0.0000 C   0  0  0  0  0  0  0  0  0  0  0  0
   -6.5982   -0.5578   -0.0000 C   0  0  0  0  0  0  0  0  0  0  0  0
   -5.3165   -2.8125   -0.0000 C   0  0  0  0  0  0  0  0  0  0  0  0
   -6.6100   -2.0412   -0.0000 C   0  0  0  0  0  0  0  0  0  0  0  0
   -7.9036    0.2017   -0.0000 C   0  0  0  0  0  0  0  0  0  0  0  0
   -7.9154   -2.7769   -0.0000 C   0  0  0  0  0  0  0  0  0  0  0  0
   -9.2090   -0.5340   -0.0000 C   0  0  0  0  0  0  0  0  0  0  0  0
   -9.2208   -2.0174   -0.0000 C   0  0  0  0  0  0  0  0  0  0  0  0
  -10.5144    0.2255   -0.0000 O   0  0  0  0  0  0  0  0  0  0  0  0
  -10.5262   -2.7532   -0.0000 O   0  0  0  0  0  0  0  0  0  0  0  0
  -11.8198   -0.5103   -0.0000 C   0  0  0  0  0  0  0  0  0  0  0  0
  -11.8316   -1.9937   -0.0000 C   0  0  0  0  0  0  0  0  0  0  0  0
  1  2  1  0  0  0  0
  1  3  1  0  0  0  0
  2  4  2  0  0  0  0
  2  5  1  0  0  0  0
  3  6  2  0  0  0  0
  5  7  1  0  0  0  0
  5  8  1  0  0  0  0
  5  9  1  0  0  0  0
  8 10  2  0  0  0  0
  8 11  1  0  0  0  0
  9 12  1  0  0  0  0
  9 13  1  0  0  0  0
 10 14  1  0  0  0  0
 11 15  2  0  0  0  0
 14 16  1  0  0  0  0
 14 17  2  0  0  0  0
 16 18  2  0  0  0  0
 17 19  1  0  0  0  0
 18 20  1  0  0  0  0
 19 21  1  0  0  0  0
 20 22  1  0  0  0  0
 21 23  1  0  0  0  0
 22 24  1  0  0  0  0
  4  6  1  0  0  0  0
 15 16  1  0  0  0  0
 19 20  2  0  0  0  0
M  END
>  <MolRegNo>
1749590

>  <m>
=

>  <Value>
6500

>  <Unit>
nM

>  <Type>
IC50

>  <pValue>
5.19

>  <Ligand Efficiency>
0

>  <Binding Efficiency>
0

>  <Surface Efficiency>
0

>  <Assay Index>
855301

>  <Assay Category>


>  <Assay Organism>
Homo sapiens

>  <Target ID>
17045

>  <Target Name>
Cytochrome P450 3A4

>  <Target Organism>
Homo sapiens

>  <Target Description>
Target is a single protein chain

>  <Sequence Accession>
P08684

>  <Reference>
Bioorg Med Chem Lett 24 (11), 2444-2447 (2014)

>  <Pubmed ID>
24775307

>  <DOI>
10.1016/j.bmcl.2014.04.024

$$$$
1749591
Actelion Java MolfileCreator 1.0

 25 27  0  0  0  0  0  0  0  0999 V2000
    0.0000   -0.0000   -0.0000 O   0  0  0  0  0  0  0  0  0  0  0  0
    1.2984   -0.7386   -0.0000 C   0  0  0  0  0  0  0  0  0  0  0  0
   -1.3103   -0.7386   -0.0000 C   0  0  0  0  0  0  0  0  0  0  0  0
    1.2865   -2.2395   -0.0000 C   0  0  0  0  0  0  0  0  0  0  0  0
    2.5968    0.0238   -0.0000 C   0  0  0  0  0  0  0  0  0  0  0  0
   -0.0238   -2.9780   -0.0000 O   0  0  0  0  0  0  0  0  0  0  0  0
    2.5849   -2.9780   -0.0000 C   0  0  0  0  0  0  0  0  0  0  0  0
    3.8833   -0.7147   -0.0000 C   0  0  0  0  0  0  0  0  0  0  0  0
   -1.3461   -2.2157   -0.0000 C   0  0  0  0  0  0  0  0  0  0  0  0
    3.8714   -2.2157   -0.0000 C   0  0  0  0  0  0  0  0  0  0  0  0
    5.1699    0.0476   -0.0000 C   0  0  0  0  0  0  0  0  0  0  0  0
    5.1579   -2.9542   -0.0000 C   0  0  0  0  0  0  0  0  0  0  0  0
    6.4683   -0.6909   -0.0000 C   0  0  0  0  0  0  0  0  0  0  0  0
    6.4564   -2.1918   -0.0000 C   0  0  0  0  0  0  0  0  0  0  0  0
    7.7548    0.0834   -0.0000 C   0  0  0  0  0  0  0  0  0  0  0  0
    6.9805    1.4056   -0.0000 O   0  0  0  0  0  0  0  0  0  0  0  0
    9.0532   -0.6552   -0.0000 C   0  0  0  0  0  0  0  0  0  0  0  0
    8.4814    1.4056   -0.0000 C   0  0  0  0  0  0  0  0  0  0  0  0
   10.3278    0.1191   -0.0000 C   0  0  0  0  0  0  0  0  0  0  0  0
    9.0413   -2.1442   -0.0000 C   0  0  0  0  0  0  0  0  0  0  0  0
    7.7071    2.7160   -0.0000 C   0  0  0  0  0  0  0  0  0  0  0  0
    9.9704    1.4295   -0.0000 C   0  0  0  0  0  0  0  0  0  0  0  0
   11.6262   -0.6075   -0.0000 N   0  0  0  0  0  0  0  0  0  0  0  0
   10.3397   -2.8827   -0.0000 C   0  0  0  0  0  0  0  0  0  0  0  0
   11.6262   -2.1084   -0.0000 C   0  0  0  0  0  0  0  0  0  0  0  0
  1  2  1  0  0  0  0
  1  3  1  0  0  0  0
  2  4  1  0  0  0  0
  2  5  2  0  0  0  0
  4  6  1  0  0  0  0
  4  7  2  0  0  0  0
  5  8  1  0  0  0  0
  6  9  1  0  0  0  0
  7 10  1  0  0  0  0
  8 11  2  0  0  0  0
 10 12  2  0  0  0  0
 11 13  1  0  0  0  0
 12 14  1  0  0  0  0
 13 15  1  0  0  0  0
 15 16  1  0  0  0  0
 15 17  1  0  0  0  0
 15 18  1  0  0  0  0
 17 19  2  0  0  0  0
 17 20  1  0  0  0  0
 18 21  1  0  0  0  0
 18 22  1  0  0  0  0
 19 23  1  0  0  0  0
 20 24  2  0  0  0  0
 23 25  2  0  0  0  0
  8 10  1  0  0  0  0
 13 14  2  0  0  0  0
 24 25  1  0  0  0  0
M  END
>  <MolRegNo>
1749591

>  <m>
=

>  <Value>
9400

>  <Unit>
nM

>  <Type>
IC50

>  <pValue>
5.03

>  <Ligand Efficiency>
0

>  <Binding Efficiency>
0

>  <Surface Efficiency>
0

>  <Assay Index>
855301

>  <Assay Category>


>  <Assay Organism>
Homo sapiens

>  <Target ID>
17045

>  <Target Name>
Cytochrome P450 3A4

>  <Target Organism>
Homo sapiens

>  <Target Description>
Target is a single protein chain

>  <Sequence Accession>
P08684

>  <Reference>
Bioorg Med Chem Lett 24 (11), 2444-2447 (2014)

>  <Pubmed ID>
24775307

>  <DOI>
10.1016/j.bmcl.2014.04.024

$$$$
1749598
Actelion Java MolfileCreator 1.0

 24 26  0  0  0  0  0  0  0  0999 V2000
    0.0000   -0.0000   -0.0000 F   0  0  0  0  0  0  0  0  0  0  0  0
    1.2842    0.7610   -0.0000 C   0  0  0  0  0  0  0  0  0  0  0  0
    1.2723    2.2711   -0.0000 F   0  0  0  0  0  0  0  0  0  0  0  0
    2.5803    0.0238   -0.0000 O   0  0  0  0  0  0  0  0  0  0  0  0
    3.8644    0.7848   -0.0000 C   0  0  0  0  0  0  0  0  0  0  0  0
    5.1486    0.0476   -0.0000 C   0  0  0  0  0  0  0  0  0  0  0  0
    3.8525    2.3068   -0.0000 C   0  0  0  0  0  0  0  0  0  0  0  0
    6.4328    0.8086   -0.0000 C   0  0  0  0  0  0  0  0  0  0  0  0
    5.1486    3.0678   -0.0000 C   0  0  0  0  0  0  0  0  0  0  0  0
    6.4209    2.3306   -0.0000 C   0  0  0  0  0  0  0  0  0  0  0  0
    7.7289    0.0713   -0.0000 C   0  0  0  0  0  0  0  0  0  0  0  0
    7.7051    3.1034   -0.0000 C   0  0  0  0  0  0  0  0  0  0  0  0
    9.0249    0.8323   -0.0000 C   0  0  0  0  0  0  0  0  0  0  0  0
    9.0012    2.3662   -0.0000 C   0  0  0  0  0  0  0  0  0  0  0  0
   10.2853    3.1391   -0.0000 C   0  0  0  0  0  0  0  0  0  0  0  0
    9.5125    4.4590   -0.0000 O   0  0  0  0  0  0  0  0  0  0  0  0
   11.5814    2.4019   -0.0000 C   0  0  0  0  0  0  0  0  0  0  0  0
   11.0107    4.4590   -0.0000 C   0  0  0  0  0  0  0  0  0  0  0  0
   12.9369    3.0321   -0.0000 N   0  0  0  0  0  0  0  0  0  0  0  0
   11.7360    0.9156   -0.0000 C   0  0  0  0  0  0  0  0  0  0  0  0
   10.2378    5.7669   -0.0000 C   0  0  0  0  0  0  0  0  0  0  0  0
   12.4970    4.4827   -0.0000 C   0  0  0  0  0  0  0  0  0  0  0  0
   13.9357    1.9263   -0.0000 N   0  0  0  0  0  0  0  0  0  0  0  0
   13.1985    0.6183   -0.0000 N   0  0  0  0  0  0  0  0  0  0  0  0
  1  2  1  0  0  0  0
  2  3  1  0  0  0  0
  2  4  1  0  0  0  0
  4  5  1  0  0  0  0
  5  6  2  0  0  0  0
  5  7  1  0  0  0  0
  6  8  1  0  0  0  0
  7  9  2  0  0  0  0
  8 10  1  0  0  0  0
  8 11  2  0  0  0  0
 10 12  2  0  0  0  0
 11 13  1  0  0  0  0
 12 14  1  0  0  0  0
 14 15  1  0  0  0  0
 15 16  1  0  0  0  0
 15 17  1  0  0  0  0
 15 18  1  0  0  0  0
 17 19  1  0  0  0  0
 17 20  2  0  0  0  0
 18 21  1  0  0  0  0
 18 22  1  0  0  0  0
 19 23  2  0  0  0  0
 20 24  1  0  0  0  0
  9 10  1  0  0  0  0
 13 14  2  0  0  0  0
 23 24  1  0  0  0  0
M  END
>  <MolRegNo>
1749598

>  <m>
=

>  <Value>
14000

>  <Unit>
nM

>  <Type>
IC50

>  <pValue>
4.85

>  <Ligand Efficiency>
0

>  <Binding Efficiency>
0

>  <Surface Efficiency>
0

>  <Assay Index>
855301

>  <Assay Category>


>  <Assay Organism>
Homo sapiens

>  <Target ID>
17045

>  <Target Name>
Cytochrome P450 3A4

>  <Target Organism>
Homo sapiens

>  <Target Description>
Target is a single protein chain

>  <Sequence Accession>
P08684

>  <Reference>
Bioorg Med Chem Lett 24 (11), 2444-2447 (2014)

>  <Pubmed ID>
24775307

>  <DOI>
10.1016/j.bmcl.2014.04.024

$$$$
1749593
Actelion Java MolfileCreator 1.0

 25 27  0  0  0  0  0  0  0  0999 V2000
    0.0000   -0.0000   -0.0000 O   0  0  0  0  0  0  0  0  0  0  0  0
    1.2866   -0.7386   -0.0000 C   0  0  0  0  0  0  0  0  0  0  0  0
   -1.3104   -0.7386   -0.0000 C   0  0  0  0  0  0  0  0  0  0  0  0
    1.2747   -2.2396   -0.0000 C   0  0  0  0  0  0  0  0  0  0  0  0
    2.5851    0.0238   -0.0000 C   0  0  0  0  0  0  0  0  0  0  0  0
   -0.0357   -2.9782   -0.0000 O   0  0  0  0  0  0  0  0  0  0  0  0
    2.5613   -2.9782   -0.0000 C   0  0  0  0  0  0  0  0  0  0  0  0
    3.8717   -0.7148   -0.0000 C   0  0  0  0  0  0  0  0  0  0  0  0
   -1.3581   -2.2158   -0.0000 C   0  0  0  0  0  0  0  0  0  0  0  0
    3.8478   -2.2158   -0.0000 C   0  0  0  0  0  0  0  0  0  0  0  0
    5.1582    0.0596   -0.0000 C   0  0  0  0  0  0  0  0  0  0  0  0
    5.1344   -2.9544   -0.0000 C   0  0  0  0  0  0  0  0  0  0  0  0
    6.4567   -0.6790   -0.0000 C   0  0  0  0  0  0  0  0  0  0  0  0
    6.4329   -2.1920   -0.0000 C   0  0  0  0  0  0  0  0  0  0  0  0
    7.7433    0.0953   -0.0000 C   0  0  0  0  0  0  0  0  0  0  0  0
    6.9690    1.4176   -0.0000 O   0  0  0  0  0  0  0  0  0  0  0  0
    9.0418   -0.6433   -0.0000 C   0  0  0  0  0  0  0  0  0  0  0  0
    8.4700    1.4176   -0.0000 C   0  0  0  0  0  0  0  0  0  0  0  0
   10.3165    0.1310   -0.0000 N   0  0  0  0  0  0  0  0  0  0  0  0
    9.0299   -2.1324   -0.0000 C   0  0  0  0  0  0  0  0  0  0  0  0
    7.6957    2.7280   -0.0000 C   0  0  0  0  0  0  0  0  0  0  0  0
    9.9591    1.4415   -0.0000 C   0  0  0  0  0  0  0  0  0  0  0  0
   11.6150   -0.5956   -0.0000 C   0  0  0  0  0  0  0  0  0  0  0  0
   10.3284   -2.8710   -0.0000 C   0  0  0  0  0  0  0  0  0  0  0  0
   11.6150   -2.0967   -0.0000 N   0  0  0  0  0  0  0  0  0  0  0  0
  1  2  1  0  0  0  0
  1  3  1  0  0  0  0
  2  4  1  0  0  0  0
  2  5  2  0  0  0  0
  4  6  1  0  0  0  0
  4  7  2  0  0  0  0
  5  8  1  0  0  0  0
  6  9  1  0  0  0  0
  7 10  1  0  0  0  0
  8 11  2  0  0  0  0
 10 12  2  0  0  0  0
 11 13  1  0  0  0  0
 12 14  1  0  0  0  0
 13 15  1  0  0  0  0
 15 16  1  0  0  0  0
 15 17  1  0  0  0  0
 15 18  1  0  0  0  0
 17 19  2  0  0  0  0
 17 20  1  0  0  0  0
 18 21  1  0  0  0  0
 18 22  1  0  0  0  0
 19 23  1  0  0  0  0
 20 24  2  0  0  0  0
 23 25  2  0  0  0  0
  8 10  1  0  0  0  0
 13 14  2  0  0  0  0
 24 25  1  0  0  0  0
M  END
>  <MolRegNo>
1749593

>  <m>
=

>  <Value>
18000

>  <Unit>
nM

>  <Type>
IC50

>  <pValue>
4.75

>  <Ligand Efficiency>
0

>  <Binding Efficiency>
0

>  <Surface Efficiency>
0

>  <Assay Index>
855301

>  <Assay Category>


>  <Assay Organism>
Homo sapiens

>  <Target ID>
17045

>  <Target Name>
Cytochrome P450 3A4

>  <Target Organism>
Homo sapiens

>  <Target Description>
Target is a single protein chain

>  <Sequence Accession>
P08684

>  <Reference>
Bioorg Med Chem Lett 24 (11), 2444-2447 (2014)

>  <Pubmed ID>
24775307

>  <DOI>
10.1016/j.bmcl.2014.04.024

$$$$
1749595
Actelion Java MolfileCreator 1.0

 28 30  0  0  0  0  0  0  0  0999 V2000
    0.0000   -0.0000   -0.0000 F   0  0  0  0  0  0  0  0  0  0  0  0
    1.0810    0.6461   -0.0000 C   0  0  0  0  0  0  0  0  0  0  0  0
    2.1620    0.0249   -0.0000 F   0  0  0  0  0  0  0  0  0  0  0  0
    1.0686    2.2366   -0.0000 O   0  0  0  0  0  0  0  0  0  0  0  0
    2.4230    3.0443   -0.0000 C   0  0  0  0  0  0  0  0  0  0  0  0
    2.4106    4.6347   -0.0000 C   0  0  0  0  0  0  0  0  0  0  0  0
    3.7774    2.2739   -0.0000 C   0  0  0  0  0  0  0  0  0  0  0  0
    1.0313    5.4424   -0.0000 O   0  0  0  0  0  0  0  0  0  0  0  0
    3.7649    5.4300   -0.0000 C   0  0  0  0  0  0  0  0  0  0  0  0
    5.1317    3.0691   -0.0000 C   0  0  0  0  0  0  0  0  0  0  0  0
    1.0189    7.0328   -0.0000 C   0  0  0  0  0  0  0  0  0  0  0  0
    5.1193    4.6596   -0.0000 C   0  0  0  0  0  0  0  0  0  0  0  0
    6.4861    2.2987   -0.0000 C   0  0  0  0  0  0  0  0  0  0  0  0
   -0.0870    7.6790   -0.0000 F   0  0  0  0  0  0  0  0  0  0  0  0
    2.0999    7.6790   -0.0000 F   0  0  0  0  0  0  0  0  0  0  0  0
    6.4737    5.4548   -0.0000 C   0  0  0  0  0  0  0  0  0  0  0  0
    7.8405    3.0940   -0.0000 C   0  0  0  0  0  0  0  0  0  0  0  0
    7.8281    4.6844   -0.0000 C   0  0  0  0  0  0  0  0  0  0  0  0
    9.1949    2.3236   -0.0000 C   0  0  0  0  0  0  0  0  0  0  0  0
    8.0890    1.7023   -0.0000 O   0  0  0  0  0  0  0  0  0  0  0  0
   10.5493    3.1188   -0.0000 C   0  0  0  0  0  0  0  0  0  0  0  0
    9.1825    0.7580   -0.0000 C   0  0  0  0  0  0  0  0  0  0  0  0
   10.6859    4.6844   -0.0000 N   0  0  0  0  0  0  0  0  0  0  0  0
   11.9533    2.4727   -0.0000 C   0  0  0  0  0  0  0  0  0  0  0  0
    8.0766    0.1367   -0.0000 C   0  0  0  0  0  0  0  0  0  0  0  0
   10.2635    0.1367   -0.0000 C   0  0  0  0  0  0  0  0  0  0  0  0
   12.2143    5.0199   -0.0000 N   0  0  0  0  0  0  0  0  0  0  0  0
   12.9971    3.6531   -0.0000 N   0  0  0  0  0  0  0  0  0  0  0  0
  1  2  1  0  0  0  0
  2  3  1  0  0  0  0
  2  4  1  0  0  0  0
  4  5  1  0  0  0  0
  5  6  1  0  0  0  0
  5  7  2  0  0  0  0
  6  8  1  0  0  0  0
  6  9  2  0  0  0  0
  7 10  1  0  0  0  0
  8 11  1  0  0  0  0
  9 12  1  0  0  0  0
 10 13  2  0  0  0  0
 11 14  1  0  0  0  0
 11 15  1  0  0  0  0
 12 16  2  0  0  0  0
 13 17  1  0  0  0  0
 16 18  1  0  0  0  0
 17 19  1  0  0  0  0
 19 20  1  0  0  0  0
 19 21  1  0  0  0  0
 19 22  1  0  0  0  0
 21 23  1  0  0  0  0
 21 24  2  0  0  0  0
 22 25  1  0  0  0  0
 22 26  1  0  0  0  0
 23 27  1  0  0  0  0
 24 28  1  0  0  0  0
 10 12  1  0  0  0  0
 17 18  2  0  0  0  0
 27 28  2  0  0  0  0
M  END
>  <MolRegNo>
1749595

>  <m>
=

>  <Value>
23000

>  <Unit>
nM

>  <Type>
IC50

>  <pValue>
4.64

>  <Ligand Efficiency>
0

>  <Binding Efficiency>
0

>  <Surface Efficiency>
0

>  <Assay Index>
855301

>  <Assay Category>


>  <Assay Organism>
Homo sapiens

>  <Target ID>
17045

>  <Target Name>
Cytochrome P450 3A4

>  <Target Organism>
Homo sapiens

>  <Target Description>
Target is a single protein chain

>  <Sequence Accession>
P08684

>  <Reference>
Bioorg Med Chem Lett 24 (11), 2444-2447 (2014)

>  <Pubmed ID>
24775307

>  <DOI>
10.1016/j.bmcl.2014.04.024

$$$$
1749596
Actelion Java MolfileCreator 1.0

 32 34  0  0  0  0  0  0  0  0999 V2000
    0.0000   -0.0000   -0.0000 F   0  0  0  0  0  0  0  0  0  0  0  0
   -0.0119   -1.4874   -0.0000 C   0  0  0  0  0  0  0  0  0  0  0  0
   -1.3208   -2.2251   -0.0000 F   0  0  0  0  0  0  0  0  0  0  0  0
   -1.3327   -0.7258   -0.0000 F   0  0  0  0  0  0  0  0  0  0  0  0
    1.2851   -2.2251   -0.0000 C   0  0  0  0  0  0  0  0  0  0  0  0
    1.2732   -3.7125   -0.0000 O   0  0  0  0  0  0  0  0  0  0  0  0
    2.5583   -4.4502   -0.0000 C   0  0  0  0  0  0  0  0  0  0  0  0
    2.5464   -5.9495   -0.0000 C   0  0  0  0  0  0  0  0  0  0  0  0
    3.8553   -3.6887   -0.0000 C   0  0  0  0  0  0  0  0  0  0  0  0
    1.2375   -6.6872   -0.0000 O   0  0  0  0  0  0  0  0  0  0  0  0
    3.8315   -6.6872   -0.0000 C   0  0  0  0  0  0  0  0  0  0  0  0
    5.1403   -4.4264   -0.0000 C   0  0  0  0  0  0  0  0  0  0  0  0
   -0.0833   -5.9257   -0.0000 C   0  0  0  0  0  0  0  0  0  0  0  0
    5.1166   -5.9257   -0.0000 C   0  0  0  0  0  0  0  0  0  0  0  0
    6.4254   -3.6530   -0.0000 C   0  0  0  0  0  0  0  0  0  0  0  0
   -1.3922   -6.6634   -0.0000 C   0  0  0  0  0  0  0  0  0  0  0  0
    6.4135   -6.6634   -0.0000 C   0  0  0  0  0  0  0  0  0  0  0  0
    7.7224   -4.3907   -0.0000 C   0  0  0  0  0  0  0  0  0  0  0  0
   -2.7130   -5.9019   -0.0000 F   0  0  0  0  0  0  0  0  0  0  0  0
   -1.4041   -8.1508   -0.0000 F   0  0  0  0  0  0  0  0  0  0  0  0
   -2.7130   -7.3893   -0.0000 F   0  0  0  0  0  0  0  0  0  0  0  0
    7.7105   -5.9019   -0.0000 C   0  0  0  0  0  0  0  0  0  0  0  0
    9.0075   -3.6173   -0.0000 C   0  0  0  0  0  0  0  0  0  0  0  0
    8.2341   -2.2965   -0.0000 O   0  0  0  0  0  0  0  0  0  0  0  0
   10.3045   -4.3550   -0.0000 C   0  0  0  0  0  0  0  0  0  0  0  0
    9.7333   -2.2965   -0.0000 C   0  0  0  0  0  0  0  0  0  0  0  0
   11.6610   -3.7244   -0.0000 N   0  0  0  0  0  0  0  0  0  0  0  0
   10.4592   -5.8424   -0.0000 C   0  0  0  0  0  0  0  0  0  0  0  0
    8.9599   -0.9876   -0.0000 C   0  0  0  0  0  0  0  0  0  0  0  0
   11.2207   -2.2727   -0.0000 C   0  0  0  0  0  0  0  0  0  0  0  0
   12.6605   -4.8310   -0.0000 N   0  0  0  0  0  0  0  0  0  0  0  0
   11.9228   -6.1399   -0.0000 N   0  0  0  0  0  0  0  0  0  0  0  0
  1  2  1  0  0  0  0
  2  3  1  0  0  0  0
  2  4  1  0  0  0  0
  2  5  1  0  0  0  0
  5  6  1  0  0  0  0
  6  7  1  0  0  0  0
  7  8  1  0  0  0  0
  7  9  2  0  0  0  0
  8 10  1  0  0  0  0
  8 11  2  0  0  0  0
  9 12  1  0  0  0  0
 10 13  1  0  0  0  0
 11 14  1  0  0  0  0
 12 15  2  0  0  0  0
 13 16  1  0  0  0  0
 14 17  2  0  0  0  0
 15 18  1  0  0  0  0
 16 19  1  0  0  0  0
 16 20  1  0  0  0  0
 16 21  1  0  0  0  0
 17 22  1  0  0  0  0
 18 23  1  0  0  0  0
 23 24  1  0  0  0  0
 23 25  1  0  0  0  0
 23 26  1  0  0  0  0
 25 27  1  0  0  0  0
 25 28  2  0  0  0  0
 26 29  1  0  0  0  0
 26 30  1  0  0  0  0
 27 31  2  0  0  0  0
 28 32  1  0  0  0  0
 12 14  1  0  0  0  0
 18 22  2  0  0  0  0
 31 32  1  0  0  0  0
M  END
>  <MolRegNo>
1749596

>  <m>
=

>  <Value>
25000

>  <Unit>
nM

>  <Type>
IC50

>  <pValue>
4.6

>  <Ligand Efficiency>
0

>  <Binding Efficiency>
0

>  <Surface Efficiency>
0

>  <Assay Index>
855301

>  <Assay Category>


>  <Assay Organism>
Homo sapiens

>  <Target ID>
17045

>  <Target Name>
Cytochrome P450 3A4

>  <Target Organism>
Homo sapiens

>  <Target Description>
Target is a single protein chain

>  <Sequence Accession>
P08684

>  <Reference>
Bioorg Med Chem Lett 24 (11), 2444-2447 (2014)

>  <Pubmed ID>
24775307

>  <DOI>
10.1016/j.bmcl.2014.04.024

$$$$
1749586
Actelion Java MolfileCreator 1.0

 24 26  0  0  0  0  0  0  0  0999 V2000
    0.0000   -0.0000   -0.0000 O   0  0  0  0  0  0  0  0  0  0  0  0
    1.2971   -0.7378   -0.0000 C   0  0  0  0  0  0  0  0  0  0  0  0
   -1.3090   -0.7378   -0.0000 C   0  0  0  0  0  0  0  0  0  0  0  0
    1.2852   -2.2372   -0.0000 C   0  0  0  0  0  0  0  0  0  0  0  0
    2.5942    0.0238   -0.0000 C   0  0  0  0  0  0  0  0  0  0  0  0
   -0.0238   -2.9750   -0.0000 O   0  0  0  0  0  0  0  0  0  0  0  0
    2.5704   -2.9750   -0.0000 C   0  0  0  0  0  0  0  0  0  0  0  0
    3.8793   -0.7140   -0.0000 C   0  0  0  0  0  0  0  0  0  0  0  0
   -1.3447   -2.2134   -0.0000 C   0  0  0  0  0  0  0  0  0  0  0  0
    3.8555   -2.2134   -0.0000 C   0  0  0  0  0  0  0  0  0  0  0  0
    5.1645    0.0595   -0.0000 C   0  0  0  0  0  0  0  0  0  0  0  0
    5.1526   -2.9512   -0.0000 C   0  0  0  0  0  0  0  0  0  0  0  0
    6.4616   -0.6783   -0.0000 C   0  0  0  0  0  0  0  0  0  0  0  0
    6.4497   -2.1896   -0.0000 C   0  0  0  0  0  0  0  0  0  0  0  0
    7.7468    0.0952   -0.0000 C   0  0  0  0  0  0  0  0  0  0  0  0
    6.9733    1.4161   -0.0000 O   0  0  0  0  0  0  0  0  0  0  0  0
    9.0439   -0.6426   -0.0000 C   0  0  0  0  0  0  0  0  0  0  0  0
    8.4727    1.4161   -0.0000 C   0  0  0  0  0  0  0  0  0  0  0  0
   10.4004   -0.0119   -0.0000 C   0  0  0  0  0  0  0  0  0  0  0  0
    9.1986   -2.1301   -0.0000 C   0  0  0  0  0  0  0  0  0  0  0  0
    7.6992    2.7251   -0.0000 C   0  0  0  0  0  0  0  0  0  0  0  0
    9.9601    1.4399   -0.0000 C   0  0  0  0  0  0  0  0  0  0  0  0
   11.4000   -1.1186   -0.0000 N   0  0  0  0  0  0  0  0  0  0  0  0
   10.6622   -2.4276   -0.0000 N   0  0  0  0  0  0  0  0  0  0  0  0
  1  2  1  0  0  0  0
  1  3  1  0  0  0  0
  2  4  1  0  0  0  0
  2  5  2  0  0  0  0
  4  6  1  0  0  0  0
  4  7  2  0  0  0  0
  5  8  1  0  0  0  0
  6  9  1  0  0  0  0
  7 10  1  0  0  0  0
  8 11  2  0  0  0  0
 10 12  2  0  0  0  0
 11 13  1  0  0  0  0
 12 14  1  0  0  0  0
 13 15  1  0  0  0  0
 15 16  1  0  0  0  0
 15 17  1  0  0  0  0
 15 18  1  0  0  0  0
 17 19  1  0  0  0  0
 17 20  2  0  0  0  0
 18 21  1  0  0  0  0
 18 22  1  0  0  0  0
 19 23  2  0  0  0  0
 20 24  1  0  0  0  0
  8 10  1  0  0  0  0
 13 14  2  0  0  0  0
 23 24  1  0  0  0  0
M  END
>  <MolRegNo>
1749586

>  <m>
=

>  <Value>
27000

>  <Unit>
nM

>  <Type>
IC50

>  <pValue>
4.57

>  <Ligand Efficiency>
0

>  <Binding Efficiency>
0

>  <Surface Efficiency>
0

>  <Assay Index>
855301

>  <Assay Category>


>  <Assay Organism>
Homo sapiens

>  <Target ID>
17045

>  <Target Name>
Cytochrome P450 3A4

>  <Target Organism>
Homo sapiens

>  <Target Description>
Target is a single protein chain

>  <Sequence Accession>
P08684

>  <Reference>
Bioorg Med Chem Lett 24 (11), 2444-2447 (2014)

>  <Pubmed ID>
24775307

>  <DOI>
10.1016/j.bmcl.2014.04.024

$$$$
1749587
Actelion Java MolfileCreator 1.0

 24 26  0  0  0  0  0  0  0  0999 V2000
    0.0000   -0.0000   -0.0000 O   0  0  0  0  0  0  0  0  0  0  0  0
   -0.0125    1.5714   -0.0000 C   0  0  0  0  0  0  0  0  0  0  0  0
   -1.0850   -0.6111   -0.0000 C   0  0  0  0  0  0  0  0  0  0  0  0
    1.3219    2.3571   -0.0000 C   0  0  0  0  0  0  0  0  0  0  0  0
   -1.3718    2.3571   -0.0000 C   0  0  0  0  0  0  0  0  0  0  0  0
    2.6564    1.5963   -0.0000 O   0  0  0  0  0  0  0  0  0  0  0  0
    1.3095    3.9284   -0.0000 C   0  0  0  0  0  0  0  0  0  0  0  0
   -1.3843    3.9284   -0.0000 C   0  0  0  0  0  0  0  0  0  0  0  0
    3.7164    2.2323   -0.0000 C   0  0  0  0  0  0  0  0  0  0  0  0
   -0.0499    4.7141   -0.0000 C   0  0  0  0  0  0  0  0  0  0  0  0
   -2.7437    4.7141   -0.0000 C   0  0  0  0  0  0  0  0  0  0  0  0
   -0.0624    6.2855   -0.0000 C   0  0  0  0  0  0  0  0  0  0  0  0
   -2.7561    6.2855   -0.0000 C   0  0  0  0  0  0  0  0  0  0  0  0
   -1.4217    7.0712   -0.0000 C   0  0  0  0  0  0  0  0  0  0  0  0
   -4.1155    7.0712   -0.0000 C   0  0  0  0  0  0  0  0  0  0  0  0
   -5.2005    6.4601   -0.0000 O   0  0  0  0  0  0  0  0  0  0  0  0
   -4.1280    8.6425   -0.0000 C   0  0  0  0  0  0  0  0  0  0  0  0
   -4.1280    5.4998   -0.0000 C   0  0  0  0  0  0  0  0  0  0  0  0
   -2.8808    9.5404   -0.0000 N   0  0  0  0  0  0  0  0  0  0  0  0
   -5.4000    9.5404   -0.0000 C   0  0  0  0  0  0  0  0  0  0  0  0
   -5.2130    4.8887   -0.0000 C   0  0  0  0  0  0  0  0  0  0  0  0
   -3.0679    4.8887   -0.0000 C   0  0  0  0  0  0  0  0  0  0  0  0
   -3.3797   11.0245   -0.0000 N   0  0  0  0  0  0  0  0  0  0  0  0
   -4.9386   11.0245   -0.0000 N   0  0  0  0  0  0  0  0  0  0  0  0
  1  2  1  0  0  0  0
  1  3  1  0  0  0  0
  2  4  1  0  0  0  0
  2  5  2  0  0  0  0
  4  6  1  0  0  0  0
  4  7  2  0  0  0  0
  5  8  1  0  0  0  0
  6  9  1  0  0  0  0
  7 10  1  0  0  0  0
  8 11  2  0  0  0  0
 10 12  2  0  0  0  0
 11 13  1  0  0  0  0
 12 14  1  0  0  0  0
 13 15  1  0  0  0  0
 15 16  1  0  0  0  0
 15 17  1  0  0  0  0
 15 18  1  0  0  0  0
 17 19  1  0  0  0  0
 17 20  2  0  0  0  0
 18 21  1  0  0  0  0
 18 22  1  0  0  0  0
 19 23  1  0  0  0  0
 20 24  1  0  0  0  0
  8 10  1  0  0  0  0
 13 14  2  0  0  0  0
 23 24  2  0  0  0  0
M  END
>  <MolRegNo>
1749587

>  <m>
=

>  <Value>
57000

>  <Unit>
nM

>  <Type>
IC50

>  <pValue>
4.24

>  <Ligand Efficiency>
0

>  <Binding Efficiency>
0

>  <Surface Efficiency>
0

>  <Assay Index>
855301

>  <Assay Category>


>  <Assay Organism>
Homo sapiens

>  <Target ID>
17045

>  <Target Name>
Cytochrome P450 3A4

>  <Target Organism>
Homo sapiens

>  <Target Description>
Target is a single protein chain

>  <Sequence Accession>
P08684

>  <Reference>
Bioorg Med Chem Lett 24 (11), 2444-2447 (2014)

>  <Pubmed ID>
24775307

>  <DOI>
10.1016/j.bmcl.2014.04.024

$$$$
1749600
Actelion Java MolfileCreator 1.0

 25 28  0  0  0  0  0  0  0  0999 V2000
    0.0000   -0.0000   -0.0000 S   0  0  0  0  0  0  0  0  0  0  0  0
    1.3684   -0.5950   -0.0000 C   0  0  0  0  0  0  0  0  0  0  0  0
   -1.0114   -1.1066   -0.0000 C   0  0  0  0  0  0  0  0  0  0  0  0
    2.6535    0.1785   -0.0000 C   0  0  0  0  0  0  0  0  0  0  0  0
    1.2018   -2.0705   -0.0000 C   0  0  0  0  0  0  0  0  0  0  0  0
   -0.2618   -2.3918   -0.0000 C   0  0  0  0  0  0  0  0  0  0  0  0
    3.9387   -0.5593   -0.0000 C   0  0  0  0  0  0  0  0  0  0  0  0
    2.6416    1.7016   -0.0000 C   0  0  0  0  0  0  0  0  0  0  0  0
    5.2238    0.2023   -0.0000 C   0  0  0  0  0  0  0  0  0  0  0  0
    3.9387    2.4632   -0.0000 C   0  0  0  0  0  0  0  0  0  0  0  0
    5.2119    1.7254   -0.0000 C   0  0  0  0  0  0  0  0  0  0  0  0
    6.5208   -0.5355   -0.0000 C   0  0  0  0  0  0  0  0  0  0  0  0
    6.4970    2.4989   -0.0000 C   0  0  0  0  0  0  0  0  0  0  0  0
    7.8178    0.2261   -0.0000 C   0  0  0  0  0  0  0  0  0  0  0  0
    7.7940    1.7611   -0.0000 C   0  0  0  0  0  0  0  0  0  0  0  0
    9.0792    2.5345   -0.0000 C   0  0  0  0  0  0  0  0  0  0  0  0
    8.3057    3.8554   -0.0000 O   0  0  0  0  0  0  0  0  0  0  0  0
   10.3762    1.7968   -0.0000 C   0  0  0  0  0  0  0  0  0  0  0  0
    9.8050    3.8554   -0.0000 C   0  0  0  0  0  0  0  0  0  0  0  0
   11.7327    2.4275   -0.0000 N   0  0  0  0  0  0  0  0  0  0  0  0
   10.5309    0.3094   -0.0000 C   0  0  0  0  0  0  0  0  0  0  0  0
    9.0316    5.1643   -0.0000 C   0  0  0  0  0  0  0  0  0  0  0  0
   11.2924    3.8792   -0.0000 C   0  0  0  0  0  0  0  0  0  0  0  0
   12.7322    1.3208   -0.0000 N   0  0  0  0  0  0  0  0  0  0  0  0
   11.9945    0.0119   -0.0000 N   0  0  0  0  0  0  0  0  0  0  0  0
  1  2  1  0  0  0  0
  1  3  1  0  0  0  0
  2  4  1  0  0  0  0
  2  5  2  0  0  0  0
  3  6  2  0  0  0  0
  4  7  2  0  0  0  0
  4  8  1  0  0  0  0
  7  9  1  0  0  0  0
  8 10  2  0  0  0  0
  9 11  1  0  0  0  0
  9 12  2  0  0  0  0
 11 13  2  0  0  0  0
 12 14  1  0  0  0  0
 13 15  1  0  0  0  0
 15 16  1  0  0  0  0
 16 17  1  0  0  0  0
 16 18  1  0  0  0  0
 16 19  1  0  0  0  0
 18 20  1  0  0  0  0
 18 21  2  0  0  0  0
 19 22  1  0  0  0  0
 19 23  1  0  0  0  0
 20 24  2  0  0  0  0
 21 25  1  0  0  0  0
  5  6  1  0  0  0  0
 10 11  1  0  0  0  0
 14 15  2  0  0  0  0
 24 25  1  0  0  0  0
M  END
>  <MolRegNo>
1749600

>  <m>
=

>  <Value>
81000

>  <Unit>
nM

>  <Type>
IC50

>  <pValue>
4.09

>  <Ligand Efficiency>
0

>  <Binding Efficiency>
0

>  <Surface Efficiency>
0

>  <Assay Index>
855301

>  <Assay Category>


>  <Assay Organism>
Homo sapiens

>  <Target ID>
17045

>  <Target Name>
Cytochrome P450 3A4

>  <Target Organism>
Homo sapiens

>  <Target Description>
Target is a single protein chain

>  <Sequence Accession>
P08684

>  <Reference>
Bioorg Med Chem Lett 24 (11), 2444-2447 (2014)

>  <Pubmed ID>
24775307

>  <DOI>
10.1016/j.bmcl.2014.04.024

$$$$
1749588
Actelion Java MolfileCreator 1.0

 24 26  0  0  0  0  0  0  0  0999 V2000
    0.0000   -0.0000   -0.0000 O   0  0  0  0  0  0  0  0  0  0  0  0
    1.2967   -0.7376   -0.0000 C   0  0  0  0  0  0  0  0  0  0  0  0
   -1.3086   -0.7376   -0.0000 C   0  0  0  0  0  0  0  0  0  0  0  0
    1.2848   -2.2366   -0.0000 C   0  0  0  0  0  0  0  0  0  0  0  0
    2.5935    0.0238   -0.0000 C   0  0  0  0  0  0  0  0  0  0  0  0
   -0.0357   -2.9742   -0.0000 O   0  0  0  0  0  0  0  0  0  0  0  0
    2.5697   -2.9742   -0.0000 C   0  0  0  0  0  0  0  0  0  0  0  0
    3.8783   -0.7138   -0.0000 C   0  0  0  0  0  0  0  0  0  0  0  0
   -1.3562   -2.2128   -0.0000 C   0  0  0  0  0  0  0  0  0  0  0  0
    3.8545   -2.2128   -0.0000 C   0  0  0  0  0  0  0  0  0  0  0  0
    5.1631    0.0595   -0.0000 C   0  0  0  0  0  0  0  0  0  0  0  0
    5.1512   -2.9504   -0.0000 C   0  0  0  0  0  0  0  0  0  0  0  0
    6.4599   -0.6781   -0.0000 C   0  0  0  0  0  0  0  0  0  0  0  0
    6.4480   -2.1890   -0.0000 C   0  0  0  0  0  0  0  0  0  0  0  0
    7.7447    0.0952   -0.0000 C   0  0  0  0  0  0  0  0  0  0  0  0
    6.9714    1.4157   -0.0000 O   0  0  0  0  0  0  0  0  0  0  0  0
    9.0414   -0.6424   -0.0000 C   0  0  0  0  0  0  0  0  0  0  0  0
    8.4704    1.4157   -0.0000 C   0  0  0  0  0  0  0  0  0  0  0  0
   10.3977   -0.0119   -0.0000 N   0  0  0  0  0  0  0  0  0  0  0  0
    9.1961   -2.1295   -0.0000 N   0  0  0  0  0  0  0  0  0  0  0  0
    7.6971    2.7243   -0.0000 C   0  0  0  0  0  0  0  0  0  0  0  0
    9.9575    1.4395   -0.0000 C   0  0  0  0  0  0  0  0  0  0  0  0
   11.3970   -1.1183   -0.0000 N   0  0  0  0  0  0  0  0  0  0  0  0
   10.6594   -2.4269   -0.0000 C   0  0  0  0  0  0  0  0  0  0  0  0
  1  2  1  0  0  0  0
  1  3  1  0  0  0  0
  2  4  1  0  0  0  0
  2  5  2  0  0  0  0
  4  6  1  0  0  0  0
  4  7  2  0  0  0  0
  5  8  1  0  0  0  0
  6  9  1  0  0  0  0
  7 10  1  0  0  0  0
  8 11  2  0  0  0  0
 10 12  2  0  0  0  0
 11 13  1  0  0  0  0
 12 14  1  0  0  0  0
 13 15  1  0  0  0  0
 15 16  1  0  0  0  0
 15 17  1  0  0  0  0
 15 18  1  0  0  0  0
 17 19  2  0  0  0  0
 17 20  1  0  0  0  0
 18 21  1  0  0  0  0
 18 22  1  0  0  0  0
 19 23  1  0  0  0  0
 20 24  2  0  0  0  0
  8 10  1  0  0  0  0
 13 14  2  0  0  0  0
 23 24  1  0  0  0  0
M  END
>  <MolRegNo>
1749588

>  <m>
=

>  <Value>
1.0e5

>  <Unit>
nM

>  <Type>
IC50

>  <pValue>
4

>  <Ligand Efficiency>
0

>  <Binding Efficiency>
0

>  <Surface Efficiency>
0

>  <Assay Index>
855301

>  <Assay Category>


>  <Assay Organism>
Homo sapiens

>  <Target ID>
17045

>  <Target Name>
Cytochrome P450 3A4

>  <Target Organism>
Homo sapiens

>  <Target Description>
Target is a single protein chain

>  <Sequence Accession>
P08684

>  <Reference>
Bioorg Med Chem Lett 24 (11), 2444-2447 (2014)

>  <Pubmed ID>
24775307

>  <DOI>
10.1016/j.bmcl.2014.04.024

$$$$
1749597
Actelion Java MolfileCreator 1.0

 25 28  0  0  0  0  0  0  0  0999 V2000
    0.0000   -0.0000   -0.0000 O   0  0  0  0  0  0  0  0  0  0  0  0
    0.1337   -1.5074   -0.0000 C   0  0  0  0  0  0  0  0  0  0  0  0
   -1.5195    0.3282   -0.0000 C   0  0  0  0  0  0  0  0  0  0  0  0
    1.4588   -2.2611   -0.0000 C   0  0  0  0  0  0  0  0  0  0  0  0
   -1.2643   -2.1395   -0.0000 C   0  0  0  0  0  0  0  0  0  0  0  0
   -2.2975   -0.9968   -0.0000 N   0  0  0  0  0  0  0  0  0  0  0  0
    2.7838   -1.4831   -0.0000 C   0  0  0  0  0  0  0  0  0  0  0  0
    1.4466   -3.7928   -0.0000 C   0  0  0  0  0  0  0  0  0  0  0  0
    4.1088   -2.2368   -0.0000 C   0  0  0  0  0  0  0  0  0  0  0  0
    2.7716   -4.5464   -0.0000 C   0  0  0  0  0  0  0  0  0  0  0  0
    4.0967   -3.7684   -0.0000 C   0  0  0  0  0  0  0  0  0  0  0  0
    5.4339   -1.4588   -0.0000 C   0  0  0  0  0  0  0  0  0  0  0  0
    5.4217   -4.5221   -0.0000 C   0  0  0  0  0  0  0  0  0  0  0  0
    6.7589   -2.2124   -0.0000 C   0  0  0  0  0  0  0  0  0  0  0  0
    6.7467   -3.7441   -0.0000 C   0  0  0  0  0  0  0  0  0  0  0  0
    8.0718   -4.4978   -0.0000 C   0  0  0  0  0  0  0  0  0  0  0  0
    6.9899   -5.1056   -0.0000 O   0  0  0  0  0  0  0  0  0  0  0  0
    9.3968   -3.7198   -0.0000 C   0  0  0  0  0  0  0  0  0  0  0  0
    8.0596   -6.0295   -0.0000 C   0  0  0  0  0  0  0  0  0  0  0  0
    9.5305   -2.1881   -0.0000 N   0  0  0  0  0  0  0  0  0  0  0  0
   10.7705   -4.3519   -0.0000 C   0  0  0  0  0  0  0  0  0  0  0  0
    6.9777   -6.6373   -0.0000 C   0  0  0  0  0  0  0  0  0  0  0  0
    9.1172   -6.6373   -0.0000 C   0  0  0  0  0  0  0  0  0  0  0  0
   11.0257   -1.8599   -0.0000 N   0  0  0  0  0  0  0  0  0  0  0  0
   11.7916   -3.1971   -0.0000 N   0  0  0  0  0  0  0  0  0  0  0  0
  1  2  1  0  0  0  0
  1  3  1  0  0  0  0
  2  4  1  0  0  0  0
  2  5  2  0  0  0  0
  3  6  2  0  0  0  0
  4  7  2  0  0  0  0
  4  8  1  0  0  0  0
  7  9  1  0  0  0  0
  8 10  2  0  0  0  0
  9 11  1  0  0  0  0
  9 12  2  0  0  0  0
 11 13  2  0  0  0  0
 12 14  1  0  0  0  0
 13 15  1  0  0  0  0
 15 16  1  0  0  0  0
 16 17  1  0  0  0  0
 16 18  1  0  0  0  0
 16 19  1  0  0  0  0
 18 20  1  0  0  0  0
 18 21  2  0  0  0  0
 19 22  1  0  0  0  0
 19 23  1  0  0  0  0
 20 24  1  0  0  0  0
 21 25  1  0  0  0  0
  5  6  1  0  0  0  0
 10 11  1  0  0  0  0
 14 15  2  0  0  0  0
 24 25  2  0  0  0  0
M  END
>  <MolRegNo>
1749597

>  <m>
=

>  <Value>
102000

>  <Unit>
nM

>  <Type>
IC50

>  <pValue>
0

>  <Ligand Efficiency>
0

>  <Binding Efficiency>
0

>  <Surface Efficiency>
0

>  <Assay Index>
855301

>  <Assay Category>


>  <Assay Organism>
Homo sapiens

>  <Target ID>
17045

>  <Target Name>
Cytochrome P450 3A4

>  <Target Organism>
Homo sapiens

>  <Target Description>
Target is a single protein chain

>  <Sequence Accession>
P08684

>  <Reference>
Bioorg Med Chem Lett 24 (11), 2444-2447 (2014)

>  <Pubmed ID>
24775307

>  <DOI>
10.1016/j.bmcl.2014.04.024

$$$$
1761682
Actelion Java MolfileCreator 1.0

 33 36  0  0  0  0  0  0  0  0999 V2000
    0.0000   -0.0000   -0.0000 S   0  0  0  0  0  0  0  0  0  0  0  0
   -1.3348   -0.7151   -0.0000 C   0  0  0  0  0  0  0  0  0  0  0  0
    1.2871   -0.7031   -0.0000 C   0  0  0  0  0  0  0  0  0  0  0  0
   -2.6338    0.0953   -0.0000 N   0  0  0  0  0  0  0  0  0  0  0  0
   -1.3705   -2.2047   -0.0000 C   0  0  0  0  0  0  0  0  0  0  0  0
    2.5504    0.0834   -0.0000 C   0  0  0  0  0  0  0  0  0  0  0  0
   -3.9685   -0.6197   -0.0000 C   0  0  0  0  0  0  0  0  0  0  0  0
   -2.7053   -2.9198   -0.0000 C   0  0  0  0  0  0  0  0  0  0  0  0
    2.5027    1.5850   -0.0000 O   0  0  0  0  0  0  0  0  0  0  0  0
    3.8374   -0.6197   -0.0000 O   0  0  0  0  0  0  0  0  0  0  0  0
   -4.0162   -2.1213   -0.0000 C   0  0  0  0  0  0  0  0  0  0  0  0
    5.1007    0.1668   -0.0000 C   0  0  0  0  0  0  0  0  0  0  0  0
    6.1495   -0.8819   -0.0000 C   0  0  0  0  0  0  0  0  0  0  0  0
    5.0888    1.6685   -0.0000 C   0  0  0  0  0  0  0  0  0  0  0  0
    5.5655   -2.2405   -0.0000 C   0  0  0  0  0  0  0  0  0  0  0  0
    7.6272   -0.8700   -0.0000 C   0  0  0  0  0  0  0  0  0  0  0  0
    4.8385   -1.6089   -0.0000 C   0  0  0  0  0  0  0  0  0  0  0  0
    6.1256    2.7291   -0.0000 C   0  0  0  0  0  0  0  0  0  0  0  0
    7.0075   -1.4897   -0.0000 C   0  0  0  0  0  0  0  0  0  0  0  0
    4.5525   -3.3369   -0.0000 C   0  0  0  0  0  0  0  0  0  0  0  0
    8.2946   -2.1809   -0.0000 C   0  0  0  0  0  0  0  0  0  0  0  0
    8.6641    0.2026   -0.0000 C   0  0  0  0  0  0  0  0  0  0  0  0
    4.9339    3.6468   -0.0000 C   0  0  0  0  0  0  0  0  0  0  0  0
    7.6034    2.7410   -0.0000 C   0  0  0  0  0  0  0  0  0  0  0  0
    6.3044    4.2188   -0.0000 C   0  0  0  0  0  0  0  0  0  0  0  0
    8.4257   -1.4778   -0.0000 C   0  0  0  0  0  0  0  0  0  0  0  0
    7.6153   -3.5038   -0.0000 O   0  0  0  0  0  0  0  0  0  0  0  0
    9.7605   -1.9306   -0.0000 C   0  0  0  0  0  0  0  0  0  0  0  0
    8.6521    1.6923   -0.0000 C   0  0  0  0  0  0  0  0  0  0  0  0
    9.9869   -0.4648   -0.0000 C   0  0  0  0  0  0  0  0  0  0  0  0
    5.1245    5.1365   -0.0000 C   0  0  0  0  0  0  0  0  0  0  0  0
    8.1635    4.1235   -0.0000 O   0  0  0  0  0  0  0  0  0  0  0  0
   10.0107    2.2763   -0.0000 C   0  0  0  0  0  0  0  0  0  0  0  0
  1  2  1  0  0  0  0
  1  3  1  0  0  0  0
  2  4  2  0  0  0  0
  2  5  1  0  0  0  0
  3  6  1  0  0  0  0
  4  7  1  0  0  0  0
  5  8  2  0  0  0  0
  6  9  2  0  0  0  0
  6 10  1  0  0  0  0
  7 11  2  0  0  0  0
 12 10  1  1  0  0  0
 12 13  1  0  0  0  0
 12 14  1  0  0  0  0
 13 15  1  0  0  0  0
 13 16  1  0  0  0  0
 13 17  1  1  0  0  0
 14 18  1  0  0  0  0
 15 19  1  0  0  0  0
 15 20  1  6  0  0  0
 16 21  1  6  0  0  0
 16 22  1  0  0  0  0
 18 23  1  0  0  0  0
 18 24  1  0  0  0  0
 18 25  1  1  0  0  0
 19 26  1  0  0  0  0
 21 27  2  0  0  0  0
 21 28  1  0  0  0  0
 22 29  1  0  0  0  0
 22 30  1  1  0  0  0
 23 31  2  0  0  0  0
 24 32  1  6  0  0  0
 29 33  1  1  0  0  0
  8 11  1  0  0  0  0
 22 26  1  0  0  0  0
 24 29  1  0  0  0  0
 28 30  1  0  0  0  0
M  END
>  <MolRegNo>
1761682

>  <m>
=

>  <Value>
1250

>  <Unit>
nM

>  <Type>
IC50

>  <pValue>
5.9

>  <Ligand Efficiency>
0

>  <Binding Efficiency>
0

>  <Surface Efficiency>
0

>  <Assay Index>
874267

>  <Assay Category>


>  <Assay Organism>
Homo sapiens

>  <Target ID>
17045

>  <Target Name>
Cytochrome P450 3A4

>  <Target Organism>
Homo sapiens

>  <Target Description>
Target is a single protein chain

>  <Sequence Accession>
P08684

>  <Reference>
J Med Chem 57 (11), 4772-4795 (2014)

>  <Pubmed ID>
24874438

>  <DOI>
10.1021/jm500312x

$$$$
1761684
Actelion Java MolfileCreator 1.0

 35 38  0  0  0  0  0  0  0  0999 V2000
    0.0000   -0.0000   -0.0000 S   0  0  0  0  0  0  0  0  0  0  0  0
   -1.3336   -0.7144   -0.0000 C   0  0  0  0  0  0  0  0  0  0  0  0
    1.2860   -0.7025   -0.0000 C   0  0  0  0  0  0  0  0  0  0  0  0
   -2.6315    0.0953   -0.0000 C   0  0  0  0  0  0  0  0  0  0  0  0
   -1.3693   -2.2028   -0.0000 C   0  0  0  0  0  0  0  0  0  0  0  0
    2.5482    0.0834   -0.0000 C   0  0  0  0  0  0  0  0  0  0  0  0
   -3.9651   -0.6192   -0.0000 C   0  0  0  0  0  0  0  0  0  0  0  0
   -2.7029   -2.9173   -0.0000 C   0  0  0  0  0  0  0  0  0  0  0  0
    2.5005    1.5837   -0.0000 O   0  0  0  0  0  0  0  0  0  0  0  0
    3.8341   -0.6192   -0.0000 O   0  0  0  0  0  0  0  0  0  0  0  0
   -4.0127   -2.1195   -0.0000 C   0  0  0  0  0  0  0  0  0  0  0  0
   -5.2630    0.1786   -0.0000 C   0  0  0  0  0  0  0  0  0  0  0  0
    5.0963    0.1667   -0.0000 C   0  0  0  0  0  0  0  0  0  0  0  0
   -6.5966   -0.5358   -0.0000 O   0  0  0  0  0  0  0  0  0  0  0  0
    6.1441   -0.8811   -0.0000 C   0  0  0  0  0  0  0  0  0  0  0  0
    5.0844    1.6670   -0.0000 C   0  0  0  0  0  0  0  0  0  0  0  0
    5.5607   -2.2386   -0.0000 C   0  0  0  0  0  0  0  0  0  0  0  0
    7.6206   -0.8692   -0.0000 C   0  0  0  0  0  0  0  0  0  0  0  0
    4.8343   -1.6075   -0.0000 C   0  0  0  0  0  0  0  0  0  0  0  0
    6.1203    2.7268   -0.0000 C   0  0  0  0  0  0  0  0  0  0  0  0
    7.0015   -1.4884   -0.0000 C   0  0  0  0  0  0  0  0  0  0  0  0
    4.5486   -3.3340   -0.0000 C   0  0  0  0  0  0  0  0  0  0  0  0
    8.2874   -2.1790   -0.0000 C   0  0  0  0  0  0  0  0  0  0  0  0
    8.6566    0.2024   -0.0000 C   0  0  0  0  0  0  0  0  0  0  0  0
    4.9296    3.6436   -0.0000 C   0  0  0  0  0  0  0  0  0  0  0  0
    7.5968    2.7387   -0.0000 C   0  0  0  0  0  0  0  0  0  0  0  0
    6.2989    4.2152   -0.0000 C   0  0  0  0  0  0  0  0  0  0  0  0
    8.4303   -1.4765   -0.0000 C   0  0  0  0  0  0  0  0  0  0  0  0
    7.6087   -3.5007   -0.0000 O   0  0  0  0  0  0  0  0  0  0  0  0
    9.7520   -1.9290   -0.0000 C   0  0  0  0  0  0  0  0  0  0  0  0
    8.6447    1.6908   -0.0000 C   0  0  0  0  0  0  0  0  0  0  0  0
    9.9783   -0.4644   -0.0000 C   0  0  0  0  0  0  0  0  0  0  0  0
    5.1201    5.1320   -0.0000 C   0  0  0  0  0  0  0  0  0  0  0  0
    8.1565    4.1199   -0.0000 O   0  0  0  0  0  0  0  0  0  0  0  0
   10.0021    2.2743   -0.0000 C   0  0  0  0  0  0  0  0  0  0  0  0
  1  2  1  0  0  0  0
  1  3  1  0  0  0  0
  2  4  2  0  0  0  0
  2  5  1  0  0  0  0
  3  6  1  0  0  0  0
  4  7  1  0  0  0  0
  5  8  2  0  0  0  0
  6  9  2  0  0  0  0
  6 10  1  0  0  0  0
  7 11  2  0  0  0  0
  7 12  1  0  0  0  0
 13 10  1  1  0  0  0
 12 14  1  0  0  0  0
 13 15  1  0  0  0  0
 13 16  1  0  0  0  0
 15 17  1  0  0  0  0
 15 18  1  0  0  0  0
 15 19  1  1  0  0  0
 16 20  1  0  0  0  0
 17 21  1  0  0  0  0
 17 22  1  6  0  0  0
 18 23  1  6  0  0  0
 18 24  1  0  0  0  0
 20 25  1  0  0  0  0
 20 26  1  0  0  0  0
 20 27  1  1  0  0  0
 21 28  1  0  0  0  0
 23 29  2  0  0  0  0
 23 30  1  0  0  0  0
 24 31  1  0  0  0  0
 24 32  1  1  0  0  0
 25 33  2  0  0  0  0
 26 34  1  6  0  0  0
 31 35  1  1  0  0  0
  8 11  1  0  0  0  0
 24 28  1  0  0  0  0
 26 31  1  0  0  0  0
 30 32  1  0  0  0  0
M  END
>  <MolRegNo>
1761684

>  <m>
=

>  <Value>
1950

>  <Unit>
nM

>  <Type>
IC50

>  <pValue>
5.71

>  <Ligand Efficiency>
0

>  <Binding Efficiency>
0

>  <Surface Efficiency>
0

>  <Assay Index>
874267

>  <Assay Category>


>  <Assay Organism>
Homo sapiens

>  <Target ID>
17045

>  <Target Name>
Cytochrome P450 3A4

>  <Target Organism>
Homo sapiens

>  <Target Description>
Target is a single protein chain

>  <Sequence Accession>
P08684

>  <Reference>
J Med Chem 57 (11), 4772-4795 (2014)

>  <Pubmed ID>
24874438

>  <DOI>
10.1021/jm500312x

$$$$
1761688
Actelion Java MolfileCreator 1.0

 35 38  0  0  0  0  0  0  0  0999 V2000
    0.0000   -0.0000   -0.0000 S   0  0  0  0  0  0  0  0  0  0  0  0
   -1.3352   -0.7090   -0.0000 C   0  0  0  0  0  0  0  0  0  0  0  0
    1.2879   -0.6971   -0.0000 C   0  0  0  0  0  0  0  0  0  0  0  0
   -1.3707   -2.1978   -0.0000 C   0  0  0  0  0  0  0  0  0  0  0  0
   -2.6350    0.0945   -0.0000 C   0  0  0  0  0  0  0  0  0  0  0  0
    2.5522    0.0827   -0.0000 C   0  0  0  0  0  0  0  0  0  0  0  0
   -2.7059   -2.9185   -0.0000 N   0  0  0  0  0  0  0  0  0  0  0  0
   -3.9702   -0.6144   -0.0000 C   0  0  0  0  0  0  0  0  0  0  0  0
    2.5050    1.5833   -0.0000 O   0  0  0  0  0  0  0  0  0  0  0  0
    3.8402   -0.6262   -0.0000 O   0  0  0  0  0  0  0  0  0  0  0  0
   -4.0174   -2.1151   -0.0000 C   0  0  0  0  0  0  0  0  0  0  0  0
   -5.2699    0.1891   -0.0000 C   0  0  0  0  0  0  0  0  0  0  0  0
    5.1045    0.1654   -0.0000 C   0  0  0  0  0  0  0  0  0  0  0  0
   -6.6051   -0.5199   -0.0000 O   0  0  0  0  0  0  0  0  0  0  0  0
    6.1443   -0.8744   -0.0000 C   0  0  0  0  0  0  0  0  0  0  0  0
    5.0927    1.6661   -0.0000 C   0  0  0  0  0  0  0  0  0  0  0  0
    5.5653   -2.2332   -0.0000 C   0  0  0  0  0  0  0  0  0  0  0  0
    7.6213   -0.8626   -0.0000 C   0  0  0  0  0  0  0  0  0  0  0  0
    4.8327   -1.5952   -0.0000 C   0  0  0  0  0  0  0  0  0  0  0  0
    6.1325    2.7177   -0.0000 C   0  0  0  0  0  0  0  0  0  0  0  0
    7.0069   -1.4888   -0.0000 C   0  0  0  0  0  0  0  0  0  0  0  0
    4.5491   -3.3203   -0.0000 C   0  0  0  0  0  0  0  0  0  0  0  0
    8.2830   -2.1741   -0.0000 C   0  0  0  0  0  0  0  0  0  0  0  0
    8.6611    0.2127   -0.0000 C   0  0  0  0  0  0  0  0  0  0  0  0
    4.9391    3.6393   -0.0000 C   0  0  0  0  0  0  0  0  0  0  0  0
    7.6095    2.7295   -0.0000 C   0  0  0  0  0  0  0  0  0  0  0  0
    6.3097    4.2065   -0.0000 C   0  0  0  0  0  0  0  0  0  0  0  0
    8.4248   -1.4770   -0.0000 C   0  0  0  0  0  0  0  0  0  0  0  0
    7.6095   -3.4975   -0.0000 O   0  0  0  0  0  0  0  0  0  0  0  0
    9.7482   -1.9260   -0.0000 C   0  0  0  0  0  0  0  0  0  0  0  0
    8.6493    1.7015   -0.0000 C   0  0  0  0  0  0  0  0  0  0  0  0
    9.9845   -0.4490   -0.0000 C   0  0  0  0  0  0  0  0  0  0  0  0
    5.1281    5.1281   -0.0000 C   0  0  0  0  0  0  0  0  0  0  0  0
    8.1648    4.1120   -0.0000 O   0  0  0  0  0  0  0  0  0  0  0  0
   10.0081    2.2805   -0.0000 C   0  0  0  0  0  0  0  0  0  0  0  0
  1  2  1  0  0  0  0
  1  3  1  0  0  0  0
  2  4  2  0  0  0  0
  2  5  1  0  0  0  0
  3  6  1  0  0  0  0
  4  7  1  0  0  0  0
  5  8  2  0  0  0  0
  6  9  2  0  0  0  0
  6 10  1  0  0  0  0
  7 11  2  0  0  0  0
  8 12  1  0  0  0  0
 13 10  1  1  0  0  0
 12 14  1  0  0  0  0
 13 15  1  0  0  0  0
 13 16  1  0  0  0  0
 15 17  1  0  0  0  0
 15 18  1  0  0  0  0
 15 19  1  1  0  0  0
 16 20  1  0  0  0  0
 17 21  1  0  0  0  0
 17 22  1  6  0  0  0
 18 23  1  6  0  0  0
 18 24  1  0  0  0  0
 20 25  1  0  0  0  0
 20 26  1  0  0  0  0
 20 27  1  1  0  0  0
 21 28  1  0  0  0  0
 23 29  2  0  0  0  0
 23 30  1  0  0  0  0
 24 31  1  0  0  0  0
 24 32  1  1  0  0  0
 25 33  2  0  0  0  0
 26 34  1  6  0  0  0
 31 35  1  1  0  0  0
  8 11  1  0  0  0  0
 24 28  1  0  0  0  0
 26 31  1  0  0  0  0
 30 32  1  0  0  0  0
M  END
>  <MolRegNo>
1761688

>  <m>
=

>  <Value>
242

>  <Unit>
nM

>  <Type>
IC50

>  <pValue>
6.62

>  <Ligand Efficiency>
0

>  <Binding Efficiency>
0

>  <Surface Efficiency>
0

>  <Assay Index>
874267

>  <Assay Category>


>  <Assay Organism>
Homo sapiens

>  <Target ID>
17045

>  <Target Name>
Cytochrome P450 3A4

>  <Target Organism>
Homo sapiens

>  <Target Description>
Target is a single protein chain

>  <Sequence Accession>
P08684

>  <Reference>
J Med Chem 57 (11), 4772-4795 (2014)

>  <Pubmed ID>
24874438

>  <DOI>
10.1021/jm500312x

$$$$
1761691
Actelion Java MolfileCreator 1.0

 34 37  0  0  0  0  0  0  0  0999 V2000
    0.0000   -0.0000   -0.0000 S   0  0  0  0  0  0  0  0  0  0  0  0
   -1.3353   -0.7090   -0.0000 C   0  0  0  0  0  0  0  0  0  0  0  0
    1.2881   -0.6972   -0.0000 C   0  0  0  0  0  0  0  0  0  0  0  0
   -1.3708   -2.1980   -0.0000 C   0  0  0  0  0  0  0  0  0  0  0  0
   -2.6352    0.0945   -0.0000 C   0  0  0  0  0  0  0  0  0  0  0  0
    2.5525    0.0827   -0.0000 C   0  0  0  0  0  0  0  0  0  0  0  0
   -2.7062   -2.9189   -0.0000 N   0  0  0  0  0  0  0  0  0  0  0  0
   -3.9706   -0.6145   -0.0000 C   0  0  0  0  0  0  0  0  0  0  0  0
    2.5053    1.5835   -0.0000 O   0  0  0  0  0  0  0  0  0  0  0  0
    3.8406   -0.6263   -0.0000 O   0  0  0  0  0  0  0  0  0  0  0  0
   -4.0179   -2.1271   -0.0000 C   0  0  0  0  0  0  0  0  0  0  0  0
   -5.2705    0.1891   -0.0000 N   0  0  0  0  0  0  0  0  0  0  0  0
    5.1051    0.1654   -0.0000 C   0  0  0  0  0  0  0  0  0  0  0  0
    6.1450   -0.8745   -0.0000 C   0  0  0  0  0  0  0  0  0  0  0  0
    5.0932    1.6662   -0.0000 C   0  0  0  0  0  0  0  0  0  0  0  0
    5.5659   -2.2335   -0.0000 C   0  0  0  0  0  0  0  0  0  0  0  0
    7.6221   -0.8627   -0.0000 C   0  0  0  0  0  0  0  0  0  0  0  0
    4.8333   -1.5953   -0.0000 C   0  0  0  0  0  0  0  0  0  0  0  0
    6.1332    2.7180   -0.0000 C   0  0  0  0  0  0  0  0  0  0  0  0
    7.0076   -1.4890   -0.0000 C   0  0  0  0  0  0  0  0  0  0  0  0
    4.5496   -3.3206   -0.0000 C   0  0  0  0  0  0  0  0  0  0  0  0
    8.2839   -2.1744   -0.0000 C   0  0  0  0  0  0  0  0  0  0  0  0
    8.6620    0.2127   -0.0000 C   0  0  0  0  0  0  0  0  0  0  0  0
    4.9396    3.6397   -0.0000 C   0  0  0  0  0  0  0  0  0  0  0  0
    7.6103    2.7298   -0.0000 C   0  0  0  0  0  0  0  0  0  0  0  0
    6.3104    4.2069   -0.0000 C   0  0  0  0  0  0  0  0  0  0  0  0
    8.4257   -1.4772   -0.0000 C   0  0  0  0  0  0  0  0  0  0  0  0
    7.6103   -3.4979   -0.0000 O   0  0  0  0  0  0  0  0  0  0  0  0
    9.7492   -1.9262   -0.0000 C   0  0  0  0  0  0  0  0  0  0  0  0
    8.6502    1.7017   -0.0000 C   0  0  0  0  0  0  0  0  0  0  0  0
    9.9856   -0.4491   -0.0000 C   0  0  0  0  0  0  0  0  0  0  0  0
    5.1287    5.1287   -0.0000 C   0  0  0  0  0  0  0  0  0  0  0  0
    8.1657    4.1124   -0.0000 O   0  0  0  0  0  0  0  0  0  0  0  0
   10.0092    2.2807   -0.0000 C   0  0  0  0  0  0  0  0  0  0  0  0
  1  2  1  0  0  0  0
  1  3  1  0  0  0  0
  2  4  2  0  0  0  0
  2  5  1  0  0  0  0
  3  6  1  0  0  0  0
  4  7  1  0  0  0  0
  5  8  2  0  0  0  0
  6  9  2  0  0  0  0
  6 10  1  0  0  0  0
  7 11  2  0  0  0  0
  8 12  1  0  0  0  0
 13 10  1  1  0  0  0
 13 14  1  0  0  0  0
 13 15  1  0  0  0  0
 14 16  1  0  0  0  0
 14 17  1  0  0  0  0
 14 18  1  1  0  0  0
 15 19  1  0  0  0  0
 16 20  1  0  0  0  0
 16 21  1  6  0  0  0
 17 22  1  6  0  0  0
 17 23  1  0  0  0  0
 19 24  1  0  0  0  0
 19 25  1  0  0  0  0
 19 26  1  1  0  0  0
 20 27  1  0  0  0  0
 22 28  2  0  0  0  0
 22 29  1  0  0  0  0
 23 30  1  0  0  0  0
 23 31  1  1  0  0  0
 24 32  2  0  0  0  0
 25 33  1  6  0  0  0
 30 34  1  1  0  0  0
  8 11  1  0  0  0  0
 23 27  1  0  0  0  0
 25 30  1  0  0  0  0
 29 31  1  0  0  0  0
M  END
>  <MolRegNo>
1761691

>  <m>
=

>  <Value>
135

>  <Unit>
nM

>  <Type>
IC50

>  <pValue>
6.87

>  <Ligand Efficiency>
0

>  <Binding Efficiency>
0

>  <Surface Efficiency>
0

>  <Assay Index>
874267

>  <Assay Category>


>  <Assay Organism>
Homo sapiens

>  <Target ID>
17045

>  <Target Name>
Cytochrome P450 3A4

>  <Target Organism>
Homo sapiens

>  <Target Description>
Target is a single protein chain

>  <Sequence Accession>
P08684

>  <Reference>
J Med Chem 57 (11), 4772-4795 (2014)

>  <Pubmed ID>
24874438

>  <DOI>
10.1021/jm500312x

$$$$
1761961
Actelion Java MolfileCreator 1.0

 44 48  0  0  0  0  0  0  0  0999 V2000
    0.0000   -0.0000   -0.0000 S   0  0  0  0  0  0  0  0  0  0  0  0
   -1.3317   -0.7134   -0.0000 C   0  0  0  0  0  0  0  0  0  0  0  0
    1.2841   -0.7015   -0.0000 C   0  0  0  0  0  0  0  0  0  0  0  0
   -1.3674   -2.1997   -0.0000 C   0  0  0  0  0  0  0  0  0  0  0  0
   -2.6277    0.0951   -0.0000 C   0  0  0  0  0  0  0  0  0  0  0  0
    2.5445    0.0832   -0.0000 C   0  0  0  0  0  0  0  0  0  0  0  0
   -2.6991   -2.9131   -0.0000 N   0  0  0  0  0  0  0  0  0  0  0  0
   -3.9594   -0.6183   -0.0000 C   0  0  0  0  0  0  0  0  0  0  0  0
    2.4969    1.5814   -0.0000 O   0  0  0  0  0  0  0  0  0  0  0  0
    3.8286   -0.6183   -0.0000 O   0  0  0  0  0  0  0  0  0  0  0  0
   -4.0070   -2.1164   -0.0000 C   0  0  0  0  0  0  0  0  0  0  0  0
   -5.2554    0.1784   -0.0000 N   0  0  0  0  0  0  0  0  0  0  0  0
    5.0890    0.1665   -0.0000 C   0  0  0  0  0  0  0  0  0  0  0  0
   -6.5990   -0.5351   -0.0000 C   0  0  0  0  0  0  0  0  0  0  0  0
    6.1353   -0.8799   -0.0000 C   0  0  0  0  0  0  0  0  0  0  0  0
    5.0771    1.6646   -0.0000 C   0  0  0  0  0  0  0  0  0  0  0  0
   -6.6466   -2.0332   -0.0000 O   0  0  0  0  0  0  0  0  0  0  0  0
   -7.9069    0.2616   -0.0000 C   0  0  0  0  0  0  0  0  0  0  0  0
    5.5527   -2.2353   -0.0000 C   0  0  0  0  0  0  0  0  0  0  0  0
    7.6097   -0.8680   -0.0000 C   0  0  0  0  0  0  0  0  0  0  0  0
    4.8274   -1.6052   -0.0000 C   0  0  0  0  0  0  0  0  0  0  0  0
    6.1115    2.7228   -0.0000 C   0  0  0  0  0  0  0  0  0  0  0  0
   -9.2386   -0.4518   -0.0000 N   0  0  0  0  0  0  0  0  0  0  0  0
    6.9914   -1.4863   -0.0000 C   0  0  0  0  0  0  0  0  0  0  0  0
    4.5420   -3.3292   -0.0000 C   0  0  0  0  0  0  0  0  0  0  0  0
    8.2755   -2.1759   -0.0000 C   0  0  0  0  0  0  0  0  0  0  0  0
    8.6441    0.2021   -0.0000 C   0  0  0  0  0  0  0  0  0  0  0  0
    4.9225    3.6384   -0.0000 C   0  0  0  0  0  0  0  0  0  0  0  0
    7.5859    2.7347   -0.0000 C   0  0  0  0  0  0  0  0  0  0  0  0
    6.2899    4.2091   -0.0000 C   0  0  0  0  0  0  0  0  0  0  0  0
   -9.2862   -1.9381   -0.0000 C   0  0  0  0  0  0  0  0  0  0  0  0
  -10.5347    0.3448   -0.0000 C   0  0  0  0  0  0  0  0  0  0  0  0
    8.4182   -1.4744   -0.0000 C   0  0  0  0  0  0  0  0  0  0  0  0
    7.5978   -3.4957   -0.0000 O   0  0  0  0  0  0  0  0  0  0  0  0
    9.7380   -1.9262   -0.0000 C   0  0  0  0  0  0  0  0  0  0  0  0
    8.6322    1.7003   -0.0000 C   0  0  0  0  0  0  0  0  0  0  0  0
    9.9639   -0.4637   -0.0000 C   0  0  0  0  0  0  0  0  0  0  0  0
    5.1128    5.1246   -0.0000 C   0  0  0  0  0  0  0  0  0  0  0  0
    8.1447    4.1259   -0.0000 O   0  0  0  0  0  0  0  0  0  0  0  0
  -10.6179   -2.6396   -0.0000 C   0  0  0  0  0  0  0  0  0  0  0  0
  -11.8545   -0.3567   -0.0000 C   0  0  0  0  0  0  0  0  0  0  0  0
    9.9877    2.2829   -0.0000 C   0  0  0  0  0  0  0  0  0  0  0  0
  -10.6654   -4.1378   -0.0000 O   0  0  0  0  0  0  0  0  0  0  0  0
  -11.9139   -1.8430   -0.0000 C   0  0  0  0  0  0  0  0  0  0  0  0
  1  2  1  0  0  0  0
  1  3  1  0  0  0  0
  2  4  2  0  0  0  0
  2  5  1  0  0  0  0
  3  6  1  0  0  0  0
  4  7  1  0  0  0  0
  5  8  2  0  0  0  0
  6  9  2  0  0  0  0
  6 10  1  0  0  0  0
  7 11  2  0  0  0  0
  8 12  1  0  0  0  0
 13 10  1  1  0  0  0
 12 14  1  0  0  0  0
 13 15  1  0  0  0  0
 13 16  1  0  0  0  0
 14 17  2  0  0  0  0
 14 18  1  0  0  0  0
 15 19  1  0  0  0  0
 15 20  1  0  0  0  0
 15 21  1  1  0  0  0
 16 22  1  0  0  0  0
 18 23  1  0  0  0  0
 19 24  1  0  0  0  0
 19 25  1  6  0  0  0
 20 26  1  6  0  0  0
 20 27  1  0  0  0  0
 22 28  1  0  0  0  0
 22 29  1  0  0  0  0
 22 30  1  1  0  0  0
 23 31  1  0  0  0  0
 23 32  1  0  0  0  0
 24 33  1  0  0  0  0
 26 34  2  0  0  0  0
 26 35  1  0  0  0  0
 27 36  1  0  0  0  0
 27 37  1  1  0  0  0
 28 38  2  0  0  0  0
 29 39  1  6  0  0  0
 31 40  1  0  0  0  0
 32 41  1  0  0  0  0
 36 42  1  1  0  0  0
 40 43  1  0  0  0  0
 40 44  1  0  0  0  0
  8 11  1  0  0  0  0
 27 33  1  0  0  0  0
 29 36  1  0  0  0  0
 35 37  1  0  0  0  0
 41 44  1  0  0  0  0
M  END
>  <MolRegNo>
1761961

>  <m>
=

>  <Value>
1080

>  <Unit>
nM

>  <Type>
IC50

>  <pValue>
5.97

>  <Ligand Efficiency>
0

>  <Binding Efficiency>
0

>  <Surface Efficiency>
0

>  <Assay Index>
874267

>  <Assay Category>


>  <Assay Organism>
Homo sapiens

>  <Target ID>
17045

>  <Target Name>
Cytochrome P450 3A4

>  <Target Organism>
Homo sapiens

>  <Target Description>
Target is a single protein chain

>  <Sequence Accession>
P08684

>  <Reference>
J Med Chem 57 (11), 4772-4795 (2014)

>  <Pubmed ID>
24874438

>  <DOI>
10.1021/jm500312x

$$$$
1761962
Actelion Java MolfileCreator 1.0

 44 48  0  0  0  0  0  0  0  0999 V2000
    0.0000   -0.0000   -0.0000 S   0  0  0  0  0  0  0  0  0  0  0  0
   -1.3428   -0.7130   -0.0000 C   0  0  0  0  0  0  0  0  0  0  0  0
    1.2834   -0.7011   -0.0000 C   0  0  0  0  0  0  0  0  0  0  0  0
   -1.3784   -2.1984   -0.0000 C   0  0  0  0  0  0  0  0  0  0  0  0
   -2.6381    0.0951   -0.0000 C   0  0  0  0  0  0  0  0  0  0  0  0
    2.5430    0.0832   -0.0000 C   0  0  0  0  0  0  0  0  0  0  0  0
   -2.7093   -2.9114   -0.0000 N   0  0  0  0  0  0  0  0  0  0  0  0
   -3.9690   -0.6179   -0.0000 C   0  0  0  0  0  0  0  0  0  0  0  0
    2.4955    1.5805   -0.0000 O   0  0  0  0  0  0  0  0  0  0  0  0
    3.8264   -0.6179   -0.0000 O   0  0  0  0  0  0  0  0  0  0  0  0
   -4.0165   -2.1152   -0.0000 C   0  0  0  0  0  0  0  0  0  0  0  0
   -5.2642    0.1782   -0.0000 N   0  0  0  0  0  0  0  0  0  0  0  0
    5.0860    0.1664   -0.0000 C   0  0  0  0  0  0  0  0  0  0  0  0
   -6.6070   -0.5347   -0.0000 C   0  0  0  0  0  0  0  0  0  0  0  0
    6.1317   -0.8794   -0.0000 C   0  0  0  0  0  0  0  0  0  0  0  0
    5.0741    1.6636   -0.0000 C   0  0  0  0  0  0  0  0  0  0  0  0
   -6.6545   -2.0320   -0.0000 O   0  0  0  0  0  0  0  0  0  0  0  0
   -7.9142    0.2614   -0.0000 C   0  0  0  0  0  0  0  0  0  0  0  0
    5.5494   -2.2340   -0.0000 C   0  0  0  0  0  0  0  0  0  0  0  0
    7.6052   -0.8675   -0.0000 C   0  0  0  0  0  0  0  0  0  0  0  0
    4.8245   -1.6042   -0.0000 C   0  0  0  0  0  0  0  0  0  0  0  0
    6.1079    2.7212   -0.0000 C   0  0  0  0  0  0  0  0  0  0  0  0
   -9.2451   -0.4516   -0.0000 N   0  0  0  0  0  0  0  0  0  0  0  0
    6.9873   -1.4854   -0.0000 C   0  0  0  0  0  0  0  0  0  0  0  0
    4.5393   -3.3273   -0.0000 C   0  0  0  0  0  0  0  0  0  0  0  0
    8.2706   -2.1746   -0.0000 C   0  0  0  0  0  0  0  0  0  0  0  0
    8.6509    0.2020   -0.0000 C   0  0  0  0  0  0  0  0  0  0  0  0
    4.9196    3.6362   -0.0000 C   0  0  0  0  0  0  0  0  0  0  0  0
    7.5814    2.7331   -0.0000 C   0  0  0  0  0  0  0  0  0  0  0  0
    6.2862    4.2066   -0.0000 C   0  0  0  0  0  0  0  0  0  0  0  0
  -10.5403    0.3446   -0.0000 C   0  0  0  0  0  0  0  0  0  0  0  0
   -9.2926   -1.9369   -0.0000 C   0  0  0  0  0  0  0  0  0  0  0  0
    8.4132   -1.4735   -0.0000 C   0  0  0  0  0  0  0  0  0  0  0  0
    7.5933   -3.4936   -0.0000 O   0  0  0  0  0  0  0  0  0  0  0  0
    9.7323   -1.9251   -0.0000 C   0  0  0  0  0  0  0  0  0  0  0  0
    8.6390    1.6993   -0.0000 C   0  0  0  0  0  0  0  0  0  0  0  0
    9.9699   -0.4634   -0.0000 C   0  0  0  0  0  0  0  0  0  0  0  0
    5.1097    5.1216   -0.0000 C   0  0  0  0  0  0  0  0  0  0  0  0
    8.1399    4.1234   -0.0000 O   0  0  0  0  0  0  0  0  0  0  0  0
  -11.8593   -0.3565   -0.0000 C   0  0  0  0  0  0  0  0  0  0  0  0
  -10.6235   -2.6381   -0.0000 C   0  0  0  0  0  0  0  0  0  0  0  0
    9.9937    2.2816   -0.0000 C   0  0  0  0  0  0  0  0  0  0  0  0
  -11.9069   -1.8419   -0.0000 C   0  0  0  0  0  0  0  0  0  0  0  0
  -13.2497   -2.5549   -0.0000 O   0  0  0  0  0  0  0  0  0  0  0  0
  1  2  1  0  0  0  0
  1  3  1  0  0  0  0
  2  4  2  0  0  0  0
  2  5  1  0  0  0  0
  3  6  1  0  0  0  0
  4  7  1  0  0  0  0
  5  8  2  0  0  0  0
  6  9  2  0  0  0  0
  6 10  1  0  0  0  0
  7 11  2  0  0  0  0
  8 12  1  0  0  0  0
 13 10  1  1  0  0  0
 12 14  1  0  0  0  0
 13 15  1  0  0  0  0
 13 16  1  0  0  0  0
 14 17  2  0  0  0  0
 14 18  1  0  0  0  0
 15 19  1  0  0  0  0
 15 20  1  0  0  0  0
 15 21  1  1  0  0  0
 16 22  1  0  0  0  0
 18 23  1  0  0  0  0
 19 24  1  0  0  0  0
 19 25  1  6  0  0  0
 20 26  1  6  0  0  0
 20 27  1  0  0  0  0
 22 28  1  0  0  0  0
 22 29  1  0  0  0  0
 22 30  1  1  0  0  0
 23 31  1  0  0  0  0
 23 32  1  0  0  0  0
 24 33  1  0  0  0  0
 26 34  2  0  0  0  0
 26 35  1  0  0  0  0
 27 36  1  0  0  0  0
 27 37  1  1  0  0  0
 28 38  2  0  0  0  0
 29 39  1  6  0  0  0
 31 40  1  0  0  0  0
 32 41  1  0  0  0  0
 36 42  1  1  0  0  0
 40 43  1  0  0  0  0
 43 44  1  0  0  0  0
  8 11  1  0  0  0  0
 27 33  1  0  0  0  0
 29 36  1  0  0  0  0
 35 37  1  0  0  0  0
 41 43  1  0  0  0  0
M  END
>  <MolRegNo>
1761962

>  <m>
=

>  <Value>
1890

>  <Unit>
nM

>  <Type>
IC50

>  <pValue>
5.72

>  <Ligand Efficiency>
0

>  <Binding Efficiency>
0

>  <Surface Efficiency>
0

>  <Assay Index>
874267

>  <Assay Category>


>  <Assay Organism>
Homo sapiens

>  <Target ID>
17045

>  <Target Name>
Cytochrome P450 3A4

>  <Target Organism>
Homo sapiens

>  <Target Description>
Target is a single protein chain

>  <Sequence Accession>
P08684

>  <Reference>
J Med Chem 57 (11), 4772-4795 (2014)

>  <Pubmed ID>
24874438

>  <DOI>
10.1021/jm500312x

$$$$
1761965
Actelion Java MolfileCreator 1.0

 35 38  0  0  0  0  0  0  0  0999 V2000
    0.0000   -0.0000   -0.0000 S   0  0  0  0  0  0  0  0  0  0  0  0
   -1.3103    0.7624   -0.0000 C   0  0  0  0  0  0  0  0  0  0  0  0
    1.4890    0.7624   -0.0000 C   0  0  0  0  0  0  0  0  0  0  0  0
   -2.0727   -0.5241   -0.0000 C   0  0  0  0  0  0  0  0  0  0  0  0
   -2.0727    2.0727   -0.0000 C   0  0  0  0  0  0  0  0  0  0  0  0
    2.7279   -0.0476   -0.0000 C   0  0  0  0  0  0  0  0  0  0  0  0
   -1.3342   -1.8106   -0.0000 O   0  0  0  0  0  0  0  0  0  0  0  0
   -3.5856   -0.5122   -0.0000 C   0  0  0  0  0  0  0  0  0  0  0  0
   -3.5856    2.0846   -0.0000 C   0  0  0  0  0  0  0  0  0  0  0  0
    2.6207   -1.5367   -0.0000 O   0  0  0  0  0  0  0  0  0  0  0  0
    4.0620    0.6313   -0.0000 O   0  0  0  0  0  0  0  0  0  0  0  0
   -4.3479    0.7981   -0.0000 C   0  0  0  0  0  0  0  0  0  0  0  0
    5.3009   -0.1787   -0.0000 C   0  0  0  0  0  0  0  0  0  0  0  0
   -5.8608    0.8100   -0.0000 N   0  0  0  0  0  0  0  0  0  0  0  0
    6.7899   -0.1668   -0.0000 C   0  0  0  0  0  0  0  0  0  0  0  0
    4.2288   -1.2270   -0.0000 C   0  0  0  0  0  0  0  0  0  0  0  0
    8.0764    0.5956   -0.0000 C   0  0  0  0  0  0  0  0  0  0  0  0
    7.8382   -1.2150   -0.0000 C   0  0  0  0  0  0  0  0  0  0  0  0
    6.3849    1.2984   -0.0000 C   0  0  0  0  0  0  0  0  0  0  0  0
    4.2169   -2.7160   -0.0000 C   0  0  0  0  0  0  0  0  0  0  0  0
    7.9216   -0.3931   -0.0000 C   0  0  0  0  0  0  0  0  0  0  0  0
    8.8984    1.8464   -0.0000 C   0  0  0  0  0  0  0  0  0  0  0  0
    9.2557   -0.7386   -0.0000 C   0  0  0  0  0  0  0  0  0  0  0  0
    7.8263   -2.7041   -0.0000 C   0  0  0  0  0  0  0  0  0  0  0  0
    3.1448   -3.7642   -0.0000 C   0  0  0  0  0  0  0  0  0  0  0  0
    5.2652   -3.7642   -0.0000 C   0  0  0  0  0  0  0  0  0  0  0  0
    2.7517   -2.3110   -0.0000 C   0  0  0  0  0  0  0  0  0  0  0  0
    9.0890   -1.8940   -0.0000 C   0  0  0  0  0  0  0  0  0  0  0  0
    9.7084    0.7028   -0.0000 O   0  0  0  0  0  0  0  0  0  0  0  0
   10.1253   -1.9417   -0.0000 C   0  0  0  0  0  0  0  0  0  0  0  0
    6.7542   -3.7523   -0.0000 C   0  0  0  0  0  0  0  0  0  0  0  0
    9.2438   -3.1567   -0.0000 C   0  0  0  0  0  0  0  0  0  0  0  0
    1.6320   -3.7523   -0.0000 C   0  0  0  0  0  0  0  0  0  0  0  0
    4.6815   -5.1341   -0.0000 O   0  0  0  0  0  0  0  0  0  0  0  0
    7.3141   -5.1222   -0.0000 C   0  0  0  0  0  0  0  0  0  0  0  0
  2  1  1  6  0  0  0
  1  3  1  0  0  0  0
  2  4  1  0  0  0  0
  2  5  1  0  0  0  0
  3  6  1  0  0  0  0
  4  7  1  1  0  0  0
  4  8  1  0  0  0  0
  5  9  1  0  0  0  0
  6 10  2  0  0  0  0
  6 11  1  0  0  0  0
  8 12  1  0  0  0  0
 13 11  1  6  0  0  0
 12 14  1  1  0  0  0
 13 15  1  0  0  0  0
 13 16  1  0  0  0  0
 15 17  1  0  0  0  0
 15 18  1  0  0  0  0
 15 19  1  6  0  0  0
 16 20  1  0  0  0  0
 17 21  1  0  0  0  0
 17 22  1  1  0  0  0
 18 23  1  1  0  0  0
 18 24  1  0  0  0  0
 20 25  1  0  0  0  0
 20 26  1  0  0  0  0
 20 27  1  6  0  0  0
 21 28  1  0  0  0  0
 23 29  2  0  0  0  0
 23 30  1  0  0  0  0
 24 31  1  0  0  0  0
 24 32  1  6  0  0  0
 25 33  2  0  0  0  0
 26 34  1  1  0  0  0
 31 35  1  6  0  0  0
  9 12  1  0  0  0  0
 24 28  1  0  0  0  0
 26 31  1  0  0  0  0
 30 32  1  0  0  0  0
M  END
>  <MolRegNo>
1761965

>  <m>
=

>  <Value>
4650

>  <Unit>
nM

>  <Type>
IC50

>  <pValue>
5.33

>  <Ligand Efficiency>
0

>  <Binding Efficiency>
0

>  <Surface Efficiency>
0

>  <Assay Index>
874267

>  <Assay Category>


>  <Assay Organism>
Homo sapiens

>  <Target ID>
17045

>  <Target Name>
Cytochrome P450 3A4

>  <Target Organism>
Homo sapiens

>  <Target Description>
Target is a single protein chain

>  <Sequence Accession>
P08684

>  <Reference>
J Med Chem 57 (11), 4772-4795 (2014)

>  <Pubmed ID>
24874438

>  <DOI>
10.1021/jm500312x

$$$$
1761924
Actelion Java MolfileCreator 1.0

 26 29  0  0  0  0  0  0  0  0999 V2000
    0.0000   -0.0000   -0.0000 F   0  0  0  0  0  0  0  0  0  0  0  0
    0.7461   -1.2909   -0.0000 C   0  0  0  0  0  0  0  0  0  0  0  0
    1.4804    0.0237   -0.0000 F   0  0  0  0  0  0  0  0  0  0  0  0
   -0.7698   -1.2790   -0.0000 F   0  0  0  0  0  0  0  0  0  0  0  0
    1.4922   -2.5817   -0.0000 C   0  0  0  0  0  0  0  0  0  0  0  0
    2.9844   -2.5699   -0.0000 C   0  0  0  0  0  0  0  0  0  0  0  0
    0.7343   -3.8726   -0.0000 C   0  0  0  0  0  0  0  0  0  0  0  0
    3.7305   -3.8371   -0.0000 C   0  0  0  0  0  0  0  0  0  0  0  0
    3.7187   -1.2553   -0.0000 C   0  0  0  0  0  0  0  0  0  0  0  0
    1.4804   -5.1516   -0.0000 C   0  0  0  0  0  0  0  0  0  0  0  0
    2.9844   -5.1279   -0.0000 C   0  0  0  0  0  0  0  0  0  0  0  0
    5.2108   -1.2435   -0.0000 N   0  0  0  0  0  0  0  0  0  0  0  0
    6.0517   -0.0592   -0.0000 N   0  0  0  0  0  0  0  0  0  0  0  0
    6.0517   -2.4159   -0.0000 C   0  0  0  0  0  0  0  0  0  0  0  0
    7.4255   -0.4974   -0.0000 C   0  0  0  0  0  0  0  0  0  0  0  0
    5.5780    1.3856   -0.0000 C   0  0  0  0  0  0  0  0  0  0  0  0
    5.5898   -3.7779   -0.0000 O   0  0  0  0  0  0  0  0  0  0  0  0
    7.4255   -1.9541   -0.0000 C   0  0  0  0  0  0  0  0  0  0  0  0
    8.6690    0.2369   -0.0000 C   0  0  0  0  0  0  0  0  0  0  0  0
    8.6690   -2.6646   -0.0000 C   0  0  0  0  0  0  0  0  0  0  0  0
    9.4980   -1.2080   -0.0000 C   0  0  0  0  0  0  0  0  0  0  0  0
    9.9125   -0.4737   -0.0000 C   0  0  0  0  0  0  0  0  0  0  0  0
    8.2426    1.6462   -0.0000 C   0  0  0  0  0  0  0  0  0  0  0  0
    9.9125   -1.9304   -0.0000 C   0  0  0  0  0  0  0  0  0  0  0  0
   10.9428   -2.0251   -0.0000 C   0  0  0  0  0  0  0  0  0  0  0  0
   10.9428   -0.3553   -0.0000 C   0  0  0  0  0  0  0  0  0  0  0  0
  1  2  1  0  0  0  0
  2  3  1  0  0  0  0
  2  4  1  0  0  0  0
  2  5  1  0  0  0  0
  5  6  2  0  0  0  0
  5  7  1  0  0  0  0
  6  8  1  0  0  0  0
  6  9  1  0  0  0  0
  7 10  2  0  0  0  0
  8 11  2  0  0  0  0
  9 12  1  0  0  0  0
 12 13  1  0  0  0  0
 12 14  1  0  0  0  0
 13 15  1  0  0  0  0
 13 16  1  0  0  0  0
 14 17  2  0  0  0  0
 14 18  1  0  0  0  0
 15 19  1  0  0  0  0
 18 20  1  0  0  0  0
 19 21  1  0  0  0  0
 19 22  1  0  0  0  0
 19 23  1  6  0  0  0
 20 24  1  1  0  0  0
 21 25  1  0  0  0  0
 21 26  1  0  0  0  0
 10 11  1  0  0  0  0
 15 18  2  0  0  0  0
 20 21  1  0  0  0  0
 22 24  1  0  0  0  0
M  END
>  <MolRegNo>
1761924

>  <m>
=

>  <Value>
4800

>  <Unit>
nM

>  <Type>
IC50

>  <pValue>
5.32

>  <Ligand Efficiency>
0

>  <Binding Efficiency>
0

>  <Surface Efficiency>
0

>  <Assay Index>
870234

>  <Assay Category>


>  <Assay Organism>
Homo sapiens

>  <Target ID>
17045

>  <Target Name>
Cytochrome P450 3A4

>  <Target Organism>
Homo sapiens

>  <Target Description>
Target is a single protein chain

>  <Sequence Accession>
P08684

>  <Reference>
Bioorg Med Chem Lett 24 (12), 2707-2711 (2014)

>  <Pubmed ID>
24815509

>  <DOI>
10.1016/j.bmcl.2014.04.049

$$$$
1761913
Actelion Java MolfileCreator 1.0

 29 33  0  0  0  0  0  0  0  0999 V2000
    0.0000   -0.0000   -0.0000 F   0  0  0  0  0  0  0  0  0  0  0  0
   -0.7676   -1.2871   -0.0000 C   0  0  0  0  0  0  0  0  0  0  0  0
   -0.0354   -2.5743   -0.0000 C   0  0  0  0  0  0  0  0  0  0  0  0
   -2.2791   -1.2753   -0.0000 C   0  0  0  0  0  0  0  0  0  0  0  0
    1.4525   -2.5625   -0.0000 N   0  0  0  0  0  0  0  0  0  0  0  0
   -0.7912   -3.8614   -0.0000 C   0  0  0  0  0  0  0  0  0  0  0  0
   -3.0466   -2.5625   -0.0000 C   0  0  0  0  0  0  0  0  0  0  0  0
    2.2909   -1.3816   -0.0000 N   0  0  0  0  0  0  0  0  0  0  0  0
    2.2909   -3.7315   -0.0000 C   0  0  0  0  0  0  0  0  0  0  0  0
   -2.3027   -3.8496   -0.0000 C   0  0  0  0  0  0  0  0  0  0  0  0
   -4.5581   -2.5507   -0.0000 F   0  0  0  0  0  0  0  0  0  0  0  0
    3.6607   -1.8185   -0.0000 C   0  0  0  0  0  0  0  0  0  0  0  0
    1.8185    0.0590   -0.0000 C   0  0  0  0  0  0  0  0  0  0  0  0
    1.8303   -5.0895   -0.0000 O   0  0  0  0  0  0  0  0  0  0  0  0
    3.6607   -3.2710   -0.0000 C   0  0  0  0  0  0  0  0  0  0  0  0
    4.9006   -1.0864   -0.0000 C   0  0  0  0  0  0  0  0  0  0  0  0
    2.8105    1.1809   -0.0000 C   0  0  0  0  0  0  0  0  0  0  0  0
    4.9006   -3.9795   -0.0000 C   0  0  0  0  0  0  0  0  0  0  0  0
    5.7272   -2.5271   -0.0000 C   0  0  0  0  0  0  0  0  0  0  0  0
    6.1523   -1.7949   -0.0000 C   0  0  0  0  0  0  0  0  0  0  0  0
    4.4755    0.3188   -0.0000 C   0  0  0  0  0  0  0  0  0  0  0  0
    4.2629    0.8738   -0.0000 C   0  0  0  0  0  0  0  0  0  0  0  0
    2.3263    2.6097   -0.0000 C   0  0  0  0  0  0  0  0  0  0  0  0
    6.1523   -3.2474   -0.0000 C   0  0  0  0  0  0  0  0  0  0  0  0
    7.1679   -3.3419   -0.0000 C   0  0  0  0  0  0  0  0  0  0  0  0
    7.1679   -1.6768   -0.0000 C   0  0  0  0  0  0  0  0  0  0  0  0
    5.2549    1.9957   -0.0000 C   0  0  0  0  0  0  0  0  0  0  0  0
    3.3064    3.7433   -0.0000 C   0  0  0  0  0  0  0  0  0  0  0  0
    4.7825    3.4363   -0.0000 C   0  0  0  0  0  0  0  0  0  0  0  0
  1  2  1  0  0  0  0
  2  3  2  0  0  0  0
  2  4  1  0  0  0  0
  3  5  1  0  0  0  0
  3  6  1  0  0  0  0
  4  7  2  0  0  0  0
  5  8  1  0  0  0  0
  5  9  1  0  0  0  0
  6 10  2  0  0  0  0
  7 11  1  0  0  0  0
  8 12  1  0  0  0  0
  8 13  1  0  0  0  0
  9 14  2  0  0  0  0
  9 15  1  0  0  0  0
 12 16  1  0  0  0  0
 13 17  1  0  0  0  0
 15 18  1  0  0  0  0
 16 19  1  0  0  0  0
 16 20  1  0  0  0  0
 16 21  1  6  0  0  0
 17 22  2  0  0  0  0
 17 23  1  0  0  0  0
 18 24  1  1  0  0  0
 19 25  1  0  0  0  0
 19 26  1  0  0  0  0
 22 27  1  0  0  0  0
 23 28  2  0  0  0  0
 27 29  2  0  0  0  0
  7 10  1  0  0  0  0
 12 15  2  0  0  0  0
 18 19  1  0  0  0  0
 20 24  1  0  0  0  0
 28 29  1  0  0  0  0
M  END
>  <MolRegNo>
1761913

>  <m>
=

>  <Value>
6100

>  <Unit>
nM

>  <Type>
IC50

>  <pValue>
5.21

>  <Ligand Efficiency>
0

>  <Binding Efficiency>
0

>  <Surface Efficiency>
0

>  <Assay Index>
870234

>  <Assay Category>


>  <Assay Organism>
Homo sapiens

>  <Target ID>
17045

>  <Target Name>
Cytochrome P450 3A4

>  <Target Organism>
Homo sapiens

>  <Target Description>
Target is a single protein chain

>  <Sequence Accession>
P08684

>  <Reference>
Bioorg Med Chem Lett 24 (12), 2707-2711 (2014)

>  <Pubmed ID>
24815509

>  <DOI>
10.1016/j.bmcl.2014.04.049

$$$$
1761907
Actelion Java MolfileCreator 1.0

 27 31  0  0  0  0  0  0  0  0999 V2000
    0.0000   -0.0000   -0.0000 O   0  0  0  0  0  0  0  0  0  0  0  0
    0.4353    1.3766   -0.0000 C   0  0  0  0  0  0  0  0  0  0  0  0
   -0.4236    2.5649   -0.0000 N   0  0  0  0  0  0  0  0  0  0  0  0
    1.8001    1.8354   -0.0000 C   0  0  0  0  0  0  0  0  0  0  0  0
    0.4118    3.7414   -0.0000 N   0  0  0  0  0  0  0  0  0  0  0  0
   -1.9295    2.5766   -0.0000 C   0  0  0  0  0  0  0  0  0  0  0  0
    1.7884    3.2943   -0.0000 C   0  0  0  0  0  0  0  0  0  0  0  0
    3.0355    1.1295   -0.0000 C   0  0  0  0  0  0  0  0  0  0  0  0
   -0.0588    5.1768   -0.0000 C   0  0  0  0  0  0  0  0  0  0  0  0
   -2.6825    3.8826   -0.0000 C   0  0  0  0  0  0  0  0  0  0  0  0
   -2.6825    1.2942   -0.0000 C   0  0  0  0  0  0  0  0  0  0  0  0
    3.0237    4.0238   -0.0000 C   0  0  0  0  0  0  0  0  0  0  0  0
    3.8591    2.5884   -0.0000 C   0  0  0  0  0  0  0  0  0  0  0  0
    4.2826    1.8589   -0.0000 C   0  0  0  0  0  0  0  0  0  0  0  0
    0.9295    6.2945   -0.0000 C   0  0  0  0  0  0  0  0  0  0  0  0
   -4.1885    3.8944   -0.0000 C   0  0  0  0  0  0  0  0  0  0  0  0
   -4.1885    1.3060   -0.0000 C   0  0  0  0  0  0  0  0  0  0  0  0
    4.2591    3.3179   -0.0000 C   0  0  0  0  0  0  0  0  0  0  0  0
    2.6002    5.4239   -0.0000 C   0  0  0  0  0  0  0  0  0  0  0  0
    5.2945    1.7766   -0.0000 C   0  0  0  0  0  0  0  0  0  0  0  0
    5.2945    3.4355   -0.0000 C   0  0  0  0  0  0  0  0  0  0  0  0
    2.3766    5.9886   -0.0000 C   0  0  0  0  0  0  0  0  0  0  0  0
    0.4471    7.7182   -0.0000 C   0  0  0  0  0  0  0  0  0  0  0  0
   -4.9533    2.6119   -0.0000 C   0  0  0  0  0  0  0  0  0  0  0  0
    3.3649    7.1064   -0.0000 C   0  0  0  0  0  0  0  0  0  0  0  0
    1.4236    8.8477   -0.0000 C   0  0  0  0  0  0  0  0  0  0  0  0
    2.8943    8.5418   -0.0000 C   0  0  0  0  0  0  0  0  0  0  0  0
  1  2  2  0  0  0  0
  2  3  1  0  0  0  0
  2  4  1  0  0  0  0
  3  5  1  0  0  0  0
  3  6  1  0  0  0  0
  4  7  2  0  0  0  0
  4  8  1  0  0  0  0
  5  9  1  0  0  0  0
  6 10  2  0  0  0  0
  6 11  1  0  0  0  0
  7 12  1  0  0  0  0
  8 13  1  0  0  0  0
  8 14  1  1  0  0  0
  9 15  1  0  0  0  0
 10 16  1  0  0  0  0
 11 17  2  0  0  0  0
 12 18  1  0  0  0  0
 12 19  1  6  0  0  0
 13 20  1  0  0  0  0
 13 21  1  0  0  0  0
 15 22  2  0  0  0  0
 15 23  1  0  0  0  0
 16 24  2  0  0  0  0
 22 25  1  0  0  0  0
 23 26  2  0  0  0  0
 25 27  2  0  0  0  0
  5  7  1  0  0  0  0
 12 13  1  0  0  0  0
 14 18  1  0  0  0  0
 17 24  1  0  0  0  0
 26 27  1  0  0  0  0
M  END
>  <MolRegNo>
1761907

>  <m>
=

>  <Value>
7700

>  <Unit>
nM

>  <Type>
IC50

>  <pValue>
5.11

>  <Ligand Efficiency>
0

>  <Binding Efficiency>
0

>  <Surface Efficiency>
0

>  <Assay Index>
870234

>  <Assay Category>


>  <Assay Organism>
Homo sapiens

>  <Target ID>
17045

>  <Target Name>
Cytochrome P450 3A4

>  <Target Organism>
Homo sapiens

>  <Target Description>
Target is a single protein chain

>  <Sequence Accession>
P08684

>  <Reference>
Bioorg Med Chem Lett 24 (12), 2707-2711 (2014)

>  <Pubmed ID>
24815509

>  <DOI>
10.1016/j.bmcl.2014.04.049

$$$$
1761912
Actelion Java MolfileCreator 1.0

 25 28  0  0  0  0  0  0  0  0999 V2000
    0.0000   -0.0000   -0.0000 F   0  0  0  0  0  0  0  0  0  0  0  0
    0.3782   -1.4417   -0.0000 C   0  0  0  0  0  0  0  0  0  0  0  0
    1.4299   -0.3663   -0.0000 F   0  0  0  0  0  0  0  0  0  0  0  0
   -1.0872   -1.0399   -0.0000 F   0  0  0  0  0  0  0  0  0  0  0  0
    0.7563   -2.8834   -0.0000 C   0  0  0  0  0  0  0  0  0  0  0  0
    1.4890   -4.1715   -0.0000 C   0  0  0  0  0  0  0  0  0  0  0  0
   -0.7563   -2.8716   -0.0000 C   0  0  0  0  0  0  0  0  0  0  0  0
    2.9780   -4.1597   -0.0000 N   0  0  0  0  0  0  0  0  0  0  0  0
    0.7327   -5.4596   -0.0000 C   0  0  0  0  0  0  0  0  0  0  0  0
   -1.5244   -4.1597   -0.0000 C   0  0  0  0  0  0  0  0  0  0  0  0
    3.8170   -2.9780   -0.0000 N   0  0  0  0  0  0  0  0  0  0  0  0
    3.8170   -5.3296   -0.0000 C   0  0  0  0  0  0  0  0  0  0  0  0
   -0.7799   -5.4478   -0.0000 C   0  0  0  0  0  0  0  0  0  0  0  0
    5.1878   -3.4152   -0.0000 C   0  0  0  0  0  0  0  0  0  0  0  0
    3.3443   -1.5363   -0.0000 C   0  0  0  0  0  0  0  0  0  0  0  0
    3.3561   -6.6886   -0.0000 O   0  0  0  0  0  0  0  0  0  0  0  0
    5.1878   -4.8687   -0.0000 C   0  0  0  0  0  0  0  0  0  0  0  0
    6.4286   -2.6825   -0.0000 C   0  0  0  0  0  0  0  0  0  0  0  0
    6.4286   -5.5778   -0.0000 C   0  0  0  0  0  0  0  0  0  0  0  0
    7.2558   -4.1242   -0.0000 C   0  0  0  0  0  0  0  0  0  0  0  0
    7.6694   -3.3916   -0.0000 C   0  0  0  0  0  0  0  0  0  0  0  0
    6.0032   -1.2763   -0.0000 C   0  0  0  0  0  0  0  0  0  0  0  0
    7.6813   -4.8451   -0.0000 C   0  0  0  0  0  0  0  0  0  0  0  0
    8.6975   -4.9396   -0.0000 C   0  0  0  0  0  0  0  0  0  0  0  0
    8.6975   -3.2734   -0.0000 C   0  0  0  0  0  0  0  0  0  0  0  0
  1  2  1  0  0  0  0
  2  3  1  0  0  0  0
  2  4  1  0  0  0  0
  2  5  1  0  0  0  0
  5  6  2  0  0  0  0
  5  7  1  0  0  0  0
  6  8  1  0  0  0  0
  6  9  1  0  0  0  0
  7 10  2  0  0  0  0
  8 11  1  0  0  0  0
  8 12  1  0  0  0  0
  9 13  2  0  0  0  0
 11 14  1  0  0  0  0
 11 15  1  0  0  0  0
 12 16  2  0  0  0  0
 12 17  1  0  0  0  0
 14 18  1  0  0  0  0
 17 19  1  0  0  0  0
 18 20  1  0  0  0  0
 18 21  1  0  0  0  0
 18 22  1  6  0  0  0
 19 23  1  1  0  0  0
 20 24  1  0  0  0  0
 20 25  1  0  0  0  0
 10 13  1  0  0  0  0
 14 17  2  0  0  0  0
 19 20  1  0  0  0  0
 21 23  1  0  0  0  0
M  END
>  <MolRegNo>
1761912

>  <m>
=

>  <Value>
22600

>  <Unit>
nM

>  <Type>
IC50

>  <pValue>
4.65

>  <Ligand Efficiency>
0

>  <Binding Efficiency>
0

>  <Surface Efficiency>
0

>  <Assay Index>
870234

>  <Assay Category>


>  <Assay Organism>
Homo sapiens

>  <Target ID>
17045

>  <Target Name>
Cytochrome P450 3A4

>  <Target Organism>
Homo sapiens

>  <Target Description>
Target is a single protein chain

>  <Sequence Accession>
P08684

>  <Reference>
Bioorg Med Chem Lett 24 (12), 2707-2711 (2014)

>  <Pubmed ID>
24815509

>  <DOI>
10.1016/j.bmcl.2014.04.049

$$$$
1760362
Actelion Java MolfileCreator 1.0

 30 33  0  0  0  0  0  0  0  0999 V2000
    0.0000   -0.0000   -0.0000 Cl  0  0  0  0  0  0  0  0  0  0  0  0
    1.4278   -0.3757   -0.0000 C   0  0  0  0  0  0  0  0  0  0  0  0
    1.8036   -1.8036   -0.0000 C   0  0  0  0  0  0  0  0  0  0  0  0
    2.4674    0.6889   -0.0000 C   0  0  0  0  0  0  0  0  0  0  0  0
    3.2314   -2.1793   -0.0000 C   0  0  0  0  0  0  0  0  0  0  0  0
    0.7390   -2.8432   -0.0000 C   0  0  0  0  0  0  0  0  0  0  0  0
    3.8953    0.3131   -0.0000 C   0  0  0  0  0  0  0  0  0  0  0  0
    4.2710   -1.1147   -0.0000 C   0  0  0  0  0  0  0  0  0  0  0  0
    1.0396   -4.2961   -0.0000 O   0  0  0  0  0  0  0  0  0  0  0  0
   -0.7014   -2.3672   -0.0000 C   0  0  0  0  0  0  0  0  0  0  0  0
    4.9348    1.3777   -0.0000 C   0  0  0  0  0  0  0  0  0  0  0  0
   -1.8286   -3.3567   -0.0000 N   0  0  0  0  0  0  0  0  0  0  0  0
    5.9744    2.4424   -0.0000 F   0  0  0  0  0  0  0  0  0  0  0  0
    6.4504    1.1648   -0.0000 F   0  0  0  0  0  0  0  0  0  0  0  0
    4.8722    2.9809   -0.0000 F   0  0  0  0  0  0  0  0  0  0  0  0
   -1.6909   -4.8346   -0.0000 C   0  0  0  0  0  0  0  0  0  0  0  0
   -3.3066   -3.0310   -0.0000 C   0  0  0  0  0  0  0  0  0  0  0  0
   -3.0686   -5.4358   -0.0000 N   0  0  0  0  0  0  0  0  0  0  0  0
   -0.4133   -5.5736   -0.0000 N   0  0  0  0  0  0  0  0  0  0  0  0
   -4.0706   -1.7284   -0.0000 N   0  0  0  0  0  0  0  0  0  0  0  0
   -4.0706   -4.3086   -0.0000 C   0  0  0  0  0  0  0  0  0  0  0  0
   -5.5736   -1.7159   -0.0000 C   0  0  0  0  0  0  0  0  0  0  0  0
   -5.5736   -4.2961   -0.0000 C   0  0  0  0  0  0  0  0  0  0  0  0
   -6.3376   -0.4133   -0.0000 O   0  0  0  0  0  0  0  0  0  0  0  0
   -6.3376   -2.9935   -0.0000 C   0  0  0  0  0  0  0  0  0  0  0  0
   -7.8406   -0.4008   -0.0000 C   0  0  0  0  0  0  0  0  0  0  0  0
   -8.7299    0.8266   -0.0000 C   0  0  0  0  0  0  0  0  0  0  0  0
   -8.7299   -1.6032   -0.0000 C   0  0  0  0  0  0  0  0  0  0  0  0
  -10.1703    0.3757   -0.0000 O   0  0  0  0  0  0  0  0  0  0  0  0
  -10.1703   -1.1272   -0.0000 C   0  0  0  0  0  0  0  0  0  0  0  0
  1  2  1  0  0  0  0
  2  3  2  0  0  0  0
  2  4  1  0  0  0  0
  3  5  1  0  0  0  0
  3  6  1  0  0  0  0
  4  7  2  0  0  0  0
  5  8  2  0  0  0  0
  6  9  1  0  0  0  0
  6 10  1  0  0  0  0
  7 11  1  0  0  0  0
 10 12  1  0  0  0  0
 11 13  1  0  0  0  0
 11 14  1  0  0  0  0
 11 15  1  0  0  0  0
 12 16  1  0  0  0  0
 12 17  1  0  0  0  0
 16 18  2  0  0  0  0
 16 19  1  0  0  0  0
 17 20  2  0  0  0  0
 17 21  1  0  0  0  0
 20 22  1  0  0  0  0
 21 23  2  0  0  0  0
 22 24  1  0  0  0  0
 22 25  2  0  0  0  0
 24 26  1  0  0  0  0
 26 27  1  0  0  0  0
 26 28  1  0  0  0  0
 27 29  1  0  0  0  0
 28 30  1  0  0  0  0
  7  8  1  0  0  0  0
 18 21  1  0  0  0  0
 23 25  1  0  0  0  0
 29 30  1  0  0  0  0
M  END
>  <MolRegNo>
1760362

>  <m>
=

>  <Value>
2400

>  <Unit>
nM

>  <Type>
IC50

>  <pValue>
5.62

>  <Ligand Efficiency>
0

>  <Binding Efficiency>
0

>  <Surface Efficiency>
0

>  <Assay Index>
874003

>  <Assay Category>


>  <Assay Organism>
Homo sapiens

>  <Target ID>
17045

>  <Target Name>
Cytochrome P450 3A4

>  <Target Organism>
Homo sapiens

>  <Target Description>
Target is a single protein chain

>  <Sequence Accession>
P08684

>  <Reference>
J Med Chem 57 (13), 5702-5713 (2014)

>  <Pubmed ID>
24914738

>  <DOI>
10.1021/jm500535j

$$$$
1760357
Actelion Java MolfileCreator 1.0

 31 34  0  0  0  0  0  0  0  0999 V2000
    0.0000   -0.0000   -0.0000 Cl  0  0  0  0  0  0  0  0  0  0  0  0
    1.4409   -0.3779   -0.0000 C   0  0  0  0  0  0  0  0  0  0  0  0
    1.8188   -1.8188   -0.0000 C   0  0  0  0  0  0  0  0  0  0  0  0
    2.4920    0.6968   -0.0000 C   0  0  0  0  0  0  0  0  0  0  0  0
    3.2597   -2.1967   -0.0000 C   0  0  0  0  0  0  0  0  0  0  0  0
    0.7441   -2.8699   -0.0000 C   0  0  0  0  0  0  0  0  0  0  0  0
    3.9329    0.3189   -0.0000 C   0  0  0  0  0  0  0  0  0  0  0  0
    4.3108   -1.1220   -0.0000 C   0  0  0  0  0  0  0  0  0  0  0  0
    1.0393   -4.3226   -0.0000 O   0  0  0  0  0  0  0  0  0  0  0  0
   -0.6968   -2.3975   -0.0000 C   0  0  0  0  0  0  0  0  0  0  0  0
    4.9840    1.3936   -0.0000 C   0  0  0  0  0  0  0  0  0  0  0  0
   -1.8188   -3.3896   -0.0000 N   0  0  0  0  0  0  0  0  0  0  0  0
    4.7005    2.8463   -0.0000 F   0  0  0  0  0  0  0  0  0  0  0  0
    6.0351    2.4684   -0.0000 F   0  0  0  0  0  0  0  0  0  0  0  0
    6.3422    0.9803   -0.0000 F   0  0  0  0  0  0  0  0  0  0  0  0
   -1.6771   -4.8659   -0.0000 C   0  0  0  0  0  0  0  0  0  0  0  0
   -3.2951   -3.0707   -0.0000 C   0  0  0  0  0  0  0  0  0  0  0  0
   -3.0589   -5.4682   -0.0000 N   0  0  0  0  0  0  0  0  0  0  0  0
   -0.3897   -5.6099   -0.0000 N   0  0  0  0  0  0  0  0  0  0  0  0
   -4.0510   -1.7597   -0.0000 N   0  0  0  0  0  0  0  0  0  0  0  0
   -4.0510   -4.3580   -0.0000 C   0  0  0  0  0  0  0  0  0  0  0  0
   -5.5627   -1.7479   -0.0000 C   0  0  0  0  0  0  0  0  0  0  0  0
   -5.5627   -4.3462   -0.0000 C   0  0  0  0  0  0  0  0  0  0  0  0
   -6.3304   -0.4370   -0.0000 N   0  0  0  0  0  0  0  0  0  0  0  0
   -6.3304   -3.0353   -0.0000 C   0  0  0  0  0  0  0  0  0  0  0  0
   -7.8421   -0.4252   -0.0000 C   0  0  0  0  0  0  0  0  0  0  0  0
   -5.5863    0.8740   -0.0000 C   0  0  0  0  0  0  0  0  0  0  0  0
   -8.6098    0.8858   -0.0000 C   0  0  0  0  0  0  0  0  0  0  0  0
   -6.3540    2.1849   -0.0000 C   0  0  0  0  0  0  0  0  0  0  0  0
   -7.8657    2.1967   -0.0000 N   0  0  0  0  0  0  0  0  0  0  0  0
   -8.6334    3.5077   -0.0000 C   0  0  0  0  0  0  0  0  0  0  0  0
  1  2  1  0  0  0  0
  2  3  2  0  0  0  0
  2  4  1  0  0  0  0
  3  5  1  0  0  0  0
  3  6  1  0  0  0  0
  4  7  2  0  0  0  0
  5  8  2  0  0  0  0
  6  9  1  0  0  0  0
  6 10  1  0  0  0  0
  7 11  1  0  0  0  0
 10 12  1  0  0  0  0
 11 13  1  0  0  0  0
 11 14  1  0  0  0  0
 11 15  1  0  0  0  0
 12 16  1  0  0  0  0
 12 17  1  0  0  0  0
 16 18  2  0  0  0  0
 16 19  1  0  0  0  0
 17 20  2  0  0  0  0
 17 21  1  0  0  0  0
 20 22  1  0  0  0  0
 21 23  2  0  0  0  0
 22 24  1  0  0  0  0
 22 25  2  0  0  0  0
 24 26  1  0  0  0  0
 24 27  1  0  0  0  0
 26 28  1  0  0  0  0
 27 29  1  0  0  0  0
 28 30  1  0  0  0  0
 30 31  1  0  0  0  0
  7  8  1  0  0  0  0
 18 21  1  0  0  0  0
 23 25  1  0  0  0  0
 29 30  1  0  0  0  0
M  END
>  <MolRegNo>
1760357

>  <m>
=

>  <Value>
14100

>  <Unit>
nM

>  <Type>
IC50

>  <pValue>
4.85

>  <Ligand Efficiency>
0

>  <Binding Efficiency>
0

>  <Surface Efficiency>
0

>  <Assay Index>
874003

>  <Assay Category>


>  <Assay Organism>
Homo sapiens

>  <Target ID>
17045

>  <Target Name>
Cytochrome P450 3A4

>  <Target Organism>
Homo sapiens

>  <Target Description>
Target is a single protein chain

>  <Sequence Accession>
P08684

>  <Reference>
J Med Chem 57 (13), 5702-5713 (2014)

>  <Pubmed ID>
24914738

>  <DOI>
10.1021/jm500535j

$$$$
1760364
Actelion Java MolfileCreator 1.0

 31 33  0  0  0  0  0  0  0  0999 V2000
    0.0000   -0.0000   -0.0000 Cl  0  0  0  0  0  0  0  0  0  0  0  0
    1.4400   -0.3777   -0.0000 C   0  0  0  0  0  0  0  0  0  0  0  0
    1.8177   -1.8177   -0.0000 C   0  0  0  0  0  0  0  0  0  0  0  0
    2.4905    0.6964   -0.0000 C   0  0  0  0  0  0  0  0  0  0  0  0
    3.2577   -2.1954   -0.0000 C   0  0  0  0  0  0  0  0  0  0  0  0
    0.7436   -2.8682   -0.0000 C   0  0  0  0  0  0  0  0  0  0  0  0
    3.9304    0.3187   -0.0000 C   0  0  0  0  0  0  0  0  0  0  0  0
    4.3081   -1.1213   -0.0000 C   0  0  0  0  0  0  0  0  0  0  0  0
    1.0387   -4.3199   -0.0000 O   0  0  0  0  0  0  0  0  0  0  0  0
   -0.6964   -2.3960   -0.0000 C   0  0  0  0  0  0  0  0  0  0  0  0
    4.9809    1.3928   -0.0000 C   0  0  0  0  0  0  0  0  0  0  0  0
   -1.8177   -3.3875   -0.0000 N   0  0  0  0  0  0  0  0  0  0  0  0
    6.4681    1.0505   -0.0000 F   0  0  0  0  0  0  0  0  0  0  0  0
    4.3907    2.7855   -0.0000 F   0  0  0  0  0  0  0  0  0  0  0  0
    6.0314    2.4668   -0.0000 F   0  0  0  0  0  0  0  0  0  0  0  0
   -1.6760   -4.8629   -0.0000 C   0  0  0  0  0  0  0  0  0  0  0  0
   -3.2931   -3.0688   -0.0000 C   0  0  0  0  0  0  0  0  0  0  0  0
   -3.0570   -5.4648   -0.0000 N   0  0  0  0  0  0  0  0  0  0  0  0
   -0.3895   -5.5947   -0.0000 N   0  0  0  0  0  0  0  0  0  0  0  0
   -4.0485   -1.7587   -0.0000 N   0  0  0  0  0  0  0  0  0  0  0  0
   -4.0485   -4.3553   -0.0000 C   0  0  0  0  0  0  0  0  0  0  0  0
   -5.5593   -1.7469   -0.0000 C   0  0  0  0  0  0  0  0  0  0  0  0
   -5.5593   -4.3435   -0.0000 C   0  0  0  0  0  0  0  0  0  0  0  0
   -6.3147   -0.4367   -0.0000 O   0  0  0  0  0  0  0  0  0  0  0  0
   -6.3147   -3.0334   -0.0000 C   0  0  0  0  0  0  0  0  0  0  0  0
   -7.8254   -0.4249   -0.0000 C   0  0  0  0  0  0  0  0  0  0  0  0
   -8.5808   -1.7114   -0.0000 C   0  0  0  0  0  0  0  0  0  0  0  0
   -8.5808    0.8852   -0.0000 C   0  0  0  0  0  0  0  0  0  0  0  0
   -7.8373   -2.9980   -0.0000 F   0  0  0  0  0  0  0  0  0  0  0  0
  -10.0916   -1.6996   -0.0000 F   0  0  0  0  0  0  0  0  0  0  0  0
   -9.3362   -2.9980   -0.0000 F   0  0  0  0  0  0  0  0  0  0  0  0
  1  2  1  0  0  0  0
  2  3  2  0  0  0  0
  2  4  1  0  0  0  0
  3  5  1  0  0  0  0
  3  6  1  0  0  0  0
  4  7  2  0  0  0  0
  5  8  2  0  0  0  0
  6  9  1  0  0  0  0
  6 10  1  0  0  0  0
  7 11  1  0  0  0  0
 10 12  1  0  0  0  0
 11 13  1  0  0  0  0
 11 14  1  0  0  0  0
 11 15  1  0  0  0  0
 12 16  1  0  0  0  0
 12 17  1  0  0  0  0
 16 18  2  0  0  0  0
 16 19  1  0  0  0  0
 17 20  2  0  0  0  0
 17 21  1  0  0  0  0
 20 22  1  0  0  0  0
 21 23  2  0  0  0  0
 22 24  1  0  0  0  0
 22 25  2  0  0  0  0
 24 26  1  0  0  0  0
 26 27  1  0  0  0  0
 26 28  1  0  0  0  0
 27 29  1  0  0  0  0
 27 30  1  0  0  0  0
 27 31  1  0  0  0  0
  7  8  1  0  0  0  0
 18 21  1  0  0  0  0
 23 25  1  0  0  0  0
M  END
>  <MolRegNo>
1760364

>  <m>
=

>  <Value>
20300

>  <Unit>
nM

>  <Type>
IC50

>  <pValue>
4.69

>  <Ligand Efficiency>
0

>  <Binding Efficiency>
0

>  <Surface Efficiency>
0

>  <Assay Index>
874003

>  <Assay Category>


>  <Assay Organism>
Homo sapiens

>  <Target ID>
17045

>  <Target Name>
Cytochrome P450 3A4

>  <Target Organism>
Homo sapiens

>  <Target Description>
Target is a single protein chain

>  <Sequence Accession>
P08684

>  <Reference>
J Med Chem 57 (13), 5702-5713 (2014)

>  <Pubmed ID>
24914738

>  <DOI>
10.1021/jm500535j

$$$$
1758457
Actelion Java MolfileCreator 1.0

 37 40  0  0  0  0  0  0  0  0999 V2000
    0.0000   -0.0000   -0.0000 Cl  0  0  0  0  0  0  0  0  0  0  0  0
   -0.0119   -1.4737   -0.0000 C   0  0  0  0  0  0  0  0  0  0  0  0
    1.2598   -2.2106   -0.0000 C   0  0  0  0  0  0  0  0  0  0  0  0
   -1.3311   -2.2224   -0.0000 C   0  0  0  0  0  0  0  0  0  0  0  0
    1.2598   -3.6962   -0.0000 C   0  0  0  0  0  0  0  0  0  0  0  0
   -1.3311   -3.7080   -0.0000 C   0  0  0  0  0  0  0  0  0  0  0  0
   -0.0475   -4.4330   -0.0000 C   0  0  0  0  0  0  0  0  0  0  0  0
   -0.0475   -5.9186   -0.0000 C   0  0  0  0  0  0  0  0  0  0  0  0
    1.2479   -6.6436   -0.0000 C   0  0  0  0  0  0  0  0  0  0  0  0
   -1.3549   -6.6555   -0.0000 C   0  0  0  0  0  0  0  0  0  0  0  0
    1.2479   -8.1411   -0.0000 C   0  0  0  0  0  0  0  0  0  0  0  0
    2.5315   -5.8711   -0.0000 C   0  0  0  0  0  0  0  0  0  0  0  0
   -1.3667   -8.1529   -0.0000 C   0  0  0  0  0  0  0  0  0  0  0  0
   -2.6622   -5.8948   -0.0000 C   0  0  0  0  0  0  0  0  0  0  0  0
   -0.0594   -8.8779   -0.0000 N   0  0  0  0  0  0  0  0  0  0  0  0
    2.5433   -8.8779   -0.0000 C   0  0  0  0  0  0  0  0  0  0  0  0
    2.5077   -4.3617   -0.0000 O   0  0  0  0  0  0  0  0  0  0  0  0
    3.8269   -6.5960   -0.0000 C   0  0  0  0  0  0  0  0  0  0  0  0
   -2.6741   -8.8898   -0.0000 C   0  0  0  0  0  0  0  0  0  0  0  0
    3.7912   -3.5892   -0.0000 C   0  0  0  0  0  0  0  0  0  0  0  0
    3.8269   -8.0816   -0.0000 O   0  0  0  0  0  0  0  0  0  0  0  0
    5.1104   -5.8235   -0.0000 O   0  0  0  0  0  0  0  0  0  0  0  0
   -3.9814   -8.1292   -0.0000 C   0  0  0  0  0  0  0  0  0  0  0  0
   -2.6741  -10.3754   -0.0000 C   0  0  0  0  0  0  0  0  0  0  0  0
    3.7675   -2.0798   -0.0000 C   0  0  0  0  0  0  0  0  0  0  0  0
    5.0867   -4.3142   -0.0000 C   0  0  0  0  0  0  0  0  0  0  0  0
    5.0748   -2.8167   -0.0000 C   0  0  0  0  0  0  0  0  0  0  0  0
   -5.2887   -8.8660   -0.0000 C   0  0  0  0  0  0  0  0  0  0  0  0
   -3.9814  -11.1241   -0.0000 C   0  0  0  0  0  0  0  0  0  0  0  0
   -5.3006  -10.3516   -0.0000 C   0  0  0  0  0  0  0  0  0  0  0  0
   -6.6079  -11.0885   -0.0000 C   0  0  0  0  0  0  0  0  0  0  0  0
   -6.7743  -12.5860   -0.0000 C   0  0  0  0  0  0  0  0  0  0  0  0
   -8.0103  -10.4586   -0.0000 C   0  0  0  0  0  0  0  0  0  0  0  0
   -8.2718  -12.8950   -0.0000 O   0  0  0  0  0  0  0  0  0  0  0  0
   -5.6571  -13.5843   -0.0000 C   0  0  0  0  0  0  0  0  0  0  0  0
   -9.0324  -11.5758   -0.0000 N   0  0  0  0  0  0  0  0  0  0  0  0
   -8.3431   -8.9611   -0.0000 C   0  0  0  0  0  0  0  0  0  0  0  0
  1  2  1  0  0  0  0
  2  3  2  0  0  0  0
  2  4  1  0  0  0  0
  3  5  1  0  0  0  0
  4  6  2  0  0  0  0
  5  7  2  0  0  0  0
  7  8  1  0  0  0  0
  8  9  2  0  0  0  0
  8 10  1  0  0  0  0
  9 11  1  0  0  0  0
  9 12  1  0  0  0  0
 10 13  2  0  0  0  0
 10 14  1  0  0  0  0
 11 15  2  0  0  0  0
 11 16  1  0  0  0  0
 12 17  1  1  0  0  0
 12 18  1  0  0  0  0
 13 19  1  0  0  0  0
 17 20  1  0  0  0  0
 18 21  2  0  0  0  0
 18 22  1  0  0  0  0
 19 23  2  0  0  0  0
 19 24  1  0  0  0  0
 20 25  1  0  0  0  0
 20 26  1  0  0  0  0
 20 27  1  0  0  0  0
 23 28  1  0  0  0  0
 24 29  2  0  0  0  0
 28 30  2  0  0  0  0
 30 31  1  0  0  0  0
 31 32  2  0  0  0  0
 31 33  1  0  0  0  0
 32 34  1  0  0  0  0
 32 35  1  0  0  0  0
 33 36  2  0  0  0  0
 33 37  1  0  0  0  0
  6  7  1  0  0  0  0
 13 15  1  0  0  0  0
 29 30  1  0  0  0  0
 34 36  1  0  0  0  0
M  END
>  <MolRegNo>
1758457

>  <m>
=

>  <Value>
17000

>  <Unit>
nM

>  <Type>
IC50

>  <pValue>
4.77

>  <Ligand Efficiency>
0

>  <Binding Efficiency>
0

>  <Surface Efficiency>
0

>  <Assay Index>
873670

>  <Assay Category>


>  <Assay Organism>
Homo sapiens

>  <Target ID>
17045

>  <Target Name>
Cytochrome P450 3A4

>  <Target Organism>
Homo sapiens

>  <Target Description>
Target is a single protein chain

>  <Sequence Accession>
P08684

>  <Reference>
ACS Med Chem Lett 5 (6), 711-716 (2014)

>  <Pubmed ID>
24944749

>  <DOI>
10.1021/ml500110j

$$$$
1758543
Actelion Java MolfileCreator 1.0

 50 56  0  0  1  0  0  0  0  0999 V2000
    0.0000   -0.0000   -0.0000 F   0  0  0  0  0  0  0  0  0  0  0  0
    1.3000   -0.7395   -0.0000 C   0  0  0  0  0  0  0  0  0  0  0  0
    1.2881   -2.2422   -0.0000 C   0  0  0  0  0  0  0  0  0  0  0  0
    2.6000    0.0239   -0.0000 C   0  0  0  0  0  0  0  0  0  0  0  0
    2.5881   -2.9936   -0.0000 N   0  0  0  0  0  0  0  0  0  0  0  0
    3.9001   -0.7037   -0.0000 C   0  0  0  0  0  0  0  0  0  0  0  0
    3.8881   -2.2184   -0.0000 C   0  0  0  0  0  0  0  0  0  0  0  0
    5.1881    0.0596   -0.0000 C   0  0  0  0  0  0  0  0  0  0  0  0
    5.1881   -2.9578   -0.0000 O   0  0  0  0  0  0  0  0  0  0  0  0
    5.1762    1.5863   -0.0000 O   0  0  0  0  0  0  0  0  0  0  0  0
    6.4882   -0.6798   -0.0000 N   0  0  0  0  0  0  0  0  0  0  0  0
    5.1762   -4.4606   -0.0000 C   0  0  0  0  0  0  0  0  0  0  0  0
    7.7763    0.0835   -0.0000 C   0  0  0  0  0  0  0  0  0  0  0  0
    6.4643   -5.1881   -0.0000 C   0  0  0  0  0  0  0  0  0  0  0  0
    3.8523   -5.2001   -0.0000 C   0  0  0  0  0  0  0  0  0  0  0  0
    9.0763   -0.6560   -0.0000 C   0  0  0  0  0  0  0  0  0  0  0  0
    7.7643    1.5982   -0.0000 C   0  0  0  0  0  0  0  0  0  0  0  0
    6.4643   -6.6790   -0.0000 C   0  0  0  0  0  0  0  0  0  0  0  0
    3.8404   -6.7028   -0.0000 C   0  0  0  0  0  0  0  0  0  0  0  0
   10.3644    0.1073   -0.0000 C   0  0  0  0  0  0  0  0  0  0  0  0
    9.0643    2.3734   -0.0000 C   0  0  0  0  0  0  0  0  0  0  0  0
    7.7643   -7.4185   -0.0000 C   0  0  0  0  0  0  0  0  0  0  0  0
    5.1404   -7.4304   -0.0000 C   0  0  0  0  0  0  0  0  0  0  0  0
   10.3524    1.6340   -0.0000 C   0  0  0  0  0  0  0  0  0  0  0  0
    7.7524   -8.9212   -0.0000 C   0  0  0  0  0  0  0  0  0  0  0  0
    9.0524   -6.6432   -0.0000 C   0  0  0  0  0  0  0  0  0  0  0  0
   11.6525    2.4092   -0.0000 N   0  0  0  0  0  0  0  0  0  0  0  0
    9.0524   -9.6488   -0.0000 C   0  0  0  0  0  0  0  0  0  0  0  0
   10.3524   -7.3707   -0.0000 C   0  0  0  0  0  0  0  0  0  0  0  0
   12.9525    1.6578   -0.0000 C   0  0  0  0  0  0  0  0  0  0  0  0
   10.3405   -8.8735   -0.0000 C   0  0  0  0  0  0  0  0  0  0  0  0
   12.9405    0.1550   -0.0000 O   0  0  0  0  0  0  0  0  0  0  0  0
   14.1452    2.5643   -0.0000 C   0  0  0  0  0  0  0  0  0  0  0  0
   11.6405   -9.6011   -0.0000 C   0  0  0  0  0  0  0  0  0  0  0  0
   15.5764    2.1230   -0.0000 N   0  0  0  0  0  0  0  0  0  0  0  0
   14.1213    4.0670   -0.0000 C   0  0  0  0  0  0  0  0  0  0  0  0
   11.6405  -11.0919   -0.0000 N   0  0  0  0  0  0  0  0  0  0  0  0
   16.4232    3.3634   -0.0000 N   0  0  0  0  0  0  0  0  0  0  0  0
   15.5287    4.5680   -0.0000 C   0  0  0  0  0  0  0  0  0  0  0  0
   10.3286  -11.8314   -0.0000 C   0  0  0  0  0  0  0  0  0  0  0  0
   12.9286  -11.8075   -0.0000 C   0  0  0  0  0  0  0  0  0  0  0  0
   17.9021    3.5542   -0.0000 C   0  0  0  0  0  0  0  0  0  0  0  0
   16.1131    5.9515   -0.0000 C   0  0  0  0  0  0  0  0  0  0  0  0
   10.3167  -13.3222   -0.0000 C   0  0  0  0  0  0  0  0  0  0  0  0
   12.9167  -13.2984   -0.0000 C   0  0  0  0  0  0  0  0  0  0  0  0
   18.4865    4.9496   -0.0000 C   0  0  0  0  0  0  0  0  0  0  0  0
   17.5920    6.1423   -0.0000 C   0  0  0  0  0  0  0  0  0  0  0  0
   11.6048  -14.0617   -0.0000 N   0  0  0  0  0  0  0  0  0  0  0  0
    9.0047  -14.0617   -0.0000 C   0  0  0  0  0  0  0  0  0  0  0  0
   14.2048  -14.0378   -0.0000 C   0  0  0  0  0  0  0  0  0  0  0  0
  1  2  1  0  0  0  0
  2  3  2  0  0  0  0
  2  4  1  0  0  0  0
  3  5  1  0  0  0  0
  4  6  2  0  0  0  0
  5  7  2  0  0  0  0
  6  8  1  0  0  0  0
  7  9  1  0  0  0  0
  8 10  2  0  0  0  0
  8 11  1  0  0  0  0
  9 12  1  0  0  0  0
 13 11  1  6  0  0  0
 12 14  2  0  0  0  0
 12 15  1  0  0  0  0
 13 16  1  0  0  0  0
 13 17  1  0  0  0  0
 14 18  1  0  0  0  0
 15 19  2  0  0  0  0
 16 20  1  0  0  0  0
 17 21  1  0  0  0  0
 18 22  1  0  0  0  0
 18 23  2  0  0  0  0
 20 24  1  0  0  0  0
 22 25  2  0  0  0  0
 22 26  1  0  0  0  0
 24 27  1  6  0  0  0
 25 28  1  0  0  0  0
 26 29  2  0  0  0  0
 27 30  1  0  0  0  0
 28 31  2  0  0  0  0
 30 32  2  0  0  0  0
 30 33  1  0  0  0  0
 31 34  1  0  0  0  0
 33 35  2  0  0  0  0
 33 36  1  0  0  0  0
 34 37  1  0  0  0  0
 35 38  1  0  0  0  0
 36 39  2  0  0  0  0
 37 40  1  0  0  0  0
 37 41  1  0  0  0  0
 38 42  1  0  0  0  0
 39 43  1  0  0  0  0
 40 44  1  0  0  0  0
 41 45  1  0  0  0  0
 42 46  2  0  0  0  0
 43 47  2  0  0  0  0
 44 48  1  0  0  0  0
 44 49  1  1  0  0  0
 45 50  1  1  0  0  0
  6  7  1  0  0  0  0
 19 23  1  0  0  0  0
 21 24  1  0  0  0  0
 29 31  1  0  0  0  0
 38 39  1  0  0  0  0
 45 48  1  0  0  0  0
 46 47  1  0  0  0  0
M  END
>  <MolRegNo>
1758543

>  <m>
=

>  <Value>
398.11

>  <Unit>
nM

>  <Type>
IC50

>  <pValue>
6.4

>  <Ligand Efficiency>
0

>  <Binding Efficiency>
0

>  <Surface Efficiency>
0

>  <Assay Index>
869803

>  <Assay Category>


>  <Assay Organism>
Homo sapiens

>  <Target ID>
17045

>  <Target Name>
Cytochrome P450 3A4

>  <Target Organism>
Homo sapiens

>  <Target Description>
Target is a single protein chain

>  <Sequence Accession>
P08684

>  <Reference>
J Med Chem 57 (11), 4661-4676 (2014)

>  <Pubmed ID>
24785301

>  <DOI>
10.1021/jm5001216

$$$$
1758269
Actelion Java MolfileCreator 1.0

 47 52  0  0  1  0  0  0  0  0999 V2000
    0.0000   -0.0000   -0.0000 F   0  0  0  0  0  0  0  0  0  0  0  0
    1.2881   -0.7395   -0.0000 C   0  0  0  0  0  0  0  0  0  0  0  0
    1.2762   -2.2423   -0.0000 C   0  0  0  0  0  0  0  0  0  0  0  0
    2.5763    0.0239   -0.0000 C   0  0  0  0  0  0  0  0  0  0  0  0
    2.5644   -2.9818   -0.0000 N   0  0  0  0  0  0  0  0  0  0  0  0
    3.8763   -0.7156   -0.0000 C   0  0  0  0  0  0  0  0  0  0  0  0
    3.8644   -2.2185   -0.0000 C   0  0  0  0  0  0  0  0  0  0  0  0
    5.1645    0.0596   -0.0000 C   0  0  0  0  0  0  0  0  0  0  0  0
    5.1645   -2.9580   -0.0000 O   0  0  0  0  0  0  0  0  0  0  0  0
    5.1526    1.5744   -0.0000 O   0  0  0  0  0  0  0  0  0  0  0  0
    6.4646   -0.6799   -0.0000 N   0  0  0  0  0  0  0  0  0  0  0  0
    5.1526   -4.4489   -0.0000 C   0  0  0  0  0  0  0  0  0  0  0  0
    7.7527    0.0954   -0.0000 C   0  0  0  0  0  0  0  0  0  0  0  0
    6.4407   -5.1764   -0.0000 C   0  0  0  0  0  0  0  0  0  0  0  0
    3.8286   -5.1883   -0.0000 C   0  0  0  0  0  0  0  0  0  0  0  0
    9.0528   -0.6560   -0.0000 C   0  0  0  0  0  0  0  0  0  0  0  0
    7.7408    1.6102   -0.0000 C   0  0  0  0  0  0  0  0  0  0  0  0
    6.4407   -6.6673   -0.0000 C   0  0  0  0  0  0  0  0  0  0  0  0
    3.8167   -6.6792   -0.0000 C   0  0  0  0  0  0  0  0  0  0  0  0
   10.3409    0.1073   -0.0000 C   0  0  0  0  0  0  0  0  0  0  0  0
    9.0408    2.3735   -0.0000 C   0  0  0  0  0  0  0  0  0  0  0  0
    7.7288   -7.3949   -0.0000 C   0  0  0  0  0  0  0  0  0  0  0  0
    5.1168   -7.4187   -0.0000 C   0  0  0  0  0  0  0  0  0  0  0  0
   10.3290    1.6221   -0.0000 C   0  0  0  0  0  0  0  0  0  0  0  0
    9.0170   -6.6196   -0.0000 C   0  0  0  0  0  0  0  0  0  0  0  0
    7.7169   -8.8977   -0.0000 C   0  0  0  0  0  0  0  0  0  0  0  0
   11.6171    2.3854   -0.0000 N   0  0  0  0  0  0  0  0  0  0  0  0
   10.3170   -7.3472   -0.0000 C   0  0  0  0  0  0  0  0  0  0  0  0
    8.9931   -5.1048   -0.0000 C   0  0  0  0  0  0  0  0  0  0  0  0
    9.0170   -9.6372   -0.0000 C   0  0  0  0  0  0  0  0  0  0  0  0
   12.9052    1.6460   -0.0000 C   0  0  0  0  0  0  0  0  0  0  0  0
   10.3170   -8.8500   -0.0000 C   0  0  0  0  0  0  0  0  0  0  0  0
   10.2813   -4.3296   -0.0000 N   0  0  0  0  0  0  0  0  0  0  0  0
   12.8933    0.1551   -0.0000 O   0  0  0  0  0  0  0  0  0  0  0  0
   14.0860    2.5763   -0.0000 C   0  0  0  0  0  0  0  0  0  0  0  0
   11.6171   -9.5776   -0.0000 O   0  0  0  0  0  0  0  0  0  0  0  0
   11.5694   -5.0571   -0.0000 C   0  0  0  0  0  0  0  0  0  0  0  0
   10.2455   -2.8148   -0.0000 C   0  0  0  0  0  0  0  0  0  0  0  0
   15.5173    2.1588   -0.0000 N   0  0  0  0  0  0  0  0  0  0  0  0
   14.0264    4.0791   -0.0000 C   0  0  0  0  0  0  0  0  0  0  0  0
   12.8575   -4.2819   -0.0000 C   0  0  0  0  0  0  0  0  0  0  0  0
   11.5217   -2.0396   -0.0000 C   0  0  0  0  0  0  0  0  0  0  0  0
   16.3522    3.4231   -0.0000 N   0  0  0  0  0  0  0  0  0  0  0  0
   15.4338    4.6039   -0.0000 C   0  0  0  0  0  0  0  0  0  0  0  0
   12.8337   -2.7671   -0.0000 O   0  0  0  0  0  0  0  0  0  0  0  0
   17.8431    3.4827   -0.0000 C   0  0  0  0  0  0  0  0  0  0  0  0
   15.8393    6.0590   -0.0000 C   0  0  0  0  0  0  0  0  0  0  0  0
  1  2  1  0  0  0  0
  2  3  2  0  0  0  0
  2  4  1  0  0  0  0
  3  5  1  0  0  0  0
  4  6  2  0  0  0  0
  5  7  2  0  0  0  0
  6  8  1  0  0  0  0
  7  9  1  0  0  0  0
  8 10  2  0  0  0  0
  8 11  1  0  0  0  0
  9 12  1  0  0  0  0
 13 11  1  6  0  0  0
 12 14  2  0  0  0  0
 12 15  1  0  0  0  0
 13 16  1  0  0  0  0
 13 17  1  0  0  0  0
 14 18  1  0  0  0  0
 15 19  2  0  0  0  0
 16 20  1  0  0  0  0
 17 21  1  0  0  0  0
 18 22  1  0  0  0  0
 18 23  2  0  0  0  0
 20 24  1  0  0  0  0
 22 25  2  0  0  0  0
 22 26  1  0  0  0  0
 24 27  1  6  0  0  0
 25 28  1  0  0  0  0
 25 29  1  0  0  0  0
 26 30  2  0  0  0  0
 27 31  1  0  0  0  0
 28 32  2  0  0  0  0
 29 33  1  0  0  0  0
 31 34  2  0  0  0  0
 31 35  1  0  0  0  0
 32 36  1  0  0  0  0
 33 37  1  0  0  0  0
 33 38  1  0  0  0  0
 35 39  2  0  0  0  0
 35 40  1  0  0  0  0
 37 41  1  0  0  0  0
 38 42  1  0  0  0  0
 39 43  1  0  0  0  0
 40 44  2  0  0  0  0
 41 45  1  0  0  0  0
 43 46  1  0  0  0  0
 44 47  1  0  0  0  0
  6  7  1  0  0  0  0
 19 23  1  0  0  0  0
 21 24  1  0  0  0  0
 30 32  1  0  0  0  0
 42 45  1  0  0  0  0
 43 44  1  0  0  0  0
M  END
>  <MolRegNo>
1758269

>  <m>
=

>  <Value>
501.19

>  <Unit>
nM

>  <Type>
IC50

>  <pValue>
6.3

>  <Ligand Efficiency>
0

>  <Binding Efficiency>
0

>  <Surface Efficiency>
0

>  <Assay Index>
869803

>  <Assay Category>


>  <Assay Organism>
Homo sapiens

>  <Target ID>
17045

>  <Target Name>
Cytochrome P450 3A4

>  <Target Organism>
Homo sapiens

>  <Target Description>
Target is a single protein chain

>  <Sequence Accession>
P08684

>  <Reference>
J Med Chem 57 (11), 4661-4676 (2014)

>  <Pubmed ID>
24785301

>  <DOI>
10.1021/jm5001216

$$$$
1758984
Actelion Java MolfileCreator 1.0

 49 52  0  0  0  0  0  0  0  0999 V2000
    0.0000   -0.0000   -0.0000 Cl  0  0  0  0  0  0  0  0  0  0  0  0
   -5.2983   -2.0815   -0.0000 F   0  0  0  0  0  0  0  0  0  0  0  0
   -6.6111   -1.3246   -0.0000 C   0  0  0  0  0  0  0  0  0  0  0  0
   -6.6229    0.1892   -0.0000 F   0  0  0  0  0  0  0  0  0  0  0  0
   -5.3338   -0.5559   -0.0000 F   0  0  0  0  0  0  0  0  0  0  0  0
   -7.9239   -2.0697   -0.0000 C   0  0  0  0  0  0  0  0  0  0  0  0
   -9.2248   -1.3128   -0.0000 C   0  0  0  0  0  0  0  0  0  0  0  0
   -7.9357   -3.5480   -0.0000 C   0  0  0  0  0  0  0  0  0  0  0  0
   -9.2366    0.2011   -0.0000 C   0  0  0  0  0  0  0  0  0  0  0  0
  -10.5376   -2.0460   -0.0000 C   0  0  0  0  0  0  0  0  0  0  0  0
   -9.2485   -4.2931   -0.0000 C   0  0  0  0  0  0  0  0  0  0  0  0
   -7.9475    0.9580   -0.0000 O   0  0  0  0  0  0  0  0  0  0  0  0
  -10.5494    0.9580   -0.0000 N   0  0  0  0  0  0  0  0  0  0  0  0
  -10.5494   -3.5243   -0.0000 N   0  0  0  0  0  0  0  0  0  0  0  0
  -10.5612    2.4718   -0.0000 C   0  0  0  0  0  0  0  0  0  0  0  0
  -11.8503    0.2247   -0.0000 C   0  0  0  0  0  0  0  0  0  0  0  0
  -11.8622    3.2405   -0.0000 C   0  0  0  0  0  0  0  0  0  0  0  0
  -13.1513    0.9816   -0.0000 C   0  0  0  0  0  0  0  0  0  0  0  0
  -11.1289    4.5533   -0.0000 O   0  0  0  0  0  0  0  0  0  0  0  0
  -12.6191    4.5533   -0.0000 C   0  0  0  0  0  0  0  0  0  0  0  0
  -13.1631    2.4954   -0.0000 C   0  0  0  0  0  0  0  0  0  0  0  0
   -9.6387    4.5651   -0.0000 C   0  0  0  0  0  0  0  0  0  0  0  0
  -11.8858    5.8660   -0.0000 O   0  0  0  0  0  0  0  0  0  0  0  0
  -14.1329    4.5651   -0.0000 N   0  0  0  0  0  0  0  0  0  0  0  0
   -8.9055    3.2760   -0.0000 C   0  0  0  0  0  0  0  0  0  0  0  0
   -8.9055    5.8779   -0.0000 C   0  0  0  0  0  0  0  0  0  0  0  0
  -14.8898    5.8897   -0.0000 C   0  0  0  0  0  0  0  0  0  0  0  0
  -14.8898    3.2878   -0.0000 C   0  0  0  0  0  0  0  0  0  0  0  0
   -7.4271    3.2878   -0.0000 C   0  0  0  0  0  0  0  0  0  0  0  0
   -7.4271    5.8897   -0.0000 C   0  0  0  0  0  0  0  0  0  0  0  0
  -16.3918    5.9015   -0.0000 C   0  0  0  0  0  0  0  0  0  0  0  0
  -16.4036    3.3115   -0.0000 C   0  0  0  0  0  0  0  0  0  0  0  0
   -6.6939    4.6006   -0.0000 C   0  0  0  0  0  0  0  0  0  0  0  0
  -17.1605    4.6242   -0.0000 N   0  0  0  0  0  0  0  0  0  0  0  0
   -5.2037    4.6124   -0.0000 C   0  0  0  0  0  0  0  0  0  0  0  0
  -18.6743    4.6361   -0.0000 C   0  0  0  0  0  0  0  0  0  0  0  0
   -4.4705    3.3233   -0.0000 F   0  0  0  0  0  0  0  0  0  0  0  0
   -4.4705    5.9252   -0.0000 F   0  0  0  0  0  0  0  0  0  0  0  0
   -3.7254    4.6242   -0.0000 F   0  0  0  0  0  0  0  0  0  0  0  0
  -19.4312    3.3588   -0.0000 C   0  0  0  0  0  0  0  0  0  0  0  0
  -19.4312    5.9488   -0.0000 C   0  0  0  0  0  0  0  0  0  0  0  0
  -18.6980    2.0697   -0.0000 O   0  0  0  0  0  0  0  0  0  0  0  0
  -20.9332    3.3706   -0.0000 C   0  0  0  0  0  0  0  0  0  0  0  0
  -20.9332    5.9725   -0.0000 C   0  0  0  0  0  0  0  0  0  0  0  0
  -19.4549    0.7806   -0.0000 C   0  0  0  0  0  0  0  0  0  0  0  0
  -21.7019    4.6834   -0.0000 C   0  0  0  0  0  0  0  0  0  0  0  0
  -18.7216   -0.5085   -0.0000 C   0  0  0  0  0  0  0  0  0  0  0  0
  -19.4785   -1.7977   -0.0000 O   0  0  0  0  0  0  0  0  0  0  0  0
  -18.7453   -3.0868   -0.0000 C   0  0  0  0  0  0  0  0  0  0  0  0
  2  3  1  0  0  0  0
  3  4  1  0  0  0  0
  3  5  1  0  0  0  0
  3  6  1  0  0  0  0
  6  7  2  0  0  0  0
  6  8  1  0  0  0  0
  7  9  1  0  0  0  0
  7 10  1  0  0  0  0
  8 11  2  0  0  0  0
  9 12  2  0  0  0  0
  9 13  1  0  0  0  0
 10 14  2  0  0  0  0
 13 15  1  0  0  0  0
 13 16  1  0  0  0  0
 15 17  1  0  0  0  0
 16 18  1  0  0  0  0
 17 19  1  6  0  0  0
 17 20  1  0  0  0  0
 17 21  1  0  0  0  0
 19 22  1  0  0  0  0
 20 23  2  0  0  0  0
 20 24  1  0  0  0  0
 22 25  2  0  0  0  0
 22 26  1  0  0  0  0
 24 27  1  0  0  0  0
 24 28  1  0  0  0  0
 25 29  1  0  0  0  0
 26 30  2  0  0  0  0
 27 31  1  0  0  0  0
 28 32  1  0  0  0  0
 29 33  2  0  0  0  0
 31 34  1  0  0  0  0
 33 35  1  0  0  0  0
 34 36  1  0  0  0  0
 35 37  1  0  0  0  0
 35 38  1  0  0  0  0
 35 39  1  0  0  0  0
 36 40  2  0  0  0  0
 36 41  1  0  0  0  0
 40 42  1  0  0  0  0
 40 43  1  0  0  0  0
 41 44  2  0  0  0  0
 42 45  1  0  0  0  0
 43 46  2  0  0  0  0
 45 47  1  0  0  0  0
 47 48  1  0  0  0  0
 48 49  1  0  0  0  0
 11 14  1  0  0  0  0
 18 21  1  0  0  0  0
 30 33  1  0  0  0  0
 32 34  1  0  0  0  0
 44 46  1  0  0  0  0
M  END
>  <MolRegNo>
1758984

>  <m>
=

>  <Value>
4900

>  <Unit>
nM

>  <Type>
IC50

>  <pValue>
5.31

>  <Ligand Efficiency>
0

>  <Binding Efficiency>
0

>  <Surface Efficiency>
0

>  <Assay Index>
871542

>  <Assay Category>


>  <Assay Organism>
Homo sapiens

>  <Target ID>
17045

>  <Target Name>
Cytochrome P450 3A4

>  <Target Organism>
Homo sapiens

>  <Target Description>
Target is a single protein chain

>  <Sequence Accession>
P08684

>  <Reference>
ACS Med Chem Lett 5 (5), 572-575 (2014)

>  <Pubmed ID>
24900882

>  <DOI>
10.1021/ml500019s

$$$$
1758985
Actelion Java MolfileCreator 1.0

 52 55  0  0  0  0  0  0  0  0999 V2000
    0.0000   -0.0000   -0.0000 Cl  0  0  0  0  0  0  0  0  0  0  0  0
   -3.8814   -2.5561   -0.0000 F   0  0  0  0  0  0  0  0  0  0  0  0
   -5.1950   -1.7987   -0.0000 C   0  0  0  0  0  0  0  0  0  0  0  0
   -5.2068   -0.2840   -0.0000 F   0  0  0  0  0  0  0  0  0  0  0  0
   -3.9169   -1.0295   -0.0000 F   0  0  0  0  0  0  0  0  0  0  0  0
   -6.5085   -2.5442   -0.0000 C   0  0  0  0  0  0  0  0  0  0  0  0
   -7.8102   -1.7869   -0.0000 C   0  0  0  0  0  0  0  0  0  0  0  0
   -6.5203   -4.0234   -0.0000 C   0  0  0  0  0  0  0  0  0  0  0  0
   -7.8220   -0.2722   -0.0000 C   0  0  0  0  0  0  0  0  0  0  0  0
   -9.1237   -2.5206   -0.0000 C   0  0  0  0  0  0  0  0  0  0  0  0
   -7.8339   -4.7690   -0.0000 C   0  0  0  0  0  0  0  0  0  0  0  0
   -6.5322    0.4852   -0.0000 O   0  0  0  0  0  0  0  0  0  0  0  0
   -9.1356    0.4852   -0.0000 N   0  0  0  0  0  0  0  0  0  0  0  0
   -9.1356   -3.9998   -0.0000 N   0  0  0  0  0  0  0  0  0  0  0  0
   -9.1474    1.9999   -0.0000 C   0  0  0  0  0  0  0  0  0  0  0  0
  -10.4373   -0.2485   -0.0000 C   0  0  0  0  0  0  0  0  0  0  0  0
  -10.4491    2.7691   -0.0000 C   0  0  0  0  0  0  0  0  0  0  0  0
   -7.7392    2.4851   -0.0000 C   0  0  0  0  0  0  0  0  0  0  0  0
  -11.7390    0.5088   -0.0000 C   0  0  0  0  0  0  0  0  0  0  0  0
   -9.7154    4.0826   -0.0000 O   0  0  0  0  0  0  0  0  0  0  0  0
  -11.2065    4.0826   -0.0000 C   0  0  0  0  0  0  0  0  0  0  0  0
  -11.7508    2.0236   -0.0000 C   0  0  0  0  0  0  0  0  0  0  0  0
   -6.6387    1.5029   -0.0000 C   0  0  0  0  0  0  0  0  0  0  0  0
   -8.2244    4.0944   -0.0000 C   0  0  0  0  0  0  0  0  0  0  0  0
  -10.4728    5.3961   -0.0000 O   0  0  0  0  0  0  0  0  0  0  0  0
  -12.7212    4.0944   -0.0000 N   0  0  0  0  0  0  0  0  0  0  0  0
   -5.2305    1.9881   -0.0000 C   0  0  0  0  0  0  0  0  0  0  0  0
   -7.4907    2.8046   -0.0000 C   0  0  0  0  0  0  0  0  0  0  0  0
   -7.4907    5.4080   -0.0000 C   0  0  0  0  0  0  0  0  0  0  0  0
  -13.4785    5.4198   -0.0000 C   0  0  0  0  0  0  0  0  0  0  0  0
  -13.4785    2.8164   -0.0000 C   0  0  0  0  0  0  0  0  0  0  0  0
   -6.0115    2.8164   -0.0000 C   0  0  0  0  0  0  0  0  0  0  0  0
   -6.0115    5.4198   -0.0000 C   0  0  0  0  0  0  0  0  0  0  0  0
  -14.9814    5.4316   -0.0000 C   0  0  0  0  0  0  0  0  0  0  0  0
  -14.9932    2.8401   -0.0000 C   0  0  0  0  0  0  0  0  0  0  0  0
   -5.2778    4.1299   -0.0000 C   0  0  0  0  0  0  0  0  0  0  0  0
  -15.7506    4.1536   -0.0000 N   0  0  0  0  0  0  0  0  0  0  0  0
   -3.7868    4.1418   -0.0000 C   0  0  0  0  0  0  0  0  0  0  0  0
  -17.2653    4.1654   -0.0000 C   0  0  0  0  0  0  0  0  0  0  0  0
   -3.0531    2.8519   -0.0000 F   0  0  0  0  0  0  0  0  0  0  0  0
   -3.0531    5.4553   -0.0000 F   0  0  0  0  0  0  0  0  0  0  0  0
   -2.3076    4.1536   -0.0000 F   0  0  0  0  0  0  0  0  0  0  0  0
  -18.0227    2.8874   -0.0000 C   0  0  0  0  0  0  0  0  0  0  0  0
  -18.0227    5.4790   -0.0000 C   0  0  0  0  0  0  0  0  0  0  0  0
  -17.2890    1.5975   -0.0000 O   0  0  0  0  0  0  0  0  0  0  0  0
  -19.5255    2.8992   -0.0000 C   0  0  0  0  0  0  0  0  0  0  0  0
  -19.5255    5.5026   -0.0000 C   0  0  0  0  0  0  0  0  0  0  0  0
  -18.0463    0.3077   -0.0000 C   0  0  0  0  0  0  0  0  0  0  0  0
  -20.2947    4.2128   -0.0000 C   0  0  0  0  0  0  0  0  0  0  0  0
  -17.3126   -0.9822   -0.0000 C   0  0  0  0  0  0  0  0  0  0  0  0
  -18.0700   -2.2721   -0.0000 O   0  0  0  0  0  0  0  0  0  0  0  0
  -17.3363   -3.5619   -0.0000 C   0  0  0  0  0  0  0  0  0  0  0  0
  2  3  1  0  0  0  0
  3  4  1  0  0  0  0
  3  5  1  0  0  0  0
  3  6  1  0  0  0  0
  6  7  2  0  0  0  0
  6  8  1  0  0  0  0
  7  9  1  0  0  0  0
  7 10  1  0  0  0  0
  8 11  2  0  0  0  0
  9 12  2  0  0  0  0
  9 13  1  0  0  0  0
 10 14  2  0  0  0  0
 13 15  1  0  0  0  0
 13 16  1  0  0  0  0
 15 17  1  0  0  0  0
 15 18  1  1  0  0  0
 16 19  1  0  0  0  0
 17 20  1  6  0  0  0
 17 21  1  0  0  0  0
 17 22  1  0  0  0  0
 18 23  1  0  0  0  0
 20 24  1  0  0  0  0
 21 25  2  0  0  0  0
 21 26  1  0  0  0  0
 23 27  2  0  0  0  0
 24 28  2  0  0  0  0
 24 29  1  0  0  0  0
 26 30  1  0  0  0  0
 26 31  1  0  0  0  0
 28 32  1  0  0  0  0
 29 33  2  0  0  0  0
 30 34  1  0  0  0  0
 31 35  1  0  0  0  0
 32 36  2  0  0  0  0
 34 37  1  0  0  0  0
 36 38  1  0  0  0  0
 37 39  1  0  0  0  0
 38 40  1  0  0  0  0
 38 41  1  0  0  0  0
 38 42  1  0  0  0  0
 39 43  2  0  0  0  0
 39 44  1  0  0  0  0
 43 45  1  0  0  0  0
 43 46  1  0  0  0  0
 44 47  2  0  0  0  0
 45 48  1  0  0  0  0
 46 49  2  0  0  0  0
 48 50  1  0  0  0  0
 50 51  1  0  0  0  0
 51 52  1  0  0  0  0
 11 14  1  0  0  0  0
 19 22  1  0  0  0  0
 33 36  1  0  0  0  0
 35 37  1  0  0  0  0
 47 49  1  0  0  0  0
M  END
>  <MolRegNo>
1758985

>  <m>
=

>  <Value>
2100

>  <Unit>
nM

>  <Type>
IC50

>  <pValue>
5.68

>  <Ligand Efficiency>
0

>  <Binding Efficiency>
0

>  <Surface Efficiency>
0

>  <Assay Index>
871542

>  <Assay Category>


>  <Assay Organism>
Homo sapiens

>  <Target ID>
17045

>  <Target Name>
Cytochrome P450 3A4

>  <Target Organism>
Homo sapiens

>  <Target Description>
Target is a single protein chain

>  <Sequence Accession>
P08684

>  <Reference>
ACS Med Chem Lett 5 (5), 572-575 (2014)

>  <Pubmed ID>
24900882

>  <DOI>
10.1021/ml500019s

$$$$
1758988
Actelion Java MolfileCreator 1.0

 52 55  0  0  0  0  0  0  0  0999 V2000
    0.0000   -0.0000   -0.0000 Cl  0  0  0  0  0  0  0  0  0  0  0  0
   -4.8307   -1.8944   -0.0000 F   0  0  0  0  0  0  0  0  0  0  0  0
   -6.1450   -1.1366   -0.0000 C   0  0  0  0  0  0  0  0  0  0  0  0
   -6.1568    0.3789   -0.0000 F   0  0  0  0  0  0  0  0  0  0  0  0
   -4.8662   -0.3670   -0.0000 F   0  0  0  0  0  0  0  0  0  0  0  0
   -7.4592   -1.8826   -0.0000 C   0  0  0  0  0  0  0  0  0  0  0  0
   -8.7616   -1.1248   -0.0000 C   0  0  0  0  0  0  0  0  0  0  0  0
   -7.4710   -3.3626   -0.0000 C   0  0  0  0  0  0  0  0  0  0  0  0
   -8.7734    0.3907   -0.0000 C   0  0  0  0  0  0  0  0  0  0  0  0
  -10.0758   -1.8589   -0.0000 C   0  0  0  0  0  0  0  0  0  0  0  0
   -8.7853   -4.1085   -0.0000 C   0  0  0  0  0  0  0  0  0  0  0  0
   -7.4829    1.1485   -0.0000 O   0  0  0  0  0  0  0  0  0  0  0  0
  -10.0877    1.1485   -0.0000 N   0  0  0  0  0  0  0  0  0  0  0  0
  -10.0877   -3.3389   -0.0000 N   0  0  0  0  0  0  0  0  0  0  0  0
  -10.0995    2.6522   -0.0000 C   0  0  0  0  0  0  0  0  0  0  0  0
  -11.3901    0.4144   -0.0000 C   0  0  0  0  0  0  0  0  0  0  0  0
  -11.4019    3.4218   -0.0000 C   0  0  0  0  0  0  0  0  0  0  0  0
   -8.6906    3.1376   -0.0000 C   0  0  0  0  0  0  0  0  0  0  0  0
  -12.6925    1.1722   -0.0000 C   0  0  0  0  0  0  0  0  0  0  0  0
  -10.6678    4.7360   -0.0000 O   0  0  0  0  0  0  0  0  0  0  0  0
  -12.1597    4.7360   -0.0000 C   0  0  0  0  0  0  0  0  0  0  0  0
  -12.7043    2.6758   -0.0000 C   0  0  0  0  0  0  0  0  0  0  0  0
   -7.5894    2.1549   -0.0000 C   0  0  0  0  0  0  0  0  0  0  0  0
   -9.1760    4.7478   -0.0000 C   0  0  0  0  0  0  0  0  0  0  0  0
  -11.4256    6.0502   -0.0000 O   0  0  0  0  0  0  0  0  0  0  0  0
  -13.6752    4.7478   -0.0000 N   0  0  0  0  0  0  0  0  0  0  0  0
   -6.1805    2.6403   -0.0000 O   0  0  0  0  0  0  0  0  0  0  0  0
   -8.4419    3.4573   -0.0000 C   0  0  0  0  0  0  0  0  0  0  0  0
   -8.4419    6.0621   -0.0000 C   0  0  0  0  0  0  0  0  0  0  0  0
  -14.4329    6.0621   -0.0000 C   0  0  0  0  0  0  0  0  0  0  0  0
  -14.4329    3.4691   -0.0000 C   0  0  0  0  0  0  0  0  0  0  0  0
   -6.9619    3.4691   -0.0000 C   0  0  0  0  0  0  0  0  0  0  0  0
   -6.9619    6.0739   -0.0000 C   0  0  0  0  0  0  0  0  0  0  0  0
  -15.9366    6.0739   -0.0000 C   0  0  0  0  0  0  0  0  0  0  0  0
  -15.9485    3.4928   -0.0000 C   0  0  0  0  0  0  0  0  0  0  0  0
   -6.2278    4.7834   -0.0000 C   0  0  0  0  0  0  0  0  0  0  0  0
  -16.7062    4.7952   -0.0000 N   0  0  0  0  0  0  0  0  0  0  0  0
   -4.7360    4.7952   -0.0000 C   0  0  0  0  0  0  0  0  0  0  0  0
  -18.2217    4.8070   -0.0000 C   0  0  0  0  0  0  0  0  0  0  0  0
   -4.0019    3.5046   -0.0000 F   0  0  0  0  0  0  0  0  0  0  0  0
   -4.0019    6.1094   -0.0000 F   0  0  0  0  0  0  0  0  0  0  0  0
   -3.2560    4.8070   -0.0000 F   0  0  0  0  0  0  0  0  0  0  0  0
  -18.9795    3.5283   -0.0000 C   0  0  0  0  0  0  0  0  0  0  0  0
  -18.9795    6.1213   -0.0000 C   0  0  0  0  0  0  0  0  0  0  0  0
  -18.2454    2.2378   -0.0000 O   0  0  0  0  0  0  0  0  0  0  0  0
  -20.4832    3.5402   -0.0000 C   0  0  0  0  0  0  0  0  0  0  0  0
  -20.4832    6.1450   -0.0000 C   0  0  0  0  0  0  0  0  0  0  0  0
  -19.0032    0.9472   -0.0000 C   0  0  0  0  0  0  0  0  0  0  0  0
  -21.2528    4.8544   -0.0000 C   0  0  0  0  0  0  0  0  0  0  0  0
  -18.2691   -0.3434   -0.0000 C   0  0  0  0  0  0  0  0  0  0  0  0
  -19.0269   -1.6339   -0.0000 O   0  0  0  0  0  0  0  0  0  0  0  0
  -18.2928   -2.9245   -0.0000 C   0  0  0  0  0  0  0  0  0  0  0  0
  2  3  1  0  0  0  0
  3  4  1  0  0  0  0
  3  5  1  0  0  0  0
  3  6  1  0  0  0  0
  6  7  2  0  0  0  0
  6  8  1  0  0  0  0
  7  9  1  0  0  0  0
  7 10  1  0  0  0  0
  8 11  2  0  0  0  0
  9 12  2  0  0  0  0
  9 13  1  0  0  0  0
 10 14  2  0  0  0  0
 13 15  1  0  0  0  0
 13 16  1  0  0  0  0
 15 17  1  0  0  0  0
 15 18  1  1  0  0  0
 16 19  1  0  0  0  0
 17 20  1  6  0  0  0
 17 21  1  0  0  0  0
 17 22  1  0  0  0  0
 18 23  1  0  0  0  0
 20 24  1  0  0  0  0
 21 25  2  0  0  0  0
 21 26  1  0  0  0  0
 23 27  1  0  0  0  0
 24 28  2  0  0  0  0
 24 29  1  0  0  0  0
 26 30  1  0  0  0  0
 26 31  1  0  0  0  0
 28 32  1  0  0  0  0
 29 33  2  0  0  0  0
 30 34  1  0  0  0  0
 31 35  1  0  0  0  0
 32 36  2  0  0  0  0
 34 37  1  0  0  0  0
 36 38  1  0  0  0  0
 37 39  1  0  0  0  0
 38 40  1  0  0  0  0
 38 41  1  0  0  0  0
 38 42  1  0  0  0  0
 39 43  2  0  0  0  0
 39 44  1  0  0  0  0
 43 45  1  0  0  0  0
 43 46  1  0  0  0  0
 44 47  2  0  0  0  0
 45 48  1  0  0  0  0
 46 49  2  0  0  0  0
 48 50  1  0  0  0  0
 50 51  1  0  0  0  0
 51 52  1  0  0  0  0
 11 14  1  0  0  0  0
 19 22  1  0  0  0  0
 33 36  1  0  0  0  0
 35 37  1  0  0  0  0
 47 49  1  0  0  0  0
M  END
>  <MolRegNo>
1758988

>  <m>
=

>  <Value>
13300

>  <Unit>
nM

>  <Type>
IC50

>  <pValue>
4.88

>  <Ligand Efficiency>
0

>  <Binding Efficiency>
0

>  <Surface Efficiency>
0

>  <Assay Index>
871542

>  <Assay Category>


>  <Assay Organism>
Homo sapiens

>  <Target ID>
17045

>  <Target Name>
Cytochrome P450 3A4

>  <Target Organism>
Homo sapiens

>  <Target Description>
Target is a single protein chain

>  <Sequence Accession>
P08684

>  <Reference>
ACS Med Chem Lett 5 (5), 572-575 (2014)

>  <Pubmed ID>
24900882

>  <DOI>
10.1021/ml500019s

$$$$
1758987
Actelion Java MolfileCreator 1.0

 54 57  0  0  0  0  0  0  0  0999 V2000
    0.0000   -0.0000   -0.0000 Cl  0  0  0  0  0  0  0  0  0  0  0  0
   -3.5996   -3.0312   -0.0000 F   0  0  0  0  0  0  0  0  0  0  0  0
   -4.9139   -2.2734   -0.0000 C   0  0  0  0  0  0  0  0  0  0  0  0
   -4.9258   -0.7578   -0.0000 F   0  0  0  0  0  0  0  0  0  0  0  0
   -3.6351   -1.5038   -0.0000 F   0  0  0  0  0  0  0  0  0  0  0  0
   -6.2282   -3.0194   -0.0000 C   0  0  0  0  0  0  0  0  0  0  0  0
   -7.5307   -2.2616   -0.0000 C   0  0  0  0  0  0  0  0  0  0  0  0
   -6.2401   -4.4995   -0.0000 C   0  0  0  0  0  0  0  0  0  0  0  0
   -7.5426   -0.7460   -0.0000 C   0  0  0  0  0  0  0  0  0  0  0  0
   -8.8450   -2.9957   -0.0000 C   0  0  0  0  0  0  0  0  0  0  0  0
   -7.5544   -5.2455   -0.0000 C   0  0  0  0  0  0  0  0  0  0  0  0
   -6.2519    0.0118   -0.0000 O   0  0  0  0  0  0  0  0  0  0  0  0
   -8.8569    0.0118   -0.0000 N   0  0  0  0  0  0  0  0  0  0  0  0
   -8.8569   -4.4758   -0.0000 N   0  0  0  0  0  0  0  0  0  0  0  0
   -8.8687    1.5275   -0.0000 C   0  0  0  0  0  0  0  0  0  0  0  0
  -10.1594   -0.7223   -0.0000 C   0  0  0  0  0  0  0  0  0  0  0  0
  -10.1712    2.2971   -0.0000 C   0  0  0  0  0  0  0  0  0  0  0  0
   -7.4597    2.0129   -0.0000 C   0  0  0  0  0  0  0  0  0  0  0  0
  -11.4618    0.0355   -0.0000 C   0  0  0  0  0  0  0  0  0  0  0  0
   -9.4371    3.6114   -0.0000 O   0  0  0  0  0  0  0  0  0  0  0  0
  -10.9290    3.6114   -0.0000 C   0  0  0  0  0  0  0  0  0  0  0  0
  -11.4737    1.5511   -0.0000 C   0  0  0  0  0  0  0  0  0  0  0  0
   -6.3585    1.0301   -0.0000 C   0  0  0  0  0  0  0  0  0  0  0  0
   -7.9451    3.6233   -0.0000 C   0  0  0  0  0  0  0  0  0  0  0  0
  -10.1949    4.9258   -0.0000 O   0  0  0  0  0  0  0  0  0  0  0  0
  -12.4446    3.6233   -0.0000 N   0  0  0  0  0  0  0  0  0  0  0  0
   -5.0797    0.2960   -0.0000 O   0  0  0  0  0  0  0  0  0  0  0  0
   -4.9494    1.5156   -0.0000 C   0  0  0  0  0  0  0  0  0  0  0  0
   -7.2110    2.3326   -0.0000 C   0  0  0  0  0  0  0  0  0  0  0  0
   -7.2110    4.9376   -0.0000 C   0  0  0  0  0  0  0  0  0  0  0  0
  -13.2024    4.9494   -0.0000 C   0  0  0  0  0  0  0  0  0  0  0  0
  -13.2024    2.3445   -0.0000 C   0  0  0  0  0  0  0  0  0  0  0  0
   -3.8482    0.5328   -0.0000 O   0  0  0  0  0  0  0  0  0  0  0  0
   -5.7309    2.3445   -0.0000 C   0  0  0  0  0  0  0  0  0  0  0  0
   -5.7309    4.9494   -0.0000 C   0  0  0  0  0  0  0  0  0  0  0  0
  -14.7062    4.9613   -0.0000 C   0  0  0  0  0  0  0  0  0  0  0  0
  -14.7181    2.3681   -0.0000 C   0  0  0  0  0  0  0  0  0  0  0  0
   -4.9968    3.6588   -0.0000 C   0  0  0  0  0  0  0  0  0  0  0  0
  -15.4759    3.6825   -0.0000 N   0  0  0  0  0  0  0  0  0  0  0  0
   -3.5049    3.6706   -0.0000 C   0  0  0  0  0  0  0  0  0  0  0  0
  -16.9915    3.6943   -0.0000 C   0  0  0  0  0  0  0  0  0  0  0  0
   -2.7707    2.3800   -0.0000 F   0  0  0  0  0  0  0  0  0  0  0  0
   -2.7707    4.9850   -0.0000 F   0  0  0  0  0  0  0  0  0  0  0  0
   -2.0248    3.6825   -0.0000 F   0  0  0  0  0  0  0  0  0  0  0  0
  -17.7493    2.4155   -0.0000 C   0  0  0  0  0  0  0  0  0  0  0  0
  -17.7493    5.0086   -0.0000 C   0  0  0  0  0  0  0  0  0  0  0  0
  -17.0152    1.1249   -0.0000 O   0  0  0  0  0  0  0  0  0  0  0  0
  -19.2531    2.4274   -0.0000 C   0  0  0  0  0  0  0  0  0  0  0  0
  -19.2531    5.0323   -0.0000 C   0  0  0  0  0  0  0  0  0  0  0  0
  -17.7730   -0.1658   -0.0000 C   0  0  0  0  0  0  0  0  0  0  0  0
  -20.0227    3.7417   -0.0000 C   0  0  0  0  0  0  0  0  0  0  0  0
  -17.0388   -1.4564   -0.0000 C   0  0  0  0  0  0  0  0  0  0  0  0
  -17.7966   -2.7471   -0.0000 O   0  0  0  0  0  0  0  0  0  0  0  0
  -17.0625   -4.0377   -0.0000 C   0  0  0  0  0  0  0  0  0  0  0  0
  2  3  1  0  0  0  0
  3  4  1  0  0  0  0
  3  5  1  0  0  0  0
  3  6  1  0  0  0  0
  6  7  2  0  0  0  0
  6  8  1  0  0  0  0
  7  9  1  0  0  0  0
  7 10  1  0  0  0  0
  8 11  2  0  0  0  0
  9 12  2  0  0  0  0
  9 13  1  0  0  0  0
 10 14  2  0  0  0  0
 13 15  1  0  0  0  0
 13 16  1  0  0  0  0
 15 17  1  0  0  0  0
 15 18  1  1  0  0  0
 16 19  1  0  0  0  0
 17 20  1  6  0  0  0
 17 21  1  0  0  0  0
 17 22  1  0  0  0  0
 18 23  1  0  0  0  0
 20 24  1  0  0  0  0
 21 25  2  0  0  0  0
 21 26  1  0  0  0  0
 23 27  1  0  0  0  0
 23 28  1  0  0  0  0
 24 29  2  0  0  0  0
 24 30  1  0  0  0  0
 26 31  1  0  0  0  0
 26 32  1  0  0  0  0
 28 33  1  0  0  0  0
 29 34  1  0  0  0  0
 30 35  2  0  0  0  0
 31 36  1  0  0  0  0
 32 37  1  0  0  0  0
 34 38  2  0  0  0  0
 36 39  1  0  0  0  0
 38 40  1  0  0  0  0
 39 41  1  0  0  0  0
 40 42  1  0  0  0  0
 40 43  1  0  0  0  0
 40 44  1  0  0  0  0
 41 45  2  0  0  0  0
 41 46  1  0  0  0  0
 45 47  1  0  0  0  0
 45 48  1  0  0  0  0
 46 49  2  0  0  0  0
 47 50  1  0  0  0  0
 48 51  2  0  0  0  0
 50 52  1  0  0  0  0
 52 53  1  0  0  0  0
 53 54  1  0  0  0  0
 11 14  1  0  0  0  0
 19 22  1  0  0  0  0
 35 38  1  0  0  0  0
 37 39  1  0  0  0  0
 49 51  1  0  0  0  0
M  END
>  <MolRegNo>
1758987

>  <m>
=

>  <Value>
7500

>  <Unit>
nM

>  <Type>
IC50

>  <pValue>
5.12

>  <Ligand Efficiency>
0

>  <Binding Efficiency>
0

>  <Surface Efficiency>
0

>  <Assay Index>
871545

>  <Assay Category>


>  <Assay Organism>
Homo sapiens

>  <Target ID>
17045

>  <Target Name>
Cytochrome P450 3A4

>  <Target Organism>
Homo sapiens

>  <Target Description>
Target is a single protein chain

>  <Sequence Accession>
P08684

>  <Reference>
ACS Med Chem Lett 5 (5), 572-575 (2014)

>  <Pubmed ID>
24900882

>  <DOI>
10.1021/ml500019s

$$$$
1763176
Actelion Java MolfileCreator 1.0

 35 39  0  0  0  0  0  0  0  0999 V2000
    0.0000   -0.0000   -0.0000 Cl  0  0  0  0  0  0  0  0  0  0  0  0
    1.2894    0.7641   -0.0000 C   0  0  0  0  0  0  0  0  0  0  0  0
    2.5789    0.0239   -0.0000 C   0  0  0  0  0  0  0  0  0  0  0  0
    1.2775    2.2804   -0.0000 C   0  0  0  0  0  0  0  0  0  0  0  0
    3.8683    0.7880   -0.0000 C   0  0  0  0  0  0  0  0  0  0  0  0
    2.5669    3.0445   -0.0000 C   0  0  0  0  0  0  0  0  0  0  0  0
    5.3010    0.3343   -0.0000 N   0  0  0  0  0  0  0  0  0  0  0  0
    3.8564    2.3162   -0.0000 N   0  0  0  0  0  0  0  0  0  0  0  0
    6.1845    1.5760   -0.0000 C   0  0  0  0  0  0  0  0  0  0  0  0
    5.2891    2.7938   -0.0000 C   0  0  0  0  0  0  0  0  0  0  0  0
    7.6769    1.5879   -0.0000 C   0  0  0  0  0  0  0  0  0  0  0  0
    5.7427    4.2384   -0.0000 C   0  0  0  0  0  0  0  0  0  0  0  0
    8.4171    0.2985   -0.0000 C   0  0  0  0  0  0  0  0  0  0  0  0
    4.7279    5.3726   -0.0000 O   0  0  0  0  0  0  0  0  0  0  0  0
    7.1993    4.5608   -0.0000 N   0  0  0  0  0  0  0  0  0  0  0  0
    7.6530    6.0054   -0.0000 C   0  0  0  0  0  0  0  0  0  0  0  0
    9.1096    6.3278   -0.0000 C   0  0  0  0  0  0  0  0  0  0  0  0
   10.1006    5.2055   -0.0000 C   0  0  0  0  0  0  0  0  0  0  0  0
    9.5513    7.7605   -0.0000 C   0  0  0  0  0  0  0  0  0  0  0  0
   11.5571    5.5278   -0.0000 C   0  0  0  0  0  0  0  0  0  0  0  0
   11.0079    8.0948   -0.0000 C   0  0  0  0  0  0  0  0  0  0  0  0
   12.0108    6.9725   -0.0000 C   0  0  0  0  0  0  0  0  0  0  0  0
   13.4674    7.2948   -0.0000 N   0  0  0  0  0  0  0  0  0  0  0  0
   14.4464    6.1845   -0.0000 C   0  0  0  0  0  0  0  0  0  0  0  0
   13.9092    8.7275   -0.0000 C   0  0  0  0  0  0  0  0  0  0  0  0
   15.9030    6.5069   -0.0000 C   0  0  0  0  0  0  0  0  0  0  0  0
   15.3777    9.0499   -0.0000 C   0  0  0  0  0  0  0  0  0  0  0  0
   16.3686    7.9515   -0.0000 C   0  0  0  0  0  0  0  0  0  0  0  0
   17.8252    8.2739   -0.0000 C   0  0  0  0  0  0  0  0  0  0  0  0
   18.8162    7.1635   -0.0000 C   0  0  0  0  0  0  0  0  0  0  0  0
   18.2789    9.7066   -0.0000 C   0  0  0  0  0  0  0  0  0  0  0  0
   20.2727    7.4859   -0.0000 C   0  0  0  0  0  0  0  0  0  0  0  0
   19.7355   10.0289   -0.0000 C   0  0  0  0  0  0  0  0  0  0  0  0
   20.7384    8.9305   -0.0000 C   0  0  0  0  0  0  0  0  0  0  0  0
   22.1949    9.2529   -0.0000 F   0  0  0  0  0  0  0  0  0  0  0  0
  1  2  1  0  0  0  0
  2  3  2  0  0  0  0
  2  4  1  0  0  0  0
  3  5  1  0  0  0  0
  4  6  2  0  0  0  0
  5  7  2  0  0  0  0
  5  8  1  0  0  0  0
  7  9  1  0  0  0  0
  8 10  1  0  0  0  0
  9 11  1  0  0  0  0
 10 12  1  0  0  0  0
 11 13  1  0  0  0  0
 12 14  2  0  0  0  0
 12 15  1  0  0  0  0
 15 16  1  0  0  0  0
 16 17  1  0  0  0  0
 17 18  2  0  0  0  0
 17 19  1  0  0  0  0
 18 20  1  0  0  0  0
 19 21  2  0  0  0  0
 20 22  2  0  0  0  0
 22 23  1  0  0  0  0
 23 24  1  0  0  0  0
 23 25  1  0  0  0  0
 24 26  1  0  0  0  0
 25 27  1  0  0  0  0
 26 28  1  0  0  0  0
 28 29  1  0  0  0  0
 29 30  2  0  0  0  0
 29 31  1  0  0  0  0
 30 32  1  0  0  0  0
 31 33  2  0  0  0  0
 32 34  2  0  0  0  0
 34 35  1  0  0  0  0
  6  8  1  0  0  0  0
  9 10  2  0  0  0  0
 21 22  1  0  0  0  0
 27 28  1  0  0  0  0
 33 34  1  0  0  0  0
M  END
>  <MolRegNo>
1763176

>  <m>
=

>  <Value>
2070

>  <Unit>
nM

>  <Type>
IC50

>  <pValue>
5.68

>  <Ligand Efficiency>
0

>  <Binding Efficiency>
0

>  <Surface Efficiency>
0

>  <Assay Index>
874571

>  <Assay Category>


>  <Assay Organism>
Homo sapiens

>  <Target ID>
17045

>  <Target Name>
Cytochrome P450 3A4

>  <Target Organism>
Homo sapiens

>  <Target Description>
Target is a single protein chain

>  <Sequence Accession>
P08684

>  <Reference>
J Med Chem 57 (12), 5293-5305 (2014)

>  <Pubmed ID>
24870926

>  <DOI>
10.1021/jm5003606

$$$$
1763177
Actelion Java MolfileCreator 1.0

 35 39  0  0  0  0  0  0  0  0999 V2000
    0.0000   -0.0000   -0.0000 Cl  0  0  0  0  0  0  0  0  0  0  0  0
    1.2912   -0.7412   -0.0000 C   0  0  0  0  0  0  0  0  0  0  0  0
    2.5824    0.0239   -0.0000 C   0  0  0  0  0  0  0  0  0  0  0  0
    1.2792   -2.2357   -0.0000 C   0  0  0  0  0  0  0  0  0  0  0  0
    3.8735   -0.7173   -0.0000 N   0  0  0  0  0  0  0  0  0  0  0  0
    2.5704   -2.9769   -0.0000 C   0  0  0  0  0  0  0  0  0  0  0  0
    5.3082   -0.2391   -0.0000 C   0  0  0  0  0  0  0  0  0  0  0  0
    3.8616   -2.2237   -0.0000 C   0  0  0  0  0  0  0  0  0  0  0  0
    6.1929   -1.4586   -0.0000 C   0  0  0  0  0  0  0  0  0  0  0  0
    5.7625    1.2075   -0.0000 C   0  0  0  0  0  0  0  0  0  0  0  0
    5.2962   -2.6780   -0.0000 N   0  0  0  0  0  0  0  0  0  0  0  0
    7.6873   -1.4466   -0.0000 C   0  0  0  0  0  0  0  0  0  0  0  0
    4.7463    2.3433   -0.0000 O   0  0  0  0  0  0  0  0  0  0  0  0
    7.2211    1.5303   -0.0000 N   0  0  0  0  0  0  0  0  0  0  0  0
    8.4286   -2.7378   -0.0000 C   0  0  0  0  0  0  0  0  0  0  0  0
    7.6754    2.9769   -0.0000 C   0  0  0  0  0  0  0  0  0  0  0  0
    9.1339    3.2997   -0.0000 C   0  0  0  0  0  0  0  0  0  0  0  0
   10.1262    2.1759   -0.0000 C   0  0  0  0  0  0  0  0  0  0  0  0
    9.5763    4.7343   -0.0000 C   0  0  0  0  0  0  0  0  0  0  0  0
   11.5848    2.4987   -0.0000 C   0  0  0  0  0  0  0  0  0  0  0  0
   11.0348    5.0691   -0.0000 C   0  0  0  0  0  0  0  0  0  0  0  0
   12.0391    3.9453   -0.0000 C   0  0  0  0  0  0  0  0  0  0  0  0
   13.4976    4.2681   -0.0000 N   0  0  0  0  0  0  0  0  0  0  0  0
   14.4780    3.1562   -0.0000 C   0  0  0  0  0  0  0  0  0  0  0  0
   13.9400    5.7027   -0.0000 C   0  0  0  0  0  0  0  0  0  0  0  0
   15.9365    3.4790   -0.0000 C   0  0  0  0  0  0  0  0  0  0  0  0
   15.4105    6.0255   -0.0000 C   0  0  0  0  0  0  0  0  0  0  0  0
   16.4028    4.9256   -0.0000 N   0  0  0  0  0  0  0  0  0  0  0  0
   17.8614    5.2484   -0.0000 C   0  0  0  0  0  0  0  0  0  0  0  0
   18.8537    4.1366   -0.0000 C   0  0  0  0  0  0  0  0  0  0  0  0
   18.3157    6.6831   -0.0000 C   0  0  0  0  0  0  0  0  0  0  0  0
   20.3122    4.4594   -0.0000 C   0  0  0  0  0  0  0  0  0  0  0  0
   19.7742    7.0059   -0.0000 C   0  0  0  0  0  0  0  0  0  0  0  0
   20.7785    5.9060   -0.0000 C   0  0  0  0  0  0  0  0  0  0  0  0
   22.2370    6.2288   -0.0000 F   0  0  0  0  0  0  0  0  0  0  0  0
  1  2  1  0  0  0  0
  2  3  2  0  0  0  0
  2  4  1  0  0  0  0
  3  5  1  0  0  0  0
  4  6  2  0  0  0  0
  5  7  1  0  0  0  0
  5  8  1  0  0  0  0
  7  9  2  0  0  0  0
  7 10  1  0  0  0  0
  8 11  2  0  0  0  0
  9 12  1  0  0  0  0
 10 13  2  0  0  0  0
 10 14  1  0  0  0  0
 12 15  1  0  0  0  0
 14 16  1  0  0  0  0
 16 17  1  0  0  0  0
 17 18  2  0  0  0  0
 17 19  1  0  0  0  0
 18 20  1  0  0  0  0
 19 21  2  0  0  0  0
 20 22  2  0  0  0  0
 22 23  1  0  0  0  0
 23 24  1  0  0  0  0
 23 25  1  0  0  0  0
 24 26  1  0  0  0  0
 25 27  1  0  0  0  0
 26 28  1  0  0  0  0
 28 29  1  0  0  0  0
 29 30  2  0  0  0  0
 29 31  1  0  0  0  0
 30 32  1  0  0  0  0
 31 33  2  0  0  0  0
 32 34  2  0  0  0  0
 34 35  1  0  0  0  0
  6  8  1  0  0  0  0
  9 11  1  0  0  0  0
 21 22  1  0  0  0  0
 27 28  1  0  0  0  0
 33 34  1  0  0  0  0
M  END
>  <MolRegNo>
1763177

>  <m>
=

>  <Value>
490

>  <Unit>
nM

>  <Type>
IC50

>  <pValue>
6.31

>  <Ligand Efficiency>
0

>  <Binding Efficiency>
0

>  <Surface Efficiency>
0

>  <Assay Index>
874571

>  <Assay Category>


>  <Assay Organism>
Homo sapiens

>  <Target ID>
17045

>  <Target Name>
Cytochrome P450 3A4

>  <Target Organism>
Homo sapiens

>  <Target Description>
Target is a single protein chain

>  <Sequence Accession>
P08684

>  <Reference>
J Med Chem 57 (12), 5293-5305 (2014)

>  <Pubmed ID>
24870926

>  <DOI>
10.1021/jm5003606

$$$$
1763247
Actelion Java MolfileCreator 1.0

 39 43  0  0  0  0  0  0  0  0999 V2000
    0.0000   -0.0000   -0.0000 Cl  0  0  0  0  0  0  0  0  0  0  0  0
    1.2919   -0.7417   -0.0000 C   0  0  0  0  0  0  0  0  0  0  0  0
    2.5838    0.0239   -0.0000 C   0  0  0  0  0  0  0  0  0  0  0  0
    1.2800   -2.2369   -0.0000 C   0  0  0  0  0  0  0  0  0  0  0  0
    3.8757   -0.7177   -0.0000 N   0  0  0  0  0  0  0  0  0  0  0  0
    2.5719   -2.9786   -0.0000 C   0  0  0  0  0  0  0  0  0  0  0  0
    5.3112   -0.2392   -0.0000 C   0  0  0  0  0  0  0  0  0  0  0  0
    3.8638   -2.2250   -0.0000 C   0  0  0  0  0  0  0  0  0  0  0  0
    6.1964   -1.4594   -0.0000 C   0  0  0  0  0  0  0  0  0  0  0  0
    5.7658    1.2082   -0.0000 C   0  0  0  0  0  0  0  0  0  0  0  0
    5.2992   -2.6795   -0.0000 N   0  0  0  0  0  0  0  0  0  0  0  0
    7.6917   -1.4474   -0.0000 C   0  0  0  0  0  0  0  0  0  0  0  0
    4.7490    2.3446   -0.0000 O   0  0  0  0  0  0  0  0  0  0  0  0
    7.2252    1.5312   -0.0000 N   0  0  0  0  0  0  0  0  0  0  0  0
    8.4333   -2.7393   -0.0000 C   0  0  0  0  0  0  0  0  0  0  0  0
    7.6797    2.9786   -0.0000 C   0  0  0  0  0  0  0  0  0  0  0  0
    9.1391    3.3016   -0.0000 C   0  0  0  0  0  0  0  0  0  0  0  0
   10.1320    2.1771   -0.0000 C   0  0  0  0  0  0  0  0  0  0  0  0
    9.5817    4.7370   -0.0000 C   0  0  0  0  0  0  0  0  0  0  0  0
   11.5913    2.5001   -0.0000 C   0  0  0  0  0  0  0  0  0  0  0  0
   11.0411    5.0720   -0.0000 C   0  0  0  0  0  0  0  0  0  0  0  0
   12.0459    3.9475   -0.0000 C   0  0  0  0  0  0  0  0  0  0  0  0
   13.5053    4.2705   -0.0000 N   0  0  0  0  0  0  0  0  0  0  0  0
   14.4862    3.1580   -0.0000 C   0  0  0  0  0  0  0  0  0  0  0  0
   13.9479    5.7060   -0.0000 C   0  0  0  0  0  0  0  0  0  0  0  0
   15.9456    3.4810   -0.0000 C   0  0  0  0  0  0  0  0  0  0  0  0
   15.4192    6.0289   -0.0000 C   0  0  0  0  0  0  0  0  0  0  0  0
   16.4121    4.9284   -0.0000 N   0  0  0  0  0  0  0  0  0  0  0  0
   17.8715    5.2514   -0.0000 C   0  0  0  0  0  0  0  0  0  0  0  0
   18.8643    4.1389   -0.0000 C   0  0  0  0  0  0  0  0  0  0  0  0
   18.3260    6.6869   -0.0000 C   0  0  0  0  0  0  0  0  0  0  0  0
   20.3237    4.4619   -0.0000 C   0  0  0  0  0  0  0  0  0  0  0  0
   19.7854    7.0098   -0.0000 C   0  0  0  0  0  0  0  0  0  0  0  0
   20.7902    5.9093   -0.0000 C   0  0  0  0  0  0  0  0  0  0  0  0
   22.2496    6.2323   -0.0000 O   0  0  0  0  0  0  0  0  0  0  0  0
   23.2425    5.1198   -0.0000 C   0  0  0  0  0  0  0  0  0  0  0  0
   24.7019    5.4428   -0.0000 F   0  0  0  0  0  0  0  0  0  0  0  0
   22.7640    3.6963   -0.0000 F   0  0  0  0  0  0  0  0  0  0  0  0
   24.5224    4.3782   -0.0000 F   0  0  0  0  0  0  0  0  0  0  0  0
  1  2  1  0  0  0  0
  2  3  2  0  0  0  0
  2  4  1  0  0  0  0
  3  5  1  0  0  0  0
  4  6  2  0  0  0  0
  5  7  1  0  0  0  0
  5  8  1  0  0  0  0
  7  9  2  0  0  0  0
  7 10  1  0  0  0  0
  8 11  2  0  0  0  0
  9 12  1  0  0  0  0
 10 13  2  0  0  0  0
 10 14  1  0  0  0  0
 12 15  1  0  0  0  0
 14 16  1  0  0  0  0
 16 17  1  0  0  0  0
 17 18  2  0  0  0  0
 17 19  1  0  0  0  0
 18 20  1  0  0  0  0
 19 21  2  0  0  0  0
 20 22  2  0  0  0  0
 22 23  1  0  0  0  0
 23 24  1  0  0  0  0
 23 25  1  0  0  0  0
 24 26  1  0  0  0  0
 25 27  1  0  0  0  0
 26 28  1  0  0  0  0
 28 29  1  0  0  0  0
 29 30  2  0  0  0  0
 29 31  1  0  0  0  0
 30 32  1  0  0  0  0
 31 33  2  0  0  0  0
 32 34  2  0  0  0  0
 34 35  1  0  0  0  0
 35 36  1  0  0  0  0
 36 37  1  0  0  0  0
 36 38  1  0  0  0  0
 36 39  1  0  0  0  0
  6  8  1  0  0  0  0
  9 11  1  0  0  0  0
 21 22  1  0  0  0  0
 27 28  1  0  0  0  0
 33 34  1  0  0  0  0
M  END
>  <MolRegNo>
1763247

>  <m>
=

>  <Value>
11540

>  <Unit>
nM

>  <Type>
IC50

>  <pValue>
4.94

>  <Ligand Efficiency>
0

>  <Binding Efficiency>
0

>  <Surface Efficiency>
0

>  <Assay Index>
874571

>  <Assay Category>


>  <Assay Organism>
Homo sapiens

>  <Target ID>
17045

>  <Target Name>
Cytochrome P450 3A4

>  <Target Organism>
Homo sapiens

>  <Target Description>
Target is a single protein chain

>  <Sequence Accession>
P08684

>  <Reference>
J Med Chem 57 (12), 5293-5305 (2014)

>  <Pubmed ID>
24870926

>  <DOI>
10.1021/jm5003606

$$$$
1762658
Actelion Java MolfileCreator 1.0

 22 24  0  0  0  0  0  0  0  0999 V2000
    0.0000   -0.0000   -0.0000 F   0  0  0  0  0  0  0  0  0  0  0  0
    1.2932    0.7593   -0.0000 C   0  0  0  0  0  0  0  0  0  0  0  0
    1.2814    2.2780   -0.0000 C   0  0  0  0  0  0  0  0  0  0  0  0
    2.5865    0.0237   -0.0000 C   0  0  0  0  0  0  0  0  0  0  0  0
    2.5746    3.0373   -0.0000 C   0  0  0  0  0  0  0  0  0  0  0  0
    3.8679    0.7949   -0.0000 C   0  0  0  0  0  0  0  0  0  0  0  0
    3.8560    2.2899   -0.0000 C   0  0  0  0  0  0  0  0  0  0  0  0
    5.1492    3.0492   -0.0000 O   0  0  0  0  0  0  0  0  0  0  0  0
    5.1374    4.5679   -0.0000 C   0  0  0  0  0  0  0  0  0  0  0  0
    3.8204    5.3272   -0.0000 N   0  0  0  0  0  0  0  0  0  0  0  0
    6.4306    5.3272   -0.0000 C   0  0  0  0  0  0  0  0  0  0  0  0
    3.8085    6.8459   -0.0000 C   0  0  0  0  0  0  0  0  0  0  0  0
    6.4069    6.8459   -0.0000 C   0  0  0  0  0  0  0  0  0  0  0  0
    7.7239    4.6035   -0.0000 C   0  0  0  0  0  0  0  0  0  0  0  0
    5.0899    7.6052   -0.0000 C   0  0  0  0  0  0  0  0  0  0  0  0
    7.6883    7.6171   -0.0000 C   0  0  0  0  0  0  0  0  0  0  0  0
    9.0052    5.3747   -0.0000 C   0  0  0  0  0  0  0  0  0  0  0  0
    8.9815    6.8933   -0.0000 C   0  0  0  0  0  0  0  0  0  0  0  0
   10.2985    4.6509   -0.0000 O   0  0  0  0  0  0  0  0  0  0  0  0
   10.2629    7.6764   -0.0000 O   0  0  0  0  0  0  0  0  0  0  0  0
   10.2985    3.1560   -0.0000 C   0  0  0  0  0  0  0  0  0  0  0  0
   11.5561    6.9527   -0.0000 C   0  0  0  0  0  0  0  0  0  0  0  0
  1  2  1  0  0  0  0
  2  3  2  0  0  0  0
  2  4  1  0  0  0  0
  3  5  1  0  0  0  0
  4  6  2  0  0  0  0
  5  7  2  0  0  0  0
  7  8  1  0  0  0  0
  8  9  1  0  0  0  0
  9 10  2  0  0  0  0
  9 11  1  0  0  0  0
 10 12  1  0  0  0  0
 11 13  1  0  0  0  0
 11 14  2  0  0  0  0
 12 15  2  0  0  0  0
 13 16  2  0  0  0  0
 14 17  1  0  0  0  0
 16 18  1  0  0  0  0
 17 19  1  0  0  0  0
 18 20  1  0  0  0  0
 19 21  1  0  0  0  0
 20 22  1  0  0  0  0
  6  7  1  0  0  0  0
 13 15  1  0  0  0  0
 17 18  2  0  0  0  0
M  END
>  <MolRegNo>
1762658

>  <m>
=

>  <Value>
1900

>  <Unit>
nM

>  <Type>
IC50

>  <pValue>
5.72

>  <Ligand Efficiency>
0

>  <Binding Efficiency>
0

>  <Surface Efficiency>
0

>  <Assay Index>
875624

>  <Assay Category>


>  <Assay Organism>
Homo sapiens

>  <Target ID>
17045

>  <Target Name>
Cytochrome P450 3A4

>  <Target Organism>
Homo sapiens

>  <Target Description>
Target is a single protein chain

>  <Sequence Accession>
P08684

>  <Reference>
Bioorg Med Chem Lett 24 (14), 3199-3203 (2014)

>  <Pubmed ID>
24835202

>  <DOI>
10.1016/j.bmcl.2014.04.045

$$$$
1818430
Actelion Java MolfileCreator 1.0

 28 31  0  0  0  0  0  0  0  0999 V2000
    0.0000   -0.0000   -0.0000 Cl  0  0  0  0  0  0  0  0  0  0  0  0
   -1.3162    0.7589   -0.0000 C   0  0  0  0  0  0  0  0  0  0  0  0
   -1.3399    2.2648   -0.0000 C   0  0  0  0  0  0  0  0  0  0  0  0
   -2.6324    0.0119   -0.0000 C   0  0  0  0  0  0  0  0  0  0  0  0
   -2.6442    3.0118   -0.0000 C   0  0  0  0  0  0  0  0  0  0  0  0
   -3.9486    0.7707   -0.0000 C   0  0  0  0  0  0  0  0  0  0  0  0
   -2.6680    4.5296   -0.0000 S   0  0  0  0  0  0  0  0  0  0  0  0
   -3.9486    2.2767   -0.0000 C   0  0  0  0  0  0  0  0  0  0  0  0
   -1.5771    5.5612   -0.0000 O   0  0  0  0  0  0  0  0  0  0  0  0
   -1.2450    4.1027   -0.0000 O   0  0  0  0  0  0  0  0  0  0  0  0
   -3.9723    5.2766   -0.0000 C   0  0  0  0  0  0  0  0  0  0  0  0
   -5.3478    4.6838   -0.0000 C   0  0  0  0  0  0  0  0  0  0  0  0
   -5.3596    3.1897   -0.0000 N   0  0  0  0  0  0  0  0  0  0  0  0
   -6.6521    5.4545   -0.0000 N   0  0  0  0  0  0  0  0  0  0  0  0
   -6.6640    2.4545   -0.0000 C   0  0  0  0  0  0  0  0  0  0  0  0
   -7.9565    4.7075   -0.0000 C   0  0  0  0  0  0  0  0  0  0  0  0
   -6.6758    0.9723   -0.0000 C   0  0  0  0  0  0  0  0  0  0  0  0
   -7.9683    3.2134   -0.0000 C   0  0  0  0  0  0  0  0  0  0  0  0
   -9.3912    5.1818   -0.0000 C   0  0  0  0  0  0  0  0  0  0  0  0
   -5.3952    0.2372   -0.0000 C   0  0  0  0  0  0  0  0  0  0  0  0
   -7.9920    0.2372   -0.0000 C   0  0  0  0  0  0  0  0  0  0  0  0
   -9.4031    2.7628   -0.0000 S   0  0  0  0  0  0  0  0  0  0  0  0
  -10.2805    3.9842   -0.0000 C   0  0  0  0  0  0  0  0  0  0  0  0
   -5.4071   -1.2450   -0.0000 N   0  0  0  0  0  0  0  0  0  0  0  0
   -8.0039   -1.2450   -0.0000 C   0  0  0  0  0  0  0  0  0  0  0  0
   -6.7233   -1.9921   -0.0000 C   0  0  0  0  0  0  0  0  0  0  0  0
   -6.7351   -3.4743   -0.0000 O   0  0  0  0  0  0  0  0  0  0  0  0
   -8.0395   -4.2095   -0.0000 C   0  0  0  0  0  0  0  0  0  0  0  0
  1  2  1  0  0  0  0
  2  3  2  0  0  0  0
  2  4  1  0  0  0  0
  3  5  1  0  0  0  0
  4  6  2  0  0  0  0
  5  7  1  0  0  0  0
  5  8  2  0  0  0  0
  7  9  2  0  0  0  0
  7 10  2  0  0  0  0
  7 11  1  0  0  0  0
 11 12  1  0  0  0  0
 12 13  2  0  0  0  0
 12 14  1  0  0  0  0
 13 15  1  0  0  0  0
 14 16  2  0  0  0  0
 15 17  1  0  0  0  0
 15 18  2  0  0  0  0
 16 19  1  0  0  0  0
 17 20  2  0  0  0  0
 17 21  1  0  0  0  0
 18 22  1  0  0  0  0
 19 23  2  0  0  0  0
 20 24  1  0  0  0  0
 21 25  2  0  0  0  0
 24 26  2  0  0  0  0
 26 27  1  0  0  0  0
 27 28  1  0  0  0  0
  6  8  1  0  0  0  0
 16 18  1  0  0  0  0
 22 23  1  0  0  0  0
 25 26  1  0  0  0  0
M  END
>  <MolRegNo>
1818430

>  <m>
=

>  <Value>
6710

>  <Unit>
nM

>  <Type>
IC50

>  <pValue>
5.17

>  <Ligand Efficiency>
0

>  <Binding Efficiency>
0

>  <Surface Efficiency>
0

>  <Assay Index>
879247

>  <Assay Category>


>  <Assay Organism>
Homo sapiens

>  <Target ID>
17045

>  <Target Name>
Cytochrome P450 3A4

>  <Target Organism>
Homo sapiens

>  <Target Description>
Target is a single protein chain

>  <Sequence Accession>
P08684

>  <Reference>
Bioorg Med Chem Lett 24 (23), 5473-5477 (2014)

>  <Pubmed ID>
25455487

>  <DOI>
10.1016/j.bmcl.2014.10.007

$$$$
1606838
Actelion Java MolfileCreator 1.0

 29 32  0  0  0  0  0  0  0  0999 V2000
    0.0000   -0.0000   -0.0000 Cl  0  0  0  0  0  0  0  0  0  0  0  0
    1.0552    0.6185   -0.0000 C   0  0  0  0  0  0  0  0  0  0  0  0
    1.0430    2.1710   -0.0000 C   0  0  0  0  0  0  0  0  0  0  0  0
    2.3771   -0.1455   -0.0000 C   0  0  0  0  0  0  0  0  0  0  0  0
   -0.3032    2.9593   -0.0000 S   0  0  0  0  0  0  0  0  0  0  0  0
    2.3650    2.9472   -0.0000 C   0  0  0  0  0  0  0  0  0  0  0  0
    3.6991    0.6307   -0.0000 C   0  0  0  0  0  0  0  0  0  0  0  0
   -1.3826    2.3650   -0.0000 O   0  0  0  0  0  0  0  0  0  0  0  0
   -1.3826    3.5900   -0.0000 O   0  0  0  0  0  0  0  0  0  0  0  0
   -0.3153    4.5117   -0.0000 N   0  0  0  0  0  0  0  0  0  0  0  0
    3.6870    2.1831   -0.0000 C   0  0  0  0  0  0  0  0  0  0  0  0
   -1.6616    5.3000   -0.0000 C   0  0  0  0  0  0  0  0  0  0  0  0
    5.0090    2.9593   -0.0000 O   0  0  0  0  0  0  0  0  0  0  0  0
   -1.6737    6.8525   -0.0000 C   0  0  0  0  0  0  0  0  0  0  0  0
   -3.0078    4.5481   -0.0000 C   0  0  0  0  0  0  0  0  0  0  0  0
    4.9968    4.2085   -0.0000 C   0  0  0  0  0  0  0  0  0  0  0  0
   -3.0199    7.6408   -0.0000 C   0  0  0  0  0  0  0  0  0  0  0  0
   -4.3540    5.3364   -0.0000 C   0  0  0  0  0  0  0  0  0  0  0  0
   -4.3662    6.8888   -0.0000 C   0  0  0  0  0  0  0  0  0  0  0  0
   -5.7124    7.6650   -0.0000 C   0  0  0  0  0  0  0  0  0  0  0  0
   -7.0586    6.9131   -0.0000 N   0  0  0  0  0  0  0  0  0  0  0  0
   -5.7245    9.2175   -0.0000 C   0  0  0  0  0  0  0  0  0  0  0  0
   -8.4049    7.6893   -0.0000 C   0  0  0  0  0  0  0  0  0  0  0  0
   -7.0708    9.9937   -0.0000 N   0  0  0  0  0  0  0  0  0  0  0  0
   -9.8845    7.2284   -0.0000 N   0  0  0  0  0  0  0  0  0  0  0  0
   -8.4170    9.2417   -0.0000 C   0  0  0  0  0  0  0  0  0  0  0  0
  -10.8063    8.4898   -0.0000 N   0  0  0  0  0  0  0  0  0  0  0  0
   -9.8966    9.7269   -0.0000 C   0  0  0  0  0  0  0  0  0  0  0  0
  -10.2847   10.9154   -0.0000 C   0  0  0  0  0  0  0  0  0  0  0  0
  1  2  1  0  0  0  0
  2  3  2  0  0  0  0
  2  4  1  0  0  0  0
  3  5  1  0  0  0  0
  3  6  1  0  0  0  0
  4  7  2  0  0  0  0
  5  8  2  0  0  0  0
  5  9  2  0  0  0  0
  5 10  1  0  0  0  0
  6 11  2  0  0  0  0
 10 12  1  0  0  0  0
 11 13  1  0  0  0  0
 12 14  2  0  0  0  0
 12 15  1  0  0  0  0
 13 16  1  0  0  0  0
 14 17  1  0  0  0  0
 15 18  2  0  0  0  0
 17 19  2  0  0  0  0
 19 20  1  0  0  0  0
 20 21  2  0  0  0  0
 20 22  1  0  0  0  0
 21 23  1  0  0  0  0
 22 24  2  0  0  0  0
 23 25  1  0  0  0  0
 23 26  2  0  0  0  0
 25 27  1  0  0  0  0
 26 28  1  0  0  0  0
 28 29  1  0  0  0  0
  7 11  1  0  0  0  0
 18 19  1  0  0  0  0
 24 26  1  0  0  0  0
 27 28  2  0  0  0  0
M  END
>  <MolRegNo>
1606838

>  <m>
=

>  <Value>
26800

>  <Unit>
nM

>  <Type>
IC50

>  <pValue>
4.57

>  <Ligand Efficiency>
0

>  <Binding Efficiency>
0

>  <Surface Efficiency>
0

>  <Assay Index>
890696

>  <Assay Category>


>  <Assay Organism>
Homo sapiens

>  <Target ID>
17045

>  <Target Name>
Cytochrome P450 3A4

>  <Target Organism>
Homo sapiens

>  <Target Description>
Target is a single protein chain

>  <Sequence Accession>
P08684

>  <Reference>
ACS Med Chem Lett 6 (1), 73-78 (2015)

>  <Pubmed ID>
25589934

>  <DOI>
10.1021/ml5003376

$$$$
1606831
Actelion Java MolfileCreator 1.0

 28 31  0  0  0  0  0  0  0  0999 V2000
    0.0000   -0.0000   -0.0000 Cl  0  0  0  0  0  0  0  0  0  0  0  0
   -1.0895    0.6243   -0.0000 C   0  0  0  0  0  0  0  0  0  0  0  0
   -1.1017    2.1912   -0.0000 C   0  0  0  0  0  0  0  0  0  0  0  0
   -2.4483   -0.1469   -0.0000 C   0  0  0  0  0  0  0  0  0  0  0  0
   -0.0367    2.8278   -0.0000 Cl  0  0  0  0  0  0  0  0  0  0  0  0
   -2.4606    2.9747   -0.0000 C   0  0  0  0  0  0  0  0  0  0  0  0
   -2.4606   -1.6893   -0.0000 S   0  0  0  0  0  0  0  0  0  0  0  0
   -3.8071    0.6366   -0.0000 C   0  0  0  0  0  0  0  0  0  0  0  0
   -3.8194    2.2035   -0.0000 C   0  0  0  0  0  0  0  0  0  0  0  0
   -3.5501   -2.3014   -0.0000 O   0  0  0  0  0  0  0  0  0  0  0  0
   -2.4728   -2.9257   -0.0000 O   0  0  0  0  0  0  0  0  0  0  0  0
   -1.1262   -2.4483   -0.0000 N   0  0  0  0  0  0  0  0  0  0  0  0
   -1.1385   -3.9907   -0.0000 C   0  0  0  0  0  0  0  0  0  0  0  0
    0.1959   -4.7497   -0.0000 C   0  0  0  0  0  0  0  0  0  0  0  0
   -2.4973   -4.7620   -0.0000 C   0  0  0  0  0  0  0  0  0  0  0  0
    0.1836   -6.2922   -0.0000 C   0  0  0  0  0  0  0  0  0  0  0  0
   -2.5095   -6.3044   -0.0000 C   0  0  0  0  0  0  0  0  0  0  0  0
   -1.1752   -7.0634   -0.0000 C   0  0  0  0  0  0  0  0  0  0  0  0
   -1.1874   -8.6058   -0.0000 C   0  0  0  0  0  0  0  0  0  0  0  0
    0.1469   -9.3648   -0.0000 N   0  0  0  0  0  0  0  0  0  0  0  0
   -2.5462   -9.3648   -0.0000 C   0  0  0  0  0  0  0  0  0  0  0  0
    0.1347  -10.9072   -0.0000 C   0  0  0  0  0  0  0  0  0  0  0  0
   -2.5585  -10.9072   -0.0000 N   0  0  0  0  0  0  0  0  0  0  0  0
    1.2731  -11.9355   -0.0000 N   0  0  0  0  0  0  0  0  0  0  0  0
   -1.2242  -11.6662   -0.0000 C   0  0  0  0  0  0  0  0  0  0  0  0
    0.6243  -13.3433   -0.0000 N   0  0  0  0  0  0  0  0  0  0  0  0
   -0.9181  -13.1719   -0.0000 C   0  0  0  0  0  0  0  0  0  0  0  0
   -1.7628  -14.0778   -0.0000 N   0  0  0  0  0  0  0  0  0  0  0  0
  1  2  1  0  0  0  0
  2  3  2  0  0  0  0
  2  4  1  0  0  0  0
  3  5  1  0  0  0  0
  3  6  1  0  0  0  0
  4  7  1  0  0  0  0
  4  8  2  0  0  0  0
  6  9  2  0  0  0  0
  7 10  2  0  0  0  0
  7 11  2  0  0  0  0
  7 12  1  0  0  0  0
 12 13  1  0  0  0  0
 13 14  2  0  0  0  0
 13 15  1  0  0  0  0
 14 16  1  0  0  0  0
 15 17  2  0  0  0  0
 16 18  2  0  0  0  0
 18 19  1  0  0  0  0
 19 20  2  0  0  0  0
 19 21  1  0  0  0  0
 20 22  1  0  0  0  0
 21 23  2  0  0  0  0
 22 24  1  0  0  0  0
 22 25  2  0  0  0  0
 24 26  1  0  0  0  0
 25 27  1  0  0  0  0
 27 28  1  0  0  0  0
  8  9  1  0  0  0  0
 17 18  1  0  0  0  0
 23 25  1  0  0  0  0
 26 27  2  0  0  0  0
M  END
>  <MolRegNo>
1606831

>  <m>
=

>  <Value>
14500

>  <Unit>
nM

>  <Type>
IC50

>  <pValue>
4.84

>  <Ligand Efficiency>
0

>  <Binding Efficiency>
0

>  <Surface Efficiency>
0

>  <Assay Index>
890697

>  <Assay Category>


>  <Assay Organism>
Homo sapiens

>  <Target ID>
17045

>  <Target Name>
Cytochrome P450 3A4

>  <Target Organism>
Homo sapiens

>  <Target Description>
Target is a single protein chain

>  <Sequence Accession>
P08684

>  <Reference>
ACS Med Chem Lett 6 (1), 73-78 (2015)

>  <Pubmed ID>
25589934

>  <DOI>
10.1021/ml5003376

$$$$
1606839
Actelion Java MolfileCreator 1.0

 28 31  0  0  0  0  0  0  0  0999 V2000
    0.0000   -0.0000   -0.0000 Cl  0  0  0  0  0  0  0  0  0  0  0  0
    1.0693   -0.6022   -0.0000 C   0  0  0  0  0  0  0  0  0  0  0  0
    1.0570   -2.1508   -0.0000 C   0  0  0  0  0  0  0  0  0  0  0  0
    2.4089    0.1966   -0.0000 C   0  0  0  0  0  0  0  0  0  0  0  0
    2.3967   -2.9129   -0.0000 C   0  0  0  0  0  0  0  0  0  0  0  0
    3.7486   -0.5654   -0.0000 C   0  0  0  0  0  0  0  0  0  0  0  0
    2.3844   -4.4615   -0.0000 S   0  0  0  0  0  0  0  0  0  0  0  0
    3.7363   -2.1140   -0.0000 C   0  0  0  0  0  0  0  0  0  0  0  0
    1.2905   -5.0760   -0.0000 O   0  0  0  0  0  0  0  0  0  0  0  0
    2.3721   -5.7028   -0.0000 O   0  0  0  0  0  0  0  0  0  0  0  0
    3.7240   -5.2235   -0.0000 N   0  0  0  0  0  0  0  0  0  0  0  0
    4.8056   -2.7162   -0.0000 F   0  0  0  0  0  0  0  0  0  0  0  0
    3.7117   -6.7721   -0.0000 C   0  0  0  0  0  0  0  0  0  0  0  0
    5.0514   -7.5341   -0.0000 C   0  0  0  0  0  0  0  0  0  0  0  0
    2.3475   -7.5464   -0.0000 C   0  0  0  0  0  0  0  0  0  0  0  0
    5.0391   -9.0827   -0.0000 C   0  0  0  0  0  0  0  0  0  0  0  0
    2.3352   -9.0950   -0.0000 C   0  0  0  0  0  0  0  0  0  0  0  0
    3.6749   -9.8570   -0.0000 C   0  0  0  0  0  0  0  0  0  0  0  0
    3.6626  -11.4056   -0.0000 C   0  0  0  0  0  0  0  0  0  0  0  0
    5.0022  -12.1676   -0.0000 N   0  0  0  0  0  0  0  0  0  0  0  0
    2.2983  -12.1676   -0.0000 C   0  0  0  0  0  0  0  0  0  0  0  0
    4.9900  -13.7162   -0.0000 C   0  0  0  0  0  0  0  0  0  0  0  0
    2.2860  -13.7162   -0.0000 N   0  0  0  0  0  0  0  0  0  0  0  0
    6.1330  -14.7486   -0.0000 N   0  0  0  0  0  0  0  0  0  0  0  0
    3.6257  -14.4782   -0.0000 C   0  0  0  0  0  0  0  0  0  0  0  0
    5.4816  -16.1621   -0.0000 N   0  0  0  0  0  0  0  0  0  0  0  0
    3.9330  -15.9900   -0.0000 C   0  0  0  0  0  0  0  0  0  0  0  0
    3.0849  -16.8995   -0.0000 N   0  0  0  0  0  0  0  0  0  0  0  0
  1  2  1  0  0  0  0
  2  3  2  0  0  0  0
  2  4  1  0  0  0  0
  3  5  1  0  0  0  0
  4  6  2  0  0  0  0
  5  7  1  0  0  0  0
  5  8  2  0  0  0  0
  7  9  2  0  0  0  0
  7 10  2  0  0  0  0
  7 11  1  0  0  0  0
  8 12  1  0  0  0  0
 11 13  1  0  0  0  0
 13 14  2  0  0  0  0
 13 15  1  0  0  0  0
 14 16  1  0  0  0  0
 15 17  2  0  0  0  0
 16 18  2  0  0  0  0
 18 19  1  0  0  0  0
 19 20  2  0  0  0  0
 19 21  1  0  0  0  0
 20 22  1  0  0  0  0
 21 23  2  0  0  0  0
 22 24  1  0  0  0  0
 22 25  2  0  0  0  0
 24 26  1  0  0  0  0
 25 27  1  0  0  0  0
 27 28  1  0  0  0  0
  6  8  1  0  0  0  0
 17 18  1  0  0  0  0
 23 25  1  0  0  0  0
 26 27  2  0  0  0  0
M  END
>  <MolRegNo>
1606839

>  <m>
=

>  <Value>
28600

>  <Unit>
nM

>  <Type>
IC50

>  <pValue>
4.54

>  <Ligand Efficiency>
0

>  <Binding Efficiency>
0

>  <Surface Efficiency>
0

>  <Assay Index>
890697

>  <Assay Category>


>  <Assay Organism>
Homo sapiens

>  <Target ID>
17045

>  <Target Name>
Cytochrome P450 3A4

>  <Target Organism>
Homo sapiens

>  <Target Description>
Target is a single protein chain

>  <Sequence Accession>
P08684

>  <Reference>
ACS Med Chem Lett 6 (1), 73-78 (2015)

>  <Pubmed ID>
25589934

>  <DOI>
10.1021/ml5003376

$$$$
703539
Actelion Java MolfileCreator 1.0

 28 30  0  0  0  0  0  0  0  0999 V2000
    0.0000   -0.0000   -0.0000 F   0  0  0  0  0  0  0  0  0  0  0  0
    0.0118    1.5045   -0.0000 C   0  0  0  0  0  0  0  0  0  0  0  0
   -1.2794    2.2863   -0.0000 C   0  0  0  0  0  0  0  0  0  0  0  0
    1.3149    2.2389   -0.0000 C   0  0  0  0  0  0  0  0  0  0  0  0
   -1.2557    3.7908   -0.0000 C   0  0  0  0  0  0  0  0  0  0  0  0
    1.3268    3.7553   -0.0000 C   0  0  0  0  0  0  0  0  0  0  0  0
    0.0355    4.5371   -0.0000 C   0  0  0  0  0  0  0  0  0  0  0  0
   -2.5469    4.5726   -0.0000 C   0  0  0  0  0  0  0  0  0  0  0  0
    0.0474    6.0416   -0.0000 C   0  0  0  0  0  0  0  0  0  0  0  0
   -3.8737    3.8619   -0.0000 C   0  0  0  0  0  0  0  0  0  0  0  0
   -2.7839    5.9823   -0.0000 C   0  0  0  0  0  0  0  0  0  0  0  0
   -1.8243    5.8876   -0.0000 C   0  0  0  0  0  0  0  0  0  0  0  0
   -5.1650    4.6437   -0.0000 C   0  0  0  0  0  0  0  0  0  0  0  0
   -4.5016    6.0060   -0.0000 O   0  0  0  0  0  0  0  0  0  0  0  0
   -6.0060    5.9231   -0.0000 C   0  0  0  0  0  0  0  0  0  0  0  0
   -6.4917    3.9330   -0.0000 C   0  0  0  0  0  0  0  0  0  0  0  0
   -5.3427    7.2736   -0.0000 F   0  0  0  0  0  0  0  0  0  0  0  0
   -7.5105    5.8520   -0.0000 F   0  0  0  0  0  0  0  0  0  0  0  0
   -6.8353    7.1907   -0.0000 F   0  0  0  0  0  0  0  0  0  0  0  0
   -6.5036    2.4522   -0.0000 C   0  0  0  0  0  0  0  0  0  0  0  0
   -5.2953    1.5755   -0.0000 N   0  0  0  0  0  0  0  0  0  0  0  0
   -7.7356    1.5755   -0.0000 C   0  0  0  0  0  0  0  0  0  0  0  0
   -5.7691    0.1540   -0.0000 C   0  0  0  0  0  0  0  0  0  0  0  0
   -7.2854    0.1540   -0.0000 C   0  0  0  0  0  0  0  0  0  0  0  0
   -5.0347   -1.1254   -0.0000 C   0  0  0  0  0  0  0  0  0  0  0  0
   -8.0436   -1.1254   -0.0000 C   0  0  0  0  0  0  0  0  0  0  0  0
   -5.7928   -2.4048   -0.0000 N   0  0  0  0  0  0  0  0  0  0  0  0
   -7.3091   -2.4048   -0.0000 C   0  0  0  0  0  0  0  0  0  0  0  0
  1  2  1  0  0  0  0
  2  3  2  0  0  0  0
  2  4  1  0  0  0  0
  3  5  1  0  0  0  0
  4  6  2  0  0  0  0
  5  7  2  0  0  0  0
  5  8  1  0  0  0  0
  7  9  1  0  0  0  0
  8 10  1  0  0  0  0
  8 11  1  0  0  0  0
  8 12  1  0  0  0  0
 10 13  1  0  0  0  0
 13 14  1  0  0  0  0
 13 15  1  0  0  0  0
 13 16  1  0  0  0  0
 15 17  1  0  0  0  0
 15 18  1  0  0  0  0
 15 19  1  0  0  0  0
 16 20  1  0  0  0  0
 20 21  1  0  0  0  0
 20 22  2  0  0  0  0
 21 23  1  0  0  0  0
 22 24  1  0  0  0  0
 23 25  1  0  0  0  0
 24 26  1  0  0  0  0
 25 27  2  0  0  0  0
 26 28  2  0  0  0  0
  6  7  1  0  0  0  0
 23 24  2  0  0  0  0
 27 28  1  0  0  0  0
M  END
>  <MolRegNo>
703539

>  <m>
=

>  <Value>
100

>  <Unit>
nM

>  <Type>
IC50

>  <pValue>
7

>  <Ligand Efficiency>
0

>  <Binding Efficiency>
0

>  <Surface Efficiency>
0

>  <Assay Index>
891826

>  <Assay Category>


>  <Assay Organism>
Homo sapiens

>  <Target ID>
17045

>  <Target Name>
Cytochrome P450 3A4

>  <Target Organism>
Homo sapiens

>  <Target Description>
Target is a single protein chain

>  <Sequence Accession>
P08684

>  <Reference>
ACS Med Chem Lett 5 (12), 1318-1323 (2014)

>  <Pubmed ID>
25516791

>  <DOI>
10.1021/ml500387y

$$$$
1823084
Actelion Java MolfileCreator 1.0

 29 31  0  0  0  0  0  0  0  0999 V2000
    0.0000   -0.0000   -0.0000 F   0  0  0  0  0  0  0  0  0  0  0  0
    0.0000    1.4959   -0.0000 C   0  0  0  0  0  0  0  0  0  0  0  0
   -1.2957    2.2615   -0.0000 C   0  0  0  0  0  0  0  0  0  0  0  0
    1.2839    2.2380   -0.0000 C   0  0  0  0  0  0  0  0  0  0  0  0
   -1.2839    3.7575   -0.0000 C   0  0  0  0  0  0  0  0  0  0  0  0
    1.2839    3.7457   -0.0000 C   0  0  0  0  0  0  0  0  0  0  0  0
   -0.0118    4.5113   -0.0000 C   0  0  0  0  0  0  0  0  0  0  0  0
   -2.5796    4.5231   -0.0000 C   0  0  0  0  0  0  0  0  0  0  0  0
   -0.0236    6.0072   -0.0000 C   0  0  0  0  0  0  0  0  0  0  0  0
   -3.8870    3.8046   -0.0000 C   0  0  0  0  0  0  0  0  0  0  0  0
   -1.8375    5.8188   -0.0000 C   0  0  0  0  0  0  0  0  0  0  0  0
   -3.3216    5.8305   -0.0000 C   0  0  0  0  0  0  0  0  0  0  0  0
   -5.1827    4.5702   -0.0000 C   0  0  0  0  0  0  0  0  0  0  0  0
   -5.2063    3.0978   -0.0000 O   0  0  0  0  0  0  0  0  0  0  0  0
   -5.1827    6.0661   -0.0000 C   0  0  0  0  0  0  0  0  0  0  0  0
   -6.4902    3.8517   -0.0000 C   0  0  0  0  0  0  0  0  0  0  0  0
   -3.8988    6.8082   -0.0000 F   0  0  0  0  0  0  0  0  0  0  0  0
   -6.4784    6.8317   -0.0000 F   0  0  0  0  0  0  0  0  0  0  0  0
   -5.2063    7.5738   -0.0000 F   0  0  0  0  0  0  0  0  0  0  0  0
   -7.7858    4.6173   -0.0000 C   0  0  0  0  0  0  0  0  0  0  0  0
   -9.1757    4.0284   -0.0000 N   0  0  0  0  0  0  0  0  0  0  0  0
   -7.9390    6.1250   -0.0000 C   0  0  0  0  0  0  0  0  0  0  0  0
  -10.1769    5.1591   -0.0000 C   0  0  0  0  0  0  0  0  0  0  0  0
   -9.4113    6.4666   -0.0000 C   0  0  0  0  0  0  0  0  0  0  0  0
   -7.9625    7.6327   -0.0000 C   0  0  0  0  0  0  0  0  0  0  0  0
  -11.6729    5.1827   -0.0000 C   0  0  0  0  0  0  0  0  0  0  0  0
  -10.1652    7.7741   -0.0000 C   0  0  0  0  0  0  0  0  0  0  0  0
  -12.4149    6.4902   -0.0000 N   0  0  0  0  0  0  0  0  0  0  0  0
  -11.6611    7.7858   -0.0000 C   0  0  0  0  0  0  0  0  0  0  0  0
  1  2  1  0  0  0  0
  2  3  2  0  0  0  0
  2  4  1  0  0  0  0
  3  5  1  0  0  0  0
  4  6  2  0  0  0  0
  5  7  2  0  0  0  0
  5  8  1  0  0  0  0
  7  9  1  0  0  0  0
  8 10  1  0  0  0  0
  8 11  1  0  0  0  0
  8 12  1  0  0  0  0
 10 13  1  0  0  0  0
 13 14  1  0  0  0  0
 13 15  1  0  0  0  0
 13 16  1  0  0  0  0
 15 17  1  0  0  0  0
 15 18  1  0  0  0  0
 15 19  1  0  0  0  0
 16 20  1  0  0  0  0
 20 21  1  0  0  0  0
 20 22  2  0  0  0  0
 21 23  1  0  0  0  0
 22 24  1  0  0  0  0
 22 25  1  0  0  0  0
 23 26  1  0  0  0  0
 24 27  1  0  0  0  0
 26 28  2  0  0  0  0
 27 29  2  0  0  0  0
  6  7  1  0  0  0  0
 23 24  2  0  0  0  0
 28 29  1  0  0  0  0
M  END
>  <MolRegNo>
1823084

>  <m>
=

>  <Value>
100

>  <Unit>
nM

>  <Type>
IC50

>  <pValue>
7

>  <Ligand Efficiency>
0

>  <Binding Efficiency>
0

>  <Surface Efficiency>
0

>  <Assay Index>
891826

>  <Assay Category>


>  <Assay Organism>
Homo sapiens

>  <Target ID>
17045

>  <Target Name>
Cytochrome P450 3A4

>  <Target Organism>
Homo sapiens

>  <Target Description>
Target is a single protein chain

>  <Sequence Accession>
P08684

>  <Reference>
ACS Med Chem Lett 5 (12), 1318-1323 (2014)

>  <Pubmed ID>
25516791

>  <DOI>
10.1021/ml500387y

$$$$
1823085
Actelion Java MolfileCreator 1.0

 29 31  0  0  0  0  0  0  0  0999 V2000
    0.0000   -0.0000   -0.0000 F   0  0  0  0  0  0  0  0  0  0  0  0
    0.0000    1.4964   -0.0000 C   0  0  0  0  0  0  0  0  0  0  0  0
   -1.2961    2.2623   -0.0000 C   0  0  0  0  0  0  0  0  0  0  0  0
    1.2843    2.2387   -0.0000 C   0  0  0  0  0  0  0  0  0  0  0  0
   -1.2843    3.7587   -0.0000 C   0  0  0  0  0  0  0  0  0  0  0  0
    1.2843    3.7469   -0.0000 C   0  0  0  0  0  0  0  0  0  0  0  0
   -0.0118    4.5127   -0.0000 C   0  0  0  0  0  0  0  0  0  0  0  0
   -2.5804    4.5245   -0.0000 C   0  0  0  0  0  0  0  0  0  0  0  0
   -0.0236    6.0091   -0.0000 C   0  0  0  0  0  0  0  0  0  0  0  0
   -3.8883    3.8058   -0.0000 C   0  0  0  0  0  0  0  0  0  0  0  0
   -1.8381    5.8206   -0.0000 C   0  0  0  0  0  0  0  0  0  0  0  0
   -3.3227    5.8324   -0.0000 C   0  0  0  0  0  0  0  0  0  0  0  0
   -5.1843    4.5717   -0.0000 C   0  0  0  0  0  0  0  0  0  0  0  0
   -5.2079    3.0988   -0.0000 O   0  0  0  0  0  0  0  0  0  0  0  0
   -5.1843    6.0680   -0.0000 C   0  0  0  0  0  0  0  0  0  0  0  0
   -6.4922    3.8529   -0.0000 C   0  0  0  0  0  0  0  0  0  0  0  0
   -3.9000    6.8103   -0.0000 F   0  0  0  0  0  0  0  0  0  0  0  0
   -6.4804    6.8339   -0.0000 F   0  0  0  0  0  0  0  0  0  0  0  0
   -5.2079    7.5762   -0.0000 F   0  0  0  0  0  0  0  0  0  0  0  0
   -7.7883    4.6188   -0.0000 C   0  0  0  0  0  0  0  0  0  0  0  0
   -9.1787    4.0297   -0.0000 N   0  0  0  0  0  0  0  0  0  0  0  0
   -7.9415    6.1270   -0.0000 C   0  0  0  0  0  0  0  0  0  0  0  0
  -10.1802    5.1608   -0.0000 C   0  0  0  0  0  0  0  0  0  0  0  0
   -9.4143    6.4687   -0.0000 C   0  0  0  0  0  0  0  0  0  0  0  0
  -11.6766    5.1843   -0.0000 C   0  0  0  0  0  0  0  0  0  0  0  0
  -10.1684    7.7765   -0.0000 C   0  0  0  0  0  0  0  0  0  0  0  0
  -12.4189    6.4922   -0.0000 N   0  0  0  0  0  0  0  0  0  0  0  0
  -11.6648    7.7883   -0.0000 C   0  0  0  0  0  0  0  0  0  0  0  0
   -9.4261    9.0726   -0.0000 C   0  0  0  0  0  0  0  0  0  0  0  0
  1  2  1  0  0  0  0
  2  3  2  0  0  0  0
  2  4  1  0  0  0  0
  3  5  1  0  0  0  0
  4  6  2  0  0  0  0
  5  7  2  0  0  0  0
  5  8  1  0  0  0  0
  7  9  1  0  0  0  0
  8 10  1  0  0  0  0
  8 11  1  0  0  0  0
  8 12  1  0  0  0  0
 10 13  1  0  0  0  0
 13 14  1  0  0  0  0
 13 15  1  0  0  0  0
 13 16  1  0  0  0  0
 15 17  1  0  0  0  0
 15 18  1  0  0  0  0
 15 19  1  0  0  0  0
 16 20  1  0  0  0  0
 20 21  1  0  0  0  0
 20 22  2  0  0  0  0
 21 23  1  0  0  0  0
 22 24  1  0  0  0  0
 23 25  1  0  0  0  0
 24 26  1  0  0  0  0
 25 27  2  0  0  0  0
 26 28  2  0  0  0  0
 26 29  1  0  0  0  0
  6  7  1  0  0  0  0
 23 24  2  0  0  0  0
 27 28  1  0  0  0  0
M  END
>  <MolRegNo>
1823085

>  <m>
=

>  <Value>
2000

>  <Unit>
nM

>  <Type>
IC50

>  <pValue>
5.7

>  <Ligand Efficiency>
0

>  <Binding Efficiency>
0

>  <Surface Efficiency>
0

>  <Assay Index>
891826

>  <Assay Category>


>  <Assay Organism>
Homo sapiens

>  <Target ID>
17045

>  <Target Name>
Cytochrome P450 3A4

>  <Target Organism>
Homo sapiens

>  <Target Description>
Target is a single protein chain

>  <Sequence Accession>
P08684

>  <Reference>
ACS Med Chem Lett 5 (12), 1318-1323 (2014)

>  <Pubmed ID>
25516791

>  <DOI>
10.1021/ml500387y

$$$$
1823086
Actelion Java MolfileCreator 1.0

 29 31  0  0  0  0  0  0  0  0999 V2000
    0.0000   -0.0000   -0.0000 F   0  0  0  0  0  0  0  0  0  0  0  0
    0.0000    1.4959   -0.0000 C   0  0  0  0  0  0  0  0  0  0  0  0
   -1.2956    2.2615   -0.0000 C   0  0  0  0  0  0  0  0  0  0  0  0
    1.2839    2.2379   -0.0000 C   0  0  0  0  0  0  0  0  0  0  0  0
   -1.2839    3.7574   -0.0000 C   0  0  0  0  0  0  0  0  0  0  0  0
    1.2839    3.7456   -0.0000 C   0  0  0  0  0  0  0  0  0  0  0  0
   -0.0118    4.5112   -0.0000 C   0  0  0  0  0  0  0  0  0  0  0  0
   -2.5795    4.5230   -0.0000 C   0  0  0  0  0  0  0  0  0  0  0  0
   -0.0236    6.0071   -0.0000 C   0  0  0  0  0  0  0  0  0  0  0  0
   -3.8869    3.8045   -0.0000 C   0  0  0  0  0  0  0  0  0  0  0  0
   -1.8375    5.8186   -0.0000 C   0  0  0  0  0  0  0  0  0  0  0  0
   -3.3215    5.8304   -0.0000 C   0  0  0  0  0  0  0  0  0  0  0  0
   -5.1826    4.5701   -0.0000 C   0  0  0  0  0  0  0  0  0  0  0  0
   -5.2061    3.0978   -0.0000 O   0  0  0  0  0  0  0  0  0  0  0  0
   -5.1826    6.0659   -0.0000 C   0  0  0  0  0  0  0  0  0  0  0  0
   -6.4900    3.8516   -0.0000 C   0  0  0  0  0  0  0  0  0  0  0  0
   -3.8987    6.8080   -0.0000 F   0  0  0  0  0  0  0  0  0  0  0  0
   -6.4782    6.8316   -0.0000 F   0  0  0  0  0  0  0  0  0  0  0  0
   -5.2061    7.5736   -0.0000 F   0  0  0  0  0  0  0  0  0  0  0  0
   -7.7856    4.6172   -0.0000 C   0  0  0  0  0  0  0  0  0  0  0  0
   -9.1755    4.0283   -0.0000 N   0  0  0  0  0  0  0  0  0  0  0  0
   -7.9387    6.1248   -0.0000 C   0  0  0  0  0  0  0  0  0  0  0  0
  -10.1767    5.1590   -0.0000 C   0  0  0  0  0  0  0  0  0  0  0  0
   -9.4111    6.4664   -0.0000 C   0  0  0  0  0  0  0  0  0  0  0  0
  -11.6725    5.1826   -0.0000 C   0  0  0  0  0  0  0  0  0  0  0  0
  -10.1649    7.7738   -0.0000 C   0  0  0  0  0  0  0  0  0  0  0  0
  -12.4146    6.4900   -0.0000 N   0  0  0  0  0  0  0  0  0  0  0  0
  -11.6608    7.7856   -0.0000 C   0  0  0  0  0  0  0  0  0  0  0  0
  -12.4146    9.0930   -0.0000 C   0  0  0  0  0  0  0  0  0  0  0  0
  1  2  1  0  0  0  0
  2  3  2  0  0  0  0
  2  4  1  0  0  0  0
  3  5  1  0  0  0  0
  4  6  2  0  0  0  0
  5  7  2  0  0  0  0
  5  8  1  0  0  0  0
  7  9  1  0  0  0  0
  8 10  1  0  0  0  0
  8 11  1  0  0  0  0
  8 12  1  0  0  0  0
 10 13  1  0  0  0  0
 13 14  1  0  0  0  0
 13 15  1  0  0  0  0
 13 16  1  0  0  0  0
 15 17  1  0  0  0  0
 15 18  1  0  0  0  0
 15 19  1  0  0  0  0
 16 20  1  0  0  0  0
 20 21  1  0  0  0  0
 20 22  2  0  0  0  0
 21 23  1  0  0  0  0
 22 24  1  0  0  0  0
 23 25  1  0  0  0  0
 24 26  1  0  0  0  0
 25 27  2  0  0  0  0
 26 28  2  0  0  0  0
 28 29  1  0  0  0  0
  6  7  1  0  0  0  0
 23 24  2  0  0  0  0
 27 28  1  0  0  0  0
M  END
>  <MolRegNo>
1823086

>  <m>
=

>  <Value>
600

>  <Unit>
nM

>  <Type>
IC50

>  <pValue>
6.22

>  <Ligand Efficiency>
0

>  <Binding Efficiency>
0

>  <Surface Efficiency>
0

>  <Assay Index>
891826

>  <Assay Category>


>  <Assay Organism>
Homo sapiens

>  <Target ID>
17045

>  <Target Name>
Cytochrome P450 3A4

>  <Target Organism>
Homo sapiens

>  <Target Description>
Target is a single protein chain

>  <Sequence Accession>
P08684

>  <Reference>
ACS Med Chem Lett 5 (12), 1318-1323 (2014)

>  <Pubmed ID>
25516791

>  <DOI>
10.1021/ml500387y

$$$$
1823087
Actelion Java MolfileCreator 1.0

 31 33  0  0  0  0  0  0  0  0999 V2000
    0.0000   -0.0000   -0.0000 F   0  0  0  0  0  0  0  0  0  0  0  0
    0.0000    1.4967   -0.0000 C   0  0  0  0  0  0  0  0  0  0  0  0
   -1.2963    2.2627   -0.0000 C   0  0  0  0  0  0  0  0  0  0  0  0
    1.2845    2.2391   -0.0000 C   0  0  0  0  0  0  0  0  0  0  0  0
   -1.2845    3.7594   -0.0000 C   0  0  0  0  0  0  0  0  0  0  0  0
    1.2845    3.7476   -0.0000 C   0  0  0  0  0  0  0  0  0  0  0  0
   -0.0118    4.5136   -0.0000 C   0  0  0  0  0  0  0  0  0  0  0  0
   -2.5809    4.5254   -0.0000 C   0  0  0  0  0  0  0  0  0  0  0  0
   -0.0236    6.0103   -0.0000 O   0  0  0  0  0  0  0  0  0  0  0  0
   -3.8890    3.8065   -0.0000 C   0  0  0  0  0  0  0  0  0  0  0  0
   -1.8384    5.8217   -0.0000 C   0  0  0  0  0  0  0  0  0  0  0  0
   -3.3233    5.8335   -0.0000 C   0  0  0  0  0  0  0  0  0  0  0  0
    1.2610    6.7645   -0.0000 C   0  0  0  0  0  0  0  0  0  0  0  0
   -5.1853    4.5725   -0.0000 C   0  0  0  0  0  0  0  0  0  0  0  0
   -5.2089    3.0994   -0.0000 O   0  0  0  0  0  0  0  0  0  0  0  0
   -5.1853    6.0692   -0.0000 C   0  0  0  0  0  0  0  0  0  0  0  0
   -6.4934    3.8536   -0.0000 C   0  0  0  0  0  0  0  0  0  0  0  0
   -3.9008    6.8116   -0.0000 F   0  0  0  0  0  0  0  0  0  0  0  0
   -6.4817    6.8352   -0.0000 F   0  0  0  0  0  0  0  0  0  0  0  0
   -5.2089    7.5777   -0.0000 F   0  0  0  0  0  0  0  0  0  0  0  0
   -7.7898    4.6197   -0.0000 C   0  0  0  0  0  0  0  0  0  0  0  0
   -9.1804    4.0304   -0.0000 N   0  0  0  0  0  0  0  0  0  0  0  0
   -7.9430    6.1281   -0.0000 C   0  0  0  0  0  0  0  0  0  0  0  0
  -10.1821    5.1618   -0.0000 C   0  0  0  0  0  0  0  0  0  0  0  0
   -9.4161    6.4699   -0.0000 C   0  0  0  0  0  0  0  0  0  0  0  0
  -11.6788    5.1853   -0.0000 C   0  0  0  0  0  0  0  0  0  0  0  0
  -10.1703    7.7780   -0.0000 C   0  0  0  0  0  0  0  0  0  0  0  0
  -12.4212    6.4934   -0.0000 N   0  0  0  0  0  0  0  0  0  0  0  0
  -12.4448    3.9126   -0.0000 C   0  0  0  0  0  0  0  0  0  0  0  0
  -11.6670    7.7898   -0.0000 C   0  0  0  0  0  0  0  0  0  0  0  0
  -12.4212    9.0979   -0.0000 C   0  0  0  0  0  0  0  0  0  0  0  0
  1  2  1  0  0  0  0
  2  3  2  0  0  0  0
  2  4  1  0  0  0  0
  3  5  1  0  0  0  0
  4  6  2  0  0  0  0
  5  7  2  0  0  0  0
  5  8  1  0  0  0  0
  7  9  1  0  0  0  0
  8 10  1  0  0  0  0
  8 11  1  0  0  0  0
  8 12  1  0  0  0  0
  9 13  1  0  0  0  0
 10 14  1  0  0  0  0
 14 15  1  0  0  0  0
 14 16  1  0  0  0  0
 14 17  1  0  0  0  0
 16 18  1  0  0  0  0
 16 19  1  0  0  0  0
 16 20  1  0  0  0  0
 17 21  1  0  0  0  0
 21 22  1  0  0  0  0
 21 23  2  0  0  0  0
 22 24  1  0  0  0  0
 23 25  1  0  0  0  0
 24 26  1  0  0  0  0
 25 27  1  0  0  0  0
 26 28  2  0  0  0  0
 26 29  1  0  0  0  0
 27 30  2  0  0  0  0
 30 31  1  0  0  0  0
  6  7  1  0  0  0  0
 24 25  2  0  0  0  0
 28 30  1  0  0  0  0
M  END
>  <MolRegNo>
1823087

>  <m>
=

>  <Value>
200

>  <Unit>
nM

>  <Type>
IC50

>  <pValue>
6.7

>  <Ligand Efficiency>
0

>  <Binding Efficiency>
0

>  <Surface Efficiency>
0

>  <Assay Index>
891826

>  <Assay Category>


>  <Assay Organism>
Homo sapiens

>  <Target ID>
17045

>  <Target Name>
Cytochrome P450 3A4

>  <Target Organism>
Homo sapiens

>  <Target Description>
Target is a single protein chain

>  <Sequence Accession>
P08684

>  <Reference>
ACS Med Chem Lett 5 (12), 1318-1323 (2014)

>  <Pubmed ID>
25516791

>  <DOI>
10.1021/ml500387y

$$$$
1823088
Actelion Java MolfileCreator 1.0

 34 37  0  0  0  0  0  0  0  0999 V2000
    0.0000   -0.0000   -0.0000 F   0  0  0  0  0  0  0  0  0  0  0  0
    0.0000    1.4961   -0.0000 C   0  0  0  0  0  0  0  0  0  0  0  0
   -1.2959    2.2619   -0.0000 C   0  0  0  0  0  0  0  0  0  0  0  0
    1.2841    2.2383   -0.0000 C   0  0  0  0  0  0  0  0  0  0  0  0
   -1.2841    3.7580   -0.0000 C   0  0  0  0  0  0  0  0  0  0  0  0
    1.2841    3.7462   -0.0000 C   0  0  0  0  0  0  0  0  0  0  0  0
   -0.0118    4.5119   -0.0000 C   0  0  0  0  0  0  0  0  0  0  0  0
   -2.5799    4.5237   -0.0000 C   0  0  0  0  0  0  0  0  0  0  0  0
   -0.0236    6.0081   -0.0000 C   0  0  0  0  0  0  0  0  0  0  0  0
   -3.8876    3.8051   -0.0000 C   0  0  0  0  0  0  0  0  0  0  0  0
   -1.8378    5.8196   -0.0000 C   0  0  0  0  0  0  0  0  0  0  0  0
   -3.3221    5.8314   -0.0000 C   0  0  0  0  0  0  0  0  0  0  0  0
   -5.1834    4.5708   -0.0000 C   0  0  0  0  0  0  0  0  0  0  0  0
   -5.2070    3.0983   -0.0000 O   0  0  0  0  0  0  0  0  0  0  0  0
   -5.1834    6.0670   -0.0000 C   0  0  0  0  0  0  0  0  0  0  0  0
   -6.4911    3.8522   -0.0000 C   0  0  0  0  0  0  0  0  0  0  0  0
   -3.8993    6.8091   -0.0000 F   0  0  0  0  0  0  0  0  0  0  0  0
   -6.4793    6.8327   -0.0000 F   0  0  0  0  0  0  0  0  0  0  0  0
   -5.2070    7.5749   -0.0000 F   0  0  0  0  0  0  0  0  0  0  0  0
   -7.7869    4.6180   -0.0000 C   0  0  0  0  0  0  0  0  0  0  0  0
   -9.1770    4.0289   -0.0000 N   0  0  0  0  0  0  0  0  0  0  0  0
   -7.9401    6.1259   -0.0000 C   0  0  0  0  0  0  0  0  0  0  0  0
  -10.1784    5.1599   -0.0000 C   0  0  0  0  0  0  0  0  0  0  0  0
   -9.4126    6.4675   -0.0000 C   0  0  0  0  0  0  0  0  0  0  0  0
  -11.6745    5.1834   -0.0000 C   0  0  0  0  0  0  0  0  0  0  0  0
  -10.1666    7.7751   -0.0000 C   0  0  0  0  0  0  0  0  0  0  0  0
  -12.4167    6.4911   -0.0000 N   0  0  0  0  0  0  0  0  0  0  0  0
  -11.6627    7.7869   -0.0000 C   0  0  0  0  0  0  0  0  0  0  0  0
  -12.4049    9.0828   -0.0000 C   0  0  0  0  0  0  0  0  0  0  0  0
  -11.6627   10.3786   -0.0000 C   0  0  0  0  0  0  0  0  0  0  0  0
  -13.9010    9.0946   -0.0000 C   0  0  0  0  0  0  0  0  0  0  0  0
  -12.4167   11.6863   -0.0000 C   0  0  0  0  0  0  0  0  0  0  0  0
  -14.6550   10.3904   -0.0000 C   0  0  0  0  0  0  0  0  0  0  0  0
  -13.9128   11.7098   -0.0000 C   0  0  0  0  0  0  0  0  0  0  0  0
  1  2  1  0  0  0  0
  2  3  2  0  0  0  0
  2  4  1  0  0  0  0
  3  5  1  0  0  0  0
  4  6  2  0  0  0  0
  5  7  2  0  0  0  0
  5  8  1  0  0  0  0
  7  9  1  0  0  0  0
  8 10  1  0  0  0  0
  8 11  1  0  0  0  0
  8 12  1  0  0  0  0
 10 13  1  0  0  0  0
 13 14  1  0  0  0  0
 13 15  1  0  0  0  0
 13 16  1  0  0  0  0
 15 17  1  0  0  0  0
 15 18  1  0  0  0  0
 15 19  1  0  0  0  0
 16 20  1  0  0  0  0
 20 21  1  0  0  0  0
 20 22  2  0  0  0  0
 21 23  1  0  0  0  0
 22 24  1  0  0  0  0
 23 25  1  0  0  0  0
 24 26  1  0  0  0  0
 25 27  2  0  0  0  0
 26 28  2  0  0  0  0
 28 29  1  0  0  0  0
 29 30  2  0  0  0  0
 29 31  1  0  0  0  0
 30 32  1  0  0  0  0
 31 33  2  0  0  0  0
 32 34  2  0  0  0  0
  6  7  1  0  0  0  0
 23 24  2  0  0  0  0
 27 28  1  0  0  0  0
 33 34  1  0  0  0  0
M  END
>  <MolRegNo>
1823088

>  <m>
=

>  <Value>
3000

>  <Unit>
nM

>  <Type>
IC50

>  <pValue>
5.52

>  <Ligand Efficiency>
0

>  <Binding Efficiency>
0

>  <Surface Efficiency>
0

>  <Assay Index>
891826

>  <Assay Category>


>  <Assay Organism>
Homo sapiens

>  <Target ID>
17045

>  <Target Name>
Cytochrome P450 3A4

>  <Target Organism>
Homo sapiens

>  <Target Description>
Target is a single protein chain

>  <Sequence Accession>
P08684

>  <Reference>
ACS Med Chem Lett 5 (12), 1318-1323 (2014)

>  <Pubmed ID>
25516791

>  <DOI>
10.1021/ml500387y

$$$$
1823089
Actelion Java MolfileCreator 1.0

 29 31  0  0  0  0  0  0  0  0999 V2000
    0.0000   -0.0000   -0.0000 F   0  0  0  0  0  0  0  0  0  0  0  0
    0.0000    1.4959   -0.0000 C   0  0  0  0  0  0  0  0  0  0  0  0
   -1.2956    2.2615   -0.0000 C   0  0  0  0  0  0  0  0  0  0  0  0
    1.2839    2.2379   -0.0000 C   0  0  0  0  0  0  0  0  0  0  0  0
   -1.2839    3.7574   -0.0000 C   0  0  0  0  0  0  0  0  0  0  0  0
    1.2839    3.7456   -0.0000 C   0  0  0  0  0  0  0  0  0  0  0  0
   -0.0118    4.5112   -0.0000 C   0  0  0  0  0  0  0  0  0  0  0  0
   -2.5795    4.5230   -0.0000 C   0  0  0  0  0  0  0  0  0  0  0  0
   -0.0236    6.0071   -0.0000 C   0  0  0  0  0  0  0  0  0  0  0  0
   -3.8869    3.8045   -0.0000 C   0  0  0  0  0  0  0  0  0  0  0  0
   -1.8375    5.8186   -0.0000 C   0  0  0  0  0  0  0  0  0  0  0  0
   -3.3215    5.8304   -0.0000 C   0  0  0  0  0  0  0  0  0  0  0  0
   -5.1826    4.5701   -0.0000 C   0  0  0  0  0  0  0  0  0  0  0  0
   -5.2061    3.0978   -0.0000 O   0  0  0  0  0  0  0  0  0  0  0  0
   -5.1826    6.0659   -0.0000 C   0  0  0  0  0  0  0  0  0  0  0  0
   -6.4900    3.8516   -0.0000 C   0  0  0  0  0  0  0  0  0  0  0  0
   -3.8987    6.8080   -0.0000 F   0  0  0  0  0  0  0  0  0  0  0  0
   -6.4782    6.8316   -0.0000 F   0  0  0  0  0  0  0  0  0  0  0  0
   -5.2061    7.5736   -0.0000 F   0  0  0  0  0  0  0  0  0  0  0  0
   -7.7856    4.6172   -0.0000 C   0  0  0  0  0  0  0  0  0  0  0  0
   -9.1755    4.0283   -0.0000 N   0  0  0  0  0  0  0  0  0  0  0  0
   -7.9387    6.1248   -0.0000 C   0  0  0  0  0  0  0  0  0  0  0  0
  -10.1767    5.1590   -0.0000 C   0  0  0  0  0  0  0  0  0  0  0  0
   -9.4111    6.4664   -0.0000 C   0  0  0  0  0  0  0  0  0  0  0  0
  -11.6725    5.1826   -0.0000 C   0  0  0  0  0  0  0  0  0  0  0  0
  -10.1649    7.7738   -0.0000 C   0  0  0  0  0  0  0  0  0  0  0  0
  -12.4146    6.4900   -0.0000 N   0  0  0  0  0  0  0  0  0  0  0  0
  -11.6608    7.7856   -0.0000 C   0  0  0  0  0  0  0  0  0  0  0  0
  -12.4146    9.0930   -0.0000 N   0  0  0  0  0  0  0  0  0  0  0  0
  1  2  1  0  0  0  0
  2  3  2  0  0  0  0
  2  4  1  0  0  0  0
  3  5  1  0  0  0  0
  4  6  2  0  0  0  0
  5  7  2  0  0  0  0
  5  8  1  0  0  0  0
  7  9  1  0  0  0  0
  8 10  1  0  0  0  0
  8 11  1  0  0  0  0
  8 12  1  0  0  0  0
 10 13  1  0  0  0  0
 13 14  1  0  0  0  0
 13 15  1  0  0  0  0
 13 16  1  0  0  0  0
 15 17  1  0  0  0  0
 15 18  1  0  0  0  0
 15 19  1  0  0  0  0
 16 20  1  0  0  0  0
 20 21  1  0  0  0  0
 20 22  2  0  0  0  0
 21 23  1  0  0  0  0
 22 24  1  0  0  0  0
 23 25  1  0  0  0  0
 24 26  1  0  0  0  0
 25 27  2  0  0  0  0
 26 28  2  0  0  0  0
 28 29  1  0  0  0  0
  6  7  1  0  0  0  0
 23 24  2  0  0  0  0
 27 28  1  0  0  0  0
M  END
>  <MolRegNo>
1823089

>  <m>
=

>  <Value>
500

>  <Unit>
nM

>  <Type>
IC50

>  <pValue>
6.3

>  <Ligand Efficiency>
0

>  <Binding Efficiency>
0

>  <Surface Efficiency>
0

>  <Assay Index>
891826

>  <Assay Category>


>  <Assay Organism>
Homo sapiens

>  <Target ID>
17045

>  <Target Name>
Cytochrome P450 3A4

>  <Target Organism>
Homo sapiens

>  <Target Description>
Target is a single protein chain

>  <Sequence Accession>
P08684

>  <Reference>
ACS Med Chem Lett 5 (12), 1318-1323 (2014)

>  <Pubmed ID>
25516791

>  <DOI>
10.1021/ml500387y

$$$$
1823090
Actelion Java MolfileCreator 1.0

 31 33  0  0  0  0  0  0  0  0999 V2000
    0.0000   -0.0000   -0.0000 F   0  0  0  0  0  0  0  0  0  0  0  0
    0.0000    1.4962   -0.0000 C   0  0  0  0  0  0  0  0  0  0  0  0
   -1.2959    2.2620   -0.0000 C   0  0  0  0  0  0  0  0  0  0  0  0
    1.2841    2.2384   -0.0000 C   0  0  0  0  0  0  0  0  0  0  0  0
   -1.2841    3.7582   -0.0000 C   0  0  0  0  0  0  0  0  0  0  0  0
    1.2841    3.7464   -0.0000 C   0  0  0  0  0  0  0  0  0  0  0  0
   -0.0118    4.5122   -0.0000 C   0  0  0  0  0  0  0  0  0  0  0  0
   -2.5801    4.5239   -0.0000 C   0  0  0  0  0  0  0  0  0  0  0  0
   -0.0236    6.0084   -0.0000 C   0  0  0  0  0  0  0  0  0  0  0  0
   -3.8878    3.8053   -0.0000 C   0  0  0  0  0  0  0  0  0  0  0  0
   -1.8379    5.8199   -0.0000 C   0  0  0  0  0  0  0  0  0  0  0  0
   -3.3223    5.8317   -0.0000 C   0  0  0  0  0  0  0  0  0  0  0  0
   -5.1837    4.5711   -0.0000 C   0  0  0  0  0  0  0  0  0  0  0  0
   -5.2073    3.0984   -0.0000 O   0  0  0  0  0  0  0  0  0  0  0  0
   -5.1837    6.0673   -0.0000 C   0  0  0  0  0  0  0  0  0  0  0  0
   -6.4914    3.8524   -0.0000 C   0  0  0  0  0  0  0  0  0  0  0  0
   -3.8996    6.8095   -0.0000 F   0  0  0  0  0  0  0  0  0  0  0  0
   -6.4796    6.8330   -0.0000 F   0  0  0  0  0  0  0  0  0  0  0  0
   -5.2073    7.5753   -0.0000 F   0  0  0  0  0  0  0  0  0  0  0  0
   -7.7873    4.6182   -0.0000 C   0  0  0  0  0  0  0  0  0  0  0  0
   -9.1775    4.0291   -0.0000 N   0  0  0  0  0  0  0  0  0  0  0  0
   -7.9405    6.1262   -0.0000 C   0  0  0  0  0  0  0  0  0  0  0  0
  -10.1789    5.1601   -0.0000 C   0  0  0  0  0  0  0  0  0  0  0  0
   -9.4131    6.4678   -0.0000 C   0  0  0  0  0  0  0  0  0  0  0  0
  -11.6751    5.1837   -0.0000 C   0  0  0  0  0  0  0  0  0  0  0  0
  -10.1671    7.7755   -0.0000 C   0  0  0  0  0  0  0  0  0  0  0  0
  -12.4173    6.4914   -0.0000 N   0  0  0  0  0  0  0  0  0  0  0  0
  -11.6633    7.7873   -0.0000 C   0  0  0  0  0  0  0  0  0  0  0  0
  -12.4173    9.0950   -0.0000 N   0  0  0  0  0  0  0  0  0  0  0  0
  -11.6751   10.3909   -0.0000 C   0  0  0  0  0  0  0  0  0  0  0  0
  -13.9135    9.1186   -0.0000 C   0  0  0  0  0  0  0  0  0  0  0  0
  1  2  1  0  0  0  0
  2  3  2  0  0  0  0
  2  4  1  0  0  0  0
  3  5  1  0  0  0  0
  4  6  2  0  0  0  0
  5  7  2  0  0  0  0
  5  8  1  0  0  0  0
  7  9  1  0  0  0  0
  8 10  1  0  0  0  0
  8 11  1  0  0  0  0
  8 12  1  0  0  0  0
 10 13  1  0  0  0  0
 13 14  1  0  0  0  0
 13 15  1  0  0  0  0
 13 16  1  0  0  0  0
 15 17  1  0  0  0  0
 15 18  1  0  0  0  0
 15 19  1  0  0  0  0
 16 20  1  0  0  0  0
 20 21  1  0  0  0  0
 20 22  2  0  0  0  0
 21 23  1  0  0  0  0
 22 24  1  0  0  0  0
 23 25  1  0  0  0  0
 24 26  1  0  0  0  0
 25 27  2  0  0  0  0
 26 28  2  0  0  0  0
 28 29  1  0  0  0  0
 29 30  1  0  0  0  0
 29 31  1  0  0  0  0
  6  7  1  0  0  0  0
 23 24  2  0  0  0  0
 27 28  1  0  0  0  0
M  END
>  <MolRegNo>
1823090

>  <m>
=

>  <Value>
600

>  <Unit>
nM

>  <Type>
IC50

>  <pValue>
6.22

>  <Ligand Efficiency>
0

>  <Binding Efficiency>
0

>  <Surface Efficiency>
0

>  <Assay Index>
891826

>  <Assay Category>


>  <Assay Organism>
Homo sapiens

>  <Target ID>
17045

>  <Target Name>
Cytochrome P450 3A4

>  <Target Organism>
Homo sapiens

>  <Target Description>
Target is a single protein chain

>  <Sequence Accession>
P08684

>  <Reference>
ACS Med Chem Lett 5 (12), 1318-1323 (2014)

>  <Pubmed ID>
25516791

>  <DOI>
10.1021/ml500387y

$$$$
1823091
Actelion Java MolfileCreator 1.0

 32 34  0  0  0  0  0  0  0  0999 V2000
    0.0000   -0.0000   -0.0000 F   0  0  0  0  0  0  0  0  0  0  0  0
    0.0000    1.4966   -0.0000 C   0  0  0  0  0  0  0  0  0  0  0  0
   -1.2963    2.2626   -0.0000 C   0  0  0  0  0  0  0  0  0  0  0  0
    1.2845    2.2390   -0.0000 C   0  0  0  0  0  0  0  0  0  0  0  0
   -1.2845    3.7592   -0.0000 C   0  0  0  0  0  0  0  0  0  0  0  0
    1.2845    3.7474   -0.0000 C   0  0  0  0  0  0  0  0  0  0  0  0
   -0.0118    4.5134   -0.0000 C   0  0  0  0  0  0  0  0  0  0  0  0
   -2.5808    4.5252   -0.0000 C   0  0  0  0  0  0  0  0  0  0  0  0
   -0.0236    6.0100   -0.0000 C   0  0  0  0  0  0  0  0  0  0  0  0
   -3.8889    3.8064   -0.0000 C   0  0  0  0  0  0  0  0  0  0  0  0
   -1.8384    5.8215   -0.0000 C   0  0  0  0  0  0  0  0  0  0  0  0
   -3.3232    5.8333   -0.0000 C   0  0  0  0  0  0  0  0  0  0  0  0
   -5.1851    4.5724   -0.0000 C   0  0  0  0  0  0  0  0  0  0  0  0
   -5.2087    3.0993   -0.0000 O   0  0  0  0  0  0  0  0  0  0  0  0
   -5.1851    6.0690   -0.0000 C   0  0  0  0  0  0  0  0  0  0  0  0
   -6.4932    3.8535   -0.0000 C   0  0  0  0  0  0  0  0  0  0  0  0
   -3.9006    6.8114   -0.0000 F   0  0  0  0  0  0  0  0  0  0  0  0
   -6.4814    6.8350   -0.0000 F   0  0  0  0  0  0  0  0  0  0  0  0
   -5.2087    7.5774   -0.0000 F   0  0  0  0  0  0  0  0  0  0  0  0
   -7.7895    4.6195   -0.0000 C   0  0  0  0  0  0  0  0  0  0  0  0
   -9.1801    4.0303   -0.0000 N   0  0  0  0  0  0  0  0  0  0  0  0
   -7.9427    6.1279   -0.0000 C   0  0  0  0  0  0  0  0  0  0  0  0
  -10.1817    5.1616   -0.0000 C   0  0  0  0  0  0  0  0  0  0  0  0
   -9.4157    6.4696   -0.0000 C   0  0  0  0  0  0  0  0  0  0  0  0
  -11.6784    5.1851   -0.0000 C   0  0  0  0  0  0  0  0  0  0  0  0
  -10.1699    7.7777   -0.0000 C   0  0  0  0  0  0  0  0  0  0  0  0
  -12.4208    6.4932   -0.0000 N   0  0  0  0  0  0  0  0  0  0  0  0
  -11.6666    7.7895   -0.0000 C   0  0  0  0  0  0  0  0  0  0  0  0
  -12.4208    9.0976   -0.0000 O   0  0  0  0  0  0  0  0  0  0  0  0
  -11.6784   10.3938   -0.0000 C   0  0  0  0  0  0  0  0  0  0  0  0
  -12.4326   11.7019   -0.0000 C   0  0  0  0  0  0  0  0  0  0  0  0
  -10.2053   10.3938   -0.0000 C   0  0  0  0  0  0  0  0  0  0  0  0
  1  2  1  0  0  0  0
  2  3  2  0  0  0  0
  2  4  1  0  0  0  0
  3  5  1  0  0  0  0
  4  6  2  0  0  0  0
  5  7  2  0  0  0  0
  5  8  1  0  0  0  0
  7  9  1  0  0  0  0
  8 10  1  0  0  0  0
  8 11  1  0  0  0  0
  8 12  1  0  0  0  0
 10 13  1  0  0  0  0
 13 14  1  0  0  0  0
 13 15  1  0  0  0  0
 13 16  1  0  0  0  0
 15 17  1  0  0  0  0
 15 18  1  0  0  0  0
 15 19  1  0  0  0  0
 16 20  1  0  0  0  0
 20 21  1  0  0  0  0
 20 22  2  0  0  0  0
 21 23  1  0  0  0  0
 22 24  1  0  0  0  0
 23 25  1  0  0  0  0
 24 26  1  0  0  0  0
 25 27  2  0  0  0  0
 26 28  2  0  0  0  0
 28 29  1  0  0  0  0
 29 30  1  0  0  0  0
 30 31  1  0  0  0  0
 30 32  1  0  0  0  0
  6  7  1  0  0  0  0
 23 24  2  0  0  0  0
 27 28  1  0  0  0  0
M  END
>  <MolRegNo>
1823091

>  <m>
=

>  <Value>
300

>  <Unit>
nM

>  <Type>
IC50

>  <pValue>
6.52

>  <Ligand Efficiency>
0

>  <Binding Efficiency>
0

>  <Surface Efficiency>
0

>  <Assay Index>
891826

>  <Assay Category>


>  <Assay Organism>
Homo sapiens

>  <Target ID>
17045

>  <Target Name>
Cytochrome P450 3A4

>  <Target Organism>
Homo sapiens

>  <Target Description>
Target is a single protein chain

>  <Sequence Accession>
P08684

>  <Reference>
ACS Med Chem Lett 5 (12), 1318-1323 (2014)

>  <Pubmed ID>
25516791

>  <DOI>
10.1021/ml500387y

$$$$
1823092
Actelion Java MolfileCreator 1.0

 34 37  0  0  0  0  0  0  0  0999 V2000
    0.0000   -0.0000   -0.0000 F   0  0  0  0  0  0  0  0  0  0  0  0
    0.0000    1.4970   -0.0000 C   0  0  0  0  0  0  0  0  0  0  0  0
   -1.2966    2.2632   -0.0000 C   0  0  0  0  0  0  0  0  0  0  0  0
    1.2848    2.2396   -0.0000 C   0  0  0  0  0  0  0  0  0  0  0  0
   -1.2848    3.7602   -0.0000 C   0  0  0  0  0  0  0  0  0  0  0  0
    1.2848    3.7484   -0.0000 C   0  0  0  0  0  0  0  0  0  0  0  0
   -0.0118    4.5146   -0.0000 C   0  0  0  0  0  0  0  0  0  0  0  0
   -2.5814    4.5263   -0.0000 C   0  0  0  0  0  0  0  0  0  0  0  0
   -0.0236    6.0115   -0.0000 C   0  0  0  0  0  0  0  0  0  0  0  0
   -3.8898    3.8073   -0.0000 C   0  0  0  0  0  0  0  0  0  0  0  0
   -1.8388    5.8230   -0.0000 C   0  0  0  0  0  0  0  0  0  0  0  0
   -3.3240    5.8347   -0.0000 C   0  0  0  0  0  0  0  0  0  0  0  0
   -5.1864    4.5735   -0.0000 C   0  0  0  0  0  0  0  0  0  0  0  0
   -5.2100    3.1001   -0.0000 O   0  0  0  0  0  0  0  0  0  0  0  0
   -5.1864    6.0705   -0.0000 C   0  0  0  0  0  0  0  0  0  0  0  0
   -6.4948    3.8545   -0.0000 C   0  0  0  0  0  0  0  0  0  0  0  0
   -3.9016    6.8131   -0.0000 F   0  0  0  0  0  0  0  0  0  0  0  0
   -6.4830    6.8367   -0.0000 F   0  0  0  0  0  0  0  0  0  0  0  0
   -5.2100    7.5793   -0.0000 F   0  0  0  0  0  0  0  0  0  0  0  0
   -7.7914    4.6206   -0.0000 C   0  0  0  0  0  0  0  0  0  0  0  0
   -9.1823    4.0313   -0.0000 N   0  0  0  0  0  0  0  0  0  0  0  0
   -7.9447    6.1294   -0.0000 C   0  0  0  0  0  0  0  0  0  0  0  0
  -10.1843    5.1629   -0.0000 C   0  0  0  0  0  0  0  0  0  0  0  0
   -9.4181    6.4713   -0.0000 C   0  0  0  0  0  0  0  0  0  0  0  0
  -11.6813    5.1864   -0.0000 C   0  0  0  0  0  0  0  0  0  0  0  0
  -10.1725    7.7797   -0.0000 C   0  0  0  0  0  0  0  0  0  0  0  0
  -12.4239    6.4948   -0.0000 N   0  0  0  0  0  0  0  0  0  0  0  0
  -11.6695    7.7914   -0.0000 C   0  0  0  0  0  0  0  0  0  0  0  0
  -12.4121    9.0880   -0.0000 N   0  0  0  0  0  0  0  0  0  0  0  0
  -11.6695   10.3847   -0.0000 C   0  0  0  0  0  0  0  0  0  0  0  0
  -13.9091    9.0998   -0.0000 C   0  0  0  0  0  0  0  0  0  0  0  0
  -12.4121   11.6813   -0.0000 C   0  0  0  0  0  0  0  0  0  0  0  0
  -14.6517   10.4082   -0.0000 C   0  0  0  0  0  0  0  0  0  0  0  0
  -13.9091   11.7048   -0.0000 O   0  0  0  0  0  0  0  0  0  0  0  0
  1  2  1  0  0  0  0
  2  3  2  0  0  0  0
  2  4  1  0  0  0  0
  3  5  1  0  0  0  0
  4  6  2  0  0  0  0
  5  7  2  0  0  0  0
  5  8  1  0  0  0  0
  7  9  1  0  0  0  0
  8 10  1  0  0  0  0
  8 11  1  0  0  0  0
  8 12  1  0  0  0  0
 10 13  1  0  0  0  0
 13 14  1  0  0  0  0
 13 15  1  0  0  0  0
 13 16  1  0  0  0  0
 15 17  1  0  0  0  0
 15 18  1  0  0  0  0
 15 19  1  0  0  0  0
 16 20  1  0  0  0  0
 20 21  1  0  0  0  0
 20 22  2  0  0  0  0
 21 23  1  0  0  0  0
 22 24  1  0  0  0  0
 23 25  1  0  0  0  0
 24 26  1  0  0  0  0
 25 27  2  0  0  0  0
 26 28  2  0  0  0  0
 28 29  1  0  0  0  0
 29 30  1  0  0  0  0
 29 31  1  0  0  0  0
 30 32  1  0  0  0  0
 31 33  1  0  0  0  0
 32 34  1  0  0  0  0
  6  7  1  0  0  0  0
 23 24  2  0  0  0  0
 27 28  1  0  0  0  0
 33 34  1  0  0  0  0
M  END
>  <MolRegNo>
1823092

>  <m>
=

>  <Value>
10

>  <Unit>
nM

>  <Type>
IC50

>  <pValue>
8

>  <Ligand Efficiency>
0

>  <Binding Efficiency>
0

>  <Surface Efficiency>
0

>  <Assay Index>
891826

>  <Assay Category>


>  <Assay Organism>
Homo sapiens

>  <Target ID>
17045

>  <Target Name>
Cytochrome P450 3A4

>  <Target Organism>
Homo sapiens

>  <Target Description>
Target is a single protein chain

>  <Sequence Accession>
P08684

>  <Reference>
ACS Med Chem Lett 5 (12), 1318-1323 (2014)

>  <Pubmed ID>
25516791

>  <DOI>
10.1021/ml500387y

$$$$
1823093
Actelion Java MolfileCreator 1.0

 31 33  0  0  0  0  0  0  0  0999 V2000
    0.0000   -0.0000   -0.0000 F   0  0  0  0  0  0  0  0  0  0  0  0
    0.0000    1.4962   -0.0000 C   0  0  0  0  0  0  0  0  0  0  0  0
   -1.2959    2.2620   -0.0000 C   0  0  0  0  0  0  0  0  0  0  0  0
    1.2841    2.2384   -0.0000 C   0  0  0  0  0  0  0  0  0  0  0  0
   -1.2841    3.7582   -0.0000 C   0  0  0  0  0  0  0  0  0  0  0  0
    1.2841    3.7464   -0.0000 C   0  0  0  0  0  0  0  0  0  0  0  0
   -0.0118    4.5122   -0.0000 C   0  0  0  0  0  0  0  0  0  0  0  0
   -2.5801    4.5239   -0.0000 C   0  0  0  0  0  0  0  0  0  0  0  0
   -0.0236    6.0084   -0.0000 C   0  0  0  0  0  0  0  0  0  0  0  0
   -3.8878    3.8053   -0.0000 C   0  0  0  0  0  0  0  0  0  0  0  0
   -1.8379    5.8199   -0.0000 C   0  0  0  0  0  0  0  0  0  0  0  0
   -3.3223    5.8317   -0.0000 C   0  0  0  0  0  0  0  0  0  0  0  0
   -5.1837    4.5711   -0.0000 C   0  0  0  0  0  0  0  0  0  0  0  0
   -5.2073    3.0984   -0.0000 O   0  0  0  0  0  0  0  0  0  0  0  0
   -5.1837    6.0673   -0.0000 C   0  0  0  0  0  0  0  0  0  0  0  0
   -6.4914    3.8524   -0.0000 C   0  0  0  0  0  0  0  0  0  0  0  0
   -3.8996    6.8095   -0.0000 F   0  0  0  0  0  0  0  0  0  0  0  0
   -6.4796    6.8330   -0.0000 F   0  0  0  0  0  0  0  0  0  0  0  0
   -5.2073    7.5753   -0.0000 F   0  0  0  0  0  0  0  0  0  0  0  0
   -7.7873    4.6182   -0.0000 C   0  0  0  0  0  0  0  0  0  0  0  0
   -9.1775    4.0291   -0.0000 N   0  0  0  0  0  0  0  0  0  0  0  0
   -7.9405    6.1262   -0.0000 C   0  0  0  0  0  0  0  0  0  0  0  0
  -10.1789    5.1601   -0.0000 C   0  0  0  0  0  0  0  0  0  0  0  0
   -9.4131    6.4678   -0.0000 C   0  0  0  0  0  0  0  0  0  0  0  0
  -11.6751    5.1837   -0.0000 C   0  0  0  0  0  0  0  0  0  0  0  0
  -10.1671    7.7755   -0.0000 C   0  0  0  0  0  0  0  0  0  0  0  0
  -12.4173    6.4914   -0.0000 N   0  0  0  0  0  0  0  0  0  0  0  0
  -11.6633    7.7873   -0.0000 C   0  0  0  0  0  0  0  0  0  0  0  0
  -12.4173    9.0950   -0.0000 C   0  0  0  0  0  0  0  0  0  0  0  0
  -13.9135    9.1186   -0.0000 O   0  0  0  0  0  0  0  0  0  0  0  0
  -11.6751   10.3909   -0.0000 N   0  0  0  0  0  0  0  0  0  0  0  0
  1  2  1  0  0  0  0
  2  3  2  0  0  0  0
  2  4  1  0  0  0  0
  3  5  1  0  0  0  0
  4  6  2  0  0  0  0
  5  7  2  0  0  0  0
  5  8  1  0  0  0  0
  7  9  1  0  0  0  0
  8 10  1  0  0  0  0
  8 11  1  0  0  0  0
  8 12  1  0  0  0  0
 10 13  1  0  0  0  0
 13 14  1  0  0  0  0
 13 15  1  0  0  0  0
 13 16  1  0  0  0  0
 15 17  1  0  0  0  0
 15 18  1  0  0  0  0
 15 19  1  0  0  0  0
 16 20  1  0  0  0  0
 20 21  1  0  0  0  0
 20 22  2  0  0  0  0
 21 23  1  0  0  0  0
 22 24  1  0  0  0  0
 23 25  1  0  0  0  0
 24 26  1  0  0  0  0
 25 27  2  0  0  0  0
 26 28  2  0  0  0  0
 28 29  1  0  0  0  0
 29 30  2  0  0  0  0
 29 31  1  0  0  0  0
  6  7  1  0  0  0  0
 23 24  2  0  0  0  0
 27 28  1  0  0  0  0
M  END
>  <MolRegNo>
1823093

>  <m>
=

>  <Value>
2000

>  <Unit>
nM

>  <Type>
IC50

>  <pValue>
5.7

>  <Ligand Efficiency>
0

>  <Binding Efficiency>
0

>  <Surface Efficiency>
0

>  <Assay Index>
891826

>  <Assay Category>


>  <Assay Organism>
Homo sapiens

>  <Target ID>
17045

>  <Target Name>
Cytochrome P450 3A4

>  <Target Organism>
Homo sapiens

>  <Target Description>
Target is a single protein chain

>  <Sequence Accession>
P08684

>  <Reference>
ACS Med Chem Lett 5 (12), 1318-1323 (2014)

>  <Pubmed ID>
25516791

>  <DOI>
10.1021/ml500387y

$$$$
1823094
Actelion Java MolfileCreator 1.0

 33 35  0  0  0  0  0  0  0  0999 V2000
    0.0000   -0.0000   -0.0000 S   0  0  0  0  0  0  0  0  0  0  0  0
   -1.3090    0.7735   -0.0000 O   0  0  0  0  0  0  0  0  0  0  0  0
   -1.3209   -0.7378   -0.0000 O   0  0  0  0  0  0  0  0  0  0  0  0
    0.7378   -1.2971   -0.0000 C   0  0  0  0  0  0  0  0  0  0  0  0
    0.7497    1.3090   -0.0000 C   0  0  0  0  0  0  0  0  0  0  0  0
   -0.0357   -2.5822   -0.0000 N   0  0  0  0  0  0  0  0  0  0  0  0
    2.2253   -1.2852   -0.0000 C   0  0  0  0  0  0  0  0  0  0  0  0
    0.6902   -3.8793   -0.0000 C   0  0  0  0  0  0  0  0  0  0  0  0
    2.9630   -2.5822   -0.0000 C   0  0  0  0  0  0  0  0  0  0  0  0
    2.1777   -3.8793   -0.0000 C   0  0  0  0  0  0  0  0  0  0  0  0
    4.4267   -2.9035   -0.0000 C   0  0  0  0  0  0  0  0  0  0  0  0
    3.1653   -4.9979   -0.0000 N   0  0  0  0  0  0  0  0  0  0  0  0
    4.5576   -4.4029   -0.0000 C   0  0  0  0  0  0  0  0  0  0  0  0
    5.8428   -5.1526   -0.0000 C   0  0  0  0  0  0  0  0  0  0  0  0
    7.1398   -4.4029   -0.0000 C   0  0  0  0  0  0  0  0  0  0  0  0
    7.1160   -5.8904   -0.0000 O   0  0  0  0  0  0  0  0  0  0  0  0
    7.1398   -2.8916   -0.0000 C   0  0  0  0  0  0  0  0  0  0  0  0
    8.4250   -5.1526   -0.0000 C   0  0  0  0  0  0  0  0  0  0  0  0
    8.4369   -2.1420   -0.0000 F   0  0  0  0  0  0  0  0  0  0  0  0
    5.8309   -2.1182   -0.0000 F   0  0  0  0  0  0  0  0  0  0  0  0
    7.1160   -1.3685   -0.0000 F   0  0  0  0  0  0  0  0  0  0  0  0
    9.7221   -4.4029   -0.0000 C   0  0  0  0  0  0  0  0  0  0  0  0
   11.0073   -5.1526   -0.0000 C   0  0  0  0  0  0  0  0  0  0  0  0
   10.4718   -3.0939   -0.0000 C   0  0  0  0  0  0  0  0  0  0  0  0
    8.9724   -3.0820   -0.0000 C   0  0  0  0  0  0  0  0  0  0  0  0
   12.2924   -4.3910   -0.0000 C   0  0  0  0  0  0  0  0  0  0  0  0
   10.9716   -6.6401   -0.0000 C   0  0  0  0  0  0  0  0  0  0  0  0
   12.2805   -2.8797   -0.0000 O   0  0  0  0  0  0  0  0  0  0  0  0
   13.5776   -5.1407   -0.0000 C   0  0  0  0  0  0  0  0  0  0  0  0
   12.2567   -7.3897   -0.0000 C   0  0  0  0  0  0  0  0  0  0  0  0
   13.5776   -2.1182   -0.0000 C   0  0  0  0  0  0  0  0  0  0  0  0
   13.5538   -6.6401   -0.0000 C   0  0  0  0  0  0  0  0  0  0  0  0
   12.2329   -8.8772   -0.0000 F   0  0  0  0  0  0  0  0  0  0  0  0
  1  2  2  0  0  0  0
  1  3  2  0  0  0  0
  1  4  1  0  0  0  0
  1  5  1  0  0  0  0
  4  6  2  0  0  0  0
  4  7  1  0  0  0  0
  6  8  1  0  0  0  0
  7  9  2  0  0  0  0
  8 10  2  0  0  0  0
  9 11  1  0  0  0  0
 10 12  1  0  0  0  0
 11 13  2  0  0  0  0
 13 14  1  0  0  0  0
 14 15  1  0  0  0  0
 15 16  1  0  0  0  0
 15 17  1  0  0  0  0
 15 18  1  0  0  0  0
 17 19  1  0  0  0  0
 17 20  1  0  0  0  0
 17 21  1  0  0  0  0
 18 22  1  0  0  0  0
 22 23  1  0  0  0  0
 22 24  1  0  0  0  0
 22 25  1  0  0  0  0
 23 26  2  0  0  0  0
 23 27  1  0  0  0  0
 26 28  1  0  0  0  0
 26 29  1  0  0  0  0
 27 30  2  0  0  0  0
 28 31  1  0  0  0  0
 29 32  2  0  0  0  0
 30 33  1  0  0  0  0
  9 10  1  0  0  0  0
 12 13  1  0  0  0  0
 30 32  1  0  0  0  0
M  END
>  <MolRegNo>
1823094

>  <m>
=

>  <Value>
2000

>  <Unit>
nM

>  <Type>
IC50

>  <pValue>
5.7

>  <Ligand Efficiency>
0

>  <Binding Efficiency>
0

>  <Surface Efficiency>
0

>  <Assay Index>
891826

>  <Assay Category>


>  <Assay Organism>
Homo sapiens

>  <Target ID>
17045

>  <Target Name>
Cytochrome P450 3A4

>  <Target Organism>
Homo sapiens

>  <Target Description>
Target is a single protein chain

>  <Sequence Accession>
P08684

>  <Reference>
ACS Med Chem Lett 5 (12), 1318-1323 (2014)

>  <Pubmed ID>
25516791

>  <DOI>
10.1021/ml500387y

$$$$
1823095
Actelion Java MolfileCreator 1.0

 32 35  0  0  0  0  0  0  0  0999 V2000
    0.0000   -0.0000   -0.0000 F   0  0  0  0  0  0  0  0  0  0  0  0
   -1.3106   -0.7202   -0.0000 C   0  0  0  0  0  0  0  0  0  0  0  0
   -2.6093    0.0472   -0.0000 F   0  0  0  0  0  0  0  0  0  0  0  0
   -1.3342    0.7911   -0.0000 F   0  0  0  0  0  0  0  0  0  0  0  0
   -1.3342   -2.2079   -0.0000 C   0  0  0  0  0  0  0  0  0  0  0  0
   -1.3578   -3.6838   -0.0000 O   0  0  0  0  0  0  0  0  0  0  0  0
   -2.6448   -2.9281   -0.0000 C   0  0  0  0  0  0  0  0  0  0  0  0
   -0.0590   -2.9517   -0.0000 C   0  0  0  0  0  0  0  0  0  0  0  0
   -3.9435   -2.1607   -0.0000 C   0  0  0  0  0  0  0  0  0  0  0  0
    1.2279   -2.2079   -0.0000 C   0  0  0  0  0  0  0  0  0  0  0  0
   -5.3367   -2.7510   -0.0000 N   0  0  0  0  0  0  0  0  0  0  0  0
   -4.0970   -0.6494   -0.0000 C   0  0  0  0  0  0  0  0  0  0  0  0
    2.5031   -2.9517   -0.0000 C   0  0  0  0  0  0  0  0  0  0  0  0
    1.9718   -0.9091   -0.0000 C   0  0  0  0  0  0  0  0  0  0  0  0
    0.4841   -0.8973   -0.0000 C   0  0  0  0  0  0  0  0  0  0  0  0
   -6.3521   -1.6057   -0.0000 C   0  0  0  0  0  0  0  0  0  0  0  0
   -5.5847   -0.3070   -0.0000 C   0  0  0  0  0  0  0  0  0  0  0  0
    2.4676   -4.4276   -0.0000 C   0  0  0  0  0  0  0  0  0  0  0  0
    3.7782   -2.1961   -0.0000 C   0  0  0  0  0  0  0  0  0  0  0  0
   -7.8516   -1.5821   -0.0000 C   0  0  0  0  0  0  0  0  0  0  0  0
   -6.3403    1.0154   -0.0000 C   0  0  0  0  0  0  0  0  0  0  0  0
    3.7428   -5.1714   -0.0000 C   0  0  0  0  0  0  0  0  0  0  0  0
    5.0534   -2.9399   -0.0000 C   0  0  0  0  0  0  0  0  0  0  0  0
   -8.6073   -0.2716   -0.0000 N   0  0  0  0  0  0  0  0  0  0  0  0
   -7.8398    1.0272   -0.0000 C   0  0  0  0  0  0  0  0  0  0  0  0
    5.0298   -4.4276   -0.0000 C   0  0  0  0  0  0  0  0  0  0  0  0
   -8.5955    2.3378   -0.0000 N   0  0  0  0  0  0  0  0  0  0  0  0
   -7.8516    3.6365   -0.0000 C   0  0  0  0  0  0  0  0  0  0  0  0
  -10.0949    2.3496   -0.0000 C   0  0  0  0  0  0  0  0  0  0  0  0
   -8.5955    4.9471   -0.0000 C   0  0  0  0  0  0  0  0  0  0  0  0
  -10.8506    3.6720   -0.0000 C   0  0  0  0  0  0  0  0  0  0  0  0
  -10.1067    4.9707   -0.0000 O   0  0  0  0  0  0  0  0  0  0  0  0
  1  2  1  0  0  0  0
  2  3  1  0  0  0  0
  2  4  1  0  0  0  0
  2  5  1  0  0  0  0
  5  6  1  0  0  0  0
  5  7  1  0  0  0  0
  5  8  1  0  0  0  0
  7  9  1  0  0  0  0
  8 10  1  0  0  0  0
  9 11  1  0  0  0  0
  9 12  2  0  0  0  0
 10 13  1  0  0  0  0
 10 14  1  0  0  0  0
 10 15  1  0  0  0  0
 11 16  1  0  0  0  0
 12 17  1  0  0  0  0
 13 18  2  0  0  0  0
 13 19  1  0  0  0  0
 16 20  1  0  0  0  0
 17 21  1  0  0  0  0
 18 22  1  0  0  0  0
 19 23  2  0  0  0  0
 20 24  2  0  0  0  0
 21 25  2  0  0  0  0
 22 26  2  0  0  0  0
 25 27  1  0  0  0  0
 27 28  1  0  0  0  0
 27 29  1  0  0  0  0
 28 30  1  0  0  0  0
 29 31  1  0  0  0  0
 30 32  1  0  0  0  0
 16 17  2  0  0  0  0
 23 26  1  0  0  0  0
 24 25  1  0  0  0  0
 31 32  1  0  0  0  0
M  END
>  <MolRegNo>
1823095

>  <m>
=

>  <Value>
100

>  <Unit>
nM

>  <Type>
IC50

>  <pValue>
7

>  <Ligand Efficiency>
0

>  <Binding Efficiency>
0

>  <Surface Efficiency>
0

>  <Assay Index>
891826

>  <Assay Category>


>  <Assay Organism>
Homo sapiens

>  <Target ID>
17045

>  <Target Name>
Cytochrome P450 3A4

>  <Target Organism>
Homo sapiens

>  <Target Description>
Target is a single protein chain

>  <Sequence Accession>
P08684

>  <Reference>
ACS Med Chem Lett 5 (12), 1318-1323 (2014)

>  <Pubmed ID>
25516791

>  <DOI>
10.1021/ml500387y

$$$$
1823096
Actelion Java MolfileCreator 1.0

 33 36  0  0  0  0  0  0  0  0999 V2000
    0.0000   -0.0000   -0.0000 F   0  0  0  0  0  0  0  0  0  0  0  0
   -1.3090   -0.7311   -0.0000 C   0  0  0  0  0  0  0  0  0  0  0  0
   -2.6062    0.0354   -0.0000 C   0  0  0  0  0  0  0  0  0  0  0  0
   -1.3326   -2.2170   -0.0000 C   0  0  0  0  0  0  0  0  0  0  0  0
   -3.9034   -0.6958   -0.0000 C   0  0  0  0  0  0  0  0  0  0  0  0
   -2.6416   -2.9364   -0.0000 C   0  0  0  0  0  0  0  0  0  0  0  0
   -3.9388   -2.1699   -0.0000 C   0  0  0  0  0  0  0  0  0  0  0  0
   -5.2006    0.0708   -0.0000 C   0  0  0  0  0  0  0  0  0  0  0  0
   -6.5096   -0.6486   -0.0000 C   0  0  0  0  0  0  0  0  0  0  0  0
   -4.4576    1.3680   -0.0000 C   0  0  0  0  0  0  0  0  0  0  0  0
   -5.9435    1.3797   -0.0000 C   0  0  0  0  0  0  0  0  0  0  0  0
   -7.8068    0.1179   -0.0000 C   0  0  0  0  0  0  0  0  0  0  0  0
   -7.8303   -1.3562   -0.0000 O   0  0  0  0  0  0  0  0  0  0  0  0
   -7.8068    1.6156   -0.0000 C   0  0  0  0  0  0  0  0  0  0  0  0
   -9.1157   -0.6014   -0.0000 C   0  0  0  0  0  0  0  0  0  0  0  0
   -6.5214    2.3585   -0.0000 F   0  0  0  0  0  0  0  0  0  0  0  0
   -9.1039    2.3821   -0.0000 F   0  0  0  0  0  0  0  0  0  0  0  0
   -7.8303    3.1251   -0.0000 F   0  0  0  0  0  0  0  0  0  0  0  0
  -10.4129    0.1651   -0.0000 C   0  0  0  0  0  0  0  0  0  0  0  0
  -11.8045   -0.4245   -0.0000 N   0  0  0  0  0  0  0  0  0  0  0  0
  -10.5662    1.6746   -0.0000 C   0  0  0  0  0  0  0  0  0  0  0  0
  -12.8068    0.7076   -0.0000 C   0  0  0  0  0  0  0  0  0  0  0  0
  -12.0403    2.0165   -0.0000 C   0  0  0  0  0  0  0  0  0  0  0  0
  -14.3045    0.7311   -0.0000 C   0  0  0  0  0  0  0  0  0  0  0  0
  -12.7951    3.3255   -0.0000 C   0  0  0  0  0  0  0  0  0  0  0  0
  -15.0475    2.0401   -0.0000 N   0  0  0  0  0  0  0  0  0  0  0  0
  -14.2927    3.3373   -0.0000 C   0  0  0  0  0  0  0  0  0  0  0  0
  -15.0357    4.6345   -0.0000 N   0  0  0  0  0  0  0  0  0  0  0  0
  -14.2927    5.9317   -0.0000 C   0  0  0  0  0  0  0  0  0  0  0  0
  -16.5333    4.6463   -0.0000 C   0  0  0  0  0  0  0  0  0  0  0  0
  -15.0357    7.2289   -0.0000 C   0  0  0  0  0  0  0  0  0  0  0  0
  -17.2763    5.9553   -0.0000 C   0  0  0  0  0  0  0  0  0  0  0  0
  -16.5333    7.2525   -0.0000 O   0  0  0  0  0  0  0  0  0  0  0  0
  1  2  1  0  0  0  0
  2  3  2  0  0  0  0
  2  4  1  0  0  0  0
  3  5  1  0  0  0  0
  4  6  2  0  0  0  0
  5  7  2  0  0  0  0
  5  8  1  0  0  0  0
  8  9  1  0  0  0  0
  8 10  1  0  0  0  0
  8 11  1  0  0  0  0
  9 12  1  0  0  0  0
 12 13  1  0  0  0  0
 12 14  1  0  0  0  0
 12 15  1  0  0  0  0
 14 16  1  0  0  0  0
 14 17  1  0  0  0  0
 14 18  1  0  0  0  0
 15 19  1  0  0  0  0
 19 20  1  0  0  0  0
 19 21  2  0  0  0  0
 20 22  1  0  0  0  0
 21 23  1  0  0  0  0
 22 24  1  0  0  0  0
 23 25  1  0  0  0  0
 24 26  2  0  0  0  0
 25 27  2  0  0  0  0
 27 28  1  0  0  0  0
 28 29  1  0  0  0  0
 28 30  1  0  0  0  0
 29 31  1  0  0  0  0
 30 32  1  0  0  0  0
 31 33  1  0  0  0  0
  6  7  1  0  0  0  0
 22 23  2  0  0  0  0
 26 27  1  0  0  0  0
 32 33  1  0  0  0  0
M  END
>  <MolRegNo>
1823096

>  <m>
=

>  <Value>
100

>  <Unit>
nM

>  <Type>
IC50

>  <pValue>
7

>  <Ligand Efficiency>
0

>  <Binding Efficiency>
0

>  <Surface Efficiency>
0

>  <Assay Index>
891826

>  <Assay Category>


>  <Assay Organism>
Homo sapiens

>  <Target ID>
17045

>  <Target Name>
Cytochrome P450 3A4

>  <Target Organism>
Homo sapiens

>  <Target Description>
Target is a single protein chain

>  <Sequence Accession>
P08684

>  <Reference>
ACS Med Chem Lett 5 (12), 1318-1323 (2014)

>  <Pubmed ID>
25516791

>  <DOI>
10.1021/ml500387y

$$$$
1823097
Actelion Java MolfileCreator 1.0

 33 36  0  0  0  0  0  0  0  0999 V2000
    0.0000   -0.0000   -0.0000 F   0  0  0  0  0  0  0  0  0  0  0  0
   -1.2959    0.7658   -0.0000 C   0  0  0  0  0  0  0  0  0  0  0  0
   -2.6036    0.0471   -0.0000 C   0  0  0  0  0  0  0  0  0  0  0  0
   -1.2959    2.2737   -0.0000 C   0  0  0  0  0  0  0  0  0  0  0  0
   -3.8995    0.8129   -0.0000 C   0  0  0  0  0  0  0  0  0  0  0  0
   -2.5918    3.0395   -0.0000 C   0  0  0  0  0  0  0  0  0  0  0  0
   -3.8877    2.3091   -0.0000 C   0  0  0  0  0  0  0  0  0  0  0  0
   -5.1836    3.0748   -0.0000 C   0  0  0  0  0  0  0  0  0  0  0  0
   -6.4913    2.3562   -0.0000 C   0  0  0  0  0  0  0  0  0  0  0  0
   -4.4414    4.3707   -0.0000 C   0  0  0  0  0  0  0  0  0  0  0  0
   -5.9258    4.3825   -0.0000 C   0  0  0  0  0  0  0  0  0  0  0  0
   -7.7872    3.1219   -0.0000 C   0  0  0  0  0  0  0  0  0  0  0  0
   -7.8107    1.6493   -0.0000 O   0  0  0  0  0  0  0  0  0  0  0  0
   -7.7872    4.6181   -0.0000 C   0  0  0  0  0  0  0  0  0  0  0  0
   -9.0949    2.4033   -0.0000 C   0  0  0  0  0  0  0  0  0  0  0  0
   -6.5031    5.3603   -0.0000 F   0  0  0  0  0  0  0  0  0  0  0  0
   -9.0831    5.3839   -0.0000 F   0  0  0  0  0  0  0  0  0  0  0  0
   -7.8107    6.1261   -0.0000 F   0  0  0  0  0  0  0  0  0  0  0  0
  -10.3907    3.1691   -0.0000 C   0  0  0  0  0  0  0  0  0  0  0  0
  -11.7809    2.5800   -0.0000 N   0  0  0  0  0  0  0  0  0  0  0  0
  -10.5439    4.6770   -0.0000 C   0  0  0  0  0  0  0  0  0  0  0  0
  -12.7823    3.7110   -0.0000 C   0  0  0  0  0  0  0  0  0  0  0  0
  -12.0165    5.0187   -0.0000 C   0  0  0  0  0  0  0  0  0  0  0  0
  -14.2784    3.7345   -0.0000 C   0  0  0  0  0  0  0  0  0  0  0  0
  -12.7705    6.3263   -0.0000 C   0  0  0  0  0  0  0  0  0  0  0  0
  -15.0206    5.0422   -0.0000 N   0  0  0  0  0  0  0  0  0  0  0  0
  -14.2667    6.3381   -0.0000 C   0  0  0  0  0  0  0  0  0  0  0  0
  -15.0089    7.6340   -0.0000 N   0  0  0  0  0  0  0  0  0  0  0  0
  -14.2667    8.9299   -0.0000 C   0  0  0  0  0  0  0  0  0  0  0  0
  -16.5050    7.6458   -0.0000 C   0  0  0  0  0  0  0  0  0  0  0  0
  -15.0089   10.2258   -0.0000 C   0  0  0  0  0  0  0  0  0  0  0  0
  -17.2472    8.9535   -0.0000 C   0  0  0  0  0  0  0  0  0  0  0  0
  -16.5050   10.2494   -0.0000 O   0  0  0  0  0  0  0  0  0  0  0  0
  1  2  1  0  0  0  0
  2  3  2  0  0  0  0
  2  4  1  0  0  0  0
  3  5  1  0  0  0  0
  4  6  2  0  0  0  0
  5  7  2  0  0  0  0
  7  8  1  0  0  0  0
  8  9  1  0  0  0  0
  8 10  1  0  0  0  0
  8 11  1  0  0  0  0
  9 12  1  0  0  0  0
 12 13  1  0  0  0  0
 12 14  1  0  0  0  0
 12 15  1  0  0  0  0
 14 16  1  0  0  0  0
 14 17  1  0  0  0  0
 14 18  1  0  0  0  0
 15 19  1  0  0  0  0
 19 20  1  0  0  0  0
 19 21  2  0  0  0  0
 20 22  1  0  0  0  0
 21 23  1  0  0  0  0
 22 24  1  0  0  0  0
 23 25  1  0  0  0  0
 24 26  2  0  0  0  0
 25 27  2  0  0  0  0
 27 28  1  0  0  0  0
 28 29  1  0  0  0  0
 28 30  1  0  0  0  0
 29 31  1  0  0  0  0
 30 32  1  0  0  0  0
 31 33  1  0  0  0  0
  6  7  1  0  0  0  0
 22 23  2  0  0  0  0
 26 27  1  0  0  0  0
 32 33  1  0  0  0  0
M  END
>  <MolRegNo>
1823097

>  <m>
=

>  <Value>
100

>  <Unit>
nM

>  <Type>
IC50

>  <pValue>
7

>  <Ligand Efficiency>
0

>  <Binding Efficiency>
0

>  <Surface Efficiency>
0

>  <Assay Index>
891826

>  <Assay Category>


>  <Assay Organism>
Homo sapiens

>  <Target ID>
17045

>  <Target Name>
Cytochrome P450 3A4

>  <Target Organism>
Homo sapiens

>  <Target Description>
Target is a single protein chain

>  <Sequence Accession>
P08684

>  <Reference>
ACS Med Chem Lett 5 (12), 1318-1323 (2014)

>  <Pubmed ID>
25516791

>  <DOI>
10.1021/ml500387y

$$$$
1823098
Actelion Java MolfileCreator 1.0

 35 38  0  0  0  0  0  0  0  0999 V2000
    0.0000   -0.0000   -0.0000 F   0  0  0  0  0  0  0  0  0  0  0  0
    0.0000    1.4973   -0.0000 C   0  0  0  0  0  0  0  0  0  0  0  0
   -1.2968    2.2636   -0.0000 C   0  0  0  0  0  0  0  0  0  0  0  0
    1.2850    2.2400   -0.0000 C   0  0  0  0  0  0  0  0  0  0  0  0
   -1.2850    3.7608   -0.0000 C   0  0  0  0  0  0  0  0  0  0  0  0
    1.2850    3.7490   -0.0000 C   0  0  0  0  0  0  0  0  0  0  0  0
   -0.0118    4.5154   -0.0000 C   0  0  0  0  0  0  0  0  0  0  0  0
   -2.5819    4.5271   -0.0000 C   0  0  0  0  0  0  0  0  0  0  0  0
   -0.0236    6.0126   -0.0000 O   0  0  0  0  0  0  0  0  0  0  0  0
   -3.8905    3.8080   -0.0000 C   0  0  0  0  0  0  0  0  0  0  0  0
   -1.8392    5.8240   -0.0000 C   0  0  0  0  0  0  0  0  0  0  0  0
   -3.3246    5.8358   -0.0000 C   0  0  0  0  0  0  0  0  0  0  0  0
    1.2615    6.7671   -0.0000 C   0  0  0  0  0  0  0  0  0  0  0  0
   -5.1874    4.5743   -0.0000 C   0  0  0  0  0  0  0  0  0  0  0  0
   -5.2109    3.1006   -0.0000 O   0  0  0  0  0  0  0  0  0  0  0  0
   -5.1874    6.0716   -0.0000 C   0  0  0  0  0  0  0  0  0  0  0  0
   -6.4960    3.8551   -0.0000 C   0  0  0  0  0  0  0  0  0  0  0  0
   -3.9023    6.8143   -0.0000 F   0  0  0  0  0  0  0  0  0  0  0  0
   -6.4842    6.8379   -0.0000 F   0  0  0  0  0  0  0  0  0  0  0  0
   -5.2109    7.5806   -0.0000 F   0  0  0  0  0  0  0  0  0  0  0  0
   -7.7928    4.6215   -0.0000 C   0  0  0  0  0  0  0  0  0  0  0  0
   -9.1840    4.0320   -0.0000 N   0  0  0  0  0  0  0  0  0  0  0  0
   -7.9461    6.1305   -0.0000 C   0  0  0  0  0  0  0  0  0  0  0  0
  -10.1861    5.1638   -0.0000 C   0  0  0  0  0  0  0  0  0  0  0  0
   -9.4198    6.4724   -0.0000 C   0  0  0  0  0  0  0  0  0  0  0  0
  -11.6833    5.1874   -0.0000 C   0  0  0  0  0  0  0  0  0  0  0  0
  -10.1743    7.7810   -0.0000 C   0  0  0  0  0  0  0  0  0  0  0  0
  -12.4261    6.4960   -0.0000 N   0  0  0  0  0  0  0  0  0  0  0  0
  -11.6715    7.7928   -0.0000 C   0  0  0  0  0  0  0  0  0  0  0  0
  -12.4143    9.0897   -0.0000 N   0  0  0  0  0  0  0  0  0  0  0  0
  -11.6715   10.3865   -0.0000 C   0  0  0  0  0  0  0  0  0  0  0  0
  -13.9115    9.1014   -0.0000 C   0  0  0  0  0  0  0  0  0  0  0  0
  -12.4143   11.6833   -0.0000 C   0  0  0  0  0  0  0  0  0  0  0  0
  -14.6543   10.4101   -0.0000 C   0  0  0  0  0  0  0  0  0  0  0  0
  -13.9115   11.7069   -0.0000 O   0  0  0  0  0  0  0  0  0  0  0  0
  1  2  1  0  0  0  0
  2  3  2  0  0  0  0
  2  4  1  0  0  0  0
  3  5  1  0  0  0  0
  4  6  2  0  0  0  0
  5  7  2  0  0  0  0
  5  8  1  0  0  0  0
  7  9  1  0  0  0  0
  8 10  1  0  0  0  0
  8 11  1  0  0  0  0
  8 12  1  0  0  0  0
  9 13  1  0  0  0  0
 10 14  1  0  0  0  0
 14 15  1  0  0  0  0
 14 16  1  0  0  0  0
 14 17  1  0  0  0  0
 16 18  1  0  0  0  0
 16 19  1  0  0  0  0
 16 20  1  0  0  0  0
 17 21  1  0  0  0  0
 21 22  1  0  0  0  0
 21 23  2  0  0  0  0
 22 24  1  0  0  0  0
 23 25  1  0  0  0  0
 24 26  1  0  0  0  0
 25 27  1  0  0  0  0
 26 28  2  0  0  0  0
 27 29  2  0  0  0  0
 29 30  1  0  0  0  0
 30 31  1  0  0  0  0
 30 32  1  0  0  0  0
 31 33  1  0  0  0  0
 32 34  1  0  0  0  0
 33 35  1  0  0  0  0
  6  7  1  0  0  0  0
 24 25  2  0  0  0  0
 28 29  1  0  0  0  0
 34 35  1  0  0  0  0
M  END
>  <MolRegNo>
1823098

>  <m>
=

>  <Value>
200

>  <Unit>
nM

>  <Type>
IC50

>  <pValue>
6.7

>  <Ligand Efficiency>
0

>  <Binding Efficiency>
0

>  <Surface Efficiency>
0

>  <Assay Index>
891826

>  <Assay Category>


>  <Assay Organism>
Homo sapiens

>  <Target ID>
17045

>  <Target Name>
Cytochrome P450 3A4

>  <Target Organism>
Homo sapiens

>  <Target Description>
Target is a single protein chain

>  <Sequence Accession>
P08684

>  <Reference>
ACS Med Chem Lett 5 (12), 1318-1323 (2014)

>  <Pubmed ID>
25516791

>  <DOI>
10.1021/ml500387y

$$$$
1823099
Actelion Java MolfileCreator 1.0

 33 36  0  0  0  0  0  0  0  0999 V2000
    0.0000   -0.0000   -0.0000 F   0  0  0  0  0  0  0  0  0  0  0  0
   -1.3133   -0.7217   -0.0000 C   0  0  0  0  0  0  0  0  0  0  0  0
   -2.6148    0.0473   -0.0000 F   0  0  0  0  0  0  0  0  0  0  0  0
   -1.3370    0.7927   -0.0000 F   0  0  0  0  0  0  0  0  0  0  0  0
   -1.3370   -2.2007   -0.0000 C   0  0  0  0  0  0  0  0  0  0  0  0
   -1.3607   -3.6797   -0.0000 O   0  0  0  0  0  0  0  0  0  0  0  0
   -2.6503   -2.9225   -0.0000 C   0  0  0  0  0  0  0  0  0  0  0  0
   -0.0592   -2.9461   -0.0000 C   0  0  0  0  0  0  0  0  0  0  0  0
   -3.9518   -2.1534   -0.0000 C   0  0  0  0  0  0  0  0  0  0  0  0
    1.2305   -2.2007   -0.0000 C   0  0  0  0  0  0  0  0  0  0  0  0
   -5.3480   -2.7450   -0.0000 N   0  0  0  0  0  0  0  0  0  0  0  0
   -4.1057   -0.6389   -0.0000 C   0  0  0  0  0  0  0  0  0  0  0  0
    2.5084   -2.9461   -0.0000 C   0  0  0  0  0  0  0  0  0  0  0  0
    1.9759   -0.8992   -0.0000 C   0  0  0  0  0  0  0  0  0  0  0  0
    0.4851   -0.8874   -0.0000 C   0  0  0  0  0  0  0  0  0  0  0  0
   -6.3537   -1.6091   -0.0000 C   0  0  0  0  0  0  0  0  0  0  0  0
   -5.5846   -0.2958   -0.0000 C   0  0  0  0  0  0  0  0  0  0  0  0
    3.7862   -2.1889   -0.0000 C   0  0  0  0  0  0  0  0  0  0  0  0
    2.4729   -4.4251   -0.0000 C   0  0  0  0  0  0  0  0  0  0  0  0
   -7.8564   -1.5855   -0.0000 C   0  0  0  0  0  0  0  0  0  0  0  0
   -6.3419    1.0175   -0.0000 C   0  0  0  0  0  0  0  0  0  0  0  0
    5.0640   -2.9343   -0.0000 C   0  0  0  0  0  0  0  0  0  0  0  0
    3.7507   -5.1705   -0.0000 C   0  0  0  0  0  0  0  0  0  0  0  0
   -8.6018   -0.2721   -0.0000 N   0  0  0  0  0  0  0  0  0  0  0  0
   -7.8445    1.0294   -0.0000 C   0  0  0  0  0  0  0  0  0  0  0  0
    6.3537   -2.1771   -0.0000 O   0  0  0  0  0  0  0  0  0  0  0  0
    5.0404   -4.4251   -0.0000 C   0  0  0  0  0  0  0  0  0  0  0  0
   -8.5899    2.3309   -0.0000 N   0  0  0  0  0  0  0  0  0  0  0  0
   -7.8445    3.6324   -0.0000 C   0  0  0  0  0  0  0  0  0  0  0  0
  -10.0926    2.3427   -0.0000 C   0  0  0  0  0  0  0  0  0  0  0  0
   -8.5899    4.9339   -0.0000 C   0  0  0  0  0  0  0  0  0  0  0  0
  -10.8380    3.6560   -0.0000 C   0  0  0  0  0  0  0  0  0  0  0  0
  -10.0926    4.9576   -0.0000 O   0  0  0  0  0  0  0  0  0  0  0  0
  1  2  1  0  0  0  0
  2  3  1  0  0  0  0
  2  4  1  0  0  0  0
  2  5  1  0  0  0  0
  5  6  1  0  0  0  0
  5  7  1  0  0  0  0
  5  8  1  0  0  0  0
  7  9  1  0  0  0  0
  8 10  1  0  0  0  0
  9 11  1  0  0  0  0
  9 12  2  0  0  0  0
 10 13  1  0  0  0  0
 10 14  1  0  0  0  0
 10 15  1  0  0  0  0
 11 16  1  0  0  0  0
 12 17  1  0  0  0  0
 13 18  2  0  0  0  0
 13 19  1  0  0  0  0
 16 20  1  0  0  0  0
 17 21  1  0  0  0  0
 18 22  1  0  0  0  0
 19 23  2  0  0  0  0
 20 24  2  0  0  0  0
 21 25  2  0  0  0  0
 22 26  1  0  0  0  0
 22 27  2  0  0  0  0
 25 28  1  0  0  0  0
 28 29  1  0  0  0  0
 28 30  1  0  0  0  0
 29 31  1  0  0  0  0
 30 32  1  0  0  0  0
 31 33  1  0  0  0  0
 16 17  2  0  0  0  0
 23 27  1  0  0  0  0
 24 25  1  0  0  0  0
 32 33  1  0  0  0  0
M  END
>  <MolRegNo>
1823099

>  <m>
=

>  <Value>
4000

>  <Unit>
nM

>  <Type>
IC50

>  <pValue>
5.4

>  <Ligand Efficiency>
0

>  <Binding Efficiency>
0

>  <Surface Efficiency>
0

>  <Assay Index>
891826

>  <Assay Category>


>  <Assay Organism>
Homo sapiens

>  <Target ID>
17045

>  <Target Name>
Cytochrome P450 3A4

>  <Target Organism>
Homo sapiens

>  <Target Description>
Target is a single protein chain

>  <Sequence Accession>
P08684

>  <Reference>
ACS Med Chem Lett 5 (12), 1318-1323 (2014)

>  <Pubmed ID>
25516791

>  <DOI>
10.1021/ml500387y

$$$$
1823100
Actelion Java MolfileCreator 1.0

 35 38  0  0  0  0  0  0  0  0999 V2000
    0.0000   -0.0000   -0.0000 F   0  0  0  0  0  0  0  0  0  0  0  0
   -1.3130   -0.7216   -0.0000 C   0  0  0  0  0  0  0  0  0  0  0  0
   -2.6142    0.0473   -0.0000 F   0  0  0  0  0  0  0  0  0  0  0  0
   -1.3367    0.7925   -0.0000 F   0  0  0  0  0  0  0  0  0  0  0  0
   -1.3367   -2.2002   -0.0000 C   0  0  0  0  0  0  0  0  0  0  0  0
   -1.3603   -3.6788   -0.0000 O   0  0  0  0  0  0  0  0  0  0  0  0
   -2.6497   -2.9217   -0.0000 C   0  0  0  0  0  0  0  0  0  0  0  0
   -0.0591   -2.9454   -0.0000 C   0  0  0  0  0  0  0  0  0  0  0  0
   -3.9508   -2.1529   -0.0000 C   0  0  0  0  0  0  0  0  0  0  0  0
    1.2302   -2.2002   -0.0000 C   0  0  0  0  0  0  0  0  0  0  0  0
   -5.3466   -2.7443   -0.0000 N   0  0  0  0  0  0  0  0  0  0  0  0
   -4.1046   -0.6388   -0.0000 C   0  0  0  0  0  0  0  0  0  0  0  0
    2.5077   -2.9454   -0.0000 C   0  0  0  0  0  0  0  0  0  0  0  0
    1.9754   -0.8990   -0.0000 C   0  0  0  0  0  0  0  0  0  0  0  0
    0.4850   -0.8872   -0.0000 C   0  0  0  0  0  0  0  0  0  0  0  0
   -6.3521   -1.6087   -0.0000 C   0  0  0  0  0  0  0  0  0  0  0  0
   -5.5832   -0.2957   -0.0000 C   0  0  0  0  0  0  0  0  0  0  0  0
    3.7852   -2.1883   -0.0000 C   0  0  0  0  0  0  0  0  0  0  0  0
    2.4722   -4.4240   -0.0000 C   0  0  0  0  0  0  0  0  0  0  0  0
   -7.8544   -1.5851   -0.0000 C   0  0  0  0  0  0  0  0  0  0  0  0
   -6.3403    1.0173   -0.0000 C   0  0  0  0  0  0  0  0  0  0  0  0
    3.7734   -0.6861   -0.0000 C   0  0  0  0  0  0  0  0  0  0  0  0
    5.0628   -2.9336   -0.0000 C   0  0  0  0  0  0  0  0  0  0  0  0
    3.7498   -5.1692   -0.0000 C   0  0  0  0  0  0  0  0  0  0  0  0
   -8.5996   -0.2721   -0.0000 N   0  0  0  0  0  0  0  0  0  0  0  0
   -7.8425    1.0291   -0.0000 C   0  0  0  0  0  0  0  0  0  0  0  0
    2.4722    0.0828   -0.0000 O   0  0  0  0  0  0  0  0  0  0  0  0
    5.0628    0.0710   -0.0000 N   0  0  0  0  0  0  0  0  0  0  0  0
    5.0391   -4.4240   -0.0000 C   0  0  0  0  0  0  0  0  0  0  0  0
   -8.5878    2.3303   -0.0000 N   0  0  0  0  0  0  0  0  0  0  0  0
   -7.8425    3.6315   -0.0000 C   0  0  0  0  0  0  0  0  0  0  0  0
  -10.0900    2.3421   -0.0000 C   0  0  0  0  0  0  0  0  0  0  0  0
   -8.5878    4.9326   -0.0000 C   0  0  0  0  0  0  0  0  0  0  0  0
  -10.8352    3.6551   -0.0000 C   0  0  0  0  0  0  0  0  0  0  0  0
  -10.0900    4.9563   -0.0000 O   0  0  0  0  0  0  0  0  0  0  0  0
  1  2  1  0  0  0  0
  2  3  1  0  0  0  0
  2  4  1  0  0  0  0
  2  5  1  0  0  0  0
  5  6  1  0  0  0  0
  5  7  1  0  0  0  0
  5  8  1  0  0  0  0
  7  9  1  0  0  0  0
  8 10  1  0  0  0  0
  9 11  1  0  0  0  0
  9 12  2  0  0  0  0
 10 13  1  0  0  0  0
 10 14  1  0  0  0  0
 10 15  1  0  0  0  0
 11 16  1  0  0  0  0
 12 17  1  0  0  0  0
 13 18  2  0  0  0  0
 13 19  1  0  0  0  0
 16 20  1  0  0  0  0
 17 21  1  0  0  0  0
 18 22  1  0  0  0  0
 18 23  1  0  0  0  0
 19 24  2  0  0  0  0
 20 25  2  0  0  0  0
 21 26  2  0  0  0  0
 22 27  2  0  0  0  0
 22 28  1  0  0  0  0
 23 29  2  0  0  0  0
 26 30  1  0  0  0  0
 30 31  1  0  0  0  0
 30 32  1  0  0  0  0
 31 33  1  0  0  0  0
 32 34  1  0  0  0  0
 33 35  1  0  0  0  0
 16 17  2  0  0  0  0
 24 29  1  0  0  0  0
 25 26  1  0  0  0  0
 34 35  1  0  0  0  0
M  END
>  <MolRegNo>
1823100

>  <m>
=

>  <Value>
3000

>  <Unit>
nM

>  <Type>
IC50

>  <pValue>
5.52

>  <Ligand Efficiency>
0

>  <Binding Efficiency>
0

>  <Surface Efficiency>
0

>  <Assay Index>
891826

>  <Assay Category>


>  <Assay Organism>
Homo sapiens

>  <Target ID>
17045

>  <Target Name>
Cytochrome P450 3A4

>  <Target Organism>
Homo sapiens

>  <Target Description>
Target is a single protein chain

>  <Sequence Accession>
P08684

>  <Reference>
ACS Med Chem Lett 5 (12), 1318-1323 (2014)

>  <Pubmed ID>
25516791

>  <DOI>
10.1021/ml500387y

$$$$
1823101
Actelion Java MolfileCreator 1.0

 36 39  0  0  0  0  0  0  0  0999 V2000
    0.0000   -0.0000   -0.0000 S   0  0  0  0  0  0  0  0  0  0  0  0
    1.4769    0.0118   -0.0000 O   0  0  0  0  0  0  0  0  0  0  0  0
    0.7325    1.3114   -0.0000 O   0  0  0  0  0  0  0  0  0  0  0  0
   -0.0118   -1.4769   -0.0000 C   0  0  0  0  0  0  0  0  0  0  0  0
   -1.2996    0.7680   -0.0000 C   0  0  0  0  0  0  0  0  0  0  0  0
   -1.3114   -2.2094   -0.0000 C   0  0  0  0  0  0  0  0  0  0  0  0
    1.2642   -2.2212   -0.0000 C   0  0  0  0  0  0  0  0  0  0  0  0
   -1.3469   -3.6862   -0.0000 C   0  0  0  0  0  0  0  0  0  0  0  0
   -2.6111   -1.4414   -0.0000 C   0  0  0  0  0  0  0  0  0  0  0  0
    1.2406   -3.7098   -0.0000 C   0  0  0  0  0  0  0  0  0  0  0  0
   -0.0709   -4.4306   -0.0000 C   0  0  0  0  0  0  0  0  0  0  0  0
   -3.9225   -2.1621   -0.0000 C   0  0  0  0  0  0  0  0  0  0  0  0
   -1.8667   -0.1418   -0.0000 C   0  0  0  0  0  0  0  0  0  0  0  0
   -3.3554   -0.1300   -0.0000 C   0  0  0  0  0  0  0  0  0  0  0  0
   -5.2221   -1.3941   -0.0000 C   0  0  0  0  0  0  0  0  0  0  0  0
   -5.2458   -2.8710   -0.0000 O   0  0  0  0  0  0  0  0  0  0  0  0
   -5.2221    0.1063   -0.0000 C   0  0  0  0  0  0  0  0  0  0  0  0
   -6.5336   -2.1148   -0.0000 C   0  0  0  0  0  0  0  0  0  0  0  0
   -3.9343    0.8507   -0.0000 F   0  0  0  0  0  0  0  0  0  0  0  0
   -6.5218    0.8743   -0.0000 F   0  0  0  0  0  0  0  0  0  0  0  0
   -5.2458    1.6186   -0.0000 F   0  0  0  0  0  0  0  0  0  0  0  0
   -7.8332   -1.3469   -0.0000 C   0  0  0  0  0  0  0  0  0  0  0  0
   -9.2274   -1.9376   -0.0000 N   0  0  0  0  0  0  0  0  0  0  0  0
   -7.9868    0.1654   -0.0000 C   0  0  0  0  0  0  0  0  0  0  0  0
  -10.2316   -0.8034   -0.0000 C   0  0  0  0  0  0  0  0  0  0  0  0
   -9.4637    0.5080   -0.0000 C   0  0  0  0  0  0  0  0  0  0  0  0
  -11.7321   -0.7798   -0.0000 C   0  0  0  0  0  0  0  0  0  0  0  0
  -10.2198    1.8195   -0.0000 C   0  0  0  0  0  0  0  0  0  0  0  0
  -12.4764    0.5317   -0.0000 N   0  0  0  0  0  0  0  0  0  0  0  0
  -11.7203    1.8313   -0.0000 C   0  0  0  0  0  0  0  0  0  0  0  0
  -12.4646    3.1309   -0.0000 N   0  0  0  0  0  0  0  0  0  0  0  0
  -11.7203    4.4306   -0.0000 C   0  0  0  0  0  0  0  0  0  0  0  0
  -13.9651    3.1427   -0.0000 C   0  0  0  0  0  0  0  0  0  0  0  0
  -12.4646    5.7302   -0.0000 C   0  0  0  0  0  0  0  0  0  0  0  0
  -14.7094    4.4542   -0.0000 C   0  0  0  0  0  0  0  0  0  0  0  0
  -13.9651    5.7538   -0.0000 O   0  0  0  0  0  0  0  0  0  0  0  0
  1  2  2  0  0  0  0
  1  3  2  0  0  0  0
  1  4  1  0  0  0  0
  1  5  1  0  0  0  0
  4  6  2  0  0  0  0
  4  7  1  0  0  0  0
  6  8  1  0  0  0  0
  6  9  1  0  0  0  0
  7 10  2  0  0  0  0
  8 11  2  0  0  0  0
  9 12  1  0  0  0  0
  9 13  1  0  0  0  0
  9 14  1  0  0  0  0
 12 15  1  0  0  0  0
 15 16  1  0  0  0  0
 15 17  1  0  0  0  0
 15 18  1  0  0  0  0
 17 19  1  0  0  0  0
 17 20  1  0  0  0  0
 17 21  1  0  0  0  0
 18 22  1  0  0  0  0
 22 23  1  0  0  0  0
 22 24  2  0  0  0  0
 23 25  1  0  0  0  0
 24 26  1  0  0  0  0
 25 27  1  0  0  0  0
 26 28  1  0  0  0  0
 27 29  2  0  0  0  0
 28 30  2  0  0  0  0
 30 31  1  0  0  0  0
 31 32  1  0  0  0  0
 31 33  1  0  0  0  0
 32 34  1  0  0  0  0
 33 35  1  0  0  0  0
 34 36  1  0  0  0  0
 10 11  1  0  0  0  0
 25 26  2  0  0  0  0
 29 30  1  0  0  0  0
 35 36  1  0  0  0  0
M  END
>  <MolRegNo>
1823101

>  <m>
=

>  <Value>
10

>  <Unit>
nM

>  <Type>
IC50

>  <pValue>
8

>  <Ligand Efficiency>
0

>  <Binding Efficiency>
0

>  <Surface Efficiency>
0

>  <Assay Index>
891826

>  <Assay Category>


>  <Assay Organism>
Homo sapiens

>  <Target ID>
17045

>  <Target Name>
Cytochrome P450 3A4

>  <Target Organism>
Homo sapiens

>  <Target Description>
Target is a single protein chain

>  <Sequence Accession>
P08684

>  <Reference>
ACS Med Chem Lett 5 (12), 1318-1323 (2014)

>  <Pubmed ID>
25516791

>  <DOI>
10.1021/ml500387y

$$$$
1823102
Actelion Java MolfileCreator 1.0

 36 39  0  0  0  0  0  0  0  0999 V2000
    0.0000   -0.0000   -0.0000 S   0  0  0  0  0  0  0  0  0  0  0  0
    1.4769    0.0118   -0.0000 O   0  0  0  0  0  0  0  0  0  0  0  0
    0.7325    1.3114   -0.0000 O   0  0  0  0  0  0  0  0  0  0  0  0
   -1.2996    0.7680   -0.0000 N   0  0  0  0  0  0  0  0  0  0  0  0
   -0.0118   -1.4769   -0.0000 C   0  0  0  0  0  0  0  0  0  0  0  0
   -1.3114   -2.2094   -0.0000 C   0  0  0  0  0  0  0  0  0  0  0  0
    1.2642   -2.2212   -0.0000 C   0  0  0  0  0  0  0  0  0  0  0  0
   -1.3469   -3.6862   -0.0000 C   0  0  0  0  0  0  0  0  0  0  0  0
   -2.6111   -1.4414   -0.0000 C   0  0  0  0  0  0  0  0  0  0  0  0
    1.2406   -3.7098   -0.0000 C   0  0  0  0  0  0  0  0  0  0  0  0
   -0.0709   -4.4306   -0.0000 C   0  0  0  0  0  0  0  0  0  0  0  0
   -3.9225   -2.1621   -0.0000 C   0  0  0  0  0  0  0  0  0  0  0  0
   -1.8667   -0.1418   -0.0000 C   0  0  0  0  0  0  0  0  0  0  0  0
   -3.3554   -0.1300   -0.0000 C   0  0  0  0  0  0  0  0  0  0  0  0
   -5.2221   -1.3941   -0.0000 C   0  0  0  0  0  0  0  0  0  0  0  0
   -5.2458   -2.8710   -0.0000 O   0  0  0  0  0  0  0  0  0  0  0  0
   -5.2221    0.1063   -0.0000 C   0  0  0  0  0  0  0  0  0  0  0  0
   -6.5336   -2.1148   -0.0000 C   0  0  0  0  0  0  0  0  0  0  0  0
   -3.9343    0.8507   -0.0000 F   0  0  0  0  0  0  0  0  0  0  0  0
   -6.5218    0.8743   -0.0000 F   0  0  0  0  0  0  0  0  0  0  0  0
   -5.2458    1.6186   -0.0000 F   0  0  0  0  0  0  0  0  0  0  0  0
   -7.8332   -1.3469   -0.0000 C   0  0  0  0  0  0  0  0  0  0  0  0
   -9.2274   -1.9376   -0.0000 N   0  0  0  0  0  0  0  0  0  0  0  0
   -7.9868    0.1654   -0.0000 C   0  0  0  0  0  0  0  0  0  0  0  0
  -10.2316   -0.8034   -0.0000 C   0  0  0  0  0  0  0  0  0  0  0  0
   -9.4637    0.5080   -0.0000 C   0  0  0  0  0  0  0  0  0  0  0  0
  -11.7321   -0.7798   -0.0000 C   0  0  0  0  0  0  0  0  0  0  0  0
  -10.2198    1.8195   -0.0000 C   0  0  0  0  0  0  0  0  0  0  0  0
  -12.4764    0.5317   -0.0000 N   0  0  0  0  0  0  0  0  0  0  0  0
  -11.7203    1.8313   -0.0000 C   0  0  0  0  0  0  0  0  0  0  0  0
  -12.4646    3.1309   -0.0000 N   0  0  0  0  0  0  0  0  0  0  0  0
  -11.7203    4.4306   -0.0000 C   0  0  0  0  0  0  0  0  0  0  0  0
  -13.9651    3.1427   -0.0000 C   0  0  0  0  0  0  0  0  0  0  0  0
  -12.4646    5.7302   -0.0000 C   0  0  0  0  0  0  0  0  0  0  0  0
  -14.7094    4.4542   -0.0000 C   0  0  0  0  0  0  0  0  0  0  0  0
  -13.9651    5.7538   -0.0000 O   0  0  0  0  0  0  0  0  0  0  0  0
  1  2  2  0  0  0  0
  1  3  2  0  0  0  0
  1  4  1  0  0  0  0
  1  5  1  0  0  0  0
  5  6  2  0  0  0  0
  5  7  1  0  0  0  0
  6  8  1  0  0  0  0
  6  9  1  0  0  0  0
  7 10  2  0  0  0  0
  8 11  2  0  0  0  0
  9 12  1  0  0  0  0
  9 13  1  0  0  0  0
  9 14  1  0  0  0  0
 12 15  1  0  0  0  0
 15 16  1  0  0  0  0
 15 17  1  0  0  0  0
 15 18  1  0  0  0  0
 17 19  1  0  0  0  0
 17 20  1  0  0  0  0
 17 21  1  0  0  0  0
 18 22  1  0  0  0  0
 22 23  1  0  0  0  0
 22 24  2  0  0  0  0
 23 25  1  0  0  0  0
 24 26  1  0  0  0  0
 25 27  1  0  0  0  0
 26 28  1  0  0  0  0
 27 29  2  0  0  0  0
 28 30  2  0  0  0  0
 30 31  1  0  0  0  0
 31 32  1  0  0  0  0
 31 33  1  0  0  0  0
 32 34  1  0  0  0  0
 33 35  1  0  0  0  0
 34 36  1  0  0  0  0
 10 11  1  0  0  0  0
 25 26  2  0  0  0  0
 29 30  1  0  0  0  0
 35 36  1  0  0  0  0
M  END
>  <MolRegNo>
1823102

>  <m>
=

>  <Value>
500

>  <Unit>
nM

>  <Type>
IC50

>  <pValue>
6.3

>  <Ligand Efficiency>
0

>  <Binding Efficiency>
0

>  <Surface Efficiency>
0

>  <Assay Index>
891826

>  <Assay Category>


>  <Assay Organism>
Homo sapiens

>  <Target ID>
17045

>  <Target Name>
Cytochrome P450 3A4

>  <Target Organism>
Homo sapiens

>  <Target Description>
Target is a single protein chain

>  <Sequence Accession>
P08684

>  <Reference>
ACS Med Chem Lett 5 (12), 1318-1323 (2014)

>  <Pubmed ID>
25516791

>  <DOI>
10.1021/ml500387y

$$$$
1823103
Actelion Java MolfileCreator 1.0

 35 38  0  0  0  0  0  0  0  0999 V2000
    0.0000   -0.0000   -0.0000 F   0  0  0  0  0  0  0  0  0  0  0  0
   -1.3138   -0.7220   -0.0000 C   0  0  0  0  0  0  0  0  0  0  0  0
   -2.6157    0.0473   -0.0000 F   0  0  0  0  0  0  0  0  0  0  0  0
   -1.3374    0.7930   -0.0000 F   0  0  0  0  0  0  0  0  0  0  0  0
   -1.3374   -2.2014   -0.0000 C   0  0  0  0  0  0  0  0  0  0  0  0
   -1.3611   -3.6809   -0.0000 O   0  0  0  0  0  0  0  0  0  0  0  0
   -2.6512   -2.9234   -0.0000 C   0  0  0  0  0  0  0  0  0  0  0  0
   -0.0592   -2.9471   -0.0000 C   0  0  0  0  0  0  0  0  0  0  0  0
   -3.9531   -2.1541   -0.0000 C   0  0  0  0  0  0  0  0  0  0  0  0
    1.2309   -2.2014   -0.0000 C   0  0  0  0  0  0  0  0  0  0  0  0
   -5.3497   -2.7459   -0.0000 N   0  0  0  0  0  0  0  0  0  0  0  0
   -4.1070   -0.6391   -0.0000 C   0  0  0  0  0  0  0  0  0  0  0  0
    2.5091   -2.9471   -0.0000 C   0  0  0  0  0  0  0  0  0  0  0  0
    1.9765   -0.8995   -0.0000 C   0  0  0  0  0  0  0  0  0  0  0  0
    0.4853   -0.8877   -0.0000 C   0  0  0  0  0  0  0  0  0  0  0  0
   -6.3557   -1.6096   -0.0000 C   0  0  0  0  0  0  0  0  0  0  0  0
   -5.5864   -0.2959   -0.0000 C   0  0  0  0  0  0  0  0  0  0  0  0
    3.7874   -2.1896   -0.0000 C   0  0  0  0  0  0  0  0  0  0  0  0
    2.4736   -4.4265   -0.0000 C   0  0  0  0  0  0  0  0  0  0  0  0
   -7.8588   -1.5860   -0.0000 C   0  0  0  0  0  0  0  0  0  0  0  0
   -6.3439    1.0179   -0.0000 C   0  0  0  0  0  0  0  0  0  0  0  0
    5.0656   -2.9352   -0.0000 C   0  0  0  0  0  0  0  0  0  0  0  0
    3.7519   -5.1722   -0.0000 C   0  0  0  0  0  0  0  0  0  0  0  0
   -8.6045   -0.2722   -0.0000 N   0  0  0  0  0  0  0  0  0  0  0  0
   -7.8470    1.0297   -0.0000 C   0  0  0  0  0  0  0  0  0  0  0  0
    6.3557   -2.1778   -0.0000 C   0  0  0  0  0  0  0  0  0  0  0  0
    5.0420   -4.4265   -0.0000 C   0  0  0  0  0  0  0  0  0  0  0  0
   -8.5926    2.3316   -0.0000 N   0  0  0  0  0  0  0  0  0  0  0  0
    6.3557   -0.6746   -0.0000 O   0  0  0  0  0  0  0  0  0  0  0  0
    7.6340   -2.9234   -0.0000 N   0  0  0  0  0  0  0  0  0  0  0  0
   -7.8470    3.6335   -0.0000 C   0  0  0  0  0  0  0  0  0  0  0  0
  -10.0958    2.3434   -0.0000 C   0  0  0  0  0  0  0  0  0  0  0  0
   -8.5926    4.9354   -0.0000 C   0  0  0  0  0  0  0  0  0  0  0  0
  -10.8414    3.6572   -0.0000 C   0  0  0  0  0  0  0  0  0  0  0  0
  -10.0958    4.9591   -0.0000 O   0  0  0  0  0  0  0  0  0  0  0  0
  1  2  1  0  0  0  0
  2  3  1  0  0  0  0
  2  4  1  0  0  0  0
  2  5  1  0  0  0  0
  5  6  1  0  0  0  0
  5  7  1  0  0  0  0
  5  8  1  0  0  0  0
  7  9  1  0  0  0  0
  8 10  1  0  0  0  0
  9 11  1  0  0  0  0
  9 12  2  0  0  0  0
 10 13  1  0  0  0  0
 10 14  1  0  0  0  0
 10 15  1  0  0  0  0
 11 16  1  0  0  0  0
 12 17  1  0  0  0  0
 13 18  2  0  0  0  0
 13 19  1  0  0  0  0
 16 20  1  0  0  0  0
 17 21  1  0  0  0  0
 18 22  1  0  0  0  0
 19 23  2  0  0  0  0
 20 24  2  0  0  0  0
 21 25  2  0  0  0  0
 22 26  1  0  0  0  0
 22 27  2  0  0  0  0
 25 28  1  0  0  0  0
 26 29  2  0  0  0  0
 26 30  1  0  0  0  0
 28 31  1  0  0  0  0
 28 32  1  0  0  0  0
 31 33  1  0  0  0  0
 32 34  1  0  0  0  0
 33 35  1  0  0  0  0
 16 17  2  0  0  0  0
 23 27  1  0  0  0  0
 24 25  1  0  0  0  0
 34 35  1  0  0  0  0
M  END
>  <MolRegNo>
1823103

>  <m>
=

>  <Value>
2000

>  <Unit>
nM

>  <Type>
IC50

>  <pValue>
5.7

>  <Ligand Efficiency>
0

>  <Binding Efficiency>
0

>  <Surface Efficiency>
0

>  <Assay Index>
891826

>  <Assay Category>


>  <Assay Organism>
Homo sapiens

>  <Target ID>
17045

>  <Target Name>
Cytochrome P450 3A4

>  <Target Organism>
Homo sapiens

>  <Target Description>
Target is a single protein chain

>  <Sequence Accession>
P08684

>  <Reference>
ACS Med Chem Lett 5 (12), 1318-1323 (2014)

>  <Pubmed ID>
25516791

>  <DOI>
10.1021/ml500387y

$$$$
1823104
Actelion Java MolfileCreator 1.0

 36 39  0  0  0  0  0  0  0  0999 V2000
    0.0000   -0.0000   -0.0000 S   0  0  0  0  0  0  0  0  0  0  0  0
    0.7432    1.2976   -0.0000 O   0  0  0  0  0  0  0  0  0  0  0  0
   -0.7550    1.3094   -0.0000 O   0  0  0  0  0  0  0  0  0  0  0  0
   -1.3094   -0.7314   -0.0000 C   0  0  0  0  0  0  0  0  0  0  0  0
    1.2740   -0.7432   -0.0000 C   0  0  0  0  0  0  0  0  0  0  0  0
   -2.6071    0.0354   -0.0000 C   0  0  0  0  0  0  0  0  0  0  0  0
   -1.3330   -2.2178   -0.0000 C   0  0  0  0  0  0  0  0  0  0  0  0
   -3.9047   -0.6960   -0.0000 C   0  0  0  0  0  0  0  0  0  0  0  0
   -2.6424   -2.9374   -0.0000 C   0  0  0  0  0  0  0  0  0  0  0  0
   -3.9401   -2.1706   -0.0000 C   0  0  0  0  0  0  0  0  0  0  0  0
   -5.2023    0.0708   -0.0000 C   0  0  0  0  0  0  0  0  0  0  0  0
   -6.5117   -0.6488   -0.0000 C   0  0  0  0  0  0  0  0  0  0  0  0
   -4.4591    1.3684   -0.0000 C   0  0  0  0  0  0  0  0  0  0  0  0
   -5.9455    1.3802   -0.0000 C   0  0  0  0  0  0  0  0  0  0  0  0
   -7.8094    0.1180   -0.0000 C   0  0  0  0  0  0  0  0  0  0  0  0
   -7.8330   -1.3566   -0.0000 O   0  0  0  0  0  0  0  0  0  0  0  0
   -7.8094    1.6161   -0.0000 C   0  0  0  0  0  0  0  0  0  0  0  0
   -9.1188   -0.6016   -0.0000 C   0  0  0  0  0  0  0  0  0  0  0  0
   -6.5235    2.3593   -0.0000 F   0  0  0  0  0  0  0  0  0  0  0  0
   -9.1070    2.3829   -0.0000 F   0  0  0  0  0  0  0  0  0  0  0  0
   -7.8330    3.1261   -0.0000 F   0  0  0  0  0  0  0  0  0  0  0  0
  -10.4164    0.1652   -0.0000 C   0  0  0  0  0  0  0  0  0  0  0  0
  -11.8084   -0.4247   -0.0000 N   0  0  0  0  0  0  0  0  0  0  0  0
  -10.5698    1.6751   -0.0000 C   0  0  0  0  0  0  0  0  0  0  0  0
  -12.8112    0.7078   -0.0000 C   0  0  0  0  0  0  0  0  0  0  0  0
  -12.0444    2.0172   -0.0000 C   0  0  0  0  0  0  0  0  0  0  0  0
  -14.3093    0.7314   -0.0000 C   0  0  0  0  0  0  0  0  0  0  0  0
  -12.7994    3.3267   -0.0000 C   0  0  0  0  0  0  0  0  0  0  0  0
  -15.0525    2.0408   -0.0000 N   0  0  0  0  0  0  0  0  0  0  0  0
  -14.2975    3.3385   -0.0000 C   0  0  0  0  0  0  0  0  0  0  0  0
  -15.0407    4.6361   -0.0000 N   0  0  0  0  0  0  0  0  0  0  0  0
  -14.2975    5.9337   -0.0000 C   0  0  0  0  0  0  0  0  0  0  0  0
  -16.5389    4.6479   -0.0000 C   0  0  0  0  0  0  0  0  0  0  0  0
  -15.0407    7.2313   -0.0000 C   0  0  0  0  0  0  0  0  0  0  0  0
  -17.2821    5.9573   -0.0000 C   0  0  0  0  0  0  0  0  0  0  0  0
  -16.5389    7.2549   -0.0000 O   0  0  0  0  0  0  0  0  0  0  0  0
  1  2  2  0  0  0  0
  1  3  2  0  0  0  0
  1  4  1  0  0  0  0
  1  5  1  0  0  0  0
  4  6  2  0  0  0  0
  4  7  1  0  0  0  0
  6  8  1  0  0  0  0
  7  9  2  0  0  0  0
  8 10  2  0  0  0  0
  8 11  1  0  0  0  0
 11 12  1  0  0  0  0
 11 13  1  0  0  0  0
 11 14  1  0  0  0  0
 12 15  1  0  0  0  0
 15 16  1  0  0  0  0
 15 17  1  0  0  0  0
 15 18  1  0  0  0  0
 17 19  1  0  0  0  0
 17 20  1  0  0  0  0
 17 21  1  0  0  0  0
 18 22  1  0  0  0  0
 22 23  1  0  0  0  0
 22 24  2  0  0  0  0
 23 25  1  0  0  0  0
 24 26  1  0  0  0  0
 25 27  1  0  0  0  0
 26 28  1  0  0  0  0
 27 29  2  0  0  0  0
 28 30  2  0  0  0  0
 30 31  1  0  0  0  0
 31 32  1  0  0  0  0
 31 33  1  0  0  0  0
 32 34  1  0  0  0  0
 33 35  1  0  0  0  0
 34 36  1  0  0  0  0
  9 10  1  0  0  0  0
 25 26  2  0  0  0  0
 29 30  1  0  0  0  0
 35 36  1  0  0  0  0
M  END
>  <MolRegNo>
1823104

>  <m>
=

>  <Value>
700

>  <Unit>
nM

>  <Type>
IC50

>  <pValue>
6.16

>  <Ligand Efficiency>
0

>  <Binding Efficiency>
0

>  <Surface Efficiency>
0

>  <Assay Index>
891826

>  <Assay Category>


>  <Assay Organism>
Homo sapiens

>  <Target ID>
17045

>  <Target Name>
Cytochrome P450 3A4

>  <Target Organism>
Homo sapiens

>  <Target Description>
Target is a single protein chain

>  <Sequence Accession>
P08684

>  <Reference>
ACS Med Chem Lett 5 (12), 1318-1323 (2014)

>  <Pubmed ID>
25516791

>  <DOI>
10.1021/ml500387y

$$$$
1823105
Actelion Java MolfileCreator 1.0

 36 39  0  0  0  0  0  0  0  0999 V2000
    0.0000   -0.0000   -0.0000 S   0  0  0  0  0  0  0  0  0  0  0  0
    0.7432    1.2976   -0.0000 O   0  0  0  0  0  0  0  0  0  0  0  0
   -0.7550    1.3094   -0.0000 O   0  0  0  0  0  0  0  0  0  0  0  0
    1.2740   -0.7432   -0.0000 N   0  0  0  0  0  0  0  0  0  0  0  0
   -1.3094   -0.7314   -0.0000 C   0  0  0  0  0  0  0  0  0  0  0  0
   -2.6071    0.0354   -0.0000 C   0  0  0  0  0  0  0  0  0  0  0  0
   -1.3330   -2.2178   -0.0000 C   0  0  0  0  0  0  0  0  0  0  0  0
   -3.9047   -0.6960   -0.0000 C   0  0  0  0  0  0  0  0  0  0  0  0
   -2.6424   -2.9374   -0.0000 C   0  0  0  0  0  0  0  0  0  0  0  0
   -3.9401   -2.1706   -0.0000 C   0  0  0  0  0  0  0  0  0  0  0  0
   -5.2023    0.0708   -0.0000 C   0  0  0  0  0  0  0  0  0  0  0  0
   -6.5117   -0.6488   -0.0000 C   0  0  0  0  0  0  0  0  0  0  0  0
   -4.4591    1.3684   -0.0000 C   0  0  0  0  0  0  0  0  0  0  0  0
   -5.9455    1.3802   -0.0000 C   0  0  0  0  0  0  0  0  0  0  0  0
   -7.8094    0.1180   -0.0000 C   0  0  0  0  0  0  0  0  0  0  0  0
   -7.8330   -1.3566   -0.0000 O   0  0  0  0  0  0  0  0  0  0  0  0
   -7.8094    1.6161   -0.0000 C   0  0  0  0  0  0  0  0  0  0  0  0
   -9.1188   -0.6016   -0.0000 C   0  0  0  0  0  0  0  0  0  0  0  0
   -6.5235    2.3593   -0.0000 F   0  0  0  0  0  0  0  0  0  0  0  0
   -9.1070    2.3829   -0.0000 F   0  0  0  0  0  0  0  0  0  0  0  0
   -7.8330    3.1261   -0.0000 F   0  0  0  0  0  0  0  0  0  0  0  0
  -10.4164    0.1652   -0.0000 C   0  0  0  0  0  0  0  0  0  0  0  0
  -11.8084   -0.4247   -0.0000 N   0  0  0  0  0  0  0  0  0  0  0  0
  -10.5698    1.6751   -0.0000 C   0  0  0  0  0  0  0  0  0  0  0  0
  -12.8112    0.7078   -0.0000 C   0  0  0  0  0  0  0  0  0  0  0  0
  -12.0444    2.0172   -0.0000 C   0  0  0  0  0  0  0  0  0  0  0  0
  -14.3093    0.7314   -0.0000 C   0  0  0  0  0  0  0  0  0  0  0  0
  -12.7994    3.3267   -0.0000 C   0  0  0  0  0  0  0  0  0  0  0  0
  -15.0525    2.0408   -0.0000 N   0  0  0  0  0  0  0  0  0  0  0  0
  -14.2975    3.3385   -0.0000 C   0  0  0  0  0  0  0  0  0  0  0  0
  -15.0407    4.6361   -0.0000 N   0  0  0  0  0  0  0  0  0  0  0  0
  -14.2975    5.9337   -0.0000 C   0  0  0  0  0  0  0  0  0  0  0  0
  -16.5389    4.6479   -0.0000 C   0  0  0  0  0  0  0  0  0  0  0  0
  -15.0407    7.2313   -0.0000 C   0  0  0  0  0  0  0  0  0  0  0  0
  -17.2821    5.9573   -0.0000 C   0  0  0  0  0  0  0  0  0  0  0  0
  -16.5389    7.2549   -0.0000 O   0  0  0  0  0  0  0  0  0  0  0  0
  1  2  2  0  0  0  0
  1  3  2  0  0  0  0
  1  4  1  0  0  0  0
  1  5  1  0  0  0  0
  5  6  2  0  0  0  0
  5  7  1  0  0  0  0
  6  8  1  0  0  0  0
  7  9  2  0  0  0  0
  8 10  2  0  0  0  0
  8 11  1  0  0  0  0
 11 12  1  0  0  0  0
 11 13  1  0  0  0  0
 11 14  1  0  0  0  0
 12 15  1  0  0  0  0
 15 16  1  0  0  0  0
 15 17  1  0  0  0  0
 15 18  1  0  0  0  0
 17 19  1  0  0  0  0
 17 20  1  0  0  0  0
 17 21  1  0  0  0  0
 18 22  1  0  0  0  0
 22 23  1  0  0  0  0
 22 24  2  0  0  0  0
 23 25  1  0  0  0  0
 24 26  1  0  0  0  0
 25 27  1  0  0  0  0
 26 28  1  0  0  0  0
 27 29  2  0  0  0  0
 28 30  2  0  0  0  0
 30 31  1  0  0  0  0
 31 32  1  0  0  0  0
 31 33  1  0  0  0  0
 32 34  1  0  0  0  0
 33 35  1  0  0  0  0
 34 36  1  0  0  0  0
  9 10  1  0  0  0  0
 25 26  2  0  0  0  0
 29 30  1  0  0  0  0
 35 36  1  0  0  0  0
M  END
>  <MolRegNo>
1823105

>  <m>
=

>  <Value>
2000

>  <Unit>
nM

>  <Type>
IC50

>  <pValue>
5.7

>  <Ligand Efficiency>
0

>  <Binding Efficiency>
0

>  <Surface Efficiency>
0

>  <Assay Index>
891826

>  <Assay Category>


>  <Assay Organism>
Homo sapiens

>  <Target ID>
17045

>  <Target Name>
Cytochrome P450 3A4

>  <Target Organism>
Homo sapiens

>  <Target Description>
Target is a single protein chain

>  <Sequence Accession>
P08684

>  <Reference>
ACS Med Chem Lett 5 (12), 1318-1323 (2014)

>  <Pubmed ID>
25516791

>  <DOI>
10.1021/ml500387y

$$$$
1823109
Actelion Java MolfileCreator 1.0

 34 36  0  0  0  0  0  0  0  0999 V2000
    0.0000   -0.0000   -0.0000 S   0  0  0  0  0  0  0  0  0  0  0  0
    1.4763    0.0118   -0.0000 O   0  0  0  0  0  0  0  0  0  0  0  0
    0.7441    1.2992   -0.0000 O   0  0  0  0  0  0  0  0  0  0  0  0
   -1.2992    0.7677   -0.0000 N   0  0  0  0  0  0  0  0  0  0  0  0
   -0.0118   -1.4763   -0.0000 C   0  0  0  0  0  0  0  0  0  0  0  0
   -1.3110   -2.2086   -0.0000 C   0  0  0  0  0  0  0  0  0  0  0  0
    1.2637   -2.2204   -0.0000 C   0  0  0  0  0  0  0  0  0  0  0  0
   -1.3464   -3.6849   -0.0000 C   0  0  0  0  0  0  0  0  0  0  0  0
   -2.6102   -1.4409   -0.0000 C   0  0  0  0  0  0  0  0  0  0  0  0
    1.2401   -3.7086   -0.0000 C   0  0  0  0  0  0  0  0  0  0  0  0
   -0.0709   -4.4290   -0.0000 C   0  0  0  0  0  0  0  0  0  0  0  0
   -3.9211   -2.1614   -0.0000 C   0  0  0  0  0  0  0  0  0  0  0  0
   -1.8661   -0.1417   -0.0000 C   0  0  0  0  0  0  0  0  0  0  0  0
   -3.3542   -0.1299   -0.0000 C   0  0  0  0  0  0  0  0  0  0  0  0
   -5.2203   -1.3937   -0.0000 C   0  0  0  0  0  0  0  0  0  0  0  0
   -5.2439   -2.8700   -0.0000 O   0  0  0  0  0  0  0  0  0  0  0  0
   -5.2203    0.1063   -0.0000 C   0  0  0  0  0  0  0  0  0  0  0  0
   -6.5313   -2.1141   -0.0000 C   0  0  0  0  0  0  0  0  0  0  0  0
   -3.9330    0.8504   -0.0000 F   0  0  0  0  0  0  0  0  0  0  0  0
   -6.5195    0.8740   -0.0000 F   0  0  0  0  0  0  0  0  0  0  0  0
   -5.2439    1.6181   -0.0000 F   0  0  0  0  0  0  0  0  0  0  0  0
   -7.8305   -1.3464   -0.0000 C   0  0  0  0  0  0  0  0  0  0  0  0
   -9.2241   -1.9370   -0.0000 N   0  0  0  0  0  0  0  0  0  0  0  0
   -7.9840    0.1653   -0.0000 C   0  0  0  0  0  0  0  0  0  0  0  0
  -10.2280   -0.8031   -0.0000 C   0  0  0  0  0  0  0  0  0  0  0  0
   -9.4604    0.5079   -0.0000 C   0  0  0  0  0  0  0  0  0  0  0  0
  -11.7280   -0.7795   -0.0000 C   0  0  0  0  0  0  0  0  0  0  0  0
  -10.2162    1.8188   -0.0000 C   0  0  0  0  0  0  0  0  0  0  0  0
  -12.4721    0.5315   -0.0000 N   0  0  0  0  0  0  0  0  0  0  0  0
  -11.7162    1.8307   -0.0000 C   0  0  0  0  0  0  0  0  0  0  0  0
  -12.4721    3.1416   -0.0000 S   0  0  0  0  0  0  0  0  0  0  0  0
  -13.7712    3.9093   -0.0000 O   0  0  0  0  0  0  0  0  0  0  0  0
  -13.7831    2.4094   -0.0000 O   0  0  0  0  0  0  0  0  0  0  0  0
  -11.7280    4.4408   -0.0000 C   0  0  0  0  0  0  0  0  0  0  0  0
  1  2  2  0  0  0  0
  1  3  2  0  0  0  0
  1  4  1  0  0  0  0
  1  5  1  0  0  0  0
  5  6  2  0  0  0  0
  5  7  1  0  0  0  0
  6  8  1  0  0  0  0
  6  9  1  0  0  0  0
  7 10  2  0  0  0  0
  8 11  2  0  0  0  0
  9 12  1  0  0  0  0
  9 13  1  0  0  0  0
  9 14  1  0  0  0  0
 12 15  1  0  0  0  0
 15 16  1  0  0  0  0
 15 17  1  0  0  0  0
 15 18  1  0  0  0  0
 17 19  1  0  0  0  0
 17 20  1  0  0  0  0
 17 21  1  0  0  0  0
 18 22  1  0  0  0  0
 22 23  1  0  0  0  0
 22 24  2  0  0  0  0
 23 25  1  0  0  0  0
 24 26  1  0  0  0  0
 25 27  1  0  0  0  0
 26 28  1  0  0  0  0
 27 29  2  0  0  0  0
 28 30  2  0  0  0  0
 30 31  1  0  0  0  0
 31 32  2  0  0  0  0
 31 33  2  0  0  0  0
 31 34  1  0  0  0  0
 10 11  1  0  0  0  0
 25 26  2  0  0  0  0
 29 30  1  0  0  0  0
M  END
>  <MolRegNo>
1823109

>  <m>
=

>  <Value>
15000

>  <Unit>
nM

>  <Type>
IC50

>  <pValue>
4.82

>  <Ligand Efficiency>
0

>  <Binding Efficiency>
0

>  <Surface Efficiency>
0

>  <Assay Index>
891826

>  <Assay Category>


>  <Assay Organism>
Homo sapiens

>  <Target ID>
17045

>  <Target Name>
Cytochrome P450 3A4

>  <Target Organism>
Homo sapiens

>  <Target Description>
Target is a single protein chain

>  <Sequence Accession>
P08684

>  <Reference>
ACS Med Chem Lett 5 (12), 1318-1323 (2014)

>  <Pubmed ID>
25516791

>  <DOI>
10.1021/ml500387y

$$$$
1823110
Actelion Java MolfileCreator 1.0

 34 36  0  0  0  0  0  0  0  0999 V2000
    0.0000   -0.0000   -0.0000 S   0  0  0  0  0  0  0  0  0  0  0  0
   -1.3085    0.7732   -0.0000 O   0  0  0  0  0  0  0  0  0  0  0  0
   -1.3204   -0.7375   -0.0000 O   0  0  0  0  0  0  0  0  0  0  0  0
    0.7375   -1.2966   -0.0000 C   0  0  0  0  0  0  0  0  0  0  0  0
    0.7494    1.3085   -0.0000 C   0  0  0  0  0  0  0  0  0  0  0  0
   -0.0357   -2.5813   -0.0000 N   0  0  0  0  0  0  0  0  0  0  0  0
    2.2244   -1.2847   -0.0000 C   0  0  0  0  0  0  0  0  0  0  0  0
    0.6899   -3.8778   -0.0000 C   0  0  0  0  0  0  0  0  0  0  0  0
    2.9619   -2.5813   -0.0000 C   0  0  0  0  0  0  0  0  0  0  0  0
    2.1768   -3.8778   -0.0000 C   0  0  0  0  0  0  0  0  0  0  0  0
    4.4250   -2.9024   -0.0000 C   0  0  0  0  0  0  0  0  0  0  0  0
    3.1641   -4.9960   -0.0000 N   0  0  0  0  0  0  0  0  0  0  0  0
    4.5559   -4.4012   -0.0000 C   0  0  0  0  0  0  0  0  0  0  0  0
    5.8405   -5.1506   -0.0000 C   0  0  0  0  0  0  0  0  0  0  0  0
    7.1371   -4.4012   -0.0000 C   0  0  0  0  0  0  0  0  0  0  0  0
    7.1133   -5.8881   -0.0000 O   0  0  0  0  0  0  0  0  0  0  0  0
    7.1371   -2.8905   -0.0000 C   0  0  0  0  0  0  0  0  0  0  0  0
    8.4218   -5.1506   -0.0000 C   0  0  0  0  0  0  0  0  0  0  0  0
    8.4337   -2.1411   -0.0000 F   0  0  0  0  0  0  0  0  0  0  0  0
    5.8287   -2.1173   -0.0000 F   0  0  0  0  0  0  0  0  0  0  0  0
    7.1133   -1.3679   -0.0000 F   0  0  0  0  0  0  0  0  0  0  0  0
    9.7184   -4.4012   -0.0000 C   0  0  0  0  0  0  0  0  0  0  0  0
   11.0031   -5.1506   -0.0000 C   0  0  0  0  0  0  0  0  0  0  0  0
   10.4678   -3.0928   -0.0000 C   0  0  0  0  0  0  0  0  0  0  0  0
    8.9690   -3.0809   -0.0000 C   0  0  0  0  0  0  0  0  0  0  0  0
   12.2877   -4.3893   -0.0000 C   0  0  0  0  0  0  0  0  0  0  0  0
   10.9674   -6.6375   -0.0000 C   0  0  0  0  0  0  0  0  0  0  0  0
   12.2759   -2.8786   -0.0000 C   0  0  0  0  0  0  0  0  0  0  0  0
   13.5724   -5.1387   -0.0000 C   0  0  0  0  0  0  0  0  0  0  0  0
   12.2521   -7.3869   -0.0000 C   0  0  0  0  0  0  0  0  0  0  0  0
   13.5724   -2.1173   -0.0000 O   0  0  0  0  0  0  0  0  0  0  0  0
   10.9674   -2.1055   -0.0000 N   0  0  0  0  0  0  0  0  0  0  0  0
   13.5486   -6.6375   -0.0000 C   0  0  0  0  0  0  0  0  0  0  0  0
   14.8333   -7.3869   -0.0000 F   0  0  0  0  0  0  0  0  0  0  0  0
  1  2  2  0  0  0  0
  1  3  2  0  0  0  0
  1  4  1  0  0  0  0
  1  5  1  0  0  0  0
  4  6  2  0  0  0  0
  4  7  1  0  0  0  0
  6  8  1  0  0  0  0
  7  9  2  0  0  0  0
  8 10  2  0  0  0  0
  9 11  1  0  0  0  0
 10 12  1  0  0  0  0
 11 13  2  0  0  0  0
 13 14  1  0  0  0  0
 14 15  1  0  0  0  0
 15 16  1  0  0  0  0
 15 17  1  0  0  0  0
 15 18  1  0  0  0  0
 17 19  1  0  0  0  0
 17 20  1  0  0  0  0
 17 21  1  0  0  0  0
 18 22  1  0  0  0  0
 22 23  1  0  0  0  0
 22 24  1  0  0  0  0
 22 25  1  0  0  0  0
 23 26  2  0  0  0  0
 23 27  1  0  0  0  0
 26 28  1  0  0  0  0
 26 29  1  0  0  0  0
 27 30  2  0  0  0  0
 28 31  2  0  0  0  0
 28 32  1  0  0  0  0
 29 33  2  0  0  0  0
 33 34  1  0  0  0  0
  9 10  1  0  0  0  0
 12 13  1  0  0  0  0
 30 33  1  0  0  0  0
M  END
>  <MolRegNo>
1823110

>  <m>
=

>  <Value>
3000

>  <Unit>
nM

>  <Type>
IC50

>  <pValue>
5.52

>  <Ligand Efficiency>
0

>  <Binding Efficiency>
0

>  <Surface Efficiency>
0

>  <Assay Index>
891826

>  <Assay Category>


>  <Assay Organism>
Homo sapiens

>  <Target ID>
17045

>  <Target Name>
Cytochrome P450 3A4

>  <Target Organism>
Homo sapiens

>  <Target Description>
Target is a single protein chain

>  <Sequence Accession>
P08684

>  <Reference>
ACS Med Chem Lett 5 (12), 1318-1323 (2014)

>  <Pubmed ID>
25516791

>  <DOI>
10.1021/ml500387y

$$$$
1823111
Actelion Java MolfileCreator 1.0

 34 36  0  0  0  0  0  0  0  0999 V2000
    0.0000   -0.0000   -0.0000 Cl  0  0  0  0  0  0  0  0  0  0  0  0
   -1.2953    0.7654   -0.0000 C   0  0  0  0  0  0  0  0  0  0  0  0
   -1.2953    2.2726   -0.0000 C   0  0  0  0  0  0  0  0  0  0  0  0
   -2.6023    0.0471   -0.0000 C   0  0  0  0  0  0  0  0  0  0  0  0
   -2.5905    3.0380   -0.0000 C   0  0  0  0  0  0  0  0  0  0  0  0
   -3.8975    0.8125   -0.0000 C   0  0  0  0  0  0  0  0  0  0  0  0
   -3.8858    2.3079   -0.0000 C   0  0  0  0  0  0  0  0  0  0  0  0
   -2.6023    4.5334   -0.0000 C   0  0  0  0  0  0  0  0  0  0  0  0
   -5.1810    3.0733   -0.0000 C   0  0  0  0  0  0  0  0  0  0  0  0
   -1.3188    5.2870   -0.0000 O   0  0  0  0  0  0  0  0  0  0  0  0
   -3.8975    5.2988   -0.0000 N   0  0  0  0  0  0  0  0  0  0  0  0
   -6.4881    2.3550   -0.0000 C   0  0  0  0  0  0  0  0  0  0  0  0
   -4.4392    4.3685   -0.0000 C   0  0  0  0  0  0  0  0  0  0  0  0
   -5.9229    4.3803   -0.0000 C   0  0  0  0  0  0  0  0  0  0  0  0
   -7.7833    3.1204   -0.0000 C   0  0  0  0  0  0  0  0  0  0  0  0
   -7.8069    1.6485   -0.0000 O   0  0  0  0  0  0  0  0  0  0  0  0
   -7.7833    4.6158   -0.0000 C   0  0  0  0  0  0  0  0  0  0  0  0
   -9.0903    2.4021   -0.0000 C   0  0  0  0  0  0  0  0  0  0  0  0
   -6.4998    5.3577   -0.0000 F   0  0  0  0  0  0  0  0  0  0  0  0
   -9.0786    5.3812   -0.0000 F   0  0  0  0  0  0  0  0  0  0  0  0
   -7.8069    6.1230   -0.0000 F   0  0  0  0  0  0  0  0  0  0  0  0
  -10.3856    3.1675   -0.0000 C   0  0  0  0  0  0  0  0  0  0  0  0
  -11.7751    2.5787   -0.0000 N   0  0  0  0  0  0  0  0  0  0  0  0
  -10.5387    4.6747   -0.0000 C   0  0  0  0  0  0  0  0  0  0  0  0
  -12.7759    3.7091   -0.0000 C   0  0  0  0  0  0  0  0  0  0  0  0
  -12.0106    5.0162   -0.0000 C   0  0  0  0  0  0  0  0  0  0  0  0
  -14.2714    3.7327   -0.0000 C   0  0  0  0  0  0  0  0  0  0  0  0
  -12.7642    6.3232   -0.0000 C   0  0  0  0  0  0  0  0  0  0  0  0
  -15.0132    5.0397   -0.0000 N   0  0  0  0  0  0  0  0  0  0  0  0
  -14.2596    6.3350   -0.0000 C   0  0  0  0  0  0  0  0  0  0  0  0
  -15.0132    7.6420   -0.0000 S   0  0  0  0  0  0  0  0  0  0  0  0
  -16.3085    8.4074   -0.0000 O   0  0  0  0  0  0  0  0  0  0  0  0
  -16.3202    6.9120   -0.0000 O   0  0  0  0  0  0  0  0  0  0  0  0
  -14.2714    8.9373   -0.0000 C   0  0  0  0  0  0  0  0  0  0  0  0
  1  2  1  0  0  0  0
  2  3  2  0  0  0  0
  2  4  1  0  0  0  0
  3  5  1  0  0  0  0
  4  6  2  0  0  0  0
  5  7  2  0  0  0  0
  5  8  1  0  0  0  0
  7  9  1  0  0  0  0
  8 10  2  0  0  0  0
  8 11  1  0  0  0  0
  9 12  1  0  0  0  0
  9 13  1  0  0  0  0
  9 14  1  0  0  0  0
 12 15  1  0  0  0  0
 15 16  1  0  0  0  0
 15 17  1  0  0  0  0
 15 18  1  0  0  0  0
 17 19  1  0  0  0  0
 17 20  1  0  0  0  0
 17 21  1  0  0  0  0
 18 22  1  0  0  0  0
 22 23  1  0  0  0  0
 22 24  2  0  0  0  0
 23 25  1  0  0  0  0
 24 26  1  0  0  0  0
 25 27  1  0  0  0  0
 26 28  1  0  0  0  0
 27 29  2  0  0  0  0
 28 30  2  0  0  0  0
 30 31  1  0  0  0  0
 31 32  2  0  0  0  0
 31 33  2  0  0  0  0
 31 34  1  0  0  0  0
  6  7  1  0  0  0  0
 25 26  2  0  0  0  0
 29 30  1  0  0  0  0
M  END
>  <MolRegNo>
1823111

>  <m>
=

>  <Value>
15000

>  <Unit>
nM

>  <Type>
IC50

>  <pValue>
4.82

>  <Ligand Efficiency>
0

>  <Binding Efficiency>
0

>  <Surface Efficiency>
0

>  <Assay Index>
891826

>  <Assay Category>


>  <Assay Organism>
Homo sapiens

>  <Target ID>
17045

>  <Target Name>
Cytochrome P450 3A4

>  <Target Organism>
Homo sapiens

>  <Target Description>
Target is a single protein chain

>  <Sequence Accession>
P08684

>  <Reference>
ACS Med Chem Lett 5 (12), 1318-1323 (2014)

>  <Pubmed ID>
25516791

>  <DOI>
10.1021/ml500387y

$$$$
1823112
Actelion Java MolfileCreator 1.0

 34 36  0  0  0  0  0  0  0  0999 V2000
    0.0000   -0.0000   -0.0000 S   0  0  0  0  0  0  0  0  0  0  0  0
   -1.3085    0.7732   -0.0000 O   0  0  0  0  0  0  0  0  0  0  0  0
   -1.3204   -0.7375   -0.0000 O   0  0  0  0  0  0  0  0  0  0  0  0
    0.7375   -1.2966   -0.0000 C   0  0  0  0  0  0  0  0  0  0  0  0
    0.7494    1.3085   -0.0000 C   0  0  0  0  0  0  0  0  0  0  0  0
   -0.0357   -2.5813   -0.0000 N   0  0  0  0  0  0  0  0  0  0  0  0
    2.2244   -1.2847   -0.0000 C   0  0  0  0  0  0  0  0  0  0  0  0
    0.6899   -3.8778   -0.0000 C   0  0  0  0  0  0  0  0  0  0  0  0
    2.9619   -2.5813   -0.0000 C   0  0  0  0  0  0  0  0  0  0  0  0
    2.1768   -3.8778   -0.0000 C   0  0  0  0  0  0  0  0  0  0  0  0
    4.4250   -2.9024   -0.0000 C   0  0  0  0  0  0  0  0  0  0  0  0
    3.1641   -4.9960   -0.0000 N   0  0  0  0  0  0  0  0  0  0  0  0
    4.5559   -4.4012   -0.0000 C   0  0  0  0  0  0  0  0  0  0  0  0
    5.8405   -5.1506   -0.0000 C   0  0  0  0  0  0  0  0  0  0  0  0
    7.1371   -4.4012   -0.0000 C   0  0  0  0  0  0  0  0  0  0  0  0
    7.1133   -5.8881   -0.0000 O   0  0  0  0  0  0  0  0  0  0  0  0
    7.1371   -2.8905   -0.0000 C   0  0  0  0  0  0  0  0  0  0  0  0
    8.4218   -5.1506   -0.0000 C   0  0  0  0  0  0  0  0  0  0  0  0
    8.4337   -2.1411   -0.0000 F   0  0  0  0  0  0  0  0  0  0  0  0
    5.8287   -2.1173   -0.0000 F   0  0  0  0  0  0  0  0  0  0  0  0
    7.1133   -1.3679   -0.0000 F   0  0  0  0  0  0  0  0  0  0  0  0
    9.7184   -4.4012   -0.0000 C   0  0  0  0  0  0  0  0  0  0  0  0
   11.0031   -5.1506   -0.0000 C   0  0  0  0  0  0  0  0  0  0  0  0
   10.4678   -3.0928   -0.0000 C   0  0  0  0  0  0  0  0  0  0  0  0
    8.9690   -3.0809   -0.0000 C   0  0  0  0  0  0  0  0  0  0  0  0
   12.2877   -4.3893   -0.0000 C   0  0  0  0  0  0  0  0  0  0  0  0
   10.9674   -6.6375   -0.0000 C   0  0  0  0  0  0  0  0  0  0  0  0
   12.2759   -2.8786   -0.0000 C   0  0  0  0  0  0  0  0  0  0  0  0
   13.5724   -5.1387   -0.0000 C   0  0  0  0  0  0  0  0  0  0  0  0
   12.2521   -7.3869   -0.0000 C   0  0  0  0  0  0  0  0  0  0  0  0
   13.5724   -2.1173   -0.0000 O   0  0  0  0  0  0  0  0  0  0  0  0
   10.9674   -2.1055   -0.0000 N   0  0  0  0  0  0  0  0  0  0  0  0
   13.5486   -6.6375   -0.0000 C   0  0  0  0  0  0  0  0  0  0  0  0
   14.8333   -7.3869   -0.0000 C   0  0  0  0  0  0  0  0  0  0  0  0
  1  2  2  0  0  0  0
  1  3  2  0  0  0  0
  1  4  1  0  0  0  0
  1  5  1  0  0  0  0
  4  6  2  0  0  0  0
  4  7  1  0  0  0  0
  6  8  1  0  0  0  0
  7  9  2  0  0  0  0
  8 10  2  0  0  0  0
  9 11  1  0  0  0  0
 10 12  1  0  0  0  0
 11 13  2  0  0  0  0
 13 14  1  0  0  0  0
 14 15  1  0  0  0  0
 15 16  1  0  0  0  0
 15 17  1  0  0  0  0
 15 18  1  0  0  0  0
 17 19  1  0  0  0  0
 17 20  1  0  0  0  0
 17 21  1  0  0  0  0
 18 22  1  0  0  0  0
 22 23  1  0  0  0  0
 22 24  1  0  0  0  0
 22 25  1  0  0  0  0
 23 26  2  0  0  0  0
 23 27  1  0  0  0  0
 26 28  1  0  0  0  0
 26 29  1  0  0  0  0
 27 30  2  0  0  0  0
 28 31  2  0  0  0  0
 28 32  1  0  0  0  0
 29 33  2  0  0  0  0
 33 34  1  0  0  0  0
  9 10  1  0  0  0  0
 12 13  1  0  0  0  0
 30 33  1  0  0  0  0
M  END
>  <MolRegNo>
1823112

>  <m>
=

>  <Value>
6000

>  <Unit>
nM

>  <Type>
IC50

>  <pValue>
5.22

>  <Ligand Efficiency>
0

>  <Binding Efficiency>
0

>  <Surface Efficiency>
0

>  <Assay Index>
891826

>  <Assay Category>


>  <Assay Organism>
Homo sapiens

>  <Target ID>
17045

>  <Target Name>
Cytochrome P450 3A4

>  <Target Organism>
Homo sapiens

>  <Target Description>
Target is a single protein chain

>  <Sequence Accession>
P08684

>  <Reference>
ACS Med Chem Lett 5 (12), 1318-1323 (2014)

>  <Pubmed ID>
25516791

>  <DOI>
10.1021/ml500387y

$$$$
1823113
Actelion Java MolfileCreator 1.0

 34 36  0  0  0  0  0  0  0  0999 V2000
    0.0000   -0.0000   -0.0000 S   0  0  0  0  0  0  0  0  0  0  0  0
   -1.3085    0.7732   -0.0000 O   0  0  0  0  0  0  0  0  0  0  0  0
   -1.3204   -0.7375   -0.0000 O   0  0  0  0  0  0  0  0  0  0  0  0
    0.7375   -1.2966   -0.0000 C   0  0  0  0  0  0  0  0  0  0  0  0
    0.7494    1.3085   -0.0000 C   0  0  0  0  0  0  0  0  0  0  0  0
   -0.0357   -2.5813   -0.0000 N   0  0  0  0  0  0  0  0  0  0  0  0
    2.2244   -1.2847   -0.0000 C   0  0  0  0  0  0  0  0  0  0  0  0
    2.2363    1.3085   -0.0000 C   0  0  0  0  0  0  0  0  0  0  0  0
    0.6899   -3.8779   -0.0000 C   0  0  0  0  0  0  0  0  0  0  0  0
    2.9619   -2.5813   -0.0000 C   0  0  0  0  0  0  0  0  0  0  0  0
    2.1768   -3.8779   -0.0000 C   0  0  0  0  0  0  0  0  0  0  0  0
    4.4250   -2.9025   -0.0000 C   0  0  0  0  0  0  0  0  0  0  0  0
    3.1641   -4.9960   -0.0000 N   0  0  0  0  0  0  0  0  0  0  0  0
    4.5559   -4.4013   -0.0000 C   0  0  0  0  0  0  0  0  0  0  0  0
    5.8406   -5.1507   -0.0000 C   0  0  0  0  0  0  0  0  0  0  0  0
    7.1372   -4.4013   -0.0000 C   0  0  0  0  0  0  0  0  0  0  0  0
    7.1134   -5.8882   -0.0000 O   0  0  0  0  0  0  0  0  0  0  0  0
    7.1372   -2.8906   -0.0000 C   0  0  0  0  0  0  0  0  0  0  0  0
    8.4219   -5.1507   -0.0000 C   0  0  0  0  0  0  0  0  0  0  0  0
    8.4338   -2.1412   -0.0000 F   0  0  0  0  0  0  0  0  0  0  0  0
    5.8287   -2.1174   -0.0000 F   0  0  0  0  0  0  0  0  0  0  0  0
    7.1134   -1.3680   -0.0000 F   0  0  0  0  0  0  0  0  0  0  0  0
    9.7185   -4.4013   -0.0000 C   0  0  0  0  0  0  0  0  0  0  0  0
   11.0031   -5.1507   -0.0000 C   0  0  0  0  0  0  0  0  0  0  0  0
   10.4679   -3.0928   -0.0000 C   0  0  0  0  0  0  0  0  0  0  0  0
    8.9690   -3.0809   -0.0000 C   0  0  0  0  0  0  0  0  0  0  0  0
   12.2878   -4.3894   -0.0000 C   0  0  0  0  0  0  0  0  0  0  0  0
   10.9675   -6.6376   -0.0000 C   0  0  0  0  0  0  0  0  0  0  0  0
   12.2759   -2.8787   -0.0000 C   0  0  0  0  0  0  0  0  0  0  0  0
   13.5725   -5.1388   -0.0000 C   0  0  0  0  0  0  0  0  0  0  0  0
   12.2521   -7.3870   -0.0000 C   0  0  0  0  0  0  0  0  0  0  0  0
   13.5725   -2.1174   -0.0000 O   0  0  0  0  0  0  0  0  0  0  0  0
   10.9675   -2.1055   -0.0000 N   0  0  0  0  0  0  0  0  0  0  0  0
   13.5487   -6.6376   -0.0000 C   0  0  0  0  0  0  0  0  0  0  0  0
  1  2  2  0  0  0  0
  1  3  2  0  0  0  0
  1  4  1  0  0  0  0
  1  5  1  0  0  0  0
  4  6  2  0  0  0  0
  4  7  1  0  0  0  0
  5  8  1  0  0  0  0
  6  9  1  0  0  0  0
  7 10  2  0  0  0  0
  9 11  2  0  0  0  0
 10 12  1  0  0  0  0
 11 13  1  0  0  0  0
 12 14  2  0  0  0  0
 14 15  1  0  0  0  0
 15 16  1  0  0  0  0
 16 17  1  0  0  0  0
 16 18  1  0  0  0  0
 16 19  1  0  0  0  0
 18 20  1  0  0  0  0
 18 21  1  0  0  0  0
 18 22  1  0  0  0  0
 19 23  1  0  0  0  0
 23 24  1  0  0  0  0
 23 25  1  0  0  0  0
 23 26  1  0  0  0  0
 24 27  2  0  0  0  0
 24 28  1  0  0  0  0
 27 29  1  0  0  0  0
 27 30  1  0  0  0  0
 28 31  2  0  0  0  0
 29 32  2  0  0  0  0
 29 33  1  0  0  0  0
 30 34  2  0  0  0  0
 10 11  1  0  0  0  0
 13 14  1  0  0  0  0
 31 34  1  0  0  0  0
M  END
>  <MolRegNo>
1823113

>  <m>
=

>  <Value>
14000

>  <Unit>
nM

>  <Type>
IC50

>  <pValue>
4.85

>  <Ligand Efficiency>
0

>  <Binding Efficiency>
0

>  <Surface Efficiency>
0

>  <Assay Index>
891826

>  <Assay Category>


>  <Assay Organism>
Homo sapiens

>  <Target ID>
17045

>  <Target Name>
Cytochrome P450 3A4

>  <Target Organism>
Homo sapiens

>  <Target Description>
Target is a single protein chain

>  <Sequence Accession>
P08684

>  <Reference>
ACS Med Chem Lett 5 (12), 1318-1323 (2014)

>  <Pubmed ID>
25516791

>  <DOI>
10.1021/ml500387y

$$$$
1823114
Actelion Java MolfileCreator 1.0

 35 37  0  0  0  0  0  0  0  0999 V2000
    0.0000   -0.0000   -0.0000 S   0  0  0  0  0  0  0  0  0  0  0  0
   -1.3088    0.7734   -0.0000 O   0  0  0  0  0  0  0  0  0  0  0  0
   -1.3207   -0.7377   -0.0000 O   0  0  0  0  0  0  0  0  0  0  0  0
    0.7377   -1.2969   -0.0000 C   0  0  0  0  0  0  0  0  0  0  0  0
    0.7496    1.3088   -0.0000 C   0  0  0  0  0  0  0  0  0  0  0  0
   -0.0357   -2.5819   -0.0000 N   0  0  0  0  0  0  0  0  0  0  0  0
    2.2249   -1.2850   -0.0000 C   0  0  0  0  0  0  0  0  0  0  0  0
    2.2368    1.3088   -0.0000 C   0  0  0  0  0  0  0  0  0  0  0  0
    0.6901   -3.8788   -0.0000 C   0  0  0  0  0  0  0  0  0  0  0  0
    2.9626   -2.5819   -0.0000 C   0  0  0  0  0  0  0  0  0  0  0  0
    2.1773   -3.8788   -0.0000 C   0  0  0  0  0  0  0  0  0  0  0  0
    4.4261   -2.9031   -0.0000 C   0  0  0  0  0  0  0  0  0  0  0  0
    3.1649   -4.9972   -0.0000 N   0  0  0  0  0  0  0  0  0  0  0  0
    4.5569   -4.4023   -0.0000 C   0  0  0  0  0  0  0  0  0  0  0  0
    5.8419   -5.1518   -0.0000 C   0  0  0  0  0  0  0  0  0  0  0  0
    7.1388   -4.4023   -0.0000 C   0  0  0  0  0  0  0  0  0  0  0  0
    7.1150   -5.8895   -0.0000 O   0  0  0  0  0  0  0  0  0  0  0  0
    7.1388   -2.8912   -0.0000 C   0  0  0  0  0  0  0  0  0  0  0  0
    8.4238   -5.1518   -0.0000 C   0  0  0  0  0  0  0  0  0  0  0  0
    8.4357   -2.1416   -0.0000 F   0  0  0  0  0  0  0  0  0  0  0  0
    5.8300   -2.1178   -0.0000 F   0  0  0  0  0  0  0  0  0  0  0  0
    7.1150   -1.3683   -0.0000 F   0  0  0  0  0  0  0  0  0  0  0  0
    9.7207   -4.4023   -0.0000 C   0  0  0  0  0  0  0  0  0  0  0  0
   11.0057   -5.1518   -0.0000 C   0  0  0  0  0  0  0  0  0  0  0  0
   10.4703   -3.0935   -0.0000 C   0  0  0  0  0  0  0  0  0  0  0  0
    8.9711   -3.0816   -0.0000 C   0  0  0  0  0  0  0  0  0  0  0  0
   12.2906   -4.3904   -0.0000 C   0  0  0  0  0  0  0  0  0  0  0  0
   10.9700   -6.6391   -0.0000 C   0  0  0  0  0  0  0  0  0  0  0  0
   12.2787   -2.8793   -0.0000 C   0  0  0  0  0  0  0  0  0  0  0  0
   13.5756   -5.1399   -0.0000 C   0  0  0  0  0  0  0  0  0  0  0  0
   12.2550   -7.3887   -0.0000 C   0  0  0  0  0  0  0  0  0  0  0  0
   13.5756   -2.1178   -0.0000 O   0  0  0  0  0  0  0  0  0  0  0  0
   10.9700   -2.1059   -0.0000 N   0  0  0  0  0  0  0  0  0  0  0  0
   13.5518   -6.6391   -0.0000 C   0  0  0  0  0  0  0  0  0  0  0  0
   14.8368   -7.3887   -0.0000 F   0  0  0  0  0  0  0  0  0  0  0  0
  1  2  2  0  0  0  0
  1  3  2  0  0  0  0
  1  4  1  0  0  0  0
  1  5  1  0  0  0  0
  4  6  2  0  0  0  0
  4  7  1  0  0  0  0
  5  8  1  0  0  0  0
  6  9  1  0  0  0  0
  7 10  2  0  0  0  0
  9 11  2  0  0  0  0
 10 12  1  0  0  0  0
 11 13  1  0  0  0  0
 12 14  2  0  0  0  0
 14 15  1  0  0  0  0
 15 16  1  0  0  0  0
 16 17  1  0  0  0  0
 16 18  1  0  0  0  0
 16 19  1  0  0  0  0
 18 20  1  0  0  0  0
 18 21  1  0  0  0  0
 18 22  1  0  0  0  0
 19 23  1  0  0  0  0
 23 24  1  0  0  0  0
 23 25  1  0  0  0  0
 23 26  1  0  0  0  0
 24 27  2  0  0  0  0
 24 28  1  0  0  0  0
 27 29  1  0  0  0  0
 27 30  1  0  0  0  0
 28 31  2  0  0  0  0
 29 32  2  0  0  0  0
 29 33  1  0  0  0  0
 30 34  2  0  0  0  0
 34 35  1  0  0  0  0
 10 11  1  0  0  0  0
 13 14  1  0  0  0  0
 31 34  1  0  0  0  0
M  END
>  <MolRegNo>
1823114

>  <m>
=

>  <Value>
26000

>  <Unit>
nM

>  <Type>
IC50

>  <pValue>
4.58

>  <Ligand Efficiency>
0

>  <Binding Efficiency>
0

>  <Surface Efficiency>
0

>  <Assay Index>
891826

>  <Assay Category>


>  <Assay Organism>
Homo sapiens

>  <Target ID>
17045

>  <Target Name>
Cytochrome P450 3A4

>  <Target Organism>
Homo sapiens

>  <Target Description>
Target is a single protein chain

>  <Sequence Accession>
P08684

>  <Reference>
ACS Med Chem Lett 5 (12), 1318-1323 (2014)

>  <Pubmed ID>
25516791

>  <DOI>
10.1021/ml500387y

$$$$
1823115
Actelion Java MolfileCreator 1.0

 36 38  0  0  0  0  0  0  0  0999 V2000
    0.0000   -0.0000   -0.0000 S   0  0  0  0  0  0  0  0  0  0  0  0
   -1.3199    0.7729   -0.0000 O   0  0  0  0  0  0  0  0  0  0  0  0
   -1.3199   -0.7372   -0.0000 O   0  0  0  0  0  0  0  0  0  0  0  0
    0.7372   -1.2961   -0.0000 C   0  0  0  0  0  0  0  0  0  0  0  0
    0.7491    1.3080   -0.0000 C   0  0  0  0  0  0  0  0  0  0  0  0
   -0.0357   -2.5803   -0.0000 N   0  0  0  0  0  0  0  0  0  0  0  0
    2.2236   -1.2842   -0.0000 C   0  0  0  0  0  0  0  0  0  0  0  0
    2.2355    1.3080   -0.0000 C   0  0  0  0  0  0  0  0  0  0  0  0
   -0.0119    2.6279   -0.0000 C   0  0  0  0  0  0  0  0  0  0  0  0
    0.6897   -3.8764   -0.0000 C   0  0  0  0  0  0  0  0  0  0  0  0
    2.9608   -2.5803   -0.0000 C   0  0  0  0  0  0  0  0  0  0  0  0
    2.1760   -3.8764   -0.0000 C   0  0  0  0  0  0  0  0  0  0  0  0
    4.4234   -2.9013   -0.0000 C   0  0  0  0  0  0  0  0  0  0  0  0
    3.1629   -4.9941   -0.0000 N   0  0  0  0  0  0  0  0  0  0  0  0
    4.5542   -4.3996   -0.0000 C   0  0  0  0  0  0  0  0  0  0  0  0
    5.8384   -5.1487   -0.0000 C   0  0  0  0  0  0  0  0  0  0  0  0
    7.1345   -4.3996   -0.0000 C   0  0  0  0  0  0  0  0  0  0  0  0
    7.1107   -5.8859   -0.0000 O   0  0  0  0  0  0  0  0  0  0  0  0
    7.1345   -2.8895   -0.0000 C   0  0  0  0  0  0  0  0  0  0  0  0
    8.4187   -5.1487   -0.0000 C   0  0  0  0  0  0  0  0  0  0  0  0
    8.4306   -2.1403   -0.0000 F   0  0  0  0  0  0  0  0  0  0  0  0
    5.8265   -2.1166   -0.0000 F   0  0  0  0  0  0  0  0  0  0  0  0
    7.1107   -1.3674   -0.0000 F   0  0  0  0  0  0  0  0  0  0  0  0
    9.7148   -4.3996   -0.0000 C   0  0  0  0  0  0  0  0  0  0  0  0
   10.9990   -5.1487   -0.0000 C   0  0  0  0  0  0  0  0  0  0  0  0
   10.4639   -3.0916   -0.0000 C   0  0  0  0  0  0  0  0  0  0  0  0
    8.9656   -3.0797   -0.0000 C   0  0  0  0  0  0  0  0  0  0  0  0
   12.2832   -4.3877   -0.0000 C   0  0  0  0  0  0  0  0  0  0  0  0
   10.9633   -6.6350   -0.0000 C   0  0  0  0  0  0  0  0  0  0  0  0
   12.2713   -2.8776   -0.0000 C   0  0  0  0  0  0  0  0  0  0  0  0
   13.5674   -5.1368   -0.0000 C   0  0  0  0  0  0  0  0  0  0  0  0
   12.2475   -7.3842   -0.0000 C   0  0  0  0  0  0  0  0  0  0  0  0
   13.5674   -2.1166   -0.0000 O   0  0  0  0  0  0  0  0  0  0  0  0
   10.9633   -2.1047   -0.0000 N   0  0  0  0  0  0  0  0  0  0  0  0
   13.5436   -6.6350   -0.0000 C   0  0  0  0  0  0  0  0  0  0  0  0
   14.8278   -7.3842   -0.0000 F   0  0  0  0  0  0  0  0  0  0  0  0
  1  2  2  0  0  0  0
  1  3  2  0  0  0  0
  1  4  1  0  0  0  0
  1  5  1  0  0  0  0
  4  6  2  0  0  0  0
  4  7  1  0  0  0  0
  5  8  1  0  0  0  0
  5  9  1  0  0  0  0
  6 10  1  0  0  0  0
  7 11  2  0  0  0  0
 10 12  2  0  0  0  0
 11 13  1  0  0  0  0
 12 14  1  0  0  0  0
 13 15  2  0  0  0  0
 15 16  1  0  0  0  0
 16 17  1  0  0  0  0
 17 18  1  0  0  0  0
 17 19  1  0  0  0  0
 17 20  1  0  0  0  0
 19 21  1  0  0  0  0
 19 22  1  0  0  0  0
 19 23  1  0  0  0  0
 20 24  1  0  0  0  0
 24 25  1  0  0  0  0
 24 26  1  0  0  0  0
 24 27  1  0  0  0  0
 25 28  2  0  0  0  0
 25 29  1  0  0  0  0
 28 30  1  0  0  0  0
 28 31  1  0  0  0  0
 29 32  2  0  0  0  0
 30 33  2  0  0  0  0
 30 34  1  0  0  0  0
 31 35  2  0  0  0  0
 35 36  1  0  0  0  0
 11 12  1  0  0  0  0
 14 15  1  0  0  0  0
 32 35  1  0  0  0  0
M  END
>  <MolRegNo>
1823115

>  <m>
=

>  <Value>
4000

>  <Unit>
nM

>  <Type>
IC50

>  <pValue>
5.4

>  <Ligand Efficiency>
0

>  <Binding Efficiency>
0

>  <Surface Efficiency>
0

>  <Assay Index>
891826

>  <Assay Category>


>  <Assay Organism>
Homo sapiens

>  <Target ID>
17045

>  <Target Name>
Cytochrome P450 3A4

>  <Target Organism>
Homo sapiens

>  <Target Description>
Target is a single protein chain

>  <Sequence Accession>
P08684

>  <Reference>
ACS Med Chem Lett 5 (12), 1318-1323 (2014)

>  <Pubmed ID>
25516791

>  <DOI>
10.1021/ml500387y

$$$$
1823116
Actelion Java MolfileCreator 1.0

 35 38  0  0  0  0  0  0  0  0999 V2000
    0.0000   -0.0000   -0.0000 S   0  0  0  0  0  0  0  0  0  0  0  0
   -0.3199    1.4694   -0.0000 O   0  0  0  0  0  0  0  0  0  0  0  0
   -1.4338    0.4740   -0.0000 O   0  0  0  0  0  0  0  0  0  0  0  0
   -0.3199   -1.4338   -0.0000 C   0  0  0  0  0  0  0  0  0  0  0  0
    1.4694    0.1659   -0.0000 C   0  0  0  0  0  0  0  0  0  0  0  0
   -1.6234   -2.1685   -0.0000 C   0  0  0  0  0  0  0  0  0  0  0  0
    0.9480   -2.1685   -0.0000 C   0  0  0  0  0  0  0  0  0  0  0  0
    2.0500   -1.1850   -0.0000 C   0  0  0  0  0  0  0  0  0  0  0  0
   -1.6590   -3.6498   -0.0000 C   0  0  0  0  0  0  0  0  0  0  0  0
   -2.9269   -1.3983   -0.0000 C   0  0  0  0  0  0  0  0  0  0  0  0
    0.9361   -3.6616   -0.0000 C   0  0  0  0  0  0  0  0  0  0  0  0
   -0.3910   -4.3963   -0.0000 C   0  0  0  0  0  0  0  0  0  0  0  0
   -4.2423   -2.1211   -0.0000 C   0  0  0  0  0  0  0  0  0  0  0  0
   -2.1804   -0.0948   -0.0000 C   0  0  0  0  0  0  0  0  0  0  0  0
   -3.6735   -0.0829   -0.0000 C   0  0  0  0  0  0  0  0  0  0  0  0
   -5.5458   -1.3509   -0.0000 C   0  0  0  0  0  0  0  0  0  0  0  0
   -5.5695   -2.8321   -0.0000 O   0  0  0  0  0  0  0  0  0  0  0  0
   -5.5458    0.1540   -0.0000 C   0  0  0  0  0  0  0  0  0  0  0  0
   -6.8611   -2.0737   -0.0000 C   0  0  0  0  0  0  0  0  0  0  0  0
   -4.2541    0.9006   -0.0000 F   0  0  0  0  0  0  0  0  0  0  0  0
   -6.8492    0.9243   -0.0000 F   0  0  0  0  0  0  0  0  0  0  0  0
   -5.5695    1.6590   -0.0000 F   0  0  0  0  0  0  0  0  0  0  0  0
   -8.1646   -1.3035   -0.0000 C   0  0  0  0  0  0  0  0  0  0  0  0
   -9.5510   -1.8960   -0.0000 N   0  0  0  0  0  0  0  0  0  0  0  0
   -8.3186    0.2014   -0.0000 C   0  0  0  0  0  0  0  0  0  0  0  0
  -10.5583   -0.7584   -0.0000 C   0  0  0  0  0  0  0  0  0  0  0  0
   -9.7999    0.5451   -0.0000 C   0  0  0  0  0  0  0  0  0  0  0  0
  -12.0632   -0.7347   -0.0000 C   0  0  0  0  0  0  0  0  0  0  0  0
  -10.5583    1.8604   -0.0000 C   0  0  0  0  0  0  0  0  0  0  0  0
  -12.8097    0.5806   -0.0000 N   0  0  0  0  0  0  0  0  0  0  0  0
  -12.0632    1.8723   -0.0000 C   0  0  0  0  0  0  0  0  0  0  0  0
  -12.8216    3.1758   -0.0000 S   0  0  0  0  0  0  0  0  0  0  0  0
  -14.1251    3.9342   -0.0000 O   0  0  0  0  0  0  0  0  0  0  0  0
  -14.1251    2.4411   -0.0000 O   0  0  0  0  0  0  0  0  0  0  0  0
  -12.0869    4.4793   -0.0000 C   0  0  0  0  0  0  0  0  0  0  0  0
  1  2  2  0  0  0  0
  1  3  2  0  0  0  0
  1  4  1  0  0  0  0
  1  5  1  0  0  0  0
  4  6  2  0  0  0  0
  4  7  1  0  0  0  0
  5  8  1  0  0  0  0
  6  9  1  0  0  0  0
  6 10  1  0  0  0  0
  7 11  2  0  0  0  0
  9 12  2  0  0  0  0
 10 13  1  0  0  0  0
 10 14  1  0  0  0  0
 10 15  1  0  0  0  0
 13 16  1  0  0  0  0
 16 17  1  0  0  0  0
 16 18  1  0  0  0  0
 16 19  1  0  0  0  0
 18 20  1  0  0  0  0
 18 21  1  0  0  0  0
 18 22  1  0  0  0  0
 19 23  1  0  0  0  0
 23 24  1  0  0  0  0
 23 25  2  0  0  0  0
 24 26  1  0  0  0  0
 25 27  1  0  0  0  0
 26 28  1  0  0  0  0
 27 29  1  0  0  0  0
 28 30  2  0  0  0  0
 29 31  2  0  0  0  0
 31 32  1  0  0  0  0
 32 33  2  0  0  0  0
 32 34  2  0  0  0  0
 32 35  1  0  0  0  0
  7  8  1  0  0  0  0
 11 12  1  0  0  0  0
 26 27  2  0  0  0  0
 30 31  1  0  0  0  0
M  END
>  <MolRegNo>
1823116

>  <m>
=

>  <Value>
2000

>  <Unit>
nM

>  <Type>
IC50

>  <pValue>
5.7

>  <Ligand Efficiency>
0

>  <Binding Efficiency>
0

>  <Surface Efficiency>
0

>  <Assay Index>
891826

>  <Assay Category>


>  <Assay Organism>
Homo sapiens

>  <Target ID>
17045

>  <Target Name>
Cytochrome P450 3A4

>  <Target Organism>
Homo sapiens

>  <Target Description>
Target is a single protein chain

>  <Sequence Accession>
P08684

>  <Reference>
ACS Med Chem Lett 5 (12), 1318-1323 (2014)

>  <Pubmed ID>
25516791

>  <DOI>
10.1021/ml500387y

$$$$
1823117
Actelion Java MolfileCreator 1.0

 34 36  0  0  0  0  0  0  0  0999 V2000
    0.0000   -0.0000   -0.0000 S   0  0  0  0  0  0  0  0  0  0  0  0
   -1.3119    0.7633   -0.0000 O   0  0  0  0  0  0  0  0  0  0  0  0
   -1.3238   -0.7394   -0.0000 O   0  0  0  0  0  0  0  0  0  0  0  0
    0.7275   -1.3000   -0.0000 C   0  0  0  0  0  0  0  0  0  0  0  0
    0.7514    1.3000   -0.0000 C   0  0  0  0  0  0  0  0  0  0  0  0
   -0.0358   -2.5761   -0.0000 N   0  0  0  0  0  0  0  0  0  0  0  0
    2.2183   -1.3000   -0.0000 C   0  0  0  0  0  0  0  0  0  0  0  0
    2.2422    1.3119   -0.0000 C   0  0  0  0  0  0  0  0  0  0  0  0
    0.6917   -3.8761   -0.0000 C   0  0  0  0  0  0  0  0  0  0  0  0
    2.9577   -2.5999   -0.0000 C   0  0  0  0  0  0  0  0  0  0  0  0
    2.1825   -3.8880   -0.0000 C   0  0  0  0  0  0  0  0  0  0  0  0
    4.4247   -2.9100   -0.0000 C   0  0  0  0  0  0  0  0  0  0  0  0
    3.1724   -5.0091   -0.0000 N   0  0  0  0  0  0  0  0  0  0  0  0
    4.5559   -4.4128   -0.0000 C   0  0  0  0  0  0  0  0  0  0  0  0
    5.8439   -5.1641   -0.0000 C   0  0  0  0  0  0  0  0  0  0  0  0
    7.1439   -4.4128   -0.0000 C   0  0  0  0  0  0  0  0  0  0  0  0
    7.1200   -5.9035   -0.0000 O   0  0  0  0  0  0  0  0  0  0  0  0
    7.1558   -2.8981   -0.0000 C   0  0  0  0  0  0  0  0  0  0  0  0
    8.4319   -5.1641   -0.0000 C   0  0  0  0  0  0  0  0  0  0  0  0
    8.4558   -2.1467   -0.0000 F   0  0  0  0  0  0  0  0  0  0  0  0
    5.8439   -2.1229   -0.0000 F   0  0  0  0  0  0  0  0  0  0  0  0
    7.1320   -1.3835   -0.0000 F   0  0  0  0  0  0  0  0  0  0  0  0
    9.7319   -4.4128   -0.0000 C   0  0  0  0  0  0  0  0  0  0  0  0
   11.0080   -5.1641   -0.0000 C   0  0  0  0  0  0  0  0  0  0  0  0
   10.4833   -3.1009   -0.0000 C   0  0  0  0  0  0  0  0  0  0  0  0
    8.9805   -3.0889   -0.0000 C   0  0  0  0  0  0  0  0  0  0  0  0
   12.2961   -4.4128   -0.0000 C   0  0  0  0  0  0  0  0  0  0  0  0
   10.9723   -6.6430   -0.0000 C   0  0  0  0  0  0  0  0  0  0  0  0
   12.2842   -2.8981   -0.0000 C   0  0  0  0  0  0  0  0  0  0  0  0
   13.5722   -5.1522   -0.0000 C   0  0  0  0  0  0  0  0  0  0  0  0
   12.2484   -7.3943   -0.0000 C   0  0  0  0  0  0  0  0  0  0  0  0
   13.5841   -2.1348   -0.0000 O   0  0  0  0  0  0  0  0  0  0  0  0
   10.9723   -2.1229   -0.0000 N   0  0  0  0  0  0  0  0  0  0  0  0
   13.5483   -6.6549   -0.0000 C   0  0  0  0  0  0  0  0  0  0  0  0
  1  2  2  0  0  0  0
  1  3  2  0  0  0  0
  1  4  1  0  0  0  0
  1  5  1  0  0  0  0
  4  6  2  0  0  0  0
  4  7  1  0  0  0  0
  5  8  1  0  0  0  0
  6  9  1  0  0  0  0
  7 10  2  0  0  0  0
  9 11  2  0  0  0  0
 10 12  1  0  0  0  0
 11 13  1  0  0  0  0
 12 14  2  0  0  0  0
 14 15  1  0  0  0  0
 15 16  1  0  0  0  0
 16 17  1  1  0  0  0
 16 18  1  0  0  0  0
 16 19  1  0  0  0  0
 18 20  1  0  0  0  0
 18 21  1  0  0  0  0
 18 22  1  0  0  0  0
 19 23  1  0  0  0  0
 23 24  1  0  0  0  0
 23 25  1  0  0  0  0
 23 26  1  0  0  0  0
 24 27  2  0  0  0  0
 24 28  1  0  0  0  0
 27 29  1  0  0  0  0
 27 30  1  0  0  0  0
 28 31  2  0  0  0  0
 29 32  2  0  0  0  0
 29 33  1  0  0  0  0
 30 34  2  0  0  0  0
 10 11  1  0  0  0  0
 13 14  1  0  0  0  0
 31 34  1  0  0  0  0
M  END
>  <MolRegNo>
1823117

>  <m>
=

>  <Value>
34000

>  <Unit>
nM

>  <Type>
IC50

>  <pValue>
4.47

>  <Ligand Efficiency>
0

>  <Binding Efficiency>
0

>  <Surface Efficiency>
0

>  <Assay Index>
891826

>  <Assay Category>


>  <Assay Organism>
Homo sapiens

>  <Target ID>
17045

>  <Target Name>
Cytochrome P450 3A4

>  <Target Organism>
Homo sapiens

>  <Target Description>
Target is a single protein chain

>  <Sequence Accession>
P08684

>  <Reference>
ACS Med Chem Lett 5 (12), 1318-1323 (2014)

>  <Pubmed ID>
25516791

>  <DOI>
10.1021/ml500387y

$$$$
1823118
Actelion Java MolfileCreator 1.0

 35 37  0  0  0  0  0  0  0  0999 V2000
    0.0000   -0.0000   -0.0000 S   0  0  0  0  0  0  0  0  0  0  0  0
   -1.3073    0.7725   -0.0000 O   0  0  0  0  0  0  0  0  0  0  0  0
   -1.3192   -0.7369   -0.0000 O   0  0  0  0  0  0  0  0  0  0  0  0
    0.7369   -1.2955   -0.0000 C   0  0  0  0  0  0  0  0  0  0  0  0
    0.7487    1.3073   -0.0000 C   0  0  0  0  0  0  0  0  0  0  0  0
   -0.0238   -2.5790   -0.0000 N   0  0  0  0  0  0  0  0  0  0  0  0
    2.2225   -1.2955   -0.0000 C   0  0  0  0  0  0  0  0  0  0  0  0
    2.2462    1.3073   -0.0000 C   0  0  0  0  0  0  0  0  0  0  0  0
    0.7012   -3.8745   -0.0000 C   0  0  0  0  0  0  0  0  0  0  0  0
    2.9593   -2.6028   -0.0000 C   0  0  0  0  0  0  0  0  0  0  0  0
    2.1987   -3.8864   -0.0000 C   0  0  0  0  0  0  0  0  0  0  0  0
    4.4331   -2.9237   -0.0000 C   0  0  0  0  0  0  0  0  0  0  0  0
    3.1852   -5.0154   -0.0000 N   0  0  0  0  0  0  0  0  0  0  0  0
    4.5638   -4.4212   -0.0000 C   0  0  0  0  0  0  0  0  0  0  0  0
    5.8593   -5.1818   -0.0000 C   0  0  0  0  0  0  0  0  0  0  0  0
    7.1547   -4.4331   -0.0000 C   0  0  0  0  0  0  0  0  0  0  0  0
    7.1309   -5.9187   -0.0000 O   0  0  0  0  0  0  0  0  0  0  0  0
    7.1547   -2.9118   -0.0000 C   0  0  0  0  0  0  0  0  0  0  0  0
    8.4383   -5.1818   -0.0000 C   0  0  0  0  0  0  0  0  0  0  0  0
    8.4502   -2.1631   -0.0000 F   0  0  0  0  0  0  0  0  0  0  0  0
    5.8474   -2.1393   -0.0000 F   0  0  0  0  0  0  0  0  0  0  0  0
    7.1309   -1.3905   -0.0000 F   0  0  0  0  0  0  0  0  0  0  0  0
    9.7337   -4.4331   -0.0000 C   0  0  0  0  0  0  0  0  0  0  0  0
   11.0173   -5.1937   -0.0000 C   0  0  0  0  0  0  0  0  0  0  0  0
   10.4825   -3.1257   -0.0000 C   0  0  0  0  0  0  0  0  0  0  0  0
    8.9850   -3.1138   -0.0000 C   0  0  0  0  0  0  0  0  0  0  0  0
   12.3009   -4.4331   -0.0000 C   0  0  0  0  0  0  0  0  0  0  0  0
   10.9816   -6.6793   -0.0000 C   0  0  0  0  0  0  0  0  0  0  0  0
   12.3009   -2.9118   -0.0000 C   0  0  0  0  0  0  0  0  0  0  0  0
   13.5844   -5.1818   -0.0000 C   0  0  0  0  0  0  0  0  0  0  0  0
   12.2652   -7.4281   -0.0000 C   0  0  0  0  0  0  0  0  0  0  0  0
   13.5844   -2.1512   -0.0000 O   0  0  0  0  0  0  0  0  0  0  0  0
   10.9935   -2.1393   -0.0000 N   0  0  0  0  0  0  0  0  0  0  0  0
   13.5726   -6.6793   -0.0000 C   0  0  0  0  0  0  0  0  0  0  0  0
   14.8561   -7.4281   -0.0000 F   0  0  0  0  0  0  0  0  0  0  0  0
  1  2  2  0  0  0  0
  1  3  2  0  0  0  0
  1  4  1  0  0  0  0
  1  5  1  0  0  0  0
  4  6  2  0  0  0  0
  4  7  1  0  0  0  0
  5  8  1  0  0  0  0
  6  9  1  0  0  0  0
  7 10  2  0  0  0  0
  9 11  2  0  0  0  0
 10 12  1  0  0  0  0
 11 13  1  0  0  0  0
 12 14  2  0  0  0  0
 14 15  1  0  0  0  0
 15 16  1  0  0  0  0
 16 17  1  1  0  0  0
 16 18  1  0  0  0  0
 16 19  1  0  0  0  0
 18 20  1  0  0  0  0
 18 21  1  0  0  0  0
 18 22  1  0  0  0  0
 19 23  1  0  0  0  0
 23 24  1  0  0  0  0
 23 25  1  0  0  0  0
 23 26  1  0  0  0  0
 24 27  2  0  0  0  0
 24 28  1  0  0  0  0
 27 29  1  0  0  0  0
 27 30  1  0  0  0  0
 28 31  2  0  0  0  0
 29 32  2  0  0  0  0
 29 33  1  0  0  0  0
 30 34  2  0  0  0  0
 34 35  1  0  0  0  0
 10 11  1  0  0  0  0
 13 14  1  0  0  0  0
 31 34  1  0  0  0  0
M  END
>  <MolRegNo>
1823118

>  <m>
=

>  <Value>
8000

>  <Unit>
nM

>  <Type>
IC50

>  <pValue>
5.1

>  <Ligand Efficiency>
0

>  <Binding Efficiency>
0

>  <Surface Efficiency>
0

>  <Assay Index>
891826

>  <Assay Category>


>  <Assay Organism>
Homo sapiens

>  <Target ID>
17045

>  <Target Name>
Cytochrome P450 3A4

>  <Target Organism>
Homo sapiens

>  <Target Description>
Target is a single protein chain

>  <Sequence Accession>
P08684

>  <Reference>
ACS Med Chem Lett 5 (12), 1318-1323 (2014)

>  <Pubmed ID>
25516791

>  <DOI>
10.1021/ml500387y

$$$$
1817204
Actelion Java MolfileCreator 1.0

 32 35  0  0  0  0  0  0  0  0999 V2000
    0.0000   -0.0000   -0.0000 F   0  0  0  0  0  0  0  0  0  0  0  0
    0.7748   -1.2636   -0.0000 C   0  0  0  0  0  0  0  0  0  0  0  0
    0.0596   -2.5629   -0.0000 C   0  0  0  0  0  0  0  0  0  0  0  0
    2.2649   -1.2040   -0.0000 C   0  0  0  0  0  0  0  0  0  0  0  0
   -1.4543   -2.5868   -0.0000 N   0  0  0  0  0  0  0  0  0  0  0  0
    0.8344   -3.8384   -0.0000 C   0  0  0  0  0  0  0  0  0  0  0  0
    3.0517   -2.4795   -0.0000 C   0  0  0  0  0  0  0  0  0  0  0  0
   -2.1815   -3.8980   -0.0000 C   0  0  0  0  0  0  0  0  0  0  0  0
    2.3245   -3.7908   -0.0000 C   0  0  0  0  0  0  0  0  0  0  0  0
   -3.6835   -4.0888   -0.0000 N   0  0  0  0  0  0  0  0  0  0  0  0
   -1.5378   -5.2451   -0.0000 N   0  0  0  0  0  0  0  0  0  0  0  0
    3.0994   -5.0663   -0.0000 C   0  0  0  0  0  0  0  0  0  0  0  0
   -3.9696   -5.5550   -0.0000 C   0  0  0  0  0  0  0  0  0  0  0  0
   -2.6345   -6.2702   -0.0000 N   0  0  0  0  0  0  0  0  0  0  0  0
   -0.0715   -5.5073   -0.0000 C   0  0  0  0  0  0  0  0  0  0  0  0
    4.5894   -5.0186   -0.0000 F   0  0  0  0  0  0  0  0  0  0  0  0
    2.3722   -6.3775   -0.0000 F   0  0  0  0  0  0  0  0  0  0  0  0
    3.8742   -6.3418   -0.0000 F   0  0  0  0  0  0  0  0  0  0  0  0
   -5.3285   -6.1868   -0.0000 C   0  0  0  0  0  0  0  0  0  0  0  0
   -5.3404   -7.6888   -0.0000 N   0  0  0  0  0  0  0  0  0  0  0  0
   -6.6398   -5.4239   -0.0000 C   0  0  0  0  0  0  0  0  0  0  0  0
   -6.6636   -8.4279   -0.0000 C   0  0  0  0  0  0  0  0  0  0  0  0
   -7.9510   -6.1630   -0.0000 C   0  0  0  0  0  0  0  0  0  0  0  0
   -6.6755   -9.9179   -0.0000 O   0  0  0  0  0  0  0  0  0  0  0  0
   -7.9749   -7.6649   -0.0000 C   0  0  0  0  0  0  0  0  0  0  0  0
   -5.3881  -10.6570   -0.0000 C   0  0  0  0  0  0  0  0  0  0  0  0
   -9.2861   -8.4040   -0.0000 N   0  0  0  0  0  0  0  0  0  0  0  0
   -9.4530   -9.8822   -0.0000 C   0  0  0  0  0  0  0  0  0  0  0  0
  -10.6689   -7.7722   -0.0000 C   0  0  0  0  0  0  0  0  0  0  0  0
  -10.9312  -10.1802   -0.0000 N   0  0  0  0  0  0  0  0  0  0  0  0
  -11.6822   -8.8808   -0.0000 C   0  0  0  0  0  0  0  0  0  0  0  0
  -13.1842   -8.7140   -0.0000 C   0  0  0  0  0  0  0  0  0  0  0  0
  1  2  1  0  0  0  0
  2  3  2  0  0  0  0
  2  4  1  0  0  0  0
  3  5  1  0  0  0  0
  3  6  1  0  0  0  0
  4  7  2  0  0  0  0
  5  8  1  0  0  0  0
  6  9  2  0  0  0  0
  8 10  2  0  0  0  0
  8 11  1  0  0  0  0
  9 12  1  0  0  0  0
 10 13  1  0  0  0  0
 11 14  1  0  0  0  0
 11 15  1  0  0  0  0
 12 16  1  0  0  0  0
 12 17  1  0  0  0  0
 12 18  1  0  0  0  0
 13 19  1  0  0  0  0
 19 20  2  0  0  0  0
 19 21  1  0  0  0  0
 20 22  1  0  0  0  0
 21 23  2  0  0  0  0
 22 24  1  0  0  0  0
 22 25  2  0  0  0  0
 24 26  1  0  0  0  0
 25 27  1  0  0  0  0
 27 28  1  0  0  0  0
 27 29  1  0  0  0  0
 28 30  2  0  0  0  0
 29 31  2  0  0  0  0
 31 32  1  0  0  0  0
  7  9  1  0  0  0  0
 13 14  2  0  0  0  0
 23 25  1  0  0  0  0
 30 31  1  0  0  0  0
M  END
>  <MolRegNo>
1817204

>  <m>
=

>  <Value>
25400

>  <Unit>
nM

>  <Type>
IC50

>  <pValue>
4.59

>  <Ligand Efficiency>
0

>  <Binding Efficiency>
0

>  <Surface Efficiency>
0

>  <Assay Index>
878342

>  <Assay Category>


>  <Assay Organism>
Homo sapiens

>  <Target ID>
17045

>  <Target Name>
Cytochrome P450 3A4

>  <Target Organism>
Homo sapiens

>  <Target Description>
Target is a single protein chain

>  <Sequence Accession>
P08684

>  <Reference>
Bioorg Med Chem Lett 24 (24), 5805-5813 (2014)

>  <Pubmed ID>
25454273

>  <DOI>
10.1016/j.bmcl.2014.10.024

$$$$
1779383
Actelion Java MolfileCreator 1.0

 31 34  0  0  0  0  0  0  0  0999 V2000
    0.0000   -0.0000   -0.0000 S   0  0  0  0  0  0  0  0  0  0  0  0
    0.7387    1.3107   -0.0000 O   0  0  0  0  0  0  0  0  0  0  0  0
   -0.7626    1.3107   -0.0000 O   0  0  0  0  0  0  0  0  0  0  0  0
    1.2868   -0.7387   -0.0000 N   0  0  0  0  0  0  0  0  0  0  0  0
   -1.3107   -0.7387   -0.0000 C   0  0  0  0  0  0  0  0  0  0  0  0
    1.2749   -2.2281   -0.0000 C   0  0  0  0  0  0  0  0  0  0  0  0
    2.5618   -2.9669   -0.0000 C   0  0  0  0  0  0  0  0  0  0  0  0
    3.8486   -2.2043   -0.0000 C   0  0  0  0  0  0  0  0  0  0  0  0
    3.8367   -0.6911   -0.0000 C   0  0  0  0  0  0  0  0  0  0  0  0
    5.1354   -2.9430   -0.0000 C   0  0  0  0  0  0  0  0  0  0  0  0
    5.1235    0.0715   -0.0000 C   0  0  0  0  0  0  0  0  0  0  0  0
    6.4342   -2.1686   -0.0000 C   0  0  0  0  0  0  0  0  0  0  0  0
    5.1116    1.5847   -0.0000 C   0  0  0  0  0  0  0  0  0  0  0  0
    6.4104   -0.6672   -0.0000 C   0  0  0  0  0  0  0  0  0  0  0  0
    7.7210   -2.9073   -0.0000 C   0  0  0  0  0  0  0  0  0  0  0  0
    6.3985    2.3473   -0.0000 C   0  0  0  0  0  0  0  0  0  0  0  0
    3.8009    2.3473   -0.0000 C   0  0  0  0  0  0  0  0  0  0  0  0
    9.0079   -2.1447   -0.0000 C   0  0  0  0  0  0  0  0  0  0  0  0
    6.9585   -4.1941   -0.0000 C   0  0  0  0  0  0  0  0  0  0  0  0
    8.4598   -4.1941   -0.0000 C   0  0  0  0  0  0  0  0  0  0  0  0
    6.3865    3.8724   -0.0000 C   0  0  0  0  0  0  0  0  0  0  0  0
    7.8283    1.8945   -0.0000 C   0  0  0  0  0  0  0  0  0  0  0  0
    3.7890    3.8605   -0.0000 C   0  0  0  0  0  0  0  0  0  0  0  0
   10.2947   -1.3702   -0.0000 N   0  0  0  0  0  0  0  0  0  0  0  0
    5.0759    4.6350   -0.0000 N   0  0  0  0  0  0  0  0  0  0  0  0
    7.8164    4.3490   -0.0000 N   0  0  0  0  0  0  0  0  0  0  0  0
    8.7100    3.1337   -0.0000 N   0  0  0  0  0  0  0  0  0  0  0  0
    8.2810    0.4766   -0.0000 C   0  0  0  0  0  0  0  0  0  0  0  0
    7.2683   -0.6315   -0.0000 F   0  0  0  0  0  0  0  0  0  0  0  0
    9.7347    0.1787   -0.0000 F   0  0  0  0  0  0  0  0  0  0  0  0
    8.6504   -0.9532   -0.0000 F   0  0  0  0  0  0  0  0  0  0  0  0
  1  2  2  0  0  0  0
  1  3  2  0  0  0  0
  1  4  1  0  0  0  0
  1  5  1  0  0  0  0
  4  6  1  0  0  0  0
  6  7  1  0  0  0  0
  7  8  1  0  0  0  0
  8  9  2  0  0  0  0
  8 10  1  0  0  0  0
  9 11  1  0  0  0  0
 10 12  2  0  0  0  0
 11 13  1  0  0  0  0
 11 14  2  0  0  0  0
 12 15  1  0  0  0  0
 13 16  2  0  0  0  0
 13 17  1  0  0  0  0
 15 18  1  0  0  0  0
 15 19  1  0  0  0  0
 15 20  1  0  0  0  0
 16 21  1  0  0  0  0
 16 22  1  0  0  0  0
 17 23  2  0  0  0  0
 18 24  3  0  0  0  0
 21 25  2  0  0  0  0
 21 26  1  0  0  0  0
 22 27  2  0  0  0  0
 22 28  1  0  0  0  0
 28 29  1  0  0  0  0
 28 30  1  0  0  0  0
 28 31  1  0  0  0  0
 12 14  1  0  0  0  0
 19 20  1  0  0  0  0
 23 25  1  0  0  0  0
 26 27  1  0  0  0  0
M  END
>  <MolRegNo>
1779383

>  <m>
=

>  <Value>
7000

>  <Unit>
nM

>  <Type>
IC50

>  <pValue>
5.16

>  <Ligand Efficiency>
0

>  <Binding Efficiency>
0

>  <Surface Efficiency>
0

>  <Assay Index>
903646

>  <Assay Category>


>  <Assay Organism>
Homo sapiens

>  <Target ID>
17045

>  <Target Name>
Cytochrome P450 3A4

>  <Target Organism>
Homo sapiens

>  <Target Description>
Target is a single protein chain

>  <Sequence Accession>
P08684

>  <Reference>
Bioorg Med Chem Lett 24 (15), 3398-3402 (2014)

>  <Pubmed ID>
24939756

>  <DOI>
10.1016/j.bmcl.2014.05.082

$$$$
449148
Actelion Java MolfileCreator 1.0

 14 16  0  0  0  0  0  0  0  0999 V2000
    0.0000   -0.0000   -0.0000 Cl  0  0  0  0  0  0  0  0  0  0  0  0
   -0.2257    1.2225   -0.0000 C   0  0  0  0  0  0  0  0  0  0  0  0
   -1.6927    1.7679   -0.0000 C   0  0  0  0  0  0  0  0  0  0  0  0
    0.9216    2.2193   -0.0000 C   0  0  0  0  0  0  0  0  0  0  0  0
   -2.6519    0.9968   -0.0000 Cl  0  0  0  0  0  0  0  0  0  0  0  0
   -1.9748    3.2913   -0.0000 C   0  0  0  0  0  0  0  0  0  0  0  0
    0.6395    3.7427   -0.0000 C   0  0  0  0  0  0  0  0  0  0  0  0
   -0.8275    4.2881   -0.0000 C   0  0  0  0  0  0  0  0  0  0  0  0
    1.7867    4.7583   -0.0000 C   0  0  0  0  0  0  0  0  0  0  0  0
    1.7679    2.3886   -0.0000 C   0  0  0  0  0  0  0  0  0  0  0  0
    0.3573    4.7771   -0.0000 C   0  0  0  0  0  0  0  0  0  0  0  0
    2.4638    3.5734   -0.0000 C   0  0  0  0  0  0  0  0  0  0  0  0
    0.3385    2.4074   -0.0000 C   0  0  0  0  0  0  0  0  0  0  0  0
   -0.3573    3.5922   -0.0000 N   0  0  0  0  0  0  0  0  0  0  0  0
  1  2  1  0  0  0  0
  2  3  2  0  0  0  0
  2  4  1  0  0  0  0
  3  5  1  0  0  0  0
  3  6  1  0  0  0  0
  4  7  2  0  0  0  0
  6  8  2  0  0  0  0
  7  9  1  0  0  0  0
  9 10  1  0  0  0  0
  9 11  1  0  0  0  0
  9 12  1  0  0  0  0
 10 13  1  0  0  0  0
 11 14  1  0  0  0  0
  7  8  1  0  0  0  0
 10 12  1  0  0  0  0
 13 14  1  0  0  0  0
M  END
>  <MolRegNo>
449148

>  <m>
=

>  <Value>
1300

>  <Unit>
nM

>  <Type>
IC50

>  <pValue>
5.89

>  <Ligand Efficiency>
0

>  <Binding Efficiency>
0

>  <Surface Efficiency>
0

>  <Assay Index>
900962

>  <Assay Category>


>  <Assay Organism>
Homo sapiens

>  <Target ID>
17045

>  <Target Name>
Cytochrome P450 3A4

>  <Target Organism>
Homo sapiens

>  <Target Description>
Target is a single protein chain

>  <Sequence Accession>
P08684

>  <Reference>
Bioorg Med Chem Lett 24 (15), 3234-3237 (2014)

>  <Pubmed ID>
24974340

>  <DOI>
10.1016/j.bmcl.2014.06.026

$$$$
1779583
Actelion Java MolfileCreator 1.0

 22 24  0  0  0  0  0  0  0  0999 V2000
    0.0000   -0.0000   -0.0000 Cl  0  0  0  0  0  0  0  0  0  0  0  0
   -1.3005    0.7567   -0.0000 C   0  0  0  0  0  0  0  0  0  0  0  0
   -1.3123    2.2700   -0.0000 C   0  0  0  0  0  0  0  0  0  0  0  0
   -2.6128    0.0236   -0.0000 C   0  0  0  0  0  0  0  0  0  0  0  0
   -0.0355    3.0385   -0.0000 F   0  0  0  0  0  0  0  0  0  0  0  0
   -2.6128    3.0266   -0.0000 C   0  0  0  0  0  0  0  0  0  0  0  0
   -3.9134    0.7803   -0.0000 C   0  0  0  0  0  0  0  0  0  0  0  0
   -3.9134    2.2936   -0.0000 C   0  0  0  0  0  0  0  0  0  0  0  0
   -5.2139    3.0503   -0.0000 C   0  0  0  0  0  0  0  0  0  0  0  0
   -5.2257    4.5518   -0.0000 O   0  0  0  0  0  0  0  0  0  0  0  0
   -6.5144    2.3173   -0.0000 C   0  0  0  0  0  0  0  0  0  0  0  0
   -3.9488    5.3085   -0.0000 C   0  0  0  0  0  0  0  0  0  0  0  0
   -7.8149    3.0739   -0.0000 C   0  0  0  0  0  0  0  0  0  0  0  0
   -3.9607    6.8100   -0.0000 C   0  0  0  0  0  0  0  0  0  0  0  0
   -2.6720    4.5636   -0.0000 C   0  0  0  0  0  0  0  0  0  0  0  0
   -8.2169    4.5400   -0.0000 C   0  0  0  0  0  0  0  0  0  0  0  0
   -9.2809    2.7074   -0.0000 C   0  0  0  0  0  0  0  0  0  0  0  0
   -2.6838    7.5666   -0.0000 C   0  0  0  0  0  0  0  0  0  0  0  0
   -1.3951    5.3203   -0.0000 C   0  0  0  0  0  0  0  0  0  0  0  0
   -9.6711    4.1616   -0.0000 N   0  0  0  0  0  0  0  0  0  0  0  0
   -2.6956    9.0681   -0.0000 Cl  0  0  0  0  0  0  0  0  0  0  0  0
   -1.3951    6.8336   -0.0000 C   0  0  0  0  0  0  0  0  0  0  0  0
  1  2  1  0  0  0  0
  2  3  2  0  0  0  0
  2  4  1  0  0  0  0
  3  5  1  0  0  0  0
  3  6  1  0  0  0  0
  4  7  2  0  0  0  0
  6  8  2  0  0  0  0
  8  9  1  0  0  0  0
  9 10  1  0  0  0  0
  9 11  1  0  0  0  0
 10 12  1  0  0  0  0
 11 13  1  0  0  0  0
 12 14  2  0  0  0  0
 12 15  1  0  0  0  0
 13 16  1  0  0  0  0
 13 17  1  0  0  0  0
 14 18  1  0  0  0  0
 15 19  2  0  0  0  0
 16 20  1  0  0  0  0
 18 21  1  0  0  0  0
 18 22  2  0  0  0  0
  7  8  1  0  0  0  0
 17 20  1  0  0  0  0
 19 22  1  0  0  0  0
M  END
>  <MolRegNo>
1779583

>  <m>
=

>  <Value>
600

>  <Unit>
nM

>  <Type>
IC50

>  <pValue>
6.22

>  <Ligand Efficiency>
0

>  <Binding Efficiency>
0

>  <Surface Efficiency>
0

>  <Assay Index>
900962

>  <Assay Category>


>  <Assay Organism>
Homo sapiens

>  <Target ID>
17045

>  <Target Name>
Cytochrome P450 3A4

>  <Target Organism>
Homo sapiens

>  <Target Description>
Target is a single protein chain

>  <Sequence Accession>
P08684

>  <Reference>
Bioorg Med Chem Lett 24 (15), 3234-3237 (2014)

>  <Pubmed ID>
24974340

>  <DOI>
10.1016/j.bmcl.2014.06.026

$$$$
1779584
Actelion Java MolfileCreator 1.0

 22 24  0  0  0  0  0  0  0  0999 V2000
    0.0000   -0.0000   -0.0000 Cl  0  0  0  0  0  0  0  0  0  0  0  0
   -1.3000    0.7564   -0.0000 C   0  0  0  0  0  0  0  0  0  0  0  0
   -1.3119    2.2691   -0.0000 C   0  0  0  0  0  0  0  0  0  0  0  0
   -2.6119    0.0236   -0.0000 C   0  0  0  0  0  0  0  0  0  0  0  0
   -0.0355    3.0374   -0.0000 F   0  0  0  0  0  0  0  0  0  0  0  0
   -2.6119    3.0255   -0.0000 C   0  0  0  0  0  0  0  0  0  0  0  0
   -3.9119    0.7800   -0.0000 C   0  0  0  0  0  0  0  0  0  0  0  0
   -3.9119    2.2928   -0.0000 C   0  0  0  0  0  0  0  0  0  0  0  0
   -5.2120    3.0492   -0.0000 C   0  0  0  0  0  0  0  0  0  0  0  0
   -5.2238    4.5501   -0.0000 O   0  0  0  0  0  0  0  0  0  0  0  0
   -6.5120    2.3164   -0.0000 C   0  0  0  0  0  0  0  0  0  0  0  0
   -3.9474    5.3065   -0.0000 C   0  0  0  0  0  0  0  0  0  0  0  0
   -7.8120    3.0728   -0.0000 C   0  0  0  0  0  0  0  0  0  0  0  0
   -3.9592    6.8074   -0.0000 C   0  0  0  0  0  0  0  0  0  0  0  0
   -2.6710    4.5619   -0.0000 C   0  0  0  0  0  0  0  0  0  0  0  0
   -8.2138    4.5383   -0.0000 C   0  0  0  0  0  0  0  0  0  0  0  0
   -9.2775    2.7064   -0.0000 C   0  0  0  0  0  0  0  0  0  0  0  0
   -5.2710    7.5638   -0.0000 F   0  0  0  0  0  0  0  0  0  0  0  0
   -2.6828    7.5638   -0.0000 C   0  0  0  0  0  0  0  0  0  0  0  0
   -1.3946    5.3183   -0.0000 C   0  0  0  0  0  0  0  0  0  0  0  0
   -9.6675    4.1601   -0.0000 N   0  0  0  0  0  0  0  0  0  0  0  0
   -1.3946    6.8311   -0.0000 C   0  0  0  0  0  0  0  0  0  0  0  0
  1  2  1  0  0  0  0
  2  3  2  0  0  0  0
  2  4  1  0  0  0  0
  3  5  1  0  0  0  0
  3  6  1  0  0  0  0
  4  7  2  0  0  0  0
  6  8  2  0  0  0  0
  8  9  1  0  0  0  0
  9 10  1  0  0  0  0
  9 11  1  0  0  0  0
 10 12  1  0  0  0  0
 11 13  1  0  0  0  0
 12 14  2  0  0  0  0
 12 15  1  0  0  0  0
 13 16  1  0  0  0  0
 13 17  1  0  0  0  0
 14 18  1  0  0  0  0
 14 19  1  0  0  0  0
 15 20  2  0  0  0  0
 16 21  1  0  0  0  0
 19 22  2  0  0  0  0
  7  8  1  0  0  0  0
 17 21  1  0  0  0  0
 20 22  1  0  0  0  0
M  END
>  <MolRegNo>
1779584

>  <m>
=

>  <Value>
710

>  <Unit>
nM

>  <Type>
IC50

>  <pValue>
6.15

>  <Ligand Efficiency>
0

>  <Binding Efficiency>
0

>  <Surface Efficiency>
0

>  <Assay Index>
900962

>  <Assay Category>


>  <Assay Organism>
Homo sapiens

>  <Target ID>
17045

>  <Target Name>
Cytochrome P450 3A4

>  <Target Organism>
Homo sapiens

>  <Target Description>
Target is a single protein chain

>  <Sequence Accession>
P08684

>  <Reference>
Bioorg Med Chem Lett 24 (15), 3234-3237 (2014)

>  <Pubmed ID>
24974340

>  <DOI>
10.1016/j.bmcl.2014.06.026

$$$$
1779585
Actelion Java MolfileCreator 1.0

 22 24  0  0  0  0  0  0  0  0999 V2000
    0.0000   -0.0000   -0.0000 Cl  0  0  0  0  0  0  0  0  0  0  0  0
   -1.3005    0.7567   -0.0000 C   0  0  0  0  0  0  0  0  0  0  0  0
   -1.3123    2.2700   -0.0000 C   0  0  0  0  0  0  0  0  0  0  0  0
   -2.6128    0.0236   -0.0000 C   0  0  0  0  0  0  0  0  0  0  0  0
   -0.0355    3.0385   -0.0000 F   0  0  0  0  0  0  0  0  0  0  0  0
   -2.6128    3.0266   -0.0000 C   0  0  0  0  0  0  0  0  0  0  0  0
   -3.9134    0.7803   -0.0000 C   0  0  0  0  0  0  0  0  0  0  0  0
   -3.9134    2.2936   -0.0000 C   0  0  0  0  0  0  0  0  0  0  0  0
   -5.2139    3.0503   -0.0000 C   0  0  0  0  0  0  0  0  0  0  0  0
   -5.2257    4.5518   -0.0000 O   0  0  0  0  0  0  0  0  0  0  0  0
   -6.5144    2.3173   -0.0000 C   0  0  0  0  0  0  0  0  0  0  0  0
   -3.9488    5.3085   -0.0000 C   0  0  0  0  0  0  0  0  0  0  0  0
   -7.8149    3.0739   -0.0000 C   0  0  0  0  0  0  0  0  0  0  0  0
   -3.9607    6.8100   -0.0000 C   0  0  0  0  0  0  0  0  0  0  0  0
   -2.6720    4.5636   -0.0000 C   0  0  0  0  0  0  0  0  0  0  0  0
   -8.2169    4.5400   -0.0000 C   0  0  0  0  0  0  0  0  0  0  0  0
   -9.2809    2.7074   -0.0000 C   0  0  0  0  0  0  0  0  0  0  0  0
   -2.6838    7.5666   -0.0000 C   0  0  0  0  0  0  0  0  0  0  0  0
   -1.3951    5.3203   -0.0000 C   0  0  0  0  0  0  0  0  0  0  0  0
   -9.6711    4.1616   -0.0000 N   0  0  0  0  0  0  0  0  0  0  0  0
   -2.6956    9.0681   -0.0000 F   0  0  0  0  0  0  0  0  0  0  0  0
   -1.3951    6.8336   -0.0000 C   0  0  0  0  0  0  0  0  0  0  0  0
  1  2  1  0  0  0  0
  2  3  2  0  0  0  0
  2  4  1  0  0  0  0
  3  5  1  0  0  0  0
  3  6  1  0  0  0  0
  4  7  2  0  0  0  0
  6  8  2  0  0  0  0
  8  9  1  0  0  0  0
  9 10  1  0  0  0  0
  9 11  1  0  0  0  0
 10 12  1  0  0  0  0
 11 13  1  0  0  0  0
 12 14  2  0  0  0  0
 12 15  1  0  0  0  0
 13 16  1  0  0  0  0
 13 17  1  0  0  0  0
 14 18  1  0  0  0  0
 15 19  2  0  0  0  0
 16 20  1  0  0  0  0
 18 21  1  0  0  0  0
 18 22  2  0  0  0  0
  7  8  1  0  0  0  0
 17 20  1  0  0  0  0
 19 22  1  0  0  0  0
M  END
>  <MolRegNo>
1779585

>  <m>
=

>  <Value>
510

>  <Unit>
nM

>  <Type>
IC50

>  <pValue>
6.29

>  <Ligand Efficiency>
0

>  <Binding Efficiency>
0

>  <Surface Efficiency>
0

>  <Assay Index>
900962

>  <Assay Category>


>  <Assay Organism>
Homo sapiens

>  <Target ID>
17045

>  <Target Name>
Cytochrome P450 3A4

>  <Target Organism>
Homo sapiens

>  <Target Description>
Target is a single protein chain

>  <Sequence Accession>
P08684

>  <Reference>
Bioorg Med Chem Lett 24 (15), 3234-3237 (2014)

>  <Pubmed ID>
24974340

>  <DOI>
10.1016/j.bmcl.2014.06.026

$$$$
1779586
Actelion Java MolfileCreator 1.0

 22 24  0  0  0  0  0  0  0  0999 V2000
    0.0000   -0.0000   -0.0000 Cl  0  0  0  0  0  0  0  0  0  0  0  0
   -1.3017    0.7574   -0.0000 C   0  0  0  0  0  0  0  0  0  0  0  0
   -1.3136    2.2721   -0.0000 C   0  0  0  0  0  0  0  0  0  0  0  0
   -2.6153    0.0237   -0.0000 C   0  0  0  0  0  0  0  0  0  0  0  0
   -0.0355    3.0413   -0.0000 F   0  0  0  0  0  0  0  0  0  0  0  0
   -2.6153    3.0295   -0.0000 C   0  0  0  0  0  0  0  0  0  0  0  0
   -3.9170    0.7810   -0.0000 C   0  0  0  0  0  0  0  0  0  0  0  0
   -3.9170    2.2958   -0.0000 C   0  0  0  0  0  0  0  0  0  0  0  0
   -5.2187    3.0531   -0.0000 C   0  0  0  0  0  0  0  0  0  0  0  0
   -5.2306    4.5560   -0.0000 O   0  0  0  0  0  0  0  0  0  0  0  0
   -6.5204    2.3194   -0.0000 C   0  0  0  0  0  0  0  0  0  0  0  0
   -3.9525    5.3134   -0.0000 C   0  0  0  0  0  0  0  0  0  0  0  0
   -7.8222    3.0768   -0.0000 C   0  0  0  0  0  0  0  0  0  0  0  0
   -2.6744    4.5679   -0.0000 C   0  0  0  0  0  0  0  0  0  0  0  0
   -3.9643    6.8163   -0.0000 C   0  0  0  0  0  0  0  0  0  0  0  0
   -8.2245    4.5442   -0.0000 C   0  0  0  0  0  0  0  0  0  0  0  0
   -9.2896    2.7100   -0.0000 C   0  0  0  0  0  0  0  0  0  0  0  0
   -1.3964    5.3252   -0.0000 C   0  0  0  0  0  0  0  0  0  0  0  0
   -2.6863    7.5737   -0.0000 C   0  0  0  0  0  0  0  0  0  0  0  0
   -9.6801    4.1655   -0.0000 N   0  0  0  0  0  0  0  0  0  0  0  0
   -1.4082    6.8281   -0.0000 C   0  0  0  0  0  0  0  0  0  0  0  0
   -0.1302    7.5855   -0.0000 F   0  0  0  0  0  0  0  0  0  0  0  0
  1  2  1  0  0  0  0
  2  3  2  0  0  0  0
  2  4  1  0  0  0  0
  3  5  1  0  0  0  0
  3  6  1  0  0  0  0
  4  7  2  0  0  0  0
  6  8  2  0  0  0  0
  8  9  1  0  0  0  0
  9 10  1  0  0  0  0
  9 11  1  0  0  0  0
 10 12  1  0  0  0  0
 11 13  1  0  0  0  0
 12 14  2  0  0  0  0
 12 15  1  0  0  0  0
 13 16  1  0  0  0  0
 13 17  1  0  0  0  0
 14 18  1  0  0  0  0
 15 19  2  0  0  0  0
 16 20  1  0  0  0  0
 18 21  2  0  0  0  0
 21 22  1  0  0  0  0
  7  8  1  0  0  0  0
 17 20  1  0  0  0  0
 19 21  1  0  0  0  0
M  END
>  <MolRegNo>
1779586

>  <m>
=

>  <Value>
400

>  <Unit>
nM

>  <Type>
IC50

>  <pValue>
6.4

>  <Ligand Efficiency>
0

>  <Binding Efficiency>
0

>  <Surface Efficiency>
0

>  <Assay Index>
900962

>  <Assay Category>


>  <Assay Organism>
Homo sapiens

>  <Target ID>
17045

>  <Target Name>
Cytochrome P450 3A4

>  <Target Organism>
Homo sapiens

>  <Target Description>
Target is a single protein chain

>  <Sequence Accession>
P08684

>  <Reference>
Bioorg Med Chem Lett 24 (15), 3234-3237 (2014)

>  <Pubmed ID>
24974340

>  <DOI>
10.1016/j.bmcl.2014.06.026

$$$$
1789254
Actelion Java MolfileCreator 1.0

 33 36  0  0  0  0  0  0  0  0999 V2000
    0.0000   -0.0000   -0.0000 S   0  0  0  0  0  0  0  0  0  0  0  0
    1.2697    0.7713   -0.0000 O   0  0  0  0  0  0  0  0  0  0  0  0
   -0.0356    1.5070   -0.0000 O   0  0  0  0  0  0  0  0  0  0  0  0
    0.7476   -1.2697   -0.0000 N   0  0  0  0  0  0  0  0  0  0  0  0
   -1.5070   -0.0119   -0.0000 C   0  0  0  0  0  0  0  0  0  0  0  0
   -2.2546   -1.3053   -0.0000 C   0  0  0  0  0  0  0  0  0  0  0  0
   -2.2783    1.2934   -0.0000 C   0  0  0  0  0  0  0  0  0  0  0  0
   -3.7616   -1.3053   -0.0000 C   0  0  0  0  0  0  0  0  0  0  0  0
   -3.7972    1.2815   -0.0000 C   0  0  0  0  0  0  0  0  0  0  0  0
   -4.5091   -2.5987   -0.0000 C   0  0  0  0  0  0  0  0  0  0  0  0
   -4.5329   -0.0119   -0.0000 C   0  0  0  0  0  0  0  0  0  0  0  0
   -3.6310   -3.8090   -0.0000 N   0  0  0  0  0  0  0  0  0  0  0  0
   -5.9568   -3.0496   -0.0000 C   0  0  0  0  0  0  0  0  0  0  0  0
   -4.5329   -5.0194   -0.0000 N   0  0  0  0  0  0  0  0  0  0  0  0
   -5.9687   -4.5447   -0.0000 C   0  0  0  0  0  0  0  0  0  0  0  0
   -7.2621   -2.2902   -0.0000 C   0  0  0  0  0  0  0  0  0  0  0  0
   -7.2739   -5.2804   -0.0000 C   0  0  0  0  0  0  0  0  0  0  0  0
   -8.5673   -3.0259   -0.0000 C   0  0  0  0  0  0  0  0  0  0  0  0
   -8.5792   -4.5210   -0.0000 C   0  0  0  0  0  0  0  0  0  0  0  0
   -9.8726   -2.2664   -0.0000 N   0  0  0  0  0  0  0  0  0  0  0  0
  -11.1779   -3.0021   -0.0000 C   0  0  0  0  0  0  0  0  0  0  0  0
  -11.2016   -4.4854   -0.0000 O   0  0  0  0  0  0  0  0  0  0  0  0
  -12.4832   -2.2427   -0.0000 N   0  0  0  0  0  0  0  0  0  0  0  0
  -13.7884   -2.9784   -0.0000 C   0  0  0  0  0  0  0  0  0  0  0  0
  -13.7884   -4.4498   -0.0000 C   0  0  0  0  0  0  0  0  0  0  0  0
  -15.0818   -2.2071   -0.0000 C   0  0  0  0  0  0  0  0  0  0  0  0
  -15.0937   -5.1855   -0.0000 C   0  0  0  0  0  0  0  0  0  0  0  0
  -12.5069   -5.1855   -0.0000 C   0  0  0  0  0  0  0  0  0  0  0  0
  -16.3871   -2.9428   -0.0000 C   0  0  0  0  0  0  0  0  0  0  0  0
  -15.0818   -0.7001   -0.0000 C   0  0  0  0  0  0  0  0  0  0  0  0
  -16.4108   -4.4261   -0.0000 C   0  0  0  0  0  0  0  0  0  0  0  0
  -12.5188   -6.6688   -0.0000 C   0  0  0  0  0  0  0  0  0  0  0  0
  -16.3871    0.0712   -0.0000 C   0  0  0  0  0  0  0  0  0  0  0  0
  1  2  2  0  0  0  0
  1  3  2  0  0  0  0
  1  4  1  0  0  0  0
  1  5  1  0  0  0  0
  5  6  2  0  0  0  0
  5  7  1  0  0  0  0
  6  8  1  0  0  0  0
  7  9  2  0  0  0  0
  8 10  1  0  0  0  0
  8 11  2  0  0  0  0
 10 12  2  0  0  0  0
 10 13  1  0  0  0  0
 12 14  1  0  0  0  0
 13 15  2  0  0  0  0
 13 16  1  0  0  0  0
 15 17  1  0  0  0  0
 16 18  2  0  0  0  0
 17 19  2  0  0  0  0
 18 20  1  0  0  0  0
 20 21  1  0  0  0  0
 21 22  2  0  0  0  0
 21 23  1  0  0  0  0
 23 24  1  0  0  0  0
 24 25  2  0  0  0  0
 24 26  1  0  0  0  0
 25 27  1  0  0  0  0
 25 28  1  0  0  0  0
 26 29  2  0  0  0  0
 26 30  1  0  0  0  0
 27 31  2  0  0  0  0
 28 32  1  0  0  0  0
 30 33  1  0  0  0  0
  9 11  1  0  0  0  0
 14 15  1  0  0  0  0
 18 19  1  0  0  0  0
 29 31  1  0  0  0  0
M  END
>  <MolRegNo>
1789254

>  <m>
=

>  <Value>
10000

>  <Unit>
nM

>  <Type>
IC50

>  <pValue>
5

>  <Ligand Efficiency>
0

>  <Binding Efficiency>
0

>  <Surface Efficiency>
0

>  <Assay Index>
904791

>  <Assay Category>


>  <Assay Organism>
Homo sapiens

>  <Target ID>
17045

>  <Target Name>
Cytochrome P450 3A4

>  <Target Organism>
Homo sapiens

>  <Target Description>
Target is a single protein chain

>  <Sequence Accession>
P08684

>  <Reference>
Bioorg Med Chem 22 (17), 4968-4997 (2014)

>  <Pubmed ID>
25043312

>  <DOI>
10.1016/j.bmc.2014.06.027

$$$$
1789405
Actelion Java MolfileCreator 1.0

 34 37  0  0  0  0  0  0  0  0999 V2000
    0.0000   -0.0000   -0.0000 S   0  0  0  0  0  0  0  0  0  0  0  0
    1.2700    0.7715   -0.0000 O   0  0  0  0  0  0  0  0  0  0  0  0
   -0.0356    1.5074   -0.0000 O   0  0  0  0  0  0  0  0  0  0  0  0
    0.7478   -1.2700   -0.0000 N   0  0  0  0  0  0  0  0  0  0  0  0
   -1.5074   -0.0119   -0.0000 C   0  0  0  0  0  0  0  0  0  0  0  0
   -2.2552   -1.3057   -0.0000 C   0  0  0  0  0  0  0  0  0  0  0  0
   -2.2790    1.2938   -0.0000 C   0  0  0  0  0  0  0  0  0  0  0  0
   -3.7627   -1.3057   -0.0000 C   0  0  0  0  0  0  0  0  0  0  0  0
   -3.7983    1.2819   -0.0000 C   0  0  0  0  0  0  0  0  0  0  0  0
   -4.5104   -2.5994   -0.0000 C   0  0  0  0  0  0  0  0  0  0  0  0
   -4.5342   -0.0119   -0.0000 C   0  0  0  0  0  0  0  0  0  0  0  0
   -3.6321   -3.8101   -0.0000 N   0  0  0  0  0  0  0  0  0  0  0  0
   -5.9585   -3.0505   -0.0000 C   0  0  0  0  0  0  0  0  0  0  0  0
   -4.5342   -5.0208   -0.0000 N   0  0  0  0  0  0  0  0  0  0  0  0
   -5.9704   -4.5461   -0.0000 C   0  0  0  0  0  0  0  0  0  0  0  0
   -7.2642   -2.2908   -0.0000 C   0  0  0  0  0  0  0  0  0  0  0  0
   -7.2761   -5.2820   -0.0000 C   0  0  0  0  0  0  0  0  0  0  0  0
   -8.5699   -3.0267   -0.0000 C   0  0  0  0  0  0  0  0  0  0  0  0
   -8.5817   -4.5223   -0.0000 C   0  0  0  0  0  0  0  0  0  0  0  0
   -9.8755   -2.2671   -0.0000 N   0  0  0  0  0  0  0  0  0  0  0  0
  -11.1812   -3.0030   -0.0000 C   0  0  0  0  0  0  0  0  0  0  0  0
  -11.2049   -4.4867   -0.0000 O   0  0  0  0  0  0  0  0  0  0  0  0
  -12.4868   -2.2434   -0.0000 C   0  0  0  0  0  0  0  0  0  0  0  0
  -12.4987   -0.7359   -0.0000 N   0  0  0  0  0  0  0  0  0  0  0  0
  -13.7925   -2.9793   -0.0000 C   0  0  0  0  0  0  0  0  0  0  0  0
  -11.2168    0.0237   -0.0000 C   0  0  0  0  0  0  0  0  0  0  0  0
  -13.8044    0.0237   -0.0000 C   0  0  0  0  0  0  0  0  0  0  0  0
  -13.7925   -4.4511   -0.0000 C   0  0  0  0  0  0  0  0  0  0  0  0
  -15.0863   -2.2077   -0.0000 C   0  0  0  0  0  0  0  0  0  0  0  0
  -15.0981   -5.1870   -0.0000 C   0  0  0  0  0  0  0  0  0  0  0  0
  -12.5106   -5.1870   -0.0000 C   0  0  0  0  0  0  0  0  0  0  0  0
  -16.3919   -2.9437   -0.0000 C   0  0  0  0  0  0  0  0  0  0  0  0
  -16.4157   -4.4274   -0.0000 C   0  0  0  0  0  0  0  0  0  0  0  0
  -12.5224   -6.6707   -0.0000 C   0  0  0  0  0  0  0  0  0  0  0  0
  1  2  2  0  0  0  0
  1  3  2  0  0  0  0
  1  4  1  0  0  0  0
  1  5  1  0  0  0  0
  5  6  2  0  0  0  0
  5  7  1  0  0  0  0
  6  8  1  0  0  0  0
  7  9  2  0  0  0  0
  8 10  1  0  0  0  0
  8 11  2  0  0  0  0
 10 12  2  0  0  0  0
 10 13  1  0  0  0  0
 12 14  1  0  0  0  0
 13 15  2  0  0  0  0
 13 16  1  0  0  0  0
 15 17  1  0  0  0  0
 16 18  2  0  0  0  0
 17 19  2  0  0  0  0
 18 20  1  0  0  0  0
 20 21  1  0  0  0  0
 21 22  2  0  0  0  0
 21 23  1  0  0  0  0
 23 24  1  0  0  0  0
 23 25  1  0  0  0  0
 24 26  1  0  0  0  0
 24 27  1  0  0  0  0
 25 28  2  0  0  0  0
 25 29  1  0  0  0  0
 28 30  1  0  0  0  0
 28 31  1  0  0  0  0
 29 32  2  0  0  0  0
 30 33  2  0  0  0  0
 31 34  1  0  0  0  0
  9 11  1  0  0  0  0
 14 15  1  0  0  0  0
 18 19  1  0  0  0  0
 32 33  1  0  0  0  0
M  END
>  <MolRegNo>
1789405

>  <m>
=

>  <Value>
2900

>  <Unit>
nM

>  <Type>
IC50

>  <pValue>
5.54

>  <Ligand Efficiency>
0

>  <Binding Efficiency>
0

>  <Surface Efficiency>
0

>  <Assay Index>
904791

>  <Assay Category>


>  <Assay Organism>
Homo sapiens

>  <Target ID>
17045

>  <Target Name>
Cytochrome P450 3A4

>  <Target Organism>
Homo sapiens

>  <Target Description>
Target is a single protein chain

>  <Sequence Accession>
P08684

>  <Reference>
Bioorg Med Chem 22 (17), 4968-4997 (2014)

>  <Pubmed ID>
25043312

>  <DOI>
10.1016/j.bmc.2014.06.027

$$$$
1789406
Actelion Java MolfileCreator 1.0

 33 37  0  0  0  0  0  0  0  0999 V2000
    0.0000   -0.0000   -0.0000 S   0  0  0  0  0  0  0  0  0  0  0  0
    1.2680    0.7703   -0.0000 O   0  0  0  0  0  0  0  0  0  0  0  0
   -0.0356    1.5050   -0.0000 O   0  0  0  0  0  0  0  0  0  0  0  0
    0.7466   -1.2680   -0.0000 N   0  0  0  0  0  0  0  0  0  0  0  0
   -1.5050   -0.0119   -0.0000 C   0  0  0  0  0  0  0  0  0  0  0  0
   -2.2516   -1.3036   -0.0000 C   0  0  0  0  0  0  0  0  0  0  0  0
   -2.2753    1.2917   -0.0000 C   0  0  0  0  0  0  0  0  0  0  0  0
   -3.7567   -1.3036   -0.0000 C   0  0  0  0  0  0  0  0  0  0  0  0
   -3.7922    1.2799   -0.0000 C   0  0  0  0  0  0  0  0  0  0  0  0
   -4.5033   -2.5953   -0.0000 C   0  0  0  0  0  0  0  0  0  0  0  0
   -4.5270   -0.0119   -0.0000 C   0  0  0  0  0  0  0  0  0  0  0  0
   -3.6263   -3.8041   -0.0000 N   0  0  0  0  0  0  0  0  0  0  0  0
   -5.9491   -3.0456   -0.0000 C   0  0  0  0  0  0  0  0  0  0  0  0
   -4.5270   -5.0128   -0.0000 N   0  0  0  0  0  0  0  0  0  0  0  0
   -5.9609   -4.5388   -0.0000 C   0  0  0  0  0  0  0  0  0  0  0  0
   -7.2526   -2.2872   -0.0000 C   0  0  0  0  0  0  0  0  0  0  0  0
   -7.2645   -5.2736   -0.0000 C   0  0  0  0  0  0  0  0  0  0  0  0
   -8.5562   -3.0219   -0.0000 C   0  0  0  0  0  0  0  0  0  0  0  0
   -8.5681   -4.5151   -0.0000 C   0  0  0  0  0  0  0  0  0  0  0  0
   -9.8598   -2.2635   -0.0000 N   0  0  0  0  0  0  0  0  0  0  0  0
  -11.1634   -2.9982   -0.0000 C   0  0  0  0  0  0  0  0  0  0  0  0
  -11.1871   -4.4796   -0.0000 O   0  0  0  0  0  0  0  0  0  0  0  0
  -12.4669   -2.2398   -0.0000 C   0  0  0  0  0  0  0  0  0  0  0  0
  -12.4788   -0.7347   -0.0000 N   0  0  0  0  0  0  0  0  0  0  0  0
  -13.7705   -2.9745   -0.0000 C   0  0  0  0  0  0  0  0  0  0  0  0
  -11.2700    0.1422   -0.0000 C   0  0  0  0  0  0  0  0  0  0  0  0
  -13.6876    0.1541   -0.0000 C   0  0  0  0  0  0  0  0  0  0  0  0
  -13.9483   -4.4559   -0.0000 C   0  0  0  0  0  0  0  0  0  0  0  0
  -15.1570   -2.3583   -0.0000 C   0  0  0  0  0  0  0  0  0  0  0  0
  -11.7440    1.5761   -0.0000 C   0  0  0  0  0  0  0  0  0  0  0  0
  -13.2372    1.5880   -0.0000 C   0  0  0  0  0  0  0  0  0  0  0  0
  -15.4178   -4.7521   -0.0000 S   0  0  0  0  0  0  0  0  0  0  0  0
  -16.1762   -3.4604   -0.0000 C   0  0  0  0  0  0  0  0  0  0  0  0
  1  2  2  0  0  0  0
  1  3  2  0  0  0  0
  1  4  1  0  0  0  0
  1  5  1  0  0  0  0
  5  6  2  0  0  0  0
  5  7  1  0  0  0  0
  6  8  1  0  0  0  0
  7  9  2  0  0  0  0
  8 10  1  0  0  0  0
  8 11  2  0  0  0  0
 10 12  2  0  0  0  0
 10 13  1  0  0  0  0
 12 14  1  0  0  0  0
 13 15  2  0  0  0  0
 13 16  1  0  0  0  0
 15 17  1  0  0  0  0
 16 18  2  0  0  0  0
 17 19  2  0  0  0  0
 18 20  1  0  0  0  0
 20 21  1  0  0  0  0
 21 22  2  0  0  0  0
 21 23  1  0  0  0  0
 23 24  1  0  0  0  0
 23 25  1  0  0  0  0
 24 26  1  0  0  0  0
 24 27  1  0  0  0  0
 25 28  2  0  0  0  0
 25 29  1  0  0  0  0
 26 30  1  0  0  0  0
 27 31  1  0  0  0  0
 28 32  1  0  0  0  0
 29 33  2  0  0  0  0
  9 11  1  0  0  0  0
 14 15  1  0  0  0  0
 18 19  1  0  0  0  0
 30 31  1  0  0  0  0
 32 33  1  0  0  0  0
M  END
>  <MolRegNo>
1789406

>  <m>
=

>  <Value>
4000

>  <Unit>
nM

>  <Type>
IC50

>  <pValue>
5.4

>  <Ligand Efficiency>
0

>  <Binding Efficiency>
0

>  <Surface Efficiency>
0

>  <Assay Index>
904792

>  <Assay Category>


>  <Assay Organism>
Homo sapiens

>  <Target ID>
17045

>  <Target Name>
Cytochrome P450 3A4

>  <Target Organism>
Homo sapiens

>  <Target Description>
Target is a single protein chain

>  <Sequence Accession>
P08684

>  <Reference>
Bioorg Med Chem 22 (17), 4968-4997 (2014)

>  <Pubmed ID>
25043312

>  <DOI>
10.1016/j.bmc.2014.06.027

$$$$
1780097
Actelion Java MolfileCreator 1.0

 25 27  0  0  0  0  0  0  0  0999 V2000
    0.0000   -0.0000   -0.0000 F   0  0  0  0  0  0  0  0  0  0  0  0
    1.4906    0.0119   -0.0000 C   0  0  0  0  0  0  0  0  0  0  0  0
    2.2300   -1.2521   -0.0000 C   0  0  0  0  0  0  0  0  0  0  0  0
    2.2180    1.3356   -0.0000 C   0  0  0  0  0  0  0  0  0  0  0  0
    3.7206   -1.2402   -0.0000 N   0  0  0  0  0  0  0  0  0  0  0  0
    1.4668   -2.5519   -0.0000 C   0  0  0  0  0  0  0  0  0  0  0  0
    3.7087    1.3475   -0.0000 N   0  0  0  0  0  0  0  0  0  0  0  0
    4.4599    0.0715   -0.0000 C   0  0  0  0  0  0  0  0  0  0  0  0
   -0.0477   -2.5400   -0.0000 C   0  0  0  0  0  0  0  0  0  0  0  0
    2.2061   -3.8398   -0.0000 C   0  0  0  0  0  0  0  0  0  0  0  0
   -0.0715   -1.0136   -0.0000 O   0  0  0  0  0  0  0  0  0  0  0  0
   -0.0477   -4.0306   -0.0000 C   0  0  0  0  0  0  0  0  0  0  0  0
   -1.5622   -2.5400   -0.0000 C   0  0  0  0  0  0  0  0  0  0  0  0
   -1.3714   -4.7700   -0.0000 C   0  0  0  0  0  0  0  0  0  0  0  0
    1.2402   -4.7581   -0.0000 C   0  0  0  0  0  0  0  0  0  0  0  0
   -2.3254   -1.2521   -0.0000 N   0  0  0  0  0  0  0  0  0  0  0  0
   -2.6831   -4.0068   -0.0000 F   0  0  0  0  0  0  0  0  0  0  0  0
   -1.3833   -6.2606   -0.0000 C   0  0  0  0  0  0  0  0  0  0  0  0
    1.2402   -6.2606   -0.0000 C   0  0  0  0  0  0  0  0  0  0  0  0
   -3.8279   -1.0852   -0.0000 N   0  0  0  0  0  0  0  0  0  0  0  0
   -1.7410    0.1431   -0.0000 C   0  0  0  0  0  0  0  0  0  0  0  0
   -0.0835   -7.0000   -0.0000 C   0  0  0  0  0  0  0  0  0  0  0  0
   -4.1618    0.3816   -0.0000 N   0  0  0  0  0  0  0  0  0  0  0  0
   -2.8858    1.1329   -0.0000 C   0  0  0  0  0  0  0  0  0  0  0  0
   -0.0954   -8.4906   -0.0000 F   0  0  0  0  0  0  0  0  0  0  0  0
  1  2  1  0  0  0  0
  2  3  2  0  0  0  0
  2  4  1  0  0  0  0
  3  5  1  0  0  0  0
  3  6  1  0  0  0  0
  4  7  2  0  0  0  0
  5  8  2  0  0  0  0
  6  9  1  0  0  0  0
  6 10  1  1  0  0  0
  9 11  1  0  0  0  0
  9 12  1  1  0  0  0
  9 13  1  0  0  0  0
 12 14  2  0  0  0  0
 12 15  1  0  0  0  0
 13 16  1  0  0  0  0
 14 17  1  0  0  0  0
 14 18  1  0  0  0  0
 15 19  2  0  0  0  0
 16 20  1  0  0  0  0
 16 21  1  0  0  0  0
 18 22  2  0  0  0  0
 20 23  2  0  0  0  0
 21 24  2  0  0  0  0
 22 25  1  0  0  0  0
  7  8  1  0  0  0  0
 19 22  1  0  0  0  0
 23 24  1  0  0  0  0
M  END
>  <MolRegNo>
1780097

>  <m>
=

>  <Value>
8000

>  <Unit>
nM

>  <Type>
IC50

>  <pValue>
5.1

>  <Ligand Efficiency>
0

>  <Binding Efficiency>
0

>  <Surface Efficiency>
0

>  <Assay Index>
893072

>  <Assay Category>


>  <Assay Organism>
Homo sapiens

>  <Target ID>
17045

>  <Target Name>
Cytochrome P450 3A4

>  <Target Organism>
Homo sapiens

>  <Target Description>
Target is a single protein chain

>  <Sequence Accession>
P08684

>  <Reference>
Bioorg Med Chem Lett 24 (15), 3455-3458 (2014)

>  <Pubmed ID>
24948565

>  <DOI>
10.1016/j.bmcl.2014.05.068

$$$$
1780098
Actelion Java MolfileCreator 1.0

 25 27  0  0  0  0  0  0  0  0999 V2000
    0.0000   -0.0000   -0.0000 F   0  0  0  0  0  0  0  0  0  0  0  0
    1.4914    0.0119   -0.0000 C   0  0  0  0  0  0  0  0  0  0  0  0
    2.2311   -1.2528   -0.0000 C   0  0  0  0  0  0  0  0  0  0  0  0
    2.2311    1.3363   -0.0000 C   0  0  0  0  0  0  0  0  0  0  0  0
    3.7225   -1.2408   -0.0000 N   0  0  0  0  0  0  0  0  0  0  0  0
    1.4675   -2.5533   -0.0000 C   0  0  0  0  0  0  0  0  0  0  0  0
    3.7225    1.3482   -0.0000 N   0  0  0  0  0  0  0  0  0  0  0  0
    4.4623    0.0597   -0.0000 C   0  0  0  0  0  0  0  0  0  0  0  0
   -0.0477   -2.5413   -0.0000 C   0  0  0  0  0  0  0  0  0  0  0  0
    2.2073   -3.8418   -0.0000 C   0  0  0  0  0  0  0  0  0  0  0  0
   -0.0716   -1.0142   -0.0000 O   0  0  0  0  0  0  0  0  0  0  0  0
   -0.0477   -4.0327   -0.0000 C   0  0  0  0  0  0  0  0  0  0  0  0
   -1.5630   -2.5413   -0.0000 C   0  0  0  0  0  0  0  0  0  0  0  0
   -1.3721   -4.7725   -0.0000 C   0  0  0  0  0  0  0  0  0  0  0  0
    1.2289   -4.7486   -0.0000 C   0  0  0  0  0  0  0  0  0  0  0  0
   -2.3266   -1.2528   -0.0000 N   0  0  0  0  0  0  0  0  0  0  0  0
   -2.6845   -4.0089   -0.0000 F   0  0  0  0  0  0  0  0  0  0  0  0
   -1.3840   -6.2639   -0.0000 C   0  0  0  0  0  0  0  0  0  0  0  0
    1.2289   -6.2519   -0.0000 C   0  0  0  0  0  0  0  0  0  0  0  0
   -1.7420    0.1432   -0.0000 N   0  0  0  0  0  0  0  0  0  0  0  0
   -3.8299   -1.0857   -0.0000 C   0  0  0  0  0  0  0  0  0  0  0  0
   -0.0835   -7.0036   -0.0000 C   0  0  0  0  0  0  0  0  0  0  0  0
   -2.8873    1.1335   -0.0000 N   0  0  0  0  0  0  0  0  0  0  0  0
   -4.1640    0.3818   -0.0000 N   0  0  0  0  0  0  0  0  0  0  0  0
   -0.0954   -8.4950   -0.0000 F   0  0  0  0  0  0  0  0  0  0  0  0
  1  2  1  0  0  0  0
  2  3  2  0  0  0  0
  2  4  1  0  0  0  0
  3  5  1  0  0  0  0
  3  6  1  0  0  0  0
  4  7  2  0  0  0  0
  5  8  2  0  0  0  0
  6  9  1  0  0  0  0
  6 10  1  1  0  0  0
  9 11  1  0  0  0  0
  9 12  1  1  0  0  0
  9 13  1  0  0  0  0
 12 14  2  0  0  0  0
 12 15  1  0  0  0  0
 13 16  1  0  0  0  0
 14 17  1  0  0  0  0
 14 18  1  0  0  0  0
 15 19  2  0  0  0  0
 16 20  1  0  0  0  0
 16 21  1  0  0  0  0
 18 22  2  0  0  0  0
 20 23  2  0  0  0  0
 21 24  2  0  0  0  0
 22 25  1  0  0  0  0
  7  8  1  0  0  0  0
 19 22  1  0  0  0  0
 23 24  1  0  0  0  0
M  END
>  <MolRegNo>
1780098

>  <m>
=

>  <Value>
32000

>  <Unit>
nM

>  <Type>
IC50

>  <pValue>
4.5

>  <Ligand Efficiency>
0

>  <Binding Efficiency>
0

>  <Surface Efficiency>
0

>  <Assay Index>
893072

>  <Assay Category>


>  <Assay Organism>
Homo sapiens

>  <Target ID>
17045

>  <Target Name>
Cytochrome P450 3A4

>  <Target Organism>
Homo sapiens

>  <Target Description>
Target is a single protein chain

>  <Sequence Accession>
P08684

>  <Reference>
Bioorg Med Chem Lett 24 (15), 3455-3458 (2014)

>  <Pubmed ID>
24948565

>  <DOI>
10.1016/j.bmcl.2014.05.068

$$$$
1780099
Actelion Java MolfileCreator 1.0

 25 27  0  0  0  0  0  0  0  0999 V2000
    0.0000   -0.0000   -0.0000 F   0  0  0  0  0  0  0  0  0  0  0  0
    1.4906    0.0119   -0.0000 C   0  0  0  0  0  0  0  0  0  0  0  0
    2.2300   -1.2521   -0.0000 C   0  0  0  0  0  0  0  0  0  0  0  0
    2.2180    1.3356   -0.0000 C   0  0  0  0  0  0  0  0  0  0  0  0
    3.7206   -1.2402   -0.0000 N   0  0  0  0  0  0  0  0  0  0  0  0
    1.4668   -2.5519   -0.0000 C   0  0  0  0  0  0  0  0  0  0  0  0
    3.7087    1.3475   -0.0000 N   0  0  0  0  0  0  0  0  0  0  0  0
    4.4599    0.0715   -0.0000 C   0  0  0  0  0  0  0  0  0  0  0  0
   -0.0477   -2.5400   -0.0000 C   0  0  0  0  0  0  0  0  0  0  0  0
    2.2061   -3.8398   -0.0000 C   0  0  0  0  0  0  0  0  0  0  0  0
   -0.0715   -1.0136   -0.0000 O   0  0  0  0  0  0  0  0  0  0  0  0
   -0.0477   -4.0306   -0.0000 C   0  0  0  0  0  0  0  0  0  0  0  0
   -1.5622   -2.5400   -0.0000 C   0  0  0  0  0  0  0  0  0  0  0  0
   -1.3714   -4.7700   -0.0000 C   0  0  0  0  0  0  0  0  0  0  0  0
    1.2402   -4.7581   -0.0000 C   0  0  0  0  0  0  0  0  0  0  0  0
   -2.3254   -1.2521   -0.0000 N   0  0  0  0  0  0  0  0  0  0  0  0
   -2.6831   -4.0068   -0.0000 F   0  0  0  0  0  0  0  0  0  0  0  0
   -1.3833   -6.2606   -0.0000 C   0  0  0  0  0  0  0  0  0  0  0  0
    1.2402   -6.2606   -0.0000 C   0  0  0  0  0  0  0  0  0  0  0  0
   -3.8279   -1.0852   -0.0000 C   0  0  0  0  0  0  0  0  0  0  0  0
   -1.7410    0.1431   -0.0000 C   0  0  0  0  0  0  0  0  0  0  0  0
   -0.0835   -7.0000   -0.0000 C   0  0  0  0  0  0  0  0  0  0  0  0
   -4.1618    0.3816   -0.0000 N   0  0  0  0  0  0  0  0  0  0  0  0
   -2.8858    1.1329   -0.0000 C   0  0  0  0  0  0  0  0  0  0  0  0
   -0.0954   -8.4906   -0.0000 F   0  0  0  0  0  0  0  0  0  0  0  0
  1  2  1  0  0  0  0
  2  3  2  0  0  0  0
  2  4  1  0  0  0  0
  3  5  1  0  0  0  0
  3  6  1  0  0  0  0
  4  7  2  0  0  0  0
  5  8  2  0  0  0  0
  6  9  1  0  0  0  0
  6 10  1  1  0  0  0
  9 11  1  0  0  0  0
  9 12  1  1  0  0  0
  9 13  1  0  0  0  0
 12 14  2  0  0  0  0
 12 15  1  0  0  0  0
 13 16  1  0  0  0  0
 14 17  1  0  0  0  0
 14 18  1  0  0  0  0
 15 19  2  0  0  0  0
 16 20  1  0  0  0  0
 16 21  1  0  0  0  0
 18 22  2  0  0  0  0
 20 23  2  0  0  0  0
 21 24  2  0  0  0  0
 22 25  1  0  0  0  0
  7  8  1  0  0  0  0
 19 22  1  0  0  0  0
 23 24  1  0  0  0  0
M  END
>  <MolRegNo>
1780099

>  <m>
=

>  <Value>
800

>  <Unit>
nM

>  <Type>
IC50

>  <pValue>
6.1

>  <Ligand Efficiency>
0

>  <Binding Efficiency>
0

>  <Surface Efficiency>
0

>  <Assay Index>
893072

>  <Assay Category>


>  <Assay Organism>
Homo sapiens

>  <Target ID>
17045

>  <Target Name>
Cytochrome P450 3A4

>  <Target Organism>
Homo sapiens

>  <Target Description>
Target is a single protein chain

>  <Sequence Accession>
P08684

>  <Reference>
Bioorg Med Chem Lett 24 (15), 3455-3458 (2014)

>  <Pubmed ID>
24948565

>  <DOI>
10.1016/j.bmcl.2014.05.068

$$$$
1780100
Actelion Java MolfileCreator 1.0

 25 27  0  0  0  0  0  0  0  0999 V2000
    0.0000   -0.0000   -0.0000 F   0  0  0  0  0  0  0  0  0  0  0  0
    1.4906    0.0119   -0.0000 C   0  0  0  0  0  0  0  0  0  0  0  0
    2.2300   -1.2521   -0.0000 C   0  0  0  0  0  0  0  0  0  0  0  0
    2.2180    1.3356   -0.0000 C   0  0  0  0  0  0  0  0  0  0  0  0
    3.7206   -1.2402   -0.0000 N   0  0  0  0  0  0  0  0  0  0  0  0
    1.4668   -2.5519   -0.0000 C   0  0  0  0  0  0  0  0  0  0  0  0
    3.7087    1.3475   -0.0000 N   0  0  0  0  0  0  0  0  0  0  0  0
    4.4599    0.0715   -0.0000 C   0  0  0  0  0  0  0  0  0  0  0  0
   -0.0477   -2.5400   -0.0000 C   0  0  0  0  0  0  0  0  0  0  0  0
    2.2061   -3.8398   -0.0000 C   0  0  0  0  0  0  0  0  0  0  0  0
   -0.0715   -1.0136   -0.0000 O   0  0  0  0  0  0  0  0  0  0  0  0
   -0.0477   -4.0306   -0.0000 C   0  0  0  0  0  0  0  0  0  0  0  0
   -1.5622   -2.5400   -0.0000 C   0  0  0  0  0  0  0  0  0  0  0  0
   -1.3714   -4.7700   -0.0000 C   0  0  0  0  0  0  0  0  0  0  0  0
    1.2402   -4.7581   -0.0000 C   0  0  0  0  0  0  0  0  0  0  0  0
   -2.3254   -1.2521   -0.0000 N   0  0  0  0  0  0  0  0  0  0  0  0
   -2.6831   -4.0068   -0.0000 F   0  0  0  0  0  0  0  0  0  0  0  0
   -1.3833   -6.2606   -0.0000 C   0  0  0  0  0  0  0  0  0  0  0  0
    1.2402   -6.2606   -0.0000 C   0  0  0  0  0  0  0  0  0  0  0  0
   -3.8279   -1.0852   -0.0000 N   0  0  0  0  0  0  0  0  0  0  0  0
   -1.7410    0.1431   -0.0000 N   0  0  0  0  0  0  0  0  0  0  0  0
   -0.0835   -7.0000   -0.0000 C   0  0  0  0  0  0  0  0  0  0  0  0
   -4.1618    0.3816   -0.0000 N   0  0  0  0  0  0  0  0  0  0  0  0
   -2.8858    1.1329   -0.0000 C   0  0  0  0  0  0  0  0  0  0  0  0
   -0.0954   -8.4906   -0.0000 F   0  0  0  0  0  0  0  0  0  0  0  0
  1  2  1  0  0  0  0
  2  3  2  0  0  0  0
  2  4  1  0  0  0  0
  3  5  1  0  0  0  0
  3  6  1  0  0  0  0
  4  7  2  0  0  0  0
  5  8  2  0  0  0  0
  6  9  1  0  0  0  0
  6 10  1  1  0  0  0
  9 11  1  0  0  0  0
  9 12  1  1  0  0  0
  9 13  1  0  0  0  0
 12 14  2  0  0  0  0
 12 15  1  0  0  0  0
 13 16  1  0  0  0  0
 14 17  1  0  0  0  0
 14 18  1  0  0  0  0
 15 19  2  0  0  0  0
 16 20  1  0  0  0  0
 16 21  1  0  0  0  0
 18 22  2  0  0  0  0
 20 23  2  0  0  0  0
 21 24  2  0  0  0  0
 22 25  1  0  0  0  0
  7  8  1  0  0  0  0
 19 22  1  0  0  0  0
 23 24  1  0  0  0  0
M  END
>  <MolRegNo>
1780100

>  <m>
=

>  <Value>
46000

>  <Unit>
nM

>  <Type>
IC50

>  <pValue>
4.34

>  <Ligand Efficiency>
0

>  <Binding Efficiency>
0

>  <Surface Efficiency>
0

>  <Assay Index>
893072

>  <Assay Category>


>  <Assay Organism>
Homo sapiens

>  <Target ID>
17045

>  <Target Name>
Cytochrome P450 3A4

>  <Target Organism>
Homo sapiens

>  <Target Description>
Target is a single protein chain

>  <Sequence Accession>
P08684

>  <Reference>
Bioorg Med Chem Lett 24 (15), 3455-3458 (2014)

>  <Pubmed ID>
24948565

>  <DOI>
10.1016/j.bmcl.2014.05.068

$$$$
27308
Actelion Java MolfileCreator 1.0

 25 27  0  0  1  0  0  0  0  0999 V2000
    0.0000   -0.0000   -0.0000 F   0  0  0  0  0  0  0  0  0  0  0  0
   -0.0238    1.5086   -0.0000 C   0  0  0  0  0  0  0  0  0  0  0  0
    1.2592    2.2689   -0.0000 C   0  0  0  0  0  0  0  0  0  0  0  0
   -1.3304    2.2689   -0.0000 C   0  0  0  0  0  0  0  0  0  0  0  0
    1.2473    3.7894   -0.0000 N   0  0  0  0  0  0  0  0  0  0  0  0
    2.5540    1.5324   -0.0000 C   0  0  0  0  0  0  0  0  0  0  0  0
   -1.3423    3.7775   -0.0000 N   0  0  0  0  0  0  0  0  0  0  0  0
   -0.0594    4.5497   -0.0000 C   0  0  0  0  0  0  0  0  0  0  0  0
    3.8369    2.3045   -0.0000 C   0  0  0  0  0  0  0  0  0  0  0  0
    2.5421    0.0475   -0.0000 C   0  0  0  0  0  0  0  0  0  0  0  0
    3.0529    3.6231   -0.0000 O   0  0  0  0  0  0  0  0  0  0  0  0
    4.5615    3.6231   -0.0000 C   0  0  0  0  0  0  0  0  0  0  0  0
    5.1199    1.5680   -0.0000 C   0  0  0  0  0  0  0  0  0  0  0  0
    6.0464    3.6469   -0.0000 C   0  0  0  0  0  0  0  0  0  0  0  0
    3.7775    4.9179   -0.0000 C   0  0  0  0  0  0  0  0  0  0  0  0
    5.1199    0.0832   -0.0000 N   0  0  0  0  0  0  0  0  0  0  0  0
    6.8067    2.3639   -0.0000 F   0  0  0  0  0  0  0  0  0  0  0  0
    6.7710    4.9654   -0.0000 C   0  0  0  0  0  0  0  0  0  0  0  0
    4.5021    6.2484   -0.0000 C   0  0  0  0  0  0  0  0  0  0  0  0
    6.3196   -0.7840   -0.0000 N   0  0  0  0  0  0  0  0  0  0  0  0
    3.8963   -0.7840   -0.0000 C   0  0  0  0  0  0  0  0  0  0  0  0
    5.9870    6.2721   -0.0000 C   0  0  0  0  0  0  0  0  0  0  0  0
    5.8445   -2.1976   -0.0000 C   0  0  0  0  0  0  0  0  0  0  0  0
    4.3477   -2.1976   -0.0000 N   0  0  0  0  0  0  0  0  0  0  0  0
    6.7116    7.5907   -0.0000 F   0  0  0  0  0  0  0  0  0  0  0  0
  1  2  1  0  0  0  0
  2  3  2  0  0  0  0
  2  4  1  0  0  0  0
  3  5  1  0  0  0  0
  3  6  1  0  0  0  0
  4  7  2  0  0  0  0
  5  8  2  0  0  0  0
  6  9  1  0  0  0  0
  6 10  1  1  0  0  0
  9 11  1  6  0  0  0
  9 12  1  0  0  0  0
  9 13  1  0  0  0  0
 12 14  2  0  0  0  0
 12 15  1  0  0  0  0
 13 16  1  0  0  0  0
 14 17  1  0  0  0  0
 14 18  1  0  0  0  0
 15 19  2  0  0  0  0
 16 20  1  0  0  0  0
 16 21  1  0  0  0  0
 18 22  2  0  0  0  0
 20 23  2  0  0  0  0
 21 24  2  0  0  0  0
 22 25  1  0  0  0  0
  7  8  1  0  0  0  0
 19 22  1  0  0  0  0
 23 24  1  0  0  0  0
M  END
>  <MolRegNo>
27308

>  <m>
=

>  <Value>
13000

>  <Unit>
nM

>  <Type>
IC50

>  <pValue>
4.89

>  <Ligand Efficiency>
0

>  <Binding Efficiency>
0

>  <Surface Efficiency>
0

>  <Assay Index>
893072

>  <Assay Category>


>  <Assay Organism>
Homo sapiens

>  <Target ID>
17045

>  <Target Name>
Cytochrome P450 3A4

>  <Target Organism>
Homo sapiens

>  <Target Description>
Target is a single protein chain

>  <Sequence Accession>
P08684

>  <Reference>
Bioorg Med Chem Lett 24 (15), 3455-3458 (2014)

>  <Pubmed ID>
24948565

>  <DOI>
10.1016/j.bmcl.2014.05.068

$$$$
1780101
Actelion Java MolfileCreator 1.0

 25 27  0  0  0  0  0  0  0  0999 V2000
    0.0000   -0.0000   -0.0000 F   0  0  0  0  0  0  0  0  0  0  0  0
    1.2772   -0.7400   -0.0000 C   0  0  0  0  0  0  0  0  0  0  0  0
    2.5782    0.0239   -0.0000 C   0  0  0  0  0  0  0  0  0  0  0  0
    1.2652   -2.2320   -0.0000 C   0  0  0  0  0  0  0  0  0  0  0  0
    3.8553   -0.6923   -0.0000 C   0  0  0  0  0  0  0  0  0  0  0  0
    2.5543    1.5397   -0.0000 C   0  0  0  0  0  0  0  0  0  0  0  0
    2.5662   -2.9721   -0.0000 C   0  0  0  0  0  0  0  0  0  0  0  0
    3.8553   -2.1962   -0.0000 C   0  0  0  0  0  0  0  0  0  0  0  0
    2.5304    3.0676   -0.0000 O   0  0  0  0  0  0  0  0  0  0  0  0
    4.0463    1.5517   -0.0000 C   0  0  0  0  0  0  0  0  0  0  0  0
    1.0384    1.5397   -0.0000 C   0  0  0  0  0  0  0  0  0  0  0  0
    2.5543   -4.4641   -0.0000 F   0  0  0  0  0  0  0  0  0  0  0  0
    4.4163    0.1313   -0.0000 F   0  0  0  0  0  0  0  0  0  0  0  0
    5.5264    1.5636   -0.0000 F   0  0  0  0  0  0  0  0  0  0  0  0
    4.7864    2.8766   -0.0000 C   0  0  0  0  0  0  0  0  0  0  0  0
    0.2745    2.8288   -0.0000 N   0  0  0  0  0  0  0  0  0  0  0  0
    6.2784    2.8885   -0.0000 N   0  0  0  0  0  0  0  0  0  0  0  0
    4.0224    4.1657   -0.0000 C   0  0  0  0  0  0  0  0  0  0  0  0
    0.8594    4.2254   -0.0000 N   0  0  0  0  0  0  0  0  0  0  0  0
   -1.2294    2.9959   -0.0000 C   0  0  0  0  0  0  0  0  0  0  0  0
    7.0184    4.1896   -0.0000 C   0  0  0  0  0  0  0  0  0  0  0  0
    4.7625    5.4906   -0.0000 C   0  0  0  0  0  0  0  0  0  0  0  0
   -0.2865    5.2161   -0.0000 N   0  0  0  0  0  0  0  0  0  0  0  0
   -1.5636    4.4641   -0.0000 N   0  0  0  0  0  0  0  0  0  0  0  0
    6.2545    5.5025   -0.0000 C   0  0  0  0  0  0  0  0  0  0  0  0
  1  2  1  0  0  0  0
  2  3  2  0  0  0  0
  2  4  1  0  0  0  0
  3  5  1  0  0  0  0
  3  6  1  0  0  0  0
  4  7  2  0  0  0  0
  5  8  2  0  0  0  0
  6  9  1  0  0  0  0
  6 10  1  0  0  0  0
  6 11  1  0  0  0  0
  7 12  1  0  0  0  0
 10 13  1  0  0  0  0
 10 14  1  0  0  0  0
 10 15  1  0  0  0  0
 11 16  1  0  0  0  0
 15 17  2  0  0  0  0
 15 18  1  0  0  0  0
 16 19  1  0  0  0  0
 16 20  1  0  0  0  0
 17 21  1  0  0  0  0
 18 22  2  0  0  0  0
 19 23  2  0  0  0  0
 20 24  2  0  0  0  0
 21 25  2  0  0  0  0
  7  8  1  0  0  0  0
 22 25  1  0  0  0  0
 23 24  1  0  0  0  0
M  END
>  <MolRegNo>
1780101

>  <m>
=

>  <Value>
136000

>  <Unit>
nM

>  <Type>
IC50

>  <pValue>
0

>  <Ligand Efficiency>
0

>  <Binding Efficiency>
0

>  <Surface Efficiency>
0

>  <Assay Index>
893072

>  <Assay Category>


>  <Assay Organism>
Homo sapiens

>  <Target ID>
17045

>  <Target Name>
Cytochrome P450 3A4

>  <Target Organism>
Homo sapiens

>  <Target Description>
Target is a single protein chain

>  <Sequence Accession>
P08684

>  <Reference>
Bioorg Med Chem Lett 24 (15), 3455-3458 (2014)

>  <Pubmed ID>
24948565

>  <DOI>
10.1016/j.bmcl.2014.05.068

$$$$
1823126
Actelion Java MolfileCreator 1.0

 26 28  0  0  0  0  0  0  0  0999 V2000
    0.0000   -0.0000   -0.0000 Cl  0  0  0  0  0  0  0  0  0  0  0  0
   -0.7635   -1.2764   -0.0000 C   0  0  0  0  0  0  0  0  0  0  0  0
   -0.0239   -2.5647   -0.0000 C   0  0  0  0  0  0  0  0  0  0  0  0
   -2.2784   -1.2645   -0.0000 C   0  0  0  0  0  0  0  0  0  0  0  0
   -0.7873   -3.8530   -0.0000 N   0  0  0  0  0  0  0  0  0  0  0  0
   -3.0419   -2.5647   -0.0000 C   0  0  0  0  0  0  0  0  0  0  0  0
   -2.3023   -3.8411   -0.0000 C   0  0  0  0  0  0  0  0  0  0  0  0
   -3.0657   -5.1414   -0.0000 C   0  0  0  0  0  0  0  0  0  0  0  0
   -2.6959   -6.5609   -0.0000 F   0  0  0  0  0  0  0  0  0  0  0  0
   -1.5865   -5.1294   -0.0000 F   0  0  0  0  0  0  0  0  0  0  0  0
   -4.5807   -5.1294   -0.0000 C   0  0  0  0  0  0  0  0  0  0  0  0
   -4.6046   -3.6025   -0.0000 O   0  0  0  0  0  0  0  0  0  0  0  0
   -4.5807   -6.6206   -0.0000 C   0  0  0  0  0  0  0  0  0  0  0  0
   -6.0957   -5.1294   -0.0000 C   0  0  0  0  0  0  0  0  0  0  0  0
   -5.9048   -7.3602   -0.0000 C   0  0  0  0  0  0  0  0  0  0  0  0
   -3.3043   -7.3363   -0.0000 C   0  0  0  0  0  0  0  0  0  0  0  0
   -6.8591   -3.8411   -0.0000 N   0  0  0  0  0  0  0  0  0  0  0  0
   -7.2170   -6.5967   -0.0000 F   0  0  0  0  0  0  0  0  0  0  0  0
   -5.9168   -8.8513   -0.0000 C   0  0  0  0  0  0  0  0  0  0  0  0
   -3.3043   -8.8393   -0.0000 C   0  0  0  0  0  0  0  0  0  0  0  0
   -6.2746   -2.4454   -0.0000 N   0  0  0  0  0  0  0  0  0  0  0  0
   -8.3622   -3.6741   -0.0000 C   0  0  0  0  0  0  0  0  0  0  0  0
   -4.6165   -9.5909   -0.0000 C   0  0  0  0  0  0  0  0  0  0  0  0
   -7.4198   -1.4553   -0.0000 N   0  0  0  0  0  0  0  0  0  0  0  0
   -8.6962   -2.2069   -0.0000 N   0  0  0  0  0  0  0  0  0  0  0  0
   -4.6284  -11.0820   -0.0000 F   0  0  0  0  0  0  0  0  0  0  0  0
  1  2  1  0  0  0  0
  2  3  2  0  0  0  0
  2  4  1  0  0  0  0
  3  5  1  0  0  0  0
  4  6  2  0  0  0  0
  5  7  2  0  0  0  0
  7  8  1  0  0  0  0
  8  9  1  0  0  0  0
  8 10  1  0  0  0  0
  8 11  1  0  0  0  0
 11 12  1  0  0  0  0
 11 13  1  0  0  0  0
 11 14  1  0  0  0  0
 13 15  2  0  0  0  0
 13 16  1  0  0  0  0
 14 17  1  0  0  0  0
 15 18  1  0  0  0  0
 15 19  1  0  0  0  0
 16 20  2  0  0  0  0
 17 21  1  0  0  0  0
 17 22  1  0  0  0  0
 19 23  2  0  0  0  0
 21 24  2  0  0  0  0
 22 25  2  0  0  0  0
 23 26  1  0  0  0  0
  6  7  1  0  0  0  0
 20 23  1  0  0  0  0
 24 25  1  0  0  0  0
M  END
>  <MolRegNo>
1823126

>  <m>
=

>  <Value>
74000

>  <Unit>
nM

>  <Type>
IC50

>  <pValue>
4.13

>  <Ligand Efficiency>
0

>  <Binding Efficiency>
0

>  <Surface Efficiency>
0

>  <Assay Index>
893072

>  <Assay Category>


>  <Assay Organism>
Homo sapiens

>  <Target ID>
17045

>  <Target Name>
Cytochrome P450 3A4

>  <Target Organism>
Homo sapiens

>  <Target Description>
Target is a single protein chain

>  <Sequence Accession>
P08684

>  <Reference>
Bioorg Med Chem Lett 24 (15), 3455-3458 (2014)

>  <Pubmed ID>
24948565

>  <DOI>
10.1016/j.bmcl.2014.05.068

$$$$
1780329
Actelion Java MolfileCreator 1.0

 31 33  0  0  0  0  0  0  0  0999 V2000
    0.0000   -0.0000   -0.0000 F   0  0  0  0  0  0  0  0  0  0  0  0
    1.2890   -0.7400   -0.0000 C   0  0  0  0  0  0  0  0  0  0  0  0
    2.5899    0.0239   -0.0000 C   0  0  0  0  0  0  0  0  0  0  0  0
    1.2771   -2.2319   -0.0000 C   0  0  0  0  0  0  0  0  0  0  0  0
    3.8789   -0.6922   -0.0000 C   0  0  0  0  0  0  0  0  0  0  0  0
    2.5660    1.5396   -0.0000 C   0  0  0  0  0  0  0  0  0  0  0  0
    2.5780   -2.9718   -0.0000 C   0  0  0  0  0  0  0  0  0  0  0  0
    3.8789   -2.1961   -0.0000 C   0  0  0  0  0  0  0  0  0  0  0  0
    2.5422    3.0673   -0.0000 O   0  0  0  0  0  0  0  0  0  0  0  0
    4.0579    1.5516   -0.0000 C   0  0  0  0  0  0  0  0  0  0  0  0
    1.0503    1.5396   -0.0000 C   0  0  0  0  0  0  0  0  0  0  0  0
    2.5660   -4.4637   -0.0000 F   0  0  0  0  0  0  0  0  0  0  0  0
    4.4279    0.1313   -0.0000 F   0  0  0  0  0  0  0  0  0  0  0  0
    5.5379    1.5635   -0.0000 F   0  0  0  0  0  0  0  0  0  0  0  0
    4.7979    2.8764   -0.0000 C   0  0  0  0  0  0  0  0  0  0  0  0
    0.2864    2.8286   -0.0000 N   0  0  0  0  0  0  0  0  0  0  0  0
    6.2898    2.8883   -0.0000 N   0  0  0  0  0  0  0  0  0  0  0  0
    4.0341    4.1653   -0.0000 C   0  0  0  0  0  0  0  0  0  0  0  0
    0.8713    4.2250   -0.0000 N   0  0  0  0  0  0  0  0  0  0  0  0
   -1.2174    2.9957   -0.0000 C   0  0  0  0  0  0  0  0  0  0  0  0
    7.0298    4.2012   -0.0000 C   0  0  0  0  0  0  0  0  0  0  0  0
    4.7740    5.4901   -0.0000 C   0  0  0  0  0  0  0  0  0  0  0  0
   -0.2745    5.2156   -0.0000 N   0  0  0  0  0  0  0  0  0  0  0  0
   -1.5516    4.4637   -0.0000 N   0  0  0  0  0  0  0  0  0  0  0  0
    6.2659    5.5140   -0.0000 C   0  0  0  0  0  0  0  0  0  0  0  0
    7.0059    6.8149   -0.0000 O   0  0  0  0  0  0  0  0  0  0  0  0
    8.4858    6.8269   -0.0000 C   0  0  0  0  0  0  0  0  0  0  0  0
    9.2258    8.1278   -0.0000 C   0  0  0  0  0  0  0  0  0  0  0  0
   10.7058    8.1397   -0.0000 F   0  0  0  0  0  0  0  0  0  0  0  0
    8.4739    9.4407   -0.0000 F   0  0  0  0  0  0  0  0  0  0  0  0
    9.9419    9.4407   -0.0000 F   0  0  0  0  0  0  0  0  0  0  0  0
  1  2  1  0  0  0  0
  2  3  2  0  0  0  0
  2  4  1  0  0  0  0
  3  5  1  0  0  0  0
  3  6  1  0  0  0  0
  4  7  2  0  0  0  0
  5  8  2  0  0  0  0
  6  9  1  0  0  0  0
  6 10  1  0  0  0  0
  6 11  1  0  0  0  0
  7 12  1  0  0  0  0
 10 13  1  0  0  0  0
 10 14  1  0  0  0  0
 10 15  1  0  0  0  0
 11 16  1  0  0  0  0
 15 17  2  0  0  0  0
 15 18  1  0  0  0  0
 16 19  1  0  0  0  0
 16 20  1  0  0  0  0
 17 21  1  0  0  0  0
 18 22  2  0  0  0  0
 19 23  2  0  0  0  0
 20 24  2  0  0  0  0
 21 25  2  0  0  0  0
 25 26  1  0  0  0  0
 26 27  1  0  0  0  0
 27 28  1  0  0  0  0
 28 29  1  0  0  0  0
 28 30  1  0  0  0  0
 28 31  1  0  0  0  0
  7  8  1  0  0  0  0
 22 25  1  0  0  0  0
 23 24  1  0  0  0  0
M  END
>  <MolRegNo>
1780329

>  <m>
=

>  <Value>
72000

>  <Unit>
nM

>  <Type>
IC50

>  <pValue>
4.14

>  <Ligand Efficiency>
0

>  <Binding Efficiency>
0

>  <Surface Efficiency>
0

>  <Assay Index>
893072

>  <Assay Category>


>  <Assay Organism>
Homo sapiens

>  <Target ID>
17045

>  <Target Name>
Cytochrome P450 3A4

>  <Target Organism>
Homo sapiens

>  <Target Description>
Target is a single protein chain

>  <Sequence Accession>
P08684

>  <Reference>
Bioorg Med Chem Lett 24 (15), 3455-3458 (2014)

>  <Pubmed ID>
24948565

>  <DOI>
10.1016/j.bmcl.2014.05.068

$$$$
1780330
Actelion Java MolfileCreator 1.0

 32 35  0  0  0  0  0  0  0  0999 V2000
    0.0000   -0.0000   -0.0000 F   0  0  0  0  0  0  0  0  0  0  0  0
    1.2777   -0.7404   -0.0000 C   0  0  0  0  0  0  0  0  0  0  0  0
    2.5793    0.0239   -0.0000 C   0  0  0  0  0  0  0  0  0  0  0  0
    1.2658   -2.2330   -0.0000 C   0  0  0  0  0  0  0  0  0  0  0  0
    3.8570   -0.6926   -0.0000 C   0  0  0  0  0  0  0  0  0  0  0  0
    2.5554    1.5404   -0.0000 C   0  0  0  0  0  0  0  0  0  0  0  0
    2.5674   -2.9734   -0.0000 C   0  0  0  0  0  0  0  0  0  0  0  0
    3.8570   -2.1972   -0.0000 C   0  0  0  0  0  0  0  0  0  0  0  0
    2.5316    3.0689   -0.0000 O   0  0  0  0  0  0  0  0  0  0  0  0
    4.0481    1.5524   -0.0000 C   0  0  0  0  0  0  0  0  0  0  0  0
    1.0389    1.5404   -0.0000 C   0  0  0  0  0  0  0  0  0  0  0  0
    2.5554   -4.4660   -0.0000 F   0  0  0  0  0  0  0  0  0  0  0  0
    4.4183    0.1314   -0.0000 F   0  0  0  0  0  0  0  0  0  0  0  0
    5.5288    1.5643   -0.0000 F   0  0  0  0  0  0  0  0  0  0  0  0
    4.7885    2.8779   -0.0000 C   0  0  0  0  0  0  0  0  0  0  0  0
    0.2746    2.8301   -0.0000 N   0  0  0  0  0  0  0  0  0  0  0  0
    6.2811    2.8898   -0.0000 N   0  0  0  0  0  0  0  0  0  0  0  0
    4.0242    4.1675   -0.0000 C   0  0  0  0  0  0  0  0  0  0  0  0
    0.8598    4.2272   -0.0000 N   0  0  0  0  0  0  0  0  0  0  0  0
   -1.2300    2.9973   -0.0000 C   0  0  0  0  0  0  0  0  0  0  0  0
    7.0215    4.1914   -0.0000 C   0  0  0  0  0  0  0  0  0  0  0  0
    4.7646    5.4930   -0.0000 C   0  0  0  0  0  0  0  0  0  0  0  0
   -0.2866    5.2183   -0.0000 N   0  0  0  0  0  0  0  0  0  0  0  0
   -1.5643    4.4660   -0.0000 N   0  0  0  0  0  0  0  0  0  0  0  0
    6.2572    5.5049   -0.0000 C   0  0  0  0  0  0  0  0  0  0  0  0
    6.9976    6.8065   -0.0000 C   0  0  0  0  0  0  0  0  0  0  0  0
    8.4783    6.8065   -0.0000 C   0  0  0  0  0  0  0  0  0  0  0  0
    6.2334    8.0962   -0.0000 C   0  0  0  0  0  0  0  0  0  0  0  0
    9.2187    8.1081   -0.0000 C   0  0  0  0  0  0  0  0  0  0  0  0
    6.9618    9.3978   -0.0000 C   0  0  0  0  0  0  0  0  0  0  0  0
    8.4664    9.4217   -0.0000 C   0  0  0  0  0  0  0  0  0  0  0  0
    9.2067   10.7233   -0.0000 F   0  0  0  0  0  0  0  0  0  0  0  0
  1  2  1  0  0  0  0
  2  3  2  0  0  0  0
  2  4  1  0  0  0  0
  3  5  1  0  0  0  0
  3  6  1  0  0  0  0
  4  7  2  0  0  0  0
  5  8  2  0  0  0  0
  6  9  1  0  0  0  0
  6 10  1  0  0  0  0
  6 11  1  0  0  0  0
  7 12  1  0  0  0  0
 10 13  1  0  0  0  0
 10 14  1  0  0  0  0
 10 15  1  0  0  0  0
 11 16  1  0  0  0  0
 15 17  2  0  0  0  0
 15 18  1  0  0  0  0
 16 19  1  0  0  0  0
 16 20  1  0  0  0  0
 17 21  1  0  0  0  0
 18 22  2  0  0  0  0
 19 23  2  0  0  0  0
 20 24  2  0  0  0  0
 21 25  2  0  0  0  0
 25 26  1  0  0  0  0
 26 27  2  0  0  0  0
 26 28  1  0  0  0  0
 27 29  1  0  0  0  0
 28 30  2  0  0  0  0
 29 31  2  0  0  0  0
 31 32  1  0  0  0  0
  7  8  1  0  0  0  0
 22 25  1  0  0  0  0
 23 24  1  0  0  0  0
 30 31  1  0  0  0  0
M  END
>  <MolRegNo>
1780330

>  <m>
=

>  <Value>
53000

>  <Unit>
nM

>  <Type>
IC50

>  <pValue>
4.28

>  <Ligand Efficiency>
0

>  <Binding Efficiency>
0

>  <Surface Efficiency>
0

>  <Assay Index>
893072

>  <Assay Category>


>  <Assay Organism>
Homo sapiens

>  <Target ID>
17045

>  <Target Name>
Cytochrome P450 3A4

>  <Target Organism>
Homo sapiens

>  <Target Description>
Target is a single protein chain

>  <Sequence Accession>
P08684

>  <Reference>
Bioorg Med Chem Lett 24 (15), 3455-3458 (2014)

>  <Pubmed ID>
24948565

>  <DOI>
10.1016/j.bmcl.2014.05.068

$$$$
1780331
Actelion Java MolfileCreator 1.0

 33 36  0  0  0  0  0  0  0  0999 V2000
    0.0000   -0.0000   -0.0000 F   0  0  0  0  0  0  0  0  0  0  0  0
   -0.0122    1.2579   -0.0000 C   0  0  0  0  0  0  0  0  0  0  0  0
    1.3190    2.0395   -0.0000 C   0  0  0  0  0  0  0  0  0  0  0  0
   -1.3678    2.0395   -0.0000 C   0  0  0  0  0  0  0  0  0  0  0  0
    1.3068    3.6027   -0.0000 C   0  0  0  0  0  0  0  0  0  0  0  0
    2.6502    1.2701   -0.0000 C   0  0  0  0  0  0  0  0  0  0  0  0
   -1.3800    3.6027   -0.0000 C   0  0  0  0  0  0  0  0  0  0  0  0
   -0.0489    4.3844   -0.0000 C   0  0  0  0  0  0  0  0  0  0  0  0
    2.6379    2.5280   -0.0000 O   0  0  0  0  0  0  0  0  0  0  0  0
    3.9813    0.5129   -0.0000 C   0  0  0  0  0  0  0  0  0  0  0  0
    1.2945    0.5007   -0.0000 C   0  0  0  0  0  0  0  0  0  0  0  0
   -2.4670    4.2378   -0.0000 F   0  0  0  0  0  0  0  0  0  0  0  0
    3.9691   -0.7205   -0.0000 F   0  0  0  0  0  0  0  0  0  0  0  0
    5.0438   -0.0977   -0.0000 F   0  0  0  0  0  0  0  0  0  0  0  0
    5.3125    1.3068   -0.0000 C   0  0  0  0  0  0  0  0  0  0  0  0
   -0.0611    1.2823   -0.0000 N   0  0  0  0  0  0  0  0  0  0  0  0
    5.3003    2.8700   -0.0000 N   0  0  0  0  0  0  0  0  0  0  0  0
    6.6437    0.5374   -0.0000 C   0  0  0  0  0  0  0  0  0  0  0  0
   -0.2076    2.8211   -0.0000 N   0  0  0  0  0  0  0  0  0  0  0  0
   -1.4655    0.6595   -0.0000 C   0  0  0  0  0  0  0  0  0  0  0  0
    6.6315    3.6516   -0.0000 C   0  0  0  0  0  0  0  0  0  0  0  0
    7.9749    1.3190   -0.0000 C   0  0  0  0  0  0  0  0  0  0  0  0
   -1.7342    3.1631   -0.0000 N   0  0  0  0  0  0  0  0  0  0  0  0
   -2.5158    1.8319   -0.0000 N   0  0  0  0  0  0  0  0  0  0  0  0
    7.9627    2.8822   -0.0000 C   0  0  0  0  0  0  0  0  0  0  0  0
    9.2939    3.6760   -0.0000 C   0  0  0  0  0  0  0  0  0  0  0  0
   10.6250    2.9188   -0.0000 C   0  0  0  0  0  0  0  0  0  0  0  0
    9.2816    5.2392   -0.0000 C   0  0  0  0  0  0  0  0  0  0  0  0
   11.9562    3.7127   -0.0000 C   0  0  0  0  0  0  0  0  0  0  0  0
   10.6128    6.0331   -0.0000 C   0  0  0  0  0  0  0  0  0  0  0  0
   11.9440    5.2759   -0.0000 C   0  0  0  0  0  0  0  0  0  0  0  0
   13.2752    6.0697   -0.0000 C   0  0  0  0  0  0  0  0  0  0  0  0
   14.3377    6.7048   -0.0000 N   0  0  0  0  0  0  0  0  0  0  0  0
  1  2  1  0  0  0  0
  2  3  2  0  0  0  0
  2  4  1  0  0  0  0
  3  5  1  0  0  0  0
  3  6  1  0  0  0  0
  4  7  2  0  0  0  0
  5  8  2  0  0  0  0
  6  9  1  0  0  0  0
  6 10  1  0  0  0  0
  6 11  1  0  0  0  0
  7 12  1  0  0  0  0
 10 13  1  0  0  0  0
 10 14  1  0  0  0  0
 10 15  1  0  0  0  0
 11 16  1  0  0  0  0
 15 17  2  0  0  0  0
 15 18  1  0  0  0  0
 16 19  1  0  0  0  0
 16 20  1  0  0  0  0
 17 21  1  0  0  0  0
 18 22  2  0  0  0  0
 19 23  2  0  0  0  0
 20 24  2  0  0  0  0
 21 25  2  0  0  0  0
 25 26  1  0  0  0  0
 26 27  2  0  0  0  0
 26 28  1  0  0  0  0
 27 29  1  0  0  0  0
 28 30  2  0  0  0  0
 29 31  2  0  0  0  0
 31 32  1  0  0  0  0
 32 33  3  0  0  0  0
  7  8  1  0  0  0  0
 22 25  1  0  0  0  0
 23 24  1  0  0  0  0
 30 31  1  0  0  0  0
M  END
>  <MolRegNo>
1780331

>  <m>
=

>  <Value>
16000

>  <Unit>
nM

>  <Type>
IC50

>  <pValue>
4.8

>  <Ligand Efficiency>
0

>  <Binding Efficiency>
0

>  <Surface Efficiency>
0

>  <Assay Index>
893072

>  <Assay Category>


>  <Assay Organism>
Homo sapiens

>  <Target ID>
17045

>  <Target Name>
Cytochrome P450 3A4

>  <Target Organism>
Homo sapiens

>  <Target Description>
Target is a single protein chain

>  <Sequence Accession>
P08684

>  <Reference>
Bioorg Med Chem Lett 24 (15), 3455-3458 (2014)

>  <Pubmed ID>
24948565

>  <DOI>
10.1016/j.bmcl.2014.05.068

$$$$
1780333
Actelion Java MolfileCreator 1.0

 32 35  0  0  0  0  0  0  0  0999 V2000
    0.0000   -0.0000   -0.0000 Cl  0  0  0  0  0  0  0  0  0  0  0  0
   -1.3089    0.7378   -0.0000 C   0  0  0  0  0  0  0  0  0  0  0  0
   -2.6060   -0.0119   -0.0000 C   0  0  0  0  0  0  0  0  0  0  0  0
   -1.3446    2.2490   -0.0000 C   0  0  0  0  0  0  0  0  0  0  0  0
   -3.9149    0.7259   -0.0000 C   0  0  0  0  0  0  0  0  0  0  0  0
   -2.6536    2.9749   -0.0000 C   0  0  0  0  0  0  0  0  0  0  0  0
   -3.9387    2.2252   -0.0000 C   0  0  0  0  0  0  0  0  0  0  0  0
   -5.2477    2.9630   -0.0000 C   0  0  0  0  0  0  0  0  0  0  0  0
   -6.5447    2.2133   -0.0000 C   0  0  0  0  0  0  0  0  0  0  0  0
   -5.2834    4.4742   -0.0000 C   0  0  0  0  0  0  0  0  0  0  0  0
   -7.8537    2.9511   -0.0000 N   0  0  0  0  0  0  0  0  0  0  0  0
   -6.6161    5.2120   -0.0000 C   0  0  0  0  0  0  0  0  0  0  0  0
   -7.8894    4.4623   -0.0000 C   0  0  0  0  0  0  0  0  0  0  0  0
   -9.2221    5.2001   -0.0000 C   0  0  0  0  0  0  0  0  0  0  0  0
   -8.4962    6.5090   -0.0000 F   0  0  0  0  0  0  0  0  0  0  0  0
   -9.9837    6.5090   -0.0000 F   0  0  0  0  0  0  0  0  0  0  0  0
  -10.5191    4.4504   -0.0000 C   0  0  0  0  0  0  0  0  0  0  0  0
  -11.8281    3.7245   -0.0000 O   0  0  0  0  0  0  0  0  0  0  0  0
  -10.5191    2.9630   -0.0000 C   0  0  0  0  0  0  0  0  0  0  0  0
  -11.8281    5.1882   -0.0000 C   0  0  0  0  0  0  0  0  0  0  0  0
  -11.8400    2.2252   -0.0000 C   0  0  0  0  0  0  0  0  0  0  0  0
   -9.2459    2.2490   -0.0000 C   0  0  0  0  0  0  0  0  0  0  0  0
  -11.8519    6.6875   -0.0000 N   0  0  0  0  0  0  0  0  0  0  0  0
  -13.1489    2.9868   -0.0000 F   0  0  0  0  0  0  0  0  0  0  0  0
  -11.8519    0.7378   -0.0000 C   0  0  0  0  0  0  0  0  0  0  0  0
   -9.2459    0.7497   -0.0000 C   0  0  0  0  0  0  0  0  0  0  0  0
  -10.6738    7.5919   -0.0000 N   0  0  0  0  0  0  0  0  0  0  0  0
  -13.0775    7.5681   -0.0000 C   0  0  0  0  0  0  0  0  0  0  0  0
  -10.5548   -0.0000   -0.0000 C   0  0  0  0  0  0  0  0  0  0  0  0
  -11.1617    9.0198   -0.0000 N   0  0  0  0  0  0  0  0  0  0  0  0
  -12.6491    9.0079   -0.0000 N   0  0  0  0  0  0  0  0  0  0  0  0
  -10.5667   -1.4874   -0.0000 F   0  0  0  0  0  0  0  0  0  0  0  0
  1  2  1  0  0  0  0
  2  3  2  0  0  0  0
  2  4  1  0  0  0  0
  3  5  1  0  0  0  0
  4  6  2  0  0  0  0
  5  7  2  0  0  0  0
  7  8  1  0  0  0  0
  8  9  2  0  0  0  0
  8 10  1  0  0  0  0
  9 11  1  0  0  0  0
 10 12  2  0  0  0  0
 11 13  2  0  0  0  0
 13 14  1  0  0  0  0
 14 15  1  0  0  0  0
 14 16  1  0  0  0  0
 14 17  1  0  0  0  0
 17 18  1  1  0  0  0
 17 19  1  0  0  0  0
 17 20  1  0  0  0  0
 19 21  2  0  0  0  0
 19 22  1  0  0  0  0
 20 23  1  0  0  0  0
 21 24  1  0  0  0  0
 21 25  1  0  0  0  0
 22 26  2  0  0  0  0
 23 27  1  0  0  0  0
 23 28  1  0  0  0  0
 25 29  2  0  0  0  0
 27 30  2  0  0  0  0
 28 31  2  0  0  0  0
 29 32  1  0  0  0  0
  6  7  1  0  0  0  0
 12 13  1  0  0  0  0
 26 29  1  0  0  0  0
 30 31  1  0  0  0  0
M  END
>  <MolRegNo>
1780333

>  <m>
=

>  <Value>
36000

>  <Unit>
nM

>  <Type>
IC50

>  <pValue>
4.44

>  <Ligand Efficiency>
0

>  <Binding Efficiency>
0

>  <Surface Efficiency>
0

>  <Assay Index>
893072

>  <Assay Category>


>  <Assay Organism>
Homo sapiens

>  <Target ID>
17045

>  <Target Name>
Cytochrome P450 3A4

>  <Target Organism>
Homo sapiens

>  <Target Description>
Target is a single protein chain

>  <Sequence Accession>
P08684

>  <Reference>
Bioorg Med Chem Lett 24 (15), 3455-3458 (2014)

>  <Pubmed ID>
24948565

>  <DOI>
10.1016/j.bmcl.2014.05.068

$$$$
1780334
Actelion Java MolfileCreator 1.0

 35 38  0  0  0  0  0  0  0  0999 V2000
    0.0000   -0.0000   -0.0000 F   0  0  0  0  0  0  0  0  0  0  0  0
    1.2949   -0.7434   -0.0000 C   0  0  0  0  0  0  0  0  0  0  0  0
    2.6019    0.0240   -0.0000 C   0  0  0  0  0  0  0  0  0  0  0  0
    1.2829   -2.2422   -0.0000 C   0  0  0  0  0  0  0  0  0  0  0  0
    3.8848   -0.6954   -0.0000 C   0  0  0  0  0  0  0  0  0  0  0  0
    2.5779    1.5467   -0.0000 C   0  0  0  0  0  0  0  0  0  0  0  0
    2.5899   -2.9855   -0.0000 C   0  0  0  0  0  0  0  0  0  0  0  0
    3.8848   -2.2062   -0.0000 C   0  0  0  0  0  0  0  0  0  0  0  0
    1.2590    0.8153   -0.0000 O   0  0  0  0  0  0  0  0  0  0  0  0
    3.8608    2.3261   -0.0000 C   0  0  0  0  0  0  0  0  0  0  0  0
    1.2590    2.2901   -0.0000 C   0  0  0  0  0  0  0  0  0  0  0  0
    2.5779   -4.4843   -0.0000 F   0  0  0  0  0  0  0  0  0  0  0  0
    4.5922    3.6450   -0.0000 F   0  0  0  0  0  0  0  0  0  0  0  0
    3.0935    3.6450   -0.0000 F   0  0  0  0  0  0  0  0  0  0  0  0
    5.1797    1.6067   -0.0000 C   0  0  0  0  0  0  0  0  0  0  0  0
    1.2350    3.8009   -0.0000 N   0  0  0  0  0  0  0  0  0  0  0  0
    5.1917    0.1079   -0.0000 N   0  0  0  0  0  0  0  0  0  0  0  0
    6.4387    2.3980   -0.0000 C   0  0  0  0  0  0  0  0  0  0  0  0
    2.4220    4.7121   -0.0000 N   0  0  0  0  0  0  0  0  0  0  0  0
    0.0000    4.6881   -0.0000 C   0  0  0  0  0  0  0  0  0  0  0  0
    6.4987   -0.6115   -0.0000 C   0  0  0  0  0  0  0  0  0  0  0  0
    7.7576    1.6786   -0.0000 C   0  0  0  0  0  0  0  0  0  0  0  0
    1.9304    6.1509   -0.0000 N   0  0  0  0  0  0  0  0  0  0  0  0
    0.4316    6.1390   -0.0000 N   0  0  0  0  0  0  0  0  0  0  0  0
    7.7816    0.1679   -0.0000 C   0  0  0  0  0  0  0  0  0  0  0  0
    9.0765   -0.5515   -0.0000 C   0  0  0  0  0  0  0  0  0  0  0  0
    9.0765   -2.0383   -0.0000 C   0  0  0  0  0  0  0  0  0  0  0  0
   10.3355    0.2278   -0.0000 C   0  0  0  0  0  0  0  0  0  0  0  0
   10.3715   -2.7577   -0.0000 C   0  0  0  0  0  0  0  0  0  0  0  0
   11.6304   -0.4796   -0.0000 C   0  0  0  0  0  0  0  0  0  0  0  0
   11.6544   -1.9784   -0.0000 C   0  0  0  0  0  0  0  0  0  0  0  0
   12.9134   -2.7697   -0.0000 C   0  0  0  0  0  0  0  0  0  0  0  0
   14.2203   -2.0383   -0.0000 F   0  0  0  0  0  0  0  0  0  0  0  0
   12.8654   -4.2565   -0.0000 F   0  0  0  0  0  0  0  0  0  0  0  0
   14.1604   -3.5731   -0.0000 F   0  0  0  0  0  0  0  0  0  0  0  0
  1  2  1  0  0  0  0
  2  3  2  0  0  0  0
  2  4  1  0  0  0  0
  3  5  1  0  0  0  0
  3  6  1  0  0  0  0
  4  7  2  0  0  0  0
  5  8  2  0  0  0  0
  6  9  1  1  0  0  0
  6 10  1  0  0  0  0
  6 11  1  0  0  0  0
  7 12  1  0  0  0  0
 10 13  1  0  0  0  0
 10 14  1  0  0  0  0
 10 15  1  0  0  0  0
 11 16  1  0  0  0  0
 15 17  2  0  0  0  0
 15 18  1  0  0  0  0
 16 19  1  0  0  0  0
 16 20  1  0  0  0  0
 17 21  1  0  0  0  0
 18 22  2  0  0  0  0
 19 23  2  0  0  0  0
 20 24  2  0  0  0  0
 21 25  2  0  0  0  0
 25 26  1  0  0  0  0
 26 27  2  0  0  0  0
 26 28  1  0  0  0  0
 27 29  1  0  0  0  0
 28 30  2  0  0  0  0
 29 31  2  0  0  0  0
 31 32  1  0  0  0  0
 32 33  1  0  0  0  0
 32 34  1  0  0  0  0
 32 35  1  0  0  0  0
  7  8  1  0  0  0  0
 22 25  1  0  0  0  0
 23 24  1  0  0  0  0
 30 31  1  0  0  0  0
M  END
>  <MolRegNo>
1780334

>  <m>
=

>  <Value>
54000

>  <Unit>
nM

>  <Type>
IC50

>  <pValue>
4.27

>  <Ligand Efficiency>
0

>  <Binding Efficiency>
0

>  <Surface Efficiency>
0

>  <Assay Index>
893072

>  <Assay Category>


>  <Assay Organism>
Homo sapiens

>  <Target ID>
17045

>  <Target Name>
Cytochrome P450 3A4

>  <Target Organism>
Homo sapiens

>  <Target Description>
Target is a single protein chain

>  <Sequence Accession>
P08684

>  <Reference>
Bioorg Med Chem Lett 24 (15), 3455-3458 (2014)

>  <Pubmed ID>
24948565

>  <DOI>
10.1016/j.bmcl.2014.05.068

$$$$
1780335
Actelion Java MolfileCreator 1.0

 36 39  0  0  0  0  0  0  0  0999 V2000
    0.0000   -0.0000   -0.0000 F   0  0  0  0  0  0  0  0  0  0  0  0
    1.2954   -0.7436   -0.0000 C   0  0  0  0  0  0  0  0  0  0  0  0
    2.6028    0.0240   -0.0000 C   0  0  0  0  0  0  0  0  0  0  0  0
    1.2834   -2.2429   -0.0000 C   0  0  0  0  0  0  0  0  0  0  0  0
    3.8861   -0.6957   -0.0000 C   0  0  0  0  0  0  0  0  0  0  0  0
    2.5788    1.5473   -0.0000 C   0  0  0  0  0  0  0  0  0  0  0  0
    2.5908   -2.9866   -0.0000 C   0  0  0  0  0  0  0  0  0  0  0  0
    3.8861   -2.2069   -0.0000 C   0  0  0  0  0  0  0  0  0  0  0  0
    1.2594    0.8156   -0.0000 O   0  0  0  0  0  0  0  0  0  0  0  0
    3.8622    2.3269   -0.0000 C   0  0  0  0  0  0  0  0  0  0  0  0
    1.2594    2.2909   -0.0000 C   0  0  0  0  0  0  0  0  0  0  0  0
    2.5788   -4.4859   -0.0000 F   0  0  0  0  0  0  0  0  0  0  0  0
    4.5938    3.6463   -0.0000 F   0  0  0  0  0  0  0  0  0  0  0  0
    3.0945    3.6463   -0.0000 F   0  0  0  0  0  0  0  0  0  0  0  0
    5.1815    1.6072   -0.0000 C   0  0  0  0  0  0  0  0  0  0  0  0
    1.2354    3.8022   -0.0000 N   0  0  0  0  0  0  0  0  0  0  0  0
    5.1935    0.1079   -0.0000 N   0  0  0  0  0  0  0  0  0  0  0  0
    6.4409    2.3989   -0.0000 C   0  0  0  0  0  0  0  0  0  0  0  0
    2.4228    4.7138   -0.0000 N   0  0  0  0  0  0  0  0  0  0  0  0
    0.0000    4.6898   -0.0000 C   0  0  0  0  0  0  0  0  0  0  0  0
    6.4889   -0.6117   -0.0000 C   0  0  0  0  0  0  0  0  0  0  0  0
    7.7603    1.6792   -0.0000 C   0  0  0  0  0  0  0  0  0  0  0  0
    1.9311    6.1531   -0.0000 N   0  0  0  0  0  0  0  0  0  0  0  0
    0.4318    6.1411   -0.0000 N   0  0  0  0  0  0  0  0  0  0  0  0
    7.7723    0.1679   -0.0000 C   0  0  0  0  0  0  0  0  0  0  0  0
    9.0677   -0.5517   -0.0000 C   0  0  0  0  0  0  0  0  0  0  0  0
    9.0677   -2.0390   -0.0000 C   0  0  0  0  0  0  0  0  0  0  0  0
   10.3271    0.2279   -0.0000 C   0  0  0  0  0  0  0  0  0  0  0  0
   10.3631   -2.7587   -0.0000 C   0  0  0  0  0  0  0  0  0  0  0  0
   11.6225   -0.4798   -0.0000 C   0  0  0  0  0  0  0  0  0  0  0  0
   11.6464   -1.9791   -0.0000 C   0  0  0  0  0  0  0  0  0  0  0  0
   12.9418   -2.6987   -0.0000 O   0  0  0  0  0  0  0  0  0  0  0  0
   12.9538   -4.1860   -0.0000 C   0  0  0  0  0  0  0  0  0  0  0  0
   14.2492   -4.9057   -0.0000 F   0  0  0  0  0  0  0  0  0  0  0  0
   11.6464   -4.9416   -0.0000 F   0  0  0  0  0  0  0  0  0  0  0  0
   12.9298   -5.6733   -0.0000 F   0  0  0  0  0  0  0  0  0  0  0  0
  1  2  1  0  0  0  0
  2  3  2  0  0  0  0
  2  4  1  0  0  0  0
  3  5  1  0  0  0  0
  3  6  1  0  0  0  0
  4  7  2  0  0  0  0
  5  8  2  0  0  0  0
  6  9  1  1  0  0  0
  6 10  1  0  0  0  0
  6 11  1  0  0  0  0
  7 12  1  0  0  0  0
 10 13  1  0  0  0  0
 10 14  1  0  0  0  0
 10 15  1  0  0  0  0
 11 16  1  0  0  0  0
 15 17  2  0  0  0  0
 15 18  1  0  0  0  0
 16 19  1  0  0  0  0
 16 20  1  0  0  0  0
 17 21  1  0  0  0  0
 18 22  2  0  0  0  0
 19 23  2  0  0  0  0
 20 24  2  0  0  0  0
 21 25  2  0  0  0  0
 25 26  1  0  0  0  0
 26 27  2  0  0  0  0
 26 28  1  0  0  0  0
 27 29  1  0  0  0  0
 28 30  2  0  0  0  0
 29 31  2  0  0  0  0
 31 32  1  0  0  0  0
 32 33  1  0  0  0  0
 33 34  1  0  0  0  0
 33 35  1  0  0  0  0
 33 36  1  0  0  0  0
  7  8  1  0  0  0  0
 22 25  1  0  0  0  0
 23 24  1  0  0  0  0
 30 31  1  0  0  0  0
M  END
>  <MolRegNo>
1780335

>  <m>
=

>  <Value>
79000

>  <Unit>
nM

>  <Type>
IC50

>  <pValue>
4.1

>  <Ligand Efficiency>
0

>  <Binding Efficiency>
0

>  <Surface Efficiency>
0

>  <Assay Index>
893072

>  <Assay Category>


>  <Assay Organism>
Homo sapiens

>  <Target ID>
17045

>  <Target Name>
Cytochrome P450 3A4

>  <Target Organism>
Homo sapiens

>  <Target Description>
Target is a single protein chain

>  <Sequence Accession>
P08684

>  <Reference>
Bioorg Med Chem Lett 24 (15), 3455-3458 (2014)

>  <Pubmed ID>
24948565

>  <DOI>
10.1016/j.bmcl.2014.05.068

$$$$
1780336
Actelion Java MolfileCreator 1.0

 37 40  0  0  0  0  0  0  0  0999 V2000
    0.0000   -0.0000   -0.0000 F   0  0  0  0  0  0  0  0  0  0  0  0
    1.2929   -0.7354   -0.0000 C   0  0  0  0  0  0  0  0  0  0  0  0
    2.5857    0.0237   -0.0000 C   0  0  0  0  0  0  0  0  0  0  0  0
    1.2810   -2.2299   -0.0000 C   0  0  0  0  0  0  0  0  0  0  0  0
    3.8786   -0.7117   -0.0000 C   0  0  0  0  0  0  0  0  0  0  0  0
    2.5738    1.5419   -0.0000 C   0  0  0  0  0  0  0  0  0  0  0  0
    2.5738   -2.9653   -0.0000 C   0  0  0  0  0  0  0  0  0  0  0  0
    3.8667   -2.2062   -0.0000 C   0  0  0  0  0  0  0  0  0  0  0  0
    2.4790    3.0601   -0.0000 O   0  0  0  0  0  0  0  0  0  0  0  0
    3.8667    2.3010   -0.0000 C   0  0  0  0  0  0  0  0  0  0  0  0
    1.3284    2.4197   -0.0000 C   0  0  0  0  0  0  0  0  0  0  0  0
    2.5620   -4.4597   -0.0000 F   0  0  0  0  0  0  0  0  0  0  0  0
    3.8548    3.8193   -0.0000 F   0  0  0  0  0  0  0  0  0  0  0  0
    5.0291    3.2618   -0.0000 F   0  0  0  0  0  0  0  0  0  0  0  0
    5.1596    1.5657   -0.0000 C   0  0  0  0  0  0  0  0  0  0  0  0
   -0.1898    2.5145   -0.0000 N   0  0  0  0  0  0  0  0  0  0  0  0
    5.1477    0.0712   -0.0000 N   0  0  0  0  0  0  0  0  0  0  0  0
    6.4524    2.3248   -0.0000 C   0  0  0  0  0  0  0  0  0  0  0  0
   -0.7354    3.9379   -0.0000 N   0  0  0  0  0  0  0  0  0  0  0  0
   -1.3759    1.5775   -0.0000 C   0  0  0  0  0  0  0  0  0  0  0  0
    6.4405   -0.6642   -0.0000 C   0  0  0  0  0  0  0  0  0  0  0  0
    7.7453    1.5894   -0.0000 C   0  0  0  0  0  0  0  0  0  0  0  0
   -2.2536    3.8667   -0.0000 N   0  0  0  0  0  0  0  0  0  0  0  0
   -2.6450    2.4078   -0.0000 N   0  0  0  0  0  0  0  0  0  0  0  0
    7.7334    0.0949   -0.0000 C   0  0  0  0  0  0  0  0  0  0  0  0
    9.0262   -0.6405   -0.0000 C   0  0  0  0  0  0  0  0  0  0  0  0
    9.0144   -2.1350   -0.0000 C   0  0  0  0  0  0  0  0  0  0  0  0
   10.3191    0.1186   -0.0000 C   0  0  0  0  0  0  0  0  0  0  0  0
   10.3072   -2.8704   -0.0000 C   0  0  0  0  0  0  0  0  0  0  0  0
   11.6120   -0.6168   -0.0000 C   0  0  0  0  0  0  0  0  0  0  0  0
   11.6001   -2.1113   -0.0000 C   0  0  0  0  0  0  0  0  0  0  0  0
   12.8929   -2.8466   -0.0000 O   0  0  0  0  0  0  0  0  0  0  0  0
   12.8811   -4.3411   -0.0000 C   0  0  0  0  0  0  0  0  0  0  0  0
   14.1739   -5.0765   -0.0000 C   0  0  0  0  0  0  0  0  0  0  0  0
   15.4668   -5.8119   -0.0000 F   0  0  0  0  0  0  0  0  0  0  0  0
   13.4148   -6.3694   -0.0000 F   0  0  0  0  0  0  0  0  0  0  0  0
   14.9093   -3.7599   -0.0000 F   0  0  0  0  0  0  0  0  0  0  0  0
  1  2  1  0  0  0  0
  2  3  2  0  0  0  0
  2  4  1  0  0  0  0
  3  5  1  0  0  0  0
  3  6  1  0  0  0  0
  4  7  2  0  0  0  0
  5  8  2  0  0  0  0
  6  9  1  1  0  0  0
  6 10  1  0  0  0  0
  6 11  1  0  0  0  0
  7 12  1  0  0  0  0
 10 13  1  0  0  0  0
 10 14  1  0  0  0  0
 10 15  1  0  0  0  0
 11 16  1  0  0  0  0
 15 17  2  0  0  0  0
 15 18  1  0  0  0  0
 16 19  1  0  0  0  0
 16 20  1  0  0  0  0
 17 21  1  0  0  0  0
 18 22  2  0  0  0  0
 19 23  2  0  0  0  0
 20 24  2  0  0  0  0
 21 25  2  0  0  0  0
 25 26  1  0  0  0  0
 26 27  2  0  0  0  0
 26 28  1  0  0  0  0
 27 29  1  0  0  0  0
 28 30  2  0  0  0  0
 29 31  2  0  0  0  0
 31 32  1  0  0  0  0
 32 33  1  0  0  0  0
 33 34  1  0  0  0  0
 34 35  1  0  0  0  0
 34 36  1  0  0  0  0
 34 37  1  0  0  0  0
  7  8  1  0  0  0  0
 22 25  1  0  0  0  0
 23 24  1  0  0  0  0
 30 31  1  0  0  0  0
M  END
>  <MolRegNo>
1780336

>  <m>
=

>  <Value>
65000

>  <Unit>
nM

>  <Type>
IC50

>  <pValue>
4.19

>  <Ligand Efficiency>
0

>  <Binding Efficiency>
0

>  <Surface Efficiency>
0

>  <Assay Index>
893072

>  <Assay Category>


>  <Assay Organism>
Homo sapiens

>  <Target ID>
17045

>  <Target Name>
Cytochrome P450 3A4

>  <Target Organism>
Homo sapiens

>  <Target Description>
Target is a single protein chain

>  <Sequence Accession>
P08684

>  <Reference>
Bioorg Med Chem Lett 24 (15), 3455-3458 (2014)

>  <Pubmed ID>
24948565

>  <DOI>
10.1016/j.bmcl.2014.05.068

$$$$
1823127
Actelion Java MolfileCreator 1.0

 25 27  0  0  0  0  0  0  0  0999 V2000
    0.0000   -0.0000   -0.0000 F   0  0  0  0  0  0  0  0  0  0  0  0
   -0.0119   -1.4862   -0.0000 C   0  0  0  0  0  0  0  0  0  0  0  0
   -1.3197   -2.2234   -0.0000 C   0  0  0  0  0  0  0  0  0  0  0  0
    1.2722   -2.2234   -0.0000 C   0  0  0  0  0  0  0  0  0  0  0  0
   -1.3316   -3.7214   -0.0000 N   0  0  0  0  0  0  0  0  0  0  0  0
   -2.6276   -1.4624   -0.0000 C   0  0  0  0  0  0  0  0  0  0  0  0
    1.2603   -3.7214   -0.0000 N   0  0  0  0  0  0  0  0  0  0  0  0
   -0.0476   -4.4586   -0.0000 C   0  0  0  0  0  0  0  0  0  0  0  0
   -3.9354   -2.1996   -0.0000 C   0  0  0  0  0  0  0  0  0  0  0  0
   -2.6395    0.0476   -0.0000 C   0  0  0  0  0  0  0  0  0  0  0  0
   -3.9592   -0.6896   -0.0000 O   0  0  0  0  0  0  0  0  0  0  0  0
   -3.9473   -3.6858   -0.0000 C   0  0  0  0  0  0  0  0  0  0  0  0
   -5.2433   -1.4386   -0.0000 C   0  0  0  0  0  0  0  0  0  0  0  0
   -5.2671   -4.4229   -0.0000 C   0  0  0  0  0  0  0  0  0  0  0  0
   -2.6633   -4.4229   -0.0000 C   0  0  0  0  0  0  0  0  0  0  0  0
   -5.2552    0.0713   -0.0000 N   0  0  0  0  0  0  0  0  0  0  0  0
   -6.5749   -3.6620   -0.0000 F   0  0  0  0  0  0  0  0  0  0  0  0
   -5.2790   -5.9091   -0.0000 C   0  0  0  0  0  0  0  0  0  0  0  0
   -2.6752   -5.9091   -0.0000 C   0  0  0  0  0  0  0  0  0  0  0  0
   -4.0543    0.9631   -0.0000 C   0  0  0  0  0  0  0  0  0  0  0  0
   -6.4917    0.9631   -0.0000 C   0  0  0  0  0  0  0  0  0  0  0  0
   -3.9830   -6.6463   -0.0000 C   0  0  0  0  0  0  0  0  0  0  0  0
   -4.5299    2.4017   -0.0000 N   0  0  0  0  0  0  0  0  0  0  0  0
   -6.0399    2.4017   -0.0000 N   0  0  0  0  0  0  0  0  0  0  0  0
   -3.9949   -8.1325   -0.0000 F   0  0  0  0  0  0  0  0  0  0  0  0
  1  2  1  0  0  0  0
  2  3  2  0  0  0  0
  2  4  1  0  0  0  0
  3  5  1  0  0  0  0
  3  6  1  0  0  0  0
  4  7  2  0  0  0  0
  5  8  2  0  0  0  0
  6  9  1  0  0  0  0
  6 10  1  6  0  0  0
  9 11  1  1  0  0  0
  9 12  1  0  0  0  0
  9 13  1  0  0  0  0
 12 14  2  0  0  0  0
 12 15  1  0  0  0  0
 13 16  1  0  0  0  0
 14 17  1  0  0  0  0
 14 18  1  0  0  0  0
 15 19  2  0  0  0  0
 16 20  1  0  0  0  0
 16 21  1  0  0  0  0
 18 22  2  0  0  0  0
 20 23  2  0  0  0  0
 21 24  2  0  0  0  0
 22 25  1  0  0  0  0
  7  8  1  0  0  0  0
 19 22  1  0  0  0  0
 23 24  1  0  0  0  0
M  END
>  <MolRegNo>
1823127

>  <m>
=

>  <Value>
51000

>  <Unit>
nM

>  <Type>
IC50

>  <pValue>
4.29

>  <Ligand Efficiency>
0

>  <Binding Efficiency>
0

>  <Surface Efficiency>
0

>  <Assay Index>
893072

>  <Assay Category>


>  <Assay Organism>
Homo sapiens

>  <Target ID>
17045

>  <Target Name>
Cytochrome P450 3A4

>  <Target Organism>
Homo sapiens

>  <Target Description>
Target is a single protein chain

>  <Sequence Accession>
P08684

>  <Reference>
Bioorg Med Chem Lett 24 (15), 3455-3458 (2014)

>  <Pubmed ID>
24948565

>  <DOI>
10.1016/j.bmcl.2014.05.068

$$$$
1784206
Actelion Java MolfileCreator 1.0

 38 41  0  0  0  0  0  0  0  0999 V2000
    0.0000   -0.0000   -0.0000 S   0  0  0  0  0  0  0  0  0  0  0  0
   -1.5162    0.0239   -0.0000 O   0  0  0  0  0  0  0  0  0  0  0  0
   -0.7641    1.3251   -0.0000 O   0  0  0  0  0  0  0  0  0  0  0  0
    1.3013    0.7641   -0.0000 N   0  0  0  0  0  0  0  0  0  0  0  0
    0.0000   -1.5042   -0.0000 C   0  0  0  0  0  0  0  0  0  0  0  0
    2.6025    0.0239   -0.0000 C   0  0  0  0  0  0  0  0  0  0  0  0
    1.2893    2.2802   -0.0000 C   0  0  0  0  0  0  0  0  0  0  0  0
   -1.3132   -2.2444   -0.0000 C   0  0  0  0  0  0  0  0  0  0  0  0
    1.2893   -2.2444   -0.0000 C   0  0  0  0  0  0  0  0  0  0  0  0
    3.8919    0.7879   -0.0000 C   0  0  0  0  0  0  0  0  0  0  0  0
    2.5906    3.0443   -0.0000 C   0  0  0  0  0  0  0  0  0  0  0  0
   -1.3251   -3.7486   -0.0000 N   0  0  0  0  0  0  0  0  0  0  0  0
    1.2774   -3.7486   -0.0000 C   0  0  0  0  0  0  0  0  0  0  0  0
    3.8799    2.3041   -0.0000 N   0  0  0  0  0  0  0  0  0  0  0  0
   -0.0358   -4.4888   -0.0000 C   0  0  0  0  0  0  0  0  0  0  0  0
    5.1693    3.0681   -0.0000 C   0  0  0  0  0  0  0  0  0  0  0  0
   -0.0478   -5.9811   -0.0000 N   0  0  0  0  0  0  0  0  0  0  0  0
    5.1573    4.5843   -0.0000 N   0  0  0  0  0  0  0  0  0  0  0  0
    6.4586    2.3280   -0.0000 C   0  0  0  0  0  0  0  0  0  0  0  0
    6.4467    5.3484   -0.0000 C   0  0  0  0  0  0  0  0  0  0  0  0
    6.4467    0.8476   -0.0000 C   0  0  0  0  0  0  0  0  0  0  0  0
    7.7479    3.0920   -0.0000 C   0  0  0  0  0  0  0  0  0  0  0  0
    7.7479    4.6082   -0.0000 C   0  0  0  0  0  0  0  0  0  0  0  0
    7.7241    0.1194   -0.0000 C   0  0  0  0  0  0  0  0  0  0  0  0
    5.1335    0.1194   -0.0000 C   0  0  0  0  0  0  0  0  0  0  0  0
    9.0373    5.3722   -0.0000 C   0  0  0  0  0  0  0  0  0  0  0  0
    7.7241   -1.3610   -0.0000 N   0  0  0  0  0  0  0  0  0  0  0  0
    5.1215   -1.3610   -0.0000 C   0  0  0  0  0  0  0  0  0  0  0  0
   10.3266    6.1482   -0.0000 O   0  0  0  0  0  0  0  0  0  0  0  0
   10.3266    4.6321   -0.0000 C   0  0  0  0  0  0  0  0  0  0  0  0
    9.0253    6.8884   -0.0000 C   0  0  0  0  0  0  0  0  0  0  0  0
    6.4109   -2.1011   -0.0000 C   0  0  0  0  0  0  0  0  0  0  0  0
   10.3147    3.1398   -0.0000 F   0  0  0  0  0  0  0  0  0  0  0  0
   11.6159    5.3961   -0.0000 F   0  0  0  0  0  0  0  0  0  0  0  0
   11.6040    3.8919   -0.0000 F   0  0  0  0  0  0  0  0  0  0  0  0
   10.3147    7.6524   -0.0000 F   0  0  0  0  0  0  0  0  0  0  0  0
    7.7121    7.6524   -0.0000 F   0  0  0  0  0  0  0  0  0  0  0  0
    9.0015    8.4046   -0.0000 F   0  0  0  0  0  0  0  0  0  0  0  0
  1  2  2  0  0  0  0
  1  3  2  0  0  0  0
  1  4  1  0  0  0  0
  1  5  1  0  0  0  0
  4  6  1  0  0  0  0
  4  7  1  0  0  0  0
  5  8  2  0  0  0  0
  5  9  1  0  0  0  0
  6 10  1  0  0  0  0
  7 11  1  0  0  0  0
  8 12  1  0  0  0  0
  9 13  2  0  0  0  0
 10 14  1  0  0  0  0
 12 15  2  0  0  0  0
 14 16  1  0  0  0  0
 15 17  1  0  0  0  0
 16 18  2  0  0  0  0
 16 19  1  0  0  0  0
 18 20  1  0  0  0  0
 19 21  1  0  0  0  0
 19 22  2  0  0  0  0
 20 23  2  0  0  0  0
 21 24  2  0  0  0  0
 21 25  1  0  0  0  0
 23 26  1  0  0  0  0
 24 27  1  0  0  0  0
 25 28  2  0  0  0  0
 26 29  1  0  0  0  0
 26 30  1  0  0  0  0
 26 31  1  0  0  0  0
 27 32  2  0  0  0  0
 30 33  1  0  0  0  0
 30 34  1  0  0  0  0
 30 35  1  0  0  0  0
 31 36  1  0  0  0  0
 31 37  1  0  0  0  0
 31 38  1  0  0  0  0
 11 14  1  0  0  0  0
 13 15  1  0  0  0  0
 22 23  1  0  0  0  0
 28 32  1  0  0  0  0
M  END
>  <MolRegNo>
1784206

>  <m>
=

>  <Value>
27000

>  <Unit>
nM

>  <Type>
IC50

>  <pValue>
4.57

>  <Ligand Efficiency>
0

>  <Binding Efficiency>
0

>  <Surface Efficiency>
0

>  <Assay Index>
901970

>  <Assay Category>


>  <Assay Organism>
Homo sapiens

>  <Target ID>
17045

>  <Target Name>
Cytochrome P450 3A4

>  <Target Organism>
Homo sapiens

>  <Target Description>
Target is a single protein chain

>  <Sequence Accession>
P08684

>  <Reference>
J Med Chem 57 (14), 5949-5964 (2014)

>  <Pubmed ID>
25001129

>  <DOI>
10.1021/jm5001979

$$$$
1784189
Actelion Java MolfileCreator 1.0

 38 41  0  0  0  0  0  0  0  0999 V2000
    0.0000   -0.0000   -0.0000 S   0  0  0  0  0  0  0  0  0  0  0  0
   -1.5157    0.0239   -0.0000 O   0  0  0  0  0  0  0  0  0  0  0  0
   -0.7638    1.3247   -0.0000 O   0  0  0  0  0  0  0  0  0  0  0  0
    1.3009    0.7638   -0.0000 N   0  0  0  0  0  0  0  0  0  0  0  0
    0.0000   -1.5037   -0.0000 C   0  0  0  0  0  0  0  0  0  0  0  0
    2.6017    0.0239   -0.0000 C   0  0  0  0  0  0  0  0  0  0  0  0
    1.2889    2.2795   -0.0000 C   0  0  0  0  0  0  0  0  0  0  0  0
   -1.3128   -2.2437   -0.0000 C   0  0  0  0  0  0  0  0  0  0  0  0
    1.2889   -2.2437   -0.0000 C   0  0  0  0  0  0  0  0  0  0  0  0
    3.8906    0.7877   -0.0000 C   0  0  0  0  0  0  0  0  0  0  0  0
    2.5898    3.0433   -0.0000 C   0  0  0  0  0  0  0  0  0  0  0  0
   -1.3247   -3.7474   -0.0000 N   0  0  0  0  0  0  0  0  0  0  0  0
    1.2770   -3.7474   -0.0000 C   0  0  0  0  0  0  0  0  0  0  0  0
    3.8787    2.3033   -0.0000 N   0  0  0  0  0  0  0  0  0  0  0  0
   -0.0358   -4.4873   -0.0000 C   0  0  0  0  0  0  0  0  0  0  0  0
    5.1676    3.0671   -0.0000 C   0  0  0  0  0  0  0  0  0  0  0  0
   -0.0477   -5.9792   -0.0000 N   0  0  0  0  0  0  0  0  0  0  0  0
    5.1557    4.5828   -0.0000 N   0  0  0  0  0  0  0  0  0  0  0  0
    6.4565    2.3272   -0.0000 C   0  0  0  0  0  0  0  0  0  0  0  0
    6.4446    5.3466   -0.0000 C   0  0  0  0  0  0  0  0  0  0  0  0
    6.4446    0.8473   -0.0000 C   0  0  0  0  0  0  0  0  0  0  0  0
    7.7454    3.0910   -0.0000 C   0  0  0  0  0  0  0  0  0  0  0  0
    7.7454    4.6067   -0.0000 C   0  0  0  0  0  0  0  0  0  0  0  0
    7.6500   -0.0239   -0.0000 C   0  0  0  0  0  0  0  0  0  0  0  0
    5.2273   -0.0239   -0.0000 C   0  0  0  0  0  0  0  0  0  0  0  0
    9.0344    5.3705   -0.0000 C   0  0  0  0  0  0  0  0  0  0  0  0
    7.1726   -1.4321   -0.0000 N   0  0  0  0  0  0  0  0  0  0  0  0
    5.6808   -1.4321   -0.0000 N   0  0  0  0  0  0  0  0  0  0  0  0
   10.3233    6.1462   -0.0000 O   0  0  0  0  0  0  0  0  0  0  0  0
   10.3233    4.6306   -0.0000 C   0  0  0  0  0  0  0  0  0  0  0  0
    9.0224    6.8862   -0.0000 C   0  0  0  0  0  0  0  0  0  0  0  0
    4.7857   -2.6375   -0.0000 C   0  0  0  0  0  0  0  0  0  0  0  0
   10.3113    3.1388   -0.0000 F   0  0  0  0  0  0  0  0  0  0  0  0
   11.6122    5.3944   -0.0000 F   0  0  0  0  0  0  0  0  0  0  0  0
   11.6003    3.8906   -0.0000 F   0  0  0  0  0  0  0  0  0  0  0  0
   10.3113    7.6500   -0.0000 F   0  0  0  0  0  0  0  0  0  0  0  0
    7.7096    7.6500   -0.0000 F   0  0  0  0  0  0  0  0  0  0  0  0
    8.9986    8.4018   -0.0000 F   0  0  0  0  0  0  0  0  0  0  0  0
  1  2  2  0  0  0  0
  1  3  2  0  0  0  0
  1  4  1  0  0  0  0
  1  5  1  0  0  0  0
  4  6  1  0  0  0  0
  4  7  1  0  0  0  0
  5  8  2  0  0  0  0
  5  9  1  0  0  0  0
  6 10  1  0  0  0  0
  7 11  1  0  0  0  0
  8 12  1  0  0  0  0
  9 13  2  0  0  0  0
 10 14  1  0  0  0  0
 12 15  2  0  0  0  0
 14 16  1  0  0  0  0
 15 17  1  0  0  0  0
 16 18  2  0  0  0  0
 16 19  1  0  0  0  0
 18 20  1  0  0  0  0
 19 21  1  0  0  0  0
 19 22  2  0  0  0  0
 20 23  2  0  0  0  0
 21 24  1  0  0  0  0
 21 25  2  0  0  0  0
 23 26  1  0  0  0  0
 24 27  2  0  0  0  0
 25 28  1  0  0  0  0
 26 29  1  0  0  0  0
 26 30  1  0  0  0  0
 26 31  1  0  0  0  0
 28 32  1  0  0  0  0
 30 33  1  0  0  0  0
 30 34  1  0  0  0  0
 30 35  1  0  0  0  0
 31 36  1  0  0  0  0
 31 37  1  0  0  0  0
 31 38  1  0  0  0  0
 11 14  1  0  0  0  0
 13 15  1  0  0  0  0
 22 23  1  0  0  0  0
 27 28  1  0  0  0  0
M  END
>  <MolRegNo>
1784189

>  <m>
=

>  <Value>
27000

>  <Unit>
nM

>  <Type>
IC50

>  <pValue>
4.57

>  <Ligand Efficiency>
0

>  <Binding Efficiency>
0

>  <Surface Efficiency>
0

>  <Assay Index>
901970

>  <Assay Category>


>  <Assay Organism>
Homo sapiens

>  <Target ID>
17045

>  <Target Name>
Cytochrome P450 3A4

>  <Target Organism>
Homo sapiens

>  <Target Description>
Target is a single protein chain

>  <Sequence Accession>
P08684

>  <Reference>
J Med Chem 57 (14), 5949-5964 (2014)

>  <Pubmed ID>
25001129

>  <DOI>
10.1021/jm5001979

$$$$
1781788
Actelion Java MolfileCreator 1.0

 40 45  0  0  0  0  0  0  0  0999 V2000
    0.0000   -0.0000   -0.0000 S   0  0  0  0  0  0  0  0  0  0  0  0
   -0.1543   -1.4833   -0.0000 C   0  0  0  0  0  0  0  0  0  0  0  0
    1.4477    0.3441   -0.0000 C   0  0  0  0  0  0  0  0  0  0  0  0
    1.1985   -2.0766   -0.0000 N   0  0  0  0  0  0  0  0  0  0  0  0
   -1.4596   -2.2309   -0.0000 N   0  0  0  0  0  0  0  0  0  0  0  0
    2.1953   -0.9493   -0.0000 N   0  0  0  0  0  0  0  0  0  0  0  0
   -2.7767   -1.4714   -0.0000 C   0  0  0  0  0  0  0  0  0  0  0  0
   -2.8005    0.0356   -0.0000 O   0  0  0  0  0  0  0  0  0  0  0  0
   -4.0821   -2.2072   -0.0000 C   0  0  0  0  0  0  0  0  0  0  0  0
   -4.0821   -3.7023   -0.0000 C   0  0  0  0  0  0  0  0  0  0  0  0
   -5.5891   -2.1953   -0.0000 C   0  0  0  0  0  0  0  0  0  0  0  0
   -4.8415   -0.9018   -0.0000 C   0  0  0  0  0  0  0  0  0  0  0  0
   -5.3874   -4.4380   -0.0000 C   0  0  0  0  0  0  0  0  0  0  0  0
   -2.7886   -4.4262   -0.0000 C   0  0  0  0  0  0  0  0  0  0  0  0
   -5.3992   -5.9332   -0.0000 C   0  0  0  0  0  0  0  0  0  0  0  0
   -6.7045   -3.6786   -0.0000 C   0  0  0  0  0  0  0  0  0  0  0  0
   -2.7886   -5.9213   -0.0000 C   0  0  0  0  0  0  0  0  0  0  0  0
   -1.5070   -3.6667   -0.0000 C   0  0  0  0  0  0  0  0  0  0  0  0
   -4.1176   -6.6689   -0.0000 O   0  0  0  0  0  0  0  0  0  0  0  0
   -6.7045   -6.6808   -0.0000 N   0  0  0  0  0  0  0  0  0  0  0  0
   -8.0098   -4.4143   -0.0000 C   0  0  0  0  0  0  0  0  0  0  0  0
   -1.4952   -6.6571   -0.0000 C   0  0  0  0  0  0  0  0  0  0  0  0
   -0.2136   -4.3906   -0.0000 C   0  0  0  0  0  0  0  0  0  0  0  0
   -8.0098   -5.9213   -0.0000 C   0  0  0  0  0  0  0  0  0  0  0  0
   -1.4952   -8.1404   -0.0000 F   0  0  0  0  0  0  0  0  0  0  0  0
   -0.2017   -5.8857   -0.0000 C   0  0  0  0  0  0  0  0  0  0  0  0
   -9.3151   -6.6571   -0.0000 C   0  0  0  0  0  0  0  0  0  0  0  0
  -10.6323   -5.8976   -0.0000 C   0  0  0  0  0  0  0  0  0  0  0  0
   -9.3270   -8.1404   -0.0000 C   0  0  0  0  0  0  0  0  0  0  0  0
  -11.9376   -6.6333   -0.0000 C   0  0  0  0  0  0  0  0  0  0  0  0
  -10.6442   -8.8761   -0.0000 C   0  0  0  0  0  0  0  0  0  0  0  0
  -11.9495   -8.1166   -0.0000 C   0  0  0  0  0  0  0  0  0  0  0  0
  -13.2667   -8.8524   -0.0000 C   0  0  0  0  0  0  0  0  0  0  0  0
  -13.2785  -10.3357   -0.0000 O   0  0  0  0  0  0  0  0  0  0  0  0
  -14.5601   -8.0929   -0.0000 N   0  0  0  0  0  0  0  0  0  0  0  0
  -15.8773   -8.8286   -0.0000 C   0  0  0  0  0  0  0  0  0  0  0  0
  -14.5601   -6.5859   -0.0000 C   0  0  0  0  0  0  0  0  0  0  0  0
  -17.1707   -8.0692   -0.0000 C   0  0  0  0  0  0  0  0  0  0  0  0
  -15.8654   -5.8145   -0.0000 C   0  0  0  0  0  0  0  0  0  0  0  0
  -17.1707   -6.5503   -0.0000 O   0  0  0  0  0  0  0  0  0  0  0  0
  1  2  1  0  0  0  0
  1  3  1  0  0  0  0
  2  4  2  0  0  0  0
  2  5  1  0  0  0  0
  3  6  2  0  0  0  0
  5  7  1  0  0  0  0
  7  8  2  0  0  0  0
  7  9  1  0  0  0  0
 10  9  1  1  0  0  0
  9 11  1  0  0  0  0
  9 12  1  0  0  0  0
 10 13  1  0  0  0  0
 10 14  1  0  0  0  0
 13 15  2  0  0  0  0
 13 16  1  0  0  0  0
 14 17  2  0  0  0  0
 14 18  1  0  0  0  0
 15 19  1  0  0  0  0
 15 20  1  0  0  0  0
 16 21  2  0  0  0  0
 17 22  1  0  0  0  0
 18 23  2  0  0  0  0
 20 24  2  0  0  0  0
 22 25  1  0  0  0  0
 22 26  2  0  0  0  0
 24 27  1  0  0  0  0
 27 28  2  0  0  0  0
 27 29  1  0  0  0  0
 28 30  1  0  0  0  0
 29 31  2  0  0  0  0
 30 32  2  0  0  0  0
 32 33  1  0  0  0  0
 33 34  2  0  0  0  0
 33 35  1  0  0  0  0
 35 36  1  0  0  0  0
 35 37  1  0  0  0  0
 36 38  1  0  0  0  0
 37 39  1  0  0  0  0
 38 40  1  0  0  0  0
  4  6  1  0  0  0  0
 17 19  1  0  0  0  0
 21 24  1  0  0  0  0
 23 26  1  0  0  0  0
 31 32  1  0  0  0  0
 39 40  1  0  0  0  0
M  END
>  <MolRegNo>
1781788

>  <m>
=

>  <Value>
300

>  <Unit>
nM

>  <Type>
IC50

>  <pValue>
6.52

>  <Ligand Efficiency>
0

>  <Binding Efficiency>
0

>  <Surface Efficiency>
0

>  <Assay Index>
904635

>  <Assay Category>


>  <Assay Organism>
Homo sapiens

>  <Target ID>
17045

>  <Target Name>
Cytochrome P450 3A4

>  <Target Organism>
Homo sapiens

>  <Target Description>
Target is a single protein chain

>  <Sequence Accession>
P08684

>  <Reference>
Bioorg Med Chem Lett 24 (15), 3268-3273 (2014)

>  <Pubmed ID>
24980053

>  <DOI>
10.1016/j.bmcl.2014.06.010

$$$$
1784403
Actelion Java MolfileCreator 1.0

 28 31  0  0  0  0  0  0  0  0999 V2000
    0.0000   -0.0000   -0.0000 Cl  0  0  0  0  0  0  0  0  0  0  0  0
   -0.0119    1.5120   -0.0000 C   0  0  0  0  0  0  0  0  0  0  0  0
    1.2739    2.2740   -0.0000 C   0  0  0  0  0  0  0  0  0  0  0  0
   -1.3215    2.2621   -0.0000 C   0  0  0  0  0  0  0  0  0  0  0  0
    2.5598    1.5359   -0.0000 O   0  0  0  0  0  0  0  0  0  0  0  0
    1.2739    3.7861   -0.0000 C   0  0  0  0  0  0  0  0  0  0  0  0
   -1.3335    3.7861   -0.0000 C   0  0  0  0  0  0  0  0  0  0  0  0
    3.8575    2.2978   -0.0000 C   0  0  0  0  0  0  0  0  0  0  0  0
   -0.0357    4.5599   -0.0000 C   0  0  0  0  0  0  0  0  0  0  0  0
    3.8456    3.8218   -0.0000 N   0  0  0  0  0  0  0  0  0  0  0  0
    5.1552    1.5597   -0.0000 C   0  0  0  0  0  0  0  0  0  0  0  0
   -0.0476    6.0720   -0.0000 Cl  0  0  0  0  0  0  0  0  0  0  0  0
    5.1314    4.5957   -0.0000 C   0  0  0  0  0  0  0  0  0  0  0  0
    5.1433    0.0714   -0.0000 C   0  0  0  0  0  0  0  0  0  0  0  0
    6.4530    2.3216   -0.0000 C   0  0  0  0  0  0  0  0  0  0  0  0
    6.4292    3.8575   -0.0000 N   0  0  0  0  0  0  0  0  0  0  0  0
    3.8218   -0.6667   -0.0000 O   0  0  0  0  0  0  0  0  0  0  0  0
    6.4292   -0.6786   -0.0000 N   0  0  0  0  0  0  0  0  0  0  0  0
    6.4173   -2.1669   -0.0000 C   0  0  0  0  0  0  0  0  0  0  0  0
    7.7150    0.0952   -0.0000 C   0  0  0  0  0  0  0  0  0  0  0  0
    7.7031   -2.9050   -0.0000 C   0  0  0  0  0  0  0  0  0  0  0  0
    5.1076   -2.8931   -0.0000 C   0  0  0  0  0  0  0  0  0  0  0  0
    9.0008   -0.6548   -0.0000 C   0  0  0  0  0  0  0  0  0  0  0  0
    8.9889   -2.1550   -0.0000 N   0  0  0  0  0  0  0  0  0  0  0  0
    7.6912   -4.3814   -0.0000 C   0  0  0  0  0  0  0  0  0  0  0  0
    5.0957   -4.3694   -0.0000 C   0  0  0  0  0  0  0  0  0  0  0  0
   10.2747   -2.8931   -0.0000 C   0  0  0  0  0  0  0  0  0  0  0  0
    6.3934   -5.1195   -0.0000 C   0  0  0  0  0  0  0  0  0  0  0  0
  1  2  1  0  0  0  0
  2  3  2  0  0  0  0
  2  4  1  0  0  0  0
  3  5  1  0  0  0  0
  3  6  1  0  0  0  0
  4  7  2  0  0  0  0
  5  8  1  0  0  0  0
  6  9  2  0  0  0  0
  8 10  2  0  0  0  0
  8 11  1  0  0  0  0
  9 12  1  0  0  0  0
 10 13  1  0  0  0  0
 11 14  1  0  0  0  0
 11 15  2  0  0  0  0
 13 16  2  0  0  0  0
 14 17  2  0  0  0  0
 14 18  1  0  0  0  0
 18 19  1  0  0  0  0
 18 20  1  0  0  0  0
 19 21  2  0  0  0  0
 19 22  1  0  0  0  0
 20 23  1  0  0  0  0
 21 24  1  0  0  0  0
 21 25  1  0  0  0  0
 22 26  2  0  0  0  0
 24 27  1  0  0  0  0
 25 28  2  0  0  0  0
  7  9  1  0  0  0  0
 15 16  1  0  0  0  0
 23 24  1  0  0  0  0
 26 28  1  0  0  0  0
M  END
>  <MolRegNo>
1784403

>  <m>
=

>  <Value>
250

>  <Unit>
nM

>  <Type>
IC50

>  <pValue>
6.6

>  <Ligand Efficiency>
0

>  <Binding Efficiency>
0

>  <Surface Efficiency>
0

>  <Assay Index>
902253

>  <Assay Category>


>  <Assay Organism>
Homo sapiens

>  <Target ID>
17045

>  <Target Name>
Cytochrome P450 3A4

>  <Target Organism>
Homo sapiens

>  <Target Description>
Target is a single protein chain

>  <Sequence Accession>
P08684

>  <Reference>
Bioorg Med Chem Lett 24 (17), 4271-4275 (2014)

>  <Pubmed ID>
25082126

>  <DOI>
10.1016/j.bmcl.2014.07.026

$$$$
1784404
Actelion Java MolfileCreator 1.0

 29 32  0  0  0  0  0  0  0  0999 V2000
    0.0000   -0.0000   -0.0000 Cl  0  0  0  0  0  0  0  0  0  0  0  0
   -0.0119    1.5117   -0.0000 C   0  0  0  0  0  0  0  0  0  0  0  0
    1.2736    2.2734   -0.0000 C   0  0  0  0  0  0  0  0  0  0  0  0
   -1.3212    2.2615   -0.0000 C   0  0  0  0  0  0  0  0  0  0  0  0
    2.5591    1.5355   -0.0000 O   0  0  0  0  0  0  0  0  0  0  0  0
    1.2736    3.7851   -0.0000 C   0  0  0  0  0  0  0  0  0  0  0  0
   -1.3331    3.7851   -0.0000 C   0  0  0  0  0  0  0  0  0  0  0  0
    3.8565    2.2973   -0.0000 C   0  0  0  0  0  0  0  0  0  0  0  0
   -0.0357    4.5588   -0.0000 C   0  0  0  0  0  0  0  0  0  0  0  0
    3.8446    3.8208   -0.0000 N   0  0  0  0  0  0  0  0  0  0  0  0
    5.1539    1.5593   -0.0000 C   0  0  0  0  0  0  0  0  0  0  0  0
   -0.0476    6.0705   -0.0000 Cl  0  0  0  0  0  0  0  0  0  0  0  0
    5.1301    4.5945   -0.0000 C   0  0  0  0  0  0  0  0  0  0  0  0
    5.1420    0.0714   -0.0000 C   0  0  0  0  0  0  0  0  0  0  0  0
    6.4513    2.3211   -0.0000 C   0  0  0  0  0  0  0  0  0  0  0  0
    5.1182    6.1062   -0.0000 O   0  0  0  0  0  0  0  0  0  0  0  0
    6.4275    3.8565   -0.0000 N   0  0  0  0  0  0  0  0  0  0  0  0
    3.8208   -0.6666   -0.0000 O   0  0  0  0  0  0  0  0  0  0  0  0
    6.4275   -0.6785   -0.0000 N   0  0  0  0  0  0  0  0  0  0  0  0
    6.4156   -2.1663   -0.0000 C   0  0  0  0  0  0  0  0  0  0  0  0
    7.7130    0.0952   -0.0000 C   0  0  0  0  0  0  0  0  0  0  0  0
    7.7011   -2.9043   -0.0000 C   0  0  0  0  0  0  0  0  0  0  0  0
    5.1063   -2.8924   -0.0000 C   0  0  0  0  0  0  0  0  0  0  0  0
    8.9986   -0.6547   -0.0000 C   0  0  0  0  0  0  0  0  0  0  0  0
    8.9867   -2.1544   -0.0000 N   0  0  0  0  0  0  0  0  0  0  0  0
    7.6892   -4.3802   -0.0000 C   0  0  0  0  0  0  0  0  0  0  0  0
    5.0944   -4.3683   -0.0000 C   0  0  0  0  0  0  0  0  0  0  0  0
   10.2722   -2.8924   -0.0000 C   0  0  0  0  0  0  0  0  0  0  0  0
    6.3918   -5.1182   -0.0000 C   0  0  0  0  0  0  0  0  0  0  0  0
  1  2  1  0  0  0  0
  2  3  2  0  0  0  0
  2  4  1  0  0  0  0
  3  5  1  0  0  0  0
  3  6  1  0  0  0  0
  4  7  2  0  0  0  0
  5  8  1  0  0  0  0
  6  9  2  0  0  0  0
  8 10  2  0  0  0  0
  8 11  1  0  0  0  0
  9 12  1  0  0  0  0
 10 13  1  0  0  0  0
 11 14  1  0  0  0  0
 11 15  2  0  0  0  0
 13 16  1  0  0  0  0
 13 17  2  0  0  0  0
 14 18  2  0  0  0  0
 14 19  1  0  0  0  0
 19 20  1  0  0  0  0
 19 21  1  0  0  0  0
 20 22  2  0  0  0  0
 20 23  1  0  0  0  0
 21 24  1  0  0  0  0
 22 25  1  0  0  0  0
 22 26  1  0  0  0  0
 23 27  2  0  0  0  0
 25 28  1  0  0  0  0
 26 29  2  0  0  0  0
  7  9  1  0  0  0  0
 15 17  1  0  0  0  0
 24 25  1  0  0  0  0
 27 29  1  0  0  0  0
M  END
>  <MolRegNo>
1784404

>  <m>
=

>  <Value>
260

>  <Unit>
nM

>  <Type>
IC50

>  <pValue>
6.58

>  <Ligand Efficiency>
0

>  <Binding Efficiency>
0

>  <Surface Efficiency>
0

>  <Assay Index>
902253

>  <Assay Category>


>  <Assay Organism>
Homo sapiens

>  <Target ID>
17045

>  <Target Name>
Cytochrome P450 3A4

>  <Target Organism>
Homo sapiens

>  <Target Description>
Target is a single protein chain

>  <Sequence Accession>
P08684

>  <Reference>
Bioorg Med Chem Lett 24 (17), 4271-4275 (2014)

>  <Pubmed ID>
25082126

>  <DOI>
10.1016/j.bmcl.2014.07.026

$$$$
1784408
Actelion Java MolfileCreator 1.0

 27 30  0  0  0  0  0  0  0  0999 V2000
    0.0000   -0.0000   -0.0000 Cl  0  0  0  0  0  0  0  0  0  0  0  0
   -1.2981   -0.7622   -0.0000 C   0  0  0  0  0  0  0  0  0  0  0  0
   -1.2862   -2.2509   -0.0000 C   0  0  0  0  0  0  0  0  0  0  0  0
   -2.6320   -0.0238   -0.0000 C   0  0  0  0  0  0  0  0  0  0  0  0
    0.0238   -2.9655   -0.0000 N   0  0  0  0  0  0  0  0  0  0  0  0
   -2.5724   -3.0250   -0.0000 C   0  0  0  0  0  0  0  0  0  0  0  0
   -3.9301   -0.7979   -0.0000 C   0  0  0  0  0  0  0  0  0  0  0  0
    1.2981   -2.1675   -0.0000 C   0  0  0  0  0  0  0  0  0  0  0  0
   -3.9063   -2.2985   -0.0000 C   0  0  0  0  0  0  0  0  0  0  0  0
    1.2505   -0.6550   -0.0000 O   0  0  0  0  0  0  0  0  0  0  0  0
    2.5963   -2.8821   -0.0000 C   0  0  0  0  0  0  0  0  0  0  0  0
   -5.2044   -3.0726   -0.0000 Cl  0  0  0  0  0  0  0  0  0  0  0  0
    3.8825   -2.0842   -0.0000 C   0  0  0  0  0  0  0  0  0  0  0  0
    3.3227   -4.1683   -0.0000 C   0  0  0  0  0  0  0  0  0  0  0  0
    1.8341   -4.1683   -0.0000 C   0  0  0  0  0  0  0  0  0  0  0  0
    3.8348   -0.5597   -0.0000 O   0  0  0  0  0  0  0  0  0  0  0  0
    5.2044   -2.7987   -0.0000 N   0  0  0  0  0  0  0  0  0  0  0  0
    6.4787   -2.0008   -0.0000 C   0  0  0  0  0  0  0  0  0  0  0  0
    5.2163   -4.2993   -0.0000 C   0  0  0  0  0  0  0  0  0  0  0  0
    7.7769   -2.7034   -0.0000 C   0  0  0  0  0  0  0  0  0  0  0  0
    6.4311   -0.5002   -0.0000 C   0  0  0  0  0  0  0  0  0  0  0  0
    6.5383   -5.0020   -0.0000 C   0  0  0  0  0  0  0  0  0  0  0  0
    7.8126   -4.1921   -0.0000 N   0  0  0  0  0  0  0  0  0  0  0  0
    9.0393   -1.9174   -0.0000 C   0  0  0  0  0  0  0  0  0  0  0  0
    7.6935    0.2977   -0.0000 C   0  0  0  0  0  0  0  0  0  0  0  0
    9.1226   -4.8948   -0.0000 C   0  0  0  0  0  0  0  0  0  0  0  0
    9.0035   -0.4049   -0.0000 C   0  0  0  0  0  0  0  0  0  0  0  0
  1  2  1  0  0  0  0
  2  3  2  0  0  0  0
  2  4  1  0  0  0  0
  3  5  1  0  0  0  0
  3  6  1  0  0  0  0
  4  7  2  0  0  0  0
  5  8  1  0  0  0  0
  6  9  2  0  0  0  0
  8 10  2  0  0  0  0
  8 11  1  0  0  0  0
  9 12  1  0  0  0  0
 11 13  1  0  0  0  0
 11 14  1  0  0  0  0
 11 15  1  0  0  0  0
 13 16  2  0  0  0  0
 13 17  1  0  0  0  0
 17 18  1  0  0  0  0
 17 19  1  0  0  0  0
 18 20  2  0  0  0  0
 18 21  1  0  0  0  0
 19 22  1  0  0  0  0
 20 23  1  0  0  0  0
 20 24  1  0  0  0  0
 21 25  2  0  0  0  0
 23 26  1  0  0  0  0
 24 27  2  0  0  0  0
  7  9  1  0  0  0  0
 14 15  1  0  0  0  0
 22 23  1  0  0  0  0
 25 27  1  0  0  0  0
M  END
>  <MolRegNo>
1784408

>  <m>
=

>  <Value>
270

>  <Unit>
nM

>  <Type>
IC50

>  <pValue>
6.57

>  <Ligand Efficiency>
0

>  <Binding Efficiency>
0

>  <Surface Efficiency>
0

>  <Assay Index>
902253

>  <Assay Category>


>  <Assay Organism>
Homo sapiens

>  <Target ID>
17045

>  <Target Name>
Cytochrome P450 3A4

>  <Target Organism>
Homo sapiens

>  <Target Description>
Target is a single protein chain

>  <Sequence Accession>
P08684

>  <Reference>
Bioorg Med Chem Lett 24 (17), 4271-4275 (2014)

>  <Pubmed ID>
25082126

>  <DOI>
10.1016/j.bmcl.2014.07.026

$$$$
1783648
Actelion Java MolfileCreator 1.0

 33 37  0  0  0  0  0  0  0  0999 V2000
    0.0000   -0.0000   -0.0000 O   0  0  0  0  0  0  0  0  0  0  0  0
   -0.7689    1.3130   -0.0000 C   0  0  0  0  0  0  0  0  0  0  0  0
   -0.0237    2.6259   -0.0000 N   0  0  0  0  0  0  0  0  0  0  0  0
   -2.2711    1.3248   -0.0000 C   0  0  0  0  0  0  0  0  0  0  0  0
   -0.7925    3.9389   -0.0000 C   0  0  0  0  0  0  0  0  0  0  0  0
    1.4667    2.6378   -0.0000 C   0  0  0  0  0  0  0  0  0  0  0  0
   -3.0281    2.6378   -0.0000 C   0  0  0  0  0  0  0  0  0  0  0  0
   -2.2947    3.9507   -0.0000 C   0  0  0  0  0  0  0  0  0  0  0  0
   -0.0473    5.2519   -0.0000 C   0  0  0  0  0  0  0  0  0  0  0  0
    2.2001    1.3485   -0.0000 C   0  0  0  0  0  0  0  0  0  0  0  0
   -3.0518    5.2637   -0.0000 N   0  0  0  0  0  0  0  0  0  0  0  0
   -0.8162    6.5649   -0.0000 C   0  0  0  0  0  0  0  0  0  0  0  0
    3.6905    1.3603   -0.0000 N   0  0  0  0  0  0  0  0  0  0  0  0
   -2.3184    6.5767   -0.0000 C   0  0  0  0  0  0  0  0  0  0  0  0
   -0.0710    7.8660   -0.0000 O   0  0  0  0  0  0  0  0  0  0  0  0
    4.4357    2.6733   -0.0000 C   0  0  0  0  0  0  0  0  0  0  0  0
    4.4357    0.0710   -0.0000 C   0  0  0  0  0  0  0  0  0  0  0  0
   -0.8398    9.1790   -0.0000 C   0  0  0  0  0  0  0  0  0  0  0  0
    5.9261    2.6851   -0.0000 C   0  0  0  0  0  0  0  0  0  0  0  0
    5.9261    0.0828   -0.0000 C   0  0  0  0  0  0  0  0  0  0  0  0
    6.6595    1.3958   -0.0000 C   0  0  0  0  0  0  0  0  0  0  0  0
    8.1499    1.4076   -0.0000 C   0  0  0  0  0  0  0  0  0  0  0  0
    9.0252    2.6378   -0.0000 N   0  0  0  0  0  0  0  0  0  0  0  0
    9.0252    0.2011   -0.0000 N   0  0  0  0  0  0  0  0  0  0  0  0
   10.4446    2.1883   -0.0000 C   0  0  0  0  0  0  0  0  0  0  0  0
   10.4446    0.6861   -0.0000 C   0  0  0  0  0  0  0  0  0  0  0  0
   11.7340    2.9453   -0.0000 C   0  0  0  0  0  0  0  0  0  0  0  0
   11.7340   -0.0591   -0.0000 C   0  0  0  0  0  0  0  0  0  0  0  0
   13.0233    2.2119   -0.0000 C   0  0  0  0  0  0  0  0  0  0  0  0
   13.0233    0.7097   -0.0000 C   0  0  0  0  0  0  0  0  0  0  0  0
   14.3008    2.9690   -0.0000 C   0  0  0  0  0  0  0  0  0  0  0  0
   14.3008   -0.0355   -0.0000 C   0  0  0  0  0  0  0  0  0  0  0  0
   15.5901    3.7378   -0.0000 N   0  0  0  0  0  0  0  0  0  0  0  0
  1  2  2  0  0  0  0
  2  3  1  0  0  0  0
  2  4  1  0  0  0  0
  3  5  1  0  0  0  0
  3  6  1  0  0  0  0
  4  7  2  0  0  0  0
  5  8  2  0  0  0  0
  5  9  1  0  0  0  0
  6 10  1  0  0  0  0
  8 11  1  0  0  0  0
  9 12  2  0  0  0  0
 10 13  1  0  0  0  0
 11 14  2  0  0  0  0
 12 15  1  0  0  0  0
 13 16  1  0  0  0  0
 13 17  1  0  0  0  0
 15 18  1  0  0  0  0
 16 19  1  0  0  0  0
 17 20  1  0  0  0  0
 19 21  1  0  0  0  0
 21 22  1  0  0  0  0
 22 23  2  0  0  0  0
 22 24  1  0  0  0  0
 23 25  1  0  0  0  0
 24 26  1  0  0  0  0
 25 27  1  0  0  0  0
 26 28  1  0  0  0  0
 27 29  2  0  0  0  0
 28 30  2  0  0  0  0
 29 31  1  0  0  0  0
 30 32  1  0  0  0  0
 31 33  3  0  0  0  0
  7  8  1  0  0  0  0
 12 14  1  0  0  0  0
 20 21  1  0  0  0  0
 25 26  2  0  0  0  0
 29 30  1  0  0  0  0
M  END
>  <MolRegNo>
1783648

>  <m>
=

>  <Value>
9400

>  <Unit>
nM

>  <Type>
IC50

>  <pValue>
5.03

>  <Ligand Efficiency>
0

>  <Binding Efficiency>
0

>  <Surface Efficiency>
0

>  <Assay Index>
899458

>  <Assay Category>


>  <Assay Organism>
Homo sapiens

>  <Target ID>
17045

>  <Target Name>
Cytochrome P450 3A4

>  <Target Organism>
Homo sapiens

>  <Target Description>
Target is a single protein chain

>  <Sequence Accession>
P08684

>  <Reference>
ACS Med Chem Lett 5 (7), 820-825 (2014)

>  <Pubmed ID>
25050172

>  <DOI>
10.1021/ml5001728

$$$$
1783649
Actelion Java MolfileCreator 1.0

 33 37  0  0  0  0  0  0  0  0999 V2000
    0.0000   -0.0000   -0.0000 O   0  0  0  0  0  0  0  0  0  0  0  0
   -0.7568    1.3126   -0.0000 C   0  0  0  0  0  0  0  0  0  0  0  0
   -0.0237    2.6252   -0.0000 N   0  0  0  0  0  0  0  0  0  0  0  0
   -2.2705    1.3244   -0.0000 C   0  0  0  0  0  0  0  0  0  0  0  0
   -0.7805    3.9378   -0.0000 C   0  0  0  0  0  0  0  0  0  0  0  0
    1.4663    2.6371   -0.0000 C   0  0  0  0  0  0  0  0  0  0  0  0
   -3.0273    2.6371   -0.0000 C   0  0  0  0  0  0  0  0  0  0  0  0
   -2.2941    3.9497   -0.0000 C   0  0  0  0  0  0  0  0  0  0  0  0
   -0.0473    5.2505   -0.0000 C   0  0  0  0  0  0  0  0  0  0  0  0
    2.2113    1.3481   -0.0000 C   0  0  0  0  0  0  0  0  0  0  0  0
   -3.0509    5.2623   -0.0000 N   0  0  0  0  0  0  0  0  0  0  0  0
   -0.8041    6.5631   -0.0000 C   0  0  0  0  0  0  0  0  0  0  0  0
    3.7013    1.3599   -0.0000 N   0  0  0  0  0  0  0  0  0  0  0  0
   -2.3178    6.5749   -0.0000 C   0  0  0  0  0  0  0  0  0  0  0  0
   -0.0710    7.8757   -0.0000 O   0  0  0  0  0  0  0  0  0  0  0  0
    4.4345    0.0710   -0.0000 C   0  0  0  0  0  0  0  0  0  0  0  0
    4.4345    2.6725   -0.0000 C   0  0  0  0  0  0  0  0  0  0  0  0
   -0.8278    9.1883   -0.0000 C   0  0  0  0  0  0  0  0  0  0  0  0
    5.9245    0.0828   -0.0000 C   0  0  0  0  0  0  0  0  0  0  0  0
    5.9245    2.6844   -0.0000 C   0  0  0  0  0  0  0  0  0  0  0  0
    6.6577    1.3954   -0.0000 N   0  0  0  0  0  0  0  0  0  0  0  0
    8.1477    1.4072   -0.0000 C   0  0  0  0  0  0  0  0  0  0  0  0
    9.0227    2.6371   -0.0000 N   0  0  0  0  0  0  0  0  0  0  0  0
    9.0227    0.2010   -0.0000 N   0  0  0  0  0  0  0  0  0  0  0  0
   10.4418    2.1877   -0.0000 C   0  0  0  0  0  0  0  0  0  0  0  0
   10.4418    0.6740   -0.0000 C   0  0  0  0  0  0  0  0  0  0  0  0
   11.7307    2.9445   -0.0000 C   0  0  0  0  0  0  0  0  0  0  0  0
   11.7307   -0.0591   -0.0000 C   0  0  0  0  0  0  0  0  0  0  0  0
   13.0197    2.2113   -0.0000 C   0  0  0  0  0  0  0  0  0  0  0  0
   13.0197    0.6977   -0.0000 C   0  0  0  0  0  0  0  0  0  0  0  0
   14.3087    2.9682   -0.0000 C   0  0  0  0  0  0  0  0  0  0  0  0
   14.3087   -0.0355   -0.0000 C   0  0  0  0  0  0  0  0  0  0  0  0
   15.5976    3.7250   -0.0000 N   0  0  0  0  0  0  0  0  0  0  0  0
  1  2  2  0  0  0  0
  2  3  1  0  0  0  0
  2  4  1  0  0  0  0
  3  5  1  0  0  0  0
  3  6  1  0  0  0  0
  4  7  2  0  0  0  0
  5  8  2  0  0  0  0
  5  9  1  0  0  0  0
  6 10  1  0  0  0  0
  8 11  1  0  0  0  0
  9 12  2  0  0  0  0
 10 13  1  0  0  0  0
 11 14  2  0  0  0  0
 12 15  1  0  0  0  0
 13 16  1  0  0  0  0
 13 17  1  0  0  0  0
 15 18  1  0  0  0  0
 16 19  1  0  0  0  0
 17 20  1  0  0  0  0
 19 21  1  0  0  0  0
 21 22  1  0  0  0  0
 22 23  2  0  0  0  0
 22 24  1  0  0  0  0
 23 25  1  0  0  0  0
 24 26  1  0  0  0  0
 25 27  1  0  0  0  0
 26 28  1  0  0  0  0
 27 29  2  0  0  0  0
 28 30  2  0  0  0  0
 29 31  1  0  0  0  0
 30 32  1  0  0  0  0
 31 33  3  0  0  0  0
  7  8  1  0  0  0  0
 12 14  1  0  0  0  0
 20 21  1  0  0  0  0
 25 26  2  0  0  0  0
 29 30  1  0  0  0  0
M  END
>  <MolRegNo>
1783649

>  <m>
=

>  <Value>
20000

>  <Unit>
nM

>  <Type>
IC50

>  <pValue>
4.7

>  <Ligand Efficiency>
0

>  <Binding Efficiency>
0

>  <Surface Efficiency>
0

>  <Assay Index>
899458

>  <Assay Category>


>  <Assay Organism>
Homo sapiens

>  <Target ID>
17045

>  <Target Name>
Cytochrome P450 3A4

>  <Target Organism>
Homo sapiens

>  <Target Description>
Target is a single protein chain

>  <Sequence Accession>
P08684

>  <Reference>
ACS Med Chem Lett 5 (7), 820-825 (2014)

>  <Pubmed ID>
25050172

>  <DOI>
10.1021/ml5001728

$$$$
1787387
Actelion Java MolfileCreator 1.0

 27 30  0  0  0  0  0  0  0  0999 V2000
    0.0000   -0.0000   -0.0000 F   0  0  0  0  0  0  0  0  0  0  0  0
   -0.0118    1.5044   -0.0000 C   0  0  0  0  0  0  0  0  0  0  0  0
   -1.3148    2.2625   -0.0000 C   0  0  0  0  0  0  0  0  0  0  0  0
    1.2675    2.2625   -0.0000 C   0  0  0  0  0  0  0  0  0  0  0  0
   -1.3267    3.7550   -0.0000 C   0  0  0  0  0  0  0  0  0  0  0  0
    1.2438    3.7550   -0.0000 C   0  0  0  0  0  0  0  0  0  0  0  0
   -0.0474    4.5131   -0.0000 C   0  0  0  0  0  0  0  0  0  0  0  0
   -2.6297    4.5131   -0.0000 C   0  0  0  0  0  0  0  0  0  0  0  0
   -0.0592    6.0175   -0.0000 O   0  0  0  0  0  0  0  0  0  0  0  0
   -3.9327    3.7668   -0.0000 N   0  0  0  0  0  0  0  0  0  0  0  0
   -2.6534    6.0175   -0.0000 C   0  0  0  0  0  0  0  0  0  0  0  0
   -1.3741    6.7756   -0.0000 C   0  0  0  0  0  0  0  0  0  0  0  0
   -5.2475    4.5249   -0.0000 C   0  0  0  0  0  0  0  0  0  0  0  0
   -2.1440    8.0904   -0.0000 C   0  0  0  0  0  0  0  0  0  0  0  0
   -0.6397    8.0904   -0.0000 C   0  0  0  0  0  0  0  0  0  0  0  0
   -5.2712    6.0293   -0.0000 O   0  0  0  0  0  0  0  0  0  0  0  0
   -6.5505    3.7787   -0.0000 N   0  0  0  0  0  0  0  0  0  0  0  0
   -6.5505    2.2980   -0.0000 C   0  0  0  0  0  0  0  0  0  0  0  0
   -7.8535    1.5636   -0.0000 C   0  0  0  0  0  0  0  0  0  0  0  0
   -5.2594    1.5754   -0.0000 C   0  0  0  0  0  0  0  0  0  0  0  0
   -7.8654    0.0711   -0.0000 C   0  0  0  0  0  0  0  0  0  0  0  0
   -9.1565    2.3217   -0.0000 C   0  0  0  0  0  0  0  0  0  0  0  0
   -5.2594    0.0829   -0.0000 C   0  0  0  0  0  0  0  0  0  0  0  0
   -9.1683   -0.6752   -0.0000 C   0  0  0  0  0  0  0  0  0  0  0  0
   -6.5860   -0.6633   -0.0000 C   0  0  0  0  0  0  0  0  0  0  0  0
  -10.4595    1.5873   -0.0000 C   0  0  0  0  0  0  0  0  0  0  0  0
  -10.4713    0.0829   -0.0000 N   0  0  0  0  0  0  0  0  0  0  0  0
  1  2  1  0  0  0  0
  2  3  2  0  0  0  0
  2  4  1  0  0  0  0
  3  5  1  0  0  0  0
  4  6  2  0  0  0  0
  5  7  2  0  0  0  0
  5  8  1  0  0  0  0
  7  9  1  0  0  0  0
  8 10  1  1  0  0  0
  8 11  1  0  0  0  0
  9 12  1  0  0  0  0
 10 13  1  0  0  0  0
 12 14  1  0  0  0  0
 12 15  1  0  0  0  0
 13 16  2  0  0  0  0
 13 17  1  0  0  0  0
 17 18  1  0  0  0  0
 18 19  1  0  0  0  0
 18 20  2  0  0  0  0
 19 21  1  0  0  0  0
 19 22  2  0  0  0  0
 20 23  1  0  0  0  0
 21 24  2  0  0  0  0
 21 25  1  0  0  0  0
 22 26  1  0  0  0  0
 24 27  1  0  0  0  0
  6  7  1  0  0  0  0
 11 12  1  0  0  0  0
 23 25  2  0  0  0  0
 26 27  2  0  0  0  0
M  END
>  <MolRegNo>
1787387

>  <m>
=

>  <Value>
1000

>  <Unit>
nM

>  <Type>
IC50

>  <pValue>
6

>  <Ligand Efficiency>
0

>  <Binding Efficiency>
0

>  <Surface Efficiency>
0

>  <Assay Index>
896903

>  <Assay Category>


>  <Assay Organism>
Homo sapiens

>  <Target ID>
17045

>  <Target Name>
Cytochrome P450 3A4

>  <Target Organism>
Homo sapiens

>  <Target Description>
Target is a single protein chain

>  <Sequence Accession>
P08684

>  <Reference>
J Med Chem 57 (17), 7412-7424 (2014)

>  <Pubmed ID>
25100568

>  <DOI>
10.1021/jm500916t

$$$$
1787388
Actelion Java MolfileCreator 1.0

 27 30  0  0  0  0  0  0  0  0999 V2000
    0.0000   -0.0000   -0.0000 F   0  0  0  0  0  0  0  0  0  0  0  0
   -1.3147    0.7580   -0.0000 C   0  0  0  0  0  0  0  0  0  0  0  0
   -1.3384    2.2504   -0.0000 C   0  0  0  0  0  0  0  0  0  0  0  0
   -2.6175    0.0237   -0.0000 C   0  0  0  0  0  0  0  0  0  0  0  0
   -2.6294    2.9965   -0.0000 C   0  0  0  0  0  0  0  0  0  0  0  0
   -3.9085    0.7817   -0.0000 C   0  0  0  0  0  0  0  0  0  0  0  0
   -2.6412    4.5007   -0.0000 O   0  0  0  0  0  0  0  0  0  0  0  0
   -3.9322    2.2622   -0.0000 C   0  0  0  0  0  0  0  0  0  0  0  0
   -3.9559    5.2587   -0.0000 C   0  0  0  0  0  0  0  0  0  0  0  0
   -5.2350    3.0202   -0.0000 C   0  0  0  0  0  0  0  0  0  0  0  0
   -5.2587    4.5126   -0.0000 C   0  0  0  0  0  0  0  0  0  0  0  0
   -4.7258    6.5734   -0.0000 C   0  0  0  0  0  0  0  0  0  0  0  0
   -3.2216    6.5734   -0.0000 C   0  0  0  0  0  0  0  0  0  0  0  0
   -6.5379    2.2740   -0.0000 N   0  0  0  0  0  0  0  0  0  0  0  0
   -7.8526    3.0321   -0.0000 C   0  0  0  0  0  0  0  0  0  0  0  0
   -7.8763    4.5362   -0.0000 O   0  0  0  0  0  0  0  0  0  0  0  0
   -9.1554    2.2859   -0.0000 N   0  0  0  0  0  0  0  0  0  0  0  0
   -9.1554    0.8054   -0.0000 C   0  0  0  0  0  0  0  0  0  0  0  0
  -10.4582    0.0711   -0.0000 C   0  0  0  0  0  0  0  0  0  0  0  0
   -7.8644    0.0829   -0.0000 C   0  0  0  0  0  0  0  0  0  0  0  0
  -10.4701   -1.4213   -0.0000 C   0  0  0  0  0  0  0  0  0  0  0  0
  -11.7611    0.8291   -0.0000 C   0  0  0  0  0  0  0  0  0  0  0  0
   -7.8644   -1.4094   -0.0000 C   0  0  0  0  0  0  0  0  0  0  0  0
  -11.7729   -2.1674   -0.0000 C   0  0  0  0  0  0  0  0  0  0  0  0
   -9.1909   -2.1556   -0.0000 C   0  0  0  0  0  0  0  0  0  0  0  0
  -13.0639    0.0948   -0.0000 C   0  0  0  0  0  0  0  0  0  0  0  0
  -13.0758   -1.4094   -0.0000 N   0  0  0  0  0  0  0  0  0  0  0  0
  1  2  1  0  0  0  0
  2  3  2  0  0  0  0
  2  4  1  0  0  0  0
  3  5  1  0  0  0  0
  4  6  2  0  0  0  0
  5  7  1  0  0  0  0
  5  8  2  0  0  0  0
  7  9  1  0  0  0  0
  8 10  1  0  0  0  0
  9 11  1  0  0  0  0
  9 12  1  0  0  0  0
  9 13  1  0  0  0  0
 10 14  1  1  0  0  0
 14 15  1  0  0  0  0
 15 16  2  0  0  0  0
 15 17  1  0  0  0  0
 17 18  1  0  0  0  0
 18 19  1  0  0  0  0
 18 20  2  0  0  0  0
 19 21  1  0  0  0  0
 19 22  2  0  0  0  0
 20 23  1  0  0  0  0
 21 24  2  0  0  0  0
 21 25  1  0  0  0  0
 22 26  1  0  0  0  0
 24 27  1  0  0  0  0
  6  8  1  0  0  0  0
 10 11  1  0  0  0  0
 23 25  2  0  0  0  0
 26 27  2  0  0  0  0
M  END
>  <MolRegNo>
1787388

>  <m>
=

>  <Value>
660

>  <Unit>
nM

>  <Type>
IC50

>  <pValue>
6.18

>  <Ligand Efficiency>
0

>  <Binding Efficiency>
0

>  <Surface Efficiency>
0

>  <Assay Index>
896903

>  <Assay Category>


>  <Assay Organism>
Homo sapiens

>  <Target ID>
17045

>  <Target Name>
Cytochrome P450 3A4

>  <Target Organism>
Homo sapiens

>  <Target Description>
Target is a single protein chain

>  <Sequence Accession>
P08684

>  <Reference>
J Med Chem 57 (17), 7412-7424 (2014)

>  <Pubmed ID>
25100568

>  <DOI>
10.1021/jm500916t

$$$$
1787394
Actelion Java MolfileCreator 1.0

 31 34  0  0  0  0  0  0  0  0999 V2000
    0.0000   -0.0000   -0.0000 F   0  0  0  0  0  0  0  0  0  0  0  0
   -1.3146    0.7580   -0.0000 C   0  0  0  0  0  0  0  0  0  0  0  0
   -2.6173    0.0118   -0.0000 F   0  0  0  0  0  0  0  0  0  0  0  0
   -1.3383   -0.7224   -0.0000 F   0  0  0  0  0  0  0  0  0  0  0  0
   -1.3264    2.2620   -0.0000 O   0  0  0  0  0  0  0  0  0  0  0  0
   -2.6410    3.0200   -0.0000 C   0  0  0  0  0  0  0  0  0  0  0  0
   -2.6647    4.5122   -0.0000 C   0  0  0  0  0  0  0  0  0  0  0  0
   -3.9437    2.2857   -0.0000 C   0  0  0  0  0  0  0  0  0  0  0  0
   -3.9556    5.2583   -0.0000 C   0  0  0  0  0  0  0  0  0  0  0  0
   -5.2346    3.0437   -0.0000 C   0  0  0  0  0  0  0  0  0  0  0  0
   -3.9674    6.7624   -0.0000 O   0  0  0  0  0  0  0  0  0  0  0  0
   -5.2583    4.5241   -0.0000 C   0  0  0  0  0  0  0  0  0  0  0  0
   -5.2820    7.5204   -0.0000 C   0  0  0  0  0  0  0  0  0  0  0  0
   -6.5611    5.2820   -0.0000 C   0  0  0  0  0  0  0  0  0  0  0  0
   -6.5848    6.7742   -0.0000 C   0  0  0  0  0  0  0  0  0  0  0  0
   -6.0518    8.8349   -0.0000 C   0  0  0  0  0  0  0  0  0  0  0  0
   -4.5477    8.8349   -0.0000 C   0  0  0  0  0  0  0  0  0  0  0  0
   -7.8638    4.5359   -0.0000 N   0  0  0  0  0  0  0  0  0  0  0  0
   -9.1784    5.2939   -0.0000 C   0  0  0  0  0  0  0  0  0  0  0  0
   -9.2021    6.7979   -0.0000 O   0  0  0  0  0  0  0  0  0  0  0  0
  -10.4811    4.5477   -0.0000 N   0  0  0  0  0  0  0  0  0  0  0  0
  -10.4811    3.0674   -0.0000 C   0  0  0  0  0  0  0  0  0  0  0  0
  -11.7839    2.3331   -0.0000 C   0  0  0  0  0  0  0  0  0  0  0  0
   -9.1902    2.3449   -0.0000 C   0  0  0  0  0  0  0  0  0  0  0  0
  -11.7957    0.8409   -0.0000 C   0  0  0  0  0  0  0  0  0  0  0  0
  -13.0866    3.0910   -0.0000 C   0  0  0  0  0  0  0  0  0  0  0  0
   -9.1902    0.8527   -0.0000 C   0  0  0  0  0  0  0  0  0  0  0  0
  -13.0985    0.0947   -0.0000 C   0  0  0  0  0  0  0  0  0  0  0  0
  -10.5167    0.1066   -0.0000 C   0  0  0  0  0  0  0  0  0  0  0  0
  -14.3894    2.3568   -0.0000 C   0  0  0  0  0  0  0  0  0  0  0  0
  -14.4012    0.8527   -0.0000 N   0  0  0  0  0  0  0  0  0  0  0  0
  1  2  1  0  0  0  0
  2  3  1  0  0  0  0
  2  4  1  0  0  0  0
  2  5  1  0  0  0  0
  5  6  1  0  0  0  0
  6  7  2  0  0  0  0
  6  8  1  0  0  0  0
  7  9  1  0  0  0  0
  8 10  2  0  0  0  0
  9 11  1  0  0  0  0
  9 12  2  0  0  0  0
 11 13  1  0  0  0  0
 12 14  1  0  0  0  0
 13 15  1  0  0  0  0
 13 16  1  0  0  0  0
 13 17  1  0  0  0  0
 14 18  1  1  0  0  0
 18 19  1  0  0  0  0
 19 20  2  0  0  0  0
 19 21  1  0  0  0  0
 21 22  1  0  0  0  0
 22 23  1  0  0  0  0
 22 24  2  0  0  0  0
 23 25  1  0  0  0  0
 23 26  2  0  0  0  0
 24 27  1  0  0  0  0
 25 28  2  0  0  0  0
 25 29  1  0  0  0  0
 26 30  1  0  0  0  0
 28 31  1  0  0  0  0
 10 12  1  0  0  0  0
 14 15  1  0  0  0  0
 27 29  2  0  0  0  0
 30 31  2  0  0  0  0
M  END
>  <MolRegNo>
1787394

>  <m>
=

>  <Value>
2200

>  <Unit>
nM

>  <Type>
IC50

>  <pValue>
5.66

>  <Ligand Efficiency>
0

>  <Binding Efficiency>
0

>  <Surface Efficiency>
0

>  <Assay Index>
896903

>  <Assay Category>


>  <Assay Organism>
Homo sapiens

>  <Target ID>
17045

>  <Target Name>
Cytochrome P450 3A4

>  <Target Organism>
Homo sapiens

>  <Target Description>
Target is a single protein chain

>  <Sequence Accession>
P08684

>  <Reference>
J Med Chem 57 (17), 7412-7424 (2014)

>  <Pubmed ID>
25100568

>  <DOI>
10.1021/jm500916t

$$$$
1787395
Actelion Java MolfileCreator 1.0

 29 32  0  0  0  0  0  0  0  0999 V2000
    0.0000   -0.0000   -0.0000 F   0  0  0  0  0  0  0  0  0  0  0  0
   -0.0118    1.5048   -0.0000 C   0  0  0  0  0  0  0  0  0  0  0  0
   -1.3152    2.2632   -0.0000 C   0  0  0  0  0  0  0  0  0  0  0  0
    1.2679    2.2632   -0.0000 C   0  0  0  0  0  0  0  0  0  0  0  0
   -1.3271    3.7562   -0.0000 C   0  0  0  0  0  0  0  0  0  0  0  0
    1.2442    3.7562   -0.0000 C   0  0  0  0  0  0  0  0  0  0  0  0
   -0.0474    4.5145   -0.0000 C   0  0  0  0  0  0  0  0  0  0  0  0
   -2.6305    4.5145   -0.0000 C   0  0  0  0  0  0  0  0  0  0  0  0
   -0.0592    6.0193   -0.0000 O   0  0  0  0  0  0  0  0  0  0  0  0
   -3.9339    3.7680   -0.0000 N   0  0  0  0  0  0  0  0  0  0  0  0
   -2.6542    6.0193   -0.0000 C   0  0  0  0  0  0  0  0  0  0  0  0
   -1.3745    6.7777   -0.0000 C   0  0  0  0  0  0  0  0  0  0  0  0
   -5.2491    4.5263   -0.0000 C   0  0  0  0  0  0  0  0  0  0  0  0
   -0.6399    8.0929   -0.0000 C   0  0  0  0  0  0  0  0  0  0  0  0
   -2.1447    8.0929   -0.0000 C   0  0  0  0  0  0  0  0  0  0  0  0
   -5.2728    6.0312   -0.0000 O   0  0  0  0  0  0  0  0  0  0  0  0
   -6.5525    3.7799   -0.0000 N   0  0  0  0  0  0  0  0  0  0  0  0
    0.8413    8.1048   -0.0000 C   0  0  0  0  0  0  0  0  0  0  0  0
   -3.6495    8.1048   -0.0000 C   0  0  0  0  0  0  0  0  0  0  0  0
   -6.5525    2.2987   -0.0000 C   0  0  0  0  0  0  0  0  0  0  0  0
   -7.8559    1.5641   -0.0000 C   0  0  0  0  0  0  0  0  0  0  0  0
   -5.2610    1.5759   -0.0000 C   0  0  0  0  0  0  0  0  0  0  0  0
   -7.8678    0.0711   -0.0000 C   0  0  0  0  0  0  0  0  0  0  0  0
   -9.1593    2.3224   -0.0000 C   0  0  0  0  0  0  0  0  0  0  0  0
   -5.2610    0.0829   -0.0000 C   0  0  0  0  0  0  0  0  0  0  0  0
   -9.1712   -0.6754   -0.0000 C   0  0  0  0  0  0  0  0  0  0  0  0
   -6.5881   -0.6635   -0.0000 C   0  0  0  0  0  0  0  0  0  0  0  0
  -10.4627    1.5878   -0.0000 C   0  0  0  0  0  0  0  0  0  0  0  0
  -10.4746    0.0829   -0.0000 N   0  0  0  0  0  0  0  0  0  0  0  0
  1  2  1  0  0  0  0
  2  3  2  0  0  0  0
  2  4  1  0  0  0  0
  3  5  1  0  0  0  0
  4  6  2  0  0  0  0
  5  7  2  0  0  0  0
  5  8  1  0  0  0  0
  7  9  1  0  0  0  0
  8 10  1  1  0  0  0
  8 11  1  0  0  0  0
  9 12  1  0  0  0  0
 10 13  1  0  0  0  0
 12 14  1  0  0  0  0
 12 15  1  0  0  0  0
 13 16  2  0  0  0  0
 13 17  1  0  0  0  0
 14 18  1  0  0  0  0
 15 19  1  0  0  0  0
 17 20  1  0  0  0  0
 20 21  1  0  0  0  0
 20 22  2  0  0  0  0
 21 23  1  0  0  0  0
 21 24  2  0  0  0  0
 22 25  1  0  0  0  0
 23 26  2  0  0  0  0
 23 27  1  0  0  0  0
 24 28  1  0  0  0  0
 26 29  1  0  0  0  0
  6  7  1  0  0  0  0
 11 12  1  0  0  0  0
 25 27  2  0  0  0  0
 28 29  2  0  0  0  0
M  END
>  <MolRegNo>
1787395

>  <m>
=

>  <Value>
2800

>  <Unit>
nM

>  <Type>
IC50

>  <pValue>
5.55

>  <Ligand Efficiency>
0

>  <Binding Efficiency>
0

>  <Surface Efficiency>
0

>  <Assay Index>
896903

>  <Assay Category>


>  <Assay Organism>
Homo sapiens

>  <Target ID>
17045

>  <Target Name>
Cytochrome P450 3A4

>  <Target Organism>
Homo sapiens

>  <Target Description>
Target is a single protein chain

>  <Sequence Accession>
P08684

>  <Reference>
J Med Chem 57 (17), 7412-7424 (2014)

>  <Pubmed ID>
25100568

>  <DOI>
10.1021/jm500916t

$$$$
1787403
Actelion Java MolfileCreator 1.0

 32 35  0  0  0  0  0  0  0  0999 V2000
    0.0000   -0.0000   -0.0000 F   0  0  0  0  0  0  0  0  0  0  0  0
   -1.3086   -0.7376   -0.0000 C   0  0  0  0  0  0  0  0  0  0  0  0
   -2.6053    0.0119   -0.0000 C   0  0  0  0  0  0  0  0  0  0  0  0
   -1.3086   -2.2008   -0.0000 C   0  0  0  0  0  0  0  0  0  0  0  0
   -2.6172    1.5227   -0.0000 O   0  0  0  0  0  0  0  0  0  0  0  0
   -3.9020   -0.7138   -0.0000 C   0  0  0  0  0  0  0  0  0  0  0  0
   -2.6053   -2.9384   -0.0000 C   0  0  0  0  0  0  0  0  0  0  0  0
   -0.0238   -2.9265   -0.0000 C   0  0  0  0  0  0  0  0  0  0  0  0
   -3.9377    2.2841   -0.0000 C   0  0  0  0  0  0  0  0  0  0  0  0
   -3.9139   -2.1889   -0.0000 C   0  0  0  0  0  0  0  0  0  0  0  0
   -5.2106    0.0357   -0.0000 C   0  0  0  0  0  0  0  0  0  0  0  0
   -0.0357   -4.4135   -0.0000 F   0  0  0  0  0  0  0  0  0  0  0  0
    1.2610   -2.1651   -0.0000 F   0  0  0  0  0  0  0  0  0  0  0  0
    1.0112   -3.9734   -0.0000 F   0  0  0  0  0  0  0  0  0  0  0  0
   -5.2463    1.5465   -0.0000 C   0  0  0  0  0  0  0  0  0  0  0  0
   -4.7109    3.5927   -0.0000 C   0  0  0  0  0  0  0  0  0  0  0  0
   -3.2001    3.6046   -0.0000 C   0  0  0  0  0  0  0  0  0  0  0  0
   -6.5192   -0.7019   -0.0000 N   0  0  0  0  0  0  0  0  0  0  0  0
   -7.8278    0.0476   -0.0000 C   0  0  0  0  0  0  0  0  0  0  0  0
   -7.8516    1.5584   -0.0000 O   0  0  0  0  0  0  0  0  0  0  0  0
   -9.1364   -0.6900   -0.0000 N   0  0  0  0  0  0  0  0  0  0  0  0
   -9.1364   -2.1770   -0.0000 C   0  0  0  0  0  0  0  0  0  0  0  0
  -10.4331   -2.9146   -0.0000 C   0  0  0  0  0  0  0  0  0  0  0  0
   -7.8516   -2.9027   -0.0000 C   0  0  0  0  0  0  0  0  0  0  0  0
  -10.4568   -4.4135   -0.0000 C   0  0  0  0  0  0  0  0  0  0  0  0
  -11.7416   -2.1413   -0.0000 C   0  0  0  0  0  0  0  0  0  0  0  0
   -7.8516   -4.4016   -0.0000 C   0  0  0  0  0  0  0  0  0  0  0  0
  -11.7773   -5.1511   -0.0000 C   0  0  0  0  0  0  0  0  0  0  0  0
   -9.1720   -5.1392   -0.0000 C   0  0  0  0  0  0  0  0  0  0  0  0
  -13.0740   -2.8670   -0.0000 C   0  0  0  0  0  0  0  0  0  0  0  0
  -13.0978   -4.3659   -0.0000 N   0  0  0  0  0  0  0  0  0  0  0  0
  -14.3707   -2.0937   -0.0000 C   0  0  0  0  0  0  0  0  0  0  0  0
  1  2  1  0  0  0  0
  2  3  2  0  0  0  0
  2  4  1  0  0  0  0
  3  5  1  0  0  0  0
  3  6  1  0  0  0  0
  4  7  2  0  0  0  0
  4  8  1  0  0  0  0
  5  9  1  0  0  0  0
  6 10  2  0  0  0  0
  6 11  1  0  0  0  0
  8 12  1  0  0  0  0
  8 13  1  0  0  0  0
  8 14  1  0  0  0  0
  9 15  1  0  0  0  0
  9 16  1  0  0  0  0
  9 17  1  0  0  0  0
 11 18  1  1  0  0  0
 18 19  1  0  0  0  0
 19 20  2  0  0  0  0
 19 21  1  0  0  0  0
 21 22  1  0  0  0  0
 22 23  1  0  0  0  0
 22 24  2  0  0  0  0
 23 25  1  0  0  0  0
 23 26  2  0  0  0  0
 24 27  1  0  0  0  0
 25 28  2  0  0  0  0
 25 29  1  0  0  0  0
 26 30  1  0  0  0  0
 28 31  1  0  0  0  0
 30 32  1  0  0  0  0
  7 10  1  0  0  0  0
 11 15  1  0  0  0  0
 27 29  2  0  0  0  0
 30 31  2  0  0  0  0
M  END
>  <MolRegNo>
1787403

>  <m>
=

>  <Value>
18000

>  <Unit>
nM

>  <Type>
IC50

>  <pValue>
4.75

>  <Ligand Efficiency>
0

>  <Binding Efficiency>
0

>  <Surface Efficiency>
0

>  <Assay Index>
896903

>  <Assay Category>


>  <Assay Organism>
Homo sapiens

>  <Target ID>
17045

>  <Target Name>
Cytochrome P450 3A4

>  <Target Organism>
Homo sapiens

>  <Target Description>
Target is a single protein chain

>  <Sequence Accession>
P08684

>  <Reference>
J Med Chem 57 (17), 7412-7424 (2014)

>  <Pubmed ID>
25100568

>  <DOI>
10.1021/jm500916t

$$$$
1787405
Actelion Java MolfileCreator 1.0

 30 33  0  0  0  0  0  0  0  0999 V2000
    0.0000   -0.0000   -0.0000 F   0  0  0  0  0  0  0  0  0  0  0  0
   -0.0119    1.5089   -0.0000 C   0  0  0  0  0  0  0  0  0  0  0  0
   -1.3069    2.2574   -0.0000 C   0  0  0  0  0  0  0  0  0  0  0  0
    1.2594    2.2693   -0.0000 C   0  0  0  0  0  0  0  0  0  0  0  0
   -1.3188    3.7544   -0.0000 C   0  0  0  0  0  0  0  0  0  0  0  0
    1.2356    3.7544   -0.0000 C   0  0  0  0  0  0  0  0  0  0  0  0
   -0.0475    4.5029   -0.0000 C   0  0  0  0  0  0  0  0  0  0  0  0
   -2.6257    4.5029   -0.0000 C   0  0  0  0  0  0  0  0  0  0  0  0
   -0.0594    6.0118   -0.0000 O   0  0  0  0  0  0  0  0  0  0  0  0
   -3.9326    3.7663   -0.0000 N   0  0  0  0  0  0  0  0  0  0  0  0
   -2.6495    5.9999   -0.0000 C   0  0  0  0  0  0  0  0  0  0  0  0
   -1.3782    6.7722   -0.0000 C   0  0  0  0  0  0  0  0  0  0  0  0
   -5.2396    4.5148   -0.0000 C   0  0  0  0  0  0  0  0  0  0  0  0
   -2.1505    8.0791   -0.0000 C   0  0  0  0  0  0  0  0  0  0  0  0
   -0.6416    8.0910   -0.0000 C   0  0  0  0  0  0  0  0  0  0  0  0
   -5.2633    6.0237   -0.0000 O   0  0  0  0  0  0  0  0  0  0  0  0
   -6.5465    3.7782   -0.0000 N   0  0  0  0  0  0  0  0  0  0  0  0
   -3.6594    8.0910   -0.0000 F   0  0  0  0  0  0  0  0  0  0  0  0
    0.8436    8.1029   -0.0000 F   0  0  0  0  0  0  0  0  0  0  0  0
   -6.5465    2.2930   -0.0000 C   0  0  0  0  0  0  0  0  0  0  0  0
   -7.8415    1.5564   -0.0000 C   0  0  0  0  0  0  0  0  0  0  0  0
   -5.2633    1.5683   -0.0000 C   0  0  0  0  0  0  0  0  0  0  0  0
   -7.8653    0.0594   -0.0000 C   0  0  0  0  0  0  0  0  0  0  0  0
   -9.1484    2.3287   -0.0000 C   0  0  0  0  0  0  0  0  0  0  0  0
   -5.2633    0.0713   -0.0000 C   0  0  0  0  0  0  0  0  0  0  0  0
   -9.1841   -0.6772   -0.0000 C   0  0  0  0  0  0  0  0  0  0  0  0
   -6.5821   -0.6653   -0.0000 C   0  0  0  0  0  0  0  0  0  0  0  0
  -10.4791    1.6039   -0.0000 C   0  0  0  0  0  0  0  0  0  0  0  0
  -10.5029    0.1069   -0.0000 N   0  0  0  0  0  0  0  0  0  0  0  0
  -11.7742    2.3762   -0.0000 C   0  0  0  0  0  0  0  0  0  0  0  0
  1  2  1  0  0  0  0
  2  3  2  0  0  0  0
  2  4  1  0  0  0  0
  3  5  1  0  0  0  0
  4  6  2  0  0  0  0
  5  7  2  0  0  0  0
  5  8  1  0  0  0  0
  7  9  1  0  0  0  0
  8 10  1  1  0  0  0
  8 11  1  0  0  0  0
  9 12  1  0  0  0  0
 10 13  1  0  0  0  0
 12 14  1  0  0  0  0
 12 15  1  0  0  0  0
 13 16  2  0  0  0  0
 13 17  1  0  0  0  0
 14 18  1  0  0  0  0
 15 19  1  0  0  0  0
 17 20  1  0  0  0  0
 20 21  1  0  0  0  0
 20 22  2  0  0  0  0
 21 23  1  0  0  0  0
 21 24  2  0  0  0  0
 22 25  1  0  0  0  0
 23 26  2  0  0  0  0
 23 27  1  0  0  0  0
 24 28  1  0  0  0  0
 26 29  1  0  0  0  0
 28 30  1  0  0  0  0
  6  7  1  0  0  0  0
 11 12  1  0  0  0  0
 25 27  2  0  0  0  0
 28 29  2  0  0  0  0
M  END
>  <MolRegNo>
1787405

>  <m>
=

>  <Value>
15000

>  <Unit>
nM

>  <Type>
IC50

>  <pValue>
4.82

>  <Ligand Efficiency>
0

>  <Binding Efficiency>
0

>  <Surface Efficiency>
0

>  <Assay Index>
896903

>  <Assay Category>


>  <Assay Organism>
Homo sapiens

>  <Target ID>
17045

>  <Target Name>
Cytochrome P450 3A4

>  <Target Organism>
Homo sapiens

>  <Target Description>
Target is a single protein chain

>  <Sequence Accession>
P08684

>  <Reference>
J Med Chem 57 (17), 7412-7424 (2014)

>  <Pubmed ID>
25100568

>  <DOI>
10.1021/jm500916t

$$$$
1787407
Actelion Java MolfileCreator 1.0

 30 33  0  0  0  0  0  0  0  0999 V2000
    0.0000   -0.0000   -0.0000 Cl  0  0  0  0  0  0  0  0  0  0  0  0
   -1.3056    0.7478   -0.0000 C   0  0  0  0  0  0  0  0  0  0  0  0
   -1.3293    2.2314   -0.0000 C   0  0  0  0  0  0  0  0  0  0  0  0
   -2.5993    0.0119   -0.0000 C   0  0  0  0  0  0  0  0  0  0  0  0
   -2.6231    2.9792   -0.0000 C   0  0  0  0  0  0  0  0  0  0  0  0
   -3.8931    0.7596   -0.0000 C   0  0  0  0  0  0  0  0  0  0  0  0
   -2.6350    4.4865   -0.0000 O   0  0  0  0  0  0  0  0  0  0  0  0
   -3.9168    2.2551   -0.0000 C   0  0  0  0  0  0  0  0  0  0  0  0
   -3.9524    5.2462   -0.0000 C   0  0  0  0  0  0  0  0  0  0  0  0
   -5.2224    3.0029   -0.0000 C   0  0  0  0  0  0  0  0  0  0  0  0
   -5.2580    4.5103   -0.0000 C   0  0  0  0  0  0  0  0  0  0  0  0
   -4.7239    6.5518   -0.0000 C   0  0  0  0  0  0  0  0  0  0  0  0
   -3.2165    6.5636   -0.0000 C   0  0  0  0  0  0  0  0  0  0  0  0
   -6.5280    2.2670   -0.0000 N   0  0  0  0  0  0  0  0  0  0  0  0
   -6.2313    6.5636   -0.0000 F   0  0  0  0  0  0  0  0  0  0  0  0
   -1.7329    6.5755   -0.0000 F   0  0  0  0  0  0  0  0  0  0  0  0
   -7.8336    3.0148   -0.0000 C   0  0  0  0  0  0  0  0  0  0  0  0
   -7.8574    4.5221   -0.0000 O   0  0  0  0  0  0  0  0  0  0  0  0
   -9.1392    2.2789   -0.0000 N   0  0  0  0  0  0  0  0  0  0  0  0
   -9.1392    0.7952   -0.0000 C   0  0  0  0  0  0  0  0  0  0  0  0
  -10.4330    0.0593   -0.0000 C   0  0  0  0  0  0  0  0  0  0  0  0
   -7.8574    0.0712   -0.0000 C   0  0  0  0  0  0  0  0  0  0  0  0
  -10.4567   -1.4362   -0.0000 C   0  0  0  0  0  0  0  0  0  0  0  0
  -11.7386    0.8308   -0.0000 C   0  0  0  0  0  0  0  0  0  0  0  0
   -7.8574   -1.4243   -0.0000 C   0  0  0  0  0  0  0  0  0  0  0  0
  -11.7742   -2.1721   -0.0000 C   0  0  0  0  0  0  0  0  0  0  0  0
   -9.1749   -2.1602   -0.0000 C   0  0  0  0  0  0  0  0  0  0  0  0
  -13.0679    0.1068   -0.0000 C   0  0  0  0  0  0  0  0  0  0  0  0
  -13.0917   -1.3887   -0.0000 N   0  0  0  0  0  0  0  0  0  0  0  0
  -14.3617    0.8783   -0.0000 C   0  0  0  0  0  0  0  0  0  0  0  0
  1  2  1  0  0  0  0
  2  3  2  0  0  0  0
  2  4  1  0  0  0  0
  3  5  1  0  0  0  0
  4  6  2  0  0  0  0
  5  7  1  0  0  0  0
  5  8  2  0  0  0  0
  7  9  1  0  0  0  0
  8 10  1  0  0  0  0
  9 11  1  0  0  0  0
  9 12  1  0  0  0  0
  9 13  1  0  0  0  0
 10 14  1  1  0  0  0
 12 15  1  0  0  0  0
 13 16  1  0  0  0  0
 14 17  1  0  0  0  0
 17 18  2  0  0  0  0
 17 19  1  0  0  0  0
 19 20  1  0  0  0  0
 20 21  1  0  0  0  0
 20 22  2  0  0  0  0
 21 23  1  0  0  0  0
 21 24  2  0  0  0  0
 22 25  1  0  0  0  0
 23 26  2  0  0  0  0
 23 27  1  0  0  0  0
 24 28  1  0  0  0  0
 26 29  1  0  0  0  0
 28 30  1  0  0  0  0
  6  8  1  0  0  0  0
 10 11  1  0  0  0  0
 25 27  2  0  0  0  0
 28 29  2  0  0  0  0
M  END
>  <MolRegNo>
1787407

>  <m>
=

>  <Value>
20000

>  <Unit>
nM

>  <Type>
IC50

>  <pValue>
4.7

>  <Ligand Efficiency>
0

>  <Binding Efficiency>
0

>  <Surface Efficiency>
0

>  <Assay Index>
896903

>  <Assay Category>


>  <Assay Organism>
Homo sapiens

>  <Target ID>
17045

>  <Target Name>
Cytochrome P450 3A4

>  <Target Organism>
Homo sapiens

>  <Target Description>
Target is a single protein chain

>  <Sequence Accession>
P08684

>  <Reference>
J Med Chem 57 (17), 7412-7424 (2014)

>  <Pubmed ID>
25100568

>  <DOI>
10.1021/jm500916t

$$$$
1817444
Actelion Java MolfileCreator 1.0

 20 23  0  0  0  0  0  0  0  0999 V2000
    0.0000   -0.0000   -0.0000 O   0  0  0  0  0  0  0  0  0  0  0  0
   -1.3111   -0.7441   -0.0000 C   0  0  0  0  0  0  0  0  0  0  0  0
   -2.6931   -0.1299   -0.0000 N   0  0  0  0  0  0  0  0  0  0  0  0
   -1.4883   -2.2324   -0.0000 C   0  0  0  0  0  0  0  0  0  0  0  0
   -3.7089   -1.2284   -0.0000 C   0  0  0  0  0  0  0  0  0  0  0  0
   -2.9647   -2.5395   -0.0000 C   0  0  0  0  0  0  0  0  0  0  0  0
   -0.3780   -3.2246   -0.0000 C   0  0  0  0  0  0  0  0  0  0  0  0
   -5.2207   -1.2166   -0.0000 C   0  0  0  0  0  0  0  0  0  0  0  0
   -3.7325   -3.8270   -0.0000 C   0  0  0  0  0  0  0  0  0  0  0  0
    1.0394   -2.7403   -0.0000 C   0  0  0  0  0  0  0  0  0  0  0  0
   -5.9885   -2.5041   -0.0000 C   0  0  0  0  0  0  0  0  0  0  0  0
   -5.2444   -3.8152   -0.0000 C   0  0  0  0  0  0  0  0  0  0  0  0
    1.3465   -1.2638   -0.0000 C   0  0  0  0  0  0  0  0  0  0  0  0
    2.1379   -3.7325   -0.0000 C   0  0  0  0  0  0  0  0  0  0  0  0
    2.7521   -0.7796   -0.0000 C   0  0  0  0  0  0  0  0  0  0  0  0
    3.5553   -3.2600   -0.0000 C   0  0  0  0  0  0  0  0  0  0  0  0
    3.3545    0.5906   -0.0000 N   0  0  0  0  0  0  0  0  0  0  0  0
    3.8624   -1.7717   -0.0000 C   0  0  0  0  0  0  0  0  0  0  0  0
    4.8428    0.4488   -0.0000 N   0  0  0  0  0  0  0  0  0  0  0  0
    5.1499   -1.0040   -0.0000 C   0  0  0  0  0  0  0  0  0  0  0  0
  1  2  2  0  0  0  0
  2  3  1  0  0  0  0
  2  4  1  0  0  0  0
  3  5  1  0  0  0  0
  4  6  1  0  0  0  0
  4  7  2  0  0  0  0
  5  8  1  0  0  0  0
  6  9  1  0  0  0  0
  7 10  1  0  0  0  0
  8 11  2  0  0  0  0
  9 12  2  0  0  0  0
 10 13  2  0  0  0  0
 10 14  1  0  0  0  0
 13 15  1  0  0  0  0
 14 16  2  0  0  0  0
 15 17  1  0  0  0  0
 15 18  2  0  0  0  0
 17 19  1  0  0  0  0
 18 20  1  0  0  0  0
  5  6  2  0  0  0  0
 11 12  1  0  0  0  0
 16 18  1  0  0  0  0
 19 20  2  0  0  0  0
M  END
>  <MolRegNo>
1817444

>  <m>
=

>  <Value>
10000

>  <Unit>
nM

>  <Type>
IC50

>  <pValue>
5

>  <Ligand Efficiency>
0

>  <Binding Efficiency>
0

>  <Surface Efficiency>
0

>  <Assay Index>
896355

>  <Assay Category>


>  <Assay Organism>
Homo sapiens

>  <Target ID>
17045

>  <Target Name>
Cytochrome P450 3A4

>  <Target Organism>
Homo sapiens

>  <Target Description>
Target is a single protein chain

>  <Sequence Accession>
P08684

>  <Reference>
J Med Chem 58 (1), 130-146 (2015)

>  <Pubmed ID>
24867403

>  <DOI>
10.1021/jm5005336

$$$$
1817448
Actelion Java MolfileCreator 1.0

 38 44  0  0  0  0  0  0  0  0999 V2000
    0.0000   -0.0000   -0.0000 O   0  0  0  0  0  0  0  0  0  0  0  0
   -1.3857   -0.6040   -0.0000 C   0  0  0  0  0  0  0  0  0  0  0  0
   -2.7004    0.1658   -0.0000 N   0  0  0  0  0  0  0  0  0  0  0  0
   -1.7174   -2.0608   -0.0000 C   0  0  0  0  0  0  0  0  0  0  0  0
   -3.8256   -0.8291   -0.0000 C   0  0  0  0  0  0  0  0  0  0  0  0
   -3.2215   -2.2148   -0.0000 C   0  0  0  0  0  0  0  0  0  0  0  0
   -0.2961   -2.5109   -0.0000 C   0  0  0  0  0  0  0  0  0  0  0  0
   -1.4094   -3.5176   -0.0000 C   0  0  0  0  0  0  0  0  0  0  0  0
   -5.3298   -0.6514   -0.0000 C   0  0  0  0  0  0  0  0  0  0  0  0
   -4.1217   -3.4110   -0.0000 C   0  0  0  0  0  0  0  0  0  0  0  0
    1.1725   -2.1911   -0.0000 C   0  0  0  0  0  0  0  0  0  0  0  0
   -6.2299   -1.8595   -0.0000 C   0  0  0  0  0  0  0  0  0  0  0  0
   -5.6377   -3.2334   -0.0000 C   0  0  0  0  0  0  0  0  0  0  0  0
    1.6226   -0.7462   -0.0000 C   0  0  0  0  0  0  0  0  0  0  0  0
    2.1556   -3.2926   -0.0000 C   0  0  0  0  0  0  0  0  0  0  0  0
   -6.5378   -4.4415   -0.0000 O   0  0  0  0  0  0  0  0  0  0  0  0
    3.0794   -0.4145   -0.0000 C   0  0  0  0  0  0  0  0  0  0  0  0
    3.6124   -2.9610   -0.0000 C   0  0  0  0  0  0  0  0  0  0  0  0
   -8.0539   -4.2757   -0.0000 C   0  0  0  0  0  0  0  0  0  0  0  0
    3.8256    0.9001   -0.0000 N   0  0  0  0  0  0  0  0  0  0  0  0
    4.0743   -1.5160   -0.0000 C   0  0  0  0  0  0  0  0  0  0  0  0
    5.2824    0.5922   -0.0000 N   0  0  0  0  0  0  0  0  0  0  0  0
    5.4364   -0.9001   -0.0000 C   0  0  0  0  0  0  0  0  0  0  0  0
    6.7273   -1.6463   -0.0000 C   0  0  0  0  0  0  0  0  0  0  0  0
    8.0183   -0.8764   -0.0000 C   0  0  0  0  0  0  0  0  0  0  0  0
    9.3093   -1.6226   -0.0000 C   0  0  0  0  0  0  0  0  0  0  0  0
    9.2975   -3.1150   -0.0000 C   0  0  0  0  0  0  0  0  0  0  0  0
   10.6003   -0.8528   -0.0000 C   0  0  0  0  0  0  0  0  0  0  0  0
   10.5885   -3.8611   -0.0000 N   0  0  0  0  0  0  0  0  0  0  0  0
   11.8913   -1.5989   -0.0000 C   0  0  0  0  0  0  0  0  0  0  0  0
   11.8795   -3.0913   -0.0000 C   0  0  0  0  0  0  0  0  0  0  0  0
   13.1704   -3.8374   -0.0000 N   0  0  0  0  0  0  0  0  0  0  0  0
   14.4614   -3.0676   -0.0000 C   0  0  0  0  0  0  0  0  0  0  0  0
   13.1586   -5.3298   -0.0000 C   0  0  0  0  0  0  0  0  0  0  0  0
   15.7524   -3.8137   -0.0000 C   0  0  0  0  0  0  0  0  0  0  0  0
   14.4496   -6.0759   -0.0000 C   0  0  0  0  0  0  0  0  0  0  0  0
   15.7406   -5.3061   -0.0000 N   0  0  0  0  0  0  0  0  0  0  0  0
   17.0316   -6.0522   -0.0000 C   0  0  0  0  0  0  0  0  0  0  0  0
  1  2  2  0  0  0  0
  2  3  1  0  0  0  0
  2  4  1  0  0  0  0
  3  5  1  0  0  0  0
  4  6  1  0  0  0  0
  4  7  1  0  0  0  0
  4  8  1  6  0  0  0
  5  9  1  0  0  0  0
  6 10  1  0  0  0  0
  7 11  1  1  0  0  0
  9 12  2  0  0  0  0
 10 13  2  0  0  0  0
 11 14  2  0  0  0  0
 11 15  1  0  0  0  0
 13 16  1  0  0  0  0
 14 17  1  0  0  0  0
 15 18  2  0  0  0  0
 16 19  1  0  0  0  0
 17 20  1  0  0  0  0
 17 21  2  0  0  0  0
 20 22  1  0  0  0  0
 21 23  1  0  0  0  0
 23 24  1  0  0  0  0
 24 25  2  0  0  0  0
 25 26  1  0  0  0  0
 26 27  2  0  0  0  0
 26 28  1  0  0  0  0
 27 29  1  0  0  0  0
 28 30  2  0  0  0  0
 29 31  2  0  0  0  0
 31 32  1  0  0  0  0
 32 33  1  0  0  0  0
 32 34  1  0  0  0  0
 33 35  1  0  0  0  0
 34 36  1  0  0  0  0
 35 37  1  0  0  0  0
 37 38  1  0  0  0  0
  5  6  2  0  0  0  0
  7  8  1  0  0  0  0
 12 13  1  0  0  0  0
 18 21  1  0  0  0  0
 22 23  2  0  0  0  0
 30 31  1  0  0  0  0
 36 37  1  0  0  0  0
M  END
>  <MolRegNo>
1817448

>  <m>
=

>  <Value>
2100

>  <Unit>
nM

>  <Type>
IC50

>  <pValue>
5.68

>  <Ligand Efficiency>
0

>  <Binding Efficiency>
0

>  <Surface Efficiency>
0

>  <Assay Index>
896355

>  <Assay Category>


>  <Assay Organism>
Homo sapiens

>  <Target ID>
17045

>  <Target Name>
Cytochrome P450 3A4

>  <Target Organism>
Homo sapiens

>  <Target Description>
Target is a single protein chain

>  <Sequence Accession>
P08684

>  <Reference>
J Med Chem 58 (1), 130-146 (2015)

>  <Pubmed ID>
24867403

>  <DOI>
10.1021/jm5005336

$$$$
1789438
Actelion Java MolfileCreator 1.0

 31 35  0  0  0  0  0  0  0  0999 V2000
    0.0000   -0.0000   -0.0000 Cl  0  0  0  0  0  0  0  0  0  0  0  0
   -0.1782   -1.4729   -0.0000 C   0  0  0  0  0  0  0  0  0  0  0  0
   -1.4847   -2.1974   -0.0000 S   0  0  0  0  0  0  0  0  0  0  0  0
    0.9146   -2.4706   -0.0000 C   0  0  0  0  0  0  0  0  0  0  0  0
   -1.1878   -3.6465   -0.0000 C   0  0  0  0  0  0  0  0  0  0  0  0
    0.2851   -3.8247   -0.0000 C   0  0  0  0  0  0  0  0  0  0  0  0
   -2.2093   -4.7393   -0.0000 C   0  0  0  0  0  0  0  0  0  0  0  0
   -1.7698   -6.1528   -0.0000 O   0  0  0  0  0  0  0  0  0  0  0  0
   -3.6822   -4.4067   -0.0000 N   0  0  0  0  0  0  0  0  0  0  0  0
   -4.7037   -5.4995   -0.0000 C   0  0  0  0  0  0  0  0  0  0  0  0
   -6.1765   -5.1669   -0.0000 C   0  0  0  0  0  0  0  0  0  0  0  0
   -6.7942   -3.7772   -0.0000 O   0  0  0  0  0  0  0  0  0  0  0  0
   -7.3168   -6.1528   -0.0000 C   0  0  0  0  0  0  0  0  0  0  0  0
   -8.3027   -3.9197   -0.0000 C   0  0  0  0  0  0  0  0  0  0  0  0
   -8.6234   -5.3807   -0.0000 N   0  0  0  0  0  0  0  0  0  0  0  0
   -7.3287   -7.6494   -0.0000 C   0  0  0  0  0  0  0  0  0  0  0  0
   -9.3123   -2.7913   -0.0000 O   0  0  0  0  0  0  0  0  0  0  0  0
   -9.9299   -6.1290   -0.0000 C   0  0  0  0  0  0  0  0  0  0  0  0
   -8.6471   -8.3858   -0.0000 O   0  0  0  0  0  0  0  0  0  0  0  0
   -9.9418   -7.6256   -0.0000 C   0  0  0  0  0  0  0  0  0  0  0  0
  -11.2365   -5.3807   -0.0000 C   0  0  0  0  0  0  0  0  0  0  0  0
  -11.2484   -8.3620   -0.0000 C   0  0  0  0  0  0  0  0  0  0  0  0
  -12.5431   -6.1171   -0.0000 C   0  0  0  0  0  0  0  0  0  0  0  0
  -12.5549   -7.6019   -0.0000 C   0  0  0  0  0  0  0  0  0  0  0  0
  -13.8615   -8.3383   -0.0000 N   0  0  0  0  0  0  0  0  0  0  0  0
  -15.1681   -7.5781   -0.0000 C   0  0  0  0  0  0  0  0  0  0  0  0
  -13.8734   -9.8230   -0.0000 C   0  0  0  0  0  0  0  0  0  0  0  0
  -15.1800   -6.0696   -0.0000 O   0  0  0  0  0  0  0  0  0  0  0  0
  -16.4747   -8.3027   -0.0000 C   0  0  0  0  0  0  0  0  0  0  0  0
  -15.1918  -10.5595   -0.0000 C   0  0  0  0  0  0  0  0  0  0  0  0
  -16.4984   -9.7874   -0.0000 O   0  0  0  0  0  0  0  0  0  0  0  0
  1  2  1  0  0  0  0
  2  3  1  0  0  0  0
  2  4  2  0  0  0  0
  3  5  1  0  0  0  0
  4  6  1  0  0  0  0
  5  7  1  0  0  0  0
  7  8  2  0  0  0  0
  7  9  1  0  0  0  0
  9 10  1  0  0  0  0
 11 10  1  1  0  0  0
 11 12  1  0  0  0  0
 11 13  1  0  0  0  0
 12 14  1  0  0  0  0
 13 15  1  6  0  0  0
 13 16  1  0  0  0  0
 14 17  2  0  0  0  0
 15 18  1  0  0  0  0
 16 19  1  0  0  0  0
 18 20  2  0  0  0  0
 18 21  1  0  0  0  0
 20 22  1  0  0  0  0
 21 23  2  0  0  0  0
 22 24  2  0  0  0  0
 24 25  1  0  0  0  0
 25 26  1  0  0  0  0
 25 27  1  0  0  0  0
 26 28  2  0  0  0  0
 26 29  1  0  0  0  0
 27 30  1  0  0  0  0
 29 31  1  0  0  0  0
  5  6  2  0  0  0  0
 14 15  1  0  0  0  0
 19 20  1  0  0  0  0
 23 24  1  0  0  0  0
 30 31  1  0  0  0  0
M  END
>  <MolRegNo>
1789438

>  <m>
=

>  <Value>
85120

>  <Unit>
nM

>  <Type>
IC50

>  <pValue>
4.07

>  <Ligand Efficiency>
0

>  <Binding Efficiency>
0

>  <Surface Efficiency>
0

>  <Assay Index>
882139

>  <Assay Category>


>  <Assay Organism>
Homo sapiens

>  <Target ID>
17045

>  <Target Name>
Cytochrome P450 3A4

>  <Target Organism>
Homo sapiens

>  <Target Description>
Target is a single protein chain

>  <Sequence Accession>
P08684

>  <Reference>
J Med Chem 57 (18), 7770-7791 (2014)

>  <Pubmed ID>
25179681

>  <DOI>
10.1021/jm501045e

$$$$
1818106
Actelion Java MolfileCreator 1.0

 34 38  0  0  0  0  0  0  0  0999 V2000
    0.0000   -0.0000   -0.0000 O   0  0  0  0  0  0  0  0  0  0  0  0
    1.2787    0.7578   -0.0000 C   0  0  0  0  0  0  0  0  0  0  0  0
    1.2669    2.2614   -0.0000 N   0  0  0  0  0  0  0  0  0  0  0  0
    2.5693    0.0237   -0.0000 C   0  0  0  0  0  0  0  0  0  0  0  0
   -0.0355    3.0192   -0.0000 C   0  0  0  0  0  0  0  0  0  0  0  0
    2.5574    3.0310   -0.0000 C   0  0  0  0  0  0  0  0  0  0  0  0
   -0.0592    4.5347   -0.0000 C   0  0  0  0  0  0  0  0  0  0  0  0
   -1.3498    2.2733   -0.0000 C   0  0  0  0  0  0  0  0  0  0  0  0
    2.5337    4.5465   -0.0000 C   0  0  0  0  0  0  0  0  0  0  0  0
    3.8480    2.2969   -0.0000 C   0  0  0  0  0  0  0  0  0  0  0  0
   -1.3734    5.2806   -0.0000 C   0  0  0  0  0  0  0  0  0  0  0  0
    1.2077    5.3043   -0.0000 C   0  0  0  0  0  0  0  0  0  0  0  0
   -2.6521    3.0429   -0.0000 C   0  0  0  0  0  0  0  0  0  0  0  0
   -2.6758    4.5465   -0.0000 C   0  0  0  0  0  0  0  0  0  0  0  0
    1.1958    6.8080   -0.0000 N   0  0  0  0  0  0  0  0  0  0  0  0
   -3.9782    5.3043   -0.0000 C   0  0  0  0  0  0  0  0  0  0  0  0
    2.4745    7.5657   -0.0000 C   0  0  0  0  0  0  0  0  0  0  0  0
   -3.9901    6.8198   -0.0000 C   0  0  0  0  0  0  0  0  0  0  0  0
   -5.2806    4.5702   -0.0000 C   0  0  0  0  0  0  0  0  0  0  0  0
    3.7414    6.8316   -0.0000 C   0  0  0  0  0  0  0  0  0  0  0  0
    2.4509    9.0576   -0.0000 C   0  0  0  0  0  0  0  0  0  0  0  0
   -5.3043    7.5894   -0.0000 C   0  0  0  0  0  0  0  0  0  0  0  0
   -6.5948    5.3161   -0.0000 C   0  0  0  0  0  0  0  0  0  0  0  0
    5.0201    7.5894   -0.0000 C   0  0  0  0  0  0  0  0  0  0  0  0
    3.7296    9.8153   -0.0000 C   0  0  0  0  0  0  0  0  0  0  0  0
   -6.6185    6.8435   -0.0000 C   0  0  0  0  0  0  0  0  0  0  0  0
    5.0083    9.0931   -0.0000 C   0  0  0  0  0  0  0  0  0  0  0  0
   -7.9209    7.6012   -0.0000 C   0  0  0  0  0  0  0  0  0  0  0  0
   -7.9328    9.1049   -0.0000 N   0  0  0  0  0  0  0  0  0  0  0  0
   -6.6540    9.8508   -0.0000 C   0  0  0  0  0  0  0  0  0  0  0  0
   -9.2352    9.8508   -0.0000 C   0  0  0  0  0  0  0  0  0  0  0  0
   -6.6659   11.3427   -0.0000 C   0  0  0  0  0  0  0  0  0  0  0  0
   -9.2470   11.3545   -0.0000 C   0  0  0  0  0  0  0  0  0  0  0  0
   -7.9683   12.1004   -0.0000 C   0  0  0  0  0  0  0  0  0  0  0  0
  1  2  2  0  0  0  0
  2  3  1  0  0  0  0
  2  4  1  0  0  0  0
  3  5  1  0  0  0  0
  3  6  1  0  0  0  0
  5  7  2  0  0  0  0
  5  8  1  0  0  0  0
  6  9  1  0  0  0  0
  6 10  1  1  0  0  0
  7 11  1  0  0  0  0
  7 12  1  0  0  0  0
  8 13  2  0  0  0  0
 11 14  2  0  0  0  0
 12 15  1  1  0  0  0
 14 16  1  0  0  0  0
 15 17  1  0  0  0  0
 16 18  2  0  0  0  0
 16 19  1  0  0  0  0
 17 20  2  0  0  0  0
 17 21  1  0  0  0  0
 18 22  1  0  0  0  0
 19 23  2  0  0  0  0
 20 24  1  0  0  0  0
 21 25  2  0  0  0  0
 22 26  2  0  0  0  0
 24 27  2  0  0  0  0
 26 28  1  0  0  0  0
 28 29  1  0  0  0  0
 29 30  1  0  0  0  0
 29 31  1  0  0  0  0
 30 32  1  0  0  0  0
 31 33  1  0  0  0  0
 32 34  1  0  0  0  0
  9 12  1  0  0  0  0
 13 14  1  0  0  0  0
 23 26  1  0  0  0  0
 25 27  1  0  0  0  0
 33 34  1  0  0  0  0
M  END
>  <MolRegNo>
1818106

>  <m>
=

>  <Value>
10000

>  <Unit>
nM

>  <Type>
IC50

>  <pValue>
5

>  <Ligand Efficiency>
0

>  <Binding Efficiency>
0

>  <Surface Efficiency>
0

>  <Assay Index>
880224

>  <Assay Category>


>  <Assay Organism>
Homo sapiens

>  <Target ID>
17045

>  <Target Name>
Cytochrome P450 3A4

>  <Target Organism>
Homo sapiens

>  <Target Description>
Target is a single protein chain

>  <Sequence Accession>
P08684

>  <Reference>
J Med Chem 57 (19), 8111-8131 (2014)

>  <Pubmed ID>
25249180

>  <DOI>
10.1021/jm5010539

$$$$
1438083
Actelion Java MolfileCreator 1.0

 31 34  0  0  0  0  0  0  0  0999 V2000
    0.0000   -0.0000   -0.0000 Cl  0  0  0  0  0  0  0  0  0  0  0  0
   -1.3030   -0.7344   -0.0000 C   0  0  0  0  0  0  0  0  0  0  0  0
   -1.3149   -2.2270   -0.0000 C   0  0  0  0  0  0  0  0  0  0  0  0
   -2.6179    0.0237   -0.0000 C   0  0  0  0  0  0  0  0  0  0  0  0
   -2.6179   -2.9614   -0.0000 C   0  0  0  0  0  0  0  0  0  0  0  0
   -3.9210   -0.7107   -0.0000 C   0  0  0  0  0  0  0  0  0  0  0  0
   -3.9210   -2.1915   -0.0000 C   0  0  0  0  0  0  0  0  0  0  0  0
   -5.2358   -2.9259   -0.0000 N   0  0  0  0  0  0  0  0  0  0  0  0
   -5.2477   -4.4066   -0.0000 C   0  0  0  0  0  0  0  0  0  0  0  0
   -6.5507   -5.1529   -0.0000 C   0  0  0  0  0  0  0  0  0  0  0  0
   -3.9565   -5.1529   -0.0000 C   0  0  0  0  0  0  0  0  0  0  0  0
   -6.5626   -6.6455   -0.0000 C   0  0  0  0  0  0  0  0  0  0  0  0
   -7.8656   -4.3948   -0.0000 C   0  0  0  0  0  0  0  0  0  0  0  0
   -3.9683   -6.6455   -0.0000 C   0  0  0  0  0  0  0  0  0  0  0  0
   -5.2832   -7.3799   -0.0000 N   0  0  0  0  0  0  0  0  0  0  0  0
   -7.8656   -7.3918   -0.0000 C   0  0  0  0  0  0  0  0  0  0  0  0
   -9.1686   -5.1292   -0.0000 C   0  0  0  0  0  0  0  0  0  0  0  0
   -2.6890   -7.3918   -0.0000 C   0  0  0  0  0  0  0  0  0  0  0  0
   -5.2951   -8.8607   -0.0000 C   0  0  0  0  0  0  0  0  0  0  0  0
   -9.1805   -6.6336   -0.0000 C   0  0  0  0  0  0  0  0  0  0  0  0
  -10.4717   -4.3711   -0.0000 C   0  0  0  0  0  0  0  0  0  0  0  0
   -4.0157   -9.6069   -0.0000 O   0  0  0  0  0  0  0  0  0  0  0  0
   -6.6100   -9.5951   -0.0000 C   0  0  0  0  0  0  0  0  0  0  0  0
  -10.4835   -2.8548   -0.0000 C   0  0  0  0  0  0  0  0  0  0  0  0
  -11.7747   -5.1055   -0.0000 C   0  0  0  0  0  0  0  0  0  0  0  0
  -11.7866   -2.0967   -0.0000 C   0  0  0  0  0  0  0  0  0  0  0  0
  -13.0778   -4.3474   -0.0000 C   0  0  0  0  0  0  0  0  0  0  0  0
  -13.1014   -2.8311   -0.0000 C   0  0  0  0  0  0  0  0  0  0  0  0
  -14.4163   -2.0730   -0.0000 C   0  0  0  0  0  0  0  0  0  0  0  0
  -14.4282   -0.5686   -0.0000 O   0  0  0  0  0  0  0  0  0  0  0  0
  -15.7194   -2.8075   -0.0000 O   0  0  0  0  0  0  0  0  0  0  0  0
  1  2  1  0  0  0  0
  2  3  2  0  0  0  0
  2  4  1  0  0  0  0
  3  5  1  0  0  0  0
  4  6  2  0  0  0  0
  5  7  2  0  0  0  0
  7  8  1  0  0  0  0
  9  8  1  1  0  0  0
  9 10  1  0  0  0  0
  9 11  1  0  0  0  0
 10 12  2  0  0  0  0
 10 13  1  0  0  0  0
 11 14  1  0  0  0  0
 12 15  1  0  0  0  0
 12 16  1  0  0  0  0
 13 17  2  0  0  0  0
 14 18  1  1  0  0  0
 15 19  1  0  0  0  0
 16 20  2  0  0  0  0
 17 21  1  0  0  0  0
 19 22  2  0  0  0  0
 19 23  1  0  0  0  0
 21 24  2  0  0  0  0
 21 25  1  0  0  0  0
 24 26  1  0  0  0  0
 25 27  2  0  0  0  0
 26 28  2  0  0  0  0
 28 29  1  0  0  0  0
 29 30  2  0  0  0  0
 29 31  1  0  0  0  0
  6  7  1  0  0  0  0
 14 15  1  0  0  0  0
 17 20  1  0  0  0  0
 27 28  1  0  0  0  0
M  END
>  <MolRegNo>
1438083

>  <m>
=

>  <Value>
32000

>  <Unit>
nM

>  <Type>
IC50

>  <pValue>
4.5

>  <Ligand Efficiency>
0

>  <Binding Efficiency>
0

>  <Surface Efficiency>
0

>  <Assay Index>
880224

>  <Assay Category>


>  <Assay Organism>
Homo sapiens

>  <Target ID>
17045

>  <Target Name>
Cytochrome P450 3A4

>  <Target Organism>
Homo sapiens

>  <Target Description>
Target is a single protein chain

>  <Sequence Accession>
P08684

>  <Reference>
J Med Chem 57 (19), 8111-8131 (2014)

>  <Pubmed ID>
25249180

>  <DOI>
10.1021/jm5010539

$$$$
1789052
Actelion Java MolfileCreator 1.0

 23 24  0  0  0  0  0  0  0  0999 V2000
    0.0000   -0.0000   -0.0000 F   0  0  0  0  0  0  0  0  0  0  0  0
    1.2913   -0.7413   -0.0000 C   0  0  0  0  0  0  0  0  0  0  0  0
    2.5826    0.0239   -0.0000 C   0  0  0  0  0  0  0  0  0  0  0  0
    1.2793   -2.2478   -0.0000 C   0  0  0  0  0  0  0  0  0  0  0  0
    2.5706    1.5424   -0.0000 F   0  0  0  0  0  0  0  0  0  0  0  0
    3.8739   -0.7174   -0.0000 C   0  0  0  0  0  0  0  0  0  0  0  0
    2.5706   -2.9891   -0.0000 C   0  0  0  0  0  0  0  0  0  0  0  0
    3.8619   -2.2239   -0.0000 C   0  0  0  0  0  0  0  0  0  0  0  0
    2.5587   -4.4837   -0.0000 F   0  0  0  0  0  0  0  0  0  0  0  0
    5.1532   -2.9652   -0.0000 C   0  0  0  0  0  0  0  0  0  0  0  0
    6.4446   -2.2000   -0.0000 C   0  0  0  0  0  0  0  0  0  0  0  0
    6.4326   -0.6815   -0.0000 N   0  0  0  0  0  0  0  0  0  0  0  0
    7.7359   -2.9413   -0.0000 C   0  0  0  0  0  0  0  0  0  0  0  0
    9.0272   -2.1761   -0.0000 C   0  0  0  0  0  0  0  0  0  0  0  0
    9.0152   -0.6576   -0.0000 O   0  0  0  0  0  0  0  0  0  0  0  0
   10.3185   -2.9174   -0.0000 N   0  0  0  0  0  0  0  0  0  0  0  0
   10.4619   -4.4000   -0.0000 C   0  0  0  0  0  0  0  0  0  0  0  0
   11.6815   -2.2837   -0.0000 C   0  0  0  0  0  0  0  0  0  0  0  0
    9.3380   -5.3924   -0.0000 C   0  0  0  0  0  0  0  0  0  0  0  0
   11.9206   -4.6989   -0.0000 C   0  0  0  0  0  0  0  0  0  0  0  0
   12.6858   -3.3956   -0.0000 C   0  0  0  0  0  0  0  0  0  0  0  0
    8.2022   -6.3967   -0.0000 N   0  0  0  0  0  0  0  0  0  0  0  0
   14.1684   -3.2283   -0.0000 F   0  0  0  0  0  0  0  0  0  0  0  0
  1  2  1  0  0  0  0
  2  3  2  0  0  0  0
  2  4  1  0  0  0  0
  3  5  1  0  0  0  0
  3  6  1  0  0  0  0
  4  7  2  0  0  0  0
  6  8  2  0  0  0  0
  7  9  1  0  0  0  0
  8 10  1  0  0  0  0
 10 11  1  0  0  0  0
 11 12  1  1  0  0  0
 11 13  1  0  0  0  0
 13 14  1  0  0  0  0
 14 15  2  0  0  0  0
 14 16  1  0  0  0  0
 16 17  1  0  0  0  0
 16 18  1  0  0  0  0
 17 19  1  1  0  0  0
 17 20  1  0  0  0  0
 18 21  1  0  0  0  0
 19 22  3  0  0  0  0
 21 23  1  1  0  0  0
  7  8  1  0  0  0  0
 20 21  1  0  0  0  0
M  END
>  <MolRegNo>
1789052

>  <m>
=

>  <Value>
56490

>  <Unit>
nM

>  <Type>
IC50

>  <pValue>
4.25

>  <Ligand Efficiency>
0

>  <Binding Efficiency>
0

>  <Surface Efficiency>
0

>  <Assay Index>
905202

>  <Assay Category>


>  <Assay Organism>
Homo sapiens

>  <Target ID>
17045

>  <Target Name>
Cytochrome P450 3A4

>  <Target Organism>
Homo sapiens

>  <Target Description>
Target is a single protein chain

>  <Sequence Accession>
P08684

>  <Reference>


>  <Pubmed ID>
25164763

>  <DOI>
10.1016/j.ejmech.2014.08.059

$$$$
1789065
Actelion Java MolfileCreator 1.0

 25 27  0  0  0  0  0  0  0  0999 V2000
    0.0000   -0.0000   -0.0000 F   0  0  0  0  0  0  0  0  0  0  0  0
    1.2915   -0.7414   -0.0000 C   0  0  0  0  0  0  0  0  0  0  0  0
    2.5829    0.0239   -0.0000 C   0  0  0  0  0  0  0  0  0  0  0  0
    1.2795   -2.2481   -0.0000 C   0  0  0  0  0  0  0  0  0  0  0  0
    2.5710    1.5426   -0.0000 F   0  0  0  0  0  0  0  0  0  0  0  0
    3.8744   -0.7175   -0.0000 C   0  0  0  0  0  0  0  0  0  0  0  0
    2.5710   -2.9895   -0.0000 C   0  0  0  0  0  0  0  0  0  0  0  0
    3.8624   -2.2242   -0.0000 C   0  0  0  0  0  0  0  0  0  0  0  0
    2.5590   -4.4842   -0.0000 F   0  0  0  0  0  0  0  0  0  0  0  0
    5.1539   -2.9656   -0.0000 C   0  0  0  0  0  0  0  0  0  0  0  0
    6.4454   -2.2003   -0.0000 C   0  0  0  0  0  0  0  0  0  0  0  0
    6.4334   -0.6816   -0.0000 N   0  0  0  0  0  0  0  0  0  0  0  0
    7.7368   -2.9417   -0.0000 C   0  0  0  0  0  0  0  0  0  0  0  0
    9.0283   -2.1764   -0.0000 C   0  0  0  0  0  0  0  0  0  0  0  0
    9.0163   -0.6577   -0.0000 O   0  0  0  0  0  0  0  0  0  0  0  0
   10.3197   -2.9177   -0.0000 N   0  0  0  0  0  0  0  0  0  0  0  0
   10.4632   -4.4005   -0.0000 C   0  0  0  0  0  0  0  0  0  0  0  0
   11.6830   -2.2840   -0.0000 C   0  0  0  0  0  0  0  0  0  0  0  0
    9.3392   -5.3931   -0.0000 C   0  0  0  0  0  0  0  0  0  0  0  0
   11.9221   -4.6995   -0.0000 C   0  0  0  0  0  0  0  0  0  0  0  0
   12.6755   -3.3841   -0.0000 C   0  0  0  0  0  0  0  0  0  0  0  0
   12.4243   -0.9686   -0.0000 C   0  0  0  0  0  0  0  0  0  0  0  0
    8.2032   -6.3975   -0.0000 N   0  0  0  0  0  0  0  0  0  0  0  0
   14.0387   -2.7623   -0.0000 C   0  0  0  0  0  0  0  0  0  0  0  0
   13.8832   -1.2675   -0.0000 C   0  0  0  0  0  0  0  0  0  0  0  0
  1  2  1  0  0  0  0
  2  3  2  0  0  0  0
  2  4  1  0  0  0  0
  3  5  1  0  0  0  0
  3  6  1  0  0  0  0
  4  7  2  0  0  0  0
  6  8  2  0  0  0  0
  7  9  1  0  0  0  0
  8 10  1  0  0  0  0
 10 11  1  0  0  0  0
 11 12  1  1  0  0  0
 11 13  1  0  0  0  0
 13 14  1  0  0  0  0
 14 15  2  0  0  0  0
 14 16  1  0  0  0  0
 16 17  1  0  0  0  0
 18 16  1  1  0  0  0
 17 19  1  1  0  0  0
 17 20  1  0  0  0  0
 18 21  1  0  0  0  0
 18 22  1  0  0  0  0
 19 23  3  0  0  0  0
 21 24  1  1  0  0  0
 22 25  1  0  0  0  0
  7  8  1  0  0  0  0
 20 21  1  0  0  0  0
 24 25  1  0  0  0  0
M  END
>  <MolRegNo>
1789065

>  <m>
=

>  <Value>
2250

>  <Unit>
nM

>  <Type>
IC50

>  <pValue>
5.65

>  <Ligand Efficiency>
0

>  <Binding Efficiency>
0

>  <Surface Efficiency>
0

>  <Assay Index>
905202

>  <Assay Category>


>  <Assay Organism>
Homo sapiens

>  <Target ID>
17045

>  <Target Name>
Cytochrome P450 3A4

>  <Target Organism>
Homo sapiens

>  <Target Description>
Target is a single protein chain

>  <Sequence Accession>
P08684

>  <Reference>


>  <Pubmed ID>
25164763

>  <DOI>
10.1016/j.ejmech.2014.08.059

$$$$
1790475
Actelion Java MolfileCreator 1.0

 23 25  0  0  0  0  0  0  0  0999 V2000
    0.0000   -0.0000   -0.0000 Cl  0  0  0  0  0  0  0  0  0  0  0  0
   -7.5592   -0.7559   -0.0000 N   0  0  0  0  0  0  0  0  0  0  0  0
   -7.5710   -2.2441   -0.0000 C   0  0  0  0  0  0  0  0  0  0  0  0
   -6.2718   -0.0000   -0.0000 C   0  0  0  0  0  0  0  0  0  0  0  0
   -8.8703   -0.0000   -0.0000 C   0  0  0  0  0  0  0  0  0  0  0  0
   -6.2836   -2.9883   -0.0000 C   0  0  0  0  0  0  0  0  0  0  0  0
   -8.8821   -2.9883   -0.0000 C   0  0  0  0  0  0  0  0  0  0  0  0
   -4.8308   -0.3780   -0.0000 C   0  0  0  0  0  0  0  0  0  0  0  0
   -5.8938    1.4646   -0.0000 C   0  0  0  0  0  0  0  0  0  0  0  0
  -10.1813   -0.7441   -0.0000 C   0  0  0  0  0  0  0  0  0  0  0  0
   -6.2954   -4.4765   -0.0000 C   0  0  0  0  0  0  0  0  0  0  0  0
   -8.8939   -4.4765   -0.0000 C   0  0  0  0  0  0  0  0  0  0  0  0
   -4.4529    1.0866   -0.0000 N   0  0  0  0  0  0  0  0  0  0  0  0
  -11.4924    0.0118   -0.0000 C   0  0  0  0  0  0  0  0  0  0  0  0
  -10.1931   -2.2323   -0.0000 C   0  0  0  0  0  0  0  0  0  0  0  0
   -7.6065   -5.2206   -0.0000 C   0  0  0  0  0  0  0  0  0  0  0  0
  -12.8034   -0.7323   -0.0000 C   0  0  0  0  0  0  0  0  0  0  0  0
  -11.5042   -2.9764   -0.0000 C   0  0  0  0  0  0  0  0  0  0  0  0
  -12.8152   -2.2205   -0.0000 C   0  0  0  0  0  0  0  0  0  0  0  0
  -14.1027    0.0236   -0.0000 C   0  0  0  0  0  0  0  0  0  0  0  0
  -14.1145   -2.9646   -0.0000 C   0  0  0  0  0  0  0  0  0  0  0  0
  -15.4137   -0.7205   -0.0000 C   0  0  0  0  0  0  0  0  0  0  0  0
  -15.4255   -2.2087   -0.0000 C   0  0  0  0  0  0  0  0  0  0  0  0
  2  3  1  0  0  0  0
  2  4  1  0  0  0  0
  2  5  1  0  0  0  0
  3  6  2  0  0  0  0
  3  7  1  0  0  0  0
  4  8  1  0  0  0  0
  4  9  1  0  0  0  0
  5 10  1  0  0  0  0
  6 11  1  0  0  0  0
  7 12  2  0  0  0  0
  8 13  1  0  0  0  0
 10 14  2  0  0  0  0
 10 15  1  0  0  0  0
 11 16  2  0  0  0  0
 14 17  1  0  0  0  0
 15 18  2  0  0  0  0
 17 19  1  0  0  0  0
 17 20  2  0  0  0  0
 19 21  2  0  0  0  0
 20 22  1  0  0  0  0
 21 23  1  0  0  0  0
  9 13  1  0  0  0  0
 12 16  1  0  0  0  0
 18 19  1  0  0  0  0
 22 23  2  0  0  0  0
M  END
>  <MolRegNo>
1790475

>  <m>
=

>  <Value>
1330

>  <Unit>
nM

>  <Type>
IC50

>  <pValue>
5.88

>  <Ligand Efficiency>
0

>  <Binding Efficiency>
0

>  <Surface Efficiency>
0

>  <Assay Index>
882259

>  <Assay Category>


>  <Assay Organism>
Homo sapiens

>  <Target ID>
17045

>  <Target Name>
Cytochrome P450 3A4

>  <Target Organism>
Homo sapiens

>  <Target Description>
Target is a single protein chain

>  <Sequence Accession>
P08684

>  <Reference>
ACS Med Chem Lett 5 (9), 999-1004 (2014)

>  <Pubmed ID>
25221656

>  <DOI>
10.1021/ml500187a

$$$$
1790490
Actelion Java MolfileCreator 1.0

 17 19  0  0  0  0  0  0  0  0999 V2000
    0.0000   -0.0000   -0.0000 Cl  0  0  0  0  0  0  0  0  0  0  0  0
    1.2894    0.7571   -0.0000 C   0  0  0  0  0  0  0  0  0  0  0  0
    1.2776    2.2713   -0.0000 C   0  0  0  0  0  0  0  0  0  0  0  0
    2.5789    0.0237   -0.0000 C   0  0  0  0  0  0  0  0  0  0  0  0
   -0.0355    3.0403   -0.0000 Cl  0  0  0  0  0  0  0  0  0  0  0  0
    2.5671    3.0403   -0.0000 C   0  0  0  0  0  0  0  0  0  0  0  0
    3.8683    0.7808   -0.0000 C   0  0  0  0  0  0  0  0  0  0  0  0
    3.8565    2.2950   -0.0000 C   0  0  0  0  0  0  0  0  0  0  0  0
    5.1578    0.0473   -0.0000 C   0  0  0  0  0  0  0  0  0  0  0  0
    6.4472    0.8044   -0.0000 N   0  0  0  0  0  0  0  0  0  0  0  0
    7.7367    0.0710   -0.0000 C   0  0  0  0  0  0  0  0  0  0  0  0
    6.4354    2.3186   -0.0000 C   0  0  0  0  0  0  0  0  0  0  0  0
    8.1152   -1.3723   -0.0000 C   0  0  0  0  0  0  0  0  0  0  0  0
    9.1799    0.4732   -0.0000 C   0  0  0  0  0  0  0  0  0  0  0  0
    5.6665    3.6317   -0.0000 C   0  0  0  0  0  0  0  0  0  0  0  0
    7.1689    3.6317   -0.0000 C   0  0  0  0  0  0  0  0  0  0  0  0
    9.5585   -0.9700   -0.0000 N   0  0  0  0  0  0  0  0  0  0  0  0
  1  2  1  0  0  0  0
  2  3  2  0  0  0  0
  2  4  1  0  0  0  0
  3  5  1  0  0  0  0
  3  6  1  0  0  0  0
  4  7  2  0  0  0  0
  6  8  2  0  0  0  0
  7  9  1  0  0  0  0
  9 10  1  0  0  0  0
 10 11  1  0  0  0  0
 10 12  1  0  0  0  0
 11 13  1  0  0  0  0
 11 14  1  0  0  0  0
 12 15  1  0  0  0  0
 12 16  1  0  0  0  0
 13 17  1  0  0  0  0
  7  8  1  0  0  0  0
 14 17  1  0  0  0  0
 15 16  1  0  0  0  0
M  END
>  <MolRegNo>
1790490

>  <m>
=

>  <Value>
500

>  <Unit>
nM

>  <Type>
IC50

>  <pValue>
6.3

>  <Ligand Efficiency>
0

>  <Binding Efficiency>
0

>  <Surface Efficiency>
0

>  <Assay Index>
882259

>  <Assay Category>


>  <Assay Organism>
Homo sapiens

>  <Target ID>
17045

>  <Target Name>
Cytochrome P450 3A4

>  <Target Organism>
Homo sapiens

>  <Target Description>
Target is a single protein chain

>  <Sequence Accession>
P08684

>  <Reference>
ACS Med Chem Lett 5 (9), 999-1004 (2014)

>  <Pubmed ID>
25221656

>  <DOI>
10.1021/ml500187a

$$$$
1790509
Actelion Java MolfileCreator 1.0

 28 29  0  0  0  0  0  0  0  0999 V2000
    0.0000   -0.0000   -0.0000 Cl  0  0  0  0  0  0  0  0  0  0  0  0
   -0.7618   -1.2830   -0.0000 C   0  0  0  0  0  0  0  0  0  0  0  0
   -0.0267   -2.5661   -0.0000 C   0  0  0  0  0  0  0  0  0  0  0  0
   -2.2720   -1.2697   -0.0000 C   0  0  0  0  0  0  0  0  0  0  0  0
    1.4568   -2.5527   -0.0000 Cl  0  0  0  0  0  0  0  0  0  0  0  0
   -0.7885   -3.8491   -0.0000 C   0  0  0  0  0  0  0  0  0  0  0  0
   -3.0338   -2.5527   -0.0000 C   0  0  0  0  0  0  0  0  0  0  0  0
   -3.0338    0.0401   -0.0000 C   0  0  0  0  0  0  0  0  0  0  0  0
   -2.2988   -3.8357   -0.0000 C   0  0  0  0  0  0  0  0  0  0  0  0
   -4.5441    0.0535   -0.0000 N   0  0  0  0  0  0  0  0  0  0  0  0
   -5.3059   -1.2296   -0.0000 C   0  0  0  0  0  0  0  0  0  0  0  0
   -5.3059    1.3632   -0.0000 C   0  0  0  0  0  0  0  0  0  0  0  0
   -4.5708   -2.5126   -0.0000 C   0  0  0  0  0  0  0  0  0  0  0  0
   -6.8027   -1.2162   -0.0000 C   0  0  0  0  0  0  0  0  0  0  0  0
   -6.8027    1.3766   -0.0000 C   0  0  0  0  0  0  0  0  0  0  0  0
   -5.3326   -3.7956   -0.0000 C   0  0  0  0  0  0  0  0  0  0  0  0
   -7.5645   -2.4992   -0.0000 C   0  0  0  0  0  0  0  0  0  0  0  0
   -7.8719    2.4458   -0.0000 C   0  0  0  0  0  0  0  0  0  0  0  0
   -7.8719    0.3341   -0.0000 C   0  0  0  0  0  0  0  0  0  0  0  0
   -6.8295   -3.7823   -0.0000 C   0  0  0  0  0  0  0  0  0  0  0  0
   -8.9545    1.4033   -0.0000 N   0  0  0  0  0  0  0  0  0  0  0  0
    3.5283   -1.2830   -0.0000 F   0  0  0  0  0  0  0  0  0  0  0  0
    4.3169   -2.4190   -0.0000 C   0  0  0  0  0  0  0  0  0  0  0  0
    5.0519   -1.1093   -0.0000 F   0  0  0  0  0  0  0  0  0  0  0  0
    6.0008   -2.1785   -0.0000 F   0  0  0  0  0  0  0  0  0  0  0  0
    3.5551   -3.7021   -0.0000 C   0  0  0  0  0  0  0  0  0  0  0  0
    2.0448   -3.6887   -0.0000 O   0  0  0  0  0  0  0  0  0  0  0  0
    4.2901   -4.9851   -0.0000 O   0  0  0  0  0  0  0  0  0  0  0  0
  1  2  1  0  0  0  0
  2  3  2  0  0  0  0
  2  4  1  0  0  0  0
  3  5  1  0  0  0  0
  3  6  1  0  0  0  0
  4  7  2  0  0  0  0
  4  8  1  0  0  0  0
  6  9  2  0  0  0  0
  8 10  1  0  0  0  0
 10 11  1  0  0  0  0
 10 12  1  0  0  0  0
 11 13  2  0  0  0  0
 11 14  1  0  0  0  0
 12 15  1  0  0  0  0
 13 16  1  0  0  0  0
 14 17  2  0  0  0  0
 15 18  1  0  0  0  0
 15 19  1  0  0  0  0
 16 20  2  0  0  0  0
 18 21  1  0  0  0  0
 22 23  1  0  0  0  0
 23 24  1  0  0  0  0
 23 25  1  0  0  0  0
 23 26  1  0  0  0  0
 26 27  2  0  0  0  0
 26 28  1  0  0  0  0
  7  9  1  0  0  0  0
 17 20  1  0  0  0  0
 19 21  1  0  0  0  0
M  END
>  <MolRegNo>
1790509

>  <m>
=

>  <Value>
32700

>  <Unit>
nM

>  <Type>
IC50

>  <pValue>
4.49

>  <Ligand Efficiency>
0

>  <Binding Efficiency>
0

>  <Surface Efficiency>
0

>  <Assay Index>
882259

>  <Assay Category>


>  <Assay Organism>
Homo sapiens

>  <Target ID>
17045

>  <Target Name>
Cytochrome P450 3A4

>  <Target Organism>
Homo sapiens

>  <Target Description>
Target is a single protein chain

>  <Sequence Accession>
P08684

>  <Reference>
ACS Med Chem Lett 5 (9), 999-1004 (2014)

>  <Pubmed ID>
25221656

>  <DOI>
10.1021/ml500187a

$$$$
1790510
Actelion Java MolfileCreator 1.0

 19 19  0  0  0  0  0  0  0  0999 V2000
    0.0000   -0.0000   -0.0000 Cl  0  0  0  0  0  0  0  0  0  0  0  0
    1.2905    0.7682   -0.0000 C   0  0  0  0  0  0  0  0  0  0  0  0
    1.2751    2.2891   -0.0000 C   0  0  0  0  0  0  0  0  0  0  0  0
    2.5810    0.0307   -0.0000 C   0  0  0  0  0  0  0  0  0  0  0  0
   -0.0461    3.0573   -0.0000 Cl  0  0  0  0  0  0  0  0  0  0  0  0
    2.5657    3.0573   -0.0000 C   0  0  0  0  0  0  0  0  0  0  0  0
    3.8715    0.7989   -0.0000 C   0  0  0  0  0  0  0  0  0  0  0  0
    3.8562    2.3198   -0.0000 C   0  0  0  0  0  0  0  0  0  0  0  0
    5.1620    0.0615   -0.0000 C   0  0  0  0  0  0  0  0  0  0  0  0
    6.4526    0.8296   -0.0000 N   0  0  0  0  0  0  0  0  0  0  0  0
    7.7431    0.0922   -0.0000 C   0  0  0  0  0  0  0  0  0  0  0  0
    6.4372    2.3506   -0.0000 C   0  0  0  0  0  0  0  0  0  0  0  0
    7.7277   -1.3981   -0.0000 C   0  0  0  0  0  0  0  0  0  0  0  0
    9.0336    0.8603   -0.0000 C   0  0  0  0  0  0  0  0  0  0  0  0
    7.7277    3.1187   -0.0000 C   0  0  0  0  0  0  0  0  0  0  0  0
    9.1565    2.7500   -0.0000 C   0  0  0  0  0  0  0  0  0  0  0  0
    8.0964    4.5782   -0.0000 C   0  0  0  0  0  0  0  0  0  0  0  0
    9.5252    4.2095   -0.0000 N   0  0  0  0  0  0  0  0  0  0  0  0
   15.4861    1.8436   -0.0000 Cl  0  0  0  0  0  0  0  0  0  0  0  0
  1  2  1  0  0  0  0
  2  3  2  0  0  0  0
  2  4  1  0  0  0  0
  3  5  1  0  0  0  0
  3  6  1  0  0  0  0
  4  7  2  0  0  0  0
  6  8  2  0  0  0  0
  7  9  1  0  0  0  0
  9 10  1  0  0  0  0
 10 11  1  0  0  0  0
 10 12  1  0  0  0  0
 11 13  1  0  0  0  0
 11 14  1  0  0  0  0
 12 15  1  0  0  0  0
 15 16  1  0  0  0  0
 15 17  1  0  0  0  0
 16 18  1  0  0  0  0
  7  8  1  0  0  0  0
 17 18  1  0  0  0  0
M  END
>  <MolRegNo>
1790510

>  <m>
=

>  <Value>
1100

>  <Unit>
nM

>  <Type>
IC50

>  <pValue>
5.96

>  <Ligand Efficiency>
0

>  <Binding Efficiency>
0

>  <Surface Efficiency>
0

>  <Assay Index>
882259

>  <Assay Category>


>  <Assay Organism>
Homo sapiens

>  <Target ID>
17045

>  <Target Name>
Cytochrome P450 3A4

>  <Target Organism>
Homo sapiens

>  <Target Description>
Target is a single protein chain

>  <Sequence Accession>
P08684

>  <Reference>
ACS Med Chem Lett 5 (9), 999-1004 (2014)

>  <Pubmed ID>
25221656

>  <DOI>
10.1021/ml500187a

$$$$
1790511
Actelion Java MolfileCreator 1.0

 19 21  0  0  0  0  0  0  0  0999 V2000
    0.0000   -0.0000   -0.0000 Cl  0  0  0  0  0  0  0  0  0  0  0  0
    1.4900    0.0118   -0.0000 C   0  0  0  0  0  0  0  0  0  0  0  0
    2.2232   -1.2772   -0.0000 C   0  0  0  0  0  0  0  0  0  0  0  0
    2.2232    1.3245   -0.0000 C   0  0  0  0  0  0  0  0  0  0  0  0
    3.7132   -1.2653   -0.0000 C   0  0  0  0  0  0  0  0  0  0  0  0
    3.7132    1.3363   -0.0000 C   0  0  0  0  0  0  0  0  0  0  0  0
    4.4583    0.0473   -0.0000 C   0  0  0  0  0  0  0  0  0  0  0  0
    5.9483    0.0591   -0.0000 C   0  0  0  0  0  0  0  0  0  0  0  0
    6.6933    1.3718   -0.0000 N   0  0  0  0  0  0  0  0  0  0  0  0
    8.1833    1.3836   -0.0000 C   0  0  0  0  0  0  0  0  0  0  0  0
    5.9246    2.6844   -0.0000 C   0  0  0  0  0  0  0  0  0  0  0  0
    8.9165    2.6962   -0.0000 C   0  0  0  0  0  0  0  0  0  0  0  0
    8.9165    0.0946   -0.0000 C   0  0  0  0  0  0  0  0  0  0  0  0
    6.3031    4.1508   -0.0000 C   0  0  0  0  0  0  0  0  0  0  0  0
    4.4583    3.0865   -0.0000 C   0  0  0  0  0  0  0  0  0  0  0  0
   10.4065    2.7081   -0.0000 C   0  0  0  0  0  0  0  0  0  0  0  0
   10.4065    0.1064   -0.0000 C   0  0  0  0  0  0  0  0  0  0  0  0
    4.8367    4.5529   -0.0000 N   0  0  0  0  0  0  0  0  0  0  0  0
   11.1516    1.4191   -0.0000 C   0  0  0  0  0  0  0  0  0  0  0  0
  1  2  1  0  0  0  0
  2  3  2  0  0  0  0
  2  4  1  0  0  0  0
  3  5  1  0  0  0  0
  4  6  2  0  0  0  0
  5  7  2  0  0  0  0
  7  8  1  0  0  0  0
  8  9  1  0  0  0  0
  9 10  1  0  0  0  0
  9 11  1  0  0  0  0
 10 12  1  0  0  0  0
 10 13  1  0  0  0  0
 11 14  1  0  0  0  0
 11 15  1  0  0  0  0
 12 16  1  0  0  0  0
 13 17  1  0  0  0  0
 14 18  1  0  0  0  0
 16 19  1  0  0  0  0
  6  7  1  0  0  0  0
 15 18  1  0  0  0  0
 17 19  1  0  0  0  0
M  END
>  <MolRegNo>
1790511

>  <m>
=

>  <Value>
810

>  <Unit>
nM

>  <Type>
IC50

>  <pValue>
6.09

>  <Ligand Efficiency>
0

>  <Binding Efficiency>
0

>  <Surface Efficiency>
0

>  <Assay Index>
882259

>  <Assay Category>


>  <Assay Organism>
Homo sapiens

>  <Target ID>
17045

>  <Target Name>
Cytochrome P450 3A4

>  <Target Organism>
Homo sapiens

>  <Target Description>
Target is a single protein chain

>  <Sequence Accession>
P08684

>  <Reference>
ACS Med Chem Lett 5 (9), 999-1004 (2014)

>  <Pubmed ID>
25221656

>  <DOI>
10.1021/ml500187a

$$$$
1790513
Actelion Java MolfileCreator 1.0

 20 22  0  0  0  0  0  0  0  0999 V2000
    0.0000   -0.0000   -0.0000 Cl  0  0  0  0  0  0  0  0  0  0  0  0
   -1.5041    0.0118   -0.0000 C   0  0  0  0  0  0  0  0  0  0  0  0
   -2.2562    1.3161   -0.0000 C   0  0  0  0  0  0  0  0  0  0  0  0
   -2.2562   -1.2691   -0.0000 C   0  0  0  0  0  0  0  0  0  0  0  0
   -3.7603    1.3279   -0.0000 C   0  0  0  0  0  0  0  0  0  0  0  0
   -3.7603   -1.2574   -0.0000 C   0  0  0  0  0  0  0  0  0  0  0  0
   -4.5241    0.0470   -0.0000 C   0  0  0  0  0  0  0  0  0  0  0  0
   -6.0282    0.0588   -0.0000 C   0  0  0  0  0  0  0  0  0  0  0  0
   -6.7921    1.3631   -0.0000 N   0  0  0  0  0  0  0  0  0  0  0  0
   -8.2962    1.3749   -0.0000 C   0  0  0  0  0  0  0  0  0  0  0  0
   -6.0517    2.6675   -0.0000 C   0  0  0  0  0  0  0  0  0  0  0  0
   -9.0482    0.0940   -0.0000 C   0  0  0  0  0  0  0  0  0  0  0  0
   -9.0482    2.6792   -0.0000 C   0  0  0  0  0  0  0  0  0  0  0  0
   -4.6181    3.0670   -0.0000 C   0  0  0  0  0  0  0  0  0  0  0  0
   -6.4513    4.1246   -0.0000 C   0  0  0  0  0  0  0  0  0  0  0  0
   -8.3197   -1.1868   -0.0000 F   0  0  0  0  0  0  0  0  0  0  0  0
  -10.5524    0.1058   -0.0000 C   0  0  0  0  0  0  0  0  0  0  0  0
  -10.5524    2.6910   -0.0000 C   0  0  0  0  0  0  0  0  0  0  0  0
   -5.0177    4.5241   -0.0000 N   0  0  0  0  0  0  0  0  0  0  0  0
  -11.3162    1.4101   -0.0000 C   0  0  0  0  0  0  0  0  0  0  0  0
  1  2  1  0  0  0  0
  2  3  2  0  0  0  0
  2  4  1  0  0  0  0
  3  5  1  0  0  0  0
  4  6  2  0  0  0  0
  5  7  2  0  0  0  0
  7  8  1  0  0  0  0
  8  9  1  0  0  0  0
  9 10  1  0  0  0  0
  9 11  1  0  0  0  0
 10 12  2  0  0  0  0
 10 13  1  0  0  0  0
 11 14  1  0  0  0  0
 11 15  1  0  0  0  0
 12 16  1  0  0  0  0
 12 17  1  0  0  0  0
 13 18  2  0  0  0  0
 14 19  1  0  0  0  0
 17 20  2  0  0  0  0
  6  7  1  0  0  0  0
 15 19  1  0  0  0  0
 18 20  1  0  0  0  0
M  END
>  <MolRegNo>
1790513

>  <m>
=

>  <Value>
3640

>  <Unit>
nM

>  <Type>
IC50

>  <pValue>
5.44

>  <Ligand Efficiency>
0

>  <Binding Efficiency>
0

>  <Surface Efficiency>
0

>  <Assay Index>
882259

>  <Assay Category>


>  <Assay Organism>
Homo sapiens

>  <Target ID>
17045

>  <Target Name>
Cytochrome P450 3A4

>  <Target Organism>
Homo sapiens

>  <Target Description>
Target is a single protein chain

>  <Sequence Accession>
P08684

>  <Reference>
ACS Med Chem Lett 5 (9), 999-1004 (2014)

>  <Pubmed ID>
25221656

>  <DOI>
10.1021/ml500187a

$$$$
1790514
Actelion Java MolfileCreator 1.0

 23 26  0  0  0  0  0  0  0  0999 V2000
    0.0000   -0.0000   -0.0000 Cl  0  0  0  0  0  0  0  0  0  0  0  0
    0.7339    1.3139   -0.0000 C   0  0  0  0  0  0  0  0  0  0  0  0
    2.2254    1.3258   -0.0000 C   0  0  0  0  0  0  0  0  0  0  0  0
   -0.0237    2.6279   -0.0000 C   0  0  0  0  0  0  0  0  0  0  0  0
    2.9711    2.6397   -0.0000 C   0  0  0  0  0  0  0  0  0  0  0  0
    0.7102    3.9418   -0.0000 C   0  0  0  0  0  0  0  0  0  0  0  0
    4.4626    2.6515   -0.0000 N   0  0  0  0  0  0  0  0  0  0  0  0
    2.2017    3.9536   -0.0000 C   0  0  0  0  0  0  0  0  0  0  0  0
    5.1965    3.9655   -0.0000 C   0  0  0  0  0  0  0  0  0  0  0  0
    5.1965    1.3613   -0.0000 C   0  0  0  0  0  0  0  0  0  0  0  0
    6.6407    4.3679   -0.0000 C   0  0  0  0  0  0  0  0  0  0  0  0
    4.7941    5.4333   -0.0000 C   0  0  0  0  0  0  0  0  0  0  0  0
    6.6880    1.3731   -0.0000 C   0  0  0  0  0  0  0  0  0  0  0  0
    6.2382    5.8357   -0.0000 N   0  0  0  0  0  0  0  0  0  0  0  0
    7.4338    0.0829   -0.0000 C   0  0  0  0  0  0  0  0  0  0  0  0
    7.4338    2.6870   -0.0000 C   0  0  0  0  0  0  0  0  0  0  0  0
    8.9252    0.0947   -0.0000 C   0  0  0  0  0  0  0  0  0  0  0  0
    8.9252    2.6989   -0.0000 C   0  0  0  0  0  0  0  0  0  0  0  0
    9.6592    1.4086   -0.0000 C   0  0  0  0  0  0  0  0  0  0  0  0
    9.6592   -1.1956   -0.0000 C   0  0  0  0  0  0  0  0  0  0  0  0
   11.1506    1.4205   -0.0000 C   0  0  0  0  0  0  0  0  0  0  0  0
   11.1506   -1.1837   -0.0000 C   0  0  0  0  0  0  0  0  0  0  0  0
   11.8964    0.1302   -0.0000 C   0  0  0  0  0  0  0  0  0  0  0  0
  1  2  1  0  0  0  0
  2  3  2  0  0  0  0
  2  4  1  0  0  0  0
  3  5  1  0  0  0  0
  4  6  2  0  0  0  0
  5  7  1  0  0  0  0
  5  8  2  0  0  0  0
  7  9  1  0  0  0  0
  7 10  1  0  0  0  0
  9 11  1  0  0  0  0
  9 12  1  0  0  0  0
 10 13  1  0  0  0  0
 11 14  1  0  0  0  0
 13 15  2  0  0  0  0
 13 16  1  0  0  0  0
 15 17  1  0  0  0  0
 16 18  2  0  0  0  0
 17 19  1  0  0  0  0
 17 20  2  0  0  0  0
 19 21  2  0  0  0  0
 20 22  1  0  0  0  0
 21 23  1  0  0  0  0
  6  8  1  0  0  0  0
 12 14  1  0  0  0  0
 18 19  1  0  0  0  0
 22 23  2  0  0  0  0
M  END
>  <MolRegNo>
1790514

>  <m>
=

>  <Value>
500

>  <Unit>
nM

>  <Type>
IC50

>  <pValue>
6.3

>  <Ligand Efficiency>
0

>  <Binding Efficiency>
0

>  <Surface Efficiency>
0

>  <Assay Index>
882259

>  <Assay Category>


>  <Assay Organism>
Homo sapiens

>  <Target ID>
17045

>  <Target Name>
Cytochrome P450 3A4

>  <Target Organism>
Homo sapiens

>  <Target Description>
Target is a single protein chain

>  <Sequence Accession>
P08684

>  <Reference>
ACS Med Chem Lett 5 (9), 999-1004 (2014)

>  <Pubmed ID>
25221656

>  <DOI>
10.1021/ml500187a

$$$$
1790515
Actelion Java MolfileCreator 1.0

 27 28  0  0  0  0  0  0  0  0999 V2000
    0.0000   -0.0000   -0.0000 Cl  0  0  0  0  0  0  0  0  0  0  0  0
   -1.3047    0.7611   -0.0000 C   0  0  0  0  0  0  0  0  0  0  0  0
   -2.6094    0.0242   -0.0000 C   0  0  0  0  0  0  0  0  0  0  0  0
   -1.3168    2.2591   -0.0000 C   0  0  0  0  0  0  0  0  0  0  0  0
   -3.9142    0.7852   -0.0000 C   0  0  0  0  0  0  0  0  0  0  0  0
   -2.6215   -1.4497   -0.0000 C   0  0  0  0  0  0  0  0  0  0  0  0
   -2.6215    3.0202   -0.0000 C   0  0  0  0  0  0  0  0  0  0  0  0
   -3.9262    2.2833   -0.0000 C   0  0  0  0  0  0  0  0  0  0  0  0
   -3.9262   -2.1866   -0.0000 N   0  0  0  0  0  0  0  0  0  0  0  0
   -5.2309   -1.4255   -0.0000 C   0  0  0  0  0  0  0  0  0  0  0  0
   -3.9383   -3.6605   -0.0000 C   0  0  0  0  0  0  0  0  0  0  0  0
   -6.5236   -2.1624   -0.0000 C   0  0  0  0  0  0  0  0  0  0  0  0
   -5.2430    0.0725   -0.0000 C   0  0  0  0  0  0  0  0  0  0  0  0
   -2.6578   -4.3974   -0.0000 C   0  0  0  0  0  0  0  0  0  0  0  0
   -7.8283   -1.4014   -0.0000 C   0  0  0  0  0  0  0  0  0  0  0  0
   -6.5357    0.8336   -0.0000 C   0  0  0  0  0  0  0  0  0  0  0  0
   -2.2833   -5.8229   -0.0000 C   0  0  0  0  0  0  0  0  0  0  0  0
   -1.2322   -3.9987   -0.0000 C   0  0  0  0  0  0  0  0  0  0  0  0
   -7.8404    0.0966   -0.0000 C   0  0  0  0  0  0  0  0  0  0  0  0
   -0.8577   -5.4242   -0.0000 N   0  0  0  0  0  0  0  0  0  0  0  0
    4.1558    2.4161   -0.0000 F   0  0  0  0  0  0  0  0  0  0  0  0
    3.7450    0.8940   -0.0000 C   0  0  0  0  0  0  0  0  0  0  0  0
    5.0256    1.6551   -0.0000 F   0  0  0  0  0  0  0  0  0  0  0  0
    5.2068    0.2658   -0.0000 F   0  0  0  0  0  0  0  0  0  0  0  0
    2.4403    0.1570   -0.0000 C   0  0  0  0  0  0  0  0  0  0  0  0
    1.1356    0.9181   -0.0000 O   0  0  0  0  0  0  0  0  0  0  0  0
    2.4282   -1.3168   -0.0000 O   0  0  0  0  0  0  0  0  0  0  0  0
  1  2  1  0  0  0  0
  2  3  2  0  0  0  0
  2  4  1  0  0  0  0
  3  5  1  0  0  0  0
  3  6  1  0  0  0  0
  4  7  2  0  0  0  0
  5  8  2  0  0  0  0
  6  9  1  0  0  0  0
  9 10  1  0  0  0  0
  9 11  1  0  0  0  0
 10 12  2  0  0  0  0
 10 13  1  0  0  0  0
 11 14  1  0  0  0  0
 12 15  1  0  0  0  0
 13 16  2  0  0  0  0
 14 17  1  0  0  0  0
 14 18  1  0  0  0  0
 15 19  2  0  0  0  0
 17 20  1  0  0  0  0
 21 22  1  0  0  0  0
 22 23  1  0  0  0  0
 22 24  1  0  0  0  0
 22 25  1  0  0  0  0
 25 26  2  0  0  0  0
 25 27  1  0  0  0  0
  7  8  1  0  0  0  0
 16 19  1  0  0  0  0
 18 20  1  0  0  0  0
M  END
>  <MolRegNo>
1790515

>  <m>
=

>  <Value>
120

>  <Unit>
nM

>  <Type>
IC50

>  <pValue>
6.92

>  <Ligand Efficiency>
0

>  <Binding Efficiency>
0

>  <Surface Efficiency>
0

>  <Assay Index>
882259

>  <Assay Category>


>  <Assay Organism>
Homo sapiens

>  <Target ID>
17045

>  <Target Name>
Cytochrome P450 3A4

>  <Target Organism>
Homo sapiens

>  <Target Description>
Target is a single protein chain

>  <Sequence Accession>
P08684

>  <Reference>
ACS Med Chem Lett 5 (9), 999-1004 (2014)

>  <Pubmed ID>
25221656

>  <DOI>
10.1021/ml500187a

$$$$
1796281
Actelion Java MolfileCreator 1.0

 48 55  0  0  0  0  0  0  0  0999 V2000
    0.0000   -0.0000   -0.0000 O   0  0  0  0  0  0  0  0  0  0  0  0
    1.2515   -0.8105   -0.0000 C   0  0  0  0  0  0  0  0  0  0  0  0
    1.1562   -2.3004   -0.0000 N   0  0  0  0  0  0  0  0  0  0  0  0
    2.5865   -0.1192   -0.0000 C   0  0  0  0  0  0  0  0  0  0  0  0
    2.3123   -3.2540   -0.0000 C   0  0  0  0  0  0  0  0  0  0  0  0
   -0.1192   -3.0990   -0.0000 C   0  0  0  0  0  0  0  0  0  0  0  0
    2.6580    1.3826   -0.0000 N   0  0  0  0  0  0  0  0  0  0  0  0
    3.8261   -0.9416   -0.0000 C   0  0  0  0  0  0  0  0  0  0  0  0
    3.7546   -2.8606   -0.0000 C   0  0  0  0  0  0  0  0  0  0  0  0
    1.7521   -4.6366   -0.0000 C   0  0  0  0  0  0  0  0  0  0  0  0
    0.2503   -4.5413   -0.0000 C   0  0  0  0  0  0  0  0  0  0  0  0
    3.9811    2.0740   -0.0000 C   0  0  0  0  0  0  0  0  0  0  0  0
    5.1611   -0.2503   -0.0000 C   0  0  0  0  0  0  0  0  0  0  0  0
    4.1360   -1.3946   -0.0000 O   0  0  0  0  0  0  0  0  0  0  0  0
    4.8035   -3.9215   -0.0000 N   0  0  0  0  0  0  0  0  0  0  0  0
    5.2326    1.2634   -0.0000 C   0  0  0  0  0  0  0  0  0  0  0  0
    4.0526    3.5877   -0.0000 C   0  0  0  0  0  0  0  0  0  0  0  0
    6.2576   -3.5281   -0.0000 C   0  0  0  0  0  0  0  0  0  0  0  0
    4.3982   -5.3756   -0.0000 C   0  0  0  0  0  0  0  0  0  0  0  0
    6.5675    1.9548   -0.0000 C   0  0  0  0  0  0  0  0  0  0  0  0
    5.3756    4.2790   -0.0000 C   0  0  0  0  0  0  0  0  0  0  0  0
    7.3065   -4.5889   -0.0000 C   0  0  0  0  0  0  0  0  0  0  0  0
    5.4590   -6.4484   -0.0000 C   0  0  0  0  0  0  0  0  0  0  0  0
    6.6391    3.4685   -0.0000 C   0  0  0  0  0  0  0  0  0  0  0  0
    6.9013   -6.0431   -0.0000 N   0  0  0  0  0  0  0  0  0  0  0  0
    7.9621   -7.1039   -0.0000 C   0  0  0  0  0  0  0  0  0  0  0  0
    7.9502   -8.5938   -0.0000 C   0  0  0  0  0  0  0  0  0  0  0  0
    9.2494   -6.3292   -0.0000 C   0  0  0  0  0  0  0  0  0  0  0  0
    6.6271   -9.3328   -0.0000 O   0  0  0  0  0  0  0  0  0  0  0  0
    9.2375   -9.3328   -0.0000 C   0  0  0  0  0  0  0  0  0  0  0  0
   10.5367   -7.0801   -0.0000 C   0  0  0  0  0  0  0  0  0  0  0  0
   10.5248   -8.5700   -0.0000 C   0  0  0  0  0  0  0  0  0  0  0  0
   11.8240   -6.3172   -0.0000 C   0  0  0  0  0  0  0  0  0  0  0  0
   10.5128   -5.5663   -0.0000 C   0  0  0  0  0  0  0  0  0  0  0  0
   11.8120   -9.3090   -0.0000 C   0  0  0  0  0  0  0  0  0  0  0  0
   13.1113   -7.0682   -0.0000 C   0  0  0  0  0  0  0  0  0  0  0  0
   11.8240   -4.8035   -0.0000 C   0  0  0  0  0  0  0  0  0  0  0  0
   13.1113   -8.5581   -0.0000 C   0  0  0  0  0  0  0  0  0  0  0  0
   14.4105   -6.3172   -0.0000 C   0  0  0  0  0  0  0  0  0  0  0  0
   13.1232   -4.0526   -0.0000 C   0  0  0  0  0  0  0  0  0  0  0  0
   14.4105   -4.8035   -0.0000 C   0  0  0  0  0  0  0  0  0  0  0  0
   15.8169   -6.7821   -0.0000 C   0  0  0  0  0  0  0  0  0  0  0  0
   15.8289   -4.3386   -0.0000 C   0  0  0  0  0  0  0  0  0  0  0  0
   14.3866   -3.2778   -0.0000 C   0  0  0  0  0  0  0  0  0  0  0  0
   16.6990   -5.5663   -0.0000 C   0  0  0  0  0  0  0  0  0  0  0  0
   15.8050   -2.8130   -0.0000 O   0  0  0  0  0  0  0  0  0  0  0  0
   17.3188   -4.3148   -0.0000 C   0  0  0  0  0  0  0  0  0  0  0  0
   18.8087   -4.2910   -0.0000 C   0  0  0  0  0  0  0  0  0  0  0  0
  1  2  2  0  0  0  0
  2  3  1  0  0  0  0
  2  4  1  0  0  0  0
  3  5  1  0  0  0  0
  3  6  1  0  0  0  0
  4  7  2  0  0  0  0
  4  8  1  0  0  0  0
  5  9  1  6  0  0  0
  5 10  1  0  0  0  0
  6 11  1  0  0  0  0
  7 12  1  0  0  0  0
  8 13  2  0  0  0  0
  9 14  2  0  0  0  0
  9 15  1  0  0  0  0
 12 16  1  0  0  0  0
 12 17  2  0  0  0  0
 15 18  1  0  0  0  0
 15 19  1  0  0  0  0
 16 20  2  0  0  0  0
 17 21  1  0  0  0  0
 18 22  1  0  0  0  0
 19 23  1  0  0  0  0
 20 24  1  0  0  0  0
 22 25  1  0  0  0  0
 26 25  1  1  0  0  0
 26 27  1  0  0  0  0
 26 28  1  0  0  0  0
 27 29  1  6  0  0  0
 27 30  1  0  0  0  0
 28 31  1  0  0  0  0
 32 30  1  1  0  0  0
 31 33  1  0  0  0  0
 31 34  1  1  0  0  0
 32 35  1  0  0  0  0
 33 36  1  0  0  0  0
 33 37  1  1  0  0  0
 35 38  1  0  0  0  0
 36 39  1  0  0  0  0
 37 40  1  0  0  0  0
 39 41  1  0  0  0  0
 39 42  1  1  0  0  0
 41 43  1  0  0  0  0
 41 44  1  1  0  0  0
 42 45  1  0  0  0  0
 43 46  1  1  0  0  0
 43 47  1  0  0  0  0
 47 48  3  0  0  0  0
 10 11  1  0  0  0  0
 13 16  1  0  0  0  0
 21 24  2  0  0  0  0
 23 25  1  0  0  0  0
 31 32  1  0  0  0  0
 36 38  1  6  0  0  0
 40 41  1  0  0  0  0
 43 45  1  0  0  0  0
M  END
>  <MolRegNo>
1796281

>  <m>
=

>  <Value>
3800

>  <Unit>
nM

>  <Type>
IC50

>  <pValue>
5.42

>  <Ligand Efficiency>
0

>  <Binding Efficiency>
0

>  <Surface Efficiency>
0

>  <Assay Index>
886284

>  <Assay Category>


>  <Assay Organism>
Homo sapiens

>  <Target ID>
17045

>  <Target Name>
Cytochrome P450 3A4

>  <Target Organism>
Homo sapiens

>  <Target Description>
Target is a single protein chain

>  <Sequence Accession>
P08684

>  <Reference>
Bioorg Med Chem 22 (21), 5847-5859 (2014)

>  <Pubmed ID>
25300820

>  <DOI>
10.1016/j.bmc.2014.09.026

$$$$
1823178
Actelion Java MolfileCreator 1.0

 30 33  0  0  1  0  0  0  0  0999 V2000
    0.0000   -0.0000   -0.0000 F   0  0  0  0  0  0  0  0  0  0  0  0
    1.2883    0.7634   -0.0000 C   0  0  0  0  0  0  0  0  0  0  0  0
    2.5885    0.0239   -0.0000 F   0  0  0  0  0  0  0  0  0  0  0  0
    1.2644   -0.7276   -0.0000 F   0  0  0  0  0  0  0  0  0  0  0  0
    1.2763    2.2783   -0.0000 C   0  0  0  0  0  0  0  0  0  0  0  0
    2.5527    3.0417   -0.0000 C   0  0  0  0  0  0  0  0  0  0  0  0
   -0.0358    3.0417   -0.0000 C   0  0  0  0  0  0  0  0  0  0  0  0
    2.5527    4.5567   -0.0000 C   0  0  0  0  0  0  0  0  0  0  0  0
    3.8410    2.3022   -0.0000 C   0  0  0  0  0  0  0  0  0  0  0  0
   -0.0477    4.5686   -0.0000 C   0  0  0  0  0  0  0  0  0  0  0  0
    1.2406    5.3201   -0.0000 C   0  0  0  0  0  0  0  0  0  0  0  0
    5.2127    2.9225   -0.0000 C   0  0  0  0  0  0  0  0  0  0  0  0
    3.9841    0.8111   -0.0000 C   0  0  0  0  0  0  0  0  0  0  0  0
    6.2028    1.8131   -0.0000 C   0  0  0  0  0  0  0  0  0  0  0  0
    5.4513    0.5010   -0.0000 C   0  0  0  0  0  0  0  0  0  0  0  0
    7.6581    1.5149   -0.0000 C   0  0  0  0  0  0  0  0  0  0  0  0
    6.4533   -0.6083   -0.0000 C   0  0  0  0  0  0  0  0  0  0  0  0
    7.8012    0.0239   -0.0000 N   0  0  0  0  0  0  0  0  0  0  0  0
    9.1014   -0.7157   -0.0000 C   0  0  0  0  0  0  0  0  0  0  0  0
    9.0895   -2.2068   -0.0000 O   0  0  0  0  0  0  0  0  0  0  0  0
   10.3897    0.0477   -0.0000 N   0  0  0  0  0  0  0  0  0  0  0  0
   11.6899   -0.6918   -0.0000 C   0  0  0  0  0  0  0  0  0  0  0  0
   12.9662    0.0835   -0.0000 C   0  0  0  0  0  0  0  0  0  0  0  0
   11.6779   -2.1829   -0.0000 C   0  0  0  0  0  0  0  0  0  0  0  0
   12.9423    1.6103   -0.0000 C   0  0  0  0  0  0  0  0  0  0  0  0
   14.2545   -0.6441   -0.0000 C   0  0  0  0  0  0  0  0  0  0  0  0
   12.9662   -2.9225   -0.0000 C   0  0  0  0  0  0  0  0  0  0  0  0
   11.6183    2.3618   -0.0000 O   0  0  0  0  0  0  0  0  0  0  0  0
   14.2306    2.3857   -0.0000 O   0  0  0  0  0  0  0  0  0  0  0  0
   14.2545   -2.1471   -0.0000 C   0  0  0  0  0  0  0  0  0  0  0  0
  1  2  1  0  0  0  0
  2  3  1  0  0  0  0
  2  4  1  0  0  0  0
  2  5  1  0  0  0  0
  5  6  2  0  0  0  0
  5  7  1  0  0  0  0
  6  8  1  0  0  0  0
  9  6  1  1  0  0  0
  7 10  2  0  0  0  0
  8 11  2  0  0  0  0
  9 12  1  0  0  0  0
  9 13  1  0  0  0  0
 14 12  1  1  0  0  0
 15 13  1  1  0  0  0
 14 16  1  0  0  0  0
 15 17  1  0  0  0  0
 16 18  1  0  0  0  0
 18 19  1  0  0  0  0
 19 20  2  0  0  0  0
 19 21  1  0  0  0  0
 21 22  1  0  0  0  0
 22 23  2  0  0  0  0
 22 24  1  0  0  0  0
 23 25  1  0  0  0  0
 23 26  1  0  0  0  0
 24 27  2  0  0  0  0
 25 28  2  0  0  0  0
 25 29  1  0  0  0  0
 26 30  2  0  0  0  0
 10 11  1  0  0  0  0
 14 15  1  0  0  0  0
 17 18  1  0  0  0  0
 27 30  1  0  0  0  0
M  END
>  <MolRegNo>
1823178

>  <m>
=

>  <Value>
28000

>  <Unit>
nM

>  <Type>
IC50

>  <pValue>
4.55

>  <Ligand Efficiency>
0

>  <Binding Efficiency>
0

>  <Surface Efficiency>
0

>  <Assay Index>
886749

>  <Assay Category>


>  <Assay Organism>
Homo sapiens

>  <Target ID>
17045

>  <Target Name>
Cytochrome P450 3A4

>  <Target Organism>
Homo sapiens

>  <Target Description>
Target is a single protein chain

>  <Sequence Accession>
P08684

>  <Reference>
J Med Chem 57 (18), 7731-7757 (2014)

>  <Pubmed ID>
25210858

>  <DOI>
10.1021/jm5010013

$$$$
1823181
Actelion Java MolfileCreator 1.0

 31 34  0  0  1  0  0  0  0  0999 V2000
    0.0000   -0.0000   -0.0000 F   0  0  0  0  0  0  0  0  0  0  0  0
   -1.3119    0.7564   -0.0000 C   0  0  0  0  0  0  0  0  0  0  0  0
   -1.3355    2.2692   -0.0000 C   0  0  0  0  0  0  0  0  0  0  0  0
   -2.6120    0.0236   -0.0000 C   0  0  0  0  0  0  0  0  0  0  0  0
   -2.6356    3.0138   -0.0000 C   0  0  0  0  0  0  0  0  0  0  0  0
   -3.9120    0.7800   -0.0000 C   0  0  0  0  0  0  0  0  0  0  0  0
   -3.9239    2.2692   -0.0000 C   0  0  0  0  0  0  0  0  0  0  0  0
   -2.6592    4.5266   -0.0000 C   0  0  0  0  0  0  0  0  0  0  0  0
   -5.2357    3.0256   -0.0000 N   0  0  0  0  0  0  0  0  0  0  0  0
   -3.9711    5.2712   -0.0000 O   0  0  0  0  0  0  0  0  0  0  0  0
   -1.3828    5.2948   -0.0000 O   0  0  0  0  0  0  0  0  0  0  0  0
   -6.5358    2.2929   -0.0000 C   0  0  0  0  0  0  0  0  0  0  0  0
   -6.5476    0.8155   -0.0000 O   0  0  0  0  0  0  0  0  0  0  0  0
   -7.8477    3.0493   -0.0000 N   0  0  0  0  0  0  0  0  0  0  0  0
   -8.0132    4.5503   -0.0000 C   0  0  0  0  0  0  0  0  0  0  0  0
   -9.2187    2.4583   -0.0000 C   0  0  0  0  0  0  0  0  0  0  0  0
   -9.4787    4.8694   -0.0000 C   0  0  0  0  0  0  0  0  0  0  0  0
  -10.2469    3.5811   -0.0000 C   0  0  0  0  0  0  0  0  0  0  0  0
  -10.4951    5.9921   -0.0000 C   0  0  0  0  0  0  0  0  0  0  0  0
  -11.7125    3.9120   -0.0000 C   0  0  0  0  0  0  0  0  0  0  0  0
  -11.8897    5.4012   -0.0000 C   0  0  0  0  0  0  0  0  0  0  0  0
  -13.1898    6.1576   -0.0000 C   0  0  0  0  0  0  0  0  0  0  0  0
  -14.4781    5.4248   -0.0000 C   0  0  0  0  0  0  0  0  0  0  0  0
  -13.1780    7.6586   -0.0000 C   0  0  0  0  0  0  0  0  0  0  0  0
  -15.7781    6.1812   -0.0000 C   0  0  0  0  0  0  0  0  0  0  0  0
  -14.4781    3.9475   -0.0000 C   0  0  0  0  0  0  0  0  0  0  0  0
  -14.4781    8.4150   -0.0000 C   0  0  0  0  0  0  0  0  0  0  0  0
  -15.7900    7.6941   -0.0000 C   0  0  0  0  0  0  0  0  0  0  0  0
  -15.7900    3.2147   -0.0000 F   0  0  0  0  0  0  0  0  0  0  0  0
  -13.2016    3.2147   -0.0000 F   0  0  0  0  0  0  0  0  0  0  0  0
  -14.5017    2.4701   -0.0000 F   0  0  0  0  0  0  0  0  0  0  0  0
  1  2  1  0  0  0  0
  2  3  2  0  0  0  0
  2  4  1  0  0  0  0
  3  5  1  0  0  0  0
  4  6  2  0  0  0  0
  5  7  2  0  0  0  0
  5  8  1  0  0  0  0
  7  9  1  0  0  0  0
  8 10  2  0  0  0  0
  8 11  1  0  0  0  0
  9 12  1  0  0  0  0
 12 13  2  0  0  0  0
 12 14  1  0  0  0  0
 14 15  1  0  0  0  0
 14 16  1  0  0  0  0
 17 15  1  1  0  0  0
 18 16  1  1  0  0  0
 17 19  1  0  0  0  0
 18 20  1  0  0  0  0
 19 21  1  0  0  0  0
 21 22  1  1  0  0  0
 22 23  2  0  0  0  0
 22 24  1  0  0  0  0
 23 25  1  0  0  0  0
 23 26  1  0  0  0  0
 24 27  2  0  0  0  0
 25 28  2  0  0  0  0
 26 29  1  0  0  0  0
 26 30  1  0  0  0  0
 26 31  1  0  0  0  0
  6  7  1  0  0  0  0
 17 18  1  0  0  0  0
 20 21  1  0  0  0  0
 27 28  1  0  0  0  0
M  END
>  <MolRegNo>
1823181

>  <m>
=

>  <Value>
53000

>  <Unit>
nM

>  <Type>
IC50

>  <pValue>
4.28

>  <Ligand Efficiency>
0

>  <Binding Efficiency>
0

>  <Surface Efficiency>
0

>  <Assay Index>
886749

>  <Assay Category>


>  <Assay Organism>
Homo sapiens

>  <Target ID>
17045

>  <Target Name>
Cytochrome P450 3A4

>  <Target Organism>
Homo sapiens

>  <Target Description>
Target is a single protein chain

>  <Sequence Accession>
P08684

>  <Reference>
J Med Chem 57 (18), 7731-7757 (2014)

>  <Pubmed ID>
25210858

>  <DOI>
10.1021/jm5010013

$$$$
1823182
Actelion Java MolfileCreator 1.0

 32 35  0  0  1  0  0  0  0  0999 V2000
    0.0000   -0.0000   -0.0000 F   0  0  0  0  0  0  0  0  0  0  0  0
    1.2883    0.7634   -0.0000 C   0  0  0  0  0  0  0  0  0  0  0  0
    2.5885    0.0239   -0.0000 F   0  0  0  0  0  0  0  0  0  0  0  0
    1.2644   -0.7276   -0.0000 F   0  0  0  0  0  0  0  0  0  0  0  0
    1.2764    2.2784   -0.0000 C   0  0  0  0  0  0  0  0  0  0  0  0
    2.5527    3.0418   -0.0000 C   0  0  0  0  0  0  0  0  0  0  0  0
   -0.0358    3.0418   -0.0000 C   0  0  0  0  0  0  0  0  0  0  0  0
    2.5527    4.5567   -0.0000 C   0  0  0  0  0  0  0  0  0  0  0  0
    3.8410    2.3022   -0.0000 C   0  0  0  0  0  0  0  0  0  0  0  0
   -0.0477    4.5687   -0.0000 C   0  0  0  0  0  0  0  0  0  0  0  0
    1.2406    5.3321   -0.0000 C   0  0  0  0  0  0  0  0  0  0  0  0
    5.2128    2.9225   -0.0000 C   0  0  0  0  0  0  0  0  0  0  0  0
    3.9842    0.8111   -0.0000 C   0  0  0  0  0  0  0  0  0  0  0  0
    6.2029    1.8132   -0.0000 C   0  0  0  0  0  0  0  0  0  0  0  0
    5.4514    0.5010   -0.0000 C   0  0  0  0  0  0  0  0  0  0  0  0
    7.6582    1.5149   -0.0000 C   0  0  0  0  0  0  0  0  0  0  0  0
    6.4534   -0.6084   -0.0000 C   0  0  0  0  0  0  0  0  0  0  0  0
    7.8013    0.0239   -0.0000 N   0  0  0  0  0  0  0  0  0  0  0  0
    9.1016   -0.7157   -0.0000 C   0  0  0  0  0  0  0  0  0  0  0  0
    9.0896   -2.2068   -0.0000 O   0  0  0  0  0  0  0  0  0  0  0  0
   10.3899    0.0477   -0.0000 N   0  0  0  0  0  0  0  0  0  0  0  0
   11.6901   -0.6919   -0.0000 C   0  0  0  0  0  0  0  0  0  0  0  0
   12.9664    0.0835   -0.0000 C   0  0  0  0  0  0  0  0  0  0  0  0
   11.6782   -2.1829   -0.0000 C   0  0  0  0  0  0  0  0  0  0  0  0
   12.9426    1.6104   -0.0000 C   0  0  0  0  0  0  0  0  0  0  0  0
   14.2547   -0.6441   -0.0000 C   0  0  0  0  0  0  0  0  0  0  0  0
   12.9664   -2.9225   -0.0000 C   0  0  0  0  0  0  0  0  0  0  0  0
   11.6185    2.3619   -0.0000 O   0  0  0  0  0  0  0  0  0  0  0  0
   14.2309    2.3857   -0.0000 O   0  0  0  0  0  0  0  0  0  0  0  0
   14.2547   -2.1472   -0.0000 C   0  0  0  0  0  0  0  0  0  0  0  0
   15.5550   -2.8867   -0.0000 O   0  0  0  0  0  0  0  0  0  0  0  0
   15.5430   -4.3778   -0.0000 C   0  0  0  0  0  0  0  0  0  0  0  0
  1  2  1  0  0  0  0
  2  3  1  0  0  0  0
  2  4  1  0  0  0  0
  2  5  1  0  0  0  0
  5  6  2  0  0  0  0
  5  7  1  0  0  0  0
  6  8  1  0  0  0  0
  9  6  1  1  0  0  0
  7 10  2  0  0  0  0
  8 11  2  0  0  0  0
  9 12  1  0  0  0  0
  9 13  1  0  0  0  0
 14 12  1  1  0  0  0
 15 13  1  1  0  0  0
 14 16  1  0  0  0  0
 15 17  1  0  0  0  0
 16 18  1  0  0  0  0
 18 19  1  0  0  0  0
 19 20  2  0  0  0  0
 19 21  1  0  0  0  0
 21 22  1  0  0  0  0
 22 23  2  0  0  0  0
 22 24  1  0  0  0  0
 23 25  1  0  0  0  0
 23 26  1  0  0  0  0
 24 27  2  0  0  0  0
 25 28  2  0  0  0  0
 25 29  1  0  0  0  0
 26 30  2  0  0  0  0
 30 31  1  0  0  0  0
 31 32  1  0  0  0  0
 10 11  1  0  0  0  0
 14 15  1  0  0  0  0
 17 18  1  0  0  0  0
 27 30  1  0  0  0  0
M  END
>  <MolRegNo>
1823182

>  <m>
=

>  <Value>
8000

>  <Unit>
nM

>  <Type>
IC50

>  <pValue>
5.1

>  <Ligand Efficiency>
0

>  <Binding Efficiency>
0

>  <Surface Efficiency>
0

>  <Assay Index>
886749

>  <Assay Category>


>  <Assay Organism>
Homo sapiens

>  <Target ID>
17045

>  <Target Name>
Cytochrome P450 3A4

>  <Target Organism>
Homo sapiens

>  <Target Description>
Target is a single protein chain

>  <Sequence Accession>
P08684

>  <Reference>
J Med Chem 57 (18), 7731-7757 (2014)

>  <Pubmed ID>
25210858

>  <DOI>
10.1021/jm5010013

$$$$
1823183
Actelion Java MolfileCreator 1.0

 31 34  0  0  1  0  0  0  0  0999 V2000
    0.0000   -0.0000   -0.0000 Cl  0  0  0  0  0  0  0  0  0  0  0  0
   -1.3128    0.7569   -0.0000 C   0  0  0  0  0  0  0  0  0  0  0  0
   -1.3364    2.2707   -0.0000 C   0  0  0  0  0  0  0  0  0  0  0  0
   -2.6137    0.0237   -0.0000 C   0  0  0  0  0  0  0  0  0  0  0  0
   -2.6374    3.0158   -0.0000 C   0  0  0  0  0  0  0  0  0  0  0  0
   -3.9147    0.7806   -0.0000 C   0  0  0  0  0  0  0  0  0  0  0  0
   -3.9265    2.2707   -0.0000 C   0  0  0  0  0  0  0  0  0  0  0  0
   -2.6610    4.5297   -0.0000 C   0  0  0  0  0  0  0  0  0  0  0  0
   -5.2393    3.0277   -0.0000 N   0  0  0  0  0  0  0  0  0  0  0  0
   -3.9738    5.2747   -0.0000 O   0  0  0  0  0  0  0  0  0  0  0  0
   -1.3837    5.2984   -0.0000 O   0  0  0  0  0  0  0  0  0  0  0  0
   -6.5402    2.2944   -0.0000 C   0  0  0  0  0  0  0  0  0  0  0  0
   -6.5520    0.8160   -0.0000 O   0  0  0  0  0  0  0  0  0  0  0  0
   -7.8530    3.0513   -0.0000 N   0  0  0  0  0  0  0  0  0  0  0  0
   -8.0185    4.5533   -0.0000 C   0  0  0  0  0  0  0  0  0  0  0  0
   -9.2249    2.4600   -0.0000 C   0  0  0  0  0  0  0  0  0  0  0  0
   -9.4851    4.8726   -0.0000 C   0  0  0  0  0  0  0  0  0  0  0  0
  -10.2420    3.5835   -0.0000 C   0  0  0  0  0  0  0  0  0  0  0  0
  -10.4903    5.9962   -0.0000 C   0  0  0  0  0  0  0  0  0  0  0  0
  -11.7203    3.9147   -0.0000 C   0  0  0  0  0  0  0  0  0  0  0  0
  -11.8741    5.4048   -0.0000 C   0  0  0  0  0  0  0  0  0  0  0  0
  -13.1750    6.1617   -0.0000 C   0  0  0  0  0  0  0  0  0  0  0  0
  -14.4641    5.4285   -0.0000 C   0  0  0  0  0  0  0  0  0  0  0  0
  -13.1750    7.6637   -0.0000 C   0  0  0  0  0  0  0  0  0  0  0  0
  -15.7651    6.1854   -0.0000 C   0  0  0  0  0  0  0  0  0  0  0  0
  -14.4760    3.9501   -0.0000 C   0  0  0  0  0  0  0  0  0  0  0  0
  -14.4760    8.4207   -0.0000 C   0  0  0  0  0  0  0  0  0  0  0  0
  -15.7769    7.6992   -0.0000 C   0  0  0  0  0  0  0  0  0  0  0  0
  -15.7769    3.2169   -0.0000 F   0  0  0  0  0  0  0  0  0  0  0  0
  -13.1868    3.2169   -0.0000 F   0  0  0  0  0  0  0  0  0  0  0  0
  -14.4996    2.4718   -0.0000 F   0  0  0  0  0  0  0  0  0  0  0  0
  1  2  1  0  0  0  0
  2  3  2  0  0  0  0
  2  4  1  0  0  0  0
  3  5  1  0  0  0  0
  4  6  2  0  0  0  0
  5  7  2  0  0  0  0
  5  8  1  0  0  0  0
  7  9  1  0  0  0  0
  8 10  2  0  0  0  0
  8 11  1  0  0  0  0
  9 12  1  0  0  0  0
 12 13  2  0  0  0  0
 12 14  1  0  0  0  0
 14 15  1  0  0  0  0
 14 16  1  0  0  0  0
 17 15  1  1  0  0  0
 18 16  1  1  0  0  0
 17 19  1  0  0  0  0
 18 20  1  0  0  0  0
 19 21  1  0  0  0  0
 21 22  1  1  0  0  0
 22 23  2  0  0  0  0
 22 24  1  0  0  0  0
 23 25  1  0  0  0  0
 23 26  1  0  0  0  0
 24 27  2  0  0  0  0
 25 28  2  0  0  0  0
 26 29  1  0  0  0  0
 26 30  1  0  0  0  0
 26 31  1  0  0  0  0
  6  7  1  0  0  0  0
 17 18  1  0  0  0  0
 20 21  1  0  0  0  0
 27 28  1  0  0  0  0
M  END
>  <MolRegNo>
1823183

>  <m>
=

>  <Value>
50000

>  <Unit>
nM

>  <Type>
IC50

>  <pValue>
4.3

>  <Ligand Efficiency>
0

>  <Binding Efficiency>
0

>  <Surface Efficiency>
0

>  <Assay Index>
886749

>  <Assay Category>


>  <Assay Organism>
Homo sapiens

>  <Target ID>
17045

>  <Target Name>
Cytochrome P450 3A4

>  <Target Organism>
Homo sapiens

>  <Target Description>
Target is a single protein chain

>  <Sequence Accession>
P08684

>  <Reference>
J Med Chem 57 (18), 7731-7757 (2014)

>  <Pubmed ID>
25210858

>  <DOI>
10.1021/jm5010013

$$$$
1823184
Actelion Java MolfileCreator 1.0

 34 37  0  0  1  0  0  0  0  0999 V2000
    0.0000   -0.0000   -0.0000 S   0  0  0  0  0  0  0  0  0  0  0  0
    0.7339    1.3139   -0.0000 O   0  0  0  0  0  0  0  0  0  0  0  0
    1.4797    0.0237   -0.0000 O   0  0  0  0  0  0  0  0  0  0  0  0
   -1.3021    0.7576   -0.0000 C   0  0  0  0  0  0  0  0  0  0  0  0
    0.0000   -1.4797   -0.0000 C   0  0  0  0  0  0  0  0  0  0  0  0
   -1.3258    2.2728   -0.0000 C   0  0  0  0  0  0  0  0  0  0  0  0
   -2.6042    0.0237   -0.0000 C   0  0  0  0  0  0  0  0  0  0  0  0
   -2.6279    3.0185   -0.0000 C   0  0  0  0  0  0  0  0  0  0  0  0
   -3.9063    0.7813   -0.0000 C   0  0  0  0  0  0  0  0  0  0  0  0
   -3.9182    2.2728   -0.0000 C   0  0  0  0  0  0  0  0  0  0  0  0
   -2.6516    4.5337   -0.0000 C   0  0  0  0  0  0  0  0  0  0  0  0
   -5.2321    3.0304   -0.0000 N   0  0  0  0  0  0  0  0  0  0  0  0
   -3.9655    5.2795   -0.0000 O   0  0  0  0  0  0  0  0  0  0  0  0
   -1.3731    5.3031   -0.0000 O   0  0  0  0  0  0  0  0  0  0  0  0
   -6.5342    2.2964   -0.0000 C   0  0  0  0  0  0  0  0  0  0  0  0
   -6.5461    0.8168   -0.0000 O   0  0  0  0  0  0  0  0  0  0  0  0
   -7.8482    3.0540   -0.0000 N   0  0  0  0  0  0  0  0  0  0  0  0
   -8.0139    4.5574   -0.0000 C   0  0  0  0  0  0  0  0  0  0  0  0
   -9.2213    2.4622   -0.0000 C   0  0  0  0  0  0  0  0  0  0  0  0
   -9.4817    4.8770   -0.0000 C   0  0  0  0  0  0  0  0  0  0  0  0
  -10.2393    3.5867   -0.0000 C   0  0  0  0  0  0  0  0  0  0  0  0
  -10.4879    6.0015   -0.0000 C   0  0  0  0  0  0  0  0  0  0  0  0
  -11.7190    3.9182   -0.0000 C   0  0  0  0  0  0  0  0  0  0  0  0
  -11.8729    5.4097   -0.0000 C   0  0  0  0  0  0  0  0  0  0  0  0
  -13.1750    6.1673   -0.0000 C   0  0  0  0  0  0  0  0  0  0  0  0
  -14.4653    5.4334   -0.0000 C   0  0  0  0  0  0  0  0  0  0  0  0
  -13.1750    7.6706   -0.0000 C   0  0  0  0  0  0  0  0  0  0  0  0
  -15.7674    6.1909   -0.0000 C   0  0  0  0  0  0  0  0  0  0  0  0
  -14.4771    3.9537   -0.0000 C   0  0  0  0  0  0  0  0  0  0  0  0
  -14.4771    8.4282   -0.0000 C   0  0  0  0  0  0  0  0  0  0  0  0
  -15.7792    7.7061   -0.0000 C   0  0  0  0  0  0  0  0  0  0  0  0
  -15.7792    3.2198   -0.0000 F   0  0  0  0  0  0  0  0  0  0  0  0
  -13.1868    3.2198   -0.0000 F   0  0  0  0  0  0  0  0  0  0  0  0
  -14.5008    2.4740   -0.0000 F   0  0  0  0  0  0  0  0  0  0  0  0
  1  2  2  0  0  0  0
  1  3  2  0  0  0  0
  1  4  1  0  0  0  0
  1  5  1  0  0  0  0
  4  6  2  0  0  0  0
  4  7  1  0  0  0  0
  6  8  1  0  0  0  0
  7  9  2  0  0  0  0
  8 10  2  0  0  0  0
  8 11  1  0  0  0  0
 10 12  1  0  0  0  0
 11 13  2  0  0  0  0
 11 14  1  0  0  0  0
 12 15  1  0  0  0  0
 15 16  2  0  0  0  0
 15 17  1  0  0  0  0
 17 18  1  0  0  0  0
 17 19  1  0  0  0  0
 20 18  1  1  0  0  0
 21 19  1  1  0  0  0
 20 22  1  0  0  0  0
 21 23  1  0  0  0  0
 22 24  1  0  0  0  0
 24 25  1  1  0  0  0
 25 26  2  0  0  0  0
 25 27  1  0  0  0  0
 26 28  1  0  0  0  0
 26 29  1  0  0  0  0
 27 30  2  0  0  0  0
 28 31  2  0  0  0  0
 29 32  1  0  0  0  0
 29 33  1  0  0  0  0
 29 34  1  0  0  0  0
  9 10  1  0  0  0  0
 20 21  1  0  0  0  0
 23 24  1  0  0  0  0
 30 31  1  0  0  0  0
M  END
>  <MolRegNo>
1823184

>  <m>
=

>  <Value>
42000

>  <Unit>
nM

>  <Type>
IC50

>  <pValue>
4.38

>  <Ligand Efficiency>
0

>  <Binding Efficiency>
0

>  <Surface Efficiency>
0

>  <Assay Index>
886749

>  <Assay Category>


>  <Assay Organism>
Homo sapiens

>  <Target ID>
17045

>  <Target Name>
Cytochrome P450 3A4

>  <Target Organism>
Homo sapiens

>  <Target Description>
Target is a single protein chain

>  <Sequence Accession>
P08684

>  <Reference>
J Med Chem 57 (18), 7731-7757 (2014)

>  <Pubmed ID>
25210858

>  <DOI>
10.1021/jm5010013

$$$$
1823187
Actelion Java MolfileCreator 1.0

 31 34  0  0  1  0  0  0  0  0999 V2000
    0.0000   -0.0000   -0.0000 F   0  0  0  0  0  0  0  0  0  0  0  0
    1.2996    0.7631   -0.0000 C   0  0  0  0  0  0  0  0  0  0  0  0
    2.5993    0.0238   -0.0000 F   0  0  0  0  0  0  0  0  0  0  0  0
    1.2758   -0.7273   -0.0000 F   0  0  0  0  0  0  0  0  0  0  0  0
    1.2877    2.2773   -0.0000 C   0  0  0  0  0  0  0  0  0  0  0  0
    2.5635    3.0404   -0.0000 C   0  0  0  0  0  0  0  0  0  0  0  0
   -0.0358    3.0404   -0.0000 C   0  0  0  0  0  0  0  0  0  0  0  0
    2.5635    4.5547   -0.0000 C   0  0  0  0  0  0  0  0  0  0  0  0
    3.8512    2.3012   -0.0000 C   0  0  0  0  0  0  0  0  0  0  0  0
   -0.0477    4.5666   -0.0000 C   0  0  0  0  0  0  0  0  0  0  0  0
    1.2519    5.3178   -0.0000 C   0  0  0  0  0  0  0  0  0  0  0  0
    5.2224    2.9212   -0.0000 C   0  0  0  0  0  0  0  0  0  0  0  0
    3.9943    0.8108   -0.0000 C   0  0  0  0  0  0  0  0  0  0  0  0
    6.2120    1.8123   -0.0000 C   0  0  0  0  0  0  0  0  0  0  0  0
    5.4609    0.5008   -0.0000 C   0  0  0  0  0  0  0  0  0  0  0  0
    7.6667    1.5143   -0.0000 C   0  0  0  0  0  0  0  0  0  0  0  0
    6.4624   -0.6081   -0.0000 C   0  0  0  0  0  0  0  0  0  0  0  0
    7.8097    0.0238   -0.0000 N   0  0  0  0  0  0  0  0  0  0  0  0
    9.1094   -0.7154   -0.0000 C   0  0  0  0  0  0  0  0  0  0  0  0
    9.0975   -2.2058   -0.0000 O   0  0  0  0  0  0  0  0  0  0  0  0
   10.3971    0.0477   -0.0000 N   0  0  0  0  0  0  0  0  0  0  0  0
   11.6967   -0.6916   -0.0000 C   0  0  0  0  0  0  0  0  0  0  0  0
   12.9725    0.0835   -0.0000 C   0  0  0  0  0  0  0  0  0  0  0  0
   11.6848   -2.1820   -0.0000 C   0  0  0  0  0  0  0  0  0  0  0  0
   12.9487    1.6096   -0.0000 C   0  0  0  0  0  0  0  0  0  0  0  0
   14.2602   -0.6439   -0.0000 C   0  0  0  0  0  0  0  0  0  0  0  0
   12.9725   -2.9212   -0.0000 C   0  0  0  0  0  0  0  0  0  0  0  0
   11.6252    2.3608   -0.0000 O   0  0  0  0  0  0  0  0  0  0  0  0
   14.2364    2.3847   -0.0000 O   0  0  0  0  0  0  0  0  0  0  0  0
   14.2602   -2.1462   -0.0000 N   0  0  0  0  0  0  0  0  0  0  0  0
   12.9606   -4.4116   -0.0000 C   0  0  0  0  0  0  0  0  0  0  0  0
  1  2  1  0  0  0  0
  2  3  1  0  0  0  0
  2  4  1  0  0  0  0
  2  5  1  0  0  0  0
  5  6  2  0  0  0  0
  5  7  1  0  0  0  0
  6  8  1  0  0  0  0
  9  6  1  1  0  0  0
  7 10  2  0  0  0  0
  8 11  2  0  0  0  0
  9 12  1  0  0  0  0
  9 13  1  0  0  0  0
 14 12  1  1  0  0  0
 15 13  1  1  0  0  0
 14 16  1  0  0  0  0
 15 17  1  0  0  0  0
 16 18  1  0  0  0  0
 18 19  1  0  0  0  0
 19 20  2  0  0  0  0
 19 21  1  0  0  0  0
 21 22  1  0  0  0  0
 22 23  2  0  0  0  0
 22 24  1  0  0  0  0
 23 25  1  0  0  0  0
 23 26  1  0  0  0  0
 24 27  2  0  0  0  0
 25 28  2  0  0  0  0
 25 29  1  0  0  0  0
 26 30  2  0  0  0  0
 27 31  1  0  0  0  0
 10 11  1  0  0  0  0
 14 15  1  0  0  0  0
 17 18  1  0  0  0  0
 27 30  1  0  0  0  0
M  END
>  <MolRegNo>
1823187

>  <m>
=

>  <Value>
1100

>  <Unit>
nM

>  <Type>
IC50

>  <pValue>
5.96

>  <Ligand Efficiency>
0

>  <Binding Efficiency>
0

>  <Surface Efficiency>
0

>  <Assay Index>
886749

>  <Assay Category>


>  <Assay Organism>
Homo sapiens

>  <Target ID>
17045

>  <Target Name>
Cytochrome P450 3A4

>  <Target Organism>
Homo sapiens

>  <Target Description>
Target is a single protein chain

>  <Sequence Accession>
P08684

>  <Reference>
J Med Chem 57 (18), 7731-7757 (2014)

>  <Pubmed ID>
25210858

>  <DOI>
10.1021/jm5010013

$$$$
1823188
Actelion Java MolfileCreator 1.0

 30 33  0  0  1  0  0  0  0  0999 V2000
    0.0000   -0.0000   -0.0000 F   0  0  0  0  0  0  0  0  0  0  0  0
    1.2888    0.7637   -0.0000 C   0  0  0  0  0  0  0  0  0  0  0  0
    2.5896    0.0239   -0.0000 F   0  0  0  0  0  0  0  0  0  0  0  0
    1.2649   -0.7279   -0.0000 F   0  0  0  0  0  0  0  0  0  0  0  0
    1.2769    2.2793   -0.0000 C   0  0  0  0  0  0  0  0  0  0  0  0
    2.5538    3.0430   -0.0000 C   0  0  0  0  0  0  0  0  0  0  0  0
   -0.0358    3.0430   -0.0000 C   0  0  0  0  0  0  0  0  0  0  0  0
    2.5538    4.5586   -0.0000 C   0  0  0  0  0  0  0  0  0  0  0  0
    3.8426    2.3032   -0.0000 C   0  0  0  0  0  0  0  0  0  0  0  0
   -0.0477    4.5705   -0.0000 C   0  0  0  0  0  0  0  0  0  0  0  0
    1.2411    5.3223   -0.0000 C   0  0  0  0  0  0  0  0  0  0  0  0
    5.2149    2.9237   -0.0000 C   0  0  0  0  0  0  0  0  0  0  0  0
    3.9858    0.8115   -0.0000 C   0  0  0  0  0  0  0  0  0  0  0  0
    6.2054    1.8139   -0.0000 C   0  0  0  0  0  0  0  0  0  0  0  0
    5.4536    0.5012   -0.0000 C   0  0  0  0  0  0  0  0  0  0  0  0
    7.6613    1.5155   -0.0000 C   0  0  0  0  0  0  0  0  0  0  0  0
    6.4560   -0.6086   -0.0000 C   0  0  0  0  0  0  0  0  0  0  0  0
    7.8045    0.0239   -0.0000 N   0  0  0  0  0  0  0  0  0  0  0  0
    9.0933   -0.7160   -0.0000 C   0  0  0  0  0  0  0  0  0  0  0  0
    9.0813   -2.2077   -0.0000 O   0  0  0  0  0  0  0  0  0  0  0  0
   10.3821    0.0477   -0.0000 N   0  0  0  0  0  0  0  0  0  0  0  0
   11.6709   -0.6921   -0.0000 C   0  0  0  0  0  0  0  0  0  0  0  0
   12.9478    0.0835   -0.0000 C   0  0  0  0  0  0  0  0  0  0  0  0
   11.6590   -2.1838   -0.0000 C   0  0  0  0  0  0  0  0  0  0  0  0
   12.9239    1.6110   -0.0000 C   0  0  0  0  0  0  0  0  0  0  0  0
   14.2366   -0.6444   -0.0000 C   0  0  0  0  0  0  0  0  0  0  0  0
   12.9478   -2.9237   -0.0000 N   0  0  0  0  0  0  0  0  0  0  0  0
   11.5993    2.3628   -0.0000 O   0  0  0  0  0  0  0  0  0  0  0  0
   14.2127    2.3867   -0.0000 O   0  0  0  0  0  0  0  0  0  0  0  0
   14.2366   -2.1480   -0.0000 N   0  0  0  0  0  0  0  0  0  0  0  0
  1  2  1  0  0  0  0
  2  3  1  0  0  0  0
  2  4  1  0  0  0  0
  2  5  1  0  0  0  0
  5  6  2  0  0  0  0
  5  7  1  0  0  0  0
  6  8  1  0  0  0  0
  9  6  1  1  0  0  0
  7 10  2  0  0  0  0
  8 11  2  0  0  0  0
  9 12  1  0  0  0  0
  9 13  1  0  0  0  0
 14 12  1  1  0  0  0
 15 13  1  1  0  0  0
 14 16  1  0  0  0  0
 15 17  1  0  0  0  0
 16 18  1  0  0  0  0
 18 19  1  0  0  0  0
 19 20  2  0  0  0  0
 19 21  1  0  0  0  0
 21 22  1  0  0  0  0
 22 23  2  0  0  0  0
 22 24  1  0  0  0  0
 23 25  1  0  0  0  0
 23 26  1  0  0  0  0
 24 27  2  0  0  0  0
 25 28  2  0  0  0  0
 25 29  1  0  0  0  0
 26 30  2  0  0  0  0
 10 11  1  0  0  0  0
 14 15  1  0  0  0  0
 17 18  1  0  0  0  0
 27 30  1  0  0  0  0
M  END
>  <MolRegNo>
1823188

>  <m>
=

>  <Value>
12000

>  <Unit>
nM

>  <Type>
IC50

>  <pValue>
4.92

>  <Ligand Efficiency>
0

>  <Binding Efficiency>
0

>  <Surface Efficiency>
0

>  <Assay Index>
886749

>  <Assay Category>


>  <Assay Organism>
Homo sapiens

>  <Target ID>
17045

>  <Target Name>
Cytochrome P450 3A4

>  <Target Organism>
Homo sapiens

>  <Target Description>
Target is a single protein chain

>  <Sequence Accession>
P08684

>  <Reference>
J Med Chem 57 (18), 7731-7757 (2014)

>  <Pubmed ID>
25210858

>  <DOI>
10.1021/jm5010013

$$$$
1365124
Actelion Java MolfileCreator 1.0

 25 27  0  0  0  0  0  0  0  0999 V2000
    0.0000   -0.0000   -0.0000 I   0  0  0  0  0  0  0  0  0  0  0  0
   -1.3154    0.7584   -0.0000 C   0  0  0  0  0  0  0  0  0  0  0  0
   -1.3391    2.2753   -0.0000 C   0  0  0  0  0  0  0  0  0  0  0  0
   -2.6190    0.0237   -0.0000 C   0  0  0  0  0  0  0  0  0  0  0  0
   -2.6427    3.0219   -0.0000 C   0  0  0  0  0  0  0  0  0  0  0  0
   -3.9225    0.7821   -0.0000 C   0  0  0  0  0  0  0  0  0  0  0  0
   -2.6664    4.5269   -0.0000 F   0  0  0  0  0  0  0  0  0  0  0  0
   -3.9344    2.2753   -0.0000 C   0  0  0  0  0  0  0  0  0  0  0  0
   -5.2379    3.0337   -0.0000 N   0  0  0  0  0  0  0  0  0  0  0  0
   -6.5415    2.2990   -0.0000 C   0  0  0  0  0  0  0  0  0  0  0  0
   -7.8450    3.0574   -0.0000 C   0  0  0  0  0  0  0  0  0  0  0  0
   -6.5533    0.8058   -0.0000 C   0  0  0  0  0  0  0  0  0  0  0  0
   -7.8569    4.5624   -0.0000 C   0  0  0  0  0  0  0  0  0  0  0  0
   -9.1486    2.3227   -0.0000 C   0  0  0  0  0  0  0  0  0  0  0  0
   -5.4512   -0.1896   -0.0000 S   0  0  0  0  0  0  0  0  0  0  0  0
   -7.8687    0.0711   -0.0000 C   0  0  0  0  0  0  0  0  0  0  0  0
   -6.5770    5.3209   -0.0000 O   0  0  0  0  0  0  0  0  0  0  0  0
   -9.1604    5.3209   -0.0000 N   0  0  0  0  0  0  0  0  0  0  0  0
   -9.1604    0.8414   -0.0000 C   0  0  0  0  0  0  0  0  0  0  0  0
   -6.0793   -1.5406   -0.0000 N   0  0  0  0  0  0  0  0  0  0  0  0
   -7.5725   -1.3865   -0.0000 C   0  0  0  0  0  0  0  0  0  0  0  0
  -10.4640    4.5861   -0.0000 O   0  0  0  0  0  0  0  0  0  0  0  0
  -11.7675    5.3446   -0.0000 C   0  0  0  0  0  0  0  0  0  0  0  0
  -13.0711    4.6098   -0.0000 C   0  0  0  0  0  0  0  0  0  0  0  0
  -14.3747    5.3683   -0.0000 O   0  0  0  0  0  0  0  0  0  0  0  0
  1  2  1  0  0  0  0
  2  3  2  0  0  0  0
  2  4  1  0  0  0  0
  3  5  1  0  0  0  0
  4  6  2  0  0  0  0
  5  7  1  0  0  0  0
  5  8  2  0  0  0  0
  8  9  1  0  0  0  0
  9 10  1  0  0  0  0
 10 11  2  0  0  0  0
 10 12  1  0  0  0  0
 11 13  1  0  0  0  0
 11 14  1  0  0  0  0
 12 15  1  0  0  0  0
 12 16  2  0  0  0  0
 13 17  2  0  0  0  0
 13 18  1  0  0  0  0
 14 19  2  0  0  0  0
 15 20  1  0  0  0  0
 16 21  1  0  0  0  0
 18 22  1  0  0  0  0
 22 23  1  0  0  0  0
 23 24  1  0  0  0  0
 24 25  1  0  0  0  0
  6  8  1  0  0  0  0
 16 19  1  0  0  0  0
 20 21  2  0  0  0  0
M  END
>  <MolRegNo>
1365124

>  <m>
=

>  <Value>
9000

>  <Unit>
nM

>  <Type>
IC50

>  <pValue>
5.05

>  <Ligand Efficiency>
0

>  <Binding Efficiency>
0

>  <Surface Efficiency>
0

>  <Assay Index>
888386

>  <Assay Category>


>  <Assay Organism>
Homo sapiens

>  <Target ID>
17045

>  <Target Name>
Cytochrome P450 3A4

>  <Target Organism>
Homo sapiens

>  <Target Description>
Target is a single protein chain

>  <Sequence Accession>
P08684

>  <Reference>
Bioorg Med Chem Lett 24 (19), 4714-4723 (2014)

>  <Pubmed ID>
25193232

>  <DOI>
10.1016/j.bmcl.2014.08.008

$$$$
1791691
Actelion Java MolfileCreator 1.0

 22 24  0  0  0  0  0  0  0  0999 V2000
    0.0000   -0.0000   -0.0000 Cl  0  0  0  0  0  0  0  0  0  0  0  0
   -1.2983    0.7554   -0.0000 C   0  0  0  0  0  0  0  0  0  0  0  0
   -2.6084    0.0236   -0.0000 C   0  0  0  0  0  0  0  0  0  0  0  0
   -1.3101    2.2661   -0.0000 C   0  0  0  0  0  0  0  0  0  0  0  0
   -3.9067    0.7790   -0.0000 C   0  0  0  0  0  0  0  0  0  0  0  0
   -2.6084    3.0215   -0.0000 C   0  0  0  0  0  0  0  0  0  0  0  0
   -3.9067    2.2779   -0.0000 C   0  0  0  0  0  0  0  0  0  0  0  0
   -5.2049    3.0333   -0.0000 C   0  0  0  0  0  0  0  0  0  0  0  0
   -6.5032    2.3015   -0.0000 N   0  0  0  0  0  0  0  0  0  0  0  0
   -7.8015    3.0687   -0.0000 C   0  0  0  0  0  0  0  0  0  0  0  0
   -6.5150    0.8262   -0.0000 C   0  0  0  0  0  0  0  0  0  0  0  0
   -9.0998    2.3369   -0.0000 C   0  0  0  0  0  0  0  0  0  0  0  0
   -7.8251    0.0944   -0.0000 C   0  0  0  0  0  0  0  0  0  0  0  0
   -9.1116    0.8498   -0.0000 O   0  0  0  0  0  0  0  0  0  0  0  0
  -10.3981    3.0923   -0.0000 C   0  0  0  0  0  0  0  0  0  0  0  0
  -11.6964    2.3605   -0.0000 C   0  0  0  0  0  0  0  0  0  0  0  0
  -12.9947    3.1159   -0.0000 C   0  0  0  0  0  0  0  0  0  0  0  0
  -14.3048    2.3841   -0.0000 C   0  0  0  0  0  0  0  0  0  0  0  0
  -13.0065    4.6266   -0.0000 C   0  0  0  0  0  0  0  0  0  0  0  0
  -15.6148    3.1395   -0.0000 C   0  0  0  0  0  0  0  0  0  0  0  0
  -14.3048    5.3820   -0.0000 C   0  0  0  0  0  0  0  0  0  0  0  0
  -15.6266    4.6502   -0.0000 C   0  0  0  0  0  0  0  0  0  0  0  0
  1  2  1  0  0  0  0
  2  3  2  0  0  0  0
  2  4  1  0  0  0  0
  3  5  1  0  0  0  0
  4  6  2  0  0  0  0
  5  7  2  0  0  0  0
  7  8  1  0  0  0  0
  8  9  1  0  0  0  0
  9 10  1  0  0  0  0
  9 11  1  0  0  0  0
 10 12  1  0  0  0  0
 11 13  1  0  0  0  0
 12 14  1  0  0  0  0
 12 15  1  1  0  0  0
 15 16  1  0  0  0  0
 16 17  1  0  0  0  0
 17 18  2  0  0  0  0
 17 19  1  0  0  0  0
 18 20  1  0  0  0  0
 19 21  2  0  0  0  0
 20 22  2  0  0  0  0
  6  7  1  0  0  0  0
 13 14  1  0  0  0  0
 21 22  1  0  0  0  0
M  END
>  <MolRegNo>
1791691

>  <m>
=

>  <Value>
15600

>  <Unit>
nM

>  <Type>
IC50

>  <pValue>
4.81

>  <Ligand Efficiency>
0

>  <Binding Efficiency>
0

>  <Surface Efficiency>
0

>  <Assay Index>
884517

>  <Assay Category>


>  <Assay Organism>
Homo sapiens

>  <Target ID>
17045

>  <Target Name>
Cytochrome P450 3A4

>  <Target Organism>
Homo sapiens

>  <Target Description>
Target is a single protein chain

>  <Sequence Accession>
P08684

>  <Reference>
ACS Med Chem Lett 5 (9), 1060-1064 (2014)

>  <Pubmed ID>
25221667

>  <DOI>
10.1021/ml500267c

$$$$
1823437
Actelion Java MolfileCreator 1.0

 31 35  0  0  0  0  0  0  0  0999 V2000
    0.0000   -0.0000   -0.0000 O   0  0  0  0  0  0  0  0  0  0  0  0
   -0.8825   -1.2120   -0.0000 C   0  0  0  0  0  0  0  0  0  0  0  0
   -0.2824   -2.5653   -0.0000 N   0  0  0  0  0  0  0  0  0  0  0  0
   -2.3770   -1.0473   -0.0000 C   0  0  0  0  0  0  0  0  0  0  0  0
   -1.1767   -3.7773   -0.0000 C   0  0  0  0  0  0  0  0  0  0  0  0
    1.2003   -2.7065   -0.0000 C   0  0  0  0  0  0  0  0  0  0  0  0
   -3.2831    0.1765   -0.0000 N   0  0  0  0  0  0  0  0  0  0  0  0
   -3.2713   -2.2475   -0.0000 C   0  0  0  0  0  0  0  0  0  0  0  0
   -2.6829   -3.6125   -0.0000 C   0  0  0  0  0  0  0  0  0  0  0  0
    1.9534   -3.9773   -0.0000 C   0  0  0  0  0  0  0  0  0  0  0  0
    2.1887   -1.5650   -0.0000 C   0  0  0  0  0  0  0  0  0  0  0  0
   -4.7187   -0.2824   -0.0000 C   0  0  0  0  0  0  0  0  0  0  0  0
   -2.8359    1.6239   -0.0000 C   0  0  0  0  0  0  0  0  0  0  0  0
   -4.7069   -1.7886   -0.0000 C   0  0  0  0  0  0  0  0  0  0  0  0
   -3.5772   -4.8128   -0.0000 C   0  0  0  0  0  0  0  0  0  0  0  0
    3.4125   -3.6478   -0.0000 C   0  0  0  0  0  0  0  0  0  0  0  0
    3.5537   -2.1534   -0.0000 C   0  0  0  0  0  0  0  0  0  0  0  0
   -6.0366    0.4707   -0.0000 C   0  0  0  0  0  0  0  0  0  0  0  0
   -6.0248   -2.5417   -0.0000 C   0  0  0  0  0  0  0  0  0  0  0  0
   -5.0834   -4.6481   -0.0000 O   0  0  0  0  0  0  0  0  0  0  0  0
   -2.9771   -6.1660   -0.0000 N   0  0  0  0  0  0  0  0  0  0  0  0
   -7.3428   -0.2706   -0.0000 C   0  0  0  0  0  0  0  0  0  0  0  0
   -7.3428   -1.7769   -0.0000 C   0  0  0  0  0  0  0  0  0  0  0  0
   -3.8714   -7.3663   -0.0000 C   0  0  0  0  0  0  0  0  0  0  0  0
   -3.2713   -8.7195   -0.0000 C   0  0  0  0  0  0  0  0  0  0  0  0
   -1.8122   -9.0137   -0.0000 N   0  0  0  0  0  0  0  0  0  0  0  0
   -4.0244  -10.0139   -0.0000 C   0  0  0  0  0  0  0  0  0  0  0  0
   -1.6592  -10.4964   -0.0000 C   0  0  0  0  0  0  0  0  0  0  0  0
   -0.7060   -7.9900   -0.0000 C   0  0  0  0  0  0  0  0  0  0  0  0
   -3.0242  -11.1200   -0.0000 C   0  0  0  0  0  0  0  0  0  0  0  0
    0.7060   -8.4371   -0.0000 C   0  0  0  0  0  0  0  0  0  0  0  0
  1  2  2  0  0  0  0
  2  3  1  0  0  0  0
  2  4  1  0  0  0  0
  3  5  1  0  0  0  0
  3  6  1  0  0  0  0
  4  7  1  0  0  0  0
  4  8  2  0  0  0  0
  5  9  2  0  0  0  0
  6 10  1  0  0  0  0
  6 11  1  0  0  0  0
  7 12  1  0  0  0  0
  7 13  1  0  0  0  0
  8 14  1  0  0  0  0
  9 15  1  0  0  0  0
 10 16  1  0  0  0  0
 11 17  1  0  0  0  0
 12 18  1  0  0  0  0
 14 19  1  0  0  0  0
 15 20  2  0  0  0  0
 15 21  1  0  0  0  0
 18 22  2  0  0  0  0
 19 23  2  0  0  0  0
 21 24  1  0  0  0  0
 25 24  1  6  0  0  0
 25 26  1  0  0  0  0
 25 27  1  0  0  0  0
 26 28  1  0  0  0  0
 26 29  1  0  0  0  0
 27 30  1  0  0  0  0
 29 31  1  0  0  0  0
  8  9  1  0  0  0  0
 12 14  2  0  0  0  0
 16 17  1  0  0  0  0
 22 23  1  0  0  0  0
 28 30  1  0  0  0  0
M  END
>  <MolRegNo>
1823437

>  <m>
=

>  <Value>
3200

>  <Unit>
nM

>  <Type>
IC50

>  <pValue>
5.5

>  <Ligand Efficiency>
0

>  <Binding Efficiency>
0

>  <Surface Efficiency>
0

>  <Assay Index>
884201

>  <Assay Category>


>  <Assay Organism>
Homo sapiens

>  <Target ID>
17045

>  <Target Name>
Cytochrome P450 3A4

>  <Target Organism>
Homo sapiens

>  <Target Description>
Target is a single protein chain

>  <Sequence Accession>
P08684

>  <Reference>
J Med Chem 57 (23), 10192-10197 (2014)

>  <Pubmed ID>
25423411

>  <DOI>
10.1021/jm501375c

$$$$
1823439
Actelion Java MolfileCreator 1.0

 32 36  0  0  0  0  0  0  0  0999 V2000
    0.0000   -0.0000   -0.0000 O   0  0  0  0  0  0  0  0  0  0  0  0
   -0.8825   -1.2119   -0.0000 C   0  0  0  0  0  0  0  0  0  0  0  0
   -0.2824   -2.5650   -0.0000 N   0  0  0  0  0  0  0  0  0  0  0  0
   -2.3767   -1.0472   -0.0000 C   0  0  0  0  0  0  0  0  0  0  0  0
   -1.1766   -3.7769   -0.0000 C   0  0  0  0  0  0  0  0  0  0  0  0
    1.2001   -2.7062   -0.0000 C   0  0  0  0  0  0  0  0  0  0  0  0
   -3.2827    0.1765   -0.0000 N   0  0  0  0  0  0  0  0  0  0  0  0
   -3.2710   -2.2473   -0.0000 C   0  0  0  0  0  0  0  0  0  0  0  0
   -2.6827   -3.6122   -0.0000 C   0  0  0  0  0  0  0  0  0  0  0  0
    1.9532   -3.9769   -0.0000 C   0  0  0  0  0  0  0  0  0  0  0  0
    2.1885   -1.5649   -0.0000 C   0  0  0  0  0  0  0  0  0  0  0  0
   -4.7182   -0.2824   -0.0000 C   0  0  0  0  0  0  0  0  0  0  0  0
   -2.8356    1.6237   -0.0000 C   0  0  0  0  0  0  0  0  0  0  0  0
   -4.7064   -1.7884   -0.0000 C   0  0  0  0  0  0  0  0  0  0  0  0
   -3.5769   -4.8123   -0.0000 C   0  0  0  0  0  0  0  0  0  0  0  0
    3.4122   -3.6475   -0.0000 C   0  0  0  0  0  0  0  0  0  0  0  0
    3.5534   -2.1532   -0.0000 C   0  0  0  0  0  0  0  0  0  0  0  0
   -6.0360    0.4706   -0.0000 C   0  0  0  0  0  0  0  0  0  0  0  0
   -6.0242   -2.5415   -0.0000 C   0  0  0  0  0  0  0  0  0  0  0  0
   -5.0829   -4.6476   -0.0000 O   0  0  0  0  0  0  0  0  0  0  0  0
   -2.9768   -6.1654   -0.0000 N   0  0  0  0  0  0  0  0  0  0  0  0
   -7.3420   -0.2706   -0.0000 C   0  0  0  0  0  0  0  0  0  0  0  0
   -7.3303   -1.7767   -0.0000 C   0  0  0  0  0  0  0  0  0  0  0  0
   -3.8710   -7.3656   -0.0000 C   0  0  0  0  0  0  0  0  0  0  0  0
   -3.2710   -8.7187   -0.0000 C   0  0  0  0  0  0  0  0  0  0  0  0
   -1.8120   -9.0128   -0.0000 N   0  0  0  0  0  0  0  0  0  0  0  0
   -4.0240  -10.0129   -0.0000 C   0  0  0  0  0  0  0  0  0  0  0  0
   -0.7060   -7.9892   -0.0000 C   0  0  0  0  0  0  0  0  0  0  0  0
   -1.6590  -10.4953   -0.0000 C   0  0  0  0  0  0  0  0  0  0  0  0
   -3.0239  -11.1189   -0.0000 C   0  0  0  0  0  0  0  0  0  0  0  0
    0.7060   -8.4363   -0.0000 C   0  0  0  0  0  0  0  0  0  0  0  0
   -0.3412   -6.5184   -0.0000 C   0  0  0  0  0  0  0  0  0  0  0  0
  1  2  2  0  0  0  0
  2  3  1  0  0  0  0
  2  4  1  0  0  0  0
  3  5  1  0  0  0  0
  3  6  1  0  0  0  0
  4  7  1  0  0  0  0
  4  8  2  0  0  0  0
  5  9  2  0  0  0  0
  6 10  1  0  0  0  0
  6 11  1  0  0  0  0
  7 12  1  0  0  0  0
  7 13  1  0  0  0  0
  8 14  1  0  0  0  0
  9 15  1  0  0  0  0
 10 16  1  0  0  0  0
 11 17  1  0  0  0  0
 12 18  1  0  0  0  0
 14 19  1  0  0  0  0
 15 20  2  0  0  0  0
 15 21  1  0  0  0  0
 18 22  2  0  0  0  0
 19 23  2  0  0  0  0
 21 24  1  0  0  0  0
 25 24  1  6  0  0  0
 25 26  1  0  0  0  0
 25 27  1  0  0  0  0
 26 28  1  0  0  0  0
 26 29  1  0  0  0  0
 27 30  1  0  0  0  0
 28 31  1  0  0  0  0
 28 32  1  0  0  0  0
  8  9  1  0  0  0  0
 12 14  2  0  0  0  0
 16 17  1  0  0  0  0
 22 23  1  0  0  0  0
 29 30  1  0  0  0  0
M  END
>  <MolRegNo>
1823439

>  <m>
=

>  <Value>
10100

>  <Unit>
nM

>  <Type>
IC50

>  <pValue>
5

>  <Ligand Efficiency>
0

>  <Binding Efficiency>
0

>  <Surface Efficiency>
0

>  <Assay Index>
884201

>  <Assay Category>


>  <Assay Organism>
Homo sapiens

>  <Target ID>
17045

>  <Target Name>
Cytochrome P450 3A4

>  <Target Organism>
Homo sapiens

>  <Target Description>
Target is a single protein chain

>  <Sequence Accession>
P08684

>  <Reference>
J Med Chem 57 (23), 10192-10197 (2014)

>  <Pubmed ID>
25423411

>  <DOI>
10.1021/jm501375c

$$$$
1828549
Actelion Java MolfileCreator 1.0

 30 33  0  0  0  0  0  0  0  0999 V2000
    0.0000   -0.0000   -0.0000 S   0  0  0  0  0  0  0  0  0  0  0  0
   -0.6169   -1.0523   -0.0000 O   0  0  0  0  0  0  0  0  0  0  0  0
   -1.2458   -0.0000   -0.0000 O   0  0  0  0  0  0  0  0  0  0  0  0
   -0.7862    1.3305   -0.0000 C   0  0  0  0  0  0  0  0  0  0  0  0
    1.5240    0.0242   -0.0000 C   0  0  0  0  0  0  0  0  0  0  0  0
   -0.0363    2.6731   -0.0000 C   0  0  0  0  0  0  0  0  0  0  0  0
   -2.3344    1.3305   -0.0000 C   0  0  0  0  0  0  0  0  0  0  0  0
    2.3828    1.2821   -0.0000 C   0  0  0  0  0  0  0  0  0  0  0  0
    2.4070   -1.1974   -0.0000 C   0  0  0  0  0  0  0  0  0  0  0  0
   -0.8225    4.0036   -0.0000 C   0  0  0  0  0  0  0  0  0  0  0  0
   -3.1206    2.6610   -0.0000 C   0  0  0  0  0  0  0  0  0  0  0  0
    3.8342    0.8346   -0.0000 N   0  0  0  0  0  0  0  0  0  0  0  0
    3.8463   -0.7015   -0.0000 N   0  0  0  0  0  0  0  0  0  0  0  0
   -2.3707    4.0036   -0.0000 C   0  0  0  0  0  0  0  0  0  0  0  0
    5.0801   -1.5845   -0.0000 C   0  0  0  0  0  0  0  0  0  0  0  0
   -3.1690    5.3341   -0.0000 C   0  0  0  0  0  0  0  0  0  0  0  0
    6.4711   -0.9313   -0.0000 C   0  0  0  0  0  0  0  0  0  0  0  0
   -4.7172    5.3341   -0.0000 N   0  0  0  0  0  0  0  0  0  0  0  0
    7.4629   -1.6329   -0.0000 C   0  0  0  0  0  0  0  0  0  0  0  0
   -5.5155    6.6646   -0.0000 C   0  0  0  0  0  0  0  0  0  0  0  0
   -4.9228    7.7411   -0.0000 O   0  0  0  0  0  0  0  0  0  0  0  0
   -7.0637    6.6646   -0.0000 C   0  0  0  0  0  0  0  0  0  0  0  0
   -7.9709    7.8862   -0.0000 O   0  0  0  0  0  0  0  0  0  0  0  0
   -7.9709    5.4308   -0.0000 C   0  0  0  0  0  0  0  0  0  0  0  0
   -9.4344    7.4266   -0.0000 C   0  0  0  0  0  0  0  0  0  0  0  0
   -9.4344    5.9147   -0.0000 C   0  0  0  0  0  0  0  0  0  0  0  0
  -10.7770    8.2249   -0.0000 C   0  0  0  0  0  0  0  0  0  0  0  0
  -10.7770    5.1406   -0.0000 C   0  0  0  0  0  0  0  0  0  0  0  0
  -12.1317    7.4508   -0.0000 N   0  0  0  0  0  0  0  0  0  0  0  0
  -12.1317    5.9389   -0.0000 C   0  0  0  0  0  0  0  0  0  0  0  0
  1  2  2  0  0  0  0
  1  3  2  0  0  0  0
  1  4  1  0  0  0  0
  1  5  1  0  0  0  0
  4  6  2  0  0  0  0
  4  7  1  0  0  0  0
  5  8  1  0  0  0  0
  5  9  2  0  0  0  0
  6 10  1  0  0  0  0
  7 11  2  0  0  0  0
  8 12  2  0  0  0  0
  9 13  1  0  0  0  0
 10 14  2  0  0  0  0
 13 15  1  0  0  0  0
 14 16  1  0  0  0  0
 15 17  1  0  0  0  0
 16 18  1  0  0  0  0
 17 19  1  0  0  0  0
 18 20  1  0  0  0  0
 20 21  2  0  0  0  0
 20 22  1  0  0  0  0
 22 23  1  0  0  0  0
 22 24  2  0  0  0  0
 23 25  1  0  0  0  0
 24 26  1  0  0  0  0
 25 27  1  0  0  0  0
 26 28  1  0  0  0  0
 27 29  2  0  0  0  0
 28 30  2  0  0  0  0
 11 14  1  0  0  0  0
 12 13  1  0  0  0  0
 25 26  2  0  0  0  0
 29 30  1  0  0  0  0
M  END
>  <MolRegNo>
1828549

>  <m>
=

>  <Value>
5700

>  <Unit>
nM

>  <Type>
IC50

>  <pValue>
5.24

>  <Ligand Efficiency>
0

>  <Binding Efficiency>
0

>  <Surface Efficiency>
0

>  <Assay Index>
907635

>  <Assay Category>


>  <Assay Organism>
Homo sapiens

>  <Target ID>
17045

>  <Target Name>
Cytochrome P450 3A4

>  <Target Organism>
Homo sapiens

>  <Target Description>
Target is a single protein chain

>  <Sequence Accession>
P08684

>  <Reference>
Bioorg Med Chem Lett 25 (3), 529-541 (2015)

>  <Pubmed ID>
25556090

>  <DOI>
10.1016/j.bmcl.2014.12.026

$$$$
1581804
Actelion Java MolfileCreator 1.0

 35 40  0  0  0  0  0  0  0  0999 V2000
    0.0000   -0.0000   -0.0000 O   0  0  0  0  0  0  0  0  0  0  0  0
    0.7475   -1.2934   -0.0000 C   0  0  0  0  0  0  0  0  0  0  0  0
    2.2426   -1.2696   -0.0000 N   0  0  0  0  0  0  0  0  0  0  0  0
   -0.0119   -2.5867   -0.0000 C   0  0  0  0  0  0  0  0  0  0  0  0
    2.9901   -2.5630   -0.0000 C   0  0  0  0  0  0  0  0  0  0  0  0
    2.9783    0.0475   -0.0000 C   0  0  0  0  0  0  0  0  0  0  0  0
   -1.5307   -2.5867   -0.0000 C   0  0  0  0  0  0  0  0  0  0  0  0
    4.4852   -2.5392   -0.0000 C   0  0  0  0  0  0  0  0  0  0  0  0
    4.4733    0.0593   -0.0000 C   0  0  0  0  0  0  0  0  0  0  0  0
   -2.2901   -1.2696   -0.0000 C   0  0  0  0  0  0  0  0  0  0  0  0
   -2.2782   -3.8801   -0.0000 C   0  0  0  0  0  0  0  0  0  0  0  0
    5.2209   -1.2222   -0.0000 C   0  0  0  0  0  0  0  0  0  0  0  0
   -3.8089   -1.2696   -0.0000 C   0  0  0  0  0  0  0  0  0  0  0  0
   -3.7970   -3.8801   -0.0000 C   0  0  0  0  0  0  0  0  0  0  0  0
    6.2769   -2.2663   -0.0000 C   0  0  0  0  0  0  0  0  0  0  0  0
    6.2651   -0.1424   -0.0000 C   0  0  0  0  0  0  0  0  0  0  0  0
   -4.5683   -2.5630   -0.0000 C   0  0  0  0  0  0  0  0  0  0  0  0
    7.3211   -1.1866   -0.0000 N   0  0  0  0  0  0  0  0  0  0  0  0
   -6.0871   -2.5630   -0.0000 O   0  0  0  0  0  0  0  0  0  0  0  0
    8.8162   -1.1628   -0.0000 C   0  0  0  0  0  0  0  0  0  0  0  0
   -6.8583   -1.2459   -0.0000 C   0  0  0  0  0  0  0  0  0  0  0  0
    9.6942   -2.3613   -0.0000 C   0  0  0  0  0  0  0  0  0  0  0  0
    9.6824    0.0831   -0.0000 C   0  0  0  0  0  0  0  0  0  0  0  0
   11.1062   -1.8748   -0.0000 C   0  0  0  0  0  0  0  0  0  0  0  0
    9.3739   -3.8207   -0.0000 C   0  0  0  0  0  0  0  0  0  0  0  0
   11.1062   -0.3678   -0.0000 C   0  0  0  0  0  0  0  0  0  0  0  0
   12.2097   -2.8596   -0.0000 C   0  0  0  0  0  0  0  0  0  0  0  0
   10.4892   -4.8056   -0.0000 C   0  0  0  0  0  0  0  0  0  0  0  0
   11.9012   -4.3191   -0.0000 C   0  0  0  0  0  0  0  0  0  0  0  0
   13.0166   -5.3039   -0.0000 C   0  0  0  0  0  0  0  0  0  0  0  0
   12.6962   -6.7753   -0.0000 N   0  0  0  0  0  0  0  0  0  0  0  0
   14.4286   -4.8175   -0.0000 N   0  0  0  0  0  0  0  0  0  0  0  0
   13.8116   -7.7601   -0.0000 C   0  0  0  0  0  0  0  0  0  0  0  0
   15.5440   -5.8023   -0.0000 C   0  0  0  0  0  0  0  0  0  0  0  0
   15.2355   -7.2736   -0.0000 C   0  0  0  0  0  0  0  0  0  0  0  0
  1  2  2  0  0  0  0
  2  3  1  0  0  0  0
  2  4  1  0  0  0  0
  3  5  1  0  0  0  0
  3  6  1  0  0  0  0
  4  7  1  0  0  0  0
  5  8  1  0  0  0  0
  6  9  1  0  0  0  0
  7 10  2  0  0  0  0
  7 11  1  0  0  0  0
  8 12  1  0  0  0  0
 10 13  1  0  0  0  0
 11 14  2  0  0  0  0
 12 15  1  0  0  0  0
 12 16  1  0  0  0  0
 13 17  2  0  0  0  0
 15 18  1  0  0  0  0
 17 19  1  0  0  0  0
 20 18  1  1  0  0  0
 19 21  1  0  0  0  0
 20 22  1  0  0  0  0
 20 23  1  0  0  0  0
 22 24  2  0  0  0  0
 22 25  1  0  0  0  0
 23 26  1  0  0  0  0
 24 27  1  0  0  0  0
 25 28  2  0  0  0  0
 27 29  2  0  0  0  0
 29 30  1  0  0  0  0
 30 31  2  0  0  0  0
 30 32  1  0  0  0  0
 31 33  1  0  0  0  0
 32 34  2  0  0  0  0
 33 35  2  0  0  0  0
  9 12  1  0  0  0  0
 14 17  1  0  0  0  0
 16 18  1  0  0  0  0
 24 26  1  0  0  0  0
 28 29  1  0  0  0  0
 34 35  1  0  0  0  0
M  END
>  <MolRegNo>
1581804

>  <m>
=

>  <Value>
2500

>  <Unit>
nM

>  <Type>
IC50

>  <pValue>
5.6

>  <Ligand Efficiency>
0

>  <Binding Efficiency>
0

>  <Surface Efficiency>
0

>  <Assay Index>
907446

>  <Assay Category>


>  <Assay Organism>
Homo sapiens

>  <Target ID>
17045

>  <Target Name>
Cytochrome P450 3A4

>  <Target Organism>
Homo sapiens

>  <Target Description>
Target is a single protein chain

>  <Sequence Accession>
P08684

>  <Reference>
ACS Med Chem Lett 6 (2), 156-161 (2015)

>  <Pubmed ID>
25699143

>  <DOI>
10.1021/ml500414n

$$$$
1828662
Actelion Java MolfileCreator 1.0

 32 36  0  0  1  0  0  0  0  0999 V2000
    0.0000   -0.0000   -0.0000 F   0  0  0  0  0  0  0  0  0  0  0  0
    1.0508   -0.6039   -0.0000 C   0  0  0  0  0  0  0  0  0  0  0  0
    2.3672    0.1691   -0.0000 C   0  0  0  0  0  0  0  0  0  0  0  0
    1.0387   -2.1257   -0.0000 C   0  0  0  0  0  0  0  0  0  0  0  0
    2.3551    1.7150   -0.0000 N   0  0  0  0  0  0  0  0  0  0  0  0
    3.6837   -0.5797   -0.0000 C   0  0  0  0  0  0  0  0  0  0  0  0
    2.3551   -2.8745   -0.0000 C   0  0  0  0  0  0  0  0  0  0  0  0
    3.6716    2.4880   -0.0000 C   0  0  0  0  0  0  0  0  0  0  0  0
    5.0001    0.1932   -0.0000 C   0  0  0  0  0  0  0  0  0  0  0  0
    3.6716   -2.1015   -0.0000 C   0  0  0  0  0  0  0  0  0  0  0  0
    4.9881    1.7392   -0.0000 C   0  0  0  0  0  0  0  0  0  0  0  0
    6.3166   -0.5556   -0.0000 O   0  0  0  0  0  0  0  0  0  0  0  0
    7.6331    0.2295   -0.0000 C   0  0  0  0  0  0  0  0  0  0  0  0
    8.9495   -0.5193   -0.0000 C   0  0  0  0  0  0  0  0  0  0  0  0
    7.6210    1.7754   -0.0000 C   0  0  0  0  0  0  0  0  0  0  0  0
   10.2660    0.2657   -0.0000 N   0  0  0  0  0  0  0  0  0  0  0  0
    8.9375    2.5605   -0.0000 C   0  0  0  0  0  0  0  0  0  0  0  0
   11.5825   -0.4831   -0.0000 C   0  0  0  0  0  0  0  0  0  0  0  0
   10.2539    1.8116   -0.0000 C   0  0  0  0  0  0  0  0  0  0  0  0
   12.6332    0.1449   -0.0000 O   0  0  0  0  0  0  0  0  0  0  0  0
   11.5704   -2.0049   -0.0000 C   0  0  0  0  0  0  0  0  0  0  0  0
   11.3047    2.4397   -0.0000 C   0  0  0  0  0  0  0  0  0  0  0  0
   12.8868   -2.7537   -0.0000 C   0  0  0  0  0  0  0  0  0  0  0  0
   10.2298   -2.7537   -0.0000 C   0  0  0  0  0  0  0  0  0  0  0  0
   14.2033   -1.9807   -0.0000 N   0  0  0  0  0  0  0  0  0  0  0  0
   12.8748   -4.2755   -0.0000 C   0  0  0  0  0  0  0  0  0  0  0  0
   10.2177   -4.2755   -0.0000 C   0  0  0  0  0  0  0  0  0  0  0  0
   14.3362   -0.4590   -0.0000 N   0  0  0  0  0  0  0  0  0  0  0  0
   15.5681   -2.6088   -0.0000 N   0  0  0  0  0  0  0  0  0  0  0  0
   11.5341   -5.0243   -0.0000 C   0  0  0  0  0  0  0  0  0  0  0  0
   15.8217   -0.1329   -0.0000 C   0  0  0  0  0  0  0  0  0  0  0  0
   16.5826   -1.4614   -0.0000 C   0  0  0  0  0  0  0  0  0  0  0  0
  1  2  1  0  0  0  0
  2  3  1  0  0  0  0
  2  4  2  0  0  0  0
  3  5  2  0  0  0  0
  3  6  1  0  0  0  0
  4  7  1  0  0  0  0
  5  8  1  0  0  0  0
  6  9  2  0  0  0  0
  6 10  1  0  0  0  0
  8 11  2  0  0  0  0
  9 12  1  0  0  0  0
 13 12  1  6  0  0  0
 13 14  1  0  0  0  0
 13 15  1  0  0  0  0
 14 16  1  0  0  0  0
 15 17  1  0  0  0  0
 16 18  1  0  0  0  0
 16 19  1  0  0  0  0
 18 20  2  0  0  0  0
 18 21  1  0  0  0  0
 19 22  1  1  0  0  0
 21 23  2  0  0  0  0
 21 24  1  0  0  0  0
 23 25  1  0  0  0  0
 23 26  1  0  0  0  0
 24 27  2  0  0  0  0
 25 28  1  0  0  0  0
 25 29  1  0  0  0  0
 26 30  2  0  0  0  0
 28 31  2  0  0  0  0
 29 32  2  0  0  0  0
  7 10  2  0  0  0  0
  9 11  1  0  0  0  0
 17 19  1  0  0  0  0
 27 30  1  0  0  0  0
 31 32  1  0  0  0  0
M  END
>  <MolRegNo>
1828662

>  <m>
=

>  <Value>
25400

>  <Unit>
nM

>  <Type>
IC50

>  <pValue>
4.59

>  <Ligand Efficiency>
0

>  <Binding Efficiency>
0

>  <Surface Efficiency>
0

>  <Assay Index>
907793

>  <Assay Category>


>  <Assay Organism>
Homo sapiens

>  <Target ID>
17045

>  <Target Name>
Cytochrome P450 3A4

>  <Target Organism>
Homo sapiens

>  <Target Description>
Target is a single protein chain

>  <Sequence Accession>
P08684

>  <Reference>
Bioorg Med Chem Lett 25 (3), 444-450 (2015)

>  <Pubmed ID>
25577040

>  <DOI>
10.1016/j.bmcl.2014.12.056

$$$$
1030961
Actelion Java MolfileCreator 1.0

 23 25  0  0  0  0  0  0  0  0999 V2000
    0.0000   -0.0000   -0.0000 O   0  0  0  0  0  0  0  0  0  0  0  0
    1.2953   -0.7368   -0.0000 C   0  0  0  0  0  0  0  0  0  0  0  0
    1.2835   -2.2342   -0.0000 N   0  0  0  0  0  0  0  0  0  0  0  0
    2.5907    0.0238   -0.0000 C   0  0  0  0  0  0  0  0  0  0  0  0
   -0.0357   -2.9828   -0.0000 C   0  0  0  0  0  0  0  0  0  0  0  0
    2.5788    1.5449   -0.0000 C   0  0  0  0  0  0  0  0  0  0  0  0
    3.8860   -0.7130   -0.0000 C   0  0  0  0  0  0  0  0  0  0  0  0
   -0.0475   -4.4802   -0.0000 C   0  0  0  0  0  0  0  0  0  0  0  0
    3.8741    2.3055   -0.0000 C   0  0  0  0  0  0  0  0  0  0  0  0
    5.1814    0.0475   -0.0000 C   0  0  0  0  0  0  0  0  0  0  0  0
   -1.3666   -5.2170   -0.0000 C   0  0  0  0  0  0  0  0  0  0  0  0
    1.2478   -5.2170   -0.0000 C   0  0  0  0  0  0  0  0  0  0  0  0
    5.1695    1.5687   -0.0000 C   0  0  0  0  0  0  0  0  0  0  0  0
   -1.3785   -6.7144   -0.0000 C   0  0  0  0  0  0  0  0  0  0  0  0
    1.2359   -6.7144   -0.0000 C   0  0  0  0  0  0  0  0  0  0  0  0
    6.4648    2.3292   -0.0000 O   0  0  0  0  0  0  0  0  0  0  0  0
   -0.0832   -7.4512   -0.0000 N   0  0  0  0  0  0  0  0  0  0  0  0
    7.7602    1.5924   -0.0000 C   0  0  0  0  0  0  0  0  0  0  0  0
    9.0555    2.3530   -0.0000 C   0  0  0  0  0  0  0  0  0  0  0  0
    7.7483    0.0951   -0.0000 C   0  0  0  0  0  0  0  0  0  0  0  0
   10.3508    1.6162   -0.0000 C   0  0  0  0  0  0  0  0  0  0  0  0
    9.0436   -0.6417   -0.0000 C   0  0  0  0  0  0  0  0  0  0  0  0
   10.3389    0.1188   -0.0000 C   0  0  0  0  0  0  0  0  0  0  0  0
  1  2  2  0  0  0  0
  2  3  1  0  0  0  0
  2  4  1  0  0  0  0
  3  5  1  0  0  0  0
  4  6  2  0  0  0  0
  4  7  1  0  0  0  0
  5  8  1  0  0  0  0
  6  9  1  0  0  0  0
  7 10  2  0  0  0  0
  8 11  2  0  0  0  0
  8 12  1  0  0  0  0
  9 13  2  0  0  0  0
 11 14  1  0  0  0  0
 12 15  2  0  0  0  0
 13 16  1  0  0  0  0
 14 17  2  0  0  0  0
 16 18  1  0  0  0  0
 18 19  2  0  0  0  0
 18 20  1  0  0  0  0
 19 21  1  0  0  0  0
 20 22  2  0  0  0  0
 21 23  2  0  0  0  0
 10 13  1  0  0  0  0
 15 17  1  0  0  0  0
 22 23  1  0  0  0  0
M  END
>  <MolRegNo>
1030961

>  <m>
=

>  <Value>
1000

>  <Unit>
nM

>  <Type>
IC50

>  <pValue>
6

>  <Ligand Efficiency>
0

>  <Binding Efficiency>
0

>  <Surface Efficiency>
0

>  <Assay Index>
906323

>  <Assay Category>


>  <Assay Organism>
Homo sapiens

>  <Target ID>
17045

>  <Target Name>
Cytochrome P450 3A4

>  <Target Organism>
Homo sapiens

>  <Target Description>
Target is a single protein chain

>  <Sequence Accession>
P08684

>  <Reference>
J Med Chem 58 (1), 278-293 (2015)

>  <Pubmed ID>
25255283

>  <DOI>
10.1021/jm501038s

$$$$
851342
Actelion Java MolfileCreator 1.0

 24 26  0  0  0  0  0  0  0  0999 V2000
    0.0000   -0.0000   -0.0000 O   0  0  0  0  0  0  0  0  0  0  0  0
    1.2953   -0.7368   -0.0000 C   0  0  0  0  0  0  0  0  0  0  0  0
    1.2834   -2.2341   -0.0000 N   0  0  0  0  0  0  0  0  0  0  0  0
    2.5905    0.0238   -0.0000 C   0  0  0  0  0  0  0  0  0  0  0  0
   -0.0356   -2.9827   -0.0000 C   0  0  0  0  0  0  0  0  0  0  0  0
    2.5787    1.5448   -0.0000 C   0  0  0  0  0  0  0  0  0  0  0  0
    3.8858   -0.7130   -0.0000 C   0  0  0  0  0  0  0  0  0  0  0  0
   -0.0475   -4.4800   -0.0000 C   0  0  0  0  0  0  0  0  0  0  0  0
    3.8739    2.3054   -0.0000 C   0  0  0  0  0  0  0  0  0  0  0  0
    5.1811    0.0475   -0.0000 C   0  0  0  0  0  0  0  0  0  0  0  0
   -1.3666   -5.2286   -0.0000 C   0  0  0  0  0  0  0  0  0  0  0  0
    1.2477   -5.2286   -0.0000 C   0  0  0  0  0  0  0  0  0  0  0  0
    5.1692    1.5686   -0.0000 C   0  0  0  0  0  0  0  0  0  0  0  0
   -1.3785   -6.7259   -0.0000 C   0  0  0  0  0  0  0  0  0  0  0  0
    1.2359   -6.7259   -0.0000 C   0  0  0  0  0  0  0  0  0  0  0  0
    6.4645    2.3291   -0.0000 O   0  0  0  0  0  0  0  0  0  0  0  0
   -0.0832   -7.4627   -0.0000 N   0  0  0  0  0  0  0  0  0  0  0  0
    7.7598    1.5924   -0.0000 C   0  0  0  0  0  0  0  0  0  0  0  0
    9.0550    2.3529   -0.0000 C   0  0  0  0  0  0  0  0  0  0  0  0
    7.7479    0.0951   -0.0000 C   0  0  0  0  0  0  0  0  0  0  0  0
   10.3503    1.6161   -0.0000 C   0  0  0  0  0  0  0  0  0  0  0  0
    9.0432   -0.6417   -0.0000 C   0  0  0  0  0  0  0  0  0  0  0  0
   10.3384    0.1188   -0.0000 C   0  0  0  0  0  0  0  0  0  0  0  0
   11.6337   -0.6179   -0.0000 C   0  0  0  0  0  0  0  0  0  0  0  0
  1  2  2  0  0  0  0
  2  3  1  0  0  0  0
  2  4  1  0  0  0  0
  3  5  1  0  0  0  0
  4  6  2  0  0  0  0
  4  7  1  0  0  0  0
  5  8  1  0  0  0  0
  6  9  1  0  0  0  0
  7 10  2  0  0  0  0
  8 11  2  0  0  0  0
  8 12  1  0  0  0  0
  9 13  2  0  0  0  0
 11 14  1  0  0  0  0
 12 15  2  0  0  0  0
 13 16  1  0  0  0  0
 14 17  2  0  0  0  0
 16 18  1  0  0  0  0
 18 19  2  0  0  0  0
 18 20  1  0  0  0  0
 19 21  1  0  0  0  0
 20 22  2  0  0  0  0
 21 23  2  0  0  0  0
 23 24  1  0  0  0  0
 10 13  1  0  0  0  0
 15 17  1  0  0  0  0
 22 23  1  0  0  0  0
M  END
>  <MolRegNo>
851342

>  <m>
=

>  <Value>
1000

>  <Unit>
nM

>  <Type>
IC50

>  <pValue>
6

>  <Ligand Efficiency>
0

>  <Binding Efficiency>
0

>  <Surface Efficiency>
0

>  <Assay Index>
906323

>  <Assay Category>


>  <Assay Organism>
Homo sapiens

>  <Target ID>
17045

>  <Target Name>
Cytochrome P450 3A4

>  <Target Organism>
Homo sapiens

>  <Target Description>
Target is a single protein chain

>  <Sequence Accession>
P08684

>  <Reference>
J Med Chem 58 (1), 278-293 (2015)

>  <Pubmed ID>
25255283

>  <DOI>
10.1021/jm501038s

$$$$
1827094
Actelion Java MolfileCreator 1.0

 24 26  0  0  0  0  0  0  0  0999 V2000
    0.0000   -0.0000   -0.0000 Cl  0  0  0  0  0  0  0  0  0  0  0  0
    1.0494    0.6273   -0.0000 C   0  0  0  0  0  0  0  0  0  0  0  0
    1.0374    2.1713   -0.0000 C   0  0  0  0  0  0  0  0  0  0  0  0
    2.3643   -0.1206   -0.0000 C   0  0  0  0  0  0  0  0  0  0  0  0
    2.3522    2.9553   -0.0000 C   0  0  0  0  0  0  0  0  0  0  0  0
    3.6791    0.6634   -0.0000 C   0  0  0  0  0  0  0  0  0  0  0  0
    3.6670    2.2075   -0.0000 C   0  0  0  0  0  0  0  0  0  0  0  0
    4.9818    2.9915   -0.0000 O   0  0  0  0  0  0  0  0  0  0  0  0
    6.2967    2.2436   -0.0000 C   0  0  0  0  0  0  0  0  0  0  0  0
    7.6115    3.0156   -0.0000 C   0  0  0  0  0  0  0  0  0  0  0  0
    6.2846    0.7238   -0.0000 C   0  0  0  0  0  0  0  0  0  0  0  0
    8.9263    2.2678   -0.0000 C   0  0  0  0  0  0  0  0  0  0  0  0
    7.5994   -0.0241   -0.0000 C   0  0  0  0  0  0  0  0  0  0  0  0
    8.9142    0.7479   -0.0000 C   0  0  0  0  0  0  0  0  0  0  0  0
   10.2291   -0.0121   -0.0000 C   0  0  0  0  0  0  0  0  0  0  0  0
   11.2785    0.6152   -0.0000 O   0  0  0  0  0  0  0  0  0  0  0  0
   10.2170   -1.5319   -0.0000 N   0  0  0  0  0  0  0  0  0  0  0  0
   11.5318   -2.2919   -0.0000 C   0  0  0  0  0  0  0  0  0  0  0  0
   11.5198   -3.8118   -0.0000 C   0  0  0  0  0  0  0  0  0  0  0  0
   12.8346   -4.5717   -0.0000 C   0  0  0  0  0  0  0  0  0  0  0  0
   10.1808   -4.5597   -0.0000 C   0  0  0  0  0  0  0  0  0  0  0  0
   12.8225   -6.0916   -0.0000 C   0  0  0  0  0  0  0  0  0  0  0  0
   10.1688   -6.0795   -0.0000 C   0  0  0  0  0  0  0  0  0  0  0  0
   11.4836   -6.8395   -0.0000 N   0  0  0  0  0  0  0  0  0  0  0  0
  1  2  1  0  0  0  0
  2  3  2  0  0  0  0
  2  4  1  0  0  0  0
  3  5  1  0  0  0  0
  4  6  2  0  0  0  0
  5  7  2  0  0  0  0
  7  8  1  0  0  0  0
  8  9  1  0  0  0  0
  9 10  2  0  0  0  0
  9 11  1  0  0  0  0
 10 12  1  0  0  0  0
 11 13  2  0  0  0  0
 12 14  2  0  0  0  0
 14 15  1  0  0  0  0
 15 16  2  0  0  0  0
 15 17  1  0  0  0  0
 17 18  1  0  0  0  0
 18 19  1  0  0  0  0
 19 20  2  0  0  0  0
 19 21  1  0  0  0  0
 20 22  1  0  0  0  0
 21 23  2  0  0  0  0
 22 24  2  0  0  0  0
  6  7  1  0  0  0  0
 13 14  1  0  0  0  0
 23 24  1  0  0  0  0
M  END
>  <MolRegNo>
1827094

>  <m>
=

>  <Value>
1000

>  <Unit>
nM

>  <Type>
IC50

>  <pValue>
6

>  <Ligand Efficiency>
0

>  <Binding Efficiency>
0

>  <Surface Efficiency>
0

>  <Assay Index>
906323

>  <Assay Category>


>  <Assay Organism>
Homo sapiens

>  <Target ID>
17045

>  <Target Name>
Cytochrome P450 3A4

>  <Target Organism>
Homo sapiens

>  <Target Description>
Target is a single protein chain

>  <Sequence Accession>
P08684

>  <Reference>
J Med Chem 58 (1), 278-293 (2015)

>  <Pubmed ID>
25255283

>  <DOI>
10.1021/jm501038s

$$$$
1827095
Actelion Java MolfileCreator 1.0

 24 26  0  0  0  0  0  0  0  0999 V2000
    0.0000   -0.0000   -0.0000 F   0  0  0  0  0  0  0  0  0  0  0  0
    1.0494    0.6273   -0.0000 C   0  0  0  0  0  0  0  0  0  0  0  0
    1.0374    2.1713   -0.0000 C   0  0  0  0  0  0  0  0  0  0  0  0
    2.3643   -0.1206   -0.0000 C   0  0  0  0  0  0  0  0  0  0  0  0
    2.3522    2.9553   -0.0000 C   0  0  0  0  0  0  0  0  0  0  0  0
    3.6791    0.6634   -0.0000 C   0  0  0  0  0  0  0  0  0  0  0  0
    3.6670    2.2075   -0.0000 C   0  0  0  0  0  0  0  0  0  0  0  0
    4.9818    2.9915   -0.0000 O   0  0  0  0  0  0  0  0  0  0  0  0
    6.2967    2.2436   -0.0000 C   0  0  0  0  0  0  0  0  0  0  0  0
    7.6115    3.0156   -0.0000 C   0  0  0  0  0  0  0  0  0  0  0  0
    6.2846    0.7238   -0.0000 C   0  0  0  0  0  0  0  0  0  0  0  0
    8.9263    2.2678   -0.0000 C   0  0  0  0  0  0  0  0  0  0  0  0
    7.5994   -0.0241   -0.0000 C   0  0  0  0  0  0  0  0  0  0  0  0
    8.9142    0.7479   -0.0000 C   0  0  0  0  0  0  0  0  0  0  0  0
   10.2291   -0.0121   -0.0000 C   0  0  0  0  0  0  0  0  0  0  0  0
   11.2785    0.6152   -0.0000 O   0  0  0  0  0  0  0  0  0  0  0  0
   10.2170   -1.5319   -0.0000 N   0  0  0  0  0  0  0  0  0  0  0  0
   11.5318   -2.2919   -0.0000 C   0  0  0  0  0  0  0  0  0  0  0  0
   11.5198   -3.8118   -0.0000 C   0  0  0  0  0  0  0  0  0  0  0  0
   12.8346   -4.5717   -0.0000 C   0  0  0  0  0  0  0  0  0  0  0  0
   10.1808   -4.5597   -0.0000 C   0  0  0  0  0  0  0  0  0  0  0  0
   12.8225   -6.0916   -0.0000 C   0  0  0  0  0  0  0  0  0  0  0  0
   10.1688   -6.0795   -0.0000 C   0  0  0  0  0  0  0  0  0  0  0  0
   11.4836   -6.8395   -0.0000 N   0  0  0  0  0  0  0  0  0  0  0  0
  1  2  1  0  0  0  0
  2  3  2  0  0  0  0
  2  4  1  0  0  0  0
  3  5  1  0  0  0  0
  4  6  2  0  0  0  0
  5  7  2  0  0  0  0
  7  8  1  0  0  0  0
  8  9  1  0  0  0  0
  9 10  2  0  0  0  0
  9 11  1  0  0  0  0
 10 12  1  0  0  0  0
 11 13  2  0  0  0  0
 12 14  2  0  0  0  0
 14 15  1  0  0  0  0
 15 16  2  0  0  0  0
 15 17  1  0  0  0  0
 17 18  1  0  0  0  0
 18 19  1  0  0  0  0
 19 20  2  0  0  0  0
 19 21  1  0  0  0  0
 20 22  1  0  0  0  0
 21 23  2  0  0  0  0
 22 24  2  0  0  0  0
  6  7  1  0  0  0  0
 13 14  1  0  0  0  0
 23 24  1  0  0  0  0
M  END
>  <MolRegNo>
1827095

>  <m>
=

>  <Value>
1000

>  <Unit>
nM

>  <Type>
IC50

>  <pValue>
6

>  <Ligand Efficiency>
0

>  <Binding Efficiency>
0

>  <Surface Efficiency>
0

>  <Assay Index>
906323

>  <Assay Category>


>  <Assay Organism>
Homo sapiens

>  <Target ID>
17045

>  <Target Name>
Cytochrome P450 3A4

>  <Target Organism>
Homo sapiens

>  <Target Description>
Target is a single protein chain

>  <Sequence Accession>
P08684

>  <Reference>
J Med Chem 58 (1), 278-293 (2015)

>  <Pubmed ID>
25255283

>  <DOI>
10.1021/jm501038s

$$$$
1159341
Actelion Java MolfileCreator 1.0

 25 27  0  0  0  0  0  0  0  0999 V2000
    0.0000   -0.0000   -0.0000 O   0  0  0  0  0  0  0  0  0  0  0  0
    0.7466   -1.2918   -0.0000 C   0  0  0  0  0  0  0  0  0  0  0  0
   -0.0119   -2.5835   -0.0000 N   0  0  0  0  0  0  0  0  0  0  0  0
    2.2398   -1.2799   -0.0000 C   0  0  0  0  0  0  0  0  0  0  0  0
   -1.5288   -2.5717   -0.0000 C   0  0  0  0  0  0  0  0  0  0  0  0
    2.9746   -2.5598   -0.0000 C   0  0  0  0  0  0  0  0  0  0  0  0
    2.9746    0.0237   -0.0000 C   0  0  0  0  0  0  0  0  0  0  0  0
   -2.2991   -1.2562   -0.0000 C   0  0  0  0  0  0  0  0  0  0  0  0
    4.4678   -2.5480   -0.0000 C   0  0  0  0  0  0  0  0  0  0  0  0
    4.4678    0.0356   -0.0000 C   0  0  0  0  0  0  0  0  0  0  0  0
   -1.5525    0.0593   -0.0000 C   0  0  0  0  0  0  0  0  0  0  0  0
   -3.8042   -1.2562   -0.0000 C   0  0  0  0  0  0  0  0  0  0  0  0
    5.2026   -1.2444   -0.0000 C   0  0  0  0  0  0  0  0  0  0  0  0
   -2.3228    1.3747   -0.0000 C   0  0  0  0  0  0  0  0  0  0  0  0
   -4.5745    0.0474   -0.0000 C   0  0  0  0  0  0  0  0  0  0  0  0
    6.6958   -1.2325   -0.0000 O   0  0  0  0  0  0  0  0  0  0  0  0
   -3.8397    1.3866   -0.0000 N   0  0  0  0  0  0  0  0  0  0  0  0
    7.4306   -2.5243   -0.0000 C   0  0  0  0  0  0  0  0  0  0  0  0
    8.9119   -2.5006   -0.0000 C   0  0  0  0  0  0  0  0  0  0  0  0
    6.6602   -3.8042   -0.0000 C   0  0  0  0  0  0  0  0  0  0  0  0
    9.6348   -1.1851   -0.0000 C   0  0  0  0  0  0  0  0  0  0  0  0
    9.6585   -3.7805   -0.0000 C   0  0  0  0  0  0  0  0  0  0  0  0
    7.3950   -5.0959   -0.0000 C   0  0  0  0  0  0  0  0  0  0  0  0
   10.3696    0.1304   -0.0000 N   0  0  0  0  0  0  0  0  0  0  0  0
    8.9001   -5.0841   -0.0000 C   0  0  0  0  0  0  0  0  0  0  0  0
  1  2  2  0  0  0  0
  2  3  1  0  0  0  0
  2  4  1  0  0  0  0
  3  5  1  0  0  0  0
  4  6  2  0  0  0  0
  4  7  1  0  0  0  0
  5  8  1  0  0  0  0
  6  9  1  0  0  0  0
  7 10  2  0  0  0  0
  8 11  2  0  0  0  0
  8 12  1  0  0  0  0
  9 13  2  0  0  0  0
 11 14  1  0  0  0  0
 12 15  2  0  0  0  0
 13 16  1  0  0  0  0
 14 17  2  0  0  0  0
 16 18  1  0  0  0  0
 18 19  2  0  0  0  0
 18 20  1  0  0  0  0
 19 21  1  0  0  0  0
 19 22  1  0  0  0  0
 20 23  2  0  0  0  0
 21 24  3  0  0  0  0
 22 25  2  0  0  0  0
 10 13  1  0  0  0  0
 15 17  1  0  0  0  0
 23 25  1  0  0  0  0
M  END
>  <MolRegNo>
1159341

>  <m>
=

>  <Value>
1000

>  <Unit>
nM

>  <Type>
IC50

>  <pValue>
6

>  <Ligand Efficiency>
0

>  <Binding Efficiency>
0

>  <Surface Efficiency>
0

>  <Assay Index>
906323

>  <Assay Category>


>  <Assay Organism>
Homo sapiens

>  <Target ID>
17045

>  <Target Name>
Cytochrome P450 3A4

>  <Target Organism>
Homo sapiens

>  <Target Description>
Target is a single protein chain

>  <Sequence Accession>
P08684

>  <Reference>
J Med Chem 58 (1), 278-293 (2015)

>  <Pubmed ID>
25255283

>  <DOI>
10.1021/jm501038s

$$$$
1827275
Actelion Java MolfileCreator 1.0

 34 39  0  0  0  0  0  0  0  0999 V2000
    0.0000   -0.0000   -0.0000 S   0  0  0  0  0  0  0  0  0  0  0  0
    1.5037    0.1684   -0.0000 C   0  0  0  0  0  0  0  0  0  0  0  0
   -0.9022    1.2391   -0.0000 C   0  0  0  0  0  0  0  0  0  0  0  0
    2.4661   -0.9383   -0.0000 N   0  0  0  0  0  0  0  0  0  0  0  0
    2.2375    1.4917   -0.0000 N   0  0  0  0  0  0  0  0  0  0  0  0
   -0.4451    2.6947   -0.0000 O   0  0  0  0  0  0  0  0  0  0  0  0
   -2.4300    1.2511   -0.0000 C   0  0  0  0  0  0  0  0  0  0  0  0
    3.8495   -0.3248   -0.0000 C   0  0  0  0  0  0  0  0  0  0  0  0
    3.7052    1.1789   -0.0000 C   0  0  0  0  0  0  0  0  0  0  0  0
   -1.6842    3.5849   -0.0000 C   0  0  0  0  0  0  0  0  0  0  0  0
   -2.9112    2.7067   -0.0000 C   0  0  0  0  0  0  0  0  0  0  0  0
    5.2209   -0.9624   -0.0000 C   0  0  0  0  0  0  0  0  0  0  0  0
    4.9202    2.0932   -0.0000 C   0  0  0  0  0  0  0  0  0  0  0  0
   -1.7082    5.1247   -0.0000 C   0  0  0  0  0  0  0  0  0  0  0  0
    6.4600   -0.0481   -0.0000 C   0  0  0  0  0  0  0  0  0  0  0  0
    6.3036    1.4556   -0.0000 C   0  0  0  0  0  0  0  0  0  0  0  0
   -0.4210    5.8946   -0.0000 C   0  0  0  0  0  0  0  0  0  0  0  0
   -3.0435    5.8946   -0.0000 C   0  0  0  0  0  0  0  0  0  0  0  0
   -0.4331    7.4344   -0.0000 C   0  0  0  0  0  0  0  0  0  0  0  0
    0.9022    5.1488   -0.0000 C   0  0  0  0  0  0  0  0  0  0  0  0
   -3.0556    7.4344   -0.0000 C   0  0  0  0  0  0  0  0  0  0  0  0
   -4.4992    5.4375   -0.0000 C   0  0  0  0  0  0  0  0  0  0  0  0
   -1.7443    8.2164   -0.0000 N   0  0  0  0  0  0  0  0  0  0  0  0
    0.8902    8.2164   -0.0000 C   0  0  0  0  0  0  0  0  0  0  0  0
    0.8902    3.9458   -0.0000 O   0  0  0  0  0  0  0  0  0  0  0  0
    2.2135    5.9187   -0.0000 C   0  0  0  0  0  0  0  0  0  0  0  0
   -4.5112    7.9156   -0.0000 C   0  0  0  0  0  0  0  0  0  0  0  0
   -5.4014    6.6766   -0.0000 N   0  0  0  0  0  0  0  0  0  0  0  0
    2.2015    7.4585   -0.0000 C   0  0  0  0  0  0  0  0  0  0  0  0
   -5.0044    9.3712   -0.0000 C   0  0  0  0  0  0  0  0  0  0  0  0
   -4.2104   10.2855   -0.0000 O   0  0  0  0  0  0  0  0  0  0  0  0
   -6.5081    9.6960   -0.0000 O   0  0  0  0  0  0  0  0  0  0  0  0
   -7.0014   11.1517   -0.0000 C   0  0  0  0  0  0  0  0  0  0  0  0
   -8.2043   11.4163   -0.0000 C   0  0  0  0  0  0  0  0  0  0  0  0
  1  2  1  0  0  0  0
  1  3  1  0  0  0  0
  2  4  2  0  0  0  0
  2  5  1  0  0  0  0
  3  6  1  0  0  0  0
  3  7  2  0  0  0  0
  4  8  1  0  0  0  0
  5  9  1  0  0  0  0
  6 10  1  0  0  0  0
  7 11  1  0  0  0  0
  8 12  1  0  0  0  0
  9 13  1  0  0  0  0
 10 14  1  0  0  0  0
 12 15  2  0  0  0  0
 13 16  2  0  0  0  0
 14 17  1  0  0  0  0
 14 18  1  0  0  0  0
 17 19  2  0  0  0  0
 17 20  1  0  0  0  0
 18 21  1  0  0  0  0
 18 22  2  0  0  0  0
 19 23  1  0  0  0  0
 19 24  1  0  0  0  0
 20 25  2  0  0  0  0
 20 26  1  0  0  0  0
 21 27  2  0  0  0  0
 22 28  1  0  0  0  0
 24 29  1  0  0  0  0
 27 30  1  0  0  0  0
 30 31  2  0  0  0  0
 30 32  1  0  0  0  0
 32 33  1  0  0  0  0
 33 34  1  0  0  0  0
  8  9  2  0  0  0  0
 10 11  2  0  0  0  0
 15 16  1  0  0  0  0
 21 23  1  0  0  0  0
 26 29  1  0  0  0  0
 27 28  1  0  0  0  0
M  END
>  <MolRegNo>
1827275

>  <m>
=

>  <Value>
190

>  <Unit>
nM

>  <Type>
IC50

>  <pValue>
6.72

>  <Ligand Efficiency>
0

>  <Binding Efficiency>
0

>  <Surface Efficiency>
0

>  <Assay Index>
906384

>  <Assay Category>


>  <Assay Organism>
Homo sapiens

>  <Target ID>
17045

>  <Target Name>
Cytochrome P450 3A4

>  <Target Organism>
Homo sapiens

>  <Target Description>
Target is a single protein chain

>  <Sequence Accession>
P08684

>  <Reference>
J Med Chem 58 (1), 362-375 (2015)

>  <Pubmed ID>
25369539

>  <DOI>
10.1021/jm501326k

$$$$
1827278
Actelion Java MolfileCreator 1.0

 36 39  0  0  0  0  0  0  0  0999 V2000
    0.0000   -0.0000   -0.0000 Cl  0  0  0  0  0  0  0  0  0  0  0  0
   -9.1886   -5.0119   -0.0000 S   0  0  0  0  0  0  0  0  0  0  0  0
   -7.7059   -4.8240   -0.0000 C   0  0  0  0  0  0  0  0  0  0  0  0
  -10.1074   -3.7590   -0.0000 C   0  0  0  0  0  0  0  0  0  0  0  0
   -6.7452   -5.9099   -0.0000 N   0  0  0  0  0  0  0  0  0  0  0  0
   -6.9750   -3.4875   -0.0000 N   0  0  0  0  0  0  0  0  0  0  0  0
   -9.6480   -2.2971   -0.0000 O   0  0  0  0  0  0  0  0  0  0  0  0
  -11.6528   -3.7381   -0.0000 C   0  0  0  0  0  0  0  0  0  0  0  0
   -5.3878   -5.2834   -0.0000 C   0  0  0  0  0  0  0  0  0  0  0  0
   -5.5131   -3.7798   -0.0000 C   0  0  0  0  0  0  0  0  0  0  0  0
  -10.9010   -1.3992   -0.0000 C   0  0  0  0  0  0  0  0  0  0  0  0
  -12.1331   -2.2763   -0.0000 C   0  0  0  0  0  0  0  0  0  0  0  0
   -4.0304   -5.9099   -0.0000 C   0  0  0  0  0  0  0  0  0  0  0  0
   -4.3019   -2.8610   -0.0000 C   0  0  0  0  0  0  0  0  0  0  0  0
  -10.9219    0.1462   -0.0000 C   0  0  0  0  0  0  0  0  0  0  0  0
   -2.7983   -4.9911   -0.0000 C   0  0  0  0  0  0  0  0  0  0  0  0
   -2.9236   -3.4875   -0.0000 C   0  0  0  0  0  0  0  0  0  0  0  0
   -9.6480    0.9397   -0.0000 C   0  0  0  0  0  0  0  0  0  0  0  0
  -12.2584    0.9397   -0.0000 C   0  0  0  0  0  0  0  0  0  0  0  0
   -9.6689    2.4851   -0.0000 C   0  0  0  0  0  0  0  0  0  0  0  0
   -8.3324    0.1879   -0.0000 C   0  0  0  0  0  0  0  0  0  0  0  0
  -12.2793    2.4851   -0.0000 C   0  0  0  0  0  0  0  0  0  0  0  0
  -13.7202    0.5012   -0.0000 C   0  0  0  0  0  0  0  0  0  0  0  0
  -10.9845    3.2786   -0.0000 N   0  0  0  0  0  0  0  0  0  0  0  0
   -8.3532    3.2786   -0.0000 C   0  0  0  0  0  0  0  0  0  0  0  0
   -8.3532   -1.0024   -0.0000 O   0  0  0  0  0  0  0  0  0  0  0  0
   -7.0376    0.9815   -0.0000 C   0  0  0  0  0  0  0  0  0  0  0  0
  -13.7411    2.9654   -0.0000 C   0  0  0  0  0  0  0  0  0  0  0  0
  -14.6182    1.7542   -0.0000 N   0  0  0  0  0  0  0  0  0  0  0  0
   -7.0585    2.5269   -0.0000 N   0  0  0  0  0  0  0  0  0  0  0  0
  -14.2423    4.4272   -0.0000 C   0  0  0  0  0  0  0  0  0  0  0  0
  -13.4487    5.3461   -0.0000 O   0  0  0  0  0  0  0  0  0  0  0  0
  -15.7459    4.7613   -0.0000 O   0  0  0  0  0  0  0  0  0  0  0  0
  -16.2471    6.2232   -0.0000 C   0  0  0  0  0  0  0  0  0  0  0  0
  -17.4583    6.4946   -0.0000 C   0  0  0  0  0  0  0  0  0  0  0  0
  -21.3843    0.5012   -0.0000 O   0  0  0  0  0  0  0  0  0  0  0  0
  2  3  1  0  0  0  0
  2  4  1  0  0  0  0
  3  5  2  0  0  0  0
  3  6  1  0  0  0  0
  4  7  1  0  0  0  0
  4  8  2  0  0  0  0
  5  9  1  0  0  0  0
  6 10  1  0  0  0  0
  7 11  1  0  0  0  0
  8 12  1  0  0  0  0
  9 13  1  0  0  0  0
 10 14  1  0  0  0  0
 11 15  1  0  0  0  0
 13 16  2  0  0  0  0
 14 17  2  0  0  0  0
 15 18  1  0  0  0  0
 15 19  1  0  0  0  0
 18 20  2  0  0  0  0
 18 21  1  0  0  0  0
 19 22  1  0  0  0  0
 19 23  2  0  0  0  0
 20 24  1  0  0  0  0
 20 25  1  0  0  0  0
 21 26  2  0  0  0  0
 21 27  1  0  0  0  0
 22 28  2  0  0  0  0
 23 29  1  0  0  0  0
 25 30  1  0  0  0  0
 28 31  1  0  0  0  0
 31 32  2  0  0  0  0
 31 33  1  0  0  0  0
 33 34  1  0  0  0  0
 34 35  1  0  0  0  0
  9 10  2  0  0  0  0
 11 12  2  0  0  0  0
 16 17  1  0  0  0  0
 22 24  1  0  0  0  0
 27 30  1  0  0  0  0
 28 29  1  0  0  0  0
M  END
>  <MolRegNo>
1827278

>  <m>
=

>  <Value>
170

>  <Unit>
nM

>  <Type>
IC50

>  <pValue>
6.77

>  <Ligand Efficiency>
0

>  <Binding Efficiency>
0

>  <Surface Efficiency>
0

>  <Assay Index>
906384

>  <Assay Category>


>  <Assay Organism>
Homo sapiens

>  <Target ID>
17045

>  <Target Name>
Cytochrome P450 3A4

>  <Target Organism>
Homo sapiens

>  <Target Description>
Target is a single protein chain

>  <Sequence Accession>
P08684

>  <Reference>
J Med Chem 58 (1), 362-375 (2015)

>  <Pubmed ID>
25369539

>  <DOI>
10.1021/jm501326k

$$$$
1827279
Actelion Java MolfileCreator 1.0

 35 40  0  0  0  0  0  0  0  0999 V2000
    0.0000   -0.0000   -0.0000 S   0  0  0  0  0  0  0  0  0  0  0  0
    1.5113    0.1693   -0.0000 C   0  0  0  0  0  0  0  0  0  0  0  0
   -0.9068    1.2453   -0.0000 C   0  0  0  0  0  0  0  0  0  0  0  0
    2.4785   -0.9430   -0.0000 N   0  0  0  0  0  0  0  0  0  0  0  0
    2.2488    1.4992   -0.0000 N   0  0  0  0  0  0  0  0  0  0  0  0
   -0.4473    2.7082   -0.0000 O   0  0  0  0  0  0  0  0  0  0  0  0
   -2.4422    1.2574   -0.0000 C   0  0  0  0  0  0  0  0  0  0  0  0
    3.8688   -0.3264   -0.0000 C   0  0  0  0  0  0  0  0  0  0  0  0
    3.7238    1.1848   -0.0000 C   0  0  0  0  0  0  0  0  0  0  0  0
   -1.6926    3.6029   -0.0000 C   0  0  0  0  0  0  0  0  0  0  0  0
   -2.9258    2.7203   -0.0000 C   0  0  0  0  0  0  0  0  0  0  0  0
    5.2471   -0.9672   -0.0000 C   0  0  0  0  0  0  0  0  0  0  0  0
    4.9449    2.1037   -0.0000 C   0  0  0  0  0  0  0  0  0  0  0  0
   -1.7168    5.1504   -0.0000 C   0  0  0  0  0  0  0  0  0  0  0  0
    6.4924   -0.0484   -0.0000 C   0  0  0  0  0  0  0  0  0  0  0  0
    6.3352    1.4629   -0.0000 C   0  0  0  0  0  0  0  0  0  0  0  0
   -0.4232    5.9242   -0.0000 C   0  0  0  0  0  0  0  0  0  0  0  0
   -3.0588    5.9242   -0.0000 C   0  0  0  0  0  0  0  0  0  0  0  0
    7.5926   -0.5441   -0.0000 F   0  0  0  0  0  0  0  0  0  0  0  0
   -0.4352    7.4717   -0.0000 C   0  0  0  0  0  0  0  0  0  0  0  0
    0.9068    5.1746   -0.0000 C   0  0  0  0  0  0  0  0  0  0  0  0
   -3.0709    7.4717   -0.0000 C   0  0  0  0  0  0  0  0  0  0  0  0
   -4.5217    5.4647   -0.0000 C   0  0  0  0  0  0  0  0  0  0  0  0
   -1.7531    8.2576   -0.0000 N   0  0  0  0  0  0  0  0  0  0  0  0
    0.8947    8.2576   -0.0000 C   0  0  0  0  0  0  0  0  0  0  0  0
    0.8947    3.9656   -0.0000 O   0  0  0  0  0  0  0  0  0  0  0  0
    2.2246    5.9484   -0.0000 C   0  0  0  0  0  0  0  0  0  0  0  0
   -4.5338    7.9553   -0.0000 C   0  0  0  0  0  0  0  0  0  0  0  0
   -5.4285    6.7100   -0.0000 N   0  0  0  0  0  0  0  0  0  0  0  0
    2.2125    7.4959   -0.0000 C   0  0  0  0  0  0  0  0  0  0  0  0
   -5.0295    9.4182   -0.0000 C   0  0  0  0  0  0  0  0  0  0  0  0
   -4.2316   10.3371   -0.0000 O   0  0  0  0  0  0  0  0  0  0  0  0
   -6.5408    9.7447   -0.0000 O   0  0  0  0  0  0  0  0  0  0  0  0
   -7.0365   11.2076   -0.0000 C   0  0  0  0  0  0  0  0  0  0  0  0
   -8.2455   11.4736   -0.0000 C   0  0  0  0  0  0  0  0  0  0  0  0
  1  2  1  0  0  0  0
  1  3  1  0  0  0  0
  2  4  2  0  0  0  0
  2  5  1  0  0  0  0
  3  6  1  0  0  0  0
  3  7  2  0  0  0  0
  4  8  1  0  0  0  0
  5  9  1  0  0  0  0
  6 10  1  0  0  0  0
  7 11  1  0  0  0  0
  8 12  1  0  0  0  0
  9 13  1  0  0  0  0
 10 14  1  0  0  0  0
 12 15  2  0  0  0  0
 13 16  2  0  0  0  0
 14 17  1  0  0  0  0
 14 18  1  0  0  0  0
 15 19  1  0  0  0  0
 17 20  2  0  0  0  0
 17 21  1  0  0  0  0
 18 22  1  0  0  0  0
 18 23  2  0  0  0  0
 20 24  1  0  0  0  0
 20 25  1  0  0  0  0
 21 26  2  0  0  0  0
 21 27  1  0  0  0  0
 22 28  2  0  0  0  0
 23 29  1  0  0  0  0
 25 30  1  0  0  0  0
 28 31  1  0  0  0  0
 31 32  2  0  0  0  0
 31 33  1  0  0  0  0
 33 34  1  0  0  0  0
 34 35  1  0  0  0  0
  8  9  2  0  0  0  0
 10 11  2  0  0  0  0
 15 16  1  0  0  0  0
 22 24  1  0  0  0  0
 27 30  1  0  0  0  0
 28 29  1  0  0  0  0
M  END
>  <MolRegNo>
1827279

>  <m>
=

>  <Value>
12000

>  <Unit>
nM

>  <Type>
IC50

>  <pValue>
4.92

>  <Ligand Efficiency>
0

>  <Binding Efficiency>
0

>  <Surface Efficiency>
0

>  <Assay Index>
906384

>  <Assay Category>


>  <Assay Organism>
Homo sapiens

>  <Target ID>
17045

>  <Target Name>
Cytochrome P450 3A4

>  <Target Organism>
Homo sapiens

>  <Target Description>
Target is a single protein chain

>  <Sequence Accession>
P08684

>  <Reference>
J Med Chem 58 (1), 362-375 (2015)

>  <Pubmed ID>
25369539

>  <DOI>
10.1021/jm501326k

$$$$
1827280
Actelion Java MolfileCreator 1.0

 35 40  0  0  0  0  0  0  0  0999 V2000
    0.0000   -0.0000   -0.0000 S   0  0  0  0  0  0  0  0  0  0  0  0
    1.5104    0.1692   -0.0000 C   0  0  0  0  0  0  0  0  0  0  0  0
   -0.9063    1.2446   -0.0000 C   0  0  0  0  0  0  0  0  0  0  0  0
    2.4771   -0.9425   -0.0000 N   0  0  0  0  0  0  0  0  0  0  0  0
    2.2475    1.4983   -0.0000 N   0  0  0  0  0  0  0  0  0  0  0  0
   -0.4471    2.7067   -0.0000 O   0  0  0  0  0  0  0  0  0  0  0  0
   -2.4408    1.2567   -0.0000 C   0  0  0  0  0  0  0  0  0  0  0  0
    3.8667   -0.3263   -0.0000 C   0  0  0  0  0  0  0  0  0  0  0  0
    3.7217    1.1842   -0.0000 C   0  0  0  0  0  0  0  0  0  0  0  0
   -1.6917    3.6008   -0.0000 C   0  0  0  0  0  0  0  0  0  0  0  0
   -2.9242    2.7188   -0.0000 C   0  0  0  0  0  0  0  0  0  0  0  0
    5.2442   -0.9667   -0.0000 C   0  0  0  0  0  0  0  0  0  0  0  0
    4.9421    2.1025   -0.0000 C   0  0  0  0  0  0  0  0  0  0  0  0
   -1.7158    5.1475   -0.0000 C   0  0  0  0  0  0  0  0  0  0  0  0
    6.4888   -0.0483   -0.0000 C   0  0  0  0  0  0  0  0  0  0  0  0
    4.8092    3.3350   -0.0000 F   0  0  0  0  0  0  0  0  0  0  0  0
    6.3317    1.4621   -0.0000 C   0  0  0  0  0  0  0  0  0  0  0  0
   -0.4229    5.9209   -0.0000 C   0  0  0  0  0  0  0  0  0  0  0  0
   -3.0571    5.9209   -0.0000 C   0  0  0  0  0  0  0  0  0  0  0  0
   -0.4350    7.4675   -0.0000 C   0  0  0  0  0  0  0  0  0  0  0  0
    0.9063    5.1717   -0.0000 C   0  0  0  0  0  0  0  0  0  0  0  0
   -3.0692    7.4675   -0.0000 C   0  0  0  0  0  0  0  0  0  0  0  0
   -4.5192    5.4617   -0.0000 C   0  0  0  0  0  0  0  0  0  0  0  0
   -1.7521    8.2529   -0.0000 N   0  0  0  0  0  0  0  0  0  0  0  0
    0.8942    8.2529   -0.0000 C   0  0  0  0  0  0  0  0  0  0  0  0
    0.8942    3.9633   -0.0000 O   0  0  0  0  0  0  0  0  0  0  0  0
    2.2233    5.9450   -0.0000 C   0  0  0  0  0  0  0  0  0  0  0  0
   -4.5313    7.9509   -0.0000 C   0  0  0  0  0  0  0  0  0  0  0  0
   -5.4254    6.7063   -0.0000 N   0  0  0  0  0  0  0  0  0  0  0  0
    2.2113    7.4917   -0.0000 C   0  0  0  0  0  0  0  0  0  0  0  0
   -5.0267    9.4129   -0.0000 C   0  0  0  0  0  0  0  0  0  0  0  0
   -4.2292   10.3313   -0.0000 O   0  0  0  0  0  0  0  0  0  0  0  0
   -6.5371    9.7392   -0.0000 O   0  0  0  0  0  0  0  0  0  0  0  0
   -7.0325   11.2013   -0.0000 C   0  0  0  0  0  0  0  0  0  0  0  0
   -8.2409   11.4671   -0.0000 C   0  0  0  0  0  0  0  0  0  0  0  0
  1  2  1  0  0  0  0
  1  3  1  0  0  0  0
  2  4  2  0  0  0  0
  2  5  1  0  0  0  0
  3  6  1  0  0  0  0
  3  7  2  0  0  0  0
  4  8  1  0  0  0  0
  5  9  1  0  0  0  0
  6 10  1  0  0  0  0
  7 11  1  0  0  0  0
  8 12  1  0  0  0  0
  9 13  1  0  0  0  0
 10 14  1  0  0  0  0
 12 15  2  0  0  0  0
 13 16  1  0  0  0  0
 13 17  2  0  0  0  0
 14 18  1  0  0  0  0
 14 19  1  0  0  0  0
 18 20  2  0  0  0  0
 18 21  1  0  0  0  0
 19 22  1  0  0  0  0
 19 23  2  0  0  0  0
 20 24  1  0  0  0  0
 20 25  1  0  0  0  0
 21 26  2  0  0  0  0
 21 27  1  0  0  0  0
 22 28  2  0  0  0  0
 23 29  1  0  0  0  0
 25 30  1  0  0  0  0
 28 31  1  0  0  0  0
 31 32  2  0  0  0  0
 31 33  1  0  0  0  0
 33 34  1  0  0  0  0
 34 35  1  0  0  0  0
  8  9  2  0  0  0  0
 10 11  2  0  0  0  0
 15 17  1  0  0  0  0
 22 24  1  0  0  0  0
 27 30  1  0  0  0  0
 28 29  1  0  0  0  0
M  END
>  <MolRegNo>
1827280

>  <m>
=

>  <Value>
4500

>  <Unit>
nM

>  <Type>
IC50

>  <pValue>
5.35

>  <Ligand Efficiency>
0

>  <Binding Efficiency>
0

>  <Surface Efficiency>
0

>  <Assay Index>
906384

>  <Assay Category>


>  <Assay Organism>
Homo sapiens

>  <Target ID>
17045

>  <Target Name>
Cytochrome P450 3A4

>  <Target Organism>
Homo sapiens

>  <Target Description>
Target is a single protein chain

>  <Sequence Accession>
P08684

>  <Reference>
J Med Chem 58 (1), 362-375 (2015)

>  <Pubmed ID>
25369539

>  <DOI>
10.1021/jm501326k

$$$$
1827281
Actelion Java MolfileCreator 1.0

 36 41  0  0  0  0  0  0  0  0999 V2000
    0.0000   -0.0000   -0.0000 S   0  0  0  0  0  0  0  0  0  0  0  0
    1.5181    0.1700   -0.0000 C   0  0  0  0  0  0  0  0  0  0  0  0
   -0.9108    1.2509   -0.0000 C   0  0  0  0  0  0  0  0  0  0  0  0
    2.4896   -0.9473   -0.0000 N   0  0  0  0  0  0  0  0  0  0  0  0
    2.2589    1.5059   -0.0000 N   0  0  0  0  0  0  0  0  0  0  0  0
   -0.4493    2.7204   -0.0000 O   0  0  0  0  0  0  0  0  0  0  0  0
   -2.4532    1.2630   -0.0000 C   0  0  0  0  0  0  0  0  0  0  0  0
    3.8862   -0.3279   -0.0000 C   0  0  0  0  0  0  0  0  0  0  0  0
    3.7405    1.1902   -0.0000 C   0  0  0  0  0  0  0  0  0  0  0  0
   -1.7002    3.6191   -0.0000 C   0  0  0  0  0  0  0  0  0  0  0  0
   -2.9390    2.7325   -0.0000 C   0  0  0  0  0  0  0  0  0  0  0  0
    5.2707   -0.9716   -0.0000 C   0  0  0  0  0  0  0  0  0  0  0  0
    4.9671    2.1131   -0.0000 C   0  0  0  0  0  0  0  0  0  0  0  0
   -1.7245    5.1735   -0.0000 C   0  0  0  0  0  0  0  0  0  0  0  0
    5.3679   -2.1860   -0.0000 F   0  0  0  0  0  0  0  0  0  0  0  0
    6.5216   -0.0486   -0.0000 C   0  0  0  0  0  0  0  0  0  0  0  0
    6.3637    1.4695   -0.0000 C   0  0  0  0  0  0  0  0  0  0  0  0
   -0.4251    5.9508   -0.0000 C   0  0  0  0  0  0  0  0  0  0  0  0
   -3.0726    5.9508   -0.0000 C   0  0  0  0  0  0  0  0  0  0  0  0
    7.3474    2.1982   -0.0000 F   0  0  0  0  0  0  0  0  0  0  0  0
   -0.4372    7.5053   -0.0000 C   0  0  0  0  0  0  0  0  0  0  0  0
    0.9108    5.1978   -0.0000 C   0  0  0  0  0  0  0  0  0  0  0  0
   -3.0847    7.5053   -0.0000 C   0  0  0  0  0  0  0  0  0  0  0  0
   -4.5420    5.4893   -0.0000 C   0  0  0  0  0  0  0  0  0  0  0  0
   -1.7609    8.2947   -0.0000 N   0  0  0  0  0  0  0  0  0  0  0  0
    0.8987    8.2947   -0.0000 C   0  0  0  0  0  0  0  0  0  0  0  0
    0.8987    3.9834   -0.0000 O   0  0  0  0  0  0  0  0  0  0  0  0
    2.2346    5.9751   -0.0000 C   0  0  0  0  0  0  0  0  0  0  0  0
   -4.5542    7.9911   -0.0000 C   0  0  0  0  0  0  0  0  0  0  0  0
   -5.4529    6.7402   -0.0000 N   0  0  0  0  0  0  0  0  0  0  0  0
    2.2224    7.5296   -0.0000 C   0  0  0  0  0  0  0  0  0  0  0  0
   -5.0521    9.4605   -0.0000 C   0  0  0  0  0  0  0  0  0  0  0  0
   -4.2506   10.3835   -0.0000 O   0  0  0  0  0  0  0  0  0  0  0  0
   -6.5702    9.7884   -0.0000 O   0  0  0  0  0  0  0  0  0  0  0  0
   -7.0681   11.2579   -0.0000 C   0  0  0  0  0  0  0  0  0  0  0  0
   -8.2825   11.5251   -0.0000 C   0  0  0  0  0  0  0  0  0  0  0  0
  1  2  1  0  0  0  0
  1  3  1  0  0  0  0
  2  4  2  0  0  0  0
  2  5  1  0  0  0  0
  3  6  1  0  0  0  0
  3  7  2  0  0  0  0
  4  8  1  0  0  0  0
  5  9  1  0  0  0  0
  6 10  1  0  0  0  0
  7 11  1  0  0  0  0
  8 12  1  0  0  0  0
  9 13  1  0  0  0  0
 10 14  1  0  0  0  0
 12 15  1  0  0  0  0
 12 16  2  0  0  0  0
 13 17  2  0  0  0  0
 14 18  1  0  0  0  0
 14 19  1  0  0  0  0
 17 20  1  0  0  0  0
 18 21  2  0  0  0  0
 18 22  1  0  0  0  0
 19 23  1  0  0  0  0
 19 24  2  0  0  0  0
 21 25  1  0  0  0  0
 21 26  1  0  0  0  0
 22 27  2  0  0  0  0
 22 28  1  0  0  0  0
 23 29  2  0  0  0  0
 24 30  1  0  0  0  0
 26 31  1  0  0  0  0
 29 32  1  0  0  0  0
 32 33  2  0  0  0  0
 32 34  1  0  0  0  0
 34 35  1  0  0  0  0
 35 36  1  0  0  0  0
  8  9  2  0  0  0  0
 10 11  2  0  0  0  0
 16 17  1  0  0  0  0
 23 25  1  0  0  0  0
 28 31  1  0  0  0  0
 29 30  1  0  0  0  0
M  END
>  <MolRegNo>
1827281

>  <m>
=

>  <Value>
1000

>  <Unit>
nM

>  <Type>
IC50

>  <pValue>
6

>  <Ligand Efficiency>
0

>  <Binding Efficiency>
0

>  <Surface Efficiency>
0

>  <Assay Index>
906384

>  <Assay Category>


>  <Assay Organism>
Homo sapiens

>  <Target ID>
17045

>  <Target Name>
Cytochrome P450 3A4

>  <Target Organism>
Homo sapiens

>  <Target Description>
Target is a single protein chain

>  <Sequence Accession>
P08684

>  <Reference>
J Med Chem 58 (1), 362-375 (2015)

>  <Pubmed ID>
25369539

>  <DOI>
10.1021/jm501326k

$$$$
1827282
Actelion Java MolfileCreator 1.0

 36 41  0  0  0  0  0  0  0  0999 V2000
    0.0000   -0.0000   -0.0000 S   0  0  0  0  0  0  0  0  0  0  0  0
    1.5182    0.1700   -0.0000 C   0  0  0  0  0  0  0  0  0  0  0  0
   -0.9109    1.2510   -0.0000 C   0  0  0  0  0  0  0  0  0  0  0  0
    2.4899   -0.9474   -0.0000 N   0  0  0  0  0  0  0  0  0  0  0  0
    2.2591    1.5061   -0.0000 N   0  0  0  0  0  0  0  0  0  0  0  0
   -0.4494    2.7206   -0.0000 O   0  0  0  0  0  0  0  0  0  0  0  0
   -2.4534    1.2632   -0.0000 C   0  0  0  0  0  0  0  0  0  0  0  0
    3.8866   -0.3279   -0.0000 C   0  0  0  0  0  0  0  0  0  0  0  0
    3.7409    1.1903   -0.0000 C   0  0  0  0  0  0  0  0  0  0  0  0
   -1.7004    3.6194   -0.0000 C   0  0  0  0  0  0  0  0  0  0  0  0
   -2.9393    2.7328   -0.0000 C   0  0  0  0  0  0  0  0  0  0  0  0
    5.2712   -0.9717   -0.0000 C   0  0  0  0  0  0  0  0  0  0  0  0
    4.9676    2.1134   -0.0000 C   0  0  0  0  0  0  0  0  0  0  0  0
   -1.7247    5.1741   -0.0000 C   0  0  0  0  0  0  0  0  0  0  0  0
    6.5222   -0.0486   -0.0000 C   0  0  0  0  0  0  0  0  0  0  0  0
    6.3643    1.4696   -0.0000 C   0  0  0  0  0  0  0  0  0  0  0  0
   -0.4251    5.9514   -0.0000 C   0  0  0  0  0  0  0  0  0  0  0  0
   -3.0729    5.9514   -0.0000 C   0  0  0  0  0  0  0  0  0  0  0  0
    7.6275   -0.5466   -0.0000 F   0  0  0  0  0  0  0  0  0  0  0  0
    7.3481    2.1984   -0.0000 F   0  0  0  0  0  0  0  0  0  0  0  0
   -0.4372    7.5060   -0.0000 C   0  0  0  0  0  0  0  0  0  0  0  0
    0.9109    5.1984   -0.0000 C   0  0  0  0  0  0  0  0  0  0  0  0
   -3.0850    7.5060   -0.0000 C   0  0  0  0  0  0  0  0  0  0  0  0
   -4.5425    5.4899   -0.0000 C   0  0  0  0  0  0  0  0  0  0  0  0
   -1.7611    8.2955   -0.0000 N   0  0  0  0  0  0  0  0  0  0  0  0
    0.8988    8.2955   -0.0000 C   0  0  0  0  0  0  0  0  0  0  0  0
    0.8988    3.9838   -0.0000 O   0  0  0  0  0  0  0  0  0  0  0  0
    2.2348    5.9757   -0.0000 C   0  0  0  0  0  0  0  0  0  0  0  0
   -4.5546    7.9919   -0.0000 C   0  0  0  0  0  0  0  0  0  0  0  0
   -5.4534    6.7409   -0.0000 N   0  0  0  0  0  0  0  0  0  0  0  0
    2.2227    7.5303   -0.0000 C   0  0  0  0  0  0  0  0  0  0  0  0
   -5.0526    9.4615   -0.0000 C   0  0  0  0  0  0  0  0  0  0  0  0
   -4.2510   10.3846   -0.0000 O   0  0  0  0  0  0  0  0  0  0  0  0
   -6.5708    9.7894   -0.0000 O   0  0  0  0  0  0  0  0  0  0  0  0
   -7.0688   11.2591   -0.0000 C   0  0  0  0  0  0  0  0  0  0  0  0
   -8.2834   11.5263   -0.0000 C   0  0  0  0  0  0  0  0  0  0  0  0
  1  2  1  0  0  0  0
  1  3  1  0  0  0  0
  2  4  2  0  0  0  0
  2  5  1  0  0  0  0
  3  6  1  0  0  0  0
  3  7  2  0  0  0  0
  4  8  1  0  0  0  0
  5  9  1  0  0  0  0
  6 10  1  0  0  0  0
  7 11  1  0  0  0  0
  8 12  1  0  0  0  0
  9 13  1  0  0  0  0
 10 14  1  0  0  0  0
 12 15  2  0  0  0  0
 13 16  2  0  0  0  0
 14 17  1  0  0  0  0
 14 18  1  0  0  0  0
 15 19  1  0  0  0  0
 16 20  1  0  0  0  0
 17 21  2  0  0  0  0
 17 22  1  0  0  0  0
 18 23  1  0  0  0  0
 18 24  2  0  0  0  0
 21 25  1  0  0  0  0
 21 26  1  0  0  0  0
 22 27  2  0  0  0  0
 22 28  1  0  0  0  0
 23 29  2  0  0  0  0
 24 30  1  0  0  0  0
 26 31  1  0  0  0  0
 29 32  1  0  0  0  0
 32 33  2  0  0  0  0
 32 34  1  0  0  0  0
 34 35  1  0  0  0  0
 35 36  1  0  0  0  0
  8  9  2  0  0  0  0
 10 11  2  0  0  0  0
 15 16  1  0  0  0  0
 23 25  1  0  0  0  0
 28 31  1  0  0  0  0
 29 30  1  0  0  0  0
M  END
>  <MolRegNo>
1827282

>  <m>
=

>  <Value>
8400

>  <Unit>
nM

>  <Type>
IC50

>  <pValue>
5.08

>  <Ligand Efficiency>
0

>  <Binding Efficiency>
0

>  <Surface Efficiency>
0

>  <Assay Index>
906384

>  <Assay Category>


>  <Assay Organism>
Homo sapiens

>  <Target ID>
17045

>  <Target Name>
Cytochrome P450 3A4

>  <Target Organism>
Homo sapiens

>  <Target Description>
Target is a single protein chain

>  <Sequence Accession>
P08684

>  <Reference>
J Med Chem 58 (1), 362-375 (2015)

>  <Pubmed ID>
25369539

>  <DOI>
10.1021/jm501326k

$$$$
1827283
Actelion Java MolfileCreator 1.0

 36 41  0  0  0  0  0  0  0  0999 V2000
    0.0000   -0.0000   -0.0000 S   0  0  0  0  0  0  0  0  0  0  0  0
    1.5174    0.1699   -0.0000 C   0  0  0  0  0  0  0  0  0  0  0  0
   -0.9104    1.2503   -0.0000 C   0  0  0  0  0  0  0  0  0  0  0  0
    2.4885   -0.9468   -0.0000 N   0  0  0  0  0  0  0  0  0  0  0  0
    2.2579    1.5052   -0.0000 N   0  0  0  0  0  0  0  0  0  0  0  0
   -0.4491    2.7191   -0.0000 O   0  0  0  0  0  0  0  0  0  0  0  0
   -2.4521    1.2625   -0.0000 C   0  0  0  0  0  0  0  0  0  0  0  0
    3.8845   -0.3278   -0.0000 C   0  0  0  0  0  0  0  0  0  0  0  0
    3.7388    1.1896   -0.0000 C   0  0  0  0  0  0  0  0  0  0  0  0
   -1.6995    3.6174   -0.0000 C   0  0  0  0  0  0  0  0  0  0  0  0
   -2.9376    2.7313   -0.0000 C   0  0  0  0  0  0  0  0  0  0  0  0
    5.2683   -0.9711   -0.0000 C   0  0  0  0  0  0  0  0  0  0  0  0
    4.9649    2.1122   -0.0000 C   0  0  0  0  0  0  0  0  0  0  0  0
   -1.7237    5.1712   -0.0000 C   0  0  0  0  0  0  0  0  0  0  0  0
    6.5187   -0.0486   -0.0000 C   0  0  0  0  0  0  0  0  0  0  0  0
    4.8313    3.3504   -0.0000 F   0  0  0  0  0  0  0  0  0  0  0  0
    6.3609    1.4688   -0.0000 C   0  0  0  0  0  0  0  0  0  0  0  0
   -0.4249    5.9481   -0.0000 C   0  0  0  0  0  0  0  0  0  0  0  0
   -3.0712    5.9481   -0.0000 C   0  0  0  0  0  0  0  0  0  0  0  0
    7.3441    2.1972   -0.0000 F   0  0  0  0  0  0  0  0  0  0  0  0
   -0.4370    7.5019   -0.0000 C   0  0  0  0  0  0  0  0  0  0  0  0
    0.9104    5.1955   -0.0000 C   0  0  0  0  0  0  0  0  0  0  0  0
   -3.0833    7.5019   -0.0000 C   0  0  0  0  0  0  0  0  0  0  0  0
   -4.5400    5.4868   -0.0000 C   0  0  0  0  0  0  0  0  0  0  0  0
   -1.7602    8.2910   -0.0000 N   0  0  0  0  0  0  0  0  0  0  0  0
    0.8983    8.2910   -0.0000 C   0  0  0  0  0  0  0  0  0  0  0  0
    0.8983    3.9816   -0.0000 O   0  0  0  0  0  0  0  0  0  0  0  0
    2.2336    5.9724   -0.0000 C   0  0  0  0  0  0  0  0  0  0  0  0
   -4.5521    7.9875   -0.0000 C   0  0  0  0  0  0  0  0  0  0  0  0
   -5.4504    6.7372   -0.0000 N   0  0  0  0  0  0  0  0  0  0  0  0
    2.2214    7.5262   -0.0000 C   0  0  0  0  0  0  0  0  0  0  0  0
   -5.0498    9.4563   -0.0000 C   0  0  0  0  0  0  0  0  0  0  0  0
   -4.2487   10.3789   -0.0000 O   0  0  0  0  0  0  0  0  0  0  0  0
   -6.5672    9.7841   -0.0000 O   0  0  0  0  0  0  0  0  0  0  0  0
   -7.0649   11.2529   -0.0000 C   0  0  0  0  0  0  0  0  0  0  0  0
   -8.2788   11.5199   -0.0000 C   0  0  0  0  0  0  0  0  0  0  0  0
  1  2  1  0  0  0  0
  1  3  1  0  0  0  0
  2  4  2  0  0  0  0
  2  5  1  0  0  0  0
  3  6  1  0  0  0  0
  3  7  2  0  0  0  0
  4  8  1  0  0  0  0
  5  9  1  0  0  0  0
  6 10  1  0  0  0  0
  7 11  1  0  0  0  0
  8 12  1  0  0  0  0
  9 13  1  0  0  0  0
 10 14  1  0  0  0  0
 12 15  2  0  0  0  0
 13 16  1  0  0  0  0
 13 17  2  0  0  0  0
 14 18  1  0  0  0  0
 14 19  1  0  0  0  0
 17 20  1  0  0  0  0
 18 21  2  0  0  0  0
 18 22  1  0  0  0  0
 19 23  1  0  0  0  0
 19 24  2  0  0  0  0
 21 25  1  0  0  0  0
 21 26  1  0  0  0  0
 22 27  2  0  0  0  0
 22 28  1  0  0  0  0
 23 29  2  0  0  0  0
 24 30  1  0  0  0  0
 26 31  1  0  0  0  0
 29 32  1  0  0  0  0
 32 33  2  0  0  0  0
 32 34  1  0  0  0  0
 34 35  1  0  0  0  0
 35 36  1  0  0  0  0
  8  9  2  0  0  0  0
 10 11  2  0  0  0  0
 15 17  1  0  0  0  0
 23 25  1  0  0  0  0
 28 31  1  0  0  0  0
 29 30  1  0  0  0  0
M  END
>  <MolRegNo>
1827283

>  <m>
=

>  <Value>
34000

>  <Unit>
nM

>  <Type>
IC50

>  <pValue>
4.47

>  <Ligand Efficiency>
0

>  <Binding Efficiency>
0

>  <Surface Efficiency>
0

>  <Assay Index>
906384

>  <Assay Category>


>  <Assay Organism>
Homo sapiens

>  <Target ID>
17045

>  <Target Name>
Cytochrome P450 3A4

>  <Target Organism>
Homo sapiens

>  <Target Description>
Target is a single protein chain

>  <Sequence Accession>
P08684

>  <Reference>
J Med Chem 58 (1), 362-375 (2015)

>  <Pubmed ID>
25369539

>  <DOI>
10.1021/jm501326k

$$$$
1827284
Actelion Java MolfileCreator 1.0

 37 42  0  0  0  0  0  0  0  0999 V2000
    0.0000   -0.0000   -0.0000 S   0  0  0  0  0  0  0  0  0  0  0  0
    1.5250    0.1708   -0.0000 C   0  0  0  0  0  0  0  0  0  0  0  0
   -0.9150    1.2566   -0.0000 C   0  0  0  0  0  0  0  0  0  0  0  0
    2.5010   -0.9516   -0.0000 N   0  0  0  0  0  0  0  0  0  0  0  0
    2.2692    1.5128   -0.0000 N   0  0  0  0  0  0  0  0  0  0  0  0
   -0.4514    2.7329   -0.0000 O   0  0  0  0  0  0  0  0  0  0  0  0
   -2.4644    1.2688   -0.0000 C   0  0  0  0  0  0  0  0  0  0  0  0
    3.9041   -0.3294   -0.0000 C   0  0  0  0  0  0  0  0  0  0  0  0
    3.7577    1.1956   -0.0000 C   0  0  0  0  0  0  0  0  0  0  0  0
   -1.7080    3.6357   -0.0000 C   0  0  0  0  0  0  0  0  0  0  0  0
   -2.9525    2.7451   -0.0000 C   0  0  0  0  0  0  0  0  0  0  0  0
    5.2949   -0.9760   -0.0000 C   0  0  0  0  0  0  0  0  0  0  0  0
    4.9899    2.1228   -0.0000 C   0  0  0  0  0  0  0  0  0  0  0  0
   -1.7324    5.1973   -0.0000 C   0  0  0  0  0  0  0  0  0  0  0  0
    5.3925   -2.1960   -0.0000 F   0  0  0  0  0  0  0  0  0  0  0  0
    6.5515   -0.0488   -0.0000 C   0  0  0  0  0  0  0  0  0  0  0  0
    6.3929    1.4762   -0.0000 C   0  0  0  0  0  0  0  0  0  0  0  0
   -0.4270    5.9781   -0.0000 C   0  0  0  0  0  0  0  0  0  0  0  0
   -3.0867    5.9781   -0.0000 C   0  0  0  0  0  0  0  0  0  0  0  0
    7.6617   -0.5490   -0.0000 F   0  0  0  0  0  0  0  0  0  0  0  0
    7.3811    2.2082   -0.0000 F   0  0  0  0  0  0  0  0  0  0  0  0
   -0.4392    7.5397   -0.0000 C   0  0  0  0  0  0  0  0  0  0  0  0
    0.9150    5.2217   -0.0000 C   0  0  0  0  0  0  0  0  0  0  0  0
   -3.0989    7.5397   -0.0000 C   0  0  0  0  0  0  0  0  0  0  0  0
   -4.5629    5.5145   -0.0000 C   0  0  0  0  0  0  0  0  0  0  0  0
   -1.7690    8.3328   -0.0000 N   0  0  0  0  0  0  0  0  0  0  0  0
    0.9028    8.3328   -0.0000 C   0  0  0  0  0  0  0  0  0  0  0  0
    0.9028    4.0017   -0.0000 O   0  0  0  0  0  0  0  0  0  0  0  0
    2.2448    6.0025   -0.0000 C   0  0  0  0  0  0  0  0  0  0  0  0
   -4.5751    8.0277   -0.0000 C   0  0  0  0  0  0  0  0  0  0  0  0
   -5.4779    6.7711   -0.0000 N   0  0  0  0  0  0  0  0  0  0  0  0
    2.2326    7.5641   -0.0000 C   0  0  0  0  0  0  0  0  0  0  0  0
   -5.0753    9.5040   -0.0000 C   0  0  0  0  0  0  0  0  0  0  0  0
   -4.2701   10.4312   -0.0000 O   0  0  0  0  0  0  0  0  0  0  0  0
   -6.6003    9.8334   -0.0000 O   0  0  0  0  0  0  0  0  0  0  0  0
   -7.1005   11.3096   -0.0000 C   0  0  0  0  0  0  0  0  0  0  0  0
   -8.3206   11.5780   -0.0000 C   0  0  0  0  0  0  0  0  0  0  0  0
  1  2  1  0  0  0  0
  1  3  1  0  0  0  0
  2  4  2  0  0  0  0
  2  5  1  0  0  0  0
  3  6  1  0  0  0  0
  3  7  2  0  0  0  0
  4  8  1  0  0  0  0
  5  9  1  0  0  0  0
  6 10  1  0  0  0  0
  7 11  1  0  0  0  0
  8 12  1  0  0  0  0
  9 13  1  0  0  0  0
 10 14  1  0  0  0  0
 12 15  1  0  0  0  0
 12 16  2  0  0  0  0
 13 17  2  0  0  0  0
 14 18  1  0  0  0  0
 14 19  1  0  0  0  0
 16 20  1  0  0  0  0
 17 21  1  0  0  0  0
 18 22  2  0  0  0  0
 18 23  1  0  0  0  0
 19 24  1  0  0  0  0
 19 25  2  0  0  0  0
 22 26  1  0  0  0  0
 22 27  1  0  0  0  0
 23 28  2  0  0  0  0
 23 29  1  0  0  0  0
 24 30  2  0  0  0  0
 25 31  1  0  0  0  0
 27 32  1  0  0  0  0
 30 33  1  0  0  0  0
 33 34  2  0  0  0  0
 33 35  1  0  0  0  0
 35 36  1  0  0  0  0
 36 37  1  0  0  0  0
  8  9  2  0  0  0  0
 10 11  2  0  0  0  0
 16 17  1  0  0  0  0
 24 26  1  0  0  0  0
 29 32  1  0  0  0  0
 30 31  1  0  0  0  0
M  END
>  <MolRegNo>
1827284

>  <m>
=

>  <Value>
23000

>  <Unit>
nM

>  <Type>
IC50

>  <pValue>
4.64

>  <Ligand Efficiency>
0

>  <Binding Efficiency>
0

>  <Surface Efficiency>
0

>  <Assay Index>
906384

>  <Assay Category>


>  <Assay Organism>
Homo sapiens

>  <Target ID>
17045

>  <Target Name>
Cytochrome P450 3A4

>  <Target Organism>
Homo sapiens

>  <Target Description>
Target is a single protein chain

>  <Sequence Accession>
P08684

>  <Reference>
J Med Chem 58 (1), 362-375 (2015)

>  <Pubmed ID>
25369539

>  <DOI>
10.1021/jm501326k

$$$$
1827285
Actelion Java MolfileCreator 1.0

 35 40  0  0  0  0  0  0  0  0999 V2000
    0.0000   -0.0000   -0.0000 Cl  0  0  0  0  0  0  0  0  0  0  0  0
    0.1087   -1.2080   -0.0000 C   0  0  0  0  0  0  0  0  0  0  0  0
   -1.1355   -2.1019   -0.0000 C   0  0  0  0  0  0  0  0  0  0  0  0
    1.4979   -1.8482   -0.0000 C   0  0  0  0  0  0  0  0  0  0  0  0
   -2.6334   -1.7636   -0.0000 N   0  0  0  0  0  0  0  0  0  0  0  0
   -1.0026   -3.5998   -0.0000 C   0  0  0  0  0  0  0  0  0  0  0  0
    1.6308   -3.3461   -0.0000 C   0  0  0  0  0  0  0  0  0  0  0  0
   -3.3944   -3.0683   -0.0000 C   0  0  0  0  0  0  0  0  0  0  0  0
   -2.4160   -4.1917   -0.0000 N   0  0  0  0  0  0  0  0  0  0  0  0
    0.3745   -4.2400   -0.0000 C   0  0  0  0  0  0  0  0  0  0  0  0
   -4.9286   -3.2132   -0.0000 S   0  0  0  0  0  0  0  0  0  0  0  0
   -5.8345   -1.9690   -0.0000 C   0  0  0  0  0  0  0  0  0  0  0  0
   -5.3755   -0.5074   -0.0000 O   0  0  0  0  0  0  0  0  0  0  0  0
   -7.3687   -1.9569   -0.0000 C   0  0  0  0  0  0  0  0  0  0  0  0
   -6.6197    0.3866   -0.0000 C   0  0  0  0  0  0  0  0  0  0  0  0
   -7.8519   -0.4953   -0.0000 C   0  0  0  0  0  0  0  0  0  0  0  0
   -6.6439    1.9328   -0.0000 C   0  0  0  0  0  0  0  0  0  0  0  0
   -5.3513    2.7059   -0.0000 C   0  0  0  0  0  0  0  0  0  0  0  0
   -7.9847    2.7059   -0.0000 C   0  0  0  0  0  0  0  0  0  0  0  0
   -5.3634    4.2521   -0.0000 C   0  0  0  0  0  0  0  0  0  0  0  0
   -4.0226    1.9569   -0.0000 C   0  0  0  0  0  0  0  0  0  0  0  0
   -7.9968    4.2521   -0.0000 C   0  0  0  0  0  0  0  0  0  0  0  0
   -9.4464    2.2468   -0.0000 C   0  0  0  0  0  0  0  0  0  0  0  0
   -6.6801    5.0373   -0.0000 N   0  0  0  0  0  0  0  0  0  0  0  0
   -4.0347    5.0373   -0.0000 C   0  0  0  0  0  0  0  0  0  0  0  0
   -4.0347    0.7489   -0.0000 O   0  0  0  0  0  0  0  0  0  0  0  0
   -2.7059    2.7300   -0.0000 C   0  0  0  0  0  0  0  0  0  0  0  0
   -9.4585    4.7353   -0.0000 C   0  0  0  0  0  0  0  0  0  0  0  0
  -10.3524    3.4911   -0.0000 N   0  0  0  0  0  0  0  0  0  0  0  0
   -2.7180    4.2762   -0.0000 C   0  0  0  0  0  0  0  0  0  0  0  0
   -9.9537    6.1969   -0.0000 C   0  0  0  0  0  0  0  0  0  0  0  0
   -9.1565    7.1150   -0.0000 O   0  0  0  0  0  0  0  0  0  0  0  0
  -11.4637    6.5231   -0.0000 O   0  0  0  0  0  0  0  0  0  0  0  0
  -11.9590    7.9847   -0.0000 C   0  0  0  0  0  0  0  0  0  0  0  0
  -13.1670    8.2505   -0.0000 C   0  0  0  0  0  0  0  0  0  0  0  0
  1  2  1  0  0  0  0
  2  3  2  0  0  0  0
  2  4  1  0  0  0  0
  3  5  1  0  0  0  0
  3  6  1  0  0  0  0
  4  7  2  0  0  0  0
  5  8  1  0  0  0  0
  6  9  1  0  0  0  0
  6 10  2  0  0  0  0
  8 11  1  0  0  0  0
 11 12  1  0  0  0  0
 12 13  1  0  0  0  0
 12 14  2  0  0  0  0
 13 15  1  0  0  0  0
 14 16  1  0  0  0  0
 15 17  1  0  0  0  0
 17 18  1  0  0  0  0
 17 19  1  0  0  0  0
 18 20  2  0  0  0  0
 18 21  1  0  0  0  0
 19 22  1  0  0  0  0
 19 23  2  0  0  0  0
 20 24  1  0  0  0  0
 20 25  1  0  0  0  0
 21 26  2  0  0  0  0
 21 27  1  0  0  0  0
 22 28  2  0  0  0  0
 23 29  1  0  0  0  0
 25 30  1  0  0  0  0
 28 31  1  0  0  0  0
 31 32  2  0  0  0  0
 31 33  1  0  0  0  0
 33 34  1  0  0  0  0
 34 35  1  0  0  0  0
  7 10  1  0  0  0  0
  8  9  2  0  0  0  0
 15 16  2  0  0  0  0
 22 24  1  0  0  0  0
 27 30  1  0  0  0  0
 28 29  1  0  0  0  0
M  END
>  <MolRegNo>
1827285

>  <m>
=

>  <Value>
50

>  <Unit>
nM

>  <Type>
IC50

>  <pValue>
7.3

>  <Ligand Efficiency>
0

>  <Binding Efficiency>
0

>  <Surface Efficiency>
0

>  <Assay Index>
906384

>  <Assay Category>


>  <Assay Organism>
Homo sapiens

>  <Target ID>
17045

>  <Target Name>
Cytochrome P450 3A4

>  <Target Organism>
Homo sapiens

>  <Target Description>
Target is a single protein chain

>  <Sequence Accession>
P08684

>  <Reference>
J Med Chem 58 (1), 362-375 (2015)

>  <Pubmed ID>
25369539

>  <DOI>
10.1021/jm501326k

$$$$
1827288
Actelion Java MolfileCreator 1.0

 35 40  0  0  0  0  0  0  0  0999 V2000
    0.0000   -0.0000   -0.0000 S   0  0  0  0  0  0  0  0  0  0  0  0
    1.5111    0.1692   -0.0000 C   0  0  0  0  0  0  0  0  0  0  0  0
   -0.9067    1.2452   -0.0000 C   0  0  0  0  0  0  0  0  0  0  0  0
    2.4782   -0.9429   -0.0000 N   0  0  0  0  0  0  0  0  0  0  0  0
    2.2485    1.4990   -0.0000 N   0  0  0  0  0  0  0  0  0  0  0  0
   -0.4473    2.7079   -0.0000 O   0  0  0  0  0  0  0  0  0  0  0  0
   -2.4420    1.2572   -0.0000 C   0  0  0  0  0  0  0  0  0  0  0  0
    3.8684   -0.3264   -0.0000 C   0  0  0  0  0  0  0  0  0  0  0  0
    3.7234    1.1847   -0.0000 C   0  0  0  0  0  0  0  0  0  0  0  0
   -1.6924    3.6025   -0.0000 C   0  0  0  0  0  0  0  0  0  0  0  0
   -2.9255    2.7200   -0.0000 C   0  0  0  0  0  0  0  0  0  0  0  0
    5.2466   -0.9671   -0.0000 C   0  0  0  0  0  0  0  0  0  0  0  0
    4.9444    2.1035   -0.0000 C   0  0  0  0  0  0  0  0  0  0  0  0
   -1.7166    5.1499   -0.0000 C   0  0  0  0  0  0  0  0  0  0  0  0
    5.3433   -2.1760   -0.0000 O   0  0  0  0  0  0  0  0  0  0  0  0
    6.4917   -0.0484   -0.0000 C   0  0  0  0  0  0  0  0  0  0  0  0
    6.3346    1.4628   -0.0000 C   0  0  0  0  0  0  0  0  0  0  0  0
   -0.4231    5.9236   -0.0000 C   0  0  0  0  0  0  0  0  0  0  0  0
   -3.0585    5.9236   -0.0000 C   0  0  0  0  0  0  0  0  0  0  0  0
   -0.4352    7.4709   -0.0000 C   0  0  0  0  0  0  0  0  0  0  0  0
    0.9067    5.1741   -0.0000 C   0  0  0  0  0  0  0  0  0  0  0  0
   -3.0706    7.4709   -0.0000 C   0  0  0  0  0  0  0  0  0  0  0  0
   -4.5213    5.4642   -0.0000 C   0  0  0  0  0  0  0  0  0  0  0  0
   -1.7529    8.2567   -0.0000 N   0  0  0  0  0  0  0  0  0  0  0  0
    0.8946    8.2567   -0.0000 C   0  0  0  0  0  0  0  0  0  0  0  0
    0.8946    3.9652   -0.0000 O   0  0  0  0  0  0  0  0  0  0  0  0
    2.2244    5.9477   -0.0000 C   0  0  0  0  0  0  0  0  0  0  0  0
   -4.5333    7.9545   -0.0000 C   0  0  0  0  0  0  0  0  0  0  0  0
   -5.4279    6.7093   -0.0000 N   0  0  0  0  0  0  0  0  0  0  0  0
    2.2123    7.4951   -0.0000 C   0  0  0  0  0  0  0  0  0  0  0  0
   -5.0290    9.4173   -0.0000 C   0  0  0  0  0  0  0  0  0  0  0  0
   -4.2311   10.3360   -0.0000 O   0  0  0  0  0  0  0  0  0  0  0  0
   -6.5401    9.7437   -0.0000 O   0  0  0  0  0  0  0  0  0  0  0  0
   -7.0357   11.2064   -0.0000 C   0  0  0  0  0  0  0  0  0  0  0  0
   -8.2446   11.4724   -0.0000 C   0  0  0  0  0  0  0  0  0  0  0  0
  1  2  1  0  0  0  0
  1  3  1  0  0  0  0
  2  4  2  0  0  0  0
  2  5  1  0  0  0  0
  3  6  1  0  0  0  0
  3  7  2  0  0  0  0
  4  8  1  0  0  0  0
  5  9  1  0  0  0  0
  6 10  1  0  0  0  0
  7 11  1  0  0  0  0
  8 12  1  0  0  0  0
  9 13  1  0  0  0  0
 10 14  1  0  0  0  0
 12 15  1  0  0  0  0
 12 16  2  0  0  0  0
 13 17  2  0  0  0  0
 14 18  1  0  0  0  0
 14 19  1  0  0  0  0
 18 20  2  0  0  0  0
 18 21  1  0  0  0  0
 19 22  1  0  0  0  0
 19 23  2  0  0  0  0
 20 24  1  0  0  0  0
 20 25  1  0  0  0  0
 21 26  2  0  0  0  0
 21 27  1  0  0  0  0
 22 28  2  0  0  0  0
 23 29  1  0  0  0  0
 25 30  1  0  0  0  0
 28 31  1  0  0  0  0
 31 32  2  0  0  0  0
 31 33  1  0  0  0  0
 33 34  1  0  0  0  0
 34 35  1  0  0  0  0
  8  9  2  0  0  0  0
 10 11  2  0  0  0  0
 16 17  1  0  0  0  0
 22 24  1  0  0  0  0
 27 30  1  0  0  0  0
 28 29  1  0  0  0  0
M  END
>  <MolRegNo>
1827288

>  <m>
=

>  <Value>
490

>  <Unit>
nM

>  <Type>
IC50

>  <pValue>
6.31

>  <Ligand Efficiency>
0

>  <Binding Efficiency>
0

>  <Surface Efficiency>
0

>  <Assay Index>
906384

>  <Assay Category>


>  <Assay Organism>
Homo sapiens

>  <Target ID>
17045

>  <Target Name>
Cytochrome P450 3A4

>  <Target Organism>
Homo sapiens

>  <Target Description>
Target is a single protein chain

>  <Sequence Accession>
P08684

>  <Reference>
J Med Chem 58 (1), 362-375 (2015)

>  <Pubmed ID>
25369539

>  <DOI>
10.1021/jm501326k

$$$$
1827289
Actelion Java MolfileCreator 1.0

 35 40  0  0  0  0  0  0  0  0999 V2000
    0.0000   -0.0000   -0.0000 S   0  0  0  0  0  0  0  0  0  0  0  0
    1.5111    0.1692   -0.0000 C   0  0  0  0  0  0  0  0  0  0  0  0
   -0.9067    1.2452   -0.0000 C   0  0  0  0  0  0  0  0  0  0  0  0
    2.4782   -0.9429   -0.0000 N   0  0  0  0  0  0  0  0  0  0  0  0
    2.2485    1.4990   -0.0000 N   0  0  0  0  0  0  0  0  0  0  0  0
   -0.4473    2.7079   -0.0000 O   0  0  0  0  0  0  0  0  0  0  0  0
   -2.4420    1.2572   -0.0000 C   0  0  0  0  0  0  0  0  0  0  0  0
    3.8684   -0.3264   -0.0000 C   0  0  0  0  0  0  0  0  0  0  0  0
    3.7234    1.1847   -0.0000 C   0  0  0  0  0  0  0  0  0  0  0  0
   -1.6924    3.6025   -0.0000 C   0  0  0  0  0  0  0  0  0  0  0  0
   -2.9255    2.7200   -0.0000 C   0  0  0  0  0  0  0  0  0  0  0  0
    5.2466   -0.9671   -0.0000 C   0  0  0  0  0  0  0  0  0  0  0  0
    4.9444    2.1035   -0.0000 C   0  0  0  0  0  0  0  0  0  0  0  0
   -1.7166    5.1499   -0.0000 C   0  0  0  0  0  0  0  0  0  0  0  0
    5.3433   -2.1760   -0.0000 N   0  0  0  0  0  0  0  0  0  0  0  0
    6.4917   -0.0484   -0.0000 C   0  0  0  0  0  0  0  0  0  0  0  0
    6.3346    1.4628   -0.0000 C   0  0  0  0  0  0  0  0  0  0  0  0
   -0.4231    5.9236   -0.0000 C   0  0  0  0  0  0  0  0  0  0  0  0
   -3.0585    5.9236   -0.0000 C   0  0  0  0  0  0  0  0  0  0  0  0
   -0.4352    7.4709   -0.0000 C   0  0  0  0  0  0  0  0  0  0  0  0
    0.9067    5.1741   -0.0000 C   0  0  0  0  0  0  0  0  0  0  0  0
   -3.0706    7.4709   -0.0000 C   0  0  0  0  0  0  0  0  0  0  0  0
   -4.5213    5.4642   -0.0000 C   0  0  0  0  0  0  0  0  0  0  0  0
   -1.7529    8.2567   -0.0000 N   0  0  0  0  0  0  0  0  0  0  0  0
    0.8946    8.2567   -0.0000 C   0  0  0  0  0  0  0  0  0  0  0  0
    0.8946    3.9652   -0.0000 O   0  0  0  0  0  0  0  0  0  0  0  0
    2.2244    5.9477   -0.0000 C   0  0  0  0  0  0  0  0  0  0  0  0
   -4.5333    7.9545   -0.0000 C   0  0  0  0  0  0  0  0  0  0  0  0
   -5.4279    6.7093   -0.0000 N   0  0  0  0  0  0  0  0  0  0  0  0
    2.2123    7.4951   -0.0000 C   0  0  0  0  0  0  0  0  0  0  0  0
   -5.0290    9.4173   -0.0000 C   0  0  0  0  0  0  0  0  0  0  0  0
   -4.2311   10.3360   -0.0000 O   0  0  0  0  0  0  0  0  0  0  0  0
   -6.5401    9.7437   -0.0000 O   0  0  0  0  0  0  0  0  0  0  0  0
   -7.0357   11.2064   -0.0000 C   0  0  0  0  0  0  0  0  0  0  0  0
   -8.2446   11.4724   -0.0000 C   0  0  0  0  0  0  0  0  0  0  0  0
  1  2  1  0  0  0  0
  1  3  1  0  0  0  0
  2  4  2  0  0  0  0
  2  5  1  0  0  0  0
  3  6  1  0  0  0  0
  3  7  2  0  0  0  0
  4  8  1  0  0  0  0
  5  9  1  0  0  0  0
  6 10  1  0  0  0  0
  7 11  1  0  0  0  0
  8 12  1  0  0  0  0
  9 13  1  0  0  0  0
 10 14  1  0  0  0  0
 12 15  1  0  0  0  0
 12 16  2  0  0  0  0
 13 17  2  0  0  0  0
 14 18  1  0  0  0  0
 14 19  1  0  0  0  0
 18 20  2  0  0  0  0
 18 21  1  0  0  0  0
 19 22  1  0  0  0  0
 19 23  2  0  0  0  0
 20 24  1  0  0  0  0
 20 25  1  0  0  0  0
 21 26  2  0  0  0  0
 21 27  1  0  0  0  0
 22 28  2  0  0  0  0
 23 29  1  0  0  0  0
 25 30  1  0  0  0  0
 28 31  1  0  0  0  0
 31 32  2  0  0  0  0
 31 33  1  0  0  0  0
 33 34  1  0  0  0  0
 34 35  1  0  0  0  0
  8  9  2  0  0  0  0
 10 11  2  0  0  0  0
 16 17  1  0  0  0  0
 22 24  1  0  0  0  0
 27 30  1  0  0  0  0
 28 29  1  0  0  0  0
M  END
>  <MolRegNo>
1827289

>  <m>
=

>  <Value>
80

>  <Unit>
nM

>  <Type>
IC50

>  <pValue>
7.1

>  <Ligand Efficiency>
0

>  <Binding Efficiency>
0

>  <Surface Efficiency>
0

>  <Assay Index>
906384

>  <Assay Category>


>  <Assay Organism>
Homo sapiens

>  <Target ID>
17045

>  <Target Name>
Cytochrome P450 3A4

>  <Target Organism>
Homo sapiens

>  <Target Description>
Target is a single protein chain

>  <Sequence Accession>
P08684

>  <Reference>
J Med Chem 58 (1), 362-375 (2015)

>  <Pubmed ID>
25369539

>  <DOI>
10.1021/jm501326k

$$$$
1827291
Actelion Java MolfileCreator 1.0

 39 43  0  0  0  0  0  0  0  0999 V2000
    0.0000   -0.0000   -0.0000 Cl  0  0  0  0  0  0  0  0  0  0  0  0
   -9.2183   -5.1429   -0.0000 S   0  0  0  0  0  0  0  0  0  0  0  0
   -7.7022   -4.9731   -0.0000 C   0  0  0  0  0  0  0  0  0  0  0  0
  -10.1281   -3.8935   -0.0000 C   0  0  0  0  0  0  0  0  0  0  0  0
   -6.7318   -6.0890   -0.0000 N   0  0  0  0  0  0  0  0  0  0  0  0
   -6.9623   -3.6388   -0.0000 N   0  0  0  0  0  0  0  0  0  0  0  0
   -9.6671   -2.4259   -0.0000 O   0  0  0  0  0  0  0  0  0  0  0  0
  -11.6685   -3.8814   -0.0000 C   0  0  0  0  0  0  0  0  0  0  0  0
   -5.3369   -5.4704   -0.0000 C   0  0  0  0  0  0  0  0  0  0  0  0
   -5.4825   -3.9542   -0.0000 C   0  0  0  0  0  0  0  0  0  0  0  0
  -10.9165   -1.5283   -0.0000 C   0  0  0  0  0  0  0  0  0  0  0  0
  -12.1537   -2.4138   -0.0000 C   0  0  0  0  0  0  0  0  0  0  0  0
   -3.9542   -6.1132   -0.0000 C   0  0  0  0  0  0  0  0  0  0  0  0
   -4.2574   -3.0324   -0.0000 C   0  0  0  0  0  0  0  0  0  0  0  0
  -10.9407    0.0243   -0.0000 C   0  0  0  0  0  0  0  0  0  0  0  0
   -2.7049   -5.1914   -0.0000 C   0  0  0  0  0  0  0  0  0  0  0  0
   -2.8625   -3.6752   -0.0000 C   0  0  0  0  0  0  0  0  0  0  0  0
   -9.6429    0.8005   -0.0000 C   0  0  0  0  0  0  0  0  0  0  0  0
  -12.2871    0.8005   -0.0000 C   0  0  0  0  0  0  0  0  0  0  0  0
   -9.6550    2.3531   -0.0000 C   0  0  0  0  0  0  0  0  0  0  0  0
   -8.3086    0.0485   -0.0000 C   0  0  0  0  0  0  0  0  0  0  0  0
  -12.2992    2.3531   -0.0000 C   0  0  0  0  0  0  0  0  0  0  0  0
  -13.7547    0.3396   -0.0000 C   0  0  0  0  0  0  0  0  0  0  0  0
  -10.9771    3.1415   -0.0000 N   0  0  0  0  0  0  0  0  0  0  0  0
   -8.3208    3.1415   -0.0000 C   0  0  0  0  0  0  0  0  0  0  0  0
   -8.3208   -1.1644   -0.0000 O   0  0  0  0  0  0  0  0  0  0  0  0
   -6.9865    0.8248   -0.0000 C   0  0  0  0  0  0  0  0  0  0  0  0
  -13.7669    2.8383   -0.0000 C   0  0  0  0  0  0  0  0  0  0  0  0
  -14.6644    1.5890   -0.0000 N   0  0  0  0  0  0  0  0  0  0  0  0
   -6.9987    2.3774   -0.0000 N   0  0  0  0  0  0  0  0  0  0  0  0
  -14.2642    4.3059   -0.0000 C   0  0  0  0  0  0  0  0  0  0  0  0
   -5.6887    3.1536   -0.0000 C   0  0  0  0  0  0  0  0  0  0  0  0
  -13.4636    5.2278   -0.0000 O   0  0  0  0  0  0  0  0  0  0  0  0
  -15.7804    4.6334   -0.0000 O   0  0  0  0  0  0  0  0  0  0  0  0
   -4.6334    2.5593   -0.0000 O   0  0  0  0  0  0  0  0  0  0  0  0
   -5.7008    4.7062   -0.0000 C   0  0  0  0  0  0  0  0  0  0  0  0
  -16.2777    6.1011   -0.0000 C   0  0  0  0  0  0  0  0  0  0  0  0
   -4.6456    5.3369   -0.0000 N   0  0  0  0  0  0  0  0  0  0  0  0
  -17.4906    6.3679   -0.0000 C   0  0  0  0  0  0  0  0  0  0  0  0
  2  3  1  0  0  0  0
  2  4  1  0  0  0  0
  3  5  2  0  0  0  0
  3  6  1  0  0  0  0
  4  7  1  0  0  0  0
  4  8  2  0  0  0  0
  5  9  1  0  0  0  0
  6 10  1  0  0  0  0
  7 11  1  0  0  0  0
  8 12  1  0  0  0  0
  9 13  1  0  0  0  0
 10 14  1  0  0  0  0
 15 11  1  6  0  0  0
 13 16  2  0  0  0  0
 14 17  2  0  0  0  0
 15 18  1  0  0  0  0
 15 19  1  0  0  0  0
 18 20  2  0  0  0  0
 18 21  1  0  0  0  0
 19 22  1  0  0  0  0
 19 23  2  0  0  0  0
 20 24  1  0  0  0  0
 20 25  1  0  0  0  0
 21 26  2  0  0  0  0
 21 27  1  0  0  0  0
 22 28  2  0  0  0  0
 23 29  1  0  0  0  0
 25 30  1  0  0  0  0
 28 31  1  0  0  0  0
 30 32  1  0  0  0  0
 31 33  2  0  0  0  0
 31 34  1  0  0  0  0
 32 35  2  0  0  0  0
 32 36  1  0  0  0  0
 34 37  1  0  0  0  0
 36 38  1  0  0  0  0
 37 39  1  0  0  0  0
  9 10  2  0  0  0  0
 11 12  2  0  0  0  0
 16 17  1  0  0  0  0
 22 24  1  0  0  0  0
 27 30  1  0  0  0  0
 28 29  1  0  0  0  0
M  END
>  <MolRegNo>
1827291

>  <m>
=

>  <Value>
500

>  <Unit>
nM

>  <Type>
IC50

>  <pValue>
6.3

>  <Ligand Efficiency>
0

>  <Binding Efficiency>
0

>  <Surface Efficiency>
0

>  <Assay Index>
906384

>  <Assay Category>


>  <Assay Organism>
Homo sapiens

>  <Target ID>
17045

>  <Target Name>
Cytochrome P450 3A4

>  <Target Organism>
Homo sapiens

>  <Target Description>
Target is a single protein chain

>  <Sequence Accession>
P08684

>  <Reference>
J Med Chem 58 (1), 362-375 (2015)

>  <Pubmed ID>
25369539

>  <DOI>
10.1021/jm501326k

$$$$
1829903
Actelion Java MolfileCreator 1.0

 36 40  0  0  0  0  0  0  0  0999 V2000
    0.0000   -0.0000   -0.0000 O   0  0  0  0  0  0  0  0  0  0  0  0
    1.3183   -0.7620   -0.0000 C   0  0  0  0  0  0  0  0  0  0  0  0
   -1.0764   -0.6047   -0.0000 C   0  0  0  0  0  0  0  0  0  0  0  0
    2.6366    0.0121   -0.0000 C   0  0  0  0  0  0  0  0  0  0  0  0
    1.3062   -2.2859   -0.0000 C   0  0  0  0  0  0  0  0  0  0  0  0
    2.6366    1.5602   -0.0000 N   0  0  0  0  0  0  0  0  0  0  0  0
    3.9549   -0.7499   -0.0000 C   0  0  0  0  0  0  0  0  0  0  0  0
    2.6245   -3.0478   -0.0000 C   0  0  0  0  0  0  0  0  0  0  0  0
    3.9549    2.3342   -0.0000 C   0  0  0  0  0  0  0  0  0  0  0  0
    3.9428   -2.2738   -0.0000 C   0  0  0  0  0  0  0  0  0  0  0  0
    2.6124   -4.5717   -0.0000 C   0  0  0  0  0  0  0  0  0  0  0  0
    5.2853    1.5602   -0.0000 N   0  0  0  0  0  0  0  0  0  0  0  0
    3.9428    3.8823   -0.0000 N   0  0  0  0  0  0  0  0  0  0  0  0
    1.2699   -5.3216   -0.0000 C   0  0  0  0  0  0  0  0  0  0  0  0
    3.9307   -5.3337   -0.0000 C   0  0  0  0  0  0  0  0  0  0  0  0
    6.6036    2.3584   -0.0000 N   0  0  0  0  0  0  0  0  0  0  0  0
    5.2732    4.6806   -0.0000 C   0  0  0  0  0  0  0  0  0  0  0  0
    0.1935   -4.6927   -0.0000 O   0  0  0  0  0  0  0  0  0  0  0  0
    1.2578   -6.8455   -0.0000 C   0  0  0  0  0  0  0  0  0  0  0  0
    3.9186   -6.8576   -0.0000 C   0  0  0  0  0  0  0  0  0  0  0  0
    8.0428    1.8988   -0.0000 C   0  0  0  0  0  0  0  0  0  0  0  0
    6.5915    3.9065   -0.0000 C   0  0  0  0  0  0  0  0  0  0  0  0
    2.5761   -7.6074   -0.0000 N   0  0  0  0  0  0  0  0  0  0  0  0
    8.5145    0.4475   -0.0000 C   0  0  0  0  0  0  0  0  0  0  0  0
    8.9257    3.1567   -0.0000 C   0  0  0  0  0  0  0  0  0  0  0  0
    8.0307    4.3903   -0.0000 C   0  0  0  0  0  0  0  0  0  0  0  0
    2.5640   -9.1313   -0.0000 C   0  0  0  0  0  0  0  0  0  0  0  0
    9.9779    0.0363   -0.0000 C   0  0  0  0  0  0  0  0  0  0  0  0
    7.3897   -0.6047   -0.0000 C   0  0  0  0  0  0  0  0  0  0  0  0
    1.2215   -9.8812   -0.0000 C   0  0  0  0  0  0  0  0  0  0  0  0
   11.0785    1.1127   -0.0000 O   0  0  0  0  0  0  0  0  0  0  0  0
   10.3408   -1.4392   -0.0000 C   0  0  0  0  0  0  0  0  0  0  0  0
    7.7526   -2.0802   -0.0000 C   0  0  0  0  0  0  0  0  0  0  0  0
    1.2094  -11.1027   -0.0000 O   0  0  0  0  0  0  0  0  0  0  0  0
   12.2517    0.7861   -0.0000 C   0  0  0  0  0  0  0  0  0  0  0  0
    9.2281   -2.4915   -0.0000 C   0  0  0  0  0  0  0  0  0  0  0  0
  1  2  1  0  0  0  0
  1  3  1  0  0  0  0
  2  4  2  0  0  0  0
  2  5  1  0  0  0  0
  4  6  1  0  0  0  0
  4  7  1  0  0  0  0
  5  8  2  0  0  0  0
  6  9  1  0  0  0  0
  7 10  2  0  0  0  0
 11  8  1  1  0  0  0
  9 12  2  0  0  0  0
  9 13  1  0  0  0  0
 11 14  1  0  0  0  0
 11 15  1  0  0  0  0
 12 16  1  0  0  0  0
 13 17  2  0  0  0  0
 14 18  1  6  0  0  0
 14 19  1  0  0  0  0
 15 20  1  0  0  0  0
 16 21  1  0  0  0  0
 16 22  1  0  0  0  0
 19 23  1  0  0  0  0
 21 24  1  0  0  0  0
 21 25  2  0  0  0  0
 22 26  2  0  0  0  0
 23 27  1  0  0  0  0
 24 28  2  0  0  0  0
 24 29  1  0  0  0  0
 27 30  1  0  0  0  0
 28 31  1  0  0  0  0
 28 32  1  0  0  0  0
 29 33  2  0  0  0  0
 30 34  1  0  0  0  0
 31 35  1  0  0  0  0
 32 36  2  0  0  0  0
  8 10  1  0  0  0  0
 17 22  1  0  0  0  0
 20 23  1  0  0  0  0
 25 26  1  0  0  0  0
 33 36  1  0  0  0  0
M  END
>  <MolRegNo>
1829903

>  <m>
=

>  <Value>
12000

>  <Unit>
nM

>  <Type>
IC50

>  <pValue>
4.92

>  <Ligand Efficiency>
0

>  <Binding Efficiency>
0

>  <Surface Efficiency>
0

>  <Assay Index>
909023

>  <Assay Category>


>  <Assay Organism>
Homo sapiens

>  <Target ID>
17045

>  <Target Name>
Cytochrome P450 3A4

>  <Target Organism>
Homo sapiens

>  <Target Description>
Target is a single protein chain

>  <Sequence Accession>
P08684

>  <Reference>
Bioorg Med Chem Lett 25 (5), 1047-1052 (2015)

>  <Pubmed ID>
25655723

>  <DOI>
10.1016/j.bmcl.2015.01.019

$$$$
1446634
Actelion Java MolfileCreator 1.0

 48 55  0  0  0  0  0  0  0  0999 V2000
    0.0000   -0.0000   -0.0000 O   0  0  0  0  0  0  0  0  0  0  0  0
    0.6160    1.3624   -0.0000 C   0  0  0  0  0  0  0  0  0  0  0  0
   -1.4809   -0.1185   -0.0000 C   0  0  0  0  0  0  0  0  0  0  0  0
    2.0969    1.5046   -0.0000 C   0  0  0  0  0  0  0  0  0  0  0  0
   -0.2606    2.5945   -0.0000 C   0  0  0  0  0  0  0  0  0  0  0  0
   -2.3694   -1.3032   -0.0000 C   0  0  0  0  0  0  0  0  0  0  0  0
   -2.3457    1.1136   -0.0000 C   0  0  0  0  0  0  0  0  0  0  0  0
    2.9381    0.2962   -0.0000 O   0  0  0  0  0  0  0  0  0  0  0  0
    2.7130    2.8788   -0.0000 C   0  0  0  0  0  0  0  0  0  0  0  0
   -1.7534    2.4760   -0.0000 C   0  0  0  0  0  0  0  0  0  0  0  0
   -1.9311   -2.7248   -0.0000 O   0  0  0  0  0  0  0  0  0  0  0  0
   -3.7910   -0.8174   -0.0000 C   0  0  0  0  0  0  0  0  0  0  0  0
   -3.7792    0.6871   -0.0000 C   0  0  0  0  0  0  0  0  0  0  0  0
    2.2983   -1.0544   -0.0000 C   0  0  0  0  0  0  0  0  0  0  0  0
    3.0921    4.3478   -0.0000 O   0  0  0  0  0  0  0  0  0  0  0  0
    1.8481    4.1228   -0.0000 C   0  0  0  0  0  0  0  0  0  0  0  0
    4.1938    3.0210   -0.0000 C   0  0  0  0  0  0  0  0  0  0  0  0
   -2.6300    3.7081   -0.0000 C   0  0  0  0  0  0  0  0  0  0  0  0
   -5.1061   -1.5401   -0.0000 C   0  0  0  0  0  0  0  0  0  0  0  0
   -3.8147   -2.2983   -0.0000 C   0  0  0  0  0  0  0  0  0  0  0  0
   -5.0824    1.4572   -0.0000 C   0  0  0  0  0  0  0  0  0  0  0  0
   -3.8029    2.2035   -0.0000 C   0  0  0  0  0  0  0  0  0  0  0  0
    3.1513   -2.2746   -0.0000 C   0  0  0  0  0  0  0  0  0  0  0  0
   -6.4092   -0.7582   -0.0000 C   0  0  0  0  0  0  0  0  0  0  0  0
   -5.1179   -3.0210   -0.0000 C   0  0  0  0  0  0  0  0  0  0  0  0
   -6.4092    0.7345   -0.0000 C   0  0  0  0  0  0  0  0  0  0  0  0
   -7.7124   -1.4927   -0.0000 C   0  0  0  0  0  0  0  0  0  0  0  0
   -7.7242   -0.0000   -0.0000 C   0  0  0  0  0  0  0  0  0  0  0  0
   -6.4329   -3.7436   -0.0000 C   0  0  0  0  0  0  0  0  0  0  0  0
   -7.7361   -2.9736   -0.0000 C   0  0  0  0  0  0  0  0  0  0  0  0
   -9.0156   -0.7227   -0.0000 C   0  0  0  0  0  0  0  0  0  0  0  0
   -9.0393   -3.6963   -0.0000 C   0  0  0  0  0  0  0  0  0  0  0  0
  -10.3187   -1.4690   -0.0000 C   0  0  0  0  0  0  0  0  0  0  0  0
  -10.3424   -2.9499   -0.0000 C   0  0  0  0  0  0  0  0  0  0  0  0
   -9.8093   -4.9757   -0.0000 C   0  0  0  0  0  0  0  0  0  0  0  0
   -8.6720   -5.1297   -0.0000 C   0  0  0  0  0  0  0  0  0  0  0  0
  -11.6574   -3.6844   -0.0000 O   0  0  0  0  0  0  0  0  0  0  0  0
  -12.9725   -2.9262   -0.0000 C   0  0  0  0  0  0  0  0  0  0  0  0
  -12.9961   -1.4216   -0.0000 O   0  0  0  0  0  0  0  0  0  0  0  0
  -14.2875   -3.6726   -0.0000 C   0  0  0  0  0  0  0  0  0  0  0  0
  -14.2993   -0.6634   -0.0000 C   0  0  0  0  0  0  0  0  0  0  0  0
  -15.6025   -2.9144   -0.0000 N   0  0  0  0  0  0  0  0  0  0  0  0
  -15.6143   -1.3979   -0.0000 C   0  0  0  0  0  0  0  0  0  0  0  0
  -16.9175   -3.6489   -0.0000 C   0  0  0  0  0  0  0  0  0  0  0  0
  -17.3085   -5.0824   -0.0000 C   0  0  0  0  0  0  0  0  0  0  0  0
  -18.3747   -3.2461   -0.0000 C   0  0  0  0  0  0  0  0  0  0  0  0
  -18.7656   -4.6796   -0.0000 N   0  0  0  0  0  0  0  0  0  0  0  0
  -20.0688   -5.4141   -0.0000 C   0  0  0  0  0  0  0  0  0  0  0  0
  2  1  1  6  0  0  0
  3  1  1  6  0  0  0
  2  4  1  0  0  0  0
  2  5  1  0  0  0  0
  3  6  1  0  0  0  0
  7  3  1  1  0  0  0
  4  8  1  1  0  0  0
  4  9  1  0  0  0  0
  5 10  1  0  0  0  0
  6 11  1  6  0  0  0
  6 12  1  0  0  0  0
  7 13  1  0  0  0  0
  8 14  1  0  0  0  0
  9 15  1  0  0  0  0
  9 16  1  0  0  0  0
  9 17  1  0  0  0  0
 10 18  1  6  0  0  0
 12 19  1  0  0  0  0
 12 20  1  6  0  0  0
 13 21  1  0  0  0  0
 13 22  1  1  0  0  0
 14 23  1  0  0  0  0
 19 24  1  0  0  0  0
 19 25  1  6  0  0  0
 21 26  1  0  0  0  0
 24 27  1  0  0  0  0
 24 28  1  1  0  0  0
 25 29  1  0  0  0  0
 27 30  1  0  0  0  0
 27 31  1  0  0  0  0
 30 32  1  0  0  0  0
 31 33  1  0  0  0  0
 32 34  1  0  0  0  0
 32 35  1  0  0  0  0
 32 36  1  0  0  0  0
 34 37  1  1  0  0  0
 38 37  1  1  0  0  0
 38 39  1  0  0  0  0
 38 40  1  0  0  0  0
 39 41  1  0  0  0  0
 40 42  1  0  0  0  0
 41 43  1  0  0  0  0
 42 44  1  0  0  0  0
 44 45  1  0  0  0  0
 44 46  1  0  0  0  0
 45 47  1  0  0  0  0
 47 48  1  0  0  0  0
  7 10  1  0  0  0  0
 12 13  1  0  0  0  0
 24 26  1  0  0  0  0
 27 28  1  1  0  0  0
 30 29  1  1  0  0  0
 33 34  1  0  0  0  0
 42 43  1  0  0  0  0
 46 47  1  0  0  0  0
M  END
>  <MolRegNo>
1446634

>  <m>
=

>  <Value>
12000

>  <Unit>
nM

>  <Type>
IC50

>  <pValue>
4.92

>  <Ligand Efficiency>
0

>  <Binding Efficiency>
0

>  <Surface Efficiency>
0

>  <Assay Index>
911014

>  <Assay Category>


>  <Assay Organism>
Homo sapiens

>  <Target ID>
17045

>  <Target Name>
Cytochrome P450 3A4

>  <Target Organism>
Homo sapiens

>  <Target Description>
Target is a single protein chain

>  <Sequence Accession>
P08684

>  <Reference>
Bioorg Med Chem Lett 25 (7), 1621-1626 (2015)

>  <Pubmed ID>
25708617

>  <DOI>
10.1016/j.bmcl.2015.01.051

$$$$
1446684
Actelion Java MolfileCreator 1.0

 47 53  0  0  0  0  0  0  0  0999 V2000
    0.0000   -0.0000   -0.0000 O   0  0  0  0  0  0  0  0  0  0  0  0
    0.6161    1.3625   -0.0000 C   0  0  0  0  0  0  0  0  0  0  0  0
   -1.4810   -0.1185   -0.0000 C   0  0  0  0  0  0  0  0  0  0  0  0
    2.0971    1.5047   -0.0000 C   0  0  0  0  0  0  0  0  0  0  0  0
   -0.2488    2.5947   -0.0000 C   0  0  0  0  0  0  0  0  0  0  0  0
   -2.3696   -1.3033   -0.0000 C   0  0  0  0  0  0  0  0  0  0  0  0
   -2.3459    1.1137   -0.0000 C   0  0  0  0  0  0  0  0  0  0  0  0
    2.9501    0.2962   -0.0000 O   0  0  0  0  0  0  0  0  0  0  0  0
    2.7131    2.8790   -0.0000 C   0  0  0  0  0  0  0  0  0  0  0  0
   -1.7416    2.4762   -0.0000 C   0  0  0  0  0  0  0  0  0  0  0  0
   -1.9312   -2.7250   -0.0000 O   0  0  0  0  0  0  0  0  0  0  0  0
   -3.7913   -0.8175   -0.0000 C   0  0  0  0  0  0  0  0  0  0  0  0
   -3.7794    0.6753   -0.0000 C   0  0  0  0  0  0  0  0  0  0  0  0
    2.3103   -1.0545   -0.0000 C   0  0  0  0  0  0  0  0  0  0  0  0
    3.0804    4.3481   -0.0000 O   0  0  0  0  0  0  0  0  0  0  0  0
    1.8364    4.1112   -0.0000 C   0  0  0  0  0  0  0  0  0  0  0  0
    4.1941    3.0212   -0.0000 C   0  0  0  0  0  0  0  0  0  0  0  0
   -2.6184    3.7084   -0.0000 C   0  0  0  0  0  0  0  0  0  0  0  0
   -5.1064   -1.5402   -0.0000 C   0  0  0  0  0  0  0  0  0  0  0  0
   -3.8150   -2.2985   -0.0000 C   0  0  0  0  0  0  0  0  0  0  0  0
   -5.0827    1.4454   -0.0000 C   0  0  0  0  0  0  0  0  0  0  0  0
   -3.8031    2.1918   -0.0000 C   0  0  0  0  0  0  0  0  0  0  0  0
    3.1634   -2.2629   -0.0000 C   0  0  0  0  0  0  0  0  0  0  0  0
   -6.4097   -0.7701   -0.0000 C   0  0  0  0  0  0  0  0  0  0  0  0
   -5.1182   -3.0212   -0.0000 C   0  0  0  0  0  0  0  0  0  0  0  0
   -6.4097    0.7227   -0.0000 C   0  0  0  0  0  0  0  0  0  0  0  0
   -7.7129   -1.5047   -0.0000 C   0  0  0  0  0  0  0  0  0  0  0  0
   -7.7248   -0.0118   -0.0000 C   0  0  0  0  0  0  0  0  0  0  0  0
   -6.4334   -3.7439   -0.0000 C   0  0  0  0  0  0  0  0  0  0  0  0
   -7.7366   -2.9856   -0.0000 C   0  0  0  0  0  0  0  0  0  0  0  0
   -9.0162   -0.7346   -0.0000 C   0  0  0  0  0  0  0  0  0  0  0  0
   -9.0399   -3.7202   -0.0000 C   0  0  0  0  0  0  0  0  0  0  0  0
  -10.3194   -1.4810   -0.0000 C   0  0  0  0  0  0  0  0  0  0  0  0
  -10.3431   -2.9619   -0.0000 C   0  0  0  0  0  0  0  0  0  0  0  0
   -9.8100   -4.9998   -0.0000 C   0  0  0  0  0  0  0  0  0  0  0  0
   -8.6726   -5.1538   -0.0000 C   0  0  0  0  0  0  0  0  0  0  0  0
  -11.6464   -3.6965   -0.0000 O   0  0  0  0  0  0  0  0  0  0  0  0
  -12.9615   -2.9383   -0.0000 C   0  0  0  0  0  0  0  0  0  0  0  0
  -12.9852   -1.4336   -0.0000 O   0  0  0  0  0  0  0  0  0  0  0  0
  -14.2766   -3.6847   -0.0000 C   0  0  0  0  0  0  0  0  0  0  0  0
  -14.2884   -0.6753   -0.0000 C   0  0  0  0  0  0  0  0  0  0  0  0
  -15.5917   -2.9146   -0.0000 N   0  0  0  0  0  0  0  0  0  0  0  0
  -15.6035   -1.4099   -0.0000 C   0  0  0  0  0  0  0  0  0  0  0  0
  -16.9068   -3.6491   -0.0000 C   0  0  0  0  0  0  0  0  0  0  0  0
  -18.2101   -2.8909   -0.0000 C   0  0  0  0  0  0  0  0  0  0  0  0
  -19.5252   -3.6254   -0.0000 O   0  0  0  0  0  0  0  0  0  0  0  0
  -20.8284   -2.8672   -0.0000 C   0  0  0  0  0  0  0  0  0  0  0  0
  2  1  1  6  0  0  0
  3  1  1  6  0  0  0
  2  4  1  0  0  0  0
  2  5  1  0  0  0  0
  3  6  1  0  0  0  0
  7  3  1  1  0  0  0
  4  8  1  1  0  0  0
  4  9  1  0  0  0  0
  5 10  1  0  0  0  0
  6 11  1  6  0  0  0
  6 12  1  0  0  0  0
  7 13  1  0  0  0  0
  8 14  1  0  0  0  0
  9 15  1  0  0  0  0
  9 16  1  0  0  0  0
  9 17  1  0  0  0  0
 10 18  1  6  0  0  0
 12 19  1  0  0  0  0
 12 20  1  6  0  0  0
 13 21  1  0  0  0  0
 13 22  1  1  0  0  0
 14 23  1  0  0  0  0
 19 24  1  0  0  0  0
 19 25  1  6  0  0  0
 21 26  1  0  0  0  0
 24 27  1  0  0  0  0
 24 28  1  1  0  0  0
 25 29  1  0  0  0  0
 27 30  1  0  0  0  0
 27 31  1  0  0  0  0
 30 32  1  0  0  0  0
 31 33  1  0  0  0  0
 32 34  1  0  0  0  0
 32 35  1  0  0  0  0
 32 36  1  0  0  0  0
 34 37  1  1  0  0  0
 38 37  1  1  0  0  0
 38 39  1  0  0  0  0
 38 40  1  0  0  0  0
 39 41  1  0  0  0  0
 40 42  1  0  0  0  0
 41 43  1  0  0  0  0
 42 44  1  0  0  0  0
 44 45  1  0  0  0  0
 45 46  1  0  0  0  0
 46 47  1  0  0  0  0
  7 10  1  0  0  0  0
 12 13  1  0  0  0  0
 24 26  1  0  0  0  0
 27 28  1  1  0  0  0
 30 29  1  1  0  0  0
 33 34  1  0  0  0  0
 42 43  1  0  0  0  0
M  END
>  <MolRegNo>
1446684

>  <m>
=

>  <Value>
1100

>  <Unit>
nM

>  <Type>
IC50

>  <pValue>
5.96

>  <Ligand Efficiency>
0

>  <Binding Efficiency>
0

>  <Surface Efficiency>
0

>  <Assay Index>
911014

>  <Assay Category>


>  <Assay Organism>
Homo sapiens

>  <Target ID>
17045

>  <Target Name>
Cytochrome P450 3A4

>  <Target Organism>
Homo sapiens

>  <Target Description>
Target is a single protein chain

>  <Sequence Accession>
P08684

>  <Reference>
Bioorg Med Chem Lett 25 (7), 1621-1626 (2015)

>  <Pubmed ID>
25708617

>  <DOI>
10.1016/j.bmcl.2015.01.051

$$$$
1834042
Actelion Java MolfileCreator 1.0

 51 59  0  0  0  0  0  0  0  0999 V2000
    0.0000   -0.0000   -0.0000 O   0  0  0  0  0  0  0  0  0  0  0  0
    1.4130    0.6321   -0.0000 C   0  0  0  0  0  0  0  0  0  0  0  0
   -0.1983   -1.5246   -0.0000 C   0  0  0  0  0  0  0  0  0  0  0  0
    0.1363    1.5246   -0.0000 C   0  0  0  0  0  0  0  0  0  0  0  0
    2.6525   -0.2603   -0.0000 C   0  0  0  0  0  0  0  0  0  0  0  0
   -1.4750   -2.4170   -0.0000 C   0  0  0  0  0  0  0  0  0  0  0  0
    1.0412   -2.4294   -0.0000 C   0  0  0  0  0  0  0  0  0  0  0  0
   -1.3015    0.9048   -0.0000 O   0  0  0  0  0  0  0  0  0  0  0  0
    0.2975    3.0863   -0.0000 C   0  0  0  0  0  0  0  0  0  0  0  0
    2.4542   -1.8220   -0.0000 C   0  0  0  0  0  0  0  0  0  0  0  0
   -2.6649   -2.0080   -0.0000 O   0  0  0  0  0  0  0  0  0  0  0  0
   -1.0412   -3.8796   -0.0000 C   0  0  0  0  0  0  0  0  0  0  0  0
    0.5330   -3.9044   -0.0000 C   0  0  0  0  0  0  0  0  0  0  0  0
   -2.5781    1.8344   -0.0000 C   0  0  0  0  0  0  0  0  0  0  0  0
    1.4254    3.6069   -0.0000 O   0  0  0  0  0  0  0  0  0  0  0  0
    0.4214    4.3382   -0.0000 C   0  0  0  0  0  0  0  0  0  0  0  0
   -0.7189    3.8300   -0.0000 C   0  0  0  0  0  0  0  0  0  0  0  0
    3.4334   -2.5657   -0.0000 C   0  0  0  0  0  0  0  0  0  0  0  0
   -1.8468   -5.2059   -0.0000 C   0  0  0  0  0  0  0  0  0  0  0  0
   -2.2931   -3.7185   -0.0000 C   0  0  0  0  0  0  0  0  0  0  0  0
    1.2767   -5.2430   -0.0000 C   0  0  0  0  0  0  0  0  0  0  0  0
    1.7601   -3.7804   -0.0000 C   0  0  0  0  0  0  0  0  0  0  0  0
   -3.7309    1.3386   -0.0000 C   0  0  0  0  0  0  0  0  0  0  0  0
   -1.0907   -6.5569   -0.0000 C   0  0  0  0  0  0  0  0  0  0  0  0
   -3.4086   -5.1811   -0.0000 C   0  0  0  0  0  0  0  0  0  0  0  0
    0.4710   -6.5693   -0.0000 C   0  0  0  0  0  0  0  0  0  0  0  0
   -1.8964   -7.8831   -0.0000 C   0  0  0  0  0  0  0  0  0  0  0  0
   -0.3471   -7.8955   -0.0000 C   0  0  0  0  0  0  0  0  0  0  0  0
   -4.2143   -6.5073   -0.0000 C   0  0  0  0  0  0  0  0  0  0  0  0
   -3.4706   -7.8460   -0.0000 C   0  0  0  0  0  0  0  0  0  0  0  0
   -1.1527   -9.2218   -0.0000 C   0  0  0  0  0  0  0  0  0  0  0  0
   -4.2762   -9.1722   -0.0000 C   0  0  0  0  0  0  0  0  0  0  0  0
   -1.9584  -10.5480   -0.0000 C   0  0  0  0  0  0  0  0  0  0  0  0
   -3.5201  -10.5233   -0.0000 C   0  0  0  0  0  0  0  0  0  0  0  0
   -4.8712   -8.0567   -0.0000 C   0  0  0  0  0  0  0  0  0  0  0  0
   -4.8960  -10.2506   -0.0000 C   0  0  0  0  0  0  0  0  0  0  0  0
   -4.3134  -11.8495   -0.0000 O   0  0  0  0  0  0  0  0  0  0  0  0
   -3.5573  -13.1882   -0.0000 C   0  0  0  0  0  0  0  0  0  0  0  0
   -2.7765  -14.4896   -0.0000 O   0  0  0  0  0  0  0  0  0  0  0  0
   -5.1067  -13.1262   -0.0000 C   0  0  0  0  0  0  0  0  0  0  0  0
   -3.5821  -15.8159   -0.0000 C   0  0  0  0  0  0  0  0  0  0  0  0
   -5.9124  -14.4524   -0.0000 N   0  0  0  0  0  0  0  0  0  0  0  0
   -5.1563  -15.7911   -0.0000 C   0  0  0  0  0  0  0  0  0  0  0  0
   -7.4865  -14.4276   -0.0000 C   0  0  0  0  0  0  0  0  0  0  0  0
   -8.5401  -13.2997   -0.0000 C   0  0  0  0  0  0  0  0  0  0  0  0
   -8.5525  -15.5060   -0.0000 C   0  0  0  0  0  0  0  0  0  0  0  0
   -9.6680  -14.3781   -0.0000 N   0  0  0  0  0  0  0  0  0  0  0  0
  -11.2422  -14.3533   -0.0000 C   0  0  0  0  0  0  0  0  0  0  0  0
  -12.0354  -13.0394   -0.0000 C   0  0  0  0  0  0  0  0  0  0  0  0
  -12.5064  -15.1961   -0.0000 C   0  0  0  0  0  0  0  0  0  0  0  0
  -13.3493  -13.8699   -0.0000 C   0  0  0  0  0  0  0  0  0  0  0  0
  1  2  1  0  0  0  0
  3  1  1  1  0  0  0
  2  4  1  1  0  0  0
  2  5  1  0  0  0  0
  3  6  1  0  0  0  0
  7  3  1  6  0  0  0
  4  8  1  6  0  0  0
  4  9  1  0  0  0  0
  5 10  1  0  0  0  0
  6 11  1  1  0  0  0
  6 12  1  0  0  0  0
  7 13  1  0  0  0  0
  8 14  1  0  0  0  0
  9 15  1  0  0  0  0
  9 16  1  0  0  0  0
  9 17  1  0  0  0  0
 10 18  1  1  0  0  0
 12 19  1  0  0  0  0
 12 20  1  1  0  0  0
 13 21  1  0  0  0  0
 13 22  1  6  0  0  0
 14 23  1  0  0  0  0
 19 24  1  0  0  0  0
 19 25  1  1  0  0  0
 21 26  1  0  0  0  0
 24 27  1  0  0  0  0
 24 28  1  6  0  0  0
 25 29  1  0  0  0  0
 27 30  1  0  0  0  0
 27 31  1  0  0  0  0
 30 32  1  0  0  0  0
 31 33  1  0  0  0  0
 32 34  1  0  0  0  0
 32 35  1  0  0  0  0
 32 36  1  0  0  0  0
 34 37  1  6  0  0  0
 38 37  1  6  0  0  0
 38 39  1  0  0  0  0
 38 40  1  0  0  0  0
 39 41  1  0  0  0  0
 40 42  1  0  0  0  0
 41 43  1  0  0  0  0
 42 44  1  0  0  0  0
 44 45  1  0  0  0  0
 44 46  1  0  0  0  0
 45 47  1  0  0  0  0
 47 48  1  0  0  0  0
 48 49  1  0  0  0  0
 48 50  1  0  0  0  0
 49 51  1  0  0  0  0
  7 10  1  0  0  0  0
 12 13  1  0  0  0  0
 24 26  1  0  0  0  0
 27 28  1  6  0  0  0
 30 29  1  6  0  0  0
 33 34  1  0  0  0  0
 42 43  1  0  0  0  0
 46 47  1  0  0  0  0
 50 51  1  0  0  0  0
M  END
>  <MolRegNo>
1834042

>  <m>
=

>  <Value>
1.0e5

>  <Unit>
nM

>  <Type>
IC50

>  <pValue>
4

>  <Ligand Efficiency>
0

>  <Binding Efficiency>
0

>  <Surface Efficiency>
0

>  <Assay Index>
911014

>  <Assay Category>


>  <Assay Organism>
Homo sapiens

>  <Target ID>
17045

>  <Target Name>
Cytochrome P450 3A4

>  <Target Organism>
Homo sapiens

>  <Target Description>
Target is a single protein chain

>  <Sequence Accession>
P08684

>  <Reference>
Bioorg Med Chem Lett 25 (7), 1621-1626 (2015)

>  <Pubmed ID>
25708617

>  <DOI>
10.1016/j.bmcl.2015.01.051

$$$$
1834043
Actelion Java MolfileCreator 1.0

 51 59  0  0  0  0  0  0  0  0999 V2000
    0.0000   -0.0000   -0.0000 O   0  0  0  0  0  0  0  0  0  0  0  0
    1.4130    0.6321   -0.0000 C   0  0  0  0  0  0  0  0  0  0  0  0
   -0.1983   -1.5246   -0.0000 C   0  0  0  0  0  0  0  0  0  0  0  0
    0.1363    1.5246   -0.0000 C   0  0  0  0  0  0  0  0  0  0  0  0
    2.6525   -0.2603   -0.0000 C   0  0  0  0  0  0  0  0  0  0  0  0
   -1.4750   -2.4170   -0.0000 C   0  0  0  0  0  0  0  0  0  0  0  0
    1.0412   -2.4294   -0.0000 C   0  0  0  0  0  0  0  0  0  0  0  0
   -1.3015    0.9048   -0.0000 O   0  0  0  0  0  0  0  0  0  0  0  0
    0.2975    3.0863   -0.0000 C   0  0  0  0  0  0  0  0  0  0  0  0
    2.4542   -1.8220   -0.0000 C   0  0  0  0  0  0  0  0  0  0  0  0
   -2.6649   -2.0080   -0.0000 O   0  0  0  0  0  0  0  0  0  0  0  0
   -1.0412   -3.8796   -0.0000 C   0  0  0  0  0  0  0  0  0  0  0  0
    0.5330   -3.9044   -0.0000 C   0  0  0  0  0  0  0  0  0  0  0  0
   -2.5781    1.8344   -0.0000 C   0  0  0  0  0  0  0  0  0  0  0  0
    1.4254    3.6069   -0.0000 O   0  0  0  0  0  0  0  0  0  0  0  0
    0.4214    4.3382   -0.0000 C   0  0  0  0  0  0  0  0  0  0  0  0
   -0.7189    3.8300   -0.0000 C   0  0  0  0  0  0  0  0  0  0  0  0
    3.4334   -2.5657   -0.0000 C   0  0  0  0  0  0  0  0  0  0  0  0
   -1.8468   -5.2059   -0.0000 C   0  0  0  0  0  0  0  0  0  0  0  0
   -2.2931   -3.7185   -0.0000 C   0  0  0  0  0  0  0  0  0  0  0  0
    1.2767   -5.2430   -0.0000 C   0  0  0  0  0  0  0  0  0  0  0  0
    1.7601   -3.7804   -0.0000 C   0  0  0  0  0  0  0  0  0  0  0  0
   -3.7309    1.3386   -0.0000 C   0  0  0  0  0  0  0  0  0  0  0  0
   -1.0907   -6.5569   -0.0000 C   0  0  0  0  0  0  0  0  0  0  0  0
   -3.4086   -5.1811   -0.0000 C   0  0  0  0  0  0  0  0  0  0  0  0
    0.4710   -6.5693   -0.0000 C   0  0  0  0  0  0  0  0  0  0  0  0
   -1.8964   -7.8831   -0.0000 C   0  0  0  0  0  0  0  0  0  0  0  0
   -0.3471   -7.8955   -0.0000 C   0  0  0  0  0  0  0  0  0  0  0  0
   -4.2143   -6.5073   -0.0000 C   0  0  0  0  0  0  0  0  0  0  0  0
   -3.4706   -7.8460   -0.0000 C   0  0  0  0  0  0  0  0  0  0  0  0
   -1.1527   -9.2218   -0.0000 C   0  0  0  0  0  0  0  0  0  0  0  0
   -4.2762   -9.1722   -0.0000 C   0  0  0  0  0  0  0  0  0  0  0  0
   -1.9584  -10.5480   -0.0000 C   0  0  0  0  0  0  0  0  0  0  0  0
   -3.5201  -10.5233   -0.0000 C   0  0  0  0  0  0  0  0  0  0  0  0
   -4.8712   -8.0567   -0.0000 C   0  0  0  0  0  0  0  0  0  0  0  0
   -4.8960  -10.2506   -0.0000 C   0  0  0  0  0  0  0  0  0  0  0  0
   -4.3134  -11.8495   -0.0000 O   0  0  0  0  0  0  0  0  0  0  0  0
   -3.5573  -13.1882   -0.0000 C   0  0  0  0  0  0  0  0  0  0  0  0
   -2.7765  -14.4896   -0.0000 O   0  0  0  0  0  0  0  0  0  0  0  0
   -5.1067  -13.1262   -0.0000 C   0  0  0  0  0  0  0  0  0  0  0  0
   -3.5821  -15.8159   -0.0000 C   0  0  0  0  0  0  0  0  0  0  0  0
   -5.9124  -14.4524   -0.0000 N   0  0  0  0  0  0  0  0  0  0  0  0
   -5.1563  -15.7911   -0.0000 C   0  0  0  0  0  0  0  0  0  0  0  0
   -7.4865  -14.4276   -0.0000 C   0  0  0  0  0  0  0  0  0  0  0  0
   -8.5401  -13.2997   -0.0000 C   0  0  0  0  0  0  0  0  0  0  0  0
   -8.5525  -15.5060   -0.0000 C   0  0  0  0  0  0  0  0  0  0  0  0
   -9.6680  -14.3781   -0.0000 N   0  0  0  0  0  0  0  0  0  0  0  0
  -11.2422  -14.3533   -0.0000 C   0  0  0  0  0  0  0  0  0  0  0  0
  -12.0354  -13.0394   -0.0000 C   0  0  0  0  0  0  0  0  0  0  0  0
  -12.5064  -15.1961   -0.0000 C   0  0  0  0  0  0  0  0  0  0  0  0
  -13.3493  -13.8699   -0.0000 O   0  0  0  0  0  0  0  0  0  0  0  0
  1  2  1  0  0  0  0
  3  1  1  1  0  0  0
  2  4  1  1  0  0  0
  2  5  1  0  0  0  0
  3  6  1  0  0  0  0
  7  3  1  6  0  0  0
  4  8  1  6  0  0  0
  4  9  1  0  0  0  0
  5 10  1  0  0  0  0
  6 11  1  1  0  0  0
  6 12  1  0  0  0  0
  7 13  1  0  0  0  0
  8 14  1  0  0  0  0
  9 15  1  0  0  0  0
  9 16  1  0  0  0  0
  9 17  1  0  0  0  0
 10 18  1  1  0  0  0
 12 19  1  0  0  0  0
 12 20  1  1  0  0  0
 13 21  1  0  0  0  0
 13 22  1  6  0  0  0
 14 23  1  0  0  0  0
 19 24  1  0  0  0  0
 19 25  1  1  0  0  0
 21 26  1  0  0  0  0
 24 27  1  0  0  0  0
 24 28  1  6  0  0  0
 25 29  1  0  0  0  0
 27 30  1  0  0  0  0
 27 31  1  0  0  0  0
 30 32  1  0  0  0  0
 31 33  1  0  0  0  0
 32 34  1  0  0  0  0
 32 35  1  0  0  0  0
 32 36  1  0  0  0  0
 34 37  1  6  0  0  0
 38 37  1  6  0  0  0
 38 39  1  0  0  0  0
 38 40  1  0  0  0  0
 39 41  1  0  0  0  0
 40 42  1  0  0  0  0
 41 43  1  0  0  0  0
 42 44  1  0  0  0  0
 44 45  1  0  0  0  0
 44 46  1  0  0  0  0
 45 47  1  0  0  0  0
 47 48  1  0  0  0  0
 48 49  1  0  0  0  0
 48 50  1  0  0  0  0
 49 51  1  0  0  0  0
  7 10  1  0  0  0  0
 12 13  1  0  0  0  0
 24 26  1  0  0  0  0
 27 28  1  6  0  0  0
 30 29  1  6  0  0  0
 33 34  1  0  0  0  0
 42 43  1  0  0  0  0
 46 47  1  0  0  0  0
 50 51  1  0  0  0  0
M  END
>  <MolRegNo>
1834043

>  <m>
=

>  <Value>
12000

>  <Unit>
nM

>  <Type>
IC50

>  <pValue>
4.92

>  <Ligand Efficiency>
0

>  <Binding Efficiency>
0

>  <Surface Efficiency>
0

>  <Assay Index>
911014

>  <Assay Category>


>  <Assay Organism>
Homo sapiens

>  <Target ID>
17045

>  <Target Name>
Cytochrome P450 3A4

>  <Target Organism>
Homo sapiens

>  <Target Description>
Target is a single protein chain

>  <Sequence Accession>
P08684

>  <Reference>
Bioorg Med Chem Lett 25 (7), 1621-1626 (2015)

>  <Pubmed ID>
25708617

>  <DOI>
10.1016/j.bmcl.2015.01.051

$$$$
1834044
Actelion Java MolfileCreator 1.0

 51 58  0  0  0  0  0  0  0  0999 V2000
    0.0000   -0.0000   -0.0000 O   0  0  0  0  0  0  0  0  0  0  0  0
    1.4245    0.6373   -0.0000 C   0  0  0  0  0  0  0  0  0  0  0  0
   -0.1999   -1.5370   -0.0000 C   0  0  0  0  0  0  0  0  0  0  0  0
    0.1375    1.5370   -0.0000 C   0  0  0  0  0  0  0  0  0  0  0  0
    2.6741   -0.2624   -0.0000 C   0  0  0  0  0  0  0  0  0  0  0  0
   -1.4870   -2.4367   -0.0000 C   0  0  0  0  0  0  0  0  0  0  0  0
    1.0497   -2.4492   -0.0000 C   0  0  0  0  0  0  0  0  0  0  0  0
   -1.3121    0.9122   -0.0000 O   0  0  0  0  0  0  0  0  0  0  0  0
    0.2999    3.1115   -0.0000 C   0  0  0  0  0  0  0  0  0  0  0  0
    2.4742   -1.8369   -0.0000 C   0  0  0  0  0  0  0  0  0  0  0  0
   -2.6866   -2.0243   -0.0000 O   0  0  0  0  0  0  0  0  0  0  0  0
   -1.0497   -3.9112   -0.0000 C   0  0  0  0  0  0  0  0  0  0  0  0
    0.5373   -3.9362   -0.0000 C   0  0  0  0  0  0  0  0  0  0  0  0
   -2.5991    1.8494   -0.0000 C   0  0  0  0  0  0  0  0  0  0  0  0
    1.4370    3.6363   -0.0000 O   0  0  0  0  0  0  0  0  0  0  0  0
    0.4249    4.3735   -0.0000 C   0  0  0  0  0  0  0  0  0  0  0  0
   -0.7248    3.8612   -0.0000 C   0  0  0  0  0  0  0  0  0  0  0  0
    3.4613   -2.5866   -0.0000 C   0  0  0  0  0  0  0  0  0  0  0  0
   -1.8619   -5.2483   -0.0000 C   0  0  0  0  0  0  0  0  0  0  0  0
   -2.3117   -3.7488   -0.0000 C   0  0  0  0  0  0  0  0  0  0  0  0
    1.2871   -5.2857   -0.0000 C   0  0  0  0  0  0  0  0  0  0  0  0
    1.7744   -3.8112   -0.0000 C   0  0  0  0  0  0  0  0  0  0  0  0
   -3.7612    1.3496   -0.0000 C   0  0  0  0  0  0  0  0  0  0  0  0
   -1.0996   -6.6103   -0.0000 C   0  0  0  0  0  0  0  0  0  0  0  0
   -3.4364   -5.2233   -0.0000 C   0  0  0  0  0  0  0  0  0  0  0  0
    0.4748   -6.6228   -0.0000 C   0  0  0  0  0  0  0  0  0  0  0  0
   -1.9119   -7.9474   -0.0000 C   0  0  0  0  0  0  0  0  0  0  0  0
   -0.3499   -7.9598   -0.0000 C   0  0  0  0  0  0  0  0  0  0  0  0
   -4.2486   -6.5603   -0.0000 C   0  0  0  0  0  0  0  0  0  0  0  0
   -3.4988   -7.9099   -0.0000 C   0  0  0  0  0  0  0  0  0  0  0  0
   -1.1621   -9.2969   -0.0000 C   0  0  0  0  0  0  0  0  0  0  0  0
   -4.3111   -9.2469   -0.0000 C   0  0  0  0  0  0  0  0  0  0  0  0
   -1.9743  -10.6340   -0.0000 C   0  0  0  0  0  0  0  0  0  0  0  0
   -3.5488  -10.6090   -0.0000 C   0  0  0  0  0  0  0  0  0  0  0  0
   -4.8109   -8.3097   -0.0000 C   0  0  0  0  0  0  0  0  0  0  0  0
   -4.9359  -10.3341   -0.0000 C   0  0  0  0  0  0  0  0  0  0  0  0
   -4.3486  -11.9460   -0.0000 O   0  0  0  0  0  0  0  0  0  0  0  0
   -3.5863  -13.2956   -0.0000 C   0  0  0  0  0  0  0  0  0  0  0  0
   -2.7991  -14.6076   -0.0000 O   0  0  0  0  0  0  0  0  0  0  0  0
   -5.1483  -13.2331   -0.0000 C   0  0  0  0  0  0  0  0  0  0  0  0
   -3.6113  -15.9447   -0.0000 C   0  0  0  0  0  0  0  0  0  0  0  0
   -5.9605  -14.5701   -0.0000 N   0  0  0  0  0  0  0  0  0  0  0  0
   -5.1983  -15.9197   -0.0000 C   0  0  0  0  0  0  0  0  0  0  0  0
   -7.5475  -14.5452   -0.0000 C   0  0  0  0  0  0  0  0  0  0  0  0
   -8.6096  -13.4080   -0.0000 C   0  0  0  0  0  0  0  0  0  0  0  0
   -8.6221  -15.6323   -0.0000 C   0  0  0  0  0  0  0  0  0  0  0  0
   -9.7468  -14.4952   -0.0000 N   0  0  0  0  0  0  0  0  0  0  0  0
  -11.3212  -14.4702   -0.0000 C   0  0  0  0  0  0  0  0  0  0  0  0
  -12.1085  -13.0956   -0.0000 C   0  0  0  0  0  0  0  0  0  0  0  0
  -13.6954  -13.0706   -0.0000 O   0  0  0  0  0  0  0  0  0  0  0  0
  -14.2203  -12.1460   -0.0000 C   0  0  0  0  0  0  0  0  0  0  0  0
  1  2  1  0  0  0  0
  3  1  1  1  0  0  0
  2  4  1  1  0  0  0
  2  5  1  0  0  0  0
  3  6  1  0  0  0  0
  7  3  1  6  0  0  0
  4  8  1  6  0  0  0
  4  9  1  0  0  0  0
  5 10  1  0  0  0  0
  6 11  1  1  0  0  0
  6 12  1  0  0  0  0
  7 13  1  0  0  0  0
  8 14  1  0  0  0  0
  9 15  1  0  0  0  0
  9 16  1  0  0  0  0
  9 17  1  0  0  0  0
 10 18  1  1  0  0  0
 12 19  1  0  0  0  0
 12 20  1  1  0  0  0
 13 21  1  0  0  0  0
 13 22  1  6  0  0  0
 14 23  1  0  0  0  0
 19 24  1  0  0  0  0
 19 25  1  1  0  0  0
 21 26  1  0  0  0  0
 24 27  1  0  0  0  0
 24 28  1  6  0  0  0
 25 29  1  0  0  0  0
 27 30  1  0  0  0  0
 27 31  1  0  0  0  0
 30 32  1  0  0  0  0
 31 33  1  0  0  0  0
 32 34  1  0  0  0  0
 32 35  1  0  0  0  0
 32 36  1  0  0  0  0
 34 37  1  6  0  0  0
 38 37  1  6  0  0  0
 38 39  1  0  0  0  0
 38 40  1  0  0  0  0
 39 41  1  0  0  0  0
 40 42  1  0  0  0  0
 41 43  1  0  0  0  0
 42 44  1  0  0  0  0
 44 45  1  0  0  0  0
 44 46  1  0  0  0  0
 45 47  1  0  0  0  0
 47 48  1  0  0  0  0
 48 49  1  0  0  0  0
 49 50  1  0  0  0  0
 50 51  1  0  0  0  0
  7 10  1  0  0  0  0
 12 13  1  0  0  0  0
 24 26  1  0  0  0  0
 27 28  1  6  0  0  0
 30 29  1  6  0  0  0
 33 34  1  0  0  0  0
 42 43  1  0  0  0  0
 46 47  1  0  0  0  0
M  END
>  <MolRegNo>
1834044

>  <m>
=

>  <Value>
5300

>  <Unit>
nM

>  <Type>
IC50

>  <pValue>
5.28

>  <Ligand Efficiency>
0

>  <Binding Efficiency>
0

>  <Surface Efficiency>
0

>  <Assay Index>
911014

>  <Assay Category>


>  <Assay Organism>
Homo sapiens

>  <Target ID>
17045

>  <Target Name>
Cytochrome P450 3A4

>  <Target Organism>
Homo sapiens

>  <Target Description>
Target is a single protein chain

>  <Sequence Accession>
P08684

>  <Reference>
Bioorg Med Chem Lett 25 (7), 1621-1626 (2015)

>  <Pubmed ID>
25708617

>  <DOI>
10.1016/j.bmcl.2015.01.051

$$$$
1834045
Actelion Java MolfileCreator 1.0

 52 59  0  0  0  0  0  0  0  0999 V2000
    0.0000   -0.0000   -0.0000 O   0  0  0  0  0  0  0  0  0  0  0  0
    1.4267    0.6383   -0.0000 C   0  0  0  0  0  0  0  0  0  0  0  0
   -0.2002   -1.5393   -0.0000 C   0  0  0  0  0  0  0  0  0  0  0  0
    0.1377    1.5393   -0.0000 C   0  0  0  0  0  0  0  0  0  0  0  0
    2.6782   -0.2628   -0.0000 C   0  0  0  0  0  0  0  0  0  0  0  0
   -1.4893   -2.4404   -0.0000 C   0  0  0  0  0  0  0  0  0  0  0  0
    1.0513   -2.4529   -0.0000 C   0  0  0  0  0  0  0  0  0  0  0  0
   -1.3141    0.9136   -0.0000 O   0  0  0  0  0  0  0  0  0  0  0  0
    0.3004    3.1162   -0.0000 C   0  0  0  0  0  0  0  0  0  0  0  0
    2.4780   -1.8397   -0.0000 C   0  0  0  0  0  0  0  0  0  0  0  0
   -2.6907   -2.0274   -0.0000 O   0  0  0  0  0  0  0  0  0  0  0  0
   -1.0513   -3.9172   -0.0000 C   0  0  0  0  0  0  0  0  0  0  0  0
    0.5381   -3.9422   -0.0000 C   0  0  0  0  0  0  0  0  0  0  0  0
   -2.6031    1.8522   -0.0000 C   0  0  0  0  0  0  0  0  0  0  0  0
    1.4392    3.6419   -0.0000 O   0  0  0  0  0  0  0  0  0  0  0  0
    0.4255    4.3802   -0.0000 C   0  0  0  0  0  0  0  0  0  0  0  0
   -0.7259    3.8671   -0.0000 C   0  0  0  0  0  0  0  0  0  0  0  0
    3.4666   -2.5906   -0.0000 C   0  0  0  0  0  0  0  0  0  0  0  0
   -1.8647   -5.2563   -0.0000 C   0  0  0  0  0  0  0  0  0  0  0  0
   -2.3153   -3.7545   -0.0000 C   0  0  0  0  0  0  0  0  0  0  0  0
    1.2890   -5.2938   -0.0000 C   0  0  0  0  0  0  0  0  0  0  0  0
    1.7771   -3.8171   -0.0000 C   0  0  0  0  0  0  0  0  0  0  0  0
   -3.7670    1.3516   -0.0000 C   0  0  0  0  0  0  0  0  0  0  0  0
   -1.1013   -6.6204   -0.0000 C   0  0  0  0  0  0  0  0  0  0  0  0
   -3.4416   -5.2313   -0.0000 C   0  0  0  0  0  0  0  0  0  0  0  0
    0.4756   -6.6329   -0.0000 C   0  0  0  0  0  0  0  0  0  0  0  0
   -1.9148   -7.9595   -0.0000 C   0  0  0  0  0  0  0  0  0  0  0  0
   -0.3504   -7.9720   -0.0000 C   0  0  0  0  0  0  0  0  0  0  0  0
   -4.2551   -6.5704   -0.0000 C   0  0  0  0  0  0  0  0  0  0  0  0
   -3.5042   -7.9220   -0.0000 C   0  0  0  0  0  0  0  0  0  0  0  0
   -1.1639   -9.3111   -0.0000 C   0  0  0  0  0  0  0  0  0  0  0  0
   -4.3177   -9.2611   -0.0000 C   0  0  0  0  0  0  0  0  0  0  0  0
   -1.9774  -10.6502   -0.0000 C   0  0  0  0  0  0  0  0  0  0  0  0
   -3.5543  -10.6252   -0.0000 C   0  0  0  0  0  0  0  0  0  0  0  0
   -4.9184   -8.1347   -0.0000 C   0  0  0  0  0  0  0  0  0  0  0  0
   -4.9434  -10.3499   -0.0000 C   0  0  0  0  0  0  0  0  0  0  0  0
   -4.3552  -11.9643   -0.0000 O   0  0  0  0  0  0  0  0  0  0  0  0
   -3.5918  -13.3159   -0.0000 C   0  0  0  0  0  0  0  0  0  0  0  0
   -2.8034  -14.6300   -0.0000 O   0  0  0  0  0  0  0  0  0  0  0  0
   -5.1562  -13.2534   -0.0000 C   0  0  0  0  0  0  0  0  0  0  0  0
   -3.6168  -15.9691   -0.0000 C   0  0  0  0  0  0  0  0  0  0  0  0
   -5.9696  -14.5925   -0.0000 N   0  0  0  0  0  0  0  0  0  0  0  0
   -5.2062  -15.9441   -0.0000 C   0  0  0  0  0  0  0  0  0  0  0  0
   -7.5590  -14.5674   -0.0000 C   0  0  0  0  0  0  0  0  0  0  0  0
   -8.6228  -13.4286   -0.0000 C   0  0  0  0  0  0  0  0  0  0  0  0
   -8.6353  -15.6562   -0.0000 C   0  0  0  0  0  0  0  0  0  0  0  0
   -9.7617  -14.5174   -0.0000 N   0  0  0  0  0  0  0  0  0  0  0  0
  -11.3386  -14.4923   -0.0000 C   0  0  0  0  0  0  0  0  0  0  0  0
  -12.1270  -13.1157   -0.0000 C   0  0  0  0  0  0  0  0  0  0  0  0
  -13.3910  -13.0907   -0.0000 O   0  0  0  0  0  0  0  0  0  0  0  0
  -11.5013  -12.0144   -0.0000 C   0  0  0  0  0  0  0  0  0  0  0  0
  -12.7528  -12.0019   -0.0000 C   0  0  0  0  0  0  0  0  0  0  0  0
  1  2  1  0  0  0  0
  3  1  1  1  0  0  0
  2  4  1  1  0  0  0
  2  5  1  0  0  0  0
  3  6  1  0  0  0  0
  7  3  1  6  0  0  0
  4  8  1  6  0  0  0
  4  9  1  0  0  0  0
  5 10  1  0  0  0  0
  6 11  1  1  0  0  0
  6 12  1  0  0  0  0
  7 13  1  0  0  0  0
  8 14  1  0  0  0  0
  9 15  1  0  0  0  0
  9 16  1  0  0  0  0
  9 17  1  0  0  0  0
 10 18  1  1  0  0  0
 12 19  1  0  0  0  0
 12 20  1  1  0  0  0
 13 21  1  0  0  0  0
 13 22  1  6  0  0  0
 14 23  1  0  0  0  0
 19 24  1  0  0  0  0
 19 25  1  1  0  0  0
 21 26  1  0  0  0  0
 24 27  1  0  0  0  0
 24 28  1  6  0  0  0
 25 29  1  0  0  0  0
 27 30  1  0  0  0  0
 27 31  1  0  0  0  0
 30 32  1  0  0  0  0
 31 33  1  0  0  0  0
 32 34  1  0  0  0  0
 32 35  1  0  0  0  0
 32 36  1  0  0  0  0
 34 37  1  6  0  0  0
 38 37  1  6  0  0  0
 38 39  1  0  0  0  0
 38 40  1  0  0  0  0
 39 41  1  0  0  0  0
 40 42  1  0  0  0  0
 41 43  1  0  0  0  0
 42 44  1  0  0  0  0
 44 45  1  0  0  0  0
 44 46  1  0  0  0  0
 45 47  1  0  0  0  0
 47 48  1  0  0  0  0
 48 49  1  0  0  0  0
 49 50  1  0  0  0  0
 49 51  1  0  0  0  0
 49 52  1  0  0  0  0
  7 10  1  0  0  0  0
 12 13  1  0  0  0  0
 24 26  1  0  0  0  0
 27 28  1  6  0  0  0
 30 29  1  6  0  0  0
 33 34  1  0  0  0  0
 42 43  1  0  0  0  0
 46 47  1  0  0  0  0
M  END
>  <MolRegNo>
1834045

>  <m>
=

>  <Value>
3000

>  <Unit>
nM

>  <Type>
IC50

>  <pValue>
5.52

>  <Ligand Efficiency>
0

>  <Binding Efficiency>
0

>  <Surface Efficiency>
0

>  <Assay Index>
911014

>  <Assay Category>


>  <Assay Organism>
Homo sapiens

>  <Target ID>
17045

>  <Target Name>
Cytochrome P450 3A4

>  <Target Organism>
Homo sapiens

>  <Target Description>
Target is a single protein chain

>  <Sequence Accession>
P08684

>  <Reference>
Bioorg Med Chem Lett 25 (7), 1621-1626 (2015)

>  <Pubmed ID>
25708617

>  <DOI>
10.1016/j.bmcl.2015.01.051

$$$$
1834046
Actelion Java MolfileCreator 1.0

 50 57  0  0  0  0  0  0  0  0999 V2000
    0.0000   -0.0000   -0.0000 O   0  0  0  0  0  0  0  0  0  0  0  0
    1.4191    0.6349   -0.0000 C   0  0  0  0  0  0  0  0  0  0  0  0
   -0.1992   -1.5312   -0.0000 C   0  0  0  0  0  0  0  0  0  0  0  0
    0.1369    1.5312   -0.0000 C   0  0  0  0  0  0  0  0  0  0  0  0
    2.6640   -0.2614   -0.0000 C   0  0  0  0  0  0  0  0  0  0  0  0
   -1.4814   -2.4275   -0.0000 C   0  0  0  0  0  0  0  0  0  0  0  0
    1.0457   -2.4399   -0.0000 C   0  0  0  0  0  0  0  0  0  0  0  0
   -1.3071    0.9087   -0.0000 O   0  0  0  0  0  0  0  0  0  0  0  0
    0.2988    3.0997   -0.0000 C   0  0  0  0  0  0  0  0  0  0  0  0
    2.4648   -1.8299   -0.0000 C   0  0  0  0  0  0  0  0  0  0  0  0
   -2.6765   -2.0167   -0.0000 O   0  0  0  0  0  0  0  0  0  0  0  0
   -1.0457   -3.8964   -0.0000 C   0  0  0  0  0  0  0  0  0  0  0  0
    0.5353   -3.9213   -0.0000 C   0  0  0  0  0  0  0  0  0  0  0  0
   -2.5893    1.8424   -0.0000 C   0  0  0  0  0  0  0  0  0  0  0  0
    1.4316    3.6225   -0.0000 O   0  0  0  0  0  0  0  0  0  0  0  0
    0.4233    4.3570   -0.0000 C   0  0  0  0  0  0  0  0  0  0  0  0
   -0.7220    3.8466   -0.0000 C   0  0  0  0  0  0  0  0  0  0  0  0
    3.4483   -2.5769   -0.0000 C   0  0  0  0  0  0  0  0  0  0  0  0
   -1.8548   -5.2284   -0.0000 C   0  0  0  0  0  0  0  0  0  0  0  0
   -2.3030   -3.7346   -0.0000 C   0  0  0  0  0  0  0  0  0  0  0  0
    1.2822   -5.2658   -0.0000 C   0  0  0  0  0  0  0  0  0  0  0  0
    1.7677   -3.7968   -0.0000 C   0  0  0  0  0  0  0  0  0  0  0  0
   -3.7470    1.3445   -0.0000 C   0  0  0  0  0  0  0  0  0  0  0  0
   -1.0955   -6.5853   -0.0000 C   0  0  0  0  0  0  0  0  0  0  0  0
   -3.4234   -5.2035   -0.0000 C   0  0  0  0  0  0  0  0  0  0  0  0
    0.4730   -6.5978   -0.0000 C   0  0  0  0  0  0  0  0  0  0  0  0
   -1.9046   -7.9173   -0.0000 C   0  0  0  0  0  0  0  0  0  0  0  0
   -0.3486   -7.9298   -0.0000 C   0  0  0  0  0  0  0  0  0  0  0  0
   -4.2325   -6.5355   -0.0000 C   0  0  0  0  0  0  0  0  0  0  0  0
   -3.4856   -7.8800   -0.0000 C   0  0  0  0  0  0  0  0  0  0  0  0
   -1.1577   -9.2618   -0.0000 C   0  0  0  0  0  0  0  0  0  0  0  0
   -4.2948   -9.2120   -0.0000 C   0  0  0  0  0  0  0  0  0  0  0  0
   -1.9669  -10.5938   -0.0000 C   0  0  0  0  0  0  0  0  0  0  0  0
   -3.5354  -10.5689   -0.0000 C   0  0  0  0  0  0  0  0  0  0  0  0
   -4.8923   -8.0916   -0.0000 C   0  0  0  0  0  0  0  0  0  0  0  0
   -4.9172  -10.2950   -0.0000 C   0  0  0  0  0  0  0  0  0  0  0  0
   -4.3321  -11.9009   -0.0000 O   0  0  0  0  0  0  0  0  0  0  0  0
   -3.5728  -13.2453   -0.0000 C   0  0  0  0  0  0  0  0  0  0  0  0
   -2.7885  -14.5524   -0.0000 O   0  0  0  0  0  0  0  0  0  0  0  0
   -5.1288  -13.1831   -0.0000 C   0  0  0  0  0  0  0  0  0  0  0  0
   -3.5976  -15.8844   -0.0000 C   0  0  0  0  0  0  0  0  0  0  0  0
   -5.9380  -14.5151   -0.0000 N   0  0  0  0  0  0  0  0  0  0  0  0
   -5.1786  -15.8595   -0.0000 C   0  0  0  0  0  0  0  0  0  0  0  0
   -7.5190  -14.4902   -0.0000 C   0  0  0  0  0  0  0  0  0  0  0  0
   -8.5771  -13.3574   -0.0000 C   0  0  0  0  0  0  0  0  0  0  0  0
   -8.5895  -15.5732   -0.0000 C   0  0  0  0  0  0  0  0  0  0  0  0
   -9.7099  -14.4404   -0.0000 N   0  0  0  0  0  0  0  0  0  0  0  0
  -11.2784  -14.4155   -0.0000 C   0  0  0  0  0  0  0  0  0  0  0  0
  -12.0627  -13.0461   -0.0000 C   0  0  0  0  0  0  0  0  0  0  0  0
  -13.3200  -13.0212   -0.0000 O   0  0  0  0  0  0  0  0  0  0  0  0
  1  2  1  0  0  0  0
  3  1  1  1  0  0  0
  2  4  1  1  0  0  0
  2  5  1  0  0  0  0
  3  6  1  0  0  0  0
  7  3  1  6  0  0  0
  4  8  1  6  0  0  0
  4  9  1  0  0  0  0
  5 10  1  0  0  0  0
  6 11  1  1  0  0  0
  6 12  1  0  0  0  0
  7 13  1  0  0  0  0
  8 14  1  0  0  0  0
  9 15  1  0  0  0  0
  9 16  1  0  0  0  0
  9 17  1  0  0  0  0
 10 18  1  1  0  0  0
 12 19  1  0  0  0  0
 12 20  1  1  0  0  0
 13 21  1  0  0  0  0
 13 22  1  6  0  0  0
 14 23  1  0  0  0  0
 19 24  1  0  0  0  0
 19 25  1  1  0  0  0
 21 26  1  0  0  0  0
 24 27  1  0  0  0  0
 24 28  1  6  0  0  0
 25 29  1  0  0  0  0
 27 30  1  0  0  0  0
 27 31  1  0  0  0  0
 30 32  1  0  0  0  0
 31 33  1  0  0  0  0
 32 34  1  0  0  0  0
 32 35  1  0  0  0  0
 32 36  1  0  0  0  0
 34 37  1  6  0  0  0
 38 37  1  6  0  0  0
 38 39  1  0  0  0  0
 38 40  1  0  0  0  0
 39 41  1  0  0  0  0
 40 42  1  0  0  0  0
 41 43  1  0  0  0  0
 42 44  1  0  0  0  0
 44 45  1  0  0  0  0
 44 46  1  0  0  0  0
 45 47  1  0  0  0  0
 47 48  1  0  0  0  0
 48 49  1  0  0  0  0
 49 50  1  0  0  0  0
  7 10  1  0  0  0  0
 12 13  1  0  0  0  0
 24 26  1  0  0  0  0
 27 28  1  6  0  0  0
 30 29  1  6  0  0  0
 33 34  1  0  0  0  0
 42 43  1  0  0  0  0
 46 47  1  0  0  0  0
M  END
>  <MolRegNo>
1834046

>  <m>
=

>  <Value>
4900

>  <Unit>
nM

>  <Type>
IC50

>  <pValue>
5.31

>  <Ligand Efficiency>
0

>  <Binding Efficiency>
0

>  <Surface Efficiency>
0

>  <Assay Index>
911014

>  <Assay Category>


>  <Assay Organism>
Homo sapiens

>  <Target ID>
17045

>  <Target Name>
Cytochrome P450 3A4

>  <Target Organism>
Homo sapiens

>  <Target Description>
Target is a single protein chain

>  <Sequence Accession>
P08684

>  <Reference>
Bioorg Med Chem Lett 25 (7), 1621-1626 (2015)

>  <Pubmed ID>
25708617

>  <DOI>
10.1016/j.bmcl.2015.01.051

$$$$
1834047
Actelion Java MolfileCreator 1.0

 51 58  0  0  0  0  0  0  0  0999 V2000
    0.0000   -0.0000   -0.0000 O   0  0  0  0  0  0  0  0  0  0  0  0
   -0.1853   -1.5319   -0.0000 C   0  0  0  0  0  0  0  0  0  0  0  0
   -1.2478    0.9513   -0.0000 C   0  0  0  0  0  0  0  0  0  0  0  0
    1.1983   -0.8648   -0.0000 C   0  0  0  0  0  0  0  0  0  0  0  0
   -1.6184   -2.1496   -0.0000 C   0  0  0  0  0  0  0  0  0  0  0  0
   -1.4084    2.5079   -0.0000 C   0  0  0  0  0  0  0  0  0  0  0  0
   -2.6932    0.3459   -0.0000 C   0  0  0  0  0  0  0  0  0  0  0  0
    1.3589    0.7042   -0.0000 O   0  0  0  0  0  0  0  0  0  0  0  0
    2.4461   -1.7790   -0.0000 C   0  0  0  0  0  0  0  0  0  0  0  0
   -2.9032   -1.1736   -0.0000 C   0  0  0  0  0  0  0  0  0  0  0  0
   -0.4818    3.3356   -0.0000 O   0  0  0  0  0  0  0  0  0  0  0  0
   -2.9279    2.8785   -0.0000 C   0  0  0  0  0  0  0  0  0  0  0  0
   -3.7433    1.5319   -0.0000 C   0  0  0  0  0  0  0  0  0  0  0  0
    2.7797    1.3466   -0.0000 C   0  0  0  0  0  0  0  0  0  0  0  0
    2.2979   -3.0020   -0.0000 O   0  0  0  0  0  0  0  0  0  0  0  0
    3.4344   -2.5079   -0.0000 C   0  0  0  0  0  0  0  0  0  0  0  0
    3.5827   -1.2601   -0.0000 C   0  0  0  0  0  0  0  0  0  0  0  0
   -4.0645   -1.6431   -0.0000 C   0  0  0  0  0  0  0  0  0  0  0  0
   -3.7062    4.2621   -0.0000 C   0  0  0  0  0  0  0  0  0  0  0  0
   -2.1867    3.8915   -0.0000 C   0  0  0  0  0  0  0  0  0  0  0  0
   -5.3122    1.5690   -0.0000 C   0  0  0  0  0  0  0  0  0  0  0  0
   -4.2869    0.4077   -0.0000 C   0  0  0  0  0  0  0  0  0  0  0  0
    2.9032    2.5943   -0.0000 C   0  0  0  0  0  0  0  0  0  0  0  0
   -5.2875    4.2992   -0.0000 C   0  0  0  0  0  0  0  0  0  0  0  0
   -2.9279    5.6087   -0.0000 C   0  0  0  0  0  0  0  0  0  0  0  0
   -6.0905    2.9526   -0.0000 C   0  0  0  0  0  0  0  0  0  0  0  0
   -6.0658    5.6829   -0.0000 C   0  0  0  0  0  0  0  0  0  0  0  0
   -6.8565    4.3363   -0.0000 C   0  0  0  0  0  0  0  0  0  0  0  0
   -3.7062    6.9924   -0.0000 C   0  0  0  0  0  0  0  0  0  0  0  0
   -5.2752    7.0418   -0.0000 C   0  0  0  0  0  0  0  0  0  0  0  0
   -7.6348    5.7199   -0.0000 C   0  0  0  0  0  0  0  0  0  0  0  0
   -6.0535    8.4255   -0.0000 C   0  0  0  0  0  0  0  0  0  0  0  0
   -8.4131    7.1036   -0.0000 C   0  0  0  0  0  0  0  0  0  0  0  0
   -7.6348    8.4625   -0.0000 C   0  0  0  0  0  0  0  0  0  0  0  0
   -4.8181    8.3884   -0.0000 C   0  0  0  0  0  0  0  0  0  0  0  0
   -6.6959    9.5126   -0.0000 C   0  0  0  0  0  0  0  0  0  0  0  0
   -8.4131    9.8338   -0.0000 O   0  0  0  0  0  0  0  0  0  0  0  0
   -7.6348   11.1928   -0.0000 C   0  0  0  0  0  0  0  0  0  0  0  0
   -6.8318   12.5146   -0.0000 O   0  0  0  0  0  0  0  0  0  0  0  0
   -9.1914   11.1804   -0.0000 C   0  0  0  0  0  0  0  0  0  0  0  0
   -7.6101   13.8859   -0.0000 C   0  0  0  0  0  0  0  0  0  0  0  0
   -9.9697   12.5517   -0.0000 N   0  0  0  0  0  0  0  0  0  0  0  0
   -9.1791   13.9106   -0.0000 C   0  0  0  0  0  0  0  0  0  0  0  0
  -11.5387   12.5764   -0.0000 C   0  0  0  0  0  0  0  0  0  0  0  0
  -12.3417   11.2422   -0.0000 C   0  0  0  0  0  0  0  0  0  0  0  0
  -11.9340    9.7968   -0.0000 C   0  0  0  0  0  0  0  0  0  0  0  0
  -13.8365   10.9086   -0.0000 C   0  0  0  0  0  0  0  0  0  0  0  0
  -13.4535    9.4138   -0.0000 N   0  0  0  0  0  0  0  0  0  0  0  0
  -14.2442    8.0795   -0.0000 C   0  0  0  0  0  0  0  0  0  0  0  0
  -15.5043    8.0919   -0.0000 C   0  0  0  0  0  0  0  0  0  0  0  0
  -13.6389    7.0047   -0.0000 C   0  0  0  0  0  0  0  0  0  0  0  0
  1  2  1  0  0  0  0
  3  1  1  1  0  0  0
  2  4  1  1  0  0  0
  2  5  1  0  0  0  0
  3  6  1  0  0  0  0
  7  3  1  6  0  0  0
  4  8  1  6  0  0  0
  4  9  1  0  0  0  0
  5 10  1  0  0  0  0
  6 11  1  1  0  0  0
  6 12  1  0  0  0  0
  7 13  1  0  0  0  0
  8 14  1  0  0  0  0
  9 15  1  0  0  0  0
  9 16  1  0  0  0  0
  9 17  1  0  0  0  0
 10 18  1  1  0  0  0
 12 19  1  0  0  0  0
 12 20  1  1  0  0  0
 13 21  1  0  0  0  0
 13 22  1  6  0  0  0
 14 23  1  0  0  0  0
 19 24  1  0  0  0  0
 19 25  1  1  0  0  0
 21 26  1  0  0  0  0
 24 27  1  0  0  0  0
 24 28  1  6  0  0  0
 25 29  1  0  0  0  0
 27 30  1  0  0  0  0
 27 31  1  0  0  0  0
 30 32  1  0  0  0  0
 31 33  1  0  0  0  0
 32 34  1  0  0  0  0
 32 35  1  0  0  0  0
 32 36  1  0  0  0  0
 34 37  1  6  0  0  0
 38 37  1  1  0  0  0
 38 39  1  0  0  0  0
 38 40  1  0  0  0  0
 39 41  1  0  0  0  0
 40 42  1  0  0  0  0
 41 43  1  0  0  0  0
 42 44  1  0  0  0  0
 44 45  1  0  0  0  0
 45 46  1  0  0  0  0
 45 47  1  0  0  0  0
 46 48  1  0  0  0  0
 48 49  1  0  0  0  0
 49 50  1  0  0  0  0
 49 51  1  0  0  0  0
  7 10  1  0  0  0  0
 12 13  1  0  0  0  0
 24 26  1  0  0  0  0
 27 28  1  6  0  0  0
 30 29  1  6  0  0  0
 33 34  1  0  0  0  0
 42 43  1  0  0  0  0
 47 48  1  0  0  0  0
M  END
>  <MolRegNo>
1834047

>  <m>
=

>  <Value>
15000

>  <Unit>
nM

>  <Type>
IC50

>  <pValue>
4.82

>  <Ligand Efficiency>
0

>  <Binding Efficiency>
0

>  <Surface Efficiency>
0

>  <Assay Index>
911014

>  <Assay Category>


>  <Assay Organism>
Homo sapiens

>  <Target ID>
17045

>  <Target Name>
Cytochrome P450 3A4

>  <Target Organism>
Homo sapiens

>  <Target Description>
Target is a single protein chain

>  <Sequence Accession>
P08684

>  <Reference>
Bioorg Med Chem Lett 25 (7), 1621-1626 (2015)

>  <Pubmed ID>
25708617

>  <DOI>
10.1016/j.bmcl.2015.01.051

$$$$
1834048
Actelion Java MolfileCreator 1.0

 52 60  0  0  0  0  0  0  0  0999 V2000
    0.0000   -0.0000   -0.0000 O   0  0  0  0  0  0  0  0  0  0  0  0
    1.4119    0.6316   -0.0000 C   0  0  0  0  0  0  0  0  0  0  0  0
   -0.1982   -1.5234   -0.0000 C   0  0  0  0  0  0  0  0  0  0  0  0
    0.1362    1.5234   -0.0000 C   0  0  0  0  0  0  0  0  0  0  0  0
    2.6504   -0.2601   -0.0000 C   0  0  0  0  0  0  0  0  0  0  0  0
   -1.4738   -2.4151   -0.0000 C   0  0  0  0  0  0  0  0  0  0  0  0
    1.0404   -2.4275   -0.0000 C   0  0  0  0  0  0  0  0  0  0  0  0
   -1.3004    0.9041   -0.0000 O   0  0  0  0  0  0  0  0  0  0  0  0
    0.2972    3.0839   -0.0000 C   0  0  0  0  0  0  0  0  0  0  0  0
    2.4523   -1.8206   -0.0000 C   0  0  0  0  0  0  0  0  0  0  0  0
   -2.6628   -2.0064   -0.0000 O   0  0  0  0  0  0  0  0  0  0  0  0
   -1.0404   -3.8766   -0.0000 C   0  0  0  0  0  0  0  0  0  0  0  0
    0.5326   -3.9013   -0.0000 C   0  0  0  0  0  0  0  0  0  0  0  0
   -2.5761    1.8330   -0.0000 C   0  0  0  0  0  0  0  0  0  0  0  0
    1.4243    3.6041   -0.0000 O   0  0  0  0  0  0  0  0  0  0  0  0
    0.4211    4.3348   -0.0000 C   0  0  0  0  0  0  0  0  0  0  0  0
   -0.7183    3.8270   -0.0000 C   0  0  0  0  0  0  0  0  0  0  0  0
    3.4307   -2.5637   -0.0000 C   0  0  0  0  0  0  0  0  0  0  0  0
   -1.8454   -5.2018   -0.0000 C   0  0  0  0  0  0  0  0  0  0  0  0
   -2.2913   -3.7156   -0.0000 C   0  0  0  0  0  0  0  0  0  0  0  0
    1.2757   -5.2389   -0.0000 C   0  0  0  0  0  0  0  0  0  0  0  0
    1.7587   -3.7775   -0.0000 C   0  0  0  0  0  0  0  0  0  0  0  0
   -3.7279    1.3376   -0.0000 C   0  0  0  0  0  0  0  0  0  0  0  0
   -1.0899   -6.5518   -0.0000 C   0  0  0  0  0  0  0  0  0  0  0  0
   -3.4059   -5.1770   -0.0000 C   0  0  0  0  0  0  0  0  0  0  0  0
    0.4706   -6.5642   -0.0000 C   0  0  0  0  0  0  0  0  0  0  0  0
   -1.8949   -7.8770   -0.0000 C   0  0  0  0  0  0  0  0  0  0  0  0
   -0.3468   -7.8894   -0.0000 C   0  0  0  0  0  0  0  0  0  0  0  0
   -4.2110   -6.5022   -0.0000 C   0  0  0  0  0  0  0  0  0  0  0  0
   -3.4679   -7.8398   -0.0000 C   0  0  0  0  0  0  0  0  0  0  0  0
   -1.1518   -9.2146   -0.0000 C   0  0  0  0  0  0  0  0  0  0  0  0
   -4.2729   -9.1650   -0.0000 C   0  0  0  0  0  0  0  0  0  0  0  0
   -1.9569  -10.5398   -0.0000 C   0  0  0  0  0  0  0  0  0  0  0  0
   -3.5174  -10.5150   -0.0000 C   0  0  0  0  0  0  0  0  0  0  0  0
   -4.8674   -8.0504   -0.0000 C   0  0  0  0  0  0  0  0  0  0  0  0
   -4.8922  -10.2426   -0.0000 C   0  0  0  0  0  0  0  0  0  0  0  0
   -4.3100  -11.8402   -0.0000 O   0  0  0  0  0  0  0  0  0  0  0  0
   -3.5546  -13.1778   -0.0000 C   0  0  0  0  0  0  0  0  0  0  0  0
   -2.7743  -14.4783   -0.0000 O   0  0  0  0  0  0  0  0  0  0  0  0
   -5.1027  -13.1159   -0.0000 C   0  0  0  0  0  0  0  0  0  0  0  0
   -3.5793  -15.8035   -0.0000 C   0  0  0  0  0  0  0  0  0  0  0  0
   -5.9077  -14.4411   -0.0000 N   0  0  0  0  0  0  0  0  0  0  0  0
   -5.1522  -15.7787   -0.0000 C   0  0  0  0  0  0  0  0  0  0  0  0
   -7.4807  -14.4164   -0.0000 C   0  0  0  0  0  0  0  0  0  0  0  0
   -8.2609  -13.0540   -0.0000 C   0  0  0  0  0  0  0  0  0  0  0  0
   -7.8274  -11.5925   -0.0000 C   0  0  0  0  0  0  0  0  0  0  0  0
   -9.7471  -12.6701   -0.0000 C   0  0  0  0  0  0  0  0  0  0  0  0
   -9.3384  -11.1591   -0.0000 N   0  0  0  0  0  0  0  0  0  0  0  0
  -10.1187   -9.7967   -0.0000 C   0  0  0  0  0  0  0  0  0  0  0  0
   -9.3880   -8.4591   -0.0000 C   0  0  0  0  0  0  0  0  0  0  0  0
  -11.4935   -9.1279   -0.0000 C   0  0  0  0  0  0  0  0  0  0  0  0
  -10.7875   -7.7407   -0.0000 C   0  0  0  0  0  0  0  0  0  0  0  0
  1  2  1  0  0  0  0
  3  1  1  1  0  0  0
  2  4  1  1  0  0  0
  2  5  1  0  0  0  0
  3  6  1  0  0  0  0
  7  3  1  6  0  0  0
  4  8  1  6  0  0  0
  4  9  1  0  0  0  0
  5 10  1  0  0  0  0
  6 11  1  1  0  0  0
  6 12  1  0  0  0  0
  7 13  1  0  0  0  0
  8 14  1  0  0  0  0
  9 15  1  0  0  0  0
  9 16  1  0  0  0  0
  9 17  1  0  0  0  0
 10 18  1  1  0  0  0
 12 19  1  0  0  0  0
 12 20  1  1  0  0  0
 13 21  1  0  0  0  0
 13 22  1  6  0  0  0
 14 23  1  0  0  0  0
 19 24  1  0  0  0  0
 19 25  1  1  0  0  0
 21 26  1  0  0  0  0
 24 27  1  0  0  0  0
 24 28  1  6  0  0  0
 25 29  1  0  0  0  0
 27 30  1  0  0  0  0
 27 31  1  0  0  0  0
 30 32  1  0  0  0  0
 31 33  1  0  0  0  0
 32 34  1  0  0  0  0
 32 35  1  0  0  0  0
 32 36  1  0  0  0  0
 34 37  1  6  0  0  0
 38 37  1  6  0  0  0
 38 39  1  0  0  0  0
 38 40  1  0  0  0  0
 39 41  1  0  0  0  0
 40 42  1  0  0  0  0
 41 43  1  0  0  0  0
 42 44  1  0  0  0  0
 44 45  1  0  0  0  0
 45 46  1  0  0  0  0
 45 47  1  0  0  0  0
 46 48  1  0  0  0  0
 48 49  1  0  0  0  0
 49 50  1  0  0  0  0
 49 51  1  0  0  0  0
 50 52  1  0  0  0  0
  7 10  1  0  0  0  0
 12 13  1  0  0  0  0
 24 26  1  0  0  0  0
 27 28  1  6  0  0  0
 30 29  1  6  0  0  0
 33 34  1  0  0  0  0
 42 43  1  0  0  0  0
 47 48  1  0  0  0  0
 51 52  1  0  0  0  0
M  END
>  <MolRegNo>
1834048

>  <m>
=

>  <Value>
13000

>  <Unit>
nM

>  <Type>
IC50

>  <pValue>
4.89

>  <Ligand Efficiency>
0

>  <Binding Efficiency>
0

>  <Surface Efficiency>
0

>  <Assay Index>
911014

>  <Assay Category>


>  <Assay Organism>
Homo sapiens

>  <Target ID>
17045

>  <Target Name>
Cytochrome P450 3A4

>  <Target Organism>
Homo sapiens

>  <Target Description>
Target is a single protein chain

>  <Sequence Accession>
P08684

>  <Reference>
Bioorg Med Chem Lett 25 (7), 1621-1626 (2015)

>  <Pubmed ID>
25708617

>  <DOI>
10.1016/j.bmcl.2015.01.051

$$$$
1834049
Actelion Java MolfileCreator 1.0

 52 60  0  0  0  0  0  0  0  0999 V2000
    0.0000   -0.0000   -0.0000 O   0  0  0  0  0  0  0  0  0  0  0  0
    1.4119    0.6316   -0.0000 C   0  0  0  0  0  0  0  0  0  0  0  0
   -0.1982   -1.5234   -0.0000 C   0  0  0  0  0  0  0  0  0  0  0  0
    0.1362    1.5234   -0.0000 C   0  0  0  0  0  0  0  0  0  0  0  0
    2.6504   -0.2601   -0.0000 C   0  0  0  0  0  0  0  0  0  0  0  0
   -1.4738   -2.4151   -0.0000 C   0  0  0  0  0  0  0  0  0  0  0  0
    1.0404   -2.4275   -0.0000 C   0  0  0  0  0  0  0  0  0  0  0  0
   -1.3004    0.9041   -0.0000 O   0  0  0  0  0  0  0  0  0  0  0  0
    0.2972    3.0839   -0.0000 C   0  0  0  0  0  0  0  0  0  0  0  0
    2.4523   -1.8206   -0.0000 C   0  0  0  0  0  0  0  0  0  0  0  0
   -2.6628   -2.0064   -0.0000 O   0  0  0  0  0  0  0  0  0  0  0  0
   -1.0404   -3.8766   -0.0000 C   0  0  0  0  0  0  0  0  0  0  0  0
    0.5326   -3.9013   -0.0000 C   0  0  0  0  0  0  0  0  0  0  0  0
   -2.5761    1.8330   -0.0000 C   0  0  0  0  0  0  0  0  0  0  0  0
    1.4243    3.6041   -0.0000 O   0  0  0  0  0  0  0  0  0  0  0  0
    0.4211    4.3348   -0.0000 C   0  0  0  0  0  0  0  0  0  0  0  0
   -0.7183    3.8270   -0.0000 C   0  0  0  0  0  0  0  0  0  0  0  0
    3.4307   -2.5637   -0.0000 C   0  0  0  0  0  0  0  0  0  0  0  0
   -1.8454   -5.2018   -0.0000 C   0  0  0  0  0  0  0  0  0  0  0  0
   -2.2913   -3.7156   -0.0000 C   0  0  0  0  0  0  0  0  0  0  0  0
    1.2757   -5.2389   -0.0000 C   0  0  0  0  0  0  0  0  0  0  0  0
    1.7587   -3.7775   -0.0000 C   0  0  0  0  0  0  0  0  0  0  0  0
   -3.7279    1.3376   -0.0000 C   0  0  0  0  0  0  0  0  0  0  0  0
   -1.0899   -6.5518   -0.0000 C   0  0  0  0  0  0  0  0  0  0  0  0
   -3.4059   -5.1770   -0.0000 C   0  0  0  0  0  0  0  0  0  0  0  0
    0.4706   -6.5642   -0.0000 C   0  0  0  0  0  0  0  0  0  0  0  0
   -1.8949   -7.8770   -0.0000 C   0  0  0  0  0  0  0  0  0  0  0  0
   -0.3468   -7.8894   -0.0000 C   0  0  0  0  0  0  0  0  0  0  0  0
   -4.2110   -6.5022   -0.0000 C   0  0  0  0  0  0  0  0  0  0  0  0
   -3.4679   -7.8398   -0.0000 C   0  0  0  0  0  0  0  0  0  0  0  0
   -1.1518   -9.2146   -0.0000 C   0  0  0  0  0  0  0  0  0  0  0  0
   -4.2729   -9.1650   -0.0000 C   0  0  0  0  0  0  0  0  0  0  0  0
   -1.9569  -10.5398   -0.0000 C   0  0  0  0  0  0  0  0  0  0  0  0
   -3.5174  -10.5150   -0.0000 C   0  0  0  0  0  0  0  0  0  0  0  0
   -4.8674   -8.0504   -0.0000 C   0  0  0  0  0  0  0  0  0  0  0  0
   -4.8922  -10.2426   -0.0000 C   0  0  0  0  0  0  0  0  0  0  0  0
   -4.3100  -11.8402   -0.0000 O   0  0  0  0  0  0  0  0  0  0  0  0
   -3.5546  -13.1778   -0.0000 C   0  0  0  0  0  0  0  0  0  0  0  0
   -2.7743  -14.4783   -0.0000 O   0  0  0  0  0  0  0  0  0  0  0  0
   -5.1027  -13.1159   -0.0000 C   0  0  0  0  0  0  0  0  0  0  0  0
   -3.5793  -15.8035   -0.0000 C   0  0  0  0  0  0  0  0  0  0  0  0
   -5.9077  -14.4411   -0.0000 N   0  0  0  0  0  0  0  0  0  0  0  0
   -5.1522  -15.7787   -0.0000 C   0  0  0  0  0  0  0  0  0  0  0  0
   -7.4807  -14.4164   -0.0000 C   0  0  0  0  0  0  0  0  0  0  0  0
   -8.2609  -13.0540   -0.0000 C   0  0  0  0  0  0  0  0  0  0  0  0
   -7.8274  -11.5925   -0.0000 C   0  0  0  0  0  0  0  0  0  0  0  0
   -9.7471  -12.6701   -0.0000 C   0  0  0  0  0  0  0  0  0  0  0  0
   -9.3384  -11.1591   -0.0000 N   0  0  0  0  0  0  0  0  0  0  0  0
  -10.1187   -9.7967   -0.0000 C   0  0  0  0  0  0  0  0  0  0  0  0
   -9.3880   -8.4591   -0.0000 C   0  0  0  0  0  0  0  0  0  0  0  0
  -11.4935   -9.1279   -0.0000 C   0  0  0  0  0  0  0  0  0  0  0  0
  -10.7875   -7.7407   -0.0000 O   0  0  0  0  0  0  0  0  0  0  0  0
  1  2  1  0  0  0  0
  3  1  1  1  0  0  0
  2  4  1  1  0  0  0
  2  5  1  0  0  0  0
  3  6  1  0  0  0  0
  7  3  1  6  0  0  0
  4  8  1  6  0  0  0
  4  9  1  0  0  0  0
  5 10  1  0  0  0  0
  6 11  1  1  0  0  0
  6 12  1  0  0  0  0
  7 13  1  0  0  0  0
  8 14  1  0  0  0  0
  9 15  1  0  0  0  0
  9 16  1  0  0  0  0
  9 17  1  0  0  0  0
 10 18  1  1  0  0  0
 12 19  1  0  0  0  0
 12 20  1  1  0  0  0
 13 21  1  0  0  0  0
 13 22  1  6  0  0  0
 14 23  1  0  0  0  0
 19 24  1  0  0  0  0
 19 25  1  1  0  0  0
 21 26  1  0  0  0  0
 24 27  1  0  0  0  0
 24 28  1  6  0  0  0
 25 29  1  0  0  0  0
 27 30  1  0  0  0  0
 27 31  1  0  0  0  0
 30 32  1  0  0  0  0
 31 33  1  0  0  0  0
 32 34  1  0  0  0  0
 32 35  1  0  0  0  0
 32 36  1  0  0  0  0
 34 37  1  6  0  0  0
 38 37  1  6  0  0  0
 38 39  1  0  0  0  0
 38 40  1  0  0  0  0
 39 41  1  0  0  0  0
 40 42  1  0  0  0  0
 41 43  1  0  0  0  0
 42 44  1  0  0  0  0
 44 45  1  0  0  0  0
 45 46  1  0  0  0  0
 45 47  1  0  0  0  0
 46 48  1  0  0  0  0
 48 49  1  0  0  0  0
 49 50  1  0  0  0  0
 49 51  1  0  0  0  0
 50 52  1  0  0  0  0
  7 10  1  0  0  0  0
 12 13  1  0  0  0  0
 24 26  1  0  0  0  0
 27 28  1  6  0  0  0
 30 29  1  6  0  0  0
 33 34  1  0  0  0  0
 42 43  1  0  0  0  0
 47 48  1  0  0  0  0
 51 52  1  0  0  0  0
M  END
>  <MolRegNo>
1834049

>  <m>
=

>  <Value>
6600

>  <Unit>
nM

>  <Type>
IC50

>  <pValue>
5.18

>  <Ligand Efficiency>
0

>  <Binding Efficiency>
0

>  <Surface Efficiency>
0

>  <Assay Index>
911014

>  <Assay Category>


>  <Assay Organism>
Homo sapiens

>  <Target ID>
17045

>  <Target Name>
Cytochrome P450 3A4

>  <Target Organism>
Homo sapiens

>  <Target Description>
Target is a single protein chain

>  <Sequence Accession>
P08684

>  <Reference>
Bioorg Med Chem Lett 25 (7), 1621-1626 (2015)

>  <Pubmed ID>
25708617

>  <DOI>
10.1016/j.bmcl.2015.01.051

$$$$
1834050
Actelion Java MolfileCreator 1.0

 52 59  0  0  0  0  0  0  0  0999 V2000
    0.0000   -0.0000   -0.0000 O   0  0  0  0  0  0  0  0  0  0  0  0
    1.4168    0.6338   -0.0000 C   0  0  0  0  0  0  0  0  0  0  0  0
   -0.1989   -1.5287   -0.0000 C   0  0  0  0  0  0  0  0  0  0  0  0
    0.1367    1.5287   -0.0000 C   0  0  0  0  0  0  0  0  0  0  0  0
    2.6596   -0.2610   -0.0000 C   0  0  0  0  0  0  0  0  0  0  0  0
   -1.4790   -2.4235   -0.0000 C   0  0  0  0  0  0  0  0  0  0  0  0
    1.0440   -2.4359   -0.0000 C   0  0  0  0  0  0  0  0  0  0  0  0
   -1.3050    0.9073   -0.0000 O   0  0  0  0  0  0  0  0  0  0  0  0
    0.2983    3.0946   -0.0000 C   0  0  0  0  0  0  0  0  0  0  0  0
    2.4608   -1.8269   -0.0000 C   0  0  0  0  0  0  0  0  0  0  0  0
   -2.6721   -2.0134   -0.0000 O   0  0  0  0  0  0  0  0  0  0  0  0
   -1.0440   -3.8900   -0.0000 C   0  0  0  0  0  0  0  0  0  0  0  0
    0.5344   -3.9149   -0.0000 C   0  0  0  0  0  0  0  0  0  0  0  0
   -2.5851    1.8394   -0.0000 C   0  0  0  0  0  0  0  0  0  0  0  0
    1.4292    3.6166   -0.0000 O   0  0  0  0  0  0  0  0  0  0  0  0
    0.4226    4.3499   -0.0000 C   0  0  0  0  0  0  0  0  0  0  0  0
   -0.7208    3.8403   -0.0000 C   0  0  0  0  0  0  0  0  0  0  0  0
    3.4426   -2.5726   -0.0000 C   0  0  0  0  0  0  0  0  0  0  0  0
   -1.8518   -5.2198   -0.0000 C   0  0  0  0  0  0  0  0  0  0  0  0
   -2.2992   -3.7284   -0.0000 C   0  0  0  0  0  0  0  0  0  0  0  0
    1.2801   -5.2571   -0.0000 C   0  0  0  0  0  0  0  0  0  0  0  0
    1.7648   -3.7906   -0.0000 C   0  0  0  0  0  0  0  0  0  0  0  0
   -3.7409    1.3422   -0.0000 C   0  0  0  0  0  0  0  0  0  0  0  0
   -1.0937   -6.5745   -0.0000 C   0  0  0  0  0  0  0  0  0  0  0  0
   -3.4177   -5.1950   -0.0000 C   0  0  0  0  0  0  0  0  0  0  0  0
    0.4723   -6.5869   -0.0000 C   0  0  0  0  0  0  0  0  0  0  0  0
   -1.9015   -7.9043   -0.0000 C   0  0  0  0  0  0  0  0  0  0  0  0
   -0.3480   -7.9167   -0.0000 C   0  0  0  0  0  0  0  0  0  0  0  0
   -4.2256   -6.5248   -0.0000 C   0  0  0  0  0  0  0  0  0  0  0  0
   -3.4799   -7.8670   -0.0000 C   0  0  0  0  0  0  0  0  0  0  0  0
   -1.1558   -9.2465   -0.0000 C   0  0  0  0  0  0  0  0  0  0  0  0
   -4.2877   -9.1968   -0.0000 C   0  0  0  0  0  0  0  0  0  0  0  0
   -1.9636  -10.5764   -0.0000 C   0  0  0  0  0  0  0  0  0  0  0  0
   -3.5296  -10.5515   -0.0000 C   0  0  0  0  0  0  0  0  0  0  0  0
   -4.8843   -8.0783   -0.0000 C   0  0  0  0  0  0  0  0  0  0  0  0
   -4.9091  -10.2781   -0.0000 C   0  0  0  0  0  0  0  0  0  0  0  0
   -4.3250  -11.8813   -0.0000 O   0  0  0  0  0  0  0  0  0  0  0  0
   -3.5669  -13.2236   -0.0000 C   0  0  0  0  0  0  0  0  0  0  0  0
   -2.7839  -14.5285   -0.0000 O   0  0  0  0  0  0  0  0  0  0  0  0
   -5.1204  -13.1614   -0.0000 C   0  0  0  0  0  0  0  0  0  0  0  0
   -3.5917  -15.8583   -0.0000 C   0  0  0  0  0  0  0  0  0  0  0  0
   -5.9282  -14.4912   -0.0000 N   0  0  0  0  0  0  0  0  0  0  0  0
   -5.1701  -15.8335   -0.0000 C   0  0  0  0  0  0  0  0  0  0  0  0
   -7.5066  -14.4664   -0.0000 C   0  0  0  0  0  0  0  0  0  0  0  0
   -8.2896  -13.0993   -0.0000 C   0  0  0  0  0  0  0  0  0  0  0  0
   -7.8546  -11.6328   -0.0000 C   0  0  0  0  0  0  0  0  0  0  0  0
   -9.7810  -12.7140   -0.0000 C   0  0  0  0  0  0  0  0  0  0  0  0
   -9.3708  -11.1978   -0.0000 N   0  0  0  0  0  0  0  0  0  0  0  0
  -10.1414   -9.8307   -0.0000 C   0  0  0  0  0  0  0  0  0  0  0  0
   -9.3584   -8.4760   -0.0000 C   0  0  0  0  0  0  0  0  0  0  0  0
  -10.1414   -7.0965   -0.0000 O   0  0  0  0  0  0  0  0  0  0  0  0
   -9.5200   -6.0152   -0.0000 C   0  0  0  0  0  0  0  0  0  0  0  0
  1  2  1  0  0  0  0
  3  1  1  1  0  0  0
  2  4  1  1  0  0  0
  2  5  1  0  0  0  0
  3  6  1  0  0  0  0
  7  3  1  6  0  0  0
  4  8  1  6  0  0  0
  4  9  1  0  0  0  0
  5 10  1  0  0  0  0
  6 11  1  1  0  0  0
  6 12  1  0  0  0  0
  7 13  1  0  0  0  0
  8 14  1  0  0  0  0
  9 15  1  0  0  0  0
  9 16  1  0  0  0  0
  9 17  1  0  0  0  0
 10 18  1  1  0  0  0
 12 19  1  0  0  0  0
 12 20  1  1  0  0  0
 13 21  1  0  0  0  0
 13 22  1  6  0  0  0
 14 23  1  0  0  0  0
 19 24  1  0  0  0  0
 19 25  1  1  0  0  0
 21 26  1  0  0  0  0
 24 27  1  0  0  0  0
 24 28  1  6  0  0  0
 25 29  1  0  0  0  0
 27 30  1  0  0  0  0
 27 31  1  0  0  0  0
 30 32  1  0  0  0  0
 31 33  1  0  0  0  0
 32 34  1  0  0  0  0
 32 35  1  0  0  0  0
 32 36  1  0  0  0  0
 34 37  1  6  0  0  0
 38 37  1  6  0  0  0
 38 39  1  0  0  0  0
 38 40  1  0  0  0  0
 39 41  1  0  0  0  0
 40 42  1  0  0  0  0
 41 43  1  0  0  0  0
 42 44  1  0  0  0  0
 44 45  1  0  0  0  0
 45 46  1  0  0  0  0
 45 47  1  0  0  0  0
 46 48  1  0  0  0  0
 48 49  1  0  0  0  0
 49 50  1  0  0  0  0
 50 51  1  0  0  0  0
 51 52  1  0  0  0  0
  7 10  1  0  0  0  0
 12 13  1  0  0  0  0
 24 26  1  0  0  0  0
 27 28  1  6  0  0  0
 30 29  1  6  0  0  0
 33 34  1  0  0  0  0
 42 43  1  0  0  0  0
 47 48  1  0  0  0  0
M  END
>  <MolRegNo>
1834050

>  <m>
=

>  <Value>
22000

>  <Unit>
nM

>  <Type>
IC50

>  <pValue>
4.66

>  <Ligand Efficiency>
0

>  <Binding Efficiency>
0

>  <Surface Efficiency>
0

>  <Assay Index>
911014

>  <Assay Category>


>  <Assay Organism>
Homo sapiens

>  <Target ID>
17045

>  <Target Name>
Cytochrome P450 3A4

>  <Target Organism>
Homo sapiens

>  <Target Description>
Target is a single protein chain

>  <Sequence Accession>
P08684

>  <Reference>
Bioorg Med Chem Lett 25 (7), 1621-1626 (2015)

>  <Pubmed ID>
25708617

>  <DOI>
10.1016/j.bmcl.2015.01.051

$$$$
1834051
Actelion Java MolfileCreator 1.0

 53 60  0  0  0  0  0  0  0  0999 V2000
    0.0000   -0.0000   -0.0000 O   0  0  0  0  0  0  0  0  0  0  0  0
    1.4261    0.6380   -0.0000 C   0  0  0  0  0  0  0  0  0  0  0  0
   -0.2002   -1.5387   -0.0000 C   0  0  0  0  0  0  0  0  0  0  0  0
    0.1376    1.5387   -0.0000 C   0  0  0  0  0  0  0  0  0  0  0  0
    2.6771   -0.2627   -0.0000 C   0  0  0  0  0  0  0  0  0  0  0  0
   -1.4887   -2.4394   -0.0000 C   0  0  0  0  0  0  0  0  0  0  0  0
    1.0508   -2.4519   -0.0000 C   0  0  0  0  0  0  0  0  0  0  0  0
   -1.3135    0.9132   -0.0000 O   0  0  0  0  0  0  0  0  0  0  0  0
    0.3002    3.1149   -0.0000 C   0  0  0  0  0  0  0  0  0  0  0  0
    2.4769   -1.8389   -0.0000 C   0  0  0  0  0  0  0  0  0  0  0  0
   -2.6896   -2.0266   -0.0000 O   0  0  0  0  0  0  0  0  0  0  0  0
   -1.0508   -3.9156   -0.0000 C   0  0  0  0  0  0  0  0  0  0  0  0
    0.5379   -3.9406   -0.0000 C   0  0  0  0  0  0  0  0  0  0  0  0
   -2.6020    1.8514   -0.0000 C   0  0  0  0  0  0  0  0  0  0  0  0
    1.4386    3.6403   -0.0000 O   0  0  0  0  0  0  0  0  0  0  0  0
    0.4253    4.3784   -0.0000 C   0  0  0  0  0  0  0  0  0  0  0  0
   -0.7256    3.8655   -0.0000 C   0  0  0  0  0  0  0  0  0  0  0  0
    3.4652   -2.5895   -0.0000 C   0  0  0  0  0  0  0  0  0  0  0  0
   -1.8640   -5.2541   -0.0000 C   0  0  0  0  0  0  0  0  0  0  0  0
   -2.3143   -3.7529   -0.0000 C   0  0  0  0  0  0  0  0  0  0  0  0
    1.2885   -5.2916   -0.0000 C   0  0  0  0  0  0  0  0  0  0  0  0
    1.7764   -3.8155   -0.0000 C   0  0  0  0  0  0  0  0  0  0  0  0
   -3.7654    1.3511   -0.0000 C   0  0  0  0  0  0  0  0  0  0  0  0
   -1.1009   -6.6177   -0.0000 C   0  0  0  0  0  0  0  0  0  0  0  0
   -3.4402   -5.2291   -0.0000 C   0  0  0  0  0  0  0  0  0  0  0  0
    0.4754   -6.6302   -0.0000 C   0  0  0  0  0  0  0  0  0  0  0  0
   -1.9140   -7.9562   -0.0000 C   0  0  0  0  0  0  0  0  0  0  0  0
   -0.3503   -7.9687   -0.0000 C   0  0  0  0  0  0  0  0  0  0  0  0
   -4.2533   -6.5676   -0.0000 C   0  0  0  0  0  0  0  0  0  0  0  0
   -3.5027   -7.9187   -0.0000 C   0  0  0  0  0  0  0  0  0  0  0  0
   -1.1634   -9.3073   -0.0000 C   0  0  0  0  0  0  0  0  0  0  0  0
   -4.3159   -9.2572   -0.0000 C   0  0  0  0  0  0  0  0  0  0  0  0
   -1.9765  -10.6458   -0.0000 C   0  0  0  0  0  0  0  0  0  0  0  0
   -3.5528  -10.6208   -0.0000 C   0  0  0  0  0  0  0  0  0  0  0  0
   -4.9163   -8.1313   -0.0000 C   0  0  0  0  0  0  0  0  0  0  0  0
   -4.9414  -10.3456   -0.0000 C   0  0  0  0  0  0  0  0  0  0  0  0
   -4.3534  -11.9593   -0.0000 O   0  0  0  0  0  0  0  0  0  0  0  0
   -3.5903  -13.3104   -0.0000 C   0  0  0  0  0  0  0  0  0  0  0  0
   -2.8022  -14.6239   -0.0000 O   0  0  0  0  0  0  0  0  0  0  0  0
   -5.1540  -13.2478   -0.0000 C   0  0  0  0  0  0  0  0  0  0  0  0
   -3.6153  -15.9625   -0.0000 C   0  0  0  0  0  0  0  0  0  0  0  0
   -5.9672  -14.5864   -0.0000 N   0  0  0  0  0  0  0  0  0  0  0  0
   -5.2041  -15.9374   -0.0000 C   0  0  0  0  0  0  0  0  0  0  0  0
   -7.5559  -14.5614   -0.0000 C   0  0  0  0  0  0  0  0  0  0  0  0
   -8.3440  -13.1853   -0.0000 C   0  0  0  0  0  0  0  0  0  0  0  0
   -7.9062  -11.7091   -0.0000 C   0  0  0  0  0  0  0  0  0  0  0  0
   -9.8452  -12.7975   -0.0000 C   0  0  0  0  0  0  0  0  0  0  0  0
   -9.4324  -11.2713   -0.0000 N   0  0  0  0  0  0  0  0  0  0  0  0
  -10.2080   -9.8952   -0.0000 C   0  0  0  0  0  0  0  0  0  0  0  0
   -9.4199   -8.5317   -0.0000 C   0  0  0  0  0  0  0  0  0  0  0  0
  -10.0453   -7.4183   -0.0000 O   0  0  0  0  0  0  0  0  0  0  0  0
   -8.1814   -8.5317   -0.0000 C   0  0  0  0  0  0  0  0  0  0  0  0
   -8.7944   -7.4433   -0.0000 C   0  0  0  0  0  0  0  0  0  0  0  0
  1  2  1  0  0  0  0
  3  1  1  1  0  0  0
  2  4  1  1  0  0  0
  2  5  1  0  0  0  0
  3  6  1  0  0  0  0
  7  3  1  6  0  0  0
  4  8  1  6  0  0  0
  4  9  1  0  0  0  0
  5 10  1  0  0  0  0
  6 11  1  1  0  0  0
  6 12  1  0  0  0  0
  7 13  1  0  0  0  0
  8 14  1  0  0  0  0
  9 15  1  0  0  0  0
  9 16  1  0  0  0  0
  9 17  1  0  0  0  0
 10 18  1  1  0  0  0
 12 19  1  0  0  0  0
 12 20  1  1  0  0  0
 13 21  1  0  0  0  0
 13 22  1  6  0  0  0
 14 23  1  0  0  0  0
 19 24  1  0  0  0  0
 19 25  1  1  0  0  0
 21 26  1  0  0  0  0
 24 27  1  0  0  0  0
 24 28  1  6  0  0  0
 25 29  1  0  0  0  0
 27 30  1  0  0  0  0
 27 31  1  0  0  0  0
 30 32  1  0  0  0  0
 31 33  1  0  0  0  0
 32 34  1  0  0  0  0
 32 35  1  0  0  0  0
 32 36  1  0  0  0  0
 34 37  1  6  0  0  0
 38 37  1  6  0  0  0
 38 39  1  0  0  0  0
 38 40  1  0  0  0  0
 39 41  1  0  0  0  0
 40 42  1  0  0  0  0
 41 43  1  0  0  0  0
 42 44  1  0  0  0  0
 44 45  1  0  0  0  0
 45 46  1  0  0  0  0
 45 47  1  0  0  0  0
 46 48  1  0  0  0  0
 48 49  1  0  0  0  0
 49 50  1  0  0  0  0
 50 51  1  0  0  0  0
 50 52  1  0  0  0  0
 50 53  1  0  0  0  0
  7 10  1  0  0  0  0
 12 13  1  0  0  0  0
 24 26  1  0  0  0  0
 27 28  1  6  0  0  0
 30 29  1  6  0  0  0
 33 34  1  0  0  0  0
 42 43  1  0  0  0  0
 47 48  1  0  0  0  0
M  END
>  <MolRegNo>
1834051

>  <m>
=

>  <Value>
14000

>  <Unit>
nM

>  <Type>
IC50

>  <pValue>
4.85

>  <Ligand Efficiency>
0

>  <Binding Efficiency>
0

>  <Surface Efficiency>
0

>  <Assay Index>
911014

>  <Assay Category>


>  <Assay Organism>
Homo sapiens

>  <Target ID>
17045

>  <Target Name>
Cytochrome P450 3A4

>  <Target Organism>
Homo sapiens

>  <Target Description>
Target is a single protein chain

>  <Sequence Accession>
P08684

>  <Reference>
Bioorg Med Chem Lett 25 (7), 1621-1626 (2015)

>  <Pubmed ID>
25708617

>  <DOI>
10.1016/j.bmcl.2015.01.051

$$$$
1834052
Actelion Java MolfileCreator 1.0

 51 58  0  0  0  0  0  0  0  0999 V2000
    0.0000   -0.0000   -0.0000 O   0  0  0  0  0  0  0  0  0  0  0  0
    1.4179    0.6343   -0.0000 C   0  0  0  0  0  0  0  0  0  0  0  0
   -0.1990   -1.5298   -0.0000 C   0  0  0  0  0  0  0  0  0  0  0  0
    0.1368    1.5298   -0.0000 C   0  0  0  0  0  0  0  0  0  0  0  0
    2.6616   -0.2612   -0.0000 C   0  0  0  0  0  0  0  0  0  0  0  0
   -1.4800   -2.4253   -0.0000 C   0  0  0  0  0  0  0  0  0  0  0  0
    1.0447   -2.4377   -0.0000 C   0  0  0  0  0  0  0  0  0  0  0  0
   -1.3059    0.9079   -0.0000 O   0  0  0  0  0  0  0  0  0  0  0  0
    0.2985    3.0969   -0.0000 C   0  0  0  0  0  0  0  0  0  0  0  0
    2.4626   -1.8283   -0.0000 C   0  0  0  0  0  0  0  0  0  0  0  0
   -2.6740   -2.0149   -0.0000 O   0  0  0  0  0  0  0  0  0  0  0  0
   -1.0447   -3.8929   -0.0000 C   0  0  0  0  0  0  0  0  0  0  0  0
    0.5348   -3.9178   -0.0000 C   0  0  0  0  0  0  0  0  0  0  0  0
   -2.5870    1.8407   -0.0000 C   0  0  0  0  0  0  0  0  0  0  0  0
    1.4303    3.6193   -0.0000 O   0  0  0  0  0  0  0  0  0  0  0  0
    0.4229    4.3531   -0.0000 C   0  0  0  0  0  0  0  0  0  0  0  0
   -0.7214    3.8432   -0.0000 C   0  0  0  0  0  0  0  0  0  0  0  0
    3.4452   -2.5745   -0.0000 C   0  0  0  0  0  0  0  0  0  0  0  0
   -1.8532   -5.2237   -0.0000 C   0  0  0  0  0  0  0  0  0  0  0  0
   -2.3009   -3.7312   -0.0000 C   0  0  0  0  0  0  0  0  0  0  0  0
    1.2811   -5.2610   -0.0000 C   0  0  0  0  0  0  0  0  0  0  0  0
    1.7661   -3.7934   -0.0000 C   0  0  0  0  0  0  0  0  0  0  0  0
   -3.7437    1.3432   -0.0000 C   0  0  0  0  0  0  0  0  0  0  0  0
   -1.0945   -6.5794   -0.0000 C   0  0  0  0  0  0  0  0  0  0  0  0
   -3.4203   -5.1988   -0.0000 C   0  0  0  0  0  0  0  0  0  0  0  0
    0.4726   -6.5918   -0.0000 C   0  0  0  0  0  0  0  0  0  0  0  0
   -1.9029   -7.9102   -0.0000 C   0  0  0  0  0  0  0  0  0  0  0  0
   -0.3482   -7.9226   -0.0000 C   0  0  0  0  0  0  0  0  0  0  0  0
   -4.2287   -6.5296   -0.0000 C   0  0  0  0  0  0  0  0  0  0  0  0
   -3.4825   -7.8729   -0.0000 C   0  0  0  0  0  0  0  0  0  0  0  0
   -1.1567   -9.2534   -0.0000 C   0  0  0  0  0  0  0  0  0  0  0  0
   -4.2909   -9.2037   -0.0000 C   0  0  0  0  0  0  0  0  0  0  0  0
   -1.9651  -10.5842   -0.0000 C   0  0  0  0  0  0  0  0  0  0  0  0
   -3.5322  -10.5593   -0.0000 C   0  0  0  0  0  0  0  0  0  0  0  0
   -4.8879   -8.0843   -0.0000 C   0  0  0  0  0  0  0  0  0  0  0  0
   -4.9128  -10.2857   -0.0000 C   0  0  0  0  0  0  0  0  0  0  0  0
   -4.3282  -11.8901   -0.0000 O   0  0  0  0  0  0  0  0  0  0  0  0
   -3.5695  -13.2334   -0.0000 C   0  0  0  0  0  0  0  0  0  0  0  0
   -2.7860  -14.5393   -0.0000 O   0  0  0  0  0  0  0  0  0  0  0  0
   -5.1242  -13.1712   -0.0000 C   0  0  0  0  0  0  0  0  0  0  0  0
   -3.5944  -15.8701   -0.0000 C   0  0  0  0  0  0  0  0  0  0  0  0
   -5.9326  -14.5020   -0.0000 N   0  0  0  0  0  0  0  0  0  0  0  0
   -5.1740  -15.8452   -0.0000 C   0  0  0  0  0  0  0  0  0  0  0  0
   -7.5122  -14.4771   -0.0000 C   0  0  0  0  0  0  0  0  0  0  0  0
   -8.2957  -13.1090   -0.0000 C   0  0  0  0  0  0  0  0  0  0  0  0
   -7.8604  -11.6414   -0.0000 C   0  0  0  0  0  0  0  0  0  0  0  0
   -9.7882  -12.7235   -0.0000 C   0  0  0  0  0  0  0  0  0  0  0  0
   -9.3778  -11.2061   -0.0000 N   0  0  0  0  0  0  0  0  0  0  0  0
  -10.1489   -9.8380   -0.0000 C   0  0  0  0  0  0  0  0  0  0  0  0
   -9.3654   -8.4823   -0.0000 C   0  0  0  0  0  0  0  0  0  0  0  0
   -9.9872   -7.3754   -0.0000 O   0  0  0  0  0  0  0  0  0  0  0  0
  1  2  1  0  0  0  0
  3  1  1  1  0  0  0
  2  4  1  1  0  0  0
  2  5  1  0  0  0  0
  3  6  1  0  0  0  0
  7  3  1  6  0  0  0
  4  8  1  6  0  0  0
  4  9  1  0  0  0  0
  5 10  1  0  0  0  0
  6 11  1  1  0  0  0
  6 12  1  0  0  0  0
  7 13  1  0  0  0  0
  8 14  1  0  0  0  0
  9 15  1  0  0  0  0
  9 16  1  0  0  0  0
  9 17  1  0  0  0  0
 10 18  1  1  0  0  0
 12 19  1  0  0  0  0
 12 20  1  1  0  0  0
 13 21  1  0  0  0  0
 13 22  1  6  0  0  0
 14 23  1  0  0  0  0
 19 24  1  0  0  0  0
 19 25  1  1  0  0  0
 21 26  1  0  0  0  0
 24 27  1  0  0  0  0
 24 28  1  6  0  0  0
 25 29  1  0  0  0  0
 27 30  1  0  0  0  0
 27 31  1  0  0  0  0
 30 32  1  0  0  0  0
 31 33  1  0  0  0  0
 32 34  1  0  0  0  0
 32 35  1  0  0  0  0
 32 36  1  0  0  0  0
 34 37  1  6  0  0  0
 38 37  1  6  0  0  0
 38 39  1  0  0  0  0
 38 40  1  0  0  0  0
 39 41  1  0  0  0  0
 40 42  1  0  0  0  0
 41 43  1  0  0  0  0
 42 44  1  0  0  0  0
 44 45  1  0  0  0  0
 45 46  1  0  0  0  0
 45 47  1  0  0  0  0
 46 48  1  0  0  0  0
 48 49  1  0  0  0  0
 49 50  1  0  0  0  0
 50 51  1  0  0  0  0
  7 10  1  0  0  0  0
 12 13  1  0  0  0  0
 24 26  1  0  0  0  0
 27 28  1  6  0  0  0
 30 29  1  6  0  0  0
 33 34  1  0  0  0  0
 42 43  1  0  0  0  0
 47 48  1  0  0  0  0
M  END
>  <MolRegNo>
1834052

>  <m>
=

>  <Value>
17000

>  <Unit>
nM

>  <Type>
IC50

>  <pValue>
4.77

>  <Ligand Efficiency>
0

>  <Binding Efficiency>
0

>  <Surface Efficiency>
0

>  <Assay Index>
911014

>  <Assay Category>


>  <Assay Organism>
Homo sapiens

>  <Target ID>
17045

>  <Target Name>
Cytochrome P450 3A4

>  <Target Organism>
Homo sapiens

>  <Target Description>
Target is a single protein chain

>  <Sequence Accession>
P08684

>  <Reference>
Bioorg Med Chem Lett 25 (7), 1621-1626 (2015)

>  <Pubmed ID>
25708617

>  <DOI>
10.1016/j.bmcl.2015.01.051

$$$$
1834041
Actelion Java MolfileCreator 1.0

 50 57  0  0  0  0  0  0  0  0999 V2000
    0.0000   -0.0000   -0.0000 O   0  0  0  0  0  0  0  0  0  0  0  0
    1.4315    0.6404   -0.0000 C   0  0  0  0  0  0  0  0  0  0  0  0
   -0.2009   -1.5445   -0.0000 C   0  0  0  0  0  0  0  0  0  0  0  0
    0.1381    1.5445   -0.0000 C   0  0  0  0  0  0  0  0  0  0  0  0
    2.6872   -0.2637   -0.0000 C   0  0  0  0  0  0  0  0  0  0  0  0
   -1.4943   -2.4486   -0.0000 C   0  0  0  0  0  0  0  0  0  0  0  0
    1.0548   -2.4611   -0.0000 C   0  0  0  0  0  0  0  0  0  0  0  0
   -1.3185    0.9166   -0.0000 O   0  0  0  0  0  0  0  0  0  0  0  0
    0.3014    3.1267   -0.0000 C   0  0  0  0  0  0  0  0  0  0  0  0
    2.4863   -1.8459   -0.0000 C   0  0  0  0  0  0  0  0  0  0  0  0
   -2.6997   -2.0342   -0.0000 O   0  0  0  0  0  0  0  0  0  0  0  0
   -1.0548   -3.9303   -0.0000 C   0  0  0  0  0  0  0  0  0  0  0  0
    0.5399   -3.9554   -0.0000 C   0  0  0  0  0  0  0  0  0  0  0  0
   -2.6118    1.8584   -0.0000 C   0  0  0  0  0  0  0  0  0  0  0  0
    1.4440    3.6540   -0.0000 O   0  0  0  0  0  0  0  0  0  0  0  0
    0.4269    4.3949   -0.0000 C   0  0  0  0  0  0  0  0  0  0  0  0
   -0.7283    3.8801   -0.0000 C   0  0  0  0  0  0  0  0  0  0  0  0
    3.4782   -2.5993   -0.0000 C   0  0  0  0  0  0  0  0  0  0  0  0
   -1.8710   -5.2739   -0.0000 C   0  0  0  0  0  0  0  0  0  0  0  0
   -2.3230   -3.7671   -0.0000 C   0  0  0  0  0  0  0  0  0  0  0  0
    1.2934   -5.3115   -0.0000 C   0  0  0  0  0  0  0  0  0  0  0  0
    1.7831   -3.8298   -0.0000 C   0  0  0  0  0  0  0  0  0  0  0  0
   -3.7796    1.3561   -0.0000 C   0  0  0  0  0  0  0  0  0  0  0  0
   -1.1050   -6.6426   -0.0000 C   0  0  0  0  0  0  0  0  0  0  0  0
   -3.4531   -5.2488   -0.0000 C   0  0  0  0  0  0  0  0  0  0  0  0
    0.4772   -6.6551   -0.0000 C   0  0  0  0  0  0  0  0  0  0  0  0
   -1.9212   -7.9861   -0.0000 C   0  0  0  0  0  0  0  0  0  0  0  0
   -0.3516   -7.9987   -0.0000 C   0  0  0  0  0  0  0  0  0  0  0  0
   -4.2693   -6.5923   -0.0000 C   0  0  0  0  0  0  0  0  0  0  0  0
   -3.5159   -7.9485   -0.0000 C   0  0  0  0  0  0  0  0  0  0  0  0
   -1.1678   -9.3423   -0.0000 C   0  0  0  0  0  0  0  0  0  0  0  0
   -4.3321   -9.2921   -0.0000 C   0  0  0  0  0  0  0  0  0  0  0  0
   -1.9840  -10.6859   -0.0000 C   0  0  0  0  0  0  0  0  0  0  0  0
   -3.5661  -10.6608   -0.0000 C   0  0  0  0  0  0  0  0  0  0  0  0
   -4.8344   -8.3503   -0.0000 C   0  0  0  0  0  0  0  0  0  0  0  0
   -4.9600  -10.3845   -0.0000 C   0  0  0  0  0  0  0  0  0  0  0  0
   -4.3698  -12.0043   -0.0000 O   0  0  0  0  0  0  0  0  0  0  0  0
   -3.6038  -13.3605   -0.0000 C   0  0  0  0  0  0  0  0  0  0  0  0
   -2.8127  -14.6789   -0.0000 O   0  0  0  0  0  0  0  0  0  0  0  0
   -5.1734  -13.2977   -0.0000 C   0  0  0  0  0  0  0  0  0  0  0  0
   -3.6289  -16.0225   -0.0000 C   0  0  0  0  0  0  0  0  0  0  0  0
   -5.9896  -14.6413   -0.0000 N   0  0  0  0  0  0  0  0  0  0  0  0
   -5.2236  -15.9974   -0.0000 C   0  0  0  0  0  0  0  0  0  0  0  0
   -7.5843  -14.6162   -0.0000 C   0  0  0  0  0  0  0  0  0  0  0  0
   -8.6517  -13.4735   -0.0000 C   0  0  0  0  0  0  0  0  0  0  0  0
   -8.6642  -15.7086   -0.0000 C   0  0  0  0  0  0  0  0  0  0  0  0
   -9.7943  -14.5659   -0.0000 N   0  0  0  0  0  0  0  0  0  0  0  0
  -11.3765  -14.5408   -0.0000 C   0  0  0  0  0  0  0  0  0  0  0  0
  -12.0295  -15.6207   -0.0000 C   0  0  0  0  0  0  0  0  0  0  0  0
  -11.9039  -13.6116   -0.0000 C   0  0  0  0  0  0  0  0  0  0  0  0
  1  2  1  0  0  0  0
  3  1  1  1  0  0  0
  2  4  1  1  0  0  0
  2  5  1  0  0  0  0
  3  6  1  0  0  0  0
  7  3  1  6  0  0  0
  4  8  1  6  0  0  0
  4  9  1  0  0  0  0
  5 10  1  0  0  0  0
  6 11  1  1  0  0  0
  6 12  1  0  0  0  0
  7 13  1  0  0  0  0
  8 14  1  0  0  0  0
  9 15  1  0  0  0  0
  9 16  1  0  0  0  0
  9 17  1  0  0  0  0
 10 18  1  1  0  0  0
 12 19  1  0  0  0  0
 12 20  1  1  0  0  0
 13 21  1  0  0  0  0
 13 22  1  6  0  0  0
 14 23  1  0  0  0  0
 19 24  1  0  0  0  0
 19 25  1  1  0  0  0
 21 26  1  0  0  0  0
 24 27  1  0  0  0  0
 24 28  1  6  0  0  0
 25 29  1  0  0  0  0
 27 30  1  0  0  0  0
 27 31  1  0  0  0  0
 30 32  1  0  0  0  0
 31 33  1  0  0  0  0
 32 34  1  0  0  0  0
 32 35  1  0  0  0  0
 32 36  1  0  0  0  0
 34 37  1  6  0  0  0
 38 37  1  6  0  0  0
 38 39  1  0  0  0  0
 38 40  1  0  0  0  0
 39 41  1  0  0  0  0
 40 42  1  0  0  0  0
 41 43  1  0  0  0  0
 42 44  1  0  0  0  0
 44 45  1  0  0  0  0
 44 46  1  0  0  0  0
 45 47  1  0  0  0  0
 47 48  1  0  0  0  0
 48 49  1  0  0  0  0
 48 50  1  0  0  0  0
  7 10  1  0  0  0  0
 12 13  1  0  0  0  0
 24 26  1  0  0  0  0
 27 28  1  6  0  0  0
 30 29  1  6  0  0  0
 33 34  1  0  0  0  0
 42 43  1  0  0  0  0
 46 47  1  0  0  0  0
M  END
>  <MolRegNo>
1834041

>  <m>
=

>  <Value>
37000

>  <Unit>
nM

>  <Type>
IC50

>  <pValue>
4.43

>  <Ligand Efficiency>
0

>  <Binding Efficiency>
0

>  <Surface Efficiency>
0

>  <Assay Index>
911014

>  <Assay Category>


>  <Assay Organism>
Homo sapiens

>  <Target ID>
17045

>  <Target Name>
Cytochrome P450 3A4

>  <Target Organism>
Homo sapiens

>  <Target Description>
Target is a single protein chain

>  <Sequence Accession>
P08684

>  <Reference>
Bioorg Med Chem Lett 25 (7), 1621-1626 (2015)

>  <Pubmed ID>
25708617

>  <DOI>
10.1016/j.bmcl.2015.01.051

$$$$
1831325
Actelion Java MolfileCreator 1.0

 23 25  0  0  0  0  0  0  0  0999 V2000
    0.0000   -0.0000   -0.0000 F   0  0  0  0  0  0  0  0  0  0  0  0
    1.0716   -0.6159   -0.0000 C   0  0  0  0  0  0  0  0  0  0  0  0
    2.4142    0.1848   -0.0000 C   0  0  0  0  0  0  0  0  0  0  0  0
    1.0593   -2.1678   -0.0000 C   0  0  0  0  0  0  0  0  0  0  0  0
    2.4019    1.7614   -0.0000 C   0  0  0  0  0  0  0  0  0  0  0  0
    3.7568   -0.5789   -0.0000 C   0  0  0  0  0  0  0  0  0  0  0  0
    2.4019   -2.9315   -0.0000 N   0  0  0  0  0  0  0  0  0  0  0  0
    3.7445    2.5497   -0.0000 N   0  0  0  0  0  0  0  0  0  0  0  0
    1.0347    2.5497   -0.0000 C   0  0  0  0  0  0  0  0  0  0  0  0
    3.7445   -2.1309   -0.0000 C   0  0  0  0  0  0  0  0  0  0  0  0
    3.7321    4.1263   -0.0000 C   0  0  0  0  0  0  0  0  0  0  0  0
    1.0223    4.1263   -0.0000 C   0  0  0  0  0  0  0  0  0  0  0  0
    5.0747    4.9146   -0.0000 N   0  0  0  0  0  0  0  0  0  0  0  0
    2.3649    4.9146   -0.0000 N   0  0  0  0  0  0  0  0  0  0  0  0
   -0.0739    4.7668   -0.0000 O   0  0  0  0  0  0  0  0  0  0  0  0
    6.4173    4.1509   -0.0000 C   0  0  0  0  0  0  0  0  0  0  0  0
    5.0624    6.4912   -0.0000 C   0  0  0  0  0  0  0  0  0  0  0  0
    2.3526    6.1833   -0.0000 C   0  0  0  0  0  0  0  0  0  0  0  0
    7.7599    4.9516   -0.0000 C   0  0  0  0  0  0  0  0  0  0  0  0
    6.4050    2.9069   -0.0000 C   0  0  0  0  0  0  0  0  0  0  0  0
    6.4050    7.2918   -0.0000 C   0  0  0  0  0  0  0  0  0  0  0  0
    7.7476    6.5282   -0.0000 O   0  0  0  0  0  0  0  0  0  0  0  0
    8.8315    4.3357   -0.0000 C   0  0  0  0  0  0  0  0  0  0  0  0
  1  2  1  0  0  0  0
  2  3  2  0  0  0  0
  2  4  1  0  0  0  0
  3  5  1  0  0  0  0
  3  6  1  0  0  0  0
  4  7  2  0  0  0  0
  5  8  1  0  0  0  0
  5  9  2  0  0  0  0
  6 10  2  0  0  0  0
  8 11  2  0  0  0  0
  9 12  1  0  0  0  0
 11 13  1  0  0  0  0
 11 14  1  0  0  0  0
 12 15  2  0  0  0  0
 13 16  1  0  0  0  0
 13 17  1  0  0  0  0
 14 18  1  0  0  0  0
 16 19  1  0  0  0  0
 16 20  1  6  0  0  0
 17 21  1  0  0  0  0
 19 22  1  0  0  0  0
 19 23  1  1  0  0  0
  7 10  1  0  0  0  0
 12 14  1  0  0  0  0
 21 22  1  0  0  0  0
M  END
>  <MolRegNo>
1831325

>  <m>
=

>  <Value>
485000

>  <Unit>
nM

>  <Type>
IC50

>  <pValue>
0

>  <Ligand Efficiency>
0

>  <Binding Efficiency>
0

>  <Surface Efficiency>
0

>  <Assay Index>
910269

>  <Assay Category>


>  <Assay Organism>
Homo sapiens

>  <Target ID>
17045

>  <Target Name>
Cytochrome P450 3A4

>  <Target Organism>
Homo sapiens

>  <Target Description>
Target is a single protein chain

>  <Sequence Accession>
P08684

>  <Reference>
Bioorg Med Chem Lett 25 (5), 1086-1091 (2015)

>  <Pubmed ID>
25655721

>  <DOI>
10.1016/j.bmcl.2015.01.005

$$$$
1831327
Actelion Java MolfileCreator 1.0

 24 27  0  0  0  0  0  0  0  0999 V2000
    0.0000   -0.0000   -0.0000 F   0  0  0  0  0  0  0  0  0  0  0  0
    1.0352    0.6380   -0.0000 C   0  0  0  0  0  0  0  0  0  0  0  0
    1.0111    2.1788   -0.0000 C   0  0  0  0  0  0  0  0  0  0  0  0
    2.3593   -0.0963   -0.0000 C   0  0  0  0  0  0  0  0  0  0  0  0
   -0.3370    2.9371   -0.0000 C   0  0  0  0  0  0  0  0  0  0  0  0
    2.3112    2.9732   -0.0000 C   0  0  0  0  0  0  0  0  0  0  0  0
    3.6594    0.6982   -0.0000 N   0  0  0  0  0  0  0  0  0  0  0  0
   -0.3611    4.4779   -0.0000 N   0  0  0  0  0  0  0  0  0  0  0  0
   -1.6612    2.1667   -0.0000 C   0  0  0  0  0  0  0  0  0  0  0  0
    3.6353    2.2390   -0.0000 C   0  0  0  0  0  0  0  0  0  0  0  0
   -1.7093    5.2363   -0.0000 C   0  0  0  0  0  0  0  0  0  0  0  0
   -3.0094    2.9251   -0.0000 C   0  0  0  0  0  0  0  0  0  0  0  0
   -1.7214    6.7771   -0.0000 N   0  0  0  0  0  0  0  0  0  0  0  0
   -3.0334    4.4659   -0.0000 N   0  0  0  0  0  0  0  0  0  0  0  0
   -4.0686    2.3112   -0.0000 O   0  0  0  0  0  0  0  0  0  0  0  0
   -0.4093    7.5715   -0.0000 C   0  0  0  0  0  0  0  0  0  0  0  0
   -3.0695    7.5715   -0.0000 C   0  0  0  0  0  0  0  0  0  0  0  0
   -4.1048    5.0798   -0.0000 C   0  0  0  0  0  0  0  0  0  0  0  0
   -0.4213    9.1123   -0.0000 C   0  0  0  0  0  0  0  0  0  0  0  0
    1.0232    7.1141   -0.0000 C   0  0  0  0  0  0  0  0  0  0  0  0
   -3.0816    9.1123   -0.0000 C   0  0  0  0  0  0  0  0  0  0  0  0
   -1.7575    9.9068   -0.0000 O   0  0  0  0  0  0  0  0  0  0  0  0
    1.0111    9.5938   -0.0000 C   0  0  0  0  0  0  0  0  0  0  0  0
    1.9019    8.3660   -0.0000 C   0  0  0  0  0  0  0  0  0  0  0  0
  1  2  1  0  0  0  0
  2  3  2  0  0  0  0
  2  4  1  0  0  0  0
  3  5  1  0  0  0  0
  3  6  1  0  0  0  0
  4  7  2  0  0  0  0
  5  8  1  0  0  0  0
  5  9  2  0  0  0  0
  6 10  2  0  0  0  0
  8 11  2  0  0  0  0
  9 12  1  0  0  0  0
 11 13  1  0  0  0  0
 11 14  1  0  0  0  0
 12 15  2  0  0  0  0
 16 13  1  6  0  0  0
 13 17  1  0  0  0  0
 14 18  1  0  0  0  0
 16 19  1  0  0  0  0
 16 20  1  0  0  0  0
 17 21  1  0  0  0  0
 19 22  1  1  0  0  0
 19 23  1  0  0  0  0
 20 24  1  0  0  0  0
  7 10  1  0  0  0  0
 12 14  1  0  0  0  0
 21 22  1  0  0  0  0
 23 24  1  0  0  0  0
M  END
>  <MolRegNo>
1831327

>  <m>
=

>  <Value>
445000

>  <Unit>
nM

>  <Type>
IC50

>  <pValue>
0

>  <Ligand Efficiency>
0

>  <Binding Efficiency>
0

>  <Surface Efficiency>
0

>  <Assay Index>
910269

>  <Assay Category>


>  <Assay Organism>
Homo sapiens

>  <Target ID>
17045

>  <Target Name>
Cytochrome P450 3A4

>  <Target Organism>
Homo sapiens

>  <Target Description>
Target is a single protein chain

>  <Sequence Accession>
P08684

>  <Reference>
Bioorg Med Chem Lett 25 (5), 1086-1091 (2015)

>  <Pubmed ID>
25655721

>  <DOI>
10.1016/j.bmcl.2015.01.005

$$$$
1831329
Actelion Java MolfileCreator 1.0

 25 28  0  0  0  0  0  0  0  0999 V2000
    0.0000   -0.0000   -0.0000 F   0  0  0  0  0  0  0  0  0  0  0  0
    1.0472    0.6259   -0.0000 C   0  0  0  0  0  0  0  0  0  0  0  0
    1.0231    2.1667   -0.0000 C   0  0  0  0  0  0  0  0  0  0  0  0
    2.3593   -0.1204   -0.0000 C   0  0  0  0  0  0  0  0  0  0  0  0
   -0.3130    2.9370   -0.0000 C   0  0  0  0  0  0  0  0  0  0  0  0
    2.3352    2.9491   -0.0000 C   0  0  0  0  0  0  0  0  0  0  0  0
    3.6713    0.6620   -0.0000 N   0  0  0  0  0  0  0  0  0  0  0  0
   -0.3250    4.4778   -0.0000 N   0  0  0  0  0  0  0  0  0  0  0  0
   -1.6491    2.1787   -0.0000 C   0  0  0  0  0  0  0  0  0  0  0  0
    3.6472    2.2028   -0.0000 C   0  0  0  0  0  0  0  0  0  0  0  0
   -1.6611    5.2482   -0.0000 C   0  0  0  0  0  0  0  0  0  0  0  0
   -2.9852    2.9491   -0.0000 C   0  0  0  0  0  0  0  0  0  0  0  0
   -1.6731    6.7889   -0.0000 N   0  0  0  0  0  0  0  0  0  0  0  0
   -2.9972    4.4898   -0.0000 N   0  0  0  0  0  0  0  0  0  0  0  0
   -4.0565    2.3472   -0.0000 O   0  0  0  0  0  0  0  0  0  0  0  0
   -0.3611    7.5593   -0.0000 C   0  0  0  0  0  0  0  0  0  0  0  0
   -3.0213    7.5593   -0.0000 C   0  0  0  0  0  0  0  0  0  0  0  0
   -4.0685    5.1157   -0.0000 C   0  0  0  0  0  0  0  0  0  0  0  0
   -0.3731    9.1000   -0.0000 C   0  0  0  0  0  0  0  0  0  0  0  0
    0.9509    6.8130   -0.0000 C   0  0  0  0  0  0  0  0  0  0  0  0
   -3.0333    9.1000   -0.0000 C   0  0  0  0  0  0  0  0  0  0  0  0
   -1.7093    9.8704   -0.0000 O   0  0  0  0  0  0  0  0  0  0  0  0
    0.9389    9.8704   -0.0000 C   0  0  0  0  0  0  0  0  0  0  0  0
    2.2630    7.5833   -0.0000 C   0  0  0  0  0  0  0  0  0  0  0  0
    2.2509    9.1241   -0.0000 C   0  0  0  0  0  0  0  0  0  0  0  0
  1  2  1  0  0  0  0
  2  3  2  0  0  0  0
  2  4  1  0  0  0  0
  3  5  1  0  0  0  0
  3  6  1  0  0  0  0
  4  7  2  0  0  0  0
  5  8  1  0  0  0  0
  5  9  2  0  0  0  0
  6 10  2  0  0  0  0
  8 11  2  0  0  0  0
  9 12  1  0  0  0  0
 11 13  1  0  0  0  0
 11 14  1  0  0  0  0
 12 15  2  0  0  0  0
 16 13  1  6  0  0  0
 13 17  1  0  0  0  0
 14 18  1  0  0  0  0
 16 19  1  0  0  0  0
 16 20  1  0  0  0  0
 17 21  1  0  0  0  0
 19 22  1  1  0  0  0
 19 23  1  0  0  0  0
 20 24  1  0  0  0  0
 23 25  1  0  0  0  0
  7 10  1  0  0  0  0
 12 14  1  0  0  0  0
 21 22  1  0  0  0  0
 24 25  1  0  0  0  0
M  END
>  <MolRegNo>
1831329

>  <m>
=

>  <Value>
418000

>  <Unit>
nM

>  <Type>
IC50

>  <pValue>
0

>  <Ligand Efficiency>
0

>  <Binding Efficiency>
0

>  <Surface Efficiency>
0

>  <Assay Index>
910269

>  <Assay Category>


>  <Assay Organism>
Homo sapiens

>  <Target ID>
17045

>  <Target Name>
Cytochrome P450 3A4

>  <Target Organism>
Homo sapiens

>  <Target Description>
Target is a single protein chain

>  <Sequence Accession>
P08684

>  <Reference>
Bioorg Med Chem Lett 25 (5), 1086-1091 (2015)

>  <Pubmed ID>
25655721

>  <DOI>
10.1016/j.bmcl.2015.01.005

$$$$
1831330
Actelion Java MolfileCreator 1.0

 24 27  0  0  0  0  0  0  0  0999 V2000
    0.0000   -0.0000   -0.0000 F   0  0  0  0  0  0  0  0  0  0  0  0
    1.0352    0.6380   -0.0000 C   0  0  0  0  0  0  0  0  0  0  0  0
    1.0111    2.1788   -0.0000 C   0  0  0  0  0  0  0  0  0  0  0  0
    2.3593   -0.0963   -0.0000 C   0  0  0  0  0  0  0  0  0  0  0  0
   -0.3370    2.9371   -0.0000 C   0  0  0  0  0  0  0  0  0  0  0  0
    2.3112    2.9732   -0.0000 C   0  0  0  0  0  0  0  0  0  0  0  0
    3.6594    0.6982   -0.0000 N   0  0  0  0  0  0  0  0  0  0  0  0
   -0.3611    4.4779   -0.0000 N   0  0  0  0  0  0  0  0  0  0  0  0
   -1.6612    2.1667   -0.0000 C   0  0  0  0  0  0  0  0  0  0  0  0
    3.6353    2.2390   -0.0000 C   0  0  0  0  0  0  0  0  0  0  0  0
   -1.7093    5.2363   -0.0000 C   0  0  0  0  0  0  0  0  0  0  0  0
   -3.0094    2.9251   -0.0000 C   0  0  0  0  0  0  0  0  0  0  0  0
   -1.7214    6.7771   -0.0000 N   0  0  0  0  0  0  0  0  0  0  0  0
   -3.0334    4.4659   -0.0000 N   0  0  0  0  0  0  0  0  0  0  0  0
   -4.0686    2.3112   -0.0000 O   0  0  0  0  0  0  0  0  0  0  0  0
   -0.4093    7.5715   -0.0000 C   0  0  0  0  0  0  0  0  0  0  0  0
   -3.0695    7.5715   -0.0000 C   0  0  0  0  0  0  0  0  0  0  0  0
   -4.1048    5.0798   -0.0000 C   0  0  0  0  0  0  0  0  0  0  0  0
   -0.4213    9.1123   -0.0000 C   0  0  0  0  0  0  0  0  0  0  0  0
    1.0232    7.1141   -0.0000 C   0  0  0  0  0  0  0  0  0  0  0  0
   -3.0816    9.1123   -0.0000 C   0  0  0  0  0  0  0  0  0  0  0  0
   -1.7575    9.9068   -0.0000 O   0  0  0  0  0  0  0  0  0  0  0  0
    1.0111    9.5938   -0.0000 C   0  0  0  0  0  0  0  0  0  0  0  0
    1.9019    8.3660   -0.0000 O   0  0  0  0  0  0  0  0  0  0  0  0
  1  2  1  0  0  0  0
  2  3  2  0  0  0  0
  2  4  1  0  0  0  0
  3  5  1  0  0  0  0
  3  6  1  0  0  0  0
  4  7  2  0  0  0  0
  5  8  1  0  0  0  0
  5  9  2  0  0  0  0
  6 10  2  0  0  0  0
  8 11  2  0  0  0  0
  9 12  1  0  0  0  0
 11 13  1  0  0  0  0
 11 14  1  0  0  0  0
 12 15  2  0  0  0  0
 16 13  1  6  0  0  0
 13 17  1  0  0  0  0
 14 18  1  0  0  0  0
 16 19  1  0  0  0  0
 16 20  1  0  0  0  0
 17 21  1  0  0  0  0
 19 22  1  1  0  0  0
 19 23  1  0  0  0  0
 20 24  1  0  0  0  0
  7 10  1  0  0  0  0
 12 14  1  0  0  0  0
 21 22  1  0  0  0  0
 23 24  1  0  0  0  0
M  END
>  <MolRegNo>
1831330

>  <m>
=

>  <Value>
545000

>  <Unit>
nM

>  <Type>
IC50

>  <pValue>
0

>  <Ligand Efficiency>
0

>  <Binding Efficiency>
0

>  <Surface Efficiency>
0

>  <Assay Index>
910269

>  <Assay Category>


>  <Assay Organism>
Homo sapiens

>  <Target ID>
17045

>  <Target Name>
Cytochrome P450 3A4

>  <Target Organism>
Homo sapiens

>  <Target Description>
Target is a single protein chain

>  <Sequence Accession>
P08684

>  <Reference>
Bioorg Med Chem Lett 25 (5), 1086-1091 (2015)

>  <Pubmed ID>
25655721

>  <DOI>
10.1016/j.bmcl.2015.01.005

$$$$
1830641
Actelion Java MolfileCreator 1.0

 37 39  0  0  0  0  0  0  0  0999 V2000
    0.0000   -0.0000   -0.0000 O   0  0  0  0  0  0  0  0  0  0  0  0
   -1.1849    0.4031   -0.0000 C   0  0  0  0  0  0  0  0  0  0  0  0
   -1.5147    1.9300   -0.0000 O   0  0  0  0  0  0  0  0  0  0  0  0
   -2.3576   -0.6108   -0.0000 N   0  0  0  0  0  0  0  0  0  0  0  0
   -0.3665    2.9683   -0.0000 C   0  0  0  0  0  0  0  0  0  0  0  0
   -2.0522   -2.1133   -0.0000 C   0  0  0  0  0  0  0  0  0  0  0  0
   -0.6963    4.4953   -0.0000 C   0  0  0  0  0  0  0  0  0  0  0  0
   -0.6596   -2.7363   -0.0000 C   0  0  0  0  0  0  0  0  0  0  0  0
   -3.1027   -3.2615   -0.0000 C   0  0  0  0  0  0  0  0  0  0  0  0
    0.4520    5.5458   -0.0000 C   0  0  0  0  0  0  0  0  0  0  0  0
   -2.1866    4.9961   -0.0000 C   0  0  0  0  0  0  0  0  0  0  0  0
   -0.8062   -4.2510   -0.0000 C   0  0  0  0  0  0  0  0  0  0  0  0
    0.6718   -1.9423   -0.0000 C   0  0  0  0  0  0  0  0  0  0  0  0
   -2.3331   -4.5930   -0.0000 N   0  0  0  0  0  0  0  0  0  0  0  0
    0.1222    7.0727   -0.0000 C   0  0  0  0  0  0  0  0  0  0  0  0
   -2.5164    6.5230   -0.0000 C   0  0  0  0  0  0  0  0  0  0  0  0
    2.0033   -2.6996   -0.0000 N   0  0  0  0  0  0  0  0  0  0  0  0
   -1.3681    7.5736   -0.0000 C   0  0  0  0  0  0  0  0  0  0  0  0
    3.3348   -1.9056   -0.0000 C   0  0  0  0  0  0  0  0  0  0  0  0
    1.9911   -4.2388   -0.0000 C   0  0  0  0  0  0  0  0  0  0  0  0
    3.3226   -0.6474   -0.0000 O   0  0  0  0  0  0  0  0  0  0  0  0
    4.6663   -2.6630   -0.0000 C   0  0  0  0  0  0  0  0  0  0  0  0
    0.9039   -4.8495   -0.0000 C   0  0  0  0  0  0  0  0  0  0  0  0
    3.0539   -4.8495   -0.0000 C   0  0  0  0  0  0  0  0  0  0  0  0
    4.6541   -4.2021   -0.0000 C   0  0  0  0  0  0  0  0  0  0  0  0
    5.9978   -1.8812   -0.0000 C   0  0  0  0  0  0  0  0  0  0  0  0
    5.9856   -4.9595   -0.0000 C   0  0  0  0  0  0  0  0  0  0  0  0
    7.3293   -2.6385   -0.0000 C   0  0  0  0  0  0  0  0  0  0  0  0
    5.9733   -6.4986   -0.0000 O   0  0  0  0  0  0  0  0  0  0  0  0
    7.3170   -4.1777   -0.0000 C   0  0  0  0  0  0  0  0  0  0  0  0
    4.6174   -7.2560   -0.0000 C   0  0  0  0  0  0  0  0  0  0  0  0
    8.6485   -4.9350   -0.0000 O   0  0  0  0  0  0  0  0  0  0  0  0
    4.6052   -8.7951   -0.0000 C   0  0  0  0  0  0  0  0  0  0  0  0
    9.7113   -4.2998   -0.0000 C   0  0  0  0  0  0  0  0  0  0  0  0
    3.2493   -9.5525   -0.0000 C   0  0  0  0  0  0  0  0  0  0  0  0
    3.2371  -11.0916   -0.0000 O   0  0  0  0  0  0  0  0  0  0  0  0
    2.1499  -11.7024   -0.0000 C   0  0  0  0  0  0  0  0  0  0  0  0
  1  2  2  0  0  0  0
  2  3  1  0  0  0  0
  2  4  1  0  0  0  0
  3  5  1  0  0  0  0
  6  4  1  6  0  0  0
  5  7  1  0  0  0  0
  6  8  1  0  0  0  0
  6  9  1  0  0  0  0
  7 10  2  0  0  0  0
  7 11  1  0  0  0  0
  8 12  1  0  0  0  0
  8 13  1  1  0  0  0
  9 14  1  0  0  0  0
 10 15  1  0  0  0  0
 11 16  2  0  0  0  0
 13 17  1  0  0  0  0
 15 18  2  0  0  0  0
 17 19  1  0  0  0  0
 17 20  1  0  0  0  0
 19 21  2  0  0  0  0
 19 22  1  0  0  0  0
 20 23  1  0  0  0  0
 20 24  1  0  0  0  0
 22 25  2  0  0  0  0
 22 26  1  0  0  0  0
 25 27  1  0  0  0  0
 26 28  2  0  0  0  0
 27 29  1  0  0  0  0
 27 30  2  0  0  0  0
 29 31  1  0  0  0  0
 30 32  1  0  0  0  0
 31 33  1  0  0  0  0
 32 34  1  0  0  0  0
 33 35  1  0  0  0  0
 35 36  1  0  0  0  0
 36 37  1  0  0  0  0
 12 14  1  0  0  0  0
 16 18  1  0  0  0  0
 28 30  1  0  0  0  0
M  END
>  <MolRegNo>
1830641

>  <m>
=

>  <Value>
14800

>  <Unit>
nM

>  <Type>
IC50

>  <pValue>
4.83

>  <Ligand Efficiency>
0

>  <Binding Efficiency>
0

>  <Surface Efficiency>
0

>  <Assay Index>
911068

>  <Assay Category>


>  <Assay Organism>
Homo sapiens

>  <Target ID>
17045

>  <Target Name>
Cytochrome P450 3A4

>  <Target Organism>
Homo sapiens

>  <Target Description>
Target is a single protein chain

>  <Sequence Accession>
P08684

>  <Reference>
Bioorg Med Chem Lett 25 (8), 1782-1786 (2015)

>  <Pubmed ID>
25782742

>  <DOI>
10.1016/j.bmcl.2015.02.039

$$$$
1830640
Actelion Java MolfileCreator 1.0

 37 39  0  0  0  0  0  0  0  0999 V2000
    0.0000   -0.0000   -0.0000 O   0  0  0  0  0  0  0  0  0  0  0  0
   -1.1849    0.4031   -0.0000 C   0  0  0  0  0  0  0  0  0  0  0  0
   -1.5147    1.9300   -0.0000 O   0  0  0  0  0  0  0  0  0  0  0  0
   -2.3576   -0.6108   -0.0000 N   0  0  0  0  0  0  0  0  0  0  0  0
   -0.3665    2.9683   -0.0000 C   0  0  0  0  0  0  0  0  0  0  0  0
   -2.0522   -2.1133   -0.0000 C   0  0  0  0  0  0  0  0  0  0  0  0
   -0.6963    4.4953   -0.0000 C   0  0  0  0  0  0  0  0  0  0  0  0
   -0.6596   -2.7363   -0.0000 C   0  0  0  0  0  0  0  0  0  0  0  0
   -3.1027   -3.2615   -0.0000 C   0  0  0  0  0  0  0  0  0  0  0  0
    0.4520    5.5458   -0.0000 C   0  0  0  0  0  0  0  0  0  0  0  0
   -2.1866    4.9961   -0.0000 C   0  0  0  0  0  0  0  0  0  0  0  0
   -0.8062   -4.2510   -0.0000 C   0  0  0  0  0  0  0  0  0  0  0  0
    0.6718   -1.9423   -0.0000 C   0  0  0  0  0  0  0  0  0  0  0  0
   -2.3331   -4.5930   -0.0000 N   0  0  0  0  0  0  0  0  0  0  0  0
    0.1222    7.0727   -0.0000 C   0  0  0  0  0  0  0  0  0  0  0  0
   -2.5164    6.5230   -0.0000 C   0  0  0  0  0  0  0  0  0  0  0  0
    2.0033   -2.6996   -0.0000 N   0  0  0  0  0  0  0  0  0  0  0  0
   -1.3681    7.5736   -0.0000 C   0  0  0  0  0  0  0  0  0  0  0  0
    3.3348   -1.9056   -0.0000 C   0  0  0  0  0  0  0  0  0  0  0  0
    1.9911   -4.2388   -0.0000 C   0  0  0  0  0  0  0  0  0  0  0  0
    3.3226   -0.6474   -0.0000 O   0  0  0  0  0  0  0  0  0  0  0  0
    4.6663   -2.6630   -0.0000 C   0  0  0  0  0  0  0  0  0  0  0  0
    0.9039   -4.8495   -0.0000 C   0  0  0  0  0  0  0  0  0  0  0  0
    3.0539   -4.8495   -0.0000 C   0  0  0  0  0  0  0  0  0  0  0  0
    4.6541   -4.2021   -0.0000 C   0  0  0  0  0  0  0  0  0  0  0  0
    5.9978   -1.8812   -0.0000 C   0  0  0  0  0  0  0  0  0  0  0  0
    5.9856   -4.9595   -0.0000 C   0  0  0  0  0  0  0  0  0  0  0  0
    7.3293   -2.6385   -0.0000 C   0  0  0  0  0  0  0  0  0  0  0  0
    5.9733   -6.4986   -0.0000 O   0  0  0  0  0  0  0  0  0  0  0  0
    7.3170   -4.1777   -0.0000 C   0  0  0  0  0  0  0  0  0  0  0  0
    4.6174   -7.2560   -0.0000 C   0  0  0  0  0  0  0  0  0  0  0  0
    8.6485   -4.9350   -0.0000 O   0  0  0  0  0  0  0  0  0  0  0  0
    4.6052   -8.7951   -0.0000 C   0  0  0  0  0  0  0  0  0  0  0  0
    9.7113   -4.2998   -0.0000 C   0  0  0  0  0  0  0  0  0  0  0  0
    3.2493   -9.5525   -0.0000 C   0  0  0  0  0  0  0  0  0  0  0  0
    3.2371  -11.0916   -0.0000 O   0  0  0  0  0  0  0  0  0  0  0  0
    2.1499  -11.7024   -0.0000 C   0  0  0  0  0  0  0  0  0  0  0  0
  1  2  2  0  0  0  0
  2  3  1  0  0  0  0
  2  4  1  0  0  0  0
  3  5  1  0  0  0  0
  6  4  1  6  0  0  0
  5  7  1  0  0  0  0
  6  8  1  0  0  0  0
  6  9  1  0  0  0  0
  7 10  1  0  0  0  0
  7 11  1  0  0  0  0
  8 12  1  0  0  0  0
  8 13  1  1  0  0  0
  9 14  1  0  0  0  0
 10 15  1  0  0  0  0
 11 16  1  0  0  0  0
 13 17  1  0  0  0  0
 15 18  1  0  0  0  0
 17 19  1  0  0  0  0
 17 20  1  0  0  0  0
 19 21  2  0  0  0  0
 19 22  1  0  0  0  0
 20 23  1  0  0  0  0
 20 24  1  0  0  0  0
 22 25  2  0  0  0  0
 22 26  1  0  0  0  0
 25 27  1  0  0  0  0
 26 28  2  0  0  0  0
 27 29  1  0  0  0  0
 27 30  2  0  0  0  0
 29 31  1  0  0  0  0
 30 32  1  0  0  0  0
 31 33  1  0  0  0  0
 32 34  1  0  0  0  0
 33 35  1  0  0  0  0
 35 36  1  0  0  0  0
 36 37  1  0  0  0  0
 12 14  1  0  0  0  0
 16 18  1  0  0  0  0
 28 30  1  0  0  0  0
M  END
>  <MolRegNo>
1830640

>  <m>
=

>  <Value>
3400

>  <Unit>
nM

>  <Type>
IC50

>  <pValue>
5.47

>  <Ligand Efficiency>
0

>  <Binding Efficiency>
0

>  <Surface Efficiency>
0

>  <Assay Index>
911068

>  <Assay Category>


>  <Assay Organism>
Homo sapiens

>  <Target ID>
17045

>  <Target Name>
Cytochrome P450 3A4

>  <Target Organism>
Homo sapiens

>  <Target Description>
Target is a single protein chain

>  <Sequence Accession>
P08684

>  <Reference>
Bioorg Med Chem Lett 25 (8), 1782-1786 (2015)

>  <Pubmed ID>
25782742

>  <DOI>
10.1016/j.bmcl.2015.02.039

$$$$
1830626
Actelion Java MolfileCreator 1.0

 38 41  0  0  0  0  0  0  0  0999 V2000
    0.0000   -0.0000   -0.0000 O   0  0  0  0  0  0  0  0  0  0  0  0
   -0.9317    0.8349   -0.0000 C   0  0  0  0  0  0  0  0  0  0  0  0
   -0.6292    2.3475   -0.0000 N   0  0  0  0  0  0  0  0  0  0  0  0
   -2.4080    0.3630   -0.0000 C   0  0  0  0  0  0  0  0  0  0  0  0
   -1.7909    3.3881   -0.0000 C   0  0  0  0  0  0  0  0  0  0  0  0
    0.8228    2.8436   -0.0000 C   0  0  0  0  0  0  0  0  0  0  0  0
   -3.5696    1.4036   -0.0000 C   0  0  0  0  0  0  0  0  0  0  0  0
   -2.7347   -1.1253   -0.0000 C   0  0  0  0  0  0  0  0  0  0  0  0
   -1.5488    4.5981   -0.0000 C   0  0  0  0  0  0  0  0  0  0  0  0
   -2.9646    3.0130   -0.0000 C   0  0  0  0  0  0  0  0  0  0  0  0
    1.1253    4.3561   -0.0000 C   0  0  0  0  0  0  0  0  0  0  0  0
   -5.0459    0.9317   -0.0000 C   0  0  0  0  0  0  0  0  0  0  0  0
   -4.2109   -1.5973   -0.0000 C   0  0  0  0  0  0  0  0  0  0  0  0
    2.4927    5.0096   -0.0000 C   0  0  0  0  0  0  0  0  0  0  0  0
    0.0847    5.5057   -0.0000 C   0  0  0  0  0  0  0  0  0  0  0  0
   -6.2075    1.9724   -0.0000 O   0  0  0  0  0  0  0  0  0  0  0  0
   -5.3726   -0.5566   -0.0000 C   0  0  0  0  0  0  0  0  0  0  0  0
    3.8116    4.2472   -0.0000 N   0  0  0  0  0  0  0  0  0  0  0  0
    2.3354    6.5342   -0.0000 C   0  0  0  0  0  0  0  0  0  0  0  0
    0.8349    6.8488   -0.0000 N   0  0  0  0  0  0  0  0  0  0  0  0
   -5.9050    3.4849   -0.0000 C   0  0  0  0  0  0  0  0  0  0  0  0
   -6.8488   -1.0285   -0.0000 O   0  0  0  0  0  0  0  0  0  0  0  0
    3.7995    2.7226   -0.0000 C   0  0  0  0  0  0  0  0  0  0  0  0
   -7.0666    4.5255   -0.0000 C   0  0  0  0  0  0  0  0  0  0  0  0
   -7.1150   -2.2144   -0.0000 C   0  0  0  0  0  0  0  0  0  0  0  0
    5.1185    1.9603   -0.0000 C   0  0  0  0  0  0  0  0  0  0  0  0
   -6.7641    6.0381   -0.0000 C   0  0  0  0  0  0  0  0  0  0  0  0
    6.4495    2.7347   -0.0000 C   0  0  0  0  0  0  0  0  0  0  0  0
    5.1064    0.4356   -0.0000 C   0  0  0  0  0  0  0  0  0  0  0  0
   -7.9258    7.0787   -0.0000 O   0  0  0  0  0  0  0  0  0  0  0  0
    7.7685    1.9845   -0.0000 C   0  0  0  0  0  0  0  0  0  0  0  0
    6.4374   -0.3146   -0.0000 C   0  0  0  0  0  0  0  0  0  0  0  0
   -7.6837    8.2888   -0.0000 C   0  0  0  0  0  0  0  0  0  0  0  0
    7.7563    0.4598   -0.0000 C   0  0  0  0  0  0  0  0  0  0  0  0
    9.0874    2.7589   -0.0000 C   0  0  0  0  0  0  0  0  0  0  0  0
    9.0753   -0.2904   -0.0000 C   0  0  0  0  0  0  0  0  0  0  0  0
   10.4063    2.0087   -0.0000 C   0  0  0  0  0  0  0  0  0  0  0  0
   10.3942    0.4840   -0.0000 C   0  0  0  0  0  0  0  0  0  0  0  0
  1  2  2  0  0  0  0
  2  3  1  0  0  0  0
  2  4  1  0  0  0  0
  3  5  1  0  0  0  0
  3  6  1  0  0  0  0
  4  7  2  0  0  0  0
  4  8  1  0  0  0  0
  5  9  1  0  0  0  0
  5 10  1  0  0  0  0
 11  6  1  1  0  0  0
  7 12  1  0  0  0  0
  8 13  2  0  0  0  0
 11 14  1  0  0  0  0
 11 15  1  0  0  0  0
 12 16  1  0  0  0  0
 12 17  2  0  0  0  0
 14 18  1  6  0  0  0
 14 19  1  0  0  0  0
 15 20  1  0  0  0  0
 16 21  1  0  0  0  0
 17 22  1  0  0  0  0
 18 23  1  0  0  0  0
 21 24  1  0  0  0  0
 22 25  1  0  0  0  0
 23 26  1  0  0  0  0
 24 27  1  0  0  0  0
 26 28  2  0  0  0  0
 26 29  1  0  0  0  0
 27 30  1  0  0  0  0
 28 31  1  0  0  0  0
 29 32  2  0  0  0  0
 30 33  1  0  0  0  0
 31 34  1  0  0  0  0
 31 35  2  0  0  0  0
 34 36  2  0  0  0  0
 35 37  1  0  0  0  0
 36 38  1  0  0  0  0
 13 17  1  0  0  0  0
 19 20  1  0  0  0  0
 32 34  1  0  0  0  0
 37 38  2  0  0  0  0
M  END
>  <MolRegNo>
1830626

>  <m>
=

>  <Value>
2500

>  <Unit>
nM

>  <Type>
IC50

>  <pValue>
5.6

>  <Ligand Efficiency>
0

>  <Binding Efficiency>
0

>  <Surface Efficiency>
0

>  <Assay Index>
911068

>  <Assay Category>


>  <Assay Organism>
Homo sapiens

>  <Target ID>
17045

>  <Target Name>
Cytochrome P450 3A4

>  <Target Organism>
Homo sapiens

>  <Target Description>
Target is a single protein chain

>  <Sequence Accession>
P08684

>  <Reference>
Bioorg Med Chem Lett 25 (8), 1782-1786 (2015)

>  <Pubmed ID>
25782742

>  <DOI>
10.1016/j.bmcl.2015.02.039

$$$$
1831743
Actelion Java MolfileCreator 1.0

 37 39  0  0  0  0  0  0  0  0999 V2000
    0.0000   -0.0000   -0.0000 S   0  0  0  0  0  0  0  0  0  0  0  0
    1.1700   -0.3818   -0.0000 O   0  0  0  0  0  0  0  0  0  0  0  0
    0.2463   -1.2070   -0.0000 O   0  0  0  0  0  0  0  0  0  0  0  0
   -1.1823   -1.0222   -0.0000 N   0  0  0  0  0  0  0  0  0  0  0  0
   -0.3325    1.5395   -0.0000 C   0  0  0  0  0  0  0  0  0  0  0  0
   -0.8744   -2.5371   -0.0000 C   0  0  0  0  0  0  0  0  0  0  0  0
    0.8252    2.5864   -0.0000 C   0  0  0  0  0  0  0  0  0  0  0  0
    0.5296   -3.1652   -0.0000 C   0  0  0  0  0  0  0  0  0  0  0  0
   -1.9336   -3.6948   -0.0000 C   0  0  0  0  0  0  0  0  0  0  0  0
    0.5050    4.1259   -0.0000 C   0  0  0  0  0  0  0  0  0  0  0  0
    2.2908    2.1060   -0.0000 C   0  0  0  0  0  0  0  0  0  0  0  0
    0.3818   -4.6924   -0.0000 C   0  0  0  0  0  0  0  0  0  0  0  0
    1.8720   -2.3647   -0.0000 C   0  0  0  0  0  0  0  0  0  0  0  0
   -1.1577   -5.0372   -0.0000 N   0  0  0  0  0  0  0  0  0  0  0  0
    1.6627    5.1727   -0.0000 C   0  0  0  0  0  0  0  0  0  0  0  0
    3.4485    3.1529   -0.0000 C   0  0  0  0  0  0  0  0  0  0  0  0
    3.2145   -3.1283   -0.0000 N   0  0  0  0  0  0  0  0  0  0  0  0
    3.1283    4.6924   -0.0000 C   0  0  0  0  0  0  0  0  0  0  0  0
    4.5569   -2.3277   -0.0000 C   0  0  0  0  0  0  0  0  0  0  0  0
    3.2022   -4.6801   -0.0000 C   0  0  0  0  0  0  0  0  0  0  0  0
    4.5446   -1.0592   -0.0000 O   0  0  0  0  0  0  0  0  0  0  0  0
    5.8994   -3.0913   -0.0000 C   0  0  0  0  0  0  0  0  0  0  0  0
    2.1060   -5.2959   -0.0000 C   0  0  0  0  0  0  0  0  0  0  0  0
    4.2737   -5.2959   -0.0000 C   0  0  0  0  0  0  0  0  0  0  0  0
    5.8871   -4.6431   -0.0000 C   0  0  0  0  0  0  0  0  0  0  0  0
    7.2418   -2.3031   -0.0000 C   0  0  0  0  0  0  0  0  0  0  0  0
    7.2295   -5.4067   -0.0000 C   0  0  0  0  0  0  0  0  0  0  0  0
    8.5843   -3.0667   -0.0000 C   0  0  0  0  0  0  0  0  0  0  0  0
    7.2172   -6.9585   -0.0000 O   0  0  0  0  0  0  0  0  0  0  0  0
    8.5719   -4.6185   -0.0000 C   0  0  0  0  0  0  0  0  0  0  0  0
    5.8501   -7.7221   -0.0000 C   0  0  0  0  0  0  0  0  0  0  0  0
    9.9144   -5.3821   -0.0000 O   0  0  0  0  0  0  0  0  0  0  0  0
    5.8378   -9.2740   -0.0000 C   0  0  0  0  0  0  0  0  0  0  0  0
   10.9859   -4.7417   -0.0000 C   0  0  0  0  0  0  0  0  0  0  0  0
    4.4707  -10.0375   -0.0000 C   0  0  0  0  0  0  0  0  0  0  0  0
    4.4584  -11.5894   -0.0000 O   0  0  0  0  0  0  0  0  0  0  0  0
    3.3623  -12.2052   -0.0000 C   0  0  0  0  0  0  0  0  0  0  0  0
  1  2  2  0  0  0  0
  1  3  2  0  0  0  0
  1  4  1  0  0  0  0
  1  5  1  0  0  0  0
  6  4  1  6  0  0  0
  5  7  1  0  0  0  0
  6  8  1  0  0  0  0
  6  9  1  0  0  0  0
  7 10  2  0  0  0  0
  7 11  1  0  0  0  0
  8 12  1  0  0  0  0
  8 13  1  1  0  0  0
  9 14  1  0  0  0  0
 10 15  1  0  0  0  0
 11 16  2  0  0  0  0
 13 17  1  0  0  0  0
 15 18  2  0  0  0  0
 17 19  1  0  0  0  0
 17 20  1  0  0  0  0
 19 21  2  0  0  0  0
 19 22  1  0  0  0  0
 20 23  1  0  0  0  0
 20 24  1  0  0  0  0
 22 25  2  0  0  0  0
 22 26  1  0  0  0  0
 25 27  1  0  0  0  0
 26 28  2  0  0  0  0
 27 29  1  0  0  0  0
 27 30  2  0  0  0  0
 29 31  1  0  0  0  0
 30 32  1  0  0  0  0
 31 33  1  0  0  0  0
 32 34  1  0  0  0  0
 33 35  1  0  0  0  0
 35 36  1  0  0  0  0
 36 37  1  0  0  0  0
 12 14  1  0  0  0  0
 16 18  1  0  0  0  0
 28 30  1  0  0  0  0
M  END
>  <MolRegNo>
1831743

>  <m>
=

>  <Value>
4400

>  <Unit>
nM

>  <Type>
IC50

>  <pValue>
5.36

>  <Ligand Efficiency>
0

>  <Binding Efficiency>
0

>  <Surface Efficiency>
0

>  <Assay Index>
911067

>  <Assay Category>


>  <Assay Organism>
Homo sapiens

>  <Target ID>
17045

>  <Target Name>
Cytochrome P450 3A4

>  <Target Organism>
Homo sapiens

>  <Target Description>
Target is a single protein chain

>  <Sequence Accession>
P08684

>  <Reference>
Bioorg Med Chem Lett 25 (8), 1782-1786 (2015)

>  <Pubmed ID>
25782742

>  <DOI>
10.1016/j.bmcl.2015.02.039

$$$$
1830636
Actelion Java MolfileCreator 1.0

 37 39  0  0  0  0  0  0  0  0999 V2000
    0.0000   -0.0000   -0.0000 O   0  0  0  0  0  0  0  0  0  0  0  0
   -0.0122   -1.2325   -0.0000 C   0  0  0  0  0  0  0  0  0  0  0  0
   -1.3667   -2.0012   -0.0000 N   0  0  0  0  0  0  0  0  0  0  0  0
    1.3179   -1.9890   -0.0000 C   0  0  0  0  0  0  0  0  0  0  0  0
   -1.3789   -3.5387   -0.0000 C   0  0  0  0  0  0  0  0  0  0  0  0
   -2.7212   -1.2202   -0.0000 C   0  0  0  0  0  0  0  0  0  0  0  0
    1.3057   -3.5265   -0.0000 C   0  0  0  0  0  0  0  0  0  0  0  0
    2.6479   -1.2080   -0.0000 C   0  0  0  0  0  0  0  0  0  0  0  0
   -2.4649   -4.1488   -0.0000 C   0  0  0  0  0  0  0  0  0  0  0  0
   -0.3173   -4.1488   -0.0000 C   0  0  0  0  0  0  0  0  0  0  0  0
   -4.0756   -1.9890   -0.0000 C   0  0  0  0  0  0  0  0  0  0  0  0
    2.6357   -4.2831   -0.0000 C   0  0  0  0  0  0  0  0  0  0  0  0
    3.9780   -1.9646   -0.0000 C   0  0  0  0  0  0  0  0  0  0  0  0
   -5.4911   -1.3423   -0.0000 C   0  0  0  0  0  0  0  0  0  0  0  0
   -4.2221   -3.5021   -0.0000 C   0  0  0  0  0  0  0  0  0  0  0  0
    2.6235   -5.8206   -0.0000 O   0  0  0  0  0  0  0  0  0  0  0  0
    3.9658   -3.5021   -0.0000 C   0  0  0  0  0  0  0  0  0  0  0  0
   -5.8206    0.1830   -0.0000 N   0  0  0  0  0  0  0  0  0  0  0  0
   -6.5405   -2.4893   -0.0000 C   0  0  0  0  0  0  0  0  0  0  0  0
   -5.7474   -3.8194   -0.0000 N   0  0  0  0  0  0  0  0  0  0  0  0
    1.2691   -6.5771   -0.0000 C   0  0  0  0  0  0  0  0  0  0  0  0
    5.2959   -4.2587   -0.0000 O   0  0  0  0  0  0  0  0  0  0  0  0
   -4.6736    1.2202   -0.0000 C   0  0  0  0  0  0  0  0  0  0  0  0
    1.2569   -8.1147   -0.0000 C   0  0  0  0  0  0  0  0  0  0  0  0
    6.3575   -3.6241   -0.0000 C   0  0  0  0  0  0  0  0  0  0  0  0
   -3.5143    0.8420   -0.0000 O   0  0  0  0  0  0  0  0  0  0  0  0
   -5.0030    2.7456   -0.0000 C   0  0  0  0  0  0  0  0  0  0  0  0
   -0.0976   -8.8712   -0.0000 C   0  0  0  0  0  0  0  0  0  0  0  0
   -3.8560    3.7828   -0.0000 C   0  0  0  0  0  0  0  0  0  0  0  0
   -0.1098  -10.4087   -0.0000 O   0  0  0  0  0  0  0  0  0  0  0  0
   -4.1855    5.3081   -0.0000 C   0  0  0  0  0  0  0  0  0  0  0  0
   -1.1958  -11.0189   -0.0000 C   0  0  0  0  0  0  0  0  0  0  0  0
   -3.0384    6.3575   -0.0000 C   0  0  0  0  0  0  0  0  0  0  0  0
   -5.6742    5.8084   -0.0000 C   0  0  0  0  0  0  0  0  0  0  0  0
   -3.3679    7.8828   -0.0000 C   0  0  0  0  0  0  0  0  0  0  0  0
   -6.0036    7.3337   -0.0000 C   0  0  0  0  0  0  0  0  0  0  0  0
   -4.8566    8.3831   -0.0000 C   0  0  0  0  0  0  0  0  0  0  0  0
  1  2  2  0  0  0  0
  2  3  1  0  0  0  0
  2  4  1  0  0  0  0
  3  5  1  0  0  0  0
  3  6  1  0  0  0  0
  4  7  2  0  0  0  0
  4  8  1  0  0  0  0
  5  9  1  0  0  0  0
  5 10  1  0  0  0  0
 11  6  1  1  0  0  0
  7 12  1  0  0  0  0
  8 13  2  0  0  0  0
 11 14  1  0  0  0  0
 11 15  1  0  0  0  0
 12 16  1  0  0  0  0
 12 17  2  0  0  0  0
 14 18  1  6  0  0  0
 14 19  1  0  0  0  0
 15 20  1  0  0  0  0
 16 21  1  0  0  0  0
 17 22  1  0  0  0  0
 18 23  1  0  0  0  0
 21 24  1  0  0  0  0
 22 25  1  0  0  0  0
 23 26  2  0  0  0  0
 23 27  1  0  0  0  0
 24 28  1  0  0  0  0
 27 29  1  0  0  0  0
 28 30  1  0  0  0  0
 29 31  1  0  0  0  0
 30 32  1  0  0  0  0
 31 33  2  0  0  0  0
 31 34  1  0  0  0  0
 33 35  1  0  0  0  0
 34 36  2  0  0  0  0
 35 37  2  0  0  0  0
 13 17  1  0  0  0  0
 19 20  1  0  0  0  0
 36 37  1  0  0  0  0
M  END
>  <MolRegNo>
1830636

>  <m>
=

>  <Value>
3100

>  <Unit>
nM

>  <Type>
IC50

>  <pValue>
5.51

>  <Ligand Efficiency>
0

>  <Binding Efficiency>
0

>  <Surface Efficiency>
0

>  <Assay Index>
911067

>  <Assay Category>


>  <Assay Organism>
Homo sapiens

>  <Target ID>
17045

>  <Target Name>
Cytochrome P450 3A4

>  <Target Organism>
Homo sapiens

>  <Target Description>
Target is a single protein chain

>  <Sequence Accession>
P08684

>  <Reference>
Bioorg Med Chem Lett 25 (8), 1782-1786 (2015)

>  <Pubmed ID>
25782742

>  <DOI>
10.1016/j.bmcl.2015.02.039

$$$$
1830650
Actelion Java MolfileCreator 1.0

 37 39  0  0  0  0  0  0  0  0999 V2000
    0.0000   -0.0000   -0.0000 S   0  0  0  0  0  0  0  0  0  0  0  0
    1.1700   -0.3818   -0.0000 O   0  0  0  0  0  0  0  0  0  0  0  0
    0.2463   -1.2070   -0.0000 O   0  0  0  0  0  0  0  0  0  0  0  0
   -1.1823   -1.0222   -0.0000 N   0  0  0  0  0  0  0  0  0  0  0  0
   -0.3325    1.5395   -0.0000 C   0  0  0  0  0  0  0  0  0  0  0  0
   -0.8744   -2.5371   -0.0000 C   0  0  0  0  0  0  0  0  0  0  0  0
    0.8252    2.5864   -0.0000 C   0  0  0  0  0  0  0  0  0  0  0  0
    0.5296   -3.1652   -0.0000 C   0  0  0  0  0  0  0  0  0  0  0  0
   -1.9336   -3.6948   -0.0000 C   0  0  0  0  0  0  0  0  0  0  0  0
    0.5050    4.1259   -0.0000 C   0  0  0  0  0  0  0  0  0  0  0  0
    2.2908    2.1060   -0.0000 C   0  0  0  0  0  0  0  0  0  0  0  0
    0.3818   -4.6924   -0.0000 C   0  0  0  0  0  0  0  0  0  0  0  0
    1.8720   -2.3647   -0.0000 C   0  0  0  0  0  0  0  0  0  0  0  0
   -1.1577   -5.0372   -0.0000 N   0  0  0  0  0  0  0  0  0  0  0  0
    1.6627    5.1727   -0.0000 C   0  0  0  0  0  0  0  0  0  0  0  0
    3.4485    3.1529   -0.0000 C   0  0  0  0  0  0  0  0  0  0  0  0
    3.2145   -3.1283   -0.0000 N   0  0  0  0  0  0  0  0  0  0  0  0
    3.1283    4.6924   -0.0000 O   0  0  0  0  0  0  0  0  0  0  0  0
    4.5569   -2.3277   -0.0000 C   0  0  0  0  0  0  0  0  0  0  0  0
    3.2022   -4.6801   -0.0000 C   0  0  0  0  0  0  0  0  0  0  0  0
    4.5446   -1.0592   -0.0000 O   0  0  0  0  0  0  0  0  0  0  0  0
    5.8994   -3.0913   -0.0000 C   0  0  0  0  0  0  0  0  0  0  0  0
    2.1060   -5.2959   -0.0000 C   0  0  0  0  0  0  0  0  0  0  0  0
    4.2737   -5.2959   -0.0000 C   0  0  0  0  0  0  0  0  0  0  0  0
    5.8871   -4.6431   -0.0000 C   0  0  0  0  0  0  0  0  0  0  0  0
    7.2418   -2.3031   -0.0000 C   0  0  0  0  0  0  0  0  0  0  0  0
    7.2295   -5.4067   -0.0000 C   0  0  0  0  0  0  0  0  0  0  0  0
    8.5843   -3.0667   -0.0000 C   0  0  0  0  0  0  0  0  0  0  0  0
    7.2172   -6.9585   -0.0000 O   0  0  0  0  0  0  0  0  0  0  0  0
    8.5719   -4.6185   -0.0000 C   0  0  0  0  0  0  0  0  0  0  0  0
    5.8501   -7.7221   -0.0000 C   0  0  0  0  0  0  0  0  0  0  0  0
    9.9144   -5.3821   -0.0000 O   0  0  0  0  0  0  0  0  0  0  0  0
    5.8378   -9.2740   -0.0000 C   0  0  0  0  0  0  0  0  0  0  0  0
   10.9859   -4.7417   -0.0000 C   0  0  0  0  0  0  0  0  0  0  0  0
    4.4707  -10.0375   -0.0000 C   0  0  0  0  0  0  0  0  0  0  0  0
    4.4584  -11.5894   -0.0000 O   0  0  0  0  0  0  0  0  0  0  0  0
    3.3623  -12.2052   -0.0000 C   0  0  0  0  0  0  0  0  0  0  0  0
  1  2  2  0  0  0  0
  1  3  2  0  0  0  0
  1  4  1  0  0  0  0
  1  5  1  0  0  0  0
  6  4  1  6  0  0  0
  5  7  1  0  0  0  0
  6  8  1  0  0  0  0
  6  9  1  0  0  0  0
  7 10  1  0  0  0  0
  7 11  1  0  0  0  0
  8 12  1  0  0  0  0
  8 13  1  1  0  0  0
  9 14  1  0  0  0  0
 10 15  1  0  0  0  0
 11 16  1  0  0  0  0
 13 17  1  0  0  0  0
 15 18  1  0  0  0  0
 17 19  1  0  0  0  0
 17 20  1  0  0  0  0
 19 21  2  0  0  0  0
 19 22  1  0  0  0  0
 20 23  1  0  0  0  0
 20 24  1  0  0  0  0
 22 25  2  0  0  0  0
 22 26  1  0  0  0  0
 25 27  1  0  0  0  0
 26 28  2  0  0  0  0
 27 29  1  0  0  0  0
 27 30  2  0  0  0  0
 29 31  1  0  0  0  0
 30 32  1  0  0  0  0
 31 33  1  0  0  0  0
 32 34  1  0  0  0  0
 33 35  1  0  0  0  0
 35 36  1  0  0  0  0
 36 37  1  0  0  0  0
 12 14  1  0  0  0  0
 16 18  1  0  0  0  0
 28 30  1  0  0  0  0
M  END
>  <MolRegNo>
1830650

>  <m>
=

>  <Value>
10000

>  <Unit>
nM

>  <Type>
IC50

>  <pValue>
5

>  <Ligand Efficiency>
0

>  <Binding Efficiency>
0

>  <Surface Efficiency>
0

>  <Assay Index>
911068

>  <Assay Category>


>  <Assay Organism>
Homo sapiens

>  <Target ID>
17045

>  <Target Name>
Cytochrome P450 3A4

>  <Target Organism>
Homo sapiens

>  <Target Description>
Target is a single protein chain

>  <Sequence Accession>
P08684

>  <Reference>
Bioorg Med Chem Lett 25 (8), 1782-1786 (2015)

>  <Pubmed ID>
25782742

>  <DOI>
10.1016/j.bmcl.2015.02.039

$$$$
1834222
Actelion Java MolfileCreator 1.0

 37 39  0  0  0  0  0  0  0  0999 V2000
    0.0000   -0.0000   -0.0000 O   0  0  0  0  0  0  0  0  0  0  0  0
   -0.9391   -0.8049   -0.0000 C   0  0  0  0  0  0  0  0  0  0  0  0
   -0.6342   -2.3051   -0.0000 O   0  0  0  0  0  0  0  0  0  0  0  0
   -2.4270   -0.3049   -0.0000 N   0  0  0  0  0  0  0  0  0  0  0  0
    0.8171   -2.7807   -0.0000 C   0  0  0  0  0  0  0  0  0  0  0  0
   -2.7563    1.2196   -0.0000 C   0  0  0  0  0  0  0  0  0  0  0  0
    2.0490   -1.8782   -0.0000 C   0  0  0  0  0  0  0  0  0  0  0  0
    1.2928   -4.2443   -0.0000 C   0  0  0  0  0  0  0  0  0  0  0  0
   -4.2443    1.7197   -0.0000 C   0  0  0  0  0  0  0  0  0  0  0  0
    3.2930   -2.7441   -0.0000 C   0  0  0  0  0  0  0  0  0  0  0  0
    2.0368   -0.3171   -0.0000 C   0  0  0  0  0  0  0  0  0  0  0  0
    2.8295   -4.2321   -0.0000 N   0  0  0  0  0  0  0  0  0  0  0  0
   -4.5736    3.2442   -0.0000 C   0  0  0  0  0  0  0  0  0  0  0  0
   -5.4151    0.6952   -0.0000 C   0  0  0  0  0  0  0  0  0  0  0  0
    3.3661    0.4757   -0.0000 N   0  0  0  0  0  0  0  0  0  0  0  0
   -6.0615    3.7442   -0.0000 C   0  0  0  0  0  0  0  0  0  0  0  0
   -6.9030    1.1952   -0.0000 C   0  0  0  0  0  0  0  0  0  0  0  0
    3.3539    2.0368   -0.0000 C   0  0  0  0  0  0  0  0  0  0  0  0
    4.6955   -0.2927   -0.0000 C   0  0  0  0  0  0  0  0  0  0  0  0
   -7.2323    2.7197   -0.0000 C   0  0  0  0  0  0  0  0  0  0  0  0
    2.2685    2.6710   -0.0000 O   0  0  0  0  0  0  0  0  0  0  0  0
    4.6833    2.8295   -0.0000 C   0  0  0  0  0  0  0  0  0  0  0  0
    4.6833   -1.5245   -0.0000 C   0  0  0  0  0  0  0  0  0  0  0  0
    5.7566    0.3415   -0.0000 C   0  0  0  0  0  0  0  0  0  0  0  0
    6.0127    2.0733   -0.0000 C   0  0  0  0  0  0  0  0  0  0  0  0
    4.6711    4.3906   -0.0000 C   0  0  0  0  0  0  0  0  0  0  0  0
    7.3421    2.8539   -0.0000 C   0  0  0  0  0  0  0  0  0  0  0  0
    6.0005    5.1712   -0.0000 C   0  0  0  0  0  0  0  0  0  0  0  0
    8.6715    2.0855   -0.0000 O   0  0  0  0  0  0  0  0  0  0  0  0
    7.3299    4.4150   -0.0000 C   0  0  0  0  0  0  0  0  0  0  0  0
    8.6593    0.5488   -0.0000 C   0  0  0  0  0  0  0  0  0  0  0  0
    8.6593    5.2078   -0.0000 O   0  0  0  0  0  0  0  0  0  0  0  0
    9.9887   -0.2195   -0.0000 C   0  0  0  0  0  0  0  0  0  0  0  0
    8.6471    6.4640   -0.0000 C   0  0  0  0  0  0  0  0  0  0  0  0
    9.9765   -1.7562   -0.0000 C   0  0  0  0  0  0  0  0  0  0  0  0
   11.3059   -2.5246   -0.0000 O   0  0  0  0  0  0  0  0  0  0  0  0
   11.2937   -3.7564   -0.0000 C   0  0  0  0  0  0  0  0  0  0  0  0
  1  2  2  0  0  0  0
  2  3  1  0  0  0  0
  2  4  1  0  0  0  0
  5  3  1  6  0  0  0
  4  6  1  0  0  0  0
  5  7  1  0  0  0  0
  5  8  1  0  0  0  0
  6  9  1  0  0  0  0
  7 10  1  0  0  0  0
  7 11  1  1  0  0  0
  8 12  1  0  0  0  0
  9 13  2  0  0  0  0
  9 14  1  0  0  0  0
 11 15  1  0  0  0  0
 13 16  1  0  0  0  0
 14 17  2  0  0  0  0
 15 18  1  0  0  0  0
 15 19  1  0  0  0  0
 16 20  2  0  0  0  0
 18 21  2  0  0  0  0
 18 22  1  0  0  0  0
 19 23  1  0  0  0  0
 19 24  1  0  0  0  0
 22 25  2  0  0  0  0
 22 26  1  0  0  0  0
 25 27  1  0  0  0  0
 26 28  2  0  0  0  0
 27 29  1  0  0  0  0
 27 30  2  0  0  0  0
 29 31  1  0  0  0  0
 30 32  1  0  0  0  0
 31 33  1  0  0  0  0
 32 34  1  0  0  0  0
 33 35  1  0  0  0  0
 35 36  1  0  0  0  0
 36 37  1  0  0  0  0
 10 12  1  0  0  0  0
 17 20  1  0  0  0  0
 28 30  1  0  0  0  0
M  END
>  <MolRegNo>
1834222

>  <m>
=

>  <Value>
4000

>  <Unit>
nM

>  <Type>
IC50

>  <pValue>
5.4

>  <Ligand Efficiency>
0

>  <Binding Efficiency>
0

>  <Surface Efficiency>
0

>  <Assay Index>
910110

>  <Assay Category>


>  <Assay Organism>
Homo sapiens

>  <Target ID>
17045

>  <Target Name>
Cytochrome P450 3A4

>  <Target Organism>
Homo sapiens

>  <Target Description>
Target is a single protein chain

>  <Sequence Accession>
P08684

>  <Reference>
Bioorg Med Chem Lett 25 (8), 1787-1791 (2015)

>  <Pubmed ID>
25754490

>  <DOI>
10.1016/j.bmcl.2015.02.040

$$$$
1677858
Actelion Java MolfileCreator 1.0

 30 32  0  0  0  0  0  0  0  0999 V2000
    0.0000   -0.0000   -0.0000 O   0  0  0  0  0  0  0  0  0  0  0  0
   -1.3172   -0.7239   -0.0000 C   0  0  0  0  0  0  0  0  0  0  0  0
   -1.3291   -2.2072   -0.0000 N   0  0  0  0  0  0  0  0  0  0  0  0
   -2.5988    0.0356   -0.0000 C   0  0  0  0  0  0  0  0  0  0  0  0
   -0.0475   -2.9548   -0.0000 C   0  0  0  0  0  0  0  0  0  0  0  0
   -2.5988    1.5427   -0.0000 C   0  0  0  0  0  0  0  0  0  0  0  0
   -3.9161   -0.6883   -0.0000 C   0  0  0  0  0  0  0  0  0  0  0  0
   -0.0593   -4.4382   -0.0000 C   0  0  0  0  0  0  0  0  0  0  0  0
    1.2342   -2.1835   -0.0000 C   0  0  0  0  0  0  0  0  0  0  0  0
   -3.9042    2.3140   -0.0000 C   0  0  0  0  0  0  0  0  0  0  0  0
   -5.2214    0.0831   -0.0000 C   0  0  0  0  0  0  0  0  0  0  0  0
    1.2342   -5.1858   -0.0000 C   0  0  0  0  0  0  0  0  0  0  0  0
   -3.9042    3.8330   -0.0000 O   0  0  0  0  0  0  0  0  0  0  0  0
   -5.2214    1.5902   -0.0000 C   0  0  0  0  0  0  0  0  0  0  0  0
    2.5158   -4.4263   -0.0000 N   0  0  0  0  0  0  0  0  0  0  0  0
    1.2223   -6.6810   -0.0000 C   0  0  0  0  0  0  0  0  0  0  0  0
   -5.2214    4.6043   -0.0000 C   0  0  0  0  0  0  0  0  0  0  0  0
   -6.5030    2.3496   -0.0000 O   0  0  0  0  0  0  0  0  0  0  0  0
    3.7974   -5.1621   -0.0000 C   0  0  0  0  0  0  0  0  0  0  0  0
    2.5039   -7.4168   -0.0000 C   0  0  0  0  0  0  0  0  0  0  0  0
   -5.2333    6.1233   -0.0000 C   0  0  0  0  0  0  0  0  0  0  0  0
   -6.5268    3.8686   -0.0000 C   0  0  0  0  0  0  0  0  0  0  0  0
   -7.7965    1.6139   -0.0000 C   0  0  0  0  0  0  0  0  0  0  0  0
    3.7855   -6.6454   -0.0000 C   0  0  0  0  0  0  0  0  0  0  0  0
   -6.5386    6.8828   -0.0000 C   0  0  0  0  0  0  0  0  0  0  0  0
   -7.8321    4.6281   -0.0000 C   0  0  0  0  0  0  0  0  0  0  0  0
   -7.8440    6.1470   -0.0000 N   0  0  0  0  0  0  0  0  0  0  0  0
   -9.1493    6.9065   -0.0000 C   0  0  0  0  0  0  0  0  0  0  0  0
  -10.4547    6.1708   -0.0000 C   0  0  0  0  0  0  0  0  0  0  0  0
   -9.1612    8.4136   -0.0000 C   0  0  0  0  0  0  0  0  0  0  0  0
  1  2  2  0  0  0  0
  2  3  1  0  0  0  0
  2  4  1  0  0  0  0
  3  5  1  0  0  0  0
  4  6  2  0  0  0  0
  4  7  1  0  0  0  0
  5  8  1  0  0  0  0
  5  9  1  0  0  0  0
  6 10  1  0  0  0  0
  7 11  2  0  0  0  0
  8 12  1  0  0  0  0
 10 13  1  0  0  0  0
 10 14  2  0  0  0  0
 12 15  2  0  0  0  0
 12 16  1  0  0  0  0
 13 17  1  0  0  0  0
 14 18  1  0  0  0  0
 15 19  1  0  0  0  0
 16 20  2  0  0  0  0
 17 21  1  0  0  0  0
 17 22  1  0  0  0  0
 18 23  1  0  0  0  0
 19 24  2  0  0  0  0
 21 25  1  0  0  0  0
 22 26  1  0  0  0  0
 25 27  1  0  0  0  0
 27 28  1  0  0  0  0
 28 29  1  0  0  0  0
 28 30  1  0  0  0  0
 11 14  1  0  0  0  0
 20 24  1  0  0  0  0
 26 27  1  0  0  0  0
M  END
>  <MolRegNo>
1677858

>  <m>
=

>  <Value>
28200

>  <Unit>
nM

>  <Type>
IC50

>  <pValue>
4.55

>  <Ligand Efficiency>
0

>  <Binding Efficiency>
0

>  <Surface Efficiency>
0

>  <Assay Index>
909727

>  <Assay Category>


>  <Assay Organism>
Homo sapiens

>  <Target ID>
17045

>  <Target Name>
Cytochrome P450 3A4

>  <Target Organism>
Homo sapiens

>  <Target Description>
Target is a single protein chain

>  <Sequence Accession>
P08684

>  <Reference>
Bioorg Med Chem Lett 25 (8), 1757-1760 (2015)

>  <Pubmed ID>
25801932

>  <DOI>
10.1016/j.bmcl.2015.02.058

$$$$
1835703
Actelion Java MolfileCreator 1.0

 37 43  0  0  0  0  0  0  0  0999 V2000
    0.0000   -0.0000   -0.0000 O   0  0  0  0  0  0  0  0  0  0  0  0
   -1.0747   -0.5970   -0.0000 C   0  0  0  0  0  0  0  0  0  0  0  0
   -1.0917   -2.0982   -0.0000 N   0  0  0  0  0  0  0  0  0  0  0  0
   -2.1835    0.0682   -0.0000 C   0  0  0  0  0  0  0  0  0  0  0  0
   -3.2752   -2.0811   -0.0000 C   0  0  0  0  0  0  0  0  0  0  0  0
   -0.2388   -2.9511   -0.0000 C   0  0  0  0  0  0  0  0  0  0  0  0
   -3.2752   -0.5629   -0.0000 C   0  0  0  0  0  0  0  0  0  0  0  0
   -1.1770    1.2964   -0.0000 C   0  0  0  0  0  0  0  0  0  0  0  0
   -3.4287    1.2964   -0.0000 C   0  0  0  0  0  0  0  0  0  0  0  0
   -4.3670   -2.7293   -0.0000 C   0  0  0  0  0  0  0  0  0  0  0  0
   -4.3670    0.1024   -0.0000 C   0  0  0  0  0  0  0  0  0  0  0  0
    0.1876    1.9617   -0.0000 C   0  0  0  0  0  0  0  0  0  0  0  0
   -5.4758   -2.0470   -0.0000 C   0  0  0  0  0  0  0  0  0  0  0  0
   -5.4758   -0.5288   -0.0000 C   0  0  0  0  0  0  0  0  0  0  0  0
    0.9382    3.2923   -0.0000 C   0  0  0  0  0  0  0  0  0  0  0  0
    0.9041    0.6312   -0.0000 C   0  0  0  0  0  0  0  0  0  0  0  0
    2.4564    3.2752   -0.0000 C   0  0  0  0  0  0  0  0  0  0  0  0
    2.4394    0.6312   -0.0000 C   0  0  0  0  0  0  0  0  0  0  0  0
    3.4799    4.4181   -0.0000 N   0  0  0  0  0  0  0  0  0  0  0  0
    3.1899    1.9617   -0.0000 C   0  0  0  0  0  0  0  0  0  0  0  0
    4.8275    3.8211   -0.0000 N   0  0  0  0  0  0  0  0  0  0  0  0
    4.6570    2.2858   -0.0000 C   0  0  0  0  0  0  0  0  0  0  0  0
    5.7657    1.2794   -0.0000 C   0  0  0  0  0  0  0  0  0  0  0  0
    7.1987    1.7570   -0.0000 C   0  0  0  0  0  0  0  0  0  0  0  0
    8.3075    0.7506   -0.0000 C   0  0  0  0  0  0  0  0  0  0  0  0
    7.9663   -0.7335   -0.0000 C   0  0  0  0  0  0  0  0  0  0  0  0
    9.7404    1.2282   -0.0000 C   0  0  0  0  0  0  0  0  0  0  0  0
    9.0751   -1.7400   -0.0000 N   0  0  0  0  0  0  0  0  0  0  0  0
   10.8492    0.2218   -0.0000 C   0  0  0  0  0  0  0  0  0  0  0  0
   10.5080   -1.2623   -0.0000 C   0  0  0  0  0  0  0  0  0  0  0  0
   11.6168   -2.2688   -0.0000 N   0  0  0  0  0  0  0  0  0  0  0  0
   13.0668   -1.7911   -0.0000 C   0  0  0  0  0  0  0  0  0  0  0  0
   11.2756   -3.7529   -0.0000 C   0  0  0  0  0  0  0  0  0  0  0  0
   14.1756   -2.8146   -0.0000 C   0  0  0  0  0  0  0  0  0  0  0  0
   12.3844   -4.7764   -0.0000 C   0  0  0  0  0  0  0  0  0  0  0  0
   13.8344   -4.2987   -0.0000 N   0  0  0  0  0  0  0  0  0  0  0  0
   14.7214   -5.1005   -0.0000 C   0  0  0  0  0  0  0  0  0  0  0  0
  1  2  2  0  0  0  0
  2  3  1  0  0  0  0
  2  4  1  0  0  0  0
  3  5  1  0  0  0  0
  3  6  1  0  0  0  0
  4  7  1  0  0  0  0
  4  8  1  0  0  0  0
  4  9  1  1  0  0  0
  5 10  1  0  0  0  0
  7 11  1  0  0  0  0
  8 12  1  6  0  0  0
 10 13  2  0  0  0  0
 11 14  2  0  0  0  0
 12 15  2  0  0  0  0
 12 16  1  0  0  0  0
 15 17  1  0  0  0  0
 16 18  2  0  0  0  0
 17 19  1  0  0  0  0
 17 20  2  0  0  0  0
 19 21  1  0  0  0  0
 20 22  1  0  0  0  0
 22 23  1  0  0  0  0
 23 24  2  0  0  0  0
 24 25  1  0  0  0  0
 25 26  2  0  0  0  0
 25 27  1  0  0  0  0
 26 28  1  0  0  0  0
 27 29  2  0  0  0  0
 28 30  2  0  0  0  0
 30 31  1  0  0  0  0
 31 32  1  0  0  0  0
 31 33  1  0  0  0  0
 32 34  1  0  0  0  0
 33 35  1  0  0  0  0
 34 36  1  0  0  0  0
 36 37  1  0  0  0  0
  5  7  2  0  0  0  0
  8  9  1  0  0  0  0
 13 14  1  0  0  0  0
 18 20  1  0  0  0  0
 21 22  2  0  0  0  0
 29 30  1  0  0  0  0
 35 36  1  0  0  0  0
M  END
>  <MolRegNo>
1835703

>  <m>
=

>  <Value>
2900

>  <Unit>
nM

>  <Type>
IC50

>  <pValue>
5.54

>  <Ligand Efficiency>
0

>  <Binding Efficiency>
0

>  <Surface Efficiency>
0

>  <Assay Index>
912667

>  <Assay Category>


>  <Assay Organism>
Homo sapiens

>  <Target ID>
17045

>  <Target Name>
Cytochrome P450 3A4

>  <Target Organism>
Homo sapiens

>  <Target Description>
Target is a single protein chain

>  <Sequence Accession>
P08684

>  <Reference>
J Med Chem 58 (1), 147-169 (2015)

>  <Pubmed ID>
25723005

>  <DOI>
10.1021/jm5005336

$$$$
1835704
Actelion Java MolfileCreator 1.0

 35 41  0  0  0  0  0  0  0  0999 V2000
    0.0000   -0.0000   -0.0000 O   0  0  0  0  0  0  0  0  0  0  0  0
   -1.0643   -0.5913   -0.0000 C   0  0  0  0  0  0  0  0  0  0  0  0
   -1.0812   -2.0780   -0.0000 N   0  0  0  0  0  0  0  0  0  0  0  0
   -2.1624    0.0676   -0.0000 C   0  0  0  0  0  0  0  0  0  0  0  0
   -3.2437   -2.0611   -0.0000 C   0  0  0  0  0  0  0  0  0  0  0  0
   -3.2437   -0.5575   -0.0000 C   0  0  0  0  0  0  0  0  0  0  0  0
   -1.1657    1.2840   -0.0000 C   0  0  0  0  0  0  0  0  0  0  0  0
   -3.3957    1.2840   -0.0000 C   0  0  0  0  0  0  0  0  0  0  0  0
   -4.3249   -2.7031   -0.0000 C   0  0  0  0  0  0  0  0  0  0  0  0
   -4.3249    0.1014   -0.0000 C   0  0  0  0  0  0  0  0  0  0  0  0
    0.1858    1.9428   -0.0000 C   0  0  0  0  0  0  0  0  0  0  0  0
   -5.4230   -2.0273   -0.0000 C   0  0  0  0  0  0  0  0  0  0  0  0
   -5.4230   -0.5237   -0.0000 C   0  0  0  0  0  0  0  0  0  0  0  0
    0.9292    3.2606   -0.0000 C   0  0  0  0  0  0  0  0  0  0  0  0
    0.8954    0.6251   -0.0000 C   0  0  0  0  0  0  0  0  0  0  0  0
    2.4328    3.2437   -0.0000 C   0  0  0  0  0  0  0  0  0  0  0  0
    2.4159    0.6251   -0.0000 C   0  0  0  0  0  0  0  0  0  0  0  0
    3.4464    4.3756   -0.0000 N   0  0  0  0  0  0  0  0  0  0  0  0
    3.1592    1.9428   -0.0000 C   0  0  0  0  0  0  0  0  0  0  0  0
    4.7810    3.7843   -0.0000 N   0  0  0  0  0  0  0  0  0  0  0  0
    4.6121    2.2638   -0.0000 C   0  0  0  0  0  0  0  0  0  0  0  0
    5.7102    1.2671   -0.0000 C   0  0  0  0  0  0  0  0  0  0  0  0
    7.1293    1.7401   -0.0000 C   0  0  0  0  0  0  0  0  0  0  0  0
    8.2274    0.7433   -0.0000 C   0  0  0  0  0  0  0  0  0  0  0  0
    9.6465    1.2164   -0.0000 C   0  0  0  0  0  0  0  0  0  0  0  0
    7.8896   -0.7264   -0.0000 C   0  0  0  0  0  0  0  0  0  0  0  0
   10.7447    0.2196   -0.0000 C   0  0  0  0  0  0  0  0  0  0  0  0
    8.9877   -1.7232   -0.0000 C   0  0  0  0  0  0  0  0  0  0  0  0
   10.4068   -1.2502   -0.0000 C   0  0  0  0  0  0  0  0  0  0  0  0
   11.5049   -2.2469   -0.0000 N   0  0  0  0  0  0  0  0  0  0  0  0
   12.9409   -1.7739   -0.0000 C   0  0  0  0  0  0  0  0  0  0  0  0
   11.1670   -3.7167   -0.0000 C   0  0  0  0  0  0  0  0  0  0  0  0
   14.0390   -2.7875   -0.0000 C   0  0  0  0  0  0  0  0  0  0  0  0
   12.2651   -4.7304   -0.0000 C   0  0  0  0  0  0  0  0  0  0  0  0
   13.7011   -4.2573   -0.0000 N   0  0  0  0  0  0  0  0  0  0  0  0
  1  2  2  0  0  0  0
  2  3  1  0  0  0  0
  2  4  1  0  0  0  0
  3  5  1  0  0  0  0
  4  6  1  0  0  0  0
  4  7  1  0  0  0  0
  4  8  1  1  0  0  0
  5  9  1  0  0  0  0
  6 10  1  0  0  0  0
  7 11  1  6  0  0  0
  9 12  2  0  0  0  0
 10 13  2  0  0  0  0
 11 14  2  0  0  0  0
 11 15  1  0  0  0  0
 14 16  1  0  0  0  0
 15 17  2  0  0  0  0
 16 18  1  0  0  0  0
 16 19  2  0  0  0  0
 18 20  1  0  0  0  0
 19 21  1  0  0  0  0
 21 22  1  0  0  0  0
 22 23  2  0  0  0  0
 23 24  1  0  0  0  0
 24 25  2  0  0  0  0
 24 26  1  0  0  0  0
 25 27  1  0  0  0  0
 26 28  2  0  0  0  0
 27 29  2  0  0  0  0
 29 30  1  0  0  0  0
 30 31  1  0  0  0  0
 30 32  1  0  0  0  0
 31 33  1  0  0  0  0
 32 34  1  0  0  0  0
 33 35  1  0  0  0  0
  5  6  2  0  0  0  0
  7  8  1  0  0  0  0
 12 13  1  0  0  0  0
 17 19  1  0  0  0  0
 20 21  2  0  0  0  0
 28 29  1  0  0  0  0
 34 35  1  0  0  0  0
M  END
>  <MolRegNo>
1835704

>  <m>
=

>  <Value>
2800

>  <Unit>
nM

>  <Type>
IC50

>  <pValue>
5.55

>  <Ligand Efficiency>
0

>  <Binding Efficiency>
0

>  <Surface Efficiency>
0

>  <Assay Index>
912667

>  <Assay Category>


>  <Assay Organism>
Homo sapiens

>  <Target ID>
17045

>  <Target Name>
Cytochrome P450 3A4

>  <Target Organism>
Homo sapiens

>  <Target Description>
Target is a single protein chain

>  <Sequence Accession>
P08684

>  <Reference>
J Med Chem 58 (1), 147-169 (2015)

>  <Pubmed ID>
25723005

>  <DOI>
10.1021/jm5005336

$$$$
1817454
Actelion Java MolfileCreator 1.0

 33 38  0  0  0  0  0  0  0  0999 V2000
    0.0000   -0.0000   -0.0000 O   0  0  0  0  0  0  0  0  0  0  0  0
    1.3534    0.6237   -0.0000 C   0  0  0  0  0  0  0  0  0  0  0  0
    2.6361   -0.1177   -0.0000 N   0  0  0  0  0  0  0  0  0  0  0  0
    1.6593    2.0948   -0.0000 C   0  0  0  0  0  0  0  0  0  0  0  0
    3.7306    0.8944   -0.0000 C   0  0  0  0  0  0  0  0  0  0  0  0
    3.1422    2.2595   -0.0000 C   0  0  0  0  0  0  0  0  0  0  0  0
    0.2236    2.5655   -0.0000 C   0  0  0  0  0  0  0  0  0  0  0  0
    1.3298    3.5658   -0.0000 C   0  0  0  0  0  0  0  0  0  0  0  0
    5.2134    0.7414   -0.0000 C   0  0  0  0  0  0  0  0  0  0  0  0
    4.0130    3.4834   -0.0000 C   0  0  0  0  0  0  0  0  0  0  0  0
   -1.2474    2.2713   -0.0000 C   0  0  0  0  0  0  0  0  0  0  0  0
    6.0842    1.9653   -0.0000 C   0  0  0  0  0  0  0  0  0  0  0  0
    5.4841    3.3304   -0.0000 C   0  0  0  0  0  0  0  0  0  0  0  0
   -1.7299    0.8591   -0.0000 C   0  0  0  0  0  0  0  0  0  0  0  0
   -2.2595    3.3893   -0.0000 C   0  0  0  0  0  0  0  0  0  0  0  0
   -3.2010    0.5531   -0.0000 C   0  0  0  0  0  0  0  0  0  0  0  0
   -3.7306    3.0833   -0.0000 C   0  0  0  0  0  0  0  0  0  0  0  0
   -3.9659   -0.7296   -0.0000 N   0  0  0  0  0  0  0  0  0  0  0  0
   -4.2131    1.6711   -0.0000 C   0  0  0  0  0  0  0  0  0  0  0  0
   -5.4370   -0.4001   -0.0000 N   0  0  0  0  0  0  0  0  0  0  0  0
   -5.5900    1.0827   -0.0000 C   0  0  0  0  0  0  0  0  0  0  0  0
   -6.8963    1.8476   -0.0000 C   0  0  0  0  0  0  0  0  0  0  0  0
   -8.2025    1.1062   -0.0000 C   0  0  0  0  0  0  0  0  0  0  0  0
   -9.5088    1.8712   -0.0000 C   0  0  0  0  0  0  0  0  0  0  0  0
  -10.8151    1.1298   -0.0000 C   0  0  0  0  0  0  0  0  0  0  0  0
   -9.5206    3.3775   -0.0000 C   0  0  0  0  0  0  0  0  0  0  0  0
  -12.1214    1.8947   -0.0000 C   0  0  0  0  0  0  0  0  0  0  0  0
  -10.8269    4.1425   -0.0000 C   0  0  0  0  0  0  0  0  0  0  0  0
  -12.1332    3.4011   -0.0000 C   0  0  0  0  0  0  0  0  0  0  0  0
  -13.4395    4.1660   -0.0000 C   0  0  0  0  0  0  0  0  0  0  0  0
  -14.7458    3.4246   -0.0000 N   0  0  0  0  0  0  0  0  0  0  0  0
  -14.7575    1.9418   -0.0000 C   0  0  0  0  0  0  0  0  0  0  0  0
  -16.0520    4.1895   -0.0000 C   0  0  0  0  0  0  0  0  0  0  0  0
  1  2  2  0  0  0  0
  2  3  1  0  0  0  0
  2  4  1  0  0  0  0
  3  5  1  0  0  0  0
  4  6  1  0  0  0  0
  4  7  1  0  0  0  0
  4  8  1  6  0  0  0
  5  9  1  0  0  0  0
  6 10  1  0  0  0  0
  7 11  1  1  0  0  0
  9 12  2  0  0  0  0
 10 13  2  0  0  0  0
 11 14  2  0  0  0  0
 11 15  1  0  0  0  0
 14 16  1  0  0  0  0
 15 17  2  0  0  0  0
 16 18  1  0  0  0  0
 16 19  2  0  0  0  0
 18 20  1  0  0  0  0
 19 21  1  0  0  0  0
 21 22  1  0  0  0  0
 22 23  2  0  0  0  0
 23 24  1  0  0  0  0
 24 25  2  0  0  0  0
 24 26  1  0  0  0  0
 25 27  1  0  0  0  0
 26 28  2  0  0  0  0
 27 29  2  0  0  0  0
 29 30  1  0  0  0  0
 30 31  1  0  0  0  0
 31 32  1  0  0  0  0
 31 33  1  0  0  0  0
  5  6  2  0  0  0  0
  7  8  1  0  0  0  0
 12 13  1  0  0  0  0
 17 19  1  0  0  0  0
 20 21  2  0  0  0  0
 28 29  1  0  0  0  0
M  END
>  <MolRegNo>
1817454

>  <m>
=

>  <Value>
10000

>  <Unit>
nM

>  <Type>
IC50

>  <pValue>
5

>  <Ligand Efficiency>
0

>  <Binding Efficiency>
0

>  <Surface Efficiency>
0

>  <Assay Index>
912667

>  <Assay Category>


>  <Assay Organism>
Homo sapiens

>  <Target ID>
17045

>  <Target Name>
Cytochrome P450 3A4

>  <Target Organism>
Homo sapiens

>  <Target Description>
Target is a single protein chain

>  <Sequence Accession>
P08684

>  <Reference>
J Med Chem 58 (1), 147-169 (2015)

>  <Pubmed ID>
25723005

>  <DOI>
10.1021/jm5005336

$$$$
1817455
Actelion Java MolfileCreator 1.0

 35 40  0  0  0  0  0  0  0  0999 V2000
    0.0000   -0.0000   -0.0000 O   0  0  0  0  0  0  0  0  0  0  0  0
    1.3573    0.6255   -0.0000 C   0  0  0  0  0  0  0  0  0  0  0  0
    2.6438   -0.1062   -0.0000 N   0  0  0  0  0  0  0  0  0  0  0  0
    1.6524    2.1009   -0.0000 C   0  0  0  0  0  0  0  0  0  0  0  0
    3.7414    0.9088   -0.0000 C   0  0  0  0  0  0  0  0  0  0  0  0
    3.1277    2.2661   -0.0000 C   0  0  0  0  0  0  0  0  0  0  0  0
    0.2124    2.5730   -0.0000 C   0  0  0  0  0  0  0  0  0  0  0  0
    1.3337    3.5762   -0.0000 C   0  0  0  0  0  0  0  0  0  0  0  0
    5.2167    0.7554   -0.0000 C   0  0  0  0  0  0  0  0  0  0  0  0
    3.9893    3.4936   -0.0000 C   0  0  0  0  0  0  0  0  0  0  0  0
   -1.2629    2.2779   -0.0000 C   0  0  0  0  0  0  0  0  0  0  0  0
    6.0901    1.9828   -0.0000 C   0  0  0  0  0  0  0  0  0  0  0  0
    5.4764    3.3401   -0.0000 C   0  0  0  0  0  0  0  0  0  0  0  0
   -1.7350    0.8734   -0.0000 C   0  0  0  0  0  0  0  0  0  0  0  0
   -2.2779    3.3991   -0.0000 C   0  0  0  0  0  0  0  0  0  0  0  0
    6.3380    4.5676   -0.0000 O   0  0  0  0  0  0  0  0  0  0  0  0
   -3.2103    0.5783   -0.0000 C   0  0  0  0  0  0  0  0  0  0  0  0
   -3.7532    3.1041   -0.0000 C   0  0  0  0  0  0  0  0  0  0  0  0
    7.8133    4.4142   -0.0000 C   0  0  0  0  0  0  0  0  0  0  0  0
   -3.9775   -0.7082   -0.0000 N   0  0  0  0  0  0  0  0  0  0  0  0
   -4.2253    1.6996   -0.0000 C   0  0  0  0  0  0  0  0  0  0  0  0
   -5.4410   -0.3777   -0.0000 N   0  0  0  0  0  0  0  0  0  0  0  0
   -5.6062    1.0976   -0.0000 C   0  0  0  0  0  0  0  0  0  0  0  0
   -6.9163    1.8530   -0.0000 C   0  0  0  0  0  0  0  0  0  0  0  0
   -8.2264    1.1212   -0.0000 C   0  0  0  0  0  0  0  0  0  0  0  0
   -9.5365    1.8766   -0.0000 C   0  0  0  0  0  0  0  0  0  0  0  0
  -10.8466    1.1449   -0.0000 C   0  0  0  0  0  0  0  0  0  0  0  0
   -9.5483    3.3873   -0.0000 C   0  0  0  0  0  0  0  0  0  0  0  0
  -12.1567    1.9002   -0.0000 C   0  0  0  0  0  0  0  0  0  0  0  0
  -10.8584    4.1427   -0.0000 C   0  0  0  0  0  0  0  0  0  0  0  0
  -12.1685    3.4109   -0.0000 C   0  0  0  0  0  0  0  0  0  0  0  0
  -13.4785    4.1663   -0.0000 C   0  0  0  0  0  0  0  0  0  0  0  0
  -14.7886    3.4346   -0.0000 N   0  0  0  0  0  0  0  0  0  0  0  0
  -14.8004    1.9474   -0.0000 C   0  0  0  0  0  0  0  0  0  0  0  0
  -16.0869    4.1899   -0.0000 C   0  0  0  0  0  0  0  0  0  0  0  0
  1  2  2  0  0  0  0
  2  3  1  0  0  0  0
  2  4  1  0  0  0  0
  3  5  1  0  0  0  0
  4  6  1  0  0  0  0
  4  7  1  0  0  0  0
  4  8  1  6  0  0  0
  5  9  1  0  0  0  0
  6 10  1  0  0  0  0
  7 11  1  1  0  0  0
  9 12  2  0  0  0  0
 10 13  2  0  0  0  0
 11 14  2  0  0  0  0
 11 15  1  0  0  0  0
 13 16  1  0  0  0  0
 14 17  1  0  0  0  0
 15 18  2  0  0  0  0
 16 19  1  0  0  0  0
 17 20  1  0  0  0  0
 17 21  2  0  0  0  0
 20 22  1  0  0  0  0
 21 23  1  0  0  0  0
 23 24  1  0  0  0  0
 24 25  2  0  0  0  0
 25 26  1  0  0  0  0
 26 27  2  0  0  0  0
 26 28  1  0  0  0  0
 27 29  1  0  0  0  0
 28 30  2  0  0  0  0
 29 31  2  0  0  0  0
 31 32  1  0  0  0  0
 32 33  1  0  0  0  0
 33 34  1  0  0  0  0
 33 35  1  0  0  0  0
  5  6  2  0  0  0  0
  7  8  1  0  0  0  0
 12 13  1  0  0  0  0
 18 21  1  0  0  0  0
 22 23  2  0  0  0  0
 30 31  1  0  0  0  0
M  END
>  <MolRegNo>
1817455

>  <m>
=

>  <Value>
7500

>  <Unit>
nM

>  <Type>
IC50

>  <pValue>
5.12

>  <Ligand Efficiency>
0

>  <Binding Efficiency>
0

>  <Surface Efficiency>
0

>  <Assay Index>
912667

>  <Assay Category>


>  <Assay Organism>
Homo sapiens

>  <Target ID>
17045

>  <Target Name>
Cytochrome P450 3A4

>  <Target Organism>
Homo sapiens

>  <Target Description>
Target is a single protein chain

>  <Sequence Accession>
P08684

>  <Reference>
J Med Chem 58 (1), 147-169 (2015)

>  <Pubmed ID>
25723005

>  <DOI>
10.1021/jm5005336

$$$$
1835706
Actelion Java MolfileCreator 1.0

 36 42  0  0  0  0  0  0  0  0999 V2000
    0.0000   -0.0000   -0.0000 F   0  0  0  0  0  0  0  0  0  0  0  0
   -0.4906    1.1214   -0.0000 C   0  0  0  0  0  0  0  0  0  0  0  0
    0.2628    2.4356   -0.0000 C   0  0  0  0  0  0  0  0  0  0  0  0
   -1.9800    1.4719   -0.0000 C   0  0  0  0  0  0  0  0  0  0  0  0
   -0.7535    3.5571   -0.0000 N   0  0  0  0  0  0  0  0  0  0  0  0
   -2.1377    2.9964   -0.0000 C   0  0  0  0  0  0  0  0  0  0  0  0
   -0.4381    5.0465   -0.0000 C   0  0  0  0  0  0  0  0  0  0  0  0
   -1.5595    6.0803   -0.0000 C   0  0  0  0  0  0  0  0  0  0  0  0
   -1.2616    7.5697   -0.0000 C   0  0  0  0  0  0  0  0  0  0  0  0
   -3.0139    5.6423   -0.0000 C   0  0  0  0  0  0  0  0  0  0  0  0
   -2.3831    8.6036   -0.0000 C   0  0  0  0  0  0  0  0  0  0  0  0
   -4.1353    6.6761   -0.0000 C   0  0  0  0  0  0  0  0  0  0  0  0
   -3.8374    8.1655   -0.0000 C   0  0  0  0  0  0  0  0  0  0  0  0
   -4.9764    9.1993   -0.0000 C   0  0  0  0  0  0  0  0  0  0  0  0
   -6.4308    8.7613   -0.0000 C   0  0  0  0  0  0  0  0  0  0  0  0
   -7.5697    9.7951   -0.0000 C   0  0  0  0  0  0  0  0  0  0  0  0
   -7.4295   11.3195   -0.0000 N   0  0  0  0  0  0  0  0  0  0  0  0
   -9.0591    9.5147   -0.0000 C   0  0  0  0  0  0  0  0  0  0  0  0
   -8.7963   11.9328   -0.0000 N   0  0  0  0  0  0  0  0  0  0  0  0
   -9.8126   10.8464   -0.0000 C   0  0  0  0  0  0  0  0  0  0  0  0
   -9.8301    8.2181   -0.0000 C   0  0  0  0  0  0  0  0  0  0  0  0
  -11.3371   10.8990   -0.0000 C   0  0  0  0  0  0  0  0  0  0  0  0
  -11.3721    8.2531   -0.0000 C   0  0  0  0  0  0  0  0  0  0  0  0
  -12.1081    9.6199   -0.0000 C   0  0  0  0  0  0  0  0  0  0  0  0
  -13.4923    9.0066   -0.0000 C   0  0  0  0  0  0  0  0  0  0  0  0
  -14.5262    7.8326   -0.0000 C   0  0  0  0  0  0  0  0  0  0  0  0
  -15.7352    9.0241   -0.0000 C   0  0  0  0  0  0  0  0  0  0  0  0
  -13.4748    7.2193   -0.0000 C   0  0  0  0  0  0  0  0  0  0  0  0
  -15.5950    7.2193   -0.0000 C   0  0  0  0  0  0  0  0  0  0  0  0
  -12.4410    7.8326   -0.0000 O   0  0  0  0  0  0  0  0  0  0  0  0
  -13.4923    5.7474   -0.0000 N   0  0  0  0  0  0  0  0  0  0  0  0
  -15.6126    5.7474   -0.0000 C   0  0  0  0  0  0  0  0  0  0  0  0
  -16.6639    7.8676   -0.0000 C   0  0  0  0  0  0  0  0  0  0  0  0
  -16.6814    5.0991   -0.0000 C   0  0  0  0  0  0  0  0  0  0  0  0
  -17.7503    7.2543   -0.0000 C   0  0  0  0  0  0  0  0  0  0  0  0
  -17.7678    5.7824   -0.0000 C   0  0  0  0  0  0  0  0  0  0  0  0
  2  1  1  1  0  0  0
  2  3  1  0  0  0  0
  2  4  1  0  0  0  0
  3  5  1  0  0  0  0
  4  6  1  0  0  0  0
  5  7  1  0  0  0  0
  7  8  1  0  0  0  0
  8  9  2  0  0  0  0
  8 10  1  0  0  0  0
  9 11  1  0  0  0  0
 10 12  2  0  0  0  0
 11 13  2  0  0  0  0
 13 14  1  0  0  0  0
 14 15  2  0  0  0  0
 15 16  1  0  0  0  0
 16 17  2  0  0  0  0
 16 18  1  0  0  0  0
 17 19  1  0  0  0  0
 18 20  2  0  0  0  0
 18 21  1  0  0  0  0
 20 22  1  0  0  0  0
 21 23  2  0  0  0  0
 22 24  2  0  0  0  0
 25 24  1  6  0  0  0
 25 26  1  0  0  0  0
 25 27  1  0  0  0  0
 26 28  1  0  0  0  0
 26 29  1  0  0  0  0
 28 30  2  0  0  0  0
 28 31  1  0  0  0  0
 29 32  2  0  0  0  0
 29 33  1  0  0  0  0
 32 34  1  0  0  0  0
 33 35  2  0  0  0  0
 34 36  2  0  0  0  0
  5  6  1  0  0  0  0
 12 13  1  0  0  0  0
 19 20  1  0  0  0  0
 23 24  1  0  0  0  0
 26 27  1  1  0  0  0
 31 32  1  0  0  0  0
 35 36  1  0  0  0  0
M  END
>  <MolRegNo>
1835706

>  <m>
=

>  <Value>
10000

>  <Unit>
nM

>  <Type>
IC50

>  <pValue>
5

>  <Ligand Efficiency>
0

>  <Binding Efficiency>
0

>  <Surface Efficiency>
0

>  <Assay Index>
912667

>  <Assay Category>


>  <Assay Organism>
Homo sapiens

>  <Target ID>
17045

>  <Target Name>
Cytochrome P450 3A4

>  <Target Organism>
Homo sapiens

>  <Target Description>
Target is a single protein chain

>  <Sequence Accession>
P08684

>  <Reference>
J Med Chem 58 (1), 147-169 (2015)

>  <Pubmed ID>
25723005

>  <DOI>
10.1021/jm5005336

$$$$
1835707
Actelion Java MolfileCreator 1.0

 38 44  0  0  0  0  0  0  0  0999 V2000
    0.0000   -0.0000   -0.0000 O   0  0  0  0  0  0  0  0  0  0  0  0
   -1.0671   -0.5928   -0.0000 C   0  0  0  0  0  0  0  0  0  0  0  0
   -1.0840   -2.0834   -0.0000 N   0  0  0  0  0  0  0  0  0  0  0  0
   -2.1680    0.0678   -0.0000 C   0  0  0  0  0  0  0  0  0  0  0  0
   -3.2521   -2.0664   -0.0000 C   0  0  0  0  0  0  0  0  0  0  0  0
   -3.2521   -0.5589   -0.0000 C   0  0  0  0  0  0  0  0  0  0  0  0
   -1.1687    1.2873   -0.0000 C   0  0  0  0  0  0  0  0  0  0  0  0
   -3.4045    1.2873   -0.0000 C   0  0  0  0  0  0  0  0  0  0  0  0
   -4.3361   -2.7101   -0.0000 C   0  0  0  0  0  0  0  0  0  0  0  0
   -4.3361    0.1016   -0.0000 C   0  0  0  0  0  0  0  0  0  0  0  0
    0.1863    1.9479   -0.0000 C   0  0  0  0  0  0  0  0  0  0  0  0
   -5.4370   -2.0325   -0.0000 C   0  0  0  0  0  0  0  0  0  0  0  0
   -5.4370   -0.5251   -0.0000 C   0  0  0  0  0  0  0  0  0  0  0  0
    0.9316    3.2690   -0.0000 C   0  0  0  0  0  0  0  0  0  0  0  0
    0.8977    0.6267   -0.0000 C   0  0  0  0  0  0  0  0  0  0  0  0
   -6.7413    0.3049   -0.0000 O   0  0  0  0  0  0  0  0  0  0  0  0
    2.4390    3.2521   -0.0000 C   0  0  0  0  0  0  0  0  0  0  0  0
    2.4221    0.6267   -0.0000 C   0  0  0  0  0  0  0  0  0  0  0  0
   -7.8422   -0.2371   -0.0000 C   0  0  0  0  0  0  0  0  0  0  0  0
    3.4553    4.3869   -0.0000 N   0  0  0  0  0  0  0  0  0  0  0  0
    3.1674    1.9479   -0.0000 C   0  0  0  0  0  0  0  0  0  0  0  0
    4.7934    3.7941   -0.0000 N   0  0  0  0  0  0  0  0  0  0  0  0
    4.6240    2.2697   -0.0000 C   0  0  0  0  0  0  0  0  0  0  0  0
    5.7250    1.2703   -0.0000 C   0  0  0  0  0  0  0  0  0  0  0  0
    7.1478    1.7446   -0.0000 C   0  0  0  0  0  0  0  0  0  0  0  0
    8.2487    0.7453   -0.0000 C   0  0  0  0  0  0  0  0  0  0  0  0
    9.6715    1.2195   -0.0000 C   0  0  0  0  0  0  0  0  0  0  0  0
    7.9100   -0.7283   -0.0000 C   0  0  0  0  0  0  0  0  0  0  0  0
   10.7725    0.2202   -0.0000 C   0  0  0  0  0  0  0  0  0  0  0  0
    9.0109   -1.7277   -0.0000 C   0  0  0  0  0  0  0  0  0  0  0  0
   10.4337   -1.2534   -0.0000 C   0  0  0  0  0  0  0  0  0  0  0  0
   11.5347   -2.2697   -0.0000 C   0  0  0  0  0  0  0  0  0  0  0  0
   11.1959   -3.7433   -0.0000 N   0  0  0  0  0  0  0  0  0  0  0  0
   12.2969   -4.7595   -0.0000 C   0  0  0  0  0  0  0  0  0  0  0  0
    9.7223   -4.1836   -0.0000 C   0  0  0  0  0  0  0  0  0  0  0  0
   11.9581   -6.2331   -0.0000 C   0  0  0  0  0  0  0  0  0  0  0  0
    9.3836   -5.6572   -0.0000 C   0  0  0  0  0  0  0  0  0  0  0  0
   10.4845   -6.6735   -0.0000 C   0  0  0  0  0  0  0  0  0  0  0  0
  1  2  2  0  0  0  0
  2  3  1  0  0  0  0
  2  4  1  0  0  0  0
  3  5  1  0  0  0  0
  4  6  1  0  0  0  0
  4  7  1  0  0  0  0
  4  8  1  1  0  0  0
  5  9  1  0  0  0  0
  6 10  1  0  0  0  0
  7 11  1  6  0  0  0
  9 12  2  0  0  0  0
 10 13  2  0  0  0  0
 11 14  2  0  0  0  0
 11 15  1  0  0  0  0
 13 16  1  0  0  0  0
 14 17  1  0  0  0  0
 15 18  2  0  0  0  0
 16 19  1  0  0  0  0
 17 20  1  0  0  0  0
 17 21  2  0  0  0  0
 20 22  1  0  0  0  0
 21 23  1  0  0  0  0
 23 24  1  0  0  0  0
 24 25  2  0  0  0  0
 25 26  1  0  0  0  0
 26 27  2  0  0  0  0
 26 28  1  0  0  0  0
 27 29  1  0  0  0  0
 28 30  2  0  0  0  0
 29 31  2  0  0  0  0
 31 32  1  0  0  0  0
 32 33  1  0  0  0  0
 33 34  1  0  0  0  0
 33 35  1  0  0  0  0
 34 36  1  0  0  0  0
 35 37  1  0  0  0  0
 36 38  1  0  0  0  0
  5  6  2  0  0  0  0
  7  8  1  0  0  0  0
 12 13  1  0  0  0  0
 18 21  1  0  0  0  0
 22 23  2  0  0  0  0
 30 31  1  0  0  0  0
 37 38  1  0  0  0  0
M  END
>  <MolRegNo>
1835707

>  <m>
=

>  <Value>
5400

>  <Unit>
nM

>  <Type>
IC50

>  <pValue>
5.27

>  <Ligand Efficiency>
0

>  <Binding Efficiency>
0

>  <Surface Efficiency>
0

>  <Assay Index>
912667

>  <Assay Category>


>  <Assay Organism>
Homo sapiens

>  <Target ID>
17045

>  <Target Name>
Cytochrome P450 3A4

>  <Target Organism>
Homo sapiens

>  <Target Description>
Target is a single protein chain

>  <Sequence Accession>
P08684

>  <Reference>
J Med Chem 58 (1), 147-169 (2015)

>  <Pubmed ID>
25723005

>  <DOI>
10.1021/jm5005336

$$$$
1817461
Actelion Java MolfileCreator 1.0

 36 42  0  0  0  0  0  0  0  0999 V2000
    0.0000   -0.0000   -0.0000 O   0  0  0  0  0  0  0  0  0  0  0  0
    1.3528    0.6235   -0.0000 C   0  0  0  0  0  0  0  0  0  0  0  0
    2.6350   -0.1176   -0.0000 N   0  0  0  0  0  0  0  0  0  0  0  0
    1.6587    2.0939   -0.0000 C   0  0  0  0  0  0  0  0  0  0  0  0
    3.7291    0.8940   -0.0000 C   0  0  0  0  0  0  0  0  0  0  0  0
    3.1409    2.2586   -0.0000 C   0  0  0  0  0  0  0  0  0  0  0  0
    0.2235    2.5762   -0.0000 C   0  0  0  0  0  0  0  0  0  0  0  0
    1.3293    3.5644   -0.0000 C   0  0  0  0  0  0  0  0  0  0  0  0
    5.2113    0.7411   -0.0000 C   0  0  0  0  0  0  0  0  0  0  0  0
    4.0114    3.4820   -0.0000 C   0  0  0  0  0  0  0  0  0  0  0  0
   -1.2469    2.2704   -0.0000 C   0  0  0  0  0  0  0  0  0  0  0  0
    6.0818    1.9645   -0.0000 C   0  0  0  0  0  0  0  0  0  0  0  0
    5.4818    3.3409   -0.0000 C   0  0  0  0  0  0  0  0  0  0  0  0
   -1.7175    0.8587   -0.0000 C   0  0  0  0  0  0  0  0  0  0  0  0
   -2.2586    3.3879   -0.0000 C   0  0  0  0  0  0  0  0  0  0  0  0
   -3.1997    0.5529   -0.0000 C   0  0  0  0  0  0  0  0  0  0  0  0
   -3.7291    3.0821   -0.0000 C   0  0  0  0  0  0  0  0  0  0  0  0
   -3.9643   -0.7293   -0.0000 N   0  0  0  0  0  0  0  0  0  0  0  0
   -4.2114    1.6704   -0.0000 C   0  0  0  0  0  0  0  0  0  0  0  0
   -5.4348   -0.4117   -0.0000 N   0  0  0  0  0  0  0  0  0  0  0  0
   -5.5877    1.0823   -0.0000 C   0  0  0  0  0  0  0  0  0  0  0  0
   -6.8935    1.8469   -0.0000 C   0  0  0  0  0  0  0  0  0  0  0  0
   -8.1992    1.1058   -0.0000 C   0  0  0  0  0  0  0  0  0  0  0  0
   -9.5050    1.8704   -0.0000 C   0  0  0  0  0  0  0  0  0  0  0  0
  -10.8108    1.1293   -0.0000 C   0  0  0  0  0  0  0  0  0  0  0  0
   -9.5168    3.3762   -0.0000 C   0  0  0  0  0  0  0  0  0  0  0  0
  -12.1165    1.8939   -0.0000 C   0  0  0  0  0  0  0  0  0  0  0  0
  -10.8225    4.1408   -0.0000 C   0  0  0  0  0  0  0  0  0  0  0  0
  -12.1283    3.3997   -0.0000 C   0  0  0  0  0  0  0  0  0  0  0  0
  -13.4340    4.1643   -0.0000 C   0  0  0  0  0  0  0  0  0  0  0  0
  -14.7398    3.4232   -0.0000 N   0  0  0  0  0  0  0  0  0  0  0  0
  -16.0456    4.1878   -0.0000 C   0  0  0  0  0  0  0  0  0  0  0  0
  -14.7516    1.9410   -0.0000 C   0  0  0  0  0  0  0  0  0  0  0  0
  -17.3513    3.4467   -0.0000 C   0  0  0  0  0  0  0  0  0  0  0  0
  -16.0573    1.1999   -0.0000 C   0  0  0  0  0  0  0  0  0  0  0  0
  -17.3631    1.9645   -0.0000 O   0  0  0  0  0  0  0  0  0  0  0  0
  1  2  2  0  0  0  0
  2  3  1  0  0  0  0
  2  4  1  0  0  0  0
  3  5  1  0  0  0  0
  4  6  1  0  0  0  0
  4  7  1  0  0  0  0
  4  8  1  6  0  0  0
  5  9  1  0  0  0  0
  6 10  1  0  0  0  0
  7 11  1  1  0  0  0
  9 12  2  0  0  0  0
 10 13  2  0  0  0  0
 11 14  2  0  0  0  0
 11 15  1  0  0  0  0
 14 16  1  0  0  0  0
 15 17  2  0  0  0  0
 16 18  1  0  0  0  0
 16 19  2  0  0  0  0
 18 20  1  0  0  0  0
 19 21  1  0  0  0  0
 21 22  1  0  0  0  0
 22 23  2  0  0  0  0
 23 24  1  0  0  0  0
 24 25  2  0  0  0  0
 24 26  1  0  0  0  0
 25 27  1  0  0  0  0
 26 28  2  0  0  0  0
 27 29  2  0  0  0  0
 29 30  1  0  0  0  0
 30 31  1  0  0  0  0
 31 32  1  0  0  0  0
 31 33  1  0  0  0  0
 32 34  1  0  0  0  0
 33 35  1  0  0  0  0
 34 36  1  0  0  0  0
  5  6  2  0  0  0  0
  7  8  1  0  0  0  0
 12 13  1  0  0  0  0
 17 19  1  0  0  0  0
 20 21  2  0  0  0  0
 28 29  1  0  0  0  0
 35 36  1  0  0  0  0
M  END
>  <MolRegNo>
1817461

>  <m>
=

>  <Value>
2700

>  <Unit>
nM

>  <Type>
IC50

>  <pValue>
5.57

>  <Ligand Efficiency>
0

>  <Binding Efficiency>
0

>  <Surface Efficiency>
0

>  <Assay Index>
912667

>  <Assay Category>


>  <Assay Organism>
Homo sapiens

>  <Target ID>
17045

>  <Target Name>
Cytochrome P450 3A4

>  <Target Organism>
Homo sapiens

>  <Target Description>
Target is a single protein chain

>  <Sequence Accession>
P08684

>  <Reference>
J Med Chem 58 (1), 147-169 (2015)

>  <Pubmed ID>
25723005

>  <DOI>
10.1021/jm5005336

$$$$
1817464
Actelion Java MolfileCreator 1.0

 37 43  0  0  0  0  0  0  0  0999 V2000
    0.0000   -0.0000   -0.0000 O   0  0  0  0  0  0  0  0  0  0  0  0
    1.3555    0.6129   -0.0000 C   0  0  0  0  0  0  0  0  0  0  0  0
    2.6403   -0.1179   -0.0000 N   0  0  0  0  0  0  0  0  0  0  0  0
    1.6620    2.0863   -0.0000 C   0  0  0  0  0  0  0  0  0  0  0  0
    3.7365    0.8958   -0.0000 C   0  0  0  0  0  0  0  0  0  0  0  0
    3.1471    2.2631   -0.0000 C   0  0  0  0  0  0  0  0  0  0  0  0
    0.2240    2.5696   -0.0000 C   0  0  0  0  0  0  0  0  0  0  0  0
    1.3319    3.5715   -0.0000 C   0  0  0  0  0  0  0  0  0  0  0  0
    5.2099    0.7426   -0.0000 C   0  0  0  0  0  0  0  0  0  0  0  0
    4.0076    3.4772   -0.0000 C   0  0  0  0  0  0  0  0  0  0  0  0
   -1.2494    2.2631   -0.0000 C   0  0  0  0  0  0  0  0  0  0  0  0
    6.0821    1.9684   -0.0000 C   0  0  0  0  0  0  0  0  0  0  0  0
    5.4928    3.3357   -0.0000 C   0  0  0  0  0  0  0  0  0  0  0  0
   -1.7327    0.8487   -0.0000 C   0  0  0  0  0  0  0  0  0  0  0  0
   -2.2631    3.3829   -0.0000 C   0  0  0  0  0  0  0  0  0  0  0  0
    6.3650    4.5498   -0.0000 C   0  0  0  0  0  0  0  0  0  0  0  0
   -3.2061    0.5422   -0.0000 C   0  0  0  0  0  0  0  0  0  0  0  0
   -3.7365    3.0764   -0.0000 C   0  0  0  0  0  0  0  0  0  0  0  0
   -3.9604   -0.7426   -0.0000 N   0  0  0  0  0  0  0  0  0  0  0  0
   -4.2198    1.6738   -0.0000 C   0  0  0  0  0  0  0  0  0  0  0  0
   -5.4338   -0.4243   -0.0000 N   0  0  0  0  0  0  0  0  0  0  0  0
   -5.5871    1.0726   -0.0000 C   0  0  0  0  0  0  0  0  0  0  0  0
   -6.8954    1.8270   -0.0000 C   0  0  0  0  0  0  0  0  0  0  0  0
   -8.2038    1.0962   -0.0000 C   0  0  0  0  0  0  0  0  0  0  0  0
   -9.5121    1.8506   -0.0000 C   0  0  0  0  0  0  0  0  0  0  0  0
  -10.8205    1.1198   -0.0000 C   0  0  0  0  0  0  0  0  0  0  0  0
   -9.5239    3.3593   -0.0000 C   0  0  0  0  0  0  0  0  0  0  0  0
  -12.1289    1.8741   -0.0000 C   0  0  0  0  0  0  0  0  0  0  0  0
  -10.8323    4.1137   -0.0000 C   0  0  0  0  0  0  0  0  0  0  0  0
  -12.1407    3.3829   -0.0000 C   0  0  0  0  0  0  0  0  0  0  0  0
  -13.4490    4.1373   -0.0000 C   0  0  0  0  0  0  0  0  0  0  0  0
  -14.7574    3.4065   -0.0000 N   0  0  0  0  0  0  0  0  0  0  0  0
  -16.0657    4.1608   -0.0000 C   0  0  0  0  0  0  0  0  0  0  0  0
  -14.7692    1.9213   -0.0000 C   0  0  0  0  0  0  0  0  0  0  0  0
  -17.3741    3.4300   -0.0000 C   0  0  0  0  0  0  0  0  0  0  0  0
  -16.0775    1.1905   -0.0000 C   0  0  0  0  0  0  0  0  0  0  0  0
  -17.3859    1.9449   -0.0000 O   0  0  0  0  0  0  0  0  0  0  0  0
  1  2  2  0  0  0  0
  2  3  1  0  0  0  0
  2  4  1  0  0  0  0
  3  5  1  0  0  0  0
  4  6  1  0  0  0  0
  4  7  1  0  0  0  0
  4  8  1  6  0  0  0
  5  9  1  0  0  0  0
  6 10  1  0  0  0  0
  7 11  1  1  0  0  0
  9 12  2  0  0  0  0
 10 13  2  0  0  0  0
 11 14  2  0  0  0  0
 11 15  1  0  0  0  0
 13 16  1  0  0  0  0
 14 17  1  0  0  0  0
 15 18  2  0  0  0  0
 17 19  1  0  0  0  0
 17 20  2  0  0  0  0
 19 21  1  0  0  0  0
 20 22  1  0  0  0  0
 22 23  1  0  0  0  0
 23 24  2  0  0  0  0
 24 25  1  0  0  0  0
 25 26  2  0  0  0  0
 25 27  1  0  0  0  0
 26 28  1  0  0  0  0
 27 29  2  0  0  0  0
 28 30  2  0  0  0  0
 30 31  1  0  0  0  0
 31 32  1  0  0  0  0
 32 33  1  0  0  0  0
 32 34  1  0  0  0  0
 33 35  1  0  0  0  0
 34 36  1  0  0  0  0
 35 37  1  0  0  0  0
  5  6  2  0  0  0  0
  7  8  1  0  0  0  0
 12 13  1  0  0  0  0
 18 20  1  0  0  0  0
 21 22  2  0  0  0  0
 29 30  1  0  0  0  0
 36 37  1  0  0  0  0
M  END
>  <MolRegNo>
1817464

>  <m>
=

>  <Value>
6200

>  <Unit>
nM

>  <Type>
IC50

>  <pValue>
5.21

>  <Ligand Efficiency>
0

>  <Binding Efficiency>
0

>  <Surface Efficiency>
0

>  <Assay Index>
912667

>  <Assay Category>


>  <Assay Organism>
Homo sapiens

>  <Target ID>
17045

>  <Target Name>
Cytochrome P450 3A4

>  <Target Organism>
Homo sapiens

>  <Target Description>
Target is a single protein chain

>  <Sequence Accession>
P08684

>  <Reference>
J Med Chem 58 (1), 147-169 (2015)

>  <Pubmed ID>
25723005

>  <DOI>
10.1021/jm5005336

$$$$
1817462
Actelion Java MolfileCreator 1.0

 38 44  0  0  0  0  0  0  0  0999 V2000
    0.0000   -0.0000   -0.0000 O   0  0  0  0  0  0  0  0  0  0  0  0
    1.3556    0.6130   -0.0000 C   0  0  0  0  0  0  0  0  0  0  0  0
    2.6405   -0.1179   -0.0000 N   0  0  0  0  0  0  0  0  0  0  0  0
    1.6621    2.0982   -0.0000 C   0  0  0  0  0  0  0  0  0  0  0  0
    3.7367    0.8959   -0.0000 C   0  0  0  0  0  0  0  0  0  0  0  0
    3.1473    2.2633   -0.0000 C   0  0  0  0  0  0  0  0  0  0  0  0
    0.2240    2.5697   -0.0000 C   0  0  0  0  0  0  0  0  0  0  0  0
    1.3320    3.5717   -0.0000 C   0  0  0  0  0  0  0  0  0  0  0  0
    5.2102    0.7544   -0.0000 C   0  0  0  0  0  0  0  0  0  0  0  0
    4.0079    3.4892   -0.0000 C   0  0  0  0  0  0  0  0  0  0  0  0
   -1.2495    2.2633   -0.0000 C   0  0  0  0  0  0  0  0  0  0  0  0
    6.0825    1.9686   -0.0000 C   0  0  0  0  0  0  0  0  0  0  0  0
    5.4931    3.3360   -0.0000 C   0  0  0  0  0  0  0  0  0  0  0  0
   -1.7328    0.8487   -0.0000 C   0  0  0  0  0  0  0  0  0  0  0  0
   -2.2633    3.3831   -0.0000 C   0  0  0  0  0  0  0  0  0  0  0  0
    6.3654    4.5501   -0.0000 O   0  0  0  0  0  0  0  0  0  0  0  0
   -3.2063    0.5422   -0.0000 C   0  0  0  0  0  0  0  0  0  0  0  0
   -3.7367    3.0884   -0.0000 C   0  0  0  0  0  0  0  0  0  0  0  0
    7.8507    4.4086   -0.0000 C   0  0  0  0  0  0  0  0  0  0  0  0
   -3.9607   -0.7426   -0.0000 N   0  0  0  0  0  0  0  0  0  0  0  0
   -4.2200    1.6739   -0.0000 C   0  0  0  0  0  0  0  0  0  0  0  0
   -5.4342   -0.4244   -0.0000 N   0  0  0  0  0  0  0  0  0  0  0  0
   -5.5874    1.0727   -0.0000 C   0  0  0  0  0  0  0  0  0  0  0  0
   -6.8959    1.8271   -0.0000 C   0  0  0  0  0  0  0  0  0  0  0  0
   -8.2043    1.0963   -0.0000 C   0  0  0  0  0  0  0  0  0  0  0  0
   -9.5128    1.8507   -0.0000 C   0  0  0  0  0  0  0  0  0  0  0  0
  -10.8212    1.1198   -0.0000 C   0  0  0  0  0  0  0  0  0  0  0  0
   -9.5246    3.3595   -0.0000 C   0  0  0  0  0  0  0  0  0  0  0  0
  -12.1297    1.8743   -0.0000 C   0  0  0  0  0  0  0  0  0  0  0  0
  -10.8330    4.1139   -0.0000 C   0  0  0  0  0  0  0  0  0  0  0  0
  -12.1414    3.3831   -0.0000 C   0  0  0  0  0  0  0  0  0  0  0  0
  -13.4499    4.1375   -0.0000 C   0  0  0  0  0  0  0  0  0  0  0  0
  -14.7583    3.4067   -0.0000 N   0  0  0  0  0  0  0  0  0  0  0  0
  -16.0668    4.1611   -0.0000 C   0  0  0  0  0  0  0  0  0  0  0  0
  -14.7701    1.9214   -0.0000 C   0  0  0  0  0  0  0  0  0  0  0  0
  -17.3752    3.4303   -0.0000 C   0  0  0  0  0  0  0  0  0  0  0  0
  -16.0786    1.1906   -0.0000 C   0  0  0  0  0  0  0  0  0  0  0  0
  -17.3870    1.9450   -0.0000 O   0  0  0  0  0  0  0  0  0  0  0  0
  1  2  2  0  0  0  0
  2  3  1  0  0  0  0
  2  4  1  0  0  0  0
  3  5  1  0  0  0  0
  4  6  1  0  0  0  0
  4  7  1  0  0  0  0
  4  8  1  6  0  0  0
  5  9  1  0  0  0  0
  6 10  1  0  0  0  0
  7 11  1  1  0  0  0
  9 12  2  0  0  0  0
 10 13  2  0  0  0  0
 11 14  2  0  0  0  0
 11 15  1  0  0  0  0
 13 16  1  0  0  0  0
 14 17  1  0  0  0  0
 15 18  2  0  0  0  0
 16 19  1  0  0  0  0
 17 20  1  0  0  0  0
 17 21  2  0  0  0  0
 20 22  1  0  0  0  0
 21 23  1  0  0  0  0
 23 24  1  0  0  0  0
 24 25  2  0  0  0  0
 25 26  1  0  0  0  0
 26 27  2  0  0  0  0
 26 28  1  0  0  0  0
 27 29  1  0  0  0  0
 28 30  2  0  0  0  0
 29 31  2  0  0  0  0
 31 32  1  0  0  0  0
 32 33  1  0  0  0  0
 33 34  1  0  0  0  0
 33 35  1  0  0  0  0
 34 36  1  0  0  0  0
 35 37  1  0  0  0  0
 36 38  1  0  0  0  0
  5  6  2  0  0  0  0
  7  8  1  0  0  0  0
 12 13  1  0  0  0  0
 18 21  1  0  0  0  0
 22 23  2  0  0  0  0
 30 31  1  0  0  0  0
 37 38  1  0  0  0  0
M  END
>  <MolRegNo>
1817462

>  <m>
=

>  <Value>
6400

>  <Unit>
nM

>  <Type>
IC50

>  <pValue>
5.19

>  <Ligand Efficiency>
0

>  <Binding Efficiency>
0

>  <Surface Efficiency>
0

>  <Assay Index>
912667

>  <Assay Category>


>  <Assay Organism>
Homo sapiens

>  <Target ID>
17045

>  <Target Name>
Cytochrome P450 3A4

>  <Target Organism>
Homo sapiens

>  <Target Description>
Target is a single protein chain

>  <Sequence Accession>
P08684

>  <Reference>
J Med Chem 58 (1), 147-169 (2015)

>  <Pubmed ID>
25723005

>  <DOI>
10.1021/jm5005336

$$$$
1835708
Actelion Java MolfileCreator 1.0

 39 45  0  0  0  0  0  0  0  0999 V2000
    0.0000   -0.0000   -0.0000 O   0  0  0  0  0  0  0  0  0  0  0  0
   -1.0719   -0.5955   -0.0000 C   0  0  0  0  0  0  0  0  0  0  0  0
   -1.0889   -2.0927   -0.0000 N   0  0  0  0  0  0  0  0  0  0  0  0
   -2.1778    0.0681   -0.0000 C   0  0  0  0  0  0  0  0  0  0  0  0
   -3.2667   -2.0757   -0.0000 C   0  0  0  0  0  0  0  0  0  0  0  0
   -0.2382   -2.9434   -0.0000 C   0  0  0  0  0  0  0  0  0  0  0  0
   -3.2667   -0.5615   -0.0000 C   0  0  0  0  0  0  0  0  0  0  0  0
   -1.1740    1.2931   -0.0000 C   0  0  0  0  0  0  0  0  0  0  0  0
   -3.4198    1.2931   -0.0000 C   0  0  0  0  0  0  0  0  0  0  0  0
   -4.3556   -2.7222   -0.0000 C   0  0  0  0  0  0  0  0  0  0  0  0
   -4.3556    0.1021   -0.0000 C   0  0  0  0  0  0  0  0  0  0  0  0
    0.1872    1.9566   -0.0000 C   0  0  0  0  0  0  0  0  0  0  0  0
   -5.4615   -2.0417   -0.0000 C   0  0  0  0  0  0  0  0  0  0  0  0
   -5.4615   -0.5274   -0.0000 C   0  0  0  0  0  0  0  0  0  0  0  0
    0.9358    3.2837   -0.0000 C   0  0  0  0  0  0  0  0  0  0  0  0
    0.9017    0.6295   -0.0000 C   0  0  0  0  0  0  0  0  0  0  0  0
   -6.7716    0.3063   -0.0000 O   0  0  0  0  0  0  0  0  0  0  0  0
    2.4500    3.2667   -0.0000 C   0  0  0  0  0  0  0  0  0  0  0  0
    2.4330    0.6295   -0.0000 C   0  0  0  0  0  0  0  0  0  0  0  0
   -7.8775   -0.2382   -0.0000 C   0  0  0  0  0  0  0  0  0  0  0  0
    3.4709    4.4066   -0.0000 N   0  0  0  0  0  0  0  0  0  0  0  0
    3.1816    1.9566   -0.0000 C   0  0  0  0  0  0  0  0  0  0  0  0
    4.8150    3.8111   -0.0000 N   0  0  0  0  0  0  0  0  0  0  0  0
    4.6448    2.2799   -0.0000 C   0  0  0  0  0  0  0  0  0  0  0  0
    5.7507    1.2761   -0.0000 C   0  0  0  0  0  0  0  0  0  0  0  0
    7.1799    1.7524   -0.0000 C   0  0  0  0  0  0  0  0  0  0  0  0
    8.2858    0.7486   -0.0000 C   0  0  0  0  0  0  0  0  0  0  0  0
    9.7150    1.2250   -0.0000 C   0  0  0  0  0  0  0  0  0  0  0  0
    7.9456   -0.7316   -0.0000 C   0  0  0  0  0  0  0  0  0  0  0  0
   10.8209    0.2212   -0.0000 C   0  0  0  0  0  0  0  0  0  0  0  0
    9.0515   -1.7354   -0.0000 C   0  0  0  0  0  0  0  0  0  0  0  0
   10.4807   -1.2590   -0.0000 C   0  0  0  0  0  0  0  0  0  0  0  0
   11.5866   -2.2799   -0.0000 C   0  0  0  0  0  0  0  0  0  0  0  0
   11.2463   -3.7601   -0.0000 N   0  0  0  0  0  0  0  0  0  0  0  0
   12.3522   -4.7809   -0.0000 C   0  0  0  0  0  0  0  0  0  0  0  0
    9.7661   -4.2025   -0.0000 C   0  0  0  0  0  0  0  0  0  0  0  0
   12.0119   -6.2612   -0.0000 C   0  0  0  0  0  0  0  0  0  0  0  0
    9.4258   -5.6827   -0.0000 C   0  0  0  0  0  0  0  0  0  0  0  0
   10.5317   -6.7035   -0.0000 O   0  0  0  0  0  0  0  0  0  0  0  0
  1  2  2  0  0  0  0
  2  3  1  0  0  0  0
  2  4  1  0  0  0  0
  3  5  1  0  0  0  0
  3  6  1  0  0  0  0
  4  7  1  0  0  0  0
  4  8  1  0  0  0  0
  4  9  1  1  0  0  0
  5 10  1  0  0  0  0
  7 11  1  0  0  0  0
  8 12  1  6  0  0  0
 10 13  2  0  0  0  0
 11 14  2  0  0  0  0
 12 15  2  0  0  0  0
 12 16  1  0  0  0  0
 14 17  1  0  0  0  0
 15 18  1  0  0  0  0
 16 19  2  0  0  0  0
 17 20  1  0  0  0  0
 18 21  1  0  0  0  0
 18 22  2  0  0  0  0
 21 23  1  0  0  0  0
 22 24  1  0  0  0  0
 24 25  1  0  0  0  0
 25 26  2  0  0  0  0
 26 27  1  0  0  0  0
 27 28  2  0  0  0  0
 27 29  1  0  0  0  0
 28 30  1  0  0  0  0
 29 31  2  0  0  0  0
 30 32  2  0  0  0  0
 32 33  1  0  0  0  0
 33 34  1  0  0  0  0
 34 35  1  0  0  0  0
 34 36  1  0  0  0  0
 35 37  1  0  0  0  0
 36 38  1  0  0  0  0
 37 39  1  0  0  0  0
  5  7  2  0  0  0  0
  8  9  1  0  0  0  0
 13 14  1  0  0  0  0
 19 22  1  0  0  0  0
 23 24  2  0  0  0  0
 31 32  1  0  0  0  0
 38 39  1  0  0  0  0
M  END
>  <MolRegNo>
1835708

>  <m>
=

>  <Value>
6000

>  <Unit>
nM

>  <Type>
IC50

>  <pValue>
5.22

>  <Ligand Efficiency>
0

>  <Binding Efficiency>
0

>  <Surface Efficiency>
0

>  <Assay Index>
912667

>  <Assay Category>


>  <Assay Organism>
Homo sapiens

>  <Target ID>
17045

>  <Target Name>
Cytochrome P450 3A4

>  <Target Organism>
Homo sapiens

>  <Target Description>
Target is a single protein chain

>  <Sequence Accession>
P08684

>  <Reference>
J Med Chem 58 (1), 147-169 (2015)

>  <Pubmed ID>
25723005

>  <DOI>
10.1021/jm5005336

$$$$
1835709
Actelion Java MolfileCreator 1.0

 38 44  0  0  1  0  0  0  0  0999 V2000
    0.0000   -0.0000   -0.0000 O   0  0  0  0  0  0  0  0  0  0  0  0
   -1.0728   -0.5960   -0.0000 C   0  0  0  0  0  0  0  0  0  0  0  0
   -1.0898   -2.0945   -0.0000 N   0  0  0  0  0  0  0  0  0  0  0  0
   -2.1797    0.0681   -0.0000 C   0  0  0  0  0  0  0  0  0  0  0  0
   -3.2695   -2.0775   -0.0000 C   0  0  0  0  0  0  0  0  0  0  0  0
   -3.2695   -0.5620   -0.0000 C   0  0  0  0  0  0  0  0  0  0  0  0
   -1.1750    1.2942   -0.0000 C   0  0  0  0  0  0  0  0  0  0  0  0
   -3.4228    1.2942   -0.0000 C   0  0  0  0  0  0  0  0  0  0  0  0
   -4.3594   -2.7246   -0.0000 C   0  0  0  0  0  0  0  0  0  0  0  0
   -4.3594    0.1022   -0.0000 C   0  0  0  0  0  0  0  0  0  0  0  0
    0.1873    1.9583   -0.0000 C   0  0  0  0  0  0  0  0  0  0  0  0
   -5.4663   -2.0435   -0.0000 C   0  0  0  0  0  0  0  0  0  0  0  0
   -5.4663   -0.5279   -0.0000 C   0  0  0  0  0  0  0  0  0  0  0  0
    0.9366    3.2866   -0.0000 C   0  0  0  0  0  0  0  0  0  0  0  0
    0.9025    0.6301   -0.0000 C   0  0  0  0  0  0  0  0  0  0  0  0
    2.4522    3.2695   -0.0000 C   0  0  0  0  0  0  0  0  0  0  0  0
    2.4351    0.6301   -0.0000 C   0  0  0  0  0  0  0  0  0  0  0  0
    3.4739    4.4105   -0.0000 N   0  0  0  0  0  0  0  0  0  0  0  0
    3.1844    1.9583   -0.0000 C   0  0  0  0  0  0  0  0  0  0  0  0
    4.8192    3.8145   -0.0000 N   0  0  0  0  0  0  0  0  0  0  0  0
    4.6489    2.2819   -0.0000 C   0  0  0  0  0  0  0  0  0  0  0  0
    5.7558    1.2772   -0.0000 C   0  0  0  0  0  0  0  0  0  0  0  0
    7.1862    1.7540   -0.0000 C   0  0  0  0  0  0  0  0  0  0  0  0
    8.2931    0.7493   -0.0000 C   0  0  0  0  0  0  0  0  0  0  0  0
    9.7235    1.2261   -0.0000 C   0  0  0  0  0  0  0  0  0  0  0  0
    7.9525   -0.7322   -0.0000 C   0  0  0  0  0  0  0  0  0  0  0  0
   10.8304    0.2214   -0.0000 C   0  0  0  0  0  0  0  0  0  0  0  0
    9.0594   -1.7369   -0.0000 C   0  0  0  0  0  0  0  0  0  0  0  0
   10.4898   -1.2601   -0.0000 C   0  0  0  0  0  0  0  0  0  0  0  0
   11.5967   -2.2819   -0.0000 C   0  0  0  0  0  0  0  0  0  0  0  0
   11.2561   -3.7634   -0.0000 N   0  0  0  0  0  0  0  0  0  0  0  0
   12.3630   -4.7851   -0.0000 C   0  0  0  0  0  0  0  0  0  0  0  0
    9.7746   -4.2061   -0.0000 C   0  0  0  0  0  0  0  0  0  0  0  0
   12.0224   -6.2666   -0.0000 C   0  0  0  0  0  0  0  0  0  0  0  0
    9.4340   -5.6876   -0.0000 C   0  0  0  0  0  0  0  0  0  0  0  0
   10.5409   -6.7094   -0.0000 O   0  0  0  0  0  0  0  0  0  0  0  0
   12.9079   -7.0840   -0.0000 C   0  0  0  0  0  0  0  0  0  0  0  0
    8.2590   -6.0452   -0.0000 C   0  0  0  0  0  0  0  0  0  0  0  0
  1  2  2  0  0  0  0
  2  3  1  0  0  0  0
  2  4  1  0  0  0  0
  3  5  1  0  0  0  0
  4  6  1  0  0  0  0
  4  7  1  0  0  0  0
  4  8  1  1  0  0  0
  5  9  1  0  0  0  0
  6 10  1  0  0  0  0
  7 11  1  6  0  0  0
  9 12  2  0  0  0  0
 10 13  2  0  0  0  0
 11 14  2  0  0  0  0
 11 15  1  0  0  0  0
 14 16  1  0  0  0  0
 15 17  2  0  0  0  0
 16 18  1  0  0  0  0
 16 19  2  0  0  0  0
 18 20  1  0  0  0  0
 19 21  1  0  0  0  0
 21 22  1  0  0  0  0
 22 23  2  0  0  0  0
 23 24  1  0  0  0  0
 24 25  2  0  0  0  0
 24 26  1  0  0  0  0
 25 27  1  0  0  0  0
 26 28  2  0  0  0  0
 27 29  2  0  0  0  0
 29 30  1  0  0  0  0
 30 31  1  0  0  0  0
 31 32  1  0  0  0  0
 31 33  1  0  0  0  0
 32 34  1  0  0  0  0
 33 35  1  0  0  0  0
 34 36  1  0  0  0  0
 34 37  1  6  0  0  0
 35 38  1  6  0  0  0
  5  6  2  0  0  0  0
  7  8  1  0  0  0  0
 12 13  1  0  0  0  0
 17 19  1  0  0  0  0
 20 21  2  0  0  0  0
 28 29  1  0  0  0  0
 35 36  1  0  0  0  0
M  END
>  <MolRegNo>
1835709

>  <m>
=

>  <Value>
5000

>  <Unit>
nM

>  <Type>
IC50

>  <pValue>
5.3

>  <Ligand Efficiency>
0

>  <Binding Efficiency>
0

>  <Surface Efficiency>
0

>  <Assay Index>
912667

>  <Assay Category>


>  <Assay Organism>
Homo sapiens

>  <Target ID>
17045

>  <Target Name>
Cytochrome P450 3A4

>  <Target Organism>
Homo sapiens

>  <Target Description>
Target is a single protein chain

>  <Sequence Accession>
P08684

>  <Reference>
J Med Chem 58 (1), 147-169 (2015)

>  <Pubmed ID>
25723005

>  <DOI>
10.1021/jm5005336

$$$$
1835710
Actelion Java MolfileCreator 1.0

 40 46  0  0  1  0  0  0  0  0999 V2000
    0.0000   -0.0000   -0.0000 O   0  0  0  0  0  0  0  0  0  0  0  0
   -1.4691    0.3173   -0.0000 C   0  0  0  0  0  0  0  0  0  0  0  0
   -2.0920    1.6924   -0.0000 N   0  0  0  0  0  0  0  0  0  0  0  0
   -2.5856   -0.6699   -0.0000 C   0  0  0  0  0  0  0  0  0  0  0  0
   -3.5846    1.5514   -0.0000 C   0  0  0  0  0  0  0  0  0  0  0  0
   -3.8901    0.0940   -0.0000 C   0  0  0  0  0  0  0  0  0  0  0  0
   -3.2085   -2.0215   -0.0000 C   0  0  0  0  0  0  0  0  0  0  0  0
   -1.7159   -1.8687   -0.0000 C   0  0  0  0  0  0  0  0  0  0  0  0
   -4.7011    2.5621   -0.0000 C   0  0  0  0  0  0  0  0  0  0  0  0
   -5.3240   -0.3526   -0.0000 C   0  0  0  0  0  0  0  0  0  0  0  0
   -4.4308   -2.8912   -0.0000 C   0  0  0  0  0  0  0  0  0  0  0  0
   -6.1349    2.1155   -0.0000 C   0  0  0  0  0  0  0  0  0  0  0  0
   -6.4405    0.6582   -0.0000 C   0  0  0  0  0  0  0  0  0  0  0  0
   -4.2897   -4.3603   -0.0000 C   0  0  0  0  0  0  0  0  0  0  0  0
   -5.8058   -2.2683   -0.0000 C   0  0  0  0  0  0  0  0  0  0  0  0
   -7.8743    0.2115   -0.0000 O   0  0  0  0  0  0  0  0  0  0  0  0
   -5.5120   -5.2300   -0.0000 C   0  0  0  0  0  0  0  0  0  0  0  0
   -7.0281   -3.1380   -0.0000 C   0  0  0  0  0  0  0  0  0  0  0  0
   -8.9908    1.2223   -0.0000 C   0  0  0  0  0  0  0  0  0  0  0  0
   -5.6766   -6.6990   -0.0000 N   0  0  0  0  0  0  0  0  0  0  0  0
   -6.8871   -4.6071   -0.0000 C   0  0  0  0  0  0  0  0  0  0  0  0
   -7.1456   -6.9929   -0.0000 N   0  0  0  0  0  0  0  0  0  0  0  0
   -7.8978   -5.7001   -0.0000 C   0  0  0  0  0  0  0  0  0  0  0  0
   -9.4022   -5.6883   -0.0000 C   0  0  0  0  0  0  0  0  0  0  0  0
  -10.1543   -4.3838   -0.0000 C   0  0  0  0  0  0  0  0  0  0  0  0
  -11.6587   -4.3720   -0.0000 C   0  0  0  0  0  0  0  0  0  0  0  0
  -12.4226   -3.0675   -0.0000 C   0  0  0  0  0  0  0  0  0  0  0  0
  -12.4226   -5.6531   -0.0000 C   0  0  0  0  0  0  0  0  0  0  0  0
  -13.9270   -3.0557   -0.0000 C   0  0  0  0  0  0  0  0  0  0  0  0
  -13.9270   -5.6413   -0.0000 C   0  0  0  0  0  0  0  0  0  0  0  0
  -14.6909   -4.3367   -0.0000 C   0  0  0  0  0  0  0  0  0  0  0  0
  -16.1952   -4.3250   -0.0000 C   0  0  0  0  0  0  0  0  0  0  0  0
  -16.9592   -3.0204   -0.0000 N   0  0  0  0  0  0  0  0  0  0  0  0
  -18.4635   -3.0087   -0.0000 C   0  0  0  0  0  0  0  0  0  0  0  0
  -16.2187   -1.7159   -0.0000 C   0  0  0  0  0  0  0  0  0  0  0  0
  -19.2274   -1.7041   -0.0000 C   0  0  0  0  0  0  0  0  0  0  0  0
  -16.9827   -0.4113   -0.0000 C   0  0  0  0  0  0  0  0  0  0  0  0
  -18.4870   -0.3996   -0.0000 O   0  0  0  0  0  0  0  0  0  0  0  0
  -20.7318   -1.6924   -0.0000 C   0  0  0  0  0  0  0  0  0  0  0  0
  -16.2422    0.8932   -0.0000 C   0  0  0  0  0  0  0  0  0  0  0  0
  1  2  2  0  0  0  0
  2  3  1  0  0  0  0
  2  4  1  0  0  0  0
  3  5  1  0  0  0  0
  4  6  1  0  0  0  0
  4  7  1  0  0  0  0
  4  8  1  6  0  0  0
  5  9  1  0  0  0  0
  6 10  1  0  0  0  0
  7 11  1  6  0  0  0
  9 12  2  0  0  0  0
 10 13  2  0  0  0  0
 11 14  2  0  0  0  0
 11 15  1  0  0  0  0
 13 16  1  0  0  0  0
 14 17  1  0  0  0  0
 15 18  2  0  0  0  0
 16 19  1  0  0  0  0
 17 20  1  0  0  0  0
 17 21  2  0  0  0  0
 20 22  1  0  0  0  0
 21 23  1  0  0  0  0
 23 24  1  0  0  0  0
 24 25  2  0  0  0  0
 25 26  1  0  0  0  0
 26 27  2  0  0  0  0
 26 28  1  0  0  0  0
 27 29  1  0  0  0  0
 28 30  2  0  0  0  0
 29 31  2  0  0  0  0
 31 32  1  0  0  0  0
 32 33  1  0  0  0  0
 33 34  1  0  0  0  0
 33 35  1  0  0  0  0
 34 36  1  0  0  0  0
 35 37  1  0  0  0  0
 36 38  1  0  0  0  0
 36 39  1  6  0  0  0
 37 40  1  6  0  0  0
  5  6  2  0  0  0  0
  7  8  1  0  0  0  0
 12 13  1  0  0  0  0
 18 21  1  0  0  0  0
 22 23  2  0  0  0  0
 30 31  1  0  0  0  0
 37 38  1  0  0  0  0
M  END
>  <MolRegNo>
1835710

>  <m>
=

>  <Value>
4600

>  <Unit>
nM

>  <Type>
IC50

>  <pValue>
5.34

>  <Ligand Efficiency>
0

>  <Binding Efficiency>
0

>  <Surface Efficiency>
0

>  <Assay Index>
912667

>  <Assay Category>


>  <Assay Organism>
Homo sapiens

>  <Target ID>
17045

>  <Target Name>
Cytochrome P450 3A4

>  <Target Organism>
Homo sapiens

>  <Target Description>
Target is a single protein chain

>  <Sequence Accession>
P08684

>  <Reference>
J Med Chem 58 (1), 147-169 (2015)

>  <Pubmed ID>
25723005

>  <DOI>
10.1021/jm5005336

$$$$
1835714
Actelion Java MolfileCreator 1.0

 40 46  0  0  0  0  0  0  0  0999 V2000
    0.0000   -0.0000   -0.0000 O   0  0  0  0  0  0  0  0  0  0  0  0
   -1.0765   -0.5980   -0.0000 C   0  0  0  0  0  0  0  0  0  0  0  0
   -1.0936   -2.1017   -0.0000 N   0  0  0  0  0  0  0  0  0  0  0  0
   -2.1871    0.0683   -0.0000 C   0  0  0  0  0  0  0  0  0  0  0  0
   -3.2807   -2.0846   -0.0000 C   0  0  0  0  0  0  0  0  0  0  0  0
   -0.2392   -2.9561   -0.0000 C   0  0  0  0  0  0  0  0  0  0  0  0
   -3.2807   -0.5639   -0.0000 C   0  0  0  0  0  0  0  0  0  0  0  0
   -1.1790    1.2986   -0.0000 C   0  0  0  0  0  0  0  0  0  0  0  0
   -3.4345    1.2986   -0.0000 C   0  0  0  0  0  0  0  0  0  0  0  0
   -4.3743   -2.7339   -0.0000 C   0  0  0  0  0  0  0  0  0  0  0  0
   -4.3743    0.1025   -0.0000 C   0  0  0  0  0  0  0  0  0  0  0  0
    0.1880    1.9650   -0.0000 C   0  0  0  0  0  0  0  0  0  0  0  0
   -5.4849   -2.0504   -0.0000 C   0  0  0  0  0  0  0  0  0  0  0  0
   -5.4849   -0.5297   -0.0000 C   0  0  0  0  0  0  0  0  0  0  0  0
    0.9398    3.2978   -0.0000 C   0  0  0  0  0  0  0  0  0  0  0  0
    0.9056    0.6322   -0.0000 C   0  0  0  0  0  0  0  0  0  0  0  0
   -6.8006    0.3076   -0.0000 O   0  0  0  0  0  0  0  0  0  0  0  0
    2.4605    3.2807   -0.0000 C   0  0  0  0  0  0  0  0  0  0  0  0
    2.4434    0.6322   -0.0000 C   0  0  0  0  0  0  0  0  0  0  0  0
   -7.9113   -0.2392   -0.0000 C   0  0  0  0  0  0  0  0  0  0  0  0
    3.4858    4.4255   -0.0000 N   0  0  0  0  0  0  0  0  0  0  0  0
    3.1953    1.9650   -0.0000 C   0  0  0  0  0  0  0  0  0  0  0  0
    4.8356    3.8275   -0.0000 N   0  0  0  0  0  0  0  0  0  0  0  0
    4.6648    2.2897   -0.0000 C   0  0  0  0  0  0  0  0  0  0  0  0
    5.7754    1.2815   -0.0000 C   0  0  0  0  0  0  0  0  0  0  0  0
    7.2107    1.7600   -0.0000 C   0  0  0  0  0  0  0  0  0  0  0  0
    8.3214    0.7518   -0.0000 C   0  0  0  0  0  0  0  0  0  0  0  0
    9.7567    1.2303   -0.0000 C   0  0  0  0  0  0  0  0  0  0  0  0
    7.9796   -0.7347   -0.0000 C   0  0  0  0  0  0  0  0  0  0  0  0
   10.8674    0.2221   -0.0000 C   0  0  0  0  0  0  0  0  0  0  0  0
    9.0903   -1.7429   -0.0000 C   0  0  0  0  0  0  0  0  0  0  0  0
   10.5256   -1.2644   -0.0000 C   0  0  0  0  0  0  0  0  0  0  0  0
   11.6363   -2.2897   -0.0000 C   0  0  0  0  0  0  0  0  0  0  0  0
   11.2945   -3.7762   -0.0000 N   0  0  0  0  0  0  0  0  0  0  0  0
   12.7811   -1.8967   -0.0000 C   0  0  0  0  0  0  0  0  0  0  0  0
   12.4052   -4.8015   -0.0000 C   0  0  0  0  0  0  0  0  0  0  0  0
    9.8080   -4.2205   -0.0000 C   0  0  0  0  0  0  0  0  0  0  0  0
   12.0634   -6.2880   -0.0000 C   0  0  0  0  0  0  0  0  0  0  0  0
    9.4662   -5.7071   -0.0000 C   0  0  0  0  0  0  0  0  0  0  0  0
   10.5769   -6.7323   -0.0000 O   0  0  0  0  0  0  0  0  0  0  0  0
  1  2  2  0  0  0  0
  2  3  1  0  0  0  0
  2  4  1  0  0  0  0
  3  5  1  0  0  0  0
  3  6  1  0  0  0  0
  4  7  1  0  0  0  0
  4  8  1  0  0  0  0
  4  9  1  1  0  0  0
  5 10  1  0  0  0  0
  7 11  1  0  0  0  0
  8 12  1  6  0  0  0
 10 13  2  0  0  0  0
 11 14  2  0  0  0  0
 12 15  2  0  0  0  0
 12 16  1  0  0  0  0
 14 17  1  0  0  0  0
 15 18  1  0  0  0  0
 16 19  2  0  0  0  0
 17 20  1  0  0  0  0
 18 21  1  0  0  0  0
 18 22  2  0  0  0  0
 21 23  1  0  0  0  0
 22 24  1  0  0  0  0
 24 25  1  0  0  0  0
 25 26  2  0  0  0  0
 26 27  1  0  0  0  0
 27 28  2  0  0  0  0
 27 29  1  0  0  0  0
 28 30  1  0  0  0  0
 29 31  2  0  0  0  0
 30 32  2  0  0  0  0
 32 33  1  0  0  0  0
 33 34  1  1  0  0  0
 33 35  1  0  0  0  0
 34 36  1  0  0  0  0
 34 37  1  0  0  0  0
 36 38  1  0  0  0  0
 37 39  1  0  0  0  0
 38 40  1  0  0  0  0
  5  7  2  0  0  0  0
  8  9  1  0  0  0  0
 13 14  1  0  0  0  0
 19 22  1  0  0  0  0
 23 24  2  0  0  0  0
 31 32  1  0  0  0  0
 39 40  1  0  0  0  0
M  END
>  <MolRegNo>
1835714

>  <m>
=

>  <Value>
11000

>  <Unit>
nM

>  <Type>
IC50

>  <pValue>
4.96

>  <Ligand Efficiency>
0

>  <Binding Efficiency>
0

>  <Surface Efficiency>
0

>  <Assay Index>
912667

>  <Assay Category>


>  <Assay Organism>
Homo sapiens

>  <Target ID>
17045

>  <Target Name>
Cytochrome P450 3A4

>  <Target Organism>
Homo sapiens

>  <Target Description>
Target is a single protein chain

>  <Sequence Accession>
P08684

>  <Reference>
J Med Chem 58 (1), 147-169 (2015)

>  <Pubmed ID>
25723005

>  <DOI>
10.1021/jm5005336

$$$$
1835718
Actelion Java MolfileCreator 1.0

 41 47  0  0  1  0  0  0  0  0999 V2000
    0.0000   -0.0000   -0.0000 O   0  0  0  0  0  0  0  0  0  0  0  0
   -1.0801   -0.6001   -0.0000 C   0  0  0  0  0  0  0  0  0  0  0  0
   -1.0973   -2.1088   -0.0000 N   0  0  0  0  0  0  0  0  0  0  0  0
   -2.1945    0.0686   -0.0000 C   0  0  0  0  0  0  0  0  0  0  0  0
   -3.2918   -2.0916   -0.0000 C   0  0  0  0  0  0  0  0  0  0  0  0
   -3.2918   -0.5658   -0.0000 C   0  0  0  0  0  0  0  0  0  0  0  0
   -1.1830    1.3030   -0.0000 C   0  0  0  0  0  0  0  0  0  0  0  0
   -3.4461    1.3030   -0.0000 C   0  0  0  0  0  0  0  0  0  0  0  0
   -4.3890   -2.7431   -0.0000 C   0  0  0  0  0  0  0  0  0  0  0  0
   -4.3890    0.1029   -0.0000 C   0  0  0  0  0  0  0  0  0  0  0  0
    0.1886    1.9716   -0.0000 C   0  0  0  0  0  0  0  0  0  0  0  0
   -5.5034   -2.0573   -0.0000 C   0  0  0  0  0  0  0  0  0  0  0  0
   -5.5034   -0.5315   -0.0000 C   0  0  0  0  0  0  0  0  0  0  0  0
    0.9430    3.3089   -0.0000 C   0  0  0  0  0  0  0  0  0  0  0  0
    0.9087    0.6343   -0.0000 C   0  0  0  0  0  0  0  0  0  0  0  0
   -6.8235    0.3086   -0.0000 O   0  0  0  0  0  0  0  0  0  0  0  0
    2.4688    3.2918   -0.0000 C   0  0  0  0  0  0  0  0  0  0  0  0
    2.4517    0.6343   -0.0000 C   0  0  0  0  0  0  0  0  0  0  0  0
   -7.9379   -0.2400   -0.0000 C   0  0  0  0  0  0  0  0  0  0  0  0
    3.4975    4.4404   -0.0000 N   0  0  0  0  0  0  0  0  0  0  0  0
    3.2060    1.9716   -0.0000 C   0  0  0  0  0  0  0  0  0  0  0  0
    4.8519    3.8404   -0.0000 N   0  0  0  0  0  0  0  0  0  0  0  0
    4.6805    2.2974   -0.0000 C   0  0  0  0  0  0  0  0  0  0  0  0
    5.7949    1.2858   -0.0000 C   0  0  0  0  0  0  0  0  0  0  0  0
    7.2350    1.7659   -0.0000 C   0  0  0  0  0  0  0  0  0  0  0  0
    8.3494    0.7544   -0.0000 C   0  0  0  0  0  0  0  0  0  0  0  0
    9.7895    1.2344   -0.0000 C   0  0  0  0  0  0  0  0  0  0  0  0
    8.0065   -0.7372   -0.0000 C   0  0  0  0  0  0  0  0  0  0  0  0
   10.9039    0.2229   -0.0000 C   0  0  0  0  0  0  0  0  0  0  0  0
    9.1209   -1.7487   -0.0000 C   0  0  0  0  0  0  0  0  0  0  0  0
   10.5610   -1.2687   -0.0000 C   0  0  0  0  0  0  0  0  0  0  0  0
   11.6754   -2.2974   -0.0000 C   0  0  0  0  0  0  0  0  0  0  0  0
   11.3325   -3.7889   -0.0000 N   0  0  0  0  0  0  0  0  0  0  0  0
    9.8410   -4.2347   -0.0000 C   0  0  0  0  0  0  0  0  0  0  0  0
   12.4469   -4.8176   -0.0000 C   0  0  0  0  0  0  0  0  0  0  0  0
    9.4981   -5.7263   -0.0000 C   0  0  0  0  0  0  0  0  0  0  0  0
    8.9152   -3.3775   -0.0000 C   0  0  0  0  0  0  0  0  0  0  0  0
   12.1040   -6.3092   -0.0000 C   0  0  0  0  0  0  0  0  0  0  0  0
   13.5956   -4.4233   -0.0000 C   0  0  0  0  0  0  0  0  0  0  0  0
   10.6125   -6.7550   -0.0000 N   0  0  0  0  0  0  0  0  0  0  0  0
   10.3210   -7.9379   -0.0000 C   0  0  0  0  0  0  0  0  0  0  0  0
  1  2  2  0  0  0  0
  2  3  1  0  0  0  0
  2  4  1  0  0  0  0
  3  5  1  0  0  0  0
  4  6  1  0  0  0  0
  4  7  1  0  0  0  0
  4  8  1  1  0  0  0
  5  9  1  0  0  0  0
  6 10  1  0  0  0  0
  7 11  1  6  0  0  0
  9 12  2  0  0  0  0
 10 13  2  0  0  0  0
 11 14  2  0  0  0  0
 11 15  1  0  0  0  0
 13 16  1  0  0  0  0
 14 17  1  0  0  0  0
 15 18  2  0  0  0  0
 16 19  1  0  0  0  0
 17 20  1  0  0  0  0
 17 21  2  0  0  0  0
 20 22  1  0  0  0  0
 21 23  1  0  0  0  0
 23 24  1  0  0  0  0
 24 25  2  0  0  0  0
 25 26  1  0  0  0  0
 26 27  2  0  0  0  0
 26 28  1  0  0  0  0
 27 29  1  0  0  0  0
 28 30  2  0  0  0  0
 29 31  2  0  0  0  0
 31 32  1  0  0  0  0
 32 33  1  0  0  0  0
 33 34  1  0  0  0  0
 33 35  1  0  0  0  0
 34 36  1  0  0  0  0
 34 37  1  6  0  0  0
 35 38  1  0  0  0  0
 35 39  1  6  0  0  0
 36 40  1  0  0  0  0
 40 41  1  0  0  0  0
  5  6  2  0  0  0  0
  7  8  1  0  0  0  0
 12 13  1  0  0  0  0
 18 21  1  0  0  0  0
 22 23  2  0  0  0  0
 30 31  1  0  0  0  0
 38 40  1  0  0  0  0
M  END
>  <MolRegNo>
1835718

>  <m>
=

>  <Value>
1600

>  <Unit>
nM

>  <Type>
IC50

>  <pValue>
5.8

>  <Ligand Efficiency>
0

>  <Binding Efficiency>
0

>  <Surface Efficiency>
0

>  <Assay Index>
912667

>  <Assay Category>


>  <Assay Organism>
Homo sapiens

>  <Target ID>
17045

>  <Target Name>
Cytochrome P450 3A4

>  <Target Organism>
Homo sapiens

>  <Target Description>
Target is a single protein chain

>  <Sequence Accession>
P08684

>  <Reference>
J Med Chem 58 (1), 147-169 (2015)

>  <Pubmed ID>
25723005

>  <DOI>
10.1021/jm5005336

$$$$
1835720
Actelion Java MolfileCreator 1.0

 39 45  0  0  0  0  0  0  0  0999 V2000
    0.0000   -0.0000   -0.0000 O   0  0  0  0  0  0  0  0  0  0  0  0
   -1.0725   -0.5958   -0.0000 C   0  0  0  0  0  0  0  0  0  0  0  0
   -1.0895   -2.0940   -0.0000 N   0  0  0  0  0  0  0  0  0  0  0  0
   -2.1791    0.0681   -0.0000 C   0  0  0  0  0  0  0  0  0  0  0  0
   -3.2686   -2.0769   -0.0000 C   0  0  0  0  0  0  0  0  0  0  0  0
   -3.2686   -0.5618   -0.0000 C   0  0  0  0  0  0  0  0  0  0  0  0
   -1.1747    1.2938   -0.0000 C   0  0  0  0  0  0  0  0  0  0  0  0
   -3.4218    1.2938   -0.0000 C   0  0  0  0  0  0  0  0  0  0  0  0
   -4.3581   -2.7238   -0.0000 C   0  0  0  0  0  0  0  0  0  0  0  0
   -4.3581    0.1021   -0.0000 C   0  0  0  0  0  0  0  0  0  0  0  0
    0.1873    1.9578   -0.0000 C   0  0  0  0  0  0  0  0  0  0  0  0
   -5.4647   -2.0429   -0.0000 C   0  0  0  0  0  0  0  0  0  0  0  0
   -5.4647   -0.5277   -0.0000 C   0  0  0  0  0  0  0  0  0  0  0  0
    0.9363    3.2856   -0.0000 C   0  0  0  0  0  0  0  0  0  0  0  0
    0.9023    0.6299   -0.0000 C   0  0  0  0  0  0  0  0  0  0  0  0
    2.4515    3.2686   -0.0000 C   0  0  0  0  0  0  0  0  0  0  0  0
    2.4344    0.6299   -0.0000 C   0  0  0  0  0  0  0  0  0  0  0  0
    3.4729    4.4092   -0.0000 N   0  0  0  0  0  0  0  0  0  0  0  0
    3.1835    1.9578   -0.0000 C   0  0  0  0  0  0  0  0  0  0  0  0
    4.8178    3.8134   -0.0000 N   0  0  0  0  0  0  0  0  0  0  0  0
    4.6476    2.2812   -0.0000 C   0  0  0  0  0  0  0  0  0  0  0  0
    5.7541    1.2768   -0.0000 C   0  0  0  0  0  0  0  0  0  0  0  0
    7.1841    1.7535   -0.0000 C   0  0  0  0  0  0  0  0  0  0  0  0
    8.2907    0.7491   -0.0000 C   0  0  0  0  0  0  0  0  0  0  0  0
    9.7207    1.2257   -0.0000 C   0  0  0  0  0  0  0  0  0  0  0  0
    7.9502   -0.7320   -0.0000 C   0  0  0  0  0  0  0  0  0  0  0  0
   10.8273    0.2213   -0.0000 C   0  0  0  0  0  0  0  0  0  0  0  0
    9.0568   -1.7364   -0.0000 C   0  0  0  0  0  0  0  0  0  0  0  0
   10.4868   -1.2598   -0.0000 C   0  0  0  0  0  0  0  0  0  0  0  0
   11.5934   -2.2812   -0.0000 O   0  0  0  0  0  0  0  0  0  0  0  0
   11.2529   -3.7623   -0.0000 C   0  0  0  0  0  0  0  0  0  0  0  0
   12.3594   -4.7837   -0.0000 C   0  0  0  0  0  0  0  0  0  0  0  0
    9.7718   -4.2049   -0.0000 C   0  0  0  0  0  0  0  0  0  0  0  0
   12.0190   -6.2648   -0.0000 C   0  0  0  0  0  0  0  0  0  0  0  0
    9.4313   -5.6860   -0.0000 C   0  0  0  0  0  0  0  0  0  0  0  0
   10.5379   -6.7075   -0.0000 N   0  0  0  0  0  0  0  0  0  0  0  0
   10.1804   -8.1886   -0.0000 C   0  0  0  0  0  0  0  0  0  0  0  0
    9.0057   -8.5290   -0.0000 C   0  0  0  0  0  0  0  0  0  0  0  0
   11.0656   -9.0057   -0.0000 C   0  0  0  0  0  0  0  0  0  0  0  0
  1  2  2  0  0  0  0
  2  3  1  0  0  0  0
  2  4  1  0  0  0  0
  3  5  1  0  0  0  0
  4  6  1  0  0  0  0
  4  7  1  0  0  0  0
  4  8  1  1  0  0  0
  5  9  1  0  0  0  0
  6 10  1  0  0  0  0
  7 11  1  6  0  0  0
  9 12  2  0  0  0  0
 10 13  2  0  0  0  0
 11 14  2  0  0  0  0
 11 15  1  0  0  0  0
 14 16  1  0  0  0  0
 15 17  2  0  0  0  0
 16 18  1  0  0  0  0
 16 19  2  0  0  0  0
 18 20  1  0  0  0  0
 19 21  1  0  0  0  0
 21 22  1  0  0  0  0
 22 23  2  0  0  0  0
 23 24  1  0  0  0  0
 24 25  2  0  0  0  0
 24 26  1  0  0  0  0
 25 27  1  0  0  0  0
 26 28  2  0  0  0  0
 27 29  2  0  0  0  0
 29 30  1  0  0  0  0
 30 31  1  0  0  0  0
 31 32  1  0  0  0  0
 31 33  1  0  0  0  0
 32 34  1  0  0  0  0
 33 35  1  0  0  0  0
 34 36  1  0  0  0  0
 36 37  1  0  0  0  0
 37 38  1  0  0  0  0
 37 39  1  0  0  0  0
  5  6  2  0  0  0  0
  7  8  1  0  0  0  0
 12 13  1  0  0  0  0
 17 19  1  0  0  0  0
 20 21  2  0  0  0  0
 28 29  1  0  0  0  0
 35 36  1  0  0  0  0
M  END
>  <MolRegNo>
1835720

>  <m>
=

>  <Value>
1600

>  <Unit>
nM

>  <Type>
IC50

>  <pValue>
5.8

>  <Ligand Efficiency>
0

>  <Binding Efficiency>
0

>  <Surface Efficiency>
0

>  <Assay Index>
912667

>  <Assay Category>


>  <Assay Organism>
Homo sapiens

>  <Target ID>
17045

>  <Target Name>
Cytochrome P450 3A4

>  <Target Organism>
Homo sapiens

>  <Target Description>
Target is a single protein chain

>  <Sequence Accession>
P08684

>  <Reference>
J Med Chem 58 (1), 147-169 (2015)

>  <Pubmed ID>
25723005

>  <DOI>
10.1021/jm5005336

$$$$
1835705
Actelion Java MolfileCreator 1.0

 34 39  0  0  0  0  0  0  0  0999 V2000
    0.0000   -0.0000   -0.0000 O   0  0  0  0  0  0  0  0  0  0  0  0
   -1.0812   -0.6007   -0.0000 C   0  0  0  0  0  0  0  0  0  0  0  0
   -1.0984   -2.1109   -0.0000 N   0  0  0  0  0  0  0  0  0  0  0  0
   -2.1967    0.0686   -0.0000 C   0  0  0  0  0  0  0  0  0  0  0  0
   -3.2951   -2.0937   -0.0000 C   0  0  0  0  0  0  0  0  0  0  0  0
   -0.2403   -2.9690   -0.0000 C   0  0  0  0  0  0  0  0  0  0  0  0
   -3.2951   -0.5663   -0.0000 C   0  0  0  0  0  0  0  0  0  0  0  0
   -1.1842    1.3043   -0.0000 C   0  0  0  0  0  0  0  0  0  0  0  0
   -3.4495    1.3043   -0.0000 C   0  0  0  0  0  0  0  0  0  0  0  0
   -4.3934   -2.7459   -0.0000 C   0  0  0  0  0  0  0  0  0  0  0  0
   -4.3934    0.1030   -0.0000 C   0  0  0  0  0  0  0  0  0  0  0  0
    0.1888    1.9736   -0.0000 C   0  0  0  0  0  0  0  0  0  0  0  0
   -5.5089   -2.0594   -0.0000 C   0  0  0  0  0  0  0  0  0  0  0  0
   -5.5089   -0.5320   -0.0000 C   0  0  0  0  0  0  0  0  0  0  0  0
    0.9439    3.3122   -0.0000 C   0  0  0  0  0  0  0  0  0  0  0  0
    0.9096    0.6350   -0.0000 C   0  0  0  0  0  0  0  0  0  0  0  0
    2.4713    3.2951   -0.0000 C   0  0  0  0  0  0  0  0  0  0  0  0
    2.4541    0.6350   -0.0000 C   0  0  0  0  0  0  0  0  0  0  0  0
    3.5010    4.4449   -0.0000 N   0  0  0  0  0  0  0  0  0  0  0  0
    3.2092    1.9736   -0.0000 C   0  0  0  0  0  0  0  0  0  0  0  0
    4.8568    3.8442   -0.0000 N   0  0  0  0  0  0  0  0  0  0  0  0
    4.6851    2.2997   -0.0000 C   0  0  0  0  0  0  0  0  0  0  0  0
    5.8007    1.2871   -0.0000 C   0  0  0  0  0  0  0  0  0  0  0  0
    7.2422    1.7677   -0.0000 C   0  0  0  0  0  0  0  0  0  0  0  0
    8.3578    0.7551   -0.0000 C   0  0  0  0  0  0  0  0  0  0  0  0
    9.7993    1.2356   -0.0000 C   0  0  0  0  0  0  0  0  0  0  0  0
    8.0145   -0.7380   -0.0000 C   0  0  0  0  0  0  0  0  0  0  0  0
   10.9149    0.2231   -0.0000 C   0  0  0  0  0  0  0  0  0  0  0  0
    9.1300   -1.7505   -0.0000 C   0  0  0  0  0  0  0  0  0  0  0  0
   10.5716   -1.2700   -0.0000 C   0  0  0  0  0  0  0  0  0  0  0  0
   11.6871   -2.2997   -0.0000 C   0  0  0  0  0  0  0  0  0  0  0  0
   11.3439   -3.7927   -0.0000 N   0  0  0  0  0  0  0  0  0  0  0  0
   12.2363   -4.5993   -0.0000 C   0  0  0  0  0  0  0  0  0  0  0  0
   10.1597   -4.1531   -0.0000 C   0  0  0  0  0  0  0  0  0  0  0  0
  1  2  2  0  0  0  0
  2  3  1  0  0  0  0
  2  4  1  0  0  0  0
  3  5  1  0  0  0  0
  3  6  1  0  0  0  0
  4  7  1  0  0  0  0
  4  8  1  0  0  0  0
  4  9  1  1  0  0  0
  5 10  1  0  0  0  0
  7 11  1  0  0  0  0
  8 12  1  6  0  0  0
 10 13  2  0  0  0  0
 11 14  2  0  0  0  0
 12 15  2  0  0  0  0
 12 16  1  0  0  0  0
 15 17  1  0  0  0  0
 16 18  2  0  0  0  0
 17 19  1  0  0  0  0
 17 20  2  0  0  0  0
 19 21  1  0  0  0  0
 20 22  1  0  0  0  0
 22 23  1  0  0  0  0
 23 24  2  0  0  0  0
 24 25  1  0  0  0  0
 25 26  2  0  0  0  0
 25 27  1  0  0  0  0
 26 28  1  0  0  0  0
 27 29  2  0  0  0  0
 28 30  2  0  0  0  0
 30 31  1  0  0  0  0
 31 32  1  0  0  0  0
 32 33  1  0  0  0  0
 32 34  1  0  0  0  0
  5  7  2  0  0  0  0
  8  9  1  0  0  0  0
 13 14  1  0  0  0  0
 18 20  1  0  0  0  0
 21 22  2  0  0  0  0
 29 30  1  0  0  0  0
M  END
>  <MolRegNo>
1835705

>  <m>
=

>  <Value>
2300

>  <Unit>
nM

>  <Type>
IC50

>  <pValue>
5.64

>  <Ligand Efficiency>
0

>  <Binding Efficiency>
0

>  <Surface Efficiency>
0

>  <Assay Index>
912668

>  <Assay Category>


>  <Assay Organism>
Homo sapiens

>  <Target ID>
17045

>  <Target Name>
Cytochrome P450 3A4

>  <Target Organism>
Homo sapiens

>  <Target Description>
Target is a single protein chain

>  <Sequence Accession>
P08684

>  <Reference>
J Med Chem 58 (1), 147-169 (2015)

>  <Pubmed ID>
25723005

>  <DOI>
10.1021/jm5005336

$$$$
1835711
Actelion Java MolfileCreator 1.0

 41 47  0  0  1  0  0  0  0  0999 V2000
    0.0000   -0.0000   -0.0000 O   0  0  0  0  0  0  0  0  0  0  0  0
   -1.0806   -0.6003   -0.0000 C   0  0  0  0  0  0  0  0  0  0  0  0
   -1.0978   -2.1097   -0.0000 N   0  0  0  0  0  0  0  0  0  0  0  0
   -2.1955    0.0686   -0.0000 C   0  0  0  0  0  0  0  0  0  0  0  0
   -3.2933   -2.0926   -0.0000 C   0  0  0  0  0  0  0  0  0  0  0  0
   -0.2401   -2.9674   -0.0000 C   0  0  0  0  0  0  0  0  0  0  0  0
   -3.2933   -0.5660   -0.0000 C   0  0  0  0  0  0  0  0  0  0  0  0
   -1.1835    1.3036   -0.0000 C   0  0  0  0  0  0  0  0  0  0  0  0
   -3.4476    1.3036   -0.0000 C   0  0  0  0  0  0  0  0  0  0  0  0
   -4.3910   -2.7444   -0.0000 C   0  0  0  0  0  0  0  0  0  0  0  0
   -4.3910    0.1029   -0.0000 C   0  0  0  0  0  0  0  0  0  0  0  0
    0.1887    1.9725   -0.0000 C   0  0  0  0  0  0  0  0  0  0  0  0
   -5.5059   -2.0583   -0.0000 C   0  0  0  0  0  0  0  0  0  0  0  0
   -5.5059   -0.5317   -0.0000 C   0  0  0  0  0  0  0  0  0  0  0  0
    0.9434    3.3104   -0.0000 C   0  0  0  0  0  0  0  0  0  0  0  0
    0.9091    0.6346   -0.0000 C   0  0  0  0  0  0  0  0  0  0  0  0
   -6.8267    0.3087   -0.0000 O   0  0  0  0  0  0  0  0  0  0  0  0
    2.4700    3.2933   -0.0000 C   0  0  0  0  0  0  0  0  0  0  0  0
    2.4528    0.6346   -0.0000 C   0  0  0  0  0  0  0  0  0  0  0  0
   -7.9416   -0.2401   -0.0000 C   0  0  0  0  0  0  0  0  0  0  0  0
    3.4991    4.4425   -0.0000 N   0  0  0  0  0  0  0  0  0  0  0  0
    3.2075    1.9725   -0.0000 C   0  0  0  0  0  0  0  0  0  0  0  0
    4.8541    3.8421   -0.0000 N   0  0  0  0  0  0  0  0  0  0  0  0
    4.6826    2.2984   -0.0000 C   0  0  0  0  0  0  0  0  0  0  0  0
    5.7975    1.2864   -0.0000 C   0  0  0  0  0  0  0  0  0  0  0  0
    7.2383    1.7667   -0.0000 C   0  0  0  0  0  0  0  0  0  0  0  0
    8.3532    0.7547   -0.0000 C   0  0  0  0  0  0  0  0  0  0  0  0
    9.7940    1.2350   -0.0000 C   0  0  0  0  0  0  0  0  0  0  0  0
    8.0102   -0.7376   -0.0000 C   0  0  0  0  0  0  0  0  0  0  0  0
   10.9090    0.2230   -0.0000 C   0  0  0  0  0  0  0  0  0  0  0  0
    9.1251   -1.7495   -0.0000 C   0  0  0  0  0  0  0  0  0  0  0  0
   10.5659   -1.2693   -0.0000 C   0  0  0  0  0  0  0  0  0  0  0  0
   11.6808   -2.2984   -0.0000 C   0  0  0  0  0  0  0  0  0  0  0  0
   11.3378   -3.7907   -0.0000 N   0  0  0  0  0  0  0  0  0  0  0  0
   12.4527   -4.8198   -0.0000 C   0  0  0  0  0  0  0  0  0  0  0  0
    9.8455   -4.2367   -0.0000 C   0  0  0  0  0  0  0  0  0  0  0  0
   12.1096   -6.3121   -0.0000 C   0  0  0  0  0  0  0  0  0  0  0  0
    9.5025   -5.7289   -0.0000 C   0  0  0  0  0  0  0  0  0  0  0  0
   10.6174   -6.7581   -0.0000 O   0  0  0  0  0  0  0  0  0  0  0  0
   13.0015   -7.1354   -0.0000 C   0  0  0  0  0  0  0  0  0  0  0  0
    8.3189   -6.0891   -0.0000 C   0  0  0  0  0  0  0  0  0  0  0  0
  1  2  2  0  0  0  0
  2  3  1  0  0  0  0
  2  4  1  0  0  0  0
  3  5  1  0  0  0  0
  3  6  1  0  0  0  0
  4  7  1  0  0  0  0
  4  8  1  0  0  0  0
  4  9  1  1  0  0  0
  5 10  1  0  0  0  0
  7 11  1  0  0  0  0
  8 12  1  6  0  0  0
 10 13  2  0  0  0  0
 11 14  2  0  0  0  0
 12 15  2  0  0  0  0
 12 16  1  0  0  0  0
 14 17  1  0  0  0  0
 15 18  1  0  0  0  0
 16 19  2  0  0  0  0
 17 20  1  0  0  0  0
 18 21  1  0  0  0  0
 18 22  2  0  0  0  0
 21 23  1  0  0  0  0
 22 24  1  0  0  0  0
 24 25  1  0  0  0  0
 25 26  2  0  0  0  0
 26 27  1  0  0  0  0
 27 28  2  0  0  0  0
 27 29  1  0  0  0  0
 28 30  1  0  0  0  0
 29 31  2  0  0  0  0
 30 32  2  0  0  0  0
 32 33  1  0  0  0  0
 33 34  1  0  0  0  0
 34 35  1  0  0  0  0
 34 36  1  0  0  0  0
 35 37  1  0  0  0  0
 36 38  1  0  0  0  0
 37 39  1  0  0  0  0
 37 40  1  6  0  0  0
 38 41  1  6  0  0  0
  5  7  2  0  0  0  0
  8  9  1  0  0  0  0
 13 14  1  0  0  0  0
 19 22  1  0  0  0  0
 23 24  2  0  0  0  0
 31 32  1  0  0  0  0
 38 39  1  0  0  0  0
M  END
>  <MolRegNo>
1835711

>  <m>
=

>  <Value>
10000

>  <Unit>
nM

>  <Type>
IC50

>  <pValue>
5

>  <Ligand Efficiency>
0

>  <Binding Efficiency>
0

>  <Surface Efficiency>
0

>  <Assay Index>
912668

>  <Assay Category>


>  <Assay Organism>
Homo sapiens

>  <Target ID>
17045

>  <Target Name>
Cytochrome P450 3A4

>  <Target Organism>
Homo sapiens

>  <Target Description>
Target is a single protein chain

>  <Sequence Accession>
P08684

>  <Reference>
J Med Chem 58 (1), 147-169 (2015)

>  <Pubmed ID>
25723005

>  <DOI>
10.1021/jm5005336

$$$$
1834561
Actelion Java MolfileCreator 1.0

 25 26  0  0  0  0  0  0  0  0999 V2000
    0.0000   -0.0000   -0.0000 Cl  0  0  0  0  0  0  0  0  0  0  0  0
   -2.8453   -3.0350   -0.0000 F   0  0  0  0  0  0  0  0  0  0  0  0
   -3.9004   -3.6277   -0.0000 C   0  0  0  0  0  0  0  0  0  0  0  0
   -5.2163   -2.8690   -0.0000 C   0  0  0  0  0  0  0  0  0  0  0  0
   -3.9122   -5.1215   -0.0000 C   0  0  0  0  0  0  0  0  0  0  0  0
   -6.5323   -3.6040   -0.0000 C   0  0  0  0  0  0  0  0  0  0  0  0
   -5.2282   -5.8565   -0.0000 C   0  0  0  0  0  0  0  0  0  0  0  0
   -6.5441   -5.0978   -0.0000 C   0  0  0  0  0  0  0  0  0  0  0  0
   -7.8482   -2.8334   -0.0000 C   0  0  0  0  0  0  0  0  0  0  0  0
   -7.8601   -1.3159   -0.0000 C   0  0  0  0  0  0  0  0  0  0  0  0
   -9.1760   -0.5453   -0.0000 C   0  0  0  0  0  0  0  0  0  0  0  0
   -9.1878    0.9721   -0.0000 N   0  0  0  0  0  0  0  0  0  0  0  0
  -10.5038    1.7427   -0.0000 C   0  0  0  0  0  0  0  0  0  0  0  0
  -10.5156    3.2602   -0.0000 C   0  0  0  0  0  0  0  0  0  0  0  0
  -11.8316    4.0308   -0.0000 C   0  0  0  0  0  0  0  0  0  0  0  0
  -13.1475    3.2958   -0.0000 N   0  0  0  0  0  0  0  0  0  0  0  0
  -11.8434    5.5483   -0.0000 C   0  0  0  0  0  0  0  0  0  0  0  0
  -14.4634    4.0545   -0.0000 C   0  0  0  0  0  0  0  0  0  0  0  0
  -13.1594    6.3070   -0.0000 C   0  0  0  0  0  0  0  0  0  0  0  0
  -14.4753    5.5720   -0.0000 N   0  0  0  0  0  0  0  0  0  0  0  0
  -15.7794    3.3195   -0.0000 N   0  0  0  0  0  0  0  0  0  0  0  0
  -15.9216    1.8494   -0.0000 C   0  0  0  0  0  0  0  0  0  0  0  0
  -17.1427    3.9478   -0.0000 C   0  0  0  0  0  0  0  0  0  0  0  0
  -17.4036    1.5412   -0.0000 N   0  0  0  0  0  0  0  0  0  0  0  0
  -18.1623    2.8453   -0.0000 C   0  0  0  0  0  0  0  0  0  0  0  0
  2  3  1  0  0  0  0
  3  4  2  0  0  0  0
  3  5  1  0  0  0  0
  4  6  1  0  0  0  0
  5  7  2  0  0  0  0
  6  8  2  0  0  0  0
  6  9  1  0  0  0  0
  9 10  1  0  0  0  0
 10 11  1  0  0  0  0
 11 12  1  0  0  0  0
 12 13  1  0  0  0  0
 13 14  1  0  0  0  0
 14 15  1  0  0  0  0
 15 16  2  0  0  0  0
 15 17  1  0  0  0  0
 16 18  1  0  0  0  0
 17 19  2  0  0  0  0
 18 20  2  0  0  0  0
 18 21  1  0  0  0  0
 21 22  1  0  0  0  0
 21 23  1  0  0  0  0
 22 24  2  0  0  0  0
 23 25  2  0  0  0  0
  7  8  1  0  0  0  0
 19 20  1  0  0  0  0
 24 25  1  0  0  0  0
M  END
>  <MolRegNo>
1834561

>  <m>
=

>  <Value>
2500

>  <Unit>
nM

>  <Type>
IC50

>  <pValue>
5.6

>  <Ligand Efficiency>
0

>  <Binding Efficiency>
0

>  <Surface Efficiency>
0

>  <Assay Index>
912462

>  <Assay Category>


>  <Assay Organism>
Homo sapiens

>  <Target ID>
17045

>  <Target Name>
Cytochrome P450 3A4

>  <Target Organism>
Homo sapiens

>  <Target Description>
Target is a single protein chain

>  <Sequence Accession>
P08684

>  <Reference>
J Med Chem 58 (3), 1067-1088 (2015)

>  <Pubmed ID>
25489882

>  <DOI>
10.1021/jm501719e

$$$$
1834565
Actelion Java MolfileCreator 1.0

 24 25  0  0  0  0  0  0  0  0999 V2000
    0.0000   -0.0000   -0.0000 Cl  0  0  0  0  0  0  0  0  0  0  0  0
  -11.7639    3.1307   -0.0000 N   0  0  0  0  0  0  0  0  0  0  0  0
  -13.0802    3.8897   -0.0000 C   0  0  0  0  0  0  0  0  0  0  0  0
  -10.4713    3.8897   -0.0000 C   0  0  0  0  0  0  0  0  0  0  0  0
  -13.0920    5.4076   -0.0000 N   0  0  0  0  0  0  0  0  0  0  0  0
  -14.3965    3.1544   -0.0000 N   0  0  0  0  0  0  0  0  0  0  0  0
  -10.4831    5.4076   -0.0000 C   0  0  0  0  0  0  0  0  0  0  0  0
   -9.1787    3.1426   -0.0000 C   0  0  0  0  0  0  0  0  0  0  0  0
  -11.7994    6.1665   -0.0000 C   0  0  0  0  0  0  0  0  0  0  0  0
  -14.5388    1.6839   -0.0000 C   0  0  0  0  0  0  0  0  0  0  0  0
  -15.7603    3.7829   -0.0000 C   0  0  0  0  0  0  0  0  0  0  0  0
   -9.1905    1.6484   -0.0000 C   0  0  0  0  0  0  0  0  0  0  0  0
  -16.0212    1.3756   -0.0000 N   0  0  0  0  0  0  0  0  0  0  0  0
  -16.7801    2.6801   -0.0000 C   0  0  0  0  0  0  0  0  0  0  0  0
   -7.8979    0.9013   -0.0000 N   0  0  0  0  0  0  0  0  0  0  0  0
   -7.9098   -0.5929   -0.0000 C   0  0  0  0  0  0  0  0  0  0  0  0
   -6.6172   -1.3400   -0.0000 C   0  0  0  0  0  0  0  0  0  0  0  0
   -6.6290   -2.8342   -0.0000 C   0  0  0  0  0  0  0  0  0  0  0  0
   -5.3364   -3.5813   -0.0000 C   0  0  0  0  0  0  0  0  0  0  0  0
   -4.0438   -2.8224   -0.0000 C   0  0  0  0  0  0  0  0  0  0  0  0
   -5.3483   -5.0755   -0.0000 C   0  0  0  0  0  0  0  0  0  0  0  0
   -2.7512   -3.5576   -0.0000 N   0  0  0  0  0  0  0  0  0  0  0  0
   -4.0557   -5.8108   -0.0000 C   0  0  0  0  0  0  0  0  0  0  0  0
   -2.7631   -5.0518   -0.0000 C   0  0  0  0  0  0  0  0  0  0  0  0
  2  3  2  0  0  0  0
  2  4  1  0  0  0  0
  3  5  1  0  0  0  0
  3  6  1  0  0  0  0
  4  7  2  0  0  0  0
  4  8  1  0  0  0  0
  5  9  2  0  0  0  0
  6 10  1  0  0  0  0
  6 11  1  0  0  0  0
  8 12  1  0  0  0  0
 10 13  2  0  0  0  0
 11 14  2  0  0  0  0
 12 15  1  0  0  0  0
 15 16  1  0  0  0  0
 16 17  1  0  0  0  0
 17 18  1  0  0  0  0
 18 19  1  0  0  0  0
 19 20  2  0  0  0  0
 19 21  1  0  0  0  0
 20 22  1  0  0  0  0
 21 23  2  0  0  0  0
 22 24  2  0  0  0  0
  7  9  1  0  0  0  0
 13 14  1  0  0  0  0
 23 24  1  0  0  0  0
M  END
>  <MolRegNo>
1834565

>  <m>
=

>  <Value>
70000

>  <Unit>
nM

>  <Type>
IC50

>  <pValue>
4.16

>  <Ligand Efficiency>
0

>  <Binding Efficiency>
0

>  <Surface Efficiency>
0

>  <Assay Index>
912462

>  <Assay Category>


>  <Assay Organism>
Homo sapiens

>  <Target ID>
17045

>  <Target Name>
Cytochrome P450 3A4

>  <Target Organism>
Homo sapiens

>  <Target Description>
Target is a single protein chain

>  <Sequence Accession>
P08684

>  <Reference>
J Med Chem 58 (3), 1067-1088 (2015)

>  <Pubmed ID>
25489882

>  <DOI>
10.1021/jm501719e

$$$$
1834572
Actelion Java MolfileCreator 1.0

 26 27  0  0  0  0  0  0  0  0999 V2000
    0.0000   -0.0000   -0.0000 Cl  0  0  0  0  0  0  0  0  0  0  0  0
   -2.8655   -3.0565   -0.0000 F   0  0  0  0  0  0  0  0  0  0  0  0
   -3.9281   -3.6535   -0.0000 C   0  0  0  0  0  0  0  0  0  0  0  0
   -5.2534   -2.8894   -0.0000 C   0  0  0  0  0  0  0  0  0  0  0  0
   -3.9401   -5.1579   -0.0000 C   0  0  0  0  0  0  0  0  0  0  0  0
   -6.5787   -3.6296   -0.0000 C   0  0  0  0  0  0  0  0  0  0  0  0
   -5.2654   -5.8982   -0.0000 C   0  0  0  0  0  0  0  0  0  0  0  0
   -6.5907   -5.1340   -0.0000 C   0  0  0  0  0  0  0  0  0  0  0  0
   -7.9040   -2.8536   -0.0000 C   0  0  0  0  0  0  0  0  0  0  0  0
   -7.9160   -1.3253   -0.0000 C   0  0  0  0  0  0  0  0  0  0  0  0
   -9.2413   -0.5492   -0.0000 C   0  0  0  0  0  0  0  0  0  0  0  0
   -9.2532    0.9791   -0.0000 N   0  0  0  0  0  0  0  0  0  0  0  0
  -10.5785    1.7551   -0.0000 C   0  0  0  0  0  0  0  0  0  0  0  0
  -10.5905    3.2834   -0.0000 C   0  0  0  0  0  0  0  0  0  0  0  0
  -11.9158    4.0595   -0.0000 C   0  0  0  0  0  0  0  0  0  0  0  0
  -13.2411    3.3192   -0.0000 N   0  0  0  0  0  0  0  0  0  0  0  0
  -11.9277    5.5877   -0.0000 C   0  0  0  0  0  0  0  0  0  0  0  0
  -14.5664    4.0834   -0.0000 C   0  0  0  0  0  0  0  0  0  0  0  0
  -13.2530    6.3519   -0.0000 C   0  0  0  0  0  0  0  0  0  0  0  0
  -14.5783    5.6116   -0.0000 N   0  0  0  0  0  0  0  0  0  0  0  0
  -15.8917    3.3431   -0.0000 N   0  0  0  0  0  0  0  0  0  0  0  0
  -17.2647    3.9759   -0.0000 C   0  0  0  0  0  0  0  0  0  0  0  0
  -16.0349    1.8626   -0.0000 C   0  0  0  0  0  0  0  0  0  0  0  0
  -18.2915    2.8655   -0.0000 C   0  0  0  0  0  0  0  0  0  0  0  0
  -17.5274    5.1699   -0.0000 C   0  0  0  0  0  0  0  0  0  0  0  0
  -17.5274    1.5522   -0.0000 N   0  0  0  0  0  0  0  0  0  0  0  0
  2  3  1  0  0  0  0
  3  4  2  0  0  0  0
  3  5  1  0  0  0  0
  4  6  1  0  0  0  0
  5  7  2  0  0  0  0
  6  8  2  0  0  0  0
  6  9  1  0  0  0  0
  9 10  1  0  0  0  0
 10 11  1  0  0  0  0
 11 12  1  0  0  0  0
 12 13  1  0  0  0  0
 13 14  1  0  0  0  0
 14 15  1  0  0  0  0
 15 16  2  0  0  0  0
 15 17  1  0  0  0  0
 16 18  1  0  0  0  0
 17 19  2  0  0  0  0
 18 20  2  0  0  0  0
 18 21  1  0  0  0  0
 21 22  1  0  0  0  0
 21 23  1  0  0  0  0
 22 24  2  0  0  0  0
 22 25  1  0  0  0  0
 23 26  2  0  0  0  0
  7  8  1  0  0  0  0
 19 20  1  0  0  0  0
 24 26  1  0  0  0  0
M  END
>  <MolRegNo>
1834572

>  <m>
=

>  <Value>
900

>  <Unit>
nM

>  <Type>
IC50

>  <pValue>
6.05

>  <Ligand Efficiency>
0

>  <Binding Efficiency>
0

>  <Surface Efficiency>
0

>  <Assay Index>
912462

>  <Assay Category>


>  <Assay Organism>
Homo sapiens

>  <Target ID>
17045

>  <Target Name>
Cytochrome P450 3A4

>  <Target Organism>
Homo sapiens

>  <Target Description>
Target is a single protein chain

>  <Sequence Accession>
P08684

>  <Reference>
J Med Chem 58 (3), 1067-1088 (2015)

>  <Pubmed ID>
25489882

>  <DOI>
10.1021/jm501719e

$$$$
1834573
Actelion Java MolfileCreator 1.0

 26 28  0  0  0  0  0  0  0  0999 V2000
    0.0000   -0.0000   -0.0000 Cl  0  0  0  0  0  0  0  0  0  0  0  0
   -9.3714   -4.5901   -0.0000 F   0  0  0  0  0  0  0  0  0  0  0  0
   -8.3434   -5.1997   -0.0000 C   0  0  0  0  0  0  0  0  0  0  0  0
   -7.0285   -4.4466   -0.0000 C   0  0  0  0  0  0  0  0  0  0  0  0
   -8.3793   -6.7058   -0.0000 C   0  0  0  0  0  0  0  0  0  0  0  0
   -5.7376   -5.2116   -0.0000 C   0  0  0  0  0  0  0  0  0  0  0  0
   -7.0883   -7.4708   -0.0000 C   0  0  0  0  0  0  0  0  0  0  0  0
   -5.7735   -6.7178   -0.0000 C   0  0  0  0  0  0  0  0  0  0  0  0
   -4.4227   -4.4586   -0.0000 C   0  0  0  0  0  0  0  0  0  0  0  0
   -4.4108   -2.9405   -0.0000 C   0  0  0  0  0  0  0  0  0  0  0  0
   -5.1041   -1.6615   -0.0000 C   0  0  0  0  0  0  0  0  0  0  0  0
   -3.6697   -1.6137   -0.0000 C   0  0  0  0  0  0  0  0  0  0  0  0
   -6.4309   -0.8965   -0.0000 N   0  0  0  0  0  0  0  0  0  0  0  0
   -6.4428    0.6335   -0.0000 C   0  0  0  0  0  0  0  0  0  0  0  0
   -7.7697    1.3985   -0.0000 C   0  0  0  0  0  0  0  0  0  0  0  0
   -7.7816    2.9286   -0.0000 C   0  0  0  0  0  0  0  0  0  0  0  0
   -6.4787    3.6936   -0.0000 N   0  0  0  0  0  0  0  0  0  0  0  0
   -9.1084    3.6936   -0.0000 C   0  0  0  0  0  0  0  0  0  0  0  0
   -6.4906    5.2236   -0.0000 C   0  0  0  0  0  0  0  0  0  0  0  0
   -9.1204    5.2236   -0.0000 C   0  0  0  0  0  0  0  0  0  0  0  0
   -7.8175    5.9886   -0.0000 N   0  0  0  0  0  0  0  0  0  0  0  0
   -5.1877    5.9886   -0.0000 N   0  0  0  0  0  0  0  0  0  0  0  0
   -5.0682    7.4947   -0.0000 C   0  0  0  0  0  0  0  0  0  0  0  0
   -3.8370    5.3790   -0.0000 C   0  0  0  0  0  0  0  0  0  0  0  0
   -3.5979    7.8294   -0.0000 N   0  0  0  0  0  0  0  0  0  0  0  0
   -2.8329    6.5146   -0.0000 C   0  0  0  0  0  0  0  0  0  0  0  0
  2  3  1  0  0  0  0
  3  4  2  0  0  0  0
  3  5  1  0  0  0  0
  4  6  1  0  0  0  0
  5  7  2  0  0  0  0
  6  8  2  0  0  0  0
  6  9  1  0  0  0  0
 10  9  1  6  0  0  0
 10 11  1  0  0  0  0
 10 12  1  0  0  0  0
 11 13  1  1  0  0  0
 13 14  1  0  0  0  0
 14 15  1  0  0  0  0
 15 16  1  0  0  0  0
 16 17  2  0  0  0  0
 16 18  1  0  0  0  0
 17 19  1  0  0  0  0
 18 20  2  0  0  0  0
 19 21  2  0  0  0  0
 19 22  1  0  0  0  0
 22 23  1  0  0  0  0
 22 24  1  0  0  0  0
 23 25  2  0  0  0  0
 24 26  2  0  0  0  0
  7  8  1  0  0  0  0
 11 12  1  0  0  0  0
 20 21  1  0  0  0  0
 25 26  1  0  0  0  0
M  END
>  <MolRegNo>
1834573

>  <m>
=

>  <Value>
300

>  <Unit>
nM

>  <Type>
IC50

>  <pValue>
6.52

>  <Ligand Efficiency>
0

>  <Binding Efficiency>
0

>  <Surface Efficiency>
0

>  <Assay Index>
912462

>  <Assay Category>


>  <Assay Organism>
Homo sapiens

>  <Target ID>
17045

>  <Target Name>
Cytochrome P450 3A4

>  <Target Organism>
Homo sapiens

>  <Target Description>
Target is a single protein chain

>  <Sequence Accession>
P08684

>  <Reference>
J Med Chem 58 (3), 1067-1088 (2015)

>  <Pubmed ID>
25489882

>  <DOI>
10.1021/jm501719e

$$$$
1616726
Actelion Java MolfileCreator 1.0

 29 31  0  0  1  0  0  0  0  0999 V2000
    0.0000   -0.0000   -0.0000 F   0  0  0  0  0  0  0  0  0  0  0  0
    0.2361   -1.2301   -0.0000 C   0  0  0  0  0  0  0  0  0  0  0  0
    1.4164   -1.6152   -0.0000 F   0  0  0  0  0  0  0  0  0  0  0  0
    1.1679   -0.3852   -0.0000 F   0  0  0  0  0  0  0  0  0  0  0  0
   -0.9567   -2.2613   -0.0000 O   0  0  0  0  0  0  0  0  0  0  0  0
   -0.6585   -3.8020   -0.0000 C   0  0  0  0  0  0  0  0  0  0  0  0
   -1.8513   -4.8333   -0.0000 C   0  0  0  0  0  0  0  0  0  0  0  0
    0.8200   -4.2866   -0.0000 C   0  0  0  0  0  0  0  0  0  0  0  0
   -1.5531   -6.3616   -0.0000 C   0  0  0  0  0  0  0  0  0  0  0  0
    1.1182   -5.8149   -0.0000 C   0  0  0  0  0  0  0  0  0  0  0  0
   -0.0745   -6.8461   -0.0000 C   0  0  0  0  0  0  0  0  0  0  0  0
    0.2236   -8.3744   -0.0000 C   0  0  0  0  0  0  0  0  0  0  0  0
    1.7022   -8.8590   -0.0000 N   0  0  0  0  0  0  0  0  0  0  0  0
    2.1744  -10.3500   -0.0000 C   0  0  0  0  0  0  0  0  0  0  0  0
    2.9696   -7.9395   -0.0000 C   0  0  0  0  0  0  0  0  0  0  0  0
    1.4164  -11.3564   -0.0000 O   0  0  0  0  0  0  0  0  0  0  0  0
    3.7399  -10.3375   -0.0000 C   0  0  0  0  0  0  0  0  0  0  0  0
    2.9571   -6.3491   -0.0000 C   0  0  0  0  0  0  0  0  0  0  0  0
    4.2369   -8.8341   -0.0000 C   0  0  0  0  0  0  0  0  0  0  0  0
    4.4730  -11.3440   -0.0000 C   0  0  0  0  0  0  0  0  0  0  0  0
    4.3115   -5.5539   -0.0000 C   0  0  0  0  0  0  0  0  0  0  0  0
    1.5780   -5.5539   -0.0000 C   0  0  0  0  0  0  0  0  0  0  0  0
    5.6658   -6.3243   -0.0000 O   0  0  0  0  0  0  0  0  0  0  0  0
    4.2990   -3.9636   -0.0000 C   0  0  0  0  0  0  0  0  0  0  0  0
    0.1988   -6.3243   -0.0000 O   0  0  0  0  0  0  0  0  0  0  0  0
    1.5655   -3.9636   -0.0000 C   0  0  0  0  0  0  0  0  0  0  0  0
    6.7467   -5.6782   -0.0000 C   0  0  0  0  0  0  0  0  0  0  0  0
    2.9199   -3.1684   -0.0000 C   0  0  0  0  0  0  0  0  0  0  0  0
   -0.9070   -5.6782   -0.0000 C   0  0  0  0  0  0  0  0  0  0  0  0
  1  2  1  0  0  0  0
  2  3  1  0  0  0  0
  2  4  1  0  0  0  0
  2  5  1  0  0  0  0
  5  6  1  0  0  0  0
  6  7  2  0  0  0  0
  6  8  1  0  0  0  0
  7  9  1  0  0  0  0
  8 10  2  0  0  0  0
  9 11  2  0  0  0  0
 11 12  1  0  0  0  0
 12 13  1  0  0  0  0
 13 14  1  0  0  0  0
 13 15  1  0  0  0  0
 14 16  2  0  0  0  0
 14 17  1  0  0  0  0
 15 18  1  6  0  0  0
 15 19  1  0  0  0  0
 17 20  1  6  0  0  0
 18 21  2  0  0  0  0
 18 22  1  0  0  0  0
 21 23  1  0  0  0  0
 21 24  1  0  0  0  0
 22 25  1  0  0  0  0
 22 26  2  0  0  0  0
 23 27  1  0  0  0  0
 24 28  2  0  0  0  0
 25 29  1  0  0  0  0
 10 11  1  0  0  0  0
 17 19  1  0  0  0  0
 26 28  1  0  0  0  0
M  END
>  <MolRegNo>
1616726

>  <m>
=

>  <Value>
8700

>  <Unit>
nM

>  <Type>
IC50

>  <pValue>
5.06

>  <Ligand Efficiency>
0

>  <Binding Efficiency>
0

>  <Surface Efficiency>
0

>  <Assay Index>
913533

>  <Assay Category>


>  <Assay Organism>
Homo sapiens

>  <Target ID>
17045

>  <Target Name>
Cytochrome P450 3A4

>  <Target Organism>
Homo sapiens

>  <Target Description>
Target is a single protein chain

>  <Sequence Accession>
P08684

>  <Reference>
Bioorg Med Chem Lett 25 (9), 1884-1891 (2015)

>  <Pubmed ID>
25838147

>  <DOI>
10.1016/j.bmcl.2015.03.035

$$$$
1836625
Actelion Java MolfileCreator 1.0

 29 31  0  0  1  0  0  0  0  0999 V2000
    0.0000   -0.0000   -0.0000 Cl  0  0  0  0  0  0  0  0  0  0  0  0
   -0.7522    1.0234   -0.0000 C   0  0  0  0  0  0  0  0  0  0  0  0
   -2.3304    1.0358   -0.0000 C   0  0  0  0  0  0  0  0  0  0  0  0
   -0.2836    2.5277   -0.0000 C   0  0  0  0  0  0  0  0  0  0  0  0
   -3.0826    0.0370   -0.0000 O   0  0  0  0  0  0  0  0  0  0  0  0
   -2.8237    2.5401   -0.0000 N   0  0  0  0  0  0  0  0  0  0  0  0
   -1.5660    3.4402   -0.0000 C   0  0  0  0  0  0  0  0  0  0  0  0
   -4.3156    3.0456   -0.0000 C   0  0  0  0  0  0  0  0  0  0  0  0
   -1.5783    5.0185   -0.0000 C   0  0  0  0  0  0  0  0  0  0  0  0
   -4.6362    4.5869   -0.0000 C   0  0  0  0  0  0  0  0  0  0  0  0
   -0.2343    5.8076   -0.0000 C   0  0  0  0  0  0  0  0  0  0  0  0
   -2.9470    5.8076   -0.0000 C   0  0  0  0  0  0  0  0  0  0  0  0
   -6.1282    5.0924   -0.0000 C   0  0  0  0  0  0  0  0  0  0  0  0
   -3.4772    5.6350   -0.0000 C   0  0  0  0  0  0  0  0  0  0  0  0
    1.1097    5.0431   -0.0000 O   0  0  0  0  0  0  0  0  0  0  0  0
   -0.2466    7.3859   -0.0000 C   0  0  0  0  0  0  0  0  0  0  0  0
   -4.3156    5.0431   -0.0000 O   0  0  0  0  0  0  0  0  0  0  0  0
   -2.9593    7.3859   -0.0000 C   0  0  0  0  0  0  0  0  0  0  0  0
   -6.4488    6.6337   -0.0000 C   0  0  0  0  0  0  0  0  0  0  0  0
   -3.7978    7.1763   -0.0000 C   0  0  0  0  0  0  0  0  0  0  0  0
    2.1825    5.6843   -0.0000 C   0  0  0  0  0  0  0  0  0  0  0  0
   -1.6153    8.1750   -0.0000 C   0  0  0  0  0  0  0  0  0  0  0  0
   -5.4130    5.6843   -0.0000 C   0  0  0  0  0  0  0  0  0  0  0  0
   -5.2897    7.6818   -0.0000 C   0  0  0  0  0  0  0  0  0  0  0  0
   -5.6103    9.2355   -0.0000 O   0  0  0  0  0  0  0  0  0  0  0  0
   -4.4513   10.2835   -0.0000 C   0  0  0  0  0  0  0  0  0  0  0  0
   -4.7102   11.5289   -0.0000 F   0  0  0  0  0  0  0  0  0  0  0  0
   -3.2799    9.9013   -0.0000 F   0  0  0  0  0  0  0  0  0  0  0  0
   -3.5265   11.1220   -0.0000 F   0  0  0  0  0  0  0  0  0  0  0  0
  2  1  1  6  0  0  0
  2  3  1  0  0  0  0
  2  4  1  0  0  0  0
  3  5  2  0  0  0  0
  3  6  1  0  0  0  0
  4  7  1  0  0  0  0
  6  8  1  0  0  0  0
  7  9  1  6  0  0  0
  8 10  1  0  0  0  0
  9 11  2  0  0  0  0
  9 12  1  0  0  0  0
 10 13  2  0  0  0  0
 10 14  1  0  0  0  0
 11 15  1  0  0  0  0
 11 16  1  0  0  0  0
 12 17  1  0  0  0  0
 12 18  2  0  0  0  0
 13 19  1  0  0  0  0
 14 20  2  0  0  0  0
 15 21  1  0  0  0  0
 16 22  2  0  0  0  0
 17 23  1  0  0  0  0
 19 24  2  0  0  0  0
 24 25  1  0  0  0  0
 25 26  1  0  0  0  0
 26 27  1  0  0  0  0
 26 28  1  0  0  0  0
 26 29  1  0  0  0  0
  6  7  1  0  0  0  0
 18 22  1  0  0  0  0
 20 24  1  0  0  0  0
M  END
>  <MolRegNo>
1836625

>  <m>
=

>  <Value>
6600

>  <Unit>
nM

>  <Type>
IC50

>  <pValue>
5.18

>  <Ligand Efficiency>
0

>  <Binding Efficiency>
0

>  <Surface Efficiency>
0

>  <Assay Index>
913533

>  <Assay Category>


>  <Assay Organism>
Homo sapiens

>  <Target ID>
17045

>  <Target Name>
Cytochrome P450 3A4

>  <Target Organism>
Homo sapiens

>  <Target Description>
Target is a single protein chain

>  <Sequence Accession>
P08684

>  <Reference>
Bioorg Med Chem Lett 25 (9), 1884-1891 (2015)

>  <Pubmed ID>
25838147

>  <DOI>
10.1016/j.bmcl.2015.03.035

$$$$
1836627
Actelion Java MolfileCreator 1.0

 29 31  0  0  1  0  0  0  0  0999 V2000
    0.0000   -0.0000   -0.0000 F   0  0  0  0  0  0  0  0  0  0  0  0
    0.2361   -1.2301   -0.0000 C   0  0  0  0  0  0  0  0  0  0  0  0
    1.4164   -1.6152   -0.0000 F   0  0  0  0  0  0  0  0  0  0  0  0
    1.1679   -0.3852   -0.0000 F   0  0  0  0  0  0  0  0  0  0  0  0
   -0.9567   -2.2613   -0.0000 O   0  0  0  0  0  0  0  0  0  0  0  0
   -0.6585   -3.8020   -0.0000 C   0  0  0  0  0  0  0  0  0  0  0  0
   -1.8513   -4.8333   -0.0000 C   0  0  0  0  0  0  0  0  0  0  0  0
    0.8200   -4.2866   -0.0000 C   0  0  0  0  0  0  0  0  0  0  0  0
   -1.5531   -6.3616   -0.0000 C   0  0  0  0  0  0  0  0  0  0  0  0
    1.1182   -5.8149   -0.0000 C   0  0  0  0  0  0  0  0  0  0  0  0
   -0.0745   -6.8461   -0.0000 C   0  0  0  0  0  0  0  0  0  0  0  0
    0.2236   -8.3744   -0.0000 C   0  0  0  0  0  0  0  0  0  0  0  0
    1.7022   -8.8590   -0.0000 N   0  0  0  0  0  0  0  0  0  0  0  0
    2.1744  -10.3500   -0.0000 C   0  0  0  0  0  0  0  0  0  0  0  0
    2.9696   -7.9395   -0.0000 C   0  0  0  0  0  0  0  0  0  0  0  0
    1.4164  -11.3564   -0.0000 O   0  0  0  0  0  0  0  0  0  0  0  0
    3.7399  -10.3375   -0.0000 C   0  0  0  0  0  0  0  0  0  0  0  0
    2.9571   -6.3491   -0.0000 C   0  0  0  0  0  0  0  0  0  0  0  0
    4.2369   -8.8341   -0.0000 C   0  0  0  0  0  0  0  0  0  0  0  0
    4.4730  -11.3440   -0.0000 F   0  0  0  0  0  0  0  0  0  0  0  0
    4.3115   -5.5539   -0.0000 C   0  0  0  0  0  0  0  0  0  0  0  0
    1.5780   -5.5539   -0.0000 C   0  0  0  0  0  0  0  0  0  0  0  0
    5.6658   -6.3243   -0.0000 O   0  0  0  0  0  0  0  0  0  0  0  0
    4.2990   -3.9636   -0.0000 C   0  0  0  0  0  0  0  0  0  0  0  0
    0.1988   -6.3243   -0.0000 O   0  0  0  0  0  0  0  0  0  0  0  0
    1.5655   -3.9636   -0.0000 C   0  0  0  0  0  0  0  0  0  0  0  0
    6.7467   -5.6782   -0.0000 C   0  0  0  0  0  0  0  0  0  0  0  0
    2.9199   -3.1684   -0.0000 C   0  0  0  0  0  0  0  0  0  0  0  0
   -0.9070   -5.6782   -0.0000 C   0  0  0  0  0  0  0  0  0  0  0  0
  1  2  1  0  0  0  0
  2  3  1  0  0  0  0
  2  4  1  0  0  0  0
  2  5  1  0  0  0  0
  5  6  1  0  0  0  0
  6  7  2  0  0  0  0
  6  8  1  0  0  0  0
  7  9  1  0  0  0  0
  8 10  2  0  0  0  0
  9 11  2  0  0  0  0
 11 12  1  0  0  0  0
 12 13  1  0  0  0  0
 13 14  1  0  0  0  0
 13 15  1  0  0  0  0
 14 16  2  0  0  0  0
 14 17  1  0  0  0  0
 15 18  1  6  0  0  0
 15 19  1  0  0  0  0
 17 20  1  6  0  0  0
 18 21  2  0  0  0  0
 18 22  1  0  0  0  0
 21 23  1  0  0  0  0
 21 24  1  0  0  0  0
 22 25  1  0  0  0  0
 22 26  2  0  0  0  0
 23 27  1  0  0  0  0
 24 28  2  0  0  0  0
 25 29  1  0  0  0  0
 10 11  1  0  0  0  0
 17 19  1  0  0  0  0
 26 28  1  0  0  0  0
M  END
>  <MolRegNo>
1836627

>  <m>
=

>  <Value>
10000

>  <Unit>
nM

>  <Type>
IC50

>  <pValue>
5

>  <Ligand Efficiency>
0

>  <Binding Efficiency>
0

>  <Surface Efficiency>
0

>  <Assay Index>
913533

>  <Assay Category>


>  <Assay Organism>
Homo sapiens

>  <Target ID>
17045

>  <Target Name>
Cytochrome P450 3A4

>  <Target Organism>
Homo sapiens

>  <Target Description>
Target is a single protein chain

>  <Sequence Accession>
P08684

>  <Reference>
Bioorg Med Chem Lett 25 (9), 1884-1891 (2015)

>  <Pubmed ID>
25838147

>  <DOI>
10.1016/j.bmcl.2015.03.035

$$$$
1836629
Actelion Java MolfileCreator 1.0

 30 32  0  0  0  0  0  0  0  0999 V2000
    0.0000   -0.0000   -0.0000 F   0  0  0  0  0  0  0  0  0  0  0  0
    0.5208    1.1532   -0.0000 C   0  0  0  0  0  0  0  0  0  0  0  0
    1.7608    1.3144   -0.0000 F   0  0  0  0  0  0  0  0  0  0  0  0
   -1.0664    1.1656   -0.0000 C   0  0  0  0  0  0  0  0  0  0  0  0
    0.9920    2.6659   -0.0000 C   0  0  0  0  0  0  0  0  0  0  0  0
   -1.8228    0.1612   -0.0000 O   0  0  0  0  0  0  0  0  0  0  0  0
   -1.5624    2.6783   -0.0000 N   0  0  0  0  0  0  0  0  0  0  0  0
   -0.2976    3.5835   -0.0000 C   0  0  0  0  0  0  0  0  0  0  0  0
   -3.0627    3.1867   -0.0000 C   0  0  0  0  0  0  0  0  0  0  0  0
   -0.3100    5.1707   -0.0000 C   0  0  0  0  0  0  0  0  0  0  0  0
   -3.3851    4.7367   -0.0000 C   0  0  0  0  0  0  0  0  0  0  0  0
    1.0416    5.9643   -0.0000 C   0  0  0  0  0  0  0  0  0  0  0  0
   -1.6864    5.9643   -0.0000 C   0  0  0  0  0  0  0  0  0  0  0  0
   -4.8855    5.2451   -0.0000 C   0  0  0  0  0  0  0  0  0  0  0  0
   -2.2196    5.7907   -0.0000 C   0  0  0  0  0  0  0  0  0  0  0  0
    2.3931    5.1955   -0.0000 O   0  0  0  0  0  0  0  0  0  0  0  0
    1.0292    7.5514   -0.0000 C   0  0  0  0  0  0  0  0  0  0  0  0
   -3.0627    5.1955   -0.0000 O   0  0  0  0  0  0  0  0  0  0  0  0
   -1.6988    7.5514   -0.0000 C   0  0  0  0  0  0  0  0  0  0  0  0
   -5.2079    6.7951   -0.0000 C   0  0  0  0  0  0  0  0  0  0  0  0
   -2.5419    7.3406   -0.0000 C   0  0  0  0  0  0  0  0  0  0  0  0
    3.4719    5.8403   -0.0000 C   0  0  0  0  0  0  0  0  0  0  0  0
   -0.3472    8.3450   -0.0000 C   0  0  0  0  0  0  0  0  0  0  0  0
   -4.1663    5.8403   -0.0000 C   0  0  0  0  0  0  0  0  0  0  0  0
   -4.0423    7.8490   -0.0000 C   0  0  0  0  0  0  0  0  0  0  0  0
   -4.3647    9.4114   -0.0000 O   0  0  0  0  0  0  0  0  0  0  0  0
   -3.1991   10.4654   -0.0000 C   0  0  0  0  0  0  0  0  0  0  0  0
   -3.4595   11.7177   -0.0000 F   0  0  0  0  0  0  0  0  0  0  0  0
   -2.0212   10.0810   -0.0000 F   0  0  0  0  0  0  0  0  0  0  0  0
   -2.2691   11.3086   -0.0000 F   0  0  0  0  0  0  0  0  0  0  0  0
  1  2  1  0  0  0  0
  2  3  1  0  0  0  0
  2  4  1  0  0  0  0
  2  5  1  0  0  0  0
  4  6  2  0  0  0  0
  4  7  1  0  0  0  0
  5  8  1  0  0  0  0
  7  9  1  0  0  0  0
  8 10  1  0  0  0  0
  9 11  1  0  0  0  0
 10 12  2  0  0  0  0
 10 13  1  0  0  0  0
 11 14  2  0  0  0  0
 11 15  1  0  0  0  0
 12 16  1  0  0  0  0
 12 17  1  0  0  0  0
 13 18  1  0  0  0  0
 13 19  2  0  0  0  0
 14 20  1  0  0  0  0
 15 21  2  0  0  0  0
 16 22  1  0  0  0  0
 17 23  2  0  0  0  0
 18 24  1  0  0  0  0
 20 25  2  0  0  0  0
 25 26  1  0  0  0  0
 26 27  1  0  0  0  0
 27 28  1  0  0  0  0
 27 29  1  0  0  0  0
 27 30  1  0  0  0  0
  7  8  1  0  0  0  0
 19 23  1  0  0  0  0
 21 25  1  0  0  0  0
M  END
>  <MolRegNo>
1836629

>  <m>
=

>  <Value>
5200

>  <Unit>
nM

>  <Type>
IC50

>  <pValue>
5.28

>  <Ligand Efficiency>
0

>  <Binding Efficiency>
0

>  <Surface Efficiency>
0

>  <Assay Index>
913533

>  <Assay Category>


>  <Assay Organism>
Homo sapiens

>  <Target ID>
17045

>  <Target Name>
Cytochrome P450 3A4

>  <Target Organism>
Homo sapiens

>  <Target Description>
Target is a single protein chain

>  <Sequence Accession>
P08684

>  <Reference>
Bioorg Med Chem Lett 25 (9), 1884-1891 (2015)

>  <Pubmed ID>
25838147

>  <DOI>
10.1016/j.bmcl.2015.03.035

$$$$
1836631
Actelion Java MolfileCreator 1.0

 29 31  0  0  1  0  0  0  0  0999 V2000
    0.0000   -0.0000   -0.0000 F   0  0  0  0  0  0  0  0  0  0  0  0
    0.2361   -1.2301   -0.0000 C   0  0  0  0  0  0  0  0  0  0  0  0
    1.4164   -1.6152   -0.0000 F   0  0  0  0  0  0  0  0  0  0  0  0
    1.1679   -0.3852   -0.0000 F   0  0  0  0  0  0  0  0  0  0  0  0
   -0.9567   -2.2613   -0.0000 O   0  0  0  0  0  0  0  0  0  0  0  0
   -0.6585   -3.8020   -0.0000 C   0  0  0  0  0  0  0  0  0  0  0  0
   -1.8513   -4.8333   -0.0000 C   0  0  0  0  0  0  0  0  0  0  0  0
    0.8200   -4.2866   -0.0000 C   0  0  0  0  0  0  0  0  0  0  0  0
   -1.5531   -6.3616   -0.0000 C   0  0  0  0  0  0  0  0  0  0  0  0
    1.1182   -5.8149   -0.0000 C   0  0  0  0  0  0  0  0  0  0  0  0
   -0.0745   -6.8461   -0.0000 C   0  0  0  0  0  0  0  0  0  0  0  0
    0.2236   -8.3744   -0.0000 C   0  0  0  0  0  0  0  0  0  0  0  0
    1.7022   -8.8590   -0.0000 N   0  0  0  0  0  0  0  0  0  0  0  0
    2.1744  -10.3500   -0.0000 C   0  0  0  0  0  0  0  0  0  0  0  0
    2.9696   -7.9395   -0.0000 C   0  0  0  0  0  0  0  0  0  0  0  0
    1.4164  -11.3564   -0.0000 O   0  0  0  0  0  0  0  0  0  0  0  0
    3.7399  -10.3375   -0.0000 C   0  0  0  0  0  0  0  0  0  0  0  0
    2.9571   -6.3491   -0.0000 C   0  0  0  0  0  0  0  0  0  0  0  0
    4.2369   -8.8341   -0.0000 C   0  0  0  0  0  0  0  0  0  0  0  0
    4.4730  -11.3440   -0.0000 O   0  0  0  0  0  0  0  0  0  0  0  0
    4.3115   -5.5539   -0.0000 C   0  0  0  0  0  0  0  0  0  0  0  0
    1.5780   -5.5539   -0.0000 C   0  0  0  0  0  0  0  0  0  0  0  0
    5.6658   -6.3243   -0.0000 O   0  0  0  0  0  0  0  0  0  0  0  0
    4.2990   -3.9636   -0.0000 C   0  0  0  0  0  0  0  0  0  0  0  0
    0.1988   -6.3243   -0.0000 O   0  0  0  0  0  0  0  0  0  0  0  0
    1.5655   -3.9636   -0.0000 C   0  0  0  0  0  0  0  0  0  0  0  0
    6.7467   -5.6782   -0.0000 C   0  0  0  0  0  0  0  0  0  0  0  0
    2.9199   -3.1684   -0.0000 C   0  0  0  0  0  0  0  0  0  0  0  0
   -0.9070   -5.6782   -0.0000 C   0  0  0  0  0  0  0  0  0  0  0  0
  1  2  1  0  0  0  0
  2  3  1  0  0  0  0
  2  4  1  0  0  0  0
  2  5  1  0  0  0  0
  5  6  1  0  0  0  0
  6  7  2  0  0  0  0
  6  8  1  0  0  0  0
  7  9  1  0  0  0  0
  8 10  2  0  0  0  0
  9 11  2  0  0  0  0
 11 12  1  0  0  0  0
 12 13  1  0  0  0  0
 13 14  1  0  0  0  0
 13 15  1  0  0  0  0
 14 16  2  0  0  0  0
 14 17  1  0  0  0  0
 15 18  1  6  0  0  0
 15 19  1  0  0  0  0
 17 20  1  1  0  0  0
 18 21  2  0  0  0  0
 18 22  1  0  0  0  0
 21 23  1  0  0  0  0
 21 24  1  0  0  0  0
 22 25  1  0  0  0  0
 22 26  2  0  0  0  0
 23 27  1  0  0  0  0
 24 28  2  0  0  0  0
 25 29  1  0  0  0  0
 10 11  1  0  0  0  0
 17 19  1  0  0  0  0
 26 28  1  0  0  0  0
M  END
>  <MolRegNo>
1836631

>  <m>
=

>  <Value>
25000

>  <Unit>
nM

>  <Type>
IC50

>  <pValue>
4.6

>  <Ligand Efficiency>
0

>  <Binding Efficiency>
0

>  <Surface Efficiency>
0

>  <Assay Index>
913533

>  <Assay Category>


>  <Assay Organism>
Homo sapiens

>  <Target ID>
17045

>  <Target Name>
Cytochrome P450 3A4

>  <Target Organism>
Homo sapiens

>  <Target Description>
Target is a single protein chain

>  <Sequence Accession>
P08684

>  <Reference>
Bioorg Med Chem Lett 25 (9), 1884-1891 (2015)

>  <Pubmed ID>
25838147

>  <DOI>
10.1016/j.bmcl.2015.03.035

$$$$
1836632
Actelion Java MolfileCreator 1.0

 30 32  0  0  1  0  0  0  0  0999 V2000
    0.0000   -0.0000   -0.0000 F   0  0  0  0  0  0  0  0  0  0  0  0
    1.0814   -0.6215   -0.0000 C   0  0  0  0  0  0  0  0  0  0  0  0
    1.0689   -1.8768   -0.0000 F   0  0  0  0  0  0  0  0  0  0  0  0
   -0.0249   -1.2429   -0.0000 F   0  0  0  0  0  0  0  0  0  0  0  0
    2.4362    0.1864   -0.0000 O   0  0  0  0  0  0  0  0  0  0  0  0
    3.7910   -0.5842   -0.0000 C   0  0  0  0  0  0  0  0  0  0  0  0
    5.1458    0.2113   -0.0000 C   0  0  0  0  0  0  0  0  0  0  0  0
    3.7785   -2.1503   -0.0000 C   0  0  0  0  0  0  0  0  0  0  0  0
    6.5006   -0.5593   -0.0000 C   0  0  0  0  0  0  0  0  0  0  0  0
    5.1334   -2.9209   -0.0000 C   0  0  0  0  0  0  0  0  0  0  0  0
    6.4882   -2.1254   -0.0000 C   0  0  0  0  0  0  0  0  0  0  0  0
    7.8430   -2.9085   -0.0000 C   0  0  0  0  0  0  0  0  0  0  0  0
    7.8305   -4.4746   -0.0000 N   0  0  0  0  0  0  0  0  0  0  0  0
    6.5379   -5.3571   -0.0000 C   0  0  0  0  0  0  0  0  0  0  0  0
    9.0859   -5.3695   -0.0000 C   0  0  0  0  0  0  0  0  0  0  0  0
    5.3322   -4.9469   -0.0000 O   0  0  0  0  0  0  0  0  0  0  0  0
    7.0102   -6.8486   -0.0000 C   0  0  0  0  0  0  0  0  0  0  0  0
   10.5774   -4.8599   -0.0000 C   0  0  0  0  0  0  0  0  0  0  0  0
    8.5763   -6.8610   -0.0000 C   0  0  0  0  0  0  0  0  0  0  0  0
    6.0656   -8.1040   -0.0000 O   0  0  0  0  0  0  0  0  0  0  0  0
   11.0125   -3.3435   -0.0000 C   0  0  0  0  0  0  0  0  0  0  0  0
   11.6464   -5.9910   -0.0000 C   0  0  0  0  0  0  0  0  0  0  0  0
    6.5627   -9.2475   -0.0000 C   0  0  0  0  0  0  0  0  0  0  0  0
    9.9187   -2.1876   -0.0000 O   0  0  0  0  0  0  0  0  0  0  0  0
   12.5289   -2.9582   -0.0000 C   0  0  0  0  0  0  0  0  0  0  0  0
   11.1865   -7.4949   -0.0000 O   0  0  0  0  0  0  0  0  0  0  0  0
   13.1628   -5.6057   -0.0000 C   0  0  0  0  0  0  0  0  0  0  0  0
   10.2667   -0.9695   -0.0000 C   0  0  0  0  0  0  0  0  0  0  0  0
   13.6102   -4.0893   -0.0000 C   0  0  0  0  0  0  0  0  0  0  0  0
   12.0441   -8.4023   -0.0000 C   0  0  0  0  0  0  0  0  0  0  0  0
  1  2  1  0  0  0  0
  2  3  1  0  0  0  0
  2  4  1  0  0  0  0
  2  5  1  0  0  0  0
  5  6  1  0  0  0  0
  6  7  2  0  0  0  0
  6  8  1  0  0  0  0
  7  9  1  0  0  0  0
  8 10  2  0  0  0  0
  9 11  2  0  0  0  0
 11 12  1  0  0  0  0
 12 13  1  0  0  0  0
 13 14  1  0  0  0  0
 13 15  1  0  0  0  0
 14 16  2  0  0  0  0
 14 17  1  0  0  0  0
 15 18  1  6  0  0  0
 15 19  1  0  0  0  0
 17 20  1  6  0  0  0
 18 21  2  0  0  0  0
 18 22  1  0  0  0  0
 20 23  1  0  0  0  0
 21 24  1  0  0  0  0
 21 25  1  0  0  0  0
 22 26  1  0  0  0  0
 22 27  2  0  0  0  0
 24 28  1  0  0  0  0
 25 29  2  0  0  0  0
 26 30  1  0  0  0  0
 10 11  1  0  0  0  0
 17 19  1  0  0  0  0
 27 29  1  0  0  0  0
M  END
>  <MolRegNo>
1836632

>  <m>
=

>  <Value>
1400

>  <Unit>
nM

>  <Type>
IC50

>  <pValue>
5.85

>  <Ligand Efficiency>
0

>  <Binding Efficiency>
0

>  <Surface Efficiency>
0

>  <Assay Index>
913533

>  <Assay Category>


>  <Assay Organism>
Homo sapiens

>  <Target ID>
17045

>  <Target Name>
Cytochrome P450 3A4

>  <Target Organism>
Homo sapiens

>  <Target Description>
Target is a single protein chain

>  <Sequence Accession>
P08684

>  <Reference>
Bioorg Med Chem Lett 25 (9), 1884-1891 (2015)

>  <Pubmed ID>
25838147

>  <DOI>
10.1016/j.bmcl.2015.03.035

$$$$
1836641
Actelion Java MolfileCreator 1.0

 30 34  0  0  0  0  0  0  0  0999 V2000
    0.0000   -0.0000   -0.0000 O   0  0  0  0  0  0  0  0  0  0  0  0
   -1.1726   -0.3709   -0.0000 C   0  0  0  0  0  0  0  0  0  0  0  0
   -2.4051    0.5145   -0.0000 N   0  0  0  0  0  0  0  0  0  0  0  0
   -1.6632   -1.8068   -0.0000 C   0  0  0  0  0  0  0  0  0  0  0  0
   -3.6496   -0.3350   -0.0000 C   0  0  0  0  0  0  0  0  0  0  0  0
   -2.4171    2.0461   -0.0000 C   0  0  0  0  0  0  0  0  0  0  0  0
   -3.1949   -1.7949   -0.0000 C   0  0  0  0  0  0  0  0  0  0  0  0
   -5.0974    0.1556   -0.0000 C   0  0  0  0  0  0  0  0  0  0  0  0
   -3.7453    2.8239   -0.0000 C   0  0  0  0  0  0  0  0  0  0  0  0
   -6.1624   -0.9333   -0.0000 C   0  0  0  0  0  0  0  0  0  0  0  0
   -5.5282    1.6273   -0.0000 C   0  0  0  0  0  0  0  0  0  0  0  0
   -5.0735    2.0820   -0.0000 C   0  0  0  0  0  0  0  0  0  0  0  0
   -3.7572    4.3555   -0.0000 C   0  0  0  0  0  0  0  0  0  0  0  0
   -5.7555   -2.3812   -0.0000 O   0  0  0  0  0  0  0  0  0  0  0  0
   -7.6461   -0.5504   -0.0000 C   0  0  0  0  0  0  0  0  0  0  0  0
   -4.4872    2.7282   -0.0000 O   0  0  0  0  0  0  0  0  0  0  0  0
   -7.0119    2.0102   -0.0000 C   0  0  0  0  0  0  0  0  0  0  0  0
   -6.4017    2.8478   -0.0000 C   0  0  0  0  0  0  0  0  0  0  0  0
   -5.0854    5.1213   -0.0000 C   0  0  0  0  0  0  0  0  0  0  0  0
   -6.6171   -3.2427   -0.0000 C   0  0  0  0  0  0  0  0  0  0  0  0
   -8.0769    0.9214   -0.0000 C   0  0  0  0  0  0  0  0  0  0  0  0
   -4.8342    3.9128   -0.0000 C   0  0  0  0  0  0  0  0  0  0  0  0
   -6.4136    4.3795   -0.0000 C   0  0  0  0  0  0  0  0  0  0  0  0
   -7.8615    2.3932   -0.0000 C   0  0  0  0  0  0  0  0  0  0  0  0
   -7.8735    4.8581   -0.0000 O   0  0  0  0  0  0  0  0  0  0  0  0
   -8.7709    3.6376   -0.0000 C   0  0  0  0  0  0  0  0  0  0  0  0
   -8.4957    1.0171   -0.0000 C   0  0  0  0  0  0  0  0  0  0  0  0
  -10.2905    3.4940   -0.0000 C   0  0  0  0  0  0  0  0  0  0  0  0
  -10.0153    0.8735   -0.0000 C   0  0  0  0  0  0  0  0  0  0  0  0
  -10.9247    2.1179   -0.0000 C   0  0  0  0  0  0  0  0  0  0  0  0
  1  2  2  0  0  0  0
  2  3  1  0  0  0  0
  2  4  1  0  0  0  0
  3  5  1  0  0  0  0
  3  6  1  0  0  0  0
  4  7  1  0  0  0  0
  5  8  1  0  0  0  0
  6  9  1  0  0  0  0
  8 10  2  0  0  0  0
  8 11  1  0  0  0  0
  9 12  2  0  0  0  0
  9 13  1  0  0  0  0
 10 14  1  0  0  0  0
 10 15  1  0  0  0  0
 11 16  1  0  0  0  0
 11 17  2  0  0  0  0
 12 18  1  0  0  0  0
 13 19  2  0  0  0  0
 14 20  1  0  0  0  0
 15 21  2  0  0  0  0
 16 22  1  0  0  0  0
 18 23  2  0  0  0  0
 18 24  1  0  0  0  0
 23 25  1  0  0  0  0
 24 26  2  0  0  0  0
 24 27  1  0  0  0  0
 26 28  1  0  0  0  0
 27 29  2  0  0  0  0
 28 30  2  0  0  0  0
  5  7  1  0  0  0  0
 17 21  1  0  0  0  0
 19 23  1  0  0  0  0
 25 26  1  0  0  0  0
 29 30  1  0  0  0  0
M  END
>  <MolRegNo>
1836641

>  <m>
=

>  <Value>
6900

>  <Unit>
nM

>  <Type>
IC50

>  <pValue>
5.16

>  <Ligand Efficiency>
0

>  <Binding Efficiency>
0

>  <Surface Efficiency>
0

>  <Assay Index>
913533

>  <Assay Category>


>  <Assay Organism>
Homo sapiens

>  <Target ID>
17045

>  <Target Name>
Cytochrome P450 3A4

>  <Target Organism>
Homo sapiens

>  <Target Description>
Target is a single protein chain

>  <Sequence Accession>
P08684

>  <Reference>
Bioorg Med Chem Lett 25 (9), 1884-1891 (2015)

>  <Pubmed ID>
25838147

>  <DOI>
10.1016/j.bmcl.2015.03.035

$$$$
1836642
Actelion Java MolfileCreator 1.0

 31 35  0  0  1  0  0  0  0  0999 V2000
    0.0000   -0.0000   -0.0000 F   0  0  0  0  0  0  0  0  0  0  0  0
   -0.7214    0.9980   -0.0000 C   0  0  0  0  0  0  0  0  0  0  0  0
   -0.2525    2.4649   -0.0000 C   0  0  0  0  0  0  0  0  0  0  0  0
   -2.2605    1.0100   -0.0000 C   0  0  0  0  0  0  0  0  0  0  0  0
    0.9018    2.8617   -0.0000 O   0  0  0  0  0  0  0  0  0  0  0  0
   -1.4910    3.3547   -0.0000 N   0  0  0  0  0  0  0  0  0  0  0  0
   -2.7414    2.4769   -0.0000 C   0  0  0  0  0  0  0  0  0  0  0  0
   -1.5030    4.8937   -0.0000 C   0  0  0  0  0  0  0  0  0  0  0  0
   -4.1963    2.9699   -0.0000 C   0  0  0  0  0  0  0  0  0  0  0  0
   -2.8376    5.6753   -0.0000 C   0  0  0  0  0  0  0  0  0  0  0  0
   -5.2664    1.8757   -0.0000 C   0  0  0  0  0  0  0  0  0  0  0  0
   -4.6292    4.4488   -0.0000 C   0  0  0  0  0  0  0  0  0  0  0  0
   -4.1723    4.9298   -0.0000 C   0  0  0  0  0  0  0  0  0  0  0  0
   -2.8497    7.2143   -0.0000 C   0  0  0  0  0  0  0  0  0  0  0  0
   -4.8576    0.4208   -0.0000 O   0  0  0  0  0  0  0  0  0  0  0  0
   -6.7574    2.2605   -0.0000 C   0  0  0  0  0  0  0  0  0  0  0  0
   -3.5831    5.5550   -0.0000 O   0  0  0  0  0  0  0  0  0  0  0  0
   -6.1201    4.8336   -0.0000 C   0  0  0  0  0  0  0  0  0  0  0  0
   -5.5069    5.6993   -0.0000 C   0  0  0  0  0  0  0  0  0  0  0  0
   -4.1843    7.9838   -0.0000 C   0  0  0  0  0  0  0  0  0  0  0  0
   -5.7233   -0.4449   -0.0000 C   0  0  0  0  0  0  0  0  0  0  0  0
   -7.1903    3.7394   -0.0000 C   0  0  0  0  0  0  0  0  0  0  0  0
   -3.9318    6.7454   -0.0000 C   0  0  0  0  0  0  0  0  0  0  0  0
   -5.5189    7.2384   -0.0000 C   0  0  0  0  0  0  0  0  0  0  0  0
   -6.9738    5.2424   -0.0000 C   0  0  0  0  0  0  0  0  0  0  0  0
   -6.9859    7.7193   -0.0000 O   0  0  0  0  0  0  0  0  0  0  0  0
   -7.8876    6.4929   -0.0000 C   0  0  0  0  0  0  0  0  0  0  0  0
   -7.6111    3.8597   -0.0000 C   0  0  0  0  0  0  0  0  0  0  0  0
   -9.4147    6.3486   -0.0000 C   0  0  0  0  0  0  0  0  0  0  0  0
   -9.1381    3.7154   -0.0000 C   0  0  0  0  0  0  0  0  0  0  0  0
  -10.0519    4.9658   -0.0000 C   0  0  0  0  0  0  0  0  0  0  0  0
  2  1  1  1  0  0  0
  2  3  1  0  0  0  0
  2  4  1  0  0  0  0
  3  5  2  0  0  0  0
  3  6  1  0  0  0  0
  4  7  1  0  0  0  0
  6  8  1  0  0  0  0
  7  9  1  1  0  0  0
  8 10  1  0  0  0  0
  9 11  2  0  0  0  0
  9 12  1  0  0  0  0
 10 13  2  0  0  0  0
 10 14  1  0  0  0  0
 11 15  1  0  0  0  0
 11 16  1  0  0  0  0
 12 17  1  0  0  0  0
 12 18  2  0  0  0  0
 13 19  1  0  0  0  0
 14 20  2  0  0  0  0
 15 21  1  0  0  0  0
 16 22  2  0  0  0  0
 17 23  1  0  0  0  0
 19 24  2  0  0  0  0
 19 25  1  0  0  0  0
 24 26  1  0  0  0  0
 25 27  2  0  0  0  0
 25 28  1  0  0  0  0
 27 29  1  0  0  0  0
 28 30  2  0  0  0  0
 29 31  2  0  0  0  0
  6  7  1  0  0  0  0
 18 22  1  0  0  0  0
 20 24  1  0  0  0  0
 26 27  1  0  0  0  0
 30 31  1  0  0  0  0
M  END
>  <MolRegNo>
1836642

>  <m>
=

>  <Value>
8800

>  <Unit>
nM

>  <Type>
IC50

>  <pValue>
5.06

>  <Ligand Efficiency>
0

>  <Binding Efficiency>
0

>  <Surface Efficiency>
0

>  <Assay Index>
913533

>  <Assay Category>


>  <Assay Organism>
Homo sapiens

>  <Target ID>
17045

>  <Target Name>
Cytochrome P450 3A4

>  <Target Organism>
Homo sapiens

>  <Target Description>
Target is a single protein chain

>  <Sequence Accession>
P08684

>  <Reference>
Bioorg Med Chem Lett 25 (9), 1884-1891 (2015)

>  <Pubmed ID>
25838147

>  <DOI>
10.1016/j.bmcl.2015.03.035

$$$$
1836644
Actelion Java MolfileCreator 1.0

 31 35  0  0  1  0  0  0  0  0999 V2000
    0.0000   -0.0000   -0.0000 O   0  0  0  0  0  0  0  0  0  0  0  0
   -1.1796   -0.3731   -0.0000 C   0  0  0  0  0  0  0  0  0  0  0  0
   -2.4193    0.5176   -0.0000 N   0  0  0  0  0  0  0  0  0  0  0  0
   -1.6731   -1.8175   -0.0000 C   0  0  0  0  0  0  0  0  0  0  0  0
   -3.6711   -0.3370   -0.0000 C   0  0  0  0  0  0  0  0  0  0  0  0
   -2.4313    2.0582   -0.0000 C   0  0  0  0  0  0  0  0  0  0  0  0
   -0.9749   -2.7924   -0.0000 O   0  0  0  0  0  0  0  0  0  0  0  0
   -3.2137   -1.8055   -0.0000 C   0  0  0  0  0  0  0  0  0  0  0  0
   -5.1275    0.1565   -0.0000 C   0  0  0  0  0  0  0  0  0  0  0  0
   -3.7674    2.8406   -0.0000 C   0  0  0  0  0  0  0  0  0  0  0  0
   -6.1987   -0.9388   -0.0000 C   0  0  0  0  0  0  0  0  0  0  0  0
   -5.5608    1.6369   -0.0000 C   0  0  0  0  0  0  0  0  0  0  0  0
   -5.1034    2.0943   -0.0000 C   0  0  0  0  0  0  0  0  0  0  0  0
   -3.7794    4.3812   -0.0000 C   0  0  0  0  0  0  0  0  0  0  0  0
   -5.7895   -2.3952   -0.0000 O   0  0  0  0  0  0  0  0  0  0  0  0
   -7.6912   -0.5537   -0.0000 C   0  0  0  0  0  0  0  0  0  0  0  0
   -4.5136    2.7443   -0.0000 O   0  0  0  0  0  0  0  0  0  0  0  0
   -7.0533    2.0221   -0.0000 C   0  0  0  0  0  0  0  0  0  0  0  0
   -6.4394    2.8647   -0.0000 C   0  0  0  0  0  0  0  0  0  0  0  0
   -5.1154    5.1516   -0.0000 C   0  0  0  0  0  0  0  0  0  0  0  0
   -6.6561   -3.2619   -0.0000 C   0  0  0  0  0  0  0  0  0  0  0  0
   -8.1245    0.9268   -0.0000 C   0  0  0  0  0  0  0  0  0  0  0  0
   -4.8627    3.9359   -0.0000 C   0  0  0  0  0  0  0  0  0  0  0  0
   -6.4515    4.4053   -0.0000 C   0  0  0  0  0  0  0  0  0  0  0  0
   -7.9079    2.4073   -0.0000 C   0  0  0  0  0  0  0  0  0  0  0  0
   -7.9199    4.8868   -0.0000 O   0  0  0  0  0  0  0  0  0  0  0  0
   -8.8226    3.6590   -0.0000 C   0  0  0  0  0  0  0  0  0  0  0  0
   -8.5458    1.0231   -0.0000 C   0  0  0  0  0  0  0  0  0  0  0  0
  -10.3513    3.5146   -0.0000 C   0  0  0  0  0  0  0  0  0  0  0  0
  -10.0744    0.8787   -0.0000 C   0  0  0  0  0  0  0  0  0  0  0  0
  -10.9892    2.1304   -0.0000 C   0  0  0  0  0  0  0  0  0  0  0  0
  1  2  2  0  0  0  0
  2  3  1  0  0  0  0
  2  4  1  0  0  0  0
  3  5  1  0  0  0  0
  3  6  1  0  0  0  0
  4  7  1  6  0  0  0
  4  8  1  0  0  0  0
  5  9  1  1  0  0  0
  6 10  1  0  0  0  0
  9 11  2  0  0  0  0
  9 12  1  0  0  0  0
 10 13  2  0  0  0  0
 10 14  1  0  0  0  0
 11 15  1  0  0  0  0
 11 16  1  0  0  0  0
 12 17  1  0  0  0  0
 12 18  2  0  0  0  0
 13 19  1  0  0  0  0
 14 20  2  0  0  0  0
 15 21  1  0  0  0  0
 16 22  2  0  0  0  0
 17 23  1  0  0  0  0
 19 24  2  0  0  0  0
 19 25  1  0  0  0  0
 24 26  1  0  0  0  0
 25 27  2  0  0  0  0
 25 28  1  0  0  0  0
 27 29  1  0  0  0  0
 28 30  2  0  0  0  0
 29 31  2  0  0  0  0
  5  8  1  0  0  0  0
 18 22  1  0  0  0  0
 20 24  1  0  0  0  0
 26 27  1  0  0  0  0
 30 31  1  0  0  0  0
M  END
>  <MolRegNo>
1836644

>  <m>
=

>  <Value>
18000

>  <Unit>
nM

>  <Type>
IC50

>  <pValue>
4.75

>  <Ligand Efficiency>
0

>  <Binding Efficiency>
0

>  <Surface Efficiency>
0

>  <Assay Index>
913533

>  <Assay Category>


>  <Assay Organism>
Homo sapiens

>  <Target ID>
17045

>  <Target Name>
Cytochrome P450 3A4

>  <Target Organism>
Homo sapiens

>  <Target Description>
Target is a single protein chain

>  <Sequence Accession>
P08684

>  <Reference>
Bioorg Med Chem Lett 25 (9), 1884-1891 (2015)

>  <Pubmed ID>
25838147

>  <DOI>
10.1016/j.bmcl.2015.03.035

$$$$
1836645
Actelion Java MolfileCreator 1.0

 30 34  0  0  1  0  0  0  0  0999 V2000
    0.0000   -0.0000   -0.0000 F   0  0  0  0  0  0  0  0  0  0  0  0
   -0.8707   -0.8707   -0.0000 C   0  0  0  0  0  0  0  0  0  0  0  0
   -0.4595   -2.3338   -0.0000 C   0  0  0  0  0  0  0  0  0  0  0  0
   -2.3701   -0.4837   -0.0000 C   0  0  0  0  0  0  0  0  0  0  0  0
   -1.5357   -3.4343   -0.0000 C   0  0  0  0  0  0  0  0  0  0  0  0
    0.9795   -2.8054   -0.0000 C   0  0  0  0  0  0  0  0  0  0  0  0
   -3.4463   -1.5720   -0.0000 C   0  0  0  0  0  0  0  0  0  0  0  0
   -1.1246   -4.8974   -0.0000 O   0  0  0  0  0  0  0  0  0  0  0  0
   -3.0352   -3.0473   -0.0000 C   0  0  0  0  0  0  0  0  0  0  0  0
    2.2129   -1.9227   -0.0000 N   0  0  0  0  0  0  0  0  0  0  0  0
    1.4390   -4.2565   -0.0000 C   0  0  0  0  0  0  0  0  0  0  0  0
   -1.9953   -5.7681   -0.0000 C   0  0  0  0  0  0  0  0  0  0  0  0
    3.4343   -2.7934   -0.0000 C   0  0  0  0  0  0  0  0  0  0  0  0
    2.2008   -0.3749   -0.0000 C   0  0  0  0  0  0  0  0  0  0  0  0
    2.9627   -4.2445   -0.0000 C   0  0  0  0  0  0  0  0  0  0  0  0
    4.5951   -2.3943   -0.0000 O   0  0  0  0  0  0  0  0  0  0  0  0
    0.8586    0.4111   -0.0000 C   0  0  0  0  0  0  0  0  0  0  0  0
    3.6640   -5.2239   -0.0000 F   0  0  0  0  0  0  0  0  0  0  0  0
   -0.4837   -0.3386   -0.0000 C   0  0  0  0  0  0  0  0  0  0  0  0
    0.8465    1.9590   -0.0000 C   0  0  0  0  0  0  0  0  0  0  0  0
   -1.8260    0.4353   -0.0000 C   0  0  0  0  0  0  0  0  0  0  0  0
   -0.4958    2.7329   -0.0000 C   0  0  0  0  0  0  0  0  0  0  0  0
   -1.8381    1.9832   -0.0000 C   0  0  0  0  0  0  0  0  0  0  0  0
   -3.3012   -0.0242   -0.0000 C   0  0  0  0  0  0  0  0  0  0  0  0
   -3.3133    2.4669   -0.0000 O   0  0  0  0  0  0  0  0  0  0  0  0
   -4.2203    1.2334   -0.0000 C   0  0  0  0  0  0  0  0  0  0  0  0
   -3.9421   -1.4148   -0.0000 C   0  0  0  0  0  0  0  0  0  0  0  0
   -5.7560    1.0883   -0.0000 C   0  0  0  0  0  0  0  0  0  0  0  0
   -5.4779   -1.5599   -0.0000 C   0  0  0  0  0  0  0  0  0  0  0  0
   -6.3969   -0.3023   -0.0000 C   0  0  0  0  0  0  0  0  0  0  0  0
  1  2  1  0  0  0  0
  2  3  2  0  0  0  0
  2  4  1  0  0  0  0
  3  5  1  0  0  0  0
  6  3  1  1  0  0  0
  4  7  2  0  0  0  0
  5  8  1  0  0  0  0
  5  9  2  0  0  0  0
  6 10  1  0  0  0  0
  6 11  1  0  0  0  0
  8 12  1  0  0  0  0
 10 13  1  0  0  0  0
 10 14  1  0  0  0  0
 11 15  1  0  0  0  0
 13 16  2  0  0  0  0
 14 17  1  0  0  0  0
 15 18  1  1  0  0  0
 17 19  2  0  0  0  0
 17 20  1  0  0  0  0
 19 21  1  0  0  0  0
 20 22  2  0  0  0  0
 21 23  2  0  0  0  0
 21 24  1  0  0  0  0
 23 25  1  0  0  0  0
 24 26  2  0  0  0  0
 24 27  1  0  0  0  0
 26 28  1  0  0  0  0
 27 29  2  0  0  0  0
 28 30  2  0  0  0  0
  7  9  1  0  0  0  0
 13 15  1  0  0  0  0
 22 23  1  0  0  0  0
 25 26  1  0  0  0  0
 29 30  1  0  0  0  0
M  END
>  <MolRegNo>
1836645

>  <m>
=

>  <Value>
21000

>  <Unit>
nM

>  <Type>
IC50

>  <pValue>
4.68

>  <Ligand Efficiency>
0

>  <Binding Efficiency>
0

>  <Surface Efficiency>
0

>  <Assay Index>
913533

>  <Assay Category>


>  <Assay Organism>
Homo sapiens

>  <Target ID>
17045

>  <Target Name>
Cytochrome P450 3A4

>  <Target Organism>
Homo sapiens

>  <Target Description>
Target is a single protein chain

>  <Sequence Accession>
P08684

>  <Reference>
Bioorg Med Chem Lett 25 (9), 1884-1891 (2015)

>  <Pubmed ID>
25838147

>  <DOI>
10.1016/j.bmcl.2015.03.035

$$$$
1836647
Actelion Java MolfileCreator 1.0

 30 34  0  0  0  0  0  0  0  0999 V2000
    0.0000   -0.0000   -0.0000 F   0  0  0  0  0  0  0  0  0  0  0  0
    0.3166   -1.1676   -0.0000 C   0  0  0  0  0  0  0  0  0  0  0  0
   -0.7718   -2.2561   -0.0000 C   0  0  0  0  0  0  0  0  0  0  0  0
    1.7811   -1.5238   -0.0000 C   0  0  0  0  0  0  0  0  0  0  0  0
   -0.3760   -3.7008   -0.0000 C   0  0  0  0  0  0  0  0  0  0  0  0
   -2.2561   -1.7415   -0.0000 C   0  0  0  0  0  0  0  0  0  0  0  0
    2.1769   -2.9883   -0.0000 C   0  0  0  0  0  0  0  0  0  0  0  0
   -1.4645   -4.7892   -0.0000 O   0  0  0  0  0  0  0  0  0  0  0  0
    1.0885   -4.0570   -0.0000 C   0  0  0  0  0  0  0  0  0  0  0  0
   -3.5227   -2.5925   -0.0000 N   0  0  0  0  0  0  0  0  0  0  0  0
   -2.7508   -0.2573   -0.0000 C   0  0  0  0  0  0  0  0  0  0  0  0
   -1.1478   -5.9569   -0.0000 C   0  0  0  0  0  0  0  0  0  0  0  0
   -4.7892   -1.6822   -0.0000 C   0  0  0  0  0  0  0  0  0  0  0  0
   -3.5425   -4.1164   -0.0000 C   0  0  0  0  0  0  0  0  0  0  0  0
   -4.3143   -0.2375   -0.0000 C   0  0  0  0  0  0  0  0  0  0  0  0
   -5.9767   -2.0384   -0.0000 O   0  0  0  0  0  0  0  0  0  0  0  0
   -4.8882   -4.8684   -0.0000 C   0  0  0  0  0  0  0  0  0  0  0  0
   -5.0465    0.7718   -0.0000 O   0  0  0  0  0  0  0  0  0  0  0  0
   -6.1350   -4.1164   -0.0000 C   0  0  0  0  0  0  0  0  0  0  0  0
   -4.9080   -6.3131   -0.0000 C   0  0  0  0  0  0  0  0  0  0  0  0
   -7.4411   -4.8288   -0.0000 C   0  0  0  0  0  0  0  0  0  0  0  0
   -6.1746   -7.0255   -0.0000 C   0  0  0  0  0  0  0  0  0  0  0  0
   -7.4609   -6.2735   -0.0000 C   0  0  0  0  0  0  0  0  0  0  0  0
   -9.9743   -4.8090   -0.0000 C   0  0  0  0  0  0  0  0  0  0  0  0
   -8.7473   -6.9860   -0.0000 O   0  0  0  0  0  0  0  0  0  0  0  0
   -9.9941   -6.2537   -0.0000 C   0  0  0  0  0  0  0  0  0  0  0  0
  -11.2607   -4.0570   -0.0000 C   0  0  0  0  0  0  0  0  0  0  0  0
  -11.3002   -6.9662   -0.0000 C   0  0  0  0  0  0  0  0  0  0  0  0
  -12.5668   -4.7694   -0.0000 C   0  0  0  0  0  0  0  0  0  0  0  0
  -12.6064   -6.2141   -0.0000 C   0  0  0  0  0  0  0  0  0  0  0  0
  1  2  1  0  0  0  0
  2  3  2  0  0  0  0
  2  4  1  0  0  0  0
  3  5  1  0  0  0  0
  3  6  1  0  0  0  0
  4  7  2  0  0  0  0
  5  8  1  0  0  0  0
  5  9  2  0  0  0  0
  6 10  1  0  0  0  0
  6 11  1  0  0  0  0
  8 12  1  0  0  0  0
 10 13  1  0  0  0  0
 10 14  1  0  0  0  0
 11 15  1  0  0  0  0
 13 16  2  0  0  0  0
 14 17  1  0  0  0  0
 15 18  1  1  0  0  0
 17 19  2  0  0  0  0
 17 20  1  0  0  0  0
 19 21  1  0  0  0  0
 20 22  2  0  0  0  0
 21 23  2  0  0  0  0
 21 24  1  0  0  0  0
 23 25  1  0  0  0  0
 24 26  2  0  0  0  0
 24 27  1  0  0  0  0
 26 28  1  0  0  0  0
 27 29  2  0  0  0  0
 28 30  2  0  0  0  0
  7  9  1  0  0  0  0
 13 15  1  0  0  0  0
 22 23  1  0  0  0  0
 25 26  1  0  0  0  0
 29 30  1  0  0  0  0
M  END
>  <MolRegNo>
1836647

>  <m>
=

>  <Value>
46000

>  <Unit>
nM

>  <Type>
IC50

>  <pValue>
4.34

>  <Ligand Efficiency>
0

>  <Binding Efficiency>
0

>  <Surface Efficiency>
0

>  <Assay Index>
913533

>  <Assay Category>


>  <Assay Organism>
Homo sapiens

>  <Target ID>
17045

>  <Target Name>
Cytochrome P450 3A4

>  <Target Organism>
Homo sapiens

>  <Target Description>
Target is a single protein chain

>  <Sequence Accession>
P08684

>  <Reference>
Bioorg Med Chem Lett 25 (9), 1884-1891 (2015)

>  <Pubmed ID>
25838147

>  <DOI>
10.1016/j.bmcl.2015.03.035

$$$$
1070591
Actelion Java MolfileCreator 1.0

 17 18  0  0  0  0  0  0  0  0999 V2000
    0.0000   -0.0000   -0.0000 Cl  0  0  0  0  0  0  0  0  0  0  0  0
   -0.7963   -1.2836   -0.0000 C   0  0  0  0  0  0  0  0  0  0  0  0
   -0.0832   -2.5909   -0.0000 C   0  0  0  0  0  0  0  0  0  0  0  0
   -2.3176   -1.2479   -0.0000 C   0  0  0  0  0  0  0  0  0  0  0  0
    1.4024   -2.6028   -0.0000 N   0  0  0  0  0  0  0  0  0  0  0  0
   -0.8676   -3.8626   -0.0000 C   0  0  0  0  0  0  0  0  0  0  0  0
   -3.1139   -2.5315   -0.0000 N   0  0  0  0  0  0  0  0  0  0  0  0
    2.1631   -1.3074   -0.0000 C   0  0  0  0  0  0  0  0  0  0  0  0
    2.1274   -3.9102   -0.0000 C   0  0  0  0  0  0  0  0  0  0  0  0
   -0.1426   -5.1700   -0.0000 Cl  0  0  0  0  0  0  0  0  0  0  0  0
   -2.3889   -3.8270   -0.0000 C   0  0  0  0  0  0  0  0  0  0  0  0
    3.6487   -1.3192   -0.0000 C   0  0  0  0  0  0  0  0  0  0  0  0
    3.6249   -3.9339   -0.0000 C   0  0  0  0  0  0  0  0  0  0  0  0
    4.3737   -2.6266   -0.0000 C   0  0  0  0  0  0  0  0  0  0  0  0
    5.8712   -2.6385   -0.0000 C   0  0  0  0  0  0  0  0  0  0  0  0
    6.5962   -3.9458   -0.0000 O   0  0  0  0  0  0  0  0  0  0  0  0
    6.6318   -1.3311   -0.0000 N   0  0  0  0  0  0  0  0  0  0  0  0
  1  2  1  0  0  0  0
  2  3  2  0  0  0  0
  2  4  1  0  0  0  0
  3  5  1  0  0  0  0
  3  6  1  0  0  0  0
  4  7  2  0  0  0  0
  5  8  1  0  0  0  0
  5  9  1  0  0  0  0
  6 10  1  0  0  0  0
  6 11  2  0  0  0  0
  8 12  1  0  0  0  0
  9 13  1  0  0  0  0
 12 14  1  0  0  0  0
 14 15  1  0  0  0  0
 15 16  2  0  0  0  0
 15 17  1  0  0  0  0
  7 11  1  0  0  0  0
 13 14  1  0  0  0  0
M  END
>  <MolRegNo>
1070591

>  <m>
=

>  <Value>
7000

>  <Unit>
nM

>  <Type>
IC50

>  <pValue>
5.16

>  <Ligand Efficiency>
0

>  <Binding Efficiency>
0

>  <Surface Efficiency>
0

>  <Assay Index>
914700

>  <Assay Category>


>  <Assay Organism>
Homo sapiens

>  <Target ID>
17045

>  <Target Name>
Cytochrome P450 3A4

>  <Target Organism>
Homo sapiens

>  <Target Description>
Target is a single protein chain

>  <Sequence Accession>
P08684

>  <Reference>
J Med Chem 58 (4), 1717-1735 (2015)

>  <Pubmed ID>
25680029

>  <DOI>
10.1021/jm501436m

$$$$
1834947
Actelion Java MolfileCreator 1.0

 30 34  0  0  0  0  0  0  0  0999 V2000
    0.0000   -0.0000   -0.0000 Cl  0  0  0  0  0  0  0  0  0  0  0  0
   -0.9967    0.7293   -0.0000 C   0  0  0  0  0  0  0  0  0  0  0  0
   -2.3946    0.1337   -0.0000 C   0  0  0  0  0  0  0  0  0  0  0  0
   -0.8509    2.2487   -0.0000 C   0  0  0  0  0  0  0  0  0  0  0  0
   -2.5648   -1.3614   -0.0000 N   0  0  0  0  0  0  0  0  0  0  0  0
   -3.6344    1.0454   -0.0000 C   0  0  0  0  0  0  0  0  0  0  0  0
   -2.0907    3.1604   -0.0000 N   0  0  0  0  0  0  0  0  0  0  0  0
   -1.3128   -2.2730   -0.0000 C   0  0  0  0  0  0  0  0  0  0  0  0
   -3.9383   -1.9692   -0.0000 C   0  0  0  0  0  0  0  0  0  0  0  0
   -5.0323    0.4497   -0.0000 C   0  0  0  0  0  0  0  0  0  0  0  0
   -3.4886    2.5648   -0.0000 C   0  0  0  0  0  0  0  0  0  0  0  0
   -1.4951   -3.7681   -0.0000 C   0  0  0  0  0  0  0  0  0  0  0  0
   -4.0963   -3.5007   -0.0000 C   0  0  0  0  0  0  0  0  0  0  0  0
   -5.2146   -1.0454   -0.0000 C   0  0  0  0  0  0  0  0  0  0  0  0
   -6.2721    1.3614   -0.0000 C   0  0  0  0  0  0  0  0  0  0  0  0
   -2.9051   -4.3759   -0.0000 C   0  0  0  0  0  0  0  0  0  0  0  0
   -6.6125   -1.6410   -0.0000 C   0  0  0  0  0  0  0  0  0  0  0  0
   -7.6700    0.7658   -0.0000 C   0  0  0  0  0  0  0  0  0  0  0  0
   -1.4829   -4.8378   -0.0000 C   0  0  0  0  0  0  0  0  0  0  0  0
   -3.8046   -5.5914   -0.0000 C   0  0  0  0  0  0  0  0  0  0  0  0
   -7.8523   -0.7293   -0.0000 C   0  0  0  0  0  0  0  0  0  0  0  0
   -0.5105   -4.1206   -0.0000 O   0  0  0  0  0  0  0  0  0  0  0  0
   -1.4951   -6.3086   -0.0000 N   0  0  0  0  0  0  0  0  0  0  0  0
   -2.9294   -6.8070   -0.0000 C   0  0  0  0  0  0  0  0  0  0  0  0
   -9.2502   -1.3249   -0.0000 N   0  0  0  0  0  0  0  0  0  0  0  0
   -9.4325   -2.8200   -0.0000 C   0  0  0  0  0  0  0  0  0  0  0  0
  -10.4779   -0.4133   -0.0000 C   0  0  0  0  0  0  0  0  0  0  0  0
  -10.8304   -3.4156   -0.0000 C   0  0  0  0  0  0  0  0  0  0  0  0
  -11.8757   -1.0089   -0.0000 C   0  0  0  0  0  0  0  0  0  0  0  0
  -12.0580   -2.5040   -0.0000 O   0  0  0  0  0  0  0  0  0  0  0  0
  1  2  1  0  0  0  0
  2  3  2  0  0  0  0
  2  4  1  0  0  0  0
  3  5  1  0  0  0  0
  3  6  1  0  0  0  0
  4  7  2  0  0  0  0
  5  8  1  0  0  0  0
  5  9  1  0  0  0  0
  6 10  1  0  0  0  0
  6 11  2  0  0  0  0
  8 12  1  0  0  0  0
  9 13  1  0  0  0  0
 10 14  2  0  0  0  0
 10 15  1  0  0  0  0
 12 16  1  0  0  0  0
 14 17  1  0  0  0  0
 15 18  2  0  0  0  0
 16 19  1  0  0  0  0
 16 20  1  0  0  0  0
 17 21  2  0  0  0  0
 19 22  2  0  0  0  0
 19 23  1  0  0  0  0
 20 24  1  0  0  0  0
 21 25  1  0  0  0  0
 25 26  1  0  0  0  0
 25 27  1  0  0  0  0
 26 28  1  0  0  0  0
 27 29  1  0  0  0  0
 28 30  1  0  0  0  0
  7 11  1  0  0  0  0
 13 16  1  0  0  0  0
 18 21  1  0  0  0  0
 23 24  1  0  0  0  0
 29 30  1  0  0  0  0
M  END
>  <MolRegNo>
1834947

>  <m>
=

>  <Value>
2100

>  <Unit>
nM

>  <Type>
IC50

>  <pValue>
5.68

>  <Ligand Efficiency>
0

>  <Binding Efficiency>
0

>  <Surface Efficiency>
0

>  <Assay Index>
914700

>  <Assay Category>


>  <Assay Organism>
Homo sapiens

>  <Target ID>
17045

>  <Target Name>
Cytochrome P450 3A4

>  <Target Organism>
Homo sapiens

>  <Target Description>
Target is a single protein chain

>  <Sequence Accession>
P08684

>  <Reference>
J Med Chem 58 (4), 1717-1735 (2015)

>  <Pubmed ID>
25680029

>  <DOI>
10.1021/jm501436m

$$$$
1841444
Actelion Java MolfileCreator 1.0

 25 28  0  0  0  0  0  0  0  0999 V2000
    0.0000   -0.0000   -0.0000 S   0  0  0  0  0  0  0  0  0  0  0  0
    1.4826   -0.3524   -0.0000 C   0  0  0  0  0  0  0  0  0  0  0  0
   -0.8264   -1.3003   -0.0000 C   0  0  0  0  0  0  0  0  0  0  0  0
    1.5920   -1.8836   -0.0000 N   0  0  0  0  0  0  0  0  0  0  0  0
    2.4062    0.4618   -0.0000 C   0  0  0  0  0  0  0  0  0  0  0  0
    0.1701   -2.4427   -0.0000 C   0  0  0  0  0  0  0  0  0  0  0  0
   -0.3160   -3.9010   -0.0000 C   0  0  0  0  0  0  0  0  0  0  0  0
    0.5712   -5.1041   -0.0000 N   0  0  0  0  0  0  0  0  0  0  0  0
   -1.7864   -4.3627   -0.0000 N   0  0  0  0  0  0  0  0  0  0  0  0
   -0.3403   -6.3436   -0.0000 N   0  0  0  0  0  0  0  0  0  0  0  0
   -1.7986   -5.8940   -0.0000 C   0  0  0  0  0  0  0  0  0  0  0  0
   -3.1353   -3.5607   -0.0000 C   0  0  0  0  0  0  0  0  0  0  0  0
   -3.1475   -6.6717   -0.0000 C   0  0  0  0  0  0  0  0  0  0  0  0
   -4.4964   -4.3384   -0.0000 C   0  0  0  0  0  0  0  0  0  0  0  0
   -4.5086   -5.8697   -0.0000 N   0  0  0  0  0  0  0  0  0  0  0  0
   -3.1597   -7.8991   -0.0000 C   0  0  0  0  0  0  0  0  0  0  0  0
   -5.8697   -6.6231   -0.0000 C   0  0  0  0  0  0  0  0  0  0  0  0
   -5.8940   -7.8505   -0.0000 O   0  0  0  0  0  0  0  0  0  0  0  0
   -7.2186   -5.8332   -0.0000 C   0  0  0  0  0  0  0  0  0  0  0  0
   -8.5797   -6.5745   -0.0000 C   0  0  0  0  0  0  0  0  0  0  0  0
   -7.2186   -4.2777   -0.0000 C   0  0  0  0  0  0  0  0  0  0  0  0
   -9.9164   -5.7724   -0.0000 C   0  0  0  0  0  0  0  0  0  0  0  0
   -8.5554   -3.4756   -0.0000 C   0  0  0  0  0  0  0  0  0  0  0  0
   -9.9164   -4.2169   -0.0000 C   0  0  0  0  0  0  0  0  0  0  0  0
  -10.9859   -3.5728   -0.0000 F   0  0  0  0  0  0  0  0  0  0  0  0
  1  2  1  0  0  0  0
  1  3  1  0  0  0  0
  2  4  2  0  0  0  0
  2  5  1  0  0  0  0
  3  6  2  0  0  0  0
  6  7  1  0  0  0  0
  7  8  2  0  0  0  0
  7  9  1  0  0  0  0
  8 10  1  0  0  0  0
  9 11  1  0  0  0  0
  9 12  1  0  0  0  0
 11 13  1  0  0  0  0
 12 14  1  0  0  0  0
 13 15  1  0  0  0  0
 13 16  1  6  0  0  0
 15 17  1  0  0  0  0
 17 18  2  0  0  0  0
 17 19  1  0  0  0  0
 19 20  2  0  0  0  0
 19 21  1  0  0  0  0
 20 22  1  0  0  0  0
 21 23  2  0  0  0  0
 22 24  2  0  0  0  0
 24 25  1  0  0  0  0
  4  6  1  0  0  0  0
 10 11  2  0  0  0  0
 14 15  1  0  0  0  0
 23 24  1  0  0  0  0
M  END
>  <MolRegNo>
1841444

>  <m>
=

>  <Value>
63000

>  <Unit>
nM

>  <Type>
IC50

>  <pValue>
4.2

>  <Ligand Efficiency>
0

>  <Binding Efficiency>
0

>  <Surface Efficiency>
0

>  <Assay Index>
921239

>  <Assay Category>


>  <Assay Organism>
Homo sapiens

>  <Target ID>
17045

>  <Target Name>
Cytochrome P450 3A4

>  <Target Organism>
Homo sapiens

>  <Target Description>
Target is a single protein chain

>  <Sequence Accession>
P08684

>  <Reference>
J Med Chem 58 (7), 3060-3082 (2015)

>  <Pubmed ID>
25738882

>  <DOI>
10.1021/jm5017413

$$$$
1841445
Actelion Java MolfileCreator 1.0

 30 34  0  0  0  0  0  0  0  0999 V2000
    0.0000   -0.0000   -0.0000 S   0  0  0  0  0  0  0  0  0  0  0  0
    1.4662   -0.3485   -0.0000 C   0  0  0  0  0  0  0  0  0  0  0  0
   -0.8172   -1.2860   -0.0000 C   0  0  0  0  0  0  0  0  0  0  0  0
    1.5744   -1.8628   -0.0000 N   0  0  0  0  0  0  0  0  0  0  0  0
    2.6200    0.6490   -0.0000 C   0  0  0  0  0  0  0  0  0  0  0  0
    0.1683   -2.4157   -0.0000 C   0  0  0  0  0  0  0  0  0  0  0  0
    4.0742    0.2524   -0.0000 C   0  0  0  0  0  0  0  0  0  0  0  0
    2.2114    2.1393   -0.0000 C   0  0  0  0  0  0  0  0  0  0  0  0
   -0.3125   -3.8579   -0.0000 C   0  0  0  0  0  0  0  0  0  0  0  0
    5.1439    1.3340   -0.0000 C   0  0  0  0  0  0  0  0  0  0  0  0
    3.2810    3.2209   -0.0000 C   0  0  0  0  0  0  0  0  0  0  0  0
    0.5649   -5.0477   -0.0000 N   0  0  0  0  0  0  0  0  0  0  0  0
   -1.7667   -4.3146   -0.0000 N   0  0  0  0  0  0  0  0  0  0  0  0
    4.7472    2.8243   -0.0000 C   0  0  0  0  0  0  0  0  0  0  0  0
   -0.3365   -6.2736   -0.0000 N   0  0  0  0  0  0  0  0  0  0  0  0
   -1.7787   -5.8289   -0.0000 C   0  0  0  0  0  0  0  0  0  0  0  0
   -3.1007   -3.5214   -0.0000 C   0  0  0  0  0  0  0  0  0  0  0  0
   -3.1128   -6.5981   -0.0000 C   0  0  0  0  0  0  0  0  0  0  0  0
   -4.4468   -4.2905   -0.0000 C   0  0  0  0  0  0  0  0  0  0  0  0
   -4.4588   -5.8049   -0.0000 N   0  0  0  0  0  0  0  0  0  0  0  0
   -3.1248   -7.8119   -0.0000 C   0  0  0  0  0  0  0  0  0  0  0  0
   -5.8049   -6.5500   -0.0000 C   0  0  0  0  0  0  0  0  0  0  0  0
   -5.8289   -7.7639   -0.0000 O   0  0  0  0  0  0  0  0  0  0  0  0
   -7.1389   -5.7688   -0.0000 C   0  0  0  0  0  0  0  0  0  0  0  0
   -8.4850   -6.5019   -0.0000 C   0  0  0  0  0  0  0  0  0  0  0  0
   -7.1389   -4.2305   -0.0000 C   0  0  0  0  0  0  0  0  0  0  0  0
   -9.8070   -5.7087   -0.0000 C   0  0  0  0  0  0  0  0  0  0  0  0
   -8.4609   -3.4372   -0.0000 C   0  0  0  0  0  0  0  0  0  0  0  0
   -9.8070   -4.1704   -0.0000 C   0  0  0  0  0  0  0  0  0  0  0  0
  -10.8646   -3.5334   -0.0000 F   0  0  0  0  0  0  0  0  0  0  0  0
  1  2  1  0  0  0  0
  1  3  1  0  0  0  0
  2  4  2  0  0  0  0
  2  5  1  0  0  0  0
  3  6  2  0  0  0  0
  5  7  2  0  0  0  0
  5  8  1  0  0  0  0
  6  9  1  0  0  0  0
  7 10  1  0  0  0  0
  8 11  2  0  0  0  0
  9 12  2  0  0  0  0
  9 13  1  0  0  0  0
 10 14  2  0  0  0  0
 12 15  1  0  0  0  0
 13 16  1  0  0  0  0
 13 17  1  0  0  0  0
 16 18  1  0  0  0  0
 17 19  1  0  0  0  0
 18 20  1  0  0  0  0
 18 21  1  6  0  0  0
 20 22  1  0  0  0  0
 22 23  2  0  0  0  0
 22 24  1  0  0  0  0
 24 25  2  0  0  0  0
 24 26  1  0  0  0  0
 25 27  1  0  0  0  0
 26 28  2  0  0  0  0
 27 29  2  0  0  0  0
 29 30  1  0  0  0  0
  4  6  1  0  0  0  0
 11 14  1  0  0  0  0
 15 16  2  0  0  0  0
 19 20  1  0  0  0  0
 28 29  1  0  0  0  0
M  END
>  <MolRegNo>
1841445

>  <m>
=

>  <Value>
67000

>  <Unit>
nM

>  <Type>
IC50

>  <pValue>
4.17

>  <Ligand Efficiency>
0

>  <Binding Efficiency>
0

>  <Surface Efficiency>
0

>  <Assay Index>
921239

>  <Assay Category>


>  <Assay Organism>
Homo sapiens

>  <Target ID>
17045

>  <Target Name>
Cytochrome P450 3A4

>  <Target Organism>
Homo sapiens

>  <Target Description>
Target is a single protein chain

>  <Sequence Accession>
P08684

>  <Reference>
J Med Chem 58 (7), 3060-3082 (2015)

>  <Pubmed ID>
25738882

>  <DOI>
10.1021/jm5017413

$$$$
1841446
Actelion Java MolfileCreator 1.0

 30 34  0  0  1  0  0  0  0  0999 V2000
    0.0000   -0.0000   -0.0000 S   0  0  0  0  0  0  0  0  0  0  0  0
    1.2281   -0.8548   -0.0000 C   0  0  0  0  0  0  0  0  0  0  0  0
    0.4575    1.4689   -0.0000 C   0  0  0  0  0  0  0  0  0  0  0  0
    1.2160   -2.3719   -0.0000 C   0  0  0  0  0  0  0  0  0  0  0  0
    2.4441    0.0361   -0.0000 C   0  0  0  0  0  0  0  0  0  0  0  0
    1.9746    1.4930   -0.0000 C   0  0  0  0  0  0  0  0  0  0  0  0
    2.5284   -3.1184   -0.0000 C   0  0  0  0  0  0  0  0  0  0  0  0
   -0.1204   -3.1304   -0.0000 C   0  0  0  0  0  0  0  0  0  0  0  0
    2.5164   -4.6354   -0.0000 C   0  0  0  0  0  0  0  0  0  0  0  0
   -0.1324   -4.6475   -0.0000 C   0  0  0  0  0  0  0  0  0  0  0  0
    1.1799   -5.3939   -0.0000 C   0  0  0  0  0  0  0  0  0  0  0  0
    1.1679   -6.9110   -0.0000 C   0  0  0  0  0  0  0  0  0  0  0  0
    2.2154   -7.5130   -0.0000 O   0  0  0  0  0  0  0  0  0  0  0  0
   -0.1686   -7.6695   -0.0000 N   0  0  0  0  0  0  0  0  0  0  0  0
   -0.1806   -9.1866   -0.0000 C   0  0  0  0  0  0  0  0  0  0  0  0
   -1.5050   -6.8989   -0.0000 C   0  0  0  0  0  0  0  0  0  0  0  0
   -1.5170   -9.9330   -0.0000 C   0  0  0  0  0  0  0  0  0  0  0  0
    0.8669   -9.7886   -0.0000 C   0  0  0  0  0  0  0  0  0  0  0  0
   -2.8415   -7.6454   -0.0000 C   0  0  0  0  0  0  0  0  0  0  0  0
   -1.8421  -11.4140   -0.0000 N   0  0  0  0  0  0  0  0  0  0  0  0
   -2.8535   -9.1625   -0.0000 N   0  0  0  0  0  0  0  0  0  0  0  0
   -3.3712  -11.5585   -0.0000 N   0  0  0  0  0  0  0  0  0  0  0  0
   -3.9973  -10.1738   -0.0000 C   0  0  0  0  0  0  0  0  0  0  0  0
   -5.5023   -9.8488   -0.0000 C   0  0  0  0  0  0  0  0  0  0  0  0
   -5.8755   -8.3438   -0.0000 N   0  0  0  0  0  0  0  0  0  0  0  0
   -6.6100  -10.8842   -0.0000 C   0  0  0  0  0  0  0  0  0  0  0  0
   -7.3565   -7.8983   -0.0000 C   0  0  0  0  0  0  0  0  0  0  0  0
   -8.0909  -10.4387   -0.0000 C   0  0  0  0  0  0  0  0  0  0  0  0
   -8.4762   -8.9458   -0.0000 C   0  0  0  0  0  0  0  0  0  0  0  0
   -7.6575   -6.6943   -0.0000 C   0  0  0  0  0  0  0  0  0  0  0  0
  1  2  1  0  0  0  0
  1  3  1  0  0  0  0
  2  4  1  0  0  0  0
  2  5  2  0  0  0  0
  3  6  2  0  0  0  0
  4  7  2  0  0  0  0
  4  8  1  0  0  0  0
  7  9  1  0  0  0  0
  8 10  2  0  0  0  0
  9 11  2  0  0  0  0
 11 12  1  0  0  0  0
 12 13  2  0  0  0  0
 12 14  1  0  0  0  0
 14 15  1  0  0  0  0
 14 16  1  0  0  0  0
 15 17  1  0  0  0  0
 15 18  1  6  0  0  0
 16 19  1  0  0  0  0
 17 20  2  0  0  0  0
 17 21  1  0  0  0  0
 20 22  1  0  0  0  0
 21 23  1  0  0  0  0
 23 24  1  0  0  0  0
 24 25  2  0  0  0  0
 24 26  1  0  0  0  0
 25 27  1  0  0  0  0
 26 28  2  0  0  0  0
 27 29  2  0  0  0  0
 27 30  1  0  0  0  0
  5  6  1  0  0  0  0
 10 11  1  0  0  0  0
 19 21  1  0  0  0  0
 22 23  2  0  0  0  0
 28 29  1  0  0  0  0
M  END
>  <MolRegNo>
1841446

>  <m>
=

>  <Value>
45000

>  <Unit>
nM

>  <Type>
IC50

>  <pValue>
4.35

>  <Ligand Efficiency>
0

>  <Binding Efficiency>
0

>  <Surface Efficiency>
0

>  <Assay Index>
921239

>  <Assay Category>


>  <Assay Organism>
Homo sapiens

>  <Target ID>
17045

>  <Target Name>
Cytochrome P450 3A4

>  <Target Organism>
Homo sapiens

>  <Target Description>
Target is a single protein chain

>  <Sequence Accession>
P08684

>  <Reference>
J Med Chem 58 (7), 3060-3082 (2015)

>  <Pubmed ID>
25738882

>  <DOI>
10.1021/jm5017413

$$$$
1841447
Actelion Java MolfileCreator 1.0

 30 34  0  0  0  0  0  0  0  0999 V2000
    0.0000   -0.0000   -0.0000 S   0  0  0  0  0  0  0  0  0  0  0  0
    1.3728    0.6262   -0.0000 C   0  0  0  0  0  0  0  0  0  0  0  0
   -1.0236    1.1561   -0.0000 C   0  0  0  0  0  0  0  0  0  0  0  0
    2.6734   -0.1445   -0.0000 C   0  0  0  0  0  0  0  0  0  0  0  0
    1.2404    2.1556   -0.0000 C   0  0  0  0  0  0  0  0  0  0  0  0
   -0.2529    2.4807   -0.0000 C   0  0  0  0  0  0  0  0  0  0  0  0
    2.6493   -1.6618   -0.0000 C   0  0  0  0  0  0  0  0  0  0  0  0
    3.9980    0.6142   -0.0000 C   0  0  0  0  0  0  0  0  0  0  0  0
    3.9499   -2.4325   -0.0000 C   0  0  0  0  0  0  0  0  0  0  0  0
    5.2986   -0.1565   -0.0000 C   0  0  0  0  0  0  0  0  0  0  0  0
    5.2745   -1.6739   -0.0000 C   0  0  0  0  0  0  0  0  0  0  0  0
    6.5871   -2.4325   -0.0000 C   0  0  0  0  0  0  0  0  0  0  0  0
    6.5630   -3.6488   -0.0000 O   0  0  0  0  0  0  0  0  0  0  0  0
    7.9117   -1.6618   -0.0000 N   0  0  0  0  0  0  0  0  0  0  0  0
    9.2364   -2.4325   -0.0000 C   0  0  0  0  0  0  0  0  0  0  0  0
    7.8997   -0.1204   -0.0000 C   0  0  0  0  0  0  0  0  0  0  0  0
   10.5490   -1.6377   -0.0000 C   0  0  0  0  0  0  0  0  0  0  0  0
    9.2244   -3.6488   -0.0000 C   0  0  0  0  0  0  0  0  0  0  0  0
    9.2244    0.6744   -0.0000 C   0  0  0  0  0  0  0  0  0  0  0  0
   11.9820   -2.0953   -0.0000 N   0  0  0  0  0  0  0  0  0  0  0  0
   10.5370   -0.0963   -0.0000 N   0  0  0  0  0  0  0  0  0  0  0  0
   12.8611   -0.8430   -0.0000 N   0  0  0  0  0  0  0  0  0  0  0  0
   11.9700    0.3854   -0.0000 C   0  0  0  0  0  0  0  0  0  0  0  0
   12.4276    1.8545   -0.0000 C   0  0  0  0  0  0  0  0  0  0  0  0
   13.8847    2.2880   -0.0000 N   0  0  0  0  0  0  0  0  0  0  0  0
   11.3077    2.9263   -0.0000 C   0  0  0  0  0  0  0  0  0  0  0  0
   14.2339    3.7813   -0.0000 C   0  0  0  0  0  0  0  0  0  0  0  0
   11.6569    4.4195   -0.0000 N   0  0  0  0  0  0  0  0  0  0  0  0
   13.1140    4.8530   -0.0000 C   0  0  0  0  0  0  0  0  0  0  0  0
   15.4020    4.1305   -0.0000 C   0  0  0  0  0  0  0  0  0  0  0  0
  1  2  1  0  0  0  0
  1  3  1  0  0  0  0
  2  4  1  0  0  0  0
  2  5  2  0  0  0  0
  3  6  2  0  0  0  0
  4  7  2  0  0  0  0
  4  8  1  0  0  0  0
  7  9  1  0  0  0  0
  8 10  2  0  0  0  0
  9 11  2  0  0  0  0
 11 12  1  0  0  0  0
 12 13  2  0  0  0  0
 12 14  1  0  0  0  0
 14 15  1  0  0  0  0
 14 16  1  0  0  0  0
 15 17  1  0  0  0  0
 15 18  1  6  0  0  0
 16 19  1  0  0  0  0
 17 20  2  0  0  0  0
 17 21  1  0  0  0  0
 20 22  1  0  0  0  0
 21 23  1  0  0  0  0
 23 24  1  0  0  0  0
 24 25  2  0  0  0  0
 24 26  1  0  0  0  0
 25 27  1  0  0  0  0
 26 28  2  0  0  0  0
 27 29  2  0  0  0  0
 27 30  1  0  0  0  0
  5  6  1  0  0  0  0
 10 11  1  0  0  0  0
 19 21  1  0  0  0  0
 22 23  2  0  0  0  0
 28 29  1  0  0  0  0
M  END
>  <MolRegNo>
1841447

>  <m>
=

>  <Value>
2000

>  <Unit>
nM

>  <Type>
IC50

>  <pValue>
5.7

>  <Ligand Efficiency>
0

>  <Binding Efficiency>
0

>  <Surface Efficiency>
0

>  <Assay Index>
921239

>  <Assay Category>


>  <Assay Organism>
Homo sapiens

>  <Target ID>
17045

>  <Target Name>
Cytochrome P450 3A4

>  <Target Organism>
Homo sapiens

>  <Target Description>
Target is a single protein chain

>  <Sequence Accession>
P08684

>  <Reference>
J Med Chem 58 (7), 3060-3082 (2015)

>  <Pubmed ID>
25738882

>  <DOI>
10.1021/jm5017413

$$$$
1841448
Actelion Java MolfileCreator 1.0

 36 41  0  0  0  0  0  0  0  0999 V2000
    0.0000   -0.0000   -0.0000 S   0  0  0  0  0  0  0  0  0  0  0  0
    1.4687   -0.3491   -0.0000 C   0  0  0  0  0  0  0  0  0  0  0  0
   -0.8186   -1.2882   -0.0000 C   0  0  0  0  0  0  0  0  0  0  0  0
    1.5771   -1.8660   -0.0000 N   0  0  0  0  0  0  0  0  0  0  0  0
    2.6245    0.6501   -0.0000 C   0  0  0  0  0  0  0  0  0  0  0  0
    0.1685   -2.4198   -0.0000 C   0  0  0  0  0  0  0  0  0  0  0  0
    4.0812    0.2528   -0.0000 C   0  0  0  0  0  0  0  0  0  0  0  0
    2.2151    2.1429   -0.0000 C   0  0  0  0  0  0  0  0  0  0  0  0
   -0.3130   -3.8645   -0.0000 C   0  0  0  0  0  0  0  0  0  0  0  0
    4.3821   -0.9150   -0.0000 F   0  0  0  0  0  0  0  0  0  0  0  0
    5.1526    1.3363   -0.0000 C   0  0  0  0  0  0  0  0  0  0  0  0
    3.2866    3.2264   -0.0000 C   0  0  0  0  0  0  0  0  0  0  0  0
    0.5658   -5.0563   -0.0000 N   0  0  0  0  0  0  0  0  0  0  0  0
   -1.7697   -4.3220   -0.0000 N   0  0  0  0  0  0  0  0  0  0  0  0
    4.7553    2.8291   -0.0000 C   0  0  0  0  0  0  0  0  0  0  0  0
   -0.3371   -6.2843   -0.0000 N   0  0  0  0  0  0  0  0  0  0  0  0
   -1.7818   -5.8388   -0.0000 C   0  0  0  0  0  0  0  0  0  0  0  0
   -3.1060   -3.5274   -0.0000 C   0  0  0  0  0  0  0  0  0  0  0  0
    5.6101    3.6959   -0.0000 F   0  0  0  0  0  0  0  0  0  0  0  0
   -3.1181   -6.6093   -0.0000 C   0  0  0  0  0  0  0  0  0  0  0  0
   -4.4544   -4.2979   -0.0000 C   0  0  0  0  0  0  0  0  0  0  0  0
   -4.4664   -5.8148   -0.0000 N   0  0  0  0  0  0  0  0  0  0  0  0
   -3.1301   -7.8253   -0.0000 C   0  0  0  0  0  0  0  0  0  0  0  0
   -5.8148   -6.5612   -0.0000 C   0  0  0  0  0  0  0  0  0  0  0  0
   -5.8388   -7.7771   -0.0000 O   0  0  0  0  0  0  0  0  0  0  0  0
   -7.1511   -5.7787   -0.0000 C   0  0  0  0  0  0  0  0  0  0  0  0
   -8.4994   -6.5130   -0.0000 C   0  0  0  0  0  0  0  0  0  0  0  0
   -7.1511   -4.2377   -0.0000 C   0  0  0  0  0  0  0  0  0  0  0  0
   -9.8237   -5.7185   -0.0000 C   0  0  0  0  0  0  0  0  0  0  0  0
   -8.4754   -3.4431   -0.0000 C   0  0  0  0  0  0  0  0  0  0  0  0
   -9.8237   -4.1775   -0.0000 C   0  0  0  0  0  0  0  0  0  0  0  0
  -11.1480   -3.3829   -0.0000 C   0  0  0  0  0  0  0  0  0  0  0  0
  -12.5445   -3.9849   -0.0000 S   0  0  0  0  0  0  0  0  0  0  0  0
  -11.2804   -1.8540   -0.0000 C   0  0  0  0  0  0  0  0  0  0  0  0
  -13.5678   -2.8291   -0.0000 C   0  0  0  0  0  0  0  0  0  0  0  0
  -12.7853   -1.5049   -0.0000 C   0  0  0  0  0  0  0  0  0  0  0  0
  1  2  1  0  0  0  0
  1  3  1  0  0  0  0
  2  4  2  0  0  0  0
  2  5  1  0  0  0  0
  3  6  2  0  0  0  0
  5  7  2  0  0  0  0
  5  8  1  0  0  0  0
  6  9  1  0  0  0  0
  7 10  1  0  0  0  0
  7 11  1  0  0  0  0
  8 12  2  0  0  0  0
  9 13  2  0  0  0  0
  9 14  1  0  0  0  0
 11 15  2  0  0  0  0
 13 16  1  0  0  0  0
 14 17  1  0  0  0  0
 14 18  1  0  0  0  0
 15 19  1  0  0  0  0
 17 20  1  0  0  0  0
 18 21  1  0  0  0  0
 20 22  1  0  0  0  0
 20 23  1  6  0  0  0
 22 24  1  0  0  0  0
 24 25  2  0  0  0  0
 24 26  1  0  0  0  0
 26 27  2  0  0  0  0
 26 28  1  0  0  0  0
 27 29  1  0  0  0  0
 28 30  2  0  0  0  0
 29 31  2  0  0  0  0
 31 32  1  0  0  0  0
 32 33  1  0  0  0  0
 32 34  2  0  0  0  0
 33 35  1  0  0  0  0
 34 36  1  0  0  0  0
  4  6  1  0  0  0  0
 12 15  1  0  0  0  0
 16 17  2  0  0  0  0
 21 22  1  0  0  0  0
 30 31  1  0  0  0  0
 35 36  2  0  0  0  0
M  END
>  <MolRegNo>
1841448

>  <m>
=

>  <Value>
19000

>  <Unit>
nM

>  <Type>
IC50

>  <pValue>
4.72

>  <Ligand Efficiency>
0

>  <Binding Efficiency>
0

>  <Surface Efficiency>
0

>  <Assay Index>
921239

>  <Assay Category>


>  <Assay Organism>
Homo sapiens

>  <Target ID>
17045

>  <Target Name>
Cytochrome P450 3A4

>  <Target Organism>
Homo sapiens

>  <Target Description>
Target is a single protein chain

>  <Sequence Accession>
P08684

>  <Reference>
J Med Chem 58 (7), 3060-3082 (2015)

>  <Pubmed ID>
25738882

>  <DOI>
10.1021/jm5017413

$$$$
1841449
Actelion Java MolfileCreator 1.0

 29 33  0  0  1  0  0  0  0  0999 V2000
    0.0000   -0.0000   -0.0000 S   0  0  0  0  0  0  0  0  0  0  0  0
    0.4215    1.4812   -0.0000 C   0  0  0  0  0  0  0  0  0  0  0  0
    1.2524   -0.8550   -0.0000 C   0  0  0  0  0  0  0  0  0  0  0  0
    1.9388    1.5294   -0.0000 N   0  0  0  0  0  0  0  0  0  0  0  0
   -0.3372    2.4687   -0.0000 C   0  0  0  0  0  0  0  0  0  0  0  0
    2.4325    0.0963   -0.0000 C   0  0  0  0  0  0  0  0  0  0  0  0
    3.9137   -0.2047   -0.0000 C   0  0  0  0  0  0  0  0  0  0  0  0
    4.5279   -1.5896   -0.0000 N   0  0  0  0  0  0  0  0  0  0  0  0
    5.0337    0.8309   -0.0000 N   0  0  0  0  0  0  0  0  0  0  0  0
    6.0332   -1.4210   -0.0000 N   0  0  0  0  0  0  0  0  0  0  0  0
    6.3463    0.0843   -0.0000 C   0  0  0  0  0  0  0  0  0  0  0  0
    5.0216    2.3723   -0.0000 C   0  0  0  0  0  0  0  0  0  0  0  0
    7.6589    0.8550   -0.0000 C   0  0  0  0  0  0  0  0  0  0  0  0
    6.3342    3.1430   -0.0000 C   0  0  0  0  0  0  0  0  0  0  0  0
    7.6468    2.3964   -0.0000 N   0  0  0  0  0  0  0  0  0  0  0  0
    8.7066    0.2529   -0.0000 C   0  0  0  0  0  0  0  0  0  0  0  0
    8.9595    3.1792   -0.0000 C   0  0  0  0  0  0  0  0  0  0  0  0
   10.0071    2.5770   -0.0000 O   0  0  0  0  0  0  0  0  0  0  0  0
    8.9474    4.7206   -0.0000 C   0  0  0  0  0  0  0  0  0  0  0  0
   10.2600    5.5033   -0.0000 C   0  0  0  0  0  0  0  0  0  0  0  0
    7.6107    5.4913   -0.0000 C   0  0  0  0  0  0  0  0  0  0  0  0
   10.2480    7.0447   -0.0000 C   0  0  0  0  0  0  0  0  0  0  0  0
    7.5987    7.0327   -0.0000 C   0  0  0  0  0  0  0  0  0  0  0  0
    8.9113    7.8154   -0.0000 C   0  0  0  0  0  0  0  0  0  0  0  0
    8.8992    9.3568   -0.0000 C   0  0  0  0  0  0  0  0  0  0  0  0
    7.6468   10.2359   -0.0000 S   0  0  0  0  0  0  0  0  0  0  0  0
   10.1155   10.2480   -0.0000 C   0  0  0  0  0  0  0  0  0  0  0  0
    8.1044   11.7051   -0.0000 C   0  0  0  0  0  0  0  0  0  0  0  0
    9.6218   11.7171   -0.0000 C   0  0  0  0  0  0  0  0  0  0  0  0
  1  2  1  0  0  0  0
  1  3  1  0  0  0  0
  2  4  2  0  0  0  0
  2  5  1  0  0  0  0
  3  6  2  0  0  0  0
  6  7  1  0  0  0  0
  7  8  2  0  0  0  0
  7  9  1  0  0  0  0
  8 10  1  0  0  0  0
  9 11  1  0  0  0  0
  9 12  1  0  0  0  0
 11 13  1  0  0  0  0
 12 14  1  0  0  0  0
 13 15  1  0  0  0  0
 13 16  1  6  0  0  0
 15 17  1  0  0  0  0
 17 18  2  0  0  0  0
 17 19  1  0  0  0  0
 19 20  2  0  0  0  0
 19 21  1  0  0  0  0
 20 22  1  0  0  0  0
 21 23  2  0  0  0  0
 22 24  2  0  0  0  0
 24 25  1  0  0  0  0
 25 26  1  0  0  0  0
 25 27  2  0  0  0  0
 26 28  1  0  0  0  0
 27 29  1  0  0  0  0
  4  6  1  0  0  0  0
 10 11  2  0  0  0  0
 14 15  1  0  0  0  0
 23 24  1  0  0  0  0
 28 29  2  0  0  0  0
M  END
>  <MolRegNo>
1841449

>  <m>
=

>  <Value>
50000

>  <Unit>
nM

>  <Type>
IC50

>  <pValue>
4.3

>  <Ligand Efficiency>
0

>  <Binding Efficiency>
0

>  <Surface Efficiency>
0

>  <Assay Index>
921239

>  <Assay Category>


>  <Assay Organism>
Homo sapiens

>  <Target ID>
17045

>  <Target Name>
Cytochrome P450 3A4

>  <Target Organism>
Homo sapiens

>  <Target Description>
Target is a single protein chain

>  <Sequence Accession>
P08684

>  <Reference>
J Med Chem 58 (7), 3060-3082 (2015)

>  <Pubmed ID>
25738882

>  <DOI>
10.1021/jm5017413

$$$$
1841451
Actelion Java MolfileCreator 1.0

 28 32  0  0  0  0  0  0  0  0999 V2000
    0.0000   -0.0000   -0.0000 S   0  0  0  0  0  0  0  0  0  0  0  0
    1.0273   -1.0870   -0.0000 C   0  0  0  0  0  0  0  0  0  0  0  0
    0.7167    1.3498   -0.0000 C   0  0  0  0  0  0  0  0  0  0  0  0
    2.3890   -0.4181   -0.0000 N   0  0  0  0  0  0  0  0  0  0  0  0
    0.8003   -2.2695   -0.0000 C   0  0  0  0  0  0  0  0  0  0  0  0
    2.1740    1.0631   -0.0000 C   0  0  0  0  0  0  0  0  0  0  0  0
    3.1773    2.1979   -0.0000 C   0  0  0  0  0  0  0  0  0  0  0  0
    4.6705    2.0545   -0.0000 N   0  0  0  0  0  0  0  0  0  0  0  0
    2.8548    3.6910   -0.0000 N   0  0  0  0  0  0  0  0  0  0  0  0
    5.2796    3.4521   -0.0000 N   0  0  0  0  0  0  0  0  0  0  0  0
    4.1568    4.4554   -0.0000 C   0  0  0  0  0  0  0  0  0  0  0  0
    1.5289    4.4554   -0.0000 C   0  0  0  0  0  0  0  0  0  0  0  0
    4.1449    5.9844   -0.0000 C   0  0  0  0  0  0  0  0  0  0  0  0
    1.5170    5.9844   -0.0000 C   0  0  0  0  0  0  0  0  0  0  0  0
    2.8190    6.7489   -0.0000 N   0  0  0  0  0  0  0  0  0  0  0  0
    2.8071    8.2778   -0.0000 C   0  0  0  0  0  0  0  0  0  0  0  0
    3.8463    8.8989   -0.0000 O   0  0  0  0  0  0  0  0  0  0  0  0
    1.4812    9.0423   -0.0000 C   0  0  0  0  0  0  0  0  0  0  0  0
    1.4692   10.5712   -0.0000 C   0  0  0  0  0  0  0  0  0  0  0  0
    0.1553    8.2898   -0.0000 C   0  0  0  0  0  0  0  0  0  0  0  0
    0.1433   11.3357   -0.0000 C   0  0  0  0  0  0  0  0  0  0  0  0
   -1.1706    9.0542   -0.0000 C   0  0  0  0  0  0  0  0  0  0  0  0
   -1.1825   10.5832   -0.0000 C   0  0  0  0  0  0  0  0  0  0  0  0
   -2.5084   11.3477   -0.0000 C   0  0  0  0  0  0  0  0  0  0  0  0
   -3.8821   10.7265   -0.0000 S   0  0  0  0  0  0  0  0  0  0  0  0
   -2.6637   12.8527   -0.0000 C   0  0  0  0  0  0  0  0  0  0  0  0
   -4.9094   11.8613   -0.0000 C   0  0  0  0  0  0  0  0  0  0  0  0
   -4.1568   13.1752   -0.0000 C   0  0  0  0  0  0  0  0  0  0  0  0
  1  2  1  0  0  0  0
  1  3  1  0  0  0  0
  2  4  2  0  0  0  0
  2  5  1  0  0  0  0
  3  6  2  0  0  0  0
  6  7  1  0  0  0  0
  7  8  2  0  0  0  0
  7  9  1  0  0  0  0
  8 10  1  0  0  0  0
  9 11  1  0  0  0  0
  9 12  1  0  0  0  0
 11 13  1  0  0  0  0
 12 14  1  0  0  0  0
 13 15  1  0  0  0  0
 15 16  1  0  0  0  0
 16 17  2  0  0  0  0
 16 18  1  0  0  0  0
 18 19  2  0  0  0  0
 18 20  1  0  0  0  0
 19 21  1  0  0  0  0
 20 22  2  0  0  0  0
 21 23  2  0  0  0  0
 23 24  1  0  0  0  0
 24 25  1  0  0  0  0
 24 26  2  0  0  0  0
 25 27  1  0  0  0  0
 26 28  1  0  0  0  0
  4  6  1  0  0  0  0
 10 11  2  0  0  0  0
 14 15  1  0  0  0  0
 22 23  1  0  0  0  0
 27 28  2  0  0  0  0
M  END
>  <MolRegNo>
1841451

>  <m>
=

>  <Value>
30000

>  <Unit>
nM

>  <Type>
IC50

>  <pValue>
4.52

>  <Ligand Efficiency>
0

>  <Binding Efficiency>
0

>  <Surface Efficiency>
0

>  <Assay Index>
921239

>  <Assay Category>


>  <Assay Organism>
Homo sapiens

>  <Target ID>
17045

>  <Target Name>
Cytochrome P450 3A4

>  <Target Organism>
Homo sapiens

>  <Target Description>
Target is a single protein chain

>  <Sequence Accession>
P08684

>  <Reference>
J Med Chem 58 (7), 3060-3082 (2015)

>  <Pubmed ID>
25738882

>  <DOI>
10.1021/jm5017413

$$$$
1841453
Actelion Java MolfileCreator 1.0

 31 35  0  0  0  0  0  0  0  0999 V2000
    0.0000   -0.0000   -0.0000 S   0  0  0  0  0  0  0  0  0  0  0  0
    1.4729   -0.3501   -0.0000 C   0  0  0  0  0  0  0  0  0  0  0  0
   -0.8209   -1.2918   -0.0000 C   0  0  0  0  0  0  0  0  0  0  0  0
    1.5815   -1.8713   -0.0000 N   0  0  0  0  0  0  0  0  0  0  0  0
    2.6318    0.6519   -0.0000 C   0  0  0  0  0  0  0  0  0  0  0  0
    0.1690   -2.4266   -0.0000 C   0  0  0  0  0  0  0  0  0  0  0  0
    2.4025    1.8713   -0.0000 C   0  0  0  0  0  0  0  0  0  0  0  0
    3.7787    0.2535   -0.0000 C   0  0  0  0  0  0  0  0  0  0  0  0
   -0.3139   -3.8753   -0.0000 C   0  0  0  0  0  0  0  0  0  0  0  0
    0.5674   -5.0705   -0.0000 N   0  0  0  0  0  0  0  0  0  0  0  0
   -1.7747   -4.3341   -0.0000 N   0  0  0  0  0  0  0  0  0  0  0  0
   -0.3380   -6.3019   -0.0000 N   0  0  0  0  0  0  0  0  0  0  0  0
   -1.7868   -5.8552   -0.0000 C   0  0  0  0  0  0  0  0  0  0  0  0
   -3.1147   -3.5373   -0.0000 C   0  0  0  0  0  0  0  0  0  0  0  0
   -3.1268   -6.6279   -0.0000 C   0  0  0  0  0  0  0  0  0  0  0  0
   -4.4669   -4.3099   -0.0000 C   0  0  0  0  0  0  0  0  0  0  0  0
   -4.4790   -5.8311   -0.0000 N   0  0  0  0  0  0  0  0  0  0  0  0
   -3.1389   -7.8472   -0.0000 C   0  0  0  0  0  0  0  0  0  0  0  0
   -5.8311   -6.5796   -0.0000 C   0  0  0  0  0  0  0  0  0  0  0  0
   -5.8552   -7.7989   -0.0000 O   0  0  0  0  0  0  0  0  0  0  0  0
   -7.1712   -5.7949   -0.0000 C   0  0  0  0  0  0  0  0  0  0  0  0
   -8.5233   -6.5313   -0.0000 C   0  0  0  0  0  0  0  0  0  0  0  0
   -7.1712   -4.2496   -0.0000 C   0  0  0  0  0  0  0  0  0  0  0  0
   -9.8513   -5.7345   -0.0000 C   0  0  0  0  0  0  0  0  0  0  0  0
   -8.4992   -3.4528   -0.0000 C   0  0  0  0  0  0  0  0  0  0  0  0
   -9.8513   -4.1892   -0.0000 C   0  0  0  0  0  0  0  0  0  0  0  0
  -11.1793   -3.3924   -0.0000 C   0  0  0  0  0  0  0  0  0  0  0  0
  -12.5797   -3.9961   -0.0000 S   0  0  0  0  0  0  0  0  0  0  0  0
  -11.3121   -1.8592   -0.0000 C   0  0  0  0  0  0  0  0  0  0  0  0
  -13.6059   -2.8371   -0.0000 C   0  0  0  0  0  0  0  0  0  0  0  0
  -12.8212   -1.5091   -0.0000 C   0  0  0  0  0  0  0  0  0  0  0  0
  1  2  1  0  0  0  0
  1  3  1  0  0  0  0
  2  4  2  0  0  0  0
  2  5  1  0  0  0  0
  3  6  2  0  0  0  0
  5  7  1  0  0  0  0
  5  8  1  0  0  0  0
  6  9  1  0  0  0  0
  9 10  2  0  0  0  0
  9 11  1  0  0  0  0
 10 12  1  0  0  0  0
 11 13  1  0  0  0  0
 11 14  1  0  0  0  0
 13 15  1  0  0  0  0
 14 16  1  0  0  0  0
 15 17  1  0  0  0  0
 15 18  1  6  0  0  0
 17 19  1  0  0  0  0
 19 20  2  0  0  0  0
 19 21  1  0  0  0  0
 21 22  2  0  0  0  0
 21 23  1  0  0  0  0
 22 24  1  0  0  0  0
 23 25  2  0  0  0  0
 24 26  2  0  0  0  0
 26 27  1  0  0  0  0
 27 28  1  0  0  0  0
 27 29  2  0  0  0  0
 28 30  1  0  0  0  0
 29 31  1  0  0  0  0
  4  6  1  0  0  0  0
 12 13  2  0  0  0  0
 16 17  1  0  0  0  0
 25 26  1  0  0  0  0
 30 31  2  0  0  0  0
M  END
>  <MolRegNo>
1841453

>  <m>
=

>  <Value>
35000

>  <Unit>
nM

>  <Type>
IC50

>  <pValue>
4.46

>  <Ligand Efficiency>
0

>  <Binding Efficiency>
0

>  <Surface Efficiency>
0

>  <Assay Index>
921239

>  <Assay Category>


>  <Assay Organism>
Homo sapiens

>  <Target ID>
17045

>  <Target Name>
Cytochrome P450 3A4

>  <Target Organism>
Homo sapiens

>  <Target Description>
Target is a single protein chain

>  <Sequence Accession>
P08684

>  <Reference>
J Med Chem 58 (7), 3060-3082 (2015)

>  <Pubmed ID>
25738882

>  <DOI>
10.1021/jm5017413

$$$$
1841454
Actelion Java MolfileCreator 1.0

 31 35  0  0  1  0  0  0  0  0999 V2000
    0.0000   -0.0000   -0.0000 S   0  0  0  0  0  0  0  0  0  0  0  0
    1.3723    0.6558   -0.0000 C   0  0  0  0  0  0  0  0  0  0  0  0
   -1.0444    1.1537   -0.0000 C   0  0  0  0  0  0  0  0  0  0  0  0
    2.6960   -0.0972   -0.0000 C   0  0  0  0  0  0  0  0  0  0  0  0
    1.2144    2.1859   -0.0000 C   0  0  0  0  0  0  0  0  0  0  0  0
   -0.2915    2.5017   -0.0000 C   0  0  0  0  0  0  0  0  0  0  0  0
    4.0197    0.6922   -0.0000 C   0  0  0  0  0  0  0  0  0  0  0  0
    2.6838   -1.6273   -0.0000 C   0  0  0  0  0  0  0  0  0  0  0  0
    5.3433   -0.0607   -0.0000 C   0  0  0  0  0  0  0  0  0  0  0  0
    4.0075   -2.3802   -0.0000 C   0  0  0  0  0  0  0  0  0  0  0  0
    5.3312   -1.5909   -0.0000 C   0  0  0  0  0  0  0  0  0  0  0  0
    6.6549   -2.3438   -0.0000 C   0  0  0  0  0  0  0  0  0  0  0  0
    7.7114   -1.7123   -0.0000 O   0  0  0  0  0  0  0  0  0  0  0  0
    6.6427   -3.8739   -0.0000 N   0  0  0  0  0  0  0  0  0  0  0  0
    7.9664   -4.6269   -0.0000 C   0  0  0  0  0  0  0  0  0  0  0  0
    5.2948   -4.6269   -0.0000 C   0  0  0  0  0  0  0  0  0  0  0  0
    7.9543   -6.1570   -0.0000 C   0  0  0  0  0  0  0  0  0  0  0  0
    9.0230   -3.9954   -0.0000 C   0  0  0  0  0  0  0  0  0  0  0  0
    5.2826   -6.1570   -0.0000 C   0  0  0  0  0  0  0  0  0  0  0  0
    9.0837   -7.1771   -0.0000 N   0  0  0  0  0  0  0  0  0  0  0  0
    6.6063   -6.9099   -0.0000 N   0  0  0  0  0  0  0  0  0  0  0  0
    8.4401   -8.5736   -0.0000 N   0  0  0  0  0  0  0  0  0  0  0  0
    6.9099   -8.4036   -0.0000 C   0  0  0  0  0  0  0  0  0  0  0  0
    5.8655   -9.5330   -0.0000 C   0  0  0  0  0  0  0  0  0  0  0  0
    4.3597   -9.2173   -0.0000 N   0  0  0  0  0  0  0  0  0  0  0  0
    6.0720  -11.0267   -0.0000 C   0  0  0  0  0  0  0  0  0  0  0  0
    3.6068  -10.5653   -0.0000 C   0  0  0  0  0  0  0  0  0  0  0  0
    4.6633  -11.6825   -0.0000 O   0  0  0  0  0  0  0  0  0  0  0  0
    2.0645  -10.7474   -0.0000 C   0  0  0  0  0  0  0  0  0  0  0  0
    1.2994   -9.7516   -0.0000 C   0  0  0  0  0  0  0  0  0  0  0  0
    1.5787  -11.8768   -0.0000 C   0  0  0  0  0  0  0  0  0  0  0  0
  1  2  1  0  0  0  0
  1  3  1  0  0  0  0
  2  4  1  0  0  0  0
  2  5  2  0  0  0  0
  3  6  2  0  0  0  0
  4  7  2  0  0  0  0
  4  8  1  0  0  0  0
  7  9  1  0  0  0  0
  8 10  2  0  0  0  0
  9 11  2  0  0  0  0
 11 12  1  0  0  0  0
 12 13  2  0  0  0  0
 12 14  1  0  0  0  0
 14 15  1  0  0  0  0
 14 16  1  0  0  0  0
 15 17  1  0  0  0  0
 15 18  1  6  0  0  0
 16 19  1  0  0  0  0
 17 20  2  0  0  0  0
 17 21  1  0  0  0  0
 20 22  1  0  0  0  0
 21 23  1  0  0  0  0
 23 24  1  0  0  0  0
 24 25  1  0  0  0  0
 24 26  2  0  0  0  0
 25 27  2  0  0  0  0
 26 28  1  0  0  0  0
 27 29  1  0  0  0  0
 29 30  1  0  0  0  0
 29 31  1  0  0  0  0
  5  6  1  0  0  0  0
 10 11  1  0  0  0  0
 19 21  1  0  0  0  0
 22 23  2  0  0  0  0
 27 28  1  0  0  0  0
M  END
>  <MolRegNo>
1841454

>  <m>
=

>  <Value>
43000

>  <Unit>
nM

>  <Type>
IC50

>  <pValue>
4.37

>  <Ligand Efficiency>
0

>  <Binding Efficiency>
0

>  <Surface Efficiency>
0

>  <Assay Index>
921239

>  <Assay Category>


>  <Assay Organism>
Homo sapiens

>  <Target ID>
17045

>  <Target Name>
Cytochrome P450 3A4

>  <Target Organism>
Homo sapiens

>  <Target Description>
Target is a single protein chain

>  <Sequence Accession>
P08684

>  <Reference>
J Med Chem 58 (7), 3060-3082 (2015)

>  <Pubmed ID>
25738882

>  <DOI>
10.1021/jm5017413

$$$$
1841455
Actelion Java MolfileCreator 1.0

 29 33  0  0  1  0  0  0  0  0999 V2000
    0.0000   -0.0000   -0.0000 S   0  0  0  0  0  0  0  0  0  0  0  0
    0.4698   -1.4213   -0.0000 C   0  0  0  0  0  0  0  0  0  0  0  0
   -1.5418   -0.0241   -0.0000 C   0  0  0  0  0  0  0  0  0  0  0  0
   -0.7348   -2.3488   -0.0000 N   0  0  0  0  0  0  0  0  0  0  0  0
    1.9513   -1.7225   -0.0000 C   0  0  0  0  0  0  0  0  0  0  0  0
   -1.9875   -1.4816   -0.0000 C   0  0  0  0  0  0  0  0  0  0  0  0
    2.5656   -3.1077   -0.0000 N   0  0  0  0  0  0  0  0  0  0  0  0
    3.0716   -0.6866   -0.0000 N   0  0  0  0  0  0  0  0  0  0  0  0
   -3.1559   -1.8791   -0.0000 C   0  0  0  0  0  0  0  0  0  0  0  0
    4.0713   -2.9391   -0.0000 N   0  0  0  0  0  0  0  0  0  0  0  0
    4.3845   -1.4334   -0.0000 C   0  0  0  0  0  0  0  0  0  0  0  0
    3.0595    0.8552   -0.0000 C   0  0  0  0  0  0  0  0  0  0  0  0
    5.6974   -0.6625   -0.0000 C   0  0  0  0  0  0  0  0  0  0  0  0
    4.3724    1.6261   -0.0000 C   0  0  0  0  0  0  0  0  0  0  0  0
    5.6854    0.8793   -0.0000 N   0  0  0  0  0  0  0  0  0  0  0  0
    6.7454   -1.2648   -0.0000 C   0  0  0  0  0  0  0  0  0  0  0  0
    6.9983    1.6623   -0.0000 C   0  0  0  0  0  0  0  0  0  0  0  0
    8.0463    1.0600   -0.0000 O   0  0  0  0  0  0  0  0  0  0  0  0
    6.9863    3.2041   -0.0000 C   0  0  0  0  0  0  0  0  0  0  0  0
    8.2992    3.9870   -0.0000 C   0  0  0  0  0  0  0  0  0  0  0  0
    5.6492    3.9750   -0.0000 C   0  0  0  0  0  0  0  0  0  0  0  0
    8.2872    5.5288   -0.0000 C   0  0  0  0  0  0  0  0  0  0  0  0
    5.6372    5.5167   -0.0000 C   0  0  0  0  0  0  0  0  0  0  0  0
    6.9501    6.2997   -0.0000 C   0  0  0  0  0  0  0  0  0  0  0  0
    6.9381    7.8415   -0.0000 C   0  0  0  0  0  0  0  0  0  0  0  0
    5.6854    8.7208   -0.0000 S   0  0  0  0  0  0  0  0  0  0  0  0
    8.1547    8.7328   -0.0000 C   0  0  0  0  0  0  0  0  0  0  0  0
    6.1431   10.1903   -0.0000 C   0  0  0  0  0  0  0  0  0  0  0  0
    7.6608   10.2024   -0.0000 C   0  0  0  0  0  0  0  0  0  0  0  0
  1  2  1  0  0  0  0
  1  3  1  0  0  0  0
  2  4  2  0  0  0  0
  2  5  1  0  0  0  0
  3  6  2  0  0  0  0
  5  7  2  0  0  0  0
  5  8  1  0  0  0  0
  6  9  1  0  0  0  0
  7 10  1  0  0  0  0
  8 11  1  0  0  0  0
  8 12  1  0  0  0  0
 11 13  1  0  0  0  0
 12 14  1  0  0  0  0
 13 15  1  0  0  0  0
 13 16  1  6  0  0  0
 15 17  1  0  0  0  0
 17 18  2  0  0  0  0
 17 19  1  0  0  0  0
 19 20  2  0  0  0  0
 19 21  1  0  0  0  0
 20 22  1  0  0  0  0
 21 23  2  0  0  0  0
 22 24  2  0  0  0  0
 24 25  1  0  0  0  0
 25 26  1  0  0  0  0
 25 27  2  0  0  0  0
 26 28  1  0  0  0  0
 27 29  1  0  0  0  0
  4  6  1  0  0  0  0
 10 11  2  0  0  0  0
 14 15  1  0  0  0  0
 23 24  1  0  0  0  0
 28 29  2  0  0  0  0
M  END
>  <MolRegNo>
1841455

>  <m>
=

>  <Value>
11000

>  <Unit>
nM

>  <Type>
IC50

>  <pValue>
4.96

>  <Ligand Efficiency>
0

>  <Binding Efficiency>
0

>  <Surface Efficiency>
0

>  <Assay Index>
921239

>  <Assay Category>


>  <Assay Organism>
Homo sapiens

>  <Target ID>
17045

>  <Target Name>
Cytochrome P450 3A4

>  <Target Organism>
Homo sapiens

>  <Target Description>
Target is a single protein chain

>  <Sequence Accession>
P08684

>  <Reference>
J Med Chem 58 (7), 3060-3082 (2015)

>  <Pubmed ID>
25738882

>  <DOI>
10.1021/jm5017413

$$$$
1841456
Actelion Java MolfileCreator 1.0

 29 33  0  0  1  0  0  0  0  0999 V2000
    0.0000   -0.0000   -0.0000 S   0  0  0  0  0  0  0  0  0  0  0  0
    1.2295   -0.8559   -0.0000 C   0  0  0  0  0  0  0  0  0  0  0  0
    0.4581    1.4706   -0.0000 C   0  0  0  0  0  0  0  0  0  0  0  0
    1.2175   -2.3747   -0.0000 C   0  0  0  0  0  0  0  0  0  0  0  0
    2.4470    0.0362   -0.0000 C   0  0  0  0  0  0  0  0  0  0  0  0
    1.9769    1.4947   -0.0000 C   0  0  0  0  0  0  0  0  0  0  0  0
    2.5314   -3.1221   -0.0000 C   0  0  0  0  0  0  0  0  0  0  0  0
   -0.1205   -3.1341   -0.0000 C   0  0  0  0  0  0  0  0  0  0  0  0
    2.5194   -4.6409   -0.0000 C   0  0  0  0  0  0  0  0  0  0  0  0
   -0.1326   -4.6530   -0.0000 C   0  0  0  0  0  0  0  0  0  0  0  0
    1.1813   -5.4004   -0.0000 C   0  0  0  0  0  0  0  0  0  0  0  0
    1.1693   -6.9192   -0.0000 C   0  0  0  0  0  0  0  0  0  0  0  0
    2.2180   -7.5219   -0.0000 O   0  0  0  0  0  0  0  0  0  0  0  0
   -0.1688   -7.6786   -0.0000 N   0  0  0  0  0  0  0  0  0  0  0  0
   -0.1808   -9.1975   -0.0000 C   0  0  0  0  0  0  0  0  0  0  0  0
   -1.5068   -6.9072   -0.0000 C   0  0  0  0  0  0  0  0  0  0  0  0
   -1.5189   -9.9449   -0.0000 C   0  0  0  0  0  0  0  0  0  0  0  0
    0.8679   -9.8002   -0.0000 C   0  0  0  0  0  0  0  0  0  0  0  0
   -2.8448   -7.6545   -0.0000 C   0  0  0  0  0  0  0  0  0  0  0  0
   -1.8443  -11.4275   -0.0000 N   0  0  0  0  0  0  0  0  0  0  0  0
   -2.8569   -9.1734   -0.0000 N   0  0  0  0  0  0  0  0  0  0  0  0
   -3.3752  -11.5722   -0.0000 N   0  0  0  0  0  0  0  0  0  0  0  0
   -4.0020  -10.1859   -0.0000 C   0  0  0  0  0  0  0  0  0  0  0  0
   -5.5088   -9.8605   -0.0000 C   0  0  0  0  0  0  0  0  0  0  0  0
   -6.7143  -10.7887   -0.0000 O   0  0  0  0  0  0  0  0  0  0  0  0
   -6.0031   -8.4139   -0.0000 N   0  0  0  0  0  0  0  0  0  0  0  0
   -7.9920   -9.9087   -0.0000 N   0  0  0  0  0  0  0  0  0  0  0  0
   -7.5460   -8.4381   -0.0000 C   0  0  0  0  0  0  0  0  0  0  0  0
   -8.3055   -7.4496   -0.0000 C   0  0  0  0  0  0  0  0  0  0  0  0
  1  2  1  0  0  0  0
  1  3  1  0  0  0  0
  2  4  1  0  0  0  0
  2  5  2  0  0  0  0
  3  6  2  0  0  0  0
  4  7  2  0  0  0  0
  4  8  1  0  0  0  0
  7  9  1  0  0  0  0
  8 10  2  0  0  0  0
  9 11  2  0  0  0  0
 11 12  1  0  0  0  0
 12 13  2  0  0  0  0
 12 14  1  0  0  0  0
 14 15  1  0  0  0  0
 14 16  1  0  0  0  0
 15 17  1  0  0  0  0
 15 18  1  6  0  0  0
 16 19  1  0  0  0  0
 17 20  2  0  0  0  0
 17 21  1  0  0  0  0
 20 22  1  0  0  0  0
 21 23  1  0  0  0  0
 23 24  1  0  0  0  0
 24 25  1  0  0  0  0
 24 26  2  0  0  0  0
 25 27  1  0  0  0  0
 26 28  1  0  0  0  0
 28 29  1  0  0  0  0
  5  6  1  0  0  0  0
 10 11  1  0  0  0  0
 19 21  1  0  0  0  0
 22 23  2  0  0  0  0
 27 28  2  0  0  0  0
M  END
>  <MolRegNo>
1841456

>  <m>
=

>  <Value>
55000

>  <Unit>
nM

>  <Type>
IC50

>  <pValue>
4.26

>  <Ligand Efficiency>
0

>  <Binding Efficiency>
0

>  <Surface Efficiency>
0

>  <Assay Index>
921239

>  <Assay Category>


>  <Assay Organism>
Homo sapiens

>  <Target ID>
17045

>  <Target Name>
Cytochrome P450 3A4

>  <Target Organism>
Homo sapiens

>  <Target Description>
Target is a single protein chain

>  <Sequence Accession>
P08684

>  <Reference>
J Med Chem 58 (7), 3060-3082 (2015)

>  <Pubmed ID>
25738882

>  <DOI>
10.1021/jm5017413

$$$$
1841457
Actelion Java MolfileCreator 1.0

 29 33  0  0  1  0  0  0  0  0999 V2000
    0.0000   -0.0000   -0.0000 S   0  0  0  0  0  0  0  0  0  0  0  0
   -1.5418   -0.0241   -0.0000 N   0  0  0  0  0  0  0  0  0  0  0  0
    0.4698   -1.4213   -0.0000 C   0  0  0  0  0  0  0  0  0  0  0  0
   -1.9875   -1.4816   -0.0000 C   0  0  0  0  0  0  0  0  0  0  0  0
   -0.7348   -2.3488   -0.0000 N   0  0  0  0  0  0  0  0  0  0  0  0
    1.9513   -1.7225   -0.0000 C   0  0  0  0  0  0  0  0  0  0  0  0
   -3.1559   -1.8791   -0.0000 C   0  0  0  0  0  0  0  0  0  0  0  0
    2.5656   -3.1077   -0.0000 N   0  0  0  0  0  0  0  0  0  0  0  0
    3.0716   -0.6866   -0.0000 N   0  0  0  0  0  0  0  0  0  0  0  0
    4.0713   -2.9391   -0.0000 N   0  0  0  0  0  0  0  0  0  0  0  0
    4.3845   -1.4334   -0.0000 C   0  0  0  0  0  0  0  0  0  0  0  0
    3.0595    0.8552   -0.0000 C   0  0  0  0  0  0  0  0  0  0  0  0
    5.6974   -0.6625   -0.0000 C   0  0  0  0  0  0  0  0  0  0  0  0
    4.3724    1.6261   -0.0000 C   0  0  0  0  0  0  0  0  0  0  0  0
    5.6854    0.8793   -0.0000 N   0  0  0  0  0  0  0  0  0  0  0  0
    6.7454   -1.2648   -0.0000 C   0  0  0  0  0  0  0  0  0  0  0  0
    6.9983    1.6623   -0.0000 C   0  0  0  0  0  0  0  0  0  0  0  0
    8.0463    1.0600   -0.0000 O   0  0  0  0  0  0  0  0  0  0  0  0
    6.9863    3.2041   -0.0000 C   0  0  0  0  0  0  0  0  0  0  0  0
    8.2992    3.9870   -0.0000 C   0  0  0  0  0  0  0  0  0  0  0  0
    5.6492    3.9750   -0.0000 C   0  0  0  0  0  0  0  0  0  0  0  0
    8.2872    5.5288   -0.0000 C   0  0  0  0  0  0  0  0  0  0  0  0
    5.6372    5.5167   -0.0000 C   0  0  0  0  0  0  0  0  0  0  0  0
    6.9501    6.2997   -0.0000 C   0  0  0  0  0  0  0  0  0  0  0  0
    6.9381    7.8415   -0.0000 C   0  0  0  0  0  0  0  0  0  0  0  0
    5.6854    8.7208   -0.0000 S   0  0  0  0  0  0  0  0  0  0  0  0
    8.1547    8.7328   -0.0000 C   0  0  0  0  0  0  0  0  0  0  0  0
    6.1431   10.1903   -0.0000 C   0  0  0  0  0  0  0  0  0  0  0  0
    7.6608   10.2024   -0.0000 C   0  0  0  0  0  0  0  0  0  0  0  0
  1  2  1  0  0  0  0
  1  3  1  0  0  0  0
  2  4  2  0  0  0  0
  3  5  2  0  0  0  0
  3  6  1  0  0  0  0
  4  7  1  0  0  0  0
  6  8  2  0  0  0  0
  6  9  1  0  0  0  0
  8 10  1  0  0  0  0
  9 11  1  0  0  0  0
  9 12  1  0  0  0  0
 11 13  1  0  0  0  0
 12 14  1  0  0  0  0
 13 15  1  0  0  0  0
 13 16  1  6  0  0  0
 15 17  1  0  0  0  0
 17 18  2  0  0  0  0
 17 19  1  0  0  0  0
 19 20  2  0  0  0  0
 19 21  1  0  0  0  0
 20 22  1  0  0  0  0
 21 23  2  0  0  0  0
 22 24  2  0  0  0  0
 24 25  1  0  0  0  0
 25 26  1  0  0  0  0
 25 27  2  0  0  0  0
 26 28  1  0  0  0  0
 27 29  1  0  0  0  0
  4  5  1  0  0  0  0
 10 11  2  0  0  0  0
 14 15  1  0  0  0  0
 23 24  1  0  0  0  0
 28 29  2  0  0  0  0
M  END
>  <MolRegNo>
1841457

>  <m>
=

>  <Value>
80000

>  <Unit>
nM

>  <Type>
IC50

>  <pValue>
4.1

>  <Ligand Efficiency>
0

>  <Binding Efficiency>
0

>  <Surface Efficiency>
0

>  <Assay Index>
921239

>  <Assay Category>


>  <Assay Organism>
Homo sapiens

>  <Target ID>
17045

>  <Target Name>
Cytochrome P450 3A4

>  <Target Organism>
Homo sapiens

>  <Target Description>
Target is a single protein chain

>  <Sequence Accession>
P08684

>  <Reference>
J Med Chem 58 (7), 3060-3082 (2015)

>  <Pubmed ID>
25738882

>  <DOI>
10.1021/jm5017413

$$$$
1563050
Actelion Java MolfileCreator 1.0

 27 29  0  0  0  0  0  0  0  0999 V2000
    0.0000   -0.0000   -0.0000 O   0  0  0  0  0  0  0  0  0  0  0  0
   -1.3153    0.7583   -0.0000 C   0  0  0  0  0  0  0  0  0  0  0  0
    1.2797    0.7702   -0.0000 C   0  0  0  0  0  0  0  0  0  0  0  0
   -2.6187    0.0237   -0.0000 C   0  0  0  0  0  0  0  0  0  0  0  0
   -1.3389    2.2750   -0.0000 C   0  0  0  0  0  0  0  0  0  0  0  0
    2.5713    0.0355   -0.0000 C   0  0  0  0  0  0  0  0  0  0  0  0
   -3.9221    0.7820   -0.0000 C   0  0  0  0  0  0  0  0  0  0  0  0
   -2.6424    3.0215   -0.0000 C   0  0  0  0  0  0  0  0  0  0  0  0
    3.8510    0.8057   -0.0000 N   0  0  0  0  0  0  0  0  0  0  0  0
   -3.9339    2.2869   -0.0000 C   0  0  0  0  0  0  0  0  0  0  0  0
   -5.2373    3.0452   -0.0000 C   0  0  0  0  0  0  0  0  0  0  0  0
   -6.5407    2.3106   -0.0000 C   0  0  0  0  0  0  0  0  0  0  0  0
   -5.2492    4.5501   -0.0000 C   0  0  0  0  0  0  0  0  0  0  0  0
   -6.5526    0.8176   -0.0000 C   0  0  0  0  0  0  0  0  0  0  0  0
   -7.8441    3.0689   -0.0000 C   0  0  0  0  0  0  0  0  0  0  0  0
   -6.5526    5.3084   -0.0000 C   0  0  0  0  0  0  0  0  0  0  0  0
   -3.9695    5.3084   -0.0000 C   0  0  0  0  0  0  0  0  0  0  0  0
   -7.8678    0.0829   -0.0000 C   0  0  0  0  0  0  0  0  0  0  0  0
   -9.1475    2.3343   -0.0000 C   0  0  0  0  0  0  0  0  0  0  0  0
   -6.5644    6.8132   -0.0000 C   0  0  0  0  0  0  0  0  0  0  0  0
   -7.8441    4.5738   -0.0000 C   0  0  0  0  0  0  0  0  0  0  0  0
   -2.6897    4.5738   -0.0000 C   0  0  0  0  0  0  0  0  0  0  0  0
   -9.1712    0.8413   -0.0000 C   0  0  0  0  0  0  0  0  0  0  0  0
   -7.8678    7.5716   -0.0000 C   0  0  0  0  0  0  0  0  0  0  0  0
   -9.1475    5.3203   -0.0000 C   0  0  0  0  0  0  0  0  0  0  0  0
  -10.4746    0.1066   -0.0000 O   0  0  0  0  0  0  0  0  0  0  0  0
   -9.1712    6.8369   -0.0000 C   0  0  0  0  0  0  0  0  0  0  0  0
  1  2  1  0  0  0  0
  1  3  1  0  0  0  0
  2  4  2  0  0  0  0
  2  5  1  0  0  0  0
  3  6  1  0  0  0  0
  4  7  1  0  0  0  0
  5  8  2  0  0  0  0
  6  9  1  0  0  0  0
  7 10  2  0  0  0  0
 10 11  1  0  0  0  0
 11 12  1  0  0  0  0
 11 13  2  0  0  0  0
 12 14  2  0  0  0  0
 12 15  1  0  0  0  0
 13 16  1  0  0  0  0
 13 17  1  0  0  0  0
 14 18  1  0  0  0  0
 15 19  2  0  0  0  0
 16 20  2  0  0  0  0
 16 21  1  0  0  0  0
 17 22  1  0  0  0  0
 18 23  2  0  0  0  0
 20 24  1  0  0  0  0
 21 25  2  0  0  0  0
 23 26  1  0  0  0  0
 24 27  2  0  0  0  0
  8 10  1  0  0  0  0
 19 23  1  0  0  0  0
 25 27  1  0  0  0  0
M  END
>  <MolRegNo>
1563050

>  <m>
=

>  <Value>
285

>  <Unit>
nM

>  <Type>
IC50

>  <pValue>
6.54

>  <Ligand Efficiency>
0

>  <Binding Efficiency>
0

>  <Surface Efficiency>
0

>  <Assay Index>
919505

>  <Assay Category>


>  <Assay Organism>
Homo sapiens

>  <Target ID>
17045

>  <Target Name>
Cytochrome P450 3A4

>  <Target Organism>
Homo sapiens

>  <Target Description>
Target is a single protein chain

>  <Sequence Accession>
P08684

>  <Reference>
J Med Chem 58 (6), 2623-2648 (2015)

>  <Pubmed ID>
25751283

>  <DOI>
10.1021/jm501218e

$$$$
1841467
Actelion Java MolfileCreator 1.0

 28 30  0  0  0  0  0  0  0  0999 V2000
    0.0000   -0.0000   -0.0000 O   0  0  0  0  0  0  0  0  0  0  0  0
    1.3276   -0.7674   -0.0000 C   0  0  0  0  0  0  0  0  0  0  0  0
   -0.0122    1.5591   -0.0000 C   0  0  0  0  0  0  0  0  0  0  0  0
    1.3155   -2.3021   -0.0000 C   0  0  0  0  0  0  0  0  0  0  0  0
    2.6553    0.0244   -0.0000 C   0  0  0  0  0  0  0  0  0  0  0  0
   -1.3642    2.3508   -0.0000 C   0  0  0  0  0  0  0  0  0  0  0  0
    2.6431   -3.0572   -0.0000 C   0  0  0  0  0  0  0  0  0  0  0  0
    3.9829   -0.7308   -0.0000 C   0  0  0  0  0  0  0  0  0  0  0  0
   -1.3764    3.6053   -0.0000 N   0  0  0  0  0  0  0  0  0  0  0  0
    3.9707   -2.2777   -0.0000 C   0  0  0  0  0  0  0  0  0  0  0  0
    5.2984   -3.0329   -0.0000 C   0  0  0  0  0  0  0  0  0  0  0  0
    6.6260   -2.2412   -0.0000 C   0  0  0  0  0  0  0  0  0  0  0  0
    5.2862   -4.5676   -0.0000 C   0  0  0  0  0  0  0  0  0  0  0  0
    6.6139   -0.6821   -0.0000 C   0  0  0  0  0  0  0  0  0  0  0  0
    7.9537   -2.9963   -0.0000 C   0  0  0  0  0  0  0  0  0  0  0  0
    6.6139   -5.3228   -0.0000 C   0  0  0  0  0  0  0  0  0  0  0  0
    3.9342   -5.3228   -0.0000 C   0  0  0  0  0  0  0  0  0  0  0  0
    7.9415    0.0974   -0.0000 C   0  0  0  0  0  0  0  0  0  0  0  0
    9.2813   -2.2168   -0.0000 C   0  0  0  0  0  0  0  0  0  0  0  0
    6.6017   -6.8575   -0.0000 C   0  0  0  0  0  0  0  0  0  0  0  0
    7.9415   -4.5310   -0.0000 C   0  0  0  0  0  0  0  0  0  0  0  0
    2.8502   -4.6894   -0.0000 C   0  0  0  0  0  0  0  0  0  0  0  0
    9.2691   -0.6577   -0.0000 C   0  0  0  0  0  0  0  0  0  0  0  0
    7.9293   -7.6126   -0.0000 C   0  0  0  0  0  0  0  0  0  0  0  0
    9.2691   -5.2862   -0.0000 C   0  0  0  0  0  0  0  0  0  0  0  0
   10.3288   -0.0244   -0.0000 O   0  0  0  0  0  0  0  0  0  0  0  0
    9.2570   -6.8209   -0.0000 C   0  0  0  0  0  0  0  0  0  0  0  0
   10.3166   -7.4299   -0.0000 O   0  0  0  0  0  0  0  0  0  0  0  0
  1  2  1  0  0  0  0
  1  3  1  0  0  0  0
  2  4  2  0  0  0  0
  2  5  1  0  0  0  0
  3  6  1  0  0  0  0
  4  7  1  0  0  0  0
  5  8  2  0  0  0  0
  6  9  1  0  0  0  0
  7 10  2  0  0  0  0
 10 11  1  0  0  0  0
 11 12  1  0  0  0  0
 11 13  2  0  0  0  0
 12 14  2  0  0  0  0
 12 15  1  0  0  0  0
 13 16  1  0  0  0  0
 13 17  1  0  0  0  0
 14 18  1  0  0  0  0
 15 19  2  0  0  0  0
 16 20  2  0  0  0  0
 16 21  1  0  0  0  0
 17 22  1  0  0  0  0
 18 23  2  0  0  0  0
 20 24  1  0  0  0  0
 21 25  2  0  0  0  0
 23 26  1  0  0  0  0
 24 27  2  0  0  0  0
 27 28  1  0  0  0  0
  8 10  1  0  0  0  0
 19 23  1  0  0  0  0
 25 27  1  0  0  0  0
M  END
>  <MolRegNo>
1841467

>  <m>
=

>  <Value>
1880

>  <Unit>
nM

>  <Type>
IC50

>  <pValue>
5.73

>  <Ligand Efficiency>
0

>  <Binding Efficiency>
0

>  <Surface Efficiency>
0

>  <Assay Index>
919505

>  <Assay Category>


>  <Assay Organism>
Homo sapiens

>  <Target ID>
17045

>  <Target Name>
Cytochrome P450 3A4

>  <Target Organism>
Homo sapiens

>  <Target Description>
Target is a single protein chain

>  <Sequence Accession>
P08684

>  <Reference>
J Med Chem 58 (6), 2623-2648 (2015)

>  <Pubmed ID>
25751283

>  <DOI>
10.1021/jm501218e

$$$$
1841512
Actelion Java MolfileCreator 1.0

 37 42  0  0  0  0  0  0  0  0999 V2000
    0.0000   -0.0000   -0.0000 O   0  0  0  0  0  0  0  0  0  0  0  0
    1.0406    0.6220   -0.0000 C   0  0  0  0  0  0  0  0  0  0  0  0
    1.0167    2.1531   -0.0000 N   0  0  0  0  0  0  0  0  0  0  0  0
    2.3444   -0.1196   -0.0000 C   0  0  0  0  0  0  0  0  0  0  0  0
   -0.3110    2.9186   -0.0000 C   0  0  0  0  0  0  0  0  0  0  0  0
    3.6602    0.6698   -0.0000 C   0  0  0  0  0  0  0  0  0  0  0  0
    2.3325   -1.6268   -0.0000 C   0  0  0  0  0  0  0  0  0  0  0  0
   -0.3349    4.4497   -0.0000 C   0  0  0  0  0  0  0  0  0  0  0  0
   -1.6387    2.1650   -0.0000 C   0  0  0  0  0  0  0  0  0  0  0  0
    4.9640   -0.0957   -0.0000 C   0  0  0  0  0  0  0  0  0  0  0  0
    3.6482   -2.3923   -0.0000 C   0  0  0  0  0  0  0  0  0  0  0  0
   -1.6626    5.2152   -0.0000 C   0  0  0  0  0  0  0  0  0  0  0  0
    0.9689    5.2271   -0.0000 C   0  0  0  0  0  0  0  0  0  0  0  0
   -3.0860    2.2129   -0.0000 C   0  0  0  0  0  0  0  0  0  0  0  0
   -2.3205    0.9091   -0.0000 C   0  0  0  0  0  0  0  0  0  0  0  0
    6.3874    0.3828   -0.0000 C   0  0  0  0  0  0  0  0  0  0  0  0
    4.9520   -1.6028   -0.0000 C   0  0  0  0  0  0  0  0  0  0  0  0
   -1.6746    6.7462   -0.0000 C   0  0  0  0  0  0  0  0  0  0  0  0
    0.9569    6.7582   -0.0000 C   0  0  0  0  0  0  0  0  0  0  0  0
    7.2606   -0.8014   -0.0000 N   0  0  0  0  0  0  0  0  0  0  0  0
    6.8419    1.8421   -0.0000 C   0  0  0  0  0  0  0  0  0  0  0  0
    6.3754   -2.0574   -0.0000 N   0  0  0  0  0  0  0  0  0  0  0  0
   -0.3708    7.5237   -0.0000 C   0  0  0  0  0  0  0  0  0  0  0  0
    5.8970    3.0502   -0.0000 C   0  0  0  0  0  0  0  0  0  0  0  0
    8.3371    2.0693   -0.0000 C   0  0  0  0  0  0  0  0  0  0  0  0
    6.4472    4.4736   -0.0000 C   0  0  0  0  0  0  0  0  0  0  0  0
    8.8873    3.4927   -0.0000 C   0  0  0  0  0  0  0  0  0  0  0  0
    7.9424    4.7008   -0.0000 C   0  0  0  0  0  0  0  0  0  0  0  0
    8.5046    6.1243   -0.0000 O   0  0  0  0  0  0  0  0  0  0  0  0
    9.9998    6.3515   -0.0000 C   0  0  0  0  0  0  0  0  0  0  0  0
   10.5619    7.7749   -0.0000 C   0  0  0  0  0  0  0  0  0  0  0  0
   10.9208    5.1673   -0.0000 C   0  0  0  0  0  0  0  0  0  0  0  0
   12.0571    7.9902   -0.0000 C   0  0  0  0  0  0  0  0  0  0  0  0
   12.4160    5.3826   -0.0000 C   0  0  0  0  0  0  0  0  0  0  0  0
   12.9782    6.8061   -0.0000 N   0  0  0  0  0  0  0  0  0  0  0  0
   14.4733    7.0214   -0.0000 C   0  0  0  0  0  0  0  0  0  0  0  0
   15.2030    6.0764   -0.0000 O   0  0  0  0  0  0  0  0  0  0  0  0
  1  2  2  0  0  0  0
  2  3  1  0  0  0  0
  2  4  1  0  0  0  0
  3  5  1  0  0  0  0
  4  6  2  0  0  0  0
  4  7  1  0  0  0  0
  5  8  1  0  0  0  0
  5  9  1  0  0  0  0
  6 10  1  0  0  0  0
  7 11  2  0  0  0  0
  8 12  2  0  0  0  0
  8 13  1  0  0  0  0
  9 14  1  0  0  0  0
  9 15  1  0  0  0  0
 10 16  1  0  0  0  0
 10 17  2  0  0  0  0
 12 18  1  0  0  0  0
 13 19  2  0  0  0  0
 16 20  2  0  0  0  0
 16 21  1  0  0  0  0
 17 22  1  0  0  0  0
 18 23  2  0  0  0  0
 21 24  2  0  0  0  0
 21 25  1  0  0  0  0
 24 26  1  0  0  0  0
 25 27  2  0  0  0  0
 26 28  2  0  0  0  0
 28 29  1  0  0  0  0
 29 30  1  0  0  0  0
 30 31  1  0  0  0  0
 30 32  1  0  0  0  0
 31 33  1  0  0  0  0
 32 34  1  0  0  0  0
 33 35  1  0  0  0  0
 35 36  1  0  0  0  0
 36 37  2  0  0  0  0
 11 17  1  0  0  0  0
 14 15  1  0  0  0  0
 19 23  1  0  0  0  0
 20 22  1  0  0  0  0
 27 28  1  0  0  0  0
 34 35  1  0  0  0  0
M  END
>  <MolRegNo>
1841512

>  <m>
=

>  <Value>
1500

>  <Unit>
nM

>  <Type>
IC50

>  <pValue>
5.82

>  <Ligand Efficiency>
0

>  <Binding Efficiency>
0

>  <Surface Efficiency>
0

>  <Assay Index>
919516

>  <Assay Category>


>  <Assay Organism>
Homo sapiens

>  <Target ID>
17045

>  <Target Name>
Cytochrome P450 3A4

>  <Target Organism>
Homo sapiens

>  <Target Description>
Target is a single protein chain

>  <Sequence Accession>
P08684

>  <Reference>
J Med Chem 58 (8), 3366-3392 (2015)

>  <Pubmed ID>
25763473

>  <DOI>
10.1021/jm501740a

$$$$
1841513
Actelion Java MolfileCreator 1.0

 37 42  0  0  0  0  0  0  0  0999 V2000
    0.0000   -0.0000   -0.0000 O   0  0  0  0  0  0  0  0  0  0  0  0
    1.0406    0.6220   -0.0000 C   0  0  0  0  0  0  0  0  0  0  0  0
    1.0167    2.1531   -0.0000 N   0  0  0  0  0  0  0  0  0  0  0  0
    2.3444   -0.1196   -0.0000 C   0  0  0  0  0  0  0  0  0  0  0  0
   -0.3110    2.9186   -0.0000 C   0  0  0  0  0  0  0  0  0  0  0  0
    3.6602    0.6698   -0.0000 C   0  0  0  0  0  0  0  0  0  0  0  0
    2.3325   -1.6268   -0.0000 C   0  0  0  0  0  0  0  0  0  0  0  0
   -0.3349    4.4497   -0.0000 C   0  0  0  0  0  0  0  0  0  0  0  0
   -1.6387    2.1650   -0.0000 C   0  0  0  0  0  0  0  0  0  0  0  0
    4.9640   -0.0957   -0.0000 C   0  0  0  0  0  0  0  0  0  0  0  0
    3.6482   -2.3923   -0.0000 C   0  0  0  0  0  0  0  0  0  0  0  0
    0.9689    5.2271   -0.0000 N   0  0  0  0  0  0  0  0  0  0  0  0
   -1.6626    5.2152   -0.0000 C   0  0  0  0  0  0  0  0  0  0  0  0
   -3.0860    2.2129   -0.0000 C   0  0  0  0  0  0  0  0  0  0  0  0
   -2.3205    0.9091   -0.0000 C   0  0  0  0  0  0  0  0  0  0  0  0
    6.3874    0.3828   -0.0000 C   0  0  0  0  0  0  0  0  0  0  0  0
    4.9520   -1.6028   -0.0000 C   0  0  0  0  0  0  0  0  0  0  0  0
    0.9569    6.7582   -0.0000 C   0  0  0  0  0  0  0  0  0  0  0  0
   -1.6746    6.7462   -0.0000 C   0  0  0  0  0  0  0  0  0  0  0  0
    7.2606   -0.8014   -0.0000 N   0  0  0  0  0  0  0  0  0  0  0  0
    6.8419    1.8421   -0.0000 C   0  0  0  0  0  0  0  0  0  0  0  0
    6.3754   -2.0574   -0.0000 N   0  0  0  0  0  0  0  0  0  0  0  0
   -0.3708    7.5237   -0.0000 C   0  0  0  0  0  0  0  0  0  0  0  0
    5.8970    3.0502   -0.0000 C   0  0  0  0  0  0  0  0  0  0  0  0
    8.3371    2.0693   -0.0000 C   0  0  0  0  0  0  0  0  0  0  0  0
    6.4472    4.4736   -0.0000 C   0  0  0  0  0  0  0  0  0  0  0  0
    8.8873    3.4927   -0.0000 C   0  0  0  0  0  0  0  0  0  0  0  0
    7.9424    4.7008   -0.0000 C   0  0  0  0  0  0  0  0  0  0  0  0
    8.5046    6.1243   -0.0000 O   0  0  0  0  0  0  0  0  0  0  0  0
    9.9998    6.3515   -0.0000 C   0  0  0  0  0  0  0  0  0  0  0  0
   10.5619    7.7749   -0.0000 C   0  0  0  0  0  0  0  0  0  0  0  0
   10.9208    5.1673   -0.0000 C   0  0  0  0  0  0  0  0  0  0  0  0
   12.0571    7.9902   -0.0000 C   0  0  0  0  0  0  0  0  0  0  0  0
   12.4160    5.3826   -0.0000 C   0  0  0  0  0  0  0  0  0  0  0  0
   12.9782    6.8061   -0.0000 N   0  0  0  0  0  0  0  0  0  0  0  0
   14.4733    7.0214   -0.0000 C   0  0  0  0  0  0  0  0  0  0  0  0
   15.2030    6.0764   -0.0000 O   0  0  0  0  0  0  0  0  0  0  0  0
  1  2  2  0  0  0  0
  2  3  1  0  0  0  0
  2  4  1  0  0  0  0
  3  5  1  0  0  0  0
  4  6  2  0  0  0  0
  4  7  1  0  0  0  0
  5  8  1  0  0  0  0
  5  9  1  0  0  0  0
  6 10  1  0  0  0  0
  7 11  2  0  0  0  0
  8 12  2  0  0  0  0
  8 13  1  0  0  0  0
  9 14  1  0  0  0  0
  9 15  1  0  0  0  0
 10 16  1  0  0  0  0
 10 17  2  0  0  0  0
 12 18  1  0  0  0  0
 13 19  2  0  0  0  0
 16 20  2  0  0  0  0
 16 21  1  0  0  0  0
 17 22  1  0  0  0  0
 18 23  2  0  0  0  0
 21 24  2  0  0  0  0
 21 25  1  0  0  0  0
 24 26  1  0  0  0  0
 25 27  2  0  0  0  0
 26 28  2  0  0  0  0
 28 29  1  0  0  0  0
 29 30  1  0  0  0  0
 30 31  1  0  0  0  0
 30 32  1  0  0  0  0
 31 33  1  0  0  0  0
 32 34  1  0  0  0  0
 33 35  1  0  0  0  0
 35 36  1  0  0  0  0
 36 37  2  0  0  0  0
 11 17  1  0  0  0  0
 14 15  1  0  0  0  0
 19 23  1  0  0  0  0
 20 22  1  0  0  0  0
 27 28  1  0  0  0  0
 34 35  1  0  0  0  0
M  END
>  <MolRegNo>
1841513

>  <m>
=

>  <Value>
1500

>  <Unit>
nM

>  <Type>
IC50

>  <pValue>
5.82

>  <Ligand Efficiency>
0

>  <Binding Efficiency>
0

>  <Surface Efficiency>
0

>  <Assay Index>
919516

>  <Assay Category>


>  <Assay Organism>
Homo sapiens

>  <Target ID>
17045

>  <Target Name>
Cytochrome P450 3A4

>  <Target Organism>
Homo sapiens

>  <Target Description>
Target is a single protein chain

>  <Sequence Accession>
P08684

>  <Reference>
J Med Chem 58 (8), 3366-3392 (2015)

>  <Pubmed ID>
25763473

>  <DOI>
10.1021/jm501740a

$$$$
1841514
Actelion Java MolfileCreator 1.0

 41 46  0  0  0  0  0  0  0  0999 V2000
    0.0000   -0.0000   -0.0000 O   0  0  0  0  0  0  0  0  0  0  0  0
    1.0490    0.6270   -0.0000 C   0  0  0  0  0  0  0  0  0  0  0  0
    1.0249    2.1704   -0.0000 N   0  0  0  0  0  0  0  0  0  0  0  0
    2.3633   -0.1206   -0.0000 C   0  0  0  0  0  0  0  0  0  0  0  0
   -0.3135    2.9421   -0.0000 C   0  0  0  0  0  0  0  0  0  0  0  0
    3.6896    0.6752   -0.0000 C   0  0  0  0  0  0  0  0  0  0  0  0
    2.3512   -1.6398   -0.0000 C   0  0  0  0  0  0  0  0  0  0  0  0
   -0.3376    4.4854   -0.0000 C   0  0  0  0  0  0  0  0  0  0  0  0
   -1.6519    2.1824   -0.0000 C   0  0  0  0  0  0  0  0  0  0  0  0
    5.0039   -0.0965   -0.0000 C   0  0  0  0  0  0  0  0  0  0  0  0
    3.6776   -2.4115   -0.0000 C   0  0  0  0  0  0  0  0  0  0  0  0
   -1.6760    5.2571   -0.0000 C   0  0  0  0  0  0  0  0  0  0  0  0
    0.9767    5.2692   -0.0000 C   0  0  0  0  0  0  0  0  0  0  0  0
   -3.1109    2.2307   -0.0000 C   0  0  0  0  0  0  0  0  0  0  0  0
   -2.3392    0.9164   -0.0000 C   0  0  0  0  0  0  0  0  0  0  0  0
    6.4388    0.3858   -0.0000 C   0  0  0  0  0  0  0  0  0  0  0  0
    4.9918   -1.6157   -0.0000 C   0  0  0  0  0  0  0  0  0  0  0  0
   -1.6881    6.8005   -0.0000 C   0  0  0  0  0  0  0  0  0  0  0  0
    0.9646    6.8125   -0.0000 C   0  0  0  0  0  0  0  0  0  0  0  0
    7.3190   -0.8079   -0.0000 N   0  0  0  0  0  0  0  0  0  0  0  0
    6.8969    1.8569   -0.0000 C   0  0  0  0  0  0  0  0  0  0  0  0
    6.4267   -2.0739   -0.0000 N   0  0  0  0  0  0  0  0  0  0  0  0
   -0.3738    7.5842   -0.0000 C   0  0  0  0  0  0  0  0  0  0  0  0
    5.9444    3.0747   -0.0000 C   0  0  0  0  0  0  0  0  0  0  0  0
    8.4041    2.0860   -0.0000 C   0  0  0  0  0  0  0  0  0  0  0  0
    6.4990    4.5095   -0.0000 C   0  0  0  0  0  0  0  0  0  0  0  0
    8.9588    3.5208   -0.0000 C   0  0  0  0  0  0  0  0  0  0  0  0
    8.0062    4.7386   -0.0000 C   0  0  0  0  0  0  0  0  0  0  0  0
    8.5729    6.1735   -0.0000 O   0  0  0  0  0  0  0  0  0  0  0  0
   10.0801    6.4026   -0.0000 C   0  0  0  0  0  0  0  0  0  0  0  0
   10.6468    7.8374   -0.0000 C   0  0  0  0  0  0  0  0  0  0  0  0
   11.0086    5.2089   -0.0000 C   0  0  0  0  0  0  0  0  0  0  0  0
   12.1540    8.0545   -0.0000 C   0  0  0  0  0  0  0  0  0  0  0  0
   12.5158    5.4259   -0.0000 C   0  0  0  0  0  0  0  0  0  0  0  0
   13.0825    6.8608   -0.0000 N   0  0  0  0  0  0  0  0  0  0  0  0
   14.5897    7.0778   -0.0000 C   0  0  0  0  0  0  0  0  0  0  0  0
   15.0358    8.2233   -0.0000 O   0  0  0  0  0  0  0  0  0  0  0  0
   15.5181    5.8841   -0.0000 C   0  0  0  0  0  0  0  0  0  0  0  0
   17.0253    6.1011   -0.0000 N   0  0  0  0  0  0  0  0  0  0  0  0
   17.7608    5.1486   -0.0000 C   0  0  0  0  0  0  0  0  0  0  0  0
   17.4714    7.2466   -0.0000 C   0  0  0  0  0  0  0  0  0  0  0  0
  1  2  2  0  0  0  0
  2  3  1  0  0  0  0
  2  4  1  0  0  0  0
  3  5  1  0  0  0  0
  4  6  2  0  0  0  0
  4  7  1  0  0  0  0
  5  8  1  0  0  0  0
  5  9  1  0  0  0  0
  6 10  1  0  0  0  0
  7 11  2  0  0  0  0
  8 12  2  0  0  0  0
  8 13  1  0  0  0  0
  9 14  1  0  0  0  0
  9 15  1  0  0  0  0
 10 16  1  0  0  0  0
 10 17  2  0  0  0  0
 12 18  1  0  0  0  0
 13 19  2  0  0  0  0
 16 20  2  0  0  0  0
 16 21  1  0  0  0  0
 17 22  1  0  0  0  0
 18 23  2  0  0  0  0
 21 24  2  0  0  0  0
 21 25  1  0  0  0  0
 24 26  1  0  0  0  0
 25 27  2  0  0  0  0
 26 28  2  0  0  0  0
 28 29  1  0  0  0  0
 29 30  1  0  0  0  0
 30 31  1  0  0  0  0
 30 32  1  0  0  0  0
 31 33  1  0  0  0  0
 32 34  1  0  0  0  0
 33 35  1  0  0  0  0
 35 36  1  0  0  0  0
 36 37  2  0  0  0  0
 36 38  1  0  0  0  0
 38 39  1  0  0  0  0
 39 40  1  0  0  0  0
 39 41  1  0  0  0  0
 11 17  1  0  0  0  0
 14 15  1  0  0  0  0
 19 23  1  0  0  0  0
 20 22  1  0  0  0  0
 27 28  1  0  0  0  0
 34 35  1  0  0  0  0
M  END
>  <MolRegNo>
1841514

>  <m>
=

>  <Value>
1000

>  <Unit>
nM

>  <Type>
IC50

>  <pValue>
6

>  <Ligand Efficiency>
0

>  <Binding Efficiency>
0

>  <Surface Efficiency>
0

>  <Assay Index>
919516

>  <Assay Category>


>  <Assay Organism>
Homo sapiens

>  <Target ID>
17045

>  <Target Name>
Cytochrome P450 3A4

>  <Target Organism>
Homo sapiens

>  <Target Description>
Target is a single protein chain

>  <Sequence Accession>
P08684

>  <Reference>
J Med Chem 58 (8), 3366-3392 (2015)

>  <Pubmed ID>
25763473

>  <DOI>
10.1021/jm501740a

$$$$
1841515
Actelion Java MolfileCreator 1.0

 38 44  0  0  1  0  0  0  0  0999 V2000
    0.0000   -0.0000   -0.0000 O   0  0  0  0  0  0  0  0  0  0  0  0
    1.1474    0.3952   -0.0000 C   0  0  0  0  0  0  0  0  0  0  0  0
    1.4406    1.8996   -0.0000 N   0  0  0  0  0  0  0  0  0  0  0  0
    2.2693   -0.5992   -0.0000 C   0  0  0  0  0  0  0  0  0  0  0  0
    0.2932    2.9194   -0.0000 C   0  0  0  0  0  0  0  0  0  0  0  0
    3.7226   -0.1020   -0.0000 C   0  0  0  0  0  0  0  0  0  0  0  0
    1.9505   -2.0780   -0.0000 C   0  0  0  0  0  0  0  0  0  0  0  0
    0.5864    4.4238   -0.0000 C   0  0  0  0  0  0  0  0  0  0  0  0
   -1.1601    2.4477   -0.0000 C   0  0  0  0  0  0  0  0  0  0  0  0
    4.8317   -1.1219   -0.0000 C   0  0  0  0  0  0  0  0  0  0  0  0
    3.0852   -3.0979   -0.0000 C   0  0  0  0  0  0  0  0  0  0  0  0
   -0.5609    5.4437   -0.0000 C   0  0  0  0  0  0  0  0  0  0  0  0
    2.0143    4.9210   -0.0000 C   0  0  0  0  0  0  0  0  0  0  0  0
   -2.5752    2.7920   -0.0000 C   0  0  0  0  0  0  0  0  0  0  0  0
   -2.0908    1.3514   -0.0000 C   0  0  0  0  0  0  0  0  0  0  0  0
    6.3106   -0.9689   -0.0000 C   0  0  0  0  0  0  0  0  0  0  0  0
    4.5130   -2.6007   -0.0000 C   0  0  0  0  0  0  0  0  0  0  0  0
   -0.2677    6.9480   -0.0000 C   0  0  0  0  0  0  0  0  0  0  0  0
    2.3075    6.4253   -0.0000 C   0  0  0  0  0  0  0  0  0  0  0  0
    6.9353   -2.2948   -0.0000 N   0  0  0  0  0  0  0  0  0  0  0  0
    7.0628    0.3697   -0.0000 C   0  0  0  0  0  0  0  0  0  0  0  0
    5.8134   -3.3401   -0.0000 N   0  0  0  0  0  0  0  0  0  0  0  0
    1.1601    7.4452   -0.0000 C   0  0  0  0  0  0  0  0  0  0  0  0
    6.2851    1.6956   -0.0000 C   0  0  0  0  0  0  0  0  0  0  0  0
    8.5671    0.3825   -0.0000 C   0  0  0  0  0  0  0  0  0  0  0  0
    7.0373    3.0342   -0.0000 C   0  0  0  0  0  0  0  0  0  0  0  0
    9.3193    1.7211   -0.0000 C   0  0  0  0  0  0  0  0  0  0  0  0
    8.5416    3.0469   -0.0000 C   0  0  0  0  0  0  0  0  0  0  0  0
    9.2938    4.3855   -0.0000 O   0  0  0  0  0  0  0  0  0  0  0  0
   10.8109    4.3983   -0.0000 C   0  0  0  0  0  0  0  0  0  0  0  0
   11.5758    3.0214   -0.0000 C   0  0  0  0  0  0  0  0  0  0  0  0
   11.6140    5.7751   -0.0000 C   0  0  0  0  0  0  0  0  0  0  0  0
   13.1694    3.0342   -0.0000 C   0  0  0  0  0  0  0  0  0  0  0  0
   13.2204    5.7879   -0.0000 C   0  0  0  0  0  0  0  0  0  0  0  0
   13.9725    4.4365   -0.0000 N   0  0  0  0  0  0  0  0  0  0  0  0
   12.1877    3.5824   -0.0000 C   0  0  0  0  0  0  0  0  0  0  0  0
   12.2005    5.3672   -0.0000 C   0  0  0  0  0  0  0  0  0  0  0  0
   15.1837    4.4493   -0.0000 C   0  0  0  0  0  0  0  0  0  0  0  0
  1  2  2  0  0  0  0
  2  3  1  0  0  0  0
  2  4  1  0  0  0  0
  3  5  1  0  0  0  0
  4  6  2  0  0  0  0
  4  7  1  0  0  0  0
  5  8  1  0  0  0  0
  5  9  1  0  0  0  0
  6 10  1  0  0  0  0
  7 11  2  0  0  0  0
  8 12  2  0  0  0  0
  8 13  1  0  0  0  0
  9 14  1  0  0  0  0
  9 15  1  0  0  0  0
 10 16  1  0  0  0  0
 10 17  2  0  0  0  0
 12 18  1  0  0  0  0
 13 19  2  0  0  0  0
 16 20  2  0  0  0  0
 16 21  1  0  0  0  0
 17 22  1  0  0  0  0
 18 23  2  0  0  0  0
 21 24  2  0  0  0  0
 21 25  1  0  0  0  0
 24 26  1  0  0  0  0
 25 27  2  0  0  0  0
 26 28  2  0  0  0  0
 28 29  1  0  0  0  0
 30 29  1  1  0  0  0
 30 31  1  0  0  0  0
 30 32  1  0  0  0  0
 31 33  1  0  0  0  0
 32 34  1  0  0  0  0
 33 35  1  6  0  0  0
 33 36  1  0  0  0  0
 34 37  1  0  0  0  0
 35 38  1  0  0  0  0
 11 17  1  0  0  0  0
 14 15  1  0  0  0  0
 19 23  1  0  0  0  0
 20 22  1  0  0  0  0
 27 28  1  0  0  0  0
 34 35  1  6  0  0  0
 36 37  1  0  0  0  0
M  END
>  <MolRegNo>
1841515

>  <m>
=

>  <Value>
2400

>  <Unit>
nM

>  <Type>
IC50

>  <pValue>
5.62

>  <Ligand Efficiency>
0

>  <Binding Efficiency>
0

>  <Surface Efficiency>
0

>  <Assay Index>
919516

>  <Assay Category>


>  <Assay Organism>
Homo sapiens

>  <Target ID>
17045

>  <Target Name>
Cytochrome P450 3A4

>  <Target Organism>
Homo sapiens

>  <Target Description>
Target is a single protein chain

>  <Sequence Accession>
P08684

>  <Reference>
J Med Chem 58 (8), 3366-3392 (2015)

>  <Pubmed ID>
25763473

>  <DOI>
10.1021/jm501740a

$$$$
1841518
Actelion Java MolfileCreator 1.0

 40 45  0  0  1  0  0  0  0  0999 V2000
    0.0000   -0.0000   -0.0000 O   0  0  0  0  0  0  0  0  0  0  0  0
    1.1552    0.3979   -0.0000 C   0  0  0  0  0  0  0  0  0  0  0  0
    1.4505    1.9126   -0.0000 N   0  0  0  0  0  0  0  0  0  0  0  0
    2.2848   -0.6033   -0.0000 C   0  0  0  0  0  0  0  0  0  0  0  0
    0.2952    2.9394   -0.0000 C   0  0  0  0  0  0  0  0  0  0  0  0
    3.7481   -0.1027   -0.0000 C   0  0  0  0  0  0  0  0  0  0  0  0
    1.9639   -2.0923   -0.0000 C   0  0  0  0  0  0  0  0  0  0  0  0
    0.5905    4.4541   -0.0000 C   0  0  0  0  0  0  0  0  0  0  0  0
   -1.1681    2.4645   -0.0000 C   0  0  0  0  0  0  0  0  0  0  0  0
    4.8648   -1.1296   -0.0000 C   0  0  0  0  0  0  0  0  0  0  0  0
    3.1063   -3.1191   -0.0000 C   0  0  0  0  0  0  0  0  0  0  0  0
    2.0281    4.9547   -0.0000 N   0  0  0  0  0  0  0  0  0  0  0  0
   -0.5648    5.4810   -0.0000 C   0  0  0  0  0  0  0  0  0  0  0  0
   -1.4890    0.9755   -0.0000 C   0  0  0  0  0  0  0  0  0  0  0  0
    6.3538   -0.9755   -0.0000 C   0  0  0  0  0  0  0  0  0  0  0  0
    4.5439   -2.6185   -0.0000 C   0  0  0  0  0  0  0  0  0  0  0  0
    2.3233    6.4693   -0.0000 C   0  0  0  0  0  0  0  0  0  0  0  0
   -0.2696    6.9956   -0.0000 C   0  0  0  0  0  0  0  0  0  0  0  0
   -2.6699    0.6033   -0.0000 C   0  0  0  0  0  0  0  0  0  0  0  0
   -0.5776    0.1797   -0.0000 C   0  0  0  0  0  0  0  0  0  0  0  0
    6.9828   -2.3105   -0.0000 N   0  0  0  0  0  0  0  0  0  0  0  0
    7.1111    0.3722   -0.0000 C   0  0  0  0  0  0  0  0  0  0  0  0
    5.8532   -3.3630   -0.0000 N   0  0  0  0  0  0  0  0  0  0  0  0
    1.1681    7.4962   -0.0000 C   0  0  0  0  0  0  0  0  0  0  0  0
    6.3281    1.7072   -0.0000 C   0  0  0  0  0  0  0  0  0  0  0  0
    8.6258    0.3851   -0.0000 C   0  0  0  0  0  0  0  0  0  0  0  0
    7.0855    3.0550   -0.0000 C   0  0  0  0  0  0  0  0  0  0  0  0
    9.3831    1.7329   -0.0000 C   0  0  0  0  0  0  0  0  0  0  0  0
    8.6001    3.0678   -0.0000 C   0  0  0  0  0  0  0  0  0  0  0  0
    9.3574    4.4156   -0.0000 O   0  0  0  0  0  0  0  0  0  0  0  0
   10.8849    4.4284   -0.0000 C   0  0  0  0  0  0  0  0  0  0  0  0
   11.6551    3.0421   -0.0000 C   0  0  0  0  0  0  0  0  0  0  0  0
   11.6936    5.8147   -0.0000 C   0  0  0  0  0  0  0  0  0  0  0  0
   13.2596    3.0550   -0.0000 C   0  0  0  0  0  0  0  0  0  0  0  0
   13.3109    5.8275   -0.0000 C   0  0  0  0  0  0  0  0  0  0  0  0
   14.0682    4.4669   -0.0000 N   0  0  0  0  0  0  0  0  0  0  0  0
   12.2712    3.6069   -0.0000 C   0  0  0  0  0  0  0  0  0  0  0  0
   12.2840    5.4040   -0.0000 C   0  0  0  0  0  0  0  0  0  0  0  0
   15.5957    4.4798   -0.0000 C   0  0  0  0  0  0  0  0  0  0  0  0
   16.1990    3.4272   -0.0000 O   0  0  0  0  0  0  0  0  0  0  0  0
  1  2  2  0  0  0  0
  2  3  1  0  0  0  0
  2  4  1  0  0  0  0
  3  5  1  0  0  0  0
  4  6  2  0  0  0  0
  4  7  1  0  0  0  0
  5  8  1  0  0  0  0
  5  9  1  0  0  0  0
  6 10  1  0  0  0  0
  7 11  2  0  0  0  0
  8 12  2  0  0  0  0
  8 13  1  0  0  0  0
  9 14  1  0  0  0  0
 10 15  1  0  0  0  0
 10 16  2  0  0  0  0
 12 17  1  0  0  0  0
 13 18  2  0  0  0  0
 14 19  1  0  0  0  0
 14 20  1  0  0  0  0
 15 21  2  0  0  0  0
 15 22  1  0  0  0  0
 16 23  1  0  0  0  0
 17 24  2  0  0  0  0
 22 25  2  0  0  0  0
 22 26  1  0  0  0  0
 25 27  1  0  0  0  0
 26 28  2  0  0  0  0
 27 29  2  0  0  0  0
 29 30  1  0  0  0  0
 31 30  1  1  0  0  0
 31 32  1  0  0  0  0
 31 33  1  0  0  0  0
 32 34  1  0  0  0  0
 33 35  1  0  0  0  0
 34 36  1  6  0  0  0
 34 37  1  0  0  0  0
 35 38  1  0  0  0  0
 36 39  1  0  0  0  0
 39 40  2  0  0  0  0
 11 16  1  0  0  0  0
 18 24  1  0  0  0  0
 21 23  1  0  0  0  0
 28 29  1  0  0  0  0
 35 36  1  6  0  0  0
 37 38  1  0  0  0  0
M  END
>  <MolRegNo>
1841518

>  <m>
=

>  <Value>
410

>  <Unit>
nM

>  <Type>
IC50

>  <pValue>
6.39

>  <Ligand Efficiency>
0

>  <Binding Efficiency>
0

>  <Surface Efficiency>
0

>  <Assay Index>
919516

>  <Assay Category>


>  <Assay Organism>
Homo sapiens

>  <Target ID>
17045

>  <Target Name>
Cytochrome P450 3A4

>  <Target Organism>
Homo sapiens

>  <Target Description>
Target is a single protein chain

>  <Sequence Accession>
P08684

>  <Reference>
J Med Chem 58 (8), 3366-3392 (2015)

>  <Pubmed ID>
25763473

>  <DOI>
10.1021/jm501740a

$$$$
1841522
Actelion Java MolfileCreator 1.0

 37 43  0  0  0  0  0  0  0  0999 V2000
    0.0000   -0.0000   -0.0000 F   0  0  0  0  0  0  0  0  0  0  0  0
    1.2001   -0.0814   -0.0000 C   0  0  0  0  0  0  0  0  0  0  0  0
    1.8306   -1.4442   -0.0000 C   0  0  0  0  0  0  0  0  0  0  0  0
    2.0544    1.2001   -0.0000 C   0  0  0  0  0  0  0  0  0  0  0  0
    3.3358   -1.5459   -0.0000 C   0  0  0  0  0  0  0  0  0  0  0  0
    0.9560   -2.6849   -0.0000 C   0  0  0  0  0  0  0  0  0  0  0  0
    3.5596    1.0984   -0.0000 C   0  0  0  0  0  0  0  0  0  0  0  0
    4.1901   -0.2644   -0.0000 C   0  0  0  0  0  0  0  0  0  0  0  0
    1.5866   -4.0477   -0.0000 N   0  0  0  0  0  0  0  0  0  0  0  0
   -0.5899   -2.5426   -0.0000 C   0  0  0  0  0  0  0  0  0  0  0  0
    0.7119   -5.2885   -0.0000 C   0  0  0  0  0  0  0  0  0  0  0  0
   -1.7696   -1.6679   -0.0000 C   0  0  0  0  0  0  0  0  0  0  0  0
   -1.8917   -3.1935   -0.0000 C   0  0  0  0  0  0  0  0  0  0  0  0
   -0.5289   -5.1665   -0.0000 O   0  0  0  0  0  0  0  0  0  0  0  0
    1.3425   -6.6513   -0.0000 C   0  0  0  0  0  0  0  0  0  0  0  0
    2.8680   -6.7530   -0.0000 C   0  0  0  0  0  0  0  0  0  0  0  0
    0.4475   -7.8718   -0.0000 C   0  0  0  0  0  0  0  0  0  0  0  0
    3.4782   -8.1158   -0.0000 C   0  0  0  0  0  0  0  0  0  0  0  0
    1.0780   -9.2549   -0.0000 C   0  0  0  0  0  0  0  0  0  0  0  0
    4.9020   -8.5430   -0.0000 C   0  0  0  0  0  0  0  0  0  0  0  0
    2.5832   -9.3363   -0.0000 C   0  0  0  0  0  0  0  0  0  0  0  0
    4.9427  -10.0075   -0.0000 N   0  0  0  0  0  0  0  0  0  0  0  0
    6.1021   -7.6073   -0.0000 C   0  0  0  0  0  0  0  0  0  0  0  0
    3.4782  -10.5160   -0.0000 N   0  0  0  0  0  0  0  0  0  0  0  0
    5.8987   -6.0818   -0.0000 C   0  0  0  0  0  0  0  0  0  0  0  0
    7.4853   -8.1769   -0.0000 C   0  0  0  0  0  0  0  0  0  0  0  0
    7.0988   -5.1461   -0.0000 C   0  0  0  0  0  0  0  0  0  0  0  0
    8.6854   -7.2412   -0.0000 C   0  0  0  0  0  0  0  0  0  0  0  0
    8.4820   -5.7157   -0.0000 C   0  0  0  0  0  0  0  0  0  0  0  0
    9.5600   -5.0444   -0.0000 N   0  0  0  0  0  0  0  0  0  0  0  0
    9.7227   -3.7833   -0.0000 C   0  0  0  0  0  0  0  0  0  0  0  0
   10.6787   -5.4106   -0.0000 C   0  0  0  0  0  0  0  0  0  0  0  0
   10.2312   -2.6239   -0.0000 C   0  0  0  0  0  0  0  0  0  0  0  0
   10.8618   -3.5392   -0.0000 C   0  0  0  0  0  0  0  0  0  0  0  0
   12.2450   -5.5529   -0.0000 C   0  0  0  0  0  0  0  0  0  0  0  0
   11.4924   -4.5563   -0.0000 C   0  0  0  0  0  0  0  0  0  0  0  0
   12.7941   -3.1121   -0.0000 O   0  0  0  0  0  0  0  0  0  0  0  0
  1  2  1  0  0  0  0
  2  3  2  0  0  0  0
  2  4  1  0  0  0  0
  3  5  1  0  0  0  0
  3  6  1  0  0  0  0
  4  7  2  0  0  0  0
  5  8  2  0  0  0  0
  6  9  1  1  0  0  0
  6 10  1  0  0  0  0
  9 11  1  0  0  0  0
 10 12  1  0  0  0  0
 10 13  1  0  0  0  0
 11 14  2  0  0  0  0
 11 15  1  0  0  0  0
 15 16  2  0  0  0  0
 15 17  1  0  0  0  0
 16 18  1  0  0  0  0
 17 19  2  0  0  0  0
 18 20  1  0  0  0  0
 18 21  2  0  0  0  0
 20 22  2  0  0  0  0
 20 23  1  0  0  0  0
 21 24  1  0  0  0  0
 23 25  2  0  0  0  0
 23 26  1  0  0  0  0
 25 27  1  0  0  0  0
 26 28  2  0  0  0  0
 27 29  2  0  0  0  0
 29 30  1  0  0  0  0
 30 31  1  0  0  0  0
 30 32  1  0  0  0  0
 31 33  1  0  0  0  0
 31 34  1  0  0  0  0
 32 35  1  0  0  0  0
 32 36  1  0  0  0  0
 33 37  1  0  0  0  0
  7  8  1  0  0  0  0
 12 13  1  0  0  0  0
 19 21  1  0  0  0  0
 22 24  1  0  0  0  0
 28 29  1  0  0  0  0
 34 36  1  0  0  0  0
 35 37  1  0  0  0  0
M  END
>  <MolRegNo>
1841522

>  <m>
=

>  <Value>
240

>  <Unit>
nM

>  <Type>
IC50

>  <pValue>
6.62

>  <Ligand Efficiency>
0

>  <Binding Efficiency>
0

>  <Surface Efficiency>
0

>  <Assay Index>
919516

>  <Assay Category>


>  <Assay Organism>
Homo sapiens

>  <Target ID>
17045

>  <Target Name>
Cytochrome P450 3A4

>  <Target Organism>
Homo sapiens

>  <Target Description>
Target is a single protein chain

>  <Sequence Accession>
P08684

>  <Reference>
J Med Chem 58 (8), 3366-3392 (2015)

>  <Pubmed ID>
25763473

>  <DOI>
10.1021/jm501740a

$$$$
1841523
Actelion Java MolfileCreator 1.0

 37 42  0  0  0  0  0  0  0  0999 V2000
    0.0000   -0.0000   -0.0000 Cl  0  0  0  0  0  0  0  0  0  0  0  0
    1.2097   -0.0820   -0.0000 C   0  0  0  0  0  0  0  0  0  0  0  0
    1.8453   -1.4557   -0.0000 C   0  0  0  0  0  0  0  0  0  0  0  0
    2.0708    1.2097   -0.0000 C   0  0  0  0  0  0  0  0  0  0  0  0
    3.3625   -1.5582   -0.0000 C   0  0  0  0  0  0  0  0  0  0  0  0
    0.9636   -2.7064   -0.0000 C   0  0  0  0  0  0  0  0  0  0  0  0
    3.5880    1.1072   -0.0000 C   0  0  0  0  0  0  0  0  0  0  0  0
    4.2236   -0.2665   -0.0000 C   0  0  0  0  0  0  0  0  0  0  0  0
    1.5992   -4.0801   -0.0000 N   0  0  0  0  0  0  0  0  0  0  0  0
   -0.5946   -2.5629   -0.0000 C   0  0  0  0  0  0  0  0  0  0  0  0
    0.7176   -5.3308   -0.0000 C   0  0  0  0  0  0  0  0  0  0  0  0
   -1.1482   -1.4352   -0.0000 C   0  0  0  0  0  0  0  0  0  0  0  0
   -1.3122   -3.5470   -0.0000 C   0  0  0  0  0  0  0  0  0  0  0  0
   -0.5331   -5.2078   -0.0000 O   0  0  0  0  0  0  0  0  0  0  0  0
    1.3532   -6.7045   -0.0000 C   0  0  0  0  0  0  0  0  0  0  0  0
    2.8909   -6.8070   -0.0000 C   0  0  0  0  0  0  0  0  0  0  0  0
    0.4511   -7.9347   -0.0000 C   0  0  0  0  0  0  0  0  0  0  0  0
    3.5060   -8.1807   -0.0000 C   0  0  0  0  0  0  0  0  0  0  0  0
    1.0867   -9.3289   -0.0000 C   0  0  0  0  0  0  0  0  0  0  0  0
    4.9413   -8.6113   -0.0000 C   0  0  0  0  0  0  0  0  0  0  0  0
    2.6039   -9.4109   -0.0000 C   0  0  0  0  0  0  0  0  0  0  0  0
    4.9823  -10.0875   -0.0000 N   0  0  0  0  0  0  0  0  0  0  0  0
    6.1509   -7.6682   -0.0000 C   0  0  0  0  0  0  0  0  0  0  0  0
    3.5060  -10.6001   -0.0000 N   0  0  0  0  0  0  0  0  0  0  0  0
    5.9459   -6.1304   -0.0000 C   0  0  0  0  0  0  0  0  0  0  0  0
    7.5452   -8.2423   -0.0000 C   0  0  0  0  0  0  0  0  0  0  0  0
    7.1556   -5.1873   -0.0000 C   0  0  0  0  0  0  0  0  0  0  0  0
    8.7548   -7.2991   -0.0000 C   0  0  0  0  0  0  0  0  0  0  0  0
    8.5498   -5.7614   -0.0000 C   0  0  0  0  0  0  0  0  0  0  0  0
    9.6365   -5.0848   -0.0000 N   0  0  0  0  0  0  0  0  0  0  0  0
    9.8005   -3.8136   -0.0000 C   0  0  0  0  0  0  0  0  0  0  0  0
   10.7641   -5.4538   -0.0000 C   0  0  0  0  0  0  0  0  0  0  0  0
   10.3131   -2.6449   -0.0000 C   0  0  0  0  0  0  0  0  0  0  0  0
   10.9487   -3.5675   -0.0000 C   0  0  0  0  0  0  0  0  0  0  0  0
   12.3429   -5.5974   -0.0000 C   0  0  0  0  0  0  0  0  0  0  0  0
   11.5843   -4.5927   -0.0000 C   0  0  0  0  0  0  0  0  0  0  0  0
   12.8965   -3.1370   -0.0000 O   0  0  0  0  0  0  0  0  0  0  0  0
  1  2  1  0  0  0  0
  2  3  2  0  0  0  0
  2  4  1  0  0  0  0
  3  5  1  0  0  0  0
  3  6  1  0  0  0  0
  4  7  2  0  0  0  0
  5  8  2  0  0  0  0
  6  9  1  1  0  0  0
  6 10  1  0  0  0  0
  9 11  1  0  0  0  0
 10 12  1  0  0  0  0
 10 13  1  0  0  0  0
 11 14  2  0  0  0  0
 11 15  1  0  0  0  0
 15 16  2  0  0  0  0
 15 17  1  0  0  0  0
 16 18  1  0  0  0  0
 17 19  2  0  0  0  0
 18 20  1  0  0  0  0
 18 21  2  0  0  0  0
 20 22  2  0  0  0  0
 20 23  1  0  0  0  0
 21 24  1  0  0  0  0
 23 25  2  0  0  0  0
 23 26  1  0  0  0  0
 25 27  1  0  0  0  0
 26 28  2  0  0  0  0
 27 29  2  0  0  0  0
 29 30  1  0  0  0  0
 30 31  1  0  0  0  0
 30 32  1  0  0  0  0
 31 33  1  0  0  0  0
 31 34  1  0  0  0  0
 32 35  1  0  0  0  0
 32 36  1  0  0  0  0
 33 37  1  0  0  0  0
  7  8  1  0  0  0  0
 19 21  1  0  0  0  0
 22 24  1  0  0  0  0
 28 29  1  0  0  0  0
 34 36  1  0  0  0  0
 35 37  1  0  0  0  0
M  END
>  <MolRegNo>
1841523

>  <m>
=

>  <Value>
60

>  <Unit>
nM

>  <Type>
IC50

>  <pValue>
7.22

>  <Ligand Efficiency>
0

>  <Binding Efficiency>
0

>  <Surface Efficiency>
0

>  <Assay Index>
919516

>  <Assay Category>


>  <Assay Organism>
Homo sapiens

>  <Target ID>
17045

>  <Target Name>
Cytochrome P450 3A4

>  <Target Organism>
Homo sapiens

>  <Target Description>
Target is a single protein chain

>  <Sequence Accession>
P08684

>  <Reference>
J Med Chem 58 (8), 3366-3392 (2015)

>  <Pubmed ID>
25763473

>  <DOI>
10.1021/jm501740a

$$$$
1841525
Actelion Java MolfileCreator 1.0

 36 42  0  0  0  0  0  0  0  0999 V2000
    0.0000   -0.0000   -0.0000 O   0  0  0  0  0  0  0  0  0  0  0  0
    1.1918   -0.0808   -0.0000 C   0  0  0  0  0  0  0  0  0  0  0  0
    2.0200    1.1918   -0.0000 N   0  0  0  0  0  0  0  0  0  0  0  0
    1.8180   -1.4342   -0.0000 C   0  0  0  0  0  0  0  0  0  0  0  0
    1.3534    2.5856   -0.0000 C   0  0  0  0  0  0  0  0  0  0  0  0
    3.3330   -1.5352   -0.0000 C   0  0  0  0  0  0  0  0  0  0  0  0
    0.9292   -2.6462   -0.0000 C   0  0  0  0  0  0  0  0  0  0  0  0
    2.1816    3.8582   -0.0000 C   0  0  0  0  0  0  0  0  0  0  0  0
   -0.1818    2.7270   -0.0000 C   0  0  0  0  0  0  0  0  0  0  0  0
    3.9390   -2.8886   -0.0000 C   0  0  0  0  0  0  0  0  0  0  0  0
    1.5554   -4.0198   -0.0000 C   0  0  0  0  0  0  0  0  0  0  0  0
    3.6764    3.7572   -0.0000 N   0  0  0  0  0  0  0  0  0  0  0  0
    1.5150    5.2521   -0.0000 C   0  0  0  0  0  0  0  0  0  0  0  0
   -1.3534    3.5956   -0.0000 C   0  0  0  0  0  0  0  0  0  0  0  0
   -1.4746    2.0806   -0.0000 C   0  0  0  0  0  0  0  0  0  0  0  0
    5.3531   -3.3128   -0.0000 C   0  0  0  0  0  0  0  0  0  0  0  0
    3.0502   -4.1006   -0.0000 C   0  0  0  0  0  0  0  0  0  0  0  0
    4.5248    5.0299   -0.0000 C   0  0  0  0  0  0  0  0  0  0  0  0
    2.3634    6.5247   -0.0000 C   0  0  0  0  0  0  0  0  0  0  0  0
    5.3935   -4.7673   -0.0000 N   0  0  0  0  0  0  0  0  0  0  0  0
    6.5449   -2.3836   -0.0000 C   0  0  0  0  0  0  0  0  0  0  0  0
    3.9390   -5.2723   -0.0000 N   0  0  0  0  0  0  0  0  0  0  0  0
    3.8582    6.4237   -0.0000 C   0  0  0  0  0  0  0  0  0  0  0  0
    6.3429   -0.8686   -0.0000 C   0  0  0  0  0  0  0  0  0  0  0  0
    7.9185   -2.9492   -0.0000 C   0  0  0  0  0  0  0  0  0  0  0  0
    7.5347    0.0606   -0.0000 C   0  0  0  0  0  0  0  0  0  0  0  0
    9.1103   -2.0200   -0.0000 C   0  0  0  0  0  0  0  0  0  0  0  0
    8.9083   -0.5050   -0.0000 C   0  0  0  0  0  0  0  0  0  0  0  0
    9.9789    0.1616   -0.0000 N   0  0  0  0  0  0  0  0  0  0  0  0
   10.1405    1.4140   -0.0000 C   0  0  0  0  0  0  0  0  0  0  0  0
   11.0899   -0.2020   -0.0000 C   0  0  0  0  0  0  0  0  0  0  0  0
   10.6455    2.5654   -0.0000 C   0  0  0  0  0  0  0  0  0  0  0  0
   11.2717    1.6564   -0.0000 C   0  0  0  0  0  0  0  0  0  0  0  0
   12.6453   -0.3434   -0.0000 C   0  0  0  0  0  0  0  0  0  0  0  0
   11.8979    0.6464   -0.0000 C   0  0  0  0  0  0  0  0  0  0  0  0
   13.1907    2.0806   -0.0000 O   0  0  0  0  0  0  0  0  0  0  0  0
  1  2  2  0  0  0  0
  2  3  1  0  0  0  0
  2  4  1  0  0  0  0
  5  3  1  1  0  0  0
  4  6  2  0  0  0  0
  4  7  1  0  0  0  0
  5  8  1  0  0  0  0
  5  9  1  0  0  0  0
  6 10  1  0  0  0  0
  7 11  2  0  0  0  0
  8 12  2  0  0  0  0
  8 13  1  0  0  0  0
  9 14  1  0  0  0  0
  9 15  1  0  0  0  0
 10 16  1  0  0  0  0
 10 17  2  0  0  0  0
 12 18  1  0  0  0  0
 13 19  2  0  0  0  0
 16 20  2  0  0  0  0
 16 21  1  0  0  0  0
 17 22  1  0  0  0  0
 18 23  2  0  0  0  0
 21 24  2  0  0  0  0
 21 25  1  0  0  0  0
 24 26  1  0  0  0  0
 25 27  2  0  0  0  0
 26 28  2  0  0  0  0
 28 29  1  0  0  0  0
 29 30  1  0  0  0  0
 29 31  1  0  0  0  0
 30 32  1  0  0  0  0
 30 33  1  0  0  0  0
 31 34  1  0  0  0  0
 31 35  1  0  0  0  0
 32 36  1  0  0  0  0
 11 17  1  0  0  0  0
 14 15  1  0  0  0  0
 19 23  1  0  0  0  0
 20 22  1  0  0  0  0
 27 28  1  0  0  0  0
 33 35  1  0  0  0  0
 34 36  1  0  0  0  0
M  END
>  <MolRegNo>
1841525

>  <m>
=

>  <Value>
1400

>  <Unit>
nM

>  <Type>
IC50

>  <pValue>
5.85

>  <Ligand Efficiency>
0

>  <Binding Efficiency>
0

>  <Surface Efficiency>
0

>  <Assay Index>
919516

>  <Assay Category>


>  <Assay Organism>
Homo sapiens

>  <Target ID>
17045

>  <Target Name>
Cytochrome P450 3A4

>  <Target Organism>
Homo sapiens

>  <Target Description>
Target is a single protein chain

>  <Sequence Accession>
P08684

>  <Reference>
J Med Chem 58 (8), 3366-3392 (2015)

>  <Pubmed ID>
25763473

>  <DOI>
10.1021/jm501740a

$$$$
1841526
Actelion Java MolfileCreator 1.0

 38 44  0  0  0  0  0  0  0  0999 V2000
    0.0000   -0.0000   -0.0000 O   0  0  0  0  0  0  0  0  0  0  0  0
    1.1885   -0.0806   -0.0000 C   0  0  0  0  0  0  0  0  0  0  0  0
    2.0145    1.1885   -0.0000 N   0  0  0  0  0  0  0  0  0  0  0  0
    1.8130   -1.4303   -0.0000 C   0  0  0  0  0  0  0  0  0  0  0  0
    1.3497    2.5785   -0.0000 C   0  0  0  0  0  0  0  0  0  0  0  0
    3.3238   -1.5310   -0.0000 C   0  0  0  0  0  0  0  0  0  0  0  0
    0.9266   -2.6389   -0.0000 C   0  0  0  0  0  0  0  0  0  0  0  0
    2.1756    3.8476   -0.0000 C   0  0  0  0  0  0  0  0  0  0  0  0
   -0.1813    2.7195   -0.0000 C   0  0  0  0  0  0  0  0  0  0  0  0
    3.9282   -2.8807   -0.0000 C   0  0  0  0  0  0  0  0  0  0  0  0
    1.5511   -4.0088   -0.0000 C   0  0  0  0  0  0  0  0  0  0  0  0
    3.6663    3.7469   -0.0000 N   0  0  0  0  0  0  0  0  0  0  0  0
    1.5108    5.2376   -0.0000 C   0  0  0  0  0  0  0  0  0  0  0  0
   -0.9669    4.0289   -0.0000 C   0  0  0  0  0  0  0  0  0  0  0  0
   -1.1684    1.5914   -0.0000 C   0  0  0  0  0  0  0  0  0  0  0  0
    5.3383   -3.3037   -0.0000 C   0  0  0  0  0  0  0  0  0  0  0  0
    3.0418   -4.0893   -0.0000 C   0  0  0  0  0  0  0  0  0  0  0  0
    4.5124    5.0160   -0.0000 C   0  0  0  0  0  0  0  0  0  0  0  0
    2.3569    6.5067   -0.0000 C   0  0  0  0  0  0  0  0  0  0  0  0
   -2.4576    3.6864   -0.0000 C   0  0  0  0  0  0  0  0  0  0  0  0
   -2.5785    2.1958   -0.0000 C   0  0  0  0  0  0  0  0  0  0  0  0
    5.3786   -4.7541   -0.0000 N   0  0  0  0  0  0  0  0  0  0  0  0
    6.5268   -2.3771   -0.0000 C   0  0  0  0  0  0  0  0  0  0  0  0
    3.9282   -5.2577   -0.0000 N   0  0  0  0  0  0  0  0  0  0  0  0
    3.8476    6.4060   -0.0000 C   0  0  0  0  0  0  0  0  0  0  0  0
    6.3254   -0.8662   -0.0000 C   0  0  0  0  0  0  0  0  0  0  0  0
    7.8967   -2.9411   -0.0000 C   0  0  0  0  0  0  0  0  0  0  0  0
    7.5139    0.0604   -0.0000 C   0  0  0  0  0  0  0  0  0  0  0  0
    9.0852   -2.0145   -0.0000 C   0  0  0  0  0  0  0  0  0  0  0  0
    8.8837   -0.5036   -0.0000 C   0  0  0  0  0  0  0  0  0  0  0  0
    9.9514    0.1612   -0.0000 N   0  0  0  0  0  0  0  0  0  0  0  0
   10.1125    1.4101   -0.0000 C   0  0  0  0  0  0  0  0  0  0  0  0
   11.0593   -0.2014   -0.0000 C   0  0  0  0  0  0  0  0  0  0  0  0
   10.6162    2.5584   -0.0000 C   0  0  0  0  0  0  0  0  0  0  0  0
   11.2406    1.6519   -0.0000 C   0  0  0  0  0  0  0  0  0  0  0  0
   12.6105   -0.3425   -0.0000 C   0  0  0  0  0  0  0  0  0  0  0  0
   11.8651    0.6446   -0.0000 C   0  0  0  0  0  0  0  0  0  0  0  0
   13.1544    2.0749   -0.0000 O   0  0  0  0  0  0  0  0  0  0  0  0
  1  2  2  0  0  0  0
  2  3  1  0  0  0  0
  2  4  1  0  0  0  0
  5  3  1  1  0  0  0
  4  6  2  0  0  0  0
  4  7  1  0  0  0  0
  5  8  1  0  0  0  0
  5  9  1  0  0  0  0
  6 10  1  0  0  0  0
  7 11  2  0  0  0  0
  8 12  2  0  0  0  0
  8 13  1  0  0  0  0
  9 14  1  0  0  0  0
  9 15  1  0  0  0  0
 10 16  1  0  0  0  0
 10 17  2  0  0  0  0
 12 18  1  0  0  0  0
 13 19  2  0  0  0  0
 14 20  1  0  0  0  0
 15 21  1  0  0  0  0
 16 22  2  0  0  0  0
 16 23  1  0  0  0  0
 17 24  1  0  0  0  0
 18 25  2  0  0  0  0
 23 26  2  0  0  0  0
 23 27  1  0  0  0  0
 26 28  1  0  0  0  0
 27 29  2  0  0  0  0
 28 30  2  0  0  0  0
 30 31  1  0  0  0  0
 31 32  1  0  0  0  0
 31 33  1  0  0  0  0
 32 34  1  0  0  0  0
 32 35  1  0  0  0  0
 33 36  1  0  0  0  0
 33 37  1  0  0  0  0
 34 38  1  0  0  0  0
 11 17  1  0  0  0  0
 19 25  1  0  0  0  0
 20 21  1  0  0  0  0
 22 24  1  0  0  0  0
 29 30  1  0  0  0  0
 35 37  1  0  0  0  0
 36 38  1  0  0  0  0
M  END
>  <MolRegNo>
1841526

>  <m>
=

>  <Value>
930

>  <Unit>
nM

>  <Type>
IC50

>  <pValue>
6.03

>  <Ligand Efficiency>
0

>  <Binding Efficiency>
0

>  <Surface Efficiency>
0

>  <Assay Index>
919516

>  <Assay Category>


>  <Assay Organism>
Homo sapiens

>  <Target ID>
17045

>  <Target Name>
Cytochrome P450 3A4

>  <Target Organism>
Homo sapiens

>  <Target Description>
Target is a single protein chain

>  <Sequence Accession>
P08684

>  <Reference>
J Med Chem 58 (8), 3366-3392 (2015)

>  <Pubmed ID>
25763473

>  <DOI>
10.1021/jm501740a

$$$$
1841531
Actelion Java MolfileCreator 1.0

 37 43  0  0  0  0  0  0  0  0999 V2000
    0.0000   -0.0000   -0.0000 O   0  0  0  0  0  0  0  0  0  0  0  0
   -1.3189    0.7715   -0.0000 C   0  0  0  0  0  0  0  0  0  0  0  0
   -2.6379    0.0249   -0.0000 N   0  0  0  0  0  0  0  0  0  0  0  0
   -1.3314    2.2895   -0.0000 C   0  0  0  0  0  0  0  0  0  0  0  0
   -2.6503   -1.4682   -0.0000 C   0  0  0  0  0  0  0  0  0  0  0  0
   -0.0373    3.0609   -0.0000 C   0  0  0  0  0  0  0  0  0  0  0  0
   -2.6503    3.0609   -0.0000 C   0  0  0  0  0  0  0  0  0  0  0  0
   -3.9692   -2.2148   -0.0000 C   0  0  0  0  0  0  0  0  0  0  0  0
   -1.3563   -2.2148   -0.0000 C   0  0  0  0  0  0  0  0  0  0  0  0
   -0.0498    4.5789   -0.0000 C   0  0  0  0  0  0  0  0  0  0  0  0
   -2.6627    4.5789   -0.0000 C   0  0  0  0  0  0  0  0  0  0  0  0
   -5.2882   -1.4434   -0.0000 N   0  0  0  0  0  0  0  0  0  0  0  0
   -3.9817   -3.7079   -0.0000 C   0  0  0  0  0  0  0  0  0  0  0  0
   -0.6097   -3.5089   -0.0000 C   0  0  0  0  0  0  0  0  0  0  0  0
    0.1369   -2.2024   -0.0000 C   0  0  0  0  0  0  0  0  0  0  0  0
    1.0576    5.5992   -0.0000 C   0  0  0  0  0  0  0  0  0  0  0  0
   -1.3687    5.3504   -0.0000 C   0  0  0  0  0  0  0  0  0  0  0  0
   -6.6071   -2.1899   -0.0000 C   0  0  0  0  0  0  0  0  0  0  0  0
   -5.3006   -4.4545   -0.0000 C   0  0  0  0  0  0  0  0  0  0  0  0
    0.4355    6.9928   -0.0000 N   0  0  0  0  0  0  0  0  0  0  0  0
    2.5134    5.3006   -0.0000 C   0  0  0  0  0  0  0  0  0  0  0  0
   -1.0701    6.8311   -0.0000 N   0  0  0  0  0  0  0  0  0  0  0  0
   -6.6195   -3.6831   -0.0000 C   0  0  0  0  0  0  0  0  0  0  0  0
    3.5089    6.4329   -0.0000 C   0  0  0  0  0  0  0  0  0  0  0  0
    2.9614    3.8821   -0.0000 C   0  0  0  0  0  0  0  0  0  0  0  0
    4.9647    6.1343   -0.0000 C   0  0  0  0  0  0  0  0  0  0  0  0
    4.4172    3.5835   -0.0000 C   0  0  0  0  0  0  0  0  0  0  0  0
    5.4126    4.7158   -0.0000 C   0  0  0  0  0  0  0  0  0  0  0  0
    6.8684    4.4172   -0.0000 N   0  0  0  0  0  0  0  0  0  0  0  0
    8.1127    3.6084   -0.0000 C   0  0  0  0  0  0  0  0  0  0  0  0
    8.1376    4.6287   -0.0000 C   0  0  0  0  0  0  0  0  0  0  0  0
    9.3072    4.9273   -0.0000 C   0  0  0  0  0  0  0  0  0  0  0  0
    8.4113    2.0406   -0.0000 C   0  0  0  0  0  0  0  0  0  0  0  0
    9.2574    5.9103   -0.0000 C   0  0  0  0  0  0  0  0  0  0  0  0
    8.6726    3.3347   -0.0000 C   0  0  0  0  0  0  0  0  0  0  0  0
   10.5141    5.1015   -0.0000 C   0  0  0  0  0  0  0  0  0  0  0  0
   11.9699    4.7780   -0.0000 O   0  0  0  0  0  0  0  0  0  0  0  0
  1  2  2  0  0  0  0
  2  3  1  0  0  0  0
  2  4  1  0  0  0  0
  5  3  1  1  0  0  0
  4  6  2  0  0  0  0
  4  7  1  0  0  0  0
  5  8  1  0  0  0  0
  5  9  1  0  0  0  0
  6 10  1  0  0  0  0
  7 11  2  0  0  0  0
  8 12  2  0  0  0  0
  8 13  1  0  0  0  0
  9 14  1  0  0  0  0
  9 15  1  0  0  0  0
 10 16  1  0  0  0  0
 10 17  2  0  0  0  0
 12 18  1  0  0  0  0
 13 19  2  0  0  0  0
 16 20  2  0  0  0  0
 16 21  1  0  0  0  0
 17 22  1  0  0  0  0
 18 23  2  0  0  0  0
 21 24  2  0  0  0  0
 21 25  1  0  0  0  0
 24 26  1  0  0  0  0
 25 27  2  0  0  0  0
 26 28  2  0  0  0  0
 28 29  1  0  0  0  0
 30 29  1  6  0  0  0
 31 29  1  6  0  0  0
 30 32  1  0  0  0  0
 30 33  1  0  0  0  0
 31 34  1  0  0  0  0
 31 35  1  0  0  0  0
 32 36  1  0  0  0  0
 36 37  1  0  0  0  0
 11 17  1  0  0  0  0
 14 15  1  0  0  0  0
 19 23  1  0  0  0  0
 20 22  1  0  0  0  0
 27 28  1  0  0  0  0
 33 35  1  0  0  0  0
 34 36  1  0  0  0  0
M  END
>  <MolRegNo>
1841531

>  <m>
=

>  <Value>
2100

>  <Unit>
nM

>  <Type>
IC50

>  <pValue>
5.68

>  <Ligand Efficiency>
0

>  <Binding Efficiency>
0

>  <Surface Efficiency>
0

>  <Assay Index>
919516

>  <Assay Category>


>  <Assay Organism>
Homo sapiens

>  <Target ID>
17045

>  <Target Name>
Cytochrome P450 3A4

>  <Target Organism>
Homo sapiens

>  <Target Description>
Target is a single protein chain

>  <Sequence Accession>
P08684

>  <Reference>
J Med Chem 58 (8), 3366-3392 (2015)

>  <Pubmed ID>
25763473

>  <DOI>
10.1021/jm501740a

$$$$
1841532
Actelion Java MolfileCreator 1.0

 37 43  0  0  0  0  0  0  0  0999 V2000
    0.0000   -0.0000   -0.0000 O   0  0  0  0  0  0  0  0  0  0  0  0
   -1.3189    0.7715   -0.0000 C   0  0  0  0  0  0  0  0  0  0  0  0
   -2.6379    0.0249   -0.0000 N   0  0  0  0  0  0  0  0  0  0  0  0
   -1.3314    2.2895   -0.0000 C   0  0  0  0  0  0  0  0  0  0  0  0
   -2.6503   -1.4682   -0.0000 C   0  0  0  0  0  0  0  0  0  0  0  0
   -0.0373    3.0609   -0.0000 C   0  0  0  0  0  0  0  0  0  0  0  0
   -2.6503    3.0609   -0.0000 C   0  0  0  0  0  0  0  0  0  0  0  0
   -3.9692   -2.2148   -0.0000 C   0  0  0  0  0  0  0  0  0  0  0  0
   -1.3563   -2.2148   -0.0000 C   0  0  0  0  0  0  0  0  0  0  0  0
   -0.0498    4.5789   -0.0000 C   0  0  0  0  0  0  0  0  0  0  0  0
   -2.6627    4.5789   -0.0000 C   0  0  0  0  0  0  0  0  0  0  0  0
   -5.2882   -1.4434   -0.0000 N   0  0  0  0  0  0  0  0  0  0  0  0
   -3.9817   -3.7079   -0.0000 C   0  0  0  0  0  0  0  0  0  0  0  0
   -0.6097   -3.5089   -0.0000 C   0  0  0  0  0  0  0  0  0  0  0  0
    0.1369   -2.2024   -0.0000 C   0  0  0  0  0  0  0  0  0  0  0  0
    1.0576    5.5992   -0.0000 C   0  0  0  0  0  0  0  0  0  0  0  0
   -1.3687    5.3504   -0.0000 C   0  0  0  0  0  0  0  0  0  0  0  0
   -6.6071   -2.1899   -0.0000 C   0  0  0  0  0  0  0  0  0  0  0  0
   -5.3006   -4.4545   -0.0000 C   0  0  0  0  0  0  0  0  0  0  0  0
    0.4355    6.9928   -0.0000 N   0  0  0  0  0  0  0  0  0  0  0  0
    2.5134    5.3006   -0.0000 C   0  0  0  0  0  0  0  0  0  0  0  0
   -1.0701    6.8311   -0.0000 N   0  0  0  0  0  0  0  0  0  0  0  0
   -6.6195   -3.6831   -0.0000 C   0  0  0  0  0  0  0  0  0  0  0  0
    3.5089    6.4329   -0.0000 C   0  0  0  0  0  0  0  0  0  0  0  0
    2.9614    3.8821   -0.0000 C   0  0  0  0  0  0  0  0  0  0  0  0
    4.9647    6.1343   -0.0000 C   0  0  0  0  0  0  0  0  0  0  0  0
    4.4172    3.5835   -0.0000 C   0  0  0  0  0  0  0  0  0  0  0  0
    5.4126    4.7158   -0.0000 C   0  0  0  0  0  0  0  0  0  0  0  0
    6.8684    4.4172   -0.0000 N   0  0  0  0  0  0  0  0  0  0  0  0
    8.1127    3.6084   -0.0000 C   0  0  0  0  0  0  0  0  0  0  0  0
    8.1376    4.6287   -0.0000 C   0  0  0  0  0  0  0  0  0  0  0  0
    9.3072    4.9273   -0.0000 C   0  0  0  0  0  0  0  0  0  0  0  0
    8.4113    2.0406   -0.0000 C   0  0  0  0  0  0  0  0  0  0  0  0
    9.2574    5.9103   -0.0000 C   0  0  0  0  0  0  0  0  0  0  0  0
    8.6726    3.3347   -0.0000 C   0  0  0  0  0  0  0  0  0  0  0  0
   10.5141    5.1015   -0.0000 C   0  0  0  0  0  0  0  0  0  0  0  0
   11.9699    4.7780   -0.0000 O   0  0  0  0  0  0  0  0  0  0  0  0
  1  2  2  0  0  0  0
  2  3  1  0  0  0  0
  2  4  1  0  0  0  0
  5  3  1  1  0  0  0
  4  6  2  0  0  0  0
  4  7  1  0  0  0  0
  5  8  1  0  0  0  0
  5  9  1  0  0  0  0
  6 10  1  0  0  0  0
  7 11  2  0  0  0  0
  8 12  2  0  0  0  0
  8 13  1  0  0  0  0
  9 14  1  0  0  0  0
  9 15  1  0  0  0  0
 10 16  1  0  0  0  0
 10 17  2  0  0  0  0
 12 18  1  0  0  0  0
 13 19  2  0  0  0  0
 16 20  2  0  0  0  0
 16 21  1  0  0  0  0
 17 22  1  0  0  0  0
 18 23  2  0  0  0  0
 21 24  2  0  0  0  0
 21 25  1  0  0  0  0
 24 26  1  0  0  0  0
 25 27  2  0  0  0  0
 26 28  2  0  0  0  0
 28 29  1  0  0  0  0
 30 29  1  1  0  0  0
 31 29  1  1  0  0  0
 30 32  1  0  0  0  0
 30 33  1  0  0  0  0
 31 34  1  0  0  0  0
 31 35  1  0  0  0  0
 32 36  1  0  0  0  0
 36 37  1  0  0  0  0
 11 17  1  0  0  0  0
 14 15  1  0  0  0  0
 19 23  1  0  0  0  0
 20 22  1  0  0  0  0
 27 28  1  0  0  0  0
 33 35  1  0  0  0  0
 34 36  1  0  0  0  0
M  END
>  <MolRegNo>
1841532

>  <m>
=

>  <Value>
1300

>  <Unit>
nM

>  <Type>
IC50

>  <pValue>
5.89

>  <Ligand Efficiency>
0

>  <Binding Efficiency>
0

>  <Surface Efficiency>
0

>  <Assay Index>
919516

>  <Assay Category>


>  <Assay Organism>
Homo sapiens

>  <Target ID>
17045

>  <Target Name>
Cytochrome P450 3A4

>  <Target Organism>
Homo sapiens

>  <Target Description>
Target is a single protein chain

>  <Sequence Accession>
P08684

>  <Reference>
J Med Chem 58 (8), 3366-3392 (2015)

>  <Pubmed ID>
25763473

>  <DOI>
10.1021/jm501740a

$$$$
1841533
Actelion Java MolfileCreator 1.0

 39 45  0  0  0  0  0  0  0  0999 V2000
    0.0000   -0.0000   -0.0000 O   0  0  0  0  0  0  0  0  0  0  0  0
   -1.3194    0.7717   -0.0000 C   0  0  0  0  0  0  0  0  0  0  0  0
   -2.6388    0.0249   -0.0000 N   0  0  0  0  0  0  0  0  0  0  0  0
   -1.3319    2.2903   -0.0000 C   0  0  0  0  0  0  0  0  0  0  0  0
   -2.6513   -1.4688   -0.0000 C   0  0  0  0  0  0  0  0  0  0  0  0
   -0.0373    3.0620   -0.0000 C   0  0  0  0  0  0  0  0  0  0  0  0
   -2.6513    3.0620   -0.0000 C   0  0  0  0  0  0  0  0  0  0  0  0
   -3.9707   -2.2156   -0.0000 C   0  0  0  0  0  0  0  0  0  0  0  0
   -1.3568   -2.2156   -0.0000 C   0  0  0  0  0  0  0  0  0  0  0  0
   -0.0498    4.5806   -0.0000 C   0  0  0  0  0  0  0  0  0  0  0  0
   -2.6637    4.5806   -0.0000 C   0  0  0  0  0  0  0  0  0  0  0  0
   -5.2901   -1.4439   -0.0000 N   0  0  0  0  0  0  0  0  0  0  0  0
   -3.9831   -3.7093   -0.0000 C   0  0  0  0  0  0  0  0  0  0  0  0
    0.0124   -1.5933   -0.0000 C   0  0  0  0  0  0  0  0  0  0  0  0
   -1.2074   -3.6969   -0.0000 C   0  0  0  0  0  0  0  0  0  0  0  0
    1.0580    5.6013   -0.0000 C   0  0  0  0  0  0  0  0  0  0  0  0
   -1.3692    5.3524   -0.0000 C   0  0  0  0  0  0  0  0  0  0  0  0
   -6.6095   -2.1907   -0.0000 C   0  0  0  0  0  0  0  0  0  0  0  0
   -5.3026   -4.4561   -0.0000 C   0  0  0  0  0  0  0  0  0  0  0  0
    1.0082   -2.7011   -0.0000 C   0  0  0  0  0  0  0  0  0  0  0  0
    0.2489   -3.9956   -0.0000 C   0  0  0  0  0  0  0  0  0  0  0  0
    0.4357    6.9954   -0.0000 N   0  0  0  0  0  0  0  0  0  0  0  0
    2.5144    5.3026   -0.0000 C   0  0  0  0  0  0  0  0  0  0  0  0
   -1.0705    6.8336   -0.0000 N   0  0  0  0  0  0  0  0  0  0  0  0
   -6.6220   -3.6844   -0.0000 C   0  0  0  0  0  0  0  0  0  0  0  0
    3.5101    6.4353   -0.0000 C   0  0  0  0  0  0  0  0  0  0  0  0
    2.9625    3.8836   -0.0000 C   0  0  0  0  0  0  0  0  0  0  0  0
    4.9665    6.1365   -0.0000 C   0  0  0  0  0  0  0  0  0  0  0  0
    4.4188    3.5848   -0.0000 C   0  0  0  0  0  0  0  0  0  0  0  0
    5.4146    4.7175   -0.0000 C   0  0  0  0  0  0  0  0  0  0  0  0
    6.8709    4.4188   -0.0000 N   0  0  0  0  0  0  0  0  0  0  0  0
    8.1157    3.6097   -0.0000 C   0  0  0  0  0  0  0  0  0  0  0  0
    8.1406    4.6304   -0.0000 C   0  0  0  0  0  0  0  0  0  0  0  0
    9.3106    4.9291   -0.0000 C   0  0  0  0  0  0  0  0  0  0  0  0
    8.4144    2.0414   -0.0000 C   0  0  0  0  0  0  0  0  0  0  0  0
    9.2608    5.9125   -0.0000 C   0  0  0  0  0  0  0  0  0  0  0  0
    8.6758    3.3359   -0.0000 C   0  0  0  0  0  0  0  0  0  0  0  0
   10.5180    5.1034   -0.0000 C   0  0  0  0  0  0  0  0  0  0  0  0
   11.9743    4.7798   -0.0000 O   0  0  0  0  0  0  0  0  0  0  0  0
  1  2  2  0  0  0  0
  2  3  1  0  0  0  0
  2  4  1  0  0  0  0
  5  3  1  1  0  0  0
  4  6  2  0  0  0  0
  4  7  1  0  0  0  0
  5  8  1  0  0  0  0
  5  9  1  0  0  0  0
  6 10  1  0  0  0  0
  7 11  2  0  0  0  0
  8 12  2  0  0  0  0
  8 13  1  0  0  0  0
  9 14  1  0  0  0  0
  9 15  1  0  0  0  0
 10 16  1  0  0  0  0
 10 17  2  0  0  0  0
 12 18  1  0  0  0  0
 13 19  2  0  0  0  0
 14 20  1  0  0  0  0
 15 21  1  0  0  0  0
 16 22  2  0  0  0  0
 16 23  1  0  0  0  0
 17 24  1  0  0  0  0
 18 25  2  0  0  0  0
 23 26  2  0  0  0  0
 23 27  1  0  0  0  0
 26 28  1  0  0  0  0
 27 29  2  0  0  0  0
 28 30  2  0  0  0  0
 30 31  1  0  0  0  0
 32 31  1  6  0  0  0
 33 31  1  6  0  0  0
 32 34  1  0  0  0  0
 32 35  1  0  0  0  0
 33 36  1  0  0  0  0
 33 37  1  0  0  0  0
 34 38  1  0  0  0  0
 38 39  1  0  0  0  0
 11 17  1  0  0  0  0
 19 25  1  0  0  0  0
 20 21  1  0  0  0  0
 22 24  1  0  0  0  0
 29 30  1  0  0  0  0
 35 37  1  0  0  0  0
 36 38  1  0  0  0  0
M  END
>  <MolRegNo>
1841533

>  <m>
=

>  <Value>
820

>  <Unit>
nM

>  <Type>
IC50

>  <pValue>
6.09

>  <Ligand Efficiency>
0

>  <Binding Efficiency>
0

>  <Surface Efficiency>
0

>  <Assay Index>
919516

>  <Assay Category>


>  <Assay Organism>
Homo sapiens

>  <Target ID>
17045

>  <Target Name>
Cytochrome P450 3A4

>  <Target Organism>
Homo sapiens

>  <Target Description>
Target is a single protein chain

>  <Sequence Accession>
P08684

>  <Reference>
J Med Chem 58 (8), 3366-3392 (2015)

>  <Pubmed ID>
25763473

>  <DOI>
10.1021/jm501740a

$$$$
1841534
Actelion Java MolfileCreator 1.0

 39 45  0  0  0  0  0  0  0  0999 V2000
    0.0000   -0.0000   -0.0000 O   0  0  0  0  0  0  0  0  0  0  0  0
   -1.3194    0.7717   -0.0000 C   0  0  0  0  0  0  0  0  0  0  0  0
   -2.6388    0.0249   -0.0000 N   0  0  0  0  0  0  0  0  0  0  0  0
   -1.3319    2.2903   -0.0000 C   0  0  0  0  0  0  0  0  0  0  0  0
   -2.6513   -1.4688   -0.0000 C   0  0  0  0  0  0  0  0  0  0  0  0
   -0.0373    3.0620   -0.0000 C   0  0  0  0  0  0  0  0  0  0  0  0
   -2.6513    3.0620   -0.0000 C   0  0  0  0  0  0  0  0  0  0  0  0
   -3.9707   -2.2156   -0.0000 C   0  0  0  0  0  0  0  0  0  0  0  0
   -1.3568   -2.2156   -0.0000 C   0  0  0  0  0  0  0  0  0  0  0  0
   -0.0498    4.5806   -0.0000 C   0  0  0  0  0  0  0  0  0  0  0  0
   -2.6637    4.5806   -0.0000 C   0  0  0  0  0  0  0  0  0  0  0  0
   -5.2901   -1.4439   -0.0000 N   0  0  0  0  0  0  0  0  0  0  0  0
   -3.9831   -3.7093   -0.0000 C   0  0  0  0  0  0  0  0  0  0  0  0
    0.0124   -1.5933   -0.0000 C   0  0  0  0  0  0  0  0  0  0  0  0
   -1.2074   -3.6969   -0.0000 C   0  0  0  0  0  0  0  0  0  0  0  0
    1.0580    5.6013   -0.0000 C   0  0  0  0  0  0  0  0  0  0  0  0
   -1.3692    5.3524   -0.0000 C   0  0  0  0  0  0  0  0  0  0  0  0
   -6.6095   -2.1907   -0.0000 C   0  0  0  0  0  0  0  0  0  0  0  0
   -5.3026   -4.4561   -0.0000 C   0  0  0  0  0  0  0  0  0  0  0  0
    1.0082   -2.7011   -0.0000 C   0  0  0  0  0  0  0  0  0  0  0  0
    0.2489   -3.9956   -0.0000 C   0  0  0  0  0  0  0  0  0  0  0  0
    0.4357    6.9954   -0.0000 N   0  0  0  0  0  0  0  0  0  0  0  0
    2.5144    5.3026   -0.0000 C   0  0  0  0  0  0  0  0  0  0  0  0
   -1.0705    6.8336   -0.0000 N   0  0  0  0  0  0  0  0  0  0  0  0
   -6.6220   -3.6844   -0.0000 C   0  0  0  0  0  0  0  0  0  0  0  0
    3.5101    6.4353   -0.0000 C   0  0  0  0  0  0  0  0  0  0  0  0
    2.9625    3.8836   -0.0000 C   0  0  0  0  0  0  0  0  0  0  0  0
    4.9665    6.1365   -0.0000 C   0  0  0  0  0  0  0  0  0  0  0  0
    4.4188    3.5848   -0.0000 C   0  0  0  0  0  0  0  0  0  0  0  0
    5.4146    4.7175   -0.0000 C   0  0  0  0  0  0  0  0  0  0  0  0
    6.8709    4.4188   -0.0000 N   0  0  0  0  0  0  0  0  0  0  0  0
    8.1157    3.6097   -0.0000 C   0  0  0  0  0  0  0  0  0  0  0  0
    8.1406    4.6304   -0.0000 C   0  0  0  0  0  0  0  0  0  0  0  0
    9.3106    4.9291   -0.0000 C   0  0  0  0  0  0  0  0  0  0  0  0
    8.4144    2.0414   -0.0000 C   0  0  0  0  0  0  0  0  0  0  0  0
    9.2608    5.9125   -0.0000 C   0  0  0  0  0  0  0  0  0  0  0  0
    8.6758    3.3359   -0.0000 C   0  0  0  0  0  0  0  0  0  0  0  0
   10.5180    5.1034   -0.0000 C   0  0  0  0  0  0  0  0  0  0  0  0
   11.9743    4.7798   -0.0000 O   0  0  0  0  0  0  0  0  0  0  0  0
  1  2  2  0  0  0  0
  2  3  1  0  0  0  0
  2  4  1  0  0  0  0
  5  3  1  1  0  0  0
  4  6  2  0  0  0  0
  4  7  1  0  0  0  0
  5  8  1  0  0  0  0
  5  9  1  0  0  0  0
  6 10  1  0  0  0  0
  7 11  2  0  0  0  0
  8 12  2  0  0  0  0
  8 13  1  0  0  0  0
  9 14  1  0  0  0  0
  9 15  1  0  0  0  0
 10 16  1  0  0  0  0
 10 17  2  0  0  0  0
 12 18  1  0  0  0  0
 13 19  2  0  0  0  0
 14 20  1  0  0  0  0
 15 21  1  0  0  0  0
 16 22  2  0  0  0  0
 16 23  1  0  0  0  0
 17 24  1  0  0  0  0
 18 25  2  0  0  0  0
 23 26  2  0  0  0  0
 23 27  1  0  0  0  0
 26 28  1  0  0  0  0
 27 29  2  0  0  0  0
 28 30  2  0  0  0  0
 30 31  1  0  0  0  0
 32 31  1  1  0  0  0
 33 31  1  1  0  0  0
 32 34  1  0  0  0  0
 32 35  1  0  0  0  0
 33 36  1  0  0  0  0
 33 37  1  0  0  0  0
 34 38  1  0  0  0  0
 38 39  1  0  0  0  0
 11 17  1  0  0  0  0
 19 25  1  0  0  0  0
 20 21  1  0  0  0  0
 22 24  1  0  0  0  0
 29 30  1  0  0  0  0
 35 37  1  0  0  0  0
 36 38  1  0  0  0  0
M  END
>  <MolRegNo>
1841534

>  <m>
=

>  <Value>
230

>  <Unit>
nM

>  <Type>
IC50

>  <pValue>
6.64

>  <Ligand Efficiency>
0

>  <Binding Efficiency>
0

>  <Surface Efficiency>
0

>  <Assay Index>
919516

>  <Assay Category>


>  <Assay Organism>
Homo sapiens

>  <Target ID>
17045

>  <Target Name>
Cytochrome P450 3A4

>  <Target Organism>
Homo sapiens

>  <Target Description>
Target is a single protein chain

>  <Sequence Accession>
P08684

>  <Reference>
J Med Chem 58 (8), 3366-3392 (2015)

>  <Pubmed ID>
25763473

>  <DOI>
10.1021/jm501740a

$$$$
1841535
Actelion Java MolfileCreator 1.0

 39 45  0  0  0  0  0  0  0  0999 V2000
    0.0000   -0.0000   -0.0000 O   0  0  0  0  0  0  0  0  0  0  0  0
   -1.3194    0.7717   -0.0000 C   0  0  0  0  0  0  0  0  0  0  0  0
   -2.6388    0.0249   -0.0000 N   0  0  0  0  0  0  0  0  0  0  0  0
   -1.3319    2.2903   -0.0000 C   0  0  0  0  0  0  0  0  0  0  0  0
   -2.6513   -1.4688   -0.0000 C   0  0  0  0  0  0  0  0  0  0  0  0
   -0.0373    3.0620   -0.0000 C   0  0  0  0  0  0  0  0  0  0  0  0
   -2.6513    3.0620   -0.0000 C   0  0  0  0  0  0  0  0  0  0  0  0
   -3.9707   -2.2156   -0.0000 C   0  0  0  0  0  0  0  0  0  0  0  0
   -1.3568   -2.2156   -0.0000 C   0  0  0  0  0  0  0  0  0  0  0  0
   -0.0498    4.5806   -0.0000 C   0  0  0  0  0  0  0  0  0  0  0  0
   -2.6637    4.5806   -0.0000 C   0  0  0  0  0  0  0  0  0  0  0  0
   -3.9831   -3.7093   -0.0000 N   0  0  0  0  0  0  0  0  0  0  0  0
   -5.2901   -1.4439   -0.0000 N   0  0  0  0  0  0  0  0  0  0  0  0
    0.0124   -1.5933   -0.0000 C   0  0  0  0  0  0  0  0  0  0  0  0
   -1.2074   -3.6969   -0.0000 C   0  0  0  0  0  0  0  0  0  0  0  0
    1.0580    5.6013   -0.0000 C   0  0  0  0  0  0  0  0  0  0  0  0
   -1.3692    5.3524   -0.0000 C   0  0  0  0  0  0  0  0  0  0  0  0
   -5.3026   -4.4561   -0.0000 C   0  0  0  0  0  0  0  0  0  0  0  0
   -6.6095   -2.1907   -0.0000 C   0  0  0  0  0  0  0  0  0  0  0  0
    1.0082   -2.7011   -0.0000 C   0  0  0  0  0  0  0  0  0  0  0  0
    0.2489   -3.9956   -0.0000 C   0  0  0  0  0  0  0  0  0  0  0  0
    0.4357    6.9954   -0.0000 N   0  0  0  0  0  0  0  0  0  0  0  0
    2.5144    5.3026   -0.0000 C   0  0  0  0  0  0  0  0  0  0  0  0
   -1.0705    6.8336   -0.0000 N   0  0  0  0  0  0  0  0  0  0  0  0
   -6.6220   -3.6844   -0.0000 C   0  0  0  0  0  0  0  0  0  0  0  0
    3.5101    6.4353   -0.0000 C   0  0  0  0  0  0  0  0  0  0  0  0
    2.9625    3.8836   -0.0000 C   0  0  0  0  0  0  0  0  0  0  0  0
    4.9665    6.1365   -0.0000 C   0  0  0  0  0  0  0  0  0  0  0  0
    4.4188    3.5848   -0.0000 C   0  0  0  0  0  0  0  0  0  0  0  0
    5.4146    4.7175   -0.0000 C   0  0  0  0  0  0  0  0  0  0  0  0
    6.8709    4.4188   -0.0000 N   0  0  0  0  0  0  0  0  0  0  0  0
    8.1157    3.6097   -0.0000 C   0  0  0  0  0  0  0  0  0  0  0  0
    8.1406    4.6304   -0.0000 C   0  0  0  0  0  0  0  0  0  0  0  0
    9.3106    4.9291   -0.0000 C   0  0  0  0  0  0  0  0  0  0  0  0
    8.4144    2.0414   -0.0000 C   0  0  0  0  0  0  0  0  0  0  0  0
    9.2608    5.9125   -0.0000 C   0  0  0  0  0  0  0  0  0  0  0  0
    8.6758    3.3359   -0.0000 C   0  0  0  0  0  0  0  0  0  0  0  0
   10.5180    5.1034   -0.0000 C   0  0  0  0  0  0  0  0  0  0  0  0
   11.9743    4.7798   -0.0000 O   0  0  0  0  0  0  0  0  0  0  0  0
  1  2  2  0  0  0  0
  2  3  1  0  0  0  0
  2  4  1  0  0  0  0
  5  3  1  1  0  0  0
  4  6  2  0  0  0  0
  4  7  1  0  0  0  0
  5  8  1  0  0  0  0
  5  9  1  0  0  0  0
  6 10  1  0  0  0  0
  7 11  2  0  0  0  0
  8 12  2  0  0  0  0
  8 13  1  0  0  0  0
  9 14  1  0  0  0  0
  9 15  1  0  0  0  0
 10 16  1  0  0  0  0
 10 17  2  0  0  0  0
 12 18  1  0  0  0  0
 13 19  2  0  0  0  0
 14 20  1  0  0  0  0
 15 21  1  0  0  0  0
 16 22  2  0  0  0  0
 16 23  1  0  0  0  0
 17 24  1  0  0  0  0
 18 25  2  0  0  0  0
 23 26  2  0  0  0  0
 23 27  1  0  0  0  0
 26 28  1  0  0  0  0
 27 29  2  0  0  0  0
 28 30  2  0  0  0  0
 30 31  1  0  0  0  0
 32 31  1  6  0  0  0
 33 31  1  6  0  0  0
 32 34  1  0  0  0  0
 32 35  1  0  0  0  0
 33 36  1  0  0  0  0
 33 37  1  0  0  0  0
 34 38  1  0  0  0  0
 38 39  1  0  0  0  0
 11 17  1  0  0  0  0
 19 25  1  0  0  0  0
 20 21  1  0  0  0  0
 22 24  1  0  0  0  0
 29 30  1  0  0  0  0
 35 37  1  0  0  0  0
 36 38  1  0  0  0  0
M  END
>  <MolRegNo>
1841535

>  <m>
=

>  <Value>
940

>  <Unit>
nM

>  <Type>
IC50

>  <pValue>
6.03

>  <Ligand Efficiency>
0

>  <Binding Efficiency>
0

>  <Surface Efficiency>
0

>  <Assay Index>
919516

>  <Assay Category>


>  <Assay Organism>
Homo sapiens

>  <Target ID>
17045

>  <Target Name>
Cytochrome P450 3A4

>  <Target Organism>
Homo sapiens

>  <Target Description>
Target is a single protein chain

>  <Sequence Accession>
P08684

>  <Reference>
J Med Chem 58 (8), 3366-3392 (2015)

>  <Pubmed ID>
25763473

>  <DOI>
10.1021/jm501740a

$$$$
1841537
Actelion Java MolfileCreator 1.0

 38 43  0  0  0  0  0  0  0  0999 V2000
    0.0000   -0.0000   -0.0000 O   0  0  0  0  0  0  0  0  0  0  0  0
   -1.3186    0.7712   -0.0000 C   0  0  0  0  0  0  0  0  0  0  0  0
   -2.6372    0.0249   -0.0000 N   0  0  0  0  0  0  0  0  0  0  0  0
   -1.3310    2.2889   -0.0000 C   0  0  0  0  0  0  0  0  0  0  0  0
   -2.6496   -1.4679   -0.0000 C   0  0  0  0  0  0  0  0  0  0  0  0
   -0.0373    3.0601   -0.0000 C   0  0  0  0  0  0  0  0  0  0  0  0
   -2.6496    3.0601   -0.0000 C   0  0  0  0  0  0  0  0  0  0  0  0
   -3.9682   -2.2142   -0.0000 C   0  0  0  0  0  0  0  0  0  0  0  0
   -1.3559   -2.2142   -0.0000 C   0  0  0  0  0  0  0  0  0  0  0  0
   -0.0498    4.5777   -0.0000 C   0  0  0  0  0  0  0  0  0  0  0  0
   -2.6620    4.5777   -0.0000 C   0  0  0  0  0  0  0  0  0  0  0  0
   -5.2868   -1.4430   -0.0000 N   0  0  0  0  0  0  0  0  0  0  0  0
   -3.9806   -3.7069   -0.0000 C   0  0  0  0  0  0  0  0  0  0  0  0
   -0.0622   -1.4430   -0.0000 C   0  0  0  0  0  0  0  0  0  0  0  0
    1.0574    5.5977   -0.0000 C   0  0  0  0  0  0  0  0  0  0  0  0
   -1.3683    5.3489   -0.0000 C   0  0  0  0  0  0  0  0  0  0  0  0
   -6.6053   -2.1893   -0.0000 C   0  0  0  0  0  0  0  0  0  0  0  0
   -5.2992   -4.4533   -0.0000 C   0  0  0  0  0  0  0  0  0  0  0  0
    0.8086   -0.2115   -0.0000 C   0  0  0  0  0  0  0  0  0  0  0  0
    1.2315   -2.1893   -0.0000 C   0  0  0  0  0  0  0  0  0  0  0  0
    0.4354    6.9910   -0.0000 N   0  0  0  0  0  0  0  0  0  0  0  0
    2.5128    5.2992   -0.0000 C   0  0  0  0  0  0  0  0  0  0  0  0
   -1.0698    6.8292   -0.0000 N   0  0  0  0  0  0  0  0  0  0  0  0
   -6.6178   -3.6821   -0.0000 C   0  0  0  0  0  0  0  0  0  0  0  0
    3.5079    6.4312   -0.0000 C   0  0  0  0  0  0  0  0  0  0  0  0
    2.9606    3.8811   -0.0000 C   0  0  0  0  0  0  0  0  0  0  0  0
    4.9633    6.1326   -0.0000 C   0  0  0  0  0  0  0  0  0  0  0  0
    4.4160    3.5826   -0.0000 C   0  0  0  0  0  0  0  0  0  0  0  0
    5.4111    4.7145   -0.0000 C   0  0  0  0  0  0  0  0  0  0  0  0
    6.8666    4.4160   -0.0000 N   0  0  0  0  0  0  0  0  0  0  0  0
    8.1105    3.6074   -0.0000 C   0  0  0  0  0  0  0  0  0  0  0  0
    8.1354    4.6275   -0.0000 C   0  0  0  0  0  0  0  0  0  0  0  0
    9.3047    4.9260   -0.0000 C   0  0  0  0  0  0  0  0  0  0  0  0
    8.4090    2.0401   -0.0000 C   0  0  0  0  0  0  0  0  0  0  0  0
    9.2549    5.9087   -0.0000 C   0  0  0  0  0  0  0  0  0  0  0  0
    8.6703    3.3338   -0.0000 C   0  0  0  0  0  0  0  0  0  0  0  0
   10.5113    5.1002   -0.0000 C   0  0  0  0  0  0  0  0  0  0  0  0
   11.9667    4.7767   -0.0000 O   0  0  0  0  0  0  0  0  0  0  0  0
  1  2  2  0  0  0  0
  2  3  1  0  0  0  0
  2  4  1  0  0  0  0
  5  3  1  1  0  0  0
  4  6  2  0  0  0  0
  4  7  1  0  0  0  0
  5  8  1  0  0  0  0
  5  9  1  0  0  0  0
  6 10  1  0  0  0  0
  7 11  2  0  0  0  0
  8 12  2  0  0  0  0
  8 13  1  0  0  0  0
  9 14  1  0  0  0  0
 10 15  1  0  0  0  0
 10 16  2  0  0  0  0
 12 17  1  0  0  0  0
 13 18  2  0  0  0  0
 14 19  1  0  0  0  0
 14 20  1  0  0  0  0
 15 21  2  0  0  0  0
 15 22  1  0  0  0  0
 16 23  1  0  0  0  0
 17 24  2  0  0  0  0
 22 25  2  0  0  0  0
 22 26  1  0  0  0  0
 25 27  1  0  0  0  0
 26 28  2  0  0  0  0
 27 29  2  0  0  0  0
 29 30  1  0  0  0  0
 31 30  1  6  0  0  0
 32 30  1  6  0  0  0
 31 33  1  0  0  0  0
 31 34  1  0  0  0  0
 32 35  1  0  0  0  0
 32 36  1  0  0  0  0
 33 37  1  0  0  0  0
 37 38  1  0  0  0  0
 11 16  1  0  0  0  0
 18 24  1  0  0  0  0
 21 23  1  0  0  0  0
 28 29  1  0  0  0  0
 34 36  1  0  0  0  0
 35 37  1  0  0  0  0
M  END
>  <MolRegNo>
1841537

>  <m>
=

>  <Value>
320

>  <Unit>
nM

>  <Type>
IC50

>  <pValue>
6.5

>  <Ligand Efficiency>
0

>  <Binding Efficiency>
0

>  <Surface Efficiency>
0

>  <Assay Index>
919516

>  <Assay Category>


>  <Assay Organism>
Homo sapiens

>  <Target ID>
17045

>  <Target Name>
Cytochrome P450 3A4

>  <Target Organism>
Homo sapiens

>  <Target Description>
Target is a single protein chain

>  <Sequence Accession>
P08684

>  <Reference>
J Med Chem 58 (8), 3366-3392 (2015)

>  <Pubmed ID>
25763473

>  <DOI>
10.1021/jm501740a

$$$$
1841538
Actelion Java MolfileCreator 1.0

 38 43  0  0  0  0  0  0  0  0999 V2000
    0.0000   -0.0000   -0.0000 O   0  0  0  0  0  0  0  0  0  0  0  0
   -1.3186    0.7712   -0.0000 C   0  0  0  0  0  0  0  0  0  0  0  0
   -2.6372    0.0249   -0.0000 N   0  0  0  0  0  0  0  0  0  0  0  0
   -1.3310    2.2889   -0.0000 C   0  0  0  0  0  0  0  0  0  0  0  0
   -2.6496   -1.4679   -0.0000 C   0  0  0  0  0  0  0  0  0  0  0  0
   -0.0373    3.0601   -0.0000 C   0  0  0  0  0  0  0  0  0  0  0  0
   -2.6496    3.0601   -0.0000 C   0  0  0  0  0  0  0  0  0  0  0  0
   -3.9682   -2.2142   -0.0000 C   0  0  0  0  0  0  0  0  0  0  0  0
   -1.3559   -2.2142   -0.0000 C   0  0  0  0  0  0  0  0  0  0  0  0
   -0.0498    4.5777   -0.0000 C   0  0  0  0  0  0  0  0  0  0  0  0
   -2.6620    4.5777   -0.0000 C   0  0  0  0  0  0  0  0  0  0  0  0
   -5.2868   -1.4430   -0.0000 N   0  0  0  0  0  0  0  0  0  0  0  0
   -3.9806   -3.7069   -0.0000 C   0  0  0  0  0  0  0  0  0  0  0  0
   -0.0622   -1.4430   -0.0000 C   0  0  0  0  0  0  0  0  0  0  0  0
    1.0574    5.5977   -0.0000 C   0  0  0  0  0  0  0  0  0  0  0  0
   -1.3683    5.3489   -0.0000 C   0  0  0  0  0  0  0  0  0  0  0  0
   -6.6053   -2.1893   -0.0000 C   0  0  0  0  0  0  0  0  0  0  0  0
   -5.2992   -4.4533   -0.0000 C   0  0  0  0  0  0  0  0  0  0  0  0
    0.8086   -0.2115   -0.0000 C   0  0  0  0  0  0  0  0  0  0  0  0
    1.2315   -2.1893   -0.0000 C   0  0  0  0  0  0  0  0  0  0  0  0
    0.4354    6.9910   -0.0000 N   0  0  0  0  0  0  0  0  0  0  0  0
    2.5128    5.2992   -0.0000 C   0  0  0  0  0  0  0  0  0  0  0  0
   -1.0698    6.8292   -0.0000 N   0  0  0  0  0  0  0  0  0  0  0  0
   -6.6178   -3.6821   -0.0000 C   0  0  0  0  0  0  0  0  0  0  0  0
    3.5079    6.4312   -0.0000 C   0  0  0  0  0  0  0  0  0  0  0  0
    2.9606    3.8811   -0.0000 C   0  0  0  0  0  0  0  0  0  0  0  0
    4.9633    6.1326   -0.0000 C   0  0  0  0  0  0  0  0  0  0  0  0
    4.4160    3.5826   -0.0000 C   0  0  0  0  0  0  0  0  0  0  0  0
    5.4111    4.7145   -0.0000 C   0  0  0  0  0  0  0  0  0  0  0  0
    6.8666    4.4160   -0.0000 N   0  0  0  0  0  0  0  0  0  0  0  0
    8.1105    3.6074   -0.0000 C   0  0  0  0  0  0  0  0  0  0  0  0
    8.1354    4.6275   -0.0000 C   0  0  0  0  0  0  0  0  0  0  0  0
    9.3047    4.9260   -0.0000 C   0  0  0  0  0  0  0  0  0  0  0  0
    8.4090    2.0401   -0.0000 C   0  0  0  0  0  0  0  0  0  0  0  0
    9.2549    5.9087   -0.0000 C   0  0  0  0  0  0  0  0  0  0  0  0
    8.6703    3.3338   -0.0000 C   0  0  0  0  0  0  0  0  0  0  0  0
   10.5113    5.1002   -0.0000 C   0  0  0  0  0  0  0  0  0  0  0  0
   11.9667    4.7767   -0.0000 O   0  0  0  0  0  0  0  0  0  0  0  0
  1  2  2  0  0  0  0
  2  3  1  0  0  0  0
  2  4  1  0  0  0  0
  5  3  1  1  0  0  0
  4  6  2  0  0  0  0
  4  7  1  0  0  0  0
  5  8  1  0  0  0  0
  5  9  1  0  0  0  0
  6 10  1  0  0  0  0
  7 11  2  0  0  0  0
  8 12  2  0  0  0  0
  8 13  1  0  0  0  0
  9 14  1  0  0  0  0
 10 15  1  0  0  0  0
 10 16  2  0  0  0  0
 12 17  1  0  0  0  0
 13 18  2  0  0  0  0
 14 19  1  0  0  0  0
 14 20  1  0  0  0  0
 15 21  2  0  0  0  0
 15 22  1  0  0  0  0
 16 23  1  0  0  0  0
 17 24  2  0  0  0  0
 22 25  2  0  0  0  0
 22 26  1  0  0  0  0
 25 27  1  0  0  0  0
 26 28  2  0  0  0  0
 27 29  2  0  0  0  0
 29 30  1  0  0  0  0
 31 30  1  1  0  0  0
 32 30  1  1  0  0  0
 31 33  1  0  0  0  0
 31 34  1  0  0  0  0
 32 35  1  0  0  0  0
 32 36  1  0  0  0  0
 33 37  1  0  0  0  0
 37 38  1  0  0  0  0
 11 16  1  0  0  0  0
 18 24  1  0  0  0  0
 21 23  1  0  0  0  0
 28 29  1  0  0  0  0
 34 36  1  0  0  0  0
 35 37  1  0  0  0  0
M  END
>  <MolRegNo>
1841538

>  <m>
=

>  <Value>
290

>  <Unit>
nM

>  <Type>
IC50

>  <pValue>
6.54

>  <Ligand Efficiency>
0

>  <Binding Efficiency>
0

>  <Surface Efficiency>
0

>  <Assay Index>
919516

>  <Assay Category>


>  <Assay Organism>
Homo sapiens

>  <Target ID>
17045

>  <Target Name>
Cytochrome P450 3A4

>  <Target Organism>
Homo sapiens

>  <Target Description>
Target is a single protein chain

>  <Sequence Accession>
P08684

>  <Reference>
J Med Chem 58 (8), 3366-3392 (2015)

>  <Pubmed ID>
25763473

>  <DOI>
10.1021/jm501740a

$$$$
1841539
Actelion Java MolfileCreator 1.0

 38 44  0  0  0  0  0  0  0  0999 V2000
    0.0000   -0.0000   -0.0000 O   0  0  0  0  0  0  0  0  0  0  0  0
   -1.3185    0.7712   -0.0000 C   0  0  0  0  0  0  0  0  0  0  0  0
   -2.6371    0.0249   -0.0000 N   0  0  0  0  0  0  0  0  0  0  0  0
   -1.3310    2.2888   -0.0000 C   0  0  0  0  0  0  0  0  0  0  0  0
   -2.6495   -1.4678   -0.0000 C   0  0  0  0  0  0  0  0  0  0  0  0
   -0.0373    3.0600   -0.0000 C   0  0  0  0  0  0  0  0  0  0  0  0
   -2.6495    3.0600   -0.0000 C   0  0  0  0  0  0  0  0  0  0  0  0
   -3.9680   -2.2141   -0.0000 C   0  0  0  0  0  0  0  0  0  0  0  0
   -1.3559   -2.2141   -0.0000 C   0  0  0  0  0  0  0  0  0  0  0  0
   -0.0498    4.5776   -0.0000 C   0  0  0  0  0  0  0  0  0  0  0  0
   -2.6619    4.5776   -0.0000 C   0  0  0  0  0  0  0  0  0  0  0  0
   -5.2866   -1.4429   -0.0000 N   0  0  0  0  0  0  0  0  0  0  0  0
   -3.9805   -3.7068   -0.0000 C   0  0  0  0  0  0  0  0  0  0  0  0
   -1.3683   -3.7068   -0.0000 C   0  0  0  0  0  0  0  0  0  0  0  0
    1.0573    5.5976   -0.0000 C   0  0  0  0  0  0  0  0  0  0  0  0
   -1.3683    5.3488   -0.0000 C   0  0  0  0  0  0  0  0  0  0  0  0
   -6.6051   -2.1893   -0.0000 C   0  0  0  0  0  0  0  0  0  0  0  0
   -5.2990   -4.4532   -0.0000 C   0  0  0  0  0  0  0  0  0  0  0  0
   -2.1395   -5.0005   -0.0000 C   0  0  0  0  0  0  0  0  0  0  0  0
   -0.6220   -5.0005   -0.0000 C   0  0  0  0  0  0  0  0  0  0  0  0
    0.4354    6.9907   -0.0000 N   0  0  0  0  0  0  0  0  0  0  0  0
    2.5127    5.2990   -0.0000 C   0  0  0  0  0  0  0  0  0  0  0  0
   -1.0698    6.8290   -0.0000 N   0  0  0  0  0  0  0  0  0  0  0  0
   -6.6176   -3.6819   -0.0000 C   0  0  0  0  0  0  0  0  0  0  0  0
    3.5078    6.4310   -0.0000 C   0  0  0  0  0  0  0  0  0  0  0  0
    2.9605    3.8810   -0.0000 C   0  0  0  0  0  0  0  0  0  0  0  0
    4.9632    6.1324   -0.0000 C   0  0  0  0  0  0  0  0  0  0  0  0
    4.4158    3.5824   -0.0000 C   0  0  0  0  0  0  0  0  0  0  0  0
    5.4110    4.7144   -0.0000 C   0  0  0  0  0  0  0  0  0  0  0  0
    6.8663    4.4158   -0.0000 N   0  0  0  0  0  0  0  0  0  0  0  0
    8.1102    3.6073   -0.0000 C   0  0  0  0  0  0  0  0  0  0  0  0
    8.1351    4.6273   -0.0000 C   0  0  0  0  0  0  0  0  0  0  0  0
    9.3044    4.9258   -0.0000 C   0  0  0  0  0  0  0  0  0  0  0  0
    8.4088    2.0400   -0.0000 C   0  0  0  0  0  0  0  0  0  0  0  0
    9.2546    5.9085   -0.0000 C   0  0  0  0  0  0  0  0  0  0  0  0
    8.6700    3.3337   -0.0000 C   0  0  0  0  0  0  0  0  0  0  0  0
   10.5110    5.1000   -0.0000 C   0  0  0  0  0  0  0  0  0  0  0  0
   11.9663    4.7766   -0.0000 O   0  0  0  0  0  0  0  0  0  0  0  0
  1  2  2  0  0  0  0
  2  3  1  0  0  0  0
  2  4  1  0  0  0  0
  5  3  1  1  0  0  0
  4  6  2  0  0  0  0
  4  7  1  0  0  0  0
  5  8  1  0  0  0  0
  5  9  1  0  0  0  0
  6 10  1  0  0  0  0
  7 11  2  0  0  0  0
  8 12  2  0  0  0  0
  8 13  1  0  0  0  0
  9 14  1  0  0  0  0
 10 15  1  0  0  0  0
 10 16  2  0  0  0  0
 12 17  1  0  0  0  0
 13 18  2  0  0  0  0
 14 19  1  0  0  0  0
 14 20  1  0  0  0  0
 15 21  2  0  0  0  0
 15 22  1  0  0  0  0
 16 23  1  0  0  0  0
 17 24  2  0  0  0  0
 22 25  2  0  0  0  0
 22 26  1  0  0  0  0
 25 27  1  0  0  0  0
 26 28  2  0  0  0  0
 27 29  2  0  0  0  0
 29 30  1  0  0  0  0
 31 30  1  1  0  0  0
 32 30  1  1  0  0  0
 31 33  1  0  0  0  0
 31 34  1  0  0  0  0
 32 35  1  0  0  0  0
 32 36  1  0  0  0  0
 33 37  1  0  0  0  0
 37 38  1  0  0  0  0
 11 16  1  0  0  0  0
 18 24  1  0  0  0  0
 19 20  1  0  0  0  0
 21 23  1  0  0  0  0
 28 29  1  0  0  0  0
 34 36  1  0  0  0  0
 35 37  1  0  0  0  0
M  END
>  <MolRegNo>
1841539

>  <m>
=

>  <Value>
1300

>  <Unit>
nM

>  <Type>
IC50

>  <pValue>
5.89

>  <Ligand Efficiency>
0

>  <Binding Efficiency>
0

>  <Surface Efficiency>
0

>  <Assay Index>
919516

>  <Assay Category>


>  <Assay Organism>
Homo sapiens

>  <Target ID>
17045

>  <Target Name>
Cytochrome P450 3A4

>  <Target Organism>
Homo sapiens

>  <Target Description>
Target is a single protein chain

>  <Sequence Accession>
P08684

>  <Reference>
J Med Chem 58 (8), 3366-3392 (2015)

>  <Pubmed ID>
25763473

>  <DOI>
10.1021/jm501740a

$$$$
1841542
Actelion Java MolfileCreator 1.0

 40 46  0  0  0  0  0  0  0  0999 V2000
    0.0000   -0.0000   -0.0000 O   0  0  0  0  0  0  0  0  0  0  0  0
   -0.1725   -1.1861   -0.0000 C   0  0  0  0  0  0  0  0  0  0  0  0
    1.0135   -2.0702   -0.0000 N   0  0  0  0  0  0  0  0  0  0  0  0
   -1.5958   -1.7468   -0.0000 C   0  0  0  0  0  0  0  0  0  0  0  0
    2.3937   -1.4664   -0.0000 C   0  0  0  0  0  0  0  0  0  0  0  0
   -1.8115   -3.2563   -0.0000 C   0  0  0  0  0  0  0  0  0  0  0  0
   -2.8250   -0.7979   -0.0000 C   0  0  0  0  0  0  0  0  0  0  0  0
    3.5798   -2.3506   -0.0000 C   0  0  0  0  0  0  0  0  0  0  0  0
    2.5662    0.0647   -0.0000 C   0  0  0  0  0  0  0  0  0  0  0  0
   -3.2347   -3.7954   -0.0000 C   0  0  0  0  0  0  0  0  0  0  0  0
   -4.2698   -1.3586   -0.0000 C   0  0  0  0  0  0  0  0  0  0  0  0
    3.3641   -3.8386   -0.0000 N   0  0  0  0  0  0  0  0  0  0  0  0
    4.9599   -1.7468   -0.0000 C   0  0  0  0  0  0  0  0  0  0  0  0
    3.8601    0.7979   -0.0000 C   0  0  0  0  0  0  0  0  0  0  0  0
    1.4233    1.0998   -0.0000 C   0  0  0  0  0  0  0  0  0  0  0  0
   -3.7739   -5.1756   -0.0000 C   0  0  0  0  0  0  0  0  0  0  0  0
   -4.4639   -2.8466   -0.0000 C   0  0  0  0  0  0  0  0  0  0  0  0
    4.5502   -4.7443   -0.0000 C   0  0  0  0  0  0  0  0  0  0  0  0
    6.1460   -2.6525   -0.0000 C   0  0  0  0  0  0  0  0  0  0  0  0
    3.5582    2.3074   -0.0000 C   0  0  0  0  0  0  0  0  0  0  0  0
    2.0487    2.5015   -0.0000 C   0  0  0  0  0  0  0  0  0  0  0  0
   -5.2834   -5.1540   -0.0000 N   0  0  0  0  0  0  0  0  0  0  0  0
   -2.9328   -6.4048   -0.0000 C   0  0  0  0  0  0  0  0  0  0  0  0
   -5.7147   -3.6876   -0.0000 N   0  0  0  0  0  0  0  0  0  0  0  0
    5.9303   -4.1405   -0.0000 C   0  0  0  0  0  0  0  0  0  0  0  0
   -1.4448   -6.2538   -0.0000 C   0  0  0  0  0  0  0  0  0  0  0  0
   -3.6013   -7.7634   -0.0000 C   0  0  0  0  0  0  0  0  0  0  0  0
   -0.6038   -7.4830   -0.0000 C   0  0  0  0  0  0  0  0  0  0  0  0
   -2.7603   -8.9926   -0.0000 C   0  0  0  0  0  0  0  0  0  0  0  0
   -1.2508   -8.8200   -0.0000 C   0  0  0  0  0  0  0  0  0  0  0  0
   -1.2508  -10.2002   -0.0000 N   0  0  0  0  0  0  0  0  0  0  0  0
   -1.4880  -11.5803   -0.0000 C   0  0  0  0  0  0  0  0  0  0  0  0
   -0.7332  -12.9174   -0.0000 C   0  0  0  0  0  0  0  0  0  0  0  0
   -2.8034  -12.2489   -0.0000 C   0  0  0  0  0  0  0  0  0  0  0  0
   -0.1078  -12.1626   -0.0000 C   0  0  0  0  0  0  0  0  0  0  0  0
   -2.1134  -12.9389   -0.0000 C   0  0  0  0  0  0  0  0  0  0  0  0
    0.4529  -13.4996   -0.0000 C   0  0  0  0  0  0  0  0  0  0  0  0
   -3.1269  -13.6721   -0.0000 O   0  0  0  0  0  0  0  0  0  0  0  0
    1.0782  -12.0332   -0.0000 C   0  0  0  0  0  0  0  0  0  0  0  0
    2.0487  -11.3216   -0.0000 O   0  0  0  0  0  0  0  0  0  0  0  0
  1  2  2  0  0  0  0
  2  3  1  0  0  0  0
  2  4  1  0  0  0  0
  5  3  1  1  0  0  0
  4  6  2  0  0  0  0
  4  7  1  0  0  0  0
  5  8  1  0  0  0  0
  5  9  1  0  0  0  0
  6 10  1  0  0  0  0
  7 11  2  0  0  0  0
  8 12  2  0  0  0  0
  8 13  1  0  0  0  0
  9 14  1  0  0  0  0
  9 15  1  0  0  0  0
 10 16  1  0  0  0  0
 10 17  2  0  0  0  0
 12 18  1  0  0  0  0
 13 19  2  0  0  0  0
 14 20  1  0  0  0  0
 15 21  1  0  0  0  0
 16 22  2  0  0  0  0
 16 23  1  0  0  0  0
 17 24  1  0  0  0  0
 18 25  2  0  0  0  0
 23 26  2  0  0  0  0
 23 27  1  0  0  0  0
 26 28  1  0  0  0  0
 27 29  2  0  0  0  0
 28 30  2  0  0  0  0
 30 31  1  0  0  0  0
 32 31  1  1  0  0  0
 33 31  1  1  0  0  0
 32 34  1  0  0  0  0
 32 35  1  0  0  0  0
 33 36  1  0  0  0  0
 33 37  1  0  0  0  0
 34 38  1  0  0  0  0
 35 39  1  0  0  0  0
 39 40  1  0  0  0  0
 11 17  1  0  0  0  0
 19 25  1  0  0  0  0
 20 21  1  0  0  0  0
 22 24  1  0  0  0  0
 29 30  1  0  0  0  0
 36 38  1  0  0  0  0
 37 39  1  0  0  0  0
M  END
>  <MolRegNo>
1841542

>  <m>
=

>  <Value>
330

>  <Unit>
nM

>  <Type>
IC50

>  <pValue>
6.48

>  <Ligand Efficiency>
0

>  <Binding Efficiency>
0

>  <Surface Efficiency>
0

>  <Assay Index>
919516

>  <Assay Category>


>  <Assay Organism>
Homo sapiens

>  <Target ID>
17045

>  <Target Name>
Cytochrome P450 3A4

>  <Target Organism>
Homo sapiens

>  <Target Description>
Target is a single protein chain

>  <Sequence Accession>
P08684

>  <Reference>
J Med Chem 58 (8), 3366-3392 (2015)

>  <Pubmed ID>
25763473

>  <DOI>
10.1021/jm501740a

$$$$
395394
Actelion Java MolfileCreator 1.0

 28 32  0  0  0  0  0  0  0  0999 V2000
    0.0000   -0.0000   -0.0000 O   0  0  0  0  0  0  0  0  0  0  0  0
   -0.0119   -1.4989   -0.0000 C   0  0  0  0  0  0  0  0  0  0  0  0
    1.1777   -2.3554   -0.0000 N   0  0  0  0  0  0  0  0  0  0  0  0
   -1.2253   -2.3673   -0.0000 N   0  0  0  0  0  0  0  0  0  0  0  0
    0.7138   -3.7592   -0.0000 C   0  0  0  0  0  0  0  0  0  0  0  0
    2.6052   -1.8796   -0.0000 C   0  0  0  0  0  0  0  0  0  0  0  0
   -0.7732   -3.7711   -0.0000 C   0  0  0  0  0  0  0  0  0  0  0  0
   -2.6766   -1.8915   -0.0000 C   0  0  0  0  0  0  0  0  0  0  0  0
    1.4632   -5.0558   -0.0000 C   0  0  0  0  0  0  0  0  0  0  0  0
    4.0685   -2.1770   -0.0000 C   0  0  0  0  0  0  0  0  0  0  0  0
    3.6045   -0.7376   -0.0000 C   0  0  0  0  0  0  0  0  0  0  0  0
   -1.5346   -5.0558   -0.0000 C   0  0  0  0  0  0  0  0  0  0  0  0
   -3.8067   -2.8907   -0.0000 C   0  0  0  0  0  0  0  0  0  0  0  0
    0.7019   -6.3406   -0.0000 C   0  0  0  0  0  0  0  0  0  0  0  0
   -0.7970   -6.3525   -0.0000 N   0  0  0  0  0  0  0  0  0  0  0  0
   -5.2937   -2.5695   -0.0000 N   0  0  0  0  0  0  0  0  0  0  0  0
   -3.6521   -4.3896   -0.0000 N   0  0  0  0  0  0  0  0  0  0  0  0
   -6.0551   -3.8662   -0.0000 C   0  0  0  0  0  0  0  0  0  0  0  0
   -5.0439   -4.9963   -0.0000 C   0  0  0  0  0  0  0  0  0  0  0  0
   -2.3554   -5.1272   -0.0000 C   0  0  0  0  0  0  0  0  0  0  0  0
   -7.5302   -4.1636   -0.0000 C   0  0  0  0  0  0  0  0  0  0  0  0
   -5.5198   -6.4120   -0.0000 C   0  0  0  0  0  0  0  0  0  0  0  0
   -2.3673   -6.6261   -0.0000 C   0  0  0  0  0  0  0  0  0  0  0  0
   -8.0060   -5.5793   -0.0000 C   0  0  0  0  0  0  0  0  0  0  0  0
   -6.9949   -6.7213   -0.0000 C   0  0  0  0  0  0  0  0  0  0  0  0
   -1.0706   -7.3637   -0.0000 C   0  0  0  0  0  0  0  0  0  0  0  0
   -1.0825   -8.8626   -0.0000 C   0  0  0  0  0  0  0  0  0  0  0  0
    0.2141   -9.6001   -0.0000 O   0  0  0  0  0  0  0  0  0  0  0  0
  1  2  2  0  0  0  0
  2  3  1  0  0  0  0
  2  4  1  0  0  0  0
  3  5  1  0  0  0  0
  3  6  1  0  0  0  0
  4  7  1  0  0  0  0
  4  8  1  0  0  0  0
  5  9  1  0  0  0  0
  6 10  1  0  0  0  0
  6 11  1  0  0  0  0
  7 12  1  0  0  0  0
  8 13  1  0  0  0  0
  9 14  2  0  0  0  0
 12 15  2  0  0  0  0
 13 16  2  0  0  0  0
 13 17  1  0  0  0  0
 16 18  1  0  0  0  0
 17 19  1  0  0  0  0
 17 20  1  0  0  0  0
 18 21  1  0  0  0  0
 19 22  1  0  0  0  0
 20 23  1  0  0  0  0
 21 24  2  0  0  0  0
 22 25  2  0  0  0  0
 23 26  1  0  0  0  0
 26 27  1  0  0  0  0
 27 28  1  0  0  0  0
  5  7  2  0  0  0  0
 10 11  1  0  0  0  0
 14 15  1  0  0  0  0
 18 19  2  0  0  0  0
 24 25  1  0  0  0  0
M  END
>  <MolRegNo>
395394

>  <m>
=

>  <Value>
27500

>  <Unit>
nM

>  <Type>
IC50

>  <pValue>
4.56

>  <Ligand Efficiency>
0

>  <Binding Efficiency>
0

>  <Surface Efficiency>
0

>  <Assay Index>
922078

>  <Assay Category>


>  <Assay Organism>
Homo sapiens

>  <Target ID>
17045

>  <Target Name>
Cytochrome P450 3A4

>  <Target Organism>
Homo sapiens

>  <Target Description>
Target is a single protein chain

>  <Sequence Accession>
P08684

>  <Reference>
ACS Med Chem Lett 6 (3), 359-362 (2015)

>  <Pubmed ID>
25941547

>  <DOI>
10.1021/acsmedchemlett.5b00008

$$$$
303542
Actelion Java MolfileCreator 1.0

 26 28  0  0  0  0  0  0  0  0999 V2000
    0.0000   -0.0000   -0.0000 F   0  0  0  0  0  0  0  0  0  0  0  0
   -1.2942   -0.7480   -0.0000 C   0  0  0  0  0  0  0  0  0  0  0  0
   -0.5462   -2.0303   -0.0000 F   0  0  0  0  0  0  0  0  0  0  0  0
   -2.0659    0.5580   -0.0000 F   0  0  0  0  0  0  0  0  0  0  0  0
   -2.6002   -1.4960   -0.0000 C   0  0  0  0  0  0  0  0  0  0  0  0
   -3.9181   -0.7480   -0.0000 N   0  0  0  0  0  0  0  0  0  0  0  0
   -2.6002   -2.9920   -0.0000 C   0  0  0  0  0  0  0  0  0  0  0  0
   -5.2241   -1.4841   -0.0000 C   0  0  0  0  0  0  0  0  0  0  0  0
   -3.9062   -3.7400   -0.0000 C   0  0  0  0  0  0  0  0  0  0  0  0
   -5.2360   -2.9801   -0.0000 C   0  0  0  0  0  0  0  0  0  0  0  0
   -6.5420   -0.7243   -0.0000 C   0  0  0  0  0  0  0  0  0  0  0  0
   -3.9181   -5.2241   -0.0000 C   0  0  0  0  0  0  0  0  0  0  0  0
   -6.5539   -3.7281   -0.0000 C   0  0  0  0  0  0  0  0  0  0  0  0
   -7.8480   -1.4604   -0.0000 C   0  0  0  0  0  0  0  0  0  0  0  0
   -6.5658    0.7836   -0.0000 C   0  0  0  0  0  0  0  0  0  0  0  0
   -5.2241   -5.9602   -0.0000 O   0  0  0  0  0  0  0  0  0  0  0  0
   -2.6358   -5.9602   -0.0000 C   0  0  0  0  0  0  0  0  0  0  0  0
   -7.8599   -2.9682   -0.0000 C   0  0  0  0  0  0  0  0  0  0  0  0
   -6.5895    2.3034   -0.0000 F   0  0  0  0  0  0  0  0  0  0  0  0
   -5.0816    0.8074   -0.0000 F   0  0  0  0  0  0  0  0  0  0  0  0
   -8.0736    0.7717   -0.0000 F   0  0  0  0  0  0  0  0  0  0  0  0
   -2.6477   -7.4444   -0.0000 N   0  0  0  0  0  0  0  0  0  0  0  0
   -1.3535   -5.1885   -0.0000 C   0  0  0  0  0  0  0  0  0  0  0  0
   -1.3654   -8.1805   -0.0000 C   0  0  0  0  0  0  0  0  0  0  0  0
   -0.0712   -5.9365   -0.0000 C   0  0  0  0  0  0  0  0  0  0  0  0
   -0.0831   -7.4206   -0.0000 C   0  0  0  0  0  0  0  0  0  0  0  0
  1  2  1  0  0  0  0
  2  3  1  0  0  0  0
  2  4  1  0  0  0  0
  2  5  1  0  0  0  0
  5  6  2  0  0  0  0
  5  7  1  0  0  0  0
  6  8  1  0  0  0  0
  7  9  2  0  0  0  0
  8 10  1  0  0  0  0
  8 11  2  0  0  0  0
  9 12  1  0  0  0  0
 10 13  2  0  0  0  0
 11 14  1  0  0  0  0
 11 15  1  0  0  0  0
 12 16  1  6  0  0  0
 12 17  1  0  0  0  0
 13 18  1  0  0  0  0
 15 19  1  0  0  0  0
 15 20  1  0  0  0  0
 15 21  1  0  0  0  0
 17 22  1  6  0  0  0
 17 23  1  0  0  0  0
 22 24  1  0  0  0  0
 23 25  1  0  0  0  0
 24 26  1  0  0  0  0
  9 10  1  0  0  0  0
 14 18  2  0  0  0  0
 25 26  1  0  0  0  0
M  END
>  <MolRegNo>
303542

>  <m>
=

>  <Value>
667

>  <Unit>
nM

>  <Type>
IC50

>  <pValue>
6.18

>  <Ligand Efficiency>
0

>  <Binding Efficiency>
0

>  <Surface Efficiency>
0

>  <Assay Index>
932686

>  <Assay Category>


>  <Assay Organism>
Homo sapiens

>  <Target ID>
17045

>  <Target Name>
Cytochrome P450 3A4

>  <Target Organism>
Homo sapiens

>  <Target Description>
Target is a single protein chain

>  <Sequence Accession>
P08684

>  <Reference>
Drug Metab Dispos 40 (5), 943-951 (2012)

>  <Pubmed ID>
22328583

>  <DOI>
10.1124/dmd.111.043505

$$$$
1180011
Actelion Java MolfileCreator 1.0

 49 55  0  0  0  0  0  0  0  0999 V2000
    0.0000   -0.0000   -0.0000 Cl  0  0  0  0  0  0  0  0  0  0  0  0
    1.3001   -0.7276   -0.0000 C   0  0  0  0  0  0  0  0  0  0  0  0
    1.3001   -2.2185   -0.0000 C   0  0  0  0  0  0  0  0  0  0  0  0
    2.5882    0.0477   -0.0000 C   0  0  0  0  0  0  0  0  0  0  0  0
    2.6002   -2.9580   -0.0000 C   0  0  0  0  0  0  0  0  0  0  0  0
   -0.0119   -2.9699   -0.0000 C   0  0  0  0  0  0  0  0  0  0  0  0
    3.9003   -0.6918   -0.0000 C   0  0  0  0  0  0  0  0  0  0  0  0
    3.8883   -2.1827   -0.0000 C   0  0  0  0  0  0  0  0  0  0  0  0
    1.1927   -3.8525   -0.0000 O   0  0  0  0  0  0  0  0  0  0  0  0
   -1.2404   -3.8525   -0.0000 O   0  0  0  0  0  0  0  0  0  0  0  0
   -1.3359   -2.2185   -0.0000 C   0  0  0  0  0  0  0  0  0  0  0  0
    5.1884    0.0835   -0.0000 Cl  0  0  0  0  0  0  0  0  0  0  0  0
    0.7156   -5.2719   -0.0000 C   0  0  0  0  0  0  0  0  0  0  0  0
   -0.7872   -5.2719   -0.0000 C   0  0  0  0  0  0  0  0  0  0  0  0
   -2.6479   -2.9699   -0.0000 N   0  0  0  0  0  0  0  0  0  0  0  0
    1.4432   -6.5720   -0.0000 C   0  0  0  0  0  0  0  0  0  0  0  0
   -4.1149   -2.5286   -0.0000 N   0  0  0  0  0  0  0  0  0  0  0  0
   -2.6240   -4.4608   -0.0000 C   0  0  0  0  0  0  0  0  0  0  0  0
    2.9461   -6.5839   -0.0000 O   0  0  0  0  0  0  0  0  0  0  0  0
   -4.9737   -3.7571   -0.0000 C   0  0  0  0  0  0  0  0  0  0  0  0
   -4.0553   -4.9499   -0.0000 N   0  0  0  0  0  0  0  0  0  0  0  0
    3.6736   -7.8840   -0.0000 C   0  0  0  0  0  0  0  0  0  0  0  0
    2.8864   -9.1602   -0.0000 C   0  0  0  0  0  0  0  0  0  0  0  0
    5.1646   -7.8840   -0.0000 C   0  0  0  0  0  0  0  0  0  0  0  0
    3.6140  -10.4603   -0.0000 C   0  0  0  0  0  0  0  0  0  0  0  0
    5.8921   -9.1841   -0.0000 C   0  0  0  0  0  0  0  0  0  0  0  0
    5.1168  -10.4722   -0.0000 C   0  0  0  0  0  0  0  0  0  0  0  0
    5.8444  -11.7723   -0.0000 N   0  0  0  0  0  0  0  0  0  0  0  0
    5.0572  -13.0486   -0.0000 C   0  0  0  0  0  0  0  0  0  0  0  0
    7.3353  -11.7604   -0.0000 C   0  0  0  0  0  0  0  0  0  0  0  0
    5.7729  -14.3486   -0.0000 C   0  0  0  0  0  0  0  0  0  0  0  0
    8.0629  -13.0724   -0.0000 C   0  0  0  0  0  0  0  0  0  0  0  0
    7.2757  -14.3606   -0.0000 N   0  0  0  0  0  0  0  0  0  0  0  0
    8.0033  -15.6726   -0.0000 C   0  0  0  0  0  0  0  0  0  0  0  0
    7.2041  -16.9488   -0.0000 C   0  0  0  0  0  0  0  0  0  0  0  0
    9.4942  -15.6726   -0.0000 C   0  0  0  0  0  0  0  0  0  0  0  0
    7.9198  -18.2489   -0.0000 C   0  0  0  0  0  0  0  0  0  0  0  0
   10.2218  -16.9727   -0.0000 C   0  0  0  0  0  0  0  0  0  0  0  0
    9.4226  -18.2608   -0.0000 C   0  0  0  0  0  0  0  0  0  0  0  0
   10.1502  -19.5609   -0.0000 N   0  0  0  0  0  0  0  0  0  0  0  0
   11.6530  -19.5132   -0.0000 C   0  0  0  0  0  0  0  0  0  0  0  0
    9.7089  -20.9922   -0.0000 C   0  0  0  0  0  0  0  0  0  0  0  0
   12.4999  -18.2608   -0.0000 O   0  0  0  0  0  0  0  0  0  0  0  0
   12.1421  -20.9206   -0.0000 N   0  0  0  0  0  0  0  0  0  0  0  0
   10.9374  -21.8390   -0.0000 N   0  0  0  0  0  0  0  0  0  0  0  0
   13.6449  -20.8968   -0.0000 C   0  0  0  0  0  0  0  0  0  0  0  0
   14.3963  -22.1849   -0.0000 C   0  0  0  0  0  0  0  0  0  0  0  0
   14.3725  -19.5728   -0.0000 C   0  0  0  0  0  0  0  0  0  0  0  0
   15.8992  -22.1611   -0.0000 C   0  0  0  0  0  0  0  0  0  0  0  0
  1  2  1  0  0  0  0
  2  3  2  0  0  0  0
  2  4  1  0  0  0  0
  3  5  1  0  0  0  0
  3  6  1  0  0  0  0
  4  7  2  0  0  0  0
  5  8  2  0  0  0  0
  6  9  1  0  0  0  0
  6 10  1  0  0  0  0
  6 11  1  1  0  0  0
  7 12  1  0  0  0  0
  9 13  1  0  0  0  0
 10 14  1  0  0  0  0
 11 15  1  0  0  0  0
 13 16  1  1  0  0  0
 15 17  1  0  0  0  0
 15 18  1  0  0  0  0
 16 19  1  0  0  0  0
 17 20  2  0  0  0  0
 18 21  2  0  0  0  0
 19 22  1  0  0  0  0
 22 23  2  0  0  0  0
 22 24  1  0  0  0  0
 23 25  1  0  0  0  0
 24 26  2  0  0  0  0
 25 27  2  0  0  0  0
 27 28  1  0  0  0  0
 28 29  1  0  0  0  0
 28 30  1  0  0  0  0
 29 31  1  0  0  0  0
 30 32  1  0  0  0  0
 31 33  1  0  0  0  0
 33 34  1  0  0  0  0
 34 35  2  0  0  0  0
 34 36  1  0  0  0  0
 35 37  1  0  0  0  0
 36 38  2  0  0  0  0
 37 39  2  0  0  0  0
 39 40  1  0  0  0  0
 40 41  1  0  0  0  0
 40 42  1  0  0  0  0
 41 43  2  0  0  0  0
 41 44  1  0  0  0  0
 42 45  2  0  0  0  0
 46 44  1  6  0  0  0
 46 47  1  0  0  0  0
 46 48  1  0  0  0  0
 47 49  1  0  0  0  0
  7  8  1  0  0  0  0
 13 14  1  0  0  0  0
 20 21  1  0  0  0  0
 26 27  1  0  0  0  0
 32 33  1  0  0  0  0
 38 39  1  0  0  0  0
 44 45  1  0  0  0  0
M  END
>  <MolRegNo>
1180011

>  <m>
=

>  <Value>
4

>  <Unit>
nM

>  <Type>
IC50

>  <pValue>
8.4

>  <Ligand Efficiency>
0

>  <Binding Efficiency>
0

>  <Surface Efficiency>
0

>  <Assay Index>
934387

>  <Assay Category>


>  <Assay Organism>
Homo sapiens

>  <Target ID>
17045

>  <Target Name>
Cytochrome P450 3A4

>  <Target Organism>
Homo sapiens

>  <Target Description>
Target is a single protein chain

>  <Sequence Accession>
P08684

>  <Reference>
Drug Metab Dispos 40 (3), 426-435 (2012)

>  <Pubmed ID>
22106171

>  <DOI>
10.1124/dmd.111.042739

$$$$
1180010
Actelion Java MolfileCreator 1.0

 49 55  0  0  0  0  0  0  0  0999 V2000
    0.0000   -0.0000   -0.0000 Cl  0  0  0  0  0  0  0  0  0  0  0  0
    1.3001   -0.7276   -0.0000 C   0  0  0  0  0  0  0  0  0  0  0  0
    1.3001   -2.2185   -0.0000 C   0  0  0  0  0  0  0  0  0  0  0  0
    2.5882    0.0477   -0.0000 C   0  0  0  0  0  0  0  0  0  0  0  0
    2.6002   -2.9580   -0.0000 C   0  0  0  0  0  0  0  0  0  0  0  0
   -0.0119   -2.9699   -0.0000 C   0  0  0  0  0  0  0  0  0  0  0  0
    3.9003   -0.6918   -0.0000 C   0  0  0  0  0  0  0  0  0  0  0  0
    3.8883   -2.1827   -0.0000 C   0  0  0  0  0  0  0  0  0  0  0  0
    1.1927   -3.8525   -0.0000 O   0  0  0  0  0  0  0  0  0  0  0  0
   -1.2404   -3.8525   -0.0000 O   0  0  0  0  0  0  0  0  0  0  0  0
   -1.3359   -2.2185   -0.0000 C   0  0  0  0  0  0  0  0  0  0  0  0
    5.1884    0.0835   -0.0000 Cl  0  0  0  0  0  0  0  0  0  0  0  0
    0.7156   -5.2719   -0.0000 C   0  0  0  0  0  0  0  0  0  0  0  0
   -0.7872   -5.2719   -0.0000 C   0  0  0  0  0  0  0  0  0  0  0  0
   -2.6479   -2.9699   -0.0000 N   0  0  0  0  0  0  0  0  0  0  0  0
    1.4432   -6.5720   -0.0000 C   0  0  0  0  0  0  0  0  0  0  0  0
   -4.1149   -2.5286   -0.0000 N   0  0  0  0  0  0  0  0  0  0  0  0
   -2.6240   -4.4608   -0.0000 C   0  0  0  0  0  0  0  0  0  0  0  0
    2.9461   -6.5839   -0.0000 O   0  0  0  0  0  0  0  0  0  0  0  0
   -4.9737   -3.7571   -0.0000 C   0  0  0  0  0  0  0  0  0  0  0  0
   -4.0553   -4.9499   -0.0000 N   0  0  0  0  0  0  0  0  0  0  0  0
    3.6736   -7.8840   -0.0000 C   0  0  0  0  0  0  0  0  0  0  0  0
    2.8864   -9.1602   -0.0000 C   0  0  0  0  0  0  0  0  0  0  0  0
    5.1646   -7.8840   -0.0000 C   0  0  0  0  0  0  0  0  0  0  0  0
    3.6140  -10.4603   -0.0000 C   0  0  0  0  0  0  0  0  0  0  0  0
    5.8921   -9.1841   -0.0000 C   0  0  0  0  0  0  0  0  0  0  0  0
    5.1168  -10.4722   -0.0000 C   0  0  0  0  0  0  0  0  0  0  0  0
    5.8444  -11.7723   -0.0000 N   0  0  0  0  0  0  0  0  0  0  0  0
    5.0572  -13.0486   -0.0000 C   0  0  0  0  0  0  0  0  0  0  0  0
    7.3353  -11.7604   -0.0000 C   0  0  0  0  0  0  0  0  0  0  0  0
    5.7729  -14.3486   -0.0000 C   0  0  0  0  0  0  0  0  0  0  0  0
    8.0629  -13.0724   -0.0000 C   0  0  0  0  0  0  0  0  0  0  0  0
    7.2757  -14.3606   -0.0000 N   0  0  0  0  0  0  0  0  0  0  0  0
    8.0033  -15.6726   -0.0000 C   0  0  0  0  0  0  0  0  0  0  0  0
    7.2041  -16.9488   -0.0000 C   0  0  0  0  0  0  0  0  0  0  0  0
    9.4942  -15.6726   -0.0000 C   0  0  0  0  0  0  0  0  0  0  0  0
    7.9198  -18.2489   -0.0000 C   0  0  0  0  0  0  0  0  0  0  0  0
   10.2218  -16.9727   -0.0000 C   0  0  0  0  0  0  0  0  0  0  0  0
    9.4226  -18.2608   -0.0000 C   0  0  0  0  0  0  0  0  0  0  0  0
   10.1502  -19.5609   -0.0000 N   0  0  0  0  0  0  0  0  0  0  0  0
   11.6530  -19.5132   -0.0000 C   0  0  0  0  0  0  0  0  0  0  0  0
    9.7089  -20.9922   -0.0000 C   0  0  0  0  0  0  0  0  0  0  0  0
   12.4999  -18.2608   -0.0000 O   0  0  0  0  0  0  0  0  0  0  0  0
   12.1421  -20.9206   -0.0000 N   0  0  0  0  0  0  0  0  0  0  0  0
   10.9374  -21.8390   -0.0000 N   0  0  0  0  0  0  0  0  0  0  0  0
   13.6449  -20.8968   -0.0000 C   0  0  0  0  0  0  0  0  0  0  0  0
   14.3963  -22.1849   -0.0000 C   0  0  0  0  0  0  0  0  0  0  0  0
   14.3725  -19.5728   -0.0000 C   0  0  0  0  0  0  0  0  0  0  0  0
   15.8992  -22.1611   -0.0000 C   0  0  0  0  0  0  0  0  0  0  0  0
  1  2  1  0  0  0  0
  2  3  2  0  0  0  0
  2  4  1  0  0  0  0
  3  5  1  0  0  0  0
  3  6  1  0  0  0  0
  4  7  2  0  0  0  0
  5  8  2  0  0  0  0
  6  9  1  0  0  0  0
  6 10  1  0  0  0  0
  6 11  1  1  0  0  0
  7 12  1  0  0  0  0
  9 13  1  0  0  0  0
 10 14  1  0  0  0  0
 11 15  1  0  0  0  0
 13 16  1  1  0  0  0
 15 17  1  0  0  0  0
 15 18  1  0  0  0  0
 16 19  1  0  0  0  0
 17 20  2  0  0  0  0
 18 21  2  0  0  0  0
 19 22  1  0  0  0  0
 22 23  2  0  0  0  0
 22 24  1  0  0  0  0
 23 25  1  0  0  0  0
 24 26  2  0  0  0  0
 25 27  2  0  0  0  0
 27 28  1  0  0  0  0
 28 29  1  0  0  0  0
 28 30  1  0  0  0  0
 29 31  1  0  0  0  0
 30 32  1  0  0  0  0
 31 33  1  0  0  0  0
 33 34  1  0  0  0  0
 34 35  2  0  0  0  0
 34 36  1  0  0  0  0
 35 37  1  0  0  0  0
 36 38  2  0  0  0  0
 37 39  2  0  0  0  0
 39 40  1  0  0  0  0
 40 41  1  0  0  0  0
 40 42  1  0  0  0  0
 41 43  2  0  0  0  0
 41 44  1  0  0  0  0
 42 45  2  0  0  0  0
 46 44  1  1  0  0  0
 46 47  1  0  0  0  0
 46 48  1  0  0  0  0
 47 49  1  0  0  0  0
  7  8  1  0  0  0  0
 13 14  1  0  0  0  0
 20 21  1  0  0  0  0
 26 27  1  0  0  0  0
 32 33  1  0  0  0  0
 38 39  1  0  0  0  0
 44 45  1  0  0  0  0
M  END
>  <MolRegNo>
1180010

>  <m>
=

>  <Value>
4

>  <Unit>
nM

>  <Type>
IC50

>  <pValue>
8.4

>  <Ligand Efficiency>
0

>  <Binding Efficiency>
0

>  <Surface Efficiency>
0

>  <Assay Index>
934387

>  <Assay Category>


>  <Assay Organism>
Homo sapiens

>  <Target ID>
17045

>  <Target Name>
Cytochrome P450 3A4

>  <Target Organism>
Homo sapiens

>  <Target Description>
Target is a single protein chain

>  <Sequence Accession>
P08684

>  <Reference>
Drug Metab Dispos 40 (3), 426-435 (2012)

>  <Pubmed ID>
22106171

>  <DOI>
10.1124/dmd.111.042739

$$$$
1924686
Actelion Java MolfileCreator 1.0

 44 47  0  0  0  0  0  0  0  0999 V2000
    0.0000   -0.0000   -0.0000 F   0  0  0  0  0  0  0  0  0  0  0  0
   -0.0118    1.4985   -0.0000 C   0  0  0  0  0  0  0  0  0  0  0  0
   -1.3215    2.2654   -0.0000 C   0  0  0  0  0  0  0  0  0  0  0  0
    1.2743    2.2536   -0.0000 C   0  0  0  0  0  0  0  0  0  0  0  0
   -1.3333    3.7757   -0.0000 C   0  0  0  0  0  0  0  0  0  0  0  0
    1.2625    3.7639   -0.0000 C   0  0  0  0  0  0  0  0  0  0  0  0
   -0.0472    4.5308   -0.0000 C   0  0  0  0  0  0  0  0  0  0  0  0
   -2.6430    4.5426   -0.0000 C   0  0  0  0  0  0  0  0  0  0  0  0
   -0.0590    6.0411   -0.0000 C   0  0  0  0  0  0  0  0  0  0  0  0
    1.2271    6.7962   -0.0000 N   0  0  0  0  0  0  0  0  0  0  0  0
   -1.3687    6.8080   -0.0000 C   0  0  0  0  0  0  0  0  0  0  0  0
    2.5014    6.0529   -0.0000 C   0  0  0  0  0  0  0  0  0  0  0  0
    1.2153    8.3065   -0.0000 C   0  0  0  0  0  0  0  0  0  0  0  0
   -1.3805    8.3183   -0.0000 C   0  0  0  0  0  0  0  0  0  0  0  0
    2.4896    4.5662   -0.0000 O   0  0  0  0  0  0  0  0  0  0  0  0
    3.7875    6.8080   -0.0000 N   0  0  0  0  0  0  0  0  0  0  0  0
   -0.0944    9.0735   -0.0000 C   0  0  0  0  0  0  0  0  0  0  0  0
   -2.6902    9.0853   -0.0000 N   0  0  0  0  0  0  0  0  0  0  0  0
    5.0618    6.0647   -0.0000 C   0  0  0  0  0  0  0  0  0  0  0  0
    3.7757    8.3183   -0.0000 C   0  0  0  0  0  0  0  0  0  0  0  0
   -3.9881    8.3537   -0.0000 C   0  0  0  0  0  0  0  0  0  0  0  0
   -2.7020   10.5955   -0.0000 C   0  0  0  0  0  0  0  0  0  0  0  0
    6.3479    6.8198   -0.0000 C   0  0  0  0  0  0  0  0  0  0  0  0
    5.0500    4.5780   -0.0000 C   0  0  0  0  0  0  0  0  0  0  0  0
   -5.2978    9.1207   -0.0000 C   0  0  0  0  0  0  0  0  0  0  0  0
   -3.9999   11.3625   -0.0000 C   0  0  0  0  0  0  0  0  0  0  0  0
    7.6340    6.0765   -0.0000 C   0  0  0  0  0  0  0  0  0  0  0  0
    6.3361    8.3301   -0.0000 C   0  0  0  0  0  0  0  0  0  0  0  0
   -6.6075    8.3891   -0.0000 O   0  0  0  0  0  0  0  0  0  0  0  0
   -5.3096   10.6309   -0.0000 N   0  0  0  0  0  0  0  0  0  0  0  0
    8.9083    6.8316   -0.0000 C   0  0  0  0  0  0  0  0  0  0  0  0
    7.6222    9.0853   -0.0000 C   0  0  0  0  0  0  0  0  0  0  0  0
   -6.6075   11.3979   -0.0000 C   0  0  0  0  0  0  0  0  0  0  0  0
    8.8965    8.3419   -0.0000 C   0  0  0  0  0  0  0  0  0  0  0  0
   10.1944    6.0883   -0.0000 C   0  0  0  0  0  0  0  0  0  0  0  0
    7.6104   10.5955   -0.0000 C   0  0  0  0  0  0  0  0  0  0  0  0
   -6.6193   12.9082   -0.0000 O   0  0  0  0  0  0  0  0  0  0  0  0
   -7.9172   10.6663   -0.0000 C   0  0  0  0  0  0  0  0  0  0  0  0
   10.1826    4.6016   -0.0000 F   0  0  0  0  0  0  0  0  0  0  0  0
   11.4805    6.8434   -0.0000 F   0  0  0  0  0  0  0  0  0  0  0  0
   11.4687    5.3568   -0.0000 F   0  0  0  0  0  0  0  0  0  0  0  0
    8.8965   11.3507   -0.0000 F   0  0  0  0  0  0  0  0  0  0  0  0
    6.3125   11.3625   -0.0000 F   0  0  0  0  0  0  0  0  0  0  0  0
    7.5868   12.1058   -0.0000 F   0  0  0  0  0  0  0  0  0  0  0  0
  1  2  1  0  0  0  0
  2  3  2  0  0  0  0
  2  4  1  0  0  0  0
  3  5  1  0  0  0  0
  4  6  2  0  0  0  0
  5  7  2  0  0  0  0
  5  8  1  0  0  0  0
  9  7  1  6  0  0  0
  9 10  1  0  0  0  0
  9 11  1  0  0  0  0
 10 12  1  0  0  0  0
 10 13  1  0  0  0  0
 11 14  1  0  0  0  0
 12 15  2  0  0  0  0
 12 16  1  0  0  0  0
 13 17  1  0  0  0  0
 14 18  1  6  0  0  0
 19 16  1  6  0  0  0
 16 20  1  0  0  0  0
 18 21  1  0  0  0  0
 18 22  1  0  0  0  0
 19 23  1  0  0  0  0
 19 24  1  0  0  0  0
 21 25  1  0  0  0  0
 22 26  1  0  0  0  0
 23 27  2  0  0  0  0
 23 28  1  0  0  0  0
 25 29  1  0  0  0  0
 25 30  1  0  0  0  0
 27 31  1  0  0  0  0
 28 32  2  0  0  0  0
 30 33  1  0  0  0  0
 31 34  2  0  0  0  0
 31 35  1  0  0  0  0
 32 36  1  0  0  0  0
 33 37  2  0  0  0  0
 33 38  1  0  0  0  0
 35 39  1  0  0  0  0
 35 40  1  0  0  0  0
 35 41  1  0  0  0  0
 36 42  1  0  0  0  0
 36 43  1  0  0  0  0
 36 44  1  0  0  0  0
  6  7  1  0  0  0  0
 14 17  1  0  0  0  0
 26 30  1  0  0  0  0
 32 34  1  0  0  0  0
M  END
>  <MolRegNo>
1924686

>  <m>
=

>  <Value>
8220

>  <Unit>
nM

>  <Type>
IC50

>  <pValue>
5.08

>  <Ligand Efficiency>
0

>  <Binding Efficiency>
0

>  <Surface Efficiency>
0

>  <Assay Index>
933825

>  <Assay Category>


>  <Assay Organism>
Homo sapiens

>  <Target ID>
17045

>  <Target Name>
Cytochrome P450 3A4

>  <Target Organism>
Homo sapiens

>  <Target Description>
Target is a single protein chain

>  <Sequence Accession>
P08684

>  <Reference>
Drug Metab Dispos 39 (3), 363-372 (2011)

>  <Pubmed ID>
21149541

>  <DOI>
10.1124/dmd.110.035071

$$$$
1069144
Actelion Java MolfileCreator 1.0

 43 46  0  0  0  0  0  0  0  0999 V2000
    0.0000   -0.0000   -0.0000 F   0  0  0  0  0  0  0  0  0  0  0  0
   -0.0119   -1.4933   -0.0000 C   0  0  0  0  0  0  0  0  0  0  0  0
    1.2800   -2.2281   -0.0000 C   0  0  0  0  0  0  0  0  0  0  0  0
   -1.3274   -2.2281   -0.0000 C   0  0  0  0  0  0  0  0  0  0  0  0
    1.2681   -3.7214   -0.0000 C   0  0  0  0  0  0  0  0  0  0  0  0
   -1.3392   -3.7214   -0.0000 C   0  0  0  0  0  0  0  0  0  0  0  0
   -0.0474   -4.4562   -0.0000 C   0  0  0  0  0  0  0  0  0  0  0  0
    2.5600   -4.4562   -0.0000 C   0  0  0  0  0  0  0  0  0  0  0  0
   -0.0593   -5.9496   -0.0000 C   0  0  0  0  0  0  0  0  0  0  0  0
   -1.3748   -6.6844   -0.0000 N   0  0  0  0  0  0  0  0  0  0  0  0
    1.2326   -6.6844   -0.0000 C   0  0  0  0  0  0  0  0  0  0  0  0
   -2.6903   -5.9259   -0.0000 C   0  0  0  0  0  0  0  0  0  0  0  0
   -1.3867   -8.1777   -0.0000 C   0  0  0  0  0  0  0  0  0  0  0  0
    1.2207   -8.1777   -0.0000 C   0  0  0  0  0  0  0  0  0  0  0  0
   -2.7022   -4.4088   -0.0000 O   0  0  0  0  0  0  0  0  0  0  0  0
   -4.0059   -6.6607   -0.0000 N   0  0  0  0  0  0  0  0  0  0  0  0
   -0.0948   -8.9243   -0.0000 C   0  0  0  0  0  0  0  0  0  0  0  0
    2.5126   -8.9125   -0.0000 N   0  0  0  0  0  0  0  0  0  0  0  0
   -5.3214   -5.9022   -0.0000 C   0  0  0  0  0  0  0  0  0  0  0  0
   -4.0177   -8.1540   -0.0000 C   0  0  0  0  0  0  0  0  0  0  0  0
    2.5007  -10.4058   -0.0000 C   0  0  0  0  0  0  0  0  0  0  0  0
    3.8044   -8.1540   -0.0000 C   0  0  0  0  0  0  0  0  0  0  0  0
   -6.6370   -6.6370   -0.0000 C   0  0  0  0  0  0  0  0  0  0  0  0
   -5.3333   -4.3851   -0.0000 C   0  0  0  0  0  0  0  0  0  0  0  0
    3.7925  -11.1406   -0.0000 C   0  0  0  0  0  0  0  0  0  0  0  0
    5.0962   -8.8888   -0.0000 C   0  0  0  0  0  0  0  0  0  0  0  0
   -6.6488   -8.1303   -0.0000 C   0  0  0  0  0  0  0  0  0  0  0  0
   -7.9525   -5.8785   -0.0000 C   0  0  0  0  0  0  0  0  0  0  0  0
    5.0844  -10.3821   -0.0000 N   0  0  0  0  0  0  0  0  0  0  0  0
   -7.9644   -8.8651   -0.0000 C   0  0  0  0  0  0  0  0  0  0  0  0
   -9.2680   -6.6133   -0.0000 C   0  0  0  0  0  0  0  0  0  0  0  0
    6.3762  -11.1169   -0.0000 C   0  0  0  0  0  0  0  0  0  0  0  0
   -9.2799   -8.0947   -0.0000 C   0  0  0  0  0  0  0  0  0  0  0  0
   -7.9762  -10.3584   -0.0000 C   0  0  0  0  0  0  0  0  0  0  0  0
  -10.5836   -5.8547   -0.0000 C   0  0  0  0  0  0  0  0  0  0  0  0
    7.6681  -10.3584   -0.0000 O   0  0  0  0  0  0  0  0  0  0  0  0
    6.3644  -12.6102   -0.0000 C   0  0  0  0  0  0  0  0  0  0  0  0
   -6.6844  -11.0932   -0.0000 F   0  0  0  0  0  0  0  0  0  0  0  0
   -9.2917  -11.0932   -0.0000 F   0  0  0  0  0  0  0  0  0  0  0  0
   -7.9881  -11.8517   -0.0000 F   0  0  0  0  0  0  0  0  0  0  0  0
  -11.8991   -6.5896   -0.0000 F   0  0  0  0  0  0  0  0  0  0  0  0
  -10.5954   -4.3377   -0.0000 F   0  0  0  0  0  0  0  0  0  0  0  0
  -11.8991   -5.0962   -0.0000 F   0  0  0  0  0  0  0  0  0  0  0  0
  1  2  1  0  0  0  0
  2  3  2  0  0  0  0
  2  4  1  0  0  0  0
  3  5  1  0  0  0  0
  4  6  2  0  0  0  0
  5  7  2  0  0  0  0
  5  8  1  0  0  0  0
  9  7  1  6  0  0  0
  9 10  1  0  0  0  0
  9 11  1  0  0  0  0
 10 12  1  0  0  0  0
 10 13  1  0  0  0  0
 11 14  1  0  0  0  0
 12 15  2  0  0  0  0
 12 16  1  0  0  0  0
 13 17  1  0  0  0  0
 14 18  1  6  0  0  0
 19 16  1  6  0  0  0
 16 20  1  0  0  0  0
 18 21  1  0  0  0  0
 18 22  1  0  0  0  0
 19 23  1  0  0  0  0
 19 24  1  0  0  0  0
 21 25  1  0  0  0  0
 22 26  1  0  0  0  0
 23 27  2  0  0  0  0
 23 28  1  0  0  0  0
 25 29  1  0  0  0  0
 27 30  1  0  0  0  0
 28 31  2  0  0  0  0
 29 32  1  0  0  0  0
 30 33  2  0  0  0  0
 30 34  1  0  0  0  0
 31 35  1  0  0  0  0
 32 36  2  0  0  0  0
 32 37  1  0  0  0  0
 34 38  1  0  0  0  0
 34 39  1  0  0  0  0
 34 40  1  0  0  0  0
 35 41  1  0  0  0  0
 35 42  1  0  0  0  0
 35 43  1  0  0  0  0
  6  7  1  0  0  0  0
 14 17  1  0  0  0  0
 26 29  1  0  0  0  0
 31 33  1  0  0  0  0
M  END
>  <MolRegNo>
1069144

>  <m>
=

>  <Value>
9860

>  <Unit>
nM

>  <Type>
IC50

>  <pValue>
5.01

>  <Ligand Efficiency>
0

>  <Binding Efficiency>
0

>  <Surface Efficiency>
0

>  <Assay Index>
933825

>  <Assay Category>


>  <Assay Organism>
Homo sapiens

>  <Target ID>
17045

>  <Target Name>
Cytochrome P450 3A4

>  <Target Organism>
Homo sapiens

>  <Target Description>
Target is a single protein chain

>  <Sequence Accession>
P08684

>  <Reference>
Drug Metab Dispos 39 (3), 363-372 (2011)

>  <Pubmed ID>
21149541

>  <DOI>
10.1124/dmd.110.035071

$$$$
112651
Actelion Java MolfileCreator 1.0

 27 29  0  0  0  0  0  0  0  0999 V2000
    0.0000   -0.0000   -0.0000 O   0  0  0  0  0  0  0  0  0  0  0  0
   -1.3039   -0.7468   -0.0000 C   0  0  0  0  0  0  0  0  0  0  0  0
    1.2802   -0.7231   -0.0000 C   0  0  0  0  0  0  0  0  0  0  0  0
   -2.6196    0.0237   -0.0000 C   0  0  0  0  0  0  0  0  0  0  0  0
    2.5603    0.0356   -0.0000 C   0  0  0  0  0  0  0  0  0  0  0  0
   -2.6315    1.5291   -0.0000 N   0  0  0  0  0  0  0  0  0  0  0  0
   -3.9235   -0.7349   -0.0000 C   0  0  0  0  0  0  0  0  0  0  0  0
    2.5366    1.5409   -0.0000 C   0  0  0  0  0  0  0  0  0  0  0  0
    3.8405   -0.6994   -0.0000 C   0  0  0  0  0  0  0  0  0  0  0  0
   -3.8524    2.4181   -0.0000 C   0  0  0  0  0  0  0  0  0  0  0  0
   -1.4461    2.4300   -0.0000 C   0  0  0  0  0  0  0  0  0  0  0  0
   -5.2274    0.0237   -0.0000 N   0  0  0  0  0  0  0  0  0  0  0  0
   -3.4019    3.8524   -0.0000 C   0  0  0  0  0  0  0  0  0  0  0  0
   -1.9203    3.8524   -0.0000 C   0  0  0  0  0  0  0  0  0  0  0  0
   -6.5312   -0.7112   -0.0000 C   0  0  0  0  0  0  0  0  0  0  0  0
   -5.2511    1.5291   -0.0000 C   0  0  0  0  0  0  0  0  0  0  0  0
   -6.5431   -2.2047   -0.0000 C   0  0  0  0  0  0  0  0  0  0  0  0
   -7.8351    0.0356   -0.0000 C   0  0  0  0  0  0  0  0  0  0  0  0
   -6.5550    2.2759   -0.0000 C   0  0  0  0  0  0  0  0  0  0  0  0
   -7.8470   -2.9515   -0.0000 C   0  0  0  0  0  0  0  0  0  0  0  0
   -9.1390   -0.7112   -0.0000 C   0  0  0  0  0  0  0  0  0  0  0  0
   -7.8470    1.5528   -0.0000 C   0  0  0  0  0  0  0  0  0  0  0  0
   -6.5668    3.7931   -0.0000 C   0  0  0  0  0  0  0  0  0  0  0  0
   -9.1509   -2.1810   -0.0000 C   0  0  0  0  0  0  0  0  0  0  0  0
   -9.1746    2.2996   -0.0000 C   0  0  0  0  0  0  0  0  0  0  0  0
   -7.8707    4.5399   -0.0000 C   0  0  0  0  0  0  0  0  0  0  0  0
   -9.1864    3.8050   -0.0000 C   0  0  0  0  0  0  0  0  0  0  0  0
  1  2  1  0  0  0  0
  1  3  1  0  0  0  0
  2  4  1  0  0  0  0
  3  5  1  0  0  0  0
  4  6  1  0  0  0  0
  4  7  1  0  0  0  0
  5  8  1  0  0  0  0
  5  9  1  0  0  0  0
  6 10  1  0  0  0  0
  6 11  1  0  0  0  0
  7 12  1  0  0  0  0
 10 13  1  0  0  0  0
 11 14  1  0  0  0  0
 12 15  1  0  0  0  0
 12 16  1  0  0  0  0
 15 17  2  0  0  0  0
 15 18  1  0  0  0  0
 16 19  1  0  0  0  0
 17 20  1  0  0  0  0
 18 21  2  0  0  0  0
 19 22  2  0  0  0  0
 19 23  1  0  0  0  0
 20 24  2  0  0  0  0
 22 25  1  0  0  0  0
 23 26  2  0  0  0  0
 25 27  2  0  0  0  0
 13 14  1  0  0  0  0
 21 24  1  0  0  0  0
 26 27  1  0  0  0  0
M  END
>  <MolRegNo>
112651

>  <m>
=

>  <Value>
23600

>  <Unit>
nM

>  <Type>
IC50

>  <pValue>
4.63

>  <Ligand Efficiency>
0

>  <Binding Efficiency>
0

>  <Surface Efficiency>
0

>  <Assay Index>
931080

>  <Assay Category>


>  <Assay Organism>
Homo sapiens

>  <Target ID>
17045

>  <Target Name>
Cytochrome P450 3A4

>  <Target Organism>
Homo sapiens

>  <Target Description>
Target is a single protein chain

>  <Sequence Accession>
P08684

>  <Reference>
Drug Metab Dispos 41 (1), 60-71 (2013)

>  <Pubmed ID>
23033255

>  <DOI>
10.1124/dmd.112.048264

$$$$
374182
Actelion Java MolfileCreator 1.0

 22 24  0  0  0  0  0  0  0  0999 V2000
    0.0000   -0.0000   -0.0000 Br  0  0  0  0  0  0  0  0  0  0  0  0
   -0.5322   -1.4515   -0.0000 C   0  0  0  0  0  0  0  0  0  0  0  0
    0.3992   -2.6006   -0.0000 C   0  0  0  0  0  0  0  0  0  0  0  0
   -2.0321   -1.6813   -0.0000 C   0  0  0  0  0  0  0  0  0  0  0  0
    1.9232   -2.3587   -0.0000 O   0  0  0  0  0  0  0  0  0  0  0  0
   -0.1331   -3.9916   -0.0000 C   0  0  0  0  0  0  0  0  0  0  0  0
   -2.5764   -3.0723   -0.0000 C   0  0  0  0  0  0  0  0  0  0  0  0
    0.8225   -5.1407   -0.0000 Br  0  0  0  0  0  0  0  0  0  0  0  0
   -1.6329   -4.2214   -0.0000 C   0  0  0  0  0  0  0  0  0  0  0  0
   -4.0158   -3.3384   -0.0000 C   0  0  0  0  0  0  0  0  0  0  0  0
   -4.9956   -2.1652   -0.0000 O   0  0  0  0  0  0  0  0  0  0  0  0
   -4.5601   -4.7416   -0.0000 C   0  0  0  0  0  0  0  0  0  0  0  0
   -6.0116   -5.2012   -0.0000 C   0  0  0  0  0  0  0  0  0  0  0  0
   -3.7255   -5.9270   -0.0000 C   0  0  0  0  0  0  0  0  0  0  0  0
   -6.0237   -6.7132   -0.0000 C   0  0  0  0  0  0  0  0  0  0  0  0
   -7.3059   -4.4271   -0.0000 C   0  0  0  0  0  0  0  0  0  0  0  0
   -4.5843   -7.1486   -0.0000 O   0  0  0  0  0  0  0  0  0  0  0  0
   -2.2619   -5.9149   -0.0000 C   0  0  0  0  0  0  0  0  0  0  0  0
   -7.3180   -7.4268   -0.0000 C   0  0  0  0  0  0  0  0  0  0  0  0
   -8.6001   -5.1770   -0.0000 C   0  0  0  0  0  0  0  0  0  0  0  0
   -1.5120   -7.2212   -0.0000 C   0  0  0  0  0  0  0  0  0  0  0  0
   -8.6122   -6.6890   -0.0000 C   0  0  0  0  0  0  0  0  0  0  0  0
  1  2  1  0  0  0  0
  2  3  2  0  0  0  0
  2  4  1  0  0  0  0
  3  5  1  0  0  0  0
  3  6  1  0  0  0  0
  4  7  2  0  0  0  0
  6  8  1  0  0  0  0
  6  9  2  0  0  0  0
  7 10  1  0  0  0  0
 10 11  2  0  0  0  0
 10 12  1  0  0  0  0
 12 13  1  0  0  0  0
 12 14  2  0  0  0  0
 13 15  2  0  0  0  0
 13 16  1  0  0  0  0
 14 17  1  0  0  0  0
 14 18  1  0  0  0  0
 15 19  1  0  0  0  0
 16 20  2  0  0  0  0
 18 21  1  0  0  0  0
 19 22  2  0  0  0  0
  7  9  1  0  0  0  0
 15 17  1  0  0  0  0
 20 22  1  0  0  0  0
M  END
>  <MolRegNo>
374182

>  <m>
=

>  <Value>
29200

>  <Unit>
nM

>  <Type>
IC50

>  <pValue>
4.54

>  <Ligand Efficiency>
0

>  <Binding Efficiency>
0

>  <Surface Efficiency>
0

>  <Assay Index>
931080

>  <Assay Category>


>  <Assay Organism>
Homo sapiens

>  <Target ID>
17045

>  <Target Name>
Cytochrome P450 3A4

>  <Target Organism>
Homo sapiens

>  <Target Description>
Target is a single protein chain

>  <Sequence Accession>
P08684

>  <Reference>
Drug Metab Dispos 41 (1), 60-71 (2013)

>  <Pubmed ID>
23033255

>  <DOI>
10.1124/dmd.112.048264

$$$$
1924751
Actelion Java MolfileCreator 1.0

 34 39  0  0  0  0  0  0  0  0999 V2000
    0.0000   -0.0000   -0.0000 N   0  0  0  0  0  0  0  0  0  0  0  0
   -1.3040    0.7587   -0.0000 C   0  0  0  0  0  0  0  0  0  0  0  0
   -0.0119   -1.4937   -0.0000 C   0  0  0  0  0  0  0  0  0  0  0  0
   -1.3277    2.2642   -0.0000 N   0  0  0  0  0  0  0  0  0  0  0  0
   -2.6080    0.0119   -0.0000 C   0  0  0  0  0  0  0  0  0  0  0  0
   -1.3277   -2.2287   -0.0000 N   0  0  0  0  0  0  0  0  0  0  0  0
   -0.1304    3.1652   -0.0000 C   0  0  0  0  0  0  0  0  0  0  0  0
   -2.5487    3.1533   -0.0000 C   0  0  0  0  0  0  0  0  0  0  0  0
   -2.6199   -1.4700   -0.0000 C   0  0  0  0  0  0  0  0  0  0  0  0
   -4.0424    0.4860   -0.0000 C   0  0  0  0  0  0  0  0  0  0  0  0
   -0.6164    4.5996   -0.0000 C   0  0  0  0  0  0  0  0  0  0  0  0
   -2.1101    4.5877   -0.0000 C   0  0  0  0  0  0  0  0  0  0  0  0
   -4.0543   -1.9204   -0.0000 N   0  0  0  0  0  0  0  0  0  0  0  0
   -4.9315   -0.7113   -0.0000 N   0  0  0  0  0  0  0  0  0  0  0  0
   -4.5166    1.9204   -0.0000 C   0  0  0  0  0  0  0  0  0  0  0  0
    0.2489    5.8206   -0.0000 N   0  0  0  0  0  0  0  0  0  0  0  0
   -4.5285   -3.3311   -0.0000 C   0  0  0  0  0  0  0  0  0  0  0  0
   -5.9510    2.3946   -0.0000 C   0  0  0  0  0  0  0  0  0  0  0  0
   -3.6512    3.1415   -0.0000 C   0  0  0  0  0  0  0  0  0  0  0  0
    1.7308    5.6784   -0.0000 C   0  0  0  0  0  0  0  0  0  0  0  0
   -0.3793    7.1839   -0.0000 C   0  0  0  0  0  0  0  0  0  0  0  0
   -5.9629    3.9002   -0.0000 N   0  0  0  0  0  0  0  0  0  0  0  0
   -7.1720    1.5292   -0.0000 C   0  0  0  0  0  0  0  0  0  0  0  0
   -4.5403    4.3625   -0.0000 N   0  0  0  0  0  0  0  0  0  0  0  0
    2.5962    6.8994   -0.0000 C   0  0  0  0  0  0  0  0  0  0  0  0
    0.4860    8.4049   -0.0000 C   0  0  0  0  0  0  0  0  0  0  0  0
   -7.1839    4.7893   -0.0000 C   0  0  0  0  0  0  0  0  0  0  0  0
   -8.5472    2.1575   -0.0000 C   0  0  0  0  0  0  0  0  0  0  0  0
   -7.0298    0.0593   -0.0000 C   0  0  0  0  0  0  0  0  0  0  0  0
    1.9797    8.2745   -0.0000 C   0  0  0  0  0  0  0  0  0  0  0  0
   -9.7682    1.2922   -0.0000 C   0  0  0  0  0  0  0  0  0  0  0  0
   -8.2508   -0.8061   -0.0000 C   0  0  0  0  0  0  0  0  0  0  0  0
   -9.6259   -0.1897   -0.0000 C   0  0  0  0  0  0  0  0  0  0  0  0
  -10.8470   -1.0551   -0.0000 C   0  0  0  0  0  0  0  0  0  0  0  0
  1  2  2  0  0  0  0
  1  3  1  0  0  0  0
  2  4  1  0  0  0  0
  2  5  1  0  0  0  0
  3  6  2  0  0  0  0
  4  7  1  0  0  0  0
  4  8  1  0  0  0  0
  5  9  2  0  0  0  0
  5 10  1  0  0  0  0
  7 11  1  0  0  0  0
  8 12  1  0  0  0  0
  9 13  1  0  0  0  0
 10 14  2  0  0  0  0
 10 15  1  0  0  0  0
 11 16  1  6  0  0  0
 13 17  1  0  0  0  0
 15 18  2  0  0  0  0
 15 19  1  0  0  0  0
 16 20  1  0  0  0  0
 16 21  1  0  0  0  0
 18 22  1  0  0  0  0
 18 23  1  0  0  0  0
 19 24  2  0  0  0  0
 20 25  1  0  0  0  0
 21 26  1  0  0  0  0
 22 27  1  0  0  0  0
 23 28  2  0  0  0  0
 23 29  1  0  0  0  0
 25 30  1  0  0  0  0
 28 31  1  0  0  0  0
 29 32  2  0  0  0  0
 31 33  2  0  0  0  0
 33 34  1  0  0  0  0
  6  9  1  0  0  0  0
 11 12  1  0  0  0  0
 13 14  1  0  0  0  0
 22 24  1  0  0  0  0
 26 30  1  0  0  0  0
 32 33  1  0  0  0  0
M  END
>  <MolRegNo>
1924751

>  <m>
=

>  <Value>
300

>  <Unit>
nM

>  <Type>
IC50

>  <pValue>
6.52

>  <Ligand Efficiency>
0

>  <Binding Efficiency>
0

>  <Surface Efficiency>
0

>  <Assay Index>
933041

>  <Assay Category>


>  <Assay Organism>
Homo sapiens

>  <Target ID>
17045

>  <Target Name>
Cytochrome P450 3A4

>  <Target Organism>
Homo sapiens

>  <Target Description>
Target is a single protein chain

>  <Sequence Accession>
P08684

>  <Reference>
Drug Metab Dispos 40 (9), 1686-1697 (2012)

>  <Pubmed ID>
22645092

>  <DOI>
10.1124/dmd.112.045302

$$$$
691562
Actelion Java MolfileCreator 1.0

 30 33  0  0  0  0  0  0  0  0999 V2000
    0.0000   -0.0000   -0.0000 F   0  0  0  0  0  0  0  0  0  0  0  0
    1.2851   -0.7310   -0.0000 C   0  0  0  0  0  0  0  0  0  0  0  0
    1.2733   -2.2164   -0.0000 C   0  0  0  0  0  0  0  0  0  0  0  0
    2.5701    0.0236   -0.0000 C   0  0  0  0  0  0  0  0  0  0  0  0
    2.5583   -2.9592   -0.0000 C   0  0  0  0  0  0  0  0  0  0  0  0
   -0.0354   -2.9474   -0.0000 C   0  0  0  0  0  0  0  0  0  0  0  0
    3.8552   -0.7074   -0.0000 C   0  0  0  0  0  0  0  0  0  0  0  0
    3.8434   -2.2046   -0.0000 C   0  0  0  0  0  0  0  0  0  0  0  0
   -1.3440   -2.1929   -0.0000 N   0  0  0  0  0  0  0  0  0  0  0  0
    5.1402    0.0472   -0.0000 F   0  0  0  0  0  0  0  0  0  0  0  0
   -2.6526   -2.9238   -0.0000 C   0  0  0  0  0  0  0  0  0  0  0  0
   -2.6644   -4.4093   -0.0000 O   0  0  0  0  0  0  0  0  0  0  0  0
   -3.9613   -2.1693   -0.0000 C   0  0  0  0  0  0  0  0  0  0  0  0
   -3.9731   -0.6602   -0.0000 C   0  0  0  0  0  0  0  0  0  0  0  0
   -5.2699   -2.9002   -0.0000 C   0  0  0  0  0  0  0  0  0  0  0  0
   -2.6880    0.0943   -0.0000 O   0  0  0  0  0  0  0  0  0  0  0  0
   -5.2817    0.0943   -0.0000 C   0  0  0  0  0  0  0  0  0  0  0  0
   -6.5786   -2.1457   -0.0000 N   0  0  0  0  0  0  0  0  0  0  0  0
   -5.2935    1.6034   -0.0000 O   0  0  0  0  0  0  0  0  0  0  0  0
   -6.5904   -0.6366   -0.0000 C   0  0  0  0  0  0  0  0  0  0  0  0
   -7.8872   -2.8766   -0.0000 C   0  0  0  0  0  0  0  0  0  0  0  0
   -7.8990    0.1179   -0.0000 C   0  0  0  0  0  0  0  0  0  0  0  0
   -9.1958   -2.1221   -0.0000 C   0  0  0  0  0  0  0  0  0  0  0  0
   -7.9108    1.6270   -0.0000 O   0  0  0  0  0  0  0  0  0  0  0  0
   -9.2076   -0.6131   -0.0000 N   0  0  0  0  0  0  0  0  0  0  0  0
  -10.5045   -2.8531   -0.0000 O   0  0  0  0  0  0  0  0  0  0  0  0
  -10.5163    0.1415   -0.0000 C   0  0  0  0  0  0  0  0  0  0  0  0
  -11.8131   -2.0985   -0.0000 C   0  0  0  0  0  0  0  0  0  0  0  0
  -11.8249   -0.5895   -0.0000 C   0  0  0  0  0  0  0  0  0  0  0  0
   -9.7853    1.4501   -0.0000 C   0  0  0  0  0  0  0  0  0  0  0  0
  1  2  1  0  0  0  0
  2  3  2  0  0  0  0
  2  4  1  0  0  0  0
  3  5  1  0  0  0  0
  3  6  1  0  0  0  0
  4  7  2  0  0  0  0
  5  8  2  0  0  0  0
  6  9  1  0  0  0  0
  7 10  1  0  0  0  0
  9 11  1  0  0  0  0
 11 12  2  0  0  0  0
 11 13  1  0  0  0  0
 13 14  1  0  0  0  0
 13 15  2  0  0  0  0
 14 16  2  0  0  0  0
 14 17  1  0  0  0  0
 15 18  1  0  0  0  0
 17 19  1  0  0  0  0
 17 20  2  0  0  0  0
 18 21  1  0  0  0  0
 20 22  1  0  0  0  0
 21 23  1  0  0  0  0
 22 24  2  0  0  0  0
 22 25  1  0  0  0  0
 23 26  1  6  0  0  0
 25 27  1  0  0  0  0
 26 28  1  0  0  0  0
 27 29  1  0  0  0  0
 27 30  1  1  0  0  0
  7  8  1  0  0  0  0
 18 20  1  0  0  0  0
 23 25  1  0  0  0  0
 28 29  1  0  0  0  0
M  END
>  <MolRegNo>
691562

>  <m>
=

>  <Value>
65000

>  <Unit>
nM

>  <Type>
IC50

>  <pValue>
4.19

>  <Ligand Efficiency>
0

>  <Binding Efficiency>
0

>  <Surface Efficiency>
0

>  <Assay Index>
939018

>  <Assay Category>


>  <Assay Organism>
Homo sapiens

>  <Target ID>
17045

>  <Target Name>
Cytochrome P450 3A4

>  <Target Organism>
Homo sapiens

>  <Target Description>
Target is a single protein chain

>  <Sequence Accession>
P08684

>  <Reference>
Drug Metab Dispos 41 (2), 353-361 (2013)

>  <Pubmed ID>
23132334

>  <DOI>
10.1124/dmd.112.048918

$$$$
385617
Actelion Java MolfileCreator 1.0

 44 48  0  0  0  0  0  0  0  0999 V2000
    0.0000   -0.0000   -0.0000 F   0  0  0  0  0  0  0  0  0  0  0  0
    1.2822    0.7717   -0.0000 C   0  0  0  0  0  0  0  0  0  0  0  0
    1.2703    2.2794   -0.0000 F   0  0  0  0  0  0  0  0  0  0  0  0
   -0.0237    1.5315   -0.0000 F   0  0  0  0  0  0  0  0  0  0  0  0
    2.5762    0.0475   -0.0000 O   0  0  0  0  0  0  0  0  0  0  0  0
    3.8702    0.8192   -0.0000 C   0  0  0  0  0  0  0  0  0  0  0  0
    3.8465    2.3269   -0.0000 C   0  0  0  0  0  0  0  0  0  0  0  0
    5.1642    0.0950   -0.0000 C   0  0  0  0  0  0  0  0  0  0  0  0
    5.1286    3.0985   -0.0000 C   0  0  0  0  0  0  0  0  0  0  0  0
    6.4345    0.8666   -0.0000 C   0  0  0  0  0  0  0  0  0  0  0  0
    6.4108    2.3625   -0.0000 C   0  0  0  0  0  0  0  0  0  0  0  0
    7.6929    3.1341   -0.0000 C   0  0  0  0  0  0  0  0  0  0  0  0
    7.6692    4.6419   -0.0000 C   0  0  0  0  0  0  0  0  0  0  0  0
    6.3514    5.4017   -0.0000 O   0  0  0  0  0  0  0  0  0  0  0  0
    8.9513    5.4135   -0.0000 N   0  0  0  0  0  0  0  0  0  0  0  0
    8.9276    6.9212   -0.0000 C   0  0  0  0  0  0  0  0  0  0  0  0
   10.2453    4.6775   -0.0000 C   0  0  0  0  0  0  0  0  0  0  0  0
    7.6098    7.6810   -0.0000 C   0  0  0  0  0  0  0  0  0  0  0  0
   10.2097    7.6929   -0.0000 C   0  0  0  0  0  0  0  0  0  0  0  0
   11.5275    5.4491   -0.0000 C   0  0  0  0  0  0  0  0  0  0  0  0
    6.3039    6.9450   -0.0000 N   0  0  0  0  0  0  0  0  0  0  0  0
    7.5861    9.2006   -0.0000 N   0  0  0  0  0  0  0  0  0  0  0  0
   12.8096    4.7131   -0.0000 C   0  0  0  0  0  0  0  0  0  0  0  0
   11.5037    6.9450   -0.0000 C   0  0  0  0  0  0  0  0  0  0  0  0
    4.9980    7.7048   -0.0000 C   0  0  0  0  0  0  0  0  0  0  0  0
    6.2683    9.9485   -0.0000 C   0  0  0  0  0  0  0  0  0  0  0  0
    8.8563    9.9723   -0.0000 C   0  0  0  0  0  0  0  0  0  0  0  0
   14.0918    5.4848   -0.0000 N   0  0  0  0  0  0  0  0  0  0  0  0
   12.7740    7.7166   -0.0000 C   0  0  0  0  0  0  0  0  0  0  0  0
    3.6921    6.9569   -0.0000 N   0  0  0  0  0  0  0  0  0  0  0  0
    4.9861    9.2244   -0.0000 C   0  0  0  0  0  0  0  0  0  0  0  0
    6.2445   11.4563   -0.0000 O   0  0  0  0  0  0  0  0  0  0  0  0
    8.8326   11.4800   -0.0000 C   0  0  0  0  0  0  0  0  0  0  0  0
   10.1504    9.2362   -0.0000 C   0  0  0  0  0  0  0  0  0  0  0  0
   14.0680    6.9925   -0.0000 C   0  0  0  0  0  0  0  0  0  0  0  0
    2.3744    7.7166   -0.0000 C   0  0  0  0  0  0  0  0  0  0  0  0
    3.6802    9.9842   -0.0000 C   0  0  0  0  0  0  0  0  0  0  0  0
   10.1029   12.2517   -0.0000 C   0  0  0  0  0  0  0  0  0  0  0  0
   11.4325   10.0079   -0.0000 C   0  0  0  0  0  0  0  0  0  0  0  0
    2.3625    9.2362   -0.0000 C   0  0  0  0  0  0  0  0  0  0  0  0
   11.3969   11.5156   -0.0000 C   0  0  0  0  0  0  0  0  0  0  0  0
   12.6790   12.2991   -0.0000 O   0  0  0  0  0  0  0  0  0  0  0  0
   13.9731   11.5631   -0.0000 C   0  0  0  0  0  0  0  0  0  0  0  0
   15.2552   12.3348   -0.0000 C   0  0  0  0  0  0  0  0  0  0  0  0
  1  2  1  0  0  0  0
  2  3  1  0  0  0  0
  2  4  1  0  0  0  0
  2  5  1  0  0  0  0
  5  6  1  0  0  0  0
  6  7  2  0  0  0  0
  6  8  1  0  0  0  0
  7  9  1  0  0  0  0
  8 10  2  0  0  0  0
  9 11  2  0  0  0  0
 11 12  1  0  0  0  0
 12 13  1  0  0  0  0
 13 14  2  0  0  0  0
 13 15  1  0  0  0  0
 16 15  1  6  0  0  0
 15 17  1  0  0  0  0
 16 18  1  0  0  0  0
 16 19  1  0  0  0  0
 17 20  1  0  0  0  0
 18 21  2  0  0  0  0
 18 22  1  0  0  0  0
 20 23  2  0  0  0  0
 20 24  1  0  0  0  0
 21 25  1  0  0  0  0
 22 26  1  0  0  0  0
 22 27  1  0  0  0  0
 23 28  1  0  0  0  0
 24 29  2  0  0  0  0
 25 30  2  0  0  0  0
 25 31  1  0  0  0  0
 26 32  2  0  0  0  0
 27 33  2  0  0  0  0
 27 34  1  0  0  0  0
 28 35  2  0  0  0  0
 30 36  1  0  0  0  0
 31 37  2  0  0  0  0
 33 38  1  0  0  0  0
 34 39  2  0  0  0  0
 36 40  2  0  0  0  0
 38 41  2  0  0  0  0
 41 42  1  0  0  0  0
 42 43  1  0  0  0  0
 43 44  1  0  0  0  0
 10 11  1  0  0  0  0
 26 31  1  0  0  0  0
 29 35  1  0  0  0  0
 37 40  1  0  0  0  0
 39 41  1  0  0  0  0
M  END
>  <MolRegNo>
385617

>  <m>
=

>  <Value>
8300

>  <Unit>
nM

>  <Type>
IC50

>  <pValue>
5.08

>  <Ligand Efficiency>
0

>  <Binding Efficiency>
0

>  <Surface Efficiency>
0

>  <Assay Index>
937059

>  <Assay Category>


>  <Assay Organism>
Homo sapiens

>  <Target ID>
17045

>  <Target Name>
Cytochrome P450 3A4

>  <Target Organism>
Homo sapiens

>  <Target Description>
Target is a single protein chain

>  <Sequence Accession>
P08684

>  <Reference>
Drug Metab Dispos 40 (7), 1429-1440 (2012)

>  <Pubmed ID>
22517972

>  <DOI>
10.1124/dmd.112.045708

$$$$
1945756
Actelion Java MolfileCreator 1.0

 35 36  0  0  0  0  0  0  0  0999 V2000
    0.0000   -0.0000   -0.0000 Cl  0  0  0  0  0  0  0  0  0  0  0  0
  -10.4792   -2.0567   -0.0000 O   0  0  0  0  0  0  0  0  0  0  0  0
   -9.4141   -1.4201   -0.0000 C   0  0  0  0  0  0  0  0  0  0  0  0
   -8.0798   -2.1791   -0.0000 N   0  0  0  0  0  0  0  0  0  0  0  0
   -9.4264    0.1469   -0.0000 N   0  0  0  0  0  0  0  0  0  0  0  0
   -8.0920   -3.7216   -0.0000 C   0  0  0  0  0  0  0  0  0  0  0  0
  -10.7852    0.9304   -0.0000 C   0  0  0  0  0  0  0  0  0  0  0  0
   -9.4509   -4.4928   -0.0000 C   0  0  0  0  0  0  0  0  0  0  0  0
   -6.7576   -4.4806   -0.0000 C   0  0  0  0  0  0  0  0  0  0  0  0
  -12.1441    0.1714   -0.0000 C   0  0  0  0  0  0  0  0  0  0  0  0
  -10.7975    2.4974   -0.0000 C   0  0  0  0  0  0  0  0  0  0  0  0
   -9.4631   -5.7293   -0.0000 O   0  0  0  0  0  0  0  0  0  0  0  0
  -10.8097   -3.7093   -0.0000 N   0  0  0  0  0  0  0  0  0  0  0  0
   -5.4232   -3.6849   -0.0000 C   0  0  0  0  0  0  0  0  0  0  0  0
  -13.2337    0.8080   -0.0000 O   0  0  0  0  0  0  0  0  0  0  0  0
  -12.1564   -1.0651   -0.0000 O   0  0  0  0  0  0  0  0  0  0  0  0
  -12.1564    3.2809   -0.0000 C   0  0  0  0  0  0  0  0  0  0  0  0
  -12.1686   -4.4806   -0.0000 C   0  0  0  0  0  0  0  0  0  0  0  0
   -5.4477   -2.1179   -0.0000 C   0  0  0  0  0  0  0  0  0  0  0  0
   -4.0888   -4.4439   -0.0000 C   0  0  0  0  0  0  0  0  0  0  0  0
  -12.1686    4.8479   -0.0000 C   0  0  0  0  0  0  0  0  0  0  0  0
  -13.4540   -3.7338   -0.0000 C   0  0  0  0  0  0  0  0  0  0  0  0
  -12.1808   -5.8517   -0.0000 C   0  0  0  0  0  0  0  0  0  0  0  0
   -4.1133   -1.3221   -0.0000 C   0  0  0  0  0  0  0  0  0  0  0  0
   -2.7545   -3.6481   -0.0000 C   0  0  0  0  0  0  0  0  0  0  0  0
  -13.5275    5.6313   -0.0000 C   0  0  0  0  0  0  0  0  0  0  0  0
  -14.1151   -2.4362   -0.0000 C   0  0  0  0  0  0  0  0  0  0  0  0
  -14.7517   -4.4561   -0.0000 C   0  0  0  0  0  0  0  0  0  0  0  0
  -13.4785   -5.2641   -0.0000 C   0  0  0  0  0  0  0  0  0  0  0  0
   -2.7789   -2.0811   -0.0000 C   0  0  0  0  0  0  0  0  0  0  0  0
  -13.5397    6.8923   -0.0000 N   0  0  0  0  0  0  0  0  0  0  0  0
  -13.2704   -1.5303   -0.0000 C   0  0  0  0  0  0  0  0  0  0  0  0
  -15.3393   -2.1546   -0.0000 C   0  0  0  0  0  0  0  0  0  0  0  0
  -14.7639   -5.8272   -0.0000 C   0  0  0  0  0  0  0  0  0  0  0  0
  -13.4785   -6.5005   -0.0000 C   0  0  0  0  0  0  0  0  0  0  0  0
  2  3  2  0  0  0  0
  3  4  1  0  0  0  0
  3  5  1  0  0  0  0
  6  4  1  1  0  0  0
  7  5  1  1  0  0  0
  6  8  1  0  0  0  0
  6  9  1  0  0  0  0
  7 10  1  0  0  0  0
  7 11  1  0  0  0  0
  8 12  2  0  0  0  0
  8 13  1  0  0  0  0
  9 14  1  0  0  0  0
 10 15  2  0  0  0  0
 10 16  1  0  0  0  0
 11 17  1  0  0  0  0
 13 18  1  0  0  0  0
 14 19  1  0  0  0  0
 14 20  1  0  0  0  0
 17 21  1  0  0  0  0
 18 22  1  0  0  0  0
 18 23  1  0  0  0  0
 19 24  1  0  0  0  0
 20 25  1  0  0  0  0
 21 26  1  0  0  0  0
 22 27  1  0  0  0  0
 22 28  1  0  0  0  0
 23 29  1  0  0  0  0
 24 30  1  0  0  0  0
 26 31  1  0  0  0  0
 27 32  1  0  0  0  0
 27 33  1  0  0  0  0
 28 34  1  0  0  0  0
 29 35  1  0  0  0  0
 25 30  1  0  0  0  0
 27 29  1  0  0  0  0
 29 34  1  0  0  0  0
M  END
>  <MolRegNo>
1945756

>  <m>
=

>  <Value>
6500

>  <Unit>
nM

>  <Type>
IC50

>  <pValue>
5.19

>  <Ligand Efficiency>
0

>  <Binding Efficiency>
0

>  <Surface Efficiency>
0

>  <Assay Index>
941754

>  <Assay Category>


>  <Assay Organism>
Homo sapiens

>  <Target ID>
17045

>  <Target Name>
Cytochrome P450 3A4

>  <Target Organism>
Homo sapiens

>  <Target Description>
Target is a single protein chain

>  <Sequence Accession>
P08684

>  <Reference>
J Med Chem 58 (11), 4839-4844 (2015)

>  <Pubmed ID>
25990761

>  <DOI>
10.1021/jm501840b

$$$$
1948308
Actelion Java MolfileCreator 1.0

 36 40  0  0  0  0  0  0  0  0999 V2000
    0.0000   -0.0000   -0.0000 O   0  0  0  0  0  0  0  0  0  0  0  0
    1.1074    0.6774   -0.0000 C   0  0  0  0  0  0  0  0  0  0  0  0
    1.0943    2.3059   -0.0000 C   0  0  0  0  0  0  0  0  0  0  0  0
    2.5274   -0.0782   -0.0000 C   0  0  0  0  0  0  0  0  0  0  0  0
   -0.3257    3.1266   -0.0000 C   0  0  0  0  0  0  0  0  0  0  0  0
    2.5143    3.1266   -0.0000 C   0  0  0  0  0  0  0  0  0  0  0  0
    4.0646    0.7035   -0.0000 C   0  0  0  0  0  0  0  0  0  0  0  0
    3.4654   -0.5993   -0.0000 C   0  0  0  0  0  0  0  0  0  0  0  0
    1.3549   -0.6644   -0.0000 C   0  0  0  0  0  0  0  0  0  0  0  0
   -1.4591    3.7910   -0.0000 N   0  0  0  0  0  0  0  0  0  0  0  0
    4.0516    2.3320   -0.0000 C   0  0  0  0  0  0  0  0  0  0  0  0
    5.3023   -0.0912   -0.0000 C   0  0  0  0  0  0  0  0  0  0  0  0
    5.2892    3.1136   -0.0000 C   0  0  0  0  0  0  0  0  0  0  0  0
    3.9865    3.6477   -0.0000 C   0  0  0  0  0  0  0  0  0  0  0  0
    6.7223    0.7295   -0.0000 C   0  0  0  0  0  0  0  0  0  0  0  0
    5.2762    4.7812   -0.0000 C   0  0  0  0  0  0  0  0  0  0  0  0
    6.7092    2.3580   -0.0000 C   0  0  0  0  0  0  0  0  0  0  0  0
    6.7353    5.5628   -0.0000 C   0  0  0  0  0  0  0  0  0  0  0  0
    8.0902    3.1006   -0.0000 C   0  0  0  0  0  0  0  0  0  0  0  0
    7.6212    1.8108   -0.0000 C   0  0  0  0  0  0  0  0  0  0  0  0
    6.7483    6.8786   -0.0000 O   0  0  0  0  0  0  0  0  0  0  0  0
    8.1162    4.7681   -0.0000 C   0  0  0  0  0  0  0  0  0  0  0  0
    9.4711    2.3059   -0.0000 C   0  0  0  0  0  0  0  0  0  0  0  0
    7.1522    3.6738   -0.0000 C   0  0  0  0  0  0  0  0  0  0  0  0
    9.5362    5.5498   -0.0000 C   0  0  0  0  0  0  0  0  0  0  0  0
   10.8911    3.0876   -0.0000 C   0  0  0  0  0  0  0  0  0  0  0  0
   10.9172    4.7160   -0.0000 C   0  0  0  0  0  0  0  0  0  0  0  0
    9.5623    7.1782   -0.0000 C   0  0  0  0  0  0  0  0  0  0  0  0
    9.4711    3.9604   -0.0000 C   0  0  0  0  0  0  0  0  0  0  0  0
   12.3763    5.4977   -0.0000 C   0  0  0  0  0  0  0  0  0  0  0  0
   10.9823    7.9599   -0.0000 C   0  0  0  0  0  0  0  0  0  0  0  0
    8.5331    4.5467   -0.0000 O   0  0  0  0  0  0  0  0  0  0  0  0
    9.4320    2.8921   -0.0000 C   0  0  0  0  0  0  0  0  0  0  0  0
   12.3632    7.1261   -0.0000 C   0  0  0  0  0  0  0  0  0  0  0  0
    9.8489    8.6243   -0.0000 C   0  0  0  0  0  0  0  0  0  0  0  0
   12.1287    8.5722   -0.0000 C   0  0  0  0  0  0  0  0  0  0  0  0
  1  2  2  0  0  0  0
  2  3  1  0  0  0  0
  2  4  1  0  0  0  0
  3  5  1  0  0  0  0
  3  6  2  0  0  0  0
  4  7  1  0  0  0  0
  4  8  1  0  0  0  0
  4  9  1  0  0  0  0
  5 10  3  0  0  0  0
  6 11  1  0  0  0  0
  7 12  1  1  0  0  0
 11 13  1  0  0  0  0
 11 14  1  1  0  0  0
 12 15  1  0  0  0  0
 13 16  2  0  0  0  0
 13 17  1  0  0  0  0
 16 18  1  0  0  0  0
 17 19  1  0  0  0  0
 17 20  1  1  0  0  0
 18 21  2  0  0  0  0
 22 18  1  6  0  0  0
 19 23  1  0  0  0  0
 19 24  1  6  0  0  0
 22 25  1  0  0  0  0
 23 26  1  0  0  0  0
 25 27  1  0  0  0  0
 25 28  1  6  0  0  0
 27 29  1  1  0  0  0
 27 30  1  0  0  0  0
 28 31  1  0  0  0  0
 29 32  2  0  0  0  0
 29 33  1  0  0  0  0
 30 34  1  0  0  0  0
 31 35  1  0  0  0  0
 31 36  1  0  0  0  0
  7 11  1  0  0  0  0
 15 17  1  0  0  0  0
 19 22  1  0  0  0  0
 26 27  1  0  0  0  0
 31 34  1  0  0  0  0
M  END
>  <MolRegNo>
1948308

>  <m>
=

>  <Value>
4780

>  <Unit>
nM

>  <Type>
IC50

>  <pValue>
5.32

>  <Ligand Efficiency>
0

>  <Binding Efficiency>
0

>  <Surface Efficiency>
0

>  <Assay Index>
943069

>  <Assay Category>


>  <Assay Organism>
Homo sapiens

>  <Target ID>
17045

>  <Target Name>
Cytochrome P450 3A4

>  <Target Organism>
Homo sapiens

>  <Target Description>
Target is a single protein chain

>  <Sequence Accession>
P08684

>  <Reference>
J Med Chem 58 (11), 4506-4520 (2015)

>  <Pubmed ID>
25992974

>  <DOI>
10.1021/jm5020023

$$$$
1948305
Actelion Java MolfileCreator 1.0

 42 48  0  0  0  0  0  0  0  0999 V2000
    0.0000   -0.0000   -0.0000 O   0  0  0  0  0  0  0  0  0  0  0  0
    1.0518    0.6440   -0.0000 C   0  0  0  0  0  0  0  0  0  0  0  0
    1.0304    2.1896   -0.0000 C   0  0  0  0  0  0  0  0  0  0  0  0
    2.4042   -0.1288   -0.0000 C   0  0  0  0  0  0  0  0  0  0  0  0
   -0.3435    2.9623   -0.0000 C   0  0  0  0  0  0  0  0  0  0  0  0
    2.3828    3.0267   -0.0000 C   0  0  0  0  0  0  0  0  0  0  0  0
    3.7566    0.6655   -0.0000 C   0  0  0  0  0  0  0  0  0  0  0  0
    3.2843   -0.6011   -0.0000 C   0  0  0  0  0  0  0  0  0  0  0  0
    1.2880   -0.6869   -0.0000 C   0  0  0  0  0  0  0  0  0  0  0  0
   -1.4382    3.5849   -0.0000 N   0  0  0  0  0  0  0  0  0  0  0  0
    3.7351    2.2540   -0.0000 C   0  0  0  0  0  0  0  0  0  0  0  0
    5.1090   -0.0859   -0.0000 C   0  0  0  0  0  0  0  0  0  0  0  0
    5.0875    3.0697   -0.0000 C   0  0  0  0  0  0  0  0  0  0  0  0
    3.7137    3.5205   -0.0000 C   0  0  0  0  0  0  0  0  0  0  0  0
    6.4613    0.7299   -0.0000 C   0  0  0  0  0  0  0  0  0  0  0  0
    5.0660    4.6582   -0.0000 C   0  0  0  0  0  0  0  0  0  0  0  0
    6.4399    2.2754   -0.0000 C   0  0  0  0  0  0  0  0  0  0  0  0
    6.4184    5.4739   -0.0000 C   0  0  0  0  0  0  0  0  0  0  0  0
    7.7923    3.0911   -0.0000 C   0  0  0  0  0  0  0  0  0  0  0  0
    7.2985    1.7817   -0.0000 C   0  0  0  0  0  0  0  0  0  0  0  0
    6.3969    6.7404   -0.0000 O   0  0  0  0  0  0  0  0  0  0  0  0
    7.7708    4.7011   -0.0000 C   0  0  0  0  0  0  0  0  0  0  0  0
    9.1446    2.2969   -0.0000 C   0  0  0  0  0  0  0  0  0  0  0  0
    7.7708    2.0822   -0.0000 C   0  0  0  0  0  0  0  0  0  0  0  0
    9.2949    4.3147   -0.0000 N   0  0  0  0  0  0  0  0  0  0  0  0
    9.1232    5.4739   -0.0000 C   0  0  0  0  0  0  0  0  0  0  0  0
   10.4755    3.0911   -0.0000 C   0  0  0  0  0  0  0  0  0  0  0  0
   11.9996    4.3362   -0.0000 C   0  0  0  0  0  0  0  0  0  0  0  0
    9.6169    2.8335   -0.0000 C   0  0  0  0  0  0  0  0  0  0  0  0
   10.4541    4.7226   -0.0000 C   0  0  0  0  0  0  0  0  0  0  0  0
    9.1017    7.1053   -0.0000 C   0  0  0  0  0  0  0  0  0  0  0  0
   13.2017    4.2074   -0.0000 O   0  0  0  0  0  0  0  0  0  0  0  0
    8.8226    1.5241   -0.0000 C   0  0  0  0  0  0  0  0  0  0  0  0
   11.1625    2.8121   -0.0000 C   0  0  0  0  0  0  0  0  0  0  0  0
   11.8064    5.5383   -0.0000 C   0  0  0  0  0  0  0  0  0  0  0  0
   10.4326    7.8996   -0.0000 C   0  0  0  0  0  0  0  0  0  0  0  0
    9.5525    0.1932   -0.0000 C   0  0  0  0  0  0  0  0  0  0  0  0
   11.8923    1.4812   -0.0000 C   0  0  0  0  0  0  0  0  0  0  0  0
   11.7850    7.1268   -0.0000 C   0  0  0  0  0  0  0  0  0  0  0  0
    9.3164    8.5006   -0.0000 C   0  0  0  0  0  0  0  0  0  0  0  0
   11.4844    8.5221   -0.0000 C   0  0  0  0  0  0  0  0  0  0  0  0
   11.0766    0.1717   -0.0000 C   0  0  0  0  0  0  0  0  0  0  0  0
  1  2  2  0  0  0  0
  2  3  1  0  0  0  0
  2  4  1  0  0  0  0
  3  5  1  0  0  0  0
  3  6  2  0  0  0  0
  4  7  1  0  0  0  0
  4  8  1  0  0  0  0
  4  9  1  0  0  0  0
  5 10  3  0  0  0  0
  6 11  1  0  0  0  0
  7 12  1  6  0  0  0
 11 13  1  0  0  0  0
 11 14  1  6  0  0  0
 12 15  1  0  0  0  0
 13 16  2  0  0  0  0
 13 17  1  0  0  0  0
 16 18  1  0  0  0  0
 17 19  1  0  0  0  0
 17 20  1  6  0  0  0
 18 21  2  0  0  0  0
 18 22  1  0  0  0  0
 19 23  1  0  0  0  0
 19 24  1  1  0  0  0
 22 25  1  6  0  0  0
 22 26  1  0  0  0  0
 23 27  1  0  0  0  0
 25 28  1  0  0  0  0
 25 29  1  0  0  0  0
 26 30  1  0  0  0  0
 26 31  1  1  0  0  0
 28 32  2  0  0  0  0
 29 33  1  0  0  0  0
 29 34  1  0  0  0  0
 30 35  1  1  0  0  0
 31 36  1  0  0  0  0
 33 37  1  0  0  0  0
 34 38  1  0  0  0  0
 35 39  1  0  0  0  0
 36 40  1  0  0  0  0
 36 41  1  0  0  0  0
 37 42  1  0  0  0  0
  7 11  1  0  0  0  0
 15 17  1  0  0  0  0
 19 22  1  0  0  0  0
 27 30  1  0  0  0  0
 28 30  1  0  0  0  0
 36 39  1  0  0  0  0
 38 42  1  0  0  0  0
M  END
>  <MolRegNo>
1948305

>  <m>
=

>  <Value>
2535

>  <Unit>
nM

>  <Type>
IC50

>  <pValue>
5.6

>  <Ligand Efficiency>
0

>  <Binding Efficiency>
0

>  <Surface Efficiency>
0

>  <Assay Index>
943070

>  <Assay Category>


>  <Assay Organism>
Homo sapiens

>  <Target ID>
17045

>  <Target Name>
Cytochrome P450 3A4

>  <Target Organism>
Homo sapiens

>  <Target Description>
Target is a single protein chain

>  <Sequence Accession>
P08684

>  <Reference>
J Med Chem 58 (11), 4506-4520 (2015)

>  <Pubmed ID>
25992974

>  <DOI>
10.1021/jm5020023

$$$$
1948548
Actelion Java MolfileCreator 1.0

 22 25  0  0  0  0  0  0  0  0999 V2000
    0.0000   -0.0000   -0.0000 F   0  0  0  0  0  0  0  0  0  0  0  0
   -0.7098   -1.0158   -0.0000 C   0  0  0  0  0  0  0  0  0  0  0  0
   -2.2764   -0.8934   -0.0000 C   0  0  0  0  0  0  0  0  0  0  0  0
   -0.0367   -2.3988   -0.0000 C   0  0  0  0  0  0  0  0  0  0  0  0
   -3.1576   -2.1662   -0.0000 C   0  0  0  0  0  0  0  0  0  0  0  0
   -2.8394    0.2325   -0.0000 C   0  0  0  0  0  0  0  0  0  0  0  0
   -0.9179   -3.6716   -0.0000 N   0  0  0  0  0  0  0  0  0  0  0  0
   -4.7241   -2.1662   -0.0000 C   0  0  0  0  0  0  0  0  0  0  0  0
   -2.4967   -3.5492   -0.0000 C   0  0  0  0  0  0  0  0  0  0  0  0
   -5.6420   -0.9301   -0.0000 N   0  0  0  0  0  0  0  0  0  0  0  0
   -5.6420   -3.4146   -0.0000 N   0  0  0  0  0  0  0  0  0  0  0  0
   -7.1229   -1.3952   -0.0000 C   0  0  0  0  0  0  0  0  0  0  0  0
   -7.1229   -2.9250   -0.0000 C   0  0  0  0  0  0  0  0  0  0  0  0
   -5.1647   -4.8832   -0.0000 C   0  0  0  0  0  0  0  0  0  0  0  0
   -8.4813   -0.5875   -0.0000 C   0  0  0  0  0  0  0  0  0  0  0  0
   -8.4813   -3.7083   -0.0000 C   0  0  0  0  0  0  0  0  0  0  0  0
   -4.1366   -5.9112   -0.0000 C   0  0  0  0  0  0  0  0  0  0  0  0
   -5.6542   -6.2662   -0.0000 C   0  0  0  0  0  0  0  0  0  0  0  0
   -9.8521   -1.3707   -0.0000 C   0  0  0  0  0  0  0  0  0  0  0  0
   -9.8521   -2.9005   -0.0000 C   0  0  0  0  0  0  0  0  0  0  0  0
  -10.9413   -0.7343   -0.0000 F   0  0  0  0  0  0  0  0  0  0  0  0
  -10.9413   -3.5125   -0.0000 F   0  0  0  0  0  0  0  0  0  0  0  0
  1  2  1  0  0  0  0
  2  3  2  0  0  0  0
  2  4  1  0  0  0  0
  3  5  1  0  0  0  0
  3  6  1  0  0  0  0
  4  7  2  0  0  0  0
  5  8  1  0  0  0  0
  5  9  2  0  0  0  0
  8 10  2  0  0  0  0
  8 11  1  0  0  0  0
 10 12  1  0  0  0  0
 11 13  1  0  0  0  0
 11 14  1  0  0  0  0
 12 15  1  0  0  0  0
 13 16  1  0  0  0  0
 14 17  1  0  0  0  0
 14 18  1  0  0  0  0
 15 19  2  0  0  0  0
 16 20  2  0  0  0  0
 19 21  1  0  0  0  0
 20 22  1  0  0  0  0
  7  9  1  0  0  0  0
 12 13  2  0  0  0  0
 17 18  1  0  0  0  0
 19 20  1  0  0  0  0
M  END
>  <MolRegNo>
1948548

>  <m>
=

>  <Value>
8235

>  <Unit>
nM

>  <Type>
IC50

>  <pValue>
5.08

>  <Ligand Efficiency>
0

>  <Binding Efficiency>
0

>  <Surface Efficiency>
0

>  <Assay Index>
944200

>  <Assay Category>


>  <Assay Organism>
Homo sapiens

>  <Target ID>
17045

>  <Target Name>
Cytochrome P450 3A4

>  <Target Organism>
Homo sapiens

>  <Target Description>
Target is a single protein chain

>  <Sequence Accession>
P08684

>  <Reference>
ACS Med Chem Lett 6 (5), 573-578 (2015)

>  <Pubmed ID>
26005536

>  <DOI>
10.1021/acsmedchemlett.5b00054

$$$$
1947174
Actelion Java MolfileCreator 1.0

 23 25  0  0  0  0  0  0  0  0999 V2000
    0.0000   -0.0000   -0.0000 S   0  0  0  0  0  0  0  0  0  0  0  0
    1.2260    0.8774   -0.0000 C   0  0  0  0  0  0  0  0  0  0  0  0
    0.4568   -1.4424   -0.0000 C   0  0  0  0  0  0  0  0  0  0  0  0
    2.4400    0.0120   -0.0000 N   0  0  0  0  0  0  0  0  0  0  0  0
    1.2140    2.4160   -0.0000 N   0  0  0  0  0  0  0  0  0  0  0  0
    1.9713   -1.4304   -0.0000 C   0  0  0  0  0  0  0  0  0  0  0  0
   -0.1202    3.1973   -0.0000 C   0  0  0  0  0  0  0  0  0  0  0  0
    2.8487   -2.6564   -0.0000 C   0  0  0  0  0  0  0  0  0  0  0  0
   -1.1900    2.5963   -0.0000 O   0  0  0  0  0  0  0  0  0  0  0  0
   -0.1322    4.7358   -0.0000 C   0  0  0  0  0  0  0  0  0  0  0  0
    4.3512   -2.6083   -0.0000 C   0  0  0  0  0  0  0  0  0  0  0  0
    2.1035   -3.9786   -0.0000 C   0  0  0  0  0  0  0  0  0  0  0  0
   -1.4664    5.5171   -0.0000 C   0  0  0  0  0  0  0  0  0  0  0  0
    5.1325   -3.8944   -0.0000 C   0  0  0  0  0  0  0  0  0  0  0  0
    2.8848   -5.2647   -0.0000 C   0  0  0  0  0  0  0  0  0  0  0  0
   -1.4784    7.0556   -0.0000 C   0  0  0  0  0  0  0  0  0  0  0  0
   -2.8006    4.7719   -0.0000 C   0  0  0  0  0  0  0  0  0  0  0  0
    4.3872   -5.2286   -0.0000 N   0  0  0  0  0  0  0  0  0  0  0  0
   -2.8126    7.8249   -0.0000 C   0  0  0  0  0  0  0  0  0  0  0  0
   -4.1348    5.5411   -0.0000 C   0  0  0  0  0  0  0  0  0  0  0  0
   -2.8247    9.3635   -0.0000 O   0  0  0  0  0  0  0  0  0  0  0  0
   -4.1468    7.0797   -0.0000 C   0  0  0  0  0  0  0  0  0  0  0  0
   -3.8944    9.9885   -0.0000 C   0  0  0  0  0  0  0  0  0  0  0  0
  1  2  1  0  0  0  0
  1  3  1  0  0  0  0
  2  4  2  0  0  0  0
  2  5  1  0  0  0  0
  3  6  2  0  0  0  0
  5  7  1  0  0  0  0
  6  8  1  0  0  0  0
  7  9  2  0  0  0  0
  7 10  1  0  0  0  0
  8 11  2  0  0  0  0
  8 12  1  0  0  0  0
 10 13  1  0  0  0  0
 11 14  1  0  0  0  0
 12 15  2  0  0  0  0
 13 16  2  0  0  0  0
 13 17  1  0  0  0  0
 14 18  2  0  0  0  0
 16 19  1  0  0  0  0
 17 20  2  0  0  0  0
 19 21  1  0  0  0  0
 19 22  2  0  0  0  0
 21 23  1  0  0  0  0
  4  6  1  0  0  0  0
 15 18  1  0  0  0  0
 20 22  1  0  0  0  0
M  END
>  <MolRegNo>
1947174

>  <m>
=

>  <Value>
750

>  <Unit>
nM

>  <Type>
IC50

>  <pValue>
6.12

>  <Ligand Efficiency>
0

>  <Binding Efficiency>
0

>  <Surface Efficiency>
0

>  <Assay Index>
945082

>  <Assay Category>


>  <Assay Organism>
Homo sapiens

>  <Target ID>
17045

>  <Target Name>
Cytochrome P450 3A4

>  <Target Organism>
Homo sapiens

>  <Target Description>
Target is a single protein chain

>  <Sequence Accession>
P08684

>  <Reference>
J Med Chem 58 (12), 5028-5037 (2015)

>  <Pubmed ID>
26039570

>  <DOI>
10.1021/acs.jmedchem.5b00424

$$$$
1947185
Actelion Java MolfileCreator 1.0

 23 25  0  0  0  0  0  0  0  0999 V2000
    0.0000   -0.0000   -0.0000 S   0  0  0  0  0  0  0  0  0  0  0  0
    1.2260    0.8774   -0.0000 C   0  0  0  0  0  0  0  0  0  0  0  0
    0.4568   -1.4424   -0.0000 C   0  0  0  0  0  0  0  0  0  0  0  0
    1.2140    2.4160   -0.0000 N   0  0  0  0  0  0  0  0  0  0  0  0
    2.4400    0.0120   -0.0000 C   0  0  0  0  0  0  0  0  0  0  0  0
    1.9713   -1.4304   -0.0000 C   0  0  0  0  0  0  0  0  0  0  0  0
   -0.1202    3.1973   -0.0000 C   0  0  0  0  0  0  0  0  0  0  0  0
    2.8487   -2.6564   -0.0000 C   0  0  0  0  0  0  0  0  0  0  0  0
   -1.1900    2.5963   -0.0000 O   0  0  0  0  0  0  0  0  0  0  0  0
   -0.1322    4.7358   -0.0000 C   0  0  0  0  0  0  0  0  0  0  0  0
    4.3512   -2.6083   -0.0000 C   0  0  0  0  0  0  0  0  0  0  0  0
    2.1035   -3.9786   -0.0000 C   0  0  0  0  0  0  0  0  0  0  0  0
   -1.4664    5.5171   -0.0000 C   0  0  0  0  0  0  0  0  0  0  0  0
    5.1325   -3.8944   -0.0000 C   0  0  0  0  0  0  0  0  0  0  0  0
    2.8848   -5.2647   -0.0000 C   0  0  0  0  0  0  0  0  0  0  0  0
   -1.4784    7.0556   -0.0000 C   0  0  0  0  0  0  0  0  0  0  0  0
   -2.8006    4.7719   -0.0000 C   0  0  0  0  0  0  0  0  0  0  0  0
    4.3872   -5.2286   -0.0000 N   0  0  0  0  0  0  0  0  0  0  0  0
   -2.8126    7.8249   -0.0000 C   0  0  0  0  0  0  0  0  0  0  0  0
   -4.1348    5.5411   -0.0000 C   0  0  0  0  0  0  0  0  0  0  0  0
   -2.8247    9.3635   -0.0000 O   0  0  0  0  0  0  0  0  0  0  0  0
   -4.1468    7.0797   -0.0000 C   0  0  0  0  0  0  0  0  0  0  0  0
   -3.8944    9.9885   -0.0000 C   0  0  0  0  0  0  0  0  0  0  0  0
  1  2  1  0  0  0  0
  1  3  1  0  0  0  0
  2  4  1  0  0  0  0
  2  5  2  0  0  0  0
  3  6  2  0  0  0  0
  4  7  1  0  0  0  0
  6  8  1  0  0  0  0
  7  9  2  0  0  0  0
  7 10  1  0  0  0  0
  8 11  2  0  0  0  0
  8 12  1  0  0  0  0
 10 13  1  0  0  0  0
 11 14  1  0  0  0  0
 12 15  2  0  0  0  0
 13 16  2  0  0  0  0
 13 17  1  0  0  0  0
 14 18  2  0  0  0  0
 16 19  1  0  0  0  0
 17 20  2  0  0  0  0
 19 21  1  0  0  0  0
 19 22  2  0  0  0  0
 21 23  1  0  0  0  0
  5  6  1  0  0  0  0
 15 18  1  0  0  0  0
 20 22  1  0  0  0  0
M  END
>  <MolRegNo>
1947185

>  <m>
=

>  <Value>
480

>  <Unit>
nM

>  <Type>
IC50

>  <pValue>
6.32

>  <Ligand Efficiency>
0

>  <Binding Efficiency>
0

>  <Surface Efficiency>
0

>  <Assay Index>
945082

>  <Assay Category>


>  <Assay Organism>
Homo sapiens

>  <Target ID>
17045

>  <Target Name>
Cytochrome P450 3A4

>  <Target Organism>
Homo sapiens

>  <Target Description>
Target is a single protein chain

>  <Sequence Accession>
P08684

>  <Reference>
J Med Chem 58 (12), 5028-5037 (2015)

>  <Pubmed ID>
26039570

>  <DOI>
10.1021/acs.jmedchem.5b00424

$$$$
1947190
Actelion Java MolfileCreator 1.0

 23 25  0  0  0  0  0  0  0  0999 V2000
    0.0000   -0.0000   -0.0000 S   0  0  0  0  0  0  0  0  0  0  0  0
    1.2262    0.8775   -0.0000 C   0  0  0  0  0  0  0  0  0  0  0  0
    0.4568   -1.4425   -0.0000 C   0  0  0  0  0  0  0  0  0  0  0  0
    2.4403    0.0120   -0.0000 N   0  0  0  0  0  0  0  0  0  0  0  0
    1.2141    2.4162   -0.0000 N   0  0  0  0  0  0  0  0  0  0  0  0
    1.9715   -1.4305   -0.0000 C   0  0  0  0  0  0  0  0  0  0  0  0
   -0.1202    3.1976   -0.0000 C   0  0  0  0  0  0  0  0  0  0  0  0
    2.8490   -2.6567   -0.0000 C   0  0  0  0  0  0  0  0  0  0  0  0
   -1.1901    2.5966   -0.0000 O   0  0  0  0  0  0  0  0  0  0  0  0
   -0.1322    4.7363   -0.0000 C   0  0  0  0  0  0  0  0  0  0  0  0
    2.1037   -3.9790   -0.0000 N   0  0  0  0  0  0  0  0  0  0  0  0
    4.3516   -2.6086   -0.0000 C   0  0  0  0  0  0  0  0  0  0  0  0
   -1.4666    5.5177   -0.0000 C   0  0  0  0  0  0  0  0  0  0  0  0
    2.8851   -5.2653   -0.0000 C   0  0  0  0  0  0  0  0  0  0  0  0
    5.1330   -3.8948   -0.0000 C   0  0  0  0  0  0  0  0  0  0  0  0
   -1.4786    7.0564   -0.0000 C   0  0  0  0  0  0  0  0  0  0  0  0
   -2.8009    4.7724   -0.0000 C   0  0  0  0  0  0  0  0  0  0  0  0
    4.3997   -5.2172   -0.0000 N   0  0  0  0  0  0  0  0  0  0  0  0
   -2.8129    7.8258   -0.0000 C   0  0  0  0  0  0  0  0  0  0  0  0
   -4.1353    5.5417   -0.0000 C   0  0  0  0  0  0  0  0  0  0  0  0
   -2.8250    9.3645   -0.0000 O   0  0  0  0  0  0  0  0  0  0  0  0
   -4.1473    7.0804   -0.0000 C   0  0  0  0  0  0  0  0  0  0  0  0
   -3.8948    9.9896   -0.0000 C   0  0  0  0  0  0  0  0  0  0  0  0
  1  2  1  0  0  0  0
  1  3  1  0  0  0  0
  2  4  2  0  0  0  0
  2  5  1  0  0  0  0
  3  6  2  0  0  0  0
  5  7  1  0  0  0  0
  6  8  1  0  0  0  0
  7  9  2  0  0  0  0
  7 10  1  0  0  0  0
  8 11  2  0  0  0  0
  8 12  1  0  0  0  0
 10 13  1  0  0  0  0
 11 14  1  0  0  0  0
 12 15  2  0  0  0  0
 13 16  2  0  0  0  0
 13 17  1  0  0  0  0
 14 18  2  0  0  0  0
 16 19  1  0  0  0  0
 17 20  2  0  0  0  0
 19 21  1  0  0  0  0
 19 22  2  0  0  0  0
 21 23  1  0  0  0  0
  4  6  1  0  0  0  0
 15 18  1  0  0  0  0
 20 22  1  0  0  0  0
M  END
>  <MolRegNo>
1947190

>  <m>
=

>  <Value>
10000

>  <Unit>
nM

>  <Type>
IC50

>  <pValue>
5

>  <Ligand Efficiency>
0

>  <Binding Efficiency>
0

>  <Surface Efficiency>
0

>  <Assay Index>
945082

>  <Assay Category>


>  <Assay Organism>
Homo sapiens

>  <Target ID>
17045

>  <Target Name>
Cytochrome P450 3A4

>  <Target Organism>
Homo sapiens

>  <Target Description>
Target is a single protein chain

>  <Sequence Accession>
P08684

>  <Reference>
J Med Chem 58 (12), 5028-5037 (2015)

>  <Pubmed ID>
26039570

>  <DOI>
10.1021/acs.jmedchem.5b00424

$$$$
1947191
Actelion Java MolfileCreator 1.0

 23 25  0  0  0  0  0  0  0  0999 V2000
    0.0000   -0.0000   -0.0000 S   0  0  0  0  0  0  0  0  0  0  0  0
    1.2262    0.8775   -0.0000 C   0  0  0  0  0  0  0  0  0  0  0  0
    0.4568   -1.4425   -0.0000 C   0  0  0  0  0  0  0  0  0  0  0  0
    1.2141    2.4162   -0.0000 N   0  0  0  0  0  0  0  0  0  0  0  0
    2.4403    0.0120   -0.0000 C   0  0  0  0  0  0  0  0  0  0  0  0
    1.9715   -1.4305   -0.0000 C   0  0  0  0  0  0  0  0  0  0  0  0
   -0.1202    3.1976   -0.0000 C   0  0  0  0  0  0  0  0  0  0  0  0
    2.8490   -2.6567   -0.0000 C   0  0  0  0  0  0  0  0  0  0  0  0
   -1.1901    2.5966   -0.0000 O   0  0  0  0  0  0  0  0  0  0  0  0
   -0.1322    4.7363   -0.0000 C   0  0  0  0  0  0  0  0  0  0  0  0
    2.1037   -3.9790   -0.0000 N   0  0  0  0  0  0  0  0  0  0  0  0
    4.3516   -2.6086   -0.0000 C   0  0  0  0  0  0  0  0  0  0  0  0
   -1.4666    5.5177   -0.0000 C   0  0  0  0  0  0  0  0  0  0  0  0
    2.8851   -5.2653   -0.0000 C   0  0  0  0  0  0  0  0  0  0  0  0
    5.1330   -3.8948   -0.0000 C   0  0  0  0  0  0  0  0  0  0  0  0
   -1.4786    7.0564   -0.0000 C   0  0  0  0  0  0  0  0  0  0  0  0
   -2.8009    4.7724   -0.0000 C   0  0  0  0  0  0  0  0  0  0  0  0
    4.3997   -5.2172   -0.0000 N   0  0  0  0  0  0  0  0  0  0  0  0
   -2.8129    7.8258   -0.0000 C   0  0  0  0  0  0  0  0  0  0  0  0
   -4.1353    5.5417   -0.0000 C   0  0  0  0  0  0  0  0  0  0  0  0
   -2.8250    9.3645   -0.0000 O   0  0  0  0  0  0  0  0  0  0  0  0
   -4.1473    7.0804   -0.0000 C   0  0  0  0  0  0  0  0  0  0  0  0
   -3.8948    9.9896   -0.0000 C   0  0  0  0  0  0  0  0  0  0  0  0
  1  2  1  0  0  0  0
  1  3  1  0  0  0  0
  2  4  1  0  0  0  0
  2  5  2  0  0  0  0
  3  6  2  0  0  0  0
  4  7  1  0  0  0  0
  6  8  1  0  0  0  0
  7  9  2  0  0  0  0
  7 10  1  0  0  0  0
  8 11  2  0  0  0  0
  8 12  1  0  0  0  0
 10 13  1  0  0  0  0
 11 14  1  0  0  0  0
 12 15  2  0  0  0  0
 13 16  2  0  0  0  0
 13 17  1  0  0  0  0
 14 18  2  0  0  0  0
 16 19  1  0  0  0  0
 17 20  2  0  0  0  0
 19 21  1  0  0  0  0
 19 22  2  0  0  0  0
 21 23  1  0  0  0  0
  5  6  1  0  0  0  0
 15 18  1  0  0  0  0
 20 22  1  0  0  0  0
M  END
>  <MolRegNo>
1947191

>  <m>
=

>  <Value>
2000

>  <Unit>
nM

>  <Type>
IC50

>  <pValue>
5.7

>  <Ligand Efficiency>
0

>  <Binding Efficiency>
0

>  <Surface Efficiency>
0

>  <Assay Index>
945082

>  <Assay Category>


>  <Assay Organism>
Homo sapiens

>  <Target ID>
17045

>  <Target Name>
Cytochrome P450 3A4

>  <Target Organism>
Homo sapiens

>  <Target Description>
Target is a single protein chain

>  <Sequence Accession>
P08684

>  <Reference>
J Med Chem 58 (12), 5028-5037 (2015)

>  <Pubmed ID>
26039570

>  <DOI>
10.1021/acs.jmedchem.5b00424

$$$$
1947192
Actelion Java MolfileCreator 1.0

 24 26  0  0  0  0  0  0  0  0999 V2000
    0.0000   -0.0000   -0.0000 S   0  0  0  0  0  0  0  0  0  0  0  0
    1.2353    0.8841   -0.0000 C   0  0  0  0  0  0  0  0  0  0  0  0
    0.4602   -1.4533   -0.0000 C   0  0  0  0  0  0  0  0  0  0  0  0
    2.4585    0.0121   -0.0000 N   0  0  0  0  0  0  0  0  0  0  0  0
    1.2232    2.4343   -0.0000 N   0  0  0  0  0  0  0  0  0  0  0  0
    1.9862   -1.4412   -0.0000 C   0  0  0  0  0  0  0  0  0  0  0  0
   -0.1211    3.2215   -0.0000 C   0  0  0  0  0  0  0  0  0  0  0  0
    2.8703   -2.6765   -0.0000 C   0  0  0  0  0  0  0  0  0  0  0  0
   -1.1990    2.6160   -0.0000 O   0  0  0  0  0  0  0  0  0  0  0  0
   -0.1332    4.7717   -0.0000 C   0  0  0  0  0  0  0  0  0  0  0  0
    2.1194   -4.0087   -0.0000 C   0  0  0  0  0  0  0  0  0  0  0  0
    4.3842   -2.6281   -0.0000 C   0  0  0  0  0  0  0  0  0  0  0  0
   -1.4775    5.5589   -0.0000 C   0  0  0  0  0  0  0  0  0  0  0  0
    2.9066   -5.3046   -0.0000 C   0  0  0  0  0  0  0  0  0  0  0  0
    5.1714   -3.9239   -0.0000 C   0  0  0  0  0  0  0  0  0  0  0  0
   -1.4896    7.1091   -0.0000 C   0  0  0  0  0  0  0  0  0  0  0  0
   -2.8218    4.8080   -0.0000 C   0  0  0  0  0  0  0  0  0  0  0  0
    4.4326   -5.2561   -0.0000 N   0  0  0  0  0  0  0  0  0  0  0  0
    2.3132   -6.3704   -0.0000 C   0  0  0  0  0  0  0  0  0  0  0  0
   -2.8340    7.8842   -0.0000 C   0  0  0  0  0  0  0  0  0  0  0  0
   -4.1662    5.5831   -0.0000 C   0  0  0  0  0  0  0  0  0  0  0  0
   -2.8461    9.4344   -0.0000 O   0  0  0  0  0  0  0  0  0  0  0  0
   -4.1783    7.1333   -0.0000 C   0  0  0  0  0  0  0  0  0  0  0  0
   -3.9239   10.0642   -0.0000 C   0  0  0  0  0  0  0  0  0  0  0  0
  1  2  1  0  0  0  0
  1  3  1  0  0  0  0
  2  4  2  0  0  0  0
  2  5  1  0  0  0  0
  3  6  2  0  0  0  0
  5  7  1  0  0  0  0
  6  8  1  0  0  0  0
  7  9  2  0  0  0  0
  7 10  1  0  0  0  0
  8 11  2  0  0  0  0
  8 12  1  0  0  0  0
 10 13  1  0  0  0  0
 11 14  1  0  0  0  0
 12 15  2  0  0  0  0
 13 16  2  0  0  0  0
 13 17  1  0  0  0  0
 14 18  2  0  0  0  0
 14 19  1  0  0  0  0
 16 20  1  0  0  0  0
 17 21  2  0  0  0  0
 20 22  1  0  0  0  0
 20 23  2  0  0  0  0
 22 24  1  0  0  0  0
  4  6  1  0  0  0  0
 15 18  1  0  0  0  0
 21 23  1  0  0  0  0
M  END
>  <MolRegNo>
1947192

>  <m>
=

>  <Value>
7400

>  <Unit>
nM

>  <Type>
IC50

>  <pValue>
5.13

>  <Ligand Efficiency>
0

>  <Binding Efficiency>
0

>  <Surface Efficiency>
0

>  <Assay Index>
945082

>  <Assay Category>


>  <Assay Organism>
Homo sapiens

>  <Target ID>
17045

>  <Target Name>
Cytochrome P450 3A4

>  <Target Organism>
Homo sapiens

>  <Target Description>
Target is a single protein chain

>  <Sequence Accession>
P08684

>  <Reference>
J Med Chem 58 (12), 5028-5037 (2015)

>  <Pubmed ID>
26039570

>  <DOI>
10.1021/acs.jmedchem.5b00424

$$$$
1947193
Actelion Java MolfileCreator 1.0

 24 26  0  0  0  0  0  0  0  0999 V2000
    0.0000   -0.0000   -0.0000 S   0  0  0  0  0  0  0  0  0  0  0  0
    1.2353    0.8841   -0.0000 C   0  0  0  0  0  0  0  0  0  0  0  0
    0.4602   -1.4533   -0.0000 C   0  0  0  0  0  0  0  0  0  0  0  0
    2.4585    0.0121   -0.0000 N   0  0  0  0  0  0  0  0  0  0  0  0
    1.2232    2.4343   -0.0000 N   0  0  0  0  0  0  0  0  0  0  0  0
    1.9862   -1.4412   -0.0000 C   0  0  0  0  0  0  0  0  0  0  0  0
   -0.1211    3.2215   -0.0000 C   0  0  0  0  0  0  0  0  0  0  0  0
    2.8703   -2.6765   -0.0000 C   0  0  0  0  0  0  0  0  0  0  0  0
   -1.1990    2.6160   -0.0000 O   0  0  0  0  0  0  0  0  0  0  0  0
   -0.1332    4.7717   -0.0000 C   0  0  0  0  0  0  0  0  0  0  0  0
    2.1194   -4.0087   -0.0000 C   0  0  0  0  0  0  0  0  0  0  0  0
    4.3842   -2.6281   -0.0000 C   0  0  0  0  0  0  0  0  0  0  0  0
   -1.4775    5.5589   -0.0000 C   0  0  0  0  0  0  0  0  0  0  0  0
    2.9066   -5.3046   -0.0000 C   0  0  0  0  0  0  0  0  0  0  0  0
    5.1714   -3.9239   -0.0000 C   0  0  0  0  0  0  0  0  0  0  0  0
   -1.4896    7.1091   -0.0000 C   0  0  0  0  0  0  0  0  0  0  0  0
   -2.8218    4.8080   -0.0000 C   0  0  0  0  0  0  0  0  0  0  0  0
    4.4326   -5.2561   -0.0000 N   0  0  0  0  0  0  0  0  0  0  0  0
    2.3132   -6.3704   -0.0000 N   0  0  0  0  0  0  0  0  0  0  0  0
   -2.8340    7.8842   -0.0000 C   0  0  0  0  0  0  0  0  0  0  0  0
   -4.1662    5.5831   -0.0000 C   0  0  0  0  0  0  0  0  0  0  0  0
   -2.8461    9.4344   -0.0000 O   0  0  0  0  0  0  0  0  0  0  0  0
   -4.1783    7.1333   -0.0000 C   0  0  0  0  0  0  0  0  0  0  0  0
   -3.9239   10.0642   -0.0000 C   0  0  0  0  0  0  0  0  0  0  0  0
  1  2  1  0  0  0  0
  1  3  1  0  0  0  0
  2  4  2  0  0  0  0
  2  5  1  0  0  0  0
  3  6  2  0  0  0  0
  5  7  1  0  0  0  0
  6  8  1  0  0  0  0
  7  9  2  0  0  0  0
  7 10  1  0  0  0  0
  8 11  2  0  0  0  0
  8 12  1  0  0  0  0
 10 13  1  0  0  0  0
 11 14  1  0  0  0  0
 12 15  2  0  0  0  0
 13 16  2  0  0  0  0
 13 17  1  0  0  0  0
 14 18  2  0  0  0  0
 14 19  1  0  0  0  0
 16 20  1  0  0  0  0
 17 21  2  0  0  0  0
 20 22  1  0  0  0  0
 20 23  2  0  0  0  0
 22 24  1  0  0  0  0
  4  6  1  0  0  0  0
 15 18  1  0  0  0  0
 21 23  1  0  0  0  0
M  END
>  <MolRegNo>
1947193

>  <m>
=

>  <Value>
26000

>  <Unit>
nM

>  <Type>
IC50

>  <pValue>
4.58

>  <Ligand Efficiency>
0

>  <Binding Efficiency>
0

>  <Surface Efficiency>
0

>  <Assay Index>
945082

>  <Assay Category>


>  <Assay Organism>
Homo sapiens

>  <Target ID>
17045

>  <Target Name>
Cytochrome P450 3A4

>  <Target Organism>
Homo sapiens

>  <Target Description>
Target is a single protein chain

>  <Sequence Accession>
P08684

>  <Reference>
J Med Chem 58 (12), 5028-5037 (2015)

>  <Pubmed ID>
26039570

>  <DOI>
10.1021/acs.jmedchem.5b00424

$$$$
1947194
Actelion Java MolfileCreator 1.0

 25 27  0  0  0  0  0  0  0  0999 V2000
    0.0000   -0.0000   -0.0000 S   0  0  0  0  0  0  0  0  0  0  0  0
    1.2336    0.8829   -0.0000 C   0  0  0  0  0  0  0  0  0  0  0  0
    0.4596   -1.4513   -0.0000 C   0  0  0  0  0  0  0  0  0  0  0  0
    2.4551    0.0121   -0.0000 N   0  0  0  0  0  0  0  0  0  0  0  0
    1.2215    2.4309   -0.0000 N   0  0  0  0  0  0  0  0  0  0  0  0
    1.9834   -1.4392   -0.0000 C   0  0  0  0  0  0  0  0  0  0  0  0
   -0.1209    3.2170   -0.0000 C   0  0  0  0  0  0  0  0  0  0  0  0
    2.8663   -2.6728   -0.0000 C   0  0  0  0  0  0  0  0  0  0  0  0
   -1.1973    2.6123   -0.0000 O   0  0  0  0  0  0  0  0  0  0  0  0
   -0.1330    4.7650   -0.0000 C   0  0  0  0  0  0  0  0  0  0  0  0
    2.1164   -4.0031   -0.0000 C   0  0  0  0  0  0  0  0  0  0  0  0
    4.3780   -2.6244   -0.0000 C   0  0  0  0  0  0  0  0  0  0  0  0
   -1.4755    5.5511   -0.0000 C   0  0  0  0  0  0  0  0  0  0  0  0
    2.9025   -5.2971   -0.0000 C   0  0  0  0  0  0  0  0  0  0  0  0
    5.1641   -3.9184   -0.0000 C   0  0  0  0  0  0  0  0  0  0  0  0
   -1.4876    7.0991   -0.0000 C   0  0  0  0  0  0  0  0  0  0  0  0
   -2.8179    4.8013   -0.0000 C   0  0  0  0  0  0  0  0  0  0  0  0
    4.4264   -5.2488   -0.0000 N   0  0  0  0  0  0  0  0  0  0  0  0
    2.1527   -6.6275   -0.0000 N   0  0  0  0  0  0  0  0  0  0  0  0
   -2.8300    7.8732   -0.0000 C   0  0  0  0  0  0  0  0  0  0  0  0
   -4.1603    5.5753   -0.0000 C   0  0  0  0  0  0  0  0  0  0  0  0
    0.9070   -6.6396   -0.0000 C   0  0  0  0  0  0  0  0  0  0  0  0
   -2.8421    9.4212   -0.0000 O   0  0  0  0  0  0  0  0  0  0  0  0
   -4.1724    7.1233   -0.0000 C   0  0  0  0  0  0  0  0  0  0  0  0
   -3.9184   10.0501   -0.0000 C   0  0  0  0  0  0  0  0  0  0  0  0
  1  2  1  0  0  0  0
  1  3  1  0  0  0  0
  2  4  2  0  0  0  0
  2  5  1  0  0  0  0
  3  6  2  0  0  0  0
  5  7  1  0  0  0  0
  6  8  1  0  0  0  0
  7  9  2  0  0  0  0
  7 10  1  0  0  0  0
  8 11  2  0  0  0  0
  8 12  1  0  0  0  0
 10 13  1  0  0  0  0
 11 14  1  0  0  0  0
 12 15  2  0  0  0  0
 13 16  2  0  0  0  0
 13 17  1  0  0  0  0
 14 18  2  0  0  0  0
 14 19  1  0  0  0  0
 16 20  1  0  0  0  0
 17 21  2  0  0  0  0
 19 22  1  0  0  0  0
 20 23  1  0  0  0  0
 20 24  2  0  0  0  0
 23 25  1  0  0  0  0
  4  6  1  0  0  0  0
 15 18  1  0  0  0  0
 21 24  1  0  0  0  0
M  END
>  <MolRegNo>
1947194

>  <m>
=

>  <Value>
11400

>  <Unit>
nM

>  <Type>
IC50

>  <pValue>
4.94

>  <Ligand Efficiency>
0

>  <Binding Efficiency>
0

>  <Surface Efficiency>
0

>  <Assay Index>
945082

>  <Assay Category>


>  <Assay Organism>
Homo sapiens

>  <Target ID>
17045

>  <Target Name>
Cytochrome P450 3A4

>  <Target Organism>
Homo sapiens

>  <Target Description>
Target is a single protein chain

>  <Sequence Accession>
P08684

>  <Reference>
J Med Chem 58 (12), 5028-5037 (2015)

>  <Pubmed ID>
26039570

>  <DOI>
10.1021/acs.jmedchem.5b00424

$$$$
1947195
Actelion Java MolfileCreator 1.0

 26 28  0  0  0  0  0  0  0  0999 V2000
    0.0000   -0.0000   -0.0000 S   0  0  0  0  0  0  0  0  0  0  0  0
    1.2420    0.8889   -0.0000 C   0  0  0  0  0  0  0  0  0  0  0  0
    0.4627   -1.4612   -0.0000 C   0  0  0  0  0  0  0  0  0  0  0  0
    2.4718    0.0122   -0.0000 N   0  0  0  0  0  0  0  0  0  0  0  0
    1.2298    2.4475   -0.0000 N   0  0  0  0  0  0  0  0  0  0  0  0
    1.9969   -1.4490   -0.0000 C   0  0  0  0  0  0  0  0  0  0  0  0
   -0.1218    3.2389   -0.0000 C   0  0  0  0  0  0  0  0  0  0  0  0
    2.8858   -2.6910   -0.0000 C   0  0  0  0  0  0  0  0  0  0  0  0
   -1.2055    2.6301   -0.0000 O   0  0  0  0  0  0  0  0  0  0  0  0
   -0.1339    4.7975   -0.0000 C   0  0  0  0  0  0  0  0  0  0  0  0
    2.1309   -4.0304   -0.0000 C   0  0  0  0  0  0  0  0  0  0  0  0
    4.4079   -2.6423   -0.0000 C   0  0  0  0  0  0  0  0  0  0  0  0
   -1.4855    5.5890   -0.0000 C   0  0  0  0  0  0  0  0  0  0  0  0
    2.9223   -5.3333   -0.0000 C   0  0  0  0  0  0  0  0  0  0  0  0
    5.1993   -3.9452   -0.0000 C   0  0  0  0  0  0  0  0  0  0  0  0
   -1.4977    7.1476   -0.0000 C   0  0  0  0  0  0  0  0  0  0  0  0
   -2.8371    4.8341   -0.0000 C   0  0  0  0  0  0  0  0  0  0  0  0
    4.4566   -5.2846   -0.0000 N   0  0  0  0  0  0  0  0  0  0  0  0
    2.1674   -6.6727   -0.0000 N   0  0  0  0  0  0  0  0  0  0  0  0
   -2.8493    7.9269   -0.0000 C   0  0  0  0  0  0  0  0  0  0  0  0
   -4.1887    5.6133   -0.0000 C   0  0  0  0  0  0  0  0  0  0  0  0
    0.9132   -6.6849   -0.0000 C   0  0  0  0  0  0  0  0  0  0  0  0
    2.8006   -7.7199   -0.0000 C   0  0  0  0  0  0  0  0  0  0  0  0
   -2.8615    9.4855   -0.0000 O   0  0  0  0  0  0  0  0  0  0  0  0
   -4.2009    7.1719   -0.0000 C   0  0  0  0  0  0  0  0  0  0  0  0
   -3.9452   10.1186   -0.0000 C   0  0  0  0  0  0  0  0  0  0  0  0
  1  2  1  0  0  0  0
  1  3  1  0  0  0  0
  2  4  2  0  0  0  0
  2  5  1  0  0  0  0
  3  6  2  0  0  0  0
  5  7  1  0  0  0  0
  6  8  1  0  0  0  0
  7  9  2  0  0  0  0
  7 10  1  0  0  0  0
  8 11  2  0  0  0  0
  8 12  1  0  0  0  0
 10 13  1  0  0  0  0
 11 14  1  0  0  0  0
 12 15  2  0  0  0  0
 13 16  2  0  0  0  0
 13 17  1  0  0  0  0
 14 18  2  0  0  0  0
 14 19  1  0  0  0  0
 16 20  1  0  0  0  0
 17 21  2  0  0  0  0
 19 22  1  0  0  0  0
 19 23  1  0  0  0  0
 20 24  1  0  0  0  0
 20 25  2  0  0  0  0
 24 26  1  0  0  0  0
  4  6  1  0  0  0  0
 15 18  1  0  0  0  0
 21 25  1  0  0  0  0
M  END
>  <MolRegNo>
1947195

>  <m>
=

>  <Value>
3500

>  <Unit>
nM

>  <Type>
IC50

>  <pValue>
5.46

>  <Ligand Efficiency>
0

>  <Binding Efficiency>
0

>  <Surface Efficiency>
0

>  <Assay Index>
945082

>  <Assay Category>


>  <Assay Organism>
Homo sapiens

>  <Target ID>
17045

>  <Target Name>
Cytochrome P450 3A4

>  <Target Organism>
Homo sapiens

>  <Target Description>
Target is a single protein chain

>  <Sequence Accession>
P08684

>  <Reference>
J Med Chem 58 (12), 5028-5037 (2015)

>  <Pubmed ID>
26039570

>  <DOI>
10.1021/acs.jmedchem.5b00424

$$$$
1947196
Actelion Java MolfileCreator 1.0

 25 27  0  0  0  0  0  0  0  0999 V2000
    0.0000   -0.0000   -0.0000 S   0  0  0  0  0  0  0  0  0  0  0  0
    1.2336    0.8829   -0.0000 C   0  0  0  0  0  0  0  0  0  0  0  0
    0.4596   -1.4513   -0.0000 C   0  0  0  0  0  0  0  0  0  0  0  0
    2.4551    0.0121   -0.0000 N   0  0  0  0  0  0  0  0  0  0  0  0
    1.2215    2.4309   -0.0000 N   0  0  0  0  0  0  0  0  0  0  0  0
    1.9834   -1.4392   -0.0000 C   0  0  0  0  0  0  0  0  0  0  0  0
   -0.1209    3.2170   -0.0000 C   0  0  0  0  0  0  0  0  0  0  0  0
    2.8663   -2.6728   -0.0000 C   0  0  0  0  0  0  0  0  0  0  0  0
   -1.1973    2.6123   -0.0000 O   0  0  0  0  0  0  0  0  0  0  0  0
   -0.1330    4.7650   -0.0000 C   0  0  0  0  0  0  0  0  0  0  0  0
    2.1164   -4.0031   -0.0000 C   0  0  0  0  0  0  0  0  0  0  0  0
    4.3780   -2.6244   -0.0000 C   0  0  0  0  0  0  0  0  0  0  0  0
   -1.4755    5.5511   -0.0000 C   0  0  0  0  0  0  0  0  0  0  0  0
    2.9025   -5.2971   -0.0000 C   0  0  0  0  0  0  0  0  0  0  0  0
    5.1641   -3.9184   -0.0000 C   0  0  0  0  0  0  0  0  0  0  0  0
   -1.4876    7.0991   -0.0000 C   0  0  0  0  0  0  0  0  0  0  0  0
   -2.8179    4.8013   -0.0000 C   0  0  0  0  0  0  0  0  0  0  0  0
    2.1527   -6.6275   -0.0000 O   0  0  0  0  0  0  0  0  0  0  0  0
    4.4264   -5.2488   -0.0000 N   0  0  0  0  0  0  0  0  0  0  0  0
   -2.8300    7.8732   -0.0000 C   0  0  0  0  0  0  0  0  0  0  0  0
   -4.1603    5.5753   -0.0000 C   0  0  0  0  0  0  0  0  0  0  0  0
    0.9070   -6.6396   -0.0000 C   0  0  0  0  0  0  0  0  0  0  0  0
   -2.8421    9.4212   -0.0000 O   0  0  0  0  0  0  0  0  0  0  0  0
   -4.1724    7.1233   -0.0000 C   0  0  0  0  0  0  0  0  0  0  0  0
   -3.9184   10.0501   -0.0000 C   0  0  0  0  0  0  0  0  0  0  0  0
  1  2  1  0  0  0  0
  1  3  1  0  0  0  0
  2  4  2  0  0  0  0
  2  5  1  0  0  0  0
  3  6  2  0  0  0  0
  5  7  1  0  0  0  0
  6  8  1  0  0  0  0
  7  9  2  0  0  0  0
  7 10  1  0  0  0  0
  8 11  2  0  0  0  0
  8 12  1  0  0  0  0
 10 13  1  0  0  0  0
 11 14  1  0  0  0  0
 12 15  2  0  0  0  0
 13 16  2  0  0  0  0
 13 17  1  0  0  0  0
 14 18  1  0  0  0  0
 14 19  2  0  0  0  0
 16 20  1  0  0  0  0
 17 21  2  0  0  0  0
 18 22  1  0  0  0  0
 20 23  1  0  0  0  0
 20 24  2  0  0  0  0
 23 25  1  0  0  0  0
  4  6  1  0  0  0  0
 15 19  1  0  0  0  0
 21 24  1  0  0  0  0
M  END
>  <MolRegNo>
1947196

>  <m>
=

>  <Value>
8300

>  <Unit>
nM

>  <Type>
IC50

>  <pValue>
5.08

>  <Ligand Efficiency>
0

>  <Binding Efficiency>
0

>  <Surface Efficiency>
0

>  <Assay Index>
945082

>  <Assay Category>


>  <Assay Organism>
Homo sapiens

>  <Target ID>
17045

>  <Target Name>
Cytochrome P450 3A4

>  <Target Organism>
Homo sapiens

>  <Target Description>
Target is a single protein chain

>  <Sequence Accession>
P08684

>  <Reference>
J Med Chem 58 (12), 5028-5037 (2015)

>  <Pubmed ID>
26039570

>  <DOI>
10.1021/acs.jmedchem.5b00424

$$$$
1947197
Actelion Java MolfileCreator 1.0

 24 26  0  0  0  0  0  0  0  0999 V2000
    0.0000   -0.0000   -0.0000 S   0  0  0  0  0  0  0  0  0  0  0  0
    1.2353    0.8841   -0.0000 C   0  0  0  0  0  0  0  0  0  0  0  0
    0.4602   -1.4533   -0.0000 C   0  0  0  0  0  0  0  0  0  0  0  0
    2.4585    0.0121   -0.0000 N   0  0  0  0  0  0  0  0  0  0  0  0
    1.2232    2.4343   -0.0000 N   0  0  0  0  0  0  0  0  0  0  0  0
    1.9862   -1.4412   -0.0000 C   0  0  0  0  0  0  0  0  0  0  0  0
   -0.1211    3.2215   -0.0000 C   0  0  0  0  0  0  0  0  0  0  0  0
    2.8703   -2.6765   -0.0000 C   0  0  0  0  0  0  0  0  0  0  0  0
   -1.1990    2.6160   -0.0000 O   0  0  0  0  0  0  0  0  0  0  0  0
   -0.1332    4.7717   -0.0000 C   0  0  0  0  0  0  0  0  0  0  0  0
    2.1194   -4.0087   -0.0000 C   0  0  0  0  0  0  0  0  0  0  0  0
    4.3842   -2.6281   -0.0000 C   0  0  0  0  0  0  0  0  0  0  0  0
   -1.4775    5.5589   -0.0000 C   0  0  0  0  0  0  0  0  0  0  0  0
    2.9066   -5.3046   -0.0000 C   0  0  0  0  0  0  0  0  0  0  0  0
    5.1714   -3.9239   -0.0000 C   0  0  0  0  0  0  0  0  0  0  0  0
   -1.4896    7.1091   -0.0000 C   0  0  0  0  0  0  0  0  0  0  0  0
   -2.8218    4.8080   -0.0000 C   0  0  0  0  0  0  0  0  0  0  0  0
    2.3132   -6.3704   -0.0000 F   0  0  0  0  0  0  0  0  0  0  0  0
    4.4326   -5.2561   -0.0000 N   0  0  0  0  0  0  0  0  0  0  0  0
   -2.8340    7.8842   -0.0000 C   0  0  0  0  0  0  0  0  0  0  0  0
   -4.1662    5.5831   -0.0000 C   0  0  0  0  0  0  0  0  0  0  0  0
   -2.8461    9.4344   -0.0000 O   0  0  0  0  0  0  0  0  0  0  0  0
   -4.1783    7.1333   -0.0000 C   0  0  0  0  0  0  0  0  0  0  0  0
   -3.9239   10.0642   -0.0000 C   0  0  0  0  0  0  0  0  0  0  0  0
  1  2  1  0  0  0  0
  1  3  1  0  0  0  0
  2  4  2  0  0  0  0
  2  5  1  0  0  0  0
  3  6  2  0  0  0  0
  5  7  1  0  0  0  0
  6  8  1  0  0  0  0
  7  9  2  0  0  0  0
  7 10  1  0  0  0  0
  8 11  2  0  0  0  0
  8 12  1  0  0  0  0
 10 13  1  0  0  0  0
 11 14  1  0  0  0  0
 12 15  2  0  0  0  0
 13 16  2  0  0  0  0
 13 17  1  0  0  0  0
 14 18  1  0  0  0  0
 14 19  2  0  0  0  0
 16 20  1  0  0  0  0
 17 21  2  0  0  0  0
 20 22  1  0  0  0  0
 20 23  2  0  0  0  0
 22 24  1  0  0  0  0
  4  6  1  0  0  0  0
 15 19  1  0  0  0  0
 21 23  1  0  0  0  0
M  END
>  <MolRegNo>
1947197

>  <m>
=

>  <Value>
1500

>  <Unit>
nM

>  <Type>
IC50

>  <pValue>
5.82

>  <Ligand Efficiency>
0

>  <Binding Efficiency>
0

>  <Surface Efficiency>
0

>  <Assay Index>
945082

>  <Assay Category>


>  <Assay Organism>
Homo sapiens

>  <Target ID>
17045

>  <Target Name>
Cytochrome P450 3A4

>  <Target Organism>
Homo sapiens

>  <Target Description>
Target is a single protein chain

>  <Sequence Accession>
P08684

>  <Reference>
J Med Chem 58 (12), 5028-5037 (2015)

>  <Pubmed ID>
26039570

>  <DOI>
10.1021/acs.jmedchem.5b00424

$$$$
1947198
Actelion Java MolfileCreator 1.0

 24 26  0  0  0  0  0  0  0  0999 V2000
    0.0000   -0.0000   -0.0000 Cl  0  0  0  0  0  0  0  0  0  0  0  0
    0.5650    1.0819   -0.0000 C   0  0  0  0  0  0  0  0  0  0  0  0
    2.0797    1.1300   -0.0000 N   0  0  0  0  0  0  0  0  0  0  0  0
   -0.2404    2.3923   -0.0000 C   0  0  0  0  0  0  0  0  0  0  0  0
    2.8010    2.4885   -0.0000 C   0  0  0  0  0  0  0  0  0  0  0  0
    0.4809    3.7387   -0.0000 C   0  0  0  0  0  0  0  0  0  0  0  0
    1.9956    3.7988   -0.0000 C   0  0  0  0  0  0  0  0  0  0  0  0
   -0.4208    4.9890   -0.0000 C   0  0  0  0  0  0  0  0  0  0  0  0
    0.0481    6.4556   -0.0000 N   0  0  0  0  0  0  0  0  0  0  0  0
   -1.9595    5.0010   -0.0000 C   0  0  0  0  0  0  0  0  0  0  0  0
   -1.1901    7.3452   -0.0000 C   0  0  0  0  0  0  0  0  0  0  0  0
   -2.4404    6.4676   -0.0000 S   0  0  0  0  0  0  0  0  0  0  0  0
   -1.2022    8.8840   -0.0000 N   0  0  0  0  0  0  0  0  0  0  0  0
   -2.5366    9.6654   -0.0000 C   0  0  0  0  0  0  0  0  0  0  0  0
   -3.6065    9.0643   -0.0000 O   0  0  0  0  0  0  0  0  0  0  0  0
   -2.5486   11.2041   -0.0000 C   0  0  0  0  0  0  0  0  0  0  0  0
   -3.8830   11.9855   -0.0000 C   0  0  0  0  0  0  0  0  0  0  0  0
   -3.8950   13.5243   -0.0000 C   0  0  0  0  0  0  0  0  0  0  0  0
   -5.2174   11.2402   -0.0000 C   0  0  0  0  0  0  0  0  0  0  0  0
   -5.2294   14.2937   -0.0000 C   0  0  0  0  0  0  0  0  0  0  0  0
   -6.5518   12.0096   -0.0000 C   0  0  0  0  0  0  0  0  0  0  0  0
   -5.2414   15.8325   -0.0000 O   0  0  0  0  0  0  0  0  0  0  0  0
   -6.5638   13.5483   -0.0000 C   0  0  0  0  0  0  0  0  0  0  0  0
   -6.3113   16.4576   -0.0000 C   0  0  0  0  0  0  0  0  0  0  0  0
  1  2  1  0  0  0  0
  2  3  2  0  0  0  0
  2  4  1  0  0  0  0
  3  5  1  0  0  0  0
  4  6  2  0  0  0  0
  5  7  2  0  0  0  0
  6  8  1  0  0  0  0
  8  9  1  0  0  0  0
  8 10  2  0  0  0  0
  9 11  2  0  0  0  0
 10 12  1  0  0  0  0
 11 13  1  0  0  0  0
 13 14  1  0  0  0  0
 14 15  2  0  0  0  0
 14 16  1  0  0  0  0
 16 17  1  0  0  0  0
 17 18  2  0  0  0  0
 17 19  1  0  0  0  0
 18 20  1  0  0  0  0
 19 21  2  0  0  0  0
 20 22  1  0  0  0  0
 20 23  2  0  0  0  0
 22 24  1  0  0  0  0
  6  7  1  0  0  0  0
 11 12  1  0  0  0  0
 21 23  1  0  0  0  0
M  END
>  <MolRegNo>
1947198

>  <m>
=

>  <Value>
3600

>  <Unit>
nM

>  <Type>
IC50

>  <pValue>
5.44

>  <Ligand Efficiency>
0

>  <Binding Efficiency>
0

>  <Surface Efficiency>
0

>  <Assay Index>
945082

>  <Assay Category>


>  <Assay Organism>
Homo sapiens

>  <Target ID>
17045

>  <Target Name>
Cytochrome P450 3A4

>  <Target Organism>
Homo sapiens

>  <Target Description>
Target is a single protein chain

>  <Sequence Accession>
P08684

>  <Reference>
J Med Chem 58 (12), 5028-5037 (2015)

>  <Pubmed ID>
26039570

>  <DOI>
10.1021/acs.jmedchem.5b00424

$$$$
1947199
Actelion Java MolfileCreator 1.0

 24 26  0  0  0  0  0  0  0  0999 V2000
    0.0000   -0.0000   -0.0000 S   0  0  0  0  0  0  0  0  0  0  0  0
    1.2353    0.8841   -0.0000 C   0  0  0  0  0  0  0  0  0  0  0  0
    0.4602   -1.4533   -0.0000 C   0  0  0  0  0  0  0  0  0  0  0  0
    1.2232    2.4343   -0.0000 N   0  0  0  0  0  0  0  0  0  0  0  0
    2.4585    0.0121   -0.0000 C   0  0  0  0  0  0  0  0  0  0  0  0
    1.9862   -1.4412   -0.0000 C   0  0  0  0  0  0  0  0  0  0  0  0
   -0.1211    3.2215   -0.0000 C   0  0  0  0  0  0  0  0  0  0  0  0
    2.8703   -2.6765   -0.0000 C   0  0  0  0  0  0  0  0  0  0  0  0
   -1.1990    2.6160   -0.0000 O   0  0  0  0  0  0  0  0  0  0  0  0
   -0.1332    4.7717   -0.0000 C   0  0  0  0  0  0  0  0  0  0  0  0
    2.1194   -4.0087   -0.0000 C   0  0  0  0  0  0  0  0  0  0  0  0
    4.3842   -2.6281   -0.0000 C   0  0  0  0  0  0  0  0  0  0  0  0
   -1.4775    5.5589   -0.0000 C   0  0  0  0  0  0  0  0  0  0  0  0
    2.9066   -5.3046   -0.0000 C   0  0  0  0  0  0  0  0  0  0  0  0
    5.1714   -3.9239   -0.0000 C   0  0  0  0  0  0  0  0  0  0  0  0
   -1.4896    7.1091   -0.0000 C   0  0  0  0  0  0  0  0  0  0  0  0
   -2.8218    4.8080   -0.0000 C   0  0  0  0  0  0  0  0  0  0  0  0
    2.3132   -6.3704   -0.0000 F   0  0  0  0  0  0  0  0  0  0  0  0
    4.4326   -5.2561   -0.0000 N   0  0  0  0  0  0  0  0  0  0  0  0
   -2.8340    7.8842   -0.0000 C   0  0  0  0  0  0  0  0  0  0  0  0
   -4.1662    5.5831   -0.0000 C   0  0  0  0  0  0  0  0  0  0  0  0
   -2.8461    9.4344   -0.0000 O   0  0  0  0  0  0  0  0  0  0  0  0
   -4.1783    7.1333   -0.0000 C   0  0  0  0  0  0  0  0  0  0  0  0
   -3.9239   10.0642   -0.0000 C   0  0  0  0  0  0  0  0  0  0  0  0
  1  2  1  0  0  0  0
  1  3  1  0  0  0  0
  2  4  1  0  0  0  0
  2  5  2  0  0  0  0
  3  6  2  0  0  0  0
  4  7  1  0  0  0  0
  6  8  1  0  0  0  0
  7  9  2  0  0  0  0
  7 10  1  0  0  0  0
  8 11  2  0  0  0  0
  8 12  1  0  0  0  0
 10 13  1  0  0  0  0
 11 14  1  0  0  0  0
 12 15  2  0  0  0  0
 13 16  2  0  0  0  0
 13 17  1  0  0  0  0
 14 18  1  0  0  0  0
 14 19  2  0  0  0  0
 16 20  1  0  0  0  0
 17 21  2  0  0  0  0
 20 22  1  0  0  0  0
 20 23  2  0  0  0  0
 22 24  1  0  0  0  0
  5  6  1  0  0  0  0
 15 19  1  0  0  0  0
 21 23  1  0  0  0  0
M  END
>  <MolRegNo>
1947199

>  <m>
=

>  <Value>
3800

>  <Unit>
nM

>  <Type>
IC50

>  <pValue>
5.42

>  <Ligand Efficiency>
0

>  <Binding Efficiency>
0

>  <Surface Efficiency>
0

>  <Assay Index>
945082

>  <Assay Category>


>  <Assay Organism>
Homo sapiens

>  <Target ID>
17045

>  <Target Name>
Cytochrome P450 3A4

>  <Target Organism>
Homo sapiens

>  <Target Description>
Target is a single protein chain

>  <Sequence Accession>
P08684

>  <Reference>
J Med Chem 58 (12), 5028-5037 (2015)

>  <Pubmed ID>
26039570

>  <DOI>
10.1021/acs.jmedchem.5b00424

$$$$
1947201
Actelion Java MolfileCreator 1.0

 24 26  0  0  0  0  0  0  0  0999 V2000
    0.0000   -0.0000   -0.0000 Cl  0  0  0  0  0  0  0  0  0  0  0  0
    0.5650    1.0819   -0.0000 C   0  0  0  0  0  0  0  0  0  0  0  0
    2.0797    1.1300   -0.0000 N   0  0  0  0  0  0  0  0  0  0  0  0
   -0.2404    2.3923   -0.0000 C   0  0  0  0  0  0  0  0  0  0  0  0
    2.8010    2.4885   -0.0000 C   0  0  0  0  0  0  0  0  0  0  0  0
    0.4809    3.7387   -0.0000 C   0  0  0  0  0  0  0  0  0  0  0  0
    1.9956    3.7988   -0.0000 C   0  0  0  0  0  0  0  0  0  0  0  0
   -0.4208    4.9890   -0.0000 C   0  0  0  0  0  0  0  0  0  0  0  0
   -1.9595    5.0010   -0.0000 C   0  0  0  0  0  0  0  0  0  0  0  0
    0.0481    6.4556   -0.0000 C   0  0  0  0  0  0  0  0  0  0  0  0
   -2.4404    6.4676   -0.0000 S   0  0  0  0  0  0  0  0  0  0  0  0
   -1.1901    7.3452   -0.0000 C   0  0  0  0  0  0  0  0  0  0  0  0
   -1.2022    8.8840   -0.0000 N   0  0  0  0  0  0  0  0  0  0  0  0
   -2.5366    9.6654   -0.0000 C   0  0  0  0  0  0  0  0  0  0  0  0
   -3.6065    9.0643   -0.0000 O   0  0  0  0  0  0  0  0  0  0  0  0
   -2.5486   11.2041   -0.0000 C   0  0  0  0  0  0  0  0  0  0  0  0
   -3.8830   11.9855   -0.0000 C   0  0  0  0  0  0  0  0  0  0  0  0
   -3.8950   13.5243   -0.0000 C   0  0  0  0  0  0  0  0  0  0  0  0
   -5.2174   11.2402   -0.0000 C   0  0  0  0  0  0  0  0  0  0  0  0
   -5.2294   14.2937   -0.0000 C   0  0  0  0  0  0  0  0  0  0  0  0
   -6.5518   12.0096   -0.0000 C   0  0  0  0  0  0  0  0  0  0  0  0
   -5.2414   15.8325   -0.0000 O   0  0  0  0  0  0  0  0  0  0  0  0
   -6.5638   13.5483   -0.0000 C   0  0  0  0  0  0  0  0  0  0  0  0
   -6.3113   16.4576   -0.0000 C   0  0  0  0  0  0  0  0  0  0  0  0
  1  2  1  0  0  0  0
  2  3  2  0  0  0  0
  2  4  1  0  0  0  0
  3  5  1  0  0  0  0
  4  6  2  0  0  0  0
  5  7  2  0  0  0  0
  6  8  1  0  0  0  0
  8  9  2  0  0  0  0
  8 10  1  0  0  0  0
  9 11  1  0  0  0  0
 10 12  2  0  0  0  0
 12 13  1  0  0  0  0
 13 14  1  0  0  0  0
 14 15  2  0  0  0  0
 14 16  1  0  0  0  0
 16 17  1  0  0  0  0
 17 18  2  0  0  0  0
 17 19  1  0  0  0  0
 18 20  1  0  0  0  0
 19 21  2  0  0  0  0
 20 22  1  0  0  0  0
 20 23  2  0  0  0  0
 22 24  1  0  0  0  0
  6  7  1  0  0  0  0
 11 12  1  0  0  0  0
 21 23  1  0  0  0  0
M  END
>  <MolRegNo>
1947201

>  <m>
=

>  <Value>
5000

>  <Unit>
nM

>  <Type>
IC50

>  <pValue>
5.3

>  <Ligand Efficiency>
0

>  <Binding Efficiency>
0

>  <Surface Efficiency>
0

>  <Assay Index>
945082

>  <Assay Category>


>  <Assay Organism>
Homo sapiens

>  <Target ID>
17045

>  <Target Name>
Cytochrome P450 3A4

>  <Target Organism>
Homo sapiens

>  <Target Description>
Target is a single protein chain

>  <Sequence Accession>
P08684

>  <Reference>
J Med Chem 58 (12), 5028-5037 (2015)

>  <Pubmed ID>
26039570

>  <DOI>
10.1021/acs.jmedchem.5b00424

$$$$
1947202
Actelion Java MolfileCreator 1.0

 27 29  0  0  0  0  0  0  0  0999 V2000
    0.0000   -0.0000   -0.0000 Cl  0  0  0  0  0  0  0  0  0  0  0  0
    0.5715    1.0944   -0.0000 C   0  0  0  0  0  0  0  0  0  0  0  0
    2.1036    1.1430   -0.0000 N   0  0  0  0  0  0  0  0  0  0  0  0
   -0.2432    2.4198   -0.0000 C   0  0  0  0  0  0  0  0  0  0  0  0
    2.8332    2.5171   -0.0000 C   0  0  0  0  0  0  0  0  0  0  0  0
    0.4864    3.7817   -0.0000 C   0  0  0  0  0  0  0  0  0  0  0  0
    2.0185    3.8425   -0.0000 C   0  0  0  0  0  0  0  0  0  0  0  0
   -0.4256    5.0463   -0.0000 C   0  0  0  0  0  0  0  0  0  0  0  0
   -1.9820    5.0585   -0.0000 C   0  0  0  0  0  0  0  0  0  0  0  0
    0.0486    6.5298   -0.0000 C   0  0  0  0  0  0  0  0  0  0  0  0
   -2.4684    6.5419   -0.0000 S   0  0  0  0  0  0  0  0  0  0  0  0
   -1.2038    7.4296   -0.0000 C   0  0  0  0  0  0  0  0  0  0  0  0
   -1.2160    8.9861   -0.0000 N   0  0  0  0  0  0  0  0  0  0  0  0
   -2.5657    9.7764   -0.0000 C   0  0  0  0  0  0  0  0  0  0  0  0
   -3.6479    9.1685   -0.0000 O   0  0  0  0  0  0  0  0  0  0  0  0
   -2.5779   11.3329   -0.0000 C   0  0  0  0  0  0  0  0  0  0  0  0
   -3.9276   12.1233   -0.0000 C   0  0  0  0  0  0  0  0  0  0  0  0
   -3.9398   13.6797   -0.0000 C   0  0  0  0  0  0  0  0  0  0  0  0
   -5.2773   11.3694   -0.0000 C   0  0  0  0  0  0  0  0  0  0  0  0
   -5.2895   14.4579   -0.0000 C   0  0  0  0  0  0  0  0  0  0  0  0
   -6.6271   12.1476   -0.0000 C   0  0  0  0  0  0  0  0  0  0  0  0
   -5.3017   16.0144   -0.0000 N   0  0  0  0  0  0  0  0  0  0  0  0
   -6.6392   13.7040   -0.0000 C   0  0  0  0  0  0  0  0  0  0  0  0
   -6.6514   16.7926   -0.0000 S   0  0  0  0  0  0  0  0  0  0  0  0
   -6.6635   18.0451   -0.0000 O   0  0  0  0  0  0  0  0  0  0  0  0
   -7.7336   17.4249   -0.0000 O   0  0  0  0  0  0  0  0  0  0  0  0
   -7.7336   16.1846   -0.0000 C   0  0  0  0  0  0  0  0  0  0  0  0
  1  2  1  0  0  0  0
  2  3  2  0  0  0  0
  2  4  1  0  0  0  0
  3  5  1  0  0  0  0
  4  6  2  0  0  0  0
  5  7  2  0  0  0  0
  6  8  1  0  0  0  0
  8  9  2  0  0  0  0
  8 10  1  0  0  0  0
  9 11  1  0  0  0  0
 10 12  2  0  0  0  0
 12 13  1  0  0  0  0
 13 14  1  0  0  0  0
 14 15  2  0  0  0  0
 14 16  1  0  0  0  0
 16 17  1  0  0  0  0
 17 18  2  0  0  0  0
 17 19  1  0  0  0  0
 18 20  1  0  0  0  0
 19 21  2  0  0  0  0
 20 22  1  0  0  0  0
 20 23  2  0  0  0  0
 22 24  1  0  0  0  0
 24 25  2  0  0  0  0
 24 26  2  0  0  0  0
 24 27  1  0  0  0  0
  6  7  1  0  0  0  0
 11 12  1  0  0  0  0
 21 23  1  0  0  0  0
M  END
>  <MolRegNo>
1947202

>  <m>
=

>  <Value>
7500

>  <Unit>
nM

>  <Type>
IC50

>  <pValue>
5.12

>  <Ligand Efficiency>
0

>  <Binding Efficiency>
0

>  <Surface Efficiency>
0

>  <Assay Index>
945082

>  <Assay Category>


>  <Assay Organism>
Homo sapiens

>  <Target ID>
17045

>  <Target Name>
Cytochrome P450 3A4

>  <Target Organism>
Homo sapiens

>  <Target Description>
Target is a single protein chain

>  <Sequence Accession>
P08684

>  <Reference>
J Med Chem 58 (12), 5028-5037 (2015)

>  <Pubmed ID>
26039570

>  <DOI>
10.1021/acs.jmedchem.5b00424

$$$$
1947203
Actelion Java MolfileCreator 1.0

 24 26  0  0  0  0  0  0  0  0999 V2000
    0.0000   -0.0000   -0.0000 S   0  0  0  0  0  0  0  0  0  0  0  0
    1.2353    0.8841   -0.0000 C   0  0  0  0  0  0  0  0  0  0  0  0
    0.4602   -1.4533   -0.0000 C   0  0  0  0  0  0  0  0  0  0  0  0
    1.2232    2.4343   -0.0000 N   0  0  0  0  0  0  0  0  0  0  0  0
    2.4585    0.0121   -0.0000 C   0  0  0  0  0  0  0  0  0  0  0  0
    1.9862   -1.4412   -0.0000 C   0  0  0  0  0  0  0  0  0  0  0  0
   -0.1211    3.2215   -0.0000 C   0  0  0  0  0  0  0  0  0  0  0  0
    2.8703   -2.6765   -0.0000 C   0  0  0  0  0  0  0  0  0  0  0  0
   -1.1990    2.6160   -0.0000 O   0  0  0  0  0  0  0  0  0  0  0  0
   -0.1332    4.7717   -0.0000 C   0  0  0  0  0  0  0  0  0  0  0  0
    2.1194   -4.0087   -0.0000 C   0  0  0  0  0  0  0  0  0  0  0  0
    4.3842   -2.6281   -0.0000 C   0  0  0  0  0  0  0  0  0  0  0  0
   -1.4775    5.5589   -0.0000 C   0  0  0  0  0  0  0  0  0  0  0  0
    2.9066   -5.3046   -0.0000 C   0  0  0  0  0  0  0  0  0  0  0  0
    5.1714   -3.9239   -0.0000 C   0  0  0  0  0  0  0  0  0  0  0  0
   -1.4896    7.1091   -0.0000 C   0  0  0  0  0  0  0  0  0  0  0  0
   -2.8218    4.8080   -0.0000 C   0  0  0  0  0  0  0  0  0  0  0  0
    4.4326   -5.2561   -0.0000 N   0  0  0  0  0  0  0  0  0  0  0  0
    2.3132   -6.3704   -0.0000 N   0  0  0  0  0  0  0  0  0  0  0  0
   -2.8340    7.8842   -0.0000 C   0  0  0  0  0  0  0  0  0  0  0  0
   -4.1662    5.5831   -0.0000 C   0  0  0  0  0  0  0  0  0  0  0  0
   -2.8461    9.4344   -0.0000 O   0  0  0  0  0  0  0  0  0  0  0  0
   -4.1783    7.1333   -0.0000 C   0  0  0  0  0  0  0  0  0  0  0  0
   -3.9239   10.0642   -0.0000 C   0  0  0  0  0  0  0  0  0  0  0  0
  1  2  1  0  0  0  0
  1  3  1  0  0  0  0
  2  4  1  0  0  0  0
  2  5  2  0  0  0  0
  3  6  2  0  0  0  0
  4  7  1  0  0  0  0
  6  8  1  0  0  0  0
  7  9  2  0  0  0  0
  7 10  1  0  0  0  0
  8 11  2  0  0  0  0
  8 12  1  0  0  0  0
 10 13  1  0  0  0  0
 11 14  1  0  0  0  0
 12 15  2  0  0  0  0
 13 16  2  0  0  0  0
 13 17  1  0  0  0  0
 14 18  2  0  0  0  0
 14 19  1  0  0  0  0
 16 20  1  0  0  0  0
 17 21  2  0  0  0  0
 20 22  1  0  0  0  0
 20 23  2  0  0  0  0
 22 24  1  0  0  0  0
  5  6  1  0  0  0  0
 15 18  1  0  0  0  0
 21 23  1  0  0  0  0
M  END
>  <MolRegNo>
1947203

>  <m>
=

>  <Value>
5600

>  <Unit>
nM

>  <Type>
IC50

>  <pValue>
5.25

>  <Ligand Efficiency>
0

>  <Binding Efficiency>
0

>  <Surface Efficiency>
0

>  <Assay Index>
945082

>  <Assay Category>


>  <Assay Organism>
Homo sapiens

>  <Target ID>
17045

>  <Target Name>
Cytochrome P450 3A4

>  <Target Organism>
Homo sapiens

>  <Target Description>
Target is a single protein chain

>  <Sequence Accession>
P08684

>  <Reference>
J Med Chem 58 (12), 5028-5037 (2015)

>  <Pubmed ID>
26039570

>  <DOI>
10.1021/acs.jmedchem.5b00424

$$$$
1956217
Actelion Java MolfileCreator 1.0

 42 46  0  0  1  0  0  0  0  0999 V2000
    0.0000   -0.0000   -0.0000 Cl  0  0  0  0  0  0  0  0  0  0  0  0
    1.0627    0.6352   -0.0000 C   0  0  0  0  0  0  0  0  0  0  0  0
    2.3941   -0.1344   -0.0000 C   0  0  0  0  0  0  0  0  0  0  0  0
    1.0505    2.1986   -0.0000 C   0  0  0  0  0  0  0  0  0  0  0  0
    3.7255    0.6474   -0.0000 C   0  0  0  0  0  0  0  0  0  0  0  0
    2.3818    2.9804   -0.0000 C   0  0  0  0  0  0  0  0  0  0  0  0
    3.7132    2.2108   -0.0000 C   0  0  0  0  0  0  0  0  0  0  0  0
    5.0446    3.0048   -0.0000 C   0  0  0  0  0  0  0  0  0  0  0  0
    5.0324    4.5683   -0.0000 N   0  0  0  0  0  0  0  0  0  0  0  0
    6.3760    2.2475   -0.0000 C   0  0  0  0  0  0  0  0  0  0  0  0
    3.6766    5.3622   -0.0000 C   0  0  0  0  0  0  0  0  0  0  0  0
    6.3638    5.3500   -0.0000 C   0  0  0  0  0  0  0  0  0  0  0  0
    7.7074    3.0292   -0.0000 C   0  0  0  0  0  0  0  0  0  0  0  0
    6.3638    0.7084   -0.0000 C   0  0  0  0  0  0  0  0  0  0  0  0
    3.6644    6.9257   -0.0000 C   0  0  0  0  0  0  0  0  0  0  0  0
    2.3208    4.5927   -0.0000 C   0  0  0  0  0  0  0  0  0  0  0  0
    6.3516    6.6081   -0.0000 O   0  0  0  0  0  0  0  0  0  0  0  0
    7.6952    4.5927   -0.0000 C   0  0  0  0  0  0  0  0  0  0  0  0
    9.0388    2.2719   -0.0000 C   0  0  0  0  0  0  0  0  0  0  0  0
    7.6952   -0.0489   -0.0000 C   0  0  0  0  0  0  0  0  0  0  0  0
    2.3086    7.7074   -0.0000 C   0  0  0  0  0  0  0  0  0  0  0  0
    0.9650    5.3744   -0.0000 C   0  0  0  0  0  0  0  0  0  0  0  0
    9.0266    0.7329   -0.0000 C   0  0  0  0  0  0  0  0  0  0  0  0
    7.6830   -1.5879   -0.0000 O   0  0  0  0  0  0  0  0  0  0  0  0
    0.9527    6.9379   -0.0000 C   0  0  0  0  0  0  0  0  0  0  0  0
   10.3580   -0.0244   -0.0000 O   0  0  0  0  0  0  0  0  0  0  0  0
    6.3272   -2.3452   -0.0000 C   0  0  0  0  0  0  0  0  0  0  0  0
   -0.4031    7.7196   -0.0000 N   0  0  0  0  0  0  0  0  0  0  0  0
   11.4207    0.6107   -0.0000 C   0  0  0  0  0  0  0  0  0  0  0  0
    6.3150   -3.5789   -0.0000 C   0  0  0  0  0  0  0  0  0  0  0  0
    5.2401   -1.7100   -0.0000 C   0  0  0  0  0  0  0  0  0  0  0  0
   -1.7589    6.9501   -0.0000 C   0  0  0  0  0  0  0  0  0  0  0  0
   -0.4153    8.9777   -0.0000 C   0  0  0  0  0  0  0  0  0  0  0  0
   -3.1147    7.7318   -0.0000 C   0  0  0  0  0  0  0  0  0  0  0  0
   -3.1269    9.2953   -0.0000 C   0  0  0  0  0  0  0  0  0  0  0  0
   -4.4705    6.9623   -0.0000 C   0  0  0  0  0  0  0  0  0  0  0  0
   -4.4828   10.0771   -0.0000 C   0  0  0  0  0  0  0  0  0  0  0  0
   -5.8264    7.7441   -0.0000 C   0  0  0  0  0  0  0  0  0  0  0  0
   -5.8386    9.3075   -0.0000 C   0  0  0  0  0  0  0  0  0  0  0  0
   -7.1944   10.1015   -0.0000 N   0  0  0  0  0  0  0  0  0  0  0  0
   -7.2066   11.3596   -0.0000 C   0  0  0  0  0  0  0  0  0  0  0  0
   -8.2815    9.4907   -0.0000 C   0  0  0  0  0  0  0  0  0  0  0  0
  1  2  1  0  0  0  0
  2  3  2  0  0  0  0
  2  4  1  0  0  0  0
  3  5  1  0  0  0  0
  4  6  2  0  0  0  0
  5  7  2  0  0  0  0
  8  7  1  6  0  0  0
  8  9  1  0  0  0  0
  8 10  1  0  0  0  0
  9 11  1  0  0  0  0
  9 12  1  0  0  0  0
 10 13  2  0  0  0  0
 10 14  1  0  0  0  0
 11 15  2  0  0  0  0
 11 16  1  0  0  0  0
 12 17  2  0  0  0  0
 12 18  1  0  0  0  0
 13 19  1  0  0  0  0
 14 20  2  0  0  0  0
 15 21  1  0  0  0  0
 16 22  2  0  0  0  0
 19 23  2  0  0  0  0
 20 24  1  0  0  0  0
 21 25  2  0  0  0  0
 23 26  1  0  0  0  0
 24 27  1  0  0  0  0
 25 28  1  0  0  0  0
 26 29  1  0  0  0  0
 27 30  1  0  0  0  0
 27 31  1  0  0  0  0
 28 32  1  0  0  0  0
 28 33  1  0  0  0  0
 34 32  1  6  0  0  0
 34 35  1  0  0  0  0
 34 36  1  0  0  0  0
 35 37  1  0  0  0  0
 36 38  1  0  0  0  0
 37 39  1  0  0  0  0
 39 40  1  1  0  0  0
 40 41  1  0  0  0  0
 40 42  1  0  0  0  0
  6  7  1  0  0  0  0
 13 18  1  0  0  0  0
 20 23  1  0  0  0  0
 22 25  1  0  0  0  0
 38 39  1  0  0  0  0
M  END
>  <MolRegNo>
1956217

>  <m>
=

>  <Value>
9400

>  <Unit>
nM

>  <Type>
IC50

>  <pValue>
5.03

>  <Ligand Efficiency>
0

>  <Binding Efficiency>
0

>  <Surface Efficiency>
0

>  <Assay Index>
954873

>  <Assay Category>


>  <Assay Organism>
Homo sapiens

>  <Target ID>
17045

>  <Target Name>
Cytochrome P450 3A4

>  <Target Organism>
Homo sapiens

>  <Target Description>
Target is a single protein chain

>  <Sequence Accession>
P08684

>  <Reference>
J Med Chem 58 (16), 6348-6358 (2015)

>  <Pubmed ID>
26181851

>  <DOI>
10.1021/acs.jmedchem.5b00810

$$$$
1956291
Actelion Java MolfileCreator 1.0

 46 51  0  0  1  0  0  0  0  0999 V2000
    0.0000   -0.0000   -0.0000 Cl  0  0  0  0  0  0  0  0  0  0  0  0
    1.0543    0.6301   -0.0000 C   0  0  0  0  0  0  0  0  0  0  0  0
    2.3751   -0.1333   -0.0000 C   0  0  0  0  0  0  0  0  0  0  0  0
    1.0421    2.1812   -0.0000 C   0  0  0  0  0  0  0  0  0  0  0  0
    3.6959    0.6422   -0.0000 C   0  0  0  0  0  0  0  0  0  0  0  0
    2.3630    2.9568   -0.0000 C   0  0  0  0  0  0  0  0  0  0  0  0
    3.6838    2.1933   -0.0000 C   0  0  0  0  0  0  0  0  0  0  0  0
    5.0047    2.9810   -0.0000 C   0  0  0  0  0  0  0  0  0  0  0  0
    4.9926    4.5321   -0.0000 N   0  0  0  0  0  0  0  0  0  0  0  0
    6.3255    2.2297   -0.0000 C   0  0  0  0  0  0  0  0  0  0  0  0
    3.6475    5.3197   -0.0000 C   0  0  0  0  0  0  0  0  0  0  0  0
    6.3134    5.3076   -0.0000 C   0  0  0  0  0  0  0  0  0  0  0  0
    7.6464    3.0052   -0.0000 C   0  0  0  0  0  0  0  0  0  0  0  0
    6.3134    0.7028   -0.0000 C   0  0  0  0  0  0  0  0  0  0  0  0
    3.6354    6.8708   -0.0000 C   0  0  0  0  0  0  0  0  0  0  0  0
    2.3024    4.5563   -0.0000 C   0  0  0  0  0  0  0  0  0  0  0  0
    6.3013    6.5558   -0.0000 O   0  0  0  0  0  0  0  0  0  0  0  0
    7.6343    4.5563   -0.0000 C   0  0  0  0  0  0  0  0  0  0  0  0
    8.9672    2.2539   -0.0000 C   0  0  0  0  0  0  0  0  0  0  0  0
    7.6343   -0.0485   -0.0000 C   0  0  0  0  0  0  0  0  0  0  0  0
    2.2903    7.6464   -0.0000 C   0  0  0  0  0  0  0  0  0  0  0  0
    0.9573    5.3319   -0.0000 C   0  0  0  0  0  0  0  0  0  0  0  0
    8.9551    0.7271   -0.0000 C   0  0  0  0  0  0  0  0  0  0  0  0
    7.6221   -1.5753   -0.0000 O   0  0  0  0  0  0  0  0  0  0  0  0
    0.9452    6.8829   -0.0000 C   0  0  0  0  0  0  0  0  0  0  0  0
   10.2759   -0.0242   -0.0000 O   0  0  0  0  0  0  0  0  0  0  0  0
    6.2771   -2.3266   -0.0000 C   0  0  0  0  0  0  0  0  0  0  0  0
   -0.3999    7.6585   -0.0000 N   0  0  0  0  0  0  0  0  0  0  0  0
   11.3302    0.6059   -0.0000 C   0  0  0  0  0  0  0  0  0  0  0  0
    6.2649   -3.5505   -0.0000 C   0  0  0  0  0  0  0  0  0  0  0  0
    5.1986   -1.6965   -0.0000 C   0  0  0  0  0  0  0  0  0  0  0  0
   -1.7450    6.8951   -0.0000 C   0  0  0  0  0  0  0  0  0  0  0  0
   -0.4120    8.9066   -0.0000 C   0  0  0  0  0  0  0  0  0  0  0  0
   -3.0901    7.6706   -0.0000 C   0  0  0  0  0  0  0  0  0  0  0  0
   -3.1022    9.2217   -0.0000 C   0  0  0  0  0  0  0  0  0  0  0  0
   -4.4351    6.9072   -0.0000 C   0  0  0  0  0  0  0  0  0  0  0  0
   -4.4473    9.9972   -0.0000 C   0  0  0  0  0  0  0  0  0  0  0  0
   -5.7802    7.6827   -0.0000 C   0  0  0  0  0  0  0  0  0  0  0  0
   -5.7923    9.2338   -0.0000 C   0  0  0  0  0  0  0  0  0  0  0  0
   -7.1374   10.0094   -0.0000 N   0  0  0  0  0  0  0  0  0  0  0  0
   -8.4825    9.2459   -0.0000 C   0  0  0  0  0  0  0  0  0  0  0  0
   -7.1495   11.5604   -0.0000 C   0  0  0  0  0  0  0  0  0  0  0  0
   -9.8276   10.0215   -0.0000 C   0  0  0  0  0  0  0  0  0  0  0  0
   -8.4946   12.3360   -0.0000 C   0  0  0  0  0  0  0  0  0  0  0  0
  -10.9061    9.4156   -0.0000 O   0  0  0  0  0  0  0  0  0  0  0  0
   -9.8397   11.5726   -0.0000 N   0  0  0  0  0  0  0  0  0  0  0  0
  1  2  1  0  0  0  0
  2  3  2  0  0  0  0
  2  4  1  0  0  0  0
  3  5  1  0  0  0  0
  4  6  2  0  0  0  0
  5  7  2  0  0  0  0
  8  7  1  6  0  0  0
  8  9  1  0  0  0  0
  8 10  1  0  0  0  0
  9 11  1  0  0  0  0
  9 12  1  0  0  0  0
 10 13  2  0  0  0  0
 10 14  1  0  0  0  0
 11 15  2  0  0  0  0
 11 16  1  0  0  0  0
 12 17  2  0  0  0  0
 12 18  1  0  0  0  0
 13 19  1  0  0  0  0
 14 20  2  0  0  0  0
 15 21  1  0  0  0  0
 16 22  2  0  0  0  0
 19 23  2  0  0  0  0
 20 24  1  0  0  0  0
 21 25  2  0  0  0  0
 23 26  1  0  0  0  0
 24 27  1  0  0  0  0
 25 28  1  0  0  0  0
 26 29  1  0  0  0  0
 27 30  1  0  0  0  0
 27 31  1  0  0  0  0
 28 32  1  0  0  0  0
 28 33  1  0  0  0  0
 34 32  1  6  0  0  0
 34 35  1  0  0  0  0
 34 36  1  0  0  0  0
 35 37  1  0  0  0  0
 36 38  1  0  0  0  0
 37 39  1  0  0  0  0
 39 40  1  1  0  0  0
 40 41  1  0  0  0  0
 40 42  1  0  0  0  0
 41 43  1  0  0  0  0
 42 44  1  0  0  0  0
 43 45  2  0  0  0  0
 43 46  1  0  0  0  0
  6  7  1  0  0  0  0
 13 18  1  0  0  0  0
 20 23  1  0  0  0  0
 22 25  1  0  0  0  0
 38 39  1  0  0  0  0
 44 46  1  0  0  0  0
M  END
>  <MolRegNo>
1956291

>  <m>
=

>  <Value>
11300

>  <Unit>
nM

>  <Type>
IC50

>  <pValue>
4.95

>  <Ligand Efficiency>
0

>  <Binding Efficiency>
0

>  <Surface Efficiency>
0

>  <Assay Index>
954873

>  <Assay Category>


>  <Assay Organism>
Homo sapiens

>  <Target ID>
17045

>  <Target Name>
Cytochrome P450 3A4

>  <Target Organism>
Homo sapiens

>  <Target Description>
Target is a single protein chain

>  <Sequence Accession>
P08684

>  <Reference>
J Med Chem 58 (16), 6348-6358 (2015)

>  <Pubmed ID>
26181851

>  <DOI>
10.1021/acs.jmedchem.5b00810

$$$$
1956293
Actelion Java MolfileCreator 1.0

 42 46  0  0  1  0  0  0  0  0999 V2000
    0.0000   -0.0000   -0.0000 Cl  0  0  0  0  0  0  0  0  0  0  0  0
   -0.0123   -1.2378   -0.0000 C   0  0  0  0  0  0  0  0  0  0  0  0
    1.3236   -1.9977   -0.0000 C   0  0  0  0  0  0  0  0  0  0  0  0
   -1.3726   -2.0099   -0.0000 C   0  0  0  0  0  0  0  0  0  0  0  0
    1.3114   -3.5419   -0.0000 C   0  0  0  0  0  0  0  0  0  0  0  0
   -1.3849   -3.5541   -0.0000 C   0  0  0  0  0  0  0  0  0  0  0  0
   -0.0490   -4.3140   -0.0000 C   0  0  0  0  0  0  0  0  0  0  0  0
   -0.0613   -5.8582   -0.0000 C   0  0  0  0  0  0  0  0  0  0  0  0
    1.2746   -6.6180   -0.0000 N   0  0  0  0  0  0  0  0  0  0  0  0
   -1.4217   -6.6180   -0.0000 C   0  0  0  0  0  0  0  0  0  0  0  0
    2.6104   -5.8337   -0.0000 C   0  0  0  0  0  0  0  0  0  0  0  0
    1.2623   -8.1622   -0.0000 C   0  0  0  0  0  0  0  0  0  0  0  0
   -1.4339   -8.1622   -0.0000 C   0  0  0  0  0  0  0  0  0  0  0  0
   -2.7820   -5.8337   -0.0000 C   0  0  0  0  0  0  0  0  0  0  0  0
    3.9463   -6.6058   -0.0000 C   0  0  0  0  0  0  0  0  0  0  0  0
    2.5982   -4.2650   -0.0000 C   0  0  0  0  0  0  0  0  0  0  0  0
    2.3286   -8.7750   -0.0000 O   0  0  0  0  0  0  0  0  0  0  0  0
   -0.0980   -8.9221   -0.0000 C   0  0  0  0  0  0  0  0  0  0  0  0
   -2.7943   -8.9221   -0.0000 C   0  0  0  0  0  0  0  0  0  0  0  0
   -4.1547   -6.5935   -0.0000 C   0  0  0  0  0  0  0  0  0  0  0  0
    5.2822   -5.8214   -0.0000 N   0  0  0  0  0  0  0  0  0  0  0  0
    3.9341   -3.4806   -0.0000 C   0  0  0  0  0  0  0  0  0  0  0  0
   -4.1669   -8.1377   -0.0000 C   0  0  0  0  0  0  0  0  0  0  0  0
   -5.5150   -5.7969   -0.0000 O   0  0  0  0  0  0  0  0  0  0  0  0
    5.2699   -4.2527   -0.0000 C   0  0  0  0  0  0  0  0  0  0  0  0
   -5.5273   -8.9098   -0.0000 O   0  0  0  0  0  0  0  0  0  0  0  0
   -5.5273   -4.2282   -0.0000 C   0  0  0  0  0  0  0  0  0  0  0  0
    6.6058   -3.4683   -0.0000 N   0  0  0  0  0  0  0  0  0  0  0  0
   -5.5395  -10.1477   -0.0000 C   0  0  0  0  0  0  0  0  0  0  0  0
   -6.6180   -3.5909   -0.0000 C   0  0  0  0  0  0  0  0  0  0  0  0
   -4.4610   -3.5909   -0.0000 C   0  0  0  0  0  0  0  0  0  0  0  0
    7.9416   -4.2404   -0.0000 C   0  0  0  0  0  0  0  0  0  0  0  0
    6.5935   -2.2060   -0.0000 C   0  0  0  0  0  0  0  0  0  0  0  0
    9.2775   -3.4561   -0.0000 C   0  0  0  0  0  0  0  0  0  0  0  0
   10.6134   -4.2282   -0.0000 C   0  0  0  0  0  0  0  0  0  0  0  0
    9.2652   -1.8874   -0.0000 C   0  0  0  0  0  0  0  0  0  0  0  0
   11.9492   -3.4438   -0.0000 C   0  0  0  0  0  0  0  0  0  0  0  0
   10.6011   -1.1030   -0.0000 C   0  0  0  0  0  0  0  0  0  0  0  0
   11.9370   -1.8751   -0.0000 C   0  0  0  0  0  0  0  0  0  0  0  0
   13.2728   -1.0785   -0.0000 N   0  0  0  0  0  0  0  0  0  0  0  0
   13.2606    0.1838   -0.0000 C   0  0  0  0  0  0  0  0  0  0  0  0
   14.3391   -1.6913   -0.0000 C   0  0  0  0  0  0  0  0  0  0  0  0
  1  2  1  0  0  0  0
  2  3  2  0  0  0  0
  2  4  1  0  0  0  0
  3  5  1  0  0  0  0
  4  6  2  0  0  0  0
  5  7  2  0  0  0  0
  8  7  1  6  0  0  0
  8  9  1  0  0  0  0
  8 10  1  0  0  0  0
  9 11  1  0  0  0  0
  9 12  1  0  0  0  0
 10 13  2  0  0  0  0
 10 14  1  0  0  0  0
 11 15  2  0  0  0  0
 11 16  1  0  0  0  0
 12 17  2  0  0  0  0
 12 18  1  0  0  0  0
 13 19  1  0  0  0  0
 14 20  2  0  0  0  0
 15 21  1  0  0  0  0
 16 22  2  0  0  0  0
 19 23  2  0  0  0  0
 20 24  1  0  0  0  0
 21 25  2  0  0  0  0
 23 26  1  0  0  0  0
 24 27  1  0  0  0  0
 25 28  1  0  0  0  0
 26 29  1  0  0  0  0
 27 30  1  0  0  0  0
 27 31  1  0  0  0  0
 28 32  1  0  0  0  0
 28 33  1  0  0  0  0
 34 32  1  6  0  0  0
 34 35  1  0  0  0  0
 34 36  1  0  0  0  0
 35 37  1  0  0  0  0
 36 38  1  0  0  0  0
 37 39  1  0  0  0  0
 39 40  1  1  0  0  0
 40 41  1  0  0  0  0
 40 42  1  0  0  0  0
  6  7  1  0  0  0  0
 13 18  1  0  0  0  0
 20 23  1  0  0  0  0
 22 25  1  0  0  0  0
 38 39  1  0  0  0  0
M  END
>  <MolRegNo>
1956293

>  <m>
=

>  <Value>
5000

>  <Unit>
nM

>  <Type>
IC50

>  <pValue>
5.3

>  <Ligand Efficiency>
0

>  <Binding Efficiency>
0

>  <Surface Efficiency>
0

>  <Assay Index>
954873

>  <Assay Category>


>  <Assay Organism>
Homo sapiens

>  <Target ID>
17045

>  <Target Name>
Cytochrome P450 3A4

>  <Target Organism>
Homo sapiens

>  <Target Description>
Target is a single protein chain

>  <Sequence Accession>
P08684

>  <Reference>
J Med Chem 58 (16), 6348-6358 (2015)

>  <Pubmed ID>
26181851

>  <DOI>
10.1021/acs.jmedchem.5b00810

$$$$
1956294
Actelion Java MolfileCreator 1.0

 46 51  0  0  1  0  0  0  0  0999 V2000
    0.0000   -0.0000   -0.0000 Cl  0  0  0  0  0  0  0  0  0  0  0  0
   -0.0122   -1.2343   -0.0000 C   0  0  0  0  0  0  0  0  0  0  0  0
    1.3199   -1.9920   -0.0000 C   0  0  0  0  0  0  0  0  0  0  0  0
   -1.3688   -2.0043   -0.0000 C   0  0  0  0  0  0  0  0  0  0  0  0
    1.3077   -3.5319   -0.0000 C   0  0  0  0  0  0  0  0  0  0  0  0
   -1.3810   -3.5441   -0.0000 C   0  0  0  0  0  0  0  0  0  0  0  0
   -0.0489   -4.3018   -0.0000 C   0  0  0  0  0  0  0  0  0  0  0  0
   -0.0611   -5.8417   -0.0000 C   0  0  0  0  0  0  0  0  0  0  0  0
    1.2710   -6.5994   -0.0000 N   0  0  0  0  0  0  0  0  0  0  0  0
   -1.4177   -6.5994   -0.0000 C   0  0  0  0  0  0  0  0  0  0  0  0
    2.6031   -5.8173   -0.0000 C   0  0  0  0  0  0  0  0  0  0  0  0
    1.2588   -8.1393   -0.0000 C   0  0  0  0  0  0  0  0  0  0  0  0
   -1.4299   -8.1393   -0.0000 C   0  0  0  0  0  0  0  0  0  0  0  0
   -2.7742   -5.8173   -0.0000 C   0  0  0  0  0  0  0  0  0  0  0  0
    3.9352   -6.5872   -0.0000 C   0  0  0  0  0  0  0  0  0  0  0  0
    2.5909   -4.2530   -0.0000 C   0  0  0  0  0  0  0  0  0  0  0  0
    2.3220   -8.7503   -0.0000 O   0  0  0  0  0  0  0  0  0  0  0  0
   -0.0978   -8.8970   -0.0000 C   0  0  0  0  0  0  0  0  0  0  0  0
   -2.7864   -8.8970   -0.0000 C   0  0  0  0  0  0  0  0  0  0  0  0
   -4.1430   -6.5750   -0.0000 C   0  0  0  0  0  0  0  0  0  0  0  0
    5.2673   -5.8050   -0.0000 N   0  0  0  0  0  0  0  0  0  0  0  0
    3.9230   -3.4708   -0.0000 C   0  0  0  0  0  0  0  0  0  0  0  0
   -4.1552   -8.1148   -0.0000 C   0  0  0  0  0  0  0  0  0  0  0  0
   -5.4995   -5.7806   -0.0000 O   0  0  0  0  0  0  0  0  0  0  0  0
    5.2551   -4.2407   -0.0000 C   0  0  0  0  0  0  0  0  0  0  0  0
   -5.5117   -8.8848   -0.0000 O   0  0  0  0  0  0  0  0  0  0  0  0
   -5.5117   -4.2163   -0.0000 C   0  0  0  0  0  0  0  0  0  0  0  0
    6.5872   -3.4586   -0.0000 N   0  0  0  0  0  0  0  0  0  0  0  0
   -5.5240  -10.1191   -0.0000 C   0  0  0  0  0  0  0  0  0  0  0  0
   -6.5994   -3.5808   -0.0000 C   0  0  0  0  0  0  0  0  0  0  0  0
   -4.4485   -3.5808   -0.0000 C   0  0  0  0  0  0  0  0  0  0  0  0
    7.9193   -4.2285   -0.0000 C   0  0  0  0  0  0  0  0  0  0  0  0
    6.5750   -2.1998   -0.0000 C   0  0  0  0  0  0  0  0  0  0  0  0
    9.2514   -3.4464   -0.0000 C   0  0  0  0  0  0  0  0  0  0  0  0
   10.5835   -4.2163   -0.0000 C   0  0  0  0  0  0  0  0  0  0  0  0
    9.2392   -1.8821   -0.0000 C   0  0  0  0  0  0  0  0  0  0  0  0
   11.9156   -3.4341   -0.0000 C   0  0  0  0  0  0  0  0  0  0  0  0
   10.5713   -1.0999   -0.0000 C   0  0  0  0  0  0  0  0  0  0  0  0
   11.9034   -1.8698   -0.0000 C   0  0  0  0  0  0  0  0  0  0  0  0
   13.2355   -1.0877   -0.0000 N   0  0  0  0  0  0  0  0  0  0  0  0
   13.3699    0.4522   -0.0000 C   0  0  0  0  0  0  0  0  0  0  0  0
   14.6165   -1.7232   -0.0000 C   0  0  0  0  0  0  0  0  0  0  0  0
   14.8731    0.7822   -0.0000 N   0  0  0  0  0  0  0  0  0  0  0  0
   15.6431   -0.5622   -0.0000 C   0  0  0  0  0  0  0  0  0  0  0  0
   15.3742    1.9309   -0.0000 C   0  0  0  0  0  0  0  0  0  0  0  0
   16.8652   -0.6844   -0.0000 O   0  0  0  0  0  0  0  0  0  0  0  0
  1  2  1  0  0  0  0
  2  3  2  0  0  0  0
  2  4  1  0  0  0  0
  3  5  1  0  0  0  0
  4  6  2  0  0  0  0
  5  7  2  0  0  0  0
  8  7  1  6  0  0  0
  8  9  1  0  0  0  0
  8 10  1  0  0  0  0
  9 11  1  0  0  0  0
  9 12  1  0  0  0  0
 10 13  2  0  0  0  0
 10 14  1  0  0  0  0
 11 15  2  0  0  0  0
 11 16  1  0  0  0  0
 12 17  2  0  0  0  0
 12 18  1  0  0  0  0
 13 19  1  0  0  0  0
 14 20  2  0  0  0  0
 15 21  1  0  0  0  0
 16 22  2  0  0  0  0
 19 23  2  0  0  0  0
 20 24  1  0  0  0  0
 21 25  2  0  0  0  0
 23 26  1  0  0  0  0
 24 27  1  0  0  0  0
 25 28  1  0  0  0  0
 26 29  1  0  0  0  0
 27 30  1  0  0  0  0
 27 31  1  0  0  0  0
 28 32  1  0  0  0  0
 28 33  1  0  0  0  0
 34 32  1  6  0  0  0
 34 35  1  0  0  0  0
 34 36  1  0  0  0  0
 35 37  1  0  0  0  0
 36 38  1  0  0  0  0
 37 39  1  0  0  0  0
 39 40  1  1  0  0  0
 40 41  1  0  0  0  0
 40 42  1  0  0  0  0
 41 43  1  0  0  0  0
 42 44  1  0  0  0  0
 43 45  1  0  0  0  0
 44 46  2  0  0  0  0
  6  7  1  0  0  0  0
 13 18  1  0  0  0  0
 20 23  1  0  0  0  0
 22 25  1  0  0  0  0
 38 39  1  0  0  0  0
 43 44  1  0  0  0  0
M  END
>  <MolRegNo>
1956294

>  <m>
=

>  <Value>
13200

>  <Unit>
nM

>  <Type>
IC50

>  <pValue>
4.88

>  <Ligand Efficiency>
0

>  <Binding Efficiency>
0

>  <Surface Efficiency>
0

>  <Assay Index>
954873

>  <Assay Category>


>  <Assay Organism>
Homo sapiens

>  <Target ID>
17045

>  <Target Name>
Cytochrome P450 3A4

>  <Target Organism>
Homo sapiens

>  <Target Description>
Target is a single protein chain

>  <Sequence Accession>
P08684

>  <Reference>
J Med Chem 58 (16), 6348-6358 (2015)

>  <Pubmed ID>
26181851

>  <DOI>
10.1021/acs.jmedchem.5b00810

$$$$
1956292
Actelion Java MolfileCreator 1.0

 47 52  0  0  1  0  0  0  0  0999 V2000
    0.0000   -0.0000   -0.0000 Cl  0  0  0  0  0  0  0  0  0  0  0  0
   -0.0118   -1.4921   -0.0000 C   0  0  0  0  0  0  0  0  0  0  0  0
   -1.3263   -2.2381   -0.0000 C   0  0  0  0  0  0  0  0  0  0  0  0
    1.2789   -2.2381   -0.0000 C   0  0  0  0  0  0  0  0  0  0  0  0
   -1.3381   -3.7302   -0.0000 C   0  0  0  0  0  0  0  0  0  0  0  0
    1.2671   -3.7302   -0.0000 C   0  0  0  0  0  0  0  0  0  0  0  0
   -0.0474   -4.4644   -0.0000 C   0  0  0  0  0  0  0  0  0  0  0  0
   -0.0592   -5.9565   -0.0000 C   0  0  0  0  0  0  0  0  0  0  0  0
    1.2316   -6.7025   -0.0000 N   0  0  0  0  0  0  0  0  0  0  0  0
   -1.3737   -6.7025   -0.0000 C   0  0  0  0  0  0  0  0  0  0  0  0
    2.5223   -5.9446   -0.0000 C   0  0  0  0  0  0  0  0  0  0  0  0
    1.2197   -8.1946   -0.0000 C   0  0  0  0  0  0  0  0  0  0  0  0
   -1.3855   -8.1946   -0.0000 C   0  0  0  0  0  0  0  0  0  0  0  0
   -2.6881   -5.9446   -0.0000 C   0  0  0  0  0  0  0  0  0  0  0  0
    2.5105   -4.4289   -0.0000 C   0  0  0  0  0  0  0  0  0  0  0  0
    3.8131   -6.6907   -0.0000 C   0  0  0  0  0  0  0  0  0  0  0  0
    2.5105   -8.9288   -0.0000 O   0  0  0  0  0  0  0  0  0  0  0  0
   -0.0947   -8.9288   -0.0000 C   0  0  0  0  0  0  0  0  0  0  0  0
   -2.7000   -8.9288   -0.0000 C   0  0  0  0  0  0  0  0  0  0  0  0
   -4.0026   -6.6907   -0.0000 C   0  0  0  0  0  0  0  0  0  0  0  0
    3.8013   -3.6710   -0.0000 C   0  0  0  0  0  0  0  0  0  0  0  0
    5.1039   -5.9328   -0.0000 C   0  0  0  0  0  0  0  0  0  0  0  0
   -4.0144   -8.1709   -0.0000 C   0  0  0  0  0  0  0  0  0  0  0  0
   -5.3170   -5.9328   -0.0000 O   0  0  0  0  0  0  0  0  0  0  0  0
    5.0920   -4.4052   -0.0000 C   0  0  0  0  0  0  0  0  0  0  0  0
   -5.3289   -8.9051   -0.0000 O   0  0  0  0  0  0  0  0  0  0  0  0
   -6.6315   -6.6788   -0.0000 C   0  0  0  0  0  0  0  0  0  0  0  0
    6.3828   -3.6473   -0.0000 N   0  0  0  0  0  0  0  0  0  0  0  0
   -5.3407  -10.3972   -0.0000 C   0  0  0  0  0  0  0  0  0  0  0  0
   -7.9459   -5.9210   -0.0000 C   0  0  0  0  0  0  0  0  0  0  0  0
   -6.6433   -8.1709   -0.0000 C   0  0  0  0  0  0  0  0  0  0  0  0
    6.3709   -2.1315   -0.0000 C   0  0  0  0  0  0  0  0  0  0  0  0
    7.6736   -4.3815   -0.0000 C   0  0  0  0  0  0  0  0  0  0  0  0
    7.6617   -1.3737   -0.0000 C   0  0  0  0  0  0  0  0  0  0  0  0
    7.6499    0.1421   -0.0000 C   0  0  0  0  0  0  0  0  0  0  0  0
    8.9525   -2.1197   -0.0000 C   0  0  0  0  0  0  0  0  0  0  0  0
    8.9406    0.9000   -0.0000 C   0  0  0  0  0  0  0  0  0  0  0  0
   10.2433   -1.3618   -0.0000 C   0  0  0  0  0  0  0  0  0  0  0  0
   10.2314    0.1658   -0.0000 C   0  0  0  0  0  0  0  0  0  0  0  0
   11.5222    0.9237   -0.0000 N   0  0  0  0  0  0  0  0  0  0  0  0
   12.8130    0.1895   -0.0000 C   0  0  0  0  0  0  0  0  0  0  0  0
   11.5103    2.4394   -0.0000 C   0  0  0  0  0  0  0  0  0  0  0  0
   14.1037    0.9474   -0.0000 C   0  0  0  0  0  0  0  0  0  0  0  0
   12.8011    3.2092   -0.0000 C   0  0  0  0  0  0  0  0  0  0  0  0
   15.3945    0.2132   -0.0000 O   0  0  0  0  0  0  0  0  0  0  0  0
   14.0919    2.4631   -0.0000 N   0  0  0  0  0  0  0  0  0  0  0  0
   15.3826    3.2328   -0.0000 C   0  0  0  0  0  0  0  0  0  0  0  0
  1  2  1  0  0  0  0
  2  3  2  0  0  0  0
  2  4  1  0  0  0  0
  3  5  1  0  0  0  0
  4  6  2  0  0  0  0
  5  7  2  0  0  0  0
  8  7  1  6  0  0  0
  8  9  1  0  0  0  0
  8 10  1  0  0  0  0
  9 11  1  0  0  0  0
  9 12  1  0  0  0  0
 10 13  2  0  0  0  0
 10 14  1  0  0  0  0
 11 15  2  0  0  0  0
 11 16  1  0  0  0  0
 12 17  2  0  0  0  0
 12 18  1  0  0  0  0
 13 19  1  0  0  0  0
 14 20  2  0  0  0  0
 15 21  1  0  0  0  0
 16 22  2  0  0  0  0
 19 23  2  0  0  0  0
 20 24  1  0  0  0  0
 21 25  2  0  0  0  0
 23 26  1  0  0  0  0
 24 27  1  0  0  0  0
 25 28  1  0  0  0  0
 26 29  1  0  0  0  0
 27 30  1  0  0  0  0
 27 31  1  0  0  0  0
 28 32  1  0  0  0  0
 28 33  1  0  0  0  0
 34 32  1  1  0  0  0
 34 35  1  0  0  0  0
 34 36  1  0  0  0  0
 35 37  1  0  0  0  0
 36 38  1  0  0  0  0
 37 39  1  0  0  0  0
 39 40  1  6  0  0  0
 40 41  1  0  0  0  0
 40 42  1  0  0  0  0
 41 43  1  0  0  0  0
 42 44  1  0  0  0  0
 43 45  2  0  0  0  0
 43 46  1  0  0  0  0
 46 47  1  0  0  0  0
  6  7  1  0  0  0  0
 13 18  1  0  0  0  0
 20 23  1  0  0  0  0
 22 25  1  0  0  0  0
 38 39  1  0  0  0  0
 44 46  1  0  0  0  0
M  END
>  <MolRegNo>
1956292

>  <m>
=

>  <Value>
17000

>  <Unit>
nM

>  <Type>
IC50

>  <pValue>
4.77

>  <Ligand Efficiency>
0

>  <Binding Efficiency>
0

>  <Surface Efficiency>
0

>  <Assay Index>
954873

>  <Assay Category>


>  <Assay Organism>
Homo sapiens

>  <Target ID>
17045

>  <Target Name>
Cytochrome P450 3A4

>  <Target Organism>
Homo sapiens

>  <Target Description>
Target is a single protein chain

>  <Sequence Accession>
P08684

>  <Reference>
J Med Chem 58 (16), 6348-6358 (2015)

>  <Pubmed ID>
26181851

>  <DOI>
10.1021/acs.jmedchem.5b00810

$$$$
1957210
Actelion Java MolfileCreator 1.0

 16 17  0  0  0  0  0  0  0  0999 V2000
    0.0000   -0.0000   -0.0000 Cl  0  0  0  0  0  0  0  0  0  0  0  0
   -1.0938   -0.6145   -0.0000 C   0  0  0  0  0  0  0  0  0  0  0  0
   -1.1061   -2.1630   -0.0000 C   0  0  0  0  0  0  0  0  0  0  0  0
   -2.4579    0.1721   -0.0000 C   0  0  0  0  0  0  0  0  0  0  0  0
    0.2335   -2.9372   -0.0000 N   0  0  0  0  0  0  0  0  0  0  0  0
   -2.4702   -2.9249   -0.0000 C   0  0  0  0  0  0  0  0  0  0  0  0
   -3.8221   -0.5899   -0.0000 C   0  0  0  0  0  0  0  0  0  0  0  0
    0.2212   -4.4857   -0.0000 C   0  0  0  0  0  0  0  0  0  0  0  0
   -3.8344   -2.1384   -0.0000 C   0  0  0  0  0  0  0  0  0  0  0  0
   -4.9159    0.0492   -0.0000 Cl  0  0  0  0  0  0  0  0  0  0  0  0
   -0.8726   -5.1002   -0.0000 O   0  0  0  0  0  0  0  0  0  0  0  0
    1.5608   -5.2600   -0.0000 C   0  0  0  0  0  0  0  0  0  0  0  0
    1.6960   -6.7839   -0.0000 N   0  0  0  0  0  0  0  0  0  0  0  0
    2.9495   -4.5963   -0.0000 C   0  0  0  0  0  0  0  0  0  0  0  0
    3.2076   -7.0911   -0.0000 N   0  0  0  0  0  0  0  0  0  0  0  0
    3.9818   -5.7393   -0.0000 N   0  0  0  0  0  0  0  0  0  0  0  0
  1  2  1  0  0  0  0
  2  3  2  0  0  0  0
  2  4  1  0  0  0  0
  3  5  1  0  0  0  0
  3  6  1  0  0  0  0
  4  7  2  0  0  0  0
  5  8  1  0  0  0  0
  6  9  2  0  0  0  0
  7 10  1  0  0  0  0
  8 11  2  0  0  0  0
  8 12  1  0  0  0  0
 12 13  2  0  0  0  0
 12 14  1  0  0  0  0
 13 15  1  0  0  0  0
 14 16  2  0  0  0  0
  7  9  1  0  0  0  0
 15 16  1  0  0  0  0
M  END
>  <MolRegNo>
1957210

>  <m>
=

>  <Value>
58100

>  <Unit>
nM

>  <Type>
IC50

>  <pValue>
4.24

>  <Ligand Efficiency>
0

>  <Binding Efficiency>
0

>  <Surface Efficiency>
0

>  <Assay Index>
955479

>  <Assay Category>


>  <Assay Organism>
Homo sapiens

>  <Target ID>
17045

>  <Target Name>
Cytochrome P450 3A4

>  <Target Organism>
Homo sapiens

>  <Target Description>
Target is a single protein chain

>  <Sequence Accession>
P08684

>  <Reference>
Bioorg Med Chem Lett 25 (15), 3024-3029 (2015)

>  <Pubmed ID>
26037322

>  <DOI>
10.1016/j.bmcl.2015.05.004

$$$$
1958591
Actelion Java MolfileCreator 1.0

 27 29  0  0  0  0  0  0  0  0999 V2000
    0.0000   -0.0000   -0.0000 S   0  0  0  0  0  0  0  0  0  0  0  0
   -0.6326   -1.0916   -0.0000 O   0  0  0  0  0  0  0  0  0  0  0  0
    0.6326   -1.0668   -0.0000 O   0  0  0  0  0  0  0  0  0  0  0  0
   -1.5878   -0.0124   -0.0000 N   0  0  0  0  0  0  0  0  0  0  0  0
    0.7567    1.3893   -0.0000 C   0  0  0  0  0  0  0  0  0  0  0  0
   -2.3693   -1.3769   -0.0000 C   0  0  0  0  0  0  0  0  0  0  0  0
   -0.0620    2.7539   -0.0000 C   0  0  0  0  0  0  0  0  0  0  0  0
    2.3197    1.4266   -0.0000 C   0  0  0  0  0  0  0  0  0  0  0  0
   -3.9571   -1.3893   -0.0000 C   0  0  0  0  0  0  0  0  0  0  0  0
   -1.7367   -2.4437   -0.0000 C   0  0  0  0  0  0  0  0  0  0  0  0
    0.6947    4.1432   -0.0000 N   0  0  0  0  0  0  0  0  0  0  0  0
    3.0764    2.8159   -0.0000 C   0  0  0  0  0  0  0  0  0  0  0  0
   -4.8875   -0.1365   -0.0000 N   0  0  0  0  0  0  0  0  0  0  0  0
   -4.8875   -2.6546   -0.0000 N   0  0  0  0  0  0  0  0  0  0  0  0
    2.2577    4.1804   -0.0000 C   0  0  0  0  0  0  0  0  0  0  0  0
   -6.3885   -0.6078   -0.0000 C   0  0  0  0  0  0  0  0  0  0  0  0
   -6.3885   -2.1584   -0.0000 C   0  0  0  0  0  0  0  0  0  0  0  0
   -4.4037   -4.1308   -0.0000 C   0  0  0  0  0  0  0  0  0  0  0  0
   -7.7654    0.2109   -0.0000 C   0  0  0  0  0  0  0  0  0  0  0  0
   -7.7654   -2.9523   -0.0000 C   0  0  0  0  0  0  0  0  0  0  0  0
   -3.1880   -4.3789   -0.0000 C   0  0  0  0  0  0  0  0  0  0  0  0
   -9.1547   -0.5830   -0.0000 C   0  0  0  0  0  0  0  0  0  0  0  0
   -9.1547   -2.1336   -0.0000 C   0  0  0  0  0  0  0  0  0  0  0  0
  -10.5317   -2.9027   -0.0000 C   0  0  0  0  0  0  0  0  0  0  0  0
  -11.6357   -2.2577   -0.0000 F   0  0  0  0  0  0  0  0  0  0  0  0
  -10.5565   -4.1556   -0.0000 F   0  0  0  0  0  0  0  0  0  0  0  0
  -11.6357   -3.5106   -0.0000 F   0  0  0  0  0  0  0  0  0  0  0  0
  1  2  2  0  0  0  0
  1  3  2  0  0  0  0
  1  4  1  0  0  0  0
  1  5  1  0  0  0  0
  6  4  1  1  0  0  0
  5  7  2  0  0  0  0
  5  8  1  0  0  0  0
  6  9  1  0  0  0  0
  6 10  1  0  0  0  0
  7 11  1  0  0  0  0
  8 12  2  0  0  0  0
  9 13  2  0  0  0  0
  9 14  1  0  0  0  0
 11 15  2  0  0  0  0
 13 16  1  0  0  0  0
 14 17  1  0  0  0  0
 14 18  1  0  0  0  0
 16 19  1  0  0  0  0
 17 20  1  0  0  0  0
 18 21  1  0  0  0  0
 19 22  2  0  0  0  0
 20 23  2  0  0  0  0
 23 24  1  0  0  0  0
 24 25  1  0  0  0  0
 24 26  1  0  0  0  0
 24 27  1  0  0  0  0
 12 15  1  0  0  0  0
 16 17  2  0  0  0  0
 22 23  1  0  0  0  0
M  END
>  <MolRegNo>
1958591

>  <m>
=

>  <Value>
830

>  <Unit>
nM

>  <Type>
IC50

>  <pValue>
6.08

>  <Ligand Efficiency>
0

>  <Binding Efficiency>
0

>  <Surface Efficiency>
0

>  <Assay Index>
956377

>  <Assay Category>


>  <Assay Organism>
Homo sapiens

>  <Target ID>
17045

>  <Target Name>
Cytochrome P450 3A4

>  <Target Organism>
Homo sapiens

>  <Target Description>
Target is a single protein chain

>  <Sequence Accession>
P08684

>  <Reference>
J Med Chem 58 (17), 7057-7075 (2015)

>  <Pubmed ID>
26291341

>  <DOI>
10.1021/acs.jmedchem.5b01078

$$$$
1957780
Actelion Java MolfileCreator 1.0

 25 27  0  0  0  0  0  0  0  0999 V2000
    0.0000   -0.0000   -0.0000 Cl  0  0  0  0  0  0  0  0  0  0  0  0
    1.0753   -0.6056   -0.0000 C   0  0  0  0  0  0  0  0  0  0  0  0
    1.0753   -2.1630   -0.0000 C   0  0  0  0  0  0  0  0  0  0  0  0
    2.4225    0.1978   -0.0000 C   0  0  0  0  0  0  0  0  0  0  0  0
   -0.0247   -2.7810   -0.0000 Cl  0  0  0  0  0  0  0  0  0  0  0  0
    2.4225   -2.9293   -0.0000 C   0  0  0  0  0  0  0  0  0  0  0  0
    3.7698   -0.5686   -0.0000 C   0  0  0  0  0  0  0  0  0  0  0  0
    2.4102    1.7798   -0.0000 C   0  0  0  0  0  0  0  0  0  0  0  0
    3.7698   -2.1259   -0.0000 C   0  0  0  0  0  0  0  0  0  0  0  0
    4.8451    0.0742   -0.0000 F   0  0  0  0  0  0  0  0  0  0  0  0
    3.7574    2.5832   -0.0000 N   0  0  0  0  0  0  0  0  0  0  0  0
    3.7450    4.1653   -0.0000 C   0  0  0  0  0  0  0  0  0  0  0  0
    5.0923    4.9563   -0.0000 C   0  0  0  0  0  0  0  0  0  0  0  0
    2.3607    4.9563   -0.0000 C   0  0  0  0  0  0  0  0  0  0  0  0
    5.0799    6.5384   -0.0000 C   0  0  0  0  0  0  0  0  0  0  0  0
    6.4395    4.1900   -0.0000 C   0  0  0  0  0  0  0  0  0  0  0  0
    2.3484    6.5384   -0.0000 C   0  0  0  0  0  0  0  0  0  0  0  0
    3.7080    7.3294   -0.0000 N   0  0  0  0  0  0  0  0  0  0  0  0
    6.4271    7.3294   -0.0000 C   0  0  0  0  0  0  0  0  0  0  0  0
    7.7867    4.9810   -0.0000 C   0  0  0  0  0  0  0  0  0  0  0  0
    1.2483    7.1811   -0.0000 C   0  0  0  0  0  0  0  0  0  0  0  0
    6.4148    8.9115   -0.0000 C   0  0  0  0  0  0  0  0  0  0  0  0
    7.7743    6.5631   -0.0000 C   0  0  0  0  0  0  0  0  0  0  0  0
    7.4901    9.5542   -0.0000 O   0  0  0  0  0  0  0  0  0  0  0  0
    5.3147    9.5542   -0.0000 N   0  0  0  0  0  0  0  0  0  0  0  0
  1  2  1  0  0  0  0
  2  3  2  0  0  0  0
  2  4  1  0  0  0  0
  3  5  1  0  0  0  0
  3  6  1  0  0  0  0
  4  7  2  0  0  0  0
  4  8  1  0  0  0  0
  6  9  2  0  0  0  0
  7 10  1  0  0  0  0
  8 11  1  0  0  0  0
 11 12  1  0  0  0  0
 12 13  1  0  0  0  0
 12 14  2  0  0  0  0
 13 15  1  0  0  0  0
 13 16  2  0  0  0  0
 14 17  1  0  0  0  0
 15 18  1  0  0  0  0
 15 19  2  0  0  0  0
 16 20  1  0  0  0  0
 17 21  1  0  0  0  0
 19 22  1  0  0  0  0
 19 23  1  0  0  0  0
 22 24  2  0  0  0  0
 22 25  1  0  0  0  0
  7  9  1  0  0  0  0
 17 18  2  0  0  0  0
 20 23  2  0  0  0  0
M  END
>  <MolRegNo>
1957780

>  <m>
=

>  <Value>
3981.1

>  <Unit>
nM

>  <Type>
IC50

>  <pValue>
5.4

>  <Ligand Efficiency>
0

>  <Binding Efficiency>
0

>  <Surface Efficiency>
0

>  <Assay Index>
955264

>  <Assay Category>


>  <Assay Organism>
Homo sapiens

>  <Target ID>
17045

>  <Target Name>
Cytochrome P450 3A4

>  <Target Organism>
Homo sapiens

>  <Target Description>
Target is a single protein chain

>  <Sequence Accession>
P08684

>  <Reference>
J Med Chem 58 (17), 7021-7056 (2015)

>  <Pubmed ID>
26267483

>  <DOI>
10.1021/acs.jmedchem.5b00992

$$$$
1957775
Actelion Java MolfileCreator 1.0

 27 29  0  0  0  0  0  0  0  0999 V2000
    0.0000   -0.0000   -0.0000 F   0  0  0  0  0  0  0  0  0  0  0  0
    1.0799   -0.6082   -0.0000 C   0  0  0  0  0  0  0  0  0  0  0  0
    2.4329    0.1986   -0.0000 C   0  0  0  0  0  0  0  0  0  0  0  0
    1.0799   -2.1722   -0.0000 C   0  0  0  0  0  0  0  0  0  0  0  0
    3.7859   -0.5710   -0.0000 C   0  0  0  0  0  0  0  0  0  0  0  0
    2.4205    1.7875   -0.0000 C   0  0  0  0  0  0  0  0  0  0  0  0
    2.4329   -2.9418   -0.0000 C   0  0  0  0  0  0  0  0  0  0  0  0
    3.7859   -2.1350   -0.0000 C   0  0  0  0  0  0  0  0  0  0  0  0
    5.1389    0.2358   -0.0000 C   0  0  0  0  0  0  0  0  0  0  0  0
    3.7735    2.5943   -0.0000 N   0  0  0  0  0  0  0  0  0  0  0  0
    6.2188   -0.3724   -0.0000 F   0  0  0  0  0  0  0  0  0  0  0  0
    5.1141    1.5144   -0.0000 F   0  0  0  0  0  0  0  0  0  0  0  0
    6.2188    0.8813   -0.0000 F   0  0  0  0  0  0  0  0  0  0  0  0
    3.7611    4.1831   -0.0000 C   0  0  0  0  0  0  0  0  0  0  0  0
    5.1141    4.9776   -0.0000 C   0  0  0  0  0  0  0  0  0  0  0  0
    2.3709    4.9776   -0.0000 C   0  0  0  0  0  0  0  0  0  0  0  0
    5.1017    6.5664   -0.0000 C   0  0  0  0  0  0  0  0  0  0  0  0
    6.4671    4.2080   -0.0000 C   0  0  0  0  0  0  0  0  0  0  0  0
    2.3584    6.5664   -0.0000 C   0  0  0  0  0  0  0  0  0  0  0  0
    3.7239    7.3608   -0.0000 N   0  0  0  0  0  0  0  0  0  0  0  0
    6.4547    7.3608   -0.0000 C   0  0  0  0  0  0  0  0  0  0  0  0
    7.8201    5.0024   -0.0000 C   0  0  0  0  0  0  0  0  0  0  0  0
    1.2537    7.2119   -0.0000 C   0  0  0  0  0  0  0  0  0  0  0  0
    6.4423    8.9497   -0.0000 C   0  0  0  0  0  0  0  0  0  0  0  0
    7.8077    6.5912   -0.0000 C   0  0  0  0  0  0  0  0  0  0  0  0
    7.5222    9.5951   -0.0000 O   0  0  0  0  0  0  0  0  0  0  0  0
    5.3375    9.5951   -0.0000 N   0  0  0  0  0  0  0  0  0  0  0  0
  1  2  1  0  0  0  0
  2  3  2  0  0  0  0
  2  4  1  0  0  0  0
  3  5  1  0  0  0  0
  3  6  1  0  0  0  0
  4  7  2  0  0  0  0
  5  8  2  0  0  0  0
  5  9  1  0  0  0  0
  6 10  1  0  0  0  0
  9 11  1  0  0  0  0
  9 12  1  0  0  0  0
  9 13  1  0  0  0  0
 10 14  1  0  0  0  0
 14 15  1  0  0  0  0
 14 16  2  0  0  0  0
 15 17  1  0  0  0  0
 15 18  2  0  0  0  0
 16 19  1  0  0  0  0
 17 20  1  0  0  0  0
 17 21  2  0  0  0  0
 18 22  1  0  0  0  0
 19 23  1  0  0  0  0
 21 24  1  0  0  0  0
 21 25  1  0  0  0  0
 24 26  2  0  0  0  0
 24 27  1  0  0  0  0
  7  8  1  0  0  0  0
 19 20  2  0  0  0  0
 22 25  2  0  0  0  0
M  END
>  <MolRegNo>
1957775

>  <m>
=

>  <Value>
12589

>  <Unit>
nM

>  <Type>
IC50

>  <pValue>
4.9

>  <Ligand Efficiency>
0

>  <Binding Efficiency>
0

>  <Surface Efficiency>
0

>  <Assay Index>
955264

>  <Assay Category>


>  <Assay Organism>
Homo sapiens

>  <Target ID>
17045

>  <Target Name>
Cytochrome P450 3A4

>  <Target Organism>
Homo sapiens

>  <Target Description>
Target is a single protein chain

>  <Sequence Accession>
P08684

>  <Reference>
J Med Chem 58 (17), 7021-7056 (2015)

>  <Pubmed ID>
26267483

>  <DOI>
10.1021/acs.jmedchem.5b00992

$$$$
1957774
Actelion Java MolfileCreator 1.0

 24 26  0  0  0  0  0  0  0  0999 V2000
    0.0000   -0.0000   -0.0000 Cl  0  0  0  0  0  0  0  0  0  0  0  0
    1.0688   -0.6020   -0.0000 C   0  0  0  0  0  0  0  0  0  0  0  0
    2.4078    0.1966   -0.0000 C   0  0  0  0  0  0  0  0  0  0  0  0
    1.0688   -2.1498   -0.0000 C   0  0  0  0  0  0  0  0  0  0  0  0
    3.7469   -0.5651   -0.0000 C   0  0  0  0  0  0  0  0  0  0  0  0
    2.3955    1.7690   -0.0000 C   0  0  0  0  0  0  0  0  0  0  0  0
    2.4078   -2.9115   -0.0000 C   0  0  0  0  0  0  0  0  0  0  0  0
    3.7469   -2.1130   -0.0000 C   0  0  0  0  0  0  0  0  0  0  0  0
    4.8156    0.0737   -0.0000 C   0  0  0  0  0  0  0  0  0  0  0  0
    3.7346    2.5675   -0.0000 N   0  0  0  0  0  0  0  0  0  0  0  0
    3.7223    4.1400   -0.0000 C   0  0  0  0  0  0  0  0  0  0  0  0
    5.0613    4.9262   -0.0000 C   0  0  0  0  0  0  0  0  0  0  0  0
    2.3464    4.9262   -0.0000 C   0  0  0  0  0  0  0  0  0  0  0  0
    5.0491    6.4987   -0.0000 C   0  0  0  0  0  0  0  0  0  0  0  0
    6.4004    4.1645   -0.0000 C   0  0  0  0  0  0  0  0  0  0  0  0
    2.3341    6.4987   -0.0000 C   0  0  0  0  0  0  0  0  0  0  0  0
    3.6854    7.2849   -0.0000 N   0  0  0  0  0  0  0  0  0  0  0  0
    6.3881    7.2849   -0.0000 C   0  0  0  0  0  0  0  0  0  0  0  0
    7.7394    4.9508   -0.0000 C   0  0  0  0  0  0  0  0  0  0  0  0
    1.2408    7.1375   -0.0000 C   0  0  0  0  0  0  0  0  0  0  0  0
    6.3758    8.8573   -0.0000 C   0  0  0  0  0  0  0  0  0  0  0  0
    7.7271    6.5232   -0.0000 C   0  0  0  0  0  0  0  0  0  0  0  0
    7.4446    9.4962   -0.0000 O   0  0  0  0  0  0  0  0  0  0  0  0
    5.2825    9.4962   -0.0000 N   0  0  0  0  0  0  0  0  0  0  0  0
  1  2  1  0  0  0  0
  2  3  2  0  0  0  0
  2  4  1  0  0  0  0
  3  5  1  0  0  0  0
  3  6  1  0  0  0  0
  4  7  2  0  0  0  0
  5  8  2  0  0  0  0
  5  9  1  0  0  0  0
  6 10  1  0  0  0  0
 10 11  1  0  0  0  0
 11 12  1  0  0  0  0
 11 13  2  0  0  0  0
 12 14  1  0  0  0  0
 12 15  2  0  0  0  0
 13 16  1  0  0  0  0
 14 17  1  0  0  0  0
 14 18  2  0  0  0  0
 15 19  1  0  0  0  0
 16 20  1  0  0  0  0
 18 21  1  0  0  0  0
 18 22  1  0  0  0  0
 21 23  2  0  0  0  0
 21 24  1  0  0  0  0
  7  8  1  0  0  0  0
 16 17  2  0  0  0  0
 19 22  2  0  0  0  0
M  END
>  <MolRegNo>
1957774

>  <m>
=

>  <Value>
10000

>  <Unit>
nM

>  <Type>
IC50

>  <pValue>
5

>  <Ligand Efficiency>
0

>  <Binding Efficiency>
0

>  <Surface Efficiency>
0

>  <Assay Index>
955264

>  <Assay Category>


>  <Assay Organism>
Homo sapiens

>  <Target ID>
17045

>  <Target Name>
Cytochrome P450 3A4

>  <Target Organism>
Homo sapiens

>  <Target Description>
Target is a single protein chain

>  <Sequence Accession>
P08684

>  <Reference>
J Med Chem 58 (17), 7021-7056 (2015)

>  <Pubmed ID>
26267483

>  <DOI>
10.1021/acs.jmedchem.5b00992

$$$$
1957763
Actelion Java MolfileCreator 1.0

 24 26  0  0  0  0  0  0  0  0999 V2000
    0.0000   -0.0000   -0.0000 Cl  0  0  0  0  0  0  0  0  0  0  0  0
    1.0688   -0.6020   -0.0000 C   0  0  0  0  0  0  0  0  0  0  0  0
    2.4078    0.1966   -0.0000 C   0  0  0  0  0  0  0  0  0  0  0  0
    1.0688   -2.1498   -0.0000 C   0  0  0  0  0  0  0  0  0  0  0  0
    3.7469   -0.5651   -0.0000 C   0  0  0  0  0  0  0  0  0  0  0  0
    2.3955    1.7690   -0.0000 C   0  0  0  0  0  0  0  0  0  0  0  0
    2.4078   -2.9115   -0.0000 C   0  0  0  0  0  0  0  0  0  0  0  0
    4.8156    0.0737   -0.0000 Cl  0  0  0  0  0  0  0  0  0  0  0  0
    3.7469   -2.1130   -0.0000 C   0  0  0  0  0  0  0  0  0  0  0  0
    3.7346    2.5675   -0.0000 N   0  0  0  0  0  0  0  0  0  0  0  0
    3.7223    4.1400   -0.0000 C   0  0  0  0  0  0  0  0  0  0  0  0
    5.0613    4.9262   -0.0000 C   0  0  0  0  0  0  0  0  0  0  0  0
    2.3464    4.9262   -0.0000 C   0  0  0  0  0  0  0  0  0  0  0  0
    5.0491    6.4987   -0.0000 C   0  0  0  0  0  0  0  0  0  0  0  0
    6.4004    4.1645   -0.0000 C   0  0  0  0  0  0  0  0  0  0  0  0
    2.3341    6.4987   -0.0000 C   0  0  0  0  0  0  0  0  0  0  0  0
    3.6854    7.2849   -0.0000 N   0  0  0  0  0  0  0  0  0  0  0  0
    6.3881    7.2849   -0.0000 C   0  0  0  0  0  0  0  0  0  0  0  0
    7.7394    4.9508   -0.0000 C   0  0  0  0  0  0  0  0  0  0  0  0
    1.2408    7.1375   -0.0000 C   0  0  0  0  0  0  0  0  0  0  0  0
    6.3758    8.8573   -0.0000 C   0  0  0  0  0  0  0  0  0  0  0  0
    7.7271    6.5232   -0.0000 C   0  0  0  0  0  0  0  0  0  0  0  0
    7.4446    9.4962   -0.0000 O   0  0  0  0  0  0  0  0  0  0  0  0
    5.2825    9.4962   -0.0000 N   0  0  0  0  0  0  0  0  0  0  0  0
  1  2  1  0  0  0  0
  2  3  2  0  0  0  0
  2  4  1  0  0  0  0
  3  5  1  0  0  0  0
  3  6  1  0  0  0  0
  4  7  2  0  0  0  0
  5  8  1  0  0  0  0
  5  9  2  0  0  0  0
  6 10  1  0  0  0  0
 10 11  1  0  0  0  0
 11 12  1  0  0  0  0
 11 13  2  0  0  0  0
 12 14  1  0  0  0  0
 12 15  2  0  0  0  0
 13 16  1  0  0  0  0
 14 17  1  0  0  0  0
 14 18  2  0  0  0  0
 15 19  1  0  0  0  0
 16 20  1  0  0  0  0
 18 21  1  0  0  0  0
 18 22  1  0  0  0  0
 21 23  2  0  0  0  0
 21 24  1  0  0  0  0
  7  9  1  0  0  0  0
 16 17  2  0  0  0  0
 19 22  2  0  0  0  0
M  END
>  <MolRegNo>
1957763

>  <m>
=

>  <Value>
7943.3

>  <Unit>
nM

>  <Type>
IC50

>  <pValue>
5.1

>  <Ligand Efficiency>
0

>  <Binding Efficiency>
0

>  <Surface Efficiency>
0

>  <Assay Index>
955264

>  <Assay Category>


>  <Assay Organism>
Homo sapiens

>  <Target ID>
17045

>  <Target Name>
Cytochrome P450 3A4

>  <Target Organism>
Homo sapiens

>  <Target Description>
Target is a single protein chain

>  <Sequence Accession>
P08684

>  <Reference>
J Med Chem 58 (17), 7021-7056 (2015)

>  <Pubmed ID>
26267483

>  <DOI>
10.1021/acs.jmedchem.5b00992

$$$$
1957758
Actelion Java MolfileCreator 1.0

 24 26  0  0  0  0  0  0  0  0999 V2000
    0.0000   -0.0000   -0.0000 Cl  0  0  0  0  0  0  0  0  0  0  0  0
    1.0685   -0.6018   -0.0000 C   0  0  0  0  0  0  0  0  0  0  0  0
    1.0685   -2.1493   -0.0000 C   0  0  0  0  0  0  0  0  0  0  0  0
    2.4073    0.1965   -0.0000 C   0  0  0  0  0  0  0  0  0  0  0  0
   -0.0246   -2.7634   -0.0000 Cl  0  0  0  0  0  0  0  0  0  0  0  0
    2.4073   -2.9108   -0.0000 C   0  0  0  0  0  0  0  0  0  0  0  0
    3.7460   -0.5650   -0.0000 C   0  0  0  0  0  0  0  0  0  0  0  0
    2.3950    1.7686   -0.0000 C   0  0  0  0  0  0  0  0  0  0  0  0
    3.7460   -2.1125   -0.0000 C   0  0  0  0  0  0  0  0  0  0  0  0
    3.7337    2.5669   -0.0000 N   0  0  0  0  0  0  0  0  0  0  0  0
    3.7214    4.1390   -0.0000 C   0  0  0  0  0  0  0  0  0  0  0  0
    5.0602    4.9251   -0.0000 C   0  0  0  0  0  0  0  0  0  0  0  0
    2.3459    4.9251   -0.0000 C   0  0  0  0  0  0  0  0  0  0  0  0
    5.0479    6.4972   -0.0000 C   0  0  0  0  0  0  0  0  0  0  0  0
    6.3989    4.1636   -0.0000 C   0  0  0  0  0  0  0  0  0  0  0  0
    2.3336    6.4972   -0.0000 C   0  0  0  0  0  0  0  0  0  0  0  0
    3.6846    7.2832   -0.0000 N   0  0  0  0  0  0  0  0  0  0  0  0
    6.3866    7.2832   -0.0000 C   0  0  0  0  0  0  0  0  0  0  0  0
    7.7377    4.9496   -0.0000 C   0  0  0  0  0  0  0  0  0  0  0  0
    1.2405    7.1358   -0.0000 C   0  0  0  0  0  0  0  0  0  0  0  0
    6.3744    8.8553   -0.0000 C   0  0  0  0  0  0  0  0  0  0  0  0
    7.7254    6.5217   -0.0000 C   0  0  0  0  0  0  0  0  0  0  0  0
    7.4429    9.4940   -0.0000 O   0  0  0  0  0  0  0  0  0  0  0  0
    5.2813    9.4940   -0.0000 N   0  0  0  0  0  0  0  0  0  0  0  0
  1  2  1  0  0  0  0
  2  3  2  0  0  0  0
  2  4  1  0  0  0  0
  3  5  1  0  0  0  0
  3  6  1  0  0  0  0
  4  7  2  0  0  0  0
  4  8  1  0  0  0  0
  6  9  2  0  0  0  0
  8 10  1  0  0  0  0
 10 11  1  0  0  0  0
 11 12  1  0  0  0  0
 11 13  2  0  0  0  0
 12 14  1  0  0  0  0
 12 15  2  0  0  0  0
 13 16  1  0  0  0  0
 14 17  1  0  0  0  0
 14 18  2  0  0  0  0
 15 19  1  0  0  0  0
 16 20  1  0  0  0  0
 18 21  1  0  0  0  0
 18 22  1  0  0  0  0
 21 23  2  0  0  0  0
 21 24  1  0  0  0  0
  7  9  1  0  0  0  0
 16 17  2  0  0  0  0
 19 22  2  0  0  0  0
M  END
>  <MolRegNo>
1957758

>  <m>
=

>  <Value>
3981.1

>  <Unit>
nM

>  <Type>
IC50

>  <pValue>
5.4

>  <Ligand Efficiency>
0

>  <Binding Efficiency>
0

>  <Surface Efficiency>
0

>  <Assay Index>
955264

>  <Assay Category>


>  <Assay Organism>
Homo sapiens

>  <Target ID>
17045

>  <Target Name>
Cytochrome P450 3A4

>  <Target Organism>
Homo sapiens

>  <Target Description>
Target is a single protein chain

>  <Sequence Accession>
P08684

>  <Reference>
J Med Chem 58 (17), 7021-7056 (2015)

>  <Pubmed ID>
26267483

>  <DOI>
10.1021/acs.jmedchem.5b00992

$$$$
1957754
Actelion Java MolfileCreator 1.0

 26 28  0  0  0  0  0  0  0  0999 V2000
    0.0000   -0.0000   -0.0000 F   0  0  0  0  0  0  0  0  0  0  0  0
    0.0000   -1.2460   -0.0000 C   0  0  0  0  0  0  0  0  0  0  0  0
   -1.0980   -1.8628   -0.0000 F   0  0  0  0  0  0  0  0  0  0  0  0
   -1.0980   -0.6168   -0.0000 F   0  0  0  0  0  0  0  0  0  0  0  0
    1.3447   -2.0109   -0.0000 C   0  0  0  0  0  0  0  0  0  0  0  0
    2.6894   -1.2090   -0.0000 C   0  0  0  0  0  0  0  0  0  0  0  0
    1.3447   -3.5653   -0.0000 C   0  0  0  0  0  0  0  0  0  0  0  0
    4.0341   -1.9739   -0.0000 C   0  0  0  0  0  0  0  0  0  0  0  0
    2.6770    0.3701   -0.0000 C   0  0  0  0  0  0  0  0  0  0  0  0
    2.6894   -4.3301   -0.0000 C   0  0  0  0  0  0  0  0  0  0  0  0
    4.0341   -3.5283   -0.0000 C   0  0  0  0  0  0  0  0  0  0  0  0
    4.0217    1.1720   -0.0000 N   0  0  0  0  0  0  0  0  0  0  0  0
    4.0094    2.7511   -0.0000 C   0  0  0  0  0  0  0  0  0  0  0  0
    5.3541    3.5406   -0.0000 C   0  0  0  0  0  0  0  0  0  0  0  0
    2.6277    3.5406   -0.0000 C   0  0  0  0  0  0  0  0  0  0  0  0
    5.3417    5.1197   -0.0000 C   0  0  0  0  0  0  0  0  0  0  0  0
    6.6988    2.7757   -0.0000 C   0  0  0  0  0  0  0  0  0  0  0  0
    2.6154    5.1197   -0.0000 C   0  0  0  0  0  0  0  0  0  0  0  0
    3.9724    5.9092   -0.0000 N   0  0  0  0  0  0  0  0  0  0  0  0
    6.6864    5.9092   -0.0000 C   0  0  0  0  0  0  0  0  0  0  0  0
    8.0435    3.5653   -0.0000 C   0  0  0  0  0  0  0  0  0  0  0  0
    1.5174    5.7612   -0.0000 C   0  0  0  0  0  0  0  0  0  0  0  0
    6.6741    7.4883   -0.0000 C   0  0  0  0  0  0  0  0  0  0  0  0
    8.0311    5.1444   -0.0000 C   0  0  0  0  0  0  0  0  0  0  0  0
    7.7474    8.1298   -0.0000 O   0  0  0  0  0  0  0  0  0  0  0  0
    5.5761    8.1298   -0.0000 N   0  0  0  0  0  0  0  0  0  0  0  0
  1  2  1  0  0  0  0
  2  3  1  0  0  0  0
  2  4  1  0  0  0  0
  2  5  1  0  0  0  0
  5  6  2  0  0  0  0
  5  7  1  0  0  0  0
  6  8  1  0  0  0  0
  6  9  1  0  0  0  0
  7 10  2  0  0  0  0
  8 11  2  0  0  0  0
  9 12  1  0  0  0  0
 12 13  1  0  0  0  0
 13 14  1  0  0  0  0
 13 15  2  0  0  0  0
 14 16  1  0  0  0  0
 14 17  2  0  0  0  0
 15 18  1  0  0  0  0
 16 19  1  0  0  0  0
 16 20  2  0  0  0  0
 17 21  1  0  0  0  0
 18 22  1  0  0  0  0
 20 23  1  0  0  0  0
 20 24  1  0  0  0  0
 23 25  2  0  0  0  0
 23 26  1  0  0  0  0
 10 11  1  0  0  0  0
 18 19  2  0  0  0  0
 21 24  2  0  0  0  0
M  END
>  <MolRegNo>
1957754

>  <m>
=

>  <Value>
12589

>  <Unit>
nM

>  <Type>
IC50

>  <pValue>
4.9

>  <Ligand Efficiency>
0

>  <Binding Efficiency>
0

>  <Surface Efficiency>
0

>  <Assay Index>
955264

>  <Assay Category>


>  <Assay Organism>
Homo sapiens

>  <Target ID>
17045

>  <Target Name>
Cytochrome P450 3A4

>  <Target Organism>
Homo sapiens

>  <Target Description>
Target is a single protein chain

>  <Sequence Accession>
P08684

>  <Reference>
J Med Chem 58 (17), 7021-7056 (2015)

>  <Pubmed ID>
26267483

>  <DOI>
10.1021/acs.jmedchem.5b00992

$$$$
1957742
Actelion Java MolfileCreator 1.0

 24 26  0  0  0  0  0  0  0  0999 V2000
    0.0000   -0.0000   -0.0000 O   0  0  0  0  0  0  0  0  0  0  0  0
    1.0677    0.6382   -0.0000 C   0  0  0  0  0  0  0  0  0  0  0  0
    2.1354    0.0368   -0.0000 N   0  0  0  0  0  0  0  0  0  0  0  0
    1.0554    2.2090   -0.0000 C   0  0  0  0  0  0  0  0  0  0  0  0
    2.3931    2.9945   -0.0000 C   0  0  0  0  0  0  0  0  0  0  0  0
   -0.3191    2.9945   -0.0000 C   0  0  0  0  0  0  0  0  0  0  0  0
    3.7308    2.2336   -0.0000 N   0  0  0  0  0  0  0  0  0  0  0  0
    2.3809    4.5653   -0.0000 C   0  0  0  0  0  0  0  0  0  0  0  0
   -0.3314    4.5653   -0.0000 C   0  0  0  0  0  0  0  0  0  0  0  0
    5.0685    3.0190   -0.0000 C   0  0  0  0  0  0  0  0  0  0  0  0
    3.7185    5.3508   -0.0000 C   0  0  0  0  0  0  0  0  0  0  0  0
    1.0186    5.3508   -0.0000 C   0  0  0  0  0  0  0  0  0  0  0  0
    5.0562    4.5899   -0.0000 C   0  0  0  0  0  0  0  0  0  0  0  0
    6.1362    2.4054   -0.0000 C   0  0  0  0  0  0  0  0  0  0  0  0
    3.7063    6.9217   -0.0000 N   0  0  0  0  0  0  0  0  0  0  0  0
    5.0440    7.7071   -0.0000 C   0  0  0  0  0  0  0  0  0  0  0  0
    5.0317    9.2780   -0.0000 C   0  0  0  0  0  0  0  0  0  0  0  0
    3.6695   10.0634   -0.0000 C   0  0  0  0  0  0  0  0  0  0  0  0
    6.3694   10.0634   -0.0000 C   0  0  0  0  0  0  0  0  0  0  0  0
    3.6572   11.6343   -0.0000 C   0  0  0  0  0  0  0  0  0  0  0  0
    2.5772    9.4498   -0.0000 C   0  0  0  0  0  0  0  0  0  0  0  0
    6.3571   11.6343   -0.0000 C   0  0  0  0  0  0  0  0  0  0  0  0
    7.4371    9.4498   -0.0000 C   0  0  0  0  0  0  0  0  0  0  0  0
    4.9949   12.4197   -0.0000 C   0  0  0  0  0  0  0  0  0  0  0  0
  1  2  2  0  0  0  0
  2  3  1  0  0  0  0
  2  4  1  0  0  0  0
  4  5  1  0  0  0  0
  4  6  2  0  0  0  0
  5  7  2  0  0  0  0
  5  8  1  0  0  0  0
  6  9  1  0  0  0  0
  7 10  1  0  0  0  0
  8 11  2  0  0  0  0
  8 12  1  0  0  0  0
 10 13  2  0  0  0  0
 10 14  1  0  0  0  0
 11 15  1  0  0  0  0
 15 16  1  0  0  0  0
 16 17  1  0  0  0  0
 17 18  2  0  0  0  0
 17 19  1  0  0  0  0
 18 20  1  0  0  0  0
 18 21  1  0  0  0  0
 19 22  2  0  0  0  0
 19 23  1  0  0  0  0
 20 24  2  0  0  0  0
  9 12  2  0  0  0  0
 11 13  1  0  0  0  0
 22 24  1  0  0  0  0
M  END
>  <MolRegNo>
1957742

>  <m>
=

>  <Value>
10000

>  <Unit>
nM

>  <Type>
IC50

>  <pValue>
5

>  <Ligand Efficiency>
0

>  <Binding Efficiency>
0

>  <Surface Efficiency>
0

>  <Assay Index>
955264

>  <Assay Category>


>  <Assay Organism>
Homo sapiens

>  <Target ID>
17045

>  <Target Name>
Cytochrome P450 3A4

>  <Target Organism>
Homo sapiens

>  <Target Description>
Target is a single protein chain

>  <Sequence Accession>
P08684

>  <Reference>
J Med Chem 58 (17), 7021-7056 (2015)

>  <Pubmed ID>
26267483

>  <DOI>
10.1021/acs.jmedchem.5b00992

$$$$
1960686
Actelion Java MolfileCreator 1.0

 37 41  0  0  0  0  0  0  0  0999 V2000
    0.0000   -0.0000   -0.0000 O   0  0  0  0  0  0  0  0  0  0  0  0
    1.1110   -0.3753   -0.0000 C   0  0  0  0  0  0  0  0  0  0  0  0
    1.3663   -1.8317   -0.0000 O   0  0  0  0  0  0  0  0  0  0  0  0
    2.2371    0.6156   -0.0000 C   0  0  0  0  0  0  0  0  0  0  0  0
    0.2252   -2.8226   -0.0000 C   0  0  0  0  0  0  0  0  0  0  0  0
    1.9969    1.8017   -0.0000 C   0  0  0  0  0  0  0  0  0  0  0  0
    3.3481    0.2402   -0.0000 C   0  0  0  0  0  0  0  0  0  0  0  0
   -0.0150   -4.4591   -0.0000 C   0  0  0  0  0  0  0  0  0  0  0  0
    0.8708   -4.0087   -0.0000 C   0  0  0  0  0  0  0  0  0  0  0  0
   -1.2161   -2.2821   -0.0000 C   0  0  0  0  0  0  0  0  0  0  0  0
   -1.3813   -5.1198   -0.0000 C   0  0  0  0  0  0  0  0  0  0  0  0
    1.7716   -4.9396   -0.0000 C   0  0  0  0  0  0  0  0  0  0  0  0
    0.7207   -5.9005   -0.0000 C   0  0  0  0  0  0  0  0  0  0  0  0
   -2.3722   -3.2430   -0.0000 C   0  0  0  0  0  0  0  0  0  0  0  0
   -1.1861   -6.4860   -0.0000 C   0  0  0  0  0  0  0  0  0  0  0  0
   -2.8677   -4.4441   -0.0000 C   0  0  0  0  0  0  0  0  0  0  0  0
    3.0178   -5.9906   -0.0000 C   0  0  0  0  0  0  0  0  0  0  0  0
    1.9818   -6.5911   -0.0000 C   0  0  0  0  0  0  0  0  0  0  0  0
   -3.7985   -2.7325   -0.0000 N   0  0  0  0  0  0  0  0  0  0  0  0
   -2.4022   -7.5370   -0.0000 C   0  0  0  0  0  0  0  0  0  0  0  0
   -4.1138   -5.4200   -0.0000 C   0  0  0  0  0  0  0  0  0  0  0  0
   -4.9546   -3.6934   -0.0000 C   0  0  0  0  0  0  0  0  0  0  0  0
   -4.0388   -1.5464   -0.0000 C   0  0  0  0  0  0  0  0  0  0  0  0
   -3.8886   -6.9364   -0.0000 C   0  0  0  0  0  0  0  0  0  0  0  0
   -6.3809   -3.1830   -0.0000 C   0  0  0  0  0  0  0  0  0  0  0  0
   -7.5370   -4.1439   -0.0000 C   0  0  0  0  0  0  0  0  0  0  0  0
   -8.9633   -3.6334   -0.0000 C   0  0  0  0  0  0  0  0  0  0  0  0
  -10.1644   -4.4591   -0.0000 N   0  0  0  0  0  0  0  0  0  0  0  0
   -9.3837   -2.1920   -0.0000 N   0  0  0  0  0  0  0  0  0  0  0  0
  -11.3806   -3.5583   -0.0000 C   0  0  0  0  0  0  0  0  0  0  0  0
  -10.8851   -2.1470   -0.0000 C   0  0  0  0  0  0  0  0  0  0  0  0
  -12.8670   -3.8436   -0.0000 C   0  0  0  0  0  0  0  0  0  0  0  0
  -11.8760   -0.9909   -0.0000 C   0  0  0  0  0  0  0  0  0  0  0  0
  -13.8729   -2.6875   -0.0000 C   0  0  0  0  0  0  0  0  0  0  0  0
  -11.3956    0.4354   -0.0000 O   0  0  0  0  0  0  0  0  0  0  0  0
  -13.3774   -1.2762   -0.0000 C   0  0  0  0  0  0  0  0  0  0  0  0
  -12.1913    1.3513   -0.0000 C   0  0  0  0  0  0  0  0  0  0  0  0
  1  2  2  0  0  0  0
  2  3  1  0  0  0  0
  2  4  1  0  0  0  0
  5  3  1  1  0  0  0
  4  6  1  0  0  0  0
  4  7  1  0  0  0  0
  5  8  1  0  0  0  0
  5  9  1  0  0  0  0
  5 10  1  0  0  0  0
  8 11  1  0  0  0  0
  8 12  1  6  0  0  0
 13  9  1  1  0  0  0
 10 14  1  0  0  0  0
 11 15  2  0  0  0  0
 11 16  1  0  0  0  0
 12 17  1  0  0  0  0
 13 18  1  0  0  0  0
 14 19  1  0  0  0  0
 15 20  1  0  0  0  0
 16 21  2  0  0  0  0
 19 22  1  0  0  0  0
 19 23  1  0  0  0  0
 20 24  2  0  0  0  0
 22 25  1  0  0  0  0
 25 26  1  0  0  0  0
 26 27  1  0  0  0  0
 27 28  2  0  0  0  0
 27 29  1  0  0  0  0
 28 30  1  0  0  0  0
 29 31  1  0  0  0  0
 30 32  1  0  0  0  0
 31 33  1  0  0  0  0
 32 34  2  0  0  0  0
 33 35  1  0  0  0  0
 33 36  2  0  0  0  0
 35 37  1  0  0  0  0
 13 15  1  0  0  0  0
 17 18  1  0  0  0  0
 21 24  1  0  0  0  0
 30 31  2  0  0  0  0
 34 36  1  0  0  0  0
M  END
>  <MolRegNo>
1960686

>  <m>
=

>  <Value>
34000

>  <Unit>
nM

>  <Type>
IC50

>  <pValue>
4.47

>  <Ligand Efficiency>
0

>  <Binding Efficiency>
0

>  <Surface Efficiency>
0

>  <Assay Index>
958108

>  <Assay Category>


>  <Assay Organism>
Homo sapiens

>  <Target ID>
17045

>  <Target Name>
Cytochrome P450 3A4

>  <Target Organism>
Homo sapiens

>  <Target Description>
Target is a single protein chain

>  <Sequence Accession>
P08684

>  <Reference>
Bioorg Med Chem Lett 25 (18), 3941-3946 (2015)

>  <Pubmed ID>
26231163

>  <DOI>
10.1016/j.bmcl.2015.07.038

$$$$
1959596
Actelion Java MolfileCreator 1.0

 24 27  0  0  1  0  0  0  0  0999 V2000
    0.0000   -0.0000   -0.0000 S   0  0  0  0  0  0  0  0  0  0  0  0
   -1.5490   -0.0242   -0.0000 N   0  0  0  0  0  0  0  0  0  0  0  0
    0.4720   -1.4280   -0.0000 C   0  0  0  0  0  0  0  0  0  0  0  0
   -1.9967   -1.4885   -0.0000 C   0  0  0  0  0  0  0  0  0  0  0  0
   -0.7382   -2.3598   -0.0000 N   0  0  0  0  0  0  0  0  0  0  0  0
    1.9604   -1.7305   -0.0000 C   0  0  0  0  0  0  0  0  0  0  0  0
   -3.1706   -1.8878   -0.0000 C   0  0  0  0  0  0  0  0  0  0  0  0
    2.5776   -3.1222   -0.0000 N   0  0  0  0  0  0  0  0  0  0  0  0
    3.0859   -0.6898   -0.0000 N   0  0  0  0  0  0  0  0  0  0  0  0
    4.0903   -2.9527   -0.0000 N   0  0  0  0  0  0  0  0  0  0  0  0
    4.4049   -1.4401   -0.0000 C   0  0  0  0  0  0  0  0  0  0  0  0
    3.0738    0.8592   -0.0000 C   0  0  0  0  0  0  0  0  0  0  0  0
    5.7240   -0.6656   -0.0000 C   0  0  0  0  0  0  0  0  0  0  0  0
    4.3928    1.6337   -0.0000 C   0  0  0  0  0  0  0  0  0  0  0  0
    5.7119    0.8834   -0.0000 N   0  0  0  0  0  0  0  0  0  0  0  0
    6.7768   -1.2706   -0.0000 C   0  0  0  0  0  0  0  0  0  0  0  0
    7.0309    1.6700   -0.0000 C   0  0  0  0  0  0  0  0  0  0  0  0
    8.0837    1.0649   -0.0000 O   0  0  0  0  0  0  0  0  0  0  0  0
    7.0188    3.2190   -0.0000 C   0  0  0  0  0  0  0  0  0  0  0  0
    8.3379    4.0056   -0.0000 C   0  0  0  0  0  0  0  0  0  0  0  0
    5.6756    3.9935   -0.0000 C   0  0  0  0  0  0  0  0  0  0  0  0
    8.3258    5.5545   -0.0000 C   0  0  0  0  0  0  0  0  0  0  0  0
    5.6635    5.5424   -0.0000 C   0  0  0  0  0  0  0  0  0  0  0  0
    6.9825    6.3290   -0.0000 C   0  0  0  0  0  0  0  0  0  0  0  0
  1  2  1  0  0  0  0
  1  3  1  0  0  0  0
  2  4  2  0  0  0  0
  3  5  2  0  0  0  0
  3  6  1  0  0  0  0
  4  7  1  0  0  0  0
  6  8  2  0  0  0  0
  6  9  1  0  0  0  0
  8 10  1  0  0  0  0
  9 11  1  0  0  0  0
  9 12  1  0  0  0  0
 11 13  1  0  0  0  0
 12 14  1  0  0  0  0
 13 15  1  0  0  0  0
 13 16  1  6  0  0  0
 15 17  1  0  0  0  0
 17 18  2  0  0  0  0
 17 19  1  0  0  0  0
 19 20  2  0  0  0  0
 19 21  1  0  0  0  0
 20 22  1  0  0  0  0
 21 23  2  0  0  0  0
 22 24  2  0  0  0  0
  4  5  1  0  0  0  0
 10 11  2  0  0  0  0
 14 15  1  0  0  0  0
 23 24  1  0  0  0  0
M  END
>  <MolRegNo>
1959596

>  <m>
=

>  <Value>
31000

>  <Unit>
nM

>  <Type>
IC50

>  <pValue>
4.51

>  <Ligand Efficiency>
0

>  <Binding Efficiency>
0

>  <Surface Efficiency>
0

>  <Assay Index>
958289

>  <Assay Category>


>  <Assay Organism>
Homo sapiens

>  <Target ID>
17045

>  <Target Name>
Cytochrome P450 3A4

>  <Target Organism>
Homo sapiens

>  <Target Description>
Target is a single protein chain

>  <Sequence Accession>
P08684

>  <Reference>
ACS Med Chem Lett 6 (7), 736-740 (2015)

>  <Pubmed ID>
26191358

>  <DOI>
10.1021/acsmedchemlett.5b00117

$$$$
1959536
Actelion Java MolfileCreator 1.0

 25 28  0  0  0  0  0  0  0  0999 V2000
    0.0000   -0.0000   -0.0000 S   0  0  0  0  0  0  0  0  0  0  0  0
   -1.3016    0.7928   -0.0000 N   0  0  0  0  0  0  0  0  0  0  0  0
    1.1241    0.9940   -0.0000 C   0  0  0  0  0  0  0  0  0  0  0  0
   -0.9703    2.2719   -0.0000 C   0  0  0  0  0  0  0  0  0  0  0  0
    0.5325    2.3903   -0.0000 N   0  0  0  0  0  0  0  0  0  0  0  0
    2.5796    0.6627   -0.0000 C   0  0  0  0  0  0  0  0  0  0  0  0
   -2.0235    3.3724   -0.0000 C   0  0  0  0  0  0  0  0  0  0  0  0
    3.1831   -0.6981   -0.0000 N   0  0  0  0  0  0  0  0  0  0  0  0
    3.6801    1.6803   -0.0000 N   0  0  0  0  0  0  0  0  0  0  0  0
    4.6622   -0.5325   -0.0000 N   0  0  0  0  0  0  0  0  0  0  0  0
    4.9699    0.9466   -0.0000 C   0  0  0  0  0  0  0  0  0  0  0  0
    3.6682    3.1949   -0.0000 C   0  0  0  0  0  0  0  0  0  0  0  0
    6.2597    1.7040   -0.0000 C   0  0  0  0  0  0  0  0  0  0  0  0
    4.9580    3.9522   -0.0000 C   0  0  0  0  0  0  0  0  0  0  0  0
    6.2478    3.2186   -0.0000 N   0  0  0  0  0  0  0  0  0  0  0  0
    7.5495    0.9703   -0.0000 C   0  0  0  0  0  0  0  0  0  0  0  0
    7.5377    3.9759   -0.0000 C   0  0  0  0  0  0  0  0  0  0  0  0
    7.5258    5.4905   -0.0000 O   0  0  0  0  0  0  0  0  0  0  0  0
    8.8275    3.2304   -0.0000 C   0  0  0  0  0  0  0  0  0  0  0  0
    8.8156    1.7395   -0.0000 C   0  0  0  0  0  0  0  0  0  0  0  0
   10.1173    3.9996   -0.0000 C   0  0  0  0  0  0  0  0  0  0  0  0
   10.1054    0.9940   -0.0000 C   0  0  0  0  0  0  0  0  0  0  0  0
   11.4071    3.2659   -0.0000 C   0  0  0  0  0  0  0  0  0  0  0  0
   11.3952    1.7631   -0.0000 C   0  0  0  0  0  0  0  0  0  0  0  0
   12.6850    1.0176   -0.0000 F   0  0  0  0  0  0  0  0  0  0  0  0
  1  2  1  0  0  0  0
  1  3  1  0  0  0  0
  2  4  2  0  0  0  0
  3  5  2  0  0  0  0
  3  6  1  0  0  0  0
  4  7  1  0  0  0  0
  6  8  2  0  0  0  0
  6  9  1  0  0  0  0
  8 10  1  0  0  0  0
  9 11  1  0  0  0  0
  9 12  1  0  0  0  0
 11 13  1  0  0  0  0
 12 14  1  0  0  0  0
 13 15  1  0  0  0  0
 13 16  1  1  0  0  0
 15 17  1  0  0  0  0
 17 18  2  0  0  0  0
 17 19  1  0  0  0  0
 19 20  2  0  0  0  0
 19 21  1  0  0  0  0
 20 22  1  0  0  0  0
 21 23  2  0  0  0  0
 22 24  2  0  0  0  0
 24 25  1  0  0  0  0
  4  5  1  0  0  0  0
 10 11  2  0  0  0  0
 14 15  1  0  0  0  0
 23 24  1  0  0  0  0
M  END
>  <MolRegNo>
1959536

>  <m>
=

>  <Value>
90000

>  <Unit>
nM

>  <Type>
IC50

>  <pValue>
4.05

>  <Ligand Efficiency>
0

>  <Binding Efficiency>
0

>  <Surface Efficiency>
0

>  <Assay Index>
958289

>  <Assay Category>


>  <Assay Organism>
Homo sapiens

>  <Target ID>
17045

>  <Target Name>
Cytochrome P450 3A4

>  <Target Organism>
Homo sapiens

>  <Target Description>
Target is a single protein chain

>  <Sequence Accession>
P08684

>  <Reference>
ACS Med Chem Lett 6 (7), 736-740 (2015)

>  <Pubmed ID>
26191358

>  <DOI>
10.1021/acsmedchemlett.5b00117

$$$$
1959312
Actelion Java MolfileCreator 1.0

 34 38  0  0  0  0  0  0  0  0999 V2000
    0.0000   -0.0000   -0.0000 F   0  0  0  0  0  0  0  0  0  0  0  0
    0.0678   -1.2202   -0.0000 C   0  0  0  0  0  0  0  0  0  0  0  0
    1.3557   -2.0336   -0.0000 C   0  0  0  0  0  0  0  0  0  0  0  0
   -1.1253   -2.1963   -0.0000 C   0  0  0  0  0  0  0  0  0  0  0  0
    2.4810   -1.5591   -0.0000 O   0  0  0  0  0  0  0  0  0  0  0  0
    0.9626   -3.5113   -0.0000 C   0  0  0  0  0  0  0  0  0  0  0  0
   -0.5558   -3.5927   -0.0000 C   0  0  0  0  0  0  0  0  0  0  0  0
   -1.3828   -4.8806   -0.0000 N   0  0  0  0  0  0  0  0  0  0  0  0
   -0.6779   -6.2364   -0.0000 C   0  0  0  0  0  0  0  0  0  0  0  0
    0.8541   -6.2770   -0.0000 N   0  0  0  0  0  0  0  0  0  0  0  0
   -1.5049   -7.5243   -0.0000 N   0  0  0  0  0  0  0  0  0  0  0  0
    1.5591   -7.6328   -0.0000 C   0  0  0  0  0  0  0  0  0  0  0  0
   -0.7999   -8.8665   -0.0000 C   0  0  0  0  0  0  0  0  0  0  0  0
    3.0911   -7.5785   -0.0000 C   0  0  0  0  0  0  0  0  0  0  0  0
    0.7321   -8.9207   -0.0000 C   0  0  0  0  0  0  0  0  0  0  0  0
    3.9723   -8.7851   -0.0000 C   0  0  0  0  0  0  0  0  0  0  0  0
    3.9045   -6.3177   -0.0000 C   0  0  0  0  0  0  0  0  0  0  0  0
    5.4229   -8.2564   -0.0000 N   0  0  0  0  0  0  0  0  0  0  0  0
    5.3551   -6.7244   -0.0000 C   0  0  0  0  0  0  0  0  0  0  0  0
    6.6295   -9.1105   -0.0000 C   0  0  0  0  0  0  0  0  0  0  0  0
    6.5211   -5.6670   -0.0000 C   0  0  0  0  0  0  0  0  0  0  0  0
    8.3377   -8.6767   -0.0000 C   0  0  0  0  0  0  0  0  0  0  0  0
    6.1957   -4.4604   -0.0000 O   0  0  0  0  0  0  0  0  0  0  0  0
    8.0124   -5.9652   -0.0000 N   0  0  0  0  0  0  0  0  0  0  0  0
    8.7038   -7.2667   -0.0000 C   0  0  0  0  0  0  0  0  0  0  0  0
    8.9343   -4.7179   -0.0000 C   0  0  0  0  0  0  0  0  0  0  0  0
   10.4527   -4.8942   -0.0000 C   0  0  0  0  0  0  0  0  0  0  0  0
    8.3242   -3.2809   -0.0000 C   0  0  0  0  0  0  0  0  0  0  0  0
   11.3746   -3.6605   -0.0000 C   0  0  0  0  0  0  0  0  0  0  0  0
   11.0357   -6.3041   -0.0000 C   0  0  0  0  0  0  0  0  0  0  0  0
    7.0905   -3.1182   -0.0000 O   0  0  0  0  0  0  0  0  0  0  0  0
   12.8930   -3.8503   -0.0000 C   0  0  0  0  0  0  0  0  0  0  0  0
   12.5541   -6.4940   -0.0000 C   0  0  0  0  0  0  0  0  0  0  0  0
   13.4760   -5.2602   -0.0000 C   0  0  0  0  0  0  0  0  0  0  0  0
  2  1  1  6  0  0  0
  2  3  1  0  0  0  0
  2  4  1  0  0  0  0
  3  5  1  1  0  0  0
  3  6  1  0  0  0  0
  4  7  1  0  0  0  0
  7  8  1  1  0  0  0
  8  9  1  0  0  0  0
  9 10  2  0  0  0  0
  9 11  1  0  0  0  0
 10 12  1  0  0  0  0
 11 13  2  0  0  0  0
 12 14  1  0  0  0  0
 12 15  2  0  0  0  0
 14 16  2  0  0  0  0
 14 17  1  0  0  0  0
 16 18  1  0  0  0  0
 17 19  2  0  0  0  0
 18 20  1  0  0  0  0
 19 21  1  0  0  0  0
 20 22  1  0  0  0  0
 21 23  2  0  0  0  0
 21 24  1  0  0  0  0
 22 25  1  0  0  0  0
 26 24  1  6  0  0  0
 26 27  1  0  0  0  0
 26 28  1  0  0  0  0
 27 29  2  0  0  0  0
 27 30  1  0  0  0  0
 28 31  1  0  0  0  0
 29 32  1  0  0  0  0
 30 33  2  0  0  0  0
 32 34  2  0  0  0  0
  6  7  1  0  0  0  0
 13 15  1  0  0  0  0
 18 19  1  0  0  0  0
 24 25  1  0  0  0  0
 33 34  1  0  0  0  0
M  END
>  <MolRegNo>
1959312

>  <m>
=

>  <Value>
38800

>  <Unit>
nM

>  <Type>
IC50

>  <pValue>
4.41

>  <Ligand Efficiency>
0

>  <Binding Efficiency>
0

>  <Surface Efficiency>
0

>  <Assay Index>
959254

>  <Assay Category>


>  <Assay Organism>
Homo sapiens

>  <Target ID>
17045

>  <Target Name>
Cytochrome P450 3A4

>  <Target Organism>
Homo sapiens

>  <Target Description>
Target is a single protein chain

>  <Sequence Accession>
P08684

>  <Reference>
Bioorg Med Chem Lett 25 (18), 3788-3792 (2015)

>  <Pubmed ID>
26259804

>  <DOI>
10.1016/j.bmcl.2015.07.091

$$$$
1964332
Actelion Java MolfileCreator 1.0

 27 29  0  0  0  0  0  0  0  0999 V2000
    0.0000   -0.0000   -0.0000 Cl  0  0  0  0  0  0  0  0  0  0  0  0
   -0.2696   -1.2011   -0.0000 C   0  0  0  0  0  0  0  0  0  0  0  0
   -1.6913   -1.8262   -0.0000 N   0  0  0  0  0  0  0  0  0  0  0  0
    0.7599   -2.3532   -0.0000 C   0  0  0  0  0  0  0  0  0  0  0  0
   -1.5688   -3.3459   -0.0000 N   0  0  0  0  0  0  0  0  0  0  0  0
   -3.0518   -1.0295   -0.0000 C   0  0  0  0  0  0  0  0  0  0  0  0
   -0.0368   -3.6891   -0.0000 C   0  0  0  0  0  0  0  0  0  0  0  0
    2.2919   -2.1816   -0.0000 C   0  0  0  0  0  0  0  0  0  0  0  0
   -3.0640    0.5393   -0.0000 C   0  0  0  0  0  0  0  0  0  0  0  0
   -4.4122   -1.8017   -0.0000 C   0  0  0  0  0  0  0  0  0  0  0  0
    0.4535   -4.8167   -0.0000 C   0  0  0  0  0  0  0  0  0  0  0  0
    2.7944   -1.0295   -0.0000 O   0  0  0  0  0  0  0  0  0  0  0  0
    3.1866   -3.4317   -0.0000 N   0  0  0  0  0  0  0  0  0  0  0  0
   -4.4245    1.3237   -0.0000 C   0  0  0  0  0  0  0  0  0  0  0  0
   -5.7726   -1.0173   -0.0000 C   0  0  0  0  0  0  0  0  0  0  0  0
    4.7186   -3.2601   -0.0000 C   0  0  0  0  0  0  0  0  0  0  0  0
   -5.7849    0.5515   -0.0000 C   0  0  0  0  0  0  0  0  0  0  0  0
    5.3437   -1.8262   -0.0000 C   0  0  0  0  0  0  0  0  0  0  0  0
    5.6133   -4.5103   -0.0000 C   0  0  0  0  0  0  0  0  0  0  0  0
    4.6083   -0.8089   -0.0000 O   0  0  0  0  0  0  0  0  0  0  0  0
    6.8757   -1.6546   -0.0000 O   0  0  0  0  0  0  0  0  0  0  0  0
    7.1453   -4.3387   -0.0000 N   0  0  0  0  0  0  0  0  0  0  0  0
    7.3782   -0.5025   -0.0000 C   0  0  0  0  0  0  0  0  0  0  0  0
    7.8930   -2.9782   -0.0000 C   0  0  0  0  0  0  0  0  0  0  0  0
    8.1503   -5.4908   -0.0000 C   0  0  0  0  0  0  0  0  0  0  0  0
    9.4005   -3.2969   -0.0000 N   0  0  0  0  0  0  0  0  0  0  0  0
    9.5598   -4.8534   -0.0000 C   0  0  0  0  0  0  0  0  0  0  0  0
  1  2  1  0  0  0  0
  2  3  1  0  0  0  0
  2  4  2  0  0  0  0
  3  5  1  0  0  0  0
  3  6  1  0  0  0  0
  4  7  1  0  0  0  0
  4  8  1  0  0  0  0
  6  9  2  0  0  0  0
  6 10  1  0  0  0  0
  7 11  1  0  0  0  0
  8 12  2  0  0  0  0
  8 13  1  0  0  0  0
  9 14  1  0  0  0  0
 10 15  2  0  0  0  0
 13 16  1  0  0  0  0
 14 17  2  0  0  0  0
 16 18  1  0  0  0  0
 16 19  1  0  0  0  0
 18 20  2  0  0  0  0
 18 21  1  0  0  0  0
 19 22  1  0  0  0  0
 21 23  1  0  0  0  0
 22 24  1  0  0  0  0
 22 25  1  0  0  0  0
 24 26  2  0  0  0  0
 25 27  2  0  0  0  0
  5  7  2  0  0  0  0
 15 17  1  0  0  0  0
 26 27  1  0  0  0  0
M  END
>  <MolRegNo>
1964332

>  <m>
=

>  <Value>
1170

>  <Unit>
nM

>  <Type>
IC50

>  <pValue>
5.93

>  <Ligand Efficiency>
0

>  <Binding Efficiency>
0

>  <Surface Efficiency>
0

>  <Assay Index>
963193

>  <Assay Category>


>  <Assay Organism>
Homo sapiens

>  <Target ID>
17045

>  <Target Name>
Cytochrome P450 3A4

>  <Target Organism>
Homo sapiens

>  <Target Description>
Target is a single protein chain

>  <Sequence Accession>
P08684

>  <Reference>
Bioorg Med Chem 23 (20), 6763-6773 (2015)

>  <Pubmed ID>
26365710

>  <DOI>
10.1016/j.bmc.2015.08.019

$$$$
1964335
Actelion Java MolfileCreator 1.0

 29 31  0  0  0  0  0  0  0  0999 V2000
    0.0000   -0.0000   -0.0000 Cl  0  0  0  0  0  0  0  0  0  0  0  0
   -0.2708   -1.2064   -0.0000 C   0  0  0  0  0  0  0  0  0  0  0  0
   -1.6988   -1.8342   -0.0000 N   0  0  0  0  0  0  0  0  0  0  0  0
    0.7632   -2.3636   -0.0000 C   0  0  0  0  0  0  0  0  0  0  0  0
   -1.5757   -3.3607   -0.0000 N   0  0  0  0  0  0  0  0  0  0  0  0
   -3.0653   -1.0341   -0.0000 C   0  0  0  0  0  0  0  0  0  0  0  0
   -0.0369   -3.7054   -0.0000 C   0  0  0  0  0  0  0  0  0  0  0  0
    2.3020   -2.1912   -0.0000 C   0  0  0  0  0  0  0  0  0  0  0  0
   -3.0776    0.5417   -0.0000 C   0  0  0  0  0  0  0  0  0  0  0  0
   -4.4317   -1.8096   -0.0000 C   0  0  0  0  0  0  0  0  0  0  0  0
    0.4555   -4.8379   -0.0000 C   0  0  0  0  0  0  0  0  0  0  0  0
    2.8067   -1.0341   -0.0000 O   0  0  0  0  0  0  0  0  0  0  0  0
    3.2007   -3.4469   -0.0000 N   0  0  0  0  0  0  0  0  0  0  0  0
   -4.4440    1.3295   -0.0000 C   0  0  0  0  0  0  0  0  0  0  0  0
   -5.7981   -1.0218   -0.0000 C   0  0  0  0  0  0  0  0  0  0  0  0
    4.7394   -3.2745   -0.0000 C   0  0  0  0  0  0  0  0  0  0  0  0
   -5.8104    0.5540   -0.0000 C   0  0  0  0  0  0  0  0  0  0  0  0
    5.3673   -1.8342   -0.0000 C   0  0  0  0  0  0  0  0  0  0  0  0
    5.6381   -4.5302   -0.0000 C   0  0  0  0  0  0  0  0  0  0  0  0
    4.6287   -0.8125   -0.0000 O   0  0  0  0  0  0  0  0  0  0  0  0
    6.9061   -1.6619   -0.0000 O   0  0  0  0  0  0  0  0  0  0  0  0
    7.1769   -4.3578   -0.0000 N   0  0  0  0  0  0  0  0  0  0  0  0
    7.5339   -0.2216   -0.0000 C   0  0  0  0  0  0  0  0  0  0  0  0
    7.9278   -2.9914   -0.0000 C   0  0  0  0  0  0  0  0  0  0  0  0
    8.1863   -5.5150   -0.0000 C   0  0  0  0  0  0  0  0  0  0  0  0
    8.7649   -0.0862   -0.0000 C   0  0  0  0  0  0  0  0  0  0  0  0
    6.7953    0.8002   -0.0000 C   0  0  0  0  0  0  0  0  0  0  0  0
    9.4420   -3.3115   -0.0000 N   0  0  0  0  0  0  0  0  0  0  0  0
    9.6020   -4.8749   -0.0000 C   0  0  0  0  0  0  0  0  0  0  0  0
  1  2  1  0  0  0  0
  2  3  1  0  0  0  0
  2  4  2  0  0  0  0
  3  5  1  0  0  0  0
  3  6  1  0  0  0  0
  4  7  1  0  0  0  0
  4  8  1  0  0  0  0
  6  9  2  0  0  0  0
  6 10  1  0  0  0  0
  7 11  1  0  0  0  0
  8 12  2  0  0  0  0
  8 13  1  0  0  0  0
  9 14  1  0  0  0  0
 10 15  2  0  0  0  0
 13 16  1  0  0  0  0
 14 17  2  0  0  0  0
 16 18  1  0  0  0  0
 16 19  1  0  0  0  0
 18 20  2  0  0  0  0
 18 21  1  0  0  0  0
 19 22  1  0  0  0  0
 21 23  1  0  0  0  0
 22 24  1  0  0  0  0
 22 25  1  0  0  0  0
 23 26  1  0  0  0  0
 23 27  1  0  0  0  0
 24 28  2  0  0  0  0
 25 29  2  0  0  0  0
  5  7  2  0  0  0  0
 15 17  1  0  0  0  0
 28 29  1  0  0  0  0
M  END
>  <MolRegNo>
1964335

>  <m>
=

>  <Value>
4920

>  <Unit>
nM

>  <Type>
IC50

>  <pValue>
5.31

>  <Ligand Efficiency>
0

>  <Binding Efficiency>
0

>  <Surface Efficiency>
0

>  <Assay Index>
963193

>  <Assay Category>


>  <Assay Organism>
Homo sapiens

>  <Target ID>
17045

>  <Target Name>
Cytochrome P450 3A4

>  <Target Organism>
Homo sapiens

>  <Target Description>
Target is a single protein chain

>  <Sequence Accession>
P08684

>  <Reference>
Bioorg Med Chem 23 (20), 6763-6773 (2015)

>  <Pubmed ID>
26365710

>  <DOI>
10.1016/j.bmc.2015.08.019

$$$$
374553
Actelion Java MolfileCreator 1.0

 22 25  0  0  0  0  0  0  0  0999 V2000
    0.0000   -0.0000   -0.0000 Cl  0  0  0  0  0  0  0  0  0  0  0  0
    1.2548    0.8050   -0.0000 C   0  0  0  0  0  0  0  0  0  0  0  0
    1.2429    2.3202   -0.0000 C   0  0  0  0  0  0  0  0  0  0  0  0
    2.5332    0.1065   -0.0000 C   0  0  0  0  0  0  0  0  0  0  0  0
    2.5214    3.1014   -0.0000 C   0  0  0  0  0  0  0  0  0  0  0  0
    3.8354    0.8286   -0.0000 C   0  0  0  0  0  0  0  0  0  0  0  0
    3.8235    2.3438   -0.0000 C   0  0  0  0  0  0  0  0  0  0  0  0
    2.5096    4.6166   -0.0000 C   0  0  0  0  0  0  0  0  0  0  0  0
    1.2074    5.3979   -0.0000 N   0  0  0  0  0  0  0  0  0  0  0  0
    3.8117    5.3979   -0.0000 C   0  0  0  0  0  0  0  0  0  0  0  0
   -0.0118    4.4627   -0.0000 C   0  0  0  0  0  0  0  0  0  0  0  0
    0.6984    6.7829   -0.0000 C   0  0  0  0  0  0  0  0  0  0  0  0
    5.0901    4.6403   -0.0000 C   0  0  0  0  0  0  0  0  0  0  0  0
    3.7998    6.8894   -0.0000 C   0  0  0  0  0  0  0  0  0  0  0  0
   -1.2311    5.3150   -0.0000 N   0  0  0  0  0  0  0  0  0  0  0  0
   -0.7339    6.7947   -0.0000 C   0  0  0  0  0  0  0  0  0  0  0  0
    6.3568    5.4216   -0.0000 C   0  0  0  0  0  0  0  0  0  0  0  0
    5.0783    7.6944   -0.0000 C   0  0  0  0  0  0  0  0  0  0  0  0
    7.8246    4.9599   -0.0000 N   0  0  0  0  0  0  0  0  0  0  0  0
    6.3449    6.9131   -0.0000 C   0  0  0  0  0  0  0  0  0  0  0  0
    8.6532    6.1792   -0.0000 C   0  0  0  0  0  0  0  0  0  0  0  0
    7.8128    7.3866   -0.0000 N   0  0  0  0  0  0  0  0  0  0  0  0
  1  2  1  0  0  0  0
  2  3  2  0  0  0  0
  2  4  1  0  0  0  0
  3  5  1  0  0  0  0
  4  6  2  0  0  0  0
  5  7  2  0  0  0  0
  5  8  1  0  0  0  0
  8  9  1  0  0  0  0
  8 10  1  0  0  0  0
  9 11  1  0  0  0  0
  9 12  1  0  0  0  0
 10 13  2  0  0  0  0
 10 14  1  0  0  0  0
 11 15  2  0  0  0  0
 12 16  2  0  0  0  0
 13 17  1  0  0  0  0
 14 18  2  0  0  0  0
 17 19  1  0  0  0  0
 17 20  2  0  0  0  0
 19 21  2  0  0  0  0
 20 22  1  0  0  0  0
  6  7  1  0  0  0  0
 15 16  1  0  0  0  0
 18 20  1  0  0  0  0
 21 22  1  0  0  0  0
M  END
>  <MolRegNo>
374553

>  <m>
=

>  <Value>
690

>  <Unit>
nM

>  <Type>
IC50

>  <pValue>
6.16

>  <Ligand Efficiency>
0

>  <Binding Efficiency>
0

>  <Surface Efficiency>
0

>  <Assay Index>
963193

>  <Assay Category>


>  <Assay Organism>
Homo sapiens

>  <Target ID>
17045

>  <Target Name>
Cytochrome P450 3A4

>  <Target Organism>
Homo sapiens

>  <Target Description>
Target is a single protein chain

>  <Sequence Accession>
P08684

>  <Reference>
Bioorg Med Chem 23 (20), 6763-6773 (2015)

>  <Pubmed ID>
26365710

>  <DOI>
10.1016/j.bmc.2015.08.019

$$$$
1965854
Actelion Java MolfileCreator 1.0

 32 35  0  0  0  0  0  0  0  0999 V2000
    0.0000   -0.0000   -0.0000 S   0  0  0  0  0  0  0  0  0  0  0  0
    1.0557    0.6310   -0.0000 O   0  0  0  0  0  0  0  0  0  0  0  0
   -0.0121   -1.2256   -0.0000 O   0  0  0  0  0  0  0  0  0  0  0  0
   -1.3470    0.7888   -0.0000 C   0  0  0  0  0  0  0  0  0  0  0  0
    1.0557   -0.6067   -0.0000 C   0  0  0  0  0  0  0  0  0  0  0  0
   -1.3591    2.3420   -0.0000 C   0  0  0  0  0  0  0  0  0  0  0  0
   -2.6940    0.0243   -0.0000 C   0  0  0  0  0  0  0  0  0  0  0  0
   -2.7061    3.1187   -0.0000 C   0  0  0  0  0  0  0  0  0  0  0  0
   -4.0409    0.8009   -0.0000 C   0  0  0  0  0  0  0  0  0  0  0  0
   -2.7182    4.3686   -0.0000 F   0  0  0  0  0  0  0  0  0  0  0  0
   -4.0531    2.3542   -0.0000 C   0  0  0  0  0  0  0  0  0  0  0  0
   -5.4000    3.1308   -0.0000 C   0  0  0  0  0  0  0  0  0  0  0  0
   -6.7470    2.3663   -0.0000 O   0  0  0  0  0  0  0  0  0  0  0  0
   -8.0940    3.1429   -0.0000 C   0  0  0  0  0  0  0  0  0  0  0  0
   -9.4410    2.3784   -0.0000 C   0  0  0  0  0  0  0  0  0  0  0  0
  -10.9093    2.4270   -0.0000 C   0  0  0  0  0  0  0  0  0  0  0  0
  -10.1327    1.1043   -0.0000 C   0  0  0  0  0  0  0  0  0  0  0  0
  -12.2441    3.2279   -0.0000 C   0  0  0  0  0  0  0  0  0  0  0  0
  -12.8023    4.6598   -0.0000 C   0  0  0  0  0  0  0  0  0  0  0  0
  -13.2271    2.0265   -0.0000 C   0  0  0  0  0  0  0  0  0  0  0  0
  -14.3314    4.9146   -0.0000 C   0  0  0  0  0  0  0  0  0  0  0  0
  -14.7561    2.2814   -0.0000 C   0  0  0  0  0  0  0  0  0  0  0  0
  -15.3143    3.7376   -0.0000 N   0  0  0  0  0  0  0  0  0  0  0  0
  -16.8433    3.9924   -0.0000 C   0  0  0  0  0  0  0  0  0  0  0  0
  -17.4015    5.4486   -0.0000 N   0  0  0  0  0  0  0  0  0  0  0  0
  -17.8262    2.8032   -0.0000 N   0  0  0  0  0  0  0  0  0  0  0  0
  -18.9305    5.7034   -0.0000 C   0  0  0  0  0  0  0  0  0  0  0  0
  -19.3552    3.0580   -0.0000 C   0  0  0  0  0  0  0  0  0  0  0  0
  -19.9134    4.5142   -0.0000 C   0  0  0  0  0  0  0  0  0  0  0  0
  -21.4546    4.7690   -0.0000 C   0  0  0  0  0  0  0  0  0  0  0  0
  -22.4375    3.5798   -0.0000 O   0  0  0  0  0  0  0  0  0  0  0  0
  -23.6631    3.7861   -0.0000 C   0  0  0  0  0  0  0  0  0  0  0  0
  1  2  2  0  0  0  0
  1  3  2  0  0  0  0
  1  4  1  0  0  0  0
  1  5  1  0  0  0  0
  4  6  2  0  0  0  0
  4  7  1  0  0  0  0
  6  8  1  0  0  0  0
  7  9  2  0  0  0  0
  8 10  1  0  0  0  0
  8 11  2  0  0  0  0
 11 12  1  0  0  0  0
 12 13  1  0  0  0  0
 13 14  1  0  0  0  0
 15 14  1  6  0  0  0
 15 16  1  0  0  0  0
 15 17  1  0  0  0  0
 16 18  1  6  0  0  0
 18 19  1  0  0  0  0
 18 20  1  0  0  0  0
 19 21  1  0  0  0  0
 20 22  1  0  0  0  0
 21 23  1  0  0  0  0
 23 24  1  0  0  0  0
 24 25  2  0  0  0  0
 24 26  1  0  0  0  0
 25 27  1  0  0  0  0
 26 28  2  0  0  0  0
 27 29  2  0  0  0  0
 29 30  1  0  0  0  0
 30 31  1  0  0  0  0
 31 32  1  0  0  0  0
  9 11  1  0  0  0  0
 16 17  1  0  0  0  0
 22 23  1  0  0  0  0
 28 29  1  0  0  0  0
M  END
>  <MolRegNo>
1965854

>  <m>
=

>  <Value>
40000

>  <Unit>
nM

>  <Type>
IC50

>  <pValue>
4.4

>  <Ligand Efficiency>
0.19

>  <Binding Efficiency>
9.49

>  <Surface Efficiency>
5.39

>  <Assay Index>
965421

>  <Assay Category>


>  <Assay Organism>
Homo sapiens

>  <Target ID>
17045

>  <Target Name>
Cytochrome P450 3A4

>  <Target Organism>
Homo sapiens

>  <Target Description>
Target is a single protein chain

>  <Sequence Accession>
P08684

>  <Reference>
ACS Med Chem Lett 6 (8), 936-941 (2015)

>  <Pubmed ID>
26288697

>  <DOI>
10.1021/acsmedchemlett.5b00207

$$$$
1966611
Actelion Java MolfileCreator 1.0

 28 31  0  0  0  0  0  0  0  0999 V2000
    0.0000   -0.0000   -0.0000 O   0  0  0  0  0  0  0  0  0  0  0  0
   -1.1906   -0.3645   -0.0000 C   0  0  0  0  0  0  0  0  0  0  0  0
   -1.6765   -1.8223   -0.0000 C   0  0  0  0  0  0  0  0  0  0  0  0
   -2.4540    0.5588   -0.0000 C   0  0  0  0  0  0  0  0  0  0  0  0
   -3.2194   -1.7859   -0.0000 N   0  0  0  0  0  0  0  0  0  0  0  0
   -3.7175   -0.3280   -0.0000 C   0  0  0  0  0  0  0  0  0  0  0  0
   -4.1427   -3.0250   -0.0000 C   0  0  0  0  0  0  0  0  0  0  0  0
   -3.5231   -4.4221   -0.0000 C   0  0  0  0  0  0  0  0  0  0  0  0
   -4.3006   -5.7463   -0.0000 C   0  0  0  0  0  0  0  0  0  0  0  0
   -2.0288   -4.7258   -0.0000 C   0  0  0  0  0  0  0  0  0  0  0  0
   -3.2802   -6.8762   -0.0000 C   0  0  0  0  0  0  0  0  0  0  0  0
   -5.5398   -5.8678   -0.0000 C   0  0  0  0  0  0  0  0  0  0  0  0
   -1.8952   -6.2323   -0.0000 N   0  0  0  0  0  0  0  0  0  0  0  0
   -0.5710   -6.9855   -0.0000 C   0  0  0  0  0  0  0  0  0  0  0  0
    0.7532   -6.2080   -0.0000 N   0  0  0  0  0  0  0  0  0  0  0  0
   -0.5831   -8.5162   -0.0000 C   0  0  0  0  0  0  0  0  0  0  0  0
    2.0774   -6.9612   -0.0000 C   0  0  0  0  0  0  0  0  0  0  0  0
    0.7411   -9.2695   -0.0000 C   0  0  0  0  0  0  0  0  0  0  0  0
    2.0653   -8.4919   -0.0000 N   0  0  0  0  0  0  0  0  0  0  0  0
    3.4016   -6.1715   -0.0000 N   0  0  0  0  0  0  0  0  0  0  0  0
    3.3895   -4.6165   -0.0000 C   0  0  0  0  0  0  0  0  0  0  0  0
    4.7137   -3.8268   -0.0000 C   0  0  0  0  0  0  0  0  0  0  0  0
    2.0410   -3.8390   -0.0000 C   0  0  0  0  0  0  0  0  0  0  0  0
    4.7016   -2.2718   -0.0000 C   0  0  0  0  0  0  0  0  0  0  0  0
    2.0288   -2.2840   -0.0000 C   0  0  0  0  0  0  0  0  0  0  0  0
    3.3530   -1.4943   -0.0000 C   0  0  0  0  0  0  0  0  0  0  0  0
    5.7585   -1.6401   -0.0000 C   0  0  0  0  0  0  0  0  0  0  0  0
    0.9476   -1.6644   -0.0000 C   0  0  0  0  0  0  0  0  0  0  0  0
  2  1  1  6  0  0  0
  2  3  1  0  0  0  0
  2  4  1  0  0  0  0
  3  5  1  0  0  0  0
  4  6  1  0  0  0  0
  5  7  1  0  0  0  0
  7  8  1  0  0  0  0
  8  9  1  0  0  0  0
  8 10  2  0  0  0  0
  9 11  2  0  0  0  0
  9 12  1  0  0  0  0
 10 13  1  0  0  0  0
 13 14  1  0  0  0  0
 14 15  2  0  0  0  0
 14 16  1  0  0  0  0
 15 17  1  0  0  0  0
 16 18  2  0  0  0  0
 17 19  2  0  0  0  0
 17 20  1  0  0  0  0
 20 21  1  0  0  0  0
 21 22  2  0  0  0  0
 21 23  1  0  0  0  0
 22 24  1  0  0  0  0
 23 25  2  0  0  0  0
 24 26  2  0  0  0  0
 24 27  1  0  0  0  0
 25 28  1  0  0  0  0
  5  6  1  0  0  0  0
 11 13  1  0  0  0  0
 18 19  1  0  0  0  0
 25 26  1  0  0  0  0
M  END
>  <MolRegNo>
1966611

>  <m>
=

>  <Value>
5100

>  <Unit>
nM

>  <Type>
IC50

>  <pValue>
5.29

>  <Ligand Efficiency>
0

>  <Binding Efficiency>
0

>  <Surface Efficiency>
0

>  <Assay Index>
966657

>  <Assay Category>


>  <Assay Organism>
Homo sapiens

>  <Target ID>
17045

>  <Target Name>
Cytochrome P450 3A4

>  <Target Organism>
Homo sapiens

>  <Target Description>
Target is a single protein chain

>  <Sequence Accession>
P08684

>  <Reference>
Bioorg Med Chem Lett 25 (20), 4441-4446 (2015)

>  <Pubmed ID>
26384287

>  <DOI>
10.1016/j.bmcl.2015.09.011

$$$$
1965816
Actelion Java MolfileCreator 1.0

 32 37  0  0  0  0  0  0  0  0999 V2000
    0.0000   -0.0000   -0.0000 S   0  0  0  0  0  0  0  0  0  0  0  0
    1.5045    0.2355   -0.0000 C   0  0  0  0  0  0  0  0  0  0  0  0
   -0.2486   -1.5176   -0.0000 C   0  0  0  0  0  0  0  0  0  0  0  0
    2.2109   -1.1120   -0.0000 N   0  0  0  0  0  0  0  0  0  0  0  0
    2.1848    1.6353   -0.0000 N   0  0  0  0  0  0  0  0  0  0  0  0
    1.1251   -2.1979   -0.0000 C   0  0  0  0  0  0  0  0  0  0  0  0
   -1.3606   -2.0670   -0.0000 C   0  0  0  0  0  0  0  0  0  0  0  0
    1.3213    2.9436   -0.0000 C   0  0  0  0  0  0  0  0  0  0  0  0
    1.3083   -3.4015   -0.0000 C   0  0  0  0  0  0  0  0  0  0  0  0
   -0.3532    2.9305   -0.0000 N   0  0  0  0  0  0  0  0  0  0  0  0
    1.9885    4.3041   -0.0000 C   0  0  0  0  0  0  0  0  0  0  0  0
   -1.1120    4.2911   -0.0000 C   0  0  0  0  0  0  0  0  0  0  0  0
    3.4799    4.6181   -0.0000 N   0  0  0  0  0  0  0  0  0  0  0  0
    1.2952    5.6124   -0.0000 C   0  0  0  0  0  0  0  0  0  0  0  0
   -2.6558    4.6443   -0.0000 N   0  0  0  0  0  0  0  0  0  0  0  0
   -0.3271    5.6255   -0.0000 C   0  0  0  0  0  0  0  0  0  0  0  0
    3.6500    6.1357   -0.0000 C   0  0  0  0  0  0  0  0  0  0  0  0
    2.2633    6.7898   -0.0000 N   0  0  0  0  0  0  0  0  0  0  0  0
   -2.7997    6.1880   -0.0000 C   0  0  0  0  0  0  0  0  0  0  0  0
   -3.8332    3.6500   -0.0000 C   0  0  0  0  0  0  0  0  0  0  0  0
   -1.2690    6.8029   -0.0000 C   0  0  0  0  0  0  0  0  0  0  0  0
    1.9885    8.0065   -0.0000 C   0  0  0  0  0  0  0  0  0  0  0  0
   -4.1341    6.9861   -0.0000 C   0  0  0  0  0  0  0  0  0  0  0  0
   -5.0106    4.0687   -0.0000 C   0  0  0  0  0  0  0  0  0  0  0  0
   -5.2330    6.3974   -0.0000 O   0  0  0  0  0  0  0  0  0  0  0  0
   -4.1341    8.5429   -0.0000 N   0  0  0  0  0  0  0  0  0  0  0  0
   -5.4816    9.3409   -0.0000 C   0  0  0  0  0  0  0  0  0  0  0  0
   -2.7997    9.3148   -0.0000 C   0  0  0  0  0  0  0  0  0  0  0  0
   -6.1749   10.6492   -0.0000 C   0  0  0  0  0  0  0  0  0  0  0  0
   -6.9599    9.3278   -0.0000 C   0  0  0  0  0  0  0  0  0  0  0  0
   -2.1063   10.6099   -0.0000 C   0  0  0  0  0  0  0  0  0  0  0  0
   -1.3475    9.2624   -0.0000 C   0  0  0  0  0  0  0  0  0  0  0  0
  1  2  1  0  0  0  0
  1  3  1  0  0  0  0
  2  4  2  0  0  0  0
  2  5  1  0  0  0  0
  3  6  2  0  0  0  0
  3  7  1  0  0  0  0
  5  8  1  0  0  0  0
  6  9  1  0  0  0  0
  8 10  2  0  0  0  0
  8 11  1  0  0  0  0
 10 12  1  0  0  0  0
 11 13  1  0  0  0  0
 11 14  2  0  0  0  0
 12 15  1  0  0  0  0
 12 16  2  0  0  0  0
 13 17  2  0  0  0  0
 14 18  1  0  0  0  0
 15 19  1  0  0  0  0
 15 20  1  0  0  0  0
 16 21  1  0  0  0  0
 18 22  1  0  0  0  0
 19 23  1  0  0  0  0
 20 24  1  0  0  0  0
 23 25  2  0  0  0  0
 23 26  1  0  0  0  0
 26 27  1  0  0  0  0
 26 28  1  0  0  0  0
 27 29  1  0  0  0  0
 27 30  1  0  0  0  0
 28 31  1  0  0  0  0
 28 32  1  0  0  0  0
  4  6  1  0  0  0  0
 14 16  1  0  0  0  0
 17 18  1  0  0  0  0
 19 21  2  0  0  0  0
 29 30  1  0  0  0  0
 31 32  1  0  0  0  0
M  END
>  <MolRegNo>
1965816

>  <m>
=

>  <Value>
3000

>  <Unit>
nM

>  <Type>
IC50

>  <pValue>
5.52

>  <Ligand Efficiency>
0

>  <Binding Efficiency>
0

>  <Surface Efficiency>
0

>  <Assay Index>
964156

>  <Assay Category>


>  <Assay Organism>
Homo sapiens

>  <Target ID>
17045

>  <Target Name>
Cytochrome P450 3A4

>  <Target Organism>
Homo sapiens

>  <Target Description>
Target is a single protein chain

>  <Sequence Accession>
P08684

>  <Reference>
ACS Med Chem Lett 6 (8), 845-849 (2015)

>  <Pubmed ID>
26288682

>  <DOI>
10.1021/acsmedchemlett.5b00225

$$$$
1927064
Actelion Java MolfileCreator 1.0

 32 37  0  0  0  0  0  0  0  0999 V2000
    0.0000   -0.0000   -0.0000 O   0  0  0  0  0  0  0  0  0  0  0  0
   -0.0118    1.5086   -0.0000 C   0  0  0  0  0  0  0  0  0  0  0  0
    1.2729    2.2747   -0.0000 N   0  0  0  0  0  0  0  0  0  0  0  0
   -1.3200    2.2747   -0.0000 C   0  0  0  0  0  0  0  0  0  0  0  0
    2.5576    1.5322   -0.0000 C   0  0  0  0  0  0  0  0  0  0  0  0
    1.2611    3.7833   -0.0000 C   0  0  0  0  0  0  0  0  0  0  0  0
   -2.7108    1.6736   -0.0000 N   0  0  0  0  0  0  0  0  0  0  0  0
   -1.4968    3.7715   -0.0000 C   0  0  0  0  0  0  0  0  0  0  0  0
    3.2883    0.2475   -0.0000 C   0  0  0  0  0  0  0  0  0  0  0  0
    4.0426    1.5440   -0.0000 C   0  0  0  0  0  0  0  0  0  0  0  0
    1.9918    5.0916   -0.0000 C   0  0  0  0  0  0  0  0  0  0  0  0
    0.4950    5.0916   -0.0000 C   0  0  0  0  0  0  0  0  0  0  0  0
   -3.7244    2.7933   -0.0000 C   0  0  0  0  0  0  0  0  0  0  0  0
   -3.0290    0.2239   -0.0000 C   0  0  0  0  0  0  0  0  0  0  0  0
   -2.9701    4.0898   -0.0000 C   0  0  0  0  0  0  0  0  0  0  0  0
   -5.2330    2.8051   -0.0000 N   0  0  0  0  0  0  0  0  0  0  0  0
   -1.9329   -0.7661   -0.0000 C   0  0  0  0  0  0  0  0  0  0  0  0
   -3.7244    5.4098   -0.0000 C   0  0  0  0  0  0  0  0  0  0  0  0
   -5.9991    4.1133   -0.0000 C   0  0  0  0  0  0  0  0  0  0  0  0
   -3.2765    6.8359   -0.0000 N   0  0  0  0  0  0  0  0  0  0  0  0
   -5.2330    5.4216   -0.0000 C   0  0  0  0  0  0  0  0  0  0  0  0
   -7.5077    4.1251   -0.0000 N   0  0  0  0  0  0  0  0  0  0  0  0
   -4.5023    7.7317   -0.0000 C   0  0  0  0  0  0  0  0  0  0  0  0
   -1.8740    7.3074   -0.0000 C   0  0  0  0  0  0  0  0  0  0  0  0
   -5.7045    6.8477   -0.0000 N   0  0  0  0  0  0  0  0  0  0  0  0
   -8.2738    2.8404   -0.0000 C   0  0  0  0  0  0  0  0  0  0  0  0
   -9.7707    2.6990   -0.0000 N   0  0  0  0  0  0  0  0  0  0  0  0
   -7.6727    1.4968   -0.0000 C   0  0  0  0  0  0  0  0  0  0  0  0
  -10.0889    1.2493   -0.0000 N   0  0  0  0  0  0  0  0  0  0  0  0
   -8.7924    0.5068   -0.0000 C   0  0  0  0  0  0  0  0  0  0  0  0
  -11.4796    0.6600   -0.0000 C   0  0  0  0  0  0  0  0  0  0  0  0
   -8.6510   -0.9782   -0.0000 C   0  0  0  0  0  0  0  0  0  0  0  0
  1  2  2  0  0  0  0
  2  3  1  0  0  0  0
  2  4  1  0  0  0  0
  3  5  1  0  0  0  0
  3  6  1  0  0  0  0
  4  7  1  0  0  0  0
  4  8  2  0  0  0  0
  5  9  1  0  0  0  0
  5 10  1  0  0  0  0
  6 11  1  0  0  0  0
  6 12  1  0  0  0  0
  7 13  1  0  0  0  0
  7 14  1  0  0  0  0
  8 15  1  0  0  0  0
 13 16  1  0  0  0  0
 14 17  1  0  0  0  0
 15 18  1  0  0  0  0
 16 19  2  0  0  0  0
 18 20  1  0  0  0  0
 18 21  2  0  0  0  0
 19 22  1  0  0  0  0
 20 23  1  0  0  0  0
 20 24  1  0  0  0  0
 21 25  1  0  0  0  0
 22 26  1  0  0  0  0
 26 27  2  0  0  0  0
 26 28  1  0  0  0  0
 27 29  1  0  0  0  0
 28 30  2  0  0  0  0
 29 31  1  0  0  0  0
 30 32  1  0  0  0  0
  9 10  1  0  0  0  0
 11 12  1  0  0  0  0
 13 15  2  0  0  0  0
 19 21  1  0  0  0  0
 23 25  2  0  0  0  0
 29 30  1  0  0  0  0
M  END
>  <MolRegNo>
1927064

>  <m>
=

>  <Value>
3000

>  <Unit>
nM

>  <Type>
IC50

>  <pValue>
5.52

>  <Ligand Efficiency>
0

>  <Binding Efficiency>
0

>  <Surface Efficiency>
0

>  <Assay Index>
964453

>  <Assay Category>


>  <Assay Organism>
Homo sapiens

>  <Target ID>
17045

>  <Target Name>
Cytochrome P450 3A4

>  <Target Organism>
Homo sapiens

>  <Target Description>
Target is a single protein chain

>  <Sequence Accession>
P08684

>  <Reference>
ACS Med Chem Lett 6 (8), 850-855 (2015)

>  <Pubmed ID>
26288683

>  <DOI>
10.1021/acsmedchemlett.5b00226

$$$$
1966116
Actelion Java MolfileCreator 1.0

 25 29  0  0  0  0  0  0  0  0999 V2000
    0.0000   -0.0000   -0.0000 N   0  0  0  0  0  0  0  0  0  0  0  0
    1.2804    0.7706   -0.0000 C   0  0  0  0  0  0  0  0  0  0  0  0
    0.0000   -1.4938   -0.0000 C   0  0  0  0  0  0  0  0  0  0  0  0
    2.5727    0.0356   -0.0000 C   0  0  0  0  0  0  0  0  0  0  0  0
    1.2923   -2.2288   -0.0000 C   0  0  0  0  0  0  0  0  0  0  0  0
    3.8412    0.8180   -0.0000 C   0  0  0  0  0  0  0  0  0  0  0  0
    2.5727   -1.4464   -0.0000 C   0  0  0  0  0  0  0  0  0  0  0  0
    5.1572    0.1304   -0.0000 C   0  0  0  0  0  0  0  0  0  0  0  0
    3.8293    2.3355   -0.0000 C   0  0  0  0  0  0  0  0  0  0  0  0
    6.4257    0.8417   -0.0000 C   0  0  0  0  0  0  0  0  0  0  0  0
    5.1453    3.1062   -0.0000 C   0  0  0  0  0  0  0  0  0  0  0  0
    6.4138    2.3593   -0.0000 C   0  0  0  0  0  0  0  0  0  0  0  0
    7.7180    0.1541   -0.0000 C   0  0  0  0  0  0  0  0  0  0  0  0
    7.7061    3.1299   -0.0000 N   0  0  0  0  0  0  0  0  0  0  0  0
    9.0102    0.8655   -0.0000 C   0  0  0  0  0  0  0  0  0  0  0  0
    8.0025    4.6118   -0.0000 C   0  0  0  0  0  0  0  0  0  0  0  0
    8.9984    2.3830   -0.0000 C   0  0  0  0  0  0  0  0  0  0  0  0
    9.4963    4.7896   -0.0000 N   0  0  0  0  0  0  0  0  0  0  0  0
    6.9829    5.7381   -0.0000 C   0  0  0  0  0  0  0  0  0  0  0  0
   10.1246    3.4025   -0.0000 N   0  0  0  0  0  0  0  0  0  0  0  0
    5.4891    5.5484   -0.0000 C   0  0  0  0  0  0  0  0  0  0  0  0
    7.5401    7.1370   -0.0000 C   0  0  0  0  0  0  0  0  0  0  0  0
    4.5525    6.7458   -0.0000 C   0  0  0  0  0  0  0  0  0  0  0  0
    6.6035    8.3344   -0.0000 C   0  0  0  0  0  0  0  0  0  0  0  0
    5.1097    8.1448   -0.0000 C   0  0  0  0  0  0  0  0  0  0  0  0
  1  2  2  0  0  0  0
  1  3  1  0  0  0  0
  2  4  1  0  0  0  0
  3  5  2  0  0  0  0
  4  6  1  0  0  0  0
  4  7  2  0  0  0  0
  6  8  2  0  0  0  0
  6  9  1  0  0  0  0
  8 10  1  0  0  0  0
  9 11  2  0  0  0  0
 10 12  2  0  0  0  0
 10 13  1  0  0  0  0
 12 14  1  0  0  0  0
 13 15  1  0  0  0  0
 14 16  1  0  0  0  0
 14 17  1  0  0  0  0
 16 18  2  0  0  0  0
 16 19  1  0  0  0  0
 17 20  2  0  0  0  0
 19 21  2  0  0  0  0
 19 22  1  0  0  0  0
 21 23  1  0  0  0  0
 22 24  2  0  0  0  0
 23 25  2  0  0  0  0
  5  7  1  0  0  0  0
 11 12  1  0  0  0  0
 15 17  1  0  0  0  0
 18 20  1  0  0  0  0
 24 25  1  0  0  0  0
M  END
>  <MolRegNo>
1966116

>  <m>
=

>  <Value>
36510

>  <Unit>
nM

>  <Type>
IC50

>  <pValue>
4.44

>  <Ligand Efficiency>
0

>  <Binding Efficiency>
0

>  <Surface Efficiency>
0

>  <Assay Index>
964747

>  <Assay Category>


>  <Assay Organism>
Homo sapiens

>  <Target ID>
17045

>  <Target Name>
Cytochrome P450 3A4

>  <Target Organism>
Homo sapiens

>  <Target Description>
Target is a single protein chain

>  <Sequence Accession>
P08684

>  <Reference>
ACS Med Chem Lett 6 (8), 861-865 (2015)

>  <Pubmed ID>
26288685

>  <DOI>
10.1021/acsmedchemlett.5b00048

$$$$
1967842
Actelion Java MolfileCreator 1.0

 38 42  0  0  0  0  0  0  0  0999 V2000
    0.0000   -0.0000   -0.0000 Cl  0  0  0  0  0  0  0  0  0  0  0  0
    0.6246   -1.0532   -0.0000 C   0  0  0  0  0  0  0  0  0  0  0  0
   -0.1470   -2.4004   -0.0000 C   0  0  0  0  0  0  0  0  0  0  0  0
    2.1677   -1.0288   -0.0000 C   0  0  0  0  0  0  0  0  0  0  0  0
    0.6368   -3.7231   -0.0000 C   0  0  0  0  0  0  0  0  0  0  0  0
   -1.7146   -2.4127   -0.0000 C   0  0  0  0  0  0  0  0  0  0  0  0
    2.9515   -2.3514   -0.0000 C   0  0  0  0  0  0  0  0  0  0  0  0
    0.0122   -4.8008   -0.0000 Cl  0  0  0  0  0  0  0  0  0  0  0  0
    2.1800   -3.6986   -0.0000 C   0  0  0  0  0  0  0  0  0  0  0  0
   -2.3637   -1.3349   -0.0000 O   0  0  0  0  0  0  0  0  0  0  0  0
   -2.4862   -3.7598   -0.0000 N   0  0  0  0  0  0  0  0  0  0  0  0
    4.4947   -2.3269   -0.0000 N   0  0  0  0  0  0  0  0  0  0  0  0
   -4.0538   -3.7721   -0.0000 C   0  0  0  0  0  0  0  0  0  0  0  0
    5.3887   -3.5639   -0.0000 N   0  0  0  0  0  0  0  0  0  0  0  0
    5.3642   -1.0532   -0.0000 C   0  0  0  0  0  0  0  0  0  0  0  0
   -4.8253   -5.1193   -0.0000 C   0  0  0  0  0  0  0  0  0  0  0  0
    6.8461   -3.0618   -0.0000 C   0  0  0  0  0  0  0  0  0  0  0  0
    6.8339   -1.5064   -0.0000 N   0  0  0  0  0  0  0  0  0  0  0  0
   -4.0415   -6.4419   -0.0000 C   0  0  0  0  0  0  0  0  0  0  0  0
   -6.3930   -5.1315   -0.0000 C   0  0  0  0  0  0  0  0  0  0  0  0
    7.8504   -3.7721   -0.0000 C   0  0  0  0  0  0  0  0  0  0  0  0
   -4.8131   -7.7891   -0.0000 C   0  0  0  0  0  0  0  0  0  0  0  0
   -2.4984   -6.4175   -0.0000 C   0  0  0  0  0  0  0  0  0  0  0  0
   -7.3115   -3.8946   -0.0000 N   0  0  0  0  0  0  0  0  0  0  0  0
   -7.3115   -6.3807   -0.0000 N   0  0  0  0  0  0  0  0  0  0  0  0
   -4.0293   -9.1118   -0.0000 C   0  0  0  0  0  0  0  0  0  0  0  0
   -1.7146   -7.7401   -0.0000 C   0  0  0  0  0  0  0  0  0  0  0  0
   -8.7934   -4.3599   -0.0000 C   0  0  0  0  0  0  0  0  0  0  0  0
   -8.7934   -5.8908   -0.0000 C   0  0  0  0  0  0  0  0  0  0  0  0
   -4.6539  -10.1895   -0.0000 F   0  0  0  0  0  0  0  0  0  0  0  0
   -2.4862   -9.0873   -0.0000 C   0  0  0  0  0  0  0  0  0  0  0  0
  -10.1528   -3.5516   -0.0000 C   0  0  0  0  0  0  0  0  0  0  0  0
  -10.1528   -6.6746   -0.0000 C   0  0  0  0  0  0  0  0  0  0  0  0
  -11.5245   -4.3355   -0.0000 C   0  0  0  0  0  0  0  0  0  0  0  0
  -11.5245   -5.8663   -0.0000 C   0  0  0  0  0  0  0  0  0  0  0  0
  -12.8839   -3.5516   -0.0000 O   0  0  0  0  0  0  0  0  0  0  0  0
  -12.6145   -6.4787   -0.0000 Cl  0  0  0  0  0  0  0  0  0  0  0  0
  -12.9084   -2.2902   -0.0000 C   0  0  0  0  0  0  0  0  0  0  0  0
  1  2  1  0  0  0  0
  2  3  2  0  0  0  0
  2  4  1  0  0  0  0
  3  5  1  0  0  0  0
  3  6  1  0  0  0  0
  4  7  2  0  0  0  0
  5  8  1  0  0  0  0
  5  9  2  0  0  0  0
  6 10  2  0  0  0  0
  6 11  1  0  0  0  0
  7 12  1  0  0  0  0
 11 13  1  0  0  0  0
 12 14  1  0  0  0  0
 12 15  1  0  0  0  0
 16 13  1  6  0  0  0
 14 17  2  0  0  0  0
 15 18  2  0  0  0  0
 16 19  1  0  0  0  0
 16 20  1  0  0  0  0
 17 21  1  0  0  0  0
 19 22  2  0  0  0  0
 19 23  1  0  0  0  0
 20 24  2  0  0  0  0
 20 25  1  0  0  0  0
 22 26  1  0  0  0  0
 23 27  2  0  0  0  0
 24 28  1  0  0  0  0
 25 29  1  0  0  0  0
 26 30  1  0  0  0  0
 26 31  2  0  0  0  0
 28 32  1  0  0  0  0
 29 33  1  0  0  0  0
 32 34  2  0  0  0  0
 33 35  2  0  0  0  0
 34 36  1  0  0  0  0
 35 37  1  0  0  0  0
 36 38  1  0  0  0  0
  7  9  1  0  0  0  0
 17 18  1  0  0  0  0
 27 31  1  0  0  0  0
 28 29  2  0  0  0  0
 34 35  1  0  0  0  0
M  END
>  <MolRegNo>
1967842

>  <m>
=

>  <Value>
33260

>  <Unit>
nM

>  <Type>
IC50

>  <pValue>
4.48

>  <Ligand Efficiency>
0

>  <Binding Efficiency>
0

>  <Surface Efficiency>
0

>  <Assay Index>
968285

>  <Assay Category>


>  <Assay Organism>
Homo sapiens

>  <Target ID>
17045

>  <Target Name>
Cytochrome P450 3A4

>  <Target Organism>
Homo sapiens

>  <Target Description>
Target is a single protein chain

>  <Sequence Accession>
P08684

>  <Reference>
Bioorg Med Chem Lett 25 (21), 4945-4949 (2015)

>  <Pubmed ID>
25978966

>  <DOI>
10.1016/j.bmcl.2015.04.057

$$$$
602747
Actelion Java MolfileCreator 1.0

 43 47  0  0  0  0  0  0  0  0999 V2000
    0.0000   -0.0000   -0.0000 F   0  0  0  0  0  0  0  0  0  0  0  0
    0.7211   -0.9900   -0.0000 C   0  0  0  0  0  0  0  0  0  0  0  0
    2.2488   -0.8189   -0.0000 C   0  0  0  0  0  0  0  0  0  0  0  0
    0.0856   -2.3955   -0.0000 C   0  0  0  0  0  0  0  0  0  0  0  0
    2.8721    0.6111   -0.0000 O   0  0  0  0  0  0  0  0  0  0  0  0
    3.1532   -2.0655   -0.0000 C   0  0  0  0  0  0  0  0  0  0  0  0
   -1.1611   -2.5177   -0.0000 F   0  0  0  0  0  0  0  0  0  0  0  0
    0.9900   -3.6421   -0.0000 C   0  0  0  0  0  0  0  0  0  0  0  0
    4.3998    0.7822   -0.0000 C   0  0  0  0  0  0  0  0  0  0  0  0
    4.3754   -1.9188   -0.0000 F   0  0  0  0  0  0  0  0  0  0  0  0
    2.5177   -3.4710   -0.0000 C   0  0  0  0  0  0  0  0  0  0  0  0
    5.0231    2.2121   -0.0000 C   0  0  0  0  0  0  0  0  0  0  0  0
    3.2388   -4.4609   -0.0000 F   0  0  0  0  0  0  0  0  0  0  0  0
    4.2776    3.2265   -0.0000 O   0  0  0  0  0  0  0  0  0  0  0  0
    6.5509    2.3832   -0.0000 C   0  0  0  0  0  0  0  0  0  0  0  0
    7.1742    3.8132   -0.0000 N   0  0  0  0  0  0  0  0  0  0  0  0
    7.4430    1.1366   -0.0000 C   0  0  0  0  0  0  0  0  0  0  0  0
    6.3798    5.1698   -0.0000 N   0  0  0  0  0  0  0  0  0  0  0  0
    8.6774    4.1554   -0.0000 C   0  0  0  0  0  0  0  0  0  0  0  0
    6.7953   -0.2689   -0.0000 C   0  0  0  0  0  0  0  0  0  0  0  0
    7.4064    6.3309   -0.0000 N   0  0  0  0  0  0  0  0  0  0  0  0
    8.8119    5.6953   -0.0000 C   0  0  0  0  0  0  0  0  0  0  0  0
    7.6875   -1.5155   -0.0000 C   0  0  0  0  0  0  0  0  0  0  0  0
   10.1441    6.4898   -0.0000 C   0  0  0  0  0  0  0  0  0  0  0  0
    7.1742   -2.6399   -0.0000 C   0  0  0  0  0  0  0  0  0  0  0  0
   11.4762    5.7320   -0.0000 N   0  0  0  0  0  0  0  0  0  0  0  0
   10.1318    8.0541   -0.0000 C   0  0  0  0  0  0  0  0  0  0  0  0
   10.1318    5.2554   -0.0000 C   0  0  0  0  0  0  0  0  0  0  0  0
   12.8084    6.5264   -0.0000 C   0  0  0  0  0  0  0  0  0  0  0  0
    8.8608    8.9585   -0.0000 C   0  0  0  0  0  0  0  0  0  0  0  0
   11.3785    8.9585   -0.0000 C   0  0  0  0  0  0  0  0  0  0  0  0
   14.1406    5.7687   -0.0000 C   0  0  0  0  0  0  0  0  0  0  0  0
    9.3252   10.4496   -0.0000 C   0  0  0  0  0  0  0  0  0  0  0  0
   10.8896   10.4496   -0.0000 C   0  0  0  0  0  0  0  0  0  0  0  0
   15.4850    6.5509   -0.0000 C   0  0  0  0  0  0  0  0  0  0  0  0
   14.1283    4.2287   -0.0000 C   0  0  0  0  0  0  0  0  0  0  0  0
   16.8171    5.7931   -0.0000 C   0  0  0  0  0  0  0  0  0  0  0  0
   15.4727    3.4710   -0.0000 C   0  0  0  0  0  0  0  0  0  0  0  0
   16.8049    4.2532   -0.0000 C   0  0  0  0  0  0  0  0  0  0  0  0
   18.1493    6.5753   -0.0000 C   0  0  0  0  0  0  0  0  0  0  0  0
   18.1371    3.4954   -0.0000 N   0  0  0  0  0  0  0  0  0  0  0  0
   19.4815    5.8176   -0.0000 C   0  0  0  0  0  0  0  0  0  0  0  0
   19.4693    4.2776   -0.0000 C   0  0  0  0  0  0  0  0  0  0  0  0
  1  2  1  0  0  0  0
  2  3  2  0  0  0  0
  2  4  1  0  0  0  0
  3  5  1  0  0  0  0
  3  6  1  0  0  0  0
  4  7  1  0  0  0  0
  4  8  2  0  0  0  0
  5  9  1  0  0  0  0
  6 10  1  0  0  0  0
  6 11  2  0  0  0  0
  9 12  1  0  0  0  0
 11 13  1  0  0  0  0
 12 14  2  0  0  0  0
 12 15  1  0  0  0  0
 15 16  1  0  0  0  0
 15 17  1  0  0  0  0
 16 18  1  0  0  0  0
 16 19  1  0  0  0  0
 17 20  1  0  0  0  0
 18 21  2  0  0  0  0
 19 22  2  0  0  0  0
 20 23  1  0  0  0  0
 22 24  1  0  0  0  0
 23 25  1  0  0  0  0
 24 26  1  0  0  0  0
 24 27  1  0  0  0  0
 24 28  1  1  0  0  0
 26 29  1  0  0  0  0
 27 30  1  0  0  0  0
 27 31  1  0  0  0  0
 29 32  1  0  0  0  0
 30 33  1  0  0  0  0
 31 34  1  0  0  0  0
 32 35  2  0  0  0  0
 32 36  1  0  0  0  0
 35 37  1  0  0  0  0
 36 38  2  0  0  0  0
 37 39  1  0  0  0  0
 37 40  2  0  0  0  0
 39 41  2  0  0  0  0
 40 42  1  0  0  0  0
 41 43  1  0  0  0  0
  8 11  1  0  0  0  0
 21 22  1  0  0  0  0
 33 34  1  0  0  0  0
 38 39  1  0  0  0  0
 42 43  2  0  0  0  0
M  END
>  <MolRegNo>
602747

>  <m>
=

>  <Value>
260

>  <Unit>
nM

>  <Type>
IC50

>  <pValue>
6.58

>  <Ligand Efficiency>
0

>  <Binding Efficiency>
0

>  <Surface Efficiency>
0

>  <Assay Index>
968613

>  <Assay Category>


>  <Assay Organism>
Homo sapiens

>  <Target ID>
17045

>  <Target Name>
Cytochrome P450 3A4

>  <Target Organism>
Homo sapiens

>  <Target Description>
Target is a single protein chain

>  <Sequence Accession>
P08684

>  <Reference>
Bioorg Med Chem Lett 25 (21), 4834-4837 (2015)

>  <Pubmed ID>
26144347

>  <DOI>
10.1016/j.bmcl.2015.06.066

$$$$
1968546
Actelion Java MolfileCreator 1.0

 43 46  0  0  0  0  0  0  0  0999 V2000
    0.0000   -0.0000   -0.0000 S   0  0  0  0  0  0  0  0  0  0  0  0
   -0.7605    1.0348   -0.0000 O   0  0  0  0  0  0  0  0  0  0  0  0
    1.2468    0.1496   -0.0000 O   0  0  0  0  0  0  0  0  0  0  0  0
   -0.6483   -1.4338   -0.0000 C   0  0  0  0  0  0  0  0  0  0  0  0
    0.4987    1.1720   -0.0000 C   0  0  0  0  0  0  0  0  0  0  0  0
    0.2743   -2.7055   -0.0000 C   0  0  0  0  0  0  0  0  0  0  0  0
   -0.3740   -4.1393   -0.0000 C   0  0  0  0  0  0  0  0  0  0  0  0
    0.5486   -5.4110   -0.0000 N   0  0  0  0  0  0  0  0  0  0  0  0
   -1.9574   -4.2889   -0.0000 C   0  0  0  0  0  0  0  0  0  0  0  0
    2.1195   -5.3985   -0.0000 N   0  0  0  0  0  0  0  0  0  0  0  0
    0.0499   -6.9071   -0.0000 C   0  0  0  0  0  0  0  0  0  0  0  0
   -2.4811   -5.4359   -0.0000 O   0  0  0  0  0  0  0  0  0  0  0  0
   -2.9050   -2.9922   -0.0000 C   0  0  0  0  0  0  0  0  0  0  0  0
    2.5933   -6.8946   -0.0000 N   0  0  0  0  0  0  0  0  0  0  0  0
    1.3216   -7.8048   -0.0000 C   0  0  0  0  0  0  0  0  0  0  0  0
   -4.4884   -3.1419   -0.0000 O   0  0  0  0  0  0  0  0  0  0  0  0
    1.3091   -9.3757   -0.0000 C   0  0  0  0  0  0  0  0  0  0  0  0
   -5.4359   -1.8452   -0.0000 C   0  0  0  0  0  0  0  0  0  0  0  0
    2.6681  -10.1611   -0.0000 N   0  0  0  0  0  0  0  0  0  0  0  0
    2.6930   -8.5528   -0.0000 C   0  0  0  0  0  0  0  0  0  0  0  0
    0.1995   -9.9991   -0.0000 C   0  0  0  0  0  0  0  0  0  0  0  0
   -7.0193   -1.9948   -0.0000 C   0  0  0  0  0  0  0  0  0  0  0  0
   -4.8001   -0.3865   -0.0000 C   0  0  0  0  0  0  0  0  0  0  0  0
    2.6556  -11.7321   -0.0000 C   0  0  0  0  0  0  0  0  0  0  0  0
    2.6805   -7.4806   -0.0000 C   0  0  0  0  0  0  0  0  0  0  0  0
    3.7777   -9.1762   -0.0000 C   0  0  0  0  0  0  0  0  0  0  0  0
   -7.5429   -3.1419   -0.0000 F   0  0  0  0  0  0  0  0  0  0  0  0
   -7.9544   -0.6982   -0.0000 C   0  0  0  0  0  0  0  0  0  0  0  0
   -3.5533   -0.2494   -0.0000 F   0  0  0  0  0  0  0  0  0  0  0  0
   -5.7351    0.9101   -0.0000 C   0  0  0  0  0  0  0  0  0  0  0  0
    4.0146  -12.5175   -0.0000 C   0  0  0  0  0  0  0  0  0  0  0  0
   -9.2261   -0.8104   -0.0000 F   0  0  0  0  0  0  0  0  0  0  0  0
   -7.3185    0.7605   -0.0000 C   0  0  0  0  0  0  0  0  0  0  0  0
   -5.2364    2.0821   -0.0000 F   0  0  0  0  0  0  0  0  0  0  0  0
    5.3860  -11.7196   -0.0000 C   0  0  0  0  0  0  0  0  0  0  0  0
    4.0021  -14.0885   -0.0000 C   0  0  0  0  0  0  0  0  0  0  0  0
    6.7450  -12.4926   -0.0000 C   0  0  0  0  0  0  0  0  0  0  0  0
    5.3736  -14.8615   -0.0000 C   0  0  0  0  0  0  0  0  0  0  0  0
    6.7325  -14.0635   -0.0000 C   0  0  0  0  0  0  0  0  0  0  0  0
    8.1040  -11.6947   -0.0000 C   0  0  0  0  0  0  0  0  0  0  0  0
    8.0915  -14.8365   -0.0000 N   0  0  0  0  0  0  0  0  0  0  0  0
    9.4630  -12.4677   -0.0000 C   0  0  0  0  0  0  0  0  0  0  0  0
    9.4505  -14.0386   -0.0000 C   0  0  0  0  0  0  0  0  0  0  0  0
  1  2  2  0  0  0  0
  1  3  2  0  0  0  0
  1  4  1  0  0  0  0
  1  5  1  0  0  0  0
  4  6  1  0  0  0  0
  6  7  1  0  0  0  0
  7  8  1  0  0  0  0
  7  9  1  0  0  0  0
  8 10  1  0  0  0  0
  8 11  1  0  0  0  0
  9 12  2  0  0  0  0
  9 13  1  0  0  0  0
 10 14  2  0  0  0  0
 11 15  2  0  0  0  0
 13 16  1  0  0  0  0
 15 17  1  0  0  0  0
 16 18  1  0  0  0  0
 17 19  1  0  0  0  0
 17 20  1  1  0  0  0
 17 21  1  0  0  0  0
 18 22  2  0  0  0  0
 18 23  1  0  0  0  0
 19 24  1  0  0  0  0
 20 25  1  0  0  0  0
 20 26  1  0  0  0  0
 22 27  1  0  0  0  0
 22 28  1  0  0  0  0
 23 29  1  0  0  0  0
 23 30  2  0  0  0  0
 24 31  1  0  0  0  0
 28 32  1  0  0  0  0
 28 33  2  0  0  0  0
 30 34  1  0  0  0  0
 31 35  2  0  0  0  0
 31 36  1  0  0  0  0
 35 37  1  0  0  0  0
 36 38  2  0  0  0  0
 37 39  1  0  0  0  0
 37 40  2  0  0  0  0
 39 41  2  0  0  0  0
 40 42  1  0  0  0  0
 41 43  1  0  0  0  0
 14 15  1  0  0  0  0
 30 33  1  0  0  0  0
 38 39  1  0  0  0  0
 42 43  2  0  0  0  0
M  END
>  <MolRegNo>
1968546

>  <m>
=

>  <Value>
1200

>  <Unit>
nM

>  <Type>
IC50

>  <pValue>
5.92

>  <Ligand Efficiency>
0

>  <Binding Efficiency>
0

>  <Surface Efficiency>
0

>  <Assay Index>
968613

>  <Assay Category>


>  <Assay Organism>
Homo sapiens

>  <Target ID>
17045

>  <Target Name>
Cytochrome P450 3A4

>  <Target Organism>
Homo sapiens

>  <Target Description>
Target is a single protein chain

>  <Sequence Accession>
P08684

>  <Reference>
Bioorg Med Chem Lett 25 (21), 4834-4837 (2015)

>  <Pubmed ID>
26144347

>  <DOI>
10.1016/j.bmcl.2015.06.066

$$$$
602608
Actelion Java MolfileCreator 1.0

 41 44  0  0  0  0  0  0  0  0999 V2000
    0.0000   -0.0000   -0.0000 F   0  0  0  0  0  0  0  0  0  0  0  0
    0.7298   -1.0020   -0.0000 C   0  0  0  0  0  0  0  0  0  0  0  0
    2.2761   -0.8288   -0.0000 C   0  0  0  0  0  0  0  0  0  0  0  0
    0.0866   -2.4246   -0.0000 C   0  0  0  0  0  0  0  0  0  0  0  0
    2.9070    0.6185   -0.0000 O   0  0  0  0  0  0  0  0  0  0  0  0
    3.1915   -2.0906   -0.0000 C   0  0  0  0  0  0  0  0  0  0  0  0
   -1.1752   -2.5483   -0.0000 F   0  0  0  0  0  0  0  0  0  0  0  0
    1.0020   -3.6863   -0.0000 C   0  0  0  0  0  0  0  0  0  0  0  0
    4.4533    0.7917   -0.0000 C   0  0  0  0  0  0  0  0  0  0  0  0
    4.4286   -1.9421   -0.0000 F   0  0  0  0  0  0  0  0  0  0  0  0
    2.5483   -3.5132   -0.0000 C   0  0  0  0  0  0  0  0  0  0  0  0
    5.0842    2.2390   -0.0000 C   0  0  0  0  0  0  0  0  0  0  0  0
    3.2781   -4.5152   -0.0000 F   0  0  0  0  0  0  0  0  0  0  0  0
    4.3296    3.2658   -0.0000 O   0  0  0  0  0  0  0  0  0  0  0  0
    6.6305    2.4122   -0.0000 C   0  0  0  0  0  0  0  0  0  0  0  0
    7.2614    3.8595   -0.0000 N   0  0  0  0  0  0  0  0  0  0  0  0
    7.5335    1.1504   -0.0000 C   0  0  0  0  0  0  0  0  0  0  0  0
    6.4573    5.2326   -0.0000 N   0  0  0  0  0  0  0  0  0  0  0  0
    8.7829    4.2059   -0.0000 C   0  0  0  0  0  0  0  0  0  0  0  0
    6.8779   -0.2721   -0.0000 C   0  0  0  0  0  0  0  0  0  0  0  0
    7.4964    6.4078   -0.0000 N   0  0  0  0  0  0  0  0  0  0  0  0
    8.9190    5.7646   -0.0000 C   0  0  0  0  0  0  0  0  0  0  0  0
    7.7809   -1.5339   -0.0000 C   0  0  0  0  0  0  0  0  0  0  0  0
   10.2673    6.5686   -0.0000 C   0  0  0  0  0  0  0  0  0  0  0  0
    7.2614   -2.6720   -0.0000 C   0  0  0  0  0  0  0  0  0  0  0  0
   11.6157    5.8017   -0.0000 N   0  0  0  0  0  0  0  0  0  0  0  0
   10.2550    8.1520   -0.0000 C   0  0  0  0  0  0  0  0  0  0  0  0
   11.3436    7.2119   -0.0000 C   0  0  0  0  0  0  0  0  0  0  0  0
   12.9641    6.6057   -0.0000 C   0  0  0  0  0  0  0  0  0  0  0  0
    9.1540    8.7953   -0.0000 C   0  0  0  0  0  0  0  0  0  0  0  0
   11.3312    8.7953   -0.0000 C   0  0  0  0  0  0  0  0  0  0  0  0
   14.3124    5.8388   -0.0000 C   0  0  0  0  0  0  0  0  0  0  0  0
   15.6732    6.6305   -0.0000 C   0  0  0  0  0  0  0  0  0  0  0  0
   14.3001    4.2801   -0.0000 C   0  0  0  0  0  0  0  0  0  0  0  0
   17.0215    5.8635   -0.0000 C   0  0  0  0  0  0  0  0  0  0  0  0
   15.6608    3.5132   -0.0000 C   0  0  0  0  0  0  0  0  0  0  0  0
   17.0092    4.3049   -0.0000 C   0  0  0  0  0  0  0  0  0  0  0  0
   18.3699    6.6552   -0.0000 C   0  0  0  0  0  0  0  0  0  0  0  0
   18.3575    3.5379   -0.0000 N   0  0  0  0  0  0  0  0  0  0  0  0
   19.7183    5.8883   -0.0000 C   0  0  0  0  0  0  0  0  0  0  0  0
   19.7059    4.3296   -0.0000 C   0  0  0  0  0  0  0  0  0  0  0  0
  1  2  1  0  0  0  0
  2  3  2  0  0  0  0
  2  4  1  0  0  0  0
  3  5  1  0  0  0  0
  3  6  1  0  0  0  0
  4  7  1  0  0  0  0
  4  8  2  0  0  0  0
  5  9  1  0  0  0  0
  6 10  1  0  0  0  0
  6 11  2  0  0  0  0
  9 12  1  0  0  0  0
 11 13  1  0  0  0  0
 12 14  2  0  0  0  0
 12 15  1  0  0  0  0
 15 16  1  0  0  0  0
 15 17  1  0  0  0  0
 16 18  1  0  0  0  0
 16 19  1  0  0  0  0
 17 20  1  0  0  0  0
 18 21  2  0  0  0  0
 19 22  2  0  0  0  0
 20 23  1  0  0  0  0
 22 24  1  0  0  0  0
 23 25  1  0  0  0  0
 24 26  1  0  0  0  0
 24 27  1  0  0  0  0
 24 28  1  1  0  0  0
 26 29  1  0  0  0  0
 27 30  1  0  0  0  0
 27 31  1  0  0  0  0
 29 32  1  0  0  0  0
 32 33  2  0  0  0  0
 32 34  1  0  0  0  0
 33 35  1  0  0  0  0
 34 36  2  0  0  0  0
 35 37  1  0  0  0  0
 35 38  2  0  0  0  0
 37 39  2  0  0  0  0
 38 40  1  0  0  0  0
 39 41  1  0  0  0  0
  8 11  1  0  0  0  0
 21 22  1  0  0  0  0
 36 37  1  0  0  0  0
 40 41  2  0  0  0  0
M  END
>  <MolRegNo>
602608

>  <m>
=

>  <Value>
3800

>  <Unit>
nM

>  <Type>
IC50

>  <pValue>
5.42

>  <Ligand Efficiency>
0

>  <Binding Efficiency>
0

>  <Surface Efficiency>
0

>  <Assay Index>
968613

>  <Assay Category>


>  <Assay Organism>
Homo sapiens

>  <Target ID>
17045

>  <Target Name>
Cytochrome P450 3A4

>  <Target Organism>
Homo sapiens

>  <Target Description>
Target is a single protein chain

>  <Sequence Accession>
P08684

>  <Reference>
Bioorg Med Chem Lett 25 (21), 4834-4837 (2015)

>  <Pubmed ID>
26144347

>  <DOI>
10.1016/j.bmcl.2015.06.066

$$$$
1968901
Actelion Java MolfileCreator 1.0

 40 43  0  0  0  0  0  0  0  0999 V2000
    0.0000   -0.0000   -0.0000 F   0  0  0  0  0  0  0  0  0  0  0  0
   -0.5319    1.1627   -0.0000 C   0  0  0  0  0  0  0  0  0  0  0  0
   -2.1027    1.3358   -0.0000 C   0  0  0  0  0  0  0  0  0  0  0  0
    0.3711    2.4490   -0.0000 C   0  0  0  0  0  0  0  0  0  0  0  0
   -3.0304    0.0742   -0.0000 O   0  0  0  0  0  0  0  0  0  0  0  0
   -2.7583    2.7830   -0.0000 C   0  0  0  0  0  0  0  0  0  0  0  0
    1.6080    2.3377   -0.0000 F   0  0  0  0  0  0  0  0  0  0  0  0
   -0.2845    3.8962   -0.0000 C   0  0  0  0  0  0  0  0  0  0  0  0
   -4.6012    0.2474   -0.0000 C   0  0  0  0  0  0  0  0  0  0  0  0
   -4.0199    2.9191   -0.0000 F   0  0  0  0  0  0  0  0  0  0  0  0
   -1.8553    4.0694   -0.0000 C   0  0  0  0  0  0  0  0  0  0  0  0
   -5.5289   -1.0143   -0.0000 C   0  0  0  0  0  0  0  0  0  0  0  0
   -2.3872    5.2320   -0.0000 F   0  0  0  0  0  0  0  0  0  0  0  0
   -5.0218   -2.1522   -0.0000 O   0  0  0  0  0  0  0  0  0  0  0  0
   -7.0998   -0.8411   -0.0000 C   0  0  0  0  0  0  0  0  0  0  0  0
   -8.0274   -2.1027   -0.0000 N   0  0  0  0  0  0  0  0  0  0  0  0
   -7.7553    0.6061   -0.0000 C   0  0  0  0  0  0  0  0  0  0  0  0
   -9.6106   -2.1027   -0.0000 N   0  0  0  0  0  0  0  0  0  0  0  0
   -7.5450   -3.5870   -0.0000 C   0  0  0  0  0  0  0  0  0  0  0  0
   -6.8524    1.8924   -0.0000 C   0  0  0  0  0  0  0  0  0  0  0  0
  -10.1054   -3.5870   -0.0000 N   0  0  0  0  0  0  0  0  0  0  0  0
   -8.8190   -4.4775   -0.0000 C   0  0  0  0  0  0  0  0  0  0  0  0
   -7.5079    3.3396   -0.0000 C   0  0  0  0  0  0  0  0  0  0  0  0
   -8.8190   -6.0360   -0.0000 C   0  0  0  0  0  0  0  0  0  0  0  0
   -6.7782    4.3662   -0.0000 C   0  0  0  0  0  0  0  0  0  0  0  0
   -7.4708   -6.8029   -0.0000 N   0  0  0  0  0  0  0  0  0  0  0  0
   -7.4461   -5.2073   -0.0000 C   0  0  0  0  0  0  0  0  0  0  0  0
   -9.9199   -6.6545   -0.0000 C   0  0  0  0  0  0  0  0  0  0  0  0
   -7.4708   -8.3614   -0.0000 C   0  0  0  0  0  0  0  0  0  0  0  0
   -7.4708   -4.1436   -0.0000 C   0  0  0  0  0  0  0  0  0  0  0  0
   -6.3700   -5.8134   -0.0000 C   0  0  0  0  0  0  0  0  0  0  0  0
   -6.1226   -9.1283   -0.0000 C   0  0  0  0  0  0  0  0  0  0  0  0
   -4.7620   -8.3119   -0.0000 N   0  0  0  0  0  0  0  0  0  0  0  0
   -6.1350  -10.6867   -0.0000 C   0  0  0  0  0  0  0  0  0  0  0  0
   -3.4138   -9.1035   -0.0000 C   0  0  0  0  0  0  0  0  0  0  0  0
   -4.7744  -11.4783   -0.0000 C   0  0  0  0  0  0  0  0  0  0  0  0
   -3.4262  -10.6620   -0.0000 N   0  0  0  0  0  0  0  0  0  0  0  0
   -1.9419   -8.6088   -0.0000 C   0  0  0  0  0  0  0  0  0  0  0  0
   -1.9543  -11.1320   -0.0000 N   0  0  0  0  0  0  0  0  0  0  0  0
   -1.0390   -9.8333   -0.0000 C   0  0  0  0  0  0  0  0  0  0  0  0
  1  2  1  0  0  0  0
  2  3  2  0  0  0  0
  2  4  1  0  0  0  0
  3  5  1  0  0  0  0
  3  6  1  0  0  0  0
  4  7  1  0  0  0  0
  4  8  2  0  0  0  0
  5  9  1  0  0  0  0
  6 10  1  0  0  0  0
  6 11  2  0  0  0  0
  9 12  1  0  0  0  0
 11 13  1  0  0  0  0
 12 14  2  0  0  0  0
 12 15  1  0  0  0  0
 15 16  1  0  0  0  0
 15 17  1  0  0  0  0
 16 18  1  0  0  0  0
 16 19  1  0  0  0  0
 17 20  1  0  0  0  0
 18 21  2  0  0  0  0
 19 22  2  0  0  0  0
 20 23  1  0  0  0  0
 22 24  1  0  0  0  0
 23 25  1  0  0  0  0
 24 26  1  0  0  0  0
 24 27  1  1  0  0  0
 24 28  1  0  0  0  0
 26 29  1  0  0  0  0
 27 30  1  0  0  0  0
 27 31  1  0  0  0  0
 29 32  1  0  0  0  0
 32 33  2  0  0  0  0
 32 34  1  0  0  0  0
 33 35  1  0  0  0  0
 34 36  2  0  0  0  0
 35 37  1  0  0  0  0
 35 38  2  0  0  0  0
 37 39  1  0  0  0  0
 38 40  1  0  0  0  0
  8 11  1  0  0  0  0
 21 22  1  0  0  0  0
 36 37  1  0  0  0  0
 39 40  2  0  0  0  0
M  END
>  <MolRegNo>
1968901

>  <m>
=

>  <Value>
314

>  <Unit>
nM

>  <Type>
IC50

>  <pValue>
6.5

>  <Ligand Efficiency>
0

>  <Binding Efficiency>
0

>  <Surface Efficiency>
0

>  <Assay Index>
968613

>  <Assay Category>


>  <Assay Organism>
Homo sapiens

>  <Target ID>
17045

>  <Target Name>
Cytochrome P450 3A4

>  <Target Organism>
Homo sapiens

>  <Target Description>
Target is a single protein chain

>  <Sequence Accession>
P08684

>  <Reference>
Bioorg Med Chem Lett 25 (21), 4834-4837 (2015)

>  <Pubmed ID>
26144347

>  <DOI>
10.1016/j.bmcl.2015.06.066

$$$$
1968902
Actelion Java MolfileCreator 1.0

 42 46  0  0  0  0  0  0  0  0999 V2000
    0.0000   -0.0000   -0.0000 F   0  0  0  0  0  0  0  0  0  0  0  0
   -0.5195    1.1381   -0.0000 C   0  0  0  0  0  0  0  0  0  0  0  0
   -2.0782    1.2989   -0.0000 C   0  0  0  0  0  0  0  0  0  0  0  0
    0.3711    2.4122   -0.0000 C   0  0  0  0  0  0  0  0  0  0  0  0
   -2.9936    0.0495   -0.0000 O   0  0  0  0  0  0  0  0  0  0  0  0
   -2.7338    2.7214   -0.0000 C   0  0  0  0  0  0  0  0  0  0  0  0
    1.5958    2.3009   -0.0000 F   0  0  0  0  0  0  0  0  0  0  0  0
   -0.2845    3.8348   -0.0000 C   0  0  0  0  0  0  0  0  0  0  0  0
   -4.5522    0.2227   -0.0000 C   0  0  0  0  0  0  0  0  0  0  0  0
   -3.9832    2.8575   -0.0000 F   0  0  0  0  0  0  0  0  0  0  0  0
   -1.8432    3.9956   -0.0000 C   0  0  0  0  0  0  0  0  0  0  0  0
   -5.4676   -1.0267   -0.0000 C   0  0  0  0  0  0  0  0  0  0  0  0
   -2.3627    5.1336   -0.0000 F   0  0  0  0  0  0  0  0  0  0  0  0
   -4.9728   -2.1400   -0.0000 O   0  0  0  0  0  0  0  0  0  0  0  0
   -7.0263   -0.8535   -0.0000 C   0  0  0  0  0  0  0  0  0  0  0  0
   -7.9417   -2.1029   -0.0000 N   0  0  0  0  0  0  0  0  0  0  0  0
   -7.6695    0.5690   -0.0000 C   0  0  0  0  0  0  0  0  0  0  0  0
   -9.5003   -2.1029   -0.0000 N   0  0  0  0  0  0  0  0  0  0  0  0
   -7.4716   -3.5626   -0.0000 C   0  0  0  0  0  0  0  0  0  0  0  0
   -6.7789    1.8432   -0.0000 C   0  0  0  0  0  0  0  0  0  0  0  0
   -9.9827   -3.5626   -0.0000 N   0  0  0  0  0  0  0  0  0  0  0  0
   -8.7333   -4.4409   -0.0000 C   0  0  0  0  0  0  0  0  0  0  0  0
   -7.4221    3.2657   -0.0000 C   0  0  0  0  0  0  0  0  0  0  0  0
   -8.7333   -5.9748   -0.0000 C   0  0  0  0  0  0  0  0  0  0  0  0
   -6.7046    4.2801   -0.0000 C   0  0  0  0  0  0  0  0  0  0  0  0
   -7.3974   -6.7294   -0.0000 N   0  0  0  0  0  0  0  0  0  0  0  0
   -8.7333   -7.5087   -0.0000 C   0  0  0  0  0  0  0  0  0  0  0  0
   -9.8219   -6.5933   -0.0000 C   0  0  0  0  0  0  0  0  0  0  0  0
   -6.0738   -5.9377   -0.0000 C   0  0  0  0  0  0  0  0  0  0  0  0
   -9.9951   -8.3870   -0.0000 C   0  0  0  0  0  0  0  0  0  0  0  0
   -7.4840   -8.3746   -0.0000 C   0  0  0  0  0  0  0  0  0  0  0  0
   -4.7378   -6.6923   -0.0000 C   0  0  0  0  0  0  0  0  0  0  0  0
   -9.5250   -9.8467   -0.0000 C   0  0  0  0  0  0  0  0  0  0  0  0
   -7.9664   -9.8343   -0.0000 C   0  0  0  0  0  0  0  0  0  0  0  0
   -4.7378   -8.2509   -0.0000 N   0  0  0  0  0  0  0  0  0  0  0  0
   -3.4142   -5.9006   -0.0000 C   0  0  0  0  0  0  0  0  0  0  0  0
   -3.3894   -8.9931   -0.0000 C   0  0  0  0  0  0  0  0  0  0  0  0
   -2.0534   -6.6552   -0.0000 C   0  0  0  0  0  0  0  0  0  0  0  0
   -2.0658   -8.2014   -0.0000 N   0  0  0  0  0  0  0  0  0  0  0  0
   -3.0554  -10.4899   -0.0000 C   0  0  0  0  0  0  0  0  0  0  0  0
   -0.9278   -9.2158   -0.0000 N   0  0  0  0  0  0  0  0  0  0  0  0
   -1.5586  -10.6384   -0.0000 C   0  0  0  0  0  0  0  0  0  0  0  0
  1  2  1  0  0  0  0
  2  3  2  0  0  0  0
  2  4  1  0  0  0  0
  3  5  1  0  0  0  0
  3  6  1  0  0  0  0
  4  7  1  0  0  0  0
  4  8  2  0  0  0  0
  5  9  1  0  0  0  0
  6 10  1  0  0  0  0
  6 11  2  0  0  0  0
  9 12  1  0  0  0  0
 11 13  1  0  0  0  0
 12 14  2  0  0  0  0
 12 15  1  0  0  0  0
 15 16  1  0  0  0  0
 15 17  1  0  0  0  0
 16 18  1  0  0  0  0
 16 19  1  0  0  0  0
 17 20  1  0  0  0  0
 18 21  2  0  0  0  0
 19 22  2  0  0  0  0
 20 23  1  0  0  0  0
 22 24  1  0  0  0  0
 23 25  1  0  0  0  0
 24 26  1  0  0  0  0
 24 27  1  1  0  0  0
 24 28  1  0  0  0  0
 26 29  1  0  0  0  0
 27 30  1  0  0  0  0
 27 31  1  0  0  0  0
 29 32  1  0  0  0  0
 30 33  1  0  0  0  0
 31 34  1  0  0  0  0
 32 35  2  0  0  0  0
 32 36  1  0  0  0  0
 35 37  1  0  0  0  0
 36 38  2  0  0  0  0
 37 39  1  0  0  0  0
 37 40  2  0  0  0  0
 39 41  1  0  0  0  0
 40 42  1  0  0  0  0
  8 11  1  0  0  0  0
 21 22  1  0  0  0  0
 33 34  1  0  0  0  0
 38 39  1  0  0  0  0
 41 42  2  0  0  0  0
M  END
>  <MolRegNo>
1968902

>  <m>
=

>  <Value>
263

>  <Unit>
nM

>  <Type>
IC50

>  <pValue>
6.58

>  <Ligand Efficiency>
0

>  <Binding Efficiency>
0

>  <Surface Efficiency>
0

>  <Assay Index>
968613

>  <Assay Category>


>  <Assay Organism>
Homo sapiens

>  <Target ID>
17045

>  <Target Name>
Cytochrome P450 3A4

>  <Target Organism>
Homo sapiens

>  <Target Description>
Target is a single protein chain

>  <Sequence Accession>
P08684

>  <Reference>
Bioorg Med Chem Lett 25 (21), 4834-4837 (2015)

>  <Pubmed ID>
26144347

>  <DOI>
10.1016/j.bmcl.2015.06.066

$$$$
1968892
Actelion Java MolfileCreator 1.0

 40 43  0  0  0  0  0  0  0  0999 V2000
    0.0000   -0.0000   -0.0000 S   0  0  0  0  0  0  0  0  0  0  0  0
   -1.4942   -0.4693   -0.0000 C   0  0  0  0  0  0  0  0  0  0  0  0
    0.9015   -1.2226   -0.0000 C   0  0  0  0  0  0  0  0  0  0  0  0
   -1.5066   -2.0253   -0.0000 C   0  0  0  0  0  0  0  0  0  0  0  0
   -2.8650    0.3458   -0.0000 C   0  0  0  0  0  0  0  0  0  0  0  0
   -0.0247   -2.4822   -0.0000 N   0  0  0  0  0  0  0  0  0  0  0  0
   -2.8773   -2.8156   -0.0000 C   0  0  0  0  0  0  0  0  0  0  0  0
   -4.2481   -0.4446   -0.0000 C   0  0  0  0  0  0  0  0  0  0  0  0
   -4.2605   -2.0006   -0.0000 C   0  0  0  0  0  0  0  0  0  0  0  0
   -5.6189    0.3458   -0.0000 C   0  0  0  0  0  0  0  0  0  0  0  0
   -5.6436    1.9265   -0.0000 N   0  0  0  0  0  0  0  0  0  0  0  0
   -7.0143    2.7168   -0.0000 C   0  0  0  0  0  0  0  0  0  0  0  0
   -7.0390    4.2975   -0.0000 C   0  0  0  0  0  0  0  0  0  0  0  0
   -5.6436    3.5442   -0.0000 C   0  0  0  0  0  0  0  0  0  0  0  0
   -8.1134    2.0994   -0.0000 C   0  0  0  0  0  0  0  0  0  0  0  0
   -8.3233    5.1990   -0.0000 N   0  0  0  0  0  0  0  0  0  0  0  0
   -5.7917    5.2113   -0.0000 C   0  0  0  0  0  0  0  0  0  0  0  0
   -5.6683    4.6062   -0.0000 C   0  0  0  0  0  0  0  0  0  0  0  0
   -4.5692    2.9391   -0.0000 C   0  0  0  0  0  0  0  0  0  0  0  0
   -7.8540    6.7056   -0.0000 N   0  0  0  0  0  0  0  0  0  0  0  0
   -6.2981    6.7179   -0.0000 N   0  0  0  0  0  0  0  0  0  0  0  0
   -5.3966    8.0022   -0.0000 C   0  0  0  0  0  0  0  0  0  0  0  0
   -3.8529    7.8540   -0.0000 C   0  0  0  0  0  0  0  0  0  0  0  0
   -6.0511    9.4471   -0.0000 C   0  0  0  0  0  0  0  0  0  0  0  0
   -3.3466    6.7179   -0.0000 O   0  0  0  0  0  0  0  0  0  0  0  0
   -2.9514    9.1384   -0.0000 C   0  0  0  0  0  0  0  0  0  0  0  0
   -5.1496   10.7314   -0.0000 C   0  0  0  0  0  0  0  0  0  0  0  0
   -1.4078    8.9902   -0.0000 O   0  0  0  0  0  0  0  0  0  0  0  0
   -5.8041   12.1762   -0.0000 C   0  0  0  0  0  0  0  0  0  0  0  0
   -0.5063   10.2745   -0.0000 C   0  0  0  0  0  0  0  0  0  0  0  0
   -5.0755   13.2012   -0.0000 C   0  0  0  0  0  0  0  0  0  0  0  0
    1.0373   10.1263   -0.0000 C   0  0  0  0  0  0  0  0  0  0  0  0
   -1.1608   11.7193   -0.0000 C   0  0  0  0  0  0  0  0  0  0  0  0
    1.5436    8.9902   -0.0000 F   0  0  0  0  0  0  0  0  0  0  0  0
    1.9388   11.4106   -0.0000 C   0  0  0  0  0  0  0  0  0  0  0  0
   -2.4204   11.8552   -0.0000 F   0  0  0  0  0  0  0  0  0  0  0  0
   -0.2593   13.0036   -0.0000 C   0  0  0  0  0  0  0  0  0  0  0  0
    3.1737   11.2995   -0.0000 F   0  0  0  0  0  0  0  0  0  0  0  0
    1.2843   12.8554   -0.0000 C   0  0  0  0  0  0  0  0  0  0  0  0
   -0.7903   14.1645   -0.0000 F   0  0  0  0  0  0  0  0  0  0  0  0
  1  2  1  0  0  0  0
  1  3  1  0  0  0  0
  2  4  2  0  0  0  0
  2  5  1  0  0  0  0
  3  6  2  0  0  0  0
  4  7  1  0  0  0  0
  5  8  2  0  0  0  0
  7  9  2  0  0  0  0
  8 10  1  0  0  0  0
 10 11  1  0  0  0  0
 11 12  1  0  0  0  0
 12 13  1  0  0  0  0
 12 14  1  1  0  0  0
 12 15  1  0  0  0  0
 13 16  1  0  0  0  0
 13 17  2  0  0  0  0
 14 18  1  0  0  0  0
 14 19  1  0  0  0  0
 16 20  2  0  0  0  0
 17 21  1  0  0  0  0
 21 22  1  0  0  0  0
 22 23  1  0  0  0  0
 22 24  1  0  0  0  0
 23 25  2  0  0  0  0
 23 26  1  0  0  0  0
 24 27  1  0  0  0  0
 26 28  1  0  0  0  0
 27 29  1  0  0  0  0
 28 30  1  0  0  0  0
 29 31  1  0  0  0  0
 30 32  2  0  0  0  0
 30 33  1  0  0  0  0
 32 34  1  0  0  0  0
 32 35  1  0  0  0  0
 33 36  1  0  0  0  0
 33 37  2  0  0  0  0
 35 38  1  0  0  0  0
 35 39  2  0  0  0  0
 37 40  1  0  0  0  0
  4  6  1  0  0  0  0
  8  9  1  0  0  0  0
 20 21  1  0  0  0  0
 37 39  1  0  0  0  0
M  END
>  <MolRegNo>
1968892

>  <m>
=

>  <Value>
300

>  <Unit>
nM

>  <Type>
IC50

>  <pValue>
6.52

>  <Ligand Efficiency>
0

>  <Binding Efficiency>
0

>  <Surface Efficiency>
0

>  <Assay Index>
968613

>  <Assay Category>


>  <Assay Organism>
Homo sapiens

>  <Target ID>
17045

>  <Target Name>
Cytochrome P450 3A4

>  <Target Organism>
Homo sapiens

>  <Target Description>
Target is a single protein chain

>  <Sequence Accession>
P08684

>  <Reference>
Bioorg Med Chem Lett 25 (21), 4834-4837 (2015)

>  <Pubmed ID>
26144347

>  <DOI>
10.1016/j.bmcl.2015.06.066

$$$$
1968897
Actelion Java MolfileCreator 1.0

 44 48  0  0  0  0  0  0  0  0999 V2000
    0.0000   -0.0000   -0.0000 S   0  0  0  0  0  0  0  0  0  0  0  0
    0.7243    1.0240   -0.0000 O   0  0  0  0  0  0  0  0  0  0  0  0
   -1.2613    0.1374   -0.0000 O   0  0  0  0  0  0  0  0  0  0  0  0
    0.6244   -1.4112   -0.0000 C   0  0  0  0  0  0  0  0  0  0  0  0
   -0.5245    1.1614   -0.0000 C   0  0  0  0  0  0  0  0  0  0  0  0
   -0.2997   -2.6725   -0.0000 C   0  0  0  0  0  0  0  0  0  0  0  0
    0.3247   -4.0837   -0.0000 C   0  0  0  0  0  0  0  0  0  0  0  0
   -0.5994   -5.3450   -0.0000 N   0  0  0  0  0  0  0  0  0  0  0  0
    1.8733   -4.2336   -0.0000 C   0  0  0  0  0  0  0  0  0  0  0  0
   -2.1730   -5.3450   -0.0000 N   0  0  0  0  0  0  0  0  0  0  0  0
   -0.1249   -6.8187   -0.0000 C   0  0  0  0  0  0  0  0  0  0  0  0
    2.3728   -5.3575   -0.0000 O   0  0  0  0  0  0  0  0  0  0  0  0
    2.7724   -2.9473   -0.0000 C   0  0  0  0  0  0  0  0  0  0  0  0
   -2.6600   -6.8187   -0.0000 N   0  0  0  0  0  0  0  0  0  0  0  0
   -1.3987   -7.7053   -0.0000 C   0  0  0  0  0  0  0  0  0  0  0  0
    4.3210   -3.0971   -0.0000 O   0  0  0  0  0  0  0  0  0  0  0  0
   -1.3987   -9.2539   -0.0000 C   0  0  0  0  0  0  0  0  0  0  0  0
    5.2202   -1.8108   -0.0000 C   0  0  0  0  0  0  0  0  0  0  0  0
   -0.0500  -10.0157   -0.0000 N   0  0  0  0  0  0  0  0  0  0  0  0
   -1.3987  -10.8025   -0.0000 C   0  0  0  0  0  0  0  0  0  0  0  0
   -2.4977   -9.8783   -0.0000 C   0  0  0  0  0  0  0  0  0  0  0  0
    6.7687   -1.9482   -0.0000 C   0  0  0  0  0  0  0  0  0  0  0  0
    4.5583   -0.3747   -0.0000 C   0  0  0  0  0  0  0  0  0  0  0  0
    1.2863   -9.2164   -0.0000 C   0  0  0  0  0  0  0  0  0  0  0  0
   -2.6725  -11.6891   -0.0000 C   0  0  0  0  0  0  0  0  0  0  0  0
   -0.1374  -11.6767   -0.0000 C   0  0  0  0  0  0  0  0  0  0  0  0
    7.2682   -3.0721   -0.0000 F   0  0  0  0  0  0  0  0  0  0  0  0
    7.6679   -0.6619   -0.0000 C   0  0  0  0  0  0  0  0  0  0  0  0
    3.2969   -0.2373   -0.0000 F   0  0  0  0  0  0  0  0  0  0  0  0
    5.4574    0.9117   -0.0000 C   0  0  0  0  0  0  0  0  0  0  0  0
    2.6351   -9.9782   -0.0000 C   0  0  0  0  0  0  0  0  0  0  0  0
   -2.1980  -13.1628   -0.0000 C   0  0  0  0  0  0  0  0  0  0  0  0
   -0.6244  -13.1503   -0.0000 C   0  0  0  0  0  0  0  0  0  0  0  0
    8.9042   -0.7743   -0.0000 F   0  0  0  0  0  0  0  0  0  0  0  0
    7.0060    0.7743   -0.0000 C   0  0  0  0  0  0  0  0  0  0  0  0
    4.9329    2.0606   -0.0000 F   0  0  0  0  0  0  0  0  0  0  0  0
    2.6351  -11.5518   -0.0000 C   0  0  0  0  0  0  0  0  0  0  0  0
    3.9713   -9.1790   -0.0000 C   0  0  0  0  0  0  0  0  0  0  0  0
    3.9963  -12.3011   -0.0000 C   0  0  0  0  0  0  0  0  0  0  0  0
    5.3450   -9.9408   -0.0000 C   0  0  0  0  0  0  0  0  0  0  0  0
    4.3335  -13.8122   -0.0000 S   0  0  0  0  0  0  0  0  0  0  0  0
    5.3325  -11.5018   -0.0000 C   0  0  0  0  0  0  0  0  0  0  0  0
    5.8446  -13.9620   -0.0000 C   0  0  0  0  0  0  0  0  0  0  0  0
    6.4815  -12.5259   -0.0000 N   0  0  0  0  0  0  0  0  0  0  0  0
  1  2  2  0  0  0  0
  1  3  2  0  0  0  0
  1  4  1  0  0  0  0
  1  5  1  0  0  0  0
  4  6  1  0  0  0  0
  6  7  1  0  0  0  0
  7  8  1  0  0  0  0
  7  9  1  0  0  0  0
  8 10  1  0  0  0  0
  8 11  1  0  0  0  0
  9 12  2  0  0  0  0
  9 13  1  0  0  0  0
 10 14  2  0  0  0  0
 11 15  2  0  0  0  0
 13 16  1  0  0  0  0
 15 17  1  0  0  0  0
 16 18  1  0  0  0  0
 17 19  1  0  0  0  0
 17 20  1  1  0  0  0
 17 21  1  0  0  0  0
 18 22  2  0  0  0  0
 18 23  1  0  0  0  0
 19 24  1  0  0  0  0
 20 25  1  0  0  0  0
 20 26  1  0  0  0  0
 22 27  1  0  0  0  0
 22 28  1  0  0  0  0
 23 29  1  0  0  0  0
 23 30  2  0  0  0  0
 24 31  1  0  0  0  0
 25 32  1  0  0  0  0
 26 33  1  0  0  0  0
 28 34  1  0  0  0  0
 28 35  2  0  0  0  0
 30 36  1  0  0  0  0
 31 37  2  0  0  0  0
 31 38  1  0  0  0  0
 37 39  1  0  0  0  0
 38 40  2  0  0  0  0
 39 41  1  0  0  0  0
 39 42  2  0  0  0  0
 41 43  1  0  0  0  0
 42 44  1  0  0  0  0
 14 15  1  0  0  0  0
 30 35  1  0  0  0  0
 32 33  1  0  0  0  0
 40 42  1  0  0  0  0
 43 44  2  0  0  0  0
M  END
>  <MolRegNo>
1968897

>  <m>
=

>  <Value>
200

>  <Unit>
nM

>  <Type>
IC50

>  <pValue>
6.7

>  <Ligand Efficiency>
0

>  <Binding Efficiency>
0

>  <Surface Efficiency>
0

>  <Assay Index>
968613

>  <Assay Category>


>  <Assay Organism>
Homo sapiens

>  <Target ID>
17045

>  <Target Name>
Cytochrome P450 3A4

>  <Target Organism>
Homo sapiens

>  <Target Description>
Target is a single protein chain

>  <Sequence Accession>
P08684

>  <Reference>
Bioorg Med Chem Lett 25 (21), 4834-4837 (2015)

>  <Pubmed ID>
26144347

>  <DOI>
10.1016/j.bmcl.2015.06.066

$$$$
335319
Actelion Java MolfileCreator 1.0

 32 34  0  0  1  0  0  0  0  0999 V2000
    0.0000   -0.0000   -0.0000 Cl  0  0  0  0  0  0  0  0  0  0  0  0
    0.0000    1.5094   -0.0000 C   0  0  0  0  0  0  0  0  0  0  0  0
   -1.2955    2.2819   -0.0000 C   0  0  0  0  0  0  0  0  0  0  0  0
    1.2955    2.2582   -0.0000 C   0  0  0  0  0  0  0  0  0  0  0  0
   -1.2955    3.7794   -0.0000 C   0  0  0  0  0  0  0  0  0  0  0  0
    1.2955    3.7557   -0.0000 C   0  0  0  0  0  0  0  0  0  0  0  0
    0.0000    4.5163   -0.0000 C   0  0  0  0  0  0  0  0  0  0  0  0
    0.0000    6.0257   -0.0000 S   0  0  0  0  0  0  0  0  0  0  0  0
    1.4856    6.0376   -0.0000 O   0  0  0  0  0  0  0  0  0  0  0  0
   -1.5094    6.0376   -0.0000 O   0  0  0  0  0  0  0  0  0  0  0  0
   -0.0238    7.5351   -0.0000 C   0  0  0  0  0  0  0  0  0  0  0  0
   -1.3311    8.2958   -0.0000 C   0  0  0  0  0  0  0  0  0  0  0  0
    1.2598    6.7983   -0.0000 C   0  0  0  0  0  0  0  0  0  0  0  0
   -0.0357    9.0445   -0.0000 C   0  0  0  0  0  0  0  0  0  0  0  0
   -2.6504    7.5589   -0.0000 C   0  0  0  0  0  0  0  0  0  0  0  0
   -1.3430    9.8171   -0.0000 C   0  0  0  0  0  0  0  0  0  0  0  0
    2.5434    7.5470   -0.0000 C   0  0  0  0  0  0  0  0  0  0  0  0
    1.2479    9.8052   -0.0000 C   0  0  0  0  0  0  0  0  0  0  0  0
   -2.6623    6.0733   -0.0000 F   0  0  0  0  0  0  0  0  0  0  0  0
   -3.9577    8.3195   -0.0000 C   0  0  0  0  0  0  0  0  0  0  0  0
   -2.6504   10.5777   -0.0000 C   0  0  0  0  0  0  0  0  0  0  0  0
    2.5315    9.0564   -0.0000 C   0  0  0  0  0  0  0  0  0  0  0  0
   -3.9696    9.8408   -0.0000 C   0  0  0  0  0  0  0  0  0  0  0  0
   -2.6623   12.0871   -0.0000 F   0  0  0  0  0  0  0  0  0  0  0  0
    3.8151    9.8171   -0.0000 N   0  0  0  0  0  0  0  0  0  0  0  0
    5.0987    9.0802   -0.0000 S   0  0  0  0  0  0  0  0  0  0  0  0
    4.3380    7.7966   -0.0000 O   0  0  0  0  0  0  0  0  0  0  0  0
    5.8474   10.3875   -0.0000 O   0  0  0  0  0  0  0  0  0  0  0  0
    6.3823    8.3433   -0.0000 C   0  0  0  0  0  0  0  0  0  0  0  0
    7.6659    7.6064   -0.0000 F   0  0  0  0  0  0  0  0  0  0  0  0
    7.1191    9.6507   -0.0000 F   0  0  0  0  0  0  0  0  0  0  0  0
    5.6216    7.0597   -0.0000 F   0  0  0  0  0  0  0  0  0  0  0  0
  1  2  1  0  0  0  0
  2  3  2  0  0  0  0
  2  4  1  0  0  0  0
  3  5  1  0  0  0  0
  4  6  2  0  0  0  0
  5  7  2  0  0  0  0
  7  8  1  0  0  0  0
  8  9  2  0  0  0  0
  8 10  2  0  0  0  0
  8 11  1  0  0  0  0
 11 12  1  0  0  0  0
 11 13  1  1  0  0  0
 11 14  1  0  0  0  0
 12 15  2  0  0  0  0
 12 16  1  0  0  0  0
 13 17  1  0  0  0  0
 14 18  1  0  0  0  0
 15 19  1  0  0  0  0
 15 20  1  0  0  0  0
 16 21  2  0  0  0  0
 17 22  1  0  0  0  0
 20 23  2  0  0  0  0
 21 24  1  0  0  0  0
 22 25  1  6  0  0  0
 25 26  1  0  0  0  0
 26 27  2  0  0  0  0
 26 28  2  0  0  0  0
 26 29  1  0  0  0  0
 29 30  1  0  0  0  0
 29 31  1  0  0  0  0
 29 32  1  0  0  0  0
  6  7  1  0  0  0  0
 18 22  1  0  0  0  0
 21 23  1  0  0  0  0
M  END
>  <MolRegNo>
335319

>  <m>
=

>  <Value>
16600

>  <Unit>
nM

>  <Type>
IC50

>  <pValue>
4.78

>  <Ligand Efficiency>
0

>  <Binding Efficiency>
0

>  <Surface Efficiency>
0

>  <Assay Index>
968720

>  <Assay Category>


>  <Assay Organism>
Homo sapiens

>  <Target ID>
17045

>  <Target Name>
Cytochrome P450 3A4

>  <Target Organism>
Homo sapiens

>  <Target Description>
Target is a single protein chain

>  <Sequence Accession>
P08684

>  <Reference>
J Med Chem 58 (22), 8806-8817 (2015)

>  <Pubmed ID>
26496070

>  <DOI>
10.1021/acs.jmedchem.5b00774

$$$$
1969703
Actelion Java MolfileCreator 1.0

 30 33  0  0  0  0  0  0  0  0999 V2000
    0.0000   -0.0000   -0.0000 Cl  0  0  0  0  0  0  0  0  0  0  0  0
    1.0913    0.6523   -0.0000 C   0  0  0  0  0  0  0  0  0  0  0  0
    2.4585   -0.1254   -0.0000 C   0  0  0  0  0  0  0  0  0  0  0  0
    1.0787    2.2578   -0.0000 C   0  0  0  0  0  0  0  0  0  0  0  0
    3.8258    0.6899   -0.0000 C   0  0  0  0  0  0  0  0  0  0  0  0
    2.4460    3.0732   -0.0000 C   0  0  0  0  0  0  0  0  0  0  0  0
    3.8132    2.2955   -0.0000 C   0  0  0  0  0  0  0  0  0  0  0  0
    5.1805    3.1108   -0.0000 S   0  0  0  0  0  0  0  0  0  0  0  0
    5.1679    4.1895   -0.0000 O   0  0  0  0  0  0  0  0  0  0  0  0
    4.2522    3.6502   -0.0000 O   0  0  0  0  0  0  0  0  0  0  0  0
    6.5477    2.3331   -0.0000 C   0  0  0  0  0  0  0  0  0  0  0  0
    5.2306    1.5303   -0.0000 C   0  0  0  0  0  0  0  0  0  0  0  0
    6.5728    3.9010   -0.0000 C   0  0  0  0  0  0  0  0  0  0  0  0
    7.9149    1.5554   -0.0000 C   0  0  0  0  0  0  0  0  0  0  0  0
    3.7881    2.3582   -0.0000 C   0  0  0  0  0  0  0  0  0  0  0  0
    5.1679   -0.0376   -0.0000 C   0  0  0  0  0  0  0  0  0  0  0  0
    7.8899    4.7540   -0.0000 C   0  0  0  0  0  0  0  0  0  0  0  0
    5.1303    4.7289   -0.0000 C   0  0  0  0  0  0  0  0  0  0  0  0
    9.2947    2.3582   -0.0000 C   0  0  0  0  0  0  0  0  0  0  0  0
    3.7630    3.9387   -0.0000 O   0  0  0  0  0  0  0  0  0  0  0  0
    2.3958    1.5554   -0.0000 C   0  0  0  0  0  0  0  0  0  0  0  0
    6.2592   -0.6648   -0.0000 F   0  0  0  0  0  0  0  0  0  0  0  0
    3.8383   -0.8530   -0.0000 C   0  0  0  0  0  0  0  0  0  0  0  0
    9.2571    3.9763   -0.0000 C   0  0  0  0  0  0  0  0  0  0  0  0
    6.8111    5.9205   -0.0000 C   0  0  0  0  0  0  0  0  0  0  0  0
    9.2446    5.5568   -0.0000 C   0  0  0  0  0  0  0  0  0  0  0  0
    1.4550    2.0948   -0.0000 F   0  0  0  0  0  0  0  0  0  0  0  0
    2.3958   -0.0251   -0.0000 C   0  0  0  0  0  0  0  0  0  0  0  0
    7.0871    6.9491   -0.0000 O   0  0  0  0  0  0  0  0  0  0  0  0
    9.2069    6.8487   -0.0000 O   0  0  0  0  0  0  0  0  0  0  0  0
  1  2  1  0  0  0  0
  2  3  2  0  0  0  0
  2  4  1  0  0  0  0
  3  5  1  0  0  0  0
  4  6  2  0  0  0  0
  5  7  2  0  0  0  0
  7  8  1  0  0  0  0
  8  9  2  0  0  0  0
  8 10  2  0  0  0  0
 11  8  1  6  0  0  0
 11 12  1  0  0  0  0
 11 13  1  0  0  0  0
 11 14  1  0  0  0  0
 12 15  2  0  0  0  0
 12 16  1  0  0  0  0
 13 17  1  0  0  0  0
 13 18  1  1  0  0  0
 14 19  1  0  0  0  0
 15 20  1  0  0  0  0
 15 21  1  0  0  0  0
 16 22  1  0  0  0  0
 16 23  2  0  0  0  0
 17 24  1  0  0  0  0
 17 25  1  0  0  0  0
 17 26  1  0  0  0  0
 21 27  1  0  0  0  0
 21 28  2  0  0  0  0
 25 29  1  0  0  0  0
 26 30  1  0  0  0  0
  6  7  1  0  0  0  0
 18 20  1  0  0  0  0
 19 24  1  0  0  0  0
 23 28  1  0  0  0  0
M  END
>  <MolRegNo>
1969703

>  <m>
=

>  <Value>
11000

>  <Unit>
nM

>  <Type>
IC50

>  <pValue>
4.96

>  <Ligand Efficiency>
0

>  <Binding Efficiency>
0

>  <Surface Efficiency>
0

>  <Assay Index>
968720

>  <Assay Category>


>  <Assay Organism>
Homo sapiens

>  <Target ID>
17045

>  <Target Name>
Cytochrome P450 3A4

>  <Target Organism>
Homo sapiens

>  <Target Description>
Target is a single protein chain

>  <Sequence Accession>
P08684

>  <Reference>
J Med Chem 58 (22), 8806-8817 (2015)

>  <Pubmed ID>
26496070

>  <DOI>
10.1021/acs.jmedchem.5b00774

$$$$
621473
Actelion Java MolfileCreator 1.0

 34 37  0  0  1  0  0  0  0  0999 V2000
    0.0000   -0.0000   -0.0000 Cl  0  0  0  0  0  0  0  0  0  0  0  0
   -0.0125    1.2858   -0.0000 C   0  0  0  0  0  0  0  0  0  0  0  0
   -1.3982    2.0848   -0.0000 C   0  0  0  0  0  0  0  0  0  0  0  0
    1.3482    2.0972   -0.0000 C   0  0  0  0  0  0  0  0  0  0  0  0
   -1.4106    3.6827   -0.0000 C   0  0  0  0  0  0  0  0  0  0  0  0
    1.3357    3.6951   -0.0000 C   0  0  0  0  0  0  0  0  0  0  0  0
   -0.0499    4.4941   -0.0000 C   0  0  0  0  0  0  0  0  0  0  0  0
   -0.0624    6.0920   -0.0000 S   0  0  0  0  0  0  0  0  0  0  0  0
    1.0237    6.7411   -0.0000 O   0  0  0  0  0  0  0  0  0  0  0  0
    1.0237    5.4678   -0.0000 O   0  0  0  0  0  0  0  0  0  0  0  0
   -1.4481    6.8909   -0.0000 C   0  0  0  0  0  0  0  0  0  0  0  0
   -0.0874    7.6899   -0.0000 C   0  0  0  0  0  0  0  0  0  0  0  0
   -1.4606    5.3180   -0.0000 C   0  0  0  0  0  0  0  0  0  0  0  0
   -2.8338    7.6899   -0.0000 C   0  0  0  0  0  0  0  0  0  0  0  0
    1.2733    6.9159   -0.0000 C   0  0  0  0  0  0  0  0  0  0  0  0
   -0.0999    9.2878   -0.0000 C   0  0  0  0  0  0  0  0  0  0  0  0
   -0.0999    4.5440   -0.0000 C   0  0  0  0  0  0  0  0  0  0  0  0
   -2.8463    4.5440   -0.0000 C   0  0  0  0  0  0  0  0  0  0  0  0
   -4.2195    6.9159   -0.0000 C   0  0  0  0  0  0  0  0  0  0  0  0
    1.2608    5.3430   -0.0000 O   0  0  0  0  0  0  0  0  0  0  0  0
    2.6340    7.7149   -0.0000 C   0  0  0  0  0  0  0  0  0  0  0  0
   -1.2109    9.9369   -0.0000 F   0  0  0  0  0  0  0  0  0  0  0  0
    1.2608   10.0867   -0.0000 C   0  0  0  0  0  0  0  0  0  0  0  0
   -4.2319    5.3430   -0.0000 C   0  0  0  0  0  0  0  0  0  0  0  0
    3.7201    7.0907   -0.0000 F   0  0  0  0  0  0  0  0  0  0  0  0
    2.6216    9.3128   -0.0000 C   0  0  0  0  0  0  0  0  0  0  0  0
   -5.6176    4.5565   -0.0000 N   0  0  0  0  0  0  0  0  0  0  0  0
   -5.6301    2.9836   -0.0000 S   0  0  0  0  0  0  0  0  0  0  0  0
   -4.5440    2.3594   -0.0000 O   0  0  0  0  0  0  0  0  0  0  0  0
   -4.5440    3.6327   -0.0000 O   0  0  0  0  0  0  0  0  0  0  0  0
   -7.0158    2.1971   -0.0000 C   0  0  0  0  0  0  0  0  0  0  0  0
   -7.0283    0.9363   -0.0000 F   0  0  0  0  0  0  0  0  0  0  0  0
   -8.1268    2.8463   -0.0000 F   0  0  0  0  0  0  0  0  0  0  0  0
   -8.1268    1.5729   -0.0000 F   0  0  0  0  0  0  0  0  0  0  0  0
  1  2  1  0  0  0  0
  2  3  2  0  0  0  0
  2  4  1  0  0  0  0
  3  5  1  0  0  0  0
  4  6  2  0  0  0  0
  5  7  2  0  0  0  0
  7  8  1  0  0  0  0
  8  9  2  0  0  0  0
  8 10  2  0  0  0  0
 11  8  1  6  0  0  0
 11 12  1  0  0  0  0
 11 13  1  0  0  0  0
 11 14  1  0  0  0  0
 12 15  2  0  0  0  0
 12 16  1  0  0  0  0
 13 17  1  1  0  0  0
 13 18  1  0  0  0  0
 14 19  1  0  0  0  0
 15 20  1  0  0  0  0
 15 21  1  0  0  0  0
 16 22  1  0  0  0  0
 16 23  2  0  0  0  0
 18 24  1  0  0  0  0
 21 25  1  0  0  0  0
 21 26  2  0  0  0  0
 24 27  1  6  0  0  0
 27 28  1  0  0  0  0
 28 29  2  0  0  0  0
 28 30  2  0  0  0  0
 28 31  1  0  0  0  0
 31 32  1  0  0  0  0
 31 33  1  0  0  0  0
 31 34  1  0  0  0  0
  6  7  1  0  0  0  0
 17 20  1  0  0  0  0
 19 24  1  0  0  0  0
 23 26  1  0  0  0  0
M  END
>  <MolRegNo>
621473

>  <m>
=

>  <Value>
9600

>  <Unit>
nM

>  <Type>
IC50

>  <pValue>
5.02

>  <Ligand Efficiency>
0

>  <Binding Efficiency>
0

>  <Surface Efficiency>
0

>  <Assay Index>
968720

>  <Assay Category>


>  <Assay Organism>
Homo sapiens

>  <Target ID>
17045

>  <Target Name>
Cytochrome P450 3A4

>  <Target Organism>
Homo sapiens

>  <Target Description>
Target is a single protein chain

>  <Sequence Accession>
P08684

>  <Reference>
J Med Chem 58 (22), 8806-8817 (2015)

>  <Pubmed ID>
26496070

>  <DOI>
10.1021/acs.jmedchem.5b00774

$$$$
1967904
Actelion Java MolfileCreator 1.0

 35 38  0  0  0  0  0  0  0  0999 V2000
    0.0000   -0.0000   -0.0000 Cl  0  0  0  0  0  0  0  0  0  0  0  0
   -0.0126   -1.2741   -0.0000 C   0  0  0  0  0  0  0  0  0  0  0  0
    1.3624   -2.0562   -0.0000 C   0  0  0  0  0  0  0  0  0  0  0  0
   -1.4129   -2.0688   -0.0000 C   0  0  0  0  0  0  0  0  0  0  0  0
    1.3498   -3.6457   -0.0000 C   0  0  0  0  0  0  0  0  0  0  0  0
   -1.4255   -3.6583   -0.0000 C   0  0  0  0  0  0  0  0  0  0  0  0
   -0.0505   -4.4404   -0.0000 C   0  0  0  0  0  0  0  0  0  0  0  0
   -0.0631   -6.0299   -0.0000 S   0  0  0  0  0  0  0  0  0  0  0  0
   -0.9966   -6.5597   -0.0000 O   0  0  0  0  0  0  0  0  0  0  0  0
   -0.9966   -5.4874   -0.0000 O   0  0  0  0  0  0  0  0  0  0  0  0
    1.3119   -6.8120   -0.0000 C   0  0  0  0  0  0  0  0  0  0  0  0
   -0.0126   -7.6193   -0.0000 C   0  0  0  0  0  0  0  0  0  0  0  0
    1.3372   -5.2351   -0.0000 C   0  0  0  0  0  0  0  0  0  0  0  0
    2.6869   -7.5941   -0.0000 C   0  0  0  0  0  0  0  0  0  0  0  0
   -1.4633   -6.7867   -0.0000 C   0  0  0  0  0  0  0  0  0  0  0  0
   -0.0757   -9.1962   -0.0000 C   0  0  0  0  0  0  0  0  0  0  0  0
    2.6617   -4.3773   -0.0000 C   0  0  0  0  0  0  0  0  0  0  0  0
   -0.1135   -4.4025   -0.0000 C   0  0  0  0  0  0  0  0  0  0  0  0
    4.0746   -6.7867   -0.0000 C   0  0  0  0  0  0  0  0  0  0  0  0
   -1.4885   -5.1973   -0.0000 O   0  0  0  0  0  0  0  0  0  0  0  0
   -2.8635   -7.5941   -0.0000 C   0  0  0  0  0  0  0  0  0  0  0  0
    1.0218   -9.8269   -0.0000 F   0  0  0  0  0  0  0  0  0  0  0  0
   -1.4129  -10.0161   -0.0000 C   0  0  0  0  0  0  0  0  0  0  0  0
    4.0367   -5.1594   -0.0000 O   0  0  0  0  0  0  0  0  0  0  0  0
    2.5986   -2.7626   -0.0000 C   0  0  0  0  0  0  0  0  0  0  0  0
   -3.8097   -7.0516   -0.0000 F   0  0  0  0  0  0  0  0  0  0  0  0
   -2.8635   -9.1835   -0.0000 C   0  0  0  0  0  0  0  0  0  0  0  0
    3.9484   -1.9048   -0.0000 N   0  0  0  0  0  0  0  0  0  0  0  0
    3.8853   -0.2901   -0.0000 S   0  0  0  0  0  0  0  0  0  0  0  0
    2.7500    0.3280   -0.0000 O   0  0  0  0  0  0  0  0  0  0  0  0
    2.7879   -0.9461   -0.0000 O   0  0  0  0  0  0  0  0  0  0  0  0
    5.2351    0.5677   -0.0000 C   0  0  0  0  0  0  0  0  0  0  0  0
    6.3074    1.2489   -0.0000 F   0  0  0  0  0  0  0  0  0  0  0  0
    5.1847    1.8670   -0.0000 F   0  0  0  0  0  0  0  0  0  0  0  0
    6.3452   -0.0252   -0.0000 F   0  0  0  0  0  0  0  0  0  0  0  0
  1  2  1  0  0  0  0
  2  3  2  0  0  0  0
  2  4  1  0  0  0  0
  3  5  1  0  0  0  0
  4  6  2  0  0  0  0
  5  7  2  0  0  0  0
  7  8  1  0  0  0  0
  8  9  2  0  0  0  0
  8 10  2  0  0  0  0
 11  8  1  6  0  0  0
 11 12  1  0  0  0  0
 11 13  1  0  0  0  0
 11 14  1  0  0  0  0
 12 15  2  0  0  0  0
 12 16  1  0  0  0  0
 13 17  1  0  0  0  0
 13 18  1  1  0  0  0
 14 19  1  0  0  0  0
 15 20  1  0  0  0  0
 15 21  1  0  0  0  0
 16 22  1  0  0  0  0
 16 23  2  0  0  0  0
 17 24  1  0  0  0  0
 17 25  1  6  0  0  0
 21 26  1  0  0  0  0
 21 27  2  0  0  0  0
 25 28  1  0  0  0  0
 28 29  1  0  0  0  0
 29 30  2  0  0  0  0
 29 31  2  0  0  0  0
 29 32  1  0  0  0  0
 32 33  1  0  0  0  0
 32 34  1  0  0  0  0
 32 35  1  0  0  0  0
  6  7  1  0  0  0  0
 18 20  1  0  0  0  0
 19 24  1  0  0  0  0
 23 27  1  0  0  0  0
M  END
>  <MolRegNo>
1967904

>  <m>
=

>  <Value>
21400

>  <Unit>
nM

>  <Type>
IC50

>  <pValue>
4.67

>  <Ligand Efficiency>
0

>  <Binding Efficiency>
0

>  <Surface Efficiency>
0

>  <Assay Index>
968721

>  <Assay Category>


>  <Assay Organism>
Homo sapiens

>  <Target ID>
17045

>  <Target Name>
Cytochrome P450 3A4

>  <Target Organism>
Homo sapiens

>  <Target Description>
Target is a single protein chain

>  <Sequence Accession>
P08684

>  <Reference>
J Med Chem 58 (22), 8806-8817 (2015)

>  <Pubmed ID>
26496070

>  <DOI>
10.1021/acs.jmedchem.5b00774

$$$$
1969975
Actelion Java MolfileCreator 1.0

 35 39  0  0  0  0  0  0  0  0999 V2000
    0.0000   -0.0000   -0.0000 F   0  0  0  0  0  0  0  0  0  0  0  0
   -0.6233   -1.0632   -0.0000 C   0  0  0  0  0  0  0  0  0  0  0  0
   -2.1875   -1.0632   -0.0000 C   0  0  0  0  0  0  0  0  0  0  0  0
    0.1466   -2.3830   -0.0000 C   0  0  0  0  0  0  0  0  0  0  0  0
   -2.9941    0.2811   -0.0000 N   0  0  0  0  0  0  0  0  0  0  0  0
   -2.9696   -2.3952   -0.0000 C   0  0  0  0  0  0  0  0  0  0  0  0
   -0.6355   -3.7151   -0.0000 C   0  0  0  0  0  0  0  0  0  0  0  0
   -4.5583    0.2811   -0.0000 C   0  0  0  0  0  0  0  0  0  0  0  0
   -2.1997   -3.7151   -0.0000 C   0  0  0  0  0  0  0  0  0  0  0  0
   -5.4748   -0.9654   -0.0000 N   0  0  0  0  0  0  0  0  0  0  0  0
   -5.4748    1.5154   -0.0000 N   0  0  0  0  0  0  0  0  0  0  0  0
   -2.9818   -5.0471   -0.0000 C   0  0  0  0  0  0  0  0  0  0  0  0
   -6.9535   -0.4766   -0.0000 C   0  0  0  0  0  0  0  0  0  0  0  0
   -6.9535    1.0510   -0.0000 C   0  0  0  0  0  0  0  0  0  0  0  0
   -5.1082    2.7130   -0.0000 C   0  0  0  0  0  0  0  0  0  0  0  0
   -2.3708   -6.1103   -0.0000 F   0  0  0  0  0  0  0  0  0  0  0  0
   -4.2406   -5.0471   -0.0000 F   0  0  0  0  0  0  0  0  0  0  0  0
   -3.6051   -6.1103   -0.0000 F   0  0  0  0  0  0  0  0  0  0  0  0
   -8.3100   -1.2587   -0.0000 C   0  0  0  0  0  0  0  0  0  0  0  0
   -8.3100    1.8575   -0.0000 C   0  0  0  0  0  0  0  0  0  0  0  0
   -9.6787   -0.4522   -0.0000 C   0  0  0  0  0  0  0  0  0  0  0  0
   -9.6787    1.0754   -0.0000 C   0  0  0  0  0  0  0  0  0  0  0  0
  -11.0352   -1.2098   -0.0000 O   0  0  0  0  0  0  0  0  0  0  0  0
  -11.0597   -2.7496   -0.0000 C   0  0  0  0  0  0  0  0  0  0  0  0
   -9.7276   -3.5195   -0.0000 C   0  0  0  0  0  0  0  0  0  0  0  0
  -12.4162   -3.5073   -0.0000 C   0  0  0  0  0  0  0  0  0  0  0  0
   -9.7398   -5.0593   -0.0000 C   0  0  0  0  0  0  0  0  0  0  0  0
  -12.4284   -5.0471   -0.0000 C   0  0  0  0  0  0  0  0  0  0  0  0
  -11.0963   -5.8170   -0.0000 N   0  0  0  0  0  0  0  0  0  0  0  0
   -8.4078   -5.8292   -0.0000 C   0  0  0  0  0  0  0  0  0  0  0  0
   -7.0269   -5.1816   -0.0000 N   0  0  0  0  0  0  0  0  0  0  0  0
   -8.2856   -7.3446   -0.0000 N   0  0  0  0  0  0  0  0  0  0  0  0
   -6.0003   -6.3181   -0.0000 C   0  0  0  0  0  0  0  0  0  0  0  0
   -6.7825   -7.6623   -0.0000 C   0  0  0  0  0  0  0  0  0  0  0  0
   -6.2936   -8.7866   -0.0000 C   0  0  0  0  0  0  0  0  0  0  0  0
  1  2  1  0  0  0  0
  2  3  2  0  0  0  0
  2  4  1  0  0  0  0
  3  5  1  0  0  0  0
  3  6  1  0  0  0  0
  4  7  2  0  0  0  0
  5  8  1  0  0  0  0
  6  9  2  0  0  0  0
  8 10  2  0  0  0  0
  8 11  1  0  0  0  0
  9 12  1  0  0  0  0
 10 13  1  0  0  0  0
 11 14  1  0  0  0  0
 11 15  1  0  0  0  0
 12 16  1  0  0  0  0
 12 17  1  0  0  0  0
 12 18  1  0  0  0  0
 13 19  1  0  0  0  0
 14 20  1  0  0  0  0
 19 21  2  0  0  0  0
 20 22  2  0  0  0  0
 21 23  1  0  0  0  0
 23 24  1  0  0  0  0
 24 25  2  0  0  0  0
 24 26  1  0  0  0  0
 25 27  1  0  0  0  0
 26 28  2  0  0  0  0
 27 29  2  0  0  0  0
 27 30  1  0  0  0  0
 30 31  2  0  0  0  0
 30 32  1  0  0  0  0
 31 33  1  0  0  0  0
 32 34  1  0  0  0  0
 34 35  1  0  0  0  0
  7  9  1  0  0  0  0
 13 14  2  0  0  0  0
 21 22  1  0  0  0  0
 28 29  1  0  0  0  0
 33 34  2  0  0  0  0
M  END
>  <MolRegNo>
1969975

>  <m>
=

>  <Value>
3400

>  <Unit>
nM

>  <Type>
IC50

>  <pValue>
5.47

>  <Ligand Efficiency>
0

>  <Binding Efficiency>
0

>  <Surface Efficiency>
0

>  <Assay Index>
971541

>  <Assay Category>


>  <Assay Organism>
Homo sapiens

>  <Target ID>
17045

>  <Target Name>
Cytochrome P450 3A4

>  <Target Organism>
Homo sapiens

>  <Target Description>
Target is a single protein chain

>  <Sequence Accession>
P08684

>  <Reference>
ACS Med Chem Lett 6 (9), 961-965 (2015)

>  <Pubmed ID>
26396681

>  <DOI>
10.1021/ml500526p

$$$$
1969974
Actelion Java MolfileCreator 1.0

 38 42  0  0  0  0  0  0  0  0999 V2000
    0.0000   -0.0000   -0.0000 F   0  0  0  0  0  0  0  0  0  0  0  0
   -0.6282   -1.0717   -0.0000 C   0  0  0  0  0  0  0  0  0  0  0  0
   -2.2050   -1.0717   -0.0000 C   0  0  0  0  0  0  0  0  0  0  0  0
    0.1478   -2.4021   -0.0000 C   0  0  0  0  0  0  0  0  0  0  0  0
   -3.0180    0.2833   -0.0000 N   0  0  0  0  0  0  0  0  0  0  0  0
   -2.9934   -2.4144   -0.0000 C   0  0  0  0  0  0  0  0  0  0  0  0
   -0.6406   -3.7448   -0.0000 C   0  0  0  0  0  0  0  0  0  0  0  0
   -4.5948    0.2833   -0.0000 C   0  0  0  0  0  0  0  0  0  0  0  0
   -2.2173   -3.7448   -0.0000 C   0  0  0  0  0  0  0  0  0  0  0  0
   -5.5187   -0.9732   -0.0000 N   0  0  0  0  0  0  0  0  0  0  0  0
   -5.5187    1.5275   -0.0000 N   0  0  0  0  0  0  0  0  0  0  0  0
   -3.0057   -5.0875   -0.0000 C   0  0  0  0  0  0  0  0  0  0  0  0
   -7.0092   -0.4804   -0.0000 C   0  0  0  0  0  0  0  0  0  0  0  0
   -7.0092    1.0594   -0.0000 C   0  0  0  0  0  0  0  0  0  0  0  0
   -5.1491    2.7347   -0.0000 C   0  0  0  0  0  0  0  0  0  0  0  0
   -2.3898   -6.1592   -0.0000 F   0  0  0  0  0  0  0  0  0  0  0  0
   -4.2745   -5.0875   -0.0000 F   0  0  0  0  0  0  0  0  0  0  0  0
   -3.6339   -6.1592   -0.0000 F   0  0  0  0  0  0  0  0  0  0  0  0
   -8.3765   -1.2688   -0.0000 C   0  0  0  0  0  0  0  0  0  0  0  0
   -8.3765    1.8724   -0.0000 C   0  0  0  0  0  0  0  0  0  0  0  0
   -9.7562   -0.4558   -0.0000 C   0  0  0  0  0  0  0  0  0  0  0  0
   -9.7562    1.0840   -0.0000 C   0  0  0  0  0  0  0  0  0  0  0  0
  -11.1236   -1.2195   -0.0000 O   0  0  0  0  0  0  0  0  0  0  0  0
  -11.1482   -2.7716   -0.0000 C   0  0  0  0  0  0  0  0  0  0  0  0
   -9.8055   -3.5477   -0.0000 C   0  0  0  0  0  0  0  0  0  0  0  0
  -12.5155   -3.5354   -0.0000 C   0  0  0  0  0  0  0  0  0  0  0  0
   -9.8178   -5.0998   -0.0000 C   0  0  0  0  0  0  0  0  0  0  0  0
  -12.5279   -5.0875   -0.0000 C   0  0  0  0  0  0  0  0  0  0  0  0
  -11.1851   -5.8636   -0.0000 N   0  0  0  0  0  0  0  0  0  0  0  0
   -8.4751   -5.8759   -0.0000 C   0  0  0  0  0  0  0  0  0  0  0  0
   -7.0831   -5.2230   -0.0000 N   0  0  0  0  0  0  0  0  0  0  0  0
   -8.3519   -7.4034   -0.0000 N   0  0  0  0  0  0  0  0  0  0  0  0
   -6.0484   -6.3686   -0.0000 C   0  0  0  0  0  0  0  0  0  0  0  0
   -6.8367   -7.7237   -0.0000 C   0  0  0  0  0  0  0  0  0  0  0  0
   -6.2208   -9.1403   -0.0000 C   0  0  0  0  0  0  0  0  0  0  0  0
   -6.9722  -10.1381   -0.0000 F   0  0  0  0  0  0  0  0  0  0  0  0
   -4.9890   -9.2635   -0.0000 F   0  0  0  0  0  0  0  0  0  0  0  0
   -5.7281  -10.2736   -0.0000 F   0  0  0  0  0  0  0  0  0  0  0  0
  1  2  1  0  0  0  0
  2  3  2  0  0  0  0
  2  4  1  0  0  0  0
  3  5  1  0  0  0  0
  3  6  1  0  0  0  0
  4  7  2  0  0  0  0
  5  8  1  0  0  0  0
  6  9  2  0  0  0  0
  8 10  2  0  0  0  0
  8 11  1  0  0  0  0
  9 12  1  0  0  0  0
 10 13  1  0  0  0  0
 11 14  1  0  0  0  0
 11 15  1  0  0  0  0
 12 16  1  0  0  0  0
 12 17  1  0  0  0  0
 12 18  1  0  0  0  0
 13 19  1  0  0  0  0
 14 20  1  0  0  0  0
 19 21  2  0  0  0  0
 20 22  2  0  0  0  0
 21 23  1  0  0  0  0
 23 24  1  0  0  0  0
 24 25  2  0  0  0  0
 24 26  1  0  0  0  0
 25 27  1  0  0  0  0
 26 28  2  0  0  0  0
 27 29  2  0  0  0  0
 27 30  1  0  0  0  0
 30 31  2  0  0  0  0
 30 32  1  0  0  0  0
 31 33  1  0  0  0  0
 32 34  1  0  0  0  0
 34 35  1  0  0  0  0
 35 36  1  0  0  0  0
 35 37  1  0  0  0  0
 35 38  1  0  0  0  0
  7  9  1  0  0  0  0
 13 14  2  0  0  0  0
 21 22  1  0  0  0  0
 28 29  1  0  0  0  0
 33 34  2  0  0  0  0
M  END
>  <MolRegNo>
1969974

>  <m>
=

>  <Value>
26000

>  <Unit>
nM

>  <Type>
IC50

>  <pValue>
4.58

>  <Ligand Efficiency>
0

>  <Binding Efficiency>
0

>  <Surface Efficiency>
0

>  <Assay Index>
971541

>  <Assay Category>


>  <Assay Organism>
Homo sapiens

>  <Target ID>
17045

>  <Target Name>
Cytochrome P450 3A4

>  <Target Organism>
Homo sapiens

>  <Target Description>
Target is a single protein chain

>  <Sequence Accession>
P08684

>  <Reference>
ACS Med Chem Lett 6 (9), 961-965 (2015)

>  <Pubmed ID>
26396681

>  <DOI>
10.1021/ml500526p

$$$$
1969972
Actelion Java MolfileCreator 1.0

 38 42  0  0  0  0  0  0  0  0999 V2000
    0.0000   -0.0000   -0.0000 F   0  0  0  0  0  0  0  0  0  0  0  0
   -0.6282   -1.0717   -0.0000 C   0  0  0  0  0  0  0  0  0  0  0  0
   -2.2050   -1.0717   -0.0000 C   0  0  0  0  0  0  0  0  0  0  0  0
    0.1478   -2.4021   -0.0000 C   0  0  0  0  0  0  0  0  0  0  0  0
   -3.0180    0.2833   -0.0000 N   0  0  0  0  0  0  0  0  0  0  0  0
   -2.9934   -2.4144   -0.0000 C   0  0  0  0  0  0  0  0  0  0  0  0
   -0.6406   -3.7448   -0.0000 C   0  0  0  0  0  0  0  0  0  0  0  0
   -4.5948    0.2833   -0.0000 C   0  0  0  0  0  0  0  0  0  0  0  0
   -2.2173   -3.7448   -0.0000 C   0  0  0  0  0  0  0  0  0  0  0  0
   -5.5187   -0.9732   -0.0000 N   0  0  0  0  0  0  0  0  0  0  0  0
   -5.5187    1.5275   -0.0000 N   0  0  0  0  0  0  0  0  0  0  0  0
   -3.0057   -5.0875   -0.0000 C   0  0  0  0  0  0  0  0  0  0  0  0
   -7.0092   -0.4804   -0.0000 C   0  0  0  0  0  0  0  0  0  0  0  0
   -7.0092    1.0594   -0.0000 C   0  0  0  0  0  0  0  0  0  0  0  0
   -5.1491    2.7347   -0.0000 C   0  0  0  0  0  0  0  0  0  0  0  0
   -2.3898   -6.1592   -0.0000 C   0  0  0  0  0  0  0  0  0  0  0  0
   -4.2745   -5.0875   -0.0000 C   0  0  0  0  0  0  0  0  0  0  0  0
   -3.6339   -6.1592   -0.0000 C   0  0  0  0  0  0  0  0  0  0  0  0
   -8.3765   -1.2688   -0.0000 C   0  0  0  0  0  0  0  0  0  0  0  0
   -8.3765    1.8724   -0.0000 C   0  0  0  0  0  0  0  0  0  0  0  0
   -9.7562   -0.4558   -0.0000 C   0  0  0  0  0  0  0  0  0  0  0  0
   -9.7562    1.0840   -0.0000 C   0  0  0  0  0  0  0  0  0  0  0  0
  -11.1236   -1.2195   -0.0000 O   0  0  0  0  0  0  0  0  0  0  0  0
  -11.1482   -2.7716   -0.0000 C   0  0  0  0  0  0  0  0  0  0  0  0
   -9.8055   -3.5477   -0.0000 C   0  0  0  0  0  0  0  0  0  0  0  0
  -12.5155   -3.5354   -0.0000 C   0  0  0  0  0  0  0  0  0  0  0  0
   -9.8178   -5.0998   -0.0000 C   0  0  0  0  0  0  0  0  0  0  0  0
  -12.5279   -5.0875   -0.0000 C   0  0  0  0  0  0  0  0  0  0  0  0
  -11.1851   -5.8636   -0.0000 N   0  0  0  0  0  0  0  0  0  0  0  0
   -8.4751   -5.8759   -0.0000 C   0  0  0  0  0  0  0  0  0  0  0  0
   -7.0831   -5.2230   -0.0000 N   0  0  0  0  0  0  0  0  0  0  0  0
   -8.3519   -7.4034   -0.0000 N   0  0  0  0  0  0  0  0  0  0  0  0
   -6.0484   -6.3686   -0.0000 C   0  0  0  0  0  0  0  0  0  0  0  0
   -6.8367   -7.7237   -0.0000 C   0  0  0  0  0  0  0  0  0  0  0  0
   -6.2208   -9.1403   -0.0000 C   0  0  0  0  0  0  0  0  0  0  0  0
   -6.9722  -10.1381   -0.0000 F   0  0  0  0  0  0  0  0  0  0  0  0
   -4.9890   -9.2635   -0.0000 F   0  0  0  0  0  0  0  0  0  0  0  0
   -5.7281  -10.2736   -0.0000 F   0  0  0  0  0  0  0  0  0  0  0  0
  1  2  1  0  0  0  0
  2  3  2  0  0  0  0
  2  4  1  0  0  0  0
  3  5  1  0  0  0  0
  3  6  1  0  0  0  0
  4  7  2  0  0  0  0
  5  8  1  0  0  0  0
  6  9  2  0  0  0  0
  8 10  2  0  0  0  0
  8 11  1  0  0  0  0
  9 12  1  0  0  0  0
 10 13  1  0  0  0  0
 11 14  1  0  0  0  0
 11 15  1  0  0  0  0
 12 16  1  0  0  0  0
 12 17  1  0  0  0  0
 12 18  1  0  0  0  0
 13 19  1  0  0  0  0
 14 20  1  0  0  0  0
 19 21  2  0  0  0  0
 20 22  2  0  0  0  0
 21 23  1  0  0  0  0
 23 24  1  0  0  0  0
 24 25  2  0  0  0  0
 24 26  1  0  0  0  0
 25 27  1  0  0  0  0
 26 28  2  0  0  0  0
 27 29  2  0  0  0  0
 27 30  1  0  0  0  0
 30 31  2  0  0  0  0
 30 32  1  0  0  0  0
 31 33  1  0  0  0  0
 32 34  1  0  0  0  0
 34 35  1  0  0  0  0
 35 36  1  0  0  0  0
 35 37  1  0  0  0  0
 35 38  1  0  0  0  0
  7  9  1  0  0  0  0
 13 14  2  0  0  0  0
 21 22  1  0  0  0  0
 28 29  1  0  0  0  0
 33 34  2  0  0  0  0
M  END
>  <MolRegNo>
1969972

>  <m>
=

>  <Value>
3300

>  <Unit>
nM

>  <Type>
IC50

>  <pValue>
5.48

>  <Ligand Efficiency>
0

>  <Binding Efficiency>
0

>  <Surface Efficiency>
0

>  <Assay Index>
971541

>  <Assay Category>


>  <Assay Organism>
Homo sapiens

>  <Target ID>
17045

>  <Target Name>
Cytochrome P450 3A4

>  <Target Organism>
Homo sapiens

>  <Target Description>
Target is a single protein chain

>  <Sequence Accession>
P08684

>  <Reference>
ACS Med Chem Lett 6 (9), 961-965 (2015)

>  <Pubmed ID>
26396681

>  <DOI>
10.1021/ml500526p

$$$$
1969971
Actelion Java MolfileCreator 1.0

 37 41  0  0  0  0  0  0  0  0999 V2000
    0.0000   -0.0000   -0.0000 F   0  0  0  0  0  0  0  0  0  0  0  0
    0.7225    1.0164   -0.0000 C   0  0  0  0  0  0  0  0  0  0  0  0
    1.9471    0.8939   -0.0000 F   0  0  0  0  0  0  0  0  0  0  0  0
    1.2123   -0.1102   -0.0000 F   0  0  0  0  0  0  0  0  0  0  0  0
    0.0857    2.4492   -0.0000 C   0  0  0  0  0  0  0  0  0  0  0  0
   -1.4450    2.7920   -0.0000 N   0  0  0  0  0  0  0  0  0  0  0  0
    0.8572    3.8085   -0.0000 C   0  0  0  0  0  0  0  0  0  0  0  0
   -1.5920    4.3350   -0.0000 C   0  0  0  0  0  0  0  0  0  0  0  0
   -0.1959    4.9718   -0.0000 N   0  0  0  0  0  0  0  0  0  0  0  0
   -2.9512    5.1310   -0.0000 C   0  0  0  0  0  0  0  0  0  0  0  0
   -4.3105    4.3718   -0.0000 N   0  0  0  0  0  0  0  0  0  0  0  0
   -2.9635    6.6985   -0.0000 C   0  0  0  0  0  0  0  0  0  0  0  0
   -5.6698    5.1677   -0.0000 C   0  0  0  0  0  0  0  0  0  0  0  0
   -4.3228    7.4944   -0.0000 C   0  0  0  0  0  0  0  0  0  0  0  0
   -5.6821    6.7352   -0.0000 C   0  0  0  0  0  0  0  0  0  0  0  0
   -4.3228    9.0619   -0.0000 O   0  0  0  0  0  0  0  0  0  0  0  0
   -2.9880    9.8456   -0.0000 C   0  0  0  0  0  0  0  0  0  0  0  0
   -1.6409    9.0619   -0.0000 C   0  0  0  0  0  0  0  0  0  0  0  0
   -3.0002   11.4131   -0.0000 C   0  0  0  0  0  0  0  0  0  0  0  0
   -0.3061    9.8701   -0.0000 C   0  0  0  0  0  0  0  0  0  0  0  0
   -1.6532   12.2213   -0.0000 C   0  0  0  0  0  0  0  0  0  0  0  0
    1.1511    9.4048   -0.0000 N   0  0  0  0  0  0  0  0  0  0  0  0
   -0.3184   11.4376   -0.0000 C   0  0  0  0  0  0  0  0  0  0  0  0
    2.0451   10.6784   -0.0000 C   0  0  0  0  0  0  0  0  0  0  0  0
    1.1389   11.9274   -0.0000 N   0  0  0  0  0  0  0  0  0  0  0  0
    3.5880   10.7029   -0.0000 N   0  0  0  0  0  0  0  0  0  0  0  0
    1.5062   13.1275   -0.0000 C   0  0  0  0  0  0  0  0  0  0  0  0
    4.3718    9.3803   -0.0000 C   0  0  0  0  0  0  0  0  0  0  0  0
    5.9147    9.4048   -0.0000 C   0  0  0  0  0  0  0  0  0  0  0  0
    3.5880    8.0455   -0.0000 C   0  0  0  0  0  0  0  0  0  0  0  0
    6.6862    8.0822   -0.0000 C   0  0  0  0  0  0  0  0  0  0  0  0
    4.3595    6.7230   -0.0000 C   0  0  0  0  0  0  0  0  0  0  0  0
    5.9025    6.7475   -0.0000 C   0  0  0  0  0  0  0  0  0  0  0  0
    6.6740    5.4249   -0.0000 C   0  0  0  0  0  0  0  0  0  0  0  0
    7.9108    5.4494   -0.0000 C   0  0  0  0  0  0  0  0  0  0  0  0
    6.0494    4.3595   -0.0000 C   0  0  0  0  0  0  0  0  0  0  0  0
    7.2863    4.3595   -0.0000 C   0  0  0  0  0  0  0  0  0  0  0  0
  1  2  1  0  0  0  0
  2  3  1  0  0  0  0
  2  4  1  0  0  0  0
  2  5  1  0  0  0  0
  5  6  1  0  0  0  0
  5  7  2  0  0  0  0
  6  8  1  0  0  0  0
  7  9  1  0  0  0  0
  8 10  1  0  0  0  0
 10 11  2  0  0  0  0
 10 12  1  0  0  0  0
 11 13  1  0  0  0  0
 12 14  2  0  0  0  0
 13 15  2  0  0  0  0
 14 16  1  0  0  0  0
 16 17  1  0  0  0  0
 17 18  2  0  0  0  0
 17 19  1  0  0  0  0
 18 20  1  0  0  0  0
 19 21  2  0  0  0  0
 20 22  1  0  0  0  0
 20 23  2  0  0  0  0
 22 24  2  0  0  0  0
 23 25  1  0  0  0  0
 24 26  1  0  0  0  0
 25 27  1  0  0  0  0
 26 28  1  0  0  0  0
 28 29  2  0  0  0  0
 28 30  1  0  0  0  0
 29 31  1  0  0  0  0
 30 32  2  0  0  0  0
 31 33  2  0  0  0  0
 33 34  1  0  0  0  0
 34 35  1  0  0  0  0
 34 36  1  0  0  0  0
 34 37  1  0  0  0  0
  8  9  2  0  0  0  0
 14 15  1  0  0  0  0
 21 23  1  0  0  0  0
 24 25  1  0  0  0  0
 32 33  1  0  0  0  0
M  END
>  <MolRegNo>
1969971

>  <m>
=

>  <Value>
34000

>  <Unit>
nM

>  <Type>
IC50

>  <pValue>
4.47

>  <Ligand Efficiency>
0

>  <Binding Efficiency>
0

>  <Surface Efficiency>
0

>  <Assay Index>
971541

>  <Assay Category>


>  <Assay Organism>
Homo sapiens

>  <Target ID>
17045

>  <Target Name>
Cytochrome P450 3A4

>  <Target Organism>
Homo sapiens

>  <Target Description>
Target is a single protein chain

>  <Sequence Accession>
P08684

>  <Reference>
ACS Med Chem Lett 6 (9), 961-965 (2015)

>  <Pubmed ID>
26396681

>  <DOI>
10.1021/ml500526p

$$$$
1969970
Actelion Java MolfileCreator 1.0

 37 41  0  0  0  0  0  0  0  0999 V2000
    0.0000   -0.0000   -0.0000 F   0  0  0  0  0  0  0  0  0  0  0  0
    0.7223    1.0161   -0.0000 C   0  0  0  0  0  0  0  0  0  0  0  0
    1.9464    0.8936   -0.0000 F   0  0  0  0  0  0  0  0  0  0  0  0
    1.2119   -0.1102   -0.0000 F   0  0  0  0  0  0  0  0  0  0  0  0
    0.0857    2.4483   -0.0000 C   0  0  0  0  0  0  0  0  0  0  0  0
   -1.4445    2.7911   -0.0000 N   0  0  0  0  0  0  0  0  0  0  0  0
    0.8569    3.8071   -0.0000 C   0  0  0  0  0  0  0  0  0  0  0  0
   -1.5914    4.3335   -0.0000 C   0  0  0  0  0  0  0  0  0  0  0  0
   -0.1959    4.9701   -0.0000 N   0  0  0  0  0  0  0  0  0  0  0  0
   -2.9502    5.1292   -0.0000 C   0  0  0  0  0  0  0  0  0  0  0  0
   -4.3090    4.3703   -0.0000 N   0  0  0  0  0  0  0  0  0  0  0  0
   -2.9625    6.6962   -0.0000 C   0  0  0  0  0  0  0  0  0  0  0  0
   -5.6679    5.1660   -0.0000 C   0  0  0  0  0  0  0  0  0  0  0  0
   -4.3213    7.4919   -0.0000 C   0  0  0  0  0  0  0  0  0  0  0  0
   -5.6801    6.7329   -0.0000 C   0  0  0  0  0  0  0  0  0  0  0  0
   -4.3213    9.0588   -0.0000 O   0  0  0  0  0  0  0  0  0  0  0  0
   -2.9870    9.8422   -0.0000 C   0  0  0  0  0  0  0  0  0  0  0  0
   -1.6404    9.0588   -0.0000 C   0  0  0  0  0  0  0  0  0  0  0  0
   -2.9992   11.4092   -0.0000 C   0  0  0  0  0  0  0  0  0  0  0  0
   -0.3060    9.8667   -0.0000 C   0  0  0  0  0  0  0  0  0  0  0  0
   -1.6526   12.2171   -0.0000 C   0  0  0  0  0  0  0  0  0  0  0  0
    1.1507    9.4016   -0.0000 N   0  0  0  0  0  0  0  0  0  0  0  0
   -0.3183   11.4337   -0.0000 C   0  0  0  0  0  0  0  0  0  0  0  0
    2.0443   10.6747   -0.0000 C   0  0  0  0  0  0  0  0  0  0  0  0
    1.1385   11.9233   -0.0000 N   0  0  0  0  0  0  0  0  0  0  0  0
    3.5868   10.6992   -0.0000 N   0  0  0  0  0  0  0  0  0  0  0  0
    1.5057   13.1230   -0.0000 C   0  0  0  0  0  0  0  0  0  0  0  0
    4.3703    9.3771   -0.0000 C   0  0  0  0  0  0  0  0  0  0  0  0
    5.9127    9.4016   -0.0000 C   0  0  0  0  0  0  0  0  0  0  0  0
    3.5868    8.0427   -0.0000 C   0  0  0  0  0  0  0  0  0  0  0  0
    6.6839    8.0795   -0.0000 C   0  0  0  0  0  0  0  0  0  0  0  0
    4.3580    6.7206   -0.0000 C   0  0  0  0  0  0  0  0  0  0  0  0
    5.9005    6.7451   -0.0000 C   0  0  0  0  0  0  0  0  0  0  0  0
    8.2264    8.1039   -0.0000 C   0  0  0  0  0  0  0  0  0  0  0  0
    8.8262    9.1934   -0.0000 C   0  0  0  0  0  0  0  0  0  0  0  0
    8.8384    7.0389   -0.0000 C   0  0  0  0  0  0  0  0  0  0  0  0
    9.4628    8.1284   -0.0000 C   0  0  0  0  0  0  0  0  0  0  0  0
  1  2  1  0  0  0  0
  2  3  1  0  0  0  0
  2  4  1  0  0  0  0
  2  5  1  0  0  0  0
  5  6  1  0  0  0  0
  5  7  2  0  0  0  0
  6  8  1  0  0  0  0
  7  9  1  0  0  0  0
  8 10  1  0  0  0  0
 10 11  2  0  0  0  0
 10 12  1  0  0  0  0
 11 13  1  0  0  0  0
 12 14  2  0  0  0  0
 13 15  2  0  0  0  0
 14 16  1  0  0  0  0
 16 17  1  0  0  0  0
 17 18  2  0  0  0  0
 17 19  1  0  0  0  0
 18 20  1  0  0  0  0
 19 21  2  0  0  0  0
 20 22  1  0  0  0  0
 20 23  2  0  0  0  0
 22 24  2  0  0  0  0
 23 25  1  0  0  0  0
 24 26  1  0  0  0  0
 25 27  1  0  0  0  0
 26 28  1  0  0  0  0
 28 29  2  0  0  0  0
 28 30  1  0  0  0  0
 29 31  1  0  0  0  0
 30 32  2  0  0  0  0
 31 33  2  0  0  0  0
 31 34  1  0  0  0  0
 34 35  1  0  0  0  0
 34 36  1  0  0  0  0
 34 37  1  0  0  0  0
  8  9  2  0  0  0  0
 14 15  1  0  0  0  0
 21 23  1  0  0  0  0
 24 25  1  0  0  0  0
 32 33  1  0  0  0  0
M  END
>  <MolRegNo>
1969970

>  <m>
=

>  <Value>
10000

>  <Unit>
nM

>  <Type>
IC50

>  <pValue>
5

>  <Ligand Efficiency>
0

>  <Binding Efficiency>
0

>  <Surface Efficiency>
0

>  <Assay Index>
971541

>  <Assay Category>


>  <Assay Organism>
Homo sapiens

>  <Target ID>
17045

>  <Target Name>
Cytochrome P450 3A4

>  <Target Organism>
Homo sapiens

>  <Target Description>
Target is a single protein chain

>  <Sequence Accession>
P08684

>  <Reference>
ACS Med Chem Lett 6 (9), 961-965 (2015)

>  <Pubmed ID>
26396681

>  <DOI>
10.1021/ml500526p

$$$$
1969969
Actelion Java MolfileCreator 1.0

 39 44  0  0  0  0  0  0  0  0999 V2000
    0.0000   -0.0000   -0.0000 O   0  0  0  0  0  0  0  0  0  0  0  0
   -0.0242   -1.5262   -0.0000 C   0  0  0  0  0  0  0  0  0  0  0  0
    1.3203    0.7752   -0.0000 C   0  0  0  0  0  0  0  0  0  0  0  0
    1.2961   -2.2894   -0.0000 C   0  0  0  0  0  0  0  0  0  0  0  0
   -1.3688   -2.2772   -0.0000 C   0  0  0  0  0  0  0  0  0  0  0  0
    2.6527   -0.0000   -0.0000 C   0  0  0  0  0  0  0  0  0  0  0  0
    1.3082    2.3136   -0.0000 C   0  0  0  0  0  0  0  0  0  0  0  0
    1.2840   -3.8156   -0.0000 C   0  0  0  0  0  0  0  0  0  0  0  0
   -1.3809   -3.8035   -0.0000 C   0  0  0  0  0  0  0  0  0  0  0  0
    3.9731    0.7995   -0.0000 C   0  0  0  0  0  0  0  0  0  0  0  0
    2.6406    3.1130   -0.0000 C   0  0  0  0  0  0  0  0  0  0  0  0
   -0.0606   -4.5666   -0.0000 N   0  0  0  0  0  0  0  0  0  0  0  0
    2.6043   -4.5787   -0.0000 C   0  0  0  0  0  0  0  0  0  0  0  0
    5.4145    0.3392   -0.0000 N   0  0  0  0  0  0  0  0  0  0  0  0
    3.9609    2.3378   -0.0000 C   0  0  0  0  0  0  0  0  0  0  0  0
    3.9731   -3.9367   -0.0000 N   0  0  0  0  0  0  0  0  0  0  0  0
    2.7254   -6.0807   -0.0000 N   0  0  0  0  0  0  0  0  0  0  0  0
    6.2988    1.5989   -0.0000 C   0  0  0  0  0  0  0  0  0  0  0  0
    5.4024    2.8223   -0.0000 N   0  0  0  0  0  0  0  0  0  0  0  0
    4.9906   -5.0632   -0.0000 C   0  0  0  0  0  0  0  0  0  0  0  0
    4.2153   -6.3957   -0.0000 C   0  0  0  0  0  0  0  0  0  0  0  0
    7.8250    1.6231   -0.0000 N   0  0  0  0  0  0  0  0  0  0  0  0
    5.7658    4.0094   -0.0000 C   0  0  0  0  0  0  0  0  0  0  0  0
    4.8210   -7.7887   -0.0000 C   0  0  0  0  0  0  0  0  0  0  0  0
    8.6002    0.3149   -0.0000 C   0  0  0  0  0  0  0  0  0  0  0  0
    3.9973   -9.0726   -0.0000 C   0  0  0  0  0  0  0  0  0  0  0  0
    6.3472   -7.8250   -0.0000 C   0  0  0  0  0  0  0  0  0  0  0  0
   10.1265    0.3392   -0.0000 C   0  0  0  0  0  0  0  0  0  0  0  0
    7.8250   -1.0054   -0.0000 C   0  0  0  0  0  0  0  0  0  0  0  0
    4.7120  -10.4172   -0.0000 C   0  0  0  0  0  0  0  0  0  0  0  0
    7.0619   -9.1695   -0.0000 C   0  0  0  0  0  0  0  0  0  0  0  0
   10.8896   -0.9690   -0.0000 C   0  0  0  0  0  0  0  0  0  0  0  0
    8.5881   -2.3136   -0.0000 C   0  0  0  0  0  0  0  0  0  0  0  0
    6.2382  -10.4535   -0.0000 C   0  0  0  0  0  0  0  0  0  0  0  0
   10.1143   -2.2894   -0.0000 C   0  0  0  0  0  0  0  0  0  0  0  0
   12.4158   -0.9448   -0.0000 C   0  0  0  0  0  0  0  0  0  0  0  0
   13.0093    0.1332   -0.0000 C   0  0  0  0  0  0  0  0  0  0  0  0
   13.0215   -1.9986   -0.0000 C   0  0  0  0  0  0  0  0  0  0  0  0
   13.6392   -0.9206   -0.0000 C   0  0  0  0  0  0  0  0  0  0  0  0
  1  2  1  0  0  0  0
  1  3  1  0  0  0  0
  2  4  2  0  0  0  0
  2  5  1  0  0  0  0
  3  6  2  0  0  0  0
  3  7  1  0  0  0  0
  4  8  1  0  0  0  0
  5  9  2  0  0  0  0
  6 10  1  0  0  0  0
  7 11  2  0  0  0  0
  8 12  2  0  0  0  0
  8 13  1  0  0  0  0
 10 14  1  0  0  0  0
 10 15  2  0  0  0  0
 13 16  2  0  0  0  0
 13 17  1  0  0  0  0
 14 18  2  0  0  0  0
 15 19  1  0  0  0  0
 16 20  1  0  0  0  0
 17 21  1  0  0  0  0
 18 22  1  0  0  0  0
 19 23  1  0  0  0  0
 21 24  1  0  0  0  0
 22 25  1  0  0  0  0
 24 26  2  0  0  0  0
 24 27  1  0  0  0  0
 25 28  2  0  0  0  0
 25 29  1  0  0  0  0
 26 30  1  0  0  0  0
 27 31  2  0  0  0  0
 28 32  1  0  0  0  0
 29 33  2  0  0  0  0
 30 34  2  0  0  0  0
 32 35  2  0  0  0  0
 32 36  1  0  0  0  0
 36 37  1  0  0  0  0
 36 38  1  0  0  0  0
 36 39  1  0  0  0  0
  9 12  1  0  0  0  0
 11 15  1  0  0  0  0
 18 19  1  0  0  0  0
 20 21  2  0  0  0  0
 31 34  1  0  0  0  0
 33 35  1  0  0  0  0
M  END
>  <MolRegNo>
1969969

>  <m>
=

>  <Value>
7100

>  <Unit>
nM

>  <Type>
IC50

>  <pValue>
5.15

>  <Ligand Efficiency>
0

>  <Binding Efficiency>
0

>  <Surface Efficiency>
0

>  <Assay Index>
971541

>  <Assay Category>


>  <Assay Organism>
Homo sapiens

>  <Target ID>
17045

>  <Target Name>
Cytochrome P450 3A4

>  <Target Organism>
Homo sapiens

>  <Target Description>
Target is a single protein chain

>  <Sequence Accession>
P08684

>  <Reference>
ACS Med Chem Lett 6 (9), 961-965 (2015)

>  <Pubmed ID>
26396681

>  <DOI>
10.1021/ml500526p

$$$$
1969968
Actelion Java MolfileCreator 1.0

 33 37  0  0  0  0  0  0  0  0999 V2000
    0.0000   -0.0000   -0.0000 O   0  0  0  0  0  0  0  0  0  0  0  0
   -0.0243   -1.5299   -0.0000 C   0  0  0  0  0  0  0  0  0  0  0  0
    1.3235    0.7771   -0.0000 C   0  0  0  0  0  0  0  0  0  0  0  0
    1.2992   -2.2949   -0.0000 C   0  0  0  0  0  0  0  0  0  0  0  0
   -1.3721   -2.2828   -0.0000 C   0  0  0  0  0  0  0  0  0  0  0  0
    2.6592   -0.0000   -0.0000 C   0  0  0  0  0  0  0  0  0  0  0  0
    1.3114    2.3313   -0.0000 C   0  0  0  0  0  0  0  0  0  0  0  0
    1.2871   -3.8249   -0.0000 C   0  0  0  0  0  0  0  0  0  0  0  0
   -1.3842   -3.8127   -0.0000 C   0  0  0  0  0  0  0  0  0  0  0  0
    3.9827    0.8014   -0.0000 C   0  0  0  0  0  0  0  0  0  0  0  0
    2.6470    3.1327   -0.0000 C   0  0  0  0  0  0  0  0  0  0  0  0
   -0.0607   -4.5777   -0.0000 N   0  0  0  0  0  0  0  0  0  0  0  0
    2.6106   -4.5898   -0.0000 C   0  0  0  0  0  0  0  0  0  0  0  0
    5.4277    0.3400   -0.0000 N   0  0  0  0  0  0  0  0  0  0  0  0
    3.9706    2.3556   -0.0000 C   0  0  0  0  0  0  0  0  0  0  0  0
    3.9827   -3.9463   -0.0000 N   0  0  0  0  0  0  0  0  0  0  0  0
    2.7320   -6.0955   -0.0000 N   0  0  0  0  0  0  0  0  0  0  0  0
    6.3141    1.6028   -0.0000 C   0  0  0  0  0  0  0  0  0  0  0  0
    5.4155    2.8413   -0.0000 N   0  0  0  0  0  0  0  0  0  0  0  0
    5.0027   -5.0755   -0.0000 C   0  0  0  0  0  0  0  0  0  0  0  0
    4.2256   -6.4112   -0.0000 C   0  0  0  0  0  0  0  0  0  0  0  0
    7.8440    1.6271   -0.0000 N   0  0  0  0  0  0  0  0  0  0  0  0
    5.7798    4.0313   -0.0000 C   0  0  0  0  0  0  0  0  0  0  0  0
    8.6211    0.3157   -0.0000 C   0  0  0  0  0  0  0  0  0  0  0  0
   10.1511    0.3400   -0.0000 C   0  0  0  0  0  0  0  0  0  0  0  0
    7.8440   -1.0078   -0.0000 C   0  0  0  0  0  0  0  0  0  0  0  0
   10.9160   -0.9714   -0.0000 C   0  0  0  0  0  0  0  0  0  0  0  0
    8.6090   -2.3192   -0.0000 C   0  0  0  0  0  0  0  0  0  0  0  0
   10.1389   -2.2949   -0.0000 C   0  0  0  0  0  0  0  0  0  0  0  0
   12.4460   -0.9471   -0.0000 C   0  0  0  0  0  0  0  0  0  0  0  0
   13.0410    0.1336   -0.0000 C   0  0  0  0  0  0  0  0  0  0  0  0
   13.0531   -2.0035   -0.0000 C   0  0  0  0  0  0  0  0  0  0  0  0
   13.6724   -0.9228   -0.0000 C   0  0  0  0  0  0  0  0  0  0  0  0
  1  2  1  0  0  0  0
  1  3  1  0  0  0  0
  2  4  2  0  0  0  0
  2  5  1  0  0  0  0
  3  6  2  0  0  0  0
  3  7  1  0  0  0  0
  4  8  1  0  0  0  0
  5  9  2  0  0  0  0
  6 10  1  0  0  0  0
  7 11  2  0  0  0  0
  8 12  2  0  0  0  0
  8 13  1  0  0  0  0
 10 14  1  0  0  0  0
 10 15  2  0  0  0  0
 13 16  2  0  0  0  0
 13 17  1  0  0  0  0
 14 18  2  0  0  0  0
 15 19  1  0  0  0  0
 16 20  1  0  0  0  0
 17 21  1  0  0  0  0
 18 22  1  0  0  0  0
 19 23  1  0  0  0  0
 22 24  1  0  0  0  0
 24 25  2  0  0  0  0
 24 26  1  0  0  0  0
 25 27  1  0  0  0  0
 26 28  2  0  0  0  0
 27 29  2  0  0  0  0
 27 30  1  0  0  0  0
 30 31  1  0  0  0  0
 30 32  1  0  0  0  0
 30 33  1  0  0  0  0
  9 12  1  0  0  0  0
 11 15  1  0  0  0  0
 18 19  1  0  0  0  0
 20 21  2  0  0  0  0
 28 29  1  0  0  0  0
M  END
>  <MolRegNo>
1969968

>  <m>
=

>  <Value>
1800

>  <Unit>
nM

>  <Type>
IC50

>  <pValue>
5.75

>  <Ligand Efficiency>
0

>  <Binding Efficiency>
0

>  <Surface Efficiency>
0

>  <Assay Index>
971541

>  <Assay Category>


>  <Assay Organism>
Homo sapiens

>  <Target ID>
17045

>  <Target Name>
Cytochrome P450 3A4

>  <Target Organism>
Homo sapiens

>  <Target Description>
Target is a single protein chain

>  <Sequence Accession>
P08684

>  <Reference>
ACS Med Chem Lett 6 (9), 961-965 (2015)

>  <Pubmed ID>
26396681

>  <DOI>
10.1021/ml500526p

$$$$
1971277
Actelion Java MolfileCreator 1.0

 35 38  0  0  1  0  0  0  0  0999 V2000
    0.0000   -0.0000   -0.0000 F   0  0  0  0  0  0  0  0  0  0  0  0
   -1.0939   -0.6145   -0.0000 C   0  0  0  0  0  0  0  0  0  0  0  0
   -2.1878    0.0246   -0.0000 F   0  0  0  0  0  0  0  0  0  0  0  0
   -1.1062    0.6514   -0.0000 F   0  0  0  0  0  0  0  0  0  0  0  0
   -1.1062   -2.1632   -0.0000 C   0  0  0  0  0  0  0  0  0  0  0  0
   -2.4705   -2.9253   -0.0000 C   0  0  0  0  0  0  0  0  0  0  0  0
    0.2335   -2.9253   -0.0000 C   0  0  0  0  0  0  0  0  0  0  0  0
   -2.4828   -4.4739   -0.0000 C   0  0  0  0  0  0  0  0  0  0  0  0
   -3.9700   -2.4336   -0.0000 C   0  0  0  0  0  0  0  0  0  0  0  0
    0.2212   -4.4739   -0.0000 C   0  0  0  0  0  0  0  0  0  0  0  0
   -1.1431   -5.2360   -0.0000 N   0  0  0  0  0  0  0  0  0  0  0  0
   -3.9823   -4.9410   -0.0000 N   0  0  0  0  0  0  0  0  0  0  0  0
   -4.9041   -3.6873   -0.0000 N   0  0  0  0  0  0  0  0  0  0  0  0
   -4.4616   -0.9341   -0.0000 C   0  0  0  0  0  0  0  0  0  0  0  0
    1.5610   -5.2482   -0.0000 O   0  0  0  0  0  0  0  0  0  0  0  0
   -4.3756   -6.1209   -0.0000 C   0  0  0  0  0  0  0  0  0  0  0  0
   -3.5275    0.3073   -0.0000 C   0  0  0  0  0  0  0  0  0  0  0  0
   -6.0226   -0.7129   -0.0000 C   0  0  0  0  0  0  0  0  0  0  0  0
    1.5487   -6.7969   -0.0000 C   0  0  0  0  0  0  0  0  0  0  0  0
   -4.1298    1.7576   -0.0000 C   0  0  0  0  0  0  0  0  0  0  0  0
   -6.6248    0.7375   -0.0000 C   0  0  0  0  0  0  0  0  0  0  0  0
    2.8884   -7.5712   -0.0000 C   0  0  0  0  0  0  0  0  0  0  0  0
   -5.6907    1.9788   -0.0000 C   0  0  0  0  0  0  0  0  0  0  0  0
    3.9577   -6.9321   -0.0000 O   0  0  0  0  0  0  0  0  0  0  0  0
    2.8761   -9.1199   -0.0000 N   0  0  0  0  0  0  0  0  0  0  0  0
    4.2158   -9.8942   -0.0000 C   0  0  0  0  0  0  0  0  0  0  0  0
    4.2035  -11.4429   -0.0000 C   0  0  0  0  0  0  0  0  0  0  0  0
    5.2851   -9.2551   -0.0000 C   0  0  0  0  0  0  0  0  0  0  0  0
    2.8392  -12.2049   -0.0000 C   0  0  0  0  0  0  0  0  0  0  0  0
    5.5432  -12.2049   -0.0000 C   0  0  0  0  0  0  0  0  0  0  0  0
    2.8269  -13.7536   -0.0000 C   0  0  0  0  0  0  0  0  0  0  0  0
    5.5309  -13.7536   -0.0000 C   0  0  0  0  0  0  0  0  0  0  0  0
    4.1666  -14.5156   -0.0000 C   0  0  0  0  0  0  0  0  0  0  0  0
    4.1543  -16.0643   -0.0000 O   0  0  0  0  0  0  0  0  0  0  0  0
    5.2237  -16.6789   -0.0000 C   0  0  0  0  0  0  0  0  0  0  0  0
  1  2  1  0  0  0  0
  2  3  1  0  0  0  0
  2  4  1  0  0  0  0
  2  5  1  0  0  0  0
  5  6  2  0  0  0  0
  5  7  1  0  0  0  0
  6  8  1  0  0  0  0
  6  9  1  0  0  0  0
  7 10  2  0  0  0  0
  8 11  2  0  0  0  0
  8 12  1  0  0  0  0
  9 13  2  0  0  0  0
  9 14  1  0  0  0  0
 10 15  1  0  0  0  0
 12 16  1  0  0  0  0
 14 17  2  0  0  0  0
 14 18  1  0  0  0  0
 15 19  1  0  0  0  0
 17 20  1  0  0  0  0
 18 21  2  0  0  0  0
 19 22  1  0  0  0  0
 20 23  2  0  0  0  0
 22 24  2  0  0  0  0
 22 25  1  0  0  0  0
 26 25  1  1  0  0  0
 26 27  1  0  0  0  0
 26 28  1  0  0  0  0
 27 29  2  0  0  0  0
 27 30  1  0  0  0  0
 29 31  1  0  0  0  0
 30 32  2  0  0  0  0
 31 33  2  0  0  0  0
 33 34  1  0  0  0  0
 34 35  1  0  0  0  0
 10 11  1  0  0  0  0
 12 13  1  0  0  0  0
 21 23  1  0  0  0  0
 32 33  1  0  0  0  0
M  END
>  <MolRegNo>
1971277

>  <m>
=

>  <Value>
8000

>  <Unit>
nM

>  <Type>
IC50

>  <pValue>
5.1

>  <Ligand Efficiency>
0

>  <Binding Efficiency>
0

>  <Surface Efficiency>
0

>  <Assay Index>
971868

>  <Assay Category>


>  <Assay Organism>
Homo sapiens

>  <Target ID>
17045

>  <Target Name>
Cytochrome P450 3A4

>  <Target Organism>
Homo sapiens

>  <Target Description>
Target is a single protein chain

>  <Sequence Accession>
P08684

>  <Reference>
Bioorg Med Chem Lett 25 (23), 5555-5560 (2015)

>  <Pubmed ID>
26522950

>  <DOI>
10.1016/j.bmcl.2015.10.055

$$$$
1062583
Actelion Java MolfileCreator 1.0

 29 32  0  0  0  0  0  0  0  0999 V2000
    0.0000   -0.0000   -0.0000 S   0  0  0  0  0  0  0  0  0  0  0  0
   -0.0122   -1.2277   -0.0000 O   0  0  0  0  0  0  0  0  0  0  0  0
   -1.0819   -0.5956   -0.0000 O   0  0  0  0  0  0  0  0  0  0  0  0
    1.3250    0.7780   -0.0000 N   0  0  0  0  0  0  0  0  0  0  0  0
   -1.0819    0.6321   -0.0000 C   0  0  0  0  0  0  0  0  0  0  0  0
    1.3128    2.3339   -0.0000 C   0  0  0  0  0  0  0  0  0  0  0  0
   -0.0365    3.1240   -0.0000 C   0  0  0  0  0  0  0  0  0  0  0  0
    2.6378    3.1119   -0.0000 C   0  0  0  0  0  0  0  0  0  0  0  0
   -0.0486    4.6799   -0.0000 C   0  0  0  0  0  0  0  0  0  0  0  0
    2.6256    4.6678   -0.0000 C   0  0  0  0  0  0  0  0  0  0  0  0
   -1.3979    5.4579   -0.0000 C   0  0  0  0  0  0  0  0  0  0  0  0
    1.2763    5.4579   -0.0000 C   0  0  0  0  0  0  0  0  0  0  0  0
   -1.4101    7.0138   -0.0000 C   0  0  0  0  0  0  0  0  0  0  0  0
   -2.7472    4.7042   -0.0000 C   0  0  0  0  0  0  0  0  0  0  0  0
   -0.3525    7.6459   -0.0000 O   0  0  0  0  0  0  0  0  0  0  0  0
   -2.7593    7.7918   -0.0000 C   0  0  0  0  0  0  0  0  0  0  0  0
   -4.0965    5.4822   -0.0000 C   0  0  0  0  0  0  0  0  0  0  0  0
   -2.7593    3.1726   -0.0000 C   0  0  0  0  0  0  0  0  0  0  0  0
   -4.1086    7.0381   -0.0000 C   0  0  0  0  0  0  0  0  0  0  0  0
   -5.4457    4.7286   -0.0000 C   0  0  0  0  0  0  0  0  0  0  0  0
   -4.1086    2.4190   -0.0000 C   0  0  0  0  0  0  0  0  0  0  0  0
   -5.4579    3.1969   -0.0000 C   0  0  0  0  0  0  0  0  0  0  0  0
   -6.8072    2.4311   -0.0000 C   0  0  0  0  0  0  0  0  0  0  0  0
   -6.8193    0.8995   -0.0000 C   0  0  0  0  0  0  0  0  0  0  0  0
   -8.1565    3.2091   -0.0000 C   0  0  0  0  0  0  0  0  0  0  0  0
   -8.1686    0.1337   -0.0000 C   0  0  0  0  0  0  0  0  0  0  0  0
   -9.5057    2.4433   -0.0000 C   0  0  0  0  0  0  0  0  0  0  0  0
   -8.1808   -1.0940   -0.0000 O   0  0  0  0  0  0  0  0  0  0  0  0
   -9.5179    0.9117   -0.0000 C   0  0  0  0  0  0  0  0  0  0  0  0
  1  2  2  0  0  0  0
  1  3  2  0  0  0  0
  1  4  1  0  0  0  0
  1  5  1  0  0  0  0
  4  6  1  0  0  0  0
  6  7  2  0  0  0  0
  6  8  1  0  0  0  0
  7  9  1  0  0  0  0
  8 10  2  0  0  0  0
  9 11  1  0  0  0  0
  9 12  2  0  0  0  0
 11 13  2  0  0  0  0
 11 14  1  0  0  0  0
 13 15  1  0  0  0  0
 13 16  1  0  0  0  0
 14 17  1  0  0  0  0
 14 18  2  0  0  0  0
 16 19  2  0  0  0  0
 17 20  2  0  0  0  0
 18 21  1  0  0  0  0
 20 22  1  0  0  0  0
 22 23  1  0  0  0  0
 23 24  2  0  0  0  0
 23 25  1  0  0  0  0
 24 26  1  0  0  0  0
 25 27  2  0  0  0  0
 26 28  1  0  0  0  0
 26 29  2  0  0  0  0
 10 12  1  0  0  0  0
 17 19  1  0  0  0  0
 21 22  2  0  0  0  0
 27 29  1  0  0  0  0
M  END
>  <MolRegNo>
1062583

>  <m>
=

>  <Value>
1070

>  <Unit>
nM

>  <Type>
IC50

>  <pValue>
5.97

>  <Ligand Efficiency>
0.28

>  <Binding Efficiency>
14.72

>  <Surface Efficiency>
6.89

>  <Assay Index>
974274

>  <Assay Category>


>  <Assay Organism>
Homo sapiens

>  <Target ID>
17045

>  <Target Name>
Cytochrome P450 3A4

>  <Target Organism>
Homo sapiens

>  <Target Description>
Target is a single protein chain

>  <Sequence Accession>
P08684

>  <Reference>


>  <Pubmed ID>


>  <DOI>


$$$$
2007001
Actelion Java MolfileCreator 1.0

 28 31  0  0  0  0  0  0  0  0999 V2000
    0.0000   -0.0000   -0.0000 F   0  0  0  0  0  0  0  0  0  0  0  0
    1.1817   -0.2412   -0.0000 C   0  0  0  0  0  0  0  0  0  0  0  0
    1.6520   -1.6882   -0.0000 N   0  0  0  0  0  0  0  0  0  0  0  0
    2.1947    0.9165   -0.0000 C   0  0  0  0  0  0  0  0  0  0  0  0
    3.1352   -1.9897   -0.0000 C   0  0  0  0  0  0  0  0  0  0  0  0
    3.6779    0.6150   -0.0000 C   0  0  0  0  0  0  0  0  0  0  0  0
    1.7123    2.3876   -0.0000 C   0  0  0  0  0  0  0  0  0  0  0  0
    3.5935   -3.4367   -0.0000 N   0  0  0  0  0  0  0  0  0  0  0  0
    4.1482   -0.8320   -0.0000 C   0  0  0  0  0  0  0  0  0  0  0  0
    2.7252    3.5332   -0.0000 C   0  0  0  0  0  0  0  0  0  0  0  0
    2.5564   -4.5702   -0.0000 C   0  0  0  0  0  0  0  0  0  0  0  0
    2.3997    5.0405   -0.0000 C   0  0  0  0  0  0  0  0  0  0  0  0
    4.2326    3.3885   -0.0000 C   0  0  0  0  0  0  0  0  0  0  0  0
    3.0146   -6.0172   -0.0000 C   0  0  0  0  0  0  0  0  0  0  0  0
    3.7140    5.8122   -0.0000 C   0  0  0  0  0  0  0  0  0  0  0  0
    1.0612    5.8122   -0.0000 C   0  0  0  0  0  0  0  0  0  0  0  0
    4.8476    4.7993   -0.0000 N   0  0  0  0  0  0  0  0  0  0  0  0
    1.9776   -7.1507   -0.0000 C   0  0  0  0  0  0  0  0  0  0  0  0
    4.4979   -6.3187   -0.0000 C   0  0  0  0  0  0  0  0  0  0  0  0
    3.7020    7.3557   -0.0000 N   0  0  0  0  0  0  0  0  0  0  0  0
    1.0491    7.3557   -0.0000 C   0  0  0  0  0  0  0  0  0  0  0  0
    0.4703   -6.8252   -0.0000 O   0  0  0  0  0  0  0  0  0  0  0  0
    2.4479   -8.5978   -0.0000 N   0  0  0  0  0  0  0  0  0  0  0  0
    4.9681   -7.7657   -0.0000 C   0  0  0  0  0  0  0  0  0  0  0  0
    2.3635    8.1275   -0.0000 C   0  0  0  0  0  0  0  0  0  0  0  0
   -0.0241    7.9828   -0.0000 C   0  0  0  0  0  0  0  0  0  0  0  0
   -0.3618   -7.7296   -0.0000 C   0  0  0  0  0  0  0  0  0  0  0  0
    3.9311   -8.8992   -0.0000 C   0  0  0  0  0  0  0  0  0  0  0  0
  1  2  1  0  0  0  0
  2  3  2  0  0  0  0
  2  4  1  0  0  0  0
  3  5  1  0  0  0  0
  4  6  2  0  0  0  0
  4  7  1  0  0  0  0
  5  8  1  0  0  0  0
  5  9  2  0  0  0  0
  7 10  1  0  0  0  0
  8 11  1  0  0  0  0
 10 12  1  0  0  0  0
 10 13  2  0  0  0  0
 11 14  1  0  0  0  0
 12 15  2  0  0  0  0
 12 16  1  0  0  0  0
 13 17  1  0  0  0  0
 14 18  2  0  0  0  0
 14 19  1  0  0  0  0
 15 20  1  0  0  0  0
 16 21  2  0  0  0  0
 18 22  1  0  0  0  0
 18 23  1  0  0  0  0
 19 24  2  0  0  0  0
 20 25  2  0  0  0  0
 21 26  1  0  0  0  0
 22 27  1  0  0  0  0
 23 28  2  0  0  0  0
  6  9  1  0  0  0  0
 15 17  1  0  0  0  0
 21 25  1  0  0  0  0
 24 28  1  0  0  0  0
M  END
>  <MolRegNo>
2007001

>  <m>
=

>  <Value>
5000

>  <Unit>
nM

>  <Type>
IC50

>  <pValue>
5.3

>  <Ligand Efficiency>
0.26

>  <Binding Efficiency>
14.05

>  <Surface Efficiency>
7

>  <Assay Index>
974253

>  <Assay Category>


>  <Assay Organism>
Homo sapiens

>  <Target ID>
17045

>  <Target Name>
Cytochrome P450 3A4

>  <Target Organism>
Homo sapiens

>  <Target Description>
Target is a single protein chain

>  <Sequence Accession>
P08684

>  <Reference>


>  <Pubmed ID>


>  <DOI>


$$$$
2007017
Actelion Java MolfileCreator 1.0

 26 29  0  0  0  0  0  0  0  0999 V2000
    0.0000   -0.0000   -0.0000 Cl  0  0  0  0  0  0  0  0  0  0  0  0
    1.1764    0.2641   -0.0000 C   0  0  0  0  0  0  0  0  0  0  0  0
    2.1848   -0.8643   -0.0000 N   0  0  0  0  0  0  0  0  0  0  0  0
    1.6446    1.7286   -0.0000 C   0  0  0  0  0  0  0  0  0  0  0  0
    3.6613   -0.5402   -0.0000 C   0  0  0  0  0  0  0  0  0  0  0  0
    3.1211    2.0527   -0.0000 C   0  0  0  0  0  0  0  0  0  0  0  0
    4.1295    0.9243   -0.0000 C   0  0  0  0  0  0  0  0  0  0  0  0
    5.6060    1.2485   -0.0000 C   0  0  0  0  0  0  0  0  0  0  0  0
    6.6144    0.1200   -0.0000 N   0  0  0  0  0  0  0  0  0  0  0  0
    8.0909    0.4442   -0.0000 C   0  0  0  0  0  0  0  0  0  0  0  0
    8.5591    1.9087   -0.0000 N   0  0  0  0  0  0  0  0  0  0  0  0
    9.0993   -0.6842   -0.0000 C   0  0  0  0  0  0  0  0  0  0  0  0
   10.0356    2.2328   -0.0000 C   0  0  0  0  0  0  0  0  0  0  0  0
   10.5758   -0.3601   -0.0000 C   0  0  0  0  0  0  0  0  0  0  0  0
   11.0440    1.1044   -0.0000 C   0  0  0  0  0  0  0  0  0  0  0  0
   12.5205    1.4285   -0.0000 C   0  0  0  0  0  0  0  0  0  0  0  0
   12.9767    2.8930   -0.0000 C   0  0  0  0  0  0  0  0  0  0  0  0
   14.4172    3.3732   -0.0000 C   0  0  0  0  0  0  0  0  0  0  0  0
   12.0644    4.1415   -0.0000 C   0  0  0  0  0  0  0  0  0  0  0  0
   14.4052    4.9098   -0.0000 C   0  0  0  0  0  0  0  0  0  0  0  0
   15.7257    2.6169   -0.0000 C   0  0  0  0  0  0  0  0  0  0  0  0
   12.9527    5.3899   -0.0000 N   0  0  0  0  0  0  0  0  0  0  0  0
   15.7137    5.6780   -0.0000 N   0  0  0  0  0  0  0  0  0  0  0  0
   17.0341    3.3852   -0.0000 C   0  0  0  0  0  0  0  0  0  0  0  0
   17.0221    4.9218   -0.0000 C   0  0  0  0  0  0  0  0  0  0  0  0
   18.0785    2.7850   -0.0000 Cl  0  0  0  0  0  0  0  0  0  0  0  0
  1  2  1  0  0  0  0
  2  3  2  0  0  0  0
  2  4  1  0  0  0  0
  3  5  1  0  0  0  0
  4  6  2  0  0  0  0
  5  7  2  0  0  0  0
  7  8  1  0  0  0  0
  8  9  1  0  0  0  0
  9 10  1  0  0  0  0
 10 11  2  0  0  0  0
 10 12  1  0  0  0  0
 11 13  1  0  0  0  0
 12 14  2  0  0  0  0
 13 15  2  0  0  0  0
 15 16  1  0  0  0  0
 16 17  1  0  0  0  0
 17 18  1  0  0  0  0
 17 19  2  0  0  0  0
 18 20  2  0  0  0  0
 18 21  1  0  0  0  0
 19 22  1  0  0  0  0
 20 23  1  0  0  0  0
 21 24  2  0  0  0  0
 23 25  2  0  0  0  0
 24 26  1  0  0  0  0
  6  7  1  0  0  0  0
 14 15  1  0  0  0  0
 20 22  1  0  0  0  0
 24 25  1  0  0  0  0
M  END
>  <MolRegNo>
2007017

>  <m>
=

>  <Value>
5000

>  <Unit>
nM

>  <Type>
IC50

>  <pValue>
5.3

>  <Ligand Efficiency>
0.28

>  <Binding Efficiency>
13.8

>  <Surface Efficiency>
7.97

>  <Assay Index>
974253

>  <Assay Category>


>  <Assay Organism>
Homo sapiens

>  <Target ID>
17045

>  <Target Name>
Cytochrome P450 3A4

>  <Target Organism>
Homo sapiens

>  <Target Description>
Target is a single protein chain

>  <Sequence Accession>
P08684

>  <Reference>


>  <Pubmed ID>


>  <DOI>


$$$$
1062571
Actelion Java MolfileCreator 1.0

 26 29  0  0  0  0  0  0  0  0999 V2000
    0.0000   -0.0000   -0.0000 O   0  0  0  0  0  0  0  0  0  0  0  0
   -1.3337    0.7810   -0.0000 C   0  0  0  0  0  0  0  0  0  0  0  0
   -0.0120   -1.2136   -0.0000 C   0  0  0  0  0  0  0  0  0  0  0  0
   -2.6674    0.0360   -0.0000 N   0  0  0  0  0  0  0  0  0  0  0  0
   -1.3457    2.3190   -0.0000 C   0  0  0  0  0  0  0  0  0  0  0  0
   -4.0012    0.8171   -0.0000 C   0  0  0  0  0  0  0  0  0  0  0  0
   -2.6795    3.1000   -0.0000 C   0  0  0  0  0  0  0  0  0  0  0  0
   -4.0132    2.3550   -0.0000 C   0  0  0  0  0  0  0  0  0  0  0  0
   -5.3469    3.1361   -0.0000 C   0  0  0  0  0  0  0  0  0  0  0  0
   -5.3589    4.6740   -0.0000 C   0  0  0  0  0  0  0  0  0  0  0  0
   -6.6806    2.3911   -0.0000 C   0  0  0  0  0  0  0  0  0  0  0  0
   -4.3136    5.2989   -0.0000 O   0  0  0  0  0  0  0  0  0  0  0  0
   -6.6927    5.4430   -0.0000 C   0  0  0  0  0  0  0  0  0  0  0  0
   -8.0144    3.1601   -0.0000 C   0  0  0  0  0  0  0  0  0  0  0  0
   -6.6927    0.8771   -0.0000 C   0  0  0  0  0  0  0  0  0  0  0  0
   -8.0264    4.6981   -0.0000 C   0  0  0  0  0  0  0  0  0  0  0  0
   -9.3481    2.4151   -0.0000 C   0  0  0  0  0  0  0  0  0  0  0  0
   -8.0264    0.1322   -0.0000 C   0  0  0  0  0  0  0  0  0  0  0  0
   -9.3601    0.9012   -0.0000 C   0  0  0  0  0  0  0  0  0  0  0  0
  -10.6938    0.1442   -0.0000 C   0  0  0  0  0  0  0  0  0  0  0  0
  -10.7058   -1.3698   -0.0000 C   0  0  0  0  0  0  0  0  0  0  0  0
  -12.0276    0.9132   -0.0000 C   0  0  0  0  0  0  0  0  0  0  0  0
  -12.0396   -2.1267   -0.0000 C   0  0  0  0  0  0  0  0  0  0  0  0
  -13.3613    0.1562   -0.0000 C   0  0  0  0  0  0  0  0  0  0  0  0
  -12.0516   -3.3403   -0.0000 O   0  0  0  0  0  0  0  0  0  0  0  0
  -13.3733   -1.3578   -0.0000 C   0  0  0  0  0  0  0  0  0  0  0  0
  1  2  1  0  0  0  0
  1  3  1  0  0  0  0
  2  4  2  0  0  0  0
  2  5  1  0  0  0  0
  4  6  1  0  0  0  0
  5  7  2  0  0  0  0
  6  8  2  0  0  0  0
  8  9  1  0  0  0  0
  9 10  2  0  0  0  0
  9 11  1  0  0  0  0
 10 12  1  0  0  0  0
 10 13  1  0  0  0  0
 11 14  1  0  0  0  0
 11 15  2  0  0  0  0
 13 16  2  0  0  0  0
 14 17  2  0  0  0  0
 15 18  1  0  0  0  0
 17 19  1  0  0  0  0
 19 20  1  0  0  0  0
 20 21  2  0  0  0  0
 20 22  1  0  0  0  0
 21 23  1  0  0  0  0
 22 24  2  0  0  0  0
 23 25  1  0  0  0  0
 23 26  2  0  0  0  0
  7  8  1  0  0  0  0
 14 16  1  0  0  0  0
 18 19  2  0  0  0  0
 24 26  1  0  0  0  0
M  END
>  <MolRegNo>
1062571

>  <m>
=

>  <Value>
2050

>  <Unit>
nM

>  <Type>
IC50

>  <pValue>
5.69

>  <Ligand Efficiency>
0.3

>  <Binding Efficiency>
16.57

>  <Surface Efficiency>
9.09

>  <Assay Index>
974274

>  <Assay Category>


>  <Assay Organism>
Homo sapiens

>  <Target ID>
17045

>  <Target Name>
Cytochrome P450 3A4

>  <Target Organism>
Homo sapiens

>  <Target Description>
Target is a single protein chain

>  <Sequence Accession>
P08684

>  <Reference>


>  <Pubmed ID>


>  <DOI>


$$$$
2007008
Actelion Java MolfileCreator 1.0

 28 31  0  0  0  0  0  0  0  0999 V2000
    0.0000   -0.0000   -0.0000 F   0  0  0  0  0  0  0  0  0  0  0  0
    0.8038    0.9238   -0.0000 C   0  0  0  0  0  0  0  0  0  0  0  0
    2.2795    0.6239   -0.0000 C   0  0  0  0  0  0  0  0  0  0  0  0
    0.3119    2.3874   -0.0000 C   0  0  0  0  0  0  0  0  0  0  0  0
    2.7473   -0.8158   -0.0000 O   0  0  0  0  0  0  0  0  0  0  0  0
    3.2872    1.7756   -0.0000 N   0  0  0  0  0  0  0  0  0  0  0  0
    1.3197    3.5392   -0.0000 C   0  0  0  0  0  0  0  0  0  0  0  0
    3.9231   -1.0557   -0.0000 C   0  0  0  0  0  0  0  0  0  0  0  0
    2.7953    3.2392   -0.0000 C   0  0  0  0  0  0  0  0  0  0  0  0
    0.8278    5.0028   -0.0000 C   0  0  0  0  0  0  0  0  0  0  0  0
   -0.6718    5.3267   -0.0000 N   0  0  0  0  0  0  0  0  0  0  0  0
   -1.1637    6.7904   -0.0000 C   0  0  0  0  0  0  0  0  0  0  0  0
   -2.6634    7.1143   -0.0000 N   0  0  0  0  0  0  0  0  0  0  0  0
   -0.1560    7.9421   -0.0000 N   0  0  0  0  0  0  0  0  0  0  0  0
   -3.1553    8.5780   -0.0000 C   0  0  0  0  0  0  0  0  0  0  0  0
   -0.6478    9.4058   -0.0000 C   0  0  0  0  0  0  0  0  0  0  0  0
   -2.1475    9.7297   -0.0000 C   0  0  0  0  0  0  0  0  0  0  0  0
   -2.6274   11.1933   -0.0000 C   0  0  0  0  0  0  0  0  0  0  0  0
   -1.6196   12.3331   -0.0000 C   0  0  0  0  0  0  0  0  0  0  0  0
   -1.9435   13.8327   -0.0000 C   0  0  0  0  0  0  0  0  0  0  0  0
   -0.1200   12.1891   -0.0000 C   0  0  0  0  0  0  0  0  0  0  0  0
   -0.6358   14.6005   -0.0000 C   0  0  0  0  0  0  0  0  0  0  0  0
   -3.2752   14.6005   -0.0000 C   0  0  0  0  0  0  0  0  0  0  0  0
    0.4919   13.5928   -0.0000 N   0  0  0  0  0  0  0  0  0  0  0  0
   -0.6478   16.1362   -0.0000 N   0  0  0  0  0  0  0  0  0  0  0  0
   -3.2872   16.1362   -0.0000 C   0  0  0  0  0  0  0  0  0  0  0  0
   -1.9795   16.9040   -0.0000 C   0  0  0  0  0  0  0  0  0  0  0  0
   -4.3550   16.7600   -0.0000 C   0  0  0  0  0  0  0  0  0  0  0  0
  1  2  1  0  0  0  0
  2  3  2  0  0  0  0
  2  4  1  0  0  0  0
  3  5  1  0  0  0  0
  3  6  1  0  0  0  0
  4  7  2  0  0  0  0
  5  8  1  0  0  0  0
  6  9  2  0  0  0  0
  7 10  1  0  0  0  0
 10 11  1  0  0  0  0
 11 12  1  0  0  0  0
 12 13  2  0  0  0  0
 12 14  1  0  0  0  0
 13 15  1  0  0  0  0
 14 16  2  0  0  0  0
 15 17  2  0  0  0  0
 17 18  1  0  0  0  0
 18 19  1  0  0  0  0
 19 20  1  0  0  0  0
 19 21  2  0  0  0  0
 20 22  2  0  0  0  0
 20 23  1  0  0  0  0
 21 24  1  0  0  0  0
 22 25  1  0  0  0  0
 23 26  2  0  0  0  0
 25 27  2  0  0  0  0
 26 28  1  0  0  0  0
  7  9  1  0  0  0  0
 16 17  1  0  0  0  0
 22 24  1  0  0  0  0
 26 27  1  0  0  0  0
M  END
>  <MolRegNo>
2007008

>  <m>
=

>  <Value>
5000

>  <Unit>
nM

>  <Type>
IC50

>  <pValue>
5.3

>  <Ligand Efficiency>
0.26

>  <Binding Efficiency>
14.01

>  <Surface Efficiency>
5.98

>  <Assay Index>
974253

>  <Assay Category>


>  <Assay Organism>
Homo sapiens

>  <Target ID>
17045

>  <Target Name>
Cytochrome P450 3A4

>  <Target Organism>
Homo sapiens

>  <Target Description>
Target is a single protein chain

>  <Sequence Accession>
P08684

>  <Reference>


>  <Pubmed ID>


>  <DOI>


$$$$
2014092
Actelion Java MolfileCreator 1.0

 36 39  0  0  0  0  0  0  0  0999 V2000
    0.0000   -0.0000   -0.0000 F   0  0  0  0  0  0  0  0  0  0  0  0
   -0.0123    1.2679   -0.0000 C   0  0  0  0  0  0  0  0  0  0  0  0
    1.3295    2.0557   -0.0000 C   0  0  0  0  0  0  0  0  0  0  0  0
   -1.3787    2.0557   -0.0000 C   0  0  0  0  0  0  0  0  0  0  0  0
    1.3171    3.6314   -0.0000 C   0  0  0  0  0  0  0  0  0  0  0  0
    2.6712    1.2925   -0.0000 C   0  0  0  0  0  0  0  0  0  0  0  0
   -1.3910    3.6314   -0.0000 C   0  0  0  0  0  0  0  0  0  0  0  0
   -0.0492    4.4192   -0.0000 C   0  0  0  0  0  0  0  0  0  0  0  0
    2.6589    2.5604   -0.0000 O   0  0  0  0  0  0  0  0  0  0  0  0
    4.0130    0.5293   -0.0000 C   0  0  0  0  0  0  0  0  0  0  0  0
    1.3048    0.5293   -0.0000 C   0  0  0  0  0  0  0  0  0  0  0  0
   -2.4866    4.2715   -0.0000 F   0  0  0  0  0  0  0  0  0  0  0  0
    4.0007   -0.7140   -0.0000 F   0  0  0  0  0  0  0  0  0  0  0  0
    5.0839   -0.0862   -0.0000 F   0  0  0  0  0  0  0  0  0  0  0  0
    5.3547    1.3171   -0.0000 C   0  0  0  0  0  0  0  0  0  0  0  0
   -0.0615    1.3171   -0.0000 N   0  0  0  0  0  0  0  0  0  0  0  0
    5.3424    2.8928   -0.0000 N   0  0  0  0  0  0  0  0  0  0  0  0
    6.6965    0.5539   -0.0000 C   0  0  0  0  0  0  0  0  0  0  0  0
   -0.2093    2.8682   -0.0000 N   0  0  0  0  0  0  0  0  0  0  0  0
   -1.4772    0.6893   -0.0000 C   0  0  0  0  0  0  0  0  0  0  0  0
    6.6842    3.6806   -0.0000 C   0  0  0  0  0  0  0  0  0  0  0  0
    8.0383    1.3418   -0.0000 C   0  0  0  0  0  0  0  0  0  0  0  0
   -1.7480    3.2128   -0.0000 C   0  0  0  0  0  0  0  0  0  0  0  0
   -2.5358    1.8588   -0.0000 N   0  0  0  0  0  0  0  0  0  0  0  0
    8.0260    2.9174   -0.0000 C   0  0  0  0  0  0  0  0  0  0  0  0
    9.3677    3.7052   -0.0000 C   0  0  0  0  0  0  0  0  0  0  0  0
   10.7095    2.9420   -0.0000 C   0  0  0  0  0  0  0  0  0  0  0  0
    9.3554    5.2809   -0.0000 C   0  0  0  0  0  0  0  0  0  0  0  0
   12.0512    3.7422   -0.0000 C   0  0  0  0  0  0  0  0  0  0  0  0
   10.6972    6.0810   -0.0000 C   0  0  0  0  0  0  0  0  0  0  0  0
   12.0389    5.3178   -0.0000 C   0  0  0  0  0  0  0  0  0  0  0  0
   13.3807    6.1179   -0.0000 O   0  0  0  0  0  0  0  0  0  0  0  0
   13.3684    7.6936   -0.0000 C   0  0  0  0  0  0  0  0  0  0  0  0
   14.4393    8.3337   -0.0000 F   0  0  0  0  0  0  0  0  0  0  0  0
   12.2728    8.3214   -0.0000 F   0  0  0  0  0  0  0  0  0  0  0  0
   13.3561    8.9615   -0.0000 F   0  0  0  0  0  0  0  0  0  0  0  0
  1  2  1  0  0  0  0
  2  3  2  0  0  0  0
  2  4  1  0  0  0  0
  3  5  1  0  0  0  0
  3  6  1  0  0  0  0
  4  7  2  0  0  0  0
  5  8  2  0  0  0  0
  6  9  1  0  0  0  0
  6 10  1  0  0  0  0
  6 11  1  0  0  0  0
  7 12  1  0  0  0  0
 10 13  1  0  0  0  0
 10 14  1  0  0  0  0
 10 15  1  0  0  0  0
 11 16  1  0  0  0  0
 15 17  2  0  0  0  0
 15 18  1  0  0  0  0
 16 19  1  0  0  0  0
 16 20  1  0  0  0  0
 17 21  1  0  0  0  0
 18 22  2  0  0  0  0
 19 23  2  0  0  0  0
 20 24  2  0  0  0  0
 21 25  2  0  0  0  0
 25 26  1  0  0  0  0
 26 27  2  0  0  0  0
 26 28  1  0  0  0  0
 27 29  1  0  0  0  0
 28 30  2  0  0  0  0
 29 31  2  0  0  0  0
 31 32  1  0  0  0  0
 32 33  1  0  0  0  0
 33 34  1  0  0  0  0
 33 35  1  0  0  0  0
 33 36  1  0  0  0  0
  7  8  1  0  0  0  0
 22 25  1  0  0  0  0
 23 24  1  0  0  0  0
 30 31  1  0  0  0  0
M  END
>  <MolRegNo>
2014092

>  <m>
=

>  <Value>
3800

>  <Unit>
nM

>  <Type>
IC50

>  <pValue>
5.42

>  <Ligand Efficiency>
0.21

>  <Binding Efficiency>
10.58

>  <Surface Efficiency>
7.42

>  <Assay Index>
974690

>  <Assay Category>


>  <Assay Organism>
Homo sapiens

>  <Target ID>
17045

>  <Target Name>
Cytochrome P450 3A4

>  <Target Organism>
Homo sapiens

>  <Target Description>
Target is a single protein chain

>  <Sequence Accession>
P08684

>  <Reference>


>  <Pubmed ID>


>  <DOI>


$$$$
1977963
Actelion Java MolfileCreator 1.0

 32 35  0  0  0  0  0  0  0  0999 V2000
    0.0000   -0.0000   -0.0000 O   0  0  0  0  0  0  0  0  0  0  0  0
   -0.0121    1.2467   -0.0000 C   0  0  0  0  0  0  0  0  0  0  0  0
    1.0409    1.8640   -0.0000 O   0  0  0  0  0  0  0  0  0  0  0  0
   -1.3556    2.0334   -0.0000 C   0  0  0  0  0  0  0  0  0  0  0  0
   -1.3677    3.5827   -0.0000 C   0  0  0  0  0  0  0  0  0  0  0  0
   -2.7112    4.3694   -0.0000 C   0  0  0  0  0  0  0  0  0  0  0  0
   -3.7885    3.7763   -0.0000 O   0  0  0  0  0  0  0  0  0  0  0  0
   -2.7233    5.9187   -0.0000 N   0  0  0  0  0  0  0  0  0  0  0  0
   -4.0668    6.7054   -0.0000 C   0  0  0  0  0  0  0  0  0  0  0  0
   -4.0789    8.2547   -0.0000 C   0  0  0  0  0  0  0  0  0  0  0  0
   -5.4103    5.9550   -0.0000 C   0  0  0  0  0  0  0  0  0  0  0  0
   -5.4224    9.0414   -0.0000 C   0  0  0  0  0  0  0  0  0  0  0  0
   -6.7539    6.7417   -0.0000 C   0  0  0  0  0  0  0  0  0  0  0  0
   -6.7660    8.2910   -0.0000 C   0  0  0  0  0  0  0  0  0  0  0  0
   -8.1095    9.0657   -0.0000 C   0  0  0  0  0  0  0  0  0  0  0  0
   -8.1216   10.6149   -0.0000 C   0  0  0  0  0  0  0  0  0  0  0  0
   -9.4530    8.3152   -0.0000 C   0  0  0  0  0  0  0  0  0  0  0  0
   -7.0685   11.2443   -0.0000 O   0  0  0  0  0  0  0  0  0  0  0  0
   -9.4651   11.3896   -0.0000 C   0  0  0  0  0  0  0  0  0  0  0  0
  -10.7965    9.0899   -0.0000 C   0  0  0  0  0  0  0  0  0  0  0  0
   -9.4651    6.7902   -0.0000 C   0  0  0  0  0  0  0  0  0  0  0  0
  -10.8086   10.6391   -0.0000 C   0  0  0  0  0  0  0  0  0  0  0  0
  -12.1400    8.3394   -0.0000 C   0  0  0  0  0  0  0  0  0  0  0  0
  -10.8086    6.0397   -0.0000 C   0  0  0  0  0  0  0  0  0  0  0  0
  -12.1521    6.8144   -0.0000 C   0  0  0  0  0  0  0  0  0  0  0  0
  -13.4956    6.0518   -0.0000 C   0  0  0  0  0  0  0  0  0  0  0  0
  -13.5077    4.5268   -0.0000 C   0  0  0  0  0  0  0  0  0  0  0  0
  -14.8391    6.8265   -0.0000 C   0  0  0  0  0  0  0  0  0  0  0  0
  -14.8512    3.7642   -0.0000 C   0  0  0  0  0  0  0  0  0  0  0  0
  -16.1826    6.0639   -0.0000 C   0  0  0  0  0  0  0  0  0  0  0  0
  -14.8633    2.5418   -0.0000 O   0  0  0  0  0  0  0  0  0  0  0  0
  -16.1947    4.5389   -0.0000 C   0  0  0  0  0  0  0  0  0  0  0  0
  1  2  2  0  0  0  0
  2  3  1  0  0  0  0
  2  4  1  0  0  0  0
  4  5  1  0  0  0  0
  5  6  1  0  0  0  0
  6  7  2  0  0  0  0
  6  8  1  0  0  0  0
  8  9  1  0  0  0  0
  9 10  2  0  0  0  0
  9 11  1  0  0  0  0
 10 12  1  0  0  0  0
 11 13  2  0  0  0  0
 12 14  2  0  0  0  0
 14 15  1  0  0  0  0
 15 16  2  0  0  0  0
 15 17  1  0  0  0  0
 16 18  1  0  0  0  0
 16 19  1  0  0  0  0
 17 20  1  0  0  0  0
 17 21  2  0  0  0  0
 19 22  2  0  0  0  0
 20 23  2  0  0  0  0
 21 24  1  0  0  0  0
 23 25  1  0  0  0  0
 25 26  1  0  0  0  0
 26 27  2  0  0  0  0
 26 28  1  0  0  0  0
 27 29  1  0  0  0  0
 28 30  2  0  0  0  0
 29 31  1  0  0  0  0
 29 32  2  0  0  0  0
 13 14  1  0  0  0  0
 20 22  1  0  0  0  0
 24 25  2  0  0  0  0
 30 32  1  0  0  0  0
M  END
>  <MolRegNo>
1977963

>  <m>
=

>  <Value>
221

>  <Unit>
nM

>  <Type>
IC50

>  <pValue>
6.66

>  <Ligand Efficiency>
0.28

>  <Binding Efficiency>
15.57

>  <Surface Efficiency>
6.23

>  <Assay Index>
974274

>  <Assay Category>


>  <Assay Organism>
Homo sapiens

>  <Target ID>
17045

>  <Target Name>
Cytochrome P450 3A4

>  <Target Organism>
Homo sapiens

>  <Target Description>
Target is a single protein chain

>  <Sequence Accession>
P08684

>  <Reference>


>  <Pubmed ID>


>  <DOI>


$$$$
2006986
Actelion Java MolfileCreator 1.0

 28 31  0  0  0  0  0  0  0  0999 V2000
    0.0000   -0.0000   -0.0000 F   0  0  0  0  0  0  0  0  0  0  0  0
    1.1828   -0.2414   -0.0000 C   0  0  0  0  0  0  0  0  0  0  0  0
    1.6536   -1.6898   -0.0000 N   0  0  0  0  0  0  0  0  0  0  0  0
    2.1967    0.9173   -0.0000 C   0  0  0  0  0  0  0  0  0  0  0  0
    3.1382   -1.9915   -0.0000 C   0  0  0  0  0  0  0  0  0  0  0  0
    3.6813    0.6156   -0.0000 C   0  0  0  0  0  0  0  0  0  0  0  0
    1.7139    2.3898   -0.0000 C   0  0  0  0  0  0  0  0  0  0  0  0
    3.5968   -3.4399   -0.0000 N   0  0  0  0  0  0  0  0  0  0  0  0
    4.1520   -0.8328   -0.0000 C   0  0  0  0  0  0  0  0  0  0  0  0
    2.7278    3.5365   -0.0000 C   0  0  0  0  0  0  0  0  0  0  0  0
    2.5588   -4.5745   -0.0000 C   0  0  0  0  0  0  0  0  0  0  0  0
    2.4019    5.0452   -0.0000 C   0  0  0  0  0  0  0  0  0  0  0  0
    4.2365    3.3916   -0.0000 C   0  0  0  0  0  0  0  0  0  0  0  0
    3.0175   -6.0229   -0.0000 C   0  0  0  0  0  0  0  0  0  0  0  0
    3.7175    5.8177   -0.0000 C   0  0  0  0  0  0  0  0  0  0  0  0
    1.0621    5.8177   -0.0000 C   0  0  0  0  0  0  0  0  0  0  0  0
    4.8521    4.8038   -0.0000 N   0  0  0  0  0  0  0  0  0  0  0  0
    4.5021   -6.3246   -0.0000 C   0  0  0  0  0  0  0  0  0  0  0  0
    1.9795   -7.1574   -0.0000 C   0  0  0  0  0  0  0  0  0  0  0  0
    3.7054    7.3626   -0.0000 N   0  0  0  0  0  0  0  0  0  0  0  0
    1.0501    7.3626   -0.0000 C   0  0  0  0  0  0  0  0  0  0  0  0
    4.9728   -7.7730   -0.0000 N   0  0  0  0  0  0  0  0  0  0  0  0
    2.4502   -8.6058   -0.0000 C   0  0  0  0  0  0  0  0  0  0  0  0
    2.3657    8.1351   -0.0000 C   0  0  0  0  0  0  0  0  0  0  0  0
   -0.0241    7.9902   -0.0000 F   0  0  0  0  0  0  0  0  0  0  0  0
    3.9348   -8.9076   -0.0000 C   0  0  0  0  0  0  0  0  0  0  0  0
    4.4055  -10.3559   -0.0000 O   0  0  0  0  0  0  0  0  0  0  0  0
    5.5883  -10.5973   -0.0000 C   0  0  0  0  0  0  0  0  0  0  0  0
  1  2  1  0  0  0  0
  2  3  2  0  0  0  0
  2  4  1  0  0  0  0
  3  5  1  0  0  0  0
  4  6  2  0  0  0  0
  4  7  1  0  0  0  0
  5  8  1  0  0  0  0
  5  9  2  0  0  0  0
  7 10  1  0  0  0  0
  8 11  1  0  0  0  0
 10 12  1  0  0  0  0
 10 13  2  0  0  0  0
 11 14  1  0  0  0  0
 12 15  2  0  0  0  0
 12 16  1  0  0  0  0
 13 17  1  0  0  0  0
 14 18  2  0  0  0  0
 14 19  1  0  0  0  0
 15 20  1  0  0  0  0
 16 21  2  0  0  0  0
 18 22  1  0  0  0  0
 19 23  2  0  0  0  0
 20 24  2  0  0  0  0
 21 25  1  0  0  0  0
 22 26  2  0  0  0  0
 26 27  1  0  0  0  0
 27 28  1  0  0  0  0
  6  9  1  0  0  0  0
 15 17  1  0  0  0  0
 21 24  1  0  0  0  0
 23 26  1  0  0  0  0
M  END
>  <MolRegNo>
2006986

>  <m>
=

>  <Value>
5000

>  <Unit>
nM

>  <Type>
IC50

>  <pValue>
5.3

>  <Ligand Efficiency>
0.26

>  <Binding Efficiency>
13.9

>  <Surface Efficiency>
7

>  <Assay Index>
974253

>  <Assay Category>


>  <Assay Organism>
Homo sapiens

>  <Target ID>
17045

>  <Target Name>
Cytochrome P450 3A4

>  <Target Organism>
Homo sapiens

>  <Target Description>
Target is a single protein chain

>  <Sequence Accession>
P08684

>  <Reference>


>  <Pubmed ID>


>  <DOI>


$$$$
2006989
Actelion Java MolfileCreator 1.0

 32 35  0  0  0  0  0  0  0  0999 V2000
    0.0000   -0.0000   -0.0000 F   0  0  0  0  0  0  0  0  0  0  0  0
    1.1929   -0.2435   -0.0000 C   0  0  0  0  0  0  0  0  0  0  0  0
    1.6676   -1.7042   -0.0000 N   0  0  0  0  0  0  0  0  0  0  0  0
    2.2154    0.9251   -0.0000 C   0  0  0  0  0  0  0  0  0  0  0  0
    3.1649   -2.0085   -0.0000 C   0  0  0  0  0  0  0  0  0  0  0  0
    3.7127    0.6208   -0.0000 C   0  0  0  0  0  0  0  0  0  0  0  0
    1.7285    2.4102   -0.0000 C   0  0  0  0  0  0  0  0  0  0  0  0
    3.6274   -3.4692   -0.0000 N   0  0  0  0  0  0  0  0  0  0  0  0
    4.1874   -0.8399   -0.0000 C   0  0  0  0  0  0  0  0  0  0  0  0
    2.7510    3.5666   -0.0000 C   0  0  0  0  0  0  0  0  0  0  0  0
    2.5806   -4.6134   -0.0000 C   0  0  0  0  0  0  0  0  0  0  0  0
    2.4224    5.0882   -0.0000 C   0  0  0  0  0  0  0  0  0  0  0  0
    4.2726    3.4205   -0.0000 C   0  0  0  0  0  0  0  0  0  0  0  0
    3.0432   -6.0741   -0.0000 C   0  0  0  0  0  0  0  0  0  0  0  0
    3.7492    5.8672   -0.0000 C   0  0  0  0  0  0  0  0  0  0  0  0
    1.0712    5.8672   -0.0000 C   0  0  0  0  0  0  0  0  0  0  0  0
    4.8934    4.8447   -0.0000 N   0  0  0  0  0  0  0  0  0  0  0  0
    1.9963   -7.2184   -0.0000 C   0  0  0  0  0  0  0  0  0  0  0  0
    4.5404   -6.3785   -0.0000 C   0  0  0  0  0  0  0  0  0  0  0  0
    3.7370    7.4253   -0.0000 N   0  0  0  0  0  0  0  0  0  0  0  0
    1.0590    7.4253   -0.0000 C   0  0  0  0  0  0  0  0  0  0  0  0
    0.4747   -6.8897   -0.0000 O   0  0  0  0  0  0  0  0  0  0  0  0
    2.4710   -8.6791   -0.0000 N   0  0  0  0  0  0  0  0  0  0  0  0
    5.0151   -7.8392   -0.0000 C   0  0  0  0  0  0  0  0  0  0  0  0
    2.3858    8.2044   -0.0000 C   0  0  0  0  0  0  0  0  0  0  0  0
   -0.2921    8.2044   -0.0000 N   0  0  0  0  0  0  0  0  0  0  0  0
   -0.3652   -7.8027   -0.0000 C   0  0  0  0  0  0  0  0  0  0  0  0
    3.9683   -8.9834   -0.0000 C   0  0  0  0  0  0  0  0  0  0  0  0
    6.2080   -8.0826   -0.0000 F   0  0  0  0  0  0  0  0  0  0  0  0
   -1.6433    7.4375   -0.0000 C   0  0  0  0  0  0  0  0  0  0  0  0
   -2.7267    8.0705   -0.0000 O   0  0  0  0  0  0  0  0  0  0  0  0
   -1.6555    6.2080   -0.0000 C   0  0  0  0  0  0  0  0  0  0  0  0
  1  2  1  0  0  0  0
  2  3  2  0  0  0  0
  2  4  1  0  0  0  0
  3  5  1  0  0  0  0
  4  6  2  0  0  0  0
  4  7  1  0  0  0  0
  5  8  1  0  0  0  0
  5  9  2  0  0  0  0
  7 10  1  0  0  0  0
  8 11  1  0  0  0  0
 10 12  1  0  0  0  0
 10 13  2  0  0  0  0
 11 14  1  0  0  0  0
 12 15  2  0  0  0  0
 12 16  1  0  0  0  0
 13 17  1  0  0  0  0
 14 18  2  0  0  0  0
 14 19  1  0  0  0  0
 15 20  1  0  0  0  0
 16 21  2  0  0  0  0
 18 22  1  0  0  0  0
 18 23  1  0  0  0  0
 19 24  2  0  0  0  0
 20 25  2  0  0  0  0
 21 26  1  0  0  0  0
 22 27  1  0  0  0  0
 23 28  2  0  0  0  0
 24 29  1  0  0  0  0
 26 30  1  0  0  0  0
 30 31  2  0  0  0  0
 30 32  1  0  0  0  0
  6  9  1  0  0  0  0
 15 17  1  0  0  0  0
 21 25  1  0  0  0  0
 24 28  1  0  0  0  0
M  END
>  <MolRegNo>
2006989

>  <m>
=

>  <Value>
5000

>  <Unit>
nM

>  <Type>
IC50

>  <pValue>
5.3

>  <Ligand Efficiency>
0.23

>  <Binding Efficiency>
12.09

>  <Surface Efficiency>
5.06

>  <Assay Index>
974253

>  <Assay Category>


>  <Assay Organism>
Homo sapiens

>  <Target ID>
17045

>  <Target Name>
Cytochrome P450 3A4

>  <Target Organism>
Homo sapiens

>  <Target Description>
Target is a single protein chain

>  <Sequence Accession>
P08684

>  <Reference>


>  <Pubmed ID>


>  <DOI>


$$$$
2007004
Actelion Java MolfileCreator 1.0

 29 32  0  0  0  0  0  0  0  0999 V2000
    0.0000   -0.0000   -0.0000 Cl  0  0  0  0  0  0  0  0  0  0  0  0
    1.0601   -0.6092   -0.0000 C   0  0  0  0  0  0  0  0  0  0  0  0
    2.3882    0.1706   -0.0000 C   0  0  0  0  0  0  0  0  0  0  0  0
    1.0479   -2.1445   -0.0000 C   0  0  0  0  0  0  0  0  0  0  0  0
    3.7163   -0.5970   -0.0000 N   0  0  0  0  0  0  0  0  0  0  0  0
    2.3760   -2.9121   -0.0000 C   0  0  0  0  0  0  0  0  0  0  0  0
    3.7041   -2.1323   -0.0000 C   0  0  0  0  0  0  0  0  0  0  0  0
    2.6806   -4.4108   -0.0000 C   0  0  0  0  0  0  0  0  0  0  0  0
    4.8372   -3.1558   -0.0000 N   0  0  0  0  0  0  0  0  0  0  0  0
    4.2037   -4.5570   -0.0000 C   0  0  0  0  0  0  0  0  0  0  0  0
    1.6327   -5.5439   -0.0000 C   0  0  0  0  0  0  0  0  0  0  0  0
    2.0957   -7.0061   -0.0000 C   0  0  0  0  0  0  0  0  0  0  0  0
    3.5944   -7.3107   -0.0000 C   0  0  0  0  0  0  0  0  0  0  0  0
    1.0479   -8.1514   -0.0000 C   0  0  0  0  0  0  0  0  0  0  0  0
    4.0696   -8.7728   -0.0000 N   0  0  0  0  0  0  0  0  0  0  0  0
    1.5231   -9.6136   -0.0000 C   0  0  0  0  0  0  0  0  0  0  0  0
    3.0218   -9.9182   -0.0000 C   0  0  0  0  0  0  0  0  0  0  0  0
    3.4970  -11.3803   -0.0000 N   0  0  0  0  0  0  0  0  0  0  0  0
    4.9956  -11.6849   -0.0000 C   0  0  0  0  0  0  0  0  0  0  0  0
    5.4708  -13.1471   -0.0000 C   0  0  0  0  0  0  0  0  0  0  0  0
    6.9695  -13.4517   -0.0000 C   0  0  0  0  0  0  0  0  0  0  0  0
    4.4230  -14.2924   -0.0000 C   0  0  0  0  0  0  0  0  0  0  0  0
    7.4447  -14.9138   -0.0000 C   0  0  0  0  0  0  0  0  0  0  0  0
    7.9930  -12.2820   -0.0000 C   0  0  0  0  0  0  0  0  0  0  0  0
    4.8982  -15.7546   -0.0000 N   0  0  0  0  0  0  0  0  0  0  0  0
    6.3969  -16.0592   -0.0000 C   0  0  0  0  0  0  0  0  0  0  0  0
    9.1871  -12.5257   -0.0000 F   0  0  0  0  0  0  0  0  0  0  0  0
    7.5909  -11.0879   -0.0000 F   0  0  0  0  0  0  0  0  0  0  0  0
    8.8094  -11.3438   -0.0000 F   0  0  0  0  0  0  0  0  0  0  0  0
  1  2  1  0  0  0  0
  2  3  2  0  0  0  0
  2  4  1  0  0  0  0
  3  5  1  0  0  0  0
  4  6  2  0  0  0  0
  5  7  2  0  0  0  0
  6  8  1  0  0  0  0
  7  9  1  0  0  0  0
  8 10  2  0  0  0  0
  8 11  1  0  0  0  0
 11 12  1  0  0  0  0
 12 13  2  0  0  0  0
 12 14  1  0  0  0  0
 13 15  1  0  0  0  0
 14 16  2  0  0  0  0
 15 17  2  0  0  0  0
 17 18  1  0  0  0  0
 18 19  1  0  0  0  0
 19 20  1  0  0  0  0
 20 21  2  0  0  0  0
 20 22  1  0  0  0  0
 21 23  1  0  0  0  0
 21 24  1  0  0  0  0
 22 25  2  0  0  0  0
 23 26  2  0  0  0  0
 24 27  1  0  0  0  0
 24 28  1  0  0  0  0
 24 29  1  0  0  0  0
  6  7  1  0  0  0  0
  9 10  1  0  0  0  0
 16 17  1  0  0  0  0
 25 26  1  0  0  0  0
M  END
>  <MolRegNo>
2007004

>  <m>
=

>  <Value>
5000

>  <Unit>
nM

>  <Type>
IC50

>  <pValue>
5.3

>  <Ligand Efficiency>
0.25

>  <Binding Efficiency>
12.69

>  <Surface Efficiency>
7.97

>  <Assay Index>
974253

>  <Assay Category>


>  <Assay Organism>
Homo sapiens

>  <Target ID>
17045

>  <Target Name>
Cytochrome P450 3A4

>  <Target Organism>
Homo sapiens

>  <Target Description>
Target is a single protein chain

>  <Sequence Accession>
P08684

>  <Reference>


>  <Pubmed ID>


>  <DOI>


$$$$
2006994
Actelion Java MolfileCreator 1.0

 28 31  0  0  0  0  0  0  0  0999 V2000
    0.0000   -0.0000   -0.0000 Cl  0  0  0  0  0  0  0  0  0  0  0  0
    0.3719    1.1755   -0.0000 C   0  0  0  0  0  0  0  0  0  0  0  0
    1.8473    1.4994   -0.0000 C   0  0  0  0  0  0  0  0  0  0  0  0
   -0.6597    2.3271   -0.0000 C   0  0  0  0  0  0  0  0  0  0  0  0
    2.3151    2.9628   -0.0000 C   0  0  0  0  0  0  0  0  0  0  0  0
   -0.1919    3.7905   -0.0000 C   0  0  0  0  0  0  0  0  0  0  0  0
    1.2835    4.1143   -0.0000 C   0  0  0  0  0  0  0  0  0  0  0  0
    1.7393    5.5778   -0.0000 C   0  0  0  0  0  0  0  0  0  0  0  0
    0.7077    6.7293   -0.0000 N   0  0  0  0  0  0  0  0  0  0  0  0
    1.1635    8.1927   -0.0000 C   0  0  0  0  0  0  0  0  0  0  0  0
    2.6389    8.5166   -0.0000 N   0  0  0  0  0  0  0  0  0  0  0  0
    0.1319    9.3442   -0.0000 C   0  0  0  0  0  0  0  0  0  0  0  0
    3.1067    9.9800   -0.0000 C   0  0  0  0  0  0  0  0  0  0  0  0
    0.5998   10.8076   -0.0000 C   0  0  0  0  0  0  0  0  0  0  0  0
    4.2823   10.2439   -0.0000 F   0  0  0  0  0  0  0  0  0  0  0  0
    2.0752   11.1315   -0.0000 C   0  0  0  0  0  0  0  0  0  0  0  0
    2.5310   12.5949   -0.0000 C   0  0  0  0  0  0  0  0  0  0  0  0
    1.4994   13.7345   -0.0000 C   0  0  0  0  0  0  0  0  0  0  0  0
    1.7993   15.2339   -0.0000 C   0  0  0  0  0  0  0  0  0  0  0  0
   -0.0240   13.5905   -0.0000 C   0  0  0  0  0  0  0  0  0  0  0  0
    3.1067   16.0015   -0.0000 C   0  0  0  0  0  0  0  0  0  0  0  0
    0.4678   16.0015   -0.0000 C   0  0  0  0  0  0  0  0  0  0  0  0
   -0.6597   14.9940   -0.0000 N   0  0  0  0  0  0  0  0  0  0  0  0
    4.4142   15.2578   -0.0000 O   0  0  0  0  0  0  0  0  0  0  0  0
    3.0948   17.5369   -0.0000 C   0  0  0  0  0  0  0  0  0  0  0  0
    0.4558   17.5369   -0.0000 N   0  0  0  0  0  0  0  0  0  0  0  0
    5.4578   15.8816   -0.0000 C   0  0  0  0  0  0  0  0  0  0  0  0
    1.7633   18.3046   -0.0000 C   0  0  0  0  0  0  0  0  0  0  0  0
  1  2  1  0  0  0  0
  2  3  2  0  0  0  0
  2  4  1  0  0  0  0
  3  5  1  0  0  0  0
  4  6  2  0  0  0  0
  5  7  2  0  0  0  0
  7  8  1  0  0  0  0
  8  9  1  0  0  0  0
  9 10  1  0  0  0  0
 10 11  2  0  0  0  0
 10 12  1  0  0  0  0
 11 13  1  0  0  0  0
 12 14  2  0  0  0  0
 13 15  1  0  0  0  0
 13 16  2  0  0  0  0
 16 17  1  0  0  0  0
 17 18  1  0  0  0  0
 18 19  1  0  0  0  0
 18 20  2  0  0  0  0
 19 21  2  0  0  0  0
 19 22  1  0  0  0  0
 20 23  1  0  0  0  0
 21 24  1  0  0  0  0
 21 25  1  0  0  0  0
 22 26  2  0  0  0  0
 24 27  1  0  0  0  0
 25 28  2  0  0  0  0
  6  7  1  0  0  0  0
 14 16  1  0  0  0  0
 22 23  1  0  0  0  0
 26 28  1  0  0  0  0
M  END
>  <MolRegNo>
2006994

>  <m>
=

>  <Value>
5000

>  <Unit>
nM

>  <Type>
IC50

>  <pValue>
5.3

>  <Ligand Efficiency>
0.26

>  <Binding Efficiency>
13.36

>  <Surface Efficiency>
8.44

>  <Assay Index>
974253

>  <Assay Category>


>  <Assay Organism>
Homo sapiens

>  <Target ID>
17045

>  <Target Name>
Cytochrome P450 3A4

>  <Target Organism>
Homo sapiens

>  <Target Description>
Target is a single protein chain

>  <Sequence Accession>
P08684

>  <Reference>


>  <Pubmed ID>


>  <DOI>


$$$$
2006975
Actelion Java MolfileCreator 1.0

 27 30  0  0  0  0  0  0  0  0999 V2000
    0.0000   -0.0000   -0.0000 F   0  0  0  0  0  0  0  0  0  0  0  0
   -0.8283    0.9244   -0.0000 C   0  0  0  0  0  0  0  0  0  0  0  0
   -2.3289    0.6242   -0.0000 N   0  0  0  0  0  0  0  0  0  0  0  0
   -0.3601    2.3890   -0.0000 C   0  0  0  0  0  0  0  0  0  0  0  0
   -3.3613    1.7767   -0.0000 C   0  0  0  0  0  0  0  0  0  0  0  0
   -1.3926    3.5414   -0.0000 C   0  0  0  0  0  0  0  0  0  0  0  0
    1.1164    2.7131   -0.0000 C   0  0  0  0  0  0  0  0  0  0  0  0
   -4.8619    1.4766   -0.0000 N   0  0  0  0  0  0  0  0  0  0  0  0
   -2.8932    3.2413   -0.0000 C   0  0  0  0  0  0  0  0  0  0  0  0
    1.5726    4.1777   -0.0000 C   0  0  0  0  0  0  0  0  0  0  0  0
   -5.3421    0.0360   -0.0000 C   0  0  0  0  0  0  0  0  0  0  0  0
    3.0132    4.6579   -0.0000 C   0  0  0  0  0  0  0  0  0  0  0  0
    0.6603    5.4262   -0.0000 C   0  0  0  0  0  0  0  0  0  0  0  0
   -6.8427   -0.2641   -0.0000 C   0  0  0  0  0  0  0  0  0  0  0  0
    3.0012    6.1945   -0.0000 C   0  0  0  0  0  0  0  0  0  0  0  0
    4.3217    3.9016   -0.0000 C   0  0  0  0  0  0  0  0  0  0  0  0
    1.5486    6.6747   -0.0000 N   0  0  0  0  0  0  0  0  0  0  0  0
   -7.8751    0.8884   -0.0000 C   0  0  0  0  0  0  0  0  0  0  0  0
   -7.3349   -1.7047   -0.0000 C   0  0  0  0  0  0  0  0  0  0  0  0
    4.3097    6.9628   -0.0000 N   0  0  0  0  0  0  0  0  0  0  0  0
    5.6302    4.6699   -0.0000 C   0  0  0  0  0  0  0  0  0  0  0  0
   -9.3757    0.5882   -0.0000 C   0  0  0  0  0  0  0  0  0  0  0  0
   -8.8355   -2.0048   -0.0000 C   0  0  0  0  0  0  0  0  0  0  0  0
    5.6182    6.2065   -0.0000 C   0  0  0  0  0  0  0  0  0  0  0  0
    6.6747    4.0696   -0.0000 C   0  0  0  0  0  0  0  0  0  0  0  0
  -10.2041    1.5126   -0.0000 F   0  0  0  0  0  0  0  0  0  0  0  0
   -9.8679   -0.8523   -0.0000 N   0  0  0  0  0  0  0  0  0  0  0  0
  1  2  1  0  0  0  0
  2  3  2  0  0  0  0
  2  4  1  0  0  0  0
  3  5  1  0  0  0  0
  4  6  2  0  0  0  0
  4  7  1  0  0  0  0
  5  8  1  0  0  0  0
  5  9  2  0  0  0  0
  7 10  1  0  0  0  0
  8 11  1  0  0  0  0
 10 12  1  0  0  0  0
 10 13  2  0  0  0  0
 11 14  1  0  0  0  0
 12 15  2  0  0  0  0
 12 16  1  0  0  0  0
 13 17  1  0  0  0  0
 14 18  2  0  0  0  0
 14 19  1  0  0  0  0
 15 20  1  0  0  0  0
 16 21  2  0  0  0  0
 18 22  1  0  0  0  0
 19 23  2  0  0  0  0
 20 24  2  0  0  0  0
 21 25  1  0  0  0  0
 22 26  1  0  0  0  0
 22 27  2  0  0  0  0
  6  9  1  0  0  0  0
 15 17  1  0  0  0  0
 21 24  1  0  0  0  0
 23 27  1  0  0  0  0
M  END
>  <MolRegNo>
2006975

>  <m>
=

>  <Value>
5000

>  <Unit>
nM

>  <Type>
IC50

>  <pValue>
5.3

>  <Ligand Efficiency>
0.27

>  <Binding Efficiency>
14.51

>  <Surface Efficiency>
7.97

>  <Assay Index>
974253

>  <Assay Category>


>  <Assay Organism>
Homo sapiens

>  <Target ID>
17045

>  <Target Name>
Cytochrome P450 3A4

>  <Target Organism>
Homo sapiens

>  <Target Description>
Target is a single protein chain

>  <Sequence Accession>
P08684

>  <Reference>


>  <Pubmed ID>


>  <DOI>


$$$$
2014090
Actelion Java MolfileCreator 1.0

 32 35  0  0  0  0  0  0  0  0999 V2000
    0.0000   -0.0000   -0.0000 F   0  0  0  0  0  0  0  0  0  0  0  0
   -0.0122    1.2591   -0.0000 C   0  0  0  0  0  0  0  0  0  0  0  0
    1.3202    2.0415   -0.0000 C   0  0  0  0  0  0  0  0  0  0  0  0
   -1.3691    2.0415   -0.0000 C   0  0  0  0  0  0  0  0  0  0  0  0
    1.3080    3.6062   -0.0000 C   0  0  0  0  0  0  0  0  0  0  0  0
    2.6527    1.2713   -0.0000 C   0  0  0  0  0  0  0  0  0  0  0  0
   -1.3813    3.6062   -0.0000 C   0  0  0  0  0  0  0  0  0  0  0  0
   -0.0489    4.3885   -0.0000 C   0  0  0  0  0  0  0  0  0  0  0  0
    2.6405    2.5304   -0.0000 O   0  0  0  0  0  0  0  0  0  0  0  0
    3.9851    0.5134   -0.0000 C   0  0  0  0  0  0  0  0  0  0  0  0
    1.2958    0.5012   -0.0000 C   0  0  0  0  0  0  0  0  0  0  0  0
   -2.4693    4.2418   -0.0000 F   0  0  0  0  0  0  0  0  0  0  0  0
    3.9729   -0.7212   -0.0000 F   0  0  0  0  0  0  0  0  0  0  0  0
    5.0486   -0.0978   -0.0000 F   0  0  0  0  0  0  0  0  0  0  0  0
    5.3176    1.3080   -0.0000 C   0  0  0  0  0  0  0  0  0  0  0  0
   -0.0611    1.2836   -0.0000 N   0  0  0  0  0  0  0  0  0  0  0  0
    5.3054    2.8727   -0.0000 N   0  0  0  0  0  0  0  0  0  0  0  0
    6.6500    0.5379   -0.0000 C   0  0  0  0  0  0  0  0  0  0  0  0
   -0.2078    2.8238   -0.0000 N   0  0  0  0  0  0  0  0  0  0  0  0
   -1.4669    0.6601   -0.0000 C   0  0  0  0  0  0  0  0  0  0  0  0
    6.6378    3.6551   -0.0000 C   0  0  0  0  0  0  0  0  0  0  0  0
    7.9825    1.3202   -0.0000 C   0  0  0  0  0  0  0  0  0  0  0  0
   -1.7359    3.1661   -0.0000 C   0  0  0  0  0  0  0  0  0  0  0  0
   -2.5182    1.8336   -0.0000 N   0  0  0  0  0  0  0  0  0  0  0  0
    7.9703    2.8849   -0.0000 C   0  0  0  0  0  0  0  0  0  0  0  0
    9.3027    3.6795   -0.0000 C   0  0  0  0  0  0  0  0  0  0  0  0
   10.6352    2.9216   -0.0000 C   0  0  0  0  0  0  0  0  0  0  0  0
    9.2905    5.2442   -0.0000 C   0  0  0  0  0  0  0  0  0  0  0  0
   11.9676    3.7162   -0.0000 C   0  0  0  0  0  0  0  0  0  0  0  0
   10.6229    6.0388   -0.0000 C   0  0  0  0  0  0  0  0  0  0  0  0
   11.9554    5.2809   -0.0000 C   0  0  0  0  0  0  0  0  0  0  0  0
   13.0189    5.9166   -0.0000 F   0  0  0  0  0  0  0  0  0  0  0  0
  1  2  1  0  0  0  0
  2  3  2  0  0  0  0
  2  4  1  0  0  0  0
  3  5  1  0  0  0  0
  3  6  1  0  0  0  0
  4  7  2  0  0  0  0
  5  8  2  0  0  0  0
  6  9  1  0  0  0  0
  6 10  1  0  0  0  0
  6 11  1  0  0  0  0
  7 12  1  0  0  0  0
 10 13  1  0  0  0  0
 10 14  1  0  0  0  0
 10 15  1  0  0  0  0
 11 16  1  0  0  0  0
 15 17  2  0  0  0  0
 15 18  1  0  0  0  0
 16 19  1  0  0  0  0
 16 20  1  0  0  0  0
 17 21  1  0  0  0  0
 18 22  2  0  0  0  0
 19 23  2  0  0  0  0
 20 24  2  0  0  0  0
 21 25  2  0  0  0  0
 25 26  1  0  0  0  0
 26 27  2  0  0  0  0
 26 28  1  0  0  0  0
 27 29  1  0  0  0  0
 28 30  2  0  0  0  0
 29 31  2  0  0  0  0
 31 32  1  0  0  0  0
  7  8  1  0  0  0  0
 22 25  1  0  0  0  0
 23 24  1  0  0  0  0
 30 31  1  0  0  0  0
M  END
>  <MolRegNo>
2014090

>  <m>
=

>  <Value>
1400

>  <Unit>
nM

>  <Type>
IC50

>  <pValue>
5.85

>  <Ligand Efficiency>
0.25

>  <Binding Efficiency>
13.11

>  <Surface Efficiency>
9.17

>  <Assay Index>
974690

>  <Assay Category>


>  <Assay Organism>
Homo sapiens

>  <Target ID>
17045

>  <Target Name>
Cytochrome P450 3A4

>  <Target Organism>
Homo sapiens

>  <Target Description>
Target is a single protein chain

>  <Sequence Accession>
P08684

>  <Reference>


>  <Pubmed ID>


>  <DOI>


$$$$
2006993
Actelion Java MolfileCreator 1.0

 28 31  0  0  0  0  0  0  0  0999 V2000
    0.0000   -0.0000   -0.0000 F   0  0  0  0  0  0  0  0  0  0  0  0
   -1.2033    0.2647   -0.0000 C   0  0  0  0  0  0  0  0  0  0  0  0
   -2.2381   -0.8664   -0.0000 C   0  0  0  0  0  0  0  0  0  0  0  0
   -1.6966    1.7327   -0.0000 C   0  0  0  0  0  0  0  0  0  0  0  0
   -3.7422   -0.5415   -0.0000 N   0  0  0  0  0  0  0  0  0  0  0  0
   -1.7809   -2.3103   -0.0000 N   0  0  0  0  0  0  0  0  0  0  0  0
   -3.2007    2.0576   -0.0000 C   0  0  0  0  0  0  0  0  0  0  0  0
   -4.2356    0.9265   -0.0000 C   0  0  0  0  0  0  0  0  0  0  0  0
   -2.8157   -3.4414   -0.0000 C   0  0  0  0  0  0  0  0  0  0  0  0
   -3.6821    3.5256   -0.0000 C   0  0  0  0  0  0  0  0  0  0  0  0
   -2.3584   -4.8853   -0.0000 C   0  0  0  0  0  0  0  0  0  0  0  0
   -2.6713    4.6687   -0.0000 C   0  0  0  0  0  0  0  0  0  0  0  0
   -0.8784   -5.1862   -0.0000 C   0  0  0  0  0  0  0  0  0  0  0  0
   -3.3933   -6.0164   -0.0000 C   0  0  0  0  0  0  0  0  0  0  0  0
   -2.9962    6.1729   -0.0000 C   0  0  0  0  0  0  0  0  0  0  0  0
   -1.1672    4.5244   -0.0000 C   0  0  0  0  0  0  0  0  0  0  0  0
   -0.4091   -6.6301   -0.0000 N   0  0  0  0  0  0  0  0  0  0  0  0
   -2.9240   -7.4604   -0.0000 C   0  0  0  0  0  0  0  0  0  0  0  0
   -1.6846    6.9430   -0.0000 C   0  0  0  0  0  0  0  0  0  0  0  0
   -4.3318    6.9430   -0.0000 C   0  0  0  0  0  0  0  0  0  0  0  0
   -0.5535    5.9322   -0.0000 N   0  0  0  0  0  0  0  0  0  0  0  0
   -1.4439   -7.7612   -0.0000 C   0  0  0  0  0  0  0  0  0  0  0  0
   -1.6966    8.4832   -0.0000 N   0  0  0  0  0  0  0  0  0  0  0  0
   -4.3439    8.4832   -0.0000 C   0  0  0  0  0  0  0  0  0  0  0  0
   -0.9747   -9.2051   -0.0000 O   0  0  0  0  0  0  0  0  0  0  0  0
   -3.0323    9.2533   -0.0000 C   0  0  0  0  0  0  0  0  0  0  0  0
   -5.4148    9.1089   -0.0000 C   0  0  0  0  0  0  0  0  0  0  0  0
    0.2046   -9.4458   -0.0000 C   0  0  0  0  0  0  0  0  0  0  0  0
  1  2  1  0  0  0  0
  2  3  2  0  0  0  0
  2  4  1  0  0  0  0
  3  5  1  0  0  0  0
  3  6  1  0  0  0  0
  4  7  2  0  0  0  0
  5  8  2  0  0  0  0
  6  9  1  0  0  0  0
  7 10  1  0  0  0  0
  9 11  1  0  0  0  0
 10 12  1  0  0  0  0
 11 13  2  0  0  0  0
 11 14  1  0  0  0  0
 12 15  1  0  0  0  0
 12 16  2  0  0  0  0
 13 17  1  0  0  0  0
 14 18  2  0  0  0  0
 15 19  2  0  0  0  0
 15 20  1  0  0  0  0
 16 21  1  0  0  0  0
 17 22  2  0  0  0  0
 19 23  1  0  0  0  0
 20 24  2  0  0  0  0
 22 25  1  0  0  0  0
 23 26  2  0  0  0  0
 24 27  1  0  0  0  0
 25 28  1  0  0  0  0
  7  8  1  0  0  0  0
 18 22  1  0  0  0  0
 19 21  1  0  0  0  0
 24 26  1  0  0  0  0
M  END
>  <MolRegNo>
2006993

>  <m>
=

>  <Value>
5000

>  <Unit>
nM

>  <Type>
IC50

>  <pValue>
5.3

>  <Ligand Efficiency>
0.26

>  <Binding Efficiency>
14.05

>  <Surface Efficiency>
7

>  <Assay Index>
974253

>  <Assay Category>


>  <Assay Organism>
Homo sapiens

>  <Target ID>
17045

>  <Target Name>
Cytochrome P450 3A4

>  <Target Organism>
Homo sapiens

>  <Target Description>
Target is a single protein chain

>  <Sequence Accession>
P08684

>  <Reference>


>  <Pubmed ID>


>  <DOI>


$$$$
2006974
Actelion Java MolfileCreator 1.0

 27 30  0  0  0  0  0  0  0  0999 V2000
    0.0000   -0.0000   -0.0000 F   0  0  0  0  0  0  0  0  0  0  0  0
   -0.8290    0.9251   -0.0000 C   0  0  0  0  0  0  0  0  0  0  0  0
   -2.3307    0.6247   -0.0000 N   0  0  0  0  0  0  0  0  0  0  0  0
   -0.3604    2.3908   -0.0000 C   0  0  0  0  0  0  0  0  0  0  0  0
   -3.3639    1.7780   -0.0000 C   0  0  0  0  0  0  0  0  0  0  0  0
   -1.3936    3.5441   -0.0000 C   0  0  0  0  0  0  0  0  0  0  0  0
    1.1173    2.7151   -0.0000 C   0  0  0  0  0  0  0  0  0  0  0  0
   -4.8656    1.4777   -0.0000 N   0  0  0  0  0  0  0  0  0  0  0  0
   -2.8953    3.2437   -0.0000 C   0  0  0  0  0  0  0  0  0  0  0  0
    1.5738    4.1808   -0.0000 C   0  0  0  0  0  0  0  0  0  0  0  0
   -5.3462    0.0360   -0.0000 C   0  0  0  0  0  0  0  0  0  0  0  0
    3.0155    4.6614   -0.0000 C   0  0  0  0  0  0  0  0  0  0  0  0
    0.6608    5.4303   -0.0000 C   0  0  0  0  0  0  0  0  0  0  0  0
   -6.8479   -0.2643   -0.0000 C   0  0  0  0  0  0  0  0  0  0  0  0
    3.0035    6.1991   -0.0000 C   0  0  0  0  0  0  0  0  0  0  0  0
    4.3250    3.9045   -0.0000 C   0  0  0  0  0  0  0  0  0  0  0  0
    1.5498    6.6797   -0.0000 N   0  0  0  0  0  0  0  0  0  0  0  0
   -7.3405   -1.7060   -0.0000 C   0  0  0  0  0  0  0  0  0  0  0  0
   -7.8811    0.8890   -0.0000 C   0  0  0  0  0  0  0  0  0  0  0  0
    4.3130    6.9680   -0.0000 N   0  0  0  0  0  0  0  0  0  0  0  0
    5.6345    4.6734   -0.0000 C   0  0  0  0  0  0  0  0  0  0  0  0
   -6.5355   -2.6070   -0.0000 F   0  0  0  0  0  0  0  0  0  0  0  0
   -8.8422   -2.0063   -0.0000 N   0  0  0  0  0  0  0  0  0  0  0  0
   -9.3828    0.5887   -0.0000 C   0  0  0  0  0  0  0  0  0  0  0  0
    5.6225    6.2112   -0.0000 C   0  0  0  0  0  0  0  0  0  0  0  0
    6.6797    4.0727   -0.0000 C   0  0  0  0  0  0  0  0  0  0  0  0
   -9.8754   -0.8530   -0.0000 C   0  0  0  0  0  0  0  0  0  0  0  0
  1  2  1  0  0  0  0
  2  3  2  0  0  0  0
  2  4  1  0  0  0  0
  3  5  1  0  0  0  0
  4  6  2  0  0  0  0
  4  7  1  0  0  0  0
  5  8  1  0  0  0  0
  5  9  2  0  0  0  0
  7 10  1  0  0  0  0
  8 11  1  0  0  0  0
 10 12  1  0  0  0  0
 10 13  2  0  0  0  0
 11 14  1  0  0  0  0
 12 15  2  0  0  0  0
 12 16  1  0  0  0  0
 13 17  1  0  0  0  0
 14 18  2  0  0  0  0
 14 19  1  0  0  0  0
 15 20  1  0  0  0  0
 16 21  2  0  0  0  0
 18 22  1  0  0  0  0
 18 23  1  0  0  0  0
 19 24  2  0  0  0  0
 20 25  2  0  0  0  0
 21 26  1  0  0  0  0
 23 27  2  0  0  0  0
  6  9  1  0  0  0  0
 15 17  1  0  0  0  0
 21 25  1  0  0  0  0
 24 27  1  0  0  0  0
M  END
>  <MolRegNo>
2006974

>  <m>
=

>  <Value>
5000

>  <Unit>
nM

>  <Type>
IC50

>  <pValue>
5.3

>  <Ligand Efficiency>
0.27

>  <Binding Efficiency>
14.51

>  <Surface Efficiency>
7.97

>  <Assay Index>
974253

>  <Assay Category>


>  <Assay Organism>
Homo sapiens

>  <Target ID>
17045

>  <Target Name>
Cytochrome P450 3A4

>  <Target Organism>
Homo sapiens

>  <Target Description>
Target is a single protein chain

>  <Sequence Accession>
P08684

>  <Reference>


>  <Pubmed ID>


>  <DOI>


$$$$
2007011
Actelion Java MolfileCreator 1.0

 31 34  0  0  0  0  0  0  0  0999 V2000
    0.0000   -0.0000   -0.0000 F   0  0  0  0  0  0  0  0  0  0  0  0
    0.8151   -0.9125   -0.0000 C   0  0  0  0  0  0  0  0  0  0  0  0
    0.3163   -2.3724   -0.0000 C   0  0  0  0  0  0  0  0  0  0  0  0
    2.3116   -0.5840   -0.0000 C   0  0  0  0  0  0  0  0  0  0  0  0
    1.3383   -3.5160   -0.0000 N   0  0  0  0  0  0  0  0  0  0  0  0
   -1.2045   -2.6766   -0.0000 N   0  0  0  0  0  0  0  0  0  0  0  0
    3.3336   -1.7276   -0.0000 C   0  0  0  0  0  0  0  0  0  0  0  0
    2.8347   -3.1876   -0.0000 C   0  0  0  0  0  0  0  0  0  0  0  0
   -1.6911   -4.1365   -0.0000 C   0  0  0  0  0  0  0  0  0  0  0  0
    4.8300   -1.3991   -0.0000 C   0  0  0  0  0  0  0  0  0  0  0  0
   -3.2119   -4.4407   -0.0000 C   0  0  0  0  0  0  0  0  0  0  0  0
    5.2923    0.0852   -0.0000 C   0  0  0  0  0  0  0  0  0  0  0  0
   -4.2582   -3.2727   -0.0000 C   0  0  0  0  0  0  0  0  0  0  0  0
   -3.7107   -5.9006   -0.0000 C   0  0  0  0  0  0  0  0  0  0  0  0
    6.7523    0.5718   -0.0000 C   0  0  0  0  0  0  0  0  0  0  0  0
    4.3677    1.3505   -0.0000 C   0  0  0  0  0  0  0  0  0  0  0  0
   -5.7790   -3.5769   -0.0000 N   0  0  0  0  0  0  0  0  0  0  0  0
   -5.2315   -6.2048   -0.0000 C   0  0  0  0  0  0  0  0  0  0  0  0
    6.7401    2.1291   -0.0000 C   0  0  0  0  0  0  0  0  0  0  0  0
    8.0784   -0.1947   -0.0000 C   0  0  0  0  0  0  0  0  0  0  0  0
    5.2680    2.6157   -0.0000 N   0  0  0  0  0  0  0  0  0  0  0  0
   -6.2778   -5.0368   -0.0000 C   0  0  0  0  0  0  0  0  0  0  0  0
    8.0662    2.9077   -0.0000 N   0  0  0  0  0  0  0  0  0  0  0  0
    9.4045    0.5840   -0.0000 C   0  0  0  0  0  0  0  0  0  0  0  0
   -7.7986   -5.3410   -0.0000 C   0  0  0  0  0  0  0  0  0  0  0  0
    9.3924    2.1413   -0.0000 C   0  0  0  0  0  0  0  0  0  0  0  0
   10.7306   -0.1825   -0.0000 O   0  0  0  0  0  0  0  0  0  0  0  0
   -8.2001   -6.5089   -0.0000 F   0  0  0  0  0  0  0  0  0  0  0  0
   -8.6380   -4.4042   -0.0000 F   0  0  0  0  0  0  0  0  0  0  0  0
   -9.0152   -5.5843   -0.0000 F   0  0  0  0  0  0  0  0  0  0  0  0
   10.7185   -1.4113   -0.0000 C   0  0  0  0  0  0  0  0  0  0  0  0
  1  2  1  0  0  0  0
  2  3  2  0  0  0  0
  2  4  1  0  0  0  0
  3  5  1  0  0  0  0
  3  6  1  0  0  0  0
  4  7  2  0  0  0  0
  5  8  2  0  0  0  0
  6  9  1  0  0  0  0
  7 10  1  0  0  0  0
  9 11  1  0  0  0  0
 10 12  1  0  0  0  0
 11 13  2  0  0  0  0
 11 14  1  0  0  0  0
 12 15  1  0  0  0  0
 12 16  2  0  0  0  0
 13 17  1  0  0  0  0
 14 18  2  0  0  0  0
 15 19  2  0  0  0  0
 15 20  1  0  0  0  0
 16 21  1  0  0  0  0
 17 22  2  0  0  0  0
 19 23  1  0  0  0  0
 20 24  2  0  0  0  0
 22 25  1  0  0  0  0
 23 26  2  0  0  0  0
 24 27  1  0  0  0  0
 25 28  1  0  0  0  0
 25 29  1  0  0  0  0
 25 30  1  0  0  0  0
 27 31  1  0  0  0  0
  7  8  1  0  0  0  0
 18 22  1  0  0  0  0
 19 21  1  0  0  0  0
 24 26  1  0  0  0  0
M  END
>  <MolRegNo>
2007011

>  <m>
=

>  <Value>
5000

>  <Unit>
nM

>  <Type>
IC50

>  <pValue>
5.3

>  <Ligand Efficiency>
0.23

>  <Binding Efficiency>
12.29

>  <Surface Efficiency>
7

>  <Assay Index>
974253

>  <Assay Category>


>  <Assay Organism>
Homo sapiens

>  <Target ID>
17045

>  <Target Name>
Cytochrome P450 3A4

>  <Target Organism>
Homo sapiens

>  <Target Description>
Target is a single protein chain

>  <Sequence Accession>
P08684

>  <Reference>


>  <Pubmed ID>


>  <DOI>


$$$$
2006979
Actelion Java MolfileCreator 1.0

 27 30  0  0  0  0  0  0  0  0999 V2000
    0.0000   -0.0000   -0.0000 Cl  0  0  0  0  0  0  0  0  0  0  0  0
    1.0552   -0.6065   -0.0000 C   0  0  0  0  0  0  0  0  0  0  0  0
    2.3773    0.1698   -0.0000 C   0  0  0  0  0  0  0  0  0  0  0  0
    1.0431   -2.1347   -0.0000 C   0  0  0  0  0  0  0  0  0  0  0  0
    3.6994   -0.5943   -0.0000 N   0  0  0  0  0  0  0  0  0  0  0  0
    2.3652   -2.8989   -0.0000 C   0  0  0  0  0  0  0  0  0  0  0  0
    3.6873   -2.1226   -0.0000 C   0  0  0  0  0  0  0  0  0  0  0  0
    2.6684   -4.3908   -0.0000 C   0  0  0  0  0  0  0  0  0  0  0  0
    4.8153   -3.1415   -0.0000 N   0  0  0  0  0  0  0  0  0  0  0  0
    4.1846   -4.5363   -0.0000 C   0  0  0  0  0  0  0  0  0  0  0  0
    1.6253   -5.5188   -0.0000 C   0  0  0  0  0  0  0  0  0  0  0  0
    2.0862   -6.9743   -0.0000 C   0  0  0  0  0  0  0  0  0  0  0  0
    1.0431   -8.1144   -0.0000 C   0  0  0  0  0  0  0  0  0  0  0  0
    3.5781   -7.2775   -0.0000 C   0  0  0  0  0  0  0  0  0  0  0  0
   -0.1698   -7.8476   -0.0000 F   0  0  0  0  0  0  0  0  0  0  0  0
    1.5161   -9.5699   -0.0000 N   0  0  0  0  0  0  0  0  0  0  0  0
    4.0511   -8.7330   -0.0000 C   0  0  0  0  0  0  0  0  0  0  0  0
    3.0080   -9.8731   -0.0000 C   0  0  0  0  0  0  0  0  0  0  0  0
    3.4689  -11.3286   -0.0000 N   0  0  0  0  0  0  0  0  0  0  0  0
    2.4258  -12.4688   -0.0000 C   0  0  0  0  0  0  0  0  0  0  0  0
    2.8867  -13.9243   -0.0000 C   0  0  0  0  0  0  0  0  0  0  0  0
    1.8436  -15.0644   -0.0000 C   0  0  0  0  0  0  0  0  0  0  0  0
    4.3786  -14.2275   -0.0000 C   0  0  0  0  0  0  0  0  0  0  0  0
    2.3167  -16.5199   -0.0000 N   0  0  0  0  0  0  0  0  0  0  0  0
    4.8517  -15.6830   -0.0000 C   0  0  0  0  0  0  0  0  0  0  0  0
    3.8086  -16.8232   -0.0000 C   0  0  0  0  0  0  0  0  0  0  0  0
    6.0403  -15.9256   -0.0000 F   0  0  0  0  0  0  0  0  0  0  0  0
  1  2  1  0  0  0  0
  2  3  2  0  0  0  0
  2  4  1  0  0  0  0
  3  5  1  0  0  0  0
  4  6  2  0  0  0  0
  5  7  2  0  0  0  0
  6  8  1  0  0  0  0
  7  9  1  0  0  0  0
  8 10  2  0  0  0  0
  8 11  1  0  0  0  0
 11 12  1  0  0  0  0
 12 13  2  0  0  0  0
 12 14  1  0  0  0  0
 13 15  1  0  0  0  0
 13 16  1  0  0  0  0
 14 17  2  0  0  0  0
 16 18  2  0  0  0  0
 18 19  1  0  0  0  0
 19 20  1  0  0  0  0
 20 21  1  0  0  0  0
 21 22  2  0  0  0  0
 21 23  1  0  0  0  0
 22 24  1  0  0  0  0
 23 25  2  0  0  0  0
 24 26  2  0  0  0  0
 25 27  1  0  0  0  0
  6  7  1  0  0  0  0
  9 10  1  0  0  0  0
 17 18  1  0  0  0  0
 25 26  1  0  0  0  0
M  END
>  <MolRegNo>
2006979

>  <m>
=

>  <Value>
5000

>  <Unit>
nM

>  <Type>
IC50

>  <pValue>
5.3

>  <Ligand Efficiency>
0.27

>  <Binding Efficiency>
13.74

>  <Surface Efficiency>
7.97

>  <Assay Index>
974253

>  <Assay Category>


>  <Assay Organism>
Homo sapiens

>  <Target ID>
17045

>  <Target Name>
Cytochrome P450 3A4

>  <Target Organism>
Homo sapiens

>  <Target Description>
Target is a single protein chain

>  <Sequence Accession>
P08684

>  <Reference>


>  <Pubmed ID>


>  <DOI>


$$$$
1977961
Actelion Java MolfileCreator 1.0

 27 29  0  0  0  0  0  0  0  0999 V2000
    0.0000   -0.0000   -0.0000 O   0  0  0  0  0  0  0  0  0  0  0  0
   -0.0121    1.2484   -0.0000 C   0  0  0  0  0  0  0  0  0  0  0  0
    1.3090    2.0362   -0.0000 O   0  0  0  0  0  0  0  0  0  0  0  0
   -1.3575    2.0241   -0.0000 C   0  0  0  0  0  0  0  0  0  0  0  0
    2.6302    1.2848   -0.0000 C   0  0  0  0  0  0  0  0  0  0  0  0
   -2.7029    1.2605   -0.0000 C   0  0  0  0  0  0  0  0  0  0  0  0
    3.6846    1.9150   -0.0000 C   0  0  0  0  0  0  0  0  0  0  0  0
   -4.0483    2.0362   -0.0000 C   0  0  0  0  0  0  0  0  0  0  0  0
   -4.0604    3.5877   -0.0000 C   0  0  0  0  0  0  0  0  0  0  0  0
   -5.3936    1.2848   -0.0000 C   0  0  0  0  0  0  0  0  0  0  0  0
   -2.7392    4.3755   -0.0000 O   0  0  0  0  0  0  0  0  0  0  0  0
   -5.4058    4.3634   -0.0000 C   0  0  0  0  0  0  0  0  0  0  0  0
   -6.7390    2.0605   -0.0000 C   0  0  0  0  0  0  0  0  0  0  0  0
   -5.4058   -0.2424   -0.0000 C   0  0  0  0  0  0  0  0  0  0  0  0
   -2.7514    5.6239   -0.0000 C   0  0  0  0  0  0  0  0  0  0  0  0
   -6.7511    3.6119   -0.0000 C   0  0  0  0  0  0  0  0  0  0  0  0
   -8.0844    1.3090   -0.0000 C   0  0  0  0  0  0  0  0  0  0  0  0
   -6.7511   -0.9939   -0.0000 C   0  0  0  0  0  0  0  0  0  0  0  0
   -8.0965   -0.2182   -0.0000 C   0  0  0  0  0  0  0  0  0  0  0  0
   -9.4419   -0.9818   -0.0000 C   0  0  0  0  0  0  0  0  0  0  0  0
   -9.4540   -2.5089   -0.0000 C   0  0  0  0  0  0  0  0  0  0  0  0
  -10.7873   -0.2060   -0.0000 C   0  0  0  0  0  0  0  0  0  0  0  0
  -10.7994   -3.2725   -0.0000 C   0  0  0  0  0  0  0  0  0  0  0  0
  -12.1326   -0.9696   -0.0000 C   0  0  0  0  0  0  0  0  0  0  0  0
  -10.8115   -4.7997   -0.0000 O   0  0  0  0  0  0  0  0  0  0  0  0
  -12.1448   -2.4968   -0.0000 C   0  0  0  0  0  0  0  0  0  0  0  0
   -9.7570   -5.4058   -0.0000 C   0  0  0  0  0  0  0  0  0  0  0  0
  1  2  2  0  0  0  0
  2  3  1  0  0  0  0
  2  4  1  0  0  0  0
  3  5  1  0  0  0  0
  4  6  2  0  0  0  0
  5  7  1  0  0  0  0
  6  8  1  0  0  0  0
  8  9  2  0  0  0  0
  8 10  1  0  0  0  0
  9 11  1  0  0  0  0
  9 12  1  0  0  0  0
 10 13  1  0  0  0  0
 10 14  2  0  0  0  0
 11 15  1  0  0  0  0
 12 16  2  0  0  0  0
 13 17  2  0  0  0  0
 14 18  1  0  0  0  0
 17 19  1  0  0  0  0
 19 20  1  0  0  0  0
 20 21  2  0  0  0  0
 20 22  1  0  0  0  0
 21 23  1  0  0  0  0
 22 24  2  0  0  0  0
 23 25  1  0  0  0  0
 23 26  2  0  0  0  0
 25 27  1  0  0  0  0
 13 16  1  0  0  0  0
 18 19  2  0  0  0  0
 24 26  1  0  0  0  0
M  END
>  <MolRegNo>
1977961

>  <m>
=

>  <Value>
1580

>  <Unit>
nM

>  <Type>
IC50

>  <pValue>
5.8

>  <Ligand Efficiency>
0.29

>  <Binding Efficiency>
16.01

>  <Surface Efficiency>
12.96

>  <Assay Index>
974274

>  <Assay Category>


>  <Assay Organism>
Homo sapiens

>  <Target ID>
17045

>  <Target Name>
Cytochrome P450 3A4

>  <Target Organism>
Homo sapiens

>  <Target Description>
Target is a single protein chain

>  <Sequence Accession>
P08684

>  <Reference>


>  <Pubmed ID>


>  <DOI>


$$$$
2006981
Actelion Java MolfileCreator 1.0

 28 31  0  0  0  0  0  0  0  0999 V2000
    0.0000   -0.0000   -0.0000 F   0  0  0  0  0  0  0  0  0  0  0  0
    1.1828   -0.2414   -0.0000 C   0  0  0  0  0  0  0  0  0  0  0  0
    1.6536   -1.6898   -0.0000 N   0  0  0  0  0  0  0  0  0  0  0  0
    2.1967    0.9173   -0.0000 C   0  0  0  0  0  0  0  0  0  0  0  0
    3.1382   -1.9915   -0.0000 C   0  0  0  0  0  0  0  0  0  0  0  0
    3.6813    0.6156   -0.0000 C   0  0  0  0  0  0  0  0  0  0  0  0
    1.7139    2.3898   -0.0000 C   0  0  0  0  0  0  0  0  0  0  0  0
    3.5968   -3.4399   -0.0000 N   0  0  0  0  0  0  0  0  0  0  0  0
    4.1520   -0.8328   -0.0000 C   0  0  0  0  0  0  0  0  0  0  0  0
    2.7278    3.5365   -0.0000 C   0  0  0  0  0  0  0  0  0  0  0  0
    2.5588   -4.5745   -0.0000 C   0  0  0  0  0  0  0  0  0  0  0  0
    2.4019    5.0452   -0.0000 C   0  0  0  0  0  0  0  0  0  0  0  0
    4.2365    3.3916   -0.0000 C   0  0  0  0  0  0  0  0  0  0  0  0
    3.0175   -6.0229   -0.0000 C   0  0  0  0  0  0  0  0  0  0  0  0
    3.7175    5.8177   -0.0000 C   0  0  0  0  0  0  0  0  0  0  0  0
    1.0621    5.8177   -0.0000 C   0  0  0  0  0  0  0  0  0  0  0  0
    4.8521    4.8038   -0.0000 N   0  0  0  0  0  0  0  0  0  0  0  0
    4.5021   -6.3246   -0.0000 C   0  0  0  0  0  0  0  0  0  0  0  0
    1.9795   -7.1574   -0.0000 C   0  0  0  0  0  0  0  0  0  0  0  0
    3.7054    7.3626   -0.0000 N   0  0  0  0  0  0  0  0  0  0  0  0
    1.0501    7.3626   -0.0000 C   0  0  0  0  0  0  0  0  0  0  0  0
    4.9728   -7.7730   -0.0000 N   0  0  0  0  0  0  0  0  0  0  0  0
    2.4502   -8.6058   -0.0000 C   0  0  0  0  0  0  0  0  0  0  0  0
    2.3657    8.1351   -0.0000 C   0  0  0  0  0  0  0  0  0  0  0  0
   -0.0241    7.9902   -0.0000 C   0  0  0  0  0  0  0  0  0  0  0  0
    3.9348   -8.9076   -0.0000 C   0  0  0  0  0  0  0  0  0  0  0  0
    4.4055  -10.3559   -0.0000 O   0  0  0  0  0  0  0  0  0  0  0  0
    5.5883  -10.5973   -0.0000 C   0  0  0  0  0  0  0  0  0  0  0  0
  1  2  1  0  0  0  0
  2  3  2  0  0  0  0
  2  4  1  0  0  0  0
  3  5  1  0  0  0  0
  4  6  2  0  0  0  0
  4  7  1  0  0  0  0
  5  8  1  0  0  0  0
  5  9  2  0  0  0  0
  7 10  1  0  0  0  0
  8 11  1  0  0  0  0
 10 12  1  0  0  0  0
 10 13  2  0  0  0  0
 11 14  1  0  0  0  0
 12 15  2  0  0  0  0
 12 16  1  0  0  0  0
 13 17  1  0  0  0  0
 14 18  2  0  0  0  0
 14 19  1  0  0  0  0
 15 20  1  0  0  0  0
 16 21  2  0  0  0  0
 18 22  1  0  0  0  0
 19 23  2  0  0  0  0
 20 24  2  0  0  0  0
 21 25  1  0  0  0  0
 22 26  2  0  0  0  0
 26 27  1  0  0  0  0
 27 28  1  0  0  0  0
  6  9  1  0  0  0  0
 15 17  1  0  0  0  0
 21 24  1  0  0  0  0
 23 26  1  0  0  0  0
M  END
>  <MolRegNo>
2006981

>  <m>
=

>  <Value>
5000

>  <Unit>
nM

>  <Type>
IC50

>  <pValue>
5.3

>  <Ligand Efficiency>
0.26

>  <Binding Efficiency>
14.05

>  <Surface Efficiency>
7

>  <Assay Index>
974253

>  <Assay Category>


>  <Assay Organism>
Homo sapiens

>  <Target ID>
17045

>  <Target Name>
Cytochrome P450 3A4

>  <Target Organism>
Homo sapiens

>  <Target Description>
Target is a single protein chain

>  <Sequence Accession>
P08684

>  <Reference>


>  <Pubmed ID>


>  <DOI>


$$$$
2006983
Actelion Java MolfileCreator 1.0

 30 33  0  0  0  0  0  0  0  0999 V2000
    0.0000   -0.0000   -0.0000 F   0  0  0  0  0  0  0  0  0  0  0  0
   -0.8372    0.9343   -0.0000 C   0  0  0  0  0  0  0  0  0  0  0  0
   -2.3540    0.6310   -0.0000 N   0  0  0  0  0  0  0  0  0  0  0  0
   -0.3640    2.4147   -0.0000 C   0  0  0  0  0  0  0  0  0  0  0  0
   -3.3975    1.7958   -0.0000 C   0  0  0  0  0  0  0  0  0  0  0  0
   -1.4075    3.5795   -0.0000 C   0  0  0  0  0  0  0  0  0  0  0  0
    1.1285    2.7423   -0.0000 C   0  0  0  0  0  0  0  0  0  0  0  0
   -4.9142    1.4925   -0.0000 N   0  0  0  0  0  0  0  0  0  0  0  0
   -2.9243    3.2762   -0.0000 C   0  0  0  0  0  0  0  0  0  0  0  0
    1.5895    4.2226   -0.0000 C   0  0  0  0  0  0  0  0  0  0  0  0
   -5.3996    0.0364   -0.0000 C   0  0  0  0  0  0  0  0  0  0  0  0
    3.0456    4.7080   -0.0000 C   0  0  0  0  0  0  0  0  0  0  0  0
    0.6674    5.4845   -0.0000 C   0  0  0  0  0  0  0  0  0  0  0  0
   -6.9163   -0.2669   -0.0000 C   0  0  0  0  0  0  0  0  0  0  0  0
    3.0335    6.2611   -0.0000 C   0  0  0  0  0  0  0  0  0  0  0  0
    4.3682    3.9435   -0.0000 C   0  0  0  0  0  0  0  0  0  0  0  0
    1.5653    6.7465   -0.0000 N   0  0  0  0  0  0  0  0  0  0  0  0
   -7.9599    0.8979   -0.0000 C   0  0  0  0  0  0  0  0  0  0  0  0
   -7.4138   -1.7230   -0.0000 C   0  0  0  0  0  0  0  0  0  0  0  0
    4.3561    7.0377   -0.0000 N   0  0  0  0  0  0  0  0  0  0  0  0
    5.6908    4.7201   -0.0000 C   0  0  0  0  0  0  0  0  0  0  0  0
   -9.4766    0.5946   -0.0000 N   0  0  0  0  0  0  0  0  0  0  0  0
   -8.9306   -2.0264   -0.0000 C   0  0  0  0  0  0  0  0  0  0  0  0
    5.6787    6.2732   -0.0000 C   0  0  0  0  0  0  0  0  0  0  0  0
    6.7465    4.1134   -0.0000 C   0  0  0  0  0  0  0  0  0  0  0  0
   -9.9741   -0.8615   -0.0000 C   0  0  0  0  0  0  0  0  0  0  0  0
  -11.4908   -1.1649   -0.0000 C   0  0  0  0  0  0  0  0  0  0  0  0
  -11.8912   -2.3297   -0.0000 F   0  0  0  0  0  0  0  0  0  0  0  0
  -12.3281   -0.2305   -0.0000 F   0  0  0  0  0  0  0  0  0  0  0  0
  -12.7042   -1.4075   -0.0000 F   0  0  0  0  0  0  0  0  0  0  0  0
  1  2  1  0  0  0  0
  2  3  2  0  0  0  0
  2  4  1  0  0  0  0
  3  5  1  0  0  0  0
  4  6  2  0  0  0  0
  4  7  1  0  0  0  0
  5  8  1  0  0  0  0
  5  9  2  0  0  0  0
  7 10  1  0  0  0  0
  8 11  1  0  0  0  0
 10 12  1  0  0  0  0
 10 13  2  0  0  0  0
 11 14  1  0  0  0  0
 12 15  2  0  0  0  0
 12 16  1  0  0  0  0
 13 17  1  0  0  0  0
 14 18  2  0  0  0  0
 14 19  1  0  0  0  0
 15 20  1  0  0  0  0
 16 21  2  0  0  0  0
 18 22  1  0  0  0  0
 19 23  2  0  0  0  0
 20 24  2  0  0  0  0
 21 25  1  0  0  0  0
 22 26  2  0  0  0  0
 26 27  1  0  0  0  0
 27 28  1  0  0  0  0
 27 29  1  0  0  0  0
 27 30  1  0  0  0  0
  6  9  1  0  0  0  0
 15 17  1  0  0  0  0
 21 24  1  0  0  0  0
 23 26  1  0  0  0  0
M  END
>  <MolRegNo>
2006983

>  <m>
=

>  <Value>
5000

>  <Unit>
nM

>  <Type>
IC50

>  <pValue>
5.3

>  <Ligand Efficiency>
0.24

>  <Binding Efficiency>
12.76

>  <Surface Efficiency>
7.97

>  <Assay Index>
974253

>  <Assay Category>


>  <Assay Organism>
Homo sapiens

>  <Target ID>
17045

>  <Target Name>
Cytochrome P450 3A4

>  <Target Organism>
Homo sapiens

>  <Target Description>
Target is a single protein chain

>  <Sequence Accession>
P08684

>  <Reference>


>  <Pubmed ID>


>  <DOI>


$$$$
2014091
Actelion Java MolfileCreator 1.0

 37 40  0  0  0  0  0  0  0  0999 V2000
    0.0000   -0.0000   -0.0000 F   0  0  0  0  0  0  0  0  0  0  0  0
   -0.0123    1.2673   -0.0000 C   0  0  0  0  0  0  0  0  0  0  0  0
    1.3288    2.0547   -0.0000 C   0  0  0  0  0  0  0  0  0  0  0  0
   -1.3780    2.0547   -0.0000 C   0  0  0  0  0  0  0  0  0  0  0  0
    1.3165    3.6296   -0.0000 C   0  0  0  0  0  0  0  0  0  0  0  0
    2.6699    1.2919   -0.0000 C   0  0  0  0  0  0  0  0  0  0  0  0
   -1.3903    3.6296   -0.0000 C   0  0  0  0  0  0  0  0  0  0  0  0
   -0.0492    4.4171   -0.0000 C   0  0  0  0  0  0  0  0  0  0  0  0
    2.6576    2.5592   -0.0000 O   0  0  0  0  0  0  0  0  0  0  0  0
    4.0111    0.5291   -0.0000 C   0  0  0  0  0  0  0  0  0  0  0  0
    1.3042    0.5291   -0.0000 C   0  0  0  0  0  0  0  0  0  0  0  0
   -2.4854    4.2694   -0.0000 F   0  0  0  0  0  0  0  0  0  0  0  0
    3.9988   -0.7136   -0.0000 F   0  0  0  0  0  0  0  0  0  0  0  0
    5.0815   -0.0861   -0.0000 F   0  0  0  0  0  0  0  0  0  0  0  0
    5.3522    1.3165   -0.0000 C   0  0  0  0  0  0  0  0  0  0  0  0
   -0.0615    1.3165   -0.0000 N   0  0  0  0  0  0  0  0  0  0  0  0
    5.3399    2.8914   -0.0000 N   0  0  0  0  0  0  0  0  0  0  0  0
    6.6933    0.5537   -0.0000 C   0  0  0  0  0  0  0  0  0  0  0  0
   -0.2092    2.8668   -0.0000 N   0  0  0  0  0  0  0  0  0  0  0  0
   -1.4765    0.6890   -0.0000 C   0  0  0  0  0  0  0  0  0  0  0  0
    6.6810    3.6789   -0.0000 C   0  0  0  0  0  0  0  0  0  0  0  0
    8.0344    1.3411   -0.0000 C   0  0  0  0  0  0  0  0  0  0  0  0
   -1.7471    3.2113   -0.0000 C   0  0  0  0  0  0  0  0  0  0  0  0
   -2.5346    1.8579   -0.0000 N   0  0  0  0  0  0  0  0  0  0  0  0
    8.0221    2.9160   -0.0000 C   0  0  0  0  0  0  0  0  0  0  0  0
    9.3632    3.7035   -0.0000 C   0  0  0  0  0  0  0  0  0  0  0  0
   10.7044    2.9406   -0.0000 C   0  0  0  0  0  0  0  0  0  0  0  0
    9.3509    5.2784   -0.0000 C   0  0  0  0  0  0  0  0  0  0  0  0
   12.0455    3.7404   -0.0000 C   0  0  0  0  0  0  0  0  0  0  0  0
   10.6921    6.0781   -0.0000 C   0  0  0  0  0  0  0  0  0  0  0  0
   12.0332    5.3153   -0.0000 C   0  0  0  0  0  0  0  0  0  0  0  0
   13.3743    6.1150   -0.0000 O   0  0  0  0  0  0  0  0  0  0  0  0
   13.3620    7.6899   -0.0000 C   0  0  0  0  0  0  0  0  0  0  0  0
   14.7031    8.4897   -0.0000 C   0  0  0  0  0  0  0  0  0  0  0  0
   14.6908    9.7570   -0.0000 F   0  0  0  0  0  0  0  0  0  0  0  0
   15.7736    7.8868   -0.0000 F   0  0  0  0  0  0  0  0  0  0  0  0
   15.7736    9.1295   -0.0000 F   0  0  0  0  0  0  0  0  0  0  0  0
  1  2  1  0  0  0  0
  2  3  2  0  0  0  0
  2  4  1  0  0  0  0
  3  5  1  0  0  0  0
  3  6  1  0  0  0  0
  4  7  2  0  0  0  0
  5  8  2  0  0  0  0
  6  9  1  0  0  0  0
  6 10  1  0  0  0  0
  6 11  1  0  0  0  0
  7 12  1  0  0  0  0
 10 13  1  0  0  0  0
 10 14  1  0  0  0  0
 10 15  1  0  0  0  0
 11 16  1  0  0  0  0
 15 17  2  0  0  0  0
 15 18  1  0  0  0  0
 16 19  1  0  0  0  0
 16 20  1  0  0  0  0
 17 21  1  0  0  0  0
 18 22  2  0  0  0  0
 19 23  2  0  0  0  0
 20 24  2  0  0  0  0
 21 25  2  0  0  0  0
 25 26  1  0  0  0  0
 26 27  2  0  0  0  0
 26 28  1  0  0  0  0
 27 29  1  0  0  0  0
 28 30  2  0  0  0  0
 29 31  2  0  0  0  0
 31 32  1  0  0  0  0
 32 33  1  0  0  0  0
 33 34  1  0  0  0  0
 34 35  1  0  0  0  0
 34 36  1  0  0  0  0
 34 37  1  0  0  0  0
  7  8  1  0  0  0  0
 22 25  1  0  0  0  0
 23 24  1  0  0  0  0
 30 31  1  0  0  0  0
M  END
>  <MolRegNo>
2014091

>  <m>
=

>  <Value>
5800

>  <Unit>
nM

>  <Type>
IC50

>  <pValue>
5.24

>  <Ligand Efficiency>
0.19

>  <Binding Efficiency>
9.95

>  <Surface Efficiency>
7.17

>  <Assay Index>
974690

>  <Assay Category>


>  <Assay Organism>
Homo sapiens

>  <Target ID>
17045

>  <Target Name>
Cytochrome P450 3A4

>  <Target Organism>
Homo sapiens

>  <Target Description>
Target is a single protein chain

>  <Sequence Accession>
P08684

>  <Reference>


>  <Pubmed ID>


>  <DOI>


$$$$
2022952
Actelion Java MolfileCreator 1.0

 24 26  0  0  0  0  0  0  0  0999 V2000
    0.0000   -0.0000   -0.0000 O   0  0  0  0  0  0  0  0  0  0  0  0
   -1.3581    0.7849   -0.0000 C   0  0  0  0  0  0  0  0  0  0  0  0
    1.0591    0.6354   -0.0000 C   0  0  0  0  0  0  0  0  0  0  0  0
   -2.7162    0.0249   -0.0000 C   0  0  0  0  0  0  0  0  0  0  0  0
   -1.3705    2.3548   -0.0000 C   0  0  0  0  0  0  0  0  0  0  0  0
   -2.7286   -1.5201   -0.0000 O   0  0  0  0  0  0  0  0  0  0  0  0
   -4.0742    0.8099   -0.0000 C   0  0  0  0  0  0  0  0  0  0  0  0
   -2.7286    3.1398   -0.0000 C   0  0  0  0  0  0  0  0  0  0  0  0
   -3.8126   -2.1306   -0.0000 C   0  0  0  0  0  0  0  0  0  0  0  0
   -4.0867    2.3798   -0.0000 C   0  0  0  0  0  0  0  0  0  0  0  0
   -2.7411    4.7097   -0.0000 C   0  0  0  0  0  0  0  0  0  0  0  0
   -5.4448    3.1647   -0.0000 C   0  0  0  0  0  0  0  0  0  0  0  0
   -4.0992    5.4946   -0.0000 N   0  0  0  0  0  0  0  0  0  0  0  0
   -5.4572    4.7346   -0.0000 C   0  0  0  0  0  0  0  0  0  0  0  0
   -6.8153    5.5195   -0.0000 C   0  0  0  0  0  0  0  0  0  0  0  0
   -7.8993    4.9090   -0.0000 O   0  0  0  0  0  0  0  0  0  0  0  0
   -6.8278    7.0894   -0.0000 C   0  0  0  0  0  0  0  0  0  0  0  0
   -6.8278    3.9496   -0.0000 C   0  0  0  0  0  0  0  0  0  0  0  0
   -5.5818    7.9865   -0.0000 N   0  0  0  0  0  0  0  0  0  0  0  0
   -8.0986    7.9865   -0.0000 C   0  0  0  0  0  0  0  0  0  0  0  0
   -7.9117    3.3391   -0.0000 C   0  0  0  0  0  0  0  0  0  0  0  0
   -5.7687    3.3391   -0.0000 C   0  0  0  0  0  0  0  0  0  0  0  0
   -6.0802    9.4692   -0.0000 N   0  0  0  0  0  0  0  0  0  0  0  0
   -7.6376    9.4692   -0.0000 N   0  0  0  0  0  0  0  0  0  0  0  0
  1  2  1  0  0  0  0
  1  3  1  0  0  0  0
  2  4  1  0  0  0  0
  2  5  2  0  0  0  0
  4  6  1  0  0  0  0
  4  7  2  0  0  0  0
  5  8  1  0  0  0  0
  6  9  1  0  0  0  0
  7 10  1  0  0  0  0
  8 11  2  0  0  0  0
 10 12  2  0  0  0  0
 11 13  1  0  0  0  0
 12 14  1  0  0  0  0
 14 15  1  0  0  0  0
 15 16  1  0  0  0  0
 15 17  1  0  0  0  0
 15 18  1  0  0  0  0
 17 19  1  0  0  0  0
 17 20  2  0  0  0  0
 18 21  1  0  0  0  0
 18 22  1  0  0  0  0
 19 23  1  0  0  0  0
 20 24  1  0  0  0  0
  8 10  1  0  0  0  0
 13 14  2  0  0  0  0
 23 24  2  0  0  0  0
M  END
>  <MolRegNo>
2022952

>  <m>
=

>  <Value>
23000

>  <Unit>
nM

>  <Type>
IC50

>  <pValue>
4.64

>  <Ligand Efficiency>
0.26

>  <Binding Efficiency>
14.13

>  <Surface Efficiency>
4.98

>  <Assay Index>
974283

>  <Assay Category>


>  <Assay Organism>
Homo sapiens

>  <Target ID>
17045

>  <Target Name>
Cytochrome P450 3A4

>  <Target Organism>
Homo sapiens

>  <Target Description>
Target is a single protein chain

>  <Sequence Accession>
P08684

>  <Reference>


>  <Pubmed ID>


>  <DOI>


$$$$
2006970
Actelion Java MolfileCreator 1.0

 28 31  0  0  0  0  0  0  0  0999 V2000
    0.0000   -0.0000   -0.0000 F   0  0  0  0  0  0  0  0  0  0  0  0
    0.8035    0.9235   -0.0000 C   0  0  0  0  0  0  0  0  0  0  0  0
    2.2786    0.6236   -0.0000 C   0  0  0  0  0  0  0  0  0  0  0  0
    0.3118    2.3866   -0.0000 C   0  0  0  0  0  0  0  0  0  0  0  0
    3.2860    1.7749   -0.0000 N   0  0  0  0  0  0  0  0  0  0  0  0
    1.3192    3.5379   -0.0000 C   0  0  0  0  0  0  0  0  0  0  0  0
    2.7943    3.2381   -0.0000 C   0  0  0  0  0  0  0  0  0  0  0  0
    0.8275    5.0010   -0.0000 C   0  0  0  0  0  0  0  0  0  0  0  0
    3.8017    4.3894   -0.0000 O   0  0  0  0  0  0  0  0  0  0  0  0
   -0.6716    5.3248   -0.0000 N   0  0  0  0  0  0  0  0  0  0  0  0
    4.9770    4.1495   -0.0000 C   0  0  0  0  0  0  0  0  0  0  0  0
   -1.1633    6.7880   -0.0000 C   0  0  0  0  0  0  0  0  0  0  0  0
   -2.6624    7.1118   -0.0000 N   0  0  0  0  0  0  0  0  0  0  0  0
   -0.1559    7.9393   -0.0000 N   0  0  0  0  0  0  0  0  0  0  0  0
   -3.1541    8.5749   -0.0000 C   0  0  0  0  0  0  0  0  0  0  0  0
   -0.6476    9.4024   -0.0000 C   0  0  0  0  0  0  0  0  0  0  0  0
   -2.1467    9.7262   -0.0000 C   0  0  0  0  0  0  0  0  0  0  0  0
   -2.6264   11.1893   -0.0000 C   0  0  0  0  0  0  0  0  0  0  0  0
   -1.6190   12.3287   -0.0000 C   0  0  0  0  0  0  0  0  0  0  0  0
   -1.9428   13.8278   -0.0000 C   0  0  0  0  0  0  0  0  0  0  0  0
   -0.1199   12.1848   -0.0000 C   0  0  0  0  0  0  0  0  0  0  0  0
   -0.6356   14.5953   -0.0000 C   0  0  0  0  0  0  0  0  0  0  0  0
   -3.2741   14.5953   -0.0000 C   0  0  0  0  0  0  0  0  0  0  0  0
    0.4917   13.5879   -0.0000 N   0  0  0  0  0  0  0  0  0  0  0  0
   -0.6476   16.1304   -0.0000 N   0  0  0  0  0  0  0  0  0  0  0  0
   -3.2860   16.1304   -0.0000 C   0  0  0  0  0  0  0  0  0  0  0  0
   -1.9788   16.8980   -0.0000 C   0  0  0  0  0  0  0  0  0  0  0  0
   -4.3534   16.7540   -0.0000 C   0  0  0  0  0  0  0  0  0  0  0  0
  1  2  1  0  0  0  0
  2  3  2  0  0  0  0
  2  4  1  0  0  0  0
  3  5  1  0  0  0  0
  4  6  2  0  0  0  0
  5  7  2  0  0  0  0
  6  8  1  0  0  0  0
  7  9  1  0  0  0  0
  8 10  1  0  0  0  0
  9 11  1  0  0  0  0
 10 12  1  0  0  0  0
 12 13  2  0  0  0  0
 12 14  1  0  0  0  0
 13 15  1  0  0  0  0
 14 16  2  0  0  0  0
 15 17  2  0  0  0  0
 17 18  1  0  0  0  0
 18 19  1  0  0  0  0
 19 20  1  0  0  0  0
 19 21  2  0  0  0  0
 20 22  2  0  0  0  0
 20 23  1  0  0  0  0
 21 24  1  0  0  0  0
 22 25  1  0  0  0  0
 23 26  2  0  0  0  0
 25 27  2  0  0  0  0
 26 28  1  0  0  0  0
  6  7  1  0  0  0  0
 16 17  1  0  0  0  0
 22 24  1  0  0  0  0
 26 27  1  0  0  0  0
M  END
>  <MolRegNo>
2006970

>  <m>
=

>  <Value>
5000

>  <Unit>
nM

>  <Type>
IC50

>  <pValue>
5.3

>  <Ligand Efficiency>
0.26

>  <Binding Efficiency>
14.01

>  <Surface Efficiency>
5.98

>  <Assay Index>
974253

>  <Assay Category>


>  <Assay Organism>
Homo sapiens

>  <Target ID>
17045

>  <Target Name>
Cytochrome P450 3A4

>  <Target Organism>
Homo sapiens

>  <Target Description>
Target is a single protein chain

>  <Sequence Accession>
P08684

>  <Reference>


>  <Pubmed ID>


>  <DOI>


$$$$
2007003
Actelion Java MolfileCreator 1.0

 30 33  0  0  0  0  0  0  0  0999 V2000
    0.0000   -0.0000   -0.0000 F   0  0  0  0  0  0  0  0  0  0  0  0
   -0.8384    0.9356   -0.0000 C   0  0  0  0  0  0  0  0  0  0  0  0
   -2.3573    0.6319   -0.0000 N   0  0  0  0  0  0  0  0  0  0  0  0
   -0.3645    2.4181   -0.0000 C   0  0  0  0  0  0  0  0  0  0  0  0
   -3.4023    1.7984   -0.0000 C   0  0  0  0  0  0  0  0  0  0  0  0
   -1.4095    3.5846   -0.0000 C   0  0  0  0  0  0  0  0  0  0  0  0
    1.1301    2.7462   -0.0000 C   0  0  0  0  0  0  0  0  0  0  0  0
   -4.9212    1.4946   -0.0000 N   0  0  0  0  0  0  0  0  0  0  0  0
   -2.9284    3.2808   -0.0000 C   0  0  0  0  0  0  0  0  0  0  0  0
    1.5918    4.2286   -0.0000 C   0  0  0  0  0  0  0  0  0  0  0  0
   -5.4073    0.0365   -0.0000 C   0  0  0  0  0  0  0  0  0  0  0  0
    3.0499    4.7146   -0.0000 C   0  0  0  0  0  0  0  0  0  0  0  0
    0.6683    5.4923   -0.0000 C   0  0  0  0  0  0  0  0  0  0  0  0
   -6.9261   -0.2673   -0.0000 C   0  0  0  0  0  0  0  0  0  0  0  0
    3.0378    6.2700   -0.0000 C   0  0  0  0  0  0  0  0  0  0  0  0
    4.3744    3.9491   -0.0000 C   0  0  0  0  0  0  0  0  0  0  0  0
    1.5675    6.7560   -0.0000 N   0  0  0  0  0  0  0  0  0  0  0  0
   -7.4243   -1.7255   -0.0000 C   0  0  0  0  0  0  0  0  0  0  0  0
   -7.9711    0.8992   -0.0000 C   0  0  0  0  0  0  0  0  0  0  0  0
    4.3623    7.0477   -0.0000 N   0  0  0  0  0  0  0  0  0  0  0  0
    5.6989    4.7268   -0.0000 C   0  0  0  0  0  0  0  0  0  0  0  0
   -8.9432   -2.0292   -0.0000 C   0  0  0  0  0  0  0  0  0  0  0  0
   -6.4036   -2.8677   -0.0000 C   0  0  0  0  0  0  0  0  0  0  0  0
   -9.4900    0.5954   -0.0000 N   0  0  0  0  0  0  0  0  0  0  0  0
    5.6867    6.2821   -0.0000 C   0  0  0  0  0  0  0  0  0  0  0  0
    6.7560    4.1192   -0.0000 C   0  0  0  0  0  0  0  0  0  0  0  0
   -9.9882   -0.8627   -0.0000 C   0  0  0  0  0  0  0  0  0  0  0  0
   -6.8046   -4.0342   -0.0000 F   0  0  0  0  0  0  0  0  0  0  0  0
   -5.2128   -2.6003   -0.0000 F   0  0  0  0  0  0  0  0  0  0  0  0
   -5.5895   -3.7790   -0.0000 F   0  0  0  0  0  0  0  0  0  0  0  0
  1  2  1  0  0  0  0
  2  3  2  0  0  0  0
  2  4  1  0  0  0  0
  3  5  1  0  0  0  0
  4  6  2  0  0  0  0
  4  7  1  0  0  0  0
  5  8  1  0  0  0  0
  5  9  2  0  0  0  0
  7 10  1  0  0  0  0
  8 11  1  0  0  0  0
 10 12  1  0  0  0  0
 10 13  2  0  0  0  0
 11 14  1  0  0  0  0
 12 15  2  0  0  0  0
 12 16  1  0  0  0  0
 13 17  1  0  0  0  0
 14 18  2  0  0  0  0
 14 19  1  0  0  0  0
 15 20  1  0  0  0  0
 16 21  2  0  0  0  0
 18 22  1  0  0  0  0
 18 23  1  0  0  0  0
 19 24  2  0  0  0  0
 20 25  2  0  0  0  0
 21 26  1  0  0  0  0
 22 27  2  0  0  0  0
 23 28  1  0  0  0  0
 23 29  1  0  0  0  0
 23 30  1  0  0  0  0
  6  9  1  0  0  0  0
 15 17  1  0  0  0  0
 21 25  1  0  0  0  0
 24 27  1  0  0  0  0
M  END
>  <MolRegNo>
2007003

>  <m>
=

>  <Value>
5000

>  <Unit>
nM

>  <Type>
IC50

>  <pValue>
5.3

>  <Ligand Efficiency>
0.24

>  <Binding Efficiency>
12.76

>  <Surface Efficiency>
7.97

>  <Assay Index>
974253

>  <Assay Category>


>  <Assay Organism>
Homo sapiens

>  <Target ID>
17045

>  <Target Name>
Cytochrome P450 3A4

>  <Target Organism>
Homo sapiens

>  <Target Description>
Target is a single protein chain

>  <Sequence Accession>
P08684

>  <Reference>


>  <Pubmed ID>


>  <DOI>


$$$$
2007009
Actelion Java MolfileCreator 1.0

 27 30  0  0  0  0  0  0  0  0999 V2000
    0.0000   -0.0000   -0.0000 Cl  0  0  0  0  0  0  0  0  0  0  0  0
    1.0547   -0.6061   -0.0000 C   0  0  0  0  0  0  0  0  0  0  0  0
    2.3761    0.1697   -0.0000 C   0  0  0  0  0  0  0  0  0  0  0  0
    1.0426   -2.1336   -0.0000 C   0  0  0  0  0  0  0  0  0  0  0  0
    3.6975   -0.5940   -0.0000 N   0  0  0  0  0  0  0  0  0  0  0  0
    2.3640   -2.8974   -0.0000 C   0  0  0  0  0  0  0  0  0  0  0  0
    3.6854   -2.1215   -0.0000 C   0  0  0  0  0  0  0  0  0  0  0  0
    2.6671   -4.3885   -0.0000 C   0  0  0  0  0  0  0  0  0  0  0  0
    4.8128   -3.1399   -0.0000 N   0  0  0  0  0  0  0  0  0  0  0  0
    4.1824   -4.5340   -0.0000 C   0  0  0  0  0  0  0  0  0  0  0  0
    1.6245   -5.5160   -0.0000 C   0  0  0  0  0  0  0  0  0  0  0  0
    2.0852   -6.9707   -0.0000 C   0  0  0  0  0  0  0  0  0  0  0  0
    1.0426   -8.1103   -0.0000 C   0  0  0  0  0  0  0  0  0  0  0  0
    3.5763   -7.2738   -0.0000 C   0  0  0  0  0  0  0  0  0  0  0  0
   -0.1697   -7.8436   -0.0000 F   0  0  0  0  0  0  0  0  0  0  0  0
    1.5154   -9.5650   -0.0000 N   0  0  0  0  0  0  0  0  0  0  0  0
    4.0491   -8.7286   -0.0000 C   0  0  0  0  0  0  0  0  0  0  0  0
    3.0065   -9.8681   -0.0000 C   0  0  0  0  0  0  0  0  0  0  0  0
    3.4672  -11.3229   -0.0000 N   0  0  0  0  0  0  0  0  0  0  0  0
    2.4246  -12.4624   -0.0000 C   0  0  0  0  0  0  0  0  0  0  0  0
    2.8853  -13.9172   -0.0000 C   0  0  0  0  0  0  0  0  0  0  0  0
    1.8427  -15.0568   -0.0000 C   0  0  0  0  0  0  0  0  0  0  0  0
    4.3764  -14.2203   -0.0000 C   0  0  0  0  0  0  0  0  0  0  0  0
    2.3155  -16.5115   -0.0000 C   0  0  0  0  0  0  0  0  0  0  0  0
    4.8492  -15.6750   -0.0000 C   0  0  0  0  0  0  0  0  0  0  0  0
    3.8066  -16.8146   -0.0000 N   0  0  0  0  0  0  0  0  0  0  0  0
    1.4790  -17.4207   -0.0000 C   0  0  0  0  0  0  0  0  0  0  0  0
  1  2  1  0  0  0  0
  2  3  2  0  0  0  0
  2  4  1  0  0  0  0
  3  5  1  0  0  0  0
  4  6  2  0  0  0  0
  5  7  2  0  0  0  0
  6  8  1  0  0  0  0
  7  9  1  0  0  0  0
  8 10  2  0  0  0  0
  8 11  1  0  0  0  0
 11 12  1  0  0  0  0
 12 13  2  0  0  0  0
 12 14  1  0  0  0  0
 13 15  1  0  0  0  0
 13 16  1  0  0  0  0
 14 17  2  0  0  0  0
 16 18  2  0  0  0  0
 18 19  1  0  0  0  0
 19 20  1  0  0  0  0
 20 21  1  0  0  0  0
 21 22  2  0  0  0  0
 21 23  1  0  0  0  0
 22 24  1  0  0  0  0
 23 25  2  0  0  0  0
 24 26  2  0  0  0  0
 24 27  1  0  0  0  0
  6  7  1  0  0  0  0
  9 10  1  0  0  0  0
 17 18  1  0  0  0  0
 25 26  1  0  0  0  0
M  END
>  <MolRegNo>
2007009

>  <m>
=

>  <Value>
5000

>  <Unit>
nM

>  <Type>
IC50

>  <pValue>
5.3

>  <Ligand Efficiency>
0.27

>  <Binding Efficiency>
13.88

>  <Surface Efficiency>
7.97

>  <Assay Index>
974253

>  <Assay Category>


>  <Assay Organism>
Homo sapiens

>  <Target ID>
17045

>  <Target Name>
Cytochrome P450 3A4

>  <Target Organism>
Homo sapiens

>  <Target Description>
Target is a single protein chain

>  <Sequence Accession>
P08684

>  <Reference>


>  <Pubmed ID>


>  <DOI>


$$$$
2006973
Actelion Java MolfileCreator 1.0

 30 33  0  0  0  0  0  0  0  0999 V2000
    0.0000   -0.0000   -0.0000 F   0  0  0  0  0  0  0  0  0  0  0  0
    1.1878   -0.2424   -0.0000 C   0  0  0  0  0  0  0  0  0  0  0  0
    1.6605   -1.6969   -0.0000 N   0  0  0  0  0  0  0  0  0  0  0  0
    2.2060    0.9212   -0.0000 C   0  0  0  0  0  0  0  0  0  0  0  0
    3.1514   -1.9999   -0.0000 C   0  0  0  0  0  0  0  0  0  0  0  0
    3.6968    0.6182   -0.0000 C   0  0  0  0  0  0  0  0  0  0  0  0
    1.7211    2.3999   -0.0000 C   0  0  0  0  0  0  0  0  0  0  0  0
    3.6119   -3.4544   -0.0000 N   0  0  0  0  0  0  0  0  0  0  0  0
    4.1695   -0.8363   -0.0000 C   0  0  0  0  0  0  0  0  0  0  0  0
    2.7393    3.5513   -0.0000 C   0  0  0  0  0  0  0  0  0  0  0  0
    2.5696   -4.5937   -0.0000 C   0  0  0  0  0  0  0  0  0  0  0  0
    2.4120    5.0664   -0.0000 C   0  0  0  0  0  0  0  0  0  0  0  0
    4.2543    3.4059   -0.0000 C   0  0  0  0  0  0  0  0  0  0  0  0
    3.0302   -6.0482   -0.0000 C   0  0  0  0  0  0  0  0  0  0  0  0
    3.7331    5.8421   -0.0000 C   0  0  0  0  0  0  0  0  0  0  0  0
    1.0666    5.8421   -0.0000 C   0  0  0  0  0  0  0  0  0  0  0  0
    4.8725    4.8240   -0.0000 N   0  0  0  0  0  0  0  0  0  0  0  0
    1.9878   -7.1875   -0.0000 C   0  0  0  0  0  0  0  0  0  0  0  0
    4.5210   -6.3512   -0.0000 C   0  0  0  0  0  0  0  0  0  0  0  0
    3.7210    7.3936   -0.0000 N   0  0  0  0  0  0  0  0  0  0  0  0
    1.0545    7.3936   -0.0000 C   0  0  0  0  0  0  0  0  0  0  0  0
    0.4727   -6.8603   -0.0000 O   0  0  0  0  0  0  0  0  0  0  0  0
    2.4605   -8.6420   -0.0000 N   0  0  0  0  0  0  0  0  0  0  0  0
    4.9937   -7.8057   -0.0000 C   0  0  0  0  0  0  0  0  0  0  0  0
    2.3756    8.1693   -0.0000 C   0  0  0  0  0  0  0  0  0  0  0  0
   -0.0242    8.0238   -0.0000 C   0  0  0  0  0  0  0  0  0  0  0  0
   -0.3636   -7.7693   -0.0000 C   0  0  0  0  0  0  0  0  0  0  0  0
    3.9513   -8.9450   -0.0000 C   0  0  0  0  0  0  0  0  0  0  0  0
    4.4119  -10.3995   -0.0000 O   0  0  0  0  0  0  0  0  0  0  0  0
    3.5756  -11.3085   -0.0000 C   0  0  0  0  0  0  0  0  0  0  0  0
  1  2  1  0  0  0  0
  2  3  2  0  0  0  0
  2  4  1  0  0  0  0
  3  5  1  0  0  0  0
  4  6  2  0  0  0  0
  4  7  1  0  0  0  0
  5  8  1  0  0  0  0
  5  9  2  0  0  0  0
  7 10  1  0  0  0  0
  8 11  1  0  0  0  0
 10 12  1  0  0  0  0
 10 13  2  0  0  0  0
 11 14  1  0  0  0  0
 12 15  2  0  0  0  0
 12 16  1  0  0  0  0
 13 17  1  0  0  0  0
 14 18  2  0  0  0  0
 14 19  1  0  0  0  0
 15 20  1  0  0  0  0
 16 21  2  0  0  0  0
 18 22  1  0  0  0  0
 18 23  1  0  0  0  0
 19 24  2  0  0  0  0
 20 25  2  0  0  0  0
 21 26  1  0  0  0  0
 22 27  1  0  0  0  0
 23 28  2  0  0  0  0
 28 29  1  0  0  0  0
 29 30  1  0  0  0  0
  6  9  1  0  0  0  0
 15 17  1  0  0  0  0
 21 25  1  0  0  0  0
 24 28  1  0  0  0  0
M  END
>  <MolRegNo>
2006973

>  <m>
=

>  <Value>
5000

>  <Unit>
nM

>  <Type>
IC50

>  <pValue>
5.3

>  <Ligand Efficiency>
0.24

>  <Binding Efficiency>
13.01

>  <Surface Efficiency>
6.24

>  <Assay Index>
974253

>  <Assay Category>


>  <Assay Organism>
Homo sapiens

>  <Target ID>
17045

>  <Target Name>
Cytochrome P450 3A4

>  <Target Organism>
Homo sapiens

>  <Target Description>
Target is a single protein chain

>  <Sequence Accession>
P08684

>  <Reference>


>  <Pubmed ID>


>  <DOI>


$$$$
2032371
Actelion Java MolfileCreator 1.0

 30 33  0  0  0  0  0  0  0  0999 V2000
    0.0000   -0.0000   -0.0000 Br  0  0  0  0  0  0  0  0  0  0  0  0
    1.0716   -0.6159   -0.0000 C   0  0  0  0  0  0  0  0  0  0  0  0
    2.4142    0.1724   -0.0000 C   0  0  0  0  0  0  0  0  0  0  0  0
    1.0593   -2.1678   -0.0000 C   0  0  0  0  0  0  0  0  0  0  0  0
    3.7567   -0.5912   -0.0000 C   0  0  0  0  0  0  0  0  0  0  0  0
    2.4018   -2.9315   -0.0000 C   0  0  0  0  0  0  0  0  0  0  0  0
    3.7444   -2.1432   -0.0000 C   0  0  0  0  0  0  0  0  0  0  0  0
    5.0993    0.1971   -0.0000 C   0  0  0  0  0  0  0  0  0  0  0  0
    5.0870   -2.9069   -0.0000 N   0  0  0  0  0  0  0  0  0  0  0  0
    6.4419   -0.5666   -0.0000 C   0  0  0  0  0  0  0  0  0  0  0  0
    6.4296   -2.1186   -0.0000 C   0  0  0  0  0  0  0  0  0  0  0  0
    7.7721   -2.8945   -0.0000 C   0  0  0  0  0  0  0  0  0  0  0  0
    7.7598   -4.1386   -0.0000 F   0  0  0  0  0  0  0  0  0  0  0  0
    6.6759   -3.5104   -0.0000 F   0  0  0  0  0  0  0  0  0  0  0  0
    9.1147   -2.1062   -0.0000 C   0  0  0  0  0  0  0  0  0  0  0  0
    9.1024   -0.8376   -0.0000 O   0  0  0  0  0  0  0  0  0  0  0  0
   10.4573   -1.3056   -0.0000 C   0  0  0  0  0  0  0  0  0  0  0  0
   10.4573   -2.8822   -0.0000 C   0  0  0  0  0  0  0  0  0  0  0  0
   10.4450    0.2710   -0.0000 C   0  0  0  0  0  0  0  0  0  0  0  0
   11.7999   -2.0816   -0.0000 C   0  0  0  0  0  0  0  0  0  0  0  0
   11.7999   -2.0939   -0.0000 N   0  0  0  0  0  0  0  0  0  0  0  0
    9.3487    0.9115   -0.0000 F   0  0  0  0  0  0  0  0  0  0  0  0
   11.7875    1.0593   -0.0000 C   0  0  0  0  0  0  0  0  0  0  0  0
   13.1424   -1.2933   -0.0000 C   0  0  0  0  0  0  0  0  0  0  0  0
   13.1917   -2.7221   -0.0000 C   0  0  0  0  0  0  0  0  0  0  0  0
   11.9230   -0.5420   -0.0000 C   0  0  0  0  0  0  0  0  0  0  0  0
   13.1301    0.2833   -0.0000 C   0  0  0  0  0  0  0  0  0  0  0  0
   14.2263   -1.5520   -0.0000 N   0  0  0  0  0  0  0  0  0  0  0  0
   13.4380   -0.1971   -0.0000 N   0  0  0  0  0  0  0  0  0  0  0  0
   14.2017    0.9238   -0.0000 F   0  0  0  0  0  0  0  0  0  0  0  0
  1  2  1  0  0  0  0
  2  3  2  0  0  0  0
  2  4  1  0  0  0  0
  3  5  1  0  0  0  0
  4  6  2  0  0  0  0
  5  7  1  0  0  0  0
  5  8  2  0  0  0  0
  7  9  2  0  0  0  0
  8 10  1  0  0  0  0
  9 11  1  0  0  0  0
 11 12  1  0  0  0  0
 12 13  1  0  0  0  0
 12 14  1  0  0  0  0
 12 15  1  0  0  0  0
 15 16  1  0  0  0  0
 15 17  1  0  0  0  0
 15 18  1  0  0  0  0
 17 19  2  0  0  0  0
 17 20  1  0  0  0  0
 18 21  1  0  0  0  0
 19 22  1  0  0  0  0
 19 23  1  0  0  0  0
 20 24  2  0  0  0  0
 21 25  1  0  0  0  0
 21 26  1  0  0  0  0
 23 27  2  0  0  0  0
 25 28  2  0  0  0  0
 26 29  2  0  0  0  0
 27 30  1  0  0  0  0
  6  7  1  0  0  0  0
 10 11  2  0  0  0  0
 24 27  1  0  0  0  0
 28 29  1  0  0  0  0
M  END
>  <MolRegNo>
2032371

>  <m>
=

>  <Value>
11000

>  <Unit>
nM

>  <Type>
IC50

>  <pValue>
4.96

>  <Ligand Efficiency>
0.23

>  <Binding Efficiency>
10.3

>  <Surface Efficiency>
7.77

>  <Assay Index>
974515

>  <Assay Category>


>  <Assay Organism>
Homo sapiens

>  <Target ID>
17045

>  <Target Name>
Cytochrome P450 3A4

>  <Target Organism>
Homo sapiens

>  <Target Description>
Target is a single protein chain

>  <Sequence Accession>
P08684

>  <Reference>


>  <Pubmed ID>


>  <DOI>


$$$$
2007013
Actelion Java MolfileCreator 1.0

 28 31  0  0  0  0  0  0  0  0999 V2000
    0.0000   -0.0000   -0.0000 Cl  0  0  0  0  0  0  0  0  0  0  0  0
    1.0617   -0.6102   -0.0000 C   0  0  0  0  0  0  0  0  0  0  0  0
    2.3919    0.1708   -0.0000 C   0  0  0  0  0  0  0  0  0  0  0  0
    1.0495   -2.1478   -0.0000 C   0  0  0  0  0  0  0  0  0  0  0  0
    3.7221   -0.5980   -0.0000 N   0  0  0  0  0  0  0  0  0  0  0  0
    2.3797   -2.9166   -0.0000 C   0  0  0  0  0  0  0  0  0  0  0  0
    3.7099   -2.1356   -0.0000 C   0  0  0  0  0  0  0  0  0  0  0  0
    2.6848   -4.4177   -0.0000 C   0  0  0  0  0  0  0  0  0  0  0  0
    4.8448   -3.1607   -0.0000 N   0  0  0  0  0  0  0  0  0  0  0  0
    4.2102   -4.5641   -0.0000 C   0  0  0  0  0  0  0  0  0  0  0  0
    1.6353   -5.5526   -0.0000 C   0  0  0  0  0  0  0  0  0  0  0  0
    2.0990   -7.0170   -0.0000 C   0  0  0  0  0  0  0  0  0  0  0  0
    1.0495   -8.1642   -0.0000 C   0  0  0  0  0  0  0  0  0  0  0  0
    3.6000   -7.3221   -0.0000 C   0  0  0  0  0  0  0  0  0  0  0  0
    1.5254   -9.6286   -0.0000 N   0  0  0  0  0  0  0  0  0  0  0  0
    4.0760   -8.7865   -0.0000 N   0  0  0  0  0  0  0  0  0  0  0  0
    3.0265   -9.9337   -0.0000 C   0  0  0  0  0  0  0  0  0  0  0  0
    3.5024  -11.3981   -0.0000 N   0  0  0  0  0  0  0  0  0  0  0  0
    5.0034  -11.7032   -0.0000 C   0  0  0  0  0  0  0  0  0  0  0  0
    5.4794  -13.1676   -0.0000 C   0  0  0  0  0  0  0  0  0  0  0  0
    6.9804  -13.4727   -0.0000 C   0  0  0  0  0  0  0  0  0  0  0  0
    4.4299  -14.3147   -0.0000 C   0  0  0  0  0  0  0  0  0  0  0  0
    7.7981  -12.5330   -0.0000 O   0  0  0  0  0  0  0  0  0  0  0  0
    7.4564  -14.9371   -0.0000 N   0  0  0  0  0  0  0  0  0  0  0  0
    4.9058  -15.7792   -0.0000 C   0  0  0  0  0  0  0  0  0  0  0  0
    6.4069  -16.0843   -0.0000 C   0  0  0  0  0  0  0  0  0  0  0  0
    8.6523  -15.1812   -0.0000 C   0  0  0  0  0  0  0  0  0  0  0  0
    4.0638  -16.6944   -0.0000 F   0  0  0  0  0  0  0  0  0  0  0  0
  1  2  1  0  0  0  0
  2  3  2  0  0  0  0
  2  4  1  0  0  0  0
  3  5  1  0  0  0  0
  4  6  2  0  0  0  0
  5  7  2  0  0  0  0
  6  8  1  0  0  0  0
  7  9  1  0  0  0  0
  8 10  2  0  0  0  0
  8 11  1  0  0  0  0
 11 12  1  0  0  0  0
 12 13  2  0  0  0  0
 12 14  1  0  0  0  0
 13 15  1  0  0  0  0
 14 16  2  0  0  0  0
 15 17  2  0  0  0  0
 17 18  1  0  0  0  0
 18 19  1  0  0  0  0
 19 20  1  0  0  0  0
 20 21  1  0  0  0  0
 20 22  2  0  0  0  0
 21 23  2  0  0  0  0
 21 24  1  0  0  0  0
 22 25  1  0  0  0  0
 24 26  1  0  0  0  0
 24 27  1  0  0  0  0
 25 28  1  0  0  0  0
  6  7  1  0  0  0  0
  9 10  1  0  0  0  0
 16 17  1  0  0  0  0
 25 26  2  0  0  0  0
M  END
>  <MolRegNo>
2007013

>  <m>
=

>  <Value>
5000

>  <Unit>
nM

>  <Type>
IC50

>  <pValue>
5.3

>  <Ligand Efficiency>
0.26

>  <Binding Efficiency>
13.29

>  <Surface Efficiency>
5.99

>  <Assay Index>
974253

>  <Assay Category>


>  <Assay Organism>
Homo sapiens

>  <Target ID>
17045

>  <Target Name>
Cytochrome P450 3A4

>  <Target Organism>
Homo sapiens

>  <Target Description>
Target is a single protein chain

>  <Sequence Accession>
P08684

>  <Reference>


>  <Pubmed ID>


>  <DOI>


$$$$
2006972
Actelion Java MolfileCreator 1.0

 27 30  0  0  0  0  0  0  0  0999 V2000
    0.0000   -0.0000   -0.0000 Cl  0  0  0  0  0  0  0  0  0  0  0  0
    1.1836    0.2657   -0.0000 C   0  0  0  0  0  0  0  0  0  0  0  0
    1.6546    1.7391   -0.0000 N   0  0  0  0  0  0  0  0  0  0  0  0
    2.1981   -0.8696   -0.0000 C   0  0  0  0  0  0  0  0  0  0  0  0
    3.1401    2.0652   -0.0000 C   0  0  0  0  0  0  0  0  0  0  0  0
    3.6836   -0.5435   -0.0000 C   0  0  0  0  0  0  0  0  0  0  0  0
    4.1546    0.9300   -0.0000 C   0  0  0  0  0  0  0  0  0  0  0  0
    5.6401    1.2560   -0.0000 C   0  0  0  0  0  0  0  0  0  0  0  0
    6.0991    2.7295   -0.0000 N   0  0  0  0  0  0  0  0  0  0  0  0
    7.5846    3.0556   -0.0000 C   0  0  0  0  0  0  0  0  0  0  0  0
    8.5991    1.9203   -0.0000 N   0  0  0  0  0  0  0  0  0  0  0  0
    8.0556    4.5290   -0.0000 C   0  0  0  0  0  0  0  0  0  0  0  0
   10.0846    2.2464   -0.0000 C   0  0  0  0  0  0  0  0  0  0  0  0
    9.5411    4.8551   -0.0000 C   0  0  0  0  0  0  0  0  0  0  0  0
   10.8938    1.3406   -0.0000 F   0  0  0  0  0  0  0  0  0  0  0  0
   10.5556    3.7198   -0.0000 C   0  0  0  0  0  0  0  0  0  0  0  0
   12.0411    4.0459   -0.0000 C   0  0  0  0  0  0  0  0  0  0  0  0
   12.5001    5.5194   -0.0000 C   0  0  0  0  0  0  0  0  0  0  0  0
   13.9494    6.0024   -0.0000 C   0  0  0  0  0  0  0  0  0  0  0  0
   11.5822    6.7754   -0.0000 C   0  0  0  0  0  0  0  0  0  0  0  0
   13.9373    7.5484   -0.0000 C   0  0  0  0  0  0  0  0  0  0  0  0
   15.2658    5.2416   -0.0000 C   0  0  0  0  0  0  0  0  0  0  0  0
   12.4759    8.0314   -0.0000 N   0  0  0  0  0  0  0  0  0  0  0  0
   15.2537    8.3213   -0.0000 N   0  0  0  0  0  0  0  0  0  0  0  0
   16.5822    6.0145   -0.0000 C   0  0  0  0  0  0  0  0  0  0  0  0
   16.5701    7.5604   -0.0000 C   0  0  0  0  0  0  0  0  0  0  0  0
   17.6330    5.4107   -0.0000 C   0  0  0  0  0  0  0  0  0  0  0  0
  1  2  1  0  0  0  0
  2  3  2  0  0  0  0
  2  4  1  0  0  0  0
  3  5  1  0  0  0  0
  4  6  2  0  0  0  0
  5  7  2  0  0  0  0
  7  8  1  0  0  0  0
  8  9  1  0  0  0  0
  9 10  1  0  0  0  0
 10 11  2  0  0  0  0
 10 12  1  0  0  0  0
 11 13  1  0  0  0  0
 12 14  2  0  0  0  0
 13 15  1  0  0  0  0
 13 16  2  0  0  0  0
 16 17  1  0  0  0  0
 17 18  1  0  0  0  0
 18 19  1  0  0  0  0
 18 20  2  0  0  0  0
 19 21  2  0  0  0  0
 19 22  1  0  0  0  0
 20 23  1  0  0  0  0
 21 24  1  0  0  0  0
 22 25  2  0  0  0  0
 24 26  2  0  0  0  0
 25 27  1  0  0  0  0
  6  7  1  0  0  0  0
 14 16  1  0  0  0  0
 21 23  1  0  0  0  0
 25 26  1  0  0  0  0
M  END
>  <MolRegNo>
2006972

>  <m>
=

>  <Value>
5000

>  <Unit>
nM

>  <Type>
IC50

>  <pValue>
5.3

>  <Ligand Efficiency>
0.27

>  <Binding Efficiency>
13.88

>  <Surface Efficiency>
7.97

>  <Assay Index>
974253

>  <Assay Category>


>  <Assay Organism>
Homo sapiens

>  <Target ID>
17045

>  <Target Name>
Cytochrome P450 3A4

>  <Target Organism>
Homo sapiens

>  <Target Description>
Target is a single protein chain

>  <Sequence Accession>
P08684

>  <Reference>


>  <Pubmed ID>


>  <DOI>


$$$$
2001989
Actelion Java MolfileCreator 1.0

 31 35  0  0  0  0  0  0  0  0999 V2000
    0.0000   -0.0000   -0.0000 O   0  0  0  0  0  0  0  0  0  0  0  0
   -1.0210    1.1397   -0.0000 C   0  0  0  0  0  0  0  0  0  0  0  0
    1.4603    0.3205   -0.0000 C   0  0  0  0  0  0  0  0  0  0  0  0
   -0.5699    2.5881   -0.0000 C   0  0  0  0  0  0  0  0  0  0  0  0
    1.9114    1.7689   -0.0000 C   0  0  0  0  0  0  0  0  0  0  0  0
    0.8904    2.9086   -0.0000 N   0  0  0  0  0  0  0  0  0  0  0  0
    1.3534    4.3570   -0.0000 C   0  0  0  0  0  0  0  0  0  0  0  0
    2.8137    4.6776   -0.0000 N   0  0  0  0  0  0  0  0  0  0  0  0
    0.3324    5.4967   -0.0000 C   0  0  0  0  0  0  0  0  0  0  0  0
    3.2767    6.1259   -0.0000 C   0  0  0  0  0  0  0  0  0  0  0  0
    0.7954    6.9451   -0.0000 C   0  0  0  0  0  0  0  0  0  0  0  0
    2.2557    7.2657   -0.0000 C   0  0  0  0  0  0  0  0  0  0  0  0
    4.7369    6.4465   -0.0000 C   0  0  0  0  0  0  0  0  0  0  0  0
    5.7342    5.3305   -0.0000 N   0  0  0  0  0  0  0  0  0  0  0  0
    7.1944    5.6511   -0.0000 C   0  0  0  0  0  0  0  0  0  0  0  0
    8.1917    4.5351   -0.0000 N   0  0  0  0  0  0  0  0  0  0  0  0
    7.6574    7.0994   -0.0000 N   0  0  0  0  0  0  0  0  0  0  0  0
    9.6519    4.8556   -0.0000 C   0  0  0  0  0  0  0  0  0  0  0  0
    9.1177    7.4200   -0.0000 C   0  0  0  0  0  0  0  0  0  0  0  0
   10.1149    6.3040   -0.0000 C   0  0  0  0  0  0  0  0  0  0  0  0
   11.5752    6.6246   -0.0000 C   0  0  0  0  0  0  0  0  0  0  0  0
   12.0263    8.0729   -0.0000 C   0  0  0  0  0  0  0  0  0  0  0  0
   13.4510    8.5478   -0.0000 C   0  0  0  0  0  0  0  0  0  0  0  0
   11.1240    9.3076   -0.0000 C   0  0  0  0  0  0  0  0  0  0  0  0
   13.4391   10.0674   -0.0000 C   0  0  0  0  0  0  0  0  0  0  0  0
   14.7450    7.7999   -0.0000 C   0  0  0  0  0  0  0  0  0  0  0  0
   12.0026   10.5423   -0.0000 N   0  0  0  0  0  0  0  0  0  0  0  0
   14.7331   10.8272   -0.0000 N   0  0  0  0  0  0  0  0  0  0  0  0
   16.0390    8.5597   -0.0000 C   0  0  0  0  0  0  0  0  0  0  0  0
   16.0272   10.0793   -0.0000 C   0  0  0  0  0  0  0  0  0  0  0  0
   17.0719    7.9661   -0.0000 C   0  0  0  0  0  0  0  0  0  0  0  0
  1  2  1  0  0  0  0
  1  3  1  0  0  0  0
  2  4  1  0  0  0  0
  3  5  1  0  0  0  0
  4  6  1  0  0  0  0
  6  7  1  0  0  0  0
  7  8  2  0  0  0  0
  7  9  1  0  0  0  0
  8 10  1  0  0  0  0
  9 11  2  0  0  0  0
 10 12  2  0  0  0  0
 10 13  1  0  0  0  0
 13 14  1  0  0  0  0
 14 15  1  0  0  0  0
 15 16  2  0  0  0  0
 15 17  1  0  0  0  0
 16 18  1  0  0  0  0
 17 19  2  0  0  0  0
 18 20  2  0  0  0  0
 20 21  1  0  0  0  0
 21 22  1  0  0  0  0
 22 23  1  0  0  0  0
 22 24  2  0  0  0  0
 23 25  2  0  0  0  0
 23 26  1  0  0  0  0
 24 27  1  0  0  0  0
 25 28  1  0  0  0  0
 26 29  2  0  0  0  0
 28 30  2  0  0  0  0
 29 31  1  0  0  0  0
  5  6  1  0  0  0  0
 11 12  1  0  0  0  0
 19 20  1  0  0  0  0
 25 27  1  0  0  0  0
 29 30  1  0  0  0  0
M  END
>  <MolRegNo>
2001989

>  <m>
=

>  <Value>
5000

>  <Unit>
nM

>  <Type>
IC50

>  <pValue>
5.3

>  <Ligand Efficiency>
0.23

>  <Binding Efficiency>
12.76

>  <Surface Efficiency>
5.77

>  <Assay Index>
974253

>  <Assay Category>


>  <Assay Organism>
Homo sapiens

>  <Target ID>
17045

>  <Target Name>
Cytochrome P450 3A4

>  <Target Organism>
Homo sapiens

>  <Target Description>
Target is a single protein chain

>  <Sequence Accession>
P08684

>  <Reference>


>  <Pubmed ID>


>  <DOI>


$$$$
2007007
Actelion Java MolfileCreator 1.0

 29 32  0  0  0  0  0  0  0  0999 V2000
    0.0000   -0.0000   -0.0000 F   0  0  0  0  0  0  0  0  0  0  0  0
    1.1893   -0.2427   -0.0000 C   0  0  0  0  0  0  0  0  0  0  0  0
    1.6626   -1.6990   -0.0000 N   0  0  0  0  0  0  0  0  0  0  0  0
    2.2088    0.9223   -0.0000 C   0  0  0  0  0  0  0  0  0  0  0  0
    3.1554   -2.0024   -0.0000 C   0  0  0  0  0  0  0  0  0  0  0  0
    3.7015    0.6189   -0.0000 C   0  0  0  0  0  0  0  0  0  0  0  0
    1.7233    2.4029   -0.0000 C   0  0  0  0  0  0  0  0  0  0  0  0
    3.6165   -3.4588   -0.0000 N   0  0  0  0  0  0  0  0  0  0  0  0
    4.1748   -0.8374   -0.0000 C   0  0  0  0  0  0  0  0  0  0  0  0
    2.7427    3.5559   -0.0000 C   0  0  0  0  0  0  0  0  0  0  0  0
    2.5728   -4.5996   -0.0000 C   0  0  0  0  0  0  0  0  0  0  0  0
    2.4151    5.0729   -0.0000 C   0  0  0  0  0  0  0  0  0  0  0  0
    4.2597    3.4102   -0.0000 C   0  0  0  0  0  0  0  0  0  0  0  0
    3.0340   -6.0559   -0.0000 C   0  0  0  0  0  0  0  0  0  0  0  0
    3.7379    5.8496   -0.0000 C   0  0  0  0  0  0  0  0  0  0  0  0
    1.0680    5.8496   -0.0000 C   0  0  0  0  0  0  0  0  0  0  0  0
    4.8787    4.8301   -0.0000 N   0  0  0  0  0  0  0  0  0  0  0  0
    1.9903   -7.1967   -0.0000 C   0  0  0  0  0  0  0  0  0  0  0  0
    4.5267   -6.3593   -0.0000 C   0  0  0  0  0  0  0  0  0  0  0  0
    3.7258    7.4030   -0.0000 N   0  0  0  0  0  0  0  0  0  0  0  0
    1.0558    7.4030   -0.0000 C   0  0  0  0  0  0  0  0  0  0  0  0
    0.7767   -6.9297   -0.0000 F   0  0  0  0  0  0  0  0  0  0  0  0
    2.4636   -8.6530   -0.0000 C   0  0  0  0  0  0  0  0  0  0  0  0
    5.0000   -7.8156   -0.0000 C   0  0  0  0  0  0  0  0  0  0  0  0
    2.3787    8.1797   -0.0000 C   0  0  0  0  0  0  0  0  0  0  0  0
   -0.0243    8.0341   -0.0000 C   0  0  0  0  0  0  0  0  0  0  0  0
    3.9563   -8.9564   -0.0000 N   0  0  0  0  0  0  0  0  0  0  0  0
    6.4928   -8.1190   -0.0000 O   0  0  0  0  0  0  0  0  0  0  0  0
    6.8690   -9.2841   -0.0000 C   0  0  0  0  0  0  0  0  0  0  0  0
  1  2  1  0  0  0  0
  2  3  2  0  0  0  0
  2  4  1  0  0  0  0
  3  5  1  0  0  0  0
  4  6  2  0  0  0  0
  4  7  1  0  0  0  0
  5  8  1  0  0  0  0
  5  9  2  0  0  0  0
  7 10  1  0  0  0  0
  8 11  1  0  0  0  0
 10 12  1  0  0  0  0
 10 13  2  0  0  0  0
 11 14  1  0  0  0  0
 12 15  2  0  0  0  0
 12 16  1  0  0  0  0
 13 17  1  0  0  0  0
 14 18  2  0  0  0  0
 14 19  1  0  0  0  0
 15 20  1  0  0  0  0
 16 21  2  0  0  0  0
 18 22  1  0  0  0  0
 18 23  1  0  0  0  0
 19 24  2  0  0  0  0
 20 25  2  0  0  0  0
 21 26  1  0  0  0  0
 23 27  2  0  0  0  0
 24 28  1  0  0  0  0
 28 29  1  0  0  0  0
  6  9  1  0  0  0  0
 15 17  1  0  0  0  0
 21 25  1  0  0  0  0
 24 27  1  0  0  0  0
M  END
>  <MolRegNo>
2007007

>  <m>
=

>  <Value>
5000

>  <Unit>
nM

>  <Type>
IC50

>  <pValue>
5.3

>  <Ligand Efficiency>
0.25

>  <Binding Efficiency>
13.41

>  <Surface Efficiency>
7

>  <Assay Index>
974253

>  <Assay Category>


>  <Assay Organism>
Homo sapiens

>  <Target ID>
17045

>  <Target Name>
Cytochrome P450 3A4

>  <Target Organism>
Homo sapiens

>  <Target Description>
Target is a single protein chain

>  <Sequence Accession>
P08684

>  <Reference>


>  <Pubmed ID>


>  <DOI>


$$$$
1977971
Actelion Java MolfileCreator 1.0

 26 28  0  0  0  0  0  0  0  0999 V2000
    0.0000   -0.0000   -0.0000 O   0  0  0  0  0  0  0  0  0  0  0  0
   -1.0763    0.6288   -0.0000 C   0  0  0  0  0  0  0  0  0  0  0  0
   -2.4186   -0.1209   -0.0000 N   0  0  0  0  0  0  0  0  0  0  0  0
   -1.0884    2.1768   -0.0000 C   0  0  0  0  0  0  0  0  0  0  0  0
   -2.4307   -1.3423   -0.0000 C   0  0  0  0  0  0  0  0  0  0  0  0
    0.2298    2.9507   -0.0000 C   0  0  0  0  0  0  0  0  0  0  0  0
    0.2177    4.4986   -0.0000 C   0  0  0  0  0  0  0  0  0  0  0  0
    1.5358    5.2726   -0.0000 C   0  0  0  0  0  0  0  0  0  0  0  0
   -1.1247    5.2847   -0.0000 C   0  0  0  0  0  0  0  0  0  0  0  0
    1.5237    6.8205   -0.0000 C   0  0  0  0  0  0  0  0  0  0  0  0
   -1.1368    6.8326   -0.0000 C   0  0  0  0  0  0  0  0  0  0  0  0
    2.8419    7.6066   -0.0000 O   0  0  0  0  0  0  0  0  0  0  0  0
    0.1814    7.6066   -0.0000 C   0  0  0  0  0  0  0  0  0  0  0  0
   -2.4791    7.6066   -0.0000 C   0  0  0  0  0  0  0  0  0  0  0  0
    2.8298    8.8522   -0.0000 C   0  0  0  0  0  0  0  0  0  0  0  0
   -3.8214    6.8568   -0.0000 C   0  0  0  0  0  0  0  0  0  0  0  0
   -2.4912    9.1545   -0.0000 C   0  0  0  0  0  0  0  0  0  0  0  0
   -5.1638    7.6308   -0.0000 C   0  0  0  0  0  0  0  0  0  0  0  0
   -3.8335    9.9284   -0.0000 C   0  0  0  0  0  0  0  0  0  0  0  0
   -5.1759    9.1787   -0.0000 C   0  0  0  0  0  0  0  0  0  0  0  0
   -6.5061    6.8810   -0.0000 C   0  0  0  0  0  0  0  0  0  0  0  0
   -6.5182    9.9526   -0.0000 C   0  0  0  0  0  0  0  0  0  0  0  0
   -7.8484    7.6549   -0.0000 C   0  0  0  0  0  0  0  0  0  0  0  0
   -7.8605    9.2029   -0.0000 C   0  0  0  0  0  0  0  0  0  0  0  0
   -9.2029    9.9768   -0.0000 O   0  0  0  0  0  0  0  0  0  0  0  0
  -10.2791    9.3722   -0.0000 C   0  0  0  0  0  0  0  0  0  0  0  0
  1  2  2  0  0  0  0
  2  3  1  0  0  0  0
  2  4  1  0  0  0  0
  3  5  1  0  0  0  0
  4  6  2  0  0  0  0
  6  7  1  0  0  0  0
  7  8  2  0  0  0  0
  7  9  1  0  0  0  0
  8 10  1  0  0  0  0
  9 11  2  0  0  0  0
 10 12  1  0  0  0  0
 10 13  2  0  0  0  0
 11 14  1  0  0  0  0
 12 15  1  0  0  0  0
 14 16  2  0  0  0  0
 14 17  1  0  0  0  0
 16 18  1  0  0  0  0
 17 19  2  0  0  0  0
 18 20  1  0  0  0  0
 18 21  2  0  0  0  0
 20 22  2  0  0  0  0
 21 23  1  0  0  0  0
 22 24  1  0  0  0  0
 24 25  1  0  0  0  0
 25 26  1  0  0  0  0
 11 13  1  0  0  0  0
 19 20  1  0  0  0  0
 23 24  2  0  0  0  0
M  END
>  <MolRegNo>
1977971

>  <m>
=

>  <Value>
2250

>  <Unit>
nM

>  <Type>
IC50

>  <pValue>
5.65

>  <Ligand Efficiency>
0.3

>  <Binding Efficiency>
16.26

>  <Surface Efficiency>
11.88

>  <Assay Index>
974274

>  <Assay Category>


>  <Assay Organism>
Homo sapiens

>  <Target ID>
17045

>  <Target Name>
Cytochrome P450 3A4

>  <Target Organism>
Homo sapiens

>  <Target Description>
Target is a single protein chain

>  <Sequence Accession>
P08684

>  <Reference>


>  <Pubmed ID>


>  <DOI>


$$$$
2006998
Actelion Java MolfileCreator 1.0

 27 30  0  0  0  0  0  0  0  0999 V2000
    0.0000   -0.0000   -0.0000 F   0  0  0  0  0  0  0  0  0  0  0  0
    1.1750   -0.2398   -0.0000 C   0  0  0  0  0  0  0  0  0  0  0  0
    1.6426   -1.6786   -0.0000 N   0  0  0  0  0  0  0  0  0  0  0  0
    2.1822    0.9112   -0.0000 C   0  0  0  0  0  0  0  0  0  0  0  0
    3.1174   -1.9784   -0.0000 C   0  0  0  0  0  0  0  0  0  0  0  0
    3.6570    0.6115   -0.0000 C   0  0  0  0  0  0  0  0  0  0  0  0
    1.7026    2.3740   -0.0000 C   0  0  0  0  0  0  0  0  0  0  0  0
    3.5731   -3.4172   -0.0000 N   0  0  0  0  0  0  0  0  0  0  0  0
    4.1246   -0.8273   -0.0000 C   0  0  0  0  0  0  0  0  0  0  0  0
    2.7098    3.5131   -0.0000 C   0  0  0  0  0  0  0  0  0  0  0  0
    2.5419   -4.5443   -0.0000 C   0  0  0  0  0  0  0  0  0  0  0  0
    2.3860    5.0119   -0.0000 C   0  0  0  0  0  0  0  0  0  0  0  0
    4.2085    3.3692   -0.0000 C   0  0  0  0  0  0  0  0  0  0  0  0
    2.9975   -5.9831   -0.0000 C   0  0  0  0  0  0  0  0  0  0  0  0
    3.6930    5.7792   -0.0000 C   0  0  0  0  0  0  0  0  0  0  0  0
    1.0551    5.7792   -0.0000 C   0  0  0  0  0  0  0  0  0  0  0  0
    4.8200    4.7721   -0.0000 N   0  0  0  0  0  0  0  0  0  0  0  0
    1.9664   -7.1101   -0.0000 C   0  0  0  0  0  0  0  0  0  0  0  0
    4.4723   -6.2828   -0.0000 C   0  0  0  0  0  0  0  0  0  0  0  0
    3.6810    7.3140   -0.0000 N   0  0  0  0  0  0  0  0  0  0  0  0
    1.0431    7.3140   -0.0000 C   0  0  0  0  0  0  0  0  0  0  0  0
    0.4676   -6.7864   -0.0000 O   0  0  0  0  0  0  0  0  0  0  0  0
    2.4340   -8.5490   -0.0000 N   0  0  0  0  0  0  0  0  0  0  0  0
    4.9399   -7.7216   -0.0000 C   0  0  0  0  0  0  0  0  0  0  0  0
    2.3501    8.0813   -0.0000 C   0  0  0  0  0  0  0  0  0  0  0  0
   -0.3597   -7.6857   -0.0000 C   0  0  0  0  0  0  0  0  0  0  0  0
    3.9088   -8.8487   -0.0000 C   0  0  0  0  0  0  0  0  0  0  0  0
  1  2  1  0  0  0  0
  2  3  2  0  0  0  0
  2  4  1  0  0  0  0
  3  5  1  0  0  0  0
  4  6  2  0  0  0  0
  4  7  1  0  0  0  0
  5  8  1  0  0  0  0
  5  9  2  0  0  0  0
  7 10  1  0  0  0  0
  8 11  1  0  0  0  0
 10 12  1  0  0  0  0
 10 13  2  0  0  0  0
 11 14  1  0  0  0  0
 12 15  2  0  0  0  0
 12 16  1  0  0  0  0
 13 17  1  0  0  0  0
 14 18  2  0  0  0  0
 14 19  1  0  0  0  0
 15 20  1  0  0  0  0
 16 21  2  0  0  0  0
 18 22  1  0  0  0  0
 18 23  1  0  0  0  0
 19 24  2  0  0  0  0
 20 25  2  0  0  0  0
 22 26  1  0  0  0  0
 23 27  2  0  0  0  0
  6  9  1  0  0  0  0
 15 17  1  0  0  0  0
 21 25  1  0  0  0  0
 24 27  1  0  0  0  0
M  END
>  <MolRegNo>
2006998

>  <m>
=

>  <Value>
5000

>  <Unit>
nM

>  <Type>
IC50

>  <pValue>
5.3

>  <Ligand Efficiency>
0.27

>  <Binding Efficiency>
14.59

>  <Surface Efficiency>
7

>  <Assay Index>
974253

>  <Assay Category>


>  <Assay Organism>
Homo sapiens

>  <Target ID>
17045

>  <Target Name>
Cytochrome P450 3A4

>  <Target Organism>
Homo sapiens

>  <Target Description>
Target is a single protein chain

>  <Sequence Accession>
P08684

>  <Reference>


>  <Pubmed ID>


>  <DOI>


$$$$
2001988
Actelion Java MolfileCreator 1.0

 26 29  0  0  0  0  0  0  0  0999 V2000
    0.0000   -0.0000   -0.0000 N   0  0  0  0  0  0  0  0  0  0  0  0
    0.4669    1.4606   -0.0000 C   0  0  0  0  0  0  0  0  0  0  0  0
   -1.4965   -0.2993   -0.0000 C   0  0  0  0  0  0  0  0  0  0  0  0
   -0.5627    2.6099   -0.0000 C   0  0  0  0  0  0  0  0  0  0  0  0
    1.9394    1.7838   -0.0000 C   0  0  0  0  0  0  0  0  0  0  0  0
   -2.5261    0.8500   -0.0000 C   0  0  0  0  0  0  0  0  0  0  0  0
   -1.8916   -1.4486   -0.0000 C   0  0  0  0  0  0  0  0  0  0  0  0
   -2.0592    2.3106   -0.0000 C   0  0  0  0  0  0  0  0  0  0  0  0
    2.9451    0.6585   -0.0000 N   0  0  0  0  0  0  0  0  0  0  0  0
    4.4176    0.9817   -0.0000 C   0  0  0  0  0  0  0  0  0  0  0  0
    5.4233   -0.1437   -0.0000 N   0  0  0  0  0  0  0  0  0  0  0  0
    4.8845    2.4423   -0.0000 N   0  0  0  0  0  0  0  0  0  0  0  0
    6.8958    0.1796   -0.0000 C   0  0  0  0  0  0  0  0  0  0  0  0
    6.3571    2.7655   -0.0000 C   0  0  0  0  0  0  0  0  0  0  0  0
    7.3627    1.6401   -0.0000 C   0  0  0  0  0  0  0  0  0  0  0  0
    8.8353    1.9634   -0.0000 C   0  0  0  0  0  0  0  0  0  0  0  0
    9.2902    3.4240   -0.0000 C   0  0  0  0  0  0  0  0  0  0  0  0
   10.7268    3.9028   -0.0000 C   0  0  0  0  0  0  0  0  0  0  0  0
    8.3803    4.6690   -0.0000 C   0  0  0  0  0  0  0  0  0  0  0  0
   10.7148    5.4352   -0.0000 C   0  0  0  0  0  0  0  0  0  0  0  0
   12.0318    3.1486   -0.0000 C   0  0  0  0  0  0  0  0  0  0  0  0
    9.2662    5.9141   -0.0000 N   0  0  0  0  0  0  0  0  0  0  0  0
   12.0198    6.2014   -0.0000 N   0  0  0  0  0  0  0  0  0  0  0  0
   13.3367    3.9148   -0.0000 C   0  0  0  0  0  0  0  0  0  0  0  0
   13.3247    5.4472   -0.0000 C   0  0  0  0  0  0  0  0  0  0  0  0
   14.3782    3.3162   -0.0000 C   0  0  0  0  0  0  0  0  0  0  0  0
  1  2  2  0  0  0  0
  1  3  1  0  0  0  0
  2  4  1  0  0  0  0
  2  5  1  0  0  0  0
  3  6  2  0  0  0  0
  3  7  1  0  0  0  0
  4  8  2  0  0  0  0
  5  9  1  0  0  0  0
  9 10  1  0  0  0  0
 10 11  2  0  0  0  0
 10 12  1  0  0  0  0
 11 13  1  0  0  0  0
 12 14  2  0  0  0  0
 13 15  2  0  0  0  0
 15 16  1  0  0  0  0
 16 17  1  0  0  0  0
 17 18  1  0  0  0  0
 17 19  2  0  0  0  0
 18 20  2  0  0  0  0
 18 21  1  0  0  0  0
 19 22  1  0  0  0  0
 20 23  1  0  0  0  0
 21 24  2  0  0  0  0
 23 25  2  0  0  0  0
 24 26  1  0  0  0  0
  6  8  1  0  0  0  0
 14 15  1  0  0  0  0
 20 22  1  0  0  0  0
 24 25  1  0  0  0  0
M  END
>  <MolRegNo>
2001988

>  <m>
=

>  <Value>
5000

>  <Unit>
nM

>  <Type>
IC50

>  <pValue>
5.3

>  <Ligand Efficiency>
0.28

>  <Binding Efficiency>
15.39

>  <Surface Efficiency>
6.68

>  <Assay Index>
974253

>  <Assay Category>


>  <Assay Organism>
Homo sapiens

>  <Target ID>
17045

>  <Target Name>
Cytochrome P450 3A4

>  <Target Organism>
Homo sapiens

>  <Target Description>
Target is a single protein chain

>  <Sequence Accession>
P08684

>  <Reference>


>  <Pubmed ID>


>  <DOI>


$$$$
2006982
Actelion Java MolfileCreator 1.0

 29 32  0  0  0  0  0  0  0  0999 V2000
    0.0000   -0.0000   -0.0000 F   0  0  0  0  0  0  0  0  0  0  0  0
   -0.8275    0.9234   -0.0000 C   0  0  0  0  0  0  0  0  0  0  0  0
   -2.3265    0.6236   -0.0000 N   0  0  0  0  0  0  0  0  0  0  0  0
   -0.3598    2.3865   -0.0000 C   0  0  0  0  0  0  0  0  0  0  0  0
   -3.3579    1.7749   -0.0000 C   0  0  0  0  0  0  0  0  0  0  0  0
   -1.3911    3.5378   -0.0000 C   0  0  0  0  0  0  0  0  0  0  0  0
    1.1153    2.7103   -0.0000 C   0  0  0  0  0  0  0  0  0  0  0  0
   -4.8569    1.4751   -0.0000 N   0  0  0  0  0  0  0  0  0  0  0  0
   -2.8902    3.2379   -0.0000 C   0  0  0  0  0  0  0  0  0  0  0  0
    1.5710    4.1734   -0.0000 C   0  0  0  0  0  0  0  0  0  0  0  0
   -5.3366    0.0360   -0.0000 C   0  0  0  0  0  0  0  0  0  0  0  0
    3.0101    4.6531   -0.0000 C   0  0  0  0  0  0  0  0  0  0  0  0
    0.6596    5.4206   -0.0000 C   0  0  0  0  0  0  0  0  0  0  0  0
   -6.8357   -0.2638   -0.0000 C   0  0  0  0  0  0  0  0  0  0  0  0
    2.9981    6.1881   -0.0000 C   0  0  0  0  0  0  0  0  0  0  0  0
    4.3173    3.8975   -0.0000 C   0  0  0  0  0  0  0  0  0  0  0  0
    1.5470    6.6678   -0.0000 N   0  0  0  0  0  0  0  0  0  0  0  0
   -7.8670    0.8874   -0.0000 C   0  0  0  0  0  0  0  0  0  0  0  0
   -7.3274   -1.7029   -0.0000 C   0  0  0  0  0  0  0  0  0  0  0  0
    4.3053    6.9556   -0.0000 N   0  0  0  0  0  0  0  0  0  0  0  0
    5.6244    4.6650   -0.0000 C   0  0  0  0  0  0  0  0  0  0  0  0
   -9.3661    0.5876   -0.0000 N   0  0  0  0  0  0  0  0  0  0  0  0
   -8.8264   -2.0027   -0.0000 C   0  0  0  0  0  0  0  0  0  0  0  0
    5.6124    6.2001   -0.0000 C   0  0  0  0  0  0  0  0  0  0  0  0
    6.9316    3.9095   -0.0000 O   0  0  0  0  0  0  0  0  0  0  0  0
   -9.8578   -0.8515   -0.0000 C   0  0  0  0  0  0  0  0  0  0  0  0
    6.9196    2.6983   -0.0000 C   0  0  0  0  0  0  0  0  0  0  0  0
  -11.3568   -1.1513   -0.0000 O   0  0  0  0  0  0  0  0  0  0  0  0
  -12.1843   -0.2279   -0.0000 C   0  0  0  0  0  0  0  0  0  0  0  0
  1  2  1  0  0  0  0
  2  3  2  0  0  0  0
  2  4  1  0  0  0  0
  3  5  1  0  0  0  0
  4  6  2  0  0  0  0
  4  7  1  0  0  0  0
  5  8  1  0  0  0  0
  5  9  2  0  0  0  0
  7 10  1  0  0  0  0
  8 11  1  0  0  0  0
 10 12  1  0  0  0  0
 10 13  2  0  0  0  0
 11 14  1  0  0  0  0
 12 15  2  0  0  0  0
 12 16  1  0  0  0  0
 13 17  1  0  0  0  0
 14 18  2  0  0  0  0
 14 19  1  0  0  0  0
 15 20  1  0  0  0  0
 16 21  2  0  0  0  0
 18 22  1  0  0  0  0
 19 23  2  0  0  0  0
 20 24  2  0  0  0  0
 21 25  1  0  0  0  0
 22 26  2  0  0  0  0
 25 27  1  0  0  0  0
 26 28  1  0  0  0  0
 28 29  1  0  0  0  0
  6  9  1  0  0  0  0
 15 17  1  0  0  0  0
 21 24  1  0  0  0  0
 23 26  1  0  0  0  0
M  END
>  <MolRegNo>
2006982

>  <m>
=

>  <Value>
5000

>  <Unit>
nM

>  <Type>
IC50

>  <pValue>
5.3

>  <Ligand Efficiency>
0.25

>  <Binding Efficiency>
13.47

>  <Surface Efficiency>
6.24

>  <Assay Index>
974253

>  <Assay Category>


>  <Assay Organism>
Homo sapiens

>  <Target ID>
17045

>  <Target Name>
Cytochrome P450 3A4

>  <Target Organism>
Homo sapiens

>  <Target Description>
Target is a single protein chain

>  <Sequence Accession>
P08684

>  <Reference>


>  <Pubmed ID>


>  <DOI>


$$$$
2001991
Actelion Java MolfileCreator 1.0

 27 30  0  0  0  0  0  0  0  0999 V2000
    0.0000   -0.0000   -0.0000 O   0  0  0  0  0  0  0  0  0  0  0  0
   -1.0253   -1.1207   -0.0000 C   0  0  0  0  0  0  0  0  0  0  0  0
    1.1684   -0.2384   -0.0000 C   0  0  0  0  0  0  0  0  0  0  0  0
   -0.5603   -2.5514   -0.0000 N   0  0  0  0  0  0  0  0  0  0  0  0
   -2.5156   -0.7988   -0.0000 C   0  0  0  0  0  0  0  0  0  0  0  0
   -1.5857   -3.6721   -0.0000 C   0  0  0  0  0  0  0  0  0  0  0  0
   -3.5409   -1.9195   -0.0000 C   0  0  0  0  0  0  0  0  0  0  0  0
   -3.0044    0.6557   -0.0000 C   0  0  0  0  0  0  0  0  0  0  0  0
   -3.0759   -3.3502   -0.0000 C   0  0  0  0  0  0  0  0  0  0  0  0
   -4.4947    0.9776   -0.0000 N   0  0  0  0  0  0  0  0  0  0  0  0
   -4.9835    2.4321   -0.0000 C   0  0  0  0  0  0  0  0  0  0  0  0
   -6.4738    2.7540   -0.0000 N   0  0  0  0  0  0  0  0  0  0  0  0
   -3.9820    3.5767   -0.0000 N   0  0  0  0  0  0  0  0  0  0  0  0
   -6.9626    4.2086   -0.0000 C   0  0  0  0  0  0  0  0  0  0  0  0
   -4.4709    5.0312   -0.0000 C   0  0  0  0  0  0  0  0  0  0  0  0
   -5.9611    5.3531   -0.0000 C   0  0  0  0  0  0  0  0  0  0  0  0
   -6.4380    6.8076   -0.0000 C   0  0  0  0  0  0  0  0  0  0  0  0
   -5.4366    7.9402   -0.0000 C   0  0  0  0  0  0  0  0  0  0  0  0
   -5.7585    9.4305   -0.0000 C   0  0  0  0  0  0  0  0  0  0  0  0
   -3.9463    7.7972   -0.0000 C   0  0  0  0  0  0  0  0  0  0  0  0
   -4.4589   10.1935   -0.0000 C   0  0  0  0  0  0  0  0  0  0  0  0
   -7.0818   10.1935   -0.0000 C   0  0  0  0  0  0  0  0  0  0  0  0
   -3.3382    9.1921   -0.0000 N   0  0  0  0  0  0  0  0  0  0  0  0
   -4.4709   11.7196   -0.0000 N   0  0  0  0  0  0  0  0  0  0  0  0
   -7.0938   11.7196   -0.0000 C   0  0  0  0  0  0  0  0  0  0  0  0
   -5.7942   12.4826   -0.0000 C   0  0  0  0  0  0  0  0  0  0  0  0
   -8.1548   12.3396   -0.0000 C   0  0  0  0  0  0  0  0  0  0  0  0
  1  2  1  0  0  0  0
  1  3  1  0  0  0  0
  2  4  2  0  0  0  0
  2  5  1  0  0  0  0
  4  6  1  0  0  0  0
  5  7  2  0  0  0  0
  5  8  1  0  0  0  0
  6  9  2  0  0  0  0
  8 10  1  0  0  0  0
 10 11  1  0  0  0  0
 11 12  2  0  0  0  0
 11 13  1  0  0  0  0
 12 14  1  0  0  0  0
 13 15  2  0  0  0  0
 14 16  2  0  0  0  0
 16 17  1  0  0  0  0
 17 18  1  0  0  0  0
 18 19  1  0  0  0  0
 18 20  2  0  0  0  0
 19 21  2  0  0  0  0
 19 22  1  0  0  0  0
 20 23  1  0  0  0  0
 21 24  1  0  0  0  0
 22 25  2  0  0  0  0
 24 26  2  0  0  0  0
 25 27  1  0  0  0  0
  7  9  1  0  0  0  0
 15 16  1  0  0  0  0
 21 23  1  0  0  0  0
 25 26  1  0  0  0  0
M  END
>  <MolRegNo>
2001991

>  <m>
=

>  <Value>
5000

>  <Unit>
nM

>  <Type>
IC50

>  <pValue>
5.3

>  <Ligand Efficiency>
0.27

>  <Binding Efficiency>
14.71

>  <Surface Efficiency>
5.98

>  <Assay Index>
974253

>  <Assay Category>


>  <Assay Organism>
Homo sapiens

>  <Target ID>
17045

>  <Target Name>
Cytochrome P450 3A4

>  <Target Organism>
Homo sapiens

>  <Target Description>
Target is a single protein chain

>  <Sequence Accession>
P08684

>  <Reference>


>  <Pubmed ID>


>  <DOI>


$$$$
2007000
Actelion Java MolfileCreator 1.0

 29 32  0  0  0  0  0  0  0  0999 V2000
    0.0000   -0.0000   -0.0000 F   0  0  0  0  0  0  0  0  0  0  0  0
    1.1890   -0.2427   -0.0000 C   0  0  0  0  0  0  0  0  0  0  0  0
    1.6622   -1.6986   -0.0000 N   0  0  0  0  0  0  0  0  0  0  0  0
    2.2082    0.9221   -0.0000 C   0  0  0  0  0  0  0  0  0  0  0  0
    3.1546   -2.0019   -0.0000 C   0  0  0  0  0  0  0  0  0  0  0  0
    3.7005    0.6188   -0.0000 C   0  0  0  0  0  0  0  0  0  0  0  0
    1.7229    2.4023   -0.0000 C   0  0  0  0  0  0  0  0  0  0  0  0
    3.6156   -3.4579   -0.0000 N   0  0  0  0  0  0  0  0  0  0  0  0
    4.1737   -0.8372   -0.0000 C   0  0  0  0  0  0  0  0  0  0  0  0
    2.7420    3.5549   -0.0000 C   0  0  0  0  0  0  0  0  0  0  0  0
    2.5722   -4.5984   -0.0000 C   0  0  0  0  0  0  0  0  0  0  0  0
    2.4144    5.0715   -0.0000 C   0  0  0  0  0  0  0  0  0  0  0  0
    4.2586    3.4093   -0.0000 C   0  0  0  0  0  0  0  0  0  0  0  0
    3.0332   -6.0543   -0.0000 C   0  0  0  0  0  0  0  0  0  0  0  0
    3.7369    5.8481   -0.0000 C   0  0  0  0  0  0  0  0  0  0  0  0
    1.0677    5.8481   -0.0000 C   0  0  0  0  0  0  0  0  0  0  0  0
    4.8774    4.8289   -0.0000 N   0  0  0  0  0  0  0  0  0  0  0  0
    1.9898   -7.1948   -0.0000 C   0  0  0  0  0  0  0  0  0  0  0  0
    4.5256   -6.3576   -0.0000 C   0  0  0  0  0  0  0  0  0  0  0  0
    3.7248    7.4011   -0.0000 N   0  0  0  0  0  0  0  0  0  0  0  0
    1.0556    7.4011   -0.0000 C   0  0  0  0  0  0  0  0  0  0  0  0
    0.4732   -6.8672   -0.0000 O   0  0  0  0  0  0  0  0  0  0  0  0
    2.4630   -8.6507   -0.0000 N   0  0  0  0  0  0  0  0  0  0  0  0
    4.9987   -7.8136   -0.0000 C   0  0  0  0  0  0  0  0  0  0  0  0
    2.3780    8.1776   -0.0000 C   0  0  0  0  0  0  0  0  0  0  0  0
   -0.0243    8.0320   -0.0000 C   0  0  0  0  0  0  0  0  0  0  0  0
   -0.3640   -7.7772   -0.0000 C   0  0  0  0  0  0  0  0  0  0  0  0
    3.9553   -8.9541   -0.0000 C   0  0  0  0  0  0  0  0  0  0  0  0
    6.1878   -8.0562   -0.0000 F   0  0  0  0  0  0  0  0  0  0  0  0
  1  2  1  0  0  0  0
  2  3  2  0  0  0  0
  2  4  1  0  0  0  0
  3  5  1  0  0  0  0
  4  6  2  0  0  0  0
  4  7  1  0  0  0  0
  5  8  1  0  0  0  0
  5  9  2  0  0  0  0
  7 10  1  0  0  0  0
  8 11  1  0  0  0  0
 10 12  1  0  0  0  0
 10 13  2  0  0  0  0
 11 14  1  0  0  0  0
 12 15  2  0  0  0  0
 12 16  1  0  0  0  0
 13 17  1  0  0  0  0
 14 18  2  0  0  0  0
 14 19  1  0  0  0  0
 15 20  1  0  0  0  0
 16 21  2  0  0  0  0
 18 22  1  0  0  0  0
 18 23  1  0  0  0  0
 19 24  2  0  0  0  0
 20 25  2  0  0  0  0
 21 26  1  0  0  0  0
 22 27  1  0  0  0  0
 23 28  2  0  0  0  0
 24 29  1  0  0  0  0
  6  9  1  0  0  0  0
 15 17  1  0  0  0  0
 21 25  1  0  0  0  0
 24 28  1  0  0  0  0
M  END
>  <MolRegNo>
2007000

>  <m>
=

>  <Value>
5000

>  <Unit>
nM

>  <Type>
IC50

>  <pValue>
5.3

>  <Ligand Efficiency>
0.25

>  <Binding Efficiency>
13.41

>  <Surface Efficiency>
7

>  <Assay Index>
974253

>  <Assay Category>


>  <Assay Organism>
Homo sapiens

>  <Target ID>
17045

>  <Target Name>
Cytochrome P450 3A4

>  <Target Organism>
Homo sapiens

>  <Target Description>
Target is a single protein chain

>  <Sequence Accession>
P08684

>  <Reference>


>  <Pubmed ID>


>  <DOI>


$$$$
2007018
Actelion Java MolfileCreator 1.0

 26 29  0  0  0  0  0  0  0  0999 V2000
    0.0000   -0.0000   -0.0000 Cl  0  0  0  0  0  0  0  0  0  0  0  0
    1.0491   -0.6030   -0.0000 C   0  0  0  0  0  0  0  0  0  0  0  0
    2.3636    0.1688   -0.0000 C   0  0  0  0  0  0  0  0  0  0  0  0
    1.0371   -2.1224   -0.0000 C   0  0  0  0  0  0  0  0  0  0  0  0
    3.6780   -0.5909   -0.0000 N   0  0  0  0  0  0  0  0  0  0  0  0
    2.3515   -2.8821   -0.0000 C   0  0  0  0  0  0  0  0  0  0  0  0
    3.6659   -2.1103   -0.0000 C   0  0  0  0  0  0  0  0  0  0  0  0
    2.6530   -4.3654   -0.0000 C   0  0  0  0  0  0  0  0  0  0  0  0
    4.7874   -3.1233   -0.0000 N   0  0  0  0  0  0  0  0  0  0  0  0
    4.1604   -4.5101   -0.0000 C   0  0  0  0  0  0  0  0  0  0  0  0
    1.6159   -5.4869   -0.0000 C   0  0  0  0  0  0  0  0  0  0  0  0
    2.0742   -6.9339   -0.0000 C   0  0  0  0  0  0  0  0  0  0  0  0
    3.5574   -7.2354   -0.0000 C   0  0  0  0  0  0  0  0  0  0  0  0
    1.0371   -8.0675   -0.0000 C   0  0  0  0  0  0  0  0  0  0  0  0
    4.0277   -8.6825   -0.0000 N   0  0  0  0  0  0  0  0  0  0  0  0
    1.5074   -9.5146   -0.0000 C   0  0  0  0  0  0  0  0  0  0  0  0
    2.9906   -9.8161   -0.0000 C   0  0  0  0  0  0  0  0  0  0  0  0
    3.4609  -11.2631   -0.0000 N   0  0  0  0  0  0  0  0  0  0  0  0
    4.9442  -11.5646   -0.0000 C   0  0  0  0  0  0  0  0  0  0  0  0
    5.4145  -13.0117   -0.0000 C   0  0  0  0  0  0  0  0  0  0  0  0
    4.3774  -14.1452   -0.0000 C   0  0  0  0  0  0  0  0  0  0  0  0
    6.8978  -13.3132   -0.0000 C   0  0  0  0  0  0  0  0  0  0  0  0
    4.8477  -15.5923   -0.0000 N   0  0  0  0  0  0  0  0  0  0  0  0
    7.3681  -14.7603   -0.0000 C   0  0  0  0  0  0  0  0  0  0  0  0
    6.3310  -15.8938   -0.0000 C   0  0  0  0  0  0  0  0  0  0  0  0
    6.7048  -17.0515   -0.0000 F   0  0  0  0  0  0  0  0  0  0  0  0
  1  2  1  0  0  0  0
  2  3  2  0  0  0  0
  2  4  1  0  0  0  0
  3  5  1  0  0  0  0
  4  6  2  0  0  0  0
  5  7  2  0  0  0  0
  6  8  1  0  0  0  0
  7  9  1  0  0  0  0
  8 10  2  0  0  0  0
  8 11  1  0  0  0  0
 11 12  1  0  0  0  0
 12 13  2  0  0  0  0
 12 14  1  0  0  0  0
 13 15  1  0  0  0  0
 14 16  2  0  0  0  0
 15 17  2  0  0  0  0
 17 18  1  0  0  0  0
 18 19  1  0  0  0  0
 19 20  1  0  0  0  0
 20 21  2  0  0  0  0
 20 22  1  0  0  0  0
 21 23  1  0  0  0  0
 22 24  2  0  0  0  0
 23 25  2  0  0  0  0
 25 26  1  0  0  0  0
  6  7  1  0  0  0  0
  9 10  1  0  0  0  0
 16 17  1  0  0  0  0
 24 25  1  0  0  0  0
M  END
>  <MolRegNo>
2007018

>  <m>
=

>  <Value>
5000

>  <Unit>
nM

>  <Type>
IC50

>  <pValue>
5.3

>  <Ligand Efficiency>
0.28

>  <Binding Efficiency>
14.41

>  <Surface Efficiency>
7.97

>  <Assay Index>
974253

>  <Assay Category>


>  <Assay Organism>
Homo sapiens

>  <Target ID>
17045

>  <Target Name>
Cytochrome P450 3A4

>  <Target Organism>
Homo sapiens

>  <Target Description>
Target is a single protein chain

>  <Sequence Accession>
P08684

>  <Reference>


>  <Pubmed ID>


>  <DOI>


$$$$
2032372
Actelion Java MolfileCreator 1.0

 30 33  0  0  0  0  0  0  0  0999 V2000
    0.0000   -0.0000   -0.0000 Cl  0  0  0  0  0  0  0  0  0  0  0  0
    1.0716   -0.6159   -0.0000 C   0  0  0  0  0  0  0  0  0  0  0  0
    2.4142    0.1724   -0.0000 C   0  0  0  0  0  0  0  0  0  0  0  0
    1.0593   -2.1678   -0.0000 C   0  0  0  0  0  0  0  0  0  0  0  0
    3.7567   -0.5912   -0.0000 C   0  0  0  0  0  0  0  0  0  0  0  0
    2.4018   -2.9315   -0.0000 C   0  0  0  0  0  0  0  0  0  0  0  0
    5.0993    0.1971   -0.0000 N   0  0  0  0  0  0  0  0  0  0  0  0
    3.7444   -2.1432   -0.0000 C   0  0  0  0  0  0  0  0  0  0  0  0
    6.4419   -0.5666   -0.0000 C   0  0  0  0  0  0  0  0  0  0  0  0
    5.0870   -2.9069   -0.0000 N   0  0  0  0  0  0  0  0  0  0  0  0
    6.4296   -2.1186   -0.0000 C   0  0  0  0  0  0  0  0  0  0  0  0
    7.7721   -2.8945   -0.0000 C   0  0  0  0  0  0  0  0  0  0  0  0
    7.7598   -4.1386   -0.0000 F   0  0  0  0  0  0  0  0  0  0  0  0
    6.6759   -3.5104   -0.0000 F   0  0  0  0  0  0  0  0  0  0  0  0
    9.1147   -2.1062   -0.0000 C   0  0  0  0  0  0  0  0  0  0  0  0
    9.1024   -0.8376   -0.0000 O   0  0  0  0  0  0  0  0  0  0  0  0
   10.4573   -1.3056   -0.0000 C   0  0  0  0  0  0  0  0  0  0  0  0
   10.4573   -2.8822   -0.0000 C   0  0  0  0  0  0  0  0  0  0  0  0
   10.4450    0.2710   -0.0000 C   0  0  0  0  0  0  0  0  0  0  0  0
   11.7999   -2.0816   -0.0000 C   0  0  0  0  0  0  0  0  0  0  0  0
   11.7999   -2.0939   -0.0000 N   0  0  0  0  0  0  0  0  0  0  0  0
    9.3487    0.9115   -0.0000 F   0  0  0  0  0  0  0  0  0  0  0  0
   11.7875    1.0593   -0.0000 C   0  0  0  0  0  0  0  0  0  0  0  0
   13.1424   -1.2933   -0.0000 C   0  0  0  0  0  0  0  0  0  0  0  0
   13.1917   -2.7221   -0.0000 C   0  0  0  0  0  0  0  0  0  0  0  0
   11.9230   -0.5420   -0.0000 C   0  0  0  0  0  0  0  0  0  0  0  0
   13.1301    0.2833   -0.0000 C   0  0  0  0  0  0  0  0  0  0  0  0
   14.2263   -1.5520   -0.0000 N   0  0  0  0  0  0  0  0  0  0  0  0
   13.4380   -0.1971   -0.0000 N   0  0  0  0  0  0  0  0  0  0  0  0
   14.2017    0.9238   -0.0000 F   0  0  0  0  0  0  0  0  0  0  0  0
  1  2  1  0  0  0  0
  2  3  2  0  0  0  0
  2  4  1  0  0  0  0
  3  5  1  0  0  0  0
  4  6  2  0  0  0  0
  5  7  2  0  0  0  0
  5  8  1  0  0  0  0
  7  9  1  0  0  0  0
  8 10  2  0  0  0  0
  9 11  2  0  0  0  0
 11 12  1  0  0  0  0
 12 13  1  0  0  0  0
 12 14  1  0  0  0  0
 12 15  1  0  0  0  0
 15 16  1  0  0  0  0
 15 17  1  0  0  0  0
 15 18  1  0  0  0  0
 17 19  2  0  0  0  0
 17 20  1  0  0  0  0
 18 21  1  0  0  0  0
 19 22  1  0  0  0  0
 19 23  1  0  0  0  0
 20 24  2  0  0  0  0
 21 25  1  0  0  0  0
 21 26  1  0  0  0  0
 23 27  2  0  0  0  0
 25 28  2  0  0  0  0
 26 29  2  0  0  0  0
 27 30  1  0  0  0  0
  6  8  1  0  0  0  0
 10 11  1  0  0  0  0
 24 27  1  0  0  0  0
 28 29  1  0  0  0  0
M  END
>  <MolRegNo>
2032372

>  <m>
=

>  <Value>
45000

>  <Unit>
nM

>  <Type>
IC50

>  <pValue>
4.35

>  <Ligand Efficiency>
0.2

>  <Binding Efficiency>
9.93

>  <Surface Efficiency>
5.67

>  <Assay Index>
974515

>  <Assay Category>


>  <Assay Organism>
Homo sapiens

>  <Target ID>
17045

>  <Target Name>
Cytochrome P450 3A4

>  <Target Organism>
Homo sapiens

>  <Target Description>
Target is a single protein chain

>  <Sequence Accession>
P08684

>  <Reference>


>  <Pubmed ID>


>  <DOI>


$$$$
2006996
Actelion Java MolfileCreator 1.0

 29 32  0  0  0  0  0  0  0  0999 V2000
    0.0000   -0.0000   -0.0000 F   0  0  0  0  0  0  0  0  0  0  0  0
   -0.8284    0.9244   -0.0000 C   0  0  0  0  0  0  0  0  0  0  0  0
   -2.3290    0.6243   -0.0000 N   0  0  0  0  0  0  0  0  0  0  0  0
   -0.3602    2.3890   -0.0000 C   0  0  0  0  0  0  0  0  0  0  0  0
   -3.3614    1.7768   -0.0000 C   0  0  0  0  0  0  0  0  0  0  0  0
   -1.3926    3.5415   -0.0000 C   0  0  0  0  0  0  0  0  0  0  0  0
    1.1165    2.7132   -0.0000 C   0  0  0  0  0  0  0  0  0  0  0  0
   -4.8621    1.4766   -0.0000 N   0  0  0  0  0  0  0  0  0  0  0  0
   -2.8932    3.2414   -0.0000 C   0  0  0  0  0  0  0  0  0  0  0  0
    1.5727    4.1778   -0.0000 C   0  0  0  0  0  0  0  0  0  0  0  0
   -5.3423    0.0360   -0.0000 C   0  0  0  0  0  0  0  0  0  0  0  0
    3.0133    4.6580   -0.0000 C   0  0  0  0  0  0  0  0  0  0  0  0
    0.6603    5.4263   -0.0000 C   0  0  0  0  0  0  0  0  0  0  0  0
   -6.8429   -0.2641   -0.0000 C   0  0  0  0  0  0  0  0  0  0  0  0
    3.0013    6.1946   -0.0000 C   0  0  0  0  0  0  0  0  0  0  0  0
    4.3218    3.9017   -0.0000 C   0  0  0  0  0  0  0  0  0  0  0  0
    1.5487    6.6748   -0.0000 N   0  0  0  0  0  0  0  0  0  0  0  0
   -7.3351   -1.7047   -0.0000 C   0  0  0  0  0  0  0  0  0  0  0  0
   -7.8753    0.8884   -0.0000 C   0  0  0  0  0  0  0  0  0  0  0  0
    4.3098    6.9630   -0.0000 N   0  0  0  0  0  0  0  0  0  0  0  0
    5.6304    4.6700   -0.0000 C   0  0  0  0  0  0  0  0  0  0  0  0
   -6.3267   -2.8332   -0.0000 O   0  0  0  0  0  0  0  0  0  0  0  0
   -8.8358   -2.0049   -0.0000 N   0  0  0  0  0  0  0  0  0  0  0  0
   -9.3760    0.5883   -0.0000 C   0  0  0  0  0  0  0  0  0  0  0  0
    5.6184    6.2066   -0.0000 C   0  0  0  0  0  0  0  0  0  0  0  0
    6.9390    3.9137   -0.0000 O   0  0  0  0  0  0  0  0  0  0  0  0
   -6.7229   -3.9737   -0.0000 C   0  0  0  0  0  0  0  0  0  0  0  0
   -9.8682   -0.8524   -0.0000 C   0  0  0  0  0  0  0  0  0  0  0  0
    6.9269    2.7011   -0.0000 C   0  0  0  0  0  0  0  0  0  0  0  0
  1  2  1  0  0  0  0
  2  3  2  0  0  0  0
  2  4  1  0  0  0  0
  3  5  1  0  0  0  0
  4  6  2  0  0  0  0
  4  7  1  0  0  0  0
  5  8  1  0  0  0  0
  5  9  2  0  0  0  0
  7 10  1  0  0  0  0
  8 11  1  0  0  0  0
 10 12  1  0  0  0  0
 10 13  2  0  0  0  0
 11 14  1  0  0  0  0
 12 15  2  0  0  0  0
 12 16  1  0  0  0  0
 13 17  1  0  0  0  0
 14 18  2  0  0  0  0
 14 19  1  0  0  0  0
 15 20  1  0  0  0  0
 16 21  2  0  0  0  0
 18 22  1  0  0  0  0
 18 23  1  0  0  0  0
 19 24  2  0  0  0  0
 20 25  2  0  0  0  0
 21 26  1  0  0  0  0
 22 27  1  0  0  0  0
 23 28  2  0  0  0  0
 26 29  1  0  0  0  0
  6  9  1  0  0  0  0
 15 17  1  0  0  0  0
 21 25  1  0  0  0  0
 24 28  1  0  0  0  0
M  END
>  <MolRegNo>
2006996

>  <m>
=

>  <Value>
5000

>  <Unit>
nM

>  <Type>
IC50

>  <pValue>
5.3

>  <Ligand Efficiency>
0.25

>  <Binding Efficiency>
13.47

>  <Surface Efficiency>
6.24

>  <Assay Index>
974253

>  <Assay Category>


>  <Assay Organism>
Homo sapiens

>  <Target ID>
17045

>  <Target Name>
Cytochrome P450 3A4

>  <Target Organism>
Homo sapiens

>  <Target Description>
Target is a single protein chain

>  <Sequence Accession>
P08684

>  <Reference>


>  <Pubmed ID>


>  <DOI>


$$$$
2051152
Actelion Java MolfileCreator 1.0

 41 45  0  0  0  0  0  0  0  0999 V2000
    0.0000   -0.0000   -0.0000 F   0  0  0  0  0  0  0  0  0  0  0  0
   -1.0939    0.6391   -0.0000 C   0  0  0  0  0  0  0  0  0  0  0  0
   -2.1878    0.0246   -0.0000 F   0  0  0  0  0  0  0  0  0  0  0  0
   -1.1062   -0.6023   -0.0000 F   0  0  0  0  0  0  0  0  0  0  0  0
   -1.1062    2.2124   -0.0000 O   0  0  0  0  0  0  0  0  0  0  0  0
   -2.4705    2.9990   -0.0000 C   0  0  0  0  0  0  0  0  0  0  0  0
   -2.4828    4.5722   -0.0000 C   0  0  0  0  0  0  0  0  0  0  0  0
   -3.8348    2.2247   -0.0000 C   0  0  0  0  0  0  0  0  0  0  0  0
   -3.8471    5.3589   -0.0000 C   0  0  0  0  0  0  0  0  0  0  0  0
   -5.1991    3.0113   -0.0000 C   0  0  0  0  0  0  0  0  0  0  0  0
   -3.8594    6.9321   -0.0000 C   0  0  0  0  0  0  0  0  0  0  0  0
   -5.2114    4.5845   -0.0000 C   0  0  0  0  0  0  0  0  0  0  0  0
   -2.5196    7.7187   -0.0000 C   0  0  0  0  0  0  0  0  0  0  0  0
   -5.2359    7.7187   -0.0000 C   0  0  0  0  0  0  0  0  0  0  0  0
   -2.5319    9.2920   -0.0000 C   0  0  0  0  0  0  0  0  0  0  0  0
   -1.1799    6.9567   -0.0000 C   0  0  0  0  0  0  0  0  0  0  0  0
   -5.2482    9.2920   -0.0000 C   0  0  0  0  0  0  0  0  0  0  0  0
   -3.8962   10.0786   -0.0000 C   0  0  0  0  0  0  0  0  0  0  0  0
   -1.1922   10.0786   -0.0000 C   0  0  0  0  0  0  0  0  0  0  0  0
    0.1598    7.7433   -0.0000 C   0  0  0  0  0  0  0  0  0  0  0  0
   -3.9085   11.6518   -0.0000 C   0  0  0  0  0  0  0  0  0  0  0  0
    0.1475    9.3165   -0.0000 N   0  0  0  0  0  0  0  0  0  0  0  0
   -5.2728   12.4507   -0.0000 N   0  0  0  0  0  0  0  0  0  0  0  0
    1.4872   10.1032   -0.0000 C   0  0  0  0  0  0  0  0  0  0  0  0
   -5.2851   14.0240   -0.0000 C   0  0  0  0  0  0  0  0  0  0  0  0
    1.4749   11.3691   -0.0000 O   0  0  0  0  0  0  0  0  0  0  0  0
    2.8269    9.3288   -0.0000 N   0  0  0  0  0  0  0  0  0  0  0  0
   -4.2158   14.6508   -0.0000 O   0  0  0  0  0  0  0  0  0  0  0  0
   -6.6494   14.8229   -0.0000 C   0  0  0  0  0  0  0  0  0  0  0  0
    4.1666   10.1155   -0.0000 C   0  0  0  0  0  0  0  0  0  0  0  0
   -7.3623   16.1380   -0.0000 C   0  0  0  0  0  0  0  0  0  0  0  0
   -8.1366   14.7860   -0.0000 C   0  0  0  0  0  0  0  0  0  0  0  0
    5.2359    9.5009   -0.0000 C   0  0  0  0  0  0  0  0  0  0  0  0
    5.2359   10.7546   -0.0000 C   0  0  0  0  0  0  0  0  0  0  0  0
    4.1543   11.3814   -0.0000 C   0  0  0  0  0  0  0  0  0  0  0  0
   -7.3500   17.7113   -0.0000 C   0  0  0  0  0  0  0  0  0  0  0  0
   -6.5265   19.0018   -0.0000 O   0  0  0  0  0  0  0  0  0  0  0  0
   -8.8741   18.0800   -0.0000 N   0  0  0  0  0  0  0  0  0  0  0  0
   -7.5221   20.2186   -0.0000 N   0  0  0  0  0  0  0  0  0  0  0  0
   -8.9724   19.6532   -0.0000 C   0  0  0  0  0  0  0  0  0  0  0  0
  -10.0294   20.3415   -0.0000 C   0  0  0  0  0  0  0  0  0  0  0  0
  1  2  1  0  0  0  0
  2  3  1  0  0  0  0
  2  4  1  0  0  0  0
  2  5  1  0  0  0  0
  5  6  1  0  0  0  0
  6  7  2  0  0  0  0
  6  8  1  0  0  0  0
  7  9  1  0  0  0  0
  8 10  2  0  0  0  0
  9 11  1  0  0  0  0
  9 12  2  0  0  0  0
 11 13  2  0  0  0  0
 11 14  1  0  0  0  0
 13 15  1  0  0  0  0
 13 16  1  0  0  0  0
 14 17  2  0  0  0  0
 15 18  2  0  0  0  0
 15 19  1  0  0  0  0
 16 20  1  0  0  0  0
 18 21  1  0  0  0  0
 19 22  1  0  0  0  0
 21 23  1  0  0  0  0
 22 24  1  0  0  0  0
 23 25  1  0  0  0  0
 24 26  2  0  0  0  0
 24 27  1  0  0  0  0
 25 28  2  0  0  0  0
 29 25  1  1  0  0  0
 27 30  1  0  0  0  0
 29 31  1  0  0  0  0
 29 32  1  0  0  0  0
 30 33  1  0  0  0  0
 30 34  1  0  0  0  0
 30 35  1  0  0  0  0
 31 36  1  6  0  0  0
 36 37  1  0  0  0  0
 36 38  2  0  0  0  0
 37 39  1  0  0  0  0
 38 40  1  0  0  0  0
 40 41  1  0  0  0  0
 10 12  1  0  0  0  0
 17 18  1  0  0  0  0
 20 22  1  0  0  0  0
 31 32  1  0  0  0  0
 39 40  2  0  0  0  0
M  END
>  <MolRegNo>
2051152

>  <m>
=

>  <Value>
13000

>  <Unit>
nM

>  <Type>
IC50

>  <pValue>
4.89

>  <Ligand Efficiency>
0

>  <Binding Efficiency>
0

>  <Surface Efficiency>
0

>  <Assay Index>
977195

>  <Assay Category>


>  <Assay Organism>
Homo sapiens

>  <Target ID>
17045

>  <Target Name>
Cytochrome P450 3A4

>  <Target Organism>
Homo sapiens

>  <Target Description>
Target is a single protein chain

>  <Sequence Accession>
P08684

>  <Reference>
J Med Chem 58 (23), 9345-9353 (2015)

>  <Pubmed ID>
26561979

>  <DOI>
10.1021/acs.jmedchem.5b01345

$$$$
2052568
Actelion Java MolfileCreator 1.0

 29 32  0  0  0  0  0  0  0  0999 V2000
    0.0000   -0.0000   -0.0000 O   0  0  0  0  0  0  0  0  0  0  0  0
    0.8063   -0.9025   -0.0000 C   0  0  0  0  0  0  0  0  0  0  0  0
    2.2985   -0.5776   -0.0000 N   0  0  0  0  0  0  0  0  0  0  0  0
    0.3129   -2.3466   -0.0000 C   0  0  0  0  0  0  0  0  0  0  0  0
    2.7678    0.8905   -0.0000 C   0  0  0  0  0  0  0  0  0  0  0  0
    1.1914   -3.5500   -0.0000 N   0  0  0  0  0  0  0  0  0  0  0  0
   -1.1553   -2.8039   -0.0000 C   0  0  0  0  0  0  0  0  0  0  0  0
    4.2600    1.2154   -0.0000 C   0  0  0  0  0  0  0  0  0  0  0  0
    0.2888   -4.7895   -0.0000 C   0  0  0  0  0  0  0  0  0  0  0  0
   -1.1673   -4.3202   -0.0000 N   0  0  0  0  0  0  0  0  0  0  0  0
   -2.4910   -2.0097   -0.0000 C   0  0  0  0  0  0  0  0  0  0  0  0
    4.7293    2.6836   -0.0000 C   0  0  0  0  0  0  0  0  0  0  0  0
    5.2709    0.0842   -0.0000 C   0  0  0  0  0  0  0  0  0  0  0  0
    0.7581   -6.2336   -0.0000 C   0  0  0  0  0  0  0  0  0  0  0  0
   -2.5031   -5.0904   -0.0000 C   0  0  0  0  0  0  0  0  0  0  0  0
   -3.8509   -2.7798   -0.0000 C   0  0  0  0  0  0  0  0  0  0  0  0
    6.2216    3.0085   -0.0000 C   0  0  0  0  0  0  0  0  0  0  0  0
    6.7631    0.4092   -0.0000 C   0  0  0  0  0  0  0  0  0  0  0  0
    1.9495   -6.4743   -0.0000 C   0  0  0  0  0  0  0  0  0  0  0  0
   -0.0722   -7.1361   -0.0000 C   0  0  0  0  0  0  0  0  0  0  0  0
   -3.8629   -4.2961   -0.0000 C   0  0  0  0  0  0  0  0  0  0  0  0
    7.2324    1.8773   -0.0000 N   0  0  0  0  0  0  0  0  0  0  0  0
    8.7246    2.2022   -0.0000 C   0  0  0  0  0  0  0  0  0  0  0  0
    9.7355    1.0710   -0.0000 C   0  0  0  0  0  0  0  0  0  0  0  0
   11.2277    1.3839   -0.0000 C   0  0  0  0  0  0  0  0  0  0  0  0
    9.2421   -0.3731   -0.0000 C   0  0  0  0  0  0  0  0  0  0  0  0
   12.2385    0.2527   -0.0000 C   0  0  0  0  0  0  0  0  0  0  0  0
   10.2529   -1.5042   -0.0000 C   0  0  0  0  0  0  0  0  0  0  0  0
   11.7451   -1.1914   -0.0000 O   0  0  0  0  0  0  0  0  0  0  0  0
  1  2  2  0  0  0  0
  2  3  1  0  0  0  0
  2  4  1  0  0  0  0
  3  5  1  0  0  0  0
  4  6  1  0  0  0  0
  4  7  2  0  0  0  0
  5  8  1  0  0  0  0
  6  9  2  0  0  0  0
  7 10  1  0  0  0  0
  7 11  1  0  0  0  0
  8 12  1  0  0  0  0
  8 13  1  0  0  0  0
  9 14  1  0  0  0  0
 10 15  1  0  0  0  0
 11 16  2  0  0  0  0
 12 17  1  0  0  0  0
 13 18  1  0  0  0  0
 14 19  1  0  0  0  0
 14 20  1  0  0  0  0
 15 21  2  0  0  0  0
 17 22  1  0  0  0  0
 22 23  1  0  0  0  0
 23 24  1  0  0  0  0
 24 25  1  0  0  0  0
 24 26  1  0  0  0  0
 25 27  1  0  0  0  0
 26 28  1  0  0  0  0
 27 29  1  0  0  0  0
  9 10  1  0  0  0  0
 16 21  1  0  0  0  0
 18 22  1  0  0  0  0
 28 29  1  0  0  0  0
M  END
>  <MolRegNo>
2052568

>  <m>
=

>  <Value>
25500

>  <Unit>
nM

>  <Type>
IC50

>  <pValue>
4.59

>  <Ligand Efficiency>
0

>  <Binding Efficiency>
0

>  <Surface Efficiency>
0

>  <Assay Index>
978925

>  <Assay Category>


>  <Assay Organism>
Homo sapiens

>  <Target ID>
17045

>  <Target Name>
Cytochrome P450 3A4

>  <Target Organism>
Homo sapiens

>  <Target Description>
Target is a single protein chain

>  <Sequence Accession>
P08684

>  <Reference>


>  <Pubmed ID>
26363507

>  <DOI>
10.1016/j.ejmech.2015.08.051

$$$$
2052569
Actelion Java MolfileCreator 1.0

 27 29  0  0  0  0  0  0  0  0999 V2000
    0.0000   -0.0000   -0.0000 O   0  0  0  0  0  0  0  0  0  0  0  0
    0.8132   -0.9103   -0.0000 C   0  0  0  0  0  0  0  0  0  0  0  0
    2.3182   -0.5826   -0.0000 N   0  0  0  0  0  0  0  0  0  0  0  0
    0.3156   -2.3668   -0.0000 C   0  0  0  0  0  0  0  0  0  0  0  0
    2.7916    0.8982   -0.0000 C   0  0  0  0  0  0  0  0  0  0  0  0
    1.2016   -3.5805   -0.0000 N   0  0  0  0  0  0  0  0  0  0  0  0
   -1.1652   -2.8280   -0.0000 C   0  0  0  0  0  0  0  0  0  0  0  0
    4.2966    1.2259   -0.0000 C   0  0  0  0  0  0  0  0  0  0  0  0
    0.2913   -4.8307   -0.0000 C   0  0  0  0  0  0  0  0  0  0  0  0
   -1.1773   -4.3573   -0.0000 N   0  0  0  0  0  0  0  0  0  0  0  0
   -2.5124   -2.0270   -0.0000 C   0  0  0  0  0  0  0  0  0  0  0  0
    4.7700    2.7066   -0.0000 C   0  0  0  0  0  0  0  0  0  0  0  0
    5.3162    0.0850   -0.0000 C   0  0  0  0  0  0  0  0  0  0  0  0
    0.7647   -6.2872   -0.0000 C   0  0  0  0  0  0  0  0  0  0  0  0
   -2.5246   -5.1341   -0.0000 C   0  0  0  0  0  0  0  0  0  0  0  0
   -3.8840   -2.8037   -0.0000 C   0  0  0  0  0  0  0  0  0  0  0  0
    6.2751    3.0344   -0.0000 C   0  0  0  0  0  0  0  0  0  0  0  0
    6.8212    0.4127   -0.0000 C   0  0  0  0  0  0  0  0  0  0  0  0
    1.9663   -6.5299   -0.0000 C   0  0  0  0  0  0  0  0  0  0  0  0
   -0.0728   -7.1975   -0.0000 C   0  0  0  0  0  0  0  0  0  0  0  0
   -3.8961   -4.3331   -0.0000 C   0  0  0  0  0  0  0  0  0  0  0  0
    7.2946    1.8934   -0.0000 N   0  0  0  0  0  0  0  0  0  0  0  0
    8.7996    2.2211   -0.0000 C   0  0  0  0  0  0  0  0  0  0  0  0
    9.8192    1.0802   -0.0000 C   0  0  0  0  0  0  0  0  0  0  0  0
   11.3242    1.4079   -0.0000 C   0  0  0  0  0  0  0  0  0  0  0  0
   12.3438    0.2670   -0.0000 O   0  0  0  0  0  0  0  0  0  0  0  0
   13.5454    0.5340   -0.0000 C   0  0  0  0  0  0  0  0  0  0  0  0
  1  2  2  0  0  0  0
  2  3  1  0  0  0  0
  2  4  1  0  0  0  0
  3  5  1  0  0  0  0
  4  6  1  0  0  0  0
  4  7  2  0  0  0  0
  5  8  1  0  0  0  0
  6  9  2  0  0  0  0
  7 10  1  0  0  0  0
  7 11  1  0  0  0  0
  8 12  1  0  0  0  0
  8 13  1  0  0  0  0
  9 14  1  0  0  0  0
 10 15  1  0  0  0  0
 11 16  2  0  0  0  0
 12 17  1  0  0  0  0
 13 18  1  0  0  0  0
 14 19  1  0  0  0  0
 14 20  1  0  0  0  0
 15 21  2  0  0  0  0
 17 22  1  0  0  0  0
 22 23  1  0  0  0  0
 23 24  1  0  0  0  0
 24 25  1  0  0  0  0
 25 26  1  0  0  0  0
 26 27  1  0  0  0  0
  9 10  1  0  0  0  0
 16 21  1  0  0  0  0
 18 22  1  0  0  0  0
M  END
>  <MolRegNo>
2052569

>  <m>
=

>  <Value>
27200

>  <Unit>
nM

>  <Type>
IC50

>  <pValue>
4.57

>  <Ligand Efficiency>
0

>  <Binding Efficiency>
0

>  <Surface Efficiency>
0

>  <Assay Index>
978925

>  <Assay Category>


>  <Assay Organism>
Homo sapiens

>  <Target ID>
17045

>  <Target Name>
Cytochrome P450 3A4

>  <Target Organism>
Homo sapiens

>  <Target Description>
Target is a single protein chain

>  <Sequence Accession>
P08684

>  <Reference>


>  <Pubmed ID>
26363507

>  <DOI>
10.1016/j.ejmech.2015.08.051

$$$$
2052583
Actelion Java MolfileCreator 1.0

 24 26  0  0  0  0  0  0  0  0999 V2000
    0.0000   -0.0000   -0.0000 O   0  0  0  0  0  0  0  0  0  0  0  0
    0.8197   -0.9175   -0.0000 C   0  0  0  0  0  0  0  0  0  0  0  0
    2.3366   -0.5872   -0.0000 N   0  0  0  0  0  0  0  0  0  0  0  0
    0.3181   -2.3856   -0.0000 C   0  0  0  0  0  0  0  0  0  0  0  0
    2.8137    0.9053   -0.0000 C   0  0  0  0  0  0  0  0  0  0  0  0
    1.2111   -3.6089   -0.0000 N   0  0  0  0  0  0  0  0  0  0  0  0
   -1.1744   -2.8504   -0.0000 C   0  0  0  0  0  0  0  0  0  0  0  0
    4.3307    1.2356   -0.0000 C   0  0  0  0  0  0  0  0  0  0  0  0
    1.7616    2.0797   -0.0000 C   0  0  0  0  0  0  0  0  0  0  0  0
    0.2936   -4.8690   -0.0000 C   0  0  0  0  0  0  0  0  0  0  0  0
   -1.1867   -4.3919   -0.0000 N   0  0  0  0  0  0  0  0  0  0  0  0
   -2.5324   -2.0430   -0.0000 C   0  0  0  0  0  0  0  0  0  0  0  0
    4.8078    2.7281   -0.0000 C   0  0  0  0  0  0  0  0  0  0  0  0
    2.2388    3.5722   -0.0000 C   0  0  0  0  0  0  0  0  0  0  0  0
    0.7707   -6.3370   -0.0000 C   0  0  0  0  0  0  0  0  0  0  0  0
   -2.5446   -5.1748   -0.0000 C   0  0  0  0  0  0  0  0  0  0  0  0
   -3.9148   -2.8260   -0.0000 C   0  0  0  0  0  0  0  0  0  0  0  0
    3.7557    3.9025   -0.0000 N   0  0  0  0  0  0  0  0  0  0  0  0
    1.9818   -6.5817   -0.0000 C   0  0  0  0  0  0  0  0  0  0  0  0
   -0.0734   -7.2545   -0.0000 C   0  0  0  0  0  0  0  0  0  0  0  0
   -3.9270   -4.3674   -0.0000 C   0  0  0  0  0  0  0  0  0  0  0  0
    4.2206    5.3950   -0.0000 C   0  0  0  0  0  0  0  0  0  0  0  0
    3.3765    6.3370   -0.0000 C   0  0  0  0  0  0  0  0  0  0  0  0
    5.4317    5.6642   -0.0000 C   0  0  0  0  0  0  0  0  0  0  0  0
  1  2  2  0  0  0  0
  2  3  1  0  0  0  0
  2  4  1  0  0  0  0
  3  5  1  0  0  0  0
  4  6  1  0  0  0  0
  4  7  2  0  0  0  0
  5  8  1  0  0  0  0
  5  9  1  0  0  0  0
  6 10  2  0  0  0  0
  7 11  1  0  0  0  0
  7 12  1  0  0  0  0
  8 13  1  0  0  0  0
  9 14  1  0  0  0  0
 10 15  1  0  0  0  0
 11 16  1  0  0  0  0
 12 17  2  0  0  0  0
 13 18  1  0  0  0  0
 15 19  1  0  0  0  0
 15 20  1  0  0  0  0
 16 21  2  0  0  0  0
 18 22  1  0  0  0  0
 22 23  1  0  0  0  0
 22 24  1  0  0  0  0
 10 11  1  0  0  0  0
 14 18  1  0  0  0  0
 17 21  1  0  0  0  0
M  END
>  <MolRegNo>
2052583

>  <m>
=

>  <Value>
200

>  <Unit>
nM

>  <Type>
IC50

>  <pValue>
6.7

>  <Ligand Efficiency>
0

>  <Binding Efficiency>
0

>  <Surface Efficiency>
0

>  <Assay Index>
978925

>  <Assay Category>


>  <Assay Organism>
Homo sapiens

>  <Target ID>
17045

>  <Target Name>
Cytochrome P450 3A4

>  <Target Organism>
Homo sapiens

>  <Target Description>
Target is a single protein chain

>  <Sequence Accession>
P08684

>  <Reference>


>  <Pubmed ID>
26363507

>  <DOI>
10.1016/j.ejmech.2015.08.051

$$$$
2052586
Actelion Java MolfileCreator 1.0

 25 28  0  0  0  0  0  0  0  0999 V2000
    0.0000   -0.0000   -0.0000 O   0  0  0  0  0  0  0  0  0  0  0  0
    0.8078   -0.9043   -0.0000 C   0  0  0  0  0  0  0  0  0  0  0  0
    2.3029   -0.5787   -0.0000 N   0  0  0  0  0  0  0  0  0  0  0  0
    0.3135   -2.3511   -0.0000 C   0  0  0  0  0  0  0  0  0  0  0  0
    2.7731    0.8922   -0.0000 C   0  0  0  0  0  0  0  0  0  0  0  0
    1.1936   -3.5568   -0.0000 N   0  0  0  0  0  0  0  0  0  0  0  0
   -1.1575   -2.8093   -0.0000 C   0  0  0  0  0  0  0  0  0  0  0  0
    4.2682    1.2178   -0.0000 C   0  0  0  0  0  0  0  0  0  0  0  0
    1.7362    2.0497   -0.0000 C   0  0  0  0  0  0  0  0  0  0  0  0
    0.2894   -4.7987   -0.0000 C   0  0  0  0  0  0  0  0  0  0  0  0
   -1.1695   -4.3285   -0.0000 N   0  0  0  0  0  0  0  0  0  0  0  0
   -2.4958   -2.0135   -0.0000 C   0  0  0  0  0  0  0  0  0  0  0  0
    4.7384    2.6887   -0.0000 C   0  0  0  0  0  0  0  0  0  0  0  0
    2.2064    3.5207   -0.0000 C   0  0  0  0  0  0  0  0  0  0  0  0
    0.7596   -6.2455   -0.0000 C   0  0  0  0  0  0  0  0  0  0  0  0
   -2.5079   -5.1001   -0.0000 C   0  0  0  0  0  0  0  0  0  0  0  0
   -3.8583   -2.7852   -0.0000 C   0  0  0  0  0  0  0  0  0  0  0  0
    3.7015    3.8462   -0.0000 N   0  0  0  0  0  0  0  0  0  0  0  0
    1.9532   -6.4867   -0.0000 C   0  0  0  0  0  0  0  0  0  0  0  0
   -0.0723   -7.1498   -0.0000 C   0  0  0  0  0  0  0  0  0  0  0  0
   -3.8703   -4.3044   -0.0000 C   0  0  0  0  0  0  0  0  0  0  0  0
    4.1597    5.3172   -0.0000 C   0  0  0  0  0  0  0  0  0  0  0  0
    3.1228    6.4746   -0.0000 C   0  0  0  0  0  0  0  0  0  0  0  0
    2.8455    7.9215   -0.0000 C   0  0  0  0  0  0  0  0  0  0  0  0
    1.7121    6.8846   -0.0000 C   0  0  0  0  0  0  0  0  0  0  0  0
  1  2  2  0  0  0  0
  2  3  1  0  0  0  0
  2  4  1  0  0  0  0
  3  5  1  0  0  0  0
  4  6  1  0  0  0  0
  4  7  2  0  0  0  0
  5  8  1  0  0  0  0
  5  9  1  0  0  0  0
  6 10  2  0  0  0  0
  7 11  1  0  0  0  0
  7 12  1  0  0  0  0
  8 13  1  0  0  0  0
  9 14  1  0  0  0  0
 10 15  1  0  0  0  0
 11 16  1  0  0  0  0
 12 17  2  0  0  0  0
 13 18  1  0  0  0  0
 15 19  1  0  0  0  0
 15 20  1  0  0  0  0
 16 21  2  0  0  0  0
 18 22  1  0  0  0  0
 22 23  1  0  0  0  0
 23 24  1  0  0  0  0
 23 25  1  0  0  0  0
 10 11  1  0  0  0  0
 14 18  1  0  0  0  0
 17 21  1  0  0  0  0
 24 25  1  0  0  0  0
M  END
>  <MolRegNo>
2052586

>  <m>
=

>  <Value>
20000

>  <Unit>
nM

>  <Type>
IC50

>  <pValue>
4.7

>  <Ligand Efficiency>
0

>  <Binding Efficiency>
0

>  <Surface Efficiency>
0

>  <Assay Index>
978925

>  <Assay Category>


>  <Assay Organism>
Homo sapiens

>  <Target ID>
17045

>  <Target Name>
Cytochrome P450 3A4

>  <Target Organism>
Homo sapiens

>  <Target Description>
Target is a single protein chain

>  <Sequence Accession>
P08684

>  <Reference>


>  <Pubmed ID>
26363507

>  <DOI>
10.1016/j.ejmech.2015.08.051

$$$$
2052588
Actelion Java MolfileCreator 1.0

 26 28  0  0  0  0  0  0  0  0999 V2000
    0.0000   -0.0000   -0.0000 O   0  0  0  0  0  0  0  0  0  0  0  0
    0.8107   -0.9075   -0.0000 C   0  0  0  0  0  0  0  0  0  0  0  0
    2.3110   -0.5808   -0.0000 N   0  0  0  0  0  0  0  0  0  0  0  0
    0.3146   -2.3594   -0.0000 C   0  0  0  0  0  0  0  0  0  0  0  0
    2.7829    0.8954   -0.0000 C   0  0  0  0  0  0  0  0  0  0  0  0
    1.1979   -3.5694   -0.0000 N   0  0  0  0  0  0  0  0  0  0  0  0
   -1.1616   -2.8192   -0.0000 C   0  0  0  0  0  0  0  0  0  0  0  0
    4.2833    1.2221   -0.0000 C   0  0  0  0  0  0  0  0  0  0  0  0
    1.7424    2.0569   -0.0000 C   0  0  0  0  0  0  0  0  0  0  0  0
    0.2904   -4.8157   -0.0000 C   0  0  0  0  0  0  0  0  0  0  0  0
   -1.1737   -4.3438   -0.0000 N   0  0  0  0  0  0  0  0  0  0  0  0
   -2.5046   -2.0206   -0.0000 C   0  0  0  0  0  0  0  0  0  0  0  0
    4.7552    2.6982   -0.0000 C   0  0  0  0  0  0  0  0  0  0  0  0
    2.2142    3.5331   -0.0000 C   0  0  0  0  0  0  0  0  0  0  0  0
    0.7623   -6.2676   -0.0000 C   0  0  0  0  0  0  0  0  0  0  0  0
   -2.5167   -5.1182   -0.0000 C   0  0  0  0  0  0  0  0  0  0  0  0
   -3.8719   -2.7950   -0.0000 C   0  0  0  0  0  0  0  0  0  0  0  0
    3.7146    3.8598   -0.0000 N   0  0  0  0  0  0  0  0  0  0  0  0
    1.9601   -6.5096   -0.0000 C   0  0  0  0  0  0  0  0  0  0  0  0
   -0.0726   -7.1751   -0.0000 C   0  0  0  0  0  0  0  0  0  0  0  0
   -3.8840   -4.3196   -0.0000 C   0  0  0  0  0  0  0  0  0  0  0  0
    4.1744    5.3360   -0.0000 C   0  0  0  0  0  0  0  0  0  0  0  0
    3.1338    6.4975   -0.0000 C   0  0  0  0  0  0  0  0  0  0  0  0
    3.5936    7.9737   -0.0000 C   0  0  0  0  0  0  0  0  0  0  0  0
    2.5530    9.1352   -0.0000 O   0  0  0  0  0  0  0  0  0  0  0  0
    2.9160   10.3210   -0.0000 C   0  0  0  0  0  0  0  0  0  0  0  0
  1  2  2  0  0  0  0
  2  3  1  0  0  0  0
  2  4  1  0  0  0  0
  3  5  1  0  0  0  0
  4  6  1  0  0  0  0
  4  7  2  0  0  0  0
  5  8  1  0  0  0  0
  5  9  1  0  0  0  0
  6 10  2  0  0  0  0
  7 11  1  0  0  0  0
  7 12  1  0  0  0  0
  8 13  1  0  0  0  0
  9 14  1  0  0  0  0
 10 15  1  0  0  0  0
 11 16  1  0  0  0  0
 12 17  2  0  0  0  0
 13 18  1  0  0  0  0
 15 19  1  0  0  0  0
 15 20  1  0  0  0  0
 16 21  2  0  0  0  0
 18 22  1  0  0  0  0
 22 23  1  0  0  0  0
 23 24  1  0  0  0  0
 24 25  1  0  0  0  0
 25 26  1  0  0  0  0
 10 11  1  0  0  0  0
 14 18  1  0  0  0  0
 17 21  1  0  0  0  0
M  END
>  <MolRegNo>
2052588

>  <m>
=

>  <Value>
16300

>  <Unit>
nM

>  <Type>
IC50

>  <pValue>
4.79

>  <Ligand Efficiency>
0

>  <Binding Efficiency>
0

>  <Surface Efficiency>
0

>  <Assay Index>
978925

>  <Assay Category>


>  <Assay Organism>
Homo sapiens

>  <Target ID>
17045

>  <Target Name>
Cytochrome P450 3A4

>  <Target Organism>
Homo sapiens

>  <Target Description>
Target is a single protein chain

>  <Sequence Accession>
P08684

>  <Reference>


>  <Pubmed ID>
26363507

>  <DOI>
10.1016/j.ejmech.2015.08.051

$$$$
2052594
Actelion Java MolfileCreator 1.0

 24 26  0  0  0  0  0  0  0  0999 V2000
    0.0000   -0.0000   -0.0000 F   0  0  0  0  0  0  0  0  0  0  0  0
   -0.3891   -1.1674   -0.0000 C   0  0  0  0  0  0  0  0  0  0  0  0
    0.6323   -2.3105   -0.0000 C   0  0  0  0  0  0  0  0  0  0  0  0
    0.1459   -3.7698   -0.0000 N   0  0  0  0  0  0  0  0  0  0  0  0
    1.1674   -4.9128   -0.0000 C   0  0  0  0  0  0  0  0  0  0  0  0
   -1.3863   -4.0738   -0.0000 C   0  0  0  0  0  0  0  0  0  0  0  0
    0.6688   -6.3721   -0.0000 C   0  0  0  0  0  0  0  0  0  0  0  0
   -1.8849   -5.5330   -0.0000 C   0  0  0  0  0  0  0  0  0  0  0  0
   -0.8634   -6.6761   -0.0000 C   0  0  0  0  0  0  0  0  0  0  0  0
   -1.3620   -8.1354   -0.0000 N   0  0  0  0  0  0  0  0  0  0  0  0
   -2.8942   -8.4394   -0.0000 C   0  0  0  0  0  0  0  0  0  0  0  0
   -3.7333   -7.5030   -0.0000 O   0  0  0  0  0  0  0  0  0  0  0  0
   -3.3928   -9.8986   -0.0000 C   0  0  0  0  0  0  0  0  0  0  0  0
   -2.5051  -11.1147   -0.0000 N   0  0  0  0  0  0  0  0  0  0  0  0
   -4.8764  -10.3607   -0.0000 C   0  0  0  0  0  0  0  0  0  0  0  0
   -3.4171  -12.3672   -0.0000 C   0  0  0  0  0  0  0  0  0  0  0  0
   -4.8885  -11.8930   -0.0000 N   0  0  0  0  0  0  0  0  0  0  0  0
   -6.2262   -9.5581   -0.0000 C   0  0  0  0  0  0  0  0  0  0  0  0
   -2.9428  -13.8265   -0.0000 C   0  0  0  0  0  0  0  0  0  0  0  0
   -6.2383  -12.6712   -0.0000 C   0  0  0  0  0  0  0  0  0  0  0  0
   -7.6003  -10.3364   -0.0000 C   0  0  0  0  0  0  0  0  0  0  0  0
   -1.7390  -14.0697   -0.0000 C   0  0  0  0  0  0  0  0  0  0  0  0
   -3.7819  -14.7385   -0.0000 C   0  0  0  0  0  0  0  0  0  0  0  0
   -7.6125  -11.8686   -0.0000 C   0  0  0  0  0  0  0  0  0  0  0  0
  1  2  1  0  0  0  0
  2  3  1  0  0  0  0
  3  4  1  0  0  0  0
  4  5  1  0  0  0  0
  4  6  1  0  0  0  0
  5  7  1  0  0  0  0
  6  8  1  0  0  0  0
  7  9  1  0  0  0  0
  9 10  1  0  0  0  0
 10 11  1  0  0  0  0
 11 12  2  0  0  0  0
 11 13  1  0  0  0  0
 13 14  1  0  0  0  0
 13 15  2  0  0  0  0
 14 16  2  0  0  0  0
 15 17  1  0  0  0  0
 15 18  1  0  0  0  0
 16 19  1  0  0  0  0
 17 20  1  0  0  0  0
 18 21  2  0  0  0  0
 19 22  1  0  0  0  0
 19 23  1  0  0  0  0
 20 24  2  0  0  0  0
  8  9  1  0  0  0  0
 16 17  1  0  0  0  0
 21 24  1  0  0  0  0
M  END
>  <MolRegNo>
2052594

>  <m>
=

>  <Value>
27300

>  <Unit>
nM

>  <Type>
IC50

>  <pValue>
4.56

>  <Ligand Efficiency>
0

>  <Binding Efficiency>
0

>  <Surface Efficiency>
0

>  <Assay Index>
978925

>  <Assay Category>


>  <Assay Organism>
Homo sapiens

>  <Target ID>
17045

>  <Target Name>
Cytochrome P450 3A4

>  <Target Organism>
Homo sapiens

>  <Target Description>
Target is a single protein chain

>  <Sequence Accession>
P08684

>  <Reference>


>  <Pubmed ID>
26363507

>  <DOI>
10.1016/j.ejmech.2015.08.051

$$$$
2052604
Actelion Java MolfileCreator 1.0

 27 30  0  0  1  0  0  0  0  0999 V2000
    0.0000   -0.0000   -0.0000 O   0  0  0  0  0  0  0  0  0  0  0  0
    0.8126   -0.9096   -0.0000 C   0  0  0  0  0  0  0  0  0  0  0  0
    2.3164   -0.5821   -0.0000 N   0  0  0  0  0  0  0  0  0  0  0  0
    0.3153   -2.3649   -0.0000 C   0  0  0  0  0  0  0  0  0  0  0  0
    2.7894    0.8974   -0.0000 C   0  0  0  0  0  0  0  0  0  0  0  0
    1.2006   -3.5776   -0.0000 N   0  0  0  0  0  0  0  0  0  0  0  0
   -1.1643   -2.8257   -0.0000 C   0  0  0  0  0  0  0  0  0  0  0  0
    4.2932    1.2249   -0.0000 C   0  0  0  0  0  0  0  0  0  0  0  0
    0.2911   -4.8268   -0.0000 C   0  0  0  0  0  0  0  0  0  0  0  0
   -1.1764   -4.3538   -0.0000 N   0  0  0  0  0  0  0  0  0  0  0  0
   -2.5104   -2.0253   -0.0000 C   0  0  0  0  0  0  0  0  0  0  0  0
    4.7419    2.5589   -0.0000 C   0  0  0  0  0  0  0  0  0  0  0  0
    5.2149    0.2062   -0.0000 C   0  0  0  0  0  0  0  0  0  0  0  0
    0.7640   -6.2821   -0.0000 C   0  0  0  0  0  0  0  0  0  0  0  0
   -2.5225   -5.1300   -0.0000 C   0  0  0  0  0  0  0  0  0  0  0  0
   -3.8808   -2.8015   -0.0000 C   0  0  0  0  0  0  0  0  0  0  0  0
    6.1244    2.8500   -0.0000 C   0  0  0  0  0  0  0  0  0  0  0  0
    6.5974    0.4972   -0.0000 C   0  0  0  0  0  0  0  0  0  0  0  0
    1.9647   -6.5247   -0.0000 C   0  0  0  0  0  0  0  0  0  0  0  0
   -0.0728   -7.1917   -0.0000 C   0  0  0  0  0  0  0  0  0  0  0  0
   -3.8930   -4.3296   -0.0000 C   0  0  0  0  0  0  0  0  0  0  0  0
    7.0461    1.8191   -0.0000 N   0  0  0  0  0  0  0  0  0  0  0  0
    8.5500    2.1345   -0.0000 C   0  0  0  0  0  0  0  0  0  0  0  0
    9.5566    0.9823   -0.0000 C   0  0  0  0  0  0  0  0  0  0  0  0
   11.0604    1.2855   -0.0000 C   0  0  0  0  0  0  0  0  0  0  0  0
   12.0670    0.1334   -0.0000 O   0  0  0  0  0  0  0  0  0  0  0  0
   13.2676    0.3881   -0.0000 C   0  0  0  0  0  0  0  0  0  0  0  0
  1  2  2  0  0  0  0
  2  3  1  0  0  0  0
  2  4  1  0  0  0  0
  3  5  1  0  0  0  0
  4  6  1  0  0  0  0
  4  7  2  0  0  0  0
  8  5  1  1  0  0  0
  6  9  2  0  0  0  0
  7 10  1  0  0  0  0
  7 11  1  0  0  0  0
  8 12  1  0  0  0  0
  8 13  1  0  0  0  0
  9 14  1  0  0  0  0
 10 15  1  0  0  0  0
 11 16  2  0  0  0  0
 12 17  1  6  0  0  0
 13 18  1  6  0  0  0
 14 19  1  0  0  0  0
 14 20  1  0  0  0  0
 15 21  2  0  0  0  0
 17 22  1  0  0  0  0
 22 23  1  0  0  0  0
 23 24  1  0  0  0  0
 24 25  1  0  0  0  0
 25 26  1  0  0  0  0
 26 27  1  0  0  0  0
  9 10  1  0  0  0  0
 12 13  1  0  0  0  0
 16 21  1  0  0  0  0
 18 22  1  0  0  0  0
M  END
>  <MolRegNo>
2052604

>  <m>
=

>  <Value>
0

>  <Unit>
nM

>  <Type>
IC50

>  <pValue>
0

>  <Ligand Efficiency>
0

>  <Binding Efficiency>
0

>  <Surface Efficiency>
0

>  <Assay Index>
978925

>  <Assay Category>


>  <Assay Organism>
Homo sapiens

>  <Target ID>
17045

>  <Target Name>
Cytochrome P450 3A4

>  <Target Organism>
Homo sapiens

>  <Target Description>
Target is a single protein chain

>  <Sequence Accession>
P08684

>  <Reference>


>  <Pubmed ID>
26363507

>  <DOI>
10.1016/j.ejmech.2015.08.051

$$$$
2052609
Actelion Java MolfileCreator 1.0

 29 33  0  0  1  0  0  0  0  0999 V2000
    0.0000   -0.0000   -0.0000 O   0  0  0  0  0  0  0  0  0  0  0  0
    0.8061   -0.9023   -0.0000 C   0  0  0  0  0  0  0  0  0  0  0  0
    2.2979   -0.5775   -0.0000 N   0  0  0  0  0  0  0  0  0  0  0  0
    0.3128   -2.3460   -0.0000 C   0  0  0  0  0  0  0  0  0  0  0  0
    2.7671    0.8903   -0.0000 C   0  0  0  0  0  0  0  0  0  0  0  0
    1.1911   -3.5491   -0.0000 N   0  0  0  0  0  0  0  0  0  0  0  0
   -1.1550   -2.8032   -0.0000 C   0  0  0  0  0  0  0  0  0  0  0  0
    4.2590    1.2151   -0.0000 C   0  0  0  0  0  0  0  0  0  0  0  0
    0.2887   -4.7883   -0.0000 C   0  0  0  0  0  0  0  0  0  0  0  0
   -1.1670   -4.3191   -0.0000 N   0  0  0  0  0  0  0  0  0  0  0  0
   -2.4904   -2.0092   -0.0000 C   0  0  0  0  0  0  0  0  0  0  0  0
    4.7041    2.5385   -0.0000 C   0  0  0  0  0  0  0  0  0  0  0  0
    5.1733    0.2045   -0.0000 C   0  0  0  0  0  0  0  0  0  0  0  0
    0.7580   -6.2321   -0.0000 C   0  0  0  0  0  0  0  0  0  0  0  0
   -2.5024   -5.0891   -0.0000 C   0  0  0  0  0  0  0  0  0  0  0  0
   -3.8499   -2.7792   -0.0000 C   0  0  0  0  0  0  0  0  0  0  0  0
    6.0757    2.8273   -0.0000 C   0  0  0  0  0  0  0  0  0  0  0  0
    6.5449    0.4933   -0.0000 C   0  0  0  0  0  0  0  0  0  0  0  0
    1.9490   -6.4727   -0.0000 C   0  0  0  0  0  0  0  0  0  0  0  0
   -0.0722   -7.1344   -0.0000 C   0  0  0  0  0  0  0  0  0  0  0  0
   -3.8620   -4.2951   -0.0000 C   0  0  0  0  0  0  0  0  0  0  0  0
    6.9900    1.8046   -0.0000 N   0  0  0  0  0  0  0  0  0  0  0  0
    8.4819    2.1175   -0.0000 C   0  0  0  0  0  0  0  0  0  0  0  0
    9.4804    0.9745   -0.0000 C   0  0  0  0  0  0  0  0  0  0  0  0
    8.9751   -0.4572   -0.0000 C   0  0  0  0  0  0  0  0  0  0  0  0
   10.9723    1.2753   -0.0000 C   0  0  0  0  0  0  0  0  0  0  0  0
    9.9737   -1.6001   -0.0000 C   0  0  0  0  0  0  0  0  0  0  0  0
   11.9708    0.1323   -0.0000 C   0  0  0  0  0  0  0  0  0  0  0  0
   11.4655   -1.2993   -0.0000 O   0  0  0  0  0  0  0  0  0  0  0  0
  1  2  2  0  0  0  0
  2  3  1  0  0  0  0
  2  4  1  0  0  0  0
  3  5  1  0  0  0  0
  4  6  1  0  0  0  0
  4  7  2  0  0  0  0
  8  5  1  1  0  0  0
  6  9  2  0  0  0  0
  7 10  1  0  0  0  0
  7 11  1  0  0  0  0
  8 12  1  0  0  0  0
  8 13  1  0  0  0  0
  9 14  1  0  0  0  0
 10 15  1  0  0  0  0
 11 16  2  0  0  0  0
 12 17  1  6  0  0  0
 13 18  1  6  0  0  0
 14 19  1  0  0  0  0
 14 20  1  0  0  0  0
 15 21  2  0  0  0  0
 17 22  1  0  0  0  0
 22 23  1  0  0  0  0
 23 24  1  0  0  0  0
 24 25  1  0  0  0  0
 24 26  1  0  0  0  0
 25 27  1  0  0  0  0
 26 28  1  0  0  0  0
 27 29  1  0  0  0  0
  9 10  1  0  0  0  0
 12 13  1  0  0  0  0
 16 21  1  0  0  0  0
 18 22  1  0  0  0  0
 28 29  1  0  0  0  0
M  END
>  <MolRegNo>
2052609

>  <m>
=

>  <Value>
41400

>  <Unit>
nM

>  <Type>
IC50

>  <pValue>
4.38

>  <Ligand Efficiency>
0

>  <Binding Efficiency>
0

>  <Surface Efficiency>
0

>  <Assay Index>
978925

>  <Assay Category>


>  <Assay Organism>
Homo sapiens

>  <Target ID>
17045

>  <Target Name>
Cytochrome P450 3A4

>  <Target Organism>
Homo sapiens

>  <Target Description>
Target is a single protein chain

>  <Sequence Accession>
P08684

>  <Reference>


>  <Pubmed ID>
26363507

>  <DOI>
10.1016/j.ejmech.2015.08.051

$$$$
2052611
Actelion Java MolfileCreator 1.0

 33 37  0  0  1  0  0  0  0  0999 V2000
    0.0000   -0.0000   -0.0000 O   0  0  0  0  0  0  0  0  0  0  0  0
   -1.2187   -0.2172   -0.0000 C   0  0  0  0  0  0  0  0  0  0  0  0
   -1.7375   -1.6530   -0.0000 O   0  0  0  0  0  0  0  0  0  0  0  0
   -2.2322    0.9532   -0.0000 N   0  0  0  0  0  0  0  0  0  0  0  0
   -0.9411   -2.5701   -0.0000 C   0  0  0  0  0  0  0  0  0  0  0  0
   -1.7496    2.4132   -0.0000 C   0  0  0  0  0  0  0  0  0  0  0  0
   -3.7525    0.6757   -0.0000 C   0  0  0  0  0  0  0  0  0  0  0  0
   -2.7752    3.5836   -0.0000 C   0  0  0  0  0  0  0  0  0  0  0  0
   -4.7781    1.8461   -0.0000 C   0  0  0  0  0  0  0  0  0  0  0  0
   -4.2955    3.3061   -0.0000 C   0  0  0  0  0  0  0  0  0  0  0  0
   -5.3211    4.4765   -0.0000 C   0  0  0  0  0  0  0  0  0  0  0  0
   -6.8414    4.1869   -0.0000 N   0  0  0  0  0  0  0  0  0  0  0  0
   -7.7826    5.2367   -0.0000 C   0  0  0  0  0  0  0  0  0  0  0  0
   -7.2999    2.8958   -0.0000 C   0  0  0  0  0  0  0  0  0  0  0  0
   -9.1822    4.9712   -0.0000 C   0  0  0  0  0  0  0  0  0  0  0  0
   -8.6996    2.6304   -0.0000 C   0  0  0  0  0  0  0  0  0  0  0  0
   -9.6528    3.6681   -0.0000 C   0  0  0  0  0  0  0  0  0  0  0  0
  -11.1731    3.3664   -0.0000 C   0  0  0  0  0  0  0  0  0  0  0  0
  -11.6678    1.9185   -0.0000 N   0  0  0  0  0  0  0  0  0  0  0  0
  -13.1882    1.6168   -0.0000 C   0  0  0  0  0  0  0  0  0  0  0  0
  -14.0207    2.5459   -0.0000 O   0  0  0  0  0  0  0  0  0  0  0  0
  -13.6829    0.1689   -0.0000 C   0  0  0  0  0  0  0  0  0  0  0  0
  -12.8021   -1.0377   -0.0000 N   0  0  0  0  0  0  0  0  0  0  0  0
  -15.1549   -0.2896   -0.0000 C   0  0  0  0  0  0  0  0  0  0  0  0
  -13.7070   -2.2805   -0.0000 C   0  0  0  0  0  0  0  0  0  0  0  0
  -15.1670   -1.8099   -0.0000 N   0  0  0  0  0  0  0  0  0  0  0  0
  -16.4943    0.5068   -0.0000 C   0  0  0  0  0  0  0  0  0  0  0  0
  -13.2364   -3.7284   -0.0000 C   0  0  0  0  0  0  0  0  0  0  0  0
  -16.5063   -2.5821   -0.0000 C   0  0  0  0  0  0  0  0  0  0  0  0
  -17.8577   -0.2655   -0.0000 C   0  0  0  0  0  0  0  0  0  0  0  0
  -12.0419   -3.9697   -0.0000 C   0  0  0  0  0  0  0  0  0  0  0  0
  -14.0690   -4.6334   -0.0000 C   0  0  0  0  0  0  0  0  0  0  0  0
  -17.8698   -1.7858   -0.0000 C   0  0  0  0  0  0  0  0  0  0  0  0
  1  2  2  0  0  0  0
  2  3  1  0  0  0  0
  2  4  1  0  0  0  0
  3  5  1  0  0  0  0
  4  6  1  0  0  0  0
  4  7  1  0  0  0  0
  6  8  1  0  0  0  0
  7  9  1  0  0  0  0
  8 10  1  0  0  0  0
 10 11  1  0  0  0  0
 11 12  1  0  0  0  0
 12 13  1  0  0  0  0
 12 14  1  0  0  0  0
 15 13  1  6  0  0  0
 16 14  1  6  0  0  0
 15 17  1  0  0  0  0
 17 18  1  1  0  0  0
 18 19  1  0  0  0  0
 19 20  1  0  0  0  0
 20 21  2  0  0  0  0
 20 22  1  0  0  0  0
 22 23  1  0  0  0  0
 22 24  2  0  0  0  0
 23 25  2  0  0  0  0
 24 26  1  0  0  0  0
 24 27  1  0  0  0  0
 25 28  1  0  0  0  0
 26 29  1  0  0  0  0
 27 30  2  0  0  0  0
 28 31  1  0  0  0  0
 28 32  1  0  0  0  0
 29 33  2  0  0  0  0
  9 10  1  0  0  0  0
 15 16  1  0  0  0  0
 16 17  1  0  0  0  0
 25 26  1  0  0  0  0
 30 33  1  0  0  0  0
M  END
>  <MolRegNo>
2052611

>  <m>
=

>  <Value>
54300

>  <Unit>
nM

>  <Type>
IC50

>  <pValue>
4.26

>  <Ligand Efficiency>
0

>  <Binding Efficiency>
0

>  <Surface Efficiency>
0

>  <Assay Index>
978925

>  <Assay Category>


>  <Assay Organism>
Homo sapiens

>  <Target ID>
17045

>  <Target Name>
Cytochrome P450 3A4

>  <Target Organism>
Homo sapiens

>  <Target Description>
Target is a single protein chain

>  <Sequence Accession>
P08684

>  <Reference>


>  <Pubmed ID>
26363507

>  <DOI>
10.1016/j.ejmech.2015.08.051

$$$$
2052613
Actelion Java MolfileCreator 1.0

 27 30  0  0  1  0  0  0  0  0999 V2000
    0.0000   -0.0000   -0.0000 F   0  0  0  0  0  0  0  0  0  0  0  0
   -1.2361   -0.2325   -0.0000 C   0  0  0  0  0  0  0  0  0  0  0  0
   -2.2764    0.9546   -0.0000 C   0  0  0  0  0  0  0  0  0  0  0  0
   -0.4283   -1.1627   -0.0000 C   0  0  0  0  0  0  0  0  0  0  0  0
   -1.6522   -1.3952   -0.0000 C   0  0  0  0  0  0  0  0  0  0  0  0
   -3.8184    0.6609   -0.0000 N   0  0  0  0  0  0  0  0  0  0  0  0
   -4.7730    1.7256   -0.0000 C   0  0  0  0  0  0  0  0  0  0  0  0
   -4.2835   -0.6486   -0.0000 C   0  0  0  0  0  0  0  0  0  0  0  0
   -6.1927    1.4564   -0.0000 C   0  0  0  0  0  0  0  0  0  0  0  0
   -5.7031   -0.9179   -0.0000 C   0  0  0  0  0  0  0  0  0  0  0  0
   -6.6700    0.1346   -0.0000 C   0  0  0  0  0  0  0  0  0  0  0  0
   -8.2120   -0.1713   -0.0000 C   0  0  0  0  0  0  0  0  0  0  0  0
   -8.7138   -1.6400   -0.0000 N   0  0  0  0  0  0  0  0  0  0  0  0
  -10.2558   -1.9459   -0.0000 C   0  0  0  0  0  0  0  0  0  0  0  0
  -11.1003   -1.0036   -0.0000 O   0  0  0  0  0  0  0  0  0  0  0  0
  -10.7576   -3.4145   -0.0000 C   0  0  0  0  0  0  0  0  0  0  0  0
   -9.8642   -4.6384   -0.0000 N   0  0  0  0  0  0  0  0  0  0  0  0
  -12.2507   -3.8796   -0.0000 C   0  0  0  0  0  0  0  0  0  0  0  0
  -10.7821   -5.8989   -0.0000 C   0  0  0  0  0  0  0  0  0  0  0  0
  -12.2629   -5.4216   -0.0000 N   0  0  0  0  0  0  0  0  0  0  0  0
  -13.6092   -3.0719   -0.0000 C   0  0  0  0  0  0  0  0  0  0  0  0
  -10.3048   -7.3675   -0.0000 C   0  0  0  0  0  0  0  0  0  0  0  0
  -13.6214   -6.2049   -0.0000 C   0  0  0  0  0  0  0  0  0  0  0  0
  -14.9921   -3.8551   -0.0000 C   0  0  0  0  0  0  0  0  0  0  0  0
   -9.0932   -7.6123   -0.0000 C   0  0  0  0  0  0  0  0  0  0  0  0
  -11.1492   -8.2854   -0.0000 C   0  0  0  0  0  0  0  0  0  0  0  0
  -15.0043   -5.3972   -0.0000 C   0  0  0  0  0  0  0  0  0  0  0  0
  1  2  1  0  0  0  0
  2  3  1  0  0  0  0
  2  4  1  0  0  0  0
  2  5  1  0  0  0  0
  3  6  1  0  0  0  0
  6  7  1  0  0  0  0
  6  8  1  0  0  0  0
  9  7  1  6  0  0  0
 10  8  1  6  0  0  0
  9 11  1  0  0  0  0
 11 12  1  1  0  0  0
 12 13  1  0  0  0  0
 13 14  1  0  0  0  0
 14 15  2  0  0  0  0
 14 16  1  0  0  0  0
 16 17  1  0  0  0  0
 16 18  2  0  0  0  0
 17 19  2  0  0  0  0
 18 20  1  0  0  0  0
 18 21  1  0  0  0  0
 19 22  1  0  0  0  0
 20 23  1  0  0  0  0
 21 24  2  0  0  0  0
 22 25  1  0  0  0  0
 22 26  1  0  0  0  0
 23 27  2  0  0  0  0
  9 10  1  0  0  0  0
 10 11  1  0  0  0  0
 19 20  1  0  0  0  0
 24 27  1  0  0  0  0
M  END
>  <MolRegNo>
2052613

>  <m>
=

>  <Value>
44700

>  <Unit>
nM

>  <Type>
IC50

>  <pValue>
4.35

>  <Ligand Efficiency>
0

>  <Binding Efficiency>
0

>  <Surface Efficiency>
0

>  <Assay Index>
978925

>  <Assay Category>


>  <Assay Organism>
Homo sapiens

>  <Target ID>
17045

>  <Target Name>
Cytochrome P450 3A4

>  <Target Organism>
Homo sapiens

>  <Target Description>
Target is a single protein chain

>  <Sequence Accession>
P08684

>  <Reference>


>  <Pubmed ID>
26363507

>  <DOI>
10.1016/j.ejmech.2015.08.051

$$$$
2052615
Actelion Java MolfileCreator 1.0

 27 30  0  0  1  0  0  0  0  0999 V2000
    0.0000   -0.0000   -0.0000 O   0  0  0  0  0  0  0  0  0  0  0  0
    0.8239   -0.9223   -0.0000 C   0  0  0  0  0  0  0  0  0  0  0  0
    2.3487   -0.5903   -0.0000 N   0  0  0  0  0  0  0  0  0  0  0  0
    0.3197   -2.3979   -0.0000 C   0  0  0  0  0  0  0  0  0  0  0  0
    2.8283    0.9100   -0.0000 C   0  0  0  0  0  0  0  0  0  0  0  0
    1.2174   -3.6276   -0.0000 N   0  0  0  0  0  0  0  0  0  0  0  0
   -1.1805   -2.8652   -0.0000 C   0  0  0  0  0  0  0  0  0  0  0  0
    4.3531    1.2420   -0.0000 C   0  0  0  0  0  0  0  0  0  0  0  0
    0.2951   -4.8942   -0.0000 C   0  0  0  0  0  0  0  0  0  0  0  0
   -1.1928   -4.4146   -0.0000 N   0  0  0  0  0  0  0  0  0  0  0  0
   -2.5455   -2.0536   -0.0000 C   0  0  0  0  0  0  0  0  0  0  0  0
    4.8081    2.5946   -0.0000 C   0  0  0  0  0  0  0  0  0  0  0  0
    5.2877    0.2090   -0.0000 C   0  0  0  0  0  0  0  0  0  0  0  0
    0.7747   -6.3698   -0.0000 C   0  0  0  0  0  0  0  0  0  0  0  0
   -2.5578   -5.2016   -0.0000 C   0  0  0  0  0  0  0  0  0  0  0  0
   -3.9350   -2.8406   -0.0000 C   0  0  0  0  0  0  0  0  0  0  0  0
    6.2099    2.8898   -0.0000 C   0  0  0  0  0  0  0  0  0  0  0  0
    6.6895    0.5042   -0.0000 C   0  0  0  0  0  0  0  0  0  0  0  0
    1.9921   -6.6157   -0.0000 C   0  0  0  0  0  0  0  0  0  0  0  0
   -0.0738   -7.2921   -0.0000 C   0  0  0  0  0  0  0  0  0  0  0  0
   -3.9473   -4.3900   -0.0000 C   0  0  0  0  0  0  0  0  0  0  0  0
    7.1445    1.8445   -0.0000 N   0  0  0  0  0  0  0  0  0  0  0  0
    8.6693    2.1643   -0.0000 C   0  0  0  0  0  0  0  0  0  0  0  0
    9.6900    0.9961   -0.0000 C   0  0  0  0  0  0  0  0  0  0  0  0
   10.9074    1.2543   -0.0000 O   0  0  0  0  0  0  0  0  0  0  0  0
   10.5016    0.0615   -0.0000 C   0  0  0  0  0  0  0  0  0  0  0  0
    9.2719   -0.1722   -0.0000 C   0  0  0  0  0  0  0  0  0  0  0  0
  1  2  2  0  0  0  0
  2  3  1  0  0  0  0
  2  4  1  0  0  0  0
  3  5  1  0  0  0  0
  4  6  1  0  0  0  0
  4  7  2  0  0  0  0
  8  5  1  1  0  0  0
  6  9  2  0  0  0  0
  7 10  1  0  0  0  0
  7 11  1  0  0  0  0
  8 12  1  0  0  0  0
  8 13  1  0  0  0  0
  9 14  1  0  0  0  0
 10 15  1  0  0  0  0
 11 16  2  0  0  0  0
 12 17  1  6  0  0  0
 13 18  1  6  0  0  0
 14 19  1  0  0  0  0
 14 20  1  0  0  0  0
 15 21  2  0  0  0  0
 17 22  1  0  0  0  0
 22 23  1  0  0  0  0
 23 24  1  0  0  0  0
 24 25  1  0  0  0  0
 24 26  1  0  0  0  0
 24 27  1  0  0  0  0
  9 10  1  0  0  0  0
 12 13  1  0  0  0  0
 16 21  1  0  0  0  0
 18 22  1  0  0  0  0
M  END
>  <MolRegNo>
2052615

>  <m>
=

>  <Value>
18900

>  <Unit>
nM

>  <Type>
IC50

>  <pValue>
4.72

>  <Ligand Efficiency>
0

>  <Binding Efficiency>
0

>  <Surface Efficiency>
0

>  <Assay Index>
978925

>  <Assay Category>


>  <Assay Organism>
Homo sapiens

>  <Target ID>
17045

>  <Target Name>
Cytochrome P450 3A4

>  <Target Organism>
Homo sapiens

>  <Target Description>
Target is a single protein chain

>  <Sequence Accession>
P08684

>  <Reference>


>  <Pubmed ID>
26363507

>  <DOI>
10.1016/j.ejmech.2015.08.051

$$$$
2054501
Actelion Java MolfileCreator 1.0

 33 37  0  0  0  0  0  0  0  0999 V2000
    0.0000   -0.0000   -0.0000 S   0  0  0  0  0  0  0  0  0  0  0  0
   -1.4709   -0.4619   -0.0000 C   0  0  0  0  0  0  0  0  0  0  0  0
    0.8874   -1.2035   -0.0000 C   0  0  0  0  0  0  0  0  0  0  0  0
   -1.4831   -1.9937   -0.0000 C   0  0  0  0  0  0  0  0  0  0  0  0
   -2.8203    0.3404   -0.0000 C   0  0  0  0  0  0  0  0  0  0  0  0
   -0.0243   -2.4434   -0.0000 C   0  0  0  0  0  0  0  0  0  0  0  0
   -2.8325   -2.7717   -0.0000 C   0  0  0  0  0  0  0  0  0  0  0  0
   -4.1818   -0.4376   -0.0000 N   0  0  0  0  0  0  0  0  0  0  0  0
   -2.8325    1.8964   -0.0000 C   0  0  0  0  0  0  0  0  0  0  0  0
   -4.1940   -1.9693   -0.0000 C   0  0  0  0  0  0  0  0  0  0  0  0
   -5.5433    0.3404   -0.0000 C   0  0  0  0  0  0  0  0  0  0  0  0
   -1.5074    2.6744   -0.0000 C   0  0  0  0  0  0  0  0  0  0  0  0
   -5.5677    1.3858   -0.0000 O   0  0  0  0  0  0  0  0  0  0  0  0
   -6.8806   -0.4255   -0.0000 C   0  0  0  0  0  0  0  0  0  0  0  0
   -0.1823    1.9086   -0.0000 C   0  0  0  0  0  0  0  0  0  0  0  0
   -1.5074    4.2304   -0.0000 C   0  0  0  0  0  0  0  0  0  0  0  0
   -8.2786    0.2067   -0.0000 C   0  0  0  0  0  0  0  0  0  0  0  0
   -7.0021   -1.9086   -0.0000 C   0  0  0  0  0  0  0  0  0  0  0  0
    1.1427    2.6866   -0.0000 C   0  0  0  0  0  0  0  0  0  0  0  0
   -0.1823    5.0085   -0.0000 C   0  0  0  0  0  0  0  0  0  0  0  0
   -9.3119   -0.9360   -0.0000 C   0  0  0  0  0  0  0  0  0  0  0  0
   -8.7648    1.6897   -0.0000 C   0  0  0  0  0  0  0  0  0  0  0  0
   -8.5217   -2.2489   -0.0000 N   0  0  0  0  0  0  0  0  0  0  0  0
    2.4678    1.9207   -0.0000 O   0  0  0  0  0  0  0  0  0  0  0  0
    1.1427    4.2426   -0.0000 C   0  0  0  0  0  0  0  0  0  0  0  0
  -10.8436   -0.6321   -0.0000 C   0  0  0  0  0  0  0  0  0  0  0  0
  -10.3087    2.0058   -0.0000 C   0  0  0  0  0  0  0  0  0  0  0  0
   -9.1417   -3.6591   -0.0000 C   0  0  0  0  0  0  0  0  0  0  0  0
    2.4434    0.8996   -0.0000 C   0  0  0  0  0  0  0  0  0  0  0  0
    2.4678    5.0206   -0.0000 O   0  0  0  0  0  0  0  0  0  0  0  0
  -11.3420    0.8631   -0.0000 C   0  0  0  0  0  0  0  0  0  0  0  0
   -8.4123   -4.6316   -0.0000 C   0  0  0  0  0  0  0  0  0  0  0  0
    2.4556    6.2727   -0.0000 C   0  0  0  0  0  0  0  0  0  0  0  0
  1  2  1  0  0  0  0
  1  3  1  0  0  0  0
  2  4  2  0  0  0  0
  2  5  1  0  0  0  0
  3  6  2  0  0  0  0
  4  7  1  0  0  0  0
  5  8  1  0  0  0  0
  5  9  1  0  0  0  0
  7 10  1  0  0  0  0
  8 11  1  0  0  0  0
  9 12  1  0  0  0  0
 11 13  2  0  0  0  0
 11 14  1  0  0  0  0
 12 15  2  0  0  0  0
 12 16  1  0  0  0  0
 14 17  1  0  0  0  0
 14 18  2  0  0  0  0
 15 19  1  0  0  0  0
 16 20  2  0  0  0  0
 17 21  2  0  0  0  0
 17 22  1  0  0  0  0
 18 23  1  0  0  0  0
 19 24  1  0  0  0  0
 19 25  2  0  0  0  0
 21 26  1  0  0  0  0
 22 27  2  0  0  0  0
 23 28  1  0  0  0  0
 24 29  1  0  0  0  0
 25 30  1  0  0  0  0
 26 31  2  0  0  0  0
 28 32  1  0  0  0  0
 30 33  1  0  0  0  0
  4  6  1  0  0  0  0
  8 10  1  0  0  0  0
 20 25  1  0  0  0  0
 21 23  1  0  0  0  0
 27 31  1  0  0  0  0
M  END
>  <MolRegNo>
2054501

>  <m>
=

>  <Value>
3000

>  <Unit>
nM

>  <Type>
IC50

>  <pValue>
5.52

>  <Ligand Efficiency>
0

>  <Binding Efficiency>
0

>  <Surface Efficiency>
0

>  <Assay Index>
980451

>  <Assay Category>


>  <Assay Organism>
Homo sapiens

>  <Target ID>
17045

>  <Target Name>
Cytochrome P450 3A4

>  <Target Organism>
Homo sapiens

>  <Target Description>
Target is a single protein chain

>  <Sequence Accession>
P08684

>  <Reference>
Medchemcomm 6 (6), 1054-1064 (2015)

>  <Pubmed ID>


>  <DOI>
10.1039/C5MD00074B

$$$$
2053378
Actelion Java MolfileCreator 1.0

 25 27  0  0  0  0  0  0  0  0999 V2000
    0.0000   -0.0000   -0.0000 S   0  0  0  0  0  0  0  0  0  0  0  0
   -1.5068   -0.4732   -0.0000 C   0  0  0  0  0  0  0  0  0  0  0  0
    0.9091   -1.2328   -0.0000 C   0  0  0  0  0  0  0  0  0  0  0  0
   -2.8891    0.3487   -0.0000 C   0  0  0  0  0  0  0  0  0  0  0  0
   -1.5193   -2.0423   -0.0000 C   0  0  0  0  0  0  0  0  0  0  0  0
   -0.0249   -2.5030   -0.0000 N   0  0  0  0  0  0  0  0  0  0  0  0
    2.4781   -1.1955   -0.0000 C   0  0  0  0  0  0  0  0  0  0  0  0
   -2.9015    1.9427   -0.0000 N   0  0  0  0  0  0  0  0  0  0  0  0
   -4.2838   -0.4483   -0.0000 C   0  0  0  0  0  0  0  0  0  0  0  0
   -2.9015   -2.8393   -0.0000 C   0  0  0  0  0  0  0  0  0  0  0  0
    0.3611   -3.6861   -0.0000 O   0  0  0  0  0  0  0  0  0  0  0  0
    3.1132   -2.2664   -0.0000 O   0  0  0  0  0  0  0  0  0  0  0  0
    3.2378    0.1992   -0.0000 N   0  0  0  0  0  0  0  0  0  0  0  0
   -4.0099    2.5902   -0.0000 O   0  0  0  0  0  0  0  0  0  0  0  0
   -1.8181    2.5778   -0.0000 O   0  0  0  0  0  0  0  0  0  0  0  0
   -4.2963   -2.0174   -0.0000 C   0  0  0  0  0  0  0  0  0  0  0  0
    4.8068    0.2366   -0.0000 C   0  0  0  0  0  0  0  0  0  0  0  0
    2.4159    1.5691   -0.0000 C   0  0  0  0  0  0  0  0  0  0  0  0
   -5.6786   -2.7895   -0.0000 C   0  0  0  0  0  0  0  0  0  0  0  0
    5.5665    1.6313   -0.0000 C   0  0  0  0  0  0  0  0  0  0  0  0
    3.1755    2.9638   -0.0000 C   0  0  0  0  0  0  0  0  0  0  0  0
   -6.7869   -2.1419   -0.0000 F   0  0  0  0  0  0  0  0  0  0  0  0
   -5.7035   -4.0472   -0.0000 F   0  0  0  0  0  0  0  0  0  0  0  0
   -6.7869   -3.3997   -0.0000 F   0  0  0  0  0  0  0  0  0  0  0  0
    4.7446    3.0012   -0.0000 C   0  0  0  0  0  0  0  0  0  0  0  0
  1  2  1  0  0  0  0
  1  3  1  0  0  0  0
  2  4  2  0  0  0  0
  2  5  1  0  0  0  0
  3  6  2  0  0  0  0
  3  7  1  0  0  0  0
  4  8  1  0  0  0  0
  4  9  1  0  0  0  0
  5 10  2  0  0  0  0
  6 11  1  0  0  0  0
  7 12  2  0  0  0  0
  7 13  1  0  0  0  0
  8 14  2  0  0  0  0
  8 15  1  0  0  0  0
  9 16  2  0  0  0  0
 13 17  1  0  0  0  0
 13 18  1  0  0  0  0
 16 19  1  0  0  0  0
 17 20  1  0  0  0  0
 18 21  1  0  0  0  0
 19 22  1  0  0  0  0
 19 23  1  0  0  0  0
 19 24  1  0  0  0  0
 20 25  1  0  0  0  0
  5  6  1  0  0  0  0
 10 16  1  0  0  0  0
 21 25  1  0  0  0  0
M  CHG  4   6   1   8   1  11  -1  15  -1
M  END
>  <MolRegNo>
2053378

>  <m>
=

>  <Value>
3910

>  <Unit>
nM

>  <Type>
IC50

>  <pValue>
5.41

>  <Ligand Efficiency>
0

>  <Binding Efficiency>
0

>  <Surface Efficiency>
0

>  <Assay Index>
979522

>  <Assay Category>


>  <Assay Organism>
Homo sapiens

>  <Target ID>
17045

>  <Target Name>
Cytochrome P450 3A4

>  <Target Organism>
Homo sapiens

>  <Target Description>
Target is a single protein chain

>  <Sequence Accession>
P08684

>  <Reference>
Bioorg Med Chem 23 (24), 7694-7710 (2015)

>  <Pubmed ID>
26643218

>  <DOI>
10.1016/j.bmc.2015.11.017

$$$$
2053383
Actelion Java MolfileCreator 1.0

 28 30  0  0  0  0  0  0  0  0999 V2000
    0.0000   -0.0000   -0.0000 S   0  0  0  0  0  0  0  0  0  0  0  0
   -1.4937    0.4938   -0.0000 C   0  0  0  0  0  0  0  0  0  0  0  0
    0.9012    1.2839   -0.0000 C   0  0  0  0  0  0  0  0  0  0  0  0
   -2.8640   -0.2963   -0.0000 C   0  0  0  0  0  0  0  0  0  0  0  0
   -1.5061    2.0739   -0.0000 C   0  0  0  0  0  0  0  0  0  0  0  0
   -0.0247    2.5307   -0.0000 N   0  0  0  0  0  0  0  0  0  0  0  0
    2.4566    1.3209   -0.0000 C   0  0  0  0  0  0  0  0  0  0  0  0
   -2.8764   -1.8517   -0.0000 N   0  0  0  0  0  0  0  0  0  0  0  0
   -4.2466    0.5185   -0.0000 C   0  0  0  0  0  0  0  0  0  0  0  0
   -2.8764    2.8887   -0.0000 C   0  0  0  0  0  0  0  0  0  0  0  0
    3.0862    0.2592   -0.0000 O   0  0  0  0  0  0  0  0  0  0  0  0
    3.2097    2.7035   -0.0000 N   0  0  0  0  0  0  0  0  0  0  0  0
   -3.9751   -2.4690   -0.0000 O   0  0  0  0  0  0  0  0  0  0  0  0
   -1.8024   -2.4566   -0.0000 O   0  0  0  0  0  0  0  0  0  0  0  0
   -4.2590    2.0986   -0.0000 C   0  0  0  0  0  0  0  0  0  0  0  0
    4.7651    2.7406   -0.0000 C   0  0  0  0  0  0  0  0  0  0  0  0
    2.3949    4.0615   -0.0000 C   0  0  0  0  0  0  0  0  0  0  0  0
   -5.6293    2.8887   -0.0000 C   0  0  0  0  0  0  0  0  0  0  0  0
    5.5182    4.1232   -0.0000 C   0  0  0  0  0  0  0  0  0  0  0  0
    3.1479    5.4441   -0.0000 C   0  0  0  0  0  0  0  0  0  0  0  0
   -6.7280    3.5183   -0.0000 F   0  0  0  0  0  0  0  0  0  0  0  0
   -6.7280    2.2715   -0.0000 F   0  0  0  0  0  0  0  0  0  0  0  0
   -5.6540    4.1602   -0.0000 F   0  0  0  0  0  0  0  0  0  0  0  0
    4.7034    5.4811   -0.0000 N   0  0  0  0  0  0  0  0  0  0  0  0
    5.4564    6.8638   -0.0000 C   0  0  0  0  0  0  0  0  0  0  0  0
    4.6417    8.2217   -0.0000 C   0  0  0  0  0  0  0  0  0  0  0  0
    5.3947    9.6043   -0.0000 O   0  0  0  0  0  0  0  0  0  0  0  0
    4.7404   10.6907   -0.0000 C   0  0  0  0  0  0  0  0  0  0  0  0
  1  2  1  0  0  0  0
  1  3  1  0  0  0  0
  2  4  2  0  0  0  0
  2  5  1  0  0  0  0
  3  6  2  0  0  0  0
  3  7  1  0  0  0  0
  4  8  1  0  0  0  0
  4  9  1  0  0  0  0
  5 10  2  0  0  0  0
  7 11  2  0  0  0  0
  7 12  1  0  0  0  0
  8 13  2  0  0  0  0
  8 14  1  0  0  0  0
  9 15  2  0  0  0  0
 12 16  1  0  0  0  0
 12 17  1  0  0  0  0
 15 18  1  0  0  0  0
 16 19  1  0  0  0  0
 17 20  1  0  0  0  0
 18 21  1  0  0  0  0
 18 22  1  0  0  0  0
 18 23  1  0  0  0  0
 19 24  1  0  0  0  0
 24 25  1  0  0  0  0
 25 26  1  0  0  0  0
 26 27  1  0  0  0  0
 27 28  1  0  0  0  0
  5  6  1  0  0  0  0
 10 15  1  0  0  0  0
 20 24  1  0  0  0  0
M  CHG  2   8   1  14  -1
M  END
>  <MolRegNo>
2053383

>  <m>
=

>  <Value>
19500

>  <Unit>
nM

>  <Type>
IC50

>  <pValue>
4.71

>  <Ligand Efficiency>
0

>  <Binding Efficiency>
0

>  <Surface Efficiency>
0

>  <Assay Index>
979522

>  <Assay Category>


>  <Assay Organism>
Homo sapiens

>  <Target ID>
17045

>  <Target Name>
Cytochrome P450 3A4

>  <Target Organism>
Homo sapiens

>  <Target Description>
Target is a single protein chain

>  <Sequence Accession>
P08684

>  <Reference>
Bioorg Med Chem 23 (24), 7694-7710 (2015)

>  <Pubmed ID>
26643218

>  <DOI>
10.1016/j.bmc.2015.11.017

$$$$
2053387
Actelion Java MolfileCreator 1.0

 29 31  0  0  0  0  0  0  0  0999 V2000
    0.0000   -0.0000   -0.0000 S   0  0  0  0  0  0  0  0  0  0  0  0
   -1.5104   -0.4743   -0.0000 C   0  0  0  0  0  0  0  0  0  0  0  0
    0.9112   -1.2358   -0.0000 C   0  0  0  0  0  0  0  0  0  0  0  0
   -2.8959    0.3495   -0.0000 C   0  0  0  0  0  0  0  0  0  0  0  0
   -1.5229   -2.0471   -0.0000 C   0  0  0  0  0  0  0  0  0  0  0  0
   -0.0250   -2.5090   -0.0000 N   0  0  0  0  0  0  0  0  0  0  0  0
    2.4840   -1.2108   -0.0000 C   0  0  0  0  0  0  0  0  0  0  0  0
   -2.9084    1.9473   -0.0000 N   0  0  0  0  0  0  0  0  0  0  0  0
   -4.2940   -0.4494   -0.0000 C   0  0  0  0  0  0  0  0  0  0  0  0
   -2.9084   -2.8460   -0.0000 C   0  0  0  0  0  0  0  0  0  0  0  0
    3.0957   -0.0999   -0.0000 O   0  0  0  0  0  0  0  0  0  0  0  0
    3.2829   -2.5589   -0.0000 N   0  0  0  0  0  0  0  0  0  0  0  0
   -4.0194    2.5964   -0.0000 O   0  0  0  0  0  0  0  0  0  0  0  0
   -1.8224    2.5839   -0.0000 O   0  0  0  0  0  0  0  0  0  0  0  0
   -4.3065   -2.0222   -0.0000 C   0  0  0  0  0  0  0  0  0  0  0  0
   -5.4049    0.1997   -0.0000 C   0  0  0  0  0  0  0  0  0  0  0  0
    4.8557   -2.5339   -0.0000 C   0  0  0  0  0  0  0  0  0  0  0  0
    2.4840   -3.9195   -0.0000 C   0  0  0  0  0  0  0  0  0  0  0  0
   -5.6920   -2.7961   -0.0000 C   0  0  0  0  0  0  0  0  0  0  0  0
    5.6421   -3.8821   -0.0000 C   0  0  0  0  0  0  0  0  0  0  0  0
    3.2704   -5.2676   -0.0000 C   0  0  0  0  0  0  0  0  0  0  0  0
   -6.8030   -2.1470   -0.0000 F   0  0  0  0  0  0  0  0  0  0  0  0
   -5.7170   -4.0568   -0.0000 F   0  0  0  0  0  0  0  0  0  0  0  0
   -6.8030   -3.4077   -0.0000 F   0  0  0  0  0  0  0  0  0  0  0  0
    4.8432   -5.2427   -0.0000 N   0  0  0  0  0  0  0  0  0  0  0  0
    5.6296   -6.6032   -0.0000 C   0  0  0  0  0  0  0  0  0  0  0  0
    4.8307   -7.9638   -0.0000 C   0  0  0  0  0  0  0  0  0  0  0  0
    5.6171   -9.3244   -0.0000 O   0  0  0  0  0  0  0  0  0  0  0  0
    4.9805  -10.4104   -0.0000 C   0  0  0  0  0  0  0  0  0  0  0  0
  1  2  1  0  0  0  0
  1  3  1  0  0  0  0
  2  4  2  0  0  0  0
  2  5  1  0  0  0  0
  3  6  2  0  0  0  0
  3  7  1  0  0  0  0
  4  8  1  0  0  0  0
  4  9  1  0  0  0  0
  5 10  2  0  0  0  0
  7 11  2  0  0  0  0
  7 12  1  0  0  0  0
  8 13  2  0  0  0  0
  8 14  1  0  0  0  0
  9 15  2  0  0  0  0
  9 16  1  0  0  0  0
 12 17  1  0  0  0  0
 12 18  1  0  0  0  0
 15 19  1  0  0  0  0
 17 20  1  0  0  0  0
 18 21  1  0  0  0  0
 19 22  1  0  0  0  0
 19 23  1  0  0  0  0
 19 24  1  0  0  0  0
 20 25  1  0  0  0  0
 25 26  1  0  0  0  0
 26 27  1  0  0  0  0
 27 28  1  0  0  0  0
 28 29  1  0  0  0  0
  5  6  1  0  0  0  0
 10 15  1  0  0  0  0
 21 25  1  0  0  0  0
M  CHG  2   8   1  14  -1
M  END
>  <MolRegNo>
2053387

>  <m>
=

>  <Value>
95000

>  <Unit>
nM

>  <Type>
IC50

>  <pValue>
4.02

>  <Ligand Efficiency>
0

>  <Binding Efficiency>
0

>  <Surface Efficiency>
0

>  <Assay Index>
979522

>  <Assay Category>


>  <Assay Organism>
Homo sapiens

>  <Target ID>
17045

>  <Target Name>
Cytochrome P450 3A4

>  <Target Organism>
Homo sapiens

>  <Target Description>
Target is a single protein chain

>  <Sequence Accession>
P08684

>  <Reference>
Bioorg Med Chem 23 (24), 7694-7710 (2015)

>  <Pubmed ID>
26643218

>  <DOI>
10.1016/j.bmc.2015.11.017

$$$$
2053398
Actelion Java MolfileCreator 1.0

 28 31  0  0  0  0  0  0  0  0999 V2000
    0.0000   -0.0000   -0.0000 S   0  0  0  0  0  0  0  0  0  0  0  0
    0.8995   -1.2198   -0.0000 C   0  0  0  0  0  0  0  0  0  0  0  0
   -1.4909   -0.4682   -0.0000 C   0  0  0  0  0  0  0  0  0  0  0  0
   -0.0246   -2.4767   -0.0000 N   0  0  0  0  0  0  0  0  0  0  0  0
    2.4520   -1.1952   -0.0000 C   0  0  0  0  0  0  0  0  0  0  0  0
   -2.8586    0.3450   -0.0000 C   0  0  0  0  0  0  0  0  0  0  0  0
   -1.5032   -2.0208   -0.0000 C   0  0  0  0  0  0  0  0  0  0  0  0
    3.2283    0.1602   -0.0000 O   0  0  0  0  0  0  0  0  0  0  0  0
    3.4377   -2.3658   -0.0000 N   0  0  0  0  0  0  0  0  0  0  0  0
   -2.8710    1.9222   -0.0000 N   0  0  0  0  0  0  0  0  0  0  0  0
   -4.2387   -0.4436   -0.0000 C   0  0  0  0  0  0  0  0  0  0  0  0
   -2.8710   -2.8093   -0.0000 C   0  0  0  0  0  0  0  0  0  0  0  0
    4.7438   -0.1848   -0.0000 C   0  0  0  0  0  0  0  0  0  0  0  0
    4.8671   -1.7497   -0.0000 C   0  0  0  0  0  0  0  0  0  0  0  0
   -3.9676    2.5629   -0.0000 O   0  0  0  0  0  0  0  0  0  0  0  0
   -1.7990    2.5506   -0.0000 O   0  0  0  0  0  0  0  0  0  0  0  0
   -4.2510   -1.9961   -0.0000 C   0  0  0  0  0  0  0  0  0  0  0  0
    6.1978   -2.5383   -0.0000 C   0  0  0  0  0  0  0  0  0  0  0  0
   -5.6187   -2.7601   -0.0000 C   0  0  0  0  0  0  0  0  0  0  0  0
    6.1608   -3.7828   -0.0000 O   0  0  0  0  0  0  0  0  0  0  0  0
    7.5532   -1.7743   -0.0000 N   0  0  0  0  0  0  0  0  0  0  0  0
   -6.7153   -2.1193   -0.0000 F   0  0  0  0  0  0  0  0  0  0  0  0
   -5.6433   -4.0045   -0.0000 F   0  0  0  0  0  0  0  0  0  0  0  0
   -6.7153   -3.3638   -0.0000 F   0  0  0  0  0  0  0  0  0  0  0  0
    8.9332   -2.4274   -0.0000 C   0  0  0  0  0  0  0  0  0  0  0  0
    7.7134   -0.2218   -0.0000 C   0  0  0  0  0  0  0  0  0  0  0  0
    9.9806   -1.2691   -0.0000 C   0  0  0  0  0  0  0  0  0  0  0  0
    9.2413    0.0863   -0.0000 C   0  0  0  0  0  0  0  0  0  0  0  0
  1  2  1  0  0  0  0
  1  3  1  0  0  0  0
  2  4  2  0  0  0  0
  2  5  1  0  0  0  0
  3  6  2  0  0  0  0
  3  7  1  0  0  0  0
  5  8  1  0  0  0  0
  5  9  2  0  0  0  0
  6 10  1  0  0  0  0
  6 11  1  0  0  0  0
  7 12  2  0  0  0  0
  8 13  1  0  0  0  0
  9 14  1  0  0  0  0
 10 15  2  0  0  0  0
 10 16  1  0  0  0  0
 11 17  2  0  0  0  0
 14 18  1  1  0  0  0
 17 19  1  0  0  0  0
 18 20  2  0  0  0  0
 18 21  1  0  0  0  0
 19 22  1  0  0  0  0
 19 23  1  0  0  0  0
 19 24  1  0  0  0  0
 21 25  1  0  0  0  0
 21 26  1  0  0  0  0
 25 27  1  0  0  0  0
 26 28  1  0  0  0  0
  4  7  1  0  0  0  0
 12 17  1  0  0  0  0
 13 14  1  0  0  0  0
 27 28  1  0  0  0  0
M  CHG  2  10   1  16  -1
M  END
>  <MolRegNo>
2053398

>  <m>
=

>  <Value>
18600

>  <Unit>
nM

>  <Type>
IC50

>  <pValue>
4.73

>  <Ligand Efficiency>
0

>  <Binding Efficiency>
0

>  <Surface Efficiency>
0

>  <Assay Index>
979522

>  <Assay Category>


>  <Assay Organism>
Homo sapiens

>  <Target ID>
17045

>  <Target Name>
Cytochrome P450 3A4

>  <Target Organism>
Homo sapiens

>  <Target Description>
Target is a single protein chain

>  <Sequence Accession>
P08684

>  <Reference>
Bioorg Med Chem 23 (24), 7694-7710 (2015)

>  <Pubmed ID>
26643218

>  <DOI>
10.1016/j.bmc.2015.11.017

$$$$
1998905
Actelion Java MolfileCreator 1.0

 27 30  0  0  1  0  0  0  0  0999 V2000
    0.0000   -0.0000   -0.0000 Cl  0  0  0  0  0  0  0  0  0  0  0  0
   -1.0763   -0.6047   -0.0000 C   0  0  0  0  0  0  0  0  0  0  0  0
   -2.4187    0.1693   -0.0000 N   0  0  0  0  0  0  0  0  0  0  0  0
   -1.0884   -2.1285   -0.0000 C   0  0  0  0  0  0  0  0  0  0  0  0
   -3.7611   -0.5805   -0.0000 C   0  0  0  0  0  0  0  0  0  0  0  0
   -2.4308   -2.8783   -0.0000 C   0  0  0  0  0  0  0  0  0  0  0  0
   -0.0363   -2.7332   -0.0000 C   0  0  0  0  0  0  0  0  0  0  0  0
   -5.1035    0.1935   -0.0000 O   0  0  0  0  0  0  0  0  0  0  0  0
   -3.7732   -2.1043   -0.0000 N   0  0  0  0  0  0  0  0  0  0  0  0
   -2.4429   -4.4021   -0.0000 N   0  0  0  0  0  0  0  0  0  0  0  0
   -6.4459   -0.5684   -0.0000 C   0  0  0  0  0  0  0  0  0  0  0  0
   -3.7853   -5.1519   -0.0000 C   0  0  0  0  0  0  0  0  0  0  0  0
   -7.7883    0.2056   -0.0000 C   0  0  0  0  0  0  0  0  0  0  0  0
   -3.7974   -6.6757   -0.0000 C   0  0  0  0  0  0  0  0  0  0  0  0
   -9.2517    0.1693   -0.0000 C   0  0  0  0  0  0  0  0  0  0  0  0
   -8.4898    1.4996   -0.0000 C   0  0  0  0  0  0  0  0  0  0  0  0
   -5.0552   -7.5465   -0.0000 C   0  0  0  0  0  0  0  0  0  0  0  0
   -2.5639   -7.5465   -0.0000 C   0  0  0  0  0  0  0  0  0  0  0  0
  -10.5820   -0.6047   -0.0000 C   0  0  0  0  0  0  0  0  0  0  0  0
   -4.5956   -8.9977   -0.0000 N   0  0  0  0  0  0  0  0  0  0  0  0
   -3.0476   -8.9977   -0.0000 N   0  0  0  0  0  0  0  0  0  0  0  0
  -11.5616    0.6168   -0.0000 N   0  0  0  0  0  0  0  0  0  0  0  0
  -11.1262   -2.0076   -0.0000 C   0  0  0  0  0  0  0  0  0  0  0  0
   -2.3341   -9.9773   -0.0000 C   0  0  0  0  0  0  0  0  0  0  0  0
  -13.0854    0.3749   -0.0000 C   0  0  0  0  0  0  0  0  0  0  0  0
  -12.6500   -2.2494   -0.0000 C   0  0  0  0  0  0  0  0  0  0  0  0
  -13.6417   -1.0522   -0.0000 C   0  0  0  0  0  0  0  0  0  0  0  0
  1  2  1  0  0  0  0
  2  3  2  0  0  0  0
  2  4  1  0  0  0  0
  3  5  1  0  0  0  0
  4  6  2  0  0  0  0
  4  7  1  0  0  0  0
  5  8  1  0  0  0  0
  5  9  2  0  0  0  0
  6 10  1  0  0  0  0
  8 11  1  0  0  0  0
 10 12  1  0  0  0  0
 13 11  1  6  0  0  0
 12 14  1  0  0  0  0
 13 15  1  0  0  0  0
 13 16  1  0  0  0  0
 14 17  1  0  0  0  0
 14 18  2  0  0  0  0
 15 19  1  1  0  0  0
 17 20  2  0  0  0  0
 18 21  1  0  0  0  0
 19 22  2  0  0  0  0
 19 23  1  0  0  0  0
 21 24  1  0  0  0  0
 22 25  1  0  0  0  0
 23 26  2  0  0  0  0
 25 27  2  0  0  0  0
  6  9  1  0  0  0  0
 15 16  1  0  0  0  0
 20 21  1  0  0  0  0
 26 27  1  0  0  0  0
M  END
>  <MolRegNo>
1998905

>  <m>
=

>  <Value>
3800

>  <Unit>
nM

>  <Type>
IC50

>  <pValue>
5.42

>  <Ligand Efficiency>
0

>  <Binding Efficiency>
0

>  <Surface Efficiency>
0

>  <Assay Index>
982344

>  <Assay Category>


>  <Assay Organism>
Homo sapiens

>  <Target ID>
17045

>  <Target Name>
Cytochrome P450 3A4

>  <Target Organism>
Homo sapiens

>  <Target Description>
Target is a single protein chain

>  <Sequence Accession>
P08684

>  <Reference>
Bioorg Med Chem Lett 26 (1), 126-132 (2016)

>  <Pubmed ID>
26602277

>  <DOI>
10.1016/j.bmcl.2015.11.013

$$$$
1966565
Actelion Java MolfileCreator 1.0

 20 22  0  0  0  0  0  0  0  0999 V2000
    0.0000   -0.0000   -0.0000 Cl  0  0  0  0  0  0  0  0  0  0  0  0
   -1.0932    0.6387   -0.0000 C   0  0  0  0  0  0  0  0  0  0  0  0
   -1.1054    2.2109   -0.0000 N   0  0  0  0  0  0  0  0  0  0  0  0
   -2.4565   -0.1228   -0.0000 C   0  0  0  0  0  0  0  0  0  0  0  0
   -2.4688    2.9970   -0.0000 C   0  0  0  0  0  0  0  0  0  0  0  0
   -3.8199    0.6633   -0.0000 C   0  0  0  0  0  0  0  0  0  0  0  0
   -2.4688   -1.3634   -0.0000 C   0  0  0  0  0  0  0  0  0  0  0  0
   -3.8322    2.2354   -0.0000 N   0  0  0  0  0  0  0  0  0  0  0  0
   -2.4811    4.5691   -0.0000 C   0  0  0  0  0  0  0  0  0  0  0  0
   -5.1833   -0.0983   -0.0000 N   0  0  0  0  0  0  0  0  0  0  0  0
   -1.7196    5.8342   -0.0000 C   0  0  0  0  0  0  0  0  0  0  0  0
   -3.2795    5.8342   -0.0000 C   0  0  0  0  0  0  0  0  0  0  0  0
   -6.5466    0.7001   -0.0000 C   0  0  0  0  0  0  0  0  0  0  0  0
   -7.9100   -0.0614   -0.0000 C   0  0  0  0  0  0  0  0  0  0  0  0
   -8.0697   -1.5845   -0.0000 S   0  0  0  0  0  0  0  0  0  0  0  0
   -9.3225    0.6018   -0.0000 C   0  0  0  0  0  0  0  0  0  0  0  0
   -9.6050   -1.8915   -0.0000 C   0  0  0  0  0  0  0  0  0  0  0  0
  -10.3788   -0.5404   -0.0000 N   0  0  0  0  0  0  0  0  0  0  0  0
   -9.5927    1.8301   -0.0000 C   0  0  0  0  0  0  0  0  0  0  0  0
  -10.1209   -3.0215   -0.0000 C   0  0  0  0  0  0  0  0  0  0  0  0
  1  2  1  0  0  0  0
  2  3  2  0  0  0  0
  2  4  1  0  0  0  0
  3  5  1  0  0  0  0
  4  6  2  0  0  0  0
  4  7  1  0  0  0  0
  5  8  2  0  0  0  0
  5  9  1  0  0  0  0
  6 10  1  0  0  0  0
  9 11  1  0  0  0  0
  9 12  1  0  0  0  0
 10 13  1  0  0  0  0
 13 14  1  0  0  0  0
 14 15  1  0  0  0  0
 14 16  2  0  0  0  0
 15 17  1  0  0  0  0
 16 18  1  0  0  0  0
 16 19  1  0  0  0  0
 17 20  1  0  0  0  0
  6  8  1  0  0  0  0
 11 12  1  0  0  0  0
 17 18  2  0  0  0  0
M  END
>  <MolRegNo>
1966565

>  <m>
=

>  <Value>
17000

>  <Unit>
nM

>  <Type>
IC50

>  <pValue>
4.77

>  <Ligand Efficiency>
0

>  <Binding Efficiency>
0

>  <Surface Efficiency>
0

>  <Assay Index>
982344

>  <Assay Category>


>  <Assay Organism>
Homo sapiens

>  <Target ID>
17045

>  <Target Name>
Cytochrome P450 3A4

>  <Target Organism>
Homo sapiens

>  <Target Description>
Target is a single protein chain

>  <Sequence Accession>
P08684

>  <Reference>
Bioorg Med Chem Lett 26 (1), 126-132 (2016)

>  <Pubmed ID>
26602277

>  <DOI>
10.1016/j.bmcl.2015.11.013

$$$$
1966584
Actelion Java MolfileCreator 1.0

 31 34  0  0  0  0  0  0  0  0999 V2000
    0.0000   -0.0000   -0.0000 Cl  0  0  0  0  0  0  0  0  0  0  0  0
   -1.0742   -0.6035   -0.0000 C   0  0  0  0  0  0  0  0  0  0  0  0
   -2.4139    0.1690   -0.0000 N   0  0  0  0  0  0  0  0  0  0  0  0
   -1.0863   -2.1242   -0.0000 C   0  0  0  0  0  0  0  0  0  0  0  0
   -3.7536   -0.5793   -0.0000 C   0  0  0  0  0  0  0  0  0  0  0  0
   -2.4260   -2.8726   -0.0000 C   0  0  0  0  0  0  0  0  0  0  0  0
   -0.0362   -2.7277   -0.0000 C   0  0  0  0  0  0  0  0  0  0  0  0
   -5.0934    0.2052   -0.0000 O   0  0  0  0  0  0  0  0  0  0  0  0
   -3.7657   -2.1001   -0.0000 N   0  0  0  0  0  0  0  0  0  0  0  0
   -2.4381   -4.3933   -0.0000 N   0  0  0  0  0  0  0  0  0  0  0  0
   -5.1054    1.7501   -0.0000 C   0  0  0  0  0  0  0  0  0  0  0  0
   -3.7778   -5.1416   -0.0000 C   0  0  0  0  0  0  0  0  0  0  0  0
   -6.4452    2.5346   -0.0000 C   0  0  0  0  0  0  0  0  0  0  0  0
   -3.7898   -6.6624   -0.0000 C   0  0  0  0  0  0  0  0  0  0  0  0
   -6.4572    4.0795   -0.0000 C   0  0  0  0  0  0  0  0  0  0  0  0
   -2.5588   -7.5314   -0.0000 S   0  0  0  0  0  0  0  0  0  0  0  0
   -5.0451   -7.5314   -0.0000 C   0  0  0  0  0  0  0  0  0  0  0  0
   -7.7970    4.8640   -0.0000 C   0  0  0  0  0  0  0  0  0  0  0  0
   -3.0415   -8.9798   -0.0000 C   0  0  0  0  0  0  0  0  0  0  0  0
   -4.5864   -8.9798   -0.0000 N   0  0  0  0  0  0  0  0  0  0  0  0
   -6.2158   -7.1331   -0.0000 C   0  0  0  0  0  0  0  0  0  0  0  0
   -9.1367    4.1157   -0.0000 N   0  0  0  0  0  0  0  0  0  0  0  0
   -7.8090    6.4089   -0.0000 C   0  0  0  0  0  0  0  0  0  0  0  0
   -2.3294   -9.9574   -0.0000 C   0  0  0  0  0  0  0  0  0  0  0  0
  -10.4764    4.8882   -0.0000 C   0  0  0  0  0  0  0  0  0  0  0  0
   -9.1487    7.1814   -0.0000 C   0  0  0  0  0  0  0  0  0  0  0  0
  -10.4885    6.4331   -0.0000 C   0  0  0  0  0  0  0  0  0  0  0  0
  -11.8161    4.1399   -0.0000 C   0  0  0  0  0  0  0  0  0  0  0  0
  -11.8282    7.2055   -0.0000 C   0  0  0  0  0  0  0  0  0  0  0  0
  -13.1558    4.9123   -0.0000 C   0  0  0  0  0  0  0  0  0  0  0  0
  -13.1679    6.4572   -0.0000 C   0  0  0  0  0  0  0  0  0  0  0  0
  1  2  1  0  0  0  0
  2  3  2  0  0  0  0
  2  4  1  0  0  0  0
  3  5  1  0  0  0  0
  4  6  2  0  0  0  0
  4  7  1  0  0  0  0
  5  8  1  0  0  0  0
  5  9  2  0  0  0  0
  6 10  1  0  0  0  0
  8 11  1  0  0  0  0
 10 12  1  0  0  0  0
 11 13  1  0  0  0  0
 12 14  1  0  0  0  0
 13 15  1  0  0  0  0
 14 16  1  0  0  0  0
 14 17  2  0  0  0  0
 15 18  1  0  0  0  0
 16 19  1  0  0  0  0
 17 20  1  0  0  0  0
 17 21  1  0  0  0  0
 18 22  2  0  0  0  0
 18 23  1  0  0  0  0
 19 24  1  0  0  0  0
 22 25  1  0  0  0  0
 23 26  2  0  0  0  0
 25 27  1  0  0  0  0
 25 28  2  0  0  0  0
 27 29  2  0  0  0  0
 28 30  1  0  0  0  0
 29 31  1  0  0  0  0
  6  9  1  0  0  0  0
 19 20  2  0  0  0  0
 26 27  1  0  0  0  0
 30 31  2  0  0  0  0
M  END
>  <MolRegNo>
1966584

>  <m>
=

>  <Value>
900

>  <Unit>
nM

>  <Type>
IC50

>  <pValue>
6.05

>  <Ligand Efficiency>
0

>  <Binding Efficiency>
0

>  <Surface Efficiency>
0

>  <Assay Index>
982344

>  <Assay Category>


>  <Assay Organism>
Homo sapiens

>  <Target ID>
17045

>  <Target Name>
Cytochrome P450 3A4

>  <Target Organism>
Homo sapiens

>  <Target Description>
Target is a single protein chain

>  <Sequence Accession>
P08684

>  <Reference>
Bioorg Med Chem Lett 26 (1), 126-132 (2016)

>  <Pubmed ID>
26602277

>  <DOI>
10.1016/j.bmcl.2015.11.013

$$$$
180891
Actelion Java MolfileCreator 1.0

 43 47  0  0  0  0  0  0  0  0999 V2000
    0.0000   -0.0000   -0.0000 S   0  0  0  0  0  0  0  0  0  0  0  0
    1.2786    0.7695   -0.0000 O   0  0  0  0  0  0  0  0  0  0  0  0
    1.2904   -0.7222   -0.0000 O   0  0  0  0  0  0  0  0  0  0  0  0
   -0.0237    1.5035   -0.0000 N   0  0  0  0  0  0  0  0  0  0  0  0
   -1.3023   -0.7458   -0.0000 C   0  0  0  0  0  0  0  0  0  0  0  0
   -1.3378    2.2612   -0.0000 C   0  0  0  0  0  0  0  0  0  0  0  0
   -2.6045    0.0118   -0.0000 C   0  0  0  0  0  0  0  0  0  0  0  0
   -1.2904   -2.2257   -0.0000 C   0  0  0  0  0  0  0  0  0  0  0  0
   -2.6400    1.5272   -0.0000 C   0  0  0  0  0  0  0  0  0  0  0  0
   -1.3615    3.7766   -0.0000 C   0  0  0  0  0  0  0  0  0  0  0  0
   -3.9068   -0.7340   -0.0000 C   0  0  0  0  0  0  0  0  0  0  0  0
   -2.5808   -2.9715   -0.0000 C   0  0  0  0  0  0  0  0  0  0  0  0
   -3.9423    2.2849   -0.0000 C   0  0  0  0  0  0  0  0  0  0  0  0
   -2.6637    4.5224   -0.0000 C   0  0  0  0  0  0  0  0  0  0  0  0
   -3.9068   -2.2138   -0.0000 C   0  0  0  0  0  0  0  0  0  0  0  0
   -3.9541    3.7884   -0.0000 C   0  0  0  0  0  0  0  0  0  0  0  0
   -5.2091   -2.9597   -0.0000 C   0  0  0  0  0  0  0  0  0  0  0  0
   -5.2564    4.5461   -0.0000 C   0  0  0  0  0  0  0  0  0  0  0  0
   -5.3630   -4.4395   -0.0000 S   0  0  0  0  0  0  0  0  0  0  0  0
   -6.5942   -2.3441   -0.0000 N   0  0  0  0  0  0  0  0  0  0  0  0
   -6.5587    3.8121   -0.0000 C   0  0  0  0  0  0  0  0  0  0  0  0
   -6.8310   -4.7473   -0.0000 C   0  0  0  0  0  0  0  0  0  0  0  0
   -7.6005   -3.4451   -0.0000 C   0  0  0  0  0  0  0  0  0  0  0  0
   -7.8609    4.5698   -0.0000 N   0  0  0  0  0  0  0  0  0  0  0  0
   -9.0922   -3.4569   -0.0000 C   0  0  0  0  0  0  0  0  0  0  0  0
   -9.1632    3.8358   -0.0000 C   0  0  0  0  0  0  0  0  0  0  0  0
   -9.8735   -2.1665   -0.0000 C   0  0  0  0  0  0  0  0  0  0  0  0
   -9.8262   -4.7473   -0.0000 C   0  0  0  0  0  0  0  0  0  0  0  0
  -10.4655    4.5934   -0.0000 C   0  0  0  0  0  0  0  0  0  0  0  0
  -11.3770   -2.1783   -0.0000 C   0  0  0  0  0  0  0  0  0  0  0  0
  -11.3297   -4.7710   -0.0000 C   0  0  0  0  0  0  0  0  0  0  0  0
  -10.4773    6.0970   -0.0000 O   0  0  0  0  0  0  0  0  0  0  0  0
  -11.7677    3.8594   -0.0000 C   0  0  0  0  0  0  0  0  0  0  0  0
  -12.1110   -3.4688   -0.0000 C   0  0  0  0  0  0  0  0  0  0  0  0
  -11.7796    2.3678   -0.0000 C   0  0  0  0  0  0  0  0  0  0  0  0
  -13.0700    4.6171   -0.0000 C   0  0  0  0  0  0  0  0  0  0  0  0
  -13.6146   -3.4806   -0.0000 C   0  0  0  0  0  0  0  0  0  0  0  0
  -13.0937    1.6337   -0.0000 N   0  0  0  0  0  0  0  0  0  0  0  0
  -14.3722    3.8831   -0.0000 C   0  0  0  0  0  0  0  0  0  0  0  0
  -14.3959   -2.1902   -0.0000 F   0  0  0  0  0  0  0  0  0  0  0  0
  -14.3486   -4.7710   -0.0000 F   0  0  0  0  0  0  0  0  0  0  0  0
  -15.1181   -3.6345   -0.0000 F   0  0  0  0  0  0  0  0  0  0  0  0
  -14.3959    2.3914   -0.0000 C   0  0  0  0  0  0  0  0  0  0  0  0
  1  2  2  0  0  0  0
  1  3  2  0  0  0  0
  1  4  1  0  0  0  0
  1  5  1  0  0  0  0
  4  6  1  0  0  0  0
  5  7  2  0  0  0  0
  5  8  1  0  0  0  0
  6  9  2  0  0  0  0
  6 10  1  0  0  0  0
  7 11  1  0  0  0  0
  8 12  2  0  0  0  0
  9 13  1  0  0  0  0
 10 14  2  0  0  0  0
 11 15  2  0  0  0  0
 13 16  2  0  0  0  0
 15 17  1  0  0  0  0
 16 18  1  0  0  0  0
 17 19  1  0  0  0  0
 17 20  2  0  0  0  0
 18 21  1  0  0  0  0
 19 22  1  0  0  0  0
 20 23  1  0  0  0  0
 21 24  1  0  0  0  0
 23 25  1  0  0  0  0
 24 26  1  0  0  0  0
 25 27  2  0  0  0  0
 25 28  1  0  0  0  0
 26 29  1  0  0  0  0
 27 30  1  0  0  0  0
 28 31  2  0  0  0  0
 29 32  1  1  0  0  0
 29 33  1  0  0  0  0
 30 34  2  0  0  0  0
 33 35  2  0  0  0  0
 33 36  1  0  0  0  0
 34 37  1  0  0  0  0
 35 38  1  0  0  0  0
 36 39  2  0  0  0  0
 37 40  1  0  0  0  0
 37 41  1  0  0  0  0
 37 42  1  0  0  0  0
 38 43  2  0  0  0  0
 12 15  1  0  0  0  0
 14 16  1  0  0  0  0
 22 23  2  0  0  0  0
 31 34  1  0  0  0  0
 39 43  1  0  0  0  0
M  END
>  <MolRegNo>
180891

>  <m>
=

>  <Value>
9300

>  <Unit>
nM

>  <Type>
IC50

>  <pValue>
5.03

>  <Ligand Efficiency>
0

>  <Binding Efficiency>
0

>  <Surface Efficiency>
0

>  <Assay Index>
992700

>  <Assay Category>


>  <Assay Organism>
Homo sapiens

>  <Target ID>
17045

>  <Target Name>
Cytochrome P450 3A4

>  <Target Organism>
Homo sapiens

>  <Target Description>
Target is a single protein chain

>  <Sequence Accession>
P08684

>  <Reference>
J Med Chem 59 (2), 609-623 (2016)

>  <Pubmed ID>
26709102

>  <DOI>
10.1021/acs.jmedchem.5b01372

$$$$
2068913
Actelion Java MolfileCreator 1.0

 35 39  0  0  0  0  0  0  0  0999 V2000
    0.0000   -0.0000   -0.0000 O   0  0  0  0  0  0  0  0  0  0  0  0
   -0.0120   -1.2167   -0.0000 C   0  0  0  0  0  0  0  0  0  0  0  0
   -1.3612   -1.9635   -0.0000 N   0  0  0  0  0  0  0  0  0  0  0  0
    1.3010   -1.9635   -0.0000 C   0  0  0  0  0  0  0  0  0  0  0  0
   -1.3733   -3.4814   -0.0000 C   0  0  0  0  0  0  0  0  0  0  0  0
   -2.6984   -1.1926   -0.0000 C   0  0  0  0  0  0  0  0  0  0  0  0
    1.2890   -3.4814   -0.0000 C   0  0  0  0  0  0  0  0  0  0  0  0
    2.6140   -1.1926   -0.0000 C   0  0  0  0  0  0  0  0  0  0  0  0
   -0.0482   -4.2282   -0.0000 N   0  0  0  0  0  0  0  0  0  0  0  0
   -4.0355   -1.9515   -0.0000 C   0  0  0  0  0  0  0  0  0  0  0  0
    2.6020   -4.2282   -0.0000 C   0  0  0  0  0  0  0  0  0  0  0  0
    3.9271   -1.9395   -0.0000 C   0  0  0  0  0  0  0  0  0  0  0  0
   -4.0476   -3.1682   -0.0000 O   0  0  0  0  0  0  0  0  0  0  0  0
   -5.3726   -1.1805   -0.0000 N   0  0  0  0  0  0  0  0  0  0  0  0
    3.9150   -3.4573   -0.0000 C   0  0  0  0  0  0  0  0  0  0  0  0
   -6.7098   -1.9395   -0.0000 C   0  0  0  0  0  0  0  0  0  0  0  0
   -8.0469   -1.1685   -0.0000 C   0  0  0  0  0  0  0  0  0  0  0  0
   -6.7218   -3.4573   -0.0000 C   0  0  0  0  0  0  0  0  0  0  0  0
   -9.3841   -1.9274   -0.0000 C   0  0  0  0  0  0  0  0  0  0  0  0
   -8.0590   -4.2162   -0.0000 C   0  0  0  0  0  0  0  0  0  0  0  0
   -9.3961   -3.4452   -0.0000 C   0  0  0  0  0  0  0  0  0  0  0  0
  -10.7332   -4.2042   -0.0000 C   0  0  0  0  0  0  0  0  0  0  0  0
  -10.7332   -5.7220   -0.0000 C   0  0  0  0  0  0  0  0  0  0  0  0
  -11.9740   -6.5893   -0.0000 N   0  0  0  0  0  0  0  0  0  0  0  0
   -9.5045   -6.5773   -0.0000 C   0  0  0  0  0  0  0  0  0  0  0  0
  -11.5042   -8.0228   -0.0000 C   0  0  0  0  0  0  0  0  0  0  0  0
   -9.9743   -8.0228   -0.0000 C   0  0  0  0  0  0  0  0  0  0  0  0
  -10.8658   -9.3841   -0.0000 C   0  0  0  0  0  0  0  0  0  0  0  0
  -11.5885  -10.3719   -0.0000 O   0  0  0  0  0  0  0  0  0  0  0  0
   -9.3600   -9.5166   -0.0000 C   0  0  0  0  0  0  0  0  0  0  0  0
   -8.7456  -10.9019   -0.0000 C   0  0  0  0  0  0  0  0  0  0  0  0
   -8.4806   -8.2638   -0.0000 C   0  0  0  0  0  0  0  0  0  0  0  0
   -7.2398  -11.0464   -0.0000 C   0  0  0  0  0  0  0  0  0  0  0  0
   -6.9748   -8.4083   -0.0000 C   0  0  0  0  0  0  0  0  0  0  0  0
   -6.3604   -9.7936   -0.0000 C   0  0  0  0  0  0  0  0  0  0  0  0
  1  2  2  0  0  0  0
  2  3  1  0  0  0  0
  2  4  1  0  0  0  0
  3  5  1  0  0  0  0
  3  6  1  0  0  0  0
  4  7  2  0  0  0  0
  4  8  1  0  0  0  0
  5  9  2  0  0  0  0
  6 10  1  0  0  0  0
  7 11  1  0  0  0  0
  8 12  2  0  0  0  0
 10 13  2  0  0  0  0
 10 14  1  0  0  0  0
 11 15  2  0  0  0  0
 14 16  1  0  0  0  0
 16 17  2  0  0  0  0
 16 18  1  0  0  0  0
 17 19  1  0  0  0  0
 18 20  2  0  0  0  0
 19 21  2  0  0  0  0
 21 22  1  0  0  0  0
 23 22  1  1  0  0  0
 23 24  1  0  0  0  0
 23 25  1  0  0  0  0
 26 24  1  1  0  0  0
 25 27  1  0  0  0  0
 26 28  1  0  0  0  0
 28 29  1  6  0  0  0
 28 30  1  0  0  0  0
 30 31  2  0  0  0  0
 30 32  1  0  0  0  0
 31 33  1  0  0  0  0
 32 34  2  0  0  0  0
 33 35  2  0  0  0  0
  7  9  1  0  0  0  0
 12 15  1  0  0  0  0
 20 21  1  0  0  0  0
 26 27  1  0  0  0  0
 34 35  1  0  0  0  0
M  END
>  <MolRegNo>
2068913

>  <m>
=

>  <Value>
96000

>  <Unit>
nM

>  <Type>
IC50

>  <pValue>
4.02

>  <Ligand Efficiency>
0

>  <Binding Efficiency>
0

>  <Surface Efficiency>
0

>  <Assay Index>
992700

>  <Assay Category>


>  <Assay Organism>
Homo sapiens

>  <Target ID>
17045

>  <Target Name>
Cytochrome P450 3A4

>  <Target Organism>
Homo sapiens

>  <Target Description>
Target is a single protein chain

>  <Sequence Accession>
P08684

>  <Reference>
J Med Chem 59 (2), 609-623 (2016)

>  <Pubmed ID>
26709102

>  <DOI>
10.1021/acs.jmedchem.5b01372

$$$$
2070047
Actelion Java MolfileCreator 1.0

 11 10  0  0  0  0  0  0  0  0999 V2000
    0.0000   -0.0000   -0.0000 I   0  0  0  0  0  0  0  0  0  0  0  0
   -1.0939   -0.6146   -0.0000 C   0  0  0  0  0  0  0  0  0  0  0  0
   -2.4583    0.1721   -0.0000 C   0  0  0  0  0  0  0  0  0  0  0  0
   -1.1062   -2.1633   -0.0000 C   0  0  0  0  0  0  0  0  0  0  0  0
   -3.8227   -0.5900   -0.0000 C   0  0  0  0  0  0  0  0  0  0  0  0
   -2.4706   -2.9254   -0.0000 C   0  0  0  0  0  0  0  0  0  0  0  0
   -3.8350   -2.1387   -0.0000 C   0  0  0  0  0  0  0  0  0  0  0  0
   -5.1993   -2.9131   -0.0000 C   0  0  0  0  0  0  0  0  0  0  0  0
   -5.2116   -4.4618   -0.0000 O   0  0  0  0  0  0  0  0  0  0  0  0
   -6.3056   -5.0764   -0.0000 N   0  0  0  0  0  0  0  0  0  0  0  0
    2.7533   -2.4583   -0.0000 Cl  0  0  0  0  0  0  0  0  0  0  0  0
  1  2  1  0  0  0  0
  2  3  2  0  0  0  0
  2  4  1  0  0  0  0
  3  5  1  0  0  0  0
  4  6  2  0  0  0  0
  5  7  2  0  0  0  0
  7  8  1  0  0  0  0
  8  9  1  0  0  0  0
  9 10  1  0  0  0  0
  6  7  1  0  0  0  0
M  END
>  <MolRegNo>
2070047

>  <m>
=

>  <Value>
7200

>  <Unit>
nM

>  <Type>
IC50

>  <pValue>
5.14

>  <Ligand Efficiency>
0

>  <Binding Efficiency>
0

>  <Surface Efficiency>
0

>  <Assay Index>
993279

>  <Assay Category>


>  <Assay Organism>
Homo sapiens

>  <Target ID>
17045

>  <Target Name>
Cytochrome P450 3A4

>  <Target Organism>
Homo sapiens

>  <Target Description>
Target is a single protein chain

>  <Sequence Accession>
P08684

>  <Reference>


>  <Pubmed ID>
26717206

>  <DOI>
10.1016/j.ejmech.2015.12.028

$$$$
2070048
Actelion Java MolfileCreator 1.0

 11 10  0  0  0  0  0  0  0  0999 V2000
    0.0000   -0.0000   -0.0000 Cl  0  0  0  0  0  0  0  0  0  0  0  0
   -1.0895    0.6366   -0.0000 C   0  0  0  0  0  0  0  0  0  0  0  0
   -2.4483   -0.1224   -0.0000 C   0  0  0  0  0  0  0  0  0  0  0  0
   -1.1017    2.2035   -0.0000 C   0  0  0  0  0  0  0  0  0  0  0  0
   -3.8071    0.6610   -0.0000 C   0  0  0  0  0  0  0  0  0  0  0  0
   -2.4605    2.9869   -0.0000 C   0  0  0  0  0  0  0  0  0  0  0  0
   -3.8193    2.2279   -0.0000 C   0  0  0  0  0  0  0  0  0  0  0  0
   -5.1659   -0.1102   -0.0000 C   0  0  0  0  0  0  0  0  0  0  0  0
   -5.1781   -1.6526   -0.0000 O   0  0  0  0  0  0  0  0  0  0  0  0
   -6.2676   -2.2647   -0.0000 N   0  0  0  0  0  0  0  0  0  0  0  0
    2.7421    0.2938   -0.0000 Cl  0  0  0  0  0  0  0  0  0  0  0  0
  1  2  1  0  0  0  0
  2  3  2  0  0  0  0
  2  4  1  0  0  0  0
  3  5  1  0  0  0  0
  4  6  2  0  0  0  0
  5  7  2  0  0  0  0
  5  8  1  0  0  0  0
  8  9  1  0  0  0  0
  9 10  1  0  0  0  0
  6  7  1  0  0  0  0
M  END
>  <MolRegNo>
2070048

>  <m>
=

>  <Value>
15000

>  <Unit>
nM

>  <Type>
IC50

>  <pValue>
4.82

>  <Ligand Efficiency>
0

>  <Binding Efficiency>
0

>  <Surface Efficiency>
0

>  <Assay Index>
993279

>  <Assay Category>


>  <Assay Organism>
Homo sapiens

>  <Target ID>
17045

>  <Target Name>
Cytochrome P450 3A4

>  <Target Organism>
Homo sapiens

>  <Target Description>
Target is a single protein chain

>  <Sequence Accession>
P08684

>  <Reference>


>  <Pubmed ID>
26717206

>  <DOI>
10.1016/j.ejmech.2015.12.028

$$$$
2069284
Actelion Java MolfileCreator 1.0

 39 42  0  0  0  0  0  0  0  0999 V2000
    0.0000   -0.0000   -0.0000 S   0  0  0  0  0  0  0  0  0  0  0  0
   -1.1027   -0.6195   -0.0000 O   0  0  0  0  0  0  0  0  0  0  0  0
   -1.1027    0.6442   -0.0000 O   0  0  0  0  0  0  0  0  0  0  0  0
   -0.0124   -1.5611   -0.0000 N   0  0  0  0  0  0  0  0  0  0  0  0
    1.3504    0.8053   -0.0000 C   0  0  0  0  0  0  0  0  0  0  0  0
    1.3381   -2.3292   -0.0000 C   0  0  0  0  0  0  0  0  0  0  0  0
   -1.3876   -2.3292   -0.0000 C   0  0  0  0  0  0  0  0  0  0  0  0
    1.3381    2.3912   -0.0000 C   0  0  0  0  0  0  0  0  0  0  0  0
    2.7009    0.0372   -0.0000 C   0  0  0  0  0  0  0  0  0  0  0  0
    1.3257   -3.8903   -0.0000 C   0  0  0  0  0  0  0  0  0  0  0  0
    2.7628   -2.7752   -0.0000 C   0  0  0  0  0  0  0  0  0  0  0  0
    1.6478   -0.8425   -0.0000 C   0  0  0  0  0  0  0  0  0  0  0  0
   -2.7628   -1.5239   -0.0000 C   0  0  0  0  0  0  0  0  0  0  0  0
    2.6885    3.1965   -0.0000 C   0  0  0  0  0  0  0  0  0  0  0  0
    4.0513    0.8425   -0.0000 C   0  0  0  0  0  0  0  0  0  0  0  0
   -0.0496   -4.6584   -0.0000 C   0  0  0  0  0  0  0  0  0  0  0  0
    2.6761   -4.6584   -0.0000 C   0  0  0  0  0  0  0  0  0  0  0  0
    3.1593   -1.2389   -0.0000 C   0  0  0  0  0  0  0  0  0  0  0  0
   -3.8655   -2.1434   -0.0000 O   0  0  0  0  0  0  0  0  0  0  0  0
   -2.7752   -0.2478   -0.0000 O   0  0  0  0  0  0  0  0  0  0  0  0
    4.0390    2.4283   -0.0000 C   0  0  0  0  0  0  0  0  0  0  0  0
   -0.0619   -6.2195   -0.0000 C   0  0  0  0  0  0  0  0  0  0  0  0
    2.6637   -6.2195   -0.0000 C   0  0  0  0  0  0  0  0  0  0  0  0
    5.3894    3.2212   -0.0000 O   0  0  0  0  0  0  0  0  0  0  0  0
    1.2885   -6.9876   -0.0000 C   0  0  0  0  0  0  0  0  0  0  0  0
    6.7398    2.4531   -0.0000 C   0  0  0  0  0  0  0  0  0  0  0  0
    1.2761   -8.5487   -0.0000 C   0  0  0  0  0  0  0  0  0  0  0  0
    7.8177    3.0974   -0.0000 F   0  0  0  0  0  0  0  0  0  0  0  0
    6.7275    1.2018   -0.0000 F   0  0  0  0  0  0  0  0  0  0  0  0
   -0.0991   -9.3292   -0.0000 C   0  0  0  0  0  0  0  0  0  0  0  0
    2.6266   -9.3168   -0.0000 C   0  0  0  0  0  0  0  0  0  0  0  0
   -1.4743   -8.5363   -0.0000 O   0  0  0  0  0  0  0  0  0  0  0  0
   -0.1115  -10.8903   -0.0000 C   0  0  0  0  0  0  0  0  0  0  0  0
    2.6142  -10.8779   -0.0000 C   0  0  0  0  0  0  0  0  0  0  0  0
   -2.8496   -9.3168   -0.0000 C   0  0  0  0  0  0  0  0  0  0  0  0
    1.2389  -11.6584   -0.0000 C   0  0  0  0  0  0  0  0  0  0  0  0
   -3.9522   -8.6850   -0.0000 F   0  0  0  0  0  0  0  0  0  0  0  0
   -2.8620  -10.5682   -0.0000 F   0  0  0  0  0  0  0  0  0  0  0  0
   -3.9522   -9.9363   -0.0000 F   0  0  0  0  0  0  0  0  0  0  0  0
  1  2  2  0  0  0  0
  1  3  2  0  0  0  0
  1  4  1  0  0  0  0
  1  5  1  0  0  0  0
  4  6  1  0  0  0  0
  4  7  1  0  0  0  0
  5  8  2  0  0  0  0
  5  9  1  0  0  0  0
  6 10  1  0  0  0  0
  6 11  1  0  0  0  0
  6 12  1  0  0  0  0
  7 13  1  0  0  0  0
  8 14  1  0  0  0  0
  9 15  2  0  0  0  0
 10 16  2  0  0  0  0
 10 17  1  0  0  0  0
 11 18  1  0  0  0  0
 13 19  2  0  0  0  0
 13 20  1  0  0  0  0
 14 21  2  0  0  0  0
 16 22  1  0  0  0  0
 17 23  2  0  0  0  0
 21 24  1  0  0  0  0
 22 25  2  0  0  0  0
 24 26  1  0  0  0  0
 25 27  1  0  0  0  0
 26 28  1  0  0  0  0
 26 29  1  0  0  0  0
 27 30  2  0  0  0  0
 27 31  1  0  0  0  0
 30 32  1  0  0  0  0
 30 33  1  0  0  0  0
 31 34  2  0  0  0  0
 32 35  1  0  0  0  0
 33 36  2  0  0  0  0
 35 37  1  0  0  0  0
 35 38  1  0  0  0  0
 35 39  1  0  0  0  0
 12 18  1  0  0  0  0
 15 21  1  0  0  0  0
 23 25  1  0  0  0  0
 34 36  1  0  0  0  0
M  END
>  <MolRegNo>
2069284

>  <m>
=

>  <Value>
6000

>  <Unit>
nM

>  <Type>
IC50

>  <pValue>
5.22

>  <Ligand Efficiency>
0

>  <Binding Efficiency>
0

>  <Surface Efficiency>
0

>  <Assay Index>
991744

>  <Assay Category>


>  <Assay Organism>
Homo sapiens

>  <Target ID>
17045

>  <Target Name>
Cytochrome P450 3A4

>  <Target Organism>
Homo sapiens

>  <Target Description>
Target is a single protein chain

>  <Sequence Accession>
P08684

>  <Reference>
Bioorg Med Chem 24 (7), 1455-1468 (2016)

>  <Pubmed ID>
26917221

>  <DOI>
10.1016/j.bmc.2016.02.006

$$$$
2069479
Actelion Java MolfileCreator 1.0

 38 42  0  0  0  0  0  0  0  0999 V2000
    0.0000   -0.0000   -0.0000 Cl  0  0  0  0  0  0  0  0  0  0  0  0
    1.0718   -0.6160   -0.0000 C   0  0  0  0  0  0  0  0  0  0  0  0
    1.0595   -2.1682   -0.0000 C   0  0  0  0  0  0  0  0  0  0  0  0
    2.4146    0.1848   -0.0000 C   0  0  0  0  0  0  0  0  0  0  0  0
    2.4023   -2.9320   -0.0000 C   0  0  0  0  0  0  0  0  0  0  0  0
    3.7575   -0.5790   -0.0000 C   0  0  0  0  0  0  0  0  0  0  0  0
    2.3900   -4.1763   -0.0000 Cl  0  0  0  0  0  0  0  0  0  0  0  0
    3.7451   -2.1313   -0.0000 C   0  0  0  0  0  0  0  0  0  0  0  0
    5.1003    0.2218   -0.0000 C   0  0  0  0  0  0  0  0  0  0  0  0
    5.0880    1.7987   -0.0000 C   0  0  0  0  0  0  0  0  0  0  0  0
    6.4431   -0.5421   -0.0000 C   0  0  0  0  0  0  0  0  0  0  0  0
    6.4308    2.5871   -0.0000 C   0  0  0  0  0  0  0  0  0  0  0  0
    7.7859    0.2464   -0.0000 C   0  0  0  0  0  0  0  0  0  0  0  0
    7.7736    1.8233   -0.0000 C   0  0  0  0  0  0  0  0  0  0  0  0
    6.4185    4.1640   -0.0000 C   0  0  0  0  0  0  0  0  0  0  0  0
    5.0510    4.9524   -0.0000 N   0  0  0  0  0  0  0  0  0  0  0  0
    7.8352    3.7205   -0.0000 C   0  0  0  0  0  0  0  0  0  0  0  0
    6.7265    5.6423   -0.0000 C   0  0  0  0  0  0  0  0  0  0  0  0
    5.0387    6.5293   -0.0000 S   0  0  0  0  0  0  0  0  0  0  0  0
    3.6835    4.1886   -0.0000 C   0  0  0  0  0  0  0  0  0  0  0  0
    8.2294    5.2481   -0.0000 C   0  0  0  0  0  0  0  0  0  0  0  0
    3.9422    7.1700   -0.0000 O   0  0  0  0  0  0  0  0  0  0  0  0
    3.9422    5.9134   -0.0000 O   0  0  0  0  0  0  0  0  0  0  0  0
    6.3815    7.3301   -0.0000 C   0  0  0  0  0  0  0  0  0  0  0  0
    2.3161    4.9894   -0.0000 C   0  0  0  0  0  0  0  0  0  0  0  0
    7.7243    6.5663   -0.0000 C   0  0  0  0  0  0  0  0  0  0  0  0
    6.3692    8.9070   -0.0000 C   0  0  0  0  0  0  0  0  0  0  0  0
    1.2196    4.3734   -0.0000 O   0  0  0  0  0  0  0  0  0  0  0  0
    2.3038    6.2583   -0.0000 O   0  0  0  0  0  0  0  0  0  0  0  0
    9.0672    7.3548   -0.0000 C   0  0  0  0  0  0  0  0  0  0  0  0
    7.7120    9.6955   -0.0000 C   0  0  0  0  0  0  0  0  0  0  0  0
    9.0548    8.9317   -0.0000 C   0  0  0  0  0  0  0  0  0  0  0  0
   10.4100    6.5909   -0.0000 C   0  0  0  0  0  0  0  0  0  0  0  0
   10.3977    9.7201   -0.0000 O   0  0  0  0  0  0  0  0  0  0  0  0
   11.7651    7.3794   -0.0000 C   0  0  0  0  0  0  0  0  0  0  0  0
   11.7528    8.9563   -0.0000 C   0  0  0  0  0  0  0  0  0  0  0  0
   12.8123    8.3280   -0.0000 C   0  0  0  0  0  0  0  0  0  0  0  0
   11.7035   10.2129   -0.0000 C   0  0  0  0  0  0  0  0  0  0  0  0
  1  2  1  0  0  0  0
  2  3  2  0  0  0  0
  2  4  1  0  0  0  0
  3  5  1  0  0  0  0
  4  6  2  0  0  0  0
  5  7  1  0  0  0  0
  5  8  2  0  0  0  0
  6  9  1  0  0  0  0
  9 10  2  0  0  0  0
  9 11  1  0  0  0  0
 10 12  1  0  0  0  0
 11 13  2  0  0  0  0
 12 14  2  0  0  0  0
 12 15  1  0  0  0  0
 15 16  1  0  0  0  0
 15 17  1  0  0  0  0
 15 18  1  0  0  0  0
 16 19  1  0  0  0  0
 16 20  1  0  0  0  0
 17 21  1  0  0  0  0
 19 22  2  0  0  0  0
 19 23  2  0  0  0  0
 19 24  1  0  0  0  0
 20 25  1  0  0  0  0
 24 26  2  0  0  0  0
 24 27  1  0  0  0  0
 25 28  2  0  0  0  0
 25 29  1  0  0  0  0
 26 30  1  0  0  0  0
 27 31  2  0  0  0  0
 30 32  2  0  0  0  0
 30 33  1  0  0  0  0
 32 34  1  0  0  0  0
 33 35  1  0  0  0  0
 34 36  1  0  0  0  0
 36 37  1  0  0  0  0
 36 38  1  0  0  0  0
  6  8  1  0  0  0  0
 13 14  1  0  0  0  0
 18 21  1  0  0  0  0
 31 32  1  0  0  0  0
 35 36  1  0  0  0  0
M  END
>  <MolRegNo>
2069479

>  <m>
=

>  <Value>
9000

>  <Unit>
nM

>  <Type>
IC50

>  <pValue>
5.05

>  <Ligand Efficiency>
0

>  <Binding Efficiency>
0

>  <Surface Efficiency>
0

>  <Assay Index>
991744

>  <Assay Category>


>  <Assay Organism>
Homo sapiens

>  <Target ID>
17045

>  <Target Name>
Cytochrome P450 3A4

>  <Target Organism>
Homo sapiens

>  <Target Description>
Target is a single protein chain

>  <Sequence Accession>
P08684

>  <Reference>
Bioorg Med Chem 24 (7), 1455-1468 (2016)

>  <Pubmed ID>
26917221

>  <DOI>
10.1016/j.bmc.2016.02.006

$$$$
2069484
Actelion Java MolfileCreator 1.0

 33 36  0  0  0  0  0  0  0  0999 V2000
    0.0000   -0.0000   -0.0000 S   0  0  0  0  0  0  0  0  0  0  0  0
    1.0632    0.6354   -0.0000 O   0  0  0  0  0  0  0  0  0  0  0  0
    1.0632   -0.6110   -0.0000 O   0  0  0  0  0  0  0  0  0  0  0  0
   -0.0122   -1.5397   -0.0000 N   0  0  0  0  0  0  0  0  0  0  0  0
   -1.3564    0.7943   -0.0000 C   0  0  0  0  0  0  0  0  0  0  0  0
    1.3198   -2.2974   -0.0000 C   0  0  0  0  0  0  0  0  0  0  0  0
   -1.3687   -2.3096   -0.0000 C   0  0  0  0  0  0  0  0  0  0  0  0
   -2.7129    0.0367   -0.0000 C   0  0  0  0  0  0  0  0  0  0  0  0
   -1.3687    2.3585   -0.0000 C   0  0  0  0  0  0  0  0  0  0  0  0
    2.6518   -1.5153   -0.0000 C   0  0  0  0  0  0  0  0  0  0  0  0
   -1.3809   -3.8494   -0.0000 C   0  0  0  0  0  0  0  0  0  0  0  0
   -4.0693    0.8188   -0.0000 C   0  0  0  0  0  0  0  0  0  0  0  0
   -2.7251    3.1406   -0.0000 C   0  0  0  0  0  0  0  0  0  0  0  0
    3.9838   -2.2730   -0.0000 C   0  0  0  0  0  0  0  0  0  0  0  0
    2.6396    0.0489   -0.0000 C   0  0  0  0  0  0  0  0  0  0  0  0
   -2.4685   -4.4604   -0.0000 O   0  0  0  0  0  0  0  0  0  0  0  0
   -0.3177   -4.4604   -0.0000 O   0  0  0  0  0  0  0  0  0  0  0  0
   -4.0815    2.3829   -0.0000 C   0  0  0  0  0  0  0  0  0  0  0  0
   -5.4258    0.0611   -0.0000 C   0  0  0  0  0  0  0  0  0  0  0  0
    5.3158   -1.4786   -0.0000 C   0  0  0  0  0  0  0  0  0  0  0  0
    3.9716    0.8432   -0.0000 C   0  0  0  0  0  0  0  0  0  0  0  0
   -5.4380    3.1650   -0.0000 O   0  0  0  0  0  0  0  0  0  0  0  0
   -6.7944    0.8432   -0.0000 C   0  0  0  0  0  0  0  0  0  0  0  0
    6.6478   -2.2363   -0.0000 C   0  0  0  0  0  0  0  0  0  0  0  0
    5.3036    0.0855   -0.0000 C   0  0  0  0  0  0  0  0  0  0  0  0
   -6.8066    2.4074   -0.0000 C   0  0  0  0  0  0  0  0  0  0  0  0
    6.6356   -3.7760   -0.0000 C   0  0  0  0  0  0  0  0  0  0  0  0
    7.9798   -1.4420   -0.0000 C   0  0  0  0  0  0  0  0  0  0  0  0
   -6.7822    3.6661   -0.0000 C   0  0  0  0  0  0  0  0  0  0  0  0
   -7.8820    1.7719   -0.0000 C   0  0  0  0  0  0  0  0  0  0  0  0
    7.9676   -4.5337   -0.0000 C   0  0  0  0  0  0  0  0  0  0  0  0
    9.3118   -2.1996   -0.0000 C   0  0  0  0  0  0  0  0  0  0  0  0
    9.2996   -3.7394   -0.0000 C   0  0  0  0  0  0  0  0  0  0  0  0
  1  2  2  0  0  0  0
  1  3  2  0  0  0  0
  1  4  1  0  0  0  0
  1  5  1  0  0  0  0
  4  6  1  0  0  0  0
  4  7  1  0  0  0  0
  5  8  2  0  0  0  0
  5  9  1  0  0  0  0
  6 10  1  0  0  0  0
  7 11  1  0  0  0  0
  8 12  1  0  0  0  0
  9 13  2  0  0  0  0
 10 14  2  0  0  0  0
 10 15  1  0  0  0  0
 11 16  2  0  0  0  0
 11 17  1  0  0  0  0
 12 18  2  0  0  0  0
 12 19  1  0  0  0  0
 14 20  1  0  0  0  0
 15 21  2  0  0  0  0
 18 22  1  0  0  0  0
 19 23  1  0  0  0  0
 20 24  1  0  0  0  0
 20 25  2  0  0  0  0
 22 26  1  0  0  0  0
 24 27  2  0  0  0  0
 24 28  1  0  0  0  0
 26 29  1  0  0  0  0
 26 30  1  0  0  0  0
 27 31  1  0  0  0  0
 28 32  2  0  0  0  0
 31 33  2  0  0  0  0
 13 18  1  0  0  0  0
 21 25  1  0  0  0  0
 23 26  1  0  0  0  0
 32 33  1  0  0  0  0
M  END
>  <MolRegNo>
2069484

>  <m>
=

>  <Value>
40000

>  <Unit>
nM

>  <Type>
IC50

>  <pValue>
4.4

>  <Ligand Efficiency>
0

>  <Binding Efficiency>
0

>  <Surface Efficiency>
0

>  <Assay Index>
991744

>  <Assay Category>


>  <Assay Organism>
Homo sapiens

>  <Target ID>
17045

>  <Target Name>
Cytochrome P450 3A4

>  <Target Organism>
Homo sapiens

>  <Target Description>
Target is a single protein chain

>  <Sequence Accession>
P08684

>  <Reference>
Bioorg Med Chem 24 (7), 1455-1468 (2016)

>  <Pubmed ID>
26917221

>  <DOI>
10.1016/j.bmc.2016.02.006

$$$$
2069488
Actelion Java MolfileCreator 1.0

 36 38  0  0  0  0  0  0  0  0999 V2000
    0.0000   -0.0000   -0.0000 S   0  0  0  0  0  0  0  0  0  0  0  0
   -0.0124   -1.2541   -0.0000 O   0  0  0  0  0  0  0  0  0  0  0  0
    1.0803   -0.6208   -0.0000 O   0  0  0  0  0  0  0  0  0  0  0  0
    1.3534    0.7947   -0.0000 N   0  0  0  0  0  0  0  0  0  0  0  0
   -1.3783    0.7947   -0.0000 C   0  0  0  0  0  0  0  0  0  0  0  0
    2.7068    0.0248   -0.0000 C   0  0  0  0  0  0  0  0  0  0  0  0
    1.3410    2.3840   -0.0000 C   0  0  0  0  0  0  0  0  0  0  0  0
   -1.3907    2.3840   -0.0000 C   0  0  0  0  0  0  0  0  0  0  0  0
   -2.7565    0.0248   -0.0000 C   0  0  0  0  0  0  0  0  0  0  0  0
    2.6944   -1.5397   -0.0000 C   0  0  0  0  0  0  0  0  0  0  0  0
    2.6944    3.1787   -0.0000 C   0  0  0  0  0  0  0  0  0  0  0  0
   -2.7689    3.1787   -0.0000 C   0  0  0  0  0  0  0  0  0  0  0  0
   -4.1348    0.8195   -0.0000 C   0  0  0  0  0  0  0  0  0  0  0  0
    4.0478   -2.3219   -0.0000 C   0  0  0  0  0  0  0  0  0  0  0  0
    1.3162   -2.3095   -0.0000 C   0  0  0  0  0  0  0  0  0  0  0  0
    2.6820    4.4576   -0.0000 O   0  0  0  0  0  0  0  0  0  0  0  0
    3.7747    2.5578   -0.0000 O   0  0  0  0  0  0  0  0  0  0  0  0
   -4.1472    2.4088   -0.0000 C   0  0  0  0  0  0  0  0  0  0  0  0
    4.0354   -3.8864   -0.0000 C   0  0  0  0  0  0  0  0  0  0  0  0
    1.3038   -3.8740   -0.0000 C   0  0  0  0  0  0  0  0  0  0  0  0
   -5.5254    3.2035   -0.0000 O   0  0  0  0  0  0  0  0  0  0  0  0
    5.3888   -4.6687   -0.0000 C   0  0  0  0  0  0  0  0  0  0  0  0
    2.6572   -4.6563   -0.0000 C   0  0  0  0  0  0  0  0  0  0  0  0
   -6.9037    2.4213   -0.0000 C   0  0  0  0  0  0  0  0  0  0  0  0
    6.7423   -3.8740   -0.0000 C   0  0  0  0  0  0  0  0  0  0  0  0
    5.3764   -6.2332   -0.0000 C   0  0  0  0  0  0  0  0  0  0  0  0
   -8.0088    3.0669   -0.0000 F   0  0  0  0  0  0  0  0  0  0  0  0
   -6.9161    1.1672   -0.0000 F   0  0  0  0  0  0  0  0  0  0  0  0
    6.7423   -2.2847   -0.0000 O   0  0  0  0  0  0  0  0  0  0  0  0
    8.0957   -4.6563   -0.0000 C   0  0  0  0  0  0  0  0  0  0  0  0
    6.7298   -7.0154   -0.0000 C   0  0  0  0  0  0  0  0  0  0  0  0
    8.0957   -1.4900   -0.0000 C   0  0  0  0  0  0  0  0  0  0  0  0
    8.0833   -6.2208   -0.0000 C   0  0  0  0  0  0  0  0  0  0  0  0
    8.0957   -0.2111   -0.0000 F   0  0  0  0  0  0  0  0  0  0  0  0
    9.1759   -2.1108   -0.0000 F   0  0  0  0  0  0  0  0  0  0  0  0
    9.1759   -0.8568   -0.0000 F   0  0  0  0  0  0  0  0  0  0  0  0
  1  2  2  0  0  0  0
  1  3  2  0  0  0  0
  1  4  1  0  0  0  0
  1  5  1  0  0  0  0
  4  6  1  0  0  0  0
  4  7  1  0  0  0  0
  5  8  2  0  0  0  0
  5  9  1  0  0  0  0
  6 10  1  0  0  0  0
  7 11  1  0  0  0  0
  8 12  1  0  0  0  0
  9 13  2  0  0  0  0
 10 14  2  0  0  0  0
 10 15  1  0  0  0  0
 11 16  2  0  0  0  0
 11 17  1  0  0  0  0
 12 18  2  0  0  0  0
 14 19  1  0  0  0  0
 15 20  2  0  0  0  0
 18 21  1  0  0  0  0
 19 22  1  0  0  0  0
 19 23  2  0  0  0  0
 21 24  1  0  0  0  0
 22 25  2  0  0  0  0
 22 26  1  0  0  0  0
 24 27  1  0  0  0  0
 24 28  1  0  0  0  0
 25 29  1  0  0  0  0
 25 30  1  0  0  0  0
 26 31  2  0  0  0  0
 29 32  1  0  0  0  0
 30 33  2  0  0  0  0
 32 34  1  0  0  0  0
 32 35  1  0  0  0  0
 32 36  1  0  0  0  0
 13 18  1  0  0  0  0
 20 23  1  0  0  0  0
 31 33  1  0  0  0  0
M  END
>  <MolRegNo>
2069488

>  <m>
=

>  <Value>
30000

>  <Unit>
nM

>  <Type>
IC50

>  <pValue>
4.52

>  <Ligand Efficiency>
0

>  <Binding Efficiency>
0

>  <Surface Efficiency>
0

>  <Assay Index>
991744

>  <Assay Category>


>  <Assay Organism>
Homo sapiens

>  <Target ID>
17045

>  <Target Name>
Cytochrome P450 3A4

>  <Target Organism>
Homo sapiens

>  <Target Description>
Target is a single protein chain

>  <Sequence Accession>
P08684

>  <Reference>
Bioorg Med Chem 24 (7), 1455-1468 (2016)

>  <Pubmed ID>
26917221

>  <DOI>
10.1016/j.bmc.2016.02.006

$$$$
2072277
Actelion Java MolfileCreator 1.0

 33 36  0  0  0  0  0  0  0  0999 V2000
    0.0000   -0.0000   -0.0000 Cl  0  0  0  0  0  0  0  0  0  0  0  0
    1.0811   -0.6213   -0.0000 C   0  0  0  0  0  0  0  0  0  0  0  0
    2.4480    0.1988   -0.0000 C   0  0  0  0  0  0  0  0  0  0  0  0
    1.0687   -2.1871   -0.0000 C   0  0  0  0  0  0  0  0  0  0  0  0
    2.4356    1.7894   -0.0000 N   0  0  0  0  0  0  0  0  0  0  0  0
    3.8025   -0.5965   -0.0000 C   0  0  0  0  0  0  0  0  0  0  0  0
   -0.0373   -2.8084   -0.0000 Cl  0  0  0  0  0  0  0  0  0  0  0  0
    2.4356   -2.9823   -0.0000 C   0  0  0  0  0  0  0  0  0  0  0  0
    1.3296    2.4356   -0.0000 O   0  0  0  0  0  0  0  0  0  0  0  0
    3.5167    2.4232   -0.0000 O   0  0  0  0  0  0  0  0  0  0  0  0
    5.2812   -0.0994   -0.0000 N   0  0  0  0  0  0  0  0  0  0  0  0
    3.7901   -2.1622   -0.0000 C   0  0  0  0  0  0  0  0  0  0  0  0
    6.1884   -1.3296   -0.0000 C   0  0  0  0  0  0  0  0  0  0  0  0
    5.2688   -2.6344   -0.0000 N   0  0  0  0  0  0  0  0  0  0  0  0
    7.4434   -1.3048   -0.0000 C   0  0  0  0  0  0  0  0  0  0  0  0
    5.7534   -4.1132   -0.0000 C   0  0  0  0  0  0  0  0  0  0  0  0
    7.2819   -4.4238   -0.0000 C   0  0  0  0  0  0  0  0  0  0  0  0
    7.7665   -5.9026   -0.0000 C   0  0  0  0  0  0  0  0  0  0  0  0
    8.3133   -3.2309   -0.0000 C   0  0  0  0  0  0  0  0  0  0  0  0
    9.2950   -6.2008   -0.0000 C   0  0  0  0  0  0  0  0  0  0  0  0
    9.8417   -3.5291   -0.0000 C   0  0  0  0  0  0  0  0  0  0  0  0
   10.3264   -5.0079   -0.0000 C   0  0  0  0  0  0  0  0  0  0  0  0
   11.8548   -5.3061   -0.0000 B   0  0  0  0  0  0  0  0  0  0  0  0
   12.7495   -3.9889   -0.0000 O   0  0  0  0  0  0  0  0  0  0  0  0
   12.1779   -6.8470   -0.0000 O   0  0  0  0  0  0  0  0  0  0  0  0
   14.2904   -3.6782   -0.0000 C   0  0  0  0  0  0  0  0  0  0  0  0
   13.4703   -7.7168   -0.0000 C   0  0  0  0  0  0  0  0  0  0  0  0
   14.5265   -2.4232   -0.0000 O   0  0  0  0  0  0  0  0  0  0  0  0
   15.5828   -4.5481   -0.0000 C   0  0  0  0  0  0  0  0  0  0  0  0
   13.2093   -8.9470   -0.0000 O   0  0  0  0  0  0  0  0  0  0  0  0
   15.0111   -7.4062   -0.0000 C   0  0  0  0  0  0  0  0  0  0  0  0
   15.8686   -6.0890   -0.0000 N   0  0  0  0  0  0  0  0  0  0  0  0
   17.0988   -6.3251   -0.0000 C   0  0  0  0  0  0  0  0  0  0  0  0
  1  2  1  0  0  0  0
  2  3  2  0  0  0  0
  2  4  1  0  0  0  0
  3  5  1  0  0  0  0
  3  6  1  0  0  0  0
  4  7  1  0  0  0  0
  4  8  2  0  0  0  0
  5  9  2  0  0  0  0
  5 10  1  0  0  0  0
  6 11  1  0  0  0  0
  6 12  2  0  0  0  0
 11 13  2  0  0  0  0
 12 14  1  0  0  0  0
 13 15  1  0  0  0  0
 14 16  1  0  0  0  0
 16 17  1  0  0  0  0
 17 18  2  0  0  0  0
 17 19  1  0  0  0  0
 18 20  1  0  0  0  0
 19 21  2  0  0  0  0
 20 22  2  0  0  0  0
 22 23  1  0  0  0  0
 23 24  1  0  0  0  0
 23 25  1  0  0  0  0
 24 26  1  0  0  0  0
 25 27  1  0  0  0  0
 26 28  2  0  0  0  0
 26 29  1  0  0  0  0
 27 30  2  0  0  0  0
 27 31  1  0  0  0  0
 29 32  1  0  0  0  0
 32 33  1  0  0  0  0
  8 12  1  0  0  0  0
 13 14  1  0  0  0  0
 21 22  1  0  0  0  0
 31 32  1  0  0  0  0
M  CHG  2   5   1  10  -1
M  END
>  <MolRegNo>
2072277

>  <m>
=

>  <Value>
28120

>  <Unit>
nM

>  <Type>
IC50

>  <pValue>
4.55

>  <Ligand Efficiency>
0

>  <Binding Efficiency>
0

>  <Surface Efficiency>
0

>  <Assay Index>
994640

>  <Assay Category>


>  <Assay Organism>
Homo sapiens

>  <Target ID>
17045

>  <Target Name>
Cytochrome P450 3A4

>  <Target Organism>
Homo sapiens

>  <Target Description>
Target is a single protein chain

>  <Sequence Accession>
P08684

>  <Reference>
J Med Chem 59 (3), 1140-1148 (2016)

>  <Pubmed ID>
26771665

>  <DOI>
10.1021/acs.jmedchem.5b01741

$$$$
2071039
Actelion Java MolfileCreator 1.0

 27 31  0  0  0  0  0  0  0  0999 V2000
    0.0000   -0.0000   -0.0000 S   0  0  0  0  0  0  0  0  0  0  0  0
    1.5226   -0.2054   -0.0000 C   0  0  0  0  0  0  0  0  0  0  0  0
   -0.2538    1.4742   -0.0000 C   0  0  0  0  0  0  0  0  0  0  0  0
    2.2234    1.1721   -0.0000 C   0  0  0  0  0  0  0  0  0  0  0  0
    2.2234   -1.5588   -0.0000 C   0  0  0  0  0  0  0  0  0  0  0  0
    1.0271    2.2234   -0.0000 N   0  0  0  0  0  0  0  0  0  0  0  0
   -1.6313    2.1388   -0.0000 C   0  0  0  0  0  0  0  0  0  0  0  0
    3.5889    1.5105   -0.0000 N   0  0  0  0  0  0  0  0  0  0  0  0
    3.5889   -1.8851   -0.0000 C   0  0  0  0  0  0  0  0  0  0  0  0
   -2.8880    1.2930   -0.0000 C   0  0  0  0  0  0  0  0  0  0  0  0
    4.7369    0.6042   -0.0000 C   0  0  0  0  0  0  0  0  0  0  0  0
    4.7369   -0.9063   -0.0000 C   0  0  0  0  0  0  0  0  0  0  0  0
   -4.2656    1.9576   -0.0000 C   0  0  0  0  0  0  0  0  0  0  0  0
   -2.7793   -0.2054   -0.0000 C   0  0  0  0  0  0  0  0  0  0  0  0
    6.0540    1.4742   -0.0000 C   0  0  0  0  0  0  0  0  0  0  0  0
    6.0540   -1.6434   -0.0000 C   0  0  0  0  0  0  0  0  0  0  0  0
   -5.5223    1.1117   -0.0000 C   0  0  0  0  0  0  0  0  0  0  0  0
   -4.0360   -1.0513   -0.0000 C   0  0  0  0  0  0  0  0  0  0  0  0
    7.3711    0.6284   -0.0000 C   0  0  0  0  0  0  0  0  0  0  0  0
    7.3711   -0.8821   -0.0000 C   0  0  0  0  0  0  0  0  0  0  0  0
   -5.4136   -0.3867   -0.0000 C   0  0  0  0  0  0  0  0  0  0  0  0
    8.6641   -1.6313   -0.0000 N   0  0  0  0  0  0  0  0  0  0  0  0
    8.7970   -3.1176   -0.0000 C   0  0  0  0  0  0  0  0  0  0  0  0
   10.0175   -0.9909   -0.0000 C   0  0  0  0  0  0  0  0  0  0  0  0
   10.2713   -3.4197   -0.0000 N   0  0  0  0  0  0  0  0  0  0  0  0
   11.0205   -2.1026   -0.0000 C   0  0  0  0  0  0  0  0  0  0  0  0
   12.2168   -1.9576   -0.0000 C   0  0  0  0  0  0  0  0  0  0  0  0
  1  2  1  0  0  0  0
  1  3  1  0  0  0  0
  2  4  2  0  0  0  0
  2  5  1  0  0  0  0
  3  6  2  0  0  0  0
  3  7  1  0  0  0  0
  4  8  1  0  0  0  0
  5  9  1  0  0  0  0
  7 10  1  0  0  0  0
  8 11  1  0  0  0  0
  9 12  1  0  0  0  0
 10 13  2  0  0  0  0
 10 14  1  0  0  0  0
 11 15  1  0  0  0  0
 12 16  1  0  0  0  0
 13 17  1  0  0  0  0
 14 18  2  0  0  0  0
 15 19  2  0  0  0  0
 16 20  2  0  0  0  0
 17 21  2  0  0  0  0
 20 22  1  0  0  0  0
 22 23  1  0  0  0  0
 22 24  1  0  0  0  0
 23 25  2  0  0  0  0
 24 26  2  0  0  0  0
 26 27  1  0  0  0  0
  4  6  1  0  0  0  0
 11 12  2  0  0  0  0
 18 21  1  0  0  0  0
 19 20  1  0  0  0  0
 25 26  1  0  0  0  0
M  END
>  <MolRegNo>
2071039

>  <m>
=

>  <Value>
700

>  <Unit>
nM

>  <Type>
IC50

>  <pValue>
6.16

>  <Ligand Efficiency>
0

>  <Binding Efficiency>
0

>  <Surface Efficiency>
0

>  <Assay Index>
996826

>  <Assay Category>


>  <Assay Organism>
Homo sapiens

>  <Target ID>
17045

>  <Target Name>
Cytochrome P450 3A4

>  <Target Organism>
Homo sapiens

>  <Target Description>
Target is a single protein chain

>  <Sequence Accession>
P08684

>  <Reference>
Bioorg Med Chem Lett 26 (5), 1498-1502 (2016)

>  <Pubmed ID>
26848108

>  <DOI>
10.1016/j.bmcl.2015.06.020

$$$$
2071048
Actelion Java MolfileCreator 1.0

 27 31  0  0  0  0  0  0  0  0999 V2000
    0.0000   -0.0000   -0.0000 N   0  0  0  0  0  0  0  0  0  0  0  0
   -1.3082   -0.7255   -0.0000 N   0  0  0  0  0  0  0  0  0  0  0  0
    1.1774   -1.0466   -0.0000 C   0  0  0  0  0  0  0  0  0  0  0  0
   -1.0823   -2.1764   -0.0000 C   0  0  0  0  0  0  0  0  0  0  0  0
   -2.6878   -0.0595   -0.0000 C   0  0  0  0  0  0  0  0  0  0  0  0
    2.5451   -0.7136   -0.0000 N   0  0  0  0  0  0  0  0  0  0  0  0
    0.4519   -2.4024   -0.0000 C   0  0  0  0  0  0  0  0  0  0  0  0
   -2.8187    1.4628   -0.0000 C   0  0  0  0  0  0  0  0  0  0  0  0
    3.6868   -1.6175   -0.0000 C   0  0  0  0  0  0  0  0  0  0  0  0
    1.1536   -3.7582   -0.0000 C   0  0  0  0  0  0  0  0  0  0  0  0
   -4.1982    2.1289   -0.0000 C   0  0  0  0  0  0  0  0  0  0  0  0
   -1.5818    2.3310   -0.0000 C   0  0  0  0  0  0  0  0  0  0  0  0
    3.6749   -3.1041   -0.0000 C   0  0  0  0  0  0  0  0  0  0  0  0
    5.0070   -0.7493   -0.0000 C   0  0  0  0  0  0  0  0  0  0  0  0
    2.5213   -4.0912   -0.0000 C   0  0  0  0  0  0  0  0  0  0  0  0
   -4.3172    3.6512   -0.0000 C   0  0  0  0  0  0  0  0  0  0  0  0
   -1.7007    3.8533   -0.0000 C   0  0  0  0  0  0  0  0  0  0  0  0
    4.9951   -3.8415   -0.0000 C   0  0  0  0  0  0  0  0  0  0  0  0
    6.3271   -1.5937   -0.0000 C   0  0  0  0  0  0  0  0  0  0  0  0
   -3.0803    4.5194   -0.0000 C   0  0  0  0  0  0  0  0  0  0  0  0
    6.3152   -3.0803   -0.0000 C   0  0  0  0  0  0  0  0  0  0  0  0
    7.6115   -3.8296   -0.0000 N   0  0  0  0  0  0  0  0  0  0  0  0
    8.9674   -3.1873   -0.0000 N   0  0  0  0  0  0  0  0  0  0  0  0
    7.7424   -5.3162   -0.0000 C   0  0  0  0  0  0  0  0  0  0  0  0
    9.9664   -4.3053   -0.0000 C   0  0  0  0  0  0  0  0  0  0  0  0
    9.2171   -5.6135   -0.0000 N   0  0  0  0  0  0  0  0  0  0  0  0
   11.1557   -4.1626   -0.0000 C   0  0  0  0  0  0  0  0  0  0  0  0
  1  2  1  0  0  0  0
  1  3  2  0  0  0  0
  2  4  1  0  0  0  0
  2  5  1  0  0  0  0
  3  6  1  0  0  0  0
  3  7  1  0  0  0  0
  5  8  1  0  0  0  0
  6  9  1  0  0  0  0
  7 10  1  0  0  0  0
  8 11  2  0  0  0  0
  8 12  1  0  0  0  0
  9 13  2  0  0  0  0
  9 14  1  0  0  0  0
 10 15  1  0  0  0  0
 11 16  1  0  0  0  0
 12 17  2  0  0  0  0
 13 18  1  0  0  0  0
 14 19  2  0  0  0  0
 16 20  2  0  0  0  0
 18 21  2  0  0  0  0
 21 22  1  0  0  0  0
 22 23  1  0  0  0  0
 22 24  1  0  0  0  0
 23 25  2  0  0  0  0
 24 26  2  0  0  0  0
 25 27  1  0  0  0  0
  4  7  2  0  0  0  0
 13 15  1  0  0  0  0
 17 20  1  0  0  0  0
 19 21  1  0  0  0  0
 25 26  1  0  0  0  0
M  END
>  <MolRegNo>
2071048

>  <m>
=

>  <Value>
300

>  <Unit>
nM

>  <Type>
IC50

>  <pValue>
6.52

>  <Ligand Efficiency>
0

>  <Binding Efficiency>
0

>  <Surface Efficiency>
0

>  <Assay Index>
996826

>  <Assay Category>


>  <Assay Organism>
Homo sapiens

>  <Target ID>
17045

>  <Target Name>
Cytochrome P450 3A4

>  <Target Organism>
Homo sapiens

>  <Target Description>
Target is a single protein chain

>  <Sequence Accession>
P08684

>  <Reference>
Bioorg Med Chem Lett 26 (5), 1498-1502 (2016)

>  <Pubmed ID>
26848108

>  <DOI>
10.1016/j.bmcl.2015.06.020

$$$$
2071049
Actelion Java MolfileCreator 1.0

 27 31  0  0  0  0  0  0  0  0999 V2000
    0.0000   -0.0000   -0.0000 Cl  0  0  0  0  0  0  0  0  0  0  0  0
   -1.2088   -0.1197   -0.0000 C   0  0  0  0  0  0  0  0  0  0  0  0
   -1.9748   -1.4123   -0.0000 N   0  0  0  0  0  0  0  0  0  0  0  0
   -2.2261    1.0053   -0.0000 C   0  0  0  0  0  0  0  0  0  0  0  0
   -3.4589   -1.0891   -0.0000 C   0  0  0  0  0  0  0  0  0  0  0  0
   -3.5905    0.3950   -0.0000 N   0  0  0  0  0  0  0  0  0  0  0  0
   -4.8951    1.1609   -0.0000 C   0  0  0  0  0  0  0  0  0  0  0  0
   -6.2236    0.4309   -0.0000 C   0  0  0  0  0  0  0  0  0  0  0  0
   -4.9070    2.6570   -0.0000 C   0  0  0  0  0  0  0  0  0  0  0  0
   -7.5521    1.1849   -0.0000 C   0  0  0  0  0  0  0  0  0  0  0  0
   -6.2355    3.5187   -0.0000 C   0  0  0  0  0  0  0  0  0  0  0  0
   -7.5640    2.6809   -0.0000 C   0  0  0  0  0  0  0  0  0  0  0  0
   -8.7130    0.2394   -0.0000 C   0  0  0  0  0  0  0  0  0  0  0  0
   -8.7250    3.6025   -0.0000 N   0  0  0  0  0  0  0  0  0  0  0  0
  -10.0894    0.5865   -0.0000 C   0  0  0  0  0  0  0  0  0  0  0  0
  -10.1013    3.2913   -0.0000 C   0  0  0  0  0  0  0  0  0  0  0  0
  -10.8075    1.9508   -0.0000 C   0  0  0  0  0  0  0  0  0  0  0  0
  -11.2982    4.3445   -0.0000 N   0  0  0  0  0  0  0  0  0  0  0  0
  -12.3394    2.1782   -0.0000 C   0  0  0  0  0  0  0  0  0  0  0  0
  -12.5907    3.6264   -0.0000 N   0  0  0  0  0  0  0  0  0  0  0  0
  -13.9551    4.2847   -0.0000 C   0  0  0  0  0  0  0  0  0  0  0  0
  -14.0748    5.7927   -0.0000 C   0  0  0  0  0  0  0  0  0  0  0  0
  -15.4392    6.4629   -0.0000 C   0  0  0  0  0  0  0  0  0  0  0  0
  -12.8421    6.6544   -0.0000 C   0  0  0  0  0  0  0  0  0  0  0  0
  -15.5589    7.9709   -0.0000 C   0  0  0  0  0  0  0  0  0  0  0  0
  -12.9618    8.1624   -0.0000 C   0  0  0  0  0  0  0  0  0  0  0  0
  -14.3262    8.8327   -0.0000 C   0  0  0  0  0  0  0  0  0  0  0  0
  1  2  1  0  0  0  0
  2  3  1  0  0  0  0
  2  4  2  0  0  0  0
  3  5  2  0  0  0  0
  4  6  1  0  0  0  0
  6  7  1  0  0  0  0
  7  8  2  0  0  0  0
  7  9  1  0  0  0  0
  8 10  1  0  0  0  0
  9 11  2  0  0  0  0
 10 12  2  0  0  0  0
 10 13  1  0  0  0  0
 12 14  1  0  0  0  0
 13 15  1  0  0  0  0
 14 16  1  0  0  0  0
 15 17  1  0  0  0  0
 16 18  2  0  0  0  0
 17 19  2  0  0  0  0
 18 20  1  0  0  0  0
 20 21  1  0  0  0  0
 21 22  1  0  0  0  0
 22 23  2  0  0  0  0
 22 24  1  0  0  0  0
 23 25  1  0  0  0  0
 24 26  2  0  0  0  0
 25 27  2  0  0  0  0
  5  6  1  0  0  0  0
 11 12  1  0  0  0  0
 16 17  1  0  0  0  0
 19 20  1  0  0  0  0
 26 27  1  0  0  0  0
M  END
>  <MolRegNo>
2071049

>  <m>
=

>  <Value>
300

>  <Unit>
nM

>  <Type>
IC50

>  <pValue>
6.52

>  <Ligand Efficiency>
0

>  <Binding Efficiency>
0

>  <Surface Efficiency>
0

>  <Assay Index>
996826

>  <Assay Category>


>  <Assay Organism>
Homo sapiens

>  <Target ID>
17045

>  <Target Name>
Cytochrome P450 3A4

>  <Target Organism>
Homo sapiens

>  <Target Description>
Target is a single protein chain

>  <Sequence Accession>
P08684

>  <Reference>
Bioorg Med Chem Lett 26 (5), 1498-1502 (2016)

>  <Pubmed ID>
26848108

>  <DOI>
10.1016/j.bmcl.2015.06.020

$$$$
2071050
Actelion Java MolfileCreator 1.0

 31 35  0  0  0  0  0  0  0  0999 V2000
    0.0000   -0.0000   -0.0000 O   0  0  0  0  0  0  0  0  0  0  0  0
   -0.2803   -1.1821   -0.0000 C   0  0  0  0  0  0  0  0  0  0  0  0
    0.8774   -2.0961   -0.0000 C   0  0  0  0  0  0  0  0  0  0  0  0
   -1.6817   -1.4989   -0.0000 C   0  0  0  0  0  0  0  0  0  0  0  0
    0.8652   -3.5950   -0.0000 C   0  0  0  0  0  0  0  0  0  0  0  0
    2.2057   -1.2186   -0.0000 C   0  0  0  0  0  0  0  0  0  0  0  0
   -2.9004   -0.4265   -0.0000 N   0  0  0  0  0  0  0  0  0  0  0  0
   -2.4129   -2.8638   -0.0000 C   0  0  0  0  0  0  0  0  0  0  0  0
    2.1936   -4.3384   -0.0000 C   0  0  0  0  0  0  0  0  0  0  0  0
   -0.3168   -4.5577   -0.0000 C   0  0  0  0  0  0  0  0  0  0  0  0
    3.5341   -2.0717   -0.0000 C   0  0  0  0  0  0  0  0  0  0  0  0
   -4.2165   -1.1577   -0.0000 C   0  0  0  0  0  0  0  0  0  0  0  0
   -3.9728   -2.6323   -0.0000 O   0  0  0  0  0  0  0  0  0  0  0  0
   -1.7061   -4.2287   -0.0000 C   0  0  0  0  0  0  0  0  0  0  0  0
    3.5219   -3.5706   -0.0000 C   0  0  0  0  0  0  0  0  0  0  0  0
   -5.6058   -0.4875   -0.0000 C   0  0  0  0  0  0  0  0  0  0  0  0
    4.8258   -4.3262   -0.0000 C   0  0  0  0  0  0  0  0  0  0  0  0
   -5.7276    1.0480   -0.0000 C   0  0  0  0  0  0  0  0  0  0  0  0
    4.8137   -5.8373   -0.0000 C   0  0  0  0  0  0  0  0  0  0  0  0
    6.1420   -3.5463   -0.0000 C   0  0  0  0  0  0  0  0  0  0  0  0
   -7.1169    1.7305   -0.0000 C   0  0  0  0  0  0  0  0  0  0  0  0
   -4.4724    1.9255   -0.0000 C   0  0  0  0  0  0  0  0  0  0  0  0
    6.1298   -6.5929   -0.0000 C   0  0  0  0  0  0  0  0  0  0  0  0
    7.4581   -4.3018   -0.0000 C   0  0  0  0  0  0  0  0  0  0  0  0
   -7.2388    3.2660   -0.0000 C   0  0  0  0  0  0  0  0  0  0  0  0
   -4.5943    3.4610   -0.0000 C   0  0  0  0  0  0  0  0  0  0  0  0
    7.4459   -5.8129   -0.0000 N   0  0  0  0  0  0  0  0  0  0  0  0
    6.1176   -7.7993   -0.0000 C   0  0  0  0  0  0  0  0  0  0  0  0
   -5.9836    4.1434   -0.0000 C   0  0  0  0  0  0  0  0  0  0  0  0
   -6.1054    5.6789   -0.0000 O   0  0  0  0  0  0  0  0  0  0  0  0
   -5.1061    6.3735   -0.0000 C   0  0  0  0  0  0  0  0  0  0  0  0
  1  2  2  0  0  0  0
  2  3  1  0  0  0  0
  2  4  1  0  0  0  0
  3  5  2  0  0  0  0
  3  6  1  0  0  0  0
  4  7  1  0  0  0  0
  4  8  2  0  0  0  0
  5  9  1  0  0  0  0
  5 10  1  0  0  0  0
  6 11  2  0  0  0  0
  7 12  2  0  0  0  0
  8 13  1  0  0  0  0
  8 14  1  0  0  0  0
  9 15  2  0  0  0  0
 12 16  1  0  0  0  0
 15 17  1  0  0  0  0
 16 18  1  0  0  0  0
 17 19  2  0  0  0  0
 17 20  1  0  0  0  0
 18 21  2  0  0  0  0
 18 22  1  0  0  0  0
 19 23  1  0  0  0  0
 20 24  2  0  0  0  0
 21 25  1  0  0  0  0
 22 26  2  0  0  0  0
 23 27  2  0  0  0  0
 23 28  1  0  0  0  0
 25 29  2  0  0  0  0
 29 30  1  0  0  0  0
 30 31  1  0  0  0  0
 10 14  1  0  0  0  0
 11 15  1  0  0  0  0
 12 13  1  0  0  0  0
 24 27  1  0  0  0  0
 26 29  1  0  0  0  0
M  END
>  <MolRegNo>
2071050

>  <m>
=

>  <Value>
300

>  <Unit>
nM

>  <Type>
IC50

>  <pValue>
6.52

>  <Ligand Efficiency>
0

>  <Binding Efficiency>
0

>  <Surface Efficiency>
0

>  <Assay Index>
996826

>  <Assay Category>


>  <Assay Organism>
Homo sapiens

>  <Target ID>
17045

>  <Target Name>
Cytochrome P450 3A4

>  <Target Organism>
Homo sapiens

>  <Target Description>
Target is a single protein chain

>  <Sequence Accession>
P08684

>  <Reference>
Bioorg Med Chem Lett 26 (5), 1498-1502 (2016)

>  <Pubmed ID>
26848108

>  <DOI>
10.1016/j.bmcl.2015.06.020

$$$$
2071051
Actelion Java MolfileCreator 1.0

 31 35  0  0  0  0  0  0  0  0999 V2000
    0.0000   -0.0000   -0.0000 O   0  0  0  0  0  0  0  0  0  0  0  0
   -0.2820   -1.1893   -0.0000 C   0  0  0  0  0  0  0  0  0  0  0  0
    0.8828   -2.1088   -0.0000 C   0  0  0  0  0  0  0  0  0  0  0  0
   -1.6920   -1.5081   -0.0000 C   0  0  0  0  0  0  0  0  0  0  0  0
    0.8705   -3.6169   -0.0000 C   0  0  0  0  0  0  0  0  0  0  0  0
    2.2192   -1.2261   -0.0000 C   0  0  0  0  0  0  0  0  0  0  0  0
   -2.9181   -0.4291   -0.0000 N   0  0  0  0  0  0  0  0  0  0  0  0
   -2.4276   -2.8813   -0.0000 C   0  0  0  0  0  0  0  0  0  0  0  0
    2.2069   -4.3648   -0.0000 C   0  0  0  0  0  0  0  0  0  0  0  0
   -0.3188   -4.5855   -0.0000 C   0  0  0  0  0  0  0  0  0  0  0  0
    3.5556   -2.0843   -0.0000 C   0  0  0  0  0  0  0  0  0  0  0  0
   -4.2422   -1.1648   -0.0000 C   0  0  0  0  0  0  0  0  0  0  0  0
   -3.9970   -2.6483   -0.0000 N   0  0  0  0  0  0  0  0  0  0  0  0
   -1.7165   -4.2545   -0.0000 C   0  0  0  0  0  0  0  0  0  0  0  0
    3.5434   -3.5924   -0.0000 C   0  0  0  0  0  0  0  0  0  0  0  0
   -5.6399   -0.4904   -0.0000 C   0  0  0  0  0  0  0  0  0  0  0  0
   -4.8675   -3.5188   -0.0000 C   0  0  0  0  0  0  0  0  0  0  0  0
    4.8553   -4.3526   -0.0000 N   0  0  0  0  0  0  0  0  0  0  0  0
   -5.7625    1.0544   -0.0000 C   0  0  0  0  0  0  0  0  0  0  0  0
    6.2285   -3.7027   -0.0000 C   0  0  0  0  0  0  0  0  0  0  0  0
    4.9901   -5.8606   -0.0000 C   0  0  0  0  0  0  0  0  0  0  0  0
   -7.1603    1.7410   -0.0000 C   0  0  0  0  0  0  0  0  0  0  0  0
   -4.4997    1.9372   -0.0000 C   0  0  0  0  0  0  0  0  0  0  0  0
    7.2461   -4.8307   -0.0000 N   0  0  0  0  0  0  0  0  0  0  0  0
    6.4859   -6.1672   -0.0000 C   0  0  0  0  0  0  0  0  0  0  0  0
   -7.2829    3.2859   -0.0000 C   0  0  0  0  0  0  0  0  0  0  0  0
   -4.6223    3.4821   -0.0000 C   0  0  0  0  0  0  0  0  0  0  0  0
    6.9764   -7.2829   -0.0000 C   0  0  0  0  0  0  0  0  0  0  0  0
   -6.0200    4.1687   -0.0000 C   0  0  0  0  0  0  0  0  0  0  0  0
   -6.1426    5.7135   -0.0000 O   0  0  0  0  0  0  0  0  0  0  0  0
   -5.1373    6.4124   -0.0000 C   0  0  0  0  0  0  0  0  0  0  0  0
  1  2  2  0  0  0  0
  2  3  1  0  0  0  0
  2  4  1  0  0  0  0
  3  5  2  0  0  0  0
  3  6  1  0  0  0  0
  4  7  1  0  0  0  0
  4  8  2  0  0  0  0
  5  9  1  0  0  0  0
  5 10  1  0  0  0  0
  6 11  2  0  0  0  0
  7 12  2  0  0  0  0
  8 13  1  0  0  0  0
  8 14  1  0  0  0  0
  9 15  2  0  0  0  0
 12 16  1  0  0  0  0
 13 17  1  0  0  0  0
 15 18  1  0  0  0  0
 16 19  1  0  0  0  0
 18 20  1  0  0  0  0
 18 21  1  0  0  0  0
 19 22  2  0  0  0  0
 19 23  1  0  0  0  0
 20 24  2  0  0  0  0
 21 25  2  0  0  0  0
 22 26  1  0  0  0  0
 23 27  2  0  0  0  0
 25 28  1  0  0  0  0
 26 29  2  0  0  0  0
 29 30  1  0  0  0  0
 30 31  1  0  0  0  0
 10 14  1  0  0  0  0
 11 15  1  0  0  0  0
 12 13  1  0  0  0  0
 24 25  1  0  0  0  0
 27 29  1  0  0  0  0
M  END
>  <MolRegNo>
2071051

>  <m>
=

>  <Value>
300

>  <Unit>
nM

>  <Type>
IC50

>  <pValue>
6.52

>  <Ligand Efficiency>
0

>  <Binding Efficiency>
0

>  <Surface Efficiency>
0

>  <Assay Index>
996826

>  <Assay Category>


>  <Assay Organism>
Homo sapiens

>  <Target ID>
17045

>  <Target Name>
Cytochrome P450 3A4

>  <Target Organism>
Homo sapiens

>  <Target Description>
Target is a single protein chain

>  <Sequence Accession>
P08684

>  <Reference>
Bioorg Med Chem Lett 26 (5), 1498-1502 (2016)

>  <Pubmed ID>
26848108

>  <DOI>
10.1016/j.bmcl.2015.06.020

$$$$
2071052
Actelion Java MolfileCreator 1.0

 32 36  0  0  0  0  0  0  0  0999 V2000
    0.0000   -0.0000   -0.0000 O   0  0  0  0  0  0  0  0  0  0  0  0
   -0.2817   -1.1882   -0.0000 C   0  0  0  0  0  0  0  0  0  0  0  0
    0.8819   -2.1069   -0.0000 C   0  0  0  0  0  0  0  0  0  0  0  0
   -1.6904   -1.5066   -0.0000 C   0  0  0  0  0  0  0  0  0  0  0  0
    0.8697   -3.6135   -0.0000 C   0  0  0  0  0  0  0  0  0  0  0  0
    2.2171   -1.2249   -0.0000 C   0  0  0  0  0  0  0  0  0  0  0  0
   -2.9153   -0.4287   -0.0000 N   0  0  0  0  0  0  0  0  0  0  0  0
   -2.4253   -2.8785   -0.0000 C   0  0  0  0  0  0  0  0  0  0  0  0
    2.2048   -4.3607   -0.0000 C   0  0  0  0  0  0  0  0  0  0  0  0
   -0.3185   -4.5812   -0.0000 C   0  0  0  0  0  0  0  0  0  0  0  0
    3.5523   -2.0824   -0.0000 C   0  0  0  0  0  0  0  0  0  0  0  0
   -4.2382   -1.1637   -0.0000 C   0  0  0  0  0  0  0  0  0  0  0  0
   -3.9932   -2.6458   -0.0000 N   0  0  0  0  0  0  0  0  0  0  0  0
   -1.7149   -4.2505   -0.0000 C   0  0  0  0  0  0  0  0  0  0  0  0
    3.5400   -3.5890   -0.0000 C   0  0  0  0  0  0  0  0  0  0  0  0
   -5.6346   -0.4900   -0.0000 C   0  0  0  0  0  0  0  0  0  0  0  0
   -4.8629   -3.5155   -0.0000 C   0  0  0  0  0  0  0  0  0  0  0  0
    4.8507   -4.3484   -0.0000 C   0  0  0  0  0  0  0  0  0  0  0  0
   -5.7571    1.0534   -0.0000 C   0  0  0  0  0  0  0  0  0  0  0  0
    4.8384   -5.8673   -0.0000 C   0  0  0  0  0  0  0  0  0  0  0  0
    6.1736   -3.5645   -0.0000 C   0  0  0  0  0  0  0  0  0  0  0  0
   -7.1535    1.7394   -0.0000 C   0  0  0  0  0  0  0  0  0  0  0  0
   -4.4954    1.9354   -0.0000 C   0  0  0  0  0  0  0  0  0  0  0  0
    6.1613   -6.6268   -0.0000 C   0  0  0  0  0  0  0  0  0  0  0  0
    7.4965   -4.3239   -0.0000 C   0  0  0  0  0  0  0  0  0  0  0  0
   -7.2760    3.2828   -0.0000 C   0  0  0  0  0  0  0  0  0  0  0  0
   -4.6179    3.4788   -0.0000 C   0  0  0  0  0  0  0  0  0  0  0  0
    7.4842   -5.8428   -0.0000 N   0  0  0  0  0  0  0  0  0  0  0  0
    6.1491   -7.8395   -0.0000 C   0  0  0  0  0  0  0  0  0  0  0  0
   -6.0143    4.1647   -0.0000 C   0  0  0  0  0  0  0  0  0  0  0  0
   -6.1368    5.7081   -0.0000 O   0  0  0  0  0  0  0  0  0  0  0  0
   -5.1324    6.4063   -0.0000 C   0  0  0  0  0  0  0  0  0  0  0  0
  1  2  2  0  0  0  0
  2  3  1  0  0  0  0
  2  4  1  0  0  0  0
  3  5  2  0  0  0  0
  3  6  1  0  0  0  0
  4  7  1  0  0  0  0
  4  8  2  0  0  0  0
  5  9  1  0  0  0  0
  5 10  1  0  0  0  0
  6 11  2  0  0  0  0
  7 12  2  0  0  0  0
  8 13  1  0  0  0  0
  8 14  1  0  0  0  0
  9 15  2  0  0  0  0
 12 16  1  0  0  0  0
 13 17  1  0  0  0  0
 15 18  1  0  0  0  0
 16 19  1  0  0  0  0
 18 20  2  0  0  0  0
 18 21  1  0  0  0  0
 19 22  2  0  0  0  0
 19 23  1  0  0  0  0
 20 24  1  0  0  0  0
 21 25  2  0  0  0  0
 22 26  1  0  0  0  0
 23 27  2  0  0  0  0
 24 28  2  0  0  0  0
 24 29  1  0  0  0  0
 26 30  2  0  0  0  0
 30 31  1  0  0  0  0
 31 32  1  0  0  0  0
 10 14  1  0  0  0  0
 11 15  1  0  0  0  0
 12 13  1  0  0  0  0
 25 28  1  0  0  0  0
 27 30  1  0  0  0  0
M  END
>  <MolRegNo>
2071052

>  <m>
=

>  <Value>
300

>  <Unit>
nM

>  <Type>
IC50

>  <pValue>
6.52

>  <Ligand Efficiency>
0

>  <Binding Efficiency>
0

>  <Surface Efficiency>
0

>  <Assay Index>
996826

>  <Assay Category>


>  <Assay Organism>
Homo sapiens

>  <Target ID>
17045

>  <Target Name>
Cytochrome P450 3A4

>  <Target Organism>
Homo sapiens

>  <Target Description>
Target is a single protein chain

>  <Sequence Accession>
P08684

>  <Reference>
Bioorg Med Chem Lett 26 (5), 1498-1502 (2016)

>  <Pubmed ID>
26848108

>  <DOI>
10.1016/j.bmcl.2015.06.020

$$$$
2071053
Actelion Java MolfileCreator 1.0

 30 34  0  0  0  0  0  0  0  0999 V2000
    0.0000   -0.0000   -0.0000 F   0  0  0  0  0  0  0  0  0  0  0  0
   -0.2450    1.2129   -0.0000 C   0  0  0  0  0  0  0  0  0  0  0  0
   -1.7030    1.7275   -0.0000 C   0  0  0  0  0  0  0  0  0  0  0  0
    0.8944    2.2298   -0.0000 C   0  0  0  0  0  0  0  0  0  0  0  0
   -2.0092    3.2466   -0.0000 C   0  0  0  0  0  0  0  0  0  0  0  0
    0.5881    3.7490   -0.0000 C   0  0  0  0  0  0  0  0  0  0  0  0
   -0.8699    4.2635   -0.0000 C   0  0  0  0  0  0  0  0  0  0  0  0
   -1.1639    5.7827   -0.0000 C   0  0  0  0  0  0  0  0  0  0  0  0
   -0.0245    6.7996   -0.0000 C   0  0  0  0  0  0  0  0  0  0  0  0
    1.4457    6.3095   -0.0000 N   0  0  0  0  0  0  0  0  0  0  0  0
   -0.3553    8.2453   -0.0000 C   0  0  0  0  0  0  0  0  0  0  0  0
    2.5606    7.3754   -0.0000 C   0  0  0  0  0  0  0  0  0  0  0  0
    0.7596    9.3234   -0.0000 C   0  0  0  0  0  0  0  0  0  0  0  0
    3.9082    6.7261   -0.0000 C   0  0  0  0  0  0  0  0  0  0  0  0
    2.2175    8.8946   -0.0000 C   0  0  0  0  0  0  0  0  0  0  0  0
    3.8837    5.5132   -0.0000 O   0  0  0  0  0  0  0  0  0  0  0  0
    5.2804    7.3876   -0.0000 C   0  0  0  0  0  0  0  0  0  0  0  0
    3.1364   10.0952   -0.0000 C   0  0  0  0  0  0  0  0  0  0  0  0
    5.6357    8.8578   -0.0000 C   0  0  0  0  0  0  0  0  0  0  0  0
    6.4075    6.3708   -0.0000 C   0  0  0  0  0  0  0  0  0  0  0  0
    4.6801   10.1075   -0.0000 C   0  0  0  0  0  0  0  0  0  0  0  0
    7.0814    9.2989   -0.0000 C   0  0  0  0  0  0  0  0  0  0  0  0
    7.8777    6.8241   -0.0000 C   0  0  0  0  0  0  0  0  0  0  0  0
    8.1962    8.2575   -0.0000 C   0  0  0  0  0  0  0  0  0  0  0  0
    9.6419    8.7108   -0.0000 N   0  0  0  0  0  0  0  0  0  0  0  0
   10.1075   10.1565   -0.0000 C   0  0  0  0  0  0  0  0  0  0  0  0
   10.8303    7.7919   -0.0000 C   0  0  0  0  0  0  0  0  0  0  0  0
   11.6267   10.1320   -0.0000 N   0  0  0  0  0  0  0  0  0  0  0  0
   12.0677    8.6741   -0.0000 C   0  0  0  0  0  0  0  0  0  0  0  0
   13.2071    8.2820   -0.0000 C   0  0  0  0  0  0  0  0  0  0  0  0
  1  2  1  0  0  0  0
  2  3  2  0  0  0  0
  2  4  1  0  0  0  0
  3  5  1  0  0  0  0
  4  6  2  0  0  0  0
  5  7  2  0  0  0  0
  7  8  1  0  0  0  0
  8  9  1  0  0  0  0
  9 10  2  0  0  0  0
  9 11  1  0  0  0  0
 10 12  1  0  0  0  0
 11 13  2  0  0  0  0
 12 14  1  0  0  0  0
 12 15  2  0  0  0  0
 14 16  2  0  0  0  0
 14 17  1  0  0  0  0
 15 18  1  0  0  0  0
 17 19  2  0  0  0  0
 17 20  1  0  0  0  0
 18 21  1  0  0  0  0
 19 22  1  0  0  0  0
 20 23  2  0  0  0  0
 22 24  2  0  0  0  0
 24 25  1  0  0  0  0
 25 26  1  0  0  0  0
 25 27  1  0  0  0  0
 26 28  2  0  0  0  0
 27 29  2  0  0  0  0
 29 30  1  0  0  0  0
  6  7  1  0  0  0  0
 13 15  1  0  0  0  0
 19 21  1  0  0  0  0
 23 24  1  0  0  0  0
 28 29  1  0  0  0  0
M  END
>  <MolRegNo>
2071053

>  <m>
=

>  <Value>
300

>  <Unit>
nM

>  <Type>
IC50

>  <pValue>
6.52

>  <Ligand Efficiency>
0

>  <Binding Efficiency>
0

>  <Surface Efficiency>
0

>  <Assay Index>
996826

>  <Assay Category>


>  <Assay Organism>
Homo sapiens

>  <Target ID>
17045

>  <Target Name>
Cytochrome P450 3A4

>  <Target Organism>
Homo sapiens

>  <Target Description>
Target is a single protein chain

>  <Sequence Accession>
P08684

>  <Reference>
Bioorg Med Chem Lett 26 (5), 1498-1502 (2016)

>  <Pubmed ID>
26848108

>  <DOI>
10.1016/j.bmcl.2015.06.020

$$$$
2071054
Actelion Java MolfileCreator 1.0

 29 33  0  0  0  0  0  0  0  0999 V2000
    0.0000   -0.0000   -0.0000 O   0  0  0  0  0  0  0  0  0  0  0  0
    0.5262   -1.0891   -0.0000 C   0  0  0  0  0  0  0  0  0  0  0  0
    2.0681   -1.0769   -0.0000 N   0  0  0  0  0  0  0  0  0  0  0  0
   -0.4161   -2.2639   -0.0000 C   0  0  0  0  0  0  0  0  0  0  0  0
    3.0103   -2.3128   -0.0000 C   0  0  0  0  0  0  0  0  0  0  0  0
   -0.0979   -3.7568   -0.0000 C   0  0  0  0  0  0  0  0  0  0  0  0
   -1.8845   -1.8111   -0.0000 C   0  0  0  0  0  0  0  0  0  0  0  0
    2.6310   -3.7568   -0.0000 C   0  0  0  0  0  0  0  0  0  0  0  0
    4.4543   -1.8723   -0.0000 C   0  0  0  0  0  0  0  0  0  0  0  0
   -1.2359   -4.7969   -0.0000 N   0  0  0  0  0  0  0  0  0  0  0  0
    1.2482   -4.4053   -0.0000 N   0  0  0  0  0  0  0  0  0  0  0  0
   -3.0225   -2.8635   -0.0000 C   0  0  0  0  0  0  0  0  0  0  0  0
    3.7568   -4.7724   -0.0000 C   0  0  0  0  0  0  0  0  0  0  0  0
    5.5678   -2.9124   -0.0000 C   0  0  0  0  0  0  0  0  0  0  0  0
   -2.7289   -4.2830   -0.0000 C   0  0  0  0  0  0  0  0  0  0  0  0
    5.2252   -4.3197   -0.0000 C   0  0  0  0  0  0  0  0  0  0  0  0
    7.0118   -2.4596   -0.0000 N   0  0  0  0  0  0  0  0  0  0  0  0
   -3.8914   -5.2742   -0.0000 C   0  0  0  0  0  0  0  0  0  0  0  0
    7.4768   -1.0157   -0.0000 C   0  0  0  0  0  0  0  0  0  0  0  0
    8.1988   -3.3774   -0.0000 C   0  0  0  0  0  0  0  0  0  0  0  0
   -3.6222   -6.7671   -0.0000 C   0  0  0  0  0  0  0  0  0  0  0  0
    8.9942   -1.0401   -0.0000 N   0  0  0  0  0  0  0  0  0  0  0  0
    9.4348   -2.4964   -0.0000 C   0  0  0  0  0  0  0  0  0  0  0  0
   -4.7847   -7.7583   -0.0000 C   0  0  0  0  0  0  0  0  0  0  0  0
   -2.1904   -7.2566   -0.0000 C   0  0  0  0  0  0  0  0  0  0  0  0
   10.5728   -2.8879   -0.0000 C   0  0  0  0  0  0  0  0  0  0  0  0
   -4.5032   -9.2512   -0.0000 C   0  0  0  0  0  0  0  0  0  0  0  0
   -1.9090   -8.7495   -0.0000 C   0  0  0  0  0  0  0  0  0  0  0  0
   -3.0715   -9.7407   -0.0000 C   0  0  0  0  0  0  0  0  0  0  0  0
  1  2  2  0  0  0  0
  2  3  1  0  0  0  0
  2  4  1  0  0  0  0
  3  5  1  0  0  0  0
  4  6  2  0  0  0  0
  4  7  1  0  0  0  0
  5  8  2  0  0  0  0
  5  9  1  0  0  0  0
  6 10  1  0  0  0  0
  6 11  1  0  0  0  0
  7 12  2  0  0  0  0
  8 13  1  0  0  0  0
  9 14  2  0  0  0  0
 10 15  2  0  0  0  0
 13 16  2  0  0  0  0
 14 17  1  0  0  0  0
 15 18  1  0  0  0  0
 17 19  1  0  0  0  0
 17 20  1  0  0  0  0
 18 21  1  0  0  0  0
 19 22  2  0  0  0  0
 20 23  2  0  0  0  0
 21 24  2  0  0  0  0
 21 25  1  0  0  0  0
 23 26  1  0  0  0  0
 24 27  1  0  0  0  0
 25 28  2  0  0  0  0
 27 29  2  0  0  0  0
  8 11  1  0  0  0  0
 12 15  1  0  0  0  0
 14 16  1  0  0  0  0
 22 23  1  0  0  0  0
 28 29  1  0  0  0  0
M  END
>  <MolRegNo>
2071054

>  <m>
=

>  <Value>
150

>  <Unit>
nM

>  <Type>
IC50

>  <pValue>
6.82

>  <Ligand Efficiency>
0

>  <Binding Efficiency>
0

>  <Surface Efficiency>
0

>  <Assay Index>
996826

>  <Assay Category>


>  <Assay Organism>
Homo sapiens

>  <Target ID>
17045

>  <Target Name>
Cytochrome P450 3A4

>  <Target Organism>
Homo sapiens

>  <Target Description>
Target is a single protein chain

>  <Sequence Accession>
P08684

>  <Reference>
Bioorg Med Chem Lett 26 (5), 1498-1502 (2016)

>  <Pubmed ID>
26848108

>  <DOI>
10.1016/j.bmcl.2015.06.020

$$$$
2071056
Actelion Java MolfileCreator 1.0

 29 33  0  0  0  0  0  0  0  0999 V2000
    0.0000   -0.0000   -0.0000 O   0  0  0  0  0  0  0  0  0  0  0  0
    0.5262   -1.0891   -0.0000 C   0  0  0  0  0  0  0  0  0  0  0  0
    2.0681   -1.0769   -0.0000 N   0  0  0  0  0  0  0  0  0  0  0  0
   -0.4161   -2.2639   -0.0000 C   0  0  0  0  0  0  0  0  0  0  0  0
    3.0103   -2.3128   -0.0000 C   0  0  0  0  0  0  0  0  0  0  0  0
   -0.0979   -3.7568   -0.0000 C   0  0  0  0  0  0  0  0  0  0  0  0
   -1.8845   -1.8111   -0.0000 C   0  0  0  0  0  0  0  0  0  0  0  0
    2.6310   -3.7568   -0.0000 C   0  0  0  0  0  0  0  0  0  0  0  0
    4.4543   -1.8723   -0.0000 C   0  0  0  0  0  0  0  0  0  0  0  0
   -1.2359   -4.7969   -0.0000 N   0  0  0  0  0  0  0  0  0  0  0  0
    1.2482   -4.4053   -0.0000 N   0  0  0  0  0  0  0  0  0  0  0  0
   -3.0225   -2.8635   -0.0000 C   0  0  0  0  0  0  0  0  0  0  0  0
    3.7568   -4.7724   -0.0000 C   0  0  0  0  0  0  0  0  0  0  0  0
    5.5678   -2.9124   -0.0000 C   0  0  0  0  0  0  0  0  0  0  0  0
   -2.7289   -4.2830   -0.0000 C   0  0  0  0  0  0  0  0  0  0  0  0
    5.2252   -4.3197   -0.0000 C   0  0  0  0  0  0  0  0  0  0  0  0
    7.0118   -2.4596   -0.0000 N   0  0  0  0  0  0  0  0  0  0  0  0
   -3.8914   -5.2742   -0.0000 C   0  0  0  0  0  0  0  0  0  0  0  0
    8.1988   -3.3774   -0.0000 N   0  0  0  0  0  0  0  0  0  0  0  0
    7.4768   -1.0157   -0.0000 C   0  0  0  0  0  0  0  0  0  0  0  0
   -3.6222   -6.7671   -0.0000 C   0  0  0  0  0  0  0  0  0  0  0  0
    9.4348   -2.4964   -0.0000 C   0  0  0  0  0  0  0  0  0  0  0  0
    8.9942   -1.0401   -0.0000 N   0  0  0  0  0  0  0  0  0  0  0  0
   -4.7847   -7.7583   -0.0000 C   0  0  0  0  0  0  0  0  0  0  0  0
   -2.1904   -7.2566   -0.0000 C   0  0  0  0  0  0  0  0  0  0  0  0
   10.5728   -2.8879   -0.0000 C   0  0  0  0  0  0  0  0  0  0  0  0
   -4.5032   -9.2512   -0.0000 C   0  0  0  0  0  0  0  0  0  0  0  0
   -1.9090   -8.7495   -0.0000 C   0  0  0  0  0  0  0  0  0  0  0  0
   -3.0715   -9.7407   -0.0000 C   0  0  0  0  0  0  0  0  0  0  0  0
  1  2  2  0  0  0  0
  2  3  1  0  0  0  0
  2  4  1  0  0  0  0
  3  5  1  0  0  0  0
  4  6  2  0  0  0  0
  4  7  1  0  0  0  0
  5  8  2  0  0  0  0
  5  9  1  0  0  0  0
  6 10  1  0  0  0  0
  6 11  1  0  0  0  0
  7 12  2  0  0  0  0
  8 13  1  0  0  0  0
  9 14  2  0  0  0  0
 10 15  2  0  0  0  0
 13 16  2  0  0  0  0
 14 17  1  0  0  0  0
 15 18  1  0  0  0  0
 17 19  1  0  0  0  0
 17 20  1  0  0  0  0
 18 21  1  0  0  0  0
 19 22  2  0  0  0  0
 20 23  2  0  0  0  0
 21 24  2  0  0  0  0
 21 25  1  0  0  0  0
 22 26  1  0  0  0  0
 24 27  1  0  0  0  0
 25 28  2  0  0  0  0
 27 29  2  0  0  0  0
  8 11  1  0  0  0  0
 12 15  1  0  0  0  0
 14 16  1  0  0  0  0
 22 23  1  0  0  0  0
 28 29  1  0  0  0  0
M  END
>  <MolRegNo>
2071056

>  <m>
=

>  <Value>
2000

>  <Unit>
nM

>  <Type>
IC50

>  <pValue>
5.7

>  <Ligand Efficiency>
0

>  <Binding Efficiency>
0

>  <Surface Efficiency>
0

>  <Assay Index>
996826

>  <Assay Category>


>  <Assay Organism>
Homo sapiens

>  <Target ID>
17045

>  <Target Name>
Cytochrome P450 3A4

>  <Target Organism>
Homo sapiens

>  <Target Description>
Target is a single protein chain

>  <Sequence Accession>
P08684

>  <Reference>
Bioorg Med Chem Lett 26 (5), 1498-1502 (2016)

>  <Pubmed ID>
26848108

>  <DOI>
10.1016/j.bmcl.2015.06.020

$$$$
2071057
Actelion Java MolfileCreator 1.0

 30 34  0  0  0  0  0  0  0  0999 V2000
    0.0000   -0.0000   -0.0000 F   0  0  0  0  0  0  0  0  0  0  0  0
   -0.9036    0.8425   -0.0000 C   0  0  0  0  0  0  0  0  0  0  0  0
   -0.5861    2.2833   -0.0000 C   0  0  0  0  0  0  0  0  0  0  0  0
   -2.3932    0.4151   -0.0000 C   0  0  0  0  0  0  0  0  0  0  0  0
    0.8547    2.7351   -0.0000 N   0  0  0  0  0  0  0  0  0  0  0  0
   -1.7216    3.3456   -0.0000 C   0  0  0  0  0  0  0  0  0  0  0  0
   -3.5410    1.4530   -0.0000 C   0  0  0  0  0  0  0  0  0  0  0  0
    1.3187    4.1759   -0.0000 C   0  0  0  0  0  0  0  0  0  0  0  0
    2.0391    1.8193   -0.0000 C   0  0  0  0  0  0  0  0  0  0  0  0
   -3.1869    2.9305   -0.0000 C   0  0  0  0  0  0  0  0  0  0  0  0
   -4.9329    0.8181   -0.0000 N   0  0  0  0  0  0  0  0  0  0  0  0
    2.8328    4.1515   -0.0000 N   0  0  0  0  0  0  0  0  0  0  0  0
    3.2723    2.6985   -0.0000 C   0  0  0  0  0  0  0  0  0  0  0  0
   -4.1515    4.1881   -0.0000 N   0  0  0  0  0  0  0  0  0  0  0  0
   -6.3005    1.4896   -0.0000 C   0  0  0  0  0  0  0  0  0  0  0  0
    4.4079    2.3077   -0.0000 C   0  0  0  0  0  0  0  0  0  0  0  0
   -5.7144    4.2003   -0.0000 C   0  0  0  0  0  0  0  0  0  0  0  0
   -7.4360    0.4518   -0.0000 N   0  0  0  0  0  0  0  0  0  0  0  0
   -6.6424    3.0037   -0.0000 C   0  0  0  0  0  0  0  0  0  0  0  0
   -6.2638    5.3115   -0.0000 O   0  0  0  0  0  0  0  0  0  0  0  0
   -8.9257    0.9646   -0.0000 C   0  0  0  0  0  0  0  0  0  0  0  0
   -8.1076    3.4555   -0.0000 C   0  0  0  0  0  0  0  0  0  0  0  0
   -9.2554    2.4054   -0.0000 C   0  0  0  0  0  0  0  0  0  0  0  0
  -10.0857   -0.0244   -0.0000 C   0  0  0  0  0  0  0  0  0  0  0  0
   -9.8170   -1.5141   -0.0000 C   0  0  0  0  0  0  0  0  0  0  0  0
  -10.9770   -2.5031   -0.0000 C   0  0  0  0  0  0  0  0  0  0  0  0
   -8.3884   -2.0025   -0.0000 C   0  0  0  0  0  0  0  0  0  0  0  0
  -10.6962   -3.9927   -0.0000 C   0  0  0  0  0  0  0  0  0  0  0  0
   -8.1076   -3.4921   -0.0000 C   0  0  0  0  0  0  0  0  0  0  0  0
   -9.2676   -4.4812   -0.0000 C   0  0  0  0  0  0  0  0  0  0  0  0
  1  2  1  0  0  0  0
  2  3  2  0  0  0  0
  2  4  1  0  0  0  0
  3  5  1  0  0  0  0
  3  6  1  0  0  0  0
  4  7  2  0  0  0  0
  5  8  1  0  0  0  0
  5  9  1  0  0  0  0
  6 10  2  0  0  0  0
  7 11  1  0  0  0  0
  8 12  2  0  0  0  0
  9 13  2  0  0  0  0
 10 14  1  0  0  0  0
 11 15  1  0  0  0  0
 13 16  1  0  0  0  0
 14 17  1  0  0  0  0
 15 18  2  0  0  0  0
 15 19  1  0  0  0  0
 17 20  2  0  0  0  0
 18 21  1  0  0  0  0
 19 22  2  0  0  0  0
 21 23  2  0  0  0  0
 21 24  1  0  0  0  0
 24 25  1  0  0  0  0
 25 26  2  0  0  0  0
 25 27  1  0  0  0  0
 26 28  1  0  0  0  0
 27 29  2  0  0  0  0
 28 30  2  0  0  0  0
  7 10  1  0  0  0  0
 12 13  1  0  0  0  0
 17 19  1  0  0  0  0
 22 23  1  0  0  0  0
 29 30  1  0  0  0  0
M  END
>  <MolRegNo>
2071057

>  <m>
=

>  <Value>
30

>  <Unit>
nM

>  <Type>
IC50

>  <pValue>
7.52

>  <Ligand Efficiency>
0

>  <Binding Efficiency>
0

>  <Surface Efficiency>
0

>  <Assay Index>
996826

>  <Assay Category>


>  <Assay Organism>
Homo sapiens

>  <Target ID>
17045

>  <Target Name>
Cytochrome P450 3A4

>  <Target Organism>
Homo sapiens

>  <Target Description>
Target is a single protein chain

>  <Sequence Accession>
P08684

>  <Reference>
Bioorg Med Chem Lett 26 (5), 1498-1502 (2016)

>  <Pubmed ID>
26848108

>  <DOI>
10.1016/j.bmcl.2015.06.020

$$$$
2071058
Actelion Java MolfileCreator 1.0

 30 34  0  0  0  0  0  0  0  0999 V2000
    0.0000   -0.0000   -0.0000 O   0  0  0  0  0  0  0  0  0  0  0  0
    0.5289   -1.0948   -0.0000 C   0  0  0  0  0  0  0  0  0  0  0  0
    2.0789   -1.0825   -0.0000 N   0  0  0  0  0  0  0  0  0  0  0  0
   -0.4182   -2.2757   -0.0000 C   0  0  0  0  0  0  0  0  0  0  0  0
    3.0260   -2.3249   -0.0000 C   0  0  0  0  0  0  0  0  0  0  0  0
   -0.0984   -3.7764   -0.0000 C   0  0  0  0  0  0  0  0  0  0  0  0
   -1.8944   -1.8206   -0.0000 C   0  0  0  0  0  0  0  0  0  0  0  0
    2.6447   -3.7764   -0.0000 C   0  0  0  0  0  0  0  0  0  0  0  0
    4.4776   -1.8821   -0.0000 C   0  0  0  0  0  0  0  0  0  0  0  0
   -1.2424   -4.8220   -0.0000 N   0  0  0  0  0  0  0  0  0  0  0  0
    1.2547   -4.4284   -0.0000 N   0  0  0  0  0  0  0  0  0  0  0  0
   -3.0384   -2.8784   -0.0000 C   0  0  0  0  0  0  0  0  0  0  0  0
    3.7764   -4.7974   -0.0000 C   0  0  0  0  0  0  0  0  0  0  0  0
    5.5970   -2.9276   -0.0000 C   0  0  0  0  0  0  0  0  0  0  0  0
   -2.7431   -4.3054   -0.0000 C   0  0  0  0  0  0  0  0  0  0  0  0
    5.2525   -4.3423   -0.0000 C   0  0  0  0  0  0  0  0  0  0  0  0
    7.0485   -2.4725   -0.0000 N   0  0  0  0  0  0  0  0  0  0  0  0
   -3.9117   -5.3017   -0.0000 C   0  0  0  0  0  0  0  0  0  0  0  0
    7.5159   -1.0210   -0.0000 C   0  0  0  0  0  0  0  0  0  0  0  0
    8.2417   -3.3951   -0.0000 C   0  0  0  0  0  0  0  0  0  0  0  0
   -3.6411   -6.8025   -0.0000 C   0  0  0  0  0  0  0  0  0  0  0  0
   -5.0803   -4.8835   -0.0000 C   0  0  0  0  0  0  0  0  0  0  0  0
    9.0412   -1.0456   -0.0000 N   0  0  0  0  0  0  0  0  0  0  0  0
    9.4841   -2.5094   -0.0000 C   0  0  0  0  0  0  0  0  0  0  0  0
   -4.8097   -7.7988   -0.0000 C   0  0  0  0  0  0  0  0  0  0  0  0
   -2.2019   -7.2945   -0.0000 C   0  0  0  0  0  0  0  0  0  0  0  0
   10.6281   -2.9030   -0.0000 C   0  0  0  0  0  0  0  0  0  0  0  0
   -4.5268   -9.2996   -0.0000 C   0  0  0  0  0  0  0  0  0  0  0  0
   -1.9190   -8.7952   -0.0000 C   0  0  0  0  0  0  0  0  0  0  0  0
   -3.0876   -9.7916   -0.0000 C   0  0  0  0  0  0  0  0  0  0  0  0
  1  2  2  0  0  0  0
  2  3  1  0  0  0  0
  2  4  1  0  0  0  0
  3  5  1  0  0  0  0
  4  6  2  0  0  0  0
  4  7  1  0  0  0  0
  5  8  2  0  0  0  0
  5  9  1  0  0  0  0
  6 10  1  0  0  0  0
  6 11  1  0  0  0  0
  7 12  2  0  0  0  0
  8 13  1  0  0  0  0
  9 14  2  0  0  0  0
 10 15  2  0  0  0  0
 13 16  2  0  0  0  0
 14 17  1  0  0  0  0
 15 18  1  0  0  0  0
 17 19  1  0  0  0  0
 17 20  1  0  0  0  0
 18 21  1  0  0  0  0
 18 22  1  0  0  0  0
 19 23  2  0  0  0  0
 20 24  2  0  0  0  0
 21 25  2  0  0  0  0
 21 26  1  0  0  0  0
 24 27  1  0  0  0  0
 25 28  1  0  0  0  0
 26 29  2  0  0  0  0
 28 30  2  0  0  0  0
  8 11  1  0  0  0  0
 12 15  1  0  0  0  0
 14 16  1  0  0  0  0
 23 24  1  0  0  0  0
 29 30  1  0  0  0  0
M  END
>  <MolRegNo>
2071058

>  <m>
=

>  <Value>
200

>  <Unit>
nM

>  <Type>
IC50

>  <pValue>
6.7

>  <Ligand Efficiency>
0

>  <Binding Efficiency>
0

>  <Surface Efficiency>
0

>  <Assay Index>
996826

>  <Assay Category>


>  <Assay Organism>
Homo sapiens

>  <Target ID>
17045

>  <Target Name>
Cytochrome P450 3A4

>  <Target Organism>
Homo sapiens

>  <Target Description>
Target is a single protein chain

>  <Sequence Accession>
P08684

>  <Reference>
Bioorg Med Chem Lett 26 (5), 1498-1502 (2016)

>  <Pubmed ID>
26848108

>  <DOI>
10.1016/j.bmcl.2015.06.020

$$$$
2000526
Actelion Java MolfileCreator 1.0

 27 29  0  0  1  0  0  0  0  0999 V2000
    0.0000   -0.0000   -0.0000 S   0  0  0  0  0  0  0  0  0  0  0  0
   -1.0941   -0.6147   -0.0000 O   0  0  0  0  0  0  0  0  0  0  0  0
   -0.0123   -1.2416   -0.0000 O   0  0  0  0  0  0  0  0  0  0  0  0
   -0.0123    1.5735   -0.0000 N   0  0  0  0  0  0  0  0  0  0  0  0
    1.3399   -0.7622   -0.0000 C   0  0  0  0  0  0  0  0  0  0  0  0
    1.2416    2.4832   -0.0000 C   0  0  0  0  0  0  0  0  0  0  0  0
   -1.2908    2.4832   -0.0000 C   0  0  0  0  0  0  0  0  0  0  0  0
    2.6799    0.0246   -0.0000 C   0  0  0  0  0  0  0  0  0  0  0  0
    1.3276   -2.3111   -0.0000 C   0  0  0  0  0  0  0  0  0  0  0  0
    2.7045    2.0038   -0.0000 C   0  0  0  0  0  0  0  0  0  0  0  0
    0.7499    3.9829   -0.0000 C   0  0  0  0  0  0  0  0  0  0  0  0
   -0.8236    3.9829   -0.0000 C   0  0  0  0  0  0  0  0  0  0  0  0
    4.0198   -0.7376   -0.0000 C   0  0  0  0  0  0  0  0  0  0  0  0
    2.6676   -3.0733   -0.0000 C   0  0  0  0  0  0  0  0  0  0  0  0
    3.6264    2.8397   -0.0000 O   0  0  0  0  0  0  0  0  0  0  0  0
    2.9995    0.4917   -0.0000 N   0  0  0  0  0  0  0  0  0  0  0  0
    4.0075   -2.2865   -0.0000 C   0  0  0  0  0  0  0  0  0  0  0  0
    4.4624    0.0123   -0.0000 C   0  0  0  0  0  0  0  0  0  0  0  0
    5.3475   -3.0610   -0.0000 O   0  0  0  0  0  0  0  0  0  0  0  0
    5.6179    1.0572   -0.0000 C   0  0  0  0  0  0  0  0  0  0  0  0
    4.7697   -1.4998   -0.0000 C   0  0  0  0  0  0  0  0  0  0  0  0
    5.3352   -4.3026   -0.0000 C   0  0  0  0  0  0  0  0  0  0  0  0
    7.0808    0.5778   -0.0000 C   0  0  0  0  0  0  0  0  0  0  0  0
    6.2326   -1.9792   -0.0000 C   0  0  0  0  0  0  0  0  0  0  0  0
    8.2363    1.6350   -0.0000 S   0  0  0  0  0  0  0  0  0  0  0  0
    7.3881   -0.9343   -0.0000 C   0  0  0  0  0  0  0  0  0  0  0  0
    7.9659    2.8643   -0.0000 C   0  0  0  0  0  0  0  0  0  0  0  0
  1  2  2  0  0  0  0
  1  3  2  0  0  0  0
  1  4  1  0  0  0  0
  1  5  1  0  0  0  0
  4  6  1  0  0  0  0
  4  7  1  0  0  0  0
  5  8  2  0  0  0  0
  5  9  1  0  0  0  0
  6 10  1  1  0  0  0
  6 11  1  0  0  0  0
  7 12  1  0  0  0  0
  8 13  1  0  0  0  0
  9 14  2  0  0  0  0
 10 15  2  0  0  0  0
 10 16  1  0  0  0  0
 13 17  2  0  0  0  0
 16 18  1  0  0  0  0
 17 19  1  0  0  0  0
 18 20  2  0  0  0  0
 18 21  1  0  0  0  0
 19 22  1  0  0  0  0
 20 23  1  0  0  0  0
 21 24  2  0  0  0  0
 23 25  1  0  0  0  0
 23 26  2  0  0  0  0
 25 27  1  0  0  0  0
 11 12  1  0  0  0  0
 14 17  1  0  0  0  0
 24 26  1  0  0  0  0
M  END
>  <MolRegNo>
2000526

>  <m>
=

>  <Value>
8000

>  <Unit>
nM

>  <Type>
IC50

>  <pValue>
5.1

>  <Ligand Efficiency>
0

>  <Binding Efficiency>
0

>  <Surface Efficiency>
0

>  <Assay Index>
996390

>  <Assay Category>


>  <Assay Organism>
Homo sapiens

>  <Target ID>
17045

>  <Target Name>
Cytochrome P450 3A4

>  <Target Organism>
Homo sapiens

>  <Target Description>
Target is a single protein chain

>  <Sequence Accession>
P08684

>  <Reference>
J Med Chem 59 (2), 504-530 (2016)

>  <Pubmed ID>
26317591

>  <DOI>
10.1021/acs.jmedchem.5b00832

$$$$
1954911
Actelion Java MolfileCreator 1.0

 27 29  0  0  1  0  0  0  0  0999 V2000
    0.0000   -0.0000   -0.0000 S   0  0  0  0  0  0  0  0  0  0  0  0
   -1.1030   -0.6197   -0.0000 O   0  0  0  0  0  0  0  0  0  0  0  0
   -0.0124   -1.2518   -0.0000 O   0  0  0  0  0  0  0  0  0  0  0  0
   -0.0124    1.5864   -0.0000 N   0  0  0  0  0  0  0  0  0  0  0  0
    1.3509   -0.7684   -0.0000 C   0  0  0  0  0  0  0  0  0  0  0  0
    1.2518    2.5035   -0.0000 C   0  0  0  0  0  0  0  0  0  0  0  0
   -1.3013    2.5035   -0.0000 C   0  0  0  0  0  0  0  0  0  0  0  0
    2.7018    0.0248   -0.0000 C   0  0  0  0  0  0  0  0  0  0  0  0
    1.3385   -2.3300   -0.0000 C   0  0  0  0  0  0  0  0  0  0  0  0
    2.7266    2.0202   -0.0000 C   0  0  0  0  0  0  0  0  0  0  0  0
    0.7560    4.0156   -0.0000 C   0  0  0  0  0  0  0  0  0  0  0  0
   -0.8304    4.0156   -0.0000 C   0  0  0  0  0  0  0  0  0  0  0  0
    4.0527   -0.7436   -0.0000 C   0  0  0  0  0  0  0  0  0  0  0  0
    2.6894   -3.0984   -0.0000 C   0  0  0  0  0  0  0  0  0  0  0  0
    3.6561    2.8629   -0.0000 O   0  0  0  0  0  0  0  0  0  0  0  0
    3.0241    0.4957   -0.0000 N   0  0  0  0  0  0  0  0  0  0  0  0
    4.0403   -2.3052   -0.0000 C   0  0  0  0  0  0  0  0  0  0  0  0
    4.4989    0.0124   -0.0000 C   0  0  0  0  0  0  0  0  0  0  0  0
    5.3913   -3.0860   -0.0000 O   0  0  0  0  0  0  0  0  0  0  0  0
    4.8088   -1.5120   -0.0000 C   0  0  0  0  0  0  0  0  0  0  0  0
    5.6639    1.0659   -0.0000 C   0  0  0  0  0  0  0  0  0  0  0  0
    5.3789   -4.3378   -0.0000 C   0  0  0  0  0  0  0  0  0  0  0  0
    6.2836   -1.9954   -0.0000 C   0  0  0  0  0  0  0  0  0  0  0  0
    7.1388    0.5825   -0.0000 C   0  0  0  0  0  0  0  0  0  0  0  0
    7.4486   -0.9419   -0.0000 C   0  0  0  0  0  0  0  0  0  0  0  0
    6.5191   -3.2100   -0.0000 C   0  0  0  0  0  0  0  0  0  0  0  0
    8.0683    1.4253   -0.0000 C   0  0  0  0  0  0  0  0  0  0  0  0
  1  2  2  0  0  0  0
  1  3  2  0  0  0  0
  1  4  1  0  0  0  0
  1  5  1  0  0  0  0
  4  6  1  0  0  0  0
  4  7  1  0  0  0  0
  5  8  2  0  0  0  0
  5  9  1  0  0  0  0
  6 10  1  1  0  0  0
  6 11  1  0  0  0  0
  7 12  1  0  0  0  0
  8 13  1  0  0  0  0
  9 14  2  0  0  0  0
 10 15  2  0  0  0  0
 10 16  1  0  0  0  0
 13 17  2  0  0  0  0
 16 18  1  0  0  0  0
 17 19  1  0  0  0  0
 18 20  2  0  0  0  0
 18 21  1  0  0  0  0
 19 22  1  0  0  0  0
 20 23  1  0  0  0  0
 21 24  2  0  0  0  0
 23 25  2  0  0  0  0
 23 26  1  0  0  0  0
 24 27  1  0  0  0  0
 11 12  1  0  0  0  0
 14 17  1  0  0  0  0
 24 25  1  0  0  0  0
M  END
>  <MolRegNo>
1954911

>  <m>
=

>  <Value>
15000

>  <Unit>
nM

>  <Type>
IC50

>  <pValue>
4.82

>  <Ligand Efficiency>
0

>  <Binding Efficiency>
0

>  <Surface Efficiency>
0

>  <Assay Index>
996390

>  <Assay Category>


>  <Assay Organism>
Homo sapiens

>  <Target ID>
17045

>  <Target Name>
Cytochrome P450 3A4

>  <Target Organism>
Homo sapiens

>  <Target Description>
Target is a single protein chain

>  <Sequence Accession>
P08684

>  <Reference>
J Med Chem 59 (2), 504-530 (2016)

>  <Pubmed ID>
26317591

>  <DOI>
10.1021/acs.jmedchem.5b00832

$$$$
2073376
Actelion Java MolfileCreator 1.0

 34 38  0  0  0  0  0  0  0  0999 V2000
    0.0000   -0.0000   -0.0000 S   0  0  0  0  0  0  0  0  0  0  0  0
   -1.4710   -0.4741   -0.0000 C   0  0  0  0  0  0  0  0  0  0  0  0
    1.1306   -1.0090   -0.0000 C   0  0  0  0  0  0  0  0  0  0  0  0
   -1.9208   -1.9208   -0.0000 N   0  0  0  0  0  0  0  0  0  0  0  0
   -2.7110    0.4376   -0.0000 N   0  0  0  0  0  0  0  0  0  0  0  0
    2.5772   -0.5106   -0.0000 C   0  0  0  0  0  0  0  0  0  0  0  0
   -3.4647   -1.9208   -0.0000 N   0  0  0  0  0  0  0  0  0  0  0  0
   -3.9510   -0.4620   -0.0000 C   0  0  0  0  0  0  0  0  0  0  0  0
   -2.7231    1.6776   -0.0000 C   0  0  0  0  0  0  0  0  0  0  0  0
    3.7078   -1.5196   -0.0000 C   0  0  0  0  0  0  0  0  0  0  0  0
   -5.4219    0.0122   -0.0000 C   0  0  0  0  0  0  0  0  0  0  0  0
    5.1423   -1.0212   -0.0000 N   0  0  0  0  0  0  0  0  0  0  0  0
   -5.6529    1.5439   -0.0000 C   0  0  0  0  0  0  0  0  0  0  0  0
   -6.6376   -0.9239   -0.0000 C   0  0  0  0  0  0  0  0  0  0  0  0
    6.3702   -1.8965   -0.0000 C   0  0  0  0  0  0  0  0  0  0  0  0
    5.6043    0.4741   -0.0000 C   0  0  0  0  0  0  0  0  0  0  0  0
   -7.0874    2.1274   -0.0000 N   0  0  0  0  0  0  0  0  0  0  0  0
   -8.0721   -0.3404   -0.0000 C   0  0  0  0  0  0  0  0  0  0  0  0
    7.5980   -0.9969   -0.0000 C   0  0  0  0  0  0  0  0  0  0  0  0
    7.1117    0.4498   -0.0000 C   0  0  0  0  0  0  0  0  0  0  0  0
   -8.3031    1.1914   -0.0000 C   0  0  0  0  0  0  0  0  0  0  0  0
    9.1297   -1.0090   -0.0000 N   0  0  0  0  0  0  0  0  0  0  0  0
    8.3517    1.3737   -0.0000 C   0  0  0  0  0  0  0  0  0  0  0  0
   10.0050   -2.2490   -0.0000 C   0  0  0  0  0  0  0  0  0  0  0  0
    9.5917    0.4498   -0.0000 C   0  0  0  0  0  0  0  0  0  0  0  0
   11.5246   -2.2125   -0.0000 C   0  0  0  0  0  0  0  0  0  0  0  0
    9.2391   -3.5741   -0.0000 C   0  0  0  0  0  0  0  0  0  0  0  0
   12.3027   -3.5133   -0.0000 C   0  0  0  0  0  0  0  0  0  0  0  0
   12.2540   -0.8631   -0.0000 C   0  0  0  0  0  0  0  0  0  0  0  0
   10.0172   -4.8749   -0.0000 C   0  0  0  0  0  0  0  0  0  0  0  0
   11.5489   -4.8384   -0.0000 C   0  0  0  0  0  0  0  0  0  0  0  0
   11.6097    0.1945   -0.0000 F   0  0  0  0  0  0  0  0  0  0  0  0
   13.4697   -0.8267   -0.0000 F   0  0  0  0  0  0  0  0  0  0  0  0
   12.8376    0.2188   -0.0000 F   0  0  0  0  0  0  0  0  0  0  0  0
  1  2  1  0  0  0  0
  1  3  1  0  0  0  0
  2  4  2  0  0  0  0
  2  5  1  0  0  0  0
  3  6  1  0  0  0  0
  4  7  1  0  0  0  0
  5  8  1  0  0  0  0
  5  9  1  0  0  0  0
  6 10  1  0  0  0  0
  8 11  1  0  0  0  0
 10 12  1  0  0  0  0
 11 13  2  0  0  0  0
 11 14  1  0  0  0  0
 12 15  1  0  0  0  0
 12 16  1  0  0  0  0
 13 17  1  0  0  0  0
 14 18  2  0  0  0  0
 15 19  1  0  0  0  0
 16 20  1  0  0  0  0
 17 21  2  0  0  0  0
 19 22  1  0  0  0  0
 20 23  1  0  0  0  0
 22 24  1  0  0  0  0
 22 25  1  0  0  0  0
 24 26  2  0  0  0  0
 24 27  1  0  0  0  0
 26 28  1  0  0  0  0
 26 29  1  0  0  0  0
 27 30  2  0  0  0  0
 28 31  2  0  0  0  0
 29 32  1  0  0  0  0
 29 33  1  0  0  0  0
 29 34  1  0  0  0  0
  7  8  2  0  0  0  0
 18 21  1  0  0  0  0
 19 20  1  0  0  0  0
 23 25  1  0  0  0  0
 30 31  1  0  0  0  0
M  END
>  <MolRegNo>
2073376

>  <m>
=

>  <Value>
920

>  <Unit>
nM

>  <Type>
IC50

>  <pValue>
6.04

>  <Ligand Efficiency>
0

>  <Binding Efficiency>
0

>  <Surface Efficiency>
0

>  <Assay Index>
999871

>  <Assay Category>


>  <Assay Organism>
Homo sapiens

>  <Target ID>
17045

>  <Target Name>
Cytochrome P450 3A4

>  <Target Organism>
Homo sapiens

>  <Target Description>
Target is a single protein chain

>  <Sequence Accession>
P08684

>  <Reference>
Bioorg Med Chem 24 (8), 1619-1636 (2016)

>  <Pubmed ID>
26951894

>  <DOI>
10.1016/j.bmc.2016.02.031

$$$$
2073271
Actelion Java MolfileCreator 1.0

 34 38  0  0  0  0  0  0  0  0999 V2000
    0.0000   -0.0000   -0.0000 S   0  0  0  0  0  0  0  0  0  0  0  0
   -1.4710   -0.4741   -0.0000 C   0  0  0  0  0  0  0  0  0  0  0  0
    1.1306   -1.0090   -0.0000 C   0  0  0  0  0  0  0  0  0  0  0  0
   -1.9208   -1.9208   -0.0000 N   0  0  0  0  0  0  0  0  0  0  0  0
   -2.7110    0.4376   -0.0000 N   0  0  0  0  0  0  0  0  0  0  0  0
    2.5772   -0.5106   -0.0000 C   0  0  0  0  0  0  0  0  0  0  0  0
   -3.4647   -1.9208   -0.0000 N   0  0  0  0  0  0  0  0  0  0  0  0
   -3.9510   -0.4620   -0.0000 C   0  0  0  0  0  0  0  0  0  0  0  0
   -2.7231    1.6776   -0.0000 C   0  0  0  0  0  0  0  0  0  0  0  0
    3.7078   -1.5196   -0.0000 C   0  0  0  0  0  0  0  0  0  0  0  0
   -5.4219    0.0122   -0.0000 C   0  0  0  0  0  0  0  0  0  0  0  0
    5.1423   -1.0212   -0.0000 N   0  0  0  0  0  0  0  0  0  0  0  0
   -5.6529    1.5439   -0.0000 N   0  0  0  0  0  0  0  0  0  0  0  0
   -6.6376   -0.9239   -0.0000 C   0  0  0  0  0  0  0  0  0  0  0  0
    6.3702   -1.8965   -0.0000 C   0  0  0  0  0  0  0  0  0  0  0  0
    5.6043    0.4741   -0.0000 C   0  0  0  0  0  0  0  0  0  0  0  0
   -7.0874    2.1274   -0.0000 C   0  0  0  0  0  0  0  0  0  0  0  0
   -8.0721   -0.3404   -0.0000 N   0  0  0  0  0  0  0  0  0  0  0  0
    7.5980   -0.9969   -0.0000 C   0  0  0  0  0  0  0  0  0  0  0  0
    7.1117    0.4498   -0.0000 C   0  0  0  0  0  0  0  0  0  0  0  0
   -8.3031    1.1914   -0.0000 C   0  0  0  0  0  0  0  0  0  0  0  0
    9.1297   -1.0090   -0.0000 N   0  0  0  0  0  0  0  0  0  0  0  0
    8.3517    1.3737   -0.0000 C   0  0  0  0  0  0  0  0  0  0  0  0
   10.0050   -2.2490   -0.0000 C   0  0  0  0  0  0  0  0  0  0  0  0
    9.5917    0.4498   -0.0000 C   0  0  0  0  0  0  0  0  0  0  0  0
   11.5246   -2.2125   -0.0000 C   0  0  0  0  0  0  0  0  0  0  0  0
    9.2391   -3.5741   -0.0000 C   0  0  0  0  0  0  0  0  0  0  0  0
   12.3027   -3.5133   -0.0000 C   0  0  0  0  0  0  0  0  0  0  0  0
   12.2540   -0.8631   -0.0000 C   0  0  0  0  0  0  0  0  0  0  0  0
   10.0172   -4.8749   -0.0000 C   0  0  0  0  0  0  0  0  0  0  0  0
   11.5489   -4.8384   -0.0000 C   0  0  0  0  0  0  0  0  0  0  0  0
   11.6097    0.1945   -0.0000 F   0  0  0  0  0  0  0  0  0  0  0  0
   13.4697   -0.8267   -0.0000 F   0  0  0  0  0  0  0  0  0  0  0  0
   12.8376    0.2188   -0.0000 F   0  0  0  0  0  0  0  0  0  0  0  0
  1  2  1  0  0  0  0
  1  3  1  0  0  0  0
  2  4  2  0  0  0  0
  2  5  1  0  0  0  0
  3  6  1  0  0  0  0
  4  7  1  0  0  0  0
  5  8  1  0  0  0  0
  5  9  1  0  0  0  0
  6 10  1  0  0  0  0
  8 11  1  0  0  0  0
 10 12  1  0  0  0  0
 11 13  2  0  0  0  0
 11 14  1  0  0  0  0
 12 15  1  0  0  0  0
 12 16  1  0  0  0  0
 13 17  1  0  0  0  0
 14 18  2  0  0  0  0
 15 19  1  0  0  0  0
 16 20  1  0  0  0  0
 17 21  2  0  0  0  0
 19 22  1  0  0  0  0
 20 23  1  0  0  0  0
 22 24  1  0  0  0  0
 22 25  1  0  0  0  0
 24 26  2  0  0  0  0
 24 27  1  0  0  0  0
 26 28  1  0  0  0  0
 26 29  1  0  0  0  0
 27 30  2  0  0  0  0
 28 31  2  0  0  0  0
 29 32  1  0  0  0  0
 29 33  1  0  0  0  0
 29 34  1  0  0  0  0
  7  8  2  0  0  0  0
 18 21  1  0  0  0  0
 19 20  1  0  0  0  0
 23 25  1  0  0  0  0
 30 31  1  0  0  0  0
M  END
>  <MolRegNo>
2073271

>  <m>
=

>  <Value>
980

>  <Unit>
nM

>  <Type>
IC50

>  <pValue>
6.01

>  <Ligand Efficiency>
0

>  <Binding Efficiency>
0

>  <Surface Efficiency>
0

>  <Assay Index>
999887

>  <Assay Category>


>  <Assay Organism>
Homo sapiens

>  <Target ID>
17045

>  <Target Name>
Cytochrome P450 3A4

>  <Target Organism>
Homo sapiens

>  <Target Description>
Target is a single protein chain

>  <Sequence Accession>
P08684

>  <Reference>
Bioorg Med Chem 24 (8), 1619-1636 (2016)

>  <Pubmed ID>
26951894

>  <DOI>
10.1016/j.bmc.2016.02.031

$$$$
2074056
Actelion Java MolfileCreator 1.0

 28 30  0  0  0  0  0  0  0  0999 V2000
    0.0000   -0.0000   -0.0000 O   0  0  0  0  0  0  0  0  0  0  0  0
    1.0595    0.6333   -0.0000 C   0  0  0  0  0  0  0  0  0  0  0  0
    1.0473    2.1921   -0.0000 N   0  0  0  0  0  0  0  0  0  0  0  0
    2.3869   -0.1340   -0.0000 C   0  0  0  0  0  0  0  0  0  0  0  0
   -0.3045    2.9836   -0.0000 C   0  0  0  0  0  0  0  0  0  0  0  0
    2.3747   -1.6684   -0.0000 C   0  0  0  0  0  0  0  0  0  0  0  0
   -0.3166    4.5424   -0.0000 C   0  0  0  0  0  0  0  0  0  0  0  0
   -1.6562    2.2286   -0.0000 C   0  0  0  0  0  0  0  0  0  0  0  0
    3.7021   -2.4356   -0.0000 C   0  0  0  0  0  0  0  0  0  0  0  0
   -1.6684    5.3218   -0.0000 C   0  0  0  0  0  0  0  0  0  0  0  0
    0.7429    5.1757   -0.0000 C   0  0  0  0  0  0  0  0  0  0  0  0
   -3.0080    3.0080   -0.0000 C   0  0  0  0  0  0  0  0  0  0  0  0
    5.0783   -1.7780   -0.0000 N   0  0  0  0  0  0  0  0  0  0  0  0
    3.8361   -3.9457   -0.0000 N   0  0  0  0  0  0  0  0  0  0  0  0
   -3.0202    4.5668   -0.0000 C   0  0  0  0  0  0  0  0  0  0  0  0
    6.1012   -2.9106   -0.0000 N   0  0  0  0  0  0  0  0  0  0  0  0
    5.3340   -4.2502   -0.0000 C   0  0  0  0  0  0  0  0  0  0  0  0
    2.6670   -4.9565   -0.0000 C   0  0  0  0  0  0  0  0  0  0  0  0
   -4.1040    5.2000   -0.0000 C   0  0  0  0  0  0  0  0  0  0  0  0
    5.9551   -5.6506   -0.0000 C   0  0  0  0  0  0  0  0  0  0  0  0
    2.8984   -6.1499   -0.0000 C   0  0  0  0  0  0  0  0  0  0  0  0
    7.4774   -5.7968   -0.0000 C   0  0  0  0  0  0  0  0  0  0  0  0
    8.0984   -7.1973   -0.0000 C   0  0  0  0  0  0  0  0  0  0  0  0
    9.6207   -7.3434   -0.0000 C   0  0  0  0  0  0  0  0  0  0  0  0
    7.1729   -8.4394   -0.0000 C   0  0  0  0  0  0  0  0  0  0  0  0
   10.2418   -8.7439   -0.0000 C   0  0  0  0  0  0  0  0  0  0  0  0
    7.7940   -9.8399   -0.0000 C   0  0  0  0  0  0  0  0  0  0  0  0
    9.3162   -9.9860   -0.0000 C   0  0  0  0  0  0  0  0  0  0  0  0
  1  2  2  0  0  0  0
  2  3  1  0  0  0  0
  2  4  1  0  0  0  0
  3  5  1  0  0  0  0
  4  6  1  0  0  0  0
  5  7  2  0  0  0  0
  5  8  1  0  0  0  0
  6  9  1  0  0  0  0
  7 10  1  0  0  0  0
  7 11  1  0  0  0  0
  8 12  2  0  0  0  0
  9 13  2  0  0  0  0
  9 14  1  0  0  0  0
 10 15  2  0  0  0  0
 13 16  1  0  0  0  0
 14 17  1  0  0  0  0
 14 18  1  0  0  0  0
 15 19  1  0  0  0  0
 17 20  1  0  0  0  0
 18 21  1  0  0  0  0
 20 22  1  0  0  0  0
 22 23  1  0  0  0  0
 23 24  1  0  0  0  0
 23 25  1  0  0  0  0
 24 26  1  0  0  0  0
 25 27  1  0  0  0  0
 26 28  1  0  0  0  0
 12 15  1  0  0  0  0
 16 17  2  0  0  0  0
 27 28  1  0  0  0  0
M  END
>  <MolRegNo>
2074056

>  <m>
=

>  <Value>
12000

>  <Unit>
nM

>  <Type>
IC50

>  <pValue>
4.92

>  <Ligand Efficiency>
0

>  <Binding Efficiency>
0

>  <Surface Efficiency>
0

>  <Assay Index>
999333

>  <Assay Category>


>  <Assay Organism>
Homo sapiens

>  <Target ID>
17045

>  <Target Name>
Cytochrome P450 3A4

>  <Target Organism>
Homo sapiens

>  <Target Description>
Target is a single protein chain

>  <Sequence Accession>
P08684

>  <Reference>
ACS Med Chem Lett 7 (1), 23-27 (2016)

>  <Pubmed ID>
26819660

>  <DOI>
10.1021/acsmedchemlett.5b00253

$$$$
2074043
Actelion Java MolfileCreator 1.0

 31 35  0  0  0  0  0  0  0  0999 V2000
    0.0000   -0.0000   -0.0000 S   0  0  0  0  0  0  0  0  0  0  0  0
   -0.0121    1.5253   -0.0000 C   0  0  0  0  0  0  0  0  0  0  0  0
    1.2953   -0.7505   -0.0000 C   0  0  0  0  0  0  0  0  0  0  0  0
    1.2105    2.3968   -0.0000 N   0  0  0  0  0  0  0  0  0  0  0  0
   -1.2468    2.4090   -0.0000 N   0  0  0  0  0  0  0  0  0  0  0  0
    1.2832   -2.2516   -0.0000 C   0  0  0  0  0  0  0  0  0  0  0  0
    0.7384    3.8495   -0.0000 N   0  0  0  0  0  0  0  0  0  0  0  0
   -0.7868    3.8616   -0.0000 C   0  0  0  0  0  0  0  0  0  0  0  0
   -2.6995    1.9489   -0.0000 C   0  0  0  0  0  0  0  0  0  0  0  0
    0.2179   -2.8447   -0.0000 O   0  0  0  0  0  0  0  0  0  0  0  0
    2.5784   -3.0021   -0.0000 N   0  0  0  0  0  0  0  0  0  0  0  0
   -1.6826    5.1084   -0.0000 C   0  0  0  0  0  0  0  0  0  0  0  0
   -3.6195    2.7721   -0.0000 C   0  0  0  0  0  0  0  0  0  0  0  0
    2.5663   -4.5032   -0.0000 C   0  0  0  0  0  0  0  0  0  0  0  0
   -3.1958    5.2295   -0.0000 C   0  0  0  0  0  0  0  0  0  0  0  0
   -1.1016    6.4763   -0.0000 C   0  0  0  0  0  0  0  0  0  0  0  0
    3.8616   -5.2537   -0.0000 C   0  0  0  0  0  0  0  0  0  0  0  0
    1.2226   -5.2537   -0.0000 C   0  0  0  0  0  0  0  0  0  0  0  0
   -3.5468    6.7184   -0.0000 C   0  0  0  0  0  0  0  0  0  0  0  0
   -2.2395    7.4932   -0.0000 C   0  0  0  0  0  0  0  0  0  0  0  0
    3.8495   -6.7547   -0.0000 C   0  0  0  0  0  0  0  0  0  0  0  0
    5.1568   -4.4790   -0.0000 C   0  0  0  0  0  0  0  0  0  0  0  0
    1.2105   -6.7547   -0.0000 C   0  0  0  0  0  0  0  0  0  0  0  0
   -4.8905    7.4569   -0.0000 C   0  0  0  0  0  0  0  0  0  0  0  0
   -2.2516    9.0305   -0.0000 C   0  0  0  0  0  0  0  0  0  0  0  0
    2.5300   -7.5053   -0.0000 C   0  0  0  0  0  0  0  0  0  0  0  0
    5.1447   -7.5053   -0.0000 C   0  0  0  0  0  0  0  0  0  0  0  0
    6.4521   -5.2295   -0.0000 C   0  0  0  0  0  0  0  0  0  0  0  0
   -4.9147    9.0063   -0.0000 C   0  0  0  0  0  0  0  0  0  0  0  0
   -3.6074    9.7932   -0.0000 C   0  0  0  0  0  0  0  0  0  0  0  0
    6.4400   -6.7305   -0.0000 C   0  0  0  0  0  0  0  0  0  0  0  0
  1  2  1  0  0  0  0
  1  3  1  0  0  0  0
  2  4  2  0  0  0  0
  2  5  1  0  0  0  0
  3  6  1  0  0  0  0
  4  7  1  0  0  0  0
  5  8  1  0  0  0  0
  5  9  1  0  0  0  0
  6 10  2  0  0  0  0
  6 11  1  0  0  0  0
  8 12  1  0  0  0  0
  9 13  1  0  0  0  0
 11 14  1  0  0  0  0
 12 15  1  0  0  0  0
 12 16  1  0  0  0  0
 14 17  1  0  0  0  0
 14 18  2  0  0  0  0
 15 19  1  0  0  0  0
 16 20  1  0  0  0  0
 17 21  1  0  0  0  0
 17 22  2  0  0  0  0
 18 23  1  0  0  0  0
 19 24  1  0  0  0  0
 20 25  1  0  0  0  0
 21 26  1  0  0  0  0
 21 27  2  0  0  0  0
 22 28  1  0  0  0  0
 24 29  2  0  0  0  0
 25 30  2  0  0  0  0
 27 31  1  0  0  0  0
  7  8  2  0  0  0  0
 19 20  2  0  0  0  0
 23 26  2  0  0  0  0
 28 31  2  0  0  0  0
 29 30  1  0  0  0  0
M  END
>  <MolRegNo>
2074043

>  <m>
=

>  <Value>
4000

>  <Unit>
nM

>  <Type>
IC50

>  <pValue>
5.4

>  <Ligand Efficiency>
0

>  <Binding Efficiency>
0

>  <Surface Efficiency>
0

>  <Assay Index>
999333

>  <Assay Category>


>  <Assay Organism>
Homo sapiens

>  <Target ID>
17045

>  <Target Name>
Cytochrome P450 3A4

>  <Target Organism>
Homo sapiens

>  <Target Description>
Target is a single protein chain

>  <Sequence Accession>
P08684

>  <Reference>
ACS Med Chem Lett 7 (1), 23-27 (2016)

>  <Pubmed ID>
26819660

>  <DOI>
10.1021/acsmedchemlett.5b00253

$$$$
2074069
Actelion Java MolfileCreator 1.0

 33 37  0  0  1  0  0  0  0  0999 V2000
    0.0000   -0.0000   -0.0000 O   0  0  0  0  0  0  0  0  0  0  0  0
   -0.0122   -1.2363   -0.0000 C   0  0  0  0  0  0  0  0  0  0  0  0
   -1.3709   -1.9952   -0.0000 N   0  0  0  0  0  0  0  0  0  0  0  0
    1.3219   -2.0074   -0.0000 C   0  0  0  0  0  0  0  0  0  0  0  0
   -2.7296   -1.1995   -0.0000 C   0  0  0  0  0  0  0  0  0  0  0  0
    2.7051   -1.3464   -0.0000 C   0  0  0  0  0  0  0  0  0  0  0  0
    1.4566   -3.5252   -0.0000 C   0  0  0  0  0  0  0  0  0  0  0  0
   -4.0883   -1.9584   -0.0000 C   0  0  0  0  0  0  0  0  0  0  0  0
   -2.7296    0.3672   -0.0000 C   0  0  0  0  0  0  0  0  0  0  0  0
    3.0111    0.1836   -0.0000 C   0  0  0  0  0  0  0  0  0  0  0  0
    3.7333   -2.4848   -0.0000 C   0  0  0  0  0  0  0  0  0  0  0  0
    2.9621   -3.8312   -0.0000 C   0  0  0  0  0  0  0  0  0  0  0  0
   -5.4469   -1.1628   -0.0000 C   0  0  0  0  0  0  0  0  0  0  0  0
   -4.1005   -3.1947   -0.0000 C   0  0  0  0  0  0  0  0  0  0  0  0
   -4.0883    1.1628   -0.0000 C   0  0  0  0  0  0  0  0  0  0  0  0
    4.4555    0.6855   -0.0000 N   0  0  0  0  0  0  0  0  0  0  0  0
    2.0441    1.3954   -0.0000 N   0  0  0  0  0  0  0  0  0  0  0  0
    3.4518   -4.9573   -0.0000 O   0  0  0  0  0  0  0  0  0  0  0  0
   -5.4469    0.4039   -0.0000 C   0  0  0  0  0  0  0  0  0  0  0  0
    4.3943    2.2522   -0.0000 N   0  0  0  0  0  0  0  0  0  0  0  0
    2.9132    2.6929   -0.0000 C   0  0  0  0  0  0  0  0  0  0  0  0
    0.4774    1.3587   -0.0000 C   0  0  0  0  0  0  0  0  0  0  0  0
   -6.5363    1.0404   -0.0000 C   0  0  0  0  0  0  0  0  0  0  0  0
    2.3746    4.1739   -0.0000 C   0  0  0  0  0  0  0  0  0  0  0  0
   -0.8323    0.6732   -0.0000 C   0  0  0  0  0  0  0  0  0  0  0  0
   -0.7344    2.2277   -0.0000 C   0  0  0  0  0  0  0  0  0  0  0  0
    3.1580    5.4714   -0.0000 C   0  0  0  0  0  0  0  0  0  0  0  0
    1.0404    4.9084   -0.0000 C   0  0  0  0  0  0  0  0  0  0  0  0
    1.7993    6.2670   -0.0000 C   0  0  0  0  0  0  0  0  0  0  0  0
    1.3832    7.7726   -0.0000 C   0  0  0  0  0  0  0  0  0  0  0  0
   -0.1346    8.1887   -0.0000 C   0  0  0  0  0  0  0  0  0  0  0  0
   -0.4651    9.4005   -0.0000 C   0  0  0  0  0  0  0  0  0  0  0  0
   -1.0282    7.3197   -0.0000 C   0  0  0  0  0  0  0  0  0  0  0  0
  1  2  2  0  0  0  0
  2  3  1  0  0  0  0
  4  2  1  6  0  0  0
  3  5  1  0  0  0  0
  4  6  1  0  0  0  0
  4  7  1  0  0  0  0
  5  8  2  0  0  0  0
  5  9  1  0  0  0  0
  6 10  1  1  0  0  0
  6 11  1  0  0  0  0
  7 12  1  0  0  0  0
  8 13  1  0  0  0  0
  8 14  1  0  0  0  0
  9 15  2  0  0  0  0
 10 16  2  0  0  0  0
 10 17  1  0  0  0  0
 12 18  1  6  0  0  0
 13 19  2  0  0  0  0
 16 20  1  0  0  0  0
 17 21  1  0  0  0  0
 17 22  1  0  0  0  0
 19 23  1  0  0  0  0
 24 21  1  6  0  0  0
 22 25  1  0  0  0  0
 22 26  1  0  0  0  0
 24 27  1  0  0  0  0
 24 28  1  0  0  0  0
 27 29  1  0  0  0  0
 29 30  1  6  0  0  0
 30 31  1  0  0  0  0
 31 32  1  0  0  0  0
 31 33  1  0  0  0  0
 11 12  1  0  0  0  0
 15 19  1  0  0  0  0
 20 21  2  0  0  0  0
 25 26  1  0  0  0  0
 28 29  1  0  0  0  0
M  END
>  <MolRegNo>
2074069

>  <m>
=

>  <Value>
3000

>  <Unit>
nM

>  <Type>
IC50

>  <pValue>
5.52

>  <Ligand Efficiency>
0

>  <Binding Efficiency>
0

>  <Surface Efficiency>
0

>  <Assay Index>
999325

>  <Assay Category>


>  <Assay Organism>
Homo sapiens

>  <Target ID>
17045

>  <Target Name>
Cytochrome P450 3A4

>  <Target Organism>
Homo sapiens

>  <Target Description>
Target is a single protein chain

>  <Sequence Accession>
P08684

>  <Reference>
ACS Med Chem Lett 7 (1), 23-27 (2016)

>  <Pubmed ID>
26819660

>  <DOI>
10.1021/acsmedchemlett.5b00253

$$$$
2074067
Actelion Java MolfileCreator 1.0

 29 32  0  0  1  0  0  0  0  0999 V2000
    0.0000   -0.0000   -0.0000 O   0  0  0  0  0  0  0  0  0  0  0  0
    1.0688    0.6388   -0.0000 C   0  0  0  0  0  0  0  0  0  0  0  0
    1.0566    2.2114   -0.0000 N   0  0  0  0  0  0  0  0  0  0  0  0
    2.4080   -0.1351   -0.0000 C   0  0  0  0  0  0  0  0  0  0  0  0
   -0.3071    3.0099   -0.0000 C   0  0  0  0  0  0  0  0  0  0  0  0
    2.3957   -1.6831   -0.0000 C   0  0  0  0  0  0  0  0  0  0  0  0
   -0.3194    4.5825   -0.0000 C   0  0  0  0  0  0  0  0  0  0  0  0
   -1.6708    2.2482   -0.0000 C   0  0  0  0  0  0  0  0  0  0  0  0
    3.7348   -2.4571   -0.0000 C   0  0  0  0  0  0  0  0  0  0  0  0
   -1.6831    5.3688   -0.0000 C   0  0  0  0  0  0  0  0  0  0  0  0
    0.7494    5.2213   -0.0000 C   0  0  0  0  0  0  0  0  0  0  0  0
   -3.0345    3.0345   -0.0000 C   0  0  0  0  0  0  0  0  0  0  0  0
    5.1231   -1.7937   -0.0000 N   0  0  0  0  0  0  0  0  0  0  0  0
    3.8699   -3.9805   -0.0000 N   0  0  0  0  0  0  0  0  0  0  0  0
   -3.0468    4.6071   -0.0000 C   0  0  0  0  0  0  0  0  0  0  0  0
    6.1550   -2.9362   -0.0000 N   0  0  0  0  0  0  0  0  0  0  0  0
    5.3811   -4.2876   -0.0000 C   0  0  0  0  0  0  0  0  0  0  0  0
    2.6905   -5.0002   -0.0000 C   0  0  0  0  0  0  0  0  0  0  0  0
   -4.1402    5.2459   -0.0000 C   0  0  0  0  0  0  0  0  0  0  0  0
    6.0076   -5.7005   -0.0000 C   0  0  0  0  0  0  0  0  0  0  0  0
    1.2531   -5.3811   -0.0000 C   0  0  0  0  0  0  0  0  0  0  0  0
    2.3957   -6.4376   -0.0000 C   0  0  0  0  0  0  0  0  0  0  0  0
    7.4696   -6.0690   -0.0000 C   0  0  0  0  0  0  0  0  0  0  0  0
    5.5285   -7.1379   -0.0000 C   0  0  0  0  0  0  0  0  0  0  0  0
    7.0150   -7.5556   -0.0000 C   0  0  0  0  0  0  0  0  0  0  0  0
    7.7522   -8.9070   -0.0000 C   0  0  0  0  0  0  0  0  0  0  0  0
    6.9290  -10.2215   -0.0000 C   0  0  0  0  0  0  0  0  0  0  0  0
    7.5187  -11.3027   -0.0000 C   0  0  0  0  0  0  0  0  0  0  0  0
    5.6636  -10.1847   -0.0000 C   0  0  0  0  0  0  0  0  0  0  0  0
  1  2  2  0  0  0  0
  2  3  1  0  0  0  0
  2  4  1  0  0  0  0
  3  5  1  0  0  0  0
  4  6  1  0  0  0  0
  5  7  2  0  0  0  0
  5  8  1  0  0  0  0
  6  9  1  0  0  0  0
  7 10  1  0  0  0  0
  7 11  1  0  0  0  0
  8 12  2  0  0  0  0
  9 13  2  0  0  0  0
  9 14  1  0  0  0  0
 10 15  2  0  0  0  0
 13 16  1  0  0  0  0
 14 17  1  0  0  0  0
 14 18  1  0  0  0  0
 15 19  1  0  0  0  0
 20 17  1  1  0  0  0
 18 21  1  0  0  0  0
 18 22  1  0  0  0  0
 20 23  1  0  0  0  0
 20 24  1  0  0  0  0
 23 25  1  0  0  0  0
 25 26  1  1  0  0  0
 26 27  1  0  0  0  0
 27 28  1  0  0  0  0
 27 29  1  0  0  0  0
 12 15  1  0  0  0  0
 16 17  2  0  0  0  0
 21 22  1  0  0  0  0
 24 25  1  0  0  0  0
M  END
>  <MolRegNo>
2074067

>  <m>
=

>  <Value>
5000

>  <Unit>
nM

>  <Type>
IC50

>  <pValue>
5.3

>  <Ligand Efficiency>
0

>  <Binding Efficiency>
0

>  <Surface Efficiency>
0

>  <Assay Index>
999325

>  <Assay Category>


>  <Assay Organism>
Homo sapiens

>  <Target ID>
17045

>  <Target Name>
Cytochrome P450 3A4

>  <Target Organism>
Homo sapiens

>  <Target Description>
Target is a single protein chain

>  <Sequence Accession>
P08684

>  <Reference>
ACS Med Chem Lett 7 (1), 23-27 (2016)

>  <Pubmed ID>
26819660

>  <DOI>
10.1021/acsmedchemlett.5b00253

$$$$
2074429
Actelion Java MolfileCreator 1.0

 33 38  0  0  0  0  0  0  0  0999 V2000
    0.0000   -0.0000   -0.0000 F   0  0  0  0  0  0  0  0  0  0  0  0
   -1.1811   -0.3166   -0.0000 C   0  0  0  0  0  0  0  0  0  0  0  0
   -2.2891    0.7793   -0.0000 C   0  0  0  0  0  0  0  0  0  0  0  0
   -1.5342   -1.7169   -0.0000 C   0  0  0  0  0  0  0  0  0  0  0  0
   -3.7625    0.3775   -0.0000 C   0  0  0  0  0  0  0  0  0  0  0  0
   -3.0197   -2.1796   -0.0000 C   0  0  0  0  0  0  0  0  0  0  0  0
   -4.6757    1.5951   -0.0000 O   0  0  0  0  0  0  0  0  0  0  0  0
   -4.1399   -1.0959   -0.0000 C   0  0  0  0  0  0  0  0  0  0  0  0
   -6.2343    1.6438   -0.0000 C   0  0  0  0  0  0  0  0  0  0  0  0
   -5.5280   -1.7169   -0.0000 C   0  0  0  0  0  0  0  0  0  0  0  0
   -7.2205    0.4262   -0.0000 C   0  0  0  0  0  0  0  0  0  0  0  0
   -6.9040   -1.0350   -0.0000 C   0  0  0  0  0  0  0  0  0  0  0  0
   -5.5524   -3.2267   -0.0000 C   0  0  0  0  0  0  0  0  0  0  0  0
   -8.6695    0.8889   -0.0000 C   0  0  0  0  0  0  0  0  0  0  0  0
   -8.0729   -2.0213   -0.0000 C   0  0  0  0  0  0  0  0  0  0  0  0
   -6.8918   -3.9573   -0.0000 C   0  0  0  0  0  0  0  0  0  0  0  0
   -9.8263   -0.1218   -0.0000 C   0  0  0  0  0  0  0  0  0  0  0  0
   -9.5462   -1.5342   -0.0000 C   0  0  0  0  0  0  0  0  0  0  0  0
   -6.9283   -5.4915   -0.0000 C   0  0  0  0  0  0  0  0  0  0  0  0
   -8.2433   -3.1658   -0.0000 C   0  0  0  0  0  0  0  0  0  0  0  0
   -8.2799   -6.2221   -0.0000 C   0  0  0  0  0  0  0  0  0  0  0  0
   -9.6193   -3.9329   -0.0000 C   0  0  0  0  0  0  0  0  0  0  0  0
   -8.5843   -7.6832   -0.0000 N   0  0  0  0  0  0  0  0  0  0  0  0
   -9.5949   -5.4550   -0.0000 C   0  0  0  0  0  0  0  0  0  0  0  0
  -10.0941   -7.7685   -0.0000 C   0  0  0  0  0  0  0  0  0  0  0  0
  -10.7395   -6.4291   -0.0000 C   0  0  0  0  0  0  0  0  0  0  0  0
  -10.7151   -8.8035   -0.0000 O   0  0  0  0  0  0  0  0  0  0  0  0
  -11.2265   -7.8659   -0.0000 C   0  0  0  0  0  0  0  0  0  0  0  0
  -11.7501   -5.2602   -0.0000 C   0  0  0  0  0  0  0  0  0  0  0  0
  -12.7242   -8.0607   -0.0000 C   0  0  0  0  0  0  0  0  0  0  0  0
  -13.2235   -5.4915   -0.0000 C   0  0  0  0  0  0  0  0  0  0  0  0
  -13.7470   -6.9040   -0.0000 N   0  0  0  0  0  0  0  0  0  0  0  0
  -14.9525   -7.1231   -0.0000 C   0  0  0  0  0  0  0  0  0  0  0  0
  1  2  1  0  0  0  0
  2  3  2  0  0  0  0
  2  4  1  0  0  0  0
  3  5  1  0  0  0  0
  4  6  2  0  0  0  0
  5  7  1  0  0  0  0
  5  8  2  0  0  0  0
  7  9  1  0  0  0  0
  8 10  1  0  0  0  0
  9 11  1  0  0  0  0
 10 12  1  0  0  0  0
 10 13  2  0  0  0  0
 11 14  1  0  0  0  0
 12 15  1  0  0  0  0
 13 16  1  0  0  0  0
 14 17  2  0  0  0  0
 15 18  2  0  0  0  0
 16 19  2  0  0  0  0
 16 20  1  0  0  0  0
 19 21  1  0  0  0  0
 20 22  2  0  0  0  0
 21 23  1  0  0  0  0
 21 24  2  0  0  0  0
 23 25  1  0  0  0  0
 24 26  1  0  0  0  0
 25 27  2  0  0  0  0
 26 28  1  0  0  0  0
 26 29  1  0  0  0  0
 28 30  1  0  0  0  0
 29 31  1  0  0  0  0
 30 32  1  0  0  0  0
 32 33  1  0  0  0  0
  6  8  1  0  0  0  0
 11 12  2  0  0  0  0
 17 18  1  0  0  0  0
 22 24  1  0  0  0  0
 25 26  1  0  0  0  0
 31 32  1  0  0  0  0
M  END
>  <MolRegNo>
2074429

>  <m>
=

>  <Value>
7040

>  <Unit>
nM

>  <Type>
IC50

>  <pValue>
5.15

>  <Ligand Efficiency>
0

>  <Binding Efficiency>
0

>  <Surface Efficiency>
0

>  <Assay Index>
998733

>  <Assay Category>


>  <Assay Organism>
Homo sapiens

>  <Target ID>
17045

>  <Target Name>
Cytochrome P450 3A4

>  <Target Organism>
Homo sapiens

>  <Target Description>
Target is a single protein chain

>  <Sequence Accession>
P08684

>  <Reference>
Bioorg Med Chem 24 (6), 1384-1391 (2016)

>  <Pubmed ID>
26897089

>  <DOI>
10.1016/j.bmc.2016.02.014

$$$$
2074424
Actelion Java MolfileCreator 1.0

 34 39  0  0  0  0  0  0  0  0999 V2000
    0.0000   -0.0000   -0.0000 F   0  0  0  0  0  0  0  0  0  0  0  0
   -1.1869   -0.3181   -0.0000 C   0  0  0  0  0  0  0  0  0  0  0  0
   -2.3005    0.7831   -0.0000 C   0  0  0  0  0  0  0  0  0  0  0  0
   -1.5418   -1.7253   -0.0000 C   0  0  0  0  0  0  0  0  0  0  0  0
   -3.7811    0.3793   -0.0000 C   0  0  0  0  0  0  0  0  0  0  0  0
   -3.0346   -2.1903   -0.0000 C   0  0  0  0  0  0  0  0  0  0  0  0
   -4.6988    1.6030   -0.0000 O   0  0  0  0  0  0  0  0  0  0  0  0
   -4.1604   -1.1013   -0.0000 C   0  0  0  0  0  0  0  0  0  0  0  0
   -6.2651    1.6519   -0.0000 C   0  0  0  0  0  0  0  0  0  0  0  0
   -5.5553   -1.7253   -0.0000 C   0  0  0  0  0  0  0  0  0  0  0  0
   -7.2562    0.4283   -0.0000 C   0  0  0  0  0  0  0  0  0  0  0  0
   -6.9381   -1.0401   -0.0000 C   0  0  0  0  0  0  0  0  0  0  0  0
   -5.5798   -3.2427   -0.0000 C   0  0  0  0  0  0  0  0  0  0  0  0
   -8.7124    0.8933   -0.0000 C   0  0  0  0  0  0  0  0  0  0  0  0
   -8.1128   -2.0313   -0.0000 C   0  0  0  0  0  0  0  0  0  0  0  0
   -6.9258   -3.9768   -0.0000 C   0  0  0  0  0  0  0  0  0  0  0  0
   -9.8748   -0.1224   -0.0000 C   0  0  0  0  0  0  0  0  0  0  0  0
   -9.5934   -1.5418   -0.0000 C   0  0  0  0  0  0  0  0  0  0  0  0
   -6.9625   -5.5186   -0.0000 C   0  0  0  0  0  0  0  0  0  0  0  0
   -8.2841   -3.1815   -0.0000 C   0  0  0  0  0  0  0  0  0  0  0  0
   -8.3208   -6.2528   -0.0000 C   0  0  0  0  0  0  0  0  0  0  0  0
   -9.6668   -3.9524   -0.0000 C   0  0  0  0  0  0  0  0  0  0  0  0
   -8.6267   -7.7212   -0.0000 N   0  0  0  0  0  0  0  0  0  0  0  0
   -9.6423   -5.4819   -0.0000 C   0  0  0  0  0  0  0  0  0  0  0  0
  -10.1440   -7.8069   -0.0000 C   0  0  0  0  0  0  0  0  0  0  0  0
  -10.7925   -6.4608   -0.0000 C   0  0  0  0  0  0  0  0  0  0  0  0
  -10.7681   -8.8470   -0.0000 O   0  0  0  0  0  0  0  0  0  0  0  0
  -11.2820   -7.9047   -0.0000 C   0  0  0  0  0  0  0  0  0  0  0  0
  -11.8082   -5.2861   -0.0000 C   0  0  0  0  0  0  0  0  0  0  0  0
  -12.7871   -8.1005   -0.0000 C   0  0  0  0  0  0  0  0  0  0  0  0
  -13.2888   -5.5186   -0.0000 C   0  0  0  0  0  0  0  0  0  0  0  0
  -13.8150   -6.9381   -0.0000 N   0  0  0  0  0  0  0  0  0  0  0  0
  -14.2065   -8.0883   -0.0000 O   0  0  0  0  0  0  0  0  0  0  0  0
  -14.5981   -5.9836   -0.0000 C   0  0  0  0  0  0  0  0  0  0  0  0
  1  2  1  0  0  0  0
  2  3  2  0  0  0  0
  2  4  1  0  0  0  0
  3  5  1  0  0  0  0
  4  6  2  0  0  0  0
  5  7  1  0  0  0  0
  5  8  2  0  0  0  0
  7  9  1  0  0  0  0
  8 10  1  0  0  0  0
  9 11  1  0  0  0  0
 10 12  1  0  0  0  0
 10 13  2  0  0  0  0
 11 14  1  0  0  0  0
 12 15  1  0  0  0  0
 13 16  1  0  0  0  0
 14 17  2  0  0  0  0
 15 18  2  0  0  0  0
 16 19  2  0  0  0  0
 16 20  1  0  0  0  0
 19 21  1  0  0  0  0
 20 22  2  0  0  0  0
 21 23  1  0  0  0  0
 21 24  2  0  0  0  0
 23 25  1  0  0  0  0
 24 26  1  0  0  0  0
 25 27  2  0  0  0  0
 26 28  1  0  0  0  0
 26 29  1  0  0  0  0
 28 30  1  0  0  0  0
 29 31  1  0  0  0  0
 30 32  1  0  0  0  0
 32 33  1  0  0  0  0
 32 34  1  0  0  0  0
  6  8  1  0  0  0  0
 11 12  2  0  0  0  0
 17 18  1  0  0  0  0
 22 24  1  0  0  0  0
 25 26  1  0  0  0  0
 31 32  1  0  0  0  0
M  CHG  2  32   1  33  -1
M  END
>  <MolRegNo>
2074424

>  <m>
=

>  <Value>
26139

>  <Unit>
nM

>  <Type>
IC50

>  <pValue>
4.58

>  <Ligand Efficiency>
0

>  <Binding Efficiency>
0

>  <Surface Efficiency>
0

>  <Assay Index>
998733

>  <Assay Category>


>  <Assay Organism>
Homo sapiens

>  <Target ID>
17045

>  <Target Name>
Cytochrome P450 3A4

>  <Target Organism>
Homo sapiens

>  <Target Description>
Target is a single protein chain

>  <Sequence Accession>
P08684

>  <Reference>
Bioorg Med Chem 24 (6), 1384-1391 (2016)

>  <Pubmed ID>
26897089

>  <DOI>
10.1016/j.bmc.2016.02.014

$$$$
2074425
Actelion Java MolfileCreator 1.0

 37 42  0  0  0  0  0  0  0  0999 V2000
    0.0000   -0.0000   -0.0000 F   0  0  0  0  0  0  0  0  0  0  0  0
   -1.1845   -0.3175   -0.0000 C   0  0  0  0  0  0  0  0  0  0  0  0
   -2.2957    0.7815   -0.0000 C   0  0  0  0  0  0  0  0  0  0  0  0
   -1.5386   -1.7218   -0.0000 C   0  0  0  0  0  0  0  0  0  0  0  0
   -3.7733    0.3785   -0.0000 C   0  0  0  0  0  0  0  0  0  0  0  0
   -3.0284   -2.1858   -0.0000 C   0  0  0  0  0  0  0  0  0  0  0  0
   -4.6891    1.5997   -0.0000 O   0  0  0  0  0  0  0  0  0  0  0  0
   -4.1518   -1.0990   -0.0000 C   0  0  0  0  0  0  0  0  0  0  0  0
   -6.2522    1.6485   -0.0000 C   0  0  0  0  0  0  0  0  0  0  0  0
   -5.5439   -1.7218   -0.0000 C   0  0  0  0  0  0  0  0  0  0  0  0
   -7.2413    0.4274   -0.0000 C   0  0  0  0  0  0  0  0  0  0  0  0
   -6.9238   -1.0380   -0.0000 C   0  0  0  0  0  0  0  0  0  0  0  0
   -5.5683   -3.2360   -0.0000 C   0  0  0  0  0  0  0  0  0  0  0  0
   -8.6944    0.8914   -0.0000 C   0  0  0  0  0  0  0  0  0  0  0  0
   -8.0961   -2.0271   -0.0000 C   0  0  0  0  0  0  0  0  0  0  0  0
   -6.9116   -3.9687   -0.0000 C   0  0  0  0  0  0  0  0  0  0  0  0
   -9.8545   -0.1221   -0.0000 C   0  0  0  0  0  0  0  0  0  0  0  0
   -9.5736   -1.5386   -0.0000 C   0  0  0  0  0  0  0  0  0  0  0  0
   -6.9482   -5.5073   -0.0000 C   0  0  0  0  0  0  0  0  0  0  0  0
   -8.2670   -3.1749   -0.0000 C   0  0  0  0  0  0  0  0  0  0  0  0
   -8.3037   -6.2400   -0.0000 C   0  0  0  0  0  0  0  0  0  0  0  0
   -9.6469   -3.9442   -0.0000 C   0  0  0  0  0  0  0  0  0  0  0  0
   -8.6089   -7.7053   -0.0000 N   0  0  0  0  0  0  0  0  0  0  0  0
   -9.6225   -5.4707   -0.0000 C   0  0  0  0  0  0  0  0  0  0  0  0
  -10.1231   -7.7908   -0.0000 C   0  0  0  0  0  0  0  0  0  0  0  0
  -10.7703   -6.4476   -0.0000 C   0  0  0  0  0  0  0  0  0  0  0  0
  -10.7459   -8.8288   -0.0000 O   0  0  0  0  0  0  0  0  0  0  0  0
  -11.2588   -7.8885   -0.0000 C   0  0  0  0  0  0  0  0  0  0  0  0
  -11.7839   -5.2753   -0.0000 C   0  0  0  0  0  0  0  0  0  0  0  0
  -12.7608   -8.0839   -0.0000 C   0  0  0  0  0  0  0  0  0  0  0  0
  -13.2614   -5.5073   -0.0000 C   0  0  0  0  0  0  0  0  0  0  0  0
  -13.7865   -6.9238   -0.0000 N   0  0  0  0  0  0  0  0  0  0  0  0
  -15.3007   -7.1924   -0.0000 C   0  0  0  0  0  0  0  0  0  0  0  0
  -16.3021   -6.0202   -0.0000 C   0  0  0  0  0  0  0  0  0  0  0  0
  -17.8162   -6.2888   -0.0000 C   0  0  0  0  0  0  0  0  0  0  0  0
  -18.6222   -5.3485   -0.0000 O   0  0  0  0  0  0  0  0  0  0  0  0
  -18.2314   -7.4245   -0.0000 O   0  0  0  0  0  0  0  0  0  0  0  0
  1  2  1  0  0  0  0
  2  3  2  0  0  0  0
  2  4  1  0  0  0  0
  3  5  1  0  0  0  0
  4  6  2  0  0  0  0
  5  7  1  0  0  0  0
  5  8  2  0  0  0  0
  7  9  1  0  0  0  0
  8 10  1  0  0  0  0
  9 11  1  0  0  0  0
 10 12  1  0  0  0  0
 10 13  2  0  0  0  0
 11 14  1  0  0  0  0
 12 15  1  0  0  0  0
 13 16  1  0  0  0  0
 14 17  2  0  0  0  0
 15 18  2  0  0  0  0
 16 19  2  0  0  0  0
 16 20  1  0  0  0  0
 19 21  1  0  0  0  0
 20 22  2  0  0  0  0
 21 23  1  0  0  0  0
 21 24  2  0  0  0  0
 23 25  1  0  0  0  0
 24 26  1  0  0  0  0
 25 27  2  0  0  0  0
 26 28  1  0  0  0  0
 26 29  1  0  0  0  0
 28 30  1  0  0  0  0
 29 31  1  0  0  0  0
 30 32  1  0  0  0  0
 32 33  1  0  0  0  0
 33 34  1  0  0  0  0
 34 35  1  0  0  0  0
 35 36  2  0  0  0  0
 35 37  1  0  0  0  0
  6  8  1  0  0  0  0
 11 12  2  0  0  0  0
 17 18  1  0  0  0  0
 22 24  1  0  0  0  0
 25 26  1  0  0  0  0
 31 32  1  0  0  0  0
M  END
>  <MolRegNo>
2074425

>  <m>
=

>  <Value>
25988

>  <Unit>
nM

>  <Type>
IC50

>  <pValue>
4.58

>  <Ligand Efficiency>
0

>  <Binding Efficiency>
0

>  <Surface Efficiency>
0

>  <Assay Index>
998733

>  <Assay Category>


>  <Assay Organism>
Homo sapiens

>  <Target ID>
17045

>  <Target Name>
Cytochrome P450 3A4

>  <Target Organism>
Homo sapiens

>  <Target Description>
Target is a single protein chain

>  <Sequence Accession>
P08684

>  <Reference>
Bioorg Med Chem 24 (6), 1384-1391 (2016)

>  <Pubmed ID>
26897089

>  <DOI>
10.1016/j.bmc.2016.02.014

$$$$
2074426
Actelion Java MolfileCreator 1.0

 38 43  0  0  0  0  0  0  0  0999 V2000
    0.0000   -0.0000   -0.0000 F   0  0  0  0  0  0  0  0  0  0  0  0
   -1.1899   -0.3189   -0.0000 C   0  0  0  0  0  0  0  0  0  0  0  0
   -2.3061    0.7851   -0.0000 C   0  0  0  0  0  0  0  0  0  0  0  0
   -1.5456   -1.7296   -0.0000 C   0  0  0  0  0  0  0  0  0  0  0  0
   -3.7904    0.3803   -0.0000 C   0  0  0  0  0  0  0  0  0  0  0  0
   -3.0421   -2.1957   -0.0000 C   0  0  0  0  0  0  0  0  0  0  0  0
   -4.7104    1.6069   -0.0000 O   0  0  0  0  0  0  0  0  0  0  0  0
   -4.1706   -1.1040   -0.0000 C   0  0  0  0  0  0  0  0  0  0  0  0
   -6.2805    1.6560   -0.0000 C   0  0  0  0  0  0  0  0  0  0  0  0
   -5.5690   -1.7296   -0.0000 C   0  0  0  0  0  0  0  0  0  0  0  0
   -7.2741    0.4293   -0.0000 C   0  0  0  0  0  0  0  0  0  0  0  0
   -6.9552   -1.0427   -0.0000 C   0  0  0  0  0  0  0  0  0  0  0  0
   -5.5936   -3.2506   -0.0000 C   0  0  0  0  0  0  0  0  0  0  0  0
   -8.7338    0.8955   -0.0000 C   0  0  0  0  0  0  0  0  0  0  0  0
   -8.1327   -2.0363   -0.0000 C   0  0  0  0  0  0  0  0  0  0  0  0
   -6.9429   -3.9866   -0.0000 C   0  0  0  0  0  0  0  0  0  0  0  0
   -9.8991   -0.1227   -0.0000 C   0  0  0  0  0  0  0  0  0  0  0  0
   -9.6170   -1.5456   -0.0000 C   0  0  0  0  0  0  0  0  0  0  0  0
   -6.9797   -5.5322   -0.0000 C   0  0  0  0  0  0  0  0  0  0  0  0
   -8.3045   -3.1893   -0.0000 C   0  0  0  0  0  0  0  0  0  0  0  0
   -8.3413   -6.2682   -0.0000 C   0  0  0  0  0  0  0  0  0  0  0  0
   -9.6906   -3.9621   -0.0000 C   0  0  0  0  0  0  0  0  0  0  0  0
   -8.6479   -7.7402   -0.0000 N   0  0  0  0  0  0  0  0  0  0  0  0
   -9.6661   -5.4954   -0.0000 C   0  0  0  0  0  0  0  0  0  0  0  0
  -10.1690   -7.8261   -0.0000 C   0  0  0  0  0  0  0  0  0  0  0  0
  -10.8191   -6.4768   -0.0000 C   0  0  0  0  0  0  0  0  0  0  0  0
  -10.7946   -8.8687   -0.0000 O   0  0  0  0  0  0  0  0  0  0  0  0
  -11.3098   -7.9242   -0.0000 C   0  0  0  0  0  0  0  0  0  0  0  0
  -11.8373   -5.2992   -0.0000 C   0  0  0  0  0  0  0  0  0  0  0  0
  -12.8186   -8.1205   -0.0000 C   0  0  0  0  0  0  0  0  0  0  0  0
  -13.3215   -5.5322   -0.0000 C   0  0  0  0  0  0  0  0  0  0  0  0
  -13.8490   -6.9552   -0.0000 N   0  0  0  0  0  0  0  0  0  0  0  0
  -15.3700   -7.2250   -0.0000 C   0  0  0  0  0  0  0  0  0  0  0  0
  -15.7871   -8.3658   -0.0000 O   0  0  0  0  0  0  0  0  0  0  0  0
  -16.3759   -6.0474   -0.0000 C   0  0  0  0  0  0  0  0  0  0  0  0
  -17.8969   -6.3173   -0.0000 N   0  0  0  0  0  0  0  0  0  0  0  0
  -18.7065   -5.3728   -0.0000 C   0  0  0  0  0  0  0  0  0  0  0  0
  -18.3140   -7.4581   -0.0000 C   0  0  0  0  0  0  0  0  0  0  0  0
  1  2  1  0  0  0  0
  2  3  2  0  0  0  0
  2  4  1  0  0  0  0
  3  5  1  0  0  0  0
  4  6  2  0  0  0  0
  5  7  1  0  0  0  0
  5  8  2  0  0  0  0
  7  9  1  0  0  0  0
  8 10  1  0  0  0  0
  9 11  1  0  0  0  0
 10 12  1  0  0  0  0
 10 13  2  0  0  0  0
 11 14  1  0  0  0  0
 12 15  1  0  0  0  0
 13 16  1  0  0  0  0
 14 17  2  0  0  0  0
 15 18  2  0  0  0  0
 16 19  2  0  0  0  0
 16 20  1  0  0  0  0
 19 21  1  0  0  0  0
 20 22  2  0  0  0  0
 21 23  1  0  0  0  0
 21 24  2  0  0  0  0
 23 25  1  0  0  0  0
 24 26  1  0  0  0  0
 25 27  2  0  0  0  0
 26 28  1  0  0  0  0
 26 29  1  0  0  0  0
 28 30  1  0  0  0  0
 29 31  1  0  0  0  0
 30 32  1  0  0  0  0
 32 33  1  0  0  0  0
 33 34  2  0  0  0  0
 33 35  1  0  0  0  0
 35 36  1  0  0  0  0
 36 37  1  0  0  0  0
 36 38  1  0  0  0  0
  6  8  1  0  0  0  0
 11 12  2  0  0  0  0
 17 18  1  0  0  0  0
 22 24  1  0  0  0  0
 25 26  1  0  0  0  0
 31 32  1  0  0  0  0
M  END
>  <MolRegNo>
2074426

>  <m>
=

>  <Value>
4778

>  <Unit>
nM

>  <Type>
IC50

>  <pValue>
5.32

>  <Ligand Efficiency>
0

>  <Binding Efficiency>
0

>  <Surface Efficiency>
0

>  <Assay Index>
998733

>  <Assay Category>


>  <Assay Organism>
Homo sapiens

>  <Target ID>
17045

>  <Target Name>
Cytochrome P450 3A4

>  <Target Organism>
Homo sapiens

>  <Target Description>
Target is a single protein chain

>  <Sequence Accession>
P08684

>  <Reference>
Bioorg Med Chem 24 (6), 1384-1391 (2016)

>  <Pubmed ID>
26897089

>  <DOI>
10.1016/j.bmc.2016.02.014

$$$$
2074430
Actelion Java MolfileCreator 1.0

 28 32  0  0  0  0  0  0  0  0999 V2000
    0.0000   -0.0000   -0.0000 F   0  0  0  0  0  0  0  0  0  0  0  0
    1.1481   -0.3420   -0.0000 C   0  0  0  0  0  0  0  0  0  0  0  0
    2.2595    0.7328   -0.0000 C   0  0  0  0  0  0  0  0  0  0  0  0
    1.4534   -1.7587   -0.0000 C   0  0  0  0  0  0  0  0  0  0  0  0
    3.7006    0.3053   -0.0000 C   0  0  0  0  0  0  0  0  0  0  0  0
    2.9190   -2.2473   -0.0000 C   0  0  0  0  0  0  0  0  0  0  0  0
    4.6166    1.5022   -0.0000 O   0  0  0  0  0  0  0  0  0  0  0  0
    4.0182   -1.1847   -0.0000 C   0  0  0  0  0  0  0  0  0  0  0  0
    6.1555    1.5145   -0.0000 C   0  0  0  0  0  0  0  0  0  0  0  0
    5.3617   -1.8320   -0.0000 N   0  0  0  0  0  0  0  0  0  0  0  0
    7.0960    0.2809   -0.0000 C   0  0  0  0  0  0  0  0  0  0  0  0
    6.7296   -1.1725   -0.0000 C   0  0  0  0  0  0  0  0  0  0  0  0
    5.3372   -3.3465   -0.0000 C   0  0  0  0  0  0  0  0  0  0  0  0
    8.5371    0.7206   -0.0000 C   0  0  0  0  0  0  0  0  0  0  0  0
    7.8532   -2.1862   -0.0000 C   0  0  0  0  0  0  0  0  0  0  0  0
    3.9938   -4.0793   -0.0000 C   0  0  0  0  0  0  0  0  0  0  0  0
    9.6485   -0.3175   -0.0000 C   0  0  0  0  0  0  0  0  0  0  0  0
    9.3188   -1.7343   -0.0000 C   0  0  0  0  0  0  0  0  0  0  0  0
    3.9571   -5.6059   -0.0000 C   0  0  0  0  0  0  0  0  0  0  0  0
    2.6747   -3.2854   -0.0000 C   0  0  0  0  0  0  0  0  0  0  0  0
    2.6137   -6.3387   -0.0000 C   0  0  0  0  0  0  0  0  0  0  0  0
    1.3313   -4.0304   -0.0000 C   0  0  0  0  0  0  0  0  0  0  0  0
    2.5892   -7.8532   -0.0000 N   0  0  0  0  0  0  0  0  0  0  0  0
    1.2946   -5.5571   -0.0000 C   0  0  0  0  0  0  0  0  0  0  0  0
    1.2458   -8.5860   -0.0000 C   0  0  0  0  0  0  0  0  0  0  0  0
   -0.0489   -6.2899   -0.0000 O   0  0  0  0  0  0  0  0  0  0  0  0
    1.2213   -9.7951   -0.0000 O   0  0  0  0  0  0  0  0  0  0  0  0
   -0.0733   -7.8043   -0.0000 C   0  0  0  0  0  0  0  0  0  0  0  0
  1  2  1  0  0  0  0
  2  3  2  0  0  0  0
  2  4  1  0  0  0  0
  3  5  1  0  0  0  0
  4  6  2  0  0  0  0
  5  7  1  0  0  0  0
  5  8  2  0  0  0  0
  7  9  1  0  0  0  0
  8 10  1  0  0  0  0
  9 11  1  0  0  0  0
 10 12  1  0  0  0  0
 10 13  1  0  0  0  0
 11 14  1  0  0  0  0
 12 15  1  0  0  0  0
 13 16  1  0  0  0  0
 14 17  2  0  0  0  0
 15 18  2  0  0  0  0
 16 19  2  0  0  0  0
 16 20  1  0  0  0  0
 19 21  1  0  0  0  0
 20 22  2  0  0  0  0
 21 23  1  0  0  0  0
 21 24  2  0  0  0  0
 23 25  1  0  0  0  0
 24 26  1  0  0  0  0
 25 27  2  0  0  0  0
 25 28  1  0  0  0  0
  6  8  1  0  0  0  0
 11 12  2  0  0  0  0
 17 18  1  0  0  0  0
 22 24  1  0  0  0  0
 26 28  1  0  0  0  0
M  END
>  <MolRegNo>
2074430

>  <m>
=

>  <Value>
5544

>  <Unit>
nM

>  <Type>
IC50

>  <pValue>
5.26

>  <Ligand Efficiency>
0

>  <Binding Efficiency>
0

>  <Surface Efficiency>
0

>  <Assay Index>
998733

>  <Assay Category>


>  <Assay Organism>
Homo sapiens

>  <Target ID>
17045

>  <Target Name>
Cytochrome P450 3A4

>  <Target Organism>
Homo sapiens

>  <Target Description>
Target is a single protein chain

>  <Sequence Accession>
P08684

>  <Reference>
Bioorg Med Chem 24 (6), 1384-1391 (2016)

>  <Pubmed ID>
26897089

>  <DOI>
10.1016/j.bmc.2016.02.014

$$$$
2074431
Actelion Java MolfileCreator 1.0

 30 34  0  0  0  0  0  0  0  0999 V2000
    0.0000   -0.0000   -0.0000 S   0  0  0  0  0  0  0  0  0  0  0  0
   -1.0867   -0.5983   -0.0000 O   0  0  0  0  0  0  0  0  0  0  0  0
   -0.0244   -1.2210   -0.0000 O   0  0  0  0  0  0  0  0  0  0  0  0
    0.0000    1.5507   -0.0000 N   0  0  0  0  0  0  0  0  0  0  0  0
    1.3187   -0.7692   -0.0000 C   0  0  0  0  0  0  0  0  0  0  0  0
   -1.3919    2.2344   -0.0000 C   0  0  0  0  0  0  0  0  0  0  0  0
    1.3797    2.2222   -0.0000 C   0  0  0  0  0  0  0  0  0  0  0  0
    1.2943   -2.3077   -0.0000 C   0  0  0  0  0  0  0  0  0  0  0  0
    2.6496   -0.0000   -0.0000 C   0  0  0  0  0  0  0  0  0  0  0  0
   -1.7338    3.7607   -0.0000 C   0  0  0  0  0  0  0  0  0  0  0  0
   -2.5397    1.1966   -0.0000 C   0  0  0  0  0  0  0  0  0  0  0  0
    1.7338    3.6997   -0.0000 C   0  0  0  0  0  0  0  0  0  0  0  0
    2.5153    1.1966   -0.0000 C   0  0  0  0  0  0  0  0  0  0  0  0
    2.6007   -3.0769   -0.0000 C   0  0  0  0  0  0  0  0  0  0  0  0
    3.9683   -0.7814   -0.0000 C   0  0  0  0  0  0  0  0  0  0  0  0
   -0.8059    4.9695   -0.0000 O   0  0  0  0  0  0  0  0  0  0  0  0
   -3.2112    4.2247   -0.0000 C   0  0  0  0  0  0  0  0  0  0  0  0
   -4.0415    1.7216   -0.0000 C   0  0  0  0  0  0  0  0  0  0  0  0
    3.1868    4.1392   -0.0000 C   0  0  0  0  0  0  0  0  0  0  0  0
    0.7570    4.9695   -0.0000 C   0  0  0  0  0  0  0  0  0  0  0  0
    3.9927    1.6606   -0.0000 C   0  0  0  0  0  0  0  0  0  0  0  0
    2.5763   -4.6032   -0.0000 N   0  0  0  0  0  0  0  0  0  0  0  0
    3.9316   -2.3077   -0.0000 C   0  0  0  0  0  0  0  0  0  0  0  0
   -4.3590    3.1624   -0.0000 C   0  0  0  0  0  0  0  0  0  0  0  0
    4.3102    3.1014   -0.0000 C   0  0  0  0  0  0  0  0  0  0  0  0
    3.8828   -5.3724   -0.0000 C   0  0  0  0  0  0  0  0  0  0  0  0
    5.2381   -3.0769   -0.0000 O   0  0  0  0  0  0  0  0  0  0  0  0
   -5.5434    3.5409   -0.0000 F   0  0  0  0  0  0  0  0  0  0  0  0
    3.8584   -6.5934   -0.0000 O   0  0  0  0  0  0  0  0  0  0  0  0
    5.2137   -4.6032   -0.0000 C   0  0  0  0  0  0  0  0  0  0  0  0
  1  2  2  0  0  0  0
  1  3  2  0  0  0  0
  1  4  1  0  0  0  0
  1  5  1  0  0  0  0
  4  6  1  0  0  0  0
  4  7  1  0  0  0  0
  5  8  2  0  0  0  0
  5  9  1  0  0  0  0
  6 10  2  0  0  0  0
  6 11  1  0  0  0  0
  7 12  2  0  0  0  0
  7 13  1  0  0  0  0
  8 14  1  0  0  0  0
  9 15  2  0  0  0  0
 10 16  1  0  0  0  0
 10 17  1  0  0  0  0
 11 18  2  0  0  0  0
 12 19  1  0  0  0  0
 12 20  1  0  0  0  0
 13 21  2  0  0  0  0
 14 22  1  0  0  0  0
 14 23  2  0  0  0  0
 17 24  2  0  0  0  0
 19 25  2  0  0  0  0
 22 26  1  0  0  0  0
 23 27  1  0  0  0  0
 24 28  1  0  0  0  0
 26 29  2  0  0  0  0
 26 30  1  0  0  0  0
 15 23  1  0  0  0  0
 16 20  1  0  0  0  0
 18 24  1  0  0  0  0
 21 25  1  0  0  0  0
 27 30  1  0  0  0  0
M  END
>  <MolRegNo>
2074431

>  <m>
=

>  <Value>
6697

>  <Unit>
nM

>  <Type>
IC50

>  <pValue>
5.17

>  <Ligand Efficiency>
0

>  <Binding Efficiency>
0

>  <Surface Efficiency>
0

>  <Assay Index>
998733

>  <Assay Category>


>  <Assay Organism>
Homo sapiens

>  <Target ID>
17045

>  <Target Name>
Cytochrome P450 3A4

>  <Target Organism>
Homo sapiens

>  <Target Description>
Target is a single protein chain

>  <Sequence Accession>
P08684

>  <Reference>
Bioorg Med Chem 24 (6), 1384-1391 (2016)

>  <Pubmed ID>
26897089

>  <DOI>
10.1016/j.bmc.2016.02.014

$$$$
2074435
Actelion Java MolfileCreator 1.0

 32 36  0  0  0  0  0  0  0  0999 V2000
    0.0000   -0.0000   -0.0000 S   0  0  0  0  0  0  0  0  0  0  0  0
   -1.0976   -0.6043   -0.0000 O   0  0  0  0  0  0  0  0  0  0  0  0
   -0.0247   -1.2332   -0.0000 O   0  0  0  0  0  0  0  0  0  0  0  0
    0.0000    1.5662   -0.0000 N   0  0  0  0  0  0  0  0  0  0  0  0
    1.3319   -0.7769   -0.0000 C   0  0  0  0  0  0  0  0  0  0  0  0
   -1.4059    2.2568   -0.0000 C   0  0  0  0  0  0  0  0  0  0  0  0
    1.3936    2.2445   -0.0000 C   0  0  0  0  0  0  0  0  0  0  0  0
    1.3072   -2.3308   -0.0000 C   0  0  0  0  0  0  0  0  0  0  0  0
    2.6761   -0.0000   -0.0000 C   0  0  0  0  0  0  0  0  0  0  0  0
   -1.7512    3.7984   -0.0000 C   0  0  0  0  0  0  0  0  0  0  0  0
   -2.5651    1.2086   -0.0000 C   0  0  0  0  0  0  0  0  0  0  0  0
    1.7512    3.7367   -0.0000 C   0  0  0  0  0  0  0  0  0  0  0  0
    2.5405    1.2086   -0.0000 C   0  0  0  0  0  0  0  0  0  0  0  0
    2.6268   -3.1077   -0.0000 C   0  0  0  0  0  0  0  0  0  0  0  0
    4.0080   -0.7893   -0.0000 C   0  0  0  0  0  0  0  0  0  0  0  0
   -0.8139    5.0193   -0.0000 O   0  0  0  0  0  0  0  0  0  0  0  0
   -3.2434    4.2670   -0.0000 C   0  0  0  0  0  0  0  0  0  0  0  0
   -4.0820    1.7389   -0.0000 C   0  0  0  0  0  0  0  0  0  0  0  0
    3.2187    4.1807   -0.0000 C   0  0  0  0  0  0  0  0  0  0  0  0
    0.7646    5.0193   -0.0000 C   0  0  0  0  0  0  0  0  0  0  0  0
    4.0327    1.6772   -0.0000 C   0  0  0  0  0  0  0  0  0  0  0  0
    3.9710   -2.3308   -0.0000 C   0  0  0  0  0  0  0  0  0  0  0  0
    2.6021   -4.6493   -0.0000 C   0  0  0  0  0  0  0  0  0  0  0  0
   -4.4026    3.1941   -0.0000 C   0  0  0  0  0  0  0  0  0  0  0  0
    4.3533    3.1324   -0.0000 C   0  0  0  0  0  0  0  0  0  0  0  0
    5.2906   -3.1077   -0.0000 N   0  0  0  0  0  0  0  0  0  0  0  0
    3.9217   -5.4262   -0.0000 O   0  0  0  0  0  0  0  0  0  0  0  0
    1.5292   -3.9833   -0.0000 C   0  0  0  0  0  0  0  0  0  0  0  0
    2.6021   -5.8825   -0.0000 C   0  0  0  0  0  0  0  0  0  0  0  0
   -5.5989    3.5764   -0.0000 F   0  0  0  0  0  0  0  0  0  0  0  0
    5.2659   -4.6493   -0.0000 C   0  0  0  0  0  0  0  0  0  0  0  0
    6.3265   -5.2659   -0.0000 S   0  0  0  0  0  0  0  0  0  0  0  0
  1  2  2  0  0  0  0
  1  3  2  0  0  0  0
  1  4  1  0  0  0  0
  1  5  1  0  0  0  0
  4  6  1  0  0  0  0
  4  7  1  0  0  0  0
  5  8  2  0  0  0  0
  5  9  1  0  0  0  0
  6 10  2  0  0  0  0
  6 11  1  0  0  0  0
  7 12  2  0  0  0  0
  7 13  1  0  0  0  0
  8 14  1  0  0  0  0
  9 15  2  0  0  0  0
 10 16  1  0  0  0  0
 10 17  1  0  0  0  0
 11 18  2  0  0  0  0
 12 19  1  0  0  0  0
 12 20  1  0  0  0  0
 13 21  2  0  0  0  0
 14 22  2  0  0  0  0
 14 23  1  0  0  0  0
 17 24  2  0  0  0  0
 19 25  2  0  0  0  0
 22 26  1  0  0  0  0
 23 27  1  0  0  0  0
 23 28  1  0  0  0  0
 23 29  1  0  0  0  0
 24 30  1  0  0  0  0
 26 31  1  0  0  0  0
 31 32  2  0  0  0  0
 15 22  1  0  0  0  0
 16 20  1  0  0  0  0
 18 24  1  0  0  0  0
 21 25  1  0  0  0  0
 27 31  1  0  0  0  0
M  END
>  <MolRegNo>
2074435

>  <m>
=

>  <Value>
363

>  <Unit>
nM

>  <Type>
IC50

>  <pValue>
6.44

>  <Ligand Efficiency>
0

>  <Binding Efficiency>
0

>  <Surface Efficiency>
0

>  <Assay Index>
998733

>  <Assay Category>


>  <Assay Organism>
Homo sapiens

>  <Target ID>
17045

>  <Target Name>
Cytochrome P450 3A4

>  <Target Organism>
Homo sapiens

>  <Target Description>
Target is a single protein chain

>  <Sequence Accession>
P08684

>  <Reference>
Bioorg Med Chem 24 (6), 1384-1391 (2016)

>  <Pubmed ID>
26897089

>  <DOI>
10.1016/j.bmc.2016.02.014

$$$$
2074427
Actelion Java MolfileCreator 1.0

 36 42  0  0  0  0  0  0  0  0999 V2000
    0.0000   -0.0000   -0.0000 F   0  0  0  0  0  0  0  0  0  0  0  0
   -1.1722   -0.3142   -0.0000 C   0  0  0  0  0  0  0  0  0  0  0  0
   -2.2718    0.7734   -0.0000 C   0  0  0  0  0  0  0  0  0  0  0  0
   -1.5226   -1.7039   -0.0000 C   0  0  0  0  0  0  0  0  0  0  0  0
   -3.7340    0.3746   -0.0000 C   0  0  0  0  0  0  0  0  0  0  0  0
   -2.9969   -2.1631   -0.0000 C   0  0  0  0  0  0  0  0  0  0  0  0
   -4.6403    1.5830   -0.0000 O   0  0  0  0  0  0  0  0  0  0  0  0
   -4.1086   -1.0997   -0.0000 C   0  0  0  0  0  0  0  0  0  0  0  0
   -6.1871    1.6314   -0.0000 C   0  0  0  0  0  0  0  0  0  0  0  0
   -5.4862   -1.7160   -0.0000 C   0  0  0  0  0  0  0  0  0  0  0  0
   -7.1659    0.4229   -0.0000 C   0  0  0  0  0  0  0  0  0  0  0  0
   -6.8517   -1.0272   -0.0000 C   0  0  0  0  0  0  0  0  0  0  0  0
   -5.5104   -3.2144   -0.0000 C   0  0  0  0  0  0  0  0  0  0  0  0
   -8.6039    0.8942   -0.0000 C   0  0  0  0  0  0  0  0  0  0  0  0
   -8.0118   -2.0060   -0.0000 C   0  0  0  0  0  0  0  0  0  0  0  0
   -6.8396   -3.9394   -0.0000 C   0  0  0  0  0  0  0  0  0  0  0  0
   -9.7519   -0.1088   -0.0000 C   0  0  0  0  0  0  0  0  0  0  0  0
   -9.4740   -1.5226   -0.0000 C   0  0  0  0  0  0  0  0  0  0  0  0
   -6.8759   -5.4500   -0.0000 C   0  0  0  0  0  0  0  0  0  0  0  0
   -8.1447   -3.1540   -0.0000 C   0  0  0  0  0  0  0  0  0  0  0  0
   -8.2172   -6.1629   -0.0000 C   0  0  0  0  0  0  0  0  0  0  0  0
   -9.4982   -3.8790   -0.0000 C   0  0  0  0  0  0  0  0  0  0  0  0
   -8.5677   -7.6130   -0.0000 N   0  0  0  0  0  0  0  0  0  0  0  0
   -9.5223   -5.3775   -0.0000 C   0  0  0  0  0  0  0  0  0  0  0  0
  -10.0540   -7.7460   -0.0000 C   0  0  0  0  0  0  0  0  0  0  0  0
  -10.6582   -6.3563   -0.0000 N   0  0  0  0  0  0  0  0  0  0  0  0
  -10.6824   -8.7731   -0.0000 O   0  0  0  0  0  0  0  0  0  0  0  0
  -12.1446   -6.0179   -0.0000 C   0  0  0  0  0  0  0  0  0  0  0  0
  -13.3168   -6.9001   -0.0000 C   0  0  0  0  0  0  0  0  0  0  0  0
  -12.6280   -4.5799   -0.0000 C   0  0  0  0  0  0  0  0  0  0  0  0
  -14.5735   -6.0421   -0.0000 N   0  0  0  0  0  0  0  0  0  0  0  0
  -14.1385   -4.5920   -0.0000 C   0  0  0  0  0  0  0  0  0  0  0  0
  -16.0478   -6.3925   -0.0000 C   0  0  0  0  0  0  0  0  0  0  0  0
  -15.1777   -3.4682   -0.0000 C   0  0  0  0  0  0  0  0  0  0  0  0
  -17.0991   -5.2687   -0.0000 C   0  0  0  0  0  0  0  0  0  0  0  0
  -16.6762   -3.8186   -0.0000 O   0  0  0  0  0  0  0  0  0  0  0  0
  1  2  1  0  0  0  0
  2  3  2  0  0  0  0
  2  4  1  0  0  0  0
  3  5  1  0  0  0  0
  4  6  2  0  0  0  0
  5  7  1  0  0  0  0
  5  8  2  0  0  0  0
  7  9  1  0  0  0  0
  8 10  1  0  0  0  0
  9 11  1  0  0  0  0
 10 12  1  0  0  0  0
 10 13  2  0  0  0  0
 11 14  1  0  0  0  0
 12 15  1  0  0  0  0
 13 16  1  0  0  0  0
 14 17  2  0  0  0  0
 15 18  2  0  0  0  0
 16 19  2  0  0  0  0
 16 20  1  0  0  0  0
 19 21  1  0  0  0  0
 20 22  2  0  0  0  0
 21 23  1  0  0  0  0
 21 24  2  0  0  0  0
 23 25  1  0  0  0  0
 24 26  1  0  0  0  0
 25 27  2  0  0  0  0
 28 26  1  6  0  0  0
 28 29  1  0  0  0  0
 28 30  1  0  0  0  0
 29 31  1  0  0  0  0
 30 32  1  0  0  0  0
 31 33  1  0  0  0  0
 32 34  1  0  0  0  0
 33 35  1  0  0  0  0
 34 36  1  0  0  0  0
  6  8  1  0  0  0  0
 11 12  2  0  0  0  0
 17 18  1  0  0  0  0
 22 24  1  0  0  0  0
 25 26  1  0  0  0  0
 32 31  1  6  0  0  0
 35 36  1  0  0  0  0
M  END
>  <MolRegNo>
2074427

>  <m>
=

>  <Value>
5810

>  <Unit>
nM

>  <Type>
IC50

>  <pValue>
5.24

>  <Ligand Efficiency>
0

>  <Binding Efficiency>
0

>  <Surface Efficiency>
0

>  <Assay Index>
998733

>  <Assay Category>


>  <Assay Organism>
Homo sapiens

>  <Target ID>
17045

>  <Target Name>
Cytochrome P450 3A4

>  <Target Organism>
Homo sapiens

>  <Target Description>
Target is a single protein chain

>  <Sequence Accession>
P08684

>  <Reference>
Bioorg Med Chem 24 (6), 1384-1391 (2016)

>  <Pubmed ID>
26897089

>  <DOI>
10.1016/j.bmc.2016.02.014

$$$$
1341725
Actelion Java MolfileCreator 1.0

 33 37  0  0  0  0  0  0  0  0999 V2000
    0.0000   -0.0000   -0.0000 S   0  0  0  0  0  0  0  0  0  0  0  0
   -1.4451    0.4264   -0.0000 N   0  0  0  0  0  0  0  0  0  0  0  0
    0.0355   -1.4925   -0.0000 C   0  0  0  0  0  0  0  0  0  0  0  0
   -2.2979   -0.7936   -0.0000 C   0  0  0  0  0  0  0  0  0  0  0  0
    1.3266   -2.2269   -0.0000 N   0  0  0  0  0  0  0  0  0  0  0  0
   -1.3859   -1.9781   -0.0000 C   0  0  0  0  0  0  0  0  0  0  0  0
   -3.7904   -0.8292   -0.0000 C   0  0  0  0  0  0  0  0  0  0  0  0
    2.6059   -1.4569   -0.0000 C   0  0  0  0  0  0  0  0  0  0  0  0
    1.3148   -3.7075   -0.0000 C   0  0  0  0  0  0  0  0  0  0  0  0
    2.5941    0.0474   -0.0000 O   0  0  0  0  0  0  0  0  0  0  0  0
    3.8852   -2.2032   -0.0000 C   0  0  0  0  0  0  0  0  0  0  0  0
    2.5941   -4.4419   -0.0000 C   0  0  0  0  0  0  0  0  0  0  0  0
    5.2947   -1.7294   -0.0000 N   0  0  0  0  0  0  0  0  0  0  0  0
    3.8733   -3.6957   -0.0000 C   0  0  0  0  0  0  0  0  0  0  0  0
    6.1594   -2.9257   -0.0000 N   0  0  0  0  0  0  0  0  0  0  0  0
    5.2474   -0.2251   -0.0000 C   0  0  0  0  0  0  0  0  0  0  0  0
    5.2829   -4.1458   -0.0000 N   0  0  0  0  0  0  0  0  0  0  0  0
    4.4774    1.0897   -0.0000 C   0  0  0  0  0  0  0  0  0  0  0  0
    6.6806    0.1895   -0.0000 C   0  0  0  0  0  0  0  0  0  0  0  0
    2.9850    1.0897   -0.0000 C   0  0  0  0  0  0  0  0  0  0  0  0
    5.2118    2.4045   -0.0000 C   0  0  0  0  0  0  0  0  0  0  0  0
    2.2150    2.3927   -0.0000 C   0  0  0  0  0  0  0  0  0  0  0  0
    4.4419    3.7075   -0.0000 C   0  0  0  0  0  0  0  0  0  0  0  0
    2.9494    3.7193   -0.0000 C   0  0  0  0  0  0  0  0  0  0  0  0
    0.7107    2.3809   -0.0000 C   0  0  0  0  0  0  0  0  0  0  0  0
    2.1795    5.0341   -0.0000 N   0  0  0  0  0  0  0  0  0  0  0  0
   -0.0592    3.6957   -0.0000 C   0  0  0  0  0  0  0  0  0  0  0  0
    0.6633    5.0341   -0.0000 C   0  0  0  0  0  0  0  0  0  0  0  0
   -1.5635    3.6957   -0.0000 O   0  0  0  0  0  0  0  0  0  0  0  0
   -2.3335    4.9986   -0.0000 C   0  0  0  0  0  0  0  0  0  0  0  0
   -3.8378    4.9986   -0.0000 C   0  0  0  0  0  0  0  0  0  0  0  0
   -4.6077    6.3016   -0.0000 O   0  0  0  0  0  0  0  0  0  0  0  0
   -6.1120    6.3016   -0.0000 C   0  0  0  0  0  0  0  0  0  0  0  0
  1  2  1  0  0  0  0
  1  3  1  0  0  0  0
  2  4  2  0  0  0  0
  3  5  1  0  0  0  0
  3  6  2  0  0  0  0
  4  7  1  0  0  0  0
  5  8  1  0  0  0  0
  5  9  1  0  0  0  0
  8 10  2  0  0  0  0
  8 11  1  0  0  0  0
  9 12  2  0  0  0  0
 11 13  1  0  0  0  0
 11 14  2  0  0  0  0
 13 15  1  0  0  0  0
 16 13  1  6  0  0  0
 14 17  1  0  0  0  0
 16 18  1  0  0  0  0
 16 19  1  0  0  0  0
 18 20  2  0  0  0  0
 18 21  1  0  0  0  0
 20 22  1  0  0  0  0
 21 23  2  0  0  0  0
 22 24  1  0  0  0  0
 22 25  2  0  0  0  0
 24 26  2  0  0  0  0
 25 27  1  0  0  0  0
 26 28  1  0  0  0  0
 27 29  1  0  0  0  0
 29 30  1  0  0  0  0
 30 31  1  0  0  0  0
 31 32  1  0  0  0  0
 32 33  1  0  0  0  0
  4  6  1  0  0  0  0
 12 14  1  0  0  0  0
 15 17  2  0  0  0  0
 23 24  1  0  0  0  0
 27 28  2  0  0  0  0
M  END
>  <MolRegNo>
1341725

>  <m>
=

>  <Value>
21000

>  <Unit>
nM

>  <Type>
IC50

>  <pValue>
4.68

>  <Ligand Efficiency>
0

>  <Binding Efficiency>
0

>  <Surface Efficiency>
0

>  <Assay Index>
1006546

>  <Assay Category>


>  <Assay Organism>
Homo sapiens

>  <Target ID>
17045

>  <Target Name>
Cytochrome P450 3A4

>  <Target Organism>
Homo sapiens

>  <Target Description>
Target is a single protein chain

>  <Sequence Accession>
P08684

>  <Reference>
J Med Chem 59 (6), 2328-2342 (2016)

>  <Pubmed ID>
26812066

>  <DOI>
10.1021/acs.jmedchem.5b01716

$$$$
2077431
Actelion Java MolfileCreator 1.0

 31 34  0  0  0  0  0  0  0  0999 V2000
    0.0000   -0.0000   -0.0000 Cl  0  0  0  0  0  0  0  0  0  0  0  0
   -0.0121   -1.2250   -0.0000 C   0  0  0  0  0  0  0  0  0  0  0  0
    1.3100   -1.9771   -0.0000 C   0  0  0  0  0  0  0  0  0  0  0  0
   -1.3585   -1.9771   -0.0000 C   0  0  0  0  0  0  0  0  0  0  0  0
    1.2978   -3.5053   -0.0000 C   0  0  0  0  0  0  0  0  0  0  0  0
   -1.3706   -3.5053   -0.0000 C   0  0  0  0  0  0  0  0  0  0  0  0
   -0.0485   -4.2573   -0.0000 C   0  0  0  0  0  0  0  0  0  0  0  0
    2.6199   -4.2573   -0.0000 C   0  0  0  0  0  0  0  0  0  0  0  0
   -0.0606   -5.7856   -0.0000 N   0  0  0  0  0  0  0  0  0  0  0  0
    3.9420   -3.4689   -0.0000 N   0  0  0  0  0  0  0  0  0  0  0  0
    1.1765   -6.6589   -0.0000 N   0  0  0  0  0  0  0  0  0  0  0  0
   -1.3221   -6.6589   -0.0000 C   0  0  0  0  0  0  0  0  0  0  0  0
    5.2641   -4.2210   -0.0000 C   0  0  0  0  0  0  0  0  0  0  0  0
    0.6914   -8.1144   -0.0000 N   0  0  0  0  0  0  0  0  0  0  0  0
   -0.8612   -8.1144   -0.0000 N   0  0  0  0  0  0  0  0  0  0  0  0
    5.2519   -5.4460   -0.0000 O   0  0  0  0  0  0  0  0  0  0  0  0
    6.5862   -3.4326   -0.0000 C   0  0  0  0  0  0  0  0  0  0  0  0
    6.7074   -1.9043   -0.0000 N   0  0  0  0  0  0  0  0  0  0  0  0
    7.9689   -4.0512   -0.0000 C   0  0  0  0  0  0  0  0  0  0  0  0
    8.1993   -1.5647   -0.0000 N   0  0  0  0  0  0  0  0  0  0  0  0
    5.5430   -0.8733   -0.0000 C   0  0  0  0  0  0  0  0  0  0  0  0
    8.9877   -2.8867   -0.0000 C   0  0  0  0  0  0  0  0  0  0  0  0
    4.3665   -1.2493   -0.0000 O   0  0  0  0  0  0  0  0  0  0  0  0
    5.8341    0.6428   -0.0000 C   0  0  0  0  0  0  0  0  0  0  0  0
    6.9864    1.0431   -0.0000 O   0  0  0  0  0  0  0  0  0  0  0  0
    4.6697    1.6738   -0.0000 C   0  0  0  0  0  0  0  0  0  0  0  0
    3.2021    1.2008   -0.0000 C   0  0  0  0  0  0  0  0  0  0  0  0
    4.9608    3.1900   -0.0000 C   0  0  0  0  0  0  0  0  0  0  0  0
    2.0377    2.2318   -0.0000 C   0  0  0  0  0  0  0  0  0  0  0  0
    3.7964    4.2210   -0.0000 C   0  0  0  0  0  0  0  0  0  0  0  0
    2.3288    3.7479   -0.0000 C   0  0  0  0  0  0  0  0  0  0  0  0
  1  2  1  0  0  0  0
  2  3  2  0  0  0  0
  2  4  1  0  0  0  0
  3  5  1  0  0  0  0
  4  6  2  0  0  0  0
  5  7  2  0  0  0  0
  5  8  1  0  0  0  0
  7  9  1  0  0  0  0
  8 10  1  0  0  0  0
  9 11  1  0  0  0  0
  9 12  1  0  0  0  0
 10 13  1  0  0  0  0
 11 14  2  0  0  0  0
 12 15  2  0  0  0  0
 13 16  2  0  0  0  0
 17 13  1  1  0  0  0
 17 18  1  0  0  0  0
 17 19  1  0  0  0  0
 18 20  1  0  0  0  0
 18 21  1  0  0  0  0
 19 22  1  0  0  0  0
 21 23  2  0  0  0  0
 21 24  1  0  0  0  0
 24 25  1  1  0  0  0
 24 26  1  0  0  0  0
 26 27  2  0  0  0  0
 26 28  1  0  0  0  0
 27 29  1  0  0  0  0
 28 30  2  0  0  0  0
 29 31  2  0  0  0  0
  6  7  1  0  0  0  0
 14 15  1  0  0  0  0
 20 22  2  0  0  0  0
 30 31  1  0  0  0  0
M  END
>  <MolRegNo>
2077431

>  <m>
=

>  <Value>
28000

>  <Unit>
nM

>  <Type>
IC50

>  <pValue>
4.55

>  <Ligand Efficiency>
0

>  <Binding Efficiency>
0

>  <Surface Efficiency>
0

>  <Assay Index>
1005422

>  <Assay Category>


>  <Assay Organism>
Homo sapiens

>  <Target ID>
17045

>  <Target Name>
Cytochrome P450 3A4

>  <Target Organism>
Homo sapiens

>  <Target Description>
Target is a single protein chain

>  <Sequence Accession>
P08684

>  <Reference>
Medchemcomm 7 (2), 272-281 (2016)

>  <Pubmed ID>


>  <DOI>
10.1039/C5MD00479A

$$$$
2077440
Actelion Java MolfileCreator 1.0

 30 33  0  0  0  0  0  0  0  0999 V2000
    0.0000   -0.0000   -0.0000 Cl  0  0  0  0  0  0  0  0  0  0  0  0
    0.5964    1.1159   -0.0000 C   0  0  0  0  0  0  0  0  0  0  0  0
    2.1549    1.1544   -0.0000 C   0  0  0  0  0  0  0  0  0  0  0  0
   -0.2116    2.4820   -0.0000 C   0  0  0  0  0  0  0  0  0  0  0  0
    2.9053    2.5397   -0.0000 C   0  0  0  0  0  0  0  0  0  0  0  0
    0.5387    3.8673   -0.0000 C   0  0  0  0  0  0  0  0  0  0  0  0
    2.0972    3.9058   -0.0000 C   0  0  0  0  0  0  0  0  0  0  0  0
    4.4638    2.5590   -0.0000 C   0  0  0  0  0  0  0  0  0  0  0  0
    2.8476    5.2911   -0.0000 N   0  0  0  0  0  0  0  0  0  0  0  0
    5.2334    1.2314   -0.0000 N   0  0  0  0  0  0  0  0  0  0  0  0
    2.1742    6.7149   -0.0000 N   0  0  0  0  0  0  0  0  0  0  0  0
    4.3675    5.4642   -0.0000 C   0  0  0  0  0  0  0  0  0  0  0  0
    6.7918    1.2506   -0.0000 C   0  0  0  0  0  0  0  0  0  0  0  0
    3.3093    7.7923   -0.0000 N   0  0  0  0  0  0  0  0  0  0  0  0
    4.6562    7.0227   -0.0000 N   0  0  0  0  0  0  0  0  0  0  0  0
    7.3883    2.3666   -0.0000 O   0  0  0  0  0  0  0  0  0  0  0  0
    7.5614   -0.0962   -0.0000 C   0  0  0  0  0  0  0  0  0  0  0  0
    6.8303   -1.3083   -0.0000 N   0  0  0  0  0  0  0  0  0  0  0  0
    8.9852   -0.0770   -0.0000 C   0  0  0  0  0  0  0  0  0  0  0  0
    5.2334   -1.3083   -0.0000 C   0  0  0  0  0  0  0  0  0  0  0  0
    7.5230   -2.5012   -0.0000 C   0  0  0  0  0  0  0  0  0  0  0  0
    8.9660   -2.5012   -0.0000 C   0  0  0  0  0  0  0  0  0  0  0  0
    9.6779   -1.2891   -0.0000 C   0  0  0  0  0  0  0  0  0  0  0  0
    4.5792   -0.2116   -0.0000 O   0  0  0  0  0  0  0  0  0  0  0  0
    4.4445   -2.6552   -0.0000 C   0  0  0  0  0  0  0  0  0  0  0  0
    5.0602   -3.7134   -0.0000 O   0  0  0  0  0  0  0  0  0  0  0  0
    2.8476   -2.6552   -0.0000 C   0  0  0  0  0  0  0  0  0  0  0  0
    2.2126   -3.7326   -0.0000 C   0  0  0  0  0  0  0  0  0  0  0  0
    2.1934   -1.5585   -0.0000 C   0  0  0  0  0  0  0  0  0  0  0  0
    1.5777   -2.6359   -0.0000 C   0  0  0  0  0  0  0  0  0  0  0  0
  1  2  1  0  0  0  0
  2  3  2  0  0  0  0
  2  4  1  0  0  0  0
  3  5  1  0  0  0  0
  4  6  2  0  0  0  0
  5  7  2  0  0  0  0
  5  8  1  0  0  0  0
  7  9  1  0  0  0  0
  8 10  1  0  0  0  0
  9 11  1  0  0  0  0
  9 12  1  0  0  0  0
 10 13  1  0  0  0  0
 11 14  2  0  0  0  0
 12 15  2  0  0  0  0
 13 16  2  0  0  0  0
 17 13  1  6  0  0  0
 17 18  1  0  0  0  0
 17 19  1  0  0  0  0
 18 20  1  0  0  0  0
 18 21  1  0  0  0  0
 19 22  1  0  0  0  0
 19 23  1  1  0  0  0
 20 24  2  0  0  0  0
 20 25  1  0  0  0  0
 25 26  1  6  0  0  0
 25 27  1  0  0  0  0
 27 28  1  0  0  0  0
 27 29  1  0  0  0  0
 27 30  1  0  0  0  0
  6  7  1  0  0  0  0
 14 15  1  0  0  0  0
 22 21  1  1  0  0  0
 22 23  1  0  0  0  0
M  END
>  <MolRegNo>
2077440

>  <m>
=

>  <Value>
47000

>  <Unit>
nM

>  <Type>
IC50

>  <pValue>
4.33

>  <Ligand Efficiency>
0

>  <Binding Efficiency>
0

>  <Surface Efficiency>
0

>  <Assay Index>
1005422

>  <Assay Category>


>  <Assay Organism>
Homo sapiens

>  <Target ID>
17045

>  <Target Name>
Cytochrome P450 3A4

>  <Target Organism>
Homo sapiens

>  <Target Description>
Target is a single protein chain

>  <Sequence Accession>
P08684

>  <Reference>
Medchemcomm 7 (2), 272-281 (2016)

>  <Pubmed ID>


>  <DOI>
10.1039/C5MD00479A

$$$$
2078120
Actelion Java MolfileCreator 1.0

 36 39  0  0  1  0  0  0  0  0999 V2000
    0.0000   -0.0000   -0.0000 Cl  0  0  0  0  0  0  0  0  0  0  0  0
   -0.3171    1.4680   -0.0000 C   0  0  0  0  0  0  0  0  0  0  0  0
   -1.7499    1.9378   -0.0000 C   0  0  0  0  0  0  0  0  0  0  0  0
    0.7751    2.4781   -0.0000 C   0  0  0  0  0  0  0  0  0  0  0  0
   -2.0670    3.4059   -0.0000 C   0  0  0  0  0  0  0  0  0  0  0  0
    0.4580    3.9461   -0.0000 C   0  0  0  0  0  0  0  0  0  0  0  0
   -0.9748    4.4159   -0.0000 C   0  0  0  0  0  0  0  0  0  0  0  0
   -3.4998    3.8756   -0.0000 C   0  0  0  0  0  0  0  0  0  0  0  0
   -1.2919    5.8839   -0.0000 N   0  0  0  0  0  0  0  0  0  0  0  0
   -4.6155    2.8891   -0.0000 N   0  0  0  0  0  0  0  0  0  0  0  0
   -2.6660    6.5064   -0.0000 N   0  0  0  0  0  0  0  0  0  0  0  0
   -0.3054    6.9996   -0.0000 C   0  0  0  0  0  0  0  0  0  0  0  0
   -6.0483    3.3589   -0.0000 C   0  0  0  0  0  0  0  0  0  0  0  0
   -2.5250    7.9979   -0.0000 N   0  0  0  0  0  0  0  0  0  0  0  0
   -1.0687    8.3033   -0.0000 N   0  0  0  0  0  0  0  0  0  0  0  0
   -7.1641    2.3724   -0.0000 O   0  0  0  0  0  0  0  0  0  0  0  0
   -6.3654    4.8269   -0.0000 C   0  0  0  0  0  0  0  0  0  0  0  0
   -7.7395    5.4494   -0.0000 N   0  0  0  0  0  0  0  0  0  0  0  0
   -5.3789    5.9426   -0.0000 C   0  0  0  0  0  0  0  0  0  0  0  0
   -7.5986    6.9409   -0.0000 N   0  0  0  0  0  0  0  0  0  0  0  0
   -9.0432    4.7095   -0.0000 C   0  0  0  0  0  0  0  0  0  0  0  0
   -6.1423    7.2463   -0.0000 C   0  0  0  0  0  0  0  0  0  0  0  0
   -9.0549    3.2297   -0.0000 O   0  0  0  0  0  0  0  0  0  0  0  0
  -10.3468    5.4729   -0.0000 C   0  0  0  0  0  0  0  0  0  0  0  0
  -11.6504    4.7330   -0.0000 O   0  0  0  0  0  0  0  0  0  0  0  0
  -10.3585    6.9761   -0.0000 C   0  0  0  0  0  0  0  0  0  0  0  0
  -12.9540    5.4964   -0.0000 C   0  0  0  0  0  0  0  0  0  0  0  0
   -9.0784    7.7278   -0.0000 C   0  0  0  0  0  0  0  0  0  0  0  0
  -11.6621    7.7278   -0.0000 C   0  0  0  0  0  0  0  0  0  0  0  0
  -12.9658    6.9996   -0.0000 O   0  0  0  0  0  0  0  0  0  0  0  0
  -14.2577    4.7565   -0.0000 C   0  0  0  0  0  0  0  0  0  0  0  0
   -9.0901    9.2311   -0.0000 C   0  0  0  0  0  0  0  0  0  0  0  0
  -11.6739    9.2311   -0.0000 C   0  0  0  0  0  0  0  0  0  0  0  0
  -15.5613    5.5198   -0.0000 C   0  0  0  0  0  0  0  0  0  0  0  0
  -10.3938    9.9944   -0.0000 C   0  0  0  0  0  0  0  0  0  0  0  0
  -10.4055   11.4977   -0.0000 F   0  0  0  0  0  0  0  0  0  0  0  0
  1  2  1  0  0  0  0
  2  3  2  0  0  0  0
  2  4  1  0  0  0  0
  3  5  1  0  0  0  0
  4  6  2  0  0  0  0
  5  7  2  0  0  0  0
  5  8  1  0  0  0  0
  7  9  1  0  0  0  0
  8 10  1  0  0  0  0
  9 11  1  0  0  0  0
  9 12  1  0  0  0  0
 10 13  1  0  0  0  0
 11 14  2  0  0  0  0
 12 15  2  0  0  0  0
 13 16  2  0  0  0  0
 17 13  1  1  0  0  0
 17 18  1  0  0  0  0
 17 19  1  0  0  0  0
 18 20  1  0  0  0  0
 18 21  1  0  0  0  0
 19 22  1  0  0  0  0
 21 23  2  0  0  0  0
 21 24  1  0  0  0  0
 24 25  1  6  0  0  0
 24 26  1  0  0  0  0
 25 27  1  0  0  0  0
 26 28  2  0  0  0  0
 26 29  1  0  0  0  0
 27 30  2  0  0  0  0
 27 31  1  0  0  0  0
 28 32  1  0  0  0  0
 29 33  2  0  0  0  0
 31 34  1  0  0  0  0
 32 35  2  0  0  0  0
 35 36  1  0  0  0  0
  6  7  1  0  0  0  0
 14 15  1  0  0  0  0
 20 22  2  0  0  0  0
 33 35  1  0  0  0  0
M  END
>  <MolRegNo>
2078120

>  <m>
=

>  <Value>
8000

>  <Unit>
nM

>  <Type>
IC50

>  <pValue>
5.1

>  <Ligand Efficiency>
0

>  <Binding Efficiency>
0

>  <Surface Efficiency>
0

>  <Assay Index>
1005422

>  <Assay Category>


>  <Assay Organism>
Homo sapiens

>  <Target ID>
17045

>  <Target Name>
Cytochrome P450 3A4

>  <Target Organism>
Homo sapiens

>  <Target Description>
Target is a single protein chain

>  <Sequence Accession>
P08684

>  <Reference>
Medchemcomm 7 (2), 272-281 (2016)

>  <Pubmed ID>


>  <DOI>
10.1039/C5MD00479A

$$$$
2078122
Actelion Java MolfileCreator 1.0

 37 40  0  0  0  0  0  0  0  0999 V2000
    0.0000   -0.0000   -0.0000 Cl  0  0  0  0  0  0  0  0  0  0  0  0
   -0.0123   -1.2406   -0.0000 C   0  0  0  0  0  0  0  0  0  0  0  0
    1.3266   -2.0022   -0.0000 C   0  0  0  0  0  0  0  0  0  0  0  0
   -1.3757   -2.0022   -0.0000 C   0  0  0  0  0  0  0  0  0  0  0  0
    1.3143   -3.5499   -0.0000 C   0  0  0  0  0  0  0  0  0  0  0  0
   -1.3880   -3.5499   -0.0000 C   0  0  0  0  0  0  0  0  0  0  0  0
   -0.0491   -4.3114   -0.0000 C   0  0  0  0  0  0  0  0  0  0  0  0
    2.6532   -4.3114   -0.0000 C   0  0  0  0  0  0  0  0  0  0  0  0
   -0.0614   -5.8591   -0.0000 N   0  0  0  0  0  0  0  0  0  0  0  0
    3.9921   -3.5130   -0.0000 N   0  0  0  0  0  0  0  0  0  0  0  0
    1.1915   -6.7435   -0.0000 N   0  0  0  0  0  0  0  0  0  0  0  0
   -1.3389   -6.7435   -0.0000 C   0  0  0  0  0  0  0  0  0  0  0  0
    5.3309   -4.2746   -0.0000 C   0  0  0  0  0  0  0  0  0  0  0  0
    0.7001   -8.2175   -0.0000 N   0  0  0  0  0  0  0  0  0  0  0  0
   -0.8721   -8.2175   -0.0000 N   0  0  0  0  0  0  0  0  0  0  0  0
    5.3187   -5.5152   -0.0000 O   0  0  0  0  0  0  0  0  0  0  0  0
    6.6698   -3.4762   -0.0000 C   0  0  0  0  0  0  0  0  0  0  0  0
    8.0701   -4.1026   -0.0000 N   0  0  0  0  0  0  0  0  0  0  0  0
    6.7927   -1.9285   -0.0000 C   0  0  0  0  0  0  0  0  0  0  0  0
    9.1019   -2.9234   -0.0000 N   0  0  0  0  0  0  0  0  0  0  0  0
    8.3772   -5.6135   -0.0000 C   0  0  0  0  0  0  0  0  0  0  0  0
    8.3035   -1.5845   -0.0000 C   0  0  0  0  0  0  0  0  0  0  0  0
    7.4314   -6.4364   -0.0000 O   0  0  0  0  0  0  0  0  0  0  0  0
    9.8512   -6.0925   -0.0000 C   0  0  0  0  0  0  0  0  0  0  0  0
   10.9935   -5.0361   -0.0000 O   0  0  0  0  0  0  0  0  0  0  0  0
   10.1583   -7.6034   -0.0000 C   0  0  0  0  0  0  0  0  0  0  0  0
   10.6619   -3.5007   -0.0000 C   0  0  0  0  0  0  0  0  0  0  0  0
    8.9914   -8.6351   -0.0000 C   0  0  0  0  0  0  0  0  0  0  0  0
   11.6323   -8.0701   -0.0000 C   0  0  0  0  0  0  0  0  0  0  0  0
    9.6669   -3.1691   -0.0000 O   0  0  0  0  0  0  0  0  0  0  0  0
   11.8042   -2.4444   -0.0000 C   0  0  0  0  0  0  0  0  0  0  0  0
    9.2984  -10.1460   -0.0000 C   0  0  0  0  0  0  0  0  0  0  0  0
   11.9394   -9.5810   -0.0000 C   0  0  0  0  0  0  0  0  0  0  0  0
   11.4726   -0.9090   -0.0000 C   0  0  0  0  0  0  0  0  0  0  0  0
   10.7724  -10.6128   -0.0000 C   0  0  0  0  0  0  0  0  0  0  0  0
   12.3815   -0.0614   -0.0000 C   0  0  0  0  0  0  0  0  0  0  0  0
   11.0181  -11.8165   -0.0000 F   0  0  0  0  0  0  0  0  0  0  0  0
  1  2  1  0  0  0  0
  2  3  2  0  0  0  0
  2  4  1  0  0  0  0
  3  5  1  0  0  0  0
  4  6  2  0  0  0  0
  5  7  2  0  0  0  0
  5  8  1  0  0  0  0
  7  9  1  0  0  0  0
  8 10  1  0  0  0  0
  9 11  1  0  0  0  0
  9 12  1  0  0  0  0
 10 13  1  0  0  0  0
 11 14  2  0  0  0  0
 12 15  2  0  0  0  0
 13 16  2  0  0  0  0
 17 13  1  6  0  0  0
 17 18  1  0  0  0  0
 17 19  1  0  0  0  0
 18 20  1  0  0  0  0
 18 21  1  0  0  0  0
 19 22  1  0  0  0  0
 21 23  2  0  0  0  0
 21 24  1  0  0  0  0
 24 25  1  6  0  0  0
 24 26  1  0  0  0  0
 25 27  1  0  0  0  0
 26 28  2  0  0  0  0
 26 29  1  0  0  0  0
 27 30  2  0  0  0  0
 27 31  1  0  0  0  0
 28 32  1  0  0  0  0
 29 33  2  0  0  0  0
 31 34  1  0  0  0  0
 32 35  2  0  0  0  0
 34 36  1  0  0  0  0
 35 37  1  0  0  0  0
  6  7  1  0  0  0  0
 14 15  1  0  0  0  0
 20 22  2  0  0  0  0
 33 35  1  0  0  0  0
M  END
>  <MolRegNo>
2078122

>  <m>
=

>  <Value>
1800

>  <Unit>
nM

>  <Type>
IC50

>  <pValue>
5.75

>  <Ligand Efficiency>
0

>  <Binding Efficiency>
0

>  <Surface Efficiency>
0

>  <Assay Index>
1005422

>  <Assay Category>


>  <Assay Organism>
Homo sapiens

>  <Target ID>
17045

>  <Target Name>
Cytochrome P450 3A4

>  <Target Organism>
Homo sapiens

>  <Target Description>
Target is a single protein chain

>  <Sequence Accession>
P08684

>  <Reference>
Medchemcomm 7 (2), 272-281 (2016)

>  <Pubmed ID>


>  <DOI>
10.1039/C5MD00479A

$$$$
2078123
Actelion Java MolfileCreator 1.0

 38 41  0  0  0  0  0  0  0  0999 V2000
    0.0000   -0.0000   -0.0000 Cl  0  0  0  0  0  0  0  0  0  0  0  0
   -0.0123   -1.2392   -0.0000 C   0  0  0  0  0  0  0  0  0  0  0  0
    1.3251   -1.9999   -0.0000 C   0  0  0  0  0  0  0  0  0  0  0  0
   -1.3741   -1.9999   -0.0000 C   0  0  0  0  0  0  0  0  0  0  0  0
    1.3128   -3.5458   -0.0000 C   0  0  0  0  0  0  0  0  0  0  0  0
   -1.3864   -3.5458   -0.0000 C   0  0  0  0  0  0  0  0  0  0  0  0
   -0.0491   -4.3065   -0.0000 C   0  0  0  0  0  0  0  0  0  0  0  0
    2.6501   -4.3065   -0.0000 C   0  0  0  0  0  0  0  0  0  0  0  0
   -0.0613   -5.8524   -0.0000 N   0  0  0  0  0  0  0  0  0  0  0  0
    3.9875   -3.5090   -0.0000 N   0  0  0  0  0  0  0  0  0  0  0  0
    1.1901   -6.7358   -0.0000 N   0  0  0  0  0  0  0  0  0  0  0  0
   -1.3373   -6.7358   -0.0000 C   0  0  0  0  0  0  0  0  0  0  0  0
    5.3248   -4.2697   -0.0000 C   0  0  0  0  0  0  0  0  0  0  0  0
    0.6993   -8.2081   -0.0000 N   0  0  0  0  0  0  0  0  0  0  0  0
   -0.8711   -8.2081   -0.0000 N   0  0  0  0  0  0  0  0  0  0  0  0
    5.3125   -5.5089   -0.0000 O   0  0  0  0  0  0  0  0  0  0  0  0
    6.6622   -3.4722   -0.0000 C   0  0  0  0  0  0  0  0  0  0  0  0
    8.0608   -4.0979   -0.0000 N   0  0  0  0  0  0  0  0  0  0  0  0
    6.7848   -1.9263   -0.0000 C   0  0  0  0  0  0  0  0  0  0  0  0
    9.0914   -2.9201   -0.0000 N   0  0  0  0  0  0  0  0  0  0  0  0
    8.3676   -5.6070   -0.0000 C   0  0  0  0  0  0  0  0  0  0  0  0
    8.2939   -1.5827   -0.0000 C   0  0  0  0  0  0  0  0  0  0  0  0
    7.4228   -6.4290   -0.0000 O   0  0  0  0  0  0  0  0  0  0  0  0
    9.8399   -6.0855   -0.0000 C   0  0  0  0  0  0  0  0  0  0  0  0
   10.9809   -5.0304   -0.0000 O   0  0  0  0  0  0  0  0  0  0  0  0
   10.1466   -7.5946   -0.0000 C   0  0  0  0  0  0  0  0  0  0  0  0
   10.6496   -3.4967   -0.0000 C   0  0  0  0  0  0  0  0  0  0  0  0
    8.9810   -8.6252   -0.0000 C   0  0  0  0  0  0  0  0  0  0  0  0
   11.6189   -8.0608   -0.0000 C   0  0  0  0  0  0  0  0  0  0  0  0
    9.6558   -3.1654   -0.0000 O   0  0  0  0  0  0  0  0  0  0  0  0
   11.7907   -2.4416   -0.0000 C   0  0  0  0  0  0  0  0  0  0  0  0
    9.2878  -10.1343   -0.0000 C   0  0  0  0  0  0  0  0  0  0  0  0
   11.9256   -9.5699   -0.0000 C   0  0  0  0  0  0  0  0  0  0  0  0
   11.4594   -0.9079   -0.0000 C   0  0  0  0  0  0  0  0  0  0  0  0
   10.7600  -10.6006   -0.0000 C   0  0  0  0  0  0  0  0  0  0  0  0
   12.6004    0.1472   -0.0000 C   0  0  0  0  0  0  0  0  0  0  0  0
   11.0054  -11.8029   -0.0000 F   0  0  0  0  0  0  0  0  0  0  0  0
   12.3305    1.3741   -0.0000 C   0  0  0  0  0  0  0  0  0  0  0  0
  1  2  1  0  0  0  0
  2  3  2  0  0  0  0
  2  4  1  0  0  0  0
  3  5  1  0  0  0  0
  4  6  2  0  0  0  0
  5  7  2  0  0  0  0
  5  8  1  0  0  0  0
  7  9  1  0  0  0  0
  8 10  1  0  0  0  0
  9 11  1  0  0  0  0
  9 12  1  0  0  0  0
 10 13  1  0  0  0  0
 11 14  2  0  0  0  0
 12 15  2  0  0  0  0
 13 16  2  0  0  0  0
 17 13  1  6  0  0  0
 17 18  1  0  0  0  0
 17 19  1  0  0  0  0
 18 20  1  0  0  0  0
 18 21  1  0  0  0  0
 19 22  1  0  0  0  0
 21 23  2  0  0  0  0
 21 24  1  0  0  0  0
 24 25  1  6  0  0  0
 24 26  1  0  0  0  0
 25 27  1  0  0  0  0
 26 28  2  0  0  0  0
 26 29  1  0  0  0  0
 27 30  2  0  0  0  0
 27 31  1  0  0  0  0
 28 32  1  0  0  0  0
 29 33  2  0  0  0  0
 31 34  1  0  0  0  0
 32 35  2  0  0  0  0
 34 36  1  0  0  0  0
 35 37  1  0  0  0  0
 36 38  1  0  0  0  0
  6  7  1  0  0  0  0
 14 15  1  0  0  0  0
 20 22  2  0  0  0  0
 33 35  1  0  0  0  0
M  END
>  <MolRegNo>
2078123

>  <m>
=

>  <Value>
1200

>  <Unit>
nM

>  <Type>
IC50

>  <pValue>
5.92

>  <Ligand Efficiency>
0

>  <Binding Efficiency>
0

>  <Surface Efficiency>
0

>  <Assay Index>
1005422

>  <Assay Category>


>  <Assay Organism>
Homo sapiens

>  <Target ID>
17045

>  <Target Name>
Cytochrome P450 3A4

>  <Target Organism>
Homo sapiens

>  <Target Description>
Target is a single protein chain

>  <Sequence Accession>
P08684

>  <Reference>
Medchemcomm 7 (2), 272-281 (2016)

>  <Pubmed ID>


>  <DOI>
10.1039/C5MD00479A

$$$$
2077730
Actelion Java MolfileCreator 1.0

 30 33  0  0  0  0  0  0  0  0999 V2000
    0.0000   -0.0000   -0.0000 O   0  0  0  0  0  0  0  0  0  0  0  0
    1.0647    0.6241   -0.0000 C   0  0  0  0  0  0  0  0  0  0  0  0
    2.1293    0.0122   -0.0000 O   0  0  0  0  0  0  0  0  0  0  0  0
    1.0647    2.1905   -0.0000 C   0  0  0  0  0  0  0  0  0  0  0  0
    2.3986    2.9737   -0.0000 C   0  0  0  0  0  0  0  0  0  0  0  0
    2.3986    4.5401   -0.0000 C   0  0  0  0  0  0  0  0  0  0  0  0
    3.7324    5.3233   -0.0000 C   0  0  0  0  0  0  0  0  0  0  0  0
    1.0402    5.3356   -0.0000 C   0  0  0  0  0  0  0  0  0  0  0  0
    3.7202    6.8897   -0.0000 C   0  0  0  0  0  0  0  0  0  0  0  0
    1.0280    6.9020   -0.0000 C   0  0  0  0  0  0  0  0  0  0  0  0
    2.3618    7.6852   -0.0000 C   0  0  0  0  0  0  0  0  0  0  0  0
    2.3496    9.2516   -0.0000 C   0  0  0  0  0  0  0  0  0  0  0  0
    3.6957    8.6030   -0.0000 O   0  0  0  0  0  0  0  0  0  0  0  0
    2.4475   10.7813   -0.0000 O   0  0  0  0  0  0  0  0  0  0  0  0
    0.9912   10.0348   -0.0000 C   0  0  0  0  0  0  0  0  0  0  0  0
    4.7237    9.7655   -0.0000 C   0  0  0  0  0  0  0  0  0  0  0  0
    3.9527   11.1117   -0.0000 C   0  0  0  0  0  0  0  0  0  0  0  0
   -0.3671    9.2760   -0.0000 C   0  0  0  0  0  0  0  0  0  0  0  0
    0.9790   11.6012   -0.0000 C   0  0  0  0  0  0  0  0  0  0  0  0
   -1.7255   10.0592   -0.0000 C   0  0  0  0  0  0  0  0  0  0  0  0
   -0.3794   12.3844   -0.0000 C   0  0  0  0  0  0  0  0  0  0  0  0
   -1.7377   11.6257   -0.0000 C   0  0  0  0  0  0  0  0  0  0  0  0
   -3.0839    9.3005   -0.0000 C   0  0  0  0  0  0  0  0  0  0  0  0
   -3.0961   12.4089   -0.0000 C   0  0  0  0  0  0  0  0  0  0  0  0
   -4.4545   10.0837   -0.0000 C   0  0  0  0  0  0  0  0  0  0  0  0
   -2.0070    8.7254   -0.0000 C   0  0  0  0  0  0  0  0  0  0  0  0
   -4.1852    8.7131   -0.0000 C   0  0  0  0  0  0  0  0  0  0  0  0
   -4.4667   11.6501   -0.0000 C   0  0  0  0  0  0  0  0  0  0  0  0
   -2.0192   13.0085   -0.0000 C   0  0  0  0  0  0  0  0  0  0  0  0
   -4.1975   13.0207   -0.0000 C   0  0  0  0  0  0  0  0  0  0  0  0
  1  2  2  0  0  0  0
  2  3  1  0  0  0  0
  2  4  1  0  0  0  0
  4  5  2  0  0  0  0
  5  6  1  0  0  0  0
  6  7  2  0  0  0  0
  6  8  1  0  0  0  0
  7  9  1  0  0  0  0
  8 10  2  0  0  0  0
  9 11  2  0  0  0  0
 11 12  1  0  0  0  0
 12 13  1  0  0  0  0
 12 14  1  0  0  0  0
 12 15  1  0  0  0  0
 13 16  1  0  0  0  0
 14 17  1  0  0  0  0
 15 18  2  0  0  0  0
 15 19  1  0  0  0  0
 18 20  1  0  0  0  0
 19 21  2  0  0  0  0
 20 22  2  0  0  0  0
 20 23  1  0  0  0  0
 22 24  1  0  0  0  0
 23 25  1  0  0  0  0
 23 26  1  0  0  0  0
 23 27  1  0  0  0  0
 24 28  1  0  0  0  0
 24 29  1  0  0  0  0
 24 30  1  0  0  0  0
 10 11  1  0  0  0  0
 16 17  1  0  0  0  0
 21 22  1  0  0  0  0
 25 28  1  0  0  0  0
M  END
>  <MolRegNo>
2077730

>  <m>
=

>  <Value>
30000

>  <Unit>
nM

>  <Type>
IC50

>  <pValue>
4.52

>  <Ligand Efficiency>
0

>  <Binding Efficiency>
0

>  <Surface Efficiency>
0

>  <Assay Index>
1006094

>  <Assay Category>


>  <Assay Organism>
Homo sapiens

>  <Target ID>
17045

>  <Target Name>
Cytochrome P450 3A4

>  <Target Organism>
Homo sapiens

>  <Target Description>
Target is a single protein chain

>  <Sequence Accession>
P08684

>  <Reference>
J Med Chem 59 (6), 2579-2595 (2016)

>  <Pubmed ID>
26918322

>  <DOI>
10.1021/acs.jmedchem.5b01780

$$$$
1972971
Actelion Java MolfileCreator 1.0

 32 35  0  0  1  0  0  0  0  0999 V2000
    0.0000   -0.0000   -0.0000 F   0  0  0  0  0  0  0  0  0  0  0  0
    1.1443   -0.5156   -0.0000 C   0  0  0  0  0  0  0  0  0  0  0  0
    2.4270    0.4275   -0.0000 C   0  0  0  0  0  0  0  0  0  0  0  0
    1.2826   -2.0874   -0.0000 C   0  0  0  0  0  0  0  0  0  0  0  0
    2.2886    1.7102   -0.0000 F   0  0  0  0  0  0  0  0  0  0  0  0
    3.8731   -0.2263   -0.0000 C   0  0  0  0  0  0  0  0  0  0  0  0
    0.2263   -2.8168   -0.0000 F   0  0  0  0  0  0  0  0  0  0  0  0
    2.7288   -2.7413   -0.0000 C   0  0  0  0  0  0  0  0  0  0  0  0
    4.0114   -1.7982   -0.0000 C   0  0  0  0  0  0  0  0  0  0  0  0
    5.1557    0.7168   -0.0000 C   0  0  0  0  0  0  0  0  0  0  0  0
    5.1557   -2.3138   -0.0000 F   0  0  0  0  0  0  0  0  0  0  0  0
    3.7599    1.5216   -0.0000 N   0  0  0  0  0  0  0  0  0  0  0  0
    6.5264    1.5216   -0.0000 C   0  0  0  0  0  0  0  0  0  0  0  0
    5.4450   -0.8299   -0.0000 C   0  0  0  0  0  0  0  0  0  0  0  0
    3.7473    3.1312   -0.0000 C   0  0  0  0  0  0  0  0  0  0  0  0
    6.5138    3.1312   -0.0000 C   0  0  0  0  0  0  0  0  0  0  0  0
    7.6833    0.4527   -0.0000 C   0  0  0  0  0  0  0  0  0  0  0  0
    7.0168   -0.9934   -0.0000 N   0  0  0  0  0  0  0  0  0  0  0  0
    5.1180    3.9360   -0.0000 N   0  0  0  0  0  0  0  0  0  0  0  0
    2.6282    3.7851   -0.0000 N   0  0  0  0  0  0  0  0  0  0  0  0
    7.6079    3.7851   -0.0000 O   0  0  0  0  0  0  0  0  0  0  0  0
    7.7965   -2.3641   -0.0000 C   0  0  0  0  0  0  0  0  0  0  0  0
    5.1054    5.2312   -0.0000 C   0  0  0  0  0  0  0  0  0  0  0  0
    9.3684   -2.4773   -0.0000 N   0  0  0  0  0  0  0  0  0  0  0  0
    6.8659   -3.6593   -0.0000 N   0  0  0  0  0  0  0  0  0  0  0  0
   10.0348   -3.9108   -0.0000 C   0  0  0  0  0  0  0  0  0  0  0  0
    7.5324   -5.0929   -0.0000 C   0  0  0  0  0  0  0  0  0  0  0  0
   11.6193   -4.0240   -0.0000 O   0  0  0  0  0  0  0  0  0  0  0  0
    9.1169   -5.2060   -0.0000 C   0  0  0  0  0  0  0  0  0  0  0  0
    6.7905   -6.1366   -0.0000 C   0  0  0  0  0  0  0  0  0  0  0  0
   12.3361   -2.9551   -0.0000 C   0  0  0  0  0  0  0  0  0  0  0  0
    9.6450   -6.3504   -0.0000 F   0  0  0  0  0  0  0  0  0  0  0  0
  1  2  1  0  0  0  0
  2  3  2  0  0  0  0
  2  4  1  0  0  0  0
  3  5  1  0  0  0  0
  3  6  1  0  0  0  0
  4  7  1  0  0  0  0
  4  8  2  0  0  0  0
  6  9  2  0  0  0  0
 10  6  1  1  0  0  0
  9 11  1  0  0  0  0
 10 12  1  0  0  0  0
 10 13  1  0  0  0  0
 10 14  1  0  0  0  0
 12 15  2  0  0  0  0
 13 16  1  0  0  0  0
 13 17  1  6  0  0  0
 14 18  1  0  0  0  0
 15 19  1  0  0  0  0
 15 20  1  0  0  0  0
 16 21  2  0  0  0  0
 18 22  1  0  0  0  0
 19 23  1  0  0  0  0
 22 24  2  0  0  0  0
 22 25  1  0  0  0  0
 24 26  1  0  0  0  0
 25 27  2  0  0  0  0
 26 28  1  0  0  0  0
 26 29  2  0  0  0  0
 27 30  1  0  0  0  0
 28 31  1  0  0  0  0
 29 32  1  0  0  0  0
  8  9  1  0  0  0  0
 16 19  1  0  0  0  0
 17 18  1  0  0  0  0
 27 29  1  0  0  0  0
M  END
>  <MolRegNo>
1972971

>  <m>
=

>  <Value>
30000

>  <Unit>
nM

>  <Type>
IC50

>  <pValue>
4.52

>  <Ligand Efficiency>
0

>  <Binding Efficiency>
0

>  <Surface Efficiency>
0

>  <Assay Index>
1012900

>  <Assay Category>


>  <Assay Organism>
Homo sapiens

>  <Target ID>
17045

>  <Target Name>
Cytochrome P450 3A4

>  <Target Organism>
Homo sapiens

>  <Target Description>
Target is a single protein chain

>  <Sequence Accession>
P08684

>  <Reference>
J Med Chem 59 (7), 3231-3248 (2016)

>  <Pubmed ID>
26937601

>  <DOI>
10.1021/acs.jmedchem.5b01995

$$$$
1972959
Actelion Java MolfileCreator 1.0

 29 32  0  0  1  0  0  0  0  0999 V2000
    0.0000   -0.0000   -0.0000 F   0  0  0  0  0  0  0  0  0  0  0  0
   -0.5410    1.1435   -0.0000 C   0  0  0  0  0  0  0  0  0  0  0  0
    0.3320    2.4345   -0.0000 C   0  0  0  0  0  0  0  0  0  0  0  0
   -2.1149    1.2788   -0.0000 C   0  0  0  0  0  0  0  0  0  0  0  0
    1.8812    2.3239   -0.0000 O   0  0  0  0  0  0  0  0  0  0  0  0
   -0.3443    3.8608   -0.0000 N   0  0  0  0  0  0  0  0  0  0  0  0
   -2.7911    2.7050   -0.0000 N   0  0  0  0  0  0  0  0  0  0  0  0
   -2.8403    0.2582   -0.0000 C   0  0  0  0  0  0  0  0  0  0  0  0
    2.5821    3.3690   -0.0000 C   0  0  0  0  0  0  0  0  0  0  0  0
   -1.9058    3.9961   -0.0000 C   0  0  0  0  0  0  0  0  0  0  0  0
   -2.6928    5.3609   -0.0000 N   0  0  0  0  0  0  0  0  0  0  0  0
   -4.2543    5.5454   -0.0000 C   0  0  0  0  0  0  0  0  0  0  0  0
   -2.0657    6.7995   -0.0000 C   0  0  0  0  0  0  0  0  0  0  0  0
   -4.5617    7.0823   -0.0000 C   0  0  0  0  0  0  0  0  0  0  0  0
   -3.2215    7.8692   -0.0000 C   0  0  0  0  0  0  0  0  0  0  0  0
   -5.9265    7.8692   -0.0000 N   0  0  0  0  0  0  0  0  0  0  0  0
   -5.8404    6.1847   -0.0000 C   0  0  0  0  0  0  0  0  0  0  0  0
   -3.2338    9.4431   -0.0000 C   0  0  0  0  0  0  0  0  0  0  0  0
   -5.9388    9.4431   -0.0000 C   0  0  0  0  0  0  0  0  0  0  0  0
   -5.7052    4.6478   -0.0000 C   0  0  0  0  0  0  0  0  0  0  0  0
   -7.2790    6.8487   -0.0000 C   0  0  0  0  0  0  0  0  0  0  0  0
   -2.1640   10.0825   -0.0000 O   0  0  0  0  0  0  0  0  0  0  0  0
   -4.5986   10.2300   -0.0000 N   0  0  0  0  0  0  0  0  0  0  0  0
   -7.0331   10.0825   -0.0000 N   0  0  0  0  0  0  0  0  0  0  0  0
   -6.9839    3.7502   -0.0000 C   0  0  0  0  0  0  0  0  0  0  0  0
   -8.5578    5.9511   -0.0000 C   0  0  0  0  0  0  0  0  0  0  0  0
   -4.6109   11.4965   -0.0000 C   0  0  0  0  0  0  0  0  0  0  0  0
   -8.4225    4.4141   -0.0000 C   0  0  0  0  0  0  0  0  0  0  0  0
   -9.4554    3.7010   -0.0000 F   0  0  0  0  0  0  0  0  0  0  0  0
  1  2  1  0  0  0  0
  2  3  2  0  0  0  0
  2  4  1  0  0  0  0
  3  5  1  0  0  0  0
  3  6  1  0  0  0  0
  4  7  2  0  0  0  0
  4  8  1  0  0  0  0
  5  9  1  0  0  0  0
  6 10  2  0  0  0  0
 10 11  1  0  0  0  0
 11 12  1  0  0  0  0
 11 13  1  0  0  0  0
 12 14  1  0  0  0  0
 15 13  1  6  0  0  0
 14 16  1  0  0  0  0
 14 17  1  1  0  0  0
 15 18  1  0  0  0  0
 16 19  2  0  0  0  0
 17 20  2  0  0  0  0
 17 21  1  0  0  0  0
 18 22  2  0  0  0  0
 18 23  1  0  0  0  0
 19 24  1  0  0  0  0
 20 25  1  0  0  0  0
 21 26  2  0  0  0  0
 23 27  1  0  0  0  0
 25 28  2  0  0  0  0
 28 29  1  0  0  0  0
  7 10  1  0  0  0  0
 14 15  1  0  0  0  0
 19 23  1  0  0  0  0
 26 28  1  0  0  0  0
M  END
>  <MolRegNo>
1972959

>  <m>
=

>  <Value>
34100

>  <Unit>
nM

>  <Type>
IC50

>  <pValue>
4.47

>  <Ligand Efficiency>
0

>  <Binding Efficiency>
0

>  <Surface Efficiency>
0

>  <Assay Index>
1012900

>  <Assay Category>


>  <Assay Organism>
Homo sapiens

>  <Target ID>
17045

>  <Target Name>
Cytochrome P450 3A4

>  <Target Organism>
Homo sapiens

>  <Target Description>
Target is a single protein chain

>  <Sequence Accession>
P08684

>  <Reference>
J Med Chem 59 (7), 3231-3248 (2016)

>  <Pubmed ID>
26937601

>  <DOI>
10.1021/acs.jmedchem.5b01995

$$$$
2083801
Actelion Java MolfileCreator 1.0

 28 31  0  0  0  0  0  0  0  0999 V2000
    0.0000   -0.0000   -0.0000 Cl  0  0  0  0  0  0  0  0  0  0  0  0
    0.6086   -1.0806   -0.0000 C   0  0  0  0  0  0  0  0  0  0  0  0
   -0.0497   -2.5089   -0.0000 S   0  0  0  0  0  0  0  0  0  0  0  0
    2.1611   -1.2420   -0.0000 C   0  0  0  0  0  0  0  0  0  0  0  0
    1.1054   -3.5397   -0.0000 C   0  0  0  0  0  0  0  0  0  0  0  0
    2.4592   -2.7697   -0.0000 C   0  0  0  0  0  0  0  0  0  0  0  0
    0.9191   -5.0923   -0.0000 C   0  0  0  0  0  0  0  0  0  0  0  0
   -0.4595   -4.2725   -0.0000 N   0  0  0  0  0  0  0  0  0  0  0  0
    0.9067   -6.6572   -0.0000 C   0  0  0  0  0  0  0  0  0  0  0  0
    2.3971   -4.5955   -0.0000 C   0  0  0  0  0  0  0  0  0  0  0  0
   -1.8506   -5.0674   -0.0000 C   0  0  0  0  0  0  0  0  0  0  0  0
   -0.4720   -7.4521   -0.0000 C   0  0  0  0  0  0  0  0  0  0  0  0
    2.3847   -7.1292   -0.0000 C   0  0  0  0  0  0  0  0  0  0  0  0
    3.3038   -5.8251   -0.0000 N   0  0  0  0  0  0  0  0  0  0  0  0
   -2.9560   -4.4216   -0.0000 N   0  0  0  0  0  0  0  0  0  0  0  0
   -1.8630   -6.6324   -0.0000 N   0  0  0  0  0  0  0  0  0  0  0  0
   -0.4844   -8.7065   -0.0000 O   0  0  0  0  0  0  0  0  0  0  0  0
    4.8687   -5.8002   -0.0000 C   0  0  0  0  0  0  0  0  0  0  0  0
   -2.9684   -7.2534   -0.0000 C   0  0  0  0  0  0  0  0  0  0  0  0
    5.7505   -7.0795   -0.0000 N   0  0  0  0  0  0  0  0  0  0  0  0
    5.5270   -4.3595   -0.0000 N   0  0  0  0  0  0  0  0  0  0  0  0
    7.3155   -6.9429   -0.0000 C   0  0  0  0  0  0  0  0  0  0  0  0
    7.0919   -4.2229   -0.0000 C   0  0  0  0  0  0  0  0  0  0  0  0
    8.1973   -8.2346   -0.0000 O   0  0  0  0  0  0  0  0  0  0  0  0
    7.9737   -5.5021   -0.0000 C   0  0  0  0  0  0  0  0  0  0  0  0
    7.6136   -3.0678   -0.0000 C   0  0  0  0  0  0  0  0  0  0  0  0
    7.6384   -9.3648   -0.0000 C   0  0  0  0  0  0  0  0  0  0  0  0
    9.2158   -5.3904   -0.0000 F   0  0  0  0  0  0  0  0  0  0  0  0
  1  2  1  0  0  0  0
  2  3  1  0  0  0  0
  2  4  2  0  0  0  0
  3  5  1  0  0  0  0
  4  6  1  0  0  0  0
  7  5  1  6  0  0  0
  7  8  1  0  0  0  0
  7  9  1  0  0  0  0
  7 10  1  0  0  0  0
  8 11  1  0  0  0  0
  9 12  1  0  0  0  0
  9 13  1  1  0  0  0
 10 14  1  0  0  0  0
 11 15  2  0  0  0  0
 11 16  1  0  0  0  0
 12 17  2  0  0  0  0
 14 18  1  0  0  0  0
 16 19  1  0  0  0  0
 18 20  2  0  0  0  0
 18 21  1  0  0  0  0
 20 22  1  0  0  0  0
 21 23  2  0  0  0  0
 22 24  1  0  0  0  0
 22 25  2  0  0  0  0
 23 26  1  0  0  0  0
 24 27  1  0  0  0  0
 25 28  1  0  0  0  0
  5  6  2  0  0  0  0
 12 16  1  0  0  0  0
 13 14  1  0  0  0  0
 23 25  1  0  0  0  0
M  END
>  <MolRegNo>
2083801

>  <m>
=

>  <Value>
18000

>  <Unit>
nM

>  <Type>
IC50

>  <pValue>
4.75

>  <Ligand Efficiency>
0

>  <Binding Efficiency>
0

>  <Surface Efficiency>
0

>  <Assay Index>
1012900

>  <Assay Category>


>  <Assay Organism>
Homo sapiens

>  <Target ID>
17045

>  <Target Name>
Cytochrome P450 3A4

>  <Target Organism>
Homo sapiens

>  <Target Description>
Target is a single protein chain

>  <Sequence Accession>
P08684

>  <Reference>
J Med Chem 59 (7), 3231-3248 (2016)

>  <Pubmed ID>
26937601

>  <DOI>
10.1021/acs.jmedchem.5b01995

$$$$
2083800
Actelion Java MolfileCreator 1.0

 29 32  0  0  0  0  0  0  0  0999 V2000
    0.0000   -0.0000   -0.0000 S   0  0  0  0  0  0  0  0  0  0  0  0
    0.6312    1.4481   -0.0000 C   0  0  0  0  0  0  0  0  0  0  0  0
    1.1511   -1.0273   -0.0000 C   0  0  0  0  0  0  0  0  0  0  0  0
   -0.1609    2.8220   -0.0000 C   0  0  0  0  0  0  0  0  0  0  0  0
    2.1784    1.2872   -0.0000 C   0  0  0  0  0  0  0  0  0  0  0  0
    2.5002   -0.2599   -0.0000 C   0  0  0  0  0  0  0  0  0  0  0  0
    0.9654   -2.5744   -0.0000 C   0  0  0  0  0  0  0  0  0  0  0  0
   -0.7921    3.9235   -0.0000 N   0  0  0  0  0  0  0  0  0  0  0  0
   -0.4084   -1.7575   -0.0000 N   0  0  0  0  0  0  0  0  0  0  0  0
    0.9530   -4.1340   -0.0000 C   0  0  0  0  0  0  0  0  0  0  0  0
    2.4383   -2.0794   -0.0000 C   0  0  0  0  0  0  0  0  0  0  0  0
   -1.7947   -2.5497   -0.0000 C   0  0  0  0  0  0  0  0  0  0  0  0
   -0.4208   -4.9261   -0.0000 C   0  0  0  0  0  0  0  0  0  0  0  0
    2.4259   -4.6043   -0.0000 C   0  0  0  0  0  0  0  0  0  0  0  0
    3.3418   -3.3047   -0.0000 N   0  0  0  0  0  0  0  0  0  0  0  0
   -2.8962   -1.9061   -0.0000 N   0  0  0  0  0  0  0  0  0  0  0  0
   -1.8071   -4.1092   -0.0000 N   0  0  0  0  0  0  0  0  0  0  0  0
   -0.4332   -6.1762   -0.0000 O   0  0  0  0  0  0  0  0  0  0  0  0
    4.9013   -3.2799   -0.0000 C   0  0  0  0  0  0  0  0  0  0  0  0
   -2.9086   -4.7281   -0.0000 C   0  0  0  0  0  0  0  0  0  0  0  0
    5.7801   -4.5548   -0.0000 N   0  0  0  0  0  0  0  0  0  0  0  0
    5.5573   -1.8442   -0.0000 N   0  0  0  0  0  0  0  0  0  0  0  0
    7.3396   -4.4186   -0.0000 C   0  0  0  0  0  0  0  0  0  0  0  0
    7.1168   -1.7080   -0.0000 C   0  0  0  0  0  0  0  0  0  0  0  0
    8.2184   -5.7058   -0.0000 O   0  0  0  0  0  0  0  0  0  0  0  0
    7.9956   -2.9829   -0.0000 C   0  0  0  0  0  0  0  0  0  0  0  0
    7.6367   -0.5570   -0.0000 C   0  0  0  0  0  0  0  0  0  0  0  0
    7.6614   -6.8322   -0.0000 C   0  0  0  0  0  0  0  0  0  0  0  0
    9.2333   -2.8715   -0.0000 F   0  0  0  0  0  0  0  0  0  0  0  0
  1  2  1  0  0  0  0
  1  3  1  0  0  0  0
  2  4  1  0  0  0  0
  2  5  2  0  0  0  0
  3  6  2  0  0  0  0
  7  3  1  6  0  0  0
  4  8  3  0  0  0  0
  7  9  1  0  0  0  0
  7 10  1  0  0  0  0
  7 11  1  0  0  0  0
  9 12  1  0  0  0  0
 10 13  1  0  0  0  0
 10 14  1  1  0  0  0
 11 15  1  0  0  0  0
 12 16  2  0  0  0  0
 12 17  1  0  0  0  0
 13 18  2  0  0  0  0
 15 19  1  0  0  0  0
 17 20  1  0  0  0  0
 19 21  2  0  0  0  0
 19 22  1  0  0  0  0
 21 23  1  0  0  0  0
 22 24  2  0  0  0  0
 23 25  1  0  0  0  0
 23 26  2  0  0  0  0
 24 27  1  0  0  0  0
 25 28  1  0  0  0  0
 26 29  1  0  0  0  0
  5  6  1  0  0  0  0
 13 17  1  0  0  0  0
 14 15  1  0  0  0  0
 24 26  1  0  0  0  0
M  END
>  <MolRegNo>
2083800

>  <m>
=

>  <Value>
24000

>  <Unit>
nM

>  <Type>
IC50

>  <pValue>
4.62

>  <Ligand Efficiency>
0

>  <Binding Efficiency>
0

>  <Surface Efficiency>
0

>  <Assay Index>
1012900

>  <Assay Category>


>  <Assay Organism>
Homo sapiens

>  <Target ID>
17045

>  <Target Name>
Cytochrome P450 3A4

>  <Target Organism>
Homo sapiens

>  <Target Description>
Target is a single protein chain

>  <Sequence Accession>
P08684

>  <Reference>
J Med Chem 59 (7), 3231-3248 (2016)

>  <Pubmed ID>
26937601

>  <DOI>
10.1021/acs.jmedchem.5b01995

$$$$
2083798
Actelion Java MolfileCreator 1.0

 34 38  0  0  0  0  0  0  0  0999 V2000
    0.0000   -0.0000   -0.0000 S   0  0  0  0  0  0  0  0  0  0  0  0
    1.1360   -1.0139   -0.0000 C   0  0  0  0  0  0  0  0  0  0  0  0
    0.6230    1.4292   -0.0000 C   0  0  0  0  0  0  0  0  0  0  0  0
    2.4675   -0.2565   -0.0000 C   0  0  0  0  0  0  0  0  0  0  0  0
    0.9528   -2.5408   -0.0000 C   0  0  0  0  0  0  0  0  0  0  0  0
    2.1499    1.2704   -0.0000 C   0  0  0  0  0  0  0  0  0  0  0  0
   -0.4031   -1.7346   -0.0000 N   0  0  0  0  0  0  0  0  0  0  0  0
    0.9406   -4.0800   -0.0000 C   0  0  0  0  0  0  0  0  0  0  0  0
    2.4065   -2.0522   -0.0000 C   0  0  0  0  0  0  0  0  0  0  0  0
    3.1883    2.4309   -0.0000 C   0  0  0  0  0  0  0  0  0  0  0  0
   -1.7713   -2.5164   -0.0000 C   0  0  0  0  0  0  0  0  0  0  0  0
   -0.4153   -4.8618   -0.0000 C   0  0  0  0  0  0  0  0  0  0  0  0
    2.3942   -4.5442   -0.0000 C   0  0  0  0  0  0  0  0  0  0  0  0
    3.2982   -3.2615   -0.0000 N   0  0  0  0  0  0  0  0  0  0  0  0
    2.5897    3.8845   -0.0000 C   0  0  0  0  0  0  0  0  0  0  0  0
    4.7030    2.2232   -0.0000 C   0  0  0  0  0  0  0  0  0  0  0  0
   -2.8584   -1.8812   -0.0000 N   0  0  0  0  0  0  0  0  0  0  0  0
   -1.7835   -4.0556   -0.0000 N   0  0  0  0  0  0  0  0  0  0  0  0
   -0.4275   -6.0955   -0.0000 O   0  0  0  0  0  0  0  0  0  0  0  0
    4.8373   -3.2371   -0.0000 C   0  0  0  0  0  0  0  0  0  0  0  0
    3.5303    5.1183   -0.0000 C   0  0  0  0  0  0  0  0  0  0  0  0
    5.6436    3.4570   -0.0000 C   0  0  0  0  0  0  0  0  0  0  0  0
   -2.8706   -4.6663   -0.0000 C   0  0  0  0  0  0  0  0  0  0  0  0
    5.7046   -4.4953   -0.0000 N   0  0  0  0  0  0  0  0  0  0  0  0
    5.4848   -1.8201   -0.0000 N   0  0  0  0  0  0  0  0  0  0  0  0
    2.9439    6.5720   -0.0000 C   0  0  0  0  0  0  0  0  0  0  0  0
    5.0572    4.9106   -0.0000 C   0  0  0  0  0  0  0  0  0  0  0  0
    7.2438   -4.3609   -0.0000 C   0  0  0  0  0  0  0  0  0  0  0  0
    7.0239   -1.6857   -0.0000 C   0  0  0  0  0  0  0  0  0  0  0  0
    2.4675    7.7324   -0.0000 N   0  0  0  0  0  0  0  0  0  0  0  0
    8.1111   -5.6314   -0.0000 O   0  0  0  0  0  0  0  0  0  0  0  0
    7.8912   -2.9439   -0.0000 C   0  0  0  0  0  0  0  0  0  0  0  0
    7.5614   -6.7430   -0.0000 C   0  0  0  0  0  0  0  0  0  0  0  0
    9.1128   -2.8340   -0.0000 F   0  0  0  0  0  0  0  0  0  0  0  0
  1  2  1  0  0  0  0
  1  3  1  0  0  0  0
  2  4  2  0  0  0  0
  5  2  1  6  0  0  0
  3  6  2  0  0  0  0
  5  7  1  0  0  0  0
  5  8  1  0  0  0  0
  5  9  1  0  0  0  0
  6 10  1  0  0  0  0
  7 11  1  0  0  0  0
  8 12  1  0  0  0  0
  8 13  1  1  0  0  0
  9 14  1  0  0  0  0
 10 15  2  0  0  0  0
 10 16  1  0  0  0  0
 11 17  2  0  0  0  0
 11 18  1  0  0  0  0
 12 19  2  0  0  0  0
 14 20  1  0  0  0  0
 15 21  1  0  0  0  0
 16 22  2  0  0  0  0
 18 23  1  0  0  0  0
 20 24  2  0  0  0  0
 20 25  1  0  0  0  0
 21 26  1  0  0  0  0
 21 27  2  0  0  0  0
 24 28  1  0  0  0  0
 25 29  2  0  0  0  0
 26 30  3  0  0  0  0
 28 31  1  0  0  0  0
 28 32  2  0  0  0  0
 31 33  1  0  0  0  0
 32 34  1  0  0  0  0
  4  6  1  0  0  0  0
 12 18  1  0  0  0  0
 13 14  1  0  0  0  0
 22 27  1  0  0  0  0
 29 32  1  0  0  0  0
M  END
>  <MolRegNo>
2083798

>  <m>
=

>  <Value>
2000

>  <Unit>
nM

>  <Type>
IC50

>  <pValue>
5.7

>  <Ligand Efficiency>
0

>  <Binding Efficiency>
0

>  <Surface Efficiency>
0

>  <Assay Index>
1012900

>  <Assay Category>


>  <Assay Organism>
Homo sapiens

>  <Target ID>
17045

>  <Target Name>
Cytochrome P450 3A4

>  <Target Organism>
Homo sapiens

>  <Target Description>
Target is a single protein chain

>  <Sequence Accession>
P08684

>  <Reference>
J Med Chem 59 (7), 3231-3248 (2016)

>  <Pubmed ID>
26937601

>  <DOI>
10.1021/acs.jmedchem.5b01995

$$$$
2084752
Actelion Java MolfileCreator 1.0

 33 36  0  0  0  0  0  0  0  0999 V2000
    0.0000   -0.0000   -0.0000 S   0  0  0  0  0  0  0  0  0  0  0  0
    1.2073   -0.2464   -0.0000 O   0  0  0  0  0  0  0  0  0  0  0  0
    0.3819   -1.1704   -0.0000 O   0  0  0  0  0  0  0  0  0  0  0  0
   -0.5051    1.4907   -0.0000 N   0  0  0  0  0  0  0  0  0  0  0  0
   -1.0595   -1.1581   -0.0000 C   0  0  0  0  0  0  0  0  0  0  0  0
   -1.9958    1.9835   -0.0000 C   0  0  0  0  0  0  0  0  0  0  0  0
    0.3942    2.7720   -0.0000 C   0  0  0  0  0  0  0  0  0  0  0  0
   -0.5790   -2.6364   -0.0000 C   0  0  0  0  0  0  0  0  0  0  0  0
   -3.3633    1.1950   -0.0000 N   0  0  0  0  0  0  0  0  0  0  0  0
   -2.0081    3.5604   -0.0000 C   0  0  0  0  0  0  0  0  0  0  0  0
   -0.5298    4.0163   -0.0000 C   0  0  0  0  0  0  0  0  0  0  0  0
   -1.4291   -3.5604   -0.0000 C   0  0  0  0  0  0  0  0  0  0  0  0
    0.6283   -2.8828   -0.0000 C   0  0  0  0  0  0  0  0  0  0  0  0
   -4.7431    2.0081   -0.0000 C   0  0  0  0  0  0  0  0  0  0  0  0
   -3.3756    4.3735   -0.0000 C   0  0  0  0  0  0  0  0  0  0  0  0
   -6.1106    1.2443   -0.0000 N   0  0  0  0  0  0  0  0  0  0  0  0
   -4.7554    3.5851   -0.0000 C   0  0  0  0  0  0  0  0  0  0  0  0
   -3.3879    5.9505   -0.0000 C   0  0  0  0  0  0  0  0  0  0  0  0
   -6.1229   -0.3080   -0.0000 C   0  0  0  0  0  0  0  0  0  0  0  0
   -7.4781    2.0451   -0.0000 C   0  0  0  0  0  0  0  0  0  0  0  0
   -2.0451    6.7513   -0.0000 C   0  0  0  0  0  0  0  0  0  0  0  0
   -4.7554    6.7389   -0.0000 C   0  0  0  0  0  0  0  0  0  0  0  0
   -7.4904   -1.0718   -0.0000 C   0  0  0  0  0  0  0  0  0  0  0  0
   -8.8456    1.2813   -0.0000 C   0  0  0  0  0  0  0  0  0  0  0  0
   -2.0574    8.3282   -0.0000 C   0  0  0  0  0  0  0  0  0  0  0  0
   -4.7678    8.3159   -0.0000 C   0  0  0  0  0  0  0  0  0  0  0  0
   -8.8579   -0.2710   -0.0000 N   0  0  0  0  0  0  0  0  0  0  0  0
   -3.4249    9.1167   -0.0000 C   0  0  0  0  0  0  0  0  0  0  0  0
   -9.9544   -0.8870   -0.0000 C   0  0  0  0  0  0  0  0  0  0  0  0
   -3.4372   10.6936   -0.0000 C   0  0  0  0  0  0  0  0  0  0  0  0
   -2.3654   11.3342   -0.0000 F   0  0  0  0  0  0  0  0  0  0  0  0
   -4.5337   11.3219   -0.0000 F   0  0  0  0  0  0  0  0  0  0  0  0
   -3.4495   11.9625   -0.0000 F   0  0  0  0  0  0  0  0  0  0  0  0
  1  2  2  0  0  0  0
  1  3  2  0  0  0  0
  1  4  1  0  0  0  0
  1  5  1  0  0  0  0
  4  6  1  0  0  0  0
  4  7  1  0  0  0  0
  5  8  1  0  0  0  0
  6  9  2  0  0  0  0
  6 10  1  0  0  0  0
  7 11  2  0  0  0  0
  8 12  1  0  0  0  0
  8 13  1  0  0  0  0
  9 14  1  0  0  0  0
 10 15  2  0  0  0  0
 14 16  1  0  0  0  0
 14 17  2  0  0  0  0
 15 18  1  0  0  0  0
 16 19  1  0  0  0  0
 16 20  1  0  0  0  0
 18 21  2  0  0  0  0
 18 22  1  0  0  0  0
 19 23  1  0  0  0  0
 20 24  1  0  0  0  0
 21 25  1  0  0  0  0
 22 26  2  0  0  0  0
 23 27  1  0  0  0  0
 25 28  2  0  0  0  0
 27 29  1  0  0  0  0
 28 30  1  0  0  0  0
 30 31  1  0  0  0  0
 30 32  1  0  0  0  0
 30 33  1  0  0  0  0
 10 11  1  0  0  0  0
 15 17  1  0  0  0  0
 24 27  1  0  0  0  0
 26 28  1  0  0  0  0
M  END
>  <MolRegNo>
2084752

>  <m>
=

>  <Value>
1100

>  <Unit>
nM

>  <Type>
IC50

>  <pValue>
5.96

>  <Ligand Efficiency>
0

>  <Binding Efficiency>
0

>  <Surface Efficiency>
0

>  <Assay Index>
1011040

>  <Assay Category>


>  <Assay Organism>
Homo sapiens

>  <Target ID>
17045

>  <Target Name>
Cytochrome P450 3A4

>  <Target Organism>
Homo sapiens

>  <Target Description>
Target is a single protein chain

>  <Sequence Accession>
P08684

>  <Reference>
Bioorg Med Chem Lett 26 (11), 2610-2615 (2016)

>  <Pubmed ID>
27117428

>  <DOI>
10.1016/j.bmcl.2016.04.024

$$$$
2085067
Actelion Java MolfileCreator 1.0

 26 28  0  0  0  0  0  0  0  0999 V2000
    0.0000   -0.0000   -0.0000 Cl  0  0  0  0  0  0  0  0  0  0  0  0
    1.0641   -0.6116   -0.0000 C   0  0  0  0  0  0  0  0  0  0  0  0
    1.0519   -2.1527   -0.0000 C   0  0  0  0  0  0  0  0  0  0  0  0
    2.3973    0.1712   -0.0000 C   0  0  0  0  0  0  0  0  0  0  0  0
   -0.3058   -2.9233   -0.0000 O   0  0  0  0  0  0  0  0  0  0  0  0
    2.3851   -2.9110   -0.0000 C   0  0  0  0  0  0  0  0  0  0  0  0
    3.7305   -0.5871   -0.0000 C   0  0  0  0  0  0  0  0  0  0  0  0
   -0.3180   -4.4644   -0.0000 C   0  0  0  0  0  0  0  0  0  0  0  0
    3.7183   -2.1282   -0.0000 C   0  0  0  0  0  0  0  0  0  0  0  0
    5.0637    0.1957   -0.0000 N   0  0  0  0  0  0  0  0  0  0  0  0
   -1.6757   -5.2350   -0.0000 N   0  0  0  0  0  0  0  0  0  0  0  0
    1.0152   -5.2228   -0.0000 N   0  0  0  0  0  0  0  0  0  0  0  0
    6.3970   -0.5749   -0.0000 C   0  0  0  0  0  0  0  0  0  0  0  0
   -1.6879   -6.7761   -0.0000 C   0  0  0  0  0  0  0  0  0  0  0  0
    1.0030   -6.7639   -0.0000 C   0  0  0  0  0  0  0  0  0  0  0  0
    6.3847   -1.8102   -0.0000 O   0  0  0  0  0  0  0  0  0  0  0  0
    7.7302    0.2079   -0.0000 C   0  0  0  0  0  0  0  0  0  0  0  0
   -0.3547   -7.5345   -0.0000 C   0  0  0  0  0  0  0  0  0  0  0  0
    7.7179    1.7735   -0.0000 N   0  0  0  0  0  0  0  0  0  0  0  0
    9.0634   -0.5504   -0.0000 C   0  0  0  0  0  0  0  0  0  0  0  0
   -0.3547   -9.0756   -0.0000 C   0  0  0  0  0  0  0  0  0  0  0  0
    9.0511    2.5563   -0.0000 C   0  0  0  0  0  0  0  0  0  0  0  0
    9.0511   -1.7858   -0.0000 N   0  0  0  0  0  0  0  0  0  0  0  0
   10.3966    0.2324   -0.0000 C   0  0  0  0  0  0  0  0  0  0  0  0
    0.7094   -9.6749   -0.0000 C   0  0  0  0  0  0  0  0  0  0  0  0
   10.3843    1.7980   -0.0000 C   0  0  0  0  0  0  0  0  0  0  0  0
  1  2  1  0  0  0  0
  2  3  2  0  0  0  0
  2  4  1  0  0  0  0
  3  5  1  0  0  0  0
  3  6  1  0  0  0  0
  4  7  2  0  0  0  0
  5  8  1  0  0  0  0
  6  9  2  0  0  0  0
  7 10  1  0  0  0  0
  8 11  2  0  0  0  0
  8 12  1  0  0  0  0
 10 13  1  0  0  0  0
 11 14  1  0  0  0  0
 12 15  2  0  0  0  0
 13 16  2  0  0  0  0
 13 17  1  0  0  0  0
 14 18  2  0  0  0  0
 17 19  2  0  0  0  0
 17 20  1  0  0  0  0
 18 21  1  0  0  0  0
 19 22  1  0  0  0  0
 20 23  1  0  0  0  0
 20 24  2  0  0  0  0
 21 25  1  0  0  0  0
 22 26  2  0  0  0  0
  7  9  1  0  0  0  0
 15 18  1  0  0  0  0
 24 26  1  0  0  0  0
M  END
>  <MolRegNo>
2085067

>  <m>
=

>  <Value>
21100

>  <Unit>
nM

>  <Type>
IC50

>  <pValue>
4.68

>  <Ligand Efficiency>
0

>  <Binding Efficiency>
0

>  <Surface Efficiency>
0

>  <Assay Index>
1011717

>  <Assay Category>


>  <Assay Organism>
Homo sapiens

>  <Target ID>
17045

>  <Target Name>
Cytochrome P450 3A4

>  <Target Organism>
Homo sapiens

>  <Target Description>
Target is a single protein chain

>  <Sequence Accession>
P08684

>  <Reference>
Bioorg Med Chem Lett 26 (12), 2915-2919 (2016)

>  <Pubmed ID>
27131990

>  <DOI>
10.1016/j.bmcl.2016.04.041

$$$$
1794122
Actelion Java MolfileCreator 1.0

 35 39  0  0  0  0  0  0  0  0999 V2000
    0.0000   -0.0000   -0.0000 Cl  0  0  0  0  0  0  0  0  0  0  0  0
    1.0617    0.6346   -0.0000 C   0  0  0  0  0  0  0  0  0  0  0  0
    2.3920   -0.1220   -0.0000 C   0  0  0  0  0  0  0  0  0  0  0  0
    1.0495    2.1967   -0.0000 C   0  0  0  0  0  0  0  0  0  0  0  0
    3.7222    0.6712   -0.0000 C   0  0  0  0  0  0  0  0  0  0  0  0
    2.3798    2.9900   -0.0000 C   0  0  0  0  0  0  0  0  0  0  0  0
    3.7100    2.2333   -0.0000 C   0  0  0  0  0  0  0  0  0  0  0  0
    5.0525   -0.0854   -0.0000 C   0  0  0  0  0  0  0  0  0  0  0  0
    5.0402    3.0266   -0.0000 O   0  0  0  0  0  0  0  0  0  0  0  0
    5.0402   -1.6231   -0.0000 C   0  0  0  0  0  0  0  0  0  0  0  0
    6.3827    0.6956   -0.0000 C   0  0  0  0  0  0  0  0  0  0  0  0
    5.0280    4.5887   -0.0000 C   0  0  0  0  0  0  0  0  0  0  0  0
    6.3705   -2.3798   -0.0000 C   0  0  0  0  0  0  0  0  0  0  0  0
    7.7129   -0.0610   -0.0000 C   0  0  0  0  0  0  0  0  0  0  0  0
    6.3583    5.3820   -0.0000 C   0  0  0  0  0  0  0  0  0  0  0  0
    3.6734    5.3698   -0.0000 C   0  0  0  0  0  0  0  0  0  0  0  0
    6.6756   -3.8809   -0.0000 C   0  0  0  0  0  0  0  0  0  0  0  0
    7.7007   -1.5987   -0.0000 C   0  0  0  0  0  0  0  0  0  0  0  0
    7.4200    4.7840   -0.0000 F   0  0  0  0  0  0  0  0  0  0  0  0
    6.3339    6.9441   -0.0000 C   0  0  0  0  0  0  0  0  0  0  0  0
    3.6490    6.9319   -0.0000 C   0  0  0  0  0  0  0  0  0  0  0  0
    8.2011   -4.0273   -0.0000 N   0  0  0  0  0  0  0  0  0  0  0  0
    5.8335   -4.7840   -0.0000 N   0  0  0  0  0  0  0  0  0  0  0  0
    8.8357   -2.6239   -0.0000 O   0  0  0  0  0  0  0  0  0  0  0  0
    4.9792    7.7251   -0.0000 C   0  0  0  0  0  0  0  0  0  0  0  0
    2.5628    7.5543   -0.0000 F   0  0  0  0  0  0  0  0  0  0  0  0
    4.9548    9.2872   -0.0000 S   0  0  0  0  0  0  0  0  0  0  0  0
    6.0166    9.9218   -0.0000 O   0  0  0  0  0  0  0  0  0  0  0  0
    4.9426   10.5442   -0.0000 O   0  0  0  0  0  0  0  0  0  0  0  0
    3.6002   10.0683   -0.0000 N   0  0  0  0  0  0  0  0  0  0  0  0
    3.5758   11.6304   -0.0000 C   0  0  0  0  0  0  0  0  0  0  0  0
    4.8084   12.5335   -0.0000 S   0  0  0  0  0  0  0  0  0  0  0  0
    2.3066   12.5213   -0.0000 N   0  0  0  0  0  0  0  0  0  0  0  0
    4.3080   14.0224   -0.0000 N   0  0  0  0  0  0  0  0  0  0  0  0
    2.7703   14.0102   -0.0000 C   0  0  0  0  0  0  0  0  0  0  0  0
  1  2  1  0  0  0  0
  2  3  2  0  0  0  0
  2  4  1  0  0  0  0
  3  5  1  0  0  0  0
  4  6  2  0  0  0  0
  5  7  2  0  0  0  0
  5  8  1  0  0  0  0
  7  9  1  0  0  0  0
  8 10  2  0  0  0  0
  8 11  1  0  0  0  0
  9 12  1  0  0  0  0
 10 13  1  0  0  0  0
 11 14  2  0  0  0  0
 12 15  2  0  0  0  0
 12 16  1  0  0  0  0
 13 17  1  0  0  0  0
 13 18  2  0  0  0  0
 15 19  1  0  0  0  0
 15 20  1  0  0  0  0
 16 21  2  0  0  0  0
 17 22  2  0  0  0  0
 17 23  1  0  0  0  0
 18 24  1  0  0  0  0
 20 25  2  0  0  0  0
 21 26  1  0  0  0  0
 25 27  1  0  0  0  0
 27 28  2  0  0  0  0
 27 29  2  0  0  0  0
 27 30  1  0  0  0  0
 30 31  1  0  0  0  0
 31 32  1  0  0  0  0
 31 33  2  0  0  0  0
 32 34  1  0  0  0  0
 33 35  1  0  0  0  0
  6  7  1  0  0  0  0
 14 18  1  0  0  0  0
 21 25  1  0  0  0  0
 22 24  1  0  0  0  0
 34 35  2  0  0  0  0
M  END
>  <MolRegNo>
1794122

>  <m>
=

>  <Value>
77

>  <Unit>
nM

>  <Type>
IC50

>  <pValue>
7.11

>  <Ligand Efficiency>
0

>  <Binding Efficiency>
0

>  <Surface Efficiency>
0

>  <Assay Index>
1016228

>  <Assay Category>


>  <Assay Organism>
Homo sapiens

>  <Target ID>
17045

>  <Target Name>
Cytochrome P450 3A4

>  <Target Organism>
Homo sapiens

>  <Target Description>
Target is a single protein chain

>  <Sequence Accession>
P08684

>  <Reference>
ACS Med Chem Lett 7 (3), 277-282 (2016)

>  <Pubmed ID>
26985315

>  <DOI>
10.1021/acsmedchemlett.5b00447

$$$$
2086021
Actelion Java MolfileCreator 1.0

 26 29  0  0  0  0  0  0  0  0999 V2000
    0.0000   -0.0000   -0.0000 O   0  0  0  0  0  0  0  0  0  0  0  0
   -0.3616   -1.1690   -0.0000 C   0  0  0  0  0  0  0  0  0  0  0  0
   -1.8560   -1.5185   -0.0000 C   0  0  0  0  0  0  0  0  0  0  0  0
    0.6870   -2.2658   -0.0000 C   0  0  0  0  0  0  0  0  0  0  0  0
   -2.3019   -2.9768   -0.0000 C   0  0  0  0  0  0  0  0  0  0  0  0
    0.2410   -3.7241   -0.0000 C   0  0  0  0  0  0  0  0  0  0  0  0
   -1.2655   -4.0615   -0.0000 C   0  0  0  0  0  0  0  0  0  0  0  0
   -1.5909   -5.5439   -0.0000 C   0  0  0  0  0  0  0  0  0  0  0  0
   -0.5785   -6.6768   -0.0000 N   0  0  0  0  0  0  0  0  0  0  0  0
   -2.9889   -6.1586   -0.0000 C   0  0  0  0  0  0  0  0  0  0  0  0
   -1.3619   -7.9905   -0.0000 N   0  0  0  0  0  0  0  0  0  0  0  0
   -4.3267   -5.3752   -0.0000 C   0  0  0  0  0  0  0  0  0  0  0  0
   -2.8684   -7.6530   -0.0000 C   0  0  0  0  0  0  0  0  0  0  0  0
   -5.6644   -6.1224   -0.0000 C   0  0  0  0  0  0  0  0  0  0  0  0
   -4.3387   -3.8325   -0.0000 C   0  0  0  0  0  0  0  0  0  0  0  0
   -3.7964   -8.4484   -0.0000 N   0  0  0  0  0  0  0  0  0  0  0  0
   -7.0022   -5.3511   -0.0000 C   0  0  0  0  0  0  0  0  0  0  0  0
   -5.6765   -3.0612   -0.0000 C   0  0  0  0  0  0  0  0  0  0  0  0
   -8.3400   -6.1103   -0.0000 C   0  0  0  0  0  0  0  0  0  0  0  0
   -7.0142   -3.8084   -0.0000 C   0  0  0  0  0  0  0  0  0  0  0  0
   -9.6777   -5.3390   -0.0000 C   0  0  0  0  0  0  0  0  0  0  0  0
   -8.3520   -7.6289   -0.0000 C   0  0  0  0  0  0  0  0  0  0  0  0
  -11.0155   -6.0983   -0.0000 C   0  0  0  0  0  0  0  0  0  0  0  0
   -9.6898   -8.3882   -0.0000 C   0  0  0  0  0  0  0  0  0  0  0  0
  -12.0881   -5.4716   -0.0000 N   0  0  0  0  0  0  0  0  0  0  0  0
  -11.0275   -7.6168   -0.0000 C   0  0  0  0  0  0  0  0  0  0  0  0
  1  2  1  0  0  0  0
  2  3  2  0  0  0  0
  2  4  1  0  0  0  0
  3  5  1  0  0  0  0
  4  6  2  0  0  0  0
  5  7  2  0  0  0  0
  7  8  1  0  0  0  0
  8  9  2  0  0  0  0
  8 10  1  0  0  0  0
  9 11  1  0  0  0  0
 10 12  1  0  0  0  0
 10 13  2  0  0  0  0
 12 14  2  0  0  0  0
 12 15  1  0  0  0  0
 13 16  1  0  0  0  0
 14 17  1  0  0  0  0
 15 18  2  0  0  0  0
 17 19  1  0  0  0  0
 17 20  2  0  0  0  0
 19 21  2  0  0  0  0
 19 22  1  0  0  0  0
 21 23  1  0  0  0  0
 22 24  2  0  0  0  0
 23 25  1  0  0  0  0
 23 26  2  0  0  0  0
  6  7  1  0  0  0  0
 11 13  1  0  0  0  0
 18 20  1  0  0  0  0
 24 26  1  0  0  0  0
M  END
>  <MolRegNo>
2086021

>  <m>
=

>  <Value>
11300

>  <Unit>
nM

>  <Type>
IC50

>  <pValue>
4.95

>  <Ligand Efficiency>
0

>  <Binding Efficiency>
0

>  <Surface Efficiency>
0

>  <Assay Index>
1015104

>  <Assay Category>


>  <Assay Organism>
Homo sapiens

>  <Target ID>
17045

>  <Target Name>
Cytochrome P450 3A4

>  <Target Organism>
Homo sapiens

>  <Target Description>
Target is a single protein chain

>  <Sequence Accession>
P08684

>  <Reference>
J Med Chem 59 (7), 3272-3302 (2016)

>  <Pubmed ID>
27002486

>  <DOI>
10.1021/acs.jmedchem.6b00007

$$$$
2086449
Actelion Java MolfileCreator 1.0

 40 43  0  0  0  0  0  0  0  0999 V2000
    0.0000   -0.0000   -0.0000 F   0  0  0  0  0  0  0  0  0  0  0  0
   -1.0835    0.6330   -0.0000 C   0  0  0  0  0  0  0  0  0  0  0  0
   -1.0957    1.8870   -0.0000 F   0  0  0  0  0  0  0  0  0  0  0  0
   -0.0243    1.2661   -0.0000 F   0  0  0  0  0  0  0  0  0  0  0  0
   -2.4348   -0.1217   -0.0000 C   0  0  0  0  0  0  0  0  0  0  0  0
   -2.4470   -1.6557   -0.0000 C   0  0  0  0  0  0  0  0  0  0  0  0
   -3.7861    0.6574   -0.0000 C   0  0  0  0  0  0  0  0  0  0  0  0
   -3.7983   -2.4105   -0.0000 C   0  0  0  0  0  0  0  0  0  0  0  0
   -1.1200   -2.4226   -0.0000 C   0  0  0  0  0  0  0  0  0  0  0  0
   -5.1374   -0.0974   -0.0000 C   0  0  0  0  0  0  0  0  0  0  0  0
   -5.1496   -1.6313   -0.0000 C   0  0  0  0  0  0  0  0  0  0  0  0
   -1.1322   -3.9566   -0.0000 N   0  0  0  0  0  0  0  0  0  0  0  0
   -6.4887    0.6817   -0.0000 N   0  0  0  0  0  0  0  0  0  0  0  0
    0.1948   -4.7235   -0.0000 C   0  0  0  0  0  0  0  0  0  0  0  0
   -2.4835   -4.7113   -0.0000 C   0  0  0  0  0  0  0  0  0  0  0  0
   -7.8401   -0.0852   -0.0000 C   0  0  0  0  0  0  0  0  0  0  0  0
    0.1826   -6.2574   -0.0000 C   0  0  0  0  0  0  0  0  0  0  0  0
   -2.4957   -6.2453   -0.0000 C   0  0  0  0  0  0  0  0  0  0  0  0
   -7.8522   -1.3148   -0.0000 O   0  0  0  0  0  0  0  0  0  0  0  0
   -9.1914    0.6939   -0.0000 C   0  0  0  0  0  0  0  0  0  0  0  0
   -1.1687   -7.0122   -0.0000 N   0  0  0  0  0  0  0  0  0  0  0  0
  -10.5427   -0.0730   -0.0000 N   0  0  0  0  0  0  0  0  0  0  0  0
   -1.1931   -8.5462   -0.0000 C   0  0  0  0  0  0  0  0  0  0  0  0
  -11.8940    0.7061   -0.0000 C   0  0  0  0  0  0  0  0  0  0  0  0
   -2.2765   -9.1427   -0.0000 C   0  0  0  0  0  0  0  0  0  0  0  0
  -13.2453   -0.0487   -0.0000 C   0  0  0  0  0  0  0  0  0  0  0  0
  -11.9062    2.2644   -0.0000 C   0  0  0  0  0  0  0  0  0  0  0  0
  -14.5966    0.7304   -0.0000 C   0  0  0  0  0  0  0  0  0  0  0  0
  -13.2575    3.0435   -0.0000 C   0  0  0  0  0  0  0  0  0  0  0  0
  -14.6088    2.2887   -0.0000 C   0  0  0  0  0  0  0  0  0  0  0  0
  -15.9601    3.0678   -0.0000 C   0  0  0  0  0  0  0  0  0  0  0  0
  -15.9723    4.6261   -0.0000 C   0  0  0  0  0  0  0  0  0  0  0  0
  -17.3114    2.3131   -0.0000 C   0  0  0  0  0  0  0  0  0  0  0  0
  -17.3236    5.4174   -0.0000 N   0  0  0  0  0  0  0  0  0  0  0  0
  -18.6628    3.1044   -0.0000 C   0  0  0  0  0  0  0  0  0  0  0  0
  -18.6749    4.6626   -0.0000 C   0  0  0  0  0  0  0  0  0  0  0  0
  -20.0262    5.4540   -0.0000 N   0  0  0  0  0  0  0  0  0  0  0  0
  -20.0384    7.0122   -0.0000 C   0  0  0  0  0  0  0  0  0  0  0  0
  -21.1219    7.6453   -0.0000 O   0  0  0  0  0  0  0  0  0  0  0  0
  -18.9793    7.6331   -0.0000 C   0  0  0  0  0  0  0  0  0  0  0  0
  1  2  1  0  0  0  0
  2  3  1  0  0  0  0
  2  4  1  0  0  0  0
  2  5  1  0  0  0  0
  5  6  2  0  0  0  0
  5  7  1  0  0  0  0
  6  8  1  0  0  0  0
  6  9  1  0  0  0  0
  7 10  2  0  0  0  0
  8 11  2  0  0  0  0
  9 12  1  0  0  0  0
 10 13  1  0  0  0  0
 12 14  1  0  0  0  0
 12 15  1  0  0  0  0
 13 16  1  0  0  0  0
 14 17  1  0  0  0  0
 15 18  1  0  0  0  0
 16 19  2  0  0  0  0
 16 20  1  0  0  0  0
 17 21  1  0  0  0  0
 20 22  1  0  0  0  0
 21 23  1  0  0  0  0
 22 24  1  0  0  0  0
 23 25  1  0  0  0  0
 24 26  2  0  0  0  0
 24 27  1  0  0  0  0
 26 28  1  0  0  0  0
 27 29  2  0  0  0  0
 28 30  2  0  0  0  0
 30 31  1  0  0  0  0
 31 32  2  0  0  0  0
 31 33  1  0  0  0  0
 32 34  1  0  0  0  0
 33 35  2  0  0  0  0
 34 36  2  0  0  0  0
 36 37  1  0  0  0  0
 37 38  1  0  0  0  0
 38 39  2  0  0  0  0
 38 40  1  0  0  0  0
 10 11  1  0  0  0  0
 18 21  1  0  0  0  0
 29 30  1  0  0  0  0
 35 36  1  0  0  0  0
M  END
>  <MolRegNo>
2086449

>  <m>
=

>  <Value>
3200

>  <Unit>
nM

>  <Type>
IC50

>  <pValue>
5.5

>  <Ligand Efficiency>
0

>  <Binding Efficiency>
0

>  <Surface Efficiency>
0

>  <Assay Index>
1015704

>  <Assay Category>


>  <Assay Organism>
Homo sapiens

>  <Target ID>
17045

>  <Target Name>
Cytochrome P450 3A4

>  <Target Organism>
Homo sapiens

>  <Target Description>
Target is a single protein chain

>  <Sequence Accession>
P08684

>  <Reference>
J Med Chem 59 (7), 3063-3078 (2016)

>  <Pubmed ID>
27011159

>  <DOI>
10.1021/acs.jmedchem.5b01712

$$$$
2086450
Actelion Java MolfileCreator 1.0

 38 41  0  0  0  0  0  0  0  0999 V2000
    0.0000   -0.0000   -0.0000 F   0  0  0  0  0  0  0  0  0  0  0  0
   -1.0795    0.6307   -0.0000 C   0  0  0  0  0  0  0  0  0  0  0  0
   -1.0916    1.8800   -0.0000 F   0  0  0  0  0  0  0  0  0  0  0  0
   -0.0243    1.2614   -0.0000 F   0  0  0  0  0  0  0  0  0  0  0  0
   -2.4258   -0.1213   -0.0000 C   0  0  0  0  0  0  0  0  0  0  0  0
   -2.4379   -1.6495   -0.0000 C   0  0  0  0  0  0  0  0  0  0  0  0
   -3.7721    0.6550   -0.0000 C   0  0  0  0  0  0  0  0  0  0  0  0
   -3.7842   -2.4015   -0.0000 C   0  0  0  0  0  0  0  0  0  0  0  0
   -1.1159   -2.4136   -0.0000 C   0  0  0  0  0  0  0  0  0  0  0  0
   -5.1184   -0.0970   -0.0000 C   0  0  0  0  0  0  0  0  0  0  0  0
   -5.1305   -1.6253   -0.0000 C   0  0  0  0  0  0  0  0  0  0  0  0
   -1.1280   -3.9419   -0.0000 N   0  0  0  0  0  0  0  0  0  0  0  0
   -6.4647    0.6792   -0.0000 N   0  0  0  0  0  0  0  0  0  0  0  0
    0.1941   -4.7060   -0.0000 C   0  0  0  0  0  0  0  0  0  0  0  0
   -2.4743   -4.6939   -0.0000 C   0  0  0  0  0  0  0  0  0  0  0  0
   -7.8110   -0.0849   -0.0000 C   0  0  0  0  0  0  0  0  0  0  0  0
    0.1819   -6.2342   -0.0000 C   0  0  0  0  0  0  0  0  0  0  0  0
   -2.4864   -6.2221   -0.0000 C   0  0  0  0  0  0  0  0  0  0  0  0
   -7.8231   -1.3099   -0.0000 O   0  0  0  0  0  0  0  0  0  0  0  0
   -9.1573    0.6913   -0.0000 C   0  0  0  0  0  0  0  0  0  0  0  0
   -1.1644   -6.9862   -0.0000 N   0  0  0  0  0  0  0  0  0  0  0  0
  -10.5036   -0.0728   -0.0000 N   0  0  0  0  0  0  0  0  0  0  0  0
  -11.8499    0.7035   -0.0000 C   0  0  0  0  0  0  0  0  0  0  0  0
  -13.1962   -0.0485   -0.0000 C   0  0  0  0  0  0  0  0  0  0  0  0
  -11.8620    2.2560   -0.0000 C   0  0  0  0  0  0  0  0  0  0  0  0
  -14.5425    0.7277   -0.0000 C   0  0  0  0  0  0  0  0  0  0  0  0
  -13.2083    3.0322   -0.0000 C   0  0  0  0  0  0  0  0  0  0  0  0
  -14.5546    2.2802   -0.0000 C   0  0  0  0  0  0  0  0  0  0  0  0
  -15.9009    3.0565   -0.0000 C   0  0  0  0  0  0  0  0  0  0  0  0
  -15.9130    4.6090   -0.0000 C   0  0  0  0  0  0  0  0  0  0  0  0
  -17.2472    2.3045   -0.0000 C   0  0  0  0  0  0  0  0  0  0  0  0
  -17.2593    5.3973   -0.0000 N   0  0  0  0  0  0  0  0  0  0  0  0
  -18.5935    3.0929   -0.0000 C   0  0  0  0  0  0  0  0  0  0  0  0
  -18.6056    4.6453   -0.0000 C   0  0  0  0  0  0  0  0  0  0  0  0
  -19.9519    5.4337   -0.0000 N   0  0  0  0  0  0  0  0  0  0  0  0
  -19.9641    6.9862   -0.0000 C   0  0  0  0  0  0  0  0  0  0  0  0
  -21.0435    7.6169   -0.0000 O   0  0  0  0  0  0  0  0  0  0  0  0
  -18.9089    7.6048   -0.0000 C   0  0  0  0  0  0  0  0  0  0  0  0
  1  2  1  0  0  0  0
  2  3  1  0  0  0  0
  2  4  1  0  0  0  0
  2  5  1  0  0  0  0
  5  6  2  0  0  0  0
  5  7  1  0  0  0  0
  6  8  1  0  0  0  0
  6  9  1  0  0  0  0
  7 10  2  0  0  0  0
  8 11  2  0  0  0  0
  9 12  1  0  0  0  0
 10 13  1  0  0  0  0
 12 14  1  0  0  0  0
 12 15  1  0  0  0  0
 13 16  1  0  0  0  0
 14 17  1  0  0  0  0
 15 18  1  0  0  0  0
 16 19  2  0  0  0  0
 16 20  1  0  0  0  0
 17 21  1  0  0  0  0
 20 22  1  0  0  0  0
 22 23  1  0  0  0  0
 23 24  2  0  0  0  0
 23 25  1  0  0  0  0
 24 26  1  0  0  0  0
 25 27  2  0  0  0  0
 26 28  2  0  0  0  0
 28 29  1  0  0  0  0
 29 30  2  0  0  0  0
 29 31  1  0  0  0  0
 30 32  1  0  0  0  0
 31 33  2  0  0  0  0
 32 34  2  0  0  0  0
 34 35  1  0  0  0  0
 35 36  1  0  0  0  0
 36 37  2  0  0  0  0
 36 38  1  0  0  0  0
 10 11  1  0  0  0  0
 18 21  1  0  0  0  0
 27 28  1  0  0  0  0
 33 34  1  0  0  0  0
M  END
>  <MolRegNo>
2086450

>  <m>
=

>  <Value>
2400

>  <Unit>
nM

>  <Type>
IC50

>  <pValue>
5.62

>  <Ligand Efficiency>
0

>  <Binding Efficiency>
0

>  <Surface Efficiency>
0

>  <Assay Index>
1015704

>  <Assay Category>


>  <Assay Organism>
Homo sapiens

>  <Target ID>
17045

>  <Target Name>
Cytochrome P450 3A4

>  <Target Organism>
Homo sapiens

>  <Target Description>
Target is a single protein chain

>  <Sequence Accession>
P08684

>  <Reference>
J Med Chem 59 (7), 3063-3078 (2016)

>  <Pubmed ID>
27011159

>  <DOI>
10.1021/acs.jmedchem.5b01712

$$$$
2086452
Actelion Java MolfileCreator 1.0

 40 44  0  0  0  0  0  0  0  0999 V2000
    0.0000   -0.0000   -0.0000 F   0  0  0  0  0  0  0  0  0  0  0  0
   -1.0747    0.6279   -0.0000 C   0  0  0  0  0  0  0  0  0  0  0  0
   -1.0868    1.8717   -0.0000 F   0  0  0  0  0  0  0  0  0  0  0  0
   -0.0242    1.2558   -0.0000 F   0  0  0  0  0  0  0  0  0  0  0  0
   -2.4151   -0.1208   -0.0000 C   0  0  0  0  0  0  0  0  0  0  0  0
   -2.4272   -1.6423   -0.0000 C   0  0  0  0  0  0  0  0  0  0  0  0
   -3.7555    0.6521   -0.0000 C   0  0  0  0  0  0  0  0  0  0  0  0
   -3.7675   -2.3909   -0.0000 C   0  0  0  0  0  0  0  0  0  0  0  0
   -1.1109   -2.4030   -0.0000 C   0  0  0  0  0  0  0  0  0  0  0  0
   -5.0958   -0.0966   -0.0000 C   0  0  0  0  0  0  0  0  0  0  0  0
   -5.1079   -1.6181   -0.0000 C   0  0  0  0  0  0  0  0  0  0  0  0
   -1.1230   -3.9245   -0.0000 N   0  0  0  0  0  0  0  0  0  0  0  0
   -6.4362    0.6762   -0.0000 N   0  0  0  0  0  0  0  0  0  0  0  0
    0.1932   -4.6853   -0.0000 C   0  0  0  0  0  0  0  0  0  0  0  0
   -2.4634   -4.6732   -0.0000 C   0  0  0  0  0  0  0  0  0  0  0  0
   -7.7766   -0.0845   -0.0000 C   0  0  0  0  0  0  0  0  0  0  0  0
    0.1811   -6.2068   -0.0000 C   0  0  0  0  0  0  0  0  0  0  0  0
   -2.4755   -6.1947   -0.0000 C   0  0  0  0  0  0  0  0  0  0  0  0
   -7.7887   -1.3042   -0.0000 O   0  0  0  0  0  0  0  0  0  0  0  0
   -9.1170    0.6883   -0.0000 C   0  0  0  0  0  0  0  0  0  0  0  0
   -1.1592   -6.9555   -0.0000 N   0  0  0  0  0  0  0  0  0  0  0  0
  -10.4574   -0.0725   -0.0000 N   0  0  0  0  0  0  0  0  0  0  0  0
  -11.7977    0.7004   -0.0000 C   0  0  0  0  0  0  0  0  0  0  0  0
  -13.1381   -0.0483   -0.0000 C   0  0  0  0  0  0  0  0  0  0  0  0
  -11.8098    2.2460   -0.0000 C   0  0  0  0  0  0  0  0  0  0  0  0
  -14.4785    0.7245   -0.0000 C   0  0  0  0  0  0  0  0  0  0  0  0
  -13.1502    3.0189   -0.0000 C   0  0  0  0  0  0  0  0  0  0  0  0
  -14.4906    2.2702   -0.0000 C   0  0  0  0  0  0  0  0  0  0  0  0
  -15.8309    3.0430   -0.0000 C   0  0  0  0  0  0  0  0  0  0  0  0
  -15.8430    4.5887   -0.0000 C   0  0  0  0  0  0  0  0  0  0  0  0
  -17.1713    2.2943   -0.0000 C   0  0  0  0  0  0  0  0  0  0  0  0
  -17.1834    5.3736   -0.0000 N   0  0  0  0  0  0  0  0  0  0  0  0
  -18.5117    3.0792   -0.0000 C   0  0  0  0  0  0  0  0  0  0  0  0
  -18.5238    4.6249   -0.0000 C   0  0  0  0  0  0  0  0  0  0  0  0
  -19.8642    5.4098   -0.0000 N   0  0  0  0  0  0  0  0  0  0  0  0
  -19.8762    6.9555   -0.0000 C   0  0  0  0  0  0  0  0  0  0  0  0
  -18.8257    7.5713   -0.0000 O   0  0  0  0  0  0  0  0  0  0  0  0
  -21.2166    7.7404   -0.0000 C   0  0  0  0  0  0  0  0  0  0  0  0
  -21.9170    9.0325   -0.0000 C   0  0  0  0  0  0  0  0  0  0  0  0
  -22.6777    7.7042   -0.0000 C   0  0  0  0  0  0  0  0  0  0  0  0
  1  2  1  0  0  0  0
  2  3  1  0  0  0  0
  2  4  1  0  0  0  0
  2  5  1  0  0  0  0
  5  6  2  0  0  0  0
  5  7  1  0  0  0  0
  6  8  1  0  0  0  0
  6  9  1  0  0  0  0
  7 10  2  0  0  0  0
  8 11  2  0  0  0  0
  9 12  1  0  0  0  0
 10 13  1  0  0  0  0
 12 14  1  0  0  0  0
 12 15  1  0  0  0  0
 13 16  1  0  0  0  0
 14 17  1  0  0  0  0
 15 18  1  0  0  0  0
 16 19  2  0  0  0  0
 16 20  1  0  0  0  0
 17 21  1  0  0  0  0
 20 22  1  0  0  0  0
 22 23  1  0  0  0  0
 23 24  2  0  0  0  0
 23 25  1  0  0  0  0
 24 26  1  0  0  0  0
 25 27  2  0  0  0  0
 26 28  2  0  0  0  0
 28 29  1  0  0  0  0
 29 30  2  0  0  0  0
 29 31  1  0  0  0  0
 30 32  1  0  0  0  0
 31 33  2  0  0  0  0
 32 34  2  0  0  0  0
 34 35  1  0  0  0  0
 35 36  1  0  0  0  0
 36 37  2  0  0  0  0
 36 38  1  0  0  0  0
 38 39  1  0  0  0  0
 38 40  1  0  0  0  0
 10 11  1  0  0  0  0
 18 21  1  0  0  0  0
 27 28  1  0  0  0  0
 33 34  1  0  0  0  0
 39 40  1  0  0  0  0
M  END
>  <MolRegNo>
2086452

>  <m>
=

>  <Value>
1100

>  <Unit>
nM

>  <Type>
IC50

>  <pValue>
5.96

>  <Ligand Efficiency>
0

>  <Binding Efficiency>
0

>  <Surface Efficiency>
0

>  <Assay Index>
1015704

>  <Assay Category>


>  <Assay Organism>
Homo sapiens

>  <Target ID>
17045

>  <Target Name>
Cytochrome P450 3A4

>  <Target Organism>
Homo sapiens

>  <Target Description>
Target is a single protein chain

>  <Sequence Accession>
P08684

>  <Reference>
J Med Chem 59 (7), 3063-3078 (2016)

>  <Pubmed ID>
27011159

>  <DOI>
10.1021/acs.jmedchem.5b01712

$$$$
2088194
Actelion Java MolfileCreator 1.0

 31 34  0  0  0  0  0  0  0  0999 V2000
    0.0000   -0.0000   -0.0000 S   0  0  0  0  0  0  0  0  0  0  0  0
    0.7723    1.3608   -0.0000 C   0  0  0  0  0  0  0  0  0  0  0  0
    1.0298   -1.1401   -0.0000 C   0  0  0  0  0  0  0  0  0  0  0  0
    2.2802    1.0543   -0.0000 N   0  0  0  0  0  0  0  0  0  0  0  0
    2.4151   -0.4781   -0.0000 C   0  0  0  0  0  0  0  0  0  0  0  0
    3.7513   -1.2382   -0.0000 C   0  0  0  0  0  0  0  0  0  0  0  0
    3.7390   -2.4764   -0.0000 O   0  0  0  0  0  0  0  0  0  0  0  0
    5.0876   -0.4413   -0.0000 N   0  0  0  0  0  0  0  0  0  0  0  0
    6.4238   -1.2014   -0.0000 C   0  0  0  0  0  0  0  0  0  0  0  0
    7.7601   -0.4168   -0.0000 C   0  0  0  0  0  0  0  0  0  0  0  0
    6.4115   -2.7461   -0.0000 C   0  0  0  0  0  0  0  0  0  0  0  0
    9.0963   -1.1891   -0.0000 C   0  0  0  0  0  0  0  0  0  0  0  0
    7.7478   -3.5184   -0.0000 C   0  0  0  0  0  0  0  0  0  0  0  0
   10.1629   -0.5517   -0.0000 O   0  0  0  0  0  0  0  0  0  0  0  0
    9.0840   -2.7338   -0.0000 N   0  0  0  0  0  0  0  0  0  0  0  0
   10.4203   -3.5061   -0.0000 C   0  0  0  0  0  0  0  0  0  0  0  0
   11.8178   -2.8564   -0.0000 N   0  0  0  0  0  0  0  0  0  0  0  0
   10.5429   -5.0263   -0.0000 C   0  0  0  0  0  0  0  0  0  0  0  0
   12.8476   -4.0087   -0.0000 C   0  0  0  0  0  0  0  0  0  0  0  0
   12.0508   -5.3450   -0.0000 N   0  0  0  0  0  0  0  0  0  0  0  0
   12.6637   -6.7548   -0.0000 C   0  0  0  0  0  0  0  0  0  0  0  0
   11.7320   -8.0052   -0.0000 C   0  0  0  0  0  0  0  0  0  0  0  0
   12.3450   -9.4150   -0.0000 C   0  0  0  0  0  0  0  0  0  0  0  0
   10.1751   -7.8214   -0.0000 C   0  0  0  0  0  0  0  0  0  0  0  0
   11.4133  -10.6532   -0.0000 C   0  0  0  0  0  0  0  0  0  0  0  0
    9.2434   -9.0595   -0.0000 C   0  0  0  0  0  0  0  0  0  0  0  0
    9.8564  -10.4693   -0.0000 C   0  0  0  0  0  0  0  0  0  0  0  0
   12.0262  -12.0630   -0.0000 C   0  0  0  0  0  0  0  0  0  0  0  0
   13.2522  -12.1856   -0.0000 F   0  0  0  0  0  0  0  0  0  0  0  0
   11.2784  -13.0560   -0.0000 F   0  0  0  0  0  0  0  0  0  0  0  0
   12.5166  -13.1909   -0.0000 F   0  0  0  0  0  0  0  0  0  0  0  0
  1  2  1  0  0  0  0
  1  3  1  0  0  0  0
  2  4  2  0  0  0  0
  3  5  2  0  0  0  0
  5  6  1  0  0  0  0
  6  7  2  0  0  0  0
  6  8  1  0  0  0  0
  8  9  1  0  0  0  0
  9 10  2  0  0  0  0
  9 11  1  0  0  0  0
 10 12  1  0  0  0  0
 11 13  2  0  0  0  0
 12 14  2  0  0  0  0
 12 15  1  0  0  0  0
 15 16  1  0  0  0  0
 16 17  1  0  0  0  0
 16 18  2  0  0  0  0
 17 19  2  0  0  0  0
 18 20  1  0  0  0  0
 20 21  1  0  0  0  0
 21 22  1  0  0  0  0
 22 23  2  0  0  0  0
 22 24  1  0  0  0  0
 23 25  1  0  0  0  0
 24 26  2  0  0  0  0
 25 27  2  0  0  0  0
 25 28  1  0  0  0  0
 28 29  1  0  0  0  0
 28 30  1  0  0  0  0
 28 31  1  0  0  0  0
  4  5  1  0  0  0  0
 13 15  1  0  0  0  0
 19 20  1  0  0  0  0
 26 27  1  0  0  0  0
M  END
>  <MolRegNo>
2088194

>  <m>
=

>  <Value>
1900

>  <Unit>
nM

>  <Type>
IC50

>  <pValue>
5.72

>  <Ligand Efficiency>
0

>  <Binding Efficiency>
0

>  <Surface Efficiency>
0

>  <Assay Index>
1019316

>  <Assay Category>


>  <Assay Organism>
Homo sapiens

>  <Target ID>
17045

>  <Target Name>
Cytochrome P450 3A4

>  <Target Organism>
Homo sapiens

>  <Target Description>
Target is a single protein chain

>  <Sequence Accession>
P08684

>  <Reference>
ACS Med Chem Lett 7 (5), 525-530 (2016)

>  <Pubmed ID>
27190604

>  <DOI>
10.1021/acsmedchemlett.6b00064

$$$$
2088885
Actelion Java MolfileCreator 1.0

 33 35  0  0  0  0  0  0  0  0999 V2000
    0.0000   -0.0000   -0.0000 S   0  0  0  0  0  0  0  0  0  0  0  0
   -1.5289    0.3276   -0.0000 C   0  0  0  0  0  0  0  0  0  0  0  0
    0.4732   -1.4561   -0.0000 C   0  0  0  0  0  0  0  0  0  0  0  0
   -2.0264    1.8080   -0.0000 C   0  0  0  0  0  0  0  0  0  0  0  0
    1.9779   -1.7595   -0.0000 C   0  0  0  0  0  0  0  0  0  0  0  0
   -1.0071    2.9729   -0.0000 N   0  0  0  0  0  0  0  0  0  0  0  0
   -3.5553    2.1356   -0.0000 C   0  0  0  0  0  0  0  0  0  0  0  0
    2.4511   -3.2156   -0.0000 C   0  0  0  0  0  0  0  0  0  0  0  0
   -1.5046    4.4532   -0.0000 C   0  0  0  0  0  0  0  0  0  0  0  0
   -4.0528    3.6160   -0.0000 C   0  0  0  0  0  0  0  0  0  0  0  0
    1.6138   -4.1256   -0.0000 O   0  0  0  0  0  0  0  0  0  0  0  0
    3.9557   -3.5189   -0.0000 N   0  0  0  0  0  0  0  0  0  0  0  0
   -2.5239    4.6717   -0.0000 O   0  0  0  0  0  0  0  0  0  0  0  0
   -0.4854    5.6181   -0.0000 O   0  0  0  0  0  0  0  0  0  0  0  0
   -5.5332    4.1014   -0.0000 C   0  0  0  0  0  0  0  0  0  0  0  0
   -3.1670    4.8901   -0.0000 C   0  0  0  0  0  0  0  0  0  0  0  0
    4.4290   -4.9750   -0.0000 C   0  0  0  0  0  0  0  0  0  0  0  0
   -0.9829    7.0985   -0.0000 C   0  0  0  0  0  0  0  0  0  0  0  0
   -5.5453    5.6545   -0.0000 C   0  0  0  0  0  0  0  0  0  0  0  0
   -6.8801    3.3248   -0.0000 C   0  0  0  0  0  0  0  0  0  0  0  0
   -4.0771    6.1278   -0.0000 N   0  0  0  0  0  0  0  0  0  0  0  0
    5.9336   -5.2784   -0.0000 C   0  0  0  0  0  0  0  0  0  0  0  0
   -0.1699    8.0328   -0.0000 C   0  0  0  0  0  0  0  0  0  0  0  0
   -2.2084    7.3533   -0.0000 C   0  0  0  0  0  0  0  0  0  0  0  0
   -1.3833    8.2876   -0.0000 C   0  0  0  0  0  0  0  0  0  0  0  0
   -6.8922    6.4554   -0.0000 C   0  0  0  0  0  0  0  0  0  0  0  0
   -8.2512    4.1256   -0.0000 C   0  0  0  0  0  0  0  0  0  0  0  0
    6.4068   -6.7345   -0.0000 C   0  0  0  0  0  0  0  0  0  0  0  0
    6.9529   -4.1135   -0.0000 C   0  0  0  0  0  0  0  0  0  0  0  0
   -8.2634    5.6788   -0.0000 C   0  0  0  0  0  0  0  0  0  0  0  0
    7.9115   -7.0378   -0.0000 N   0  0  0  0  0  0  0  0  0  0  0  0
    8.4575   -4.4168   -0.0000 C   0  0  0  0  0  0  0  0  0  0  0  0
    8.9308   -5.8729   -0.0000 C   0  0  0  0  0  0  0  0  0  0  0  0
  1  2  1  0  0  0  0
  1  3  1  0  0  0  0
  2  4  1  0  0  0  0
  3  5  1  0  0  0  0
  4  6  1  6  0  0  0
  4  7  1  0  0  0  0
  5  8  1  0  0  0  0
  6  9  1  0  0  0  0
  7 10  1  0  0  0  0
  8 11  2  0  0  0  0
  8 12  1  0  0  0  0
  9 13  2  0  0  0  0
  9 14  1  0  0  0  0
 10 15  1  0  0  0  0
 10 16  2  0  0  0  0
 12 17  1  0  0  0  0
 14 18  1  0  0  0  0
 15 19  2  0  0  0  0
 15 20  1  0  0  0  0
 16 21  1  0  0  0  0
 17 22  1  0  0  0  0
 18 23  1  0  0  0  0
 18 24  1  0  0  0  0
 18 25  1  0  0  0  0
 19 26  1  0  0  0  0
 20 27  2  0  0  0  0
 22 28  2  0  0  0  0
 22 29  1  0  0  0  0
 26 30  2  0  0  0  0
 28 31  1  0  0  0  0
 29 32  2  0  0  0  0
 31 33  2  0  0  0  0
 19 21  1  0  0  0  0
 27 30  1  0  0  0  0
 32 33  1  0  0  0  0
M  END
>  <MolRegNo>
2088885

>  <m>
=

>  <Value>
210

>  <Unit>
nM

>  <Type>
IC50

>  <pValue>
6.68

>  <Ligand Efficiency>
0

>  <Binding Efficiency>
0

>  <Surface Efficiency>
0

>  <Assay Index>
1019853

>  <Assay Category>


>  <Assay Organism>
Homo sapiens

>  <Target ID>
17045

>  <Target Name>
Cytochrome P450 3A4

>  <Target Organism>
Homo sapiens

>  <Target Description>
Target is a single protein chain

>  <Sequence Accession>
P08684

>  <Reference>
J Med Chem 59 (9), 4210-4220 (2016)

>  <Pubmed ID>
26371436

>  <DOI>
10.1021/acs.jmedchem.5b01146

$$$$
2088884
Actelion Java MolfileCreator 1.0

 30 31  0  0  0  0  0  0  0  0999 V2000
    0.0000   -0.0000   -0.0000 S   0  0  0  0  0  0  0  0  0  0  0  0
   -1.3565   -0.7699   -0.0000 C   0  0  0  0  0  0  0  0  0  0  0  0
   -0.0122    1.5642   -0.0000 C   0  0  0  0  0  0  0  0  0  0  0  0
   -1.3687   -2.3097   -0.0000 C   0  0  0  0  0  0  0  0  0  0  0  0
    1.3198    2.3586   -0.0000 C   0  0  0  0  0  0  0  0  0  0  0  0
   -0.0367   -3.0796   -0.0000 N   0  0  0  0  0  0  0  0  0  0  0  0
   -2.7252   -3.0796   -0.0000 C   0  0  0  0  0  0  0  0  0  0  0  0
    1.3076    3.9228   -0.0000 C   0  0  0  0  0  0  0  0  0  0  0  0
    1.2954   -2.2975   -0.0000 C   0  0  0  0  0  0  0  0  0  0  0  0
   -2.7374   -4.6194   -0.0000 C   0  0  0  0  0  0  0  0  0  0  0  0
    0.2200    4.5583   -0.0000 O   0  0  0  0  0  0  0  0  0  0  0  0
    2.6396    4.7171   -0.0000 N   0  0  0  0  0  0  0  0  0  0  0  0
    1.2832   -1.0387   -0.0000 O   0  0  0  0  0  0  0  0  0  0  0  0
    2.6274   -3.0674   -0.0000 O   0  0  0  0  0  0  0  0  0  0  0  0
   -4.0939   -5.3893   -0.0000 C   0  0  0  0  0  0  0  0  0  0  0  0
   -1.4054   -5.3770   -0.0000 C   0  0  0  0  0  0  0  0  0  0  0  0
    2.6274    6.2814   -0.0000 C   0  0  0  0  0  0  0  0  0  0  0  0
    3.9595   -2.2852   -0.0000 C   0  0  0  0  0  0  0  0  0  0  0  0
   -4.1061   -6.9290   -0.0000 C   0  0  0  0  0  0  0  0  0  0  0  0
   -1.4176   -6.9168   -0.0000 C   0  0  0  0  0  0  0  0  0  0  0  0
    3.9595    7.0757   -0.0000 C   0  0  0  0  0  0  0  0  0  0  0  0
    5.0226   -2.8963   -0.0000 C   0  0  0  0  0  0  0  0  0  0  0  0
    3.9472   -1.0265   -0.0000 C   0  0  0  0  0  0  0  0  0  0  0  0
    5.0226   -1.6498   -0.0000 C   0  0  0  0  0  0  0  0  0  0  0  0
   -2.7741   -7.6867   -0.0000 C   0  0  0  0  0  0  0  0  0  0  0  0
    3.9472    8.6399   -0.0000 C   0  0  0  0  0  0  0  0  0  0  0  0
    5.2915    6.3180   -0.0000 C   0  0  0  0  0  0  0  0  0  0  0  0
    5.2793    9.4220   -0.0000 N   0  0  0  0  0  0  0  0  0  0  0  0
    6.6235    7.1001   -0.0000 C   0  0  0  0  0  0  0  0  0  0  0  0
    6.6113    8.6644   -0.0000 C   0  0  0  0  0  0  0  0  0  0  0  0
  1  2  1  0  0  0  0
  1  3  1  0  0  0  0
  2  4  1  0  0  0  0
  3  5  1  0  0  0  0
  4  6  1  1  0  0  0
  4  7  1  0  0  0  0
  5  8  1  0  0  0  0
  6  9  1  0  0  0  0
  7 10  1  0  0  0  0
  8 11  2  0  0  0  0
  8 12  1  0  0  0  0
  9 13  2  0  0  0  0
  9 14  1  0  0  0  0
 10 15  2  0  0  0  0
 10 16  1  0  0  0  0
 12 17  1  0  0  0  0
 14 18  1  0  0  0  0
 15 19  1  0  0  0  0
 16 20  2  0  0  0  0
 17 21  1  0  0  0  0
 18 22  1  0  0  0  0
 18 23  1  0  0  0  0
 18 24  1  0  0  0  0
 19 25  2  0  0  0  0
 21 26  2  0  0  0  0
 21 27  1  0  0  0  0
 26 28  1  0  0  0  0
 27 29  2  0  0  0  0
 28 30  2  0  0  0  0
 20 25  1  0  0  0  0
 29 30  1  0  0  0  0
M  END
>  <MolRegNo>
2088884

>  <m>
=

>  <Value>
520

>  <Unit>
nM

>  <Type>
IC50

>  <pValue>
6.28

>  <Ligand Efficiency>
0

>  <Binding Efficiency>
0

>  <Surface Efficiency>
0

>  <Assay Index>
1019853

>  <Assay Category>


>  <Assay Organism>
Homo sapiens

>  <Target ID>
17045

>  <Target Name>
Cytochrome P450 3A4

>  <Target Organism>
Homo sapiens

>  <Target Description>
Target is a single protein chain

>  <Sequence Accession>
P08684

>  <Reference>
J Med Chem 59 (9), 4210-4220 (2016)

>  <Pubmed ID>
26371436

>  <DOI>
10.1021/acs.jmedchem.5b01146

$$$$
2088883
Actelion Java MolfileCreator 1.0

 30 31  0  0  0  0  0  0  0  0999 V2000
    0.0000   -0.0000   -0.0000 S   0  0  0  0  0  0  0  0  0  0  0  0
   -1.3565   -0.7699   -0.0000 C   0  0  0  0  0  0  0  0  0  0  0  0
   -0.0122    1.5642   -0.0000 C   0  0  0  0  0  0  0  0  0  0  0  0
   -1.3687   -2.3097   -0.0000 C   0  0  0  0  0  0  0  0  0  0  0  0
    1.3198    2.3586   -0.0000 C   0  0  0  0  0  0  0  0  0  0  0  0
   -0.0367   -3.0796   -0.0000 N   0  0  0  0  0  0  0  0  0  0  0  0
   -2.7252   -3.0796   -0.0000 C   0  0  0  0  0  0  0  0  0  0  0  0
    1.3076    3.9228   -0.0000 C   0  0  0  0  0  0  0  0  0  0  0  0
    1.2954   -2.2975   -0.0000 C   0  0  0  0  0  0  0  0  0  0  0  0
   -2.7374   -4.6194   -0.0000 C   0  0  0  0  0  0  0  0  0  0  0  0
    0.2200    4.5583   -0.0000 O   0  0  0  0  0  0  0  0  0  0  0  0
    2.6396    4.7171   -0.0000 N   0  0  0  0  0  0  0  0  0  0  0  0
    1.2832   -1.0387   -0.0000 O   0  0  0  0  0  0  0  0  0  0  0  0
    2.6274   -3.0674   -0.0000 O   0  0  0  0  0  0  0  0  0  0  0  0
   -4.0939   -5.3893   -0.0000 C   0  0  0  0  0  0  0  0  0  0  0  0
   -1.4054   -5.3770   -0.0000 C   0  0  0  0  0  0  0  0  0  0  0  0
    2.6274    6.2814   -0.0000 C   0  0  0  0  0  0  0  0  0  0  0  0
    3.9595   -2.2852   -0.0000 C   0  0  0  0  0  0  0  0  0  0  0  0
   -4.1061   -6.9290   -0.0000 C   0  0  0  0  0  0  0  0  0  0  0  0
   -1.4176   -6.9168   -0.0000 C   0  0  0  0  0  0  0  0  0  0  0  0
    3.9595    7.0757   -0.0000 C   0  0  0  0  0  0  0  0  0  0  0  0
    5.0226   -2.8963   -0.0000 C   0  0  0  0  0  0  0  0  0  0  0  0
    3.9472   -1.0265   -0.0000 C   0  0  0  0  0  0  0  0  0  0  0  0
    5.0226   -1.6498   -0.0000 C   0  0  0  0  0  0  0  0  0  0  0  0
   -2.7741   -7.6867   -0.0000 C   0  0  0  0  0  0  0  0  0  0  0  0
    3.9472    8.6399   -0.0000 C   0  0  0  0  0  0  0  0  0  0  0  0
    5.2915    6.3180   -0.0000 C   0  0  0  0  0  0  0  0  0  0  0  0
    5.2793    9.4220   -0.0000 N   0  0  0  0  0  0  0  0  0  0  0  0
    6.6235    7.1001   -0.0000 C   0  0  0  0  0  0  0  0  0  0  0  0
    6.6113    8.6644   -0.0000 C   0  0  0  0  0  0  0  0  0  0  0  0
  1  2  1  0  0  0  0
  1  3  1  0  0  0  0
  2  4  1  0  0  0  0
  3  5  1  0  0  0  0
  4  6  1  1  0  0  0
  4  7  1  0  0  0  0
  5  8  1  0  0  0  0
  6  9  1  0  0  0  0
  7 10  1  0  0  0  0
  8 11  2  0  0  0  0
  8 12  1  0  0  0  0
  9 13  2  0  0  0  0
  9 14  1  0  0  0  0
 10 15  1  0  0  0  0
 10 16  1  0  0  0  0
 12 17  1  0  0  0  0
 14 18  1  0  0  0  0
 15 19  1  0  0  0  0
 16 20  1  0  0  0  0
 17 21  1  0  0  0  0
 18 22  1  0  0  0  0
 18 23  1  0  0  0  0
 18 24  1  0  0  0  0
 19 25  1  0  0  0  0
 21 26  2  0  0  0  0
 21 27  1  0  0  0  0
 26 28  1  0  0  0  0
 27 29  2  0  0  0  0
 28 30  2  0  0  0  0
 20 25  1  0  0  0  0
 29 30  1  0  0  0  0
M  END
>  <MolRegNo>
2088883

>  <m>
=

>  <Value>
30000

>  <Unit>
nM

>  <Type>
IC50

>  <pValue>
4.52

>  <Ligand Efficiency>
0

>  <Binding Efficiency>
0

>  <Surface Efficiency>
0

>  <Assay Index>
1019853

>  <Assay Category>


>  <Assay Organism>
Homo sapiens

>  <Target ID>
17045

>  <Target Name>
Cytochrome P450 3A4

>  <Target Organism>
Homo sapiens

>  <Target Description>
Target is a single protein chain

>  <Sequence Accession>
P08684

>  <Reference>
J Med Chem 59 (9), 4210-4220 (2016)

>  <Pubmed ID>
26371436

>  <DOI>
10.1021/acs.jmedchem.5b01146

$$$$
2088882
Actelion Java MolfileCreator 1.0

 16 16  0  0  0  0  0  0  0  0999 V2000
    0.0000   -0.0000   -0.0000 O   0  0  0  0  0  0  0  0  0  0  0  0
    1.0561   -0.6069   -0.0000 C   0  0  0  0  0  0  0  0  0  0  0  0
    2.3792    0.1821   -0.0000 N   0  0  0  0  0  0  0  0  0  0  0  0
    1.0439   -2.1364   -0.0000 C   0  0  0  0  0  0  0  0  0  0  0  0
    2.3671    1.7358   -0.0000 C   0  0  0  0  0  0  0  0  0  0  0  0
   -0.3035   -2.9012   -0.0000 C   0  0  0  0  0  0  0  0  0  0  0  0
    3.6902    2.5249   -0.0000 C   0  0  0  0  0  0  0  0  0  0  0  0
   -0.3156   -4.4307   -0.0000 C   0  0  0  0  0  0  0  0  0  0  0  0
    3.6781    4.0786   -0.0000 C   0  0  0  0  0  0  0  0  0  0  0  0
    5.0133    1.7723   -0.0000 C   0  0  0  0  0  0  0  0  0  0  0  0
   -1.6630   -5.1954   -0.0000 C   0  0  0  0  0  0  0  0  0  0  0  0
    5.0012    4.8555   -0.0000 N   0  0  0  0  0  0  0  0  0  0  0  0
    6.3364    2.5491   -0.0000 C   0  0  0  0  0  0  0  0  0  0  0  0
   -1.6752   -6.7249   -0.0000 C   0  0  0  0  0  0  0  0  0  0  0  0
    6.3243    4.1029   -0.0000 C   0  0  0  0  0  0  0  0  0  0  0  0
   -2.7555   -7.3318   -0.0000 N   0  0  0  0  0  0  0  0  0  0  0  0
  1  2  2  0  0  0  0
  2  3  1  0  0  0  0
  2  4  1  0  0  0  0
  3  5  1  0  0  0  0
  4  6  1  0  0  0  0
  5  7  1  0  0  0  0
  6  8  1  0  0  0  0
  7  9  2  0  0  0  0
  7 10  1  0  0  0  0
  8 11  1  0  0  0  0
  9 12  1  0  0  0  0
 10 13  2  0  0  0  0
 11 14  1  0  0  0  0
 12 15  2  0  0  0  0
 14 16  1  0  0  0  0
 13 15  1  0  0  0  0
M  END
>  <MolRegNo>
2088882

>  <m>
=

>  <Value>
1.0e6

>  <Unit>
nM

>  <Type>
IC50

>  <pValue>
0

>  <Ligand Efficiency>
0

>  <Binding Efficiency>
0

>  <Surface Efficiency>
0

>  <Assay Index>
1019853

>  <Assay Category>


>  <Assay Organism>
Homo sapiens

>  <Target ID>
17045

>  <Target Name>
Cytochrome P450 3A4

>  <Target Organism>
Homo sapiens

>  <Target Description>
Target is a single protein chain

>  <Sequence Accession>
P08684

>  <Reference>
J Med Chem 59 (9), 4210-4220 (2016)

>  <Pubmed ID>
26371436

>  <DOI>
10.1021/acs.jmedchem.5b01146

$$$$
2088881
Actelion Java MolfileCreator 1.0

 23 23  0  0  0  0  0  0  0  0999 V2000
    0.0000   -0.0000   -0.0000 O   0  0  0  0  0  0  0  0  0  0  0  0
   -1.0976    0.6413   -0.0000 C   0  0  0  0  0  0  0  0  0  0  0  0
   -2.4666   -0.1357   -0.0000 O   0  0  0  0  0  0  0  0  0  0  0  0
   -1.1100    2.2199   -0.0000 N   0  0  0  0  0  0  0  0  0  0  0  0
   -2.4789   -1.6896   -0.0000 C   0  0  0  0  0  0  0  0  0  0  0  0
    0.2343    3.0216   -0.0000 C   0  0  0  0  0  0  0  0  0  0  0  0
   -3.5765   -2.3063   -0.0000 C   0  0  0  0  0  0  0  0  0  0  0  0
   -1.4059   -2.3063   -0.0000 C   0  0  0  0  0  0  0  0  0  0  0  0
   -2.4912   -2.9352   -0.0000 C   0  0  0  0  0  0  0  0  0  0  0  0
    0.2220    4.6002   -0.0000 C   0  0  0  0  0  0  0  0  0  0  0  0
    1.5663    5.4018   -0.0000 C   0  0  0  0  0  0  0  0  0  0  0  0
    1.5539    6.9804   -0.0000 C   0  0  0  0  0  0  0  0  0  0  0  0
    2.8982    7.7821   -0.0000 C   0  0  0  0  0  0  0  0  0  0  0  0
    2.8859    9.3607   -0.0000 C   0  0  0  0  0  0  0  0  0  0  0  0
    1.7883   10.0020   -0.0000 O   0  0  0  0  0  0  0  0  0  0  0  0
    4.2302   10.1623   -0.0000 N   0  0  0  0  0  0  0  0  0  0  0  0
    4.2178   11.7409   -0.0000 C   0  0  0  0  0  0  0  0  0  0  0  0
    5.5621   12.5426   -0.0000 C   0  0  0  0  0  0  0  0  0  0  0  0
    5.5498   14.1212   -0.0000 C   0  0  0  0  0  0  0  0  0  0  0  0
    6.9064   11.7779   -0.0000 C   0  0  0  0  0  0  0  0  0  0  0  0
    6.8941   14.9105   -0.0000 N   0  0  0  0  0  0  0  0  0  0  0  0
    8.2507   12.5672   -0.0000 C   0  0  0  0  0  0  0  0  0  0  0  0
    8.2384   14.1458   -0.0000 C   0  0  0  0  0  0  0  0  0  0  0  0
  1  2  2  0  0  0  0
  2  3  1  0  0  0  0
  2  4  1  0  0  0  0
  3  5  1  0  0  0  0
  4  6  1  0  0  0  0
  5  7  1  0  0  0  0
  5  8  1  0  0  0  0
  5  9  1  0  0  0  0
  6 10  1  0  0  0  0
 10 11  1  0  0  0  0
 11 12  1  0  0  0  0
 12 13  1  0  0  0  0
 13 14  1  0  0  0  0
 14 15  2  0  0  0  0
 14 16  1  0  0  0  0
 16 17  1  0  0  0  0
 17 18  1  0  0  0  0
 18 19  2  0  0  0  0
 18 20  1  0  0  0  0
 19 21  1  0  0  0  0
 20 22  2  0  0  0  0
 21 23  2  0  0  0  0
 22 23  1  0  0  0  0
M  END
>  <MolRegNo>
2088881

>  <m>
=

>  <Value>
75000

>  <Unit>
nM

>  <Type>
IC50

>  <pValue>
4.12

>  <Ligand Efficiency>
0

>  <Binding Efficiency>
0

>  <Surface Efficiency>
0

>  <Assay Index>
1019853

>  <Assay Category>


>  <Assay Organism>
Homo sapiens

>  <Target ID>
17045

>  <Target Name>
Cytochrome P450 3A4

>  <Target Organism>
Homo sapiens

>  <Target Description>
Target is a single protein chain

>  <Sequence Accession>
P08684

>  <Reference>
J Med Chem 59 (9), 4210-4220 (2016)

>  <Pubmed ID>
26371436

>  <DOI>
10.1021/acs.jmedchem.5b01146

$$$$
704986
Actelion Java MolfileCreator 1.0

  9  9  0  0  0  0  0  0  0  0999 V2000
    0.0000   -0.0000   -0.0000 N   0  0  0  0  0  0  0  0  0  0  0  0
    0.7429    1.2971   -0.0000 C   0  0  0  0  0  0  0  0  0  0  0  0
   -1.5093    0.0236   -0.0000 C   0  0  0  0  0  0  0  0  0  0  0  0
    0.0000    2.5941   -0.0000 C   0  0  0  0  0  0  0  0  0  0  0  0
   -2.2522    1.3324   -0.0000 C   0  0  0  0  0  0  0  0  0  0  0  0
   -1.4975    2.6295   -0.0000 C   0  0  0  0  0  0  0  0  0  0  0  0
    0.7429    3.8912   -0.0000 C   0  0  0  0  0  0  0  0  0  0  0  0
    0.0000    5.2001   -0.0000 C   0  0  0  0  0  0  0  0  0  0  0  0
   -1.4975    5.2237   -0.0000 N   0  0  0  0  0  0  0  0  0  0  0  0
  1  2  2  0  0  0  0
  1  3  1  0  0  0  0
  2  4  1  0  0  0  0
  3  5  2  0  0  0  0
  4  6  2  0  0  0  0
  4  7  1  0  0  0  0
  7  8  1  0  0  0  0
  8  9  1  0  0  0  0
  5  6  1  0  0  0  0
M  END
>  <MolRegNo>
704986

>  <m>
=

>  <Value>
5.0e6

>  <Unit>
nM

>  <Type>
IC50

>  <pValue>
0

>  <Ligand Efficiency>
0

>  <Binding Efficiency>
0

>  <Surface Efficiency>
0

>  <Assay Index>
1019853

>  <Assay Category>


>  <Assay Organism>
Homo sapiens

>  <Target ID>
17045

>  <Target Name>
Cytochrome P450 3A4

>  <Target Organism>
Homo sapiens

>  <Target Description>
Target is a single protein chain

>  <Sequence Accession>
P08684

>  <Reference>
J Med Chem 59 (9), 4210-4220 (2016)

>  <Pubmed ID>
26371436

>  <DOI>
10.1021/acs.jmedchem.5b01146

$$$$
13349
Actelion Java MolfileCreator 1.0

  6  6  0  0  0  0  0  0  0  0999 V2000
    0.0000   -0.0000   -0.0000 N   0  0  0  0  0  0  0  0  0  0  0  0
   -1.3050    0.7593   -0.0000 C   0  0  0  0  0  0  0  0  0  0  0  0
   -0.0119   -1.4949   -0.0000 C   0  0  0  0  0  0  0  0  0  0  0  0
   -2.6101    0.0237   -0.0000 C   0  0  0  0  0  0  0  0  0  0  0  0
   -1.3288   -2.2304   -0.0000 C   0  0  0  0  0  0  0  0  0  0  0  0
   -2.6220   -1.4593   -0.0000 C   0  0  0  0  0  0  0  0  0  0  0  0
  1  2  2  0  0  0  0
  1  3  1  0  0  0  0
  2  4  1  0  0  0  0
  3  5  2  0  0  0  0
  4  6  2  0  0  0  0
  5  6  1  0  0  0  0
M  END
>  <MolRegNo>
13349

>  <m>
=

>  <Value>
4.0e6

>  <Unit>
nM

>  <Type>
IC50

>  <pValue>
0

>  <Ligand Efficiency>
0

>  <Binding Efficiency>
0

>  <Surface Efficiency>
0

>  <Assay Index>
1019853

>  <Assay Category>


>  <Assay Organism>
Homo sapiens

>  <Target ID>
17045

>  <Target Name>
Cytochrome P450 3A4

>  <Target Organism>
Homo sapiens

>  <Target Description>
Target is a single protein chain

>  <Sequence Accession>
P08684

>  <Reference>
J Med Chem 59 (9), 4210-4220 (2016)

>  <Pubmed ID>
26371436

>  <DOI>
10.1021/acs.jmedchem.5b01146

$$$$
2089064
Actelion Java MolfileCreator 1.0

 33 35  0  0  0  0  0  0  0  0999 V2000
    0.0000   -0.0000   -0.0000 S   0  0  0  0  0  0  0  0  0  0  0  0
   -0.0125    1.2842   -0.0000 O   0  0  0  0  0  0  0  0  0  0  0  0
    1.0847   -0.6234   -0.0000 O   0  0  0  0  0  0  0  0  0  0  0  0
   -1.3840   -0.7730   -0.0000 C   0  0  0  0  0  0  0  0  0  0  0  0
    1.0847    0.6359   -0.0000 C   0  0  0  0  0  0  0  0  0  0  0  0
   -1.3964   -2.3440   -0.0000 C   0  0  0  0  0  0  0  0  0  0  0  0
   -2.7679    0.0374   -0.0000 C   0  0  0  0  0  0  0  0  0  0  0  0
   -2.7804   -3.1170   -0.0000 C   0  0  0  0  0  0  0  0  0  0  0  0
   -0.0374   -3.1295   -0.0000 C   0  0  0  0  0  0  0  0  0  0  0  0
   -4.1519   -0.7356   -0.0000 C   0  0  0  0  0  0  0  0  0  0  0  0
   -4.1643   -2.3066   -0.0000 C   0  0  0  0  0  0  0  0  0  0  0  0
   -0.0499   -4.3888   -0.0000 O   0  0  0  0  0  0  0  0  0  0  0  0
   -5.5358    0.0748   -0.0000 N   0  0  0  0  0  0  0  0  0  0  0  0
   -5.5483    1.6707   -0.0000 C   0  0  0  0  0  0  0  0  0  0  0  0
   -6.9198   -0.6982   -0.0000 C   0  0  0  0  0  0  0  0  0  0  0  0
   -6.9323    2.4812   -0.0000 C   0  0  0  0  0  0  0  0  0  0  0  0
   -8.3038    0.1122   -0.0000 C   0  0  0  0  0  0  0  0  0  0  0  0
   -8.3162    1.7081   -0.0000 N   0  0  0  0  0  0  0  0  0  0  0  0
   -6.9447    4.0771   -0.0000 C   0  0  0  0  0  0  0  0  0  0  0  0
   -9.7002    2.5061   -0.0000 C   0  0  0  0  0  0  0  0  0  0  0  0
   -8.0544    4.7254   -0.0000 C   0  0  0  0  0  0  0  0  0  0  0  0
   -5.8600    4.7254   -0.0000 C   0  0  0  0  0  0  0  0  0  0  0  0
   -9.7126    4.1020   -0.0000 N   0  0  0  0  0  0  0  0  0  0  0  0
  -11.0841    1.7331   -0.0000 N   0  0  0  0  0  0  0  0  0  0  0  0
  -11.0966    4.9000   -0.0000 C   0  0  0  0  0  0  0  0  0  0  0  0
  -12.4681    2.5310   -0.0000 C   0  0  0  0  0  0  0  0  0  0  0  0
  -12.4806    4.1269   -0.0000 C   0  0  0  0  0  0  0  0  0  0  0  0
  -11.1091    6.4959   -0.0000 C   0  0  0  0  0  0  0  0  0  0  0  0
  -13.8645    4.9249   -0.0000 C   0  0  0  0  0  0  0  0  0  0  0  0
  -10.0243    7.1442   -0.0000 F   0  0  0  0  0  0  0  0  0  0  0  0
  -12.2187    7.1442   -0.0000 F   0  0  0  0  0  0  0  0  0  0  0  0
  -11.1215    7.7801   -0.0000 F   0  0  0  0  0  0  0  0  0  0  0  0
  -14.9742    4.3015   -0.0000 O   0  0  0  0  0  0  0  0  0  0  0  0
  1  2  2  0  0  0  0
  1  3  2  0  0  0  0
  1  4  1  0  0  0  0
  1  5  1  0  0  0  0
  4  6  2  0  0  0  0
  4  7  1  0  0  0  0
  6  8  1  0  0  0  0
  6  9  1  0  0  0  0
  7 10  2  0  0  0  0
  8 11  2  0  0  0  0
  9 12  1  0  0  0  0
 10 13  1  0  0  0  0
 13 14  1  0  0  0  0
 13 15  1  0  0  0  0
 14 16  1  0  0  0  0
 15 17  1  0  0  0  0
 16 18  1  0  0  0  0
 16 19  1  6  0  0  0
 18 20  1  0  0  0  0
 19 21  1  0  0  0  0
 19 22  1  0  0  0  0
 20 23  2  0  0  0  0
 20 24  1  0  0  0  0
 23 25  1  0  0  0  0
 24 26  2  0  0  0  0
 25 27  2  0  0  0  0
 25 28  1  0  0  0  0
 27 29  1  0  0  0  0
 28 30  1  0  0  0  0
 28 31  1  0  0  0  0
 28 32  1  0  0  0  0
 29 33  1  0  0  0  0
 10 11  1  0  0  0  0
 17 18  1  0  0  0  0
 26 27  1  0  0  0  0
M  END
>  <MolRegNo>
2089064

>  <m>
=

>  <Value>
29430

>  <Unit>
nM

>  <Type>
IC50

>  <pValue>
4.53

>  <Ligand Efficiency>
0

>  <Binding Efficiency>
0

>  <Surface Efficiency>
0

>  <Assay Index>
1020872

>  <Assay Category>


>  <Assay Organism>
Homo sapiens

>  <Target ID>
17045

>  <Target Name>
Cytochrome P450 3A4

>  <Target Organism>
Homo sapiens

>  <Target Description>
Target is a single protein chain

>  <Sequence Accession>
P08684

>  <Reference>
J Med Chem 59 (7), 3264-3271 (2016)

>  <Pubmed ID>
26990539

>  <DOI>
10.1021/acs.jmedchem.5b02029

$$$$
2091644
Actelion Java MolfileCreator 1.0

 22 24  0  0  0  0  0  0  0  0999 V2000
    0.0000   -0.0000   -0.0000 S   0  0  0  0  0  0  0  0  0  0  0  0
   -0.0122    1.5652   -0.0000 C   0  0  0  0  0  0  0  0  0  0  0  0
    1.3451   -0.7826   -0.0000 C   0  0  0  0  0  0  0  0  0  0  0  0
    1.3328    2.3722   -0.0000 C   0  0  0  0  0  0  0  0  0  0  0  0
    2.6779   -1.5040   -0.0000 O   0  0  0  0  0  0  0  0  0  0  0  0
   -0.0122   -1.5040   -0.0000 C   0  0  0  0  0  0  0  0  0  0  0  0
    2.6779    0.0245   -0.0000 C   0  0  0  0  0  0  0  0  0  0  0  0
    2.6657    1.5896   -0.0000 N   0  0  0  0  0  0  0  0  0  0  0  0
    1.3206    3.6317   -0.0000 C   0  0  0  0  0  0  0  0  0  0  0  0
    2.7513   -3.0448   -0.0000 C   0  0  0  0  0  0  0  0  0  0  0  0
   -0.0611   -3.0448   -0.0000 C   0  0  0  0  0  0  0  0  0  0  0  0
   -1.3573   -0.6848   -0.0000 C   0  0  0  0  0  0  0  0  0  0  0  0
    4.1330   -0.4402   -0.0000 N   0  0  0  0  0  0  0  0  0  0  0  0
    4.1208    2.0787   -0.0000 C   0  0  0  0  0  0  0  0  0  0  0  0
    3.8396   -3.5950   -0.0000 C   0  0  0  0  0  0  0  0  0  0  0  0
   -1.4307   -3.7784   -0.0000 C   0  0  0  0  0  0  0  0  0  0  0  0
   -2.7268   -1.4184   -0.0000 C   0  0  0  0  0  0  0  0  0  0  0  0
    5.0257    0.8315   -0.0000 O   0  0  0  0  0  0  0  0  0  0  0  0
    4.4876    3.2771   -0.0000 O   0  0  0  0  0  0  0  0  0  0  0  0
   -2.7757   -2.9592   -0.0000 C   0  0  0  0  0  0  0  0  0  0  0  0
   -4.1453   -3.6928   -0.0000 O   0  0  0  0  0  0  0  0  0  0  0  0
   -5.2213   -3.0325   -0.0000 C   0  0  0  0  0  0  0  0  0  0  0  0
  1  2  1  0  0  0  0
  1  3  1  0  0  0  0
  2  4  2  0  0  0  0
  3  5  1  0  0  0  0
  3  6  1  0  0  0  0
  3  7  1  0  0  0  0
  4  8  1  0  0  0  0
  4  9  1  0  0  0  0
  5 10  1  0  0  0  0
  6 11  2  0  0  0  0
  6 12  1  0  0  0  0
  7 13  2  0  0  0  0
  8 14  1  0  0  0  0
 10 15  1  0  0  0  0
 11 16  1  0  0  0  0
 12 17  2  0  0  0  0
 13 18  1  0  0  0  0
 14 19  2  0  0  0  0
 16 20  2  0  0  0  0
 20 21  1  0  0  0  0
 21 22  1  0  0  0  0
  7  8  1  0  0  0  0
 14 18  1  0  0  0  0
 17 20  1  0  0  0  0
M  END
>  <MolRegNo>
2091644

>  <m>
=

>  <Value>
15500

>  <Unit>
nM

>  <Type>
IC50

>  <pValue>
4.81

>  <Ligand Efficiency>
0

>  <Binding Efficiency>
0

>  <Surface Efficiency>
0

>  <Assay Index>
1022808

>  <Assay Category>


>  <Assay Organism>
Homo sapiens

>  <Target ID>
17045

>  <Target Name>
Cytochrome P450 3A4

>  <Target Organism>
Homo sapiens

>  <Target Description>
Target is a single protein chain

>  <Sequence Accession>
P08684

>  <Reference>
J Med Chem 59 (7), 3340-3352 (2016)

>  <Pubmed ID>
26962886

>  <DOI>
10.1021/acs.jmedchem.6b00030

$$$$
2091477
Actelion Java MolfileCreator 1.0

 20 22  0  0  0  0  0  0  0  0999 V2000
    0.0000   -0.0000   -0.0000 S   0  0  0  0  0  0  0  0  0  0  0  0
   -0.0122    1.5565   -0.0000 C   0  0  0  0  0  0  0  0  0  0  0  0
    1.3376   -0.7783   -0.0000 C   0  0  0  0  0  0  0  0  0  0  0  0
    1.3255    2.3591   -0.0000 C   0  0  0  0  0  0  0  0  0  0  0  0
    2.6631   -1.4957   -0.0000 O   0  0  0  0  0  0  0  0  0  0  0  0
   -0.0122   -1.4957   -0.0000 C   0  0  0  0  0  0  0  0  0  0  0  0
    2.6631    0.0243   -0.0000 C   0  0  0  0  0  0  0  0  0  0  0  0
    2.6509    1.5808   -0.0000 N   0  0  0  0  0  0  0  0  0  0  0  0
    1.3133    3.6116   -0.0000 C   0  0  0  0  0  0  0  0  0  0  0  0
    2.7360   -3.0279   -0.0000 C   0  0  0  0  0  0  0  0  0  0  0  0
   -0.0608   -3.0279   -0.0000 C   0  0  0  0  0  0  0  0  0  0  0  0
   -1.3498   -0.6810   -0.0000 C   0  0  0  0  0  0  0  0  0  0  0  0
    4.1101   -0.4378   -0.0000 N   0  0  0  0  0  0  0  0  0  0  0  0
    4.0980    2.0672   -0.0000 C   0  0  0  0  0  0  0  0  0  0  0  0
    3.8183   -3.5751   -0.0000 C   0  0  0  0  0  0  0  0  0  0  0  0
   -1.4227   -3.7575   -0.0000 C   0  0  0  0  0  0  0  0  0  0  0  0
   -2.7117   -1.4106   -0.0000 C   0  0  0  0  0  0  0  0  0  0  0  0
    4.9978    0.8269   -0.0000 O   0  0  0  0  0  0  0  0  0  0  0  0
    4.4628    3.2589   -0.0000 O   0  0  0  0  0  0  0  0  0  0  0  0
   -2.7604   -2.9428   -0.0000 C   0  0  0  0  0  0  0  0  0  0  0  0
  1  2  1  0  0  0  0
  1  3  1  0  0  0  0
  2  4  2  0  0  0  0
  3  5  1  0  0  0  0
  3  6  1  0  0  0  0
  3  7  1  0  0  0  0
  4  8  1  0  0  0  0
  4  9  1  0  0  0  0
  5 10  1  0  0  0  0
  6 11  2  0  0  0  0
  6 12  1  0  0  0  0
  7 13  2  0  0  0  0
  8 14  1  0  0  0  0
 10 15  1  0  0  0  0
 11 16  1  0  0  0  0
 12 17  2  0  0  0  0
 13 18  1  0  0  0  0
 14 19  2  0  0  0  0
 16 20  2  0  0  0  0
  7  8  1  0  0  0  0
 14 18  1  0  0  0  0
 17 20  1  0  0  0  0
M  END
>  <MolRegNo>
2091477

>  <m>
=

>  <Value>
19100

>  <Unit>
nM

>  <Type>
IC50

>  <pValue>
4.72

>  <Ligand Efficiency>
0

>  <Binding Efficiency>
0

>  <Surface Efficiency>
0

>  <Assay Index>
1023015

>  <Assay Category>


>  <Assay Organism>
Homo sapiens

>  <Target ID>
17045

>  <Target Name>
Cytochrome P450 3A4

>  <Target Organism>
Homo sapiens

>  <Target Description>
Target is a single protein chain

>  <Sequence Accession>
P08684

>  <Reference>
J Med Chem 59 (7), 3340-3352 (2016)

>  <Pubmed ID>
26962886

>  <DOI>
10.1021/acs.jmedchem.6b00030

$$$$
356421
Actelion Java MolfileCreator 1.0

 21 23  0  0  0  0  0  0  0  0999 V2000
    0.0000   -0.0000   -0.0000 Br  0  0  0  0  0  0  0  0  0  0  0  0
   -0.7499   -1.2975   -0.0000 C   0  0  0  0  0  0  0  0  0  0  0  0
    0.0000   -2.5831   -0.0000 C   0  0  0  0  0  0  0  0  0  0  0  0
   -2.2736   -1.3094   -0.0000 C   0  0  0  0  0  0  0  0  0  0  0  0
   -0.7499   -3.8806   -0.0000 C   0  0  0  0  0  0  0  0  0  0  0  0
   -3.0235   -2.6069   -0.0000 C   0  0  0  0  0  0  0  0  0  0  0  0
   -2.2736   -3.8806   -0.0000 C   0  0  0  0  0  0  0  0  0  0  0  0
   -3.0235   -5.1781   -0.0000 C   0  0  0  0  0  0  0  0  0  0  0  0
   -4.3329   -4.4044   -0.0000 S   0  0  0  0  0  0  0  0  0  0  0  0
   -1.7379   -5.9161   -0.0000 O   0  0  0  0  0  0  0  0  0  0  0  0
   -3.0354   -6.6780   -0.0000 C   0  0  0  0  0  0  0  0  0  0  0  0
   -5.6424   -5.1543   -0.0000 C   0  0  0  0  0  0  0  0  0  0  0  0
   -0.4404   -5.1543   -0.0000 C   0  0  0  0  0  0  0  0  0  0  0  0
   -1.9403   -7.6779   -0.0000 N   0  0  0  0  0  0  0  0  0  0  0  0
   -4.3448   -7.4160   -0.0000 N   0  0  0  0  0  0  0  0  0  0  0  0
   -5.6543   -6.6542   -0.0000 C   0  0  0  0  0  0  0  0  0  0  0  0
    0.8452   -5.9042   -0.0000 C   0  0  0  0  0  0  0  0  0  0  0  0
   -2.5712   -9.0349   -0.0000 O   0  0  0  0  0  0  0  0  0  0  0  0
   -4.0473   -8.8683   -0.0000 C   0  0  0  0  0  0  0  0  0  0  0  0
   -6.9756   -7.3922   -0.0000 C   0  0  0  0  0  0  0  0  0  0  0  0
   -5.0710   -9.9753   -0.0000 O   0  0  0  0  0  0  0  0  0  0  0  0
  1  2  1  0  0  0  0
  2  3  2  0  0  0  0
  2  4  1  0  0  0  0
  3  5  1  0  0  0  0
  4  6  2  0  0  0  0
  5  7  2  0  0  0  0
  7  8  1  0  0  0  0
  8  9  1  0  0  0  0
  8 10  1  0  0  0  0
  8 11  1  0  0  0  0
  9 12  1  0  0  0  0
 10 13  1  0  0  0  0
 11 14  2  0  0  0  0
 11 15  1  0  0  0  0
 12 16  2  0  0  0  0
 13 17  1  0  0  0  0
 14 18  1  0  0  0  0
 15 19  1  0  0  0  0
 16 20  1  0  0  0  0
 19 21  2  0  0  0  0
  6  7  1  0  0  0  0
 15 16  1  0  0  0  0
 18 19  1  0  0  0  0
M  END
>  <MolRegNo>
356421

>  <m>
=

>  <Value>
19200

>  <Unit>
nM

>  <Type>
IC50

>  <pValue>
4.72

>  <Ligand Efficiency>
0

>  <Binding Efficiency>
0

>  <Surface Efficiency>
0

>  <Assay Index>
1023015

>  <Assay Category>


>  <Assay Organism>
Homo sapiens

>  <Target ID>
17045

>  <Target Name>
Cytochrome P450 3A4

>  <Target Organism>
Homo sapiens

>  <Target Description>
Target is a single protein chain

>  <Sequence Accession>
P08684

>  <Reference>
J Med Chem 59 (7), 3340-3352 (2016)

>  <Pubmed ID>
26962886

>  <DOI>
10.1021/acs.jmedchem.6b00030

$$$$
2092166
Actelion Java MolfileCreator 1.0

 36 41  0  0  0  0  0  0  0  0999 V2000
    0.0000   -0.0000   -0.0000 O   0  0  0  0  0  0  0  0  0  0  0  0
   -1.1737   -0.3234   -0.0000 C   0  0  0  0  0  0  0  0  0  0  0  0
   -2.2876    0.7426   -0.0000 N   0  0  0  0  0  0  0  0  0  0  0  0
   -1.5450   -1.7845   -0.0000 C   0  0  0  0  0  0  0  0  0  0  0  0
   -1.9402    2.2277   -0.0000 C   0  0  0  0  0  0  0  0  0  0  0  0
   -0.4551   -2.8265   -0.0000 C   0  0  0  0  0  0  0  0  0  0  0  0
   -3.0182   -2.1918   -0.0000 C   0  0  0  0  0  0  0  0  0  0  0  0
   -2.3954    3.6050   -0.0000 C   0  0  0  0  0  0  0  0  0  0  0  0
   -0.9222    3.2457   -0.0000 C   0  0  0  0  0  0  0  0  0  0  0  0
   -0.8264   -4.2877   -0.0000 C   0  0  0  0  0  0  0  0  0  0  0  0
    0.7066   -2.4792   -0.0000 C   0  0  0  0  0  0  0  0  0  0  0  0
   -3.3894   -3.6529   -0.0000 C   0  0  0  0  0  0  0  0  0  0  0  0
   -2.2996   -4.6949   -0.0000 C   0  0  0  0  0  0  0  0  0  0  0  0
   -2.7786   -6.1321   -0.0000 C   0  0  0  0  0  0  0  0  0  0  0  0
   -4.2278   -6.5873   -0.0000 C   0  0  0  0  0  0  0  0  0  0  0  0
   -1.9043   -7.3178   -0.0000 C   0  0  0  0  0  0  0  0  0  0  0  0
   -5.5572   -5.7968   -0.0000 N   0  0  0  0  0  0  0  0  0  0  0  0
   -4.2398   -8.0963   -0.0000 N   0  0  0  0  0  0  0  0  0  0  0  0
   -2.8026   -8.5395   -0.0000 N   0  0  0  0  0  0  0  0  0  0  0  0
   -6.8987   -6.5633   -0.0000 C   0  0  0  0  0  0  0  0  0  0  0  0
   -5.5692   -8.8629   -0.0000 C   0  0  0  0  0  0  0  0  0  0  0  0
   -6.9106   -8.0724   -0.0000 N   0  0  0  0  0  0  0  0  0  0  0  0
   -8.2401   -5.7968   -0.0000 N   0  0  0  0  0  0  0  0  0  0  0  0
   -5.5812  -10.3719   -0.0000 N   0  0  0  0  0  0  0  0  0  0  0  0
   -9.5575   -6.5513   -0.0000 C   0  0  0  0  0  0  0  0  0  0  0  0
   -6.9106  -11.1265   -0.0000 C   0  0  0  0  0  0  0  0  0  0  0  0
  -10.9468   -5.9285   -0.0000 C   0  0  0  0  0  0  0  0  0  0  0  0
   -9.6893   -8.0365   -0.0000 C   0  0  0  0  0  0  0  0  0  0  0  0
   -6.9226  -12.6356   -0.0000 C   0  0  0  0  0  0  0  0  0  0  0  0
  -11.9649   -7.0544   -0.0000 C   0  0  0  0  0  0  0  0  0  0  0  0
  -11.1864   -8.3598   -0.0000 C   0  0  0  0  0  0  0  0  0  0  0  0
   -8.2520  -13.3901   -0.0000 C   0  0  0  0  0  0  0  0  0  0  0  0
   -5.6171  -13.3781   -0.0000 C   0  0  0  0  0  0  0  0  0  0  0  0
   -8.2520  -14.8992   -0.0000 C   0  0  0  0  0  0  0  0  0  0  0  0
   -5.6171  -14.8872   -0.0000 C   0  0  0  0  0  0  0  0  0  0  0  0
   -6.9466  -15.6417   -0.0000 O   0  0  0  0  0  0  0  0  0  0  0  0
  1  2  2  0  0  0  0
  2  3  1  0  0  0  0
  2  4  1  0  0  0  0
  3  5  1  0  0  0  0
  4  6  2  0  0  0  0
  4  7  1  0  0  0  0
  5  8  1  0  0  0  0
  5  9  1  0  0  0  0
  6 10  1  0  0  0  0
  6 11  1  0  0  0  0
  7 12  2  0  0  0  0
 10 13  2  0  0  0  0
 13 14  1  0  0  0  0
 14 15  2  0  0  0  0
 14 16  1  0  0  0  0
 15 17  1  0  0  0  0
 15 18  1  0  0  0  0
 16 19  2  0  0  0  0
 17 20  2  0  0  0  0
 18 21  1  0  0  0  0
 20 22  1  0  0  0  0
 20 23  1  0  0  0  0
 21 24  1  0  0  0  0
 23 25  1  0  0  0  0
 24 26  1  0  0  0  0
 25 27  1  0  0  0  0
 25 28  1  0  0  0  0
 26 29  1  0  0  0  0
 27 30  1  0  0  0  0
 28 31  1  0  0  0  0
 29 32  1  0  0  0  0
 29 33  1  0  0  0  0
 32 34  1  0  0  0  0
 33 35  1  0  0  0  0
 34 36  1  0  0  0  0
  8  9  1  0  0  0  0
 12 13  1  0  0  0  0
 18 19  1  0  0  0  0
 21 22  2  0  0  0  0
 30 31  1  0  0  0  0
 35 36  1  0  0  0  0
M  END
>  <MolRegNo>
2092166

>  <m>
=

>  <Value>
19000

>  <Unit>
nM

>  <Type>
IC50

>  <pValue>
4.72

>  <Ligand Efficiency>
0

>  <Binding Efficiency>
0

>  <Surface Efficiency>
0

>  <Assay Index>
1024373

>  <Assay Category>


>  <Assay Organism>
Homo sapiens

>  <Target ID>
17045

>  <Target Name>
Cytochrome P450 3A4

>  <Target Organism>
Homo sapiens

>  <Target Description>
Target is a single protein chain

>  <Sequence Accession>
P08684

>  <Reference>
Bioorg Med Chem Lett 26 (15), 3562-3566 (2016)

>  <Pubmed ID>
27335255

>  <DOI>
10.1016/j.bmcl.2016.06.021

$$$$
2092179
Actelion Java MolfileCreator 1.0

 37 42  0  0  0  0  0  0  0  0999 V2000
    0.0000   -0.0000   -0.0000 O   0  0  0  0  0  0  0  0  0  0  0  0
   -1.1726   -0.3231   -0.0000 C   0  0  0  0  0  0  0  0  0  0  0  0
   -2.2853    0.7418   -0.0000 N   0  0  0  0  0  0  0  0  0  0  0  0
   -1.5435   -1.7828   -0.0000 C   0  0  0  0  0  0  0  0  0  0  0  0
   -1.9383    2.2255   -0.0000 C   0  0  0  0  0  0  0  0  0  0  0  0
   -0.4547   -2.8238   -0.0000 C   0  0  0  0  0  0  0  0  0  0  0  0
   -3.0152   -2.1896   -0.0000 C   0  0  0  0  0  0  0  0  0  0  0  0
   -2.3930    3.6015   -0.0000 C   0  0  0  0  0  0  0  0  0  0  0  0
   -0.9213    3.2425   -0.0000 C   0  0  0  0  0  0  0  0  0  0  0  0
   -0.8256   -4.2835   -0.0000 C   0  0  0  0  0  0  0  0  0  0  0  0
    0.7059   -2.4768   -0.0000 C   0  0  0  0  0  0  0  0  0  0  0  0
   -3.3861   -3.6494   -0.0000 C   0  0  0  0  0  0  0  0  0  0  0  0
   -2.2973   -4.6903   -0.0000 C   0  0  0  0  0  0  0  0  0  0  0  0
   -2.7759   -6.1261   -0.0000 C   0  0  0  0  0  0  0  0  0  0  0  0
   -4.2237   -6.5808   -0.0000 C   0  0  0  0  0  0  0  0  0  0  0  0
   -1.9025   -7.3107   -0.0000 C   0  0  0  0  0  0  0  0  0  0  0  0
   -5.5518   -5.7911   -0.0000 N   0  0  0  0  0  0  0  0  0  0  0  0
   -4.2356   -8.0884   -0.0000 N   0  0  0  0  0  0  0  0  0  0  0  0
   -2.7998   -8.5311   -0.0000 N   0  0  0  0  0  0  0  0  0  0  0  0
   -6.8919   -6.5569   -0.0000 C   0  0  0  0  0  0  0  0  0  0  0  0
   -5.5638   -8.8542   -0.0000 C   0  0  0  0  0  0  0  0  0  0  0  0
   -8.2320   -5.7911   -0.0000 O   0  0  0  0  0  0  0  0  0  0  0  0
   -6.9039   -8.0645   -0.0000 N   0  0  0  0  0  0  0  0  0  0  0  0
   -5.5757  -10.3618   -0.0000 N   0  0  0  0  0  0  0  0  0  0  0  0
   -9.5481   -6.5449   -0.0000 C   0  0  0  0  0  0  0  0  0  0  0  0
   -6.9039  -11.1156   -0.0000 C   0  0  0  0  0  0  0  0  0  0  0  0
  -10.8882   -5.7911   -0.0000 C   0  0  0  0  0  0  0  0  0  0  0  0
   -9.5481   -8.0525   -0.0000 C   0  0  0  0  0  0  0  0  0  0  0  0
   -6.9158  -12.6232   -0.0000 C   0  0  0  0  0  0  0  0  0  0  0  0
  -12.2044   -6.5569   -0.0000 C   0  0  0  0  0  0  0  0  0  0  0  0
  -10.8643   -8.8183   -0.0000 C   0  0  0  0  0  0  0  0  0  0  0  0
   -8.2440  -13.3770   -0.0000 C   0  0  0  0  0  0  0  0  0  0  0  0
   -5.6116  -13.3650   -0.0000 C   0  0  0  0  0  0  0  0  0  0  0  0
  -12.2044   -8.0645   -0.0000 C   0  0  0  0  0  0  0  0  0  0  0  0
   -8.2440  -14.8846   -0.0000 C   0  0  0  0  0  0  0  0  0  0  0  0
   -5.6116  -14.8726   -0.0000 C   0  0  0  0  0  0  0  0  0  0  0  0
   -6.9398  -15.6264   -0.0000 O   0  0  0  0  0  0  0  0  0  0  0  0
  1  2  2  0  0  0  0
  2  3  1  0  0  0  0
  2  4  1  0  0  0  0
  3  5  1  0  0  0  0
  4  6  2  0  0  0  0
  4  7  1  0  0  0  0
  5  8  1  0  0  0  0
  5  9  1  0  0  0  0
  6 10  1  0  0  0  0
  6 11  1  0  0  0  0
  7 12  2  0  0  0  0
 10 13  2  0  0  0  0
 13 14  1  0  0  0  0
 14 15  2  0  0  0  0
 14 16  1  0  0  0  0
 15 17  1  0  0  0  0
 15 18  1  0  0  0  0
 16 19  2  0  0  0  0
 17 20  2  0  0  0  0
 18 21  1  0  0  0  0
 20 22  1  0  0  0  0
 20 23  1  0  0  0  0
 21 24  1  0  0  0  0
 22 25  1  0  0  0  0
 24 26  1  0  0  0  0
 25 27  2  0  0  0  0
 25 28  1  0  0  0  0
 26 29  1  0  0  0  0
 27 30  1  0  0  0  0
 28 31  2  0  0  0  0
 29 32  1  0  0  0  0
 29 33  1  0  0  0  0
 30 34  2  0  0  0  0
 32 35  1  0  0  0  0
 33 36  1  0  0  0  0
 35 37  1  0  0  0  0
  8  9  1  0  0  0  0
 12 13  1  0  0  0  0
 18 19  1  0  0  0  0
 21 23  2  0  0  0  0
 31 34  1  0  0  0  0
 36 37  1  0  0  0  0
M  END
>  <MolRegNo>
2092179

>  <m>
=

>  <Value>
800

>  <Unit>
nM

>  <Type>
IC50

>  <pValue>
6.1

>  <Ligand Efficiency>
0

>  <Binding Efficiency>
0

>  <Surface Efficiency>
0

>  <Assay Index>
1024373

>  <Assay Category>


>  <Assay Organism>
Homo sapiens

>  <Target ID>
17045

>  <Target Name>
Cytochrome P450 3A4

>  <Target Organism>
Homo sapiens

>  <Target Description>
Target is a single protein chain

>  <Sequence Accession>
P08684

>  <Reference>
Bioorg Med Chem Lett 26 (15), 3562-3566 (2016)

>  <Pubmed ID>
27335255

>  <DOI>
10.1016/j.bmcl.2016.06.021

$$$$
2092183
Actelion Java MolfileCreator 1.0

 38 43  0  0  0  0  0  0  0  0999 V2000
    0.0000   -0.0000   -0.0000 F   0  0  0  0  0  0  0  0  0  0  0  0
    1.0479   -0.5902   -0.0000 C   0  0  0  0  0  0  0  0  0  0  0  0
    2.3487    0.2048   -0.0000 C   0  0  0  0  0  0  0  0  0  0  0  0
    1.0479   -2.1078   -0.0000 C   0  0  0  0  0  0  0  0  0  0  0  0
    3.6736   -0.5300   -0.0000 C   0  0  0  0  0  0  0  0  0  0  0  0
    2.3728   -2.8425   -0.0000 C   0  0  0  0  0  0  0  0  0  0  0  0
    4.9744    0.2529   -0.0000 N   0  0  0  0  0  0  0  0  0  0  0  0
    3.6736   -2.0476   -0.0000 C   0  0  0  0  0  0  0  0  0  0  0  0
    6.2993   -0.4938   -0.0000 C   0  0  0  0  0  0  0  0  0  0  0  0
    6.2872   -2.0114   -0.0000 N   0  0  0  0  0  0  0  0  0  0  0  0
    7.6241    0.3011   -0.0000 N   0  0  0  0  0  0  0  0  0  0  0  0
    7.6121   -2.7823   -0.0000 C   0  0  0  0  0  0  0  0  0  0  0  0
    8.9370   -0.4697   -0.0000 C   0  0  0  0  0  0  0  0  0  0  0  0
    8.9249   -1.9873   -0.0000 N   0  0  0  0  0  0  0  0  0  0  0  0
    7.6001   -4.2999   -0.0000 N   0  0  0  0  0  0  0  0  0  0  0  0
   10.3703    0.0120   -0.0000 C   0  0  0  0  0  0  0  0  0  0  0  0
   10.3582   -2.4450   -0.0000 N   0  0  0  0  0  0  0  0  0  0  0  0
    6.2631   -5.0587   -0.0000 C   0  0  0  0  0  0  0  0  0  0  0  0
   10.8280    1.4815   -0.0000 C   0  0  0  0  0  0  0  0  0  0  0  0
   11.2495   -1.1804   -0.0000 C   0  0  0  0  0  0  0  0  0  0  0  0
    6.2511   -6.5763   -0.0000 C   0  0  0  0  0  0  0  0  0  0  0  0
   12.2854    1.9151   -0.0000 C   0  0  0  0  0  0  0  0  0  0  0  0
    9.7078    2.5534   -0.0000 C   0  0  0  0  0  0  0  0  0  0  0  0
    4.9141   -7.3351   -0.0000 C   0  0  0  0  0  0  0  0  0  0  0  0
    7.5639   -7.3230   -0.0000 C   0  0  0  0  0  0  0  0  0  0  0  0
   12.6346    3.4086   -0.0000 C   0  0  0  0  0  0  0  0  0  0  0  0
   10.0571    4.0469   -0.0000 C   0  0  0  0  0  0  0  0  0  0  0  0
    4.9141   -8.8527   -0.0000 C   0  0  0  0  0  0  0  0  0  0  0  0
    7.5639   -8.8406   -0.0000 C   0  0  0  0  0  0  0  0  0  0  0  0
   11.5145    4.4805   -0.0000 C   0  0  0  0  0  0  0  0  0  0  0  0
   13.8030    3.7579   -0.0000 C   0  0  0  0  0  0  0  0  0  0  0  0
    6.2270   -9.5994   -0.0000 O   0  0  0  0  0  0  0  0  0  0  0  0
   11.8638    5.9741   -0.0000 C   0  0  0  0  0  0  0  0  0  0  0  0
   13.0201    6.3233   -0.0000 O   0  0  0  0  0  0  0  0  0  0  0  0
   10.7437    7.0460   -0.0000 N   0  0  0  0  0  0  0  0  0  0  0  0
   11.0930    8.5395   -0.0000 C   0  0  0  0  0  0  0  0  0  0  0  0
   10.6353    9.9246   -0.0000 C   0  0  0  0  0  0  0  0  0  0  0  0
   12.1167    9.5633   -0.0000 C   0  0  0  0  0  0  0  0  0  0  0  0
  1  2  1  0  0  0  0
  2  3  2  0  0  0  0
  2  4  1  0  0  0  0
  3  5  1  0  0  0  0
  4  6  2  0  0  0  0
  5  7  1  0  0  0  0
  5  8  2  0  0  0  0
  7  9  1  0  0  0  0
  9 10  1  0  0  0  0
  9 11  2  0  0  0  0
 10 12  2  0  0  0  0
 11 13  1  0  0  0  0
 12 14  1  0  0  0  0
 12 15  1  0  0  0  0
 13 16  2  0  0  0  0
 14 17  1  0  0  0  0
 15 18  1  0  0  0  0
 16 19  1  0  0  0  0
 16 20  1  0  0  0  0
 18 21  1  0  0  0  0
 19 22  2  0  0  0  0
 19 23  1  0  0  0  0
 21 24  1  0  0  0  0
 21 25  1  0  0  0  0
 22 26  1  0  0  0  0
 23 27  2  0  0  0  0
 24 28  1  0  0  0  0
 25 29  1  0  0  0  0
 26 30  2  0  0  0  0
 26 31  1  0  0  0  0
 28 32  1  0  0  0  0
 30 33  1  0  0  0  0
 33 34  2  0  0  0  0
 33 35  1  0  0  0  0
 35 36  1  0  0  0  0
 36 37  1  0  0  0  0
 36 38  1  0  0  0  0
  6  8  1  0  0  0  0
 13 14  1  0  0  0  0
 17 20  2  0  0  0  0
 27 30  1  0  0  0  0
 29 32  1  0  0  0  0
 37 38  1  0  0  0  0
M  END
>  <MolRegNo>
2092183

>  <m>
=

>  <Value>
470

>  <Unit>
nM

>  <Type>
IC50

>  <pValue>
6.33

>  <Ligand Efficiency>
0

>  <Binding Efficiency>
0

>  <Surface Efficiency>
0

>  <Assay Index>
1024373

>  <Assay Category>


>  <Assay Organism>
Homo sapiens

>  <Target ID>
17045

>  <Target Name>
Cytochrome P450 3A4

>  <Target Organism>
Homo sapiens

>  <Target Description>
Target is a single protein chain

>  <Sequence Accession>
P08684

>  <Reference>
Bioorg Med Chem Lett 26 (15), 3562-3566 (2016)

>  <Pubmed ID>
27335255

>  <DOI>
10.1016/j.bmcl.2016.06.021

$$$$
2092184
Actelion Java MolfileCreator 1.0

 38 43  0  0  0  0  0  0  0  0999 V2000
    0.0000   -0.0000   -0.0000 F   0  0  0  0  0  0  0  0  0  0  0  0
    0.0000   -1.2159   -0.0000 C   0  0  0  0  0  0  0  0  0  0  0  0
    1.3243   -1.9503   -0.0000 C   0  0  0  0  0  0  0  0  0  0  0  0
   -1.3243   -1.9864   -0.0000 C   0  0  0  0  0  0  0  0  0  0  0  0
    2.6245   -1.1678   -0.0000 N   0  0  0  0  0  0  0  0  0  0  0  0
    1.3243   -3.4672   -0.0000 C   0  0  0  0  0  0  0  0  0  0  0  0
   -1.3243   -3.5033   -0.0000 C   0  0  0  0  0  0  0  0  0  0  0  0
    3.9487   -1.9142   -0.0000 C   0  0  0  0  0  0  0  0  0  0  0  0
    0.0000   -4.2376   -0.0000 C   0  0  0  0  0  0  0  0  0  0  0  0
    3.9367   -3.4310   -0.0000 N   0  0  0  0  0  0  0  0  0  0  0  0
    5.2730   -1.1196   -0.0000 N   0  0  0  0  0  0  0  0  0  0  0  0
    5.2609   -4.2015   -0.0000 C   0  0  0  0  0  0  0  0  0  0  0  0
    6.5852   -1.8901   -0.0000 C   0  0  0  0  0  0  0  0  0  0  0  0
    6.5732   -3.4070   -0.0000 N   0  0  0  0  0  0  0  0  0  0  0  0
    5.2489   -5.7184   -0.0000 N   0  0  0  0  0  0  0  0  0  0  0  0
    8.0178   -1.4085   -0.0000 C   0  0  0  0  0  0  0  0  0  0  0  0
    8.0058   -3.8644   -0.0000 N   0  0  0  0  0  0  0  0  0  0  0  0
    3.9126   -6.4769   -0.0000 C   0  0  0  0  0  0  0  0  0  0  0  0
    8.4753    0.0602   -0.0000 C   0  0  0  0  0  0  0  0  0  0  0  0
    8.8966   -2.6004   -0.0000 C   0  0  0  0  0  0  0  0  0  0  0  0
    3.9006   -7.9937   -0.0000 C   0  0  0  0  0  0  0  0  0  0  0  0
    9.9320    0.4936   -0.0000 C   0  0  0  0  0  0  0  0  0  0  0  0
    7.3557    1.1316   -0.0000 C   0  0  0  0  0  0  0  0  0  0  0  0
    2.5643   -8.7522   -0.0000 C   0  0  0  0  0  0  0  0  0  0  0  0
    5.2128   -8.7401   -0.0000 C   0  0  0  0  0  0  0  0  0  0  0  0
   10.2811    1.9864   -0.0000 C   0  0  0  0  0  0  0  0  0  0  0  0
    7.7048    2.6245   -0.0000 C   0  0  0  0  0  0  0  0  0  0  0  0
    2.5643  -10.2691   -0.0000 C   0  0  0  0  0  0  0  0  0  0  0  0
    5.2128  -10.2570   -0.0000 C   0  0  0  0  0  0  0  0  0  0  0  0
    9.1615    3.0578   -0.0000 C   0  0  0  0  0  0  0  0  0  0  0  0
   11.4489    2.3355   -0.0000 C   0  0  0  0  0  0  0  0  0  0  0  0
    3.8765  -11.0155   -0.0000 O   0  0  0  0  0  0  0  0  0  0  0  0
    9.5106    4.5507   -0.0000 C   0  0  0  0  0  0  0  0  0  0  0  0
   10.6663    4.8998   -0.0000 O   0  0  0  0  0  0  0  0  0  0  0  0
    8.3910    5.6221   -0.0000 N   0  0  0  0  0  0  0  0  0  0  0  0
    8.7401    7.1149   -0.0000 C   0  0  0  0  0  0  0  0  0  0  0  0
    8.2827    8.4994   -0.0000 C   0  0  0  0  0  0  0  0  0  0  0  0
    9.7634    8.1382   -0.0000 C   0  0  0  0  0  0  0  0  0  0  0  0
  1  2  1  0  0  0  0
  2  3  2  0  0  0  0
  2  4  1  0  0  0  0
  3  5  1  0  0  0  0
  3  6  1  0  0  0  0
  4  7  2  0  0  0  0
  5  8  1  0  0  0  0
  6  9  2  0  0  0  0
  8 10  1  0  0  0  0
  8 11  2  0  0  0  0
 10 12  2  0  0  0  0
 11 13  1  0  0  0  0
 12 14  1  0  0  0  0
 12 15  1  0  0  0  0
 13 16  2  0  0  0  0
 14 17  1  0  0  0  0
 15 18  1  0  0  0  0
 16 19  1  0  0  0  0
 16 20  1  0  0  0  0
 18 21  1  0  0  0  0
 19 22  2  0  0  0  0
 19 23  1  0  0  0  0
 21 24  1  0  0  0  0
 21 25  1  0  0  0  0
 22 26  1  0  0  0  0
 23 27  2  0  0  0  0
 24 28  1  0  0  0  0
 25 29  1  0  0  0  0
 26 30  2  0  0  0  0
 26 31  1  0  0  0  0
 28 32  1  0  0  0  0
 30 33  1  0  0  0  0
 33 34  2  0  0  0  0
 33 35  1  0  0  0  0
 35 36  1  0  0  0  0
 36 37  1  0  0  0  0
 36 38  1  0  0  0  0
  7  9  1  0  0  0  0
 13 14  1  0  0  0  0
 17 20  2  0  0  0  0
 27 30  1  0  0  0  0
 29 32  1  0  0  0  0
 37 38  1  0  0  0  0
M  END
>  <MolRegNo>
2092184

>  <m>
=

>  <Value>
9300

>  <Unit>
nM

>  <Type>
IC50

>  <pValue>
5.03

>  <Ligand Efficiency>
0

>  <Binding Efficiency>
0

>  <Surface Efficiency>
0

>  <Assay Index>
1024373

>  <Assay Category>


>  <Assay Organism>
Homo sapiens

>  <Target ID>
17045

>  <Target Name>
Cytochrome P450 3A4

>  <Target Organism>
Homo sapiens

>  <Target Description>
Target is a single protein chain

>  <Sequence Accession>
P08684

>  <Reference>
Bioorg Med Chem Lett 26 (15), 3562-3566 (2016)

>  <Pubmed ID>
27335255

>  <DOI>
10.1016/j.bmcl.2016.06.021

$$$$
2092520
Actelion Java MolfileCreator 1.0

 16 18  0  0  0  0  0  0  0  0999 V2000
    0.0000   -0.0000   -0.0000 S   0  0  0  0  0  0  0  0  0  0  0  0
   -1.4451    0.4738   -0.0000 C   0  0  0  0  0  0  0  0  0  0  0  0
    0.8647    1.2438   -0.0000 C   0  0  0  0  0  0  0  0  0  0  0  0
   -1.4570    1.9900   -0.0000 C   0  0  0  0  0  0  0  0  0  0  0  0
   -2.7600   -0.2843   -0.0000 C   0  0  0  0  0  0  0  0  0  0  0  0
   -0.0237    2.4520   -0.0000 C   0  0  0  0  0  0  0  0  0  0  0  0
    2.0611    1.2674   -0.0000 C   0  0  0  0  0  0  0  0  0  0  0  0
   -2.7718    2.7718   -0.0000 C   0  0  0  0  0  0  0  0  0  0  0  0
   -4.0985    0.4975   -0.0000 C   0  0  0  0  0  0  0  0  0  0  0  0
    0.4264    3.8971   -0.0000 C   0  0  0  0  0  0  0  0  0  0  0  0
   -4.1103    2.0137   -0.0000 C   0  0  0  0  0  0  0  0  0  0  0  0
   -0.6752    4.9513   -0.0000 N   0  0  0  0  0  0  0  0  0  0  0  0
    1.8597    4.3235   -0.0000 C   0  0  0  0  0  0  0  0  0  0  0  0
   -0.3317    6.4320   -0.0000 C   0  0  0  0  0  0  0  0  0  0  0  0
    2.2032    5.8042   -0.0000 C   0  0  0  0  0  0  0  0  0  0  0  0
    1.1016    6.8584   -0.0000 N   0  0  0  0  0  0  0  0  0  0  0  0
  1  2  1  0  0  0  0
  1  3  1  0  0  0  0
  2  4  2  0  0  0  0
  2  5  1  0  0  0  0
  3  6  2  0  0  0  0
  3  7  1  0  0  0  0
  4  8  1  0  0  0  0
  5  9  2  0  0  0  0
 10  6  1  1  0  0  0
  8 11  2  0  0  0  0
 10 12  1  0  0  0  0
 10 13  1  0  0  0  0
 12 14  1  0  0  0  0
 13 15  2  0  0  0  0
 14 16  2  0  0  0  0
  4  6  1  0  0  0  0
  9 11  1  0  0  0  0
 15 16  1  0  0  0  0
M  END
>  <MolRegNo>
2092520

>  <m>
=

>  <Value>
11000

>  <Unit>
nM

>  <Type>
IC50

>  <pValue>
4.96

>  <Ligand Efficiency>
0

>  <Binding Efficiency>
0

>  <Surface Efficiency>
0

>  <Assay Index>
1024906

>  <Assay Category>


>  <Assay Organism>
Homo sapiens

>  <Target ID>
17045

>  <Target Name>
Cytochrome P450 3A4

>  <Target Organism>
Homo sapiens

>  <Target Description>
Target is a single protein chain

>  <Sequence Accession>
P08684

>  <Reference>
Medchemcomm 7 (6), 1093-1101 (2016)

>  <Pubmed ID>


>  <DOI>
10.1039/C6MD00128A

$$$$
2092493
Actelion Java MolfileCreator 1.0

 14 14  0  0  0  0  0  0  0  0999 V2000
    0.0000   -0.0000   -0.0000 Cl  0  0  0  0  0  0  0  0  0  0  0  0
   -2.6202    0.4852   -0.0000 S   0  0  0  0  0  0  0  0  0  0  0  0
   -3.6634   -0.6551   -0.0000 C   0  0  0  0  0  0  0  0  0  0  0  0
   -3.4087    1.8317   -0.0000 C   0  0  0  0  0  0  0  0  0  0  0  0
   -5.0706   -0.0121   -0.0000 C   0  0  0  0  0  0  0  0  0  0  0  0
   -3.4208   -1.8439   -0.0000 C   0  0  0  0  0  0  0  0  0  0  0  0
   -4.9250    1.5163   -0.0000 C   0  0  0  0  0  0  0  0  0  0  0  0
   -2.9235    2.9720   -0.0000 C   0  0  0  0  0  0  0  0  0  0  0  0
   -6.4171   -0.7764   -0.0000 C   0  0  0  0  0  0  0  0  0  0  0  0
   -7.7636   -0.0000   -0.0000 N   0  0  0  0  0  0  0  0  0  0  0  0
   -6.4292   -2.3048   -0.0000 C   0  0  0  0  0  0  0  0  0  0  0  0
   -9.1101   -0.7642   -0.0000 C   0  0  0  0  0  0  0  0  0  0  0  0
   -7.7757   -3.0690   -0.0000 C   0  0  0  0  0  0  0  0  0  0  0  0
   -9.1222   -2.2927   -0.0000 N   0  0  0  0  0  0  0  0  0  0  0  0
  2  3  1  0  0  0  0
  2  4  1  0  0  0  0
  3  5  2  0  0  0  0
  3  6  1  0  0  0  0
  4  7  2  0  0  0  0
  4  8  1  0  0  0  0
  5  9  1  0  0  0  0
  9 10  1  0  0  0  0
  9 11  1  0  0  0  0
 10 12  1  0  0  0  0
 11 13  2  0  0  0  0
 12 14  2  0  0  0  0
  5  7  1  0  0  0  0
 13 14  1  0  0  0  0
M  END
>  <MolRegNo>
2092493

>  <m>
=

>  <Value>
19800

>  <Unit>
nM

>  <Type>
IC50

>  <pValue>
4.7

>  <Ligand Efficiency>
0

>  <Binding Efficiency>
0

>  <Surface Efficiency>
0

>  <Assay Index>
1024906

>  <Assay Category>


>  <Assay Organism>
Homo sapiens

>  <Target ID>
17045

>  <Target Name>
Cytochrome P450 3A4

>  <Target Organism>
Homo sapiens

>  <Target Description>
Target is a single protein chain

>  <Sequence Accession>
P08684

>  <Reference>
Medchemcomm 7 (6), 1093-1101 (2016)

>  <Pubmed ID>


>  <DOI>
10.1039/C6MD00128A

$$$$
2093898
Actelion Java MolfileCreator 1.0

 20 22  0  0  0  0  0  0  0  0999 V2000
    0.0000   -0.0000   -0.0000 O   0  0  0  0  0  0  0  0  0  0  0  0
   -0.0120    1.5328   -0.0000 C   0  0  0  0  0  0  0  0  0  0  0  0
   -1.0658   -0.5987   -0.0000 C   0  0  0  0  0  0  0  0  0  0  0  0
   -1.3532    2.2992   -0.0000 N   0  0  0  0  0  0  0  0  0  0  0  0
    1.2933    2.2992   -0.0000 C   0  0  0  0  0  0  0  0  0  0  0  0
   -1.3651    3.8320   -0.0000 C   0  0  0  0  0  0  0  0  0  0  0  0
    1.2813    3.8320   -0.0000 C   0  0  0  0  0  0  0  0  0  0  0  0
    2.5986    1.5567   -0.0000 C   0  0  0  0  0  0  0  0  0  0  0  0
   -0.0479    4.5984   -0.0000 N   0  0  0  0  0  0  0  0  0  0  0  0
   -2.6944    4.6103   -0.0000 C   0  0  0  0  0  0  0  0  0  0  0  0
    2.5866    4.5984   -0.0000 C   0  0  0  0  0  0  0  0  0  0  0  0
    3.9038    2.3231   -0.0000 C   0  0  0  0  0  0  0  0  0  0  0  0
   -4.0236    3.8679   -0.0000 C   0  0  0  0  0  0  0  0  0  0  0  0
   -2.6944    6.1431   -0.0000 C   0  0  0  0  0  0  0  0  0  0  0  0
    3.8919    3.8559   -0.0000 C   0  0  0  0  0  0  0  0  0  0  0  0
   -5.3528    4.6463   -0.0000 C   0  0  0  0  0  0  0  0  0  0  0  0
   -4.0236    6.9215   -0.0000 C   0  0  0  0  0  0  0  0  0  0  0  0
   -6.6940    3.9038   -0.0000 O   0  0  0  0  0  0  0  0  0  0  0  0
   -5.3528    6.1791   -0.0000 C   0  0  0  0  0  0  0  0  0  0  0  0
   -7.7598    4.5265   -0.0000 C   0  0  0  0  0  0  0  0  0  0  0  0
  1  2  1  0  0  0  0
  1  3  1  0  0  0  0
  2  4  2  0  0  0  0
  2  5  1  0  0  0  0
  4  6  1  0  0  0  0
  5  7  1  0  0  0  0
  5  8  2  0  0  0  0
  6  9  2  0  0  0  0
  6 10  1  0  0  0  0
  7 11  2  0  0  0  0
  8 12  1  0  0  0  0
 10 13  2  0  0  0  0
 10 14  1  0  0  0  0
 11 15  1  0  0  0  0
 13 16  1  0  0  0  0
 14 17  2  0  0  0  0
 16 18  1  0  0  0  0
 16 19  2  0  0  0  0
 18 20  1  0  0  0  0
  7  9  1  0  0  0  0
 12 15  2  0  0  0  0
 17 19  1  0  0  0  0
M  END
>  <MolRegNo>
2093898

>  <m>
=

>  <Value>
12860

>  <Unit>
nM

>  <Type>
IC50

>  <pValue>
4.89

>  <Ligand Efficiency>
0

>  <Binding Efficiency>
0

>  <Surface Efficiency>
0

>  <Assay Index>
1025914

>  <Assay Category>


>  <Assay Organism>
Homo sapiens

>  <Target ID>
17045

>  <Target Name>
Cytochrome P450 3A4

>  <Target Organism>
Homo sapiens

>  <Target Description>
Target is a single protein chain

>  <Sequence Accession>
P08684

>  <Reference>
J Med Chem 59 (10), 4601-4610 (2016)

>  <Pubmed ID>
27145071

>  <DOI>
10.1021/acs.jmedchem.5b01891

$$$$
2093899
Actelion Java MolfileCreator 1.0

 20 22  0  0  0  0  0  0  0  0999 V2000
    0.0000   -0.0000   -0.0000 S   0  0  0  0  0  0  0  0  0  0  0  0
   -0.0120    1.5328   -0.0000 C   0  0  0  0  0  0  0  0  0  0  0  0
   -1.0658   -0.5987   -0.0000 C   0  0  0  0  0  0  0  0  0  0  0  0
   -1.3532    2.2992   -0.0000 N   0  0  0  0  0  0  0  0  0  0  0  0
    1.2933    2.2992   -0.0000 C   0  0  0  0  0  0  0  0  0  0  0  0
   -1.3651    3.8320   -0.0000 C   0  0  0  0  0  0  0  0  0  0  0  0
    1.2813    3.8320   -0.0000 C   0  0  0  0  0  0  0  0  0  0  0  0
    2.5986    1.5567   -0.0000 C   0  0  0  0  0  0  0  0  0  0  0  0
   -0.0479    4.5984   -0.0000 N   0  0  0  0  0  0  0  0  0  0  0  0
   -2.6944    4.6103   -0.0000 C   0  0  0  0  0  0  0  0  0  0  0  0
    2.5866    4.5984   -0.0000 C   0  0  0  0  0  0  0  0  0  0  0  0
    3.9038    2.3231   -0.0000 C   0  0  0  0  0  0  0  0  0  0  0  0
   -4.0236    3.8679   -0.0000 C   0  0  0  0  0  0  0  0  0  0  0  0
   -2.6944    6.1431   -0.0000 C   0  0  0  0  0  0  0  0  0  0  0  0
    3.8919    3.8559   -0.0000 C   0  0  0  0  0  0  0  0  0  0  0  0
   -5.3528    4.6463   -0.0000 C   0  0  0  0  0  0  0  0  0  0  0  0
   -4.0236    6.9215   -0.0000 C   0  0  0  0  0  0  0  0  0  0  0  0
   -6.6940    3.9038   -0.0000 O   0  0  0  0  0  0  0  0  0  0  0  0
   -5.3528    6.1791   -0.0000 C   0  0  0  0  0  0  0  0  0  0  0  0
   -7.7598    4.5265   -0.0000 C   0  0  0  0  0  0  0  0  0  0  0  0
  1  2  1  0  0  0  0
  1  3  1  0  0  0  0
  2  4  2  0  0  0  0
  2  5  1  0  0  0  0
  4  6  1  0  0  0  0
  5  7  1  0  0  0  0
  5  8  2  0  0  0  0
  6  9  2  0  0  0  0
  6 10  1  0  0  0  0
  7 11  2  0  0  0  0
  8 12  1  0  0  0  0
 10 13  2  0  0  0  0
 10 14  1  0  0  0  0
 11 15  1  0  0  0  0
 13 16  1  0  0  0  0
 14 17  2  0  0  0  0
 16 18  1  0  0  0  0
 16 19  2  0  0  0  0
 18 20  1  0  0  0  0
  7  9  1  0  0  0  0
 12 15  2  0  0  0  0
 17 19  1  0  0  0  0
M  END
>  <MolRegNo>
2093899

>  <m>
=

>  <Value>
22940

>  <Unit>
nM

>  <Type>
IC50

>  <pValue>
4.64

>  <Ligand Efficiency>
0

>  <Binding Efficiency>
0

>  <Surface Efficiency>
0

>  <Assay Index>
1025914

>  <Assay Category>


>  <Assay Organism>
Homo sapiens

>  <Target ID>
17045

>  <Target Name>
Cytochrome P450 3A4

>  <Target Organism>
Homo sapiens

>  <Target Description>
Target is a single protein chain

>  <Sequence Accession>
P08684

>  <Reference>
J Med Chem 59 (10), 4601-4610 (2016)

>  <Pubmed ID>
27145071

>  <DOI>
10.1021/acs.jmedchem.5b01891

$$$$
2092943
Actelion Java MolfileCreator 1.0

 30 34  0  0  0  0  0  0  0  0999 V2000
    0.0000   -0.0000   -0.0000 Cl  0  0  0  0  0  0  0  0  0  0  0  0
   -0.8876   -0.8396   -0.0000 C   0  0  0  0  0  0  0  0  0  0  0  0
   -2.3628   -0.4078   -0.0000 C   0  0  0  0  0  0  0  0  0  0  0  0
   -0.5277   -2.3148   -0.0000 C   0  0  0  0  0  0  0  0  0  0  0  0
   -3.4783   -1.4513   -0.0000 N   0  0  0  0  0  0  0  0  0  0  0  0
   -2.8546    1.0555   -0.0000 C   0  0  0  0  0  0  0  0  0  0  0  0
   -1.6432   -3.3583   -0.0000 N   0  0  0  0  0  0  0  0  0  0  0  0
   -3.1184   -2.9265   -0.0000 C   0  0  0  0  0  0  0  0  0  0  0  0
   -4.3178    1.5352   -0.0000 C   0  0  0  0  0  0  0  0  0  0  0  0
   -1.9790    2.3148   -0.0000 C   0  0  0  0  0  0  0  0  0  0  0  0
   -4.2339   -3.9820   -0.0000 N   0  0  0  0  0  0  0  0  0  0  0  0
   -4.3298    3.0705   -0.0000 N   0  0  0  0  0  0  0  0  0  0  0  0
   -5.6492    0.7676   -0.0000 C   0  0  0  0  0  0  0  0  0  0  0  0
   -2.8786    3.5382   -0.0000 N   0  0  0  0  0  0  0  0  0  0  0  0
   -3.8741   -5.4573   -0.0000 C   0  0  0  0  0  0  0  0  0  0  0  0
   -5.6612    3.8621   -0.0000 C   0  0  0  0  0  0  0  0  0  0  0  0
   -6.9925    1.5592   -0.0000 C   0  0  0  0  0  0  0  0  0  0  0  0
   -4.8696   -6.5967   -0.0000 C   0  0  0  0  0  0  0  0  0  0  0  0
   -2.4708   -5.9970   -0.0000 C   0  0  0  0  0  0  0  0  0  0  0  0
   -7.0045    3.0945   -0.0000 C   0  0  0  0  0  0  0  0  0  0  0  0
   -4.0660   -7.8801   -0.0000 N   0  0  0  0  0  0  0  0  0  0  0  0
   -6.1050   -6.5008   -0.0000 C   0  0  0  0  0  0  0  0  0  0  0  0
   -2.5907   -7.5083   -0.0000 N   0  0  0  0  0  0  0  0  0  0  0  0
   -1.4513   -5.3253   -0.0000 C   0  0  0  0  0  0  0  0  0  0  0  0
   -1.4273   -8.4798   -0.0000 C   0  0  0  0  0  0  0  0  0  0  0  0
   -1.5832   -9.9790   -0.0000 C   0  0  0  0  0  0  0  0  0  0  0  0
   -0.0480   -7.8321   -0.0000 C   0  0  0  0  0  0  0  0  0  0  0  0
   -0.3478  -10.8546   -0.0000 C   0  0  0  0  0  0  0  0  0  0  0  0
    1.1874   -8.7077   -0.0000 C   0  0  0  0  0  0  0  0  0  0  0  0
    1.0315  -10.2069   -0.0000 N   0  0  0  0  0  0  0  0  0  0  0  0
  1  2  1  0  0  0  0
  2  3  2  0  0  0  0
  2  4  1  0  0  0  0
  3  5  1  0  0  0  0
  3  6  1  0  0  0  0
  4  7  2  0  0  0  0
  5  8  2  0  0  0  0
  6  9  2  0  0  0  0
  6 10  1  0  0  0  0
  8 11  1  0  0  0  0
  9 12  1  0  0  0  0
  9 13  1  0  0  0  0
 10 14  2  0  0  0  0
 11 15  1  0  0  0  0
 12 16  1  0  0  0  0
 13 17  2  0  0  0  0
 15 18  1  0  0  0  0
 15 19  2  0  0  0  0
 16 20  2  0  0  0  0
 18 21  2  0  0  0  0
 18 22  1  0  0  0  0
 19 23  1  0  0  0  0
 19 24  1  0  0  0  0
 23 25  1  0  0  0  0
 25 26  1  0  0  0  0
 25 27  1  0  0  0  0
 26 28  1  0  0  0  0
 27 29  1  0  0  0  0
 28 30  1  0  0  0  0
  7  8  1  0  0  0  0
 12 14  1  0  0  0  0
 17 20  1  0  0  0  0
 21 23  1  0  0  0  0
 29 30  1  0  0  0  0
M  END
>  <MolRegNo>
2092943

>  <m>
=

>  <Value>
4800

>  <Unit>
nM

>  <Type>
IC50

>  <pValue>
5.32

>  <Ligand Efficiency>
0

>  <Binding Efficiency>
0

>  <Surface Efficiency>
0

>  <Assay Index>
1025249

>  <Assay Category>


>  <Assay Organism>
Homo sapiens

>  <Target ID>
17045

>  <Target Name>
Cytochrome P450 3A4

>  <Target Organism>
Homo sapiens

>  <Target Description>
Target is a single protein chain

>  <Sequence Accession>
P08684

>  <Reference>
J Med Chem 59 (10), 4859-4866 (2016)

>  <Pubmed ID>
27078757

>  <DOI>
10.1021/acs.jmedchem.6b00203

$$$$
2092954
Actelion Java MolfileCreator 1.0

 35 39  0  0  0  0  0  0  0  0999 V2000
    0.0000   -0.0000   -0.0000 Cl  0  0  0  0  0  0  0  0  0  0  0  0
   -0.9002   -0.8516   -0.0000 C   0  0  0  0  0  0  0  0  0  0  0  0
   -2.3965   -0.4136   -0.0000 C   0  0  0  0  0  0  0  0  0  0  0  0
   -0.5353   -2.3479   -0.0000 C   0  0  0  0  0  0  0  0  0  0  0  0
   -3.5279   -1.4720   -0.0000 N   0  0  0  0  0  0  0  0  0  0  0  0
   -2.8953    1.0705   -0.0000 C   0  0  0  0  0  0  0  0  0  0  0  0
   -1.6666   -3.4062   -0.0000 N   0  0  0  0  0  0  0  0  0  0  0  0
   -3.1629   -2.9683   -0.0000 C   0  0  0  0  0  0  0  0  0  0  0  0
   -4.3794    1.5571   -0.0000 C   0  0  0  0  0  0  0  0  0  0  0  0
   -2.0072    2.3479   -0.0000 C   0  0  0  0  0  0  0  0  0  0  0  0
   -4.2943   -4.0388   -0.0000 N   0  0  0  0  0  0  0  0  0  0  0  0
   -4.3916    3.1143   -0.0000 N   0  0  0  0  0  0  0  0  0  0  0  0
   -5.7297    0.7786   -0.0000 C   0  0  0  0  0  0  0  0  0  0  0  0
   -2.9196    3.5887   -0.0000 N   0  0  0  0  0  0  0  0  0  0  0  0
   -3.9293   -5.5351   -0.0000 C   0  0  0  0  0  0  0  0  0  0  0  0
   -5.7419    3.9172   -0.0000 C   0  0  0  0  0  0  0  0  0  0  0  0
   -7.0922    1.5815   -0.0000 C   0  0  0  0  0  0  0  0  0  0  0  0
   -4.9390   -6.6908   -0.0000 C   0  0  0  0  0  0  0  0  0  0  0  0
   -2.5060   -6.0825   -0.0000 C   0  0  0  0  0  0  0  0  0  0  0  0
   -7.1044    3.1386   -0.0000 C   0  0  0  0  0  0  0  0  0  0  0  0
   -4.1240   -7.9924   -0.0000 N   0  0  0  0  0  0  0  0  0  0  0  0
   -6.1920   -6.5935   -0.0000 C   0  0  0  0  0  0  0  0  0  0  0  0
   -2.6277   -7.6153   -0.0000 N   0  0  0  0  0  0  0  0  0  0  0  0
   -1.4720   -5.4013   -0.0000 C   0  0  0  0  0  0  0  0  0  0  0  0
   -1.4476   -8.6007   -0.0000 C   0  0  0  0  0  0  0  0  0  0  0  0
   -1.6058  -10.1213   -0.0000 C   0  0  0  0  0  0  0  0  0  0  0  0
   -0.0487   -7.9438   -0.0000 C   0  0  0  0  0  0  0  0  0  0  0  0
   -0.3528  -11.0094   -0.0000 C   0  0  0  0  0  0  0  0  0  0  0  0
    1.2043   -8.8318   -0.0000 C   0  0  0  0  0  0  0  0  0  0  0  0
    1.0462  -10.3525   -0.0000 N   0  0  0  0  0  0  0  0  0  0  0  0
    2.2992  -11.2405   -0.0000 C   0  0  0  0  0  0  0  0  0  0  0  0
    2.1654  -12.4570   -0.0000 O   0  0  0  0  0  0  0  0  0  0  0  0
    3.6982  -10.5836   -0.0000 C   0  0  0  0  0  0  0  0  0  0  0  0
    4.6957  -11.2892   -0.0000 O   0  0  0  0  0  0  0  0  0  0  0  0
    3.8077   -9.3428   -0.0000 C   0  0  0  0  0  0  0  0  0  0  0  0
  1  2  1  0  0  0  0
  2  3  2  0  0  0  0
  2  4  1  0  0  0  0
  3  5  1  0  0  0  0
  3  6  1  0  0  0  0
  4  7  2  0  0  0  0
  5  8  2  0  0  0  0
  6  9  2  0  0  0  0
  6 10  1  0  0  0  0
  8 11  1  0  0  0  0
  9 12  1  0  0  0  0
  9 13  1  0  0  0  0
 10 14  2  0  0  0  0
 11 15  1  0  0  0  0
 12 16  1  0  0  0  0
 13 17  2  0  0  0  0
 15 18  1  0  0  0  0
 15 19  2  0  0  0  0
 16 20  2  0  0  0  0
 18 21  2  0  0  0  0
 18 22  1  0  0  0  0
 19 23  1  0  0  0  0
 19 24  1  0  0  0  0
 23 25  1  0  0  0  0
 25 26  1  0  0  0  0
 25 27  1  0  0  0  0
 26 28  1  0  0  0  0
 27 29  1  0  0  0  0
 28 30  1  0  0  0  0
 30 31  1  0  0  0  0
 31 32  2  0  0  0  0
 31 33  1  0  0  0  0
 33 34  1  6  0  0  0
 33 35  1  0  0  0  0
  7  8  1  0  0  0  0
 12 14  1  0  0  0  0
 17 20  1  0  0  0  0
 21 23  1  0  0  0  0
 29 30  1  0  0  0  0
M  END
>  <MolRegNo>
2092954

>  <m>
=

>  <Value>
21000

>  <Unit>
nM

>  <Type>
IC50

>  <pValue>
4.68

>  <Ligand Efficiency>
0

>  <Binding Efficiency>
0

>  <Surface Efficiency>
0

>  <Assay Index>
1025249

>  <Assay Category>


>  <Assay Organism>
Homo sapiens

>  <Target ID>
17045

>  <Target Name>
Cytochrome P450 3A4

>  <Target Organism>
Homo sapiens

>  <Target Description>
Target is a single protein chain

>  <Sequence Accession>
P08684

>  <Reference>
J Med Chem 59 (10), 4859-4866 (2016)

>  <Pubmed ID>
27078757

>  <DOI>
10.1021/acs.jmedchem.6b00203

$$$$
2092955
Actelion Java MolfileCreator 1.0

 34 38  0  0  0  0  0  0  0  0999 V2000
    0.0000   -0.0000   -0.0000 Cl  0  0  0  0  0  0  0  0  0  0  0  0
   -0.8962   -0.8478   -0.0000 C   0  0  0  0  0  0  0  0  0  0  0  0
   -2.3859   -0.4118   -0.0000 C   0  0  0  0  0  0  0  0  0  0  0  0
   -0.5329   -2.3374   -0.0000 C   0  0  0  0  0  0  0  0  0  0  0  0
   -3.5122   -1.4654   -0.0000 N   0  0  0  0  0  0  0  0  0  0  0  0
   -2.8824    1.0658   -0.0000 C   0  0  0  0  0  0  0  0  0  0  0  0
   -1.6592   -3.3911   -0.0000 N   0  0  0  0  0  0  0  0  0  0  0  0
   -3.1489   -2.9551   -0.0000 C   0  0  0  0  0  0  0  0  0  0  0  0
   -4.3600    1.5502   -0.0000 C   0  0  0  0  0  0  0  0  0  0  0  0
   -1.9983    2.3374   -0.0000 C   0  0  0  0  0  0  0  0  0  0  0  0
   -4.2752   -4.0209   -0.0000 N   0  0  0  0  0  0  0  0  0  0  0  0
   -4.3721    3.1004   -0.0000 N   0  0  0  0  0  0  0  0  0  0  0  0
   -5.7043    0.7751   -0.0000 C   0  0  0  0  0  0  0  0  0  0  0  0
   -2.9066    3.5728   -0.0000 N   0  0  0  0  0  0  0  0  0  0  0  0
   -3.9119   -5.5105   -0.0000 C   0  0  0  0  0  0  0  0  0  0  0  0
   -5.7164    3.8997   -0.0000 C   0  0  0  0  0  0  0  0  0  0  0  0
   -7.0607    1.5744   -0.0000 C   0  0  0  0  0  0  0  0  0  0  0  0
   -4.9171   -6.6611   -0.0000 C   0  0  0  0  0  0  0  0  0  0  0  0
   -2.4949   -6.0555   -0.0000 C   0  0  0  0  0  0  0  0  0  0  0  0
   -7.0728    3.1246   -0.0000 C   0  0  0  0  0  0  0  0  0  0  0  0
   -4.1056   -7.9569   -0.0000 N   0  0  0  0  0  0  0  0  0  0  0  0
   -6.1645   -6.5642   -0.0000 C   0  0  0  0  0  0  0  0  0  0  0  0
   -2.6160   -7.5815   -0.0000 N   0  0  0  0  0  0  0  0  0  0  0  0
   -1.4654   -5.3773   -0.0000 C   0  0  0  0  0  0  0  0  0  0  0  0
   -1.4412   -8.5625   -0.0000 C   0  0  0  0  0  0  0  0  0  0  0  0
   -1.5987  -10.0764   -0.0000 C   0  0  0  0  0  0  0  0  0  0  0  0
   -0.0484   -7.9085   -0.0000 C   0  0  0  0  0  0  0  0  0  0  0  0
   -0.3512  -10.9605   -0.0000 C   0  0  0  0  0  0  0  0  0  0  0  0
    1.1990   -8.7926   -0.0000 C   0  0  0  0  0  0  0  0  0  0  0  0
    1.0415  -10.3065   -0.0000 N   0  0  0  0  0  0  0  0  0  0  0  0
    2.2890  -11.1906   -0.0000 C   0  0  0  0  0  0  0  0  0  0  0  0
    2.1558  -12.4017   -0.0000 O   0  0  0  0  0  0  0  0  0  0  0  0
    3.6818  -10.5366   -0.0000 C   0  0  0  0  0  0  0  0  0  0  0  0
    4.6749  -11.2390   -0.0000 N   0  0  0  0  0  0  0  0  0  0  0  0
  1  2  1  0  0  0  0
  2  3  2  0  0  0  0
  2  4  1  0  0  0  0
  3  5  1  0  0  0  0
  3  6  1  0  0  0  0
  4  7  2  0  0  0  0
  5  8  2  0  0  0  0
  6  9  2  0  0  0  0
  6 10  1  0  0  0  0
  8 11  1  0  0  0  0
  9 12  1  0  0  0  0
  9 13  1  0  0  0  0
 10 14  2  0  0  0  0
 11 15  1  0  0  0  0
 12 16  1  0  0  0  0
 13 17  2  0  0  0  0
 15 18  1  0  0  0  0
 15 19  2  0  0  0  0
 16 20  2  0  0  0  0
 18 21  2  0  0  0  0
 18 22  1  0  0  0  0
 19 23  1  0  0  0  0
 19 24  1  0  0  0  0
 23 25  1  0  0  0  0
 25 26  1  0  0  0  0
 25 27  1  0  0  0  0
 26 28  1  0  0  0  0
 27 29  1  0  0  0  0
 28 30  1  0  0  0  0
 30 31  1  0  0  0  0
 31 32  2  0  0  0  0
 31 33  1  0  0  0  0
 33 34  1  0  0  0  0
  7  8  1  0  0  0  0
 12 14  1  0  0  0  0
 17 20  1  0  0  0  0
 21 23  1  0  0  0  0
 29 30  1  0  0  0  0
M  END
>  <MolRegNo>
2092955

>  <m>
=

>  <Value>
500

>  <Unit>
nM

>  <Type>
IC50

>  <pValue>
6.3

>  <Ligand Efficiency>
0

>  <Binding Efficiency>
0

>  <Surface Efficiency>
0

>  <Assay Index>
1025249

>  <Assay Category>


>  <Assay Organism>
Homo sapiens

>  <Target ID>
17045

>  <Target Name>
Cytochrome P450 3A4

>  <Target Organism>
Homo sapiens

>  <Target Description>
Target is a single protein chain

>  <Sequence Accession>
P08684

>  <Reference>
J Med Chem 59 (10), 4859-4866 (2016)

>  <Pubmed ID>
27078757

>  <DOI>
10.1021/acs.jmedchem.6b00203

$$$$
2092956
Actelion Java MolfileCreator 1.0

 35 39  0  0  0  0  0  0  0  0999 V2000
    0.0000   -0.0000   -0.0000 Cl  0  0  0  0  0  0  0  0  0  0  0  0
   -0.9002   -0.8516   -0.0000 C   0  0  0  0  0  0  0  0  0  0  0  0
   -2.3965   -0.4136   -0.0000 C   0  0  0  0  0  0  0  0  0  0  0  0
   -0.5353   -2.3479   -0.0000 C   0  0  0  0  0  0  0  0  0  0  0  0
   -3.5279   -1.4720   -0.0000 N   0  0  0  0  0  0  0  0  0  0  0  0
   -2.8953    1.0705   -0.0000 C   0  0  0  0  0  0  0  0  0  0  0  0
   -1.6666   -3.4062   -0.0000 N   0  0  0  0  0  0  0  0  0  0  0  0
   -3.1629   -2.9683   -0.0000 C   0  0  0  0  0  0  0  0  0  0  0  0
   -4.3794    1.5571   -0.0000 C   0  0  0  0  0  0  0  0  0  0  0  0
   -2.0072    2.3479   -0.0000 C   0  0  0  0  0  0  0  0  0  0  0  0
   -4.2943   -4.0388   -0.0000 N   0  0  0  0  0  0  0  0  0  0  0  0
   -4.3916    3.1143   -0.0000 N   0  0  0  0  0  0  0  0  0  0  0  0
   -5.7297    0.7786   -0.0000 C   0  0  0  0  0  0  0  0  0  0  0  0
   -2.9196    3.5887   -0.0000 N   0  0  0  0  0  0  0  0  0  0  0  0
   -3.9293   -5.5351   -0.0000 C   0  0  0  0  0  0  0  0  0  0  0  0
   -5.7419    3.9172   -0.0000 C   0  0  0  0  0  0  0  0  0  0  0  0
   -7.0922    1.5815   -0.0000 C   0  0  0  0  0  0  0  0  0  0  0  0
   -4.9390   -6.6908   -0.0000 C   0  0  0  0  0  0  0  0  0  0  0  0
   -2.5060   -6.0825   -0.0000 C   0  0  0  0  0  0  0  0  0  0  0  0
   -7.1044    3.1386   -0.0000 C   0  0  0  0  0  0  0  0  0  0  0  0
   -4.1240   -7.9924   -0.0000 N   0  0  0  0  0  0  0  0  0  0  0  0
   -6.1920   -6.5935   -0.0000 C   0  0  0  0  0  0  0  0  0  0  0  0
   -2.6277   -7.6153   -0.0000 N   0  0  0  0  0  0  0  0  0  0  0  0
   -1.4720   -5.4013   -0.0000 C   0  0  0  0  0  0  0  0  0  0  0  0
   -1.4476   -8.6007   -0.0000 C   0  0  0  0  0  0  0  0  0  0  0  0
   -1.6058  -10.1213   -0.0000 C   0  0  0  0  0  0  0  0  0  0  0  0
   -0.0487   -7.9438   -0.0000 C   0  0  0  0  0  0  0  0  0  0  0  0
   -0.3528  -11.0094   -0.0000 C   0  0  0  0  0  0  0  0  0  0  0  0
    1.2043   -8.8318   -0.0000 C   0  0  0  0  0  0  0  0  0  0  0  0
    1.0462  -10.3525   -0.0000 N   0  0  0  0  0  0  0  0  0  0  0  0
    2.2992  -11.2405   -0.0000 C   0  0  0  0  0  0  0  0  0  0  0  0
    2.1654  -12.4570   -0.0000 O   0  0  0  0  0  0  0  0  0  0  0  0
    3.6982  -10.5836   -0.0000 C   0  0  0  0  0  0  0  0  0  0  0  0
    4.6957  -11.2892   -0.0000 N   0  0  0  0  0  0  0  0  0  0  0  0
    3.8077   -9.3428   -0.0000 C   0  0  0  0  0  0  0  0  0  0  0  0
  1  2  1  0  0  0  0
  2  3  2  0  0  0  0
  2  4  1  0  0  0  0
  3  5  1  0  0  0  0
  3  6  1  0  0  0  0
  4  7  2  0  0  0  0
  5  8  2  0  0  0  0
  6  9  2  0  0  0  0
  6 10  1  0  0  0  0
  8 11  1  0  0  0  0
  9 12  1  0  0  0  0
  9 13  1  0  0  0  0
 10 14  2  0  0  0  0
 11 15  1  0  0  0  0
 12 16  1  0  0  0  0
 13 17  2  0  0  0  0
 15 18  1  0  0  0  0
 15 19  2  0  0  0  0
 16 20  2  0  0  0  0
 18 21  2  0  0  0  0
 18 22  1  0  0  0  0
 19 23  1  0  0  0  0
 19 24  1  0  0  0  0
 23 25  1  0  0  0  0
 25 26  1  0  0  0  0
 25 27  1  0  0  0  0
 26 28  1  0  0  0  0
 27 29  1  0  0  0  0
 28 30  1  0  0  0  0
 30 31  1  0  0  0  0
 31 32  2  0  0  0  0
 31 33  1  0  0  0  0
 33 34  1  6  0  0  0
 33 35  1  0  0  0  0
  7  8  1  0  0  0  0
 12 14  1  0  0  0  0
 17 20  1  0  0  0  0
 21 23  1  0  0  0  0
 29 30  1  0  0  0  0
M  END
>  <MolRegNo>
2092956

>  <m>
=

>  <Value>
300

>  <Unit>
nM

>  <Type>
IC50

>  <pValue>
6.52

>  <Ligand Efficiency>
0

>  <Binding Efficiency>
0

>  <Surface Efficiency>
0

>  <Assay Index>
1025249

>  <Assay Category>


>  <Assay Organism>
Homo sapiens

>  <Target ID>
17045

>  <Target Name>
Cytochrome P450 3A4

>  <Target Organism>
Homo sapiens

>  <Target Description>
Target is a single protein chain

>  <Sequence Accession>
P08684

>  <Reference>
J Med Chem 59 (10), 4859-4866 (2016)

>  <Pubmed ID>
27078757

>  <DOI>
10.1021/acs.jmedchem.6b00203

$$$$
2092958
Actelion Java MolfileCreator 1.0

 35 39  0  0  0  0  0  0  0  0999 V2000
    0.0000   -0.0000   -0.0000 Cl  0  0  0  0  0  0  0  0  0  0  0  0
   -0.8956   -0.8472   -0.0000 C   0  0  0  0  0  0  0  0  0  0  0  0
   -2.3841   -0.4115   -0.0000 C   0  0  0  0  0  0  0  0  0  0  0  0
   -0.5325   -2.3357   -0.0000 C   0  0  0  0  0  0  0  0  0  0  0  0
   -3.5096   -1.4644   -0.0000 N   0  0  0  0  0  0  0  0  0  0  0  0
   -2.8803    1.0650   -0.0000 C   0  0  0  0  0  0  0  0  0  0  0  0
   -1.6580   -3.3886   -0.0000 N   0  0  0  0  0  0  0  0  0  0  0  0
   -3.1466   -2.9529   -0.0000 C   0  0  0  0  0  0  0  0  0  0  0  0
   -4.3568    1.5491   -0.0000 C   0  0  0  0  0  0  0  0  0  0  0  0
   -1.9969    2.3357   -0.0000 C   0  0  0  0  0  0  0  0  0  0  0  0
   -4.2721   -4.0179   -0.0000 N   0  0  0  0  0  0  0  0  0  0  0  0
   -4.3689    3.0982   -0.0000 N   0  0  0  0  0  0  0  0  0  0  0  0
   -5.7002    0.7745   -0.0000 C   0  0  0  0  0  0  0  0  0  0  0  0
   -2.9045    3.5702   -0.0000 N   0  0  0  0  0  0  0  0  0  0  0  0
   -3.9090   -5.5065   -0.0000 C   0  0  0  0  0  0  0  0  0  0  0  0
   -5.7123    3.8969   -0.0000 C   0  0  0  0  0  0  0  0  0  0  0  0
   -7.0556    1.5733   -0.0000 C   0  0  0  0  0  0  0  0  0  0  0  0
   -4.9135   -6.6562   -0.0000 C   0  0  0  0  0  0  0  0  0  0  0  0
   -2.4931   -6.0511   -0.0000 C   0  0  0  0  0  0  0  0  0  0  0  0
   -7.0677    3.1224   -0.0000 C   0  0  0  0  0  0  0  0  0  0  0  0
   -4.1027   -7.9512   -0.0000 N   0  0  0  0  0  0  0  0  0  0  0  0
   -6.1600   -6.5594   -0.0000 C   0  0  0  0  0  0  0  0  0  0  0  0
   -2.6141   -7.5760   -0.0000 N   0  0  0  0  0  0  0  0  0  0  0  0
   -1.4644   -5.3734   -0.0000 C   0  0  0  0  0  0  0  0  0  0  0  0
   -1.4402   -8.5563   -0.0000 C   0  0  0  0  0  0  0  0  0  0  0  0
   -1.5975  -10.0691   -0.0000 C   0  0  0  0  0  0  0  0  0  0  0  0
   -0.0484   -7.9028   -0.0000 C   0  0  0  0  0  0  0  0  0  0  0  0
   -0.3510  -10.9525   -0.0000 C   0  0  0  0  0  0  0  0  0  0  0  0
    1.1981   -8.7862   -0.0000 C   0  0  0  0  0  0  0  0  0  0  0  0
    1.0408  -10.2990   -0.0000 N   0  0  0  0  0  0  0  0  0  0  0  0
    2.2873  -11.1825   -0.0000 C   0  0  0  0  0  0  0  0  0  0  0  0
    2.1542  -12.3927   -0.0000 O   0  0  0  0  0  0  0  0  0  0  0  0
    3.6791  -10.5289   -0.0000 C   0  0  0  0  0  0  0  0  0  0  0  0
    4.9256  -11.4124   -0.0000 N   0  0  0  0  0  0  0  0  0  0  0  0
    6.0390  -10.8920   -0.0000 C   0  0  0  0  0  0  0  0  0  0  0  0
  1  2  1  0  0  0  0
  2  3  2  0  0  0  0
  2  4  1  0  0  0  0
  3  5  1  0  0  0  0
  3  6  1  0  0  0  0
  4  7  2  0  0  0  0
  5  8  2  0  0  0  0
  6  9  2  0  0  0  0
  6 10  1  0  0  0  0
  8 11  1  0  0  0  0
  9 12  1  0  0  0  0
  9 13  1  0  0  0  0
 10 14  2  0  0  0  0
 11 15  1  0  0  0  0
 12 16  1  0  0  0  0
 13 17  2  0  0  0  0
 15 18  1  0  0  0  0
 15 19  2  0  0  0  0
 16 20  2  0  0  0  0
 18 21  2  0  0  0  0
 18 22  1  0  0  0  0
 19 23  1  0  0  0  0
 19 24  1  0  0  0  0
 23 25  1  0  0  0  0
 25 26  1  0  0  0  0
 25 27  1  0  0  0  0
 26 28  1  0  0  0  0
 27 29  1  0  0  0  0
 28 30  1  0  0  0  0
 30 31  1  0  0  0  0
 31 32  2  0  0  0  0
 31 33  1  0  0  0  0
 33 34  1  0  0  0  0
 34 35  1  0  0  0  0
  7  8  1  0  0  0  0
 12 14  1  0  0  0  0
 17 20  1  0  0  0  0
 21 23  1  0  0  0  0
 29 30  1  0  0  0  0
M  END
>  <MolRegNo>
2092958

>  <m>
=

>  <Value>
3800

>  <Unit>
nM

>  <Type>
IC50

>  <pValue>
5.42

>  <Ligand Efficiency>
0

>  <Binding Efficiency>
0

>  <Surface Efficiency>
0

>  <Assay Index>
1025249

>  <Assay Category>


>  <Assay Organism>
Homo sapiens

>  <Target ID>
17045

>  <Target Name>
Cytochrome P450 3A4

>  <Target Organism>
Homo sapiens

>  <Target Description>
Target is a single protein chain

>  <Sequence Accession>
P08684

>  <Reference>
J Med Chem 59 (10), 4859-4866 (2016)

>  <Pubmed ID>
27078757

>  <DOI>
10.1021/acs.jmedchem.6b00203

$$$$
2016418
Actelion Java MolfileCreator 1.0

 29 31  0  0  0  0  0  0  0  0999 V2000
    0.0000   -0.0000   -0.0000 Cl  0  0  0  0  0  0  0  0  0  0  0  0
   -0.0246    1.2691   -0.0000 C   0  0  0  0  0  0  0  0  0  0  0  0
   -1.3924    2.0577   -0.0000 C   0  0  0  0  0  0  0  0  0  0  0  0
    1.3184    2.0701   -0.0000 C   0  0  0  0  0  0  0  0  0  0  0  0
   -2.7601    1.2815   -0.0000 C   0  0  0  0  0  0  0  0  0  0  0  0
   -1.4170    3.6349   -0.0000 C   0  0  0  0  0  0  0  0  0  0  0  0
    1.2938    3.6473   -0.0000 C   0  0  0  0  0  0  0  0  0  0  0  0
   -3.8567    0.6654   -0.0000 N   0  0  0  0  0  0  0  0  0  0  0  0
   -0.0739    4.4359   -0.0000 C   0  0  0  0  0  0  0  0  0  0  0  0
    2.6369    4.4482   -0.0000 O   0  0  0  0  0  0  0  0  0  0  0  0
    3.9799    3.6842   -0.0000 C   0  0  0  0  0  0  0  0  0  0  0  0
    5.3230    4.4851   -0.0000 C   0  0  0  0  0  0  0  0  0  0  0  0
    3.9676    2.1317   -0.0000 C   0  0  0  0  0  0  0  0  0  0  0  0
    5.3107    6.0623   -0.0000 C   0  0  0  0  0  0  0  0  0  0  0  0
    6.6661    3.7212   -0.0000 C   0  0  0  0  0  0  0  0  0  0  0  0
    5.3107    1.3677   -0.0000 C   0  0  0  0  0  0  0  0  0  0  0  0
    5.2984    7.3315   -0.0000 N   0  0  0  0  0  0  0  0  0  0  0  0
    6.6538    2.1686   -0.0000 C   0  0  0  0  0  0  0  0  0  0  0  0
    7.9969    1.4047   -0.0000 S   0  0  0  0  0  0  0  0  0  0  0  0
    7.9845    0.1602   -0.0000 O   0  0  0  0  0  0  0  0  0  0  0  0
    9.0689    0.7886   -0.0000 O   0  0  0  0  0  0  0  0  0  0  0  0
    9.3399    2.2056   -0.0000 N   0  0  0  0  0  0  0  0  0  0  0  0
   10.6830    1.4417   -0.0000 C   0  0  0  0  0  0  0  0  0  0  0  0
   10.6707   -0.1109   -0.0000 N   0  0  0  0  0  0  0  0  0  0  0  0
   12.0261    2.2302   -0.0000 C   0  0  0  0  0  0  0  0  0  0  0  0
   12.0138   -0.8748   -0.0000 C   0  0  0  0  0  0  0  0  0  0  0  0
   13.3692    1.4663   -0.0000 C   0  0  0  0  0  0  0  0  0  0  0  0
   13.3568   -0.0863   -0.0000 C   0  0  0  0  0  0  0  0  0  0  0  0
   14.4288   -0.7023   -0.0000 F   0  0  0  0  0  0  0  0  0  0  0  0
  1  2  1  0  0  0  0
  2  3  2  0  0  0  0
  2  4  1  0  0  0  0
  3  5  1  0  0  0  0
  3  6  1  0  0  0  0
  4  7  2  0  0  0  0
  5  8  3  0  0  0  0
  6  9  2  0  0  0  0
  7 10  1  0  0  0  0
 10 11  1  0  0  0  0
 11 12  2  0  0  0  0
 11 13  1  0  0  0  0
 12 14  1  0  0  0  0
 12 15  1  0  0  0  0
 13 16  2  0  0  0  0
 14 17  3  0  0  0  0
 15 18  2  0  0  0  0
 18 19  1  0  0  0  0
 19 20  2  0  0  0  0
 19 21  2  0  0  0  0
 19 22  1  0  0  0  0
 22 23  1  0  0  0  0
 23 24  2  0  0  0  0
 23 25  1  0  0  0  0
 24 26  1  0  0  0  0
 25 27  2  0  0  0  0
 26 28  2  0  0  0  0
 28 29  1  0  0  0  0
  7  9  1  0  0  0  0
 16 18  1  0  0  0  0
 27 28  1  0  0  0  0
M  END
>  <MolRegNo>
2016418

>  <m>
=

>  <Value>
17500

>  <Unit>
nM

>  <Type>
IC50

>  <pValue>
4.76

>  <Ligand Efficiency>
0

>  <Binding Efficiency>
0

>  <Surface Efficiency>
0

>  <Assay Index>
1029782

>  <Assay Category>


>  <Assay Organism>
Homo sapiens

>  <Target ID>
17045

>  <Target Name>
Cytochrome P450 3A4

>  <Target Organism>
Homo sapiens

>  <Target Description>
Target is a single protein chain

>  <Sequence Accession>
P08684

>  <Reference>
Medchemcomm 7 (8), 1587-1595 (2016)

>  <Pubmed ID>


>  <DOI>
10.1039/C6MD00190D

$$$$
2138915
Actelion Java MolfileCreator 1.0

 24 25  0  0  0  0  0  0  0  0999 V2000
    0.0000   -0.0000   -0.0000 S   0  0  0  0  0  0  0  0  0  0  0  0
   -0.7747    1.3230   -0.0000 O   0  0  0  0  0  0  0  0  0  0  0  0
    0.7390    1.3230   -0.0000 O   0  0  0  0  0  0  0  0  0  0  0  0
    1.2991   -0.7390   -0.0000 N   0  0  0  0  0  0  0  0  0  0  0  0
   -1.3110   -0.7509   -0.0000 C   0  0  0  0  0  0  0  0  0  0  0  0
    2.5863    0.0238   -0.0000 C   0  0  0  0  0  0  0  0  0  0  0  0
   -1.3230   -2.2526   -0.0000 C   0  0  0  0  0  0  0  0  0  0  0  0
   -2.6221    0.0119   -0.0000 C   0  0  0  0  0  0  0  0  0  0  0  0
    2.5625    1.5256   -0.0000 C   0  0  0  0  0  0  0  0  0  0  0  0
    3.8735   -0.7151   -0.0000 C   0  0  0  0  0  0  0  0  0  0  0  0
   -2.6459   -2.9916   -0.0000 C   0  0  0  0  0  0  0  0  0  0  0  0
   -0.0358   -2.9916   -0.0000 C   0  0  0  0  0  0  0  0  0  0  0  0
   -3.9331   -0.7270   -0.0000 C   0  0  0  0  0  0  0  0  0  0  0  0
    3.8378    2.3003   -0.0000 N   0  0  0  0  0  0  0  0  0  0  0  0
    5.1608    0.0477   -0.0000 C   0  0  0  0  0  0  0  0  0  0  0  0
   -3.9570   -2.2288   -0.0000 C   0  0  0  0  0  0  0  0  0  0  0  0
   -0.0477   -4.4814   -0.0000 F   0  0  0  0  0  0  0  0  0  0  0  0
    1.2515   -2.2288   -0.0000 F   0  0  0  0  0  0  0  0  0  0  0  0
    1.2515   -3.7305   -0.0000 F   0  0  0  0  0  0  0  0  0  0  0  0
    5.1369    1.5613   -0.0000 C   0  0  0  0  0  0  0  0  0  0  0  0
    6.4480   -0.6913   -0.0000 C   0  0  0  0  0  0  0  0  0  0  0  0
    6.4361   -2.1811   -0.0000 F   0  0  0  0  0  0  0  0  0  0  0  0
    7.7352    0.0715   -0.0000 F   0  0  0  0  0  0  0  0  0  0  0  0
    7.7352   -1.4302   -0.0000 F   0  0  0  0  0  0  0  0  0  0  0  0
  1  2  2  0  0  0  0
  1  3  2  0  0  0  0
  1  4  1  0  0  0  0
  1  5  1  0  0  0  0
  4  6  1  0  0  0  0
  5  7  2  0  0  0  0
  5  8  1  0  0  0  0
  6  9  2  0  0  0  0
  6 10  1  0  0  0  0
  7 11  1  0  0  0  0
  7 12  1  0  0  0  0
  8 13  2  0  0  0  0
  9 14  1  0  0  0  0
 10 15  2  0  0  0  0
 11 16  2  0  0  0  0
 12 17  1  0  0  0  0
 12 18  1  0  0  0  0
 12 19  1  0  0  0  0
 14 20  2  0  0  0  0
 15 21  1  0  0  0  0
 21 22  1  0  0  0  0
 21 23  1  0  0  0  0
 21 24  1  0  0  0  0
 13 16  1  0  0  0  0
 15 20  1  0  0  0  0
M  END
>  <MolRegNo>
2138915

>  <m>
=

>  <Value>
620

>  <Unit>
nM

>  <Type>
IC50

>  <pValue>
6.21

>  <Ligand Efficiency>
0

>  <Binding Efficiency>
0

>  <Surface Efficiency>
0

>  <Assay Index>
1029900

>  <Assay Category>


>  <Assay Organism>
Homo sapiens

>  <Target ID>
17045

>  <Target Name>
Cytochrome P450 3A4

>  <Target Organism>
Homo sapiens

>  <Target Description>
Target is a single protein chain

>  <Sequence Accession>
P08684

>  <Reference>
Medchemcomm 7 (8), 1572-1579 (2016)

>  <Pubmed ID>


>  <DOI>
10.1039/C6MD00191B

$$$$
2145063
Actelion Java MolfileCreator 1.0

 33 37  0  0  0  0  0  0  0  0999 V2000
    0.0000   -0.0000   -0.0000 S   0  0  0  0  0  0  0  0  0  0  0  0
    1.2929   -0.7405   -0.0000 C   0  0  0  0  0  0  0  0  0  0  0  0
   -1.3046   -0.7405   -0.0000 C   0  0  0  0  0  0  0  0  0  0  0  0
    2.6562   -0.1175   -0.0000 N   0  0  0  0  0  0  0  0  0  0  0  0
    1.4456   -2.2214   -0.0000 N   0  0  0  0  0  0  0  0  0  0  0  0
   -2.6210    0.0235   -0.0000 C   0  0  0  0  0  0  0  0  0  0  0  0
    3.6553   -1.2223   -0.0000 N   0  0  0  0  0  0  0  0  0  0  0  0
    2.9031   -2.5152   -0.0000 C   0  0  0  0  0  0  0  0  0  0  0  0
    0.3173   -3.2204   -0.0000 C   0  0  0  0  0  0  0  0  0  0  0  0
   -3.9256   -0.7169   -0.0000 C   0  0  0  0  0  0  0  0  0  0  0  0
    3.5142   -3.8668   -0.0000 C   0  0  0  0  0  0  0  0  0  0  0  0
   -5.2419    0.0470   -0.0000 N   0  0  0  0  0  0  0  0  0  0  0  0
    4.9716   -4.1606   -0.0000 O   0  0  0  0  0  0  0  0  0  0  0  0
    2.7503   -5.1597   -0.0000 C   0  0  0  0  0  0  0  0  0  0  0  0
   -6.6171   -0.5524   -0.0000 C   0  0  0  0  0  0  0  0  0  0  0  0
   -5.4065    1.5514   -0.0000 C   0  0  0  0  0  0  0  0  0  0  0  0
    5.1244   -5.6416   -0.0000 C   0  0  0  0  0  0  0  0  0  0  0  0
    3.7493   -6.2645   -0.0000 N   0  0  0  0  0  0  0  0  0  0  0  0
    1.2458   -5.3125   -0.0000 C   0  0  0  0  0  0  0  0  0  0  0  0
   -7.6396    0.5759   -0.0000 C   0  0  0  0  0  0  0  0  0  0  0  0
   -6.8874    1.8688   -0.0000 C   0  0  0  0  0  0  0  0  0  0  0  0
   -8.8149   -0.3644   -0.0000 C   0  0  0  0  0  0  0  0  0  0  0  0
   -9.0617    1.1283   -0.0000 C   0  0  0  0  0  0  0  0  0  0  0  0
   -9.3556   -1.7512   -0.0000 C   0  0  0  0  0  0  0  0  0  0  0  0
  -10.8482   -1.9745   -0.0000 C   0  0  0  0  0  0  0  0  0  0  0  0
   -8.4271   -2.9031   -0.0000 C   0  0  0  0  0  0  0  0  0  0  0  0
  -11.4006   -3.3614   -0.0000 C   0  0  0  0  0  0  0  0  0  0  0  0
   -8.9677   -4.2899   -0.0000 C   0  0  0  0  0  0  0  0  0  0  0  0
  -10.4604   -4.5132   -0.0000 C   0  0  0  0  0  0  0  0  0  0  0  0
  -11.0010   -5.9001   -0.0000 C   0  0  0  0  0  0  0  0  0  0  0  0
  -12.4937   -6.1234   -0.0000 F   0  0  0  0  0  0  0  0  0  0  0  0
  -10.0608   -7.0519   -0.0000 F   0  0  0  0  0  0  0  0  0  0  0  0
  -11.7767   -7.1812   -0.0000 F   0  0  0  0  0  0  0  0  0  0  0  0
  1  2  1  0  0  0  0
  1  3  1  0  0  0  0
  2  4  2  0  0  0  0
  2  5  1  0  0  0  0
  3  6  1  0  0  0  0
  4  7  1  0  0  0  0
  5  8  1  0  0  0  0
  5  9  1  0  0  0  0
  6 10  1  0  0  0  0
  8 11  1  0  0  0  0
 10 12  1  0  0  0  0
 11 13  1  0  0  0  0
 11 14  2  0  0  0  0
 12 15  1  0  0  0  0
 12 16  1  0  0  0  0
 13 17  1  0  0  0  0
 14 18  1  0  0  0  0
 14 19  1  0  0  0  0
 20 15  1  6  0  0  0
 16 21  1  0  0  0  0
 20 22  1  0  0  0  0
 20 23  1  0  0  0  0
 22 24  1  6  0  0  0
 24 25  2  0  0  0  0
 24 26  1  0  0  0  0
 25 27  1  0  0  0  0
 26 28  2  0  0  0  0
 27 29  2  0  0  0  0
 29 30  1  0  0  0  0
 30 31  1  0  0  0  0
 30 32  1  0  0  0  0
 30 33  1  0  0  0  0
  7  8  2  0  0  0  0
 17 18  2  0  0  0  0
 20 21  1  0  0  0  0
 22 23  1  0  0  0  0
 28 29  1  0  0  0  0
M  END
>  <MolRegNo>
2145063

>  <m>
=

>  <Value>
300

>  <Unit>
nM

>  <Type>
IC50

>  <pValue>
6.52

>  <Ligand Efficiency>
0

>  <Binding Efficiency>
0

>  <Surface Efficiency>
0

>  <Assay Index>
1031620

>  <Assay Category>


>  <Assay Organism>
Homo sapiens

>  <Target ID>
17045

>  <Target Name>
Cytochrome P450 3A4

>  <Target Organism>
Homo sapiens

>  <Target Description>
Target is a single protein chain

>  <Sequence Accession>
P08684

>  <Reference>
J Med Chem 59 (18), 8549-8576 (2016)

>  <Pubmed ID>
27564135

>  <DOI>
10.1021/acs.jmedchem.6b00972

$$$$
2173154
Actelion Java MolfileCreator 1.0

 30 34  0  0  0  0  0  0  0  0999 V2000
    0.0000   -0.0000   -0.0000 S   0  0  0  0  0  0  0  0  0  0  0  0
    1.2923   -0.7401   -0.0000 C   0  0  0  0  0  0  0  0  0  0  0  0
   -1.3040   -0.7401   -0.0000 C   0  0  0  0  0  0  0  0  0  0  0  0
    2.6550   -0.1175   -0.0000 N   0  0  0  0  0  0  0  0  0  0  0  0
    1.4450   -2.2204   -0.0000 N   0  0  0  0  0  0  0  0  0  0  0  0
   -2.6198    0.0235   -0.0000 C   0  0  0  0  0  0  0  0  0  0  0  0
    3.6536   -1.2218   -0.0000 N   0  0  0  0  0  0  0  0  0  0  0  0
    2.9017   -2.5141   -0.0000 C   0  0  0  0  0  0  0  0  0  0  0  0
    0.3172   -3.2189   -0.0000 C   0  0  0  0  0  0  0  0  0  0  0  0
   -3.9238   -0.7166   -0.0000 C   0  0  0  0  0  0  0  0  0  0  0  0
    3.5126   -3.8651   -0.0000 C   0  0  0  0  0  0  0  0  0  0  0  0
   -5.2396    0.0470   -0.0000 N   0  0  0  0  0  0  0  0  0  0  0  0
    4.9694   -4.1588   -0.0000 O   0  0  0  0  0  0  0  0  0  0  0  0
    2.7490   -5.1574   -0.0000 C   0  0  0  0  0  0  0  0  0  0  0  0
   -6.6258   -0.5522   -0.0000 C   0  0  0  0  0  0  0  0  0  0  0  0
   -5.4041    1.5507   -0.0000 C   0  0  0  0  0  0  0  0  0  0  0  0
    5.1221   -5.6390   -0.0000 C   0  0  0  0  0  0  0  0  0  0  0  0
    3.7476   -6.2617   -0.0000 N   0  0  0  0  0  0  0  0  0  0  0  0
    1.2453   -5.3101   -0.0000 C   0  0  0  0  0  0  0  0  0  0  0  0
   -7.6479    0.5756   -0.0000 C   0  0  0  0  0  0  0  0  0  0  0  0
   -6.8843    1.8679   -0.0000 C   0  0  0  0  0  0  0  0  0  0  0  0
   -8.8227   -0.3642   -0.0000 C   0  0  0  0  0  0  0  0  0  0  0  0
   -9.0694    1.1278   -0.0000 C   0  0  0  0  0  0  0  0  0  0  0  0
   -9.3631   -1.7504   -0.0000 C   0  0  0  0  0  0  0  0  0  0  0  0
  -10.8551   -1.9737   -0.0000 C   0  0  0  0  0  0  0  0  0  0  0  0
   -8.4350   -2.9017   -0.0000 C   0  0  0  0  0  0  0  0  0  0  0  0
  -11.4073   -3.3599   -0.0000 C   0  0  0  0  0  0  0  0  0  0  0  0
   -8.9754   -4.2880   -0.0000 C   0  0  0  0  0  0  0  0  0  0  0  0
  -10.4674   -4.5112   -0.0000 C   0  0  0  0  0  0  0  0  0  0  0  0
  -11.0078   -5.8975   -0.0000 F   0  0  0  0  0  0  0  0  0  0  0  0
  1  2  1  0  0  0  0
  1  3  1  0  0  0  0
  2  4  2  0  0  0  0
  2  5  1  0  0  0  0
  3  6  1  0  0  0  0
  4  7  1  0  0  0  0
  5  8  1  0  0  0  0
  5  9  1  0  0  0  0
  6 10  1  0  0  0  0
  8 11  1  0  0  0  0
 10 12  1  0  0  0  0
 11 13  1  0  0  0  0
 11 14  2  0  0  0  0
 12 15  1  0  0  0  0
 12 16  1  0  0  0  0
 13 17  1  0  0  0  0
 14 18  1  0  0  0  0
 14 19  1  0  0  0  0
 20 15  1  6  0  0  0
 16 21  1  0  0  0  0
 20 22  1  0  0  0  0
 20 23  1  0  0  0  0
 22 24  1  6  0  0  0
 24 25  2  0  0  0  0
 24 26  1  0  0  0  0
 25 27  1  0  0  0  0
 26 28  2  0  0  0  0
 27 29  2  0  0  0  0
 29 30  1  0  0  0  0
  7  8  2  0  0  0  0
 17 18  2  0  0  0  0
 20 21  1  0  0  0  0
 22 23  1  0  0  0  0
 28 29  1  0  0  0  0
M  END
>  <MolRegNo>
2173154

>  <m>
=

>  <Value>
3400

>  <Unit>
nM

>  <Type>
IC50

>  <pValue>
5.47

>  <Ligand Efficiency>
0

>  <Binding Efficiency>
0

>  <Surface Efficiency>
0

>  <Assay Index>
1031620

>  <Assay Category>


>  <Assay Organism>
Homo sapiens

>  <Target ID>
17045

>  <Target Name>
Cytochrome P450 3A4

>  <Target Organism>
Homo sapiens

>  <Target Description>
Target is a single protein chain

>  <Sequence Accession>
P08684

>  <Reference>
J Med Chem 59 (18), 8549-8576 (2016)

>  <Pubmed ID>
27564135

>  <DOI>
10.1021/acs.jmedchem.6b00972

$$$$
2101950
Actelion Java MolfileCreator 1.0

 28 31  0  0  0  0  0  0  0  0999 V2000
    0.0000   -0.0000   -0.0000 F   0  0  0  0  0  0  0  0  0  0  0  0
    0.0235    1.5055   -0.0000 C   0  0  0  0  0  0  0  0  0  0  0  0
   -1.2702    2.2935   -0.0000 C   0  0  0  0  0  0  0  0  0  0  0  0
    1.3290    2.2464   -0.0000 C   0  0  0  0  0  0  0  0  0  0  0  0
   -1.2467    3.7989   -0.0000 C   0  0  0  0  0  0  0  0  0  0  0  0
    1.3408    3.7519   -0.0000 C   0  0  0  0  0  0  0  0  0  0  0  0
    0.0588    4.5164   -0.0000 C   0  0  0  0  0  0  0  0  0  0  0  0
    0.0823    6.0218   -0.0000 N   0  0  0  0  0  0  0  0  0  0  0  0
   -1.2114    6.8098   -0.0000 C   0  0  0  0  0  0  0  0  0  0  0  0
   -2.5287    6.1041   -0.0000 O   0  0  0  0  0  0  0  0  0  0  0  0
   -1.1879    8.3153   -0.0000 N   0  0  0  0  0  0  0  0  0  0  0  0
    0.0353    9.1738   -0.0000 N   0  0  0  0  0  0  0  0  0  0  0  0
   -2.3876    9.2326   -0.0000 C   0  0  0  0  0  0  0  0  0  0  0  0
   -0.4116   10.6205   -0.0000 C   0  0  0  0  0  0  0  0  0  0  0  0
   -3.8224    8.8210   -0.0000 C   0  0  0  0  0  0  0  0  0  0  0  0
   -1.9053   10.6558   -0.0000 C   0  0  0  0  0  0  0  0  0  0  0  0
    0.4705   11.8201   -0.0000 C   0  0  0  0  0  0  0  0  0  0  0  0
   -4.9162    9.8560   -0.0000 C   0  0  0  0  0  0  0  0  0  0  0  0
   -4.1753    7.3861   -0.0000 C   0  0  0  0  0  0  0  0  0  0  0  0
    1.9406   11.6437   -0.0000 C   0  0  0  0  0  0  0  0  0  0  0  0
   -0.1176   13.2080   -0.0000 C   0  0  0  0  0  0  0  0  0  0  0  0
   -6.3629    9.4444   -0.0000 C   0  0  0  0  0  0  0  0  0  0  0  0
   -5.6102    6.9627   -0.0000 C   0  0  0  0  0  0  0  0  0  0  0  0
    2.8345   12.8434   -0.0000 C   0  0  0  0  0  0  0  0  0  0  0  0
    0.7645   14.4076   -0.0000 C   0  0  0  0  0  0  0  0  0  0  0  0
   -6.7157    7.9977   -0.0000 C   0  0  0  0  0  0  0  0  0  0  0  0
    2.2464   14.2312   -0.0000 N   0  0  0  0  0  0  0  0  0  0  0  0
   -8.1624    7.5743   -0.0000 F   0  0  0  0  0  0  0  0  0  0  0  0
  1  2  1  0  0  0  0
  2  3  2  0  0  0  0
  2  4  1  0  0  0  0
  3  5  1  0  0  0  0
  4  6  2  0  0  0  0
  5  7  2  0  0  0  0
  7  8  1  0  0  0  0
  8  9  1  0  0  0  0
  9 10  2  0  0  0  0
  9 11  1  0  0  0  0
 11 12  1  0  0  0  0
 11 13  1  0  0  0  0
 12 14  2  0  0  0  0
 13 15  1  0  0  0  0
 13 16  1  0  0  0  0
 14 17  1  0  0  0  0
 15 18  2  0  0  0  0
 15 19  1  0  0  0  0
 17 20  2  0  0  0  0
 17 21  1  0  0  0  0
 18 22  1  0  0  0  0
 19 23  2  0  0  0  0
 20 24  1  0  0  0  0
 21 25  2  0  0  0  0
 22 26  2  0  0  0  0
 24 27  2  0  0  0  0
 26 28  1  0  0  0  0
  6  7  1  0  0  0  0
 14 16  1  0  0  0  0
 23 26  1  0  0  0  0
 25 27  1  0  0  0  0
M  END
>  <MolRegNo>
2101950

>  <m>
=

>  <Value>
18000

>  <Unit>
nM

>  <Type>
IC50

>  <pValue>
4.75

>  <Ligand Efficiency>
0

>  <Binding Efficiency>
0

>  <Surface Efficiency>
0

>  <Assay Index>
1031665

>  <Assay Category>


>  <Assay Organism>
Homo sapiens

>  <Target ID>
17045

>  <Target Name>
Cytochrome P450 3A4

>  <Target Organism>
Homo sapiens

>  <Target Description>
Target is a single protein chain

>  <Sequence Accession>
P08684

>  <Reference>
J Med Chem 59 (18), 8398-8411 (2016)

>  <Pubmed ID>
27579577

>  <DOI>
10.1021/acs.jmedchem.6b00756

$$$$
2188351
Actelion Java MolfileCreator 1.0

 35 38  0  0  0  0  0  0  0  0999 V2000
    0.0000   -0.0000   -0.0000 S   0  0  0  0  0  0  0  0  0  0  0  0
    1.0413    1.0776   -0.0000 O   0  0  0  0  0  0  0  0  0  0  0  0
    1.0413   -1.0413   -0.0000 O   0  0  0  0  0  0  0  0  0  0  0  0
   -0.7507    1.3077   -0.0000 C   0  0  0  0  0  0  0  0  0  0  0  0
   -0.7628   -1.2714   -0.0000 C   0  0  0  0  0  0  0  0  0  0  0  0
   -0.0121    2.6032   -0.0000 C   0  0  0  0  0  0  0  0  0  0  0  0
   -2.2521    1.3319   -0.0000 C   0  0  0  0  0  0  0  0  0  0  0  0
   -0.7749    3.9230   -0.0000 C   0  0  0  0  0  0  0  0  0  0  0  0
    1.4651    2.6032   -0.0000 C   0  0  0  0  0  0  0  0  0  0  0  0
   -3.0028    2.6396   -0.0000 C   0  0  0  0  0  0  0  0  0  0  0  0
   -2.2763    3.9351   -0.0000 C   0  0  0  0  0  0  0  0  0  0  0  0
    2.2037    3.8988   -0.0000 O   0  0  0  0  0  0  0  0  0  0  0  0
   -4.5042    2.6517   -0.0000 N   0  0  0  0  0  0  0  0  0  0  0  0
   -5.4002    1.4530   -0.0000 N   0  0  0  0  0  0  0  0  0  0  0  0
   -5.3881    3.8746   -0.0000 C   0  0  0  0  0  0  0  0  0  0  0  0
   -6.8290    1.9373   -0.0000 C   0  0  0  0  0  0  0  0  0  0  0  0
   -6.8290    3.4387   -0.0000 C   0  0  0  0  0  0  0  0  0  0  0  0
   -8.2699    1.5014   -0.0000 C   0  0  0  0  0  0  0  0  0  0  0  0
   -8.2577    3.9230   -0.0000 C   0  0  0  0  0  0  0  0  0  0  0  0
   -9.1537    2.7364   -0.0000 N   0  0  0  0  0  0  0  0  0  0  0  0
   -8.7542    0.0969   -0.0000 C   0  0  0  0  0  0  0  0  0  0  0  0
  -10.6552    2.7607   -0.0000 C   0  0  0  0  0  0  0  0  0  0  0  0
  -10.2314   -0.1816   -0.0000 C   0  0  0  0  0  0  0  0  0  0  0  0
   -7.7734   -1.0171   -0.0000 C   0  0  0  0  0  0  0  0  0  0  0  0
  -11.4059    4.0683   -0.0000 N   0  0  0  0  0  0  0  0  0  0  0  0
  -11.4301    1.4772   -0.0000 N   0  0  0  0  0  0  0  0  0  0  0  0
  -12.9073    4.0925   -0.0000 C   0  0  0  0  0  0  0  0  0  0  0  0
  -12.9436    1.5014   -0.0000 C   0  0  0  0  0  0  0  0  0  0  0  0
  -13.6822    2.8212   -0.0000 C   0  0  0  0  0  0  0  0  0  0  0  0
  -13.6580    5.4002   -0.0000 C   0  0  0  0  0  0  0  0  0  0  0  0
  -15.1836    2.8454   -0.0000 C   0  0  0  0  0  0  0  0  0  0  0  0
  -14.3360    6.5989   -0.0000 F   0  0  0  0  0  0  0  0  0  0  0  0
  -13.1010    6.8653   -0.0000 F   0  0  0  0  0  0  0  0  0  0  0  0
  -15.2078    5.6787   -0.0000 F   0  0  0  0  0  0  0  0  0  0  0  0
  -15.9585    1.5741   -0.0000 O   0  0  0  0  0  0  0  0  0  0  0  0
  1  2  2  0  0  0  0
  1  3  2  0  0  0  0
  1  4  1  0  0  0  0
  1  5  1  0  0  0  0
  4  6  2  0  0  0  0
  4  7  1  0  0  0  0
  6  8  1  0  0  0  0
  6  9  1  0  0  0  0
  7 10  2  0  0  0  0
  8 11  2  0  0  0  0
  9 12  1  0  0  0  0
 10 13  1  0  0  0  0
 13 14  1  0  0  0  0
 13 15  1  0  0  0  0
 14 16  2  0  0  0  0
 15 17  2  0  0  0  0
 16 18  1  0  0  0  0
 17 19  1  0  0  0  0
 18 20  1  0  0  0  0
 18 21  1  6  0  0  0
 20 22  1  0  0  0  0
 21 23  1  0  0  0  0
 21 24  1  0  0  0  0
 22 25  2  0  0  0  0
 22 26  1  0  0  0  0
 25 27  1  0  0  0  0
 26 28  2  0  0  0  0
 27 29  2  0  0  0  0
 27 30  1  0  0  0  0
 29 31  1  0  0  0  0
 30 32  1  0  0  0  0
 30 33  1  0  0  0  0
 30 34  1  0  0  0  0
 31 35  1  0  0  0  0
 10 11  1  0  0  0  0
 16 17  1  0  0  0  0
 19 20  1  0  0  0  0
 28 29  1  0  0  0  0
M  END
>  <MolRegNo>
2188351

>  <m>
=

>  <Value>
7700

>  <Unit>
nM

>  <Type>
IC50

>  <pValue>
5.11

>  <Ligand Efficiency>
0

>  <Binding Efficiency>
0

>  <Surface Efficiency>
0

>  <Assay Index>
1031735

>  <Assay Category>


>  <Assay Organism>
Homo sapiens

>  <Target ID>
17045

>  <Target Name>
Cytochrome P450 3A4

>  <Target Organism>
Homo sapiens

>  <Target Description>
Target is a single protein chain

>  <Sequence Accession>
P08684

>  <Reference>
Bioorg Med Chem Lett 26 (20), 5044-5050 (2016)

>  <Pubmed ID>
27599745

>  <DOI>
10.1016/j.bmcl.2016.08.089

$$$$
2141540
Actelion Java MolfileCreator 1.0

 33 36  0  0  0  0  0  0  0  0999 V2000
    0.0000   -0.0000   -0.0000 S   0  0  0  0  0  0  0  0  0  0  0  0
    1.0408    1.0771   -0.0000 O   0  0  0  0  0  0  0  0  0  0  0  0
    1.0408   -1.0408   -0.0000 O   0  0  0  0  0  0  0  0  0  0  0  0
   -0.7504    1.3071   -0.0000 C   0  0  0  0  0  0  0  0  0  0  0  0
   -0.7625   -1.2708   -0.0000 C   0  0  0  0  0  0  0  0  0  0  0  0
   -2.2511    1.3313   -0.0000 C   0  0  0  0  0  0  0  0  0  0  0  0
   -0.0121    2.6020   -0.0000 C   0  0  0  0  0  0  0  0  0  0  0  0
   -3.0014    2.6383   -0.0000 C   0  0  0  0  0  0  0  0  0  0  0  0
   -0.7746    3.9212   -0.0000 C   0  0  0  0  0  0  0  0  0  0  0  0
   -4.5021    2.6504   -0.0000 N   0  0  0  0  0  0  0  0  0  0  0  0
   -2.2632    3.9333   -0.0000 C   0  0  0  0  0  0  0  0  0  0  0  0
   -5.3977    1.4523   -0.0000 N   0  0  0  0  0  0  0  0  0  0  0  0
   -5.3856    3.8728   -0.0000 C   0  0  0  0  0  0  0  0  0  0  0  0
   -6.8258    1.9364   -0.0000 C   0  0  0  0  0  0  0  0  0  0  0  0
   -6.8258    3.4371   -0.0000 C   0  0  0  0  0  0  0  0  0  0  0  0
   -8.2660    1.5007   -0.0000 C   0  0  0  0  0  0  0  0  0  0  0  0
   -8.2539    3.9212   -0.0000 C   0  0  0  0  0  0  0  0  0  0  0  0
   -9.1495    2.7352   -0.0000 N   0  0  0  0  0  0  0  0  0  0  0  0
   -8.7501    0.0968   -0.0000 C   0  0  0  0  0  0  0  0  0  0  0  0
  -10.6502    2.7594   -0.0000 C   0  0  0  0  0  0  0  0  0  0  0  0
  -10.2266   -0.1815   -0.0000 C   0  0  0  0  0  0  0  0  0  0  0  0
   -7.7698   -1.0166   -0.0000 C   0  0  0  0  0  0  0  0  0  0  0  0
  -11.4005    4.0664   -0.0000 N   0  0  0  0  0  0  0  0  0  0  0  0
  -11.4247    1.4765   -0.0000 N   0  0  0  0  0  0  0  0  0  0  0  0
  -12.9012    4.0906   -0.0000 C   0  0  0  0  0  0  0  0  0  0  0  0
  -12.9375    1.5007   -0.0000 C   0  0  0  0  0  0  0  0  0  0  0  0
  -13.6758    2.8199   -0.0000 C   0  0  0  0  0  0  0  0  0  0  0  0
  -13.6516    5.3977   -0.0000 C   0  0  0  0  0  0  0  0  0  0  0  0
  -15.1765    2.8441   -0.0000 C   0  0  0  0  0  0  0  0  0  0  0  0
  -14.3293    6.5958   -0.0000 F   0  0  0  0  0  0  0  0  0  0  0  0
  -13.0949    6.8621   -0.0000 F   0  0  0  0  0  0  0  0  0  0  0  0
  -15.2007    5.6761   -0.0000 F   0  0  0  0  0  0  0  0  0  0  0  0
  -15.9510    1.5733   -0.0000 O   0  0  0  0  0  0  0  0  0  0  0  0
  1  2  2  0  0  0  0
  1  3  2  0  0  0  0
  1  4  1  0  0  0  0
  1  5  1  0  0  0  0
  4  6  2  0  0  0  0
  4  7  1  0  0  0  0
  6  8  1  0  0  0  0
  7  9  2  0  0  0  0
  8 10  1  0  0  0  0
  8 11  2  0  0  0  0
 10 12  1  0  0  0  0
 10 13  1  0  0  0  0
 12 14  2  0  0  0  0
 13 15  2  0  0  0  0
 14 16  1  0  0  0  0
 15 17  1  0  0  0  0
 16 18  1  0  0  0  0
 16 19  1  6  0  0  0
 18 20  1  0  0  0  0
 19 21  1  0  0  0  0
 19 22  1  0  0  0  0
 20 23  2  0  0  0  0
 20 24  1  0  0  0  0
 23 25  1  0  0  0  0
 24 26  2  0  0  0  0
 25 27  2  0  0  0  0
 25 28  1  0  0  0  0
 27 29  1  0  0  0  0
 28 30  1  0  0  0  0
 28 31  1  0  0  0  0
 28 32  1  0  0  0  0
 29 33  1  0  0  0  0
  9 11  1  0  0  0  0
 14 15  1  0  0  0  0
 17 18  1  0  0  0  0
 26 27  1  0  0  0  0
M  END
>  <MolRegNo>
2141540

>  <m>
=

>  <Value>
3050

>  <Unit>
nM

>  <Type>
IC50

>  <pValue>
5.52

>  <Ligand Efficiency>
0

>  <Binding Efficiency>
0

>  <Surface Efficiency>
0

>  <Assay Index>
1031735

>  <Assay Category>


>  <Assay Organism>
Homo sapiens

>  <Target ID>
17045

>  <Target Name>
Cytochrome P450 3A4

>  <Target Organism>
Homo sapiens

>  <Target Description>
Target is a single protein chain

>  <Sequence Accession>
P08684

>  <Reference>
Bioorg Med Chem Lett 26 (20), 5044-5050 (2016)

>  <Pubmed ID>
27599745

>  <DOI>
10.1016/j.bmcl.2016.08.089

$$$$
2142914
Actelion Java MolfileCreator 1.0

 31 34  0  0  0  0  0  0  0  0999 V2000
    0.0000   -0.0000   -0.0000 S   0  0  0  0  0  0  0  0  0  0  0  0
    1.4325    0.4006   -0.0000 O   0  0  0  0  0  0  0  0  0  0  0  0
    1.0440   -1.0440   -0.0000 O   0  0  0  0  0  0  0  0  0  0  0  0
   -0.7527    1.2989   -0.0000 C   0  0  0  0  0  0  0  0  0  0  0  0
   -0.7648   -1.2868   -0.0000 C   0  0  0  0  0  0  0  0  0  0  0  0
   -2.2580    1.3111   -0.0000 C   0  0  0  0  0  0  0  0  0  0  0  0
   -0.0121    2.5979   -0.0000 C   0  0  0  0  0  0  0  0  0  0  0  0
   -3.0228    2.6100   -0.0000 C   0  0  0  0  0  0  0  0  0  0  0  0
   -0.7769    3.9090   -0.0000 C   0  0  0  0  0  0  0  0  0  0  0  0
   -4.5281    2.6222   -0.0000 N   0  0  0  0  0  0  0  0  0  0  0  0
   -2.2823    3.9211   -0.0000 C   0  0  0  0  0  0  0  0  0  0  0  0
   -5.4143    1.4203   -0.0000 N   0  0  0  0  0  0  0  0  0  0  0  0
   -5.4143    3.8483   -0.0000 C   0  0  0  0  0  0  0  0  0  0  0  0
   -6.8468    1.8938   -0.0000 C   0  0  0  0  0  0  0  0  0  0  0  0
   -6.8468    3.3991   -0.0000 C   0  0  0  0  0  0  0  0  0  0  0  0
   -8.2793    1.4446   -0.0000 C   0  0  0  0  0  0  0  0  0  0  0  0
   -8.2793    3.8726   -0.0000 C   0  0  0  0  0  0  0  0  0  0  0  0
   -9.1655    2.6707   -0.0000 N   0  0  0  0  0  0  0  0  0  0  0  0
   -8.7527    0.0486   -0.0000 C   0  0  0  0  0  0  0  0  0  0  0  0
  -10.6708    2.6829   -0.0000 C   0  0  0  0  0  0  0  0  0  0  0  0
  -10.2338   -0.2549   -0.0000 C   0  0  0  0  0  0  0  0  0  0  0  0
   -7.7573   -1.0440   -0.0000 C   0  0  0  0  0  0  0  0  0  0  0  0
  -11.4356    1.4082   -0.0000 N   0  0  0  0  0  0  0  0  0  0  0  0
  -11.4356    3.9940   -0.0000 C   0  0  0  0  0  0  0  0  0  0  0  0
  -12.9409    1.4203   -0.0000 C   0  0  0  0  0  0  0  0  0  0  0  0
  -12.9409    4.0061   -0.0000 C   0  0  0  0  0  0  0  0  0  0  0  0
  -13.7057    2.7193   -0.0000 N   0  0  0  0  0  0  0  0  0  0  0  0
  -13.7057    0.1335   -0.0000 C   0  0  0  0  0  0  0  0  0  0  0  0
  -14.3977   -1.0319   -0.0000 F   0  0  0  0  0  0  0  0  0  0  0  0
  -15.2596   -0.1093   -0.0000 F   0  0  0  0  0  0  0  0  0  0  0  0
  -13.1594   -1.3111   -0.0000 F   0  0  0  0  0  0  0  0  0  0  0  0
  1  2  2  0  0  0  0
  1  3  2  0  0  0  0
  1  4  1  0  0  0  0
  1  5  1  0  0  0  0
  4  6  2  0  0  0  0
  4  7  1  0  0  0  0
  6  8  1  0  0  0  0
  7  9  2  0  0  0  0
  8 10  1  0  0  0  0
  8 11  2  0  0  0  0
 10 12  1  0  0  0  0
 10 13  1  0  0  0  0
 12 14  2  0  0  0  0
 13 15  2  0  0  0  0
 14 16  1  0  0  0  0
 15 17  1  0  0  0  0
 16 18  1  0  0  0  0
 16 19  1  6  0  0  0
 18 20  1  0  0  0  0
 19 21  1  0  0  0  0
 19 22  1  0  0  0  0
 20 23  2  0  0  0  0
 20 24  1  0  0  0  0
 23 25  1  0  0  0  0
 24 26  2  0  0  0  0
 25 27  2  0  0  0  0
 25 28  1  0  0  0  0
 28 29  1  0  0  0  0
 28 30  1  0  0  0  0
 28 31  1  0  0  0  0
  9 11  1  0  0  0  0
 14 15  1  0  0  0  0
 17 18  1  0  0  0  0
 26 27  1  0  0  0  0
M  END
>  <MolRegNo>
2142914

>  <m>
=

>  <Value>
12800

>  <Unit>
nM

>  <Type>
IC50

>  <pValue>
4.89

>  <Ligand Efficiency>
0

>  <Binding Efficiency>
0

>  <Surface Efficiency>
0

>  <Assay Index>
1031735

>  <Assay Category>


>  <Assay Organism>
Homo sapiens

>  <Target ID>
17045

>  <Target Name>
Cytochrome P450 3A4

>  <Target Organism>
Homo sapiens

>  <Target Description>
Target is a single protein chain

>  <Sequence Accession>
P08684

>  <Reference>
Bioorg Med Chem Lett 26 (20), 5044-5050 (2016)

>  <Pubmed ID>
27599745

>  <DOI>
10.1016/j.bmcl.2016.08.089

$$$$
2194962
Actelion Java MolfileCreator 1.0

 32 35  0  0  0  0  0  0  0  0999 V2000
    0.0000   -0.0000   -0.0000 S   0  0  0  0  0  0  0  0  0  0  0  0
    1.4309    0.4002   -0.0000 O   0  0  0  0  0  0  0  0  0  0  0  0
    1.0429   -1.0429   -0.0000 O   0  0  0  0  0  0  0  0  0  0  0  0
   -0.7518    1.2975   -0.0000 C   0  0  0  0  0  0  0  0  0  0  0  0
   -0.7640   -1.2854   -0.0000 C   0  0  0  0  0  0  0  0  0  0  0  0
   -2.2555    1.3097   -0.0000 C   0  0  0  0  0  0  0  0  0  0  0  0
   -0.0121    2.5951   -0.0000 C   0  0  0  0  0  0  0  0  0  0  0  0
   -3.0195    2.6072   -0.0000 C   0  0  0  0  0  0  0  0  0  0  0  0
   -0.7761    3.9047   -0.0000 C   0  0  0  0  0  0  0  0  0  0  0  0
   -4.5232    2.6193   -0.0000 N   0  0  0  0  0  0  0  0  0  0  0  0
   -2.2798    3.9168   -0.0000 C   0  0  0  0  0  0  0  0  0  0  0  0
   -5.4084    1.4188   -0.0000 N   0  0  0  0  0  0  0  0  0  0  0  0
   -5.4084    3.8441   -0.0000 C   0  0  0  0  0  0  0  0  0  0  0  0
   -6.8393    1.8917   -0.0000 C   0  0  0  0  0  0  0  0  0  0  0  0
   -6.8393    3.3954   -0.0000 C   0  0  0  0  0  0  0  0  0  0  0  0
   -8.2702    1.4430   -0.0000 C   0  0  0  0  0  0  0  0  0  0  0  0
   -8.2702    3.8683   -0.0000 C   0  0  0  0  0  0  0  0  0  0  0  0
   -9.1555    2.6678   -0.0000 N   0  0  0  0  0  0  0  0  0  0  0  0
   -8.7432    0.0485   -0.0000 C   0  0  0  0  0  0  0  0  0  0  0  0
  -10.6592    2.6799   -0.0000 C   0  0  0  0  0  0  0  0  0  0  0  0
  -10.2226   -0.2547   -0.0000 C   0  0  0  0  0  0  0  0  0  0  0  0
   -7.7488   -1.0429   -0.0000 C   0  0  0  0  0  0  0  0  0  0  0  0
  -11.4231    1.4067   -0.0000 N   0  0  0  0  0  0  0  0  0  0  0  0
  -11.4231    3.9896   -0.0000 C   0  0  0  0  0  0  0  0  0  0  0  0
  -12.9268    1.4188   -0.0000 C   0  0  0  0  0  0  0  0  0  0  0  0
  -12.9268    4.0017   -0.0000 C   0  0  0  0  0  0  0  0  0  0  0  0
  -13.6908    2.7163   -0.0000 N   0  0  0  0  0  0  0  0  0  0  0  0
  -13.6786    0.1334   -0.0000 C   0  0  0  0  0  0  0  0  0  0  0  0
  -13.6908    5.3114   -0.0000 C   0  0  0  0  0  0  0  0  0  0  0  0
  -14.3820    6.4998   -0.0000 F   0  0  0  0  0  0  0  0  0  0  0  0
  -13.1451    6.7787   -0.0000 F   0  0  0  0  0  0  0  0  0  0  0  0
  -15.2430    5.5660   -0.0000 F   0  0  0  0  0  0  0  0  0  0  0  0
  1  2  2  0  0  0  0
  1  3  2  0  0  0  0
  1  4  1  0  0  0  0
  1  5  1  0  0  0  0
  4  6  2  0  0  0  0
  4  7  1  0  0  0  0
  6  8  1  0  0  0  0
  7  9  2  0  0  0  0
  8 10  1  0  0  0  0
  8 11  2  0  0  0  0
 10 12  1  0  0  0  0
 10 13  1  0  0  0  0
 12 14  2  0  0  0  0
 13 15  2  0  0  0  0
 14 16  1  0  0  0  0
 15 17  1  0  0  0  0
 16 18  1  0  0  0  0
 16 19  1  6  0  0  0
 18 20  1  0  0  0  0
 19 21  1  0  0  0  0
 19 22  1  0  0  0  0
 20 23  2  0  0  0  0
 20 24  1  0  0  0  0
 23 25  1  0  0  0  0
 24 26  2  0  0  0  0
 25 27  2  0  0  0  0
 25 28  1  0  0  0  0
 26 29  1  0  0  0  0
 29 30  1  0  0  0  0
 29 31  1  0  0  0  0
 29 32  1  0  0  0  0
  9 11  1  0  0  0  0
 14 15  1  0  0  0  0
 17 18  1  0  0  0  0
 26 27  1  0  0  0  0
M  END
>  <MolRegNo>
2194962

>  <m>
=

>  <Value>
21100

>  <Unit>
nM

>  <Type>
IC50

>  <pValue>
4.68

>  <Ligand Efficiency>
0

>  <Binding Efficiency>
0

>  <Surface Efficiency>
0

>  <Assay Index>
1031735

>  <Assay Category>


>  <Assay Organism>
Homo sapiens

>  <Target ID>
17045

>  <Target Name>
Cytochrome P450 3A4

>  <Target Organism>
Homo sapiens

>  <Target Description>
Target is a single protein chain

>  <Sequence Accession>
P08684

>  <Reference>
Bioorg Med Chem Lett 26 (20), 5044-5050 (2016)

>  <Pubmed ID>
27599745

>  <DOI>
10.1016/j.bmcl.2016.08.089

$$$$
2124098
Actelion Java MolfileCreator 1.0

 30 33  0  0  0  0  0  0  0  0999 V2000
    0.0000   -0.0000   -0.0000 S   0  0  0  0  0  0  0  0  0  0  0  0
    1.4342    0.3997   -0.0000 O   0  0  0  0  0  0  0  0  0  0  0  0
    1.0463   -1.0345   -0.0000 O   0  0  0  0  0  0  0  0  0  0  0  0
   -0.7524    1.3049   -0.0000 C   0  0  0  0  0  0  0  0  0  0  0  0
   -0.7524   -1.2814   -0.0000 C   0  0  0  0  0  0  0  0  0  0  0  0
   -2.2571    1.3166   -0.0000 C   0  0  0  0  0  0  0  0  0  0  0  0
   -0.0118    2.6097   -0.0000 C   0  0  0  0  0  0  0  0  0  0  0  0
   -3.0212    2.6215   -0.0000 C   0  0  0  0  0  0  0  0  0  0  0  0
   -0.7759    3.9146   -0.0000 C   0  0  0  0  0  0  0  0  0  0  0  0
   -4.5259    2.6333   -0.0000 N   0  0  0  0  0  0  0  0  0  0  0  0
   -2.2806    3.9264   -0.0000 C   0  0  0  0  0  0  0  0  0  0  0  0
   -5.4193    1.4342   -0.0000 N   0  0  0  0  0  0  0  0  0  0  0  0
   -5.4193    3.8558   -0.0000 C   0  0  0  0  0  0  0  0  0  0  0  0
   -6.8535    1.9162   -0.0000 C   0  0  0  0  0  0  0  0  0  0  0  0
   -6.8535    3.3974   -0.0000 C   0  0  0  0  0  0  0  0  0  0  0  0
   -8.2877    1.4577   -0.0000 C   0  0  0  0  0  0  0  0  0  0  0  0
   -8.2877    3.8794   -0.0000 C   0  0  0  0  0  0  0  0  0  0  0  0
   -9.1811    2.6803   -0.0000 N   0  0  0  0  0  0  0  0  0  0  0  0
   -8.7579    0.0588   -0.0000 C   0  0  0  0  0  0  0  0  0  0  0  0
  -10.6859    2.6920   -0.0000 C   0  0  0  0  0  0  0  0  0  0  0  0
  -10.2392   -0.2469   -0.0000 C   0  0  0  0  0  0  0  0  0  0  0  0
   -7.7705   -1.0345   -0.0000 C   0  0  0  0  0  0  0  0  0  0  0  0
  -11.4500    1.4107   -0.0000 N   0  0  0  0  0  0  0  0  0  0  0  0
  -11.4500    3.9969   -0.0000 C   0  0  0  0  0  0  0  0  0  0  0  0
  -12.9547    1.4224   -0.0000 C   0  0  0  0  0  0  0  0  0  0  0  0
  -12.9547    4.0087   -0.0000 C   0  0  0  0  0  0  0  0  0  0  0  0
  -13.7188    2.7273   -0.0000 N   0  0  0  0  0  0  0  0  0  0  0  0
  -13.7071    0.1411   -0.0000 C   0  0  0  0  0  0  0  0  0  0  0  0
  -13.7071    5.3018   -0.0000 O   0  0  0  0  0  0  0  0  0  0  0  0
  -15.2118    5.3135   -0.0000 C   0  0  0  0  0  0  0  0  0  0  0  0
  1  2  2  0  0  0  0
  1  3  2  0  0  0  0
  1  4  1  0  0  0  0
  1  5  1  0  0  0  0
  4  6  2  0  0  0  0
  4  7  1  0  0  0  0
  6  8  1  0  0  0  0
  7  9  2  0  0  0  0
  8 10  1  0  0  0  0
  8 11  2  0  0  0  0
 10 12  1  0  0  0  0
 10 13  1  0  0  0  0
 12 14  2  0  0  0  0
 13 15  2  0  0  0  0
 14 16  1  0  0  0  0
 15 17  1  0  0  0  0
 16 18  1  0  0  0  0
 16 19  1  6  0  0  0
 18 20  1  0  0  0  0
 19 21  1  0  0  0  0
 19 22  1  0  0  0  0
 20 23  2  0  0  0  0
 20 24  1  0  0  0  0
 23 25  1  0  0  0  0
 24 26  2  0  0  0  0
 25 27  2  0  0  0  0
 25 28  1  0  0  0  0
 26 29  1  0  0  0  0
 29 30  1  0  0  0  0
  9 11  1  0  0  0  0
 14 15  1  0  0  0  0
 17 18  1  0  0  0  0
 26 27  1  0  0  0  0
M  END
>  <MolRegNo>
2124098

>  <m>
=

>  <Value>
12920

>  <Unit>
nM

>  <Type>
IC50

>  <pValue>
4.89

>  <Ligand Efficiency>
0

>  <Binding Efficiency>
0

>  <Surface Efficiency>
0

>  <Assay Index>
1031735

>  <Assay Category>


>  <Assay Organism>
Homo sapiens

>  <Target ID>
17045

>  <Target Name>
Cytochrome P450 3A4

>  <Target Organism>
Homo sapiens

>  <Target Description>
Target is a single protein chain

>  <Sequence Accession>
P08684

>  <Reference>
Bioorg Med Chem Lett 26 (20), 5044-5050 (2016)

>  <Pubmed ID>
27599745

>  <DOI>
10.1016/j.bmcl.2016.08.089

$$$$
2181763
Actelion Java MolfileCreator 1.0

 30 33  0  0  0  0  0  0  0  0999 V2000
    0.0000   -0.0000   -0.0000 S   0  0  0  0  0  0  0  0  0  0  0  0
    1.4359    0.4002   -0.0000 O   0  0  0  0  0  0  0  0  0  0  0  0
    1.0475   -1.0357   -0.0000 O   0  0  0  0  0  0  0  0  0  0  0  0
   -0.7533    1.3064   -0.0000 C   0  0  0  0  0  0  0  0  0  0  0  0
   -0.7533   -1.2829   -0.0000 C   0  0  0  0  0  0  0  0  0  0  0  0
   -2.2598    1.3182   -0.0000 C   0  0  0  0  0  0  0  0  0  0  0  0
   -0.0235    2.6129   -0.0000 C   0  0  0  0  0  0  0  0  0  0  0  0
   -3.0130    2.6246   -0.0000 C   0  0  0  0  0  0  0  0  0  0  0  0
   -0.7768    3.9193   -0.0000 C   0  0  0  0  0  0  0  0  0  0  0  0
   -4.5195    2.6364   -0.0000 N   0  0  0  0  0  0  0  0  0  0  0  0
   -2.2833    3.9311   -0.0000 C   0  0  0  0  0  0  0  0  0  0  0  0
   -5.4140    1.4359   -0.0000 N   0  0  0  0  0  0  0  0  0  0  0  0
   -5.4140    3.8604   -0.0000 C   0  0  0  0  0  0  0  0  0  0  0  0
   -6.8499    1.9184   -0.0000 C   0  0  0  0  0  0  0  0  0  0  0  0
   -6.8499    3.4014   -0.0000 C   0  0  0  0  0  0  0  0  0  0  0  0
   -8.2858    1.4594   -0.0000 C   0  0  0  0  0  0  0  0  0  0  0  0
   -8.2858    3.8840   -0.0000 C   0  0  0  0  0  0  0  0  0  0  0  0
   -9.1803    2.6835   -0.0000 N   0  0  0  0  0  0  0  0  0  0  0  0
   -8.7566    0.0588   -0.0000 C   0  0  0  0  0  0  0  0  0  0  0  0
  -10.6868    2.6952   -0.0000 C   0  0  0  0  0  0  0  0  0  0  0  0
  -10.2396   -0.2472   -0.0000 C   0  0  0  0  0  0  0  0  0  0  0  0
   -7.7680   -1.0357   -0.0000 C   0  0  0  0  0  0  0  0  0  0  0  0
  -11.4401    4.0017   -0.0000 N   0  0  0  0  0  0  0  0  0  0  0  0
  -11.4401    1.4124   -0.0000 C   0  0  0  0  0  0  0  0  0  0  0  0
  -12.9466    4.0134   -0.0000 C   0  0  0  0  0  0  0  0  0  0  0  0
  -10.7104    0.1295   -0.0000 F   0  0  0  0  0  0  0  0  0  0  0  0
  -12.9466    1.4241   -0.0000 C   0  0  0  0  0  0  0  0  0  0  0  0
  -13.6998    5.3081   -0.0000 O   0  0  0  0  0  0  0  0  0  0  0  0
  -13.6998    2.7306   -0.0000 N   0  0  0  0  0  0  0  0  0  0  0  0
  -15.2064    5.3199   -0.0000 C   0  0  0  0  0  0  0  0  0  0  0  0
  1  2  2  0  0  0  0
  1  3  2  0  0  0  0
  1  4  1  0  0  0  0
  1  5  1  0  0  0  0
  4  6  2  0  0  0  0
  4  7  1  0  0  0  0
  6  8  1  0  0  0  0
  7  9  2  0  0  0  0
  8 10  1  0  0  0  0
  8 11  2  0  0  0  0
 10 12  1  0  0  0  0
 10 13  1  0  0  0  0
 12 14  2  0  0  0  0
 13 15  2  0  0  0  0
 14 16  1  0  0  0  0
 15 17  1  0  0  0  0
 16 18  1  0  0  0  0
 16 19  1  6  0  0  0
 18 20  1  0  0  0  0
 19 21  1  0  0  0  0
 19 22  1  0  0  0  0
 20 23  2  0  0  0  0
 20 24  1  0  0  0  0
 23 25  1  0  0  0  0
 24 26  1  0  0  0  0
 24 27  2  0  0  0  0
 25 28  1  0  0  0  0
 25 29  2  0  0  0  0
 28 30  1  0  0  0  0
  9 11  1  0  0  0  0
 14 15  1  0  0  0  0
 17 18  1  0  0  0  0
 27 29  1  0  0  0  0
M  END
>  <MolRegNo>
2181763

>  <m>
=

>  <Value>
15400

>  <Unit>
nM

>  <Type>
IC50

>  <pValue>
4.81

>  <Ligand Efficiency>
0

>  <Binding Efficiency>
0

>  <Surface Efficiency>
0

>  <Assay Index>
1031735

>  <Assay Category>


>  <Assay Organism>
Homo sapiens

>  <Target ID>
17045

>  <Target Name>
Cytochrome P450 3A4

>  <Target Organism>
Homo sapiens

>  <Target Description>
Target is a single protein chain

>  <Sequence Accession>
P08684

>  <Reference>
Bioorg Med Chem Lett 26 (20), 5044-5050 (2016)

>  <Pubmed ID>
27599745

>  <DOI>
10.1016/j.bmcl.2016.08.089

$$$$
2115112
Actelion Java MolfileCreator 1.0

 30 33  0  0  0  0  0  0  0  0999 V2000
    0.0000   -0.0000   -0.0000 S   0  0  0  0  0  0  0  0  0  0  0  0
    1.4351    0.4000   -0.0000 O   0  0  0  0  0  0  0  0  0  0  0  0
    1.0469   -1.0352   -0.0000 O   0  0  0  0  0  0  0  0  0  0  0  0
   -0.7529    1.3057   -0.0000 C   0  0  0  0  0  0  0  0  0  0  0  0
   -0.7529   -1.2822   -0.0000 C   0  0  0  0  0  0  0  0  0  0  0  0
   -2.2586    1.3175   -0.0000 C   0  0  0  0  0  0  0  0  0  0  0  0
   -0.0235    2.6115   -0.0000 C   0  0  0  0  0  0  0  0  0  0  0  0
   -3.0114    2.6232   -0.0000 C   0  0  0  0  0  0  0  0  0  0  0  0
   -0.7764    3.9172   -0.0000 C   0  0  0  0  0  0  0  0  0  0  0  0
   -4.5171    2.6350   -0.0000 N   0  0  0  0  0  0  0  0  0  0  0  0
   -2.2821    3.9290   -0.0000 C   0  0  0  0  0  0  0  0  0  0  0  0
   -5.4112    1.4351   -0.0000 N   0  0  0  0  0  0  0  0  0  0  0  0
   -5.4112    3.8584   -0.0000 C   0  0  0  0  0  0  0  0  0  0  0  0
   -6.8463    1.9174   -0.0000 C   0  0  0  0  0  0  0  0  0  0  0  0
   -6.8463    3.3996   -0.0000 C   0  0  0  0  0  0  0  0  0  0  0  0
   -8.2814    1.4587   -0.0000 C   0  0  0  0  0  0  0  0  0  0  0  0
   -8.2814    3.8819   -0.0000 C   0  0  0  0  0  0  0  0  0  0  0  0
   -9.1754    2.6821   -0.0000 N   0  0  0  0  0  0  0  0  0  0  0  0
   -8.7520    0.0588   -0.0000 C   0  0  0  0  0  0  0  0  0  0  0  0
  -10.6812    2.6938   -0.0000 C   0  0  0  0  0  0  0  0  0  0  0  0
  -10.2341   -0.2470   -0.0000 C   0  0  0  0  0  0  0  0  0  0  0  0
   -7.7638   -1.0352   -0.0000 C   0  0  0  0  0  0  0  0  0  0  0  0
  -11.4340    1.4116   -0.0000 N   0  0  0  0  0  0  0  0  0  0  0  0
  -11.4340    3.9996   -0.0000 C   0  0  0  0  0  0  0  0  0  0  0  0
  -12.9397    1.4234   -0.0000 C   0  0  0  0  0  0  0  0  0  0  0  0
  -10.6929    5.3053   -0.0000 F   0  0  0  0  0  0  0  0  0  0  0  0
  -12.9397    4.0113   -0.0000 C   0  0  0  0  0  0  0  0  0  0  0  0
  -13.6926    2.7291   -0.0000 N   0  0  0  0  0  0  0  0  0  0  0  0
  -13.6926    5.3053   -0.0000 O   0  0  0  0  0  0  0  0  0  0  0  0
  -15.1983    5.3171   -0.0000 C   0  0  0  0  0  0  0  0  0  0  0  0
  1  2  2  0  0  0  0
  1  3  2  0  0  0  0
  1  4  1  0  0  0  0
  1  5  1  0  0  0  0
  4  6  2  0  0  0  0
  4  7  1  0  0  0  0
  6  8  1  0  0  0  0
  7  9  2  0  0  0  0
  8 10  1  0  0  0  0
  8 11  2  0  0  0  0
 10 12  1  0  0  0  0
 10 13  1  0  0  0  0
 12 14  2  0  0  0  0
 13 15  2  0  0  0  0
 14 16  1  0  0  0  0
 15 17  1  0  0  0  0
 16 18  1  0  0  0  0
 16 19  1  6  0  0  0
 18 20  1  0  0  0  0
 19 21  1  0  0  0  0
 19 22  1  0  0  0  0
 20 23  2  0  0  0  0
 20 24  1  0  0  0  0
 23 25  1  0  0  0  0
 24 26  1  0  0  0  0
 24 27  2  0  0  0  0
 25 28  2  0  0  0  0
 27 29  1  0  0  0  0
 29 30  1  0  0  0  0
  9 11  1  0  0  0  0
 14 15  1  0  0  0  0
 17 18  1  0  0  0  0
 27 28  1  0  0  0  0
M  END
>  <MolRegNo>
2115112

>  <m>
=

>  <Value>
2500

>  <Unit>
nM

>  <Type>
IC50

>  <pValue>
5.6

>  <Ligand Efficiency>
0

>  <Binding Efficiency>
0

>  <Surface Efficiency>
0

>  <Assay Index>
1031735

>  <Assay Category>


>  <Assay Organism>
Homo sapiens

>  <Target ID>
17045

>  <Target Name>
Cytochrome P450 3A4

>  <Target Organism>
Homo sapiens

>  <Target Description>
Target is a single protein chain

>  <Sequence Accession>
P08684

>  <Reference>
Bioorg Med Chem Lett 26 (20), 5044-5050 (2016)

>  <Pubmed ID>
27599745

>  <DOI>
10.1016/j.bmcl.2016.08.089

$$$$
2184371
Actelion Java MolfileCreator 1.0

 24 26  0  0  0  0  0  0  0  0999 V2000
    0.0000   -0.0000   -0.0000 O   0  0  0  0  0  0  0  0  0  0  0  0
   -0.0119   -1.4944   -0.0000 C   0  0  0  0  0  0  0  0  0  0  0  0
    1.2809   -2.2298   -0.0000 N   0  0  0  0  0  0  0  0  0  0  0  0
   -1.3284   -2.2298   -0.0000 C   0  0  0  0  0  0  0  0  0  0  0  0
    1.2691   -3.7242   -0.0000 C   0  0  0  0  0  0  0  0  0  0  0  0
    2.5738   -1.4707   -0.0000 C   0  0  0  0  0  0  0  0  0  0  0  0
   -1.3403   -3.7242   -0.0000 C   0  0  0  0  0  0  0  0  0  0  0  0
   -2.6449   -1.4707   -0.0000 C   0  0  0  0  0  0  0  0  0  0  0  0
   -0.0474   -4.4596   -0.0000 N   0  0  0  0  0  0  0  0  0  0  0  0
    2.5619   -4.4596   -0.0000 N   0  0  0  0  0  0  0  0  0  0  0  0
   -2.6568   -4.4596   -0.0000 C   0  0  0  0  0  0  0  0  0  0  0  0
   -3.9615   -2.2061   -0.0000 C   0  0  0  0  0  0  0  0  0  0  0  0
    3.8547   -3.7005   -0.0000 C   0  0  0  0  0  0  0  0  0  0  0  0
   -3.9733   -3.7005   -0.0000 C   0  0  0  0  0  0  0  0  0  0  0  0
    5.1475   -4.4359   -0.0000 C   0  0  0  0  0  0  0  0  0  0  0  0
   -5.2898   -4.4359   -0.0000 C   0  0  0  0  0  0  0  0  0  0  0  0
    6.4403   -3.6768   -0.0000 C   0  0  0  0  0  0  0  0  0  0  0  0
    7.7331   -4.4122   -0.0000 C   0  0  0  0  0  0  0  0  0  0  0  0
    6.4285   -2.1586   -0.0000 C   0  0  0  0  0  0  0  0  0  0  0  0
    9.0259   -3.6531   -0.0000 C   0  0  0  0  0  0  0  0  0  0  0  0
    7.7213   -1.3996   -0.0000 C   0  0  0  0  0  0  0  0  0  0  0  0
    9.0141   -2.1349   -0.0000 C   0  0  0  0  0  0  0  0  0  0  0  0
   10.3069   -1.3758   -0.0000 O   0  0  0  0  0  0  0  0  0  0  0  0
   11.5997   -2.1112   -0.0000 C   0  0  0  0  0  0  0  0  0  0  0  0
  1  2  2  0  0  0  0
  2  3  1  0  0  0  0
  2  4  1  0  0  0  0
  3  5  1  0  0  0  0
  3  6  1  0  0  0  0
  4  7  2  0  0  0  0
  4  8  1  0  0  0  0
  5  9  2  0  0  0  0
  5 10  1  0  0  0  0
  7 11  1  0  0  0  0
  8 12  2  0  0  0  0
 10 13  1  0  0  0  0
 11 14  2  0  0  0  0
 13 15  1  0  0  0  0
 14 16  1  0  0  0  0
 15 17  1  0  0  0  0
 17 18  2  0  0  0  0
 17 19  1  0  0  0  0
 18 20  1  0  0  0  0
 19 21  2  0  0  0  0
 20 22  2  0  0  0  0
 22 23  1  0  0  0  0
 23 24  1  0  0  0  0
  7  9  1  0  0  0  0
 12 14  1  0  0  0  0
 21 22  1  0  0  0  0
M  END
>  <MolRegNo>
2184371

>  <m>
=

>  <Value>
4800

>  <Unit>
nM

>  <Type>
IC50

>  <pValue>
5.32

>  <Ligand Efficiency>
0

>  <Binding Efficiency>
0

>  <Surface Efficiency>
0

>  <Assay Index>
1032149

>  <Assay Category>


>  <Assay Organism>
Homo sapiens

>  <Target ID>
17045

>  <Target Name>
Cytochrome P450 3A4

>  <Target Organism>
Homo sapiens

>  <Target Description>
Target is a single protein chain

>  <Sequence Accession>
P08684

>  <Reference>
Bioorg Med Chem Lett 26 (21), 5290-5299 (2016)

>  <Pubmed ID>
27671498

>  <DOI>
10.1016/j.bmcl.2016.09.043

$$$$
2143087
Actelion Java MolfileCreator 1.0

 25 27  0  0  0  0  0  0  0  0999 V2000
    0.0000   -0.0000   -0.0000 O   0  0  0  0  0  0  0  0  0  0  0  0
   -0.0119   -1.4937   -0.0000 C   0  0  0  0  0  0  0  0  0  0  0  0
    1.2803   -2.2287   -0.0000 N   0  0  0  0  0  0  0  0  0  0  0  0
   -1.3277   -2.2287   -0.0000 C   0  0  0  0  0  0  0  0  0  0  0  0
    1.2685   -3.7224   -0.0000 C   0  0  0  0  0  0  0  0  0  0  0  0
    2.5725   -1.4700   -0.0000 C   0  0  0  0  0  0  0  0  0  0  0  0
   -1.3396   -3.7224   -0.0000 C   0  0  0  0  0  0  0  0  0  0  0  0
   -2.6436   -1.4700   -0.0000 C   0  0  0  0  0  0  0  0  0  0  0  0
   -0.0474   -4.4574   -0.0000 N   0  0  0  0  0  0  0  0  0  0  0  0
    2.5607   -4.4574   -0.0000 N   0  0  0  0  0  0  0  0  0  0  0  0
   -2.6555   -4.4574   -0.0000 C   0  0  0  0  0  0  0  0  0  0  0  0
   -3.9595   -2.2050   -0.0000 C   0  0  0  0  0  0  0  0  0  0  0  0
    3.8528   -3.6987   -0.0000 C   0  0  0  0  0  0  0  0  0  0  0  0
   -3.9714   -3.6987   -0.0000 C   0  0  0  0  0  0  0  0  0  0  0  0
    5.1450   -4.4337   -0.0000 C   0  0  0  0  0  0  0  0  0  0  0  0
   -5.2873   -4.4337   -0.0000 O   0  0  0  0  0  0  0  0  0  0  0  0
    6.4372   -3.6750   -0.0000 C   0  0  0  0  0  0  0  0  0  0  0  0
   -6.6032   -3.6750   -0.0000 C   0  0  0  0  0  0  0  0  0  0  0  0
    7.7294   -4.4100   -0.0000 C   0  0  0  0  0  0  0  0  0  0  0  0
    6.4253   -2.1576   -0.0000 C   0  0  0  0  0  0  0  0  0  0  0  0
    9.0216   -3.6513   -0.0000 C   0  0  0  0  0  0  0  0  0  0  0  0
    7.7175   -1.3989   -0.0000 C   0  0  0  0  0  0  0  0  0  0  0  0
    9.0097   -2.1339   -0.0000 C   0  0  0  0  0  0  0  0  0  0  0  0
   10.3019   -1.3752   -0.0000 O   0  0  0  0  0  0  0  0  0  0  0  0
   11.5941   -2.1102   -0.0000 C   0  0  0  0  0  0  0  0  0  0  0  0
  1  2  2  0  0  0  0
  2  3  1  0  0  0  0
  2  4  1  0  0  0  0
  3  5  1  0  0  0  0
  3  6  1  0  0  0  0
  4  7  2  0  0  0  0
  4  8  1  0  0  0  0
  5  9  2  0  0  0  0
  5 10  1  0  0  0  0
  7 11  1  0  0  0  0
  8 12  2  0  0  0  0
 10 13  1  0  0  0  0
 11 14  2  0  0  0  0
 13 15  1  0  0  0  0
 14 16  1  0  0  0  0
 15 17  1  0  0  0  0
 16 18  1  0  0  0  0
 17 19  2  0  0  0  0
 17 20  1  0  0  0  0
 19 21  1  0  0  0  0
 20 22  2  0  0  0  0
 21 23  2  0  0  0  0
 23 24  1  0  0  0  0
 24 25  1  0  0  0  0
  7  9  1  0  0  0  0
 12 14  1  0  0  0  0
 22 23  1  0  0  0  0
M  END
>  <MolRegNo>
2143087

>  <m>
=

>  <Value>
10000

>  <Unit>
nM

>  <Type>
IC50

>  <pValue>
5

>  <Ligand Efficiency>
0

>  <Binding Efficiency>
0

>  <Surface Efficiency>
0

>  <Assay Index>
1032149

>  <Assay Category>


>  <Assay Organism>
Homo sapiens

>  <Target ID>
17045

>  <Target Name>
Cytochrome P450 3A4

>  <Target Organism>
Homo sapiens

>  <Target Description>
Target is a single protein chain

>  <Sequence Accession>
P08684

>  <Reference>
Bioorg Med Chem Lett 26 (21), 5290-5299 (2016)

>  <Pubmed ID>
27671498

>  <DOI>
10.1016/j.bmcl.2016.09.043

$$$$
2100569
Actelion Java MolfileCreator 1.0

 22 24  0  0  0  0  0  0  0  0999 V2000
    0.0000   -0.0000   -0.0000 Cl  0  0  0  0  0  0  0  0  0  0  0  0
    1.2905    0.7695   -0.0000 C   0  0  0  0  0  0  0  0  0  0  0  0
    2.5809    0.0237   -0.0000 C   0  0  0  0  0  0  0  0  0  0  0  0
    1.2786    2.2850   -0.0000 C   0  0  0  0  0  0  0  0  0  0  0  0
    3.8714    0.7932   -0.0000 C   0  0  0  0  0  0  0  0  0  0  0  0
    2.5691    3.0427   -0.0000 C   0  0  0  0  0  0  0  0  0  0  0  0
    5.1619    0.0474   -0.0000 N   0  0  0  0  0  0  0  0  0  0  0  0
    3.8596    2.3086   -0.0000 C   0  0  0  0  0  0  0  0  0  0  0  0
    6.4523    0.8169   -0.0000 C   0  0  0  0  0  0  0  0  0  0  0  0
    5.1500    3.0663   -0.0000 C   0  0  0  0  0  0  0  0  0  0  0  0
    6.4405    2.3323   -0.0000 N   0  0  0  0  0  0  0  0  0  0  0  0
    7.7428    0.0710   -0.0000 N   0  0  0  0  0  0  0  0  0  0  0  0
    5.1382    4.5817   -0.0000 O   0  0  0  0  0  0  0  0  0  0  0  0
    7.7310    3.0900   -0.0000 C   0  0  0  0  0  0  0  0  0  0  0  0
    9.0333    0.8406   -0.0000 C   0  0  0  0  0  0  0  0  0  0  0  0
   10.3237    0.0947   -0.0000 C   0  0  0  0  0  0  0  0  0  0  0  0
   11.6142    0.8643   -0.0000 C   0  0  0  0  0  0  0  0  0  0  0  0
   12.9047    0.1184   -0.0000 C   0  0  0  0  0  0  0  0  0  0  0  0
   11.6024    2.3797   -0.0000 C   0  0  0  0  0  0  0  0  0  0  0  0
   14.1951    0.8879   -0.0000 C   0  0  0  0  0  0  0  0  0  0  0  0
   12.8928    3.1374   -0.0000 C   0  0  0  0  0  0  0  0  0  0  0  0
   14.1833    2.4033   -0.0000 C   0  0  0  0  0  0  0  0  0  0  0  0
  1  2  1  0  0  0  0
  2  3  2  0  0  0  0
  2  4  1  0  0  0  0
  3  5  1  0  0  0  0
  4  6  2  0  0  0  0
  5  7  1  0  0  0  0
  5  8  2  0  0  0  0
  7  9  2  0  0  0  0
  8 10  1  0  0  0  0
  9 11  1  0  0  0  0
  9 12  1  0  0  0  0
 10 13  2  0  0  0  0
 11 14  1  0  0  0  0
 12 15  1  0  0  0  0
 15 16  1  0  0  0  0
 16 17  1  0  0  0  0
 17 18  2  0  0  0  0
 17 19  1  0  0  0  0
 18 20  1  0  0  0  0
 19 21  2  0  0  0  0
 20 22  2  0  0  0  0
  6  8  1  0  0  0  0
 10 11  1  0  0  0  0
 21 22  1  0  0  0  0
M  END
>  <MolRegNo>
2100569

>  <m>
=

>  <Value>
18000

>  <Unit>
nM

>  <Type>
IC50

>  <pValue>
4.75

>  <Ligand Efficiency>
0

>  <Binding Efficiency>
0

>  <Surface Efficiency>
0

>  <Assay Index>
1032149

>  <Assay Category>


>  <Assay Organism>
Homo sapiens

>  <Target ID>
17045

>  <Target Name>
Cytochrome P450 3A4

>  <Target Organism>
Homo sapiens

>  <Target Description>
Target is a single protein chain

>  <Sequence Accession>
P08684

>  <Reference>
Bioorg Med Chem Lett 26 (21), 5290-5299 (2016)

>  <Pubmed ID>
27671498

>  <DOI>
10.1016/j.bmcl.2016.09.043

$$$$
2123136
Actelion Java MolfileCreator 1.0

 28 31  0  0  0  0  0  0  0  0999 V2000
    0.0000   -0.0000   -0.0000 Cl  0  0  0  0  0  0  0  0  0  0  0  0
    1.2906    0.7578   -0.0000 C   0  0  0  0  0  0  0  0  0  0  0  0
    2.5812    0.0237   -0.0000 C   0  0  0  0  0  0  0  0  0  0  0  0
    1.2787    2.2733   -0.0000 C   0  0  0  0  0  0  0  0  0  0  0  0
    3.8718    0.7815   -0.0000 C   0  0  0  0  0  0  0  0  0  0  0  0
    2.5693    3.0429   -0.0000 C   0  0  0  0  0  0  0  0  0  0  0  0
    5.1624    0.0474   -0.0000 N   0  0  0  0  0  0  0  0  0  0  0  0
    3.8599    2.2970   -0.0000 C   0  0  0  0  0  0  0  0  0  0  0  0
    6.4529    0.8051   -0.0000 C   0  0  0  0  0  0  0  0  0  0  0  0
    5.1505    3.0666   -0.0000 C   0  0  0  0  0  0  0  0  0  0  0  0
    6.4411    2.3207   -0.0000 N   0  0  0  0  0  0  0  0  0  0  0  0
    7.7435    0.0710   -0.0000 N   0  0  0  0  0  0  0  0  0  0  0  0
    5.1387    4.5822   -0.0000 O   0  0  0  0  0  0  0  0  0  0  0  0
    7.7317    3.0903   -0.0000 C   0  0  0  0  0  0  0  0  0  0  0  0
    9.0341    0.8288   -0.0000 C   0  0  0  0  0  0  0  0  0  0  0  0
   10.3247    0.0947   -0.0000 C   0  0  0  0  0  0  0  0  0  0  0  0
   11.6153    0.8525   -0.0000 C   0  0  0  0  0  0  0  0  0  0  0  0
   12.9059    0.1184   -0.0000 C   0  0  0  0  0  0  0  0  0  0  0  0
   11.6035    2.3681   -0.0000 C   0  0  0  0  0  0  0  0  0  0  0  0
   14.1965    0.8762   -0.0000 C   0  0  0  0  0  0  0  0  0  0  0  0
   12.8940    3.1377   -0.0000 C   0  0  0  0  0  0  0  0  0  0  0  0
   14.1846    2.3917   -0.0000 C   0  0  0  0  0  0  0  0  0  0  0  0
   15.4752    3.1613   -0.0000 N   0  0  0  0  0  0  0  0  0  0  0  0
   16.7658    2.4154   -0.0000 C   0  0  0  0  0  0  0  0  0  0  0  0
   15.4634    4.6769   -0.0000 C   0  0  0  0  0  0  0  0  0  0  0  0
   18.0564    3.1850   -0.0000 C   0  0  0  0  0  0  0  0  0  0  0  0
   16.7540    5.4465   -0.0000 C   0  0  0  0  0  0  0  0  0  0  0  0
   18.0446    4.7006   -0.0000 O   0  0  0  0  0  0  0  0  0  0  0  0
  1  2  1  0  0  0  0
  2  3  2  0  0  0  0
  2  4  1  0  0  0  0
  3  5  1  0  0  0  0
  4  6  2  0  0  0  0
  5  7  1  0  0  0  0
  5  8  2  0  0  0  0
  7  9  2  0  0  0  0
  8 10  1  0  0  0  0
  9 11  1  0  0  0  0
  9 12  1  0  0  0  0
 10 13  2  0  0  0  0
 11 14  1  0  0  0  0
 12 15  1  0  0  0  0
 15 16  1  0  0  0  0
 16 17  1  0  0  0  0
 17 18  2  0  0  0  0
 17 19  1  0  0  0  0
 18 20  1  0  0  0  0
 19 21  2  0  0  0  0
 20 22  2  0  0  0  0
 22 23  1  0  0  0  0
 23 24  1  0  0  0  0
 23 25  1  0  0  0  0
 24 26  1  0  0  0  0
 25 27  1  0  0  0  0
 26 28  1  0  0  0  0
  6  8  1  0  0  0  0
 10 11  1  0  0  0  0
 21 22  1  0  0  0  0
 27 28  1  0  0  0  0
M  END
>  <MolRegNo>
2123136

>  <m>
=

>  <Value>
11000

>  <Unit>
nM

>  <Type>
IC50

>  <pValue>
4.96

>  <Ligand Efficiency>
0

>  <Binding Efficiency>
0

>  <Surface Efficiency>
0

>  <Assay Index>
1032149

>  <Assay Category>


>  <Assay Organism>
Homo sapiens

>  <Target ID>
17045

>  <Target Name>
Cytochrome P450 3A4

>  <Target Organism>
Homo sapiens

>  <Target Description>
Target is a single protein chain

>  <Sequence Accession>
P08684

>  <Reference>
Bioorg Med Chem Lett 26 (21), 5290-5299 (2016)

>  <Pubmed ID>
27671498

>  <DOI>
10.1016/j.bmcl.2016.09.043

$$$$
2151125
Actelion Java MolfileCreator 1.0

 24 26  0  0  0  0  0  0  0  0999 V2000
    0.0000   -0.0000   -0.0000 Cl  0  0  0  0  0  0  0  0  0  0  0  0
    1.2933    0.7594   -0.0000 C   0  0  0  0  0  0  0  0  0  0  0  0
    2.5865    0.0237   -0.0000 C   0  0  0  0  0  0  0  0  0  0  0  0
    1.2814    2.2781   -0.0000 C   0  0  0  0  0  0  0  0  0  0  0  0
    3.8798    0.7831   -0.0000 C   0  0  0  0  0  0  0  0  0  0  0  0
    2.5747    3.0374   -0.0000 C   0  0  0  0  0  0  0  0  0  0  0  0
    5.1731    0.0475   -0.0000 N   0  0  0  0  0  0  0  0  0  0  0  0
    3.8679    2.3018   -0.0000 C   0  0  0  0  0  0  0  0  0  0  0  0
    6.4663    0.8068   -0.0000 C   0  0  0  0  0  0  0  0  0  0  0  0
    5.1612    3.0611   -0.0000 C   0  0  0  0  0  0  0  0  0  0  0  0
    6.4545    2.3255   -0.0000 N   0  0  0  0  0  0  0  0  0  0  0  0
    7.7596    0.0712   -0.0000 N   0  0  0  0  0  0  0  0  0  0  0  0
    5.1493    4.5798   -0.0000 O   0  0  0  0  0  0  0  0  0  0  0  0
    7.7477    3.0849   -0.0000 C   0  0  0  0  0  0  0  0  0  0  0  0
    9.0529    0.8305   -0.0000 C   0  0  0  0  0  0  0  0  0  0  0  0
   10.3462    0.0949   -0.0000 C   0  0  0  0  0  0  0  0  0  0  0  0
   11.6394    0.8543   -0.0000 C   0  0  0  0  0  0  0  0  0  0  0  0
   11.6276    2.3730   -0.0000 N   0  0  0  0  0  0  0  0  0  0  0  0
   12.9327    0.1186   -0.0000 C   0  0  0  0  0  0  0  0  0  0  0  0
   12.9208    3.1323   -0.0000 C   0  0  0  0  0  0  0  0  0  0  0  0
   14.2260    0.8780   -0.0000 C   0  0  0  0  0  0  0  0  0  0  0  0
   14.2141    2.3967   -0.0000 C   0  0  0  0  0  0  0  0  0  0  0  0
   15.5074    3.1561   -0.0000 O   0  0  0  0  0  0  0  0  0  0  0  0
   16.8006    2.4204   -0.0000 C   0  0  0  0  0  0  0  0  0  0  0  0
  1  2  1  0  0  0  0
  2  3  2  0  0  0  0
  2  4  1  0  0  0  0
  3  5  1  0  0  0  0
  4  6  2  0  0  0  0
  5  7  1  0  0  0  0
  5  8  2  0  0  0  0
  7  9  2  0  0  0  0
  8 10  1  0  0  0  0
  9 11  1  0  0  0  0
  9 12  1  0  0  0  0
 10 13  2  0  0  0  0
 11 14  1  0  0  0  0
 12 15  1  0  0  0  0
 15 16  1  0  0  0  0
 16 17  1  0  0  0  0
 17 18  2  0  0  0  0
 17 19  1  0  0  0  0
 18 20  1  0  0  0  0
 19 21  2  0  0  0  0
 20 22  2  0  0  0  0
 22 23  1  0  0  0  0
 23 24  1  0  0  0  0
  6  8  1  0  0  0  0
 10 11  1  0  0  0  0
 21 22  1  0  0  0  0
M  END
>  <MolRegNo>
2151125

>  <m>
=

>  <Value>
7400

>  <Unit>
nM

>  <Type>
IC50

>  <pValue>
5.13

>  <Ligand Efficiency>
0

>  <Binding Efficiency>
0

>  <Surface Efficiency>
0

>  <Assay Index>
1032149

>  <Assay Category>


>  <Assay Organism>
Homo sapiens

>  <Target ID>
17045

>  <Target Name>
Cytochrome P450 3A4

>  <Target Organism>
Homo sapiens

>  <Target Description>
Target is a single protein chain

>  <Sequence Accession>
P08684

>  <Reference>
Bioorg Med Chem Lett 26 (21), 5290-5299 (2016)

>  <Pubmed ID>
27671498

>  <DOI>
10.1016/j.bmcl.2016.09.043

$$$$
2105192
Actelion Java MolfileCreator 1.0

 29 32  0  0  0  0  0  0  0  0999 V2000
    0.0000   -0.0000   -0.0000 Cl  0  0  0  0  0  0  0  0  0  0  0  0
    1.2904    0.7695   -0.0000 C   0  0  0  0  0  0  0  0  0  0  0  0
    2.5807    0.0237   -0.0000 C   0  0  0  0  0  0  0  0  0  0  0  0
    1.2785    2.2848   -0.0000 C   0  0  0  0  0  0  0  0  0  0  0  0
    3.8711    0.7932   -0.0000 C   0  0  0  0  0  0  0  0  0  0  0  0
    2.5689    3.0424   -0.0000 C   0  0  0  0  0  0  0  0  0  0  0  0
    5.1614    0.0474   -0.0000 N   0  0  0  0  0  0  0  0  0  0  0  0
    3.8592    2.3084   -0.0000 C   0  0  0  0  0  0  0  0  0  0  0  0
    6.4518    0.8168   -0.0000 C   0  0  0  0  0  0  0  0  0  0  0  0
    5.1496    3.0661   -0.0000 C   0  0  0  0  0  0  0  0  0  0  0  0
    6.4400    2.3321   -0.0000 N   0  0  0  0  0  0  0  0  0  0  0  0
    7.7422    0.0710   -0.0000 N   0  0  0  0  0  0  0  0  0  0  0  0
    5.1378    4.5814   -0.0000 O   0  0  0  0  0  0  0  0  0  0  0  0
    7.7303    3.0898   -0.0000 C   0  0  0  0  0  0  0  0  0  0  0  0
    9.0325    0.8405   -0.0000 C   0  0  0  0  0  0  0  0  0  0  0  0
   10.3229    0.0947   -0.0000 C   0  0  0  0  0  0  0  0  0  0  0  0
   11.6132    0.8642   -0.0000 C   0  0  0  0  0  0  0  0  0  0  0  0
   11.6014    2.3795   -0.0000 C   0  0  0  0  0  0  0  0  0  0  0  0
   12.9036    0.1184   -0.0000 C   0  0  0  0  0  0  0  0  0  0  0  0
   12.8918    3.1371   -0.0000 C   0  0  0  0  0  0  0  0  0  0  0  0
   14.1939    0.8879   -0.0000 C   0  0  0  0  0  0  0  0  0  0  0  0
   14.1821    2.4031   -0.0000 C   0  0  0  0  0  0  0  0  0  0  0  0
   15.4725    3.1608   -0.0000 C   0  0  0  0  0  0  0  0  0  0  0  0
   16.7628    2.4268   -0.0000 C   0  0  0  0  0  0  0  0  0  0  0  0
   15.4606    4.6761   -0.0000 C   0  0  0  0  0  0  0  0  0  0  0  0
   18.0532    3.1845   -0.0000 C   0  0  0  0  0  0  0  0  0  0  0  0
   16.7510    5.4456   -0.0000 C   0  0  0  0  0  0  0  0  0  0  0  0
   18.0413    4.6997   -0.0000 C   0  0  0  0  0  0  0  0  0  0  0  0
   19.3317    5.4692   -0.0000 F   0  0  0  0  0  0  0  0  0  0  0  0
  1  2  1  0  0  0  0
  2  3  2  0  0  0  0
  2  4  1  0  0  0  0
  3  5  1  0  0  0  0
  4  6  2  0  0  0  0
  5  7  1  0  0  0  0
  5  8  2  0  0  0  0
  7  9  2  0  0  0  0
  8 10  1  0  0  0  0
  9 11  1  0  0  0  0
  9 12  1  0  0  0  0
 10 13  2  0  0  0  0
 11 14  1  0  0  0  0
 12 15  1  0  0  0  0
 15 16  1  0  0  0  0
 16 17  1  0  0  0  0
 17 18  2  0  0  0  0
 17 19  1  0  0  0  0
 18 20  1  0  0  0  0
 19 21  2  0  0  0  0
 20 22  2  0  0  0  0
 22 23  1  0  0  0  0
 23 24  2  0  0  0  0
 23 25  1  0  0  0  0
 24 26  1  0  0  0  0
 25 27  2  0  0  0  0
 26 28  2  0  0  0  0
 28 29  1  0  0  0  0
  6  8  1  0  0  0  0
 10 11  1  0  0  0  0
 21 22  1  0  0  0  0
 27 28  1  0  0  0  0
M  END
>  <MolRegNo>
2105192

>  <m>
=

>  <Value>
18000

>  <Unit>
nM

>  <Type>
IC50

>  <pValue>
4.75

>  <Ligand Efficiency>
0

>  <Binding Efficiency>
0

>  <Surface Efficiency>
0

>  <Assay Index>
1032149

>  <Assay Category>


>  <Assay Organism>
Homo sapiens

>  <Target ID>
17045

>  <Target Name>
Cytochrome P450 3A4

>  <Target Organism>
Homo sapiens

>  <Target Description>
Target is a single protein chain

>  <Sequence Accession>
P08684

>  <Reference>
Bioorg Med Chem Lett 26 (21), 5290-5299 (2016)

>  <Pubmed ID>
27671498

>  <DOI>
10.1016/j.bmcl.2016.09.043

$$$$
2133194
Actelion Java MolfileCreator 1.0

 30 33  0  0  0  0  0  0  0  0999 V2000
    0.0000   -0.0000   -0.0000 Cl  0  0  0  0  0  0  0  0  0  0  0  0
    1.2929    0.7592   -0.0000 C   0  0  0  0  0  0  0  0  0  0  0  0
    2.5859    0.0237   -0.0000 C   0  0  0  0  0  0  0  0  0  0  0  0
    1.2811    2.2775   -0.0000 C   0  0  0  0  0  0  0  0  0  0  0  0
    3.8788    0.7829   -0.0000 C   0  0  0  0  0  0  0  0  0  0  0  0
    2.5740    3.0366   -0.0000 C   0  0  0  0  0  0  0  0  0  0  0  0
    5.1718    0.0474   -0.0000 N   0  0  0  0  0  0  0  0  0  0  0  0
    3.8670    2.3012   -0.0000 C   0  0  0  0  0  0  0  0  0  0  0  0
    6.4647    0.8066   -0.0000 C   0  0  0  0  0  0  0  0  0  0  0  0
    5.1599    3.0604   -0.0000 C   0  0  0  0  0  0  0  0  0  0  0  0
    6.4529    2.3249   -0.0000 N   0  0  0  0  0  0  0  0  0  0  0  0
    7.7577    0.0712   -0.0000 N   0  0  0  0  0  0  0  0  0  0  0  0
    5.1481    4.5787   -0.0000 O   0  0  0  0  0  0  0  0  0  0  0  0
    7.7458    3.0841   -0.0000 C   0  0  0  0  0  0  0  0  0  0  0  0
    9.0506    0.8303   -0.0000 C   0  0  0  0  0  0  0  0  0  0  0  0
   10.3436    0.0949   -0.0000 C   0  0  0  0  0  0  0  0  0  0  0  0
   11.6365    0.8541   -0.0000 C   0  0  0  0  0  0  0  0  0  0  0  0
   11.6247    2.3724   -0.0000 C   0  0  0  0  0  0  0  0  0  0  0  0
   12.9295    0.1186   -0.0000 C   0  0  0  0  0  0  0  0  0  0  0  0
   12.9176    3.1315   -0.0000 C   0  0  0  0  0  0  0  0  0  0  0  0
   14.2224    0.8778   -0.0000 C   0  0  0  0  0  0  0  0  0  0  0  0
   14.2105    2.3961   -0.0000 C   0  0  0  0  0  0  0  0  0  0  0  0
   15.5035    3.1553   -0.0000 C   0  0  0  0  0  0  0  0  0  0  0  0
   16.7964    2.4198   -0.0000 C   0  0  0  0  0  0  0  0  0  0  0  0
   15.4916    4.6736   -0.0000 C   0  0  0  0  0  0  0  0  0  0  0  0
   18.0894    3.1790   -0.0000 C   0  0  0  0  0  0  0  0  0  0  0  0
   16.7846    5.4327   -0.0000 C   0  0  0  0  0  0  0  0  0  0  0  0
   18.0775    4.6973   -0.0000 C   0  0  0  0  0  0  0  0  0  0  0  0
   19.3705    5.4565   -0.0000 O   0  0  0  0  0  0  0  0  0  0  0  0
   20.6634    4.7210   -0.0000 C   0  0  0  0  0  0  0  0  0  0  0  0
  1  2  1  0  0  0  0
  2  3  2  0  0  0  0
  2  4  1  0  0  0  0
  3  5  1  0  0  0  0
  4  6  2  0  0  0  0
  5  7  1  0  0  0  0
  5  8  2  0  0  0  0
  7  9  2  0  0  0  0
  8 10  1  0  0  0  0
  9 11  1  0  0  0  0
  9 12  1  0  0  0  0
 10 13  2  0  0  0  0
 11 14  1  0  0  0  0
 12 15  1  0  0  0  0
 15 16  1  0  0  0  0
 16 17  1  0  0  0  0
 17 18  2  0  0  0  0
 17 19  1  0  0  0  0
 18 20  1  0  0  0  0
 19 21  2  0  0  0  0
 20 22  2  0  0  0  0
 22 23  1  0  0  0  0
 23 24  2  0  0  0  0
 23 25  1  0  0  0  0
 24 26  1  0  0  0  0
 25 27  2  0  0  0  0
 26 28  2  0  0  0  0
 28 29  1  0  0  0  0
 29 30  1  0  0  0  0
  6  8  1  0  0  0  0
 10 11  1  0  0  0  0
 21 22  1  0  0  0  0
 27 28  1  0  0  0  0
M  END
>  <MolRegNo>
2133194

>  <m>
=

>  <Value>
7900

>  <Unit>
nM

>  <Type>
IC50

>  <pValue>
5.1

>  <Ligand Efficiency>
0

>  <Binding Efficiency>
0

>  <Surface Efficiency>
0

>  <Assay Index>
1032149

>  <Assay Category>


>  <Assay Organism>
Homo sapiens

>  <Target ID>
17045

>  <Target Name>
Cytochrome P450 3A4

>  <Target Organism>
Homo sapiens

>  <Target Description>
Target is a single protein chain

>  <Sequence Accession>
P08684

>  <Reference>
Bioorg Med Chem Lett 26 (21), 5290-5299 (2016)

>  <Pubmed ID>
27671498

>  <DOI>
10.1016/j.bmcl.2016.09.043

$$$$
2193978
Actelion Java MolfileCreator 1.0

 28 31  0  0  0  0  0  0  0  0999 V2000
    0.0000   -0.0000   -0.0000 Cl  0  0  0  0  0  0  0  0  0  0  0  0
    1.2926    0.7589   -0.0000 C   0  0  0  0  0  0  0  0  0  0  0  0
    2.5852    0.0237   -0.0000 C   0  0  0  0  0  0  0  0  0  0  0  0
    1.2807    2.2768   -0.0000 C   0  0  0  0  0  0  0  0  0  0  0  0
    3.8777    0.7827   -0.0000 C   0  0  0  0  0  0  0  0  0  0  0  0
    2.5733    3.0358   -0.0000 C   0  0  0  0  0  0  0  0  0  0  0  0
    5.1703    0.0474   -0.0000 N   0  0  0  0  0  0  0  0  0  0  0  0
    3.8659    2.3006   -0.0000 C   0  0  0  0  0  0  0  0  0  0  0  0
    6.4629    0.8064   -0.0000 C   0  0  0  0  0  0  0  0  0  0  0  0
    5.1585    3.0595   -0.0000 C   0  0  0  0  0  0  0  0  0  0  0  0
    6.4510    2.3243   -0.0000 N   0  0  0  0  0  0  0  0  0  0  0  0
    7.7555    0.0712   -0.0000 N   0  0  0  0  0  0  0  0  0  0  0  0
    5.1466    4.5774   -0.0000 O   0  0  0  0  0  0  0  0  0  0  0  0
    7.7436    3.0832   -0.0000 C   0  0  0  0  0  0  0  0  0  0  0  0
    9.0481    0.8301   -0.0000 C   0  0  0  0  0  0  0  0  0  0  0  0
   10.3406    0.0949   -0.0000 C   0  0  0  0  0  0  0  0  0  0  0  0
   11.6332    0.8538   -0.0000 C   0  0  0  0  0  0  0  0  0  0  0  0
   12.9258    0.1186   -0.0000 C   0  0  0  0  0  0  0  0  0  0  0  0
   11.6214    2.3717   -0.0000 C   0  0  0  0  0  0  0  0  0  0  0  0
   14.2184    0.8775   -0.0000 C   0  0  0  0  0  0  0  0  0  0  0  0
   12.9139    3.1307   -0.0000 C   0  0  0  0  0  0  0  0  0  0  0  0
   14.2065    2.3954   -0.0000 C   0  0  0  0  0  0  0  0  0  0  0  0
   15.4991    3.1544   -0.0000 C   0  0  0  0  0  0  0  0  0  0  0  0
   15.4872    4.6723   -0.0000 N   0  0  0  0  0  0  0  0  0  0  0  0
   16.7917    2.4191   -0.0000 C   0  0  0  0  0  0  0  0  0  0  0  0
   16.7798    5.4312   -0.0000 C   0  0  0  0  0  0  0  0  0  0  0  0
   18.0843    3.1781   -0.0000 C   0  0  0  0  0  0  0  0  0  0  0  0
   18.0724    4.6960   -0.0000 C   0  0  0  0  0  0  0  0  0  0  0  0
  1  2  1  0  0  0  0
  2  3  2  0  0  0  0
  2  4  1  0  0  0  0
  3  5  1  0  0  0  0
  4  6  2  0  0  0  0
  5  7  1  0  0  0  0
  5  8  2  0  0  0  0
  7  9  2  0  0  0  0
  8 10  1  0  0  0  0
  9 11  1  0  0  0  0
  9 12  1  0  0  0  0
 10 13  2  0  0  0  0
 11 14  1  0  0  0  0
 12 15  1  0  0  0  0
 15 16  1  0  0  0  0
 16 17  1  0  0  0  0
 17 18  2  0  0  0  0
 17 19  1  0  0  0  0
 18 20  1  0  0  0  0
 19 21  2  0  0  0  0
 20 22  2  0  0  0  0
 22 23  1  0  0  0  0
 23 24  2  0  0  0  0
 23 25  1  0  0  0  0
 24 26  1  0  0  0  0
 25 27  2  0  0  0  0
 26 28  2  0  0  0  0
  6  8  1  0  0  0  0
 10 11  1  0  0  0  0
 21 22  1  0  0  0  0
 27 28  1  0  0  0  0
M  END
>  <MolRegNo>
2193978

>  <m>
=

>  <Value>
5800

>  <Unit>
nM

>  <Type>
IC50

>  <pValue>
5.24

>  <Ligand Efficiency>
0

>  <Binding Efficiency>
0

>  <Surface Efficiency>
0

>  <Assay Index>
1032149

>  <Assay Category>


>  <Assay Organism>
Homo sapiens

>  <Target ID>
17045

>  <Target Name>
Cytochrome P450 3A4

>  <Target Organism>
Homo sapiens

>  <Target Description>
Target is a single protein chain

>  <Sequence Accession>
P08684

>  <Reference>
Bioorg Med Chem Lett 26 (21), 5290-5299 (2016)

>  <Pubmed ID>
27671498

>  <DOI>
10.1016/j.bmcl.2016.09.043

$$$$
2124166
Actelion Java MolfileCreator 1.0

 29 32  0  0  0  0  0  0  0  0999 V2000
    0.0000   -0.0000   -0.0000 Cl  0  0  0  0  0  0  0  0  0  0  0  0
    1.2888    0.7685   -0.0000 C   0  0  0  0  0  0  0  0  0  0  0  0
    2.5775    0.0236   -0.0000 C   0  0  0  0  0  0  0  0  0  0  0  0
    1.2769    2.2819   -0.0000 C   0  0  0  0  0  0  0  0  0  0  0  0
    3.8663    0.7922   -0.0000 C   0  0  0  0  0  0  0  0  0  0  0  0
    2.5657    3.0504   -0.0000 C   0  0  0  0  0  0  0  0  0  0  0  0
    5.1550    0.0473   -0.0000 N   0  0  0  0  0  0  0  0  0  0  0  0
    3.8544    2.3056   -0.0000 C   0  0  0  0  0  0  0  0  0  0  0  0
    6.4438    0.8158   -0.0000 C   0  0  0  0  0  0  0  0  0  0  0  0
    5.1432    3.0741   -0.0000 C   0  0  0  0  0  0  0  0  0  0  0  0
    6.4320    2.3292   -0.0000 N   0  0  0  0  0  0  0  0  0  0  0  0
    7.7325    0.0709   -0.0000 N   0  0  0  0  0  0  0  0  0  0  0  0
    5.1314    4.5875   -0.0000 O   0  0  0  0  0  0  0  0  0  0  0  0
    7.7207    3.0977   -0.0000 C   0  0  0  0  0  0  0  0  0  0  0  0
    9.0213    0.8395   -0.0000 C   0  0  0  0  0  0  0  0  0  0  0  0
   10.3100    0.0946   -0.0000 C   0  0  0  0  0  0  0  0  0  0  0  0
   11.5988    0.8631   -0.0000 C   0  0  0  0  0  0  0  0  0  0  0  0
   12.8876    0.1182   -0.0000 C   0  0  0  0  0  0  0  0  0  0  0  0
   11.5870    2.3765   -0.0000 C   0  0  0  0  0  0  0  0  0  0  0  0
   14.1763    0.8868   -0.0000 C   0  0  0  0  0  0  0  0  0  0  0  0
   12.8757    3.1450   -0.0000 C   0  0  0  0  0  0  0  0  0  0  0  0
   14.1645    2.4002   -0.0000 C   0  0  0  0  0  0  0  0  0  0  0  0
   15.4532    3.1687   -0.0000 C   0  0  0  0  0  0  0  0  0  0  0  0
   15.4414    4.6821   -0.0000 N   0  0  0  0  0  0  0  0  0  0  0  0
   16.7420    2.4238   -0.0000 C   0  0  0  0  0  0  0  0  0  0  0  0
   16.7302    5.4506   -0.0000 C   0  0  0  0  0  0  0  0  0  0  0  0
   18.0308    3.1923   -0.0000 C   0  0  0  0  0  0  0  0  0  0  0  0
   18.0189    4.7057   -0.0000 C   0  0  0  0  0  0  0  0  0  0  0  0
   19.3077    5.4743   -0.0000 F   0  0  0  0  0  0  0  0  0  0  0  0
  1  2  1  0  0  0  0
  2  3  2  0  0  0  0
  2  4  1  0  0  0  0
  3  5  1  0  0  0  0
  4  6  2  0  0  0  0
  5  7  1  0  0  0  0
  5  8  2  0  0  0  0
  7  9  2  0  0  0  0
  8 10  1  0  0  0  0
  9 11  1  0  0  0  0
  9 12  1  0  0  0  0
 10 13  2  0  0  0  0
 11 14  1  0  0  0  0
 12 15  1  0  0  0  0
 15 16  1  0  0  0  0
 16 17  1  0  0  0  0
 17 18  2  0  0  0  0
 17 19  1  0  0  0  0
 18 20  1  0  0  0  0
 19 21  2  0  0  0  0
 20 22  2  0  0  0  0
 22 23  1  0  0  0  0
 23 24  2  0  0  0  0
 23 25  1  0  0  0  0
 24 26  1  0  0  0  0
 25 27  2  0  0  0  0
 26 28  2  0  0  0  0
 28 29  1  0  0  0  0
  6  8  1  0  0  0  0
 10 11  1  0  0  0  0
 21 22  1  0  0  0  0
 27 28  1  0  0  0  0
M  END
>  <MolRegNo>
2124166

>  <m>
=

>  <Value>
9300

>  <Unit>
nM

>  <Type>
IC50

>  <pValue>
5.03

>  <Ligand Efficiency>
0

>  <Binding Efficiency>
0

>  <Surface Efficiency>
0

>  <Assay Index>
1032149

>  <Assay Category>


>  <Assay Organism>
Homo sapiens

>  <Target ID>
17045

>  <Target Name>
Cytochrome P450 3A4

>  <Target Organism>
Homo sapiens

>  <Target Description>
Target is a single protein chain

>  <Sequence Accession>
P08684

>  <Reference>
Bioorg Med Chem Lett 26 (21), 5290-5299 (2016)

>  <Pubmed ID>
27671498

>  <DOI>
10.1016/j.bmcl.2016.09.043

$$$$
2158851
Actelion Java MolfileCreator 1.0

 29 32  0  0  0  0  0  0  0  0999 V2000
    0.0000   -0.0000   -0.0000 Cl  0  0  0  0  0  0  0  0  0  0  0  0
   -1.3070   -0.7300   -0.0000 C   0  0  0  0  0  0  0  0  0  0  0  0
   -2.6140    0.0235   -0.0000 C   0  0  0  0  0  0  0  0  0  0  0  0
   -1.3188   -2.2136   -0.0000 C   0  0  0  0  0  0  0  0  0  0  0  0
   -3.9210   -0.7065   -0.0000 N   0  0  0  0  0  0  0  0  0  0  0  0
   -2.6257   -2.9437   -0.0000 C   0  0  0  0  0  0  0  0  0  0  0  0
   -3.9327   -2.1901   -0.0000 C   0  0  0  0  0  0  0  0  0  0  0  0
   -5.2397   -2.9201   -0.0000 C   0  0  0  0  0  0  0  0  0  0  0  0
   -5.2515   -4.4037   -0.0000 C   0  0  0  0  0  0  0  0  0  0  0  0
   -6.5467   -2.1665   -0.0000 C   0  0  0  0  0  0  0  0  0  0  0  0
   -6.5585   -5.1337   -0.0000 C   0  0  0  0  0  0  0  0  0  0  0  0
   -7.8537   -2.8966   -0.0000 C   0  0  0  0  0  0  0  0  0  0  0  0
   -7.8655   -4.3802   -0.0000 C   0  0  0  0  0  0  0  0  0  0  0  0
   -9.1724   -5.1102   -0.0000 C   0  0  0  0  0  0  0  0  0  0  0  0
  -10.4794   -4.3566   -0.0000 C   0  0  0  0  0  0  0  0  0  0  0  0
  -11.7864   -5.0866   -0.0000 N   0  0  0  0  0  0  0  0  0  0  0  0
  -13.0934   -4.3331   -0.0000 C   0  0  0  0  0  0  0  0  0  0  0  0
  -14.4004   -5.0631   -0.0000 N   0  0  0  0  0  0  0  0  0  0  0  0
  -13.1052   -2.8259   -0.0000 N   0  0  0  0  0  0  0  0  0  0  0  0
  -15.7074   -4.3095   -0.0000 C   0  0  0  0  0  0  0  0  0  0  0  0
  -14.4121   -2.0723   -0.0000 C   0  0  0  0  0  0  0  0  0  0  0  0
  -11.8217   -2.0723   -0.0000 C   0  0  0  0  0  0  0  0  0  0  0  0
  -15.7191   -2.8024   -0.0000 C   0  0  0  0  0  0  0  0  0  0  0  0
  -17.0143   -5.0395   -0.0000 C   0  0  0  0  0  0  0  0  0  0  0  0
  -14.4239   -0.5652   -0.0000 O   0  0  0  0  0  0  0  0  0  0  0  0
  -17.0261   -2.0488   -0.0000 C   0  0  0  0  0  0  0  0  0  0  0  0
  -18.3213   -4.2860   -0.0000 C   0  0  0  0  0  0  0  0  0  0  0  0
  -18.3331   -2.7788   -0.0000 C   0  0  0  0  0  0  0  0  0  0  0  0
  -19.6283   -5.0160   -0.0000 Cl  0  0  0  0  0  0  0  0  0  0  0  0
  1  2  1  0  0  0  0
  2  3  2  0  0  0  0
  2  4  1  0  0  0  0
  3  5  1  0  0  0  0
  4  6  2  0  0  0  0
  5  7  2  0  0  0  0
  7  8  1  0  0  0  0
  8  9  2  0  0  0  0
  8 10  1  0  0  0  0
  9 11  1  0  0  0  0
 10 12  2  0  0  0  0
 11 13  2  0  0  0  0
 13 14  1  0  0  0  0
 14 15  1  0  0  0  0
 15 16  1  0  0  0  0
 16 17  1  0  0  0  0
 17 18  2  0  0  0  0
 17 19  1  0  0  0  0
 18 20  1  0  0  0  0
 19 21  1  0  0  0  0
 19 22  1  0  0  0  0
 20 23  2  0  0  0  0
 20 24  1  0  0  0  0
 21 25  2  0  0  0  0
 23 26  1  0  0  0  0
 24 27  2  0  0  0  0
 26 28  2  0  0  0  0
 27 29  1  0  0  0  0
  6  7  1  0  0  0  0
 12 13  1  0  0  0  0
 21 23  1  0  0  0  0
 27 28  1  0  0  0  0
M  END
>  <MolRegNo>
2158851

>  <m>
=

>  <Value>
8400

>  <Unit>
nM

>  <Type>
IC50

>  <pValue>
5.08

>  <Ligand Efficiency>
0

>  <Binding Efficiency>
0

>  <Surface Efficiency>
0

>  <Assay Index>
1032149

>  <Assay Category>


>  <Assay Organism>
Homo sapiens

>  <Target ID>
17045

>  <Target Name>
Cytochrome P450 3A4

>  <Target Organism>
Homo sapiens

>  <Target Description>
Target is a single protein chain

>  <Sequence Accession>
P08684

>  <Reference>
Bioorg Med Chem Lett 26 (21), 5290-5299 (2016)

>  <Pubmed ID>
27671498

>  <DOI>
10.1016/j.bmcl.2016.09.043

$$$$
2148573
Actelion Java MolfileCreator 1.0

 28 31  0  0  0  0  0  0  0  0999 V2000
    0.0000   -0.0000   -0.0000 Cl  0  0  0  0  0  0  0  0  0  0  0  0
    1.2904    0.7695   -0.0000 C   0  0  0  0  0  0  0  0  0  0  0  0
    2.5808    0.0237   -0.0000 C   0  0  0  0  0  0  0  0  0  0  0  0
    1.2786    2.2849   -0.0000 C   0  0  0  0  0  0  0  0  0  0  0  0
    3.8713    0.7932   -0.0000 C   0  0  0  0  0  0  0  0  0  0  0  0
    2.5690    3.0426   -0.0000 C   0  0  0  0  0  0  0  0  0  0  0  0
    5.1617    0.0474   -0.0000 N   0  0  0  0  0  0  0  0  0  0  0  0
    3.8594    2.3086   -0.0000 C   0  0  0  0  0  0  0  0  0  0  0  0
    6.4521    0.8169   -0.0000 C   0  0  0  0  0  0  0  0  0  0  0  0
    5.1499    3.0662   -0.0000 C   0  0  0  0  0  0  0  0  0  0  0  0
    6.4403    2.3322   -0.0000 N   0  0  0  0  0  0  0  0  0  0  0  0
    7.7425    0.0710   -0.0000 N   0  0  0  0  0  0  0  0  0  0  0  0
    5.1380    4.5816   -0.0000 O   0  0  0  0  0  0  0  0  0  0  0  0
    7.7307    3.0899   -0.0000 C   0  0  0  0  0  0  0  0  0  0  0  0
    9.0330    0.8406   -0.0000 C   0  0  0  0  0  0  0  0  0  0  0  0
   10.3234    0.0947   -0.0000 C   0  0  0  0  0  0  0  0  0  0  0  0
   11.6138    0.8642   -0.0000 C   0  0  0  0  0  0  0  0  0  0  0  0
   12.9042    0.1184   -0.0000 C   0  0  0  0  0  0  0  0  0  0  0  0
   11.6020    2.3796   -0.0000 C   0  0  0  0  0  0  0  0  0  0  0  0
   14.1947    0.8879   -0.0000 C   0  0  0  0  0  0  0  0  0  0  0  0
   12.8924    3.1373   -0.0000 C   0  0  0  0  0  0  0  0  0  0  0  0
   14.1828    2.4033   -0.0000 C   0  0  0  0  0  0  0  0  0  0  0  0
   15.4733    3.1609   -0.0000 C   0  0  0  0  0  0  0  0  0  0  0  0
   16.7637    2.4269   -0.0000 N   0  0  0  0  0  0  0  0  0  0  0  0
   15.4614    4.6763   -0.0000 N   0  0  0  0  0  0  0  0  0  0  0  0
   18.0541    3.1846   -0.0000 C   0  0  0  0  0  0  0  0  0  0  0  0
   16.7518    5.4458   -0.0000 C   0  0  0  0  0  0  0  0  0  0  0  0
   18.0423    4.7000   -0.0000 C   0  0  0  0  0  0  0  0  0  0  0  0
  1  2  1  0  0  0  0
  2  3  2  0  0  0  0
  2  4  1  0  0  0  0
  3  5  1  0  0  0  0
  4  6  2  0  0  0  0
  5  7  1  0  0  0  0
  5  8  2  0  0  0  0
  7  9  2  0  0  0  0
  8 10  1  0  0  0  0
  9 11  1  0  0  0  0
  9 12  1  0  0  0  0
 10 13  2  0  0  0  0
 11 14  1  0  0  0  0
 12 15  1  0  0  0  0
 15 16  1  0  0  0  0
 16 17  1  0  0  0  0
 17 18  2  0  0  0  0
 17 19  1  0  0  0  0
 18 20  1  0  0  0  0
 19 21  2  0  0  0  0
 20 22  2  0  0  0  0
 22 23  1  0  0  0  0
 23 24  2  0  0  0  0
 23 25  1  0  0  0  0
 24 26  1  0  0  0  0
 25 27  2  0  0  0  0
 26 28  2  0  0  0  0
  6  8  1  0  0  0  0
 10 11  1  0  0  0  0
 21 22  1  0  0  0  0
 27 28  1  0  0  0  0
M  END
>  <MolRegNo>
2148573

>  <m>
=

>  <Value>
5400

>  <Unit>
nM

>  <Type>
IC50

>  <pValue>
5.27

>  <Ligand Efficiency>
0

>  <Binding Efficiency>
0

>  <Surface Efficiency>
0

>  <Assay Index>
1032149

>  <Assay Category>


>  <Assay Organism>
Homo sapiens

>  <Target ID>
17045

>  <Target Name>
Cytochrome P450 3A4

>  <Target Organism>
Homo sapiens

>  <Target Description>
Target is a single protein chain

>  <Sequence Accession>
P08684

>  <Reference>
Bioorg Med Chem Lett 26 (21), 5290-5299 (2016)

>  <Pubmed ID>
27671498

>  <DOI>
10.1016/j.bmcl.2016.09.043

$$$$
2167070
Actelion Java MolfileCreator 1.0

 29 32  0  0  0  0  0  0  0  0999 V2000
    0.0000   -0.0000   -0.0000 Cl  0  0  0  0  0  0  0  0  0  0  0  0
    1.2888    0.7685   -0.0000 C   0  0  0  0  0  0  0  0  0  0  0  0
    2.5775    0.0236   -0.0000 C   0  0  0  0  0  0  0  0  0  0  0  0
    1.2769    2.2819   -0.0000 C   0  0  0  0  0  0  0  0  0  0  0  0
    3.8663    0.7922   -0.0000 C   0  0  0  0  0  0  0  0  0  0  0  0
    2.5657    3.0504   -0.0000 C   0  0  0  0  0  0  0  0  0  0  0  0
    5.1550    0.0473   -0.0000 N   0  0  0  0  0  0  0  0  0  0  0  0
    3.8544    2.3056   -0.0000 C   0  0  0  0  0  0  0  0  0  0  0  0
    6.4438    0.8158   -0.0000 C   0  0  0  0  0  0  0  0  0  0  0  0
    5.1432    3.0741   -0.0000 C   0  0  0  0  0  0  0  0  0  0  0  0
    6.4320    2.3292   -0.0000 N   0  0  0  0  0  0  0  0  0  0  0  0
    7.7325    0.0709   -0.0000 N   0  0  0  0  0  0  0  0  0  0  0  0
    5.1314    4.5875   -0.0000 O   0  0  0  0  0  0  0  0  0  0  0  0
    7.7207    3.0977   -0.0000 C   0  0  0  0  0  0  0  0  0  0  0  0
    9.0213    0.8395   -0.0000 C   0  0  0  0  0  0  0  0  0  0  0  0
   10.3100    0.0946   -0.0000 C   0  0  0  0  0  0  0  0  0  0  0  0
   11.5988    0.8631   -0.0000 C   0  0  0  0  0  0  0  0  0  0  0  0
   12.8876    0.1182   -0.0000 C   0  0  0  0  0  0  0  0  0  0  0  0
   11.5870    2.3765   -0.0000 C   0  0  0  0  0  0  0  0  0  0  0  0
   14.1763    0.8868   -0.0000 C   0  0  0  0  0  0  0  0  0  0  0  0
   12.8757    3.1450   -0.0000 C   0  0  0  0  0  0  0  0  0  0  0  0
   14.1645    2.4002   -0.0000 C   0  0  0  0  0  0  0  0  0  0  0  0
   15.4532    3.1687   -0.0000 C   0  0  0  0  0  0  0  0  0  0  0  0
   16.7420    2.4238   -0.0000 N   0  0  0  0  0  0  0  0  0  0  0  0
   15.4414    4.6821   -0.0000 N   0  0  0  0  0  0  0  0  0  0  0  0
   18.0308    3.1923   -0.0000 C   0  0  0  0  0  0  0  0  0  0  0  0
   16.7302    5.4506   -0.0000 C   0  0  0  0  0  0  0  0  0  0  0  0
   18.0189    4.7057   -0.0000 C   0  0  0  0  0  0  0  0  0  0  0  0
   19.3077    5.4743   -0.0000 F   0  0  0  0  0  0  0  0  0  0  0  0
  1  2  1  0  0  0  0
  2  3  2  0  0  0  0
  2  4  1  0  0  0  0
  3  5  1  0  0  0  0
  4  6  2  0  0  0  0
  5  7  1  0  0  0  0
  5  8  2  0  0  0  0
  7  9  2  0  0  0  0
  8 10  1  0  0  0  0
  9 11  1  0  0  0  0
  9 12  1  0  0  0  0
 10 13  2  0  0  0  0
 11 14  1  0  0  0  0
 12 15  1  0  0  0  0
 15 16  1  0  0  0  0
 16 17  1  0  0  0  0
 17 18  2  0  0  0  0
 17 19  1  0  0  0  0
 18 20  1  0  0  0  0
 19 21  2  0  0  0  0
 20 22  2  0  0  0  0
 22 23  1  0  0  0  0
 23 24  2  0  0  0  0
 23 25  1  0  0  0  0
 24 26  1  0  0  0  0
 25 27  2  0  0  0  0
 26 28  2  0  0  0  0
 28 29  1  0  0  0  0
  6  8  1  0  0  0  0
 10 11  1  0  0  0  0
 21 22  1  0  0  0  0
 27 28  1  0  0  0  0
M  END
>  <MolRegNo>
2167070

>  <m>
=

>  <Value>
9900

>  <Unit>
nM

>  <Type>
IC50

>  <pValue>
5

>  <Ligand Efficiency>
0

>  <Binding Efficiency>
0

>  <Surface Efficiency>
0

>  <Assay Index>
1032149

>  <Assay Category>


>  <Assay Organism>
Homo sapiens

>  <Target ID>
17045

>  <Target Name>
Cytochrome P450 3A4

>  <Target Organism>
Homo sapiens

>  <Target Description>
Target is a single protein chain

>  <Sequence Accession>
P08684

>  <Reference>
Bioorg Med Chem Lett 26 (21), 5290-5299 (2016)

>  <Pubmed ID>
27671498

>  <DOI>
10.1016/j.bmcl.2016.09.043

$$$$
2139577
Actelion Java MolfileCreator 1.0

 29 32  0  0  0  0  0  0  0  0999 V2000
    0.0000   -0.0000   -0.0000 Cl  0  0  0  0  0  0  0  0  0  0  0  0
   -1.3065   -0.7415   -0.0000 C   0  0  0  0  0  0  0  0  0  0  0  0
   -1.3183   -2.2246   -0.0000 C   0  0  0  0  0  0  0  0  0  0  0  0
   -2.6130    0.0235   -0.0000 C   0  0  0  0  0  0  0  0  0  0  0  0
   -2.6248   -2.9544   -0.0000 N   0  0  0  0  0  0  0  0  0  0  0  0
   -3.9195   -0.7180   -0.0000 N   0  0  0  0  0  0  0  0  0  0  0  0
   -3.9313   -2.2011   -0.0000 C   0  0  0  0  0  0  0  0  0  0  0  0
   -5.2378   -2.9308   -0.0000 C   0  0  0  0  0  0  0  0  0  0  0  0
   -5.2496   -4.4139   -0.0000 C   0  0  0  0  0  0  0  0  0  0  0  0
   -6.5443   -2.1775   -0.0000 C   0  0  0  0  0  0  0  0  0  0  0  0
   -6.5561   -5.1436   -0.0000 C   0  0  0  0  0  0  0  0  0  0  0  0
   -7.8508   -2.9073   -0.0000 C   0  0  0  0  0  0  0  0  0  0  0  0
   -7.8626   -4.3903   -0.0000 C   0  0  0  0  0  0  0  0  0  0  0  0
   -9.1691   -5.1201   -0.0000 C   0  0  0  0  0  0  0  0  0  0  0  0
  -10.4756   -4.3668   -0.0000 C   0  0  0  0  0  0  0  0  0  0  0  0
  -11.7821   -5.0966   -0.0000 N   0  0  0  0  0  0  0  0  0  0  0  0
  -13.0886   -4.3433   -0.0000 C   0  0  0  0  0  0  0  0  0  0  0  0
  -14.3951   -5.0730   -0.0000 N   0  0  0  0  0  0  0  0  0  0  0  0
  -13.1004   -2.8367   -0.0000 N   0  0  0  0  0  0  0  0  0  0  0  0
  -15.7016   -4.3197   -0.0000 C   0  0  0  0  0  0  0  0  0  0  0  0
  -14.4069   -2.0834   -0.0000 C   0  0  0  0  0  0  0  0  0  0  0  0
  -11.8174   -2.0834   -0.0000 C   0  0  0  0  0  0  0  0  0  0  0  0
  -15.7134   -2.8131   -0.0000 C   0  0  0  0  0  0  0  0  0  0  0  0
  -17.0081   -5.0495   -0.0000 C   0  0  0  0  0  0  0  0  0  0  0  0
  -14.4187   -0.5767   -0.0000 O   0  0  0  0  0  0  0  0  0  0  0  0
  -17.0199   -2.0598   -0.0000 C   0  0  0  0  0  0  0  0  0  0  0  0
  -18.3147   -4.2962   -0.0000 C   0  0  0  0  0  0  0  0  0  0  0  0
  -18.3264   -2.7896   -0.0000 C   0  0  0  0  0  0  0  0  0  0  0  0
  -19.6212   -5.0259   -0.0000 Cl  0  0  0  0  0  0  0  0  0  0  0  0
  1  2  1  0  0  0  0
  2  3  2  0  0  0  0
  2  4  1  0  0  0  0
  3  5  1  0  0  0  0
  4  6  2  0  0  0  0
  5  7  2  0  0  0  0
  7  8  1  0  0  0  0
  8  9  2  0  0  0  0
  8 10  1  0  0  0  0
  9 11  1  0  0  0  0
 10 12  2  0  0  0  0
 11 13  2  0  0  0  0
 13 14  1  0  0  0  0
 14 15  1  0  0  0  0
 15 16  1  0  0  0  0
 16 17  1  0  0  0  0
 17 18  2  0  0  0  0
 17 19  1  0  0  0  0
 18 20  1  0  0  0  0
 19 21  1  0  0  0  0
 19 22  1  0  0  0  0
 20 23  2  0  0  0  0
 20 24  1  0  0  0  0
 21 25  2  0  0  0  0
 23 26  1  0  0  0  0
 24 27  2  0  0  0  0
 26 28  2  0  0  0  0
 27 29  1  0  0  0  0
  6  7  1  0  0  0  0
 12 13  1  0  0  0  0
 21 23  1  0  0  0  0
 27 28  1  0  0  0  0
M  END
>  <MolRegNo>
2139577

>  <m>
=

>  <Value>
16000

>  <Unit>
nM

>  <Type>
IC50

>  <pValue>
4.8

>  <Ligand Efficiency>
0

>  <Binding Efficiency>
0

>  <Surface Efficiency>
0

>  <Assay Index>
1032149

>  <Assay Category>


>  <Assay Organism>
Homo sapiens

>  <Target ID>
17045

>  <Target Name>
Cytochrome P450 3A4

>  <Target Organism>
Homo sapiens

>  <Target Description>
Target is a single protein chain

>  <Sequence Accession>
P08684

>  <Reference>
Bioorg Med Chem Lett 26 (21), 5290-5299 (2016)

>  <Pubmed ID>
27671498

>  <DOI>
10.1016/j.bmcl.2016.09.043

$$$$
2186114
Actelion Java MolfileCreator 1.0

 30 33  0  0  0  0  0  0  0  0999 V2000
    0.0000   -0.0000   -0.0000 Cl  0  0  0  0  0  0  0  0  0  0  0  0
    1.2929    0.7592   -0.0000 C   0  0  0  0  0  0  0  0  0  0  0  0
    2.5859    0.0237   -0.0000 C   0  0  0  0  0  0  0  0  0  0  0  0
    1.2811    2.2775   -0.0000 C   0  0  0  0  0  0  0  0  0  0  0  0
    3.8788    0.7829   -0.0000 C   0  0  0  0  0  0  0  0  0  0  0  0
    2.5740    3.0366   -0.0000 C   0  0  0  0  0  0  0  0  0  0  0  0
    5.1718    0.0474   -0.0000 N   0  0  0  0  0  0  0  0  0  0  0  0
    3.8670    2.3012   -0.0000 C   0  0  0  0  0  0  0  0  0  0  0  0
    6.4647    0.8066   -0.0000 C   0  0  0  0  0  0  0  0  0  0  0  0
    5.1599    3.0604   -0.0000 C   0  0  0  0  0  0  0  0  0  0  0  0
    6.4529    2.3249   -0.0000 N   0  0  0  0  0  0  0  0  0  0  0  0
    7.7577    0.0712   -0.0000 N   0  0  0  0  0  0  0  0  0  0  0  0
    5.1481    4.5787   -0.0000 O   0  0  0  0  0  0  0  0  0  0  0  0
    7.7458    3.0841   -0.0000 C   0  0  0  0  0  0  0  0  0  0  0  0
    9.0506    0.8303   -0.0000 C   0  0  0  0  0  0  0  0  0  0  0  0
   10.3436    0.0949   -0.0000 C   0  0  0  0  0  0  0  0  0  0  0  0
   11.6365    0.8541   -0.0000 C   0  0  0  0  0  0  0  0  0  0  0  0
   12.9295    0.1186   -0.0000 C   0  0  0  0  0  0  0  0  0  0  0  0
   11.6247    2.3724   -0.0000 C   0  0  0  0  0  0  0  0  0  0  0  0
   14.2224    0.8778   -0.0000 C   0  0  0  0  0  0  0  0  0  0  0  0
   12.9176    3.1315   -0.0000 C   0  0  0  0  0  0  0  0  0  0  0  0
   14.2105    2.3961   -0.0000 C   0  0  0  0  0  0  0  0  0  0  0  0
   15.5035    3.1553   -0.0000 C   0  0  0  0  0  0  0  0  0  0  0  0
   16.7964    2.4198   -0.0000 N   0  0  0  0  0  0  0  0  0  0  0  0
   15.4916    4.6736   -0.0000 N   0  0  0  0  0  0  0  0  0  0  0  0
   18.0894    3.1790   -0.0000 C   0  0  0  0  0  0  0  0  0  0  0  0
   16.7846    5.4327   -0.0000 C   0  0  0  0  0  0  0  0  0  0  0  0
   18.0775    4.6973   -0.0000 C   0  0  0  0  0  0  0  0  0  0  0  0
   19.3705    5.4565   -0.0000 O   0  0  0  0  0  0  0  0  0  0  0  0
   20.6634    4.7210   -0.0000 C   0  0  0  0  0  0  0  0  0  0  0  0
  1  2  1  0  0  0  0
  2  3  2  0  0  0  0
  2  4  1  0  0  0  0
  3  5  1  0  0  0  0
  4  6  2  0  0  0  0
  5  7  1  0  0  0  0
  5  8  2  0  0  0  0
  7  9  2  0  0  0  0
  8 10  1  0  0  0  0
  9 11  1  0  0  0  0
  9 12  1  0  0  0  0
 10 13  2  0  0  0  0
 11 14  1  0  0  0  0
 12 15  1  0  0  0  0
 15 16  1  0  0  0  0
 16 17  1  0  0  0  0
 17 18  2  0  0  0  0
 17 19  1  0  0  0  0
 18 20  1  0  0  0  0
 19 21  2  0  0  0  0
 20 22  2  0  0  0  0
 22 23  1  0  0  0  0
 23 24  2  0  0  0  0
 23 25  1  0  0  0  0
 24 26  1  0  0  0  0
 25 27  2  0  0  0  0
 26 28  2  0  0  0  0
 28 29  1  0  0  0  0
 29 30  1  0  0  0  0
  6  8  1  0  0  0  0
 10 11  1  0  0  0  0
 21 22  1  0  0  0  0
 27 28  1  0  0  0  0
M  END
>  <MolRegNo>
2186114

>  <m>
=

>  <Value>
8700

>  <Unit>
nM

>  <Type>
IC50

>  <pValue>
5.06

>  <Ligand Efficiency>
0

>  <Binding Efficiency>
0

>  <Surface Efficiency>
0

>  <Assay Index>
1032149

>  <Assay Category>


>  <Assay Organism>
Homo sapiens

>  <Target ID>
17045

>  <Target Name>
Cytochrome P450 3A4

>  <Target Organism>
Homo sapiens

>  <Target Description>
Target is a single protein chain

>  <Sequence Accession>
P08684

>  <Reference>
Bioorg Med Chem Lett 26 (21), 5290-5299 (2016)

>  <Pubmed ID>
27671498

>  <DOI>
10.1016/j.bmcl.2016.09.043

$$$$
2114531
Actelion Java MolfileCreator 1.0

 27 30  0  0  0  0  0  0  0  0999 V2000
    0.0000   -0.0000   -0.0000 Cl  0  0  0  0  0  0  0  0  0  0  0  0
    1.2921    0.7586   -0.0000 C   0  0  0  0  0  0  0  0  0  0  0  0
    2.5841    0.0237   -0.0000 C   0  0  0  0  0  0  0  0  0  0  0  0
    1.2802    2.2759   -0.0000 C   0  0  0  0  0  0  0  0  0  0  0  0
    3.8762    0.7823   -0.0000 C   0  0  0  0  0  0  0  0  0  0  0  0
    2.5723    3.0346   -0.0000 C   0  0  0  0  0  0  0  0  0  0  0  0
    5.1682    0.0474   -0.0000 N   0  0  0  0  0  0  0  0  0  0  0  0
    3.8643    2.2996   -0.0000 C   0  0  0  0  0  0  0  0  0  0  0  0
    6.4603    0.8061   -0.0000 C   0  0  0  0  0  0  0  0  0  0  0  0
    5.1564    3.0583   -0.0000 C   0  0  0  0  0  0  0  0  0  0  0  0
    6.4484    2.3233   -0.0000 N   0  0  0  0  0  0  0  0  0  0  0  0
    7.7524    0.0711   -0.0000 N   0  0  0  0  0  0  0  0  0  0  0  0
    5.1445    4.5755   -0.0000 O   0  0  0  0  0  0  0  0  0  0  0  0
    7.7405    3.0820   -0.0000 C   0  0  0  0  0  0  0  0  0  0  0  0
    9.0444    0.8298   -0.0000 C   0  0  0  0  0  0  0  0  0  0  0  0
   10.3365    0.0948   -0.0000 C   0  0  0  0  0  0  0  0  0  0  0  0
   11.6285    0.8535   -0.0000 C   0  0  0  0  0  0  0  0  0  0  0  0
   12.9206    0.1185   -0.0000 C   0  0  0  0  0  0  0  0  0  0  0  0
   11.6167    2.3707   -0.0000 C   0  0  0  0  0  0  0  0  0  0  0  0
   14.2126    0.8772   -0.0000 C   0  0  0  0  0  0  0  0  0  0  0  0
   12.9087    3.1294   -0.0000 C   0  0  0  0  0  0  0  0  0  0  0  0
   14.2008    2.3945   -0.0000 C   0  0  0  0  0  0  0  0  0  0  0  0
   15.4928    3.1531   -0.0000 N   0  0  0  0  0  0  0  0  0  0  0  0
   16.8560    2.5604   -0.0000 N   0  0  0  0  0  0  0  0  0  0  0  0
   15.6469    4.6704   -0.0000 C   0  0  0  0  0  0  0  0  0  0  0  0
   17.8517    3.6865   -0.0000 C   0  0  0  0  0  0  0  0  0  0  0  0
   17.1050    5.0023   -0.0000 C   0  0  0  0  0  0  0  0  0  0  0  0
  1  2  1  0  0  0  0
  2  3  2  0  0  0  0
  2  4  1  0  0  0  0
  3  5  1  0  0  0  0
  4  6  2  0  0  0  0
  5  7  1  0  0  0  0
  5  8  2  0  0  0  0
  7  9  2  0  0  0  0
  8 10  1  0  0  0  0
  9 11  1  0  0  0  0
  9 12  1  0  0  0  0
 10 13  2  0  0  0  0
 11 14  1  0  0  0  0
 12 15  1  0  0  0  0
 15 16  1  0  0  0  0
 16 17  1  0  0  0  0
 17 18  2  0  0  0  0
 17 19  1  0  0  0  0
 18 20  1  0  0  0  0
 19 21  2  0  0  0  0
 20 22  2  0  0  0  0
 22 23  1  0  0  0  0
 23 24  1  0  0  0  0
 23 25  1  0  0  0  0
 24 26  2  0  0  0  0
 25 27  2  0  0  0  0
  6  8  1  0  0  0  0
 10 11  1  0  0  0  0
 21 22  1  0  0  0  0
 26 27  1  0  0  0  0
M  END
>  <MolRegNo>
2114531

>  <m>
=

>  <Value>
8300

>  <Unit>
nM

>  <Type>
IC50

>  <pValue>
5.08

>  <Ligand Efficiency>
0

>  <Binding Efficiency>
0

>  <Surface Efficiency>
0

>  <Assay Index>
1032149

>  <Assay Category>


>  <Assay Organism>
Homo sapiens

>  <Target ID>
17045

>  <Target Name>
Cytochrome P450 3A4

>  <Target Organism>
Homo sapiens

>  <Target Description>
Target is a single protein chain

>  <Sequence Accession>
P08684

>  <Reference>
Bioorg Med Chem Lett 26 (21), 5290-5299 (2016)

>  <Pubmed ID>
27671498

>  <DOI>
10.1016/j.bmcl.2016.09.043

$$$$
2158133
Actelion Java MolfileCreator 1.0

 30 33  0  0  0  0  0  0  0  0999 V2000
    0.0000   -0.0000   -0.0000 Cl  0  0  0  0  0  0  0  0  0  0  0  0
    1.2945    0.7601   -0.0000 C   0  0  0  0  0  0  0  0  0  0  0  0
    2.5890    0.0238   -0.0000 C   0  0  0  0  0  0  0  0  0  0  0  0
    1.2826    2.2802   -0.0000 C   0  0  0  0  0  0  0  0  0  0  0  0
    3.8835    0.7838   -0.0000 C   0  0  0  0  0  0  0  0  0  0  0  0
    2.5771    3.0403   -0.0000 C   0  0  0  0  0  0  0  0  0  0  0  0
    5.1780    0.0475   -0.0000 N   0  0  0  0  0  0  0  0  0  0  0  0
    3.8716    2.3040   -0.0000 C   0  0  0  0  0  0  0  0  0  0  0  0
    6.4725    0.8076   -0.0000 C   0  0  0  0  0  0  0  0  0  0  0  0
    5.1661    3.0640   -0.0000 C   0  0  0  0  0  0  0  0  0  0  0  0
    6.4606    2.3277   -0.0000 N   0  0  0  0  0  0  0  0  0  0  0  0
    7.7670    0.0713   -0.0000 N   0  0  0  0  0  0  0  0  0  0  0  0
    5.1542    4.5842   -0.0000 O   0  0  0  0  0  0  0  0  0  0  0  0
    7.7551    3.0878   -0.0000 C   0  0  0  0  0  0  0  0  0  0  0  0
    9.0615    0.8313   -0.0000 C   0  0  0  0  0  0  0  0  0  0  0  0
   10.3560    0.0950   -0.0000 C   0  0  0  0  0  0  0  0  0  0  0  0
   11.6505    0.8551   -0.0000 C   0  0  0  0  0  0  0  0  0  0  0  0
   12.9450    0.1188   -0.0000 C   0  0  0  0  0  0  0  0  0  0  0  0
   11.6386    2.3752   -0.0000 C   0  0  0  0  0  0  0  0  0  0  0  0
   14.2395    0.8788   -0.0000 C   0  0  0  0  0  0  0  0  0  0  0  0
   12.9331    3.1353   -0.0000 C   0  0  0  0  0  0  0  0  0  0  0  0
   14.2276    2.3990   -0.0000 C   0  0  0  0  0  0  0  0  0  0  0  0
   15.5221    3.1590   -0.0000 O   0  0  0  0  0  0  0  0  0  0  0  0
   16.8166    2.4227   -0.0000 C   0  0  0  0  0  0  0  0  0  0  0  0
   16.8047    0.9263   -0.0000 C   0  0  0  0  0  0  0  0  0  0  0  0
   18.1111    3.1828   -0.0000 C   0  0  0  0  0  0  0  0  0  0  0  0
   18.0992    0.1900   -0.0000 C   0  0  0  0  0  0  0  0  0  0  0  0
   19.4056    2.4465   -0.0000 C   0  0  0  0  0  0  0  0  0  0  0  0
   19.3937    0.9501   -0.0000 C   0  0  0  0  0  0  0  0  0  0  0  0
   20.6882    0.2138   -0.0000 Cl  0  0  0  0  0  0  0  0  0  0  0  0
  1  2  1  0  0  0  0
  2  3  2  0  0  0  0
  2  4  1  0  0  0  0
  3  5  1  0  0  0  0
  4  6  2  0  0  0  0
  5  7  1  0  0  0  0
  5  8  2  0  0  0  0
  7  9  2  0  0  0  0
  8 10  1  0  0  0  0
  9 11  1  0  0  0  0
  9 12  1  0  0  0  0
 10 13  2  0  0  0  0
 11 14  1  0  0  0  0
 12 15  1  0  0  0  0
 15 16  1  0  0  0  0
 16 17  1  0  0  0  0
 17 18  2  0  0  0  0
 17 19  1  0  0  0  0
 18 20  1  0  0  0  0
 19 21  2  0  0  0  0
 20 22  2  0  0  0  0
 22 23  1  0  0  0  0
 23 24  1  0  0  0  0
 24 25  2  0  0  0  0
 24 26  1  0  0  0  0
 25 27  1  0  0  0  0
 26 28  2  0  0  0  0
 27 29  2  0  0  0  0
 29 30  1  0  0  0  0
  6  8  1  0  0  0  0
 10 11  1  0  0  0  0
 21 22  1  0  0  0  0
 28 29  1  0  0  0  0
M  END
>  <MolRegNo>
2158133

>  <m>
=

>  <Value>
29000

>  <Unit>
nM

>  <Type>
IC50

>  <pValue>
4.54

>  <Ligand Efficiency>
0

>  <Binding Efficiency>
0

>  <Surface Efficiency>
0

>  <Assay Index>
1032149

>  <Assay Category>


>  <Assay Organism>
Homo sapiens

>  <Target ID>
17045

>  <Target Name>
Cytochrome P450 3A4

>  <Target Organism>
Homo sapiens

>  <Target Description>
Target is a single protein chain

>  <Sequence Accession>
P08684

>  <Reference>
Bioorg Med Chem Lett 26 (21), 5290-5299 (2016)

>  <Pubmed ID>
27671498

>  <DOI>
10.1016/j.bmcl.2016.09.043

$$$$
2114834
Actelion Java MolfileCreator 1.0

 30 33  0  0  0  0  0  0  0  0999 V2000
    0.0000   -0.0000   -0.0000 Cl  0  0  0  0  0  0  0  0  0  0  0  0
   -1.3049    0.7524   -0.0000 C   0  0  0  0  0  0  0  0  0  0  0  0
   -1.3167    2.2571   -0.0000 C   0  0  0  0  0  0  0  0  0  0  0  0
   -2.6098    0.0235   -0.0000 C   0  0  0  0  0  0  0  0  0  0  0  0
   -2.6216    3.0095   -0.0000 N   0  0  0  0  0  0  0  0  0  0  0  0
   -3.9147    0.7759   -0.0000 C   0  0  0  0  0  0  0  0  0  0  0  0
   -3.9265    2.2806   -0.0000 C   0  0  0  0  0  0  0  0  0  0  0  0
   -5.2314    3.0330   -0.0000 O   0  0  0  0  0  0  0  0  0  0  0  0
   -6.5363    2.3041   -0.0000 C   0  0  0  0  0  0  0  0  0  0  0  0
   -6.5480    0.8229   -0.0000 C   0  0  0  0  0  0  0  0  0  0  0  0
   -7.8412    3.0565   -0.0000 C   0  0  0  0  0  0  0  0  0  0  0  0
   -7.8529    0.0940   -0.0000 C   0  0  0  0  0  0  0  0  0  0  0  0
   -9.1460    2.3277   -0.0000 C   0  0  0  0  0  0  0  0  0  0  0  0
   -9.1578    0.8464   -0.0000 C   0  0  0  0  0  0  0  0  0  0  0  0
  -10.4627    0.1176   -0.0000 C   0  0  0  0  0  0  0  0  0  0  0  0
  -11.7676    0.8699   -0.0000 C   0  0  0  0  0  0  0  0  0  0  0  0
  -13.0725    0.1411   -0.0000 N   0  0  0  0  0  0  0  0  0  0  0  0
  -14.3774    0.8934   -0.0000 C   0  0  0  0  0  0  0  0  0  0  0  0
  -15.6823    0.1646   -0.0000 N   0  0  0  0  0  0  0  0  0  0  0  0
  -14.3892    2.3982   -0.0000 N   0  0  0  0  0  0  0  0  0  0  0  0
  -16.9872    0.9170   -0.0000 C   0  0  0  0  0  0  0  0  0  0  0  0
  -15.6941    3.1506   -0.0000 C   0  0  0  0  0  0  0  0  0  0  0  0
  -13.1078    3.1506   -0.0000 C   0  0  0  0  0  0  0  0  0  0  0  0
  -16.9990    2.4217   -0.0000 C   0  0  0  0  0  0  0  0  0  0  0  0
  -18.2921    0.1763   -0.0000 C   0  0  0  0  0  0  0  0  0  0  0  0
  -15.7058    4.6553   -0.0000 O   0  0  0  0  0  0  0  0  0  0  0  0
  -18.3039    3.1741   -0.0000 C   0  0  0  0  0  0  0  0  0  0  0  0
  -19.5970    0.9405   -0.0000 C   0  0  0  0  0  0  0  0  0  0  0  0
  -19.6088    2.4452   -0.0000 C   0  0  0  0  0  0  0  0  0  0  0  0
  -20.9019    0.2116   -0.0000 Cl  0  0  0  0  0  0  0  0  0  0  0  0
  1  2  1  0  0  0  0
  2  3  2  0  0  0  0
  2  4  1  0  0  0  0
  3  5  1  0  0  0  0
  4  6  2  0  0  0  0
  5  7  2  0  0  0  0
  7  8  1  0  0  0  0
  8  9  1  0  0  0  0
  9 10  2  0  0  0  0
  9 11  1  0  0  0  0
 10 12  1  0  0  0  0
 11 13  2  0  0  0  0
 12 14  2  0  0  0  0
 14 15  1  0  0  0  0
 15 16  1  0  0  0  0
 16 17  1  0  0  0  0
 17 18  1  0  0  0  0
 18 19  2  0  0  0  0
 18 20  1  0  0  0  0
 19 21  1  0  0  0  0
 20 22  1  0  0  0  0
 20 23  1  0  0  0  0
 21 24  2  0  0  0  0
 21 25  1  0  0  0  0
 22 26  2  0  0  0  0
 24 27  1  0  0  0  0
 25 28  2  0  0  0  0
 27 29  2  0  0  0  0
 28 30  1  0  0  0  0
  6  7  1  0  0  0  0
 13 14  1  0  0  0  0
 22 24  1  0  0  0  0
 28 29  1  0  0  0  0
M  END
>  <MolRegNo>
2114834

>  <m>
=

>  <Value>
15000

>  <Unit>
nM

>  <Type>
IC50

>  <pValue>
4.82

>  <Ligand Efficiency>
0

>  <Binding Efficiency>
0

>  <Surface Efficiency>
0

>  <Assay Index>
1032149

>  <Assay Category>


>  <Assay Organism>
Homo sapiens

>  <Target ID>
17045

>  <Target Name>
Cytochrome P450 3A4

>  <Target Organism>
Homo sapiens

>  <Target Description>
Target is a single protein chain

>  <Sequence Accession>
P08684

>  <Reference>
Bioorg Med Chem Lett 26 (21), 5290-5299 (2016)

>  <Pubmed ID>
27671498

>  <DOI>
10.1016/j.bmcl.2016.09.043

$$$$
2186073
Actelion Java MolfileCreator 1.0

 24 26  0  0  0  0  0  0  0  0999 V2000
    0.0000   -0.0000   -0.0000 Cl  0  0  0  0  0  0  0  0  0  0  0  0
    1.2933    0.7594   -0.0000 C   0  0  0  0  0  0  0  0  0  0  0  0
    2.5865    0.0237   -0.0000 C   0  0  0  0  0  0  0  0  0  0  0  0
    1.2814    2.2781   -0.0000 C   0  0  0  0  0  0  0  0  0  0  0  0
    3.8798    0.7831   -0.0000 C   0  0  0  0  0  0  0  0  0  0  0  0
    2.5747    3.0374   -0.0000 C   0  0  0  0  0  0  0  0  0  0  0  0
    5.1731    0.0475   -0.0000 N   0  0  0  0  0  0  0  0  0  0  0  0
    3.8679    2.3018   -0.0000 C   0  0  0  0  0  0  0  0  0  0  0  0
    6.4663    0.8068   -0.0000 C   0  0  0  0  0  0  0  0  0  0  0  0
    5.1612    3.0611   -0.0000 C   0  0  0  0  0  0  0  0  0  0  0  0
    6.4545    2.3255   -0.0000 N   0  0  0  0  0  0  0  0  0  0  0  0
    7.7596    0.0712   -0.0000 N   0  0  0  0  0  0  0  0  0  0  0  0
    5.1493    4.5798   -0.0000 O   0  0  0  0  0  0  0  0  0  0  0  0
    7.7477    3.0849   -0.0000 C   0  0  0  0  0  0  0  0  0  0  0  0
    9.0529    0.8305   -0.0000 C   0  0  0  0  0  0  0  0  0  0  0  0
   10.3462    0.0949   -0.0000 C   0  0  0  0  0  0  0  0  0  0  0  0
   11.6394    0.8543   -0.0000 C   0  0  0  0  0  0  0  0  0  0  0  0
   12.9327    0.1186   -0.0000 C   0  0  0  0  0  0  0  0  0  0  0  0
   11.6276    2.3730   -0.0000 C   0  0  0  0  0  0  0  0  0  0  0  0
   14.2260    0.8780   -0.0000 C   0  0  0  0  0  0  0  0  0  0  0  0
   12.9208    3.1323   -0.0000 C   0  0  0  0  0  0  0  0  0  0  0  0
   14.2141    2.3967   -0.0000 C   0  0  0  0  0  0  0  0  0  0  0  0
   15.5074    3.1561   -0.0000 O   0  0  0  0  0  0  0  0  0  0  0  0
   16.8006    2.4204   -0.0000 C   0  0  0  0  0  0  0  0  0  0  0  0
  1  2  1  0  0  0  0
  2  3  2  0  0  0  0
  2  4  1  0  0  0  0
  3  5  1  0  0  0  0
  4  6  2  0  0  0  0
  5  7  1  0  0  0  0
  5  8  2  0  0  0  0
  7  9  2  0  0  0  0
  8 10  1  0  0  0  0
  9 11  1  0  0  0  0
  9 12  1  0  0  0  0
 10 13  2  0  0  0  0
 11 14  1  0  0  0  0
 12 15  1  0  0  0  0
 15 16  1  0  0  0  0
 16 17  1  0  0  0  0
 17 18  2  0  0  0  0
 17 19  1  0  0  0  0
 18 20  1  0  0  0  0
 19 21  2  0  0  0  0
 20 22  2  0  0  0  0
 22 23  1  0  0  0  0
 23 24  1  0  0  0  0
  6  8  1  0  0  0  0
 10 11  1  0  0  0  0
 21 22  1  0  0  0  0
M  END
>  <MolRegNo>
2186073

>  <m>
=

>  <Value>
4300

>  <Unit>
nM

>  <Type>
IC50

>  <pValue>
5.37

>  <Ligand Efficiency>
0

>  <Binding Efficiency>
0

>  <Surface Efficiency>
0

>  <Assay Index>
1032149

>  <Assay Category>


>  <Assay Organism>
Homo sapiens

>  <Target ID>
17045

>  <Target Name>
Cytochrome P450 3A4

>  <Target Organism>
Homo sapiens

>  <Target Description>
Target is a single protein chain

>  <Sequence Accession>
P08684

>  <Reference>
Bioorg Med Chem Lett 26 (21), 5290-5299 (2016)

>  <Pubmed ID>
27671498

>  <DOI>
10.1016/j.bmcl.2016.09.043

$$$$
2114137
Actelion Java MolfileCreator 1.0

 27 29  0  0  0  0  0  0  0  0999 V2000
    0.0000   -0.0000   -0.0000 Cl  0  0  0  0  0  0  0  0  0  0  0  0
    1.2941    0.7691   -0.0000 C   0  0  0  0  0  0  0  0  0  0  0  0
    2.5882    0.0244   -0.0000 C   0  0  0  0  0  0  0  0  0  0  0  0
    1.2819    2.2830   -0.0000 C   0  0  0  0  0  0  0  0  0  0  0  0
    3.8702    0.7936   -0.0000 C   0  0  0  0  0  0  0  0  0  0  0  0
    2.5760    3.0522   -0.0000 C   0  0  0  0  0  0  0  0  0  0  0  0
    5.1643    0.0488   -0.0000 N   0  0  0  0  0  0  0  0  0  0  0  0
    3.8580    2.3074   -0.0000 C   0  0  0  0  0  0  0  0  0  0  0  0
    6.4462    0.8180   -0.0000 C   0  0  0  0  0  0  0  0  0  0  0  0
    5.1521    3.0766   -0.0000 C   0  0  0  0  0  0  0  0  0  0  0  0
    6.4340    2.3319   -0.0000 N   0  0  0  0  0  0  0  0  0  0  0  0
    7.7403    0.0733   -0.0000 N   0  0  0  0  0  0  0  0  0  0  0  0
    5.1399    4.5905   -0.0000 O   0  0  0  0  0  0  0  0  0  0  0  0
    7.7281    3.1010   -0.0000 C   0  0  0  0  0  0  0  0  0  0  0  0
    9.0344    0.8424   -0.0000 C   0  0  0  0  0  0  0  0  0  0  0  0
   10.3164    0.0977   -0.0000 C   0  0  0  0  0  0  0  0  0  0  0  0
   11.6105    0.8668   -0.0000 C   0  0  0  0  0  0  0  0  0  0  0  0
   12.9046    0.1221   -0.0000 C   0  0  0  0  0  0  0  0  0  0  0  0
   11.5983    2.3807   -0.0000 C   0  0  0  0  0  0  0  0  0  0  0  0
   14.1865    0.8912   -0.0000 C   0  0  0  0  0  0  0  0  0  0  0  0
   12.8924    3.1498   -0.0000 C   0  0  0  0  0  0  0  0  0  0  0  0
   14.1743    2.4051   -0.0000 C   0  0  0  0  0  0  0  0  0  0  0  0
   15.4684    3.1743   -0.0000 O   0  0  0  0  0  0  0  0  0  0  0  0
   16.7626    2.4295   -0.0000 C   0  0  0  0  0  0  0  0  0  0  0  0
   17.9468    1.7581   -0.0000 F   0  0  0  0  0  0  0  0  0  0  0  0
   17.0067    0.8912   -0.0000 F   0  0  0  0  0  0  0  0  0  0  0  0
   18.2276    3.0033   -0.0000 F   0  0  0  0  0  0  0  0  0  0  0  0
  1  2  1  0  0  0  0
  2  3  2  0  0  0  0
  2  4  1  0  0  0  0
  3  5  1  0  0  0  0
  4  6  2  0  0  0  0
  5  7  1  0  0  0  0
  5  8  2  0  0  0  0
  7  9  2  0  0  0  0
  8 10  1  0  0  0  0
  9 11  1  0  0  0  0
  9 12  1  0  0  0  0
 10 13  2  0  0  0  0
 11 14  1  0  0  0  0
 12 15  1  0  0  0  0
 15 16  1  0  0  0  0
 16 17  1  0  0  0  0
 17 18  2  0  0  0  0
 17 19  1  0  0  0  0
 18 20  1  0  0  0  0
 19 21  2  0  0  0  0
 20 22  2  0  0  0  0
 22 23  1  0  0  0  0
 23 24  1  0  0  0  0
 24 25  1  0  0  0  0
 24 26  1  0  0  0  0
 24 27  1  0  0  0  0
  6  8  1  0  0  0  0
 10 11  1  0  0  0  0
 21 22  1  0  0  0  0
M  END
>  <MolRegNo>
2114137

>  <m>
=

>  <Value>
4000

>  <Unit>
nM

>  <Type>
IC50

>  <pValue>
5.4

>  <Ligand Efficiency>
0

>  <Binding Efficiency>
0

>  <Surface Efficiency>
0

>  <Assay Index>
1032150

>  <Assay Category>


>  <Assay Organism>
Homo sapiens

>  <Target ID>
17045

>  <Target Name>
Cytochrome P450 3A4

>  <Target Organism>
Homo sapiens

>  <Target Description>
Target is a single protein chain

>  <Sequence Accession>
P08684

>  <Reference>
Bioorg Med Chem Lett 26 (21), 5290-5299 (2016)

>  <Pubmed ID>
27671498

>  <DOI>
10.1016/j.bmcl.2016.09.043

$$$$
2186613
Actelion Java MolfileCreator 1.0

 28 31  0  0  0  0  0  0  0  0999 V2000
    0.0000   -0.0000   -0.0000 Cl  0  0  0  0  0  0  0  0  0  0  0  0
    1.2904    0.7695   -0.0000 C   0  0  0  0  0  0  0  0  0  0  0  0
    2.5807    0.0237   -0.0000 C   0  0  0  0  0  0  0  0  0  0  0  0
    1.2785    2.2848   -0.0000 C   0  0  0  0  0  0  0  0  0  0  0  0
    3.8711    0.7932   -0.0000 C   0  0  0  0  0  0  0  0  0  0  0  0
    2.5689    3.0424   -0.0000 C   0  0  0  0  0  0  0  0  0  0  0  0
    5.1615    0.0474   -0.0000 N   0  0  0  0  0  0  0  0  0  0  0  0
    3.8593    2.3085   -0.0000 C   0  0  0  0  0  0  0  0  0  0  0  0
    6.4518    0.8168   -0.0000 C   0  0  0  0  0  0  0  0  0  0  0  0
    5.1496    3.0661   -0.0000 C   0  0  0  0  0  0  0  0  0  0  0  0
    6.4400    2.3321   -0.0000 N   0  0  0  0  0  0  0  0  0  0  0  0
    7.7422    0.0710   -0.0000 N   0  0  0  0  0  0  0  0  0  0  0  0
    5.1378    4.5814   -0.0000 O   0  0  0  0  0  0  0  0  0  0  0  0
    7.7303    3.0898   -0.0000 C   0  0  0  0  0  0  0  0  0  0  0  0
    9.0326    0.8405   -0.0000 C   0  0  0  0  0  0  0  0  0  0  0  0
   10.3229    0.0947   -0.0000 C   0  0  0  0  0  0  0  0  0  0  0  0
   11.6133    0.8642   -0.0000 C   0  0  0  0  0  0  0  0  0  0  0  0
   12.9036    0.1184   -0.0000 C   0  0  0  0  0  0  0  0  0  0  0  0
   11.6014    2.3795   -0.0000 C   0  0  0  0  0  0  0  0  0  0  0  0
   14.1940    0.8879   -0.0000 C   0  0  0  0  0  0  0  0  0  0  0  0
   12.8918    3.1371   -0.0000 C   0  0  0  0  0  0  0  0  0  0  0  0
   14.1822    2.4032   -0.0000 C   0  0  0  0  0  0  0  0  0  0  0  0
   15.4725    3.1608   -0.0000 N   0  0  0  0  0  0  0  0  0  0  0  0
   16.8339    2.5689   -0.0000 N   0  0  0  0  0  0  0  0  0  0  0  0
   15.6264    4.6761   -0.0000 C   0  0  0  0  0  0  0  0  0  0  0  0
   17.8283    3.6935   -0.0000 C   0  0  0  0  0  0  0  0  0  0  0  0
   17.0825    4.9957   -0.0000 C   0  0  0  0  0  0  0  0  0  0  0  0
   17.6744    6.3808   -0.0000 Cl  0  0  0  0  0  0  0  0  0  0  0  0
  1  2  1  0  0  0  0
  2  3  2  0  0  0  0
  2  4  1  0  0  0  0
  3  5  1  0  0  0  0
  4  6  2  0  0  0  0
  5  7  1  0  0  0  0
  5  8  2  0  0  0  0
  7  9  2  0  0  0  0
  8 10  1  0  0  0  0
  9 11  1  0  0  0  0
  9 12  1  0  0  0  0
 10 13  2  0  0  0  0
 11 14  1  0  0  0  0
 12 15  1  0  0  0  0
 15 16  1  0  0  0  0
 16 17  1  0  0  0  0
 17 18  2  0  0  0  0
 17 19  1  0  0  0  0
 18 20  1  0  0  0  0
 19 21  2  0  0  0  0
 20 22  2  0  0  0  0
 22 23  1  0  0  0  0
 23 24  1  0  0  0  0
 23 25  1  0  0  0  0
 24 26  2  0  0  0  0
 25 27  2  0  0  0  0
 27 28  1  0  0  0  0
  6  8  1  0  0  0  0
 10 11  1  0  0  0  0
 21 22  1  0  0  0  0
 26 27  1  0  0  0  0
M  END
>  <MolRegNo>
2186613

>  <m>
=

>  <Value>
16000

>  <Unit>
nM

>  <Type>
IC50

>  <pValue>
4.8

>  <Ligand Efficiency>
0

>  <Binding Efficiency>
0

>  <Surface Efficiency>
0

>  <Assay Index>
1032150

>  <Assay Category>


>  <Assay Organism>
Homo sapiens

>  <Target ID>
17045

>  <Target Name>
Cytochrome P450 3A4

>  <Target Organism>
Homo sapiens

>  <Target Description>
Target is a single protein chain

>  <Sequence Accession>
P08684

>  <Reference>
Bioorg Med Chem Lett 26 (21), 5290-5299 (2016)

>  <Pubmed ID>
27671498

>  <DOI>
10.1016/j.bmcl.2016.09.043

$$$$
2105318
Actelion Java MolfileCreator 1.0

 30 33  0  0  1  0  0  0  0  0999 V2000
    0.0000   -0.0000   -0.0000 Cl  0  0  0  0  0  0  0  0  0  0  0  0
   -1.0953    0.6277   -0.0000 C   0  0  0  0  0  0  0  0  0  0  0  0
   -2.4615   -0.1477   -0.0000 C   0  0  0  0  0  0  0  0  0  0  0  0
   -1.1077    2.2030   -0.0000 C   0  0  0  0  0  0  0  0  0  0  0  0
   -2.4738   -1.6984   -0.0000 C   0  0  0  0  0  0  0  0  0  0  0  0
   -3.8276    0.6400   -0.0000 C   0  0  0  0  0  0  0  0  0  0  0  0
   -2.4738    2.9907   -0.0000 C   0  0  0  0  0  0  0  0  0  0  0  0
    0.2338    3.0030   -0.0000 C   0  0  0  0  0  0  0  0  0  0  0  0
   -1.4030   -2.3138   -0.0000 O   0  0  0  0  0  0  0  0  0  0  0  0
   -3.8399   -2.4738   -0.0000 N   0  0  0  0  0  0  0  0  0  0  0  0
   -3.8399    2.2153   -0.0000 C   0  0  0  0  0  0  0  0  0  0  0  0
    0.2215    4.2706   -0.0000 F   0  0  0  0  0  0  0  0  0  0  0  0
    1.3046    2.3999   -0.0000 F   0  0  0  0  0  0  0  0  0  0  0  0
    1.3046    3.6430   -0.0000 F   0  0  0  0  0  0  0  0  0  0  0  0
   -3.8522   -4.0245   -0.0000 C   0  0  0  0  0  0  0  0  0  0  0  0
   -5.2060   -1.6861   -0.0000 C   0  0  0  0  0  0  0  0  0  0  0  0
   -5.2183   -4.7875   -0.0000 C   0  0  0  0  0  0  0  0  0  0  0  0
   -2.7814   -4.6398   -0.0000 C   0  0  0  0  0  0  0  0  0  0  0  0
   -6.5721   -2.4491   -0.0000 C   0  0  0  0  0  0  0  0  0  0  0  0
   -5.5506   -6.3013   -0.0000 N   0  0  0  0  0  0  0  0  0  0  0  0
   -6.5844   -3.9999   -0.0000 C   0  0  0  0  0  0  0  0  0  0  0  0
   -7.1136   -6.4490   -0.0000 C   0  0  0  0  0  0  0  0  0  0  0  0
   -7.7536   -5.0337   -0.0000 N   0  0  0  0  0  0  0  0  0  0  0  0
   -9.2920   -4.7014   -0.0000 C   0  0  0  0  0  0  0  0  0  0  0  0
   -9.6735   -3.1630   -0.0000 N   0  0  0  0  0  0  0  0  0  0  0  0
  -10.4243   -5.7598   -0.0000 C   0  0  0  0  0  0  0  0  0  0  0  0
  -11.1873   -2.7076   -0.0000 C   0  0  0  0  0  0  0  0  0  0  0  0
  -11.9381   -5.3044   -0.0000 C   0  0  0  0  0  0  0  0  0  0  0  0
  -12.3319   -3.7783   -0.0000 C   0  0  0  0  0  0  0  0  0  0  0  0
  -13.5380   -3.4091   -0.0000 F   0  0  0  0  0  0  0  0  0  0  0  0
  1  2  1  0  0  0  0
  2  3  2  0  0  0  0
  2  4  1  0  0  0  0
  3  5  1  0  0  0  0
  3  6  1  0  0  0  0
  4  7  2  0  0  0  0
  4  8  1  0  0  0  0
  5  9  2  0  0  0  0
  5 10  1  0  0  0  0
  6 11  2  0  0  0  0
  8 12  1  0  0  0  0
  8 13  1  0  0  0  0
  8 14  1  0  0  0  0
 10 15  1  0  0  0  0
 10 16  1  0  0  0  0
 15 17  1  0  0  0  0
 15 18  1  6  0  0  0
 16 19  1  0  0  0  0
 17 20  1  0  0  0  0
 17 21  2  0  0  0  0
 20 22  2  0  0  0  0
 21 23  1  0  0  0  0
 23 24  1  0  0  0  0
 24 25  2  0  0  0  0
 24 26  1  0  0  0  0
 25 27  1  0  0  0  0
 26 28  2  0  0  0  0
 27 29  2  0  0  0  0
 29 30  1  0  0  0  0
  7 11  1  0  0  0  0
 19 21  1  0  0  0  0
 22 23  1  0  0  0  0
 28 29  1  0  0  0  0
M  END
>  <MolRegNo>
2105318

>  <m>
=

>  <Value>
2000

>  <Unit>
nM

>  <Type>
IC50

>  <pValue>
5.7

>  <Ligand Efficiency>
0

>  <Binding Efficiency>
0

>  <Surface Efficiency>
0

>  <Assay Index>
1034467

>  <Assay Category>


>  <Assay Organism>
Homo sapiens

>  <Target ID>
17045

>  <Target Name>
Cytochrome P450 3A4

>  <Target Organism>
Homo sapiens

>  <Target Description>
Target is a single protein chain

>  <Sequence Accession>
P08684

>  <Reference>
J Med Chem 59 (18), 8535-8548 (2016)

>  <Pubmed ID>
27548392

>  <DOI>
10.1021/acs.jmedchem.6b00989

$$$$
2109925
Actelion Java MolfileCreator 1.0

 42 47  0  0  1  0  0  0  0  0999 V2000
    0.0000   -0.0000   -0.0000 F   0  0  0  0  0  0  0  0  0  0  0  0
   -1.3095    0.7619   -0.0000 C   0  0  0  0  0  0  0  0  0  0  0  0
   -2.6309    0.0238   -0.0000 C   0  0  0  0  0  0  0  0  0  0  0  0
   -1.3214    2.2738   -0.0000 C   0  0  0  0  0  0  0  0  0  0  0  0
   -2.6428   -1.4643   -0.0000 C   0  0  0  0  0  0  0  0  0  0  0  0
   -3.9523    0.7857   -0.0000 C   0  0  0  0  0  0  0  0  0  0  0  0
   -2.6428    3.0357   -0.0000 C   0  0  0  0  0  0  0  0  0  0  0  0
   -1.3452   -2.2023   -0.0000 C   0  0  0  0  0  0  0  0  0  0  0  0
   -3.9523   -2.2023   -0.0000 C   0  0  0  0  0  0  0  0  0  0  0  0
   -3.9642    2.2976   -0.0000 C   0  0  0  0  0  0  0  0  0  0  0  0
   -5.3928    0.3571   -0.0000 C   0  0  0  0  0  0  0  0  0  0  0  0
   -2.6547    4.5475   -0.0000 C   0  0  0  0  0  0  0  0  0  0  0  0
   -1.3571   -3.6904   -0.0000 C   0  0  0  0  0  0  0  0  0  0  0  0
   -0.0595   -1.4405   -0.0000 C   0  0  0  0  0  0  0  0  0  0  0  0
   -3.9642   -3.6904   -0.0000 C   0  0  0  0  0  0  0  0  0  0  0  0
   -5.3809    2.7738   -0.0000 N   0  0  0  0  0  0  0  0  0  0  0  0
   -6.2737    1.5714   -0.0000 C   0  0  0  0  0  0  0  0  0  0  0  0
   -6.0118   -0.9881   -0.0000 C   0  0  0  0  0  0  0  0  0  0  0  0
   -3.9761    5.3213   -0.0000 O   0  0  0  0  0  0  0  0  0  0  0  0
   -1.3690    5.3213   -0.0000 N   0  0  0  0  0  0  0  0  0  0  0  0
   -0.0714   -4.4404   -0.0000 N   0  0  0  0  0  0  0  0  0  0  0  0
   -2.6666   -4.4285   -0.0000 C   0  0  0  0  0  0  0  0  0  0  0  0
   -7.7618    1.4405   -0.0000 C   0  0  0  0  0  0  0  0  0  0  0  0
   -7.4999   -1.1190   -0.0000 C   0  0  0  0  0  0  0  0  0  0  0  0
   -0.0833   -5.9285   -0.0000 C   0  0  0  0  0  0  0  0  0  0  0  0
    1.2143   -3.6666   -0.0000 C   0  0  0  0  0  0  0  0  0  0  0  0
   -8.3927    0.1071   -0.0000 C   0  0  0  0  0  0  0  0  0  0  0  0
   -1.3928   -6.6666   -0.0000 O   0  0  0  0  0  0  0  0  0  0  0  0
    1.2024   -6.6666   -0.0000 N   0  0  0  0  0  0  0  0  0  0  0  0
    1.2024   -2.1547   -0.0000 O   0  0  0  0  0  0  0  0  0  0  0  0
    2.5000   -4.4166   -0.0000 C   0  0  0  0  0  0  0  0  0  0  0  0
   -9.9165    0.1190   -0.0000 C   0  0  0  0  0  0  0  0  0  0  0  0
    2.4881   -5.9047   -0.0000 C   0  0  0  0  0  0  0  0  0  0  0  0
    1.1905   -8.1665   -0.0000 C   0  0  0  0  0  0  0  0  0  0  0  0
    3.7976   -3.6547   -0.0000 C   0  0  0  0  0  0  0  0  0  0  0  0
  -10.6784   -1.1666   -0.0000 O   0  0  0  0  0  0  0  0  0  0  0  0
  -10.6784    1.4285   -0.0000 C   0  0  0  0  0  0  0  0  0  0  0  0
   -9.1665    1.4285   -0.0000 C   0  0  0  0  0  0  0  0  0  0  0  0
    3.7857   -6.6427   -0.0000 C   0  0  0  0  0  0  0  0  0  0  0  0
    5.0832   -4.3928   -0.0000 C   0  0  0  0  0  0  0  0  0  0  0  0
    3.7737   -8.1308   -0.0000 F   0  0  0  0  0  0  0  0  0  0  0  0
    5.0713   -5.8690   -0.0000 C   0  0  0  0  0  0  0  0  0  0  0  0
  1  2  1  0  0  0  0
  2  3  2  0  0  0  0
  2  4  1  0  0  0  0
  3  5  1  0  0  0  0
  3  6  1  0  0  0  0
  4  7  2  0  0  0  0
  5  8  2  0  0  0  0
  5  9  1  0  0  0  0
  6 10  2  0  0  0  0
  6 11  1  0  0  0  0
  7 12  1  0  0  0  0
  8 13  1  0  0  0  0
  8 14  1  0  0  0  0
  9 15  2  0  0  0  0
 10 16  1  0  0  0  0
 11 17  2  0  0  0  0
 11 18  1  0  0  0  0
 12 19  2  0  0  0  0
 12 20  1  0  0  0  0
 13 21  1  0  0  0  0
 13 22  2  0  0  0  0
 17 23  1  0  0  0  0
 18 24  1  0  0  0  0
 21 25  1  0  0  0  0
 21 26  1  0  0  0  0
 23 27  1  0  0  0  0
 25 28  2  0  0  0  0
 25 29  1  0  0  0  0
 26 30  2  0  0  0  0
 26 31  1  0  0  0  0
 27 32  1  6  0  0  0
 29 33  1  0  0  0  0
 29 34  1  0  0  0  0
 31 35  1  0  0  0  0
 32 36  1  0  0  0  0
 32 37  1  0  0  0  0
 32 38  1  0  0  0  0
 33 39  1  0  0  0  0
 35 40  2  0  0  0  0
 39 41  1  0  0  0  0
 39 42  2  0  0  0  0
  7 10  1  0  0  0  0
 15 22  1  0  0  0  0
 16 17  1  0  0  0  0
 24 27  1  0  0  0  0
 31 33  2  0  0  0  0
 40 42  1  0  0  0  0
M  END
>  <MolRegNo>
2109925

>  <m>
=

>  <Value>
8500

>  <Unit>
nM

>  <Type>
IC50

>  <pValue>
5.07

>  <Ligand Efficiency>
0

>  <Binding Efficiency>
0

>  <Surface Efficiency>
0

>  <Assay Index>
1034999

>  <Assay Category>


>  <Assay Organism>
Homo sapiens

>  <Target ID>
17045

>  <Target Name>
Cytochrome P450 3A4

>  <Target Organism>
Homo sapiens

>  <Target Description>
Target is a single protein chain

>  <Sequence Accession>
P08684

>  <Reference>
J Med Chem 59 (19), 9173-9200 (2016)

>  <Pubmed ID>
27583770

>  <DOI>
10.1021/acs.jmedchem.6b01088

$$$$
2181687
Actelion Java MolfileCreator 1.0

 34 37  0  0  0  0  0  0  0  0999 V2000
    0.0000   -0.0000   -0.0000 F   0  0  0  0  0  0  0  0  0  0  0  0
    0.7432    1.3095   -0.0000 C   0  0  0  0  0  0  0  0  0  0  0  0
    2.2296    1.3213   -0.0000 F   0  0  0  0  0  0  0  0  0  0  0  0
    1.4746    0.0354   -0.0000 F   0  0  0  0  0  0  0  0  0  0  0  0
   -0.0118    2.6189   -0.0000 C   0  0  0  0  0  0  0  0  0  0  0  0
   -1.5218    2.6307   -0.0000 C   0  0  0  0  0  0  0  0  0  0  0  0
    0.7314    3.9284   -0.0000 C   0  0  0  0  0  0  0  0  0  0  0  0
   -2.2768    3.9402   -0.0000 C   0  0  0  0  0  0  0  0  0  0  0  0
   -0.0354    5.2378   -0.0000 C   0  0  0  0  0  0  0  0  0  0  0  0
   -3.7868    3.9520   -0.0000 C   0  0  0  0  0  0  0  0  0  0  0  0
   -1.5454    5.2496   -0.0000 C   0  0  0  0  0  0  0  0  0  0  0  0
   -4.5536    5.2614   -0.0000 O   0  0  0  0  0  0  0  0  0  0  0  0
   -4.5418    2.6661   -0.0000 N   0  0  0  0  0  0  0  0  0  0  0  0
   -6.0518    2.6779   -0.0000 C   0  0  0  0  0  0  0  0  0  0  0  0
   -6.9484    3.9048   -0.0000 N   0  0  0  0  0  0  0  0  0  0  0  0
   -6.9484    1.4628   -0.0000 N   0  0  0  0  0  0  0  0  0  0  0  0
   -8.3994    3.4447   -0.0000 C   0  0  0  0  0  0  0  0  0  0  0  0
   -8.3994    1.9465   -0.0000 C   0  0  0  0  0  0  0  0  0  0  0  0
   -6.5001    0.0472   -0.0000 C   0  0  0  0  0  0  0  0  0  0  0  0
   -9.7089    4.1997   -0.0000 C   0  0  0  0  0  0  0  0  0  0  0  0
   -9.7089    1.2033   -0.0000 C   0  0  0  0  0  0  0  0  0  0  0  0
   -5.0373   -0.1298   -0.0000 C   0  0  0  0  0  0  0  0  0  0  0  0
   -7.5972   -0.9673   -0.0000 C   0  0  0  0  0  0  0  0  0  0  0  0
  -11.0183    3.4565   -0.0000 C   0  0  0  0  0  0  0  0  0  0  0  0
  -11.0183    1.9701   -0.0000 C   0  0  0  0  0  0  0  0  0  0  0  0
   -9.7207   -0.2831   -0.0000 C   0  0  0  0  0  0  0  0  0  0  0  0
   -4.2705   -1.4038   -0.0000 N   0  0  0  0  0  0  0  0  0  0  0  0
   -7.4675   -2.4538   -0.0000 C   0  0  0  0  0  0  0  0  0  0  0  0
   -2.7959   -1.2505   -0.0000 C   0  0  0  0  0  0  0  0  0  0  0  0
   -4.8013   -2.7959   -0.0000 C   0  0  0  0  0  0  0  0  0  0  0  0
   -6.2288   -3.2560   -0.0000 C   0  0  0  0  0  0  0  0  0  0  0  0
   -2.1824    0.1180   -0.0000 O   0  0  0  0  0  0  0  0  0  0  0  0
   -1.9347   -2.4656   -0.0000 C   0  0  0  0  0  0  0  0  0  0  0  0
   -0.4601   -2.3122   -0.0000 C   0  0  0  0  0  0  0  0  0  0  0  0
  1  2  1  0  0  0  0
  2  3  1  0  0  0  0
  2  4  1  0  0  0  0
  2  5  1  0  0  0  0
  5  6  2  0  0  0  0
  5  7  1  0  0  0  0
  6  8  1  0  0  0  0
  7  9  2  0  0  0  0
  8 10  1  0  0  0  0
  8 11  2  0  0  0  0
 10 12  2  0  0  0  0
 10 13  1  0  0  0  0
 13 14  1  0  0  0  0
 14 15  2  0  0  0  0
 14 16  1  0  0  0  0
 15 17  1  0  0  0  0
 16 18  1  0  0  0  0
 19 16  1  6  0  0  0
 17 20  1  0  0  0  0
 18 21  1  0  0  0  0
 19 22  1  0  0  0  0
 19 23  1  0  0  0  0
 20 24  2  0  0  0  0
 21 25  2  0  0  0  0
 21 26  1  0  0  0  0
 22 27  1  0  0  0  0
 23 28  1  0  0  0  0
 27 29  1  0  0  0  0
 27 30  1  0  0  0  0
 28 31  1  0  0  0  0
 29 32  2  0  0  0  0
 29 33  1  0  0  0  0
 33 34  2  0  0  0  0
  9 11  1  0  0  0  0
 17 18  2  0  0  0  0
 24 25  1  0  0  0  0
 30 31  1  0  0  0  0
M  END
>  <MolRegNo>
2181687

>  <m>
=

>  <Value>
3500

>  <Unit>
nM

>  <Type>
IC50

>  <pValue>
5.46

>  <Ligand Efficiency>
0

>  <Binding Efficiency>
0

>  <Surface Efficiency>
0

>  <Assay Index>
1036326

>  <Assay Category>


>  <Assay Organism>
Homo sapiens

>  <Target ID>
17045

>  <Target Name>
Cytochrome P450 3A4

>  <Target Organism>
Homo sapiens

>  <Target Description>
Target is a single protein chain

>  <Sequence Accession>
P08684

>  <Reference>
J Med Chem 59 (14), 6671-6689 (2016)

>  <Pubmed ID>
27433829

>  <DOI>
10.1021/acs.jmedchem.5b01985

$$$$
2160805
Actelion Java MolfileCreator 1.0

 38 41  0  0  0  0  0  0  0  0999 V2000
    0.0000   -0.0000   -0.0000 F   0  0  0  0  0  0  0  0  0  0  0  0
    0.7437    1.3103   -0.0000 C   0  0  0  0  0  0  0  0  0  0  0  0
    2.2310    1.3221   -0.0000 F   0  0  0  0  0  0  0  0  0  0  0  0
    1.4756    0.0354   -0.0000 F   0  0  0  0  0  0  0  0  0  0  0  0
   -0.0118    2.6206   -0.0000 C   0  0  0  0  0  0  0  0  0  0  0  0
   -1.5228    2.6324   -0.0000 C   0  0  0  0  0  0  0  0  0  0  0  0
    0.7319    3.9309   -0.0000 C   0  0  0  0  0  0  0  0  0  0  0  0
   -2.2783    3.9427   -0.0000 C   0  0  0  0  0  0  0  0  0  0  0  0
   -0.0354    5.2412   -0.0000 C   0  0  0  0  0  0  0  0  0  0  0  0
   -3.7892    3.9545   -0.0000 C   0  0  0  0  0  0  0  0  0  0  0  0
   -1.5464    5.2530   -0.0000 C   0  0  0  0  0  0  0  0  0  0  0  0
   -4.5565    5.2648   -0.0000 O   0  0  0  0  0  0  0  0  0  0  0  0
   -4.5447    2.6678   -0.0000 N   0  0  0  0  0  0  0  0  0  0  0  0
   -6.0557    2.6796   -0.0000 C   0  0  0  0  0  0  0  0  0  0  0  0
   -6.9528    3.9073   -0.0000 N   0  0  0  0  0  0  0  0  0  0  0  0
   -6.9528    1.4638   -0.0000 N   0  0  0  0  0  0  0  0  0  0  0  0
   -8.4048    3.4469   -0.0000 C   0  0  0  0  0  0  0  0  0  0  0  0
   -8.4048    1.9477   -0.0000 C   0  0  0  0  0  0  0  0  0  0  0  0
   -6.5042    0.0472   -0.0000 C   0  0  0  0  0  0  0  0  0  0  0  0
   -9.7151    4.2024   -0.0000 C   0  0  0  0  0  0  0  0  0  0  0  0
   -9.7151    1.2041   -0.0000 C   0  0  0  0  0  0  0  0  0  0  0  0
   -5.0405   -0.1298   -0.0000 C   0  0  0  0  0  0  0  0  0  0  0  0
   -7.6021   -0.9680   -0.0000 C   0  0  0  0  0  0  0  0  0  0  0  0
  -11.0253    3.4587   -0.0000 C   0  0  0  0  0  0  0  0  0  0  0  0
  -11.0253    1.9713   -0.0000 C   0  0  0  0  0  0  0  0  0  0  0  0
   -9.7269   -0.2833   -0.0000 C   0  0  0  0  0  0  0  0  0  0  0  0
   -4.2732   -1.4047   -0.0000 N   0  0  0  0  0  0  0  0  0  0  0  0
   -7.4722   -2.4553   -0.0000 C   0  0  0  0  0  0  0  0  0  0  0  0
   -2.7977   -1.2513   -0.0000 C   0  0  0  0  0  0  0  0  0  0  0  0
   -4.8044   -2.7977   -0.0000 C   0  0  0  0  0  0  0  0  0  0  0  0
   -6.2327   -3.2580   -0.0000 C   0  0  0  0  0  0  0  0  0  0  0  0
   -2.1838    0.1180   -0.0000 O   0  0  0  0  0  0  0  0  0  0  0  0
   -1.9359   -2.4671   -0.0000 C   0  0  0  0  0  0  0  0  0  0  0  0
   -0.4604   -2.3137   -0.0000 C   0  0  0  0  0  0  0  0  0  0  0  0
    0.4014   -3.5295   -0.0000 C   0  0  0  0  0  0  0  0  0  0  0  0
    1.8769   -3.3761   -0.0000 N   0  0  0  0  0  0  0  0  0  0  0  0
    2.7386   -4.5919   -0.0000 C   0  0  0  0  0  0  0  0  0  0  0  0
    2.4907   -2.0068   -0.0000 C   0  0  0  0  0  0  0  0  0  0  0  0
  1  2  1  0  0  0  0
  2  3  1  0  0  0  0
  2  4  1  0  0  0  0
  2  5  1  0  0  0  0
  5  6  2  0  0  0  0
  5  7  1  0  0  0  0
  6  8  1  0  0  0  0
  7  9  2  0  0  0  0
  8 10  1  0  0  0  0
  8 11  2  0  0  0  0
 10 12  2  0  0  0  0
 10 13  1  0  0  0  0
 13 14  1  0  0  0  0
 14 15  2  0  0  0  0
 14 16  1  0  0  0  0
 15 17  1  0  0  0  0
 16 18  1  0  0  0  0
 19 16  1  6  0  0  0
 17 20  1  0  0  0  0
 18 21  1  0  0  0  0
 19 22  1  0  0  0  0
 19 23  1  0  0  0  0
 20 24  2  0  0  0  0
 21 25  2  0  0  0  0
 21 26  1  0  0  0  0
 22 27  1  0  0  0  0
 23 28  1  0  0  0  0
 27 29  1  0  0  0  0
 27 30  1  0  0  0  0
 28 31  1  0  0  0  0
 29 32  2  0  0  0  0
 29 33  1  0  0  0  0
 33 34  2  0  0  0  0
 34 35  1  0  0  0  0
 35 36  1  0  0  0  0
 36 37  1  0  0  0  0
 36 38  1  0  0  0  0
  9 11  1  0  0  0  0
 17 18  2  0  0  0  0
 24 25  1  0  0  0  0
 30 31  1  0  0  0  0
M  END
>  <MolRegNo>
2160805

>  <m>
=

>  <Value>
22200

>  <Unit>
nM

>  <Type>
IC50

>  <pValue>
4.65

>  <Ligand Efficiency>
0

>  <Binding Efficiency>
0

>  <Surface Efficiency>
0

>  <Assay Index>
1036326

>  <Assay Category>


>  <Assay Organism>
Homo sapiens

>  <Target ID>
17045

>  <Target Name>
Cytochrome P450 3A4

>  <Target Organism>
Homo sapiens

>  <Target Description>
Target is a single protein chain

>  <Sequence Accession>
P08684

>  <Reference>
J Med Chem 59 (14), 6671-6689 (2016)

>  <Pubmed ID>
27433829

>  <DOI>
10.1021/acs.jmedchem.5b01985

$$$$
2159687
Actelion Java MolfileCreator 1.0

 27 30  0  0  0  0  0  0  0  0999 V2000
    0.0000   -0.0000   -0.0000 Cl  0  0  0  0  0  0  0  0  0  0  0  0
    1.3012   -0.7402   -0.0000 C   0  0  0  0  0  0  0  0  0  0  0  0
    2.5905    0.0239   -0.0000 C   0  0  0  0  0  0  0  0  0  0  0  0
    1.3012   -2.2443   -0.0000 C   0  0  0  0  0  0  0  0  0  0  0  0
    3.8798   -0.7163   -0.0000 C   0  0  0  0  0  0  0  0  0  0  0  0
    2.6025   -2.9725   -0.0000 C   0  0  0  0  0  0  0  0  0  0  0  0
    3.8679   -2.2205   -0.0000 C   0  0  0  0  0  0  0  0  0  0  0  0
    5.1691    0.0597   -0.0000 C   0  0  0  0  0  0  0  0  0  0  0  0
    2.6025   -4.4648   -0.0000 C   0  0  0  0  0  0  0  0  0  0  0  0
    5.1572   -2.9606   -0.0000 N   0  0  0  0  0  0  0  0  0  0  0  0
    6.4584   -0.6805   -0.0000 C   0  0  0  0  0  0  0  0  0  0  0  0
    5.1572    1.5758   -0.0000 C   0  0  0  0  0  0  0  0  0  0  0  0
    6.4465   -2.1966   -0.0000 C   0  0  0  0  0  0  0  0  0  0  0  0
    7.7597    0.0836   -0.0000 C   0  0  0  0  0  0  0  0  0  0  0  0
    6.4465    2.3398   -0.0000 C   0  0  0  0  0  0  0  0  0  0  0  0
    3.8440    2.3279   -0.0000 C   0  0  0  0  0  0  0  0  0  0  0  0
    7.7358   -2.9367   -0.0000 N   0  0  0  0  0  0  0  0  0  0  0  0
    7.7477    1.5997   -0.0000 O   0  0  0  0  0  0  0  0  0  0  0  0
    9.0490   -0.6566   -0.0000 O   0  0  0  0  0  0  0  0  0  0  0  0
    6.4346    3.8560   -0.0000 C   0  0  0  0  0  0  0  0  0  0  0  0
    3.8201    3.8440   -0.0000 C   0  0  0  0  0  0  0  0  0  0  0  0
    7.7119   -4.4290   -0.0000 C   0  0  0  0  0  0  0  0  0  0  0  0
    9.0131   -2.1608   -0.0000 C   0  0  0  0  0  0  0  0  0  0  0  0
    5.1094    4.6200   -0.0000 C   0  0  0  0  0  0  0  0  0  0  0  0
    9.0012   -5.1691   -0.0000 C   0  0  0  0  0  0  0  0  0  0  0  0
   10.3024   -2.9129   -0.0000 C   0  0  0  0  0  0  0  0  0  0  0  0
   10.3024   -4.4051   -0.0000 C   0  0  0  0  0  0  0  0  0  0  0  0
  1  2  1  0  0  0  0
  2  3  2  0  0  0  0
  2  4  1  0  0  0  0
  3  5  1  0  0  0  0
  4  6  2  0  0  0  0
  5  7  1  0  0  0  0
  5  8  2  0  0  0  0
  6  9  1  0  0  0  0
  7 10  2  0  0  0  0
  8 11  1  0  0  0  0
  8 12  1  0  0  0  0
 10 13  1  0  0  0  0
 11 14  1  0  0  0  0
 12 15  2  0  0  0  0
 12 16  1  0  0  0  0
 13 17  1  0  0  0  0
 14 18  2  0  0  0  0
 14 19  1  0  0  0  0
 15 20  1  0  0  0  0
 16 21  2  0  0  0  0
 17 22  1  0  0  0  0
 17 23  1  0  0  0  0
 20 24  2  0  0  0  0
 22 25  1  0  0  0  0
 23 26  1  0  0  0  0
 25 27  1  0  0  0  0
  6  7  1  0  0  0  0
 11 13  2  0  0  0  0
 21 24  1  0  0  0  0
 26 27  1  0  0  0  0
M  END
>  <MolRegNo>
2159687

>  <m>
=

>  <Value>
16000

>  <Unit>
nM

>  <Type>
IC50

>  <pValue>
4.8

>  <Ligand Efficiency>
0

>  <Binding Efficiency>
0

>  <Surface Efficiency>
0

>  <Assay Index>
1037308

>  <Assay Category>


>  <Assay Organism>
Homo sapiens

>  <Target ID>
17045

>  <Target Name>
Cytochrome P450 3A4

>  <Target Organism>
Homo sapiens

>  <Target Description>
Target is a single protein chain

>  <Sequence Accession>
P08684

>  <Reference>
Bioorg Med Chem Lett 26 (20), 5092-5097 (2016)

>  <Pubmed ID>
27658368

>  <DOI>
10.1016/j.bmcl.2016.08.071

$$$$
2179476
Actelion Java MolfileCreator 1.0

 29 33  0  0  0  0  0  0  0  0999 V2000
    0.0000   -0.0000   -0.0000 Cl  0  0  0  0  0  0  0  0  0  0  0  0
    1.3003   -0.7396   -0.0000 C   0  0  0  0  0  0  0  0  0  0  0  0
    2.5886    0.0239   -0.0000 C   0  0  0  0  0  0  0  0  0  0  0  0
    1.3003   -2.2427   -0.0000 C   0  0  0  0  0  0  0  0  0  0  0  0
    3.8770   -0.7158   -0.0000 C   0  0  0  0  0  0  0  0  0  0  0  0
    2.6006   -2.9704   -0.0000 C   0  0  0  0  0  0  0  0  0  0  0  0
    5.1654    0.0596   -0.0000 C   0  0  0  0  0  0  0  0  0  0  0  0
    3.8651   -2.2188   -0.0000 C   0  0  0  0  0  0  0  0  0  0  0  0
    6.4537   -0.6800   -0.0000 C   0  0  0  0  0  0  0  0  0  0  0  0
    5.1534    1.5747   -0.0000 C   0  0  0  0  0  0  0  0  0  0  0  0
    5.1534   -2.9584   -0.0000 N   0  0  0  0  0  0  0  0  0  0  0  0
    6.4418   -2.1830   -0.0000 C   0  0  0  0  0  0  0  0  0  0  0  0
    7.7540    0.0835   -0.0000 C   0  0  0  0  0  0  0  0  0  0  0  0
    6.4418    2.3381   -0.0000 C   0  0  0  0  0  0  0  0  0  0  0  0
    3.8412    2.3262   -0.0000 C   0  0  0  0  0  0  0  0  0  0  0  0
    7.7301   -2.9227   -0.0000 N   0  0  0  0  0  0  0  0  0  0  0  0
    7.8971    1.5985   -0.0000 O   0  0  0  0  0  0  0  0  0  0  0  0
    9.1139   -0.5130   -0.0000 N   0  0  0  0  0  0  0  0  0  0  0  0
    6.4299    3.8531   -0.0000 C   0  0  0  0  0  0  0  0  0  0  0  0
    3.8174    3.8412   -0.0000 C   0  0  0  0  0  0  0  0  0  0  0  0
    7.7063   -4.4138   -0.0000 C   0  0  0  0  0  0  0  0  0  0  0  0
    9.0066   -2.1473   -0.0000 C   0  0  0  0  0  0  0  0  0  0  0  0
    9.3644    1.9206   -0.0000 C   0  0  0  0  0  0  0  0  0  0  0  0
   10.1160    0.6203   -0.0000 N   0  0  0  0  0  0  0  0  0  0  0  0
    5.1057    4.6166   -0.0000 C   0  0  0  0  0  0  0  0  0  0  0  0
    8.9946   -5.1534   -0.0000 C   0  0  0  0  0  0  0  0  0  0  0  0
   10.2949   -2.8988   -0.0000 C   0  0  0  0  0  0  0  0  0  0  0  0
    9.9609    3.3044   -0.0000 S   0  0  0  0  0  0  0  0  0  0  0  0
   10.2949   -4.3900   -0.0000 C   0  0  0  0  0  0  0  0  0  0  0  0
  1  2  1  0  0  0  0
  2  3  2  0  0  0  0
  2  4  1  0  0  0  0
  3  5  1  0  0  0  0
  4  6  2  0  0  0  0
  5  7  2  0  0  0  0
  5  8  1  0  0  0  0
  7  9  1  0  0  0  0
  7 10  1  0  0  0  0
  8 11  2  0  0  0  0
  9 12  2  0  0  0  0
  9 13  1  0  0  0  0
 10 14  2  0  0  0  0
 10 15  1  0  0  0  0
 12 16  1  0  0  0  0
 13 17  1  0  0  0  0
 13 18  2  0  0  0  0
 14 19  1  0  0  0  0
 15 20  2  0  0  0  0
 16 21  1  0  0  0  0
 16 22  1  0  0  0  0
 17 23  1  0  0  0  0
 18 24  1  0  0  0  0
 19 25  2  0  0  0  0
 21 26  1  0  0  0  0
 22 27  1  0  0  0  0
 23 28  2  0  0  0  0
 26 29  1  0  0  0  0
  6  8  1  0  0  0  0
 11 12  1  0  0  0  0
 20 25  1  0  0  0  0
 23 24  1  0  0  0  0
 27 29  1  0  0  0  0
M  END
>  <MolRegNo>
2179476

>  <m>
=

>  <Value>
15000

>  <Unit>
nM

>  <Type>
IC50

>  <pValue>
4.82

>  <Ligand Efficiency>
0

>  <Binding Efficiency>
0

>  <Surface Efficiency>
0

>  <Assay Index>
1037308

>  <Assay Category>


>  <Assay Organism>
Homo sapiens

>  <Target ID>
17045

>  <Target Name>
Cytochrome P450 3A4

>  <Target Organism>
Homo sapiens

>  <Target Description>
Target is a single protein chain

>  <Sequence Accession>
P08684

>  <Reference>
Bioorg Med Chem Lett 26 (20), 5092-5097 (2016)

>  <Pubmed ID>
27658368

>  <DOI>
10.1016/j.bmcl.2016.08.071

$$$$
2192018
Actelion Java MolfileCreator 1.0

 36 37  0  0  0  0  0  0  0  0999 V2000
    0.0000   -0.0000   -0.0000 Cl  0  0  0  0  0  0  0  0  0  0  0  0
    0.1394   -3.7631   -0.0000 S   0  0  0  0  0  0  0  0  0  0  0  0
   -0.9582   -4.7910   -0.0000 O   0  0  0  0  0  0  0  0  0  0  0  0
    1.1847   -4.7910   -0.0000 O   0  0  0  0  0  0  0  0  0  0  0  0
   -1.1847   -2.9965   -0.0000 N   0  0  0  0  0  0  0  0  0  0  0  0
    1.4286   -2.9965   -0.0000 N   0  0  0  0  0  0  0  0  0  0  0  0
   -2.5087   -3.7283   -0.0000 C   0  0  0  0  0  0  0  0  0  0  0  0
    2.7178   -3.7283   -0.0000 C   0  0  0  0  0  0  0  0  0  0  0  0
   -3.8328   -2.9617   -0.0000 C   0  0  0  0  0  0  0  0  0  0  0  0
   -2.5262   -5.2091   -0.0000 C   0  0  0  0  0  0  0  0  0  0  0  0
    3.9896   -2.9617   -0.0000 C   0  0  0  0  0  0  0  0  0  0  0  0
    2.7004   -5.2091   -0.0000 C   0  0  0  0  0  0  0  0  0  0  0  0
   -3.8502   -1.4460   -0.0000 O   0  0  0  0  0  0  0  0  0  0  0  0
   -5.1568   -3.6934   -0.0000 N   0  0  0  0  0  0  0  0  0  0  0  0
   -3.8502   -5.9408   -0.0000 C   0  0  0  0  0  0  0  0  0  0  0  0
    3.9722   -1.4460   -0.0000 O   0  0  0  0  0  0  0  0  0  0  0  0
    5.2788   -3.6934   -0.0000 O   0  0  0  0  0  0  0  0  0  0  0  0
    3.9722   -5.9408   -0.0000 C   0  0  0  0  0  0  0  0  0  0  0  0
   -6.4809   -2.9269   -0.0000 C   0  0  0  0  0  0  0  0  0  0  0  0
   -3.8676   -7.4217   -0.0000 C   0  0  0  0  0  0  0  0  0  0  0  0
   -5.1568   -5.1568   -0.0000 C   0  0  0  0  0  0  0  0  0  0  0  0
    3.9547   -7.4217   -0.0000 C   0  0  0  0  0  0  0  0  0  0  0  0
   -7.8398   -3.0662   -0.0000 C   0  0  0  0  0  0  0  0  0  0  0  0
   -6.6551   -1.8467   -0.0000 C   0  0  0  0  0  0  0  0  0  0  0  0
   -5.1743   -8.1534   -0.0000 C   0  0  0  0  0  0  0  0  0  0  0  0
   -6.4635   -5.8886   -0.0000 C   0  0  0  0  0  0  0  0  0  0  0  0
    5.2440   -8.1534   -0.0000 C   0  0  0  0  0  0  0  0  0  0  0  0
   -9.1639   -0.8362   -0.0000 C   0  0  0  0  0  0  0  0  0  0  0  0
   -8.5889   -4.3032   -0.0000 C   0  0  0  0  0  0  0  0  0  0  0  0
   -7.4043   -4.4774   -0.0000 C   0  0  0  0  0  0  0  0  0  0  0  0
   -8.2057   -1.8293   -0.0000 C   0  0  0  0  0  0  0  0  0  0  0  0
   -6.4809   -7.3868   -0.0000 C   0  0  0  0  0  0  0  0  0  0  0  0
    5.2265   -9.6342   -0.0000 N   0  0  0  0  0  0  0  0  0  0  0  0
  -10.6621   -0.5052   -0.0000 C   0  0  0  0  0  0  0  0  0  0  0  0
   -9.2684    0.6794   -0.0000 C   0  0  0  0  0  0  0  0  0  0  0  0
   -8.6935   -3.0314   -0.0000 C   0  0  0  0  0  0  0  0  0  0  0  0
  2  3  2  0  0  0  0
  2  4  2  0  0  0  0
  2  5  1  0  0  0  0
  2  6  1  0  0  0  0
  7  5  1  1  0  0  0
  8  6  1  6  0  0  0
  7  9  1  0  0  0  0
  7 10  1  0  0  0  0
  8 11  1  0  0  0  0
  8 12  1  0  0  0  0
  9 13  2  0  0  0  0
  9 14  1  0  0  0  0
 10 15  1  0  0  0  0
 11 16  2  0  0  0  0
 11 17  1  0  0  0  0
 12 18  1  0  0  0  0
 19 14  1  6  0  0  0
 15 20  1  0  0  0  0
 15 21  1  0  0  0  0
 18 22  1  0  0  0  0
 19 23  1  0  0  0  0
 19 24  1  0  0  0  0
 20 25  1  0  0  0  0
 21 26  1  0  0  0  0
 22 27  1  0  0  0  0
 23 28  1  0  0  0  0
 23 29  1  0  0  0  0
 23 30  1  1  0  0  0
 31 24  1  1  0  0  0
 25 32  1  0  0  0  0
 27 33  1  0  0  0  0
 28 34  1  0  0  0  0
 28 35  1  0  0  0  0
 29 36  1  0  0  0  0
 26 32  1  0  0  0  0
 28 31  1  0  0  0  0
 31 36  1  0  0  0  0
M  END
>  <MolRegNo>
2192018

>  <m>
=

>  <Value>
12000

>  <Unit>
nM

>  <Type>
IC50

>  <pValue>
4.92

>  <Ligand Efficiency>
0

>  <Binding Efficiency>
0

>  <Surface Efficiency>
0

>  <Assay Index>
1037630

>  <Assay Category>


>  <Assay Organism>
Homo sapiens

>  <Target ID>
17045

>  <Target Name>
Cytochrome P450 3A4

>  <Target Organism>
Homo sapiens

>  <Target Description>
Target is a single protein chain

>  <Sequence Accession>
P08684

>  <Reference>
J Med Chem 59 (20), 9567-9573 (2016)

>  <Pubmed ID>
27749053

>  <DOI>
10.1021/acs.jmedchem.6b01276

$$$$
2149786
Actelion Java MolfileCreator 1.0

 36 40  0  0  0  0  0  0  0  0999 V2000
    0.0000   -0.0000   -0.0000 F   0  0  0  0  0  0  0  0  0  0  0  0
   -0.7597   -1.2938   -0.0000 C   0  0  0  0  0  0  0  0  0  0  0  0
    0.7240   -1.2700   -0.0000 F   0  0  0  0  0  0  0  0  0  0  0  0
   -0.7715   -2.7775   -0.0000 C   0  0  0  0  0  0  0  0  0  0  0  0
   -2.0653   -0.5223   -0.0000 C   0  0  0  0  0  0  0  0  0  0  0  0
   -2.0772   -3.5134   -0.0000 C   0  0  0  0  0  0  0  0  0  0  0  0
    0.5223   -3.5134   -0.0000 C   0  0  0  0  0  0  0  0  0  0  0  0
   -3.3710   -1.2582   -0.0000 C   0  0  0  0  0  0  0  0  0  0  0  0
   -2.0891   -4.9971   -0.0000 C   0  0  0  0  0  0  0  0  0  0  0  0
   -3.3828   -2.7537   -0.0000 C   0  0  0  0  0  0  0  0  0  0  0  0
   -4.8191   -0.7834   -0.0000 C   0  0  0  0  0  0  0  0  0  0  0  0
   -3.3947    0.2611   -0.0000 C   0  0  0  0  0  0  0  0  0  0  0  0
   -0.8071   -5.7330   -0.0000 C   0  0  0  0  0  0  0  0  0  0  0  0
   -4.8309   -3.2048   -0.0000 C   0  0  0  0  0  0  0  0  0  0  0  0
   -5.5906    0.5341   -0.0000 O   0  0  0  0  0  0  0  0  0  0  0  0
   -5.7212   -1.9941   -0.0000 O   0  0  0  0  0  0  0  0  0  0  0  0
   -2.1840    1.1751   -0.0000 O   0  0  0  0  0  0  0  0  0  0  0  0
   -4.6291    1.1632   -0.0000 N   0  0  0  0  0  0  0  0  0  0  0  0
   -0.8190   -7.2167   -0.0000 C   0  0  0  0  0  0  0  0  0  0  0  0
   -5.3057   -4.6173   -0.0000 C   0  0  0  0  0  0  0  0  0  0  0  0
   -2.6707    2.6232   -0.0000 C   0  0  0  0  0  0  0  0  0  0  0  0
   -4.1781    2.6113   -0.0000 N   0  0  0  0  0  0  0  0  0  0  0  0
    0.4629   -7.9408   -0.0000 N   0  0  0  0  0  0  0  0  0  0  0  0
   -2.1365   -7.9526   -0.0000 C   0  0  0  0  0  0  0  0  0  0  0  0
   -1.8042    3.8576   -0.0000 O   0  0  0  0  0  0  0  0  0  0  0  0
    0.4510   -9.4245   -0.0000 C   0  0  0  0  0  0  0  0  0  0  0  0
   -2.1484   -9.4363   -0.0000 C   0  0  0  0  0  0  0  0  0  0  0  0
   -0.8665  -10.1723   -0.0000 C   0  0  0  0  0  0  0  0  0  0  0  0
   -0.8784  -11.6560   -0.0000 C   0  0  0  0  0  0  0  0  0  0  0  0
    0.4036  -12.3919   -0.0000 C   0  0  0  0  0  0  0  0  0  0  0  0
   -2.1959  -12.3919   -0.0000 C   0  0  0  0  0  0  0  0  0  0  0  0
    1.6855  -11.6203   -0.0000 C   0  0  0  0  0  0  0  0  0  0  0  0
    0.4036  -13.8756   -0.0000 C   0  0  0  0  0  0  0  0  0  0  0  0
   -2.2077  -13.8756   -0.0000 C   0  0  0  0  0  0  0  0  0  0  0  0
    2.9674  -10.8488   -0.0000 N   0  0  0  0  0  0  0  0  0  0  0  0
   -0.9140  -14.6234   -0.0000 C   0  0  0  0  0  0  0  0  0  0  0  0
  1  2  1  0  0  0  0
  2  3  1  0  0  0  0
  2  4  1  0  0  0  0
  2  5  1  0  0  0  0
  4  6  1  0  0  0  0
  4  7  1  6  0  0  0
  5  8  1  0  0  0  0
  6  9  1  1  0  0  0
 10  6  1  1  0  0  0
  8 11  1  0  0  0  0
  8 12  1  6  0  0  0
  9 13  2  0  0  0  0
 10 14  1  0  0  0  0
 11 15  2  0  0  0  0
 11 16  1  0  0  0  0
 12 17  1  0  0  0  0
 12 18  2  0  0  0  0
 13 19  1  0  0  0  0
 14 20  1  6  0  0  0
 17 21  1  0  0  0  0
 18 22  1  0  0  0  0
 19 23  2  0  0  0  0
 19 24  1  0  0  0  0
 21 25  2  0  0  0  0
 23 26  1  0  0  0  0
 24 27  2  0  0  0  0
 26 28  2  0  0  0  0
 28 29  1  0  0  0  0
 29 30  2  0  0  0  0
 29 31  1  0  0  0  0
 30 32  1  0  0  0  0
 30 33  1  0  0  0  0
 31 34  2  0  0  0  0
 32 35  3  0  0  0  0
 33 36  2  0  0  0  0
  8 10  1  0  0  0  0
 14 16  1  0  0  0  0
 21 22  1  0  0  0  0
 27 28  1  0  0  0  0
 34 36  1  0  0  0  0
M  END
>  <MolRegNo>
2149786

>  <m>
=

>  <Value>
21800

>  <Unit>
nM

>  <Type>
IC50

>  <pValue>
4.66

>  <Ligand Efficiency>
0

>  <Binding Efficiency>
0

>  <Surface Efficiency>
0

>  <Assay Index>
1037674

>  <Assay Category>


>  <Assay Organism>
Homo sapiens

>  <Target ID>
17045

>  <Target Name>
Cytochrome P450 3A4

>  <Target Organism>
Homo sapiens

>  <Target Description>
Target is a single protein chain

>  <Sequence Accession>
P08684

>  <Reference>
ACS Med Chem Lett 7 (10), 881-883 (2016)

>  <Pubmed ID>
27774122

>  <DOI>
10.1021/acsmedchemlett.6b00327

$$$$
2138707
Actelion Java MolfileCreator 1.0

 36 40  0  0  0  0  0  0  0  0999 V2000
    0.0000   -0.0000   -0.0000 F   0  0  0  0  0  0  0  0  0  0  0  0
   -0.7597   -1.2938   -0.0000 C   0  0  0  0  0  0  0  0  0  0  0  0
    0.7240   -1.2700   -0.0000 F   0  0  0  0  0  0  0  0  0  0  0  0
   -0.7715   -2.7775   -0.0000 C   0  0  0  0  0  0  0  0  0  0  0  0
   -2.0653   -0.5223   -0.0000 C   0  0  0  0  0  0  0  0  0  0  0  0
   -2.0772   -3.5134   -0.0000 C   0  0  0  0  0  0  0  0  0  0  0  0
    0.5223   -3.5134   -0.0000 C   0  0  0  0  0  0  0  0  0  0  0  0
   -3.3710   -1.2582   -0.0000 C   0  0  0  0  0  0  0  0  0  0  0  0
   -2.0891   -4.9971   -0.0000 C   0  0  0  0  0  0  0  0  0  0  0  0
   -3.3828   -2.7537   -0.0000 C   0  0  0  0  0  0  0  0  0  0  0  0
   -4.8191   -0.7834   -0.0000 C   0  0  0  0  0  0  0  0  0  0  0  0
   -3.3947    0.2611   -0.0000 C   0  0  0  0  0  0  0  0  0  0  0  0
   -0.8071   -5.7330   -0.0000 C   0  0  0  0  0  0  0  0  0  0  0  0
   -4.8309   -3.2048   -0.0000 C   0  0  0  0  0  0  0  0  0  0  0  0
   -5.5906    0.5341   -0.0000 O   0  0  0  0  0  0  0  0  0  0  0  0
   -5.7212   -1.9941   -0.0000 O   0  0  0  0  0  0  0  0  0  0  0  0
   -2.1840    1.1751   -0.0000 O   0  0  0  0  0  0  0  0  0  0  0  0
   -4.6291    1.1632   -0.0000 N   0  0  0  0  0  0  0  0  0  0  0  0
   -0.8190   -7.2167   -0.0000 C   0  0  0  0  0  0  0  0  0  0  0  0
   -5.3057   -4.6173   -0.0000 C   0  0  0  0  0  0  0  0  0  0  0  0
   -2.6707    2.6232   -0.0000 C   0  0  0  0  0  0  0  0  0  0  0  0
   -4.1781    2.6113   -0.0000 N   0  0  0  0  0  0  0  0  0  0  0  0
    0.4629   -7.9408   -0.0000 N   0  0  0  0  0  0  0  0  0  0  0  0
   -2.1365   -7.9526   -0.0000 C   0  0  0  0  0  0  0  0  0  0  0  0
   -1.8042    3.8576   -0.0000 N   0  0  0  0  0  0  0  0  0  0  0  0
    0.4510   -9.4245   -0.0000 C   0  0  0  0  0  0  0  0  0  0  0  0
   -2.1484   -9.4363   -0.0000 C   0  0  0  0  0  0  0  0  0  0  0  0
   -0.8665  -10.1723   -0.0000 C   0  0  0  0  0  0  0  0  0  0  0  0
   -0.8784  -11.6560   -0.0000 C   0  0  0  0  0  0  0  0  0  0  0  0
    0.4036  -12.3919   -0.0000 C   0  0  0  0  0  0  0  0  0  0  0  0
   -2.1959  -12.3919   -0.0000 C   0  0  0  0  0  0  0  0  0  0  0  0
    1.6855  -11.6203   -0.0000 C   0  0  0  0  0  0  0  0  0  0  0  0
    0.4036  -13.8756   -0.0000 C   0  0  0  0  0  0  0  0  0  0  0  0
   -2.2077  -13.8756   -0.0000 C   0  0  0  0  0  0  0  0  0  0  0  0
    2.9674  -10.8488   -0.0000 N   0  0  0  0  0  0  0  0  0  0  0  0
   -0.9140  -14.6234   -0.0000 C   0  0  0  0  0  0  0  0  0  0  0  0
  1  2  1  0  0  0  0
  2  3  1  0  0  0  0
  2  4  1  0  0  0  0
  2  5  1  0  0  0  0
  4  6  1  0  0  0  0
  4  7  1  6  0  0  0
  5  8  1  0  0  0  0
  6  9  1  1  0  0  0
 10  6  1  1  0  0  0
  8 11  1  0  0  0  0
  8 12  1  6  0  0  0
  9 13  2  0  0  0  0
 10 14  1  0  0  0  0
 11 15  2  0  0  0  0
 11 16  1  0  0  0  0
 12 17  1  0  0  0  0
 12 18  2  0  0  0  0
 13 19  1  0  0  0  0
 14 20  1  6  0  0  0
 17 21  1  0  0  0  0
 18 22  1  0  0  0  0
 19 23  2  0  0  0  0
 19 24  1  0  0  0  0
 21 25  1  0  0  0  0
 23 26  1  0  0  0  0
 24 27  2  0  0  0  0
 26 28  2  0  0  0  0
 28 29  1  0  0  0  0
 29 30  2  0  0  0  0
 29 31  1  0  0  0  0
 30 32  1  0  0  0  0
 30 33  1  0  0  0  0
 31 34  2  0  0  0  0
 32 35  3  0  0  0  0
 33 36  2  0  0  0  0
  8 10  1  0  0  0  0
 14 16  1  0  0  0  0
 21 22  2  0  0  0  0
 27 28  1  0  0  0  0
 34 36  1  0  0  0  0
M  END
>  <MolRegNo>
2138707

>  <m>
=

>  <Value>
9900

>  <Unit>
nM

>  <Type>
IC50

>  <pValue>
5

>  <Ligand Efficiency>
0

>  <Binding Efficiency>
0

>  <Surface Efficiency>
0

>  <Assay Index>
1037674

>  <Assay Category>


>  <Assay Organism>
Homo sapiens

>  <Target ID>
17045

>  <Target Name>
Cytochrome P450 3A4

>  <Target Organism>
Homo sapiens

>  <Target Description>
Target is a single protein chain

>  <Sequence Accession>
P08684

>  <Reference>
ACS Med Chem Lett 7 (10), 881-883 (2016)

>  <Pubmed ID>
27774122

>  <DOI>
10.1021/acsmedchemlett.6b00327

$$$$
2178237
Actelion Java MolfileCreator 1.0

 35 39  0  0  0  0  0  0  0  0999 V2000
    0.0000   -0.0000   -0.0000 F   0  0  0  0  0  0  0  0  0  0  0  0
    1.2776    0.7571   -0.0000 C   0  0  0  0  0  0  0  0  0  0  0  0
    1.2658    2.2595   -0.0000 C   0  0  0  0  0  0  0  0  0  0  0  0
    2.5670    0.0237   -0.0000 C   0  0  0  0  0  0  0  0  0  0  0  0
    2.5552    3.0166   -0.0000 C   0  0  0  0  0  0  0  0  0  0  0  0
    3.8565    0.7926   -0.0000 C   0  0  0  0  0  0  0  0  0  0  0  0
    2.5434    4.5189   -0.0000 C   0  0  0  0  0  0  0  0  0  0  0  0
    3.8328    2.2831   -0.0000 C   0  0  0  0  0  0  0  0  0  0  0  0
    3.8328    5.2878   -0.0000 C   0  0  0  0  0  0  0  0  0  0  0  0
    1.2421    5.2760   -0.0000 C   0  0  0  0  0  0  0  0  0  0  0  0
    3.8210    6.7902   -0.0000 N   0  0  0  0  0  0  0  0  0  0  0  0
    1.2303    6.7784   -0.0000 C   0  0  0  0  0  0  0  0  0  0  0  0
    2.5197    7.5355   -0.0000 C   0  0  0  0  0  0  0  0  0  0  0  0
    2.5079    9.0378   -0.0000 C   0  0  0  0  0  0  0  0  0  0  0  0
    1.2066    9.7949   -0.0000 C   0  0  0  0  0  0  0  0  0  0  0  0
    1.1948   11.2973   -0.0000 C   0  0  0  0  0  0  0  0  0  0  0  0
    2.4724   12.0426   -0.0000 C   0  0  0  0  0  0  0  0  0  0  0  0
   -0.1065   12.0426   -0.0000 C   0  0  0  0  0  0  0  0  0  0  0  0
    2.4606   13.5449   -0.0000 C   0  0  0  0  0  0  0  0  0  0  0  0
    3.7500   11.3091   -0.0000 C   0  0  0  0  0  0  0  0  0  0  0  0
   -0.1183   13.5568   -0.0000 C   0  0  0  0  0  0  0  0  0  0  0  0
   -1.5497   11.5930   -0.0000 C   0  0  0  0  0  0  0  0  0  0  0  0
    3.1940   14.8580   -0.0000 F   0  0  0  0  0  0  0  0  0  0  0  0
    3.9393   13.5686   -0.0000 F   0  0  0  0  0  0  0  0  0  0  0  0
    1.1593   14.3139   -0.0000 C   0  0  0  0  0  0  0  0  0  0  0  0
   -1.5615   14.0299   -0.0000 C   0  0  0  0  0  0  0  0  0  0  0  0
   -0.1420   15.0709   -0.0000 C   0  0  0  0  0  0  0  0  0  0  0  0
   -2.4487   12.8233   -0.0000 O   0  0  0  0  0  0  0  0  0  0  0  0
   -2.0229   10.1853   -0.0000 C   0  0  0  0  0  0  0  0  0  0  0  0
   -2.3304   15.3430   -0.0000 O   0  0  0  0  0  0  0  0  0  0  0  0
    1.0647   15.9700   -0.0000 O   0  0  0  0  0  0  0  0  0  0  0  0
   -1.3604   15.9582   -0.0000 N   0  0  0  0  0  0  0  0  0  0  0  0
    0.5797   17.4014   -0.0000 C   0  0  0  0  0  0  0  0  0  0  0  0
   -0.9109   17.4014   -0.0000 N   0  0  0  0  0  0  0  0  0  0  0  0
    1.4432   18.6317   -0.0000 O   0  0  0  0  0  0  0  0  0  0  0  0
  1  2  1  0  0  0  0
  2  3  2  0  0  0  0
  2  4  1  0  0  0  0
  3  5  1  0  0  0  0
  4  6  2  0  0  0  0
  5  7  1  0  0  0  0
  5  8  2  0  0  0  0
  7  9  2  0  0  0  0
  7 10  1  0  0  0  0
  9 11  1  0  0  0  0
 10 12  2  0  0  0  0
 11 13  2  0  0  0  0
 13 14  1  0  0  0  0
 14 15  2  0  0  0  0
 16 15  1  1  0  0  0
 16 17  1  0  0  0  0
 18 16  1  1  0  0  0
 17 19  1  0  0  0  0
 17 20  1  6  0  0  0
 18 21  1  0  0  0  0
 18 22  1  0  0  0  0
 19 23  1  0  0  0  0
 19 24  1  0  0  0  0
 19 25  1  0  0  0  0
 21 26  1  0  0  0  0
 21 27  1  6  0  0  0
 22 28  1  0  0  0  0
 22 29  1  6  0  0  0
 26 30  2  0  0  0  0
 27 31  1  0  0  0  0
 27 32  2  0  0  0  0
 31 33  1  0  0  0  0
 32 34  1  0  0  0  0
 33 35  2  0  0  0  0
  6  8  1  0  0  0  0
 12 13  1  0  0  0  0
 21 25  1  0  0  0  0
 26 28  1  0  0  0  0
 33 34  1  0  0  0  0
M  END
>  <MolRegNo>
2178237

>  <m>
=

>  <Value>
50000

>  <Unit>
nM

>  <Type>
IC50

>  <pValue>
4.3

>  <Ligand Efficiency>
0

>  <Binding Efficiency>
0

>  <Surface Efficiency>
0

>  <Assay Index>
1037674

>  <Assay Category>


>  <Assay Organism>
Homo sapiens

>  <Target ID>
17045

>  <Target Name>
Cytochrome P450 3A4

>  <Target Organism>
Homo sapiens

>  <Target Description>
Target is a single protein chain

>  <Sequence Accession>
P08684

>  <Reference>
ACS Med Chem Lett 7 (10), 881-883 (2016)

>  <Pubmed ID>
27774122

>  <DOI>
10.1021/acsmedchemlett.6b00327

$$$$
2148694
Actelion Java MolfileCreator 1.0

 35 39  0  0  0  0  0  0  0  0999 V2000
    0.0000   -0.0000   -0.0000 F   0  0  0  0  0  0  0  0  0  0  0  0
   -0.7598   -1.2940   -0.0000 C   0  0  0  0  0  0  0  0  0  0  0  0
    0.7241   -1.2702   -0.0000 F   0  0  0  0  0  0  0  0  0  0  0  0
   -0.7716   -2.7779   -0.0000 C   0  0  0  0  0  0  0  0  0  0  0  0
   -2.0656   -0.5223   -0.0000 C   0  0  0  0  0  0  0  0  0  0  0  0
   -2.0775   -3.5139   -0.0000 C   0  0  0  0  0  0  0  0  0  0  0  0
    0.5223   -3.5139   -0.0000 C   0  0  0  0  0  0  0  0  0  0  0  0
   -3.3714   -1.2584   -0.0000 C   0  0  0  0  0  0  0  0  0  0  0  0
   -2.0893   -4.9978   -0.0000 C   0  0  0  0  0  0  0  0  0  0  0  0
   -3.3833   -2.7541   -0.0000 C   0  0  0  0  0  0  0  0  0  0  0  0
   -4.8197   -0.7835   -0.0000 C   0  0  0  0  0  0  0  0  0  0  0  0
   -3.3952    0.2612   -0.0000 C   0  0  0  0  0  0  0  0  0  0  0  0
   -0.8072   -5.7338   -0.0000 C   0  0  0  0  0  0  0  0  0  0  0  0
   -4.8316   -3.2052   -0.0000 C   0  0  0  0  0  0  0  0  0  0  0  0
   -5.5914    0.5342   -0.0000 O   0  0  0  0  0  0  0  0  0  0  0  0
   -5.7220   -1.9944   -0.0000 O   0  0  0  0  0  0  0  0  0  0  0  0
   -4.6298    1.1634   -0.0000 N   0  0  0  0  0  0  0  0  0  0  0  0
   -2.1843    1.1753   -0.0000 C   0  0  0  0  0  0  0  0  0  0  0  0
   -0.8191   -7.2177   -0.0000 C   0  0  0  0  0  0  0  0  0  0  0  0
   -5.3065   -4.6179   -0.0000 C   0  0  0  0  0  0  0  0  0  0  0  0
   -4.1787    2.6117   -0.0000 N   0  0  0  0  0  0  0  0  0  0  0  0
   -2.6710    2.6236   -0.0000 C   0  0  0  0  0  0  0  0  0  0  0  0
    0.4630   -7.9419   -0.0000 N   0  0  0  0  0  0  0  0  0  0  0  0
   -2.1368   -7.9537   -0.0000 C   0  0  0  0  0  0  0  0  0  0  0  0
    0.4511   -9.4258   -0.0000 C   0  0  0  0  0  0  0  0  0  0  0  0
   -2.1487   -9.4377   -0.0000 C   0  0  0  0  0  0  0  0  0  0  0  0
   -0.8666  -10.1737   -0.0000 C   0  0  0  0  0  0  0  0  0  0  0  0
   -0.8785  -11.6576   -0.0000 C   0  0  0  0  0  0  0  0  0  0  0  0
    0.4036  -12.3936   -0.0000 C   0  0  0  0  0  0  0  0  0  0  0  0
   -2.1962  -12.3936   -0.0000 C   0  0  0  0  0  0  0  0  0  0  0  0
    1.6857  -11.6220   -0.0000 C   0  0  0  0  0  0  0  0  0  0  0  0
    0.4036  -13.8775   -0.0000 C   0  0  0  0  0  0  0  0  0  0  0  0
   -2.2081  -13.8775   -0.0000 C   0  0  0  0  0  0  0  0  0  0  0  0
    2.9678  -10.8503   -0.0000 N   0  0  0  0  0  0  0  0  0  0  0  0
   -0.9141  -14.6254   -0.0000 C   0  0  0  0  0  0  0  0  0  0  0  0
  1  2  1  0  0  0  0
  2  3  1  0  0  0  0
  2  4  1  0  0  0  0
  2  5  1  0  0  0  0
  4  6  1  0  0  0  0
  4  7  1  6  0  0  0
  5  8  1  0  0  0  0
  6  9  1  1  0  0  0
 10  6  1  1  0  0  0
  8 11  1  0  0  0  0
  8 12  1  6  0  0  0
  9 13  2  0  0  0  0
 10 14  1  0  0  0  0
 11 15  2  0  0  0  0
 11 16  1  0  0  0  0
 12 17  2  0  0  0  0
 12 18  1  0  0  0  0
 13 19  1  0  0  0  0
 14 20  1  6  0  0  0
 17 21  1  0  0  0  0
 18 22  2  0  0  0  0
 19 23  2  0  0  0  0
 19 24  1  0  0  0  0
 23 25  1  0  0  0  0
 24 26  2  0  0  0  0
 25 27  2  0  0  0  0
 27 28  1  0  0  0  0
 28 29  2  0  0  0  0
 28 30  1  0  0  0  0
 29 31  1  0  0  0  0
 29 32  1  0  0  0  0
 30 33  2  0  0  0  0
 31 34  3  0  0  0  0
 32 35  2  0  0  0  0
  8 10  1  0  0  0  0
 14 16  1  0  0  0  0
 21 22  1  0  0  0  0
 26 27  1  0  0  0  0
 33 35  1  0  0  0  0
M  END
>  <MolRegNo>
2148694

>  <m>
=

>  <Value>
2400

>  <Unit>
nM

>  <Type>
IC50

>  <pValue>
5.62

>  <Ligand Efficiency>
0

>  <Binding Efficiency>
0

>  <Surface Efficiency>
0

>  <Assay Index>
1037674

>  <Assay Category>


>  <Assay Organism>
Homo sapiens

>  <Target ID>
17045

>  <Target Name>
Cytochrome P450 3A4

>  <Target Organism>
Homo sapiens

>  <Target Description>
Target is a single protein chain

>  <Sequence Accession>
P08684

>  <Reference>
ACS Med Chem Lett 7 (10), 881-883 (2016)

>  <Pubmed ID>
27774122

>  <DOI>
10.1021/acsmedchemlett.6b00327

$$$$
2104376
Actelion Java MolfileCreator 1.0

 30 33  0  0  0  0  0  0  0  0999 V2000
    0.0000   -0.0000   -0.0000 O   0  0  0  0  0  0  0  0  0  0  0  0
   -1.4887    0.2245   -0.0000 C   0  0  0  0  0  0  0  0  0  0  0  0
   -2.4221   -0.9452   -0.0000 N   0  0  0  0  0  0  0  0  0  0  0  0
   -2.0677    1.6187   -0.0000 N   0  0  0  0  0  0  0  0  0  0  0  0
   -3.8990   -0.6026   -0.0000 C   0  0  0  0  0  0  0  0  0  0  0  0
   -1.7723   -2.2803   -0.0000 C   0  0  0  0  0  0  0  0  0  0  0  0
   -1.1579    2.8120   -0.0000 C   0  0  0  0  0  0  0  0  0  0  0  0
   -5.0806   -1.5478   -0.0000 C   0  0  0  0  0  0  0  0  0  0  0  0
   -4.2653    0.8625   -0.0000 C   0  0  0  0  0  0  0  0  0  0  0  0
   -2.4221   -3.6273   -0.0000 C   0  0  0  0  0  0  0  0  0  0  0  0
   -0.2836   -2.2567   -0.0000 C   0  0  0  0  0  0  0  0  0  0  0  0
   -1.7250    4.2062   -0.0000 C   0  0  0  0  0  0  0  0  0  0  0  0
   -5.0806   -3.0247   -0.0000 C   0  0  0  0  0  0  0  0  0  0  0  0
   -6.3920   -0.7916   -0.0000 C   0  0  0  0  0  0  0  0  0  0  0  0
   -3.8872   -3.9699   -0.0000 N   0  0  0  0  0  0  0  0  0  0  0  0
   -0.8153    5.3996   -0.0000 C   0  0  0  0  0  0  0  0  0  0  0  0
   -3.2256    4.4189   -0.0000 C   0  0  0  0  0  0  0  0  0  0  0  0
   -6.3802   -3.7691   -0.0000 C   0  0  0  0  0  0  0  0  0  0  0  0
   -7.6917   -1.5478   -0.0000 C   0  0  0  0  0  0  0  0  0  0  0  0
   -4.2299   -5.4232   -0.0000 C   0  0  0  0  0  0  0  0  0  0  0  0
   -1.3942    6.7938   -0.0000 C   0  0  0  0  0  0  0  0  0  0  0  0
   -3.8045    5.8131   -0.0000 C   0  0  0  0  0  0  0  0  0  0  0  0
   -7.6917   -3.0129   -0.0000 N   0  0  0  0  0  0  0  0  0  0  0  0
   -3.1665   -6.4629   -0.0000 C   0  0  0  0  0  0  0  0  0  0  0  0
   -2.8829    7.0183   -0.0000 C   0  0  0  0  0  0  0  0  0  0  0  0
   -1.7368   -6.0494   -0.0000 C   0  0  0  0  0  0  0  0  0  0  0  0
   -3.5564   -7.9044   -0.0000 C   0  0  0  0  0  0  0  0  0  0  0  0
   -0.6735   -7.0891   -0.0000 C   0  0  0  0  0  0  0  0  0  0  0  0
   -2.4930   -8.9441   -0.0000 C   0  0  0  0  0  0  0  0  0  0  0  0
   -1.0634   -8.5306   -0.0000 C   0  0  0  0  0  0  0  0  0  0  0  0
  1  2  2  0  0  0  0
  2  3  1  0  0  0  0
  2  4  1  0  0  0  0
  3  5  1  0  0  0  0
  3  6  1  0  0  0  0
  4  7  1  0  0  0  0
  5  8  1  0  0  0  0
  5  9  1  6  0  0  0
  6 10  1  0  0  0  0
  6 11  1  6  0  0  0
  7 12  1  0  0  0  0
  8 13  2  0  0  0  0
  8 14  1  0  0  0  0
 10 15  1  0  0  0  0
 12 16  2  0  0  0  0
 12 17  1  0  0  0  0
 13 18  1  0  0  0  0
 14 19  2  0  0  0  0
 15 20  1  0  0  0  0
 16 21  1  0  0  0  0
 17 22  2  0  0  0  0
 18 23  2  0  0  0  0
 20 24  1  0  0  0  0
 21 25  2  0  0  0  0
 24 26  2  0  0  0  0
 24 27  1  0  0  0  0
 26 28  1  0  0  0  0
 27 29  2  0  0  0  0
 28 30  2  0  0  0  0
 13 15  1  0  0  0  0
 19 23  1  0  0  0  0
 22 25  1  0  0  0  0
 29 30  1  0  0  0  0
M  END
>  <MolRegNo>
2104376

>  <m>
=

>  <Value>
23

>  <Unit>
nM

>  <Type>
IC50

>  <pValue>
7.64

>  <Ligand Efficiency>
0

>  <Binding Efficiency>
0

>  <Surface Efficiency>
0

>  <Assay Index>
1040961

>  <Assay Category>


>  <Assay Organism>
Homo sapiens

>  <Target ID>
17045

>  <Target Name>
Cytochrome P450 3A4

>  <Target Organism>
Homo sapiens

>  <Target Description>
Target is a single protein chain

>  <Sequence Accession>
P08684

>  <Reference>
J Med Chem 59 (23), 10661-10675 (2016)

>  <Pubmed ID>
27933950

>  <DOI>
10.1021/acs.jmedchem.6b01356

$$$$
2115206
Actelion Java MolfileCreator 1.0

 29 32  0  0  0  0  0  0  0  0999 V2000
    0.0000   -0.0000   -0.0000 Cl  0  0  0  0  0  0  0  0  0  0  0  0
   -0.0118    1.5056   -0.0000 C   0  0  0  0  0  0  0  0  0  0  0  0
    1.2703    2.2584   -0.0000 C   0  0  0  0  0  0  0  0  0  0  0  0
   -1.3056    2.2702   -0.0000 C   0  0  0  0  0  0  0  0  0  0  0  0
    2.5524    1.5291   -0.0000 Cl  0  0  0  0  0  0  0  0  0  0  0  0
    1.2586    3.7640   -0.0000 C   0  0  0  0  0  0  0  0  0  0  0  0
   -2.6113    1.5409   -0.0000 N   0  0  0  0  0  0  0  0  0  0  0  0
   -1.3174    3.7757   -0.0000 C   0  0  0  0  0  0  0  0  0  0  0  0
   -0.0470    4.5285   -0.0000 C   0  0  0  0  0  0  0  0  0  0  0  0
   -3.9169    2.3054   -0.0000 C   0  0  0  0  0  0  0  0  0  0  0  0
   -3.9287    3.8110   -0.0000 O   0  0  0  0  0  0  0  0  0  0  0  0
   -5.1755    1.5056   -0.0000 C   0  0  0  0  0  0  0  0  0  0  0  0
   -6.5164    2.1996   -0.0000 N   0  0  0  0  0  0  0  0  0  0  0  0
   -6.7634    3.6934   -0.0000 N   0  0  0  0  0  0  0  0  0  0  0  0
   -7.8573    1.5409   -0.0000 C   0  0  0  0  0  0  0  0  0  0  0  0
   -8.2455    3.9404   -0.0000 N   0  0  0  0  0  0  0  0  0  0  0  0
   -8.9277    2.6113   -0.0000 C   0  0  0  0  0  0  0  0  0  0  0  0
  -10.4098    2.3995   -0.0000 C   0  0  0  0  0  0  0  0  0  0  0  0
  -11.3625    3.5758   -0.0000 C   0  0  0  0  0  0  0  0  0  0  0  0
  -10.9626    1.0116   -0.0000 C   0  0  0  0  0  0  0  0  0  0  0  0
  -12.8446    3.3523   -0.0000 C   0  0  0  0  0  0  0  0  0  0  0  0
  -12.4447    0.7998   -0.0000 C   0  0  0  0  0  0  0  0  0  0  0  0
  -13.3974    1.9643   -0.0000 C   0  0  0  0  0  0  0  0  0  0  0  0
  -14.8795    1.7526   -0.0000 N   0  0  0  0  0  0  0  0  0  0  0  0
  -15.9499    2.8230   -0.0000 C   0  0  0  0  0  0  0  0  0  0  0  0
  -15.5735    0.4352   -0.0000 C   0  0  0  0  0  0  0  0  0  0  0  0
  -17.2908    2.1643   -0.0000 N   0  0  0  0  0  0  0  0  0  0  0  0
  -15.7264    4.3051   -0.0000 C   0  0  0  0  0  0  0  0  0  0  0  0
  -17.0555    0.6822   -0.0000 C   0  0  0  0  0  0  0  0  0  0  0  0
  1  2  1  0  0  0  0
  2  3  2  0  0  0  0
  2  4  1  0  0  0  0
  3  5  1  0  0  0  0
  3  6  1  0  0  0  0
  4  7  1  0  0  0  0
  4  8  2  0  0  0  0
  6  9  2  0  0  0  0
  7 10  1  0  0  0  0
 10 11  2  0  0  0  0
 10 12  1  0  0  0  0
 12 13  1  0  0  0  0
 13 14  1  0  0  0  0
 13 15  1  0  0  0  0
 14 16  2  0  0  0  0
 15 17  2  0  0  0  0
 17 18  1  0  0  0  0
 18 19  2  0  0  0  0
 18 20  1  0  0  0  0
 19 21  1  0  0  0  0
 20 22  2  0  0  0  0
 21 23  2  0  0  0  0
 23 24  1  0  0  0  0
 24 25  1  0  0  0  0
 24 26  1  0  0  0  0
 25 27  2  0  0  0  0
 25 28  1  0  0  0  0
 26 29  2  0  0  0  0
  8  9  1  0  0  0  0
 16 17  1  0  0  0  0
 22 23  1  0  0  0  0
 27 29  1  0  0  0  0
M  END
>  <MolRegNo>
2115206

>  <m>
=

>  <Value>
15000

>  <Unit>
nM

>  <Type>
IC50

>  <pValue>
4.82

>  <Ligand Efficiency>
0

>  <Binding Efficiency>
0

>  <Surface Efficiency>
0

>  <Assay Index>
1041240

>  <Assay Category>


>  <Assay Organism>
Homo sapiens

>  <Target ID>
17045

>  <Target Name>
Cytochrome P450 3A4

>  <Target Organism>
Homo sapiens

>  <Target Description>
Target is a single protein chain

>  <Sequence Accession>
P08684

>  <Reference>
ACS Med Chem Lett 7 (12), 1107-1111 (2016)

>  <Pubmed ID>
27994747

>  <DOI>
10.1021/acsmedchemlett.6b00314

$$$$
2174840
Actelion Java MolfileCreator 1.0

 29 32  0  0  0  0  0  0  0  0999 V2000
    0.0000   -0.0000   -0.0000 Cl  0  0  0  0  0  0  0  0  0  0  0  0
   -0.0118    1.5058   -0.0000 C   0  0  0  0  0  0  0  0  0  0  0  0
    1.2705    2.2587   -0.0000 C   0  0  0  0  0  0  0  0  0  0  0  0
   -1.3058    2.2705   -0.0000 C   0  0  0  0  0  0  0  0  0  0  0  0
    2.5528    1.5293   -0.0000 Cl  0  0  0  0  0  0  0  0  0  0  0  0
    1.2587    3.7645   -0.0000 C   0  0  0  0  0  0  0  0  0  0  0  0
   -2.6116    1.5411   -0.0000 N   0  0  0  0  0  0  0  0  0  0  0  0
   -1.3176    3.7762   -0.0000 C   0  0  0  0  0  0  0  0  0  0  0  0
   -0.0471    4.5291   -0.0000 C   0  0  0  0  0  0  0  0  0  0  0  0
   -3.9174    2.3057   -0.0000 C   0  0  0  0  0  0  0  0  0  0  0  0
   -3.9292    3.8115   -0.0000 O   0  0  0  0  0  0  0  0  0  0  0  0
   -5.1762    1.5058   -0.0000 C   0  0  0  0  0  0  0  0  0  0  0  0
   -6.5173    2.1999   -0.0000 N   0  0  0  0  0  0  0  0  0  0  0  0
   -6.7643    3.6939   -0.0000 N   0  0  0  0  0  0  0  0  0  0  0  0
   -7.8584    1.5411   -0.0000 C   0  0  0  0  0  0  0  0  0  0  0  0
   -8.2466    3.9409   -0.0000 N   0  0  0  0  0  0  0  0  0  0  0  0
   -8.9289    2.6116   -0.0000 C   0  0  0  0  0  0  0  0  0  0  0  0
  -10.4111    2.3999   -0.0000 C   0  0  0  0  0  0  0  0  0  0  0  0
  -11.3640    3.5763   -0.0000 C   0  0  0  0  0  0  0  0  0  0  0  0
  -10.9641    1.0117   -0.0000 C   0  0  0  0  0  0  0  0  0  0  0  0
  -12.8463    3.3527   -0.0000 N   0  0  0  0  0  0  0  0  0  0  0  0
  -12.4463    0.8000   -0.0000 C   0  0  0  0  0  0  0  0  0  0  0  0
  -13.3992    1.9646   -0.0000 C   0  0  0  0  0  0  0  0  0  0  0  0
  -14.8815    1.7528   -0.0000 N   0  0  0  0  0  0  0  0  0  0  0  0
  -15.9520    2.8234   -0.0000 C   0  0  0  0  0  0  0  0  0  0  0  0
  -15.5755    0.4353   -0.0000 C   0  0  0  0  0  0  0  0  0  0  0  0
  -17.2931    2.1528   -0.0000 N   0  0  0  0  0  0  0  0  0  0  0  0
  -15.7285    4.3056   -0.0000 C   0  0  0  0  0  0  0  0  0  0  0  0
  -17.0578    0.6823   -0.0000 C   0  0  0  0  0  0  0  0  0  0  0  0
  1  2  1  0  0  0  0
  2  3  2  0  0  0  0
  2  4  1  0  0  0  0
  3  5  1  0  0  0  0
  3  6  1  0  0  0  0
  4  7  1  0  0  0  0
  4  8  2  0  0  0  0
  6  9  2  0  0  0  0
  7 10  1  0  0  0  0
 10 11  2  0  0  0  0
 10 12  1  0  0  0  0
 12 13  1  0  0  0  0
 13 14  1  0  0  0  0
 13 15  1  0  0  0  0
 14 16  2  0  0  0  0
 15 17  2  0  0  0  0
 17 18  1  0  0  0  0
 18 19  2  0  0  0  0
 18 20  1  0  0  0  0
 19 21  1  0  0  0  0
 20 22  2  0  0  0  0
 21 23  2  0  0  0  0
 23 24  1  0  0  0  0
 24 25  1  0  0  0  0
 24 26  1  0  0  0  0
 25 27  2  0  0  0  0
 25 28  1  0  0  0  0
 26 29  2  0  0  0  0
  8  9  1  0  0  0  0
 16 17  1  0  0  0  0
 22 23  1  0  0  0  0
 27 29  1  0  0  0  0
M  END
>  <MolRegNo>
2174840

>  <m>
=

>  <Value>
43000

>  <Unit>
nM

>  <Type>
IC50

>  <pValue>
4.37

>  <Ligand Efficiency>
0

>  <Binding Efficiency>
0

>  <Surface Efficiency>
0

>  <Assay Index>
1041240

>  <Assay Category>


>  <Assay Organism>
Homo sapiens

>  <Target ID>
17045

>  <Target Name>
Cytochrome P450 3A4

>  <Target Organism>
Homo sapiens

>  <Target Description>
Target is a single protein chain

>  <Sequence Accession>
P08684

>  <Reference>
ACS Med Chem Lett 7 (12), 1107-1111 (2016)

>  <Pubmed ID>
27994747

>  <DOI>
10.1021/acsmedchemlett.6b00314

$$$$
1745306
Actelion Java MolfileCreator 1.0

 32 35  0  0  0  0  0  0  0  0999 V2000
    0.0000   -0.0000   -0.0000 S   0  0  0  0  0  0  0  0  0  0  0  0
   -0.7711   -1.2812   -0.0000 O   0  0  0  0  0  0  0  0  0  0  0  0
    0.7236   -1.2812   -0.0000 O   0  0  0  0  0  0  0  0  0  0  0  0
    1.2812    0.7592   -0.0000 C   0  0  0  0  0  0  0  0  0  0  0  0
   -1.3049    0.7592   -0.0000 C   0  0  0  0  0  0  0  0  0  0  0  0
    2.5623    0.0237   -0.0000 C   0  0  0  0  0  0  0  0  0  0  0  0
    1.2574    2.2658   -0.0000 C   0  0  0  0  0  0  0  0  0  0  0  0
   -2.6217    0.0237   -0.0000 C   0  0  0  0  0  0  0  0  0  0  0  0
   -1.3168    2.2776   -0.0000 C   0  0  0  0  0  0  0  0  0  0  0  0
    3.8435    0.7829   -0.0000 C   0  0  0  0  0  0  0  0  0  0  0  0
    2.5386    3.0250   -0.0000 C   0  0  0  0  0  0  0  0  0  0  0  0
   -3.9265    0.7829   -0.0000 C   0  0  0  0  0  0  0  0  0  0  0  0
   -2.6217    3.0368   -0.0000 C   0  0  0  0  0  0  0  0  0  0  0  0
    3.8316    2.2895   -0.0000 C   0  0  0  0  0  0  0  0  0  0  0  0
    5.1247    0.0475   -0.0000 C   0  0  0  0  0  0  0  0  0  0  0  0
   -3.9384    2.3014   -0.0000 C   0  0  0  0  0  0  0  0  0  0  0  0
    5.1128   -1.4354   -0.0000 F   0  0  0  0  0  0  0  0  0  0  0  0
    6.4058    0.8067   -0.0000 F   0  0  0  0  0  0  0  0  0  0  0  0
    6.4058   -0.6880   -0.0000 F   0  0  0  0  0  0  0  0  0  0  0  0
   -5.2433    3.0606   -0.0000 C   0  0  0  0  0  0  0  0  0  0  0  0
   -6.5482    2.3251   -0.0000 N   0  0  0  0  0  0  0  0  0  0  0  0
   -7.8531    3.0843   -0.0000 C   0  0  0  0  0  0  0  0  0  0  0  0
   -7.8650    4.5909   -0.0000 O   0  0  0  0  0  0  0  0  0  0  0  0
   -9.1580    2.3488   -0.0000 C   0  0  0  0  0  0  0  0  0  0  0  0
   -9.1699    0.8660   -0.0000 C   0  0  0  0  0  0  0  0  0  0  0  0
  -10.4629    3.1080   -0.0000 C   0  0  0  0  0  0  0  0  0  0  0  0
  -10.4748    0.1305   -0.0000 N   0  0  0  0  0  0  0  0  0  0  0  0
  -11.7796    2.3844   -0.0000 C   0  0  0  0  0  0  0  0  0  0  0  0
  -11.7915    0.8897   -0.0000 C   0  0  0  0  0  0  0  0  0  0  0  0
  -13.2269    2.8589   -0.0000 C   0  0  0  0  0  0  0  0  0  0  0  0
  -13.2388    0.4271   -0.0000 N   0  0  0  0  0  0  0  0  0  0  0  0
  -14.1166    1.6489   -0.0000 N   0  0  0  0  0  0  0  0  0  0  0  0
  1  2  2  0  0  0  0
  1  3  2  0  0  0  0
  1  4  1  0  0  0  0
  1  5  1  0  0  0  0
  4  6  2  0  0  0  0
  4  7  1  0  0  0  0
  5  8  2  0  0  0  0
  5  9  1  0  0  0  0
  6 10  1  0  0  0  0
  7 11  2  0  0  0  0
  8 12  1  0  0  0  0
  9 13  2  0  0  0  0
 10 14  2  0  0  0  0
 10 15  1  0  0  0  0
 12 16  2  0  0  0  0
 15 17  1  0  0  0  0
 15 18  1  0  0  0  0
 15 19  1  0  0  0  0
 16 20  1  0  0  0  0
 20 21  1  0  0  0  0
 21 22  1  0  0  0  0
 22 23  2  0  0  0  0
 22 24  1  0  0  0  0
 24 25  2  0  0  0  0
 24 26  1  0  0  0  0
 25 27  1  0  0  0  0
 26 28  2  0  0  0  0
 27 29  2  0  0  0  0
 28 30  1  0  0  0  0
 29 31  1  0  0  0  0
 30 32  2  0  0  0  0
 11 14  1  0  0  0  0
 13 16  1  0  0  0  0
 28 29  1  0  0  0  0
 31 32  1  0  0  0  0
M  END
>  <MolRegNo>
1745306

>  <m>
=

>  <Value>
7900

>  <Unit>
nM

>  <Type>
IC50

>  <pValue>
5.1

>  <Ligand Efficiency>
0

>  <Binding Efficiency>
0

>  <Surface Efficiency>
0

>  <Assay Index>
1042867

>  <Assay Category>


>  <Assay Organism>
Homo sapiens

>  <Target ID>
17045

>  <Target Name>
Cytochrome P450 3A4

>  <Target Organism>
Homo sapiens

>  <Target Description>
Target is a single protein chain

>  <Sequence Accession>
P08684

>  <Reference>
J Med Chem 59 (18), 8345-8368 (2016)

>  <Pubmed ID>
27541271

>  <DOI>
10.1021/acs.jmedchem.6b00697

$$$$
18696
Actelion Java MolfileCreator 1.0

 26 27  0  0  0  0  0  0  0  0999 V2000
    0.0000   -0.0000   -0.0000 Cl  0  0  0  0  0  0  0  0  0  0  0  0
    1.3307   -0.6772   -0.0000 C   0  0  0  0  0  0  0  0  0  0  0  0
    1.3901   -2.1742   -0.0000 C   0  0  0  0  0  0  0  0  0  0  0  0
    2.5901    0.1545   -0.0000 C   0  0  0  0  0  0  0  0  0  0  0  0
    2.7208   -2.8515   -0.0000 C   0  0  0  0  0  0  0  0  0  0  0  0
    3.9208   -0.5228   -0.0000 C   0  0  0  0  0  0  0  0  0  0  0  0
    3.9802   -2.0198   -0.0000 C   0  0  0  0  0  0  0  0  0  0  0  0
    5.3108   -2.6970   -0.0000 O   0  0  0  0  0  0  0  0  0  0  0  0
    5.3702   -4.1940   -0.0000 C   0  0  0  0  0  0  0  0  0  0  0  0
    6.7009   -4.8712   -0.0000 C   0  0  0  0  0  0  0  0  0  0  0  0
    6.7603   -6.3683   -0.0000 C   0  0  0  0  0  0  0  0  0  0  0  0
    8.0910   -7.0455   -0.0000 C   0  0  0  0  0  0  0  0  0  0  0  0
    8.1504   -8.5425   -0.0000 C   0  0  0  0  0  0  0  0  0  0  0  0
    9.4811   -9.2197   -0.0000 C   0  0  0  0  0  0  0  0  0  0  0  0
    9.5405  -10.7167   -0.0000 N   0  0  0  0  0  0  0  0  0  0  0  0
   10.8712  -11.3939   -0.0000 C   0  0  0  0  0  0  0  0  0  0  0  0
   12.1306  -10.5623   -0.0000 N   0  0  0  0  0  0  0  0  0  0  0  0
   10.9306  -12.8910   -0.0000 N   0  0  0  0  0  0  0  0  0  0  0  0
   12.0474   -9.0415   -0.0000 C   0  0  0  0  0  0  0  0  0  0  0  0
   12.2613  -13.5682   -0.0000 C   0  0  0  0  0  0  0  0  0  0  0  0
   11.9642   -7.5207   -0.0000 N   0  0  0  0  0  0  0  0  0  0  0  0
   13.5207  -12.7365   -0.0000 C   0  0  0  0  0  0  0  0  0  0  0  0
   12.3207  -15.0652   -0.0000 C   0  0  0  0  0  0  0  0  0  0  0  0
   14.8513  -13.4137   -0.0000 C   0  0  0  0  0  0  0  0  0  0  0  0
   13.6513  -15.7424   -0.0000 C   0  0  0  0  0  0  0  0  0  0  0  0
   14.9107  -14.9107   -0.0000 N   0  0  0  0  0  0  0  0  0  0  0  0
  1  2  1  0  0  0  0
  2  3  2  0  0  0  0
  2  4  1  0  0  0  0
  3  5  1  0  0  0  0
  4  6  2  0  0  0  0
  5  7  2  0  0  0  0
  7  8  1  0  0  0  0
  8  9  1  0  0  0  0
  9 10  1  0  0  0  0
 10 11  1  0  0  0  0
 11 12  1  0  0  0  0
 12 13  1  0  0  0  0
 13 14  1  0  0  0  0
 14 15  1  0  0  0  0
 15 16  1  0  0  0  0
 16 17  2  3  0  0  0
 16 18  1  0  0  0  0
 17 19  1  0  0  0  0
 18 20  1  0  0  0  0
 19 21  3  0  0  0  0
 20 22  2  0  0  0  0
 20 23  1  0  0  0  0
 22 24  1  0  0  0  0
 23 25  2  0  0  0  0
 24 26  2  0  0  0  0
  6  7  1  0  0  0  0
 25 26  1  0  0  0  0
M  END
>  <MolRegNo>
18696

>  <m>
=

>  <Value>
220

>  <Unit>
nM

>  <Type>
IC50

>  <pValue>
6.66

>  <Ligand Efficiency>
0

>  <Binding Efficiency>
0

>  <Surface Efficiency>
0

>  <Assay Index>
1042867

>  <Assay Category>


>  <Assay Organism>
Homo sapiens

>  <Target ID>
17045

>  <Target Name>
Cytochrome P450 3A4

>  <Target Organism>
Homo sapiens

>  <Target Description>
Target is a single protein chain

>  <Sequence Accession>
P08684

>  <Reference>
J Med Chem 59 (18), 8345-8368 (2016)

>  <Pubmed ID>
27541271

>  <DOI>
10.1021/acs.jmedchem.6b00697

$$$$
573927
Actelion Java MolfileCreator 1.0

 29 31  0  0  0  0  0  0  0  0999 V2000
    0.0000   -0.0000   -0.0000 O   0  0  0  0  0  0  0  0  0  0  0  0
   -0.0236   -1.4870   -0.0000 C   0  0  0  0  0  0  0  0  0  0  0  0
   -1.3336   -2.2187   -0.0000 N   0  0  0  0  0  0  0  0  0  0  0  0
    1.2628   -2.2305   -0.0000 C   0  0  0  0  0  0  0  0  0  0  0  0
   -1.3572   -3.7057   -0.0000 C   0  0  0  0  0  0  0  0  0  0  0  0
   -2.6435   -1.4516   -0.0000 C   0  0  0  0  0  0  0  0  0  0  0  0
    1.2274   -3.7175   -0.0000 C   0  0  0  0  0  0  0  0  0  0  0  0
    2.5373   -1.4752   -0.0000 C   0  0  0  0  0  0  0  0  0  0  0  0
   -2.6671   -4.4374   -0.0000 C   0  0  0  0  0  0  0  0  0  0  0  0
   -3.9653   -2.1833   -0.0000 C   0  0  0  0  0  0  0  0  0  0  0  0
    2.5019   -4.4610   -0.0000 C   0  0  0  0  0  0  0  0  0  0  0  0
    3.8119   -2.2187   -0.0000 C   0  0  0  0  0  0  0  0  0  0  0  0
   -3.9771   -3.6703   -0.0000 C   0  0  0  0  0  0  0  0  0  0  0  0
    3.8001   -3.7057   -0.0000 C   0  0  0  0  0  0  0  0  0  0  0  0
   -5.2871   -4.4020   -0.0000 C   0  0  0  0  0  0  0  0  0  0  0  0
   -6.5970   -3.6349   -0.0000 C   0  0  0  0  0  0  0  0  0  0  0  0
   -7.9070   -4.3666   -0.0000 C   0  0  0  0  0  0  0  0  0  0  0  0
   -9.2170   -3.5995   -0.0000 C   0  0  0  0  0  0  0  0  0  0  0  0
  -10.5269   -4.3311   -0.0000 N   0  0  0  0  0  0  0  0  0  0  0  0
  -11.8369   -3.5641   -0.0000 C   0  0  0  0  0  0  0  0  0  0  0  0
  -11.8487   -2.0535   -0.0000 O   0  0  0  0  0  0  0  0  0  0  0  0
  -13.1469   -4.2957   -0.0000 C   0  0  0  0  0  0  0  0  0  0  0  0
  -14.4568   -3.5286   -0.0000 C   0  0  0  0  0  0  0  0  0  0  0  0
  -15.7668   -4.2603   -0.0000 C   0  0  0  0  0  0  0  0  0  0  0  0
  -17.0768   -3.4932   -0.0000 C   0  0  0  0  0  0  0  0  0  0  0  0
  -15.7786   -5.7473   -0.0000 C   0  0  0  0  0  0  0  0  0  0  0  0
  -18.3867   -4.2367   -0.0000 N   0  0  0  0  0  0  0  0  0  0  0  0
  -17.0886   -6.4790   -0.0000 C   0  0  0  0  0  0  0  0  0  0  0  0
  -18.3985   -5.7237   -0.0000 C   0  0  0  0  0  0  0  0  0  0  0  0
  1  2  2  0  0  0  0
  2  3  1  0  0  0  0
  2  4  1  0  0  0  0
  3  5  1  0  0  0  0
  3  6  1  0  0  0  0
  4  7  2  0  0  0  0
  4  8  1  0  0  0  0
  5  9  1  0  0  0  0
  6 10  1  0  0  0  0
  7 11  1  0  0  0  0
  8 12  2  0  0  0  0
  9 13  1  0  0  0  0
 11 14  2  0  0  0  0
 13 15  1  0  0  0  0
 15 16  1  0  0  0  0
 16 17  1  0  0  0  0
 17 18  1  0  0  0  0
 18 19  1  0  0  0  0
 19 20  1  0  0  0  0
 20 21  2  0  0  0  0
 20 22  1  0  0  0  0
 22 23  2  0  0  0  0
 23 24  1  0  0  0  0
 24 25  2  0  0  0  0
 24 26  1  0  0  0  0
 25 27  1  0  0  0  0
 26 28  2  0  0  0  0
 27 29  2  0  0  0  0
 10 13  1  0  0  0  0
 12 14  1  0  0  0  0
 28 29  1  0  0  0  0
M  END
>  <MolRegNo>
573927

>  <m>
=

>  <Value>
1500

>  <Unit>
nM

>  <Type>
IC50

>  <pValue>
5.82

>  <Ligand Efficiency>
0

>  <Binding Efficiency>
0

>  <Surface Efficiency>
0

>  <Assay Index>
1042867

>  <Assay Category>


>  <Assay Organism>
Homo sapiens

>  <Target ID>
17045

>  <Target Name>
Cytochrome P450 3A4

>  <Target Organism>
Homo sapiens

>  <Target Description>
Target is a single protein chain

>  <Sequence Accession>
P08684

>  <Reference>
J Med Chem 59 (18), 8345-8368 (2016)

>  <Pubmed ID>
27541271

>  <DOI>
10.1021/acs.jmedchem.6b00697

$$$$
2193105
Actelion Java MolfileCreator 1.0

 37 41  0  0  0  0  0  0  0  0999 V2000
    0.0000   -0.0000   -0.0000 Cl  0  0  0  0  0  0  0  0  0  0  0  0
   -1.3051   -0.7475   -0.0000 C   0  0  0  0  0  0  0  0  0  0  0  0
   -2.5984   -0.0119   -0.0000 C   0  0  0  0  0  0  0  0  0  0  0  0
   -1.3170   -2.2306   -0.0000 C   0  0  0  0  0  0  0  0  0  0  0  0
   -3.9153   -0.7593   -0.0000 C   0  0  0  0  0  0  0  0  0  0  0  0
   -2.6102    1.4831   -0.0000 C   0  0  0  0  0  0  0  0  0  0  0  0
   -2.6340   -2.9780   -0.0000 C   0  0  0  0  0  0  0  0  0  0  0  0
   -3.9272   -2.2068   -0.0000 C   0  0  0  0  0  0  0  0  0  0  0  0
   -1.1746    1.2102   -0.0000 O   0  0  0  0  0  0  0  0  0  0  0  0
   -2.8238    2.9780   -0.0000 O   0  0  0  0  0  0  0  0  0  0  0  0
   -4.1289    1.3170   -0.0000 C   0  0  0  0  0  0  0  0  0  0  0  0
   -2.6340   -4.4611   -0.0000 Cl  0  0  0  0  0  0  0  0  0  0  0  0
   -0.4509    2.5390   -0.0000 C   0  0  0  0  0  0  0  0  0  0  0  0
   -1.4950    3.6425   -0.0000 C   0  0  0  0  0  0  0  0  0  0  0  0
   -5.0662    2.5035   -0.0000 N   0  0  0  0  0  0  0  0  0  0  0  0
    0.8305    3.3340   -0.0000 C   0  0  0  0  0  0  0  0  0  0  0  0
   -4.6391    3.9391   -0.0000 C   0  0  0  0  0  0  0  0  0  0  0  0
   -6.5612    2.4679   -0.0000 C   0  0  0  0  0  0  0  0  0  0  0  0
    0.7949    4.8527   -0.0000 O   0  0  0  0  0  0  0  0  0  0  0  0
   -5.8849    4.8289   -0.0000 N   0  0  0  0  0  0  0  0  0  0  0  0
   -7.0832    3.8916   -0.0000 C   0  0  0  0  0  0  0  0  0  0  0  0
    2.0645    5.6357   -0.0000 C   0  0  0  0  0  0  0  0  0  0  0  0
    3.3577    4.9238   -0.0000 C   0  0  0  0  0  0  0  0  0  0  0  0
    2.0051    7.1544   -0.0000 C   0  0  0  0  0  0  0  0  0  0  0  0
    4.6272    5.7069   -0.0000 C   0  0  0  0  0  0  0  0  0  0  0  0
    3.2747    7.9493   -0.0000 C   0  0  0  0  0  0  0  0  0  0  0  0
    4.5916    7.2256   -0.0000 C   0  0  0  0  0  0  0  0  0  0  0  0
    5.8493    8.0324   -0.0000 N   0  0  0  0  0  0  0  0  0  0  0  0
    5.8018    9.5392   -0.0000 C   0  0  0  0  0  0  0  0  0  0  0  0
    7.1425    7.3205   -0.0000 C   0  0  0  0  0  0  0  0  0  0  0  0
    7.0714   10.3223   -0.0000 C   0  0  0  0  0  0  0  0  0  0  0  0
    8.4002    8.1155   -0.0000 C   0  0  0  0  0  0  0  0  0  0  0  0
    8.3765    9.6223   -0.0000 N   0  0  0  0  0  0  0  0  0  0  0  0
    9.6460   10.4053   -0.0000 S   0  0  0  0  0  0  0  0  0  0  0  0
    8.8867   11.7105   -0.0000 O   0  0  0  0  0  0  0  0  0  0  0  0
   10.3816   11.7223   -0.0000 O   0  0  0  0  0  0  0  0  0  0  0  0
   10.9511    9.6816   -0.0000 C   0  0  0  0  0  0  0  0  0  0  0  0
  1  2  1  0  0  0  0
  2  3  2  0  0  0  0
  2  4  1  0  0  0  0
  3  5  1  0  0  0  0
  3  6  1  0  0  0  0
  4  7  2  0  0  0  0
  5  8  2  0  0  0  0
  6  9  1  0  0  0  0
  6 10  1  0  0  0  0
  6 11  1  6  0  0  0
  7 12  1  0  0  0  0
  9 13  1  0  0  0  0
 10 14  1  0  0  0  0
 11 15  1  0  0  0  0
 13 16  1  6  0  0  0
 15 17  1  0  0  0  0
 15 18  1  0  0  0  0
 16 19  1  0  0  0  0
 17 20  2  0  0  0  0
 18 21  2  0  0  0  0
 19 22  1  0  0  0  0
 22 23  2  0  0  0  0
 22 24  1  0  0  0  0
 23 25  1  0  0  0  0
 24 26  2  0  0  0  0
 25 27  2  0  0  0  0
 27 28  1  0  0  0  0
 28 29  1  0  0  0  0
 28 30  1  0  0  0  0
 29 31  1  0  0  0  0
 30 32  1  0  0  0  0
 31 33  1  0  0  0  0
 33 34  1  0  0  0  0
 34 35  2  0  0  0  0
 34 36  2  0  0  0  0
 34 37  1  0  0  0  0
  7  8  1  0  0  0  0
 13 14  1  0  0  0  0
 20 21  1  0  0  0  0
 26 27  1  0  0  0  0
 32 33  1  0  0  0  0
M  END
>  <MolRegNo>
2193105

>  <m>
=

>  <Value>
158

>  <Unit>
nM

>  <Type>
IC50

>  <pValue>
6.8

>  <Ligand Efficiency>
0

>  <Binding Efficiency>
0

>  <Surface Efficiency>
0

>  <Assay Index>
1043649

>  <Assay Category>


>  <Assay Organism>
Homo sapiens

>  <Target ID>
17045

>  <Target Name>
Cytochrome P450 3A4

>  <Target Organism>
Homo sapiens

>  <Target Description>
Target is a single protein chain

>  <Sequence Accession>
P08684

>  <Reference>
Bioorg Med Chem Lett 26 (23), 5825-5829 (2016)

>  <Pubmed ID>
27789139

>  <DOI>
10.1016/j.bmcl.2016.10.016

$$$$
2123279
Actelion Java MolfileCreator 1.0

 38 42  0  0  0  0  0  0  0  0999 V2000
    0.0000   -0.0000   -0.0000 Cl  0  0  0  0  0  0  0  0  0  0  0  0
   -1.3055   -0.7477   -0.0000 C   0  0  0  0  0  0  0  0  0  0  0  0
   -2.5991   -0.0119   -0.0000 C   0  0  0  0  0  0  0  0  0  0  0  0
   -1.3173   -2.2312   -0.0000 C   0  0  0  0  0  0  0  0  0  0  0  0
   -3.9164   -0.7595   -0.0000 C   0  0  0  0  0  0  0  0  0  0  0  0
   -2.6109    1.4835   -0.0000 C   0  0  0  0  0  0  0  0  0  0  0  0
   -2.6347   -2.9788   -0.0000 C   0  0  0  0  0  0  0  0  0  0  0  0
   -3.9283   -2.2074   -0.0000 C   0  0  0  0  0  0  0  0  0  0  0  0
   -1.1749    1.2105   -0.0000 O   0  0  0  0  0  0  0  0  0  0  0  0
   -2.8246    2.9788   -0.0000 O   0  0  0  0  0  0  0  0  0  0  0  0
   -4.1300    1.3173   -0.0000 C   0  0  0  0  0  0  0  0  0  0  0  0
   -2.6347   -4.4623   -0.0000 Cl  0  0  0  0  0  0  0  0  0  0  0  0
   -0.4510    2.5397   -0.0000 C   0  0  0  0  0  0  0  0  0  0  0  0
   -1.4954    3.6434   -0.0000 C   0  0  0  0  0  0  0  0  0  0  0  0
   -5.0676    2.5041   -0.0000 N   0  0  0  0  0  0  0  0  0  0  0  0
    0.8308    3.3349   -0.0000 C   0  0  0  0  0  0  0  0  0  0  0  0
   -4.6403    3.9401   -0.0000 C   0  0  0  0  0  0  0  0  0  0  0  0
   -6.5629    2.4685   -0.0000 C   0  0  0  0  0  0  0  0  0  0  0  0
    0.7951    4.8540   -0.0000 O   0  0  0  0  0  0  0  0  0  0  0  0
   -5.8865    4.8302   -0.0000 N   0  0  0  0  0  0  0  0  0  0  0  0
   -7.0851    3.8927   -0.0000 C   0  0  0  0  0  0  0  0  0  0  0  0
    2.0650    5.6372   -0.0000 C   0  0  0  0  0  0  0  0  0  0  0  0
    3.3586    4.9252   -0.0000 C   0  0  0  0  0  0  0  0  0  0  0  0
    2.0057    7.1563   -0.0000 C   0  0  0  0  0  0  0  0  0  0  0  0
    4.6285    5.7084   -0.0000 C   0  0  0  0  0  0  0  0  0  0  0  0
    3.2755    7.9515   -0.0000 C   0  0  0  0  0  0  0  0  0  0  0  0
    4.5929    7.2275   -0.0000 C   0  0  0  0  0  0  0  0  0  0  0  0
    5.8509    8.0345   -0.0000 N   0  0  0  0  0  0  0  0  0  0  0  0
    5.8034    9.5418   -0.0000 C   0  0  0  0  0  0  0  0  0  0  0  0
    7.1445    7.3225   -0.0000 C   0  0  0  0  0  0  0  0  0  0  0  0
    7.0733   10.3250   -0.0000 C   0  0  0  0  0  0  0  0  0  0  0  0
    8.4025    8.1176   -0.0000 C   0  0  0  0  0  0  0  0  0  0  0  0
    8.3787    9.6248   -0.0000 N   0  0  0  0  0  0  0  0  0  0  0  0
    9.6486   10.4081   -0.0000 S   0  0  0  0  0  0  0  0  0  0  0  0
    8.8890   11.7136   -0.0000 O   0  0  0  0  0  0  0  0  0  0  0  0
   10.3844   11.7255   -0.0000 O   0  0  0  0  0  0  0  0  0  0  0  0
   10.9540    9.6842   -0.0000 C   0  0  0  0  0  0  0  0  0  0  0  0
   10.9659    8.2007   -0.0000 C   0  0  0  0  0  0  0  0  0  0  0  0
  1  2  1  0  0  0  0
  2  3  2  0  0  0  0
  2  4  1  0  0  0  0
  3  5  1  0  0  0  0
  3  6  1  0  0  0  0
  4  7  2  0  0  0  0
  5  8  2  0  0  0  0
  6  9  1  0  0  0  0
  6 10  1  0  0  0  0
  6 11  1  6  0  0  0
  7 12  1  0  0  0  0
  9 13  1  0  0  0  0
 10 14  1  0  0  0  0
 11 15  1  0  0  0  0
 13 16  1  6  0  0  0
 15 17  1  0  0  0  0
 15 18  1  0  0  0  0
 16 19  1  0  0  0  0
 17 20  2  0  0  0  0
 18 21  2  0  0  0  0
 19 22  1  0  0  0  0
 22 23  2  0  0  0  0
 22 24  1  0  0  0  0
 23 25  1  0  0  0  0
 24 26  2  0  0  0  0
 25 27  2  0  0  0  0
 27 28  1  0  0  0  0
 28 29  1  0  0  0  0
 28 30  1  0  0  0  0
 29 31  1  0  0  0  0
 30 32  1  0  0  0  0
 31 33  1  0  0  0  0
 33 34  1  0  0  0  0
 34 35  2  0  0  0  0
 34 36  2  0  0  0  0
 34 37  1  0  0  0  0
 37 38  1  0  0  0  0
  7  8  1  0  0  0  0
 13 14  1  0  0  0  0
 20 21  1  0  0  0  0
 26 27  1  0  0  0  0
 32 33  1  0  0  0  0
M  END
>  <MolRegNo>
2123279

>  <m>
=

>  <Value>
162

>  <Unit>
nM

>  <Type>
IC50

>  <pValue>
6.79

>  <Ligand Efficiency>
0

>  <Binding Efficiency>
0

>  <Surface Efficiency>
0

>  <Assay Index>
1043649

>  <Assay Category>


>  <Assay Organism>
Homo sapiens

>  <Target ID>
17045

>  <Target Name>
Cytochrome P450 3A4

>  <Target Organism>
Homo sapiens

>  <Target Description>
Target is a single protein chain

>  <Sequence Accession>
P08684

>  <Reference>
Bioorg Med Chem Lett 26 (23), 5825-5829 (2016)

>  <Pubmed ID>
27789139

>  <DOI>
10.1016/j.bmcl.2016.10.016

$$$$
2104283
Actelion Java MolfileCreator 1.0

 39 43  0  0  0  0  0  0  0  0999 V2000
    0.0000   -0.0000   -0.0000 Cl  0  0  0  0  0  0  0  0  0  0  0  0
   -1.3056   -0.7478   -0.0000 C   0  0  0  0  0  0  0  0  0  0  0  0
   -2.5994   -0.0119   -0.0000 C   0  0  0  0  0  0  0  0  0  0  0  0
   -1.3175   -2.2314   -0.0000 C   0  0  0  0  0  0  0  0  0  0  0  0
   -3.9169   -0.7596   -0.0000 C   0  0  0  0  0  0  0  0  0  0  0  0
   -2.6113    1.4837   -0.0000 C   0  0  0  0  0  0  0  0  0  0  0  0
   -2.6350   -2.9792   -0.0000 C   0  0  0  0  0  0  0  0  0  0  0  0
   -3.9288   -2.2077   -0.0000 C   0  0  0  0  0  0  0  0  0  0  0  0
   -1.1751    1.2107   -0.0000 O   0  0  0  0  0  0  0  0  0  0  0  0
   -2.8249    2.9792   -0.0000 O   0  0  0  0  0  0  0  0  0  0  0  0
   -4.1305    1.3175   -0.0000 C   0  0  0  0  0  0  0  0  0  0  0  0
   -2.6350   -4.4629   -0.0000 Cl  0  0  0  0  0  0  0  0  0  0  0  0
   -0.4510    2.5400   -0.0000 C   0  0  0  0  0  0  0  0  0  0  0  0
   -1.4955    3.6439   -0.0000 C   0  0  0  0  0  0  0  0  0  0  0  0
   -5.0682    2.5044   -0.0000 N   0  0  0  0  0  0  0  0  0  0  0  0
    0.8309    3.3353   -0.0000 C   0  0  0  0  0  0  0  0  0  0  0  0
   -4.6409    3.9406   -0.0000 C   0  0  0  0  0  0  0  0  0  0  0  0
   -6.5637    2.4688   -0.0000 C   0  0  0  0  0  0  0  0  0  0  0  0
    0.7952    4.8546   -0.0000 O   0  0  0  0  0  0  0  0  0  0  0  0
   -5.8872    4.8308   -0.0000 N   0  0  0  0  0  0  0  0  0  0  0  0
   -7.0860    3.8931   -0.0000 C   0  0  0  0  0  0  0  0  0  0  0  0
    2.0653    5.6379   -0.0000 C   0  0  0  0  0  0  0  0  0  0  0  0
    3.3590    4.9258   -0.0000 C   0  0  0  0  0  0  0  0  0  0  0  0
    2.0059    7.1572   -0.0000 C   0  0  0  0  0  0  0  0  0  0  0  0
    4.6290    5.7092   -0.0000 C   0  0  0  0  0  0  0  0  0  0  0  0
    3.2759    7.9525   -0.0000 C   0  0  0  0  0  0  0  0  0  0  0  0
    4.5934    7.2284   -0.0000 C   0  0  0  0  0  0  0  0  0  0  0  0
    5.8516    8.0355   -0.0000 N   0  0  0  0  0  0  0  0  0  0  0  0
    5.8041    9.5430   -0.0000 C   0  0  0  0  0  0  0  0  0  0  0  0
    7.1453    7.3234   -0.0000 C   0  0  0  0  0  0  0  0  0  0  0  0
    7.0741   10.3263   -0.0000 C   0  0  0  0  0  0  0  0  0  0  0  0
    8.4035    8.1186   -0.0000 C   0  0  0  0  0  0  0  0  0  0  0  0
    8.3798    9.6260   -0.0000 N   0  0  0  0  0  0  0  0  0  0  0  0
    9.6498   10.4094   -0.0000 S   0  0  0  0  0  0  0  0  0  0  0  0
    8.8901   11.7150   -0.0000 O   0  0  0  0  0  0  0  0  0  0  0  0
   10.3857   11.7269   -0.0000 O   0  0  0  0  0  0  0  0  0  0  0  0
   10.9554    9.6854   -0.0000 C   0  0  0  0  0  0  0  0  0  0  0  0
   10.9673    8.2017   -0.0000 C   0  0  0  0  0  0  0  0  0  0  0  0
   12.2254   10.4688   -0.0000 C   0  0  0  0  0  0  0  0  0  0  0  0
  1  2  1  0  0  0  0
  2  3  2  0  0  0  0
  2  4  1  0  0  0  0
  3  5  1  0  0  0  0
  3  6  1  0  0  0  0
  4  7  2  0  0  0  0
  5  8  2  0  0  0  0
  6  9  1  0  0  0  0
  6 10  1  0  0  0  0
  6 11  1  6  0  0  0
  7 12  1  0  0  0  0
  9 13  1  0  0  0  0
 10 14  1  0  0  0  0
 11 15  1  0  0  0  0
 13 16  1  6  0  0  0
 15 17  1  0  0  0  0
 15 18  1  0  0  0  0
 16 19  1  0  0  0  0
 17 20  2  0  0  0  0
 18 21  2  0  0  0  0
 19 22  1  0  0  0  0
 22 23  2  0  0  0  0
 22 24  1  0  0  0  0
 23 25  1  0  0  0  0
 24 26  2  0  0  0  0
 25 27  2  0  0  0  0
 27 28  1  0  0  0  0
 28 29  1  0  0  0  0
 28 30  1  0  0  0  0
 29 31  1  0  0  0  0
 30 32  1  0  0  0  0
 31 33  1  0  0  0  0
 33 34  1  0  0  0  0
 34 35  2  0  0  0  0
 34 36  2  0  0  0  0
 34 37  1  0  0  0  0
 37 38  1  0  0  0  0
 37 39  1  0  0  0  0
  7  8  1  0  0  0  0
 13 14  1  0  0  0  0
 20 21  1  0  0  0  0
 26 27  1  0  0  0  0
 32 33  1  0  0  0  0
M  END
>  <MolRegNo>
2104283

>  <m>
=

>  <Value>
198

>  <Unit>
nM

>  <Type>
IC50

>  <pValue>
6.7

>  <Ligand Efficiency>
0

>  <Binding Efficiency>
0

>  <Surface Efficiency>
0

>  <Assay Index>
1043649

>  <Assay Category>


>  <Assay Organism>
Homo sapiens

>  <Target ID>
17045

>  <Target Name>
Cytochrome P450 3A4

>  <Target Organism>
Homo sapiens

>  <Target Description>
Target is a single protein chain

>  <Sequence Accession>
P08684

>  <Reference>
Bioorg Med Chem Lett 26 (23), 5825-5829 (2016)

>  <Pubmed ID>
27789139

>  <DOI>
10.1016/j.bmcl.2016.10.016

$$$$
2132259
Actelion Java MolfileCreator 1.0

 39 44  0  0  0  0  0  0  0  0999 V2000
    0.0000   -0.0000   -0.0000 Cl  0  0  0  0  0  0  0  0  0  0  0  0
   -1.3052   -0.7476   -0.0000 C   0  0  0  0  0  0  0  0  0  0  0  0
   -2.5986   -0.0119   -0.0000 C   0  0  0  0  0  0  0  0  0  0  0  0
   -1.3171   -2.2308   -0.0000 C   0  0  0  0  0  0  0  0  0  0  0  0
   -3.9157   -0.7594   -0.0000 C   0  0  0  0  0  0  0  0  0  0  0  0
   -2.6105    1.4832   -0.0000 C   0  0  0  0  0  0  0  0  0  0  0  0
   -2.6342   -2.9783   -0.0000 C   0  0  0  0  0  0  0  0  0  0  0  0
   -3.9276   -2.2071   -0.0000 C   0  0  0  0  0  0  0  0  0  0  0  0
   -1.1747    1.2103   -0.0000 O   0  0  0  0  0  0  0  0  0  0  0  0
   -2.8241    2.9783   -0.0000 O   0  0  0  0  0  0  0  0  0  0  0  0
   -4.1293    1.3171   -0.0000 C   0  0  0  0  0  0  0  0  0  0  0  0
   -2.6342   -4.4616   -0.0000 Cl  0  0  0  0  0  0  0  0  0  0  0  0
   -0.4509    2.5393   -0.0000 C   0  0  0  0  0  0  0  0  0  0  0  0
   -1.4951    3.6428   -0.0000 C   0  0  0  0  0  0  0  0  0  0  0  0
   -5.0667    2.5037   -0.0000 N   0  0  0  0  0  0  0  0  0  0  0  0
    0.8306    3.3343   -0.0000 C   0  0  0  0  0  0  0  0  0  0  0  0
   -4.6396    3.9395   -0.0000 C   0  0  0  0  0  0  0  0  0  0  0  0
   -6.5618    2.4681   -0.0000 C   0  0  0  0  0  0  0  0  0  0  0  0
    0.7950    4.8531   -0.0000 O   0  0  0  0  0  0  0  0  0  0  0  0
   -5.8855    4.8294   -0.0000 N   0  0  0  0  0  0  0  0  0  0  0  0
   -7.0839    3.8920   -0.0000 C   0  0  0  0  0  0  0  0  0  0  0  0
    2.0647    5.6363   -0.0000 C   0  0  0  0  0  0  0  0  0  0  0  0
    3.3580    4.9243   -0.0000 C   0  0  0  0  0  0  0  0  0  0  0  0
    2.0053    7.1551   -0.0000 C   0  0  0  0  0  0  0  0  0  0  0  0
    4.6277    5.7075   -0.0000 C   0  0  0  0  0  0  0  0  0  0  0  0
    3.2750    7.9501   -0.0000 C   0  0  0  0  0  0  0  0  0  0  0  0
    4.5921    7.2263   -0.0000 C   0  0  0  0  0  0  0  0  0  0  0  0
    5.8499    8.0332   -0.0000 N   0  0  0  0  0  0  0  0  0  0  0  0
    5.8024    9.5402   -0.0000 C   0  0  0  0  0  0  0  0  0  0  0  0
    7.1433    7.3213   -0.0000 C   0  0  0  0  0  0  0  0  0  0  0  0
    7.0721   10.3233   -0.0000 C   0  0  0  0  0  0  0  0  0  0  0  0
    8.4010    8.1163   -0.0000 C   0  0  0  0  0  0  0  0  0  0  0  0
    8.3773    9.6232   -0.0000 N   0  0  0  0  0  0  0  0  0  0  0  0
    9.6470   10.4064   -0.0000 S   0  0  0  0  0  0  0  0  0  0  0  0
    8.8876   11.7116   -0.0000 O   0  0  0  0  0  0  0  0  0  0  0  0
   10.3827   11.7235   -0.0000 O   0  0  0  0  0  0  0  0  0  0  0  0
   10.9522    9.6826   -0.0000 C   0  0  0  0  0  0  0  0  0  0  0  0
   11.7116    8.4010   -0.0000 C   0  0  0  0  0  0  0  0  0  0  0  0
   12.4473    9.7182   -0.0000 C   0  0  0  0  0  0  0  0  0  0  0  0
  1  2  1  0  0  0  0
  2  3  2  0  0  0  0
  2  4  1  0  0  0  0
  3  5  1  0  0  0  0
  3  6  1  0  0  0  0
  4  7  2  0  0  0  0
  5  8  2  0  0  0  0
  6  9  1  0  0  0  0
  6 10  1  0  0  0  0
  6 11  1  6  0  0  0
  7 12  1  0  0  0  0
  9 13  1  0  0  0  0
 10 14  1  0  0  0  0
 11 15  1  0  0  0  0
 13 16  1  6  0  0  0
 15 17  1  0  0  0  0
 15 18  1  0  0  0  0
 16 19  1  0  0  0  0
 17 20  2  0  0  0  0
 18 21  2  0  0  0  0
 19 22  1  0  0  0  0
 22 23  2  0  0  0  0
 22 24  1  0  0  0  0
 23 25  1  0  0  0  0
 24 26  2  0  0  0  0
 25 27  2  0  0  0  0
 27 28  1  0  0  0  0
 28 29  1  0  0  0  0
 28 30  1  0  0  0  0
 29 31  1  0  0  0  0
 30 32  1  0  0  0  0
 31 33  1  0  0  0  0
 33 34  1  0  0  0  0
 34 35  2  0  0  0  0
 34 36  2  0  0  0  0
 34 37  1  0  0  0  0
 37 38  1  0  0  0  0
 37 39  1  0  0  0  0
  7  8  1  0  0  0  0
 13 14  1  0  0  0  0
 20 21  1  0  0  0  0
 26 27  1  0  0  0  0
 32 33  1  0  0  0  0
 38 39  1  0  0  0  0
M  END
>  <MolRegNo>
2132259

>  <m>
=

>  <Value>
185

>  <Unit>
nM

>  <Type>
IC50

>  <pValue>
6.73

>  <Ligand Efficiency>
0

>  <Binding Efficiency>
0

>  <Surface Efficiency>
0

>  <Assay Index>
1043649

>  <Assay Category>


>  <Assay Organism>
Homo sapiens

>  <Target ID>
17045

>  <Target Name>
Cytochrome P450 3A4

>  <Target Organism>
Homo sapiens

>  <Target Description>
Target is a single protein chain

>  <Sequence Accession>
P08684

>  <Reference>
Bioorg Med Chem Lett 26 (23), 5825-5829 (2016)

>  <Pubmed ID>
27789139

>  <DOI>
10.1016/j.bmcl.2016.10.016

$$$$
2173792
Actelion Java MolfileCreator 1.0

 40 44  0  0  0  0  0  0  0  0999 V2000
    0.0000   -0.0000   -0.0000 Cl  0  0  0  0  0  0  0  0  0  0  0  0
   -1.3063   -0.7481   -0.0000 C   0  0  0  0  0  0  0  0  0  0  0  0
   -2.6006   -0.0119   -0.0000 C   0  0  0  0  0  0  0  0  0  0  0  0
   -1.3181   -2.2325   -0.0000 C   0  0  0  0  0  0  0  0  0  0  0  0
   -3.9188   -0.7600   -0.0000 C   0  0  0  0  0  0  0  0  0  0  0  0
   -2.6125    1.4844   -0.0000 C   0  0  0  0  0  0  0  0  0  0  0  0
   -2.6363   -2.9806   -0.0000 C   0  0  0  0  0  0  0  0  0  0  0  0
   -3.9306   -2.2088   -0.0000 C   0  0  0  0  0  0  0  0  0  0  0  0
   -1.1756    1.2113   -0.0000 O   0  0  0  0  0  0  0  0  0  0  0  0
   -2.8263    2.9806   -0.0000 O   0  0  0  0  0  0  0  0  0  0  0  0
   -4.1325    1.3181   -0.0000 C   0  0  0  0  0  0  0  0  0  0  0  0
   -2.6363   -4.4650   -0.0000 Cl  0  0  0  0  0  0  0  0  0  0  0  0
   -0.4513    2.5413   -0.0000 C   0  0  0  0  0  0  0  0  0  0  0  0
   -1.4963    3.6456   -0.0000 C   0  0  0  0  0  0  0  0  0  0  0  0
   -5.0706    2.5056   -0.0000 N   0  0  0  0  0  0  0  0  0  0  0  0
    0.8313    3.3369   -0.0000 C   0  0  0  0  0  0  0  0  0  0  0  0
   -4.6431    3.9425   -0.0000 C   0  0  0  0  0  0  0  0  0  0  0  0
   -6.5669    2.4700   -0.0000 C   0  0  0  0  0  0  0  0  0  0  0  0
    0.7956    4.8569   -0.0000 O   0  0  0  0  0  0  0  0  0  0  0  0
   -5.8900    4.8331   -0.0000 N   0  0  0  0  0  0  0  0  0  0  0  0
   -7.0894    3.8950   -0.0000 C   0  0  0  0  0  0  0  0  0  0  0  0
    2.0663    5.6406   -0.0000 C   0  0  0  0  0  0  0  0  0  0  0  0
    3.3606    4.9281   -0.0000 C   0  0  0  0  0  0  0  0  0  0  0  0
    2.0069    7.1606   -0.0000 C   0  0  0  0  0  0  0  0  0  0  0  0
    4.6313    5.7119   -0.0000 C   0  0  0  0  0  0  0  0  0  0  0  0
    3.2775    7.9563   -0.0000 C   0  0  0  0  0  0  0  0  0  0  0  0
    4.5956    7.2319   -0.0000 C   0  0  0  0  0  0  0  0  0  0  0  0
    5.8544    8.0394   -0.0000 N   0  0  0  0  0  0  0  0  0  0  0  0
    5.8069    9.5475   -0.0000 C   0  0  0  0  0  0  0  0  0  0  0  0
    7.1488    7.3269   -0.0000 C   0  0  0  0  0  0  0  0  0  0  0  0
    7.0775   10.3313   -0.0000 C   0  0  0  0  0  0  0  0  0  0  0  0
    8.4075    8.1225   -0.0000 C   0  0  0  0  0  0  0  0  0  0  0  0
    8.3838    9.6307   -0.0000 N   0  0  0  0  0  0  0  0  0  0  0  0
    9.6544   10.4144   -0.0000 S   0  0  0  0  0  0  0  0  0  0  0  0
    8.8944   11.7207   -0.0000 O   0  0  0  0  0  0  0  0  0  0  0  0
   10.3907   11.7325   -0.0000 O   0  0  0  0  0  0  0  0  0  0  0  0
   10.9607    9.6900   -0.0000 C   0  0  0  0  0  0  0  0  0  0  0  0
   10.9725    8.2057   -0.0000 C   0  0  0  0  0  0  0  0  0  0  0  0
   12.2669    7.4931   -0.0000 O   0  0  0  0  0  0  0  0  0  0  0  0
   12.2788    6.0088   -0.0000 C   0  0  0  0  0  0  0  0  0  0  0  0
  1  2  1  0  0  0  0
  2  3  2  0  0  0  0
  2  4  1  0  0  0  0
  3  5  1  0  0  0  0
  3  6  1  0  0  0  0
  4  7  2  0  0  0  0
  5  8  2  0  0  0  0
  6  9  1  0  0  0  0
  6 10  1  0  0  0  0
  6 11  1  6  0  0  0
  7 12  1  0  0  0  0
  9 13  1  0  0  0  0
 10 14  1  0  0  0  0
 11 15  1  0  0  0  0
 13 16  1  6  0  0  0
 15 17  1  0  0  0  0
 15 18  1  0  0  0  0
 16 19  1  0  0  0  0
 17 20  2  0  0  0  0
 18 21  2  0  0  0  0
 19 22  1  0  0  0  0
 22 23  2  0  0  0  0
 22 24  1  0  0  0  0
 23 25  1  0  0  0  0
 24 26  2  0  0  0  0
 25 27  2  0  0  0  0
 27 28  1  0  0  0  0
 28 29  1  0  0  0  0
 28 30  1  0  0  0  0
 29 31  1  0  0  0  0
 30 32  1  0  0  0  0
 31 33  1  0  0  0  0
 33 34  1  0  0  0  0
 34 35  2  0  0  0  0
 34 36  2  0  0  0  0
 34 37  1  0  0  0  0
 37 38  1  0  0  0  0
 38 39  1  0  0  0  0
 39 40  1  0  0  0  0
  7  8  1  0  0  0  0
 13 14  1  0  0  0  0
 20 21  1  0  0  0  0
 26 27  1  0  0  0  0
 32 33  1  0  0  0  0
M  END
>  <MolRegNo>
2173792

>  <m>
=

>  <Value>
185

>  <Unit>
nM

>  <Type>
IC50

>  <pValue>
6.73

>  <Ligand Efficiency>
0

>  <Binding Efficiency>
0

>  <Surface Efficiency>
0

>  <Assay Index>
1043649

>  <Assay Category>


>  <Assay Organism>
Homo sapiens

>  <Target ID>
17045

>  <Target Name>
Cytochrome P450 3A4

>  <Target Organism>
Homo sapiens

>  <Target Description>
Target is a single protein chain

>  <Sequence Accession>
P08684

>  <Reference>
Bioorg Med Chem Lett 26 (23), 5825-5829 (2016)

>  <Pubmed ID>
27789139

>  <DOI>
10.1016/j.bmcl.2016.10.016

$$$$
2141207
Actelion Java MolfileCreator 1.0

 42 47  0  0  0  0  0  0  0  0999 V2000
    0.0000   -0.0000   -0.0000 Cl  0  0  0  0  0  0  0  0  0  0  0  0
   -1.3078   -0.7490   -0.0000 C   0  0  0  0  0  0  0  0  0  0  0  0
   -2.6038   -0.0119   -0.0000 C   0  0  0  0  0  0  0  0  0  0  0  0
   -1.3197   -2.2352   -0.0000 C   0  0  0  0  0  0  0  0  0  0  0  0
   -3.9235   -0.7609   -0.0000 C   0  0  0  0  0  0  0  0  0  0  0  0
   -2.6157    1.4862   -0.0000 C   0  0  0  0  0  0  0  0  0  0  0  0
   -2.6395   -2.9843   -0.0000 C   0  0  0  0  0  0  0  0  0  0  0  0
   -3.9354   -2.2114   -0.0000 C   0  0  0  0  0  0  0  0  0  0  0  0
   -1.1771    1.2127   -0.0000 O   0  0  0  0  0  0  0  0  0  0  0  0
   -2.8297    2.9843   -0.0000 O   0  0  0  0  0  0  0  0  0  0  0  0
   -4.1256    1.3197   -0.0000 C   0  0  0  0  0  0  0  0  0  0  0  0
   -2.6395   -4.4704   -0.0000 Cl  0  0  0  0  0  0  0  0  0  0  0  0
   -0.4518    2.5443   -0.0000 C   0  0  0  0  0  0  0  0  0  0  0  0
   -1.4981    3.6501   -0.0000 C   0  0  0  0  0  0  0  0  0  0  0  0
   -5.0649    2.5087   -0.0000 N   0  0  0  0  0  0  0  0  0  0  0  0
    0.8323    3.3409   -0.0000 C   0  0  0  0  0  0  0  0  0  0  0  0
   -4.6369    3.9473   -0.0000 C   0  0  0  0  0  0  0  0  0  0  0  0
   -6.5630    2.4730   -0.0000 C   0  0  0  0  0  0  0  0  0  0  0  0
    0.7966    4.8628   -0.0000 O   0  0  0  0  0  0  0  0  0  0  0  0
   -5.8853    4.8390   -0.0000 N   0  0  0  0  0  0  0  0  0  0  0  0
   -7.0861    3.8997   -0.0000 C   0  0  0  0  0  0  0  0  0  0  0  0
    2.0688    5.6475   -0.0000 C   0  0  0  0  0  0  0  0  0  0  0  0
    3.3647    4.9341   -0.0000 C   0  0  0  0  0  0  0  0  0  0  0  0
    2.0093    7.1693   -0.0000 C   0  0  0  0  0  0  0  0  0  0  0  0
    4.6369    5.7188   -0.0000 C   0  0  0  0  0  0  0  0  0  0  0  0
    3.2815    7.9659   -0.0000 C   0  0  0  0  0  0  0  0  0  0  0  0
    4.6012    7.2407   -0.0000 C   0  0  0  0  0  0  0  0  0  0  0  0
    5.8615    8.0492   -0.0000 N   0  0  0  0  0  0  0  0  0  0  0  0
    5.8139    9.5591   -0.0000 C   0  0  0  0  0  0  0  0  0  0  0  0
    7.1575    7.3358   -0.0000 C   0  0  0  0  0  0  0  0  0  0  0  0
    7.0861   10.3438   -0.0000 C   0  0  0  0  0  0  0  0  0  0  0  0
    8.4177    8.1324   -0.0000 C   0  0  0  0  0  0  0  0  0  0  0  0
    8.3940    9.6424   -0.0000 N   0  0  0  0  0  0  0  0  0  0  0  0
    9.6661   10.4271   -0.0000 S   0  0  0  0  0  0  0  0  0  0  0  0
    8.9052   11.7349   -0.0000 O   0  0  0  0  0  0  0  0  0  0  0  0
   10.4033   11.7468   -0.0000 O   0  0  0  0  0  0  0  0  0  0  0  0
   10.9621    9.7137   -0.0000 C   0  0  0  0  0  0  0  0  0  0  0  0
   10.9740    8.2275   -0.0000 C   0  0  0  0  0  0  0  0  0  0  0  0
   12.2224   10.4984   -0.0000 C   0  0  0  0  0  0  0  0  0  0  0  0
   12.2580    7.5141   -0.0000 C   0  0  0  0  0  0  0  0  0  0  0  0
   13.5183    9.7731   -0.0000 C   0  0  0  0  0  0  0  0  0  0  0  0
   13.5302    8.2870   -0.0000 O   0  0  0  0  0  0  0  0  0  0  0  0
  1  2  1  0  0  0  0
  2  3  2  0  0  0  0
  2  4  1  0  0  0  0
  3  5  1  0  0  0  0
  3  6  1  0  0  0  0
  4  7  2  0  0  0  0
  5  8  2  0  0  0  0
  6  9  1  0  0  0  0
  6 10  1  0  0  0  0
  6 11  1  6  0  0  0
  7 12  1  0  0  0  0
  9 13  1  0  0  0  0
 10 14  1  0  0  0  0
 11 15  1  0  0  0  0
 13 16  1  6  0  0  0
 15 17  1  0  0  0  0
 15 18  1  0  0  0  0
 16 19  1  0  0  0  0
 17 20  2  0  0  0  0
 18 21  2  0  0  0  0
 19 22  1  0  0  0  0
 22 23  2  0  0  0  0
 22 24  1  0  0  0  0
 23 25  1  0  0  0  0
 24 26  2  0  0  0  0
 25 27  2  0  0  0  0
 27 28  1  0  0  0  0
 28 29  1  0  0  0  0
 28 30  1  0  0  0  0
 29 31  1  0  0  0  0
 30 32  1  0  0  0  0
 31 33  1  0  0  0  0
 33 34  1  0  0  0  0
 34 35  2  0  0  0  0
 34 36  2  0  0  0  0
 34 37  1  0  0  0  0
 37 38  1  0  0  0  0
 37 39  1  0  0  0  0
 38 40  1  0  0  0  0
 39 41  1  0  0  0  0
 40 42  1  0  0  0  0
  7  8  1  0  0  0  0
 13 14  1  0  0  0  0
 20 21  1  0  0  0  0
 26 27  1  0  0  0  0
 32 33  1  0  0  0  0
 41 42  1  0  0  0  0
M  END
>  <MolRegNo>
2141207

>  <m>
=

>  <Value>
226

>  <Unit>
nM

>  <Type>
IC50

>  <pValue>
6.65

>  <Ligand Efficiency>
0

>  <Binding Efficiency>
0

>  <Surface Efficiency>
0

>  <Assay Index>
1043649

>  <Assay Category>


>  <Assay Organism>
Homo sapiens

>  <Target ID>
17045

>  <Target Name>
Cytochrome P450 3A4

>  <Target Organism>
Homo sapiens

>  <Target Description>
Target is a single protein chain

>  <Sequence Accession>
P08684

>  <Reference>
Bioorg Med Chem Lett 26 (23), 5825-5829 (2016)

>  <Pubmed ID>
27789139

>  <DOI>
10.1016/j.bmcl.2016.10.016

$$$$
2147986
Actelion Java MolfileCreator 1.0

 40 44  0  0  0  0  0  0  0  0999 V2000
    0.0000   -0.0000   -0.0000 Cl  0  0  0  0  0  0  0  0  0  0  0  0
   -1.3045   -0.7368   -0.0000 C   0  0  0  0  0  0  0  0  0  0  0  0
   -2.6089   -0.0000   -0.0000 C   0  0  0  0  0  0  0  0  0  0  0  0
   -1.3165   -2.2224   -0.0000 C   0  0  0  0  0  0  0  0  0  0  0  0
   -3.9255   -0.7489   -0.0000 C   0  0  0  0  0  0  0  0  0  0  0  0
   -2.6210    1.4977   -0.0000 C   0  0  0  0  0  0  0  0  0  0  0  0
   -2.6331   -2.9713   -0.0000 C   0  0  0  0  0  0  0  0  0  0  0  0
   -3.9376   -2.1983   -0.0000 C   0  0  0  0  0  0  0  0  0  0  0  0
   -1.1837    1.2320   -0.0000 O   0  0  0  0  0  0  0  0  0  0  0  0
   -2.8384    2.9954   -0.0000 O   0  0  0  0  0  0  0  0  0  0  0  0
   -4.1308    1.3286   -0.0000 C   0  0  0  0  0  0  0  0  0  0  0  0
   -2.6331   -4.4569   -0.0000 Cl  0  0  0  0  0  0  0  0  0  0  0  0
   -0.4590    2.5606   -0.0000 C   0  0  0  0  0  0  0  0  0  0  0  0
   -1.5098    3.6598   -0.0000 C   0  0  0  0  0  0  0  0  0  0  0  0
   -5.0609    2.5244   -0.0000 N   0  0  0  0  0  0  0  0  0  0  0  0
    0.8334    3.3578   -0.0000 C   0  0  0  0  0  0  0  0  0  0  0  0
   -4.6381    3.9617   -0.0000 C   0  0  0  0  0  0  0  0  0  0  0  0
   -6.5586    2.4882   -0.0000 C   0  0  0  0  0  0  0  0  0  0  0  0
    0.7972    4.8797   -0.0000 O   0  0  0  0  0  0  0  0  0  0  0  0
   -5.8822    4.8434   -0.0000 N   0  0  0  0  0  0  0  0  0  0  0  0
   -7.0780    3.9134   -0.0000 C   0  0  0  0  0  0  0  0  0  0  0  0
    2.0654    5.6648   -0.0000 C   0  0  0  0  0  0  0  0  0  0  0  0
    3.3578    4.9522   -0.0000 C   0  0  0  0  0  0  0  0  0  0  0  0
    2.0050    7.1867   -0.0000 C   0  0  0  0  0  0  0  0  0  0  0  0
    4.6260    5.7372   -0.0000 C   0  0  0  0  0  0  0  0  0  0  0  0
    3.2733    7.9838   -0.0000 C   0  0  0  0  0  0  0  0  0  0  0  0
    4.5898    7.2591   -0.0000 C   0  0  0  0  0  0  0  0  0  0  0  0
    5.8460    8.0563   -0.0000 N   0  0  0  0  0  0  0  0  0  0  0  0
    5.7976    9.5661   -0.0000 C   0  0  0  0  0  0  0  0  0  0  0  0
    7.1504    7.3437   -0.0000 C   0  0  0  0  0  0  0  0  0  0  0  0
    7.0659   10.3512   -0.0000 C   0  0  0  0  0  0  0  0  0  0  0  0
    8.4187    8.1409   -0.0000 C   0  0  0  0  0  0  0  0  0  0  0  0
    8.3824    9.6507   -0.0000 N   0  0  0  0  0  0  0  0  0  0  0  0
    9.6507   10.4358   -0.0000 S   0  0  0  0  0  0  0  0  0  0  0  0
    8.8897   11.7402   -0.0000 O   0  0  0  0  0  0  0  0  0  0  0  0
   10.3874   11.7523   -0.0000 O   0  0  0  0  0  0  0  0  0  0  0  0
   10.9430    9.7231   -0.0000 C   0  0  0  0  0  0  0  0  0  0  0  0
   12.1267    9.0830   -0.0000 F   0  0  0  0  0  0  0  0  0  0  0  0
   11.2088    8.2012   -0.0000 F   0  0  0  0  0  0  0  0  0  0  0  0
   12.3804   10.3270   -0.0000 F   0  0  0  0  0  0  0  0  0  0  0  0
  1  2  1  0  0  0  0
  2  3  2  0  0  0  0
  2  4  1  0  0  0  0
  3  5  1  0  0  0  0
  3  6  1  0  0  0  0
  4  7  2  0  0  0  0
  5  8  2  0  0  0  0
  6  9  1  0  0  0  0
  6 10  1  0  0  0  0
  6 11  1  6  0  0  0
  7 12  1  0  0  0  0
  9 13  1  0  0  0  0
 10 14  1  0  0  0  0
 11 15  1  0  0  0  0
 13 16  1  6  0  0  0
 15 17  1  0  0  0  0
 15 18  1  0  0  0  0
 16 19  1  0  0  0  0
 17 20  2  0  0  0  0
 18 21  2  0  0  0  0
 19 22  1  0  0  0  0
 22 23  2  0  0  0  0
 22 24  1  0  0  0  0
 23 25  1  0  0  0  0
 24 26  2  0  0  0  0
 25 27  2  0  0  0  0
 27 28  1  0  0  0  0
 28 29  1  0  0  0  0
 28 30  1  0  0  0  0
 29 31  1  0  0  0  0
 30 32  1  0  0  0  0
 31 33  1  0  0  0  0
 33 34  1  0  0  0  0
 34 35  2  0  0  0  0
 34 36  2  0  0  0  0
 34 37  1  0  0  0  0
 37 38  1  0  0  0  0
 37 39  1  0  0  0  0
 37 40  1  0  0  0  0
  7  8  1  0  0  0  0
 13 14  1  0  0  0  0
 20 21  1  0  0  0  0
 26 27  1  0  0  0  0
 32 33  1  0  0  0  0
M  END
>  <MolRegNo>
2147986

>  <m>
=

>  <Value>
336

>  <Unit>
nM

>  <Type>
IC50

>  <pValue>
6.47

>  <Ligand Efficiency>
0

>  <Binding Efficiency>
0

>  <Surface Efficiency>
0

>  <Assay Index>
1043649

>  <Assay Category>


>  <Assay Organism>
Homo sapiens

>  <Target ID>
17045

>  <Target Name>
Cytochrome P450 3A4

>  <Target Organism>
Homo sapiens

>  <Target Description>
Target is a single protein chain

>  <Sequence Accession>
P08684

>  <Reference>
Bioorg Med Chem Lett 26 (23), 5825-5829 (2016)

>  <Pubmed ID>
27789139

>  <DOI>
10.1016/j.bmcl.2016.10.016

$$$$
2177549
Actelion Java MolfileCreator 1.0

 39 43  0  0  0  0  0  0  0  0999 V2000
    0.0000   -0.0000   -0.0000 Cl  0  0  0  0  0  0  0  0  0  0  0  0
   -1.3062   -0.7481   -0.0000 C   0  0  0  0  0  0  0  0  0  0  0  0
   -2.6005   -0.0119   -0.0000 C   0  0  0  0  0  0  0  0  0  0  0  0
   -1.3181   -2.2324   -0.0000 C   0  0  0  0  0  0  0  0  0  0  0  0
   -3.9186   -0.7600   -0.0000 C   0  0  0  0  0  0  0  0  0  0  0  0
   -2.6124    1.4843   -0.0000 C   0  0  0  0  0  0  0  0  0  0  0  0
   -2.6361   -2.9805   -0.0000 C   0  0  0  0  0  0  0  0  0  0  0  0
   -3.9305   -2.2087   -0.0000 C   0  0  0  0  0  0  0  0  0  0  0  0
   -1.1756    1.2112   -0.0000 O   0  0  0  0  0  0  0  0  0  0  0  0
   -2.8261    2.9805   -0.0000 O   0  0  0  0  0  0  0  0  0  0  0  0
   -4.1204    1.3181   -0.0000 C   0  0  0  0  0  0  0  0  0  0  0  0
   -2.6361   -4.4648   -0.0000 Cl  0  0  0  0  0  0  0  0  0  0  0  0
   -0.4512    2.5411   -0.0000 C   0  0  0  0  0  0  0  0  0  0  0  0
   -1.4962    3.6455   -0.0000 C   0  0  0  0  0  0  0  0  0  0  0  0
   -5.0585    2.5055   -0.0000 N   0  0  0  0  0  0  0  0  0  0  0  0
    0.8312    3.3367   -0.0000 C   0  0  0  0  0  0  0  0  0  0  0  0
   -4.6310    3.9423   -0.0000 C   0  0  0  0  0  0  0  0  0  0  0  0
   -6.5547    2.4699   -0.0000 C   0  0  0  0  0  0  0  0  0  0  0  0
    0.7956    4.8567   -0.0000 O   0  0  0  0  0  0  0  0  0  0  0  0
   -5.8779    4.8329   -0.0000 N   0  0  0  0  0  0  0  0  0  0  0  0
   -7.0772    3.8948   -0.0000 C   0  0  0  0  0  0  0  0  0  0  0  0
    2.0662    5.6404   -0.0000 C   0  0  0  0  0  0  0  0  0  0  0  0
    3.3605    4.9279   -0.0000 C   0  0  0  0  0  0  0  0  0  0  0  0
    2.0068    7.1603   -0.0000 C   0  0  0  0  0  0  0  0  0  0  0  0
    4.6310    5.7116   -0.0000 C   0  0  0  0  0  0  0  0  0  0  0  0
    3.2774    7.9559   -0.0000 C   0  0  0  0  0  0  0  0  0  0  0  0
    4.5954    7.2316   -0.0000 C   0  0  0  0  0  0  0  0  0  0  0  0
    5.8541    8.0390   -0.0000 N   0  0  0  0  0  0  0  0  0  0  0  0
    5.8066    9.5471   -0.0000 C   0  0  0  0  0  0  0  0  0  0  0  0
    7.1484    7.3266   -0.0000 C   0  0  0  0  0  0  0  0  0  0  0  0
    7.0772   10.3308   -0.0000 C   0  0  0  0  0  0  0  0  0  0  0  0
    8.4071    8.1221   -0.0000 C   0  0  0  0  0  0  0  0  0  0  0  0
    8.3834    9.6302   -0.0000 N   0  0  0  0  0  0  0  0  0  0  0  0
    9.6540   10.4139   -0.0000 S   0  0  0  0  0  0  0  0  0  0  0  0
    8.8940   11.7201   -0.0000 O   0  0  0  0  0  0  0  0  0  0  0  0
   10.3902   11.7320   -0.0000 O   0  0  0  0  0  0  0  0  0  0  0  0
   10.9483    9.7015   -0.0000 C   0  0  0  0  0  0  0  0  0  0  0  0
   10.9601    8.2171   -0.0000 F   0  0  0  0  0  0  0  0  0  0  0  0
   12.2188   10.4852   -0.0000 F   0  0  0  0  0  0  0  0  0  0  0  0
  1  2  1  0  0  0  0
  2  3  2  0  0  0  0
  2  4  1  0  0  0  0
  3  5  1  0  0  0  0
  3  6  1  0  0  0  0
  4  7  2  0  0  0  0
  5  8  2  0  0  0  0
  6  9  1  0  0  0  0
  6 10  1  0  0  0  0
  6 11  1  6  0  0  0
  7 12  1  0  0  0  0
  9 13  1  0  0  0  0
 10 14  1  0  0  0  0
 11 15  1  0  0  0  0
 13 16  1  6  0  0  0
 15 17  1  0  0  0  0
 15 18  1  0  0  0  0
 16 19  1  0  0  0  0
 17 20  2  0  0  0  0
 18 21  2  0  0  0  0
 19 22  1  0  0  0  0
 22 23  2  0  0  0  0
 22 24  1  0  0  0  0
 23 25  1  0  0  0  0
 24 26  2  0  0  0  0
 25 27  2  0  0  0  0
 27 28  1  0  0  0  0
 28 29  1  0  0  0  0
 28 30  1  0  0  0  0
 29 31  1  0  0  0  0
 30 32  1  0  0  0  0
 31 33  1  0  0  0  0
 33 34  1  0  0  0  0
 34 35  2  0  0  0  0
 34 36  2  0  0  0  0
 34 37  1  0  0  0  0
 37 38  1  0  0  0  0
 37 39  1  0  0  0  0
  7  8  1  0  0  0  0
 13 14  1  0  0  0  0
 20 21  1  0  0  0  0
 26 27  1  0  0  0  0
 32 33  1  0  0  0  0
M  END
>  <MolRegNo>
2177549

>  <m>
=

>  <Value>
99

>  <Unit>
nM

>  <Type>
IC50

>  <pValue>
7

>  <Ligand Efficiency>
0

>  <Binding Efficiency>
0

>  <Surface Efficiency>
0

>  <Assay Index>
1043649

>  <Assay Category>


>  <Assay Organism>
Homo sapiens

>  <Target ID>
17045

>  <Target Name>
Cytochrome P450 3A4

>  <Target Organism>
Homo sapiens

>  <Target Description>
Target is a single protein chain

>  <Sequence Accession>
P08684

>  <Reference>
Bioorg Med Chem Lett 26 (23), 5825-5829 (2016)

>  <Pubmed ID>
27789139

>  <DOI>
10.1016/j.bmcl.2016.10.016

$$$$
2161403
Actelion Java MolfileCreator 1.0

 39 43  0  0  0  0  0  0  0  0999 V2000
    0.0000   -0.0000   -0.0000 Cl  0  0  0  0  0  0  0  0  0  0  0  0
   -1.3064   -0.7482   -0.0000 C   0  0  0  0  0  0  0  0  0  0  0  0
   -2.6009   -0.0119   -0.0000 C   0  0  0  0  0  0  0  0  0  0  0  0
   -1.3182   -2.2327   -0.0000 C   0  0  0  0  0  0  0  0  0  0  0  0
   -3.9191   -0.7601   -0.0000 C   0  0  0  0  0  0  0  0  0  0  0  0
   -2.6127    1.4845   -0.0000 C   0  0  0  0  0  0  0  0  0  0  0  0
   -2.6365   -2.9809   -0.0000 C   0  0  0  0  0  0  0  0  0  0  0  0
   -3.9310   -2.2089   -0.0000 C   0  0  0  0  0  0  0  0  0  0  0  0
   -1.1757    1.2114   -0.0000 O   0  0  0  0  0  0  0  0  0  0  0  0
   -2.8265    2.9809   -0.0000 O   0  0  0  0  0  0  0  0  0  0  0  0
   -4.1210    1.3182   -0.0000 C   0  0  0  0  0  0  0  0  0  0  0  0
   -2.6365   -4.4654   -0.0000 Cl  0  0  0  0  0  0  0  0  0  0  0  0
   -0.4513    2.5415   -0.0000 C   0  0  0  0  0  0  0  0  0  0  0  0
   -1.4964    3.6459   -0.0000 C   0  0  0  0  0  0  0  0  0  0  0  0
   -5.0592    2.5058   -0.0000 N   0  0  0  0  0  0  0  0  0  0  0  0
    0.8313    3.3372   -0.0000 C   0  0  0  0  0  0  0  0  0  0  0  0
   -4.6317    3.9428   -0.0000 C   0  0  0  0  0  0  0  0  0  0  0  0
   -6.5556    2.4702   -0.0000 C   0  0  0  0  0  0  0  0  0  0  0  0
    0.7957    4.8573   -0.0000 O   0  0  0  0  0  0  0  0  0  0  0  0
   -5.8786    4.8336   -0.0000 N   0  0  0  0  0  0  0  0  0  0  0  0
   -7.0781    3.8953   -0.0000 C   0  0  0  0  0  0  0  0  0  0  0  0
    2.0664    5.6411   -0.0000 C   0  0  0  0  0  0  0  0  0  0  0  0
    3.3609    4.9286   -0.0000 C   0  0  0  0  0  0  0  0  0  0  0  0
    2.0071    7.1613   -0.0000 C   0  0  0  0  0  0  0  0  0  0  0  0
    4.6317    5.7124   -0.0000 C   0  0  0  0  0  0  0  0  0  0  0  0
    3.2778    7.9569   -0.0000 C   0  0  0  0  0  0  0  0  0  0  0  0
    4.5960    7.2325   -0.0000 C   0  0  0  0  0  0  0  0  0  0  0  0
    5.8549    8.0401   -0.0000 N   0  0  0  0  0  0  0  0  0  0  0  0
    5.8074    9.5483   -0.0000 C   0  0  0  0  0  0  0  0  0  0  0  0
    7.1494    7.3275   -0.0000 C   0  0  0  0  0  0  0  0  0  0  0  0
    7.0781   10.3322   -0.0000 C   0  0  0  0  0  0  0  0  0  0  0  0
    8.4082    8.1232   -0.0000 C   0  0  0  0  0  0  0  0  0  0  0  0
    8.3845    9.6315   -0.0000 N   0  0  0  0  0  0  0  0  0  0  0  0
    9.6552   10.4153   -0.0000 S   0  0  0  0  0  0  0  0  0  0  0  0
    8.8952   11.7217   -0.0000 O   0  0  0  0  0  0  0  0  0  0  0  0
   10.3915   11.7335   -0.0000 O   0  0  0  0  0  0  0  0  0  0  0  0
   10.9497    9.7027   -0.0000 C   0  0  0  0  0  0  0  0  0  0  0  0
   10.9616    8.2182   -0.0000 C   0  0  0  0  0  0  0  0  0  0  0  0
   10.9735    6.7337   -0.0000 N   0  0  0  0  0  0  0  0  0  0  0  0
  1  2  1  0  0  0  0
  2  3  2  0  0  0  0
  2  4  1  0  0  0  0
  3  5  1  0  0  0  0
  3  6  1  0  0  0  0
  4  7  2  0  0  0  0
  5  8  2  0  0  0  0
  6  9  1  0  0  0  0
  6 10  1  0  0  0  0
  6 11  1  6  0  0  0
  7 12  1  0  0  0  0
  9 13  1  0  0  0  0
 10 14  1  0  0  0  0
 11 15  1  0  0  0  0
 13 16  1  6  0  0  0
 15 17  1  0  0  0  0
 15 18  1  0  0  0  0
 16 19  1  0  0  0  0
 17 20  2  0  0  0  0
 18 21  2  0  0  0  0
 19 22  1  0  0  0  0
 22 23  2  0  0  0  0
 22 24  1  0  0  0  0
 23 25  1  0  0  0  0
 24 26  2  0  0  0  0
 25 27  2  0  0  0  0
 27 28  1  0  0  0  0
 28 29  1  0  0  0  0
 28 30  1  0  0  0  0
 29 31  1  0  0  0  0
 30 32  1  0  0  0  0
 31 33  1  0  0  0  0
 33 34  1  0  0  0  0
 34 35  2  0  0  0  0
 34 36  2  0  0  0  0
 34 37  1  0  0  0  0
 37 38  1  0  0  0  0
 38 39  3  0  0  0  0
  7  8  1  0  0  0  0
 13 14  1  0  0  0  0
 20 21  1  0  0  0  0
 26 27  1  0  0  0  0
 32 33  1  0  0  0  0
M  END
>  <MolRegNo>
2161403

>  <m>
=

>  <Value>
153

>  <Unit>
nM

>  <Type>
IC50

>  <pValue>
6.82

>  <Ligand Efficiency>
0

>  <Binding Efficiency>
0

>  <Surface Efficiency>
0

>  <Assay Index>
1043649

>  <Assay Category>


>  <Assay Organism>
Homo sapiens

>  <Target ID>
17045

>  <Target Name>
Cytochrome P450 3A4

>  <Target Organism>
Homo sapiens

>  <Target Description>
Target is a single protein chain

>  <Sequence Accession>
P08684

>  <Reference>
Bioorg Med Chem Lett 26 (23), 5825-5829 (2016)

>  <Pubmed ID>
27789139

>  <DOI>
10.1016/j.bmcl.2016.10.016

$$$$
2190260
Actelion Java MolfileCreator 1.0

 41 45  0  0  0  0  0  0  0  0999 V2000
    0.0000   -0.0000   -0.0000 Cl  0  0  0  0  0  0  0  0  0  0  0  0
   -1.3059   -0.7479   -0.0000 C   0  0  0  0  0  0  0  0  0  0  0  0
   -2.6000   -0.0119   -0.0000 C   0  0  0  0  0  0  0  0  0  0  0  0
   -1.3178   -2.2319   -0.0000 C   0  0  0  0  0  0  0  0  0  0  0  0
   -3.9177   -0.7598   -0.0000 C   0  0  0  0  0  0  0  0  0  0  0  0
   -2.6118    1.4840   -0.0000 C   0  0  0  0  0  0  0  0  0  0  0  0
   -2.6356   -2.9799   -0.0000 C   0  0  0  0  0  0  0  0  0  0  0  0
   -3.9296   -2.2082   -0.0000 C   0  0  0  0  0  0  0  0  0  0  0  0
   -1.1753    1.2109   -0.0000 O   0  0  0  0  0  0  0  0  0  0  0  0
   -2.8255    2.9799   -0.0000 O   0  0  0  0  0  0  0  0  0  0  0  0
   -4.1196    1.3178   -0.0000 C   0  0  0  0  0  0  0  0  0  0  0  0
   -2.6356   -4.4638   -0.0000 Cl  0  0  0  0  0  0  0  0  0  0  0  0
   -0.4511    2.5406   -0.0000 C   0  0  0  0  0  0  0  0  0  0  0  0
   -1.4959    3.6447   -0.0000 C   0  0  0  0  0  0  0  0  0  0  0  0
   -5.0574    2.5050   -0.0000 N   0  0  0  0  0  0  0  0  0  0  0  0
    0.8310    3.3360   -0.0000 C   0  0  0  0  0  0  0  0  0  0  0  0
   -4.6301    3.9415   -0.0000 C   0  0  0  0  0  0  0  0  0  0  0  0
   -6.5533    2.4694   -0.0000 C   0  0  0  0  0  0  0  0  0  0  0  0
    0.7954    4.8556   -0.0000 O   0  0  0  0  0  0  0  0  0  0  0  0
   -5.8766    4.8319   -0.0000 N   0  0  0  0  0  0  0  0  0  0  0  0
   -7.0757    3.8940   -0.0000 C   0  0  0  0  0  0  0  0  0  0  0  0
    2.0657    5.6392   -0.0000 C   0  0  0  0  0  0  0  0  0  0  0  0
    3.3598    4.9269   -0.0000 C   0  0  0  0  0  0  0  0  0  0  0  0
    2.0064    7.1588   -0.0000 C   0  0  0  0  0  0  0  0  0  0  0  0
    4.6301    5.7104   -0.0000 C   0  0  0  0  0  0  0  0  0  0  0  0
    3.2767    7.9542   -0.0000 C   0  0  0  0  0  0  0  0  0  0  0  0
    4.5944    7.2300   -0.0000 C   0  0  0  0  0  0  0  0  0  0  0  0
    5.8529    8.0373   -0.0000 N   0  0  0  0  0  0  0  0  0  0  0  0
    5.8054    9.5450   -0.0000 C   0  0  0  0  0  0  0  0  0  0  0  0
    7.1469    7.3250   -0.0000 C   0  0  0  0  0  0  0  0  0  0  0  0
    7.0757   10.3286   -0.0000 C   0  0  0  0  0  0  0  0  0  0  0  0
    8.4053    8.1204   -0.0000 C   0  0  0  0  0  0  0  0  0  0  0  0
    8.3816    9.6281   -0.0000 N   0  0  0  0  0  0  0  0  0  0  0  0
    9.6519   10.4117   -0.0000 S   0  0  0  0  0  0  0  0  0  0  0  0
    8.8921   11.7176   -0.0000 O   0  0  0  0  0  0  0  0  0  0  0  0
   10.3879   11.7295   -0.0000 O   0  0  0  0  0  0  0  0  0  0  0  0
   10.9341    9.6756   -0.0000 C   0  0  0  0  0  0  0  0  0  0  0  0
   12.2162   10.4354   -0.0000 S   0  0  0  0  0  0  0  0  0  0  0  0
   11.4564   11.7413   -0.0000 O   0  0  0  0  0  0  0  0  0  0  0  0
   12.9523   11.7532   -0.0000 O   0  0  0  0  0  0  0  0  0  0  0  0
   13.4984    9.6994   -0.0000 C   0  0  0  0  0  0  0  0  0  0  0  0
  1  2  1  0  0  0  0
  2  3  2  0  0  0  0
  2  4  1  0  0  0  0
  3  5  1  0  0  0  0
  3  6  1  0  0  0  0
  4  7  2  0  0  0  0
  5  8  2  0  0  0  0
  6  9  1  0  0  0  0
  6 10  1  0  0  0  0
  6 11  1  6  0  0  0
  7 12  1  0  0  0  0
  9 13  1  0  0  0  0
 10 14  1  0  0  0  0
 11 15  1  0  0  0  0
 13 16  1  6  0  0  0
 15 17  1  0  0  0  0
 15 18  1  0  0  0  0
 16 19  1  0  0  0  0
 17 20  2  0  0  0  0
 18 21  2  0  0  0  0
 19 22  1  0  0  0  0
 22 23  2  0  0  0  0
 22 24  1  0  0  0  0
 23 25  1  0  0  0  0
 24 26  2  0  0  0  0
 25 27  2  0  0  0  0
 27 28  1  0  0  0  0
 28 29  1  0  0  0  0
 28 30  1  0  0  0  0
 29 31  1  0  0  0  0
 30 32  1  0  0  0  0
 31 33  1  0  0  0  0
 33 34  1  0  0  0  0
 34 35  2  0  0  0  0
 34 36  2  0  0  0  0
 34 37  1  0  0  0  0
 37 38  1  0  0  0  0
 38 39  2  0  0  0  0
 38 40  2  0  0  0  0
 38 41  1  0  0  0  0
  7  8  1  0  0  0  0
 13 14  1  0  0  0  0
 20 21  1  0  0  0  0
 26 27  1  0  0  0  0
 32 33  1  0  0  0  0
M  END
>  <MolRegNo>
2190260

>  <m>
=

>  <Value>
151

>  <Unit>
nM

>  <Type>
IC50

>  <pValue>
6.82

>  <Ligand Efficiency>
0

>  <Binding Efficiency>
0

>  <Surface Efficiency>
0

>  <Assay Index>
1043649

>  <Assay Category>


>  <Assay Organism>
Homo sapiens

>  <Target ID>
17045

>  <Target Name>
Cytochrome P450 3A4

>  <Target Organism>
Homo sapiens

>  <Target Description>
Target is a single protein chain

>  <Sequence Accession>
P08684

>  <Reference>
Bioorg Med Chem Lett 26 (23), 5825-5829 (2016)

>  <Pubmed ID>
27789139

>  <DOI>
10.1016/j.bmcl.2016.10.016

$$$$
2170095
Actelion Java MolfileCreator 1.0

 41 46  0  0  0  0  0  0  0  0999 V2000
    0.0000   -0.0000   -0.0000 Cl  0  0  0  0  0  0  0  0  0  0  0  0
   -1.3074   -0.7488   -0.0000 C   0  0  0  0  0  0  0  0  0  0  0  0
   -2.6029   -0.0119   -0.0000 C   0  0  0  0  0  0  0  0  0  0  0  0
   -1.3193   -2.2345   -0.0000 C   0  0  0  0  0  0  0  0  0  0  0  0
   -3.9222   -0.7607   -0.0000 C   0  0  0  0  0  0  0  0  0  0  0  0
   -2.6148    1.4857   -0.0000 C   0  0  0  0  0  0  0  0  0  0  0  0
   -2.6386   -2.9832   -0.0000 C   0  0  0  0  0  0  0  0  0  0  0  0
   -3.9341   -2.2107   -0.0000 C   0  0  0  0  0  0  0  0  0  0  0  0
   -1.1767    1.2123   -0.0000 O   0  0  0  0  0  0  0  0  0  0  0  0
   -2.8287    2.9832   -0.0000 O   0  0  0  0  0  0  0  0  0  0  0  0
   -4.1242    1.3193   -0.0000 C   0  0  0  0  0  0  0  0  0  0  0  0
   -2.6386   -4.4689   -0.0000 Cl  0  0  0  0  0  0  0  0  0  0  0  0
   -0.4516    2.5435   -0.0000 C   0  0  0  0  0  0  0  0  0  0  0  0
   -1.4976    3.6488   -0.0000 C   0  0  0  0  0  0  0  0  0  0  0  0
   -5.0632    2.5078   -0.0000 N   0  0  0  0  0  0  0  0  0  0  0  0
    0.8320    3.3398   -0.0000 C   0  0  0  0  0  0  0  0  0  0  0  0
   -4.6353    3.9460   -0.0000 C   0  0  0  0  0  0  0  0  0  0  0  0
   -6.5608    2.4722   -0.0000 C   0  0  0  0  0  0  0  0  0  0  0  0
    0.7963    4.8611   -0.0000 O   0  0  0  0  0  0  0  0  0  0  0  0
   -5.8833    4.8374   -0.0000 N   0  0  0  0  0  0  0  0  0  0  0  0
   -7.0837    3.8984   -0.0000 C   0  0  0  0  0  0  0  0  0  0  0  0
    2.0681    5.6456   -0.0000 C   0  0  0  0  0  0  0  0  0  0  0  0
    3.3636    4.9325   -0.0000 C   0  0  0  0  0  0  0  0  0  0  0  0
    2.0086    7.1669   -0.0000 C   0  0  0  0  0  0  0  0  0  0  0  0
    4.6353    5.7169   -0.0000 C   0  0  0  0  0  0  0  0  0  0  0  0
    3.2804    7.9632   -0.0000 C   0  0  0  0  0  0  0  0  0  0  0  0
    4.5997    7.2382   -0.0000 C   0  0  0  0  0  0  0  0  0  0  0  0
    5.8595    8.0464   -0.0000 N   0  0  0  0  0  0  0  0  0  0  0  0
    5.8120    9.5559   -0.0000 C   0  0  0  0  0  0  0  0  0  0  0  0
    7.1550    7.3333   -0.0000 C   0  0  0  0  0  0  0  0  0  0  0  0
    7.0837   10.3403   -0.0000 C   0  0  0  0  0  0  0  0  0  0  0  0
    8.4149    8.1296   -0.0000 C   0  0  0  0  0  0  0  0  0  0  0  0
    8.3911    9.6391   -0.0000 N   0  0  0  0  0  0  0  0  0  0  0  0
    9.6629   10.4235   -0.0000 S   0  0  0  0  0  0  0  0  0  0  0  0
    8.9022   11.7309   -0.0000 O   0  0  0  0  0  0  0  0  0  0  0  0
   10.3998   11.7428   -0.0000 O   0  0  0  0  0  0  0  0  0  0  0  0
   10.9465    9.6866   -0.0000 C   0  0  0  0  0  0  0  0  0  0  0  0
   12.3014   10.3047   -0.0000 S   0  0  0  0  0  0  0  0  0  0  0  0
   11.0891    8.2128   -0.0000 C   0  0  0  0  0  0  0  0  0  0  0  0
   13.2879    9.2112   -0.0000 C   0  0  0  0  0  0  0  0  0  0  0  0
   12.5391    7.9157   -0.0000 C   0  0  0  0  0  0  0  0  0  0  0  0
  1  2  1  0  0  0  0
  2  3  2  0  0  0  0
  2  4  1  0  0  0  0
  3  5  1  0  0  0  0
  3  6  1  0  0  0  0
  4  7  2  0  0  0  0
  5  8  2  0  0  0  0
  6  9  1  0  0  0  0
  6 10  1  0  0  0  0
  6 11  1  6  0  0  0
  7 12  1  0  0  0  0
  9 13  1  0  0  0  0
 10 14  1  0  0  0  0
 11 15  1  0  0  0  0
 13 16  1  6  0  0  0
 15 17  1  0  0  0  0
 15 18  1  0  0  0  0
 16 19  1  0  0  0  0
 17 20  2  0  0  0  0
 18 21  2  0  0  0  0
 19 22  1  0  0  0  0
 22 23  2  0  0  0  0
 22 24  1  0  0  0  0
 23 25  1  0  0  0  0
 24 26  2  0  0  0  0
 25 27  2  0  0  0  0
 27 28  1  0  0  0  0
 28 29  1  0  0  0  0
 28 30  1  0  0  0  0
 29 31  1  0  0  0  0
 30 32  1  0  0  0  0
 31 33  1  0  0  0  0
 33 34  1  0  0  0  0
 34 35  2  0  0  0  0
 34 36  2  0  0  0  0
 34 37  1  0  0  0  0
 37 38  1  0  0  0  0
 37 39  2  0  0  0  0
 38 40  1  0  0  0  0
 39 41  1  0  0  0  0
  7  8  1  0  0  0  0
 13 14  1  0  0  0  0
 20 21  1  0  0  0  0
 26 27  1  0  0  0  0
 32 33  1  0  0  0  0
 40 41  2  0  0  0  0
M  END
>  <MolRegNo>
2170095

>  <m>
=

>  <Value>
87

>  <Unit>
nM

>  <Type>
IC50

>  <pValue>
7.06

>  <Ligand Efficiency>
0

>  <Binding Efficiency>
0

>  <Surface Efficiency>
0

>  <Assay Index>
1043649

>  <Assay Category>


>  <Assay Organism>
Homo sapiens

>  <Target ID>
17045

>  <Target Name>
Cytochrome P450 3A4

>  <Target Organism>
Homo sapiens

>  <Target Description>
Target is a single protein chain

>  <Sequence Accession>
P08684

>  <Reference>
Bioorg Med Chem Lett 26 (23), 5825-5829 (2016)

>  <Pubmed ID>
27789139

>  <DOI>
10.1016/j.bmcl.2016.10.016

$$$$
2101089
Actelion Java MolfileCreator 1.0

 42 47  0  0  0  0  0  0  0  0999 V2000
    0.0000   -0.0000   -0.0000 Cl  0  0  0  0  0  0  0  0  0  0  0  0
   -1.3072   -0.7368   -0.0000 C   0  0  0  0  0  0  0  0  0  0  0  0
   -2.6026   -0.0000   -0.0000 C   0  0  0  0  0  0  0  0  0  0  0  0
   -1.3191   -2.2223   -0.0000 C   0  0  0  0  0  0  0  0  0  0  0  0
   -3.9217   -0.7487   -0.0000 C   0  0  0  0  0  0  0  0  0  0  0  0
   -2.6144    1.4974   -0.0000 C   0  0  0  0  0  0  0  0  0  0  0  0
   -2.6382   -2.9710   -0.0000 C   0  0  0  0  0  0  0  0  0  0  0  0
   -3.9336   -2.1985   -0.0000 C   0  0  0  0  0  0  0  0  0  0  0  0
   -1.1765    1.2240   -0.0000 O   0  0  0  0  0  0  0  0  0  0  0  0
   -2.8284    2.9947   -0.0000 O   0  0  0  0  0  0  0  0  0  0  0  0
   -4.1356    1.3310   -0.0000 C   0  0  0  0  0  0  0  0  0  0  0  0
   -2.6382   -4.4564   -0.0000 Cl  0  0  0  0  0  0  0  0  0  0  0  0
   -0.4516    2.5550   -0.0000 C   0  0  0  0  0  0  0  0  0  0  0  0
   -1.4974    3.6602   -0.0000 C   0  0  0  0  0  0  0  0  0  0  0  0
   -5.0744    2.5194   -0.0000 N   0  0  0  0  0  0  0  0  0  0  0  0
    0.8319    3.3512   -0.0000 C   0  0  0  0  0  0  0  0  0  0  0  0
   -4.6466    3.9573   -0.0000 C   0  0  0  0  0  0  0  0  0  0  0  0
   -6.5718    2.4837   -0.0000 C   0  0  0  0  0  0  0  0  0  0  0  0
    0.7962    4.8724   -0.0000 O   0  0  0  0  0  0  0  0  0  0  0  0
   -5.8944    4.8486   -0.0000 N   0  0  0  0  0  0  0  0  0  0  0  0
   -7.0947    3.9098   -0.0000 C   0  0  0  0  0  0  0  0  0  0  0  0
    2.0678    5.6567   -0.0000 C   0  0  0  0  0  0  0  0  0  0  0  0
    3.3631    4.9437   -0.0000 C   0  0  0  0  0  0  0  0  0  0  0  0
    2.0084    7.1779   -0.0000 C   0  0  0  0  0  0  0  0  0  0  0  0
    4.6347    5.7280   -0.0000 C   0  0  0  0  0  0  0  0  0  0  0  0
    3.2799    7.9741   -0.0000 C   0  0  0  0  0  0  0  0  0  0  0  0
    4.5991    7.2492   -0.0000 C   0  0  0  0  0  0  0  0  0  0  0  0
    5.8587    8.0573   -0.0000 N   0  0  0  0  0  0  0  0  0  0  0  0
    5.8112    9.5665   -0.0000 C   0  0  0  0  0  0  0  0  0  0  0  0
    7.1541    7.3442   -0.0000 C   0  0  0  0  0  0  0  0  0  0  0  0
    7.0828   10.3508   -0.0000 C   0  0  0  0  0  0  0  0  0  0  0  0
    8.4138    8.1404   -0.0000 C   0  0  0  0  0  0  0  0  0  0  0  0
    8.3900    9.6497   -0.0000 N   0  0  0  0  0  0  0  0  0  0  0  0
    9.6616   10.4340   -0.0000 S   0  0  0  0  0  0  0  0  0  0  0  0
    8.9010   11.7413   -0.0000 O   0  0  0  0  0  0  0  0  0  0  0  0
   10.3984   11.7531   -0.0000 O   0  0  0  0  0  0  0  0  0  0  0  0
   10.9450    9.6972   -0.0000 C   0  0  0  0  0  0  0  0  0  0  0  0
   11.0876    8.2236   -0.0000 N   0  0  0  0  0  0  0  0  0  0  0  0
   12.2998   10.3152   -0.0000 N   0  0  0  0  0  0  0  0  0  0  0  0
   12.5375    7.9265   -0.0000 C   0  0  0  0  0  0  0  0  0  0  0  0
   13.2862    9.2219   -0.0000 C   0  0  0  0  0  0  0  0  0  0  0  0
   12.5969   11.7888   -0.0000 C   0  0  0  0  0  0  0  0  0  0  0  0
  1  2  1  0  0  0  0
  2  3  2  0  0  0  0
  2  4  1  0  0  0  0
  3  5  1  0  0  0  0
  3  6  1  0  0  0  0
  4  7  2  0  0  0  0
  5  8  2  0  0  0  0
  6  9  1  0  0  0  0
  6 10  1  0  0  0  0
  6 11  1  6  0  0  0
  7 12  1  0  0  0  0
  9 13  1  0  0  0  0
 10 14  1  0  0  0  0
 11 15  1  0  0  0  0
 13 16  1  6  0  0  0
 15 17  1  0  0  0  0
 15 18  1  0  0  0  0
 16 19  1  0  0  0  0
 17 20  2  0  0  0  0
 18 21  2  0  0  0  0
 19 22  1  0  0  0  0
 22 23  2  0  0  0  0
 22 24  1  0  0  0  0
 23 25  1  0  0  0  0
 24 26  2  0  0  0  0
 25 27  2  0  0  0  0
 27 28  1  0  0  0  0
 28 29  1  0  0  0  0
 28 30  1  0  0  0  0
 29 31  1  0  0  0  0
 30 32  1  0  0  0  0
 31 33  1  0  0  0  0
 33 34  1  0  0  0  0
 34 35  2  0  0  0  0
 34 36  2  0  0  0  0
 34 37  1  0  0  0  0
 37 38  2  0  0  0  0
 37 39  1  0  0  0  0
 38 40  1  0  0  0  0
 39 41  1  0  0  0  0
 39 42  1  0  0  0  0
  7  8  1  0  0  0  0
 13 14  1  0  0  0  0
 20 21  1  0  0  0  0
 26 27  1  0  0  0  0
 32 33  1  0  0  0  0
 40 41  2  0  0  0  0
M  END
>  <MolRegNo>
2101089

>  <m>
=

>  <Value>
145

>  <Unit>
nM

>  <Type>
IC50

>  <pValue>
6.84

>  <Ligand Efficiency>
0

>  <Binding Efficiency>
0

>  <Surface Efficiency>
0

>  <Assay Index>
1043649

>  <Assay Category>


>  <Assay Organism>
Homo sapiens

>  <Target ID>
17045

>  <Target Name>
Cytochrome P450 3A4

>  <Target Organism>
Homo sapiens

>  <Target Description>
Target is a single protein chain

>  <Sequence Accession>
P08684

>  <Reference>
Bioorg Med Chem Lett 26 (23), 5825-5829 (2016)

>  <Pubmed ID>
27789139

>  <DOI>
10.1016/j.bmcl.2016.10.016

$$$$
6514
Actelion Java MolfileCreator 1.0

 36 40  0  0  1  0  0  0  0  0999 V2000
    0.0000   -0.0000   -0.0000 Cl  0  0  0  0  0  0  0  0  0  0  0  0
    1.2137   -0.1335   -0.0000 C   0  0  0  0  0  0  0  0  0  0  0  0
    1.8085   -1.5415   -0.0000 C   0  0  0  0  0  0  0  0  0  0  0  0
    2.1240    1.1166   -0.0000 C   0  0  0  0  0  0  0  0  0  0  0  0
    3.3257   -1.7114   -0.0000 C   0  0  0  0  0  0  0  0  0  0  0  0
    0.8860   -2.7552   -0.0000 C   0  0  0  0  0  0  0  0  0  0  0  0
    3.6412    0.9467   -0.0000 C   0  0  0  0  0  0  0  0  0  0  0  0
    4.2360   -0.4612   -0.0000 C   0  0  0  0  0  0  0  0  0  0  0  0
    2.3789   -3.0586   -0.0000 O   0  0  0  0  0  0  0  0  0  0  0  0
    0.1092   -4.0782   -0.0000 O   0  0  0  0  0  0  0  0  0  0  0  0
   -0.6433   -2.6095   -0.0000 C   0  0  0  0  0  0  0  0  0  0  0  0
    4.3695    1.9420   -0.0000 Cl  0  0  0  0  0  0  0  0  0  0  0  0
    2.5124   -4.5637   -0.0000 C   0  0  0  0  0  0  0  0  0  0  0  0
    1.1288   -5.2070   -0.0000 C   0  0  0  0  0  0  0  0  0  0  0  0
   -1.5657   -3.8476   -0.0000 N   0  0  0  0  0  0  0  0  0  0  0  0
    3.8354   -5.3162   -0.0000 C   0  0  0  0  0  0  0  0  0  0  0  0
   -1.0681   -5.2798   -0.0000 C   0  0  0  0  0  0  0  0  0  0  0  0
   -3.1072   -3.8354   -0.0000 C   0  0  0  0  0  0  0  0  0  0  0  0
    5.1584   -4.5273   -0.0000 O   0  0  0  0  0  0  0  0  0  0  0  0
   -2.3182   -6.1901   -0.0000 N   0  0  0  0  0  0  0  0  0  0  0  0
   -3.5684   -5.2919   -0.0000 C   0  0  0  0  0  0  0  0  0  0  0  0
    6.4814   -5.2798   -0.0000 C   0  0  0  0  0  0  0  0  0  0  0  0
    7.8044   -4.4908   -0.0000 C   0  0  0  0  0  0  0  0  0  0  0  0
    6.4692   -6.8091   -0.0000 C   0  0  0  0  0  0  0  0  0  0  0  0
    9.1273   -5.2434   -0.0000 C   0  0  0  0  0  0  0  0  0  0  0  0
    7.7922   -7.5616   -0.0000 C   0  0  0  0  0  0  0  0  0  0  0  0
    9.1152   -6.7727   -0.0000 C   0  0  0  0  0  0  0  0  0  0  0  0
   10.4382   -7.5373   -0.0000 N   0  0  0  0  0  0  0  0  0  0  0  0
   11.7612   -6.7605   -0.0000 C   0  0  0  0  0  0  0  0  0  0  0  0
   10.4260   -9.0666   -0.0000 C   0  0  0  0  0  0  0  0  0  0  0  0
   13.0841   -7.5131   -0.0000 C   0  0  0  0  0  0  0  0  0  0  0  0
   11.7490   -9.8192   -0.0000 C   0  0  0  0  0  0  0  0  0  0  0  0
   13.0720   -9.0424   -0.0000 N   0  0  0  0  0  0  0  0  0  0  0  0
   14.3950   -9.8070   -0.0000 C   0  0  0  0  0  0  0  0  0  0  0  0
   14.3828  -11.0329   -0.0000 O   0  0  0  0  0  0  0  0  0  0  0  0
   15.4509   -9.1759   -0.0000 C   0  0  0  0  0  0  0  0  0  0  0  0
  1  2  1  0  0  0  0
  2  3  2  0  0  0  0
  2  4  1  0  0  0  0
  3  5  1  0  0  0  0
  3  6  1  0  0  0  0
  4  7  2  0  0  0  0
  5  8  2  0  0  0  0
  6  9  1  0  0  0  0
  6 10  1  0  0  0  0
  6 11  1  1  0  0  0
  7 12  1  0  0  0  0
  9 13  1  0  0  0  0
 10 14  1  0  0  0  0
 11 15  1  0  0  0  0
 13 16  1  1  0  0  0
 15 17  1  0  0  0  0
 15 18  1  0  0  0  0
 16 19  1  0  0  0  0
 17 20  2  0  0  0  0
 18 21  2  0  0  0  0
 19 22  1  0  0  0  0
 22 23  2  0  0  0  0
 22 24  1  0  0  0  0
 23 25  1  0  0  0  0
 24 26  2  0  0  0  0
 25 27  2  0  0  0  0
 27 28  1  0  0  0  0
 28 29  1  0  0  0  0
 28 30  1  0  0  0  0
 29 31  1  0  0  0  0
 30 32  1  0  0  0  0
 31 33  1  0  0  0  0
 33 34  1  0  0  0  0
 34 35  2  0  0  0  0
 34 36  1  0  0  0  0
  7  8  1  0  0  0  0
 13 14  1  0  0  0  0
 20 21  1  0  0  0  0
 26 27  1  0  0  0  0
 32 33  1  0  0  0  0
M  END
>  <MolRegNo>
6514

>  <m>
=

>  <Value>
136

>  <Unit>
nM

>  <Type>
IC50

>  <pValue>
6.87

>  <Ligand Efficiency>
0

>  <Binding Efficiency>
0

>  <Surface Efficiency>
0

>  <Assay Index>
1043649

>  <Assay Category>


>  <Assay Organism>
Homo sapiens

>  <Target ID>
17045

>  <Target Name>
Cytochrome P450 3A4

>  <Target Organism>
Homo sapiens

>  <Target Description>
Target is a single protein chain

>  <Sequence Accession>
P08684

>  <Reference>
Bioorg Med Chem Lett 26 (23), 5825-5829 (2016)

>  <Pubmed ID>
27789139

>  <DOI>
10.1016/j.bmcl.2016.10.016

$$$$
2119243
Actelion Java MolfileCreator 1.0

 27 28  0  0  0  0  0  0  0  0999 V2000
    0.0000   -0.0000   -0.0000 Cl  0  0  0  0  0  0  0  0  0  0  0  0
   -0.7232   -1.3159   -0.0000 C   0  0  0  0  0  0  0  0  0  0  0  0
    0.0593   -2.5726   -0.0000 C   0  0  0  0  0  0  0  0  0  0  0  0
   -2.2288   -1.3515   -0.0000 C   0  0  0  0  0  0  0  0  0  0  0  0
    1.5412   -2.5133   -0.0000 C   0  0  0  0  0  0  0  0  0  0  0  0
   -0.6639   -3.9004   -0.0000 C   0  0  0  0  0  0  0  0  0  0  0  0
   -2.9519   -2.6674   -0.0000 C   0  0  0  0  0  0  0  0  0  0  0  0
    2.2288   -1.1737   -0.0000 C   0  0  0  0  0  0  0  0  0  0  0  0
    2.3236   -3.7818   -0.0000 C   0  0  0  0  0  0  0  0  0  0  0  0
   -2.1814   -3.9359   -0.0000 C   0  0  0  0  0  0  0  0  0  0  0  0
    3.7107   -1.1025   -0.0000 C   0  0  0  0  0  0  0  0  0  0  0  0
    3.8174   -3.7225   -0.0000 C   0  0  0  0  0  0  0  0  0  0  0  0
   -2.9045   -5.2519   -0.0000 O   0  0  0  0  0  0  0  0  0  0  0  0
    4.5050   -2.3710   -0.0000 C   0  0  0  0  0  0  0  0  0  0  0  0
    4.3983    0.2371   -0.0000 C   0  0  0  0  0  0  0  0  0  0  0  0
    4.5998   -4.9910   -0.0000 C   0  0  0  0  0  0  0  0  0  0  0  0
   -4.4220   -5.2874   -0.0000 C   0  0  0  0  0  0  0  0  0  0  0  0
    5.9987   -2.2999   -0.0000 O   0  0  0  0  0  0  0  0  0  0  0  0
   -5.8091   -5.3230   -0.0000 F   0  0  0  0  0  0  0  0  0  0  0  0
   -5.4653   -4.0900   -0.0000 F   0  0  0  0  0  0  0  0  0  0  0  0
   -5.3941   -6.5322   -0.0000 F   0  0  0  0  0  0  0  0  0  0  0  0
    6.7812   -3.5566   -0.0000 C   0  0  0  0  0  0  0  0  0  0  0  0
    8.2749   -3.4854   -0.0000 C   0  0  0  0  0  0  0  0  0  0  0  0
    9.0574   -4.7421   -0.0000 C   0  0  0  0  0  0  0  0  0  0  0  0
   10.5511   -4.6710   -0.0000 C   0  0  0  0  0  0  0  0  0  0  0  0
   11.2506   -3.3313   -0.0000 O   0  0  0  0  0  0  0  0  0  0  0  0
   11.3454   -5.9395   -0.0000 O   0  0  0  0  0  0  0  0  0  0  0  0
  1  2  1  0  0  0  0
  2  3  2  0  0  0  0
  2  4  1  0  0  0  0
  3  5  1  0  0  0  0
  3  6  1  0  0  0  0
  4  7  2  0  0  0  0
  5  8  2  0  0  0  0
  5  9  1  0  0  0  0
  6 10  2  0  0  0  0
  8 11  1  0  0  0  0
  9 12  2  0  0  0  0
 10 13  1  0  0  0  0
 11 14  2  0  0  0  0
 11 15  1  0  0  0  0
 12 16  1  0  0  0  0
 13 17  1  0  0  0  0
 14 18  1  0  0  0  0
 17 19  1  0  0  0  0
 17 20  1  0  0  0  0
 17 21  1  0  0  0  0
 18 22  1  0  0  0  0
 22 23  1  0  0  0  0
 23 24  1  0  0  0  0
 24 25  1  0  0  0  0
 25 26  2  0  0  0  0
 25 27  1  0  0  0  0
  7 10  1  0  0  0  0
 12 14  1  0  0  0  0
M  END
>  <MolRegNo>
2119243

>  <m>
=

>  <Value>
3280

>  <Unit>
nM

>  <Type>
IC50

>  <pValue>
5.48

>  <Ligand Efficiency>
0

>  <Binding Efficiency>
0

>  <Surface Efficiency>
0

>  <Assay Index>
1043840

>  <Assay Category>


>  <Assay Organism>
Homo sapiens

>  <Target ID>
17045

>  <Target Name>
Cytochrome P450 3A4

>  <Target Organism>
Homo sapiens

>  <Target Description>
Target is a single protein chain

>  <Sequence Accession>
P08684

>  <Reference>
Bioorg Med Chem Lett 26 (23), 5724-5728 (2016)

>  <Pubmed ID>
27815121

>  <DOI>
10.1016/j.bmcl.2016.10.054

$$$$
2175821
Actelion Java MolfileCreator 1.0

 34 37  0  0  0  0  0  0  0  0999 V2000
    0.0000   -0.0000   -0.0000 Cl  0  0  0  0  0  0  0  0  0  0  0  0
   -0.0119    1.5010   -0.0000 C   0  0  0  0  0  0  0  0  0  0  0  0
   -1.3104    2.2634   -0.0000 C   0  0  0  0  0  0  0  0  0  0  0  0
    1.2746    2.2634   -0.0000 C   0  0  0  0  0  0  0  0  0  0  0  0
   -1.3104    3.7643   -0.0000 C   0  0  0  0  0  0  0  0  0  0  0  0
    1.2627    3.7643   -0.0000 C   0  0  0  0  0  0  0  0  0  0  0  0
   -0.0238    4.5148   -0.0000 C   0  0  0  0  0  0  0  0  0  0  0  0
   -0.0238    6.0158   -0.0000 S   0  0  0  0  0  0  0  0  0  0  0  0
   -1.0959    7.0879   -0.0000 O   0  0  0  0  0  0  0  0  0  0  0  0
   -1.3342    5.2891   -0.0000 O   0  0  0  0  0  0  0  0  0  0  0  0
    0.7267    7.3142   -0.0000 C   0  0  0  0  0  0  0  0  0  0  0  0
   -0.5837    8.0766   -0.0000 C   0  0  0  0  0  0  0  0  0  0  0  0
    2.0251    8.0885   -0.0000 C   0  0  0  0  0  0  0  0  0  0  0  0
    0.7147    5.8252   -0.0000 C   0  0  0  0  0  0  0  0  0  0  0  0
   -0.6075    9.6014   -0.0000 C   0  0  0  0  0  0  0  0  0  0  0  0
   -1.8941    7.3500   -0.0000 C   0  0  0  0  0  0  0  0  0  0  0  0
    3.3236    7.3619   -0.0000 C   0  0  0  0  0  0  0  0  0  0  0  0
    2.0013    9.6133   -0.0000 C   0  0  0  0  0  0  0  0  0  0  0  0
    2.0132    5.0866   -0.0000 C   0  0  0  0  0  0  0  0  0  0  0  0
    0.6790   10.3757   -0.0000 O   0  0  0  0  0  0  0  0  0  0  0  0
   -1.9179   10.3519   -0.0000 C   0  0  0  0  0  0  0  0  0  0  0  0
   -1.9060    5.8728   -0.0000 F   0  0  0  0  0  0  0  0  0  0  0  0
   -3.2044    8.1124   -0.0000 C   0  0  0  0  0  0  0  0  0  0  0  0
    3.3117    5.8609   -0.0000 O   0  0  0  0  0  0  0  0  0  0  0  0
    4.5982    8.1243   -0.0000 C   0  0  0  0  0  0  0  0  0  0  0  0
   -1.9298   11.8529   -0.0000 F   0  0  0  0  0  0  0  0  0  0  0  0
   -3.2164    9.6133   -0.0000 C   0  0  0  0  0  0  0  0  0  0  0  0
    5.8847    7.3976   -0.0000 C   0  0  0  0  0  0  0  0  0  0  0  0
    7.1594    8.1719   -0.0000 S   0  0  0  0  0  0  0  0  0  0  0  0
    6.3970    9.4823   -0.0000 O   0  0  0  0  0  0  0  0  0  0  0  0
    7.8979    9.4823   -0.0000 O   0  0  0  0  0  0  0  0  0  0  0  0
    8.4459    7.4453   -0.0000 C   0  0  0  0  0  0  0  0  0  0  0  0
    9.7206    8.2077   -0.0000 C   0  0  0  0  0  0  0  0  0  0  0  0
   11.0071    7.4810   -0.0000 N   0  0  0  0  0  0  0  0  0  0  0  0
  1  2  1  0  0  0  0
  2  3  2  0  0  0  0
  2  4  1  0  0  0  0
  3  5  1  0  0  0  0
  4  6  2  0  0  0  0
  5  7  2  0  0  0  0
  7  8  1  0  0  0  0
  8  9  2  0  0  0  0
  8 10  2  0  0  0  0
 11  8  1  6  0  0  0
 11 12  1  0  0  0  0
 11 13  1  0  0  0  0
 11 14  1  0  0  0  0
 12 15  2  0  0  0  0
 12 16  1  0  0  0  0
 13 17  1  0  0  0  0
 13 18  1  1  0  0  0
 14 19  1  0  0  0  0
 15 20  1  0  0  0  0
 15 21  1  0  0  0  0
 16 22  1  0  0  0  0
 16 23  2  0  0  0  0
 17 24  1  0  0  0  0
 17 25  1  6  0  0  0
 21 26  1  0  0  0  0
 21 27  2  0  0  0  0
 25 28  1  0  0  0  0
 28 29  1  0  0  0  0
 29 30  2  0  0  0  0
 29 31  2  0  0  0  0
 29 32  1  0  0  0  0
 32 33  1  0  0  0  0
 33 34  1  0  0  0  0
  6  7  1  0  0  0  0
 18 20  1  0  0  0  0
 19 24  1  0  0  0  0
 23 27  1  0  0  0  0
M  END
>  <MolRegNo>
2175821

>  <m>
=

>  <Value>
15100

>  <Unit>
nM

>  <Type>
IC50

>  <pValue>
4.82

>  <Ligand Efficiency>
0

>  <Binding Efficiency>
0

>  <Surface Efficiency>
0

>  <Assay Index>
1044029

>  <Assay Category>


>  <Assay Organism>
Homo sapiens

>  <Target ID>
17045

>  <Target Name>
Cytochrome P450 3A4

>  <Target Organism>
Homo sapiens

>  <Target Description>
Target is a single protein chain

>  <Sequence Accession>
P08684

>  <Reference>
Bioorg Med Chem Lett 26 (23), 5836-5841 (2016)

>  <Pubmed ID>
27836402

>  <DOI>
10.1016/j.bmcl.2016.04.095

$$$$
2191247
Actelion Java MolfileCreator 1.0

 36 40  0  0  0  0  0  0  0  0999 V2000
    0.0000   -0.0000   -0.0000 Cl  0  0  0  0  0  0  0  0  0  0  0  0
   -0.0119    1.5010   -0.0000 C   0  0  0  0  0  0  0  0  0  0  0  0
   -1.3104    2.2754   -0.0000 C   0  0  0  0  0  0  0  0  0  0  0  0
    1.2747    2.2634   -0.0000 C   0  0  0  0  0  0  0  0  0  0  0  0
   -1.3104    3.7764   -0.0000 C   0  0  0  0  0  0  0  0  0  0  0  0
    1.2628    3.7645   -0.0000 C   0  0  0  0  0  0  0  0  0  0  0  0
   -0.0238    4.5269   -0.0000 C   0  0  0  0  0  0  0  0  0  0  0  0
   -0.0238    6.0279   -0.0000 S   0  0  0  0  0  0  0  0  0  0  0  0
   -1.1079    7.1001   -0.0000 O   0  0  0  0  0  0  0  0  0  0  0  0
   -1.3342    5.3012   -0.0000 O   0  0  0  0  0  0  0  0  0  0  0  0
    0.7267    7.3264   -0.0000 C   0  0  0  0  0  0  0  0  0  0  0  0
   -0.5837    8.0888   -0.0000 C   0  0  0  0  0  0  0  0  0  0  0  0
    2.0133    8.1008   -0.0000 C   0  0  0  0  0  0  0  0  0  0  0  0
    0.7267    5.8373   -0.0000 C   0  0  0  0  0  0  0  0  0  0  0  0
   -0.6076    9.6137   -0.0000 C   0  0  0  0  0  0  0  0  0  0  0  0
   -1.8941    7.3622   -0.0000 C   0  0  0  0  0  0  0  0  0  0  0  0
    3.3118    7.3741   -0.0000 C   0  0  0  0  0  0  0  0  0  0  0  0
    1.9894    9.6256   -0.0000 C   0  0  0  0  0  0  0  0  0  0  0  0
    2.0133    5.0987   -0.0000 C   0  0  0  0  0  0  0  0  0  0  0  0
    0.6790   10.3880   -0.0000 O   0  0  0  0  0  0  0  0  0  0  0  0
   -1.9180   10.3642   -0.0000 C   0  0  0  0  0  0  0  0  0  0  0  0
   -1.9061    5.8730   -0.0000 F   0  0  0  0  0  0  0  0  0  0  0  0
   -3.2046    8.1246   -0.0000 C   0  0  0  0  0  0  0  0  0  0  0  0
    3.2999    5.8730   -0.0000 O   0  0  0  0  0  0  0  0  0  0  0  0
    4.5865    8.1365   -0.0000 C   0  0  0  0  0  0  0  0  0  0  0  0
   -1.9299   11.8771   -0.0000 F   0  0  0  0  0  0  0  0  0  0  0  0
   -3.2165    9.6256   -0.0000 C   0  0  0  0  0  0  0  0  0  0  0  0
    5.8730    7.4098   -0.0000 C   0  0  0  0  0  0  0  0  0  0  0  0
    7.1477    8.1722   -0.0000 S   0  0  0  0  0  0  0  0  0  0  0  0
    6.3853    9.4826   -0.0000 O   0  0  0  0  0  0  0  0  0  0  0  0
    7.8863    9.4946   -0.0000 O   0  0  0  0  0  0  0  0  0  0  0  0
    8.4343    7.4455   -0.0000 C   0  0  0  0  0  0  0  0  0  0  0  0
    8.5892    5.9803   -0.0000 C   0  0  0  0  0  0  0  0  0  0  0  0
    9.7805    8.0769   -0.0000 C   0  0  0  0  0  0  0  0  0  0  0  0
   10.0545    5.6586   -0.0000 N   0  0  0  0  0  0  0  0  0  0  0  0
   10.7812    6.9809   -0.0000 C   0  0  0  0  0  0  0  0  0  0  0  0
  1  2  1  0  0  0  0
  2  3  2  0  0  0  0
  2  4  1  0  0  0  0
  3  5  1  0  0  0  0
  4  6  2  0  0  0  0
  5  7  2  0  0  0  0
  7  8  1  0  0  0  0
  8  9  2  0  0  0  0
  8 10  2  0  0  0  0
 11  8  1  6  0  0  0
 11 12  1  0  0  0  0
 11 13  1  0  0  0  0
 11 14  1  0  0  0  0
 12 15  2  0  0  0  0
 12 16  1  0  0  0  0
 13 17  1  0  0  0  0
 13 18  1  1  0  0  0
 14 19  1  0  0  0  0
 15 20  1  0  0  0  0
 15 21  1  0  0  0  0
 16 22  1  0  0  0  0
 16 23  2  0  0  0  0
 17 24  1  0  0  0  0
 17 25  1  6  0  0  0
 21 26  1  0  0  0  0
 21 27  2  0  0  0  0
 25 28  1  0  0  0  0
 28 29  1  0  0  0  0
 29 30  2  0  0  0  0
 29 31  2  0  0  0  0
 32 29  1  1  0  0  0
 32 33  1  0  0  0  0
 32 34  1  0  0  0  0
 33 35  1  0  0  0  0
 34 36  1  0  0  0  0
  6  7  1  0  0  0  0
 18 20  1  0  0  0  0
 19 24  1  0  0  0  0
 23 27  1  0  0  0  0
 35 36  1  0  0  0  0
M  END
>  <MolRegNo>
2191247

>  <m>
=

>  <Value>
2000

>  <Unit>
nM

>  <Type>
IC50

>  <pValue>
5.7

>  <Ligand Efficiency>
0

>  <Binding Efficiency>
0

>  <Surface Efficiency>
0

>  <Assay Index>
1044029

>  <Assay Category>


>  <Assay Organism>
Homo sapiens

>  <Target ID>
17045

>  <Target Name>
Cytochrome P450 3A4

>  <Target Organism>
Homo sapiens

>  <Target Description>
Target is a single protein chain

>  <Sequence Accession>
P08684

>  <Reference>
Bioorg Med Chem Lett 26 (23), 5836-5841 (2016)

>  <Pubmed ID>
27836402

>  <DOI>
10.1016/j.bmcl.2016.04.095

$$$$
2112285
Actelion Java MolfileCreator 1.0

 36 40  0  0  0  0  0  0  0  0999 V2000
    0.0000   -0.0000   -0.0000 Cl  0  0  0  0  0  0  0  0  0  0  0  0
   -0.0119    1.5010   -0.0000 C   0  0  0  0  0  0  0  0  0  0  0  0
   -1.3104    2.2754   -0.0000 C   0  0  0  0  0  0  0  0  0  0  0  0
    1.2747    2.2634   -0.0000 C   0  0  0  0  0  0  0  0  0  0  0  0
   -1.3104    3.7764   -0.0000 C   0  0  0  0  0  0  0  0  0  0  0  0
    1.2628    3.7645   -0.0000 C   0  0  0  0  0  0  0  0  0  0  0  0
   -0.0238    4.5269   -0.0000 C   0  0  0  0  0  0  0  0  0  0  0  0
   -0.0238    6.0279   -0.0000 S   0  0  0  0  0  0  0  0  0  0  0  0
   -1.1079    7.1001   -0.0000 O   0  0  0  0  0  0  0  0  0  0  0  0
   -1.3342    5.3012   -0.0000 O   0  0  0  0  0  0  0  0  0  0  0  0
    0.7267    7.3264   -0.0000 C   0  0  0  0  0  0  0  0  0  0  0  0
   -0.5837    8.0888   -0.0000 C   0  0  0  0  0  0  0  0  0  0  0  0
    2.0133    8.1008   -0.0000 C   0  0  0  0  0  0  0  0  0  0  0  0
    0.7267    5.8373   -0.0000 C   0  0  0  0  0  0  0  0  0  0  0  0
   -0.6076    9.6137   -0.0000 C   0  0  0  0  0  0  0  0  0  0  0  0
   -1.8941    7.3622   -0.0000 C   0  0  0  0  0  0  0  0  0  0  0  0
    3.3118    7.3741   -0.0000 C   0  0  0  0  0  0  0  0  0  0  0  0
    1.9894    9.6256   -0.0000 C   0  0  0  0  0  0  0  0  0  0  0  0
    2.0133    5.0987   -0.0000 C   0  0  0  0  0  0  0  0  0  0  0  0
    0.6790   10.3880   -0.0000 O   0  0  0  0  0  0  0  0  0  0  0  0
   -1.9180   10.3642   -0.0000 C   0  0  0  0  0  0  0  0  0  0  0  0
   -1.9061    5.8730   -0.0000 F   0  0  0  0  0  0  0  0  0  0  0  0
   -3.2046    8.1246   -0.0000 C   0  0  0  0  0  0  0  0  0  0  0  0
    3.2999    5.8730   -0.0000 O   0  0  0  0  0  0  0  0  0  0  0  0
    4.5865    8.1365   -0.0000 C   0  0  0  0  0  0  0  0  0  0  0  0
   -1.9299   11.8771   -0.0000 F   0  0  0  0  0  0  0  0  0  0  0  0
   -3.2165    9.6256   -0.0000 C   0  0  0  0  0  0  0  0  0  0  0  0
    5.8730    7.4098   -0.0000 C   0  0  0  0  0  0  0  0  0  0  0  0
    7.1477    8.1722   -0.0000 S   0  0  0  0  0  0  0  0  0  0  0  0
    6.3853    9.4826   -0.0000 O   0  0  0  0  0  0  0  0  0  0  0  0
    7.8863    9.4946   -0.0000 O   0  0  0  0  0  0  0  0  0  0  0  0
    8.4343    7.4455   -0.0000 C   0  0  0  0  0  0  0  0  0  0  0  0
    8.5892    5.9803   -0.0000 C   0  0  0  0  0  0  0  0  0  0  0  0
    9.7805    8.0769   -0.0000 C   0  0  0  0  0  0  0  0  0  0  0  0
   10.0545    5.6586   -0.0000 N   0  0  0  0  0  0  0  0  0  0  0  0
   10.7812    6.9809   -0.0000 C   0  0  0  0  0  0  0  0  0  0  0  0
  1  2  1  0  0  0  0
  2  3  2  0  0  0  0
  2  4  1  0  0  0  0
  3  5  1  0  0  0  0
  4  6  2  0  0  0  0
  5  7  2  0  0  0  0
  7  8  1  0  0  0  0
  8  9  2  0  0  0  0
  8 10  2  0  0  0  0
 11  8  1  6  0  0  0
 11 12  1  0  0  0  0
 11 13  1  0  0  0  0
 11 14  1  0  0  0  0
 12 15  2  0  0  0  0
 12 16  1  0  0  0  0
 13 17  1  0  0  0  0
 13 18  1  1  0  0  0
 14 19  1  0  0  0  0
 15 20  1  0  0  0  0
 15 21  1  0  0  0  0
 16 22  1  0  0  0  0
 16 23  2  0  0  0  0
 17 24  1  0  0  0  0
 17 25  1  6  0  0  0
 21 26  1  0  0  0  0
 21 27  2  0  0  0  0
 25 28  1  0  0  0  0
 28 29  1  0  0  0  0
 29 30  2  0  0  0  0
 29 31  2  0  0  0  0
 32 29  1  6  0  0  0
 32 33  1  0  0  0  0
 32 34  1  0  0  0  0
 33 35  1  0  0  0  0
 34 36  1  0  0  0  0
  6  7  1  0  0  0  0
 18 20  1  0  0  0  0
 19 24  1  0  0  0  0
 23 27  1  0  0  0  0
 35 36  1  0  0  0  0
M  END
>  <MolRegNo>
2112285

>  <m>
=

>  <Value>
6100

>  <Unit>
nM

>  <Type>
IC50

>  <pValue>
5.21

>  <Ligand Efficiency>
0

>  <Binding Efficiency>
0

>  <Surface Efficiency>
0

>  <Assay Index>
1044029

>  <Assay Category>


>  <Assay Organism>
Homo sapiens

>  <Target ID>
17045

>  <Target Name>
Cytochrome P450 3A4

>  <Target Organism>
Homo sapiens

>  <Target Description>
Target is a single protein chain

>  <Sequence Accession>
P08684

>  <Reference>
Bioorg Med Chem Lett 26 (23), 5836-5841 (2016)

>  <Pubmed ID>
27836402

>  <DOI>
10.1016/j.bmcl.2016.04.095

$$$$
2125601
Actelion Java MolfileCreator 1.0

 37 41  0  0  0  0  0  0  0  0999 V2000
    0.0000   -0.0000   -0.0000 Cl  0  0  0  0  0  0  0  0  0  0  0  0
   -0.0119    1.5012   -0.0000 C   0  0  0  0  0  0  0  0  0  0  0  0
   -1.3106    2.2756   -0.0000 C   0  0  0  0  0  0  0  0  0  0  0  0
    1.2748    2.2637   -0.0000 C   0  0  0  0  0  0  0  0  0  0  0  0
   -1.3106    3.7768   -0.0000 C   0  0  0  0  0  0  0  0  0  0  0  0
    1.2629    3.7649   -0.0000 C   0  0  0  0  0  0  0  0  0  0  0  0
   -0.0238    4.5274   -0.0000 C   0  0  0  0  0  0  0  0  0  0  0  0
   -0.0238    6.0286   -0.0000 S   0  0  0  0  0  0  0  0  0  0  0  0
   -1.1080    7.1009   -0.0000 O   0  0  0  0  0  0  0  0  0  0  0  0
   -1.3344    5.3019   -0.0000 O   0  0  0  0  0  0  0  0  0  0  0  0
    0.7268    7.3273   -0.0000 C   0  0  0  0  0  0  0  0  0  0  0  0
   -0.5838    8.0898   -0.0000 C   0  0  0  0  0  0  0  0  0  0  0  0
    2.0135    8.1017   -0.0000 C   0  0  0  0  0  0  0  0  0  0  0  0
    0.7268    5.8380   -0.0000 C   0  0  0  0  0  0  0  0  0  0  0  0
   -0.6076    9.6029   -0.0000 C   0  0  0  0  0  0  0  0  0  0  0  0
   -1.8944    7.3630   -0.0000 C   0  0  0  0  0  0  0  0  0  0  0  0
    3.3122    7.3749   -0.0000 C   0  0  0  0  0  0  0  0  0  0  0  0
    1.9897    9.6148   -0.0000 C   0  0  0  0  0  0  0  0  0  0  0  0
    2.0135    5.0993   -0.0000 C   0  0  0  0  0  0  0  0  0  0  0  0
    0.6791   10.3773   -0.0000 O   0  0  0  0  0  0  0  0  0  0  0  0
   -1.9182   10.3535   -0.0000 C   0  0  0  0  0  0  0  0  0  0  0  0
   -1.9063    5.8737   -0.0000 F   0  0  0  0  0  0  0  0  0  0  0  0
   -3.2049    8.1255   -0.0000 C   0  0  0  0  0  0  0  0  0  0  0  0
    3.3003    5.8737   -0.0000 O   0  0  0  0  0  0  0  0  0  0  0  0
    4.5870    8.1375   -0.0000 C   0  0  0  0  0  0  0  0  0  0  0  0
   -1.9301   11.8666   -0.0000 F   0  0  0  0  0  0  0  0  0  0  0  0
   -3.2169    9.6148   -0.0000 C   0  0  0  0  0  0  0  0  0  0  0  0
    5.8737    7.4107   -0.0000 C   0  0  0  0  0  0  0  0  0  0  0  0
    7.1486    8.1732   -0.0000 S   0  0  0  0  0  0  0  0  0  0  0  0
    6.3861    9.4838   -0.0000 O   0  0  0  0  0  0  0  0  0  0  0  0
    7.8873    9.4957   -0.0000 O   0  0  0  0  0  0  0  0  0  0  0  0
    8.4353    7.4464   -0.0000 C   0  0  0  0  0  0  0  0  0  0  0  0
    9.7101    8.2089   -0.0000 C   0  0  0  0  0  0  0  0  0  0  0  0
   11.0684    7.6251   -0.0000 N   0  0  0  0  0  0  0  0  0  0  0  0
    9.8412    9.7221   -0.0000 N   0  0  0  0  0  0  0  0  0  0  0  0
   12.0573    8.7570   -0.0000 C   0  0  0  0  0  0  0  0  0  0  0  0
   11.2947   10.0557   -0.0000 C   0  0  0  0  0  0  0  0  0  0  0  0
  1  2  1  0  0  0  0
  2  3  2  0  0  0  0
  2  4  1  0  0  0  0
  3  5  1  0  0  0  0
  4  6  2  0  0  0  0
  5  7  2  0  0  0  0
  7  8  1  0  0  0  0
  8  9  2  0  0  0  0
  8 10  2  0  0  0  0
 11  8  1  6  0  0  0
 11 12  1  0  0  0  0
 11 13  1  0  0  0  0
 11 14  1  0  0  0  0
 12 15  2  0  0  0  0
 12 16  1  0  0  0  0
 13 17  1  0  0  0  0
 13 18  1  1  0  0  0
 14 19  1  0  0  0  0
 15 20  1  0  0  0  0
 15 21  1  0  0  0  0
 16 22  1  0  0  0  0
 16 23  2  0  0  0  0
 17 24  1  0  0  0  0
 17 25  1  6  0  0  0
 21 26  1  0  0  0  0
 21 27  2  0  0  0  0
 25 28  1  0  0  0  0
 28 29  1  0  0  0  0
 29 30  2  0  0  0  0
 29 31  2  0  0  0  0
 29 32  1  0  0  0  0
 32 33  1  0  0  0  0
 33 34  2  0  0  0  0
 33 35  1  0  0  0  0
 34 36  1  0  0  0  0
 35 37  1  0  0  0  0
  6  7  1  0  0  0  0
 18 20  1  0  0  0  0
 19 24  1  0  0  0  0
 23 27  1  0  0  0  0
 36 37  1  0  0  0  0
M  END
>  <MolRegNo>
2125601

>  <m>
=

>  <Value>
13200

>  <Unit>
nM

>  <Type>
IC50

>  <pValue>
4.88

>  <Ligand Efficiency>
0

>  <Binding Efficiency>
0

>  <Surface Efficiency>
0

>  <Assay Index>
1044029

>  <Assay Category>


>  <Assay Organism>
Homo sapiens

>  <Target ID>
17045

>  <Target Name>
Cytochrome P450 3A4

>  <Target Organism>
Homo sapiens

>  <Target Description>
Target is a single protein chain

>  <Sequence Accession>
P08684

>  <Reference>
Bioorg Med Chem Lett 26 (23), 5836-5841 (2016)

>  <Pubmed ID>
27836402

>  <DOI>
10.1016/j.bmcl.2016.04.095

$$$$
2137641
Actelion Java MolfileCreator 1.0

 36 39  0  0  0  0  0  0  0  0999 V2000
    0.0000   -0.0000   -0.0000 Cl  0  0  0  0  0  0  0  0  0  0  0  0
   -0.0119    1.5018   -0.0000 C   0  0  0  0  0  0  0  0  0  0  0  0
   -1.3111    2.2646   -0.0000 C   0  0  0  0  0  0  0  0  0  0  0  0
    1.2753    2.2646   -0.0000 C   0  0  0  0  0  0  0  0  0  0  0  0
   -1.3111    3.7664   -0.0000 C   0  0  0  0  0  0  0  0  0  0  0  0
    1.2634    3.7664   -0.0000 C   0  0  0  0  0  0  0  0  0  0  0  0
   -0.0238    4.5173   -0.0000 C   0  0  0  0  0  0  0  0  0  0  0  0
   -0.0238    6.0190   -0.0000 S   0  0  0  0  0  0  0  0  0  0  0  0
   -1.0965    7.0917   -0.0000 O   0  0  0  0  0  0  0  0  0  0  0  0
   -1.3349    5.2920   -0.0000 O   0  0  0  0  0  0  0  0  0  0  0  0
    0.7271    7.3182   -0.0000 C   0  0  0  0  0  0  0  0  0  0  0  0
   -0.5840    8.0810   -0.0000 C   0  0  0  0  0  0  0  0  0  0  0  0
    2.0262    8.0929   -0.0000 C   0  0  0  0  0  0  0  0  0  0  0  0
    0.7151    5.8283   -0.0000 C   0  0  0  0  0  0  0  0  0  0  0  0
   -0.6079    9.6066   -0.0000 C   0  0  0  0  0  0  0  0  0  0  0  0
   -1.8951    7.3540   -0.0000 C   0  0  0  0  0  0  0  0  0  0  0  0
    3.3254    7.3659   -0.0000 C   0  0  0  0  0  0  0  0  0  0  0  0
    2.0024    9.6185   -0.0000 C   0  0  0  0  0  0  0  0  0  0  0  0
    2.0143    5.0894   -0.0000 C   0  0  0  0  0  0  0  0  0  0  0  0
    0.6794   10.3814   -0.0000 O   0  0  0  0  0  0  0  0  0  0  0  0
   -1.9189   10.3575   -0.0000 C   0  0  0  0  0  0  0  0  0  0  0  0
   -1.9070    5.8760   -0.0000 F   0  0  0  0  0  0  0  0  0  0  0  0
   -3.2062    8.1168   -0.0000 C   0  0  0  0  0  0  0  0  0  0  0  0
    3.3135    5.8641   -0.0000 O   0  0  0  0  0  0  0  0  0  0  0  0
    4.6007    8.1287   -0.0000 C   0  0  0  0  0  0  0  0  0  0  0  0
   -1.9309   11.8593   -0.0000 F   0  0  0  0  0  0  0  0  0  0  0  0
   -3.2181    9.6185   -0.0000 C   0  0  0  0  0  0  0  0  0  0  0  0
    5.8879    7.4016   -0.0000 C   0  0  0  0  0  0  0  0  0  0  0  0
    7.1633    8.1764   -0.0000 S   0  0  0  0  0  0  0  0  0  0  0  0
    6.4004    9.4874   -0.0000 O   0  0  0  0  0  0  0  0  0  0  0  0
    7.9022    9.4874   -0.0000 O   0  0  0  0  0  0  0  0  0  0  0  0
    8.4505    7.4374   -0.0000 C   0  0  0  0  0  0  0  0  0  0  0  0
    9.7258    8.2002   -0.0000 C   0  0  0  0  0  0  0  0  0  0  0  0
   11.0131    7.4731   -0.0000 N   0  0  0  0  0  0  0  0  0  0  0  0
   12.2884    8.2360   -0.0000 C   0  0  0  0  0  0  0  0  0  0  0  0
   11.0011    5.9952   -0.0000 C   0  0  0  0  0  0  0  0  0  0  0  0
  1  2  1  0  0  0  0
  2  3  2  0  0  0  0
  2  4  1  0  0  0  0
  3  5  1  0  0  0  0
  4  6  2  0  0  0  0
  5  7  2  0  0  0  0
  7  8  1  0  0  0  0
  8  9  2  0  0  0  0
  8 10  2  0  0  0  0
 11  8  1  6  0  0  0
 11 12  1  0  0  0  0
 11 13  1  0  0  0  0
 11 14  1  0  0  0  0
 12 15  2  0  0  0  0
 12 16  1  0  0  0  0
 13 17  1  0  0  0  0
 13 18  1  1  0  0  0
 14 19  1  0  0  0  0
 15 20  1  0  0  0  0
 15 21  1  0  0  0  0
 16 22  1  0  0  0  0
 16 23  2  0  0  0  0
 17 24  1  0  0  0  0
 17 25  1  6  0  0  0
 21 26  1  0  0  0  0
 21 27  2  0  0  0  0
 25 28  1  0  0  0  0
 28 29  1  0  0  0  0
 29 30  2  0  0  0  0
 29 31  2  0  0  0  0
 29 32  1  0  0  0  0
 32 33  1  0  0  0  0
 33 34  1  0  0  0  0
 34 35  1  0  0  0  0
 34 36  1  0  0  0  0
  6  7  1  0  0  0  0
 18 20  1  0  0  0  0
 19 24  1  0  0  0  0
 23 27  1  0  0  0  0
M  END
>  <MolRegNo>
2137641

>  <m>
=

>  <Value>
9000

>  <Unit>
nM

>  <Type>
IC50

>  <pValue>
5.05

>  <Ligand Efficiency>
0

>  <Binding Efficiency>
0

>  <Surface Efficiency>
0

>  <Assay Index>
1044032

>  <Assay Category>


>  <Assay Organism>
Homo sapiens

>  <Target ID>
17045

>  <Target Name>
Cytochrome P450 3A4

>  <Target Organism>
Homo sapiens

>  <Target Description>
Target is a single protein chain

>  <Sequence Accession>
P08684

>  <Reference>
Bioorg Med Chem Lett 26 (23), 5836-5841 (2016)

>  <Pubmed ID>
27836402

>  <DOI>
10.1016/j.bmcl.2016.04.095

$$$$
2113438
Actelion Java MolfileCreator 1.0

 35 38  0  0  0  0  0  0  0  0999 V2000
    0.0000   -0.0000   -0.0000 Cl  0  0  0  0  0  0  0  0  0  0  0  0
   -0.0119    1.5014   -0.0000 C   0  0  0  0  0  0  0  0  0  0  0  0
   -1.3108    2.2640   -0.0000 C   0  0  0  0  0  0  0  0  0  0  0  0
    1.2750    2.2640   -0.0000 C   0  0  0  0  0  0  0  0  0  0  0  0
   -1.3108    3.7654   -0.0000 C   0  0  0  0  0  0  0  0  0  0  0  0
    1.2631    3.7654   -0.0000 C   0  0  0  0  0  0  0  0  0  0  0  0
   -0.0238    4.5162   -0.0000 C   0  0  0  0  0  0  0  0  0  0  0  0
   -0.0238    6.0176   -0.0000 S   0  0  0  0  0  0  0  0  0  0  0  0
   -1.0963    7.0900   -0.0000 O   0  0  0  0  0  0  0  0  0  0  0  0
   -1.3346    5.2907   -0.0000 O   0  0  0  0  0  0  0  0  0  0  0  0
    0.7269    7.3164   -0.0000 C   0  0  0  0  0  0  0  0  0  0  0  0
   -0.5839    8.0790   -0.0000 C   0  0  0  0  0  0  0  0  0  0  0  0
    2.0257    8.0909   -0.0000 C   0  0  0  0  0  0  0  0  0  0  0  0
    0.7150    5.8269   -0.0000 C   0  0  0  0  0  0  0  0  0  0  0  0
   -0.6077    9.6043   -0.0000 C   0  0  0  0  0  0  0  0  0  0  0  0
   -1.8946    7.3522   -0.0000 C   0  0  0  0  0  0  0  0  0  0  0  0
    3.3246    7.3641   -0.0000 C   0  0  0  0  0  0  0  0  0  0  0  0
    2.0019    9.6162   -0.0000 C   0  0  0  0  0  0  0  0  0  0  0  0
    2.0138    5.0881   -0.0000 C   0  0  0  0  0  0  0  0  0  0  0  0
    0.6792   10.3788   -0.0000 O   0  0  0  0  0  0  0  0  0  0  0  0
   -1.9185   10.3550   -0.0000 C   0  0  0  0  0  0  0  0  0  0  0  0
   -1.9066    5.8746   -0.0000 F   0  0  0  0  0  0  0  0  0  0  0  0
   -3.2054    8.1148   -0.0000 C   0  0  0  0  0  0  0  0  0  0  0  0
    3.3126    5.8627   -0.0000 O   0  0  0  0  0  0  0  0  0  0  0  0
    4.5996    8.1267   -0.0000 C   0  0  0  0  0  0  0  0  0  0  0  0
   -1.9304   11.8564   -0.0000 F   0  0  0  0  0  0  0  0  0  0  0  0
   -3.2173    9.6162   -0.0000 C   0  0  0  0  0  0  0  0  0  0  0  0
    5.8865    7.3998   -0.0000 C   0  0  0  0  0  0  0  0  0  0  0  0
    7.1615    8.1744   -0.0000 S   0  0  0  0  0  0  0  0  0  0  0  0
    6.3989    9.4851   -0.0000 O   0  0  0  0  0  0  0  0  0  0  0  0
    7.9003    9.4851   -0.0000 O   0  0  0  0  0  0  0  0  0  0  0  0
    8.4484    7.4356   -0.0000 C   0  0  0  0  0  0  0  0  0  0  0  0
    9.7234    8.1982   -0.0000 C   0  0  0  0  0  0  0  0  0  0  0  0
   11.0104    7.4713   -0.0000 N   0  0  0  0  0  0  0  0  0  0  0  0
   10.9984    5.9937   -0.0000 C   0  0  0  0  0  0  0  0  0  0  0  0
  1  2  1  0  0  0  0
  2  3  2  0  0  0  0
  2  4  1  0  0  0  0
  3  5  1  0  0  0  0
  4  6  2  0  0  0  0
  5  7  2  0  0  0  0
  7  8  1  0  0  0  0
  8  9  2  0  0  0  0
  8 10  2  0  0  0  0
 11  8  1  6  0  0  0
 11 12  1  0  0  0  0
 11 13  1  0  0  0  0
 11 14  1  0  0  0  0
 12 15  2  0  0  0  0
 12 16  1  0  0  0  0
 13 17  1  0  0  0  0
 13 18  1  1  0  0  0
 14 19  1  0  0  0  0
 15 20  1  0  0  0  0
 15 21  1  0  0  0  0
 16 22  1  0  0  0  0
 16 23  2  0  0  0  0
 17 24  1  0  0  0  0
 17 25  1  6  0  0  0
 21 26  1  0  0  0  0
 21 27  2  0  0  0  0
 25 28  1  0  0  0  0
 28 29  1  0  0  0  0
 29 30  2  0  0  0  0
 29 31  2  0  0  0  0
 29 32  1  0  0  0  0
 32 33  1  0  0  0  0
 33 34  1  0  0  0  0
 34 35  1  0  0  0  0
  6  7  1  0  0  0  0
 18 20  1  0  0  0  0
 19 24  1  0  0  0  0
 23 27  1  0  0  0  0
M  END
>  <MolRegNo>
2113438

>  <m>
=

>  <Value>
8400

>  <Unit>
nM

>  <Type>
IC50

>  <pValue>
5.08

>  <Ligand Efficiency>
0

>  <Binding Efficiency>
0

>  <Surface Efficiency>
0

>  <Assay Index>
1044032

>  <Assay Category>


>  <Assay Organism>
Homo sapiens

>  <Target ID>
17045

>  <Target Name>
Cytochrome P450 3A4

>  <Target Organism>
Homo sapiens

>  <Target Description>
Target is a single protein chain

>  <Sequence Accession>
P08684

>  <Reference>
Bioorg Med Chem Lett 26 (23), 5836-5841 (2016)

>  <Pubmed ID>
27836402

>  <DOI>
10.1016/j.bmcl.2016.04.095

$$$$
2184335
Actelion Java MolfileCreator 1.0

 36 39  0  0  0  0  0  0  0  0999 V2000
    0.0000   -0.0000   -0.0000 Cl  0  0  0  0  0  0  0  0  0  0  0  0
   -0.0119    1.5021   -0.0000 C   0  0  0  0  0  0  0  0  0  0  0  0
   -1.3114    2.2651   -0.0000 C   0  0  0  0  0  0  0  0  0  0  0  0
    1.2756    2.2651   -0.0000 C   0  0  0  0  0  0  0  0  0  0  0  0
   -1.3114    3.7672   -0.0000 C   0  0  0  0  0  0  0  0  0  0  0  0
    1.2637    3.7672   -0.0000 C   0  0  0  0  0  0  0  0  0  0  0  0
   -0.0238    4.5183   -0.0000 C   0  0  0  0  0  0  0  0  0  0  0  0
   -0.0238    6.0204   -0.0000 S   0  0  0  0  0  0  0  0  0  0  0  0
   -1.0968    7.0934   -0.0000 O   0  0  0  0  0  0  0  0  0  0  0  0
   -1.3352    5.2932   -0.0000 O   0  0  0  0  0  0  0  0  0  0  0  0
    0.7272    7.3199   -0.0000 C   0  0  0  0  0  0  0  0  0  0  0  0
   -0.5842    8.0829   -0.0000 C   0  0  0  0  0  0  0  0  0  0  0  0
    2.0267    8.0948   -0.0000 C   0  0  0  0  0  0  0  0  0  0  0  0
    0.7153    5.8297   -0.0000 C   0  0  0  0  0  0  0  0  0  0  0  0
   -0.6080    9.6089   -0.0000 C   0  0  0  0  0  0  0  0  0  0  0  0
   -1.8955    7.3557   -0.0000 C   0  0  0  0  0  0  0  0  0  0  0  0
    3.3261    7.3676   -0.0000 C   0  0  0  0  0  0  0  0  0  0  0  0
    2.0028    9.6208   -0.0000 C   0  0  0  0  0  0  0  0  0  0  0  0
    2.0148    5.0905   -0.0000 C   0  0  0  0  0  0  0  0  0  0  0  0
    0.6795   10.3838   -0.0000 O   0  0  0  0  0  0  0  0  0  0  0  0
   -1.9194   10.3599   -0.0000 C   0  0  0  0  0  0  0  0  0  0  0  0
   -1.9075    5.8774   -0.0000 F   0  0  0  0  0  0  0  0  0  0  0  0
   -3.2069    8.1187   -0.0000 C   0  0  0  0  0  0  0  0  0  0  0  0
    3.3142    5.8655   -0.0000 O   0  0  0  0  0  0  0  0  0  0  0  0
    4.6018    8.1306   -0.0000 C   0  0  0  0  0  0  0  0  0  0  0  0
   -1.9313   11.8621   -0.0000 F   0  0  0  0  0  0  0  0  0  0  0  0
   -3.2188    9.6208   -0.0000 C   0  0  0  0  0  0  0  0  0  0  0  0
    5.8893    7.4034   -0.0000 C   0  0  0  0  0  0  0  0  0  0  0  0
    7.1649    8.1783   -0.0000 S   0  0  0  0  0  0  0  0  0  0  0  0
    6.4019    9.4896   -0.0000 O   0  0  0  0  0  0  0  0  0  0  0  0
    7.9041    9.4896   -0.0000 O   0  0  0  0  0  0  0  0  0  0  0  0
    8.4525    7.4510   -0.0000 C   0  0  0  0  0  0  0  0  0  0  0  0
    9.7281    8.2140   -0.0000 C   0  0  0  0  0  0  0  0  0  0  0  0
   11.0156    7.4868   -0.0000 N   0  0  0  0  0  0  0  0  0  0  0  0
   11.0037    6.0085   -0.0000 C   0  0  0  0  0  0  0  0  0  0  0  0
   12.2912    5.2813   -0.0000 C   0  0  0  0  0  0  0  0  0  0  0  0
  1  2  1  0  0  0  0
  2  3  2  0  0  0  0
  2  4  1  0  0  0  0
  3  5  1  0  0  0  0
  4  6  2  0  0  0  0
  5  7  2  0  0  0  0
  7  8  1  0  0  0  0
  8  9  2  0  0  0  0
  8 10  2  0  0  0  0
 11  8  1  6  0  0  0
 11 12  1  0  0  0  0
 11 13  1  0  0  0  0
 11 14  1  0  0  0  0
 12 15  2  0  0  0  0
 12 16  1  0  0  0  0
 13 17  1  0  0  0  0
 13 18  1  1  0  0  0
 14 19  1  0  0  0  0
 15 20  1  0  0  0  0
 15 21  1  0  0  0  0
 16 22  1  0  0  0  0
 16 23  2  0  0  0  0
 17 24  1  0  0  0  0
 17 25  1  6  0  0  0
 21 26  1  0  0  0  0
 21 27  2  0  0  0  0
 25 28  1  0  0  0  0
 28 29  1  0  0  0  0
 29 30  2  0  0  0  0
 29 31  2  0  0  0  0
 29 32  1  0  0  0  0
 32 33  1  0  0  0  0
 33 34  1  0  0  0  0
 34 35  1  0  0  0  0
 35 36  1  0  0  0  0
  6  7  1  0  0  0  0
 18 20  1  0  0  0  0
 19 24  1  0  0  0  0
 23 27  1  0  0  0  0
M  END
>  <MolRegNo>
2184335

>  <m>
=

>  <Value>
1400

>  <Unit>
nM

>  <Type>
IC50

>  <pValue>
5.85

>  <Ligand Efficiency>
0

>  <Binding Efficiency>
0

>  <Surface Efficiency>
0

>  <Assay Index>
1044032

>  <Assay Category>


>  <Assay Organism>
Homo sapiens

>  <Target ID>
17045

>  <Target Name>
Cytochrome P450 3A4

>  <Target Organism>
Homo sapiens

>  <Target Description>
Target is a single protein chain

>  <Sequence Accession>
P08684

>  <Reference>
Bioorg Med Chem Lett 26 (23), 5836-5841 (2016)

>  <Pubmed ID>
27836402

>  <DOI>
10.1016/j.bmcl.2016.04.095

$$$$
2102227
Actelion Java MolfileCreator 1.0

 37 41  0  0  0  0  0  0  0  0999 V2000
    0.0000   -0.0000   -0.0000 Cl  0  0  0  0  0  0  0  0  0  0  0  0
   -0.0119    1.5011   -0.0000 C   0  0  0  0  0  0  0  0  0  0  0  0
   -1.3105    2.2635   -0.0000 C   0  0  0  0  0  0  0  0  0  0  0  0
    1.2747    2.2635   -0.0000 C   0  0  0  0  0  0  0  0  0  0  0  0
   -1.3105    3.7646   -0.0000 C   0  0  0  0  0  0  0  0  0  0  0  0
    1.2628    3.7646   -0.0000 C   0  0  0  0  0  0  0  0  0  0  0  0
   -0.0238    4.5152   -0.0000 C   0  0  0  0  0  0  0  0  0  0  0  0
   -0.0238    6.0163   -0.0000 S   0  0  0  0  0  0  0  0  0  0  0  0
   -1.0960    7.0885   -0.0000 O   0  0  0  0  0  0  0  0  0  0  0  0
   -1.3343    5.2895   -0.0000 O   0  0  0  0  0  0  0  0  0  0  0  0
    0.7267    7.3148   -0.0000 C   0  0  0  0  0  0  0  0  0  0  0  0
   -0.5838    8.0773   -0.0000 C   0  0  0  0  0  0  0  0  0  0  0  0
    2.0253    8.0892   -0.0000 C   0  0  0  0  0  0  0  0  0  0  0  0
    0.7148    5.8256   -0.0000 C   0  0  0  0  0  0  0  0  0  0  0  0
   -0.6076    9.6022   -0.0000 C   0  0  0  0  0  0  0  0  0  0  0  0
   -1.8942    7.3506   -0.0000 C   0  0  0  0  0  0  0  0  0  0  0  0
    3.3238    7.3625   -0.0000 C   0  0  0  0  0  0  0  0  0  0  0  0
    2.0014    9.6141   -0.0000 C   0  0  0  0  0  0  0  0  0  0  0  0
    2.0134    5.0870   -0.0000 C   0  0  0  0  0  0  0  0  0  0  0  0
    0.6791   10.3766   -0.0000 O   0  0  0  0  0  0  0  0  0  0  0  0
   -1.9181   10.3527   -0.0000 C   0  0  0  0  0  0  0  0  0  0  0  0
   -1.9061    5.8733   -0.0000 F   0  0  0  0  0  0  0  0  0  0  0  0
   -3.2047    8.1130   -0.0000 C   0  0  0  0  0  0  0  0  0  0  0  0
    3.3119    5.8614   -0.0000 O   0  0  0  0  0  0  0  0  0  0  0  0
    4.5986    8.1249   -0.0000 C   0  0  0  0  0  0  0  0  0  0  0  0
   -1.9300   11.8538   -0.0000 F   0  0  0  0  0  0  0  0  0  0  0  0
   -3.2166    9.6141   -0.0000 C   0  0  0  0  0  0  0  0  0  0  0  0
    5.8852    7.3982   -0.0000 C   0  0  0  0  0  0  0  0  0  0  0  0
    7.1599    8.1726   -0.0000 S   0  0  0  0  0  0  0  0  0  0  0  0
    6.3975    9.4831   -0.0000 O   0  0  0  0  0  0  0  0  0  0  0  0
    7.8986    9.4831   -0.0000 O   0  0  0  0  0  0  0  0  0  0  0  0
    8.4466    7.4459   -0.0000 C   0  0  0  0  0  0  0  0  0  0  0  0
    9.7213    8.2083   -0.0000 C   0  0  0  0  0  0  0  0  0  0  0  0
   11.0795    7.6127   -0.0000 N   0  0  0  0  0  0  0  0  0  0  0  0
    9.8643    9.7094   -0.0000 C   0  0  0  0  0  0  0  0  0  0  0  0
   12.0683    8.7325   -0.0000 C   0  0  0  0  0  0  0  0  0  0  0  0
   11.3177   10.0311   -0.0000 C   0  0  0  0  0  0  0  0  0  0  0  0
  1  2  1  0  0  0  0
  2  3  2  0  0  0  0
  2  4  1  0  0  0  0
  3  5  1  0  0  0  0
  4  6  2  0  0  0  0
  5  7  2  0  0  0  0
  7  8  1  0  0  0  0
  8  9  2  0  0  0  0
  8 10  2  0  0  0  0
 11  8  1  6  0  0  0
 11 12  1  0  0  0  0
 11 13  1  0  0  0  0
 11 14  1  0  0  0  0
 12 15  2  0  0  0  0
 12 16  1  0  0  0  0
 13 17  1  0  0  0  0
 13 18  1  1  0  0  0
 14 19  1  0  0  0  0
 15 20  1  0  0  0  0
 15 21  1  0  0  0  0
 16 22  1  0  0  0  0
 16 23  2  0  0  0  0
 17 24  1  0  0  0  0
 17 25  1  6  0  0  0
 21 26  1  0  0  0  0
 21 27  2  0  0  0  0
 25 28  1  0  0  0  0
 28 29  1  0  0  0  0
 29 30  2  0  0  0  0
 29 31  2  0  0  0  0
 29 32  1  0  0  0  0
 33 32  1  1  0  0  0
 33 34  1  0  0  0  0
 33 35  1  0  0  0  0
 34 36  1  0  0  0  0
 35 37  1  0  0  0  0
  6  7  1  0  0  0  0
 18 20  1  0  0  0  0
 19 24  1  0  0  0  0
 23 27  1  0  0  0  0
 36 37  1  0  0  0  0
M  END
>  <MolRegNo>
2102227

>  <m>
=

>  <Value>
1000

>  <Unit>
nM

>  <Type>
IC50

>  <pValue>
6

>  <Ligand Efficiency>
0

>  <Binding Efficiency>
0

>  <Surface Efficiency>
0

>  <Assay Index>
1044032

>  <Assay Category>


>  <Assay Organism>
Homo sapiens

>  <Target ID>
17045

>  <Target Name>
Cytochrome P450 3A4

>  <Target Organism>
Homo sapiens

>  <Target Description>
Target is a single protein chain

>  <Sequence Accession>
P08684

>  <Reference>
Bioorg Med Chem Lett 26 (23), 5836-5841 (2016)

>  <Pubmed ID>
27836402

>  <DOI>
10.1016/j.bmcl.2016.04.095

$$$$
2121296
Actelion Java MolfileCreator 1.0

 37 41  0  0  0  0  0  0  0  0999 V2000
    0.0000   -0.0000   -0.0000 Cl  0  0  0  0  0  0  0  0  0  0  0  0
   -0.0119    1.5009   -0.0000 C   0  0  0  0  0  0  0  0  0  0  0  0
   -1.3103    2.2633   -0.0000 C   0  0  0  0  0  0  0  0  0  0  0  0
    1.2746    2.2633   -0.0000 C   0  0  0  0  0  0  0  0  0  0  0  0
   -1.3103    3.7643   -0.0000 C   0  0  0  0  0  0  0  0  0  0  0  0
    1.2627    3.7643   -0.0000 C   0  0  0  0  0  0  0  0  0  0  0  0
   -0.0238    4.5147   -0.0000 C   0  0  0  0  0  0  0  0  0  0  0  0
   -0.0238    6.0157   -0.0000 S   0  0  0  0  0  0  0  0  0  0  0  0
   -1.0959    7.0878   -0.0000 O   0  0  0  0  0  0  0  0  0  0  0  0
   -1.3342    5.2890   -0.0000 O   0  0  0  0  0  0  0  0  0  0  0  0
    0.7266    7.3141   -0.0000 C   0  0  0  0  0  0  0  0  0  0  0  0
   -0.5837    8.0765   -0.0000 C   0  0  0  0  0  0  0  0  0  0  0  0
    2.0251    8.0884   -0.0000 C   0  0  0  0  0  0  0  0  0  0  0  0
    0.7147    5.8251   -0.0000 C   0  0  0  0  0  0  0  0  0  0  0  0
   -0.6075    9.6013   -0.0000 C   0  0  0  0  0  0  0  0  0  0  0  0
   -1.8940    7.3499   -0.0000 C   0  0  0  0  0  0  0  0  0  0  0  0
    3.3235    7.3618   -0.0000 C   0  0  0  0  0  0  0  0  0  0  0  0
    2.0013    9.6132   -0.0000 C   0  0  0  0  0  0  0  0  0  0  0  0
    2.0132    5.0865   -0.0000 C   0  0  0  0  0  0  0  0  0  0  0  0
    0.6790   10.3756   -0.0000 O   0  0  0  0  0  0  0  0  0  0  0  0
   -1.9179   10.3517   -0.0000 C   0  0  0  0  0  0  0  0  0  0  0  0
   -1.9060    5.8727   -0.0000 F   0  0  0  0  0  0  0  0  0  0  0  0
   -3.2044    8.1122   -0.0000 C   0  0  0  0  0  0  0  0  0  0  0  0
    3.3116    5.8608   -0.0000 O   0  0  0  0  0  0  0  0  0  0  0  0
    4.5981    8.1242   -0.0000 C   0  0  0  0  0  0  0  0  0  0  0  0
   -1.9298   11.8527   -0.0000 F   0  0  0  0  0  0  0  0  0  0  0  0
   -3.2163    9.6132   -0.0000 C   0  0  0  0  0  0  0  0  0  0  0  0
    5.8846    7.3975   -0.0000 C   0  0  0  0  0  0  0  0  0  0  0  0
    7.1593    8.1718   -0.0000 S   0  0  0  0  0  0  0  0  0  0  0  0
    6.3969    9.4821   -0.0000 O   0  0  0  0  0  0  0  0  0  0  0  0
    7.8978    9.4821   -0.0000 O   0  0  0  0  0  0  0  0  0  0  0  0
    8.4458    7.4332   -0.0000 C   0  0  0  0  0  0  0  0  0  0  0  0
    9.7204    8.1956   -0.0000 C   0  0  0  0  0  0  0  0  0  0  0  0
   11.0784    7.6000   -0.0000 N   0  0  0  0  0  0  0  0  0  0  0  0
    9.8633    9.6966   -0.0000 C   0  0  0  0  0  0  0  0  0  0  0  0
   12.0671    8.7198   -0.0000 C   0  0  0  0  0  0  0  0  0  0  0  0
   11.3166   10.0182   -0.0000 C   0  0  0  0  0  0  0  0  0  0  0  0
  1  2  1  0  0  0  0
  2  3  2  0  0  0  0
  2  4  1  0  0  0  0
  3  5  1  0  0  0  0
  4  6  2  0  0  0  0
  5  7  2  0  0  0  0
  7  8  1  0  0  0  0
  8  9  2  0  0  0  0
  8 10  2  0  0  0  0
 11  8  1  6  0  0  0
 11 12  1  0  0  0  0
 11 13  1  0  0  0  0
 11 14  1  0  0  0  0
 12 15  2  0  0  0  0
 12 16  1  0  0  0  0
 13 17  1  0  0  0  0
 13 18  1  1  0  0  0
 14 19  1  0  0  0  0
 15 20  1  0  0  0  0
 15 21  1  0  0  0  0
 16 22  1  0  0  0  0
 16 23  2  0  0  0  0
 17 24  1  0  0  0  0
 17 25  1  6  0  0  0
 21 26  1  0  0  0  0
 21 27  2  0  0  0  0
 25 28  1  0  0  0  0
 28 29  1  0  0  0  0
 29 30  2  0  0  0  0
 29 31  2  0  0  0  0
 29 32  1  0  0  0  0
 33 32  1  6  0  0  0
 33 34  1  0  0  0  0
 33 35  1  0  0  0  0
 34 36  1  0  0  0  0
 35 37  1  0  0  0  0
  6  7  1  0  0  0  0
 18 20  1  0  0  0  0
 19 24  1  0  0  0  0
 23 27  1  0  0  0  0
 36 37  1  0  0  0  0
M  END
>  <MolRegNo>
2121296

>  <m>
=

>  <Value>
1000

>  <Unit>
nM

>  <Type>
IC50

>  <pValue>
6

>  <Ligand Efficiency>
0

>  <Binding Efficiency>
0

>  <Surface Efficiency>
0

>  <Assay Index>
1044032

>  <Assay Category>


>  <Assay Organism>
Homo sapiens

>  <Target ID>
17045

>  <Target Name>
Cytochrome P450 3A4

>  <Target Organism>
Homo sapiens

>  <Target Description>
Target is a single protein chain

>  <Sequence Accession>
P08684

>  <Reference>
Bioorg Med Chem Lett 26 (23), 5836-5841 (2016)

>  <Pubmed ID>
27836402

>  <DOI>
10.1016/j.bmcl.2016.04.095

$$$$
2122151
Actelion Java MolfileCreator 1.0

 33 38  0  0  0  0  0  0  0  0999 V2000
    0.0000   -0.0000   -0.0000 Cl  0  0  0  0  0  0  0  0  0  0  0  0
    1.2847    0.7734   -0.0000 C   0  0  0  0  0  0  0  0  0  0  0  0
    1.2716    2.2941   -0.0000 C   0  0  0  0  0  0  0  0  0  0  0  0
    2.5825    0.0393   -0.0000 C   0  0  0  0  0  0  0  0  0  0  0  0
    2.5563    3.0545   -0.0000 C   0  0  0  0  0  0  0  0  0  0  0  0
    3.8541    0.8128   -0.0000 C   0  0  0  0  0  0  0  0  0  0  0  0
    3.8410    2.3072   -0.0000 C   0  0  0  0  0  0  0  0  0  0  0  0
    5.1257    3.0676   -0.0000 S   0  0  0  0  0  0  0  0  0  0  0  0
    6.5677    2.6874   -0.0000 O   0  0  0  0  0  0  0  0  0  0  0  0
    5.5059    1.6255   -0.0000 O   0  0  0  0  0  0  0  0  0  0  0  0
    5.1257    4.5882   -0.0000 N   0  0  0  0  0  0  0  0  0  0  0  0
    6.4104    5.3486   -0.0000 C   0  0  0  0  0  0  0  0  0  0  0  0
    3.8148    5.3486   -0.0000 C   0  0  0  0  0  0  0  0  0  0  0  0
    7.6951    4.6145   -0.0000 C   0  0  0  0  0  0  0  0  0  0  0  0
    6.3973    6.8693   -0.0000 C   0  0  0  0  0  0  0  0  0  0  0  0
    2.5039    4.6014   -0.0000 C   0  0  0  0  0  0  0  0  0  0  0  0
    3.8017    6.8693   -0.0000 C   0  0  0  0  0  0  0  0  0  0  0  0
    8.4293    3.3298   -0.0000 C   0  0  0  0  0  0  0  0  0  0  0  0
    6.9348    3.3298   -0.0000 C   0  0  0  0  0  0  0  0  0  0  0  0
    8.9930    5.3748   -0.0000 C   0  0  0  0  0  0  0  0  0  0  0  0
    5.0864    7.6427   -0.0000 O   0  0  0  0  0  0  0  0  0  0  0  0
    0.9832    4.6145   -0.0000 C   0  0  0  0  0  0  0  0  0  0  0  0
    1.7435    3.3035   -0.0000 C   0  0  0  0  0  0  0  0  0  0  0  0
   10.2777    4.6276   -0.0000 C   0  0  0  0  0  0  0  0  0  0  0  0
   10.2646    3.1331   -0.0000 O   0  0  0  0  0  0  0  0  0  0  0  0
   11.5755    5.3879   -0.0000 N   0  0  0  0  0  0  0  0  0  0  0  0
   12.7422    5.0340   -0.0000 C   0  0  0  0  0  0  0  0  0  0  0  0
   12.3751    4.1032   -0.0000 C   0  0  0  0  0  0  0  0  0  0  0  0
   14.3940    5.7287   -0.0000 C   0  0  0  0  0  0  0  0  0  0  0  0
   13.9351    4.7849   -0.0000 C   0  0  0  0  0  0  0  0  0  0  0  0
   15.1805    4.4440   -0.0000 N   0  0  0  0  0  0  0  0  0  0  0  0
   14.7741    7.3281   -0.0000 C   0  0  0  0  0  0  0  0  0  0  0  0
   13.9745    6.2400   -0.0000 C   0  0  0  0  0  0  0  0  0  0  0  0
  1  2  1  0  0  0  0
  2  3  2  0  0  0  0
  2  4  1  0  0  0  0
  3  5  1  0  0  0  0
  4  6  2  0  0  0  0
  5  7  2  0  0  0  0
  7  8  1  0  0  0  0
  8  9  2  0  0  0  0
  8 10  2  0  0  0  0
  8 11  1  0  0  0  0
 11 12  1  0  0  0  0
 11 13  1  0  0  0  0
 12 14  1  1  0  0  0
 12 15  1  0  0  0  0
 13 16  1  1  0  0  0
 13 17  1  0  0  0  0
 14 18  1  0  0  0  0
 14 19  1  0  0  0  0
 14 20  1  0  0  0  0
 15 21  1  0  0  0  0
 16 22  1  0  0  0  0
 16 23  1  0  0  0  0
 20 24  1  0  0  0  0
 24 25  2  0  0  0  0
 24 26  1  0  0  0  0
 26 27  1  0  0  0  0
 26 28  1  0  0  0  0
 27 29  1  0  0  0  0
 28 30  1  0  0  0  0
 29 31  1  0  0  0  0
 29 32  1  0  0  0  0
 30 33  1  0  0  0  0
  6  7  1  0  0  0  0
 17 21  1  0  0  0  0
 18 19  1  0  0  0  0
 22 23  1  0  0  0  0
 30 31  1  0  0  0  0
 32 33  1  0  0  0  0
M  END
>  <MolRegNo>
2122151

>  <m>
=

>  <Value>
9900

>  <Unit>
nM

>  <Type>
IC50

>  <pValue>
5

>  <Ligand Efficiency>
0

>  <Binding Efficiency>
0

>  <Surface Efficiency>
0

>  <Assay Index>
1046095

>  <Assay Category>


>  <Assay Organism>
Homo sapiens

>  <Target ID>
17045

>  <Target Name>
Cytochrome P450 3A4

>  <Target Organism>
Homo sapiens

>  <Target Description>
Target is a single protein chain

>  <Sequence Accession>
P08684

>  <Reference>


>  <Pubmed ID>
27560281

>  <DOI>
10.1016/j.ejmech.2016.08.024

$$$$
2188682
Actelion Java MolfileCreator 1.0

 36 41  0  0  0  0  0  0  0  0999 V2000
    0.0000   -0.0000   -0.0000 Cl  0  0  0  0  0  0  0  0  0  0  0  0
    1.2898    0.7684   -0.0000 C   0  0  0  0  0  0  0  0  0  0  0  0
    1.2761    2.2778   -0.0000 C   0  0  0  0  0  0  0  0  0  0  0  0
    2.5797    0.0412   -0.0000 C   0  0  0  0  0  0  0  0  0  0  0  0
    2.5659    3.0462   -0.0000 C   0  0  0  0  0  0  0  0  0  0  0  0
    3.8558    0.8096   -0.0000 C   0  0  0  0  0  0  0  0  0  0  0  0
    3.8558    2.3052   -0.0000 C   0  0  0  0  0  0  0  0  0  0  0  0
    5.1456    3.0736   -0.0000 S   0  0  0  0  0  0  0  0  0  0  0  0
    6.5864    2.7032   -0.0000 O   0  0  0  0  0  0  0  0  0  0  0  0
    5.5161    1.6329   -0.0000 O   0  0  0  0  0  0  0  0  0  0  0  0
    5.1319    4.5967   -0.0000 N   0  0  0  0  0  0  0  0  0  0  0  0
    6.4217    5.3514   -0.0000 C   0  0  0  0  0  0  0  0  0  0  0  0
    3.8146    5.3514   -0.0000 C   0  0  0  0  0  0  0  0  0  0  0  0
    7.7115    4.6105   -0.0000 C   0  0  0  0  0  0  0  0  0  0  0  0
    6.4080    6.8745   -0.0000 C   0  0  0  0  0  0  0  0  0  0  0  0
    2.4973    4.6105   -0.0000 C   0  0  0  0  0  0  0  0  0  0  0  0
    3.8009    6.8745   -0.0000 C   0  0  0  0  0  0  0  0  0  0  0  0
    8.4388    3.3206   -0.0000 C   0  0  0  0  0  0  0  0  0  0  0  0
    6.9431    3.3343   -0.0000 C   0  0  0  0  0  0  0  0  0  0  0  0
    9.0014    5.3789   -0.0000 C   0  0  0  0  0  0  0  0  0  0  0  0
    5.0907    7.6429   -0.0000 O   0  0  0  0  0  0  0  0  0  0  0  0
    0.9742    4.6242   -0.0000 C   0  0  0  0  0  0  0  0  0  0  0  0
    1.7289    3.3206   -0.0000 C   0  0  0  0  0  0  0  0  0  0  0  0
   10.2912    4.6379   -0.0000 C   0  0  0  0  0  0  0  0  0  0  0  0
   10.2775    3.1422   -0.0000 O   0  0  0  0  0  0  0  0  0  0  0  0
   11.5810    5.4063   -0.0000 N   0  0  0  0  0  0  0  0  0  0  0  0
   12.6925    5.9415   -0.0000 C   0  0  0  0  0  0  0  0  0  0  0  0
   12.1985    6.8196   -0.0000 C   0  0  0  0  0  0  0  0  0  0  0  0
   14.4214    5.5024   -0.0000 C   0  0  0  0  0  0  0  0  0  0  0  0
   13.8314    6.3805   -0.0000 C   0  0  0  0  0  0  0  0  0  0  0  0
   15.0251    6.9157   -0.0000 N   0  0  0  0  0  0  0  0  0  0  0  0
   15.0114    4.0067   -0.0000 C   0  0  0  0  0  0  0  0  0  0  0  0
   14.0646    4.9672   -0.0000 C   0  0  0  0  0  0  0  0  0  0  0  0
   16.4659    6.5452   -0.0000 C   0  0  0  0  0  0  0  0  0  0  0  0
   16.8501    5.1044   -0.0000 O   0  0  0  0  0  0  0  0  0  0  0  0
   17.5088    7.6292   -0.0000 C   0  0  0  0  0  0  0  0  0  0  0  0
  1  2  1  0  0  0  0
  2  3  2  0  0  0  0
  2  4  1  0  0  0  0
  3  5  1  0  0  0  0
  4  6  2  0  0  0  0
  5  7  2  0  0  0  0
  7  8  1  0  0  0  0
  8  9  2  0  0  0  0
  8 10  2  0  0  0  0
  8 11  1  0  0  0  0
 11 12  1  0  0  0  0
 11 13  1  0  0  0  0
 12 14  1  1  0  0  0
 12 15  1  0  0  0  0
 13 16  1  1  0  0  0
 13 17  1  0  0  0  0
 14 18  1  0  0  0  0
 14 19  1  0  0  0  0
 14 20  1  0  0  0  0
 15 21  1  0  0  0  0
 16 22  1  0  0  0  0
 16 23  1  0  0  0  0
 20 24  1  0  0  0  0
 24 25  2  0  0  0  0
 24 26  1  0  0  0  0
 26 27  1  0  0  0  0
 26 28  1  0  0  0  0
 27 29  1  0  0  0  0
 28 30  1  0  0  0  0
 29 31  1  0  0  0  0
 29 32  1  0  0  0  0
 30 33  1  0  0  0  0
 31 34  1  0  0  0  0
 34 35  2  0  0  0  0
 34 36  1  0  0  0  0
  6  7  1  0  0  0  0
 17 21  1  0  0  0  0
 18 19  1  0  0  0  0
 22 23  1  0  0  0  0
 30 31  1  0  0  0  0
 32 33  1  0  0  0  0
M  END
>  <MolRegNo>
2188682

>  <m>
=

>  <Value>
30000

>  <Unit>
nM

>  <Type>
IC50

>  <pValue>
4.52

>  <Ligand Efficiency>
0

>  <Binding Efficiency>
0

>  <Surface Efficiency>
0

>  <Assay Index>
1046095

>  <Assay Category>


>  <Assay Organism>
Homo sapiens

>  <Target ID>
17045

>  <Target Name>
Cytochrome P450 3A4

>  <Target Organism>
Homo sapiens

>  <Target Description>
Target is a single protein chain

>  <Sequence Accession>
P08684

>  <Reference>


>  <Pubmed ID>
27560281

>  <DOI>
10.1016/j.ejmech.2016.08.024

$$$$
2108224
Actelion Java MolfileCreator 1.0

 34 38  0  0  0  0  0  0  0  0999 V2000
    0.0000   -0.0000   -0.0000 S   0  0  0  0  0  0  0  0  0  0  0  0
    1.4342   -0.3793   -0.0000 O   0  0  0  0  0  0  0  0  0  0  0  0
    0.3793   -1.4342   -0.0000 O   0  0  0  0  0  0  0  0  0  0  0  0
    0.0000    1.5172   -0.0000 N   0  0  0  0  0  0  0  0  0  0  0  0
   -1.3039   -0.7349   -0.0000 C   0  0  0  0  0  0  0  0  0  0  0  0
    1.2802    2.2758   -0.0000 C   0  0  0  0  0  0  0  0  0  0  0  0
   -1.3039    2.2758   -0.0000 C   0  0  0  0  0  0  0  0  0  0  0  0
   -2.6077    0.0356   -0.0000 C   0  0  0  0  0  0  0  0  0  0  0  0
   -1.3039   -2.2047   -0.0000 C   0  0  0  0  0  0  0  0  0  0  0  0
    2.5722    1.5409   -0.0000 C   0  0  0  0  0  0  0  0  0  0  0  0
    1.2683    3.7930   -0.0000 C   0  0  0  0  0  0  0  0  0  0  0  0
   -2.6196    1.5291   -0.0000 C   0  0  0  0  0  0  0  0  0  0  0  0
   -1.3157    3.7930   -0.0000 C   0  0  0  0  0  0  0  0  0  0  0  0
   -3.9116   -0.6993   -0.0000 C   0  0  0  0  0  0  0  0  0  0  0  0
   -2.6077   -2.9515   -0.0000 C   0  0  0  0  0  0  0  0  0  0  0  0
    3.3071    0.2608   -0.0000 C   0  0  0  0  0  0  0  0  0  0  0  0
    1.8135    0.2608   -0.0000 C   0  0  0  0  0  0  0  0  0  0  0  0
    3.8642    2.2995   -0.0000 C   0  0  0  0  0  0  0  0  0  0  0  0
   -0.0356    4.5635   -0.0000 O   0  0  0  0  0  0  0  0  0  0  0  0
   -4.1368    1.5409   -0.0000 C   0  0  0  0  0  0  0  0  0  0  0  0
   -3.3782    0.2371   -0.0000 C   0  0  0  0  0  0  0  0  0  0  0  0
   -3.9234   -2.1810   -0.0000 C   0  0  0  0  0  0  0  0  0  0  0  0
    5.1562    1.5528   -0.0000 C   0  0  0  0  0  0  0  0  0  0  0  0
   -5.2391   -2.9278   -0.0000 F   0  0  0  0  0  0  0  0  0  0  0  0
    5.1443    0.0593   -0.0000 O   0  0  0  0  0  0  0  0  0  0  0  0
    6.4482    2.3114   -0.0000 N   0  0  0  0  0  0  0  0  0  0  0  0
    7.7283    1.5646   -0.0000 C   0  0  0  0  0  0  0  0  0  0  0  0
    6.4245    3.8286   -0.0000 C   0  0  0  0  0  0  0  0  0  0  0  0
    9.0203    2.3232   -0.0000 C   0  0  0  0  0  0  0  0  0  0  0  0
    7.7165    4.5872   -0.0000 C   0  0  0  0  0  0  0  0  0  0  0  0
    9.0203    3.8405   -0.0000 N   0  0  0  0  0  0  0  0  0  0  0  0
   10.3123    4.5991   -0.0000 C   0  0  0  0  0  0  0  0  0  0  0  0
   10.3123    6.1163   -0.0000 O   0  0  0  0  0  0  0  0  0  0  0  0
   11.5925    3.8523   -0.0000 C   0  0  0  0  0  0  0  0  0  0  0  0
  1  2  2  0  0  0  0
  1  3  2  0  0  0  0
  1  4  1  0  0  0  0
  1  5  1  0  0  0  0
  4  6  1  0  0  0  0
  4  7  1  0  0  0  0
  5  8  2  0  0  0  0
  5  9  1  0  0  0  0
  6 10  1  1  0  0  0
  6 11  1  0  0  0  0
  7 12  1  1  0  0  0
  7 13  1  0  0  0  0
  8 14  1  0  0  0  0
  9 15  2  0  0  0  0
 10 16  1  0  0  0  0
 10 17  1  0  0  0  0
 10 18  1  0  0  0  0
 11 19  1  0  0  0  0
 12 20  1  0  0  0  0
 12 21  1  0  0  0  0
 14 22  2  0  0  0  0
 18 23  1  0  0  0  0
 22 24  1  0  0  0  0
 23 25  2  0  0  0  0
 23 26  1  0  0  0  0
 26 27  1  0  0  0  0
 26 28  1  0  0  0  0
 27 29  1  0  0  0  0
 28 30  1  0  0  0  0
 29 31  1  0  0  0  0
 31 32  1  0  0  0  0
 32 33  2  0  0  0  0
 32 34  1  0  0  0  0
 13 19  1  0  0  0  0
 15 22  1  0  0  0  0
 16 17  1  0  0  0  0
 20 21  1  0  0  0  0
 30 31  1  0  0  0  0
M  END
>  <MolRegNo>
2108224

>  <m>
=

>  <Value>
30000

>  <Unit>
nM

>  <Type>
IC50

>  <pValue>
4.52

>  <Ligand Efficiency>
0

>  <Binding Efficiency>
0

>  <Surface Efficiency>
0

>  <Assay Index>
1046095

>  <Assay Category>


>  <Assay Organism>
Homo sapiens

>  <Target ID>
17045

>  <Target Name>
Cytochrome P450 3A4

>  <Target Organism>
Homo sapiens

>  <Target Description>
Target is a single protein chain

>  <Sequence Accession>
P08684

>  <Reference>


>  <Pubmed ID>
27560281

>  <DOI>
10.1016/j.ejmech.2016.08.024

$$$$
2145211
Actelion Java MolfileCreator 1.0

 33 37  0  0  0  0  0  0  0  0999 V2000
    0.0000   -0.0000   -0.0000 Cl  0  0  0  0  0  0  0  0  0  0  0  0
    1.2946    0.7720   -0.0000 C   0  0  0  0  0  0  0  0  0  0  0  0
    1.2827    2.2804   -0.0000 C   0  0  0  0  0  0  0  0  0  0  0  0
    2.5892    0.0356   -0.0000 C   0  0  0  0  0  0  0  0  0  0  0  0
    2.5654    3.0405   -0.0000 C   0  0  0  0  0  0  0  0  0  0  0  0
    3.8719    0.8076   -0.0000 C   0  0  0  0  0  0  0  0  0  0  0  0
    3.8481    2.3041   -0.0000 C   0  0  0  0  0  0  0  0  0  0  0  0
    5.1308    3.0642   -0.0000 S   0  0  0  0  0  0  0  0  0  0  0  0
    6.5679    2.6961   -0.0000 O   0  0  0  0  0  0  0  0  0  0  0  0
    5.5109    1.6271   -0.0000 O   0  0  0  0  0  0  0  0  0  0  0  0
    5.1190    4.5845   -0.0000 N   0  0  0  0  0  0  0  0  0  0  0  0
    6.4135    5.3446   -0.0000 C   0  0  0  0  0  0  0  0  0  0  0  0
    3.8125    5.3446   -0.0000 C   0  0  0  0  0  0  0  0  0  0  0  0
    7.6962    4.6082   -0.0000 C   0  0  0  0  0  0  0  0  0  0  0  0
    6.4017    6.8649   -0.0000 C   0  0  0  0  0  0  0  0  0  0  0  0
    3.8006    6.8649   -0.0000 C   0  0  0  0  0  0  0  0  0  0  0  0
    2.3635    4.8933   -0.0000 C   0  0  0  0  0  0  0  0  0  0  0  0
    8.4326    3.3137   -0.0000 C   0  0  0  0  0  0  0  0  0  0  0  0
    6.9361    3.3255   -0.0000 C   0  0  0  0  0  0  0  0  0  0  0  0
    8.9908    5.3684   -0.0000 C   0  0  0  0  0  0  0  0  0  0  0  0
    5.0833    7.6250   -0.0000 O   0  0  0  0  0  0  0  0  0  0  0  0
    2.3516    7.3399   -0.0000 C   0  0  0  0  0  0  0  0  0  0  0  0
    1.4727    6.1166   -0.0000 C   0  0  0  0  0  0  0  0  0  0  0  0
   10.2735    4.6320   -0.0000 C   0  0  0  0  0  0  0  0  0  0  0  0
   10.2617    3.1355   -0.0000 O   0  0  0  0  0  0  0  0  0  0  0  0
   11.5681    5.3921   -0.0000 N   0  0  0  0  0  0  0  0  0  0  0  0
   12.8508    4.6558   -0.0000 C   0  0  0  0  0  0  0  0  0  0  0  0
   11.5444    6.9124   -0.0000 C   0  0  0  0  0  0  0  0  0  0  0  0
   14.1335    5.4040   -0.0000 C   0  0  0  0  0  0  0  0  0  0  0  0
   12.8508    7.6725   -0.0000 C   0  0  0  0  0  0  0  0  0  0  0  0
   14.1335    6.9242   -0.0000 C   0  0  0  0  0  0  0  0  0  0  0  0
   15.4281    7.6844   -0.0000 C   0  0  0  0  0  0  0  0  0  0  0  0
   16.7108    6.9361   -0.0000 O   0  0  0  0  0  0  0  0  0  0  0  0
  1  2  1  0  0  0  0
  2  3  2  0  0  0  0
  2  4  1  0  0  0  0
  3  5  1  0  0  0  0
  4  6  2  0  0  0  0
  5  7  2  0  0  0  0
  7  8  1  0  0  0  0
  8  9  2  0  0  0  0
  8 10  2  0  0  0  0
  8 11  1  0  0  0  0
 11 12  1  0  0  0  0
 13 11  1  1  0  0  0
 12 14  1  1  0  0  0
 12 15  1  0  0  0  0
 13 16  1  0  0  0  0
 13 17  1  0  0  0  0
 14 18  1  0  0  0  0
 14 19  1  0  0  0  0
 14 20  1  0  0  0  0
 15 21  1  0  0  0  0
 16 22  1  0  0  0  0
 17 23  1  0  0  0  0
 20 24  1  0  0  0  0
 24 25  2  0  0  0  0
 24 26  1  0  0  0  0
 26 27  1  0  0  0  0
 26 28  1  0  0  0  0
 27 29  1  0  0  0  0
 28 30  1  0  0  0  0
 29 31  1  0  0  0  0
 31 32  1  0  0  0  0
 32 33  1  0  0  0  0
  6  7  1  0  0  0  0
 16 21  1  1  0  0  0
 18 19  1  0  0  0  0
 22 23  1  0  0  0  0
 30 31  1  0  0  0  0
M  END
>  <MolRegNo>
2145211

>  <m>
=

>  <Value>
30000

>  <Unit>
nM

>  <Type>
IC50

>  <pValue>
4.52

>  <Ligand Efficiency>
0

>  <Binding Efficiency>
0

>  <Surface Efficiency>
0

>  <Assay Index>
1046095

>  <Assay Category>


>  <Assay Organism>
Homo sapiens

>  <Target ID>
17045

>  <Target Name>
Cytochrome P450 3A4

>  <Target Organism>
Homo sapiens

>  <Target Description>
Target is a single protein chain

>  <Sequence Accession>
P08684

>  <Reference>


>  <Pubmed ID>
27560281

>  <DOI>
10.1016/j.ejmech.2016.08.024

$$$$
2151963
Actelion Java MolfileCreator 1.0

 37 42  0  0  0  0  0  0  0  0999 V2000
    0.0000   -0.0000   -0.0000 Cl  0  0  0  0  0  0  0  0  0  0  0  0
    1.2938    0.7715   -0.0000 C   0  0  0  0  0  0  0  0  0  0  0  0
    1.2819    2.2790   -0.0000 C   0  0  0  0  0  0  0  0  0  0  0  0
    2.5876    0.0356   -0.0000 C   0  0  0  0  0  0  0  0  0  0  0  0
    2.5639    3.0386   -0.0000 C   0  0  0  0  0  0  0  0  0  0  0  0
    3.8695    0.8071   -0.0000 C   0  0  0  0  0  0  0  0  0  0  0  0
    3.8458    2.3027   -0.0000 C   0  0  0  0  0  0  0  0  0  0  0  0
    5.1277    3.0624   -0.0000 S   0  0  0  0  0  0  0  0  0  0  0  0
    6.5639    2.6944   -0.0000 O   0  0  0  0  0  0  0  0  0  0  0  0
    5.5075    1.6261   -0.0000 O   0  0  0  0  0  0  0  0  0  0  0  0
    5.1158    4.5817   -0.0000 N   0  0  0  0  0  0  0  0  0  0  0  0
    6.4096    5.3414   -0.0000 C   0  0  0  0  0  0  0  0  0  0  0  0
    3.8102    5.3414   -0.0000 C   0  0  0  0  0  0  0  0  0  0  0  0
    7.6916    4.6054   -0.0000 C   0  0  0  0  0  0  0  0  0  0  0  0
    6.3978    6.8607   -0.0000 C   0  0  0  0  0  0  0  0  0  0  0  0
    3.7983    6.8607   -0.0000 C   0  0  0  0  0  0  0  0  0  0  0  0
    2.3621    4.8903   -0.0000 C   0  0  0  0  0  0  0  0  0  0  0  0
    8.4275    3.3116   -0.0000 C   0  0  0  0  0  0  0  0  0  0  0  0
    6.9319    3.3235   -0.0000 C   0  0  0  0  0  0  0  0  0  0  0  0
    8.9854    5.3651   -0.0000 C   0  0  0  0  0  0  0  0  0  0  0  0
    5.0802    7.6204   -0.0000 O   0  0  0  0  0  0  0  0  0  0  0  0
    2.3502    7.3355   -0.0000 C   0  0  0  0  0  0  0  0  0  0  0  0
    1.4718    6.1129   -0.0000 C   0  0  0  0  0  0  0  0  0  0  0  0
   10.2673    4.6292   -0.0000 C   0  0  0  0  0  0  0  0  0  0  0  0
   10.2554    3.1336   -0.0000 O   0  0  0  0  0  0  0  0  0  0  0  0
   11.5611    5.3888   -0.0000 N   0  0  0  0  0  0  0  0  0  0  0  0
   12.8430    4.6529   -0.0000 C   0  0  0  0  0  0  0  0  0  0  0  0
   11.5374    6.9082   -0.0000 C   0  0  0  0  0  0  0  0  0  0  0  0
   14.1250    5.4007   -0.0000 C   0  0  0  0  0  0  0  0  0  0  0  0
   12.8430    7.6678   -0.0000 C   0  0  0  0  0  0  0  0  0  0  0  0
   14.1250    6.9200   -0.0000 C   0  0  0  0  0  0  0  0  0  0  0  0
   15.4188    7.6797   -0.0000 N   0  0  0  0  0  0  0  0  0  0  0  0
   15.4069    9.1872   -0.0000 C   0  0  0  0  0  0  0  0  0  0  0  0
   16.7007    6.9200   -0.0000 C   0  0  0  0  0  0  0  0  0  0  0  0
   16.7125    9.9468   -0.0000 C   0  0  0  0  0  0  0  0  0  0  0  0
   17.9945    7.6678   -0.0000 C   0  0  0  0  0  0  0  0  0  0  0  0
   17.9945    9.1990   -0.0000 C   0  0  0  0  0  0  0  0  0  0  0  0
  1  2  1  0  0  0  0
  2  3  2  0  0  0  0
  2  4  1  0  0  0  0
  3  5  1  0  0  0  0
  4  6  2  0  0  0  0
  5  7  2  0  0  0  0
  7  8  1  0  0  0  0
  8  9  2  0  0  0  0
  8 10  2  0  0  0  0
  8 11  1  0  0  0  0
 11 12  1  0  0  0  0
 13 11  1  1  0  0  0
 12 14  1  1  0  0  0
 12 15  1  0  0  0  0
 13 16  1  0  0  0  0
 13 17  1  0  0  0  0
 14 18  1  0  0  0  0
 14 19  1  0  0  0  0
 14 20  1  0  0  0  0
 15 21  1  0  0  0  0
 16 22  1  0  0  0  0
 17 23  1  0  0  0  0
 20 24  1  0  0  0  0
 24 25  2  0  0  0  0
 24 26  1  0  0  0  0
 26 27  1  0  0  0  0
 26 28  1  0  0  0  0
 27 29  1  0  0  0  0
 28 30  1  0  0  0  0
 29 31  1  0  0  0  0
 31 32  1  0  0  0  0
 32 33  1  0  0  0  0
 32 34  1  0  0  0  0
 33 35  1  0  0  0  0
 34 36  1  0  0  0  0
 35 37  1  0  0  0  0
  6  7  1  0  0  0  0
 16 21  1  1  0  0  0
 18 19  1  0  0  0  0
 22 23  1  0  0  0  0
 30 31  1  0  0  0  0
 36 37  1  0  0  0  0
M  END
>  <MolRegNo>
2151963

>  <m>
=

>  <Value>
21000

>  <Unit>
nM

>  <Type>
IC50

>  <pValue>
4.68

>  <Ligand Efficiency>
0

>  <Binding Efficiency>
0

>  <Surface Efficiency>
0

>  <Assay Index>
1046095

>  <Assay Category>


>  <Assay Organism>
Homo sapiens

>  <Target ID>
17045

>  <Target Name>
Cytochrome P450 3A4

>  <Target Organism>
Homo sapiens

>  <Target Description>
Target is a single protein chain

>  <Sequence Accession>
P08684

>  <Reference>


>  <Pubmed ID>
27560281

>  <DOI>
10.1016/j.ejmech.2016.08.024

$$$$
2181560
Actelion Java MolfileCreator 1.0

 36 41  0  0  0  0  0  0  0  0999 V2000
    0.0000   -0.0000   -0.0000 Cl  0  0  0  0  0  0  0  0  0  0  0  0
    1.3000    0.7663   -0.0000 C   0  0  0  0  0  0  0  0  0  0  0  0
    1.2863    2.2853   -0.0000 C   0  0  0  0  0  0  0  0  0  0  0  0
    2.5864    0.0274   -0.0000 C   0  0  0  0  0  0  0  0  0  0  0  0
    2.5727    3.0517   -0.0000 C   0  0  0  0  0  0  0  0  0  0  0  0
    3.8727    0.7937   -0.0000 C   0  0  0  0  0  0  0  0  0  0  0  0
    3.8590    2.3127   -0.0000 C   0  0  0  0  0  0  0  0  0  0  0  0
    5.1454    3.0790   -0.0000 S   0  0  0  0  0  0  0  0  0  0  0  0
    6.5823    2.7095   -0.0000 O   0  0  0  0  0  0  0  0  0  0  0  0
    5.5286    1.6421   -0.0000 O   0  0  0  0  0  0  0  0  0  0  0  0
    5.1317    4.5980   -0.0000 N   0  0  0  0  0  0  0  0  0  0  0  0
    6.4181    5.3643   -0.0000 C   0  0  0  0  0  0  0  0  0  0  0  0
    3.8180    5.3643   -0.0000 C   0  0  0  0  0  0  0  0  0  0  0  0
    7.7044    4.6254   -0.0000 C   0  0  0  0  0  0  0  0  0  0  0  0
    6.4044    6.8833   -0.0000 C   0  0  0  0  0  0  0  0  0  0  0  0
    3.8043    6.8833   -0.0000 C   0  0  0  0  0  0  0  0  0  0  0  0
    2.3674    4.9128   -0.0000 C   0  0  0  0  0  0  0  0  0  0  0  0
    8.4434    3.3390   -0.0000 C   0  0  0  0  0  0  0  0  0  0  0  0
    6.9381    3.3390   -0.0000 C   0  0  0  0  0  0  0  0  0  0  0  0
    9.0044    5.3780   -0.0000 C   0  0  0  0  0  0  0  0  0  0  0  0
    5.0907    7.6497   -0.0000 O   0  0  0  0  0  0  0  0  0  0  0  0
    2.3537    7.3623   -0.0000 C   0  0  0  0  0  0  0  0  0  0  0  0
    1.4779    6.1444   -0.0000 C   0  0  0  0  0  0  0  0  0  0  0  0
   10.2908    4.6391   -0.0000 C   0  0  0  0  0  0  0  0  0  0  0  0
   10.2771    3.1474   -0.0000 O   0  0  0  0  0  0  0  0  0  0  0  0
   11.5771    5.4054   -0.0000 N   0  0  0  0  0  0  0  0  0  0  0  0
   12.6856    5.9391   -0.0000 C   0  0  0  0  0  0  0  0  0  0  0  0
   12.1929    6.8149   -0.0000 C   0  0  0  0  0  0  0  0  0  0  0  0
   14.4098    5.5012   -0.0000 C   0  0  0  0  0  0  0  0  0  0  0  0
   13.8214    6.3770   -0.0000 C   0  0  0  0  0  0  0  0  0  0  0  0
   15.0120    6.9107   -0.0000 N   0  0  0  0  0  0  0  0  0  0  0  0
   14.9983    4.0096   -0.0000 C   0  0  0  0  0  0  0  0  0  0  0  0
   14.0540    4.9675   -0.0000 C   0  0  0  0  0  0  0  0  0  0  0  0
   16.4488    6.5412   -0.0000 C   0  0  0  0  0  0  0  0  0  0  0  0
   16.8320    5.1043   -0.0000 O   0  0  0  0  0  0  0  0  0  0  0  0
   17.4889    7.6223   -0.0000 C   0  0  0  0  0  0  0  0  0  0  0  0
  1  2  1  0  0  0  0
  2  3  2  0  0  0  0
  2  4  1  0  0  0  0
  3  5  1  0  0  0  0
  4  6  2  0  0  0  0
  5  7  2  0  0  0  0
  7  8  1  0  0  0  0
  8  9  2  0  0  0  0
  8 10  2  0  0  0  0
  8 11  1  0  0  0  0
 11 12  1  0  0  0  0
 13 11  1  1  0  0  0
 12 14  1  1  0  0  0
 12 15  1  0  0  0  0
 13 16  1  0  0  0  0
 13 17  1  0  0  0  0
 14 18  1  0  0  0  0
 14 19  1  0  0  0  0
 14 20  1  0  0  0  0
 15 21  1  0  0  0  0
 16 22  1  0  0  0  0
 17 23  1  0  0  0  0
 20 24  1  0  0  0  0
 24 25  2  0  0  0  0
 24 26  1  0  0  0  0
 26 27  1  0  0  0  0
 26 28  1  0  0  0  0
 27 29  1  0  0  0  0
 28 30  1  0  0  0  0
 29 31  1  0  0  0  0
 29 32  1  0  0  0  0
 30 33  1  0  0  0  0
 31 34  1  0  0  0  0
 34 35  2  0  0  0  0
 34 36  1  0  0  0  0
  6  7  1  0  0  0  0
 16 21  1  1  0  0  0
 18 19  1  0  0  0  0
 22 23  1  0  0  0  0
 30 31  1  0  0  0  0
 32 33  1  0  0  0  0
M  END
>  <MolRegNo>
2181560

>  <m>
=

>  <Value>
30000

>  <Unit>
nM

>  <Type>
IC50

>  <pValue>
4.52

>  <Ligand Efficiency>
0

>  <Binding Efficiency>
0

>  <Surface Efficiency>
0

>  <Assay Index>
1046095

>  <Assay Category>


>  <Assay Organism>
Homo sapiens

>  <Target ID>
17045

>  <Target Name>
Cytochrome P450 3A4

>  <Target Organism>
Homo sapiens

>  <Target Description>
Target is a single protein chain

>  <Sequence Accession>
P08684

>  <Reference>


>  <Pubmed ID>
27560281

>  <DOI>
10.1016/j.ejmech.2016.08.024

$$$$
2194230
Actelion Java MolfileCreator 1.0

 32 36  0  0  0  0  0  0  0  0999 V2000
    0.0000   -0.0000   -0.0000 Cl  0  0  0  0  0  0  0  0  0  0  0  0
    1.2939    0.7716   -0.0000 C   0  0  0  0  0  0  0  0  0  0  0  0
    1.2820    2.2792   -0.0000 C   0  0  0  0  0  0  0  0  0  0  0  0
    2.5878    0.0356   -0.0000 C   0  0  0  0  0  0  0  0  0  0  0  0
    2.5641    3.0389   -0.0000 C   0  0  0  0  0  0  0  0  0  0  0  0
    3.8699    0.8072   -0.0000 C   0  0  0  0  0  0  0  0  0  0  0  0
    3.8461    2.3029   -0.0000 C   0  0  0  0  0  0  0  0  0  0  0  0
    5.1282    3.0627   -0.0000 S   0  0  0  0  0  0  0  0  0  0  0  0
    6.5646    2.6947   -0.0000 O   0  0  0  0  0  0  0  0  0  0  0  0
    5.5081    1.6263   -0.0000 O   0  0  0  0  0  0  0  0  0  0  0  0
    5.1163    4.5821   -0.0000 N   0  0  0  0  0  0  0  0  0  0  0  0
    6.4102    5.3419   -0.0000 C   0  0  0  0  0  0  0  0  0  0  0  0
    3.8105    5.3419   -0.0000 C   0  0  0  0  0  0  0  0  0  0  0  0
    7.6923    4.6059   -0.0000 C   0  0  0  0  0  0  0  0  0  0  0  0
    6.3984    6.8613   -0.0000 C   0  0  0  0  0  0  0  0  0  0  0  0
    3.7987    6.8613   -0.0000 C   0  0  0  0  0  0  0  0  0  0  0  0
    2.3623    4.8908   -0.0000 C   0  0  0  0  0  0  0  0  0  0  0  0
    8.4283    3.3120   -0.0000 C   0  0  0  0  0  0  0  0  0  0  0  0
    6.9326    3.3238   -0.0000 C   0  0  0  0  0  0  0  0  0  0  0  0
    8.9981    5.3656   -0.0000 C   0  0  0  0  0  0  0  0  0  0  0  0
    5.0807    7.6211   -0.0000 O   0  0  0  0  0  0  0  0  0  0  0  0
    2.3504    7.3362   -0.0000 C   0  0  0  0  0  0  0  0  0  0  0  0
    1.4720    6.1253   -0.0000 C   0  0  0  0  0  0  0  0  0  0  0  0
   10.2920    4.6296   -0.0000 C   0  0  0  0  0  0  0  0  0  0  0  0
   10.2801    3.1339   -0.0000 O   0  0  0  0  0  0  0  0  0  0  0  0
   11.5859    5.3894   -0.0000 N   0  0  0  0  0  0  0  0  0  0  0  0
   12.9392    4.7958   -0.0000 C   0  0  0  0  0  0  0  0  0  0  0  0
   11.7284    6.9088   -0.0000 C   0  0  0  0  0  0  0  0  0  0  0  0
   13.9363    5.9235   -0.0000 C   0  0  0  0  0  0  0  0  0  0  0  0
   13.1885    7.2293   -0.0000 C   0  0  0  0  0  0  0  0  0  0  0  0
   15.4202    5.7692   -0.0000 C   0  0  0  0  0  0  0  0  0  0  0  0
   16.0137    4.4041   -0.0000 O   0  0  0  0  0  0  0  0  0  0  0  0
  1  2  1  0  0  0  0
  2  3  2  0  0  0  0
  2  4  1  0  0  0  0
  3  5  1  0  0  0  0
  4  6  2  0  0  0  0
  5  7  2  0  0  0  0
  7  8  1  0  0  0  0
  8  9  2  0  0  0  0
  8 10  2  0  0  0  0
  8 11  1  0  0  0  0
 11 12  1  0  0  0  0
 13 11  1  1  0  0  0
 12 14  1  1  0  0  0
 12 15  1  0  0  0  0
 13 16  1  0  0  0  0
 13 17  1  0  0  0  0
 14 18  1  0  0  0  0
 14 19  1  0  0  0  0
 14 20  1  0  0  0  0
 15 21  1  0  0  0  0
 16 22  1  0  0  0  0
 17 23  1  0  0  0  0
 20 24  1  0  0  0  0
 24 25  2  0  0  0  0
 24 26  1  0  0  0  0
 26 27  1  0  0  0  0
 26 28  1  0  0  0  0
 27 29  1  0  0  0  0
 28 30  1  0  0  0  0
 29 31  1  6  0  0  0
 31 32  1  0  0  0  0
  6  7  1  0  0  0  0
 16 21  1  1  0  0  0
 18 19  1  0  0  0  0
 22 23  1  0  0  0  0
 29 30  1  0  0  0  0
M  END
>  <MolRegNo>
2194230

>  <m>
=

>  <Value>
30000

>  <Unit>
nM

>  <Type>
IC50

>  <pValue>
4.52

>  <Ligand Efficiency>
0

>  <Binding Efficiency>
0

>  <Surface Efficiency>
0

>  <Assay Index>
1046095

>  <Assay Category>


>  <Assay Organism>
Homo sapiens

>  <Target ID>
17045

>  <Target Name>
Cytochrome P450 3A4

>  <Target Organism>
Homo sapiens

>  <Target Description>
Target is a single protein chain

>  <Sequence Accession>
P08684

>  <Reference>


>  <Pubmed ID>
27560281

>  <DOI>
10.1016/j.ejmech.2016.08.024

$$$$
2185968
Actelion Java MolfileCreator 1.0

 36 40  0  0  0  0  0  0  0  0999 V2000
    0.0000   -0.0000   -0.0000 Cl  0  0  0  0  0  0  0  0  0  0  0  0
    1.2936    0.7714   -0.0000 C   0  0  0  0  0  0  0  0  0  0  0  0
    1.2817    2.2786   -0.0000 C   0  0  0  0  0  0  0  0  0  0  0  0
    2.5872    0.0356   -0.0000 C   0  0  0  0  0  0  0  0  0  0  0  0
    2.5635    3.0382   -0.0000 C   0  0  0  0  0  0  0  0  0  0  0  0
    3.8690    0.8070   -0.0000 C   0  0  0  0  0  0  0  0  0  0  0  0
    3.8452    2.2905   -0.0000 C   0  0  0  0  0  0  0  0  0  0  0  0
    5.1270    3.0501   -0.0000 S   0  0  0  0  0  0  0  0  0  0  0  0
    6.5630    2.6703   -0.0000 O   0  0  0  0  0  0  0  0  0  0  0  0
    5.5067    1.6140   -0.0000 O   0  0  0  0  0  0  0  0  0  0  0  0
    5.1270    4.5692   -0.0000 N   0  0  0  0  0  0  0  0  0  0  0  0
    6.4087    5.3287   -0.0000 C   0  0  0  0  0  0  0  0  0  0  0  0
    3.8215    5.3287   -0.0000 C   0  0  0  0  0  0  0  0  0  0  0  0
    7.7023    4.5929   -0.0000 C   0  0  0  0  0  0  0  0  0  0  0  0
    6.3968    6.8478   -0.0000 C   0  0  0  0  0  0  0  0  0  0  0  0
    2.5041    4.5810   -0.0000 C   0  0  0  0  0  0  0  0  0  0  0  0
    3.8096    6.8478   -0.0000 C   0  0  0  0  0  0  0  0  0  0  0  0
    8.4381    3.3112   -0.0000 C   0  0  0  0  0  0  0  0  0  0  0  0
    6.9428    3.3112   -0.0000 C   0  0  0  0  0  0  0  0  0  0  0  0
    8.9959    5.3524   -0.0000 C   0  0  0  0  0  0  0  0  0  0  0  0
    5.0914    7.6192   -0.0000 O   0  0  0  0  0  0  0  0  0  0  0  0
    0.9850    4.5929   -0.0000 C   0  0  0  0  0  0  0  0  0  0  0  0
    1.7446    3.2874   -0.0000 C   0  0  0  0  0  0  0  0  0  0  0  0
   10.2895    4.6048   -0.0000 C   0  0  0  0  0  0  0  0  0  0  0  0
   10.2777    3.1094   -0.0000 O   0  0  0  0  0  0  0  0  0  0  0  0
   11.5831    5.3643   -0.0000 N   0  0  0  0  0  0  0  0  0  0  0  0
   12.8649    4.6166   -0.0000 C   0  0  0  0  0  0  0  0  0  0  0  0
   11.5713    6.8715   -0.0000 C   0  0  0  0  0  0  0  0  0  0  0  0
   14.1585    5.3762   -0.0000 C   0  0  0  0  0  0  0  0  0  0  0  0
   12.8649    7.6311   -0.0000 C   0  0  0  0  0  0  0  0  0  0  0  0
   14.1585    6.8953   -0.0000 N   0  0  0  0  0  0  0  0  0  0  0  0
   15.4402    7.6548   -0.0000 C   0  0  0  0  0  0  0  0  0  0  0  0
   16.7338    6.9072   -0.0000 C   0  0  0  0  0  0  0  0  0  0  0  0
   14.6688    8.9722   -0.0000 C   0  0  0  0  0  0  0  0  0  0  0  0
   16.1760    8.9840   -0.0000 C   0  0  0  0  0  0  0  0  0  0  0  0
   18.0274    7.6667   -0.0000 O   0  0  0  0  0  0  0  0  0  0  0  0
  1  2  1  0  0  0  0
  2  3  2  0  0  0  0
  2  4  1  0  0  0  0
  3  5  1  0  0  0  0
  4  6  2  0  0  0  0
  5  7  2  0  0  0  0
  7  8  1  0  0  0  0
  8  9  2  0  0  0  0
  8 10  2  0  0  0  0
  8 11  1  0  0  0  0
 11 12  1  0  0  0  0
 11 13  1  0  0  0  0
 12 14  1  1  0  0  0
 12 15  1  0  0  0  0
 13 16  1  1  0  0  0
 13 17  1  0  0  0  0
 14 18  1  0  0  0  0
 14 19  1  0  0  0  0
 14 20  1  0  0  0  0
 15 21  1  0  0  0  0
 16 22  1  0  0  0  0
 16 23  1  0  0  0  0
 20 24  1  0  0  0  0
 24 25  2  0  0  0  0
 24 26  1  0  0  0  0
 26 27  1  0  0  0  0
 26 28  1  0  0  0  0
 27 29  1  0  0  0  0
 28 30  1  0  0  0  0
 29 31  1  0  0  0  0
 31 32  1  0  0  0  0
 32 33  1  0  0  0  0
 32 34  1  0  0  0  0
 32 35  1  0  0  0  0
 33 36  1  0  0  0  0
  6  7  1  0  0  0  0
 17 21  1  0  0  0  0
 18 19  1  0  0  0  0
 22 23  1  0  0  0  0
 30 31  1  0  0  0  0
M  END
>  <MolRegNo>
2185968

>  <m>
=

>  <Value>
1900

>  <Unit>
nM

>  <Type>
IC50

>  <pValue>
5.72

>  <Ligand Efficiency>
0

>  <Binding Efficiency>
0

>  <Surface Efficiency>
0

>  <Assay Index>
1046094

>  <Assay Category>


>  <Assay Organism>
Homo sapiens

>  <Target ID>
17045

>  <Target Name>
Cytochrome P450 3A4

>  <Target Organism>
Homo sapiens

>  <Target Description>
Target is a single protein chain

>  <Sequence Accession>
P08684

>  <Reference>


>  <Pubmed ID>
27560281

>  <DOI>
10.1016/j.ejmech.2016.08.024

$$$$
2156703
Actelion Java MolfileCreator 1.0

 39 45  0  0  0  0  0  0  0  0999 V2000
    0.0000   -0.0000   -0.0000 Cl  0  0  0  0  0  0  0  0  0  0  0  0
    1.2940    0.7764   -0.0000 C   0  0  0  0  0  0  0  0  0  0  0  0
    1.2804    2.3019   -0.0000 C   0  0  0  0  0  0  0  0  0  0  0  0
    2.6016    0.0409   -0.0000 C   0  0  0  0  0  0  0  0  0  0  0  0
    2.5744    3.0647   -0.0000 C   0  0  0  0  0  0  0  0  0  0  0  0
    3.8820    0.8173   -0.0000 C   0  0  0  0  0  0  0  0  0  0  0  0
    3.8684    2.3156   -0.0000 C   0  0  0  0  0  0  0  0  0  0  0  0
    5.1624    3.0920   -0.0000 S   0  0  0  0  0  0  0  0  0  0  0  0
    6.6062    2.7106   -0.0000 O   0  0  0  0  0  0  0  0  0  0  0  0
    5.5437    1.6481   -0.0000 O   0  0  0  0  0  0  0  0  0  0  0  0
    5.1624    4.6175   -0.0000 N   0  0  0  0  0  0  0  0  0  0  0  0
    6.4564    5.3803   -0.0000 C   0  0  0  0  0  0  0  0  0  0  0  0
    3.8411    5.3803   -0.0000 C   0  0  0  0  0  0  0  0  0  0  0  0
    7.7503    4.6311   -0.0000 C   0  0  0  0  0  0  0  0  0  0  0  0
    6.4427    6.9058   -0.0000 C   0  0  0  0  0  0  0  0  0  0  0  0
    2.5199    4.6311   -0.0000 C   0  0  0  0  0  0  0  0  0  0  0  0
    3.8275    6.9058   -0.0000 C   0  0  0  0  0  0  0  0  0  0  0  0
    8.4859    3.3371   -0.0000 C   0  0  0  0  0  0  0  0  0  0  0  0
    6.9740    3.3371   -0.0000 C   0  0  0  0  0  0  0  0  0  0  0  0
    9.0443    5.3939   -0.0000 C   0  0  0  0  0  0  0  0  0  0  0  0
    5.1215    7.6822   -0.0000 O   0  0  0  0  0  0  0  0  0  0  0  0
    0.9943    4.6448   -0.0000 C   0  0  0  0  0  0  0  0  0  0  0  0
    1.7435    3.3235   -0.0000 C   0  0  0  0  0  0  0  0  0  0  0  0
   10.3383    4.6448   -0.0000 C   0  0  0  0  0  0  0  0  0  0  0  0
   10.3247    3.1465   -0.0000 O   0  0  0  0  0  0  0  0  0  0  0  0
   11.6323    5.4075   -0.0000 N   0  0  0  0  0  0  0  0  0  0  0  0
   12.3134    6.7969   -0.0000 C   0  0  0  0  0  0  0  0  0  0  0  0
   12.8582    5.8979   -0.0000 C   0  0  0  0  0  0  0  0  0  0  0  0
   14.0296    6.2793   -0.0000 C   0  0  0  0  0  0  0  0  0  0  0  0
   12.0682    8.2135   -0.0000 C   0  0  0  0  0  0  0  0  0  0  0  0
   14.4791    5.3803   -0.0000 C   0  0  0  0  0  0  0  0  0  0  0  0
   12.8718    7.5324   -0.0000 C   0  0  0  0  0  0  0  0  0  0  0  0
   15.1738    6.7696   -0.0000 C   0  0  0  0  0  0  0  0  0  0  0  0
   16.4542    6.0205   -0.0000 N   0  0  0  0  0  0  0  0  0  0  0  0
   16.4269    4.5222   -0.0000 C   0  0  0  0  0  0  0  0  0  0  0  0
   17.7482    6.7833   -0.0000 C   0  0  0  0  0  0  0  0  0  0  0  0
   17.7073    3.7730   -0.0000 C   0  0  0  0  0  0  0  0  0  0  0  0
   19.0285    6.0341   -0.0000 C   0  0  0  0  0  0  0  0  0  0  0  0
   19.0013    4.5222   -0.0000 C   0  0  0  0  0  0  0  0  0  0  0  0
  1  2  1  0  0  0  0
  2  3  2  0  0  0  0
  2  4  1  0  0  0  0
  3  5  1  0  0  0  0
  4  6  2  0  0  0  0
  5  7  2  0  0  0  0
  7  8  1  0  0  0  0
  8  9  2  0  0  0  0
  8 10  2  0  0  0  0
  8 11  1  0  0  0  0
 11 12  1  0  0  0  0
 11 13  1  0  0  0  0
 12 14  1  1  0  0  0
 12 15  1  0  0  0  0
 13 16  1  1  0  0  0
 13 17  1  0  0  0  0
 14 18  1  0  0  0  0
 14 19  1  0  0  0  0
 14 20  1  0  0  0  0
 15 21  1  0  0  0  0
 16 22  1  0  0  0  0
 16 23  1  0  0  0  0
 20 24  1  0  0  0  0
 24 25  2  0  0  0  0
 24 26  1  0  0  0  0
 26 27  1  0  0  0  0
 26 28  1  0  0  0  0
 27 29  1  0  0  0  0
 27 30  1  0  0  0  0
 28 31  1  0  0  0  0
 28 32  1  0  0  0  0
 29 33  1  0  0  0  0
 33 34  1  0  0  0  0
 34 35  1  0  0  0  0
 34 36  1  0  0  0  0
 35 37  1  0  0  0  0
 36 38  1  0  0  0  0
 37 39  1  0  0  0  0
  6  7  1  0  0  0  0
 17 21  1  0  0  0  0
 18 19  1  0  0  0  0
 22 23  1  0  0  0  0
 30 32  1  0  0  0  0
 31 33  1  0  0  0  0
 38 39  1  0  0  0  0
M  END
>  <MolRegNo>
2156703

>  <m>
=

>  <Value>
2000

>  <Unit>
nM

>  <Type>
IC50

>  <pValue>
5.7

>  <Ligand Efficiency>
0

>  <Binding Efficiency>
0

>  <Surface Efficiency>
0

>  <Assay Index>
1046094

>  <Assay Category>


>  <Assay Organism>
Homo sapiens

>  <Target ID>
17045

>  <Target Name>
Cytochrome P450 3A4

>  <Target Organism>
Homo sapiens

>  <Target Description>
Target is a single protein chain

>  <Sequence Accession>
P08684

>  <Reference>


>  <Pubmed ID>
27560281

>  <DOI>
10.1016/j.ejmech.2016.08.024

$$$$
2118386
Actelion Java MolfileCreator 1.0

 34 39  0  0  0  0  0  0  0  0999 V2000
    0.0000   -0.0000   -0.0000 Cl  0  0  0  0  0  0  0  0  0  0  0  0
    1.2889    0.7679   -0.0000 C   0  0  0  0  0  0  0  0  0  0  0  0
    1.2752    2.2762   -0.0000 C   0  0  0  0  0  0  0  0  0  0  0  0
    2.5779    0.0411   -0.0000 C   0  0  0  0  0  0  0  0  0  0  0  0
    2.5642    3.0441   -0.0000 C   0  0  0  0  0  0  0  0  0  0  0  0
    3.8531    0.8090   -0.0000 C   0  0  0  0  0  0  0  0  0  0  0  0
    3.8531    2.3036   -0.0000 C   0  0  0  0  0  0  0  0  0  0  0  0
    5.1421    3.0715   -0.0000 S   0  0  0  0  0  0  0  0  0  0  0  0
    6.5818    2.7013   -0.0000 O   0  0  0  0  0  0  0  0  0  0  0  0
    5.5123    1.6317   -0.0000 O   0  0  0  0  0  0  0  0  0  0  0  0
    5.1284    4.5936   -0.0000 N   0  0  0  0  0  0  0  0  0  0  0  0
    6.4173    5.3477   -0.0000 C   0  0  0  0  0  0  0  0  0  0  0  0
    3.8120    5.3477   -0.0000 C   0  0  0  0  0  0  0  0  0  0  0  0
    7.7062    4.6073   -0.0000 C   0  0  0  0  0  0  0  0  0  0  0  0
    6.4036    6.8698   -0.0000 C   0  0  0  0  0  0  0  0  0  0  0  0
    2.4956    4.6073   -0.0000 C   0  0  0  0  0  0  0  0  0  0  0  0
    3.7983    6.8698   -0.0000 C   0  0  0  0  0  0  0  0  0  0  0  0
    8.9952    5.3752   -0.0000 C   0  0  0  0  0  0  0  0  0  0  0  0
    8.4330    3.3183   -0.0000 C   0  0  0  0  0  0  0  0  0  0  0  0
    6.9384    3.3321   -0.0000 C   0  0  0  0  0  0  0  0  0  0  0  0
    5.0872    7.6377   -0.0000 O   0  0  0  0  0  0  0  0  0  0  0  0
    0.9736    4.6210   -0.0000 C   0  0  0  0  0  0  0  0  0  0  0  0
    1.7277    3.3183   -0.0000 C   0  0  0  0  0  0  0  0  0  0  0  0
    8.9815    6.8972   -0.0000 O   0  0  0  0  0  0  0  0  0  0  0  0
   10.2841    4.6347   -0.0000 C   0  0  0  0  0  0  0  0  0  0  0  0
   10.2704    3.1401   -0.0000 O   0  0  0  0  0  0  0  0  0  0  0  0
   11.5731    5.4026   -0.0000 N   0  0  0  0  0  0  0  0  0  0  0  0
   12.6838    5.9374   -0.0000 C   0  0  0  0  0  0  0  0  0  0  0  0
   12.1901    6.8149   -0.0000 C   0  0  0  0  0  0  0  0  0  0  0  0
   14.4115    5.4986   -0.0000 C   0  0  0  0  0  0  0  0  0  0  0  0
   13.8219    6.3762   -0.0000 C   0  0  0  0  0  0  0  0  0  0  0  0
   15.0148    6.9109   -0.0000 N   0  0  0  0  0  0  0  0  0  0  0  0
   15.0011    4.0040   -0.0000 C   0  0  0  0  0  0  0  0  0  0  0  0
   14.0550    4.9638   -0.0000 C   0  0  0  0  0  0  0  0  0  0  0  0
  1  2  1  0  0  0  0
  2  3  2  0  0  0  0
  2  4  1  0  0  0  0
  3  5  1  0  0  0  0
  4  6  2  0  0  0  0
  5  7  2  0  0  0  0
  7  8  1  0  0  0  0
  8  9  2  0  0  0  0
  8 10  2  0  0  0  0
  8 11  1  0  0  0  0
 11 12  1  0  0  0  0
 11 13  1  0  0  0  0
 12 14  1  1  0  0  0
 12 15  1  0  0  0  0
 13 16  1  1  0  0  0
 13 17  1  0  0  0  0
 14 18  1  0  0  0  0
 14 19  1  0  0  0  0
 14 20  1  0  0  0  0
 15 21  1  0  0  0  0
 16 22  1  0  0  0  0
 16 23  1  0  0  0  0
 18 24  1  0  0  0  0
 18 25  1  0  0  0  0
 25 26  2  0  0  0  0
 25 27  1  0  0  0  0
 27 28  1  0  0  0  0
 27 29  1  0  0  0  0
 28 30  1  0  0  0  0
 29 31  1  0  0  0  0
 30 32  1  0  0  0  0
 30 33  1  0  0  0  0
 31 34  1  0  0  0  0
  6  7  1  0  0  0  0
 17 21  1  0  0  0  0
 19 20  1  0  0  0  0
 22 23  1  0  0  0  0
 31 32  1  0  0  0  0
 33 34  1  0  0  0  0
M  END
>  <MolRegNo>
2118386

>  <m>
=

>  <Value>
9000

>  <Unit>
nM

>  <Type>
IC50

>  <pValue>
5.05

>  <Ligand Efficiency>
0

>  <Binding Efficiency>
0

>  <Surface Efficiency>
0

>  <Assay Index>
1046094

>  <Assay Category>


>  <Assay Organism>
Homo sapiens

>  <Target ID>
17045

>  <Target Name>
Cytochrome P450 3A4

>  <Target Organism>
Homo sapiens

>  <Target Description>
Target is a single protein chain

>  <Sequence Accession>
P08684

>  <Reference>


>  <Pubmed ID>
27560281

>  <DOI>
10.1016/j.ejmech.2016.08.024

$$$$
2127317
Actelion Java MolfileCreator 1.0

 37 42  0  0  0  0  0  0  0  0999 V2000
    0.0000   -0.0000   -0.0000 S   0  0  0  0  0  0  0  0  0  0  0  0
    1.4341   -0.3793   -0.0000 O   0  0  0  0  0  0  0  0  0  0  0  0
    0.3793   -1.4341   -0.0000 O   0  0  0  0  0  0  0  0  0  0  0  0
    0.0000    1.5171   -0.0000 N   0  0  0  0  0  0  0  0  0  0  0  0
   -1.3037   -0.7348   -0.0000 C   0  0  0  0  0  0  0  0  0  0  0  0
    1.2800    2.2756   -0.0000 C   0  0  0  0  0  0  0  0  0  0  0  0
   -1.3037    2.2756   -0.0000 C   0  0  0  0  0  0  0  0  0  0  0  0
   -2.6075    0.0356   -0.0000 C   0  0  0  0  0  0  0  0  0  0  0  0
   -1.3037   -2.2045   -0.0000 C   0  0  0  0  0  0  0  0  0  0  0  0
    2.5719    1.5408   -0.0000 C   0  0  0  0  0  0  0  0  0  0  0  0
    1.2682    3.7927   -0.0000 C   0  0  0  0  0  0  0  0  0  0  0  0
   -2.6193    1.5289   -0.0000 C   0  0  0  0  0  0  0  0  0  0  0  0
   -1.3156    3.7927   -0.0000 C   0  0  0  0  0  0  0  0  0  0  0  0
   -3.9112   -0.6993   -0.0000 C   0  0  0  0  0  0  0  0  0  0  0  0
   -2.6075   -2.9512   -0.0000 C   0  0  0  0  0  0  0  0  0  0  0  0
    3.3067    0.2607   -0.0000 C   0  0  0  0  0  0  0  0  0  0  0  0
    1.8134    0.2607   -0.0000 C   0  0  0  0  0  0  0  0  0  0  0  0
    3.8638    2.2993   -0.0000 C   0  0  0  0  0  0  0  0  0  0  0  0
   -0.0356    4.5631   -0.0000 O   0  0  0  0  0  0  0  0  0  0  0  0
   -4.1364    1.5408   -0.0000 C   0  0  0  0  0  0  0  0  0  0  0  0
   -3.3779    0.2370   -0.0000 C   0  0  0  0  0  0  0  0  0  0  0  0
   -3.9230   -2.1808   -0.0000 C   0  0  0  0  0  0  0  0  0  0  0  0
    5.1557    1.5526   -0.0000 C   0  0  0  0  0  0  0  0  0  0  0  0
   -5.2386   -2.9275   -0.0000 F   0  0  0  0  0  0  0  0  0  0  0  0
    5.1438    0.0593   -0.0000 O   0  0  0  0  0  0  0  0  0  0  0  0
    6.4476    2.3112   -0.0000 N   0  0  0  0  0  0  0  0  0  0  0  0
    7.7276    1.5645   -0.0000 C   0  0  0  0  0  0  0  0  0  0  0  0
    6.4238    3.8282   -0.0000 C   0  0  0  0  0  0  0  0  0  0  0  0
    9.0195    2.3230   -0.0000 C   0  0  0  0  0  0  0  0  0  0  0  0
    7.7157    4.5868   -0.0000 C   0  0  0  0  0  0  0  0  0  0  0  0
    9.0195    3.8401   -0.0000 C   0  0  0  0  0  0  0  0  0  0  0  0
   10.3113    4.5986   -0.0000 N   0  0  0  0  0  0  0  0  0  0  0  0
   11.5914    3.8519   -0.0000 C   0  0  0  0  0  0  0  0  0  0  0  0
   10.2995    6.1157   -0.0000 C   0  0  0  0  0  0  0  0  0  0  0  0
   12.8832    4.5986   -0.0000 C   0  0  0  0  0  0  0  0  0  0  0  0
   11.6032    6.8742   -0.0000 C   0  0  0  0  0  0  0  0  0  0  0  0
   12.8832    6.1157   -0.0000 C   0  0  0  0  0  0  0  0  0  0  0  0
  1  2  2  0  0  0  0
  1  3  2  0  0  0  0
  1  4  1  0  0  0  0
  1  5  1  0  0  0  0
  4  6  1  0  0  0  0
  4  7  1  0  0  0  0
  5  8  2  0  0  0  0
  5  9  1  0  0  0  0
  6 10  1  1  0  0  0
  6 11  1  0  0  0  0
  7 12  1  1  0  0  0
  7 13  1  0  0  0  0
  8 14  1  0  0  0  0
  9 15  2  0  0  0  0
 10 16  1  0  0  0  0
 10 17  1  0  0  0  0
 10 18  1  0  0  0  0
 11 19  1  0  0  0  0
 12 20  1  0  0  0  0
 12 21  1  0  0  0  0
 14 22  2  0  0  0  0
 18 23  1  0  0  0  0
 22 24  1  0  0  0  0
 23 25  2  0  0  0  0
 23 26  1  0  0  0  0
 26 27  1  0  0  0  0
 26 28  1  0  0  0  0
 27 29  1  0  0  0  0
 28 30  1  0  0  0  0
 29 31  1  0  0  0  0
 31 32  1  0  0  0  0
 32 33  1  0  0  0  0
 32 34  1  0  0  0  0
 33 35  1  0  0  0  0
 34 36  1  0  0  0  0
 35 37  1  0  0  0  0
 13 19  1  0  0  0  0
 15 22  1  0  0  0  0
 16 17  1  0  0  0  0
 20 21  1  0  0  0  0
 30 31  1  0  0  0  0
 36 37  1  0  0  0  0
M  END
>  <MolRegNo>
2127317

>  <m>
=

>  <Value>
1500

>  <Unit>
nM

>  <Type>
IC50

>  <pValue>
5.82

>  <Ligand Efficiency>
0

>  <Binding Efficiency>
0

>  <Surface Efficiency>
0

>  <Assay Index>
1046094

>  <Assay Category>


>  <Assay Organism>
Homo sapiens

>  <Target ID>
17045

>  <Target Name>
Cytochrome P450 3A4

>  <Target Organism>
Homo sapiens

>  <Target Description>
Target is a single protein chain

>  <Sequence Accession>
P08684

>  <Reference>


>  <Pubmed ID>
27560281

>  <DOI>
10.1016/j.ejmech.2016.08.024

$$$$
2136276
Actelion Java MolfileCreator 1.0

 34 38  0  0  0  0  0  0  0  0999 V2000
    0.0000   -0.0000   -0.0000 S   0  0  0  0  0  0  0  0  0  0  0  0
    1.4356   -0.3797   -0.0000 O   0  0  0  0  0  0  0  0  0  0  0  0
    0.3797   -1.4356   -0.0000 O   0  0  0  0  0  0  0  0  0  0  0  0
    0.0000    1.5187   -0.0000 N   0  0  0  0  0  0  0  0  0  0  0  0
   -1.3051   -0.7475   -0.0000 C   0  0  0  0  0  0  0  0  0  0  0  0
    1.2814    2.2661   -0.0000 C   0  0  0  0  0  0  0  0  0  0  0  0
   -1.3051    2.2661   -0.0000 C   0  0  0  0  0  0  0  0  0  0  0  0
   -2.6102    0.0237   -0.0000 C   0  0  0  0  0  0  0  0  0  0  0  0
   -1.3051   -2.2187   -0.0000 C   0  0  0  0  0  0  0  0  0  0  0  0
    2.5746    1.5305   -0.0000 C   0  0  0  0  0  0  0  0  0  0  0  0
    1.2695    3.7848   -0.0000 C   0  0  0  0  0  0  0  0  0  0  0  0
   -2.6221    1.5305   -0.0000 C   0  0  0  0  0  0  0  0  0  0  0  0
   -1.3170    3.7848   -0.0000 C   0  0  0  0  0  0  0  0  0  0  0  0
   -3.9153   -0.7237   -0.0000 C   0  0  0  0  0  0  0  0  0  0  0  0
   -2.6102   -2.9543   -0.0000 C   0  0  0  0  0  0  0  0  0  0  0  0
    3.3102    0.2373   -0.0000 C   0  0  0  0  0  0  0  0  0  0  0  0
    1.8153    0.2492   -0.0000 C   0  0  0  0  0  0  0  0  0  0  0  0
    3.8678    2.2899   -0.0000 C   0  0  0  0  0  0  0  0  0  0  0  0
   -0.0356    4.5560   -0.0000 O   0  0  0  0  0  0  0  0  0  0  0  0
   -4.1407    1.5424   -0.0000 C   0  0  0  0  0  0  0  0  0  0  0  0
   -3.3933    0.2373   -0.0000 C   0  0  0  0  0  0  0  0  0  0  0  0
   -3.9272   -2.2068   -0.0000 C   0  0  0  0  0  0  0  0  0  0  0  0
    5.1611    1.5543   -0.0000 C   0  0  0  0  0  0  0  0  0  0  0  0
   -5.2441   -2.9424   -0.0000 F   0  0  0  0  0  0  0  0  0  0  0  0
    5.1492    0.0593   -0.0000 O   0  0  0  0  0  0  0  0  0  0  0  0
    6.4543    2.3136   -0.0000 N   0  0  0  0  0  0  0  0  0  0  0  0
    7.7357    1.5661   -0.0000 C   0  0  0  0  0  0  0  0  0  0  0  0
    6.4306    3.8322   -0.0000 C   0  0  0  0  0  0  0  0  0  0  0  0
    9.0171    2.3136   -0.0000 C   0  0  0  0  0  0  0  0  0  0  0  0
    7.7357    4.5916   -0.0000 C   0  0  0  0  0  0  0  0  0  0  0  0
    9.0171    3.8322   -0.0000 N   0  0  0  0  0  0  0  0  0  0  0  0
   10.3103    4.5916   -0.0000 C   0  0  0  0  0  0  0  0  0  0  0  0
   11.6035    3.8441   -0.0000 C   0  0  0  0  0  0  0  0  0  0  0  0
   12.8968    4.6034   -0.0000 O   0  0  0  0  0  0  0  0  0  0  0  0
  1  2  2  0  0  0  0
  1  3  2  0  0  0  0
  1  4  1  0  0  0  0
  1  5  1  0  0  0  0
  4  6  1  0  0  0  0
  4  7  1  0  0  0  0
  5  8  2  0  0  0  0
  5  9  1  0  0  0  0
  6 10  1  1  0  0  0
  6 11  1  0  0  0  0
  7 12  1  1  0  0  0
  7 13  1  0  0  0  0
  8 14  1  0  0  0  0
  9 15  2  0  0  0  0
 10 16  1  0  0  0  0
 10 17  1  0  0  0  0
 10 18  1  0  0  0  0
 11 19  1  0  0  0  0
 12 20  1  0  0  0  0
 12 21  1  0  0  0  0
 14 22  2  0  0  0  0
 18 23  1  0  0  0  0
 22 24  1  0  0  0  0
 23 25  2  0  0  0  0
 23 26  1  0  0  0  0
 26 27  1  0  0  0  0
 26 28  1  0  0  0  0
 27 29  1  0  0  0  0
 28 30  1  0  0  0  0
 29 31  1  0  0  0  0
 31 32  1  0  0  0  0
 32 33  1  0  0  0  0
 33 34  1  0  0  0  0
 13 19  1  0  0  0  0
 15 22  1  0  0  0  0
 16 17  1  0  0  0  0
 20 21  1  0  0  0  0
 30 31  1  0  0  0  0
M  END
>  <MolRegNo>
2136276

>  <m>
=

>  <Value>
6900

>  <Unit>
nM

>  <Type>
IC50

>  <pValue>
5.16

>  <Ligand Efficiency>
0

>  <Binding Efficiency>
0

>  <Surface Efficiency>
0

>  <Assay Index>
1046094

>  <Assay Category>


>  <Assay Organism>
Homo sapiens

>  <Target ID>
17045

>  <Target Name>
Cytochrome P450 3A4

>  <Target Organism>
Homo sapiens

>  <Target Description>
Target is a single protein chain

>  <Sequence Accession>
P08684

>  <Reference>


>  <Pubmed ID>
27560281

>  <DOI>
10.1016/j.ejmech.2016.08.024

$$$$
2117245
Actelion Java MolfileCreator 1.0

 37 41  0  0  0  0  0  0  0  0999 V2000
    0.0000   -0.0000   -0.0000 S   0  0  0  0  0  0  0  0  0  0  0  0
    1.4333   -0.3672   -0.0000 O   0  0  0  0  0  0  0  0  0  0  0  0
    0.3791   -1.4333   -0.0000 O   0  0  0  0  0  0  0  0  0  0  0  0
    0.0000    1.5163   -0.0000 N   0  0  0  0  0  0  0  0  0  0  0  0
   -1.3030   -0.7344   -0.0000 C   0  0  0  0  0  0  0  0  0  0  0  0
    1.2793    2.2744   -0.0000 C   0  0  0  0  0  0  0  0  0  0  0  0
   -1.3030    2.2744   -0.0000 C   0  0  0  0  0  0  0  0  0  0  0  0
   -2.6061    0.0237   -0.0000 C   0  0  0  0  0  0  0  0  0  0  0  0
   -1.3030   -2.2033   -0.0000 C   0  0  0  0  0  0  0  0  0  0  0  0
    2.5705    1.5281   -0.0000 C   0  0  0  0  0  0  0  0  0  0  0  0
    1.2675    3.7906   -0.0000 C   0  0  0  0  0  0  0  0  0  0  0  0
   -2.6179    1.5281   -0.0000 C   0  0  0  0  0  0  0  0  0  0  0  0
   -1.3149    3.7906   -0.0000 C   0  0  0  0  0  0  0  0  0  0  0  0
   -3.9091   -0.7107   -0.0000 C   0  0  0  0  0  0  0  0  0  0  0  0
   -2.6061   -2.9496   -0.0000 C   0  0  0  0  0  0  0  0  0  0  0  0
    3.3050    0.2369   -0.0000 C   0  0  0  0  0  0  0  0  0  0  0  0
    1.8124    0.2488   -0.0000 C   0  0  0  0  0  0  0  0  0  0  0  0
    3.8617    2.2862   -0.0000 C   0  0  0  0  0  0  0  0  0  0  0  0
   -0.0355    4.5606   -0.0000 O   0  0  0  0  0  0  0  0  0  0  0  0
   -4.1342    1.5399   -0.0000 C   0  0  0  0  0  0  0  0  0  0  0  0
   -3.3879    0.2369   -0.0000 C   0  0  0  0  0  0  0  0  0  0  0  0
   -3.9209   -2.1915   -0.0000 C   0  0  0  0  0  0  0  0  0  0  0  0
    5.1529    1.5399   -0.0000 C   0  0  0  0  0  0  0  0  0  0  0  0
   -5.2358   -2.9378   -0.0000 F   0  0  0  0  0  0  0  0  0  0  0  0
    5.1411    0.0474   -0.0000 O   0  0  0  0  0  0  0  0  0  0  0  0
    6.4441    2.3099   -0.0000 N   0  0  0  0  0  0  0  0  0  0  0  0
    6.4204    3.8262   -0.0000 C   0  0  0  0  0  0  0  0  0  0  0  0
    7.7234    1.5636   -0.0000 C   0  0  0  0  0  0  0  0  0  0  0  0
    7.7234    4.5843   -0.0000 C   0  0  0  0  0  0  0  0  0  0  0  0
    5.1055    4.5843   -0.0000 C   0  0  0  0  0  0  0  0  0  0  0  0
    9.0028    2.3218   -0.0000 C   0  0  0  0  0  0  0  0  0  0  0  0
    9.0028    3.8380   -0.0000 N   0  0  0  0  0  0  0  0  0  0  0  0
   10.2940    4.5962   -0.0000 C   0  0  0  0  0  0  0  0  0  0  0  0
   11.5852    3.8499   -0.0000 C   0  0  0  0  0  0  0  0  0  0  0  0
    9.5240    5.9110   -0.0000 C   0  0  0  0  0  0  0  0  0  0  0  0
   11.0403    5.9229   -0.0000 C   0  0  0  0  0  0  0  0  0  0  0  0
   12.8764    4.5962   -0.0000 O   0  0  0  0  0  0  0  0  0  0  0  0
  1  2  2  0  0  0  0
  1  3  2  0  0  0  0
  1  4  1  0  0  0  0
  1  5  1  0  0  0  0
  4  6  1  0  0  0  0
  4  7  1  0  0  0  0
  5  8  2  0  0  0  0
  5  9  1  0  0  0  0
  6 10  1  1  0  0  0
  6 11  1  0  0  0  0
  7 12  1  1  0  0  0
  7 13  1  0  0  0  0
  8 14  1  0  0  0  0
  9 15  2  0  0  0  0
 10 16  1  0  0  0  0
 10 17  1  0  0  0  0
 10 18  1  0  0  0  0
 11 19  1  0  0  0  0
 12 20  1  0  0  0  0
 12 21  1  0  0  0  0
 14 22  2  0  0  0  0
 18 23  1  0  0  0  0
 22 24  1  0  0  0  0
 23 25  2  0  0  0  0
 23 26  1  0  0  0  0
 26 27  1  0  0  0  0
 26 28  1  0  0  0  0
 27 29  1  0  0  0  0
 27 30  1  6  0  0  0
 28 31  1  0  0  0  0
 29 32  1  0  0  0  0
 32 33  1  0  0  0  0
 33 34  1  0  0  0  0
 33 35  1  0  0  0  0
 33 36  1  0  0  0  0
 34 37  1  0  0  0  0
 13 19  1  0  0  0  0
 15 22  1  0  0  0  0
 16 17  1  0  0  0  0
 20 21  1  0  0  0  0
 31 32  1  0  0  0  0
M  END
>  <MolRegNo>
2117245

>  <m>
=

>  <Value>
2200

>  <Unit>
nM

>  <Type>
IC50

>  <pValue>
5.66

>  <Ligand Efficiency>
0

>  <Binding Efficiency>
0

>  <Surface Efficiency>
0

>  <Assay Index>
1046094

>  <Assay Category>


>  <Assay Organism>
Homo sapiens

>  <Target ID>
17045

>  <Target Name>
Cytochrome P450 3A4

>  <Target Organism>
Homo sapiens

>  <Target Description>
Target is a single protein chain

>  <Sequence Accession>
P08684

>  <Reference>


>  <Pubmed ID>
27560281

>  <DOI>
10.1016/j.ejmech.2016.08.024

$$$$
1147128
Actelion Java MolfileCreator 1.0

 26 27  0  0  0  0  0  0  0  0999 V2000
    0.0000   -0.0000   -0.0000 O   0  0  0  0  0  0  0  0  0  0  0  0
    1.2859    0.7620   -0.0000 C   0  0  0  0  0  0  0  0  0  0  0  0
    2.5718    0.0238   -0.0000 C   0  0  0  0  0  0  0  0  0  0  0  0
    0.5120    2.0836   -0.0000 C   0  0  0  0  0  0  0  0  0  0  0  0
    2.0122    2.0836   -0.0000 C   0  0  0  0  0  0  0  0  0  0  0  0
    3.8576    0.7858   -0.0000 C   0  0  0  0  0  0  0  0  0  0  0  0
    5.1435    0.0476   -0.0000 C   0  0  0  0  0  0  0  0  0  0  0  0
    6.4294    0.8096   -0.0000 C   0  0  0  0  0  0  0  0  0  0  0  0
    7.7153    0.0714   -0.0000 N   0  0  0  0  0  0  0  0  0  0  0  0
    6.4175    2.3217   -0.0000 C   0  0  0  0  0  0  0  0  0  0  0  0
    9.0012    0.8334   -0.0000 C   0  0  0  0  0  0  0  0  0  0  0  0
   10.2870    0.0953   -0.0000 N   0  0  0  0  0  0  0  0  0  0  0  0
    8.9893    2.3574   -0.0000 C   0  0  0  0  0  0  0  0  0  0  0  0
   11.5848    0.8573   -0.0000 C   0  0  0  0  0  0  0  0  0  0  0  0
    7.6796    3.1195   -0.0000 C   0  0  0  0  0  0  0  0  0  0  0  0
   10.2751    3.1195   -0.0000 C   0  0  0  0  0  0  0  0  0  0  0  0
   12.8707    0.1191   -0.0000 N   0  0  0  0  0  0  0  0  0  0  0  0
   11.5729    2.3813   -0.0000 C   0  0  0  0  0  0  0  0  0  0  0  0
    6.3699    3.8815   -0.0000 N   0  0  0  0  0  0  0  0  0  0  0  0
   10.2632    4.6316   -0.0000 C   0  0  0  0  0  0  0  0  0  0  0  0
   14.1566    0.8811   -0.0000 C   0  0  0  0  0  0  0  0  0  0  0  0
   14.2876    2.3932   -0.0000 N   0  0  0  0  0  0  0  0  0  0  0  0
   15.5139    0.2858   -0.0000 C   0  0  0  0  0  0  0  0  0  0  0  0
   15.7401    2.7146   -0.0000 N   0  0  0  0  0  0  0  0  0  0  0  0
   16.5021    1.4169   -0.0000 C   0  0  0  0  0  0  0  0  0  0  0  0
   17.9785    1.2740   -0.0000 C   0  0  0  0  0  0  0  0  0  0  0  0
  1  2  1  0  0  0  0
  2  3  1  0  0  0  0
  2  4  1  0  0  0  0
  2  5  1  0  0  0  0
  3  6  1  0  0  0  0
  6  7  1  0  0  0  0
  7  8  1  0  0  0  0
  8  9  1  6  0  0  0
  8 10  1  0  0  0  0
  9 11  1  0  0  0  0
 11 12  2  0  0  0  0
 11 13  1  0  0  0  0
 12 14  1  0  0  0  0
 13 15  1  0  0  0  0
 13 16  2  0  0  0  0
 14 17  1  0  0  0  0
 14 18  2  0  0  0  0
 15 19  3  0  0  0  0
 16 20  1  0  0  0  0
 17 21  1  0  0  0  0
 21 22  2  0  0  0  0
 21 23  1  0  0  0  0
 22 24  1  0  0  0  0
 23 25  2  0  0  0  0
 25 26  1  0  0  0  0
 16 18  1  0  0  0  0
 24 25  1  0  0  0  0
M  END
>  <MolRegNo>
1147128

>  <m>
=

>  <Value>
9300

>  <Unit>
nM

>  <Type>
IC50

>  <pValue>
5.03

>  <Ligand Efficiency>
0

>  <Binding Efficiency>
0

>  <Surface Efficiency>
0

>  <Assay Index>
1047295

>  <Assay Category>


>  <Assay Organism>
Homo sapiens

>  <Target ID>
17045

>  <Target Name>
Cytochrome P450 3A4

>  <Target Organism>
Homo sapiens

>  <Target Description>
Target is a single protein chain

>  <Sequence Accession>
P08684

>  <Reference>
Bioorg Med Chem Lett 26 (24), 5860-5862 (2016)

>  <Pubmed ID>
27884697

>  <DOI>
10.1016/j.bmcl.2016.11.020

$$$$
2175674
Actelion Java MolfileCreator 1.0

 26 28  0  0  0  0  0  0  0  0999 V2000
    0.0000   -0.0000   -0.0000 O   0  0  0  0  0  0  0  0  0  0  0  0
   -1.3093   -0.7379   -0.0000 C   0  0  0  0  0  0  0  0  0  0  0  0
    1.2854   -0.7379   -0.0000 C   0  0  0  0  0  0  0  0  0  0  0  0
   -2.6185    0.0238   -0.0000 C   0  0  0  0  0  0  0  0  0  0  0  0
   -1.3093   -2.2257   -0.0000 C   0  0  0  0  0  0  0  0  0  0  0  0
    2.5709    0.0238   -0.0000 C   0  0  0  0  0  0  0  0  0  0  0  0
   -3.9278   -0.7141   -0.0000 C   0  0  0  0  0  0  0  0  0  0  0  0
   -2.6185   -2.9637   -0.0000 C   0  0  0  0  0  0  0  0  0  0  0  0
    3.8563   -0.7141   -0.0000 N   0  0  0  0  0  0  0  0  0  0  0  0
   -3.9397   -2.2019   -0.0000 C   0  0  0  0  0  0  0  0  0  0  0  0
    5.1418    0.0476   -0.0000 C   0  0  0  0  0  0  0  0  0  0  0  0
    6.4272   -0.6903   -0.0000 N   0  0  0  0  0  0  0  0  0  0  0  0
    5.1299    1.5711   -0.0000 C   0  0  0  0  0  0  0  0  0  0  0  0
    7.7246    0.0714   -0.0000 C   0  0  0  0  0  0  0  0  0  0  0  0
    3.8087    2.3329   -0.0000 C   0  0  0  0  0  0  0  0  0  0  0  0
    6.4153    2.3329   -0.0000 C   0  0  0  0  0  0  0  0  0  0  0  0
    9.0100   -0.6665   -0.0000 N   0  0  0  0  0  0  0  0  0  0  0  0
    7.7127    1.5949   -0.0000 C   0  0  0  0  0  0  0  0  0  0  0  0
    2.4995    3.0946   -0.0000 N   0  0  0  0  0  0  0  0  0  0  0  0
    6.4034    3.8444   -0.0000 C   0  0  0  0  0  0  0  0  0  0  0  0
   10.2955    0.0952   -0.0000 C   0  0  0  0  0  0  0  0  0  0  0  0
   10.4264    1.6068   -0.0000 N   0  0  0  0  0  0  0  0  0  0  0  0
   11.6524   -0.4999   -0.0000 C   0  0  0  0  0  0  0  0  0  0  0  0
   11.8785    1.9282   -0.0000 N   0  0  0  0  0  0  0  0  0  0  0  0
   12.6402    0.6308   -0.0000 C   0  0  0  0  0  0  0  0  0  0  0  0
   14.1161    0.4880   -0.0000 C   0  0  0  0  0  0  0  0  0  0  0  0
  1  2  1  0  0  0  0
  1  3  1  0  0  0  0
  2  4  2  0  0  0  0
  2  5  1  0  0  0  0
  3  6  1  0  0  0  0
  4  7  1  0  0  0  0
  5  8  2  0  0  0  0
  6  9  1  0  0  0  0
  7 10  2  0  0  0  0
  9 11  1  0  0  0  0
 11 12  2  0  0  0  0
 11 13  1  0  0  0  0
 12 14  1  0  0  0  0
 13 15  1  0  0  0  0
 13 16  2  0  0  0  0
 14 17  1  0  0  0  0
 14 18  2  0  0  0  0
 15 19  3  0  0  0  0
 16 20  1  0  0  0  0
 17 21  1  0  0  0  0
 21 22  2  0  0  0  0
 21 23  1  0  0  0  0
 22 24  1  0  0  0  0
 23 25  2  0  0  0  0
 25 26  1  0  0  0  0
  8 10  1  0  0  0  0
 16 18  1  0  0  0  0
 24 25  1  0  0  0  0
M  END
>  <MolRegNo>
2175674

>  <m>
=

>  <Value>
1400

>  <Unit>
nM

>  <Type>
IC50

>  <pValue>
5.85

>  <Ligand Efficiency>
0

>  <Binding Efficiency>
0

>  <Surface Efficiency>
0

>  <Assay Index>
1047295

>  <Assay Category>


>  <Assay Organism>
Homo sapiens

>  <Target ID>
17045

>  <Target Name>
Cytochrome P450 3A4

>  <Target Organism>
Homo sapiens

>  <Target Description>
Target is a single protein chain

>  <Sequence Accession>
P08684

>  <Reference>
Bioorg Med Chem Lett 26 (24), 5860-5862 (2016)

>  <Pubmed ID>
27884697

>  <DOI>
10.1016/j.bmcl.2016.11.020

$$$$
2113287
Actelion Java MolfileCreator 1.0

 27 29  0  0  0  0  0  0  0  0999 V2000
    0.0000   -0.0000   -0.0000 F   0  0  0  0  0  0  0  0  0  0  0  0
   -1.3192    0.7606   -0.0000 C   0  0  0  0  0  0  0  0  0  0  0  0
   -1.3430    2.2700   -0.0000 C   0  0  0  0  0  0  0  0  0  0  0  0
   -2.6265    0.0238   -0.0000 C   0  0  0  0  0  0  0  0  0  0  0  0
   -0.0594    3.0306   -0.0000 O   0  0  0  0  0  0  0  0  0  0  0  0
   -2.6503    3.0306   -0.0000 C   0  0  0  0  0  0  0  0  0  0  0  0
   -3.9457    0.7844   -0.0000 C   0  0  0  0  0  0  0  0  0  0  0  0
    1.2241    2.2938   -0.0000 C   0  0  0  0  0  0  0  0  0  0  0  0
   -3.9576    2.2938   -0.0000 C   0  0  0  0  0  0  0  0  0  0  0  0
    2.5077    3.0544   -0.0000 C   0  0  0  0  0  0  0  0  0  0  0  0
    3.7912    2.3175   -0.0000 N   0  0  0  0  0  0  0  0  0  0  0  0
    5.0748    3.0782   -0.0000 C   0  0  0  0  0  0  0  0  0  0  0  0
    6.3584    2.3413   -0.0000 N   0  0  0  0  0  0  0  0  0  0  0  0
    5.0629    4.5994   -0.0000 C   0  0  0  0  0  0  0  0  0  0  0  0
    7.6538    3.1019   -0.0000 C   0  0  0  0  0  0  0  0  0  0  0  0
    3.7437    5.3600   -0.0000 C   0  0  0  0  0  0  0  0  0  0  0  0
    6.3465    5.3600   -0.0000 C   0  0  0  0  0  0  0  0  0  0  0  0
    8.9374    2.3651   -0.0000 N   0  0  0  0  0  0  0  0  0  0  0  0
    7.6419    4.6232   -0.0000 C   0  0  0  0  0  0  0  0  0  0  0  0
    2.4364    6.1207   -0.0000 N   0  0  0  0  0  0  0  0  0  0  0  0
    6.3346    6.8694   -0.0000 C   0  0  0  0  0  0  0  0  0  0  0  0
   10.2209    3.1257   -0.0000 C   0  0  0  0  0  0  0  0  0  0  0  0
   10.3516    4.6351   -0.0000 N   0  0  0  0  0  0  0  0  0  0  0  0
   11.5758    2.5315   -0.0000 C   0  0  0  0  0  0  0  0  0  0  0  0
   11.8016    4.9560   -0.0000 N   0  0  0  0  0  0  0  0  0  0  0  0
   12.5622    3.6605   -0.0000 C   0  0  0  0  0  0  0  0  0  0  0  0
   14.0359    3.5179   -0.0000 C   0  0  0  0  0  0  0  0  0  0  0  0
  1  2  1  0  0  0  0
  2  3  2  0  0  0  0
  2  4  1  0  0  0  0
  3  5  1  0  0  0  0
  3  6  1  0  0  0  0
  4  7  2  0  0  0  0
  5  8  1  0  0  0  0
  6  9  2  0  0  0  0
  8 10  1  0  0  0  0
 10 11  1  0  0  0  0
 11 12  1  0  0  0  0
 12 13  2  0  0  0  0
 12 14  1  0  0  0  0
 13 15  1  0  0  0  0
 14 16  1  0  0  0  0
 14 17  2  0  0  0  0
 15 18  1  0  0  0  0
 15 19  2  0  0  0  0
 16 20  3  0  0  0  0
 17 21  1  0  0  0  0
 18 22  1  0  0  0  0
 22 23  2  0  0  0  0
 22 24  1  0  0  0  0
 23 25  1  0  0  0  0
 24 26  2  0  0  0  0
 26 27  1  0  0  0  0
  7  9  1  0  0  0  0
 17 19  1  0  0  0  0
 25 26  1  0  0  0  0
M  END
>  <MolRegNo>
2113287

>  <m>
=

>  <Value>
1600

>  <Unit>
nM

>  <Type>
IC50

>  <pValue>
5.8

>  <Ligand Efficiency>
0

>  <Binding Efficiency>
0

>  <Surface Efficiency>
0

>  <Assay Index>
1047295

>  <Assay Category>


>  <Assay Organism>
Homo sapiens

>  <Target ID>
17045

>  <Target Name>
Cytochrome P450 3A4

>  <Target Organism>
Homo sapiens

>  <Target Description>
Target is a single protein chain

>  <Sequence Accession>
P08684

>  <Reference>
Bioorg Med Chem Lett 26 (24), 5860-5862 (2016)

>  <Pubmed ID>
27884697

>  <DOI>
10.1016/j.bmcl.2016.11.020

$$$$
2184170
Actelion Java MolfileCreator 1.0

 27 29  0  0  0  0  0  0  0  0999 V2000
    0.0000   -0.0000   -0.0000 Cl  0  0  0  0  0  0  0  0  0  0  0  0
   -1.3192    0.7606   -0.0000 C   0  0  0  0  0  0  0  0  0  0  0  0
   -1.3430    2.2700   -0.0000 C   0  0  0  0  0  0  0  0  0  0  0  0
   -2.6265    0.0238   -0.0000 C   0  0  0  0  0  0  0  0  0  0  0  0
   -0.0594    3.0306   -0.0000 O   0  0  0  0  0  0  0  0  0  0  0  0
   -2.6503    3.0306   -0.0000 C   0  0  0  0  0  0  0  0  0  0  0  0
   -3.9457    0.7844   -0.0000 C   0  0  0  0  0  0  0  0  0  0  0  0
    1.2241    2.2938   -0.0000 C   0  0  0  0  0  0  0  0  0  0  0  0
   -3.9576    2.2938   -0.0000 C   0  0  0  0  0  0  0  0  0  0  0  0
    2.5077    3.0544   -0.0000 C   0  0  0  0  0  0  0  0  0  0  0  0
    3.7912    2.3175   -0.0000 N   0  0  0  0  0  0  0  0  0  0  0  0
    5.0748    3.0782   -0.0000 C   0  0  0  0  0  0  0  0  0  0  0  0
    6.3584    2.3413   -0.0000 N   0  0  0  0  0  0  0  0  0  0  0  0
    5.0629    4.5994   -0.0000 C   0  0  0  0  0  0  0  0  0  0  0  0
    7.6538    3.1019   -0.0000 C   0  0  0  0  0  0  0  0  0  0  0  0
    3.7437    5.3600   -0.0000 C   0  0  0  0  0  0  0  0  0  0  0  0
    6.3465    5.3600   -0.0000 C   0  0  0  0  0  0  0  0  0  0  0  0
    8.9374    2.3651   -0.0000 N   0  0  0  0  0  0  0  0  0  0  0  0
    7.6419    4.6232   -0.0000 C   0  0  0  0  0  0  0  0  0  0  0  0
    2.4364    6.1207   -0.0000 N   0  0  0  0  0  0  0  0  0  0  0  0
    6.3346    6.8694   -0.0000 C   0  0  0  0  0  0  0  0  0  0  0  0
   10.2209    3.1257   -0.0000 C   0  0  0  0  0  0  0  0  0  0  0  0
   10.3516    4.6351   -0.0000 N   0  0  0  0  0  0  0  0  0  0  0  0
   11.5758    2.5315   -0.0000 C   0  0  0  0  0  0  0  0  0  0  0  0
   11.8016    4.9560   -0.0000 N   0  0  0  0  0  0  0  0  0  0  0  0
   12.5622    3.6605   -0.0000 C   0  0  0  0  0  0  0  0  0  0  0  0
   14.0359    3.5179   -0.0000 C   0  0  0  0  0  0  0  0  0  0  0  0
  1  2  1  0  0  0  0
  2  3  2  0  0  0  0
  2  4  1  0  0  0  0
  3  5  1  0  0  0  0
  3  6  1  0  0  0  0
  4  7  2  0  0  0  0
  5  8  1  0  0  0  0
  6  9  2  0  0  0  0
  8 10  1  0  0  0  0
 10 11  1  0  0  0  0
 11 12  1  0  0  0  0
 12 13  2  0  0  0  0
 12 14  1  0  0  0  0
 13 15  1  0  0  0  0
 14 16  1  0  0  0  0
 14 17  2  0  0  0  0
 15 18  1  0  0  0  0
 15 19  2  0  0  0  0
 16 20  3  0  0  0  0
 17 21  1  0  0  0  0
 18 22  1  0  0  0  0
 22 23  2  0  0  0  0
 22 24  1  0  0  0  0
 23 25  1  0  0  0  0
 24 26  2  0  0  0  0
 26 27  1  0  0  0  0
  7  9  1  0  0  0  0
 17 19  1  0  0  0  0
 25 26  1  0  0  0  0
M  END
>  <MolRegNo>
2184170

>  <m>
=

>  <Value>
1200

>  <Unit>
nM

>  <Type>
IC50

>  <pValue>
5.92

>  <Ligand Efficiency>
0

>  <Binding Efficiency>
0

>  <Surface Efficiency>
0

>  <Assay Index>
1047295

>  <Assay Category>


>  <Assay Organism>
Homo sapiens

>  <Target ID>
17045

>  <Target Name>
Cytochrome P450 3A4

>  <Target Organism>
Homo sapiens

>  <Target Description>
Target is a single protein chain

>  <Sequence Accession>
P08684

>  <Reference>
Bioorg Med Chem Lett 26 (24), 5860-5862 (2016)

>  <Pubmed ID>
27884697

>  <DOI>
10.1016/j.bmcl.2016.11.020

$$$$
2132264
Actelion Java MolfileCreator 1.0

 26 28  0  0  0  0  0  0  0  0999 V2000
    0.0000   -0.0000   -0.0000 O   0  0  0  0  0  0  0  0  0  0  0  0
   -1.3093   -0.7379   -0.0000 C   0  0  0  0  0  0  0  0  0  0  0  0
    1.2854   -0.7379   -0.0000 C   0  0  0  0  0  0  0  0  0  0  0  0
   -1.3093   -2.2257   -0.0000 N   0  0  0  0  0  0  0  0  0  0  0  0
   -2.6185    0.0238   -0.0000 C   0  0  0  0  0  0  0  0  0  0  0  0
    2.5709    0.0238   -0.0000 C   0  0  0  0  0  0  0  0  0  0  0  0
   -2.6185   -2.9637   -0.0000 C   0  0  0  0  0  0  0  0  0  0  0  0
   -3.9278   -0.7141   -0.0000 C   0  0  0  0  0  0  0  0  0  0  0  0
    3.8563   -0.7141   -0.0000 N   0  0  0  0  0  0  0  0  0  0  0  0
   -3.9397   -2.2019   -0.0000 C   0  0  0  0  0  0  0  0  0  0  0  0
    5.1418    0.0476   -0.0000 C   0  0  0  0  0  0  0  0  0  0  0  0
    6.4272   -0.6903   -0.0000 N   0  0  0  0  0  0  0  0  0  0  0  0
    5.1299    1.5711   -0.0000 C   0  0  0  0  0  0  0  0  0  0  0  0
    7.7246    0.0714   -0.0000 C   0  0  0  0  0  0  0  0  0  0  0  0
    3.8087    2.3329   -0.0000 C   0  0  0  0  0  0  0  0  0  0  0  0
    6.4153    2.3329   -0.0000 C   0  0  0  0  0  0  0  0  0  0  0  0
    9.0100   -0.6665   -0.0000 N   0  0  0  0  0  0  0  0  0  0  0  0
    7.7127    1.5949   -0.0000 C   0  0  0  0  0  0  0  0  0  0  0  0
    2.4995    3.0946   -0.0000 N   0  0  0  0  0  0  0  0  0  0  0  0
    6.4034    3.8444   -0.0000 C   0  0  0  0  0  0  0  0  0  0  0  0
   10.2955    0.0952   -0.0000 C   0  0  0  0  0  0  0  0  0  0  0  0
   10.4264    1.6068   -0.0000 N   0  0  0  0  0  0  0  0  0  0  0  0
   11.6524   -0.4999   -0.0000 C   0  0  0  0  0  0  0  0  0  0  0  0
   11.8785    1.9282   -0.0000 N   0  0  0  0  0  0  0  0  0  0  0  0
   12.6402    0.6308   -0.0000 C   0  0  0  0  0  0  0  0  0  0  0  0
   14.1161    0.4880   -0.0000 C   0  0  0  0  0  0  0  0  0  0  0  0
  1  2  1  0  0  0  0
  1  3  1  0  0  0  0
  2  4  2  0  0  0  0
  2  5  1  0  0  0  0
  3  6  1  0  0  0  0
  4  7  1  0  0  0  0
  5  8  2  0  0  0  0
  6  9  1  0  0  0  0
  7 10  2  0  0  0  0
  9 11  1  0  0  0  0
 11 12  2  0  0  0  0
 11 13  1  0  0  0  0
 12 14  1  0  0  0  0
 13 15  1  0  0  0  0
 13 16  2  0  0  0  0
 14 17  1  0  0  0  0
 14 18  2  0  0  0  0
 15 19  3  0  0  0  0
 16 20  1  0  0  0  0
 17 21  1  0  0  0  0
 21 22  2  0  0  0  0
 21 23  1  0  0  0  0
 22 24  1  0  0  0  0
 23 25  2  0  0  0  0
 25 26  1  0  0  0  0
  8 10  1  0  0  0  0
 16 18  1  0  0  0  0
 24 25  1  0  0  0  0
M  END
>  <MolRegNo>
2132264

>  <m>
=

>  <Value>
7200

>  <Unit>
nM

>  <Type>
IC50

>  <pValue>
5.14

>  <Ligand Efficiency>
0

>  <Binding Efficiency>
0

>  <Surface Efficiency>
0

>  <Assay Index>
1047295

>  <Assay Category>


>  <Assay Organism>
Homo sapiens

>  <Target ID>
17045

>  <Target Name>
Cytochrome P450 3A4

>  <Target Organism>
Homo sapiens

>  <Target Description>
Target is a single protein chain

>  <Sequence Accession>
P08684

>  <Reference>
Bioorg Med Chem Lett 26 (24), 5860-5862 (2016)

>  <Pubmed ID>
27884697

>  <DOI>
10.1016/j.bmcl.2016.11.020

$$$$
2103285
Actelion Java MolfileCreator 1.0

 27 29  0  0  0  0  0  0  0  0999 V2000
    0.0000   -0.0000   -0.0000 O   0  0  0  0  0  0  0  0  0  0  0  0
   -1.3092   -0.7379   -0.0000 C   0  0  0  0  0  0  0  0  0  0  0  0
    1.2854   -0.7379   -0.0000 C   0  0  0  0  0  0  0  0  0  0  0  0
   -1.3092   -2.2256   -0.0000 C   0  0  0  0  0  0  0  0  0  0  0  0
   -2.6183    0.0238   -0.0000 C   0  0  0  0  0  0  0  0  0  0  0  0
    2.5707    0.0238   -0.0000 C   0  0  0  0  0  0  0  0  0  0  0  0
   -2.6183   -2.9635   -0.0000 N   0  0  0  0  0  0  0  0  0  0  0  0
   -3.9275   -0.7141   -0.0000 C   0  0  0  0  0  0  0  0  0  0  0  0
    3.8561   -0.7141   -0.0000 N   0  0  0  0  0  0  0  0  0  0  0  0
   -3.9394   -2.2018   -0.0000 C   0  0  0  0  0  0  0  0  0  0  0  0
    5.1415    0.0476   -0.0000 C   0  0  0  0  0  0  0  0  0  0  0  0
   -5.2486   -2.9397   -0.0000 C   0  0  0  0  0  0  0  0  0  0  0  0
    6.4268   -0.6903   -0.0000 N   0  0  0  0  0  0  0  0  0  0  0  0
    5.1296    1.5710   -0.0000 C   0  0  0  0  0  0  0  0  0  0  0  0
    7.7241    0.0714   -0.0000 C   0  0  0  0  0  0  0  0  0  0  0  0
    3.8085    2.3327   -0.0000 C   0  0  0  0  0  0  0  0  0  0  0  0
    6.4149    2.3327   -0.0000 C   0  0  0  0  0  0  0  0  0  0  0  0
    9.0094   -0.6665   -0.0000 N   0  0  0  0  0  0  0  0  0  0  0  0
    7.7122    1.5948   -0.0000 C   0  0  0  0  0  0  0  0  0  0  0  0
    2.4993    3.0944   -0.0000 N   0  0  0  0  0  0  0  0  0  0  0  0
    6.4030    3.8442   -0.0000 C   0  0  0  0  0  0  0  0  0  0  0  0
   10.2948    0.0952   -0.0000 C   0  0  0  0  0  0  0  0  0  0  0  0
   10.4257    1.6067   -0.0000 N   0  0  0  0  0  0  0  0  0  0  0  0
   11.6516   -0.4999   -0.0000 C   0  0  0  0  0  0  0  0  0  0  0  0
   11.8777    1.9280   -0.0000 N   0  0  0  0  0  0  0  0  0  0  0  0
   12.6394    0.6308   -0.0000 C   0  0  0  0  0  0  0  0  0  0  0  0
   14.1152    0.4880   -0.0000 C   0  0  0  0  0  0  0  0  0  0  0  0
  1  2  1  0  0  0  0
  1  3  1  0  0  0  0
  2  4  2  0  0  0  0
  2  5  1  0  0  0  0
  3  6  1  0  0  0  0
  4  7  1  0  0  0  0
  5  8  2  0  0  0  0
  6  9  1  0  0  0  0
  7 10  2  0  0  0  0
  9 11  1  0  0  0  0
 10 12  1  0  0  0  0
 11 13  2  0  0  0  0
 11 14  1  0  0  0  0
 13 15  1  0  0  0  0
 14 16  1  0  0  0  0
 14 17  2  0  0  0  0
 15 18  1  0  0  0  0
 15 19  2  0  0  0  0
 16 20  3  0  0  0  0
 17 21  1  0  0  0  0
 18 22  1  0  0  0  0
 22 23  2  0  0  0  0
 22 24  1  0  0  0  0
 23 25  1  0  0  0  0
 24 26  2  0  0  0  0
 26 27  1  0  0  0  0
  8 10  1  0  0  0  0
 17 19  1  0  0  0  0
 25 26  1  0  0  0  0
M  END
>  <MolRegNo>
2103285

>  <m>
=

>  <Value>
4500

>  <Unit>
nM

>  <Type>
IC50

>  <pValue>
5.35

>  <Ligand Efficiency>
0

>  <Binding Efficiency>
0

>  <Surface Efficiency>
0

>  <Assay Index>
1047295

>  <Assay Category>


>  <Assay Organism>
Homo sapiens

>  <Target ID>
17045

>  <Target Name>
Cytochrome P450 3A4

>  <Target Organism>
Homo sapiens

>  <Target Description>
Target is a single protein chain

>  <Sequence Accession>
P08684

>  <Reference>
Bioorg Med Chem Lett 26 (24), 5860-5862 (2016)

>  <Pubmed ID>
27884697

>  <DOI>
10.1016/j.bmcl.2016.11.020

$$$$
2146802
Actelion Java MolfileCreator 1.0

 27 29  0  0  0  0  0  0  0  0999 V2000
    0.0000   -0.0000   -0.0000 O   0  0  0  0  0  0  0  0  0  0  0  0
   -1.3095   -0.7381   -0.0000 C   0  0  0  0  0  0  0  0  0  0  0  0
    1.2857   -0.7381   -0.0000 C   0  0  0  0  0  0  0  0  0  0  0  0
   -1.3095   -2.2261   -0.0000 C   0  0  0  0  0  0  0  0  0  0  0  0
   -2.6190    0.0238   -0.0000 C   0  0  0  0  0  0  0  0  0  0  0  0
    2.5713    0.0238   -0.0000 C   0  0  0  0  0  0  0  0  0  0  0  0
   -2.6190   -2.9642   -0.0000 N   0  0  0  0  0  0  0  0  0  0  0  0
   -0.0119   -2.9642   -0.0000 C   0  0  0  0  0  0  0  0  0  0  0  0
   -3.9284   -0.7143   -0.0000 C   0  0  0  0  0  0  0  0  0  0  0  0
    3.8570   -0.7143   -0.0000 N   0  0  0  0  0  0  0  0  0  0  0  0
   -3.9403   -2.2023   -0.0000 C   0  0  0  0  0  0  0  0  0  0  0  0
    5.1427    0.0476   -0.0000 C   0  0  0  0  0  0  0  0  0  0  0  0
    6.4283   -0.6905   -0.0000 N   0  0  0  0  0  0  0  0  0  0  0  0
    5.1308    1.5714   -0.0000 C   0  0  0  0  0  0  0  0  0  0  0  0
    7.7259    0.0714   -0.0000 C   0  0  0  0  0  0  0  0  0  0  0  0
    3.8094    2.3333   -0.0000 C   0  0  0  0  0  0  0  0  0  0  0  0
    6.4164    2.3333   -0.0000 C   0  0  0  0  0  0  0  0  0  0  0  0
    9.0116   -0.6666   -0.0000 N   0  0  0  0  0  0  0  0  0  0  0  0
    7.7140    1.5952   -0.0000 C   0  0  0  0  0  0  0  0  0  0  0  0
    2.4999    3.0951   -0.0000 N   0  0  0  0  0  0  0  0  0  0  0  0
    6.4045    3.8451   -0.0000 C   0  0  0  0  0  0  0  0  0  0  0  0
   10.2973    0.0952   -0.0000 C   0  0  0  0  0  0  0  0  0  0  0  0
   10.4282    1.6071   -0.0000 N   0  0  0  0  0  0  0  0  0  0  0  0
   11.6544   -0.5000   -0.0000 C   0  0  0  0  0  0  0  0  0  0  0  0
   11.8805    1.9285   -0.0000 N   0  0  0  0  0  0  0  0  0  0  0  0
   12.6424    0.6309   -0.0000 C   0  0  0  0  0  0  0  0  0  0  0  0
   14.1186    0.4881   -0.0000 C   0  0  0  0  0  0  0  0  0  0  0  0
  1  2  1  0  0  0  0
  1  3  1  0  0  0  0
  2  4  2  0  0  0  0
  2  5  1  0  0  0  0
  3  6  1  0  0  0  0
  4  7  1  0  0  0  0
  4  8  1  0  0  0  0
  5  9  2  0  0  0  0
  6 10  1  0  0  0  0
  7 11  2  0  0  0  0
 10 12  1  0  0  0  0
 12 13  2  0  0  0  0
 12 14  1  0  0  0  0
 13 15  1  0  0  0  0
 14 16  1  0  0  0  0
 14 17  2  0  0  0  0
 15 18  1  0  0  0  0
 15 19  2  0  0  0  0
 16 20  3  0  0  0  0
 17 21  1  0  0  0  0
 18 22  1  0  0  0  0
 22 23  2  0  0  0  0
 22 24  1  0  0  0  0
 23 25  1  0  0  0  0
 24 26  2  0  0  0  0
 26 27  1  0  0  0  0
  9 11  1  0  0  0  0
 17 19  1  0  0  0  0
 25 26  1  0  0  0  0
M  END
>  <MolRegNo>
2146802

>  <m>
=

>  <Value>
1800

>  <Unit>
nM

>  <Type>
IC50

>  <pValue>
5.75

>  <Ligand Efficiency>
0

>  <Binding Efficiency>
0

>  <Surface Efficiency>
0

>  <Assay Index>
1047295

>  <Assay Category>


>  <Assay Organism>
Homo sapiens

>  <Target ID>
17045

>  <Target Name>
Cytochrome P450 3A4

>  <Target Organism>
Homo sapiens

>  <Target Description>
Target is a single protein chain

>  <Sequence Accession>
P08684

>  <Reference>
Bioorg Med Chem Lett 26 (24), 5860-5862 (2016)

>  <Pubmed ID>
27884697

>  <DOI>
10.1016/j.bmcl.2016.11.020

$$$$
2176507
Actelion Java MolfileCreator 1.0

 28 30  0  0  0  0  0  0  0  0999 V2000
    0.0000   -0.0000   -0.0000 O   0  0  0  0  0  0  0  0  0  0  0  0
   -1.3094   -0.7380   -0.0000 C   0  0  0  0  0  0  0  0  0  0  0  0
    1.2856   -0.7380   -0.0000 C   0  0  0  0  0  0  0  0  0  0  0  0
   -1.3094   -2.2260   -0.0000 C   0  0  0  0  0  0  0  0  0  0  0  0
   -2.6188    0.0238   -0.0000 C   0  0  0  0  0  0  0  0  0  0  0  0
    2.5712    0.0238   -0.0000 C   0  0  0  0  0  0  0  0  0  0  0  0
   -2.6188   -2.9640   -0.0000 N   0  0  0  0  0  0  0  0  0  0  0  0
   -0.0119   -2.9640   -0.0000 C   0  0  0  0  0  0  0  0  0  0  0  0
   -3.9282   -0.7142   -0.0000 C   0  0  0  0  0  0  0  0  0  0  0  0
    3.8567   -0.7142   -0.0000 N   0  0  0  0  0  0  0  0  0  0  0  0
   -3.9401   -2.2021   -0.0000 C   0  0  0  0  0  0  0  0  0  0  0  0
    5.1423    0.0476   -0.0000 C   0  0  0  0  0  0  0  0  0  0  0  0
   -5.2494   -2.9402   -0.0000 C   0  0  0  0  0  0  0  0  0  0  0  0
    6.4279   -0.6904   -0.0000 N   0  0  0  0  0  0  0  0  0  0  0  0
    5.1304    1.5713   -0.0000 C   0  0  0  0  0  0  0  0  0  0  0  0
    7.7254    0.0714   -0.0000 C   0  0  0  0  0  0  0  0  0  0  0  0
    3.8091    2.3331   -0.0000 C   0  0  0  0  0  0  0  0  0  0  0  0
    6.4160    2.3331   -0.0000 C   0  0  0  0  0  0  0  0  0  0  0  0
    9.0110   -0.6666   -0.0000 N   0  0  0  0  0  0  0  0  0  0  0  0
    7.7135    1.5951   -0.0000 C   0  0  0  0  0  0  0  0  0  0  0  0
    2.4997    3.0949   -0.0000 N   0  0  0  0  0  0  0  0  0  0  0  0
    6.4041    3.8448   -0.0000 C   0  0  0  0  0  0  0  0  0  0  0  0
   10.2965    0.0952   -0.0000 C   0  0  0  0  0  0  0  0  0  0  0  0
   10.4275    1.6070   -0.0000 N   0  0  0  0  0  0  0  0  0  0  0  0
   11.6535   -0.4999   -0.0000 C   0  0  0  0  0  0  0  0  0  0  0  0
   11.8797    1.9284   -0.0000 N   0  0  0  0  0  0  0  0  0  0  0  0
   12.6415    0.6309   -0.0000 C   0  0  0  0  0  0  0  0  0  0  0  0
   14.1176    0.4880   -0.0000 C   0  0  0  0  0  0  0  0  0  0  0  0
  1  2  1  0  0  0  0
  1  3  1  0  0  0  0
  2  4  2  0  0  0  0
  2  5  1  0  0  0  0
  3  6  1  0  0  0  0
  4  7  1  0  0  0  0
  4  8  1  0  0  0  0
  5  9  2  0  0  0  0
  6 10  1  0  0  0  0
  7 11  2  0  0  0  0
 10 12  1  0  0  0  0
 11 13  1  0  0  0  0
 12 14  2  0  0  0  0
 12 15  1  0  0  0  0
 14 16  1  0  0  0  0
 15 17  1  0  0  0  0
 15 18  2  0  0  0  0
 16 19  1  0  0  0  0
 16 20  2  0  0  0  0
 17 21  3  0  0  0  0
 18 22  1  0  0  0  0
 19 23  1  0  0  0  0
 23 24  2  0  0  0  0
 23 25  1  0  0  0  0
 24 26  1  0  0  0  0
 25 27  2  0  0  0  0
 27 28  1  0  0  0  0
  9 11  1  0  0  0  0
 18 20  1  0  0  0  0
 26 27  1  0  0  0  0
M  END
>  <MolRegNo>
2176507

>  <m>
=

>  <Value>
1700

>  <Unit>
nM

>  <Type>
IC50

>  <pValue>
5.77

>  <Ligand Efficiency>
0

>  <Binding Efficiency>
0

>  <Surface Efficiency>
0

>  <Assay Index>
1047295

>  <Assay Category>


>  <Assay Organism>
Homo sapiens

>  <Target ID>
17045

>  <Target Name>
Cytochrome P450 3A4

>  <Target Organism>
Homo sapiens

>  <Target Description>
Target is a single protein chain

>  <Sequence Accession>
P08684

>  <Reference>
Bioorg Med Chem Lett 26 (24), 5860-5862 (2016)

>  <Pubmed ID>
27884697

>  <DOI>
10.1016/j.bmcl.2016.11.020

$$$$
2137791
Actelion Java MolfileCreator 1.0

 28 30  0  0  0  0  0  0  0  0999 V2000
    0.0000   -0.0000   -0.0000 O   0  0  0  0  0  0  0  0  0  0  0  0
   -1.3087   -0.7377   -0.0000 C   0  0  0  0  0  0  0  0  0  0  0  0
    1.2849   -0.7377   -0.0000 C   0  0  0  0  0  0  0  0  0  0  0  0
   -1.3087   -2.2249   -0.0000 C   0  0  0  0  0  0  0  0  0  0  0  0
   -2.6175    0.0238   -0.0000 C   0  0  0  0  0  0  0  0  0  0  0  0
    2.5699    0.0238   -0.0000 C   0  0  0  0  0  0  0  0  0  0  0  0
   -2.6175   -2.9625   -0.0000 N   0  0  0  0  0  0  0  0  0  0  0  0
   -3.9262   -0.7139   -0.0000 C   0  0  0  0  0  0  0  0  0  0  0  0
    3.8548   -0.7139   -0.0000 N   0  0  0  0  0  0  0  0  0  0  0  0
   -3.9381   -2.2011   -0.0000 C   0  0  0  0  0  0  0  0  0  0  0  0
    5.1398    0.0476   -0.0000 C   0  0  0  0  0  0  0  0  0  0  0  0
   -5.2469   -2.9387   -0.0000 C   0  0  0  0  0  0  0  0  0  0  0  0
    6.4247   -0.6901   -0.0000 N   0  0  0  0  0  0  0  0  0  0  0  0
    5.1279    1.5705   -0.0000 C   0  0  0  0  0  0  0  0  0  0  0  0
   -6.5556   -2.1773   -0.0000 C   0  0  0  0  0  0  0  0  0  0  0  0
    7.7216    0.0714   -0.0000 C   0  0  0  0  0  0  0  0  0  0  0  0
    3.8072    2.3319   -0.0000 C   0  0  0  0  0  0  0  0  0  0  0  0
    6.4128    2.3319   -0.0000 C   0  0  0  0  0  0  0  0  0  0  0  0
    9.0065   -0.6663   -0.0000 N   0  0  0  0  0  0  0  0  0  0  0  0
    7.7097    1.5943   -0.0000 C   0  0  0  0  0  0  0  0  0  0  0  0
    2.4985    3.0934   -0.0000 N   0  0  0  0  0  0  0  0  0  0  0  0
    6.4009    3.8429   -0.0000 C   0  0  0  0  0  0  0  0  0  0  0  0
   10.2915    0.0952   -0.0000 C   0  0  0  0  0  0  0  0  0  0  0  0
   10.4223    1.6062   -0.0000 N   0  0  0  0  0  0  0  0  0  0  0  0
   11.6478   -0.4997   -0.0000 C   0  0  0  0  0  0  0  0  0  0  0  0
   11.8738    1.9274   -0.0000 N   0  0  0  0  0  0  0  0  0  0  0  0
   12.6353    0.6306   -0.0000 C   0  0  0  0  0  0  0  0  0  0  0  0
   14.1106    0.4878   -0.0000 C   0  0  0  0  0  0  0  0  0  0  0  0
  1  2  1  0  0  0  0
  1  3  1  0  0  0  0
  2  4  2  0  0  0  0
  2  5  1  0  0  0  0
  3  6  1  0  0  0  0
  4  7  1  0  0  0  0
  5  8  2  0  0  0  0
  6  9  1  0  0  0  0
  7 10  2  0  0  0  0
  9 11  1  0  0  0  0
 10 12  1  0  0  0  0
 11 13  2  0  0  0  0
 11 14  1  0  0  0  0
 12 15  1  0  0  0  0
 13 16  1  0  0  0  0
 14 17  1  0  0  0  0
 14 18  2  0  0  0  0
 16 19  1  0  0  0  0
 16 20  2  0  0  0  0
 17 21  3  0  0  0  0
 18 22  1  0  0  0  0
 19 23  1  0  0  0  0
 23 24  2  0  0  0  0
 23 25  1  0  0  0  0
 24 26  1  0  0  0  0
 25 27  2  0  0  0  0
 27 28  1  0  0  0  0
  8 10  1  0  0  0  0
 18 20  1  0  0  0  0
 26 27  1  0  0  0  0
M  END
>  <MolRegNo>
2137791

>  <m>
=

>  <Value>
1600

>  <Unit>
nM

>  <Type>
IC50

>  <pValue>
5.8

>  <Ligand Efficiency>
0

>  <Binding Efficiency>
0

>  <Surface Efficiency>
0

>  <Assay Index>
1047295

>  <Assay Category>


>  <Assay Organism>
Homo sapiens

>  <Target ID>
17045

>  <Target Name>
Cytochrome P450 3A4

>  <Target Organism>
Homo sapiens

>  <Target Description>
Target is a single protein chain

>  <Sequence Accession>
P08684

>  <Reference>
Bioorg Med Chem Lett 26 (24), 5860-5862 (2016)

>  <Pubmed ID>
27884697

>  <DOI>
10.1016/j.bmcl.2016.11.020

$$$$
2157708
Actelion Java MolfileCreator 1.0

 23 27  0  0  0  0  0  0  0  0999 V2000
    0.0000   -0.0000   -0.0000 F   0  0  0  0  0  0  0  0  0  0  0  0
    1.2957    0.7726   -0.0000 C   0  0  0  0  0  0  0  0  0  0  0  0
    2.5795    0.0357   -0.0000 C   0  0  0  0  0  0  0  0  0  0  0  0
    1.2838    2.2942   -0.0000 C   0  0  0  0  0  0  0  0  0  0  0  0
    3.8751    0.7964   -0.0000 N   0  0  0  0  0  0  0  0  0  0  0  0
    2.5676    3.0668   -0.0000 C   0  0  0  0  0  0  0  0  0  0  0  0
    3.8514    2.3179   -0.0000 C   0  0  0  0  0  0  0  0  0  0  0  0
    5.3016    0.3447   -0.0000 C   0  0  0  0  0  0  0  0  0  0  0  0
    5.2778    2.8053   -0.0000 N   0  0  0  0  0  0  0  0  0  0  0  0
    6.1693    1.5810   -0.0000 C   0  0  0  0  0  0  0  0  0  0  0  0
    5.7651   -1.0698   -0.0000 C   0  0  0  0  0  0  0  0  0  0  0  0
    7.6552    1.6047   -0.0000 C   0  0  0  0  0  0  0  0  0  0  0  0
    5.4442   -2.5319   -0.0000 C   0  0  0  0  0  0  0  0  0  0  0  0
    6.8825   -2.0564   -0.0000 C   0  0  0  0  0  0  0  0  0  0  0  0
    8.4040    0.3091   -0.0000 C   0  0  0  0  0  0  0  0  0  0  0  0
    8.3803    2.9242   -0.0000 C   0  0  0  0  0  0  0  0  0  0  0  0
    9.9018    0.3328   -0.0000 C   0  0  0  0  0  0  0  0  0  0  0  0
    7.6552   -0.9866   -0.0000 C   0  0  0  0  0  0  0  0  0  0  0  0
    9.8780    2.9479   -0.0000 N   0  0  0  0  0  0  0  0  0  0  0  0
   10.6388    1.6523   -0.0000 C   0  0  0  0  0  0  0  0  0  0  0  0
   10.6507   -0.9510   -0.0000 C   0  0  0  0  0  0  0  0  0  0  0  0
    8.4040   -2.2704   -0.0000 C   0  0  0  0  0  0  0  0  0  0  0  0
    9.9018   -2.2466   -0.0000 C   0  0  0  0  0  0  0  0  0  0  0  0
  1  2  1  0  0  0  0
  2  3  2  0  0  0  0
  2  4  1  0  0  0  0
  3  5  1  0  0  0  0
  4  6  2  0  0  0  0
  5  7  1  0  0  0  0
  5  8  1  0  0  0  0
  7  9  2  0  0  0  0
  8 10  2  0  0  0  0
  8 11  1  0  0  0  0
 10 12  1  0  0  0  0
 11 13  1  0  0  0  0
 11 14  1  0  0  0  0
 12 15  1  0  0  0  0
 12 16  2  0  0  0  0
 15 17  1  0  0  0  0
 15 18  2  0  0  0  0
 16 19  1  0  0  0  0
 17 20  1  0  0  0  0
 17 21  2  0  0  0  0
 18 22  1  0  0  0  0
 21 23  1  0  0  0  0
  6  7  1  0  0  0  0
  9 10  1  0  0  0  0
 13 14  1  0  0  0  0
 19 20  2  0  0  0  0
 22 23  2  0  0  0  0
M  END
>  <MolRegNo>
2157708

>  <m>
=

>  <Value>
3500

>  <Unit>
nM

>  <Type>
IC50

>  <pValue>
5.46

>  <Ligand Efficiency>
0

>  <Binding Efficiency>
0

>  <Surface Efficiency>
0

>  <Assay Index>
1047479

>  <Assay Category>


>  <Assay Organism>
Homo sapiens

>  <Target ID>
17045

>  <Target Name>
Cytochrome P450 3A4

>  <Target Organism>
Homo sapiens

>  <Target Description>
Target is a single protein chain

>  <Sequence Accession>
P08684

>  <Reference>
Bioorg Med Chem Lett 27 (2), 143-146 (2017)

>  <Pubmed ID>
27979595

>  <DOI>
10.1016/j.bmcl.2016.12.003

$$$$
2133628
Actelion Java MolfileCreator 1.0

 21 24  0  0  0  0  0  0  0  0999 V2000
    0.0000   -0.0000   -0.0000 F   0  0  0  0  0  0  0  0  0  0  0  0
   -0.7646    1.3057   -0.0000 C   0  0  0  0  0  0  0  0  0  0  0  0
   -2.2703    1.3057   -0.0000 C   0  0  0  0  0  0  0  0  0  0  0  0
   -0.0353    2.6232   -0.0000 C   0  0  0  0  0  0  0  0  0  0  0  0
   -3.0349    2.6114   -0.0000 C   0  0  0  0  0  0  0  0  0  0  0  0
   -3.0232    0.0235   -0.0000 C   0  0  0  0  0  0  0  0  0  0  0  0
   -0.8117    3.9289   -0.0000 N   0  0  0  0  0  0  0  0  0  0  0  0
   -4.5406    2.6114   -0.0000 C   0  0  0  0  0  0  0  0  0  0  0  0
   -2.3056    3.9172   -0.0000 C   0  0  0  0  0  0  0  0  0  0  0  0
   -5.4346    3.8348   -0.0000 N   0  0  0  0  0  0  0  0  0  0  0  0
   -5.4229    1.4116   -0.0000 C   0  0  0  0  0  0  0  0  0  0  0  0
   -6.8697    3.3761   -0.0000 C   0  0  0  0  0  0  0  0  0  0  0  0
   -6.8580    1.8821   -0.0000 N   0  0  0  0  0  0  0  0  0  0  0  0
   -4.9641    0.0118   -0.0000 C   0  0  0  0  0  0  0  0  0  0  0  0
   -8.1755    4.1407   -0.0000 C   0  0  0  0  0  0  0  0  0  0  0  0
   -8.1637    1.1528   -0.0000 C   0  0  0  0  0  0  0  0  0  0  0  0
   -5.2817   -1.4351   -0.0000 C   0  0  0  0  0  0  0  0  0  0  0  0
   -3.8584   -0.9764   -0.0000 C   0  0  0  0  0  0  0  0  0  0  0  0
   -9.4812    3.3996   -0.0000 C   0  0  0  0  0  0  0  0  0  0  0  0
   -9.4694    1.9056   -0.0000 C   0  0  0  0  0  0  0  0  0  0  0  0
  -10.7752    1.1646   -0.0000 F   0  0  0  0  0  0  0  0  0  0  0  0
  1  2  1  0  0  0  0
  2  3  2  0  0  0  0
  2  4  1  0  0  0  0
  3  5  1  0  0  0  0
  3  6  1  0  0  0  0
  4  7  2  0  0  0  0
  5  8  1  0  0  0  0
  5  9  2  0  0  0  0
  8 10  1  0  0  0  0
  8 11  2  0  0  0  0
 10 12  2  0  0  0  0
 11 13  1  0  0  0  0
 11 14  1  0  0  0  0
 12 15  1  0  0  0  0
 13 16  1  0  0  0  0
 14 17  1  0  0  0  0
 14 18  1  0  0  0  0
 15 19  2  0  0  0  0
 16 20  2  0  0  0  0
 20 21  1  0  0  0  0
  7  9  1  0  0  0  0
 12 13  1  0  0  0  0
 17 18  1  0  0  0  0
 19 20  1  0  0  0  0
M  END
>  <MolRegNo>
2133628

>  <m>
=

>  <Value>
11000

>  <Unit>
nM

>  <Type>
IC50

>  <pValue>
4.96

>  <Ligand Efficiency>
0

>  <Binding Efficiency>
0

>  <Surface Efficiency>
0

>  <Assay Index>
1047479

>  <Assay Category>


>  <Assay Organism>
Homo sapiens

>  <Target ID>
17045

>  <Target Name>
Cytochrome P450 3A4

>  <Target Organism>
Homo sapiens

>  <Target Description>
Target is a single protein chain

>  <Sequence Accession>
P08684

>  <Reference>
Bioorg Med Chem Lett 27 (2), 143-146 (2017)

>  <Pubmed ID>
27979595

>  <DOI>
10.1016/j.bmcl.2016.12.003

$$$$
2129130
Actelion Java MolfileCreator 1.0

 22 25  0  0  0  0  0  0  0  0999 V2000
    0.0000   -0.0000   -0.0000 F   0  0  0  0  0  0  0  0  0  0  0  0
   -0.7646    1.3056   -0.0000 C   0  0  0  0  0  0  0  0  0  0  0  0
   -2.2702    1.3056   -0.0000 C   0  0  0  0  0  0  0  0  0  0  0  0
   -0.0353    2.6231   -0.0000 C   0  0  0  0  0  0  0  0  0  0  0  0
   -3.0347    2.6113   -0.0000 C   0  0  0  0  0  0  0  0  0  0  0  0
   -3.0230    0.0235   -0.0000 C   0  0  0  0  0  0  0  0  0  0  0  0
   -0.8116    3.9287   -0.0000 N   0  0  0  0  0  0  0  0  0  0  0  0
   -4.5404    2.6113   -0.0000 C   0  0  0  0  0  0  0  0  0  0  0  0
   -2.3172    3.9169   -0.0000 C   0  0  0  0  0  0  0  0  0  0  0  0
   -2.2819   -1.2586   -0.0000 C   0  0  0  0  0  0  0  0  0  0  0  0
   -5.4343    3.8346   -0.0000 N   0  0  0  0  0  0  0  0  0  0  0  0
   -5.4226    1.4115   -0.0000 C   0  0  0  0  0  0  0  0  0  0  0  0
   -6.8694    3.3759   -0.0000 C   0  0  0  0  0  0  0  0  0  0  0  0
   -6.8576    1.8820   -0.0000 N   0  0  0  0  0  0  0  0  0  0  0  0
   -4.9638    0.0118   -0.0000 C   0  0  0  0  0  0  0  0  0  0  0  0
   -8.1750    4.1404   -0.0000 C   0  0  0  0  0  0  0  0  0  0  0  0
   -8.1632    1.1527   -0.0000 C   0  0  0  0  0  0  0  0  0  0  0  0
   -5.2814   -1.4468   -0.0000 C   0  0  0  0  0  0  0  0  0  0  0  0
   -3.8581   -0.9763   -0.0000 C   0  0  0  0  0  0  0  0  0  0  0  0
   -9.4806    3.3994   -0.0000 C   0  0  0  0  0  0  0  0  0  0  0  0
   -9.4689    1.9055   -0.0000 C   0  0  0  0  0  0  0  0  0  0  0  0
  -10.7745    1.1645   -0.0000 F   0  0  0  0  0  0  0  0  0  0  0  0
  1  2  1  0  0  0  0
  2  3  2  0  0  0  0
  2  4  1  0  0  0  0
  3  5  1  0  0  0  0
  3  6  1  0  0  0  0
  4  7  2  0  0  0  0
  5  8  1  0  0  0  0
  5  9  2  0  0  0  0
  6 10  1  0  0  0  0
  8 11  1  0  0  0  0
  8 12  2  0  0  0  0
 11 13  2  0  0  0  0
 12 14  1  0  0  0  0
 12 15  1  0  0  0  0
 13 16  1  0  0  0  0
 14 17  1  0  0  0  0
 15 18  1  0  0  0  0
 15 19  1  0  0  0  0
 16 20  2  0  0  0  0
 17 21  2  0  0  0  0
 21 22  1  0  0  0  0
  7  9  1  0  0  0  0
 13 14  1  0  0  0  0
 18 19  1  0  0  0  0
 20 21  1  0  0  0  0
M  END
>  <MolRegNo>
2129130

>  <m>
=

>  <Value>
2800

>  <Unit>
nM

>  <Type>
IC50

>  <pValue>
5.55

>  <Ligand Efficiency>
0

>  <Binding Efficiency>
0

>  <Surface Efficiency>
0

>  <Assay Index>
1047479

>  <Assay Category>


>  <Assay Organism>
Homo sapiens

>  <Target ID>
17045

>  <Target Name>
Cytochrome P450 3A4

>  <Target Organism>
Homo sapiens

>  <Target Description>
Target is a single protein chain

>  <Sequence Accession>
P08684

>  <Reference>
Bioorg Med Chem Lett 27 (2), 143-146 (2017)

>  <Pubmed ID>
27979595

>  <DOI>
10.1016/j.bmcl.2016.12.003

$$$$
2194114
Actelion Java MolfileCreator 1.0

 30 32  0  0  0  0  0  0  0  0999 V2000
    0.0000   -0.0000   -0.0000 F   0  0  0  0  0  0  0  0  0  0  0  0
   -1.3371    0.6981   -0.0000 C   0  0  0  0  0  0  0  0  0  0  0  0
   -1.4199    2.2126   -0.0000 C   0  0  0  0  0  0  0  0  0  0  0  0
   -2.6268   -0.0947   -0.0000 C   0  0  0  0  0  0  0  0  0  0  0  0
   -0.1538    3.0172   -0.0000 C   0  0  0  0  0  0  0  0  0  0  0  0
   -2.7569    2.9226   -0.0000 C   0  0  0  0  0  0  0  0  0  0  0  0
   -3.9757    0.6153   -0.0000 C   0  0  0  0  0  0  0  0  0  0  0  0
   -0.2366    4.5318   -0.0000 C   0  0  0  0  0  0  0  0  0  0  0  0
    1.1714    2.3310   -0.0000 C   0  0  0  0  0  0  0  0  0  0  0  0
   -4.0348    2.1417   -0.0000 C   0  0  0  0  0  0  0  0  0  0  0  0
    1.0294    5.3482   -0.0000 C   0  0  0  0  0  0  0  0  0  0  0  0
    2.4256    3.1356   -0.0000 C   0  0  0  0  0  0  0  0  0  0  0  0
    2.3546    4.6619   -0.0000 C   0  0  0  0  0  0  0  0  0  0  0  0
    3.6089    5.4784   -0.0000 C   0  0  0  0  0  0  0  0  0  0  0  0
    3.5379    6.9811   -0.0000 O   0  0  0  0  0  0  0  0  0  0  0  0
    4.9341    4.7921   -0.0000 N   0  0  0  0  0  0  0  0  0  0  0  0
    6.1883    5.5967   -0.0000 C   0  0  0  0  0  0  0  0  0  0  0  0
    7.5017    4.9104   -0.0000 C   0  0  0  0  0  0  0  0  0  0  0  0
    6.1173    7.0994   -0.0000 C   0  0  0  0  0  0  0  0  0  0  0  0
    8.7559    5.7268   -0.0000 O   0  0  0  0  0  0  0  0  0  0  0  0
    7.5490    3.4314   -0.0000 O   0  0  0  0  0  0  0  0  0  0  0  0
    7.3715    7.9040   -0.0000 N   0  0  0  0  0  0  0  0  0  0  0  0
    8.8624    2.7451   -0.0000 C   0  0  0  0  0  0  0  0  0  0  0  0
    8.7559    7.3597   -0.0000 C   0  0  0  0  0  0  0  0  0  0  0  0
    7.4544    9.4067   -0.0000 C   0  0  0  0  0  0  0  0  0  0  0  0
    8.9097    1.2661   -0.0000 C   0  0  0  0  0  0  0  0  0  0  0  0
    9.7025    8.5311   -0.0000 N   0  0  0  0  0  0  0  0  0  0  0  0
    8.8979    9.7972   -0.0000 C   0  0  0  0  0  0  0  0  0  0  0  0
    7.6319    0.4851   -0.0000 C   0  0  0  0  0  0  0  0  0  0  0  0
   10.2231    0.5798   -0.0000 C   0  0  0  0  0  0  0  0  0  0  0  0
  1  2  1  0  0  0  0
  2  3  2  0  0  0  0
  2  4  1  0  0  0  0
  3  5  1  0  0  0  0
  3  6  1  0  0  0  0
  4  7  2  0  0  0  0
  5  8  2  0  0  0  0
  5  9  1  0  0  0  0
  6 10  2  0  0  0  0
  8 11  1  0  0  0  0
  9 12  2  0  0  0  0
 11 13  2  0  0  0  0
 13 14  1  0  0  0  0
 14 15  2  0  0  0  0
 14 16  1  0  0  0  0
 17 16  1  1  0  0  0
 17 18  1  0  0  0  0
 17 19  1  0  0  0  0
 18 20  2  0  0  0  0
 18 21  1  0  0  0  0
 19 22  1  0  0  0  0
 21 23  1  0  0  0  0
 22 24  1  0  0  0  0
 22 25  1  0  0  0  0
 23 26  1  0  0  0  0
 24 27  2  0  0  0  0
 25 28  2  0  0  0  0
 26 29  1  0  0  0  0
 26 30  1  0  0  0  0
  7 10  1  0  0  0  0
 12 13  1  0  0  0  0
 27 28  1  0  0  0  0
M  END
>  <MolRegNo>
2194114

>  <m>
=

>  <Value>
155

>  <Unit>
nM

>  <Type>
IC50

>  <pValue>
6.81

>  <Ligand Efficiency>
0

>  <Binding Efficiency>
0

>  <Surface Efficiency>
0

>  <Assay Index>
1050060

>  <Assay Category>


>  <Assay Organism>
Homo sapiens

>  <Target ID>
17045

>  <Target Name>
Cytochrome P450 3A4

>  <Target Organism>
Homo sapiens

>  <Target Description>
Target is a single protein chain

>  <Sequence Accession>
P08684

>  <Reference>
Bioorg Med Chem 25 (2), 750-758 (2017)

>  <Pubmed ID>
27955926

>  <DOI>
10.1016/j.bmc.2016.11.051

$$$$
2101947
Actelion Java MolfileCreator 1.0

 30 32  0  0  0  0  0  0  0  0999 V2000
    0.0000   -0.0000   -0.0000 F   0  0  0  0  0  0  0  0  0  0  0  0
   -0.7703   -1.2917   -0.0000 C   0  0  0  0  0  0  0  0  0  0  0  0
   -0.0237   -2.5835   -0.0000 C   0  0  0  0  0  0  0  0  0  0  0  0
   -2.2872   -1.2799   -0.0000 C   0  0  0  0  0  0  0  0  0  0  0  0
    1.4695   -2.5716   -0.0000 C   0  0  0  0  0  0  0  0  0  0  0  0
   -0.7940   -3.8752   -0.0000 C   0  0  0  0  0  0  0  0  0  0  0  0
   -3.0575   -2.5716   -0.0000 C   0  0  0  0  0  0  0  0  0  0  0  0
    2.2161   -1.2562   -0.0000 C   0  0  0  0  0  0  0  0  0  0  0  0
    2.2161   -3.8634   -0.0000 C   0  0  0  0  0  0  0  0  0  0  0  0
   -2.3109   -3.8634   -0.0000 C   0  0  0  0  0  0  0  0  0  0  0  0
    3.7093   -1.2443   -0.0000 C   0  0  0  0  0  0  0  0  0  0  0  0
    3.7093   -3.8515   -0.0000 C   0  0  0  0  0  0  0  0  0  0  0  0
    4.4559   -2.5361   -0.0000 C   0  0  0  0  0  0  0  0  0  0  0  0
    5.9491   -2.5242   -0.0000 C   0  0  0  0  0  0  0  0  0  0  0  0
    6.6957   -3.8160   -0.0000 O   0  0  0  0  0  0  0  0  0  0  0  0
    6.6957   -1.2088   -0.0000 N   0  0  0  0  0  0  0  0  0  0  0  0
    8.1889   -1.1969   -0.0000 C   0  0  0  0  0  0  0  0  0  0  0  0
    8.9355   -2.4887   -0.0000 C   0  0  0  0  0  0  0  0  0  0  0  0
    8.9355    0.1185   -0.0000 C   0  0  0  0  0  0  0  0  0  0  0  0
    8.1652   -3.7804   -0.0000 O   0  0  0  0  0  0  0  0  0  0  0  0
   10.4287   -2.4768   -0.0000 O   0  0  0  0  0  0  0  0  0  0  0  0
   10.4287    0.1304   -0.0000 N   0  0  0  0  0  0  0  0  0  0  0  0
   11.1753   -3.7686   -0.0000 C   0  0  0  0  0  0  0  0  0  0  0  0
   11.3057    1.3628   -0.0000 N   0  0  0  0  0  0  0  0  0  0  0  0
   11.3057   -1.0784   -0.0000 C   0  0  0  0  0  0  0  0  0  0  0  0
   12.6685   -3.7567   -0.0000 C   0  0  0  0  0  0  0  0  0  0  0  0
   12.7278    0.9125   -0.0000 C   0  0  0  0  0  0  0  0  0  0  0  0
   12.7278   -0.5925   -0.0000 N   0  0  0  0  0  0  0  0  0  0  0  0
   13.4151   -2.4413   -0.0000 C   0  0  0  0  0  0  0  0  0  0  0  0
   13.4151   -5.0484   -0.0000 C   0  0  0  0  0  0  0  0  0  0  0  0
  1  2  1  0  0  0  0
  2  3  2  0  0  0  0
  2  4  1  0  0  0  0
  3  5  1  0  0  0  0
  3  6  1  0  0  0  0
  4  7  2  0  0  0  0
  5  8  2  0  0  0  0
  5  9  1  0  0  0  0
  6 10  2  0  0  0  0
  8 11  1  0  0  0  0
  9 12  2  0  0  0  0
 11 13  2  0  0  0  0
 13 14  1  0  0  0  0
 14 15  2  0  0  0  0
 14 16  1  0  0  0  0
 17 16  1  1  0  0  0
 17 18  1  0  0  0  0
 17 19  1  0  0  0  0
 18 20  2  0  0  0  0
 18 21  1  0  0  0  0
 19 22  1  0  0  0  0
 21 23  1  0  0  0  0
 22 24  1  0  0  0  0
 22 25  1  0  0  0  0
 23 26  1  0  0  0  0
 24 27  2  0  0  0  0
 25 28  2  0  0  0  0
 26 29  1  0  0  0  0
 26 30  1  0  0  0  0
  7 10  1  0  0  0  0
 12 13  1  0  0  0  0
 27 28  1  0  0  0  0
M  END
>  <MolRegNo>
2101947

>  <m>
=

>  <Value>
227

>  <Unit>
nM

>  <Type>
IC50

>  <pValue>
6.64

>  <Ligand Efficiency>
0

>  <Binding Efficiency>
0

>  <Surface Efficiency>
0

>  <Assay Index>
1050060

>  <Assay Category>


>  <Assay Organism>
Homo sapiens

>  <Target ID>
17045

>  <Target Name>
Cytochrome P450 3A4

>  <Target Organism>
Homo sapiens

>  <Target Description>
Target is a single protein chain

>  <Sequence Accession>
P08684

>  <Reference>
Bioorg Med Chem 25 (2), 750-758 (2017)

>  <Pubmed ID>
27955926

>  <DOI>
10.1016/j.bmc.2016.11.051

$$$$
2105793
Actelion Java MolfileCreator 1.0

 32 35  0  0  0  0  0  0  0  0999 V2000
    0.0000   -0.0000   -0.0000 Cl  0  0  0  0  0  0  0  0  0  0  0  0
   -0.0119   -1.4922   -0.0000 C   0  0  0  0  0  0  0  0  0  0  0  0
    1.2774   -2.2324   -0.0000 C   0  0  0  0  0  0  0  0  0  0  0  0
   -1.3251   -2.2324   -0.0000 C   0  0  0  0  0  0  0  0  0  0  0  0
    1.2774   -3.7366   -0.0000 C   0  0  0  0  0  0  0  0  0  0  0  0
    2.6980   -1.7429   -0.0000 C   0  0  0  0  0  0  0  0  0  0  0  0
   -1.3370   -3.7246   -0.0000 C   0  0  0  0  0  0  0  0  0  0  0  0
   -0.0478   -4.4767   -0.0000 N   0  0  0  0  0  0  0  0  0  0  0  0
    2.7099   -4.1902   -0.0000 N   0  0  0  0  0  0  0  0  0  0  0  0
    3.4262   -0.4178   -0.0000 C   0  0  0  0  0  0  0  0  0  0  0  0
    3.5814   -2.9487   -0.0000 C   0  0  0  0  0  0  0  0  0  0  0  0
    2.6502    0.8953   -0.0000 O   0  0  0  0  0  0  0  0  0  0  0  0
    4.9184   -0.3940   -0.0000 C   0  0  0  0  0  0  0  0  0  0  0  0
    5.6586   -1.6832   -0.0000 C   0  0  0  0  0  0  0  0  0  0  0  0
    5.6466    0.9192   -0.0000 C   0  0  0  0  0  0  0  0  0  0  0  0
    4.8946   -2.9725   -0.0000 F   0  0  0  0  0  0  0  0  0  0  0  0
    7.1508   -1.6594   -0.0000 C   0  0  0  0  0  0  0  0  0  0  0  0
    4.8707    2.2324   -0.0000 F   0  0  0  0  0  0  0  0  0  0  0  0
    7.1389    0.9431   -0.0000 C   0  0  0  0  0  0  0  0  0  0  0  0
    7.9029   -2.9487   -0.0000 N   0  0  0  0  0  0  0  0  0  0  0  0
    7.8790   -0.3343   -0.0000 C   0  0  0  0  0  0  0  0  0  0  0  0
    9.3952   -2.9248   -0.0000 S   0  0  0  0  0  0  0  0  0  0  0  0
    9.3713   -1.4087   -0.0000 O   0  0  0  0  0  0  0  0  0  0  0  0
   10.6845   -2.1488   -0.0000 O   0  0  0  0  0  0  0  0  0  0  0  0
   10.1472   -4.2141   -0.0000 C   0  0  0  0  0  0  0  0  0  0  0  0
    9.3832   -5.5034   -0.0000 C   0  0  0  0  0  0  0  0  0  0  0  0
   11.6395   -4.1902   -0.0000 C   0  0  0  0  0  0  0  0  0  0  0  0
    7.8671   -5.5034   -0.0000 F   0  0  0  0  0  0  0  0  0  0  0  0
   10.1353   -6.7927   -0.0000 C   0  0  0  0  0  0  0  0  0  0  0  0
   12.3916   -5.4676   -0.0000 C   0  0  0  0  0  0  0  0  0  0  0  0
   11.6276   -6.7688   -0.0000 C   0  0  0  0  0  0  0  0  0  0  0  0
   13.8838   -5.4437   -0.0000 F   0  0  0  0  0  0  0  0  0  0  0  0
  1  2  1  0  0  0  0
  2  3  2  0  0  0  0
  2  4  1  0  0  0  0
  3  5  1  0  0  0  0
  3  6  1  0  0  0  0
  4  7  2  0  0  0  0
  5  8  2  0  0  0  0
  5  9  1  0  0  0  0
  6 10  1  0  0  0  0
  6 11  2  0  0  0  0
 10 12  2  0  0  0  0
 10 13  1  0  0  0  0
 13 14  2  0  0  0  0
 13 15  1  0  0  0  0
 14 16  1  0  0  0  0
 14 17  1  0  0  0  0
 15 18  1  0  0  0  0
 15 19  2  0  0  0  0
 17 20  1  0  0  0  0
 17 21  2  0  0  0  0
 20 22  1  0  0  0  0
 22 23  2  0  0  0  0
 22 24  2  0  0  0  0
 22 25  1  0  0  0  0
 25 26  2  0  0  0  0
 25 27  1  0  0  0  0
 26 28  1  0  0  0  0
 26 29  1  0  0  0  0
 27 30  2  0  0  0  0
 29 31  2  0  0  0  0
 30 32  1  0  0  0  0
  7  8  1  0  0  0  0
  9 11  1  0  0  0  0
 19 21  1  0  0  0  0
 30 31  1  0  0  0  0
M  END
>  <MolRegNo>
2105793

>  <m>
=

>  <Value>
5000

>  <Unit>
nM

>  <Type>
IC50

>  <pValue>
5.3

>  <Ligand Efficiency>
0

>  <Binding Efficiency>
0

>  <Surface Efficiency>
0

>  <Assay Index>
1055099

>  <Assay Category>


>  <Assay Organism>
Homo sapiens

>  <Target ID>
17045

>  <Target Name>
Cytochrome P450 3A4

>  <Target Organism>
Homo sapiens

>  <Target Description>
Target is a single protein chain

>  <Sequence Accession>
P08684

>  <Reference>


>  <Pubmed ID>


>  <DOI>


$$$$
2190684
Actelion Java MolfileCreator 1.0

 31 34  0  0  0  0  0  0  0  0999 V2000
    0.0000   -0.0000   -0.0000 Cl  0  0  0  0  0  0  0  0  0  0  0  0
   -0.0119   -1.4925   -0.0000 C   0  0  0  0  0  0  0  0  0  0  0  0
    1.2776   -2.2328   -0.0000 C   0  0  0  0  0  0  0  0  0  0  0  0
   -1.3254   -2.2328   -0.0000 C   0  0  0  0  0  0  0  0  0  0  0  0
    1.2776   -3.7373   -0.0000 C   0  0  0  0  0  0  0  0  0  0  0  0
    2.6985   -1.7433   -0.0000 C   0  0  0  0  0  0  0  0  0  0  0  0
   -1.3373   -3.7254   -0.0000 C   0  0  0  0  0  0  0  0  0  0  0  0
   -0.0478   -4.4776   -0.0000 N   0  0  0  0  0  0  0  0  0  0  0  0
    2.7105   -4.1911   -0.0000 N   0  0  0  0  0  0  0  0  0  0  0  0
    3.4269   -0.4179   -0.0000 C   0  0  0  0  0  0  0  0  0  0  0  0
    3.5821   -2.9493   -0.0000 C   0  0  0  0  0  0  0  0  0  0  0  0
    2.6508    0.8955   -0.0000 O   0  0  0  0  0  0  0  0  0  0  0  0
    4.9194   -0.3940   -0.0000 C   0  0  0  0  0  0  0  0  0  0  0  0
    5.6597   -1.6836   -0.0000 C   0  0  0  0  0  0  0  0  0  0  0  0
    5.6478    0.9194   -0.0000 C   0  0  0  0  0  0  0  0  0  0  0  0
    4.8955   -2.9731   -0.0000 F   0  0  0  0  0  0  0  0  0  0  0  0
    7.1523   -1.6597   -0.0000 C   0  0  0  0  0  0  0  0  0  0  0  0
    4.8717    2.2328   -0.0000 F   0  0  0  0  0  0  0  0  0  0  0  0
    7.1403    0.9433   -0.0000 C   0  0  0  0  0  0  0  0  0  0  0  0
    7.9045   -2.9493   -0.0000 N   0  0  0  0  0  0  0  0  0  0  0  0
    7.8806   -0.3343   -0.0000 C   0  0  0  0  0  0  0  0  0  0  0  0
    9.3970   -2.9254   -0.0000 S   0  0  0  0  0  0  0  0  0  0  0  0
    9.3732   -1.4090   -0.0000 O   0  0  0  0  0  0  0  0  0  0  0  0
   10.6866   -2.1493   -0.0000 O   0  0  0  0  0  0  0  0  0  0  0  0
   10.1493   -4.2149   -0.0000 C   0  0  0  0  0  0  0  0  0  0  0  0
   11.6418   -4.1911   -0.0000 C   0  0  0  0  0  0  0  0  0  0  0  0
    9.3851   -5.5045   -0.0000 C   0  0  0  0  0  0  0  0  0  0  0  0
   12.3941   -5.4687   -0.0000 C   0  0  0  0  0  0  0  0  0  0  0  0
   10.1373   -6.7940   -0.0000 C   0  0  0  0  0  0  0  0  0  0  0  0
   13.8866   -5.4448   -0.0000 F   0  0  0  0  0  0  0  0  0  0  0  0
   11.6418   -6.7702   -0.0000 C   0  0  0  0  0  0  0  0  0  0  0  0
  1  2  1  0  0  0  0
  2  3  2  0  0  0  0
  2  4  1  0  0  0  0
  3  5  1  0  0  0  0
  3  6  1  0  0  0  0
  4  7  2  0  0  0  0
  5  8  2  0  0  0  0
  5  9  1  0  0  0  0
  6 10  1  0  0  0  0
  6 11  2  0  0  0  0
 10 12  2  0  0  0  0
 10 13  1  0  0  0  0
 13 14  2  0  0  0  0
 13 15  1  0  0  0  0
 14 16  1  0  0  0  0
 14 17  1  0  0  0  0
 15 18  1  0  0  0  0
 15 19  2  0  0  0  0
 17 20  1  0  0  0  0
 17 21  2  0  0  0  0
 20 22  1  0  0  0  0
 22 23  2  0  0  0  0
 22 24  2  0  0  0  0
 22 25  1  0  0  0  0
 25 26  2  0  0  0  0
 25 27  1  0  0  0  0
 26 28  1  0  0  0  0
 27 29  2  0  0  0  0
 28 30  1  0  0  0  0
 28 31  2  0  0  0  0
  7  8  1  0  0  0  0
  9 11  1  0  0  0  0
 19 21  1  0  0  0  0
 29 31  1  0  0  0  0
M  END
>  <MolRegNo>
2190684

>  <m>
=

>  <Value>
5000

>  <Unit>
nM

>  <Type>
IC50

>  <pValue>
5.3

>  <Ligand Efficiency>
0

>  <Binding Efficiency>
0

>  <Surface Efficiency>
0

>  <Assay Index>
1055099

>  <Assay Category>


>  <Assay Organism>
Homo sapiens

>  <Target ID>
17045

>  <Target Name>
Cytochrome P450 3A4

>  <Target Organism>
Homo sapiens

>  <Target Description>
Target is a single protein chain

>  <Sequence Accession>
P08684

>  <Reference>


>  <Pubmed ID>


>  <DOI>


$$$$
2158970
Actelion Java MolfileCreator 1.0

 33 36  0  0  0  0  0  0  0  0999 V2000
    0.0000   -0.0000   -0.0000 S   0  0  0  0  0  0  0  0  0  0  0  0
   -0.0237    1.5076   -0.0000 O   0  0  0  0  0  0  0  0  0  0  0  0
    1.2820    0.7716   -0.0000 O   0  0  0  0  0  0  0  0  0  0  0  0
   -1.5076   -0.0000   -0.0000 N   0  0  0  0  0  0  0  0  0  0  0  0
    0.7479   -1.2820   -0.0000 C   0  0  0  0  0  0  0  0  0  0  0  0
   -2.2792    1.3058   -0.0000 C   0  0  0  0  0  0  0  0  0  0  0  0
   -0.0119   -2.5641   -0.0000 C   0  0  0  0  0  0  0  0  0  0  0  0
    2.2317   -1.2583   -0.0000 C   0  0  0  0  0  0  0  0  0  0  0  0
   -3.7867    1.3058   -0.0000 C   0  0  0  0  0  0  0  0  0  0  0  0
   -1.5551    2.6234   -0.0000 C   0  0  0  0  0  0  0  0  0  0  0  0
   -1.5194   -2.5641   -0.0000 F   0  0  0  0  0  0  0  0  0  0  0  0
    0.7360   -3.8461   -0.0000 C   0  0  0  0  0  0  0  0  0  0  0  0
    2.9795   -2.5284   -0.0000 C   0  0  0  0  0  0  0  0  0  0  0  0
   -4.5465    0.0237   -0.0000 F   0  0  0  0  0  0  0  0  0  0  0  0
   -4.5465    2.6115   -0.0000 C   0  0  0  0  0  0  0  0  0  0  0  0
   -2.3266    3.9292   -0.0000 C   0  0  0  0  0  0  0  0  0  0  0  0
    2.2198   -3.8223   -0.0000 C   0  0  0  0  0  0  0  0  0  0  0  0
    4.4634   -2.5047   -0.0000 F   0  0  0  0  0  0  0  0  0  0  0  0
   -3.8223    3.9173   -0.0000 C   0  0  0  0  0  0  0  0  0  0  0  0
   -6.0540    2.6115   -0.0000 C   0  0  0  0  0  0  0  0  0  0  0  0
   -4.5939    5.2231   -0.0000 F   0  0  0  0  0  0  0  0  0  0  0  0
   -6.8256    3.9173   -0.0000 O   0  0  0  0  0  0  0  0  0  0  0  0
   -6.8019    1.3176   -0.0000 C   0  0  0  0  0  0  0  0  0  0  0  0
   -8.2382    0.8547   -0.0000 C   0  0  0  0  0  0  0  0  0  0  0  0
   -5.9234    0.1187   -0.0000 C   0  0  0  0  0  0  0  0  0  0  0  0
   -9.5440    1.6144   -0.0000 C   0  0  0  0  0  0  0  0  0  0  0  0
   -8.2382   -0.6410   -0.0000 C   0  0  0  0  0  0  0  0  0  0  0  0
   -6.8137   -1.0921   -0.0000 N   0  0  0  0  0  0  0  0  0  0  0  0
   -9.5559    3.1220   -0.0000 O   0  0  0  0  0  0  0  0  0  0  0  0
  -10.8498    0.8784   -0.0000 C   0  0  0  0  0  0  0  0  0  0  0  0
   -9.5559   -1.3770   -0.0000 N   0  0  0  0  0  0  0  0  0  0  0  0
  -10.8616    3.8817   -0.0000 C   0  0  0  0  0  0  0  0  0  0  0  0
  -10.8616   -0.6054   -0.0000 C   0  0  0  0  0  0  0  0  0  0  0  0
  1  2  2  0  0  0  0
  1  3  2  0  0  0  0
  1  4  1  0  0  0  0
  1  5  1  0  0  0  0
  4  6  1  0  0  0  0
  5  7  2  0  0  0  0
  5  8  1  0  0  0  0
  6  9  2  0  0  0  0
  6 10  1  0  0  0  0
  7 11  1  0  0  0  0
  7 12  1  0  0  0  0
  8 13  2  0  0  0  0
  9 14  1  0  0  0  0
  9 15  1  0  0  0  0
 10 16  2  0  0  0  0
 12 17  2  0  0  0  0
 13 18  1  0  0  0  0
 15 19  2  0  0  0  0
 15 20  1  0  0  0  0
 19 21  1  0  0  0  0
 20 22  2  0  0  0  0
 20 23  1  0  0  0  0
 23 24  1  0  0  0  0
 23 25  2  0  0  0  0
 24 26  2  0  0  0  0
 24 27  1  0  0  0  0
 25 28  1  0  0  0  0
 26 29  1  0  0  0  0
 26 30  1  0  0  0  0
 27 31  2  0  0  0  0
 29 32  1  0  0  0  0
 30 33  2  0  0  0  0
 13 17  1  0  0  0  0
 16 19  1  0  0  0  0
 27 28  1  0  0  0  0
 31 33  1  0  0  0  0
M  END
>  <MolRegNo>
2158970

>  <m>
=

>  <Value>
5000

>  <Unit>
nM

>  <Type>
IC50

>  <pValue>
5.3

>  <Ligand Efficiency>
0

>  <Binding Efficiency>
0

>  <Surface Efficiency>
0

>  <Assay Index>
1055099

>  <Assay Category>


>  <Assay Organism>
Homo sapiens

>  <Target ID>
17045

>  <Target Name>
Cytochrome P450 3A4

>  <Target Organism>
Homo sapiens

>  <Target Description>
Target is a single protein chain

>  <Sequence Accession>
P08684

>  <Reference>


>  <Pubmed ID>


>  <DOI>


$$$$
2165936
Actelion Java MolfileCreator 1.0

 32 35  0  0  0  0  0  0  0  0999 V2000
    0.0000   -0.0000   -0.0000 S   0  0  0  0  0  0  0  0  0  0  0  0
   -0.0237    1.5076   -0.0000 O   0  0  0  0  0  0  0  0  0  0  0  0
    1.2821    0.7716   -0.0000 O   0  0  0  0  0  0  0  0  0  0  0  0
   -1.5076   -0.0000   -0.0000 N   0  0  0  0  0  0  0  0  0  0  0  0
    0.7479   -1.2821   -0.0000 C   0  0  0  0  0  0  0  0  0  0  0  0
   -2.2792    1.3058   -0.0000 C   0  0  0  0  0  0  0  0  0  0  0  0
    2.2318   -1.2583   -0.0000 C   0  0  0  0  0  0  0  0  0  0  0  0
   -0.0119   -2.5641   -0.0000 C   0  0  0  0  0  0  0  0  0  0  0  0
   -3.7869    1.3058   -0.0000 C   0  0  0  0  0  0  0  0  0  0  0  0
   -1.5551    2.6235   -0.0000 C   0  0  0  0  0  0  0  0  0  0  0  0
    2.9796   -2.5285   -0.0000 C   0  0  0  0  0  0  0  0  0  0  0  0
    0.7360   -3.8462   -0.0000 C   0  0  0  0  0  0  0  0  0  0  0  0
   -4.5466    0.0237   -0.0000 F   0  0  0  0  0  0  0  0  0  0  0  0
   -4.5466    2.6116   -0.0000 C   0  0  0  0  0  0  0  0  0  0  0  0
   -2.3267    3.9293   -0.0000 C   0  0  0  0  0  0  0  0  0  0  0  0
    4.4635   -2.5048   -0.0000 F   0  0  0  0  0  0  0  0  0  0  0  0
    2.2318   -3.8225   -0.0000 C   0  0  0  0  0  0  0  0  0  0  0  0
   -3.8225    3.9174   -0.0000 C   0  0  0  0  0  0  0  0  0  0  0  0
   -6.0542    2.6116   -0.0000 C   0  0  0  0  0  0  0  0  0  0  0  0
   -4.5941    5.2232   -0.0000 F   0  0  0  0  0  0  0  0  0  0  0  0
   -6.8258    3.9174   -0.0000 O   0  0  0  0  0  0  0  0  0  0  0  0
   -6.8021    1.3177   -0.0000 C   0  0  0  0  0  0  0  0  0  0  0  0
   -8.2385    0.8547   -0.0000 C   0  0  0  0  0  0  0  0  0  0  0  0
   -5.9236    0.1187   -0.0000 C   0  0  0  0  0  0  0  0  0  0  0  0
   -9.5443    1.6145   -0.0000 C   0  0  0  0  0  0  0  0  0  0  0  0
   -8.2385   -0.6410   -0.0000 C   0  0  0  0  0  0  0  0  0  0  0  0
   -6.8140   -1.0921   -0.0000 N   0  0  0  0  0  0  0  0  0  0  0  0
   -9.5562    3.1221   -0.0000 O   0  0  0  0  0  0  0  0  0  0  0  0
  -10.8501    0.8785   -0.0000 C   0  0  0  0  0  0  0  0  0  0  0  0
   -9.5562   -1.3770   -0.0000 N   0  0  0  0  0  0  0  0  0  0  0  0
  -10.8620    3.8818   -0.0000 C   0  0  0  0  0  0  0  0  0  0  0  0
  -10.8620   -0.6054   -0.0000 C   0  0  0  0  0  0  0  0  0  0  0  0
  1  2  2  0  0  0  0
  1  3  2  0  0  0  0
  1  4  1  0  0  0  0
  1  5  1  0  0  0  0
  4  6  1  0  0  0  0
  5  7  2  0  0  0  0
  5  8  1  0  0  0  0
  6  9  2  0  0  0  0
  6 10  1  0  0  0  0
  7 11  1  0  0  0  0
  8 12  2  0  0  0  0
  9 13  1  0  0  0  0
  9 14  1  0  0  0  0
 10 15  2  0  0  0  0
 11 16  1  0  0  0  0
 11 17  2  0  0  0  0
 14 18  2  0  0  0  0
 14 19  1  0  0  0  0
 18 20  1  0  0  0  0
 19 21  2  0  0  0  0
 19 22  1  0  0  0  0
 22 23  1  0  0  0  0
 22 24  2  0  0  0  0
 23 25  2  0  0  0  0
 23 26  1  0  0  0  0
 24 27  1  0  0  0  0
 25 28  1  0  0  0  0
 25 29  1  0  0  0  0
 26 30  2  0  0  0  0
 28 31  1  0  0  0  0
 29 32  2  0  0  0  0
 12 17  1  0  0  0  0
 15 18  1  0  0  0  0
 26 27  1  0  0  0  0
 30 32  1  0  0  0  0
M  END
>  <MolRegNo>
2165936

>  <m>
=

>  <Value>
5000

>  <Unit>
nM

>  <Type>
IC50

>  <pValue>
5.3

>  <Ligand Efficiency>
0

>  <Binding Efficiency>
0

>  <Surface Efficiency>
0

>  <Assay Index>
1055099

>  <Assay Category>


>  <Assay Organism>
Homo sapiens

>  <Target ID>
17045

>  <Target Name>
Cytochrome P450 3A4

>  <Target Organism>
Homo sapiens

>  <Target Description>
Target is a single protein chain

>  <Sequence Accession>
P08684

>  <Reference>


>  <Pubmed ID>


>  <DOI>


$$$$
2163766
Actelion Java MolfileCreator 1.0

 32 35  0  0  0  0  0  0  0  0999 V2000
    0.0000   -0.0000   -0.0000 S   0  0  0  0  0  0  0  0  0  0  0  0
   -0.0237    1.5068   -0.0000 O   0  0  0  0  0  0  0  0  0  0  0  0
    1.2814    0.7712   -0.0000 O   0  0  0  0  0  0  0  0  0  0  0  0
   -1.5068   -0.0000   -0.0000 N   0  0  0  0  0  0  0  0  0  0  0  0
    0.7475   -1.2814   -0.0000 C   0  0  0  0  0  0  0  0  0  0  0  0
   -2.2781    1.3051   -0.0000 C   0  0  0  0  0  0  0  0  0  0  0  0
   -0.0119   -2.5628   -0.0000 C   0  0  0  0  0  0  0  0  0  0  0  0
    2.2306   -1.2577   -0.0000 C   0  0  0  0  0  0  0  0  0  0  0  0
   -3.7849    1.3051   -0.0000 C   0  0  0  0  0  0  0  0  0  0  0  0
   -1.5543    2.6222   -0.0000 C   0  0  0  0  0  0  0  0  0  0  0  0
   -1.5187   -2.5628   -0.0000 F   0  0  0  0  0  0  0  0  0  0  0  0
    0.7356   -3.8442   -0.0000 C   0  0  0  0  0  0  0  0  0  0  0  0
    2.9781   -2.5272   -0.0000 C   0  0  0  0  0  0  0  0  0  0  0  0
   -4.5443    0.0237   -0.0000 F   0  0  0  0  0  0  0  0  0  0  0  0
   -4.5443    2.6103   -0.0000 C   0  0  0  0  0  0  0  0  0  0  0  0
   -2.3255    3.9273   -0.0000 C   0  0  0  0  0  0  0  0  0  0  0  0
    2.2187   -3.8205   -0.0000 C   0  0  0  0  0  0  0  0  0  0  0  0
    4.4612   -2.5035   -0.0000 F   0  0  0  0  0  0  0  0  0  0  0  0
   -6.0511    2.6103   -0.0000 C   0  0  0  0  0  0  0  0  0  0  0  0
   -3.8205    3.9154   -0.0000 C   0  0  0  0  0  0  0  0  0  0  0  0
   -6.8224    3.9154   -0.0000 O   0  0  0  0  0  0  0  0  0  0  0  0
   -6.7986    1.3170   -0.0000 C   0  0  0  0  0  0  0  0  0  0  0  0
   -8.2461    0.8543   -0.0000 C   0  0  0  0  0  0  0  0  0  0  0  0
   -5.9206    0.1186   -0.0000 C   0  0  0  0  0  0  0  0  0  0  0  0
   -8.2461   -0.6407   -0.0000 C   0  0  0  0  0  0  0  0  0  0  0  0
   -9.5513    1.6136   -0.0000 C   0  0  0  0  0  0  0  0  0  0  0  0
   -6.8105   -1.0916   -0.0000 N   0  0  0  0  0  0  0  0  0  0  0  0
   -9.5632   -1.3763   -0.0000 N   0  0  0  0  0  0  0  0  0  0  0  0
  -10.8564    0.8780   -0.0000 C   0  0  0  0  0  0  0  0  0  0  0  0
  -10.8683   -0.6170   -0.0000 C   0  0  0  0  0  0  0  0  0  0  0  0
  -12.1616    1.6374   -0.0000 C   0  0  0  0  0  0  0  0  0  0  0  0
  -13.4786    2.3967   -0.0000 N   0  0  0  0  0  0  0  0  0  0  0  0
  1  2  2  0  0  0  0
  1  3  2  0  0  0  0
  1  4  1  0  0  0  0
  1  5  1  0  0  0  0
  4  6  1  0  0  0  0
  5  7  2  0  0  0  0
  5  8  1  0  0  0  0
  6  9  2  0  0  0  0
  6 10  1  0  0  0  0
  7 11  1  0  0  0  0
  7 12  1  0  0  0  0
  8 13  2  0  0  0  0
  9 14  1  0  0  0  0
  9 15  1  0  0  0  0
 10 16  2  0  0  0  0
 12 17  2  0  0  0  0
 13 18  1  0  0  0  0
 15 19  1  0  0  0  0
 15 20  2  0  0  0  0
 19 21  2  0  0  0  0
 19 22  1  0  0  0  0
 22 23  1  0  0  0  0
 22 24  2  0  0  0  0
 23 25  2  0  0  0  0
 23 26  1  0  0  0  0
 24 27  1  0  0  0  0
 25 28  1  0  0  0  0
 26 29  2  0  0  0  0
 28 30  2  0  0  0  0
 29 31  1  0  0  0  0
 31 32  3  0  0  0  0
 13 17  1  0  0  0  0
 16 20  1  0  0  0  0
 25 27  1  0  0  0  0
 29 30  1  0  0  0  0
M  END
>  <MolRegNo>
2163766

>  <m>
=

>  <Value>
5000

>  <Unit>
nM

>  <Type>
IC50

>  <pValue>
5.3

>  <Ligand Efficiency>
0

>  <Binding Efficiency>
0

>  <Surface Efficiency>
0

>  <Assay Index>
1055099

>  <Assay Category>


>  <Assay Organism>
Homo sapiens

>  <Target ID>
17045

>  <Target Name>
Cytochrome P450 3A4

>  <Target Organism>
Homo sapiens

>  <Target Description>
Target is a single protein chain

>  <Sequence Accession>
P08684

>  <Reference>


>  <Pubmed ID>


>  <DOI>


$$$$
2176674
Actelion Java MolfileCreator 1.0

 31 34  0  0  0  0  0  0  0  0999 V2000
    0.0000   -0.0000   -0.0000 S   0  0  0  0  0  0  0  0  0  0  0  0
   -0.0237    1.5068   -0.0000 O   0  0  0  0  0  0  0  0  0  0  0  0
    1.2813    0.7712   -0.0000 O   0  0  0  0  0  0  0  0  0  0  0  0
   -1.5068   -0.0000   -0.0000 N   0  0  0  0  0  0  0  0  0  0  0  0
    0.7474   -1.2813   -0.0000 C   0  0  0  0  0  0  0  0  0  0  0  0
   -2.2779    1.3051   -0.0000 C   0  0  0  0  0  0  0  0  0  0  0  0
   -0.0119   -2.5627   -0.0000 C   0  0  0  0  0  0  0  0  0  0  0  0
    2.2305   -1.2576   -0.0000 C   0  0  0  0  0  0  0  0  0  0  0  0
   -3.7847    1.3051   -0.0000 C   0  0  0  0  0  0  0  0  0  0  0  0
   -1.5542    2.6220   -0.0000 C   0  0  0  0  0  0  0  0  0  0  0  0
    0.7356   -3.8440   -0.0000 N   0  0  0  0  0  0  0  0  0  0  0  0
    2.9779   -2.5271   -0.0000 C   0  0  0  0  0  0  0  0  0  0  0  0
   -4.5440    0.0237   -0.0000 F   0  0  0  0  0  0  0  0  0  0  0  0
   -4.5440    2.6101   -0.0000 C   0  0  0  0  0  0  0  0  0  0  0  0
   -2.3254    3.9271   -0.0000 C   0  0  0  0  0  0  0  0  0  0  0  0
    2.2186   -3.8203   -0.0000 C   0  0  0  0  0  0  0  0  0  0  0  0
   -3.8203    3.9152   -0.0000 C   0  0  0  0  0  0  0  0  0  0  0  0
   -6.0507    2.6101   -0.0000 C   0  0  0  0  0  0  0  0  0  0  0  0
   -4.5915    5.2203   -0.0000 F   0  0  0  0  0  0  0  0  0  0  0  0
   -6.8219    3.9152   -0.0000 O   0  0  0  0  0  0  0  0  0  0  0  0
   -6.7982    1.3169   -0.0000 C   0  0  0  0  0  0  0  0  0  0  0  0
   -8.2338    0.8542   -0.0000 C   0  0  0  0  0  0  0  0  0  0  0  0
   -5.9202    0.1186   -0.0000 C   0  0  0  0  0  0  0  0  0  0  0  0
   -8.2338   -0.6407   -0.0000 C   0  0  0  0  0  0  0  0  0  0  0  0
   -9.5388    1.6135   -0.0000 C   0  0  0  0  0  0  0  0  0  0  0  0
   -6.8101   -1.0915   -0.0000 N   0  0  0  0  0  0  0  0  0  0  0  0
   -9.5507   -1.3762   -0.0000 N   0  0  0  0  0  0  0  0  0  0  0  0
  -10.8439    0.8780   -0.0000 C   0  0  0  0  0  0  0  0  0  0  0  0
  -10.8558   -0.6169   -0.0000 C   0  0  0  0  0  0  0  0  0  0  0  0
  -12.1490    1.6373   -0.0000 C   0  0  0  0  0  0  0  0  0  0  0  0
  -13.4659    2.3966   -0.0000 N   0  0  0  0  0  0  0  0  0  0  0  0
  1  2  2  0  0  0  0
  1  3  2  0  0  0  0
  1  4  1  0  0  0  0
  1  5  1  0  0  0  0
  4  6  1  0  0  0  0
  5  7  2  0  0  0  0
  5  8  1  0  0  0  0
  6  9  2  0  0  0  0
  6 10  1  0  0  0  0
  7 11  1  0  0  0  0
  8 12  2  0  0  0  0
  9 13  1  0  0  0  0
  9 14  1  0  0  0  0
 10 15  2  0  0  0  0
 11 16  2  0  0  0  0
 14 17  2  0  0  0  0
 14 18  1  0  0  0  0
 17 19  1  0  0  0  0
 18 20  2  0  0  0  0
 18 21  1  0  0  0  0
 21 22  1  0  0  0  0
 21 23  2  0  0  0  0
 22 24  2  0  0  0  0
 22 25  1  0  0  0  0
 23 26  1  0  0  0  0
 24 27  1  0  0  0  0
 25 28  2  0  0  0  0
 27 29  2  0  0  0  0
 28 30  1  0  0  0  0
 30 31  3  0  0  0  0
 12 16  1  0  0  0  0
 15 17  1  0  0  0  0
 24 26  1  0  0  0  0
 28 29  1  0  0  0  0
M  END
>  <MolRegNo>
2176674

>  <m>
=

>  <Value>
5000

>  <Unit>
nM

>  <Type>
IC50

>  <pValue>
5.3

>  <Ligand Efficiency>
0

>  <Binding Efficiency>
0

>  <Surface Efficiency>
0

>  <Assay Index>
1055099

>  <Assay Category>


>  <Assay Organism>
Homo sapiens

>  <Target ID>
17045

>  <Target Name>
Cytochrome P450 3A4

>  <Target Organism>
Homo sapiens

>  <Target Description>
Target is a single protein chain

>  <Sequence Accession>
P08684

>  <Reference>


>  <Pubmed ID>


>  <DOI>


$$$$
2123478
Actelion Java MolfileCreator 1.0

 31 34  0  0  0  0  0  0  0  0999 V2000
    0.0000   -0.0000   -0.0000 S   0  0  0  0  0  0  0  0  0  0  0  0
   -0.0237    1.5067   -0.0000 O   0  0  0  0  0  0  0  0  0  0  0  0
    1.2812    0.7711   -0.0000 O   0  0  0  0  0  0  0  0  0  0  0  0
   -1.5067   -0.0000   -0.0000 N   0  0  0  0  0  0  0  0  0  0  0  0
    0.7474   -1.2812   -0.0000 C   0  0  0  0  0  0  0  0  0  0  0  0
   -2.2778    1.3050   -0.0000 C   0  0  0  0  0  0  0  0  0  0  0  0
   -0.0119   -2.5625   -0.0000 C   0  0  0  0  0  0  0  0  0  0  0  0
    2.2303   -1.2575   -0.0000 C   0  0  0  0  0  0  0  0  0  0  0  0
   -3.7844    1.3050   -0.0000 C   0  0  0  0  0  0  0  0  0  0  0  0
   -1.5541    2.6218   -0.0000 C   0  0  0  0  0  0  0  0  0  0  0  0
    0.7355   -3.8437   -0.0000 N   0  0  0  0  0  0  0  0  0  0  0  0
    2.9777   -2.5269   -0.0000 C   0  0  0  0  0  0  0  0  0  0  0  0
   -4.5437    0.0237   -0.0000 F   0  0  0  0  0  0  0  0  0  0  0  0
   -4.5437    2.6100   -0.0000 C   0  0  0  0  0  0  0  0  0  0  0  0
   -2.3252    3.9268   -0.0000 C   0  0  0  0  0  0  0  0  0  0  0  0
    2.2185   -3.8200   -0.0000 C   0  0  0  0  0  0  0  0  0  0  0  0
   -3.8200    3.9149   -0.0000 C   0  0  0  0  0  0  0  0  0  0  0  0
   -6.0503    2.6100   -0.0000 C   0  0  0  0  0  0  0  0  0  0  0  0
   -4.5911    5.2199   -0.0000 F   0  0  0  0  0  0  0  0  0  0  0  0
   -6.8215    3.9149   -0.0000 O   0  0  0  0  0  0  0  0  0  0  0  0
   -6.7977    1.3168   -0.0000 C   0  0  0  0  0  0  0  0  0  0  0  0
   -8.2451    0.8542   -0.0000 C   0  0  0  0  0  0  0  0  0  0  0  0
   -5.9198    0.1186   -0.0000 C   0  0  0  0  0  0  0  0  0  0  0  0
   -9.5501    1.6134   -0.0000 C   0  0  0  0  0  0  0  0  0  0  0  0
   -8.2451   -0.6406   -0.0000 C   0  0  0  0  0  0  0  0  0  0  0  0
   -6.8096   -1.0914   -0.0000 N   0  0  0  0  0  0  0  0  0  0  0  0
   -9.5619    3.1201   -0.0000 O   0  0  0  0  0  0  0  0  0  0  0  0
  -10.8550    0.8779   -0.0000 C   0  0  0  0  0  0  0  0  0  0  0  0
   -9.5619   -1.3762   -0.0000 N   0  0  0  0  0  0  0  0  0  0  0  0
  -10.8669    3.8793   -0.0000 C   0  0  0  0  0  0  0  0  0  0  0  0
  -10.8669   -0.6050   -0.0000 C   0  0  0  0  0  0  0  0  0  0  0  0
  1  2  2  0  0  0  0
  1  3  2  0  0  0  0
  1  4  1  0  0  0  0
  1  5  1  0  0  0  0
  4  6  1  0  0  0  0
  5  7  2  0  0  0  0
  5  8  1  0  0  0  0
  6  9  2  0  0  0  0
  6 10  1  0  0  0  0
  7 11  1  0  0  0  0
  8 12  2  0  0  0  0
  9 13  1  0  0  0  0
  9 14  1  0  0  0  0
 10 15  2  0  0  0  0
 11 16  2  0  0  0  0
 14 17  2  0  0  0  0
 14 18  1  0  0  0  0
 17 19  1  0  0  0  0
 18 20  2  0  0  0  0
 18 21  1  0  0  0  0
 21 22  1  0  0  0  0
 21 23  2  0  0  0  0
 22 24  2  0  0  0  0
 22 25  1  0  0  0  0
 23 26  1  0  0  0  0
 24 27  1  0  0  0  0
 24 28  1  0  0  0  0
 25 29  2  0  0  0  0
 27 30  1  0  0  0  0
 28 31  2  0  0  0  0
 12 16  1  0  0  0  0
 15 17  1  0  0  0  0
 25 26  1  0  0  0  0
 29 31  1  0  0  0  0
M  END
>  <MolRegNo>
2123478

>  <m>
=

>  <Value>
5000

>  <Unit>
nM

>  <Type>
IC50

>  <pValue>
5.3

>  <Ligand Efficiency>
0

>  <Binding Efficiency>
0

>  <Surface Efficiency>
0

>  <Assay Index>
1055099

>  <Assay Category>


>  <Assay Organism>
Homo sapiens

>  <Target ID>
17045

>  <Target Name>
Cytochrome P450 3A4

>  <Target Organism>
Homo sapiens

>  <Target Description>
Target is a single protein chain

>  <Sequence Accession>
P08684

>  <Reference>


>  <Pubmed ID>


>  <DOI>


$$$$
2099838
Actelion Java MolfileCreator 1.0

 31 34  0  0  0  0  0  0  0  0999 V2000
    0.0000   -0.0000   -0.0000 S   0  0  0  0  0  0  0  0  0  0  0  0
   -0.0237    1.5064   -0.0000 O   0  0  0  0  0  0  0  0  0  0  0  0
    1.2810    0.7710   -0.0000 O   0  0  0  0  0  0  0  0  0  0  0  0
   -1.5064   -0.0000   -0.0000 N   0  0  0  0  0  0  0  0  0  0  0  0
    0.7473   -1.2810   -0.0000 C   0  0  0  0  0  0  0  0  0  0  0  0
   -2.2774    1.3047   -0.0000 C   0  0  0  0  0  0  0  0  0  0  0  0
   -0.0119   -2.5621   -0.0000 C   0  0  0  0  0  0  0  0  0  0  0  0
    2.2299   -1.2573   -0.0000 C   0  0  0  0  0  0  0  0  0  0  0  0
   -3.7838    1.3047   -0.0000 C   0  0  0  0  0  0  0  0  0  0  0  0
   -1.5538    2.6214   -0.0000 C   0  0  0  0  0  0  0  0  0  0  0  0
    0.7354   -3.8431   -0.0000 N   0  0  0  0  0  0  0  0  0  0  0  0
    2.9772   -2.5265   -0.0000 C   0  0  0  0  0  0  0  0  0  0  0  0
   -4.5429    0.0237   -0.0000 F   0  0  0  0  0  0  0  0  0  0  0  0
   -4.5429    2.6095   -0.0000 C   0  0  0  0  0  0  0  0  0  0  0  0
   -2.3248    3.9261   -0.0000 C   0  0  0  0  0  0  0  0  0  0  0  0
    2.2181   -3.8194   -0.0000 C   0  0  0  0  0  0  0  0  0  0  0  0
   -3.8194    3.9142   -0.0000 C   0  0  0  0  0  0  0  0  0  0  0  0
   -6.0493    2.6095   -0.0000 C   0  0  0  0  0  0  0  0  0  0  0  0
   -4.5903    5.2190   -0.0000 F   0  0  0  0  0  0  0  0  0  0  0  0
   -6.8203    3.9142   -0.0000 O   0  0  0  0  0  0  0  0  0  0  0  0
   -6.7966    1.3166   -0.0000 C   0  0  0  0  0  0  0  0  0  0  0  0
   -8.2436    0.8540   -0.0000 C   0  0  0  0  0  0  0  0  0  0  0  0
   -5.9188    0.1186   -0.0000 C   0  0  0  0  0  0  0  0  0  0  0  0
   -9.5484    1.6131   -0.0000 C   0  0  0  0  0  0  0  0  0  0  0  0
   -8.2436   -0.6405   -0.0000 C   0  0  0  0  0  0  0  0  0  0  0  0
   -6.8084   -1.0912   -0.0000 N   0  0  0  0  0  0  0  0  0  0  0  0
   -9.5602    3.1195   -0.0000 C   0  0  0  0  0  0  0  0  0  0  0  0
  -10.8531    0.8777   -0.0000 C   0  0  0  0  0  0  0  0  0  0  0  0
   -9.5602   -1.3759   -0.0000 N   0  0  0  0  0  0  0  0  0  0  0  0
   -9.5840    4.6378   -0.0000 N   0  0  0  0  0  0  0  0  0  0  0  0
  -10.8650   -0.6049   -0.0000 C   0  0  0  0  0  0  0  0  0  0  0  0
  1  2  2  0  0  0  0
  1  3  2  0  0  0  0
  1  4  1  0  0  0  0
  1  5  1  0  0  0  0
  4  6  1  0  0  0  0
  5  7  2  0  0  0  0
  5  8  1  0  0  0  0
  6  9  2  0  0  0  0
  6 10  1  0  0  0  0
  7 11  1  0  0  0  0
  8 12  2  0  0  0  0
  9 13  1  0  0  0  0
  9 14  1  0  0  0  0
 10 15  2  0  0  0  0
 11 16  2  0  0  0  0
 14 17  2  0  0  0  0
 14 18  1  0  0  0  0
 17 19  1  0  0  0  0
 18 20  2  0  0  0  0
 18 21  1  0  0  0  0
 21 22  1  0  0  0  0
 21 23  2  0  0  0  0
 22 24  2  0  0  0  0
 22 25  1  0  0  0  0
 23 26  1  0  0  0  0
 24 27  1  0  0  0  0
 24 28  1  0  0  0  0
 25 29  2  0  0  0  0
 27 30  3  0  0  0  0
 28 31  2  0  0  0  0
 12 16  1  0  0  0  0
 15 17  1  0  0  0  0
 25 26  1  0  0  0  0
 29 31  1  0  0  0  0
M  END
>  <MolRegNo>
2099838

>  <m>
=

>  <Value>
5000

>  <Unit>
nM

>  <Type>
IC50

>  <pValue>
5.3

>  <Ligand Efficiency>
0

>  <Binding Efficiency>
0

>  <Surface Efficiency>
0

>  <Assay Index>
1055099

>  <Assay Category>


>  <Assay Organism>
Homo sapiens

>  <Target ID>
17045

>  <Target Name>
Cytochrome P450 3A4

>  <Target Organism>
Homo sapiens

>  <Target Description>
Target is a single protein chain

>  <Sequence Accession>
P08684

>  <Reference>


>  <Pubmed ID>


>  <DOI>


$$$$
2131230
Actelion Java MolfileCreator 1.0

 32 35  0  0  0  0  0  0  0  0999 V2000
    0.0000   -0.0000   -0.0000 S   0  0  0  0  0  0  0  0  0  0  0  0
   -0.0592    1.5043   -0.0000 O   0  0  0  0  0  0  0  0  0  0  0  0
    1.2556    0.8055   -0.0000 O   0  0  0  0  0  0  0  0  0  0  0  0
   -1.5043    0.0118   -0.0000 N   0  0  0  0  0  0  0  0  0  0  0  0
    0.7344   -1.2911   -0.0000 C   0  0  0  0  0  0  0  0  0  0  0  0
   -2.2624    1.3148   -0.0000 C   0  0  0  0  0  0  0  0  0  0  0  0
    2.2150   -1.2792   -0.0000 C   0  0  0  0  0  0  0  0  0  0  0  0
   -3.7667    1.3266   -0.0000 C   0  0  0  0  0  0  0  0  0  0  0  0
   -1.5280    2.6177   -0.0000 C   0  0  0  0  0  0  0  0  0  0  0  0
    2.9494   -2.5585   -0.0000 C   0  0  0  0  0  0  0  0  0  0  0  0
   -4.5247    0.0474   -0.0000 F   0  0  0  0  0  0  0  0  0  0  0  0
   -4.5247    2.6296   -0.0000 C   0  0  0  0  0  0  0  0  0  0  0  0
   -2.2979    3.9325   -0.0000 C   0  0  0  0  0  0  0  0  0  0  0  0
   -3.8022    3.9325   -0.0000 C   0  0  0  0  0  0  0  0  0  0  0  0
   -6.0290    2.6414   -0.0000 C   0  0  0  0  0  0  0  0  0  0  0  0
   -4.5603    5.2354   -0.0000 F   0  0  0  0  0  0  0  0  0  0  0  0
   -6.7871    3.9443   -0.0000 O   0  0  0  0  0  0  0  0  0  0  0  0
   -6.7871    1.3622   -0.0000 C   0  0  0  0  0  0  0  0  0  0  0  0
   -8.2322    0.9002   -0.0000 C   0  0  0  0  0  0  0  0  0  0  0  0
   -5.9106    0.1658   -0.0000 C   0  0  0  0  0  0  0  0  0  0  0  0
   -8.2322   -0.5922   -0.0000 C   0  0  0  0  0  0  0  0  0  0  0  0
   -9.5351    1.6583   -0.0000 C   0  0  0  0  0  0  0  0  0  0  0  0
   -6.7990   -1.0423   -0.0000 N   0  0  0  0  0  0  0  0  0  0  0  0
   -9.5470   -1.3266   -0.0000 N   0  0  0  0  0  0  0  0  0  0  0  0
  -10.8381    0.9239   -0.0000 C   0  0  0  0  0  0  0  0  0  0  0  0
  -10.8499   -0.5686   -0.0000 C   0  0  0  0  0  0  0  0  0  0  0  0
  -12.1410    1.6820   -0.0000 C   0  0  0  0  0  0  0  0  0  0  0  0
  -12.1528    3.1863   -0.0000 C   0  0  0  0  0  0  0  0  0  0  0  0
  -13.4439    0.9476   -0.0000 C   0  0  0  0  0  0  0  0  0  0  0  0
  -13.4558    3.9443   -0.0000 N   0  0  0  0  0  0  0  0  0  0  0  0
  -14.7469    1.6938   -0.0000 N   0  0  0  0  0  0  0  0  0  0  0  0
  -14.7587    3.2100   -0.0000 C   0  0  0  0  0  0  0  0  0  0  0  0
  1  2  2  0  0  0  0
  1  3  2  0  0  0  0
  1  4  1  0  0  0  0
  1  5  1  0  0  0  0
  4  6  1  0  0  0  0
  5  7  1  0  0  0  0
  6  8  2  0  0  0  0
  6  9  1  0  0  0  0
  7 10  1  0  0  0  0
  8 11  1  0  0  0  0
  8 12  1  0  0  0  0
  9 13  2  0  0  0  0
 12 14  2  0  0  0  0
 12 15  1  0  0  0  0
 14 16  1  0  0  0  0
 15 17  2  0  0  0  0
 15 18  1  0  0  0  0
 18 19  1  0  0  0  0
 18 20  2  0  0  0  0
 19 21  2  0  0  0  0
 19 22  1  0  0  0  0
 20 23  1  0  0  0  0
 21 24  1  0  0  0  0
 22 25  2  0  0  0  0
 24 26  2  0  0  0  0
 25 27  1  0  0  0  0
 27 28  2  0  0  0  0
 27 29  1  0  0  0  0
 28 30  1  0  0  0  0
 29 31  2  0  0  0  0
 30 32  2  0  0  0  0
 13 14  1  0  0  0  0
 21 23  1  0  0  0  0
 25 26  1  0  0  0  0
 31 32  1  0  0  0  0
M  END
>  <MolRegNo>
2131230

>  <m>
=

>  <Value>
5000

>  <Unit>
nM

>  <Type>
IC50

>  <pValue>
5.3

>  <Ligand Efficiency>
0

>  <Binding Efficiency>
0

>  <Surface Efficiency>
0

>  <Assay Index>
1055099

>  <Assay Category>


>  <Assay Organism>
Homo sapiens

>  <Target ID>
17045

>  <Target Name>
Cytochrome P450 3A4

>  <Target Organism>
Homo sapiens

>  <Target Description>
Target is a single protein chain

>  <Sequence Accession>
P08684

>  <Reference>


>  <Pubmed ID>


>  <DOI>


$$$$
2113704
Actelion Java MolfileCreator 1.0

 36 39  0  0  0  0  0  0  0  0999 V2000
    0.0000   -0.0000   -0.0000 S   0  0  0  0  0  0  0  0  0  0  0  0
   -0.0592    1.5045   -0.0000 O   0  0  0  0  0  0  0  0  0  0  0  0
    1.2557    0.8056   -0.0000 O   0  0  0  0  0  0  0  0  0  0  0  0
   -1.5045    0.0118   -0.0000 N   0  0  0  0  0  0  0  0  0  0  0  0
    0.7345   -1.2913   -0.0000 C   0  0  0  0  0  0  0  0  0  0  0  0
   -2.2627    1.3150   -0.0000 C   0  0  0  0  0  0  0  0  0  0  0  0
    2.2153   -1.2794   -0.0000 C   0  0  0  0  0  0  0  0  0  0  0  0
   -3.7672    1.3268   -0.0000 C   0  0  0  0  0  0  0  0  0  0  0  0
   -1.5282    2.6181   -0.0000 C   0  0  0  0  0  0  0  0  0  0  0  0
    2.9498   -2.5589   -0.0000 C   0  0  0  0  0  0  0  0  0  0  0  0
   -4.5254    0.0474   -0.0000 F   0  0  0  0  0  0  0  0  0  0  0  0
   -4.5254    2.6300   -0.0000 C   0  0  0  0  0  0  0  0  0  0  0  0
   -2.2983    3.9331   -0.0000 C   0  0  0  0  0  0  0  0  0  0  0  0
   -3.8028    3.9331   -0.0000 C   0  0  0  0  0  0  0  0  0  0  0  0
   -6.0300    2.6418   -0.0000 C   0  0  0  0  0  0  0  0  0  0  0  0
   -4.5610    5.2362   -0.0000 F   0  0  0  0  0  0  0  0  0  0  0  0
   -6.7881    3.9449   -0.0000 O   0  0  0  0  0  0  0  0  0  0  0  0
   -6.7881    1.3624   -0.0000 C   0  0  0  0  0  0  0  0  0  0  0  0
   -8.2334    0.9003   -0.0000 C   0  0  0  0  0  0  0  0  0  0  0  0
   -5.9115    0.1659   -0.0000 C   0  0  0  0  0  0  0  0  0  0  0  0
   -8.2334   -0.5923   -0.0000 C   0  0  0  0  0  0  0  0  0  0  0  0
   -9.5366    1.6585   -0.0000 C   0  0  0  0  0  0  0  0  0  0  0  0
   -6.8000   -1.0425   -0.0000 N   0  0  0  0  0  0  0  0  0  0  0  0
   -9.5484   -1.3268   -0.0000 N   0  0  0  0  0  0  0  0  0  0  0  0
  -10.8397    0.9240   -0.0000 C   0  0  0  0  0  0  0  0  0  0  0  0
  -10.8515   -0.5686   -0.0000 C   0  0  0  0  0  0  0  0  0  0  0  0
  -12.1428    1.6822   -0.0000 C   0  0  0  0  0  0  0  0  0  0  0  0
  -13.4460    0.9477   -0.0000 C   0  0  0  0  0  0  0  0  0  0  0  0
  -12.1547    3.1868   -0.0000 C   0  0  0  0  0  0  0  0  0  0  0  0
  -14.7491    1.6941   -0.0000 N   0  0  0  0  0  0  0  0  0  0  0  0
  -13.4578    3.9449   -0.0000 C   0  0  0  0  0  0  0  0  0  0  0  0
  -14.7609    3.2104   -0.0000 C   0  0  0  0  0  0  0  0  0  0  0  0
  -16.0641    3.9686   -0.0000 N   0  0  0  0  0  0  0  0  0  0  0  0
  -17.3672    3.2341   -0.0000 C   0  0  0  0  0  0  0  0  0  0  0  0
  -17.3791    1.7533   -0.0000 O   0  0  0  0  0  0  0  0  0  0  0  0
  -18.6703    3.9923   -0.0000 C   0  0  0  0  0  0  0  0  0  0  0  0
  1  2  2  0  0  0  0
  1  3  2  0  0  0  0
  1  4  1  0  0  0  0
  1  5  1  0  0  0  0
  4  6  1  0  0  0  0
  5  7  1  0  0  0  0
  6  8  2  0  0  0  0
  6  9  1  0  0  0  0
  7 10  1  0  0  0  0
  8 11  1  0  0  0  0
  8 12  1  0  0  0  0
  9 13  2  0  0  0  0
 12 14  2  0  0  0  0
 12 15  1  0  0  0  0
 14 16  1  0  0  0  0
 15 17  2  0  0  0  0
 15 18  1  0  0  0  0
 18 19  1  0  0  0  0
 18 20  2  0  0  0  0
 19 21  2  0  0  0  0
 19 22  1  0  0  0  0
 20 23  1  0  0  0  0
 21 24  1  0  0  0  0
 22 25  2  0  0  0  0
 24 26  2  0  0  0  0
 25 27  1  0  0  0  0
 27 28  2  0  0  0  0
 27 29  1  0  0  0  0
 28 30  1  0  0  0  0
 29 31  2  0  0  0  0
 30 32  2  0  0  0  0
 32 33  1  0  0  0  0
 33 34  1  0  0  0  0
 34 35  2  0  0  0  0
 34 36  1  0  0  0  0
 13 14  1  0  0  0  0
 21 23  1  0  0  0  0
 25 26  1  0  0  0  0
 31 32  1  0  0  0  0
M  END
>  <MolRegNo>
2113704

>  <m>
=

>  <Value>
5000

>  <Unit>
nM

>  <Type>
IC50

>  <pValue>
5.3

>  <Ligand Efficiency>
0

>  <Binding Efficiency>
0

>  <Surface Efficiency>
0

>  <Assay Index>
1055099

>  <Assay Category>


>  <Assay Organism>
Homo sapiens

>  <Target ID>
17045

>  <Target Name>
Cytochrome P450 3A4

>  <Target Organism>
Homo sapiens

>  <Target Description>
Target is a single protein chain

>  <Sequence Accession>
P08684

>  <Reference>


>  <Pubmed ID>


>  <DOI>


$$$$
2137446
Actelion Java MolfileCreator 1.0

 37 41  0  0  0  0  0  0  0  0999 V2000
    0.0000   -0.0000   -0.0000 S   0  0  0  0  0  0  0  0  0  0  0  0
   -0.0592    1.5037   -0.0000 O   0  0  0  0  0  0  0  0  0  0  0  0
    1.2551    0.8051   -0.0000 O   0  0  0  0  0  0  0  0  0  0  0  0
   -1.5037    0.0118   -0.0000 N   0  0  0  0  0  0  0  0  0  0  0  0
    0.7341   -1.2906   -0.0000 C   0  0  0  0  0  0  0  0  0  0  0  0
   -2.2615    1.3143   -0.0000 C   0  0  0  0  0  0  0  0  0  0  0  0
    2.2142   -1.2788   -0.0000 C   0  0  0  0  0  0  0  0  0  0  0  0
   -3.7653    1.3261   -0.0000 C   0  0  0  0  0  0  0  0  0  0  0  0
   -1.5274    2.6167   -0.0000 C   0  0  0  0  0  0  0  0  0  0  0  0
    2.9483   -2.5575   -0.0000 C   0  0  0  0  0  0  0  0  0  0  0  0
   -4.5230    0.0474   -0.0000 F   0  0  0  0  0  0  0  0  0  0  0  0
   -4.5230    2.6286   -0.0000 C   0  0  0  0  0  0  0  0  0  0  0  0
   -2.2970    3.9310   -0.0000 C   0  0  0  0  0  0  0  0  0  0  0  0
   -3.8008    3.9310   -0.0000 C   0  0  0  0  0  0  0  0  0  0  0  0
   -6.0268    2.6404   -0.0000 C   0  0  0  0  0  0  0  0  0  0  0  0
   -4.5586    5.2335   -0.0000 F   0  0  0  0  0  0  0  0  0  0  0  0
   -6.7846    3.9429   -0.0000 O   0  0  0  0  0  0  0  0  0  0  0  0
   -6.7846    1.3617   -0.0000 C   0  0  0  0  0  0  0  0  0  0  0  0
   -8.2291    0.8999   -0.0000 C   0  0  0  0  0  0  0  0  0  0  0  0
   -5.9084    0.1658   -0.0000 C   0  0  0  0  0  0  0  0  0  0  0  0
   -8.2291   -0.5920   -0.0000 C   0  0  0  0  0  0  0  0  0  0  0  0
   -9.5316    1.6577   -0.0000 C   0  0  0  0  0  0  0  0  0  0  0  0
   -6.7964   -1.0420   -0.0000 N   0  0  0  0  0  0  0  0  0  0  0  0
   -9.5434   -1.3261   -0.0000 N   0  0  0  0  0  0  0  0  0  0  0  0
  -10.8340    0.9236   -0.0000 C   0  0  0  0  0  0  0  0  0  0  0  0
  -10.8458   -0.5683   -0.0000 C   0  0  0  0  0  0  0  0  0  0  0  0
  -12.1364    1.6813   -0.0000 C   0  0  0  0  0  0  0  0  0  0  0  0
  -12.1483    3.1851   -0.0000 C   0  0  0  0  0  0  0  0  0  0  0  0
  -13.4389    0.9472   -0.0000 C   0  0  0  0  0  0  0  0  0  0  0  0
  -13.4507    3.9429   -0.0000 N   0  0  0  0  0  0  0  0  0  0  0  0
  -14.7413    1.6932   -0.0000 N   0  0  0  0  0  0  0  0  0  0  0  0
  -14.7532    3.2088   -0.0000 C   0  0  0  0  0  0  0  0  0  0  0  0
  -16.0675    3.9547   -0.0000 N   0  0  0  0  0  0  0  0  0  0  0  0
  -16.0675    5.4584   -0.0000 C   0  0  0  0  0  0  0  0  0  0  0  0
  -17.5002    3.5166   -0.0000 C   0  0  0  0  0  0  0  0  0  0  0  0
  -17.5002    5.9439   -0.0000 C   0  0  0  0  0  0  0  0  0  0  0  0
  -18.3764    4.7480   -0.0000 C   0  0  0  0  0  0  0  0  0  0  0  0
  1  2  2  0  0  0  0
  1  3  2  0  0  0  0
  1  4  1  0  0  0  0
  1  5  1  0  0  0  0
  4  6  1  0  0  0  0
  5  7  1  0  0  0  0
  6  8  2  0  0  0  0
  6  9  1  0  0  0  0
  7 10  1  0  0  0  0
  8 11  1  0  0  0  0
  8 12  1  0  0  0  0
  9 13  2  0  0  0  0
 12 14  2  0  0  0  0
 12 15  1  0  0  0  0
 14 16  1  0  0  0  0
 15 17  2  0  0  0  0
 15 18  1  0  0  0  0
 18 19  1  0  0  0  0
 18 20  2  0  0  0  0
 19 21  2  0  0  0  0
 19 22  1  0  0  0  0
 20 23  1  0  0  0  0
 21 24  1  0  0  0  0
 22 25  2  0  0  0  0
 24 26  2  0  0  0  0
 25 27  1  0  0  0  0
 27 28  2  0  0  0  0
 27 29  1  0  0  0  0
 28 30  1  0  0  0  0
 29 31  2  0  0  0  0
 30 32  2  0  0  0  0
 32 33  1  0  0  0  0
 33 34  1  0  0  0  0
 33 35  1  0  0  0  0
 34 36  1  0  0  0  0
 35 37  1  0  0  0  0
 13 14  1  0  0  0  0
 21 23  1  0  0  0  0
 25 26  1  0  0  0  0
 31 32  1  0  0  0  0
 36 37  1  0  0  0  0
M  END
>  <MolRegNo>
2137446

>  <m>
=

>  <Value>
5000

>  <Unit>
nM

>  <Type>
IC50

>  <pValue>
5.3

>  <Ligand Efficiency>
0

>  <Binding Efficiency>
0

>  <Surface Efficiency>
0

>  <Assay Index>
1055099

>  <Assay Category>


>  <Assay Organism>
Homo sapiens

>  <Target ID>
17045

>  <Target Name>
Cytochrome P450 3A4

>  <Target Organism>
Homo sapiens

>  <Target Description>
Target is a single protein chain

>  <Sequence Accession>
P08684

>  <Reference>


>  <Pubmed ID>


>  <DOI>


$$$$
2155078
Actelion Java MolfileCreator 1.0

 31 33  0  0  0  0  0  0  0  0999 V2000
    0.0000   -0.0000   -0.0000 S   0  0  0  0  0  0  0  0  0  0  0  0
   -0.0592    1.5036   -0.0000 O   0  0  0  0  0  0  0  0  0  0  0  0
    1.2550    0.8051   -0.0000 O   0  0  0  0  0  0  0  0  0  0  0  0
   -1.5036    0.0118   -0.0000 N   0  0  0  0  0  0  0  0  0  0  0  0
    0.7340   -1.2905   -0.0000 C   0  0  0  0  0  0  0  0  0  0  0  0
   -2.2613    1.3142   -0.0000 C   0  0  0  0  0  0  0  0  0  0  0  0
    2.2139   -1.2786   -0.0000 C   0  0  0  0  0  0  0  0  0  0  0  0
   -3.7649    1.3260   -0.0000 C   0  0  0  0  0  0  0  0  0  0  0  0
   -1.5273    2.6165   -0.0000 C   0  0  0  0  0  0  0  0  0  0  0  0
    2.9480   -2.5573   -0.0000 C   0  0  0  0  0  0  0  0  0  0  0  0
   -4.5226    0.0474   -0.0000 F   0  0  0  0  0  0  0  0  0  0  0  0
   -4.5226    2.6283   -0.0000 C   0  0  0  0  0  0  0  0  0  0  0  0
   -2.2968    3.9306   -0.0000 C   0  0  0  0  0  0  0  0  0  0  0  0
   -3.8004    3.9306   -0.0000 C   0  0  0  0  0  0  0  0  0  0  0  0
   -6.0262    2.6401   -0.0000 C   0  0  0  0  0  0  0  0  0  0  0  0
   -4.5581    5.2329   -0.0000 F   0  0  0  0  0  0  0  0  0  0  0  0
   -6.7839    3.9425   -0.0000 O   0  0  0  0  0  0  0  0  0  0  0  0
   -6.7839    1.3615   -0.0000 C   0  0  0  0  0  0  0  0  0  0  0  0
   -8.2283    0.8998   -0.0000 C   0  0  0  0  0  0  0  0  0  0  0  0
   -5.9078    0.1657   -0.0000 C   0  0  0  0  0  0  0  0  0  0  0  0
   -8.2283   -0.5920   -0.0000 C   0  0  0  0  0  0  0  0  0  0  0  0
   -9.5306    1.6575   -0.0000 C   0  0  0  0  0  0  0  0  0  0  0  0
   -6.7957   -1.0419   -0.0000 N   0  0  0  0  0  0  0  0  0  0  0  0
   -9.5424   -1.3260   -0.0000 N   0  0  0  0  0  0  0  0  0  0  0  0
  -10.8329    0.9235   -0.0000 C   0  0  0  0  0  0  0  0  0  0  0  0
  -10.8447   -0.5683   -0.0000 C   0  0  0  0  0  0  0  0  0  0  0  0
  -12.1352    1.6812   -0.0000 C   0  0  0  0  0  0  0  0  0  0  0  0
  -13.4494    2.4507   -0.0000 C   0  0  0  0  0  0  0  0  0  0  0  0
  -14.7635    3.2084   -0.0000 C   0  0  0  0  0  0  0  0  0  0  0  0
  -16.0658    2.4744   -0.0000 O   0  0  0  0  0  0  0  0  0  0  0  0
  -17.3681    3.2321   -0.0000 C   0  0  0  0  0  0  0  0  0  0  0  0
  1  2  2  0  0  0  0
  1  3  2  0  0  0  0
  1  4  1  0  0  0  0
  1  5  1  0  0  0  0
  4  6  1  0  0  0  0
  5  7  1  0  0  0  0
  6  8  2  0  0  0  0
  6  9  1  0  0  0  0
  7 10  1  0  0  0  0
  8 11  1  0  0  0  0
  8 12  1  0  0  0  0
  9 13  2  0  0  0  0
 12 14  2  0  0  0  0
 12 15  1  0  0  0  0
 14 16  1  0  0  0  0
 15 17  2  0  0  0  0
 15 18  1  0  0  0  0
 18 19  1  0  0  0  0
 18 20  2  0  0  0  0
 19 21  2  0  0  0  0
 19 22  1  0  0  0  0
 20 23  1  0  0  0  0
 21 24  1  0  0  0  0
 22 25  2  0  0  0  0
 24 26  2  0  0  0  0
 25 27  1  0  0  0  0
 27 28  3  0  0  0  0
 28 29  1  0  0  0  0
 29 30  1  0  0  0  0
 30 31  1  0  0  0  0
 13 14  1  0  0  0  0
 21 23  1  0  0  0  0
 25 26  1  0  0  0  0
M  END
>  <MolRegNo>
2155078

>  <m>
=

>  <Value>
5000

>  <Unit>
nM

>  <Type>
IC50

>  <pValue>
5.3

>  <Ligand Efficiency>
0

>  <Binding Efficiency>
0

>  <Surface Efficiency>
0

>  <Assay Index>
1055099

>  <Assay Category>


>  <Assay Organism>
Homo sapiens

>  <Target ID>
17045

>  <Target Name>
Cytochrome P450 3A4

>  <Target Organism>
Homo sapiens

>  <Target Description>
Target is a single protein chain

>  <Sequence Accession>
P08684

>  <Reference>


>  <Pubmed ID>


>  <DOI>


$$$$
2158121
Actelion Java MolfileCreator 1.0

 31 34  0  0  0  0  0  0  0  0999 V2000
    0.0000   -0.0000   -0.0000 S   0  0  0  0  0  0  0  0  0  0  0  0
   -0.0237    1.5077   -0.0000 O   0  0  0  0  0  0  0  0  0  0  0  0
    1.2821    0.7716   -0.0000 O   0  0  0  0  0  0  0  0  0  0  0  0
   -1.5077   -0.0000   -0.0000 N   0  0  0  0  0  0  0  0  0  0  0  0
    0.7479   -1.2821   -0.0000 C   0  0  0  0  0  0  0  0  0  0  0  0
   -2.2793    1.3059   -0.0000 C   0  0  0  0  0  0  0  0  0  0  0  0
    2.2318   -1.2584   -0.0000 C   0  0  0  0  0  0  0  0  0  0  0  0
   -0.0119   -2.5642   -0.0000 C   0  0  0  0  0  0  0  0  0  0  0  0
   -3.7870    1.3059   -0.0000 C   0  0  0  0  0  0  0  0  0  0  0  0
   -1.5552    2.6236   -0.0000 C   0  0  0  0  0  0  0  0  0  0  0  0
    2.9797   -2.5286   -0.0000 C   0  0  0  0  0  0  0  0  0  0  0  0
    0.7360   -3.8463   -0.0000 C   0  0  0  0  0  0  0  0  0  0  0  0
   -4.5468    0.0237   -0.0000 F   0  0  0  0  0  0  0  0  0  0  0  0
   -4.5468    2.6117   -0.0000 C   0  0  0  0  0  0  0  0  0  0  0  0
   -2.3268    3.9294   -0.0000 C   0  0  0  0  0  0  0  0  0  0  0  0
    4.4637   -2.5049   -0.0000 F   0  0  0  0  0  0  0  0  0  0  0  0
    2.2318   -3.8226   -0.0000 C   0  0  0  0  0  0  0  0  0  0  0  0
   -3.8226    3.9176   -0.0000 C   0  0  0  0  0  0  0  0  0  0  0  0
   -6.0544    2.6117   -0.0000 C   0  0  0  0  0  0  0  0  0  0  0  0
   -4.5942    5.2234   -0.0000 F   0  0  0  0  0  0  0  0  0  0  0  0
   -6.8261    3.9176   -0.0000 O   0  0  0  0  0  0  0  0  0  0  0  0
   -6.8023    1.3177   -0.0000 C   0  0  0  0  0  0  0  0  0  0  0  0
   -8.2388    0.8547   -0.0000 C   0  0  0  0  0  0  0  0  0  0  0  0
   -5.9238    0.1187   -0.0000 C   0  0  0  0  0  0  0  0  0  0  0  0
   -8.2388   -0.6411   -0.0000 C   0  0  0  0  0  0  0  0  0  0  0  0
   -9.5446    1.6145   -0.0000 C   0  0  0  0  0  0  0  0  0  0  0  0
   -6.8142   -1.0922   -0.0000 N   0  0  0  0  0  0  0  0  0  0  0  0
   -9.5565   -1.3771   -0.0000 N   0  0  0  0  0  0  0  0  0  0  0  0
  -10.8505    0.8785   -0.0000 C   0  0  0  0  0  0  0  0  0  0  0  0
  -10.8624   -0.6173   -0.0000 C   0  0  0  0  0  0  0  0  0  0  0  0
  -12.1564    1.6383   -0.0000 C   0  0  0  0  0  0  0  0  0  0  0  0
  1  2  2  0  0  0  0
  1  3  2  0  0  0  0
  1  4  1  0  0  0  0
  1  5  1  0  0  0  0
  4  6  1  0  0  0  0
  5  7  2  0  0  0  0
  5  8  1  0  0  0  0
  6  9  2  0  0  0  0
  6 10  1  0  0  0  0
  7 11  1  0  0  0  0
  8 12  2  0  0  0  0
  9 13  1  0  0  0  0
  9 14  1  0  0  0  0
 10 15  2  0  0  0  0
 11 16  1  0  0  0  0
 11 17  2  0  0  0  0
 14 18  2  0  0  0  0
 14 19  1  0  0  0  0
 18 20  1  0  0  0  0
 19 21  2  0  0  0  0
 19 22  1  0  0  0  0
 22 23  1  0  0  0  0
 22 24  2  0  0  0  0
 23 25  2  0  0  0  0
 23 26  1  0  0  0  0
 24 27  1  0  0  0  0
 25 28  1  0  0  0  0
 26 29  2  0  0  0  0
 28 30  2  0  0  0  0
 29 31  1  0  0  0  0
 12 17  1  0  0  0  0
 15 18  1  0  0  0  0
 25 27  1  0  0  0  0
 29 30  1  0  0  0  0
M  END
>  <MolRegNo>
2158121

>  <m>
=

>  <Value>
5000

>  <Unit>
nM

>  <Type>
IC50

>  <pValue>
5.3

>  <Ligand Efficiency>
0

>  <Binding Efficiency>
0

>  <Surface Efficiency>
0

>  <Assay Index>
1055100

>  <Assay Category>


>  <Assay Organism>
Homo sapiens

>  <Target ID>
17045

>  <Target Name>
Cytochrome P450 3A4

>  <Target Organism>
Homo sapiens

>  <Target Description>
Target is a single protein chain

>  <Sequence Accession>
P08684

>  <Reference>


>  <Pubmed ID>


>  <DOI>


$$$$
2114016
Actelion Java MolfileCreator 1.0

 37 40  0  0  0  0  0  0  0  0999 V2000
    0.0000   -0.0000   -0.0000 S   0  0  0  0  0  0  0  0  0  0  0  0
   -0.7740    1.3218   -0.0000 O   0  0  0  0  0  0  0  0  0  0  0  0
    0.7383    1.3218   -0.0000 O   0  0  0  0  0  0  0  0  0  0  0  0
   -1.3098   -0.7502   -0.0000 N   0  0  0  0  0  0  0  0  0  0  0  0
    1.2979   -0.7383   -0.0000 C   0  0  0  0  0  0  0  0  0  0  0  0
   -2.6316    0.0238   -0.0000 C   0  0  0  0  0  0  0  0  0  0  0  0
    2.5840    0.0238   -0.0000 C   0  0  0  0  0  0  0  0  0  0  0  0
    1.2860   -2.2386   -0.0000 C   0  0  0  0  0  0  0  0  0  0  0  0
    3.8700   -0.7145   -0.0000 C   0  0  0  0  0  0  0  0  0  0  0  0
    2.5721   -2.9769   -0.0000 C   0  0  0  0  0  0  0  0  0  0  0  0
    3.8581   -2.2029   -0.0000 C   0  0  0  0  0  0  0  0  0  0  0  0
    5.1560   -2.9412   -0.0000 C   0  0  0  0  0  0  0  0  0  0  0  0
    5.1441   -4.4416   -0.0000 C   0  0  0  0  0  0  0  0  0  0  0  0
    6.4421   -2.1791   -0.0000 C   0  0  0  0  0  0  0  0  0  0  0  0
    6.4302   -5.1798   -0.0000 N   0  0  0  0  0  0  0  0  0  0  0  0
    7.7281   -2.9174   -0.0000 C   0  0  0  0  0  0  0  0  0  0  0  0
    7.7281   -4.4178   -0.0000 C   0  0  0  0  0  0  0  0  0  0  0  0
    9.1570   -2.4292   -0.0000 C   0  0  0  0  0  0  0  0  0  0  0  0
    9.1570   -4.8702   -0.0000 N   0  0  0  0  0  0  0  0  0  0  0  0
    9.8953   -1.1193   -0.0000 C   0  0  0  0  0  0  0  0  0  0  0  0
   10.0501   -3.6318   -0.0000 C   0  0  0  0  0  0  0  0  0  0  0  0
    9.1332    0.2024   -0.0000 O   0  0  0  0  0  0  0  0  0  0  0  0
   11.3838   -1.1074   -0.0000 C   0  0  0  0  0  0  0  0  0  0  0  0
   12.1220   -2.3934   -0.0000 C   0  0  0  0  0  0  0  0  0  0  0  0
   12.1101    0.2143   -0.0000 C   0  0  0  0  0  0  0  0  0  0  0  0
   11.3599   -3.6795   -0.0000 F   0  0  0  0  0  0  0  0  0  0  0  0
   13.6105   -2.3815   -0.0000 C   0  0  0  0  0  0  0  0  0  0  0  0
   11.3361    1.5242   -0.0000 F   0  0  0  0  0  0  0  0  0  0  0  0
   13.5986    0.2262   -0.0000 C   0  0  0  0  0  0  0  0  0  0  0  0
   14.3488   -3.6676   -0.0000 N   0  0  0  0  0  0  0  0  0  0  0  0
   14.3488   -1.0717   -0.0000 C   0  0  0  0  0  0  0  0  0  0  0  0
   15.8372   -3.6557   -0.0000 S   0  0  0  0  0  0  0  0  0  0  0  0
   15.7777   -2.1315   -0.0000 O   0  0  0  0  0  0  0  0  0  0  0  0
   17.1114   -2.8459   -0.0000 O   0  0  0  0  0  0  0  0  0  0  0  0
   16.5755   -4.9536   -0.0000 C   0  0  0  0  0  0  0  0  0  0  0  0
   18.0640   -4.9417   -0.0000 C   0  0  0  0  0  0  0  0  0  0  0  0
   18.8022   -6.2277   -0.0000 C   0  0  0  0  0  0  0  0  0  0  0  0
  1  2  2  0  0  0  0
  1  3  2  0  0  0  0
  1  4  1  0  0  0  0
  1  5  1  0  0  0  0
  4  6  1  0  0  0  0
  5  7  2  0  0  0  0
  5  8  1  0  0  0  0
  7  9  1  0  0  0  0
  8 10  2  0  0  0  0
  9 11  2  0  0  0  0
 11 12  1  0  0  0  0
 12 13  2  0  0  0  0
 12 14  1  0  0  0  0
 13 15  1  0  0  0  0
 14 16  2  0  0  0  0
 15 17  2  0  0  0  0
 16 18  1  0  0  0  0
 17 19  1  0  0  0  0
 18 20  1  0  0  0  0
 18 21  2  0  0  0  0
 20 22  2  0  0  0  0
 20 23  1  0  0  0  0
 23 24  2  0  0  0  0
 23 25  1  0  0  0  0
 24 26  1  0  0  0  0
 24 27  1  0  0  0  0
 25 28  1  0  0  0  0
 25 29  2  0  0  0  0
 27 30  1  0  0  0  0
 27 31  2  0  0  0  0
 30 32  1  0  0  0  0
 32 33  2  0  0  0  0
 32 34  2  0  0  0  0
 32 35  1  0  0  0  0
 35 36  1  0  0  0  0
 36 37  1  0  0  0  0
 10 11  1  0  0  0  0
 16 17  1  0  0  0  0
 19 21  1  0  0  0  0
 29 31  1  0  0  0  0
M  END
>  <MolRegNo>
2114016

>  <m>
=

>  <Value>
5000

>  <Unit>
nM

>  <Type>
IC50

>  <pValue>
5.3

>  <Ligand Efficiency>
0

>  <Binding Efficiency>
0

>  <Surface Efficiency>
0

>  <Assay Index>
1055100

>  <Assay Category>


>  <Assay Organism>
Homo sapiens

>  <Target ID>
17045

>  <Target Name>
Cytochrome P450 3A4

>  <Target Organism>
Homo sapiens

>  <Target Description>
Target is a single protein chain

>  <Sequence Accession>
P08684

>  <Reference>


>  <Pubmed ID>


>  <DOI>


$$$$
2116773
Actelion Java MolfileCreator 1.0

 39 43  0  0  0  0  0  0  0  0999 V2000
    0.0000   -0.0000   -0.0000 S   0  0  0  0  0  0  0  0  0  0  0  0
   -0.7746    1.3228   -0.0000 O   0  0  0  0  0  0  0  0  0  0  0  0
    0.7388    1.3228   -0.0000 O   0  0  0  0  0  0  0  0  0  0  0  0
   -1.3108   -0.7508   -0.0000 N   0  0  0  0  0  0  0  0  0  0  0  0
    1.2989   -0.7388   -0.0000 C   0  0  0  0  0  0  0  0  0  0  0  0
   -1.3108   -2.2403   -0.0000 C   0  0  0  0  0  0  0  0  0  0  0  0
    1.2870   -2.2403   -0.0000 C   0  0  0  0  0  0  0  0  0  0  0  0
    2.5859    0.0238   -0.0000 C   0  0  0  0  0  0  0  0  0  0  0  0
   -2.0616   -3.5393   -0.0000 C   0  0  0  0  0  0  0  0  0  0  0  0
   -0.5601   -3.5274   -0.0000 C   0  0  0  0  0  0  0  0  0  0  0  0
    2.5740   -2.9792   -0.0000 C   0  0  0  0  0  0  0  0  0  0  0  0
    3.8729   -0.7150   -0.0000 C   0  0  0  0  0  0  0  0  0  0  0  0
    3.8610   -2.2165   -0.0000 C   0  0  0  0  0  0  0  0  0  0  0  0
    5.1600   -2.9554   -0.0000 C   0  0  0  0  0  0  0  0  0  0  0  0
    5.1480   -4.4569   -0.0000 C   0  0  0  0  0  0  0  0  0  0  0  0
    6.4470   -2.1927   -0.0000 C   0  0  0  0  0  0  0  0  0  0  0  0
    6.4350   -5.1957   -0.0000 N   0  0  0  0  0  0  0  0  0  0  0  0
    7.7340   -2.9315   -0.0000 C   0  0  0  0  0  0  0  0  0  0  0  0
    7.7340   -4.4330   -0.0000 C   0  0  0  0  0  0  0  0  0  0  0  0
    9.1640   -2.4429   -0.0000 C   0  0  0  0  0  0  0  0  0  0  0  0
    9.1640   -4.8859   -0.0000 N   0  0  0  0  0  0  0  0  0  0  0  0
    9.9028   -1.1321   -0.0000 C   0  0  0  0  0  0  0  0  0  0  0  0
   10.0577   -3.6465   -0.0000 C   0  0  0  0  0  0  0  0  0  0  0  0
    9.1401    0.1907   -0.0000 O   0  0  0  0  0  0  0  0  0  0  0  0
   11.3924   -1.1202   -0.0000 C   0  0  0  0  0  0  0  0  0  0  0  0
   12.1313   -2.4072   -0.0000 C   0  0  0  0  0  0  0  0  0  0  0  0
   12.1193    0.2026   -0.0000 C   0  0  0  0  0  0  0  0  0  0  0  0
   11.3686   -3.6942   -0.0000 F   0  0  0  0  0  0  0  0  0  0  0  0
   13.6208   -2.3953   -0.0000 C   0  0  0  0  0  0  0  0  0  0  0  0
   11.3447    1.5134   -0.0000 F   0  0  0  0  0  0  0  0  0  0  0  0
   13.6089    0.2145   -0.0000 C   0  0  0  0  0  0  0  0  0  0  0  0
   14.3597   -3.6823   -0.0000 N   0  0  0  0  0  0  0  0  0  0  0  0
   14.3597   -1.0844   -0.0000 C   0  0  0  0  0  0  0  0  0  0  0  0
   15.8493   -3.6704   -0.0000 S   0  0  0  0  0  0  0  0  0  0  0  0
   17.1244   -2.8600   -0.0000 O   0  0  0  0  0  0  0  0  0  0  0  0
   15.7897   -2.1450   -0.0000 O   0  0  0  0  0  0  0  0  0  0  0  0
   16.5881   -4.9693   -0.0000 C   0  0  0  0  0  0  0  0  0  0  0  0
   18.0777   -4.9574   -0.0000 C   0  0  0  0  0  0  0  0  0  0  0  0
   18.8166   -6.2444   -0.0000 C   0  0  0  0  0  0  0  0  0  0  0  0
  1  2  2  0  0  0  0
  1  3  2  0  0  0  0
  1  4  1  0  0  0  0
  1  5  1  0  0  0  0
  4  6  1  0  0  0  0
  5  7  2  0  0  0  0
  5  8  1  0  0  0  0
  6  9  1  0  0  0  0
  6 10  1  0  0  0  0
  7 11  1  0  0  0  0
  8 12  2  0  0  0  0
 11 13  2  0  0  0  0
 13 14  1  0  0  0  0
 14 15  2  0  0  0  0
 14 16  1  0  0  0  0
 15 17  1  0  0  0  0
 16 18  2  0  0  0  0
 17 19  2  0  0  0  0
 18 20  1  0  0  0  0
 19 21  1  0  0  0  0
 20 22  1  0  0  0  0
 20 23  2  0  0  0  0
 22 24  2  0  0  0  0
 22 25  1  0  0  0  0
 25 26  2  0  0  0  0
 25 27  1  0  0  0  0
 26 28  1  0  0  0  0
 26 29  1  0  0  0  0
 27 30  1  0  0  0  0
 27 31  2  0  0  0  0
 29 32  1  0  0  0  0
 29 33  2  0  0  0  0
 32 34  1  0  0  0  0
 34 35  2  0  0  0  0
 34 36  2  0  0  0  0
 34 37  1  0  0  0  0
 37 38  1  0  0  0  0
 38 39  1  0  0  0  0
  9 10  1  0  0  0  0
 12 13  1  0  0  0  0
 18 19  1  0  0  0  0
 21 23  1  0  0  0  0
 31 33  1  0  0  0  0
M  END
>  <MolRegNo>
2116773

>  <m>
=

>  <Value>
5000

>  <Unit>
nM

>  <Type>
IC50

>  <pValue>
5.3

>  <Ligand Efficiency>
0

>  <Binding Efficiency>
0

>  <Surface Efficiency>
0

>  <Assay Index>
1055100

>  <Assay Category>


>  <Assay Organism>
Homo sapiens

>  <Target ID>
17045

>  <Target Name>
Cytochrome P450 3A4

>  <Target Organism>
Homo sapiens

>  <Target Description>
Target is a single protein chain

>  <Sequence Accession>
P08684

>  <Reference>


>  <Pubmed ID>


>  <DOI>


$$$$
2159363
Actelion Java MolfileCreator 1.0

 40 43  0  0  0  0  0  0  0  0999 V2000
    0.0000   -0.0000   -0.0000 S   0  0  0  0  0  0  0  0  0  0  0  0
   -0.0592    1.5042   -0.0000 O   0  0  0  0  0  0  0  0  0  0  0  0
    1.2554    0.8054   -0.0000 O   0  0  0  0  0  0  0  0  0  0  0  0
   -1.5042    0.0118   -0.0000 N   0  0  0  0  0  0  0  0  0  0  0  0
    0.7343   -1.2910   -0.0000 C   0  0  0  0  0  0  0  0  0  0  0  0
   -2.2622    1.3147   -0.0000 C   0  0  0  0  0  0  0  0  0  0  0  0
    2.2148   -1.2791   -0.0000 C   0  0  0  0  0  0  0  0  0  0  0  0
   -3.7663    1.3265   -0.0000 C   0  0  0  0  0  0  0  0  0  0  0  0
   -1.5278    2.6175   -0.0000 C   0  0  0  0  0  0  0  0  0  0  0  0
    2.9491   -2.5583   -0.0000 C   0  0  0  0  0  0  0  0  0  0  0  0
   -4.5243    0.0474   -0.0000 F   0  0  0  0  0  0  0  0  0  0  0  0
   -4.5243    2.6293   -0.0000 C   0  0  0  0  0  0  0  0  0  0  0  0
   -2.2977    3.9321   -0.0000 C   0  0  0  0  0  0  0  0  0  0  0  0
   -3.8019    3.9321   -0.0000 C   0  0  0  0  0  0  0  0  0  0  0  0
   -6.0285    2.6412   -0.0000 C   0  0  0  0  0  0  0  0  0  0  0  0
   -4.5599    5.2350   -0.0000 F   0  0  0  0  0  0  0  0  0  0  0  0
   -6.7865    3.9440   -0.0000 O   0  0  0  0  0  0  0  0  0  0  0  0
   -6.7865    1.3620   -0.0000 C   0  0  0  0  0  0  0  0  0  0  0  0
   -8.2314    0.9001   -0.0000 C   0  0  0  0  0  0  0  0  0  0  0  0
   -5.9101    0.1658   -0.0000 C   0  0  0  0  0  0  0  0  0  0  0  0
   -8.2314   -0.5922   -0.0000 C   0  0  0  0  0  0  0  0  0  0  0  0
   -9.5343    1.6581   -0.0000 C   0  0  0  0  0  0  0  0  0  0  0  0
   -6.7983   -1.0423   -0.0000 N   0  0  0  0  0  0  0  0  0  0  0  0
   -9.5461   -1.3265   -0.0000 N   0  0  0  0  0  0  0  0  0  0  0  0
  -10.8371    0.9238   -0.0000 C   0  0  0  0  0  0  0  0  0  0  0  0
  -10.8489   -0.5685   -0.0000 C   0  0  0  0  0  0  0  0  0  0  0  0
  -12.1399    1.6818   -0.0000 C   0  0  0  0  0  0  0  0  0  0  0  0
  -13.4427    0.9475   -0.0000 C   0  0  0  0  0  0  0  0  0  0  0  0
  -12.1517    3.1860   -0.0000 C   0  0  0  0  0  0  0  0  0  0  0  0
  -14.7455    1.6937   -0.0000 N   0  0  0  0  0  0  0  0  0  0  0  0
  -13.4545    3.9440   -0.0000 C   0  0  0  0  0  0  0  0  0  0  0  0
  -14.7574    3.2097   -0.0000 C   0  0  0  0  0  0  0  0  0  0  0  0
  -16.0602    3.9677   -0.0000 C   0  0  0  0  0  0  0  0  0  0  0  0
  -17.3748    4.7257   -0.0000 C   0  0  0  0  0  0  0  0  0  0  0  0
  -18.6895    5.4837   -0.0000 C   0  0  0  0  0  0  0  0  0  0  0  0
  -19.9923    4.7494   -0.0000 N   0  0  0  0  0  0  0  0  0  0  0  0
  -21.2951    5.5074   -0.0000 C   0  0  0  0  0  0  0  0  0  0  0  0
  -20.0042    3.2689   -0.0000 C   0  0  0  0  0  0  0  0  0  0  0  0
  -21.3070    7.0115   -0.0000 C   0  0  0  0  0  0  0  0  0  0  0  0
  -18.7250    2.5346   -0.0000 C   0  0  0  0  0  0  0  0  0  0  0  0
  1  2  2  0  0  0  0
  1  3  2  0  0  0  0
  1  4  1  0  0  0  0
  1  5  1  0  0  0  0
  4  6  1  0  0  0  0
  5  7  1  0  0  0  0
  6  8  2  0  0  0  0
  6  9  1  0  0  0  0
  7 10  1  0  0  0  0
  8 11  1  0  0  0  0
  8 12  1  0  0  0  0
  9 13  2  0  0  0  0
 12 14  2  0  0  0  0
 12 15  1  0  0  0  0
 14 16  1  0  0  0  0
 15 17  2  0  0  0  0
 15 18  1  0  0  0  0
 18 19  1  0  0  0  0
 18 20  2  0  0  0  0
 19 21  2  0  0  0  0
 19 22  1  0  0  0  0
 20 23  1  0  0  0  0
 21 24  1  0  0  0  0
 22 25  2  0  0  0  0
 24 26  2  0  0  0  0
 25 27  1  0  0  0  0
 27 28  2  0  0  0  0
 27 29  1  0  0  0  0
 28 30  1  0  0  0  0
 29 31  2  0  0  0  0
 30 32  2  0  0  0  0
 32 33  1  0  0  0  0
 33 34  3  0  0  0  0
 34 35  1  0  0  0  0
 35 36  1  0  0  0  0
 36 37  1  0  0  0  0
 36 38  1  0  0  0  0
 37 39  1  0  0  0  0
 38 40  1  0  0  0  0
 13 14  1  0  0  0  0
 21 23  1  0  0  0  0
 25 26  1  0  0  0  0
 31 32  1  0  0  0  0
M  END
>  <MolRegNo>
2159363

>  <m>
=

>  <Value>
5000

>  <Unit>
nM

>  <Type>
IC50

>  <pValue>
5.3

>  <Ligand Efficiency>
0

>  <Binding Efficiency>
0

>  <Surface Efficiency>
0

>  <Assay Index>
1055100

>  <Assay Category>


>  <Assay Organism>
Homo sapiens

>  <Target ID>
17045

>  <Target Name>
Cytochrome P450 3A4

>  <Target Organism>
Homo sapiens

>  <Target Description>
Target is a single protein chain

>  <Sequence Accession>
P08684

>  <Reference>


>  <Pubmed ID>


>  <DOI>


$$$$
2105410
Actelion Java MolfileCreator 1.0

 42 46  0  0  0  0  0  0  0  0999 V2000
    0.0000   -0.0000   -0.0000 S   0  0  0  0  0  0  0  0  0  0  0  0
   -0.0593    1.5068   -0.0000 O   0  0  0  0  0  0  0  0  0  0  0  0
    1.2577    0.8068   -0.0000 O   0  0  0  0  0  0  0  0  0  0  0  0
   -1.5068    0.0119   -0.0000 N   0  0  0  0  0  0  0  0  0  0  0  0
    0.7356   -1.2933   -0.0000 C   0  0  0  0  0  0  0  0  0  0  0  0
   -2.2662    1.3170   -0.0000 C   0  0  0  0  0  0  0  0  0  0  0  0
    2.2187   -1.2814   -0.0000 C   0  0  0  0  0  0  0  0  0  0  0  0
   -3.7730    1.3289   -0.0000 C   0  0  0  0  0  0  0  0  0  0  0  0
   -1.5306    2.6221   -0.0000 C   0  0  0  0  0  0  0  0  0  0  0  0
    2.9544   -2.5628   -0.0000 C   0  0  0  0  0  0  0  0  0  0  0  0
   -4.5324    0.0475   -0.0000 F   0  0  0  0  0  0  0  0  0  0  0  0
   -4.5324    2.6340   -0.0000 C   0  0  0  0  0  0  0  0  0  0  0  0
   -2.3018    3.9391   -0.0000 C   0  0  0  0  0  0  0  0  0  0  0  0
   -3.8086    3.9391   -0.0000 C   0  0  0  0  0  0  0  0  0  0  0  0
   -6.0392    2.6459   -0.0000 C   0  0  0  0  0  0  0  0  0  0  0  0
   -4.5680    5.2443   -0.0000 F   0  0  0  0  0  0  0  0  0  0  0  0
   -6.7986    3.9510   -0.0000 O   0  0  0  0  0  0  0  0  0  0  0  0
   -6.7986    1.3645   -0.0000 C   0  0  0  0  0  0  0  0  0  0  0  0
   -8.2461    0.9017   -0.0000 C   0  0  0  0  0  0  0  0  0  0  0  0
   -5.9206    0.1661   -0.0000 C   0  0  0  0  0  0  0  0  0  0  0  0
   -8.2461   -0.5932   -0.0000 C   0  0  0  0  0  0  0  0  0  0  0  0
   -9.5512    1.6611   -0.0000 C   0  0  0  0  0  0  0  0  0  0  0  0
   -6.8105   -1.0441   -0.0000 N   0  0  0  0  0  0  0  0  0  0  0  0
   -9.5631   -1.3289   -0.0000 N   0  0  0  0  0  0  0  0  0  0  0  0
  -10.8564    0.9255   -0.0000 C   0  0  0  0  0  0  0  0  0  0  0  0
  -10.8683   -0.5695   -0.0000 C   0  0  0  0  0  0  0  0  0  0  0  0
  -12.1615    1.6848   -0.0000 C   0  0  0  0  0  0  0  0  0  0  0  0
  -13.4667    0.9492   -0.0000 C   0  0  0  0  0  0  0  0  0  0  0  0
  -12.1734    3.1917   -0.0000 C   0  0  0  0  0  0  0  0  0  0  0  0
  -14.7718    1.6967   -0.0000 N   0  0  0  0  0  0  0  0  0  0  0  0
  -13.4785    3.9510   -0.0000 C   0  0  0  0  0  0  0  0  0  0  0  0
  -14.7837    3.2154   -0.0000 C   0  0  0  0  0  0  0  0  0  0  0  0
  -16.0888    3.9747   -0.0000 O   0  0  0  0  0  0  0  0  0  0  0  0
  -17.3940    3.2391   -0.0000 C   0  0  0  0  0  0  0  0  0  0  0  0
  -17.4058    1.7560   -0.0000 C   0  0  0  0  0  0  0  0  0  0  0  0
  -18.7110    1.0204   -0.0000 C   0  0  0  0  0  0  0  0  0  0  0  0
  -18.7228   -0.4627   -0.0000 N   0  0  0  0  0  0  0  0  0  0  0  0
  -20.0280   -1.1865   -0.0000 C   0  0  0  0  0  0  0  0  0  0  0  0
  -17.4295   -1.1865   -0.0000 C   0  0  0  0  0  0  0  0  0  0  0  0
  -20.0398   -2.6696   -0.0000 C   0  0  0  0  0  0  0  0  0  0  0  0
  -17.4414   -2.6696   -0.0000 C   0  0  0  0  0  0  0  0  0  0  0  0
  -18.7584   -3.4171   -0.0000 O   0  0  0  0  0  0  0  0  0  0  0  0
  1  2  2  0  0  0  0
  1  3  2  0  0  0  0
  1  4  1  0  0  0  0
  1  5  1  0  0  0  0
  4  6  1  0  0  0  0
  5  7  1  0  0  0  0
  6  8  2  0  0  0  0
  6  9  1  0  0  0  0
  7 10  1  0  0  0  0
  8 11  1  0  0  0  0
  8 12  1  0  0  0  0
  9 13  2  0  0  0  0
 12 14  2  0  0  0  0
 12 15  1  0  0  0  0
 14 16  1  0  0  0  0
 15 17  2  0  0  0  0
 15 18  1  0  0  0  0
 18 19  1  0  0  0  0
 18 20  2  0  0  0  0
 19 21  2  0  0  0  0
 19 22  1  0  0  0  0
 20 23  1  0  0  0  0
 21 24  1  0  0  0  0
 22 25  2  0  0  0  0
 24 26  2  0  0  0  0
 25 27  1  0  0  0  0
 27 28  2  0  0  0  0
 27 29  1  0  0  0  0
 28 30  1  0  0  0  0
 29 31  2  0  0  0  0
 30 32  2  0  0  0  0
 32 33  1  0  0  0  0
 33 34  1  0  0  0  0
 34 35  1  0  0  0  0
 35 36  1  0  0  0  0
 36 37  1  0  0  0  0
 37 38  1  0  0  0  0
 37 39  1  0  0  0  0
 38 40  1  0  0  0  0
 39 41  1  0  0  0  0
 40 42  1  0  0  0  0
 13 14  1  0  0  0  0
 21 23  1  0  0  0  0
 25 26  1  0  0  0  0
 31 32  1  0  0  0  0
 41 42  1  0  0  0  0
M  END
>  <MolRegNo>
2105410

>  <m>
=

>  <Value>
5000

>  <Unit>
nM

>  <Type>
IC50

>  <pValue>
5.3

>  <Ligand Efficiency>
0

>  <Binding Efficiency>
0

>  <Surface Efficiency>
0

>  <Assay Index>
1055100

>  <Assay Category>


>  <Assay Organism>
Homo sapiens

>  <Target ID>
17045

>  <Target Name>
Cytochrome P450 3A4

>  <Target Organism>
Homo sapiens

>  <Target Description>
Target is a single protein chain

>  <Sequence Accession>
P08684

>  <Reference>


>  <Pubmed ID>


>  <DOI>


$$$$
2157720
Actelion Java MolfileCreator 1.0

 28 30  0  0  0  0  0  0  0  0999 V2000
    0.0000   -0.0000   -0.0000 S   0  0  0  0  0  0  0  0  0  0  0  0
   -0.0592    1.5042   -0.0000 O   0  0  0  0  0  0  0  0  0  0  0  0
    1.2555    0.8054   -0.0000 O   0  0  0  0  0  0  0  0  0  0  0  0
   -1.5042    0.0118   -0.0000 N   0  0  0  0  0  0  0  0  0  0  0  0
    0.7343   -1.2910   -0.0000 C   0  0  0  0  0  0  0  0  0  0  0  0
   -2.2622    1.3147   -0.0000 C   0  0  0  0  0  0  0  0  0  0  0  0
    2.2148   -1.2792   -0.0000 C   0  0  0  0  0  0  0  0  0  0  0  0
   -3.7664    1.3265   -0.0000 C   0  0  0  0  0  0  0  0  0  0  0  0
   -1.5279    2.6175   -0.0000 C   0  0  0  0  0  0  0  0  0  0  0  0
    2.9492   -2.5583   -0.0000 C   0  0  0  0  0  0  0  0  0  0  0  0
   -4.5245    0.0474   -0.0000 F   0  0  0  0  0  0  0  0  0  0  0  0
   -4.5245    2.6294   -0.0000 C   0  0  0  0  0  0  0  0  0  0  0  0
   -2.2978    3.9322   -0.0000 C   0  0  0  0  0  0  0  0  0  0  0  0
   -3.8020    3.9322   -0.0000 C   0  0  0  0  0  0  0  0  0  0  0  0
   -6.0287    2.6412   -0.0000 C   0  0  0  0  0  0  0  0  0  0  0  0
   -4.5600    5.2351   -0.0000 F   0  0  0  0  0  0  0  0  0  0  0  0
   -6.7867    3.9441   -0.0000 O   0  0  0  0  0  0  0  0  0  0  0  0
   -6.7867    1.3621   -0.0000 C   0  0  0  0  0  0  0  0  0  0  0  0
   -8.2317    0.9002   -0.0000 C   0  0  0  0  0  0  0  0  0  0  0  0
   -5.9102    0.1658   -0.0000 C   0  0  0  0  0  0  0  0  0  0  0  0
   -8.2317   -0.5922   -0.0000 C   0  0  0  0  0  0  0  0  0  0  0  0
   -9.5345    1.6582   -0.0000 C   0  0  0  0  0  0  0  0  0  0  0  0
   -6.7985   -1.0423   -0.0000 N   0  0  0  0  0  0  0  0  0  0  0  0
   -9.5464   -1.3265   -0.0000 N   0  0  0  0  0  0  0  0  0  0  0  0
  -10.8374    0.9238   -0.0000 C   0  0  0  0  0  0  0  0  0  0  0  0
  -10.8492   -0.5685   -0.0000 C   0  0  0  0  0  0  0  0  0  0  0  0
  -12.1402    1.6819   -0.0000 C   0  0  0  0  0  0  0  0  0  0  0  0
  -13.4549    2.4517   -0.0000 C   0  0  0  0  0  0  0  0  0  0  0  0
  1  2  2  0  0  0  0
  1  3  2  0  0  0  0
  1  4  1  0  0  0  0
  1  5  1  0  0  0  0
  4  6  1  0  0  0  0
  5  7  1  0  0  0  0
  6  8  2  0  0  0  0
  6  9  1  0  0  0  0
  7 10  1  0  0  0  0
  8 11  1  0  0  0  0
  8 12  1  0  0  0  0
  9 13  2  0  0  0  0
 12 14  2  0  0  0  0
 12 15  1  0  0  0  0
 14 16  1  0  0  0  0
 15 17  2  0  0  0  0
 15 18  1  0  0  0  0
 18 19  1  0  0  0  0
 18 20  2  0  0  0  0
 19 21  2  0  0  0  0
 19 22  1  0  0  0  0
 20 23  1  0  0  0  0
 21 24  1  0  0  0  0
 22 25  2  0  0  0  0
 24 26  2  0  0  0  0
 25 27  1  0  0  0  0
 27 28  3  0  0  0  0
 13 14  1  0  0  0  0
 21 23  1  0  0  0  0
 25 26  1  0  0  0  0
M  END
>  <MolRegNo>
2157720

>  <m>
=

>  <Value>
5000

>  <Unit>
nM

>  <Type>
IC50

>  <pValue>
5.3

>  <Ligand Efficiency>
0

>  <Binding Efficiency>
0

>  <Surface Efficiency>
0

>  <Assay Index>
1055100

>  <Assay Category>


>  <Assay Organism>
Homo sapiens

>  <Target ID>
17045

>  <Target Name>
Cytochrome P450 3A4

>  <Target Organism>
Homo sapiens

>  <Target Description>
Target is a single protein chain

>  <Sequence Accession>
P08684

>  <Reference>


>  <Pubmed ID>


>  <DOI>


$$$$
1978262
Actelion Java MolfileCreator 1.0

 35 38  0  0  1  0  0  0  0  0999 V2000
    0.0000   -0.0000   -0.0000 O   0  0  0  0  0  0  0  0  0  0  0  0
    1.0716   -0.6158   -0.0000 C   0  0  0  0  0  0  0  0  0  0  0  0
    2.4141    0.1848   -0.0000 O   0  0  0  0  0  0  0  0  0  0  0  0
    1.0592   -2.1678   -0.0000 N   0  0  0  0  0  0  0  0  0  0  0  0
    3.7566   -0.5789   -0.0000 C   0  0  0  0  0  0  0  0  0  0  0  0
   -0.3079   -2.9437   -0.0000 C   0  0  0  0  0  0  0  0  0  0  0  0
    2.4018   -2.9314   -0.0000 C   0  0  0  0  0  0  0  0  0  0  0  0
    3.7074    0.9730   -0.0000 C   0  0  0  0  0  0  0  0  0  0  0  0
    3.7443   -2.1308   -0.0000 C   0  0  0  0  0  0  0  0  0  0  0  0
    5.0622   -1.3672   -0.0000 C   0  0  0  0  0  0  0  0  0  0  0  0
   -0.3202   -4.4956   -0.0000 C   0  0  0  0  0  0  0  0  0  0  0  0
   -1.4041   -2.3156   -0.0000 C   0  0  0  0  0  0  0  0  0  0  0  0
    2.3156    1.7367   -0.0000 C   0  0  0  0  0  0  0  0  0  0  0  0
    5.0252    1.7983   -0.0000 C   0  0  0  0  0  0  0  0  0  0  0  0
    5.0499   -2.9191   -0.0000 C   0  0  0  0  0  0  0  0  0  0  0  0
    1.0223   -5.2593   -0.0000 C   0  0  0  0  0  0  0  0  0  0  0  0
   -1.6874   -5.2716   -0.0000 C   0  0  0  0  0  0  0  0  0  0  0  0
    2.2663    3.3132   -0.0000 C   0  0  0  0  0  0  0  0  0  0  0  0
    4.9760    3.3748   -0.0000 C   0  0  0  0  0  0  0  0  0  0  0  0
    6.1214   -3.5349   -0.0000 O   0  0  0  0  0  0  0  0  0  0  0  0
    3.9537   -3.5349   -0.0000 C   0  0  0  0  0  0  0  0  0  0  0  0
    5.0376   -4.1631   -0.0000 C   0  0  0  0  0  0  0  0  0  0  0  0
    1.0100   -6.8112   -0.0000 C   0  0  0  0  0  0  0  0  0  0  0  0
   -1.6997   -6.8235   -0.0000 C   0  0  0  0  0  0  0  0  0  0  0  0
    3.5842    4.1384   -0.0000 C   0  0  0  0  0  0  0  0  0  0  0  0
   -0.3572   -7.5871   -0.0000 C   0  0  0  0  0  0  0  0  0  0  0  0
   -0.3695   -9.1391   -0.0000 C   0  0  0  0  0  0  0  0  0  0  0  0
    0.9730   -9.9027   -0.0000 N   0  0  0  0  0  0  0  0  0  0  0  0
   -1.7367   -9.9027   -0.0000 C   0  0  0  0  0  0  0  0  0  0  0  0
    0.9607  -11.4546   -0.0000 N   0  0  0  0  0  0  0  0  0  0  0  0
   -1.7490  -11.4546   -0.0000 C   0  0  0  0  0  0  0  0  0  0  0  0
   -0.4065  -12.2183   -0.0000 C   0  0  0  0  0  0  0  0  0  0  0  0
    2.3032  -12.2183   -0.0000 C   0  0  0  0  0  0  0  0  0  0  0  0
   -0.4188  -13.4622   -0.0000 O   0  0  0  0  0  0  0  0  0  0  0  0
    3.3748  -11.5778   -0.0000 C   0  0  0  0  0  0  0  0  0  0  0  0
  1  2  2  0  0  0  0
  2  3  1  0  0  0  0
  2  4  1  0  0  0  0
  3  5  1  0  0  0  0
  6  4  1  6  0  0  0
  4  7  1  0  0  0  0
  5  8  1  0  0  0  0
  5  9  1  1  0  0  0
  5 10  1  0  0  0  0
  6 11  1  0  0  0  0
  6 12  1  0  0  0  0
  8 13  2  0  0  0  0
  8 14  1  0  0  0  0
 10 15  1  0  0  0  0
 11 16  2  0  0  0  0
 11 17  1  0  0  0  0
 13 18  1  0  0  0  0
 14 19  2  0  0  0  0
 15 20  1  0  0  0  0
 15 21  1  0  0  0  0
 15 22  1  0  0  0  0
 16 23  1  0  0  0  0
 17 24  2  0  0  0  0
 18 25  2  0  0  0  0
 23 26  2  0  0  0  0
 26 27  1  0  0  0  0
 27 28  2  0  0  0  0
 27 29  1  0  0  0  0
 28 30  1  0  0  0  0
 29 31  2  0  0  0  0
 30 32  1  0  0  0  0
 30 33  1  0  0  0  0
 32 34  2  0  0  0  0
 33 35  1  0  0  0  0
  7  9  1  0  0  0  0
 19 25  1  0  0  0  0
 24 26  1  0  0  0  0
 31 32  1  0  0  0  0
M  END
>  <MolRegNo>
1978262

>  <m>
=

>  <Value>
32700

>  <Unit>
nM

>  <Type>
IC50

>  <pValue>
4.49

>  <Ligand Efficiency>
0.18

>  <Binding Efficiency>
9.43

>  <Surface Efficiency>
5.3

>  <Assay Index>
973207

>  <Assay Category>


>  <Assay Organism>
Homo sapiens

>  <Target ID>
17045

>  <Target Name>
Cytochrome P450 3A4

>  <Target Organism>
Homo sapiens

>  <Target Description>
Target is a single protein chain

>  <Sequence Accession>
P08684

>  <Reference>


>  <Pubmed ID>


>  <DOI>


$$$$
1978264
Actelion Java MolfileCreator 1.0

 38 41  0  0  1  0  0  0  0  0999 V2000
    0.0000   -0.0000   -0.0000 F   0  0  0  0  0  0  0  0  0  0  0  0
    1.0732    0.6414   -0.0000 C   0  0  0  0  0  0  0  0  0  0  0  0
    1.0609    1.9120   -0.0000 F   0  0  0  0  0  0  0  0  0  0  0  0
   -0.0247    1.2829   -0.0000 F   0  0  0  0  0  0  0  0  0  0  0  0
    2.4178   -0.1234   -0.0000 C   0  0  0  0  0  0  0  0  0  0  0  0
    3.7623    0.6785   -0.0000 N   0  0  0  0  0  0  0  0  0  0  0  0
    3.7377    2.2574   -0.0000 N   0  0  0  0  0  0  0  0  0  0  0  0
    5.1069   -0.0863   -0.0000 C   0  0  0  0  0  0  0  0  0  0  0  0
    5.0823    3.0592   -0.0000 C   0  0  0  0  0  0  0  0  0  0  0  0
    5.0946   -1.3322   -0.0000 O   0  0  0  0  0  0  0  0  0  0  0  0
    6.4515    0.7155   -0.0000 C   0  0  0  0  0  0  0  0  0  0  0  0
    5.0699    4.6382   -0.0000 C   0  0  0  0  0  0  0  0  0  0  0  0
    6.4268    2.2944   -0.0000 C   0  0  0  0  0  0  0  0  0  0  0  0
    3.7007    5.4277   -0.0000 C   0  0  0  0  0  0  0  0  0  0  0  0
    6.4145    5.4400   -0.0000 C   0  0  0  0  0  0  0  0  0  0  0  0
    3.6883    7.0066   -0.0000 C   0  0  0  0  0  0  0  0  0  0  0  0
    6.4022    7.0189   -0.0000 C   0  0  0  0  0  0  0  0  0  0  0  0
    5.0329    7.8084   -0.0000 C   0  0  0  0  0  0  0  0  0  0  0  0
    5.0206    9.3874   -0.0000 C   0  0  0  0  0  0  0  0  0  0  0  0
    3.6513   10.1768   -0.0000 N   0  0  0  0  0  0  0  0  0  0  0  0
    6.0938   10.0288   -0.0000 C   0  0  0  0  0  0  0  0  0  0  0  0
    2.2821    9.4120   -0.0000 C   0  0  0  0  0  0  0  0  0  0  0  0
    3.6390   11.7558   -0.0000 C   0  0  0  0  0  0  0  0  0  0  0  0
    2.2697    8.1661   -0.0000 O   0  0  0  0  0  0  0  0  0  0  0  0
    0.9128   10.2015   -0.0000 O   0  0  0  0  0  0  0  0  0  0  0  0
    2.2697   12.5453   -0.0000 C   0  0  0  0  0  0  0  0  0  0  0  0
    0.9005   11.7805   -0.0000 C   0  0  0  0  0  0  0  0  0  0  0  0
   -0.4317   10.9910   -0.0000 C   0  0  0  0  0  0  0  0  0  0  0  0
    0.9252   13.3348   -0.0000 C   0  0  0  0  0  0  0  0  0  0  0  0
   -0.4071    9.4367   -0.0000 C   0  0  0  0  0  0  0  0  0  0  0  0
   -1.8133   11.7558   -0.0000 C   0  0  0  0  0  0  0  0  0  0  0  0
    2.2697   14.1366   -0.0000 C   0  0  0  0  0  0  0  0  0  0  0  0
   -1.7517    8.6349   -0.0000 C   0  0  0  0  0  0  0  0  0  0  0  0
   -3.1579   10.9540   -0.0000 C   0  0  0  0  0  0  0  0  0  0  0  0
    2.2574   15.4071   -0.0000 O   0  0  0  0  0  0  0  0  0  0  0  0
    3.3429   13.5198   -0.0000 C   0  0  0  0  0  0  0  0  0  0  0  0
    3.3429   14.7780   -0.0000 C   0  0  0  0  0  0  0  0  0  0  0  0
   -3.1332    9.3997   -0.0000 C   0  0  0  0  0  0  0  0  0  0  0  0
  1  2  1  0  0  0  0
  2  3  1  0  0  0  0
  2  4  1  0  0  0  0
  2  5  1  0  0  0  0
  5  6  1  0  0  0  0
  6  7  1  0  0  0  0
  6  8  1  0  0  0  0
  7  9  2  0  0  0  0
  8 10  2  0  0  0  0
  8 11  1  0  0  0  0
  9 12  1  0  0  0  0
  9 13  1  0  0  0  0
 12 14  2  0  0  0  0
 12 15  1  0  0  0  0
 14 16  1  0  0  0  0
 15 17  2  0  0  0  0
 16 18  2  0  0  0  0
 18 19  1  0  0  0  0
 19 20  1  1  0  0  0
 19 21  1  0  0  0  0
 20 22  1  0  0  0  0
 20 23  1  0  0  0  0
 22 24  2  0  0  0  0
 22 25  1  0  0  0  0
 23 26  1  0  0  0  0
 27 25  1  6  0  0  0
 27 28  1  0  0  0  0
 27 29  1  0  0  0  0
 28 30  2  0  0  0  0
 28 31  1  0  0  0  0
 29 32  1  0  0  0  0
 30 33  1  0  0  0  0
 31 34  2  0  0  0  0
 32 35  1  0  0  0  0
 32 36  1  0  0  0  0
 32 37  1  0  0  0  0
 33 38  2  0  0  0  0
 11 13  2  0  0  0  0
 17 18  1  0  0  0  0
 26 27  1  0  0  0  0
 34 38  1  0  0  0  0
M  END
>  <MolRegNo>
1978264

>  <m>
=

>  <Value>
15600

>  <Unit>
nM

>  <Type>
IC50

>  <pValue>
4.81

>  <Ligand Efficiency>
0.17

>  <Binding Efficiency>
9.08

>  <Surface Efficiency>
5.68

>  <Assay Index>
973207

>  <Assay Category>


>  <Assay Organism>
Homo sapiens

>  <Target ID>
17045

>  <Target Name>
Cytochrome P450 3A4

>  <Target Organism>
Homo sapiens

>  <Target Description>
Target is a single protein chain

>  <Sequence Accession>
P08684

>  <Reference>


>  <Pubmed ID>


>  <DOI>


$$$$
1978265
Actelion Java MolfileCreator 1.0

 35 38  0  0  1  0  0  0  0  0999 V2000
    0.0000   -0.0000   -0.0000 O   0  0  0  0  0  0  0  0  0  0  0  0
   -0.0124    1.2733   -0.0000 C   0  0  0  0  0  0  0  0  0  0  0  0
   -1.3845    2.0644   -0.0000 O   0  0  0  0  0  0  0  0  0  0  0  0
    1.3351    2.0644   -0.0000 N   0  0  0  0  0  0  0  0  0  0  0  0
   -1.3969    3.6467   -0.0000 C   0  0  0  0  0  0  0  0  0  0  0  0
    2.6825    1.2980   -0.0000 C   0  0  0  0  0  0  0  0  0  0  0  0
    1.3227    3.6467   -0.0000 C   0  0  0  0  0  0  0  0  0  0  0  0
   -2.7320    2.8556   -0.0000 C   0  0  0  0  0  0  0  0  0  0  0  0
   -0.0494    4.4379   -0.0000 C   0  0  0  0  0  0  0  0  0  0  0  0
   -1.3722    5.2043   -0.0000 C   0  0  0  0  0  0  0  0  0  0  0  0
    2.6702   -0.2596   -0.0000 C   0  0  0  0  0  0  0  0  0  0  0  0
    3.7580    1.9408   -0.0000 C   0  0  0  0  0  0  0  0  0  0  0  0
   -2.7072    1.2980   -0.0000 C   0  0  0  0  0  0  0  0  0  0  0  0
   -4.1165    3.6220   -0.0000 C   0  0  0  0  0  0  0  0  0  0  0  0
   -0.0247    6.0079   -0.0000 C   0  0  0  0  0  0  0  0  0  0  0  0
    1.2980   -1.0384   -0.0000 C   0  0  0  0  0  0  0  0  0  0  0  0
    4.0176   -1.0260   -0.0000 C   0  0  0  0  0  0  0  0  0  0  0  0
   -4.0547    0.4945   -0.0000 C   0  0  0  0  0  0  0  0  0  0  0  0
   -5.4639    2.8185   -0.0000 C   0  0  0  0  0  0  0  0  0  0  0  0
   -0.0371    7.2811   -0.0000 O   0  0  0  0  0  0  0  0  0  0  0  0
    1.0508    5.3898   -0.0000 C   0  0  0  0  0  0  0  0  0  0  0  0
    1.0508    6.6507   -0.0000 C   0  0  0  0  0  0  0  0  0  0  0  0
    1.2856   -2.5960   -0.0000 C   0  0  0  0  0  0  0  0  0  0  0  0
    4.0052   -2.5836   -0.0000 C   0  0  0  0  0  0  0  0  0  0  0  0
   -5.4392    1.2609   -0.0000 C   0  0  0  0  0  0  0  0  0  0  0  0
    2.6331   -3.3624   -0.0000 C   0  0  0  0  0  0  0  0  0  0  0  0
    2.6207   -4.9200   -0.0000 C   0  0  0  0  0  0  0  0  0  0  0  0
    1.2485   -5.6988   -0.0000 N   0  0  0  0  0  0  0  0  0  0  0  0
    3.9682   -5.6865   -0.0000 C   0  0  0  0  0  0  0  0  0  0  0  0
    1.2485   -7.2564   -0.0000 N   0  0  0  0  0  0  0  0  0  0  0  0
    3.9682   -7.2440   -0.0000 C   0  0  0  0  0  0  0  0  0  0  0  0
    2.5960   -8.0228   -0.0000 C   0  0  0  0  0  0  0  0  0  0  0  0
    0.1483   -7.8745   -0.0000 C   0  0  0  0  0  0  0  0  0  0  0  0
    5.0436   -7.8498   -0.0000 C   0  0  0  0  0  0  0  0  0  0  0  0
    2.5836   -9.2714   -0.0000 O   0  0  0  0  0  0  0  0  0  0  0  0
  1  2  2  0  0  0  0
  2  3  1  0  0  0  0
  2  4  1  0  0  0  0
  3  5  1  0  0  0  0
  6  4  1  1  0  0  0
  4  7  1  0  0  0  0
  5  8  1  0  0  0  0
  5  9  1  1  0  0  0
  5 10  1  0  0  0  0
  6 11  1  0  0  0  0
  6 12  1  0  0  0  0
  8 13  2  0  0  0  0
  8 14  1  0  0  0  0
 10 15  1  0  0  0  0
 11 16  2  0  0  0  0
 11 17  1  0  0  0  0
 13 18  1  0  0  0  0
 14 19  2  0  0  0  0
 15 20  1  0  0  0  0
 15 21  1  0  0  0  0
 15 22  1  0  0  0  0
 16 23  1  0  0  0  0
 17 24  2  0  0  0  0
 18 25  2  0  0  0  0
 23 26  2  0  0  0  0
 26 27  1  0  0  0  0
 27 28  2  0  0  0  0
 27 29  1  0  0  0  0
 28 30  1  0  0  0  0
 29 31  2  0  0  0  0
 30 32  1  0  0  0  0
 30 33  1  0  0  0  0
 31 34  1  0  0  0  0
 32 35  2  0  0  0  0
  7  9  1  0  0  0  0
 19 25  1  0  0  0  0
 24 26  1  0  0  0  0
 31 32  1  0  0  0  0
M  END
>  <MolRegNo>
1978265

>  <m>
=

>  <Value>
31000

>  <Unit>
nM

>  <Type>
IC50

>  <pValue>
4.51

>  <Ligand Efficiency>
0.18

>  <Binding Efficiency>
9.48

>  <Surface Efficiency>
5.33

>  <Assay Index>
973207

>  <Assay Category>


>  <Assay Organism>
Homo sapiens

>  <Target ID>
17045

>  <Target Name>
Cytochrome P450 3A4

>  <Target Organism>
Homo sapiens

>  <Target Description>
Target is a single protein chain

>  <Sequence Accession>
P08684

>  <Reference>


>  <Pubmed ID>


>  <DOI>


$$$$
1978267
Actelion Java MolfileCreator 1.0

 37 41  0  0  1  0  0  0  0  0999 V2000
    0.0000   -0.0000   -0.0000 O   0  0  0  0  0  0  0  0  0  0  0  0
   -0.0122    1.2583   -0.0000 C   0  0  0  0  0  0  0  0  0  0  0  0
   -1.3682    2.0401   -0.0000 O   0  0  0  0  0  0  0  0  0  0  0  0
    1.3194    2.0401   -0.0000 N   0  0  0  0  0  0  0  0  0  0  0  0
   -1.3804    3.6038   -0.0000 C   0  0  0  0  0  0  0  0  0  0  0  0
    2.6509    1.2827   -0.0000 C   0  0  0  0  0  0  0  0  0  0  0  0
    1.3071    3.6038   -0.0000 C   0  0  0  0  0  0  0  0  0  0  0  0
   -2.6998    2.8219   -0.0000 C   0  0  0  0  0  0  0  0  0  0  0  0
   -0.0489    4.3856   -0.0000 C   0  0  0  0  0  0  0  0  0  0  0  0
   -1.3560    5.1430   -0.0000 C   0  0  0  0  0  0  0  0  0  0  0  0
    2.6387   -0.2565   -0.0000 C   0  0  0  0  0  0  0  0  0  0  0  0
    3.7137    1.9179   -0.0000 C   0  0  0  0  0  0  0  0  0  0  0  0
   -2.6753    1.2827   -0.0000 C   0  0  0  0  0  0  0  0  0  0  0  0
   -4.0680    3.5793   -0.0000 C   0  0  0  0  0  0  0  0  0  0  0  0
   -0.0244    5.9371   -0.0000 C   0  0  0  0  0  0  0  0  0  0  0  0
    1.2827   -1.0262   -0.0000 C   0  0  0  0  0  0  0  0  0  0  0  0
    3.9703   -1.0139   -0.0000 C   0  0  0  0  0  0  0  0  0  0  0  0
   -4.0069    0.4886   -0.0000 C   0  0  0  0  0  0  0  0  0  0  0  0
   -5.3996    2.7853   -0.0000 C   0  0  0  0  0  0  0  0  0  0  0  0
   -0.0366    7.1953   -0.0000 O   0  0  0  0  0  0  0  0  0  0  0  0
    1.0384    5.3263   -0.0000 C   0  0  0  0  0  0  0  0  0  0  0  0
    1.0384    6.5723   -0.0000 C   0  0  0  0  0  0  0  0  0  0  0  0
    1.2705   -2.5654   -0.0000 C   0  0  0  0  0  0  0  0  0  0  0  0
    3.9581   -2.5532   -0.0000 C   0  0  0  0  0  0  0  0  0  0  0  0
   -5.3751    1.2461   -0.0000 C   0  0  0  0  0  0  0  0  0  0  0  0
    2.6021   -3.3228   -0.0000 C   0  0  0  0  0  0  0  0  0  0  0  0
    2.5898   -4.8621   -0.0000 C   0  0  0  0  0  0  0  0  0  0  0  0
    1.2338   -5.6317   -0.0000 N   0  0  0  0  0  0  0  0  0  0  0  0
    3.9214   -5.6195   -0.0000 C   0  0  0  0  0  0  0  0  0  0  0  0
    1.2338   -7.1709   -0.0000 N   0  0  0  0  0  0  0  0  0  0  0  0
    3.9214   -7.1587   -0.0000 C   0  0  0  0  0  0  0  0  0  0  0  0
    2.5654   -7.9283   -0.0000 C   0  0  0  0  0  0  0  0  0  0  0  0
   -0.1222   -7.9405   -0.0000 C   0  0  0  0  0  0  0  0  0  0  0  0
    2.5532   -9.1622   -0.0000 O   0  0  0  0  0  0  0  0  0  0  0  0
   -1.4782   -7.1587   -0.0000 C   0  0  0  0  0  0  0  0  0  0  0  0
   -2.9563   -7.1953   -0.0000 C   0  0  0  0  0  0  0  0  0  0  0  0
   -2.1867   -5.8516   -0.0000 C   0  0  0  0  0  0  0  0  0  0  0  0
  1  2  2  0  0  0  0
  2  3  1  0  0  0  0
  2  4  1  0  0  0  0
  3  5  1  0  0  0  0
  6  4  1  1  0  0  0
  4  7  1  0  0  0  0
  5  8  1  0  0  0  0
  5  9  1  1  0  0  0
  5 10  1  0  0  0  0
  6 11  1  0  0  0  0
  6 12  1  0  0  0  0
  8 13  2  0  0  0  0
  8 14  1  0  0  0  0
 10 15  1  0  0  0  0
 11 16  2  0  0  0  0
 11 17  1  0  0  0  0
 13 18  1  0  0  0  0
 14 19  2  0  0  0  0
 15 20  1  0  0  0  0
 15 21  1  0  0  0  0
 15 22  1  0  0  0  0
 16 23  1  0  0  0  0
 17 24  2  0  0  0  0
 18 25  2  0  0  0  0
 23 26  2  0  0  0  0
 26 27  1  0  0  0  0
 27 28  2  0  0  0  0
 27 29  1  0  0  0  0
 28 30  1  0  0  0  0
 29 31  2  0  0  0  0
 30 32  1  0  0  0  0
 30 33  1  0  0  0  0
 32 34  2  0  0  0  0
 33 35  1  0  0  0  0
 35 36  1  0  0  0  0
 35 37  1  0  0  0  0
  7  9  1  0  0  0  0
 19 25  1  0  0  0  0
 24 26  1  0  0  0  0
 31 32  1  0  0  0  0
 36 37  1  0  0  0  0
M  END
>  <MolRegNo>
1978267

>  <m>
=

>  <Value>
5700

>  <Unit>
nM

>  <Type>
IC50

>  <pValue>
5.24

>  <Ligand Efficiency>
0.19

>  <Binding Efficiency>
10.45

>  <Surface Efficiency>
6.19

>  <Assay Index>
973207

>  <Assay Category>


>  <Assay Organism>
Homo sapiens

>  <Target ID>
17045

>  <Target Name>
Cytochrome P450 3A4

>  <Target Organism>
Homo sapiens

>  <Target Description>
Target is a single protein chain

>  <Sequence Accession>
P08684

>  <Reference>


>  <Pubmed ID>


>  <DOI>


$$$$
1978268
Actelion Java MolfileCreator 1.0

 36 40  0  0  1  0  0  0  0  0999 V2000
    0.0000   -0.0000   -0.0000 O   0  0  0  0  0  0  0  0  0  0  0  0
   -0.0122    1.2603   -0.0000 C   0  0  0  0  0  0  0  0  0  0  0  0
   -1.3704    2.0434   -0.0000 O   0  0  0  0  0  0  0  0  0  0  0  0
    1.3215    2.0434   -0.0000 N   0  0  0  0  0  0  0  0  0  0  0  0
   -1.3827    3.6096   -0.0000 C   0  0  0  0  0  0  0  0  0  0  0  0
    2.6552    1.2848   -0.0000 C   0  0  0  0  0  0  0  0  0  0  0  0
    1.3092    3.6096   -0.0000 C   0  0  0  0  0  0  0  0  0  0  0  0
   -2.7041    2.8265   -0.0000 C   0  0  0  0  0  0  0  0  0  0  0  0
   -0.0489    4.3927   -0.0000 C   0  0  0  0  0  0  0  0  0  0  0  0
   -1.3582    5.1513   -0.0000 C   0  0  0  0  0  0  0  0  0  0  0  0
    2.6430   -0.2570   -0.0000 C   0  0  0  0  0  0  0  0  0  0  0  0
    3.7197    1.9210   -0.0000 C   0  0  0  0  0  0  0  0  0  0  0  0
   -2.6797    1.2848   -0.0000 C   0  0  0  0  0  0  0  0  0  0  0  0
   -4.0746    3.5851   -0.0000 C   0  0  0  0  0  0  0  0  0  0  0  0
   -0.0245    5.9467   -0.0000 C   0  0  0  0  0  0  0  0  0  0  0  0
    1.2848   -1.0278   -0.0000 C   0  0  0  0  0  0  0  0  0  0  0  0
    3.9767   -1.0156   -0.0000 C   0  0  0  0  0  0  0  0  0  0  0  0
   -4.0134    0.4894   -0.0000 C   0  0  0  0  0  0  0  0  0  0  0  0
   -5.4083    2.7898   -0.0000 C   0  0  0  0  0  0  0  0  0  0  0  0
   -0.0367    7.2070   -0.0000 O   0  0  0  0  0  0  0  0  0  0  0  0
    1.0401    5.3349   -0.0000 C   0  0  0  0  0  0  0  0  0  0  0  0
    1.0401    6.5829   -0.0000 C   0  0  0  0  0  0  0  0  0  0  0  0
    1.2725   -2.5695   -0.0000 C   0  0  0  0  0  0  0  0  0  0  0  0
    3.9644   -2.5573   -0.0000 C   0  0  0  0  0  0  0  0  0  0  0  0
   -5.3838    1.2481   -0.0000 C   0  0  0  0  0  0  0  0  0  0  0  0
    2.6063   -3.3282   -0.0000 C   0  0  0  0  0  0  0  0  0  0  0  0
    2.5940   -4.8699   -0.0000 C   0  0  0  0  0  0  0  0  0  0  0  0
    1.2358   -5.6408   -0.0000 N   0  0  0  0  0  0  0  0  0  0  0  0
    3.9277   -5.6285   -0.0000 C   0  0  0  0  0  0  0  0  0  0  0  0
    1.2358   -7.1825   -0.0000 N   0  0  0  0  0  0  0  0  0  0  0  0
    3.9277   -7.1702   -0.0000 C   0  0  0  0  0  0  0  0  0  0  0  0
    2.5695   -7.9411   -0.0000 C   0  0  0  0  0  0  0  0  0  0  0  0
   -0.1224   -7.9533   -0.0000 C   0  0  0  0  0  0  0  0  0  0  0  0
    2.5573   -9.1769   -0.0000 O   0  0  0  0  0  0  0  0  0  0  0  0
   -1.6029   -7.9044   -0.0000 C   0  0  0  0  0  0  0  0  0  0  0  0
   -0.8198   -9.2381   -0.0000 C   0  0  0  0  0  0  0  0  0  0  0  0
  1  2  2  0  0  0  0
  2  3  1  0  0  0  0
  2  4  1  0  0  0  0
  3  5  1  0  0  0  0
  6  4  1  1  0  0  0
  4  7  1  0  0  0  0
  5  8  1  0  0  0  0
  5  9  1  1  0  0  0
  5 10  1  0  0  0  0
  6 11  1  0  0  0  0
  6 12  1  0  0  0  0
  8 13  2  0  0  0  0
  8 14  1  0  0  0  0
 10 15  1  0  0  0  0
 11 16  2  0  0  0  0
 11 17  1  0  0  0  0
 13 18  1  0  0  0  0
 14 19  2  0  0  0  0
 15 20  1  0  0  0  0
 15 21  1  0  0  0  0
 15 22  1  0  0  0  0
 16 23  1  0  0  0  0
 17 24  2  0  0  0  0
 18 25  2  0  0  0  0
 23 26  2  0  0  0  0
 26 27  1  0  0  0  0
 27 28  2  0  0  0  0
 27 29  1  0  0  0  0
 28 30  1  0  0  0  0
 29 31  2  0  0  0  0
 30 32  1  0  0  0  0
 30 33  1  0  0  0  0
 32 34  2  0  0  0  0
 33 35  1  0  0  0  0
 33 36  1  0  0  0  0
  7  9  1  0  0  0  0
 19 25  1  0  0  0  0
 24 26  1  0  0  0  0
 31 32  1  0  0  0  0
 35 36  1  0  0  0  0
M  END
>  <MolRegNo>
1978268

>  <m>
=

>  <Value>
15700

>  <Unit>
nM

>  <Type>
IC50

>  <pValue>
4.8

>  <Ligand Efficiency>
0.18

>  <Binding Efficiency>
9.85

>  <Surface Efficiency>
5.67

>  <Assay Index>
973207

>  <Assay Category>


>  <Assay Organism>
Homo sapiens

>  <Target ID>
17045

>  <Target Name>
Cytochrome P450 3A4

>  <Target Organism>
Homo sapiens

>  <Target Description>
Target is a single protein chain

>  <Sequence Accession>
P08684

>  <Reference>


>  <Pubmed ID>


>  <DOI>


$$$$
1978272
Actelion Java MolfileCreator 1.0

 35 38  0  0  1  0  0  0  0  0999 V2000
    0.0000   -0.0000   -0.0000 F   0  0  0  0  0  0  0  0  0  0  0  0
    1.0725   -0.6040   -0.0000 C   0  0  0  0  0  0  0  0  0  0  0  0
    2.4162    0.1972   -0.0000 C   0  0  0  0  0  0  0  0  0  0  0  0
    1.0725   -2.1573   -0.0000 C   0  0  0  0  0  0  0  0  0  0  0  0
    2.4038    1.7751   -0.0000 C   0  0  0  0  0  0  0  0  0  0  0  0
    3.7598   -0.5671   -0.0000 C   0  0  0  0  0  0  0  0  0  0  0  0
    2.4162   -2.9216   -0.0000 C   0  0  0  0  0  0  0  0  0  0  0  0
    1.0355    2.5641   -0.0000 C   0  0  0  0  0  0  0  0  0  0  0  0
    3.7475    2.5764   -0.0000 C   0  0  0  0  0  0  0  0  0  0  0  0
    3.7598   -2.1203   -0.0000 C   0  0  0  0  0  0  0  0  0  0  0  0
    2.4038   -4.1666   -0.0000 F   0  0  0  0  0  0  0  0  0  0  0  0
    1.0232    4.1420   -0.0000 C   0  0  0  0  0  0  0  0  0  0  0  0
    3.7352    4.1543   -0.0000 C   0  0  0  0  0  0  0  0  0  0  0  0
    2.3668    4.9433   -0.0000 C   0  0  0  0  0  0  0  0  0  0  0  0
    2.3545    6.5212   -0.0000 C   0  0  0  0  0  0  0  0  0  0  0  0
    0.9862    7.3101   -0.0000 N   0  0  0  0  0  0  0  0  0  0  0  0
    3.4270    7.1622   -0.0000 C   0  0  0  0  0  0  0  0  0  0  0  0
   -0.3821    6.5458   -0.0000 C   0  0  0  0  0  0  0  0  0  0  0  0
    0.9739    8.8880   -0.0000 C   0  0  0  0  0  0  0  0  0  0  0  0
   -0.3945    5.3008   -0.0000 O   0  0  0  0  0  0  0  0  0  0  0  0
   -1.7505    7.3348   -0.0000 O   0  0  0  0  0  0  0  0  0  0  0  0
   -0.3945    9.6770   -0.0000 C   0  0  0  0  0  0  0  0  0  0  0  0
   -1.7628    8.9127   -0.0000 C   0  0  0  0  0  0  0  0  0  0  0  0
   -3.0942    8.1237   -0.0000 C   0  0  0  0  0  0  0  0  0  0  0  0
   -1.7382   10.4659   -0.0000 C   0  0  0  0  0  0  0  0  0  0  0  0
   -3.0695    6.5705   -0.0000 C   0  0  0  0  0  0  0  0  0  0  0  0
   -4.4748    8.8880   -0.0000 C   0  0  0  0  0  0  0  0  0  0  0  0
   -0.3945   11.2672   -0.0000 C   0  0  0  0  0  0  0  0  0  0  0  0
   -4.4132    5.7692   -0.0000 C   0  0  0  0  0  0  0  0  0  0  0  0
   -5.8185    8.0867   -0.0000 C   0  0  0  0  0  0  0  0  0  0  0  0
   -0.4068   12.5369   -0.0000 O   0  0  0  0  0  0  0  0  0  0  0  0
    0.6780   10.6508   -0.0000 C   0  0  0  0  0  0  0  0  0  0  0  0
    0.6780   11.9082   -0.0000 C   0  0  0  0  0  0  0  0  0  0  0  0
   -5.7938    6.5335   -0.0000 C   0  0  0  0  0  0  0  0  0  0  0  0
   -6.8787    5.8925   -0.0000 F   0  0  0  0  0  0  0  0  0  0  0  0
  1  2  1  0  0  0  0
  2  3  2  0  0  0  0
  2  4  1  0  0  0  0
  3  5  1  0  0  0  0
  3  6  1  0  0  0  0
  4  7  2  0  0  0  0
  5  8  2  0  0  0  0
  5  9  1  0  0  0  0
  6 10  2  0  0  0  0
  7 11  1  0  0  0  0
  8 12  1  0  0  0  0
  9 13  2  0  0  0  0
 12 14  2  0  0  0  0
 14 15  1  0  0  0  0
 15 16  1  1  0  0  0
 15 17  1  0  0  0  0
 16 18  1  0  0  0  0
 16 19  1  0  0  0  0
 18 20  2  0  0  0  0
 18 21  1  0  0  0  0
 19 22  1  0  0  0  0
 23 21  1  6  0  0  0
 23 24  1  0  0  0  0
 23 25  1  0  0  0  0
 24 26  2  0  0  0  0
 24 27  1  0  0  0  0
 25 28  1  0  0  0  0
 26 29  1  0  0  0  0
 27 30  2  0  0  0  0
 28 31  1  0  0  0  0
 28 32  1  0  0  0  0
 28 33  1  0  0  0  0
 29 34  2  0  0  0  0
 34 35  1  0  0  0  0
  7 10  1  0  0  0  0
 13 14  1  0  0  0  0
 22 23  1  0  0  0  0
 30 34  1  0  0  0  0
M  END
>  <MolRegNo>
1978272

>  <m>
=

>  <Value>
4400

>  <Unit>
nM

>  <Type>
IC50

>  <pValue>
5.36

>  <Ligand Efficiency>
0.21

>  <Binding Efficiency>
11.08

>  <Surface Efficiency>
10.76

>  <Assay Index>
973207

>  <Assay Category>


>  <Assay Organism>
Homo sapiens

>  <Target ID>
17045

>  <Target Name>
Cytochrome P450 3A4

>  <Target Organism>
Homo sapiens

>  <Target Description>
Target is a single protein chain

>  <Sequence Accession>
P08684

>  <Reference>


>  <Pubmed ID>


>  <DOI>


$$$$
1978273
Actelion Java MolfileCreator 1.0

 33 36  0  0  1  0  0  0  0  0999 V2000
    0.0000   -0.0000   -0.0000 F   0  0  0  0  0  0  0  0  0  0  0  0
   -0.0121    1.2468   -0.0000 C   0  0  0  0  0  0  0  0  0  0  0  0
   -1.3557    2.0215   -0.0000 C   0  0  0  0  0  0  0  0  0  0  0  0
    1.3073    2.0336   -0.0000 C   0  0  0  0  0  0  0  0  0  0  0  0
   -1.3800    3.5709   -0.0000 C   0  0  0  0  0  0  0  0  0  0  0  0
    1.2831    3.5830   -0.0000 C   0  0  0  0  0  0  0  0  0  0  0  0
   -0.0605    4.3577   -0.0000 C   0  0  0  0  0  0  0  0  0  0  0  0
   -0.0726    5.9072   -0.0000 C   0  0  0  0  0  0  0  0  0  0  0  0
   -1.4163    6.6819   -0.0000 C   0  0  0  0  0  0  0  0  0  0  0  0
    1.2468    6.6940   -0.0000 C   0  0  0  0  0  0  0  0  0  0  0  0
   -1.4284    8.2313   -0.0000 C   0  0  0  0  0  0  0  0  0  0  0  0
    1.2347    8.2434   -0.0000 C   0  0  0  0  0  0  0  0  0  0  0  0
   -0.1089    9.0181   -0.0000 C   0  0  0  0  0  0  0  0  0  0  0  0
   -0.1210   10.5675   -0.0000 C   0  0  0  0  0  0  0  0  0  0  0  0
   -1.4647   11.3422   -0.0000 N   0  0  0  0  0  0  0  0  0  0  0  0
    0.9321   11.1970   -0.0000 C   0  0  0  0  0  0  0  0  0  0  0  0
   -2.8083   10.5917   -0.0000 C   0  0  0  0  0  0  0  0  0  0  0  0
   -1.4768   12.8917   -0.0000 C   0  0  0  0  0  0  0  0  0  0  0  0
   -2.8204    9.3691   -0.0000 O   0  0  0  0  0  0  0  0  0  0  0  0
   -4.1520   11.3664   -0.0000 O   0  0  0  0  0  0  0  0  0  0  0  0
   -2.8204   13.6664   -0.0000 C   0  0  0  0  0  0  0  0  0  0  0  0
   -4.1641   12.9159   -0.0000 C   0  0  0  0  0  0  0  0  0  0  0  0
   -5.4714   12.1412   -0.0000 C   0  0  0  0  0  0  0  0  0  0  0  0
   -4.1399   14.4411   -0.0000 C   0  0  0  0  0  0  0  0  0  0  0  0
   -5.4472   10.6159   -0.0000 C   0  0  0  0  0  0  0  0  0  0  0  0
   -6.8271   12.8917   -0.0000 C   0  0  0  0  0  0  0  0  0  0  0  0
   -2.8204   15.2279   -0.0000 C   0  0  0  0  0  0  0  0  0  0  0  0
   -6.7666    9.8291   -0.0000 C   0  0  0  0  0  0  0  0  0  0  0  0
   -8.1466   12.1048   -0.0000 C   0  0  0  0  0  0  0  0  0  0  0  0
   -2.8325   16.7773   -0.0000 C   0  0  0  0  0  0  0  0  0  0  0  0
   -8.1223   10.5796   -0.0000 C   0  0  0  0  0  0  0  0  0  0  0  0
   -1.7794   17.4068   -0.0000 O   0  0  0  0  0  0  0  0  0  0  0  0
   -3.9099   17.4068   -0.0000 N   0  0  0  0  0  0  0  0  0  0  0  0
  1  2  1  0  0  0  0
  2  3  2  0  0  0  0
  2  4  1  0  0  0  0
  3  5  1  0  0  0  0
  4  6  2  0  0  0  0
  5  7  2  0  0  0  0
  7  8  1  0  0  0  0
  8  9  2  0  0  0  0
  8 10  1  0  0  0  0
  9 11  1  0  0  0  0
 10 12  2  0  0  0  0
 11 13  2  0  0  0  0
 13 14  1  0  0  0  0
 14 15  1  1  0  0  0
 14 16  1  0  0  0  0
 15 17  1  0  0  0  0
 15 18  1  0  0  0  0
 17 19  2  0  0  0  0
 17 20  1  0  0  0  0
 18 21  1  0  0  0  0
 22 20  1  6  0  0  0
 22 23  1  0  0  0  0
 22 24  1  0  0  0  0
 23 25  2  0  0  0  0
 23 26  1  0  0  0  0
 24 27  1  0  0  0  0
 25 28  1  0  0  0  0
 26 29  2  0  0  0  0
 27 30  1  0  0  0  0
 28 31  2  0  0  0  0
 30 32  2  0  0  0  0
 30 33  1  0  0  0  0
  6  7  1  0  0  0  0
 12 13  1  0  0  0  0
 21 22  1  0  0  0  0
 29 31  1  0  0  0  0
M  END
>  <MolRegNo>
1978273

>  <m>
=

>  <Value>
14100

>  <Unit>
nM

>  <Type>
IC50

>  <pValue>
4.85

>  <Ligand Efficiency>
0.2

>  <Binding Efficiency>
10.86

>  <Surface Efficiency>
6.68

>  <Assay Index>
973207

>  <Assay Category>


>  <Assay Organism>
Homo sapiens

>  <Target ID>
17045

>  <Target Name>
Cytochrome P450 3A4

>  <Target Organism>
Homo sapiens

>  <Target Description>
Target is a single protein chain

>  <Sequence Accession>
P08684

>  <Reference>


>  <Pubmed ID>


>  <DOI>


$$$$
1978274
Actelion Java MolfileCreator 1.0

 33 36  0  0  1  0  0  0  0  0999 V2000
    0.0000   -0.0000   -0.0000 F   0  0  0  0  0  0  0  0  0  0  0  0
   -0.0122    1.2546   -0.0000 C   0  0  0  0  0  0  0  0  0  0  0  0
   -1.3642    2.0342   -0.0000 C   0  0  0  0  0  0  0  0  0  0  0  0
    1.3155    2.0463   -0.0000 C   0  0  0  0  0  0  0  0  0  0  0  0
   -1.3886    3.5933   -0.0000 C   0  0  0  0  0  0  0  0  0  0  0  0
    1.2911    3.6054   -0.0000 C   0  0  0  0  0  0  0  0  0  0  0  0
   -0.0609    4.3850   -0.0000 C   0  0  0  0  0  0  0  0  0  0  0  0
   -0.0731    5.9441   -0.0000 C   0  0  0  0  0  0  0  0  0  0  0  0
   -1.4251    6.7237   -0.0000 C   0  0  0  0  0  0  0  0  0  0  0  0
    1.2546    6.7358   -0.0000 C   0  0  0  0  0  0  0  0  0  0  0  0
   -1.4373    8.2828   -0.0000 C   0  0  0  0  0  0  0  0  0  0  0  0
    1.2424    8.2950   -0.0000 C   0  0  0  0  0  0  0  0  0  0  0  0
   -0.1096    9.0745   -0.0000 C   0  0  0  0  0  0  0  0  0  0  0  0
   -0.1218   10.6336   -0.0000 C   0  0  0  0  0  0  0  0  0  0  0  0
   -1.4738   11.4132   -0.0000 N   0  0  0  0  0  0  0  0  0  0  0  0
    0.9379   11.2670   -0.0000 C   0  0  0  0  0  0  0  0  0  0  0  0
   -2.8259   10.6580   -0.0000 C   0  0  0  0  0  0  0  0  0  0  0  0
   -1.4860   12.9723   -0.0000 C   0  0  0  0  0  0  0  0  0  0  0  0
   -2.8381    9.4278   -0.0000 O   0  0  0  0  0  0  0  0  0  0  0  0
   -4.1779   11.4375   -0.0000 O   0  0  0  0  0  0  0  0  0  0  0  0
   -2.8381   13.7519   -0.0000 C   0  0  0  0  0  0  0  0  0  0  0  0
   -4.1901   12.9967   -0.0000 C   0  0  0  0  0  0  0  0  0  0  0  0
   -5.5056   12.2171   -0.0000 C   0  0  0  0  0  0  0  0  0  0  0  0
   -4.1658   14.5314   -0.0000 C   0  0  0  0  0  0  0  0  0  0  0  0
   -5.4813   10.6823   -0.0000 C   0  0  0  0  0  0  0  0  0  0  0  0
   -6.8698   12.9723   -0.0000 C   0  0  0  0  0  0  0  0  0  0  0  0
   -2.8381   15.3231   -0.0000 C   0  0  0  0  0  0  0  0  0  0  0  0
   -6.8089    9.8906   -0.0000 C   0  0  0  0  0  0  0  0  0  0  0  0
   -8.1975   12.1806   -0.0000 C   0  0  0  0  0  0  0  0  0  0  0  0
   -2.8503   16.5777   -0.0000 O   0  0  0  0  0  0  0  0  0  0  0  0
   -1.7784   14.7141   -0.0000 C   0  0  0  0  0  0  0  0  0  0  0  0
   -1.7784   15.9565   -0.0000 C   0  0  0  0  0  0  0  0  0  0  0  0
   -8.1732   10.6458   -0.0000 C   0  0  0  0  0  0  0  0  0  0  0  0
  1  2  1  0  0  0  0
  2  3  2  0  0  0  0
  2  4  1  0  0  0  0
  3  5  1  0  0  0  0
  4  6  2  0  0  0  0
  5  7  2  0  0  0  0
  7  8  1  0  0  0  0
  8  9  2  0  0  0  0
  8 10  1  0  0  0  0
  9 11  1  0  0  0  0
 10 12  2  0  0  0  0
 11 13  2  0  0  0  0
 13 14  1  0  0  0  0
 14 15  1  1  0  0  0
 14 16  1  0  0  0  0
 15 17  1  0  0  0  0
 15 18  1  0  0  0  0
 17 19  2  0  0  0  0
 17 20  1  0  0  0  0
 18 21  1  0  0  0  0
 22 20  1  6  0  0  0
 22 23  1  0  0  0  0
 22 24  1  0  0  0  0
 23 25  2  0  0  0  0
 23 26  1  0  0  0  0
 24 27  1  0  0  0  0
 25 28  1  0  0  0  0
 26 29  2  0  0  0  0
 27 30  1  0  0  0  0
 27 31  1  0  0  0  0
 27 32  1  0  0  0  0
 28 33  2  0  0  0  0
  6  7  1  0  0  0  0
 12 13  1  0  0  0  0
 21 22  1  0  0  0  0
 29 33  1  0  0  0  0
M  END
>  <MolRegNo>
1978274

>  <m>
=

>  <Value>
4900

>  <Unit>
nM

>  <Type>
IC50

>  <pValue>
5.31

>  <Ligand Efficiency>
0.22

>  <Binding Efficiency>
11.86

>  <Surface Efficiency>
10.67

>  <Assay Index>
973207

>  <Assay Category>


>  <Assay Organism>
Homo sapiens

>  <Target ID>
17045

>  <Target Name>
Cytochrome P450 3A4

>  <Target Organism>
Homo sapiens

>  <Target Description>
Target is a single protein chain

>  <Sequence Accession>
P08684

>  <Reference>


>  <Pubmed ID>


>  <DOI>


$$$$
1978275
Actelion Java MolfileCreator 1.0

 28 30  0  0  1  0  0  0  0  0999 V2000
    0.0000   -0.0000   -0.0000 Br  0  0  0  0  0  0  0  0  0  0  0  0
   -0.0124    1.2729   -0.0000 C   0  0  0  0  0  0  0  0  0  0  0  0
   -1.3841    2.0638   -0.0000 C   0  0  0  0  0  0  0  0  0  0  0  0
    1.3347    2.0761   -0.0000 C   0  0  0  0  0  0  0  0  0  0  0  0
   -1.3964    3.6456   -0.0000 C   0  0  0  0  0  0  0  0  0  0  0  0
    1.3223    3.6579   -0.0000 C   0  0  0  0  0  0  0  0  0  0  0  0
   -0.0494    4.4488   -0.0000 C   0  0  0  0  0  0  0  0  0  0  0  0
   -0.0618    6.0307   -0.0000 C   0  0  0  0  0  0  0  0  0  0  0  0
   -1.4335    6.8216   -0.0000 N   0  0  0  0  0  0  0  0  0  0  0  0
    1.0133    6.6733   -0.0000 C   0  0  0  0  0  0  0  0  0  0  0  0
   -2.8052    6.0554   -0.0000 C   0  0  0  0  0  0  0  0  0  0  0  0
   -1.4459    8.4034   -0.0000 C   0  0  0  0  0  0  0  0  0  0  0  0
   -2.8176    4.8072   -0.0000 O   0  0  0  0  0  0  0  0  0  0  0  0
   -4.1770    6.8463   -0.0000 O   0  0  0  0  0  0  0  0  0  0  0  0
   -2.8176    9.1943   -0.0000 C   0  0  0  0  0  0  0  0  0  0  0  0
   -4.1893    8.4281   -0.0000 C   0  0  0  0  0  0  0  0  0  0  0  0
   -5.5240    7.6372   -0.0000 C   0  0  0  0  0  0  0  0  0  0  0  0
   -4.1646    9.9852   -0.0000 C   0  0  0  0  0  0  0  0  0  0  0  0
   -5.4993    6.0801   -0.0000 C   0  0  0  0  0  0  0  0  0  0  0  0
   -6.9081    8.4034   -0.0000 C   0  0  0  0  0  0  0  0  0  0  0  0
   -2.8176   10.7884   -0.0000 C   0  0  0  0  0  0  0  0  0  0  0  0
   -6.8463    5.2768   -0.0000 C   0  0  0  0  0  0  0  0  0  0  0  0
   -8.2551    7.6001   -0.0000 C   0  0  0  0  0  0  0  0  0  0  0  0
   -2.8300   12.0613   -0.0000 O   0  0  0  0  0  0  0  0  0  0  0  0
   -1.7425   10.1705   -0.0000 C   0  0  0  0  0  0  0  0  0  0  0  0
   -1.7425   11.4310   -0.0000 C   0  0  0  0  0  0  0  0  0  0  0  0
   -8.2304    6.0430   -0.0000 C   0  0  0  0  0  0  0  0  0  0  0  0
   -9.3178    5.4004   -0.0000 F   0  0  0  0  0  0  0  0  0  0  0  0
  1  2  1  0  0  0  0
  2  3  2  0  0  0  0
  2  4  1  0  0  0  0
  3  5  1  0  0  0  0
  4  6  2  0  0  0  0
  5  7  2  0  0  0  0
  7  8  1  0  0  0  0
  8  9  1  1  0  0  0
  8 10  1  0  0  0  0
  9 11  1  0  0  0  0
  9 12  1  0  0  0  0
 11 13  2  0  0  0  0
 11 14  1  0  0  0  0
 12 15  1  0  0  0  0
 16 14  1  6  0  0  0
 16 17  1  0  0  0  0
 16 18  1  0  0  0  0
 17 19  2  0  0  0  0
 17 20  1  0  0  0  0
 18 21  1  0  0  0  0
 19 22  1  0  0  0  0
 20 23  2  0  0  0  0
 21 24  1  0  0  0  0
 21 25  1  0  0  0  0
 21 26  1  0  0  0  0
 22 27  2  0  0  0  0
 27 28  1  0  0  0  0
  6  7  1  0  0  0  0
 15 16  1  0  0  0  0
 23 27  1  0  0  0  0
M  END
>  <MolRegNo>
1978275

>  <m>
=

>  <Value>
4400

>  <Unit>
nM

>  <Type>
IC50

>  <pValue>
5.36

>  <Ligand Efficiency>
0.26

>  <Binding Efficiency>
11.89

>  <Surface Efficiency>
10.76

>  <Assay Index>
973207

>  <Assay Category>


>  <Assay Organism>
Homo sapiens

>  <Target ID>
17045

>  <Target Name>
Cytochrome P450 3A4

>  <Target Organism>
Homo sapiens

>  <Target Description>
Target is a single protein chain

>  <Sequence Accession>
P08684

>  <Reference>


>  <Pubmed ID>


>  <DOI>


$$$$
1978276
Actelion Java MolfileCreator 1.0

 29 31  0  0  1  0  0  0  0  0999 V2000
    0.0000   -0.0000   -0.0000 F   0  0  0  0  0  0  0  0  0  0  0  0
    1.0628    0.6673   -0.0000 C   0  0  0  0  0  0  0  0  0  0  0  0
    2.4222   -0.0741   -0.0000 C   0  0  0  0  0  0  0  0  0  0  0  0
    1.0134    2.2491   -0.0000 C   0  0  0  0  0  0  0  0  0  0  0  0
    3.7445    0.7538   -0.0000 C   0  0  0  0  0  0  0  0  0  0  0  0
    2.3357    3.0771   -0.0000 C   0  0  0  0  0  0  0  0  0  0  0  0
    3.6950    2.3357   -0.0000 C   0  0  0  0  0  0  0  0  0  0  0  0
    5.0050    3.1513   -0.0000 C   0  0  0  0  0  0  0  0  0  0  0  0
    4.9926    1.5942   -0.0000 O   0  0  0  0  0  0  0  0  0  0  0  0
    6.3520    3.9422   -0.0000 C   0  0  0  0  0  0  0  0  0  0  0  0
    5.0297    4.7084   -0.0000 C   0  0  0  0  0  0  0  0  0  0  0  0
    6.3396    0.8280   -0.0000 C   0  0  0  0  0  0  0  0  0  0  0  0
    7.6990    3.1760   -0.0000 C   0  0  0  0  0  0  0  0  0  0  0  0
    6.3767    5.5116   -0.0000 C   0  0  0  0  0  0  0  0  0  0  0  0
    6.3273   -0.4202   -0.0000 O   0  0  0  0  0  0  0  0  0  0  0  0
    7.6866    1.6189   -0.0000 N   0  0  0  0  0  0  0  0  0  0  0  0
    6.3643    6.7845   -0.0000 O   0  0  0  0  0  0  0  0  0  0  0  0
    9.0337    0.8527   -0.0000 C   0  0  0  0  0  0  0  0  0  0  0  0
    9.0213   -0.7044   -0.0000 C   0  0  0  0  0  0  0  0  0  0  0  0
   10.1088    1.4953   -0.0000 C   0  0  0  0  0  0  0  0  0  0  0  0
    7.6496   -1.4830   -0.0000 C   0  0  0  0  0  0  0  0  0  0  0  0
   10.3683   -1.4706   -0.0000 C   0  0  0  0  0  0  0  0  0  0  0  0
    7.6372   -3.0401   -0.0000 C   0  0  0  0  0  0  0  0  0  0  0  0
   10.3560   -3.0277   -0.0000 C   0  0  0  0  0  0  0  0  0  0  0  0
    8.9842   -3.8062   -0.0000 C   0  0  0  0  0  0  0  0  0  0  0  0
    8.9842   -5.3634   -0.0000 O   0  0  0  0  0  0  0  0  0  0  0  0
   10.3312   -6.1295   -0.0000 C   0  0  0  0  0  0  0  0  0  0  0  0
   10.3312   -7.3777   -0.0000 F   0  0  0  0  0  0  0  0  0  0  0  0
   11.4064   -5.4869   -0.0000 F   0  0  0  0  0  0  0  0  0  0  0  0
  1  2  1  0  0  0  0
  2  3  2  0  0  0  0
  2  4  1  0  0  0  0
  3  5  1  0  0  0  0
  4  6  2  0  0  0  0
  5  7  2  0  0  0  0
  7  8  1  0  0  0  0
  8  9  1  0  0  0  0
  8 10  1  1  0  0  0
  8 11  1  0  0  0  0
  9 12  1  0  0  0  0
 10 13  1  0  0  0  0
 11 14  1  0  0  0  0
 12 15  2  0  0  0  0
 12 16  1  0  0  0  0
 14 17  1  0  0  0  0
 18 16  1  1  0  0  0
 18 19  1  0  0  0  0
 18 20  1  0  0  0  0
 19 21  2  0  0  0  0
 19 22  1  0  0  0  0
 21 23  1  0  0  0  0
 22 24  2  0  0  0  0
 23 25  2  0  0  0  0
 25 26  1  0  0  0  0
 26 27  1  0  0  0  0
 27 28  1  0  0  0  0
 27 29  1  0  0  0  0
  6  7  1  0  0  0  0
 13 16  1  0  0  0  0
 24 25  1  0  0  0  0
M  END
>  <MolRegNo>
1978276

>  <m>
=

>  <Value>
19700

>  <Unit>
nM

>  <Type>
IC50

>  <pValue>
4.71

>  <Ligand Efficiency>
0.22

>  <Binding Efficiency>
11.49

>  <Surface Efficiency>
7.98

>  <Assay Index>
973207

>  <Assay Category>


>  <Assay Organism>
Homo sapiens

>  <Target ID>
17045

>  <Target Name>
Cytochrome P450 3A4

>  <Target Organism>
Homo sapiens

>  <Target Description>
Target is a single protein chain

>  <Sequence Accession>
P08684

>  <Reference>


>  <Pubmed ID>


>  <DOI>


$$$$
1978277
Actelion Java MolfileCreator 1.0

 27 29  0  0  1  0  0  0  0  0999 V2000
    0.0000   -0.0000   -0.0000 Br  0  0  0  0  0  0  0  0  0  0  0  0
   -0.0123    1.2660   -0.0000 C   0  0  0  0  0  0  0  0  0  0  0  0
   -1.3766    2.0526   -0.0000 C   0  0  0  0  0  0  0  0  0  0  0  0
    1.3274    2.0649   -0.0000 C   0  0  0  0  0  0  0  0  0  0  0  0
   -1.3889    3.6258   -0.0000 C   0  0  0  0  0  0  0  0  0  0  0  0
    1.3151    3.6381   -0.0000 C   0  0  0  0  0  0  0  0  0  0  0  0
   -0.0492    4.4248   -0.0000 C   0  0  0  0  0  0  0  0  0  0  0  0
   -0.0615    5.9980   -0.0000 C   0  0  0  0  0  0  0  0  0  0  0  0
   -1.4258    6.7846   -0.0000 N   0  0  0  0  0  0  0  0  0  0  0  0
    1.0079    6.6371   -0.0000 C   0  0  0  0  0  0  0  0  0  0  0  0
   -2.7901    6.0226   -0.0000 C   0  0  0  0  0  0  0  0  0  0  0  0
   -1.4380    8.3579   -0.0000 C   0  0  0  0  0  0  0  0  0  0  0  0
   -2.8023    4.7812   -0.0000 O   0  0  0  0  0  0  0  0  0  0  0  0
   -4.1543    6.8092   -0.0000 O   0  0  0  0  0  0  0  0  0  0  0  0
   -2.8023    9.1445   -0.0000 C   0  0  0  0  0  0  0  0  0  0  0  0
   -4.1666    8.3824   -0.0000 C   0  0  0  0  0  0  0  0  0  0  0  0
   -5.4941    7.5958   -0.0000 C   0  0  0  0  0  0  0  0  0  0  0  0
   -4.1421    9.9311   -0.0000 C   0  0  0  0  0  0  0  0  0  0  0  0
   -5.4695    6.0472   -0.0000 C   0  0  0  0  0  0  0  0  0  0  0  0
   -6.8707    8.3579   -0.0000 C   0  0  0  0  0  0  0  0  0  0  0  0
   -2.8023   10.7300   -0.0000 C   0  0  0  0  0  0  0  0  0  0  0  0
   -6.8092    5.2482   -0.0000 C   0  0  0  0  0  0  0  0  0  0  0  0
   -8.2104    7.5589   -0.0000 C   0  0  0  0  0  0  0  0  0  0  0  0
   -2.8146   11.9960   -0.0000 O   0  0  0  0  0  0  0  0  0  0  0  0
   -1.7330   10.1155   -0.0000 C   0  0  0  0  0  0  0  0  0  0  0  0
   -1.7330   11.3692   -0.0000 C   0  0  0  0  0  0  0  0  0  0  0  0
   -8.1858    6.0103   -0.0000 C   0  0  0  0  0  0  0  0  0  0  0  0
  1  2  1  0  0  0  0
  2  3  2  0  0  0  0
  2  4  1  0  0  0  0
  3  5  1  0  0  0  0
  4  6  2  0  0  0  0
  5  7  2  0  0  0  0
  7  8  1  0  0  0  0
  8  9  1  1  0  0  0
  8 10  1  0  0  0  0
  9 11  1  0  0  0  0
  9 12  1  0  0  0  0
 11 13  2  0  0  0  0
 11 14  1  0  0  0  0
 12 15  1  0  0  0  0
 16 14  1  6  0  0  0
 16 17  1  0  0  0  0
 16 18  1  0  0  0  0
 17 19  2  0  0  0  0
 17 20  1  0  0  0  0
 18 21  1  0  0  0  0
 19 22  1  0  0  0  0
 20 23  2  0  0  0  0
 21 24  1  0  0  0  0
 21 25  1  0  0  0  0
 21 26  1  0  0  0  0
 22 27  2  0  0  0  0
  6  7  1  0  0  0  0
 15 16  1  0  0  0  0
 23 27  1  0  0  0  0
M  END
>  <MolRegNo>
1978277

>  <m>
=

>  <Value>
3100

>  <Unit>
nM

>  <Type>
IC50

>  <pValue>
5.51

>  <Ligand Efficiency>
0.28

>  <Binding Efficiency>
12.74

>  <Surface Efficiency>
11.07

>  <Assay Index>
973207

>  <Assay Category>


>  <Assay Organism>
Homo sapiens

>  <Target ID>
17045

>  <Target Name>
Cytochrome P450 3A4

>  <Target Organism>
Homo sapiens

>  <Target Description>
Target is a single protein chain

>  <Sequence Accession>
P08684

>  <Reference>


>  <Pubmed ID>


>  <DOI>


$$$$
1997637
Actelion Java MolfileCreator 1.0

 36 40  0  0  1  0  0  0  0  0999 V2000
    0.0000   -0.0000   -0.0000 O   0  0  0  0  0  0  0  0  0  0  0  0
   -0.0122    1.2603   -0.0000 C   0  0  0  0  0  0  0  0  0  0  0  0
   -1.3704    2.0434   -0.0000 O   0  0  0  0  0  0  0  0  0  0  0  0
    1.3215    2.0434   -0.0000 N   0  0  0  0  0  0  0  0  0  0  0  0
   -1.3827    3.6096   -0.0000 C   0  0  0  0  0  0  0  0  0  0  0  0
    2.6552    1.2848   -0.0000 C   0  0  0  0  0  0  0  0  0  0  0  0
    1.3092    3.6096   -0.0000 C   0  0  0  0  0  0  0  0  0  0  0  0
   -2.7041    2.8265   -0.0000 C   0  0  0  0  0  0  0  0  0  0  0  0
   -0.0489    4.3927   -0.0000 C   0  0  0  0  0  0  0  0  0  0  0  0
   -1.3582    5.1513   -0.0000 C   0  0  0  0  0  0  0  0  0  0  0  0
    2.6430   -0.2570   -0.0000 C   0  0  0  0  0  0  0  0  0  0  0  0
    3.7197    1.9210   -0.0000 C   0  0  0  0  0  0  0  0  0  0  0  0
   -2.6797    1.2848   -0.0000 C   0  0  0  0  0  0  0  0  0  0  0  0
   -4.0746    3.5851   -0.0000 C   0  0  0  0  0  0  0  0  0  0  0  0
   -0.0245    5.9467   -0.0000 C   0  0  0  0  0  0  0  0  0  0  0  0
    1.2848   -1.0278   -0.0000 C   0  0  0  0  0  0  0  0  0  0  0  0
    3.9767   -1.0156   -0.0000 C   0  0  0  0  0  0  0  0  0  0  0  0
   -4.0134    0.4894   -0.0000 C   0  0  0  0  0  0  0  0  0  0  0  0
   -5.4083    2.7898   -0.0000 C   0  0  0  0  0  0  0  0  0  0  0  0
   -0.0367    7.2070   -0.0000 O   0  0  0  0  0  0  0  0  0  0  0  0
    1.0401    5.3349   -0.0000 C   0  0  0  0  0  0  0  0  0  0  0  0
    1.0401    6.5829   -0.0000 C   0  0  0  0  0  0  0  0  0  0  0  0
    1.2725   -2.5695   -0.0000 C   0  0  0  0  0  0  0  0  0  0  0  0
    3.9644   -2.5573   -0.0000 C   0  0  0  0  0  0  0  0  0  0  0  0
   -5.3838    1.2481   -0.0000 C   0  0  0  0  0  0  0  0  0  0  0  0
    2.6063   -3.3282   -0.0000 C   0  0  0  0  0  0  0  0  0  0  0  0
    2.5940   -4.8699   -0.0000 C   0  0  0  0  0  0  0  0  0  0  0  0
    1.2358   -5.6408   -0.0000 C   0  0  0  0  0  0  0  0  0  0  0  0
    3.9277   -5.6285   -0.0000 C   0  0  0  0  0  0  0  0  0  0  0  0
    1.2358   -7.1825   -0.0000 N   0  0  0  0  0  0  0  0  0  0  0  0
    3.9277   -7.1702   -0.0000 C   0  0  0  0  0  0  0  0  0  0  0  0
    2.5695   -7.9411   -0.0000 C   0  0  0  0  0  0  0  0  0  0  0  0
   -0.1224   -7.9533   -0.0000 C   0  0  0  0  0  0  0  0  0  0  0  0
    2.5573   -9.1769   -0.0000 O   0  0  0  0  0  0  0  0  0  0  0  0
   -1.6029   -7.9044   -0.0000 C   0  0  0  0  0  0  0  0  0  0  0  0
   -0.8198   -9.2381   -0.0000 C   0  0  0  0  0  0  0  0  0  0  0  0
  1  2  2  0  0  0  0
  2  3  1  0  0  0  0
  2  4  1  0  0  0  0
  3  5  1  0  0  0  0
  6  4  1  1  0  0  0
  4  7  1  0  0  0  0
  5  8  1  0  0  0  0
  5  9  1  1  0  0  0
  5 10  1  0  0  0  0
  6 11  1  0  0  0  0
  6 12  1  0  0  0  0
  8 13  2  0  0  0  0
  8 14  1  0  0  0  0
 10 15  1  0  0  0  0
 11 16  2  0  0  0  0
 11 17  1  0  0  0  0
 13 18  1  0  0  0  0
 14 19  2  0  0  0  0
 15 20  1  0  0  0  0
 15 21  1  0  0  0  0
 15 22  1  0  0  0  0
 16 23  1  0  0  0  0
 17 24  2  0  0  0  0
 18 25  2  0  0  0  0
 23 26  2  0  0  0  0
 26 27  1  0  0  0  0
 27 28  2  0  0  0  0
 27 29  1  0  0  0  0
 28 30  1  0  0  0  0
 29 31  2  0  0  0  0
 30 32  1  0  0  0  0
 30 33  1  0  0  0  0
 32 34  2  0  0  0  0
 33 35  1  0  0  0  0
 33 36  1  0  0  0  0
  7  9  1  0  0  0  0
 19 25  1  0  0  0  0
 24 26  1  0  0  0  0
 31 32  1  0  0  0  0
 35 36  1  0  0  0  0
M  END
>  <MolRegNo>
1997637

>  <m>
=

>  <Value>
44000

>  <Unit>
nM

>  <Type>
IC50

>  <pValue>
4.36

>  <Ligand Efficiency>
0.17

>  <Binding Efficiency>
8.95

>  <Surface Efficiency>
6.07

>  <Assay Index>
973177

>  <Assay Category>


>  <Assay Organism>
Homo sapiens

>  <Target ID>
17045

>  <Target Name>
Cytochrome P450 3A4

>  <Target Organism>
Homo sapiens

>  <Target Description>
Target is a single protein chain

>  <Sequence Accession>
P08684

>  <Reference>


>  <Pubmed ID>


>  <DOI>


$$$$
1997638
Actelion Java MolfileCreator 1.0

 36 39  0  0  1  0  0  0  0  0999 V2000
    0.0000   -0.0000   -0.0000 F   0  0  0  0  0  0  0  0  0  0  0  0
    1.0707   -0.6030   -0.0000 C   0  0  0  0  0  0  0  0  0  0  0  0
    1.0584   -1.8460   -0.0000 F   0  0  0  0  0  0  0  0  0  0  0  0
    2.4121    0.1969   -0.0000 N   0  0  0  0  0  0  0  0  0  0  0  0
    3.7535   -0.5661   -0.0000 C   0  0  0  0  0  0  0  0  0  0  0  0
    2.3875    1.7721   -0.0000 C   0  0  0  0  0  0  0  0  0  0  0  0
    3.7412   -1.8091   -0.0000 O   0  0  0  0  0  0  0  0  0  0  0  0
    5.0949    0.2338   -0.0000 C   0  0  0  0  0  0  0  0  0  0  0  0
    3.7289    2.5721   -0.0000 C   0  0  0  0  0  0  0  0  0  0  0  0
    5.0703    1.8091   -0.0000 C   0  0  0  0  0  0  0  0  0  0  0  0
    3.7166    4.1473   -0.0000 C   0  0  0  0  0  0  0  0  0  0  0  0
    2.3505    4.9349   -0.0000 C   0  0  0  0  0  0  0  0  0  0  0  0
    5.0580    4.9472   -0.0000 C   0  0  0  0  0  0  0  0  0  0  0  0
    2.3382    6.5101   -0.0000 C   0  0  0  0  0  0  0  0  0  0  0  0
    5.0457    6.5224   -0.0000 C   0  0  0  0  0  0  0  0  0  0  0  0
    3.6796    7.3100   -0.0000 C   0  0  0  0  0  0  0  0  0  0  0  0
    3.6673    8.8853   -0.0000 C   0  0  0  0  0  0  0  0  0  0  0  0
    2.3013    9.6729   -0.0000 N   0  0  0  0  0  0  0  0  0  0  0  0
    4.7380    9.5252   -0.0000 C   0  0  0  0  0  0  0  0  0  0  0  0
    0.9353    8.9099   -0.0000 C   0  0  0  0  0  0  0  0  0  0  0  0
    2.2890   11.2481   -0.0000 C   0  0  0  0  0  0  0  0  0  0  0  0
    0.9230    7.6669   -0.0000 O   0  0  0  0  0  0  0  0  0  0  0  0
   -0.4307    9.6975   -0.0000 O   0  0  0  0  0  0  0  0  0  0  0  0
    0.9230   12.0357   -0.0000 C   0  0  0  0  0  0  0  0  0  0  0  0
   -0.4430   11.2727   -0.0000 C   0  0  0  0  0  0  0  0  0  0  0  0
   -1.7721   10.4851   -0.0000 C   0  0  0  0  0  0  0  0  0  0  0  0
   -0.4184   12.8233   -0.0000 C   0  0  0  0  0  0  0  0  0  0  0  0
   -1.7475    8.9345   -0.0000 C   0  0  0  0  0  0  0  0  0  0  0  0
   -3.1505   11.2481   -0.0000 C   0  0  0  0  0  0  0  0  0  0  0  0
    0.9230   13.6233   -0.0000 C   0  0  0  0  0  0  0  0  0  0  0  0
   -3.0889    8.1346   -0.0000 C   0  0  0  0  0  0  0  0  0  0  0  0
   -4.4919   10.4482   -0.0000 C   0  0  0  0  0  0  0  0  0  0  0  0
    0.9107   14.8908   -0.0000 O   0  0  0  0  0  0  0  0  0  0  0  0
    1.9936   13.0079   -0.0000 C   0  0  0  0  0  0  0  0  0  0  0  0
    1.9936   14.2632   -0.0000 C   0  0  0  0  0  0  0  0  0  0  0  0
   -4.4672    8.8976   -0.0000 C   0  0  0  0  0  0  0  0  0  0  0  0
  1  2  1  0  0  0  0
  2  3  1  0  0  0  0
  2  4  1  0  0  0  0
  4  5  1  0  0  0  0
  4  6  1  0  0  0  0
  5  7  2  0  0  0  0
  5  8  1  0  0  0  0
  6  9  2  0  0  0  0
  8 10  2  0  0  0  0
  9 11  1  0  0  0  0
 11 12  2  0  0  0  0
 11 13  1  0  0  0  0
 12 14  1  0  0  0  0
 13 15  2  0  0  0  0
 14 16  2  0  0  0  0
 16 17  1  0  0  0  0
 17 18  1  1  0  0  0
 17 19  1  0  0  0  0
 18 20  1  0  0  0  0
 18 21  1  0  0  0  0
 20 22  2  0  0  0  0
 20 23  1  0  0  0  0
 21 24  1  0  0  0  0
 25 23  1  6  0  0  0
 25 26  1  0  0  0  0
 25 27  1  0  0  0  0
 26 28  2  0  0  0  0
 26 29  1  0  0  0  0
 27 30  1  0  0  0  0
 28 31  1  0  0  0  0
 29 32  2  0  0  0  0
 30 33  1  0  0  0  0
 30 34  1  0  0  0  0
 30 35  1  0  0  0  0
 31 36  2  0  0  0  0
  9 10  1  0  0  0  0
 15 16  1  0  0  0  0
 24 25  1  0  0  0  0
 32 36  1  0  0  0  0
M  END
>  <MolRegNo>
1997638

>  <m>
=

>  <Value>
21000

>  <Unit>
nM

>  <Type>
IC50

>  <pValue>
4.68

>  <Ligand Efficiency>
0.18

>  <Binding Efficiency>
9.42

>  <Surface Efficiency>
6.52

>  <Assay Index>
973177

>  <Assay Category>


>  <Assay Organism>
Homo sapiens

>  <Target ID>
17045

>  <Target Name>
Cytochrome P450 3A4

>  <Target Organism>
Homo sapiens

>  <Target Description>
Target is a single protein chain

>  <Sequence Accession>
P08684

>  <Reference>


>  <Pubmed ID>


>  <DOI>


$$$$
1997639
Actelion Java MolfileCreator 1.0

 36 39  0  0  1  0  0  0  0  0999 V2000
    0.0000   -0.0000   -0.0000 F   0  0  0  0  0  0  0  0  0  0  0  0
   -1.0926    0.6261   -0.0000 C   0  0  0  0  0  0  0  0  0  0  0  0
   -2.1853    0.0123   -0.0000 F   0  0  0  0  0  0  0  0  0  0  0  0
   -1.1172    2.1976   -0.0000 N   0  0  0  0  0  0  0  0  0  0  0  0
   -2.4799    2.9833   -0.0000 C   0  0  0  0  0  0  0  0  0  0  0  0
    0.2210    2.9956   -0.0000 C   0  0  0  0  0  0  0  0  0  0  0  0
   -3.5726    2.3694   -0.0000 O   0  0  0  0  0  0  0  0  0  0  0  0
   -2.5045    4.5547   -0.0000 C   0  0  0  0  0  0  0  0  0  0  0  0
    0.1964    4.5670   -0.0000 C   0  0  0  0  0  0  0  0  0  0  0  0
   -1.1663    5.3527   -0.0000 C   0  0  0  0  0  0  0  0  0  0  0  0
   -1.1786    6.9242   -0.0000 C   0  0  0  0  0  0  0  0  0  0  0  0
   -2.5413    7.7099   -0.0000 C   0  0  0  0  0  0  0  0  0  0  0  0
    0.1596    7.7222   -0.0000 C   0  0  0  0  0  0  0  0  0  0  0  0
   -2.5536    9.2813   -0.0000 C   0  0  0  0  0  0  0  0  0  0  0  0
    0.1473    9.2936   -0.0000 C   0  0  0  0  0  0  0  0  0  0  0  0
   -1.2154   10.0793   -0.0000 C   0  0  0  0  0  0  0  0  0  0  0  0
   -1.2277   11.6508   -0.0000 C   0  0  0  0  0  0  0  0  0  0  0  0
   -2.5904   12.4365   -0.0000 N   0  0  0  0  0  0  0  0  0  0  0  0
   -0.1596   12.2892   -0.0000 C   0  0  0  0  0  0  0  0  0  0  0  0
   -3.9532   11.6753   -0.0000 C   0  0  0  0  0  0  0  0  0  0  0  0
   -2.6027   14.0079   -0.0000 C   0  0  0  0  0  0  0  0  0  0  0  0
   -3.9654   10.4354   -0.0000 O   0  0  0  0  0  0  0  0  0  0  0  0
   -5.3159   12.4610   -0.0000 O   0  0  0  0  0  0  0  0  0  0  0  0
   -3.9654   14.7937   -0.0000 C   0  0  0  0  0  0  0  0  0  0  0  0
   -5.3282   14.0325   -0.0000 C   0  0  0  0  0  0  0  0  0  0  0  0
   -6.6541   13.2468   -0.0000 C   0  0  0  0  0  0  0  0  0  0  0  0
   -5.3036   15.5794   -0.0000 C   0  0  0  0  0  0  0  0  0  0  0  0
   -6.6295   11.6999   -0.0000 C   0  0  0  0  0  0  0  0  0  0  0  0
   -8.0291   14.0079   -0.0000 C   0  0  0  0  0  0  0  0  0  0  0  0
   -3.9654   16.3774   -0.0000 C   0  0  0  0  0  0  0  0  0  0  0  0
   -7.9677   10.9019   -0.0000 C   0  0  0  0  0  0  0  0  0  0  0  0
   -9.3673   13.2099   -0.0000 C   0  0  0  0  0  0  0  0  0  0  0  0
   -3.9777   17.6419   -0.0000 O   0  0  0  0  0  0  0  0  0  0  0  0
   -2.8973   15.7635   -0.0000 C   0  0  0  0  0  0  0  0  0  0  0  0
   -2.8973   17.0158   -0.0000 C   0  0  0  0  0  0  0  0  0  0  0  0
   -9.3427   11.6631   -0.0000 C   0  0  0  0  0  0  0  0  0  0  0  0
  1  2  1  0  0  0  0
  2  3  1  0  0  0  0
  2  4  1  0  0  0  0
  4  5  1  0  0  0  0
  4  6  1  0  0  0  0
  5  7  2  0  0  0  0
  5  8  1  0  0  0  0
  6  9  2  0  0  0  0
  8 10  2  0  0  0  0
 10 11  1  0  0  0  0
 11 12  2  0  0  0  0
 11 13  1  0  0  0  0
 12 14  1  0  0  0  0
 13 15  2  0  0  0  0
 14 16  2  0  0  0  0
 16 17  1  0  0  0  0
 17 18  1  1  0  0  0
 17 19  1  0  0  0  0
 18 20  1  0  0  0  0
 18 21  1  0  0  0  0
 20 22  2  0  0  0  0
 20 23  1  0  0  0  0
 21 24  1  0  0  0  0
 25 23  1  6  0  0  0
 25 26  1  0  0  0  0
 25 27  1  0  0  0  0
 26 28  2  0  0  0  0
 26 29  1  0  0  0  0
 27 30  1  0  0  0  0
 28 31  1  0  0  0  0
 29 32  2  0  0  0  0
 30 33  1  0  0  0  0
 30 34  1  0  0  0  0
 30 35  1  0  0  0  0
 31 36  2  0  0  0  0
  9 10  1  0  0  0  0
 15 16  1  0  0  0  0
 24 25  1  0  0  0  0
 32 36  1  0  0  0  0
M  END
>  <MolRegNo>
1997639

>  <m>
=

>  <Value>
29000

>  <Unit>
nM

>  <Type>
IC50

>  <pValue>
4.54

>  <Ligand Efficiency>
0.17

>  <Binding Efficiency>
9.14

>  <Surface Efficiency>
6.32

>  <Assay Index>
973177

>  <Assay Category>


>  <Assay Organism>
Homo sapiens

>  <Target ID>
17045

>  <Target Name>
Cytochrome P450 3A4

>  <Target Organism>
Homo sapiens

>  <Target Description>
Target is a single protein chain

>  <Sequence Accession>
P08684

>  <Reference>


>  <Pubmed ID>


>  <DOI>


$$$$
1997585
Actelion Java MolfileCreator 1.0

 34 37  0  0  1  0  0  0  0  0999 V2000
    0.0000   -0.0000   -0.0000 O   0  0  0  0  0  0  0  0  0  0  0  0
   -0.0122    1.2598   -0.0000 C   0  0  0  0  0  0  0  0  0  0  0  0
   -1.3698    2.0425   -0.0000 O   0  0  0  0  0  0  0  0  0  0  0  0
    1.3209    2.0425   -0.0000 N   0  0  0  0  0  0  0  0  0  0  0  0
   -1.3821    3.6081   -0.0000 C   0  0  0  0  0  0  0  0  0  0  0  0
    2.6541    1.2842   -0.0000 C   0  0  0  0  0  0  0  0  0  0  0  0
    1.3087    3.6081   -0.0000 C   0  0  0  0  0  0  0  0  0  0  0  0
   -2.7030    2.8253   -0.0000 C   0  0  0  0  0  0  0  0  0  0  0  0
   -0.0489    4.3908   -0.0000 C   0  0  0  0  0  0  0  0  0  0  0  0
   -1.3576    5.1491   -0.0000 C   0  0  0  0  0  0  0  0  0  0  0  0
    2.6418   -0.2568   -0.0000 C   0  0  0  0  0  0  0  0  0  0  0  0
    3.7181    1.9202   -0.0000 C   0  0  0  0  0  0  0  0  0  0  0  0
   -2.6785    1.2842   -0.0000 C   0  0  0  0  0  0  0  0  0  0  0  0
   -4.0728    3.5836   -0.0000 C   0  0  0  0  0  0  0  0  0  0  0  0
   -0.0245    5.9441   -0.0000 C   0  0  0  0  0  0  0  0  0  0  0  0
    1.2842   -1.0274   -0.0000 C   0  0  0  0  0  0  0  0  0  0  0  0
    3.9750   -1.0151   -0.0000 C   0  0  0  0  0  0  0  0  0  0  0  0
   -4.0117    0.4892   -0.0000 C   0  0  0  0  0  0  0  0  0  0  0  0
   -5.4060    2.7886   -0.0000 C   0  0  0  0  0  0  0  0  0  0  0  0
   -0.0367    7.5097   -0.0000 C   0  0  0  0  0  0  0  0  0  0  0  0
    1.0396    5.3326   -0.0000 C   0  0  0  0  0  0  0  0  0  0  0  0
   -0.0367    4.7088   -0.0000 C   0  0  0  0  0  0  0  0  0  0  0  0
    1.2720   -2.5685   -0.0000 C   0  0  0  0  0  0  0  0  0  0  0  0
    3.9628   -2.5562   -0.0000 C   0  0  0  0  0  0  0  0  0  0  0  0
   -5.3815    1.2475   -0.0000 C   0  0  0  0  0  0  0  0  0  0  0  0
   -0.0489    8.7694   -0.0000 N   0  0  0  0  0  0  0  0  0  0  0  0
    2.6051   -3.3268   -0.0000 C   0  0  0  0  0  0  0  0  0  0  0  0
    2.5929   -4.8678   -0.0000 C   0  0  0  0  0  0  0  0  0  0  0  0
    1.2353   -5.6384   -0.0000 C   0  0  0  0  0  0  0  0  0  0  0  0
    3.9261   -5.6261   -0.0000 C   0  0  0  0  0  0  0  0  0  0  0  0
    1.2353   -7.1794   -0.0000 C   0  0  0  0  0  0  0  0  0  0  0  0
    3.9261   -7.1672   -0.0000 C   0  0  0  0  0  0  0  0  0  0  0  0
    0.1468   -7.7910   -0.0000 O   0  0  0  0  0  0  0  0  0  0  0  0
    2.5685   -7.9377   -0.0000 N   0  0  0  0  0  0  0  0  0  0  0  0
  1  2  2  0  0  0  0
  2  3  1  0  0  0  0
  2  4  1  0  0  0  0
  3  5  1  0  0  0  0
  6  4  1  1  0  0  0
  4  7  1  0  0  0  0
  5  8  1  0  0  0  0
  5  9  1  1  0  0  0
  5 10  1  0  0  0  0
  6 11  1  0  0  0  0
  6 12  1  0  0  0  0
  8 13  2  0  0  0  0
  8 14  1  0  0  0  0
 10 15  1  0  0  0  0
 11 16  2  0  0  0  0
 11 17  1  0  0  0  0
 13 18  1  0  0  0  0
 14 19  2  0  0  0  0
 15 20  1  0  0  0  0
 15 21  1  0  0  0  0
 15 22  1  0  0  0  0
 16 23  1  0  0  0  0
 17 24  2  0  0  0  0
 18 25  2  0  0  0  0
 20 26  3  0  0  0  0
 23 27  2  0  0  0  0
 27 28  1  0  0  0  0
 28 29  2  0  0  0  0
 28 30  1  0  0  0  0
 29 31  1  0  0  0  0
 30 32  2  0  0  0  0
 31 33  2  0  0  0  0
 31 34  1  0  0  0  0
  7  9  1  0  0  0  0
 19 25  1  0  0  0  0
 24 27  1  0  0  0  0
 32 34  1  0  0  0  0
M  END
>  <MolRegNo>
1997585

>  <m>
=

>  <Value>
25000

>  <Unit>
nM

>  <Type>
IC50

>  <pValue>
4.6

>  <Ligand Efficiency>
0.18

>  <Binding Efficiency>
10.1

>  <Surface Efficiency>
5.34

>  <Assay Index>
973177

>  <Assay Category>


>  <Assay Organism>
Homo sapiens

>  <Target ID>
17045

>  <Target Name>
Cytochrome P450 3A4

>  <Target Organism>
Homo sapiens

>  <Target Description>
Target is a single protein chain

>  <Sequence Accession>
P08684

>  <Reference>


>  <Pubmed ID>


>  <DOI>


$$$$
1997650
Actelion Java MolfileCreator 1.0

 36 39  0  0  1  0  0  0  0  0999 V2000
    0.0000   -0.0000   -0.0000 F   0  0  0  0  0  0  0  0  0  0  0  0
   -0.0244    1.2575   -0.0000 C   0  0  0  0  0  0  0  0  0  0  0  0
   -1.3796    2.0389   -0.0000 C   0  0  0  0  0  0  0  0  0  0  0  0
   -1.4040    3.6017   -0.0000 N   0  0  0  0  0  0  0  0  0  0  0  0
   -2.7592    4.3830   -0.0000 C   0  0  0  0  0  0  0  0  0  0  0  0
   -0.0733    4.3952   -0.0000 C   0  0  0  0  0  0  0  0  0  0  0  0
   -3.8458    3.7726   -0.0000 O   0  0  0  0  0  0  0  0  0  0  0  0
   -2.7837    5.9458   -0.0000 C   0  0  0  0  0  0  0  0  0  0  0  0
   -0.0977    5.9580   -0.0000 C   0  0  0  0  0  0  0  0  0  0  0  0
   -1.4529    6.7394   -0.0000 C   0  0  0  0  0  0  0  0  0  0  0  0
   -1.4651    8.3021   -0.0000 C   0  0  0  0  0  0  0  0  0  0  0  0
   -2.8203    9.0835   -0.0000 C   0  0  0  0  0  0  0  0  0  0  0  0
   -0.1343    9.0957   -0.0000 C   0  0  0  0  0  0  0  0  0  0  0  0
   -2.8325   10.6463   -0.0000 C   0  0  0  0  0  0  0  0  0  0  0  0
   -0.1465   10.6585   -0.0000 C   0  0  0  0  0  0  0  0  0  0  0  0
   -1.5017   11.4399   -0.0000 C   0  0  0  0  0  0  0  0  0  0  0  0
   -1.5139   13.0026   -0.0000 C   0  0  0  0  0  0  0  0  0  0  0  0
   -2.8691   13.7840   -0.0000 N   0  0  0  0  0  0  0  0  0  0  0  0
   -0.4517   13.6375   -0.0000 C   0  0  0  0  0  0  0  0  0  0  0  0
   -4.2243   13.0270   -0.0000 C   0  0  0  0  0  0  0  0  0  0  0  0
   -2.8813   15.3467   -0.0000 C   0  0  0  0  0  0  0  0  0  0  0  0
   -4.2365   11.7939   -0.0000 O   0  0  0  0  0  0  0  0  0  0  0  0
   -5.5795   13.8084   -0.0000 O   0  0  0  0  0  0  0  0  0  0  0  0
   -4.2365   16.1281   -0.0000 C   0  0  0  0  0  0  0  0  0  0  0  0
   -5.5917   15.3712   -0.0000 C   0  0  0  0  0  0  0  0  0  0  0  0
   -6.9103   14.5898   -0.0000 C   0  0  0  0  0  0  0  0  0  0  0  0
   -5.5673   16.9095   -0.0000 C   0  0  0  0  0  0  0  0  0  0  0  0
   -6.8859   13.0515   -0.0000 C   0  0  0  0  0  0  0  0  0  0  0  0
   -8.2777   15.3467   -0.0000 C   0  0  0  0  0  0  0  0  0  0  0  0
   -4.2365   17.7031   -0.0000 C   0  0  0  0  0  0  0  0  0  0  0  0
   -8.2167   12.2579   -0.0000 C   0  0  0  0  0  0  0  0  0  0  0  0
   -9.6085   14.5532   -0.0000 C   0  0  0  0  0  0  0  0  0  0  0  0
   -4.2487   18.9606   -0.0000 O   0  0  0  0  0  0  0  0  0  0  0  0
   -3.1743   17.0926   -0.0000 C   0  0  0  0  0  0  0  0  0  0  0  0
   -3.1743   18.3380   -0.0000 C   0  0  0  0  0  0  0  0  0  0  0  0
   -9.5841   13.0148   -0.0000 C   0  0  0  0  0  0  0  0  0  0  0  0
  1  2  1  0  0  0  0
  2  3  1  0  0  0  0
  3  4  1  0  0  0  0
  4  5  1  0  0  0  0
  4  6  1  0  0  0  0
  5  7  2  0  0  0  0
  5  8  1  0  0  0  0
  6  9  2  0  0  0  0
  8 10  2  0  0  0  0
 10 11  1  0  0  0  0
 11 12  2  0  0  0  0
 11 13  1  0  0  0  0
 12 14  1  0  0  0  0
 13 15  2  0  0  0  0
 14 16  2  0  0  0  0
 16 17  1  0  0  0  0
 17 18  1  1  0  0  0
 17 19  1  0  0  0  0
 18 20  1  0  0  0  0
 18 21  1  0  0  0  0
 20 22  2  0  0  0  0
 20 23  1  0  0  0  0
 21 24  1  0  0  0  0
 25 23  1  6  0  0  0
 25 26  1  0  0  0  0
 25 27  1  0  0  0  0
 26 28  2  0  0  0  0
 26 29  1  0  0  0  0
 27 30  1  0  0  0  0
 28 31  1  0  0  0  0
 29 32  2  0  0  0  0
 30 33  1  0  0  0  0
 30 34  1  0  0  0  0
 30 35  1  0  0  0  0
 31 36  2  0  0  0  0
  9 10  1  0  0  0  0
 15 16  1  0  0  0  0
 24 25  1  0  0  0  0
 32 36  1  0  0  0  0
M  END
>  <MolRegNo>
1997650

>  <m>
=

>  <Value>
33000

>  <Unit>
nM

>  <Type>
IC50

>  <pValue>
4.48

>  <Ligand Efficiency>
0.17

>  <Binding Efficiency>
9.1

>  <Surface Efficiency>
6.24

>  <Assay Index>
973177

>  <Assay Category>


>  <Assay Organism>
Homo sapiens

>  <Target ID>
17045

>  <Target Name>
Cytochrome P450 3A4

>  <Target Organism>
Homo sapiens

>  <Target Description>
Target is a single protein chain

>  <Sequence Accession>
P08684

>  <Reference>


>  <Pubmed ID>


>  <DOI>


$$$$
1997658
Actelion Java MolfileCreator 1.0

 34 37  0  0  1  0  0  0  0  0999 V2000
    0.0000   -0.0000   -0.0000 O   0  0  0  0  0  0  0  0  0  0  0  0
   -0.0123    1.2672   -0.0000 C   0  0  0  0  0  0  0  0  0  0  0  0
   -1.3779    2.0546   -0.0000 O   0  0  0  0  0  0  0  0  0  0  0  0
    1.3287    2.0546   -0.0000 N   0  0  0  0  0  0  0  0  0  0  0  0
   -1.3902    3.6294   -0.0000 C   0  0  0  0  0  0  0  0  0  0  0  0
    2.6697    1.2918   -0.0000 C   0  0  0  0  0  0  0  0  0  0  0  0
    1.3164    3.6294   -0.0000 C   0  0  0  0  0  0  0  0  0  0  0  0
   -2.7190    2.8420   -0.0000 C   0  0  0  0  0  0  0  0  0  0  0  0
   -0.0492    4.4168   -0.0000 C   0  0  0  0  0  0  0  0  0  0  0  0
   -1.3656    5.1795   -0.0000 C   0  0  0  0  0  0  0  0  0  0  0  0
    2.6574   -0.2584   -0.0000 C   0  0  0  0  0  0  0  0  0  0  0  0
    3.7401    1.9316   -0.0000 C   0  0  0  0  0  0  0  0  0  0  0  0
   -2.6943    1.2918   -0.0000 C   0  0  0  0  0  0  0  0  0  0  0  0
   -4.0969    3.6048   -0.0000 C   0  0  0  0  0  0  0  0  0  0  0  0
   -0.0246    5.9792   -0.0000 C   0  0  0  0  0  0  0  0  0  0  0  0
    1.2918   -1.0334   -0.0000 C   0  0  0  0  0  0  0  0  0  0  0  0
    3.9985   -1.0211   -0.0000 C   0  0  0  0  0  0  0  0  0  0  0  0
   -4.0354    0.4921   -0.0000 C   0  0  0  0  0  0  0  0  0  0  0  0
   -5.4379    2.8051   -0.0000 C   0  0  0  0  0  0  0  0  0  0  0  0
   -0.0369    7.2464   -0.0000 O   0  0  0  0  0  0  0  0  0  0  0  0
    1.0458    5.3641   -0.0000 C   0  0  0  0  0  0  0  0  0  0  0  0
    1.0458    6.6190   -0.0000 C   0  0  0  0  0  0  0  0  0  0  0  0
    1.2795   -2.5836   -0.0000 C   0  0  0  0  0  0  0  0  0  0  0  0
    3.9862   -2.5713   -0.0000 C   0  0  0  0  0  0  0  0  0  0  0  0
   -5.4133    1.2549   -0.0000 C   0  0  0  0  0  0  0  0  0  0  0  0
    2.6205   -3.3464   -0.0000 C   0  0  0  0  0  0  0  0  0  0  0  0
    2.6082   -4.8966   -0.0000 C   0  0  0  0  0  0  0  0  0  0  0  0
    1.2426   -5.6717   -0.0000 C   0  0  0  0  0  0  0  0  0  0  0  0
    3.9493   -5.6594   -0.0000 C   0  0  0  0  0  0  0  0  0  0  0  0
    1.2426   -7.2218   -0.0000 N   0  0  0  0  0  0  0  0  0  0  0  0
    3.9493   -7.2095   -0.0000 C   0  0  0  0  0  0  0  0  0  0  0  0
    2.5836   -7.9846   -0.0000 C   0  0  0  0  0  0  0  0  0  0  0  0
    0.1476   -7.8370   -0.0000 C   0  0  0  0  0  0  0  0  0  0  0  0
    2.5713   -9.2272   -0.0000 O   0  0  0  0  0  0  0  0  0  0  0  0
  1  2  2  0  0  0  0
  2  3  1  0  0  0  0
  2  4  1  0  0  0  0
  3  5  1  0  0  0  0
  6  4  1  1  0  0  0
  4  7  1  0  0  0  0
  5  8  1  0  0  0  0
  5  9  1  1  0  0  0
  5 10  1  0  0  0  0
  6 11  1  0  0  0  0
  6 12  1  0  0  0  0
  8 13  2  0  0  0  0
  8 14  1  0  0  0  0
 10 15  1  0  0  0  0
 11 16  2  0  0  0  0
 11 17  1  0  0  0  0
 13 18  1  0  0  0  0
 14 19  2  0  0  0  0
 15 20  1  0  0  0  0
 15 21  1  0  0  0  0
 15 22  1  0  0  0  0
 16 23  1  0  0  0  0
 17 24  2  0  0  0  0
 18 25  2  0  0  0  0
 23 26  2  0  0  0  0
 26 27  1  0  0  0  0
 27 28  2  0  0  0  0
 27 29  1  0  0  0  0
 28 30  1  0  0  0  0
 29 31  2  0  0  0  0
 30 32  1  0  0  0  0
 30 33  1  0  0  0  0
 32 34  2  0  0  0  0
  7  9  1  0  0  0  0
 19 25  1  0  0  0  0
 24 26  1  0  0  0  0
 31 32  1  0  0  0  0
M  END
>  <MolRegNo>
1997658

>  <m>
=

>  <Value>
48000

>  <Unit>
nM

>  <Type>
IC50

>  <pValue>
4.32

>  <Ligand Efficiency>
0.17

>  <Binding Efficiency>
9.38

>  <Surface Efficiency>
6.02

>  <Assay Index>
973177

>  <Assay Category>


>  <Assay Organism>
Homo sapiens

>  <Target ID>
17045

>  <Target Name>
Cytochrome P450 3A4

>  <Target Organism>
Homo sapiens

>  <Target Description>
Target is a single protein chain

>  <Sequence Accession>
P08684

>  <Reference>


>  <Pubmed ID>


>  <DOI>


$$$$
1997599
Actelion Java MolfileCreator 1.0

 35 38  0  0  1  0  0  0  0  0999 V2000
    0.0000   -0.0000   -0.0000 O   0  0  0  0  0  0  0  0  0  0  0  0
   -0.0123    1.2656   -0.0000 C   0  0  0  0  0  0  0  0  0  0  0  0
   -1.3762    2.0521   -0.0000 O   0  0  0  0  0  0  0  0  0  0  0  0
    1.3271    2.0521   -0.0000 N   0  0  0  0  0  0  0  0  0  0  0  0
   -1.3885    3.6249   -0.0000 C   0  0  0  0  0  0  0  0  0  0  0  0
    2.6664    1.2902   -0.0000 C   0  0  0  0  0  0  0  0  0  0  0  0
    1.3148    3.6249   -0.0000 C   0  0  0  0  0  0  0  0  0  0  0  0
   -2.7156    2.8385   -0.0000 C   0  0  0  0  0  0  0  0  0  0  0  0
   -0.0492    4.4113   -0.0000 C   0  0  0  0  0  0  0  0  0  0  0  0
   -1.3639    5.1731   -0.0000 C   0  0  0  0  0  0  0  0  0  0  0  0
    2.6542   -0.2580   -0.0000 C   0  0  0  0  0  0  0  0  0  0  0  0
    3.7355    1.9292   -0.0000 C   0  0  0  0  0  0  0  0  0  0  0  0
   -2.6910    1.2902   -0.0000 C   0  0  0  0  0  0  0  0  0  0  0  0
   -4.0918    3.6003   -0.0000 C   0  0  0  0  0  0  0  0  0  0  0  0
   -0.0246    5.9719   -0.0000 C   0  0  0  0  0  0  0  0  0  0  0  0
    1.2902   -1.0322   -0.0000 C   0  0  0  0  0  0  0  0  0  0  0  0
    3.9935   -1.0199   -0.0000 C   0  0  0  0  0  0  0  0  0  0  0  0
   -4.0304    0.4915   -0.0000 C   0  0  0  0  0  0  0  0  0  0  0  0
   -5.4312    2.8016   -0.0000 C   0  0  0  0  0  0  0  0  0  0  0  0
   -0.0369    7.5447   -0.0000 C   0  0  0  0  0  0  0  0  0  0  0  0
    1.0445    5.3575   -0.0000 C   0  0  0  0  0  0  0  0  0  0  0  0
   -0.0369    4.7308   -0.0000 C   0  0  0  0  0  0  0  0  0  0  0  0
    1.2779   -2.5804   -0.0000 C   0  0  0  0  0  0  0  0  0  0  0  0
    3.9812   -2.5681   -0.0000 C   0  0  0  0  0  0  0  0  0  0  0  0
   -5.4066    1.2534   -0.0000 C   0  0  0  0  0  0  0  0  0  0  0  0
   -0.0492    8.8103   -0.0000 N   0  0  0  0  0  0  0  0  0  0  0  0
    2.6173   -3.3423   -0.0000 C   0  0  0  0  0  0  0  0  0  0  0  0
    2.6050   -4.8905   -0.0000 C   0  0  0  0  0  0  0  0  0  0  0  0
    1.2411   -5.6647   -0.0000 C   0  0  0  0  0  0  0  0  0  0  0  0
    3.9444   -5.6524   -0.0000 C   0  0  0  0  0  0  0  0  0  0  0  0
    1.2411   -7.2129   -0.0000 N   0  0  0  0  0  0  0  0  0  0  0  0
    3.9444   -7.2006   -0.0000 C   0  0  0  0  0  0  0  0  0  0  0  0
    2.5804   -7.9748   -0.0000 C   0  0  0  0  0  0  0  0  0  0  0  0
    0.1475   -7.8273   -0.0000 C   0  0  0  0  0  0  0  0  0  0  0  0
    2.5681   -9.2158   -0.0000 O   0  0  0  0  0  0  0  0  0  0  0  0
  1  2  2  0  0  0  0
  2  3  1  0  0  0  0
  2  4  1  0  0  0  0
  3  5  1  0  0  0  0
  6  4  1  1  0  0  0
  4  7  1  0  0  0  0
  5  8  1  0  0  0  0
  5  9  1  1  0  0  0
  5 10  1  0  0  0  0
  6 11  1  0  0  0  0
  6 12  1  0  0  0  0
  8 13  2  0  0  0  0
  8 14  1  0  0  0  0
 10 15  1  0  0  0  0
 11 16  2  0  0  0  0
 11 17  1  0  0  0  0
 13 18  1  0  0  0  0
 14 19  2  0  0  0  0
 15 20  1  0  0  0  0
 15 21  1  0  0  0  0
 15 22  1  0  0  0  0
 16 23  1  0  0  0  0
 17 24  2  0  0  0  0
 18 25  2  0  0  0  0
 20 26  3  0  0  0  0
 23 27  2  0  0  0  0
 27 28  1  0  0  0  0
 28 29  2  0  0  0  0
 28 30  1  0  0  0  0
 29 31  1  0  0  0  0
 30 32  2  0  0  0  0
 31 33  1  0  0  0  0
 31 34  1  0  0  0  0
 33 35  2  0  0  0  0
  7  9  1  0  0  0  0
 19 25  1  0  0  0  0
 24 27  1  0  0  0  0
 32 33  1  0  0  0  0
M  END
>  <MolRegNo>
1997599

>  <m>
=

>  <Value>
32000

>  <Unit>
nM

>  <Type>
IC50

>  <pValue>
4.5

>  <Ligand Efficiency>
0.18

>  <Binding Efficiency>
9.57

>  <Surface Efficiency>
5.97

>  <Assay Index>
973177

>  <Assay Category>


>  <Assay Organism>
Homo sapiens

>  <Target ID>
17045

>  <Target Name>
Cytochrome P450 3A4

>  <Target Organism>
Homo sapiens

>  <Target Description>
Target is a single protein chain

>  <Sequence Accession>
P08684

>  <Reference>


>  <Pubmed ID>


>  <DOI>


$$$$
1997600
Actelion Java MolfileCreator 1.0

 35 38  0  0  1  0  0  0  0  0999 V2000
    0.0000   -0.0000   -0.0000 O   0  0  0  0  0  0  0  0  0  0  0  0
   -0.0123    1.2656   -0.0000 C   0  0  0  0  0  0  0  0  0  0  0  0
   -1.3762    2.0521   -0.0000 O   0  0  0  0  0  0  0  0  0  0  0  0
    1.3271    2.0521   -0.0000 N   0  0  0  0  0  0  0  0  0  0  0  0
   -1.3885    3.6249   -0.0000 C   0  0  0  0  0  0  0  0  0  0  0  0
    2.6664    1.2902   -0.0000 C   0  0  0  0  0  0  0  0  0  0  0  0
    1.3148    3.6249   -0.0000 C   0  0  0  0  0  0  0  0  0  0  0  0
   -2.7156    2.8385   -0.0000 C   0  0  0  0  0  0  0  0  0  0  0  0
   -0.0492    4.4113   -0.0000 C   0  0  0  0  0  0  0  0  0  0  0  0
   -1.3639    5.1731   -0.0000 C   0  0  0  0  0  0  0  0  0  0  0  0
    2.6542   -0.2580   -0.0000 C   0  0  0  0  0  0  0  0  0  0  0  0
    3.7355    1.9292   -0.0000 C   0  0  0  0  0  0  0  0  0  0  0  0
   -2.6910    1.2902   -0.0000 C   0  0  0  0  0  0  0  0  0  0  0  0
   -4.0918    3.6003   -0.0000 C   0  0  0  0  0  0  0  0  0  0  0  0
   -0.0246    5.9719   -0.0000 C   0  0  0  0  0  0  0  0  0  0  0  0
    1.2902   -1.0322   -0.0000 C   0  0  0  0  0  0  0  0  0  0  0  0
    3.9935   -1.0199   -0.0000 C   0  0  0  0  0  0  0  0  0  0  0  0
   -4.0304    0.4915   -0.0000 C   0  0  0  0  0  0  0  0  0  0  0  0
   -5.4312    2.8016   -0.0000 C   0  0  0  0  0  0  0  0  0  0  0  0
   -0.0369    7.5447   -0.0000 C   0  0  0  0  0  0  0  0  0  0  0  0
    1.0445    5.3575   -0.0000 C   0  0  0  0  0  0  0  0  0  0  0  0
   -0.0369    4.7308   -0.0000 C   0  0  0  0  0  0  0  0  0  0  0  0
    1.2779   -2.5804   -0.0000 C   0  0  0  0  0  0  0  0  0  0  0  0
    3.9812   -2.5681   -0.0000 C   0  0  0  0  0  0  0  0  0  0  0  0
   -5.4066    1.2534   -0.0000 C   0  0  0  0  0  0  0  0  0  0  0  0
   -0.0492    8.8103   -0.0000 N   0  0  0  0  0  0  0  0  0  0  0  0
    2.6173   -3.3423   -0.0000 C   0  0  0  0  0  0  0  0  0  0  0  0
    2.6050   -4.8905   -0.0000 C   0  0  0  0  0  0  0  0  0  0  0  0
    1.2411   -5.6647   -0.0000 C   0  0  0  0  0  0  0  0  0  0  0  0
    3.9444   -5.6524   -0.0000 C   0  0  0  0  0  0  0  0  0  0  0  0
    1.2411   -7.2129   -0.0000 C   0  0  0  0  0  0  0  0  0  0  0  0
    3.9444   -7.2006   -0.0000 C   0  0  0  0  0  0  0  0  0  0  0  0
    0.1475   -7.8273   -0.0000 O   0  0  0  0  0  0  0  0  0  0  0  0
    2.5804   -7.9748   -0.0000 N   0  0  0  0  0  0  0  0  0  0  0  0
    2.5681   -9.2158   -0.0000 C   0  0  0  0  0  0  0  0  0  0  0  0
  1  2  2  0  0  0  0
  2  3  1  0  0  0  0
  2  4  1  0  0  0  0
  3  5  1  0  0  0  0
  6  4  1  1  0  0  0
  4  7  1  0  0  0  0
  5  8  1  0  0  0  0
  5  9  1  1  0  0  0
  5 10  1  0  0  0  0
  6 11  1  0  0  0  0
  6 12  1  0  0  0  0
  8 13  2  0  0  0  0
  8 14  1  0  0  0  0
 10 15  1  0  0  0  0
 11 16  2  0  0  0  0
 11 17  1  0  0  0  0
 13 18  1  0  0  0  0
 14 19  2  0  0  0  0
 15 20  1  0  0  0  0
 15 21  1  0  0  0  0
 15 22  1  0  0  0  0
 16 23  1  0  0  0  0
 17 24  2  0  0  0  0
 18 25  2  0  0  0  0
 20 26  3  0  0  0  0
 23 27  2  0  0  0  0
 27 28  1  0  0  0  0
 28 29  2  0  0  0  0
 28 30  1  0  0  0  0
 29 31  1  0  0  0  0
 30 32  2  0  0  0  0
 31 33  2  0  0  0  0
 31 34  1  0  0  0  0
 34 35  1  0  0  0  0
  7  9  1  0  0  0  0
 19 25  1  0  0  0  0
 24 27  1  0  0  0  0
 32 34  1  0  0  0  0
M  END
>  <MolRegNo>
1997600

>  <m>
=

>  <Value>
14000

>  <Unit>
nM

>  <Type>
IC50

>  <pValue>
4.85

>  <Ligand Efficiency>
0.19

>  <Binding Efficiency>
10.34

>  <Surface Efficiency>
6.44

>  <Assay Index>
973177

>  <Assay Category>


>  <Assay Organism>
Homo sapiens

>  <Target ID>
17045

>  <Target Name>
Cytochrome P450 3A4

>  <Target Organism>
Homo sapiens

>  <Target Description>
Target is a single protein chain

>  <Sequence Accession>
P08684

>  <Reference>


>  <Pubmed ID>


>  <DOI>


$$$$
1997602
Actelion Java MolfileCreator 1.0

 36 39  0  0  1  0  0  0  0  0999 V2000
    0.0000   -0.0000   -0.0000 O   0  0  0  0  0  0  0  0  0  0  0  0
   -0.0123    1.2639   -0.0000 C   0  0  0  0  0  0  0  0  0  0  0  0
   -1.3744    2.0493   -0.0000 O   0  0  0  0  0  0  0  0  0  0  0  0
    1.3253    2.0493   -0.0000 N   0  0  0  0  0  0  0  0  0  0  0  0
   -1.3867    3.6200   -0.0000 C   0  0  0  0  0  0  0  0  0  0  0  0
    2.6629    1.2885   -0.0000 C   0  0  0  0  0  0  0  0  0  0  0  0
    1.3130    3.6200   -0.0000 C   0  0  0  0  0  0  0  0  0  0  0  0
   -2.7120    2.8347   -0.0000 C   0  0  0  0  0  0  0  0  0  0  0  0
   -0.0491    4.4054   -0.0000 C   0  0  0  0  0  0  0  0  0  0  0  0
   -1.3621    5.1662   -0.0000 C   0  0  0  0  0  0  0  0  0  0  0  0
    4.0004    2.0861   -0.0000 C   0  0  0  0  0  0  0  0  0  0  0  0
    2.6506   -0.2577   -0.0000 C   0  0  0  0  0  0  0  0  0  0  0  0
   -2.6874    1.2885   -0.0000 C   0  0  0  0  0  0  0  0  0  0  0  0
   -4.0863    3.5955   -0.0000 C   0  0  0  0  0  0  0  0  0  0  0  0
   -0.0245    5.9638   -0.0000 C   0  0  0  0  0  0  0  0  0  0  0  0
    5.3380    1.3253   -0.0000 C   0  0  0  0  0  0  0  0  0  0  0  0
    3.9882    3.6568   -0.0000 C   0  0  0  0  0  0  0  0  0  0  0  0
    3.7182   -0.8590   -0.0000 C   0  0  0  0  0  0  0  0  0  0  0  0
   -4.0250    0.4909   -0.0000 C   0  0  0  0  0  0  0  0  0  0  0  0
   -5.4239    2.7979   -0.0000 C   0  0  0  0  0  0  0  0  0  0  0  0
   -0.0368    7.2278   -0.0000 O   0  0  0  0  0  0  0  0  0  0  0  0
    1.0431    5.3503   -0.0000 C   0  0  0  0  0  0  0  0  0  0  0  0
    1.0431    6.6019   -0.0000 C   0  0  0  0  0  0  0  0  0  0  0  0
    6.6756    2.1229   -0.0000 C   0  0  0  0  0  0  0  0  0  0  0  0
    5.3257    4.4545   -0.0000 C   0  0  0  0  0  0  0  0  0  0  0  0
   -5.3994    1.2517   -0.0000 C   0  0  0  0  0  0  0  0  0  0  0  0
    6.6633    3.6937   -0.0000 C   0  0  0  0  0  0  0  0  0  0  0  0
    8.0009    4.4913   -0.0000 C   0  0  0  0  0  0  0  0  0  0  0  0
    9.3384    3.7305   -0.0000 C   0  0  0  0  0  0  0  0  0  0  0  0
    7.9763    6.0620   -0.0000 C   0  0  0  0  0  0  0  0  0  0  0  0
   10.6760    4.5281   -0.0000 N   0  0  0  0  0  0  0  0  0  0  0  0
    9.3139    6.8596   -0.0000 C   0  0  0  0  0  0  0  0  0  0  0  0
   10.6515    6.0988   -0.0000 C   0  0  0  0  0  0  0  0  0  0  0  0
   12.0136    3.7673   -0.0000 C   0  0  0  0  0  0  0  0  0  0  0  0
   11.7191    6.7369   -0.0000 O   0  0  0  0  0  0  0  0  0  0  0  0
   12.0013    2.5279   -0.0000 C   0  0  0  0  0  0  0  0  0  0  0  0
  1  2  2  0  0  0  0
  2  3  1  0  0  0  0
  2  4  1  0  0  0  0
  3  5  1  0  0  0  0
  6  4  1  6  0  0  0
  4  7  1  0  0  0  0
  5  8  1  0  0  0  0
  5  9  1  1  0  0  0
  5 10  1  0  0  0  0
  6 11  1  0  0  0  0
  6 12  1  0  0  0  0
  8 13  2  0  0  0  0
  8 14  1  0  0  0  0
 10 15  1  0  0  0  0
 11 16  2  0  0  0  0
 11 17  1  0  0  0  0
 12 18  1  0  0  0  0
 13 19  1  0  0  0  0
 14 20  2  0  0  0  0
 15 21  1  0  0  0  0
 15 22  1  0  0  0  0
 15 23  1  0  0  0  0
 16 24  1  0  0  0  0
 17 25  2  0  0  0  0
 19 26  2  0  0  0  0
 24 27  2  0  0  0  0
 27 28  1  0  0  0  0
 28 29  2  0  0  0  0
 28 30  1  0  0  0  0
 29 31  1  0  0  0  0
 30 32  2  0  0  0  0
 31 33  1  0  0  0  0
 31 34  1  0  0  0  0
 33 35  2  0  0  0  0
 34 36  1  0  0  0  0
  7  9  1  0  0  0  0
 20 26  1  0  0  0  0
 25 27  1  0  0  0  0
 32 33  1  0  0  0  0
M  END
>  <MolRegNo>
1997602

>  <m>
=

>  <Value>
48000

>  <Unit>
nM

>  <Type>
IC50

>  <pValue>
4.32

>  <Ligand Efficiency>
0.16

>  <Binding Efficiency>
8.84

>  <Surface Efficiency>
6.02

>  <Assay Index>
973177

>  <Assay Category>


>  <Assay Organism>
Homo sapiens

>  <Target ID>
17045

>  <Target Name>
Cytochrome P450 3A4

>  <Target Organism>
Homo sapiens

>  <Target Description>
Target is a single protein chain

>  <Sequence Accession>
P08684

>  <Reference>


>  <Pubmed ID>


>  <DOI>


$$$$
1997608
Actelion Java MolfileCreator 1.0

 32 35  0  0  1  0  0  0  0  0999 V2000
    0.0000   -0.0000   -0.0000 O   0  0  0  0  0  0  0  0  0  0  0  0
   -0.0122    1.2545   -0.0000 C   0  0  0  0  0  0  0  0  0  0  0  0
   -1.3641    2.0340   -0.0000 O   0  0  0  0  0  0  0  0  0  0  0  0
    1.3154    2.0340   -0.0000 N   0  0  0  0  0  0  0  0  0  0  0  0
   -1.3763    3.5930   -0.0000 C   0  0  0  0  0  0  0  0  0  0  0  0
    2.6430    1.2789   -0.0000 C   0  0  0  0  0  0  0  0  0  0  0  0
    1.3032    3.5930   -0.0000 C   0  0  0  0  0  0  0  0  0  0  0  0
   -2.6917    2.8135   -0.0000 C   0  0  0  0  0  0  0  0  0  0  0  0
   -0.0487    4.3725   -0.0000 C   0  0  0  0  0  0  0  0  0  0  0  0
   -1.3520    5.1277   -0.0000 C   0  0  0  0  0  0  0  0  0  0  0  0
    3.9706    2.0706   -0.0000 C   0  0  0  0  0  0  0  0  0  0  0  0
    2.6308   -0.2558   -0.0000 C   0  0  0  0  0  0  0  0  0  0  0  0
   -2.6674    1.2789   -0.0000 C   0  0  0  0  0  0  0  0  0  0  0  0
   -4.0559    3.5687   -0.0000 C   0  0  0  0  0  0  0  0  0  0  0  0
   -0.2923    5.7610   -0.0000 C   0  0  0  0  0  0  0  0  0  0  0  0
    5.2982    1.3154   -0.0000 C   0  0  0  0  0  0  0  0  0  0  0  0
    3.9584    3.6296   -0.0000 C   0  0  0  0  0  0  0  0  0  0  0  0
    3.6905   -0.8526   -0.0000 C   0  0  0  0  0  0  0  0  0  0  0  0
   -3.9950    0.4872   -0.0000 C   0  0  0  0  0  0  0  0  0  0  0  0
   -5.3835    2.7770   -0.0000 C   0  0  0  0  0  0  0  0  0  0  0  0
    6.6258    2.1071   -0.0000 C   0  0  0  0  0  0  0  0  0  0  0  0
    5.2860    4.4213   -0.0000 C   0  0  0  0  0  0  0  0  0  0  0  0
   -5.3591    1.2423   -0.0000 C   0  0  0  0  0  0  0  0  0  0  0  0
    6.6136    3.6661   -0.0000 C   0  0  0  0  0  0  0  0  0  0  0  0
    7.9412    4.4578   -0.0000 C   0  0  0  0  0  0  0  0  0  0  0  0
    9.2688    3.7027   -0.0000 C   0  0  0  0  0  0  0  0  0  0  0  0
    7.9169    6.0168   -0.0000 C   0  0  0  0  0  0  0  0  0  0  0  0
   10.5964    4.4943   -0.0000 C   0  0  0  0  0  0  0  0  0  0  0  0
    9.2445    6.8085   -0.0000 C   0  0  0  0  0  0  0  0  0  0  0  0
   11.6561    3.8975   -0.0000 O   0  0  0  0  0  0  0  0  0  0  0  0
   10.5721    6.0534   -0.0000 N   0  0  0  0  0  0  0  0  0  0  0  0
   11.6317    6.6867   -0.0000 C   0  0  0  0  0  0  0  0  0  0  0  0
  1  2  2  0  0  0  0
  2  3  1  0  0  0  0
  2  4  1  0  0  0  0
  3  5  1  0  0  0  0
  6  4  1  6  0  0  0
  4  7  1  0  0  0  0
  5  8  1  0  0  0  0
  5  9  1  1  0  0  0
  5 10  1  0  0  0  0
  6 11  1  0  0  0  0
  6 12  1  0  0  0  0
  8 13  2  0  0  0  0
  8 14  1  0  0  0  0
 10 15  1  0  0  0  0
 11 16  2  0  0  0  0
 11 17  1  0  0  0  0
 12 18  1  0  0  0  0
 13 19  1  0  0  0  0
 14 20  2  0  0  0  0
 16 21  1  0  0  0  0
 17 22  2  0  0  0  0
 19 23  2  0  0  0  0
 21 24  2  0  0  0  0
 24 25  1  0  0  0  0
 25 26  2  0  0  0  0
 25 27  1  0  0  0  0
 26 28  1  0  0  0  0
 27 29  2  0  0  0  0
 28 30  2  0  0  0  0
 28 31  1  0  0  0  0
 31 32  1  0  0  0  0
  7  9  1  0  0  0  0
 20 23  1  0  0  0  0
 22 24  1  0  0  0  0
 29 31  1  0  0  0  0
M  END
>  <MolRegNo>
1997608

>  <m>
=

>  <Value>
8000

>  <Unit>
nM

>  <Type>
IC50

>  <pValue>
5.1

>  <Ligand Efficiency>
0.22

>  <Binding Efficiency>
11.84

>  <Surface Efficiency>
9.89

>  <Assay Index>
973177

>  <Assay Category>


>  <Assay Organism>
Homo sapiens

>  <Target ID>
17045

>  <Target Name>
Cytochrome P450 3A4

>  <Target Organism>
Homo sapiens

>  <Target Description>
Target is a single protein chain

>  <Sequence Accession>
P08684

>  <Reference>


>  <Pubmed ID>


>  <DOI>


$$$$
1997611
Actelion Java MolfileCreator 1.0

 36 39  0  0  1  0  0  0  0  0999 V2000
    0.0000   -0.0000   -0.0000 F   0  0  0  0  0  0  0  0  0  0  0  0
    0.0247   -1.2496   -0.0000 C   0  0  0  0  0  0  0  0  0  0  0  0
   -1.3239   -2.0538   -0.0000 C   0  0  0  0  0  0  0  0  0  0  0  0
    1.3981   -1.9920   -0.0000 C   0  0  0  0  0  0  0  0  0  0  0  0
   -1.2991   -3.6128   -0.0000 C   0  0  0  0  0  0  0  0  0  0  0  0
    1.4228   -3.5509   -0.0000 C   0  0  0  0  0  0  0  0  0  0  0  0
    0.0742   -4.3551   -0.0000 C   0  0  0  0  0  0  0  0  0  0  0  0
    0.0990   -5.8893   -0.0000 C   0  0  0  0  0  0  0  0  0  0  0  0
   -1.2744   -5.0974   -0.0000 O   0  0  0  0  0  0  0  0  0  0  0  0
    0.0866   -7.4482   -0.0000 C   0  0  0  0  0  0  0  0  0  0  0  0
    1.4105   -6.6811   -0.0000 C   0  0  0  0  0  0  0  0  0  0  0  0
   -2.6477   -5.8769   -0.0000 C   0  0  0  0  0  0  0  0  0  0  0  0
   -1.2867   -8.2277   -0.0000 C   0  0  0  0  0  0  0  0  0  0  0  0
    1.3981   -8.2400   -0.0000 C   0  0  0  0  0  0  0  0  0  0  0  0
   -3.7489   -5.2335   -0.0000 O   0  0  0  0  0  0  0  0  0  0  0  0
   -2.6601   -7.4358   -0.0000 N   0  0  0  0  0  0  0  0  0  0  0  0
    2.4745   -8.8587   -0.0000 O   0  0  0  0  0  0  0  0  0  0  0  0
    0.2969   -8.8587   -0.0000 C   0  0  0  0  0  0  0  0  0  0  0  0
    1.3857   -9.4897   -0.0000 C   0  0  0  0  0  0  0  0  0  0  0  0
   -4.0334   -8.2153   -0.0000 C   0  0  0  0  0  0  0  0  0  0  0  0
   -4.0458   -9.7742   -0.0000 C   0  0  0  0  0  0  0  0  0  0  0  0
   -5.1346   -7.5843   -0.0000 C   0  0  0  0  0  0  0  0  0  0  0  0
   -2.6972  -10.5413   -0.0000 C   0  0  0  0  0  0  0  0  0  0  0  0
   -5.4191  -10.5537   -0.0000 C   0  0  0  0  0  0  0  0  0  0  0  0
   -2.7096  -12.1003   -0.0000 C   0  0  0  0  0  0  0  0  0  0  0  0
   -5.4315  -12.1126   -0.0000 C   0  0  0  0  0  0  0  0  0  0  0  0
   -4.0829  -12.8797   -0.0000 C   0  0  0  0  0  0  0  0  0  0  0  0
   -4.0953  -14.4386   -0.0000 C   0  0  0  0  0  0  0  0  0  0  0  0
   -2.7467  -15.2057   -0.0000 C   0  0  0  0  0  0  0  0  0  0  0  0
   -5.4686  -15.2057   -0.0000 C   0  0  0  0  0  0  0  0  0  0  0  0
   -2.7591  -16.7647   -0.0000 N   0  0  0  0  0  0  0  0  0  0  0  0
   -5.4810  -16.7647   -0.0000 C   0  0  0  0  0  0  0  0  0  0  0  0
   -4.1324  -17.5318   -0.0000 C   0  0  0  0  0  0  0  0  0  0  0  0
   -1.4105  -17.5318   -0.0000 C   0  0  0  0  0  0  0  0  0  0  0  0
   -4.1448  -18.7814   -0.0000 O   0  0  0  0  0  0  0  0  0  0  0  0
   -0.3341  -16.8884   -0.0000 C   0  0  0  0  0  0  0  0  0  0  0  0
  1  2  1  0  0  0  0
  2  3  2  0  0  0  0
  2  4  1  0  0  0  0
  3  5  1  0  0  0  0
  4  6  2  0  0  0  0
  5  7  2  0  0  0  0
  7  8  1  0  0  0  0
  8  9  1  0  0  0  0
  8 10  1  1  0  0  0
  8 11  1  0  0  0  0
  9 12  1  0  0  0  0
 10 13  1  0  0  0  0
 11 14  1  0  0  0  0
 12 15  2  0  0  0  0
 12 16  1  0  0  0  0
 14 17  1  0  0  0  0
 14 18  1  0  0  0  0
 14 19  1  0  0  0  0
 20 16  1  6  0  0  0
 20 21  1  0  0  0  0
 20 22  1  0  0  0  0
 21 23  2  0  0  0  0
 21 24  1  0  0  0  0
 23 25  1  0  0  0  0
 24 26  2  0  0  0  0
 25 27  2  0  0  0  0
 27 28  1  0  0  0  0
 28 29  2  0  0  0  0
 28 30  1  0  0  0  0
 29 31  1  0  0  0  0
 30 32  2  0  0  0  0
 31 33  1  0  0  0  0
 31 34  1  0  0  0  0
 33 35  2  0  0  0  0
 34 36  1  0  0  0  0
  6  7  1  0  0  0  0
 13 16  1  0  0  0  0
 26 27  1  0  0  0  0
 32 33  1  0  0  0  0
M  END
>  <MolRegNo>
1997611

>  <m>
=

>  <Value>
48000

>  <Unit>
nM

>  <Type>
IC50

>  <pValue>
4.32

>  <Ligand Efficiency>
0.16

>  <Binding Efficiency>
8.77

>  <Surface Efficiency>
6.02

>  <Assay Index>
973177

>  <Assay Category>


>  <Assay Organism>
Homo sapiens

>  <Target ID>
17045

>  <Target Name>
Cytochrome P450 3A4

>  <Target Organism>
Homo sapiens

>  <Target Description>
Target is a single protein chain

>  <Sequence Accession>
P08684

>  <Reference>


>  <Pubmed ID>


>  <DOI>


$$$$
1997615
Actelion Java MolfileCreator 1.0

 38 41  0  0  1  0  0  0  0  0999 V2000
    0.0000   -0.0000   -0.0000 F   0  0  0  0  0  0  0  0  0  0  0  0
   -0.0246    1.2687   -0.0000 C   0  0  0  0  0  0  0  0  0  0  0  0
    1.0470    1.9093   -0.0000 F   0  0  0  0  0  0  0  0  0  0  0  0
    1.0470    0.6652   -0.0000 F   0  0  0  0  0  0  0  0  0  0  0  0
   -1.3919    2.0571   -0.0000 C   0  0  0  0  0  0  0  0  0  0  0  0
   -1.4166    3.6338   -0.0000 N   0  0  0  0  0  0  0  0  0  0  0  0
   -2.7838    4.4221   -0.0000 C   0  0  0  0  0  0  0  0  0  0  0  0
   -0.0739    4.4344   -0.0000 C   0  0  0  0  0  0  0  0  0  0  0  0
   -3.8801    3.8062   -0.0000 O   0  0  0  0  0  0  0  0  0  0  0  0
   -2.8085    5.9988   -0.0000 C   0  0  0  0  0  0  0  0  0  0  0  0
   -0.0985    6.0111   -0.0000 C   0  0  0  0  0  0  0  0  0  0  0  0
   -1.4658    6.7995   -0.0000 C   0  0  0  0  0  0  0  0  0  0  0  0
   -1.4781    8.3762   -0.0000 C   0  0  0  0  0  0  0  0  0  0  0  0
   -2.8454    9.1645   -0.0000 C   0  0  0  0  0  0  0  0  0  0  0  0
   -0.1355    9.1768   -0.0000 C   0  0  0  0  0  0  0  0  0  0  0  0
   -2.8577   10.7412   -0.0000 C   0  0  0  0  0  0  0  0  0  0  0  0
   -0.1478   10.7535   -0.0000 C   0  0  0  0  0  0  0  0  0  0  0  0
   -1.5151   11.5419   -0.0000 C   0  0  0  0  0  0  0  0  0  0  0  0
   -1.5274   13.1185   -0.0000 C   0  0  0  0  0  0  0  0  0  0  0  0
   -2.8947   13.9069   -0.0000 N   0  0  0  0  0  0  0  0  0  0  0  0
   -0.4558   13.7591   -0.0000 C   0  0  0  0  0  0  0  0  0  0  0  0
   -4.2620   13.1432   -0.0000 C   0  0  0  0  0  0  0  0  0  0  0  0
   -2.9070   15.4836   -0.0000 C   0  0  0  0  0  0  0  0  0  0  0  0
   -4.2743   11.8991   -0.0000 O   0  0  0  0  0  0  0  0  0  0  0  0
   -5.6293   13.9315   -0.0000 O   0  0  0  0  0  0  0  0  0  0  0  0
   -4.2743   16.2719   -0.0000 C   0  0  0  0  0  0  0  0  0  0  0  0
   -5.6416   15.5082   -0.0000 C   0  0  0  0  0  0  0  0  0  0  0  0
   -6.9719   14.7199   -0.0000 C   0  0  0  0  0  0  0  0  0  0  0  0
   -5.6170   17.0603   -0.0000 C   0  0  0  0  0  0  0  0  0  0  0  0
   -6.9473   13.1678   -0.0000 C   0  0  0  0  0  0  0  0  0  0  0  0
   -8.3515   15.4836   -0.0000 C   0  0  0  0  0  0  0  0  0  0  0  0
   -4.2743   17.8609   -0.0000 C   0  0  0  0  0  0  0  0  0  0  0  0
   -8.2899   12.3672   -0.0000 C   0  0  0  0  0  0  0  0  0  0  0  0
   -9.6942   14.6829   -0.0000 C   0  0  0  0  0  0  0  0  0  0  0  0
   -4.2866   19.1297   -0.0000 O   0  0  0  0  0  0  0  0  0  0  0  0
   -3.2026   17.2450   -0.0000 C   0  0  0  0  0  0  0  0  0  0  0  0
   -3.2026   18.5015   -0.0000 C   0  0  0  0  0  0  0  0  0  0  0  0
   -9.6695   13.1309   -0.0000 C   0  0  0  0  0  0  0  0  0  0  0  0
  1  2  1  0  0  0  0
  2  3  1  0  0  0  0
  2  4  1  0  0  0  0
  2  5  1  0  0  0  0
  5  6  1  0  0  0  0
  6  7  1  0  0  0  0
  6  8  1  0  0  0  0
  7  9  2  0  0  0  0
  7 10  1  0  0  0  0
  8 11  2  0  0  0  0
 10 12  2  0  0  0  0
 12 13  1  0  0  0  0
 13 14  2  0  0  0  0
 13 15  1  0  0  0  0
 14 16  1  0  0  0  0
 15 17  2  0  0  0  0
 16 18  2  0  0  0  0
 18 19  1  0  0  0  0
 19 20  1  1  0  0  0
 19 21  1  0  0  0  0
 20 22  1  0  0  0  0
 20 23  1  0  0  0  0
 22 24  2  0  0  0  0
 22 25  1  0  0  0  0
 23 26  1  0  0  0  0
 27 25  1  6  0  0  0
 27 28  1  0  0  0  0
 27 29  1  0  0  0  0
 28 30  2  0  0  0  0
 28 31  1  0  0  0  0
 29 32  1  0  0  0  0
 30 33  1  0  0  0  0
 31 34  2  0  0  0  0
 32 35  1  0  0  0  0
 32 36  1  0  0  0  0
 32 37  1  0  0  0  0
 33 38  2  0  0  0  0
 11 12  1  0  0  0  0
 17 18  1  0  0  0  0
 26 27  1  0  0  0  0
 34 38  1  0  0  0  0
M  END
>  <MolRegNo>
1997615

>  <m>
=

>  <Value>
18000

>  <Unit>
nM

>  <Type>
IC50

>  <pValue>
4.75

>  <Ligand Efficiency>
0.17

>  <Binding Efficiency>
8.98

>  <Surface Efficiency>
6.61

>  <Assay Index>
973177

>  <Assay Category>


>  <Assay Organism>
Homo sapiens

>  <Target ID>
17045

>  <Target Name>
Cytochrome P450 3A4

>  <Target Organism>
Homo sapiens

>  <Target Description>
Target is a single protein chain

>  <Sequence Accession>
P08684

>  <Reference>


>  <Pubmed ID>


>  <DOI>


$$$$
1997616
Actelion Java MolfileCreator 1.0

 38 41  0  0  1  0  0  0  0  0999 V2000
    0.0000   -0.0000   -0.0000 F   0  0  0  0  0  0  0  0  0  0  0  0
    1.0732    0.6414   -0.0000 C   0  0  0  0  0  0  0  0  0  0  0  0
    1.0609    1.9120   -0.0000 F   0  0  0  0  0  0  0  0  0  0  0  0
   -0.0247    1.2829   -0.0000 F   0  0  0  0  0  0  0  0  0  0  0  0
    2.4178   -0.1234   -0.0000 C   0  0  0  0  0  0  0  0  0  0  0  0
    3.7623    0.6785   -0.0000 N   0  0  0  0  0  0  0  0  0  0  0  0
    5.1069   -0.0863   -0.0000 C   0  0  0  0  0  0  0  0  0  0  0  0
    3.7377    2.2574   -0.0000 C   0  0  0  0  0  0  0  0  0  0  0  0
    5.0946   -1.3322   -0.0000 O   0  0  0  0  0  0  0  0  0  0  0  0
    6.4515    0.7155   -0.0000 C   0  0  0  0  0  0  0  0  0  0  0  0
    5.0823    3.0592   -0.0000 C   0  0  0  0  0  0  0  0  0  0  0  0
    6.4268    2.2944   -0.0000 C   0  0  0  0  0  0  0  0  0  0  0  0
    5.0699    4.6382   -0.0000 C   0  0  0  0  0  0  0  0  0  0  0  0
    3.7007    5.4277   -0.0000 C   0  0  0  0  0  0  0  0  0  0  0  0
    6.4145    5.4400   -0.0000 C   0  0  0  0  0  0  0  0  0  0  0  0
    3.6883    7.0066   -0.0000 C   0  0  0  0  0  0  0  0  0  0  0  0
    6.4022    7.0189   -0.0000 C   0  0  0  0  0  0  0  0  0  0  0  0
    5.0329    7.8084   -0.0000 C   0  0  0  0  0  0  0  0  0  0  0  0
    5.0206    9.3874   -0.0000 C   0  0  0  0  0  0  0  0  0  0  0  0
    3.6513   10.1768   -0.0000 N   0  0  0  0  0  0  0  0  0  0  0  0
    6.0938   10.0288   -0.0000 C   0  0  0  0  0  0  0  0  0  0  0  0
    2.2821    9.4120   -0.0000 C   0  0  0  0  0  0  0  0  0  0  0  0
    3.6390   11.7558   -0.0000 C   0  0  0  0  0  0  0  0  0  0  0  0
    2.2697    8.1661   -0.0000 O   0  0  0  0  0  0  0  0  0  0  0  0
    0.9128   10.2015   -0.0000 O   0  0  0  0  0  0  0  0  0  0  0  0
    2.2697   12.5453   -0.0000 C   0  0  0  0  0  0  0  0  0  0  0  0
    0.9005   11.7805   -0.0000 C   0  0  0  0  0  0  0  0  0  0  0  0
   -0.4317   10.9910   -0.0000 C   0  0  0  0  0  0  0  0  0  0  0  0
    0.9252   13.3348   -0.0000 C   0  0  0  0  0  0  0  0  0  0  0  0
   -0.4071    9.4367   -0.0000 C   0  0  0  0  0  0  0  0  0  0  0  0
   -1.8133   11.7558   -0.0000 C   0  0  0  0  0  0  0  0  0  0  0  0
    2.2697   14.1366   -0.0000 C   0  0  0  0  0  0  0  0  0  0  0  0
   -1.7517    8.6349   -0.0000 C   0  0  0  0  0  0  0  0  0  0  0  0
   -3.1579   10.9540   -0.0000 C   0  0  0  0  0  0  0  0  0  0  0  0
    2.2574   15.4071   -0.0000 O   0  0  0  0  0  0  0  0  0  0  0  0
    3.3429   13.5198   -0.0000 C   0  0  0  0  0  0  0  0  0  0  0  0
    3.3429   14.7780   -0.0000 C   0  0  0  0  0  0  0  0  0  0  0  0
   -3.1332    9.3997   -0.0000 C   0  0  0  0  0  0  0  0  0  0  0  0
  1  2  1  0  0  0  0
  2  3  1  0  0  0  0
  2  4  1  0  0  0  0
  2  5  1  0  0  0  0
  5  6  1  0  0  0  0
  6  7  1  0  0  0  0
  6  8  1  0  0  0  0
  7  9  2  0  0  0  0
  7 10  1  0  0  0  0
  8 11  2  0  0  0  0
 10 12  2  0  0  0  0
 11 13  1  0  0  0  0
 13 14  2  0  0  0  0
 13 15  1  0  0  0  0
 14 16  1  0  0  0  0
 15 17  2  0  0  0  0
 16 18  2  0  0  0  0
 18 19  1  0  0  0  0
 19 20  1  1  0  0  0
 19 21  1  0  0  0  0
 20 22  1  0  0  0  0
 20 23  1  0  0  0  0
 22 24  2  0  0  0  0
 22 25  1  0  0  0  0
 23 26  1  0  0  0  0
 27 25  1  6  0  0  0
 27 28  1  0  0  0  0
 27 29  1  0  0  0  0
 28 30  2  0  0  0  0
 28 31  1  0  0  0  0
 29 32  1  0  0  0  0
 30 33  1  0  0  0  0
 31 34  2  0  0  0  0
 32 35  1  0  0  0  0
 32 36  1  0  0  0  0
 32 37  1  0  0  0  0
 33 38  2  0  0  0  0
 11 12  1  0  0  0  0
 17 18  1  0  0  0  0
 26 27  1  0  0  0  0
 34 38  1  0  0  0  0
M  END
>  <MolRegNo>
1997616

>  <m>
=

>  <Value>
28000

>  <Unit>
nM

>  <Type>
IC50

>  <pValue>
4.55

>  <Ligand Efficiency>
0.16

>  <Binding Efficiency>
8.61

>  <Surface Efficiency>
6.34

>  <Assay Index>
973177

>  <Assay Category>


>  <Assay Organism>
Homo sapiens

>  <Target ID>
17045

>  <Target Name>
Cytochrome P450 3A4

>  <Target Organism>
Homo sapiens

>  <Target Description>
Target is a single protein chain

>  <Sequence Accession>
P08684

>  <Reference>


>  <Pubmed ID>


>  <DOI>


$$$$
1997617
Actelion Java MolfileCreator 1.0

 36 39  0  0  1  0  0  0  0  0999 V2000
    0.0000   -0.0000   -0.0000 O   0  0  0  0  0  0  0  0  0  0  0  0
    1.0762    0.6432   -0.0000 C   0  0  0  0  0  0  0  0  0  0  0  0
    1.0638    2.2266   -0.0000 O   0  0  0  0  0  0  0  0  0  0  0  0
    2.4245   -0.1237   -0.0000 N   0  0  0  0  0  0  0  0  0  0  0  0
    2.4121    3.0306   -0.0000 C   0  0  0  0  0  0  0  0  0  0  0  0
    2.4121   -1.6823   -0.0000 C   0  0  0  0  0  0  0  0  0  0  0  0
    3.7728    0.6803   -0.0000 C   0  0  0  0  0  0  0  0  0  0  0  0
    1.0391    3.7852   -0.0000 C   0  0  0  0  0  0  0  0  0  0  0  0
    3.7604    2.2637   -0.0000 C   0  0  0  0  0  0  0  0  0  0  0  0
    3.7604    3.7852   -0.0000 C   0  0  0  0  0  0  0  0  0  0  0  0
    3.7604   -2.4492   -0.0000 C   0  0  0  0  0  0  0  0  0  0  0  0
    1.3112   -2.3008   -0.0000 C   0  0  0  0  0  0  0  0  0  0  0  0
   -0.3092    2.9811   -0.0000 C   0  0  0  0  0  0  0  0  0  0  0  0
    0.9896    5.3685   -0.0000 C   0  0  0  0  0  0  0  0  0  0  0  0
    5.1087    3.0182   -0.0000 C   0  0  0  0  0  0  0  0  0  0  0  0
    5.1087   -1.6452   -0.0000 C   0  0  0  0  0  0  0  0  0  0  0  0
    3.7480   -4.0078   -0.0000 C   0  0  0  0  0  0  0  0  0  0  0  0
   -1.7070    3.7480   -0.0000 C   0  0  0  0  0  0  0  0  0  0  0  0
   -0.4082    6.1354   -0.0000 C   0  0  0  0  0  0  0  0  0  0  0  0
    6.1849    3.6615   -0.0000 O   0  0  0  0  0  0  0  0  0  0  0  0
    5.0964    1.7689   -0.0000 C   0  0  0  0  0  0  0  0  0  0  0  0
    6.1849    2.3997   -0.0000 C   0  0  0  0  0  0  0  0  0  0  0  0
    6.4570   -2.4121   -0.0000 C   0  0  0  0  0  0  0  0  0  0  0  0
    5.0964   -4.7747   -0.0000 C   0  0  0  0  0  0  0  0  0  0  0  0
   -1.7565    5.3314   -0.0000 C   0  0  0  0  0  0  0  0  0  0  0  0
    6.4447   -3.9707   -0.0000 C   0  0  0  0  0  0  0  0  0  0  0  0
    7.7930   -4.7376   -0.0000 C   0  0  0  0  0  0  0  0  0  0  0  0
    7.7806   -6.2962   -0.0000 C   0  0  0  0  0  0  0  0  0  0  0  0
    9.1413   -3.9460   -0.0000 C   0  0  0  0  0  0  0  0  0  0  0  0
    9.1289   -7.0632   -0.0000 C   0  0  0  0  0  0  0  0  0  0  0  0
   10.4896   -4.7129   -0.0000 C   0  0  0  0  0  0  0  0  0  0  0  0
    9.1165   -8.3125   -0.0000 O   0  0  0  0  0  0  0  0  0  0  0  0
   10.4772   -6.2715   -0.0000 N   0  0  0  0  0  0  0  0  0  0  0  0
   11.8255   -7.0384   -0.0000 C   0  0  0  0  0  0  0  0  0  0  0  0
   12.9017   -6.3952   -0.0000 C   0  0  0  0  0  0  0  0  0  0  0  0
   11.8132   -8.2878   -0.0000 C   0  0  0  0  0  0  0  0  0  0  0  0
  1  2  2  0  0  0  0
  2  3  1  0  0  0  0
  2  4  1  0  0  0  0
  3  5  1  0  0  0  0
  6  4  1  6  0  0  0
  4  7  1  0  0  0  0
  5  8  1  0  0  0  0
  5  9  1  1  0  0  0
  5 10  1  0  0  0  0
  6 11  1  0  0  0  0
  6 12  1  0  0  0  0
  8 13  2  0  0  0  0
  8 14  1  0  0  0  0
 10 15  1  0  0  0  0
 11 16  2  0  0  0  0
 11 17  1  0  0  0  0
 13 18  1  0  0  0  0
 14 19  2  0  0  0  0
 15 20  1  0  0  0  0
 15 21  1  0  0  0  0
 15 22  1  0  0  0  0
 16 23  1  0  0  0  0
 17 24  2  0  0  0  0
 18 25  2  0  0  0  0
 23 26  2  0  0  0  0
 26 27  1  0  0  0  0
 27 28  2  0  0  0  0
 27 29  1  0  0  0  0
 28 30  1  0  0  0  0
 29 31  2  0  0  0  0
 30 32  2  0  0  0  0
 30 33  1  0  0  0  0
 33 34  1  0  0  0  0
 34 35  1  0  0  0  0
 34 36  1  0  0  0  0
  7  9  1  0  0  0  0
 19 25  1  0  0  0  0
 24 26  1  0  0  0  0
 31 33  1  0  0  0  0
M  END
>  <MolRegNo>
1997617

>  <m>
=

>  <Value>
43000

>  <Unit>
nM

>  <Type>
IC50

>  <pValue>
4.37

>  <Ligand Efficiency>
0.17

>  <Binding Efficiency>
8.94

>  <Surface Efficiency>
6.08

>  <Assay Index>
973177

>  <Assay Category>


>  <Assay Organism>
Homo sapiens

>  <Target ID>
17045

>  <Target Name>
Cytochrome P450 3A4

>  <Target Organism>
Homo sapiens

>  <Target Description>
Target is a single protein chain

>  <Sequence Accession>
P08684

>  <Reference>


>  <Pubmed ID>


>  <DOI>


$$$$
1997618
Actelion Java MolfileCreator 1.0

 36 39  0  0  1  0  0  0  0  0999 V2000
    0.0000   -0.0000   -0.0000 F   0  0  0  0  0  0  0  0  0  0  0  0
    1.0646    0.6685   -0.0000 C   0  0  0  0  0  0  0  0  0  0  0  0
    2.4264   -0.0743   -0.0000 C   0  0  0  0  0  0  0  0  0  0  0  0
    1.0151    2.2531   -0.0000 C   0  0  0  0  0  0  0  0  0  0  0  0
    3.7510    0.7552   -0.0000 C   0  0  0  0  0  0  0  0  0  0  0  0
    2.3397    3.0825   -0.0000 C   0  0  0  0  0  0  0  0  0  0  0  0
    3.7015    2.3397   -0.0000 C   0  0  0  0  0  0  0  0  0  0  0  0
    5.0137    3.1568   -0.0000 C   0  0  0  0  0  0  0  0  0  0  0  0
    5.0014    1.5970   -0.0000 O   0  0  0  0  0  0  0  0  0  0  0  0
    6.3631    3.9491   -0.0000 C   0  0  0  0  0  0  0  0  0  0  0  0
    5.0385    4.7166   -0.0000 C   0  0  0  0  0  0  0  0  0  0  0  0
    6.3507    0.8294   -0.0000 C   0  0  0  0  0  0  0  0  0  0  0  0
    7.7125    3.1816   -0.0000 C   0  0  0  0  0  0  0  0  0  0  0  0
    6.3879    5.5213   -0.0000 C   0  0  0  0  0  0  0  0  0  0  0  0
    6.3384   -0.4209   -0.0000 O   0  0  0  0  0  0  0  0  0  0  0  0
    7.7001    1.6217   -0.0000 N   0  0  0  0  0  0  0  0  0  0  0  0
    6.3755    7.1059   -0.0000 C   0  0  0  0  0  0  0  0  0  0  0  0
    7.4649    4.9023   -0.0000 C   0  0  0  0  0  0  0  0  0  0  0  0
    6.3755    4.2710   -0.0000 C   0  0  0  0  0  0  0  0  0  0  0  0
    9.0495    0.8542   -0.0000 C   0  0  0  0  0  0  0  0  0  0  0  0
    6.3631    8.3810   -0.0000 N   0  0  0  0  0  0  0  0  0  0  0  0
    9.0371   -0.7056   -0.0000 C   0  0  0  0  0  0  0  0  0  0  0  0
   10.1265    1.4979   -0.0000 C   0  0  0  0  0  0  0  0  0  0  0  0
    7.6630   -1.4856   -0.0000 C   0  0  0  0  0  0  0  0  0  0  0  0
   10.3865   -1.4732   -0.0000 C   0  0  0  0  0  0  0  0  0  0  0  0
    7.6506   -3.0454   -0.0000 C   0  0  0  0  0  0  0  0  0  0  0  0
   10.3741   -3.0330   -0.0000 C   0  0  0  0  0  0  0  0  0  0  0  0
    9.0000   -3.8129   -0.0000 C   0  0  0  0  0  0  0  0  0  0  0  0
    8.9876   -5.3728   -0.0000 C   0  0  0  0  0  0  0  0  0  0  0  0
    7.6135   -6.1527   -0.0000 C   0  0  0  0  0  0  0  0  0  0  0  0
   10.3370   -6.1403   -0.0000 C   0  0  0  0  0  0  0  0  0  0  0  0
    7.6135   -7.7125   -0.0000 N   0  0  0  0  0  0  0  0  0  0  0  0
   10.3370   -7.7001   -0.0000 C   0  0  0  0  0  0  0  0  0  0  0  0
    8.9628   -8.4800   -0.0000 C   0  0  0  0  0  0  0  0  0  0  0  0
    6.5117   -8.3315   -0.0000 C   0  0  0  0  0  0  0  0  0  0  0  0
    8.9505   -9.7304   -0.0000 O   0  0  0  0  0  0  0  0  0  0  0  0
  1  2  1  0  0  0  0
  2  3  2  0  0  0  0
  2  4  1  0  0  0  0
  3  5  1  0  0  0  0
  4  6  2  0  0  0  0
  5  7  2  0  0  0  0
  7  8  1  0  0  0  0
  8  9  1  0  0  0  0
  8 10  1  1  0  0  0
  8 11  1  0  0  0  0
  9 12  1  0  0  0  0
 10 13  1  0  0  0  0
 11 14  1  0  0  0  0
 12 15  2  0  0  0  0
 12 16  1  0  0  0  0
 14 17  1  0  0  0  0
 14 18  1  0  0  0  0
 14 19  1  0  0  0  0
 20 16  1  1  0  0  0
 17 21  3  0  0  0  0
 20 22  1  0  0  0  0
 20 23  1  0  0  0  0
 22 24  2  0  0  0  0
 22 25  1  0  0  0  0
 24 26  1  0  0  0  0
 25 27  2  0  0  0  0
 26 28  2  0  0  0  0
 28 29  1  0  0  0  0
 29 30  2  0  0  0  0
 29 31  1  0  0  0  0
 30 32  1  0  0  0  0
 31 33  2  0  0  0  0
 32 34  1  0  0  0  0
 32 35  1  0  0  0  0
 34 36  2  0  0  0  0
  6  7  1  0  0  0  0
 13 16  1  0  0  0  0
 27 28  1  0  0  0  0
 33 34  1  0  0  0  0
M  END
>  <MolRegNo>
1997618

>  <m>
=

>  <Value>
23000

>  <Unit>
nM

>  <Type>
IC50

>  <pValue>
4.64

>  <Ligand Efficiency>
0.18

>  <Binding Efficiency>
9.51

>  <Surface Efficiency>
6.16

>  <Assay Index>
973177

>  <Assay Category>


>  <Assay Organism>
Homo sapiens

>  <Target ID>
17045

>  <Target Name>
Cytochrome P450 3A4

>  <Target Organism>
Homo sapiens

>  <Target Description>
Target is a single protein chain

>  <Sequence Accession>
P08684

>  <Reference>


>  <Pubmed ID>


>  <DOI>


$$$$
1997619
Actelion Java MolfileCreator 1.0

 36 39  0  0  1  0  0  0  0  0999 V2000
    0.0000   -0.0000   -0.0000 O   0  0  0  0  0  0  0  0  0  0  0  0
    1.0760   -0.6184   -0.0000 C   0  0  0  0  0  0  0  0  0  0  0  0
    2.4241    0.1855   -0.0000 O   0  0  0  0  0  0  0  0  0  0  0  0
    1.0637   -2.1768   -0.0000 N   0  0  0  0  0  0  0  0  0  0  0  0
    3.7723   -0.5813   -0.0000 C   0  0  0  0  0  0  0  0  0  0  0  0
   -0.3092   -2.9560   -0.0000 C   0  0  0  0  0  0  0  0  0  0  0  0
    2.4118   -2.9436   -0.0000 C   0  0  0  0  0  0  0  0  0  0  0  0
    3.7228    0.9771   -0.0000 C   0  0  0  0  0  0  0  0  0  0  0  0
    3.7599   -2.1397   -0.0000 C   0  0  0  0  0  0  0  0  0  0  0  0
    5.0833   -1.3729   -0.0000 C   0  0  0  0  0  0  0  0  0  0  0  0
   -0.3216   -4.5144   -0.0000 C   0  0  0  0  0  0  0  0  0  0  0  0
   -1.4100   -2.3252   -0.0000 C   0  0  0  0  0  0  0  0  0  0  0  0
    2.3252    1.7439   -0.0000 C   0  0  0  0  0  0  0  0  0  0  0  0
    5.0462    1.8057   -0.0000 C   0  0  0  0  0  0  0  0  0  0  0  0
    5.0709   -2.9312   -0.0000 C   0  0  0  0  0  0  0  0  0  0  0  0
    1.0266   -5.2812   -0.0000 C   0  0  0  0  0  0  0  0  0  0  0  0
   -1.6944   -5.2935   -0.0000 C   0  0  0  0  0  0  0  0  0  0  0  0
    2.2757    3.3270   -0.0000 C   0  0  0  0  0  0  0  0  0  0  0  0
    4.9967    3.3889   -0.0000 C   0  0  0  0  0  0  0  0  0  0  0  0
    6.1469   -3.5496   -0.0000 O   0  0  0  0  0  0  0  0  0  0  0  0
    3.9702   -3.5496   -0.0000 C   0  0  0  0  0  0  0  0  0  0  0  0
    5.0585   -4.1804   -0.0000 C   0  0  0  0  0  0  0  0  0  0  0  0
    1.0142   -6.8396   -0.0000 C   0  0  0  0  0  0  0  0  0  0  0  0
   -1.7068   -6.8519   -0.0000 C   0  0  0  0  0  0  0  0  0  0  0  0
    3.5991    4.1557   -0.0000 C   0  0  0  0  0  0  0  0  0  0  0  0
   -0.3587   -7.6187   -0.0000 C   0  0  0  0  0  0  0  0  0  0  0  0
   -0.3710   -9.1771   -0.0000 C   0  0  0  0  0  0  0  0  0  0  0  0
    0.9771   -9.9439   -0.0000 C   0  0  0  0  0  0  0  0  0  0  0  0
   -1.7439   -9.9439   -0.0000 C   0  0  0  0  0  0  0  0  0  0  0  0
    0.9647  -11.5023   -0.0000 N   0  0  0  0  0  0  0  0  0  0  0  0
   -1.7563  -11.5023   -0.0000 C   0  0  0  0  0  0  0  0  0  0  0  0
   -0.4081  -12.2691   -0.0000 C   0  0  0  0  0  0  0  0  0  0  0  0
    2.3128  -12.2691   -0.0000 C   0  0  0  0  0  0  0  0  0  0  0  0
   -2.8570  -12.1207   -0.0000 C   0  0  0  0  0  0  0  0  0  0  0  0
   -0.4205  -13.5183   -0.0000 O   0  0  0  0  0  0  0  0  0  0  0  0
    3.3889  -11.6260   -0.0000 C   0  0  0  0  0  0  0  0  0  0  0  0
  1  2  2  0  0  0  0
  2  3  1  0  0  0  0
  2  4  1  0  0  0  0
  3  5  1  0  0  0  0
  6  4  1  6  0  0  0
  4  7  1  0  0  0  0
  5  8  1  0  0  0  0
  5  9  1  1  0  0  0
  5 10  1  0  0  0  0
  6 11  1  0  0  0  0
  6 12  1  0  0  0  0
  8 13  2  0  0  0  0
  8 14  1  0  0  0  0
 10 15  1  0  0  0  0
 11 16  2  0  0  0  0
 11 17  1  0  0  0  0
 13 18  1  0  0  0  0
 14 19  2  0  0  0  0
 15 20  1  0  0  0  0
 15 21  1  0  0  0  0
 15 22  1  0  0  0  0
 16 23  1  0  0  0  0
 17 24  2  0  0  0  0
 18 25  2  0  0  0  0
 23 26  2  0  0  0  0
 26 27  1  0  0  0  0
 27 28  2  0  0  0  0
 27 29  1  0  0  0  0
 28 30  1  0  0  0  0
 29 31  2  0  0  0  0
 30 32  1  0  0  0  0
 30 33  1  0  0  0  0
 31 34  1  0  0  0  0
 32 35  2  0  0  0  0
 33 36  1  0  0  0  0
  7  9  1  0  0  0  0
 19 25  1  0  0  0  0
 24 26  1  0  0  0  0
 31 32  1  0  0  0  0
M  END
>  <MolRegNo>
1997619

>  <m>
=

>  <Value>
28000

>  <Unit>
nM

>  <Type>
IC50

>  <pValue>
4.55

>  <Ligand Efficiency>
0.17

>  <Binding Efficiency>
9.32

>  <Surface Efficiency>
6.34

>  <Assay Index>
973177

>  <Assay Category>


>  <Assay Organism>
Homo sapiens

>  <Target ID>
17045

>  <Target Name>
Cytochrome P450 3A4

>  <Target Organism>
Homo sapiens

>  <Target Description>
Target is a single protein chain

>  <Sequence Accession>
P08684

>  <Reference>


>  <Pubmed ID>


>  <DOI>


$$$$
1997662
Actelion Java MolfileCreator 1.0

 34 37  0  0  1  0  0  0  0  0999 V2000
    0.0000   -0.0000   -0.0000 O   0  0  0  0  0  0  0  0  0  0  0  0
   -0.0122    1.2601   -0.0000 C   0  0  0  0  0  0  0  0  0  0  0  0
   -1.3702    2.0430   -0.0000 O   0  0  0  0  0  0  0  0  0  0  0  0
    1.3212    2.0430   -0.0000 N   0  0  0  0  0  0  0  0  0  0  0  0
   -1.3824    3.6089   -0.0000 C   0  0  0  0  0  0  0  0  0  0  0  0
    2.6547    1.2845   -0.0000 C   0  0  0  0  0  0  0  0  0  0  0  0
    1.3090    3.6089   -0.0000 C   0  0  0  0  0  0  0  0  0  0  0  0
   -2.7036    2.8260   -0.0000 C   0  0  0  0  0  0  0  0  0  0  0  0
   -0.0489    4.3919   -0.0000 C   0  0  0  0  0  0  0  0  0  0  0  0
   -1.3579    5.1504   -0.0000 C   0  0  0  0  0  0  0  0  0  0  0  0
    2.6425   -0.2569   -0.0000 C   0  0  0  0  0  0  0  0  0  0  0  0
    3.7190    1.9207   -0.0000 C   0  0  0  0  0  0  0  0  0  0  0  0
   -2.6792    1.2845   -0.0000 C   0  0  0  0  0  0  0  0  0  0  0  0
   -4.0738    3.5845   -0.0000 C   0  0  0  0  0  0  0  0  0  0  0  0
   -0.0245    5.9455   -0.0000 C   0  0  0  0  0  0  0  0  0  0  0  0
    1.2845   -1.0276   -0.0000 C   0  0  0  0  0  0  0  0  0  0  0  0
    3.9759   -1.0154   -0.0000 C   0  0  0  0  0  0  0  0  0  0  0  0
   -4.0126    0.4893   -0.0000 C   0  0  0  0  0  0  0  0  0  0  0  0
   -5.4073    2.7893   -0.0000 C   0  0  0  0  0  0  0  0  0  0  0  0
   -0.0367    7.5114   -0.0000 C   0  0  0  0  0  0  0  0  0  0  0  0
    1.0399    5.3339   -0.0000 C   0  0  0  0  0  0  0  0  0  0  0  0
   -0.0367    4.7099   -0.0000 C   0  0  0  0  0  0  0  0  0  0  0  0
    1.2723   -2.5691   -0.0000 C   0  0  0  0  0  0  0  0  0  0  0  0
    3.9637   -2.5568   -0.0000 C   0  0  0  0  0  0  0  0  0  0  0  0
   -5.3828    1.2478   -0.0000 C   0  0  0  0  0  0  0  0  0  0  0  0
   -0.0489    8.7715   -0.0000 C   0  0  0  0  0  0  0  0  0  0  0  0
    2.6058   -3.3275   -0.0000 C   0  0  0  0  0  0  0  0  0  0  0  0
    2.5935   -4.8690   -0.0000 C   0  0  0  0  0  0  0  0  0  0  0  0
    1.2356   -5.6397   -0.0000 C   0  0  0  0  0  0  0  0  0  0  0  0
    3.9270   -5.6275   -0.0000 C   0  0  0  0  0  0  0  0  0  0  0  0
    1.2356   -7.1811   -0.0000 N   0  0  0  0  0  0  0  0  0  0  0  0
    3.9270   -7.1689   -0.0000 C   0  0  0  0  0  0  0  0  0  0  0  0
    2.5691   -7.9396   -0.0000 C   0  0  0  0  0  0  0  0  0  0  0  0
    2.5568   -9.1752   -0.0000 O   0  0  0  0  0  0  0  0  0  0  0  0
  1  2  2  0  0  0  0
  2  3  1  0  0  0  0
  2  4  1  0  0  0  0
  3  5  1  0  0  0  0
  6  4  1  1  0  0  0
  4  7  1  0  0  0  0
  5  8  1  0  0  0  0
  5  9  1  1  0  0  0
  5 10  1  0  0  0  0
  6 11  1  0  0  0  0
  6 12  1  0  0  0  0
  8 13  2  0  0  0  0
  8 14  1  0  0  0  0
 10 15  1  0  0  0  0
 11 16  2  0  0  0  0
 11 17  1  0  0  0  0
 13 18  1  0  0  0  0
 14 19  2  0  0  0  0
 15 20  1  0  0  0  0
 15 21  1  0  0  0  0
 15 22  1  0  0  0  0
 16 23  1  0  0  0  0
 17 24  2  0  0  0  0
 18 25  2  0  0  0  0
 20 26  3  0  0  0  0
 23 27  2  0  0  0  0
 27 28  1  0  0  0  0
 28 29  2  0  0  0  0
 28 30  1  0  0  0  0
 29 31  1  0  0  0  0
 30 32  2  0  0  0  0
 31 33  1  0  0  0  0
 33 34  2  0  0  0  0
  7  9  1  0  0  0  0
 19 25  1  0  0  0  0
 24 27  1  0  0  0  0
 32 33  1  0  0  0  0
M  END
>  <MolRegNo>
1997662

>  <m>
=

>  <Value>
6000

>  <Unit>
nM

>  <Type>
IC50

>  <pValue>
5.22

>  <Ligand Efficiency>
0.21

>  <Binding Efficiency>
11.49

>  <Surface Efficiency>
8.37

>  <Assay Index>
973177

>  <Assay Category>


>  <Assay Organism>
Homo sapiens

>  <Target ID>
17045

>  <Target Name>
Cytochrome P450 3A4

>  <Target Organism>
Homo sapiens

>  <Target Description>
Target is a single protein chain

>  <Sequence Accession>
P08684

>  <Reference>


>  <Pubmed ID>


>  <DOI>


$$$$
1997620
Actelion Java MolfileCreator 1.0

 36 39  0  0  1  0  0  0  0  0999 V2000
    0.0000   -0.0000   -0.0000 O   0  0  0  0  0  0  0  0  0  0  0  0
    1.0761    0.6432   -0.0000 C   0  0  0  0  0  0  0  0  0  0  0  0
    1.0637    2.2263   -0.0000 O   0  0  0  0  0  0  0  0  0  0  0  0
    2.4242   -0.1237   -0.0000 N   0  0  0  0  0  0  0  0  0  0  0  0
    2.4119    3.0303   -0.0000 C   0  0  0  0  0  0  0  0  0  0  0  0
    2.4119   -1.6821   -0.0000 C   0  0  0  0  0  0  0  0  0  0  0  0
    3.7724    0.6803   -0.0000 C   0  0  0  0  0  0  0  0  0  0  0  0
    1.0390    3.7848   -0.0000 C   0  0  0  0  0  0  0  0  0  0  0  0
    3.7600    2.2634   -0.0000 C   0  0  0  0  0  0  0  0  0  0  0  0
    3.7600    3.7848   -0.0000 C   0  0  0  0  0  0  0  0  0  0  0  0
    3.7600   -2.4490   -0.0000 C   0  0  0  0  0  0  0  0  0  0  0  0
    1.3111   -2.3005   -0.0000 C   0  0  0  0  0  0  0  0  0  0  0  0
   -0.3092    2.9808   -0.0000 C   0  0  0  0  0  0  0  0  0  0  0  0
    0.9895    5.3679   -0.0000 C   0  0  0  0  0  0  0  0  0  0  0  0
    5.1082    3.0179   -0.0000 C   0  0  0  0  0  0  0  0  0  0  0  0
    5.1082   -1.6450   -0.0000 C   0  0  0  0  0  0  0  0  0  0  0  0
    3.7477   -4.0074   -0.0000 C   0  0  0  0  0  0  0  0  0  0  0  0
   -1.7069    3.7477   -0.0000 C   0  0  0  0  0  0  0  0  0  0  0  0
   -0.4082    6.1348   -0.0000 C   0  0  0  0  0  0  0  0  0  0  0  0
    6.1842    3.6611   -0.0000 O   0  0  0  0  0  0  0  0  0  0  0  0
    5.0958    1.7687   -0.0000 C   0  0  0  0  0  0  0  0  0  0  0  0
    6.1842    2.3995   -0.0000 C   0  0  0  0  0  0  0  0  0  0  0  0
    6.4564   -2.4119   -0.0000 C   0  0  0  0  0  0  0  0  0  0  0  0
    5.0958   -4.7742   -0.0000 C   0  0  0  0  0  0  0  0  0  0  0  0
   -1.7563    5.3308   -0.0000 C   0  0  0  0  0  0  0  0  0  0  0  0
    6.4440   -3.9703   -0.0000 C   0  0  0  0  0  0  0  0  0  0  0  0
    7.7922   -4.7371   -0.0000 C   0  0  0  0  0  0  0  0  0  0  0  0
    7.7798   -6.2956   -0.0000 C   0  0  0  0  0  0  0  0  0  0  0  0
    9.1403   -3.9456   -0.0000 C   0  0  0  0  0  0  0  0  0  0  0  0
    9.1280   -7.0624   -0.0000 C   0  0  0  0  0  0  0  0  0  0  0  0
   10.4885   -4.7124   -0.0000 C   0  0  0  0  0  0  0  0  0  0  0  0
    9.1156   -8.3116   -0.0000 O   0  0  0  0  0  0  0  0  0  0  0  0
   10.4761   -6.2708   -0.0000 N   0  0  0  0  0  0  0  0  0  0  0  0
   11.5645   -4.0692   -0.0000 C   0  0  0  0  0  0  0  0  0  0  0  0
   11.8243   -7.0500   -0.0000 C   0  0  0  0  0  0  0  0  0  0  0  0
   11.8119   -8.2993   -0.0000 C   0  0  0  0  0  0  0  0  0  0  0  0
  1  2  2  0  0  0  0
  2  3  1  0  0  0  0
  2  4  1  0  0  0  0
  3  5  1  0  0  0  0
  6  4  1  6  0  0  0
  4  7  1  0  0  0  0
  5  8  1  0  0  0  0
  5  9  1  1  0  0  0
  5 10  1  0  0  0  0
  6 11  1  0  0  0  0
  6 12  1  0  0  0  0
  8 13  2  0  0  0  0
  8 14  1  0  0  0  0
 10 15  1  0  0  0  0
 11 16  2  0  0  0  0
 11 17  1  0  0  0  0
 13 18  1  0  0  0  0
 14 19  2  0  0  0  0
 15 20  1  0  0  0  0
 15 21  1  0  0  0  0
 15 22  1  0  0  0  0
 16 23  1  0  0  0  0
 17 24  2  0  0  0  0
 18 25  2  0  0  0  0
 23 26  2  0  0  0  0
 26 27  1  0  0  0  0
 27 28  2  0  0  0  0
 27 29  1  0  0  0  0
 28 30  1  0  0  0  0
 29 31  2  0  0  0  0
 30 32  2  0  0  0  0
 30 33  1  0  0  0  0
 31 34  1  0  0  0  0
 33 35  1  0  0  0  0
 35 36  1  0  0  0  0
  7  9  1  0  0  0  0
 19 25  1  0  0  0  0
 24 26  1  0  0  0  0
 31 33  1  0  0  0  0
M  END
>  <MolRegNo>
1997620

>  <m>
=

>  <Value>
41000

>  <Unit>
nM

>  <Type>
IC50

>  <pValue>
4.39

>  <Ligand Efficiency>
0.17

>  <Binding Efficiency>
8.98

>  <Surface Efficiency>
6.11

>  <Assay Index>
973177

>  <Assay Category>


>  <Assay Organism>
Homo sapiens

>  <Target ID>
17045

>  <Target Name>
Cytochrome P450 3A4

>  <Target Organism>
Homo sapiens

>  <Target Description>
Target is a single protein chain

>  <Sequence Accession>
P08684

>  <Reference>


>  <Pubmed ID>


>  <DOI>


$$$$
1997622
Actelion Java MolfileCreator 1.0

 36 40  0  0  1  0  0  0  0  0999 V2000
    0.0000   -0.0000   -0.0000 O   0  0  0  0  0  0  0  0  0  0  0  0
   -0.0122    1.2606   -0.0000 C   0  0  0  0  0  0  0  0  0  0  0  0
   -1.3707    2.0438   -0.0000 O   0  0  0  0  0  0  0  0  0  0  0  0
    1.3218    2.0438   -0.0000 N   0  0  0  0  0  0  0  0  0  0  0  0
   -1.3830    3.6104   -0.0000 C   0  0  0  0  0  0  0  0  0  0  0  0
    2.6558    1.2850   -0.0000 C   0  0  0  0  0  0  0  0  0  0  0  0
    1.3095    3.6104   -0.0000 C   0  0  0  0  0  0  0  0  0  0  0  0
   -2.7047    2.8271   -0.0000 C   0  0  0  0  0  0  0  0  0  0  0  0
   -0.0490    4.3936   -0.0000 C   0  0  0  0  0  0  0  0  0  0  0  0
   -1.3585    5.1524   -0.0000 C   0  0  0  0  0  0  0  0  0  0  0  0
    2.6435   -0.2570   -0.0000 C   0  0  0  0  0  0  0  0  0  0  0  0
    3.7205    1.9214   -0.0000 C   0  0  0  0  0  0  0  0  0  0  0  0
   -2.6802    1.2850   -0.0000 C   0  0  0  0  0  0  0  0  0  0  0  0
   -4.0754    3.5859   -0.0000 C   0  0  0  0  0  0  0  0  0  0  0  0
   -0.0245    5.9479   -0.0000 C   0  0  0  0  0  0  0  0  0  0  0  0
    1.2850   -1.0280   -0.0000 C   0  0  0  0  0  0  0  0  0  0  0  0
    3.9775   -1.0158   -0.0000 C   0  0  0  0  0  0  0  0  0  0  0  0
   -4.0142    0.4895   -0.0000 C   0  0  0  0  0  0  0  0  0  0  0  0
   -5.4094    2.7904   -0.0000 C   0  0  0  0  0  0  0  0  0  0  0  0
   -0.0367    7.2085   -0.0000 O   0  0  0  0  0  0  0  0  0  0  0  0
    1.0403    5.3360   -0.0000 C   0  0  0  0  0  0  0  0  0  0  0  0
    1.0403    6.5843   -0.0000 C   0  0  0  0  0  0  0  0  0  0  0  0
    1.2728   -2.5701   -0.0000 C   0  0  0  0  0  0  0  0  0  0  0  0
    3.9653   -2.5578   -0.0000 C   0  0  0  0  0  0  0  0  0  0  0  0
   -5.3849    1.2483   -0.0000 C   0  0  0  0  0  0  0  0  0  0  0  0
    2.6068   -3.3289   -0.0000 C   0  0  0  0  0  0  0  0  0  0  0  0
    2.5946   -4.8709   -0.0000 C   0  0  0  0  0  0  0  0  0  0  0  0
    1.2361   -5.6419   -0.0000 C   0  0  0  0  0  0  0  0  0  0  0  0
    3.9286   -5.6297   -0.0000 C   0  0  0  0  0  0  0  0  0  0  0  0
    1.2361   -7.1840   -0.0000 C   0  0  0  0  0  0  0  0  0  0  0  0
    3.9286   -7.1718   -0.0000 C   0  0  0  0  0  0  0  0  0  0  0  0
    0.1469   -7.7959   -0.0000 O   0  0  0  0  0  0  0  0  0  0  0  0
    2.5701   -7.9428   -0.0000 N   0  0  0  0  0  0  0  0  0  0  0  0
    2.5701   -9.4848   -0.0000 C   0  0  0  0  0  0  0  0  0  0  0  0
    1.7868  -10.7332   -0.0000 C   0  0  0  0  0  0  0  0  0  0  0  0
    3.3411  -10.7209   -0.0000 C   0  0  0  0  0  0  0  0  0  0  0  0
  1  2  2  0  0  0  0
  2  3  1  0  0  0  0
  2  4  1  0  0  0  0
  3  5  1  0  0  0  0
  6  4  1  1  0  0  0
  4  7  1  0  0  0  0
  5  8  1  0  0  0  0
  5  9  1  1  0  0  0
  5 10  1  0  0  0  0
  6 11  1  0  0  0  0
  6 12  1  0  0  0  0
  8 13  2  0  0  0  0
  8 14  1  0  0  0  0
 10 15  1  0  0  0  0
 11 16  2  0  0  0  0
 11 17  1  0  0  0  0
 13 18  1  0  0  0  0
 14 19  2  0  0  0  0
 15 20  1  0  0  0  0
 15 21  1  0  0  0  0
 15 22  1  0  0  0  0
 16 23  1  0  0  0  0
 17 24  2  0  0  0  0
 18 25  2  0  0  0  0
 23 26  2  0  0  0  0
 26 27  1  0  0  0  0
 27 28  2  0  0  0  0
 27 29  1  0  0  0  0
 28 30  1  0  0  0  0
 29 31  2  0  0  0  0
 30 32  2  0  0  0  0
 30 33  1  0  0  0  0
 33 34  1  0  0  0  0
 34 35  1  0  0  0  0
 34 36  1  0  0  0  0
  7  9  1  0  0  0  0
 19 25  1  0  0  0  0
 24 26  1  0  0  0  0
 31 33  1  0  0  0  0
 35 36  1  0  0  0  0
M  END
>  <MolRegNo>
1997622

>  <m>
=

>  <Value>
23000

>  <Unit>
nM

>  <Type>
IC50

>  <pValue>
4.64

>  <Ligand Efficiency>
0.18

>  <Binding Efficiency>
9.53

>  <Surface Efficiency>
6.46

>  <Assay Index>
973177

>  <Assay Category>


>  <Assay Organism>
Homo sapiens

>  <Target ID>
17045

>  <Target Name>
Cytochrome P450 3A4

>  <Target Organism>
Homo sapiens

>  <Target Description>
Target is a single protein chain

>  <Sequence Accession>
P08684

>  <Reference>


>  <Pubmed ID>


>  <DOI>


$$$$
1997623
Actelion Java MolfileCreator 1.0

 37 41  0  0  1  0  0  0  0  0999 V2000
    0.0000   -0.0000   -0.0000 O   0  0  0  0  0  0  0  0  0  0  0  0
   -0.0122    1.2583   -0.0000 C   0  0  0  0  0  0  0  0  0  0  0  0
   -1.3682    2.0401   -0.0000 O   0  0  0  0  0  0  0  0  0  0  0  0
    1.3194    2.0401   -0.0000 N   0  0  0  0  0  0  0  0  0  0  0  0
   -1.3804    3.6038   -0.0000 C   0  0  0  0  0  0  0  0  0  0  0  0
    2.6509    1.2827   -0.0000 C   0  0  0  0  0  0  0  0  0  0  0  0
    1.3071    3.6038   -0.0000 C   0  0  0  0  0  0  0  0  0  0  0  0
   -2.6998    2.8219   -0.0000 C   0  0  0  0  0  0  0  0  0  0  0  0
   -0.0489    4.3856   -0.0000 C   0  0  0  0  0  0  0  0  0  0  0  0
   -1.3560    5.1430   -0.0000 C   0  0  0  0  0  0  0  0  0  0  0  0
    2.6387   -0.2565   -0.0000 C   0  0  0  0  0  0  0  0  0  0  0  0
    3.7137    1.9179   -0.0000 C   0  0  0  0  0  0  0  0  0  0  0  0
   -2.6753    1.2827   -0.0000 C   0  0  0  0  0  0  0  0  0  0  0  0
   -4.0680    3.5793   -0.0000 C   0  0  0  0  0  0  0  0  0  0  0  0
   -0.0244    5.9371   -0.0000 C   0  0  0  0  0  0  0  0  0  0  0  0
    1.2827   -1.0262   -0.0000 C   0  0  0  0  0  0  0  0  0  0  0  0
    3.9703   -1.0139   -0.0000 C   0  0  0  0  0  0  0  0  0  0  0  0
   -4.0069    0.4886   -0.0000 C   0  0  0  0  0  0  0  0  0  0  0  0
   -5.3996    2.7853   -0.0000 C   0  0  0  0  0  0  0  0  0  0  0  0
   -0.0366    7.1953   -0.0000 O   0  0  0  0  0  0  0  0  0  0  0  0
    1.0384    5.3263   -0.0000 C   0  0  0  0  0  0  0  0  0  0  0  0
    1.0384    6.5723   -0.0000 C   0  0  0  0  0  0  0  0  0  0  0  0
    1.2705   -2.5654   -0.0000 C   0  0  0  0  0  0  0  0  0  0  0  0
    3.9581   -2.5532   -0.0000 C   0  0  0  0  0  0  0  0  0  0  0  0
   -5.3751    1.2461   -0.0000 C   0  0  0  0  0  0  0  0  0  0  0  0
    2.6021   -3.3228   -0.0000 C   0  0  0  0  0  0  0  0  0  0  0  0
    2.5898   -4.8621   -0.0000 C   0  0  0  0  0  0  0  0  0  0  0  0
    1.2338   -5.6317   -0.0000 C   0  0  0  0  0  0  0  0  0  0  0  0
    3.9214   -5.6195   -0.0000 C   0  0  0  0  0  0  0  0  0  0  0  0
    1.2338   -7.1709   -0.0000 N   0  0  0  0  0  0  0  0  0  0  0  0
    3.9214   -7.1587   -0.0000 C   0  0  0  0  0  0  0  0  0  0  0  0
    2.5654   -7.9283   -0.0000 C   0  0  0  0  0  0  0  0  0  0  0  0
   -0.1222   -7.9405   -0.0000 C   0  0  0  0  0  0  0  0  0  0  0  0
    2.5532   -9.1622   -0.0000 O   0  0  0  0  0  0  0  0  0  0  0  0
   -1.4782   -7.1587   -0.0000 C   0  0  0  0  0  0  0  0  0  0  0  0
   -2.9563   -7.1953   -0.0000 C   0  0  0  0  0  0  0  0  0  0  0  0
   -2.1867   -5.8516   -0.0000 C   0  0  0  0  0  0  0  0  0  0  0  0
  1  2  2  0  0  0  0
  2  3  1  0  0  0  0
  2  4  1  0  0  0  0
  3  5  1  0  0  0  0
  6  4  1  1  0  0  0
  4  7  1  0  0  0  0
  5  8  1  0  0  0  0
  5  9  1  1  0  0  0
  5 10  1  0  0  0  0
  6 11  1  0  0  0  0
  6 12  1  0  0  0  0
  8 13  2  0  0  0  0
  8 14  1  0  0  0  0
 10 15  1  0  0  0  0
 11 16  2  0  0  0  0
 11 17  1  0  0  0  0
 13 18  1  0  0  0  0
 14 19  2  0  0  0  0
 15 20  1  0  0  0  0
 15 21  1  0  0  0  0
 15 22  1  0  0  0  0
 16 23  1  0  0  0  0
 17 24  2  0  0  0  0
 18 25  2  0  0  0  0
 23 26  2  0  0  0  0
 26 27  1  0  0  0  0
 27 28  2  0  0  0  0
 27 29  1  0  0  0  0
 28 30  1  0  0  0  0
 29 31  2  0  0  0  0
 30 32  1  0  0  0  0
 30 33  1  0  0  0  0
 32 34  2  0  0  0  0
 33 35  1  0  0  0  0
 35 36  1  0  0  0  0
 35 37  1  0  0  0  0
  7  9  1  0  0  0  0
 19 25  1  0  0  0  0
 24 26  1  0  0  0  0
 31 32  1  0  0  0  0
 36 37  1  0  0  0  0
M  END
>  <MolRegNo>
1997623

>  <m>
=

>  <Value>
10000

>  <Unit>
nM

>  <Type>
IC50

>  <pValue>
5

>  <Ligand Efficiency>
0.18

>  <Binding Efficiency>
9.99

>  <Surface Efficiency>
6.97

>  <Assay Index>
973177

>  <Assay Category>


>  <Assay Organism>
Homo sapiens

>  <Target ID>
17045

>  <Target Name>
Cytochrome P450 3A4

>  <Target Organism>
Homo sapiens

>  <Target Description>
Target is a single protein chain

>  <Sequence Accession>
P08684

>  <Reference>


>  <Pubmed ID>


>  <DOI>


$$$$
1997625
Actelion Java MolfileCreator 1.0

 32 35  0  0  1  0  0  0  0  0999 V2000
    0.0000   -0.0000   -0.0000 O   0  0  0  0  0  0  0  0  0  0  0  0
    1.0590    0.6330   -0.0000 C   0  0  0  0  0  0  0  0  0  0  0  0
    2.3858   -0.1217   -0.0000 O   0  0  0  0  0  0  0  0  0  0  0  0
    1.0468    2.1910   -0.0000 N   0  0  0  0  0  0  0  0  0  0  0  0
    3.7126    0.6573   -0.0000 C   0  0  0  0  0  0  0  0  0  0  0  0
   -0.3043    2.9822   -0.0000 C   0  0  0  0  0  0  0  0  0  0  0  0
    2.3736    2.9701   -0.0000 C   0  0  0  0  0  0  0  0  0  0  0  0
    3.6639   -0.8521   -0.0000 C   0  0  0  0  0  0  0  0  0  0  0  0
    3.7004    2.2154   -0.0000 C   0  0  0  0  0  0  0  0  0  0  0  0
    5.0028    1.4607   -0.0000 C   0  0  0  0  0  0  0  0  0  0  0  0
   -1.6554    2.2275   -0.0000 C   0  0  0  0  0  0  0  0  0  0  0  0
   -0.3165    4.2360   -0.0000 C   0  0  0  0  0  0  0  0  0  0  0  0
    4.9663   -1.6433   -0.0000 C   0  0  0  0  0  0  0  0  0  0  0  0
    2.3006   -1.5824   -0.0000 C   0  0  0  0  0  0  0  0  0  0  0  0
    4.9907    3.0187   -0.0000 O   0  0  0  0  0  0  0  0  0  0  0  0
   -3.0066    3.0066   -0.0000 C   0  0  0  0  0  0  0  0  0  0  0  0
   -1.6676    0.6938   -0.0000 C   0  0  0  0  0  0  0  0  0  0  0  0
    4.9176   -3.1770   -0.0000 C   0  0  0  0  0  0  0  0  0  0  0  0
    2.2519   -3.1161   -0.0000 C   0  0  0  0  0  0  0  0  0  0  0  0
    6.0497    3.6517   -0.0000 C   0  0  0  0  0  0  0  0  0  0  0  0
   -4.3577    2.2519   -0.0000 C   0  0  0  0  0  0  0  0  0  0  0  0
   -3.0187   -0.0609   -0.0000 C   0  0  0  0  0  0  0  0  0  0  0  0
    3.5543   -3.9073   -0.0000 C   0  0  0  0  0  0  0  0  0  0  0  0
   -4.3699    0.7182   -0.0000 C   0  0  0  0  0  0  0  0  0  0  0  0
   -5.7210   -0.0365   -0.0000 C   0  0  0  0  0  0  0  0  0  0  0  0
   -7.0721    0.7425   -0.0000 C   0  0  0  0  0  0  0  0  0  0  0  0
   -5.7332   -1.5702   -0.0000 C   0  0  0  0  0  0  0  0  0  0  0  0
   -8.4233   -0.0243   -0.0000 C   0  0  0  0  0  0  0  0  0  0  0  0
   -7.0843   -2.3371   -0.0000 C   0  0  0  0  0  0  0  0  0  0  0  0
   -9.5066    0.6086   -0.0000 O   0  0  0  0  0  0  0  0  0  0  0  0
   -8.4354   -1.5581   -0.0000 N   0  0  0  0  0  0  0  0  0  0  0  0
   -9.5188   -2.1667   -0.0000 C   0  0  0  0  0  0  0  0  0  0  0  0
  1  2  2  0  0  0  0
  2  3  1  0  0  0  0
  2  4  1  0  0  0  0
  3  5  1  0  0  0  0
  6  4  1  6  0  0  0
  4  7  1  0  0  0  0
  5  8  1  0  0  0  0
  5  9  1  6  0  0  0
  5 10  1  0  0  0  0
  6 11  1  0  0  0  0
  6 12  1  0  0  0  0
  8 13  2  0  0  0  0
  8 14  1  0  0  0  0
 10 15  1  0  0  0  0
 11 16  2  0  0  0  0
 11 17  1  0  0  0  0
 13 18  1  0  0  0  0
 14 19  2  0  0  0  0
 15 20  1  0  0  0  0
 16 21  1  0  0  0  0
 17 22  2  0  0  0  0
 18 23  2  0  0  0  0
 21 24  2  0  0  0  0
 24 25  1  0  0  0  0
 25 26  2  0  0  0  0
 25 27  1  0  0  0  0
 26 28  1  0  0  0  0
 27 29  2  0  0  0  0
 28 30  2  0  0  0  0
 28 31  1  0  0  0  0
 31 32  1  0  0  0  0
  7  9  1  0  0  0  0
 19 23  1  0  0  0  0
 22 24  1  0  0  0  0
 29 31  1  0  0  0  0
M  END
>  <MolRegNo>
1997625

>  <m>
=

>  <Value>
47000

>  <Unit>
nM

>  <Type>
IC50

>  <pValue>
4.33

>  <Ligand Efficiency>
0.18

>  <Binding Efficiency>
10.01

>  <Surface Efficiency>
7.12

>  <Assay Index>
973177

>  <Assay Category>


>  <Assay Organism>
Homo sapiens

>  <Target ID>
17045

>  <Target Name>
Cytochrome P450 3A4

>  <Target Organism>
Homo sapiens

>  <Target Description>
Target is a single protein chain

>  <Sequence Accession>
P08684

>  <Reference>


>  <Pubmed ID>


>  <DOI>


$$$$
299574
Actelion Java MolfileCreator 1.0

 11 12  0  0  0  0  0  0  0  0999 V2000
    0.0000   -0.0000   -0.0000 N   0  0  0  0  0  0  0  0  0  0  0  0
   -1.3138   -0.7457   -0.0000 C   0  0  0  0  0  0  0  0  0  0  0  0
    1.2901   -0.7457   -0.0000 C   0  0  0  0  0  0  0  0  0  0  0  0
   -1.3256   -2.2370   -0.0000 C   0  0  0  0  0  0  0  0  0  0  0  0
    1.2783   -2.2370   -0.0000 C   0  0  0  0  0  0  0  0  0  0  0  0
   -2.6394   -2.9826   -0.0000 N   0  0  0  0  0  0  0  0  0  0  0  0
   -0.0355   -2.9826   -0.0000 C   0  0  0  0  0  0  0  0  0  0  0  0
   -2.7814   -4.4503   -0.0000 C   0  0  0  0  0  0  0  0  0  0  0  0
   -4.0124   -2.3553   -0.0000 C   0  0  0  0  0  0  0  0  0  0  0  0
   -4.2609   -4.7580   -0.0000 N   0  0  0  0  0  0  0  0  0  0  0  0
   -5.0302   -3.4679   -0.0000 C   0  0  0  0  0  0  0  0  0  0  0  0
  1  2  2  0  0  0  0
  1  3  1  0  0  0  0
  2  4  1  0  0  0  0
  3  5  2  0  0  0  0
  4  6  1  0  0  0  0
  4  7  2  0  0  0  0
  6  8  1  0  0  0  0
  6  9  1  0  0  0  0
  8 10  2  0  0  0  0
  9 11  2  0  0  0  0
  5  7  1  0  0  0  0
 10 11  1  0  0  0  0
M  END
>  <MolRegNo>
299574

>  <m>
=

>  <Value>
109000

>  <Unit>
nM

>  <Type>
IC50

>  <pValue>
0

>  <Ligand Efficiency>
0

>  <Binding Efficiency>
0

>  <Surface Efficiency>
0

>  <Assay Index>
973262

>  <Assay Category>


>  <Assay Organism>
Homo sapiens

>  <Target ID>
17045

>  <Target Name>
Cytochrome P450 3A4

>  <Target Organism>
Homo sapiens

>  <Target Description>
Target is a single protein chain

>  <Sequence Accession>
P08684

>  <Reference>


>  <Pubmed ID>


>  <DOI>


$$$$
1973487
Actelion Java MolfileCreator 1.0

 14 15  0  0  0  0  0  0  0  0999 V2000
    0.0000   -0.0000   -0.0000 S   0  0  0  0  0  0  0  0  0  0  0  0
   -0.1436    1.5074   -0.0000 C   0  0  0  0  0  0  0  0  0  0  0  0
    1.4715   -0.3110   -0.0000 C   0  0  0  0  0  0  0  0  0  0  0  0
   -1.4715    2.2850   -0.0000 C   0  0  0  0  0  0  0  0  0  0  0  0
    1.2202    2.1414   -0.0000 C   0  0  0  0  0  0  0  0  0  0  0  0
    2.2251    1.0169   -0.0000 C   0  0  0  0  0  0  0  0  0  0  0  0
    2.0696   -1.6868   -0.0000 C   0  0  0  0  0  0  0  0  0  0  0  0
   -2.7994    1.5313   -0.0000 C   0  0  0  0  0  0  0  0  0  0  0  0
   -1.4834    3.8162   -0.0000 C   0  0  0  0  0  0  0  0  0  0  0  0
    1.1604   -2.9070   -0.0000 N   0  0  0  0  0  0  0  0  0  0  0  0
   -4.1273    2.2969   -0.0000 N   0  0  0  0  0  0  0  0  0  0  0  0
   -2.8113    4.5819   -0.0000 C   0  0  0  0  0  0  0  0  0  0  0  0
    1.6389   -4.0076   -0.0000 O   0  0  0  0  0  0  0  0  0  0  0  0
   -4.1392    3.8282   -0.0000 C   0  0  0  0  0  0  0  0  0  0  0  0
  1  2  1  0  0  0  0
  1  3  1  0  0  0  0
  2  4  1  0  0  0  0
  2  5  2  0  0  0  0
  3  6  2  0  0  0  0
  3  7  1  0  0  0  0
  4  8  2  0  0  0  0
  4  9  1  0  0  0  0
  7 10  1  0  0  0  0
  8 11  1  0  0  0  0
  9 12  2  0  0  0  0
 10 13  2  0  0  0  0
 11 14  2  0  0  0  0
  5  6  1  0  0  0  0
 12 14  1  0  0  0  0
M  END
>  <MolRegNo>
1973487

>  <m>
=

>  <Value>
12980

>  <Unit>
nM

>  <Type>
IC50

>  <pValue>
4.89

>  <Ligand Efficiency>
0.48

>  <Binding Efficiency>
23.93

>  <Surface Efficiency>
11.55

>  <Assay Index>
973262

>  <Assay Category>


>  <Assay Organism>
Homo sapiens

>  <Target ID>
17045

>  <Target Name>
Cytochrome P450 3A4

>  <Target Organism>
Homo sapiens

>  <Target Description>
Target is a single protein chain

>  <Sequence Accession>
P08684

>  <Reference>


>  <Pubmed ID>


>  <DOI>


$$$$
1973463
Actelion Java MolfileCreator 1.0

 12 13  0  0  0  0  0  0  0  0999 V2000
    0.0000   -0.0000   -0.0000 S   0  0  0  0  0  0  0  0  0  0  0  0
    1.4731   -0.3114   -0.0000 C   0  0  0  0  0  0  0  0  0  0  0  0
   -0.1437    1.5090   -0.0000 C   0  0  0  0  0  0  0  0  0  0  0  0
    1.9522   -1.4132   -0.0000 N   0  0  0  0  0  0  0  0  0  0  0  0
    2.2276    1.0180   -0.0000 C   0  0  0  0  0  0  0  0  0  0  0  0
   -1.4731    2.2875   -0.0000 C   0  0  0  0  0  0  0  0  0  0  0  0
    1.2216    2.1438   -0.0000 C   0  0  0  0  0  0  0  0  0  0  0  0
   -2.8025    1.5330   -0.0000 C   0  0  0  0  0  0  0  0  0  0  0  0
   -1.4851    3.8205   -0.0000 C   0  0  0  0  0  0  0  0  0  0  0  0
   -4.1319    2.2995   -0.0000 N   0  0  0  0  0  0  0  0  0  0  0  0
   -2.8145    4.5870   -0.0000 C   0  0  0  0  0  0  0  0  0  0  0  0
   -4.1439    3.8325   -0.0000 C   0  0  0  0  0  0  0  0  0  0  0  0
  1  2  1  0  0  0  0
  1  3  1  0  0  0  0
  2  4  1  0  0  0  0
  2  5  2  0  0  0  0
  3  6  1  0  0  0  0
  3  7  2  0  0  0  0
  6  8  2  0  0  0  0
  6  9  1  0  0  0  0
  8 10  1  0  0  0  0
  9 11  2  0  0  0  0
 10 12  2  0  0  0  0
  5  7  1  0  0  0  0
 11 12  1  0  0  0  0
M  END
>  <MolRegNo>
1973463

>  <m>
=

>  <Value>
1590

>  <Unit>
nM

>  <Type>
IC50

>  <pValue>
5.8

>  <Ligand Efficiency>
0.66

>  <Binding Efficiency>
32.9

>  <Surface Efficiency>
14.9

>  <Assay Index>
973262

>  <Assay Category>


>  <Assay Organism>
Homo sapiens

>  <Target ID>
17045

>  <Target Name>
Cytochrome P450 3A4

>  <Target Organism>
Homo sapiens

>  <Target Description>
Target is a single protein chain

>  <Sequence Accession>
P08684

>  <Reference>


>  <Pubmed ID>


>  <DOI>


$$$$
1973465
Actelion Java MolfileCreator 1.0

 13 14  0  0  0  0  0  0  0  0999 V2000
    0.0000   -0.0000   -0.0000 O   0  0  0  0  0  0  0  0  0  0  0  0
   -0.1436    1.5080   -0.0000 C   0  0  0  0  0  0  0  0  0  0  0  0
    1.4721   -0.3112   -0.0000 C   0  0  0  0  0  0  0  0  0  0  0  0
   -1.4721    2.2859   -0.0000 C   0  0  0  0  0  0  0  0  0  0  0  0
    1.2207    2.1423   -0.0000 C   0  0  0  0  0  0  0  0  0  0  0  0
    2.2261    1.0173   -0.0000 C   0  0  0  0  0  0  0  0  0  0  0  0
    2.0705   -1.6875   -0.0000 C   0  0  0  0  0  0  0  0  0  0  0  0
   -2.8005    1.5319   -0.0000 C   0  0  0  0  0  0  0  0  0  0  0  0
   -1.4840    3.8178   -0.0000 C   0  0  0  0  0  0  0  0  0  0  0  0
    1.3404   -2.6569   -0.0000 N   0  0  0  0  0  0  0  0  0  0  0  0
   -4.1290    2.2979   -0.0000 N   0  0  0  0  0  0  0  0  0  0  0  0
   -2.8125    4.5838   -0.0000 C   0  0  0  0  0  0  0  0  0  0  0  0
   -4.1410    3.8298   -0.0000 C   0  0  0  0  0  0  0  0  0  0  0  0
  1  2  1  0  0  0  0
  1  3  1  0  0  0  0
  2  4  1  0  0  0  0
  2  5  1  0  0  0  0
  3  6  1  0  0  0  0
  3  7  1  0  0  0  0
  4  8  2  0  0  0  0
  4  9  1  0  0  0  0
  7 10  1  0  0  0  0
  8 11  1  0  0  0  0
  9 12  2  0  0  0  0
 11 13  2  0  0  0  0
  5  6  1  0  0  0  0
 12 13  1  0  0  0  0
M  END
>  <MolRegNo>
1973465

>  <m>
=

>  <Value>
64710

>  <Unit>
nM

>  <Type>
IC50

>  <pValue>
4.19

>  <Ligand Efficiency>
0.44

>  <Binding Efficiency>
23.5

>  <Surface Efficiency>
8.7

>  <Assay Index>
973262

>  <Assay Category>


>  <Assay Organism>
Homo sapiens

>  <Target ID>
17045

>  <Target Name>
Cytochrome P450 3A4

>  <Target Organism>
Homo sapiens

>  <Target Description>
Target is a single protein chain

>  <Sequence Accession>
P08684

>  <Reference>


>  <Pubmed ID>


>  <DOI>


$$$$
299498
Actelion Java MolfileCreator 1.0

 13 14  0  0  0  0  0  0  0  0999 V2000
    0.0000   -0.0000   -0.0000 N   0  0  0  0  0  0  0  0  0  0  0  0
   -0.0120    1.5307   -0.0000 C   0  0  0  0  0  0  0  0  0  0  0  0
    1.3034   -0.7414   -0.0000 C   0  0  0  0  0  0  0  0  0  0  0  0
   -1.3393    2.3079   -0.0000 C   0  0  0  0  0  0  0  0  0  0  0  0
    1.2915    2.2960   -0.0000 C   0  0  0  0  0  0  0  0  0  0  0  0
    2.6069    0.0239   -0.0000 C   0  0  0  0  0  0  0  0  0  0  0  0
   -2.6667    1.5546   -0.0000 C   0  0  0  0  0  0  0  0  0  0  0  0
   -1.3513    3.8386   -0.0000 C   0  0  0  0  0  0  0  0  0  0  0  0
    2.5949    1.5546   -0.0000 C   0  0  0  0  0  0  0  0  0  0  0  0
    3.6473   -0.5740   -0.0000 C   0  0  0  0  0  0  0  0  0  0  0  0
   -3.9940    2.3199   -0.0000 N   0  0  0  0  0  0  0  0  0  0  0  0
   -2.6786    4.6039   -0.0000 C   0  0  0  0  0  0  0  0  0  0  0  0
   -4.0060    3.8506   -0.0000 C   0  0  0  0  0  0  0  0  0  0  0  0
  1  2  2  0  0  0  0
  1  3  1  0  0  0  0
  2  4  1  0  0  0  0
  2  5  1  0  0  0  0
  3  6  2  0  0  0  0
  4  7  2  0  0  0  0
  4  8  1  0  0  0  0
  5  9  2  0  0  0  0
  6 10  1  0  0  0  0
  7 11  1  0  0  0  0
  8 12  2  0  0  0  0
 11 13  2  0  0  0  0
  6  9  1  0  0  0  0
 12 13  1  0  0  0  0
M  END
>  <MolRegNo>
299498

>  <m>
=

>  <Value>
84230

>  <Unit>
nM

>  <Type>
IC50

>  <pValue>
4.08

>  <Ligand Efficiency>
0.43

>  <Binding Efficiency>
23.94

>  <Surface Efficiency>
15.81

>  <Assay Index>
973262

>  <Assay Category>


>  <Assay Organism>
Homo sapiens

>  <Target ID>
17045

>  <Target Name>
Cytochrome P450 3A4

>  <Target Organism>
Homo sapiens

>  <Target Description>
Target is a single protein chain

>  <Sequence Accession>
P08684

>  <Reference>


>  <Pubmed ID>


>  <DOI>


$$$$
27418
Actelion Java MolfileCreator 1.0

 12 13  0  0  0  0  0  0  0  0999 V2000
    0.0000   -0.0000   -0.0000 N   0  0  0  0  0  0  0  0  0  0  0  0
    1.3142   -0.7596   -0.0000 C   0  0  0  0  0  0  0  0  0  0  0  0
   -0.0121    1.5433   -0.0000 C   0  0  0  0  0  0  0  0  0  0  0  0
    2.6285    0.0121   -0.0000 C   0  0  0  0  0  0  0  0  0  0  0  0
    1.3022    2.3150   -0.0000 C   0  0  0  0  0  0  0  0  0  0  0  0
    2.6164    1.5554   -0.0000 C   0  0  0  0  0  0  0  0  0  0  0  0
    3.9427   -0.7475   -0.0000 C   0  0  0  0  0  0  0  0  0  0  0  0
    5.3172   -0.1085   -0.0000 N   0  0  0  0  0  0  0  0  0  0  0  0
    4.0633   -2.2426   -0.0000 C   0  0  0  0  0  0  0  0  0  0  0  0
    6.3300   -1.2419   -0.0000 C   0  0  0  0  0  0  0  0  0  0  0  0
    5.5584    1.0972   -0.0000 C   0  0  0  0  0  0  0  0  0  0  0  0
    5.5463   -2.5561   -0.0000 C   0  0  0  0  0  0  0  0  0  0  0  0
  1  2  2  0  0  0  0
  1  3  1  0  0  0  0
  2  4  1  0  0  0  0
  3  5  2  0  0  0  0
  4  6  2  0  0  0  0
  4  7  1  0  0  0  0
  7  8  1  0  0  0  0
  7  9  1  0  0  0  0
  8 10  1  0  0  0  0
  8 11  1  0  0  0  0
  9 12  1  0  0  0  0
  5  6  1  0  0  0  0
 10 12  1  0  0  0  0
M  END
>  <MolRegNo>
27418

>  <m>
=

>  <Value>
142400

>  <Unit>
nM

>  <Type>
IC50

>  <pValue>
0

>  <Ligand Efficiency>
0

>  <Binding Efficiency>
0

>  <Surface Efficiency>
0

>  <Assay Index>
973262

>  <Assay Category>


>  <Assay Organism>
Homo sapiens

>  <Target ID>
17045

>  <Target Name>
Cytochrome P450 3A4

>  <Target Organism>
Homo sapiens

>  <Target Description>
Target is a single protein chain

>  <Sequence Accession>
P08684

>  <Reference>


>  <Pubmed ID>


>  <DOI>


$$$$
1290393
Actelion Java MolfileCreator 1.0

 32 36  0  0  0  0  0  0  0  0999 V2000
    0.0000   -0.0000   -0.0000 S   0  0  0  0  0  0  0  0  0  0  0  0
   -1.1369    1.0292   -0.0000 C   0  0  0  0  0  0  0  0  0  0  0  0
   -0.6343   -1.3763   -0.0000 C   0  0  0  0  0  0  0  0  0  0  0  0
   -1.1489    2.5610   -0.0000 C   0  0  0  0  0  0  0  0  0  0  0  0
   -2.4653    0.2753   -0.0000 C   0  0  0  0  0  0  0  0  0  0  0  0
   -2.1541   -1.2087   -0.0000 C   0  0  0  0  0  0  0  0  0  0  0  0
    0.1556    3.3389   -0.0000 C   0  0  0  0  0  0  0  0  0  0  0  0
   -2.4773    3.3269   -0.0000 C   0  0  0  0  0  0  0  0  0  0  0  0
   -3.7937    1.0412   -0.0000 C   0  0  0  0  0  0  0  0  0  0  0  0
   -3.1833   -2.3217   -0.0000 C   0  0  0  0  0  0  0  0  0  0  0  0
    1.5199    2.7286   -0.0000 C   0  0  0  0  0  0  0  0  0  0  0  0
    0.2753    4.8468   -0.0000 C   0  0  0  0  0  0  0  0  0  0  0  0
   -3.8056    2.5730   -0.0000 N   0  0  0  0  0  0  0  0  0  0  0  0
   -4.8588    0.4428   -0.0000 N   0  0  0  0  0  0  0  0  0  0  0  0
   -2.8363   -3.7817   -0.0000 C   0  0  0  0  0  0  0  0  0  0  0  0
   -4.6553   -1.8789   -0.0000 C   0  0  0  0  0  0  0  0  0  0  0  0
    2.5251    3.8774   -0.0000 N   0  0  0  0  0  0  0  0  0  0  0  0
    1.7472    5.1819   -0.0000 N   0  0  0  0  0  0  0  0  0  0  0  0
   -3.9492   -4.8229   -0.0000 C   0  0  0  0  0  0  0  0  0  0  0  0
   -5.7683   -2.9200   -0.0000 C   0  0  0  0  0  0  0  0  0  0  0  0
   -5.4212   -4.3801   -0.0000 C   0  0  0  0  0  0  0  0  0  0  0  0
   -6.5342   -5.4212   -0.0000 N   0  0  0  0  0  0  0  0  0  0  0  0
   -8.0062   -4.9784   -0.0000 C   0  0  0  0  0  0  0  0  0  0  0  0
   -8.3054   -3.7817   -0.0000 O   0  0  0  0  0  0  0  0  0  0  0  0
   -9.1192   -6.0196   -0.0000 N   0  0  0  0  0  0  0  0  0  0  0  0
  -10.5911   -5.5768   -0.0000 C   0  0  0  0  0  0  0  0  0  0  0  0
  -10.9621   -4.0809   -0.0000 C   0  0  0  0  0  0  0  0  0  0  0  0
  -11.7041   -6.6060   -0.0000 C   0  0  0  0  0  0  0  0  0  0  0  0
  -12.4341   -3.6381   -0.0000 C   0  0  0  0  0  0  0  0  0  0  0  0
  -13.1761   -6.1632   -0.0000 C   0  0  0  0  0  0  0  0  0  0  0  0
  -13.5471   -4.6673   -0.0000 C   0  0  0  0  0  0  0  0  0  0  0  0
  -12.7333   -2.4413   -0.0000 C   0  0  0  0  0  0  0  0  0  0  0  0
  1  2  1  0  0  0  0
  1  3  1  0  0  0  0
  2  4  2  0  0  0  0
  2  5  1  0  0  0  0
  3  6  2  0  0  0  0
  4  7  1  0  0  0  0
  4  8  1  0  0  0  0
  5  9  2  0  0  0  0
  6 10  1  0  0  0  0
  7 11  1  0  0  0  0
  7 12  2  0  0  0  0
  8 13  2  0  0  0  0
  9 14  1  0  0  0  0
 10 15  2  0  0  0  0
 10 16  1  0  0  0  0
 11 17  2  0  0  0  0
 12 18  1  0  0  0  0
 15 19  1  0  0  0  0
 16 20  2  0  0  0  0
 19 21  2  0  0  0  0
 21 22  1  0  0  0  0
 22 23  1  0  0  0  0
 23 24  2  0  0  0  0
 23 25  1  0  0  0  0
 25 26  1  0  0  0  0
 26 27  2  0  0  0  0
 26 28  1  0  0  0  0
 27 29  1  0  0  0  0
 28 30  2  0  0  0  0
 29 31  2  0  0  0  0
 29 32  1  0  0  0  0
  5  6  1  0  0  0  0
  9 13  1  0  0  0  0
 17 18  1  0  0  0  0
 20 21  1  0  0  0  0
 30 31  1  0  0  0  0
M  END
>  <MolRegNo>
1290393

>  <m>
=

>  <Value>
300

>  <Unit>
nM

>  <Type>
IC50

>  <pValue>
6.52

>  <Ligand Efficiency>
0.28

>  <Binding Efficiency>
14.81

>  <Surface Efficiency>
6

>  <Assay Index>
973362

>  <Assay Category>


>  <Assay Organism>
Homo sapiens

>  <Target ID>
17045

>  <Target Name>
Cytochrome P450 3A4

>  <Target Organism>
Homo sapiens

>  <Target Description>
Target is a single protein chain

>  <Sequence Accession>
P08684

>  <Reference>


>  <Pubmed ID>


>  <DOI>


$$$$
2032608
Actelion Java MolfileCreator 1.0

 59 66  0  0  1  0  0  0  0  0999 V2000
    0.0000   -0.0000   -0.0000 O   0  0  0  0  0  0  0  0  0  0  0  0
   -0.0121    1.2415   -0.0000 C   0  0  0  0  0  0  0  0  0  0  0  0
    1.3018    2.0130   -0.0000 N   0  0  0  0  0  0  0  0  0  0  0  0
   -1.3500    2.0130   -0.0000 C   0  0  0  0  0  0  0  0  0  0  0  0
    1.2898    3.5559   -0.0000 C   0  0  0  0  0  0  0  0  0  0  0  0
    2.6157    1.2656   -0.0000 C   0  0  0  0  0  0  0  0  0  0  0  0
   -1.3621    3.5559   -0.0000 N   0  0  0  0  0  0  0  0  0  0  0  0
   -2.6880    1.2656   -0.0000 C   0  0  0  0  0  0  0  0  0  0  0  0
   -0.0482    4.3273   -0.0000 C   0  0  0  0  0  0  0  0  0  0  0  0
    3.9295    2.0491   -0.0000 C   0  0  0  0  0  0  0  0  0  0  0  0
   -2.7001    4.3273   -0.0000 C   0  0  0  0  0  0  0  0  0  0  0  0
   -4.0260    2.0491   -0.0000 C   0  0  0  0  0  0  0  0  0  0  0  0
   -0.0603    5.8702   -0.0000 N   0  0  0  0  0  0  0  0  0  0  0  0
    5.2434    1.3018   -0.0000 C   0  0  0  0  0  0  0  0  0  0  0  0
    3.9175    3.5920   -0.0000 C   0  0  0  0  0  0  0  0  0  0  0  0
   -3.7728    3.7246   -0.0000 O   0  0  0  0  0  0  0  0  0  0  0  0
   -2.7121    5.8702   -0.0000 C   0  0  0  0  0  0  0  0  0  0  0  0
   -5.3639    1.3018   -0.0000 C   0  0  0  0  0  0  0  0  0  0  0  0
   -4.0380    3.5920   -0.0000 C   0  0  0  0  0  0  0  0  0  0  0  0
   -1.3982    6.6416   -0.0000 N   0  0  0  0  0  0  0  0  0  0  0  0
    1.2536    6.6537   -0.0000 C   0  0  0  0  0  0  0  0  0  0  0  0
    5.5568   -0.1808   -0.0000 N   0  0  0  0  0  0  0  0  0  0  0  0
    6.5573    2.0853   -0.0000 C   0  0  0  0  0  0  0  0  0  0  0  0
    5.2313    4.3755   -0.0000 C   0  0  0  0  0  0  0  0  0  0  0  0
   -6.7019    2.0853   -0.0000 C   0  0  0  0  0  0  0  0  0  0  0  0
   -5.3760    4.3755   -0.0000 C   0  0  0  0  0  0  0  0  0  0  0  0
   -1.4103    8.1845   -0.0000 C   0  0  0  0  0  0  0  0  0  0  0  0
    2.3023    6.0510   -0.0000 O   0  0  0  0  0  0  0  0  0  0  0  0
    1.2415    8.1966   -0.0000 N   0  0  0  0  0  0  0  0  0  0  0  0
    7.0635   -0.3255   -0.0000 C   0  0  0  0  0  0  0  0  0  0  0  0
    4.7251   -1.0848   -0.0000 C   0  0  0  0  0  0  0  0  0  0  0  0
    7.6903    1.0728   -0.0000 C   0  0  0  0  0  0  0  0  0  0  0  0
    6.5452    3.6282   -0.0000 C   0  0  0  0  0  0  0  0  0  0  0  0
   -6.7140    3.6282   -0.0000 C   0  0  0  0  0  0  0  0  0  0  0  0
   -2.7483    8.9560   -0.0000 C   0  0  0  0  0  0  0  0  0  0  0  0
    2.5554    8.9801   -0.0000 C   0  0  0  0  0  0  0  0  0  0  0  0
    9.1729    1.4103   -0.0000 C   0  0  0  0  0  0  0  0  0  0  0  0
   -7.7868    4.2550   -0.0000 O   0  0  0  0  0  0  0  0  0  0  0  0
   -2.7603   10.1975   -0.0000 C   0  0  0  0  0  0  0  0  0  0  0  0
    2.5434   10.5230   -0.0000 C   0  0  0  0  0  0  0  0  0  0  0  0
    9.5346    2.5916   -0.0000 O   0  0  0  0  0  0  0  0  0  0  0  0
   10.1855    0.2893   -0.0000 N   0  0  0  0  0  0  0  0  0  0  0  0
    3.8572   11.3065   -0.0000 C   0  0  0  0  0  0  0  0  0  0  0  0
    1.2054   11.2944   -0.0000 C   0  0  0  0  0  0  0  0  0  0  0  0
   11.6681    0.6268   -0.0000 C   0  0  0  0  0  0  0  0  0  0  0  0
    3.8452   12.8493   -0.0000 C   0  0  0  0  0  0  0  0  0  0  0  0
    1.1933   12.8373   -0.0000 C   0  0  0  0  0  0  0  0  0  0  0  0
   12.1261    2.0974   -0.0000 C   0  0  0  0  0  0  0  0  0  0  0  0
   12.6806   -0.4942   -0.0000 C   0  0  0  0  0  0  0  0  0  0  0  0
    2.5072   13.6208   -0.0000 C   0  0  0  0  0  0  0  0  0  0  0  0
   13.6087    2.4349   -0.0000 N   0  0  0  0  0  0  0  0  0  0  0  0
   14.1632   -0.1567   -0.0000 C   0  0  0  0  0  0  0  0  0  0  0  0
   14.6213    1.3139   -0.0000 C   0  0  0  0  0  0  0  0  0  0  0  0
   16.1039    1.6514   -0.0000 N   0  0  0  0  0  0  0  0  0  0  0  0
   17.1164    0.5304   -0.0000 C   0  0  0  0  0  0  0  0  0  0  0  0
   16.5619    3.1219   -0.0000 C   0  0  0  0  0  0  0  0  0  0  0  0
   18.5990    0.8679   -0.0000 C   0  0  0  0  0  0  0  0  0  0  0  0
   18.0445    3.4594   -0.0000 C   0  0  0  0  0  0  0  0  0  0  0  0
   19.0571    2.3384   -0.0000 C   0  0  0  0  0  0  0  0  0  0  0  0
  1  2  2  0  0  0  0
  2  3  1  0  0  0  0
  2  4  1  0  0  0  0
  3  5  1  0  0  0  0
  3  6  1  0  0  0  0
  4  7  1  0  0  0  0
  4  8  1  6  0  0  0
  5  9  1  0  0  0  0
  6 10  1  0  0  0  0
  7 11  1  0  0  0  0
  8 12  1  0  0  0  0
  9 13  1  1  0  0  0
 10 14  2  0  0  0  0
 10 15  1  0  0  0  0
 11 16  2  0  0  0  0
 11 17  1  0  0  0  0
 12 18  2  0  0  0  0
 12 19  1  0  0  0  0
 13 20  1  0  0  0  0
 13 21  1  0  0  0  0
 14 22  1  0  0  0  0
 14 23  1  0  0  0  0
 15 24  2  0  0  0  0
 18 25  1  0  0  0  0
 19 26  2  0  0  0  0
 20 27  1  0  0  0  0
 21 28  2  0  0  0  0
 21 29  1  0  0  0  0
 22 30  1  0  0  0  0
 22 31  1  0  0  0  0
 23 32  1  0  0  0  0
 23 33  2  0  0  0  0
 25 34  2  0  0  0  0
 27 35  1  0  0  0  0
 29 36  1  0  0  0  0
 32 37  1  0  0  0  0
 34 38  1  0  0  0  0
 35 39  2  0  0  0  0
 36 40  1  0  0  0  0
 37 41  2  0  0  0  0
 37 42  1  0  0  0  0
 40 43  2  0  0  0  0
 40 44  1  0  0  0  0
 42 45  1  0  0  0  0
 43 46  1  0  0  0  0
 44 47  2  0  0  0  0
 45 48  2  0  0  0  0
 45 49  1  0  0  0  0
 46 50  2  0  0  0  0
 48 51  1  0  0  0  0
 49 52  2  0  0  0  0
 51 53  2  0  0  0  0
 53 54  1  0  0  0  0
 54 55  1  0  0  0  0
 54 56  1  0  0  0  0
 55 57  1  0  0  0  0
 56 58  1  0  0  0  0
 57 59  1  0  0  0  0
  7  9  1  0  0  0  0
 17 20  1  0  0  0  0
 24 33  1  0  0  0  0
 26 34  1  0  0  0  0
 30 32  2  0  0  0  0
 47 50  1  0  0  0  0
 52 53  1  0  0  0  0
 58 59  1  0  0  0  0
M  END
>  <MolRegNo>
2032608

>  <m>
=

>  <Value>
14700

>  <Unit>
nM

>  <Type>
IC50

>  <pValue>
4.83

>  <Ligand Efficiency>
0.11

>  <Binding Efficiency>
6.07

>  <Surface Efficiency>
3.3

>  <Assay Index>
974120

>  <Assay Category>


>  <Assay Organism>
Homo sapiens

>  <Target ID>
17045

>  <Target Name>
Cytochrome P450 3A4

>  <Target Organism>
Homo sapiens

>  <Target Description>
Target is a single protein chain

>  <Sequence Accession>
P08684

>  <Reference>


>  <Pubmed ID>


>  <DOI>


$$$$
2032611
Actelion Java MolfileCreator 1.0

 58 65  0  0  1  0  0  0  0  0999 V2000
    0.0000   -0.0000   -0.0000 S   0  0  0  0  0  0  0  0  0  0  0  0
    1.0937   -1.0336   -0.0000 C   0  0  0  0  0  0  0  0  0  0  0  0
   -1.4783   -0.4327   -0.0000 C   0  0  0  0  0  0  0  0  0  0  0  0
    0.7332   -2.5120   -0.0000 C   0  0  0  0  0  0  0  0  0  0  0  0
   -1.8389   -1.9110   -0.0000 C   0  0  0  0  0  0  0  0  0  0  0  0
   -0.7452   -2.9446   -0.0000 N   0  0  0  0  0  0  0  0  0  0  0  0
   -1.1057   -4.4230   -0.0000 C   0  0  0  0  0  0  0  0  0  0  0  0
   -0.2284   -5.2523   -0.0000 O   0  0  0  0  0  0  0  0  0  0  0  0
   -2.5841   -4.8436   -0.0000 C   0  0  0  0  0  0  0  0  0  0  0  0
   -2.9567   -6.3100   -0.0000 C   0  0  0  0  0  0  0  0  0  0  0  0
   -3.7018   -3.7860   -0.0000 C   0  0  0  0  0  0  0  0  0  0  0  0
   -4.4350   -6.7306   -0.0000 C   0  0  0  0  0  0  0  0  0  0  0  0
   -5.1802   -4.2066   -0.0000 C   0  0  0  0  0  0  0  0  0  0  0  0
   -5.5528   -5.6729   -0.0000 C   0  0  0  0  0  0  0  0  0  0  0  0
   -7.0551   -5.9854   -0.0000 C   0  0  0  0  0  0  0  0  0  0  0  0
   -8.2089   -4.9518   -0.0000 C   0  0  0  0  0  0  0  0  0  0  0  0
   -7.6801   -7.3676   -0.0000 C   0  0  0  0  0  0  0  0  0  0  0  0
   -9.5431   -5.7090   -0.0000 C   0  0  0  0  0  0  0  0  0  0  0  0
   -8.2210   -3.4134   -0.0000 C   0  0  0  0  0  0  0  0  0  0  0  0
   -9.2065   -7.1994   -0.0000 N   0  0  0  0  0  0  0  0  0  0  0  0
  -10.8772   -4.9398   -0.0000 C   0  0  0  0  0  0  0  0  0  0  0  0
   -9.5551   -2.6442   -0.0000 C   0  0  0  0  0  0  0  0  0  0  0  0
  -10.0358   -8.1008   -0.0000 C   0  0  0  0  0  0  0  0  0  0  0  0
  -10.8892   -3.4014   -0.0000 C   0  0  0  0  0  0  0  0  0  0  0  0
  -12.2113   -5.6970   -0.0000 C   0  0  0  0  0  0  0  0  0  0  0  0
  -13.5454   -4.9278   -0.0000 N   0  0  0  0  0  0  0  0  0  0  0  0
  -14.8795   -5.6729   -0.0000 C   0  0  0  0  0  0  0  0  0  0  0  0
  -13.5574   -3.3893   -0.0000 C   0  0  0  0  0  0  0  0  0  0  0  0
  -14.8915   -6.8869   -0.0000 O   0  0  0  0  0  0  0  0  0  0  0  0
  -16.2136   -4.9037   -0.0000 C   0  0  0  0  0  0  0  0  0  0  0  0
  -14.8915   -2.6201   -0.0000 C   0  0  0  0  0  0  0  0  0  0  0  0
  -16.2256   -3.3653   -0.0000 N   0  0  0  0  0  0  0  0  0  0  0  0
  -17.5477   -5.6489   -0.0000 C   0  0  0  0  0  0  0  0  0  0  0  0
  -14.9035   -1.0817   -0.0000 N   0  0  0  0  0  0  0  0  0  0  0  0
  -17.5597   -2.5961   -0.0000 C   0  0  0  0  0  0  0  0  0  0  0  0
  -18.8818   -4.8677   -0.0000 C   0  0  0  0  0  0  0  0  0  0  0  0
  -16.2376   -0.3125   -0.0000 N   0  0  0  0  0  0  0  0  0  0  0  0
  -13.5934   -0.3005   -0.0000 C   0  0  0  0  0  0  0  0  0  0  0  0
  -18.6294   -3.1970   -0.0000 O   0  0  0  0  0  0  0  0  0  0  0  0
  -17.5717   -1.0577   -0.0000 C   0  0  0  0  0  0  0  0  0  0  0  0
  -20.2159   -5.6129   -0.0000 C   0  0  0  0  0  0  0  0  0  0  0  0
  -18.8938   -3.3293   -0.0000 C   0  0  0  0  0  0  0  0  0  0  0  0
  -16.2496    1.2259   -0.0000 C   0  0  0  0  0  0  0  0  0  0  0  0
  -12.5478   -0.9014   -0.0000 O   0  0  0  0  0  0  0  0  0  0  0  0
  -13.6055    1.2380   -0.0000 N   0  0  0  0  0  0  0  0  0  0  0  0
  -21.5500   -4.8316   -0.0000 C   0  0  0  0  0  0  0  0  0  0  0  0
  -20.2279   -2.5480   -0.0000 C   0  0  0  0  0  0  0  0  0  0  0  0
  -17.5837    1.9951   -0.0000 C   0  0  0  0  0  0  0  0  0  0  0  0
  -12.2954    2.0192   -0.0000 C   0  0  0  0  0  0  0  0  0  0  0  0
  -21.5620   -3.2932   -0.0000 C   0  0  0  0  0  0  0  0  0  0  0  0
  -17.5958    3.2331   -0.0000 C   0  0  0  0  0  0  0  0  0  0  0  0
  -12.3074    3.5576   -0.0000 C   0  0  0  0  0  0  0  0  0  0  0  0
  -22.6317   -2.6682   -0.0000 O   0  0  0  0  0  0  0  0  0  0  0  0
  -10.9973    4.3388   -0.0000 C   0  0  0  0  0  0  0  0  0  0  0  0
  -13.6415    4.3268   -0.0000 C   0  0  0  0  0  0  0  0  0  0  0  0
  -11.0094    5.8773   -0.0000 C   0  0  0  0  0  0  0  0  0  0  0  0
  -13.6535    5.8653   -0.0000 C   0  0  0  0  0  0  0  0  0  0  0  0
  -12.3435    6.6465   -0.0000 C   0  0  0  0  0  0  0  0  0  0  0  0
  1  2  1  0  0  0  0
  1  3  1  0  0  0  0
  2  4  1  0  0  0  0
  3  5  1  0  0  0  0
  4  6  1  0  0  0  0
  6  7  1  0  0  0  0
  7  8  2  0  0  0  0
  7  9  1  0  0  0  0
  9 10  2  0  0  0  0
  9 11  1  0  0  0  0
 10 12  1  0  0  0  0
 11 13  2  0  0  0  0
 12 14  2  0  0  0  0
 14 15  1  0  0  0  0
 15 16  1  0  0  0  0
 15 17  2  0  0  0  0
 16 18  2  0  0  0  0
 16 19  1  0  0  0  0
 17 20  1  0  0  0  0
 18 21  1  0  0  0  0
 19 22  2  0  0  0  0
 20 23  1  0  0  0  0
 21 24  2  0  0  0  0
 21 25  1  0  0  0  0
 25 26  1  0  0  0  0
 26 27  1  0  0  0  0
 26 28  1  0  0  0  0
 27 29  2  0  0  0  0
 27 30  1  0  0  0  0
 28 31  1  0  0  0  0
 30 32  1  0  0  0  0
 30 33  1  6  0  0  0
 31 34  1  1  0  0  0
 32 35  1  0  0  0  0
 33 36  1  0  0  0  0
 34 37  1  0  0  0  0
 34 38  1  0  0  0  0
 35 39  2  0  0  0  0
 35 40  1  0  0  0  0
 36 41  2  0  0  0  0
 36 42  1  0  0  0  0
 37 43  1  0  0  0  0
 38 44  2  0  0  0  0
 38 45  1  0  0  0  0
 41 46  1  0  0  0  0
 42 47  2  0  0  0  0
 43 48  1  0  0  0  0
 45 49  1  0  0  0  0
 46 50  2  0  0  0  0
 48 51  2  0  0  0  0
 49 52  1  0  0  0  0
 50 53  1  0  0  0  0
 52 54  2  0  0  0  0
 52 55  1  0  0  0  0
 54 56  1  0  0  0  0
 55 57  2  0  0  0  0
 56 58  2  0  0  0  0
  5  6  1  0  0  0  0
 13 14  1  0  0  0  0
 18 20  1  0  0  0  0
 22 24  1  0  0  0  0
 31 32  1  0  0  0  0
 37 40  1  0  0  0  0
 47 50  1  0  0  0  0
 57 58  1  0  0  0  0
M  END
>  <MolRegNo>
2032611

>  <m>
=

>  <Value>
1760

>  <Unit>
nM

>  <Type>
IC50

>  <pValue>
5.75

>  <Ligand Efficiency>
0.14

>  <Binding Efficiency>
7.21

>  <Surface Efficiency>
4.73

>  <Assay Index>
974120

>  <Assay Category>


>  <Assay Organism>
Homo sapiens

>  <Target ID>
17045

>  <Target Name>
Cytochrome P450 3A4

>  <Target Organism>
Homo sapiens

>  <Target Description>
Target is a single protein chain

>  <Sequence Accession>
P08684

>  <Reference>


>  <Pubmed ID>


>  <DOI>


$$$$
2032613
Actelion Java MolfileCreator 1.0

 66 74  0  0  1  0  0  0  0  0999 V2000
    0.0000   -0.0000   -0.0000 O   0  0  0  0  0  0  0  0  0  0  0  0
   -0.0121    1.2425   -0.0000 C   0  0  0  0  0  0  0  0  0  0  0  0
    1.3028    2.0146   -0.0000 N   0  0  0  0  0  0  0  0  0  0  0  0
   -1.3511    2.0146   -0.0000 C   0  0  0  0  0  0  0  0  0  0  0  0
    1.2908    3.5587   -0.0000 C   0  0  0  0  0  0  0  0  0  0  0  0
    2.6177    1.2666   -0.0000 C   0  0  0  0  0  0  0  0  0  0  0  0
   -1.3632    3.5587   -0.0000 N   0  0  0  0  0  0  0  0  0  0  0  0
   -2.6901    1.2666   -0.0000 C   0  0  0  0  0  0  0  0  0  0  0  0
   -0.0483    4.3307   -0.0000 C   0  0  0  0  0  0  0  0  0  0  0  0
    3.9326    2.0508   -0.0000 C   0  0  0  0  0  0  0  0  0  0  0  0
   -2.7022    4.3307   -0.0000 C   0  0  0  0  0  0  0  0  0  0  0  0
   -4.0291    2.0508   -0.0000 C   0  0  0  0  0  0  0  0  0  0  0  0
   -0.0603    5.8748   -0.0000 N   0  0  0  0  0  0  0  0  0  0  0  0
    5.2475    1.3028   -0.0000 C   0  0  0  0  0  0  0  0  0  0  0  0
    3.9206    3.5949   -0.0000 C   0  0  0  0  0  0  0  0  0  0  0  0
   -3.7758    3.7276   -0.0000 O   0  0  0  0  0  0  0  0  0  0  0  0
   -2.7142    5.8748   -0.0000 C   0  0  0  0  0  0  0  0  0  0  0  0
   -5.3682    1.3028   -0.0000 C   0  0  0  0  0  0  0  0  0  0  0  0
   -4.0412    3.5949   -0.0000 C   0  0  0  0  0  0  0  0  0  0  0  0
   -1.3993    6.6469   -0.0000 N   0  0  0  0  0  0  0  0  0  0  0  0
    1.2546    6.6589   -0.0000 C   0  0  0  0  0  0  0  0  0  0  0  0
    5.5612   -0.1809   -0.0000 N   0  0  0  0  0  0  0  0  0  0  0  0
    6.5624    2.0869   -0.0000 C   0  0  0  0  0  0  0  0  0  0  0  0
    5.2355    4.3790   -0.0000 C   0  0  0  0  0  0  0  0  0  0  0  0
   -6.7072    2.0869   -0.0000 C   0  0  0  0  0  0  0  0  0  0  0  0
   -5.3802    4.3790   -0.0000 C   0  0  0  0  0  0  0  0  0  0  0  0
   -1.4114    8.1910   -0.0000 C   0  0  0  0  0  0  0  0  0  0  0  0
    2.3041    6.0558   -0.0000 O   0  0  0  0  0  0  0  0  0  0  0  0
    1.2425    8.2030   -0.0000 N   0  0  0  0  0  0  0  0  0  0  0  0
    7.0691   -0.3257   -0.0000 C   0  0  0  0  0  0  0  0  0  0  0  0
    4.7288   -1.0857   -0.0000 C   0  0  0  0  0  0  0  0  0  0  0  0
    7.6964    1.0736   -0.0000 C   0  0  0  0  0  0  0  0  0  0  0  0
    6.5504    3.6310   -0.0000 C   0  0  0  0  0  0  0  0  0  0  0  0
   -6.7192    3.6310   -0.0000 C   0  0  0  0  0  0  0  0  0  0  0  0
   -2.7504    8.9630   -0.0000 C   0  0  0  0  0  0  0  0  0  0  0  0
    2.5574    8.9871   -0.0000 C   0  0  0  0  0  0  0  0  0  0  0  0
    9.1802    1.4114   -0.0000 C   0  0  0  0  0  0  0  0  0  0  0  0
   -7.7929    4.2583   -0.0000 O   0  0  0  0  0  0  0  0  0  0  0  0
   -2.7625   10.2055   -0.0000 C   0  0  0  0  0  0  0  0  0  0  0  0
    2.5454   10.5312   -0.0000 C   0  0  0  0  0  0  0  0  0  0  0  0
   10.2779    0.3740   -0.0000 C   0  0  0  0  0  0  0  0  0  0  0  0
    9.5179    2.9193   -0.0000 C   0  0  0  0  0  0  0  0  0  0  0  0
    3.8603   11.3154   -0.0000 C   0  0  0  0  0  0  0  0  0  0  0  0
    1.2063   11.3033   -0.0000 C   0  0  0  0  0  0  0  0  0  0  0  0
   11.7376    0.8203   -0.0000 C   0  0  0  0  0  0  0  0  0  0  0  0
   10.9776    3.3657   -0.0000 C   0  0  0  0  0  0  0  0  0  0  0  0
    3.8482   12.8595   -0.0000 C   0  0  0  0  0  0  0  0  0  0  0  0
    1.1943   12.8474   -0.0000 C   0  0  0  0  0  0  0  0  0  0  0  0
   12.0874    2.3162   -0.0000 C   0  0  0  0  0  0  0  0  0  0  0  0
    2.5092   13.6315   -0.0000 C   0  0  0  0  0  0  0  0  0  0  0  0
   13.5471    2.7625   -0.0000 C   0  0  0  0  0  0  0  0  0  0  0  0
   14.4277    1.9301   -0.0000 O   0  0  0  0  0  0  0  0  0  0  0  0
   13.8848    4.2704   -0.0000 N   0  0  0  0  0  0  0  0  0  0  0  0
   15.3445    4.7167   -0.0000 C   0  0  0  0  0  0  0  0  0  0  0  0
   15.6943    6.2126   -0.0000 C   0  0  0  0  0  0  0  0  0  0  0  0
   16.4423    3.6793   -0.0000 C   0  0  0  0  0  0  0  0  0  0  0  0
   17.1540    6.6589   -0.0000 C   0  0  0  0  0  0  0  0  0  0  0  0
   17.9019    4.1256   -0.0000 C   0  0  0  0  0  0  0  0  0  0  0  0
   18.2517    5.6215   -0.0000 C   0  0  0  0  0  0  0  0  0  0  0  0
   19.7114    6.0678   -0.0000 N   0  0  0  0  0  0  0  0  0  0  0  0
   20.0612    7.5637   -0.0000 C   0  0  0  0  0  0  0  0  0  0  0  0
   20.8092    5.0304   -0.0000 C   0  0  0  0  0  0  0  0  0  0  0  0
   21.5209    8.0100   -0.0000 C   0  0  0  0  0  0  0  0  0  0  0  0
   22.2688    5.4767   -0.0000 C   0  0  0  0  0  0  0  0  0  0  0  0
   22.6187    6.9726   -0.0000 N   0  0  0  0  0  0  0  0  0  0  0  0
   23.7767    7.3345   -0.0000 C   0  0  0  0  0  0  0  0  0  0  0  0
  1  2  2  0  0  0  0
  2  3  1  0  0  0  0
  2  4  1  0  0  0  0
  3  5  1  0  0  0  0
  3  6  1  0  0  0  0
  4  7  1  0  0  0  0
  4  8  1  6  0  0  0
  5  9  1  0  0  0  0
  6 10  1  0  0  0  0
  7 11  1  0  0  0  0
  8 12  1  0  0  0  0
  9 13  1  1  0  0  0
 10 14  2  0  0  0  0
 10 15  1  0  0  0  0
 11 16  2  0  0  0  0
 11 17  1  0  0  0  0
 12 18  2  0  0  0  0
 12 19  1  0  0  0  0
 13 20  1  0  0  0  0
 13 21  1  0  0  0  0
 14 22  1  0  0  0  0
 14 23  1  0  0  0  0
 15 24  2  0  0  0  0
 18 25  1  0  0  0  0
 19 26  2  0  0  0  0
 20 27  1  0  0  0  0
 21 28  2  0  0  0  0
 21 29  1  0  0  0  0
 22 30  1  0  0  0  0
 22 31  1  0  0  0  0
 23 32  1  0  0  0  0
 23 33  2  0  0  0  0
 25 34  2  0  0  0  0
 27 35  1  0  0  0  0
 29 36  1  0  0  0  0
 32 37  1  0  0  0  0
 34 38  1  0  0  0  0
 35 39  2  0  0  0  0
 36 40  1  0  0  0  0
 37 41  2  0  0  0  0
 37 42  1  0  0  0  0
 40 43  2  0  0  0  0
 40 44  1  0  0  0  0
 41 45  1  0  0  0  0
 42 46  2  0  0  0  0
 43 47  1  0  0  0  0
 44 48  2  0  0  0  0
 45 49  2  0  0  0  0
 47 50  2  0  0  0  0
 49 51  1  0  0  0  0
 51 52  2  0  0  0  0
 51 53  1  0  0  0  0
 53 54  1  0  0  0  0
 54 55  2  0  0  0  0
 54 56  1  0  0  0  0
 55 57  1  0  0  0  0
 56 58  2  0  0  0  0
 57 59  2  0  0  0  0
 59 60  1  0  0  0  0
 60 61  1  0  0  0  0
 60 62  1  0  0  0  0
 61 63  1  0  0  0  0
 62 64  1  0  0  0  0
 63 65  1  0  0  0  0
 65 66  1  0  0  0  0
  7  9  1  0  0  0  0
 17 20  1  0  0  0  0
 24 33  1  0  0  0  0
 26 34  1  0  0  0  0
 30 32  2  0  0  0  0
 46 49  1  0  0  0  0
 48 50  1  0  0  0  0
 58 59  1  0  0  0  0
 64 65  1  0  0  0  0
M  END
>  <MolRegNo>
2032613

>  <m>
=

>  <Value>
7040

>  <Unit>
nM

>  <Type>
IC50

>  <pValue>
5.15

>  <Ligand Efficiency>
0.11

>  <Binding Efficiency>
5.81

>  <Surface Efficiency>
3.76

>  <Assay Index>
974120

>  <Assay Category>


>  <Assay Organism>
Homo sapiens

>  <Target ID>
17045

>  <Target Name>
Cytochrome P450 3A4

>  <Target Organism>
Homo sapiens

>  <Target Description>
Target is a single protein chain

>  <Sequence Accession>
P08684

>  <Reference>


>  <Pubmed ID>


>  <DOI>


$$$$
2032615
Actelion Java MolfileCreator 1.0

 59 66  0  0  1  0  0  0  0  0999 V2000
    0.0000   -0.0000   -0.0000 O   0  0  0  0  0  0  0  0  0  0  0  0
   -0.0120    1.2398   -0.0000 C   0  0  0  0  0  0  0  0  0  0  0  0
    1.3000    2.0102   -0.0000 N   0  0  0  0  0  0  0  0  0  0  0  0
   -1.3482    2.0102   -0.0000 C   0  0  0  0  0  0  0  0  0  0  0  0
    1.2880    3.5510   -0.0000 C   0  0  0  0  0  0  0  0  0  0  0  0
    2.6121    1.2639   -0.0000 C   0  0  0  0  0  0  0  0  0  0  0  0
   -1.3602    3.5510   -0.0000 N   0  0  0  0  0  0  0  0  0  0  0  0
   -2.6843    1.2639   -0.0000 C   0  0  0  0  0  0  0  0  0  0  0  0
   -0.0481    4.3214   -0.0000 C   0  0  0  0  0  0  0  0  0  0  0  0
    3.9242    2.0464   -0.0000 C   0  0  0  0  0  0  0  0  0  0  0  0
   -2.6964    4.3214   -0.0000 C   0  0  0  0  0  0  0  0  0  0  0  0
   -4.0205    2.0464   -0.0000 C   0  0  0  0  0  0  0  0  0  0  0  0
   -0.0602    5.8622   -0.0000 N   0  0  0  0  0  0  0  0  0  0  0  0
    5.2363    1.3000   -0.0000 C   0  0  0  0  0  0  0  0  0  0  0  0
    3.9121    3.5871   -0.0000 C   0  0  0  0  0  0  0  0  0  0  0  0
   -3.7677    3.7195   -0.0000 O   0  0  0  0  0  0  0  0  0  0  0  0
   -2.7084    5.8622   -0.0000 C   0  0  0  0  0  0  0  0  0  0  0  0
   -5.3566    1.3000   -0.0000 C   0  0  0  0  0  0  0  0  0  0  0  0
   -4.0325    3.5871   -0.0000 C   0  0  0  0  0  0  0  0  0  0  0  0
   -1.3963    6.6326   -0.0000 N   0  0  0  0  0  0  0  0  0  0  0  0
    1.2519    6.6446   -0.0000 C   0  0  0  0  0  0  0  0  0  0  0  0
    5.5492   -0.1806   -0.0000 N   0  0  0  0  0  0  0  0  0  0  0  0
    6.5483    2.0825   -0.0000 C   0  0  0  0  0  0  0  0  0  0  0  0
    5.2242    4.3696   -0.0000 C   0  0  0  0  0  0  0  0  0  0  0  0
   -6.6928    2.0825   -0.0000 C   0  0  0  0  0  0  0  0  0  0  0  0
   -5.3687    4.3696   -0.0000 C   0  0  0  0  0  0  0  0  0  0  0  0
   -1.4084    8.1734   -0.0000 C   0  0  0  0  0  0  0  0  0  0  0  0
    2.2991    6.0428   -0.0000 O   0  0  0  0  0  0  0  0  0  0  0  0
    1.2398    8.1854   -0.0000 N   0  0  0  0  0  0  0  0  0  0  0  0
    7.0539   -0.3250   -0.0000 C   0  0  0  0  0  0  0  0  0  0  0  0
    4.7186   -1.0834   -0.0000 C   0  0  0  0  0  0  0  0  0  0  0  0
    7.6798    1.0713   -0.0000 C   0  0  0  0  0  0  0  0  0  0  0  0
    6.5363    3.6232   -0.0000 C   0  0  0  0  0  0  0  0  0  0  0  0
   -6.7048    3.6232   -0.0000 C   0  0  0  0  0  0  0  0  0  0  0  0
   -2.7445    8.9438   -0.0000 C   0  0  0  0  0  0  0  0  0  0  0  0
    2.5519    8.9678   -0.0000 C   0  0  0  0  0  0  0  0  0  0  0  0
    9.1604    1.4084   -0.0000 C   0  0  0  0  0  0  0  0  0  0  0  0
   -7.7761    4.2492   -0.0000 O   0  0  0  0  0  0  0  0  0  0  0  0
   -2.7566   10.1836   -0.0000 C   0  0  0  0  0  0  0  0  0  0  0  0
    2.5399   10.5086   -0.0000 C   0  0  0  0  0  0  0  0  0  0  0  0
    9.4975    2.9130   -0.0000 C   0  0  0  0  0  0  0  0  0  0  0  0
   10.2558    0.3732   -0.0000 C   0  0  0  0  0  0  0  0  0  0  0  0
    3.8520   11.2910   -0.0000 C   0  0  0  0  0  0  0  0  0  0  0  0
    1.2037   11.2790   -0.0000 C   0  0  0  0  0  0  0  0  0  0  0  0
   10.9540    3.3584   -0.0000 C   0  0  0  0  0  0  0  0  0  0  0  0
   11.7124    0.8185   -0.0000 C   0  0  0  0  0  0  0  0  0  0  0  0
    3.8399   12.8318   -0.0000 C   0  0  0  0  0  0  0  0  0  0  0  0
    1.1917   12.8198   -0.0000 C   0  0  0  0  0  0  0  0  0  0  0  0
   11.2910    4.8631   -0.0000 C   0  0  0  0  0  0  0  0  0  0  0  0
   12.0494    2.3232   -0.0000 C   0  0  0  0  0  0  0  0  0  0  0  0
    2.5038   13.6022   -0.0000 C   0  0  0  0  0  0  0  0  0  0  0  0
   12.4466    5.2242   -0.0000 O   0  0  0  0  0  0  0  0  0  0  0  0
   10.1716    5.9224   -0.0000 N   0  0  0  0  0  0  0  0  0  0  0  0
   10.5086    7.4271   -0.0000 C   0  0  0  0  0  0  0  0  0  0  0  0
    9.3891    8.4863   -0.0000 C   0  0  0  0  0  0  0  0  0  0  0  0
   11.9651    7.8724   -0.0000 C   0  0  0  0  0  0  0  0  0  0  0  0
    9.7382    9.9790   -0.0000 C   0  0  0  0  0  0  0  0  0  0  0  0
   12.3142    9.3651   -0.0000 C   0  0  0  0  0  0  0  0  0  0  0  0
   11.1947   10.4244   -0.0000 C   0  0  0  0  0  0  0  0  0  0  0  0
  1  2  2  0  0  0  0
  2  3  1  0  0  0  0
  2  4  1  0  0  0  0
  3  5  1  0  0  0  0
  3  6  1  0  0  0  0
  4  7  1  0  0  0  0
  4  8  1  6  0  0  0
  5  9  1  0  0  0  0
  6 10  1  0  0  0  0
  7 11  1  0  0  0  0
  8 12  1  0  0  0  0
  9 13  1  1  0  0  0
 10 14  2  0  0  0  0
 10 15  1  0  0  0  0
 11 16  2  0  0  0  0
 11 17  1  0  0  0  0
 12 18  2  0  0  0  0
 12 19  1  0  0  0  0
 13 20  1  0  0  0  0
 13 21  1  0  0  0  0
 14 22  1  0  0  0  0
 14 23  1  0  0  0  0
 15 24  2  0  0  0  0
 18 25  1  0  0  0  0
 19 26  2  0  0  0  0
 20 27  1  0  0  0  0
 21 28  2  0  0  0  0
 21 29  1  0  0  0  0
 22 30  1  0  0  0  0
 22 31  1  0  0  0  0
 23 32  1  0  0  0  0
 23 33  2  0  0  0  0
 25 34  2  0  0  0  0
 27 35  1  0  0  0  0
 29 36  1  0  0  0  0
 32 37  1  0  0  0  0
 34 38  1  0  0  0  0
 35 39  2  0  0  0  0
 36 40  1  0  0  0  0
 37 41  2  0  0  0  0
 37 42  1  0  0  0  0
 40 43  2  0  0  0  0
 40 44  1  0  0  0  0
 41 45  1  0  0  0  0
 42 46  2  0  0  0  0
 43 47  1  0  0  0  0
 44 48  2  0  0  0  0
 45 49  1  0  0  0  0
 45 50  2  0  0  0  0
 47 51  2  0  0  0  0
 49 52  2  0  0  0  0
 49 53  1  0  0  0  0
 53 54  1  0  0  0  0
 54 55  2  0  0  0  0
 54 56  1  0  0  0  0
 55 57  1  0  0  0  0
 56 58  2  0  0  0  0
 57 59  2  0  0  0  0
  7  9  1  0  0  0  0
 17 20  1  0  0  0  0
 24 33  1  0  0  0  0
 26 34  1  0  0  0  0
 30 32  2  0  0  0  0
 46 50  1  0  0  0  0
 48 51  1  0  0  0  0
 58 59  1  0  0  0  0
M  END
>  <MolRegNo>
2032615

>  <m>
=

>  <Value>
2130

>  <Unit>
nM

>  <Type>
IC50

>  <pValue>
5.67

>  <Ligand Efficiency>
0.13

>  <Binding Efficiency>
7.2

>  <Surface Efficiency>
4.35

>  <Assay Index>
974120

>  <Assay Category>


>  <Assay Organism>
Homo sapiens

>  <Target ID>
17045

>  <Target Name>
Cytochrome P450 3A4

>  <Target Organism>
Homo sapiens

>  <Target Description>
Target is a single protein chain

>  <Sequence Accession>
P08684

>  <Reference>


>  <Pubmed ID>


>  <DOI>


$$$$
2032616
Actelion Java MolfileCreator 1.0

 62 69  0  0  1  0  0  0  0  0999 V2000
    0.0000   -0.0000   -0.0000 O   0  0  0  0  0  0  0  0  0  0  0  0
   -0.0121    1.2477   -0.0000 C   0  0  0  0  0  0  0  0  0  0  0  0
    1.3083    2.0230   -0.0000 N   0  0  0  0  0  0  0  0  0  0  0  0
   -1.3568    2.0230   -0.0000 C   0  0  0  0  0  0  0  0  0  0  0  0
    1.2962    3.5736   -0.0000 C   0  0  0  0  0  0  0  0  0  0  0  0
    2.6287    1.2720   -0.0000 C   0  0  0  0  0  0  0  0  0  0  0  0
   -1.3689    3.5736   -0.0000 N   0  0  0  0  0  0  0  0  0  0  0  0
   -2.7014    1.2720   -0.0000 C   0  0  0  0  0  0  0  0  0  0  0  0
   -0.0485    4.3489   -0.0000 C   0  0  0  0  0  0  0  0  0  0  0  0
    3.9492    2.0594   -0.0000 C   0  0  0  0  0  0  0  0  0  0  0  0
   -2.7135    4.3489   -0.0000 C   0  0  0  0  0  0  0  0  0  0  0  0
   -4.0461    2.0594   -0.0000 C   0  0  0  0  0  0  0  0  0  0  0  0
   -0.0606    5.8995   -0.0000 N   0  0  0  0  0  0  0  0  0  0  0  0
    5.2696    1.3083   -0.0000 C   0  0  0  0  0  0  0  0  0  0  0  0
    3.9371    3.6100   -0.0000 C   0  0  0  0  0  0  0  0  0  0  0  0
   -3.7917    3.7432   -0.0000 O   0  0  0  0  0  0  0  0  0  0  0  0
   -2.7257    5.8995   -0.0000 C   0  0  0  0  0  0  0  0  0  0  0  0
   -5.3907    1.3083   -0.0000 C   0  0  0  0  0  0  0  0  0  0  0  0
   -4.0582    3.6100   -0.0000 C   0  0  0  0  0  0  0  0  0  0  0  0
   -1.4052    6.6748   -0.0000 N   0  0  0  0  0  0  0  0  0  0  0  0
    1.2599    6.6869   -0.0000 C   0  0  0  0  0  0  0  0  0  0  0  0
    5.5846   -0.1817   -0.0000 N   0  0  0  0  0  0  0  0  0  0  0  0
    6.5900    2.0957   -0.0000 C   0  0  0  0  0  0  0  0  0  0  0  0
    5.2575    4.3974   -0.0000 C   0  0  0  0  0  0  0  0  0  0  0  0
   -6.7354    2.0957   -0.0000 C   0  0  0  0  0  0  0  0  0  0  0  0
   -5.4029    4.3974   -0.0000 C   0  0  0  0  0  0  0  0  0  0  0  0
   -1.4173    8.2254   -0.0000 C   0  0  0  0  0  0  0  0  0  0  0  0
    2.3138    6.0812   -0.0000 O   0  0  0  0  0  0  0  0  0  0  0  0
    1.2477    8.2375   -0.0000 N   0  0  0  0  0  0  0  0  0  0  0  0
    7.0988   -0.3271   -0.0000 C   0  0  0  0  0  0  0  0  0  0  0  0
    4.7487   -1.0903   -0.0000 C   0  0  0  0  0  0  0  0  0  0  0  0
    7.7288    1.0781   -0.0000 C   0  0  0  0  0  0  0  0  0  0  0  0
    6.5779    3.6463   -0.0000 C   0  0  0  0  0  0  0  0  0  0  0  0
   -6.7475    3.6463   -0.0000 C   0  0  0  0  0  0  0  0  0  0  0  0
   -2.7620    9.0007   -0.0000 C   0  0  0  0  0  0  0  0  0  0  0  0
    2.5682    9.0250   -0.0000 C   0  0  0  0  0  0  0  0  0  0  0  0
    9.2188    1.4173   -0.0000 C   0  0  0  0  0  0  0  0  0  0  0  0
   -7.8257    4.2763   -0.0000 O   0  0  0  0  0  0  0  0  0  0  0  0
   -2.7741   10.2485   -0.0000 C   0  0  0  0  0  0  0  0  0  0  0  0
    2.5561   10.5755   -0.0000 C   0  0  0  0  0  0  0  0  0  0  0  0
   10.3212    0.3755   -0.0000 C   0  0  0  0  0  0  0  0  0  0  0  0
    9.5580    2.9316   -0.0000 C   0  0  0  0  0  0  0  0  0  0  0  0
    3.8765   11.3630   -0.0000 C   0  0  0  0  0  0  0  0  0  0  0  0
    1.2114   11.3508   -0.0000 C   0  0  0  0  0  0  0  0  0  0  0  0
   11.7870    0.8238   -0.0000 C   0  0  0  0  0  0  0  0  0  0  0  0
   11.0238    3.3798   -0.0000 C   0  0  0  0  0  0  0  0  0  0  0  0
    3.8644   12.9136   -0.0000 C   0  0  0  0  0  0  0  0  0  0  0  0
    1.1993   12.9014   -0.0000 C   0  0  0  0  0  0  0  0  0  0  0  0
   12.1383    2.3259   -0.0000 C   0  0  0  0  0  0  0  0  0  0  0  0
    2.5197   13.6889   -0.0000 C   0  0  0  0  0  0  0  0  0  0  0  0
   13.6041    2.7741   -0.0000 C   0  0  0  0  0  0  0  0  0  0  0  0
   14.4884    1.9382   -0.0000 O   0  0  0  0  0  0  0  0  0  0  0  0
   13.9432    4.2884   -0.0000 N   0  0  0  0  0  0  0  0  0  0  0  0
   15.4090    4.7366   -0.0000 C   0  0  0  0  0  0  0  0  0  0  0  0
   16.5114    3.6948   -0.0000 C   0  0  0  0  0  0  0  0  0  0  0  0
   15.7604    6.2387   -0.0000 C   0  0  0  0  0  0  0  0  0  0  0  0
   17.9772    4.1430   -0.0000 C   0  0  0  0  0  0  0  0  0  0  0  0
   17.2262    6.6869   -0.0000 C   0  0  0  0  0  0  0  0  0  0  0  0
   19.0796    3.0891   -0.0000 C   0  0  0  0  0  0  0  0  0  0  0  0
   18.3285    5.6451   -0.0000 C   0  0  0  0  0  0  0  0  0  0  0  0
   18.7767    1.9019   -0.0000 O   0  0  0  0  0  0  0  0  0  0  0  0
   20.2425    3.4525   -0.0000 N   0  0  0  0  0  0  0  0  0  0  0  0
  1  2  2  0  0  0  0
  2  3  1  0  0  0  0
  2  4  1  0  0  0  0
  3  5  1  0  0  0  0
  3  6  1  0  0  0  0
  4  7  1  0  0  0  0
  4  8  1  6  0  0  0
  5  9  1  0  0  0  0
  6 10  1  0  0  0  0
  7 11  1  0  0  0  0
  8 12  1  0  0  0  0
  9 13  1  1  0  0  0
 10 14  2  0  0  0  0
 10 15  1  0  0  0  0
 11 16  2  0  0  0  0
 11 17  1  0  0  0  0
 12 18  2  0  0  0  0
 12 19  1  0  0  0  0
 13 20  1  0  0  0  0
 13 21  1  0  0  0  0
 14 22  1  0  0  0  0
 14 23  1  0  0  0  0
 15 24  2  0  0  0  0
 18 25  1  0  0  0  0
 19 26  2  0  0  0  0
 20 27  1  0  0  0  0
 21 28  2  0  0  0  0
 21 29  1  0  0  0  0
 22 30  1  0  0  0  0
 22 31  1  0  0  0  0
 23 32  1  0  0  0  0
 23 33  2  0  0  0  0
 25 34  2  0  0  0  0
 27 35  1  0  0  0  0
 29 36  1  0  0  0  0
 32 37  1  0  0  0  0
 34 38  1  0  0  0  0
 35 39  2  0  0  0  0
 36 40  1  0  0  0  0
 37 41  2  0  0  0  0
 37 42  1  0  0  0  0
 40 43  2  0  0  0  0
 40 44  1  0  0  0  0
 41 45  1  0  0  0  0
 42 46  2  0  0  0  0
 43 47  1  0  0  0  0
 44 48  2  0  0  0  0
 45 49  2  0  0  0  0
 47 50  2  0  0  0  0
 49 51  1  0  0  0  0
 51 52  2  0  0  0  0
 51 53  1  0  0  0  0
 53 54  1  0  0  0  0
 54 55  2  0  0  0  0
 54 56  1  0  0  0  0
 55 57  1  0  0  0  0
 56 58  2  0  0  0  0
 57 59  1  0  0  0  0
 57 60  2  0  0  0  0
 59 61  2  0  0  0  0
 59 62  1  0  0  0  0
  7  9  1  0  0  0  0
 17 20  1  0  0  0  0
 24 33  1  0  0  0  0
 26 34  1  0  0  0  0
 30 32  2  0  0  0  0
 46 49  1  0  0  0  0
 48 50  1  0  0  0  0
 58 60  1  0  0  0  0
M  END
>  <MolRegNo>
2032616

>  <m>
=

>  <Value>
15970

>  <Unit>
nM

>  <Type>
IC50

>  <pValue>
4.8

>  <Ligand Efficiency>
0.11

>  <Binding Efficiency>
5.77

>  <Surface Efficiency>
2.76

>  <Assay Index>
974120

>  <Assay Category>


>  <Assay Organism>
Homo sapiens

>  <Target ID>
17045

>  <Target Name>
Cytochrome P450 3A4

>  <Target Organism>
Homo sapiens

>  <Target Description>
Target is a single protein chain

>  <Sequence Accession>
P08684

>  <Reference>


>  <Pubmed ID>


>  <DOI>


$$$$
2032617
Actelion Java MolfileCreator 1.0

 60 67  0  0  1  0  0  0  0  0999 V2000
    0.0000   -0.0000   -0.0000 O   0  0  0  0  0  0  0  0  0  0  0  0
   -0.0121    1.2447   -0.0000 C   0  0  0  0  0  0  0  0  0  0  0  0
    1.3051    2.0181   -0.0000 N   0  0  0  0  0  0  0  0  0  0  0  0
   -1.3534    2.0181   -0.0000 C   0  0  0  0  0  0  0  0  0  0  0  0
    1.2930    3.5648   -0.0000 C   0  0  0  0  0  0  0  0  0  0  0  0
    2.6223    1.2688   -0.0000 C   0  0  0  0  0  0  0  0  0  0  0  0
   -1.3655    3.5648   -0.0000 N   0  0  0  0  0  0  0  0  0  0  0  0
   -2.6948    1.2688   -0.0000 C   0  0  0  0  0  0  0  0  0  0  0  0
   -0.0483    4.3382   -0.0000 C   0  0  0  0  0  0  0  0  0  0  0  0
    3.9394    2.0543   -0.0000 C   0  0  0  0  0  0  0  0  0  0  0  0
   -2.7069    4.3382   -0.0000 C   0  0  0  0  0  0  0  0  0  0  0  0
   -4.0361    2.0543   -0.0000 C   0  0  0  0  0  0  0  0  0  0  0  0
   -0.0604    5.8850   -0.0000 N   0  0  0  0  0  0  0  0  0  0  0  0
    5.2566    1.3051   -0.0000 C   0  0  0  0  0  0  0  0  0  0  0  0
    3.9274    3.6011   -0.0000 C   0  0  0  0  0  0  0  0  0  0  0  0
   -3.7824    3.7340   -0.0000 O   0  0  0  0  0  0  0  0  0  0  0  0
   -2.7189    5.8850   -0.0000 C   0  0  0  0  0  0  0  0  0  0  0  0
   -5.3775    1.3051   -0.0000 C   0  0  0  0  0  0  0  0  0  0  0  0
   -4.0482    3.6011   -0.0000 C   0  0  0  0  0  0  0  0  0  0  0  0
   -1.4018    6.6584   -0.0000 N   0  0  0  0  0  0  0  0  0  0  0  0
    1.2568    6.6705   -0.0000 C   0  0  0  0  0  0  0  0  0  0  0  0
    5.5708   -0.1813   -0.0000 N   0  0  0  0  0  0  0  0  0  0  0  0
    6.5738    2.0906   -0.0000 C   0  0  0  0  0  0  0  0  0  0  0  0
    5.2445    4.3866   -0.0000 C   0  0  0  0  0  0  0  0  0  0  0  0
   -6.7188    2.0906   -0.0000 C   0  0  0  0  0  0  0  0  0  0  0  0
   -5.3896    4.3866   -0.0000 C   0  0  0  0  0  0  0  0  0  0  0  0
   -1.4139    8.2052   -0.0000 C   0  0  0  0  0  0  0  0  0  0  0  0
    2.3081    6.0663   -0.0000 O   0  0  0  0  0  0  0  0  0  0  0  0
    1.2447    8.2173   -0.0000 N   0  0  0  0  0  0  0  0  0  0  0  0
    7.0813   -0.3263   -0.0000 C   0  0  0  0  0  0  0  0  0  0  0  0
    4.7370   -1.0876   -0.0000 C   0  0  0  0  0  0  0  0  0  0  0  0
    7.7097    1.0755   -0.0000 C   0  0  0  0  0  0  0  0  0  0  0  0
    6.5617    3.6373   -0.0000 C   0  0  0  0  0  0  0  0  0  0  0  0
   -6.7309    3.6373   -0.0000 C   0  0  0  0  0  0  0  0  0  0  0  0
   -2.7552    8.9786   -0.0000 C   0  0  0  0  0  0  0  0  0  0  0  0
    2.5618    9.0027   -0.0000 C   0  0  0  0  0  0  0  0  0  0  0  0
    9.1961    1.4139   -0.0000 C   0  0  0  0  0  0  0  0  0  0  0  0
   -7.8064    4.2657   -0.0000 O   0  0  0  0  0  0  0  0  0  0  0  0
   -2.7673   10.2232   -0.0000 C   0  0  0  0  0  0  0  0  0  0  0  0
    2.5498   10.5495   -0.0000 C   0  0  0  0  0  0  0  0  0  0  0  0
   10.2957    0.3746   -0.0000 C   0  0  0  0  0  0  0  0  0  0  0  0
    9.5344    2.9244   -0.0000 C   0  0  0  0  0  0  0  0  0  0  0  0
    3.8669   11.3350   -0.0000 C   0  0  0  0  0  0  0  0  0  0  0  0
    1.2084   11.3229   -0.0000 C   0  0  0  0  0  0  0  0  0  0  0  0
   11.7579    0.8217   -0.0000 C   0  0  0  0  0  0  0  0  0  0  0  0
   10.9966    3.3715   -0.0000 C   0  0  0  0  0  0  0  0  0  0  0  0
    3.8549   12.8818   -0.0000 C   0  0  0  0  0  0  0  0  0  0  0  0
    1.1963   12.8697   -0.0000 C   0  0  0  0  0  0  0  0  0  0  0  0
   12.1084    2.3202   -0.0000 C   0  0  0  0  0  0  0  0  0  0  0  0
    2.5135   13.6551   -0.0000 C   0  0  0  0  0  0  0  0  0  0  0  0
   13.5706    2.7673   -0.0000 C   0  0  0  0  0  0  0  0  0  0  0  0
   14.4527    1.9335   -0.0000 O   0  0  0  0  0  0  0  0  0  0  0  0
   13.9089    4.2778   -0.0000 N   0  0  0  0  0  0  0  0  0  0  0  0
   15.3711    4.7249   -0.0000 C   0  0  0  0  0  0  0  0  0  0  0  0
   16.4708    3.6857   -0.0000 C   0  0  0  0  0  0  0  0  0  0  0  0
   15.7215    6.2234   -0.0000 C   0  0  0  0  0  0  0  0  0  0  0  0
   17.9329    4.1328   -0.0000 C   0  0  0  0  0  0  0  0  0  0  0  0
   17.1837    6.6705   -0.0000 C   0  0  0  0  0  0  0  0  0  0  0  0
   18.8151    3.2990   -0.0000 O   0  0  0  0  0  0  0  0  0  0  0  0
   18.2834    5.6312   -0.0000 C   0  0  0  0  0  0  0  0  0  0  0  0
  1  2  2  0  0  0  0
  2  3  1  0  0  0  0
  2  4  1  0  0  0  0
  3  5  1  0  0  0  0
  3  6  1  0  0  0  0
  4  7  1  0  0  0  0
  4  8  1  6  0  0  0
  5  9  1  0  0  0  0
  6 10  1  0  0  0  0
  7 11  1  0  0  0  0
  8 12  1  0  0  0  0
  9 13  1  1  0  0  0
 10 14  2  0  0  0  0
 10 15  1  0  0  0  0
 11 16  2  0  0  0  0
 11 17  1  0  0  0  0
 12 18  2  0  0  0  0
 12 19  1  0  0  0  0
 13 20  1  0  0  0  0
 13 21  1  0  0  0  0
 14 22  1  0  0  0  0
 14 23  1  0  0  0  0
 15 24  2  0  0  0  0
 18 25  1  0  0  0  0
 19 26  2  0  0  0  0
 20 27  1  0  0  0  0
 21 28  2  0  0  0  0
 21 29  1  0  0  0  0
 22 30  1  0  0  0  0
 22 31  1  0  0  0  0
 23 32  1  0  0  0  0
 23 33  2  0  0  0  0
 25 34  2  0  0  0  0
 27 35  1  0  0  0  0
 29 36  1  0  0  0  0
 32 37  1  0  0  0  0
 34 38  1  0  0  0  0
 35 39  2  0  0  0  0
 36 40  1  0  0  0  0
 37 41  2  0  0  0  0
 37 42  1  0  0  0  0
 40 43  2  0  0  0  0
 40 44  1  0  0  0  0
 41 45  1  0  0  0  0
 42 46  2  0  0  0  0
 43 47  1  0  0  0  0
 44 48  2  0  0  0  0
 45 49  2  0  0  0  0
 47 50  2  0  0  0  0
 49 51  1  0  0  0  0
 51 52  2  0  0  0  0
 51 53  1  0  0  0  0
 53 54  1  0  0  0  0
 54 55  2  0  0  0  0
 54 56  1  0  0  0  0
 55 57  1  0  0  0  0
 56 58  2  0  0  0  0
 57 59  1  0  0  0  0
 57 60  2  0  0  0  0
  7  9  1  0  0  0  0
 17 20  1  0  0  0  0
 24 33  1  0  0  0  0
 26 34  1  0  0  0  0
 30 32  2  0  0  0  0
 46 49  1  0  0  0  0
 48 50  1  0  0  0  0
 58 60  1  0  0  0  0
M  END
>  <MolRegNo>
2032617

>  <m>
=

>  <Value>
8070

>  <Unit>
nM

>  <Type>
IC50

>  <pValue>
5.09

>  <Ligand Efficiency>
0.12

>  <Binding Efficiency>
6.34

>  <Surface Efficiency>
3.38

>  <Assay Index>
974120

>  <Assay Category>


>  <Assay Organism>
Homo sapiens

>  <Target ID>
17045

>  <Target Name>
Cytochrome P450 3A4

>  <Target Organism>
Homo sapiens

>  <Target Description>
Target is a single protein chain

>  <Sequence Accession>
P08684

>  <Reference>


>  <Pubmed ID>


>  <DOI>


$$$$
2032618
Actelion Java MolfileCreator 1.0

 59 66  0  0  1  0  0  0  0  0999 V2000
    0.0000   -0.0000   -0.0000 O   0  0  0  0  0  0  0  0  0  0  0  0
   -0.0120    1.2411   -0.0000 C   0  0  0  0  0  0  0  0  0  0  0  0
    1.3013    2.0122   -0.0000 N   0  0  0  0  0  0  0  0  0  0  0  0
   -1.3495    2.0122   -0.0000 C   0  0  0  0  0  0  0  0  0  0  0  0
    1.2893    3.5546   -0.0000 C   0  0  0  0  0  0  0  0  0  0  0  0
    2.6147    1.2652   -0.0000 C   0  0  0  0  0  0  0  0  0  0  0  0
   -1.3616    3.5546   -0.0000 N   0  0  0  0  0  0  0  0  0  0  0  0
   -2.6870    1.2652   -0.0000 C   0  0  0  0  0  0  0  0  0  0  0  0
   -0.0482    4.3257   -0.0000 C   0  0  0  0  0  0  0  0  0  0  0  0
    3.9281    2.0484   -0.0000 C   0  0  0  0  0  0  0  0  0  0  0  0
   -2.6991    4.3257   -0.0000 C   0  0  0  0  0  0  0  0  0  0  0  0
   -4.0245    2.0484   -0.0000 C   0  0  0  0  0  0  0  0  0  0  0  0
   -0.0602    5.8680   -0.0000 N   0  0  0  0  0  0  0  0  0  0  0  0
    5.2415    1.3013   -0.0000 C   0  0  0  0  0  0  0  0  0  0  0  0
    3.9160    3.5907   -0.0000 C   0  0  0  0  0  0  0  0  0  0  0  0
   -3.7715    3.7233   -0.0000 O   0  0  0  0  0  0  0  0  0  0  0  0
   -2.7111    5.8680   -0.0000 C   0  0  0  0  0  0  0  0  0  0  0  0
   -5.3620    1.3013   -0.0000 C   0  0  0  0  0  0  0  0  0  0  0  0
   -4.0365    3.5907   -0.0000 C   0  0  0  0  0  0  0  0  0  0  0  0
   -1.3977    6.6392   -0.0000 N   0  0  0  0  0  0  0  0  0  0  0  0
    1.2531    6.6513   -0.0000 C   0  0  0  0  0  0  0  0  0  0  0  0
    5.5548   -0.1807   -0.0000 N   0  0  0  0  0  0  0  0  0  0  0  0
    6.5549    2.0845   -0.0000 C   0  0  0  0  0  0  0  0  0  0  0  0
    5.2294    4.3739   -0.0000 C   0  0  0  0  0  0  0  0  0  0  0  0
   -6.6994    2.0845   -0.0000 C   0  0  0  0  0  0  0  0  0  0  0  0
   -5.3740    4.3739   -0.0000 C   0  0  0  0  0  0  0  0  0  0  0  0
   -1.4098    8.1815   -0.0000 C   0  0  0  0  0  0  0  0  0  0  0  0
    2.3014    6.0488   -0.0000 O   0  0  0  0  0  0  0  0  0  0  0  0
    1.2411    8.1936   -0.0000 N   0  0  0  0  0  0  0  0  0  0  0  0
    7.0609   -0.3253   -0.0000 C   0  0  0  0  0  0  0  0  0  0  0  0
    4.7234   -1.0844   -0.0000 C   0  0  0  0  0  0  0  0  0  0  0  0
    7.6875    1.0724   -0.0000 C   0  0  0  0  0  0  0  0  0  0  0  0
    6.5428    3.6269   -0.0000 C   0  0  0  0  0  0  0  0  0  0  0  0
   -6.7115    3.6269   -0.0000 C   0  0  0  0  0  0  0  0  0  0  0  0
   -2.7473    8.9527   -0.0000 C   0  0  0  0  0  0  0  0  0  0  0  0
    2.5545    8.9768   -0.0000 C   0  0  0  0  0  0  0  0  0  0  0  0
    9.1696    1.4098   -0.0000 C   0  0  0  0  0  0  0  0  0  0  0  0
   -7.7839    4.2534   -0.0000 O   0  0  0  0  0  0  0  0  0  0  0  0
   -2.7593   10.1938   -0.0000 C   0  0  0  0  0  0  0  0  0  0  0  0
    2.5424   10.5191   -0.0000 C   0  0  0  0  0  0  0  0  0  0  0  0
   10.2661    0.3735   -0.0000 C   0  0  0  0  0  0  0  0  0  0  0  0
    9.5070    2.9159   -0.0000 C   0  0  0  0  0  0  0  0  0  0  0  0
    3.8558   11.3023   -0.0000 C   0  0  0  0  0  0  0  0  0  0  0  0
    1.2049   11.2903   -0.0000 C   0  0  0  0  0  0  0  0  0  0  0  0
   11.7240    0.8194   -0.0000 C   0  0  0  0  0  0  0  0  0  0  0  0
   10.9649    3.3618   -0.0000 C   0  0  0  0  0  0  0  0  0  0  0  0
    3.8437   12.8446   -0.0000 C   0  0  0  0  0  0  0  0  0  0  0  0
    1.1929   12.8326   -0.0000 C   0  0  0  0  0  0  0  0  0  0  0  0
   12.0735    2.3135   -0.0000 C   0  0  0  0  0  0  0  0  0  0  0  0
    2.5063   13.6158   -0.0000 C   0  0  0  0  0  0  0  0  0  0  0  0
   13.5314    2.7593   -0.0000 C   0  0  0  0  0  0  0  0  0  0  0  0
   14.4110    1.9279   -0.0000 O   0  0  0  0  0  0  0  0  0  0  0  0
   13.8688    4.2655   -0.0000 N   0  0  0  0  0  0  0  0  0  0  0  0
   15.3268    4.7113   -0.0000 C   0  0  0  0  0  0  0  0  0  0  0  0
   15.6762    6.2054   -0.0000 C   0  0  0  0  0  0  0  0  0  0  0  0
   16.4233    3.6751   -0.0000 C   0  0  0  0  0  0  0  0  0  0  0  0
   17.1342    6.6513   -0.0000 C   0  0  0  0  0  0  0  0  0  0  0  0
   17.8813    4.1209   -0.0000 C   0  0  0  0  0  0  0  0  0  0  0  0
   18.2307    5.6150   -0.0000 C   0  0  0  0  0  0  0  0  0  0  0  0
  1  2  2  0  0  0  0
  2  3  1  0  0  0  0
  2  4  1  0  0  0  0
  3  5  1  0  0  0  0
  3  6  1  0  0  0  0
  4  7  1  0  0  0  0
  4  8  1  6  0  0  0
  5  9  1  0  0  0  0
  6 10  1  0  0  0  0
  7 11  1  0  0  0  0
  8 12  1  0  0  0  0
  9 13  1  1  0  0  0
 10 14  2  0  0  0  0
 10 15  1  0  0  0  0
 11 16  2  0  0  0  0
 11 17  1  0  0  0  0
 12 18  2  0  0  0  0
 12 19  1  0  0  0  0
 13 20  1  0  0  0  0
 13 21  1  0  0  0  0
 14 22  1  0  0  0  0
 14 23  1  0  0  0  0
 15 24  2  0  0  0  0
 18 25  1  0  0  0  0
 19 26  2  0  0  0  0
 20 27  1  0  0  0  0
 21 28  2  0  0  0  0
 21 29  1  0  0  0  0
 22 30  1  0  0  0  0
 22 31  1  0  0  0  0
 23 32  1  0  0  0  0
 23 33  2  0  0  0  0
 25 34  2  0  0  0  0
 27 35  1  0  0  0  0
 29 36  1  0  0  0  0
 32 37  1  0  0  0  0
 34 38  1  0  0  0  0
 35 39  2  0  0  0  0
 36 40  1  0  0  0  0
 37 41  2  0  0  0  0
 37 42  1  0  0  0  0
 40 43  2  0  0  0  0
 40 44  1  0  0  0  0
 41 45  1  0  0  0  0
 42 46  2  0  0  0  0
 43 47  1  0  0  0  0
 44 48  2  0  0  0  0
 45 49  2  0  0  0  0
 47 50  2  0  0  0  0
 49 51  1  0  0  0  0
 51 52  2  0  0  0  0
 51 53  1  0  0  0  0
 53 54  1  0  0  0  0
 54 55  2  0  0  0  0
 54 56  1  0  0  0  0
 55 57  1  0  0  0  0
 56 58  2  0  0  0  0
 57 59  2  0  0  0  0
  7  9  1  0  0  0  0
 17 20  1  0  0  0  0
 24 33  1  0  0  0  0
 26 34  1  0  0  0  0
 30 32  2  0  0  0  0
 46 49  1  0  0  0  0
 48 50  1  0  0  0  0
 58 59  1  0  0  0  0
M  END
>  <MolRegNo>
2032618

>  <m>
=

>  <Value>
7630

>  <Unit>
nM

>  <Type>
IC50

>  <pValue>
5.12

>  <Ligand Efficiency>
0.12

>  <Binding Efficiency>
6.49

>  <Surface Efficiency>
3.92

>  <Assay Index>
974120

>  <Assay Category>


>  <Assay Organism>
Homo sapiens

>  <Target ID>
17045

>  <Target Name>
Cytochrome P450 3A4

>  <Target Organism>
Homo sapiens

>  <Target Description>
Target is a single protein chain

>  <Sequence Accession>
P08684

>  <Reference>


>  <Pubmed ID>


>  <DOI>


$$$$
2032619
Actelion Java MolfileCreator 1.0

 60 67  0  0  1  0  0  0  0  0999 V2000
    0.0000   -0.0000   -0.0000 O   0  0  0  0  0  0  0  0  0  0  0  0
   -0.0121    1.2447   -0.0000 C   0  0  0  0  0  0  0  0  0  0  0  0
    1.3051    2.0180   -0.0000 N   0  0  0  0  0  0  0  0  0  0  0  0
   -1.3534    2.0180   -0.0000 C   0  0  0  0  0  0  0  0  0  0  0  0
    1.2930    3.5648   -0.0000 C   0  0  0  0  0  0  0  0  0  0  0  0
    2.6222    1.2688   -0.0000 C   0  0  0  0  0  0  0  0  0  0  0  0
   -1.3655    3.5648   -0.0000 N   0  0  0  0  0  0  0  0  0  0  0  0
   -2.6947    1.2688   -0.0000 C   0  0  0  0  0  0  0  0  0  0  0  0
   -0.0483    4.3382   -0.0000 C   0  0  0  0  0  0  0  0  0  0  0  0
    3.9394    2.0543   -0.0000 C   0  0  0  0  0  0  0  0  0  0  0  0
   -2.7068    4.3382   -0.0000 C   0  0  0  0  0  0  0  0  0  0  0  0
   -4.0361    2.0543   -0.0000 C   0  0  0  0  0  0  0  0  0  0  0  0
   -0.0604    5.8849   -0.0000 N   0  0  0  0  0  0  0  0  0  0  0  0
    5.2565    1.3051   -0.0000 C   0  0  0  0  0  0  0  0  0  0  0  0
    3.9273    3.6010   -0.0000 C   0  0  0  0  0  0  0  0  0  0  0  0
   -3.7823    3.7340   -0.0000 O   0  0  0  0  0  0  0  0  0  0  0  0
   -2.7189    5.8849   -0.0000 C   0  0  0  0  0  0  0  0  0  0  0  0
   -5.3774    1.3051   -0.0000 C   0  0  0  0  0  0  0  0  0  0  0  0
   -4.0481    3.6010   -0.0000 C   0  0  0  0  0  0  0  0  0  0  0  0
   -1.4017    6.6583   -0.0000 N   0  0  0  0  0  0  0  0  0  0  0  0
    1.2567    6.6704   -0.0000 C   0  0  0  0  0  0  0  0  0  0  0  0
    5.5707   -0.1813   -0.0000 N   0  0  0  0  0  0  0  0  0  0  0  0
    6.5737    2.0905   -0.0000 C   0  0  0  0  0  0  0  0  0  0  0  0
    5.2445    4.3865   -0.0000 C   0  0  0  0  0  0  0  0  0  0  0  0
   -6.7187    2.0905   -0.0000 C   0  0  0  0  0  0  0  0  0  0  0  0
   -5.3895    4.3865   -0.0000 C   0  0  0  0  0  0  0  0  0  0  0  0
   -1.4138    8.2050   -0.0000 C   0  0  0  0  0  0  0  0  0  0  0  0
    2.3080    6.0662   -0.0000 O   0  0  0  0  0  0  0  0  0  0  0  0
    1.2447    8.2171   -0.0000 N   0  0  0  0  0  0  0  0  0  0  0  0
    7.0812   -0.3263   -0.0000 C   0  0  0  0  0  0  0  0  0  0  0  0
    4.7369   -1.0876   -0.0000 C   0  0  0  0  0  0  0  0  0  0  0  0
    7.7096    1.0755   -0.0000 C   0  0  0  0  0  0  0  0  0  0  0  0
    6.5616    3.6373   -0.0000 C   0  0  0  0  0  0  0  0  0  0  0  0
   -6.7308    3.6373   -0.0000 C   0  0  0  0  0  0  0  0  0  0  0  0
   -2.7552    8.9784   -0.0000 C   0  0  0  0  0  0  0  0  0  0  0  0
    2.5618    9.0026   -0.0000 C   0  0  0  0  0  0  0  0  0  0  0  0
    9.1959    1.4138   -0.0000 C   0  0  0  0  0  0  0  0  0  0  0  0
   -7.8063    4.2657   -0.0000 O   0  0  0  0  0  0  0  0  0  0  0  0
   -2.7672   10.2231   -0.0000 C   0  0  0  0  0  0  0  0  0  0  0  0
    2.5497   10.5493   -0.0000 C   0  0  0  0  0  0  0  0  0  0  0  0
   10.2956    0.3746   -0.0000 C   0  0  0  0  0  0  0  0  0  0  0  0
    9.5343    2.9243   -0.0000 C   0  0  0  0  0  0  0  0  0  0  0  0
    3.8669   11.3348   -0.0000 C   0  0  0  0  0  0  0  0  0  0  0  0
    1.2084   11.3227   -0.0000 C   0  0  0  0  0  0  0  0  0  0  0  0
   11.7577    0.8217   -0.0000 C   0  0  0  0  0  0  0  0  0  0  0  0
   10.9964    3.3714   -0.0000 C   0  0  0  0  0  0  0  0  0  0  0  0
    3.8548   12.8816   -0.0000 C   0  0  0  0  0  0  0  0  0  0  0  0
    1.1963   12.8695   -0.0000 C   0  0  0  0  0  0  0  0  0  0  0  0
   12.1082    2.3201   -0.0000 C   0  0  0  0  0  0  0  0  0  0  0  0
    2.5135   13.6549   -0.0000 C   0  0  0  0  0  0  0  0  0  0  0  0
   13.5703    2.7672   -0.0000 C   0  0  0  0  0  0  0  0  0  0  0  0
   14.4525    1.9334   -0.0000 O   0  0  0  0  0  0  0  0  0  0  0  0
   13.9087    4.2777   -0.0000 N   0  0  0  0  0  0  0  0  0  0  0  0
   15.3709    4.7248   -0.0000 C   0  0  0  0  0  0  0  0  0  0  0  0
   15.7213    6.2233   -0.0000 C   0  0  0  0  0  0  0  0  0  0  0  0
   16.4705    3.6856   -0.0000 C   0  0  0  0  0  0  0  0  0  0  0  0
   17.1835    6.6704   -0.0000 C   0  0  0  0  0  0  0  0  0  0  0  0
   17.9327    4.1327   -0.0000 C   0  0  0  0  0  0  0  0  0  0  0  0
   18.2831    5.6311   -0.0000 C   0  0  0  0  0  0  0  0  0  0  0  0
   19.4432    5.9937   -0.0000 N   0  0  0  0  0  0  0  0  0  0  0  0
  1  2  2  0  0  0  0
  2  3  1  0  0  0  0
  2  4  1  0  0  0  0
  3  5  1  0  0  0  0
  3  6  1  0  0  0  0
  4  7  1  0  0  0  0
  4  8  1  6  0  0  0
  5  9  1  0  0  0  0
  6 10  1  0  0  0  0
  7 11  1  0  0  0  0
  8 12  1  0  0  0  0
  9 13  1  1  0  0  0
 10 14  2  0  0  0  0
 10 15  1  0  0  0  0
 11 16  2  0  0  0  0
 11 17  1  0  0  0  0
 12 18  2  0  0  0  0
 12 19  1  0  0  0  0
 13 20  1  0  0  0  0
 13 21  1  0  0  0  0
 14 22  1  0  0  0  0
 14 23  1  0  0  0  0
 15 24  2  0  0  0  0
 18 25  1  0  0  0  0
 19 26  2  0  0  0  0
 20 27  1  0  0  0  0
 21 28  2  0  0  0  0
 21 29  1  0  0  0  0
 22 30  1  0  0  0  0
 22 31  1  0  0  0  0
 23 32  1  0  0  0  0
 23 33  2  0  0  0  0
 25 34  2  0  0  0  0
 27 35  1  0  0  0  0
 29 36  1  0  0  0  0
 32 37  1  0  0  0  0
 34 38  1  0  0  0  0
 35 39  2  0  0  0  0
 36 40  1  0  0  0  0
 37 41  2  0  0  0  0
 37 42  1  0  0  0  0
 40 43  2  0  0  0  0
 40 44  1  0  0  0  0
 41 45  1  0  0  0  0
 42 46  2  0  0  0  0
 43 47  1  0  0  0  0
 44 48  2  0  0  0  0
 45 49  2  0  0  0  0
 47 50  2  0  0  0  0
 49 51  1  0  0  0  0
 51 52  2  0  0  0  0
 51 53  1  0  0  0  0
 53 54  1  0  0  0  0
 54 55  2  0  0  0  0
 54 56  1  0  0  0  0
 55 57  1  0  0  0  0
 56 58  2  0  0  0  0
 57 59  2  0  0  0  0
 59 60  1  0  0  0  0
  7  9  1  0  0  0  0
 17 20  1  0  0  0  0
 24 33  1  0  0  0  0
 26 34  1  0  0  0  0
 30 32  2  0  0  0  0
 46 49  1  0  0  0  0
 48 50  1  0  0  0  0
 58 59  1  0  0  0  0
M  END
>  <MolRegNo>
2032619

>  <m>
=

>  <Value>
2420

>  <Unit>
nM

>  <Type>
IC50

>  <pValue>
5.62

>  <Ligand Efficiency>
0.13

>  <Binding Efficiency>
6.99

>  <Surface Efficiency>
3.59

>  <Assay Index>
974120

>  <Assay Category>


>  <Assay Organism>
Homo sapiens

>  <Target ID>
17045

>  <Target Name>
Cytochrome P450 3A4

>  <Target Organism>
Homo sapiens

>  <Target Description>
Target is a single protein chain

>  <Sequence Accession>
P08684

>  <Reference>


>  <Pubmed ID>


>  <DOI>


$$$$
2032620
Actelion Java MolfileCreator 1.0

 67 75  0  0  1  0  0  0  0  0999 V2000
    0.0000   -0.0000   -0.0000 O   0  0  0  0  0  0  0  0  0  0  0  0
   -0.0120    1.2394   -0.0000 C   0  0  0  0  0  0  0  0  0  0  0  0
    1.2996    2.0096   -0.0000 N   0  0  0  0  0  0  0  0  0  0  0  0
   -1.3477    2.0096   -0.0000 C   0  0  0  0  0  0  0  0  0  0  0  0
    1.2876    3.5498   -0.0000 C   0  0  0  0  0  0  0  0  0  0  0  0
    2.6112    1.2635   -0.0000 C   0  0  0  0  0  0  0  0  0  0  0  0
   -1.3598    3.5498   -0.0000 N   0  0  0  0  0  0  0  0  0  0  0  0
   -2.6834    1.2635   -0.0000 C   0  0  0  0  0  0  0  0  0  0  0  0
   -0.0481    4.3199   -0.0000 C   0  0  0  0  0  0  0  0  0  0  0  0
    3.9228    2.0457   -0.0000 C   0  0  0  0  0  0  0  0  0  0  0  0
   -2.6954    4.3199   -0.0000 C   0  0  0  0  0  0  0  0  0  0  0  0
   -4.0191    2.0457   -0.0000 C   0  0  0  0  0  0  0  0  0  0  0  0
   -0.0602    5.8602   -0.0000 N   0  0  0  0  0  0  0  0  0  0  0  0
    5.2345    1.2996   -0.0000 C   0  0  0  0  0  0  0  0  0  0  0  0
    3.9108    3.5859   -0.0000 C   0  0  0  0  0  0  0  0  0  0  0  0
   -3.7664    3.7183   -0.0000 O   0  0  0  0  0  0  0  0  0  0  0  0
   -2.7075    5.8602   -0.0000 C   0  0  0  0  0  0  0  0  0  0  0  0
   -5.3548    1.2996   -0.0000 C   0  0  0  0  0  0  0  0  0  0  0  0
   -4.0311    3.5859   -0.0000 C   0  0  0  0  0  0  0  0  0  0  0  0
   -1.3959    6.6303   -0.0000 N   0  0  0  0  0  0  0  0  0  0  0  0
    1.2515    6.6424   -0.0000 C   0  0  0  0  0  0  0  0  0  0  0  0
    5.5473   -0.1805   -0.0000 N   0  0  0  0  0  0  0  0  0  0  0  0
    6.5461    2.0818   -0.0000 C   0  0  0  0  0  0  0  0  0  0  0  0
    5.2224    4.3681   -0.0000 C   0  0  0  0  0  0  0  0  0  0  0  0
   -6.6905    2.0818   -0.0000 C   0  0  0  0  0  0  0  0  0  0  0  0
   -5.3668    4.3681   -0.0000 C   0  0  0  0  0  0  0  0  0  0  0  0
   -1.4079    8.1706   -0.0000 C   0  0  0  0  0  0  0  0  0  0  0  0
    2.2983    6.0407   -0.0000 O   0  0  0  0  0  0  0  0  0  0  0  0
    1.2394    8.1826   -0.0000 N   0  0  0  0  0  0  0  0  0  0  0  0
    7.0515   -0.3249   -0.0000 C   0  0  0  0  0  0  0  0  0  0  0  0
    4.7170   -1.0830   -0.0000 C   0  0  0  0  0  0  0  0  0  0  0  0
    7.6772    1.0710   -0.0000 C   0  0  0  0  0  0  0  0  0  0  0  0
    6.5341    3.6220   -0.0000 C   0  0  0  0  0  0  0  0  0  0  0  0
   -6.7025    3.6220   -0.0000 C   0  0  0  0  0  0  0  0  0  0  0  0
   -2.7436    8.9407   -0.0000 C   0  0  0  0  0  0  0  0  0  0  0  0
    2.5510    8.9648   -0.0000 C   0  0  0  0  0  0  0  0  0  0  0  0
    9.1573    1.4079   -0.0000 C   0  0  0  0  0  0  0  0  0  0  0  0
   -7.7735    4.2477   -0.0000 O   0  0  0  0  0  0  0  0  0  0  0  0
   -2.7556   10.1801   -0.0000 C   0  0  0  0  0  0  0  0  0  0  0  0
    2.5390   10.5050   -0.0000 C   0  0  0  0  0  0  0  0  0  0  0  0
   10.2523    0.3730   -0.0000 C   0  0  0  0  0  0  0  0  0  0  0  0
    9.4942    2.9120   -0.0000 C   0  0  0  0  0  0  0  0  0  0  0  0
    3.8506   11.2872   -0.0000 C   0  0  0  0  0  0  0  0  0  0  0  0
    1.2033   11.2751   -0.0000 C   0  0  0  0  0  0  0  0  0  0  0  0
   11.7083    0.8183   -0.0000 C   0  0  0  0  0  0  0  0  0  0  0  0
   10.9503    3.3573   -0.0000 C   0  0  0  0  0  0  0  0  0  0  0  0
    3.8386   12.8274   -0.0000 C   0  0  0  0  0  0  0  0  0  0  0  0
    1.1913   12.8154   -0.0000 C   0  0  0  0  0  0  0  0  0  0  0  0
   12.0573    2.3104   -0.0000 C   0  0  0  0  0  0  0  0  0  0  0  0
    2.5029   13.5976   -0.0000 C   0  0  0  0  0  0  0  0  0  0  0  0
   13.5133    2.7556   -0.0000 C   0  0  0  0  0  0  0  0  0  0  0  0
   14.3918    1.9253   -0.0000 O   0  0  0  0  0  0  0  0  0  0  0  0
   13.8503    4.2598   -0.0000 N   0  0  0  0  0  0  0  0  0  0  0  0
   15.3063    4.7050   -0.0000 C   0  0  0  0  0  0  0  0  0  0  0  0
   16.4013    3.6701   -0.0000 C   0  0  0  0  0  0  0  0  0  0  0  0
   15.6553    6.1971   -0.0000 C   0  0  0  0  0  0  0  0  0  0  0  0
   17.8573    4.1154   -0.0000 C   0  0  0  0  0  0  0  0  0  0  0  0
   17.1113    6.6424   -0.0000 C   0  0  0  0  0  0  0  0  0  0  0  0
   18.9524    3.0685   -0.0000 O   0  0  0  0  0  0  0  0  0  0  0  0
   18.2063    5.6075   -0.0000 C   0  0  0  0  0  0  0  0  0  0  0  0
   18.5793    1.6004   -0.0000 C   0  0  0  0  0  0  0  0  0  0  0  0
   19.6744    0.5535   -0.0000 C   0  0  0  0  0  0  0  0  0  0  0  0
   19.3013   -0.9145   -0.0000 C   0  0  0  0  0  0  0  0  0  0  0  0
   21.1304    0.9988   -0.0000 C   0  0  0  0  0  0  0  0  0  0  0  0
   20.3963   -1.9494   -0.0000 C   0  0  0  0  0  0  0  0  0  0  0  0
   22.2254   -0.0361   -0.0000 C   0  0  0  0  0  0  0  0  0  0  0  0
   21.8524   -1.5042   -0.0000 C   0  0  0  0  0  0  0  0  0  0  0  0
  1  2  2  0  0  0  0
  2  3  1  0  0  0  0
  2  4  1  0  0  0  0
  3  5  1  0  0  0  0
  3  6  1  0  0  0  0
  4  7  1  0  0  0  0
  4  8  1  6  0  0  0
  5  9  1  0  0  0  0
  6 10  1  0  0  0  0
  7 11  1  0  0  0  0
  8 12  1  0  0  0  0
  9 13  1  1  0  0  0
 10 14  2  0  0  0  0
 10 15  1  0  0  0  0
 11 16  2  0  0  0  0
 11 17  1  0  0  0  0
 12 18  2  0  0  0  0
 12 19  1  0  0  0  0
 13 20  1  0  0  0  0
 13 21  1  0  0  0  0
 14 22  1  0  0  0  0
 14 23  1  0  0  0  0
 15 24  2  0  0  0  0
 18 25  1  0  0  0  0
 19 26  2  0  0  0  0
 20 27  1  0  0  0  0
 21 28  2  0  0  0  0
 21 29  1  0  0  0  0
 22 30  1  0  0  0  0
 22 31  1  0  0  0  0
 23 32  1  0  0  0  0
 23 33  2  0  0  0  0
 25 34  2  0  0  0  0
 27 35  1  0  0  0  0
 29 36  1  0  0  0  0
 32 37  1  0  0  0  0
 34 38  1  0  0  0  0
 35 39  2  0  0  0  0
 36 40  1  0  0  0  0
 37 41  2  0  0  0  0
 37 42  1  0  0  0  0
 40 43  2  0  0  0  0
 40 44  1  0  0  0  0
 41 45  1  0  0  0  0
 42 46  2  0  0  0  0
 43 47  1  0  0  0  0
 44 48  2  0  0  0  0
 45 49  2  0  0  0  0
 47 50  2  0  0  0  0
 49 51  1  0  0  0  0
 51 52  2  0  0  0  0
 51 53  1  0  0  0  0
 53 54  1  0  0  0  0
 54 55  2  0  0  0  0
 54 56  1  0  0  0  0
 55 57  1  0  0  0  0
 56 58  2  0  0  0  0
 57 59  1  0  0  0  0
 57 60  2  0  0  0  0
 59 61  1  0  0  0  0
 61 62  1  0  0  0  0
 62 63  2  0  0  0  0
 62 64  1  0  0  0  0
 63 65  1  0  0  0  0
 64 66  2  0  0  0  0
 65 67  2  0  0  0  0
  7  9  1  0  0  0  0
 17 20  1  0  0  0  0
 24 33  1  0  0  0  0
 26 34  1  0  0  0  0
 30 32  2  0  0  0  0
 46 49  1  0  0  0  0
 48 50  1  0  0  0  0
 58 60  1  0  0  0  0
 66 67  1  0  0  0  0
M  END
>  <MolRegNo>
2032620

>  <m>
=

>  <Value>
17200

>  <Unit>
nM

>  <Type>
IC50

>  <pValue>
4.76

>  <Ligand Efficiency>
0.1

>  <Binding Efficiency>
5.33

>  <Surface Efficiency>
3.41

>  <Assay Index>
974120

>  <Assay Category>


>  <Assay Organism>
Homo sapiens

>  <Target ID>
17045

>  <Target Name>
Cytochrome P450 3A4

>  <Target Organism>
Homo sapiens

>  <Target Description>
Target is a single protein chain

>  <Sequence Accession>
P08684

>  <Reference>


>  <Pubmed ID>


>  <DOI>


$$$$
2032621
Actelion Java MolfileCreator 1.0

 61 68  0  0  1  0  0  0  0  0999 V2000
    0.0000   -0.0000   -0.0000 O   0  0  0  0  0  0  0  0  0  0  0  0
   -0.0121    1.2443   -0.0000 C   0  0  0  0  0  0  0  0  0  0  0  0
    1.3047    2.0175   -0.0000 N   0  0  0  0  0  0  0  0  0  0  0  0
   -1.3530    2.0175   -0.0000 C   0  0  0  0  0  0  0  0  0  0  0  0
    1.2926    3.5638   -0.0000 C   0  0  0  0  0  0  0  0  0  0  0  0
    2.6215    1.2685   -0.0000 C   0  0  0  0  0  0  0  0  0  0  0  0
   -1.3651    3.5638   -0.0000 N   0  0  0  0  0  0  0  0  0  0  0  0
   -2.6940    1.2685   -0.0000 C   0  0  0  0  0  0  0  0  0  0  0  0
   -0.0483    4.3370   -0.0000 C   0  0  0  0  0  0  0  0  0  0  0  0
    3.9383    2.0537   -0.0000 C   0  0  0  0  0  0  0  0  0  0  0  0
   -2.7061    4.3370   -0.0000 C   0  0  0  0  0  0  0  0  0  0  0  0
   -4.0349    2.0537   -0.0000 C   0  0  0  0  0  0  0  0  0  0  0  0
   -0.0604    5.8833   -0.0000 N   0  0  0  0  0  0  0  0  0  0  0  0
    5.2551    1.3047   -0.0000 C   0  0  0  0  0  0  0  0  0  0  0  0
    3.9262    3.6000   -0.0000 C   0  0  0  0  0  0  0  0  0  0  0  0
   -3.7813    3.7329   -0.0000 O   0  0  0  0  0  0  0  0  0  0  0  0
   -2.7182    5.8833   -0.0000 C   0  0  0  0  0  0  0  0  0  0  0  0
   -5.3759    1.3047   -0.0000 C   0  0  0  0  0  0  0  0  0  0  0  0
   -4.0470    3.6000   -0.0000 C   0  0  0  0  0  0  0  0  0  0  0  0
   -1.4014    6.6565   -0.0000 N   0  0  0  0  0  0  0  0  0  0  0  0
    1.2564    6.6685   -0.0000 C   0  0  0  0  0  0  0  0  0  0  0  0
    5.5692   -0.1812   -0.0000 N   0  0  0  0  0  0  0  0  0  0  0  0
    6.5719    2.0900   -0.0000 C   0  0  0  0  0  0  0  0  0  0  0  0
    5.2430    4.3853   -0.0000 C   0  0  0  0  0  0  0  0  0  0  0  0
   -6.7169    2.0900   -0.0000 C   0  0  0  0  0  0  0  0  0  0  0  0
   -5.3880    4.3853   -0.0000 C   0  0  0  0  0  0  0  0  0  0  0  0
   -1.4134    8.2028   -0.0000 C   0  0  0  0  0  0  0  0  0  0  0  0
    2.3074    6.0645   -0.0000 O   0  0  0  0  0  0  0  0  0  0  0  0
    1.2443    8.2149   -0.0000 N   0  0  0  0  0  0  0  0  0  0  0  0
    7.0793   -0.3262   -0.0000 C   0  0  0  0  0  0  0  0  0  0  0  0
    4.7356   -1.0873   -0.0000 C   0  0  0  0  0  0  0  0  0  0  0  0
    7.7075    1.0752   -0.0000 C   0  0  0  0  0  0  0  0  0  0  0  0
    6.5598    3.6363   -0.0000 C   0  0  0  0  0  0  0  0  0  0  0  0
   -6.7289    3.6363   -0.0000 C   0  0  0  0  0  0  0  0  0  0  0  0
   -2.7544    8.9759   -0.0000 C   0  0  0  0  0  0  0  0  0  0  0  0
    2.5611    9.0001   -0.0000 C   0  0  0  0  0  0  0  0  0  0  0  0
    9.1934    1.4134   -0.0000 C   0  0  0  0  0  0  0  0  0  0  0  0
   -7.8041    4.2645   -0.0000 O   0  0  0  0  0  0  0  0  0  0  0  0
   -2.7665   10.2203   -0.0000 C   0  0  0  0  0  0  0  0  0  0  0  0
    2.5490   10.5464   -0.0000 C   0  0  0  0  0  0  0  0  0  0  0  0
   10.2927    0.3745   -0.0000 C   0  0  0  0  0  0  0  0  0  0  0  0
    9.5317    2.9235   -0.0000 C   0  0  0  0  0  0  0  0  0  0  0  0
    3.8658   11.3317   -0.0000 C   0  0  0  0  0  0  0  0  0  0  0  0
    1.2081   11.3196   -0.0000 C   0  0  0  0  0  0  0  0  0  0  0  0
   11.7545    0.8215   -0.0000 C   0  0  0  0  0  0  0  0  0  0  0  0
   10.9934    3.3705   -0.0000 C   0  0  0  0  0  0  0  0  0  0  0  0
    3.8537   12.8780   -0.0000 C   0  0  0  0  0  0  0  0  0  0  0  0
    1.1960   12.8659   -0.0000 C   0  0  0  0  0  0  0  0  0  0  0  0
   12.1048    2.3195   -0.0000 C   0  0  0  0  0  0  0  0  0  0  0  0
    2.5128   13.6512   -0.0000 C   0  0  0  0  0  0  0  0  0  0  0  0
   13.5666    2.7665   -0.0000 C   0  0  0  0  0  0  0  0  0  0  0  0
   14.4485    1.9329   -0.0000 O   0  0  0  0  0  0  0  0  0  0  0  0
   13.9049    4.2766   -0.0000 N   0  0  0  0  0  0  0  0  0  0  0  0
   15.3666    4.7235   -0.0000 C   0  0  0  0  0  0  0  0  0  0  0  0
   16.4660    3.6846   -0.0000 C   0  0  0  0  0  0  0  0  0  0  0  0
   15.7170    6.2215   -0.0000 C   0  0  0  0  0  0  0  0  0  0  0  0
   17.9277    4.1316   -0.0000 C   0  0  0  0  0  0  0  0  0  0  0  0
   17.1787    6.6685   -0.0000 C   0  0  0  0  0  0  0  0  0  0  0  0
   19.0271    3.0806   -0.0000 O   0  0  0  0  0  0  0  0  0  0  0  0
   18.2781    5.6296   -0.0000 C   0  0  0  0  0  0  0  0  0  0  0  0
   18.7251    1.8967   -0.0000 C   0  0  0  0  0  0  0  0  0  0  0  0
  1  2  2  0  0  0  0
  2  3  1  0  0  0  0
  2  4  1  0  0  0  0
  3  5  1  0  0  0  0
  3  6  1  0  0  0  0
  4  7  1  0  0  0  0
  4  8  1  6  0  0  0
  5  9  1  0  0  0  0
  6 10  1  0  0  0  0
  7 11  1  0  0  0  0
  8 12  1  0  0  0  0
  9 13  1  1  0  0  0
 10 14  2  0  0  0  0
 10 15  1  0  0  0  0
 11 16  2  0  0  0  0
 11 17  1  0  0  0  0
 12 18  2  0  0  0  0
 12 19  1  0  0  0  0
 13 20  1  0  0  0  0
 13 21  1  0  0  0  0
 14 22  1  0  0  0  0
 14 23  1  0  0  0  0
 15 24  2  0  0  0  0
 18 25  1  0  0  0  0
 19 26  2  0  0  0  0
 20 27  1  0  0  0  0
 21 28  2  0  0  0  0
 21 29  1  0  0  0  0
 22 30  1  0  0  0  0
 22 31  1  0  0  0  0
 23 32  1  0  0  0  0
 23 33  2  0  0  0  0
 25 34  2  0  0  0  0
 27 35  1  0  0  0  0
 29 36  1  0  0  0  0
 32 37  1  0  0  0  0
 34 38  1  0  0  0  0
 35 39  2  0  0  0  0
 36 40  1  0  0  0  0
 37 41  2  0  0  0  0
 37 42  1  0  0  0  0
 40 43  2  0  0  0  0
 40 44  1  0  0  0  0
 41 45  1  0  0  0  0
 42 46  2  0  0  0  0
 43 47  1  0  0  0  0
 44 48  2  0  0  0  0
 45 49  2  0  0  0  0
 47 50  2  0  0  0  0
 49 51  1  0  0  0  0
 51 52  2  0  0  0  0
 51 53  1  0  0  0  0
 53 54  1  0  0  0  0
 54 55  2  0  0  0  0
 54 56  1  0  0  0  0
 55 57  1  0  0  0  0
 56 58  2  0  0  0  0
 57 59  1  0  0  0  0
 57 60  2  0  0  0  0
 59 61  1  0  0  0  0
  7  9  1  0  0  0  0
 17 20  1  0  0  0  0
 24 33  1  0  0  0  0
 26 34  1  0  0  0  0
 30 32  2  0  0  0  0
 46 49  1  0  0  0  0
 48 50  1  0  0  0  0
 58 60  1  0  0  0  0
M  END
>  <MolRegNo>
2032621

>  <m>
=

>  <Value>
6530

>  <Unit>
nM

>  <Type>
IC50

>  <pValue>
5.18

>  <Ligand Efficiency>
0.12

>  <Binding Efficiency>
6.34

>  <Surface Efficiency>
3.71

>  <Assay Index>
974120

>  <Assay Category>


>  <Assay Organism>
Homo sapiens

>  <Target ID>
17045

>  <Target Name>
Cytochrome P450 3A4

>  <Target Organism>
Homo sapiens

>  <Target Description>
Target is a single protein chain

>  <Sequence Accession>
P08684

>  <Reference>


>  <Pubmed ID>


>  <DOI>


$$$$
2032622
Actelion Java MolfileCreator 1.0

 61 68  0  0  1  0  0  0  0  0999 V2000
    0.0000   -0.0000   -0.0000 O   0  0  0  0  0  0  0  0  0  0  0  0
   -0.0121    1.2443   -0.0000 C   0  0  0  0  0  0  0  0  0  0  0  0
    1.3047    2.0175   -0.0000 N   0  0  0  0  0  0  0  0  0  0  0  0
   -1.3530    2.0175   -0.0000 C   0  0  0  0  0  0  0  0  0  0  0  0
    1.2926    3.5638   -0.0000 C   0  0  0  0  0  0  0  0  0  0  0  0
    2.6215    1.2685   -0.0000 C   0  0  0  0  0  0  0  0  0  0  0  0
   -1.3651    3.5638   -0.0000 N   0  0  0  0  0  0  0  0  0  0  0  0
   -2.6940    1.2685   -0.0000 C   0  0  0  0  0  0  0  0  0  0  0  0
   -0.0483    4.3370   -0.0000 C   0  0  0  0  0  0  0  0  0  0  0  0
    3.9383    2.0537   -0.0000 C   0  0  0  0  0  0  0  0  0  0  0  0
   -2.7061    4.3370   -0.0000 C   0  0  0  0  0  0  0  0  0  0  0  0
   -4.0350    2.0537   -0.0000 C   0  0  0  0  0  0  0  0  0  0  0  0
   -0.0604    5.8833   -0.0000 N   0  0  0  0  0  0  0  0  0  0  0  0
    5.2551    1.3047   -0.0000 C   0  0  0  0  0  0  0  0  0  0  0  0
    3.9262    3.6001   -0.0000 C   0  0  0  0  0  0  0  0  0  0  0  0
   -3.7813    3.7330   -0.0000 O   0  0  0  0  0  0  0  0  0  0  0  0
   -2.7182    5.8833   -0.0000 C   0  0  0  0  0  0  0  0  0  0  0  0
   -5.3759    1.3047   -0.0000 C   0  0  0  0  0  0  0  0  0  0  0  0
   -4.0471    3.6001   -0.0000 C   0  0  0  0  0  0  0  0  0  0  0  0
   -1.4014    6.6565   -0.0000 N   0  0  0  0  0  0  0  0  0  0  0  0
    1.2564    6.6686   -0.0000 C   0  0  0  0  0  0  0  0  0  0  0  0
    5.5692   -0.1812   -0.0000 N   0  0  0  0  0  0  0  0  0  0  0  0
    6.5719    2.0900   -0.0000 C   0  0  0  0  0  0  0  0  0  0  0  0
    5.2430    4.3853   -0.0000 C   0  0  0  0  0  0  0  0  0  0  0  0
   -6.7169    2.0900   -0.0000 C   0  0  0  0  0  0  0  0  0  0  0  0
   -5.3880    4.3853   -0.0000 C   0  0  0  0  0  0  0  0  0  0  0  0
   -1.4134    8.2028   -0.0000 C   0  0  0  0  0  0  0  0  0  0  0  0
    2.3074    6.0645   -0.0000 O   0  0  0  0  0  0  0  0  0  0  0  0
    1.2443    8.2149   -0.0000 N   0  0  0  0  0  0  0  0  0  0  0  0
    7.0793   -0.3262   -0.0000 C   0  0  0  0  0  0  0  0  0  0  0  0
    4.7357   -1.0873   -0.0000 C   0  0  0  0  0  0  0  0  0  0  0  0
    7.7075    1.0752   -0.0000 C   0  0  0  0  0  0  0  0  0  0  0  0
    6.5599    3.6363   -0.0000 C   0  0  0  0  0  0  0  0  0  0  0  0
   -6.7290    3.6363   -0.0000 C   0  0  0  0  0  0  0  0  0  0  0  0
   -2.7544    8.9760   -0.0000 C   0  0  0  0  0  0  0  0  0  0  0  0
    2.5611    9.0002   -0.0000 C   0  0  0  0  0  0  0  0  0  0  0  0
    9.1935    1.4134   -0.0000 C   0  0  0  0  0  0  0  0  0  0  0  0
   -7.8042    4.2645   -0.0000 O   0  0  0  0  0  0  0  0  0  0  0  0
   -2.7665   10.2203   -0.0000 C   0  0  0  0  0  0  0  0  0  0  0  0
    2.5490   10.5465   -0.0000 C   0  0  0  0  0  0  0  0  0  0  0  0
   10.2928    0.3745   -0.0000 C   0  0  0  0  0  0  0  0  0  0  0  0
    9.5317    2.9235   -0.0000 C   0  0  0  0  0  0  0  0  0  0  0  0
    3.8658   11.3318   -0.0000 C   0  0  0  0  0  0  0  0  0  0  0  0
    1.2081   11.3197   -0.0000 C   0  0  0  0  0  0  0  0  0  0  0  0
   11.7546    0.8215   -0.0000 C   0  0  0  0  0  0  0  0  0  0  0  0
   10.9935    3.3705   -0.0000 C   0  0  0  0  0  0  0  0  0  0  0  0
    3.8538   12.8781   -0.0000 C   0  0  0  0  0  0  0  0  0  0  0  0
    1.1960   12.8660   -0.0000 C   0  0  0  0  0  0  0  0  0  0  0  0
   12.1049    2.3195   -0.0000 C   0  0  0  0  0  0  0  0  0  0  0  0
    2.5128   13.6513   -0.0000 C   0  0  0  0  0  0  0  0  0  0  0  0
   13.5667    2.7665   -0.0000 C   0  0  0  0  0  0  0  0  0  0  0  0
   14.4486    1.9329   -0.0000 O   0  0  0  0  0  0  0  0  0  0  0  0
   13.9050    4.2766   -0.0000 N   0  0  0  0  0  0  0  0  0  0  0  0
   15.3667    4.7236   -0.0000 C   0  0  0  0  0  0  0  0  0  0  0  0
   15.7171    6.2216   -0.0000 C   0  0  0  0  0  0  0  0  0  0  0  0
   16.4661    3.6846   -0.0000 C   0  0  0  0  0  0  0  0  0  0  0  0
   17.1788    6.6686   -0.0000 C   0  0  0  0  0  0  0  0  0  0  0  0
   17.9278    4.1316   -0.0000 C   0  0  0  0  0  0  0  0  0  0  0  0
   18.2782    5.6296   -0.0000 C   0  0  0  0  0  0  0  0  0  0  0  0
   19.7400    6.0766   -0.0000 O   0  0  0  0  0  0  0  0  0  0  0  0
   20.6219    5.2430   -0.0000 C   0  0  0  0  0  0  0  0  0  0  0  0
  1  2  2  0  0  0  0
  2  3  1  0  0  0  0
  2  4  1  0  0  0  0
  3  5  1  0  0  0  0
  3  6  1  0  0  0  0
  4  7  1  0  0  0  0
  4  8  1  6  0  0  0
  5  9  1  0  0  0  0
  6 10  1  0  0  0  0
  7 11  1  0  0  0  0
  8 12  1  0  0  0  0
  9 13  1  1  0  0  0
 10 14  2  0  0  0  0
 10 15  1  0  0  0  0
 11 16  2  0  0  0  0
 11 17  1  0  0  0  0
 12 18  2  0  0  0  0
 12 19  1  0  0  0  0
 13 20  1  0  0  0  0
 13 21  1  0  0  0  0
 14 22  1  0  0  0  0
 14 23  1  0  0  0  0
 15 24  2  0  0  0  0
 18 25  1  0  0  0  0
 19 26  2  0  0  0  0
 20 27  1  0  0  0  0
 21 28  2  0  0  0  0
 21 29  1  0  0  0  0
 22 30  1  0  0  0  0
 22 31  1  0  0  0  0
 23 32  1  0  0  0  0
 23 33  2  0  0  0  0
 25 34  2  0  0  0  0
 27 35  1  0  0  0  0
 29 36  1  0  0  0  0
 32 37  1  0  0  0  0
 34 38  1  0  0  0  0
 35 39  2  0  0  0  0
 36 40  1  0  0  0  0
 37 41  2  0  0  0  0
 37 42  1  0  0  0  0
 40 43  2  0  0  0  0
 40 44  1  0  0  0  0
 41 45  1  0  0  0  0
 42 46  2  0  0  0  0
 43 47  1  0  0  0  0
 44 48  2  0  0  0  0
 45 49  2  0  0  0  0
 47 50  2  0  0  0  0
 49 51  1  0  0  0  0
 51 52  2  0  0  0  0
 51 53  1  0  0  0  0
 53 54  1  0  0  0  0
 54 55  2  0  0  0  0
 54 56  1  0  0  0  0
 55 57  1  0  0  0  0
 56 58  2  0  0  0  0
 57 59  2  0  0  0  0
 59 60  1  0  0  0  0
 60 61  1  0  0  0  0
  7  9  1  0  0  0  0
 17 20  1  0  0  0  0
 24 33  1  0  0  0  0
 26 34  1  0  0  0  0
 30 32  2  0  0  0  0
 46 49  1  0  0  0  0
 48 50  1  0  0  0  0
 58 59  1  0  0  0  0
M  END
>  <MolRegNo>
2032622

>  <m>
=

>  <Value>
19500

>  <Unit>
nM

>  <Type>
IC50

>  <pValue>
4.71

>  <Ligand Efficiency>
0.11

>  <Binding Efficiency>
5.76

>  <Surface Efficiency>
3.37

>  <Assay Index>
974120

>  <Assay Category>


>  <Assay Organism>
Homo sapiens

>  <Target ID>
17045

>  <Target Name>
Cytochrome P450 3A4

>  <Target Organism>
Homo sapiens

>  <Target Description>
Target is a single protein chain

>  <Sequence Accession>
P08684

>  <Reference>


>  <Pubmed ID>


>  <DOI>


$$$$
2032625
Actelion Java MolfileCreator 1.0

 63 70  0  0  1  0  0  0  0  0999 V2000
    0.0000   -0.0000   -0.0000 O   0  0  0  0  0  0  0  0  0  0  0  0
   -0.0121    1.2474   -0.0000 C   0  0  0  0  0  0  0  0  0  0  0  0
    1.3079    2.0224   -0.0000 N   0  0  0  0  0  0  0  0  0  0  0  0
   -1.3563    2.0224   -0.0000 C   0  0  0  0  0  0  0  0  0  0  0  0
    1.2958    3.5725   -0.0000 C   0  0  0  0  0  0  0  0  0  0  0  0
    2.6279    1.2716   -0.0000 C   0  0  0  0  0  0  0  0  0  0  0  0
   -1.3685    3.5725   -0.0000 N   0  0  0  0  0  0  0  0  0  0  0  0
   -2.7006    1.2716   -0.0000 C   0  0  0  0  0  0  0  0  0  0  0  0
   -0.0484    4.3476   -0.0000 C   0  0  0  0  0  0  0  0  0  0  0  0
    3.9479    2.0587   -0.0000 C   0  0  0  0  0  0  0  0  0  0  0  0
   -2.7127    4.3476   -0.0000 C   0  0  0  0  0  0  0  0  0  0  0  0
   -4.0448    2.0587   -0.0000 C   0  0  0  0  0  0  0  0  0  0  0  0
   -0.0606    5.8977   -0.0000 N   0  0  0  0  0  0  0  0  0  0  0  0
    5.2680    1.3079   -0.0000 C   0  0  0  0  0  0  0  0  0  0  0  0
    3.9358    3.6089   -0.0000 C   0  0  0  0  0  0  0  0  0  0  0  0
   -3.7905    3.7421   -0.0000 O   0  0  0  0  0  0  0  0  0  0  0  0
   -2.7248    5.8977   -0.0000 C   0  0  0  0  0  0  0  0  0  0  0  0
   -5.3891    1.3079   -0.0000 C   0  0  0  0  0  0  0  0  0  0  0  0
   -4.0569    3.6089   -0.0000 C   0  0  0  0  0  0  0  0  0  0  0  0
   -1.4048    6.6727   -0.0000 N   0  0  0  0  0  0  0  0  0  0  0  0
    1.2595    6.6849   -0.0000 C   0  0  0  0  0  0  0  0  0  0  0  0
    5.5828   -0.1817   -0.0000 N   0  0  0  0  0  0  0  0  0  0  0  0
    6.5880    2.0951   -0.0000 C   0  0  0  0  0  0  0  0  0  0  0  0
    5.2558    4.3960   -0.0000 C   0  0  0  0  0  0  0  0  0  0  0  0
   -6.7333    2.0951   -0.0000 C   0  0  0  0  0  0  0  0  0  0  0  0
   -5.4012    4.3960   -0.0000 C   0  0  0  0  0  0  0  0  0  0  0  0
   -1.4169    8.2229   -0.0000 C   0  0  0  0  0  0  0  0  0  0  0  0
    2.3131    6.0793   -0.0000 O   0  0  0  0  0  0  0  0  0  0  0  0
    1.2474    8.2350   -0.0000 N   0  0  0  0  0  0  0  0  0  0  0  0
    7.0966   -0.3270   -0.0000 C   0  0  0  0  0  0  0  0  0  0  0  0
    4.7472   -1.0899   -0.0000 C   0  0  0  0  0  0  0  0  0  0  0  0
    7.7263    1.0778   -0.0000 C   0  0  0  0  0  0  0  0  0  0  0  0
    6.5759    3.6452   -0.0000 C   0  0  0  0  0  0  0  0  0  0  0  0
   -6.7454    3.6452   -0.0000 C   0  0  0  0  0  0  0  0  0  0  0  0
   -2.7611    8.9979   -0.0000 C   0  0  0  0  0  0  0  0  0  0  0  0
    2.5674    9.0221   -0.0000 C   0  0  0  0  0  0  0  0  0  0  0  0
    9.2159    1.4169   -0.0000 C   0  0  0  0  0  0  0  0  0  0  0  0
   -7.8232    4.2749   -0.0000 O   0  0  0  0  0  0  0  0  0  0  0  0
   -2.7732   10.2453   -0.0000 C   0  0  0  0  0  0  0  0  0  0  0  0
    2.5553   10.5722   -0.0000 C   0  0  0  0  0  0  0  0  0  0  0  0
   10.3179    0.3754   -0.0000 C   0  0  0  0  0  0  0  0  0  0  0  0
    9.5550    2.9307   -0.0000 C   0  0  0  0  0  0  0  0  0  0  0  0
    3.8753   11.3594   -0.0000 C   0  0  0  0  0  0  0  0  0  0  0  0
    1.2110   11.3473   -0.0000 C   0  0  0  0  0  0  0  0  0  0  0  0
   11.7833    0.8235   -0.0000 C   0  0  0  0  0  0  0  0  0  0  0  0
   11.0203    3.3788   -0.0000 C   0  0  0  0  0  0  0  0  0  0  0  0
    3.8632   12.9095   -0.0000 C   0  0  0  0  0  0  0  0  0  0  0  0
    1.1989   12.8974   -0.0000 C   0  0  0  0  0  0  0  0  0  0  0  0
   12.1345    2.3252   -0.0000 C   0  0  0  0  0  0  0  0  0  0  0  0
    2.5189   13.6846   -0.0000 C   0  0  0  0  0  0  0  0  0  0  0  0
   13.5998    2.7732   -0.0000 C   0  0  0  0  0  0  0  0  0  0  0  0
   14.4839    1.9376   -0.0000 O   0  0  0  0  0  0  0  0  0  0  0  0
   13.9389    4.2870   -0.0000 N   0  0  0  0  0  0  0  0  0  0  0  0
   15.4042    4.7351   -0.0000 C   0  0  0  0  0  0  0  0  0  0  0  0
   16.5063    3.6936   -0.0000 C   0  0  0  0  0  0  0  0  0  0  0  0
   15.7554    6.2368   -0.0000 C   0  0  0  0  0  0  0  0  0  0  0  0
   17.9716    4.1417   -0.0000 C   0  0  0  0  0  0  0  0  0  0  0  0
   17.2208    6.6849   -0.0000 C   0  0  0  0  0  0  0  0  0  0  0  0
   19.0736    3.0881   -0.0000 O   0  0  0  0  0  0  0  0  0  0  0  0
   18.3228    5.6434   -0.0000 C   0  0  0  0  0  0  0  0  0  0  0  0
   18.6982    1.6107   -0.0000 C   0  0  0  0  0  0  0  0  0  0  0  0
   19.5823    0.7751   -0.0000 C   0  0  0  0  0  0  0  0  0  0  0  0
   17.5114    1.2716   -0.0000 C   0  0  0  0  0  0  0  0  0  0  0  0
  1  2  2  0  0  0  0
  2  3  1  0  0  0  0
  2  4  1  0  0  0  0
  3  5  1  0  0  0  0
  3  6  1  0  0  0  0
  4  7  1  0  0  0  0
  4  8  1  6  0  0  0
  5  9  1  0  0  0  0
  6 10  1  0  0  0  0
  7 11  1  0  0  0  0
  8 12  1  0  0  0  0
  9 13  1  1  0  0  0
 10 14  2  0  0  0  0
 10 15  1  0  0  0  0
 11 16  2  0  0  0  0
 11 17  1  0  0  0  0
 12 18  2  0  0  0  0
 12 19  1  0  0  0  0
 13 20  1  0  0  0  0
 13 21  1  0  0  0  0
 14 22  1  0  0  0  0
 14 23  1  0  0  0  0
 15 24  2  0  0  0  0
 18 25  1  0  0  0  0
 19 26  2  0  0  0  0
 20 27  1  0  0  0  0
 21 28  2  0  0  0  0
 21 29  1  0  0  0  0
 22 30  1  0  0  0  0
 22 31  1  0  0  0  0
 23 32  1  0  0  0  0
 23 33  2  0  0  0  0
 25 34  2  0  0  0  0
 27 35  1  0  0  0  0
 29 36  1  0  0  0  0
 32 37  1  0  0  0  0
 34 38  1  0  0  0  0
 35 39  2  0  0  0  0
 36 40  1  0  0  0  0
 37 41  2  0  0  0  0
 37 42  1  0  0  0  0
 40 43  2  0  0  0  0
 40 44  1  0  0  0  0
 41 45  1  0  0  0  0
 42 46  2  0  0  0  0
 43 47  1  0  0  0  0
 44 48  2  0  0  0  0
 45 49  2  0  0  0  0
 47 50  2  0  0  0  0
 49 51  1  0  0  0  0
 51 52  2  0  0  0  0
 51 53  1  0  0  0  0
 53 54  1  0  0  0  0
 54 55  2  0  0  0  0
 54 56  1  0  0  0  0
 55 57  1  0  0  0  0
 56 58  2  0  0  0  0
 57 59  1  0  0  0  0
 57 60  2  0  0  0  0
 59 61  1  0  0  0  0
 61 62  1  0  0  0  0
 61 63  1  0  0  0  0
  7  9  1  0  0  0  0
 17 20  1  0  0  0  0
 24 33  1  0  0  0  0
 26 34  1  0  0  0  0
 30 32  2  0  0  0  0
 46 49  1  0  0  0  0
 48 50  1  0  0  0  0
 58 60  1  0  0  0  0
M  END
>  <MolRegNo>
2032625

>  <m>
=

>  <Value>
13700

>  <Unit>
nM

>  <Type>
IC50

>  <pValue>
4.86

>  <Ligand Efficiency>
0.11

>  <Binding Efficiency>
5.75

>  <Surface Efficiency>
3.48

>  <Assay Index>
974120

>  <Assay Category>


>  <Assay Organism>
Homo sapiens

>  <Target ID>
17045

>  <Target Name>
Cytochrome P450 3A4

>  <Target Organism>
Homo sapiens

>  <Target Description>
Target is a single protein chain

>  <Sequence Accession>
P08684

>  <Reference>


>  <Pubmed ID>


>  <DOI>


$$$$
2032627
Actelion Java MolfileCreator 1.0

 58 64  0  0  1  0  0  0  0  0999 V2000
    0.0000   -0.0000   -0.0000 O   0  0  0  0  0  0  0  0  0  0  0  0
   -0.0122    1.2529   -0.0000 C   0  0  0  0  0  0  0  0  0  0  0  0
    1.3137    2.0313   -0.0000 N   0  0  0  0  0  0  0  0  0  0  0  0
   -1.3623    2.0313   -0.0000 C   0  0  0  0  0  0  0  0  0  0  0  0
    1.3015    3.5883   -0.0000 C   0  0  0  0  0  0  0  0  0  0  0  0
    2.6395    1.2772   -0.0000 C   0  0  0  0  0  0  0  0  0  0  0  0
   -1.3745    3.5883   -0.0000 N   0  0  0  0  0  0  0  0  0  0  0  0
   -2.7125    1.2772   -0.0000 C   0  0  0  0  0  0  0  0  0  0  0  0
   -0.0487    4.3667   -0.0000 C   0  0  0  0  0  0  0  0  0  0  0  0
    3.9653    2.0678   -0.0000 C   0  0  0  0  0  0  0  0  0  0  0  0
   -2.7247    4.3667   -0.0000 C   0  0  0  0  0  0  0  0  0  0  0  0
   -4.0627    2.0678   -0.0000 C   0  0  0  0  0  0  0  0  0  0  0  0
   -0.0608    5.9237   -0.0000 N   0  0  0  0  0  0  0  0  0  0  0  0
    5.2912    1.3137   -0.0000 C   0  0  0  0  0  0  0  0  0  0  0  0
    3.9532    3.6248   -0.0000 C   0  0  0  0  0  0  0  0  0  0  0  0
   -3.8072    3.7586   -0.0000 O   0  0  0  0  0  0  0  0  0  0  0  0
   -2.7368    5.9237   -0.0000 C   0  0  0  0  0  0  0  0  0  0  0  0
   -5.4128    1.3137   -0.0000 C   0  0  0  0  0  0  0  0  0  0  0  0
   -4.0748    3.6248   -0.0000 C   0  0  0  0  0  0  0  0  0  0  0  0
   -1.4110    6.7022   -0.0000 N   0  0  0  0  0  0  0  0  0  0  0  0
    1.2650    6.7143   -0.0000 C   0  0  0  0  0  0  0  0  0  0  0  0
    5.6074   -0.1825   -0.0000 N   0  0  0  0  0  0  0  0  0  0  0  0
    6.6170    2.1043   -0.0000 C   0  0  0  0  0  0  0  0  0  0  0  0
    5.2790    4.4154   -0.0000 C   0  0  0  0  0  0  0  0  0  0  0  0
   -6.7630    2.1043   -0.0000 C   0  0  0  0  0  0  0  0  0  0  0  0
   -5.4250    4.4154   -0.0000 C   0  0  0  0  0  0  0  0  0  0  0  0
   -1.4231    8.2591   -0.0000 C   0  0  0  0  0  0  0  0  0  0  0  0
    2.3233    6.1061   -0.0000 O   0  0  0  0  0  0  0  0  0  0  0  0
    1.2529    8.2713   -0.0000 N   0  0  0  0  0  0  0  0  0  0  0  0
    7.1279   -0.3284   -0.0000 C   0  0  0  0  0  0  0  0  0  0  0  0
    4.7681   -1.0947   -0.0000 C   0  0  0  0  0  0  0  0  0  0  0  0
    7.7604    1.0826   -0.0000 C   0  0  0  0  0  0  0  0  0  0  0  0
    6.6049    3.6613   -0.0000 C   0  0  0  0  0  0  0  0  0  0  0  0
   -6.7751    3.6613   -0.0000 C   0  0  0  0  0  0  0  0  0  0  0  0
   -2.7733    9.0376   -0.0000 C   0  0  0  0  0  0  0  0  0  0  0  0
    2.5787    9.0619   -0.0000 C   0  0  0  0  0  0  0  0  0  0  0  0
    9.2565    1.4231   -0.0000 C   0  0  0  0  0  0  0  0  0  0  0  0
   -7.8577    4.2938   -0.0000 O   0  0  0  0  0  0  0  0  0  0  0  0
   -2.7855   10.2904   -0.0000 C   0  0  0  0  0  0  0  0  0  0  0  0
    2.5665   10.6189   -0.0000 C   0  0  0  0  0  0  0  0  0  0  0  0
   10.3634    0.3771   -0.0000 C   0  0  0  0  0  0  0  0  0  0  0  0
    9.5971    2.9436   -0.0000 C   0  0  0  0  0  0  0  0  0  0  0  0
    3.8924   11.4095   -0.0000 C   0  0  0  0  0  0  0  0  0  0  0  0
    1.2164   11.3973   -0.0000 C   0  0  0  0  0  0  0  0  0  0  0  0
   11.8352    0.8271   -0.0000 C   0  0  0  0  0  0  0  0  0  0  0  0
   11.0689    3.3937   -0.0000 C   0  0  0  0  0  0  0  0  0  0  0  0
    3.8802   12.9664   -0.0000 C   0  0  0  0  0  0  0  0  0  0  0  0
    1.2042   12.9543   -0.0000 C   0  0  0  0  0  0  0  0  0  0  0  0
   12.1880    2.3354   -0.0000 C   0  0  0  0  0  0  0  0  0  0  0  0
    2.5300   13.7449   -0.0000 C   0  0  0  0  0  0  0  0  0  0  0  0
   13.6598    2.7855   -0.0000 C   0  0  0  0  0  0  0  0  0  0  0  0
   14.5477    1.9462   -0.0000 O   0  0  0  0  0  0  0  0  0  0  0  0
   14.0004    4.3059   -0.0000 N   0  0  0  0  0  0  0  0  0  0  0  0
   15.4722    4.7560   -0.0000 N   0  0  0  0  0  0  0  0  0  0  0  0
   15.8127    6.2764   -0.0000 C   0  0  0  0  0  0  0  0  0  0  0  0
   16.9804    6.6413   -0.0000 C   0  0  0  0  0  0  0  0  0  0  0  0
   16.0803    7.4928   -0.0000 C   0  0  0  0  0  0  0  0  0  0  0  0
   14.9005    7.1401   -0.0000 C   0  0  0  0  0  0  0  0  0  0  0  0
  1  2  2  0  0  0  0
  2  3  1  0  0  0  0
  2  4  1  0  0  0  0
  3  5  1  0  0  0  0
  3  6  1  0  0  0  0
  4  7  1  0  0  0  0
  4  8  1  6  0  0  0
  5  9  1  0  0  0  0
  6 10  1  0  0  0  0
  7 11  1  0  0  0  0
  8 12  1  0  0  0  0
  9 13  1  1  0  0  0
 10 14  2  0  0  0  0
 10 15  1  0  0  0  0
 11 16  2  0  0  0  0
 11 17  1  0  0  0  0
 12 18  2  0  0  0  0
 12 19  1  0  0  0  0
 13 20  1  0  0  0  0
 13 21  1  0  0  0  0
 14 22  1  0  0  0  0
 14 23  1  0  0  0  0
 15 24  2  0  0  0  0
 18 25  1  0  0  0  0
 19 26  2  0  0  0  0
 20 27  1  0  0  0  0
 21 28  2  0  0  0  0
 21 29  1  0  0  0  0
 22 30  1  0  0  0  0
 22 31  1  0  0  0  0
 23 32  1  0  0  0  0
 23 33  2  0  0  0  0
 25 34  2  0  0  0  0
 27 35  1  0  0  0  0
 29 36  1  0  0  0  0
 32 37  1  0  0  0  0
 34 38  1  0  0  0  0
 35 39  2  0  0  0  0
 36 40  1  0  0  0  0
 37 41  2  0  0  0  0
 37 42  1  0  0  0  0
 40 43  2  0  0  0  0
 40 44  1  0  0  0  0
 41 45  1  0  0  0  0
 42 46  2  0  0  0  0
 43 47  1  0  0  0  0
 44 48  2  0  0  0  0
 45 49  2  0  0  0  0
 47 50  2  0  0  0  0
 49 51  1  0  0  0  0
 51 52  2  0  0  0  0
 51 53  1  0  0  0  0
 53 54  1  0  0  0  0
 54 55  1  0  0  0  0
 55 56  1  0  0  0  0
 55 57  1  0  0  0  0
 55 58  1  0  0  0  0
  7  9  1  0  0  0  0
 17 20  1  0  0  0  0
 24 33  1  0  0  0  0
 26 34  1  0  0  0  0
 30 32  2  0  0  0  0
 46 49  1  0  0  0  0
 48 50  1  0  0  0  0
M  END
>  <MolRegNo>
2032627

>  <m>
=

>  <Value>
3410

>  <Unit>
nM

>  <Type>
IC50

>  <pValue>
5.47

>  <Ligand Efficiency>
0.13

>  <Binding Efficiency>
6.98

>  <Surface Efficiency>
3.84

>  <Assay Index>
974120

>  <Assay Category>


>  <Assay Organism>
Homo sapiens

>  <Target ID>
17045

>  <Target Name>
Cytochrome P450 3A4

>  <Target Organism>
Homo sapiens

>  <Target Description>
Target is a single protein chain

>  <Sequence Accession>
P08684

>  <Reference>


>  <Pubmed ID>


>  <DOI>


$$$$
2032629
Actelion Java MolfileCreator 1.0

 60 67  0  0  1  0  0  0  0  0999 V2000
    0.0000   -0.0000   -0.0000 O   0  0  0  0  0  0  0  0  0  0  0  0
   -0.0121    1.2447   -0.0000 C   0  0  0  0  0  0  0  0  0  0  0  0
    1.3051    2.0180   -0.0000 N   0  0  0  0  0  0  0  0  0  0  0  0
   -1.3534    2.0180   -0.0000 C   0  0  0  0  0  0  0  0  0  0  0  0
    1.2930    3.5648   -0.0000 C   0  0  0  0  0  0  0  0  0  0  0  0
    2.6222    1.2688   -0.0000 C   0  0  0  0  0  0  0  0  0  0  0  0
   -1.3655    3.5648   -0.0000 N   0  0  0  0  0  0  0  0  0  0  0  0
   -2.6947    1.2688   -0.0000 C   0  0  0  0  0  0  0  0  0  0  0  0
   -0.0483    4.3382   -0.0000 C   0  0  0  0  0  0  0  0  0  0  0  0
    3.9394    2.0543   -0.0000 C   0  0  0  0  0  0  0  0  0  0  0  0
   -2.7068    4.3382   -0.0000 C   0  0  0  0  0  0  0  0  0  0  0  0
   -4.0361    2.0543   -0.0000 C   0  0  0  0  0  0  0  0  0  0  0  0
   -0.0604    5.8849   -0.0000 N   0  0  0  0  0  0  0  0  0  0  0  0
    5.2565    1.3051   -0.0000 C   0  0  0  0  0  0  0  0  0  0  0  0
    3.9273    3.6010   -0.0000 C   0  0  0  0  0  0  0  0  0  0  0  0
   -3.7823    3.7340   -0.0000 O   0  0  0  0  0  0  0  0  0  0  0  0
   -2.7189    5.8849   -0.0000 C   0  0  0  0  0  0  0  0  0  0  0  0
   -5.3774    1.3051   -0.0000 C   0  0  0  0  0  0  0  0  0  0  0  0
   -4.0481    3.6010   -0.0000 C   0  0  0  0  0  0  0  0  0  0  0  0
   -1.4017    6.6583   -0.0000 N   0  0  0  0  0  0  0  0  0  0  0  0
    1.2567    6.6704   -0.0000 C   0  0  0  0  0  0  0  0  0  0  0  0
    5.5707   -0.1813   -0.0000 N   0  0  0  0  0  0  0  0  0  0  0  0
    6.5737    2.0905   -0.0000 C   0  0  0  0  0  0  0  0  0  0  0  0
    5.2445    4.3865   -0.0000 C   0  0  0  0  0  0  0  0  0  0  0  0
   -6.7187    2.0905   -0.0000 C   0  0  0  0  0  0  0  0  0  0  0  0
   -5.3895    4.3865   -0.0000 C   0  0  0  0  0  0  0  0  0  0  0  0
   -1.4138    8.2050   -0.0000 C   0  0  0  0  0  0  0  0  0  0  0  0
    2.3080    6.0662   -0.0000 O   0  0  0  0  0  0  0  0  0  0  0  0
    1.2447    8.2171   -0.0000 N   0  0  0  0  0  0  0  0  0  0  0  0
    7.0812   -0.3263   -0.0000 C   0  0  0  0  0  0  0  0  0  0  0  0
    4.7369   -1.0876   -0.0000 C   0  0  0  0  0  0  0  0  0  0  0  0
    7.7096    1.0755   -0.0000 C   0  0  0  0  0  0  0  0  0  0  0  0
    6.5616    3.6373   -0.0000 C   0  0  0  0  0  0  0  0  0  0  0  0
   -6.7308    3.6373   -0.0000 C   0  0  0  0  0  0  0  0  0  0  0  0
   -2.7552    8.9784   -0.0000 C   0  0  0  0  0  0  0  0  0  0  0  0
    2.5618    9.0026   -0.0000 C   0  0  0  0  0  0  0  0  0  0  0  0
    9.1959    1.4138   -0.0000 C   0  0  0  0  0  0  0  0  0  0  0  0
   -7.8063    4.2657   -0.0000 O   0  0  0  0  0  0  0  0  0  0  0  0
   -2.7672   10.2231   -0.0000 C   0  0  0  0  0  0  0  0  0  0  0  0
    2.5497   10.5493   -0.0000 C   0  0  0  0  0  0  0  0  0  0  0  0
   10.2956    0.3746   -0.0000 C   0  0  0  0  0  0  0  0  0  0  0  0
    9.5343    2.9243   -0.0000 C   0  0  0  0  0  0  0  0  0  0  0  0
    3.8669   11.3348   -0.0000 C   0  0  0  0  0  0  0  0  0  0  0  0
    1.2084   11.3227   -0.0000 C   0  0  0  0  0  0  0  0  0  0  0  0
   11.7577    0.8217   -0.0000 C   0  0  0  0  0  0  0  0  0  0  0  0
   10.9964    3.3714   -0.0000 C   0  0  0  0  0  0  0  0  0  0  0  0
    3.8548   12.8816   -0.0000 C   0  0  0  0  0  0  0  0  0  0  0  0
    1.1963   12.8695   -0.0000 C   0  0  0  0  0  0  0  0  0  0  0  0
   12.1082    2.3201   -0.0000 C   0  0  0  0  0  0  0  0  0  0  0  0
    2.5135   13.6549   -0.0000 C   0  0  0  0  0  0  0  0  0  0  0  0
   13.5703    2.7672   -0.0000 C   0  0  0  0  0  0  0  0  0  0  0  0
   14.4525    1.9334   -0.0000 O   0  0  0  0  0  0  0  0  0  0  0  0
   13.9087    4.2777   -0.0000 N   0  0  0  0  0  0  0  0  0  0  0  0
   15.3709    4.7248   -0.0000 N   0  0  0  0  0  0  0  0  0  0  0  0
   15.7213    6.2233   -0.0000 C   0  0  0  0  0  0  0  0  0  0  0  0
   16.4705    3.6856   -0.0000 C   0  0  0  0  0  0  0  0  0  0  0  0
   17.1835    6.6704   -0.0000 C   0  0  0  0  0  0  0  0  0  0  0  0
   17.9327    4.1327   -0.0000 C   0  0  0  0  0  0  0  0  0  0  0  0
   18.2831    5.6311   -0.0000 N   0  0  0  0  0  0  0  0  0  0  0  0
   19.4432    5.9937   -0.0000 C   0  0  0  0  0  0  0  0  0  0  0  0
  1  2  2  0  0  0  0
  2  3  1  0  0  0  0
  2  4  1  0  0  0  0
  3  5  1  0  0  0  0
  3  6  1  0  0  0  0
  4  7  1  0  0  0  0
  4  8  1  6  0  0  0
  5  9  1  0  0  0  0
  6 10  1  0  0  0  0
  7 11  1  0  0  0  0
  8 12  1  0  0  0  0
  9 13  1  1  0  0  0
 10 14  2  0  0  0  0
 10 15  1  0  0  0  0
 11 16  2  0  0  0  0
 11 17  1  0  0  0  0
 12 18  2  0  0  0  0
 12 19  1  0  0  0  0
 13 20  1  0  0  0  0
 13 21  1  0  0  0  0
 14 22  1  0  0  0  0
 14 23  1  0  0  0  0
 15 24  2  0  0  0  0
 18 25  1  0  0  0  0
 19 26  2  0  0  0  0
 20 27  1  0  0  0  0
 21 28  2  0  0  0  0
 21 29  1  0  0  0  0
 22 30  1  0  0  0  0
 22 31  1  0  0  0  0
 23 32  1  0  0  0  0
 23 33  2  0  0  0  0
 25 34  2  0  0  0  0
 27 35  1  0  0  0  0
 29 36  1  0  0  0  0
 32 37  1  0  0  0  0
 34 38  1  0  0  0  0
 35 39  2  0  0  0  0
 36 40  1  0  0  0  0
 37 41  2  0  0  0  0
 37 42  1  0  0  0  0
 40 43  2  0  0  0  0
 40 44  1  0  0  0  0
 41 45  1  0  0  0  0
 42 46  2  0  0  0  0
 43 47  1  0  0  0  0
 44 48  2  0  0  0  0
 45 49  2  0  0  0  0
 47 50  2  0  0  0  0
 49 51  1  0  0  0  0
 51 52  2  0  0  0  0
 51 53  1  0  0  0  0
 53 54  1  0  0  0  0
 54 55  1  0  0  0  0
 54 56  1  0  0  0  0
 55 57  1  0  0  0  0
 56 58  1  0  0  0  0
 57 59  1  0  0  0  0
 59 60  1  0  0  0  0
  7  9  1  0  0  0  0
 17 20  1  0  0  0  0
 24 33  1  0  0  0  0
 26 34  1  0  0  0  0
 30 32  2  0  0  0  0
 46 49  1  0  0  0  0
 48 50  1  0  0  0  0
 58 59  1  0  0  0  0
M  END
>  <MolRegNo>
2032629

>  <m>
=

>  <Value>
2510

>  <Unit>
nM

>  <Type>
IC50

>  <pValue>
5.6

>  <Ligand Efficiency>
0.13

>  <Binding Efficiency>
6.91

>  <Surface Efficiency>
4.09

>  <Assay Index>
974120

>  <Assay Category>


>  <Assay Organism>
Homo sapiens

>  <Target ID>
17045

>  <Target Name>
Cytochrome P450 3A4

>  <Target Organism>
Homo sapiens

>  <Target Description>
Target is a single protein chain

>  <Sequence Accession>
P08684

>  <Reference>


>  <Pubmed ID>


>  <DOI>


$$$$
2032634
Actelion Java MolfileCreator 1.0

 60 66  0  0  1  0  0  0  0  0999 V2000
    0.0000   -0.0000   -0.0000 O   0  0  0  0  0  0  0  0  0  0  0  0
   -0.0121    1.2437   -0.0000 C   0  0  0  0  0  0  0  0  0  0  0  0
    1.3041    2.0165   -0.0000 N   0  0  0  0  0  0  0  0  0  0  0  0
   -1.3524    2.0165   -0.0000 C   0  0  0  0  0  0  0  0  0  0  0  0
    1.2920    3.5621   -0.0000 C   0  0  0  0  0  0  0  0  0  0  0  0
    2.6203    1.2679   -0.0000 C   0  0  0  0  0  0  0  0  0  0  0  0
   -1.3645    3.5621   -0.0000 N   0  0  0  0  0  0  0  0  0  0  0  0
   -2.6927    1.2679   -0.0000 C   0  0  0  0  0  0  0  0  0  0  0  0
   -0.0483    4.3349   -0.0000 C   0  0  0  0  0  0  0  0  0  0  0  0
    3.9364    2.0527   -0.0000 C   0  0  0  0  0  0  0  0  0  0  0  0
   -2.7048    4.3349   -0.0000 C   0  0  0  0  0  0  0  0  0  0  0  0
   -4.0330    2.0527   -0.0000 C   0  0  0  0  0  0  0  0  0  0  0  0
   -0.0604    5.8805   -0.0000 N   0  0  0  0  0  0  0  0  0  0  0  0
    5.2526    1.3041   -0.0000 C   0  0  0  0  0  0  0  0  0  0  0  0
    3.9244    3.5983   -0.0000 C   0  0  0  0  0  0  0  0  0  0  0  0
   -3.7795    3.7312   -0.0000 O   0  0  0  0  0  0  0  0  0  0  0  0
   -2.7169    5.8805   -0.0000 C   0  0  0  0  0  0  0  0  0  0  0  0
   -5.3734    1.3041   -0.0000 C   0  0  0  0  0  0  0  0  0  0  0  0
   -4.0451    3.5983   -0.0000 C   0  0  0  0  0  0  0  0  0  0  0  0
   -1.4007    6.6533   -0.0000 N   0  0  0  0  0  0  0  0  0  0  0  0
    1.2558    6.6654   -0.0000 C   0  0  0  0  0  0  0  0  0  0  0  0
    5.5666   -0.1811   -0.0000 N   0  0  0  0  0  0  0  0  0  0  0  0
    6.5688    2.0890   -0.0000 C   0  0  0  0  0  0  0  0  0  0  0  0
    5.2405    4.3832   -0.0000 C   0  0  0  0  0  0  0  0  0  0  0  0
   -6.7137    2.0890   -0.0000 C   0  0  0  0  0  0  0  0  0  0  0  0
   -5.3854    4.3832   -0.0000 C   0  0  0  0  0  0  0  0  0  0  0  0
   -1.4128    8.1989   -0.0000 C   0  0  0  0  0  0  0  0  0  0  0  0
    2.3063    6.0616   -0.0000 O   0  0  0  0  0  0  0  0  0  0  0  0
    1.2437    8.2110   -0.0000 N   0  0  0  0  0  0  0  0  0  0  0  0
    7.0759   -0.3260   -0.0000 C   0  0  0  0  0  0  0  0  0  0  0  0
    4.7334   -1.0867   -0.0000 C   0  0  0  0  0  0  0  0  0  0  0  0
    7.7038    1.0747   -0.0000 C   0  0  0  0  0  0  0  0  0  0  0  0
    6.5567    3.6346   -0.0000 C   0  0  0  0  0  0  0  0  0  0  0  0
   -6.7257    3.6346   -0.0000 C   0  0  0  0  0  0  0  0  0  0  0  0
   -2.7531    8.9717   -0.0000 C   0  0  0  0  0  0  0  0  0  0  0  0
    2.5599    8.9958   -0.0000 C   0  0  0  0  0  0  0  0  0  0  0  0
    9.1890    1.4128   -0.0000 C   0  0  0  0  0  0  0  0  0  0  0  0
   -7.8004    4.2625   -0.0000 O   0  0  0  0  0  0  0  0  0  0  0  0
   -2.7652   10.2154   -0.0000 C   0  0  0  0  0  0  0  0  0  0  0  0
    2.5478   10.5414   -0.0000 C   0  0  0  0  0  0  0  0  0  0  0  0
   10.2879    0.3743   -0.0000 C   0  0  0  0  0  0  0  0  0  0  0  0
    9.5271    2.9221   -0.0000 C   0  0  0  0  0  0  0  0  0  0  0  0
    3.8640   11.3263   -0.0000 C   0  0  0  0  0  0  0  0  0  0  0  0
    1.2075   11.3142   -0.0000 C   0  0  0  0  0  0  0  0  0  0  0  0
   11.7489    0.8211   -0.0000 C   0  0  0  0  0  0  0  0  0  0  0  0
   10.9882    3.3689   -0.0000 C   0  0  0  0  0  0  0  0  0  0  0  0
    3.8519   12.8719   -0.0000 C   0  0  0  0  0  0  0  0  0  0  0  0
    1.1954   12.8598   -0.0000 C   0  0  0  0  0  0  0  0  0  0  0  0
   12.0991    2.3184   -0.0000 C   0  0  0  0  0  0  0  0  0  0  0  0
    2.5116   13.6447   -0.0000 C   0  0  0  0  0  0  0  0  0  0  0  0
   13.5602    2.7652   -0.0000 N   0  0  0  0  0  0  0  0  0  0  0  0
   13.8983    4.2745   -0.0000 C   0  0  0  0  0  0  0  0  0  0  0  0
   12.9927    5.1319   -0.0000 O   0  0  0  0  0  0  0  0  0  0  0  0
   15.3593    4.7213   -0.0000 C   0  0  0  0  0  0  0  0  0  0  0  0
   15.6974    6.2307   -0.0000 C   0  0  0  0  0  0  0  0  0  0  0  0
   17.1585    6.6774   -0.0000 C   0  0  0  0  0  0  0  0  0  0  0  0
   17.4966    8.1868   -0.0000 C   0  0  0  0  0  0  0  0  0  0  0  0
   18.9577    8.6336   -0.0000 C   0  0  0  0  0  0  0  0  0  0  0  0
   19.2958   10.1430   -0.0000 C   0  0  0  0  0  0  0  0  0  0  0  0
   20.4550   10.5052   -0.0000 C   0  0  0  0  0  0  0  0  0  0  0  0
  1  2  2  0  0  0  0
  2  3  1  0  0  0  0
  2  4  1  0  0  0  0
  3  5  1  0  0  0  0
  3  6  1  0  0  0  0
  4  7  1  0  0  0  0
  4  8  1  6  0  0  0
  5  9  1  0  0  0  0
  6 10  1  0  0  0  0
  7 11  1  0  0  0  0
  8 12  1  0  0  0  0
  9 13  1  1  0  0  0
 10 14  2  0  0  0  0
 10 15  1  0  0  0  0
 11 16  2  0  0  0  0
 11 17  1  0  0  0  0
 12 18  2  0  0  0  0
 12 19  1  0  0  0  0
 13 20  1  0  0  0  0
 13 21  1  0  0  0  0
 14 22  1  0  0  0  0
 14 23  1  0  0  0  0
 15 24  2  0  0  0  0
 18 25  1  0  0  0  0
 19 26  2  0  0  0  0
 20 27  1  0  0  0  0
 21 28  2  0  0  0  0
 21 29  1  0  0  0  0
 22 30  1  0  0  0  0
 22 31  1  0  0  0  0
 23 32  1  0  0  0  0
 23 33  2  0  0  0  0
 25 34  2  0  0  0  0
 27 35  1  0  0  0  0
 29 36  1  0  0  0  0
 32 37  1  0  0  0  0
 34 38  1  0  0  0  0
 35 39  2  0  0  0  0
 36 40  1  0  0  0  0
 37 41  2  0  0  0  0
 37 42  1  0  0  0  0
 40 43  2  0  0  0  0
 40 44  1  0  0  0  0
 41 45  1  0  0  0  0
 42 46  2  0  0  0  0
 43 47  1  0  0  0  0
 44 48  2  0  0  0  0
 45 49  2  0  0  0  0
 47 50  2  0  0  0  0
 49 51  1  0  0  0  0
 51 52  1  0  0  0  0
 52 53  2  0  0  0  0
 52 54  1  0  0  0  0
 54 55  1  0  0  0  0
 55 56  1  0  0  0  0
 56 57  1  0  0  0  0
 57 58  1  0  0  0  0
 58 59  1  0  0  0  0
 59 60  1  0  0  0  0
  7  9  1  0  0  0  0
 17 20  1  0  0  0  0
 24 33  1  0  0  0  0
 26 34  1  0  0  0  0
 30 32  2  0  0  0  0
 46 49  1  0  0  0  0
 48 50  1  0  0  0  0
M  END
>  <MolRegNo>
2032634

>  <m>
=

>  <Value>
21700

>  <Unit>
nM

>  <Type>
IC50

>  <pValue>
4.66

>  <Ligand Efficiency>
0.11

>  <Binding Efficiency>
5.76

>  <Surface Efficiency>
3.57

>  <Assay Index>
974120

>  <Assay Category>


>  <Assay Organism>
Homo sapiens

>  <Target ID>
17045

>  <Target Name>
Cytochrome P450 3A4

>  <Target Organism>
Homo sapiens

>  <Target Description>
Target is a single protein chain

>  <Sequence Accession>
P08684

>  <Reference>


>  <Pubmed ID>


>  <DOI>


$$$$
2032635
Actelion Java MolfileCreator 1.0

 65 72  0  0  1  0  0  0  0  0999 V2000
    0.0000   -0.0000   -0.0000 O   0  0  0  0  0  0  0  0  0  0  0  0
   -0.0121    1.2462   -0.0000 C   0  0  0  0  0  0  0  0  0  0  0  0
    1.3067    2.0206   -0.0000 N   0  0  0  0  0  0  0  0  0  0  0  0
   -1.3551    2.0206   -0.0000 C   0  0  0  0  0  0  0  0  0  0  0  0
    1.2946    3.5693   -0.0000 C   0  0  0  0  0  0  0  0  0  0  0  0
    2.6255    1.2704   -0.0000 C   0  0  0  0  0  0  0  0  0  0  0  0
   -1.3672    3.5693   -0.0000 N   0  0  0  0  0  0  0  0  0  0  0  0
   -2.6981    1.2704   -0.0000 C   0  0  0  0  0  0  0  0  0  0  0  0
   -0.0484    4.3436   -0.0000 C   0  0  0  0  0  0  0  0  0  0  0  0
    3.9443    2.0569   -0.0000 C   0  0  0  0  0  0  0  0  0  0  0  0
   -2.7102    4.3436   -0.0000 C   0  0  0  0  0  0  0  0  0  0  0  0
   -4.0411    2.0569   -0.0000 C   0  0  0  0  0  0  0  0  0  0  0  0
   -0.0605    5.8923   -0.0000 N   0  0  0  0  0  0  0  0  0  0  0  0
    5.2631    1.3067   -0.0000 C   0  0  0  0  0  0  0  0  0  0  0  0
    3.9322    3.6056   -0.0000 C   0  0  0  0  0  0  0  0  0  0  0  0
   -3.7870    3.7386   -0.0000 O   0  0  0  0  0  0  0  0  0  0  0  0
   -2.7223    5.8923   -0.0000 C   0  0  0  0  0  0  0  0  0  0  0  0
   -5.3841    1.3067   -0.0000 C   0  0  0  0  0  0  0  0  0  0  0  0
   -4.0532    3.6056   -0.0000 C   0  0  0  0  0  0  0  0  0  0  0  0
   -1.4035    6.6666   -0.0000 N   0  0  0  0  0  0  0  0  0  0  0  0
    1.2583    6.6787   -0.0000 C   0  0  0  0  0  0  0  0  0  0  0  0
    5.5777   -0.1815   -0.0000 N   0  0  0  0  0  0  0  0  0  0  0  0
    6.5819    2.0932   -0.0000 C   0  0  0  0  0  0  0  0  0  0  0  0
    5.2510    4.3920   -0.0000 C   0  0  0  0  0  0  0  0  0  0  0  0
   -6.7271    2.0932   -0.0000 C   0  0  0  0  0  0  0  0  0  0  0  0
   -5.3962    4.3920   -0.0000 C   0  0  0  0  0  0  0  0  0  0  0  0
   -1.4156    8.2153   -0.0000 C   0  0  0  0  0  0  0  0  0  0  0  0
    2.3109    6.0738   -0.0000 O   0  0  0  0  0  0  0  0  0  0  0  0
    1.2462    8.2274   -0.0000 N   0  0  0  0  0  0  0  0  0  0  0  0
    7.0901   -0.3267   -0.0000 C   0  0  0  0  0  0  0  0  0  0  0  0
    4.7429   -1.0889   -0.0000 C   0  0  0  0  0  0  0  0  0  0  0  0
    7.7193    1.0768   -0.0000 C   0  0  0  0  0  0  0  0  0  0  0  0
    6.5698    3.6419   -0.0000 C   0  0  0  0  0  0  0  0  0  0  0  0
   -6.7392    3.6419   -0.0000 C   0  0  0  0  0  0  0  0  0  0  0  0
   -2.7586    8.9897   -0.0000 C   0  0  0  0  0  0  0  0  0  0  0  0
    2.5650    9.0139   -0.0000 C   0  0  0  0  0  0  0  0  0  0  0  0
    9.2075    1.4156   -0.0000 C   0  0  0  0  0  0  0  0  0  0  0  0
   -7.8161    4.2710   -0.0000 O   0  0  0  0  0  0  0  0  0  0  0  0
   -2.7707   10.2359   -0.0000 C   0  0  0  0  0  0  0  0  0  0  0  0
    2.5529   10.5626   -0.0000 C   0  0  0  0  0  0  0  0  0  0  0  0
   10.3085    0.3751   -0.0000 C   0  0  0  0  0  0  0  0  0  0  0  0
    9.5462    2.9280   -0.0000 C   0  0  0  0  0  0  0  0  0  0  0  0
    3.8717   11.3490   -0.0000 C   0  0  0  0  0  0  0  0  0  0  0  0
    1.2099   11.3369   -0.0000 C   0  0  0  0  0  0  0  0  0  0  0  0
   11.7725    0.8227   -0.0000 C   0  0  0  0  0  0  0  0  0  0  0  0
   11.0102    3.3757   -0.0000 C   0  0  0  0  0  0  0  0  0  0  0  0
    3.8596   12.8977   -0.0000 C   0  0  0  0  0  0  0  0  0  0  0  0
    1.1978   12.8856   -0.0000 C   0  0  0  0  0  0  0  0  0  0  0  0
   12.1234    2.3230   -0.0000 C   0  0  0  0  0  0  0  0  0  0  0  0
    2.5166   13.6721   -0.0000 C   0  0  0  0  0  0  0  0  0  0  0  0
   13.5874    2.7707   -0.0000 N   0  0  0  0  0  0  0  0  0  0  0  0
   13.9261    4.2831   -0.0000 C   0  0  0  0  0  0  0  0  0  0  0  0
   13.0187    5.1421   -0.0000 O   0  0  0  0  0  0  0  0  0  0  0  0
   15.3901    4.7308   -0.0000 C   0  0  0  0  0  0  0  0  0  0  0  0
   15.7410    6.2311   -0.0000 C   0  0  0  0  0  0  0  0  0  0  0  0
   16.4912    3.6902   -0.0000 C   0  0  0  0  0  0  0  0  0  0  0  0
   17.2050    6.6787   -0.0000 C   0  0  0  0  0  0  0  0  0  0  0  0
   17.9552    4.1379   -0.0000 C   0  0  0  0  0  0  0  0  0  0  0  0
   18.3060    5.6382   -0.0000 C   0  0  0  0  0  0  0  0  0  0  0  0
   19.7700    6.0859   -0.0000 C   0  0  0  0  0  0  0  0  0  0  0  0
   20.8711    5.0333   -0.0000 N   0  0  0  0  0  0  0  0  0  0  0  0
   22.3351    5.4809   -0.0000 C   0  0  0  0  0  0  0  0  0  0  0  0
   20.4960    3.5572   -0.0000 C   0  0  0  0  0  0  0  0  0  0  0  0
   23.2183    4.6461   -0.0000 C   0  0  0  0  0  0  0  0  0  0  0  0
   19.3103    3.2184   -0.0000 C   0  0  0  0  0  0  0  0  0  0  0  0
  1  2  2  0  0  0  0
  2  3  1  0  0  0  0
  2  4  1  0  0  0  0
  3  5  1  0  0  0  0
  3  6  1  0  0  0  0
  4  7  1  0  0  0  0
  4  8  1  6  0  0  0
  5  9  1  0  0  0  0
  6 10  1  0  0  0  0
  7 11  1  0  0  0  0
  8 12  1  0  0  0  0
  9 13  1  1  0  0  0
 10 14  2  0  0  0  0
 10 15  1  0  0  0  0
 11 16  2  0  0  0  0
 11 17  1  0  0  0  0
 12 18  2  0  0  0  0
 12 19  1  0  0  0  0
 13 20  1  0  0  0  0
 13 21  1  0  0  0  0
 14 22  1  0  0  0  0
 14 23  1  0  0  0  0
 15 24  2  0  0  0  0
 18 25  1  0  0  0  0
 19 26  2  0  0  0  0
 20 27  1  0  0  0  0
 21 28  2  0  0  0  0
 21 29  1  0  0  0  0
 22 30  1  0  0  0  0
 22 31  1  0  0  0  0
 23 32  1  0  0  0  0
 23 33  2  0  0  0  0
 25 34  2  0  0  0  0
 27 35  1  0  0  0  0
 29 36  1  0  0  0  0
 32 37  1  0  0  0  0
 34 38  1  0  0  0  0
 35 39  2  0  0  0  0
 36 40  1  0  0  0  0
 37 41  2  0  0  0  0
 37 42  1  0  0  0  0
 40 43  2  0  0  0  0
 40 44  1  0  0  0  0
 41 45  1  0  0  0  0
 42 46  2  0  0  0  0
 43 47  1  0  0  0  0
 44 48  2  0  0  0  0
 45 49  2  0  0  0  0
 47 50  2  0  0  0  0
 49 51  1  0  0  0  0
 51 52  1  0  0  0  0
 52 53  2  0  0  0  0
 52 54  1  0  0  0  0
 54 55  2  0  0  0  0
 54 56  1  0  0  0  0
 55 57  1  0  0  0  0
 56 58  2  0  0  0  0
 57 59  2  0  0  0  0
 59 60  1  0  0  0  0
 60 61  1  0  0  0  0
 61 62  1  0  0  0  0
 61 63  1  0  0  0  0
 62 64  1  0  0  0  0
 63 65  1  0  0  0  0
  7  9  1  0  0  0  0
 17 20  1  0  0  0  0
 24 33  1  0  0  0  0
 26 34  1  0  0  0  0
 30 32  2  0  0  0  0
 46 49  1  0  0  0  0
 48 50  1  0  0  0  0
 58 59  1  0  0  0  0
M  END
>  <MolRegNo>
2032635

>  <m>
=

>  <Value>
2260

>  <Unit>
nM

>  <Type>
IC50

>  <pValue>
5.65

>  <Ligand Efficiency>
0.12

>  <Binding Efficiency>
6.47

>  <Surface Efficiency>
4.22

>  <Assay Index>
974120

>  <Assay Category>


>  <Assay Organism>
Homo sapiens

>  <Target ID>
17045

>  <Target Name>
Cytochrome P450 3A4

>  <Target Organism>
Homo sapiens

>  <Target Description>
Target is a single protein chain

>  <Sequence Accession>
P08684

>  <Reference>


>  <Pubmed ID>


>  <DOI>


$$$$
2035998
Actelion Java MolfileCreator 1.0

 59 66  0  0  1  0  0  0  0  0999 V2000
    0.0000   -0.0000   -0.0000 O   0  0  0  0  0  0  0  0  0  0  0  0
   -0.0120    1.2407   -0.0000 C   0  0  0  0  0  0  0  0  0  0  0  0
    1.3009    2.0116   -0.0000 N   0  0  0  0  0  0  0  0  0  0  0  0
   -1.3491    2.0116   -0.0000 C   0  0  0  0  0  0  0  0  0  0  0  0
    1.2888    3.5533   -0.0000 C   0  0  0  0  0  0  0  0  0  0  0  0
    2.6138    1.2647   -0.0000 C   0  0  0  0  0  0  0  0  0  0  0  0
   -1.3611    3.5533   -0.0000 N   0  0  0  0  0  0  0  0  0  0  0  0
   -2.6861    1.2647   -0.0000 C   0  0  0  0  0  0  0  0  0  0  0  0
   -0.0482    4.3242   -0.0000 C   0  0  0  0  0  0  0  0  0  0  0  0
    3.9267    2.0477   -0.0000 C   0  0  0  0  0  0  0  0  0  0  0  0
   -2.6981    4.3242   -0.0000 C   0  0  0  0  0  0  0  0  0  0  0  0
   -4.0231    2.0477   -0.0000 C   0  0  0  0  0  0  0  0  0  0  0  0
   -0.0602    5.8660   -0.0000 N   0  0  0  0  0  0  0  0  0  0  0  0
    5.2397    1.3009   -0.0000 C   0  0  0  0  0  0  0  0  0  0  0  0
    3.9147    3.5895   -0.0000 C   0  0  0  0  0  0  0  0  0  0  0  0
   -3.7702    3.7220   -0.0000 O   0  0  0  0  0  0  0  0  0  0  0  0
   -2.7102    5.8660   -0.0000 C   0  0  0  0  0  0  0  0  0  0  0  0
   -5.3601    1.3009   -0.0000 C   0  0  0  0  0  0  0  0  0  0  0  0
   -4.0351    3.5895   -0.0000 C   0  0  0  0  0  0  0  0  0  0  0  0
   -1.3972    6.6369   -0.0000 N   0  0  0  0  0  0  0  0  0  0  0  0
    1.2527    6.6490   -0.0000 C   0  0  0  0  0  0  0  0  0  0  0  0
    5.5528   -0.1807   -0.0000 N   0  0  0  0  0  0  0  0  0  0  0  0
    6.5526    2.0838   -0.0000 C   0  0  0  0  0  0  0  0  0  0  0  0
    5.2276    4.3724   -0.0000 C   0  0  0  0  0  0  0  0  0  0  0  0
   -6.6971    2.0838   -0.0000 C   0  0  0  0  0  0  0  0  0  0  0  0
   -5.3722    4.3724   -0.0000 C   0  0  0  0  0  0  0  0  0  0  0  0
   -1.4093    8.1787   -0.0000 C   0  0  0  0  0  0  0  0  0  0  0  0
    2.3006    6.0467   -0.0000 O   0  0  0  0  0  0  0  0  0  0  0  0
    1.2407    8.1908   -0.0000 N   0  0  0  0  0  0  0  0  0  0  0  0
    7.0585   -0.3252   -0.0000 C   0  0  0  0  0  0  0  0  0  0  0  0
    4.7217   -1.0841   -0.0000 C   0  0  0  0  0  0  0  0  0  0  0  0
    7.6849    1.0720   -0.0000 C   0  0  0  0  0  0  0  0  0  0  0  0
    6.5406    3.6256   -0.0000 C   0  0  0  0  0  0  0  0  0  0  0  0
   -6.7092    3.6256   -0.0000 C   0  0  0  0  0  0  0  0  0  0  0  0
   -2.7463    8.9496   -0.0000 C   0  0  0  0  0  0  0  0  0  0  0  0
    2.5536    8.9737   -0.0000 C   0  0  0  0  0  0  0  0  0  0  0  0
    9.1664    1.4093   -0.0000 C   0  0  0  0  0  0  0  0  0  0  0  0
   -7.7812    4.2520   -0.0000 O   0  0  0  0  0  0  0  0  0  0  0  0
   -2.7584   10.1903   -0.0000 C   0  0  0  0  0  0  0  0  0  0  0  0
    2.5415   10.5155   -0.0000 C   0  0  0  0  0  0  0  0  0  0  0  0
   10.2625    0.3734   -0.0000 C   0  0  0  0  0  0  0  0  0  0  0  0
    9.5037    2.9149   -0.0000 C   0  0  0  0  0  0  0  0  0  0  0  0
    3.8545   11.2984   -0.0000 C   0  0  0  0  0  0  0  0  0  0  0  0
    1.2045   11.2864   -0.0000 C   0  0  0  0  0  0  0  0  0  0  0  0
   11.7200    0.8191   -0.0000 C   0  0  0  0  0  0  0  0  0  0  0  0
   10.9612    3.3606   -0.0000 C   0  0  0  0  0  0  0  0  0  0  0  0
    3.8424   12.8402   -0.0000 C   0  0  0  0  0  0  0  0  0  0  0  0
    1.1925   12.8282   -0.0000 C   0  0  0  0  0  0  0  0  0  0  0  0
   12.0693    2.3127   -0.0000 C   0  0  0  0  0  0  0  0  0  0  0  0
    2.5054   13.6111   -0.0000 C   0  0  0  0  0  0  0  0  0  0  0  0
   13.5268    2.7584   -0.0000 N   0  0  0  0  0  0  0  0  0  0  0  0
   13.8641    4.2640   -0.0000 C   0  0  0  0  0  0  0  0  0  0  0  0
   12.9607    5.1192   -0.0000 O   0  0  0  0  0  0  0  0  0  0  0  0
   15.3215    4.7097   -0.0000 N   0  0  0  0  0  0  0  0  0  0  0  0
   15.6708    6.2033   -0.0000 C   0  0  0  0  0  0  0  0  0  0  0  0
   16.4176    3.6738   -0.0000 C   0  0  0  0  0  0  0  0  0  0  0  0
   17.1283    6.6490   -0.0000 C   0  0  0  0  0  0  0  0  0  0  0  0
   17.8751    4.1195   -0.0000 C   0  0  0  0  0  0  0  0  0  0  0  0
   18.2244    5.6131   -0.0000 O   0  0  0  0  0  0  0  0  0  0  0  0
  1  2  2  0  0  0  0
  2  3  1  0  0  0  0
  2  4  1  0  0  0  0
  3  5  1  0  0  0  0
  3  6  1  0  0  0  0
  4  7  1  0  0  0  0
  4  8  1  6  0  0  0
  5  9  1  0  0  0  0
  6 10  1  0  0  0  0
  7 11  1  0  0  0  0
  8 12  1  0  0  0  0
  9 13  1  1  0  0  0
 10 14  2  0  0  0  0
 10 15  1  0  0  0  0
 11 16  2  0  0  0  0
 11 17  1  0  0  0  0
 12 18  2  0  0  0  0
 12 19  1  0  0  0  0
 13 20  1  0  0  0  0
 13 21  1  0  0  0  0
 14 22  1  0  0  0  0
 14 23  1  0  0  0  0
 15 24  2  0  0  0  0
 18 25  1  0  0  0  0
 19 26  2  0  0  0  0
 20 27  1  0  0  0  0
 21 28  2  0  0  0  0
 21 29  1  0  0  0  0
 22 30  1  0  0  0  0
 22 31  1  0  0  0  0
 23 32  1  0  0  0  0
 23 33  2  0  0  0  0
 25 34  2  0  0  0  0
 27 35  1  0  0  0  0
 29 36  1  0  0  0  0
 32 37  1  0  0  0  0
 34 38  1  0  0  0  0
 35 39  2  0  0  0  0
 36 40  1  0  0  0  0
 37 41  2  0  0  0  0
 37 42  1  0  0  0  0
 40 43  2  0  0  0  0
 40 44  1  0  0  0  0
 41 45  1  0  0  0  0
 42 46  2  0  0  0  0
 43 47  1  0  0  0  0
 44 48  2  0  0  0  0
 45 49  2  0  0  0  0
 47 50  2  0  0  0  0
 49 51  1  0  0  0  0
 51 52  1  0  0  0  0
 52 53  2  0  0  0  0
 52 54  1  0  0  0  0
 54 55  1  0  0  0  0
 54 56  1  0  0  0  0
 55 57  1  0  0  0  0
 56 58  1  0  0  0  0
 57 59  1  0  0  0  0
  7  9  1  0  0  0  0
 17 20  1  0  0  0  0
 24 33  1  0  0  0  0
 26 34  1  0  0  0  0
 30 32  2  0  0  0  0
 46 49  1  0  0  0  0
 48 50  1  0  0  0  0
 58 59  1  0  0  0  0
M  END
>  <MolRegNo>
2035998

>  <m>
=

>  <Value>
2190

>  <Unit>
nM

>  <Type>
IC50

>  <pValue>
5.66

>  <Ligand Efficiency>
0.13

>  <Binding Efficiency>
7.1

>  <Surface Efficiency>
3.96

>  <Assay Index>
974120

>  <Assay Category>


>  <Assay Organism>
Homo sapiens

>  <Target ID>
17045

>  <Target Name>
Cytochrome P450 3A4

>  <Target Organism>
Homo sapiens

>  <Target Description>
Target is a single protein chain

>  <Sequence Accession>
P08684

>  <Reference>


>  <Pubmed ID>


>  <DOI>


$$$$
2036000
Actelion Java MolfileCreator 1.0

 62 68  0  0  1  0  0  0  0  0999 V2000
    0.0000   -0.0000   -0.0000 O   0  0  0  0  0  0  0  0  0  0  0  0
   -0.0121    1.2466   -0.0000 C   0  0  0  0  0  0  0  0  0  0  0  0
    1.3071    2.0212   -0.0000 N   0  0  0  0  0  0  0  0  0  0  0  0
   -1.3555    2.0212   -0.0000 C   0  0  0  0  0  0  0  0  0  0  0  0
    1.2950    3.5703   -0.0000 C   0  0  0  0  0  0  0  0  0  0  0  0
    2.6263    1.2708   -0.0000 C   0  0  0  0  0  0  0  0  0  0  0  0
   -1.3676    3.5703   -0.0000 N   0  0  0  0  0  0  0  0  0  0  0  0
   -2.6989    1.2708   -0.0000 C   0  0  0  0  0  0  0  0  0  0  0  0
   -0.0484    4.3449   -0.0000 C   0  0  0  0  0  0  0  0  0  0  0  0
    3.9455    2.0575   -0.0000 C   0  0  0  0  0  0  0  0  0  0  0  0
   -2.7110    4.3449   -0.0000 C   0  0  0  0  0  0  0  0  0  0  0  0
   -4.0423    2.0575   -0.0000 C   0  0  0  0  0  0  0  0  0  0  0  0
   -0.0605    5.8941   -0.0000 N   0  0  0  0  0  0  0  0  0  0  0  0
    5.2647    1.3071   -0.0000 C   0  0  0  0  0  0  0  0  0  0  0  0
    3.9334    3.6066   -0.0000 C   0  0  0  0  0  0  0  0  0  0  0  0
   -3.7882    3.7398   -0.0000 O   0  0  0  0  0  0  0  0  0  0  0  0
   -2.7231    5.8941   -0.0000 C   0  0  0  0  0  0  0  0  0  0  0  0
   -5.3857    1.3071   -0.0000 C   0  0  0  0  0  0  0  0  0  0  0  0
   -4.0544    3.6066   -0.0000 C   0  0  0  0  0  0  0  0  0  0  0  0
   -1.4039    6.6686   -0.0000 N   0  0  0  0  0  0  0  0  0  0  0  0
    1.2587    6.6807   -0.0000 C   0  0  0  0  0  0  0  0  0  0  0  0
    5.5794   -0.1815   -0.0000 N   0  0  0  0  0  0  0  0  0  0  0  0
    6.5839    2.0938   -0.0000 C   0  0  0  0  0  0  0  0  0  0  0  0
    5.2526    4.3933   -0.0000 C   0  0  0  0  0  0  0  0  0  0  0  0
   -6.7292    2.0938   -0.0000 C   0  0  0  0  0  0  0  0  0  0  0  0
   -5.3978    4.3933   -0.0000 C   0  0  0  0  0  0  0  0  0  0  0  0
   -1.4160    8.2178   -0.0000 C   0  0  0  0  0  0  0  0  0  0  0  0
    2.3116    6.0756   -0.0000 O   0  0  0  0  0  0  0  0  0  0  0  0
    1.2466    8.2299   -0.0000 N   0  0  0  0  0  0  0  0  0  0  0  0
    7.0922   -0.3268   -0.0000 C   0  0  0  0  0  0  0  0  0  0  0  0
    4.7443   -1.0893   -0.0000 C   0  0  0  0  0  0  0  0  0  0  0  0
    7.7216    1.0771   -0.0000 C   0  0  0  0  0  0  0  0  0  0  0  0
    6.5718    3.6429   -0.0000 C   0  0  0  0  0  0  0  0  0  0  0  0
   -6.7413    3.6429   -0.0000 C   0  0  0  0  0  0  0  0  0  0  0  0
   -2.7594    8.9924   -0.0000 C   0  0  0  0  0  0  0  0  0  0  0  0
    2.5658    9.0166   -0.0000 C   0  0  0  0  0  0  0  0  0  0  0  0
    9.2102    1.4160   -0.0000 C   0  0  0  0  0  0  0  0  0  0  0  0
   -7.8184    4.2723   -0.0000 O   0  0  0  0  0  0  0  0  0  0  0  0
   -2.7715   10.2390   -0.0000 C   0  0  0  0  0  0  0  0  0  0  0  0
    2.5537   10.5657   -0.0000 C   0  0  0  0  0  0  0  0  0  0  0  0
   10.3116    0.3752   -0.0000 C   0  0  0  0  0  0  0  0  0  0  0  0
    9.5491    2.9289   -0.0000 C   0  0  0  0  0  0  0  0  0  0  0  0
    3.8729   11.3524   -0.0000 C   0  0  0  0  0  0  0  0  0  0  0  0
    1.2103   11.3403   -0.0000 C   0  0  0  0  0  0  0  0  0  0  0  0
   11.7760    0.8230   -0.0000 C   0  0  0  0  0  0  0  0  0  0  0  0
   11.0135    3.3767   -0.0000 C   0  0  0  0  0  0  0  0  0  0  0  0
    3.8608   12.9016   -0.0000 C   0  0  0  0  0  0  0  0  0  0  0  0
    1.1982   12.8895   -0.0000 C   0  0  0  0  0  0  0  0  0  0  0  0
   12.1270    2.3237   -0.0000 C   0  0  0  0  0  0  0  0  0  0  0  0
    2.5174   13.6762   -0.0000 C   0  0  0  0  0  0  0  0  0  0  0  0
   13.5914    2.7715   -0.0000 N   0  0  0  0  0  0  0  0  0  0  0  0
   13.9303    4.2844   -0.0000 C   0  0  0  0  0  0  0  0  0  0  0  0
   13.0226    5.1437   -0.0000 O   0  0  0  0  0  0  0  0  0  0  0  0
   15.3948    4.7322   -0.0000 C   0  0  0  0  0  0  0  0  0  0  0  0
   15.7336    6.2450   -0.0000 C   0  0  0  0  0  0  0  0  0  0  0  0
   17.1981    6.6928   -0.0000 C   0  0  0  0  0  0  0  0  0  0  0  0
   17.5370    8.2057   -0.0000 N   0  0  0  0  0  0  0  0  0  0  0  0
   19.0014    8.6535   -0.0000 C   0  0  0  0  0  0  0  0  0  0  0  0
   19.3403   10.1664   -0.0000 C   0  0  0  0  0  0  0  0  0  0  0  0
   20.8047   10.6142   -0.0000 C   0  0  0  0  0  0  0  0  0  0  0  0
   21.0831   11.8244   -0.0000 O   0  0  0  0  0  0  0  0  0  0  0  0
   21.6882    9.7791   -0.0000 C   0  0  0  0  0  0  0  0  0  0  0  0
  1  2  2  0  0  0  0
  2  3  1  0  0  0  0
  2  4  1  0  0  0  0
  3  5  1  0  0  0  0
  3  6  1  0  0  0  0
  4  7  1  0  0  0  0
  4  8  1  6  0  0  0
  5  9  1  0  0  0  0
  6 10  1  0  0  0  0
  7 11  1  0  0  0  0
  8 12  1  0  0  0  0
  9 13  1  1  0  0  0
 10 14  2  0  0  0  0
 10 15  1  0  0  0  0
 11 16  2  0  0  0  0
 11 17  1  0  0  0  0
 12 18  2  0  0  0  0
 12 19  1  0  0  0  0
 13 20  1  0  0  0  0
 13 21  1  0  0  0  0
 14 22  1  0  0  0  0
 14 23  1  0  0  0  0
 15 24  2  0  0  0  0
 18 25  1  0  0  0  0
 19 26  2  0  0  0  0
 20 27  1  0  0  0  0
 21 28  2  0  0  0  0
 21 29  1  0  0  0  0
 22 30  1  0  0  0  0
 22 31  1  0  0  0  0
 23 32  1  0  0  0  0
 23 33  2  0  0  0  0
 25 34  2  0  0  0  0
 27 35  1  0  0  0  0
 29 36  1  0  0  0  0
 32 37  1  0  0  0  0
 34 38  1  0  0  0  0
 35 39  2  0  0  0  0
 36 40  1  0  0  0  0
 37 41  2  0  0  0  0
 37 42  1  0  0  0  0
 40 43  2  0  0  0  0
 40 44  1  0  0  0  0
 41 45  1  0  0  0  0
 42 46  2  0  0  0  0
 43 47  1  0  0  0  0
 44 48  2  0  0  0  0
 45 49  2  0  0  0  0
 47 50  2  0  0  0  0
 49 51  1  0  0  0  0
 51 52  1  0  0  0  0
 52 53  2  0  0  0  0
 52 54  1  0  0  0  0
 54 55  1  0  0  0  0
 55 56  1  0  0  0  0
 56 57  1  0  0  0  0
 57 58  1  0  0  0  0
 58 59  1  0  0  0  0
 59 60  1  0  0  0  0
 60 61  2  0  0  0  0
 60 62  1  0  0  0  0
  7  9  1  0  0  0  0
 17 20  1  0  0  0  0
 24 33  1  0  0  0  0
 26 34  1  0  0  0  0
 30 32  2  0  0  0  0
 46 49  1  0  0  0  0
 48 50  1  0  0  0  0
M  END
>  <MolRegNo>
2036000

>  <m>
=

>  <Value>
2780

>  <Unit>
nM

>  <Type>
IC50

>  <pValue>
5.56

>  <Ligand Efficiency>
0.12

>  <Binding Efficiency>
6.62

>  <Surface Efficiency>
3.48

>  <Assay Index>
974120

>  <Assay Category>


>  <Assay Organism>
Homo sapiens

>  <Target ID>
17045

>  <Target Name>
Cytochrome P450 3A4

>  <Target Organism>
Homo sapiens

>  <Target Description>
Target is a single protein chain

>  <Sequence Accession>
P08684

>  <Reference>


>  <Pubmed ID>


>  <DOI>


$$$$
2036003
Actelion Java MolfileCreator 1.0

 62 69  0  0  1  0  0  0  0  0999 V2000
    0.0000   -0.0000   -0.0000 O   0  0  0  0  0  0  0  0  0  0  0  0
   -0.0120    1.2382   -0.0000 C   0  0  0  0  0  0  0  0  0  0  0  0
    1.2983    2.0076   -0.0000 N   0  0  0  0  0  0  0  0  0  0  0  0
   -1.3464    2.0076   -0.0000 C   0  0  0  0  0  0  0  0  0  0  0  0
    1.2863    3.5464   -0.0000 C   0  0  0  0  0  0  0  0  0  0  0  0
    2.6087    1.2623   -0.0000 C   0  0  0  0  0  0  0  0  0  0  0  0
   -1.3584    3.5464   -0.0000 N   0  0  0  0  0  0  0  0  0  0  0  0
   -2.6808    1.2623   -0.0000 C   0  0  0  0  0  0  0  0  0  0  0  0
   -0.0481    4.3158   -0.0000 C   0  0  0  0  0  0  0  0  0  0  0  0
    3.9190    2.0437   -0.0000 C   0  0  0  0  0  0  0  0  0  0  0  0
   -2.6928    4.3158   -0.0000 C   0  0  0  0  0  0  0  0  0  0  0  0
   -4.0152    2.0437   -0.0000 C   0  0  0  0  0  0  0  0  0  0  0  0
   -0.0601    5.8545   -0.0000 N   0  0  0  0  0  0  0  0  0  0  0  0
    5.2294    1.2983   -0.0000 C   0  0  0  0  0  0  0  0  0  0  0  0
    3.9070    3.5824   -0.0000 C   0  0  0  0  0  0  0  0  0  0  0  0
   -3.7628    3.7147   -0.0000 O   0  0  0  0  0  0  0  0  0  0  0  0
   -2.7049    5.8545   -0.0000 C   0  0  0  0  0  0  0  0  0  0  0  0
   -5.3496    1.2983   -0.0000 C   0  0  0  0  0  0  0  0  0  0  0  0
   -4.0272    3.5824   -0.0000 C   0  0  0  0  0  0  0  0  0  0  0  0
   -1.3945    6.6239   -0.0000 N   0  0  0  0  0  0  0  0  0  0  0  0
    1.2502    6.6359   -0.0000 C   0  0  0  0  0  0  0  0  0  0  0  0
    5.5420   -0.1803   -0.0000 N   0  0  0  0  0  0  0  0  0  0  0  0
    6.5398    2.0797   -0.0000 C   0  0  0  0  0  0  0  0  0  0  0  0
    5.2174    4.3638   -0.0000 C   0  0  0  0  0  0  0  0  0  0  0  0
   -6.6840    2.0797   -0.0000 C   0  0  0  0  0  0  0  0  0  0  0  0
   -5.3616    4.3638   -0.0000 C   0  0  0  0  0  0  0  0  0  0  0  0
   -1.4065    8.1627   -0.0000 C   0  0  0  0  0  0  0  0  0  0  0  0
    2.2961    6.0348   -0.0000 O   0  0  0  0  0  0  0  0  0  0  0  0
    1.2382    8.1747   -0.0000 N   0  0  0  0  0  0  0  0  0  0  0  0
    7.0447   -0.3246   -0.0000 C   0  0  0  0  0  0  0  0  0  0  0  0
    4.7125   -1.0819   -0.0000 C   0  0  0  0  0  0  0  0  0  0  0  0
    7.6698    1.0699   -0.0000 C   0  0  0  0  0  0  0  0  0  0  0  0
    6.5277    3.6185   -0.0000 C   0  0  0  0  0  0  0  0  0  0  0  0
   -6.6960    3.6185   -0.0000 C   0  0  0  0  0  0  0  0  0  0  0  0
   -2.7409    8.9321   -0.0000 C   0  0  0  0  0  0  0  0  0  0  0  0
    2.5486    8.9561   -0.0000 C   0  0  0  0  0  0  0  0  0  0  0  0
    9.1484    1.4065   -0.0000 C   0  0  0  0  0  0  0  0  0  0  0  0
   -7.7660    4.2436   -0.0000 O   0  0  0  0  0  0  0  0  0  0  0  0
   -2.7529   10.1703   -0.0000 C   0  0  0  0  0  0  0  0  0  0  0  0
    2.5366   10.4949   -0.0000 C   0  0  0  0  0  0  0  0  0  0  0  0
   10.2424    0.3727   -0.0000 C   0  0  0  0  0  0  0  0  0  0  0  0
    9.4850    2.9092   -0.0000 C   0  0  0  0  0  0  0  0  0  0  0  0
    3.8469   11.2763   -0.0000 C   0  0  0  0  0  0  0  0  0  0  0  0
    1.2022   11.2642   -0.0000 C   0  0  0  0  0  0  0  0  0  0  0  0
   11.6970    0.8175   -0.0000 C   0  0  0  0  0  0  0  0  0  0  0  0
   10.9397    3.3540   -0.0000 C   0  0  0  0  0  0  0  0  0  0  0  0
    3.8349   12.8150   -0.0000 C   0  0  0  0  0  0  0  0  0  0  0  0
    1.1901   12.8030   -0.0000 C   0  0  0  0  0  0  0  0  0  0  0  0
   12.0456    2.3081   -0.0000 C   0  0  0  0  0  0  0  0  0  0  0  0
    2.5005   13.5844   -0.0000 C   0  0  0  0  0  0  0  0  0  0  0  0
   13.5003    2.7529   -0.0000 N   0  0  0  0  0  0  0  0  0  0  0  0
   13.8369    4.2556   -0.0000 C   0  0  0  0  0  0  0  0  0  0  0  0
   12.9352    5.1092   -0.0000 O   0  0  0  0  0  0  0  0  0  0  0  0
   15.2915    4.7004   -0.0000 N   0  0  0  0  0  0  0  0  0  0  0  0
   15.6281    6.2031   -0.0000 C   0  0  0  0  0  0  0  0  0  0  0  0
   17.0827    6.6479   -0.0000 C   0  0  0  0  0  0  0  0  0  0  0  0
   17.4193    8.1506   -0.0000 C   0  0  0  0  0  0  0  0  0  0  0  0
   18.8739    8.6075   -0.0000 C   0  0  0  0  0  0  0  0  0  0  0  0
   16.3013    9.2085   -0.0000 C   0  0  0  0  0  0  0  0  0  0  0  0
   19.2105   10.1102   -0.0000 C   0  0  0  0  0  0  0  0  0  0  0  0
   16.6379   10.7112   -0.0000 C   0  0  0  0  0  0  0  0  0  0  0  0
   18.0925   11.1681   -0.0000 C   0  0  0  0  0  0  0  0  0  0  0  0
  1  2  2  0  0  0  0
  2  3  1  0  0  0  0
  2  4  1  0  0  0  0
  3  5  1  0  0  0  0
  3  6  1  0  0  0  0
  4  7  1  0  0  0  0
  4  8  1  6  0  0  0
  5  9  1  0  0  0  0
  6 10  1  0  0  0  0
  7 11  1  0  0  0  0
  8 12  1  0  0  0  0
  9 13  1  1  0  0  0
 10 14  2  0  0  0  0
 10 15  1  0  0  0  0
 11 16  2  0  0  0  0
 11 17  1  0  0  0  0
 12 18  2  0  0  0  0
 12 19  1  0  0  0  0
 13 20  1  0  0  0  0
 13 21  1  0  0  0  0
 14 22  1  0  0  0  0
 14 23  1  0  0  0  0
 15 24  2  0  0  0  0
 18 25  1  0  0  0  0
 19 26  2  0  0  0  0
 20 27  1  0  0  0  0
 21 28  2  0  0  0  0
 21 29  1  0  0  0  0
 22 30  1  0  0  0  0
 22 31  1  0  0  0  0
 23 32  1  0  0  0  0
 23 33  2  0  0  0  0
 25 34  2  0  0  0  0
 27 35  1  0  0  0  0
 29 36  1  0  0  0  0
 32 37  1  0  0  0  0
 34 38  1  0  0  0  0
 35 39  2  0  0  0  0
 36 40  1  0  0  0  0
 37 41  2  0  0  0  0
 37 42  1  0  0  0  0
 40 43  2  0  0  0  0
 40 44  1  0  0  0  0
 41 45  1  0  0  0  0
 42 46  2  0  0  0  0
 43 47  1  0  0  0  0
 44 48  2  0  0  0  0
 45 49  2  0  0  0  0
 47 50  2  0  0  0  0
 49 51  1  0  0  0  0
 51 52  1  0  0  0  0
 52 53  2  0  0  0  0
 52 54  1  0  0  0  0
 54 55  1  0  0  0  0
 55 56  1  0  0  0  0
 56 57  1  0  0  0  0
 57 58  2  0  0  0  0
 57 59  1  0  0  0  0
 58 60  1  0  0  0  0
 59 61  2  0  0  0  0
 60 62  2  0  0  0  0
  7  9  1  0  0  0  0
 17 20  1  0  0  0  0
 24 33  1  0  0  0  0
 26 34  1  0  0  0  0
 30 32  2  0  0  0  0
 46 49  1  0  0  0  0
 48 50  1  0  0  0  0
 61 62  1  0  0  0  0
M  END
>  <MolRegNo>
2036003

>  <m>
=

>  <Value>
10500

>  <Unit>
nM

>  <Type>
IC50

>  <pValue>
4.98

>  <Ligand Efficiency>
0.11

>  <Binding Efficiency>
5.99

>  <Surface Efficiency>
3.49

>  <Assay Index>
974120

>  <Assay Category>


>  <Assay Organism>
Homo sapiens

>  <Target ID>
17045

>  <Target Name>
Cytochrome P450 3A4

>  <Target Organism>
Homo sapiens

>  <Target Description>
Target is a single protein chain

>  <Sequence Accession>
P08684

>  <Reference>


>  <Pubmed ID>


>  <DOI>


$$$$
2036004
Actelion Java MolfileCreator 1.0

 62 69  0  0  1  0  0  0  0  0999 V2000
    0.0000   -0.0000   -0.0000 O   0  0  0  0  0  0  0  0  0  0  0  0
   -0.0121    1.2416   -0.0000 C   0  0  0  0  0  0  0  0  0  0  0  0
    1.3018    2.0130   -0.0000 N   0  0  0  0  0  0  0  0  0  0  0  0
   -1.3501    2.0130   -0.0000 C   0  0  0  0  0  0  0  0  0  0  0  0
    1.2898    3.5560   -0.0000 C   0  0  0  0  0  0  0  0  0  0  0  0
    2.6158    1.2657   -0.0000 C   0  0  0  0  0  0  0  0  0  0  0  0
   -1.3621    3.5560   -0.0000 N   0  0  0  0  0  0  0  0  0  0  0  0
   -2.6881    1.2657   -0.0000 C   0  0  0  0  0  0  0  0  0  0  0  0
   -0.0482    4.3274   -0.0000 C   0  0  0  0  0  0  0  0  0  0  0  0
    3.9297    2.0492   -0.0000 C   0  0  0  0  0  0  0  0  0  0  0  0
   -2.7001    4.3274   -0.0000 C   0  0  0  0  0  0  0  0  0  0  0  0
   -4.0261    2.0492   -0.0000 C   0  0  0  0  0  0  0  0  0  0  0  0
   -0.0603    5.8704   -0.0000 N   0  0  0  0  0  0  0  0  0  0  0  0
    5.2436    1.3018   -0.0000 C   0  0  0  0  0  0  0  0  0  0  0  0
    3.9176    3.5921   -0.0000 C   0  0  0  0  0  0  0  0  0  0  0  0
   -3.7730    3.7247   -0.0000 O   0  0  0  0  0  0  0  0  0  0  0  0
   -2.7122    5.8704   -0.0000 C   0  0  0  0  0  0  0  0  0  0  0  0
   -5.3641    1.3018   -0.0000 C   0  0  0  0  0  0  0  0  0  0  0  0
   -4.0381    3.5921   -0.0000 C   0  0  0  0  0  0  0  0  0  0  0  0
   -1.3983    6.6418   -0.0000 N   0  0  0  0  0  0  0  0  0  0  0  0
    1.2536    6.6539   -0.0000 C   0  0  0  0  0  0  0  0  0  0  0  0
    5.5570   -0.1808   -0.0000 N   0  0  0  0  0  0  0  0  0  0  0  0
    6.5575    2.0854   -0.0000 C   0  0  0  0  0  0  0  0  0  0  0  0
    5.2315    4.3757   -0.0000 C   0  0  0  0  0  0  0  0  0  0  0  0
   -6.7021    2.0854   -0.0000 C   0  0  0  0  0  0  0  0  0  0  0  0
   -5.3762    4.3757   -0.0000 C   0  0  0  0  0  0  0  0  0  0  0  0
   -1.4103    8.1848   -0.0000 C   0  0  0  0  0  0  0  0  0  0  0  0
    2.3023    6.0512   -0.0000 O   0  0  0  0  0  0  0  0  0  0  0  0
    1.2416    8.1968   -0.0000 N   0  0  0  0  0  0  0  0  0  0  0  0
    7.0637   -0.3255   -0.0000 C   0  0  0  0  0  0  0  0  0  0  0  0
    4.7252   -1.0849   -0.0000 C   0  0  0  0  0  0  0  0  0  0  0  0
    7.6906    1.0728   -0.0000 C   0  0  0  0  0  0  0  0  0  0  0  0
    6.5454    3.6283   -0.0000 C   0  0  0  0  0  0  0  0  0  0  0  0
   -6.7142    3.6283   -0.0000 C   0  0  0  0  0  0  0  0  0  0  0  0
   -2.7483    8.9562   -0.0000 C   0  0  0  0  0  0  0  0  0  0  0  0
    2.5555    8.9803   -0.0000 C   0  0  0  0  0  0  0  0  0  0  0  0
    9.1732    1.4103   -0.0000 C   0  0  0  0  0  0  0  0  0  0  0  0
   -7.7870    4.2551   -0.0000 O   0  0  0  0  0  0  0  0  0  0  0  0
   -2.7604   10.1978   -0.0000 C   0  0  0  0  0  0  0  0  0  0  0  0
    2.5434   10.5233   -0.0000 C   0  0  0  0  0  0  0  0  0  0  0  0
   10.2701    0.3737   -0.0000 C   0  0  0  0  0  0  0  0  0  0  0  0
    9.5107    2.9171   -0.0000 C   0  0  0  0  0  0  0  0  0  0  0  0
    3.8573   11.3068   -0.0000 C   0  0  0  0  0  0  0  0  0  0  0  0
    1.2054   11.2947   -0.0000 C   0  0  0  0  0  0  0  0  0  0  0  0
   11.7287    0.8197   -0.0000 C   0  0  0  0  0  0  0  0  0  0  0  0
   10.9693    3.3631   -0.0000 C   0  0  0  0  0  0  0  0  0  0  0  0
    3.8453   12.8497   -0.0000 C   0  0  0  0  0  0  0  0  0  0  0  0
    1.1934   12.8377   -0.0000 C   0  0  0  0  0  0  0  0  0  0  0  0
   12.0783    2.3144   -0.0000 C   0  0  0  0  0  0  0  0  0  0  0  0
    2.5073   13.6212   -0.0000 C   0  0  0  0  0  0  0  0  0  0  0  0
   13.5368    2.7604   -0.0000 N   0  0  0  0  0  0  0  0  0  0  0  0
   13.8743    4.2672   -0.0000 C   0  0  0  0  0  0  0  0  0  0  0  0
   12.9703    5.1230   -0.0000 O   0  0  0  0  0  0  0  0  0  0  0  0
   15.3329    4.7132   -0.0000 N   0  0  0  0  0  0  0  0  0  0  0  0
   15.6704    6.2199   -0.0000 C   0  0  0  0  0  0  0  0  0  0  0  0
   17.1290    6.6780   -0.0000 C   0  0  0  0  0  0  0  0  0  0  0  0
   14.5494    7.2807   -0.0000 C   0  0  0  0  0  0  0  0  0  0  0  0
   17.4665    8.1848   -0.0000 C   0  0  0  0  0  0  0  0  0  0  0  0
   14.8869    8.7875   -0.0000 C   0  0  0  0  0  0  0  0  0  0  0  0
   16.3454    9.2455   -0.0000 C   0  0  0  0  0  0  0  0  0  0  0  0
   16.6830   10.7523   -0.0000 O   0  0  0  0  0  0  0  0  0  0  0  0
   15.7789   11.6082   -0.0000 C   0  0  0  0  0  0  0  0  0  0  0  0
  1  2  2  0  0  0  0
  2  3  1  0  0  0  0
  2  4  1  0  0  0  0
  3  5  1  0  0  0  0
  3  6  1  0  0  0  0
  4  7  1  0  0  0  0
  4  8  1  6  0  0  0
  5  9  1  0  0  0  0
  6 10  1  0  0  0  0
  7 11  1  0  0  0  0
  8 12  1  0  0  0  0
  9 13  1  1  0  0  0
 10 14  2  0  0  0  0
 10 15  1  0  0  0  0
 11 16  2  0  0  0  0
 11 17  1  0  0  0  0
 12 18  2  0  0  0  0
 12 19  1  0  0  0  0
 13 20  1  0  0  0  0
 13 21  1  0  0  0  0
 14 22  1  0  0  0  0
 14 23  1  0  0  0  0
 15 24  2  0  0  0  0
 18 25  1  0  0  0  0
 19 26  2  0  0  0  0
 20 27  1  0  0  0  0
 21 28  2  0  0  0  0
 21 29  1  0  0  0  0
 22 30  1  0  0  0  0
 22 31  1  0  0  0  0
 23 32  1  0  0  0  0
 23 33  2  0  0  0  0
 25 34  2  0  0  0  0
 27 35  1  0  0  0  0
 29 36  1  0  0  0  0
 32 37  1  0  0  0  0
 34 38  1  0  0  0  0
 35 39  2  0  0  0  0
 36 40  1  0  0  0  0
 37 41  2  0  0  0  0
 37 42  1  0  0  0  0
 40 43  2  0  0  0  0
 40 44  1  0  0  0  0
 41 45  1  0  0  0  0
 42 46  2  0  0  0  0
 43 47  1  0  0  0  0
 44 48  2  0  0  0  0
 45 49  2  0  0  0  0
 47 50  2  0  0  0  0
 49 51  1  0  0  0  0
 51 52  1  0  0  0  0
 52 53  2  0  0  0  0
 52 54  1  0  0  0  0
 54 55  1  0  0  0  0
 55 56  2  0  0  0  0
 55 57  1  0  0  0  0
 56 58  1  0  0  0  0
 57 59  2  0  0  0  0
 58 60  2  0  0  0  0
 60 61  1  0  0  0  0
 61 62  1  0  0  0  0
  7  9  1  0  0  0  0
 17 20  1  0  0  0  0
 24 33  1  0  0  0  0
 26 34  1  0  0  0  0
 30 32  2  0  0  0  0
 46 49  1  0  0  0  0
 48 50  1  0  0  0  0
 59 60  1  0  0  0  0
M  END
>  <MolRegNo>
2036004

>  <m>
=

>  <Value>
9480

>  <Unit>
nM

>  <Type>
IC50

>  <pValue>
5.02

>  <Ligand Efficiency>
0.11

>  <Binding Efficiency>
6.03

>  <Surface Efficiency>
3.31

>  <Assay Index>
974120

>  <Assay Category>


>  <Assay Organism>
Homo sapiens

>  <Target ID>
17045

>  <Target Name>
Cytochrome P450 3A4

>  <Target Organism>
Homo sapiens

>  <Target Description>
Target is a single protein chain

>  <Sequence Accession>
P08684

>  <Reference>


>  <Pubmed ID>


>  <DOI>


$$$$
2036005
Actelion Java MolfileCreator 1.0

 59 66  0  0  1  0  0  0  0  0999 V2000
    0.0000   -0.0000   -0.0000 O   0  0  0  0  0  0  0  0  0  0  0  0
   -0.0120    1.2399   -0.0000 C   0  0  0  0  0  0  0  0  0  0  0  0
    1.3001    2.0104   -0.0000 N   0  0  0  0  0  0  0  0  0  0  0  0
   -1.3483    2.0104   -0.0000 C   0  0  0  0  0  0  0  0  0  0  0  0
    1.2881    3.5513   -0.0000 C   0  0  0  0  0  0  0  0  0  0  0  0
    2.6123    1.2640   -0.0000 C   0  0  0  0  0  0  0  0  0  0  0  0
   -1.3603    3.5513   -0.0000 N   0  0  0  0  0  0  0  0  0  0  0  0
   -2.6845    1.2640   -0.0000 C   0  0  0  0  0  0  0  0  0  0  0  0
   -0.0482    4.3217   -0.0000 C   0  0  0  0  0  0  0  0  0  0  0  0
    3.9245    2.0465   -0.0000 C   0  0  0  0  0  0  0  0  0  0  0  0
   -2.6966    4.3217   -0.0000 C   0  0  0  0  0  0  0  0  0  0  0  0
   -4.0208    2.0465   -0.0000 C   0  0  0  0  0  0  0  0  0  0  0  0
   -0.0602    5.8626   -0.0000 N   0  0  0  0  0  0  0  0  0  0  0  0
    5.2366    1.3001   -0.0000 C   0  0  0  0  0  0  0  0  0  0  0  0
    3.9124    3.5874   -0.0000 C   0  0  0  0  0  0  0  0  0  0  0  0
   -3.7680    3.7198   -0.0000 O   0  0  0  0  0  0  0  0  0  0  0  0
   -2.7086    5.8626   -0.0000 C   0  0  0  0  0  0  0  0  0  0  0  0
   -5.3570    1.3001   -0.0000 C   0  0  0  0  0  0  0  0  0  0  0  0
   -4.0328    3.5874   -0.0000 C   0  0  0  0  0  0  0  0  0  0  0  0
   -1.3964    6.6331   -0.0000 N   0  0  0  0  0  0  0  0  0  0  0  0
    1.2520    6.6451   -0.0000 C   0  0  0  0  0  0  0  0  0  0  0  0
    5.5496   -0.1806   -0.0000 N   0  0  0  0  0  0  0  0  0  0  0  0
    6.5488    2.0826   -0.0000 C   0  0  0  0  0  0  0  0  0  0  0  0
    5.2246    4.3699   -0.0000 C   0  0  0  0  0  0  0  0  0  0  0  0
   -6.6933    2.0826   -0.0000 C   0  0  0  0  0  0  0  0  0  0  0  0
   -5.3690    4.3699   -0.0000 C   0  0  0  0  0  0  0  0  0  0  0  0
   -1.4085    8.1740   -0.0000 C   0  0  0  0  0  0  0  0  0  0  0  0
    2.2993    6.0432   -0.0000 O   0  0  0  0  0  0  0  0  0  0  0  0
    1.2399    8.1860   -0.0000 N   0  0  0  0  0  0  0  0  0  0  0  0
    7.0544   -0.3250   -0.0000 C   0  0  0  0  0  0  0  0  0  0  0  0
    4.7190   -1.0834   -0.0000 C   0  0  0  0  0  0  0  0  0  0  0  0
    7.6804    1.0714   -0.0000 C   0  0  0  0  0  0  0  0  0  0  0  0
    6.5368    3.6235   -0.0000 C   0  0  0  0  0  0  0  0  0  0  0  0
   -6.7053    3.6235   -0.0000 C   0  0  0  0  0  0  0  0  0  0  0  0
   -2.7447    8.9444   -0.0000 C   0  0  0  0  0  0  0  0  0  0  0  0
    2.5521    8.9685   -0.0000 C   0  0  0  0  0  0  0  0  0  0  0  0
    9.1611    1.4085   -0.0000 C   0  0  0  0  0  0  0  0  0  0  0  0
   -7.7767    4.2495   -0.0000 O   0  0  0  0  0  0  0  0  0  0  0  0
   -2.7568   10.1843   -0.0000 C   0  0  0  0  0  0  0  0  0  0  0  0
    2.5401   10.5094   -0.0000 C   0  0  0  0  0  0  0  0  0  0  0  0
   10.2566    0.3732   -0.0000 C   0  0  0  0  0  0  0  0  0  0  0  0
    9.4982    2.9132   -0.0000 C   0  0  0  0  0  0  0  0  0  0  0  0
    3.8522   11.2919   -0.0000 C   0  0  0  0  0  0  0  0  0  0  0  0
    1.2038   11.2798   -0.0000 C   0  0  0  0  0  0  0  0  0  0  0  0
   11.7132    0.8186   -0.0000 C   0  0  0  0  0  0  0  0  0  0  0  0
   10.9548    3.3587   -0.0000 C   0  0  0  0  0  0  0  0  0  0  0  0
    3.8402   12.8327   -0.0000 C   0  0  0  0  0  0  0  0  0  0  0  0
    1.1918   12.8207   -0.0000 C   0  0  0  0  0  0  0  0  0  0  0  0
   12.0623    2.3113   -0.0000 C   0  0  0  0  0  0  0  0  0  0  0  0
    2.5039   13.6032   -0.0000 C   0  0  0  0  0  0  0  0  0  0  0  0
   13.5189    2.7568   -0.0000 N   0  0  0  0  0  0  0  0  0  0  0  0
   13.8560    4.2615   -0.0000 C   0  0  0  0  0  0  0  0  0  0  0  0
   12.9531    5.1162   -0.0000 O   0  0  0  0  0  0  0  0  0  0  0  0
   15.3126    4.7069   -0.0000 N   0  0  0  0  0  0  0  0  0  0  0  0
   15.6497    6.2117   -0.0000 C   0  0  0  0  0  0  0  0  0  0  0  0
   17.0461    6.7896   -0.0000 C   0  0  0  0  0  0  0  0  0  0  0  0
   14.6385    7.3554   -0.0000 C   0  0  0  0  0  0  0  0  0  0  0  0
   16.9137    8.3304   -0.0000 C   0  0  0  0  0  0  0  0  0  0  0  0
   15.4210    8.6675   -0.0000 C   0  0  0  0  0  0  0  0  0  0  0  0
  1  2  2  0  0  0  0
  2  3  1  0  0  0  0
  2  4  1  0  0  0  0
  3  5  1  0  0  0  0
  3  6  1  0  0  0  0
  4  7  1  0  0  0  0
  4  8  1  6  0  0  0
  5  9  1  0  0  0  0
  6 10  1  0  0  0  0
  7 11  1  0  0  0  0
  8 12  1  0  0  0  0
  9 13  1  1  0  0  0
 10 14  2  0  0  0  0
 10 15  1  0  0  0  0
 11 16  2  0  0  0  0
 11 17  1  0  0  0  0
 12 18  2  0  0  0  0
 12 19  1  0  0  0  0
 13 20  1  0  0  0  0
 13 21  1  0  0  0  0
 14 22  1  0  0  0  0
 14 23  1  0  0  0  0
 15 24  2  0  0  0  0
 18 25  1  0  0  0  0
 19 26  2  0  0  0  0
 20 27  1  0  0  0  0
 21 28  2  0  0  0  0
 21 29  1  0  0  0  0
 22 30  1  0  0  0  0
 22 31  1  0  0  0  0
 23 32  1  0  0  0  0
 23 33  2  0  0  0  0
 25 34  2  0  0  0  0
 27 35  1  0  0  0  0
 29 36  1  0  0  0  0
 32 37  1  0  0  0  0
 34 38  1  0  0  0  0
 35 39  2  0  0  0  0
 36 40  1  0  0  0  0
 37 41  2  0  0  0  0
 37 42  1  0  0  0  0
 40 43  2  0  0  0  0
 40 44  1  0  0  0  0
 41 45  1  0  0  0  0
 42 46  2  0  0  0  0
 43 47  1  0  0  0  0
 44 48  2  0  0  0  0
 45 49  2  0  0  0  0
 47 50  2  0  0  0  0
 49 51  1  0  0  0  0
 51 52  1  0  0  0  0
 52 53  2  0  0  0  0
 52 54  1  0  0  0  0
 54 55  1  0  0  0  0
 55 56  1  0  0  0  0
 55 57  1  0  0  0  0
 56 58  1  0  0  0  0
 57 59  1  0  0  0  0
  7  9  1  0  0  0  0
 17 20  1  0  0  0  0
 24 33  1  0  0  0  0
 26 34  1  0  0  0  0
 30 32  2  0  0  0  0
 46 49  1  0  0  0  0
 48 50  1  0  0  0  0
 58 59  1  0  0  0  0
M  END
>  <MolRegNo>
2036005

>  <m>
=

>  <Value>
7800

>  <Unit>
nM

>  <Type>
IC50

>  <pValue>
5.11

>  <Ligand Efficiency>
0.12

>  <Binding Efficiency>
6.43

>  <Surface Efficiency>
3.58

>  <Assay Index>
974120

>  <Assay Category>


>  <Assay Organism>
Homo sapiens

>  <Target ID>
17045

>  <Target Name>
Cytochrome P450 3A4

>  <Target Organism>
Homo sapiens

>  <Target Description>
Target is a single protein chain

>  <Sequence Accession>
P08684

>  <Reference>


>  <Pubmed ID>


>  <DOI>


$$$$
2036006
Actelion Java MolfileCreator 1.0

 60 67  0  0  1  0  0  0  0  0999 V2000
    0.0000   -0.0000   -0.0000 O   0  0  0  0  0  0  0  0  0  0  0  0
   -0.0120    1.2390   -0.0000 C   0  0  0  0  0  0  0  0  0  0  0  0
    1.2991    2.0088   -0.0000 N   0  0  0  0  0  0  0  0  0  0  0  0
   -1.3472    2.0088   -0.0000 C   0  0  0  0  0  0  0  0  0  0  0  0
    1.2871    3.5485   -0.0000 C   0  0  0  0  0  0  0  0  0  0  0  0
    2.6103    1.2630   -0.0000 C   0  0  0  0  0  0  0  0  0  0  0  0
   -1.3593    3.5485   -0.0000 N   0  0  0  0  0  0  0  0  0  0  0  0
   -2.6824    1.2630   -0.0000 C   0  0  0  0  0  0  0  0  0  0  0  0
   -0.0481    4.3184   -0.0000 C   0  0  0  0  0  0  0  0  0  0  0  0
    3.9214    2.0449   -0.0000 C   0  0  0  0  0  0  0  0  0  0  0  0
   -2.6945    4.3184   -0.0000 C   0  0  0  0  0  0  0  0  0  0  0  0
   -4.0177    2.0449   -0.0000 C   0  0  0  0  0  0  0  0  0  0  0  0
   -0.0601    5.8581   -0.0000 N   0  0  0  0  0  0  0  0  0  0  0  0
    5.2326    1.2991   -0.0000 C   0  0  0  0  0  0  0  0  0  0  0  0
    3.9094    3.5846   -0.0000 C   0  0  0  0  0  0  0  0  0  0  0  0
   -3.7650    3.7169   -0.0000 O   0  0  0  0  0  0  0  0  0  0  0  0
   -2.7065    5.8581   -0.0000 C   0  0  0  0  0  0  0  0  0  0  0  0
   -5.3529    1.2991   -0.0000 C   0  0  0  0  0  0  0  0  0  0  0  0
   -4.0297    3.5846   -0.0000 C   0  0  0  0  0  0  0  0  0  0  0  0
   -1.3954    6.6279   -0.0000 N   0  0  0  0  0  0  0  0  0  0  0  0
    1.2510    6.6400   -0.0000 C   0  0  0  0  0  0  0  0  0  0  0  0
    5.5453   -0.1804   -0.0000 N   0  0  0  0  0  0  0  0  0  0  0  0
    6.5437    2.0810   -0.0000 C   0  0  0  0  0  0  0  0  0  0  0  0
    5.2205    4.3665   -0.0000 C   0  0  0  0  0  0  0  0  0  0  0  0
   -6.6881    2.0810   -0.0000 C   0  0  0  0  0  0  0  0  0  0  0  0
   -5.3649    4.3665   -0.0000 C   0  0  0  0  0  0  0  0  0  0  0  0
   -1.4074    8.1676   -0.0000 C   0  0  0  0  0  0  0  0  0  0  0  0
    2.2975    6.0385   -0.0000 O   0  0  0  0  0  0  0  0  0  0  0  0
    1.2390    8.1797   -0.0000 N   0  0  0  0  0  0  0  0  0  0  0  0
    7.0489   -0.3248   -0.0000 C   0  0  0  0  0  0  0  0  0  0  0  0
    4.7153   -1.0826   -0.0000 C   0  0  0  0  0  0  0  0  0  0  0  0
    7.6744    1.0706   -0.0000 C   0  0  0  0  0  0  0  0  0  0  0  0
    6.5317    3.6207   -0.0000 C   0  0  0  0  0  0  0  0  0  0  0  0
   -6.7001    3.6207   -0.0000 C   0  0  0  0  0  0  0  0  0  0  0  0
   -2.7426    8.9375   -0.0000 C   0  0  0  0  0  0  0  0  0  0  0  0
    2.5501    8.9615   -0.0000 C   0  0  0  0  0  0  0  0  0  0  0  0
    9.1540    1.4074   -0.0000 C   0  0  0  0  0  0  0  0  0  0  0  0
   -7.7707    4.2462   -0.0000 O   0  0  0  0  0  0  0  0  0  0  0  0
   -2.7546   10.1765   -0.0000 C   0  0  0  0  0  0  0  0  0  0  0  0
    2.5381   10.5012   -0.0000 C   0  0  0  0  0  0  0  0  0  0  0  0
   10.2486    0.3729   -0.0000 C   0  0  0  0  0  0  0  0  0  0  0  0
    9.4908    2.9110   -0.0000 C   0  0  0  0  0  0  0  0  0  0  0  0
    3.8493   11.2831   -0.0000 C   0  0  0  0  0  0  0  0  0  0  0  0
    1.2029   11.2711   -0.0000 C   0  0  0  0  0  0  0  0  0  0  0  0
   11.7041    0.8180   -0.0000 C   0  0  0  0  0  0  0  0  0  0  0  0
   10.9463    3.3561   -0.0000 C   0  0  0  0  0  0  0  0  0  0  0  0
    3.8372   12.8228   -0.0000 C   0  0  0  0  0  0  0  0  0  0  0  0
    1.1909   12.8108   -0.0000 C   0  0  0  0  0  0  0  0  0  0  0  0
   12.0530    2.3096   -0.0000 C   0  0  0  0  0  0  0  0  0  0  0  0
    2.5020   13.5927   -0.0000 C   0  0  0  0  0  0  0  0  0  0  0  0
   13.5085    2.7546   -0.0000 N   0  0  0  0  0  0  0  0  0  0  0  0
   13.8453    4.2582   -0.0000 C   0  0  0  0  0  0  0  0  0  0  0  0
   12.9431    5.1123   -0.0000 O   0  0  0  0  0  0  0  0  0  0  0  0
   15.3008    4.7033   -0.0000 N   0  0  0  0  0  0  0  0  0  0  0  0
   15.6376    6.2069   -0.0000 C   0  0  0  0  0  0  0  0  0  0  0  0
   17.0931    6.6640   -0.0000 N   0  0  0  0  0  0  0  0  0  0  0  0
   14.5189    7.2655   -0.0000 N   0  0  0  0  0  0  0  0  0  0  0  0
   17.4299    8.1676   -0.0000 C   0  0  0  0  0  0  0  0  0  0  0  0
   14.8557    8.7691   -0.0000 C   0  0  0  0  0  0  0  0  0  0  0  0
   16.3112    9.2262   -0.0000 C   0  0  0  0  0  0  0  0  0  0  0  0
  1  2  2  0  0  0  0
  2  3  1  0  0  0  0
  2  4  1  0  0  0  0
  3  5  1  0  0  0  0
  3  6  1  0  0  0  0
  4  7  1  0  0  0  0
  4  8  1  6  0  0  0
  5  9  1  0  0  0  0
  6 10  1  0  0  0  0
  7 11  1  0  0  0  0
  8 12  1  0  0  0  0
  9 13  1  1  0  0  0
 10 14  2  0  0  0  0
 10 15  1  0  0  0  0
 11 16  2  0  0  0  0
 11 17  1  0  0  0  0
 12 18  2  0  0  0  0
 12 19  1  0  0  0  0
 13 20  1  0  0  0  0
 13 21  1  0  0  0  0
 14 22  1  0  0  0  0
 14 23  1  0  0  0  0
 15 24  2  0  0  0  0
 18 25  1  0  0  0  0
 19 26  2  0  0  0  0
 20 27  1  0  0  0  0
 21 28  2  0  0  0  0
 21 29  1  0  0  0  0
 22 30  1  0  0  0  0
 22 31  1  0  0  0  0
 23 32  1  0  0  0  0
 23 33  2  0  0  0  0
 25 34  2  0  0  0  0
 27 35  1  0  0  0  0
 29 36  1  0  0  0  0
 32 37  1  0  0  0  0
 34 38  1  0  0  0  0
 35 39  2  0  0  0  0
 36 40  1  0  0  0  0
 37 41  2  0  0  0  0
 37 42  1  0  0  0  0
 40 43  2  0  0  0  0
 40 44  1  0  0  0  0
 41 45  1  0  0  0  0
 42 46  2  0  0  0  0
 43 47  1  0  0  0  0
 44 48  2  0  0  0  0
 45 49  2  0  0  0  0
 47 50  2  0  0  0  0
 49 51  1  0  0  0  0
 51 52  1  0  0  0  0
 52 53  2  0  0  0  0
 52 54  1  0  0  0  0
 54 55  1  0  0  0  0
 55 56  2  0  0  0  0
 55 57  1  0  0  0  0
 56 58  1  0  0  0  0
 57 59  2  0  0  0  0
 58 60  2  0  0  0  0
  7  9  1  0  0  0  0
 17 20  1  0  0  0  0
 24 33  1  0  0  0  0
 26 34  1  0  0  0  0
 30 32  2  0  0  0  0
 46 49  1  0  0  0  0
 48 50  1  0  0  0  0
 59 60  1  0  0  0  0
M  END
>  <MolRegNo>
2036006

>  <m>
=

>  <Value>
8520

>  <Unit>
nM

>  <Type>
IC50

>  <pValue>
5.07

>  <Ligand Efficiency>
0.12

>  <Binding Efficiency>
6.3

>  <Surface Efficiency>
3.01

>  <Assay Index>
974120

>  <Assay Category>


>  <Assay Organism>
Homo sapiens

>  <Target ID>
17045

>  <Target Name>
Cytochrome P450 3A4

>  <Target Organism>
Homo sapiens

>  <Target Description>
Target is a single protein chain

>  <Sequence Accession>
P08684

>  <Reference>


>  <Pubmed ID>


>  <DOI>


$$$$
2036007
Actelion Java MolfileCreator 1.0

 60 67  0  0  1  0  0  0  0  0999 V2000
    0.0000   -0.0000   -0.0000 O   0  0  0  0  0  0  0  0  0  0  0  0
   -0.0120    1.2390   -0.0000 C   0  0  0  0  0  0  0  0  0  0  0  0
    1.2991    2.0088   -0.0000 N   0  0  0  0  0  0  0  0  0  0  0  0
   -1.3472    2.0088   -0.0000 C   0  0  0  0  0  0  0  0  0  0  0  0
    1.2871    3.5485   -0.0000 C   0  0  0  0  0  0  0  0  0  0  0  0
    2.6103    1.2630   -0.0000 C   0  0  0  0  0  0  0  0  0  0  0  0
   -1.3593    3.5485   -0.0000 N   0  0  0  0  0  0  0  0  0  0  0  0
   -2.6824    1.2630   -0.0000 C   0  0  0  0  0  0  0  0  0  0  0  0
   -0.0481    4.3184   -0.0000 C   0  0  0  0  0  0  0  0  0  0  0  0
    3.9214    2.0449   -0.0000 C   0  0  0  0  0  0  0  0  0  0  0  0
   -2.6945    4.3184   -0.0000 C   0  0  0  0  0  0  0  0  0  0  0  0
   -4.0177    2.0449   -0.0000 C   0  0  0  0  0  0  0  0  0  0  0  0
   -0.0601    5.8581   -0.0000 N   0  0  0  0  0  0  0  0  0  0  0  0
    5.2326    1.2991   -0.0000 C   0  0  0  0  0  0  0  0  0  0  0  0
    3.9094    3.5846   -0.0000 C   0  0  0  0  0  0  0  0  0  0  0  0
   -3.7650    3.7169   -0.0000 O   0  0  0  0  0  0  0  0  0  0  0  0
   -2.7065    5.8581   -0.0000 C   0  0  0  0  0  0  0  0  0  0  0  0
   -5.3529    1.2991   -0.0000 C   0  0  0  0  0  0  0  0  0  0  0  0
   -4.0297    3.5846   -0.0000 C   0  0  0  0  0  0  0  0  0  0  0  0
   -1.3954    6.6279   -0.0000 N   0  0  0  0  0  0  0  0  0  0  0  0
    1.2510    6.6400   -0.0000 C   0  0  0  0  0  0  0  0  0  0  0  0
    5.5453   -0.1804   -0.0000 N   0  0  0  0  0  0  0  0  0  0  0  0
    6.5437    2.0810   -0.0000 C   0  0  0  0  0  0  0  0  0  0  0  0
    5.2205    4.3665   -0.0000 C   0  0  0  0  0  0  0  0  0  0  0  0
   -6.6881    2.0810   -0.0000 C   0  0  0  0  0  0  0  0  0  0  0  0
   -5.3649    4.3665   -0.0000 C   0  0  0  0  0  0  0  0  0  0  0  0
   -1.4074    8.1676   -0.0000 C   0  0  0  0  0  0  0  0  0  0  0  0
    2.2975    6.0385   -0.0000 O   0  0  0  0  0  0  0  0  0  0  0  0
    1.2390    8.1797   -0.0000 N   0  0  0  0  0  0  0  0  0  0  0  0
    7.0489   -0.3248   -0.0000 C   0  0  0  0  0  0  0  0  0  0  0  0
    4.7153   -1.0826   -0.0000 C   0  0  0  0  0  0  0  0  0  0  0  0
    7.6744    1.0706   -0.0000 C   0  0  0  0  0  0  0  0  0  0  0  0
    6.5317    3.6207   -0.0000 C   0  0  0  0  0  0  0  0  0  0  0  0
   -6.7001    3.6207   -0.0000 C   0  0  0  0  0  0  0  0  0  0  0  0
   -2.7426    8.9375   -0.0000 C   0  0  0  0  0  0  0  0  0  0  0  0
    2.5501    8.9615   -0.0000 C   0  0  0  0  0  0  0  0  0  0  0  0
    9.1540    1.4074   -0.0000 C   0  0  0  0  0  0  0  0  0  0  0  0
   -7.7707    4.2462   -0.0000 O   0  0  0  0  0  0  0  0  0  0  0  0
   -2.7546   10.1765   -0.0000 C   0  0  0  0  0  0  0  0  0  0  0  0
    2.5381   10.5012   -0.0000 C   0  0  0  0  0  0  0  0  0  0  0  0
   10.2486    0.3729   -0.0000 C   0  0  0  0  0  0  0  0  0  0  0  0
    9.4908    2.9110   -0.0000 C   0  0  0  0  0  0  0  0  0  0  0  0
    3.8493   11.2831   -0.0000 C   0  0  0  0  0  0  0  0  0  0  0  0
    1.2029   11.2711   -0.0000 C   0  0  0  0  0  0  0  0  0  0  0  0
   11.7041    0.8180   -0.0000 C   0  0  0  0  0  0  0  0  0  0  0  0
   10.9463    3.3561   -0.0000 C   0  0  0  0  0  0  0  0  0  0  0  0
    3.8372   12.8228   -0.0000 C   0  0  0  0  0  0  0  0  0  0  0  0
    1.1909   12.8108   -0.0000 C   0  0  0  0  0  0  0  0  0  0  0  0
   12.0530    2.3096   -0.0000 C   0  0  0  0  0  0  0  0  0  0  0  0
    2.5020   13.5927   -0.0000 C   0  0  0  0  0  0  0  0  0  0  0  0
   13.5085    2.7546   -0.0000 N   0  0  0  0  0  0  0  0  0  0  0  0
   13.8453    4.2582   -0.0000 C   0  0  0  0  0  0  0  0  0  0  0  0
   12.9431    5.1123   -0.0000 O   0  0  0  0  0  0  0  0  0  0  0  0
   15.3008    4.7033   -0.0000 N   0  0  0  0  0  0  0  0  0  0  0  0
   15.6376    6.2069   -0.0000 C   0  0  0  0  0  0  0  0  0  0  0  0
   14.5189    7.2655   -0.0000 N   0  0  0  0  0  0  0  0  0  0  0  0
   17.0931    6.6640   -0.0000 C   0  0  0  0  0  0  0  0  0  0  0  0
   14.8557    8.7691   -0.0000 C   0  0  0  0  0  0  0  0  0  0  0  0
   17.4299    8.1676   -0.0000 N   0  0  0  0  0  0  0  0  0  0  0  0
   16.3112    9.2262   -0.0000 C   0  0  0  0  0  0  0  0  0  0  0  0
  1  2  2  0  0  0  0
  2  3  1  0  0  0  0
  2  4  1  0  0  0  0
  3  5  1  0  0  0  0
  3  6  1  0  0  0  0
  4  7  1  0  0  0  0
  4  8  1  6  0  0  0
  5  9  1  0  0  0  0
  6 10  1  0  0  0  0
  7 11  1  0  0  0  0
  8 12  1  0  0  0  0
  9 13  1  1  0  0  0
 10 14  2  0  0  0  0
 10 15  1  0  0  0  0
 11 16  2  0  0  0  0
 11 17  1  0  0  0  0
 12 18  2  0  0  0  0
 12 19  1  0  0  0  0
 13 20  1  0  0  0  0
 13 21  1  0  0  0  0
 14 22  1  0  0  0  0
 14 23  1  0  0  0  0
 15 24  2  0  0  0  0
 18 25  1  0  0  0  0
 19 26  2  0  0  0  0
 20 27  1  0  0  0  0
 21 28  2  0  0  0  0
 21 29  1  0  0  0  0
 22 30  1  0  0  0  0
 22 31  1  0  0  0  0
 23 32  1  0  0  0  0
 23 33  2  0  0  0  0
 25 34  2  0  0  0  0
 27 35  1  0  0  0  0
 29 36  1  0  0  0  0
 32 37  1  0  0  0  0
 34 38  1  0  0  0  0
 35 39  2  0  0  0  0
 36 40  1  0  0  0  0
 37 41  2  0  0  0  0
 37 42  1  0  0  0  0
 40 43  2  0  0  0  0
 40 44  1  0  0  0  0
 41 45  1  0  0  0  0
 42 46  2  0  0  0  0
 43 47  1  0  0  0  0
 44 48  2  0  0  0  0
 45 49  2  0  0  0  0
 47 50  2  0  0  0  0
 49 51  1  0  0  0  0
 51 52  1  0  0  0  0
 52 53  2  0  0  0  0
 52 54  1  0  0  0  0
 54 55  1  0  0  0  0
 55 56  2  0  0  0  0
 55 57  1  0  0  0  0
 56 58  1  0  0  0  0
 57 59  2  0  0  0  0
 58 60  2  0  0  0  0
  7  9  1  0  0  0  0
 17 20  1  0  0  0  0
 24 33  1  0  0  0  0
 26 34  1  0  0  0  0
 30 32  2  0  0  0  0
 46 49  1  0  0  0  0
 48 50  1  0  0  0  0
 59 60  1  0  0  0  0
M  END
>  <MolRegNo>
2036007

>  <m>
=

>  <Value>
4610

>  <Unit>
nM

>  <Type>
IC50

>  <pValue>
5.34

>  <Ligand Efficiency>
0.12

>  <Binding Efficiency>
6.63

>  <Surface Efficiency>
3.17

>  <Assay Index>
974120

>  <Assay Category>


>  <Assay Organism>
Homo sapiens

>  <Target ID>
17045

>  <Target Name>
Cytochrome P450 3A4

>  <Target Organism>
Homo sapiens

>  <Target Description>
Target is a single protein chain

>  <Sequence Accession>
P08684

>  <Reference>


>  <Pubmed ID>


>  <DOI>


$$$$
2036008
Actelion Java MolfileCreator 1.0

 59 66  0  0  1  0  0  0  0  0999 V2000
    0.0000   -0.0000   -0.0000 O   0  0  0  0  0  0  0  0  0  0  0  0
   -0.0120    1.2408   -0.0000 C   0  0  0  0  0  0  0  0  0  0  0  0
    1.3010    2.0117   -0.0000 N   0  0  0  0  0  0  0  0  0  0  0  0
   -1.3492    2.0117   -0.0000 C   0  0  0  0  0  0  0  0  0  0  0  0
    1.2889    3.5536   -0.0000 C   0  0  0  0  0  0  0  0  0  0  0  0
    2.6140    1.2649   -0.0000 C   0  0  0  0  0  0  0  0  0  0  0  0
   -1.3612    3.5536   -0.0000 N   0  0  0  0  0  0  0  0  0  0  0  0
   -2.6863    1.2649   -0.0000 C   0  0  0  0  0  0  0  0  0  0  0  0
   -0.0482    4.3246   -0.0000 C   0  0  0  0  0  0  0  0  0  0  0  0
    3.9271    2.0479   -0.0000 C   0  0  0  0  0  0  0  0  0  0  0  0
   -2.6983    4.3246   -0.0000 C   0  0  0  0  0  0  0  0  0  0  0  0
   -4.0234    2.0479   -0.0000 C   0  0  0  0  0  0  0  0  0  0  0  0
   -0.0602    5.8665   -0.0000 N   0  0  0  0  0  0  0  0  0  0  0  0
    5.2401    1.3010   -0.0000 C   0  0  0  0  0  0  0  0  0  0  0  0
    3.9150    3.5898   -0.0000 C   0  0  0  0  0  0  0  0  0  0  0  0
   -3.7705    3.7223   -0.0000 O   0  0  0  0  0  0  0  0  0  0  0  0
   -2.7104    5.8665   -0.0000 C   0  0  0  0  0  0  0  0  0  0  0  0
   -5.3606    1.3010   -0.0000 C   0  0  0  0  0  0  0  0  0  0  0  0
   -4.0355    3.5898   -0.0000 C   0  0  0  0  0  0  0  0  0  0  0  0
   -1.3974    6.6375   -0.0000 N   0  0  0  0  0  0  0  0  0  0  0  0
    1.2528    6.6495   -0.0000 C   0  0  0  0  0  0  0  0  0  0  0  0
    5.5533   -0.1807   -0.0000 N   0  0  0  0  0  0  0  0  0  0  0  0
    6.5531    2.0840   -0.0000 C   0  0  0  0  0  0  0  0  0  0  0  0
    5.2280    4.3728   -0.0000 C   0  0  0  0  0  0  0  0  0  0  0  0
   -6.6977    2.0840   -0.0000 C   0  0  0  0  0  0  0  0  0  0  0  0
   -5.3726    4.3728   -0.0000 C   0  0  0  0  0  0  0  0  0  0  0  0
   -1.4094    8.1794   -0.0000 C   0  0  0  0  0  0  0  0  0  0  0  0
    2.3008    6.0472   -0.0000 O   0  0  0  0  0  0  0  0  0  0  0  0
    1.2408    8.1914   -0.0000 N   0  0  0  0  0  0  0  0  0  0  0  0
    7.0591   -0.3252   -0.0000 C   0  0  0  0  0  0  0  0  0  0  0  0
    4.7221   -1.0842   -0.0000 C   0  0  0  0  0  0  0  0  0  0  0  0
    7.6855    1.0721   -0.0000 C   0  0  0  0  0  0  0  0  0  0  0  0
    6.5411    3.6259   -0.0000 C   0  0  0  0  0  0  0  0  0  0  0  0
   -6.7097    3.6259   -0.0000 C   0  0  0  0  0  0  0  0  0  0  0  0
   -2.7465    8.9503   -0.0000 C   0  0  0  0  0  0  0  0  0  0  0  0
    2.5538    8.9744   -0.0000 C   0  0  0  0  0  0  0  0  0  0  0  0
    9.1672    1.4094   -0.0000 C   0  0  0  0  0  0  0  0  0  0  0  0
   -7.7818    4.2523   -0.0000 O   0  0  0  0  0  0  0  0  0  0  0  0
   -2.7586   10.1911   -0.0000 C   0  0  0  0  0  0  0  0  0  0  0  0
    2.5417   10.5163   -0.0000 C   0  0  0  0  0  0  0  0  0  0  0  0
    9.5044    2.9152   -0.0000 C   0  0  0  0  0  0  0  0  0  0  0  0
   10.2634    0.3734   -0.0000 C   0  0  0  0  0  0  0  0  0  0  0  0
    3.8548   11.2993   -0.0000 C   0  0  0  0  0  0  0  0  0  0  0  0
    1.2046   11.2873   -0.0000 C   0  0  0  0  0  0  0  0  0  0  0  0
   10.9620    3.3609   -0.0000 N   0  0  0  0  0  0  0  0  0  0  0  0
   11.7209    0.8191   -0.0000 C   0  0  0  0  0  0  0  0  0  0  0  0
    3.8427   12.8412   -0.0000 C   0  0  0  0  0  0  0  0  0  0  0  0
    1.1926   12.8292   -0.0000 C   0  0  0  0  0  0  0  0  0  0  0  0
   12.0582    2.3249   -0.0000 C   0  0  0  0  0  0  0  0  0  0  0  0
    2.5056   13.6122   -0.0000 C   0  0  0  0  0  0  0  0  0  0  0  0
   13.5158    2.7706   -0.0000 N   0  0  0  0  0  0  0  0  0  0  0  0
   13.8531    4.2764   -0.0000 C   0  0  0  0  0  0  0  0  0  0  0  0
   12.9497    5.1317   -0.0000 O   0  0  0  0  0  0  0  0  0  0  0  0
   15.3107    4.7221   -0.0000 N   0  0  0  0  0  0  0  0  0  0  0  0
   15.6601    6.2158   -0.0000 C   0  0  0  0  0  0  0  0  0  0  0  0
   16.4069    3.6861   -0.0000 C   0  0  0  0  0  0  0  0  0  0  0  0
   17.1176    6.6615   -0.0000 C   0  0  0  0  0  0  0  0  0  0  0  0
   17.8645    4.1318   -0.0000 C   0  0  0  0  0  0  0  0  0  0  0  0
   18.2138    5.6256   -0.0000 O   0  0  0  0  0  0  0  0  0  0  0  0
  1  2  2  0  0  0  0
  2  3  1  0  0  0  0
  2  4  1  0  0  0  0
  3  5  1  0  0  0  0
  3  6  1  0  0  0  0
  4  7  1  0  0  0  0
  4  8  1  6  0  0  0
  5  9  1  0  0  0  0
  6 10  1  0  0  0  0
  7 11  1  0  0  0  0
  8 12  1  0  0  0  0
  9 13  1  1  0  0  0
 10 14  2  0  0  0  0
 10 15  1  0  0  0  0
 11 16  2  0  0  0  0
 11 17  1  0  0  0  0
 12 18  2  0  0  0  0
 12 19  1  0  0  0  0
 13 20  1  0  0  0  0
 13 21  1  0  0  0  0
 14 22  1  0  0  0  0
 14 23  1  0  0  0  0
 15 24  2  0  0  0  0
 18 25  1  0  0  0  0
 19 26  2  0  0  0  0
 20 27  1  0  0  0  0
 21 28  2  0  0  0  0
 21 29  1  0  0  0  0
 22 30  1  0  0  0  0
 22 31  1  0  0  0  0
 23 32  1  0  0  0  0
 23 33  2  0  0  0  0
 25 34  2  0  0  0  0
 27 35  1  0  0  0  0
 29 36  1  0  0  0  0
 32 37  1  0  0  0  0
 34 38  1  0  0  0  0
 35 39  2  0  0  0  0
 36 40  1  0  0  0  0
 37 41  2  0  0  0  0
 37 42  1  0  0  0  0
 40 43  2  0  0  0  0
 40 44  1  0  0  0  0
 41 45  1  0  0  0  0
 42 46  2  0  0  0  0
 43 47  1  0  0  0  0
 44 48  2  0  0  0  0
 45 49  2  0  0  0  0
 47 50  2  0  0  0  0
 49 51  1  0  0  0  0
 51 52  1  0  0  0  0
 52 53  2  0  0  0  0
 52 54  1  0  0  0  0
 54 55  1  0  0  0  0
 54 56  1  0  0  0  0
 55 57  1  0  0  0  0
 56 58  1  0  0  0  0
 57 59  1  0  0  0  0
  7  9  1  0  0  0  0
 17 20  1  0  0  0  0
 24 33  1  0  0  0  0
 26 34  1  0  0  0  0
 30 32  2  0  0  0  0
 46 49  1  0  0  0  0
 48 50  1  0  0  0  0
 58 59  1  0  0  0  0
M  END
>  <MolRegNo>
2036008

>  <m>
=

>  <Value>
10200

>  <Unit>
nM

>  <Type>
IC50

>  <pValue>
4.99

>  <Ligand Efficiency>
0.12

>  <Binding Efficiency>
6.26

>  <Surface Efficiency>
3.2

>  <Assay Index>
974120

>  <Assay Category>


>  <Assay Organism>
Homo sapiens

>  <Target ID>
17045

>  <Target Name>
Cytochrome P450 3A4

>  <Target Organism>
Homo sapiens

>  <Target Description>
Target is a single protein chain

>  <Sequence Accession>
P08684

>  <Reference>


>  <Pubmed ID>


>  <DOI>


$$$$
2036009
Actelion Java MolfileCreator 1.0

 62 69  0  0  1  0  0  0  0  0999 V2000
    0.0000   -0.0000   -0.0000 S   0  0  0  0  0  0  0  0  0  0  0  0
    1.1629    0.3634   -0.0000 O   0  0  0  0  0  0  0  0  0  0  0  0
   -0.9085    0.8600   -0.0000 O   0  0  0  0  0  0  0  0  0  0  0  0
   -0.3634   -1.4899   -0.0000 N   0  0  0  0  0  0  0  0  0  0  0  0
    0.2665    1.2113   -0.0000 C   0  0  0  0  0  0  0  0  0  0  0  0
    0.7389   -2.5317   -0.0000 C   0  0  0  0  0  0  0  0  0  0  0  0
   -1.8533   -1.9260   -0.0000 C   0  0  0  0  0  0  0  0  0  0  0  0
    0.3755   -4.0216   -0.0000 C   0  0  0  0  0  0  0  0  0  0  0  0
   -2.2167   -3.4159   -0.0000 C   0  0  0  0  0  0  0  0  0  0  0  0
   -1.1144   -4.4577   -0.0000 N   0  0  0  0  0  0  0  0  0  0  0  0
   -1.4778   -5.9476   -0.0000 C   0  0  0  0  0  0  0  0  0  0  0  0
   -0.5936   -6.7834   -0.0000 O   0  0  0  0  0  0  0  0  0  0  0  0
   -2.9678   -6.3716   -0.0000 C   0  0  0  0  0  0  0  0  0  0  0  0
   -4.0943   -5.3056   -0.0000 N   0  0  0  0  0  0  0  0  0  0  0  0
   -3.3433   -7.8494   -0.0000 C   0  0  0  0  0  0  0  0  0  0  0  0
   -5.5842   -5.7296   -0.0000 C   0  0  0  0  0  0  0  0  0  0  0  0
   -4.8332   -8.2734   -0.0000 C   0  0  0  0  0  0  0  0  0  0  0  0
   -5.9476   -7.2195   -0.0000 C   0  0  0  0  0  0  0  0  0  0  0  0
   -7.4618   -7.5345   -0.0000 C   0  0  0  0  0  0  0  0  0  0  0  0
   -8.6246   -6.4927   -0.0000 C   0  0  0  0  0  0  0  0  0  0  0  0
   -8.0917   -8.9275   -0.0000 C   0  0  0  0  0  0  0  0  0  0  0  0
   -9.9692   -7.2558   -0.0000 C   0  0  0  0  0  0  0  0  0  0  0  0
   -8.6368   -4.9422   -0.0000 C   0  0  0  0  0  0  0  0  0  0  0  0
   -9.6300   -8.7579   -0.0000 N   0  0  0  0  0  0  0  0  0  0  0  0
  -11.3138   -6.4806   -0.0000 C   0  0  0  0  0  0  0  0  0  0  0  0
   -9.9813   -4.1670   -0.0000 C   0  0  0  0  0  0  0  0  0  0  0  0
  -10.4659   -9.6664   -0.0000 C   0  0  0  0  0  0  0  0  0  0  0  0
  -11.3259   -4.9301   -0.0000 C   0  0  0  0  0  0  0  0  0  0  0  0
  -12.6584   -7.2437   -0.0000 C   0  0  0  0  0  0  0  0  0  0  0  0
  -14.0029   -6.4685   -0.0000 N   0  0  0  0  0  0  0  0  0  0  0  0
  -15.3475   -7.2195   -0.0000 C   0  0  0  0  0  0  0  0  0  0  0  0
  -14.0151   -4.9180   -0.0000 C   0  0  0  0  0  0  0  0  0  0  0  0
  -15.3596   -8.4429   -0.0000 O   0  0  0  0  0  0  0  0  0  0  0  0
  -16.6921   -6.4443   -0.0000 C   0  0  0  0  0  0  0  0  0  0  0  0
  -15.3596   -4.1427   -0.0000 C   0  0  0  0  0  0  0  0  0  0  0  0
  -16.7042   -4.8938   -0.0000 N   0  0  0  0  0  0  0  0  0  0  0  0
  -18.0367   -7.1953   -0.0000 C   0  0  0  0  0  0  0  0  0  0  0  0
  -15.3717   -2.5922   -0.0000 N   0  0  0  0  0  0  0  0  0  0  0  0
  -18.0488   -4.1185   -0.0000 C   0  0  0  0  0  0  0  0  0  0  0  0
  -19.3812   -6.4079   -0.0000 C   0  0  0  0  0  0  0  0  0  0  0  0
  -16.7163   -1.8170   -0.0000 N   0  0  0  0  0  0  0  0  0  0  0  0
  -14.0514   -1.8049   -0.0000 C   0  0  0  0  0  0  0  0  0  0  0  0
  -19.1269   -4.7242   -0.0000 O   0  0  0  0  0  0  0  0  0  0  0  0
  -18.0609   -2.5680   -0.0000 C   0  0  0  0  0  0  0  0  0  0  0  0
  -20.7258   -7.1589   -0.0000 C   0  0  0  0  0  0  0  0  0  0  0  0
  -19.3933   -4.8574   -0.0000 C   0  0  0  0  0  0  0  0  0  0  0  0
  -16.7284   -0.2665   -0.0000 C   0  0  0  0  0  0  0  0  0  0  0  0
  -12.9975   -2.4105   -0.0000 O   0  0  0  0  0  0  0  0  0  0  0  0
  -14.0635   -0.2544   -0.0000 N   0  0  0  0  0  0  0  0  0  0  0  0
  -22.0704   -6.3716   -0.0000 C   0  0  0  0  0  0  0  0  0  0  0  0
  -20.7379   -4.0701   -0.0000 C   0  0  0  0  0  0  0  0  0  0  0  0
  -18.0730    0.5088   -0.0000 C   0  0  0  0  0  0  0  0  0  0  0  0
  -12.7432    0.5330   -0.0000 C   0  0  0  0  0  0  0  0  0  0  0  0
  -22.0825   -4.8211   -0.0000 C   0  0  0  0  0  0  0  0  0  0  0  0
  -18.0851    1.7564   -0.0000 C   0  0  0  0  0  0  0  0  0  0  0  0
  -12.7553    2.0835   -0.0000 C   0  0  0  0  0  0  0  0  0  0  0  0
  -23.1606   -4.1912   -0.0000 O   0  0  0  0  0  0  0  0  0  0  0  0
  -11.4349    2.8708   -0.0000 C   0  0  0  0  0  0  0  0  0  0  0  0
  -14.0998    2.8587   -0.0000 C   0  0  0  0  0  0  0  0  0  0  0  0
  -11.4470    4.4213   -0.0000 C   0  0  0  0  0  0  0  0  0  0  0  0
  -14.1120    4.4092   -0.0000 C   0  0  0  0  0  0  0  0  0  0  0  0
  -12.7916    5.1966   -0.0000 C   0  0  0  0  0  0  0  0  0  0  0  0
  1  2  2  0  0  0  0
  1  3  2  0  0  0  0
  1  4  1  0  0  0  0
  1  5  1  0  0  0  0
  4  6  1  0  0  0  0
  4  7  1  0  0  0  0
  6  8  1  0  0  0  0
  7  9  1  0  0  0  0
  8 10  1  0  0  0  0
 10 11  1  0  0  0  0
 11 12  2  0  0  0  0
 11 13  1  0  0  0  0
 13 14  2  0  0  0  0
 13 15  1  0  0  0  0
 14 16  1  0  0  0  0
 15 17  2  0  0  0  0
 16 18  2  0  0  0  0
 18 19  1  0  0  0  0
 19 20  1  0  0  0  0
 19 21  2  0  0  0  0
 20 22  2  0  0  0  0
 20 23  1  0  0  0  0
 21 24  1  0  0  0  0
 22 25  1  0  0  0  0
 23 26  2  0  0  0  0
 24 27  1  0  0  0  0
 25 28  2  0  0  0  0
 25 29  1  0  0  0  0
 29 30  1  0  0  0  0
 30 31  1  0  0  0  0
 30 32  1  0  0  0  0
 31 33  2  0  0  0  0
 31 34  1  0  0  0  0
 32 35  1  0  0  0  0
 34 36  1  0  0  0  0
 34 37  1  6  0  0  0
 35 38  1  1  0  0  0
 36 39  1  0  0  0  0
 37 40  1  0  0  0  0
 38 41  1  0  0  0  0
 38 42  1  0  0  0  0
 39 43  2  0  0  0  0
 39 44  1  0  0  0  0
 40 45  2  0  0  0  0
 40 46  1  0  0  0  0
 41 47  1  0  0  0  0
 42 48  2  0  0  0  0
 42 49  1  0  0  0  0
 45 50  1  0  0  0  0
 46 51  2  0  0  0  0
 47 52  1  0  0  0  0
 49 53  1  0  0  0  0
 50 54  2  0  0  0  0
 52 55  2  0  0  0  0
 53 56  1  0  0  0  0
 54 57  1  0  0  0  0
 56 58  2  0  0  0  0
 56 59  1  0  0  0  0
 58 60  1  0  0  0  0
 59 61  2  0  0  0  0
 60 62  2  0  0  0  0
  9 10  1  0  0  0  0
 17 18  1  0  0  0  0
 22 24  1  0  0  0  0
 26 28  1  0  0  0  0
 35 36  1  0  0  0  0
 41 44  1  0  0  0  0
 51 54  1  0  0  0  0
 61 62  1  0  0  0  0
M  END
>  <MolRegNo>
2036009

>  <m>
=

>  <Value>
6960

>  <Unit>
nM

>  <Type>
IC50

>  <pValue>
5.16

>  <Ligand Efficiency>
0.11

>  <Binding Efficiency>
6

>  <Surface Efficiency>
3

>  <Assay Index>
974120

>  <Assay Category>


>  <Assay Organism>
Homo sapiens

>  <Target ID>
17045

>  <Target Name>
Cytochrome P450 3A4

>  <Target Organism>
Homo sapiens

>  <Target Description>
Target is a single protein chain

>  <Sequence Accession>
P08684

>  <Reference>


>  <Pubmed ID>


>  <DOI>


$$$$
2036010
Actelion Java MolfileCreator 1.0

 59 66  0  0  1  0  0  0  0  0999 V2000
    0.0000   -0.0000   -0.0000 O   0  0  0  0  0  0  0  0  0  0  0  0
   -0.0121    1.2437   -0.0000 C   0  0  0  0  0  0  0  0  0  0  0  0
    1.3040    2.0164   -0.0000 N   0  0  0  0  0  0  0  0  0  0  0  0
   -1.3523    2.0164   -0.0000 C   0  0  0  0  0  0  0  0  0  0  0  0
    1.2920    3.5620   -0.0000 C   0  0  0  0  0  0  0  0  0  0  0  0
    2.6202    1.2678   -0.0000 C   0  0  0  0  0  0  0  0  0  0  0  0
   -1.3644    3.5620   -0.0000 N   0  0  0  0  0  0  0  0  0  0  0  0
   -2.6926    1.2678   -0.0000 C   0  0  0  0  0  0  0  0  0  0  0  0
   -0.0483    4.3347   -0.0000 C   0  0  0  0  0  0  0  0  0  0  0  0
    3.9363    2.0527   -0.0000 C   0  0  0  0  0  0  0  0  0  0  0  0
   -2.7047    4.3347   -0.0000 C   0  0  0  0  0  0  0  0  0  0  0  0
   -4.0329    2.0527   -0.0000 C   0  0  0  0  0  0  0  0  0  0  0  0
   -0.0604    5.8802   -0.0000 N   0  0  0  0  0  0  0  0  0  0  0  0
    5.2524    1.3040   -0.0000 C   0  0  0  0  0  0  0  0  0  0  0  0
    3.9242    3.5982   -0.0000 C   0  0  0  0  0  0  0  0  0  0  0  0
   -3.7793    3.7310   -0.0000 O   0  0  0  0  0  0  0  0  0  0  0  0
   -2.7167    5.8802   -0.0000 C   0  0  0  0  0  0  0  0  0  0  0  0
   -5.3731    1.3040   -0.0000 C   0  0  0  0  0  0  0  0  0  0  0  0
   -4.0449    3.5982   -0.0000 C   0  0  0  0  0  0  0  0  0  0  0  0
   -1.4006    6.6530   -0.0000 N   0  0  0  0  0  0  0  0  0  0  0  0
    1.2557    6.6651   -0.0000 C   0  0  0  0  0  0  0  0  0  0  0  0
    5.5663   -0.1811   -0.0000 N   0  0  0  0  0  0  0  0  0  0  0  0
    6.5685    2.0889   -0.0000 C   0  0  0  0  0  0  0  0  0  0  0  0
    5.2403    4.3830   -0.0000 C   0  0  0  0  0  0  0  0  0  0  0  0
   -6.7134    2.0889   -0.0000 C   0  0  0  0  0  0  0  0  0  0  0  0
   -5.3852    4.3830   -0.0000 C   0  0  0  0  0  0  0  0  0  0  0  0
   -1.4127    8.1985   -0.0000 C   0  0  0  0  0  0  0  0  0  0  0  0
    2.3062    6.0614   -0.0000 O   0  0  0  0  0  0  0  0  0  0  0  0
    1.2437    8.2106   -0.0000 N   0  0  0  0  0  0  0  0  0  0  0  0
    7.0756   -0.3260   -0.0000 C   0  0  0  0  0  0  0  0  0  0  0  0
    4.7332   -1.0867   -0.0000 C   0  0  0  0  0  0  0  0  0  0  0  0
    7.7035    1.0746   -0.0000 C   0  0  0  0  0  0  0  0  0  0  0  0
    6.5564    3.6344   -0.0000 C   0  0  0  0  0  0  0  0  0  0  0  0
   -6.7255    3.6344   -0.0000 C   0  0  0  0  0  0  0  0  0  0  0  0
   -2.7530    8.9713   -0.0000 C   0  0  0  0  0  0  0  0  0  0  0  0
    2.5598    8.9954   -0.0000 C   0  0  0  0  0  0  0  0  0  0  0  0
    9.1886    1.4127   -0.0000 C   0  0  0  0  0  0  0  0  0  0  0  0
   -7.8001    4.2623   -0.0000 O   0  0  0  0  0  0  0  0  0  0  0  0
   -2.7650   10.2150   -0.0000 C   0  0  0  0  0  0  0  0  0  0  0  0
    2.5477   10.5410   -0.0000 C   0  0  0  0  0  0  0  0  0  0  0  0
    9.5267    2.9220   -0.0000 C   0  0  0  0  0  0  0  0  0  0  0  0
   10.2874    0.3743   -0.0000 C   0  0  0  0  0  0  0  0  0  0  0  0
    3.8638   11.3258   -0.0000 C   0  0  0  0  0  0  0  0  0  0  0  0
    1.2074   11.3137   -0.0000 C   0  0  0  0  0  0  0  0  0  0  0  0
   10.9877    3.3688   -0.0000 N   0  0  0  0  0  0  0  0  0  0  0  0
   11.7484    0.8211   -0.0000 C   0  0  0  0  0  0  0  0  0  0  0  0
    3.8517   12.8713   -0.0000 C   0  0  0  0  0  0  0  0  0  0  0  0
    1.1954   12.8593   -0.0000 C   0  0  0  0  0  0  0  0  0  0  0  0
   12.0865    2.3304   -0.0000 C   0  0  0  0  0  0  0  0  0  0  0  0
    2.5115   13.6441   -0.0000 C   0  0  0  0  0  0  0  0  0  0  0  0
   13.5475    2.7771   -0.0000 C   0  0  0  0  0  0  0  0  0  0  0  0
   14.4289    1.9440   -0.0000 O   0  0  0  0  0  0  0  0  0  0  0  0
   13.8856    4.2864   -0.0000 N   0  0  0  0  0  0  0  0  0  0  0  0
   15.3466    4.7452   -0.0000 C   0  0  0  0  0  0  0  0  0  0  0  0
   12.7627    5.3490   -0.0000 C   0  0  0  0  0  0  0  0  0  0  0  0
   15.6847    6.2546   -0.0000 C   0  0  0  0  0  0  0  0  0  0  0  0
   13.1008    6.8583   -0.0000 C   0  0  0  0  0  0  0  0  0  0  0  0
   14.5618    7.3171   -0.0000 N   0  0  0  0  0  0  0  0  0  0  0  0
   14.8274    8.5245   -0.0000 C   0  0  0  0  0  0  0  0  0  0  0  0
  1  2  2  0  0  0  0
  2  3  1  0  0  0  0
  2  4  1  0  0  0  0
  3  5  1  0  0  0  0
  3  6  1  0  0  0  0
  4  7  1  0  0  0  0
  4  8  1  6  0  0  0
  5  9  1  0  0  0  0
  6 10  1  0  0  0  0
  7 11  1  0  0  0  0
  8 12  1  0  0  0  0
  9 13  1  1  0  0  0
 10 14  2  0  0  0  0
 10 15  1  0  0  0  0
 11 16  2  0  0  0  0
 11 17  1  0  0  0  0
 12 18  2  0  0  0  0
 12 19  1  0  0  0  0
 13 20  1  0  0  0  0
 13 21  1  0  0  0  0
 14 22  1  0  0  0  0
 14 23  1  0  0  0  0
 15 24  2  0  0  0  0
 18 25  1  0  0  0  0
 19 26  2  0  0  0  0
 20 27  1  0  0  0  0
 21 28  2  0  0  0  0
 21 29  1  0  0  0  0
 22 30  1  0  0  0  0
 22 31  1  0  0  0  0
 23 32  1  0  0  0  0
 23 33  2  0  0  0  0
 25 34  2  0  0  0  0
 27 35  1  0  0  0  0
 29 36  1  0  0  0  0
 32 37  1  0  0  0  0
 34 38  1  0  0  0  0
 35 39  2  0  0  0  0
 36 40  1  0  0  0  0
 37 41  2  0  0  0  0
 37 42  1  0  0  0  0
 40 43  2  0  0  0  0
 40 44  1  0  0  0  0
 41 45  1  0  0  0  0
 42 46  2  0  0  0  0
 43 47  1  0  0  0  0
 44 48  2  0  0  0  0
 45 49  2  0  0  0  0
 47 50  2  0  0  0  0
 49 51  1  0  0  0  0
 51 52  2  0  0  0  0
 51 53  1  0  0  0  0
 53 54  1  0  0  0  0
 53 55  1  0  0  0  0
 54 56  1  0  0  0  0
 55 57  1  0  0  0  0
 56 58  1  0  0  0  0
 58 59  1  0  0  0  0
  7  9  1  0  0  0  0
 17 20  1  0  0  0  0
 24 33  1  0  0  0  0
 26 34  1  0  0  0  0
 30 32  2  0  0  0  0
 46 49  1  0  0  0  0
 48 50  1  0  0  0  0
 57 58  1  0  0  0  0
M  END
>  <MolRegNo>
2036010

>  <m>
=

>  <Value>
6510

>  <Unit>
nM

>  <Type>
IC50

>  <pValue>
5.19

>  <Ligand Efficiency>
0.12

>  <Binding Efficiency>
6.52

>  <Surface Efficiency>
3.76

>  <Assay Index>
974120

>  <Assay Category>


>  <Assay Organism>
Homo sapiens

>  <Target ID>
17045

>  <Target Name>
Cytochrome P450 3A4

>  <Target Organism>
Homo sapiens

>  <Target Description>
Target is a single protein chain

>  <Sequence Accession>
P08684

>  <Reference>


>  <Pubmed ID>


>  <DOI>


$$$$
2036011
Actelion Java MolfileCreator 1.0

 61 68  0  0  1  0  0  0  0  0999 V2000
    0.0000   -0.0000   -0.0000 O   0  0  0  0  0  0  0  0  0  0  0  0
   -0.0120    1.2399   -0.0000 C   0  0  0  0  0  0  0  0  0  0  0  0
    1.3001    2.0104   -0.0000 N   0  0  0  0  0  0  0  0  0  0  0  0
   -1.3483    2.0104   -0.0000 C   0  0  0  0  0  0  0  0  0  0  0  0
    1.2881    3.5513   -0.0000 C   0  0  0  0  0  0  0  0  0  0  0  0
    2.6123    1.2640   -0.0000 C   0  0  0  0  0  0  0  0  0  0  0  0
   -1.3603    3.5513   -0.0000 N   0  0  0  0  0  0  0  0  0  0  0  0
   -2.6845    1.2640   -0.0000 C   0  0  0  0  0  0  0  0  0  0  0  0
   -0.0482    4.3217   -0.0000 C   0  0  0  0  0  0  0  0  0  0  0  0
    3.9245    2.0465   -0.0000 C   0  0  0  0  0  0  0  0  0  0  0  0
   -2.6966    4.3217   -0.0000 C   0  0  0  0  0  0  0  0  0  0  0  0
   -4.0208    2.0465   -0.0000 C   0  0  0  0  0  0  0  0  0  0  0  0
   -0.0602    5.8626   -0.0000 N   0  0  0  0  0  0  0  0  0  0  0  0
    5.2366    1.3001   -0.0000 C   0  0  0  0  0  0  0  0  0  0  0  0
    3.9124    3.5874   -0.0000 C   0  0  0  0  0  0  0  0  0  0  0  0
   -3.7680    3.7198   -0.0000 O   0  0  0  0  0  0  0  0  0  0  0  0
   -2.7086    5.8626   -0.0000 C   0  0  0  0  0  0  0  0  0  0  0  0
   -5.3570    1.3001   -0.0000 C   0  0  0  0  0  0  0  0  0  0  0  0
   -4.0328    3.5874   -0.0000 C   0  0  0  0  0  0  0  0  0  0  0  0
   -1.3964    6.6331   -0.0000 N   0  0  0  0  0  0  0  0  0  0  0  0
    1.2520    6.6451   -0.0000 C   0  0  0  0  0  0  0  0  0  0  0  0
    5.5496   -0.1806   -0.0000 N   0  0  0  0  0  0  0  0  0  0  0  0
    6.5488    2.0826   -0.0000 C   0  0  0  0  0  0  0  0  0  0  0  0
    5.2246    4.3699   -0.0000 C   0  0  0  0  0  0  0  0  0  0  0  0
   -6.6933    2.0826   -0.0000 C   0  0  0  0  0  0  0  0  0  0  0  0
   -5.3691    4.3699   -0.0000 C   0  0  0  0  0  0  0  0  0  0  0  0
   -1.4085    8.1740   -0.0000 C   0  0  0  0  0  0  0  0  0  0  0  0
    2.2993    6.0432   -0.0000 O   0  0  0  0  0  0  0  0  0  0  0  0
    1.2399    8.1860   -0.0000 N   0  0  0  0  0  0  0  0  0  0  0  0
    7.0544   -0.3250   -0.0000 C   0  0  0  0  0  0  0  0  0  0  0  0
    4.7190   -1.0834   -0.0000 C   0  0  0  0  0  0  0  0  0  0  0  0
    7.6804    1.0714   -0.0000 C   0  0  0  0  0  0  0  0  0  0  0  0
    6.5368    3.6235   -0.0000 C   0  0  0  0  0  0  0  0  0  0  0  0
   -6.7053    3.6235   -0.0000 C   0  0  0  0  0  0  0  0  0  0  0  0
   -2.7447    8.9444   -0.0000 C   0  0  0  0  0  0  0  0  0  0  0  0
    2.5521    8.9685   -0.0000 C   0  0  0  0  0  0  0  0  0  0  0  0
    9.1611    1.4085   -0.0000 C   0  0  0  0  0  0  0  0  0  0  0  0
   -7.7767    4.2495   -0.0000 O   0  0  0  0  0  0  0  0  0  0  0  0
   -2.7568   10.1844   -0.0000 C   0  0  0  0  0  0  0  0  0  0  0  0
    2.5401   10.5094   -0.0000 C   0  0  0  0  0  0  0  0  0  0  0  0
    9.4982    2.9133   -0.0000 C   0  0  0  0  0  0  0  0  0  0  0  0
   10.2566    0.3732   -0.0000 C   0  0  0  0  0  0  0  0  0  0  0  0
    3.8522   11.2919   -0.0000 C   0  0  0  0  0  0  0  0  0  0  0  0
    1.2038   11.2798   -0.0000 C   0  0  0  0  0  0  0  0  0  0  0  0
   10.9548    3.3587   -0.0000 N   0  0  0  0  0  0  0  0  0  0  0  0
   11.7132    0.8186   -0.0000 C   0  0  0  0  0  0  0  0  0  0  0  0
    3.8402   12.8328   -0.0000 C   0  0  0  0  0  0  0  0  0  0  0  0
    1.1918   12.8207   -0.0000 C   0  0  0  0  0  0  0  0  0  0  0  0
   12.0503    2.3234   -0.0000 C   0  0  0  0  0  0  0  0  0  0  0  0
    2.5040   13.6032   -0.0000 C   0  0  0  0  0  0  0  0  0  0  0  0
   13.5069    2.7688   -0.0000 N   0  0  0  0  0  0  0  0  0  0  0  0
   13.8440    4.2736   -0.0000 C   0  0  0  0  0  0  0  0  0  0  0  0
   12.9411    5.1283   -0.0000 O   0  0  0  0  0  0  0  0  0  0  0  0
   15.3006    4.7190   -0.0000 N   0  0  0  0  0  0  0  0  0  0  0  0
   15.6377    6.2238   -0.0000 C   0  0  0  0  0  0  0  0  0  0  0  0
   17.0943    6.6692   -0.0000 C   0  0  0  0  0  0  0  0  0  0  0  0
   17.4434    8.1619   -0.0000 C   0  0  0  0  0  0  0  0  0  0  0  0
   18.1898    5.6339   -0.0000 C   0  0  0  0  0  0  0  0  0  0  0  0
   18.9001    8.6073   -0.0000 C   0  0  0  0  0  0  0  0  0  0  0  0
   19.6464    6.0793   -0.0000 C   0  0  0  0  0  0  0  0  0  0  0  0
   19.9955    7.5721   -0.0000 C   0  0  0  0  0  0  0  0  0  0  0  0
  1  2  2  0  0  0  0
  2  3  1  0  0  0  0
  2  4  1  0  0  0  0
  3  5  1  0  0  0  0
  3  6  1  0  0  0  0
  4  7  1  0  0  0  0
  4  8  1  6  0  0  0
  5  9  1  0  0  0  0
  6 10  1  0  0  0  0
  7 11  1  0  0  0  0
  8 12  1  0  0  0  0
  9 13  1  1  0  0  0
 10 14  2  0  0  0  0
 10 15  1  0  0  0  0
 11 16  2  0  0  0  0
 11 17  1  0  0  0  0
 12 18  2  0  0  0  0
 12 19  1  0  0  0  0
 13 20  1  0  0  0  0
 13 21  1  0  0  0  0
 14 22  1  0  0  0  0
 14 23  1  0  0  0  0
 15 24  2  0  0  0  0
 18 25  1  0  0  0  0
 19 26  2  0  0  0  0
 20 27  1  0  0  0  0
 21 28  2  0  0  0  0
 21 29  1  0  0  0  0
 22 30  1  0  0  0  0
 22 31  1  0  0  0  0
 23 32  1  0  0  0  0
 23 33  2  0  0  0  0
 25 34  2  0  0  0  0
 27 35  1  0  0  0  0
 29 36  1  0  0  0  0
 32 37  1  0  0  0  0
 34 38  1  0  0  0  0
 35 39  2  0  0  0  0
 36 40  1  0  0  0  0
 37 41  2  0  0  0  0
 37 42  1  0  0  0  0
 40 43  2  0  0  0  0
 40 44  1  0  0  0  0
 41 45  1  0  0  0  0
 42 46  2  0  0  0  0
 43 47  1  0  0  0  0
 44 48  2  0  0  0  0
 45 49  2  0  0  0  0
 47 50  2  0  0  0  0
 49 51  1  0  0  0  0
 51 52  1  0  0  0  0
 52 53  2  0  0  0  0
 52 54  1  0  0  0  0
 54 55  1  0  0  0  0
 55 56  1  0  0  0  0
 56 57  2  0  0  0  0
 56 58  1  0  0  0  0
 57 59  1  0  0  0  0
 58 60  2  0  0  0  0
 59 61  2  0  0  0  0
  7  9  1  0  0  0  0
 17 20  1  0  0  0  0
 24 33  1  0  0  0  0
 26 34  1  0  0  0  0
 30 32  2  0  0  0  0
 46 49  1  0  0  0  0
 48 50  1  0  0  0  0
 60 61  1  0  0  0  0
M  END
>  <MolRegNo>
2036011

>  <m>
=

>  <Value>
20390

>  <Unit>
nM

>  <Type>
IC50

>  <pValue>
4.69

>  <Ligand Efficiency>
0.11

>  <Binding Efficiency>
5.73

>  <Surface Efficiency>
3.02

>  <Assay Index>
974120

>  <Assay Category>


>  <Assay Organism>
Homo sapiens

>  <Target ID>
17045

>  <Target Name>
Cytochrome P450 3A4

>  <Target Organism>
Homo sapiens

>  <Target Description>
Target is a single protein chain

>  <Sequence Accession>
P08684

>  <Reference>


>  <Pubmed ID>


>  <DOI>


$$$$
2036012
Actelion Java MolfileCreator 1.0

 59 65  0  0  1  0  0  0  0  0999 V2000
    0.0000   -0.0000   -0.0000 O   0  0  0  0  0  0  0  0  0  0  0  0
   -0.0122    1.2524   -0.0000 C   0  0  0  0  0  0  0  0  0  0  0  0
    1.3132    2.0306   -0.0000 N   0  0  0  0  0  0  0  0  0  0  0  0
   -1.3619    2.0306   -0.0000 C   0  0  0  0  0  0  0  0  0  0  0  0
    1.3011    3.5870   -0.0000 C   0  0  0  0  0  0  0  0  0  0  0  0
    2.6386    1.2767   -0.0000 C   0  0  0  0  0  0  0  0  0  0  0  0
   -1.3740    3.5870   -0.0000 N   0  0  0  0  0  0  0  0  0  0  0  0
   -2.7116    1.2767   -0.0000 C   0  0  0  0  0  0  0  0  0  0  0  0
   -0.0486    4.3652   -0.0000 C   0  0  0  0  0  0  0  0  0  0  0  0
    3.9640    2.0671   -0.0000 C   0  0  0  0  0  0  0  0  0  0  0  0
   -2.7237    4.3652   -0.0000 C   0  0  0  0  0  0  0  0  0  0  0  0
   -4.0613    2.0671   -0.0000 C   0  0  0  0  0  0  0  0  0  0  0  0
   -0.0608    5.9216   -0.0000 N   0  0  0  0  0  0  0  0  0  0  0  0
    5.2894    1.3132   -0.0000 C   0  0  0  0  0  0  0  0  0  0  0  0
    3.9518    3.6235   -0.0000 C   0  0  0  0  0  0  0  0  0  0  0  0
   -3.8059    3.7573   -0.0000 O   0  0  0  0  0  0  0  0  0  0  0  0
   -2.7359    5.9216   -0.0000 C   0  0  0  0  0  0  0  0  0  0  0  0
   -5.4110    1.3132   -0.0000 C   0  0  0  0  0  0  0  0  0  0  0  0
   -4.0734    3.6235   -0.0000 C   0  0  0  0  0  0  0  0  0  0  0  0
   -1.4105    6.6999   -0.0000 N   0  0  0  0  0  0  0  0  0  0  0  0
    1.2646    6.7120   -0.0000 C   0  0  0  0  0  0  0  0  0  0  0  0
    5.6055   -0.1824   -0.0000 N   0  0  0  0  0  0  0  0  0  0  0  0
    6.6147    2.1036   -0.0000 C   0  0  0  0  0  0  0  0  0  0  0  0
    5.2772    4.4139   -0.0000 C   0  0  0  0  0  0  0  0  0  0  0  0
   -6.7606    2.1036   -0.0000 C   0  0  0  0  0  0  0  0  0  0  0  0
   -5.4231    4.4139   -0.0000 C   0  0  0  0  0  0  0  0  0  0  0  0
   -1.4227    8.2563   -0.0000 C   0  0  0  0  0  0  0  0  0  0  0  0
    2.3225    6.1040   -0.0000 O   0  0  0  0  0  0  0  0  0  0  0  0
    1.2524    8.2684   -0.0000 N   0  0  0  0  0  0  0  0  0  0  0  0
    7.1254   -0.3283   -0.0000 C   0  0  0  0  0  0  0  0  0  0  0  0
    4.7665   -1.0943   -0.0000 C   0  0  0  0  0  0  0  0  0  0  0  0
    7.7577    1.0822   -0.0000 C   0  0  0  0  0  0  0  0  0  0  0  0
    6.6026    3.6600   -0.0000 C   0  0  0  0  0  0  0  0  0  0  0  0
   -6.7728    3.6600   -0.0000 C   0  0  0  0  0  0  0  0  0  0  0  0
   -2.7724    9.0345   -0.0000 C   0  0  0  0  0  0  0  0  0  0  0  0
    2.5778    9.0588   -0.0000 C   0  0  0  0  0  0  0  0  0  0  0  0
    9.2533    1.4227   -0.0000 C   0  0  0  0  0  0  0  0  0  0  0  0
   -7.8550    4.2923   -0.0000 O   0  0  0  0  0  0  0  0  0  0  0  0
   -2.7845   10.2869   -0.0000 C   0  0  0  0  0  0  0  0  0  0  0  0
    2.5656   10.6152   -0.0000 C   0  0  0  0  0  0  0  0  0  0  0  0
    9.5938    2.9426   -0.0000 C   0  0  0  0  0  0  0  0  0  0  0  0
   10.3598    0.3769   -0.0000 C   0  0  0  0  0  0  0  0  0  0  0  0
    3.8910   11.4056   -0.0000 C   0  0  0  0  0  0  0  0  0  0  0  0
    1.2159   11.3934   -0.0000 C   0  0  0  0  0  0  0  0  0  0  0  0
   11.0651    3.3925   -0.0000 N   0  0  0  0  0  0  0  0  0  0  0  0
   11.8311    0.8268   -0.0000 C   0  0  0  0  0  0  0  0  0  0  0  0
    3.8789   12.9620   -0.0000 C   0  0  0  0  0  0  0  0  0  0  0  0
    1.2038   12.9498   -0.0000 C   0  0  0  0  0  0  0  0  0  0  0  0
   12.1716    2.3468   -0.0000 C   0  0  0  0  0  0  0  0  0  0  0  0
    2.5292   13.7402   -0.0000 C   0  0  0  0  0  0  0  0  0  0  0  0
   13.6429    2.7967   -0.0000 N   0  0  0  0  0  0  0  0  0  0  0  0
   13.9834    4.3166   -0.0000 C   0  0  0  0  0  0  0  0  0  0  0  0
   13.0714    5.1799   -0.0000 O   0  0  0  0  0  0  0  0  0  0  0  0
   15.4546    4.7665   -0.0000 N   0  0  0  0  0  0  0  0  0  0  0  0
   15.7951    6.2864   -0.0000 C   0  0  0  0  0  0  0  0  0  0  0  0
   17.2664    6.7363   -0.0000 C   0  0  0  0  0  0  0  0  0  0  0  0
   17.5461    7.9523   -0.0000 C   0  0  0  0  0  0  0  0  0  0  0  0
   18.4337    7.1011   -0.0000 C   0  0  0  0  0  0  0  0  0  0  0  0
   18.1540    5.8973   -0.0000 C   0  0  0  0  0  0  0  0  0  0  0  0
  1  2  2  0  0  0  0
  2  3  1  0  0  0  0
  2  4  1  0  0  0  0
  3  5  1  0  0  0  0
  3  6  1  0  0  0  0
  4  7  1  0  0  0  0
  4  8  1  6  0  0  0
  5  9  1  0  0  0  0
  6 10  1  0  0  0  0
  7 11  1  0  0  0  0
  8 12  1  0  0  0  0
  9 13  1  1  0  0  0
 10 14  2  0  0  0  0
 10 15  1  0  0  0  0
 11 16  2  0  0  0  0
 11 17  1  0  0  0  0
 12 18  2  0  0  0  0
 12 19  1  0  0  0  0
 13 20  1  0  0  0  0
 13 21  1  0  0  0  0
 14 22  1  0  0  0  0
 14 23  1  0  0  0  0
 15 24  2  0  0  0  0
 18 25  1  0  0  0  0
 19 26  2  0  0  0  0
 20 27  1  0  0  0  0
 21 28  2  0  0  0  0
 21 29  1  0  0  0  0
 22 30  1  0  0  0  0
 22 31  1  0  0  0  0
 23 32  1  0  0  0  0
 23 33  2  0  0  0  0
 25 34  2  0  0  0  0
 27 35  1  0  0  0  0
 29 36  1  0  0  0  0
 32 37  1  0  0  0  0
 34 38  1  0  0  0  0
 35 39  2  0  0  0  0
 36 40  1  0  0  0  0
 37 41  2  0  0  0  0
 37 42  1  0  0  0  0
 40 43  2  0  0  0  0
 40 44  1  0  0  0  0
 41 45  1  0  0  0  0
 42 46  2  0  0  0  0
 43 47  1  0  0  0  0
 44 48  2  0  0  0  0
 45 49  2  0  0  0  0
 47 50  2  0  0  0  0
 49 51  1  0  0  0  0
 51 52  1  0  0  0  0
 52 53  2  0  0  0  0
 52 54  1  0  0  0  0
 54 55  1  0  0  0  0
 55 56  1  0  0  0  0
 56 57  1  0  0  0  0
 56 58  1  0  0  0  0
 56 59  1  0  0  0  0
  7  9  1  0  0  0  0
 17 20  1  0  0  0  0
 24 33  1  0  0  0  0
 26 34  1  0  0  0  0
 30 32  2  0  0  0  0
 46 49  1  0  0  0  0
 48 50  1  0  0  0  0
M  END
>  <MolRegNo>
2036012

>  <m>
=

>  <Value>
2190

>  <Unit>
nM

>  <Type>
IC50

>  <pValue>
5.66

>  <Ligand Efficiency>
0.13

>  <Binding Efficiency>
7.09

>  <Surface Efficiency>
3.64

>  <Assay Index>
974120

>  <Assay Category>


>  <Assay Organism>
Homo sapiens

>  <Target ID>
17045

>  <Target Name>
Cytochrome P450 3A4

>  <Target Organism>
Homo sapiens

>  <Target Description>
Target is a single protein chain

>  <Sequence Accession>
P08684

>  <Reference>


>  <Pubmed ID>


>  <DOI>


$$$$
2036013
Actelion Java MolfileCreator 1.0

 63 70  0  0  1  0  0  0  0  0999 V2000
    0.0000   -0.0000   -0.0000 S   0  0  0  0  0  0  0  0  0  0  0  0
    0.2783    1.2100   -0.0000 O   0  0  0  0  0  0  0  0  0  0  0  0
    0.8833   -0.8349   -0.0000 O   0  0  0  0  0  0  0  0  0  0  0  0
   -1.4884   -0.4235   -0.0000 N   0  0  0  0  0  0  0  0  0  0  0  0
    1.1616    0.3630   -0.0000 C   0  0  0  0  0  0  0  0  0  0  0  0
   -2.6137    0.6413   -0.0000 C   0  0  0  0  0  0  0  0  0  0  0  0
   -1.8635   -1.8998   -0.0000 C   0  0  0  0  0  0  0  0  0  0  0  0
   -4.1020    0.2178   -0.0000 C   0  0  0  0  0  0  0  0  0  0  0  0
   -3.3518   -2.3233   -0.0000 C   0  0  0  0  0  0  0  0  0  0  0  0
   -4.4772   -1.2584   -0.0000 N   0  0  0  0  0  0  0  0  0  0  0  0
   -5.9655   -1.6820   -0.0000 C   0  0  0  0  0  0  0  0  0  0  0  0
   -6.8730   -0.8228   -0.0000 O   0  0  0  0  0  0  0  0  0  0  0  0
   -6.3285   -3.1703   -0.0000 N   0  0  0  0  0  0  0  0  0  0  0  0
   -7.8169   -3.5938   -0.0000 C   0  0  0  0  0  0  0  0  0  0  0  0
   -8.9422   -2.5290   -0.0000 N   0  0  0  0  0  0  0  0  0  0  0  0
   -8.1920   -5.0701   -0.0000 C   0  0  0  0  0  0  0  0  0  0  0  0
  -10.4306   -2.9525   -0.0000 C   0  0  0  0  0  0  0  0  0  0  0  0
   -9.6804   -5.4936   -0.0000 C   0  0  0  0  0  0  0  0  0  0  0  0
  -10.7936   -4.4409   -0.0000 C   0  0  0  0  0  0  0  0  0  0  0  0
  -12.3061   -4.7555   -0.0000 C   0  0  0  0  0  0  0  0  0  0  0  0
  -13.4678   -3.7148   -0.0000 C   0  0  0  0  0  0  0  0  0  0  0  0
  -12.9354   -6.1470   -0.0000 C   0  0  0  0  0  0  0  0  0  0  0  0
  -14.8109   -4.4772   -0.0000 C   0  0  0  0  0  0  0  0  0  0  0  0
  -13.4799   -2.1660   -0.0000 C   0  0  0  0  0  0  0  0  0  0  0  0
  -14.4721   -5.9776   -0.0000 N   0  0  0  0  0  0  0  0  0  0  0  0
  -16.1541   -3.7027   -0.0000 C   0  0  0  0  0  0  0  0  0  0  0  0
  -14.8230   -1.3916   -0.0000 C   0  0  0  0  0  0  0  0  0  0  0  0
  -15.3071   -6.8851   -0.0000 C   0  0  0  0  0  0  0  0  0  0  0  0
  -16.1662   -2.1539   -0.0000 C   0  0  0  0  0  0  0  0  0  0  0  0
  -17.4972   -4.4651   -0.0000 C   0  0  0  0  0  0  0  0  0  0  0  0
  -18.8404   -3.6906   -0.0000 N   0  0  0  0  0  0  0  0  0  0  0  0
  -20.1835   -4.4409   -0.0000 C   0  0  0  0  0  0  0  0  0  0  0  0
  -18.8525   -2.1418   -0.0000 C   0  0  0  0  0  0  0  0  0  0  0  0
  -20.1956   -5.6630   -0.0000 O   0  0  0  0  0  0  0  0  0  0  0  0
  -21.5267   -3.6664   -0.0000 C   0  0  0  0  0  0  0  0  0  0  0  0
  -20.1956   -1.3673   -0.0000 C   0  0  0  0  0  0  0  0  0  0  0  0
  -21.5388   -2.1176   -0.0000 N   0  0  0  0  0  0  0  0  0  0  0  0
  -22.8698   -4.4167   -0.0000 C   0  0  0  0  0  0  0  0  0  0  0  0
  -20.2077    0.1815   -0.0000 N   0  0  0  0  0  0  0  0  0  0  0  0
  -22.8819   -1.3431   -0.0000 C   0  0  0  0  0  0  0  0  0  0  0  0
  -24.2130   -3.6301   -0.0000 C   0  0  0  0  0  0  0  0  0  0  0  0
  -21.5509    0.9559   -0.0000 N   0  0  0  0  0  0  0  0  0  0  0  0
  -18.8888    0.9680   -0.0000 C   0  0  0  0  0  0  0  0  0  0  0  0
  -23.9589   -1.9482   -0.0000 O   0  0  0  0  0  0  0  0  0  0  0  0
  -22.8940    0.2057   -0.0000 C   0  0  0  0  0  0  0  0  0  0  0  0
  -25.5561   -4.3804   -0.0000 C   0  0  0  0  0  0  0  0  0  0  0  0
  -24.2251   -2.0813   -0.0000 C   0  0  0  0  0  0  0  0  0  0  0  0
  -21.5630    2.5048   -0.0000 C   0  0  0  0  0  0  0  0  0  0  0  0
  -17.8360    0.3630   -0.0000 O   0  0  0  0  0  0  0  0  0  0  0  0
  -18.9009    2.5169   -0.0000 N   0  0  0  0  0  0  0  0  0  0  0  0
  -26.8993   -3.5938   -0.0000 C   0  0  0  0  0  0  0  0  0  0  0  0
  -25.5682   -1.2947   -0.0000 C   0  0  0  0  0  0  0  0  0  0  0  0
  -22.9061    3.2792   -0.0000 C   0  0  0  0  0  0  0  0  0  0  0  0
  -17.5819    3.3034   -0.0000 C   0  0  0  0  0  0  0  0  0  0  0  0
  -26.9114   -2.0450   -0.0000 C   0  0  0  0  0  0  0  0  0  0  0  0
  -22.9182    4.5256   -0.0000 C   0  0  0  0  0  0  0  0  0  0  0  0
  -17.5940    4.8523   -0.0000 C   0  0  0  0  0  0  0  0  0  0  0  0
  -27.9883   -1.4158   -0.0000 O   0  0  0  0  0  0  0  0  0  0  0  0
  -16.2751    5.6388   -0.0000 C   0  0  0  0  0  0  0  0  0  0  0  0
  -18.9372    5.6267   -0.0000 C   0  0  0  0  0  0  0  0  0  0  0  0
  -16.2872    7.1877   -0.0000 C   0  0  0  0  0  0  0  0  0  0  0  0
  -18.9493    7.1756   -0.0000 C   0  0  0  0  0  0  0  0  0  0  0  0
  -17.6303    7.9621   -0.0000 C   0  0  0  0  0  0  0  0  0  0  0  0
  1  2  2  0  0  0  0
  1  3  2  0  0  0  0
  1  4  1  0  0  0  0
  1  5  1  0  0  0  0
  4  6  1  0  0  0  0
  4  7  1  0  0  0  0
  6  8  1  0  0  0  0
  7  9  1  0  0  0  0
  8 10  1  0  0  0  0
 10 11  1  0  0  0  0
 11 12  2  0  0  0  0
 11 13  1  0  0  0  0
 13 14  1  0  0  0  0
 14 15  2  0  0  0  0
 14 16  1  0  0  0  0
 15 17  1  0  0  0  0
 16 18  2  0  0  0  0
 17 19  2  0  0  0  0
 19 20  1  0  0  0  0
 20 21  1  0  0  0  0
 20 22  2  0  0  0  0
 21 23  2  0  0  0  0
 21 24  1  0  0  0  0
 22 25  1  0  0  0  0
 23 26  1  0  0  0  0
 24 27  2  0  0  0  0
 25 28  1  0  0  0  0
 26 29  2  0  0  0  0
 26 30  1  0  0  0  0
 30 31  1  0  0  0  0
 31 32  1  0  0  0  0
 31 33  1  0  0  0  0
 32 34  2  0  0  0  0
 32 35  1  0  0  0  0
 33 36  1  0  0  0  0
 35 37  1  0  0  0  0
 35 38  1  6  0  0  0
 36 39  1  1  0  0  0
 37 40  1  0  0  0  0
 38 41  1  0  0  0  0
 39 42  1  0  0  0  0
 39 43  1  0  0  0  0
 40 44  2  0  0  0  0
 40 45  1  0  0  0  0
 41 46  2  0  0  0  0
 41 47  1  0  0  0  0
 42 48  1  0  0  0  0
 43 49  2  0  0  0  0
 43 50  1  0  0  0  0
 46 51  1  0  0  0  0
 47 52  2  0  0  0  0
 48 53  1  0  0  0  0
 50 54  1  0  0  0  0
 51 55  2  0  0  0  0
 53 56  2  0  0  0  0
 54 57  1  0  0  0  0
 55 58  1  0  0  0  0
 57 59  2  0  0  0  0
 57 60  1  0  0  0  0
 59 61  1  0  0  0  0
 60 62  2  0  0  0  0
 61 63  2  0  0  0  0
  9 10  1  0  0  0  0
 18 19  1  0  0  0  0
 23 25  1  0  0  0  0
 27 29  1  0  0  0  0
 36 37  1  0  0  0  0
 42 45  1  0  0  0  0
 52 55  1  0  0  0  0
 62 63  1  0  0  0  0
M  END
>  <MolRegNo>
2036013

>  <m>
=

>  <Value>
6400

>  <Unit>
nM

>  <Type>
IC50

>  <pValue>
5.19

>  <Ligand Efficiency>
0.11

>  <Binding Efficiency>
5.94

>  <Surface Efficiency>
2.82

>  <Assay Index>
974120

>  <Assay Category>


>  <Assay Organism>
Homo sapiens

>  <Target ID>
17045

>  <Target Name>
Cytochrome P450 3A4

>  <Target Organism>
Homo sapiens

>  <Target Description>
Target is a single protein chain

>  <Sequence Accession>
P08684

>  <Reference>


>  <Pubmed ID>


>  <DOI>


$$$$
2036014
Actelion Java MolfileCreator 1.0

 61 68  0  0  1  0  0  0  0  0999 V2000
    0.0000   -0.0000   -0.0000 O   0  0  0  0  0  0  0  0  0  0  0  0
   -0.0121    1.2423   -0.0000 C   0  0  0  0  0  0  0  0  0  0  0  0
    1.3027    2.0143   -0.0000 N   0  0  0  0  0  0  0  0  0  0  0  0
   -1.3509    2.0143   -0.0000 C   0  0  0  0  0  0  0  0  0  0  0  0
    1.2906    3.5582   -0.0000 C   0  0  0  0  0  0  0  0  0  0  0  0
    2.6174    1.2665   -0.0000 C   0  0  0  0  0  0  0  0  0  0  0  0
   -1.3630    3.5582   -0.0000 N   0  0  0  0  0  0  0  0  0  0  0  0
   -2.6897    1.2665   -0.0000 C   0  0  0  0  0  0  0  0  0  0  0  0
   -0.0482    4.3301   -0.0000 C   0  0  0  0  0  0  0  0  0  0  0  0
    3.9321    2.0505   -0.0000 C   0  0  0  0  0  0  0  0  0  0  0  0
   -2.7018    4.3301   -0.0000 C   0  0  0  0  0  0  0  0  0  0  0  0
   -4.0286    2.0505   -0.0000 C   0  0  0  0  0  0  0  0  0  0  0  0
   -0.0603    5.8740   -0.0000 N   0  0  0  0  0  0  0  0  0  0  0  0
    5.2468    1.3027   -0.0000 C   0  0  0  0  0  0  0  0  0  0  0  0
    3.9200    3.5944   -0.0000 C   0  0  0  0  0  0  0  0  0  0  0  0
   -3.7753    3.7270   -0.0000 O   0  0  0  0  0  0  0  0  0  0  0  0
   -2.7139    5.8740   -0.0000 C   0  0  0  0  0  0  0  0  0  0  0  0
   -5.3674    1.3027   -0.0000 C   0  0  0  0  0  0  0  0  0  0  0  0
   -4.0406    3.5944   -0.0000 C   0  0  0  0  0  0  0  0  0  0  0  0
   -1.3991    6.6459   -0.0000 N   0  0  0  0  0  0  0  0  0  0  0  0
    1.2544    6.6580   -0.0000 C   0  0  0  0  0  0  0  0  0  0  0  0
    5.5604   -0.1809   -0.0000 N   0  0  0  0  0  0  0  0  0  0  0  0
    6.5615    2.0867   -0.0000 C   0  0  0  0  0  0  0  0  0  0  0  0
    5.2347    4.3784   -0.0000 C   0  0  0  0  0  0  0  0  0  0  0  0
   -6.7062    2.0867   -0.0000 C   0  0  0  0  0  0  0  0  0  0  0  0
   -5.3795    4.3784   -0.0000 C   0  0  0  0  0  0  0  0  0  0  0  0
   -1.4112    8.1898   -0.0000 C   0  0  0  0  0  0  0  0  0  0  0  0
    2.3038    6.0549   -0.0000 O   0  0  0  0  0  0  0  0  0  0  0  0
    1.2423    8.2019   -0.0000 N   0  0  0  0  0  0  0  0  0  0  0  0
    7.0681   -0.3257   -0.0000 C   0  0  0  0  0  0  0  0  0  0  0  0
    4.7281   -1.0855   -0.0000 C   0  0  0  0  0  0  0  0  0  0  0  0
    7.6953    1.0735   -0.0000 C   0  0  0  0  0  0  0  0  0  0  0  0
    6.5494    3.6305   -0.0000 C   0  0  0  0  0  0  0  0  0  0  0  0
   -6.7183    3.6305   -0.0000 C   0  0  0  0  0  0  0  0  0  0  0  0
   -2.7500    8.9618   -0.0000 C   0  0  0  0  0  0  0  0  0  0  0  0
    2.5571    8.9859   -0.0000 C   0  0  0  0  0  0  0  0  0  0  0  0
    9.1789    1.4112   -0.0000 C   0  0  0  0  0  0  0  0  0  0  0  0
   -7.7918    4.2577   -0.0000 O   0  0  0  0  0  0  0  0  0  0  0  0
   -2.7621   10.2041   -0.0000 C   0  0  0  0  0  0  0  0  0  0  0  0
    2.5450   10.5298   -0.0000 C   0  0  0  0  0  0  0  0  0  0  0  0
    9.5166    2.9189   -0.0000 C   0  0  0  0  0  0  0  0  0  0  0  0
   10.2765    0.3739   -0.0000 C   0  0  0  0  0  0  0  0  0  0  0  0
    3.8597   11.3138   -0.0000 C   0  0  0  0  0  0  0  0  0  0  0  0
    1.2062   11.3017   -0.0000 C   0  0  0  0  0  0  0  0  0  0  0  0
   10.9760    3.3652   -0.0000 N   0  0  0  0  0  0  0  0  0  0  0  0
   11.7359    0.8202   -0.0000 C   0  0  0  0  0  0  0  0  0  0  0  0
    3.8476   12.8576   -0.0000 C   0  0  0  0  0  0  0  0  0  0  0  0
    1.1941   12.8456   -0.0000 C   0  0  0  0  0  0  0  0  0  0  0  0
   12.0736    2.3279   -0.0000 C   0  0  0  0  0  0  0  0  0  0  0  0
    2.5088   13.6296   -0.0000 C   0  0  0  0  0  0  0  0  0  0  0  0
   13.5331    2.7742   -0.0000 N   0  0  0  0  0  0  0  0  0  0  0  0
   13.8708    4.2819   -0.0000 C   0  0  0  0  0  0  0  0  0  0  0  0
   12.9662    5.1382   -0.0000 O   0  0  0  0  0  0  0  0  0  0  0  0
   15.3303    4.7281   -0.0000 N   0  0  0  0  0  0  0  0  0  0  0  0
   15.6680    6.2358   -0.0000 C   0  0  0  0  0  0  0  0  0  0  0  0
   17.1274    6.6942   -0.0000 C   0  0  0  0  0  0  0  0  0  0  0  0
   14.5463    7.2973   -0.0000 C   0  0  0  0  0  0  0  0  0  0  0  0
   17.4652    8.2019   -0.0000 C   0  0  0  0  0  0  0  0  0  0  0  0
   14.8840    8.8050   -0.0000 C   0  0  0  0  0  0  0  0  0  0  0  0
   16.3434    9.2633   -0.0000 N   0  0  0  0  0  0  0  0  0  0  0  0
   16.6088   10.4695   -0.0000 C   0  0  0  0  0  0  0  0  0  0  0  0
  1  2  2  0  0  0  0
  2  3  1  0  0  0  0
  2  4  1  0  0  0  0
  3  5  1  0  0  0  0
  3  6  1  0  0  0  0
  4  7  1  0  0  0  0
  4  8  1  6  0  0  0
  5  9  1  0  0  0  0
  6 10  1  0  0  0  0
  7 11  1  0  0  0  0
  8 12  1  0  0  0  0
  9 13  1  1  0  0  0
 10 14  2  0  0  0  0
 10 15  1  0  0  0  0
 11 16  2  0  0  0  0
 11 17  1  0  0  0  0
 12 18  2  0  0  0  0
 12 19  1  0  0  0  0
 13 20  1  0  0  0  0
 13 21  1  0  0  0  0
 14 22  1  0  0  0  0
 14 23  1  0  0  0  0
 15 24  2  0  0  0  0
 18 25  1  0  0  0  0
 19 26  2  0  0  0  0
 20 27  1  0  0  0  0
 21 28  2  0  0  0  0
 21 29  1  0  0  0  0
 22 30  1  0  0  0  0
 22 31  1  0  0  0  0
 23 32  1  0  0  0  0
 23 33  2  0  0  0  0
 25 34  2  0  0  0  0
 27 35  1  0  0  0  0
 29 36  1  0  0  0  0
 32 37  1  0  0  0  0
 34 38  1  0  0  0  0
 35 39  2  0  0  0  0
 36 40  1  0  0  0  0
 37 41  2  0  0  0  0
 37 42  1  0  0  0  0
 40 43  2  0  0  0  0
 40 44  1  0  0  0  0
 41 45  1  0  0  0  0
 42 46  2  0  0  0  0
 43 47  1  0  0  0  0
 44 48  2  0  0  0  0
 45 49  2  0  0  0  0
 47 50  2  0  0  0  0
 49 51  1  0  0  0  0
 51 52  1  0  0  0  0
 52 53  2  0  0  0  0
 52 54  1  0  0  0  0
 54 55  1  0  0  0  0
 55 56  1  0  0  0  0
 55 57  1  0  0  0  0
 56 58  1  0  0  0  0
 57 59  1  0  0  0  0
 58 60  1  0  0  0  0
 60 61  1  0  0  0  0
  7  9  1  0  0  0  0
 17 20  1  0  0  0  0
 24 33  1  0  0  0  0
 26 34  1  0  0  0  0
 30 32  2  0  0  0  0
 46 49  1  0  0  0  0
 48 50  1  0  0  0  0
 59 60  1  0  0  0  0
M  END
>  <MolRegNo>
2036014

>  <m>
=

>  <Value>
2920

>  <Unit>
nM

>  <Type>
IC50

>  <pValue>
5.54

>  <Ligand Efficiency>
0.12

>  <Binding Efficiency>
6.71

>  <Surface Efficiency>
3.49

>  <Assay Index>
974120

>  <Assay Category>


>  <Assay Organism>
Homo sapiens

>  <Target ID>
17045

>  <Target Name>
Cytochrome P450 3A4

>  <Target Organism>
Homo sapiens

>  <Target Description>
Target is a single protein chain

>  <Sequence Accession>
P08684

>  <Reference>


>  <Pubmed ID>


>  <DOI>


$$$$
2036015
Actelion Java MolfileCreator 1.0

 54 60  0  0  1  0  0  0  0  0999 V2000
    0.0000   -0.0000   -0.0000 O   0  0  0  0  0  0  0  0  0  0  0  0
   -0.0122    1.2525   -0.0000 C   0  0  0  0  0  0  0  0  0  0  0  0
    1.3133    2.0307   -0.0000 N   0  0  0  0  0  0  0  0  0  0  0  0
   -1.3619    2.0307   -0.0000 C   0  0  0  0  0  0  0  0  0  0  0  0
    1.3011    3.5872   -0.0000 C   0  0  0  0  0  0  0  0  0  0  0  0
    2.6387    1.2768   -0.0000 C   0  0  0  0  0  0  0  0  0  0  0  0
   -1.3741    3.5872   -0.0000 N   0  0  0  0  0  0  0  0  0  0  0  0
   -2.7117    1.2768   -0.0000 C   0  0  0  0  0  0  0  0  0  0  0  0
   -0.0486    4.3655   -0.0000 C   0  0  0  0  0  0  0  0  0  0  0  0
    3.9642    2.0672   -0.0000 C   0  0  0  0  0  0  0  0  0  0  0  0
   -2.7238    4.3655   -0.0000 C   0  0  0  0  0  0  0  0  0  0  0  0
   -4.0615    2.0672   -0.0000 C   0  0  0  0  0  0  0  0  0  0  0  0
   -0.0608    5.9219   -0.0000 N   0  0  0  0  0  0  0  0  0  0  0  0
    5.2896    1.3133   -0.0000 C   0  0  0  0  0  0  0  0  0  0  0  0
    3.9520    3.6237   -0.0000 C   0  0  0  0  0  0  0  0  0  0  0  0
   -3.8061    3.7575   -0.0000 O   0  0  0  0  0  0  0  0  0  0  0  0
   -2.7360    5.9219   -0.0000 C   0  0  0  0  0  0  0  0  0  0  0  0
   -5.4112    1.3133   -0.0000 C   0  0  0  0  0  0  0  0  0  0  0  0
   -4.0736    3.6237   -0.0000 C   0  0  0  0  0  0  0  0  0  0  0  0
   -1.4106    6.7002   -0.0000 N   0  0  0  0  0  0  0  0  0  0  0  0
    1.2646    6.7123   -0.0000 C   0  0  0  0  0  0  0  0  0  0  0  0
    5.6058   -0.1824   -0.0000 N   0  0  0  0  0  0  0  0  0  0  0  0
    6.6151    2.1037   -0.0000 C   0  0  0  0  0  0  0  0  0  0  0  0
    5.2775    4.4141   -0.0000 C   0  0  0  0  0  0  0  0  0  0  0  0
   -6.7610    2.1037   -0.0000 C   0  0  0  0  0  0  0  0  0  0  0  0
   -5.4234    4.4141   -0.0000 C   0  0  0  0  0  0  0  0  0  0  0  0
   -1.4227    8.2567   -0.0000 C   0  0  0  0  0  0  0  0  0  0  0  0
    2.3226    6.1043   -0.0000 O   0  0  0  0  0  0  0  0  0  0  0  0
    1.2525    8.2688   -0.0000 N   0  0  0  0  0  0  0  0  0  0  0  0
    7.1258   -0.3283   -0.0000 C   0  0  0  0  0  0  0  0  0  0  0  0
    4.7667   -1.0944   -0.0000 C   0  0  0  0  0  0  0  0  0  0  0  0
    7.7581    1.0822   -0.0000 C   0  0  0  0  0  0  0  0  0  0  0  0
    6.6029    3.6602   -0.0000 C   0  0  0  0  0  0  0  0  0  0  0  0
   -6.7731    3.6602   -0.0000 C   0  0  0  0  0  0  0  0  0  0  0  0
   -2.7725    9.0349   -0.0000 C   0  0  0  0  0  0  0  0  0  0  0  0
    2.5779    9.0592   -0.0000 C   0  0  0  0  0  0  0  0  0  0  0  0
    9.2538    1.4227   -0.0000 C   0  0  0  0  0  0  0  0  0  0  0  0
   -7.8554    4.2925   -0.0000 O   0  0  0  0  0  0  0  0  0  0  0  0
   -2.7846   10.2874   -0.0000 C   0  0  0  0  0  0  0  0  0  0  0  0
    2.5658   10.6157   -0.0000 C   0  0  0  0  0  0  0  0  0  0  0  0
   10.4455    0.4986   -0.0000 O   0  0  0  0  0  0  0  0  0  0  0  0
    9.7280    2.8819   -0.0000 C   0  0  0  0  0  0  0  0  0  0  0  0
    3.8912   11.4061   -0.0000 C   0  0  0  0  0  0  0  0  0  0  0  0
    1.2160   11.3940   -0.0000 C   0  0  0  0  0  0  0  0  0  0  0  0
   11.6980    1.3862   -0.0000 C   0  0  0  0  0  0  0  0  0  0  0  0
   11.2602    2.8576   -0.0000 C   0  0  0  0  0  0  0  0  0  0  0  0
    3.8791   12.9626   -0.0000 C   0  0  0  0  0  0  0  0  0  0  0  0
    1.2038   12.9504   -0.0000 C   0  0  0  0  0  0  0  0  0  0  0  0
   13.1450    0.8877   -0.0000 C   0  0  0  0  0  0  0  0  0  0  0  0
    2.5293   13.7408   -0.0000 C   0  0  0  0  0  0  0  0  0  0  0  0
   13.3639   -0.3162   -0.0000 O   0  0  0  0  0  0  0  0  0  0  0  0
   14.3002    1.9091   -0.0000 N   0  0  0  0  0  0  0  0  0  0  0  0
   15.4554    1.5200   -0.0000 C   0  0  0  0  0  0  0  0  0  0  0  0
   14.0570    3.1373   -0.0000 C   0  0  0  0  0  0  0  0  0  0  0  0
  1  2  2  0  0  0  0
  2  3  1  0  0  0  0
  2  4  1  0  0  0  0
  3  5  1  0  0  0  0
  3  6  1  0  0  0  0
  4  7  1  0  0  0  0
  4  8  1  6  0  0  0
  5  9  1  0  0  0  0
  6 10  1  0  0  0  0
  7 11  1  0  0  0  0
  8 12  1  0  0  0  0
  9 13  1  1  0  0  0
 10 14  2  0  0  0  0
 10 15  1  0  0  0  0
 11 16  2  0  0  0  0
 11 17  1  0  0  0  0
 12 18  2  0  0  0  0
 12 19  1  0  0  0  0
 13 20  1  0  0  0  0
 13 21  1  0  0  0  0
 14 22  1  0  0  0  0
 14 23  1  0  0  0  0
 15 24  2  0  0  0  0
 18 25  1  0  0  0  0
 19 26  2  0  0  0  0
 20 27  1  0  0  0  0
 21 28  2  0  0  0  0
 21 29  1  0  0  0  0
 22 30  1  0  0  0  0
 22 31  1  0  0  0  0
 23 32  1  0  0  0  0
 23 33  2  0  0  0  0
 25 34  2  0  0  0  0
 27 35  1  0  0  0  0
 29 36  1  0  0  0  0
 32 37  1  0  0  0  0
 34 38  1  0  0  0  0
 35 39  2  0  0  0  0
 36 40  1  0  0  0  0
 37 41  1  0  0  0  0
 37 42  2  0  0  0  0
 40 43  2  0  0  0  0
 40 44  1  0  0  0  0
 41 45  1  0  0  0  0
 42 46  1  0  0  0  0
 43 47  1  0  0  0  0
 44 48  2  0  0  0  0
 45 49  1  0  0  0  0
 47 50  2  0  0  0  0
 49 51  2  0  0  0  0
 49 52  1  0  0  0  0
 52 53  1  0  0  0  0
 52 54  1  0  0  0  0
  7  9  1  0  0  0  0
 17 20  1  0  0  0  0
 24 33  1  0  0  0  0
 26 34  1  0  0  0  0
 30 32  2  0  0  0  0
 45 46  2  0  0  0  0
 48 50  1  0  0  0  0
M  END
>  <MolRegNo>
2036015

>  <m>
=

>  <Value>
3420

>  <Unit>
nM

>  <Type>
IC50

>  <pValue>
5.47

>  <Ligand Efficiency>
0.14

>  <Binding Efficiency>
7.49

>  <Surface Efficiency>
4.05

>  <Assay Index>
974120

>  <Assay Category>


>  <Assay Organism>
Homo sapiens

>  <Target ID>
17045

>  <Target Name>
Cytochrome P450 3A4

>  <Target Organism>
Homo sapiens

>  <Target Description>
Target is a single protein chain

>  <Sequence Accession>
P08684

>  <Reference>


>  <Pubmed ID>


>  <DOI>


$$$$
2036021
Actelion Java MolfileCreator 1.0

 56 62  0  0  1  0  0  0  0  0999 V2000
    0.0000   -0.0000   -0.0000 O   0  0  0  0  0  0  0  0  0  0  0  0
   -0.0121    1.2473   -0.0000 C   0  0  0  0  0  0  0  0  0  0  0  0
    1.3079    2.0224   -0.0000 N   0  0  0  0  0  0  0  0  0  0  0  0
   -1.3563    2.0224   -0.0000 C   0  0  0  0  0  0  0  0  0  0  0  0
    1.2958    3.5725   -0.0000 C   0  0  0  0  0  0  0  0  0  0  0  0
    2.6279    1.2716   -0.0000 C   0  0  0  0  0  0  0  0  0  0  0  0
   -1.3684    3.5725   -0.0000 N   0  0  0  0  0  0  0  0  0  0  0  0
   -2.7006    1.2716   -0.0000 C   0  0  0  0  0  0  0  0  0  0  0  0
   -0.0484    4.3475   -0.0000 C   0  0  0  0  0  0  0  0  0  0  0  0
    3.9479    2.0587   -0.0000 C   0  0  0  0  0  0  0  0  0  0  0  0
   -2.7127    4.3475   -0.0000 C   0  0  0  0  0  0  0  0  0  0  0  0
   -4.0448    2.0587   -0.0000 C   0  0  0  0  0  0  0  0  0  0  0  0
   -0.0606    5.8976   -0.0000 N   0  0  0  0  0  0  0  0  0  0  0  0
    5.2679    1.3079   -0.0000 C   0  0  0  0  0  0  0  0  0  0  0  0
    3.9358    3.6088   -0.0000 C   0  0  0  0  0  0  0  0  0  0  0  0
   -3.7905    3.7420   -0.0000 O   0  0  0  0  0  0  0  0  0  0  0  0
   -2.7248    5.8976   -0.0000 C   0  0  0  0  0  0  0  0  0  0  0  0
   -5.3890    1.3079   -0.0000 C   0  0  0  0  0  0  0  0  0  0  0  0
   -4.0569    3.6088   -0.0000 C   0  0  0  0  0  0  0  0  0  0  0  0
   -1.4048    6.6727   -0.0000 N   0  0  0  0  0  0  0  0  0  0  0  0
    1.2595    6.6848   -0.0000 C   0  0  0  0  0  0  0  0  0  0  0  0
    5.5828   -0.1817   -0.0000 N   0  0  0  0  0  0  0  0  0  0  0  0
    6.5879    2.0951   -0.0000 C   0  0  0  0  0  0  0  0  0  0  0  0
    5.2558    4.3960   -0.0000 C   0  0  0  0  0  0  0  0  0  0  0  0
   -6.7332    2.0951   -0.0000 C   0  0  0  0  0  0  0  0  0  0  0  0
   -5.4011    4.3960   -0.0000 C   0  0  0  0  0  0  0  0  0  0  0  0
   -1.4169    8.2228   -0.0000 C   0  0  0  0  0  0  0  0  0  0  0  0
    2.3130    6.0793   -0.0000 O   0  0  0  0  0  0  0  0  0  0  0  0
    1.2473    8.2349   -0.0000 N   0  0  0  0  0  0  0  0  0  0  0  0
    7.0966   -0.3270   -0.0000 C   0  0  0  0  0  0  0  0  0  0  0  0
    4.7472   -1.0899   -0.0000 C   0  0  0  0  0  0  0  0  0  0  0  0
    7.7263    1.0778   -0.0000 C   0  0  0  0  0  0  0  0  0  0  0  0
    6.5758    3.6452   -0.0000 C   0  0  0  0  0  0  0  0  0  0  0  0
   -6.7454    3.6452   -0.0000 C   0  0  0  0  0  0  0  0  0  0  0  0
   -2.7611    8.9978   -0.0000 C   0  0  0  0  0  0  0  0  0  0  0  0
    2.5674    9.0221   -0.0000 C   0  0  0  0  0  0  0  0  0  0  0  0
    9.2158    1.4169   -0.0000 C   0  0  0  0  0  0  0  0  0  0  0  0
   -7.8232    4.2749   -0.0000 O   0  0  0  0  0  0  0  0  0  0  0  0
   -2.7732   10.2452   -0.0000 C   0  0  0  0  0  0  0  0  0  0  0  0
    2.5552   10.5722   -0.0000 C   0  0  0  0  0  0  0  0  0  0  0  0
    9.5791    2.6037   -0.0000 O   0  0  0  0  0  0  0  0  0  0  0  0
   10.2331    0.2906   -0.0000 N   0  0  0  0  0  0  0  0  0  0  0  0
    3.8752   11.3593   -0.0000 C   0  0  0  0  0  0  0  0  0  0  0  0
    1.2110   11.3472   -0.0000 C   0  0  0  0  0  0  0  0  0  0  0  0
   11.7226    0.6176   -0.0000 C   0  0  0  0  0  0  0  0  0  0  0  0
    9.7487   -1.1626   -0.0000 C   0  0  0  0  0  0  0  0  0  0  0  0
    3.8631   12.9094   -0.0000 C   0  0  0  0  0  0  0  0  0  0  0  0
    1.1989   12.8973   -0.0000 C   0  0  0  0  0  0  0  0  0  0  0  0
   12.7399   -0.5086   -0.0000 C   0  0  0  0  0  0  0  0  0  0  0  0
   10.7659   -2.2888   -0.0000 C   0  0  0  0  0  0  0  0  0  0  0  0
    2.5189   13.6845   -0.0000 C   0  0  0  0  0  0  0  0  0  0  0  0
   12.2555   -1.9618   -0.0000 N   0  0  0  0  0  0  0  0  0  0  0  0
   13.2727   -3.1002   -0.0000 C   0  0  0  0  0  0  0  0  0  0  0  0
   12.7883   -4.5534   -0.0000 C   0  0  0  0  0  0  0  0  0  0  0  0
   13.8056   -5.6918   -0.0000 O   0  0  0  0  0  0  0  0  0  0  0  0
   13.4059   -6.8543   -0.0000 C   0  0  0  0  0  0  0  0  0  0  0  0
  1  2  2  0  0  0  0
  2  3  1  0  0  0  0
  2  4  1  0  0  0  0
  3  5  1  0  0  0  0
  3  6  1  0  0  0  0
  4  7  1  0  0  0  0
  4  8  1  6  0  0  0
  5  9  1  0  0  0  0
  6 10  1  0  0  0  0
  7 11  1  0  0  0  0
  8 12  1  0  0  0  0
  9 13  1  1  0  0  0
 10 14  2  0  0  0  0
 10 15  1  0  0  0  0
 11 16  2  0  0  0  0
 11 17  1  0  0  0  0
 12 18  2  0  0  0  0
 12 19  1  0  0  0  0
 13 20  1  0  0  0  0
 13 21  1  0  0  0  0
 14 22  1  0  0  0  0
 14 23  1  0  0  0  0
 15 24  2  0  0  0  0
 18 25  1  0  0  0  0
 19 26  2  0  0  0  0
 20 27  1  0  0  0  0
 21 28  2  0  0  0  0
 21 29  1  0  0  0  0
 22 30  1  0  0  0  0
 22 31  1  0  0  0  0
 23 32  1  0  0  0  0
 23 33  2  0  0  0  0
 25 34  2  0  0  0  0
 27 35  1  0  0  0  0
 29 36  1  0  0  0  0
 32 37  1  0  0  0  0
 34 38  1  0  0  0  0
 35 39  2  0  0  0  0
 36 40  1  0  0  0  0
 37 41  2  0  0  0  0
 37 42  1  0  0  0  0
 40 43  2  0  0  0  0
 40 44  1  0  0  0  0
 42 45  1  0  0  0  0
 42 46  1  0  0  0  0
 43 47  1  0  0  0  0
 44 48  2  0  0  0  0
 45 49  1  0  0  0  0
 46 50  1  0  0  0  0
 47 51  2  0  0  0  0
 49 52  1  0  0  0  0
 52 53  1  0  0  0  0
 53 54  1  0  0  0  0
 54 55  1  0  0  0  0
 55 56  1  0  0  0  0
  7  9  1  0  0  0  0
 17 20  1  0  0  0  0
 24 33  1  0  0  0  0
 26 34  1  0  0  0  0
 30 32  2  0  0  0  0
 48 51  1  0  0  0  0
 50 52  1  0  0  0  0
M  END
>  <MolRegNo>
2036021

>  <m>
=

>  <Value>
9120

>  <Unit>
nM

>  <Type>
IC50

>  <pValue>
5.04

>  <Ligand Efficiency>
0.12

>  <Binding Efficiency>
6.61

>  <Surface Efficiency>
3.76

>  <Assay Index>
974120

>  <Assay Category>


>  <Assay Organism>
Homo sapiens

>  <Target ID>
17045

>  <Target Name>
Cytochrome P450 3A4

>  <Target Organism>
Homo sapiens

>  <Target Description>
Target is a single protein chain

>  <Sequence Accession>
P08684

>  <Reference>


>  <Pubmed ID>


>  <DOI>


$$$$
2036022
Actelion Java MolfileCreator 1.0

 56 62  0  0  1  0  0  0  0  0999 V2000
    0.0000   -0.0000   -0.0000 O   0  0  0  0  0  0  0  0  0  0  0  0
   -0.0121    1.2474   -0.0000 C   0  0  0  0  0  0  0  0  0  0  0  0
    1.3080    2.0225   -0.0000 N   0  0  0  0  0  0  0  0  0  0  0  0
   -1.3564    2.0225   -0.0000 C   0  0  0  0  0  0  0  0  0  0  0  0
    1.2958    3.5726   -0.0000 C   0  0  0  0  0  0  0  0  0  0  0  0
    2.6280    1.2716   -0.0000 C   0  0  0  0  0  0  0  0  0  0  0  0
   -1.3685    3.5726   -0.0000 N   0  0  0  0  0  0  0  0  0  0  0  0
   -2.7007    1.2716   -0.0000 C   0  0  0  0  0  0  0  0  0  0  0  0
   -0.0484    4.3477   -0.0000 C   0  0  0  0  0  0  0  0  0  0  0  0
    3.9481    2.0588   -0.0000 C   0  0  0  0  0  0  0  0  0  0  0  0
   -2.7128    4.3477   -0.0000 C   0  0  0  0  0  0  0  0  0  0  0  0
   -4.0450    2.0588   -0.0000 C   0  0  0  0  0  0  0  0  0  0  0  0
   -0.0606    5.8979   -0.0000 N   0  0  0  0  0  0  0  0  0  0  0  0
    5.2681    1.3080   -0.0000 C   0  0  0  0  0  0  0  0  0  0  0  0
    3.9360    3.6090   -0.0000 C   0  0  0  0  0  0  0  0  0  0  0  0
   -3.7906    3.7422   -0.0000 O   0  0  0  0  0  0  0  0  0  0  0  0
   -2.7249    5.8979   -0.0000 C   0  0  0  0  0  0  0  0  0  0  0  0
   -5.3892    1.3080   -0.0000 C   0  0  0  0  0  0  0  0  0  0  0  0
   -4.0571    3.6090   -0.0000 C   0  0  0  0  0  0  0  0  0  0  0  0
   -1.4048    6.6730   -0.0000 N   0  0  0  0  0  0  0  0  0  0  0  0
    1.2595    6.6851   -0.0000 C   0  0  0  0  0  0  0  0  0  0  0  0
    5.5830   -0.1817   -0.0000 N   0  0  0  0  0  0  0  0  0  0  0  0
    6.5882    2.0951   -0.0000 C   0  0  0  0  0  0  0  0  0  0  0  0
    5.2560    4.3962   -0.0000 C   0  0  0  0  0  0  0  0  0  0  0  0
   -6.7335    2.0951   -0.0000 C   0  0  0  0  0  0  0  0  0  0  0  0
   -5.4014    4.3962   -0.0000 C   0  0  0  0  0  0  0  0  0  0  0  0
   -1.4169    8.2231   -0.0000 C   0  0  0  0  0  0  0  0  0  0  0  0
    2.3131    6.0796   -0.0000 O   0  0  0  0  0  0  0  0  0  0  0  0
    1.2474    8.2352   -0.0000 N   0  0  0  0  0  0  0  0  0  0  0  0
    7.0968   -0.3270   -0.0000 C   0  0  0  0  0  0  0  0  0  0  0  0
    4.7474   -1.0900   -0.0000 C   0  0  0  0  0  0  0  0  0  0  0  0
    7.7266    1.0778   -0.0000 C   0  0  0  0  0  0  0  0  0  0  0  0
    6.5761    3.6453   -0.0000 C   0  0  0  0  0  0  0  0  0  0  0  0
   -6.7456    3.6453   -0.0000 C   0  0  0  0  0  0  0  0  0  0  0  0
   -2.7612    8.9982   -0.0000 C   0  0  0  0  0  0  0  0  0  0  0  0
    2.5675    9.0224   -0.0000 C   0  0  0  0  0  0  0  0  0  0  0  0
    9.2162    1.4169   -0.0000 C   0  0  0  0  0  0  0  0  0  0  0  0
   -7.8235    4.2751   -0.0000 O   0  0  0  0  0  0  0  0  0  0  0  0
   -2.7733   10.2456   -0.0000 C   0  0  0  0  0  0  0  0  0  0  0  0
    2.5553   10.5726   -0.0000 C   0  0  0  0  0  0  0  0  0  0  0  0
    9.5795    2.6038   -0.0000 O   0  0  0  0  0  0  0  0  0  0  0  0
   10.2335    0.2907   -0.0000 N   0  0  0  0  0  0  0  0  0  0  0  0
    3.8754   11.3598   -0.0000 C   0  0  0  0  0  0  0  0  0  0  0  0
    1.2111   11.3477   -0.0000 C   0  0  0  0  0  0  0  0  0  0  0  0
   11.7231    0.6176   -0.0000 C   0  0  0  0  0  0  0  0  0  0  0  0
    9.7491   -1.1626   -0.0000 C   0  0  0  0  0  0  0  0  0  0  0  0
    3.8633   12.9100   -0.0000 C   0  0  0  0  0  0  0  0  0  0  0  0
    1.1990   12.8979   -0.0000 C   0  0  0  0  0  0  0  0  0  0  0  0
   12.7404   -0.5086   -0.0000 C   0  0  0  0  0  0  0  0  0  0  0  0
   10.7664   -2.2889   -0.0000 C   0  0  0  0  0  0  0  0  0  0  0  0
    2.5190   13.6850   -0.0000 C   0  0  0  0  0  0  0  0  0  0  0  0
   12.2560   -1.9619   -0.0000 N   0  0  0  0  0  0  0  0  0  0  0  0
   13.2733   -3.1003   -0.0000 C   0  0  0  0  0  0  0  0  0  0  0  0
   12.7889   -4.5536   -0.0000 C   0  0  0  0  0  0  0  0  0  0  0  0
   13.8062   -5.6920   -0.0000 C   0  0  0  0  0  0  0  0  0  0  0  0
   13.4186   -6.8546   -0.0000 O   0  0  0  0  0  0  0  0  0  0  0  0
  1  2  2  0  0  0  0
  2  3  1  0  0  0  0
  2  4  1  0  0  0  0
  3  5  1  0  0  0  0
  3  6  1  0  0  0  0
  4  7  1  0  0  0  0
  4  8  1  6  0  0  0
  5  9  1  0  0  0  0
  6 10  1  0  0  0  0
  7 11  1  0  0  0  0
  8 12  1  0  0  0  0
  9 13  1  1  0  0  0
 10 14  2  0  0  0  0
 10 15  1  0  0  0  0
 11 16  2  0  0  0  0
 11 17  1  0  0  0  0
 12 18  2  0  0  0  0
 12 19  1  0  0  0  0
 13 20  1  0  0  0  0
 13 21  1  0  0  0  0
 14 22  1  0  0  0  0
 14 23  1  0  0  0  0
 15 24  2  0  0  0  0
 18 25  1  0  0  0  0
 19 26  2  0  0  0  0
 20 27  1  0  0  0  0
 21 28  2  0  0  0  0
 21 29  1  0  0  0  0
 22 30  1  0  0  0  0
 22 31  1  0  0  0  0
 23 32  1  0  0  0  0
 23 33  2  0  0  0  0
 25 34  2  0  0  0  0
 27 35  1  0  0  0  0
 29 36  1  0  0  0  0
 32 37  1  0  0  0  0
 34 38  1  0  0  0  0
 35 39  2  0  0  0  0
 36 40  1  0  0  0  0
 37 41  2  0  0  0  0
 37 42  1  0  0  0  0
 40 43  2  0  0  0  0
 40 44  1  0  0  0  0
 42 45  1  0  0  0  0
 42 46  1  0  0  0  0
 43 47  1  0  0  0  0
 44 48  2  0  0  0  0
 45 49  1  0  0  0  0
 46 50  1  0  0  0  0
 47 51  2  0  0  0  0
 49 52  1  0  0  0  0
 52 53  1  0  0  0  0
 53 54  1  0  0  0  0
 54 55  1  0  0  0  0
 55 56  1  0  0  0  0
  7  9  1  0  0  0  0
 17 20  1  0  0  0  0
 24 33  1  0  0  0  0
 26 34  1  0  0  0  0
 30 32  2  0  0  0  0
 48 51  1  0  0  0  0
 50 52  1  0  0  0  0
M  END
>  <MolRegNo>
2036022

>  <m>
=

>  <Value>
11300

>  <Unit>
nM

>  <Type>
IC50

>  <pValue>
4.95

>  <Ligand Efficiency>
0.12

>  <Binding Efficiency>
6.48

>  <Surface Efficiency>
3.41

>  <Assay Index>
974120

>  <Assay Category>


>  <Assay Organism>
Homo sapiens

>  <Target ID>
17045

>  <Target Name>
Cytochrome P450 3A4

>  <Target Organism>
Homo sapiens

>  <Target Description>
Target is a single protein chain

>  <Sequence Accession>
P08684

>  <Reference>


>  <Pubmed ID>


>  <DOI>


$$$$
2036023
Actelion Java MolfileCreator 1.0

 57 63  0  0  1  0  0  0  0  0999 V2000
    0.0000   -0.0000   -0.0000 O   0  0  0  0  0  0  0  0  0  0  0  0
   -0.0121    1.2471   -0.0000 C   0  0  0  0  0  0  0  0  0  0  0  0
    1.3076    2.0220   -0.0000 N   0  0  0  0  0  0  0  0  0  0  0  0
   -1.3560    2.0220   -0.0000 C   0  0  0  0  0  0  0  0  0  0  0  0
    1.2955    3.5717   -0.0000 C   0  0  0  0  0  0  0  0  0  0  0  0
    2.6273    1.2713   -0.0000 C   0  0  0  0  0  0  0  0  0  0  0  0
   -1.3682    3.5717   -0.0000 N   0  0  0  0  0  0  0  0  0  0  0  0
   -2.7000    1.2713   -0.0000 C   0  0  0  0  0  0  0  0  0  0  0  0
   -0.0484    4.3466   -0.0000 C   0  0  0  0  0  0  0  0  0  0  0  0
    3.9471    2.0583   -0.0000 C   0  0  0  0  0  0  0  0  0  0  0  0
   -2.7121    4.3466   -0.0000 C   0  0  0  0  0  0  0  0  0  0  0  0
   -4.0439    2.0583   -0.0000 C   0  0  0  0  0  0  0  0  0  0  0  0
   -0.0605    5.8964   -0.0000 N   0  0  0  0  0  0  0  0  0  0  0  0
    5.2668    1.3076   -0.0000 C   0  0  0  0  0  0  0  0  0  0  0  0
    3.9350    3.6080   -0.0000 C   0  0  0  0  0  0  0  0  0  0  0  0
   -3.7897    3.7412   -0.0000 O   0  0  0  0  0  0  0  0  0  0  0  0
   -2.7242    5.8964   -0.0000 C   0  0  0  0  0  0  0  0  0  0  0  0
   -5.3879    1.3076   -0.0000 C   0  0  0  0  0  0  0  0  0  0  0  0
   -4.0560    3.6080   -0.0000 C   0  0  0  0  0  0  0  0  0  0  0  0
   -1.4045    6.6713   -0.0000 N   0  0  0  0  0  0  0  0  0  0  0  0
    1.2592    6.6834   -0.0000 C   0  0  0  0  0  0  0  0  0  0  0  0
    5.5816   -0.1816   -0.0000 N   0  0  0  0  0  0  0  0  0  0  0  0
    6.5865    2.0946   -0.0000 C   0  0  0  0  0  0  0  0  0  0  0  0
    5.2547    4.3950   -0.0000 C   0  0  0  0  0  0  0  0  0  0  0  0
   -6.7318    2.0946   -0.0000 C   0  0  0  0  0  0  0  0  0  0  0  0
   -5.4000    4.3950   -0.0000 C   0  0  0  0  0  0  0  0  0  0  0  0
   -1.4166    8.2210   -0.0000 C   0  0  0  0  0  0  0  0  0  0  0  0
    2.3125    6.0780   -0.0000 O   0  0  0  0  0  0  0  0  0  0  0  0
    1.2471    8.2331   -0.0000 N   0  0  0  0  0  0  0  0  0  0  0  0
    7.0950   -0.3269   -0.0000 C   0  0  0  0  0  0  0  0  0  0  0  0
    4.7462   -1.0897   -0.0000 C   0  0  0  0  0  0  0  0  0  0  0  0
    7.7246    1.0776   -0.0000 C   0  0  0  0  0  0  0  0  0  0  0  0
    6.5744    3.6444   -0.0000 C   0  0  0  0  0  0  0  0  0  0  0  0
   -6.7439    3.6444   -0.0000 C   0  0  0  0  0  0  0  0  0  0  0  0
   -2.7605    8.9959   -0.0000 C   0  0  0  0  0  0  0  0  0  0  0  0
    2.5668    9.0201   -0.0000 C   0  0  0  0  0  0  0  0  0  0  0  0
    9.2138    1.4166   -0.0000 C   0  0  0  0  0  0  0  0  0  0  0  0
   -7.8215    4.2740   -0.0000 O   0  0  0  0  0  0  0  0  0  0  0  0
   -2.7726   10.2430   -0.0000 C   0  0  0  0  0  0  0  0  0  0  0  0
    2.5547   10.5699   -0.0000 C   0  0  0  0  0  0  0  0  0  0  0  0
    9.5771    2.6031   -0.0000 O   0  0  0  0  0  0  0  0  0  0  0  0
   10.2309    0.2906   -0.0000 N   0  0  0  0  0  0  0  0  0  0  0  0
    3.8744   11.3569   -0.0000 C   0  0  0  0  0  0  0  0  0  0  0  0
    1.2108   11.3448   -0.0000 C   0  0  0  0  0  0  0  0  0  0  0  0
   11.7201    0.6175   -0.0000 C   0  0  0  0  0  0  0  0  0  0  0  0
    9.7466   -1.1623   -0.0000 C   0  0  0  0  0  0  0  0  0  0  0  0
    3.8623   12.9066   -0.0000 C   0  0  0  0  0  0  0  0  0  0  0  0
    1.1986   12.8945   -0.0000 C   0  0  0  0  0  0  0  0  0  0  0  0
   12.7371   -0.5085   -0.0000 C   0  0  0  0  0  0  0  0  0  0  0  0
   10.7636   -2.2883   -0.0000 C   0  0  0  0  0  0  0  0  0  0  0  0
    2.5184   13.6815   -0.0000 C   0  0  0  0  0  0  0  0  0  0  0  0
   12.2528   -1.9614   -0.0000 N   0  0  0  0  0  0  0  0  0  0  0  0
   13.2699   -3.0995   -0.0000 C   0  0  0  0  0  0  0  0  0  0  0  0
   12.7856   -4.5524   -0.0000 C   0  0  0  0  0  0  0  0  0  0  0  0
   13.8026   -5.6905   -0.0000 C   0  0  0  0  0  0  0  0  0  0  0  0
   13.3183   -7.1435   -0.0000 C   0  0  0  0  0  0  0  0  0  0  0  0
   14.1295   -8.0515   -0.0000 O   0  0  0  0  0  0  0  0  0  0  0  0
  1  2  2  0  0  0  0
  2  3  1  0  0  0  0
  2  4  1  0  0  0  0
  3  5  1  0  0  0  0
  3  6  1  0  0  0  0
  4  7  1  0  0  0  0
  4  8  1  6  0  0  0
  5  9  1  0  0  0  0
  6 10  1  0  0  0  0
  7 11  1  0  0  0  0
  8 12  1  0  0  0  0
  9 13  1  1  0  0  0
 10 14  2  0  0  0  0
 10 15  1  0  0  0  0
 11 16  2  0  0  0  0
 11 17  1  0  0  0  0
 12 18  2  0  0  0  0
 12 19  1  0  0  0  0
 13 20  1  0  0  0  0
 13 21  1  0  0  0  0
 14 22  1  0  0  0  0
 14 23  1  0  0  0  0
 15 24  2  0  0  0  0
 18 25  1  0  0  0  0
 19 26  2  0  0  0  0
 20 27  1  0  0  0  0
 21 28  2  0  0  0  0
 21 29  1  0  0  0  0
 22 30  1  0  0  0  0
 22 31  1  0  0  0  0
 23 32  1  0  0  0  0
 23 33  2  0  0  0  0
 25 34  2  0  0  0  0
 27 35  1  0  0  0  0
 29 36  1  0  0  0  0
 32 37  1  0  0  0  0
 34 38  1  0  0  0  0
 35 39  2  0  0  0  0
 36 40  1  0  0  0  0
 37 41  2  0  0  0  0
 37 42  1  0  0  0  0
 40 43  2  0  0  0  0
 40 44  1  0  0  0  0
 42 45  1  0  0  0  0
 42 46  1  0  0  0  0
 43 47  1  0  0  0  0
 44 48  2  0  0  0  0
 45 49  1  0  0  0  0
 46 50  1  0  0  0  0
 47 51  2  0  0  0  0
 49 52  1  0  0  0  0
 52 53  1  0  0  0  0
 53 54  1  0  0  0  0
 54 55  1  0  0  0  0
 55 56  1  0  0  0  0
 56 57  1  0  0  0  0
  7  9  1  0  0  0  0
 17 20  1  0  0  0  0
 24 33  1  0  0  0  0
 26 34  1  0  0  0  0
 30 32  2  0  0  0  0
 48 51  1  0  0  0  0
 50 52  1  0  0  0  0
M  END
>  <MolRegNo>
2036023

>  <m>
=

>  <Value>
9300

>  <Unit>
nM

>  <Type>
IC50

>  <pValue>
5.03

>  <Ligand Efficiency>
0.12

>  <Binding Efficiency>
6.48

>  <Surface Efficiency>
3.47

>  <Assay Index>
974120

>  <Assay Category>


>  <Assay Organism>
Homo sapiens

>  <Target ID>
17045

>  <Target Name>
Cytochrome P450 3A4

>  <Target Organism>
Homo sapiens

>  <Target Description>
Target is a single protein chain

>  <Sequence Accession>
P08684

>  <Reference>


>  <Pubmed ID>


>  <DOI>


$$$$
2036025
Actelion Java MolfileCreator 1.0

 55 61  0  0  1  0  0  0  0  0999 V2000
    0.0000   -0.0000   -0.0000 O   0  0  0  0  0  0  0  0  0  0  0  0
   -0.0122    1.2520   -0.0000 C   0  0  0  0  0  0  0  0  0  0  0  0
    1.3128    2.0300   -0.0000 N   0  0  0  0  0  0  0  0  0  0  0  0
   -1.3614    2.0300   -0.0000 C   0  0  0  0  0  0  0  0  0  0  0  0
    1.3006    3.5859   -0.0000 C   0  0  0  0  0  0  0  0  0  0  0  0
    2.6378    1.2763   -0.0000 C   0  0  0  0  0  0  0  0  0  0  0  0
   -1.3736    3.5859   -0.0000 N   0  0  0  0  0  0  0  0  0  0  0  0
   -2.7107    1.2763   -0.0000 C   0  0  0  0  0  0  0  0  0  0  0  0
   -0.0486    4.3639   -0.0000 C   0  0  0  0  0  0  0  0  0  0  0  0
    3.9627    2.0665   -0.0000 C   0  0  0  0  0  0  0  0  0  0  0  0
   -2.7229    4.3639   -0.0000 C   0  0  0  0  0  0  0  0  0  0  0  0
   -4.0600    2.0665   -0.0000 C   0  0  0  0  0  0  0  0  0  0  0  0
   -0.0608    5.9198   -0.0000 N   0  0  0  0  0  0  0  0  0  0  0  0
    5.2877    1.3128   -0.0000 C   0  0  0  0  0  0  0  0  0  0  0  0
    3.9506    3.6224   -0.0000 C   0  0  0  0  0  0  0  0  0  0  0  0
   -3.8047    3.7561   -0.0000 O   0  0  0  0  0  0  0  0  0  0  0  0
   -2.7350    5.9198   -0.0000 C   0  0  0  0  0  0  0  0  0  0  0  0
   -5.4092    1.3128   -0.0000 C   0  0  0  0  0  0  0  0  0  0  0  0
   -4.0721    3.6224   -0.0000 C   0  0  0  0  0  0  0  0  0  0  0  0
   -1.4101    6.6977   -0.0000 N   0  0  0  0  0  0  0  0  0  0  0  0
    1.2642    6.7099   -0.0000 C   0  0  0  0  0  0  0  0  0  0  0  0
    5.6037   -0.1823   -0.0000 N   0  0  0  0  0  0  0  0  0  0  0  0
    6.6127    2.1029   -0.0000 C   0  0  0  0  0  0  0  0  0  0  0  0
    5.2755    4.4125   -0.0000 C   0  0  0  0  0  0  0  0  0  0  0  0
   -6.7585    2.1029   -0.0000 C   0  0  0  0  0  0  0  0  0  0  0  0
   -5.4214    4.4125   -0.0000 C   0  0  0  0  0  0  0  0  0  0  0  0
   -1.4222    8.2537   -0.0000 C   0  0  0  0  0  0  0  0  0  0  0  0
    2.3217    6.1021   -0.0000 O   0  0  0  0  0  0  0  0  0  0  0  0
    1.2520    8.2658   -0.0000 N   0  0  0  0  0  0  0  0  0  0  0  0
    7.1232   -0.3282   -0.0000 C   0  0  0  0  0  0  0  0  0  0  0  0
    4.7650   -1.0940   -0.0000 C   0  0  0  0  0  0  0  0  0  0  0  0
    7.7553    1.0818   -0.0000 C   0  0  0  0  0  0  0  0  0  0  0  0
    6.6005    3.6588   -0.0000 C   0  0  0  0  0  0  0  0  0  0  0  0
   -6.7707    3.6588   -0.0000 C   0  0  0  0  0  0  0  0  0  0  0  0
   -2.7715    9.0316   -0.0000 C   0  0  0  0  0  0  0  0  0  0  0  0
    2.5770    9.0559   -0.0000 C   0  0  0  0  0  0  0  0  0  0  0  0
    9.2504    1.4222   -0.0000 C   0  0  0  0  0  0  0  0  0  0  0  0
   -7.8525    4.2909   -0.0000 O   0  0  0  0  0  0  0  0  0  0  0  0
   -2.7836   10.2836   -0.0000 C   0  0  0  0  0  0  0  0  0  0  0  0
    2.5648   10.6118   -0.0000 C   0  0  0  0  0  0  0  0  0  0  0  0
    9.6151    2.6135   -0.0000 O   0  0  0  0  0  0  0  0  0  0  0  0
   10.2715    0.2917   -0.0000 N   0  0  0  0  0  0  0  0  0  0  0  0
    3.8898   11.4020   -0.0000 C   0  0  0  0  0  0  0  0  0  0  0  0
    1.2156   11.3898   -0.0000 C   0  0  0  0  0  0  0  0  0  0  0  0
   11.7666    0.6199   -0.0000 C   0  0  0  0  0  0  0  0  0  0  0  0
    9.7853   -1.1669   -0.0000 C   0  0  0  0  0  0  0  0  0  0  0  0
    3.8776   12.9579   -0.0000 C   0  0  0  0  0  0  0  0  0  0  0  0
    1.2034   12.9457   -0.0000 C   0  0  0  0  0  0  0  0  0  0  0  0
   12.7877   -0.5105   -0.0000 C   0  0  0  0  0  0  0  0  0  0  0  0
   10.8063   -2.2974   -0.0000 C   0  0  0  0  0  0  0  0  0  0  0  0
    2.5284   13.7358   -0.0000 C   0  0  0  0  0  0  0  0  0  0  0  0
   12.3015   -1.9692   -0.0000 N   0  0  0  0  0  0  0  0  0  0  0  0
   13.3225   -3.1118   -0.0000 C   0  0  0  0  0  0  0  0  0  0  0  0
   12.9214   -4.2788   -0.0000 O   0  0  0  0  0  0  0  0  0  0  0  0
   14.5138   -2.8444   -0.0000 C   0  0  0  0  0  0  0  0  0  0  0  0
  1  2  2  0  0  0  0
  2  3  1  0  0  0  0
  2  4  1  0  0  0  0
  3  5  1  0  0  0  0
  3  6  1  0  0  0  0
  4  7  1  0  0  0  0
  4  8  1  6  0  0  0
  5  9  1  0  0  0  0
  6 10  1  0  0  0  0
  7 11  1  0  0  0  0
  8 12  1  0  0  0  0
  9 13  1  1  0  0  0
 10 14  2  0  0  0  0
 10 15  1  0  0  0  0
 11 16  2  0  0  0  0
 11 17  1  0  0  0  0
 12 18  2  0  0  0  0
 12 19  1  0  0  0  0
 13 20  1  0  0  0  0
 13 21  1  0  0  0  0
 14 22  1  0  0  0  0
 14 23  1  0  0  0  0
 15 24  2  0  0  0  0
 18 25  1  0  0  0  0
 19 26  2  0  0  0  0
 20 27  1  0  0  0  0
 21 28  2  0  0  0  0
 21 29  1  0  0  0  0
 22 30  1  0  0  0  0
 22 31  1  0  0  0  0
 23 32  1  0  0  0  0
 23 33  2  0  0  0  0
 25 34  2  0  0  0  0
 27 35  1  0  0  0  0
 29 36  1  0  0  0  0
 32 37  1  0  0  0  0
 34 38  1  0  0  0  0
 35 39  2  0  0  0  0
 36 40  1  0  0  0  0
 37 41  2  0  0  0  0
 37 42  1  0  0  0  0
 40 43  2  0  0  0  0
 40 44  1  0  0  0  0
 42 45  1  0  0  0  0
 42 46  1  0  0  0  0
 43 47  1  0  0  0  0
 44 48  2  0  0  0  0
 45 49  1  0  0  0  0
 46 50  1  0  0  0  0
 47 51  2  0  0  0  0
 49 52  1  0  0  0  0
 52 53  1  0  0  0  0
 53 54  2  0  0  0  0
 53 55  1  0  0  0  0
  7  9  1  0  0  0  0
 17 20  1  0  0  0  0
 24 33  1  0  0  0  0
 26 34  1  0  0  0  0
 30 32  2  0  0  0  0
 48 51  1  0  0  0  0
 50 52  1  0  0  0  0
M  END
>  <MolRegNo>
2036025

>  <m>
=

>  <Value>
10900

>  <Unit>
nM

>  <Type>
IC50

>  <pValue>
4.96

>  <Ligand Efficiency>
0.12

>  <Binding Efficiency>
6.64

>  <Surface Efficiency>
3.5

>  <Assay Index>
974120

>  <Assay Category>


>  <Assay Organism>
Homo sapiens

>  <Target ID>
17045

>  <Target Name>
Cytochrome P450 3A4

>  <Target Organism>
Homo sapiens

>  <Target Description>
Target is a single protein chain

>  <Sequence Accession>
P08684

>  <Reference>


>  <Pubmed ID>


>  <DOI>


$$$$
2036026
Actelion Java MolfileCreator 1.0

 56 62  0  0  1  0  0  0  0  0999 V2000
    0.0000   -0.0000   -0.0000 S   0  0  0  0  0  0  0  0  0  0  0  0
    1.1897    0.2671   -0.0000 O   0  0  0  0  0  0  0  0  0  0  0  0
   -0.3885   -1.1654   -0.0000 O   0  0  0  0  0  0  0  0  0  0  0  0
   -1.0440    1.1533   -0.0000 N   0  0  0  0  0  0  0  0  0  0  0  0
    0.8134   -0.8983   -0.0000 C   0  0  0  0  0  0  0  0  0  0  0  0
   -0.5827    2.6343   -0.0000 C   0  0  0  0  0  0  0  0  0  0  0  0
   -2.5615    0.8498   -0.0000 C   0  0  0  0  0  0  0  0  0  0  0  0
   -1.6267    3.7876   -0.0000 C   0  0  0  0  0  0  0  0  0  0  0  0
   -3.6055    2.0031   -0.0000 C   0  0  0  0  0  0  0  0  0  0  0  0
   -3.1442    3.4841   -0.0000 N   0  0  0  0  0  0  0  0  0  0  0  0
   -4.1882    4.6374   -0.0000 C   0  0  0  0  0  0  0  0  0  0  0  0
   -3.8240    5.8271   -0.0000 O   0  0  0  0  0  0  0  0  0  0  0  0
   -5.7057    4.3218   -0.0000 C   0  0  0  0  0  0  0  0  0  0  0  0
   -6.8711    5.3658   -0.0000 C   0  0  0  0  0  0  0  0  0  0  0  0
   -6.3370    2.9257   -0.0000 C   0  0  0  0  0  0  0  0  0  0  0  0
   -8.2187    4.6010   -0.0000 C   0  0  0  0  0  0  0  0  0  0  0  0
   -6.8833    6.9197   -0.0000 C   0  0  0  0  0  0  0  0  0  0  0  0
   -7.8787    3.0957   -0.0000 N   0  0  0  0  0  0  0  0  0  0  0  0
   -9.5662    5.3779   -0.0000 C   0  0  0  0  0  0  0  0  0  0  0  0
   -8.2308    7.6966   -0.0000 C   0  0  0  0  0  0  0  0  0  0  0  0
   -8.7164    2.1852   -0.0000 C   0  0  0  0  0  0  0  0  0  0  0  0
   -9.5783    6.9318   -0.0000 C   0  0  0  0  0  0  0  0  0  0  0  0
  -10.9137    4.6131   -0.0000 C   0  0  0  0  0  0  0  0  0  0  0  0
  -12.2612    5.3901   -0.0000 N   0  0  0  0  0  0  0  0  0  0  0  0
  -13.6087    4.6374   -0.0000 C   0  0  0  0  0  0  0  0  0  0  0  0
  -12.2733    6.9440   -0.0000 C   0  0  0  0  0  0  0  0  0  0  0  0
  -13.6209    3.4113   -0.0000 O   0  0  0  0  0  0  0  0  0  0  0  0
  -14.9562    5.4144   -0.0000 C   0  0  0  0  0  0  0  0  0  0  0  0
  -13.6209    7.7209   -0.0000 C   0  0  0  0  0  0  0  0  0  0  0  0
  -14.9684    6.9683   -0.0000 N   0  0  0  0  0  0  0  0  0  0  0  0
  -16.3038    4.6617   -0.0000 C   0  0  0  0  0  0  0  0  0  0  0  0
  -13.6330    9.2748   -0.0000 N   0  0  0  0  0  0  0  0  0  0  0  0
  -16.3159    7.7452   -0.0000 C   0  0  0  0  0  0  0  0  0  0  0  0
  -17.6513    5.4508   -0.0000 C   0  0  0  0  0  0  0  0  0  0  0  0
  -14.9805   10.0518   -0.0000 N   0  0  0  0  0  0  0  0  0  0  0  0
  -12.3098   10.0639   -0.0000 C   0  0  0  0  0  0  0  0  0  0  0  0
  -17.3963    7.1382   -0.0000 O   0  0  0  0  0  0  0  0  0  0  0  0
  -16.3280    9.2991   -0.0000 C   0  0  0  0  0  0  0  0  0  0  0  0
  -18.9988    4.6981   -0.0000 C   0  0  0  0  0  0  0  0  0  0  0  0
  -17.6634    7.0047   -0.0000 C   0  0  0  0  0  0  0  0  0  0  0  0
  -14.9927   11.6057   -0.0000 C   0  0  0  0  0  0  0  0  0  0  0  0
  -11.2536    9.4569   -0.0000 O   0  0  0  0  0  0  0  0  0  0  0  0
  -12.3219   11.6178   -0.0000 N   0  0  0  0  0  0  0  0  0  0  0  0
  -20.3463    5.4872   -0.0000 C   0  0  0  0  0  0  0  0  0  0  0  0
  -19.0109    7.7938   -0.0000 C   0  0  0  0  0  0  0  0  0  0  0  0
  -16.3402   12.3826   -0.0000 C   0  0  0  0  0  0  0  0  0  0  0  0
  -10.9987   12.4069   -0.0000 C   0  0  0  0  0  0  0  0  0  0  0  0
  -20.3585    7.0411   -0.0000 C   0  0  0  0  0  0  0  0  0  0  0  0
  -16.3523   13.6330   -0.0000 C   0  0  0  0  0  0  0  0  0  0  0  0
  -11.0108   13.9608   -0.0000 C   0  0  0  0  0  0  0  0  0  0  0  0
  -21.4389    7.6724   -0.0000 O   0  0  0  0  0  0  0  0  0  0  0  0
   -9.6876   14.7499   -0.0000 C   0  0  0  0  0  0  0  0  0  0  0  0
  -12.3583   14.7377   -0.0000 C   0  0  0  0  0  0  0  0  0  0  0  0
   -9.6997   16.3038   -0.0000 C   0  0  0  0  0  0  0  0  0  0  0  0
  -12.3705   16.2916   -0.0000 C   0  0  0  0  0  0  0  0  0  0  0  0
  -11.0472   17.0807   -0.0000 C   0  0  0  0  0  0  0  0  0  0  0  0
  1  2  2  0  0  0  0
  1  3  2  0  0  0  0
  1  4  1  0  0  0  0
  1  5  1  0  0  0  0
  4  6  1  0  0  0  0
  4  7  1  0  0  0  0
  6  8  1  0  0  0  0
  7  9  1  0  0  0  0
  8 10  1  0  0  0  0
 10 11  1  0  0  0  0
 11 12  2  0  0  0  0
 11 13  1  0  0  0  0
 13 14  1  0  0  0  0
 13 15  2  0  0  0  0
 14 16  2  0  0  0  0
 14 17  1  0  0  0  0
 15 18  1  0  0  0  0
 16 19  1  0  0  0  0
 17 20  2  0  0  0  0
 18 21  1  0  0  0  0
 19 22  2  0  0  0  0
 19 23  1  0  0  0  0
 23 24  1  0  0  0  0
 24 25  1  0  0  0  0
 24 26  1  0  0  0  0
 25 27  2  0  0  0  0
 25 28  1  0  0  0  0
 26 29  1  0  0  0  0
 28 30  1  0  0  0  0
 28 31  1  6  0  0  0
 29 32  1  1  0  0  0
 30 33  1  0  0  0  0
 31 34  1  0  0  0  0
 32 35  1  0  0  0  0
 32 36  1  0  0  0  0
 33 37  2  0  0  0  0
 33 38  1  0  0  0  0
 34 39  2  0  0  0  0
 34 40  1  0  0  0  0
 35 41  1  0  0  0  0
 36 42  2  0  0  0  0
 36 43  1  0  0  0  0
 39 44  1  0  0  0  0
 40 45  2  0  0  0  0
 41 46  1  0  0  0  0
 43 47  1  0  0  0  0
 44 48  2  0  0  0  0
 46 49  2  0  0  0  0
 47 50  1  0  0  0  0
 48 51  1  0  0  0  0
 50 52  2  0  0  0  0
 50 53  1  0  0  0  0
 52 54  1  0  0  0  0
 53 55  2  0  0  0  0
 54 56  2  0  0  0  0
  9 10  1  0  0  0  0
 16 18  1  0  0  0  0
 20 22  1  0  0  0  0
 29 30  1  0  0  0  0
 35 38  1  0  0  0  0
 45 48  1  0  0  0  0
 55 56  1  0  0  0  0
M  END
>  <MolRegNo>
2036026

>  <m>
=

>  <Value>
11200

>  <Unit>
nM

>  <Type>
IC50

>  <pValue>
4.95

>  <Ligand Efficiency>
0.12

>  <Binding Efficiency>
6.32

>  <Surface Efficiency>
3.11

>  <Assay Index>
974120

>  <Assay Category>


>  <Assay Organism>
Homo sapiens

>  <Target ID>
17045

>  <Target Name>
Cytochrome P450 3A4

>  <Target Organism>
Homo sapiens

>  <Target Description>
Target is a single protein chain

>  <Sequence Accession>
P08684

>  <Reference>


>  <Pubmed ID>


>  <DOI>


$$$$
2036027
Actelion Java MolfileCreator 1.0

 57 63  0  0  1  0  0  0  0  0999 V2000
    0.0000   -0.0000   -0.0000 S   0  0  0  0  0  0  0  0  0  0  0  0
    1.1895    0.2670   -0.0000 O   0  0  0  0  0  0  0  0  0  0  0  0
    0.8132   -0.8982   -0.0000 O   0  0  0  0  0  0  0  0  0  0  0  0
   -1.0438    1.1531   -0.0000 N   0  0  0  0  0  0  0  0  0  0  0  0
   -0.4855   -1.4565   -0.0000 C   0  0  0  0  0  0  0  0  0  0  0  0
   -0.5826    2.6338   -0.0000 C   0  0  0  0  0  0  0  0  0  0  0  0
   -2.5610    0.8496   -0.0000 C   0  0  0  0  0  0  0  0  0  0  0  0
    0.3277   -2.3547   -0.0000 C   0  0  0  0  0  0  0  0  0  0  0  0
   -1.6264    3.7869   -0.0000 C   0  0  0  0  0  0  0  0  0  0  0  0
   -3.6048    2.0027   -0.0000 C   0  0  0  0  0  0  0  0  0  0  0  0
   -3.1436    3.4834   -0.0000 N   0  0  0  0  0  0  0  0  0  0  0  0
   -4.1874    4.6365   -0.0000 C   0  0  0  0  0  0  0  0  0  0  0  0
   -3.8233    5.8259   -0.0000 O   0  0  0  0  0  0  0  0  0  0  0  0
   -5.7046    4.3209   -0.0000 C   0  0  0  0  0  0  0  0  0  0  0  0
   -6.8698    5.3647   -0.0000 C   0  0  0  0  0  0  0  0  0  0  0  0
   -6.3357    2.9251   -0.0000 C   0  0  0  0  0  0  0  0  0  0  0  0
   -8.2170    4.6001   -0.0000 C   0  0  0  0  0  0  0  0  0  0  0  0
   -6.8819    6.9183   -0.0000 C   0  0  0  0  0  0  0  0  0  0  0  0
   -7.8772    3.0950   -0.0000 N   0  0  0  0  0  0  0  0  0  0  0  0
   -9.5643    5.3769   -0.0000 C   0  0  0  0  0  0  0  0  0  0  0  0
   -8.2291    7.6951   -0.0000 C   0  0  0  0  0  0  0  0  0  0  0  0
   -8.7146    2.1847   -0.0000 C   0  0  0  0  0  0  0  0  0  0  0  0
   -9.5764    6.9304   -0.0000 C   0  0  0  0  0  0  0  0  0  0  0  0
  -10.9115    4.6122   -0.0000 C   0  0  0  0  0  0  0  0  0  0  0  0
  -12.2587    5.3890   -0.0000 N   0  0  0  0  0  0  0  0  0  0  0  0
  -13.6060    4.6365   -0.0000 C   0  0  0  0  0  0  0  0  0  0  0  0
  -12.2709    6.9426   -0.0000 C   0  0  0  0  0  0  0  0  0  0  0  0
  -13.6181    3.4106   -0.0000 O   0  0  0  0  0  0  0  0  0  0  0  0
  -14.9532    5.4133   -0.0000 C   0  0  0  0  0  0  0  0  0  0  0  0
  -13.6181    7.7194   -0.0000 C   0  0  0  0  0  0  0  0  0  0  0  0
  -14.9654    6.9669   -0.0000 N   0  0  0  0  0  0  0  0  0  0  0  0
  -16.3005    4.6608   -0.0000 C   0  0  0  0  0  0  0  0  0  0  0  0
  -13.6303    9.2730   -0.0000 N   0  0  0  0  0  0  0  0  0  0  0  0
  -16.3126    7.7436   -0.0000 C   0  0  0  0  0  0  0  0  0  0  0  0
  -17.6477    5.4497   -0.0000 C   0  0  0  0  0  0  0  0  0  0  0  0
  -14.9775   10.0497   -0.0000 N   0  0  0  0  0  0  0  0  0  0  0  0
  -12.3073   10.0619   -0.0000 C   0  0  0  0  0  0  0  0  0  0  0  0
  -17.3929    7.1368   -0.0000 O   0  0  0  0  0  0  0  0  0  0  0  0
  -16.3248    9.2972   -0.0000 C   0  0  0  0  0  0  0  0  0  0  0  0
  -18.9950    4.6972   -0.0000 C   0  0  0  0  0  0  0  0  0  0  0  0
  -17.6599    7.0033   -0.0000 C   0  0  0  0  0  0  0  0  0  0  0  0
  -14.9897   11.6033   -0.0000 C   0  0  0  0  0  0  0  0  0  0  0  0
  -11.2513    9.4550   -0.0000 O   0  0  0  0  0  0  0  0  0  0  0  0
  -12.3194   11.6155   -0.0000 N   0  0  0  0  0  0  0  0  0  0  0  0
  -20.3422    5.4861   -0.0000 C   0  0  0  0  0  0  0  0  0  0  0  0
  -19.0071    7.7922   -0.0000 C   0  0  0  0  0  0  0  0  0  0  0  0
  -16.3369   12.3801   -0.0000 C   0  0  0  0  0  0  0  0  0  0  0  0
  -10.9965   12.4044   -0.0000 C   0  0  0  0  0  0  0  0  0  0  0  0
  -20.3544    7.0397   -0.0000 C   0  0  0  0  0  0  0  0  0  0  0  0
  -16.3490   13.6303   -0.0000 C   0  0  0  0  0  0  0  0  0  0  0  0
  -11.0086   13.9580   -0.0000 C   0  0  0  0  0  0  0  0  0  0  0  0
  -21.4346    7.6708   -0.0000 O   0  0  0  0  0  0  0  0  0  0  0  0
   -9.6856   14.7469   -0.0000 C   0  0  0  0  0  0  0  0  0  0  0  0
  -12.3558   14.7348   -0.0000 C   0  0  0  0  0  0  0  0  0  0  0  0
   -9.6978   16.3005   -0.0000 C   0  0  0  0  0  0  0  0  0  0  0  0
  -12.3680   16.2884   -0.0000 C   0  0  0  0  0  0  0  0  0  0  0  0
  -11.0450   17.0773   -0.0000 C   0  0  0  0  0  0  0  0  0  0  0  0
  1  2  2  0  0  0  0
  1  3  2  0  0  0  0
  1  4  1  0  0  0  0
  1  5  1  0  0  0  0
  4  6  1  0  0  0  0
  4  7  1  0  0  0  0
  5  8  1  0  0  0  0
  6  9  1  0  0  0  0
  7 10  1  0  0  0  0
  9 11  1  0  0  0  0
 11 12  1  0  0  0  0
 12 13  2  0  0  0  0
 12 14  1  0  0  0  0
 14 15  1  0  0  0  0
 14 16  2  0  0  0  0
 15 17  2  0  0  0  0
 15 18  1  0  0  0  0
 16 19  1  0  0  0  0
 17 20  1  0  0  0  0
 18 21  2  0  0  0  0
 19 22  1  0  0  0  0
 20 23  2  0  0  0  0
 20 24  1  0  0  0  0
 24 25  1  0  0  0  0
 25 26  1  0  0  0  0
 25 27  1  0  0  0  0
 26 28  2  0  0  0  0
 26 29  1  0  0  0  0
 27 30  1  0  0  0  0
 29 31  1  0  0  0  0
 29 32  1  6  0  0  0
 30 33  1  1  0  0  0
 31 34  1  0  0  0  0
 32 35  1  0  0  0  0
 33 36  1  0  0  0  0
 33 37  1  0  0  0  0
 34 38  2  0  0  0  0
 34 39  1  0  0  0  0
 35 40  2  0  0  0  0
 35 41  1  0  0  0  0
 36 42  1  0  0  0  0
 37 43  2  0  0  0  0
 37 44  1  0  0  0  0
 40 45  1  0  0  0  0
 41 46  2  0  0  0  0
 42 47  1  0  0  0  0
 44 48  1  0  0  0  0
 45 49  2  0  0  0  0
 47 50  2  0  0  0  0
 48 51  1  0  0  0  0
 49 52  1  0  0  0  0
 51 53  2  0  0  0  0
 51 54  1  0  0  0  0
 53 55  1  0  0  0  0
 54 56  2  0  0  0  0
 55 57  2  0  0  0  0
 10 11  1  0  0  0  0
 17 19  1  0  0  0  0
 21 23  1  0  0  0  0
 30 31  1  0  0  0  0
 36 39  1  0  0  0  0
 46 49  1  0  0  0  0
 56 57  1  0  0  0  0
M  END
>  <MolRegNo>
2036027

>  <m>
=

>  <Value>
2820

>  <Unit>
nM

>  <Type>
IC50

>  <pValue>
5.55

>  <Ligand Efficiency>
0.13

>  <Binding Efficiency>
6.96

>  <Surface Efficiency>
3.49

>  <Assay Index>
974120

>  <Assay Category>


>  <Assay Organism>
Homo sapiens

>  <Target ID>
17045

>  <Target Name>
Cytochrome P450 3A4

>  <Target Organism>
Homo sapiens

>  <Target Description>
Target is a single protein chain

>  <Sequence Accession>
P08684

>  <Reference>


>  <Pubmed ID>


>  <DOI>


$$$$
2036030
Actelion Java MolfileCreator 1.0

 59 66  0  0  1  0  0  0  0  0999 V2000
    0.0000   -0.0000   -0.0000 O   0  0  0  0  0  0  0  0  0  0  0  0
   -0.0121    1.2416   -0.0000 C   0  0  0  0  0  0  0  0  0  0  0  0
    1.3019    2.0131   -0.0000 N   0  0  0  0  0  0  0  0  0  0  0  0
   -1.3501    2.0131   -0.0000 C   0  0  0  0  0  0  0  0  0  0  0  0
    1.2898    3.5561   -0.0000 C   0  0  0  0  0  0  0  0  0  0  0  0
    2.6158    1.2657   -0.0000 C   0  0  0  0  0  0  0  0  0  0  0  0
   -1.3622    3.5561   -0.0000 N   0  0  0  0  0  0  0  0  0  0  0  0
   -2.6882    1.2657   -0.0000 C   0  0  0  0  0  0  0  0  0  0  0  0
   -0.0482    4.3276   -0.0000 C   0  0  0  0  0  0  0  0  0  0  0  0
    3.9298    2.0493   -0.0000 C   0  0  0  0  0  0  0  0  0  0  0  0
   -2.7002    4.3276   -0.0000 C   0  0  0  0  0  0  0  0  0  0  0  0
   -4.0262    2.0493   -0.0000 C   0  0  0  0  0  0  0  0  0  0  0  0
   -0.0603    5.8706   -0.0000 N   0  0  0  0  0  0  0  0  0  0  0  0
    5.2438    1.3019   -0.0000 C   0  0  0  0  0  0  0  0  0  0  0  0
    3.9177    3.5923   -0.0000 C   0  0  0  0  0  0  0  0  0  0  0  0
   -3.7731    3.7249   -0.0000 O   0  0  0  0  0  0  0  0  0  0  0  0
   -2.7123    5.8706   -0.0000 C   0  0  0  0  0  0  0  0  0  0  0  0
   -5.3643    1.3019   -0.0000 C   0  0  0  0  0  0  0  0  0  0  0  0
   -4.0383    3.5923   -0.0000 C   0  0  0  0  0  0  0  0  0  0  0  0
   -1.3983    6.6421   -0.0000 N   0  0  0  0  0  0  0  0  0  0  0  0
    1.2537    6.6541   -0.0000 C   0  0  0  0  0  0  0  0  0  0  0  0
    5.5572   -0.1808   -0.0000 N   0  0  0  0  0  0  0  0  0  0  0  0
    6.5577    2.0854   -0.0000 C   0  0  0  0  0  0  0  0  0  0  0  0
    5.2317    4.3758   -0.0000 C   0  0  0  0  0  0  0  0  0  0  0  0
   -6.7024    2.0854   -0.0000 C   0  0  0  0  0  0  0  0  0  0  0  0
   -5.3764    4.3758   -0.0000 C   0  0  0  0  0  0  0  0  0  0  0  0
   -1.4104    8.1851   -0.0000 C   0  0  0  0  0  0  0  0  0  0  0  0
    2.3024    6.0514   -0.0000 O   0  0  0  0  0  0  0  0  0  0  0  0
    1.2416    8.1971   -0.0000 N   0  0  0  0  0  0  0  0  0  0  0  0
    7.0640   -0.3255   -0.0000 C   0  0  0  0  0  0  0  0  0  0  0  0
    4.7254   -1.0849   -0.0000 C   0  0  0  0  0  0  0  0  0  0  0  0
    7.6908    1.0729   -0.0000 C   0  0  0  0  0  0  0  0  0  0  0  0
    6.5457    3.6284   -0.0000 C   0  0  0  0  0  0  0  0  0  0  0  0
   -6.7144    3.6284   -0.0000 C   0  0  0  0  0  0  0  0  0  0  0  0
   -2.7485    8.9566   -0.0000 C   0  0  0  0  0  0  0  0  0  0  0  0
    2.5556    8.9807   -0.0000 C   0  0  0  0  0  0  0  0  0  0  0  0
    9.1736    1.4104   -0.0000 C   0  0  0  0  0  0  0  0  0  0  0  0
   -7.7873    4.2553   -0.0000 O   0  0  0  0  0  0  0  0  0  0  0  0
   -2.7605   10.1982   -0.0000 C   0  0  0  0  0  0  0  0  0  0  0  0
    2.5435   10.5237   -0.0000 C   0  0  0  0  0  0  0  0  0  0  0  0
    9.5352    2.5917   -0.0000 O   0  0  0  0  0  0  0  0  0  0  0  0
   10.1861    0.2893   -0.0000 N   0  0  0  0  0  0  0  0  0  0  0  0
    3.8575   11.3072   -0.0000 C   0  0  0  0  0  0  0  0  0  0  0  0
    1.2055   11.2952   -0.0000 C   0  0  0  0  0  0  0  0  0  0  0  0
   11.6689    0.6148   -0.0000 C   0  0  0  0  0  0  0  0  0  0  0  0
    9.7040   -1.1572   -0.0000 C   0  0  0  0  0  0  0  0  0  0  0  0
    3.8454   12.8502   -0.0000 C   0  0  0  0  0  0  0  0  0  0  0  0
    1.1934   12.8382   -0.0000 C   0  0  0  0  0  0  0  0  0  0  0  0
   12.6814   -0.5063   -0.0000 C   0  0  0  0  0  0  0  0  0  0  0  0
   10.7165   -2.2783   -0.0000 C   0  0  0  0  0  0  0  0  0  0  0  0
    2.5074   13.6217   -0.0000 C   0  0  0  0  0  0  0  0  0  0  0  0
   12.1993   -1.9528   -0.0000 N   0  0  0  0  0  0  0  0  0  0  0  0
   13.2118   -3.0860   -0.0000 C   0  0  0  0  0  0  0  0  0  0  0  0
   12.7297   -4.5325   -0.0000 C   0  0  0  0  0  0  0  0  0  0  0  0
   13.7423   -5.6657   -0.0000 C   0  0  0  0  0  0  0  0  0  0  0  0
   11.2228   -4.8339   -0.0000 C   0  0  0  0  0  0  0  0  0  0  0  0
   13.2480   -7.1122   -0.0000 C   0  0  0  0  0  0  0  0  0  0  0  0
   10.7286   -6.2804   -0.0000 C   0  0  0  0  0  0  0  0  0  0  0  0
   11.7412   -7.4136   -0.0000 N   0  0  0  0  0  0  0  0  0  0  0  0
  1  2  2  0  0  0  0
  2  3  1  0  0  0  0
  2  4  1  0  0  0  0
  3  5  1  0  0  0  0
  3  6  1  0  0  0  0
  4  7  1  0  0  0  0
  4  8  1  6  0  0  0
  5  9  1  0  0  0  0
  6 10  1  0  0  0  0
  7 11  1  0  0  0  0
  8 12  1  0  0  0  0
  9 13  1  1  0  0  0
 10 14  2  0  0  0  0
 10 15  1  0  0  0  0
 11 16  2  0  0  0  0
 11 17  1  0  0  0  0
 12 18  2  0  0  0  0
 12 19  1  0  0  0  0
 13 20  1  0  0  0  0
 13 21  1  0  0  0  0
 14 22  1  0  0  0  0
 14 23  1  0  0  0  0
 15 24  2  0  0  0  0
 18 25  1  0  0  0  0
 19 26  2  0  0  0  0
 20 27  1  0  0  0  0
 21 28  2  0  0  0  0
 21 29  1  0  0  0  0
 22 30  1  0  0  0  0
 22 31  1  0  0  0  0
 23 32  1  0  0  0  0
 23 33  2  0  0  0  0
 25 34  2  0  0  0  0
 27 35  1  0  0  0  0
 29 36  1  0  0  0  0
 32 37  1  0  0  0  0
 34 38  1  0  0  0  0
 35 39  2  0  0  0  0
 36 40  1  0  0  0  0
 37 41  2  0  0  0  0
 37 42  1  0  0  0  0
 40 43  2  0  0  0  0
 40 44  1  0  0  0  0
 42 45  1  0  0  0  0
 42 46  1  0  0  0  0
 43 47  1  0  0  0  0
 44 48  2  0  0  0  0
 45 49  1  0  0  0  0
 46 50  1  0  0  0  0
 47 51  2  0  0  0  0
 49 52  1  0  0  0  0
 52 53  1  0  0  0  0
 53 54  1  0  0  0  0
 54 55  1  0  0  0  0
 54 56  1  0  0  0  0
 55 57  1  0  0  0  0
 56 58  1  0  0  0  0
 57 59  1  0  0  0  0
  7  9  1  0  0  0  0
 17 20  1  0  0  0  0
 24 33  1  0  0  0  0
 26 34  1  0  0  0  0
 30 32  2  0  0  0  0
 48 51  1  0  0  0  0
 50 52  1  0  0  0  0
 58 59  1  0  0  0  0
M  END
>  <MolRegNo>
2036030

>  <m>
=

>  <Value>
8170

>  <Unit>
nM

>  <Type>
IC50

>  <pValue>
5.09

>  <Ligand Efficiency>
0.12

>  <Binding Efficiency>
6.34

>  <Surface Efficiency>
3.72

>  <Assay Index>
974120

>  <Assay Category>


>  <Assay Organism>
Homo sapiens

>  <Target ID>
17045

>  <Target Name>
Cytochrome P450 3A4

>  <Target Organism>
Homo sapiens

>  <Target Description>
Target is a single protein chain

>  <Sequence Accession>
P08684

>  <Reference>


>  <Pubmed ID>


>  <DOI>


$$$$
2036031
Actelion Java MolfileCreator 1.0

 60 67  0  0  1  0  0  0  0  0999 V2000
    0.0000   -0.0000   -0.0000 O   0  0  0  0  0  0  0  0  0  0  0  0
   -0.0121    1.2422   -0.0000 C   0  0  0  0  0  0  0  0  0  0  0  0
    1.3025    2.0140   -0.0000 N   0  0  0  0  0  0  0  0  0  0  0  0
   -1.3507    2.0140   -0.0000 C   0  0  0  0  0  0  0  0  0  0  0  0
    1.2904    3.5576   -0.0000 C   0  0  0  0  0  0  0  0  0  0  0  0
    2.6170    1.2663   -0.0000 C   0  0  0  0  0  0  0  0  0  0  0  0
   -1.3628    3.5576   -0.0000 N   0  0  0  0  0  0  0  0  0  0  0  0
   -2.6893    1.2663   -0.0000 C   0  0  0  0  0  0  0  0  0  0  0  0
   -0.0482    4.3295   -0.0000 C   0  0  0  0  0  0  0  0  0  0  0  0
    3.9315    2.0502   -0.0000 C   0  0  0  0  0  0  0  0  0  0  0  0
   -2.7014    4.3295   -0.0000 C   0  0  0  0  0  0  0  0  0  0  0  0
   -4.0280    2.0502   -0.0000 C   0  0  0  0  0  0  0  0  0  0  0  0
   -0.0603    5.8731   -0.0000 N   0  0  0  0  0  0  0  0  0  0  0  0
    5.2460    1.3025   -0.0000 C   0  0  0  0  0  0  0  0  0  0  0  0
    3.9194    3.5938   -0.0000 C   0  0  0  0  0  0  0  0  0  0  0  0
   -3.7747    3.7265   -0.0000 O   0  0  0  0  0  0  0  0  0  0  0  0
   -2.7135    5.8731   -0.0000 C   0  0  0  0  0  0  0  0  0  0  0  0
   -5.3666    1.3025   -0.0000 C   0  0  0  0  0  0  0  0  0  0  0  0
   -4.0400    3.5938   -0.0000 C   0  0  0  0  0  0  0  0  0  0  0  0
   -1.3989    6.6450   -0.0000 N   0  0  0  0  0  0  0  0  0  0  0  0
    1.2542    6.6570   -0.0000 C   0  0  0  0  0  0  0  0  0  0  0  0
    5.5596   -0.1809   -0.0000 N   0  0  0  0  0  0  0  0  0  0  0  0
    6.5605    2.0863   -0.0000 C   0  0  0  0  0  0  0  0  0  0  0  0
    5.2340    4.3777   -0.0000 C   0  0  0  0  0  0  0  0  0  0  0  0
   -6.7052    2.0863   -0.0000 C   0  0  0  0  0  0  0  0  0  0  0  0
   -5.3787    4.3777   -0.0000 C   0  0  0  0  0  0  0  0  0  0  0  0
   -1.4110    8.1886   -0.0000 C   0  0  0  0  0  0  0  0  0  0  0  0
    2.3034    6.0540   -0.0000 O   0  0  0  0  0  0  0  0  0  0  0  0
    1.2422    8.2007   -0.0000 N   0  0  0  0  0  0  0  0  0  0  0  0
    7.0670   -0.3256   -0.0000 C   0  0  0  0  0  0  0  0  0  0  0  0
    4.7274   -1.0854   -0.0000 C   0  0  0  0  0  0  0  0  0  0  0  0
    7.6942    1.0733   -0.0000 C   0  0  0  0  0  0  0  0  0  0  0  0
    6.5485    3.6300   -0.0000 C   0  0  0  0  0  0  0  0  0  0  0  0
   -6.7173    3.6300   -0.0000 C   0  0  0  0  0  0  0  0  0  0  0  0
   -2.7496    8.9604   -0.0000 C   0  0  0  0  0  0  0  0  0  0  0  0
    2.5567    8.9846   -0.0000 C   0  0  0  0  0  0  0  0  0  0  0  0
    9.1775    1.4110   -0.0000 C   0  0  0  0  0  0  0  0  0  0  0  0
   -7.7906    4.2571   -0.0000 O   0  0  0  0  0  0  0  0  0  0  0  0
   -2.7617   10.2026   -0.0000 C   0  0  0  0  0  0  0  0  0  0  0  0
    2.5446   10.5282   -0.0000 C   0  0  0  0  0  0  0  0  0  0  0  0
    9.5393    2.5929   -0.0000 O   0  0  0  0  0  0  0  0  0  0  0  0
   10.1905    0.2894   -0.0000 N   0  0  0  0  0  0  0  0  0  0  0  0
    3.8591   11.3121   -0.0000 C   0  0  0  0  0  0  0  0  0  0  0  0
    1.2060   11.3000   -0.0000 C   0  0  0  0  0  0  0  0  0  0  0  0
   11.6739    0.6150   -0.0000 C   0  0  0  0  0  0  0  0  0  0  0  0
    9.7081   -1.1577   -0.0000 C   0  0  0  0  0  0  0  0  0  0  0  0
    3.8471   12.8557   -0.0000 C   0  0  0  0  0  0  0  0  0  0  0  0
    1.1939   12.8437   -0.0000 C   0  0  0  0  0  0  0  0  0  0  0  0
   12.6869   -0.5065   -0.0000 C   0  0  0  0  0  0  0  0  0  0  0  0
   10.7212   -2.2793   -0.0000 C   0  0  0  0  0  0  0  0  0  0  0  0
    2.5084   13.6276   -0.0000 C   0  0  0  0  0  0  0  0  0  0  0  0
   12.2045   -1.9537   -0.0000 N   0  0  0  0  0  0  0  0  0  0  0  0
   13.2175   -3.0873   -0.0000 C   0  0  0  0  0  0  0  0  0  0  0  0
   12.7351   -4.5345   -0.0000 C   0  0  0  0  0  0  0  0  0  0  0  0
   13.7482   -5.6681   -0.0000 N   0  0  0  0  0  0  0  0  0  0  0  0
   13.2658   -7.1153   -0.0000 C   0  0  0  0  0  0  0  0  0  0  0  0
   15.2315   -5.3425   -0.0000 C   0  0  0  0  0  0  0  0  0  0  0  0
   14.2788   -8.2368   -0.0000 C   0  0  0  0  0  0  0  0  0  0  0  0
   16.2446   -6.4641   -0.0000 C   0  0  0  0  0  0  0  0  0  0  0  0
   15.7622   -7.9112   -0.0000 C   0  0  0  0  0  0  0  0  0  0  0  0
  1  2  2  0  0  0  0
  2  3  1  0  0  0  0
  2  4  1  0  0  0  0
  3  5  1  0  0  0  0
  3  6  1  0  0  0  0
  4  7  1  0  0  0  0
  4  8  1  6  0  0  0
  5  9  1  0  0  0  0
  6 10  1  0  0  0  0
  7 11  1  0  0  0  0
  8 12  1  0  0  0  0
  9 13  1  1  0  0  0
 10 14  2  0  0  0  0
 10 15  1  0  0  0  0
 11 16  2  0  0  0  0
 11 17  1  0  0  0  0
 12 18  2  0  0  0  0
 12 19  1  0  0  0  0
 13 20  1  0  0  0  0
 13 21  1  0  0  0  0
 14 22  1  0  0  0  0
 14 23  1  0  0  0  0
 15 24  2  0  0  0  0
 18 25  1  0  0  0  0
 19 26  2  0  0  0  0
 20 27  1  0  0  0  0
 21 28  2  0  0  0  0
 21 29  1  0  0  0  0
 22 30  1  0  0  0  0
 22 31  1  0  0  0  0
 23 32  1  0  0  0  0
 23 33  2  0  0  0  0
 25 34  2  0  0  0  0
 27 35  1  0  0  0  0
 29 36  1  0  0  0  0
 32 37  1  0  0  0  0
 34 38  1  0  0  0  0
 35 39  2  0  0  0  0
 36 40  1  0  0  0  0
 37 41  2  0  0  0  0
 37 42  1  0  0  0  0
 40 43  2  0  0  0  0
 40 44  1  0  0  0  0
 42 45  1  0  0  0  0
 42 46  1  0  0  0  0
 43 47  1  0  0  0  0
 44 48  2  0  0  0  0
 45 49  1  0  0  0  0
 46 50  1  0  0  0  0
 47 51  2  0  0  0  0
 49 52  1  0  0  0  0
 52 53  1  0  0  0  0
 53 54  1  0  0  0  0
 54 55  1  0  0  0  0
 55 56  1  0  0  0  0
 55 57  1  0  0  0  0
 56 58  1  0  0  0  0
 57 59  1  0  0  0  0
 58 60  1  0  0  0  0
  7  9  1  0  0  0  0
 17 20  1  0  0  0  0
 24 33  1  0  0  0  0
 26 34  1  0  0  0  0
 30 32  2  0  0  0  0
 48 51  1  0  0  0  0
 50 52  1  0  0  0  0
 59 60  1  0  0  0  0
M  END
>  <MolRegNo>
2036031

>  <m>
=

>  <Value>
5530

>  <Unit>
nM

>  <Type>
IC50

>  <pValue>
5.26

>  <Ligand Efficiency>
0.12

>  <Binding Efficiency>
6.44

>  <Surface Efficiency>
4.1

>  <Assay Index>
974120

>  <Assay Category>


>  <Assay Organism>
Homo sapiens

>  <Target ID>
17045

>  <Target Name>
Cytochrome P450 3A4

>  <Target Organism>
Homo sapiens

>  <Target Description>
Target is a single protein chain

>  <Sequence Accession>
P08684

>  <Reference>


>  <Pubmed ID>


>  <DOI>


$$$$
2036032
Actelion Java MolfileCreator 1.0

 60 67  0  0  1  0  0  0  0  0999 V2000
    0.0000   -0.0000   -0.0000 O   0  0  0  0  0  0  0  0  0  0  0  0
   -0.0121    1.2422   -0.0000 C   0  0  0  0  0  0  0  0  0  0  0  0
    1.3025    2.0140   -0.0000 N   0  0  0  0  0  0  0  0  0  0  0  0
   -1.3507    2.0140   -0.0000 C   0  0  0  0  0  0  0  0  0  0  0  0
    1.2904    3.5576   -0.0000 C   0  0  0  0  0  0  0  0  0  0  0  0
    2.6170    1.2663   -0.0000 C   0  0  0  0  0  0  0  0  0  0  0  0
   -1.3628    3.5576   -0.0000 N   0  0  0  0  0  0  0  0  0  0  0  0
   -2.6893    1.2663   -0.0000 C   0  0  0  0  0  0  0  0  0  0  0  0
   -0.0482    4.3295   -0.0000 C   0  0  0  0  0  0  0  0  0  0  0  0
    3.9315    2.0502   -0.0000 C   0  0  0  0  0  0  0  0  0  0  0  0
   -2.7014    4.3295   -0.0000 C   0  0  0  0  0  0  0  0  0  0  0  0
   -4.0280    2.0502   -0.0000 C   0  0  0  0  0  0  0  0  0  0  0  0
   -0.0603    5.8731   -0.0000 N   0  0  0  0  0  0  0  0  0  0  0  0
    5.2460    1.3025   -0.0000 C   0  0  0  0  0  0  0  0  0  0  0  0
    3.9194    3.5938   -0.0000 C   0  0  0  0  0  0  0  0  0  0  0  0
   -3.7747    3.7265   -0.0000 O   0  0  0  0  0  0  0  0  0  0  0  0
   -2.7135    5.8731   -0.0000 C   0  0  0  0  0  0  0  0  0  0  0  0
   -5.3666    1.3025   -0.0000 C   0  0  0  0  0  0  0  0  0  0  0  0
   -4.0400    3.5938   -0.0000 C   0  0  0  0  0  0  0  0  0  0  0  0
   -1.3989    6.6450   -0.0000 N   0  0  0  0  0  0  0  0  0  0  0  0
    1.2542    6.6570   -0.0000 C   0  0  0  0  0  0  0  0  0  0  0  0
    5.5596   -0.1809   -0.0000 N   0  0  0  0  0  0  0  0  0  0  0  0
    6.5605    2.0863   -0.0000 C   0  0  0  0  0  0  0  0  0  0  0  0
    5.2340    4.3777   -0.0000 C   0  0  0  0  0  0  0  0  0  0  0  0
   -6.7052    2.0863   -0.0000 C   0  0  0  0  0  0  0  0  0  0  0  0
   -5.3787    4.3777   -0.0000 C   0  0  0  0  0  0  0  0  0  0  0  0
   -1.4110    8.1886   -0.0000 C   0  0  0  0  0  0  0  0  0  0  0  0
    2.3034    6.0540   -0.0000 O   0  0  0  0  0  0  0  0  0  0  0  0
    1.2422    8.2007   -0.0000 N   0  0  0  0  0  0  0  0  0  0  0  0
    7.0670   -0.3256   -0.0000 C   0  0  0  0  0  0  0  0  0  0  0  0
    4.7274   -1.0854   -0.0000 C   0  0  0  0  0  0  0  0  0  0  0  0
    7.6942    1.0733   -0.0000 C   0  0  0  0  0  0  0  0  0  0  0  0
    6.5485    3.6300   -0.0000 C   0  0  0  0  0  0  0  0  0  0  0  0
   -6.7173    3.6300   -0.0000 C   0  0  0  0  0  0  0  0  0  0  0  0
   -2.7496    8.9604   -0.0000 C   0  0  0  0  0  0  0  0  0  0  0  0
    2.5567    8.9846   -0.0000 C   0  0  0  0  0  0  0  0  0  0  0  0
    9.1775    1.4110   -0.0000 C   0  0  0  0  0  0  0  0  0  0  0  0
   -7.7906    4.2571   -0.0000 O   0  0  0  0  0  0  0  0  0  0  0  0
   -2.7617   10.2026   -0.0000 C   0  0  0  0  0  0  0  0  0  0  0  0
    2.5446   10.5282   -0.0000 C   0  0  0  0  0  0  0  0  0  0  0  0
    9.5393    2.5929   -0.0000 O   0  0  0  0  0  0  0  0  0  0  0  0
   10.1905    0.2894   -0.0000 N   0  0  0  0  0  0  0  0  0  0  0  0
    3.8591   11.3121   -0.0000 C   0  0  0  0  0  0  0  0  0  0  0  0
    1.2060   11.3000   -0.0000 C   0  0  0  0  0  0  0  0  0  0  0  0
   11.6739    0.6150   -0.0000 C   0  0  0  0  0  0  0  0  0  0  0  0
    9.7081   -1.1577   -0.0000 C   0  0  0  0  0  0  0  0  0  0  0  0
    3.8471   12.8557   -0.0000 C   0  0  0  0  0  0  0  0  0  0  0  0
    1.1939   12.8437   -0.0000 C   0  0  0  0  0  0  0  0  0  0  0  0
   12.6869   -0.5065   -0.0000 C   0  0  0  0  0  0  0  0  0  0  0  0
   10.7212   -2.2793   -0.0000 C   0  0  0  0  0  0  0  0  0  0  0  0
    2.5084   13.6276   -0.0000 C   0  0  0  0  0  0  0  0  0  0  0  0
   12.2045   -1.9537   -0.0000 N   0  0  0  0  0  0  0  0  0  0  0  0
   13.2175   -3.0873   -0.0000 C   0  0  0  0  0  0  0  0  0  0  0  0
   12.7351   -4.5345   -0.0000 C   0  0  0  0  0  0  0  0  0  0  0  0
   13.7482   -5.6681   -0.0000 N   0  0  0  0  0  0  0  0  0  0  0  0
   13.2658   -7.1153   -0.0000 C   0  0  0  0  0  0  0  0  0  0  0  0
   15.2315   -5.3425   -0.0000 C   0  0  0  0  0  0  0  0  0  0  0  0
   14.2788   -8.2368   -0.0000 C   0  0  0  0  0  0  0  0  0  0  0  0
   16.2446   -6.4641   -0.0000 C   0  0  0  0  0  0  0  0  0  0  0  0
   15.7622   -7.9112   -0.0000 O   0  0  0  0  0  0  0  0  0  0  0  0
  1  2  2  0  0  0  0
  2  3  1  0  0  0  0
  2  4  1  0  0  0  0
  3  5  1  0  0  0  0
  3  6  1  0  0  0  0
  4  7  1  0  0  0  0
  4  8  1  6  0  0  0
  5  9  1  0  0  0  0
  6 10  1  0  0  0  0
  7 11  1  0  0  0  0
  8 12  1  0  0  0  0
  9 13  1  1  0  0  0
 10 14  2  0  0  0  0
 10 15  1  0  0  0  0
 11 16  2  0  0  0  0
 11 17  1  0  0  0  0
 12 18  2  0  0  0  0
 12 19  1  0  0  0  0
 13 20  1  0  0  0  0
 13 21  1  0  0  0  0
 14 22  1  0  0  0  0
 14 23  1  0  0  0  0
 15 24  2  0  0  0  0
 18 25  1  0  0  0  0
 19 26  2  0  0  0  0
 20 27  1  0  0  0  0
 21 28  2  0  0  0  0
 21 29  1  0  0  0  0
 22 30  1  0  0  0  0
 22 31  1  0  0  0  0
 23 32  1  0  0  0  0
 23 33  2  0  0  0  0
 25 34  2  0  0  0  0
 27 35  1  0  0  0  0
 29 36  1  0  0  0  0
 32 37  1  0  0  0  0
 34 38  1  0  0  0  0
 35 39  2  0  0  0  0
 36 40  1  0  0  0  0
 37 41  2  0  0  0  0
 37 42  1  0  0  0  0
 40 43  2  0  0  0  0
 40 44  1  0  0  0  0
 42 45  1  0  0  0  0
 42 46  1  0  0  0  0
 43 47  1  0  0  0  0
 44 48  2  0  0  0  0
 45 49  1  0  0  0  0
 46 50  1  0  0  0  0
 47 51  2  0  0  0  0
 49 52  1  0  0  0  0
 52 53  1  0  0  0  0
 53 54  1  0  0  0  0
 54 55  1  0  0  0  0
 55 56  1  0  0  0  0
 55 57  1  0  0  0  0
 56 58  1  0  0  0  0
 57 59  1  0  0  0  0
 58 60  1  0  0  0  0
  7  9  1  0  0  0  0
 17 20  1  0  0  0  0
 24 33  1  0  0  0  0
 26 34  1  0  0  0  0
 30 32  2  0  0  0  0
 48 51  1  0  0  0  0
 50 52  1  0  0  0  0
 59 60  1  0  0  0  0
M  END
>  <MolRegNo>
2036032

>  <m>
=

>  <Value>
6090

>  <Unit>
nM

>  <Type>
IC50

>  <pValue>
5.21

>  <Ligand Efficiency>
0.12

>  <Binding Efficiency>
6.38

>  <Surface Efficiency>
3.8

>  <Assay Index>
974120

>  <Assay Category>


>  <Assay Organism>
Homo sapiens

>  <Target ID>
17045

>  <Target Name>
Cytochrome P450 3A4

>  <Target Organism>
Homo sapiens

>  <Target Description>
Target is a single protein chain

>  <Sequence Accession>
P08684

>  <Reference>


>  <Pubmed ID>


>  <DOI>


$$$$
2036033
Actelion Java MolfileCreator 1.0

 59 66  0  0  1  0  0  0  0  0999 V2000
    0.0000   -0.0000   -0.0000 O   0  0  0  0  0  0  0  0  0  0  0  0
   -0.0121    1.2415   -0.0000 C   0  0  0  0  0  0  0  0  0  0  0  0
    1.3018    2.0130   -0.0000 N   0  0  0  0  0  0  0  0  0  0  0  0
   -1.3500    2.0130   -0.0000 C   0  0  0  0  0  0  0  0  0  0  0  0
    1.2898    3.5559   -0.0000 C   0  0  0  0  0  0  0  0  0  0  0  0
    2.6157    1.2656   -0.0000 C   0  0  0  0  0  0  0  0  0  0  0  0
   -1.3621    3.5559   -0.0000 N   0  0  0  0  0  0  0  0  0  0  0  0
   -2.6880    1.2656   -0.0000 C   0  0  0  0  0  0  0  0  0  0  0  0
   -0.0482    4.3273   -0.0000 C   0  0  0  0  0  0  0  0  0  0  0  0
    3.9295    2.0491   -0.0000 C   0  0  0  0  0  0  0  0  0  0  0  0
   -2.7001    4.3273   -0.0000 C   0  0  0  0  0  0  0  0  0  0  0  0
   -4.0260    2.0491   -0.0000 C   0  0  0  0  0  0  0  0  0  0  0  0
   -0.0603    5.8702   -0.0000 N   0  0  0  0  0  0  0  0  0  0  0  0
    5.2434    1.3018   -0.0000 C   0  0  0  0  0  0  0  0  0  0  0  0
    3.9175    3.5920   -0.0000 C   0  0  0  0  0  0  0  0  0  0  0  0
   -3.7728    3.7246   -0.0000 O   0  0  0  0  0  0  0  0  0  0  0  0
   -2.7121    5.8702   -0.0000 C   0  0  0  0  0  0  0  0  0  0  0  0
   -5.3639    1.3018   -0.0000 C   0  0  0  0  0  0  0  0  0  0  0  0
   -4.0380    3.5920   -0.0000 C   0  0  0  0  0  0  0  0  0  0  0  0
   -1.3982    6.6416   -0.0000 N   0  0  0  0  0  0  0  0  0  0  0  0
    1.2536    6.6537   -0.0000 C   0  0  0  0  0  0  0  0  0  0  0  0
    5.5568   -0.1808   -0.0000 N   0  0  0  0  0  0  0  0  0  0  0  0
    6.5573    2.0853   -0.0000 C   0  0  0  0  0  0  0  0  0  0  0  0
    5.2313    4.3755   -0.0000 C   0  0  0  0  0  0  0  0  0  0  0  0
   -6.7019    2.0853   -0.0000 C   0  0  0  0  0  0  0  0  0  0  0  0
   -5.3760    4.3755   -0.0000 C   0  0  0  0  0  0  0  0  0  0  0  0
   -1.4103    8.1845   -0.0000 C   0  0  0  0  0  0  0  0  0  0  0  0
    2.3023    6.0510   -0.0000 O   0  0  0  0  0  0  0  0  0  0  0  0
    1.2415    8.1966   -0.0000 N   0  0  0  0  0  0  0  0  0  0  0  0
    7.0635   -0.3255   -0.0000 C   0  0  0  0  0  0  0  0  0  0  0  0
    4.7251   -1.0848   -0.0000 C   0  0  0  0  0  0  0  0  0  0  0  0
    7.6903    1.0728   -0.0000 C   0  0  0  0  0  0  0  0  0  0  0  0
    6.5452    3.6282   -0.0000 C   0  0  0  0  0  0  0  0  0  0  0  0
   -6.7140    3.6282   -0.0000 C   0  0  0  0  0  0  0  0  0  0  0  0
   -2.7483    8.9560   -0.0000 C   0  0  0  0  0  0  0  0  0  0  0  0
    2.5554    8.9801   -0.0000 C   0  0  0  0  0  0  0  0  0  0  0  0
    9.1729    1.4103   -0.0000 C   0  0  0  0  0  0  0  0  0  0  0  0
   -7.7868    4.2550   -0.0000 O   0  0  0  0  0  0  0  0  0  0  0  0
   -2.7603   10.1975   -0.0000 C   0  0  0  0  0  0  0  0  0  0  0  0
    2.5434   10.5230   -0.0000 C   0  0  0  0  0  0  0  0  0  0  0  0
    9.5346    2.5916   -0.0000 O   0  0  0  0  0  0  0  0  0  0  0  0
   10.1855    0.2893   -0.0000 N   0  0  0  0  0  0  0  0  0  0  0  0
    3.8572   11.3065   -0.0000 C   0  0  0  0  0  0  0  0  0  0  0  0
    1.2054   11.2944   -0.0000 C   0  0  0  0  0  0  0  0  0  0  0  0
   11.6681    0.6268   -0.0000 N   0  0  0  0  0  0  0  0  0  0  0  0
    3.8452   12.8493   -0.0000 C   0  0  0  0  0  0  0  0  0  0  0  0
    1.1933   12.8373   -0.0000 C   0  0  0  0  0  0  0  0  0  0  0  0
   12.6806   -0.4942   -0.0000 C   0  0  0  0  0  0  0  0  0  0  0  0
   12.1261    2.0974   -0.0000 C   0  0  0  0  0  0  0  0  0  0  0  0
    2.5072   13.6208   -0.0000 C   0  0  0  0  0  0  0  0  0  0  0  0
   14.1632   -0.1567   -0.0000 C   0  0  0  0  0  0  0  0  0  0  0  0
   13.6087    2.4349   -0.0000 C   0  0  0  0  0  0  0  0  0  0  0  0
   14.6213    1.3139   -0.0000 N   0  0  0  0  0  0  0  0  0  0  0  0
   16.1039    1.6514   -0.0000 C   0  0  0  0  0  0  0  0  0  0  0  0
   16.5619    3.1219   -0.0000 N   0  0  0  0  0  0  0  0  0  0  0  0
   17.1164    0.5304   -0.0000 C   0  0  0  0  0  0  0  0  0  0  0  0
   18.0445    3.4594   -0.0000 C   0  0  0  0  0  0  0  0  0  0  0  0
   18.5990    0.8679   -0.0000 C   0  0  0  0  0  0  0  0  0  0  0  0
   19.0571    2.3384   -0.0000 C   0  0  0  0  0  0  0  0  0  0  0  0
  1  2  2  0  0  0  0
  2  3  1  0  0  0  0
  2  4  1  0  0  0  0
  3  5  1  0  0  0  0
  3  6  1  0  0  0  0
  4  7  1  0  0  0  0
  4  8  1  6  0  0  0
  5  9  1  0  0  0  0
  6 10  1  0  0  0  0
  7 11  1  0  0  0  0
  8 12  1  0  0  0  0
  9 13  1  1  0  0  0
 10 14  2  0  0  0  0
 10 15  1  0  0  0  0
 11 16  2  0  0  0  0
 11 17  1  0  0  0  0
 12 18  2  0  0  0  0
 12 19  1  0  0  0  0
 13 20  1  0  0  0  0
 13 21  1  0  0  0  0
 14 22  1  0  0  0  0
 14 23  1  0  0  0  0
 15 24  2  0  0  0  0
 18 25  1  0  0  0  0
 19 26  2  0  0  0  0
 20 27  1  0  0  0  0
 21 28  2  0  0  0  0
 21 29  1  0  0  0  0
 22 30  1  0  0  0  0
 22 31  1  0  0  0  0
 23 32  1  0  0  0  0
 23 33  2  0  0  0  0
 25 34  2  0  0  0  0
 27 35  1  0  0  0  0
 29 36  1  0  0  0  0
 32 37  1  0  0  0  0
 34 38  1  0  0  0  0
 35 39  2  0  0  0  0
 36 40  1  0  0  0  0
 37 41  2  0  0  0  0
 37 42  1  0  0  0  0
 40 43  2  0  0  0  0
 40 44  1  0  0  0  0
 42 45  1  0  0  0  0
 43 46  1  0  0  0  0
 44 47  2  0  0  0  0
 45 48  1  0  0  0  0
 45 49  1  0  0  0  0
 46 50  2  0  0  0  0
 48 51  1  0  0  0  0
 49 52  1  0  0  0  0
 51 53  1  0  0  0  0
 53 54  1  0  0  0  0
 54 55  2  0  0  0  0
 54 56  1  0  0  0  0
 55 57  1  0  0  0  0
 56 58  2  0  0  0  0
 57 59  2  0  0  0  0
  7  9  1  0  0  0  0
 17 20  1  0  0  0  0
 24 33  1  0  0  0  0
 26 34  1  0  0  0  0
 30 32  2  0  0  0  0
 47 50  1  0  0  0  0
 52 53  1  0  0  0  0
 58 59  1  0  0  0  0
M  END
>  <MolRegNo>
2036033

>  <m>
=

>  <Value>
2480

>  <Unit>
nM

>  <Type>
IC50

>  <pValue>
5.61

>  <Ligand Efficiency>
0.13

>  <Binding Efficiency>
7.03

>  <Surface Efficiency>
3.74

>  <Assay Index>
974120

>  <Assay Category>


>  <Assay Organism>
Homo sapiens

>  <Target ID>
17045

>  <Target Name>
Cytochrome P450 3A4

>  <Target Organism>
Homo sapiens

>  <Target Description>
Target is a single protein chain

>  <Sequence Accession>
P08684

>  <Reference>


>  <Pubmed ID>


>  <DOI>


$$$$
2036034
Actelion Java MolfileCreator 1.0

 54 60  0  0  1  0  0  0  0  0999 V2000
    0.0000   -0.0000   -0.0000 O   0  0  0  0  0  0  0  0  0  0  0  0
   -0.0121    1.2480   -0.0000 C   0  0  0  0  0  0  0  0  0  0  0  0
    1.3086    2.0234   -0.0000 N   0  0  0  0  0  0  0  0  0  0  0  0
   -1.3570    2.0234   -0.0000 C   0  0  0  0  0  0  0  0  0  0  0  0
    1.2964    3.5743   -0.0000 C   0  0  0  0  0  0  0  0  0  0  0  0
    2.6292    1.2722   -0.0000 C   0  0  0  0  0  0  0  0  0  0  0  0
   -1.3691    3.5743   -0.0000 N   0  0  0  0  0  0  0  0  0  0  0  0
   -2.7019    1.2722   -0.0000 C   0  0  0  0  0  0  0  0  0  0  0  0
   -0.0485    4.3498   -0.0000 C   0  0  0  0  0  0  0  0  0  0  0  0
    3.9499    2.0598   -0.0000 C   0  0  0  0  0  0  0  0  0  0  0  0
   -2.7141    4.3498   -0.0000 C   0  0  0  0  0  0  0  0  0  0  0  0
   -4.0468    2.0598   -0.0000 C   0  0  0  0  0  0  0  0  0  0  0  0
   -0.0606    5.9006   -0.0000 N   0  0  0  0  0  0  0  0  0  0  0  0
    5.2706    1.3086   -0.0000 C   0  0  0  0  0  0  0  0  0  0  0  0
    3.9378    3.6107   -0.0000 C   0  0  0  0  0  0  0  0  0  0  0  0
   -3.7924    3.7439   -0.0000 O   0  0  0  0  0  0  0  0  0  0  0  0
   -2.7262    5.9006   -0.0000 C   0  0  0  0  0  0  0  0  0  0  0  0
   -5.3918    1.3086   -0.0000 C   0  0  0  0  0  0  0  0  0  0  0  0
   -4.0590    3.6107   -0.0000 C   0  0  0  0  0  0  0  0  0  0  0  0
   -1.4055    6.6761   -0.0000 N   0  0  0  0  0  0  0  0  0  0  0  0
    1.2601    6.6882   -0.0000 C   0  0  0  0  0  0  0  0  0  0  0  0
    5.5856   -0.1817   -0.0000 N   0  0  0  0  0  0  0  0  0  0  0  0
    6.5913    2.0961   -0.0000 C   0  0  0  0  0  0  0  0  0  0  0  0
    5.2585    4.3982   -0.0000 C   0  0  0  0  0  0  0  0  0  0  0  0
   -6.7367    2.0961   -0.0000 C   0  0  0  0  0  0  0  0  0  0  0  0
   -5.4039    4.3982   -0.0000 C   0  0  0  0  0  0  0  0  0  0  0  0
   -1.4176    8.2270   -0.0000 C   0  0  0  0  0  0  0  0  0  0  0  0
    2.3142    6.0824   -0.0000 O   0  0  0  0  0  0  0  0  0  0  0  0
    1.2480    8.2391   -0.0000 N   0  0  0  0  0  0  0  0  0  0  0  0
    7.1002   -0.3271   -0.0000 C   0  0  0  0  0  0  0  0  0  0  0  0
    4.7496   -1.0905   -0.0000 C   0  0  0  0  0  0  0  0  0  0  0  0
    7.7302    1.0784   -0.0000 C   0  0  0  0  0  0  0  0  0  0  0  0
    6.5792    3.6470   -0.0000 C   0  0  0  0  0  0  0  0  0  0  0  0
   -6.7488    3.6470   -0.0000 C   0  0  0  0  0  0  0  0  0  0  0  0
   -2.7625    9.0024   -0.0000 C   0  0  0  0  0  0  0  0  0  0  0  0
    2.5687    9.0266   -0.0000 C   0  0  0  0  0  0  0  0  0  0  0  0
    9.2205    1.4176   -0.0000 C   0  0  0  0  0  0  0  0  0  0  0  0
   -7.8271    4.2771   -0.0000 O   0  0  0  0  0  0  0  0  0  0  0  0
   -2.7746   10.2504   -0.0000 C   0  0  0  0  0  0  0  0  0  0  0  0
    2.5565   10.5775   -0.0000 C   0  0  0  0  0  0  0  0  0  0  0  0
    9.5840    2.6050   -0.0000 O   0  0  0  0  0  0  0  0  0  0  0  0
   10.2383    0.2908   -0.0000 N   0  0  0  0  0  0  0  0  0  0  0  0
    3.8772   11.3651   -0.0000 C   0  0  0  0  0  0  0  0  0  0  0  0
    1.2116   11.3530   -0.0000 C   0  0  0  0  0  0  0  0  0  0  0  0
    9.6567   -1.1268   -0.0000 C   0  0  0  0  0  0  0  0  0  0  0  0
   11.7165    0.7270   -0.0000 C   0  0  0  0  0  0  0  0  0  0  0  0
    3.8651   12.9160   -0.0000 C   0  0  0  0  0  0  0  0  0  0  0  0
    1.1995   12.9039   -0.0000 C   0  0  0  0  0  0  0  0  0  0  0  0
   10.3958   -2.4596   -0.0000 C   0  0  0  0  0  0  0  0  0  0  0  0
   12.9644   -0.1454   -0.0000 C   0  0  0  0  0  0  0  0  0  0  0  0
    2.5202   13.6914   -0.0000 C   0  0  0  0  0  0  0  0  0  0  0  0
   11.8982   -2.7019   -0.0000 N   0  0  0  0  0  0  0  0  0  0  0  0
   13.0493   -1.6720   -0.0000 C   0  0  0  0  0  0  0  0  0  0  0  0
   12.2253   -3.8651   -0.0000 C   0  0  0  0  0  0  0  0  0  0  0  0
  1  2  2  0  0  0  0
  2  3  1  0  0  0  0
  2  4  1  0  0  0  0
  3  5  1  0  0  0  0
  3  6  1  0  0  0  0
  4  7  1  0  0  0  0
  4  8  1  6  0  0  0
  5  9  1  0  0  0  0
  6 10  1  0  0  0  0
  7 11  1  0  0  0  0
  8 12  1  0  0  0  0
  9 13  1  1  0  0  0
 10 14  2  0  0  0  0
 10 15  1  0  0  0  0
 11 16  2  0  0  0  0
 11 17  1  0  0  0  0
 12 18  2  0  0  0  0
 12 19  1  0  0  0  0
 13 20  1  0  0  0  0
 13 21  1  0  0  0  0
 14 22  1  0  0  0  0
 14 23  1  0  0  0  0
 15 24  2  0  0  0  0
 18 25  1  0  0  0  0
 19 26  2  0  0  0  0
 20 27  1  0  0  0  0
 21 28  2  0  0  0  0
 21 29  1  0  0  0  0
 22 30  1  0  0  0  0
 22 31  1  0  0  0  0
 23 32  1  0  0  0  0
 23 33  2  0  0  0  0
 25 34  2  0  0  0  0
 27 35  1  0  0  0  0
 29 36  1  0  0  0  0
 32 37  1  0  0  0  0
 34 38  1  0  0  0  0
 35 39  2  0  0  0  0
 36 40  1  0  0  0  0
 37 41  2  0  0  0  0
 37 42  1  0  0  0  0
 40 43  2  0  0  0  0
 40 44  1  0  0  0  0
 42 45  1  0  0  0  0
 42 46  1  0  0  0  0
 43 47  1  0  0  0  0
 44 48  2  0  0  0  0
 45 49  1  0  0  0  0
 46 50  1  0  0  0  0
 47 51  2  0  0  0  0
 49 52  1  0  0  0  0
 50 53  1  0  0  0  0
 52 54  1  0  0  0  0
  7  9  1  0  0  0  0
 17 20  1  0  0  0  0
 24 33  1  0  0  0  0
 26 34  1  0  0  0  0
 30 32  2  0  0  0  0
 48 51  1  0  0  0  0
 52 53  1  0  0  0  0
M  END
>  <MolRegNo>
2036034

>  <m>
=

>  <Value>
3630

>  <Unit>
nM

>  <Type>
IC50

>  <pValue>
5.44

>  <Ligand Efficiency>
0.14

>  <Binding Efficiency>
7.42

>  <Surface Efficiency>
4.36

>  <Assay Index>
974120

>  <Assay Category>


>  <Assay Organism>
Homo sapiens

>  <Target ID>
17045

>  <Target Name>
Cytochrome P450 3A4

>  <Target Organism>
Homo sapiens

>  <Target Description>
Target is a single protein chain

>  <Sequence Accession>
P08684

>  <Reference>


>  <Pubmed ID>


>  <DOI>


$$$$
2036035
Actelion Java MolfileCreator 1.0

 55 62  0  0  1  0  0  0  0  0999 V2000
    0.0000   -0.0000   -0.0000 O   0  0  0  0  0  0  0  0  0  0  0  0
   -0.0121    1.2436   -0.0000 C   0  0  0  0  0  0  0  0  0  0  0  0
    1.3040    2.0164   -0.0000 N   0  0  0  0  0  0  0  0  0  0  0  0
   -1.3523    2.0164   -0.0000 C   0  0  0  0  0  0  0  0  0  0  0  0
    1.2919    3.5619   -0.0000 C   0  0  0  0  0  0  0  0  0  0  0  0
    2.6201    1.2678   -0.0000 C   0  0  0  0  0  0  0  0  0  0  0  0
   -1.3644    3.5619   -0.0000 N   0  0  0  0  0  0  0  0  0  0  0  0
   -2.6925    1.2678   -0.0000 C   0  0  0  0  0  0  0  0  0  0  0  0
   -0.0483    4.3346   -0.0000 C   0  0  0  0  0  0  0  0  0  0  0  0
    3.9362    2.0526   -0.0000 C   0  0  0  0  0  0  0  0  0  0  0  0
   -2.7046    4.3346   -0.0000 C   0  0  0  0  0  0  0  0  0  0  0  0
   -4.0328    2.0526   -0.0000 C   0  0  0  0  0  0  0  0  0  0  0  0
   -0.0604    5.8801   -0.0000 N   0  0  0  0  0  0  0  0  0  0  0  0
    5.2522    1.3040   -0.0000 C   0  0  0  0  0  0  0  0  0  0  0  0
    3.9241    3.5981   -0.0000 C   0  0  0  0  0  0  0  0  0  0  0  0
   -3.7792    3.7309   -0.0000 O   0  0  0  0  0  0  0  0  0  0  0  0
   -2.7167    5.8801   -0.0000 C   0  0  0  0  0  0  0  0  0  0  0  0
   -5.3730    1.3040   -0.0000 C   0  0  0  0  0  0  0  0  0  0  0  0
   -4.0448    3.5981   -0.0000 C   0  0  0  0  0  0  0  0  0  0  0  0
   -1.4006    6.6528   -0.0000 N   0  0  0  0  0  0  0  0  0  0  0  0
    1.2557    6.6649   -0.0000 C   0  0  0  0  0  0  0  0  0  0  0  0
    5.5662   -0.1811   -0.0000 N   0  0  0  0  0  0  0  0  0  0  0  0
    6.5683    2.0888   -0.0000 C   0  0  0  0  0  0  0  0  0  0  0  0
    5.2402    4.3829   -0.0000 C   0  0  0  0  0  0  0  0  0  0  0  0
   -6.7132    2.0888   -0.0000 C   0  0  0  0  0  0  0  0  0  0  0  0
   -5.3851    4.3829   -0.0000 C   0  0  0  0  0  0  0  0  0  0  0  0
   -1.4127    8.1983   -0.0000 C   0  0  0  0  0  0  0  0  0  0  0  0
    2.3062    6.0612   -0.0000 O   0  0  0  0  0  0  0  0  0  0  0  0
    1.2436    8.2104   -0.0000 N   0  0  0  0  0  0  0  0  0  0  0  0
    7.0754   -0.3260   -0.0000 C   0  0  0  0  0  0  0  0  0  0  0  0
    4.7331   -1.0867   -0.0000 C   0  0  0  0  0  0  0  0  0  0  0  0
    7.7033    1.0746   -0.0000 C   0  0  0  0  0  0  0  0  0  0  0  0
    6.5563    3.6343   -0.0000 C   0  0  0  0  0  0  0  0  0  0  0  0
   -6.7253    3.6343   -0.0000 C   0  0  0  0  0  0  0  0  0  0  0  0
   -2.7529    8.9711   -0.0000 C   0  0  0  0  0  0  0  0  0  0  0  0
    2.5597    8.9952   -0.0000 C   0  0  0  0  0  0  0  0  0  0  0  0
    9.1884    1.4127   -0.0000 C   0  0  0  0  0  0  0  0  0  0  0  0
   -7.7999    4.2622   -0.0000 O   0  0  0  0  0  0  0  0  0  0  0  0
   -2.7650   10.2147   -0.0000 C   0  0  0  0  0  0  0  0  0  0  0  0
    2.5476   10.5407   -0.0000 C   0  0  0  0  0  0  0  0  0  0  0  0
    9.5506    2.5959   -0.0000 O   0  0  0  0  0  0  0  0  0  0  0  0
   10.2026    0.2898   -0.0000 N   0  0  0  0  0  0  0  0  0  0  0  0
    3.8637   11.3255   -0.0000 C   0  0  0  0  0  0  0  0  0  0  0  0
    1.2074   11.3135   -0.0000 C   0  0  0  0  0  0  0  0  0  0  0  0
    9.7197   -1.1591   -0.0000 C   0  0  0  0  0  0  0  0  0  0  0  0
   11.6878    0.6158   -0.0000 C   0  0  0  0  0  0  0  0  0  0  0  0
    3.8516   12.8710   -0.0000 C   0  0  0  0  0  0  0  0  0  0  0  0
    1.1953   12.8589   -0.0000 C   0  0  0  0  0  0  0  0  0  0  0  0
   10.7339   -2.2820   -0.0000 C   0  0  0  0  0  0  0  0  0  0  0  0
   12.7020   -0.5071   -0.0000 C   0  0  0  0  0  0  0  0  0  0  0  0
    2.5114   13.6438   -0.0000 C   0  0  0  0  0  0  0  0  0  0  0  0
   12.2190   -1.9560   -0.0000 N   0  0  0  0  0  0  0  0  0  0  0  0
   10.5649   -3.7913   -0.0000 C   0  0  0  0  0  0  0  0  0  0  0  0
   12.9676   -3.2721   -0.0000 C   0  0  0  0  0  0  0  0  0  0  0  0
   11.9534   -4.4071   -0.0000 C   0  0  0  0  0  0  0  0  0  0  0  0
  1  2  2  0  0  0  0
  2  3  1  0  0  0  0
  2  4  1  0  0  0  0
  3  5  1  0  0  0  0
  3  6  1  0  0  0  0
  4  7  1  0  0  0  0
  4  8  1  6  0  0  0
  5  9  1  0  0  0  0
  6 10  1  0  0  0  0
  7 11  1  0  0  0  0
  8 12  1  0  0  0  0
  9 13  1  1  0  0  0
 10 14  2  0  0  0  0
 10 15  1  0  0  0  0
 11 16  2  0  0  0  0
 11 17  1  0  0  0  0
 12 18  2  0  0  0  0
 12 19  1  0  0  0  0
 13 20  1  0  0  0  0
 13 21  1  0  0  0  0
 14 22  1  0  0  0  0
 14 23  1  0  0  0  0
 15 24  2  0  0  0  0
 18 25  1  0  0  0  0
 19 26  2  0  0  0  0
 20 27  1  0  0  0  0
 21 28  2  0  0  0  0
 21 29  1  0  0  0  0
 22 30  1  0  0  0  0
 22 31  1  0  0  0  0
 23 32  1  0  0  0  0
 23 33  2  0  0  0  0
 25 34  2  0  0  0  0
 27 35  1  0  0  0  0
 29 36  1  0  0  0  0
 32 37  1  0  0  0  0
 34 38  1  0  0  0  0
 35 39  2  0  0  0  0
 36 40  1  0  0  0  0
 37 41  2  0  0  0  0
 37 42  1  0  0  0  0
 40 43  2  0  0  0  0
 40 44  1  0  0  0  0
 42 45  1  0  0  0  0
 42 46  1  0  0  0  0
 43 47  1  0  0  0  0
 44 48  2  0  0  0  0
 45 49  1  0  0  0  0
 46 50  1  0  0  0  0
 47 51  2  0  0  0  0
 49 52  1  0  0  0  0
 49 53  1  0  0  0  0
 52 54  1  0  0  0  0
 53 55  1  0  0  0  0
  7  9  1  0  0  0  0
 17 20  1  0  0  0  0
 24 33  1  0  0  0  0
 26 34  1  0  0  0  0
 30 32  2  0  0  0  0
 48 51  1  0  0  0  0
 50 52  1  0  0  0  0
 54 55  1  0  0  0  0
M  END
>  <MolRegNo>
2036035

>  <m>
=

>  <Value>
6600

>  <Unit>
nM

>  <Type>
IC50

>  <pValue>
5.18

>  <Ligand Efficiency>
0.13

>  <Binding Efficiency>
6.95

>  <Surface Efficiency>
4.15

>  <Assay Index>
974120

>  <Assay Category>


>  <Assay Organism>
Homo sapiens

>  <Target ID>
17045

>  <Target Name>
Cytochrome P450 3A4

>  <Target Organism>
Homo sapiens

>  <Target Description>
Target is a single protein chain

>  <Sequence Accession>
P08684

>  <Reference>


>  <Pubmed ID>


>  <DOI>


$$$$
2036036
Actelion Java MolfileCreator 1.0

 59 66  0  0  1  0  0  0  0  0999 V2000
    0.0000   -0.0000   -0.0000 O   0  0  0  0  0  0  0  0  0  0  0  0
   -1.2119    0.2666   -0.0000 C   0  0  0  0  0  0  0  0  0  0  0  0
   -1.6967    1.7452   -0.0000 N   0  0  0  0  0  0  0  0  0  0  0  0
   -2.2542   -0.8605   -0.0000 C   0  0  0  0  0  0  0  0  0  0  0  0
   -3.2116    2.0724   -0.0000 C   0  0  0  0  0  0  0  0  0  0  0  0
   -0.6787    2.9086   -0.0000 C   0  0  0  0  0  0  0  0  0  0  0  0
   -3.7691   -0.5332   -0.0000 N   0  0  0  0  0  0  0  0  0  0  0  0
   -1.7936   -2.3148   -0.0000 C   0  0  0  0  0  0  0  0  0  0  0  0
   -4.2538    0.9453   -0.0000 C   0  0  0  0  0  0  0  0  0  0  0  0
   -1.1634    4.3871   -0.0000 C   0  0  0  0  0  0  0  0  0  0  0  0
   -4.8113   -1.6603   -0.0000 C   0  0  0  0  0  0  0  0  0  0  0  0
   -2.8359   -3.4419   -0.0000 C   0  0  0  0  0  0  0  0  0  0  0  0
   -5.7687    1.2725   -0.0000 N   0  0  0  0  0  0  0  0  0  0  0  0
   -0.1454    5.5506   -0.0000 C   0  0  0  0  0  0  0  0  0  0  0  0
   -2.6783    4.7144   -0.0000 C   0  0  0  0  0  0  0  0  0  0  0  0
   -4.4477   -2.8238   -0.0000 O   0  0  0  0  0  0  0  0  0  0  0  0
   -6.3262   -1.3331   -0.0000 C   0  0  0  0  0  0  0  0  0  0  0  0
   -2.3754   -4.8962   -0.0000 C   0  0  0  0  0  0  0  0  0  0  0  0
   -4.3508   -3.1025   -0.0000 C   0  0  0  0  0  0  0  0  0  0  0  0
   -6.8110    0.1454   -0.0000 N   0  0  0  0  0  0  0  0  0  0  0  0
   -6.2535    2.7511   -0.0000 C   0  0  0  0  0  0  0  0  0  0  0  0
    1.3816    5.5627   -0.0000 N   0  0  0  0  0  0  0  0  0  0  0  0
   -0.6423    7.0291   -0.0000 C   0  0  0  0  0  0  0  0  0  0  0  0
   -3.1752    6.1929   -0.0000 C   0  0  0  0  0  0  0  0  0  0  0  0
   -3.4176   -6.0232   -0.0000 C   0  0  0  0  0  0  0  0  0  0  0  0
   -5.3930   -4.2296   -0.0000 C   0  0  0  0  0  0  0  0  0  0  0  0
   -8.3259    0.4726   -0.0000 C   0  0  0  0  0  0  0  0  0  0  0  0
   -5.4415    3.6842   -0.0000 O   0  0  0  0  0  0  0  0  0  0  0  0
   -7.7684    3.0783   -0.0000 N   0  0  0  0  0  0  0  0  0  0  0  0
    1.8421    7.0412   -0.0000 C   0  0  0  0  0  0  0  0  0  0  0  0
    2.0966    4.5811   -0.0000 C   0  0  0  0  0  0  0  0  0  0  0  0
    0.5817    7.9260   -0.0000 C   0  0  0  0  0  0  0  0  0  0  0  0
   -2.1572    7.3563   -0.0000 C   0  0  0  0  0  0  0  0  0  0  0  0
   -4.9325   -5.6839   -0.0000 C   0  0  0  0  0  0  0  0  0  0  0  0
   -9.3681   -0.6544   -0.0000 C   0  0  0  0  0  0  0  0  0  0  0  0
   -8.2532    4.5568   -0.0000 C   0  0  0  0  0  0  0  0  0  0  0  0
    0.5696    9.4772   -0.0000 C   0  0  0  0  0  0  0  0  0  0  0  0
   -5.7687   -6.5807   -0.0000 O   0  0  0  0  0  0  0  0  0  0  0  0
  -10.5801   -0.3878   -0.0000 C   0  0  0  0  0  0  0  0  0  0  0  0
   -9.7681    4.8840   -0.0000 C   0  0  0  0  0  0  0  0  0  0  0  0
   -0.5090   10.1074   -0.0000 O   0  0  0  0  0  0  0  0  0  0  0  0
    1.8906   10.2650   -0.0000 N   0  0  0  0  0  0  0  0  0  0  0  0
  -10.2650    6.3626   -0.0000 C   0  0  0  0  0  0  0  0  0  0  0  0
  -10.8103    3.7448   -0.0000 C   0  0  0  0  0  0  0  0  0  0  0  0
    3.2116    9.5136   -0.0000 C   0  0  0  0  0  0  0  0  0  0  0  0
    1.8785   11.8162   -0.0000 C   0  0  0  0  0  0  0  0  0  0  0  0
  -11.7799    6.6898   -0.0000 C   0  0  0  0  0  0  0  0  0  0  0  0
  -12.3252    4.0720   -0.0000 C   0  0  0  0  0  0  0  0  0  0  0  0
    4.5326   10.2892   -0.0000 C   0  0  0  0  0  0  0  0  0  0  0  0
    3.1995   12.5918   -0.0000 C   0  0  0  0  0  0  0  0  0  0  0  0
  -12.8221    5.5506   -0.0000 C   0  0  0  0  0  0  0  0  0  0  0  0
    4.5205   11.8404   -0.0000 N   0  0  0  0  0  0  0  0  0  0  0  0
    5.8536    9.5378   -0.0000 C   0  0  0  0  0  0  0  0  0  0  0  0
    5.8414   12.6161   -0.0000 C   0  0  0  0  0  0  0  0  0  0  0  0
    7.1746   10.3134   -0.0000 N   0  0  0  0  0  0  0  0  0  0  0  0
    7.1624   11.8647   -0.0000 C   0  0  0  0  0  0  0  0  0  0  0  0
    8.4956    9.5499   -0.0000 C   0  0  0  0  0  0  0  0  0  0  0  0
    8.4834    8.3259   -0.0000 O   0  0  0  0  0  0  0  0  0  0  0  0
    9.5499   10.1801   -0.0000 C   0  0  0  0  0  0  0  0  0  0  0  0
  1  2  2  0  0  0  0
  2  3  1  0  0  0  0
  2  4  1  0  0  0  0
  3  5  1  0  0  0  0
  3  6  1  0  0  0  0
  4  7  1  0  0  0  0
  4  8  1  6  0  0  0
  5  9  1  0  0  0  0
  6 10  1  0  0  0  0
  7 11  1  0  0  0  0
  8 12  1  0  0  0  0
  9 13  1  1  0  0  0
 10 14  2  0  0  0  0
 10 15  1  0  0  0  0
 11 16  2  0  0  0  0
 11 17  1  0  0  0  0
 12 18  2  0  0  0  0
 12 19  1  0  0  0  0
 13 20  1  0  0  0  0
 13 21  1  0  0  0  0
 14 22  1  0  0  0  0
 14 23  1  0  0  0  0
 15 24  2  0  0  0  0
 18 25  1  0  0  0  0
 19 26  2  0  0  0  0
 20 27  1  0  0  0  0
 21 28  2  0  0  0  0
 21 29  1  0  0  0  0
 22 30  1  0  0  0  0
 22 31  1  0  0  0  0
 23 32  1  0  0  0  0
 23 33  2  0  0  0  0
 25 34  2  0  0  0  0
 27 35  1  0  0  0  0
 29 36  1  0  0  0  0
 32 37  1  0  0  0  0
 34 38  1  0  0  0  0
 35 39  2  0  0  0  0
 36 40  1  0  0  0  0
 37 41  2  0  0  0  0
 37 42  1  0  0  0  0
 40 43  2  0  0  0  0
 40 44  1  0  0  0  0
 42 45  1  0  0  0  0
 42 46  1  0  0  0  0
 43 47  1  0  0  0  0
 44 48  2  0  0  0  0
 45 49  1  0  0  0  0
 46 50  1  0  0  0  0
 47 51  2  0  0  0  0
 49 52  1  0  0  0  0
 49 53  1  0  0  0  0
 52 54  1  0  0  0  0
 53 55  1  0  0  0  0
 54 56  1  0  0  0  0
 55 57  1  0  0  0  0
 57 58  2  0  0  0  0
 57 59  1  0  0  0  0
  7  9  1  0  0  0  0
 17 20  1  0  0  0  0
 24 33  1  0  0  0  0
 26 34  1  0  0  0  0
 30 32  2  0  0  0  0
 48 51  1  0  0  0  0
 50 52  1  0  0  0  0
 55 56  1  0  0  0  0
M  END
>  <MolRegNo>
2036036

>  <m>
=

>  <Value>
15000

>  <Unit>
nM

>  <Type>
IC50

>  <pValue>
4.82

>  <Ligand Efficiency>
0.11

>  <Binding Efficiency>
6.02

>  <Surface Efficiency>
3.32

>  <Assay Index>
974120

>  <Assay Category>


>  <Assay Organism>
Homo sapiens

>  <Target ID>
17045

>  <Target Name>
Cytochrome P450 3A4

>  <Target Organism>
Homo sapiens

>  <Target Description>
Target is a single protein chain

>  <Sequence Accession>
P08684

>  <Reference>


>  <Pubmed ID>


>  <DOI>


$$$$
2036037
Actelion Java MolfileCreator 1.0

 60 67  0  0  1  0  0  0  0  0999 V2000
    0.0000   -0.0000   -0.0000 O   0  0  0  0  0  0  0  0  0  0  0  0
   -1.2116    0.2665   -0.0000 C   0  0  0  0  0  0  0  0  0  0  0  0
   -1.6962    1.7447   -0.0000 N   0  0  0  0  0  0  0  0  0  0  0  0
   -2.2535   -0.8602   -0.0000 C   0  0  0  0  0  0  0  0  0  0  0  0
   -3.2107    2.0718   -0.0000 C   0  0  0  0  0  0  0  0  0  0  0  0
   -0.6785    2.9078   -0.0000 C   0  0  0  0  0  0  0  0  0  0  0  0
   -3.7680   -0.5331   -0.0000 N   0  0  0  0  0  0  0  0  0  0  0  0
   -1.7931   -2.3141   -0.0000 C   0  0  0  0  0  0  0  0  0  0  0  0
   -4.2527    0.9450   -0.0000 C   0  0  0  0  0  0  0  0  0  0  0  0
   -1.1631    4.3859   -0.0000 C   0  0  0  0  0  0  0  0  0  0  0  0
   -4.8100   -1.6599   -0.0000 C   0  0  0  0  0  0  0  0  0  0  0  0
   -2.8351   -3.4409   -0.0000 C   0  0  0  0  0  0  0  0  0  0  0  0
   -5.7671    1.2722   -0.0000 N   0  0  0  0  0  0  0  0  0  0  0  0
   -0.1454    5.5490   -0.0000 C   0  0  0  0  0  0  0  0  0  0  0  0
   -2.6776    4.7131   -0.0000 C   0  0  0  0  0  0  0  0  0  0  0  0
   -4.4465   -2.8230   -0.0000 O   0  0  0  0  0  0  0  0  0  0  0  0
   -6.3245   -1.3327   -0.0000 C   0  0  0  0  0  0  0  0  0  0  0  0
   -2.3747   -4.8948   -0.0000 C   0  0  0  0  0  0  0  0  0  0  0  0
   -4.3496   -3.1017   -0.0000 C   0  0  0  0  0  0  0  0  0  0  0  0
   -6.8091    0.1454   -0.0000 N   0  0  0  0  0  0  0  0  0  0  0  0
   -6.2518    2.7503   -0.0000 C   0  0  0  0  0  0  0  0  0  0  0  0
    1.3812    5.5612   -0.0000 N   0  0  0  0  0  0  0  0  0  0  0  0
   -0.6421    7.0272   -0.0000 C   0  0  0  0  0  0  0  0  0  0  0  0
   -3.1743    6.1912   -0.0000 C   0  0  0  0  0  0  0  0  0  0  0  0
   -3.4167   -6.0216   -0.0000 C   0  0  0  0  0  0  0  0  0  0  0  0
   -5.3915   -4.2284   -0.0000 C   0  0  0  0  0  0  0  0  0  0  0  0
   -8.3236    0.4725   -0.0000 C   0  0  0  0  0  0  0  0  0  0  0  0
   -5.4400    3.6832   -0.0000 O   0  0  0  0  0  0  0  0  0  0  0  0
   -7.7662    3.0774   -0.0000 N   0  0  0  0  0  0  0  0  0  0  0  0
    1.8416    7.0393   -0.0000 C   0  0  0  0  0  0  0  0  0  0  0  0
    2.0960    4.5798   -0.0000 C   0  0  0  0  0  0  0  0  0  0  0  0
    0.5816    7.9238   -0.0000 C   0  0  0  0  0  0  0  0  0  0  0  0
   -2.1566    7.3543   -0.0000 C   0  0  0  0  0  0  0  0  0  0  0  0
   -4.9311   -5.6823   -0.0000 C   0  0  0  0  0  0  0  0  0  0  0  0
   -9.3655   -0.6543   -0.0000 C   0  0  0  0  0  0  0  0  0  0  0  0
   -8.2509    4.5556   -0.0000 C   0  0  0  0  0  0  0  0  0  0  0  0
    0.5694    9.4746   -0.0000 C   0  0  0  0  0  0  0  0  0  0  0  0
   -5.7671   -6.5789   -0.0000 O   0  0  0  0  0  0  0  0  0  0  0  0
  -10.5771   -0.3877   -0.0000 C   0  0  0  0  0  0  0  0  0  0  0  0
   -9.7654    4.8827   -0.0000 C   0  0  0  0  0  0  0  0  0  0  0  0
   -0.5089   10.1046   -0.0000 O   0  0  0  0  0  0  0  0  0  0  0  0
    1.8901   10.2621   -0.0000 N   0  0  0  0  0  0  0  0  0  0  0  0
  -10.2621    6.3608   -0.0000 C   0  0  0  0  0  0  0  0  0  0  0  0
  -10.8073    3.7438   -0.0000 C   0  0  0  0  0  0  0  0  0  0  0  0
    3.2107    9.5109   -0.0000 C   0  0  0  0  0  0  0  0  0  0  0  0
    1.8780   11.8129   -0.0000 C   0  0  0  0  0  0  0  0  0  0  0  0
  -11.7766    6.6879   -0.0000 C   0  0  0  0  0  0  0  0  0  0  0  0
  -12.3218    4.0709   -0.0000 C   0  0  0  0  0  0  0  0  0  0  0  0
    4.5313   10.2863   -0.0000 C   0  0  0  0  0  0  0  0  0  0  0  0
    3.1986   12.5883   -0.0000 C   0  0  0  0  0  0  0  0  0  0  0  0
  -12.8185    5.5490   -0.0000 C   0  0  0  0  0  0  0  0  0  0  0  0
    4.5192   11.8372   -0.0000 N   0  0  0  0  0  0  0  0  0  0  0  0
    5.8519    9.5352   -0.0000 C   0  0  0  0  0  0  0  0  0  0  0  0
    5.8398   12.6126   -0.0000 C   0  0  0  0  0  0  0  0  0  0  0  0
    7.1726   10.3106   -0.0000 N   0  0  0  0  0  0  0  0  0  0  0  0
    7.1605   11.8614   -0.0000 C   0  0  0  0  0  0  0  0  0  0  0  0
    8.4932    9.5473   -0.0000 C   0  0  0  0  0  0  0  0  0  0  0  0
    8.4811    8.0207   -0.0000 C   0  0  0  0  0  0  0  0  0  0  0  0
    9.5352    7.4149   -0.0000 C   0  0  0  0  0  0  0  0  0  0  0  0
    7.4028    7.4149   -0.0000 C   0  0  0  0  0  0  0  0  0  0  0  0
  1  2  2  0  0  0  0
  2  3  1  0  0  0  0
  2  4  1  0  0  0  0
  3  5  1  0  0  0  0
  3  6  1  0  0  0  0
  4  7  1  0  0  0  0
  4  8  1  6  0  0  0
  5  9  1  0  0  0  0
  6 10  1  0  0  0  0
  7 11  1  0  0  0  0
  8 12  1  0  0  0  0
  9 13  1  1  0  0  0
 10 14  2  0  0  0  0
 10 15  1  0  0  0  0
 11 16  2  0  0  0  0
 11 17  1  0  0  0  0
 12 18  2  0  0  0  0
 12 19  1  0  0  0  0
 13 20  1  0  0  0  0
 13 21  1  0  0  0  0
 14 22  1  0  0  0  0
 14 23  1  0  0  0  0
 15 24  2  0  0  0  0
 18 25  1  0  0  0  0
 19 26  2  0  0  0  0
 20 27  1  0  0  0  0
 21 28  2  0  0  0  0
 21 29  1  0  0  0  0
 22 30  1  0  0  0  0
 22 31  1  0  0  0  0
 23 32  1  0  0  0  0
 23 33  2  0  0  0  0
 25 34  2  0  0  0  0
 27 35  1  0  0  0  0
 29 36  1  0  0  0  0
 32 37  1  0  0  0  0
 34 38  1  0  0  0  0
 35 39  2  0  0  0  0
 36 40  1  0  0  0  0
 37 41  2  0  0  0  0
 37 42  1  0  0  0  0
 40 43  2  0  0  0  0
 40 44  1  0  0  0  0
 42 45  1  0  0  0  0
 42 46  1  0  0  0  0
 43 47  1  0  0  0  0
 44 48  2  0  0  0  0
 45 49  1  0  0  0  0
 46 50  1  0  0  0  0
 47 51  2  0  0  0  0
 49 52  1  0  0  0  0
 49 53  1  0  0  0  0
 52 54  1  0  0  0  0
 53 55  1  0  0  0  0
 54 56  1  0  0  0  0
 55 57  1  0  0  0  0
 57 58  1  0  0  0  0
 58 59  1  0  0  0  0
 58 60  1  0  0  0  0
  7  9  1  0  0  0  0
 17 20  1  0  0  0  0
 24 33  1  0  0  0  0
 26 34  1  0  0  0  0
 30 32  2  0  0  0  0
 48 51  1  0  0  0  0
 50 52  1  0  0  0  0
 55 56  1  0  0  0  0
M  END
>  <MolRegNo>
2036037

>  <m>
=

>  <Value>
3980

>  <Unit>
nM

>  <Type>
IC50

>  <pValue>
5.4

>  <Ligand Efficiency>
0.12

>  <Binding Efficiency>
6.62

>  <Surface Efficiency>
4.21

>  <Assay Index>
974120

>  <Assay Category>


>  <Assay Organism>
Homo sapiens

>  <Target ID>
17045

>  <Target Name>
Cytochrome P450 3A4

>  <Target Organism>
Homo sapiens

>  <Target Description>
Target is a single protein chain

>  <Sequence Accession>
P08684

>  <Reference>


>  <Pubmed ID>


>  <DOI>


$$$$
2036038
Actelion Java MolfileCreator 1.0

 63 70  0  0  1  0  0  0  0  0999 V2000
    0.0000   -0.0000   -0.0000 O   0  0  0  0  0  0  0  0  0  0  0  0
    1.1954    0.2684   -0.0000 C   0  0  0  0  0  0  0  0  0  0  0  0
    1.6589    1.7565   -0.0000 N   0  0  0  0  0  0  0  0  0  0  0  0
    2.2201   -0.8661   -0.0000 C   0  0  0  0  0  0  0  0  0  0  0  0
    3.1593    2.0859   -0.0000 C   0  0  0  0  0  0  0  0  0  0  0  0
    0.6099    2.9275   -0.0000 C   0  0  0  0  0  0  0  0  0  0  0  0
    3.7204   -0.5367   -0.0000 N   0  0  0  0  0  0  0  0  0  0  0  0
    1.7321   -2.3298   -0.0000 C   0  0  0  0  0  0  0  0  0  0  0  0
    4.1839    0.9515   -0.0000 C   0  0  0  0  0  0  0  0  0  0  0  0
    1.0734    4.4157   -0.0000 C   0  0  0  0  0  0  0  0  0  0  0  0
    4.7451   -1.6711   -0.0000 C   0  0  0  0  0  0  0  0  0  0  0  0
    2.7568   -3.4643   -0.0000 C   0  0  0  0  0  0  0  0  0  0  0  0
    5.6843    1.2808   -0.0000 N   0  0  0  0  0  0  0  0  0  0  0  0
    0.0244    5.5867   -0.0000 C   0  0  0  0  0  0  0  0  0  0  0  0
    2.5738    4.7451   -0.0000 C   0  0  0  0  0  0  0  0  0  0  0  0
    4.3547   -2.8422   -0.0000 O   0  0  0  0  0  0  0  0  0  0  0  0
    6.2454   -1.3418   -0.0000 C   0  0  0  0  0  0  0  0  0  0  0  0
    2.2688   -4.9280   -0.0000 C   0  0  0  0  0  0  0  0  0  0  0  0
    4.2571   -3.1227   -0.0000 C   0  0  0  0  0  0  0  0  0  0  0  0
    6.7089    0.1464   -0.0000 N   0  0  0  0  0  0  0  0  0  0  0  0
    6.1478    2.7690   -0.0000 C   0  0  0  0  0  0  0  0  0  0  0  0
   -1.5370    5.5989   -0.0000 N   0  0  0  0  0  0  0  0  0  0  0  0
    0.5001    7.0749   -0.0000 C   0  0  0  0  0  0  0  0  0  0  0  0
    3.0495    6.2332   -0.0000 C   0  0  0  0  0  0  0  0  0  0  0  0
    3.2935   -6.0624   -0.0000 C   0  0  0  0  0  0  0  0  0  0  0  0
    5.2818   -4.2571   -0.0000 C   0  0  0  0  0  0  0  0  0  0  0  0
    8.2093    0.4757   -0.0000 C   0  0  0  0  0  0  0  0  0  0  0  0
    5.3062    3.7082   -0.0000 O   0  0  0  0  0  0  0  0  0  0  0  0
    7.6482    3.0983   -0.0000 N   0  0  0  0  0  0  0  0  0  0  0  0
   -2.0249    7.0871   -0.0000 C   0  0  0  0  0  0  0  0  0  0  0  0
   -2.2810    4.6109   -0.0000 C   0  0  0  0  0  0  0  0  0  0  0  0
   -0.7563    7.9775   -0.0000 C   0  0  0  0  0  0  0  0  0  0  0  0
    2.0005    7.4042   -0.0000 C   0  0  0  0  0  0  0  0  0  0  0  0
    4.7938   -5.7209   -0.0000 C   0  0  0  0  0  0  0  0  0  0  0  0
    9.2339   -0.6587   -0.0000 C   0  0  0  0  0  0  0  0  0  0  0  0
    8.1117    4.5865   -0.0000 C   0  0  0  0  0  0  0  0  0  0  0  0
   -0.7685    9.5389   -0.0000 C   0  0  0  0  0  0  0  0  0  0  0  0
    5.6111   -6.6236   -0.0000 O   0  0  0  0  0  0  0  0  0  0  0  0
   10.4294   -0.3903   -0.0000 C   0  0  0  0  0  0  0  0  0  0  0  0
    9.6121    4.9158   -0.0000 C   0  0  0  0  0  0  0  0  0  0  0  0
    0.2928   10.1732   -0.0000 O   0  0  0  0  0  0  0  0  0  0  0  0
   -2.1225   10.3318   -0.0000 N   0  0  0  0  0  0  0  0  0  0  0  0
   10.0878    6.4040   -0.0000 C   0  0  0  0  0  0  0  0  0  0  0  0
   10.6367    3.7692   -0.0000 C   0  0  0  0  0  0  0  0  0  0  0  0
   -3.4765    9.5755   -0.0000 C   0  0  0  0  0  0  0  0  0  0  0  0
   -2.1347   11.8931   -0.0000 C   0  0  0  0  0  0  0  0  0  0  0  0
   11.5882    6.7333   -0.0000 C   0  0  0  0  0  0  0  0  0  0  0  0
   12.1371    4.0986   -0.0000 C   0  0  0  0  0  0  0  0  0  0  0  0
   -4.8304   10.3562   -0.0000 C   0  0  0  0  0  0  0  0  0  0  0  0
   -3.4887   12.6738   -0.0000 C   0  0  0  0  0  0  0  0  0  0  0  0
   12.6128    5.5867   -0.0000 C   0  0  0  0  0  0  0  0  0  0  0  0
   -4.8426   11.9175   -0.0000 N   0  0  0  0  0  0  0  0  0  0  0  0
   -6.1844    9.5999   -0.0000 C   0  0  0  0  0  0  0  0  0  0  0  0
   -6.1966   12.6982   -0.0000 C   0  0  0  0  0  0  0  0  0  0  0  0
   -7.5384   10.3806   -0.0000 N   0  0  0  0  0  0  0  0  0  0  0  0
   -7.5506   11.9419   -0.0000 C   0  0  0  0  0  0  0  0  0  0  0  0
   -8.8924    9.6121   -0.0000 C   0  0  0  0  0  0  0  0  0  0  0  0
   -9.9780   10.2464   -0.0000 O   0  0  0  0  0  0  0  0  0  0  0  0
   -8.9046    8.0751   -0.0000 O   0  0  0  0  0  0  0  0  0  0  0  0
  -10.2586    7.3067   -0.0000 C   0  0  0  0  0  0  0  0  0  0  0  0
  -10.2708    6.0746   -0.0000 C   0  0  0  0  0  0  0  0  0  0  0  0
  -11.3442    6.6967   -0.0000 C   0  0  0  0  0  0  0  0  0  0  0  0
  -11.3442    7.9410   -0.0000 C   0  0  0  0  0  0  0  0  0  0  0  0
  1  2  2  0  0  0  0
  2  3  1  0  0  0  0
  2  4  1  0  0  0  0
  3  5  1  0  0  0  0
  3  6  1  0  0  0  0
  4  7  1  0  0  0  0
  4  8  1  1  0  0  0
  5  9  1  0  0  0  0
  6 10  1  0  0  0  0
  7 11  1  0  0  0  0
  8 12  1  0  0  0  0
  9 13  1  6  0  0  0
 10 14  2  0  0  0  0
 10 15  1  0  0  0  0
 11 16  2  0  0  0  0
 11 17  1  0  0  0  0
 12 18  2  0  0  0  0
 12 19  1  0  0  0  0
 13 20  1  0  0  0  0
 13 21  1  0  0  0  0
 14 22  1  0  0  0  0
 14 23  1  0  0  0  0
 15 24  2  0  0  0  0
 18 25  1  0  0  0  0
 19 26  2  0  0  0  0
 20 27  1  0  0  0  0
 21 28  2  0  0  0  0
 21 29  1  0  0  0  0
 22 30  1  0  0  0  0
 22 31  1  0  0  0  0
 23 32  1  0  0  0  0
 23 33  2  0  0  0  0
 25 34  2  0  0  0  0
 27 35  1  0  0  0  0
 29 36  1  0  0  0  0
 32 37  1  0  0  0  0
 34 38  1  0  0  0  0
 35 39  2  0  0  0  0
 36 40  1  0  0  0  0
 37 41  2  0  0  0  0
 37 42  1  0  0  0  0
 40 43  2  0  0  0  0
 40 44  1  0  0  0  0
 42 45  1  0  0  0  0
 42 46  1  0  0  0  0
 43 47  1  0  0  0  0
 44 48  2  0  0  0  0
 45 49  1  0  0  0  0
 46 50  1  0  0  0  0
 47 51  2  0  0  0  0
 49 52  1  0  0  0  0
 49 53  1  0  0  0  0
 52 54  1  0  0  0  0
 53 55  1  0  0  0  0
 54 56  1  0  0  0  0
 55 57  1  0  0  0  0
 57 58  2  0  0  0  0
 57 59  1  0  0  0  0
 59 60  1  0  0  0  0
 60 61  1  0  0  0  0
 60 62  1  0  0  0  0
 60 63  1  0  0  0  0
  7  9  1  0  0  0  0
 17 20  1  0  0  0  0
 24 33  1  0  0  0  0
 26 34  1  0  0  0  0
 30 32  2  0  0  0  0
 48 51  1  0  0  0  0
 50 52  1  0  0  0  0
 55 56  1  0  0  0  0
M  END
>  <MolRegNo>
2036038

>  <m>
=

>  <Value>
2200

>  <Unit>
nM

>  <Type>
IC50

>  <pValue>
5.66

>  <Ligand Efficiency>
0.12

>  <Binding Efficiency>
6.58

>  <Surface Efficiency>
3.66

>  <Assay Index>
974120

>  <Assay Category>


>  <Assay Organism>
Homo sapiens

>  <Target ID>
17045

>  <Target Name>
Cytochrome P450 3A4

>  <Target Organism>
Homo sapiens

>  <Target Description>
Target is a single protein chain

>  <Sequence Accession>
P08684

>  <Reference>


>  <Pubmed ID>


>  <DOI>


$$$$
2036039
Actelion Java MolfileCreator 1.0

 58 65  0  0  1  0  0  0  0  0999 V2000
    0.0000   -0.0000   -0.0000 O   0  0  0  0  0  0  0  0  0  0  0  0
    1.1875    0.2666   -0.0000 C   0  0  0  0  0  0  0  0  0  0  0  0
    1.6480    1.7450   -0.0000 N   0  0  0  0  0  0  0  0  0  0  0  0
    2.2054   -0.8604   -0.0000 C   0  0  0  0  0  0  0  0  0  0  0  0
    3.1385    2.0721   -0.0000 C   0  0  0  0  0  0  0  0  0  0  0  0
    0.6059    2.9083   -0.0000 C   0  0  0  0  0  0  0  0  0  0  0  0
    3.6959   -0.5332   -0.0000 N   0  0  0  0  0  0  0  0  0  0  0  0
    1.7207   -2.3145   -0.0000 C   0  0  0  0  0  0  0  0  0  0  0  0
    4.1564    0.9452   -0.0000 C   0  0  0  0  0  0  0  0  0  0  0  0
    1.0664    4.3866   -0.0000 C   0  0  0  0  0  0  0  0  0  0  0  0
    4.7138   -1.6601   -0.0000 C   0  0  0  0  0  0  0  0  0  0  0  0
    2.7386   -3.4414   -0.0000 C   0  0  0  0  0  0  0  0  0  0  0  0
    5.6469    1.2724   -0.0000 N   0  0  0  0  0  0  0  0  0  0  0  0
    0.0242    5.5499   -0.0000 C   0  0  0  0  0  0  0  0  0  0  0  0
    2.5568    4.7138   -0.0000 C   0  0  0  0  0  0  0  0  0  0  0  0
    4.3260   -2.8234   -0.0000 O   0  0  0  0  0  0  0  0  0  0  0  0
    6.2043   -1.3330   -0.0000 C   0  0  0  0  0  0  0  0  0  0  0  0
    2.2539   -4.8956   -0.0000 C   0  0  0  0  0  0  0  0  0  0  0  0
    4.2291   -3.1021   -0.0000 C   0  0  0  0  0  0  0  0  0  0  0  0
    6.6648    0.1454   -0.0000 N   0  0  0  0  0  0  0  0  0  0  0  0
    6.1074    2.7507   -0.0000 C   0  0  0  0  0  0  0  0  0  0  0  0
   -1.5268    5.5621   -0.0000 N   0  0  0  0  0  0  0  0  0  0  0  0
    0.4968    7.0283   -0.0000 C   0  0  0  0  0  0  0  0  0  0  0  0
    3.0294    6.1922   -0.0000 C   0  0  0  0  0  0  0  0  0  0  0  0
    3.2718   -6.0225   -0.0000 C   0  0  0  0  0  0  0  0  0  0  0  0
    5.2470   -4.2291   -0.0000 C   0  0  0  0  0  0  0  0  0  0  0  0
    8.1553    0.4726   -0.0000 C   0  0  0  0  0  0  0  0  0  0  0  0
    5.2712    3.6838   -0.0000 O   0  0  0  0  0  0  0  0  0  0  0  0
    7.5978    3.0779   -0.0000 N   0  0  0  0  0  0  0  0  0  0  0  0
   -2.0115    7.0404   -0.0000 C   0  0  0  0  0  0  0  0  0  0  0  0
   -2.2660    4.5805   -0.0000 C   0  0  0  0  0  0  0  0  0  0  0  0
   -0.7513    7.9250   -0.0000 C   0  0  0  0  0  0  0  0  0  0  0  0
    1.9873    7.3555   -0.0000 C   0  0  0  0  0  0  0  0  0  0  0  0
    4.7623   -5.6832   -0.0000 C   0  0  0  0  0  0  0  0  0  0  0  0
    9.1732   -0.6544   -0.0000 C   0  0  0  0  0  0  0  0  0  0  0  0
    8.0583    4.5563   -0.0000 C   0  0  0  0  0  0  0  0  0  0  0  0
   -0.7634    9.4761   -0.0000 C   0  0  0  0  0  0  0  0  0  0  0  0
    5.5742   -6.5799   -0.0000 O   0  0  0  0  0  0  0  0  0  0  0  0
   10.3607   -0.3878   -0.0000 C   0  0  0  0  0  0  0  0  0  0  0  0
    9.5488    4.8835   -0.0000 C   0  0  0  0  0  0  0  0  0  0  0  0
    0.2908   10.1062   -0.0000 O   0  0  0  0  0  0  0  0  0  0  0  0
   -2.1085   10.2638   -0.0000 N   0  0  0  0  0  0  0  0  0  0  0  0
   10.0214    6.3618   -0.0000 C   0  0  0  0  0  0  0  0  0  0  0  0
   10.5667    3.7444   -0.0000 C   0  0  0  0  0  0  0  0  0  0  0  0
   -3.4536    9.5124   -0.0000 C   0  0  0  0  0  0  0  0  0  0  0  0
   -2.1206   11.8148   -0.0000 C   0  0  0  0  0  0  0  0  0  0  0  0
   11.5119    6.6890   -0.0000 C   0  0  0  0  0  0  0  0  0  0  0  0
   12.0572    4.0716   -0.0000 C   0  0  0  0  0  0  0  0  0  0  0  0
   -4.7986   10.2880   -0.0000 C   0  0  0  0  0  0  0  0  0  0  0  0
   -3.4657   12.5904   -0.0000 C   0  0  0  0  0  0  0  0  0  0  0  0
   12.5298    5.5499   -0.0000 C   0  0  0  0  0  0  0  0  0  0  0  0
   -4.8108   11.8391   -0.0000 N   0  0  0  0  0  0  0  0  0  0  0  0
   -6.1437    9.5367   -0.0000 C   0  0  0  0  0  0  0  0  0  0  0  0
   -6.1558   12.6146   -0.0000 C   0  0  0  0  0  0  0  0  0  0  0  0
   -7.4888   10.3122   -0.0000 N   0  0  0  0  0  0  0  0  0  0  0  0
   -7.5009   11.8633   -0.0000 C   0  0  0  0  0  0  0  0  0  0  0  0
   -8.8339    9.5488   -0.0000 C   0  0  0  0  0  0  0  0  0  0  0  0
   -8.8460    8.3249   -0.0000 O   0  0  0  0  0  0  0  0  0  0  0  0
  1  2  2  0  0  0  0
  2  3  1  0  0  0  0
  2  4  1  0  0  0  0
  3  5  1  0  0  0  0
  3  6  1  0  0  0  0
  4  7  1  0  0  0  0
  4  8  1  1  0  0  0
  5  9  1  0  0  0  0
  6 10  1  0  0  0  0
  7 11  1  0  0  0  0
  8 12  1  0  0  0  0
  9 13  1  6  0  0  0
 10 14  2  0  0  0  0
 10 15  1  0  0  0  0
 11 16  2  0  0  0  0
 11 17  1  0  0  0  0
 12 18  2  0  0  0  0
 12 19  1  0  0  0  0
 13 20  1  0  0  0  0
 13 21  1  0  0  0  0
 14 22  1  0  0  0  0
 14 23  1  0  0  0  0
 15 24  2  0  0  0  0
 18 25  1  0  0  0  0
 19 26  2  0  0  0  0
 20 27  1  0  0  0  0
 21 28  2  0  0  0  0
 21 29  1  0  0  0  0
 22 30  1  0  0  0  0
 22 31  1  0  0  0  0
 23 32  1  0  0  0  0
 23 33  2  0  0  0  0
 25 34  2  0  0  0  0
 27 35  1  0  0  0  0
 29 36  1  0  0  0  0
 32 37  1  0  0  0  0
 34 38  1  0  0  0  0
 35 39  2  0  0  0  0
 36 40  1  0  0  0  0
 37 41  2  0  0  0  0
 37 42  1  0  0  0  0
 40 43  2  0  0  0  0
 40 44  1  0  0  0  0
 42 45  1  0  0  0  0
 42 46  1  0  0  0  0
 43 47  1  0  0  0  0
 44 48  2  0  0  0  0
 45 49  1  0  0  0  0
 46 50  1  0  0  0  0
 47 51  2  0  0  0  0
 49 52  1  0  0  0  0
 49 53  1  0  0  0  0
 52 54  1  0  0  0  0
 53 55  1  0  0  0  0
 54 56  1  0  0  0  0
 55 57  1  0  0  0  0
 57 58  2  0  0  0  0
  7  9  1  0  0  0  0
 17 20  1  0  0  0  0
 24 33  1  0  0  0  0
 26 34  1  0  0  0  0
 30 32  2  0  0  0  0
 48 51  1  0  0  0  0
 50 52  1  0  0  0  0
 55 56  1  0  0  0  0
M  END
>  <MolRegNo>
2036039

>  <m>
=

>  <Value>
12100

>  <Unit>
nM

>  <Type>
IC50

>  <pValue>
4.92

>  <Ligand Efficiency>
0.12

>  <Binding Efficiency>
6.24

>  <Surface Efficiency>
3.39

>  <Assay Index>
974120

>  <Assay Category>


>  <Assay Organism>
Homo sapiens

>  <Target ID>
17045

>  <Target Name>
Cytochrome P450 3A4

>  <Target Organism>
Homo sapiens

>  <Target Description>
Target is a single protein chain

>  <Sequence Accession>
P08684

>  <Reference>


>  <Pubmed ID>


>  <DOI>


$$$$
2036040
Actelion Java MolfileCreator 1.0

 58 65  0  0  1  0  0  0  0  0999 V2000
    0.0000   -0.0000   -0.0000 O   0  0  0  0  0  0  0  0  0  0  0  0
   -1.2086    0.2659   -0.0000 C   0  0  0  0  0  0  0  0  0  0  0  0
   -1.6920    1.7403   -0.0000 N   0  0  0  0  0  0  0  0  0  0  0  0
   -2.2479   -0.8581   -0.0000 C   0  0  0  0  0  0  0  0  0  0  0  0
   -3.2027    2.0666   -0.0000 C   0  0  0  0  0  0  0  0  0  0  0  0
   -0.6768    2.9005   -0.0000 C   0  0  0  0  0  0  0  0  0  0  0  0
   -3.7586   -0.5318   -0.0000 N   0  0  0  0  0  0  0  0  0  0  0  0
   -1.7887   -2.3083   -0.0000 C   0  0  0  0  0  0  0  0  0  0  0  0
   -4.2420    0.9427   -0.0000 C   0  0  0  0  0  0  0  0  0  0  0  0
   -1.1602    4.3750   -0.0000 C   0  0  0  0  0  0  0  0  0  0  0  0
   -4.7980   -1.6557   -0.0000 C   0  0  0  0  0  0  0  0  0  0  0  0
   -2.8280   -3.4323   -0.0000 C   0  0  0  0  0  0  0  0  0  0  0  0
   -5.7527    1.2690   -0.0000 N   0  0  0  0  0  0  0  0  0  0  0  0
   -0.1450    5.5352   -0.0000 C   0  0  0  0  0  0  0  0  0  0  0  0
   -2.6709    4.7013   -0.0000 C   0  0  0  0  0  0  0  0  0  0  0  0
   -4.4354   -2.8159   -0.0000 O   0  0  0  0  0  0  0  0  0  0  0  0
   -6.3086   -1.3294   -0.0000 C   0  0  0  0  0  0  0  0  0  0  0  0
   -2.3688   -4.8825   -0.0000 C   0  0  0  0  0  0  0  0  0  0  0  0
   -4.3387   -3.0939   -0.0000 C   0  0  0  0  0  0  0  0  0  0  0  0
   -6.7921    0.1450   -0.0000 N   0  0  0  0  0  0  0  0  0  0  0  0
   -6.2361    2.7434   -0.0000 C   0  0  0  0  0  0  0  0  0  0  0  0
    1.3777    5.5473   -0.0000 N   0  0  0  0  0  0  0  0  0  0  0  0
   -0.6405    7.0096   -0.0000 C   0  0  0  0  0  0  0  0  0  0  0  0
   -3.1664    6.1757   -0.0000 C   0  0  0  0  0  0  0  0  0  0  0  0
   -3.4081   -6.0065   -0.0000 C   0  0  0  0  0  0  0  0  0  0  0  0
   -5.3781   -4.2178   -0.0000 C   0  0  0  0  0  0  0  0  0  0  0  0
   -8.3028    0.4713   -0.0000 C   0  0  0  0  0  0  0  0  0  0  0  0
   -5.4264    3.6740   -0.0000 O   0  0  0  0  0  0  0  0  0  0  0  0
   -7.7468    3.0697   -0.0000 N   0  0  0  0  0  0  0  0  0  0  0  0
    1.8370    7.0217   -0.0000 C   0  0  0  0  0  0  0  0  0  0  0  0
    2.0908    4.5683   -0.0000 C   0  0  0  0  0  0  0  0  0  0  0  0
    0.5801    7.9039   -0.0000 C   0  0  0  0  0  0  0  0  0  0  0  0
   -2.1512    7.3359   -0.0000 C   0  0  0  0  0  0  0  0  0  0  0  0
   -4.9188   -5.6681   -0.0000 C   0  0  0  0  0  0  0  0  0  0  0  0
   -9.3421   -0.6526   -0.0000 C   0  0  0  0  0  0  0  0  0  0  0  0
   -8.2302    4.5442   -0.0000 C   0  0  0  0  0  0  0  0  0  0  0  0
    0.5680    9.4509   -0.0000 C   0  0  0  0  0  0  0  0  0  0  0  0
   -5.7527   -6.5624   -0.0000 O   0  0  0  0  0  0  0  0  0  0  0  0
  -10.5507   -0.3867   -0.0000 C   0  0  0  0  0  0  0  0  0  0  0  0
   -9.7409    4.8705   -0.0000 C   0  0  0  0  0  0  0  0  0  0  0  0
   -0.5076   10.0793   -0.0000 O   0  0  0  0  0  0  0  0  0  0  0  0
    1.8853   10.2364   -0.0000 N   0  0  0  0  0  0  0  0  0  0  0  0
  -10.2364    6.3449   -0.0000 C   0  0  0  0  0  0  0  0  0  0  0  0
  -10.7803    3.7344   -0.0000 C   0  0  0  0  0  0  0  0  0  0  0  0
    3.2027    9.4871   -0.0000 C   0  0  0  0  0  0  0  0  0  0  0  0
    1.8733   11.7834   -0.0000 C   0  0  0  0  0  0  0  0  0  0  0  0
  -11.7471    6.6712   -0.0000 C   0  0  0  0  0  0  0  0  0  0  0  0
  -12.2910    4.0607   -0.0000 C   0  0  0  0  0  0  0  0  0  0  0  0
    4.5200   10.2606   -0.0000 C   0  0  0  0  0  0  0  0  0  0  0  0
    3.1906   12.5569   -0.0000 C   0  0  0  0  0  0  0  0  0  0  0  0
  -12.7865    5.5352   -0.0000 C   0  0  0  0  0  0  0  0  0  0  0  0
    4.5079   11.8076   -0.0000 N   0  0  0  0  0  0  0  0  0  0  0  0
    5.8373    9.5113   -0.0000 C   0  0  0  0  0  0  0  0  0  0  0  0
    5.8252   12.5810   -0.0000 C   0  0  0  0  0  0  0  0  0  0  0  0
    7.1546   10.2848   -0.0000 N   0  0  0  0  0  0  0  0  0  0  0  0
    7.1425   11.8317   -0.0000 C   0  0  0  0  0  0  0  0  0  0  0  0
    8.4719    9.5234   -0.0000 C   0  0  0  0  0  0  0  0  0  0  0  0
    8.4599    8.3028   -0.0000 C   0  0  0  0  0  0  0  0  0  0  0  0
  1  2  2  0  0  0  0
  2  3  1  0  0  0  0
  2  4  1  0  0  0  0
  3  5  1  0  0  0  0
  3  6  1  0  0  0  0
  4  7  1  0  0  0  0
  4  8  1  6  0  0  0
  5  9  1  0  0  0  0
  6 10  1  0  0  0  0
  7 11  1  0  0  0  0
  8 12  1  0  0  0  0
  9 13  1  1  0  0  0
 10 14  2  0  0  0  0
 10 15  1  0  0  0  0
 11 16  2  0  0  0  0
 11 17  1  0  0  0  0
 12 18  2  0  0  0  0
 12 19  1  0  0  0  0
 13 20  1  0  0  0  0
 13 21  1  0  0  0  0
 14 22  1  0  0  0  0
 14 23  1  0  0  0  0
 15 24  2  0  0  0  0
 18 25  1  0  0  0  0
 19 26  2  0  0  0  0
 20 27  1  0  0  0  0
 21 28  2  0  0  0  0
 21 29  1  0  0  0  0
 22 30  1  0  0  0  0
 22 31  1  0  0  0  0
 23 32  1  0  0  0  0
 23 33  2  0  0  0  0
 25 34  2  0  0  0  0
 27 35  1  0  0  0  0
 29 36  1  0  0  0  0
 32 37  1  0  0  0  0
 34 38  1  0  0  0  0
 35 39  2  0  0  0  0
 36 40  1  0  0  0  0
 37 41  2  0  0  0  0
 37 42  1  0  0  0  0
 40 43  2  0  0  0  0
 40 44  1  0  0  0  0
 42 45  1  0  0  0  0
 42 46  1  0  0  0  0
 43 47  1  0  0  0  0
 44 48  2  0  0  0  0
 45 49  1  0  0  0  0
 46 50  1  0  0  0  0
 47 51  2  0  0  0  0
 49 52  1  0  0  0  0
 49 53  1  0  0  0  0
 52 54  1  0  0  0  0
 53 55  1  0  0  0  0
 54 56  1  0  0  0  0
 55 57  1  0  0  0  0
 57 58  1  0  0  0  0
  7  9  1  0  0  0  0
 17 20  1  0  0  0  0
 24 33  1  0  0  0  0
 26 34  1  0  0  0  0
 30 32  2  0  0  0  0
 48 51  1  0  0  0  0
 50 52  1  0  0  0  0
 55 56  1  0  0  0  0
M  END
>  <MolRegNo>
2036040

>  <m>
=

>  <Value>
5040

>  <Unit>
nM

>  <Type>
IC50

>  <pValue>
5.3

>  <Ligand Efficiency>
0.12

>  <Binding Efficiency>
6.72

>  <Surface Efficiency>
4.13

>  <Assay Index>
974120

>  <Assay Category>


>  <Assay Organism>
Homo sapiens

>  <Target ID>
17045

>  <Target Name>
Cytochrome P450 3A4

>  <Target Organism>
Homo sapiens

>  <Target Description>
Target is a single protein chain

>  <Sequence Accession>
P08684

>  <Reference>


>  <Pubmed ID>


>  <DOI>


$$$$
2036041
Actelion Java MolfileCreator 1.0

 53 59  0  0  1  0  0  0  0  0999 V2000
    0.0000   -0.0000   -0.0000 O   0  0  0  0  0  0  0  0  0  0  0  0
   -0.0121    1.2488   -0.0000 C   0  0  0  0  0  0  0  0  0  0  0  0
    1.3095    2.0248   -0.0000 N   0  0  0  0  0  0  0  0  0  0  0  0
   -1.3580    2.0248   -0.0000 C   0  0  0  0  0  0  0  0  0  0  0  0
    1.2973    3.5768   -0.0000 C   0  0  0  0  0  0  0  0  0  0  0  0
    2.6310    1.2731   -0.0000 C   0  0  0  0  0  0  0  0  0  0  0  0
   -1.3701    3.5768   -0.0000 N   0  0  0  0  0  0  0  0  0  0  0  0
   -2.7038    1.2731   -0.0000 C   0  0  0  0  0  0  0  0  0  0  0  0
   -0.0485    4.3527   -0.0000 C   0  0  0  0  0  0  0  0  0  0  0  0
    3.9526    2.0612   -0.0000 C   0  0  0  0  0  0  0  0  0  0  0  0
   -2.7159    4.3527   -0.0000 C   0  0  0  0  0  0  0  0  0  0  0  0
   -4.0496    2.0612   -0.0000 C   0  0  0  0  0  0  0  0  0  0  0  0
   -0.0606    5.9047   -0.0000 N   0  0  0  0  0  0  0  0  0  0  0  0
    5.2742    1.3095   -0.0000 C   0  0  0  0  0  0  0  0  0  0  0  0
    3.9405    3.6131   -0.0000 C   0  0  0  0  0  0  0  0  0  0  0  0
   -3.7950    3.7465   -0.0000 O   0  0  0  0  0  0  0  0  0  0  0  0
   -2.7280    5.9047   -0.0000 C   0  0  0  0  0  0  0  0  0  0  0  0
   -5.3955    1.3095   -0.0000 C   0  0  0  0  0  0  0  0  0  0  0  0
   -4.0617    3.6131   -0.0000 C   0  0  0  0  0  0  0  0  0  0  0  0
   -1.4065    6.6807   -0.0000 N   0  0  0  0  0  0  0  0  0  0  0  0
    1.2610    6.6928   -0.0000 C   0  0  0  0  0  0  0  0  0  0  0  0
    5.5894   -0.1819   -0.0000 N   0  0  0  0  0  0  0  0  0  0  0  0
    6.5958    2.0976   -0.0000 C   0  0  0  0  0  0  0  0  0  0  0  0
    5.2621    4.4012   -0.0000 C   0  0  0  0  0  0  0  0  0  0  0  0
   -6.7413    2.0976   -0.0000 C   0  0  0  0  0  0  0  0  0  0  0  0
   -5.4076    4.4012   -0.0000 C   0  0  0  0  0  0  0  0  0  0  0  0
   -1.4186    8.2326   -0.0000 C   0  0  0  0  0  0  0  0  0  0  0  0
    2.3158    6.0866   -0.0000 O   0  0  0  0  0  0  0  0  0  0  0  0
    1.2488    8.2447   -0.0000 N   0  0  0  0  0  0  0  0  0  0  0  0
    7.1050   -0.3274   -0.0000 C   0  0  0  0  0  0  0  0  0  0  0  0
    4.7528   -1.0912   -0.0000 C   0  0  0  0  0  0  0  0  0  0  0  0
    7.7355    1.0791   -0.0000 C   0  0  0  0  0  0  0  0  0  0  0  0
    6.5837    3.6495   -0.0000 C   0  0  0  0  0  0  0  0  0  0  0  0
   -6.7534    3.6495   -0.0000 C   0  0  0  0  0  0  0  0  0  0  0  0
   -2.7644    9.0086   -0.0000 C   0  0  0  0  0  0  0  0  0  0  0  0
    2.5704    9.0328   -0.0000 C   0  0  0  0  0  0  0  0  0  0  0  0
    9.2268    1.4186   -0.0000 C   0  0  0  0  0  0  0  0  0  0  0  0
   -7.8325    4.2800   -0.0000 O   0  0  0  0  0  0  0  0  0  0  0  0
   -2.7765   10.2574   -0.0000 C   0  0  0  0  0  0  0  0  0  0  0  0
    2.5583   10.5848   -0.0000 C   0  0  0  0  0  0  0  0  0  0  0  0
    9.5906    2.6068   -0.0000 O   0  0  0  0  0  0  0  0  0  0  0  0
   10.2453    0.2910   -0.0000 N   0  0  0  0  0  0  0  0  0  0  0  0
    3.8799   11.3729   -0.0000 C   0  0  0  0  0  0  0  0  0  0  0  0
    1.2125   11.3608   -0.0000 C   0  0  0  0  0  0  0  0  0  0  0  0
   11.7366    0.6184   -0.0000 C   0  0  0  0  0  0  0  0  0  0  0  0
    9.7603   -1.1640   -0.0000 C   0  0  0  0  0  0  0  0  0  0  0  0
    3.8678   12.9248   -0.0000 C   0  0  0  0  0  0  0  0  0  0  0  0
    1.2003   12.9127   -0.0000 C   0  0  0  0  0  0  0  0  0  0  0  0
   12.7551   -0.5092   -0.0000 C   0  0  0  0  0  0  0  0  0  0  0  0
   10.7788   -2.2916   -0.0000 C   0  0  0  0  0  0  0  0  0  0  0  0
    2.5219   13.7008   -0.0000 C   0  0  0  0  0  0  0  0  0  0  0  0
   12.2701   -1.9642   -0.0000 C   0  0  0  0  0  0  0  0  0  0  0  0
   13.0825   -2.8614   -0.0000 O   0  0  0  0  0  0  0  0  0  0  0  0
  1  2  2  0  0  0  0
  2  3  1  0  0  0  0
  2  4  1  0  0  0  0
  3  5  1  0  0  0  0
  3  6  1  0  0  0  0
  4  7  1  0  0  0  0
  4  8  1  6  0  0  0
  5  9  1  0  0  0  0
  6 10  1  0  0  0  0
  7 11  1  0  0  0  0
  8 12  1  0  0  0  0
  9 13  1  1  0  0  0
 10 14  2  0  0  0  0
 10 15  1  0  0  0  0
 11 16  2  0  0  0  0
 11 17  1  0  0  0  0
 12 18  2  0  0  0  0
 12 19  1  0  0  0  0
 13 20  1  0  0  0  0
 13 21  1  0  0  0  0
 14 22  1  0  0  0  0
 14 23  1  0  0  0  0
 15 24  2  0  0  0  0
 18 25  1  0  0  0  0
 19 26  2  0  0  0  0
 20 27  1  0  0  0  0
 21 28  2  0  0  0  0
 21 29  1  0  0  0  0
 22 30  1  0  0  0  0
 22 31  1  0  0  0  0
 23 32  1  0  0  0  0
 23 33  2  0  0  0  0
 25 34  2  0  0  0  0
 27 35  1  0  0  0  0
 29 36  1  0  0  0  0
 32 37  1  0  0  0  0
 34 38  1  0  0  0  0
 35 39  2  0  0  0  0
 36 40  1  0  0  0  0
 37 41  2  0  0  0  0
 37 42  1  0  0  0  0
 40 43  2  0  0  0  0
 40 44  1  0  0  0  0
 42 45  1  0  0  0  0
 42 46  1  0  0  0  0
 43 47  1  0  0  0  0
 44 48  2  0  0  0  0
 45 49  1  0  0  0  0
 46 50  1  0  0  0  0
 47 51  2  0  0  0  0
 49 52  1  0  0  0  0
 52 53  1  0  0  0  0
  7  9  1  0  0  0  0
 17 20  1  0  0  0  0
 24 33  1  0  0  0  0
 26 34  1  0  0  0  0
 30 32  2  0  0  0  0
 48 51  1  0  0  0  0
 50 52  1  0  0  0  0
M  END
>  <MolRegNo>
2036041

>  <m>
=

>  <Value>
10700

>  <Unit>
nM

>  <Type>
IC50

>  <pValue>
4.97

>  <Ligand Efficiency>
0.13

>  <Binding Efficiency>
6.91

>  <Surface Efficiency>
3.5

>  <Assay Index>
974120

>  <Assay Category>


>  <Assay Organism>
Homo sapiens

>  <Target ID>
17045

>  <Target Name>
Cytochrome P450 3A4

>  <Target Organism>
Homo sapiens

>  <Target Description>
Target is a single protein chain

>  <Sequence Accession>
P08684

>  <Reference>


>  <Pubmed ID>


>  <DOI>


$$$$
2036042
Actelion Java MolfileCreator 1.0

 54 60  0  0  1  0  0  0  0  0999 V2000
    0.0000   -0.0000   -0.0000 O   0  0  0  0  0  0  0  0  0  0  0  0
   -0.0121    1.2482   -0.0000 C   0  0  0  0  0  0  0  0  0  0  0  0
    1.3087    2.0237   -0.0000 N   0  0  0  0  0  0  0  0  0  0  0  0
   -1.3572    2.0237   -0.0000 C   0  0  0  0  0  0  0  0  0  0  0  0
    1.2966    3.5748   -0.0000 C   0  0  0  0  0  0  0  0  0  0  0  0
    2.6296    1.2724   -0.0000 C   0  0  0  0  0  0  0  0  0  0  0  0
   -1.3693    3.5748   -0.0000 N   0  0  0  0  0  0  0  0  0  0  0  0
   -2.7023    1.2724   -0.0000 C   0  0  0  0  0  0  0  0  0  0  0  0
   -0.0485    4.3504   -0.0000 C   0  0  0  0  0  0  0  0  0  0  0  0
    3.9505    2.0601   -0.0000 C   0  0  0  0  0  0  0  0  0  0  0  0
   -2.7144    4.3504   -0.0000 C   0  0  0  0  0  0  0  0  0  0  0  0
   -4.0474    2.0601   -0.0000 C   0  0  0  0  0  0  0  0  0  0  0  0
   -0.0606    5.9015   -0.0000 N   0  0  0  0  0  0  0  0  0  0  0  0
    5.2713    1.3087   -0.0000 C   0  0  0  0  0  0  0  0  0  0  0  0
    3.9384    3.6112   -0.0000 C   0  0  0  0  0  0  0  0  0  0  0  0
   -3.7929    3.7445   -0.0000 O   0  0  0  0  0  0  0  0  0  0  0  0
   -2.7266    5.9015   -0.0000 C   0  0  0  0  0  0  0  0  0  0  0  0
   -5.3925    1.3087   -0.0000 C   0  0  0  0  0  0  0  0  0  0  0  0
   -4.0595    3.6112   -0.0000 C   0  0  0  0  0  0  0  0  0  0  0  0
   -1.4057    6.6770   -0.0000 N   0  0  0  0  0  0  0  0  0  0  0  0
    1.2603    6.6892   -0.0000 C   0  0  0  0  0  0  0  0  0  0  0  0
    5.5864   -0.1818   -0.0000 N   0  0  0  0  0  0  0  0  0  0  0  0
    6.5922    2.0964   -0.0000 C   0  0  0  0  0  0  0  0  0  0  0  0
    5.2592    4.3988   -0.0000 C   0  0  0  0  0  0  0  0  0  0  0  0
   -6.7376    2.0964   -0.0000 C   0  0  0  0  0  0  0  0  0  0  0  0
   -5.4046    4.3988   -0.0000 C   0  0  0  0  0  0  0  0  0  0  0  0
   -1.4178    8.2281   -0.0000 C   0  0  0  0  0  0  0  0  0  0  0  0
    2.3145    6.0832   -0.0000 O   0  0  0  0  0  0  0  0  0  0  0  0
    1.2482    8.2403   -0.0000 N   0  0  0  0  0  0  0  0  0  0  0  0
    7.1012   -0.3272   -0.0000 C   0  0  0  0  0  0  0  0  0  0  0  0
    4.7503   -1.0906   -0.0000 C   0  0  0  0  0  0  0  0  0  0  0  0
    7.7313    1.0785   -0.0000 C   0  0  0  0  0  0  0  0  0  0  0  0
    6.5801    3.6475   -0.0000 C   0  0  0  0  0  0  0  0  0  0  0  0
   -6.7497    3.6475   -0.0000 C   0  0  0  0  0  0  0  0  0  0  0  0
   -2.7629    9.0037   -0.0000 C   0  0  0  0  0  0  0  0  0  0  0  0
    2.5690    9.0279   -0.0000 C   0  0  0  0  0  0  0  0  0  0  0  0
    9.2218    1.4178   -0.0000 C   0  0  0  0  0  0  0  0  0  0  0  0
   -7.8282    4.2777   -0.0000 O   0  0  0  0  0  0  0  0  0  0  0  0
   -2.7750   10.2519   -0.0000 C   0  0  0  0  0  0  0  0  0  0  0  0
    2.5569   10.5790   -0.0000 C   0  0  0  0  0  0  0  0  0  0  0  0
    9.5854    2.6054   -0.0000 O   0  0  0  0  0  0  0  0  0  0  0  0
   10.2397    0.2908   -0.0000 N   0  0  0  0  0  0  0  0  0  0  0  0
    3.8778   11.3667   -0.0000 C   0  0  0  0  0  0  0  0  0  0  0  0
    1.2118   11.3546   -0.0000 C   0  0  0  0  0  0  0  0  0  0  0  0
   11.7303    0.6180   -0.0000 C   0  0  0  0  0  0  0  0  0  0  0  0
    9.7550   -1.1633   -0.0000 C   0  0  0  0  0  0  0  0  0  0  0  0
    3.8657   12.9178   -0.0000 C   0  0  0  0  0  0  0  0  0  0  0  0
    1.1997   12.9057   -0.0000 C   0  0  0  0  0  0  0  0  0  0  0  0
   12.7482   -0.5090   -0.0000 C   0  0  0  0  0  0  0  0  0  0  0  0
   10.7729   -2.2903   -0.0000 C   0  0  0  0  0  0  0  0  0  0  0  0
    2.5205   13.6934   -0.0000 C   0  0  0  0  0  0  0  0  0  0  0  0
   12.2634   -1.9631   -0.0000 C   0  0  0  0  0  0  0  0  0  0  0  0
   13.2814   -3.1022   -0.0000 O   0  0  0  0  0  0  0  0  0  0  0  0
   12.8815   -4.2655   -0.0000 C   0  0  0  0  0  0  0  0  0  0  0  0
  1  2  2  0  0  0  0
  2  3  1  0  0  0  0
  2  4  1  0  0  0  0
  3  5  1  0  0  0  0
  3  6  1  0  0  0  0
  4  7  1  0  0  0  0
  4  8  1  6  0  0  0
  5  9  1  0  0  0  0
  6 10  1  0  0  0  0
  7 11  1  0  0  0  0
  8 12  1  0  0  0  0
  9 13  1  1  0  0  0
 10 14  2  0  0  0  0
 10 15  1  0  0  0  0
 11 16  2  0  0  0  0
 11 17  1  0  0  0  0
 12 18  2  0  0  0  0
 12 19  1  0  0  0  0
 13 20  1  0  0  0  0
 13 21  1  0  0  0  0
 14 22  1  0  0  0  0
 14 23  1  0  0  0  0
 15 24  2  0  0  0  0
 18 25  1  0  0  0  0
 19 26  2  0  0  0  0
 20 27  1  0  0  0  0
 21 28  2  0  0  0  0
 21 29  1  0  0  0  0
 22 30  1  0  0  0  0
 22 31  1  0  0  0  0
 23 32  1  0  0  0  0
 23 33  2  0  0  0  0
 25 34  2  0  0  0  0
 27 35  1  0  0  0  0
 29 36  1  0  0  0  0
 32 37  1  0  0  0  0
 34 38  1  0  0  0  0
 35 39  2  0  0  0  0
 36 40  1  0  0  0  0
 37 41  2  0  0  0  0
 37 42  1  0  0  0  0
 40 43  2  0  0  0  0
 40 44  1  0  0  0  0
 42 45  1  0  0  0  0
 42 46  1  0  0  0  0
 43 47  1  0  0  0  0
 44 48  2  0  0  0  0
 45 49  1  0  0  0  0
 46 50  1  0  0  0  0
 47 51  2  0  0  0  0
 49 52  1  0  0  0  0
 52 53  1  0  0  0  0
 53 54  1  0  0  0  0
  7  9  1  0  0  0  0
 17 20  1  0  0  0  0
 24 33  1  0  0  0  0
 26 34  1  0  0  0  0
 30 32  2  0  0  0  0
 48 51  1  0  0  0  0
 50 52  1  0  0  0  0
M  END
>  <MolRegNo>
2036042

>  <m>
=

>  <Value>
3300

>  <Unit>
nM

>  <Type>
IC50

>  <pValue>
5.48

>  <Ligand Efficiency>
0.14

>  <Binding Efficiency>
7.47

>  <Surface Efficiency>
4.19

>  <Assay Index>
974120

>  <Assay Category>


>  <Assay Organism>
Homo sapiens

>  <Target ID>
17045

>  <Target Name>
Cytochrome P450 3A4

>  <Target Organism>
Homo sapiens

>  <Target Description>
Target is a single protein chain

>  <Sequence Accession>
P08684

>  <Reference>


>  <Pubmed ID>


>  <DOI>


$$$$
2036043
Actelion Java MolfileCreator 1.0

 57 63  0  0  1  0  0  0  0  0999 V2000
    0.0000   -0.0000   -0.0000 O   0  0  0  0  0  0  0  0  0  0  0  0
   -0.0121    1.2511   -0.0000 C   0  0  0  0  0  0  0  0  0  0  0  0
    1.3118    2.0285   -0.0000 N   0  0  0  0  0  0  0  0  0  0  0  0
   -1.3604    2.0285   -0.0000 C   0  0  0  0  0  0  0  0  0  0  0  0
    1.2997    3.5833   -0.0000 C   0  0  0  0  0  0  0  0  0  0  0  0
    2.6358    1.2754   -0.0000 C   0  0  0  0  0  0  0  0  0  0  0  0
   -1.3726    3.5833   -0.0000 N   0  0  0  0  0  0  0  0  0  0  0  0
   -2.7087    1.2754   -0.0000 C   0  0  0  0  0  0  0  0  0  0  0  0
   -0.0486    4.3606   -0.0000 C   0  0  0  0  0  0  0  0  0  0  0  0
    3.9598    2.0649   -0.0000 C   0  0  0  0  0  0  0  0  0  0  0  0
   -2.7208    4.3606   -0.0000 C   0  0  0  0  0  0  0  0  0  0  0  0
   -4.0570    2.0649   -0.0000 C   0  0  0  0  0  0  0  0  0  0  0  0
   -0.0607    5.9154   -0.0000 N   0  0  0  0  0  0  0  0  0  0  0  0
    5.2838    1.3118   -0.0000 C   0  0  0  0  0  0  0  0  0  0  0  0
    3.9476    3.6197   -0.0000 C   0  0  0  0  0  0  0  0  0  0  0  0
   -3.8019    3.7533   -0.0000 O   0  0  0  0  0  0  0  0  0  0  0  0
   -2.7330    5.9154   -0.0000 C   0  0  0  0  0  0  0  0  0  0  0  0
   -5.4052    1.3118   -0.0000 C   0  0  0  0  0  0  0  0  0  0  0  0
   -4.0691    3.6197   -0.0000 C   0  0  0  0  0  0  0  0  0  0  0  0
   -1.4090    6.6928   -0.0000 N   0  0  0  0  0  0  0  0  0  0  0  0
    1.2632    6.7049   -0.0000 C   0  0  0  0  0  0  0  0  0  0  0  0
    5.5996   -0.1822   -0.0000 N   0  0  0  0  0  0  0  0  0  0  0  0
    6.6078    2.1014   -0.0000 C   0  0  0  0  0  0  0  0  0  0  0  0
    5.2716    4.4092   -0.0000 C   0  0  0  0  0  0  0  0  0  0  0  0
   -6.7535    2.1014   -0.0000 C   0  0  0  0  0  0  0  0  0  0  0  0
   -5.4174    4.4092   -0.0000 C   0  0  0  0  0  0  0  0  0  0  0  0
   -1.4212    8.2476   -0.0000 C   0  0  0  0  0  0  0  0  0  0  0  0
    2.3200    6.0976   -0.0000 O   0  0  0  0  0  0  0  0  0  0  0  0
    1.2511    8.2597   -0.0000 N   0  0  0  0  0  0  0  0  0  0  0  0
    7.1179   -0.3280   -0.0000 C   0  0  0  0  0  0  0  0  0  0  0  0
    4.7615   -1.0932   -0.0000 C   0  0  0  0  0  0  0  0  0  0  0  0
    7.7495    1.0810   -0.0000 C   0  0  0  0  0  0  0  0  0  0  0  0
    6.5956    3.6561   -0.0000 C   0  0  0  0  0  0  0  0  0  0  0  0
   -6.7657    3.6561   -0.0000 C   0  0  0  0  0  0  0  0  0  0  0  0
   -2.7694    9.0249   -0.0000 C   0  0  0  0  0  0  0  0  0  0  0  0
    2.5751    9.0492   -0.0000 C   0  0  0  0  0  0  0  0  0  0  0  0
    9.2436    1.4212   -0.0000 C   0  0  0  0  0  0  0  0  0  0  0  0
   -7.8467    4.2878   -0.0000 O   0  0  0  0  0  0  0  0  0  0  0  0
   -2.7816   10.2760   -0.0000 C   0  0  0  0  0  0  0  0  0  0  0  0
    2.5629   10.6040   -0.0000 C   0  0  0  0  0  0  0  0  0  0  0  0
    9.6080    2.6115   -0.0000 O   0  0  0  0  0  0  0  0  0  0  0  0
   10.2639    0.2915   -0.0000 N   0  0  0  0  0  0  0  0  0  0  0  0
    3.8869   11.3935   -0.0000 C   0  0  0  0  0  0  0  0  0  0  0  0
    1.2147   11.3814   -0.0000 C   0  0  0  0  0  0  0  0  0  0  0  0
   11.7579    0.6195   -0.0000 C   0  0  0  0  0  0  0  0  0  0  0  0
    9.7780   -1.1661   -0.0000 C   0  0  0  0  0  0  0  0  0  0  0  0
    3.8748   12.9483   -0.0000 C   0  0  0  0  0  0  0  0  0  0  0  0
    1.2025   12.9361   -0.0000 C   0  0  0  0  0  0  0  0  0  0  0  0
   12.7782   -0.5102   -0.0000 C   0  0  0  0  0  0  0  0  0  0  0  0
   10.7983   -2.2957   -0.0000 C   0  0  0  0  0  0  0  0  0  0  0  0
    2.5265   13.7257   -0.0000 C   0  0  0  0  0  0  0  0  0  0  0  0
   12.2924   -1.9678   -0.0000 C   0  0  0  0  0  0  0  0  0  0  0  0
   13.3127   -3.1095   -0.0000 C   0  0  0  0  0  0  0  0  0  0  0  0
   14.5031   -2.8423   -0.0000 O   0  0  0  0  0  0  0  0  0  0  0  0
   12.8268   -4.5671   -0.0000 O   0  0  0  0  0  0  0  0  0  0  0  0
   13.8471   -5.7089   -0.0000 C   0  0  0  0  0  0  0  0  0  0  0  0
   13.4463   -6.8750   -0.0000 C   0  0  0  0  0  0  0  0  0  0  0  0
  1  2  2  0  0  0  0
  2  3  1  0  0  0  0
  2  4  1  0  0  0  0
  3  5  1  0  0  0  0
  3  6  1  0  0  0  0
  4  7  1  0  0  0  0
  4  8  1  6  0  0  0
  5  9  1  0  0  0  0
  6 10  1  0  0  0  0
  7 11  1  0  0  0  0
  8 12  1  0  0  0  0
  9 13  1  1  0  0  0
 10 14  2  0  0  0  0
 10 15  1  0  0  0  0
 11 16  2  0  0  0  0
 11 17  1  0  0  0  0
 12 18  2  0  0  0  0
 12 19  1  0  0  0  0
 13 20  1  0  0  0  0
 13 21  1  0  0  0  0
 14 22  1  0  0  0  0
 14 23  1  0  0  0  0
 15 24  2  0  0  0  0
 18 25  1  0  0  0  0
 19 26  2  0  0  0  0
 20 27  1  0  0  0  0
 21 28  2  0  0  0  0
 21 29  1  0  0  0  0
 22 30  1  0  0  0  0
 22 31  1  0  0  0  0
 23 32  1  0  0  0  0
 23 33  2  0  0  0  0
 25 34  2  0  0  0  0
 27 35  1  0  0  0  0
 29 36  1  0  0  0  0
 32 37  1  0  0  0  0
 34 38  1  0  0  0  0
 35 39  2  0  0  0  0
 36 40  1  0  0  0  0
 37 41  2  0  0  0  0
 37 42  1  0  0  0  0
 40 43  2  0  0  0  0
 40 44  1  0  0  0  0
 42 45  1  0  0  0  0
 42 46  1  0  0  0  0
 43 47  1  0  0  0  0
 44 48  2  0  0  0  0
 45 49  1  0  0  0  0
 46 50  1  0  0  0  0
 47 51  2  0  0  0  0
 49 52  1  0  0  0  0
 52 53  1  0  0  0  0
 53 54  2  0  0  0  0
 53 55  1  0  0  0  0
 55 56  1  0  0  0  0
 56 57  1  0  0  0  0
  7  9  1  0  0  0  0
 17 20  1  0  0  0  0
 24 33  1  0  0  0  0
 26 34  1  0  0  0  0
 30 32  2  0  0  0  0
 48 51  1  0  0  0  0
 50 52  1  0  0  0  0
M  END
>  <MolRegNo>
2036043

>  <m>
=

>  <Value>
3860

>  <Unit>
nM

>  <Type>
IC50

>  <pValue>
5.41

>  <Ligand Efficiency>
0.13

>  <Binding Efficiency>
6.98

>  <Surface Efficiency>
3.66

>  <Assay Index>
974120

>  <Assay Category>


>  <Assay Organism>
Homo sapiens

>  <Target ID>
17045

>  <Target Name>
Cytochrome P450 3A4

>  <Target Organism>
Homo sapiens

>  <Target Description>
Target is a single protein chain

>  <Sequence Accession>
P08684

>  <Reference>


>  <Pubmed ID>


>  <DOI>


$$$$
2036044
Actelion Java MolfileCreator 1.0

 61 67  0  0  1  0  0  0  0  0999 V2000
    0.0000   -0.0000   -0.0000 O   0  0  0  0  0  0  0  0  0  0  0  0
   -0.0122    1.2570   -0.0000 C   0  0  0  0  0  0  0  0  0  0  0  0
    1.3180    2.0381   -0.0000 N   0  0  0  0  0  0  0  0  0  0  0  0
   -1.3669    2.0381   -0.0000 C   0  0  0  0  0  0  0  0  0  0  0  0
    1.3058    3.6002   -0.0000 C   0  0  0  0  0  0  0  0  0  0  0  0
    2.6483    1.2814   -0.0000 C   0  0  0  0  0  0  0  0  0  0  0  0
   -1.3791    3.6002   -0.0000 N   0  0  0  0  0  0  0  0  0  0  0  0
   -2.7215    1.2814   -0.0000 C   0  0  0  0  0  0  0  0  0  0  0  0
   -0.0488    4.3813   -0.0000 C   0  0  0  0  0  0  0  0  0  0  0  0
    3.9785    2.0747   -0.0000 C   0  0  0  0  0  0  0  0  0  0  0  0
   -2.7337    4.3813   -0.0000 C   0  0  0  0  0  0  0  0  0  0  0  0
   -4.0762    2.0747   -0.0000 C   0  0  0  0  0  0  0  0  0  0  0  0
   -0.0610    5.9434   -0.0000 N   0  0  0  0  0  0  0  0  0  0  0  0
    5.3088    1.3180   -0.0000 C   0  0  0  0  0  0  0  0  0  0  0  0
    3.9663    3.6368   -0.0000 C   0  0  0  0  0  0  0  0  0  0  0  0
   -3.8199    3.7711   -0.0000 O   0  0  0  0  0  0  0  0  0  0  0  0
   -2.7459    5.9434   -0.0000 C   0  0  0  0  0  0  0  0  0  0  0  0
   -5.4308    1.3180   -0.0000 C   0  0  0  0  0  0  0  0  0  0  0  0
   -4.0884    3.6368   -0.0000 C   0  0  0  0  0  0  0  0  0  0  0  0
   -1.4157    6.7245   -0.0000 N   0  0  0  0  0  0  0  0  0  0  0  0
    1.2692    6.7367   -0.0000 C   0  0  0  0  0  0  0  0  0  0  0  0
    5.6261   -0.1831   -0.0000 N   0  0  0  0  0  0  0  0  0  0  0  0
    6.6390    2.1113   -0.0000 C   0  0  0  0  0  0  0  0  0  0  0  0
    5.2966    4.4301   -0.0000 C   0  0  0  0  0  0  0  0  0  0  0  0
   -6.7855    2.1113   -0.0000 C   0  0  0  0  0  0  0  0  0  0  0  0
   -5.4430    4.4301   -0.0000 C   0  0  0  0  0  0  0  0  0  0  0  0
   -1.4279    8.2866   -0.0000 C   0  0  0  0  0  0  0  0  0  0  0  0
    2.3310    6.1265   -0.0000 O   0  0  0  0  0  0  0  0  0  0  0  0
    1.2570    8.2988   -0.0000 N   0  0  0  0  0  0  0  0  0  0  0  0
    7.1516   -0.3295   -0.0000 C   0  0  0  0  0  0  0  0  0  0  0  0
    4.7840   -1.0984   -0.0000 C   0  0  0  0  0  0  0  0  0  0  0  0
    7.7862    1.0862   -0.0000 C   0  0  0  0  0  0  0  0  0  0  0  0
    6.6268    3.6734   -0.0000 C   0  0  0  0  0  0  0  0  0  0  0  0
   -6.7977    3.6734   -0.0000 C   0  0  0  0  0  0  0  0  0  0  0  0
   -2.7825    9.0677   -0.0000 C   0  0  0  0  0  0  0  0  0  0  0  0
    2.5873    9.0921   -0.0000 C   0  0  0  0  0  0  0  0  0  0  0  0
    9.2873    1.4279   -0.0000 C   0  0  0  0  0  0  0  0  0  0  0  0
   -7.8839    4.3081   -0.0000 O   0  0  0  0  0  0  0  0  0  0  0  0
   -2.7947   10.3247   -0.0000 C   0  0  0  0  0  0  0  0  0  0  0  0
    2.5751   10.6542   -0.0000 C   0  0  0  0  0  0  0  0  0  0  0  0
    9.6535    2.6239   -0.0000 O   0  0  0  0  0  0  0  0  0  0  0  0
   10.3125    0.2929   -0.0000 N   0  0  0  0  0  0  0  0  0  0  0  0
    3.9053   11.4475   -0.0000 C   0  0  0  0  0  0  0  0  0  0  0  0
    1.2204   11.4353   -0.0000 C   0  0  0  0  0  0  0  0  0  0  0  0
   11.8136    0.6224   -0.0000 C   0  0  0  0  0  0  0  0  0  0  0  0
    9.8243   -1.1716   -0.0000 C   0  0  0  0  0  0  0  0  0  0  0  0
    3.8931   13.0096   -0.0000 C   0  0  0  0  0  0  0  0  0  0  0  0
    1.2082   12.9974   -0.0000 C   0  0  0  0  0  0  0  0  0  0  0  0
   12.8387   -0.5126   -0.0000 C   0  0  0  0  0  0  0  0  0  0  0  0
   10.8495   -2.3066   -0.0000 C   0  0  0  0  0  0  0  0  0  0  0  0
    2.5385   13.7907   -0.0000 C   0  0  0  0  0  0  0  0  0  0  0  0
   12.3506   -1.9771   -0.0000 C   0  0  0  0  0  0  0  0  0  0  0  0
   13.3757   -3.1243   -0.0000 C   0  0  0  0  0  0  0  0  0  0  0  0
   14.5717   -2.8558   -0.0000 O   0  0  0  0  0  0  0  0  0  0  0  0
   12.8876   -4.5888   -0.0000 N   0  0  0  0  0  0  0  0  0  0  0  0
   13.9127   -5.7359   -0.0000 C   0  0  0  0  0  0  0  0  0  0  0  0
   11.6671   -4.8328   -0.0000 C   0  0  0  0  0  0  0  0  0  0  0  0
   13.4245   -7.2004   -0.0000 C   0  0  0  0  0  0  0  0  0  0  0  0
   14.4497   -8.3476   -0.0000 N   0  0  0  0  0  0  0  0  0  0  0  0
   14.0470   -9.5192   -0.0000 C   0  0  0  0  0  0  0  0  0  0  0  0
   15.6457   -8.0791   -0.0000 C   0  0  0  0  0  0  0  0  0  0  0  0
  1  2  2  0  0  0  0
  2  3  1  0  0  0  0
  2  4  1  0  0  0  0
  3  5  1  0  0  0  0
  3  6  1  0  0  0  0
  4  7  1  0  0  0  0
  4  8  1  6  0  0  0
  5  9  1  0  0  0  0
  6 10  1  0  0  0  0
  7 11  1  0  0  0  0
  8 12  1  0  0  0  0
  9 13  1  1  0  0  0
 10 14  2  0  0  0  0
 10 15  1  0  0  0  0
 11 16  2  0  0  0  0
 11 17  1  0  0  0  0
 12 18  2  0  0  0  0
 12 19  1  0  0  0  0
 13 20  1  0  0  0  0
 13 21  1  0  0  0  0
 14 22  1  0  0  0  0
 14 23  1  0  0  0  0
 15 24  2  0  0  0  0
 18 25  1  0  0  0  0
 19 26  2  0  0  0  0
 20 27  1  0  0  0  0
 21 28  2  0  0  0  0
 21 29  1  0  0  0  0
 22 30  1  0  0  0  0
 22 31  1  0  0  0  0
 23 32  1  0  0  0  0
 23 33  2  0  0  0  0
 25 34  2  0  0  0  0
 27 35  1  0  0  0  0
 29 36  1  0  0  0  0
 32 37  1  0  0  0  0
 34 38  1  0  0  0  0
 35 39  2  0  0  0  0
 36 40  1  0  0  0  0
 37 41  2  0  0  0  0
 37 42  1  0  0  0  0
 40 43  2  0  0  0  0
 40 44  1  0  0  0  0
 42 45  1  0  0  0  0
 42 46  1  0  0  0  0
 43 47  1  0  0  0  0
 44 48  2  0  0  0  0
 45 49  1  0  0  0  0
 46 50  1  0  0  0  0
 47 51  2  0  0  0  0
 49 52  1  0  0  0  0
 52 53  1  0  0  0  0
 53 54  2  0  0  0  0
 53 55  1  0  0  0  0
 55 56  1  0  0  0  0
 55 57  1  0  0  0  0
 56 58  1  0  0  0  0
 58 59  1  0  0  0  0
 59 60  1  0  0  0  0
 59 61  1  0  0  0  0
  7  9  1  0  0  0  0
 17 20  1  0  0  0  0
 24 33  1  0  0  0  0
 26 34  1  0  0  0  0
 30 32  2  0  0  0  0
 48 51  1  0  0  0  0
 50 52  1  0  0  0  0
M  END
>  <MolRegNo>
2036044

>  <m>
=

>  <Value>
4970

>  <Unit>
nM

>  <Type>
IC50

>  <pValue>
5.3

>  <Ligand Efficiency>
0.12

>  <Binding Efficiency>
6.37

>  <Surface Efficiency>
3.65

>  <Assay Index>
974120

>  <Assay Category>


>  <Assay Organism>
Homo sapiens

>  <Target ID>
17045

>  <Target Name>
Cytochrome P450 3A4

>  <Target Organism>
Homo sapiens

>  <Target Description>
Target is a single protein chain

>  <Sequence Accession>
P08684

>  <Reference>


>  <Pubmed ID>


>  <DOI>


$$$$
2036045
Actelion Java MolfileCreator 1.0

 58 64  0  0  1  0  0  0  0  0999 V2000
    0.0000   -0.0000   -0.0000 O   0  0  0  0  0  0  0  0  0  0  0  0
   -0.0121    1.2505   -0.0000 C   0  0  0  0  0  0  0  0  0  0  0  0
    1.3112    2.0276   -0.0000 N   0  0  0  0  0  0  0  0  0  0  0  0
   -1.3598    2.0276   -0.0000 C   0  0  0  0  0  0  0  0  0  0  0  0
    1.2991    3.5816   -0.0000 C   0  0  0  0  0  0  0  0  0  0  0  0
    2.6346    1.2748   -0.0000 C   0  0  0  0  0  0  0  0  0  0  0  0
   -1.3719    3.5816   -0.0000 N   0  0  0  0  0  0  0  0  0  0  0  0
   -2.7075    1.2748   -0.0000 C   0  0  0  0  0  0  0  0  0  0  0  0
   -0.0486    4.3587   -0.0000 C   0  0  0  0  0  0  0  0  0  0  0  0
    3.9580    2.0640   -0.0000 C   0  0  0  0  0  0  0  0  0  0  0  0
   -2.7196    4.3587   -0.0000 C   0  0  0  0  0  0  0  0  0  0  0  0
   -4.0551    2.0640   -0.0000 C   0  0  0  0  0  0  0  0  0  0  0  0
   -0.0607    5.9127   -0.0000 N   0  0  0  0  0  0  0  0  0  0  0  0
    5.2814    1.3112   -0.0000 C   0  0  0  0  0  0  0  0  0  0  0  0
    3.9459    3.6180   -0.0000 C   0  0  0  0  0  0  0  0  0  0  0  0
   -3.8002    3.7516   -0.0000 O   0  0  0  0  0  0  0  0  0  0  0  0
   -2.7317    5.9127   -0.0000 C   0  0  0  0  0  0  0  0  0  0  0  0
   -5.4028    1.3112   -0.0000 C   0  0  0  0  0  0  0  0  0  0  0  0
   -4.0673    3.6180   -0.0000 C   0  0  0  0  0  0  0  0  0  0  0  0
   -1.4084    6.6897   -0.0000 N   0  0  0  0  0  0  0  0  0  0  0  0
    1.2627    6.7019   -0.0000 C   0  0  0  0  0  0  0  0  0  0  0  0
    5.5970   -0.1821   -0.0000 N   0  0  0  0  0  0  0  0  0  0  0  0
    6.6048    2.1004   -0.0000 C   0  0  0  0  0  0  0  0  0  0  0  0
    5.2692    4.4072   -0.0000 C   0  0  0  0  0  0  0  0  0  0  0  0
   -6.7504    2.1004   -0.0000 C   0  0  0  0  0  0  0  0  0  0  0  0
   -5.4149    4.4072   -0.0000 C   0  0  0  0  0  0  0  0  0  0  0  0
   -1.4205    8.2438   -0.0000 C   0  0  0  0  0  0  0  0  0  0  0  0
    2.3189    6.0948   -0.0000 O   0  0  0  0  0  0  0  0  0  0  0  0
    1.2505    8.2559   -0.0000 N   0  0  0  0  0  0  0  0  0  0  0  0
    7.1147   -0.3278   -0.0000 C   0  0  0  0  0  0  0  0  0  0  0  0
    4.7593   -1.0927   -0.0000 C   0  0  0  0  0  0  0  0  0  0  0  0
    7.7460    1.0806   -0.0000 C   0  0  0  0  0  0  0  0  0  0  0  0
    6.5926    3.6545   -0.0000 C   0  0  0  0  0  0  0  0  0  0  0  0
   -6.7626    3.6545   -0.0000 C   0  0  0  0  0  0  0  0  0  0  0  0
   -2.7682    9.0208   -0.0000 C   0  0  0  0  0  0  0  0  0  0  0  0
    2.5739    9.0451   -0.0000 C   0  0  0  0  0  0  0  0  0  0  0  0
    9.2394    1.4205   -0.0000 C   0  0  0  0  0  0  0  0  0  0  0  0
   -7.8431    4.2858   -0.0000 O   0  0  0  0  0  0  0  0  0  0  0  0
   -2.7803   10.2714   -0.0000 C   0  0  0  0  0  0  0  0  0  0  0  0
    2.5618   10.5992   -0.0000 C   0  0  0  0  0  0  0  0  0  0  0  0
    9.6036    2.6103   -0.0000 O   0  0  0  0  0  0  0  0  0  0  0  0
   10.2592    0.2914   -0.0000 N   0  0  0  0  0  0  0  0  0  0  0  0
    3.8851   11.3883   -0.0000 C   0  0  0  0  0  0  0  0  0  0  0  0
    1.2141   11.3762   -0.0000 C   0  0  0  0  0  0  0  0  0  0  0  0
   11.7526    0.6192   -0.0000 C   0  0  0  0  0  0  0  0  0  0  0  0
    9.7736   -1.1655   -0.0000 C   0  0  0  0  0  0  0  0  0  0  0  0
    3.8730   12.9424   -0.0000 C   0  0  0  0  0  0  0  0  0  0  0  0
    1.2020   12.9303   -0.0000 C   0  0  0  0  0  0  0  0  0  0  0  0
   12.7724   -0.5099   -0.0000 C   0  0  0  0  0  0  0  0  0  0  0  0
   10.7934   -2.2947   -0.0000 C   0  0  0  0  0  0  0  0  0  0  0  0
    2.5253   13.7194   -0.0000 C   0  0  0  0  0  0  0  0  0  0  0  0
   12.2868   -1.9669   -0.0000 C   0  0  0  0  0  0  0  0  0  0  0  0
   13.3066   -3.1081   -0.0000 N   0  0  0  0  0  0  0  0  0  0  0  0
   12.8210   -4.5651   -0.0000 C   0  0  0  0  0  0  0  0  0  0  0  0
   11.6069   -4.8079   -0.0000 O   0  0  0  0  0  0  0  0  0  0  0  0
   13.8408   -5.7063   -0.0000 C   0  0  0  0  0  0  0  0  0  0  0  0
   13.3552   -7.1632   -0.0000 C   0  0  0  0  0  0  0  0  0  0  0  0
   14.1687   -8.0738   -0.0000 O   0  0  0  0  0  0  0  0  0  0  0  0
  1  2  2  0  0  0  0
  2  3  1  0  0  0  0
  2  4  1  0  0  0  0
  3  5  1  0  0  0  0
  3  6  1  0  0  0  0
  4  7  1  0  0  0  0
  4  8  1  6  0  0  0
  5  9  1  0  0  0  0
  6 10  1  0  0  0  0
  7 11  1  0  0  0  0
  8 12  1  0  0  0  0
  9 13  1  1  0  0  0
 10 14  2  0  0  0  0
 10 15  1  0  0  0  0
 11 16  2  0  0  0  0
 11 17  1  0  0  0  0
 12 18  2  0  0  0  0
 12 19  1  0  0  0  0
 13 20  1  0  0  0  0
 13 21  1  0  0  0  0
 14 22  1  0  0  0  0
 14 23  1  0  0  0  0
 15 24  2  0  0  0  0
 18 25  1  0  0  0  0
 19 26  2  0  0  0  0
 20 27  1  0  0  0  0
 21 28  2  0  0  0  0
 21 29  1  0  0  0  0
 22 30  1  0  0  0  0
 22 31  1  0  0  0  0
 23 32  1  0  0  0  0
 23 33  2  0  0  0  0
 25 34  2  0  0  0  0
 27 35  1  0  0  0  0
 29 36  1  0  0  0  0
 32 37  1  0  0  0  0
 34 38  1  0  0  0  0
 35 39  2  0  0  0  0
 36 40  1  0  0  0  0
 37 41  2  0  0  0  0
 37 42  1  0  0  0  0
 40 43  2  0  0  0  0
 40 44  1  0  0  0  0
 42 45  1  0  0  0  0
 42 46  1  0  0  0  0
 43 47  1  0  0  0  0
 44 48  2  0  0  0  0
 45 49  1  0  0  0  0
 46 50  1  0  0  0  0
 47 51  2  0  0  0  0
 49 52  1  0  0  0  0
 52 53  1  0  0  0  0
 53 54  1  0  0  0  0
 54 55  2  0  0  0  0
 54 56  1  0  0  0  0
 56 57  1  0  0  0  0
 57 58  1  0  0  0  0
  7  9  1  0  0  0  0
 17 20  1  0  0  0  0
 24 33  1  0  0  0  0
 26 34  1  0  0  0  0
 30 32  2  0  0  0  0
 48 51  1  0  0  0  0
 50 52  1  0  0  0  0
M  END
>  <MolRegNo>
2036045

>  <m>
=

>  <Value>
7650

>  <Unit>
nM

>  <Type>
IC50

>  <pValue>
5.12

>  <Ligand Efficiency>
0.12

>  <Binding Efficiency>
6.47

>  <Surface Efficiency>
2.99

>  <Assay Index>
974120

>  <Assay Category>


>  <Assay Organism>
Homo sapiens

>  <Target ID>
17045

>  <Target Name>
Cytochrome P450 3A4

>  <Target Organism>
Homo sapiens

>  <Target Description>
Target is a single protein chain

>  <Sequence Accession>
P08684

>  <Reference>


>  <Pubmed ID>


>  <DOI>


$$$$
2036047
Actelion Java MolfileCreator 1.0

 68 76  0  0  1  0  0  0  0  0999 V2000
    0.0000   -0.0000   -0.0000 O   0  0  0  0  0  0  0  0  0  0  0  0
   -0.0121    1.2470   -0.0000 C   0  0  0  0  0  0  0  0  0  0  0  0
    1.3075    2.0218   -0.0000 N   0  0  0  0  0  0  0  0  0  0  0  0
   -1.3559    2.0218   -0.0000 C   0  0  0  0  0  0  0  0  0  0  0  0
    1.2954    3.5714   -0.0000 C   0  0  0  0  0  0  0  0  0  0  0  0
    2.6271    1.2712   -0.0000 C   0  0  0  0  0  0  0  0  0  0  0  0
   -1.3680    3.5714   -0.0000 N   0  0  0  0  0  0  0  0  0  0  0  0
   -2.6997    1.2712   -0.0000 C   0  0  0  0  0  0  0  0  0  0  0  0
   -0.0484    4.3462   -0.0000 C   0  0  0  0  0  0  0  0  0  0  0  0
    3.9467    2.0581   -0.0000 C   0  0  0  0  0  0  0  0  0  0  0  0
   -2.7118    4.3462   -0.0000 C   0  0  0  0  0  0  0  0  0  0  0  0
   -4.0435    2.0581   -0.0000 C   0  0  0  0  0  0  0  0  0  0  0  0
   -0.0605    5.8958   -0.0000 N   0  0  0  0  0  0  0  0  0  0  0  0
    5.2663    1.3075   -0.0000 C   0  0  0  0  0  0  0  0  0  0  0  0
    3.9346    3.6077   -0.0000 C   0  0  0  0  0  0  0  0  0  0  0  0
   -3.7893    3.7409   -0.0000 O   0  0  0  0  0  0  0  0  0  0  0  0
   -2.7239    5.8958   -0.0000 C   0  0  0  0  0  0  0  0  0  0  0  0
   -5.3873    1.3075   -0.0000 C   0  0  0  0  0  0  0  0  0  0  0  0
   -4.0556    3.6077   -0.0000 C   0  0  0  0  0  0  0  0  0  0  0  0
   -1.4043    6.6706   -0.0000 N   0  0  0  0  0  0  0  0  0  0  0  0
    1.2591    6.6827   -0.0000 C   0  0  0  0  0  0  0  0  0  0  0  0
    5.5810   -0.1816   -0.0000 N   0  0  0  0  0  0  0  0  0  0  0  0
    6.5859    2.0944   -0.0000 C   0  0  0  0  0  0  0  0  0  0  0  0
    5.2542    4.3946   -0.0000 C   0  0  0  0  0  0  0  0  0  0  0  0
   -6.7312    2.0944   -0.0000 C   0  0  0  0  0  0  0  0  0  0  0  0
   -5.3995    4.3946   -0.0000 C   0  0  0  0  0  0  0  0  0  0  0  0
   -1.4164    8.2202   -0.0000 C   0  0  0  0  0  0  0  0  0  0  0  0
    2.3123    6.0774   -0.0000 O   0  0  0  0  0  0  0  0  0  0  0  0
    1.2470    8.2323   -0.0000 N   0  0  0  0  0  0  0  0  0  0  0  0
    7.0943   -0.3269   -0.0000 C   0  0  0  0  0  0  0  0  0  0  0  0
    4.7457   -1.0896   -0.0000 C   0  0  0  0  0  0  0  0  0  0  0  0
    7.7239    1.0775   -0.0000 C   0  0  0  0  0  0  0  0  0  0  0  0
    6.5738    3.6440   -0.0000 C   0  0  0  0  0  0  0  0  0  0  0  0
   -6.7433    3.6440   -0.0000 C   0  0  0  0  0  0  0  0  0  0  0  0
   -2.7603    8.9951   -0.0000 C   0  0  0  0  0  0  0  0  0  0  0  0
    2.5666    9.0193   -0.0000 C   0  0  0  0  0  0  0  0  0  0  0  0
    9.2130    1.4164   -0.0000 C   0  0  0  0  0  0  0  0  0  0  0  0
   -7.8207    4.2736   -0.0000 O   0  0  0  0  0  0  0  0  0  0  0  0
   -2.7724   10.2420   -0.0000 C   0  0  0  0  0  0  0  0  0  0  0  0
    2.5544   10.5689   -0.0000 C   0  0  0  0  0  0  0  0  0  0  0  0
    9.5762    2.6029   -0.0000 O   0  0  0  0  0  0  0  0  0  0  0  0
   10.2299    0.2906   -0.0000 N   0  0  0  0  0  0  0  0  0  0  0  0
    3.8740   11.3558   -0.0000 C   0  0  0  0  0  0  0  0  0  0  0  0
    1.2106   11.3437   -0.0000 C   0  0  0  0  0  0  0  0  0  0  0  0
   11.7190    0.6174   -0.0000 C   0  0  0  0  0  0  0  0  0  0  0  0
    9.7456   -1.1622   -0.0000 C   0  0  0  0  0  0  0  0  0  0  0  0
    3.8619   12.9054   -0.0000 C   0  0  0  0  0  0  0  0  0  0  0  0
    1.1985   12.8933   -0.0000 C   0  0  0  0  0  0  0  0  0  0  0  0
   12.7359   -0.5085   -0.0000 C   0  0  0  0  0  0  0  0  0  0  0  0
   10.7626   -2.2881   -0.0000 C   0  0  0  0  0  0  0  0  0  0  0  0
    2.5181   13.6802   -0.0000 C   0  0  0  0  0  0  0  0  0  0  0  0
   12.2517   -1.9612   -0.0000 C   0  0  0  0  0  0  0  0  0  0  0  0
   13.2686   -3.0992   -0.0000 N   0  0  0  0  0  0  0  0  0  0  0  0
   12.7844   -4.5520   -0.0000 C   0  0  0  0  0  0  0  0  0  0  0  0
   11.5737   -4.7941   -0.0000 O   0  0  0  0  0  0  0  0  0  0  0  0
   13.8013   -5.6900   -0.0000 C   0  0  0  0  0  0  0  0  0  0  0  0
   13.3170   -7.1428   -0.0000 C   0  0  0  0  0  0  0  0  0  0  0  0
   15.2904   -5.3631   -0.0000 C   0  0  0  0  0  0  0  0  0  0  0  0
   14.3340   -8.2687   -0.0000 C   0  0  0  0  0  0  0  0  0  0  0  0
   16.3073   -6.4890   -0.0000 C   0  0  0  0  0  0  0  0  0  0  0  0
   15.8231   -7.9418   -0.0000 C   0  0  0  0  0  0  0  0  0  0  0  0
   16.8400   -9.0677   -0.0000 N   0  0  0  0  0  0  0  0  0  0  0  0
   16.3557  -10.5205   -0.0000 C   0  0  0  0  0  0  0  0  0  0  0  0
   18.3291   -8.7287   -0.0000 C   0  0  0  0  0  0  0  0  0  0  0  0
   17.3727  -11.6464   -0.0000 C   0  0  0  0  0  0  0  0  0  0  0  0
   19.3460   -9.8546   -0.0000 C   0  0  0  0  0  0  0  0  0  0  0  0
   18.8618  -11.3074   -0.0000 N   0  0  0  0  0  0  0  0  0  0  0  0
   19.6729  -12.2032   -0.0000 C   0  0  0  0  0  0  0  0  0  0  0  0
  1  2  2  0  0  0  0
  2  3  1  0  0  0  0
  2  4  1  0  0  0  0
  3  5  1  0  0  0  0
  3  6  1  0  0  0  0
  4  7  1  0  0  0  0
  4  8  1  6  0  0  0
  5  9  1  0  0  0  0
  6 10  1  0  0  0  0
  7 11  1  0  0  0  0
  8 12  1  0  0  0  0
  9 13  1  1  0  0  0
 10 14  2  0  0  0  0
 10 15  1  0  0  0  0
 11 16  2  0  0  0  0
 11 17  1  0  0  0  0
 12 18  2  0  0  0  0
 12 19  1  0  0  0  0
 13 20  1  0  0  0  0
 13 21  1  0  0  0  0
 14 22  1  0  0  0  0
 14 23  1  0  0  0  0
 15 24  2  0  0  0  0
 18 25  1  0  0  0  0
 19 26  2  0  0  0  0
 20 27  1  0  0  0  0
 21 28  2  0  0  0  0
 21 29  1  0  0  0  0
 22 30  1  0  0  0  0
 22 31  1  0  0  0  0
 23 32  1  0  0  0  0
 23 33  2  0  0  0  0
 25 34  2  0  0  0  0
 27 35  1  0  0  0  0
 29 36  1  0  0  0  0
 32 37  1  0  0  0  0
 34 38  1  0  0  0  0
 35 39  2  0  0  0  0
 36 40  1  0  0  0  0
 37 41  2  0  0  0  0
 37 42  1  0  0  0  0
 40 43  2  0  0  0  0
 40 44  1  0  0  0  0
 42 45  1  0  0  0  0
 42 46  1  0  0  0  0
 43 47  1  0  0  0  0
 44 48  2  0  0  0  0
 45 49  1  0  0  0  0
 46 50  1  0  0  0  0
 47 51  2  0  0  0  0
 49 52  1  0  0  0  0
 52 53  1  0  0  0  0
 53 54  1  0  0  0  0
 54 55  2  0  0  0  0
 54 56  1  0  0  0  0
 56 57  2  0  0  0  0
 56 58  1  0  0  0  0
 57 59  1  0  0  0  0
 58 60  2  0  0  0  0
 59 61  2  0  0  0  0
 61 62  1  0  0  0  0
 62 63  1  0  0  0  0
 62 64  1  0  0  0  0
 63 65  1  0  0  0  0
 64 66  1  0  0  0  0
 65 67  1  0  0  0  0
 67 68  1  0  0  0  0
  7  9  1  0  0  0  0
 17 20  1  0  0  0  0
 24 33  1  0  0  0  0
 26 34  1  0  0  0  0
 30 32  2  0  0  0  0
 48 51  1  0  0  0  0
 50 52  1  0  0  0  0
 60 61  1  0  0  0  0
 66 67  1  0  0  0  0
M  END
>  <MolRegNo>
2036047

>  <m>
=

>  <Value>
6020

>  <Unit>
nM

>  <Type>
IC50

>  <pValue>
5.22

>  <Ligand Efficiency>
0.1

>  <Binding Efficiency>
5.67

>  <Surface Efficiency>
3.32

>  <Assay Index>
974120

>  <Assay Category>


>  <Assay Organism>
Homo sapiens

>  <Target ID>
17045

>  <Target Name>
Cytochrome P450 3A4

>  <Target Organism>
Homo sapiens

>  <Target Description>
Target is a single protein chain

>  <Sequence Accession>
P08684

>  <Reference>


>  <Pubmed ID>


>  <DOI>


$$$$
2036048
Actelion Java MolfileCreator 1.0

 55 61  0  0  1  0  0  0  0  0999 V2000
    0.0000   -0.0000   -0.0000 O   0  0  0  0  0  0  0  0  0  0  0  0
   -0.0122    1.2520   -0.0000 C   0  0  0  0  0  0  0  0  0  0  0  0
    1.3128    2.0300   -0.0000 N   0  0  0  0  0  0  0  0  0  0  0  0
   -1.3614    2.0300   -0.0000 C   0  0  0  0  0  0  0  0  0  0  0  0
    1.3006    3.5859   -0.0000 C   0  0  0  0  0  0  0  0  0  0  0  0
    2.6378    1.2763   -0.0000 C   0  0  0  0  0  0  0  0  0  0  0  0
   -1.3736    3.5859   -0.0000 N   0  0  0  0  0  0  0  0  0  0  0  0
   -2.7107    1.2763   -0.0000 C   0  0  0  0  0  0  0  0  0  0  0  0
   -0.0486    4.3639   -0.0000 C   0  0  0  0  0  0  0  0  0  0  0  0
    3.9627    2.0665   -0.0000 C   0  0  0  0  0  0  0  0  0  0  0  0
   -2.7229    4.3639   -0.0000 C   0  0  0  0  0  0  0  0  0  0  0  0
   -4.0600    2.0665   -0.0000 C   0  0  0  0  0  0  0  0  0  0  0  0
   -0.0608    5.9198   -0.0000 N   0  0  0  0  0  0  0  0  0  0  0  0
    5.2877    1.3128   -0.0000 C   0  0  0  0  0  0  0  0  0  0  0  0
    3.9506    3.6224   -0.0000 C   0  0  0  0  0  0  0  0  0  0  0  0
   -3.8047    3.7561   -0.0000 O   0  0  0  0  0  0  0  0  0  0  0  0
   -2.7350    5.9198   -0.0000 C   0  0  0  0  0  0  0  0  0  0  0  0
   -5.4092    1.3128   -0.0000 C   0  0  0  0  0  0  0  0  0  0  0  0
   -4.0721    3.6224   -0.0000 C   0  0  0  0  0  0  0  0  0  0  0  0
   -1.4101    6.6977   -0.0000 N   0  0  0  0  0  0  0  0  0  0  0  0
    1.2642    6.7099   -0.0000 C   0  0  0  0  0  0  0  0  0  0  0  0
    5.6037   -0.1823   -0.0000 N   0  0  0  0  0  0  0  0  0  0  0  0
    6.6127    2.1029   -0.0000 C   0  0  0  0  0  0  0  0  0  0  0  0
    5.2755    4.4125   -0.0000 C   0  0  0  0  0  0  0  0  0  0  0  0
   -6.7585    2.1029   -0.0000 C   0  0  0  0  0  0  0  0  0  0  0  0
   -5.4214    4.4125   -0.0000 C   0  0  0  0  0  0  0  0  0  0  0  0
   -1.4222    8.2537   -0.0000 C   0  0  0  0  0  0  0  0  0  0  0  0
    2.3217    6.1021   -0.0000 O   0  0  0  0  0  0  0  0  0  0  0  0
    1.2520    8.2658   -0.0000 N   0  0  0  0  0  0  0  0  0  0  0  0
    7.1232   -0.3282   -0.0000 C   0  0  0  0  0  0  0  0  0  0  0  0
    4.7650   -1.0940   -0.0000 C   0  0  0  0  0  0  0  0  0  0  0  0
    7.7553    1.0818   -0.0000 C   0  0  0  0  0  0  0  0  0  0  0  0
    6.6005    3.6588   -0.0000 C   0  0  0  0  0  0  0  0  0  0  0  0
   -6.7707    3.6588   -0.0000 C   0  0  0  0  0  0  0  0  0  0  0  0
   -2.7715    9.0316   -0.0000 C   0  0  0  0  0  0  0  0  0  0  0  0
    2.5770    9.0559   -0.0000 C   0  0  0  0  0  0  0  0  0  0  0  0
    9.2504    1.4222   -0.0000 C   0  0  0  0  0  0  0  0  0  0  0  0
   -7.8525    4.2909   -0.0000 O   0  0  0  0  0  0  0  0  0  0  0  0
   -2.7836   10.2836   -0.0000 C   0  0  0  0  0  0  0  0  0  0  0  0
    2.5648   10.6118   -0.0000 C   0  0  0  0  0  0  0  0  0  0  0  0
    9.6151    2.6135   -0.0000 O   0  0  0  0  0  0  0  0  0  0  0  0
   10.2715    0.2917   -0.0000 N   0  0  0  0  0  0  0  0  0  0  0  0
    3.8898   11.4020   -0.0000 C   0  0  0  0  0  0  0  0  0  0  0  0
    1.2156   11.3898   -0.0000 C   0  0  0  0  0  0  0  0  0  0  0  0
   11.7666    0.6199   -0.0000 C   0  0  0  0  0  0  0  0  0  0  0  0
    9.7853   -1.1669   -0.0000 C   0  0  0  0  0  0  0  0  0  0  0  0
    3.8776   12.9579   -0.0000 C   0  0  0  0  0  0  0  0  0  0  0  0
    1.2034   12.9457   -0.0000 C   0  0  0  0  0  0  0  0  0  0  0  0
   12.7877   -0.5105   -0.0000 C   0  0  0  0  0  0  0  0  0  0  0  0
   10.8063   -2.2974   -0.0000 C   0  0  0  0  0  0  0  0  0  0  0  0
    2.5284   13.7358   -0.0000 C   0  0  0  0  0  0  0  0  0  0  0  0
   12.3015   -1.9692   -0.0000 C   0  0  0  0  0  0  0  0  0  0  0  0
   13.3225   -3.1118   -0.0000 N   0  0  0  0  0  0  0  0  0  0  0  0
   12.9214   -4.2788   -0.0000 C   0  0  0  0  0  0  0  0  0  0  0  0
   14.5138   -2.8444   -0.0000 C   0  0  0  0  0  0  0  0  0  0  0  0
  1  2  2  0  0  0  0
  2  3  1  0  0  0  0
  2  4  1  0  0  0  0
  3  5  1  0  0  0  0
  3  6  1  0  0  0  0
  4  7  1  0  0  0  0
  4  8  1  6  0  0  0
  5  9  1  0  0  0  0
  6 10  1  0  0  0  0
  7 11  1  0  0  0  0
  8 12  1  0  0  0  0
  9 13  1  1  0  0  0
 10 14  2  0  0  0  0
 10 15  1  0  0  0  0
 11 16  2  0  0  0  0
 11 17  1  0  0  0  0
 12 18  2  0  0  0  0
 12 19  1  0  0  0  0
 13 20  1  0  0  0  0
 13 21  1  0  0  0  0
 14 22  1  0  0  0  0
 14 23  1  0  0  0  0
 15 24  2  0  0  0  0
 18 25  1  0  0  0  0
 19 26  2  0  0  0  0
 20 27  1  0  0  0  0
 21 28  2  0  0  0  0
 21 29  1  0  0  0  0
 22 30  1  0  0  0  0
 22 31  1  0  0  0  0
 23 32  1  0  0  0  0
 23 33  2  0  0  0  0
 25 34  2  0  0  0  0
 27 35  1  0  0  0  0
 29 36  1  0  0  0  0
 32 37  1  0  0  0  0
 34 38  1  0  0  0  0
 35 39  2  0  0  0  0
 36 40  1  0  0  0  0
 37 41  2  0  0  0  0
 37 42  1  0  0  0  0
 40 43  2  0  0  0  0
 40 44  1  0  0  0  0
 42 45  1  0  0  0  0
 42 46  1  0  0  0  0
 43 47  1  0  0  0  0
 44 48  2  0  0  0  0
 45 49  1  0  0  0  0
 46 50  1  0  0  0  0
 47 51  2  0  0  0  0
 49 52  1  0  0  0  0
 52 53  1  0  0  0  0
 53 54  1  0  0  0  0
 53 55  1  0  0  0  0
  7  9  1  0  0  0  0
 17 20  1  0  0  0  0
 24 33  1  0  0  0  0
 26 34  1  0  0  0  0
 30 32  2  0  0  0  0
 48 51  1  0  0  0  0
 50 52  1  0  0  0  0
M  END
>  <MolRegNo>
2036048

>  <m>
=

>  <Value>
2230

>  <Unit>
nM

>  <Type>
IC50

>  <pValue>
5.65

>  <Ligand Efficiency>
0.14

>  <Binding Efficiency>
7.57

>  <Surface Efficiency>
4.52

>  <Assay Index>
974120

>  <Assay Category>


>  <Assay Organism>
Homo sapiens

>  <Target ID>
17045

>  <Target Name>
Cytochrome P450 3A4

>  <Target Organism>
Homo sapiens

>  <Target Description>
Target is a single protein chain

>  <Sequence Accession>
P08684

>  <Reference>


>  <Pubmed ID>


>  <DOI>


$$$$
2036049
Actelion Java MolfileCreator 1.0

 59 66  0  0  1  0  0  0  0  0999 V2000
    0.0000   -0.0000   -0.0000 O   0  0  0  0  0  0  0  0  0  0  0  0
   -0.0121    1.2465   -0.0000 C   0  0  0  0  0  0  0  0  0  0  0  0
    1.3070    2.0210   -0.0000 N   0  0  0  0  0  0  0  0  0  0  0  0
   -1.3554    2.0210   -0.0000 C   0  0  0  0  0  0  0  0  0  0  0  0
    1.2949    3.5700   -0.0000 C   0  0  0  0  0  0  0  0  0  0  0  0
    2.6260    1.2707   -0.0000 C   0  0  0  0  0  0  0  0  0  0  0  0
   -1.3675    3.5700   -0.0000 N   0  0  0  0  0  0  0  0  0  0  0  0
   -2.6987    1.2707   -0.0000 C   0  0  0  0  0  0  0  0  0  0  0  0
   -0.0484    4.3445   -0.0000 C   0  0  0  0  0  0  0  0  0  0  0  0
    3.9451    2.0573   -0.0000 C   0  0  0  0  0  0  0  0  0  0  0  0
   -2.7108    4.3445   -0.0000 C   0  0  0  0  0  0  0  0  0  0  0  0
   -4.0419    2.0573   -0.0000 C   0  0  0  0  0  0  0  0  0  0  0  0
   -0.0605    5.8935   -0.0000 N   0  0  0  0  0  0  0  0  0  0  0  0
    5.2642    1.3070   -0.0000 C   0  0  0  0  0  0  0  0  0  0  0  0
    3.9330    3.6063   -0.0000 C   0  0  0  0  0  0  0  0  0  0  0  0
   -3.7878    3.7394   -0.0000 O   0  0  0  0  0  0  0  0  0  0  0  0
   -2.7229    5.8935   -0.0000 C   0  0  0  0  0  0  0  0  0  0  0  0
   -5.3852    1.3070   -0.0000 C   0  0  0  0  0  0  0  0  0  0  0  0
   -4.0540    3.6063   -0.0000 C   0  0  0  0  0  0  0  0  0  0  0  0
   -1.4038    6.6680   -0.0000 N   0  0  0  0  0  0  0  0  0  0  0  0
    1.2586    6.6801   -0.0000 C   0  0  0  0  0  0  0  0  0  0  0  0
    5.5788   -0.1815   -0.0000 N   0  0  0  0  0  0  0  0  0  0  0  0
    6.5833    2.0936   -0.0000 C   0  0  0  0  0  0  0  0  0  0  0  0
    5.2521    4.3929   -0.0000 C   0  0  0  0  0  0  0  0  0  0  0  0
   -6.7285    2.0936   -0.0000 C   0  0  0  0  0  0  0  0  0  0  0  0
   -5.3973    4.3929   -0.0000 C   0  0  0  0  0  0  0  0  0  0  0  0
   -1.4159    8.2170   -0.0000 C   0  0  0  0  0  0  0  0  0  0  0  0
    2.3114    6.0750   -0.0000 O   0  0  0  0  0  0  0  0  0  0  0  0
    1.2465    8.2291   -0.0000 N   0  0  0  0  0  0  0  0  0  0  0  0
    7.0915   -0.3267   -0.0000 C   0  0  0  0  0  0  0  0  0  0  0  0
    4.7438   -1.0891   -0.0000 C   0  0  0  0  0  0  0  0  0  0  0  0
    7.7208    1.0770   -0.0000 C   0  0  0  0  0  0  0  0  0  0  0  0
    6.5712    3.6426   -0.0000 C   0  0  0  0  0  0  0  0  0  0  0  0
   -6.7406    3.6426   -0.0000 C   0  0  0  0  0  0  0  0  0  0  0  0
   -2.7592    8.9915   -0.0000 C   0  0  0  0  0  0  0  0  0  0  0  0
    2.5655    9.0157   -0.0000 C   0  0  0  0  0  0  0  0  0  0  0  0
    9.2093    1.4159   -0.0000 C   0  0  0  0  0  0  0  0  0  0  0  0
   -7.8176    4.2719   -0.0000 O   0  0  0  0  0  0  0  0  0  0  0  0
   -2.7713   10.2379   -0.0000 C   0  0  0  0  0  0  0  0  0  0  0  0
    2.5534   10.5647   -0.0000 C   0  0  0  0  0  0  0  0  0  0  0  0
    9.5724    2.6018   -0.0000 O   0  0  0  0  0  0  0  0  0  0  0  0
   10.2258    0.2904   -0.0000 N   0  0  0  0  0  0  0  0  0  0  0  0
    3.8725   11.3513   -0.0000 C   0  0  0  0  0  0  0  0  0  0  0  0
    1.2102   11.3392   -0.0000 C   0  0  0  0  0  0  0  0  0  0  0  0
   11.7143    0.6172   -0.0000 C   0  0  0  0  0  0  0  0  0  0  0  0
    9.7418   -1.1618   -0.0000 C   0  0  0  0  0  0  0  0  0  0  0  0
    3.8604   12.9003   -0.0000 C   0  0  0  0  0  0  0  0  0  0  0  0
    1.1981   12.8882   -0.0000 C   0  0  0  0  0  0  0  0  0  0  0  0
   12.7309   -0.5083   -0.0000 C   0  0  0  0  0  0  0  0  0  0  0  0
   10.7583   -2.2872   -0.0000 C   0  0  0  0  0  0  0  0  0  0  0  0
    2.5171   13.6748   -0.0000 C   0  0  0  0  0  0  0  0  0  0  0  0
   12.2468   -1.9605   -0.0000 N   0  0  0  0  0  0  0  0  0  0  0  0
   13.2633   -3.0859   -0.0000 C   0  0  0  0  0  0  0  0  0  0  0  0
   14.7518   -2.7592   -0.0000 C   0  0  0  0  0  0  0  0  0  0  0  0
   12.7793   -4.5381   -0.0000 C   0  0  0  0  0  0  0  0  0  0  0  0
   15.7684   -3.8846   -0.0000 C   0  0  0  0  0  0  0  0  0  0  0  0
   13.7958   -5.6635   -0.0000 C   0  0  0  0  0  0  0  0  0  0  0  0
   15.2843   -5.3368   -0.0000 N   0  0  0  0  0  0  0  0  0  0  0  0
   16.0951   -6.2444   -0.0000 C   0  0  0  0  0  0  0  0  0  0  0  0
  1  2  2  0  0  0  0
  2  3  1  0  0  0  0
  2  4  1  0  0  0  0
  3  5  1  0  0  0  0
  3  6  1  0  0  0  0
  4  7  1  0  0  0  0
  4  8  1  6  0  0  0
  5  9  1  0  0  0  0
  6 10  1  0  0  0  0
  7 11  1  0  0  0  0
  8 12  1  0  0  0  0
  9 13  1  1  0  0  0
 10 14  2  0  0  0  0
 10 15  1  0  0  0  0
 11 16  2  0  0  0  0
 11 17  1  0  0  0  0
 12 18  2  0  0  0  0
 12 19  1  0  0  0  0
 13 20  1  0  0  0  0
 13 21  1  0  0  0  0
 14 22  1  0  0  0  0
 14 23  1  0  0  0  0
 15 24  2  0  0  0  0
 18 25  1  0  0  0  0
 19 26  2  0  0  0  0
 20 27  1  0  0  0  0
 21 28  2  0  0  0  0
 21 29  1  0  0  0  0
 22 30  1  0  0  0  0
 22 31  1  0  0  0  0
 23 32  1  0  0  0  0
 23 33  2  0  0  0  0
 25 34  2  0  0  0  0
 27 35  1  0  0  0  0
 29 36  1  0  0  0  0
 32 37  1  0  0  0  0
 34 38  1  0  0  0  0
 35 39  2  0  0  0  0
 36 40  1  0  0  0  0
 37 41  2  0  0  0  0
 37 42  1  0  0  0  0
 40 43  2  0  0  0  0
 40 44  1  0  0  0  0
 42 45  1  0  0  0  0
 42 46  1  0  0  0  0
 43 47  1  0  0  0  0
 44 48  2  0  0  0  0
 45 49  1  0  0  0  0
 46 50  1  0  0  0  0
 47 51  2  0  0  0  0
 49 52  1  0  0  0  0
 52 53  1  0  0  0  0
 53 54  1  0  0  0  0
 53 55  1  0  0  0  0
 54 56  1  0  0  0  0
 55 57  1  0  0  0  0
 56 58  1  0  0  0  0
 58 59  1  0  0  0  0
  7  9  1  0  0  0  0
 17 20  1  0  0  0  0
 24 33  1  0  0  0  0
 26 34  1  0  0  0  0
 30 32  2  0  0  0  0
 48 51  1  0  0  0  0
 50 52  1  0  0  0  0
 57 58  1  0  0  0  0
M  END
>  <MolRegNo>
2036049

>  <m>
=

>  <Value>
8550

>  <Unit>
nM

>  <Type>
IC50

>  <pValue>
5.07

>  <Ligand Efficiency>
0.12

>  <Binding Efficiency>
6.32

>  <Surface Efficiency>
3.95

>  <Assay Index>
974120

>  <Assay Category>


>  <Assay Organism>
Homo sapiens

>  <Target ID>
17045

>  <Target Name>
Cytochrome P450 3A4

>  <Target Organism>
Homo sapiens

>  <Target Description>
Target is a single protein chain

>  <Sequence Accession>
P08684

>  <Reference>


>  <Pubmed ID>


>  <DOI>


$$$$
2036050
Actelion Java MolfileCreator 1.0

 58 65  0  0  1  0  0  0  0  0999 V2000
    0.0000   -0.0000   -0.0000 O   0  0  0  0  0  0  0  0  0  0  0  0
   -0.0121    1.2429   -0.0000 C   0  0  0  0  0  0  0  0  0  0  0  0
    1.3032    2.0151   -0.0000 N   0  0  0  0  0  0  0  0  0  0  0  0
   -1.3515    2.0151   -0.0000 C   0  0  0  0  0  0  0  0  0  0  0  0
    1.2911    3.5596   -0.0000 C   0  0  0  0  0  0  0  0  0  0  0  0
    2.6184    1.2670   -0.0000 C   0  0  0  0  0  0  0  0  0  0  0  0
   -1.3635    3.5596   -0.0000 N   0  0  0  0  0  0  0  0  0  0  0  0
   -2.6908    1.2670   -0.0000 C   0  0  0  0  0  0  0  0  0  0  0  0
   -0.0483    4.3319   -0.0000 C   0  0  0  0  0  0  0  0  0  0  0  0
    3.9337    2.0513   -0.0000 C   0  0  0  0  0  0  0  0  0  0  0  0
   -2.7029    4.3319   -0.0000 C   0  0  0  0  0  0  0  0  0  0  0  0
   -4.0302    2.0513   -0.0000 C   0  0  0  0  0  0  0  0  0  0  0  0
   -0.0603    5.8764   -0.0000 N   0  0  0  0  0  0  0  0  0  0  0  0
    5.2490    1.3032   -0.0000 C   0  0  0  0  0  0  0  0  0  0  0  0
    3.9216    3.5958   -0.0000 C   0  0  0  0  0  0  0  0  0  0  0  0
   -3.7768    3.7286   -0.0000 O   0  0  0  0  0  0  0  0  0  0  0  0
   -2.7150    5.8764   -0.0000 C   0  0  0  0  0  0  0  0  0  0  0  0
   -5.3696    1.3032   -0.0000 C   0  0  0  0  0  0  0  0  0  0  0  0
   -4.0423    3.5958   -0.0000 C   0  0  0  0  0  0  0  0  0  0  0  0
   -1.3997    6.6487   -0.0000 N   0  0  0  0  0  0  0  0  0  0  0  0
    1.2549    6.6607   -0.0000 C   0  0  0  0  0  0  0  0  0  0  0  0
    5.5627   -0.1810   -0.0000 N   0  0  0  0  0  0  0  0  0  0  0  0
    6.5642    2.0875   -0.0000 C   0  0  0  0  0  0  0  0  0  0  0  0
    5.2369    4.3802   -0.0000 C   0  0  0  0  0  0  0  0  0  0  0  0
   -6.7090    2.0875   -0.0000 C   0  0  0  0  0  0  0  0  0  0  0  0
   -5.3817    4.3802   -0.0000 C   0  0  0  0  0  0  0  0  0  0  0  0
   -1.4118    8.1932   -0.0000 C   0  0  0  0  0  0  0  0  0  0  0  0
    2.3047    6.0574   -0.0000 O   0  0  0  0  0  0  0  0  0  0  0  0
    1.2429    8.2053   -0.0000 N   0  0  0  0  0  0  0  0  0  0  0  0
    7.0710   -0.3258   -0.0000 C   0  0  0  0  0  0  0  0  0  0  0  0
    4.7301   -1.0860   -0.0000 C   0  0  0  0  0  0  0  0  0  0  0  0
    7.6985    1.0739   -0.0000 C   0  0  0  0  0  0  0  0  0  0  0  0
    6.5521    3.6320   -0.0000 C   0  0  0  0  0  0  0  0  0  0  0  0
   -6.7211    3.6320   -0.0000 C   0  0  0  0  0  0  0  0  0  0  0  0
   -2.7512    8.9655   -0.0000 C   0  0  0  0  0  0  0  0  0  0  0  0
    2.5581    8.9896   -0.0000 C   0  0  0  0  0  0  0  0  0  0  0  0
    9.1827    1.4118   -0.0000 C   0  0  0  0  0  0  0  0  0  0  0  0
   -7.7950    4.2595   -0.0000 O   0  0  0  0  0  0  0  0  0  0  0  0
   -2.7632   10.2083   -0.0000 C   0  0  0  0  0  0  0  0  0  0  0  0
    2.5460   10.5341   -0.0000 C   0  0  0  0  0  0  0  0  0  0  0  0
    9.5447    2.5943   -0.0000 O   0  0  0  0  0  0  0  0  0  0  0  0
   10.1963    0.2896   -0.0000 N   0  0  0  0  0  0  0  0  0  0  0  0
    3.8613   11.3184   -0.0000 C   0  0  0  0  0  0  0  0  0  0  0  0
    1.2067   11.3064   -0.0000 C   0  0  0  0  0  0  0  0  0  0  0  0
   11.6804    0.6154   -0.0000 C   0  0  0  0  0  0  0  0  0  0  0  0
    9.7136   -1.1584   -0.0000 C   0  0  0  0  0  0  0  0  0  0  0  0
    3.8492   12.8630   -0.0000 C   0  0  0  0  0  0  0  0  0  0  0  0
    1.1946   12.8509   -0.0000 C   0  0  0  0  0  0  0  0  0  0  0  0
   12.6940   -0.5068   -0.0000 C   0  0  0  0  0  0  0  0  0  0  0  0
   10.7272   -2.2806   -0.0000 C   0  0  0  0  0  0  0  0  0  0  0  0
    2.5098   13.6352   -0.0000 C   0  0  0  0  0  0  0  0  0  0  0  0
   12.2114   -1.9548   -0.0000 C   0  0  0  0  0  0  0  0  0  0  0  0
   13.2250   -3.0770   -0.0000 N   0  0  0  0  0  0  0  0  0  0  0  0
   14.7092   -2.7512   -0.0000 C   0  0  0  0  0  0  0  0  0  0  0  0
   12.7423   -4.5250   -0.0000 C   0  0  0  0  0  0  0  0  0  0  0  0
   15.7227   -3.8734   -0.0000 C   0  0  0  0  0  0  0  0  0  0  0  0
   13.7559   -5.6472   -0.0000 C   0  0  0  0  0  0  0  0  0  0  0  0
   15.2401   -5.3214   -0.0000 O   0  0  0  0  0  0  0  0  0  0  0  0
  1  2  2  0  0  0  0
  2  3  1  0  0  0  0
  2  4  1  0  0  0  0
  3  5  1  0  0  0  0
  3  6  1  0  0  0  0
  4  7  1  0  0  0  0
  4  8  1  6  0  0  0
  5  9  1  0  0  0  0
  6 10  1  0  0  0  0
  7 11  1  0  0  0  0
  8 12  1  0  0  0  0
  9 13  1  1  0  0  0
 10 14  2  0  0  0  0
 10 15  1  0  0  0  0
 11 16  2  0  0  0  0
 11 17  1  0  0  0  0
 12 18  2  0  0  0  0
 12 19  1  0  0  0  0
 13 20  1  0  0  0  0
 13 21  1  0  0  0  0
 14 22  1  0  0  0  0
 14 23  1  0  0  0  0
 15 24  2  0  0  0  0
 18 25  1  0  0  0  0
 19 26  2  0  0  0  0
 20 27  1  0  0  0  0
 21 28  2  0  0  0  0
 21 29  1  0  0  0  0
 22 30  1  0  0  0  0
 22 31  1  0  0  0  0
 23 32  1  0  0  0  0
 23 33  2  0  0  0  0
 25 34  2  0  0  0  0
 27 35  1  0  0  0  0
 29 36  1  0  0  0  0
 32 37  1  0  0  0  0
 34 38  1  0  0  0  0
 35 39  2  0  0  0  0
 36 40  1  0  0  0  0
 37 41  2  0  0  0  0
 37 42  1  0  0  0  0
 40 43  2  0  0  0  0
 40 44  1  0  0  0  0
 42 45  1  0  0  0  0
 42 46  1  0  0  0  0
 43 47  1  0  0  0  0
 44 48  2  0  0  0  0
 45 49  1  0  0  0  0
 46 50  1  0  0  0  0
 47 51  2  0  0  0  0
 49 52  1  0  0  0  0
 52 53  1  0  0  0  0
 53 54  1  0  0  0  0
 53 55  1  0  0  0  0
 54 56  1  0  0  0  0
 55 57  1  0  0  0  0
 56 58  1  0  0  0  0
  7  9  1  0  0  0  0
 17 20  1  0  0  0  0
 24 33  1  0  0  0  0
 26 34  1  0  0  0  0
 30 32  2  0  0  0  0
 48 51  1  0  0  0  0
 50 52  1  0  0  0  0
 57 58  1  0  0  0  0
M  END
>  <MolRegNo>
2036050

>  <m>
=

>  <Value>
2110

>  <Unit>
nM

>  <Type>
IC50

>  <pValue>
5.68

>  <Ligand Efficiency>
0.13

>  <Binding Efficiency>
7.19

>  <Surface Efficiency>
4.23

>  <Assay Index>
974120

>  <Assay Category>


>  <Assay Organism>
Homo sapiens

>  <Target ID>
17045

>  <Target Name>
Cytochrome P450 3A4

>  <Target Organism>
Homo sapiens

>  <Target Description>
Target is a single protein chain

>  <Sequence Accession>
P08684

>  <Reference>


>  <Pubmed ID>


>  <DOI>


$$$$
2036051
Actelion Java MolfileCreator 1.0

 55 62  0  0  1  0  0  0  0  0999 V2000
    0.0000   -0.0000   -0.0000 O   0  0  0  0  0  0  0  0  0  0  0  0
   -0.0121    1.2475   -0.0000 C   0  0  0  0  0  0  0  0  0  0  0  0
    1.3081    2.0227   -0.0000 N   0  0  0  0  0  0  0  0  0  0  0  0
   -1.3565    2.0227   -0.0000 C   0  0  0  0  0  0  0  0  0  0  0  0
    1.2960    3.5730   -0.0000 C   0  0  0  0  0  0  0  0  0  0  0  0
    2.6283    1.2717   -0.0000 C   0  0  0  0  0  0  0  0  0  0  0  0
   -1.3686    3.5730   -0.0000 N   0  0  0  0  0  0  0  0  0  0  0  0
   -2.7009    1.2717   -0.0000 C   0  0  0  0  0  0  0  0  0  0  0  0
   -0.0484    4.3481   -0.0000 C   0  0  0  0  0  0  0  0  0  0  0  0
    3.9484    2.0590   -0.0000 C   0  0  0  0  0  0  0  0  0  0  0  0
   -2.7130    4.3481   -0.0000 C   0  0  0  0  0  0  0  0  0  0  0  0
   -4.0453    2.0590   -0.0000 C   0  0  0  0  0  0  0  0  0  0  0  0
   -0.0606    5.8984   -0.0000 N   0  0  0  0  0  0  0  0  0  0  0  0
    5.2686    1.3081   -0.0000 C   0  0  0  0  0  0  0  0  0  0  0  0
    3.9363    3.6093   -0.0000 C   0  0  0  0  0  0  0  0  0  0  0  0
   -3.7910    3.7425   -0.0000 O   0  0  0  0  0  0  0  0  0  0  0  0
   -2.7252    5.8984   -0.0000 C   0  0  0  0  0  0  0  0  0  0  0  0
   -5.3898    1.3081   -0.0000 C   0  0  0  0  0  0  0  0  0  0  0  0
   -4.0575    3.6093   -0.0000 C   0  0  0  0  0  0  0  0  0  0  0  0
   -1.4050    6.6736   -0.0000 N   0  0  0  0  0  0  0  0  0  0  0  0
    1.2596    6.6857   -0.0000 C   0  0  0  0  0  0  0  0  0  0  0  0
    5.5835   -0.1817   -0.0000 N   0  0  0  0  0  0  0  0  0  0  0  0
    6.5888    2.0953   -0.0000 C   0  0  0  0  0  0  0  0  0  0  0  0
    5.2565    4.3966   -0.0000 C   0  0  0  0  0  0  0  0  0  0  0  0
   -6.7342    2.0953   -0.0000 C   0  0  0  0  0  0  0  0  0  0  0  0
   -5.4019    4.3966   -0.0000 C   0  0  0  0  0  0  0  0  0  0  0  0
   -1.4171    8.2239   -0.0000 C   0  0  0  0  0  0  0  0  0  0  0  0
    2.3134    6.0801   -0.0000 O   0  0  0  0  0  0  0  0  0  0  0  0
    1.2475    8.2360   -0.0000 N   0  0  0  0  0  0  0  0  0  0  0  0
    7.0975   -0.3270   -0.0000 C   0  0  0  0  0  0  0  0  0  0  0  0
    4.7478   -1.0901   -0.0000 C   0  0  0  0  0  0  0  0  0  0  0  0
    7.7273    1.0780   -0.0000 C   0  0  0  0  0  0  0  0  0  0  0  0
    6.5767    3.6457   -0.0000 C   0  0  0  0  0  0  0  0  0  0  0  0
   -6.7463    3.6457   -0.0000 C   0  0  0  0  0  0  0  0  0  0  0  0
   -2.7615    8.9991   -0.0000 C   0  0  0  0  0  0  0  0  0  0  0  0
    2.5677    9.0233   -0.0000 C   0  0  0  0  0  0  0  0  0  0  0  0
    9.2171    1.4171   -0.0000 C   0  0  0  0  0  0  0  0  0  0  0  0
   -7.8242    4.2755   -0.0000 O   0  0  0  0  0  0  0  0  0  0  0  0
   -2.7736   10.2466   -0.0000 C   0  0  0  0  0  0  0  0  0  0  0  0
    2.5556   10.5736   -0.0000 C   0  0  0  0  0  0  0  0  0  0  0  0
    9.5804    2.6040   -0.0000 O   0  0  0  0  0  0  0  0  0  0  0  0
   10.2345    0.2907   -0.0000 N   0  0  0  0  0  0  0  0  0  0  0  0
    3.8758   11.3609   -0.0000 C   0  0  0  0  0  0  0  0  0  0  0  0
    1.2112   11.3488   -0.0000 C   0  0  0  0  0  0  0  0  0  0  0  0
    9.8832   -1.1870   -0.0000 C   0  0  0  0  0  0  0  0  0  0  0  0
   11.7363    0.4845   -0.0000 C   0  0  0  0  0  0  0  0  0  0  0  0
    3.8637   12.9112   -0.0000 C   0  0  0  0  0  0  0  0  0  0  0  0
    1.1991   12.8991   -0.0000 C   0  0  0  0  0  0  0  0  0  0  0  0
   11.2034   -1.9379   -0.0000 C   0  0  0  0  0  0  0  0  0  0  0  0
   12.3540   -0.9084   -0.0000 C   0  0  0  0  0  0  0  0  0  0  0  0
    2.5193   13.6863   -0.0000 C   0  0  0  0  0  0  0  0  0  0  0  0
   11.8211   -3.3307   -0.0000 N   0  0  0  0  0  0  0  0  0  0  0  0
   13.6742   -1.6593   -0.0000 C   0  0  0  0  0  0  0  0  0  0  0  0
   13.3351   -3.1612   -0.0000 C   0  0  0  0  0  0  0  0  0  0  0  0
   11.1913   -4.3845   -0.0000 C   0  0  0  0  0  0  0  0  0  0  0  0
  1  2  2  0  0  0  0
  2  3  1  0  0  0  0
  2  4  1  0  0  0  0
  3  5  1  0  0  0  0
  3  6  1  0  0  0  0
  4  7  1  0  0  0  0
  4  8  1  6  0  0  0
  5  9  1  0  0  0  0
  6 10  1  0  0  0  0
  7 11  1  0  0  0  0
  8 12  1  0  0  0  0
  9 13  1  1  0  0  0
 10 14  2  0  0  0  0
 10 15  1  0  0  0  0
 11 16  2  0  0  0  0
 11 17  1  0  0  0  0
 12 18  2  0  0  0  0
 12 19  1  0  0  0  0
 13 20  1  0  0  0  0
 13 21  1  0  0  0  0
 14 22  1  0  0  0  0
 14 23  1  0  0  0  0
 15 24  2  0  0  0  0
 18 25  1  0  0  0  0
 19 26  2  0  0  0  0
 20 27  1  0  0  0  0
 21 28  2  0  0  0  0
 21 29  1  0  0  0  0
 22 30  1  0  0  0  0
 22 31  1  0  0  0  0
 23 32  1  0  0  0  0
 23 33  2  0  0  0  0
 25 34  2  0  0  0  0
 27 35  1  0  0  0  0
 29 36  1  0  0  0  0
 32 37  1  0  0  0  0
 34 38  1  0  0  0  0
 35 39  2  0  0  0  0
 36 40  1  0  0  0  0
 37 41  2  0  0  0  0
 37 42  1  0  0  0  0
 40 43  2  0  0  0  0
 40 44  1  0  0  0  0
 42 45  1  0  0  0  0
 42 46  1  0  0  0  0
 43 47  1  0  0  0  0
 44 48  2  0  0  0  0
 45 49  1  0  0  0  0
 46 50  1  0  0  0  0
 47 51  2  0  0  0  0
 49 52  1  0  0  0  0
 50 53  1  0  0  0  0
 52 54  1  0  0  0  0
 52 55  1  0  0  0  0
  7  9  1  0  0  0  0
 17 20  1  0  0  0  0
 24 33  1  0  0  0  0
 26 34  1  0  0  0  0
 30 32  2  0  0  0  0
 48 51  1  0  0  0  0
 49 50  1  0  0  0  0
 53 54  1  0  0  0  0
M  END
>  <MolRegNo>
2036051

>  <m>
=

>  <Value>
2450

>  <Unit>
nM

>  <Type>
IC50

>  <pValue>
5.61

>  <Ligand Efficiency>
0.14

>  <Binding Efficiency>
7.53

>  <Surface Efficiency>
4.49

>  <Assay Index>
974120

>  <Assay Category>


>  <Assay Organism>
Homo sapiens

>  <Target ID>
17045

>  <Target Name>
Cytochrome P450 3A4

>  <Target Organism>
Homo sapiens

>  <Target Description>
Target is a single protein chain

>  <Sequence Accession>
P08684

>  <Reference>


>  <Pubmed ID>


>  <DOI>


$$$$
2036052
Actelion Java MolfileCreator 1.0

 55 62  0  0  1  0  0  0  0  0999 V2000
    0.0000   -0.0000   -0.0000 O   0  0  0  0  0  0  0  0  0  0  0  0
   -0.0121    1.2473   -0.0000 C   0  0  0  0  0  0  0  0  0  0  0  0
    1.3079    2.0224   -0.0000 N   0  0  0  0  0  0  0  0  0  0  0  0
   -1.3563    2.0224   -0.0000 C   0  0  0  0  0  0  0  0  0  0  0  0
    1.2958    3.5724   -0.0000 C   0  0  0  0  0  0  0  0  0  0  0  0
    2.6279    1.2715   -0.0000 C   0  0  0  0  0  0  0  0  0  0  0  0
   -1.3684    3.5724   -0.0000 N   0  0  0  0  0  0  0  0  0  0  0  0
   -2.7005    1.2715   -0.0000 C   0  0  0  0  0  0  0  0  0  0  0  0
   -0.0484    4.3475   -0.0000 C   0  0  0  0  0  0  0  0  0  0  0  0
    3.9478    2.0587   -0.0000 C   0  0  0  0  0  0  0  0  0  0  0  0
   -2.7126    4.3475   -0.0000 C   0  0  0  0  0  0  0  0  0  0  0  0
   -4.0447    2.0587   -0.0000 C   0  0  0  0  0  0  0  0  0  0  0  0
   -0.0605    5.8975   -0.0000 N   0  0  0  0  0  0  0  0  0  0  0  0
    5.2678    1.3079   -0.0000 C   0  0  0  0  0  0  0  0  0  0  0  0
    3.9357    3.6088   -0.0000 C   0  0  0  0  0  0  0  0  0  0  0  0
   -3.7904    3.7420   -0.0000 O   0  0  0  0  0  0  0  0  0  0  0  0
   -2.7247    5.8975   -0.0000 C   0  0  0  0  0  0  0  0  0  0  0  0
   -5.3889    1.3079   -0.0000 C   0  0  0  0  0  0  0  0  0  0  0  0
   -4.0568    3.6088   -0.0000 C   0  0  0  0  0  0  0  0  0  0  0  0
   -1.4047    6.6726   -0.0000 N   0  0  0  0  0  0  0  0  0  0  0  0
    1.2594    6.6847   -0.0000 C   0  0  0  0  0  0  0  0  0  0  0  0
    5.5827   -0.1816   -0.0000 N   0  0  0  0  0  0  0  0  0  0  0  0
    6.5878    2.0950   -0.0000 C   0  0  0  0  0  0  0  0  0  0  0  0
    5.2557    4.3959   -0.0000 C   0  0  0  0  0  0  0  0  0  0  0  0
   -6.7331    2.0950   -0.0000 C   0  0  0  0  0  0  0  0  0  0  0  0
   -5.4010    4.3959   -0.0000 C   0  0  0  0  0  0  0  0  0  0  0  0
   -1.4169    8.2226   -0.0000 C   0  0  0  0  0  0  0  0  0  0  0  0
    2.3130    6.0792   -0.0000 O   0  0  0  0  0  0  0  0  0  0  0  0
    1.2473    8.2347   -0.0000 N   0  0  0  0  0  0  0  0  0  0  0  0
    7.0964   -0.3270   -0.0000 C   0  0  0  0  0  0  0  0  0  0  0  0
    4.7471   -1.0899   -0.0000 C   0  0  0  0  0  0  0  0  0  0  0  0
    7.7261    1.0778   -0.0000 C   0  0  0  0  0  0  0  0  0  0  0  0
    6.5757    3.6451   -0.0000 C   0  0  0  0  0  0  0  0  0  0  0  0
   -6.7452    3.6451   -0.0000 C   0  0  0  0  0  0  0  0  0  0  0  0
   -2.7611    8.9977   -0.0000 C   0  0  0  0  0  0  0  0  0  0  0  0
    2.5673    9.0219   -0.0000 C   0  0  0  0  0  0  0  0  0  0  0  0
    9.2156    1.4169   -0.0000 C   0  0  0  0  0  0  0  0  0  0  0  0
   -7.8230    4.2748   -0.0000 O   0  0  0  0  0  0  0  0  0  0  0  0
   -2.7732   10.2450   -0.0000 C   0  0  0  0  0  0  0  0  0  0  0  0
    2.5552   10.5720   -0.0000 C   0  0  0  0  0  0  0  0  0  0  0  0
    9.5789    2.6036   -0.0000 O   0  0  0  0  0  0  0  0  0  0  0  0
   10.2329    0.2906   -0.0000 N   0  0  0  0  0  0  0  0  0  0  0  0
    3.8752   11.3591   -0.0000 C   0  0  0  0  0  0  0  0  0  0  0  0
    1.2110   11.3470   -0.0000 C   0  0  0  0  0  0  0  0  0  0  0  0
   11.7345    0.4844   -0.0000 C   0  0  0  0  0  0  0  0  0  0  0  0
    9.8817   -1.1868   -0.0000 C   0  0  0  0  0  0  0  0  0  0  0  0
    3.8631   12.9092   -0.0000 C   0  0  0  0  0  0  0  0  0  0  0  0
    1.1989   12.8971   -0.0000 C   0  0  0  0  0  0  0  0  0  0  0  0
   12.3521   -0.9082   -0.0000 C   0  0  0  0  0  0  0  0  0  0  0  0
   12.8607    1.5258   -0.0000 C   0  0  0  0  0  0  0  0  0  0  0  0
   11.2017   -1.9376   -0.0000 C   0  0  0  0  0  0  0  0  0  0  0  0
    2.5189   13.6842   -0.0000 C   0  0  0  0  0  0  0  0  0  0  0  0
   13.8659   -0.7387   -0.0000 C   0  0  0  0  0  0  0  0  0  0  0  0
   14.1807    0.7750   -0.0000 N   0  0  0  0  0  0  0  0  0  0  0  0
   15.2948    1.2837   -0.0000 C   0  0  0  0  0  0  0  0  0  0  0  0
  1  2  2  0  0  0  0
  2  3  1  0  0  0  0
  2  4  1  0  0  0  0
  3  5  1  0  0  0  0
  3  6  1  0  0  0  0
  4  7  1  0  0  0  0
  4  8  1  6  0  0  0
  5  9  1  0  0  0  0
  6 10  1  0  0  0  0
  7 11  1  0  0  0  0
  8 12  1  0  0  0  0
  9 13  1  1  0  0  0
 10 14  2  0  0  0  0
 10 15  1  0  0  0  0
 11 16  2  0  0  0  0
 11 17  1  0  0  0  0
 12 18  2  0  0  0  0
 12 19  1  0  0  0  0
 13 20  1  0  0  0  0
 13 21  1  0  0  0  0
 14 22  1  0  0  0  0
 14 23  1  0  0  0  0
 15 24  2  0  0  0  0
 18 25  1  0  0  0  0
 19 26  2  0  0  0  0
 20 27  1  0  0  0  0
 21 28  2  0  0  0  0
 21 29  1  0  0  0  0
 22 30  1  0  0  0  0
 22 31  1  0  0  0  0
 23 32  1  0  0  0  0
 23 33  2  0  0  0  0
 25 34  2  0  0  0  0
 27 35  1  0  0  0  0
 29 36  1  0  0  0  0
 32 37  1  0  0  0  0
 34 38  1  0  0  0  0
 35 39  2  0  0  0  0
 36 40  1  0  0  0  0
 37 41  2  0  0  0  0
 37 42  1  0  0  0  0
 40 43  2  0  0  0  0
 40 44  1  0  0  0  0
 42 45  1  0  0  0  0
 42 46  1  0  0  0  0
 43 47  1  0  0  0  0
 44 48  2  0  0  0  0
 45 49  1  0  0  0  0
 45 50  1  0  0  0  0
 46 51  1  0  0  0  0
 47 52  2  0  0  0  0
 49 53  1  0  0  0  0
 50 54  1  0  0  0  0
 54 55  1  0  0  0  0
  7  9  1  0  0  0  0
 17 20  1  0  0  0  0
 24 33  1  0  0  0  0
 26 34  1  0  0  0  0
 30 32  2  0  0  0  0
 48 52  1  0  0  0  0
 49 51  1  0  0  0  0
 53 54  1  0  0  0  0
M  END
>  <MolRegNo>
2036052

>  <m>
=

>  <Value>
4490

>  <Unit>
nM

>  <Type>
IC50

>  <pValue>
5.35

>  <Ligand Efficiency>
0.13

>  <Binding Efficiency>
7.18

>  <Surface Efficiency>
4.28

>  <Assay Index>
974120

>  <Assay Category>


>  <Assay Organism>
Homo sapiens

>  <Target ID>
17045

>  <Target Name>
Cytochrome P450 3A4

>  <Target Organism>
Homo sapiens

>  <Target Description>
Target is a single protein chain

>  <Sequence Accession>
P08684

>  <Reference>


>  <Pubmed ID>


>  <DOI>


$$$$
2036053
Actelion Java MolfileCreator 1.0

 51 57  0  0  1  0  0  0  0  0999 V2000
    0.0000   -0.0000   -0.0000 O   0  0  0  0  0  0  0  0  0  0  0  0
   -0.0121    1.2505   -0.0000 C   0  0  0  0  0  0  0  0  0  0  0  0
    1.3112    2.0275   -0.0000 N   0  0  0  0  0  0  0  0  0  0  0  0
   -1.3597    2.0275   -0.0000 C   0  0  0  0  0  0  0  0  0  0  0  0
    1.2990    3.5814   -0.0000 C   0  0  0  0  0  0  0  0  0  0  0  0
    2.6345    1.2747   -0.0000 C   0  0  0  0  0  0  0  0  0  0  0  0
   -1.3719    3.5814   -0.0000 N   0  0  0  0  0  0  0  0  0  0  0  0
   -2.7073    1.2747   -0.0000 C   0  0  0  0  0  0  0  0  0  0  0  0
   -0.0486    4.3584   -0.0000 C   0  0  0  0  0  0  0  0  0  0  0  0
    3.9578    2.0639   -0.0000 C   0  0  0  0  0  0  0  0  0  0  0  0
   -2.7195    4.3584   -0.0000 C   0  0  0  0  0  0  0  0  0  0  0  0
   -4.0549    2.0639   -0.0000 C   0  0  0  0  0  0  0  0  0  0  0  0
   -0.0607    5.9124   -0.0000 N   0  0  0  0  0  0  0  0  0  0  0  0
    5.2811    1.3112   -0.0000 C   0  0  0  0  0  0  0  0  0  0  0  0
    3.9456    3.6178   -0.0000 C   0  0  0  0  0  0  0  0  0  0  0  0
   -3.8000    3.7514   -0.0000 O   0  0  0  0  0  0  0  0  0  0  0  0
   -2.7316    5.9124   -0.0000 C   0  0  0  0  0  0  0  0  0  0  0  0
   -5.4025    1.3112   -0.0000 C   0  0  0  0  0  0  0  0  0  0  0  0
   -4.0670    3.6178   -0.0000 C   0  0  0  0  0  0  0  0  0  0  0  0
   -1.4083    6.6894   -0.0000 N   0  0  0  0  0  0  0  0  0  0  0  0
    1.2626    6.7015   -0.0000 C   0  0  0  0  0  0  0  0  0  0  0  0
    5.5967   -0.1821   -0.0000 N   0  0  0  0  0  0  0  0  0  0  0  0
    6.6044    2.1003   -0.0000 C   0  0  0  0  0  0  0  0  0  0  0  0
    5.2689    4.4070   -0.0000 C   0  0  0  0  0  0  0  0  0  0  0  0
   -6.7501    2.1003   -0.0000 C   0  0  0  0  0  0  0  0  0  0  0  0
   -5.4146    4.4070   -0.0000 C   0  0  0  0  0  0  0  0  0  0  0  0
   -1.4204    8.2434   -0.0000 C   0  0  0  0  0  0  0  0  0  0  0  0
    2.3188    6.0945   -0.0000 O   0  0  0  0  0  0  0  0  0  0  0  0
    1.2505    8.2555   -0.0000 N   0  0  0  0  0  0  0  0  0  0  0  0
    7.1143   -0.3278   -0.0000 C   0  0  0  0  0  0  0  0  0  0  0  0
    4.7591   -1.0926   -0.0000 C   0  0  0  0  0  0  0  0  0  0  0  0
    7.7456    1.0805   -0.0000 C   0  0  0  0  0  0  0  0  0  0  0  0
    6.5923    3.6543   -0.0000 C   0  0  0  0  0  0  0  0  0  0  0  0
   -6.7622    3.6543   -0.0000 C   0  0  0  0  0  0  0  0  0  0  0  0
   -2.7680    9.0203   -0.0000 C   0  0  0  0  0  0  0  0  0  0  0  0
    2.5738    9.0446   -0.0000 C   0  0  0  0  0  0  0  0  0  0  0  0
    9.2389    1.4204   -0.0000 C   0  0  0  0  0  0  0  0  0  0  0  0
   -7.8427    4.2856   -0.0000 O   0  0  0  0  0  0  0  0  0  0  0  0
   -2.7802   10.2708   -0.0000 C   0  0  0  0  0  0  0  0  0  0  0  0
    2.5616   10.5986   -0.0000 C   0  0  0  0  0  0  0  0  0  0  0  0
    9.6031    2.6102   -0.0000 O   0  0  0  0  0  0  0  0  0  0  0  0
   10.2587    0.2914   -0.0000 N   0  0  0  0  0  0  0  0  0  0  0  0
    3.8849   11.3877   -0.0000 C   0  0  0  0  0  0  0  0  0  0  0  0
    1.2140   11.3756   -0.0000 C   0  0  0  0  0  0  0  0  0  0  0  0
   11.7519    0.2671   -0.0000 C   0  0  0  0  0  0  0  0  0  0  0  0
   10.1251   -1.2019   -0.0000 C   0  0  0  0  0  0  0  0  0  0  0  0
    3.8728   12.9417   -0.0000 C   0  0  0  0  0  0  0  0  0  0  0  0
    1.2019   12.9296   -0.0000 C   0  0  0  0  0  0  0  0  0  0  0  0
   11.6548   -1.2626   -0.0000 C   0  0  0  0  0  0  0  0  0  0  0  0
    2.5252   13.7187   -0.0000 C   0  0  0  0  0  0  0  0  0  0  0  0
   12.4682   -2.1610   -0.0000 O   0  0  0  0  0  0  0  0  0  0  0  0
  1  2  2  0  0  0  0
  2  3  1  0  0  0  0
  2  4  1  0  0  0  0
  3  5  1  0  0  0  0
  3  6  1  0  0  0  0
  4  7  1  0  0  0  0
  4  8  1  6  0  0  0
  5  9  1  0  0  0  0
  6 10  1  0  0  0  0
  7 11  1  0  0  0  0
  8 12  1  0  0  0  0
  9 13  1  1  0  0  0
 10 14  2  0  0  0  0
 10 15  1  0  0  0  0
 11 16  2  0  0  0  0
 11 17  1  0  0  0  0
 12 18  2  0  0  0  0
 12 19  1  0  0  0  0
 13 20  1  0  0  0  0
 13 21  1  0  0  0  0
 14 22  1  0  0  0  0
 14 23  1  0  0  0  0
 15 24  2  0  0  0  0
 18 25  1  0  0  0  0
 19 26  2  0  0  0  0
 20 27  1  0  0  0  0
 21 28  2  0  0  0  0
 21 29  1  0  0  0  0
 22 30  1  0  0  0  0
 22 31  1  0  0  0  0
 23 32  1  0  0  0  0
 23 33  2  0  0  0  0
 25 34  2  0  0  0  0
 27 35  1  0  0  0  0
 29 36  1  0  0  0  0
 32 37  1  0  0  0  0
 34 38  1  0  0  0  0
 35 39  2  0  0  0  0
 36 40  1  0  0  0  0
 37 41  2  0  0  0  0
 37 42  1  0  0  0  0
 40 43  2  0  0  0  0
 40 44  1  0  0  0  0
 42 45  1  0  0  0  0
 42 46  1  0  0  0  0
 43 47  1  0  0  0  0
 44 48  2  0  0  0  0
 45 49  1  0  0  0  0
 47 50  2  0  0  0  0
 49 51  1  0  0  0  0
  7  9  1  0  0  0  0
 17 20  1  0  0  0  0
 24 33  1  0  0  0  0
 26 34  1  0  0  0  0
 30 32  2  0  0  0  0
 46 49  1  0  0  0  0
 48 50  1  0  0  0  0
M  END
>  <MolRegNo>
2036053

>  <m>
=

>  <Value>
18300

>  <Unit>
nM

>  <Type>
IC50

>  <pValue>
4.74

>  <Ligand Efficiency>
0.13

>  <Binding Efficiency>
6.85

>  <Surface Efficiency>
3.34

>  <Assay Index>
974120

>  <Assay Category>


>  <Assay Organism>
Homo sapiens

>  <Target ID>
17045

>  <Target Name>
Cytochrome P450 3A4

>  <Target Organism>
Homo sapiens

>  <Target Description>
Target is a single protein chain

>  <Sequence Accession>
P08684

>  <Reference>


>  <Pubmed ID>


>  <DOI>


$$$$
2036055
Actelion Java MolfileCreator 1.0

 56 63  0  0  1  0  0  0  0  0999 V2000
    0.0000   -0.0000   -0.0000 O   0  0  0  0  0  0  0  0  0  0  0  0
   -0.0121    1.2443   -0.0000 C   0  0  0  0  0  0  0  0  0  0  0  0
    1.3047    2.0174   -0.0000 N   0  0  0  0  0  0  0  0  0  0  0  0
   -1.3530    2.0174   -0.0000 C   0  0  0  0  0  0  0  0  0  0  0  0
    1.2926    3.5637   -0.0000 C   0  0  0  0  0  0  0  0  0  0  0  0
    2.6214    1.2684   -0.0000 C   0  0  0  0  0  0  0  0  0  0  0  0
   -1.3651    3.5637   -0.0000 N   0  0  0  0  0  0  0  0  0  0  0  0
   -2.6939    1.2684   -0.0000 C   0  0  0  0  0  0  0  0  0  0  0  0
   -0.0483    4.3368   -0.0000 C   0  0  0  0  0  0  0  0  0  0  0  0
    3.9382    2.0537   -0.0000 C   0  0  0  0  0  0  0  0  0  0  0  0
   -2.7060    4.3368   -0.0000 C   0  0  0  0  0  0  0  0  0  0  0  0
   -4.0348    2.0537   -0.0000 C   0  0  0  0  0  0  0  0  0  0  0  0
   -0.0604    5.8831   -0.0000 N   0  0  0  0  0  0  0  0  0  0  0  0
    5.2549    1.3047   -0.0000 C   0  0  0  0  0  0  0  0  0  0  0  0
    3.9261    3.5999   -0.0000 C   0  0  0  0  0  0  0  0  0  0  0  0
   -3.7811    3.7328   -0.0000 O   0  0  0  0  0  0  0  0  0  0  0  0
   -2.7181    5.8831   -0.0000 C   0  0  0  0  0  0  0  0  0  0  0  0
   -5.3758    1.3047   -0.0000 C   0  0  0  0  0  0  0  0  0  0  0  0
   -4.0469    3.5999   -0.0000 C   0  0  0  0  0  0  0  0  0  0  0  0
   -1.4013    6.6563   -0.0000 N   0  0  0  0  0  0  0  0  0  0  0  0
    1.2564    6.6683   -0.0000 C   0  0  0  0  0  0  0  0  0  0  0  0
    5.5690   -0.1812   -0.0000 N   0  0  0  0  0  0  0  0  0  0  0  0
    6.5717    2.0899   -0.0000 C   0  0  0  0  0  0  0  0  0  0  0  0
    5.2429    4.3852   -0.0000 C   0  0  0  0  0  0  0  0  0  0  0  0
   -6.7167    2.0899   -0.0000 C   0  0  0  0  0  0  0  0  0  0  0  0
   -5.3878    4.3852   -0.0000 C   0  0  0  0  0  0  0  0  0  0  0  0
   -1.4134    8.2026   -0.0000 C   0  0  0  0  0  0  0  0  0  0  0  0
    2.3073    6.0643   -0.0000 O   0  0  0  0  0  0  0  0  0  0  0  0
    1.2443    8.2146   -0.0000 N   0  0  0  0  0  0  0  0  0  0  0  0
    7.0791   -0.3262   -0.0000 C   0  0  0  0  0  0  0  0  0  0  0  0
    4.7355   -1.0872   -0.0000 C   0  0  0  0  0  0  0  0  0  0  0  0
    7.7073    1.0752   -0.0000 C   0  0  0  0  0  0  0  0  0  0  0  0
    6.5596    3.6362   -0.0000 C   0  0  0  0  0  0  0  0  0  0  0  0
   -6.7287    3.6362   -0.0000 C   0  0  0  0  0  0  0  0  0  0  0  0
   -2.7543    8.9757   -0.0000 C   0  0  0  0  0  0  0  0  0  0  0  0
    2.5610    8.9999   -0.0000 C   0  0  0  0  0  0  0  0  0  0  0  0
    9.1931    1.4134   -0.0000 C   0  0  0  0  0  0  0  0  0  0  0  0
   -7.8039    4.2644   -0.0000 O   0  0  0  0  0  0  0  0  0  0  0  0
   -2.7664   10.2200   -0.0000 C   0  0  0  0  0  0  0  0  0  0  0  0
    2.5490   10.5461   -0.0000 C   0  0  0  0  0  0  0  0  0  0  0  0
    9.5555    2.5973   -0.0000 O   0  0  0  0  0  0  0  0  0  0  0  0
   10.2079    0.2899   -0.0000 N   0  0  0  0  0  0  0  0  0  0  0  0
    3.8657   11.3314   -0.0000 C   0  0  0  0  0  0  0  0  0  0  0  0
    1.2080   11.3193   -0.0000 C   0  0  0  0  0  0  0  0  0  0  0  0
   11.6938    0.2658   -0.0000 C   0  0  0  0  0  0  0  0  0  0  0  0
   10.0750   -1.1960   -0.0000 C   0  0  0  0  0  0  0  0  0  0  0  0
    3.8536   12.8776   -0.0000 C   0  0  0  0  0  0  0  0  0  0  0  0
    1.1960   12.8656   -0.0000 C   0  0  0  0  0  0  0  0  0  0  0  0
   11.5971   -1.2564   -0.0000 C   0  0  0  0  0  0  0  0  0  0  0  0
    2.5127   13.6508   -0.0000 C   0  0  0  0  0  0  0  0  0  0  0  0
   12.6119   -2.3798   -0.0000 N   0  0  0  0  0  0  0  0  0  0  0  0
   14.1219   -2.3315   -0.0000 C   0  0  0  0  0  0  0  0  0  0  0  0
   11.8508   -3.7087   -0.0000 C   0  0  0  0  0  0  0  0  0  0  0  0
   14.9071   -3.6241   -0.0000 C   0  0  0  0  0  0  0  0  0  0  0  0
   12.6360   -5.0013   -0.0000 C   0  0  0  0  0  0  0  0  0  0  0  0
   14.1582   -4.9529   -0.0000 O   0  0  0  0  0  0  0  0  0  0  0  0
  1  2  2  0  0  0  0
  2  3  1  0  0  0  0
  2  4  1  0  0  0  0
  3  5  1  0  0  0  0
  3  6  1  0  0  0  0
  4  7  1  0  0  0  0
  4  8  1  6  0  0  0
  5  9  1  0  0  0  0
  6 10  1  0  0  0  0
  7 11  1  0  0  0  0
  8 12  1  0  0  0  0
  9 13  1  1  0  0  0
 10 14  2  0  0  0  0
 10 15  1  0  0  0  0
 11 16  2  0  0  0  0
 11 17  1  0  0  0  0
 12 18  2  0  0  0  0
 12 19  1  0  0  0  0
 13 20  1  0  0  0  0
 13 21  1  0  0  0  0
 14 22  1  0  0  0  0
 14 23  1  0  0  0  0
 15 24  2  0  0  0  0
 18 25  1  0  0  0  0
 19 26  2  0  0  0  0
 20 27  1  0  0  0  0
 21 28  2  0  0  0  0
 21 29  1  0  0  0  0
 22 30  1  0  0  0  0
 22 31  1  0  0  0  0
 23 32  1  0  0  0  0
 23 33  2  0  0  0  0
 25 34  2  0  0  0  0
 27 35  1  0  0  0  0
 29 36  1  0  0  0  0
 32 37  1  0  0  0  0
 34 38  1  0  0  0  0
 35 39  2  0  0  0  0
 36 40  1  0  0  0  0
 37 41  2  0  0  0  0
 37 42  1  0  0  0  0
 40 43  2  0  0  0  0
 40 44  1  0  0  0  0
 42 45  1  0  0  0  0
 42 46  1  0  0  0  0
 43 47  1  0  0  0  0
 44 48  2  0  0  0  0
 45 49  1  0  0  0  0
 47 50  2  0  0  0  0
 49 51  1  0  0  0  0
 51 52  1  0  0  0  0
 51 53  1  0  0  0  0
 52 54  1  0  0  0  0
 53 55  1  0  0  0  0
 54 56  1  0  0  0  0
  7  9  1  0  0  0  0
 17 20  1  0  0  0  0
 24 33  1  0  0  0  0
 26 34  1  0  0  0  0
 30 32  2  0  0  0  0
 46 49  1  0  0  0  0
 48 50  1  0  0  0  0
 55 56  1  0  0  0  0
M  END
>  <MolRegNo>
2036055

>  <m>
=

>  <Value>
5990

>  <Unit>
nM

>  <Type>
IC50

>  <pValue>
5.22

>  <Ligand Efficiency>
0.13

>  <Binding Efficiency>
6.86

>  <Surface Efficiency>
3.89

>  <Assay Index>
974120

>  <Assay Category>


>  <Assay Organism>
Homo sapiens

>  <Target ID>
17045

>  <Target Name>
Cytochrome P450 3A4

>  <Target Organism>
Homo sapiens

>  <Target Description>
Target is a single protein chain

>  <Sequence Accession>
P08684

>  <Reference>


>  <Pubmed ID>


>  <DOI>


$$$$
2036056
Actelion Java MolfileCreator 1.0

 58 65  0  0  1  0  0  0  0  0999 V2000
    0.0000   -0.0000   -0.0000 O   0  0  0  0  0  0  0  0  0  0  0  0
   -0.0121    1.2475   -0.0000 C   0  0  0  0  0  0  0  0  0  0  0  0
    1.3081    2.0227   -0.0000 N   0  0  0  0  0  0  0  0  0  0  0  0
   -1.3565    2.0227   -0.0000 C   0  0  0  0  0  0  0  0  0  0  0  0
    1.2960    3.5730   -0.0000 C   0  0  0  0  0  0  0  0  0  0  0  0
    2.6283    1.2718   -0.0000 C   0  0  0  0  0  0  0  0  0  0  0  0
   -1.3687    3.5730   -0.0000 N   0  0  0  0  0  0  0  0  0  0  0  0
   -2.7010    1.2718   -0.0000 C   0  0  0  0  0  0  0  0  0  0  0  0
   -0.0484    4.3482   -0.0000 C   0  0  0  0  0  0  0  0  0  0  0  0
    3.9485    2.0590   -0.0000 C   0  0  0  0  0  0  0  0  0  0  0  0
   -2.7131    4.3482   -0.0000 C   0  0  0  0  0  0  0  0  0  0  0  0
   -4.0454    2.0590   -0.0000 C   0  0  0  0  0  0  0  0  0  0  0  0
   -0.0606    5.8985   -0.0000 N   0  0  0  0  0  0  0  0  0  0  0  0
    5.2687    1.3081   -0.0000 C   0  0  0  0  0  0  0  0  0  0  0  0
    3.9364    3.6094   -0.0000 C   0  0  0  0  0  0  0  0  0  0  0  0
   -3.7910    3.7426   -0.0000 O   0  0  0  0  0  0  0  0  0  0  0  0
   -2.7252    5.8985   -0.0000 C   0  0  0  0  0  0  0  0  0  0  0  0
   -5.3898    1.3081   -0.0000 C   0  0  0  0  0  0  0  0  0  0  0  0
   -4.0575    3.6094   -0.0000 C   0  0  0  0  0  0  0  0  0  0  0  0
   -1.4050    6.6737   -0.0000 N   0  0  0  0  0  0  0  0  0  0  0  0
    1.2596    6.6858   -0.0000 C   0  0  0  0  0  0  0  0  0  0  0  0
    5.5836   -0.1817   -0.0000 N   0  0  0  0  0  0  0  0  0  0  0  0
    6.5889    2.0954   -0.0000 C   0  0  0  0  0  0  0  0  0  0  0  0
    5.2566    4.3966   -0.0000 C   0  0  0  0  0  0  0  0  0  0  0  0
   -6.7343    2.0954   -0.0000 C   0  0  0  0  0  0  0  0  0  0  0  0
   -5.4019    4.3966   -0.0000 C   0  0  0  0  0  0  0  0  0  0  0  0
   -1.4171    8.2240   -0.0000 C   0  0  0  0  0  0  0  0  0  0  0  0
    2.3134    6.0802   -0.0000 O   0  0  0  0  0  0  0  0  0  0  0  0
    1.2475    8.2361   -0.0000 N   0  0  0  0  0  0  0  0  0  0  0  0
    7.0976   -0.3270   -0.0000 C   0  0  0  0  0  0  0  0  0  0  0  0
    4.7479   -1.0901   -0.0000 C   0  0  0  0  0  0  0  0  0  0  0  0
    7.7274    1.0780   -0.0000 C   0  0  0  0  0  0  0  0  0  0  0  0
    6.5768    3.6457   -0.0000 C   0  0  0  0  0  0  0  0  0  0  0  0
   -6.7464    3.6457   -0.0000 C   0  0  0  0  0  0  0  0  0  0  0  0
   -2.7615    8.9992   -0.0000 C   0  0  0  0  0  0  0  0  0  0  0  0
    2.5677    9.0234   -0.0000 C   0  0  0  0  0  0  0  0  0  0  0  0
    9.2172    1.4171   -0.0000 C   0  0  0  0  0  0  0  0  0  0  0  0
   -7.8243    4.2755   -0.0000 O   0  0  0  0  0  0  0  0  0  0  0  0
   -2.7736   10.2467   -0.0000 C   0  0  0  0  0  0  0  0  0  0  0  0
    2.5556   10.5737   -0.0000 C   0  0  0  0  0  0  0  0  0  0  0  0
    9.5806    2.6041   -0.0000 O   0  0  0  0  0  0  0  0  0  0  0  0
   10.2346    0.2907   -0.0000 N   0  0  0  0  0  0  0  0  0  0  0  0
    3.8758   11.3610   -0.0000 C   0  0  0  0  0  0  0  0  0  0  0  0
    1.2112   11.3489   -0.0000 C   0  0  0  0  0  0  0  0  0  0  0  0
   11.7244    0.2665   -0.0000 C   0  0  0  0  0  0  0  0  0  0  0  0
   10.1014   -1.1991   -0.0000 C   0  0  0  0  0  0  0  0  0  0  0  0
    3.8637   12.9114   -0.0000 C   0  0  0  0  0  0  0  0  0  0  0  0
    1.1991   12.8992   -0.0000 C   0  0  0  0  0  0  0  0  0  0  0  0
   11.6275   -1.2596   -0.0000 C   0  0  0  0  0  0  0  0  0  0  0  0
    2.5193   13.6865   -0.0000 C   0  0  0  0  0  0  0  0  0  0  0  0
   12.6449   -2.3861   -0.0000 N   0  0  0  0  0  0  0  0  0  0  0  0
   14.1589   -2.3376   -0.0000 C   0  0  0  0  0  0  0  0  0  0  0  0
   11.8818   -3.7184   -0.0000 C   0  0  0  0  0  0  0  0  0  0  0  0
   14.9462   -3.6336   -0.0000 C   0  0  0  0  0  0  0  0  0  0  0  0
   12.6691   -5.0144   -0.0000 C   0  0  0  0  0  0  0  0  0  0  0  0
   14.1952   -4.9659   -0.0000 C   0  0  0  0  0  0  0  0  0  0  0  0
   14.9825   -6.2740   -0.0000 O   0  0  0  0  0  0  0  0  0  0  0  0
   14.3769   -7.3398   -0.0000 C   0  0  0  0  0  0  0  0  0  0  0  0
  1  2  2  0  0  0  0
  2  3  1  0  0  0  0
  2  4  1  0  0  0  0
  3  5  1  0  0  0  0
  3  6  1  0  0  0  0
  4  7  1  0  0  0  0
  4  8  1  6  0  0  0
  5  9  1  0  0  0  0
  6 10  1  0  0  0  0
  7 11  1  0  0  0  0
  8 12  1  0  0  0  0
  9 13  1  1  0  0  0
 10 14  2  0  0  0  0
 10 15  1  0  0  0  0
 11 16  2  0  0  0  0
 11 17  1  0  0  0  0
 12 18  2  0  0  0  0
 12 19  1  0  0  0  0
 13 20  1  0  0  0  0
 13 21  1  0  0  0  0
 14 22  1  0  0  0  0
 14 23  1  0  0  0  0
 15 24  2  0  0  0  0
 18 25  1  0  0  0  0
 19 26  2  0  0  0  0
 20 27  1  0  0  0  0
 21 28  2  0  0  0  0
 21 29  1  0  0  0  0
 22 30  1  0  0  0  0
 22 31  1  0  0  0  0
 23 32  1  0  0  0  0
 23 33  2  0  0  0  0
 25 34  2  0  0  0  0
 27 35  1  0  0  0  0
 29 36  1  0  0  0  0
 32 37  1  0  0  0  0
 34 38  1  0  0  0  0
 35 39  2  0  0  0  0
 36 40  1  0  0  0  0
 37 41  2  0  0  0  0
 37 42  1  0  0  0  0
 40 43  2  0  0  0  0
 40 44  1  0  0  0  0
 42 45  1  0  0  0  0
 42 46  1  0  0  0  0
 43 47  1  0  0  0  0
 44 48  2  0  0  0  0
 45 49  1  0  0  0  0
 47 50  2  0  0  0  0
 49 51  1  0  0  0  0
 51 52  1  0  0  0  0
 51 53  1  0  0  0  0
 52 54  1  0  0  0  0
 53 55  1  0  0  0  0
 54 56  1  0  0  0  0
 56 57  1  0  0  0  0
 57 58  1  0  0  0  0
  7  9  1  0  0  0  0
 17 20  1  0  0  0  0
 24 33  1  0  0  0  0
 26 34  1  0  0  0  0
 30 32  2  0  0  0  0
 46 49  1  0  0  0  0
 48 50  1  0  0  0  0
 55 56  1  0  0  0  0
M  END
>  <MolRegNo>
2036056

>  <m>
=

>  <Value>
11800

>  <Unit>
nM

>  <Type>
IC50

>  <pValue>
4.93

>  <Ligand Efficiency>
0.12

>  <Binding Efficiency>
6.25

>  <Surface Efficiency>
3.67

>  <Assay Index>
974120

>  <Assay Category>


>  <Assay Organism>
Homo sapiens

>  <Target ID>
17045

>  <Target Name>
Cytochrome P450 3A4

>  <Target Organism>
Homo sapiens

>  <Target Description>
Target is a single protein chain

>  <Sequence Accession>
P08684

>  <Reference>


>  <Pubmed ID>


>  <DOI>


$$$$
2036016
Actelion Java MolfileCreator 1.0

 52 58  0  0  1  0  0  0  0  0999 V2000
    0.0000   -0.0000   -0.0000 O   0  0  0  0  0  0  0  0  0  0  0  0
   -0.0121    1.2447   -0.0000 C   0  0  0  0  0  0  0  0  0  0  0  0
    1.3051    2.0181   -0.0000 N   0  0  0  0  0  0  0  0  0  0  0  0
   -1.3535    2.0181   -0.0000 C   0  0  0  0  0  0  0  0  0  0  0  0
    1.2930    3.5649   -0.0000 C   0  0  0  0  0  0  0  0  0  0  0  0
    2.6223    1.2689   -0.0000 C   0  0  0  0  0  0  0  0  0  0  0  0
   -1.3655    3.5649   -0.0000 N   0  0  0  0  0  0  0  0  0  0  0  0
   -2.6948    1.2689   -0.0000 C   0  0  0  0  0  0  0  0  0  0  0  0
   -0.0483    4.3383   -0.0000 C   0  0  0  0  0  0  0  0  0  0  0  0
    3.9395    2.0543   -0.0000 C   0  0  0  0  0  0  0  0  0  0  0  0
   -2.7069    4.3383   -0.0000 C   0  0  0  0  0  0  0  0  0  0  0  0
   -4.0362    2.0543   -0.0000 C   0  0  0  0  0  0  0  0  0  0  0  0
   -0.0604    5.8851   -0.0000 N   0  0  0  0  0  0  0  0  0  0  0  0
    5.2567    1.3051   -0.0000 C   0  0  0  0  0  0  0  0  0  0  0  0
    3.9274    3.6011   -0.0000 C   0  0  0  0  0  0  0  0  0  0  0  0
   -3.7824    3.7341   -0.0000 O   0  0  0  0  0  0  0  0  0  0  0  0
   -2.7190    5.8851   -0.0000 C   0  0  0  0  0  0  0  0  0  0  0  0
   -5.3776    1.3051   -0.0000 C   0  0  0  0  0  0  0  0  0  0  0  0
   -4.0483    3.6011   -0.0000 C   0  0  0  0  0  0  0  0  0  0  0  0
   -1.4018    6.6585   -0.0000 N   0  0  0  0  0  0  0  0  0  0  0  0
    1.2568    6.6706   -0.0000 C   0  0  0  0  0  0  0  0  0  0  0  0
    5.5709   -0.1813   -0.0000 N   0  0  0  0  0  0  0  0  0  0  0  0
    6.5739    2.0906   -0.0000 C   0  0  0  0  0  0  0  0  0  0  0  0
    5.2446    4.3866   -0.0000 C   0  0  0  0  0  0  0  0  0  0  0  0
   -6.7189    2.0906   -0.0000 C   0  0  0  0  0  0  0  0  0  0  0  0
   -5.3896    4.3866   -0.0000 C   0  0  0  0  0  0  0  0  0  0  0  0
   -1.4139    8.2053   -0.0000 C   0  0  0  0  0  0  0  0  0  0  0  0
    2.3081    6.0664   -0.0000 O   0  0  0  0  0  0  0  0  0  0  0  0
    1.2447    8.2174   -0.0000 N   0  0  0  0  0  0  0  0  0  0  0  0
    7.0814   -0.3263   -0.0000 C   0  0  0  0  0  0  0  0  0  0  0  0
    4.7371   -1.0876   -0.0000 C   0  0  0  0  0  0  0  0  0  0  0  0
    7.7098    1.0755   -0.0000 C   0  0  0  0  0  0  0  0  0  0  0  0
    6.5618    3.6374   -0.0000 C   0  0  0  0  0  0  0  0  0  0  0  0
   -6.7310    3.6374   -0.0000 C   0  0  0  0  0  0  0  0  0  0  0  0
   -2.7552    8.9787   -0.0000 C   0  0  0  0  0  0  0  0  0  0  0  0
    2.5619    9.0029   -0.0000 C   0  0  0  0  0  0  0  0  0  0  0  0
    9.1962    1.4139   -0.0000 C   0  0  0  0  0  0  0  0  0  0  0  0
   -7.8065    4.2658   -0.0000 O   0  0  0  0  0  0  0  0  0  0  0  0
   -2.7673   10.2234   -0.0000 C   0  0  0  0  0  0  0  0  0  0  0  0
    2.5498   10.5497   -0.0000 C   0  0  0  0  0  0  0  0  0  0  0  0
    9.5587    2.5981   -0.0000 O   0  0  0  0  0  0  0  0  0  0  0  0
   10.2113    0.2900   -0.0000 N   0  0  0  0  0  0  0  0  0  0  0  0
    3.8670   11.3352   -0.0000 C   0  0  0  0  0  0  0  0  0  0  0  0
    1.2084   11.3231   -0.0000 C   0  0  0  0  0  0  0  0  0  0  0  0
   11.6977    0.6163   -0.0000 C   0  0  0  0  0  0  0  0  0  0  0  0
    9.7279   -1.1601   -0.0000 C   0  0  0  0  0  0  0  0  0  0  0  0
    3.8549   12.8820   -0.0000 C   0  0  0  0  0  0  0  0  0  0  0  0
    1.1964   12.8699   -0.0000 C   0  0  0  0  0  0  0  0  0  0  0  0
   12.7128   -0.5075   -0.0000 C   0  0  0  0  0  0  0  0  0  0  0  0
   10.7430   -2.2839   -0.0000 C   0  0  0  0  0  0  0  0  0  0  0  0
    2.5136   13.6554   -0.0000 C   0  0  0  0  0  0  0  0  0  0  0  0
   12.2294   -1.9577   -0.0000 O   0  0  0  0  0  0  0  0  0  0  0  0
  1  2  2  0  0  0  0
  2  3  1  0  0  0  0
  2  4  1  0  0  0  0
  3  5  1  0  0  0  0
  3  6  1  0  0  0  0
  4  7  1  0  0  0  0
  4  8  1  6  0  0  0
  5  9  1  0  0  0  0
  6 10  1  0  0  0  0
  7 11  1  0  0  0  0
  8 12  1  0  0  0  0
  9 13  1  1  0  0  0
 10 14  2  0  0  0  0
 10 15  1  0  0  0  0
 11 16  2  0  0  0  0
 11 17  1  0  0  0  0
 12 18  2  0  0  0  0
 12 19  1  0  0  0  0
 13 20  1  0  0  0  0
 13 21  1  0  0  0  0
 14 22  1  0  0  0  0
 14 23  1  0  0  0  0
 15 24  2  0  0  0  0
 18 25  1  0  0  0  0
 19 26  2  0  0  0  0
 20 27  1  0  0  0  0
 21 28  2  0  0  0  0
 21 29  1  0  0  0  0
 22 30  1  0  0  0  0
 22 31  1  0  0  0  0
 23 32  1  0  0  0  0
 23 33  2  0  0  0  0
 25 34  2  0  0  0  0
 27 35  1  0  0  0  0
 29 36  1  0  0  0  0
 32 37  1  0  0  0  0
 34 38  1  0  0  0  0
 35 39  2  0  0  0  0
 36 40  1  0  0  0  0
 37 41  2  0  0  0  0
 37 42  1  0  0  0  0
 40 43  2  0  0  0  0
 40 44  1  0  0  0  0
 42 45  1  0  0  0  0
 42 46  1  0  0  0  0
 43 47  1  0  0  0  0
 44 48  2  0  0  0  0
 45 49  1  0  0  0  0
 46 50  1  0  0  0  0
 47 51  2  0  0  0  0
 49 52  1  0  0  0  0
  7  9  1  0  0  0  0
 17 20  1  0  0  0  0
 24 33  1  0  0  0  0
 26 34  1  0  0  0  0
 30 32  2  0  0  0  0
 48 51  1  0  0  0  0
 50 52  1  0  0  0  0
M  END
>  <MolRegNo>
2036016

>  <m>
=

>  <Value>
3900

>  <Unit>
nM

>  <Type>
IC50

>  <pValue>
5.41

>  <Ligand Efficiency>
0.14

>  <Binding Efficiency>
7.66

>  <Surface Efficiency>
4.13

>  <Assay Index>
974120

>  <Assay Category>


>  <Assay Organism>
Homo sapiens

>  <Target ID>
17045

>  <Target Name>
Cytochrome P450 3A4

>  <Target Organism>
Homo sapiens

>  <Target Description>
Target is a single protein chain

>  <Sequence Accession>
P08684

>  <Reference>


>  <Pubmed ID>


>  <DOI>


$$$$
2036017
Actelion Java MolfileCreator 1.0

 53 59  0  0  1  0  0  0  0  0999 V2000
    0.0000   -0.0000   -0.0000 O   0  0  0  0  0  0  0  0  0  0  0  0
   -0.0121    1.2488   -0.0000 C   0  0  0  0  0  0  0  0  0  0  0  0
    1.3095    2.0248   -0.0000 N   0  0  0  0  0  0  0  0  0  0  0  0
   -1.3580    2.0248   -0.0000 C   0  0  0  0  0  0  0  0  0  0  0  0
    1.2973    3.5768   -0.0000 C   0  0  0  0  0  0  0  0  0  0  0  0
    2.6310    1.2731   -0.0000 C   0  0  0  0  0  0  0  0  0  0  0  0
   -1.3701    3.5768   -0.0000 N   0  0  0  0  0  0  0  0  0  0  0  0
   -2.7038    1.2731   -0.0000 C   0  0  0  0  0  0  0  0  0  0  0  0
   -0.0485    4.3527   -0.0000 C   0  0  0  0  0  0  0  0  0  0  0  0
    3.9526    2.0612   -0.0000 C   0  0  0  0  0  0  0  0  0  0  0  0
   -2.7159    4.3527   -0.0000 C   0  0  0  0  0  0  0  0  0  0  0  0
   -4.0496    2.0612   -0.0000 C   0  0  0  0  0  0  0  0  0  0  0  0
   -0.0606    5.9047   -0.0000 N   0  0  0  0  0  0  0  0  0  0  0  0
    5.2742    1.3095   -0.0000 C   0  0  0  0  0  0  0  0  0  0  0  0
    3.9405    3.6131   -0.0000 C   0  0  0  0  0  0  0  0  0  0  0  0
   -3.7950    3.7465   -0.0000 O   0  0  0  0  0  0  0  0  0  0  0  0
   -2.7280    5.9047   -0.0000 C   0  0  0  0  0  0  0  0  0  0  0  0
   -5.3955    1.3095   -0.0000 C   0  0  0  0  0  0  0  0  0  0  0  0
   -4.0617    3.6131   -0.0000 C   0  0  0  0  0  0  0  0  0  0  0  0
   -1.4065    6.6807   -0.0000 N   0  0  0  0  0  0  0  0  0  0  0  0
    1.2610    6.6928   -0.0000 C   0  0  0  0  0  0  0  0  0  0  0  0
    5.5894   -0.1819   -0.0000 N   0  0  0  0  0  0  0  0  0  0  0  0
    6.5958    2.0976   -0.0000 C   0  0  0  0  0  0  0  0  0  0  0  0
    5.2621    4.4012   -0.0000 C   0  0  0  0  0  0  0  0  0  0  0  0
   -6.7413    2.0976   -0.0000 C   0  0  0  0  0  0  0  0  0  0  0  0
   -5.4076    4.4012   -0.0000 C   0  0  0  0  0  0  0  0  0  0  0  0
   -1.4186    8.2326   -0.0000 C   0  0  0  0  0  0  0  0  0  0  0  0
    2.3158    6.0866   -0.0000 O   0  0  0  0  0  0  0  0  0  0  0  0
    1.2488    8.2447   -0.0000 N   0  0  0  0  0  0  0  0  0  0  0  0
    7.1050   -0.3274   -0.0000 C   0  0  0  0  0  0  0  0  0  0  0  0
    4.7528   -1.0912   -0.0000 C   0  0  0  0  0  0  0  0  0  0  0  0
    7.7355    1.0791   -0.0000 C   0  0  0  0  0  0  0  0  0  0  0  0
    6.5837    3.6495   -0.0000 C   0  0  0  0  0  0  0  0  0  0  0  0
   -6.7534    3.6495   -0.0000 C   0  0  0  0  0  0  0  0  0  0  0  0
   -2.7644    9.0086   -0.0000 C   0  0  0  0  0  0  0  0  0  0  0  0
    2.5704    9.0328   -0.0000 C   0  0  0  0  0  0  0  0  0  0  0  0
    9.2268    1.4186   -0.0000 C   0  0  0  0  0  0  0  0  0  0  0  0
   -7.8325    4.2800   -0.0000 O   0  0  0  0  0  0  0  0  0  0  0  0
   -2.7765   10.2574   -0.0000 C   0  0  0  0  0  0  0  0  0  0  0  0
    2.5583   10.5848   -0.0000 C   0  0  0  0  0  0  0  0  0  0  0  0
    9.5906    2.6068   -0.0000 O   0  0  0  0  0  0  0  0  0  0  0  0
   10.2453    0.2910   -0.0000 N   0  0  0  0  0  0  0  0  0  0  0  0
    3.8799   11.3729   -0.0000 C   0  0  0  0  0  0  0  0  0  0  0  0
    1.2125   11.3608   -0.0000 C   0  0  0  0  0  0  0  0  0  0  0  0
   11.7366    0.6184   -0.0000 C   0  0  0  0  0  0  0  0  0  0  0  0
    9.7603   -1.1640   -0.0000 C   0  0  0  0  0  0  0  0  0  0  0  0
    3.8678   12.9248   -0.0000 C   0  0  0  0  0  0  0  0  0  0  0  0
    1.2003   12.9127   -0.0000 C   0  0  0  0  0  0  0  0  0  0  0  0
   12.7551   -0.5092   -0.0000 C   0  0  0  0  0  0  0  0  0  0  0  0
   10.7788   -2.2916   -0.0000 C   0  0  0  0  0  0  0  0  0  0  0  0
    2.5219   13.7008   -0.0000 C   0  0  0  0  0  0  0  0  0  0  0  0
   12.2701   -1.9642   -0.0000 N   0  0  0  0  0  0  0  0  0  0  0  0
   13.0825   -2.8614   -0.0000 C   0  0  0  0  0  0  0  0  0  0  0  0
  1  2  2  0  0  0  0
  2  3  1  0  0  0  0
  2  4  1  0  0  0  0
  3  5  1  0  0  0  0
  3  6  1  0  0  0  0
  4  7  1  0  0  0  0
  4  8  1  6  0  0  0
  5  9  1  0  0  0  0
  6 10  1  0  0  0  0
  7 11  1  0  0  0  0
  8 12  1  0  0  0  0
  9 13  1  1  0  0  0
 10 14  2  0  0  0  0
 10 15  1  0  0  0  0
 11 16  2  0  0  0  0
 11 17  1  0  0  0  0
 12 18  2  0  0  0  0
 12 19  1  0  0  0  0
 13 20  1  0  0  0  0
 13 21  1  0  0  0  0
 14 22  1  0  0  0  0
 14 23  1  0  0  0  0
 15 24  2  0  0  0  0
 18 25  1  0  0  0  0
 19 26  2  0  0  0  0
 20 27  1  0  0  0  0
 21 28  2  0  0  0  0
 21 29  1  0  0  0  0
 22 30  1  0  0  0  0
 22 31  1  0  0  0  0
 23 32  1  0  0  0  0
 23 33  2  0  0  0  0
 25 34  2  0  0  0  0
 27 35  1  0  0  0  0
 29 36  1  0  0  0  0
 32 37  1  0  0  0  0
 34 38  1  0  0  0  0
 35 39  2  0  0  0  0
 36 40  1  0  0  0  0
 37 41  2  0  0  0  0
 37 42  1  0  0  0  0
 40 43  2  0  0  0  0
 40 44  1  0  0  0  0
 42 45  1  0  0  0  0
 42 46  1  0  0  0  0
 43 47  1  0  0  0  0
 44 48  2  0  0  0  0
 45 49  1  0  0  0  0
 46 50  1  0  0  0  0
 47 51  2  0  0  0  0
 49 52  1  0  0  0  0
 52 53  1  0  0  0  0
  7  9  1  0  0  0  0
 17 20  1  0  0  0  0
 24 33  1  0  0  0  0
 26 34  1  0  0  0  0
 30 32  2  0  0  0  0
 48 51  1  0  0  0  0
 50 52  1  0  0  0  0
M  END
>  <MolRegNo>
2036017

>  <m>
=

>  <Value>
12200

>  <Unit>
nM

>  <Type>
IC50

>  <pValue>
4.91

>  <Ligand Efficiency>
0.13

>  <Binding Efficiency>
6.84

>  <Surface Efficiency>
3.93

>  <Assay Index>
974120

>  <Assay Category>


>  <Assay Organism>
Homo sapiens

>  <Target ID>
17045

>  <Target Name>
Cytochrome P450 3A4

>  <Target Organism>
Homo sapiens

>  <Target Description>
Target is a single protein chain

>  <Sequence Accession>
P08684

>  <Reference>


>  <Pubmed ID>


>  <DOI>


$$$$
2036018
Actelion Java MolfileCreator 1.0

 54 60  0  0  1  0  0  0  0  0999 V2000
    0.0000   -0.0000   -0.0000 O   0  0  0  0  0  0  0  0  0  0  0  0
   -0.0121    1.2482   -0.0000 C   0  0  0  0  0  0  0  0  0  0  0  0
    1.3087    2.0237   -0.0000 N   0  0  0  0  0  0  0  0  0  0  0  0
   -1.3572    2.0237   -0.0000 C   0  0  0  0  0  0  0  0  0  0  0  0
    1.2966    3.5748   -0.0000 C   0  0  0  0  0  0  0  0  0  0  0  0
    2.6296    1.2724   -0.0000 C   0  0  0  0  0  0  0  0  0  0  0  0
   -1.3693    3.5748   -0.0000 N   0  0  0  0  0  0  0  0  0  0  0  0
   -2.7023    1.2724   -0.0000 C   0  0  0  0  0  0  0  0  0  0  0  0
   -0.0485    4.3504   -0.0000 C   0  0  0  0  0  0  0  0  0  0  0  0
    3.9505    2.0601   -0.0000 C   0  0  0  0  0  0  0  0  0  0  0  0
   -2.7144    4.3504   -0.0000 C   0  0  0  0  0  0  0  0  0  0  0  0
   -4.0474    2.0601   -0.0000 C   0  0  0  0  0  0  0  0  0  0  0  0
   -0.0606    5.9015   -0.0000 N   0  0  0  0  0  0  0  0  0  0  0  0
    5.2713    1.3087   -0.0000 C   0  0  0  0  0  0  0  0  0  0  0  0
    3.9384    3.6112   -0.0000 C   0  0  0  0  0  0  0  0  0  0  0  0
   -3.7929    3.7445   -0.0000 O   0  0  0  0  0  0  0  0  0  0  0  0
   -2.7266    5.9015   -0.0000 C   0  0  0  0  0  0  0  0  0  0  0  0
   -5.3925    1.3087   -0.0000 C   0  0  0  0  0  0  0  0  0  0  0  0
   -4.0595    3.6112   -0.0000 C   0  0  0  0  0  0  0  0  0  0  0  0
   -1.4057    6.6770   -0.0000 N   0  0  0  0  0  0  0  0  0  0  0  0
    1.2603    6.6892   -0.0000 C   0  0  0  0  0  0  0  0  0  0  0  0
    5.5864   -0.1818   -0.0000 N   0  0  0  0  0  0  0  0  0  0  0  0
    6.5922    2.0964   -0.0000 C   0  0  0  0  0  0  0  0  0  0  0  0
    5.2592    4.3988   -0.0000 C   0  0  0  0  0  0  0  0  0  0  0  0
   -6.7376    2.0964   -0.0000 C   0  0  0  0  0  0  0  0  0  0  0  0
   -5.4046    4.3988   -0.0000 C   0  0  0  0  0  0  0  0  0  0  0  0
   -1.4178    8.2281   -0.0000 C   0  0  0  0  0  0  0  0  0  0  0  0
    2.3145    6.0832   -0.0000 O   0  0  0  0  0  0  0  0  0  0  0  0
    1.2482    8.2403   -0.0000 N   0  0  0  0  0  0  0  0  0  0  0  0
    7.1012   -0.3272   -0.0000 C   0  0  0  0  0  0  0  0  0  0  0  0
    4.7503   -1.0906   -0.0000 C   0  0  0  0  0  0  0  0  0  0  0  0
    7.7313    1.0785   -0.0000 C   0  0  0  0  0  0  0  0  0  0  0  0
    6.5801    3.6475   -0.0000 C   0  0  0  0  0  0  0  0  0  0  0  0
   -6.7497    3.6475   -0.0000 C   0  0  0  0  0  0  0  0  0  0  0  0
   -2.7629    9.0037   -0.0000 C   0  0  0  0  0  0  0  0  0  0  0  0
    2.5690    9.0279   -0.0000 C   0  0  0  0  0  0  0  0  0  0  0  0
    9.2218    1.4178   -0.0000 C   0  0  0  0  0  0  0  0  0  0  0  0
   -7.8282    4.2777   -0.0000 O   0  0  0  0  0  0  0  0  0  0  0  0
   -2.7750   10.2519   -0.0000 C   0  0  0  0  0  0  0  0  0  0  0  0
    2.5569   10.5790   -0.0000 C   0  0  0  0  0  0  0  0  0  0  0  0
    9.5854    2.6054   -0.0000 O   0  0  0  0  0  0  0  0  0  0  0  0
   10.2397    0.2908   -0.0000 N   0  0  0  0  0  0  0  0  0  0  0  0
    3.8778   11.3667   -0.0000 C   0  0  0  0  0  0  0  0  0  0  0  0
    1.2118   11.3546   -0.0000 C   0  0  0  0  0  0  0  0  0  0  0  0
   11.7303    0.6180   -0.0000 C   0  0  0  0  0  0  0  0  0  0  0  0
    9.7550   -1.1633   -0.0000 C   0  0  0  0  0  0  0  0  0  0  0  0
    3.8657   12.9178   -0.0000 C   0  0  0  0  0  0  0  0  0  0  0  0
    1.1997   12.9057   -0.0000 C   0  0  0  0  0  0  0  0  0  0  0  0
   12.7482   -0.5090   -0.0000 C   0  0  0  0  0  0  0  0  0  0  0  0
   10.7729   -2.2903   -0.0000 C   0  0  0  0  0  0  0  0  0  0  0  0
    2.5205   13.6934   -0.0000 C   0  0  0  0  0  0  0  0  0  0  0  0
   12.2634   -1.9631   -0.0000 N   0  0  0  0  0  0  0  0  0  0  0  0
   13.2814   -3.1022   -0.0000 C   0  0  0  0  0  0  0  0  0  0  0  0
   12.8815   -4.2655   -0.0000 C   0  0  0  0  0  0  0  0  0  0  0  0
  1  2  2  0  0  0  0
  2  3  1  0  0  0  0
  2  4  1  0  0  0  0
  3  5  1  0  0  0  0
  3  6  1  0  0  0  0
  4  7  1  0  0  0  0
  4  8  1  6  0  0  0
  5  9  1  0  0  0  0
  6 10  1  0  0  0  0
  7 11  1  0  0  0  0
  8 12  1  0  0  0  0
  9 13  1  1  0  0  0
 10 14  2  0  0  0  0
 10 15  1  0  0  0  0
 11 16  2  0  0  0  0
 11 17  1  0  0  0  0
 12 18  2  0  0  0  0
 12 19  1  0  0  0  0
 13 20  1  0  0  0  0
 13 21  1  0  0  0  0
 14 22  1  0  0  0  0
 14 23  1  0  0  0  0
 15 24  2  0  0  0  0
 18 25  1  0  0  0  0
 19 26  2  0  0  0  0
 20 27  1  0  0  0  0
 21 28  2  0  0  0  0
 21 29  1  0  0  0  0
 22 30  1  0  0  0  0
 22 31  1  0  0  0  0
 23 32  1  0  0  0  0
 23 33  2  0  0  0  0
 25 34  2  0  0  0  0
 27 35  1  0  0  0  0
 29 36  1  0  0  0  0
 32 37  1  0  0  0  0
 34 38  1  0  0  0  0
 35 39  2  0  0  0  0
 36 40  1  0  0  0  0
 37 41  2  0  0  0  0
 37 42  1  0  0  0  0
 40 43  2  0  0  0  0
 40 44  1  0  0  0  0
 42 45  1  0  0  0  0
 42 46  1  0  0  0  0
 43 47  1  0  0  0  0
 44 48  2  0  0  0  0
 45 49  1  0  0  0  0
 46 50  1  0  0  0  0
 47 51  2  0  0  0  0
 49 52  1  0  0  0  0
 52 53  1  0  0  0  0
 53 54  1  0  0  0  0
  7  9  1  0  0  0  0
 17 20  1  0  0  0  0
 24 33  1  0  0  0  0
 26 34  1  0  0  0  0
 30 32  2  0  0  0  0
 48 51  1  0  0  0  0
 50 52  1  0  0  0  0
M  END
>  <MolRegNo>
2036018

>  <m>
=

>  <Value>
8040

>  <Unit>
nM

>  <Type>
IC50

>  <pValue>
5.09

>  <Ligand Efficiency>
0.13

>  <Binding Efficiency>
6.95

>  <Surface Efficiency>
4.08

>  <Assay Index>
974120

>  <Assay Category>


>  <Assay Organism>
Homo sapiens

>  <Target ID>
17045

>  <Target Name>
Cytochrome P450 3A4

>  <Target Organism>
Homo sapiens

>  <Target Description>
Target is a single protein chain

>  <Sequence Accession>
P08684

>  <Reference>


>  <Pubmed ID>


>  <DOI>


$$$$
2036019
Actelion Java MolfileCreator 1.0

 55 61  0  0  1  0  0  0  0  0999 V2000
    0.0000   -0.0000   -0.0000 O   0  0  0  0  0  0  0  0  0  0  0  0
   -0.0122    1.2520   -0.0000 C   0  0  0  0  0  0  0  0  0  0  0  0
    1.3128    2.0300   -0.0000 N   0  0  0  0  0  0  0  0  0  0  0  0
   -1.3614    2.0300   -0.0000 C   0  0  0  0  0  0  0  0  0  0  0  0
    1.3006    3.5859   -0.0000 C   0  0  0  0  0  0  0  0  0  0  0  0
    2.6378    1.2763   -0.0000 C   0  0  0  0  0  0  0  0  0  0  0  0
   -1.3736    3.5859   -0.0000 N   0  0  0  0  0  0  0  0  0  0  0  0
   -2.7107    1.2763   -0.0000 C   0  0  0  0  0  0  0  0  0  0  0  0
   -0.0486    4.3639   -0.0000 C   0  0  0  0  0  0  0  0  0  0  0  0
    3.9627    2.0665   -0.0000 C   0  0  0  0  0  0  0  0  0  0  0  0
   -2.7229    4.3639   -0.0000 C   0  0  0  0  0  0  0  0  0  0  0  0
   -4.0600    2.0665   -0.0000 C   0  0  0  0  0  0  0  0  0  0  0  0
   -0.0608    5.9198   -0.0000 N   0  0  0  0  0  0  0  0  0  0  0  0
    5.2877    1.3128   -0.0000 C   0  0  0  0  0  0  0  0  0  0  0  0
    3.9506    3.6224   -0.0000 C   0  0  0  0  0  0  0  0  0  0  0  0
   -3.8047    3.7561   -0.0000 O   0  0  0  0  0  0  0  0  0  0  0  0
   -2.7350    5.9198   -0.0000 C   0  0  0  0  0  0  0  0  0  0  0  0
   -5.4092    1.3128   -0.0000 C   0  0  0  0  0  0  0  0  0  0  0  0
   -4.0721    3.6224   -0.0000 C   0  0  0  0  0  0  0  0  0  0  0  0
   -1.4101    6.6977   -0.0000 N   0  0  0  0  0  0  0  0  0  0  0  0
    1.2642    6.7099   -0.0000 C   0  0  0  0  0  0  0  0  0  0  0  0
    5.6037   -0.1823   -0.0000 N   0  0  0  0  0  0  0  0  0  0  0  0
    6.6127    2.1029   -0.0000 C   0  0  0  0  0  0  0  0  0  0  0  0
    5.2755    4.4125   -0.0000 C   0  0  0  0  0  0  0  0  0  0  0  0
   -6.7585    2.1029   -0.0000 C   0  0  0  0  0  0  0  0  0  0  0  0
   -5.4214    4.4125   -0.0000 C   0  0  0  0  0  0  0  0  0  0  0  0
   -1.4222    8.2537   -0.0000 C   0  0  0  0  0  0  0  0  0  0  0  0
    2.3217    6.1021   -0.0000 O   0  0  0  0  0  0  0  0  0  0  0  0
    1.2520    8.2658   -0.0000 N   0  0  0  0  0  0  0  0  0  0  0  0
    7.1232   -0.3282   -0.0000 C   0  0  0  0  0  0  0  0  0  0  0  0
    4.7650   -1.0940   -0.0000 C   0  0  0  0  0  0  0  0  0  0  0  0
    7.7553    1.0818   -0.0000 C   0  0  0  0  0  0  0  0  0  0  0  0
    6.6005    3.6588   -0.0000 C   0  0  0  0  0  0  0  0  0  0  0  0
   -6.7707    3.6588   -0.0000 C   0  0  0  0  0  0  0  0  0  0  0  0
   -2.7715    9.0316   -0.0000 C   0  0  0  0  0  0  0  0  0  0  0  0
    2.5770    9.0559   -0.0000 C   0  0  0  0  0  0  0  0  0  0  0  0
    9.2504    1.4222   -0.0000 C   0  0  0  0  0  0  0  0  0  0  0  0
   -7.8525    4.2909   -0.0000 O   0  0  0  0  0  0  0  0  0  0  0  0
   -2.7836   10.2836   -0.0000 C   0  0  0  0  0  0  0  0  0  0  0  0
    2.5648   10.6118   -0.0000 C   0  0  0  0  0  0  0  0  0  0  0  0
    9.6151    2.6135   -0.0000 O   0  0  0  0  0  0  0  0  0  0  0  0
   10.2715    0.2917   -0.0000 N   0  0  0  0  0  0  0  0  0  0  0  0
    3.8898   11.4020   -0.0000 C   0  0  0  0  0  0  0  0  0  0  0  0
    1.2156   11.3898   -0.0000 C   0  0  0  0  0  0  0  0  0  0  0  0
   11.7666    0.6199   -0.0000 C   0  0  0  0  0  0  0  0  0  0  0  0
    9.7853   -1.1669   -0.0000 C   0  0  0  0  0  0  0  0  0  0  0  0
    3.8776   12.9579   -0.0000 C   0  0  0  0  0  0  0  0  0  0  0  0
    1.2034   12.9457   -0.0000 C   0  0  0  0  0  0  0  0  0  0  0  0
   12.7877   -0.5105   -0.0000 C   0  0  0  0  0  0  0  0  0  0  0  0
   10.8063   -2.2974   -0.0000 C   0  0  0  0  0  0  0  0  0  0  0  0
    2.5284   13.7358   -0.0000 C   0  0  0  0  0  0  0  0  0  0  0  0
   12.3015   -1.9692   -0.0000 N   0  0  0  0  0  0  0  0  0  0  0  0
   13.3225   -3.1118   -0.0000 C   0  0  0  0  0  0  0  0  0  0  0  0
   12.9214   -4.2788   -0.0000 C   0  0  0  0  0  0  0  0  0  0  0  0
   14.5138   -2.8444   -0.0000 C   0  0  0  0  0  0  0  0  0  0  0  0
  1  2  2  0  0  0  0
  2  3  1  0  0  0  0
  2  4  1  0  0  0  0
  3  5  1  0  0  0  0
  3  6  1  0  0  0  0
  4  7  1  0  0  0  0
  4  8  1  6  0  0  0
  5  9  1  0  0  0  0
  6 10  1  0  0  0  0
  7 11  1  0  0  0  0
  8 12  1  0  0  0  0
  9 13  1  1  0  0  0
 10 14  2  0  0  0  0
 10 15  1  0  0  0  0
 11 16  2  0  0  0  0
 11 17  1  0  0  0  0
 12 18  2  0  0  0  0
 12 19  1  0  0  0  0
 13 20  1  0  0  0  0
 13 21  1  0  0  0  0
 14 22  1  0  0  0  0
 14 23  1  0  0  0  0
 15 24  2  0  0  0  0
 18 25  1  0  0  0  0
 19 26  2  0  0  0  0
 20 27  1  0  0  0  0
 21 28  2  0  0  0  0
 21 29  1  0  0  0  0
 22 30  1  0  0  0  0
 22 31  1  0  0  0  0
 23 32  1  0  0  0  0
 23 33  2  0  0  0  0
 25 34  2  0  0  0  0
 27 35  1  0  0  0  0
 29 36  1  0  0  0  0
 32 37  1  0  0  0  0
 34 38  1  0  0  0  0
 35 39  2  0  0  0  0
 36 40  1  0  0  0  0
 37 41  2  0  0  0  0
 37 42  1  0  0  0  0
 40 43  2  0  0  0  0
 40 44  1  0  0  0  0
 42 45  1  0  0  0  0
 42 46  1  0  0  0  0
 43 47  1  0  0  0  0
 44 48  2  0  0  0  0
 45 49  1  0  0  0  0
 46 50  1  0  0  0  0
 47 51  2  0  0  0  0
 49 52  1  0  0  0  0
 52 53  1  0  0  0  0
 53 54  1  0  0  0  0
 53 55  1  0  0  0  0
  7  9  1  0  0  0  0
 17 20  1  0  0  0  0
 24 33  1  0  0  0  0
 26 34  1  0  0  0  0
 30 32  2  0  0  0  0
 48 51  1  0  0  0  0
 50 52  1  0  0  0  0
M  END
>  <MolRegNo>
2036019

>  <m>
=

>  <Value>
2240

>  <Unit>
nM

>  <Type>
IC50

>  <pValue>
5.65

>  <Ligand Efficiency>
0.14

>  <Binding Efficiency>
7.56

>  <Surface Efficiency>
4.52

>  <Assay Index>
974120

>  <Assay Category>


>  <Assay Organism>
Homo sapiens

>  <Target ID>
17045

>  <Target Name>
Cytochrome P450 3A4

>  <Target Organism>
Homo sapiens

>  <Target Description>
Target is a single protein chain

>  <Sequence Accession>
P08684

>  <Reference>


>  <Pubmed ID>


>  <DOI>


$$$$
2036020
Actelion Java MolfileCreator 1.0

 55 61  0  0  1  0  0  0  0  0999 V2000
    0.0000   -0.0000   -0.0000 O   0  0  0  0  0  0  0  0  0  0  0  0
   -0.0121    1.2479   -0.0000 C   0  0  0  0  0  0  0  0  0  0  0  0
    1.3084    2.0232   -0.0000 N   0  0  0  0  0  0  0  0  0  0  0  0
   -1.3569    2.0232   -0.0000 C   0  0  0  0  0  0  0  0  0  0  0  0
    1.2963    3.5740   -0.0000 C   0  0  0  0  0  0  0  0  0  0  0  0
    2.6290    1.2721   -0.0000 C   0  0  0  0  0  0  0  0  0  0  0  0
   -1.3690    3.5740   -0.0000 N   0  0  0  0  0  0  0  0  0  0  0  0
   -2.7017    1.2721   -0.0000 C   0  0  0  0  0  0  0  0  0  0  0  0
   -0.0485    4.3494   -0.0000 C   0  0  0  0  0  0  0  0  0  0  0  0
    3.9496    2.0596   -0.0000 C   0  0  0  0  0  0  0  0  0  0  0  0
   -2.7138    4.3494   -0.0000 C   0  0  0  0  0  0  0  0  0  0  0  0
   -4.0465    2.0596   -0.0000 C   0  0  0  0  0  0  0  0  0  0  0  0
   -0.0606    5.9001   -0.0000 N   0  0  0  0  0  0  0  0  0  0  0  0
    5.2701    1.3084   -0.0000 C   0  0  0  0  0  0  0  0  0  0  0  0
    3.9374    3.6103   -0.0000 C   0  0  0  0  0  0  0  0  0  0  0  0
   -3.7921    3.7436   -0.0000 O   0  0  0  0  0  0  0  0  0  0  0  0
   -2.7259    5.9001   -0.0000 C   0  0  0  0  0  0  0  0  0  0  0  0
   -5.3913    1.3084   -0.0000 C   0  0  0  0  0  0  0  0  0  0  0  0
   -4.0586    3.6103   -0.0000 C   0  0  0  0  0  0  0  0  0  0  0  0
   -1.4054    6.6755   -0.0000 N   0  0  0  0  0  0  0  0  0  0  0  0
    1.2600    6.6876   -0.0000 C   0  0  0  0  0  0  0  0  0  0  0  0
    5.5851   -0.1817   -0.0000 N   0  0  0  0  0  0  0  0  0  0  0  0
    6.5907    2.0959   -0.0000 C   0  0  0  0  0  0  0  0  0  0  0  0
    5.2580    4.3978   -0.0000 C   0  0  0  0  0  0  0  0  0  0  0  0
   -6.7360    2.0959   -0.0000 C   0  0  0  0  0  0  0  0  0  0  0  0
   -5.4034    4.3978   -0.0000 C   0  0  0  0  0  0  0  0  0  0  0  0
   -1.4175    8.2262   -0.0000 C   0  0  0  0  0  0  0  0  0  0  0  0
    2.3140    6.0818   -0.0000 O   0  0  0  0  0  0  0  0  0  0  0  0
    1.2479    8.2383   -0.0000 N   0  0  0  0  0  0  0  0  0  0  0  0
    7.0995   -0.3271   -0.0000 C   0  0  0  0  0  0  0  0  0  0  0  0
    4.7492   -1.0904   -0.0000 C   0  0  0  0  0  0  0  0  0  0  0  0
    7.7295    1.0783   -0.0000 C   0  0  0  0  0  0  0  0  0  0  0  0
    6.5786    3.6467   -0.0000 C   0  0  0  0  0  0  0  0  0  0  0  0
   -6.7482    3.6467   -0.0000 C   0  0  0  0  0  0  0  0  0  0  0  0
   -2.7623    9.0016   -0.0000 C   0  0  0  0  0  0  0  0  0  0  0  0
    2.5684    9.0258   -0.0000 C   0  0  0  0  0  0  0  0  0  0  0  0
    9.2197    1.4175   -0.0000 C   0  0  0  0  0  0  0  0  0  0  0  0
   -7.8264    4.2767   -0.0000 O   0  0  0  0  0  0  0  0  0  0  0  0
   -2.7744   10.2495   -0.0000 C   0  0  0  0  0  0  0  0  0  0  0  0
    2.5563   10.5766   -0.0000 C   0  0  0  0  0  0  0  0  0  0  0  0
    9.5831    2.6048   -0.0000 O   0  0  0  0  0  0  0  0  0  0  0  0
   10.2373    0.2908   -0.0000 N   0  0  0  0  0  0  0  0  0  0  0  0
    3.8769   11.3641   -0.0000 C   0  0  0  0  0  0  0  0  0  0  0  0
    1.2115   11.3519   -0.0000 C   0  0  0  0  0  0  0  0  0  0  0  0
   11.7275    0.6179   -0.0000 C   0  0  0  0  0  0  0  0  0  0  0  0
    9.7527   -1.1631   -0.0000 C   0  0  0  0  0  0  0  0  0  0  0  0
    3.8647   12.9148   -0.0000 C   0  0  0  0  0  0  0  0  0  0  0  0
    1.1994   12.9027   -0.0000 C   0  0  0  0  0  0  0  0  0  0  0  0
   12.7452   -0.5088   -0.0000 C   0  0  0  0  0  0  0  0  0  0  0  0
   10.7704   -2.2898   -0.0000 C   0  0  0  0  0  0  0  0  0  0  0  0
    2.5200   13.6902   -0.0000 C   0  0  0  0  0  0  0  0  0  0  0  0
   12.2606   -1.9627   -0.0000 N   0  0  0  0  0  0  0  0  0  0  0  0
   13.2783   -3.1015   -0.0000 C   0  0  0  0  0  0  0  0  0  0  0  0
   12.7936   -4.5553   -0.0000 C   0  0  0  0  0  0  0  0  0  0  0  0
   13.6054   -5.4640   -0.0000 O   0  0  0  0  0  0  0  0  0  0  0  0
  1  2  2  0  0  0  0
  2  3  1  0  0  0  0
  2  4  1  0  0  0  0
  3  5  1  0  0  0  0
  3  6  1  0  0  0  0
  4  7  1  0  0  0  0
  4  8  1  6  0  0  0
  5  9  1  0  0  0  0
  6 10  1  0  0  0  0
  7 11  1  0  0  0  0
  8 12  1  0  0  0  0
  9 13  1  1  0  0  0
 10 14  2  0  0  0  0
 10 15  1  0  0  0  0
 11 16  2  0  0  0  0
 11 17  1  0  0  0  0
 12 18  2  0  0  0  0
 12 19  1  0  0  0  0
 13 20  1  0  0  0  0
 13 21  1  0  0  0  0
 14 22  1  0  0  0  0
 14 23  1  0  0  0  0
 15 24  2  0  0  0  0
 18 25  1  0  0  0  0
 19 26  2  0  0  0  0
 20 27  1  0  0  0  0
 21 28  2  0  0  0  0
 21 29  1  0  0  0  0
 22 30  1  0  0  0  0
 22 31  1  0  0  0  0
 23 32  1  0  0  0  0
 23 33  2  0  0  0  0
 25 34  2  0  0  0  0
 27 35  1  0  0  0  0
 29 36  1  0  0  0  0
 32 37  1  0  0  0  0
 34 38  1  0  0  0  0
 35 39  2  0  0  0  0
 36 40  1  0  0  0  0
 37 41  2  0  0  0  0
 37 42  1  0  0  0  0
 40 43  2  0  0  0  0
 40 44  1  0  0  0  0
 42 45  1  0  0  0  0
 42 46  1  0  0  0  0
 43 47  1  0  0  0  0
 44 48  2  0  0  0  0
 45 49  1  0  0  0  0
 46 50  1  0  0  0  0
 47 51  2  0  0  0  0
 49 52  1  0  0  0  0
 52 53  1  0  0  0  0
 53 54  1  0  0  0  0
 54 55  1  0  0  0  0
  7  9  1  0  0  0  0
 17 20  1  0  0  0  0
 24 33  1  0  0  0  0
 26 34  1  0  0  0  0
 30 32  2  0  0  0  0
 48 51  1  0  0  0  0
 50 52  1  0  0  0  0
M  END
>  <MolRegNo>
2036020

>  <m>
=

>  <Value>
6820

>  <Unit>
nM

>  <Type>
IC50

>  <pValue>
5.17

>  <Ligand Efficiency>
0.13

>  <Binding Efficiency>
6.9

>  <Surface Efficiency>
3.56

>  <Assay Index>
974120

>  <Assay Category>


>  <Assay Organism>
Homo sapiens

>  <Target ID>
17045

>  <Target Name>
Cytochrome P450 3A4

>  <Target Organism>
Homo sapiens

>  <Target Description>
Target is a single protein chain

>  <Sequence Accession>
P08684

>  <Reference>


>  <Pubmed ID>


>  <DOI>


$$$$
2036057
Actelion Java MolfileCreator 1.0

 49 54  0  0  1  0  0  0  0  0999 V2000
    0.0000   -0.0000   -0.0000 O   0  0  0  0  0  0  0  0  0  0  0  0
   -0.0122    1.2554   -0.0000 C   0  0  0  0  0  0  0  0  0  0  0  0
    1.3164    2.0355   -0.0000 N   0  0  0  0  0  0  0  0  0  0  0  0
   -1.3651    2.0355   -0.0000 C   0  0  0  0  0  0  0  0  0  0  0  0
    1.3042    3.5957   -0.0000 C   0  0  0  0  0  0  0  0  0  0  0  0
    2.6449    1.2798   -0.0000 C   0  0  0  0  0  0  0  0  0  0  0  0
   -1.3773    3.5957   -0.0000 N   0  0  0  0  0  0  0  0  0  0  0  0
   -2.7181    1.2798   -0.0000 C   0  0  0  0  0  0  0  0  0  0  0  0
   -0.0488    4.3757   -0.0000 C   0  0  0  0  0  0  0  0  0  0  0  0
    3.9735    2.0721   -0.0000 C   0  0  0  0  0  0  0  0  0  0  0  0
   -2.7303    4.3757   -0.0000 C   0  0  0  0  0  0  0  0  0  0  0  0
   -4.0710    2.0721   -0.0000 C   0  0  0  0  0  0  0  0  0  0  0  0
   -0.0609    5.9359   -0.0000 N   0  0  0  0  0  0  0  0  0  0  0  0
    5.3021    1.3164   -0.0000 C   0  0  0  0  0  0  0  0  0  0  0  0
    3.9613    3.6322   -0.0000 C   0  0  0  0  0  0  0  0  0  0  0  0
   -3.8150    3.7663   -0.0000 O   0  0  0  0  0  0  0  0  0  0  0  0
   -2.7424    5.9359   -0.0000 C   0  0  0  0  0  0  0  0  0  0  0  0
   -5.4239    1.3164   -0.0000 C   0  0  0  0  0  0  0  0  0  0  0  0
   -4.0832    3.6322   -0.0000 C   0  0  0  0  0  0  0  0  0  0  0  0
   -1.4139    6.7159   -0.0000 N   0  0  0  0  0  0  0  0  0  0  0  0
    1.2676    6.7281   -0.0000 C   0  0  0  0  0  0  0  0  0  0  0  0
    5.6190   -0.1828   -0.0000 N   0  0  0  0  0  0  0  0  0  0  0  0
    6.6306    2.1086   -0.0000 C   0  0  0  0  0  0  0  0  0  0  0  0
    5.2899    4.4245   -0.0000 C   0  0  0  0  0  0  0  0  0  0  0  0
   -6.7769    2.1086   -0.0000 C   0  0  0  0  0  0  0  0  0  0  0  0
   -5.4361    4.4245   -0.0000 C   0  0  0  0  0  0  0  0  0  0  0  0
   -1.4261    8.2761   -0.0000 C   0  0  0  0  0  0  0  0  0  0  0  0
    2.3280    6.1187   -0.0000 O   0  0  0  0  0  0  0  0  0  0  0  0
    1.2554    8.2883   -0.0000 N   0  0  0  0  0  0  0  0  0  0  0  0
    7.1425   -0.3291   -0.0000 C   0  0  0  0  0  0  0  0  0  0  0  0
    4.7779   -1.0970   -0.0000 C   0  0  0  0  0  0  0  0  0  0  0  0
    7.7764    1.0848   -0.0000 C   0  0  0  0  0  0  0  0  0  0  0  0
    6.6184    3.6688   -0.0000 C   0  0  0  0  0  0  0  0  0  0  0  0
   -6.7891    3.6688   -0.0000 C   0  0  0  0  0  0  0  0  0  0  0  0
   -2.7790    9.0562   -0.0000 C   0  0  0  0  0  0  0  0  0  0  0  0
    2.5840    9.0805   -0.0000 C   0  0  0  0  0  0  0  0  0  0  0  0
    9.2756    1.4261   -0.0000 C   0  0  0  0  0  0  0  0  0  0  0  0
   -7.8739    4.3026   -0.0000 O   0  0  0  0  0  0  0  0  0  0  0  0
   -2.7912   10.3116   -0.0000 C   0  0  0  0  0  0  0  0  0  0  0  0
    2.5718   10.6407   -0.0000 C   0  0  0  0  0  0  0  0  0  0  0  0
    9.6412    2.6206   -0.0000 O   0  0  0  0  0  0  0  0  0  0  0  0
   10.2994    0.2925   -0.0000 N   0  0  0  0  0  0  0  0  0  0  0  0
    3.9004   11.4330   -0.0000 C   0  0  0  0  0  0  0  0  0  0  0  0
    1.2189   11.4208   -0.0000 C   0  0  0  0  0  0  0  0  0  0  0  0
   11.4939    0.5607   -0.0000 C   0  0  0  0  0  0  0  0  0  0  0  0
    9.9094   -0.8776   -0.0000 C   0  0  0  0  0  0  0  0  0  0  0  0
    3.8882   12.9931   -0.0000 C   0  0  0  0  0  0  0  0  0  0  0  0
    1.2067   12.9809   -0.0000 C   0  0  0  0  0  0  0  0  0  0  0  0
    2.5352   13.7732   -0.0000 C   0  0  0  0  0  0  0  0  0  0  0  0
  1  2  2  0  0  0  0
  2  3  1  0  0  0  0
  2  4  1  0  0  0  0
  3  5  1  0  0  0  0
  3  6  1  0  0  0  0
  4  7  1  0  0  0  0
  4  8  1  6  0  0  0
  5  9  1  0  0  0  0
  6 10  1  0  0  0  0
  7 11  1  0  0  0  0
  8 12  1  0  0  0  0
  9 13  1  1  0  0  0
 10 14  2  0  0  0  0
 10 15  1  0  0  0  0
 11 16  2  0  0  0  0
 11 17  1  0  0  0  0
 12 18  2  0  0  0  0
 12 19  1  0  0  0  0
 13 20  1  0  0  0  0
 13 21  1  0  0  0  0
 14 22  1  0  0  0  0
 14 23  1  0  0  0  0
 15 24  2  0  0  0  0
 18 25  1  0  0  0  0
 19 26  2  0  0  0  0
 20 27  1  0  0  0  0
 21 28  2  0  0  0  0
 21 29  1  0  0  0  0
 22 30  1  0  0  0  0
 22 31  1  0  0  0  0
 23 32  1  0  0  0  0
 23 33  2  0  0  0  0
 25 34  2  0  0  0  0
 27 35  1  0  0  0  0
 29 36  1  0  0  0  0
 32 37  1  0  0  0  0
 34 38  1  0  0  0  0
 35 39  2  0  0  0  0
 36 40  1  0  0  0  0
 37 41  2  0  0  0  0
 37 42  1  0  0  0  0
 40 43  2  0  0  0  0
 40 44  1  0  0  0  0
 42 45  1  0  0  0  0
 42 46  1  0  0  0  0
 43 47  1  0  0  0  0
 44 48  2  0  0  0  0
 47 49  2  0  0  0  0
  7  9  1  0  0  0  0
 17 20  1  0  0  0  0
 24 33  1  0  0  0  0
 26 34  1  0  0  0  0
 30 32  2  0  0  0  0
 48 49  1  0  0  0  0
M  END
>  <MolRegNo>
2036057

>  <m>
=

>  <Value>
3160

>  <Unit>
nM

>  <Type>
IC50

>  <pValue>
5.5

>  <Ligand Efficiency>
0.15

>  <Binding Efficiency>
8.29

>  <Surface Efficiency>
4.52

>  <Assay Index>
974120

>  <Assay Category>


>  <Assay Organism>
Homo sapiens

>  <Target ID>
17045

>  <Target Name>
Cytochrome P450 3A4

>  <Target Organism>
Homo sapiens

>  <Target Description>
Target is a single protein chain

>  <Sequence Accession>
P08684

>  <Reference>


>  <Pubmed ID>


>  <DOI>


$$$$
2036058
Actelion Java MolfileCreator 1.0

 51 56  0  0  1  0  0  0  0  0999 V2000
    0.0000   -0.0000   -0.0000 O   0  0  0  0  0  0  0  0  0  0  0  0
   -0.0122    1.2545   -0.0000 C   0  0  0  0  0  0  0  0  0  0  0  0
    1.3154    2.0339   -0.0000 N   0  0  0  0  0  0  0  0  0  0  0  0
   -1.3641    2.0339   -0.0000 C   0  0  0  0  0  0  0  0  0  0  0  0
    1.3032    3.5929   -0.0000 C   0  0  0  0  0  0  0  0  0  0  0  0
    2.6429    1.2788   -0.0000 C   0  0  0  0  0  0  0  0  0  0  0  0
   -1.3763    3.5929   -0.0000 N   0  0  0  0  0  0  0  0  0  0  0  0
   -2.7160    1.2788   -0.0000 C   0  0  0  0  0  0  0  0  0  0  0  0
   -0.0487    4.3723   -0.0000 C   0  0  0  0  0  0  0  0  0  0  0  0
    3.9704    2.0705   -0.0000 C   0  0  0  0  0  0  0  0  0  0  0  0
   -2.7281    4.3723   -0.0000 C   0  0  0  0  0  0  0  0  0  0  0  0
   -4.0679    2.0705   -0.0000 C   0  0  0  0  0  0  0  0  0  0  0  0
   -0.0609    5.9313   -0.0000 N   0  0  0  0  0  0  0  0  0  0  0  0
    5.2980    1.3154   -0.0000 C   0  0  0  0  0  0  0  0  0  0  0  0
    3.9582    3.6294   -0.0000 C   0  0  0  0  0  0  0  0  0  0  0  0
   -3.8121    3.7634   -0.0000 O   0  0  0  0  0  0  0  0  0  0  0  0
   -2.7403    5.9313   -0.0000 C   0  0  0  0  0  0  0  0  0  0  0  0
   -5.4198    1.3154   -0.0000 C   0  0  0  0  0  0  0  0  0  0  0  0
   -4.0800    3.6294   -0.0000 C   0  0  0  0  0  0  0  0  0  0  0  0
   -1.4128    6.7107   -0.0000 N   0  0  0  0  0  0  0  0  0  0  0  0
    1.2666    6.7229   -0.0000 C   0  0  0  0  0  0  0  0  0  0  0  0
    5.6146   -0.1827   -0.0000 N   0  0  0  0  0  0  0  0  0  0  0  0
    6.6255    2.1070   -0.0000 C   0  0  0  0  0  0  0  0  0  0  0  0
    5.2858    4.4211   -0.0000 C   0  0  0  0  0  0  0  0  0  0  0  0
   -6.7716    2.1070   -0.0000 C   0  0  0  0  0  0  0  0  0  0  0  0
   -5.4319    4.4211   -0.0000 C   0  0  0  0  0  0  0  0  0  0  0  0
   -1.4250    8.2697   -0.0000 C   0  0  0  0  0  0  0  0  0  0  0  0
    2.3262    6.1140   -0.0000 O   0  0  0  0  0  0  0  0  0  0  0  0
    1.2545    8.2819   -0.0000 N   0  0  0  0  0  0  0  0  0  0  0  0
    7.1370   -0.3288   -0.0000 C   0  0  0  0  0  0  0  0  0  0  0  0
    4.7743   -1.0961   -0.0000 C   0  0  0  0  0  0  0  0  0  0  0  0
    7.7703    1.0840   -0.0000 C   0  0  0  0  0  0  0  0  0  0  0  0
    6.6133    3.6659   -0.0000 C   0  0  0  0  0  0  0  0  0  0  0  0
   -6.7838    3.6659   -0.0000 C   0  0  0  0  0  0  0  0  0  0  0  0
   -2.7769    9.0492   -0.0000 C   0  0  0  0  0  0  0  0  0  0  0  0
    2.5820    9.0735   -0.0000 C   0  0  0  0  0  0  0  0  0  0  0  0
    9.2684    1.4250   -0.0000 C   0  0  0  0  0  0  0  0  0  0  0  0
   -7.8678    4.2993   -0.0000 O   0  0  0  0  0  0  0  0  0  0  0  0
   -2.7890   10.3036   -0.0000 C   0  0  0  0  0  0  0  0  0  0  0  0
    2.5698   10.6325   -0.0000 C   0  0  0  0  0  0  0  0  0  0  0  0
    9.6338    2.6185   -0.0000 O   0  0  0  0  0  0  0  0  0  0  0  0
   10.2914    0.2923   -0.0000 N   0  0  0  0  0  0  0  0  0  0  0  0
    3.8973   11.4241   -0.0000 C   0  0  0  0  0  0  0  0  0  0  0  0
    1.2179   11.4119   -0.0000 C   0  0  0  0  0  0  0  0  0  0  0  0
   11.7895    0.6333   -0.0000 C   0  0  0  0  0  0  0  0  0  0  0  0
    9.9017   -0.8769   -0.0000 C   0  0  0  0  0  0  0  0  0  0  0  0
    3.8852   12.9830   -0.0000 C   0  0  0  0  0  0  0  0  0  0  0  0
    1.2057   12.9709   -0.0000 C   0  0  0  0  0  0  0  0  0  0  0  0
   12.8125   -0.4993   -0.0000 C   0  0  0  0  0  0  0  0  0  0  0  0
    2.5333   13.7625   -0.0000 C   0  0  0  0  0  0  0  0  0  0  0  0
   14.0061   -0.2314   -0.0000 O   0  0  0  0  0  0  0  0  0  0  0  0
  1  2  2  0  0  0  0
  2  3  1  0  0  0  0
  2  4  1  0  0  0  0
  3  5  1  0  0  0  0
  3  6  1  0  0  0  0
  4  7  1  0  0  0  0
  4  8  1  6  0  0  0
  5  9  1  0  0  0  0
  6 10  1  0  0  0  0
  7 11  1  0  0  0  0
  8 12  1  0  0  0  0
  9 13  1  1  0  0  0
 10 14  2  0  0  0  0
 10 15  1  0  0  0  0
 11 16  2  0  0  0  0
 11 17  1  0  0  0  0
 12 18  2  0  0  0  0
 12 19  1  0  0  0  0
 13 20  1  0  0  0  0
 13 21  1  0  0  0  0
 14 22  1  0  0  0  0
 14 23  1  0  0  0  0
 15 24  2  0  0  0  0
 18 25  1  0  0  0  0
 19 26  2  0  0  0  0
 20 27  1  0  0  0  0
 21 28  2  0  0  0  0
 21 29  1  0  0  0  0
 22 30  1  0  0  0  0
 22 31  1  0  0  0  0
 23 32  1  0  0  0  0
 23 33  2  0  0  0  0
 25 34  2  0  0  0  0
 27 35  1  0  0  0  0
 29 36  1  0  0  0  0
 32 37  1  0  0  0  0
 34 38  1  0  0  0  0
 35 39  2  0  0  0  0
 36 40  1  0  0  0  0
 37 41  2  0  0  0  0
 37 42  1  0  0  0  0
 40 43  2  0  0  0  0
 40 44  1  0  0  0  0
 42 45  1  0  0  0  0
 42 46  1  0  0  0  0
 43 47  1  0  0  0  0
 44 48  2  0  0  0  0
 45 49  1  0  0  0  0
 47 50  2  0  0  0  0
 49 51  1  0  0  0  0
  7  9  1  0  0  0  0
 17 20  1  0  0  0  0
 24 33  1  0  0  0  0
 26 34  1  0  0  0  0
 30 32  2  0  0  0  0
 48 50  1  0  0  0  0
M  END
>  <MolRegNo>
2036058

>  <m>
=

>  <Value>
2510

>  <Unit>
nM

>  <Type>
IC50

>  <pValue>
5.6

>  <Ligand Efficiency>
0.15

>  <Binding Efficiency>
8.07

>  <Surface Efficiency>
3.95

>  <Assay Index>
974120

>  <Assay Category>


>  <Assay Organism>
Homo sapiens

>  <Target ID>
17045

>  <Target Name>
Cytochrome P450 3A4

>  <Target Organism>
Homo sapiens

>  <Target Description>
Target is a single protein chain

>  <Sequence Accession>
P08684

>  <Reference>


>  <Pubmed ID>


>  <DOI>


$$$$
2036059
Actelion Java MolfileCreator 1.0

 51 56  0  0  1  0  0  0  0  0999 V2000
    0.0000   -0.0000   -0.0000 O   0  0  0  0  0  0  0  0  0  0  0  0
   -0.0121    1.2500   -0.0000 C   0  0  0  0  0  0  0  0  0  0  0  0
    1.3107    2.0268   -0.0000 N   0  0  0  0  0  0  0  0  0  0  0  0
   -1.3593    2.0268   -0.0000 C   0  0  0  0  0  0  0  0  0  0  0  0
    1.2986    3.5802   -0.0000 C   0  0  0  0  0  0  0  0  0  0  0  0
    2.6336    1.2743   -0.0000 C   0  0  0  0  0  0  0  0  0  0  0  0
   -1.3714    3.5802   -0.0000 N   0  0  0  0  0  0  0  0  0  0  0  0
   -2.7064    1.2743   -0.0000 C   0  0  0  0  0  0  0  0  0  0  0  0
   -0.0485    4.3570   -0.0000 C   0  0  0  0  0  0  0  0  0  0  0  0
    3.9565    2.0632   -0.0000 C   0  0  0  0  0  0  0  0  0  0  0  0
   -2.7186    4.3570   -0.0000 C   0  0  0  0  0  0  0  0  0  0  0  0
   -4.0536    2.0632   -0.0000 C   0  0  0  0  0  0  0  0  0  0  0  0
   -0.0607    5.9104   -0.0000 N   0  0  0  0  0  0  0  0  0  0  0  0
    5.2793    1.3107   -0.0000 C   0  0  0  0  0  0  0  0  0  0  0  0
    3.9443    3.6166   -0.0000 C   0  0  0  0  0  0  0  0  0  0  0  0
   -3.7987    3.7501   -0.0000 O   0  0  0  0  0  0  0  0  0  0  0  0
   -2.7307    5.9104   -0.0000 C   0  0  0  0  0  0  0  0  0  0  0  0
   -5.4007    1.3107   -0.0000 C   0  0  0  0  0  0  0  0  0  0  0  0
   -4.0657    3.6166   -0.0000 C   0  0  0  0  0  0  0  0  0  0  0  0
   -1.4078    6.6872   -0.0000 N   0  0  0  0  0  0  0  0  0  0  0  0
    1.2622    6.6993   -0.0000 C   0  0  0  0  0  0  0  0  0  0  0  0
    5.5949   -0.1820   -0.0000 N   0  0  0  0  0  0  0  0  0  0  0  0
    6.6022    2.0996   -0.0000 C   0  0  0  0  0  0  0  0  0  0  0  0
    5.2672    4.4055   -0.0000 C   0  0  0  0  0  0  0  0  0  0  0  0
   -6.7478    2.0996   -0.0000 C   0  0  0  0  0  0  0  0  0  0  0  0
   -5.4128    4.4055   -0.0000 C   0  0  0  0  0  0  0  0  0  0  0  0
   -1.4200    8.2406   -0.0000 C   0  0  0  0  0  0  0  0  0  0  0  0
    2.3181    6.0925   -0.0000 O   0  0  0  0  0  0  0  0  0  0  0  0
    1.2500    8.2527   -0.0000 N   0  0  0  0  0  0  0  0  0  0  0  0
    7.1119   -0.3277   -0.0000 C   0  0  0  0  0  0  0  0  0  0  0  0
    4.7575   -1.0923   -0.0000 C   0  0  0  0  0  0  0  0  0  0  0  0
    7.7430    1.0801   -0.0000 C   0  0  0  0  0  0  0  0  0  0  0  0
    6.5901    3.6531   -0.0000 C   0  0  0  0  0  0  0  0  0  0  0  0
   -6.7600    3.6531   -0.0000 C   0  0  0  0  0  0  0  0  0  0  0  0
   -2.7671    9.0173   -0.0000 C   0  0  0  0  0  0  0  0  0  0  0  0
    2.5729    9.0416   -0.0000 C   0  0  0  0  0  0  0  0  0  0  0  0
    9.2358    1.4200   -0.0000 C   0  0  0  0  0  0  0  0  0  0  0  0
   -7.8401    4.2841   -0.0000 O   0  0  0  0  0  0  0  0  0  0  0  0
   -2.7792   10.2674   -0.0000 C   0  0  0  0  0  0  0  0  0  0  0  0
    2.5608   10.5951   -0.0000 C   0  0  0  0  0  0  0  0  0  0  0  0
    9.5999    2.6093   -0.0000 O   0  0  0  0  0  0  0  0  0  0  0  0
   10.2552    0.2913   -0.0000 N   0  0  0  0  0  0  0  0  0  0  0  0
    3.8836   11.3839   -0.0000 C   0  0  0  0  0  0  0  0  0  0  0  0
    1.2136   11.3718   -0.0000 C   0  0  0  0  0  0  0  0  0  0  0  0
   11.7480    0.6311   -0.0000 C   0  0  0  0  0  0  0  0  0  0  0  0
    3.8715   12.9374   -0.0000 C   0  0  0  0  0  0  0  0  0  0  0  0
    1.2015   12.9253   -0.0000 C   0  0  0  0  0  0  0  0  0  0  0  0
   12.7675   -0.4976   -0.0000 C   0  0  0  0  0  0  0  0  0  0  0  0
    2.5244   13.7141   -0.0000 C   0  0  0  0  0  0  0  0  0  0  0  0
   14.2603   -0.1578   -0.0000 C   0  0  0  0  0  0  0  0  0  0  0  0
   15.0734   -1.0559   -0.0000 O   0  0  0  0  0  0  0  0  0  0  0  0
  1  2  2  0  0  0  0
  2  3  1  0  0  0  0
  2  4  1  0  0  0  0
  3  5  1  0  0  0  0
  3  6  1  0  0  0  0
  4  7  1  0  0  0  0
  4  8  1  6  0  0  0
  5  9  1  0  0  0  0
  6 10  1  0  0  0  0
  7 11  1  0  0  0  0
  8 12  1  0  0  0  0
  9 13  1  1  0  0  0
 10 14  2  0  0  0  0
 10 15  1  0  0  0  0
 11 16  2  0  0  0  0
 11 17  1  0  0  0  0
 12 18  2  0  0  0  0
 12 19  1  0  0  0  0
 13 20  1  0  0  0  0
 13 21  1  0  0  0  0
 14 22  1  0  0  0  0
 14 23  1  0  0  0  0
 15 24  2  0  0  0  0
 18 25  1  0  0  0  0
 19 26  2  0  0  0  0
 20 27  1  0  0  0  0
 21 28  2  0  0  0  0
 21 29  1  0  0  0  0
 22 30  1  0  0  0  0
 22 31  1  0  0  0  0
 23 32  1  0  0  0  0
 23 33  2  0  0  0  0
 25 34  2  0  0  0  0
 27 35  1  0  0  0  0
 29 36  1  0  0  0  0
 32 37  1  0  0  0  0
 34 38  1  0  0  0  0
 35 39  2  0  0  0  0
 36 40  1  0  0  0  0
 37 41  2  0  0  0  0
 37 42  1  0  0  0  0
 40 43  2  0  0  0  0
 40 44  1  0  0  0  0
 42 45  1  0  0  0  0
 43 46  1  0  0  0  0
 44 47  2  0  0  0  0
 45 48  1  0  0  0  0
 46 49  2  0  0  0  0
 48 50  1  0  0  0  0
 50 51  1  0  0  0  0
  7  9  1  0  0  0  0
 17 20  1  0  0  0  0
 24 33  1  0  0  0  0
 26 34  1  0  0  0  0
 30 32  2  0  0  0  0
 47 49  1  0  0  0  0
M  END
>  <MolRegNo>
2036059

>  <m>
=

>  <Value>
16180

>  <Unit>
nM

>  <Type>
IC50

>  <pValue>
4.79

>  <Ligand Efficiency>
0.13

>  <Binding Efficiency>
6.91

>  <Surface Efficiency>
3.18

>  <Assay Index>
974120

>  <Assay Category>


>  <Assay Organism>
Homo sapiens

>  <Target ID>
17045

>  <Target Name>
Cytochrome P450 3A4

>  <Target Organism>
Homo sapiens

>  <Target Description>
Target is a single protein chain

>  <Sequence Accession>
P08684

>  <Reference>


>  <Pubmed ID>


>  <DOI>


$$$$
2036060
Actelion Java MolfileCreator 1.0

 52 57  0  0  1  0  0  0  0  0999 V2000
    0.0000   -0.0000   -0.0000 O   0  0  0  0  0  0  0  0  0  0  0  0
   -0.0122    1.2540   -0.0000 C   0  0  0  0  0  0  0  0  0  0  0  0
    1.3149    2.0332   -0.0000 N   0  0  0  0  0  0  0  0  0  0  0  0
   -1.3636    2.0332   -0.0000 C   0  0  0  0  0  0  0  0  0  0  0  0
    1.3027    3.5917   -0.0000 C   0  0  0  0  0  0  0  0  0  0  0  0
    2.6420    1.2784   -0.0000 C   0  0  0  0  0  0  0  0  0  0  0  0
   -1.3758    3.5917   -0.0000 N   0  0  0  0  0  0  0  0  0  0  0  0
   -2.7150    1.2784   -0.0000 C   0  0  0  0  0  0  0  0  0  0  0  0
   -0.0487    4.3709   -0.0000 C   0  0  0  0  0  0  0  0  0  0  0  0
    3.9691    2.0698   -0.0000 C   0  0  0  0  0  0  0  0  0  0  0  0
   -2.7272    4.3709   -0.0000 C   0  0  0  0  0  0  0  0  0  0  0  0
   -4.0665    2.0698   -0.0000 C   0  0  0  0  0  0  0  0  0  0  0  0
   -0.0609    5.9293   -0.0000 N   0  0  0  0  0  0  0  0  0  0  0  0
    5.2962    1.3149   -0.0000 C   0  0  0  0  0  0  0  0  0  0  0  0
    3.9569    3.6282   -0.0000 C   0  0  0  0  0  0  0  0  0  0  0  0
   -3.8108    3.7621   -0.0000 O   0  0  0  0  0  0  0  0  0  0  0  0
   -2.7394    5.9293   -0.0000 C   0  0  0  0  0  0  0  0  0  0  0  0
   -5.4179    1.3149   -0.0000 C   0  0  0  0  0  0  0  0  0  0  0  0
   -4.0787    3.6282   -0.0000 C   0  0  0  0  0  0  0  0  0  0  0  0
   -1.4123    6.7085   -0.0000 N   0  0  0  0  0  0  0  0  0  0  0  0
    1.2662    6.7207   -0.0000 C   0  0  0  0  0  0  0  0  0  0  0  0
    5.6127   -0.1826   -0.0000 N   0  0  0  0  0  0  0  0  0  0  0  0
    6.6233    2.1063   -0.0000 C   0  0  0  0  0  0  0  0  0  0  0  0
    5.2840    4.4196   -0.0000 C   0  0  0  0  0  0  0  0  0  0  0  0
   -6.7694    2.1063   -0.0000 C   0  0  0  0  0  0  0  0  0  0  0  0
   -5.4301    4.4196   -0.0000 C   0  0  0  0  0  0  0  0  0  0  0  0
   -1.4245    8.2669   -0.0000 C   0  0  0  0  0  0  0  0  0  0  0  0
    2.3254    6.1119   -0.0000 O   0  0  0  0  0  0  0  0  0  0  0  0
    1.2540    8.2791   -0.0000 N   0  0  0  0  0  0  0  0  0  0  0  0
    7.1346   -0.3287   -0.0000 C   0  0  0  0  0  0  0  0  0  0  0  0
    4.7726   -1.0958   -0.0000 C   0  0  0  0  0  0  0  0  0  0  0  0
    7.7677    1.0836   -0.0000 C   0  0  0  0  0  0  0  0  0  0  0  0
    6.6111    3.6647   -0.0000 C   0  0  0  0  0  0  0  0  0  0  0  0
   -6.7815    3.6647   -0.0000 C   0  0  0  0  0  0  0  0  0  0  0  0
   -2.7759    9.0461   -0.0000 C   0  0  0  0  0  0  0  0  0  0  0  0
    2.5811    9.0705   -0.0000 C   0  0  0  0  0  0  0  0  0  0  0  0
    9.2653    1.4245   -0.0000 C   0  0  0  0  0  0  0  0  0  0  0  0
   -7.8651    4.2978   -0.0000 O   0  0  0  0  0  0  0  0  0  0  0  0
   -2.7881   10.3001   -0.0000 C   0  0  0  0  0  0  0  0  0  0  0  0
    2.5689   10.6289   -0.0000 C   0  0  0  0  0  0  0  0  0  0  0  0
    9.6305    2.6176   -0.0000 O   0  0  0  0  0  0  0  0  0  0  0  0
   10.2880    0.2922   -0.0000 N   0  0  0  0  0  0  0  0  0  0  0  0
    3.8960   11.4202   -0.0000 C   0  0  0  0  0  0  0  0  0  0  0  0
    1.2175   11.4081   -0.0000 C   0  0  0  0  0  0  0  0  0  0  0  0
   11.7855    0.6331   -0.0000 C   0  0  0  0  0  0  0  0  0  0  0  0
    9.8984   -0.8766   -0.0000 C   0  0  0  0  0  0  0  0  0  0  0  0
    3.8839   12.9787   -0.0000 C   0  0  0  0  0  0  0  0  0  0  0  0
    1.2053   12.9665   -0.0000 C   0  0  0  0  0  0  0  0  0  0  0  0
   12.8082   -0.4992   -0.0000 C   0  0  0  0  0  0  0  0  0  0  0  0
    2.5324   13.7579   -0.0000 C   0  0  0  0  0  0  0  0  0  0  0  0
   14.3057   -0.1583   -0.0000 C   0  0  0  0  0  0  0  0  0  0  0  0
   15.1215   -1.0592   -0.0000 O   0  0  0  0  0  0  0  0  0  0  0  0
  1  2  2  0  0  0  0
  2  3  1  0  0  0  0
  2  4  1  0  0  0  0
  3  5  1  0  0  0  0
  3  6  1  0  0  0  0
  4  7  1  0  0  0  0
  4  8  1  6  0  0  0
  5  9  1  0  0  0  0
  6 10  1  0  0  0  0
  7 11  1  0  0  0  0
  8 12  1  0  0  0  0
  9 13  1  1  0  0  0
 10 14  2  0  0  0  0
 10 15  1  0  0  0  0
 11 16  2  0  0  0  0
 11 17  1  0  0  0  0
 12 18  2  0  0  0  0
 12 19  1  0  0  0  0
 13 20  1  0  0  0  0
 13 21  1  0  0  0  0
 14 22  1  0  0  0  0
 14 23  1  0  0  0  0
 15 24  2  0  0  0  0
 18 25  1  0  0  0  0
 19 26  2  0  0  0  0
 20 27  1  0  0  0  0
 21 28  2  0  0  0  0
 21 29  1  0  0  0  0
 22 30  1  0  0  0  0
 22 31  1  0  0  0  0
 23 32  1  0  0  0  0
 23 33  2  0  0  0  0
 25 34  2  0  0  0  0
 27 35  1  0  0  0  0
 29 36  1  0  0  0  0
 32 37  1  0  0  0  0
 34 38  1  0  0  0  0
 35 39  2  0  0  0  0
 36 40  1  0  0  0  0
 37 41  2  0  0  0  0
 37 42  1  0  0  0  0
 40 43  2  0  0  0  0
 40 44  1  0  0  0  0
 42 45  1  0  0  0  0
 42 46  1  0  0  0  0
 43 47  1  0  0  0  0
 44 48  2  0  0  0  0
 45 49  1  0  0  0  0
 47 50  2  0  0  0  0
 49 51  1  0  0  0  0
 51 52  1  0  0  0  0
  7  9  1  0  0  0  0
 17 20  1  0  0  0  0
 24 33  1  0  0  0  0
 26 34  1  0  0  0  0
 30 32  2  0  0  0  0
 48 50  1  0  0  0  0
M  END
>  <MolRegNo>
2036060

>  <m>
=

>  <Value>
3680

>  <Unit>
nM

>  <Type>
IC50

>  <pValue>
5.43

>  <Ligand Efficiency>
0.14

>  <Binding Efficiency>
7.68

>  <Surface Efficiency>
3.83

>  <Assay Index>
974120

>  <Assay Category>


>  <Assay Organism>
Homo sapiens

>  <Target ID>
17045

>  <Target Name>
Cytochrome P450 3A4

>  <Target Organism>
Homo sapiens

>  <Target Description>
Target is a single protein chain

>  <Sequence Accession>
P08684

>  <Reference>


>  <Pubmed ID>


>  <DOI>


$$$$
2036061
Actelion Java MolfileCreator 1.0

 52 57  0  0  1  0  0  0  0  0999 V2000
    0.0000   -0.0000   -0.0000 O   0  0  0  0  0  0  0  0  0  0  0  0
   -0.0121    1.2496   -0.0000 C   0  0  0  0  0  0  0  0  0  0  0  0
    1.3103    2.0261   -0.0000 N   0  0  0  0  0  0  0  0  0  0  0  0
   -1.3588    2.0261   -0.0000 C   0  0  0  0  0  0  0  0  0  0  0  0
    1.2982    3.5790   -0.0000 C   0  0  0  0  0  0  0  0  0  0  0  0
    2.6327    1.2739   -0.0000 C   0  0  0  0  0  0  0  0  0  0  0  0
   -1.3710    3.5790   -0.0000 N   0  0  0  0  0  0  0  0  0  0  0  0
   -2.7055    1.2739   -0.0000 C   0  0  0  0  0  0  0  0  0  0  0  0
   -0.0485    4.3555   -0.0000 C   0  0  0  0  0  0  0  0  0  0  0  0
    3.9551    2.0625   -0.0000 C   0  0  0  0  0  0  0  0  0  0  0  0
   -2.7176    4.3555   -0.0000 C   0  0  0  0  0  0  0  0  0  0  0  0
   -4.0522    2.0625   -0.0000 C   0  0  0  0  0  0  0  0  0  0  0  0
   -0.0607    5.9085   -0.0000 N   0  0  0  0  0  0  0  0  0  0  0  0
    5.2776    1.3103   -0.0000 C   0  0  0  0  0  0  0  0  0  0  0  0
    3.9430    3.6154   -0.0000 C   0  0  0  0  0  0  0  0  0  0  0  0
   -3.7974    3.7489   -0.0000 O   0  0  0  0  0  0  0  0  0  0  0  0
   -2.7298    5.9085   -0.0000 C   0  0  0  0  0  0  0  0  0  0  0  0
   -5.3989    1.3103   -0.0000 C   0  0  0  0  0  0  0  0  0  0  0  0
   -4.0643    3.6154   -0.0000 C   0  0  0  0  0  0  0  0  0  0  0  0
   -1.4074    6.6849   -0.0000 N   0  0  0  0  0  0  0  0  0  0  0  0
    1.2618    6.6971   -0.0000 C   0  0  0  0  0  0  0  0  0  0  0  0
    5.5930   -0.1820   -0.0000 N   0  0  0  0  0  0  0  0  0  0  0  0
    6.6000    2.0989   -0.0000 C   0  0  0  0  0  0  0  0  0  0  0  0
    5.2654    4.4040   -0.0000 C   0  0  0  0  0  0  0  0  0  0  0  0
   -6.7456    2.0989   -0.0000 C   0  0  0  0  0  0  0  0  0  0  0  0
   -5.4110    4.4040   -0.0000 C   0  0  0  0  0  0  0  0  0  0  0  0
   -1.4195    8.2379   -0.0000 C   0  0  0  0  0  0  0  0  0  0  0  0
    2.3173    6.0904   -0.0000 O   0  0  0  0  0  0  0  0  0  0  0  0
    1.2496    8.2500   -0.0000 N   0  0  0  0  0  0  0  0  0  0  0  0
    7.1096   -0.3276   -0.0000 C   0  0  0  0  0  0  0  0  0  0  0  0
    4.7559   -1.0919   -0.0000 C   0  0  0  0  0  0  0  0  0  0  0  0
    7.7404    1.0798   -0.0000 C   0  0  0  0  0  0  0  0  0  0  0  0
    6.5879    3.6518   -0.0000 C   0  0  0  0  0  0  0  0  0  0  0  0
   -6.7577    3.6518   -0.0000 C   0  0  0  0  0  0  0  0  0  0  0  0
   -2.7662    9.0143   -0.0000 C   0  0  0  0  0  0  0  0  0  0  0  0
    2.5721    9.0386   -0.0000 C   0  0  0  0  0  0  0  0  0  0  0  0
    9.2327    1.4195   -0.0000 C   0  0  0  0  0  0  0  0  0  0  0  0
   -7.8375    4.2827   -0.0000 O   0  0  0  0  0  0  0  0  0  0  0  0
   -2.7783   10.2640   -0.0000 C   0  0  0  0  0  0  0  0  0  0  0  0
    2.5599   10.5916   -0.0000 C   0  0  0  0  0  0  0  0  0  0  0  0
    9.5967    2.6085   -0.0000 O   0  0  0  0  0  0  0  0  0  0  0  0
   10.2518    0.2912   -0.0000 N   0  0  0  0  0  0  0  0  0  0  0  0
    3.8824   11.3802   -0.0000 C   0  0  0  0  0  0  0  0  0  0  0  0
    1.2132   11.3680   -0.0000 C   0  0  0  0  0  0  0  0  0  0  0  0
   11.7441    0.6309   -0.0000 C   0  0  0  0  0  0  0  0  0  0  0  0
    3.8702   12.9331   -0.0000 C   0  0  0  0  0  0  0  0  0  0  0  0
    1.2011   12.9210   -0.0000 C   0  0  0  0  0  0  0  0  0  0  0  0
   12.7632   -0.4974   -0.0000 C   0  0  0  0  0  0  0  0  0  0  0  0
    2.5235   13.7096   -0.0000 C   0  0  0  0  0  0  0  0  0  0  0  0
   14.2555   -0.1577   -0.0000 C   0  0  0  0  0  0  0  0  0  0  0  0
   15.2746   -1.2860   -0.0000 O   0  0  0  0  0  0  0  0  0  0  0  0
   16.4636   -1.0191   -0.0000 C   0  0  0  0  0  0  0  0  0  0  0  0
  1  2  2  0  0  0  0
  2  3  1  0  0  0  0
  2  4  1  0  0  0  0
  3  5  1  0  0  0  0
  3  6  1  0  0  0  0
  4  7  1  0  0  0  0
  4  8  1  6  0  0  0
  5  9  1  0  0  0  0
  6 10  1  0  0  0  0
  7 11  1  0  0  0  0
  8 12  1  0  0  0  0
  9 13  1  1  0  0  0
 10 14  2  0  0  0  0
 10 15  1  0  0  0  0
 11 16  2  0  0  0  0
 11 17  1  0  0  0  0
 12 18  2  0  0  0  0
 12 19  1  0  0  0  0
 13 20  1  0  0  0  0
 13 21  1  0  0  0  0
 14 22  1  0  0  0  0
 14 23  1  0  0  0  0
 15 24  2  0  0  0  0
 18 25  1  0  0  0  0
 19 26  2  0  0  0  0
 20 27  1  0  0  0  0
 21 28  2  0  0  0  0
 21 29  1  0  0  0  0
 22 30  1  0  0  0  0
 22 31  1  0  0  0  0
 23 32  1  0  0  0  0
 23 33  2  0  0  0  0
 25 34  2  0  0  0  0
 27 35  1  0  0  0  0
 29 36  1  0  0  0  0
 32 37  1  0  0  0  0
 34 38  1  0  0  0  0
 35 39  2  0  0  0  0
 36 40  1  0  0  0  0
 37 41  2  0  0  0  0
 37 42  1  0  0  0  0
 40 43  2  0  0  0  0
 40 44  1  0  0  0  0
 42 45  1  0  0  0  0
 43 46  1  0  0  0  0
 44 47  2  0  0  0  0
 45 48  1  0  0  0  0
 46 49  2  0  0  0  0
 48 50  1  0  0  0  0
 50 51  1  0  0  0  0
 51 52  1  0  0  0  0
  7  9  1  0  0  0  0
 17 20  1  0  0  0  0
 24 33  1  0  0  0  0
 26 34  1  0  0  0  0
 30 32  2  0  0  0  0
 47 49  1  0  0  0  0
M  END
>  <MolRegNo>
2036061

>  <m>
=

>  <Value>
3840

>  <Unit>
nM

>  <Type>
IC50

>  <pValue>
5.42

>  <Ligand Efficiency>
0.14

>  <Binding Efficiency>
7.65

>  <Surface Efficiency>
3.88

>  <Assay Index>
974120

>  <Assay Category>


>  <Assay Organism>
Homo sapiens

>  <Target ID>
17045

>  <Target Name>
Cytochrome P450 3A4

>  <Target Organism>
Homo sapiens

>  <Target Description>
Target is a single protein chain

>  <Sequence Accession>
P08684

>  <Reference>


>  <Pubmed ID>


>  <DOI>


$$$$
2036062
Actelion Java MolfileCreator 1.0

 53 58  0  0  1  0  0  0  0  0999 V2000
    0.0000   -0.0000   -0.0000 O   0  0  0  0  0  0  0  0  0  0  0  0
   -0.0121    1.2493   -0.0000 C   0  0  0  0  0  0  0  0  0  0  0  0
    1.3099    2.0256   -0.0000 N   0  0  0  0  0  0  0  0  0  0  0  0
   -1.3585    2.0256   -0.0000 C   0  0  0  0  0  0  0  0  0  0  0  0
    1.2978    3.5781   -0.0000 C   0  0  0  0  0  0  0  0  0  0  0  0
    2.6320    1.2736   -0.0000 C   0  0  0  0  0  0  0  0  0  0  0  0
   -1.3706    3.5781   -0.0000 N   0  0  0  0  0  0  0  0  0  0  0  0
   -2.7048    1.2736   -0.0000 C   0  0  0  0  0  0  0  0  0  0  0  0
   -0.0485    4.3544   -0.0000 C   0  0  0  0  0  0  0  0  0  0  0  0
    3.9541    2.0620   -0.0000 C   0  0  0  0  0  0  0  0  0  0  0  0
   -2.7169    4.3544   -0.0000 C   0  0  0  0  0  0  0  0  0  0  0  0
   -4.0511    2.0620   -0.0000 C   0  0  0  0  0  0  0  0  0  0  0  0
   -0.0606    5.9069   -0.0000 N   0  0  0  0  0  0  0  0  0  0  0  0
    5.2762    1.3099   -0.0000 C   0  0  0  0  0  0  0  0  0  0  0  0
    3.9420    3.6145   -0.0000 C   0  0  0  0  0  0  0  0  0  0  0  0
   -3.7964    3.7479   -0.0000 O   0  0  0  0  0  0  0  0  0  0  0  0
   -2.7291    5.9069   -0.0000 C   0  0  0  0  0  0  0  0  0  0  0  0
   -5.3975    1.3099   -0.0000 C   0  0  0  0  0  0  0  0  0  0  0  0
   -4.0633    3.6145   -0.0000 C   0  0  0  0  0  0  0  0  0  0  0  0
   -1.4070    6.6832   -0.0000 N   0  0  0  0  0  0  0  0  0  0  0  0
    1.2614    6.6953   -0.0000 C   0  0  0  0  0  0  0  0  0  0  0  0
    5.5915   -0.1819   -0.0000 N   0  0  0  0  0  0  0  0  0  0  0  0
    6.5983    2.0983   -0.0000 C   0  0  0  0  0  0  0  0  0  0  0  0
    5.2641    4.4029   -0.0000 C   0  0  0  0  0  0  0  0  0  0  0  0
   -6.7438    2.0983   -0.0000 C   0  0  0  0  0  0  0  0  0  0  0  0
   -5.4096    4.4029   -0.0000 C   0  0  0  0  0  0  0  0  0  0  0  0
   -1.4191    8.2357   -0.0000 C   0  0  0  0  0  0  0  0  0  0  0  0
    2.3167    6.0888   -0.0000 O   0  0  0  0  0  0  0  0  0  0  0  0
    1.2493    8.2478   -0.0000 N   0  0  0  0  0  0  0  0  0  0  0  0
    7.1077   -0.3275   -0.0000 C   0  0  0  0  0  0  0  0  0  0  0  0
    4.7546   -1.0916   -0.0000 C   0  0  0  0  0  0  0  0  0  0  0  0
    7.7384    1.0795   -0.0000 C   0  0  0  0  0  0  0  0  0  0  0  0
    6.5861    3.6509   -0.0000 C   0  0  0  0  0  0  0  0  0  0  0  0
   -6.7559    3.6509   -0.0000 C   0  0  0  0  0  0  0  0  0  0  0  0
   -2.7654    9.0120   -0.0000 C   0  0  0  0  0  0  0  0  0  0  0  0
    2.5714    9.0362   -0.0000 C   0  0  0  0  0  0  0  0  0  0  0  0
    9.2303    1.4191   -0.0000 C   0  0  0  0  0  0  0  0  0  0  0  0
   -7.8354    4.2816   -0.0000 O   0  0  0  0  0  0  0  0  0  0  0  0
   -2.7776   10.2613   -0.0000 C   0  0  0  0  0  0  0  0  0  0  0  0
    2.5593   10.5888   -0.0000 C   0  0  0  0  0  0  0  0  0  0  0  0
    9.5942    2.6078   -0.0000 O   0  0  0  0  0  0  0  0  0  0  0  0
   10.2491    0.2911   -0.0000 N   0  0  0  0  0  0  0  0  0  0  0  0
    3.8813   11.3771   -0.0000 C   0  0  0  0  0  0  0  0  0  0  0  0
    1.2129   11.3650   -0.0000 C   0  0  0  0  0  0  0  0  0  0  0  0
   11.7410    0.6307   -0.0000 C   0  0  0  0  0  0  0  0  0  0  0  0
    3.8692   12.9297   -0.0000 C   0  0  0  0  0  0  0  0  0  0  0  0
    1.2008   12.9175   -0.0000 C   0  0  0  0  0  0  0  0  0  0  0  0
   12.7599   -0.4973   -0.0000 C   0  0  0  0  0  0  0  0  0  0  0  0
    2.5229   13.7059   -0.0000 C   0  0  0  0  0  0  0  0  0  0  0  0
   14.2518   -0.1577   -0.0000 O   0  0  0  0  0  0  0  0  0  0  0  0
   15.2706   -1.2857   -0.0000 C   0  0  0  0  0  0  0  0  0  0  0  0
   16.7625   -0.9461   -0.0000 C   0  0  0  0  0  0  0  0  0  0  0  0
   17.5751   -1.8436   -0.0000 O   0  0  0  0  0  0  0  0  0  0  0  0
  1  2  2  0  0  0  0
  2  3  1  0  0  0  0
  2  4  1  0  0  0  0
  3  5  1  0  0  0  0
  3  6  1  0  0  0  0
  4  7  1  0  0  0  0
  4  8  1  6  0  0  0
  5  9  1  0  0  0  0
  6 10  1  0  0  0  0
  7 11  1  0  0  0  0
  8 12  1  0  0  0  0
  9 13  1  1  0  0  0
 10 14  2  0  0  0  0
 10 15  1  0  0  0  0
 11 16  2  0  0  0  0
 11 17  1  0  0  0  0
 12 18  2  0  0  0  0
 12 19  1  0  0  0  0
 13 20  1  0  0  0  0
 13 21  1  0  0  0  0
 14 22  1  0  0  0  0
 14 23  1  0  0  0  0
 15 24  2  0  0  0  0
 18 25  1  0  0  0  0
 19 26  2  0  0  0  0
 20 27  1  0  0  0  0
 21 28  2  0  0  0  0
 21 29  1  0  0  0  0
 22 30  1  0  0  0  0
 22 31  1  0  0  0  0
 23 32  1  0  0  0  0
 23 33  2  0  0  0  0
 25 34  2  0  0  0  0
 27 35  1  0  0  0  0
 29 36  1  0  0  0  0
 32 37  1  0  0  0  0
 34 38  1  0  0  0  0
 35 39  2  0  0  0  0
 36 40  1  0  0  0  0
 37 41  2  0  0  0  0
 37 42  1  0  0  0  0
 40 43  2  0  0  0  0
 40 44  1  0  0  0  0
 42 45  1  0  0  0  0
 43 46  1  0  0  0  0
 44 47  2  0  0  0  0
 45 48  1  0  0  0  0
 46 49  2  0  0  0  0
 48 50  1  0  0  0  0
 50 51  1  0  0  0  0
 51 52  1  0  0  0  0
 52 53  1  0  0  0  0
  7  9  1  0  0  0  0
 17 20  1  0  0  0  0
 24 33  1  0  0  0  0
 26 34  1  0  0  0  0
 30 32  2  0  0  0  0
 47 49  1  0  0  0  0
M  END
>  <MolRegNo>
2036062

>  <m>
=

>  <Value>
16360

>  <Unit>
nM

>  <Type>
IC50

>  <pValue>
4.79

>  <Ligand Efficiency>
0.12

>  <Binding Efficiency>
6.61

>  <Surface Efficiency>
2.99

>  <Assay Index>
974120

>  <Assay Category>


>  <Assay Organism>
Homo sapiens

>  <Target ID>
17045

>  <Target Name>
Cytochrome P450 3A4

>  <Target Organism>
Homo sapiens

>  <Target Description>
Target is a single protein chain

>  <Sequence Accession>
P08684

>  <Reference>


>  <Pubmed ID>


>  <DOI>


$$$$
2036063
Actelion Java MolfileCreator 1.0

 54 60  0  0  1  0  0  0  0  0999 V2000
    0.0000   -0.0000   -0.0000 O   0  0  0  0  0  0  0  0  0  0  0  0
   -0.0122    1.2552   -0.0000 C   0  0  0  0  0  0  0  0  0  0  0  0
    1.3161    2.0351   -0.0000 N   0  0  0  0  0  0  0  0  0  0  0  0
   -1.3648    2.0351   -0.0000 C   0  0  0  0  0  0  0  0  0  0  0  0
    1.3039    3.5949   -0.0000 C   0  0  0  0  0  0  0  0  0  0  0  0
    2.6444    1.2795   -0.0000 C   0  0  0  0  0  0  0  0  0  0  0  0
   -1.3770    3.5949   -0.0000 N   0  0  0  0  0  0  0  0  0  0  0  0
   -2.7175    1.2795   -0.0000 C   0  0  0  0  0  0  0  0  0  0  0  0
   -0.0487    4.3748   -0.0000 C   0  0  0  0  0  0  0  0  0  0  0  0
    3.9727    2.0716   -0.0000 C   0  0  0  0  0  0  0  0  0  0  0  0
   -2.7297    4.3748   -0.0000 C   0  0  0  0  0  0  0  0  0  0  0  0
   -4.0702    2.0716   -0.0000 C   0  0  0  0  0  0  0  0  0  0  0  0
   -0.0609    5.9346   -0.0000 N   0  0  0  0  0  0  0  0  0  0  0  0
    5.3010    1.3161   -0.0000 C   0  0  0  0  0  0  0  0  0  0  0  0
    3.9605    3.6315   -0.0000 C   0  0  0  0  0  0  0  0  0  0  0  0
   -3.8143    3.7655   -0.0000 O   0  0  0  0  0  0  0  0  0  0  0  0
   -2.7419    5.9346   -0.0000 C   0  0  0  0  0  0  0  0  0  0  0  0
   -5.4228    1.3161   -0.0000 C   0  0  0  0  0  0  0  0  0  0  0  0
   -4.0823    3.6315   -0.0000 C   0  0  0  0  0  0  0  0  0  0  0  0
   -1.4136    6.7145   -0.0000 N   0  0  0  0  0  0  0  0  0  0  0  0
    1.2674    6.7267   -0.0000 C   0  0  0  0  0  0  0  0  0  0  0  0
    5.6178   -0.1828   -0.0000 N   0  0  0  0  0  0  0  0  0  0  0  0
    6.6292    2.1082   -0.0000 C   0  0  0  0  0  0  0  0  0  0  0  0
    5.2888    4.4236   -0.0000 C   0  0  0  0  0  0  0  0  0  0  0  0
   -6.7755    2.1082   -0.0000 C   0  0  0  0  0  0  0  0  0  0  0  0
   -5.4350    4.4236   -0.0000 C   0  0  0  0  0  0  0  0  0  0  0  0
   -1.4258    8.2744   -0.0000 C   0  0  0  0  0  0  0  0  0  0  0  0
    2.3275    6.1174   -0.0000 O   0  0  0  0  0  0  0  0  0  0  0  0
    1.2552    8.2866   -0.0000 N   0  0  0  0  0  0  0  0  0  0  0  0
    7.1411   -0.3290   -0.0000 C   0  0  0  0  0  0  0  0  0  0  0  0
    4.7770   -1.0967   -0.0000 C   0  0  0  0  0  0  0  0  0  0  0  0
    7.7747    1.0846   -0.0000 C   0  0  0  0  0  0  0  0  0  0  0  0
    6.6171    3.6680   -0.0000 C   0  0  0  0  0  0  0  0  0  0  0  0
   -6.7877    3.6680   -0.0000 C   0  0  0  0  0  0  0  0  0  0  0  0
   -2.7784    9.0543   -0.0000 C   0  0  0  0  0  0  0  0  0  0  0  0
    2.5835    9.0787   -0.0000 C   0  0  0  0  0  0  0  0  0  0  0  0
    9.2736    1.4258   -0.0000 C   0  0  0  0  0  0  0  0  0  0  0  0
   -7.8722    4.3017   -0.0000 O   0  0  0  0  0  0  0  0  0  0  0  0
   -2.7906   10.3094   -0.0000 C   0  0  0  0  0  0  0  0  0  0  0  0
    2.5713   10.6385   -0.0000 C   0  0  0  0  0  0  0  0  0  0  0  0
    9.6392    2.6200   -0.0000 O   0  0  0  0  0  0  0  0  0  0  0  0
   10.2973    0.2925   -0.0000 N   0  0  0  0  0  0  0  0  0  0  0  0
    3.8996   11.4306   -0.0000 C   0  0  0  0  0  0  0  0  0  0  0  0
    1.2186   11.4184   -0.0000 C   0  0  0  0  0  0  0  0  0  0  0  0
   11.7962    0.6337   -0.0000 C   0  0  0  0  0  0  0  0  0  0  0  0
    9.9073   -0.8774   -0.0000 C   0  0  0  0  0  0  0  0  0  0  0  0
    3.8874   12.9904   -0.0000 C   0  0  0  0  0  0  0  0  0  0  0  0
    1.2064   12.9782   -0.0000 C   0  0  0  0  0  0  0  0  0  0  0  0
   12.8198   -0.4996   -0.0000 C   0  0  0  0  0  0  0  0  0  0  0  0
    2.5347   13.7703   -0.0000 C   0  0  0  0  0  0  0  0  0  0  0  0
   13.1732   -1.8645   -0.0000 C   0  0  0  0  0  0  0  0  0  0  0  0
   11.6987   -1.3892   -0.0000 C   0  0  0  0  0  0  0  0  0  0  0  0
   14.3187   -0.1584   -0.0000 C   0  0  0  0  0  0  0  0  0  0  0  0
   14.6843    1.0358   -0.0000 O   0  0  0  0  0  0  0  0  0  0  0  0
  1  2  2  0  0  0  0
  2  3  1  0  0  0  0
  2  4  1  0  0  0  0
  3  5  1  0  0  0  0
  3  6  1  0  0  0  0
  4  7  1  0  0  0  0
  4  8  1  6  0  0  0
  5  9  1  0  0  0  0
  6 10  1  0  0  0  0
  7 11  1  0  0  0  0
  8 12  1  0  0  0  0
  9 13  1  1  0  0  0
 10 14  2  0  0  0  0
 10 15  1  0  0  0  0
 11 16  2  0  0  0  0
 11 17  1  0  0  0  0
 12 18  2  0  0  0  0
 12 19  1  0  0  0  0
 13 20  1  0  0  0  0
 13 21  1  0  0  0  0
 14 22  1  0  0  0  0
 14 23  1  0  0  0  0
 15 24  2  0  0  0  0
 18 25  1  0  0  0  0
 19 26  2  0  0  0  0
 20 27  1  0  0  0  0
 21 28  2  0  0  0  0
 21 29  1  0  0  0  0
 22 30  1  0  0  0  0
 22 31  1  0  0  0  0
 23 32  1  0  0  0  0
 23 33  2  0  0  0  0
 25 34  2  0  0  0  0
 27 35  1  0  0  0  0
 29 36  1  0  0  0  0
 32 37  1  0  0  0  0
 34 38  1  0  0  0  0
 35 39  2  0  0  0  0
 36 40  1  0  0  0  0
 37 41  2  0  0  0  0
 37 42  1  0  0  0  0
 40 43  2  0  0  0  0
 40 44  1  0  0  0  0
 42 45  1  0  0  0  0
 42 46  1  0  0  0  0
 43 47  1  0  0  0  0
 44 48  2  0  0  0  0
 45 49  1  0  0  0  0
 47 50  2  0  0  0  0
 49 51  1  0  0  0  0
 49 52  1  0  0  0  0
 49 53  1  0  0  0  0
 53 54  1  0  0  0  0
  7  9  1  0  0  0  0
 17 20  1  0  0  0  0
 24 33  1  0  0  0  0
 26 34  1  0  0  0  0
 30 32  2  0  0  0  0
 48 50  1  0  0  0  0
 51 52  1  0  0  0  0
M  END
>  <MolRegNo>
2036063

>  <m>
=

>  <Value>
2530

>  <Unit>
nM

>  <Type>
IC50

>  <pValue>
5.6

>  <Ligand Efficiency>
0.14

>  <Binding Efficiency>
7.63

>  <Surface Efficiency>
3.94

>  <Assay Index>
974120

>  <Assay Category>


>  <Assay Organism>
Homo sapiens

>  <Target ID>
17045

>  <Target Name>
Cytochrome P450 3A4

>  <Target Organism>
Homo sapiens

>  <Target Description>
Target is a single protein chain

>  <Sequence Accession>
P08684

>  <Reference>


>  <Pubmed ID>


>  <DOI>


$$$$
2036064
Actelion Java MolfileCreator 1.0

 53 58  0  0  1  0  0  0  0  0999 V2000
    0.0000   -0.0000   -0.0000 O   0  0  0  0  0  0  0  0  0  0  0  0
   -0.0121    1.2493   -0.0000 C   0  0  0  0  0  0  0  0  0  0  0  0
    1.3099    2.0256   -0.0000 N   0  0  0  0  0  0  0  0  0  0  0  0
   -1.3585    2.0256   -0.0000 C   0  0  0  0  0  0  0  0  0  0  0  0
    1.2978    3.5781   -0.0000 C   0  0  0  0  0  0  0  0  0  0  0  0
    2.6320    1.2736   -0.0000 C   0  0  0  0  0  0  0  0  0  0  0  0
   -1.3706    3.5781   -0.0000 N   0  0  0  0  0  0  0  0  0  0  0  0
   -2.7048    1.2736   -0.0000 C   0  0  0  0  0  0  0  0  0  0  0  0
   -0.0485    4.3544   -0.0000 C   0  0  0  0  0  0  0  0  0  0  0  0
    3.9541    2.0620   -0.0000 C   0  0  0  0  0  0  0  0  0  0  0  0
   -2.7169    4.3544   -0.0000 C   0  0  0  0  0  0  0  0  0  0  0  0
   -4.0511    2.0620   -0.0000 C   0  0  0  0  0  0  0  0  0  0  0  0
   -0.0606    5.9069   -0.0000 N   0  0  0  0  0  0  0  0  0  0  0  0
    5.2762    1.3099   -0.0000 C   0  0  0  0  0  0  0  0  0  0  0  0
    3.9420    3.6145   -0.0000 C   0  0  0  0  0  0  0  0  0  0  0  0
   -3.7964    3.7479   -0.0000 O   0  0  0  0  0  0  0  0  0  0  0  0
   -2.7291    5.9069   -0.0000 C   0  0  0  0  0  0  0  0  0  0  0  0
   -5.3975    1.3099   -0.0000 C   0  0  0  0  0  0  0  0  0  0  0  0
   -4.0633    3.6145   -0.0000 C   0  0  0  0  0  0  0  0  0  0  0  0
   -1.4070    6.6832   -0.0000 N   0  0  0  0  0  0  0  0  0  0  0  0
    1.2614    6.6953   -0.0000 C   0  0  0  0  0  0  0  0  0  0  0  0
    5.5915   -0.1819   -0.0000 N   0  0  0  0  0  0  0  0  0  0  0  0
    6.5983    2.0983   -0.0000 C   0  0  0  0  0  0  0  0  0  0  0  0
    5.2641    4.4029   -0.0000 C   0  0  0  0  0  0  0  0  0  0  0  0
   -6.7438    2.0983   -0.0000 C   0  0  0  0  0  0  0  0  0  0  0  0
   -5.4096    4.4029   -0.0000 C   0  0  0  0  0  0  0  0  0  0  0  0
   -1.4191    8.2357   -0.0000 C   0  0  0  0  0  0  0  0  0  0  0  0
    2.3167    6.0888   -0.0000 O   0  0  0  0  0  0  0  0  0  0  0  0
    1.2493    8.2478   -0.0000 N   0  0  0  0  0  0  0  0  0  0  0  0
    7.1077   -0.3275   -0.0000 C   0  0  0  0  0  0  0  0  0  0  0  0
    4.7546   -1.0916   -0.0000 C   0  0  0  0  0  0  0  0  0  0  0  0
    7.7384    1.0795   -0.0000 C   0  0  0  0  0  0  0  0  0  0  0  0
    6.5861    3.6509   -0.0000 C   0  0  0  0  0  0  0  0  0  0  0  0
   -6.7559    3.6509   -0.0000 C   0  0  0  0  0  0  0  0  0  0  0  0
   -2.7654    9.0120   -0.0000 C   0  0  0  0  0  0  0  0  0  0  0  0
    2.5714    9.0362   -0.0000 C   0  0  0  0  0  0  0  0  0  0  0  0
    9.2303    1.4191   -0.0000 C   0  0  0  0  0  0  0  0  0  0  0  0
   -7.8354    4.2816   -0.0000 O   0  0  0  0  0  0  0  0  0  0  0  0
   -2.7776   10.2613   -0.0000 C   0  0  0  0  0  0  0  0  0  0  0  0
    2.5593   10.5888   -0.0000 C   0  0  0  0  0  0  0  0  0  0  0  0
    9.5942    2.6078   -0.0000 O   0  0  0  0  0  0  0  0  0  0  0  0
   10.2491    0.2911   -0.0000 N   0  0  0  0  0  0  0  0  0  0  0  0
    3.8813   11.3771   -0.0000 C   0  0  0  0  0  0  0  0  0  0  0  0
    1.2129   11.3650   -0.0000 C   0  0  0  0  0  0  0  0  0  0  0  0
   11.7410    0.6307   -0.0000 C   0  0  0  0  0  0  0  0  0  0  0  0
    3.8692   12.9297   -0.0000 C   0  0  0  0  0  0  0  0  0  0  0  0
    1.2008   12.9175   -0.0000 C   0  0  0  0  0  0  0  0  0  0  0  0
   12.7599   -0.4973   -0.0000 C   0  0  0  0  0  0  0  0  0  0  0  0
    2.5229   13.7059   -0.0000 C   0  0  0  0  0  0  0  0  0  0  0  0
   14.2518   -0.1577   -0.0000 C   0  0  0  0  0  0  0  0  0  0  0  0
   15.2706   -1.2857   -0.0000 C   0  0  0  0  0  0  0  0  0  0  0  0
   16.7625   -0.9461   -0.0000 O   0  0  0  0  0  0  0  0  0  0  0  0
   17.5751   -1.8436   -0.0000 C   0  0  0  0  0  0  0  0  0  0  0  0
  1  2  2  0  0  0  0
  2  3  1  0  0  0  0
  2  4  1  0  0  0  0
  3  5  1  0  0  0  0
  3  6  1  0  0  0  0
  4  7  1  0  0  0  0
  4  8  1  6  0  0  0
  5  9  1  0  0  0  0
  6 10  1  0  0  0  0
  7 11  1  0  0  0  0
  8 12  1  0  0  0  0
  9 13  1  1  0  0  0
 10 14  2  0  0  0  0
 10 15  1  0  0  0  0
 11 16  2  0  0  0  0
 11 17  1  0  0  0  0
 12 18  2  0  0  0  0
 12 19  1  0  0  0  0
 13 20  1  0  0  0  0
 13 21  1  0  0  0  0
 14 22  1  0  0  0  0
 14 23  1  0  0  0  0
 15 24  2  0  0  0  0
 18 25  1  0  0  0  0
 19 26  2  0  0  0  0
 20 27  1  0  0  0  0
 21 28  2  0  0  0  0
 21 29  1  0  0  0  0
 22 30  1  0  0  0  0
 22 31  1  0  0  0  0
 23 32  1  0  0  0  0
 23 33  2  0  0  0  0
 25 34  2  0  0  0  0
 27 35  1  0  0  0  0
 29 36  1  0  0  0  0
 32 37  1  0  0  0  0
 34 38  1  0  0  0  0
 35 39  2  0  0  0  0
 36 40  1  0  0  0  0
 37 41  2  0  0  0  0
 37 42  1  0  0  0  0
 40 43  2  0  0  0  0
 40 44  1  0  0  0  0
 42 45  1  0  0  0  0
 43 46  1  0  0  0  0
 44 47  2  0  0  0  0
 45 48  1  0  0  0  0
 46 49  2  0  0  0  0
 48 50  1  0  0  0  0
 50 51  1  0  0  0  0
 51 52  1  0  0  0  0
 52 53  1  0  0  0  0
  7  9  1  0  0  0  0
 17 20  1  0  0  0  0
 24 33  1  0  0  0  0
 26 34  1  0  0  0  0
 30 32  2  0  0  0  0
 47 49  1  0  0  0  0
M  END
>  <MolRegNo>
2036064

>  <m>
=

>  <Value>
2010

>  <Unit>
nM

>  <Type>
IC50

>  <pValue>
5.7

>  <Ligand Efficiency>
0.15

>  <Binding Efficiency>
7.89

>  <Surface Efficiency>
4.08

>  <Assay Index>
974120

>  <Assay Category>


>  <Assay Organism>
Homo sapiens

>  <Target ID>
17045

>  <Target Name>
Cytochrome P450 3A4

>  <Target Organism>
Homo sapiens

>  <Target Description>
Target is a single protein chain

>  <Sequence Accession>
P08684

>  <Reference>


>  <Pubmed ID>


>  <DOI>


$$$$
2036065
Actelion Java MolfileCreator 1.0

 52 57  0  0  1  0  0  0  0  0999 V2000
    0.0000   -0.0000   -0.0000 O   0  0  0  0  0  0  0  0  0  0  0  0
   -0.0122    1.2538   -0.0000 C   0  0  0  0  0  0  0  0  0  0  0  0
    1.3147    2.0329   -0.0000 N   0  0  0  0  0  0  0  0  0  0  0  0
   -1.3634    2.0329   -0.0000 C   0  0  0  0  0  0  0  0  0  0  0  0
    1.3025    3.5910   -0.0000 C   0  0  0  0  0  0  0  0  0  0  0  0
    2.6415    1.2782   -0.0000 C   0  0  0  0  0  0  0  0  0  0  0  0
   -1.3755    3.5910   -0.0000 N   0  0  0  0  0  0  0  0  0  0  0  0
   -2.7145    1.2782   -0.0000 C   0  0  0  0  0  0  0  0  0  0  0  0
   -0.0487    4.3701   -0.0000 C   0  0  0  0  0  0  0  0  0  0  0  0
    3.9684    2.0694   -0.0000 C   0  0  0  0  0  0  0  0  0  0  0  0
   -2.7267    4.3701   -0.0000 C   0  0  0  0  0  0  0  0  0  0  0  0
   -4.0657    2.0694   -0.0000 C   0  0  0  0  0  0  0  0  0  0  0  0
   -0.0609    5.9282   -0.0000 N   0  0  0  0  0  0  0  0  0  0  0  0
    5.2952    1.3147   -0.0000 C   0  0  0  0  0  0  0  0  0  0  0  0
    3.9562    3.6275   -0.0000 C   0  0  0  0  0  0  0  0  0  0  0  0
   -3.8101    3.7614   -0.0000 O   0  0  0  0  0  0  0  0  0  0  0  0
   -2.7389    5.9282   -0.0000 C   0  0  0  0  0  0  0  0  0  0  0  0
   -5.4169    1.3147   -0.0000 C   0  0  0  0  0  0  0  0  0  0  0  0
   -4.0779    3.6275   -0.0000 C   0  0  0  0  0  0  0  0  0  0  0  0
   -1.4121    6.7072   -0.0000 N   0  0  0  0  0  0  0  0  0  0  0  0
    1.2660    6.7194   -0.0000 C   0  0  0  0  0  0  0  0  0  0  0  0
    5.6117   -0.1826   -0.0000 N   0  0  0  0  0  0  0  0  0  0  0  0
    6.6220    2.1059   -0.0000 C   0  0  0  0  0  0  0  0  0  0  0  0
    5.2830    4.4187   -0.0000 C   0  0  0  0  0  0  0  0  0  0  0  0
   -6.7681    2.1059   -0.0000 C   0  0  0  0  0  0  0  0  0  0  0  0
   -5.4291    4.4187   -0.0000 C   0  0  0  0  0  0  0  0  0  0  0  0
   -1.4242    8.2654   -0.0000 C   0  0  0  0  0  0  0  0  0  0  0  0
    2.3250    6.1108   -0.0000 O   0  0  0  0  0  0  0  0  0  0  0  0
    1.2538    8.2775   -0.0000 N   0  0  0  0  0  0  0  0  0  0  0  0
    7.1333   -0.3287   -0.0000 C   0  0  0  0  0  0  0  0  0  0  0  0
    4.7718   -1.0956   -0.0000 C   0  0  0  0  0  0  0  0  0  0  0  0
    7.7663    1.0834   -0.0000 C   0  0  0  0  0  0  0  0  0  0  0  0
    6.6099    3.6640   -0.0000 C   0  0  0  0  0  0  0  0  0  0  0  0
   -6.7803    3.6640   -0.0000 C   0  0  0  0  0  0  0  0  0  0  0  0
   -2.7754    9.0444   -0.0000 C   0  0  0  0  0  0  0  0  0  0  0  0
    2.5806    9.0688   -0.0000 C   0  0  0  0  0  0  0  0  0  0  0  0
    9.2635    1.4242   -0.0000 C   0  0  0  0  0  0  0  0  0  0  0  0
   -7.8637    4.2970   -0.0000 O   0  0  0  0  0  0  0  0  0  0  0  0
   -2.7876   10.2982   -0.0000 C   0  0  0  0  0  0  0  0  0  0  0  0
    2.5685   10.6269   -0.0000 C   0  0  0  0  0  0  0  0  0  0  0  0
    9.6287    2.6172   -0.0000 O   0  0  0  0  0  0  0  0  0  0  0  0
   10.2861    0.2921   -0.0000 N   0  0  0  0  0  0  0  0  0  0  0  0
    3.8953   11.4181   -0.0000 C   0  0  0  0  0  0  0  0  0  0  0  0
    1.2173   11.4060   -0.0000 C   0  0  0  0  0  0  0  0  0  0  0  0
   11.7833    0.6330   -0.0000 C   0  0  0  0  0  0  0  0  0  0  0  0
    3.8831   12.9763   -0.0000 C   0  0  0  0  0  0  0  0  0  0  0  0
    1.2051   12.9641   -0.0000 C   0  0  0  0  0  0  0  0  0  0  0  0
   12.8058   -0.4991   -0.0000 C   0  0  0  0  0  0  0  0  0  0  0  0
    2.5320   13.7553   -0.0000 C   0  0  0  0  0  0  0  0  0  0  0  0
   14.3031   -0.1582   -0.0000 N   0  0  0  0  0  0  0  0  0  0  0  0
   15.1187   -1.0590   -0.0000 C   0  0  0  0  0  0  0  0  0  0  0  0
   14.6683    1.0347   -0.0000 C   0  0  0  0  0  0  0  0  0  0  0  0
  1  2  2  0  0  0  0
  2  3  1  0  0  0  0
  2  4  1  0  0  0  0
  3  5  1  0  0  0  0
  3  6  1  0  0  0  0
  4  7  1  0  0  0  0
  4  8  1  6  0  0  0
  5  9  1  0  0  0  0
  6 10  1  0  0  0  0
  7 11  1  0  0  0  0
  8 12  1  0  0  0  0
  9 13  1  1  0  0  0
 10 14  2  0  0  0  0
 10 15  1  0  0  0  0
 11 16  2  0  0  0  0
 11 17  1  0  0  0  0
 12 18  2  0  0  0  0
 12 19  1  0  0  0  0
 13 20  1  0  0  0  0
 13 21  1  0  0  0  0
 14 22  1  0  0  0  0
 14 23  1  0  0  0  0
 15 24  2  0  0  0  0
 18 25  1  0  0  0  0
 19 26  2  0  0  0  0
 20 27  1  0  0  0  0
 21 28  2  0  0  0  0
 21 29  1  0  0  0  0
 22 30  1  0  0  0  0
 22 31  1  0  0  0  0
 23 32  1  0  0  0  0
 23 33  2  0  0  0  0
 25 34  2  0  0  0  0
 27 35  1  0  0  0  0
 29 36  1  0  0  0  0
 32 37  1  0  0  0  0
 34 38  1  0  0  0  0
 35 39  2  0  0  0  0
 36 40  1  0  0  0  0
 37 41  2  0  0  0  0
 37 42  1  0  0  0  0
 40 43  2  0  0  0  0
 40 44  1  0  0  0  0
 42 45  1  0  0  0  0
 43 46  1  0  0  0  0
 44 47  2  0  0  0  0
 45 48  1  0  0  0  0
 46 49  2  0  0  0  0
 48 50  1  0  0  0  0
 50 51  1  0  0  0  0
 50 52  1  0  0  0  0
  7  9  1  0  0  0  0
 17 20  1  0  0  0  0
 24 33  1  0  0  0  0
 26 34  1  0  0  0  0
 30 32  2  0  0  0  0
 47 49  1  0  0  0  0
M  END
>  <MolRegNo>
2036065

>  <m>
=

>  <Value>
7870

>  <Unit>
nM

>  <Type>
IC50

>  <pValue>
5.1

>  <Ligand Efficiency>
0.13

>  <Binding Efficiency>
7.22

>  <Surface Efficiency>
3.82

>  <Assay Index>
974120

>  <Assay Category>


>  <Assay Organism>
Homo sapiens

>  <Target ID>
17045

>  <Target Name>
Cytochrome P450 3A4

>  <Target Organism>
Homo sapiens

>  <Target Description>
Target is a single protein chain

>  <Sequence Accession>
P08684

>  <Reference>


>  <Pubmed ID>


>  <DOI>


$$$$
2036066
Actelion Java MolfileCreator 1.0

 54 59  0  0  1  0  0  0  0  0999 V2000
    0.0000   -0.0000   -0.0000 O   0  0  0  0  0  0  0  0  0  0  0  0
   -0.0122    1.2525   -0.0000 C   0  0  0  0  0  0  0  0  0  0  0  0
    1.3133    2.0308   -0.0000 N   0  0  0  0  0  0  0  0  0  0  0  0
   -1.3620    2.0308   -0.0000 C   0  0  0  0  0  0  0  0  0  0  0  0
    1.3012    3.5873   -0.0000 C   0  0  0  0  0  0  0  0  0  0  0  0
    2.6388    1.2768   -0.0000 C   0  0  0  0  0  0  0  0  0  0  0  0
   -1.3741    3.5873   -0.0000 N   0  0  0  0  0  0  0  0  0  0  0  0
   -2.7118    1.2768   -0.0000 C   0  0  0  0  0  0  0  0  0  0  0  0
   -0.0486    4.3656   -0.0000 C   0  0  0  0  0  0  0  0  0  0  0  0
    3.9643    2.0673   -0.0000 C   0  0  0  0  0  0  0  0  0  0  0  0
   -2.7239    4.3656   -0.0000 C   0  0  0  0  0  0  0  0  0  0  0  0
   -4.0616    2.0673   -0.0000 C   0  0  0  0  0  0  0  0  0  0  0  0
   -0.0608    5.9221   -0.0000 N   0  0  0  0  0  0  0  0  0  0  0  0
    5.2898    1.3133   -0.0000 C   0  0  0  0  0  0  0  0  0  0  0  0
    3.9521    3.6238   -0.0000 C   0  0  0  0  0  0  0  0  0  0  0  0
   -3.8062    3.7576   -0.0000 O   0  0  0  0  0  0  0  0  0  0  0  0
   -2.7361    5.9221   -0.0000 C   0  0  0  0  0  0  0  0  0  0  0  0
   -5.4114    1.3133   -0.0000 C   0  0  0  0  0  0  0  0  0  0  0  0
   -4.0737    3.6238   -0.0000 C   0  0  0  0  0  0  0  0  0  0  0  0
   -1.4106    6.7004   -0.0000 N   0  0  0  0  0  0  0  0  0  0  0  0
    1.2647    6.7126   -0.0000 C   0  0  0  0  0  0  0  0  0  0  0  0
    5.6060   -0.1824   -0.0000 N   0  0  0  0  0  0  0  0  0  0  0  0
    6.6153    2.1038   -0.0000 C   0  0  0  0  0  0  0  0  0  0  0  0
    5.2776    4.4142   -0.0000 C   0  0  0  0  0  0  0  0  0  0  0  0
   -6.7612    2.1038   -0.0000 C   0  0  0  0  0  0  0  0  0  0  0  0
   -5.4236    4.4142   -0.0000 C   0  0  0  0  0  0  0  0  0  0  0  0
   -1.4228    8.2569   -0.0000 C   0  0  0  0  0  0  0  0  0  0  0  0
    2.3226    6.1045   -0.0000 O   0  0  0  0  0  0  0  0  0  0  0  0
    1.2525    8.2691   -0.0000 N   0  0  0  0  0  0  0  0  0  0  0  0
    7.1260   -0.3283   -0.0000 C   0  0  0  0  0  0  0  0  0  0  0  0
    4.7669   -1.0944   -0.0000 C   0  0  0  0  0  0  0  0  0  0  0  0
    7.7584    1.0823   -0.0000 C   0  0  0  0  0  0  0  0  0  0  0  0
    6.6031    3.6603   -0.0000 C   0  0  0  0  0  0  0  0  0  0  0  0
   -6.7734    3.6603   -0.0000 C   0  0  0  0  0  0  0  0  0  0  0  0
   -2.7726    9.0352   -0.0000 C   0  0  0  0  0  0  0  0  0  0  0  0
    2.5780    9.0595   -0.0000 C   0  0  0  0  0  0  0  0  0  0  0  0
    9.2541    1.4228   -0.0000 C   0  0  0  0  0  0  0  0  0  0  0  0
   -7.8556    4.2926   -0.0000 O   0  0  0  0  0  0  0  0  0  0  0  0
   -2.7847   10.2877   -0.0000 C   0  0  0  0  0  0  0  0  0  0  0  0
    2.5659   10.6161   -0.0000 C   0  0  0  0  0  0  0  0  0  0  0  0
    9.6189    2.6145   -0.0000 O   0  0  0  0  0  0  0  0  0  0  0  0
   10.2756    0.2919   -0.0000 N   0  0  0  0  0  0  0  0  0  0  0  0
    3.8913   11.4065   -0.0000 C   0  0  0  0  0  0  0  0  0  0  0  0
    1.2160   11.3943   -0.0000 C   0  0  0  0  0  0  0  0  0  0  0  0
   11.7713    0.6323   -0.0000 C   0  0  0  0  0  0  0  0  0  0  0  0
    3.8792   12.9630   -0.0000 C   0  0  0  0  0  0  0  0  0  0  0  0
    1.2039   12.9509   -0.0000 C   0  0  0  0  0  0  0  0  0  0  0  0
   12.7928   -0.4986   -0.0000 C   0  0  0  0  0  0  0  0  0  0  0  0
    2.5294   13.7413   -0.0000 C   0  0  0  0  0  0  0  0  0  0  0  0
   14.2885   -0.1581   -0.0000 N   0  0  0  0  0  0  0  0  0  0  0  0
   15.3100   -1.2890   -0.0000 C   0  0  0  0  0  0  0  0  0  0  0  0
   14.7506    1.3255   -0.0000 C   0  0  0  0  0  0  0  0  0  0  0  0
   16.5017   -1.0215   -0.0000 C   0  0  0  0  0  0  0  0  0  0  0  0
   13.9115    2.2497   -0.0000 C   0  0  0  0  0  0  0  0  0  0  0  0
  1  2  2  0  0  0  0
  2  3  1  0  0  0  0
  2  4  1  0  0  0  0
  3  5  1  0  0  0  0
  3  6  1  0  0  0  0
  4  7  1  0  0  0  0
  4  8  1  6  0  0  0
  5  9  1  0  0  0  0
  6 10  1  0  0  0  0
  7 11  1  0  0  0  0
  8 12  1  0  0  0  0
  9 13  1  1  0  0  0
 10 14  2  0  0  0  0
 10 15  1  0  0  0  0
 11 16  2  0  0  0  0
 11 17  1  0  0  0  0
 12 18  2  0  0  0  0
 12 19  1  0  0  0  0
 13 20  1  0  0  0  0
 13 21  1  0  0  0  0
 14 22  1  0  0  0  0
 14 23  1  0  0  0  0
 15 24  2  0  0  0  0
 18 25  1  0  0  0  0
 19 26  2  0  0  0  0
 20 27  1  0  0  0  0
 21 28  2  0  0  0  0
 21 29  1  0  0  0  0
 22 30  1  0  0  0  0
 22 31  1  0  0  0  0
 23 32  1  0  0  0  0
 23 33  2  0  0  0  0
 25 34  2  0  0  0  0
 27 35  1  0  0  0  0
 29 36  1  0  0  0  0
 32 37  1  0  0  0  0
 34 38  1  0  0  0  0
 35 39  2  0  0  0  0
 36 40  1  0  0  0  0
 37 41  2  0  0  0  0
 37 42  1  0  0  0  0
 40 43  2  0  0  0  0
 40 44  1  0  0  0  0
 42 45  1  0  0  0  0
 43 46  1  0  0  0  0
 44 47  2  0  0  0  0
 45 48  1  0  0  0  0
 46 49  2  0  0  0  0
 48 50  1  0  0  0  0
 50 51  1  0  0  0  0
 50 52  1  0  0  0  0
 51 53  1  0  0  0  0
 52 54  1  0  0  0  0
  7  9  1  0  0  0  0
 17 20  1  0  0  0  0
 24 33  1  0  0  0  0
 26 34  1  0  0  0  0
 30 32  2  0  0  0  0
 47 49  1  0  0  0  0
M  END
>  <MolRegNo>
2036066

>  <m>
=

>  <Value>
3640

>  <Unit>
nM

>  <Type>
IC50

>  <pValue>
5.44

>  <Ligand Efficiency>
0.14

>  <Binding Efficiency>
7.4

>  <Surface Efficiency>
4.07

>  <Assay Index>
974120

>  <Assay Category>


>  <Assay Organism>
Homo sapiens

>  <Target ID>
17045

>  <Target Name>
Cytochrome P450 3A4

>  <Target Organism>
Homo sapiens

>  <Target Description>
Target is a single protein chain

>  <Sequence Accession>
P08684

>  <Reference>


>  <Pubmed ID>


>  <DOI>


$$$$
2036067
Actelion Java MolfileCreator 1.0

 53 58  0  0  1  0  0  0  0  0999 V2000
    0.0000   -0.0000   -0.0000 O   0  0  0  0  0  0  0  0  0  0  0  0
   -0.0122    1.2536   -0.0000 C   0  0  0  0  0  0  0  0  0  0  0  0
    1.3144    2.0325   -0.0000 N   0  0  0  0  0  0  0  0  0  0  0  0
   -1.3631    2.0325   -0.0000 C   0  0  0  0  0  0  0  0  0  0  0  0
    1.3022    3.5903   -0.0000 C   0  0  0  0  0  0  0  0  0  0  0  0
    2.6410    1.2779   -0.0000 C   0  0  0  0  0  0  0  0  0  0  0  0
   -1.3753    3.5903   -0.0000 N   0  0  0  0  0  0  0  0  0  0  0  0
   -2.7140    1.2779   -0.0000 C   0  0  0  0  0  0  0  0  0  0  0  0
   -0.0487    4.3692   -0.0000 C   0  0  0  0  0  0  0  0  0  0  0  0
    3.9676    2.0690   -0.0000 C   0  0  0  0  0  0  0  0  0  0  0  0
   -2.7262    4.3692   -0.0000 C   0  0  0  0  0  0  0  0  0  0  0  0
   -4.0649    2.0690   -0.0000 C   0  0  0  0  0  0  0  0  0  0  0  0
   -0.0609    5.9270   -0.0000 N   0  0  0  0  0  0  0  0  0  0  0  0
    5.2941    1.3144   -0.0000 C   0  0  0  0  0  0  0  0  0  0  0  0
    3.9554    3.6268   -0.0000 C   0  0  0  0  0  0  0  0  0  0  0  0
   -3.8094    3.7607   -0.0000 O   0  0  0  0  0  0  0  0  0  0  0  0
   -2.7384    5.9270   -0.0000 C   0  0  0  0  0  0  0  0  0  0  0  0
   -5.4159    1.3144   -0.0000 C   0  0  0  0  0  0  0  0  0  0  0  0
   -4.0771    3.6268   -0.0000 C   0  0  0  0  0  0  0  0  0  0  0  0
   -1.4118    6.7059   -0.0000 N   0  0  0  0  0  0  0  0  0  0  0  0
    1.2657    6.7181   -0.0000 C   0  0  0  0  0  0  0  0  0  0  0  0
    5.6106   -0.1826   -0.0000 N   0  0  0  0  0  0  0  0  0  0  0  0
    6.6207    2.1055   -0.0000 C   0  0  0  0  0  0  0  0  0  0  0  0
    5.2820    4.4179   -0.0000 C   0  0  0  0  0  0  0  0  0  0  0  0
   -6.7668    2.1055   -0.0000 C   0  0  0  0  0  0  0  0  0  0  0  0
   -5.4280    4.4179   -0.0000 C   0  0  0  0  0  0  0  0  0  0  0  0
   -1.4239    8.2637   -0.0000 C   0  0  0  0  0  0  0  0  0  0  0  0
    2.3246    6.1096   -0.0000 O   0  0  0  0  0  0  0  0  0  0  0  0
    1.2536    8.2759   -0.0000 N   0  0  0  0  0  0  0  0  0  0  0  0
    7.1319   -0.3286   -0.0000 C   0  0  0  0  0  0  0  0  0  0  0  0
    4.7708   -1.0953   -0.0000 C   0  0  0  0  0  0  0  0  0  0  0  0
    7.7647    1.0832   -0.0000 C   0  0  0  0  0  0  0  0  0  0  0  0
    6.6086    3.6633   -0.0000 C   0  0  0  0  0  0  0  0  0  0  0  0
   -6.7789    3.6633   -0.0000 C   0  0  0  0  0  0  0  0  0  0  0  0
   -2.7749    9.0426   -0.0000 C   0  0  0  0  0  0  0  0  0  0  0  0
    2.5801    9.0670   -0.0000 C   0  0  0  0  0  0  0  0  0  0  0  0
    9.2617    1.4239   -0.0000 C   0  0  0  0  0  0  0  0  0  0  0  0
   -7.8621    4.2962   -0.0000 O   0  0  0  0  0  0  0  0  0  0  0  0
   -2.7870   10.2962   -0.0000 C   0  0  0  0  0  0  0  0  0  0  0  0
    2.5680   10.6248   -0.0000 C   0  0  0  0  0  0  0  0  0  0  0  0
    9.6268    2.6166   -0.0000 O   0  0  0  0  0  0  0  0  0  0  0  0
   10.2840    0.2921   -0.0000 N   0  0  0  0  0  0  0  0  0  0  0  0
    3.8945   11.4159   -0.0000 C   0  0  0  0  0  0  0  0  0  0  0  0
    1.2170   11.4037   -0.0000 C   0  0  0  0  0  0  0  0  0  0  0  0
   11.7810    0.6329   -0.0000 C   0  0  0  0  0  0  0  0  0  0  0  0
    3.8824   12.9737   -0.0000 C   0  0  0  0  0  0  0  0  0  0  0  0
    1.2049   12.9615   -0.0000 C   0  0  0  0  0  0  0  0  0  0  0  0
   12.8033   -0.4990   -0.0000 C   0  0  0  0  0  0  0  0  0  0  0  0
    2.5315   13.7526   -0.0000 C   0  0  0  0  0  0  0  0  0  0  0  0
   14.3003   -0.1582   -0.0000 C   0  0  0  0  0  0  0  0  0  0  0  0
   15.3226   -1.2901   -0.0000 N   0  0  0  0  0  0  0  0  0  0  0  0
   16.5153   -1.0223   -0.0000 C   0  0  0  0  0  0  0  0  0  0  0  0
   14.9331   -2.4584   -0.0000 C   0  0  0  0  0  0  0  0  0  0  0  0
  1  2  2  0  0  0  0
  2  3  1  0  0  0  0
  2  4  1  0  0  0  0
  3  5  1  0  0  0  0
  3  6  1  0  0  0  0
  4  7  1  0  0  0  0
  4  8  1  6  0  0  0
  5  9  1  0  0  0  0
  6 10  1  0  0  0  0
  7 11  1  0  0  0  0
  8 12  1  0  0  0  0
  9 13  1  1  0  0  0
 10 14  2  0  0  0  0
 10 15  1  0  0  0  0
 11 16  2  0  0  0  0
 11 17  1  0  0  0  0
 12 18  2  0  0  0  0
 12 19  1  0  0  0  0
 13 20  1  0  0  0  0
 13 21  1  0  0  0  0
 14 22  1  0  0  0  0
 14 23  1  0  0  0  0
 15 24  2  0  0  0  0
 18 25  1  0  0  0  0
 19 26  2  0  0  0  0
 20 27  1  0  0  0  0
 21 28  2  0  0  0  0
 21 29  1  0  0  0  0
 22 30  1  0  0  0  0
 22 31  1  0  0  0  0
 23 32  1  0  0  0  0
 23 33  2  0  0  0  0
 25 34  2  0  0  0  0
 27 35  1  0  0  0  0
 29 36  1  0  0  0  0
 32 37  1  0  0  0  0
 34 38  1  0  0  0  0
 35 39  2  0  0  0  0
 36 40  1  0  0  0  0
 37 41  2  0  0  0  0
 37 42  1  0  0  0  0
 40 43  2  0  0  0  0
 40 44  1  0  0  0  0
 42 45  1  0  0  0  0
 43 46  1  0  0  0  0
 44 47  2  0  0  0  0
 45 48  1  0  0  0  0
 46 49  2  0  0  0  0
 48 50  1  0  0  0  0
 50 51  1  0  0  0  0
 51 52  1  0  0  0  0
 51 53  1  0  0  0  0
  7  9  1  0  0  0  0
 17 20  1  0  0  0  0
 24 33  1  0  0  0  0
 26 34  1  0  0  0  0
 30 32  2  0  0  0  0
 47 49  1  0  0  0  0
M  END
>  <MolRegNo>
2036067

>  <m>
=

>  <Value>
17890

>  <Unit>
nM

>  <Type>
IC50

>  <pValue>
4.75

>  <Ligand Efficiency>
0.12

>  <Binding Efficiency>
6.59

>  <Surface Efficiency>
3.55

>  <Assay Index>
974120

>  <Assay Category>


>  <Assay Organism>
Homo sapiens

>  <Target ID>
17045

>  <Target Name>
Cytochrome P450 3A4

>  <Target Organism>
Homo sapiens

>  <Target Description>
Target is a single protein chain

>  <Sequence Accession>
P08684

>  <Reference>


>  <Pubmed ID>


>  <DOI>


$$$$
2036068
Actelion Java MolfileCreator 1.0

 56 61  0  0  1  0  0  0  0  0999 V2000
    0.0000   -0.0000   -0.0000 O   0  0  0  0  0  0  0  0  0  0  0  0
   -0.0122    1.2523   -0.0000 C   0  0  0  0  0  0  0  0  0  0  0  0
    1.3131    2.0304   -0.0000 N   0  0  0  0  0  0  0  0  0  0  0  0
   -1.3617    2.0304   -0.0000 C   0  0  0  0  0  0  0  0  0  0  0  0
    1.3009    3.5867   -0.0000 C   0  0  0  0  0  0  0  0  0  0  0  0
    2.6383    1.2766   -0.0000 C   0  0  0  0  0  0  0  0  0  0  0  0
   -1.3739    3.5867   -0.0000 N   0  0  0  0  0  0  0  0  0  0  0  0
   -2.7113    1.2766   -0.0000 C   0  0  0  0  0  0  0  0  0  0  0  0
   -0.0486    4.3648   -0.0000 C   0  0  0  0  0  0  0  0  0  0  0  0
    3.9636    2.0669   -0.0000 C   0  0  0  0  0  0  0  0  0  0  0  0
   -2.7234    4.3648   -0.0000 C   0  0  0  0  0  0  0  0  0  0  0  0
   -4.0608    2.0669   -0.0000 C   0  0  0  0  0  0  0  0  0  0  0  0
   -0.0608    5.9210   -0.0000 N   0  0  0  0  0  0  0  0  0  0  0  0
    5.2888    1.3131   -0.0000 C   0  0  0  0  0  0  0  0  0  0  0  0
    3.9514    3.6231   -0.0000 C   0  0  0  0  0  0  0  0  0  0  0  0
   -3.8055    3.7569   -0.0000 O   0  0  0  0  0  0  0  0  0  0  0  0
   -2.7356    5.9210   -0.0000 C   0  0  0  0  0  0  0  0  0  0  0  0
   -5.4104    1.3131   -0.0000 C   0  0  0  0  0  0  0  0  0  0  0  0
   -4.0730    3.6231   -0.0000 C   0  0  0  0  0  0  0  0  0  0  0  0
   -1.4103    6.6992   -0.0000 N   0  0  0  0  0  0  0  0  0  0  0  0
    1.2644    6.7113   -0.0000 C   0  0  0  0  0  0  0  0  0  0  0  0
    5.6049   -0.1824   -0.0000 N   0  0  0  0  0  0  0  0  0  0  0  0
    6.6140    2.1034   -0.0000 C   0  0  0  0  0  0  0  0  0  0  0  0
    5.2766    4.4134   -0.0000 C   0  0  0  0  0  0  0  0  0  0  0  0
   -6.7599    2.1034   -0.0000 C   0  0  0  0  0  0  0  0  0  0  0  0
   -5.4225    4.4134   -0.0000 C   0  0  0  0  0  0  0  0  0  0  0  0
   -1.4225    8.2554   -0.0000 C   0  0  0  0  0  0  0  0  0  0  0  0
    2.3222    6.1034   -0.0000 O   0  0  0  0  0  0  0  0  0  0  0  0
    1.2523    8.2676   -0.0000 N   0  0  0  0  0  0  0  0  0  0  0  0
    7.1247   -0.3283   -0.0000 C   0  0  0  0  0  0  0  0  0  0  0  0
    4.7660   -1.0942   -0.0000 C   0  0  0  0  0  0  0  0  0  0  0  0
    7.7569    1.0821   -0.0000 C   0  0  0  0  0  0  0  0  0  0  0  0
    6.6019    3.6596   -0.0000 C   0  0  0  0  0  0  0  0  0  0  0  0
   -6.7721    3.6596   -0.0000 C   0  0  0  0  0  0  0  0  0  0  0  0
   -2.7721    9.0335   -0.0000 C   0  0  0  0  0  0  0  0  0  0  0  0
    2.5775    9.0578   -0.0000 C   0  0  0  0  0  0  0  0  0  0  0  0
    9.2524    1.4225   -0.0000 C   0  0  0  0  0  0  0  0  0  0  0  0
   -7.8542    4.2918   -0.0000 O   0  0  0  0  0  0  0  0  0  0  0  0
   -2.7842   10.2858   -0.0000 C   0  0  0  0  0  0  0  0  0  0  0  0
    2.5654   10.6141   -0.0000 C   0  0  0  0  0  0  0  0  0  0  0  0
    9.6171    2.6140   -0.0000 O   0  0  0  0  0  0  0  0  0  0  0  0
   10.2737    0.2918   -0.0000 N   0  0  0  0  0  0  0  0  0  0  0  0
    3.8906   11.4044   -0.0000 C   0  0  0  0  0  0  0  0  0  0  0  0
    1.2158   11.3922   -0.0000 C   0  0  0  0  0  0  0  0  0  0  0  0
    9.7873   -1.1672   -0.0000 C   0  0  0  0  0  0  0  0  0  0  0  0
   11.7691    0.6322   -0.0000 C   0  0  0  0  0  0  0  0  0  0  0  0
    3.8785   12.9606   -0.0000 C   0  0  0  0  0  0  0  0  0  0  0  0
    1.2037   12.9485   -0.0000 C   0  0  0  0  0  0  0  0  0  0  0  0
   10.8086   -2.2979   -0.0000 C   0  0  0  0  0  0  0  0  0  0  0  0
   12.7904   -0.4985   -0.0000 C   0  0  0  0  0  0  0  0  0  0  0  0
    2.5289   13.7387   -0.0000 C   0  0  0  0  0  0  0  0  0  0  0  0
   10.4196   -3.4651   -0.0000 O   0  0  0  0  0  0  0  0  0  0  0  0
   14.2858   -0.1581   -0.0000 N   0  0  0  0  0  0  0  0  0  0  0  0
   15.3071   -1.2888   -0.0000 C   0  0  0  0  0  0  0  0  0  0  0  0
   16.8026   -0.9483   -0.0000 C   0  0  0  0  0  0  0  0  0  0  0  0
   17.6172   -1.8480   -0.0000 O   0  0  0  0  0  0  0  0  0  0  0  0
  1  2  2  0  0  0  0
  2  3  1  0  0  0  0
  2  4  1  0  0  0  0
  3  5  1  0  0  0  0
  3  6  1  0  0  0  0
  4  7  1  0  0  0  0
  4  8  1  6  0  0  0
  5  9  1  0  0  0  0
  6 10  1  0  0  0  0
  7 11  1  0  0  0  0
  8 12  1  0  0  0  0
  9 13  1  1  0  0  0
 10 14  2  0  0  0  0
 10 15  1  0  0  0  0
 11 16  2  0  0  0  0
 11 17  1  0  0  0  0
 12 18  2  0  0  0  0
 12 19  1  0  0  0  0
 13 20  1  0  0  0  0
 13 21  1  0  0  0  0
 14 22  1  0  0  0  0
 14 23  1  0  0  0  0
 15 24  2  0  0  0  0
 18 25  1  0  0  0  0
 19 26  2  0  0  0  0
 20 27  1  0  0  0  0
 21 28  2  0  0  0  0
 21 29  1  0  0  0  0
 22 30  1  0  0  0  0
 22 31  1  0  0  0  0
 23 32  1  0  0  0  0
 23 33  2  0  0  0  0
 25 34  2  0  0  0  0
 27 35  1  0  0  0  0
 29 36  1  0  0  0  0
 32 37  1  0  0  0  0
 34 38  1  0  0  0  0
 35 39  2  0  0  0  0
 36 40  1  0  0  0  0
 37 41  2  0  0  0  0
 37 42  1  0  0  0  0
 40 43  2  0  0  0  0
 40 44  1  0  0  0  0
 42 45  1  0  0  0  0
 42 46  1  0  0  0  0
 43 47  1  0  0  0  0
 44 48  2  0  0  0  0
 45 49  1  0  0  0  0
 46 50  1  0  0  0  0
 47 51  2  0  0  0  0
 49 52  1  0  0  0  0
 50 53  1  0  0  0  0
 53 54  1  0  0  0  0
 54 55  1  0  0  0  0
 55 56  1  0  0  0  0
  7  9  1  0  0  0  0
 17 20  1  0  0  0  0
 24 33  1  0  0  0  0
 26 34  1  0  0  0  0
 30 32  2  0  0  0  0
 48 51  1  0  0  0  0
M  END
>  <MolRegNo>
2036068

>  <m>
=

>  <Value>
2890

>  <Unit>
nM

>  <Type>
IC50

>  <pValue>
5.54

>  <Ligand Efficiency>
0.14

>  <Binding Efficiency>
7.22

>  <Surface Efficiency>
3.18

>  <Assay Index>
974120

>  <Assay Category>


>  <Assay Organism>
Homo sapiens

>  <Target ID>
17045

>  <Target Name>
Cytochrome P450 3A4

>  <Target Organism>
Homo sapiens

>  <Target Description>
Target is a single protein chain

>  <Sequence Accession>
P08684

>  <Reference>


>  <Pubmed ID>


>  <DOI>


$$$$
2036069
Actelion Java MolfileCreator 1.0

 53 58  0  0  1  0  0  0  0  0999 V2000
    0.0000   -0.0000   -0.0000 O   0  0  0  0  0  0  0  0  0  0  0  0
   -0.0122    1.2577   -0.0000 C   0  0  0  0  0  0  0  0  0  0  0  0
    1.3187    2.0392   -0.0000 N   0  0  0  0  0  0  0  0  0  0  0  0
   -1.3676    2.0392   -0.0000 C   0  0  0  0  0  0  0  0  0  0  0  0
    1.3065    3.6021   -0.0000 C   0  0  0  0  0  0  0  0  0  0  0  0
    2.6497    1.2821   -0.0000 C   0  0  0  0  0  0  0  0  0  0  0  0
   -1.3798    3.6021   -0.0000 N   0  0  0  0  0  0  0  0  0  0  0  0
   -2.7229    1.2821   -0.0000 C   0  0  0  0  0  0  0  0  0  0  0  0
   -0.0488    4.3836   -0.0000 C   0  0  0  0  0  0  0  0  0  0  0  0
    3.9806    2.0758   -0.0000 C   0  0  0  0  0  0  0  0  0  0  0  0
   -2.7352    4.3836   -0.0000 C   0  0  0  0  0  0  0  0  0  0  0  0
   -4.0783    2.0758   -0.0000 C   0  0  0  0  0  0  0  0  0  0  0  0
   -0.0611    5.9465   -0.0000 N   0  0  0  0  0  0  0  0  0  0  0  0
    5.3116    1.3187   -0.0000 C   0  0  0  0  0  0  0  0  0  0  0  0
    3.9684    3.6387   -0.0000 C   0  0  0  0  0  0  0  0  0  0  0  0
   -3.8219    3.7730   -0.0000 O   0  0  0  0  0  0  0  0  0  0  0  0
   -2.7474    5.9465   -0.0000 C   0  0  0  0  0  0  0  0  0  0  0  0
   -5.4337    1.3187   -0.0000 C   0  0  0  0  0  0  0  0  0  0  0  0
   -4.0905    3.6387   -0.0000 C   0  0  0  0  0  0  0  0  0  0  0  0
   -1.4164    6.7280   -0.0000 N   0  0  0  0  0  0  0  0  0  0  0  0
    1.2699    6.7402   -0.0000 C   0  0  0  0  0  0  0  0  0  0  0  0
    5.6290   -0.1832   -0.0000 N   0  0  0  0  0  0  0  0  0  0  0  0
    6.6425    2.1124   -0.0000 C   0  0  0  0  0  0  0  0  0  0  0  0
    5.2994    4.4324   -0.0000 C   0  0  0  0  0  0  0  0  0  0  0  0
   -6.7890    2.1124   -0.0000 C   0  0  0  0  0  0  0  0  0  0  0  0
   -5.4459    4.4324   -0.0000 C   0  0  0  0  0  0  0  0  0  0  0  0
   -1.4286    8.2909   -0.0000 C   0  0  0  0  0  0  0  0  0  0  0  0
    2.3322    6.1297   -0.0000 O   0  0  0  0  0  0  0  0  0  0  0  0
    1.2577    8.3031   -0.0000 N   0  0  0  0  0  0  0  0  0  0  0  0
    7.1554   -0.3297   -0.0000 C   0  0  0  0  0  0  0  0  0  0  0  0
    4.7865   -1.0989   -0.0000 C   0  0  0  0  0  0  0  0  0  0  0  0
    7.7903    1.0867   -0.0000 C   0  0  0  0  0  0  0  0  0  0  0  0
    6.6303    3.6754   -0.0000 C   0  0  0  0  0  0  0  0  0  0  0  0
   -6.8012    3.6754   -0.0000 C   0  0  0  0  0  0  0  0  0  0  0  0
   -2.7840    9.0724   -0.0000 C   0  0  0  0  0  0  0  0  0  0  0  0
    2.5886    9.0968   -0.0000 C   0  0  0  0  0  0  0  0  0  0  0  0
    9.2922    1.4286   -0.0000 C   0  0  0  0  0  0  0  0  0  0  0  0
   -7.8880    4.3103   -0.0000 O   0  0  0  0  0  0  0  0  0  0  0  0
   -2.7962   10.3301   -0.0000 C   0  0  0  0  0  0  0  0  0  0  0  0
    2.5764   10.6598   -0.0000 C   0  0  0  0  0  0  0  0  0  0  0  0
    9.6585    2.6253   -0.0000 O   0  0  0  0  0  0  0  0  0  0  0  0
   10.3179    0.2931   -0.0000 N   0  0  0  0  0  0  0  0  0  0  0  0
    3.9074   11.4534   -0.0000 C   0  0  0  0  0  0  0  0  0  0  0  0
    1.2210   11.4412   -0.0000 C   0  0  0  0  0  0  0  0  0  0  0  0
   11.8198    0.6349   -0.0000 C   0  0  0  0  0  0  0  0  0  0  0  0
    3.8951   13.0164   -0.0000 C   0  0  0  0  0  0  0  0  0  0  0  0
    1.2088   13.0042   -0.0000 C   0  0  0  0  0  0  0  0  0  0  0  0
   12.8454   -0.5006   -0.0000 C   0  0  0  0  0  0  0  0  0  0  0  0
   12.1861    1.8316   -0.0000 C   0  0  0  0  0  0  0  0  0  0  0  0
    2.5398   13.7979   -0.0000 C   0  0  0  0  0  0  0  0  0  0  0  0
   12.4547   -1.6728   -0.0000 O   0  0  0  0  0  0  0  0  0  0  0  0
   14.3473   -0.1587   -0.0000 O   0  0  0  0  0  0  0  0  0  0  0  0
   15.1654   -1.0623   -0.0000 C   0  0  0  0  0  0  0  0  0  0  0  0
  1  2  2  0  0  0  0
  2  3  1  0  0  0  0
  2  4  1  0  0  0  0
  3  5  1  0  0  0  0
  3  6  1  0  0  0  0
  4  7  1  0  0  0  0
  4  8  1  6  0  0  0
  5  9  1  0  0  0  0
  6 10  1  0  0  0  0
  7 11  1  0  0  0  0
  8 12  1  0  0  0  0
  9 13  1  1  0  0  0
 10 14  2  0  0  0  0
 10 15  1  0  0  0  0
 11 16  2  0  0  0  0
 11 17  1  0  0  0  0
 12 18  2  0  0  0  0
 12 19  1  0  0  0  0
 13 20  1  0  0  0  0
 13 21  1  0  0  0  0
 14 22  1  0  0  0  0
 14 23  1  0  0  0  0
 15 24  2  0  0  0  0
 18 25  1  0  0  0  0
 19 26  2  0  0  0  0
 20 27  1  0  0  0  0
 21 28  2  0  0  0  0
 21 29  1  0  0  0  0
 22 30  1  0  0  0  0
 22 31  1  0  0  0  0
 23 32  1  0  0  0  0
 23 33  2  0  0  0  0
 25 34  2  0  0  0  0
 27 35  1  0  0  0  0
 29 36  1  0  0  0  0
 32 37  1  0  0  0  0
 34 38  1  0  0  0  0
 35 39  2  0  0  0  0
 36 40  1  0  0  0  0
 37 41  2  0  0  0  0
 37 42  1  0  0  0  0
 40 43  2  0  0  0  0
 40 44  1  0  0  0  0
 45 42  1  6  0  0  0
 43 46  1  0  0  0  0
 44 47  2  0  0  0  0
 45 48  1  0  0  0  0
 45 49  1  0  0  0  0
 46 50  2  0  0  0  0
 48 51  2  0  0  0  0
 48 52  1  0  0  0  0
 52 53  1  0  0  0  0
  7  9  1  0  0  0  0
 17 20  1  0  0  0  0
 24 33  1  0  0  0  0
 26 34  1  0  0  0  0
 30 32  2  0  0  0  0
 47 50  1  0  0  0  0
M  END
>  <MolRegNo>
2036069

>  <m>
=

>  <Value>
10890

>  <Unit>
nM

>  <Type>
IC50

>  <pValue>
4.96

>  <Ligand Efficiency>
0.13

>  <Binding Efficiency>
6.88

>  <Surface Efficiency>
3.17

>  <Assay Index>
974120

>  <Assay Category>


>  <Assay Organism>
Homo sapiens

>  <Target ID>
17045

>  <Target Name>
Cytochrome P450 3A4

>  <Target Organism>
Homo sapiens

>  <Target Description>
Target is a single protein chain

>  <Sequence Accession>
P08684

>  <Reference>


>  <Pubmed ID>


>  <DOI>


$$$$
2036070
Actelion Java MolfileCreator 1.0

 54 59  0  0  1  0  0  0  0  0999 V2000
    0.0000   -0.0000   -0.0000 O   0  0  0  0  0  0  0  0  0  0  0  0
   -0.0122    1.2529   -0.0000 C   0  0  0  0  0  0  0  0  0  0  0  0
    1.3138    2.0315   -0.0000 N   0  0  0  0  0  0  0  0  0  0  0  0
   -1.3624    2.0315   -0.0000 C   0  0  0  0  0  0  0  0  0  0  0  0
    1.3016    3.5885   -0.0000 C   0  0  0  0  0  0  0  0  0  0  0  0
    2.6397    1.2773   -0.0000 C   0  0  0  0  0  0  0  0  0  0  0  0
   -1.3746    3.5885   -0.0000 N   0  0  0  0  0  0  0  0  0  0  0  0
   -2.7127    1.2773   -0.0000 C   0  0  0  0  0  0  0  0  0  0  0  0
   -0.0487    4.3670   -0.0000 C   0  0  0  0  0  0  0  0  0  0  0  0
    3.9656    2.0680   -0.0000 C   0  0  0  0  0  0  0  0  0  0  0  0
   -2.7248    4.3670   -0.0000 C   0  0  0  0  0  0  0  0  0  0  0  0
   -4.0629    2.0680   -0.0000 C   0  0  0  0  0  0  0  0  0  0  0  0
   -0.0608    5.9241   -0.0000 N   0  0  0  0  0  0  0  0  0  0  0  0
    5.2915    1.3138   -0.0000 C   0  0  0  0  0  0  0  0  0  0  0  0
    3.9535    3.6250   -0.0000 C   0  0  0  0  0  0  0  0  0  0  0  0
   -3.8075    3.7588   -0.0000 O   0  0  0  0  0  0  0  0  0  0  0  0
   -2.7370    5.9241   -0.0000 C   0  0  0  0  0  0  0  0  0  0  0  0
   -5.4132    1.3138   -0.0000 C   0  0  0  0  0  0  0  0  0  0  0  0
   -4.0751    3.6250   -0.0000 C   0  0  0  0  0  0  0  0  0  0  0  0
   -1.4111    6.7026   -0.0000 N   0  0  0  0  0  0  0  0  0  0  0  0
    1.2651    6.7148   -0.0000 C   0  0  0  0  0  0  0  0  0  0  0  0
    5.6078   -0.1825   -0.0000 N   0  0  0  0  0  0  0  0  0  0  0  0
    6.6175    2.1045   -0.0000 C   0  0  0  0  0  0  0  0  0  0  0  0
    5.2794    4.4157   -0.0000 C   0  0  0  0  0  0  0  0  0  0  0  0
   -6.7634    2.1045   -0.0000 C   0  0  0  0  0  0  0  0  0  0  0  0
   -5.4254    4.4157   -0.0000 C   0  0  0  0  0  0  0  0  0  0  0  0
   -1.4232    8.2597   -0.0000 C   0  0  0  0  0  0  0  0  0  0  0  0
    2.3234    6.1066   -0.0000 O   0  0  0  0  0  0  0  0  0  0  0  0
    1.2529    8.2718   -0.0000 N   0  0  0  0  0  0  0  0  0  0  0  0
    7.1284   -0.3284   -0.0000 C   0  0  0  0  0  0  0  0  0  0  0  0
    4.7685   -1.0948   -0.0000 C   0  0  0  0  0  0  0  0  0  0  0  0
    7.7609    1.0826   -0.0000 C   0  0  0  0  0  0  0  0  0  0  0  0
    6.6053    3.6615   -0.0000 C   0  0  0  0  0  0  0  0  0  0  0  0
   -6.7756    3.6615   -0.0000 C   0  0  0  0  0  0  0  0  0  0  0  0
   -2.7735    9.0382   -0.0000 C   0  0  0  0  0  0  0  0  0  0  0  0
    2.5789    9.0625   -0.0000 C   0  0  0  0  0  0  0  0  0  0  0  0
    9.2572    1.4232   -0.0000 C   0  0  0  0  0  0  0  0  0  0  0  0
   -7.8582    4.2941   -0.0000 O   0  0  0  0  0  0  0  0  0  0  0  0
   -2.7857   10.2911   -0.0000 C   0  0  0  0  0  0  0  0  0  0  0  0
    2.5667   10.6196   -0.0000 C   0  0  0  0  0  0  0  0  0  0  0  0
    9.6221    2.6154   -0.0000 O   0  0  0  0  0  0  0  0  0  0  0  0
   10.2790    0.2919   -0.0000 N   0  0  0  0  0  0  0  0  0  0  0  0
    3.8926   11.4103   -0.0000 C   0  0  0  0  0  0  0  0  0  0  0  0
    1.2164   11.3981   -0.0000 C   0  0  0  0  0  0  0  0  0  0  0  0
   11.7752    0.6326   -0.0000 C   0  0  0  0  0  0  0  0  0  0  0  0
    3.8805   12.9673   -0.0000 C   0  0  0  0  0  0  0  0  0  0  0  0
    1.2043   12.9552   -0.0000 C   0  0  0  0  0  0  0  0  0  0  0  0
   12.7970   -0.4987   -0.0000 C   0  0  0  0  0  0  0  0  0  0  0  0
    2.5302   13.7458   -0.0000 C   0  0  0  0  0  0  0  0  0  0  0  0
   14.2932   -0.1581   -0.0000 C   0  0  0  0  0  0  0  0  0  0  0  0
   14.6582    1.0340   -0.0000 O   0  0  0  0  0  0  0  0  0  0  0  0
   15.3151   -1.2894   -0.0000 O   0  0  0  0  0  0  0  0  0  0  0  0
   16.8113   -0.9488   -0.0000 C   0  0  0  0  0  0  0  0  0  0  0  0
   17.6263   -1.8490   -0.0000 C   0  0  0  0  0  0  0  0  0  0  0  0
  1  2  2  0  0  0  0
  2  3  1  0  0  0  0
  2  4  1  0  0  0  0
  3  5  1  0  0  0  0
  3  6  1  0  0  0  0
  4  7  1  0  0  0  0
  4  8  1  6  0  0  0
  5  9  1  0  0  0  0
  6 10  1  0  0  0  0
  7 11  1  0  0  0  0
  8 12  1  0  0  0  0
  9 13  1  1  0  0  0
 10 14  2  0  0  0  0
 10 15  1  0  0  0  0
 11 16  2  0  0  0  0
 11 17  1  0  0  0  0
 12 18  2  0  0  0  0
 12 19  1  0  0  0  0
 13 20  1  0  0  0  0
 13 21  1  0  0  0  0
 14 22  1  0  0  0  0
 14 23  1  0  0  0  0
 15 24  2  0  0  0  0
 18 25  1  0  0  0  0
 19 26  2  0  0  0  0
 20 27  1  0  0  0  0
 21 28  2  0  0  0  0
 21 29  1  0  0  0  0
 22 30  1  0  0  0  0
 22 31  1  0  0  0  0
 23 32  1  0  0  0  0
 23 33  2  0  0  0  0
 25 34  2  0  0  0  0
 27 35  1  0  0  0  0
 29 36  1  0  0  0  0
 32 37  1  0  0  0  0
 34 38  1  0  0  0  0
 35 39  2  0  0  0  0
 36 40  1  0  0  0  0
 37 41  2  0  0  0  0
 37 42  1  0  0  0  0
 40 43  2  0  0  0  0
 40 44  1  0  0  0  0
 42 45  1  0  0  0  0
 43 46  1  0  0  0  0
 44 47  2  0  0  0  0
 45 48  1  0  0  0  0
 46 49  2  0  0  0  0
 48 50  1  0  0  0  0
 50 51  2  0  0  0  0
 50 52  1  0  0  0  0
 52 53  1  0  0  0  0
 53 54  1  0  0  0  0
  7  9  1  0  0  0  0
 17 20  1  0  0  0  0
 24 33  1  0  0  0  0
 26 34  1  0  0  0  0
 30 32  2  0  0  0  0
 47 49  1  0  0  0  0
M  END
>  <MolRegNo>
2036070

>  <m>
=

>  <Value>
3580

>  <Unit>
nM

>  <Type>
IC50

>  <pValue>
5.45

>  <Ligand Efficiency>
0.14

>  <Binding Efficiency>
7.4

>  <Surface Efficiency>
3.47

>  <Assay Index>
974120

>  <Assay Category>


>  <Assay Organism>
Homo sapiens

>  <Target ID>
17045

>  <Target Name>
Cytochrome P450 3A4

>  <Target Organism>
Homo sapiens

>  <Target Description>
Target is a single protein chain

>  <Sequence Accession>
P08684

>  <Reference>


>  <Pubmed ID>


>  <DOI>


$$$$
2036071
Actelion Java MolfileCreator 1.0

 54 59  0  0  1  0  0  0  0  0999 V2000
    0.0000   -0.0000   -0.0000 O   0  0  0  0  0  0  0  0  0  0  0  0
   -0.0122    1.2532   -0.0000 C   0  0  0  0  0  0  0  0  0  0  0  0
    1.3140    2.0318   -0.0000 N   0  0  0  0  0  0  0  0  0  0  0  0
   -1.3627    2.0318   -0.0000 C   0  0  0  0  0  0  0  0  0  0  0  0
    1.3018    3.5892   -0.0000 C   0  0  0  0  0  0  0  0  0  0  0  0
    2.6402    1.2775   -0.0000 C   0  0  0  0  0  0  0  0  0  0  0  0
   -1.3748    3.5892   -0.0000 N   0  0  0  0  0  0  0  0  0  0  0  0
   -2.7132    1.2775   -0.0000 C   0  0  0  0  0  0  0  0  0  0  0  0
   -0.0487    4.3678   -0.0000 C   0  0  0  0  0  0  0  0  0  0  0  0
    3.9663    2.0683   -0.0000 C   0  0  0  0  0  0  0  0  0  0  0  0
   -2.7253    4.3678   -0.0000 C   0  0  0  0  0  0  0  0  0  0  0  0
   -4.0637    2.0683   -0.0000 C   0  0  0  0  0  0  0  0  0  0  0  0
   -0.0608    5.9251   -0.0000 N   0  0  0  0  0  0  0  0  0  0  0  0
    5.2925    1.3140   -0.0000 C   0  0  0  0  0  0  0  0  0  0  0  0
    3.9542    3.6257   -0.0000 C   0  0  0  0  0  0  0  0  0  0  0  0
   -3.8082    3.7595   -0.0000 O   0  0  0  0  0  0  0  0  0  0  0  0
   -2.7375    5.9251   -0.0000 C   0  0  0  0  0  0  0  0  0  0  0  0
   -5.4142    1.3140   -0.0000 C   0  0  0  0  0  0  0  0  0  0  0  0
   -4.0758    3.6257   -0.0000 C   0  0  0  0  0  0  0  0  0  0  0  0
   -1.4113    6.7038   -0.0000 N   0  0  0  0  0  0  0  0  0  0  0  0
    1.2653    6.7160   -0.0000 C   0  0  0  0  0  0  0  0  0  0  0  0
    5.6088   -0.1825   -0.0000 N   0  0  0  0  0  0  0  0  0  0  0  0
    6.6186    2.1048   -0.0000 C   0  0  0  0  0  0  0  0  0  0  0  0
    5.2803    4.4165   -0.0000 C   0  0  0  0  0  0  0  0  0  0  0  0
   -6.7646    2.1048   -0.0000 C   0  0  0  0  0  0  0  0  0  0  0  0
   -5.4263    4.4165   -0.0000 C   0  0  0  0  0  0  0  0  0  0  0  0
   -1.4235    8.2611   -0.0000 C   0  0  0  0  0  0  0  0  0  0  0  0
    2.3238    6.1076   -0.0000 O   0  0  0  0  0  0  0  0  0  0  0  0
    1.2532    8.2733   -0.0000 N   0  0  0  0  0  0  0  0  0  0  0  0
    7.1296   -0.3285   -0.0000 C   0  0  0  0  0  0  0  0  0  0  0  0
    4.7693   -1.0950   -0.0000 C   0  0  0  0  0  0  0  0  0  0  0  0
    7.7623    1.0828   -0.0000 C   0  0  0  0  0  0  0  0  0  0  0  0
    6.6065    3.6622   -0.0000 C   0  0  0  0  0  0  0  0  0  0  0  0
   -6.7768    3.6622   -0.0000 C   0  0  0  0  0  0  0  0  0  0  0  0
   -2.7740    9.0398   -0.0000 C   0  0  0  0  0  0  0  0  0  0  0  0
    2.5793    9.0641   -0.0000 C   0  0  0  0  0  0  0  0  0  0  0  0
    9.2588    1.4235   -0.0000 C   0  0  0  0  0  0  0  0  0  0  0  0
   -7.8596    4.2948   -0.0000 O   0  0  0  0  0  0  0  0  0  0  0  0
   -2.7862   10.2930   -0.0000 C   0  0  0  0  0  0  0  0  0  0  0  0
    2.5672   10.6215   -0.0000 C   0  0  0  0  0  0  0  0  0  0  0  0
    9.6238    2.6158   -0.0000 O   0  0  0  0  0  0  0  0  0  0  0  0
   10.2808    0.2920   -0.0000 N   0  0  0  0  0  0  0  0  0  0  0  0
    3.8933   11.4123   -0.0000 C   0  0  0  0  0  0  0  0  0  0  0  0
    1.2167   11.4001   -0.0000 C   0  0  0  0  0  0  0  0  0  0  0  0
   11.7773    0.6327   -0.0000 C   0  0  0  0  0  0  0  0  0  0  0  0
    3.8812   12.9696   -0.0000 C   0  0  0  0  0  0  0  0  0  0  0  0
    1.2045   12.9575   -0.0000 C   0  0  0  0  0  0  0  0  0  0  0  0
   12.7993   -0.4988   -0.0000 C   0  0  0  0  0  0  0  0  0  0  0  0
    2.5307   13.7483   -0.0000 C   0  0  0  0  0  0  0  0  0  0  0  0
   14.2958   -0.1582   -0.0000 C   0  0  0  0  0  0  0  0  0  0  0  0
   15.3178   -1.2897   -0.0000 C   0  0  0  0  0  0  0  0  0  0  0  0
   14.9285   -2.4577   -0.0000 O   0  0  0  0  0  0  0  0  0  0  0  0
   16.8143   -0.9490   -0.0000 O   0  0  0  0  0  0  0  0  0  0  0  0
   17.6295   -1.8493   -0.0000 C   0  0  0  0  0  0  0  0  0  0  0  0
  1  2  2  0  0  0  0
  2  3  1  0  0  0  0
  2  4  1  0  0  0  0
  3  5  1  0  0  0  0
  3  6  1  0  0  0  0
  4  7  1  0  0  0  0
  4  8  1  6  0  0  0
  5  9  1  0  0  0  0
  6 10  1  0  0  0  0
  7 11  1  0  0  0  0
  8 12  1  0  0  0  0
  9 13  1  1  0  0  0
 10 14  2  0  0  0  0
 10 15  1  0  0  0  0
 11 16  2  0  0  0  0
 11 17  1  0  0  0  0
 12 18  2  0  0  0  0
 12 19  1  0  0  0  0
 13 20  1  0  0  0  0
 13 21  1  0  0  0  0
 14 22  1  0  0  0  0
 14 23  1  0  0  0  0
 15 24  2  0  0  0  0
 18 25  1  0  0  0  0
 19 26  2  0  0  0  0
 20 27  1  0  0  0  0
 21 28  2  0  0  0  0
 21 29  1  0  0  0  0
 22 30  1  0  0  0  0
 22 31  1  0  0  0  0
 23 32  1  0  0  0  0
 23 33  2  0  0  0  0
 25 34  2  0  0  0  0
 27 35  1  0  0  0  0
 29 36  1  0  0  0  0
 32 37  1  0  0  0  0
 34 38  1  0  0  0  0
 35 39  2  0  0  0  0
 36 40  1  0  0  0  0
 37 41  2  0  0  0  0
 37 42  1  0  0  0  0
 40 43  2  0  0  0  0
 40 44  1  0  0  0  0
 42 45  1  0  0  0  0
 43 46  1  0  0  0  0
 44 47  2  0  0  0  0
 45 48  1  0  0  0  0
 46 49  2  0  0  0  0
 48 50  1  0  0  0  0
 50 51  1  0  0  0  0
 51 52  2  0  0  0  0
 51 53  1  0  0  0  0
 53 54  1  0  0  0  0
  7  9  1  0  0  0  0
 17 20  1  0  0  0  0
 24 33  1  0  0  0  0
 26 34  1  0  0  0  0
 30 32  2  0  0  0  0
 47 49  1  0  0  0  0
M  END
>  <MolRegNo>
2036071

>  <m>
=

>  <Value>
3460

>  <Unit>
nM

>  <Type>
IC50

>  <pValue>
5.46

>  <Ligand Efficiency>
0.14

>  <Binding Efficiency>
7.42

>  <Surface Efficiency>
3.48

>  <Assay Index>
974120

>  <Assay Category>


>  <Assay Organism>
Homo sapiens

>  <Target ID>
17045

>  <Target Name>
Cytochrome P450 3A4

>  <Target Organism>
Homo sapiens

>  <Target Description>
Target is a single protein chain

>  <Sequence Accession>
P08684

>  <Reference>


>  <Pubmed ID>


>  <DOI>


$$$$
2036073
Actelion Java MolfileCreator 1.0

 55 61  0  0  1  0  0  0  0  0999 V2000
    0.0000   -0.0000   -0.0000 O   0  0  0  0  0  0  0  0  0  0  0  0
   -0.0121    1.2433   -0.0000 C   0  0  0  0  0  0  0  0  0  0  0  0
    1.3037    2.0159   -0.0000 N   0  0  0  0  0  0  0  0  0  0  0  0
   -1.3520    2.0159   -0.0000 C   0  0  0  0  0  0  0  0  0  0  0  0
    1.2916    3.5610   -0.0000 C   0  0  0  0  0  0  0  0  0  0  0  0
    2.6195    1.2675   -0.0000 C   0  0  0  0  0  0  0  0  0  0  0  0
   -1.3640    3.5610   -0.0000 N   0  0  0  0  0  0  0  0  0  0  0  0
   -2.6919    1.2675   -0.0000 C   0  0  0  0  0  0  0  0  0  0  0  0
   -0.0483    4.3336   -0.0000 C   0  0  0  0  0  0  0  0  0  0  0  0
    3.9352    2.0521   -0.0000 C   0  0  0  0  0  0  0  0  0  0  0  0
   -2.7040    4.3336   -0.0000 C   0  0  0  0  0  0  0  0  0  0  0  0
   -4.0318    2.0521   -0.0000 C   0  0  0  0  0  0  0  0  0  0  0  0
   -0.0604    5.8787   -0.0000 N   0  0  0  0  0  0  0  0  0  0  0  0
    5.2510    1.3037   -0.0000 C   0  0  0  0  0  0  0  0  0  0  0  0
    3.9232    3.5972   -0.0000 C   0  0  0  0  0  0  0  0  0  0  0  0
   -3.7783    3.7300   -0.0000 O   0  0  0  0  0  0  0  0  0  0  0  0
   -2.7160    5.8787   -0.0000 C   0  0  0  0  0  0  0  0  0  0  0  0
   -5.3717    1.3037   -0.0000 C   0  0  0  0  0  0  0  0  0  0  0  0
   -4.0439    3.5972   -0.0000 C   0  0  0  0  0  0  0  0  0  0  0  0
   -1.4003    6.6512   -0.0000 N   0  0  0  0  0  0  0  0  0  0  0  0
    1.2554    6.6633   -0.0000 C   0  0  0  0  0  0  0  0  0  0  0  0
    5.5648   -0.1811   -0.0000 N   0  0  0  0  0  0  0  0  0  0  0  0
    6.5668    2.0883   -0.0000 C   0  0  0  0  0  0  0  0  0  0  0  0
    5.2389    4.3819   -0.0000 C   0  0  0  0  0  0  0  0  0  0  0  0
   -6.7116    2.0883   -0.0000 C   0  0  0  0  0  0  0  0  0  0  0  0
   -5.3838    4.3819   -0.0000 C   0  0  0  0  0  0  0  0  0  0  0  0
   -1.4123    8.1964   -0.0000 C   0  0  0  0  0  0  0  0  0  0  0  0
    2.3056    6.0598   -0.0000 O   0  0  0  0  0  0  0  0  0  0  0  0
    1.2433    8.2084   -0.0000 N   0  0  0  0  0  0  0  0  0  0  0  0
    7.0737   -0.3259   -0.0000 C   0  0  0  0  0  0  0  0  0  0  0  0
    4.7319   -1.0864   -0.0000 C   0  0  0  0  0  0  0  0  0  0  0  0
    7.7014    1.0743   -0.0000 C   0  0  0  0  0  0  0  0  0  0  0  0
    6.5547    3.6334   -0.0000 C   0  0  0  0  0  0  0  0  0  0  0  0
   -6.7237    3.6334   -0.0000 C   0  0  0  0  0  0  0  0  0  0  0  0
   -2.7522    8.9689   -0.0000 C   0  0  0  0  0  0  0  0  0  0  0  0
    2.5591    8.9931   -0.0000 C   0  0  0  0  0  0  0  0  0  0  0  0
    9.1862    1.4123   -0.0000 C   0  0  0  0  0  0  0  0  0  0  0  0
   -7.7980    4.2611   -0.0000 O   0  0  0  0  0  0  0  0  0  0  0  0
   -2.7643   10.2123   -0.0000 C   0  0  0  0  0  0  0  0  0  0  0  0
    2.5470   10.5382   -0.0000 C   0  0  0  0  0  0  0  0  0  0  0  0
    9.5483    2.5953   -0.0000 O   0  0  0  0  0  0  0  0  0  0  0  0
   10.2002    0.2897   -0.0000 N   0  0  0  0  0  0  0  0  0  0  0  0
    3.8628   11.3228   -0.0000 C   0  0  0  0  0  0  0  0  0  0  0  0
    1.2071   11.3107   -0.0000 C   0  0  0  0  0  0  0  0  0  0  0  0
   11.6850    0.6277   -0.0000 C   0  0  0  0  0  0  0  0  0  0  0  0
    3.8507   12.8679   -0.0000 C   0  0  0  0  0  0  0  0  0  0  0  0
    1.1951   12.8559   -0.0000 C   0  0  0  0  0  0  0  0  0  0  0  0
   12.6989   -0.4949   -0.0000 C   0  0  0  0  0  0  0  0  0  0  0  0
    2.5108   13.6405   -0.0000 C   0  0  0  0  0  0  0  0  0  0  0  0
   14.1837   -0.1569   -0.0000 N   0  0  0  0  0  0  0  0  0  0  0  0
   15.1977   -1.2796   -0.0000 C   0  0  0  0  0  0  0  0  0  0  0  0
   14.6424    1.3158   -0.0000 C   0  0  0  0  0  0  0  0  0  0  0  0
   16.6824   -0.9416   -0.0000 C   0  0  0  0  0  0  0  0  0  0  0  0
   16.1272    1.6538   -0.0000 C   0  0  0  0  0  0  0  0  0  0  0  0
   17.1412    0.5311   -0.0000 O   0  0  0  0  0  0  0  0  0  0  0  0
  1  2  2  0  0  0  0
  2  3  1  0  0  0  0
  2  4  1  0  0  0  0
  3  5  1  0  0  0  0
  3  6  1  0  0  0  0
  4  7  1  0  0  0  0
  4  8  1  6  0  0  0
  5  9  1  0  0  0  0
  6 10  1  0  0  0  0
  7 11  1  0  0  0  0
  8 12  1  0  0  0  0
  9 13  1  1  0  0  0
 10 14  2  0  0  0  0
 10 15  1  0  0  0  0
 11 16  2  0  0  0  0
 11 17  1  0  0  0  0
 12 18  2  0  0  0  0
 12 19  1  0  0  0  0
 13 20  1  0  0  0  0
 13 21  1  0  0  0  0
 14 22  1  0  0  0  0
 14 23  1  0  0  0  0
 15 24  2  0  0  0  0
 18 25  1  0  0  0  0
 19 26  2  0  0  0  0
 20 27  1  0  0  0  0
 21 28  2  0  0  0  0
 21 29  1  0  0  0  0
 22 30  1  0  0  0  0
 22 31  1  0  0  0  0
 23 32  1  0  0  0  0
 23 33  2  0  0  0  0
 25 34  2  0  0  0  0
 27 35  1  0  0  0  0
 29 36  1  0  0  0  0
 32 37  1  0  0  0  0
 34 38  1  0  0  0  0
 35 39  2  0  0  0  0
 36 40  1  0  0  0  0
 37 41  2  0  0  0  0
 37 42  1  0  0  0  0
 40 43  2  0  0  0  0
 40 44  1  0  0  0  0
 42 45  1  0  0  0  0
 43 46  1  0  0  0  0
 44 47  2  0  0  0  0
 45 48  1  0  0  0  0
 46 49  2  0  0  0  0
 48 50  1  0  0  0  0
 50 51  1  0  0  0  0
 50 52  1  0  0  0  0
 51 53  1  0  0  0  0
 52 54  1  0  0  0  0
 53 55  1  0  0  0  0
  7  9  1  0  0  0  0
 17 20  1  0  0  0  0
 24 33  1  0  0  0  0
 26 34  1  0  0  0  0
 30 32  2  0  0  0  0
 47 49  1  0  0  0  0
 54 55  1  0  0  0  0
M  END
>  <MolRegNo>
2036073

>  <m>
=

>  <Value>
8500

>  <Unit>
nM

>  <Type>
IC50

>  <pValue>
5.07

>  <Ligand Efficiency>
0.13

>  <Binding Efficiency>
6.77

>  <Surface Efficiency>
3.55

>  <Assay Index>
974120

>  <Assay Category>


>  <Assay Organism>
Homo sapiens

>  <Target ID>
17045

>  <Target Name>
Cytochrome P450 3A4

>  <Target Organism>
Homo sapiens

>  <Target Description>
Target is a single protein chain

>  <Sequence Accession>
P08684

>  <Reference>


>  <Pubmed ID>


>  <DOI>


$$$$
2036074
Actelion Java MolfileCreator 1.0

 56 62  0  0  1  0  0  0  0  0999 V2000
    0.0000   -0.0000   -0.0000 O   0  0  0  0  0  0  0  0  0  0  0  0
   -0.0121    1.2471   -0.0000 C   0  0  0  0  0  0  0  0  0  0  0  0
    1.3076    2.0220   -0.0000 N   0  0  0  0  0  0  0  0  0  0  0  0
   -1.3560    2.0220   -0.0000 C   0  0  0  0  0  0  0  0  0  0  0  0
    1.2955    3.5717   -0.0000 C   0  0  0  0  0  0  0  0  0  0  0  0
    2.6273    1.2713   -0.0000 C   0  0  0  0  0  0  0  0  0  0  0  0
   -1.3681    3.5717   -0.0000 N   0  0  0  0  0  0  0  0  0  0  0  0
   -2.7000    1.2713   -0.0000 C   0  0  0  0  0  0  0  0  0  0  0  0
   -0.0484    4.3466   -0.0000 C   0  0  0  0  0  0  0  0  0  0  0  0
    3.9470    2.0583   -0.0000 C   0  0  0  0  0  0  0  0  0  0  0  0
   -2.7121    4.3466   -0.0000 C   0  0  0  0  0  0  0  0  0  0  0  0
   -4.0439    2.0583   -0.0000 C   0  0  0  0  0  0  0  0  0  0  0  0
   -0.0605    5.8963   -0.0000 N   0  0  0  0  0  0  0  0  0  0  0  0
    5.2668    1.3076   -0.0000 C   0  0  0  0  0  0  0  0  0  0  0  0
    3.9349    3.6080   -0.0000 C   0  0  0  0  0  0  0  0  0  0  0  0
   -3.7896    3.7412   -0.0000 O   0  0  0  0  0  0  0  0  0  0  0  0
   -2.7242    5.8963   -0.0000 C   0  0  0  0  0  0  0  0  0  0  0  0
   -5.3878    1.3076   -0.0000 C   0  0  0  0  0  0  0  0  0  0  0  0
   -4.0560    3.6080   -0.0000 C   0  0  0  0  0  0  0  0  0  0  0  0
   -1.4045    6.6712   -0.0000 N   0  0  0  0  0  0  0  0  0  0  0  0
    1.2592    6.6833   -0.0000 C   0  0  0  0  0  0  0  0  0  0  0  0
    5.5816   -0.1816   -0.0000 N   0  0  0  0  0  0  0  0  0  0  0  0
    6.5865    2.0946   -0.0000 C   0  0  0  0  0  0  0  0  0  0  0  0
    5.2546    4.3950   -0.0000 C   0  0  0  0  0  0  0  0  0  0  0  0
   -6.7318    2.0946   -0.0000 C   0  0  0  0  0  0  0  0  0  0  0  0
   -5.3999    4.3950   -0.0000 C   0  0  0  0  0  0  0  0  0  0  0  0
   -1.4166    8.2210   -0.0000 C   0  0  0  0  0  0  0  0  0  0  0  0
    2.3125    6.0780   -0.0000 O   0  0  0  0  0  0  0  0  0  0  0  0
    1.2471    8.2331   -0.0000 N   0  0  0  0  0  0  0  0  0  0  0  0
    7.0950   -0.3269   -0.0000 C   0  0  0  0  0  0  0  0  0  0  0  0
    4.7461   -1.0897   -0.0000 C   0  0  0  0  0  0  0  0  0  0  0  0
    7.7246    1.0776   -0.0000 C   0  0  0  0  0  0  0  0  0  0  0  0
    6.5744    3.6444   -0.0000 C   0  0  0  0  0  0  0  0  0  0  0  0
   -6.7439    3.6444   -0.0000 C   0  0  0  0  0  0  0  0  0  0  0  0
   -2.7605    8.9959   -0.0000 C   0  0  0  0  0  0  0  0  0  0  0  0
    2.5668    9.0201   -0.0000 C   0  0  0  0  0  0  0  0  0  0  0  0
    9.2138    1.4166   -0.0000 C   0  0  0  0  0  0  0  0  0  0  0  0
   -7.8214    4.2739   -0.0000 O   0  0  0  0  0  0  0  0  0  0  0  0
   -2.7726   10.2429   -0.0000 C   0  0  0  0  0  0  0  0  0  0  0  0
    2.5547   10.5698   -0.0000 C   0  0  0  0  0  0  0  0  0  0  0  0
    9.5770    2.6031   -0.0000 O   0  0  0  0  0  0  0  0  0  0  0  0
   10.2308    0.2906   -0.0000 N   0  0  0  0  0  0  0  0  0  0  0  0
    3.8744   11.3568   -0.0000 C   0  0  0  0  0  0  0  0  0  0  0  0
    1.2107   11.3447   -0.0000 C   0  0  0  0  0  0  0  0  0  0  0  0
   11.7200    0.6296   -0.0000 C   0  0  0  0  0  0  0  0  0  0  0  0
    9.8434   -0.8717   -0.0000 C   0  0  0  0  0  0  0  0  0  0  0  0
    3.8623   12.9066   -0.0000 C   0  0  0  0  0  0  0  0  0  0  0  0
    1.1986   12.8945   -0.0000 C   0  0  0  0  0  0  0  0  0  0  0  0
   12.7371   -0.4964   -0.0000 C   0  0  0  0  0  0  0  0  0  0  0  0
    2.5184   13.6815   -0.0000 C   0  0  0  0  0  0  0  0  0  0  0  0
   14.2263   -0.1574   -0.0000 N   0  0  0  0  0  0  0  0  0  0  0  0
   15.2433   -1.2834   -0.0000 C   0  0  0  0  0  0  0  0  0  0  0  0
   14.6864    1.3197   -0.0000 C   0  0  0  0  0  0  0  0  0  0  0  0
   16.7325   -0.9444   -0.0000 C   0  0  0  0  0  0  0  0  0  0  0  0
   16.1756    1.6587   -0.0000 C   0  0  0  0  0  0  0  0  0  0  0  0
   17.1926    0.5327   -0.0000 O   0  0  0  0  0  0  0  0  0  0  0  0
  1  2  2  0  0  0  0
  2  3  1  0  0  0  0
  2  4  1  0  0  0  0
  3  5  1  0  0  0  0
  3  6  1  0  0  0  0
  4  7  1  0  0  0  0
  4  8  1  6  0  0  0
  5  9  1  0  0  0  0
  6 10  1  0  0  0  0
  7 11  1  0  0  0  0
  8 12  1  0  0  0  0
  9 13  1  1  0  0  0
 10 14  2  0  0  0  0
 10 15  1  0  0  0  0
 11 16  2  0  0  0  0
 11 17  1  0  0  0  0
 12 18  2  0  0  0  0
 12 19  1  0  0  0  0
 13 20  1  0  0  0  0
 13 21  1  0  0  0  0
 14 22  1  0  0  0  0
 14 23  1  0  0  0  0
 15 24  2  0  0  0  0
 18 25  1  0  0  0  0
 19 26  2  0  0  0  0
 20 27  1  0  0  0  0
 21 28  2  0  0  0  0
 21 29  1  0  0  0  0
 22 30  1  0  0  0  0
 22 31  1  0  0  0  0
 23 32  1  0  0  0  0
 23 33  2  0  0  0  0
 25 34  2  0  0  0  0
 27 35  1  0  0  0  0
 29 36  1  0  0  0  0
 32 37  1  0  0  0  0
 34 38  1  0  0  0  0
 35 39  2  0  0  0  0
 36 40  1  0  0  0  0
 37 41  2  0  0  0  0
 37 42  1  0  0  0  0
 40 43  2  0  0  0  0
 40 44  1  0  0  0  0
 42 45  1  0  0  0  0
 42 46  1  0  0  0  0
 43 47  1  0  0  0  0
 44 48  2  0  0  0  0
 45 49  1  0  0  0  0
 47 50  2  0  0  0  0
 49 51  1  0  0  0  0
 51 52  1  0  0  0  0
 51 53  1  0  0  0  0
 52 54  1  0  0  0  0
 53 55  1  0  0  0  0
 54 56  1  0  0  0  0
  7  9  1  0  0  0  0
 17 20  1  0  0  0  0
 24 33  1  0  0  0  0
 26 34  1  0  0  0  0
 30 32  2  0  0  0  0
 48 50  1  0  0  0  0
 55 56  1  0  0  0  0
M  END
>  <MolRegNo>
2036074

>  <m>
=

>  <Value>
2860

>  <Unit>
nM

>  <Type>
IC50

>  <pValue>
5.54

>  <Ligand Efficiency>
0.14

>  <Binding Efficiency>
7.27

>  <Surface Efficiency>
4.13

>  <Assay Index>
974120

>  <Assay Category>


>  <Assay Organism>
Homo sapiens

>  <Target ID>
17045

>  <Target Name>
Cytochrome P450 3A4

>  <Target Organism>
Homo sapiens

>  <Target Description>
Target is a single protein chain

>  <Sequence Accession>
P08684

>  <Reference>


>  <Pubmed ID>


>  <DOI>


$$$$
2036075
Actelion Java MolfileCreator 1.0

 56 62  0  0  1  0  0  0  0  0999 V2000
    0.0000   -0.0000   -0.0000 O   0  0  0  0  0  0  0  0  0  0  0  0
   -0.0121    1.2472   -0.0000 C   0  0  0  0  0  0  0  0  0  0  0  0
    1.3077    2.0221   -0.0000 N   0  0  0  0  0  0  0  0  0  0  0  0
   -1.3562    2.0221   -0.0000 C   0  0  0  0  0  0  0  0  0  0  0  0
    1.2956    3.5721   -0.0000 C   0  0  0  0  0  0  0  0  0  0  0  0
    2.6276    1.2714   -0.0000 C   0  0  0  0  0  0  0  0  0  0  0  0
   -1.3683    3.5721   -0.0000 N   0  0  0  0  0  0  0  0  0  0  0  0
   -2.7002    1.2714   -0.0000 C   0  0  0  0  0  0  0  0  0  0  0  0
   -0.0484    4.3470   -0.0000 C   0  0  0  0  0  0  0  0  0  0  0  0
    3.9474    2.0585   -0.0000 C   0  0  0  0  0  0  0  0  0  0  0  0
   -2.7123    4.3470   -0.0000 C   0  0  0  0  0  0  0  0  0  0  0  0
   -4.0443    2.0585   -0.0000 C   0  0  0  0  0  0  0  0  0  0  0  0
   -0.0605    5.8969   -0.0000 N   0  0  0  0  0  0  0  0  0  0  0  0
    5.2673    1.3077   -0.0000 C   0  0  0  0  0  0  0  0  0  0  0  0
    3.9353    3.6084   -0.0000 C   0  0  0  0  0  0  0  0  0  0  0  0
   -3.7900    3.7416   -0.0000 O   0  0  0  0  0  0  0  0  0  0  0  0
   -2.7245    5.8969   -0.0000 C   0  0  0  0  0  0  0  0  0  0  0  0
   -5.3884    1.3077   -0.0000 C   0  0  0  0  0  0  0  0  0  0  0  0
   -4.0564    3.6084   -0.0000 C   0  0  0  0  0  0  0  0  0  0  0  0
   -1.4046    6.6719   -0.0000 N   0  0  0  0  0  0  0  0  0  0  0  0
    1.2593    6.6840   -0.0000 C   0  0  0  0  0  0  0  0  0  0  0  0
    5.5821   -0.1816   -0.0000 N   0  0  0  0  0  0  0  0  0  0  0  0
    6.5871    2.0948   -0.0000 C   0  0  0  0  0  0  0  0  0  0  0  0
    5.2552    4.3954   -0.0000 C   0  0  0  0  0  0  0  0  0  0  0  0
   -6.7324    2.0948   -0.0000 C   0  0  0  0  0  0  0  0  0  0  0  0
   -5.4005    4.3954   -0.0000 C   0  0  0  0  0  0  0  0  0  0  0  0
   -1.4167    8.2218   -0.0000 C   0  0  0  0  0  0  0  0  0  0  0  0
    2.3128    6.0786   -0.0000 O   0  0  0  0  0  0  0  0  0  0  0  0
    1.2472    8.2339   -0.0000 N   0  0  0  0  0  0  0  0  0  0  0  0
    7.0957   -0.3269   -0.0000 C   0  0  0  0  0  0  0  0  0  0  0  0
    4.7466   -1.0898   -0.0000 C   0  0  0  0  0  0  0  0  0  0  0  0
    7.7253    1.0777   -0.0000 C   0  0  0  0  0  0  0  0  0  0  0  0
    6.5750    3.6447   -0.0000 C   0  0  0  0  0  0  0  0  0  0  0  0
   -6.7445    3.6447   -0.0000 C   0  0  0  0  0  0  0  0  0  0  0  0
   -2.7608    8.9967   -0.0000 C   0  0  0  0  0  0  0  0  0  0  0  0
    2.5670    9.0210   -0.0000 C   0  0  0  0  0  0  0  0  0  0  0  0
    9.2147    1.4167   -0.0000 C   0  0  0  0  0  0  0  0  0  0  0  0
   -7.8222    4.2744   -0.0000 O   0  0  0  0  0  0  0  0  0  0  0  0
   -2.7729   10.2439   -0.0000 C   0  0  0  0  0  0  0  0  0  0  0  0
    2.5549   10.5709   -0.0000 C   0  0  0  0  0  0  0  0  0  0  0  0
    9.5780    2.6034   -0.0000 O   0  0  0  0  0  0  0  0  0  0  0  0
   10.2318    0.2906   -0.0000 N   0  0  0  0  0  0  0  0  0  0  0  0
    3.8748   11.3579   -0.0000 C   0  0  0  0  0  0  0  0  0  0  0  0
    1.2109   11.3458   -0.0000 C   0  0  0  0  0  0  0  0  0  0  0  0
   11.7212    0.6297   -0.0000 C   0  0  0  0  0  0  0  0  0  0  0  0
    3.8627   12.9078   -0.0000 C   0  0  0  0  0  0  0  0  0  0  0  0
    1.1988   12.8957   -0.0000 C   0  0  0  0  0  0  0  0  0  0  0  0
   12.7383   -0.4965   -0.0000 C   0  0  0  0  0  0  0  0  0  0  0  0
    2.5186   13.6828   -0.0000 C   0  0  0  0  0  0  0  0  0  0  0  0
   14.2277   -0.1574   -0.0000 N   0  0  0  0  0  0  0  0  0  0  0  0
   15.2448   -1.2835   -0.0000 C   0  0  0  0  0  0  0  0  0  0  0  0
   14.6878    1.3198   -0.0000 C   0  0  0  0  0  0  0  0  0  0  0  0
   16.7342   -0.9445   -0.0000 C   0  0  0  0  0  0  0  0  0  0  0  0
   16.1772    1.6589   -0.0000 C   0  0  0  0  0  0  0  0  0  0  0  0
   17.1943    0.5328   -0.0000 N   0  0  0  0  0  0  0  0  0  0  0  0
   18.3810    0.7992   -0.0000 C   0  0  0  0  0  0  0  0  0  0  0  0
  1  2  2  0  0  0  0
  2  3  1  0  0  0  0
  2  4  1  0  0  0  0
  3  5  1  0  0  0  0
  3  6  1  0  0  0  0
  4  7  1  0  0  0  0
  4  8  1  6  0  0  0
  5  9  1  0  0  0  0
  6 10  1  0  0  0  0
  7 11  1  0  0  0  0
  8 12  1  0  0  0  0
  9 13  1  1  0  0  0
 10 14  2  0  0  0  0
 10 15  1  0  0  0  0
 11 16  2  0  0  0  0
 11 17  1  0  0  0  0
 12 18  2  0  0  0  0
 12 19  1  0  0  0  0
 13 20  1  0  0  0  0
 13 21  1  0  0  0  0
 14 22  1  0  0  0  0
 14 23  1  0  0  0  0
 15 24  2  0  0  0  0
 18 25  1  0  0  0  0
 19 26  2  0  0  0  0
 20 27  1  0  0  0  0
 21 28  2  0  0  0  0
 21 29  1  0  0  0  0
 22 30  1  0  0  0  0
 22 31  1  0  0  0  0
 23 32  1  0  0  0  0
 23 33  2  0  0  0  0
 25 34  2  0  0  0  0
 27 35  1  0  0  0  0
 29 36  1  0  0  0  0
 32 37  1  0  0  0  0
 34 38  1  0  0  0  0
 35 39  2  0  0  0  0
 36 40  1  0  0  0  0
 37 41  2  0  0  0  0
 37 42  1  0  0  0  0
 40 43  2  0  0  0  0
 40 44  1  0  0  0  0
 42 45  1  0  0  0  0
 43 46  1  0  0  0  0
 44 47  2  0  0  0  0
 45 48  1  0  0  0  0
 46 49  2  0  0  0  0
 48 50  1  0  0  0  0
 50 51  1  0  0  0  0
 50 52  1  0  0  0  0
 51 53  1  0  0  0  0
 52 54  1  0  0  0  0
 53 55  1  0  0  0  0
 55 56  1  0  0  0  0
  7  9  1  0  0  0  0
 17 20  1  0  0  0  0
 24 33  1  0  0  0  0
 26 34  1  0  0  0  0
 30 32  2  0  0  0  0
 47 49  1  0  0  0  0
 54 55  1  0  0  0  0
M  END
>  <MolRegNo>
2036075

>  <m>
=

>  <Value>
11510

>  <Unit>
nM

>  <Type>
IC50

>  <pValue>
4.94

>  <Ligand Efficiency>
0.12

>  <Binding Efficiency>
6.48

>  <Surface Efficiency>
3.61

>  <Assay Index>
974120

>  <Assay Category>


>  <Assay Organism>
Homo sapiens

>  <Target ID>
17045

>  <Target Name>
Cytochrome P450 3A4

>  <Target Organism>
Homo sapiens

>  <Target Description>
Target is a single protein chain

>  <Sequence Accession>
P08684

>  <Reference>


>  <Pubmed ID>


>  <DOI>


$$$$
2036076
Actelion Java MolfileCreator 1.0

 57 63  0  0  1  0  0  0  0  0999 V2000
    0.0000   -0.0000   -0.0000 O   0  0  0  0  0  0  0  0  0  0  0  0
   -0.0121    1.2508   -0.0000 C   0  0  0  0  0  0  0  0  0  0  0  0
    1.3115    2.0280   -0.0000 N   0  0  0  0  0  0  0  0  0  0  0  0
   -1.3601    2.0280   -0.0000 C   0  0  0  0  0  0  0  0  0  0  0  0
    1.2994    3.5825   -0.0000 C   0  0  0  0  0  0  0  0  0  0  0  0
    2.6352    1.2751   -0.0000 C   0  0  0  0  0  0  0  0  0  0  0  0
   -1.3723    3.5825   -0.0000 N   0  0  0  0  0  0  0  0  0  0  0  0
   -2.7081    1.2751   -0.0000 C   0  0  0  0  0  0  0  0  0  0  0  0
   -0.0486    4.3597   -0.0000 C   0  0  0  0  0  0  0  0  0  0  0  0
    3.9589    2.0645   -0.0000 C   0  0  0  0  0  0  0  0  0  0  0  0
   -2.7203    4.3597   -0.0000 C   0  0  0  0  0  0  0  0  0  0  0  0
   -4.0561    2.0645   -0.0000 C   0  0  0  0  0  0  0  0  0  0  0  0
   -0.0607    5.9141   -0.0000 N   0  0  0  0  0  0  0  0  0  0  0  0
    5.2826    1.3115   -0.0000 C   0  0  0  0  0  0  0  0  0  0  0  0
    3.9468    3.6189   -0.0000 C   0  0  0  0  0  0  0  0  0  0  0  0
   -3.8011    3.7525   -0.0000 O   0  0  0  0  0  0  0  0  0  0  0  0
   -2.7324    5.9141   -0.0000 C   0  0  0  0  0  0  0  0  0  0  0  0
   -5.4041    1.3115   -0.0000 C   0  0  0  0  0  0  0  0  0  0  0  0
   -4.0682    3.6189   -0.0000 C   0  0  0  0  0  0  0  0  0  0  0  0
   -1.4087    6.6913   -0.0000 N   0  0  0  0  0  0  0  0  0  0  0  0
    1.2630    6.7035   -0.0000 C   0  0  0  0  0  0  0  0  0  0  0  0
    5.5984   -0.1822   -0.0000 N   0  0  0  0  0  0  0  0  0  0  0  0
    6.6063    2.1009   -0.0000 C   0  0  0  0  0  0  0  0  0  0  0  0
    5.2705    4.4083   -0.0000 C   0  0  0  0  0  0  0  0  0  0  0  0
   -6.7521    2.1009   -0.0000 C   0  0  0  0  0  0  0  0  0  0  0  0
   -5.4162    4.4083   -0.0000 C   0  0  0  0  0  0  0  0  0  0  0  0
   -1.4208    8.2458   -0.0000 C   0  0  0  0  0  0  0  0  0  0  0  0
    2.3195    6.0963   -0.0000 O   0  0  0  0  0  0  0  0  0  0  0  0
    1.2508    8.2579   -0.0000 N   0  0  0  0  0  0  0  0  0  0  0  0
    7.1164   -0.3279   -0.0000 C   0  0  0  0  0  0  0  0  0  0  0  0
    4.7604   -1.0930   -0.0000 C   0  0  0  0  0  0  0  0  0  0  0  0
    7.7479    1.0808   -0.0000 C   0  0  0  0  0  0  0  0  0  0  0  0
    6.5942    3.6553   -0.0000 C   0  0  0  0  0  0  0  0  0  0  0  0
   -6.7642    3.6553   -0.0000 C   0  0  0  0  0  0  0  0  0  0  0  0
   -2.7688    9.0230   -0.0000 C   0  0  0  0  0  0  0  0  0  0  0  0
    2.5745    9.0473   -0.0000 C   0  0  0  0  0  0  0  0  0  0  0  0
    9.2416    1.4208   -0.0000 C   0  0  0  0  0  0  0  0  0  0  0  0
   -7.8450    4.2868   -0.0000 O   0  0  0  0  0  0  0  0  0  0  0  0
   -2.7810   10.2738   -0.0000 C   0  0  0  0  0  0  0  0  0  0  0  0
    2.5624   10.6017   -0.0000 C   0  0  0  0  0  0  0  0  0  0  0  0
    9.6059    2.6110   -0.0000 O   0  0  0  0  0  0  0  0  0  0  0  0
   10.2617    0.2915   -0.0000 N   0  0  0  0  0  0  0  0  0  0  0  0
    3.8861   11.3910   -0.0000 C   0  0  0  0  0  0  0  0  0  0  0  0
    1.2144   11.3789   -0.0000 C   0  0  0  0  0  0  0  0  0  0  0  0
   11.7554    0.6315   -0.0000 C   0  0  0  0  0  0  0  0  0  0  0  0
    9.8731   -0.8744   -0.0000 C   0  0  0  0  0  0  0  0  0  0  0  0
    3.8739   12.9455   -0.0000 C   0  0  0  0  0  0  0  0  0  0  0  0
    1.2023   12.9333   -0.0000 C   0  0  0  0  0  0  0  0  0  0  0  0
   12.7755   -0.4979   -0.0000 C   0  0  0  0  0  0  0  0  0  0  0  0
    2.5259   13.7227   -0.0000 C   0  0  0  0  0  0  0  0  0  0  0  0
   14.2692   -0.1579   -0.0000 N   0  0  0  0  0  0  0  0  0  0  0  0
   15.2893   -1.2873   -0.0000 C   0  0  0  0  0  0  0  0  0  0  0  0
   14.7306    1.3237   -0.0000 C   0  0  0  0  0  0  0  0  0  0  0  0
   16.7830   -0.9472   -0.0000 C   0  0  0  0  0  0  0  0  0  0  0  0
   16.2244    1.6637   -0.0000 C   0  0  0  0  0  0  0  0  0  0  0  0
   17.2444    0.5343   -0.0000 N   0  0  0  0  0  0  0  0  0  0  0  0
   18.4346    0.8015   -0.0000 C   0  0  0  0  0  0  0  0  0  0  0  0
  1  2  2  0  0  0  0
  2  3  1  0  0  0  0
  2  4  1  0  0  0  0
  3  5  1  0  0  0  0
  3  6  1  0  0  0  0
  4  7  1  0  0  0  0
  4  8  1  6  0  0  0
  5  9  1  0  0  0  0
  6 10  1  0  0  0  0
  7 11  1  0  0  0  0
  8 12  1  0  0  0  0
  9 13  1  1  0  0  0
 10 14  2  0  0  0  0
 10 15  1  0  0  0  0
 11 16  2  0  0  0  0
 11 17  1  0  0  0  0
 12 18  2  0  0  0  0
 12 19  1  0  0  0  0
 13 20  1  0  0  0  0
 13 21  1  0  0  0  0
 14 22  1  0  0  0  0
 14 23  1  0  0  0  0
 15 24  2  0  0  0  0
 18 25  1  0  0  0  0
 19 26  2  0  0  0  0
 20 27  1  0  0  0  0
 21 28  2  0  0  0  0
 21 29  1  0  0  0  0
 22 30  1  0  0  0  0
 22 31  1  0  0  0  0
 23 32  1  0  0  0  0
 23 33  2  0  0  0  0
 25 34  2  0  0  0  0
 27 35  1  0  0  0  0
 29 36  1  0  0  0  0
 32 37  1  0  0  0  0
 34 38  1  0  0  0  0
 35 39  2  0  0  0  0
 36 40  1  0  0  0  0
 37 41  2  0  0  0  0
 37 42  1  0  0  0  0
 40 43  2  0  0  0  0
 40 44  1  0  0  0  0
 42 45  1  0  0  0  0
 42 46  1  0  0  0  0
 43 47  1  0  0  0  0
 44 48  2  0  0  0  0
 45 49  1  0  0  0  0
 47 50  2  0  0  0  0
 49 51  1  0  0  0  0
 51 52  1  0  0  0  0
 51 53  1  0  0  0  0
 52 54  1  0  0  0  0
 53 55  1  0  0  0  0
 54 56  1  0  0  0  0
 56 57  1  0  0  0  0
  7  9  1  0  0  0  0
 17 20  1  0  0  0  0
 24 33  1  0  0  0  0
 26 34  1  0  0  0  0
 30 32  2  0  0  0  0
 48 50  1  0  0  0  0
 55 56  1  0  0  0  0
M  END
>  <MolRegNo>
2036076

>  <m>
=

>  <Value>
7800

>  <Unit>
nM

>  <Type>
IC50

>  <pValue>
5.11

>  <Ligand Efficiency>
0.12

>  <Binding Efficiency>
6.58

>  <Surface Efficiency>
3.99

>  <Assay Index>
974120

>  <Assay Category>


>  <Assay Organism>
Homo sapiens

>  <Target ID>
17045

>  <Target Name>
Cytochrome P450 3A4

>  <Target Organism>
Homo sapiens

>  <Target Description>
Target is a single protein chain

>  <Sequence Accession>
P08684

>  <Reference>


>  <Pubmed ID>


>  <DOI>


$$$$
2036077
Actelion Java MolfileCreator 1.0

 56 62  0  0  1  0  0  0  0  0999 V2000
    0.0000   -0.0000   -0.0000 O   0  0  0  0  0  0  0  0  0  0  0  0
   -0.0121    1.2437   -0.0000 C   0  0  0  0  0  0  0  0  0  0  0  0
    1.3040    2.0164   -0.0000 N   0  0  0  0  0  0  0  0  0  0  0  0
   -1.3523    2.0164   -0.0000 C   0  0  0  0  0  0  0  0  0  0  0  0
    1.2920    3.5619   -0.0000 C   0  0  0  0  0  0  0  0  0  0  0  0
    2.6201    1.2678   -0.0000 C   0  0  0  0  0  0  0  0  0  0  0  0
   -1.3644    3.5619   -0.0000 N   0  0  0  0  0  0  0  0  0  0  0  0
   -2.6926    1.2678   -0.0000 C   0  0  0  0  0  0  0  0  0  0  0  0
   -0.0483    4.3347   -0.0000 C   0  0  0  0  0  0  0  0  0  0  0  0
    3.9362    2.0526   -0.0000 C   0  0  0  0  0  0  0  0  0  0  0  0
   -2.7046    4.3347   -0.0000 C   0  0  0  0  0  0  0  0  0  0  0  0
   -4.0328    2.0526   -0.0000 C   0  0  0  0  0  0  0  0  0  0  0  0
   -0.0604    5.8802   -0.0000 N   0  0  0  0  0  0  0  0  0  0  0  0
    5.2523    1.3040   -0.0000 C   0  0  0  0  0  0  0  0  0  0  0  0
    3.9241    3.5981   -0.0000 C   0  0  0  0  0  0  0  0  0  0  0  0
   -3.7793    3.7310   -0.0000 O   0  0  0  0  0  0  0  0  0  0  0  0
   -2.7167    5.8802   -0.0000 C   0  0  0  0  0  0  0  0  0  0  0  0
   -5.3731    1.3040   -0.0000 C   0  0  0  0  0  0  0  0  0  0  0  0
   -4.0449    3.5981   -0.0000 C   0  0  0  0  0  0  0  0  0  0  0  0
   -1.4006    6.6529   -0.0000 N   0  0  0  0  0  0  0  0  0  0  0  0
    1.2557    6.6650   -0.0000 C   0  0  0  0  0  0  0  0  0  0  0  0
    5.5663   -0.1811   -0.0000 N   0  0  0  0  0  0  0  0  0  0  0  0
    6.5684    2.0889   -0.0000 C   0  0  0  0  0  0  0  0  0  0  0  0
    5.2402    4.3830   -0.0000 C   0  0  0  0  0  0  0  0  0  0  0  0
   -6.7133    2.0889   -0.0000 C   0  0  0  0  0  0  0  0  0  0  0  0
   -5.3851    4.3830   -0.0000 C   0  0  0  0  0  0  0  0  0  0  0  0
   -1.4127    8.1985   -0.0000 C   0  0  0  0  0  0  0  0  0  0  0  0
    2.3062    6.0613   -0.0000 O   0  0  0  0  0  0  0  0  0  0  0  0
    1.2437    8.2105   -0.0000 N   0  0  0  0  0  0  0  0  0  0  0  0
    7.0755   -0.3260   -0.0000 C   0  0  0  0  0  0  0  0  0  0  0  0
    4.7331   -1.0867   -0.0000 C   0  0  0  0  0  0  0  0  0  0  0  0
    7.7034    1.0746   -0.0000 C   0  0  0  0  0  0  0  0  0  0  0  0
    6.5563    3.6344   -0.0000 C   0  0  0  0  0  0  0  0  0  0  0  0
   -6.7254    3.6344   -0.0000 C   0  0  0  0  0  0  0  0  0  0  0  0
   -2.7529    8.9712   -0.0000 C   0  0  0  0  0  0  0  0  0  0  0  0
    2.5598    8.9954   -0.0000 C   0  0  0  0  0  0  0  0  0  0  0  0
    9.1885    1.4127   -0.0000 C   0  0  0  0  0  0  0  0  0  0  0  0
   -7.8000    4.2622   -0.0000 O   0  0  0  0  0  0  0  0  0  0  0  0
   -2.7650   10.2149   -0.0000 C   0  0  0  0  0  0  0  0  0  0  0  0
    2.5477   10.5409   -0.0000 C   0  0  0  0  0  0  0  0  0  0  0  0
    9.5508    2.5960   -0.0000 O   0  0  0  0  0  0  0  0  0  0  0  0
   10.2028    0.2898   -0.0000 N   0  0  0  0  0  0  0  0  0  0  0  0
    3.8638   11.3257   -0.0000 C   0  0  0  0  0  0  0  0  0  0  0  0
    1.2074   11.3136   -0.0000 C   0  0  0  0  0  0  0  0  0  0  0  0
   11.6879    0.6279   -0.0000 C   0  0  0  0  0  0  0  0  0  0  0  0
    3.8517   12.8712   -0.0000 C   0  0  0  0  0  0  0  0  0  0  0  0
    1.1954   12.8591   -0.0000 C   0  0  0  0  0  0  0  0  0  0  0  0
   12.7022   -0.4950   -0.0000 C   0  0  0  0  0  0  0  0  0  0  0  0
    2.5115   13.6440   -0.0000 C   0  0  0  0  0  0  0  0  0  0  0  0
   14.1873   -0.1570   -0.0000 C   0  0  0  0  0  0  0  0  0  0  0  0
   15.2015   -1.2799   -0.0000 N   0  0  0  0  0  0  0  0  0  0  0  0
   16.6867   -0.9539   -0.0000 C   0  0  0  0  0  0  0  0  0  0  0  0
   14.7186   -2.7288   -0.0000 C   0  0  0  0  0  0  0  0  0  0  0  0
   17.7009   -2.0768   -0.0000 C   0  0  0  0  0  0  0  0  0  0  0  0
   15.7328   -3.8517   -0.0000 C   0  0  0  0  0  0  0  0  0  0  0  0
   17.2180   -3.5257   -0.0000 O   0  0  0  0  0  0  0  0  0  0  0  0
  1  2  2  0  0  0  0
  2  3  1  0  0  0  0
  2  4  1  0  0  0  0
  3  5  1  0  0  0  0
  3  6  1  0  0  0  0
  4  7  1  0  0  0  0
  4  8  1  6  0  0  0
  5  9  1  0  0  0  0
  6 10  1  0  0  0  0
  7 11  1  0  0  0  0
  8 12  1  0  0  0  0
  9 13  1  1  0  0  0
 10 14  2  0  0  0  0
 10 15  1  0  0  0  0
 11 16  2  0  0  0  0
 11 17  1  0  0  0  0
 12 18  2  0  0  0  0
 12 19  1  0  0  0  0
 13 20  1  0  0  0  0
 13 21  1  0  0  0  0
 14 22  1  0  0  0  0
 14 23  1  0  0  0  0
 15 24  2  0  0  0  0
 18 25  1  0  0  0  0
 19 26  2  0  0  0  0
 20 27  1  0  0  0  0
 21 28  2  0  0  0  0
 21 29  1  0  0  0  0
 22 30  1  0  0  0  0
 22 31  1  0  0  0  0
 23 32  1  0  0  0  0
 23 33  2  0  0  0  0
 25 34  2  0  0  0  0
 27 35  1  0  0  0  0
 29 36  1  0  0  0  0
 32 37  1  0  0  0  0
 34 38  1  0  0  0  0
 35 39  2  0  0  0  0
 36 40  1  0  0  0  0
 37 41  2  0  0  0  0
 37 42  1  0  0  0  0
 40 43  2  0  0  0  0
 40 44  1  0  0  0  0
 42 45  1  0  0  0  0
 43 46  1  0  0  0  0
 44 47  2  0  0  0  0
 45 48  1  0  0  0  0
 46 49  2  0  0  0  0
 48 50  1  0  0  0  0
 50 51  1  0  0  0  0
 51 52  1  0  0  0  0
 51 53  1  0  0  0  0
 52 54  1  0  0  0  0
 53 55  1  0  0  0  0
 54 56  1  0  0  0  0
  7  9  1  0  0  0  0
 17 20  1  0  0  0  0
 24 33  1  0  0  0  0
 26 34  1  0  0  0  0
 30 32  2  0  0  0  0
 47 49  1  0  0  0  0
 55 56  1  0  0  0  0
M  END
>  <MolRegNo>
2036077

>  <m>
=

>  <Value>
1100

>  <Unit>
nM

>  <Type>
IC50

>  <pValue>
5.96

>  <Ligand Efficiency>
0.15

>  <Binding Efficiency>
7.81

>  <Surface Efficiency>
4.17

>  <Assay Index>
974120

>  <Assay Category>


>  <Assay Organism>
Homo sapiens

>  <Target ID>
17045

>  <Target Name>
Cytochrome P450 3A4

>  <Target Organism>
Homo sapiens

>  <Target Description>
Target is a single protein chain

>  <Sequence Accession>
P08684

>  <Reference>


>  <Pubmed ID>


>  <DOI>


$$$$
2036078
Actelion Java MolfileCreator 1.0

 57 63  0  0  1  0  0  0  0  0999 V2000
    0.0000   -0.0000   -0.0000 O   0  0  0  0  0  0  0  0  0  0  0  0
   -0.0121    1.2475   -0.0000 C   0  0  0  0  0  0  0  0  0  0  0  0
    1.3081    2.0227   -0.0000 N   0  0  0  0  0  0  0  0  0  0  0  0
   -1.3566    2.0227   -0.0000 C   0  0  0  0  0  0  0  0  0  0  0  0
    1.2960    3.5731   -0.0000 C   0  0  0  0  0  0  0  0  0  0  0  0
    2.6283    1.2718   -0.0000 C   0  0  0  0  0  0  0  0  0  0  0  0
   -1.3687    3.5731   -0.0000 N   0  0  0  0  0  0  0  0  0  0  0  0
   -2.7010    1.2718   -0.0000 C   0  0  0  0  0  0  0  0  0  0  0  0
   -0.0484    4.3482   -0.0000 C   0  0  0  0  0  0  0  0  0  0  0  0
    3.9485    2.0591   -0.0000 C   0  0  0  0  0  0  0  0  0  0  0  0
   -2.7131    4.3482   -0.0000 C   0  0  0  0  0  0  0  0  0  0  0  0
   -4.0454    2.0591   -0.0000 C   0  0  0  0  0  0  0  0  0  0  0  0
   -0.0606    5.8986   -0.0000 N   0  0  0  0  0  0  0  0  0  0  0  0
    5.2688    1.3081   -0.0000 C   0  0  0  0  0  0  0  0  0  0  0  0
    3.9364    3.6094   -0.0000 C   0  0  0  0  0  0  0  0  0  0  0  0
   -3.7911    3.7426   -0.0000 O   0  0  0  0  0  0  0  0  0  0  0  0
   -2.7252    5.8986   -0.0000 C   0  0  0  0  0  0  0  0  0  0  0  0
   -5.3899    1.3081   -0.0000 C   0  0  0  0  0  0  0  0  0  0  0  0
   -4.0575    3.6094   -0.0000 C   0  0  0  0  0  0  0  0  0  0  0  0
   -1.4050    6.6738   -0.0000 N   0  0  0  0  0  0  0  0  0  0  0  0
    1.2597    6.6859   -0.0000 C   0  0  0  0  0  0  0  0  0  0  0  0
    5.5837   -0.1817   -0.0000 N   0  0  0  0  0  0  0  0  0  0  0  0
    6.5890    2.0954   -0.0000 C   0  0  0  0  0  0  0  0  0  0  0  0
    5.2566    4.3967   -0.0000 C   0  0  0  0  0  0  0  0  0  0  0  0
   -6.7343    2.0954   -0.0000 C   0  0  0  0  0  0  0  0  0  0  0  0
   -5.4020    4.3967   -0.0000 C   0  0  0  0  0  0  0  0  0  0  0  0
   -1.4171    8.2241   -0.0000 C   0  0  0  0  0  0  0  0  0  0  0  0
    2.3134    6.0803   -0.0000 O   0  0  0  0  0  0  0  0  0  0  0  0
    1.2475    8.2362   -0.0000 N   0  0  0  0  0  0  0  0  0  0  0  0
    7.0977   -0.3270   -0.0000 C   0  0  0  0  0  0  0  0  0  0  0  0
    4.7479   -1.0901   -0.0000 C   0  0  0  0  0  0  0  0  0  0  0  0
    7.7275    1.0780   -0.0000 C   0  0  0  0  0  0  0  0  0  0  0  0
    6.5769    3.6457   -0.0000 C   0  0  0  0  0  0  0  0  0  0  0  0
   -6.7464    3.6457   -0.0000 C   0  0  0  0  0  0  0  0  0  0  0  0
   -2.7616    8.9993   -0.0000 C   0  0  0  0  0  0  0  0  0  0  0  0
    2.5678    9.0235   -0.0000 C   0  0  0  0  0  0  0  0  0  0  0  0
    9.2173    1.4171   -0.0000 C   0  0  0  0  0  0  0  0  0  0  0  0
   -7.8244    4.2756   -0.0000 O   0  0  0  0  0  0  0  0  0  0  0  0
   -2.7737   10.2468   -0.0000 C   0  0  0  0  0  0  0  0  0  0  0  0
    2.5556   10.5738   -0.0000 C   0  0  0  0  0  0  0  0  0  0  0  0
    9.5807    2.6041   -0.0000 O   0  0  0  0  0  0  0  0  0  0  0  0
   10.2347    0.2907   -0.0000 N   0  0  0  0  0  0  0  0  0  0  0  0
    3.8759   11.3611   -0.0000 C   0  0  0  0  0  0  0  0  0  0  0  0
    1.2112   11.3490   -0.0000 C   0  0  0  0  0  0  0  0  0  0  0  0
   11.7245    0.6298   -0.0000 C   0  0  0  0  0  0  0  0  0  0  0  0
    3.8638   12.9115   -0.0000 C   0  0  0  0  0  0  0  0  0  0  0  0
    1.1991   12.8994   -0.0000 C   0  0  0  0  0  0  0  0  0  0  0  0
   12.7419   -0.4966   -0.0000 C   0  0  0  0  0  0  0  0  0  0  0  0
    2.5193   13.6866   -0.0000 C   0  0  0  0  0  0  0  0  0  0  0  0
   14.2317   -0.1575   -0.0000 C   0  0  0  0  0  0  0  0  0  0  0  0
   15.2491   -1.2839   -0.0000 N   0  0  0  0  0  0  0  0  0  0  0  0
   16.7389   -0.9569   -0.0000 C   0  0  0  0  0  0  0  0  0  0  0  0
   14.7646   -2.7373   -0.0000 C   0  0  0  0  0  0  0  0  0  0  0  0
   17.7563   -2.0833   -0.0000 C   0  0  0  0  0  0  0  0  0  0  0  0
   15.7820   -3.8638   -0.0000 C   0  0  0  0  0  0  0  0  0  0  0  0
   17.2718   -3.5367   -0.0000 N   0  0  0  0  0  0  0  0  0  0  0  0
   18.0833   -4.4330   -0.0000 C   0  0  0  0  0  0  0  0  0  0  0  0
  1  2  2  0  0  0  0
  2  3  1  0  0  0  0
  2  4  1  0  0  0  0
  3  5  1  0  0  0  0
  3  6  1  0  0  0  0
  4  7  1  0  0  0  0
  4  8  1  6  0  0  0
  5  9  1  0  0  0  0
  6 10  1  0  0  0  0
  7 11  1  0  0  0  0
  8 12  1  0  0  0  0
  9 13  1  1  0  0  0
 10 14  2  0  0  0  0
 10 15  1  0  0  0  0
 11 16  2  0  0  0  0
 11 17  1  0  0  0  0
 12 18  2  0  0  0  0
 12 19  1  0  0  0  0
 13 20  1  0  0  0  0
 13 21  1  0  0  0  0
 14 22  1  0  0  0  0
 14 23  1  0  0  0  0
 15 24  2  0  0  0  0
 18 25  1  0  0  0  0
 19 26  2  0  0  0  0
 20 27  1  0  0  0  0
 21 28  2  0  0  0  0
 21 29  1  0  0  0  0
 22 30  1  0  0  0  0
 22 31  1  0  0  0  0
 23 32  1  0  0  0  0
 23 33  2  0  0  0  0
 25 34  2  0  0  0  0
 27 35  1  0  0  0  0
 29 36  1  0  0  0  0
 32 37  1  0  0  0  0
 34 38  1  0  0  0  0
 35 39  2  0  0  0  0
 36 40  1  0  0  0  0
 37 41  2  0  0  0  0
 37 42  1  0  0  0  0
 40 43  2  0  0  0  0
 40 44  1  0  0  0  0
 42 45  1  0  0  0  0
 43 46  1  0  0  0  0
 44 47  2  0  0  0  0
 45 48  1  0  0  0  0
 46 49  2  0  0  0  0
 48 50  1  0  0  0  0
 50 51  1  0  0  0  0
 51 52  1  0  0  0  0
 51 53  1  0  0  0  0
 52 54  1  0  0  0  0
 53 55  1  0  0  0  0
 54 56  1  0  0  0  0
 56 57  1  0  0  0  0
  7  9  1  0  0  0  0
 17 20  1  0  0  0  0
 24 33  1  0  0  0  0
 26 34  1  0  0  0  0
 30 32  2  0  0  0  0
 47 49  1  0  0  0  0
 55 56  1  0  0  0  0
M  END
>  <MolRegNo>
2036078

>  <m>
=

>  <Value>
2540

>  <Unit>
nM

>  <Type>
IC50

>  <pValue>
5.59

>  <Ligand Efficiency>
0.13

>  <Binding Efficiency>
7.21

>  <Surface Efficiency>
4.09

>  <Assay Index>
974120

>  <Assay Category>


>  <Assay Organism>
Homo sapiens

>  <Target ID>
17045

>  <Target Name>
Cytochrome P450 3A4

>  <Target Organism>
Homo sapiens

>  <Target Description>
Target is a single protein chain

>  <Sequence Accession>
P08684

>  <Reference>


>  <Pubmed ID>


>  <DOI>


$$$$
2036079
Actelion Java MolfileCreator 1.0

 58 64  0  0  1  0  0  0  0  0999 V2000
    0.0000   -0.0000   -0.0000 O   0  0  0  0  0  0  0  0  0  0  0  0
   -0.0122    1.2544   -0.0000 C   0  0  0  0  0  0  0  0  0  0  0  0
    1.3153    2.0338   -0.0000 N   0  0  0  0  0  0  0  0  0  0  0  0
   -1.3640    2.0338   -0.0000 C   0  0  0  0  0  0  0  0  0  0  0  0
    1.3031    3.5926   -0.0000 C   0  0  0  0  0  0  0  0  0  0  0  0
    2.6427    1.2787   -0.0000 C   0  0  0  0  0  0  0  0  0  0  0  0
   -1.3762    3.5926   -0.0000 N   0  0  0  0  0  0  0  0  0  0  0  0
   -2.7158    1.2787   -0.0000 C   0  0  0  0  0  0  0  0  0  0  0  0
   -0.0487    4.3720   -0.0000 C   0  0  0  0  0  0  0  0  0  0  0  0
    3.9701    2.0703   -0.0000 C   0  0  0  0  0  0  0  0  0  0  0  0
   -2.7280    4.3720   -0.0000 C   0  0  0  0  0  0  0  0  0  0  0  0
   -4.0676    2.0703   -0.0000 C   0  0  0  0  0  0  0  0  0  0  0  0
   -0.0609    5.9309   -0.0000 N   0  0  0  0  0  0  0  0  0  0  0  0
    5.2976    1.3153   -0.0000 C   0  0  0  0  0  0  0  0  0  0  0  0
    3.9580    3.6292   -0.0000 C   0  0  0  0  0  0  0  0  0  0  0  0
   -3.8118    3.7631   -0.0000 O   0  0  0  0  0  0  0  0  0  0  0  0
   -2.7401    5.9309   -0.0000 C   0  0  0  0  0  0  0  0  0  0  0  0
   -5.4194    1.3153   -0.0000 C   0  0  0  0  0  0  0  0  0  0  0  0
   -4.0798    3.6292   -0.0000 C   0  0  0  0  0  0  0  0  0  0  0  0
   -1.4127    6.7103   -0.0000 N   0  0  0  0  0  0  0  0  0  0  0  0
    1.2666    6.7225   -0.0000 C   0  0  0  0  0  0  0  0  0  0  0  0
    5.6142   -0.1827   -0.0000 N   0  0  0  0  0  0  0  0  0  0  0  0
    6.6250    2.1069   -0.0000 C   0  0  0  0  0  0  0  0  0  0  0  0
    5.2854    4.4207   -0.0000 C   0  0  0  0  0  0  0  0  0  0  0  0
   -6.7712    2.1069   -0.0000 C   0  0  0  0  0  0  0  0  0  0  0  0
   -5.4316    4.4207   -0.0000 C   0  0  0  0  0  0  0  0  0  0  0  0
   -1.4249    8.2691   -0.0000 C   0  0  0  0  0  0  0  0  0  0  0  0
    2.3261    6.1135   -0.0000 O   0  0  0  0  0  0  0  0  0  0  0  0
    1.2544    8.2813   -0.0000 N   0  0  0  0  0  0  0  0  0  0  0  0
    7.1365   -0.3288   -0.0000 C   0  0  0  0  0  0  0  0  0  0  0  0
    4.7739   -1.0961   -0.0000 C   0  0  0  0  0  0  0  0  0  0  0  0
    7.7698    1.0839   -0.0000 C   0  0  0  0  0  0  0  0  0  0  0  0
    6.6129    3.6657   -0.0000 C   0  0  0  0  0  0  0  0  0  0  0  0
   -6.7834    3.6657   -0.0000 C   0  0  0  0  0  0  0  0  0  0  0  0
   -2.7767    9.0485   -0.0000 C   0  0  0  0  0  0  0  0  0  0  0  0
    2.5818    9.0729   -0.0000 C   0  0  0  0  0  0  0  0  0  0  0  0
    9.2677    1.4249   -0.0000 C   0  0  0  0  0  0  0  0  0  0  0  0
   -7.8672    4.2990   -0.0000 O   0  0  0  0  0  0  0  0  0  0  0  0
   -2.7888   10.3029   -0.0000 C   0  0  0  0  0  0  0  0  0  0  0  0
    2.5696   10.6317   -0.0000 C   0  0  0  0  0  0  0  0  0  0  0  0
    9.6331    2.6183   -0.0000 O   0  0  0  0  0  0  0  0  0  0  0  0
   10.2907    0.2923   -0.0000 N   0  0  0  0  0  0  0  0  0  0  0  0
    3.8971   11.4233   -0.0000 C   0  0  0  0  0  0  0  0  0  0  0  0
    1.2178   11.4111   -0.0000 C   0  0  0  0  0  0  0  0  0  0  0  0
   11.7887    0.6333   -0.0000 C   0  0  0  0  0  0  0  0  0  0  0  0
    9.9010   -0.8768   -0.0000 C   0  0  0  0  0  0  0  0  0  0  0  0
    3.8849   12.9821   -0.0000 C   0  0  0  0  0  0  0  0  0  0  0  0
    1.2057   12.9700   -0.0000 C   0  0  0  0  0  0  0  0  0  0  0  0
   12.8116   -0.4993   -0.0000 C   0  0  0  0  0  0  0  0  0  0  0  0
    2.5331   13.7616   -0.0000 C   0  0  0  0  0  0  0  0  0  0  0  0
   12.4219   -1.6684   -0.0000 O   0  0  0  0  0  0  0  0  0  0  0  0
   14.3096   -0.1583   -0.0000 N   0  0  0  0  0  0  0  0  0  0  0  0
   15.3326   -1.2909   -0.0000 C   0  0  0  0  0  0  0  0  0  0  0  0
   14.7724    1.3274   -0.0000 C   0  0  0  0  0  0  0  0  0  0  0  0
   16.8305   -0.9499   -0.0000 C   0  0  0  0  0  0  0  0  0  0  0  0
   16.2703    1.6684   -0.0000 C   0  0  0  0  0  0  0  0  0  0  0  0
   17.2933    0.5358   -0.0000 N   0  0  0  0  0  0  0  0  0  0  0  0
   18.4868    0.8038   -0.0000 C   0  0  0  0  0  0  0  0  0  0  0  0
  1  2  2  0  0  0  0
  2  3  1  0  0  0  0
  2  4  1  0  0  0  0
  3  5  1  0  0  0  0
  3  6  1  0  0  0  0
  4  7  1  0  0  0  0
  4  8  1  6  0  0  0
  5  9  1  0  0  0  0
  6 10  1  0  0  0  0
  7 11  1  0  0  0  0
  8 12  1  0  0  0  0
  9 13  1  1  0  0  0
 10 14  2  0  0  0  0
 10 15  1  0  0  0  0
 11 16  2  0  0  0  0
 11 17  1  0  0  0  0
 12 18  2  0  0  0  0
 12 19  1  0  0  0  0
 13 20  1  0  0  0  0
 13 21  1  0  0  0  0
 14 22  1  0  0  0  0
 14 23  1  0  0  0  0
 15 24  2  0  0  0  0
 18 25  1  0  0  0  0
 19 26  2  0  0  0  0
 20 27  1  0  0  0  0
 21 28  2  0  0  0  0
 21 29  1  0  0  0  0
 22 30  1  0  0  0  0
 22 31  1  0  0  0  0
 23 32  1  0  0  0  0
 23 33  2  0  0  0  0
 25 34  2  0  0  0  0
 27 35  1  0  0  0  0
 29 36  1  0  0  0  0
 32 37  1  0  0  0  0
 34 38  1  0  0  0  0
 35 39  2  0  0  0  0
 36 40  1  0  0  0  0
 37 41  2  0  0  0  0
 37 42  1  0  0  0  0
 40 43  2  0  0  0  0
 40 44  1  0  0  0  0
 42 45  1  0  0  0  0
 42 46  1  0  0  0  0
 43 47  1  0  0  0  0
 44 48  2  0  0  0  0
 45 49  1  0  0  0  0
 47 50  2  0  0  0  0
 49 51  2  0  0  0  0
 49 52  1  0  0  0  0
 52 53  1  0  0  0  0
 52 54  1  0  0  0  0
 53 55  1  0  0  0  0
 54 56  1  0  0  0  0
 55 57  1  0  0  0  0
 57 58  1  0  0  0  0
  7  9  1  0  0  0  0
 17 20  1  0  0  0  0
 24 33  1  0  0  0  0
 26 34  1  0  0  0  0
 30 32  2  0  0  0  0
 48 50  1  0  0  0  0
 56 57  1  0  0  0  0
M  END
>  <MolRegNo>
2036079

>  <m>
=

>  <Value>
5040

>  <Unit>
nM

>  <Type>
IC50

>  <pValue>
5.3

>  <Ligand Efficiency>
0.12

>  <Binding Efficiency>
6.71

>  <Surface Efficiency>
3.65

>  <Assay Index>
974120

>  <Assay Category>


>  <Assay Organism>
Homo sapiens

>  <Target ID>
17045

>  <Target Name>
Cytochrome P450 3A4

>  <Target Organism>
Homo sapiens

>  <Target Description>
Target is a single protein chain

>  <Sequence Accession>
P08684

>  <Reference>


>  <Pubmed ID>


>  <DOI>


$$$$
2036080
Actelion Java MolfileCreator 1.0

 56 62  0  0  1  0  0  0  0  0999 V2000
    0.0000   -0.0000   -0.0000 O   0  0  0  0  0  0  0  0  0  0  0  0
   -0.0122    1.2515   -0.0000 C   0  0  0  0  0  0  0  0  0  0  0  0
    1.3122    2.0291   -0.0000 N   0  0  0  0  0  0  0  0  0  0  0  0
   -1.3608    2.0291   -0.0000 C   0  0  0  0  0  0  0  0  0  0  0  0
    1.3001    3.5844   -0.0000 C   0  0  0  0  0  0  0  0  0  0  0  0
    2.6366    1.2758   -0.0000 C   0  0  0  0  0  0  0  0  0  0  0  0
   -1.3730    3.5844   -0.0000 N   0  0  0  0  0  0  0  0  0  0  0  0
   -2.7095    1.2758   -0.0000 C   0  0  0  0  0  0  0  0  0  0  0  0
   -0.0486    4.3620   -0.0000 C   0  0  0  0  0  0  0  0  0  0  0  0
    3.9610    2.0656   -0.0000 C   0  0  0  0  0  0  0  0  0  0  0  0
   -2.7217    4.3620   -0.0000 C   0  0  0  0  0  0  0  0  0  0  0  0
   -4.0582    2.0656   -0.0000 C   0  0  0  0  0  0  0  0  0  0  0  0
   -0.0608    5.9172   -0.0000 N   0  0  0  0  0  0  0  0  0  0  0  0
    5.2854    1.3122   -0.0000 C   0  0  0  0  0  0  0  0  0  0  0  0
    3.9489    3.6208   -0.0000 C   0  0  0  0  0  0  0  0  0  0  0  0
   -3.8031    3.7545   -0.0000 O   0  0  0  0  0  0  0  0  0  0  0  0
   -2.7338    5.9172   -0.0000 C   0  0  0  0  0  0  0  0  0  0  0  0
   -5.4069    1.3122   -0.0000 C   0  0  0  0  0  0  0  0  0  0  0  0
   -4.0704    3.6208   -0.0000 C   0  0  0  0  0  0  0  0  0  0  0  0
   -1.4094    6.6949   -0.0000 N   0  0  0  0  0  0  0  0  0  0  0  0
    1.2636    6.7070   -0.0000 C   0  0  0  0  0  0  0  0  0  0  0  0
    5.6013   -0.1823   -0.0000 N   0  0  0  0  0  0  0  0  0  0  0  0
    6.6098    2.1020   -0.0000 C   0  0  0  0  0  0  0  0  0  0  0  0
    5.2733    4.4106   -0.0000 C   0  0  0  0  0  0  0  0  0  0  0  0
   -6.7556    2.1020   -0.0000 C   0  0  0  0  0  0  0  0  0  0  0  0
   -5.4191    4.4106   -0.0000 C   0  0  0  0  0  0  0  0  0  0  0  0
   -1.4216    8.2501   -0.0000 C   0  0  0  0  0  0  0  0  0  0  0  0
    2.3207    6.0995   -0.0000 O   0  0  0  0  0  0  0  0  0  0  0  0
    1.2515    8.2623   -0.0000 N   0  0  0  0  0  0  0  0  0  0  0  0
    7.1201   -0.3281   -0.0000 C   0  0  0  0  0  0  0  0  0  0  0  0
    4.7630   -1.0935   -0.0000 C   0  0  0  0  0  0  0  0  0  0  0  0
    7.7520    1.0814   -0.0000 C   0  0  0  0  0  0  0  0  0  0  0  0
    6.5977    3.6573   -0.0000 C   0  0  0  0  0  0  0  0  0  0  0  0
   -6.7678    3.6573   -0.0000 C   0  0  0  0  0  0  0  0  0  0  0  0
   -2.7703    9.0277   -0.0000 C   0  0  0  0  0  0  0  0  0  0  0  0
    2.5759    9.0520   -0.0000 C   0  0  0  0  0  0  0  0  0  0  0  0
    9.2465    1.4216   -0.0000 C   0  0  0  0  0  0  0  0  0  0  0  0
   -7.8492    4.2891   -0.0000 O   0  0  0  0  0  0  0  0  0  0  0  0
   -2.7824   10.2792   -0.0000 C   0  0  0  0  0  0  0  0  0  0  0  0
    2.5637   10.6073   -0.0000 C   0  0  0  0  0  0  0  0  0  0  0  0
    9.6110    2.6123   -0.0000 O   0  0  0  0  0  0  0  0  0  0  0  0
   10.2671    0.2916   -0.0000 N   0  0  0  0  0  0  0  0  0  0  0  0
    3.8881   11.3971   -0.0000 C   0  0  0  0  0  0  0  0  0  0  0  0
    1.2150   11.3849   -0.0000 C   0  0  0  0  0  0  0  0  0  0  0  0
   11.7616    0.6318   -0.0000 C   0  0  0  0  0  0  0  0  0  0  0  0
    9.8783   -0.8748   -0.0000 C   0  0  0  0  0  0  0  0  0  0  0  0
    3.8760   12.9523   -0.0000 C   0  0  0  0  0  0  0  0  0  0  0  0
    1.2029   12.9402   -0.0000 C   0  0  0  0  0  0  0  0  0  0  0  0
   12.7822   -0.4982   -0.0000 C   0  0  0  0  0  0  0  0  0  0  0  0
    2.5273   13.7300   -0.0000 C   0  0  0  0  0  0  0  0  0  0  0  0
   14.2767   -0.1580   -0.0000 N   0  0  0  0  0  0  0  0  0  0  0  0
   15.3946   -1.1786   -0.0000 C   0  0  0  0  0  0  0  0  0  0  0  0
   14.8599    1.2636   -0.0000 C   0  0  0  0  0  0  0  0  0  0  0  0
   16.7190   -0.3888   -0.0000 N   0  0  0  0  0  0  0  0  0  0  0  0
   15.2488   -2.3936   -0.0000 C   0  0  0  0  0  0  0  0  0  0  0  0
   16.3787    1.1178   -0.0000 C   0  0  0  0  0  0  0  0  0  0  0  0
  1  2  2  0  0  0  0
  2  3  1  0  0  0  0
  2  4  1  0  0  0  0
  3  5  1  0  0  0  0
  3  6  1  0  0  0  0
  4  7  1  0  0  0  0
  4  8  1  6  0  0  0
  5  9  1  0  0  0  0
  6 10  1  0  0  0  0
  7 11  1  0  0  0  0
  8 12  1  0  0  0  0
  9 13  1  1  0  0  0
 10 14  2  0  0  0  0
 10 15  1  0  0  0  0
 11 16  2  0  0  0  0
 11 17  1  0  0  0  0
 12 18  2  0  0  0  0
 12 19  1  0  0  0  0
 13 20  1  0  0  0  0
 13 21  1  0  0  0  0
 14 22  1  0  0  0  0
 14 23  1  0  0  0  0
 15 24  2  0  0  0  0
 18 25  1  0  0  0  0
 19 26  2  0  0  0  0
 20 27  1  0  0  0  0
 21 28  2  0  0  0  0
 21 29  1  0  0  0  0
 22 30  1  0  0  0  0
 22 31  1  0  0  0  0
 23 32  1  0  0  0  0
 23 33  2  0  0  0  0
 25 34  2  0  0  0  0
 27 35  1  0  0  0  0
 29 36  1  0  0  0  0
 32 37  1  0  0  0  0
 34 38  1  0  0  0  0
 35 39  2  0  0  0  0
 36 40  1  0  0  0  0
 37 41  2  0  0  0  0
 37 42  1  0  0  0  0
 40 43  2  0  0  0  0
 40 44  1  0  0  0  0
 42 45  1  0  0  0  0
 42 46  1  0  0  0  0
 43 47  1  0  0  0  0
 44 48  2  0  0  0  0
 45 49  1  0  0  0  0
 47 50  2  0  0  0  0
 49 51  1  0  0  0  0
 51 52  1  0  0  0  0
 51 53  1  0  0  0  0
 52 54  2  0  0  0  0
 52 55  1  0  0  0  0
 53 56  2  0  0  0  0
  7  9  1  0  0  0  0
 17 20  1  0  0  0  0
 24 33  1  0  0  0  0
 26 34  1  0  0  0  0
 30 32  2  0  0  0  0
 48 50  1  0  0  0  0
 54 56  1  0  0  0  0
M  END
>  <MolRegNo>
2036080

>  <m>
=

>  <Value>
2480

>  <Unit>
nM

>  <Type>
IC50

>  <pValue>
5.61

>  <Ligand Efficiency>
0.14

>  <Binding Efficiency>
7.4

>  <Surface Efficiency>
4.02

>  <Assay Index>
974120

>  <Assay Category>


>  <Assay Organism>
Homo sapiens

>  <Target ID>
17045

>  <Target Name>
Cytochrome P450 3A4

>  <Target Organism>
Homo sapiens

>  <Target Description>
Target is a single protein chain

>  <Sequence Accession>
P08684

>  <Reference>


>  <Pubmed ID>


>  <DOI>


$$$$
2036081
Actelion Java MolfileCreator 1.0

 57 63  0  0  1  0  0  0  0  0999 V2000
    0.0000   -0.0000   -0.0000 O   0  0  0  0  0  0  0  0  0  0  0  0
   -0.0121    1.2513   -0.0000 C   0  0  0  0  0  0  0  0  0  0  0  0
    1.3121    2.0289   -0.0000 N   0  0  0  0  0  0  0  0  0  0  0  0
   -1.3607    2.0289   -0.0000 C   0  0  0  0  0  0  0  0  0  0  0  0
    1.2999    3.5839   -0.0000 C   0  0  0  0  0  0  0  0  0  0  0  0
    2.6363    1.2756   -0.0000 C   0  0  0  0  0  0  0  0  0  0  0  0
   -1.3728    3.5839   -0.0000 N   0  0  0  0  0  0  0  0  0  0  0  0
   -2.7092    1.2756   -0.0000 C   0  0  0  0  0  0  0  0  0  0  0  0
   -0.0486    4.3614   -0.0000 C   0  0  0  0  0  0  0  0  0  0  0  0
    3.9605    2.0653   -0.0000 C   0  0  0  0  0  0  0  0  0  0  0  0
   -2.7213    4.3614   -0.0000 C   0  0  0  0  0  0  0  0  0  0  0  0
   -4.0577    2.0653   -0.0000 C   0  0  0  0  0  0  0  0  0  0  0  0
   -0.0607    5.9165   -0.0000 N   0  0  0  0  0  0  0  0  0  0  0  0
    5.2847    1.3121   -0.0000 C   0  0  0  0  0  0  0  0  0  0  0  0
    3.9484    3.6203   -0.0000 C   0  0  0  0  0  0  0  0  0  0  0  0
   -3.8026    3.7540   -0.0000 O   0  0  0  0  0  0  0  0  0  0  0  0
   -2.7335    5.9165   -0.0000 C   0  0  0  0  0  0  0  0  0  0  0  0
   -5.4062    1.3121   -0.0000 C   0  0  0  0  0  0  0  0  0  0  0  0
   -4.0699    3.6203   -0.0000 C   0  0  0  0  0  0  0  0  0  0  0  0
   -1.4093    6.6940   -0.0000 N   0  0  0  0  0  0  0  0  0  0  0  0
    1.2635    6.7061   -0.0000 C   0  0  0  0  0  0  0  0  0  0  0  0
    5.6006   -0.1822   -0.0000 N   0  0  0  0  0  0  0  0  0  0  0  0
    6.6090    2.1017   -0.0000 C   0  0  0  0  0  0  0  0  0  0  0  0
    5.2726    4.4100   -0.0000 C   0  0  0  0  0  0  0  0  0  0  0  0
   -6.7547    2.1017   -0.0000 C   0  0  0  0  0  0  0  0  0  0  0  0
   -5.4184    4.4100   -0.0000 C   0  0  0  0  0  0  0  0  0  0  0  0
   -1.4214    8.2490   -0.0000 C   0  0  0  0  0  0  0  0  0  0  0  0
    2.3204    6.0987   -0.0000 O   0  0  0  0  0  0  0  0  0  0  0  0
    1.2513    8.2612   -0.0000 N   0  0  0  0  0  0  0  0  0  0  0  0
    7.1192   -0.3280   -0.0000 C   0  0  0  0  0  0  0  0  0  0  0  0
    4.7623   -1.0934   -0.0000 C   0  0  0  0  0  0  0  0  0  0  0  0
    7.7509    1.0812   -0.0000 C   0  0  0  0  0  0  0  0  0  0  0  0
    6.5968    3.6568   -0.0000 C   0  0  0  0  0  0  0  0  0  0  0  0
   -6.7669    3.6568   -0.0000 C   0  0  0  0  0  0  0  0  0  0  0  0
   -2.7699    9.0266   -0.0000 C   0  0  0  0  0  0  0  0  0  0  0  0
    2.5755    9.0509   -0.0000 C   0  0  0  0  0  0  0  0  0  0  0  0
    9.2452    1.4214   -0.0000 C   0  0  0  0  0  0  0  0  0  0  0  0
   -7.8481    4.2885   -0.0000 O   0  0  0  0  0  0  0  0  0  0  0  0
   -2.7821   10.2779   -0.0000 C   0  0  0  0  0  0  0  0  0  0  0  0
    2.5634   10.6059   -0.0000 C   0  0  0  0  0  0  0  0  0  0  0  0
    9.6097    2.6120   -0.0000 O   0  0  0  0  0  0  0  0  0  0  0  0
   10.2657    0.2916   -0.0000 N   0  0  0  0  0  0  0  0  0  0  0  0
    3.8876   11.3956   -0.0000 C   0  0  0  0  0  0  0  0  0  0  0  0
    1.2149   11.3834   -0.0000 C   0  0  0  0  0  0  0  0  0  0  0  0
   11.7601    0.6317   -0.0000 C   0  0  0  0  0  0  0  0  0  0  0  0
    3.8755   12.9506   -0.0000 C   0  0  0  0  0  0  0  0  0  0  0  0
    1.2027   12.9385   -0.0000 C   0  0  0  0  0  0  0  0  0  0  0  0
   12.7806   -0.4981   -0.0000 C   0  0  0  0  0  0  0  0  0  0  0  0
    2.5270   13.7282   -0.0000 C   0  0  0  0  0  0  0  0  0  0  0  0
   12.2946   -1.9560   -0.0000 C   0  0  0  0  0  0  0  0  0  0  0  0
   14.2749   -0.1701   -0.0000 C   0  0  0  0  0  0  0  0  0  0  0  0
   13.3151   -3.0858   -0.0000 N   0  0  0  0  0  0  0  0  0  0  0  0
   15.2954   -1.2999   -0.0000 C   0  0  0  0  0  0  0  0  0  0  0  0
   14.8094   -2.7578   -0.0000 C   0  0  0  0  0  0  0  0  0  0  0  0
   15.8299   -3.8998   -0.0000 N   0  0  0  0  0  0  0  0  0  0  0  0
   15.4411   -5.0661   -0.0000 C   0  0  0  0  0  0  0  0  0  0  0  0
   17.0205   -3.6325   -0.0000 C   0  0  0  0  0  0  0  0  0  0  0  0
  1  2  2  0  0  0  0
  2  3  1  0  0  0  0
  2  4  1  0  0  0  0
  3  5  1  0  0  0  0
  3  6  1  0  0  0  0
  4  7  1  0  0  0  0
  4  8  1  6  0  0  0
  5  9  1  0  0  0  0
  6 10  1  0  0  0  0
  7 11  1  0  0  0  0
  8 12  1  0  0  0  0
  9 13  1  1  0  0  0
 10 14  2  0  0  0  0
 10 15  1  0  0  0  0
 11 16  2  0  0  0  0
 11 17  1  0  0  0  0
 12 18  2  0  0  0  0
 12 19  1  0  0  0  0
 13 20  1  0  0  0  0
 13 21  1  0  0  0  0
 14 22  1  0  0  0  0
 14 23  1  0  0  0  0
 15 24  2  0  0  0  0
 18 25  1  0  0  0  0
 19 26  2  0  0  0  0
 20 27  1  0  0  0  0
 21 28  2  0  0  0  0
 21 29  1  0  0  0  0
 22 30  1  0  0  0  0
 22 31  1  0  0  0  0
 23 32  1  0  0  0  0
 23 33  2  0  0  0  0
 25 34  2  0  0  0  0
 27 35  1  0  0  0  0
 29 36  1  0  0  0  0
 32 37  1  0  0  0  0
 34 38  1  0  0  0  0
 35 39  2  0  0  0  0
 36 40  1  0  0  0  0
 37 41  2  0  0  0  0
 37 42  1  0  0  0  0
 40 43  2  0  0  0  0
 40 44  1  0  0  0  0
 42 45  1  0  0  0  0
 43 46  1  0  0  0  0
 44 47  2  0  0  0  0
 45 48  1  0  0  0  0
 46 49  2  0  0  0  0
 48 50  2  0  0  0  0
 48 51  1  0  0  0  0
 50 52  1  0  0  0  0
 51 53  2  0  0  0  0
 52 54  2  0  0  0  0
 54 55  1  0  0  0  0
 55 56  1  0  0  0  0
 55 57  1  0  0  0  0
  7  9  1  0  0  0  0
 17 20  1  0  0  0  0
 24 33  1  0  0  0  0
 26 34  1  0  0  0  0
 30 32  2  0  0  0  0
 47 49  1  0  0  0  0
 53 54  1  0  0  0  0
M  END
>  <MolRegNo>
2036081

>  <m>
=

>  <Value>
2050

>  <Unit>
nM

>  <Type>
IC50

>  <pValue>
5.69

>  <Ligand Efficiency>
0.14

>  <Binding Efficiency>
7.39

>  <Surface Efficiency>
3.88

>  <Assay Index>
974120

>  <Assay Category>


>  <Assay Organism>
Homo sapiens

>  <Target ID>
17045

>  <Target Name>
Cytochrome P450 3A4

>  <Target Organism>
Homo sapiens

>  <Target Description>
Target is a single protein chain

>  <Sequence Accession>
P08684

>  <Reference>


>  <Pubmed ID>


>  <DOI>


$$$$
2036082
Actelion Java MolfileCreator 1.0

 57 63  0  0  1  0  0  0  0  0999 V2000
    0.0000   -0.0000   -0.0000 O   0  0  0  0  0  0  0  0  0  0  0  0
   -0.0121    1.2511   -0.0000 C   0  0  0  0  0  0  0  0  0  0  0  0
    1.3118    2.0284   -0.0000 N   0  0  0  0  0  0  0  0  0  0  0  0
   -1.3604    2.0284   -0.0000 C   0  0  0  0  0  0  0  0  0  0  0  0
    1.2997    3.5832   -0.0000 C   0  0  0  0  0  0  0  0  0  0  0  0
    2.6358    1.2754   -0.0000 C   0  0  0  0  0  0  0  0  0  0  0  0
   -1.3725    3.5832   -0.0000 N   0  0  0  0  0  0  0  0  0  0  0  0
   -2.7086    1.2754   -0.0000 C   0  0  0  0  0  0  0  0  0  0  0  0
   -0.0486    4.3605   -0.0000 C   0  0  0  0  0  0  0  0  0  0  0  0
    3.9597    2.0649   -0.0000 C   0  0  0  0  0  0  0  0  0  0  0  0
   -2.7208    4.3605   -0.0000 C   0  0  0  0  0  0  0  0  0  0  0  0
   -4.0569    2.0649   -0.0000 C   0  0  0  0  0  0  0  0  0  0  0  0
   -0.0607    5.9153   -0.0000 N   0  0  0  0  0  0  0  0  0  0  0  0
    5.2837    1.3118   -0.0000 C   0  0  0  0  0  0  0  0  0  0  0  0
    3.9476    3.6196   -0.0000 C   0  0  0  0  0  0  0  0  0  0  0  0
   -3.8018    3.7532   -0.0000 O   0  0  0  0  0  0  0  0  0  0  0  0
   -2.7329    5.9153   -0.0000 C   0  0  0  0  0  0  0  0  0  0  0  0
   -5.4051    1.3118   -0.0000 C   0  0  0  0  0  0  0  0  0  0  0  0
   -4.0690    3.6196   -0.0000 C   0  0  0  0  0  0  0  0  0  0  0  0
   -1.4090    6.6926   -0.0000 N   0  0  0  0  0  0  0  0  0  0  0  0
    1.2632    6.7048   -0.0000 C   0  0  0  0  0  0  0  0  0  0  0  0
    5.5995   -0.1822   -0.0000 N   0  0  0  0  0  0  0  0  0  0  0  0
    6.6076    2.1013   -0.0000 C   0  0  0  0  0  0  0  0  0  0  0  0
    5.2715    4.4091   -0.0000 C   0  0  0  0  0  0  0  0  0  0  0  0
   -6.7534    2.1013   -0.0000 C   0  0  0  0  0  0  0  0  0  0  0  0
   -5.4173    4.4091   -0.0000 C   0  0  0  0  0  0  0  0  0  0  0  0
   -1.4211    8.2474   -0.0000 C   0  0  0  0  0  0  0  0  0  0  0  0
    2.3200    6.0975   -0.0000 O   0  0  0  0  0  0  0  0  0  0  0  0
    1.2511    8.2595   -0.0000 N   0  0  0  0  0  0  0  0  0  0  0  0
    7.1178   -0.3280   -0.0000 C   0  0  0  0  0  0  0  0  0  0  0  0
    4.7614   -1.0932   -0.0000 C   0  0  0  0  0  0  0  0  0  0  0  0
    7.7494    1.0810   -0.0000 C   0  0  0  0  0  0  0  0  0  0  0  0
    6.5955    3.6560   -0.0000 C   0  0  0  0  0  0  0  0  0  0  0  0
   -6.7655    3.6560   -0.0000 C   0  0  0  0  0  0  0  0  0  0  0  0
   -2.7694    9.0247   -0.0000 C   0  0  0  0  0  0  0  0  0  0  0  0
    2.5750    9.0490   -0.0000 C   0  0  0  0  0  0  0  0  0  0  0  0
    9.2434    1.4211   -0.0000 C   0  0  0  0  0  0  0  0  0  0  0  0
   -7.8465    4.2877   -0.0000 O   0  0  0  0  0  0  0  0  0  0  0  0
   -2.7815   10.2758   -0.0000 C   0  0  0  0  0  0  0  0  0  0  0  0
    2.5629   10.6038   -0.0000 C   0  0  0  0  0  0  0  0  0  0  0  0
    9.6078    2.6115   -0.0000 O   0  0  0  0  0  0  0  0  0  0  0  0
   10.2637    0.2915   -0.0000 N   0  0  0  0  0  0  0  0  0  0  0  0
    3.8868   11.3933   -0.0000 C   0  0  0  0  0  0  0  0  0  0  0  0
    1.2146   11.3811   -0.0000 C   0  0  0  0  0  0  0  0  0  0  0  0
   11.7577    0.6316   -0.0000 C   0  0  0  0  0  0  0  0  0  0  0  0
    3.8747   12.9480   -0.0000 C   0  0  0  0  0  0  0  0  0  0  0  0
    1.2025   12.9358   -0.0000 C   0  0  0  0  0  0  0  0  0  0  0  0
   12.7779   -0.4980   -0.0000 C   0  0  0  0  0  0  0  0  0  0  0  0
    2.5264   13.7254   -0.0000 C   0  0  0  0  0  0  0  0  0  0  0  0
   14.2719   -0.1700   -0.0000 C   0  0  0  0  0  0  0  0  0  0  0  0
   12.2921   -1.9556   -0.0000 C   0  0  0  0  0  0  0  0  0  0  0  0
   15.2922   -1.2997   -0.0000 C   0  0  0  0  0  0  0  0  0  0  0  0
   13.3124   -3.0852   -0.0000 C   0  0  0  0  0  0  0  0  0  0  0  0
   14.8064   -2.7572   -0.0000 N   0  0  0  0  0  0  0  0  0  0  0  0
   16.7862   -0.9717   -0.0000 N   0  0  0  0  0  0  0  0  0  0  0  0
   17.6000   -1.8827   -0.0000 C   0  0  0  0  0  0  0  0  0  0  0  0
   17.1628    0.2186   -0.0000 C   0  0  0  0  0  0  0  0  0  0  0  0
  1  2  2  0  0  0  0
  2  3  1  0  0  0  0
  2  4  1  0  0  0  0
  3  5  1  0  0  0  0
  3  6  1  0  0  0  0
  4  7  1  0  0  0  0
  4  8  1  6  0  0  0
  5  9  1  0  0  0  0
  6 10  1  0  0  0  0
  7 11  1  0  0  0  0
  8 12  1  0  0  0  0
  9 13  1  1  0  0  0
 10 14  2  0  0  0  0
 10 15  1  0  0  0  0
 11 16  2  0  0  0  0
 11 17  1  0  0  0  0
 12 18  2  0  0  0  0
 12 19  1  0  0  0  0
 13 20  1  0  0  0  0
 13 21  1  0  0  0  0
 14 22  1  0  0  0  0
 14 23  1  0  0  0  0
 15 24  2  0  0  0  0
 18 25  1  0  0  0  0
 19 26  2  0  0  0  0
 20 27  1  0  0  0  0
 21 28  2  0  0  0  0
 21 29  1  0  0  0  0
 22 30  1  0  0  0  0
 22 31  1  0  0  0  0
 23 32  1  0  0  0  0
 23 33  2  0  0  0  0
 25 34  2  0  0  0  0
 27 35  1  0  0  0  0
 29 36  1  0  0  0  0
 32 37  1  0  0  0  0
 34 38  1  0  0  0  0
 35 39  2  0  0  0  0
 36 40  1  0  0  0  0
 37 41  2  0  0  0  0
 37 42  1  0  0  0  0
 40 43  2  0  0  0  0
 40 44  1  0  0  0  0
 42 45  1  0  0  0  0
 43 46  1  0  0  0  0
 44 47  2  0  0  0  0
 45 48  1  0  0  0  0
 46 49  2  0  0  0  0
 48 50  2  0  0  0  0
 48 51  1  0  0  0  0
 50 52  1  0  0  0  0
 51 53  2  0  0  0  0
 52 54  2  0  0  0  0
 52 55  1  0  0  0  0
 55 56  1  0  0  0  0
 55 57  1  0  0  0  0
  7  9  1  0  0  0  0
 17 20  1  0  0  0  0
 24 33  1  0  0  0  0
 26 34  1  0  0  0  0
 30 32  2  0  0  0  0
 47 49  1  0  0  0  0
 53 54  1  0  0  0  0
M  END
>  <MolRegNo>
2036082

>  <m>
=

>  <Value>
2180

>  <Unit>
nM

>  <Type>
IC50

>  <pValue>
5.66

>  <Ligand Efficiency>
0.14

>  <Binding Efficiency>
7.35

>  <Surface Efficiency>
3.86

>  <Assay Index>
974120

>  <Assay Category>


>  <Assay Organism>
Homo sapiens

>  <Target ID>
17045

>  <Target Name>
Cytochrome P450 3A4

>  <Target Organism>
Homo sapiens

>  <Target Description>
Target is a single protein chain

>  <Sequence Accession>
P08684

>  <Reference>


>  <Pubmed ID>


>  <DOI>


$$$$
2036083
Actelion Java MolfileCreator 1.0

 50 55  0  0  1  0  0  0  0  0999 V2000
    0.0000   -0.0000   -0.0000 O   0  0  0  0  0  0  0  0  0  0  0  0
   -0.0122    1.2550   -0.0000 C   0  0  0  0  0  0  0  0  0  0  0  0
    1.3159    2.0348   -0.0000 N   0  0  0  0  0  0  0  0  0  0  0  0
   -1.3646    2.0348   -0.0000 C   0  0  0  0  0  0  0  0  0  0  0  0
    1.3037    3.5943   -0.0000 C   0  0  0  0  0  0  0  0  0  0  0  0
    2.6440    1.2793   -0.0000 C   0  0  0  0  0  0  0  0  0  0  0  0
   -1.3768    3.5943   -0.0000 N   0  0  0  0  0  0  0  0  0  0  0  0
   -2.7171    1.2793   -0.0000 C   0  0  0  0  0  0  0  0  0  0  0  0
   -0.0487    4.3741   -0.0000 C   0  0  0  0  0  0  0  0  0  0  0  0
    3.9721    2.0713   -0.0000 C   0  0  0  0  0  0  0  0  0  0  0  0
   -2.7293    4.3741   -0.0000 C   0  0  0  0  0  0  0  0  0  0  0  0
   -4.0695    2.0713   -0.0000 C   0  0  0  0  0  0  0  0  0  0  0  0
   -0.0609    5.9337   -0.0000 N   0  0  0  0  0  0  0  0  0  0  0  0
    5.3001    1.3159   -0.0000 C   0  0  0  0  0  0  0  0  0  0  0  0
    3.9599    3.6309   -0.0000 C   0  0  0  0  0  0  0  0  0  0  0  0
   -3.8137    3.7649   -0.0000 O   0  0  0  0  0  0  0  0  0  0  0  0
   -2.7414    5.9337   -0.0000 C   0  0  0  0  0  0  0  0  0  0  0  0
   -5.4220    1.3159   -0.0000 C   0  0  0  0  0  0  0  0  0  0  0  0
   -4.0817    3.6309   -0.0000 C   0  0  0  0  0  0  0  0  0  0  0  0
   -1.4134    6.7135   -0.0000 N   0  0  0  0  0  0  0  0  0  0  0  0
    1.2672    6.7257   -0.0000 C   0  0  0  0  0  0  0  0  0  0  0  0
    5.6169   -0.1828   -0.0000 N   0  0  0  0  0  0  0  0  0  0  0  0
    6.6282    2.1079   -0.0000 C   0  0  0  0  0  0  0  0  0  0  0  0
    5.2879    4.4229   -0.0000 C   0  0  0  0  0  0  0  0  0  0  0  0
   -6.7744    2.1079   -0.0000 C   0  0  0  0  0  0  0  0  0  0  0  0
   -5.4342    4.4229   -0.0000 C   0  0  0  0  0  0  0  0  0  0  0  0
   -1.4256    8.2731   -0.0000 C   0  0  0  0  0  0  0  0  0  0  0  0
    2.3272    6.1165   -0.0000 O   0  0  0  0  0  0  0  0  0  0  0  0
    1.2550    8.2853   -0.0000 N   0  0  0  0  0  0  0  0  0  0  0  0
    7.1399   -0.3290   -0.0000 C   0  0  0  0  0  0  0  0  0  0  0  0
    4.7762   -1.0966   -0.0000 C   0  0  0  0  0  0  0  0  0  0  0  0
    7.7735    1.0844   -0.0000 C   0  0  0  0  0  0  0  0  0  0  0  0
    6.6160    3.6674   -0.0000 C   0  0  0  0  0  0  0  0  0  0  0  0
   -6.7866    3.6674   -0.0000 C   0  0  0  0  0  0  0  0  0  0  0  0
   -2.7780    9.0529   -0.0000 C   0  0  0  0  0  0  0  0  0  0  0  0
    2.5831    9.0772   -0.0000 C   0  0  0  0  0  0  0  0  0  0  0  0
    9.2722    1.4256   -0.0000 C   0  0  0  0  0  0  0  0  0  0  0  0
   -7.8710    4.3010   -0.0000 O   0  0  0  0  0  0  0  0  0  0  0  0
   -2.7902   10.3078   -0.0000 C   0  0  0  0  0  0  0  0  0  0  0  0
    2.5709   10.6368   -0.0000 C   0  0  0  0  0  0  0  0  0  0  0  0
    9.6377    2.6196   -0.0000 O   0  0  0  0  0  0  0  0  0  0  0  0
   10.2957    0.2924   -0.0000 N   0  0  0  0  0  0  0  0  0  0  0  0
    3.8989   11.4288   -0.0000 C   0  0  0  0  0  0  0  0  0  0  0  0
    1.2184   11.4166   -0.0000 C   0  0  0  0  0  0  0  0  0  0  0  0
   11.7943    0.6336   -0.0000 N   0  0  0  0  0  0  0  0  0  0  0  0
    9.9058   -0.8773   -0.0000 C   0  0  0  0  0  0  0  0  0  0  0  0
    3.8868   12.9884   -0.0000 C   0  0  0  0  0  0  0  0  0  0  0  0
    1.2062   12.9762   -0.0000 C   0  0  0  0  0  0  0  0  0  0  0  0
   12.6107   -0.2681   -0.0000 C   0  0  0  0  0  0  0  0  0  0  0  0
    2.5343   13.7682   -0.0000 C   0  0  0  0  0  0  0  0  0  0  0  0
  1  2  2  0  0  0  0
  2  3  1  0  0  0  0
  2  4  1  0  0  0  0
  3  5  1  0  0  0  0
  3  6  1  0  0  0  0
  4  7  1  0  0  0  0
  4  8  1  6  0  0  0
  5  9  1  0  0  0  0
  6 10  1  0  0  0  0
  7 11  1  0  0  0  0
  8 12  1  0  0  0  0
  9 13  1  1  0  0  0
 10 14  2  0  0  0  0
 10 15  1  0  0  0  0
 11 16  2  0  0  0  0
 11 17  1  0  0  0  0
 12 18  2  0  0  0  0
 12 19  1  0  0  0  0
 13 20  1  0  0  0  0
 13 21  1  0  0  0  0
 14 22  1  0  0  0  0
 14 23  1  0  0  0  0
 15 24  2  0  0  0  0
 18 25  1  0  0  0  0
 19 26  2  0  0  0  0
 20 27  1  0  0  0  0
 21 28  2  0  0  0  0
 21 29  1  0  0  0  0
 22 30  1  0  0  0  0
 22 31  1  0  0  0  0
 23 32  1  0  0  0  0
 23 33  2  0  0  0  0
 25 34  2  0  0  0  0
 27 35  1  0  0  0  0
 29 36  1  0  0  0  0
 32 37  1  0  0  0  0
 34 38  1  0  0  0  0
 35 39  2  0  0  0  0
 36 40  1  0  0  0  0
 37 41  2  0  0  0  0
 37 42  1  0  0  0  0
 40 43  2  0  0  0  0
 40 44  1  0  0  0  0
 42 45  1  0  0  0  0
 42 46  1  0  0  0  0
 43 47  1  0  0  0  0
 44 48  2  0  0  0  0
 45 49  1  0  0  0  0
 47 50  2  0  0  0  0
  7  9  1  0  0  0  0
 17 20  1  0  0  0  0
 24 33  1  0  0  0  0
 26 34  1  0  0  0  0
 30 32  2  0  0  0  0
 48 50  1  0  0  0  0
M  END
>  <MolRegNo>
2036083

>  <m>
=

>  <Value>
2330

>  <Unit>
nM

>  <Type>
IC50

>  <pValue>
5.63

>  <Ligand Efficiency>
0.15

>  <Binding Efficiency>
8.3

>  <Surface Efficiency>
4.21

>  <Assay Index>
974120

>  <Assay Category>


>  <Assay Organism>
Homo sapiens

>  <Target ID>
17045

>  <Target Name>
Cytochrome P450 3A4

>  <Target Organism>
Homo sapiens

>  <Target Description>
Target is a single protein chain

>  <Sequence Accession>
P08684

>  <Reference>


>  <Pubmed ID>


>  <DOI>


$$$$
2036084
Actelion Java MolfileCreator 1.0

 54 59  0  0  1  0  0  0  0  0999 V2000
    0.0000   -0.0000   -0.0000 O   0  0  0  0  0  0  0  0  0  0  0  0
   -0.0122    1.2529   -0.0000 C   0  0  0  0  0  0  0  0  0  0  0  0
    1.3138    2.0315   -0.0000 N   0  0  0  0  0  0  0  0  0  0  0  0
   -1.3624    2.0315   -0.0000 C   0  0  0  0  0  0  0  0  0  0  0  0
    1.3016    3.5885   -0.0000 C   0  0  0  0  0  0  0  0  0  0  0  0
    2.6397    1.2773   -0.0000 C   0  0  0  0  0  0  0  0  0  0  0  0
   -1.3746    3.5885   -0.0000 N   0  0  0  0  0  0  0  0  0  0  0  0
   -2.7127    1.2773   -0.0000 C   0  0  0  0  0  0  0  0  0  0  0  0
   -0.0487    4.3670   -0.0000 C   0  0  0  0  0  0  0  0  0  0  0  0
    3.9656    2.0680   -0.0000 C   0  0  0  0  0  0  0  0  0  0  0  0
   -2.7248    4.3670   -0.0000 C   0  0  0  0  0  0  0  0  0  0  0  0
   -4.0629    2.0680   -0.0000 C   0  0  0  0  0  0  0  0  0  0  0  0
   -0.0608    5.9241   -0.0000 N   0  0  0  0  0  0  0  0  0  0  0  0
    5.2915    1.3138   -0.0000 C   0  0  0  0  0  0  0  0  0  0  0  0
    3.9535    3.6250   -0.0000 C   0  0  0  0  0  0  0  0  0  0  0  0
   -3.8075    3.7588   -0.0000 O   0  0  0  0  0  0  0  0  0  0  0  0
   -2.7370    5.9241   -0.0000 C   0  0  0  0  0  0  0  0  0  0  0  0
   -5.4132    1.3138   -0.0000 C   0  0  0  0  0  0  0  0  0  0  0  0
   -4.0751    3.6250   -0.0000 C   0  0  0  0  0  0  0  0  0  0  0  0
   -1.4111    6.7026   -0.0000 N   0  0  0  0  0  0  0  0  0  0  0  0
    1.2651    6.7148   -0.0000 C   0  0  0  0  0  0  0  0  0  0  0  0
    5.6078   -0.1825   -0.0000 N   0  0  0  0  0  0  0  0  0  0  0  0
    6.6175    2.1045   -0.0000 C   0  0  0  0  0  0  0  0  0  0  0  0
    5.2794    4.4157   -0.0000 C   0  0  0  0  0  0  0  0  0  0  0  0
   -6.7634    2.1045   -0.0000 C   0  0  0  0  0  0  0  0  0  0  0  0
   -5.4254    4.4157   -0.0000 C   0  0  0  0  0  0  0  0  0  0  0  0
   -1.4232    8.2597   -0.0000 C   0  0  0  0  0  0  0  0  0  0  0  0
    2.3234    6.1066   -0.0000 O   0  0  0  0  0  0  0  0  0  0  0  0
    1.2529    8.2718   -0.0000 N   0  0  0  0  0  0  0  0  0  0  0  0
    7.1284   -0.3284   -0.0000 C   0  0  0  0  0  0  0  0  0  0  0  0
    4.7685   -1.0948   -0.0000 C   0  0  0  0  0  0  0  0  0  0  0  0
    7.7609    1.0826   -0.0000 C   0  0  0  0  0  0  0  0  0  0  0  0
    6.6053    3.6615   -0.0000 C   0  0  0  0  0  0  0  0  0  0  0  0
   -6.7756    3.6615   -0.0000 C   0  0  0  0  0  0  0  0  0  0  0  0
   -2.7735    9.0382   -0.0000 C   0  0  0  0  0  0  0  0  0  0  0  0
    2.5789    9.0625   -0.0000 C   0  0  0  0  0  0  0  0  0  0  0  0
    9.2572    1.4232   -0.0000 C   0  0  0  0  0  0  0  0  0  0  0  0
   -7.8582    4.2941   -0.0000 O   0  0  0  0  0  0  0  0  0  0  0  0
   -2.7857   10.2911   -0.0000 C   0  0  0  0  0  0  0  0  0  0  0  0
    2.5667   10.6196   -0.0000 C   0  0  0  0  0  0  0  0  0  0  0  0
    9.6221    2.6154   -0.0000 O   0  0  0  0  0  0  0  0  0  0  0  0
   10.2790    0.2919   -0.0000 N   0  0  0  0  0  0  0  0  0  0  0  0
    3.8926   11.4103   -0.0000 C   0  0  0  0  0  0  0  0  0  0  0  0
    1.2164   11.3981   -0.0000 C   0  0  0  0  0  0  0  0  0  0  0  0
   11.7752    0.6326   -0.0000 N   0  0  0  0  0  0  0  0  0  0  0  0
    3.8805   12.9673   -0.0000 C   0  0  0  0  0  0  0  0  0  0  0  0
    1.2043   12.9552   -0.0000 C   0  0  0  0  0  0  0  0  0  0  0  0
   12.7970   -0.4987   -0.0000 C   0  0  0  0  0  0  0  0  0  0  0  0
    2.5302   13.7458   -0.0000 C   0  0  0  0  0  0  0  0  0  0  0  0
   14.2932   -0.1581   -0.0000 C   0  0  0  0  0  0  0  0  0  0  0  0
   14.6582    1.0340   -0.0000 O   0  0  0  0  0  0  0  0  0  0  0  0
   15.3151   -1.2894   -0.0000 O   0  0  0  0  0  0  0  0  0  0  0  0
   16.8113   -0.9488   -0.0000 C   0  0  0  0  0  0  0  0  0  0  0  0
   17.6263   -1.8490   -0.0000 C   0  0  0  0  0  0  0  0  0  0  0  0
  1  2  2  0  0  0  0
  2  3  1  0  0  0  0
  2  4  1  0  0  0  0
  3  5  1  0  0  0  0
  3  6  1  0  0  0  0
  4  7  1  0  0  0  0
  4  8  1  6  0  0  0
  5  9  1  0  0  0  0
  6 10  1  0  0  0  0
  7 11  1  0  0  0  0
  8 12  1  0  0  0  0
  9 13  1  1  0  0  0
 10 14  2  0  0  0  0
 10 15  1  0  0  0  0
 11 16  2  0  0  0  0
 11 17  1  0  0  0  0
 12 18  2  0  0  0  0
 12 19  1  0  0  0  0
 13 20  1  0  0  0  0
 13 21  1  0  0  0  0
 14 22  1  0  0  0  0
 14 23  1  0  0  0  0
 15 24  2  0  0  0  0
 18 25  1  0  0  0  0
 19 26  2  0  0  0  0
 20 27  1  0  0  0  0
 21 28  2  0  0  0  0
 21 29  1  0  0  0  0
 22 30  1  0  0  0  0
 22 31  1  0  0  0  0
 23 32  1  0  0  0  0
 23 33  2  0  0  0  0
 25 34  2  0  0  0  0
 27 35  1  0  0  0  0
 29 36  1  0  0  0  0
 32 37  1  0  0  0  0
 34 38  1  0  0  0  0
 35 39  2  0  0  0  0
 36 40  1  0  0  0  0
 37 41  2  0  0  0  0
 37 42  1  0  0  0  0
 40 43  2  0  0  0  0
 40 44  1  0  0  0  0
 42 45  1  0  0  0  0
 43 46  1  0  0  0  0
 44 47  2  0  0  0  0
 45 48  1  0  0  0  0
 46 49  2  0  0  0  0
 48 50  1  0  0  0  0
 50 51  2  0  0  0  0
 50 52  1  0  0  0  0
 52 53  1  0  0  0  0
 53 54  1  0  0  0  0
  7  9  1  0  0  0  0
 17 20  1  0  0  0  0
 24 33  1  0  0  0  0
 26 34  1  0  0  0  0
 30 32  2  0  0  0  0
 47 49  1  0  0  0  0
M  END
>  <MolRegNo>
2036084

>  <m>
=

>  <Value>
6150

>  <Unit>
nM

>  <Type>
IC50

>  <pValue>
5.21

>  <Ligand Efficiency>
0.13

>  <Binding Efficiency>
7.07

>  <Surface Efficiency>
3.09

>  <Assay Index>
974120

>  <Assay Category>


>  <Assay Organism>
Homo sapiens

>  <Target ID>
17045

>  <Target Name>
Cytochrome P450 3A4

>  <Target Organism>
Homo sapiens

>  <Target Description>
Target is a single protein chain

>  <Sequence Accession>
P08684

>  <Reference>


>  <Pubmed ID>


>  <DOI>


$$$$
2036085
Actelion Java MolfileCreator 1.0

 52 58  0  0  1  0  0  0  0  0999 V2000
    0.0000   -0.0000   -0.0000 O   0  0  0  0  0  0  0  0  0  0  0  0
   -0.0121    1.2445   -0.0000 C   0  0  0  0  0  0  0  0  0  0  0  0
    1.3049    2.0177   -0.0000 N   0  0  0  0  0  0  0  0  0  0  0  0
   -1.3532    2.0177   -0.0000 C   0  0  0  0  0  0  0  0  0  0  0  0
    1.2928    3.5642   -0.0000 C   0  0  0  0  0  0  0  0  0  0  0  0
    2.6218    1.2686   -0.0000 C   0  0  0  0  0  0  0  0  0  0  0  0
   -1.3653    3.5642   -0.0000 N   0  0  0  0  0  0  0  0  0  0  0  0
   -2.6943    1.2686   -0.0000 C   0  0  0  0  0  0  0  0  0  0  0  0
   -0.0483    4.3375   -0.0000 C   0  0  0  0  0  0  0  0  0  0  0  0
    3.9388    2.0540   -0.0000 C   0  0  0  0  0  0  0  0  0  0  0  0
   -2.7064    4.3375   -0.0000 C   0  0  0  0  0  0  0  0  0  0  0  0
   -4.0354    2.0540   -0.0000 C   0  0  0  0  0  0  0  0  0  0  0  0
   -0.0604    5.8840   -0.0000 N   0  0  0  0  0  0  0  0  0  0  0  0
    5.2557    1.3049   -0.0000 C   0  0  0  0  0  0  0  0  0  0  0  0
    3.9267    3.6005   -0.0000 C   0  0  0  0  0  0  0  0  0  0  0  0
   -3.7817    3.7334   -0.0000 O   0  0  0  0  0  0  0  0  0  0  0  0
   -2.7185    5.8840   -0.0000 C   0  0  0  0  0  0  0  0  0  0  0  0
   -5.3766    1.3049   -0.0000 C   0  0  0  0  0  0  0  0  0  0  0  0
   -4.0475    3.6005   -0.0000 C   0  0  0  0  0  0  0  0  0  0  0  0
   -1.4015    6.6573   -0.0000 N   0  0  0  0  0  0  0  0  0  0  0  0
    1.2565    6.6694   -0.0000 C   0  0  0  0  0  0  0  0  0  0  0  0
    5.5699   -0.1812   -0.0000 N   0  0  0  0  0  0  0  0  0  0  0  0
    6.5727    2.0902   -0.0000 C   0  0  0  0  0  0  0  0  0  0  0  0
    5.2437    4.3858   -0.0000 C   0  0  0  0  0  0  0  0  0  0  0  0
   -6.7177    2.0902   -0.0000 C   0  0  0  0  0  0  0  0  0  0  0  0
   -5.3886    4.3858   -0.0000 C   0  0  0  0  0  0  0  0  0  0  0  0
   -1.4136    8.2038   -0.0000 C   0  0  0  0  0  0  0  0  0  0  0  0
    2.3077    6.0653   -0.0000 O   0  0  0  0  0  0  0  0  0  0  0  0
    1.2445    8.2159   -0.0000 N   0  0  0  0  0  0  0  0  0  0  0  0
    7.0802   -0.3262   -0.0000 C   0  0  0  0  0  0  0  0  0  0  0  0
    4.7362   -1.0874   -0.0000 C   0  0  0  0  0  0  0  0  0  0  0  0
    7.7084    1.0753   -0.0000 C   0  0  0  0  0  0  0  0  0  0  0  0
    6.5606    3.6367   -0.0000 C   0  0  0  0  0  0  0  0  0  0  0  0
   -6.7298    3.6367   -0.0000 C   0  0  0  0  0  0  0  0  0  0  0  0
   -2.7547    8.9771   -0.0000 C   0  0  0  0  0  0  0  0  0  0  0  0
    2.5614    9.0012   -0.0000 C   0  0  0  0  0  0  0  0  0  0  0  0
    9.1945    1.4136   -0.0000 C   0  0  0  0  0  0  0  0  0  0  0  0
   -7.8051    4.2650   -0.0000 O   0  0  0  0  0  0  0  0  0  0  0  0
   -2.7668   10.2215   -0.0000 C   0  0  0  0  0  0  0  0  0  0  0  0
    2.5493   10.5477   -0.0000 C   0  0  0  0  0  0  0  0  0  0  0  0
    9.5570    2.5977   -0.0000 O   0  0  0  0  0  0  0  0  0  0  0  0
   10.2094    0.2900   -0.0000 N   0  0  0  0  0  0  0  0  0  0  0  0
    3.8663   11.3331   -0.0000 C   0  0  0  0  0  0  0  0  0  0  0  0
    1.2082   11.3210   -0.0000 C   0  0  0  0  0  0  0  0  0  0  0  0
   11.6955    0.6283   -0.0000 N   0  0  0  0  0  0  0  0  0  0  0  0
    3.8542   12.8796   -0.0000 C   0  0  0  0  0  0  0  0  0  0  0  0
    1.1961   12.8675   -0.0000 C   0  0  0  0  0  0  0  0  0  0  0  0
   12.8071   -0.3866   -0.0000 C   0  0  0  0  0  0  0  0  0  0  0  0
   12.2755    2.0419   -0.0000 C   0  0  0  0  0  0  0  0  0  0  0  0
    2.5131   13.6529   -0.0000 C   0  0  0  0  0  0  0  0  0  0  0  0
   14.1241    0.3987   -0.0000 C   0  0  0  0  0  0  0  0  0  0  0  0
   13.7858    1.8969   -0.0000 C   0  0  0  0  0  0  0  0  0  0  0  0
  1  2  2  0  0  0  0
  2  3  1  0  0  0  0
  2  4  1  0  0  0  0
  3  5  1  0  0  0  0
  3  6  1  0  0  0  0
  4  7  1  0  0  0  0
  4  8  1  6  0  0  0
  5  9  1  0  0  0  0
  6 10  1  0  0  0  0
  7 11  1  0  0  0  0
  8 12  1  0  0  0  0
  9 13  1  1  0  0  0
 10 14  2  0  0  0  0
 10 15  1  0  0  0  0
 11 16  2  0  0  0  0
 11 17  1  0  0  0  0
 12 18  2  0  0  0  0
 12 19  1  0  0  0  0
 13 20  1  0  0  0  0
 13 21  1  0  0  0  0
 14 22  1  0  0  0  0
 14 23  1  0  0  0  0
 15 24  2  0  0  0  0
 18 25  1  0  0  0  0
 19 26  2  0  0  0  0
 20 27  1  0  0  0  0
 21 28  2  0  0  0  0
 21 29  1  0  0  0  0
 22 30  1  0  0  0  0
 22 31  1  0  0  0  0
 23 32  1  0  0  0  0
 23 33  2  0  0  0  0
 25 34  2  0  0  0  0
 27 35  1  0  0  0  0
 29 36  1  0  0  0  0
 32 37  1  0  0  0  0
 34 38  1  0  0  0  0
 35 39  2  0  0  0  0
 36 40  1  0  0  0  0
 37 41  2  0  0  0  0
 37 42  1  0  0  0  0
 40 43  2  0  0  0  0
 40 44  1  0  0  0  0
 42 45  1  0  0  0  0
 43 46  1  0  0  0  0
 44 47  2  0  0  0  0
 45 48  1  0  0  0  0
 45 49  1  0  0  0  0
 46 50  2  0  0  0  0
 48 51  1  0  0  0  0
 49 52  1  0  0  0  0
  7  9  1  0  0  0  0
 17 20  1  0  0  0  0
 24 33  1  0  0  0  0
 26 34  1  0  0  0  0
 30 32  2  0  0  0  0
 47 50  1  0  0  0  0
 51 52  1  0  0  0  0
M  END
>  <MolRegNo>
2036085

>  <m>
=

>  <Value>
17440

>  <Unit>
nM

>  <Type>
IC50

>  <pValue>
4.76

>  <Ligand Efficiency>
0.12

>  <Binding Efficiency>
6.75

>  <Surface Efficiency>
3.56

>  <Assay Index>
974120

>  <Assay Category>


>  <Assay Organism>
Homo sapiens

>  <Target ID>
17045

>  <Target Name>
Cytochrome P450 3A4

>  <Target Organism>
Homo sapiens

>  <Target Description>
Target is a single protein chain

>  <Sequence Accession>
P08684

>  <Reference>


>  <Pubmed ID>


>  <DOI>


$$$$
2036086
Actelion Java MolfileCreator 1.0

 53 59  0  0  1  0  0  0  0  0999 V2000
    0.0000   -0.0000   -0.0000 O   0  0  0  0  0  0  0  0  0  0  0  0
   -0.0121    1.2438   -0.0000 C   0  0  0  0  0  0  0  0  0  0  0  0
    1.3042    2.0167   -0.0000 N   0  0  0  0  0  0  0  0  0  0  0  0
   -1.3525    2.0167   -0.0000 C   0  0  0  0  0  0  0  0  0  0  0  0
    1.2921    3.5624   -0.0000 C   0  0  0  0  0  0  0  0  0  0  0  0
    2.6205    1.2680   -0.0000 C   0  0  0  0  0  0  0  0  0  0  0  0
   -1.3646    3.5624   -0.0000 N   0  0  0  0  0  0  0  0  0  0  0  0
   -2.6930    1.2680   -0.0000 C   0  0  0  0  0  0  0  0  0  0  0  0
   -0.0483    4.3353   -0.0000 C   0  0  0  0  0  0  0  0  0  0  0  0
    3.9368    2.0529   -0.0000 C   0  0  0  0  0  0  0  0  0  0  0  0
   -2.7050    4.3353   -0.0000 C   0  0  0  0  0  0  0  0  0  0  0  0
   -4.0334    2.0529   -0.0000 C   0  0  0  0  0  0  0  0  0  0  0  0
   -0.0604    5.8811   -0.0000 N   0  0  0  0  0  0  0  0  0  0  0  0
    5.2531    1.3042   -0.0000 C   0  0  0  0  0  0  0  0  0  0  0  0
    3.9247    3.5987   -0.0000 C   0  0  0  0  0  0  0  0  0  0  0  0
   -3.7798    3.7315   -0.0000 O   0  0  0  0  0  0  0  0  0  0  0  0
   -2.7171    5.8811   -0.0000 C   0  0  0  0  0  0  0  0  0  0  0  0
   -5.3739    1.3042   -0.0000 C   0  0  0  0  0  0  0  0  0  0  0  0
   -4.0455    3.5987   -0.0000 C   0  0  0  0  0  0  0  0  0  0  0  0
   -1.4008    6.6539   -0.0000 N   0  0  0  0  0  0  0  0  0  0  0  0
    1.2559    6.6660   -0.0000 C   0  0  0  0  0  0  0  0  0  0  0  0
    5.5671   -0.1811   -0.0000 N   0  0  0  0  0  0  0  0  0  0  0  0
    6.5694    2.0892   -0.0000 C   0  0  0  0  0  0  0  0  0  0  0  0
    5.2410    4.3836   -0.0000 C   0  0  0  0  0  0  0  0  0  0  0  0
   -6.7143    2.0892   -0.0000 C   0  0  0  0  0  0  0  0  0  0  0  0
   -5.3859    4.3836   -0.0000 C   0  0  0  0  0  0  0  0  0  0  0  0
   -1.4129    8.1997   -0.0000 C   0  0  0  0  0  0  0  0  0  0  0  0
    2.3065    6.0622   -0.0000 O   0  0  0  0  0  0  0  0  0  0  0  0
    1.2438    8.2117   -0.0000 N   0  0  0  0  0  0  0  0  0  0  0  0
    7.0766   -0.3261   -0.0000 C   0  0  0  0  0  0  0  0  0  0  0  0
    4.7338   -1.0868   -0.0000 C   0  0  0  0  0  0  0  0  0  0  0  0
    7.7045    1.0748   -0.0000 C   0  0  0  0  0  0  0  0  0  0  0  0
    6.5573    3.6349   -0.0000 C   0  0  0  0  0  0  0  0  0  0  0  0
   -6.7264    3.6349   -0.0000 C   0  0  0  0  0  0  0  0  0  0  0  0
   -2.7533    8.9725   -0.0000 C   0  0  0  0  0  0  0  0  0  0  0  0
    2.5601    8.9967   -0.0000 C   0  0  0  0  0  0  0  0  0  0  0  0
    9.1899    1.4129   -0.0000 C   0  0  0  0  0  0  0  0  0  0  0  0
   -7.8011    4.2629   -0.0000 O   0  0  0  0  0  0  0  0  0  0  0  0
   -2.7654   10.2164   -0.0000 C   0  0  0  0  0  0  0  0  0  0  0  0
    2.5481   10.5424   -0.0000 C   0  0  0  0  0  0  0  0  0  0  0  0
    9.5522    2.5964   -0.0000 O   0  0  0  0  0  0  0  0  0  0  0  0
   10.2043    0.2898   -0.0000 N   0  0  0  0  0  0  0  0  0  0  0  0
    3.8643   11.3274   -0.0000 C   0  0  0  0  0  0  0  0  0  0  0  0
    1.2076   11.3153   -0.0000 C   0  0  0  0  0  0  0  0  0  0  0  0
   11.6896    0.6280   -0.0000 N   0  0  0  0  0  0  0  0  0  0  0  0
    3.8523   12.8731   -0.0000 C   0  0  0  0  0  0  0  0  0  0  0  0
    1.1955   12.8610   -0.0000 C   0  0  0  0  0  0  0  0  0  0  0  0
   12.7040   -0.4951   -0.0000 C   0  0  0  0  0  0  0  0  0  0  0  0
   12.1485    2.1012   -0.0000 C   0  0  0  0  0  0  0  0  0  0  0  0
    2.5118   13.6460   -0.0000 C   0  0  0  0  0  0  0  0  0  0  0  0
   14.1894   -0.1570   -0.0000 C   0  0  0  0  0  0  0  0  0  0  0  0
   13.6339    2.4394   -0.0000 C   0  0  0  0  0  0  0  0  0  0  0  0
   14.6483    1.3163   -0.0000 C   0  0  0  0  0  0  0  0  0  0  0  0
  1  2  2  0  0  0  0
  2  3  1  0  0  0  0
  2  4  1  0  0  0  0
  3  5  1  0  0  0  0
  3  6  1  0  0  0  0
  4  7  1  0  0  0  0
  4  8  1  6  0  0  0
  5  9  1  0  0  0  0
  6 10  1  0  0  0  0
  7 11  1  0  0  0  0
  8 12  1  0  0  0  0
  9 13  1  1  0  0  0
 10 14  2  0  0  0  0
 10 15  1  0  0  0  0
 11 16  2  0  0  0  0
 11 17  1  0  0  0  0
 12 18  2  0  0  0  0
 12 19  1  0  0  0  0
 13 20  1  0  0  0  0
 13 21  1  0  0  0  0
 14 22  1  0  0  0  0
 14 23  1  0  0  0  0
 15 24  2  0  0  0  0
 18 25  1  0  0  0  0
 19 26  2  0  0  0  0
 20 27  1  0  0  0  0
 21 28  2  0  0  0  0
 21 29  1  0  0  0  0
 22 30  1  0  0  0  0
 22 31  1  0  0  0  0
 23 32  1  0  0  0  0
 23 33  2  0  0  0  0
 25 34  2  0  0  0  0
 27 35  1  0  0  0  0
 29 36  1  0  0  0  0
 32 37  1  0  0  0  0
 34 38  1  0  0  0  0
 35 39  2  0  0  0  0
 36 40  1  0  0  0  0
 37 41  2  0  0  0  0
 37 42  1  0  0  0  0
 40 43  2  0  0  0  0
 40 44  1  0  0  0  0
 42 45  1  0  0  0  0
 43 46  1  0  0  0  0
 44 47  2  0  0  0  0
 45 48  1  0  0  0  0
 45 49  1  0  0  0  0
 46 50  2  0  0  0  0
 48 51  1  0  0  0  0
 49 52  1  0  0  0  0
 51 53  1  0  0  0  0
  7  9  1  0  0  0  0
 17 20  1  0  0  0  0
 24 33  1  0  0  0  0
 26 34  1  0  0  0  0
 30 32  2  0  0  0  0
 47 50  1  0  0  0  0
 52 53  1  0  0  0  0
M  END
>  <MolRegNo>
2036086

>  <m>
=

>  <Value>
4780

>  <Unit>
nM

>  <Type>
IC50

>  <pValue>
5.32

>  <Ligand Efficiency>
0.14

>  <Binding Efficiency>
7.4

>  <Surface Efficiency>
3.98

>  <Assay Index>
974120

>  <Assay Category>


>  <Assay Organism>
Homo sapiens

>  <Target ID>
17045

>  <Target Name>
Cytochrome P450 3A4

>  <Target Organism>
Homo sapiens

>  <Target Description>
Target is a single protein chain

>  <Sequence Accession>
P08684

>  <Reference>


>  <Pubmed ID>


>  <DOI>


$$$$
2036087
Actelion Java MolfileCreator 1.0

 53 59  0  0  1  0  0  0  0  0999 V2000
    0.0000   -0.0000   -0.0000 O   0  0  0  0  0  0  0  0  0  0  0  0
   -0.0121    1.2438   -0.0000 C   0  0  0  0  0  0  0  0  0  0  0  0
    1.3042    2.0167   -0.0000 N   0  0  0  0  0  0  0  0  0  0  0  0
   -1.3525    2.0167   -0.0000 C   0  0  0  0  0  0  0  0  0  0  0  0
    1.2921    3.5624   -0.0000 C   0  0  0  0  0  0  0  0  0  0  0  0
    2.6205    1.2680   -0.0000 C   0  0  0  0  0  0  0  0  0  0  0  0
   -1.3646    3.5624   -0.0000 N   0  0  0  0  0  0  0  0  0  0  0  0
   -2.6930    1.2680   -0.0000 C   0  0  0  0  0  0  0  0  0  0  0  0
   -0.0483    4.3353   -0.0000 C   0  0  0  0  0  0  0  0  0  0  0  0
    3.9368    2.0529   -0.0000 C   0  0  0  0  0  0  0  0  0  0  0  0
   -2.7050    4.3353   -0.0000 C   0  0  0  0  0  0  0  0  0  0  0  0
   -4.0334    2.0529   -0.0000 C   0  0  0  0  0  0  0  0  0  0  0  0
   -0.0604    5.8811   -0.0000 N   0  0  0  0  0  0  0  0  0  0  0  0
    5.2531    1.3042   -0.0000 C   0  0  0  0  0  0  0  0  0  0  0  0
    3.9247    3.5987   -0.0000 C   0  0  0  0  0  0  0  0  0  0  0  0
   -3.7798    3.7315   -0.0000 O   0  0  0  0  0  0  0  0  0  0  0  0
   -2.7171    5.8811   -0.0000 C   0  0  0  0  0  0  0  0  0  0  0  0
   -5.3739    1.3042   -0.0000 C   0  0  0  0  0  0  0  0  0  0  0  0
   -4.0455    3.5987   -0.0000 C   0  0  0  0  0  0  0  0  0  0  0  0
   -1.4008    6.6539   -0.0000 N   0  0  0  0  0  0  0  0  0  0  0  0
    1.2559    6.6660   -0.0000 C   0  0  0  0  0  0  0  0  0  0  0  0
    5.5671   -0.1811   -0.0000 N   0  0  0  0  0  0  0  0  0  0  0  0
    6.5694    2.0892   -0.0000 C   0  0  0  0  0  0  0  0  0  0  0  0
    5.2410    4.3836   -0.0000 C   0  0  0  0  0  0  0  0  0  0  0  0
   -6.7143    2.0892   -0.0000 C   0  0  0  0  0  0  0  0  0  0  0  0
   -5.3859    4.3836   -0.0000 C   0  0  0  0  0  0  0  0  0  0  0  0
   -1.4129    8.1997   -0.0000 C   0  0  0  0  0  0  0  0  0  0  0  0
    2.3065    6.0622   -0.0000 O   0  0  0  0  0  0  0  0  0  0  0  0
    1.2438    8.2117   -0.0000 N   0  0  0  0  0  0  0  0  0  0  0  0
    7.0766   -0.3261   -0.0000 C   0  0  0  0  0  0  0  0  0  0  0  0
    4.7338   -1.0868   -0.0000 C   0  0  0  0  0  0  0  0  0  0  0  0
    7.7045    1.0748   -0.0000 C   0  0  0  0  0  0  0  0  0  0  0  0
    6.5573    3.6349   -0.0000 C   0  0  0  0  0  0  0  0  0  0  0  0
   -6.7264    3.6349   -0.0000 C   0  0  0  0  0  0  0  0  0  0  0  0
   -2.7533    8.9725   -0.0000 C   0  0  0  0  0  0  0  0  0  0  0  0
    2.5601    8.9967   -0.0000 C   0  0  0  0  0  0  0  0  0  0  0  0
    9.1899    1.4129   -0.0000 C   0  0  0  0  0  0  0  0  0  0  0  0
   -7.8011    4.2629   -0.0000 O   0  0  0  0  0  0  0  0  0  0  0  0
   -2.7654   10.2164   -0.0000 C   0  0  0  0  0  0  0  0  0  0  0  0
    2.5481   10.5424   -0.0000 C   0  0  0  0  0  0  0  0  0  0  0  0
    9.5522    2.5964   -0.0000 O   0  0  0  0  0  0  0  0  0  0  0  0
   10.2043    0.2898   -0.0000 N   0  0  0  0  0  0  0  0  0  0  0  0
    3.8643   11.3274   -0.0000 C   0  0  0  0  0  0  0  0  0  0  0  0
    1.2076   11.3153   -0.0000 C   0  0  0  0  0  0  0  0  0  0  0  0
   11.6896    0.6280   -0.0000 N   0  0  0  0  0  0  0  0  0  0  0  0
    3.8523   12.8731   -0.0000 C   0  0  0  0  0  0  0  0  0  0  0  0
    1.1955   12.8610   -0.0000 C   0  0  0  0  0  0  0  0  0  0  0  0
   12.7040   -0.4951   -0.0000 C   0  0  0  0  0  0  0  0  0  0  0  0
   12.1485    2.1012   -0.0000 C   0  0  0  0  0  0  0  0  0  0  0  0
    2.5118   13.6460   -0.0000 C   0  0  0  0  0  0  0  0  0  0  0  0
   14.1894   -0.1570   -0.0000 C   0  0  0  0  0  0  0  0  0  0  0  0
   13.6339    2.4394   -0.0000 C   0  0  0  0  0  0  0  0  0  0  0  0
   14.6483    1.3163   -0.0000 O   0  0  0  0  0  0  0  0  0  0  0  0
  1  2  2  0  0  0  0
  2  3  1  0  0  0  0
  2  4  1  0  0  0  0
  3  5  1  0  0  0  0
  3  6  1  0  0  0  0
  4  7  1  0  0  0  0
  4  8  1  6  0  0  0
  5  9  1  0  0  0  0
  6 10  1  0  0  0  0
  7 11  1  0  0  0  0
  8 12  1  0  0  0  0
  9 13  1  1  0  0  0
 10 14  2  0  0  0  0
 10 15  1  0  0  0  0
 11 16  2  0  0  0  0
 11 17  1  0  0  0  0
 12 18  2  0  0  0  0
 12 19  1  0  0  0  0
 13 20  1  0  0  0  0
 13 21  1  0  0  0  0
 14 22  1  0  0  0  0
 14 23  1  0  0  0  0
 15 24  2  0  0  0  0
 18 25  1  0  0  0  0
 19 26  2  0  0  0  0
 20 27  1  0  0  0  0
 21 28  2  0  0  0  0
 21 29  1  0  0  0  0
 22 30  1  0  0  0  0
 22 31  1  0  0  0  0
 23 32  1  0  0  0  0
 23 33  2  0  0  0  0
 25 34  2  0  0  0  0
 27 35  1  0  0  0  0
 29 36  1  0  0  0  0
 32 37  1  0  0  0  0
 34 38  1  0  0  0  0
 35 39  2  0  0  0  0
 36 40  1  0  0  0  0
 37 41  2  0  0  0  0
 37 42  1  0  0  0  0
 40 43  2  0  0  0  0
 40 44  1  0  0  0  0
 42 45  1  0  0  0  0
 43 46  1  0  0  0  0
 44 47  2  0  0  0  0
 45 48  1  0  0  0  0
 45 49  1  0  0  0  0
 46 50  2  0  0  0  0
 48 51  1  0  0  0  0
 49 52  1  0  0  0  0
 51 53  1  0  0  0  0
  7  9  1  0  0  0  0
 17 20  1  0  0  0  0
 24 33  1  0  0  0  0
 26 34  1  0  0  0  0
 30 32  2  0  0  0  0
 47 50  1  0  0  0  0
 52 53  1  0  0  0  0
M  END
>  <MolRegNo>
2036087

>  <m>
=

>  <Value>
22290

>  <Unit>
nM

>  <Type>
IC50

>  <pValue>
4.65

>  <Ligand Efficiency>
0.12

>  <Binding Efficiency>
6.45

>  <Surface Efficiency>
3.25

>  <Assay Index>
974120

>  <Assay Category>


>  <Assay Organism>
Homo sapiens

>  <Target ID>
17045

>  <Target Name>
Cytochrome P450 3A4

>  <Target Organism>
Homo sapiens

>  <Target Description>
Target is a single protein chain

>  <Sequence Accession>
P08684

>  <Reference>


>  <Pubmed ID>


>  <DOI>


$$$$
2036088
Actelion Java MolfileCreator 1.0

 58 65  0  0  1  0  0  0  0  0999 V2000
    0.0000   -0.0000   -0.0000 O   0  0  0  0  0  0  0  0  0  0  0  0
   -0.0121    1.2421   -0.0000 C   0  0  0  0  0  0  0  0  0  0  0  0
    1.3024    2.0138   -0.0000 N   0  0  0  0  0  0  0  0  0  0  0  0
   -1.3506    2.0138   -0.0000 C   0  0  0  0  0  0  0  0  0  0  0  0
    1.2903    3.5574   -0.0000 C   0  0  0  0  0  0  0  0  0  0  0  0
    2.6168    1.2662   -0.0000 C   0  0  0  0  0  0  0  0  0  0  0  0
   -1.3627    3.5574   -0.0000 N   0  0  0  0  0  0  0  0  0  0  0  0
   -2.6891    1.2662   -0.0000 C   0  0  0  0  0  0  0  0  0  0  0  0
   -0.0482    4.3291   -0.0000 C   0  0  0  0  0  0  0  0  0  0  0  0
    3.9312    2.0500   -0.0000 C   0  0  0  0  0  0  0  0  0  0  0  0
   -2.7012    4.3291   -0.0000 C   0  0  0  0  0  0  0  0  0  0  0  0
   -4.0277    2.0500   -0.0000 C   0  0  0  0  0  0  0  0  0  0  0  0
   -0.0603    5.8727   -0.0000 N   0  0  0  0  0  0  0  0  0  0  0  0
    5.2456    1.3024   -0.0000 C   0  0  0  0  0  0  0  0  0  0  0  0
    3.9191    3.5935   -0.0000 C   0  0  0  0  0  0  0  0  0  0  0  0
   -3.7744    3.7262   -0.0000 O   0  0  0  0  0  0  0  0  0  0  0  0
   -2.7132    5.8727   -0.0000 C   0  0  0  0  0  0  0  0  0  0  0  0
   -5.3662    1.3024   -0.0000 C   0  0  0  0  0  0  0  0  0  0  0  0
   -4.0397    3.5935   -0.0000 C   0  0  0  0  0  0  0  0  0  0  0  0
   -1.3988    6.6444   -0.0000 N   0  0  0  0  0  0  0  0  0  0  0  0
    1.2541    6.6565   -0.0000 C   0  0  0  0  0  0  0  0  0  0  0  0
    5.5591   -0.1809   -0.0000 N   0  0  0  0  0  0  0  0  0  0  0  0
    6.5600    2.0862   -0.0000 C   0  0  0  0  0  0  0  0  0  0  0  0
    5.2336    4.3774   -0.0000 C   0  0  0  0  0  0  0  0  0  0  0  0
   -6.7047    2.0862   -0.0000 C   0  0  0  0  0  0  0  0  0  0  0  0
   -5.3783    4.3774   -0.0000 C   0  0  0  0  0  0  0  0  0  0  0  0
   -1.4109    8.1880   -0.0000 C   0  0  0  0  0  0  0  0  0  0  0  0
    2.3032    6.0536   -0.0000 O   0  0  0  0  0  0  0  0  0  0  0  0
    1.2421    8.2000   -0.0000 N   0  0  0  0  0  0  0  0  0  0  0  0
    7.0665   -0.3256   -0.0000 C   0  0  0  0  0  0  0  0  0  0  0  0
    4.7271   -1.0853   -0.0000 C   0  0  0  0  0  0  0  0  0  0  0  0
    7.6936    1.0732   -0.0000 C   0  0  0  0  0  0  0  0  0  0  0  0
    6.5480    3.6297   -0.0000 C   0  0  0  0  0  0  0  0  0  0  0  0
   -6.7168    3.6297   -0.0000 C   0  0  0  0  0  0  0  0  0  0  0  0
   -2.7494    8.9597   -0.0000 C   0  0  0  0  0  0  0  0  0  0  0  0
    2.5565    8.9839   -0.0000 C   0  0  0  0  0  0  0  0  0  0  0  0
    9.1768    1.4109   -0.0000 C   0  0  0  0  0  0  0  0  0  0  0  0
   -7.7900    4.2568   -0.0000 O   0  0  0  0  0  0  0  0  0  0  0  0
   -2.7615   10.2018   -0.0000 C   0  0  0  0  0  0  0  0  0  0  0  0
    2.5444   10.5274   -0.0000 C   0  0  0  0  0  0  0  0  0  0  0  0
    9.5386    2.5927   -0.0000 O   0  0  0  0  0  0  0  0  0  0  0  0
   10.1897    0.2894   -0.0000 N   0  0  0  0  0  0  0  0  0  0  0  0
    3.8588   11.3112   -0.0000 C   0  0  0  0  0  0  0  0  0  0  0  0
    1.2059   11.2992   -0.0000 C   0  0  0  0  0  0  0  0  0  0  0  0
   11.6730    0.6271   -0.0000 N   0  0  0  0  0  0  0  0  0  0  0  0
    3.8468   12.8548   -0.0000 C   0  0  0  0  0  0  0  0  0  0  0  0
    1.1938   12.8427   -0.0000 C   0  0  0  0  0  0  0  0  0  0  0  0
   12.6859   -0.4944   -0.0000 C   0  0  0  0  0  0  0  0  0  0  0  0
   12.1312    2.0982   -0.0000 C   0  0  0  0  0  0  0  0  0  0  0  0
    2.5082   13.6265   -0.0000 C   0  0  0  0  0  0  0  0  0  0  0  0
   14.1692   -0.1568   -0.0000 C   0  0  0  0  0  0  0  0  0  0  0  0
   13.6145    2.4359   -0.0000 C   0  0  0  0  0  0  0  0  0  0  0  0
   14.6274    1.3144   -0.0000 N   0  0  0  0  0  0  0  0  0  0  0  0
   16.1107    1.6521   -0.0000 C   0  0  0  0  0  0  0  0  0  0  0  0
   17.2201    0.6391   -0.0000 C   0  0  0  0  0  0  0  0  0  0  0  0
   16.6895    3.0630   -0.0000 C   0  0  0  0  0  0  0  0  0  0  0  0
   18.5345    1.4229   -0.0000 C   0  0  0  0  0  0  0  0  0  0  0  0
   18.1968    2.9182   -0.0000 C   0  0  0  0  0  0  0  0  0  0  0  0
  1  2  2  0  0  0  0
  2  3  1  0  0  0  0
  2  4  1  0  0  0  0
  3  5  1  0  0  0  0
  3  6  1  0  0  0  0
  4  7  1  0  0  0  0
  4  8  1  6  0  0  0
  5  9  1  0  0  0  0
  6 10  1  0  0  0  0
  7 11  1  0  0  0  0
  8 12  1  0  0  0  0
  9 13  1  1  0  0  0
 10 14  2  0  0  0  0
 10 15  1  0  0  0  0
 11 16  2  0  0  0  0
 11 17  1  0  0  0  0
 12 18  2  0  0  0  0
 12 19  1  0  0  0  0
 13 20  1  0  0  0  0
 13 21  1  0  0  0  0
 14 22  1  0  0  0  0
 14 23  1  0  0  0  0
 15 24  2  0  0  0  0
 18 25  1  0  0  0  0
 19 26  2  0  0  0  0
 20 27  1  0  0  0  0
 21 28  2  0  0  0  0
 21 29  1  0  0  0  0
 22 30  1  0  0  0  0
 22 31  1  0  0  0  0
 23 32  1  0  0  0  0
 23 33  2  0  0  0  0
 25 34  2  0  0  0  0
 27 35  1  0  0  0  0
 29 36  1  0  0  0  0
 32 37  1  0  0  0  0
 34 38  1  0  0  0  0
 35 39  2  0  0  0  0
 36 40  1  0  0  0  0
 37 41  2  0  0  0  0
 37 42  1  0  0  0  0
 40 43  2  0  0  0  0
 40 44  1  0  0  0  0
 42 45  1  0  0  0  0
 43 46  1  0  0  0  0
 44 47  2  0  0  0  0
 45 48  1  0  0  0  0
 45 49  1  0  0  0  0
 46 50  2  0  0  0  0
 48 51  1  0  0  0  0
 49 52  1  0  0  0  0
 51 53  1  0  0  0  0
 53 54  1  0  0  0  0
 54 55  1  0  0  0  0
 54 56  1  0  0  0  0
 55 57  1  0  0  0  0
 56 58  1  0  0  0  0
  7  9  1  0  0  0  0
 17 20  1  0  0  0  0
 24 33  1  0  0  0  0
 26 34  1  0  0  0  0
 30 32  2  0  0  0  0
 47 50  1  0  0  0  0
 52 53  1  0  0  0  0
 57 58  1  0  0  0  0
M  END
>  <MolRegNo>
2036088

>  <m>
=

>  <Value>
2390

>  <Unit>
nM

>  <Type>
IC50

>  <pValue>
5.62

>  <Ligand Efficiency>
0.13

>  <Binding Efficiency>
7.13

>  <Surface Efficiency>
4.11

>  <Assay Index>
974120

>  <Assay Category>


>  <Assay Organism>
Homo sapiens

>  <Target ID>
17045

>  <Target Name>
Cytochrome P450 3A4

>  <Target Organism>
Homo sapiens

>  <Target Description>
Target is a single protein chain

>  <Sequence Accession>
P08684

>  <Reference>


>  <Pubmed ID>


>  <DOI>


$$$$
2036089
Actelion Java MolfileCreator 1.0

 54 60  0  0  1  0  0  0  0  0999 V2000
    0.0000   -0.0000   -0.0000 O   0  0  0  0  0  0  0  0  0  0  0  0
   -0.0121    1.2442   -0.0000 C   0  0  0  0  0  0  0  0  0  0  0  0
    1.3046    2.0172   -0.0000 N   0  0  0  0  0  0  0  0  0  0  0  0
   -1.3529    2.0172   -0.0000 C   0  0  0  0  0  0  0  0  0  0  0  0
    1.2925    3.5634   -0.0000 C   0  0  0  0  0  0  0  0  0  0  0  0
    2.6212    1.2683   -0.0000 C   0  0  0  0  0  0  0  0  0  0  0  0
   -1.3649    3.5634   -0.0000 N   0  0  0  0  0  0  0  0  0  0  0  0
   -2.6937    1.2683   -0.0000 C   0  0  0  0  0  0  0  0  0  0  0  0
   -0.0483    4.3364   -0.0000 C   0  0  0  0  0  0  0  0  0  0  0  0
    3.9378    2.0535   -0.0000 C   0  0  0  0  0  0  0  0  0  0  0  0
   -2.7057    4.3364   -0.0000 C   0  0  0  0  0  0  0  0  0  0  0  0
   -4.0344    2.0535   -0.0000 C   0  0  0  0  0  0  0  0  0  0  0  0
   -0.0604    5.8826   -0.0000 N   0  0  0  0  0  0  0  0  0  0  0  0
    5.2544    1.3046   -0.0000 C   0  0  0  0  0  0  0  0  0  0  0  0
    3.9257    3.5996   -0.0000 C   0  0  0  0  0  0  0  0  0  0  0  0
   -3.7808    3.7325   -0.0000 O   0  0  0  0  0  0  0  0  0  0  0  0
   -2.7178    5.8826   -0.0000 C   0  0  0  0  0  0  0  0  0  0  0  0
   -5.3752    1.3046   -0.0000 C   0  0  0  0  0  0  0  0  0  0  0  0
   -4.0465    3.5996   -0.0000 C   0  0  0  0  0  0  0  0  0  0  0  0
   -1.4012    6.6556   -0.0000 N   0  0  0  0  0  0  0  0  0  0  0  0
    1.2562    6.6677   -0.0000 C   0  0  0  0  0  0  0  0  0  0  0  0
    5.5685   -0.1812   -0.0000 N   0  0  0  0  0  0  0  0  0  0  0  0
    6.5711    2.0897   -0.0000 C   0  0  0  0  0  0  0  0  0  0  0  0
    5.2424    4.3847   -0.0000 C   0  0  0  0  0  0  0  0  0  0  0  0
   -6.7160    2.0897   -0.0000 C   0  0  0  0  0  0  0  0  0  0  0  0
   -5.3873    4.3847   -0.0000 C   0  0  0  0  0  0  0  0  0  0  0  0
   -1.4133    8.2018   -0.0000 C   0  0  0  0  0  0  0  0  0  0  0  0
    2.3071    6.0637   -0.0000 O   0  0  0  0  0  0  0  0  0  0  0  0
    1.2442    8.2138   -0.0000 N   0  0  0  0  0  0  0  0  0  0  0  0
    7.0784   -0.3261   -0.0000 C   0  0  0  0  0  0  0  0  0  0  0  0
    4.7350   -1.0871   -0.0000 C   0  0  0  0  0  0  0  0  0  0  0  0
    7.7065    1.0750   -0.0000 C   0  0  0  0  0  0  0  0  0  0  0  0
    6.5590    3.6358   -0.0000 C   0  0  0  0  0  0  0  0  0  0  0  0
   -6.7281    3.6358   -0.0000 C   0  0  0  0  0  0  0  0  0  0  0  0
   -2.7541    8.9748   -0.0000 C   0  0  0  0  0  0  0  0  0  0  0  0
    2.5608    8.9990   -0.0000 C   0  0  0  0  0  0  0  0  0  0  0  0
    9.1923    1.4133   -0.0000 C   0  0  0  0  0  0  0  0  0  0  0  0
   -7.8031    4.2639   -0.0000 O   0  0  0  0  0  0  0  0  0  0  0  0
   -2.7661   10.2190   -0.0000 C   0  0  0  0  0  0  0  0  0  0  0  0
    2.5487   10.5451   -0.0000 C   0  0  0  0  0  0  0  0  0  0  0  0
    9.5546    2.5970   -0.0000 O   0  0  0  0  0  0  0  0  0  0  0  0
   10.2069    0.2899   -0.0000 N   0  0  0  0  0  0  0  0  0  0  0  0
    3.8653   11.3303   -0.0000 C   0  0  0  0  0  0  0  0  0  0  0  0
    1.2079   11.3182   -0.0000 C   0  0  0  0  0  0  0  0  0  0  0  0
   11.6926    0.6281   -0.0000 N   0  0  0  0  0  0  0  0  0  0  0  0
    3.8533   12.8764   -0.0000 C   0  0  0  0  0  0  0  0  0  0  0  0
    1.1958   12.8643   -0.0000 C   0  0  0  0  0  0  0  0  0  0  0  0
   12.7073   -0.4952   -0.0000 C   0  0  0  0  0  0  0  0  0  0  0  0
    2.5125   13.6495   -0.0000 C   0  0  0  0  0  0  0  0  0  0  0  0
   14.1930   -0.1691   -0.0000 C   0  0  0  0  0  0  0  0  0  0  0  0
   12.2241   -1.9447   -0.0000 C   0  0  0  0  0  0  0  0  0  0  0  0
   15.2077   -1.2925   -0.0000 C   0  0  0  0  0  0  0  0  0  0  0  0
   13.2388   -3.0681   -0.0000 C   0  0  0  0  0  0  0  0  0  0  0  0
   14.7245   -2.7420   -0.0000 C   0  0  0  0  0  0  0  0  0  0  0  0
  1  2  2  0  0  0  0
  2  3  1  0  0  0  0
  2  4  1  0  0  0  0
  3  5  1  0  0  0  0
  3  6  1  0  0  0  0
  4  7  1  0  0  0  0
  4  8  1  6  0  0  0
  5  9  1  0  0  0  0
  6 10  1  0  0  0  0
  7 11  1  0  0  0  0
  8 12  1  0  0  0  0
  9 13  1  1  0  0  0
 10 14  2  0  0  0  0
 10 15  1  0  0  0  0
 11 16  2  0  0  0  0
 11 17  1  0  0  0  0
 12 18  2  0  0  0  0
 12 19  1  0  0  0  0
 13 20  1  0  0  0  0
 13 21  1  0  0  0  0
 14 22  1  0  0  0  0
 14 23  1  0  0  0  0
 15 24  2  0  0  0  0
 18 25  1  0  0  0  0
 19 26  2  0  0  0  0
 20 27  1  0  0  0  0
 21 28  2  0  0  0  0
 21 29  1  0  0  0  0
 22 30  1  0  0  0  0
 22 31  1  0  0  0  0
 23 32  1  0  0  0  0
 23 33  2  0  0  0  0
 25 34  2  0  0  0  0
 27 35  1  0  0  0  0
 29 36  1  0  0  0  0
 32 37  1  0  0  0  0
 34 38  1  0  0  0  0
 35 39  2  0  0  0  0
 36 40  1  0  0  0  0
 37 41  2  0  0  0  0
 37 42  1  0  0  0  0
 40 43  2  0  0  0  0
 40 44  1  0  0  0  0
 42 45  1  0  0  0  0
 43 46  1  0  0  0  0
 44 47  2  0  0  0  0
 45 48  1  0  0  0  0
 46 49  2  0  0  0  0
 48 50  2  0  0  0  0
 48 51  1  0  0  0  0
 50 52  1  0  0  0  0
 51 53  2  0  0  0  0
 52 54  2  0  0  0  0
  7  9  1  0  0  0  0
 17 20  1  0  0  0  0
 24 33  1  0  0  0  0
 26 34  1  0  0  0  0
 30 32  2  0  0  0  0
 47 49  1  0  0  0  0
 53 54  1  0  0  0  0
M  END
>  <MolRegNo>
2036089

>  <m>
=

>  <Value>
6800

>  <Unit>
nM

>  <Type>
IC50

>  <pValue>
5.17

>  <Ligand Efficiency>
0.13

>  <Binding Efficiency>
7.11

>  <Surface Efficiency>
3.63

>  <Assay Index>
974120

>  <Assay Category>


>  <Assay Organism>
Homo sapiens

>  <Target ID>
17045

>  <Target Name>
Cytochrome P450 3A4

>  <Target Organism>
Homo sapiens

>  <Target Description>
Target is a single protein chain

>  <Sequence Accession>
P08684

>  <Reference>


>  <Pubmed ID>


>  <DOI>


$$$$
2036090
Actelion Java MolfileCreator 1.0

 60 66  0  0  1  0  0  0  0  0999 V2000
    0.0000   -0.0000   -0.0000 O   0  0  0  0  0  0  0  0  0  0  0  0
   -0.0122    1.2571   -0.0000 C   0  0  0  0  0  0  0  0  0  0  0  0
    1.3181    2.0382   -0.0000 N   0  0  0  0  0  0  0  0  0  0  0  0
   -1.3670    2.0382   -0.0000 C   0  0  0  0  0  0  0  0  0  0  0  0
    1.3059    3.6005   -0.0000 C   0  0  0  0  0  0  0  0  0  0  0  0
    2.6485    1.2815   -0.0000 C   0  0  0  0  0  0  0  0  0  0  0  0
   -1.3792    3.6005   -0.0000 N   0  0  0  0  0  0  0  0  0  0  0  0
   -2.7217    1.2815   -0.0000 C   0  0  0  0  0  0  0  0  0  0  0  0
   -0.0488    4.3816   -0.0000 C   0  0  0  0  0  0  0  0  0  0  0  0
    3.9788    2.0749   -0.0000 C   0  0  0  0  0  0  0  0  0  0  0  0
   -2.7339    4.3816   -0.0000 C   0  0  0  0  0  0  0  0  0  0  0  0
   -4.0765    2.0749   -0.0000 C   0  0  0  0  0  0  0  0  0  0  0  0
   -0.0610    5.9438   -0.0000 N   0  0  0  0  0  0  0  0  0  0  0  0
    5.3092    1.3181   -0.0000 C   0  0  0  0  0  0  0  0  0  0  0  0
    3.9666    3.6371   -0.0000 C   0  0  0  0  0  0  0  0  0  0  0  0
   -3.8202    3.7714   -0.0000 O   0  0  0  0  0  0  0  0  0  0  0  0
   -2.7461    5.9438   -0.0000 C   0  0  0  0  0  0  0  0  0  0  0  0
   -5.4312    1.3181   -0.0000 C   0  0  0  0  0  0  0  0  0  0  0  0
   -4.0887    3.6371   -0.0000 C   0  0  0  0  0  0  0  0  0  0  0  0
   -1.4158    6.7250   -0.0000 N   0  0  0  0  0  0  0  0  0  0  0  0
    1.2693    6.7372   -0.0000 C   0  0  0  0  0  0  0  0  0  0  0  0
    5.6265   -0.1831   -0.0000 N   0  0  0  0  0  0  0  0  0  0  0  0
    6.6395    2.1115   -0.0000 C   0  0  0  0  0  0  0  0  0  0  0  0
    5.2970    4.4304   -0.0000 C   0  0  0  0  0  0  0  0  0  0  0  0
   -6.7860    2.1115   -0.0000 C   0  0  0  0  0  0  0  0  0  0  0  0
   -5.4434    4.4304   -0.0000 C   0  0  0  0  0  0  0  0  0  0  0  0
   -1.4280    8.2872   -0.0000 C   0  0  0  0  0  0  0  0  0  0  0  0
    2.3312    6.1269   -0.0000 O   0  0  0  0  0  0  0  0  0  0  0  0
    1.2571    8.2994   -0.0000 N   0  0  0  0  0  0  0  0  0  0  0  0
    7.1521   -0.3295   -0.0000 C   0  0  0  0  0  0  0  0  0  0  0  0
    4.7844   -1.0985   -0.0000 C   0  0  0  0  0  0  0  0  0  0  0  0
    7.7868    1.0862   -0.0000 C   0  0  0  0  0  0  0  0  0  0  0  0
    6.6273    3.6737   -0.0000 C   0  0  0  0  0  0  0  0  0  0  0  0
   -6.7982    3.6737   -0.0000 C   0  0  0  0  0  0  0  0  0  0  0  0
   -2.7827    9.0683   -0.0000 C   0  0  0  0  0  0  0  0  0  0  0  0
    2.5875    9.0927   -0.0000 C   0  0  0  0  0  0  0  0  0  0  0  0
    9.2880    1.4280   -0.0000 C   0  0  0  0  0  0  0  0  0  0  0  0
   -7.8844    4.3084   -0.0000 O   0  0  0  0  0  0  0  0  0  0  0  0
   -2.7950   10.3255   -0.0000 C   0  0  0  0  0  0  0  0  0  0  0  0
    2.5753   10.6550   -0.0000 C   0  0  0  0  0  0  0  0  0  0  0  0
    9.6542    2.6241   -0.0000 O   0  0  0  0  0  0  0  0  0  0  0  0
   10.3132    0.2929   -0.0000 N   0  0  0  0  0  0  0  0  0  0  0  0
    3.9056   11.4483   -0.0000 C   0  0  0  0  0  0  0  0  0  0  0  0
    1.2205   11.4361   -0.0000 C   0  0  0  0  0  0  0  0  0  0  0  0
   11.8145    0.6347   -0.0000 C   0  0  0  0  0  0  0  0  0  0  0  0
    3.8934   13.0106   -0.0000 C   0  0  0  0  0  0  0  0  0  0  0  0
    1.2083   12.9984   -0.0000 C   0  0  0  0  0  0  0  0  0  0  0  0
   12.8397   -0.5004   -0.0000 C   0  0  0  0  0  0  0  0  0  0  0  0
   12.2783    2.1237   -0.0000 C   0  0  0  0  0  0  0  0  0  0  0  0
    2.5386   13.7917   -0.0000 C   0  0  0  0  0  0  0  0  0  0  0  0
   14.3409   -0.1587   -0.0000 C   0  0  0  0  0  0  0  0  0  0  0  0
   13.7795    2.4654   -0.0000 C   0  0  0  0  0  0  0  0  0  0  0  0
   14.8047    1.3303   -0.0000 N   0  0  0  0  0  0  0  0  0  0  0  0
   16.3059    1.6721   -0.0000 C   0  0  0  0  0  0  0  0  0  0  0  0
   17.1236    0.7689   -0.0000 O   0  0  0  0  0  0  0  0  0  0  0  0
   16.7697    3.1611   -0.0000 O   0  0  0  0  0  0  0  0  0  0  0  0
   18.2709    3.5028   -0.0000 C   0  0  0  0  0  0  0  0  0  0  0  0
   18.6371    4.6989   -0.0000 C   0  0  0  0  0  0  0  0  0  0  0  0
   19.4670    3.7836   -0.0000 C   0  0  0  0  0  0  0  0  0  0  0  0
   19.0887    2.5997   -0.0000 C   0  0  0  0  0  0  0  0  0  0  0  0
  1  2  2  0  0  0  0
  2  3  1  0  0  0  0
  2  4  1  0  0  0  0
  3  5  1  0  0  0  0
  3  6  1  0  0  0  0
  4  7  1  0  0  0  0
  4  8  1  6  0  0  0
  5  9  1  0  0  0  0
  6 10  1  0  0  0  0
  7 11  1  0  0  0  0
  8 12  1  0  0  0  0
  9 13  1  1  0  0  0
 10 14  2  0  0  0  0
 10 15  1  0  0  0  0
 11 16  2  0  0  0  0
 11 17  1  0  0  0  0
 12 18  2  0  0  0  0
 12 19  1  0  0  0  0
 13 20  1  0  0  0  0
 13 21  1  0  0  0  0
 14 22  1  0  0  0  0
 14 23  1  0  0  0  0
 15 24  2  0  0  0  0
 18 25  1  0  0  0  0
 19 26  2  0  0  0  0
 20 27  1  0  0  0  0
 21 28  2  0  0  0  0
 21 29  1  0  0  0  0
 22 30  1  0  0  0  0
 22 31  1  0  0  0  0
 23 32  1  0  0  0  0
 23 33  2  0  0  0  0
 25 34  2  0  0  0  0
 27 35  1  0  0  0  0
 29 36  1  0  0  0  0
 32 37  1  0  0  0  0
 34 38  1  0  0  0  0
 35 39  2  0  0  0  0
 36 40  1  0  0  0  0
 37 41  2  0  0  0  0
 37 42  1  0  0  0  0
 40 43  2  0  0  0  0
 40 44  1  0  0  0  0
 42 45  1  0  0  0  0
 43 46  1  0  0  0  0
 44 47  2  0  0  0  0
 45 48  1  0  0  0  0
 45 49  1  0  0  0  0
 46 50  2  0  0  0  0
 48 51  1  0  0  0  0
 49 52  1  0  0  0  0
 51 53  1  0  0  0  0
 53 54  1  0  0  0  0
 54 55  2  0  0  0  0
 54 56  1  0  0  0  0
 56 57  1  0  0  0  0
 57 58  1  0  0  0  0
 57 59  1  0  0  0  0
 57 60  1  0  0  0  0
  7  9  1  0  0  0  0
 17 20  1  0  0  0  0
 24 33  1  0  0  0  0
 26 34  1  0  0  0  0
 30 32  2  0  0  0  0
 47 50  1  0  0  0  0
 52 53  1  0  0  0  0
M  END
>  <MolRegNo>
2036090

>  <m>
=

>  <Value>
5650

>  <Unit>
nM

>  <Type>
IC50

>  <pValue>
5.25

>  <Ligand Efficiency>
0.12

>  <Binding Efficiency>
6.41

>  <Surface Efficiency>
3.28

>  <Assay Index>
974120

>  <Assay Category>


>  <Assay Organism>
Homo sapiens

>  <Target ID>
17045

>  <Target Name>
Cytochrome P450 3A4

>  <Target Organism>
Homo sapiens

>  <Target Description>
Target is a single protein chain

>  <Sequence Accession>
P08684

>  <Reference>


>  <Pubmed ID>


>  <DOI>


$$$$
2036091
Actelion Java MolfileCreator 1.0

 57 63  0  0  1  0  0  0  0  0999 V2000
    0.0000   -0.0000   -0.0000 O   0  0  0  0  0  0  0  0  0  0  0  0
   -0.0121    1.2461   -0.0000 C   0  0  0  0  0  0  0  0  0  0  0  0
    1.3066    2.0204   -0.0000 N   0  0  0  0  0  0  0  0  0  0  0  0
   -1.3550    2.0204   -0.0000 C   0  0  0  0  0  0  0  0  0  0  0  0
    1.2945    3.5690   -0.0000 C   0  0  0  0  0  0  0  0  0  0  0  0
    2.6253    1.2703   -0.0000 C   0  0  0  0  0  0  0  0  0  0  0  0
   -1.3671    3.5690   -0.0000 N   0  0  0  0  0  0  0  0  0  0  0  0
   -2.6979    1.2703   -0.0000 C   0  0  0  0  0  0  0  0  0  0  0  0
   -0.0484    4.3432   -0.0000 C   0  0  0  0  0  0  0  0  0  0  0  0
    3.9440    2.0567   -0.0000 C   0  0  0  0  0  0  0  0  0  0  0  0
   -2.7100    4.3432   -0.0000 C   0  0  0  0  0  0  0  0  0  0  0  0
   -4.0408    2.0567   -0.0000 C   0  0  0  0  0  0  0  0  0  0  0  0
   -0.0605    5.8918   -0.0000 N   0  0  0  0  0  0  0  0  0  0  0  0
    5.2627    1.3066   -0.0000 C   0  0  0  0  0  0  0  0  0  0  0  0
    3.9319    3.6053   -0.0000 C   0  0  0  0  0  0  0  0  0  0  0  0
   -3.7867    3.7383   -0.0000 O   0  0  0  0  0  0  0  0  0  0  0  0
   -2.7221    5.8918   -0.0000 C   0  0  0  0  0  0  0  0  0  0  0  0
   -5.3837    1.3066   -0.0000 C   0  0  0  0  0  0  0  0  0  0  0  0
   -4.0529    3.6053   -0.0000 C   0  0  0  0  0  0  0  0  0  0  0  0
   -1.4034    6.6661   -0.0000 N   0  0  0  0  0  0  0  0  0  0  0  0
    1.2582    6.6782   -0.0000 C   0  0  0  0  0  0  0  0  0  0  0  0
    5.5773   -0.1815   -0.0000 N   0  0  0  0  0  0  0  0  0  0  0  0
    6.5814    2.0930   -0.0000 C   0  0  0  0  0  0  0  0  0  0  0  0
    5.2506    4.3916   -0.0000 C   0  0  0  0  0  0  0  0  0  0  0  0
   -6.7266    2.0930   -0.0000 C   0  0  0  0  0  0  0  0  0  0  0  0
   -5.3958    4.3916   -0.0000 C   0  0  0  0  0  0  0  0  0  0  0  0
   -1.4155    8.2147   -0.0000 C   0  0  0  0  0  0  0  0  0  0  0  0
    2.3107    6.0733   -0.0000 O   0  0  0  0  0  0  0  0  0  0  0  0
    1.2461    8.2268   -0.0000 N   0  0  0  0  0  0  0  0  0  0  0  0
    7.0895   -0.3267   -0.0000 C   0  0  0  0  0  0  0  0  0  0  0  0
    4.7425   -1.0888   -0.0000 C   0  0  0  0  0  0  0  0  0  0  0  0
    7.7186    1.0767   -0.0000 C   0  0  0  0  0  0  0  0  0  0  0  0
    6.5693    3.6415   -0.0000 C   0  0  0  0  0  0  0  0  0  0  0  0
   -6.7387    3.6415   -0.0000 C   0  0  0  0  0  0  0  0  0  0  0  0
   -2.7584    8.9889   -0.0000 C   0  0  0  0  0  0  0  0  0  0  0  0
    2.5648    9.0131   -0.0000 C   0  0  0  0  0  0  0  0  0  0  0  0
    9.2067    1.4155   -0.0000 C   0  0  0  0  0  0  0  0  0  0  0  0
   -7.8154    4.2707   -0.0000 O   0  0  0  0  0  0  0  0  0  0  0  0
   -2.7705   10.2350   -0.0000 C   0  0  0  0  0  0  0  0  0  0  0  0
    2.5527   10.5617   -0.0000 C   0  0  0  0  0  0  0  0  0  0  0  0
    9.5696    2.6011   -0.0000 O   0  0  0  0  0  0  0  0  0  0  0  0
   10.2230    0.2904   -0.0000 N   0  0  0  0  0  0  0  0  0  0  0  0
    3.8714   11.3481   -0.0000 C   0  0  0  0  0  0  0  0  0  0  0  0
    1.2098   11.3360   -0.0000 C   0  0  0  0  0  0  0  0  0  0  0  0
   11.7110    0.6291   -0.0000 C   0  0  0  0  0  0  0  0  0  0  0  0
    3.8593   12.8966   -0.0000 C   0  0  0  0  0  0  0  0  0  0  0  0
    1.1977   12.8845   -0.0000 C   0  0  0  0  0  0  0  0  0  0  0  0
   12.7273   -0.4960   -0.0000 C   0  0  0  0  0  0  0  0  0  0  0  0
   12.1708    2.1051   -0.0000 C   0  0  0  0  0  0  0  0  0  0  0  0
    2.5164   13.6709   -0.0000 C   0  0  0  0  0  0  0  0  0  0  0  0
   14.2153   -0.1573   -0.0000 C   0  0  0  0  0  0  0  0  0  0  0  0
   13.6588    2.4438   -0.0000 C   0  0  0  0  0  0  0  0  0  0  0  0
   14.6751    1.3187   -0.0000 N   0  0  0  0  0  0  0  0  0  0  0  0
   16.1631    1.6574   -0.0000 C   0  0  0  0  0  0  0  0  0  0  0  0
   16.6229    3.1334   -0.0000 C   0  0  0  0  0  0  0  0  0  0  0  0
   18.1110    3.4722   -0.0000 C   0  0  0  0  0  0  0  0  0  0  0  0
   18.4739    4.6578   -0.0000 O   0  0  0  0  0  0  0  0  0  0  0  0
  1  2  2  0  0  0  0
  2  3  1  0  0  0  0
  2  4  1  0  0  0  0
  3  5  1  0  0  0  0
  3  6  1  0  0  0  0
  4  7  1  0  0  0  0
  4  8  1  6  0  0  0
  5  9  1  0  0  0  0
  6 10  1  0  0  0  0
  7 11  1  0  0  0  0
  8 12  1  0  0  0  0
  9 13  1  1  0  0  0
 10 14  2  0  0  0  0
 10 15  1  0  0  0  0
 11 16  2  0  0  0  0
 11 17  1  0  0  0  0
 12 18  2  0  0  0  0
 12 19  1  0  0  0  0
 13 20  1  0  0  0  0
 13 21  1  0  0  0  0
 14 22  1  0  0  0  0
 14 23  1  0  0  0  0
 15 24  2  0  0  0  0
 18 25  1  0  0  0  0
 19 26  2  0  0  0  0
 20 27  1  0  0  0  0
 21 28  2  0  0  0  0
 21 29  1  0  0  0  0
 22 30  1  0  0  0  0
 22 31  1  0  0  0  0
 23 32  1  0  0  0  0
 23 33  2  0  0  0  0
 25 34  2  0  0  0  0
 27 35  1  0  0  0  0
 29 36  1  0  0  0  0
 32 37  1  0  0  0  0
 34 38  1  0  0  0  0
 35 39  2  0  0  0  0
 36 40  1  0  0  0  0
 37 41  2  0  0  0  0
 37 42  1  0  0  0  0
 40 43  2  0  0  0  0
 40 44  1  0  0  0  0
 42 45  1  0  0  0  0
 43 46  1  0  0  0  0
 44 47  2  0  0  0  0
 45 48  1  0  0  0  0
 45 49  1  0  0  0  0
 46 50  2  0  0  0  0
 48 51  1  0  0  0  0
 49 52  1  0  0  0  0
 51 53  1  0  0  0  0
 53 54  1  0  0  0  0
 54 55  1  0  0  0  0
 55 56  1  0  0  0  0
 56 57  1  0  0  0  0
  7  9  1  0  0  0  0
 17 20  1  0  0  0  0
 24 33  1  0  0  0  0
 26 34  1  0  0  0  0
 30 32  2  0  0  0  0
 47 50  1  0  0  0  0
 52 53  1  0  0  0  0
M  END
>  <MolRegNo>
2036091

>  <m>
=

>  <Value>
9710

>  <Unit>
nM

>  <Type>
IC50

>  <pValue>
5.01

>  <Ligand Efficiency>
0.12

>  <Binding Efficiency>
6.45

>  <Surface Efficiency>
3.26

>  <Assay Index>
974120

>  <Assay Category>


>  <Assay Organism>
Homo sapiens

>  <Target ID>
17045

>  <Target Name>
Cytochrome P450 3A4

>  <Target Organism>
Homo sapiens

>  <Target Description>
Target is a single protein chain

>  <Sequence Accession>
P08684

>  <Reference>


>  <Pubmed ID>


>  <DOI>


$$$$
2036092
Actelion Java MolfileCreator 1.0

 56 62  0  0  1  0  0  0  0  0999 V2000
    0.0000   -0.0000   -0.0000 O   0  0  0  0  0  0  0  0  0  0  0  0
   -0.0121    1.2510   -0.0000 C   0  0  0  0  0  0  0  0  0  0  0  0
    1.3117    2.0283   -0.0000 N   0  0  0  0  0  0  0  0  0  0  0  0
   -1.3603    2.0283   -0.0000 C   0  0  0  0  0  0  0  0  0  0  0  0
    1.2996    3.5830   -0.0000 C   0  0  0  0  0  0  0  0  0  0  0  0
    2.6356    1.2753   -0.0000 C   0  0  0  0  0  0  0  0  0  0  0  0
   -1.3725    3.5830   -0.0000 N   0  0  0  0  0  0  0  0  0  0  0  0
   -2.7085    1.2753   -0.0000 C   0  0  0  0  0  0  0  0  0  0  0  0
   -0.0486    4.3603   -0.0000 C   0  0  0  0  0  0  0  0  0  0  0  0
    3.9595    2.0648   -0.0000 C   0  0  0  0  0  0  0  0  0  0  0  0
   -2.7206    4.3603   -0.0000 C   0  0  0  0  0  0  0  0  0  0  0  0
   -4.0567    2.0648   -0.0000 C   0  0  0  0  0  0  0  0  0  0  0  0
   -0.0607    5.9150   -0.0000 N   0  0  0  0  0  0  0  0  0  0  0  0
    5.2834    1.3117   -0.0000 C   0  0  0  0  0  0  0  0  0  0  0  0
    3.9474    3.6194   -0.0000 C   0  0  0  0  0  0  0  0  0  0  0  0
   -3.8016    3.7530   -0.0000 O   0  0  0  0  0  0  0  0  0  0  0  0
   -2.7328    5.9150   -0.0000 C   0  0  0  0  0  0  0  0  0  0  0  0
   -5.4049    1.3117   -0.0000 C   0  0  0  0  0  0  0  0  0  0  0  0
   -4.0688    3.6194   -0.0000 C   0  0  0  0  0  0  0  0  0  0  0  0
   -1.4089    6.6923   -0.0000 N   0  0  0  0  0  0  0  0  0  0  0  0
    1.2632    6.7045   -0.0000 C   0  0  0  0  0  0  0  0  0  0  0  0
    5.5992   -0.1822   -0.0000 N   0  0  0  0  0  0  0  0  0  0  0  0
    6.6073    2.1012   -0.0000 C   0  0  0  0  0  0  0  0  0  0  0  0
    5.2713    4.4089   -0.0000 C   0  0  0  0  0  0  0  0  0  0  0  0
   -6.7530    2.1012   -0.0000 C   0  0  0  0  0  0  0  0  0  0  0  0
   -5.4170    4.4089   -0.0000 C   0  0  0  0  0  0  0  0  0  0  0  0
   -1.4211    8.2470   -0.0000 C   0  0  0  0  0  0  0  0  0  0  0  0
    2.3198    6.0972   -0.0000 O   0  0  0  0  0  0  0  0  0  0  0  0
    1.2510    8.2591   -0.0000 N   0  0  0  0  0  0  0  0  0  0  0  0
    7.1174   -0.3279   -0.0000 C   0  0  0  0  0  0  0  0  0  0  0  0
    4.7611   -1.0931   -0.0000 C   0  0  0  0  0  0  0  0  0  0  0  0
    7.7490    1.0810   -0.0000 C   0  0  0  0  0  0  0  0  0  0  0  0
    6.5951    3.6559   -0.0000 C   0  0  0  0  0  0  0  0  0  0  0  0
   -6.7652    3.6559   -0.0000 C   0  0  0  0  0  0  0  0  0  0  0  0
   -2.7692    9.0243   -0.0000 C   0  0  0  0  0  0  0  0  0  0  0  0
    2.5749    9.0486   -0.0000 C   0  0  0  0  0  0  0  0  0  0  0  0
    9.2429    1.4211   -0.0000 C   0  0  0  0  0  0  0  0  0  0  0  0
   -7.8462    4.2875   -0.0000 O   0  0  0  0  0  0  0  0  0  0  0  0
   -2.7814   10.2753   -0.0000 C   0  0  0  0  0  0  0  0  0  0  0  0
    2.5628   10.6032   -0.0000 C   0  0  0  0  0  0  0  0  0  0  0  0
    9.6073    2.6113   -0.0000 O   0  0  0  0  0  0  0  0  0  0  0  0
   10.2632    0.2915   -0.0000 N   0  0  0  0  0  0  0  0  0  0  0  0
    3.8866   11.3927   -0.0000 C   0  0  0  0  0  0  0  0  0  0  0  0
    1.2146   11.3806   -0.0000 C   0  0  0  0  0  0  0  0  0  0  0  0
   11.7571    0.6316   -0.0000 C   0  0  0  0  0  0  0  0  0  0  0  0
    3.8745   12.9474   -0.0000 C   0  0  0  0  0  0  0  0  0  0  0  0
    1.2024   12.9352   -0.0000 C   0  0  0  0  0  0  0  0  0  0  0  0
   12.7773   -0.4980   -0.0000 C   0  0  0  0  0  0  0  0  0  0  0  0
   12.2186    2.1134   -0.0000 C   0  0  0  0  0  0  0  0  0  0  0  0
    2.5263   13.7247   -0.0000 C   0  0  0  0  0  0  0  0  0  0  0  0
   14.2713   -0.1579   -0.0000 C   0  0  0  0  0  0  0  0  0  0  0  0
   13.7126    2.4534   -0.0000 C   0  0  0  0  0  0  0  0  0  0  0  0
   14.7328    1.3239   -0.0000 N   0  0  0  0  0  0  0  0  0  0  0  0
   16.2267    1.6640   -0.0000 C   0  0  0  0  0  0  0  0  0  0  0  0
   16.5911    2.8543   -0.0000 O   0  0  0  0  0  0  0  0  0  0  0  0
   17.0405    0.7652   -0.0000 C   0  0  0  0  0  0  0  0  0  0  0  0
  1  2  2  0  0  0  0
  2  3  1  0  0  0  0
  2  4  1  0  0  0  0
  3  5  1  0  0  0  0
  3  6  1  0  0  0  0
  4  7  1  0  0  0  0
  4  8  1  6  0  0  0
  5  9  1  0  0  0  0
  6 10  1  0  0  0  0
  7 11  1  0  0  0  0
  8 12  1  0  0  0  0
  9 13  1  1  0  0  0
 10 14  2  0  0  0  0
 10 15  1  0  0  0  0
 11 16  2  0  0  0  0
 11 17  1  0  0  0  0
 12 18  2  0  0  0  0
 12 19  1  0  0  0  0
 13 20  1  0  0  0  0
 13 21  1  0  0  0  0
 14 22  1  0  0  0  0
 14 23  1  0  0  0  0
 15 24  2  0  0  0  0
 18 25  1  0  0  0  0
 19 26  2  0  0  0  0
 20 27  1  0  0  0  0
 21 28  2  0  0  0  0
 21 29  1  0  0  0  0
 22 30  1  0  0  0  0
 22 31  1  0  0  0  0
 23 32  1  0  0  0  0
 23 33  2  0  0  0  0
 25 34  2  0  0  0  0
 27 35  1  0  0  0  0
 29 36  1  0  0  0  0
 32 37  1  0  0  0  0
 34 38  1  0  0  0  0
 35 39  2  0  0  0  0
 36 40  1  0  0  0  0
 37 41  2  0  0  0  0
 37 42  1  0  0  0  0
 40 43  2  0  0  0  0
 40 44  1  0  0  0  0
 42 45  1  0  0  0  0
 43 46  1  0  0  0  0
 44 47  2  0  0  0  0
 45 48  1  0  0  0  0
 45 49  1  0  0  0  0
 46 50  2  0  0  0  0
 48 51  1  0  0  0  0
 49 52  1  0  0  0  0
 51 53  1  0  0  0  0
 53 54  1  0  0  0  0
 54 55  2  0  0  0  0
 54 56  1  0  0  0  0
  7  9  1  0  0  0  0
 17 20  1  0  0  0  0
 24 33  1  0  0  0  0
 26 34  1  0  0  0  0
 30 32  2  0  0  0  0
 47 50  1  0  0  0  0
 52 53  1  0  0  0  0
M  END
>  <MolRegNo>
2036092

>  <m>
=

>  <Value>
5120

>  <Unit>
nM

>  <Type>
IC50

>  <pValue>
5.29

>  <Ligand Efficiency>
0.13

>  <Binding Efficiency>
6.95

>  <Surface Efficiency>
3.51

>  <Assay Index>
974120

>  <Assay Category>


>  <Assay Organism>
Homo sapiens

>  <Target ID>
17045

>  <Target Name>
Cytochrome P450 3A4

>  <Target Organism>
Homo sapiens

>  <Target Description>
Target is a single protein chain

>  <Sequence Accession>
P08684

>  <Reference>


>  <Pubmed ID>


>  <DOI>


$$$$
2036093
Actelion Java MolfileCreator 1.0

 58 64  0  0  1  0  0  0  0  0999 V2000
    0.0000   -0.0000   -0.0000 O   0  0  0  0  0  0  0  0  0  0  0  0
   -0.0121    1.2499   -0.0000 C   0  0  0  0  0  0  0  0  0  0  0  0
    1.3106    2.0266   -0.0000 N   0  0  0  0  0  0  0  0  0  0  0  0
   -1.3591    2.0266   -0.0000 C   0  0  0  0  0  0  0  0  0  0  0  0
    1.2985    3.5799   -0.0000 C   0  0  0  0  0  0  0  0  0  0  0  0
    2.6333    1.2742   -0.0000 C   0  0  0  0  0  0  0  0  0  0  0  0
   -1.3713    3.5799   -0.0000 N   0  0  0  0  0  0  0  0  0  0  0  0
   -2.7061    1.2742   -0.0000 C   0  0  0  0  0  0  0  0  0  0  0  0
   -0.0485    4.3565   -0.0000 C   0  0  0  0  0  0  0  0  0  0  0  0
    3.9560    2.0630   -0.0000 C   0  0  0  0  0  0  0  0  0  0  0  0
   -2.7183    4.3565   -0.0000 C   0  0  0  0  0  0  0  0  0  0  0  0
   -4.0531    2.0630   -0.0000 C   0  0  0  0  0  0  0  0  0  0  0  0
   -0.0607    5.9098   -0.0000 N   0  0  0  0  0  0  0  0  0  0  0  0
    5.2788    1.3106   -0.0000 C   0  0  0  0  0  0  0  0  0  0  0  0
    3.9439    3.6163   -0.0000 C   0  0  0  0  0  0  0  0  0  0  0  0
   -3.7983    3.7498   -0.0000 O   0  0  0  0  0  0  0  0  0  0  0  0
   -2.7304    5.9098   -0.0000 C   0  0  0  0  0  0  0  0  0  0  0  0
   -5.4001    1.3106   -0.0000 C   0  0  0  0  0  0  0  0  0  0  0  0
   -4.0653    3.6163   -0.0000 C   0  0  0  0  0  0  0  0  0  0  0  0
   -1.4077    6.6864   -0.0000 N   0  0  0  0  0  0  0  0  0  0  0  0
    1.2621    6.6986   -0.0000 C   0  0  0  0  0  0  0  0  0  0  0  0
    5.5943   -0.1820   -0.0000 N   0  0  0  0  0  0  0  0  0  0  0  0
    6.6015    2.0994   -0.0000 C   0  0  0  0  0  0  0  0  0  0  0  0
    5.2666    4.4050   -0.0000 C   0  0  0  0  0  0  0  0  0  0  0  0
   -6.7471    2.0994   -0.0000 C   0  0  0  0  0  0  0  0  0  0  0  0
   -5.4123    4.4050   -0.0000 C   0  0  0  0  0  0  0  0  0  0  0  0
   -1.4198    8.2397   -0.0000 C   0  0  0  0  0  0  0  0  0  0  0  0
    2.3178    6.0918   -0.0000 O   0  0  0  0  0  0  0  0  0  0  0  0
    1.2499    8.2519   -0.0000 N   0  0  0  0  0  0  0  0  0  0  0  0
    7.1112   -0.3276   -0.0000 C   0  0  0  0  0  0  0  0  0  0  0  0
    4.7570   -1.0922   -0.0000 C   0  0  0  0  0  0  0  0  0  0  0  0
    7.7422    1.0800   -0.0000 C   0  0  0  0  0  0  0  0  0  0  0  0
    6.5894    3.6527   -0.0000 C   0  0  0  0  0  0  0  0  0  0  0  0
   -6.7593    3.6527   -0.0000 C   0  0  0  0  0  0  0  0  0  0  0  0
   -2.7668    9.0164   -0.0000 C   0  0  0  0  0  0  0  0  0  0  0  0
    2.5726    9.0407   -0.0000 C   0  0  0  0  0  0  0  0  0  0  0  0
    9.2348    1.4198   -0.0000 C   0  0  0  0  0  0  0  0  0  0  0  0
   -7.8393    4.2837   -0.0000 O   0  0  0  0  0  0  0  0  0  0  0  0
   -2.7789   10.2663   -0.0000 C   0  0  0  0  0  0  0  0  0  0  0  0
    2.5605   10.5940   -0.0000 C   0  0  0  0  0  0  0  0  0  0  0  0
    9.5989    2.6090   -0.0000 O   0  0  0  0  0  0  0  0  0  0  0  0
   10.2542    0.2912   -0.0000 N   0  0  0  0  0  0  0  0  0  0  0  0
    3.8832   11.3827   -0.0000 C   0  0  0  0  0  0  0  0  0  0  0  0
    1.2135   11.3706   -0.0000 C   0  0  0  0  0  0  0  0  0  0  0  0
   11.7468    0.6310   -0.0000 C   0  0  0  0  0  0  0  0  0  0  0  0
    3.8711   12.9360   -0.0000 C   0  0  0  0  0  0  0  0  0  0  0  0
    1.2014   12.9239   -0.0000 C   0  0  0  0  0  0  0  0  0  0  0  0
   12.7661   -0.4975   -0.0000 C   0  0  0  0  0  0  0  0  0  0  0  0
   12.2079    2.1115   -0.0000 C   0  0  0  0  0  0  0  0  0  0  0  0
    2.5241   13.7127   -0.0000 C   0  0  0  0  0  0  0  0  0  0  0  0
   14.2588   -0.1578   -0.0000 C   0  0  0  0  0  0  0  0  0  0  0  0
   13.7005    2.4513   -0.0000 C   0  0  0  0  0  0  0  0  0  0  0  0
   14.7199    1.3227   -0.0000 N   0  0  0  0  0  0  0  0  0  0  0  0
   16.2125    1.6625   -0.0000 C   0  0  0  0  0  0  0  0  0  0  0  0
   17.0256    0.7645   -0.0000 O   0  0  0  0  0  0  0  0  0  0  0  0
   16.6736    3.1430   -0.0000 C   0  0  0  0  0  0  0  0  0  0  0  0
   18.1663    3.4828   -0.0000 C   0  0  0  0  0  0  0  0  0  0  0  0
   18.5303    4.6720   -0.0000 O   0  0  0  0  0  0  0  0  0  0  0  0
  1  2  2  0  0  0  0
  2  3  1  0  0  0  0
  2  4  1  0  0  0  0
  3  5  1  0  0  0  0
  3  6  1  0  0  0  0
  4  7  1  0  0  0  0
  4  8  1  6  0  0  0
  5  9  1  0  0  0  0
  6 10  1  0  0  0  0
  7 11  1  0  0  0  0
  8 12  1  0  0  0  0
  9 13  1  1  0  0  0
 10 14  2  0  0  0  0
 10 15  1  0  0  0  0
 11 16  2  0  0  0  0
 11 17  1  0  0  0  0
 12 18  2  0  0  0  0
 12 19  1  0  0  0  0
 13 20  1  0  0  0  0
 13 21  1  0  0  0  0
 14 22  1  0  0  0  0
 14 23  1  0  0  0  0
 15 24  2  0  0  0  0
 18 25  1  0  0  0  0
 19 26  2  0  0  0  0
 20 27  1  0  0  0  0
 21 28  2  0  0  0  0
 21 29  1  0  0  0  0
 22 30  1  0  0  0  0
 22 31  1  0  0  0  0
 23 32  1  0  0  0  0
 23 33  2  0  0  0  0
 25 34  2  0  0  0  0
 27 35  1  0  0  0  0
 29 36  1  0  0  0  0
 32 37  1  0  0  0  0
 34 38  1  0  0  0  0
 35 39  2  0  0  0  0
 36 40  1  0  0  0  0
 37 41  2  0  0  0  0
 37 42  1  0  0  0  0
 40 43  2  0  0  0  0
 40 44  1  0  0  0  0
 42 45  1  0  0  0  0
 43 46  1  0  0  0  0
 44 47  2  0  0  0  0
 45 48  1  0  0  0  0
 45 49  1  0  0  0  0
 46 50  2  0  0  0  0
 48 51  1  0  0  0  0
 49 52  1  0  0  0  0
 51 53  1  0  0  0  0
 53 54  1  0  0  0  0
 54 55  2  0  0  0  0
 54 56  1  0  0  0  0
 56 57  1  0  0  0  0
 57 58  1  0  0  0  0
  7  9  1  0  0  0  0
 17 20  1  0  0  0  0
 24 33  1  0  0  0  0
 26 34  1  0  0  0  0
 30 32  2  0  0  0  0
 47 50  1  0  0  0  0
 52 53  1  0  0  0  0
M  END
>  <MolRegNo>
2036093

>  <m>
=

>  <Value>
6870

>  <Unit>
nM

>  <Type>
IC50

>  <pValue>
5.16

>  <Ligand Efficiency>
0.12

>  <Binding Efficiency>
6.53

>  <Surface Efficiency>
3.02

>  <Assay Index>
974120

>  <Assay Category>


>  <Assay Organism>
Homo sapiens

>  <Target ID>
17045

>  <Target Name>
Cytochrome P450 3A4

>  <Target Organism>
Homo sapiens

>  <Target Description>
Target is a single protein chain

>  <Sequence Accession>
P08684

>  <Reference>


>  <Pubmed ID>


>  <DOI>


$$$$
2036094
Actelion Java MolfileCreator 1.0

 64 71  0  0  1  0  0  0  0  0999 V2000
    0.0000   -0.0000   -0.0000 O   0  0  0  0  0  0  0  0  0  0  0  0
   -0.0121    1.2496   -0.0000 C   0  0  0  0  0  0  0  0  0  0  0  0
    1.3102    2.0260   -0.0000 N   0  0  0  0  0  0  0  0  0  0  0  0
   -1.3587    2.0260   -0.0000 C   0  0  0  0  0  0  0  0  0  0  0  0
    1.2981    3.5788   -0.0000 C   0  0  0  0  0  0  0  0  0  0  0  0
    2.6326    1.2738   -0.0000 C   0  0  0  0  0  0  0  0  0  0  0  0
   -1.3709    3.5788   -0.0000 N   0  0  0  0  0  0  0  0  0  0  0  0
   -2.7054    1.2738   -0.0000 C   0  0  0  0  0  0  0  0  0  0  0  0
   -0.0485    4.3553   -0.0000 C   0  0  0  0  0  0  0  0  0  0  0  0
    3.9549    2.0624   -0.0000 C   0  0  0  0  0  0  0  0  0  0  0  0
   -2.7175    4.3553   -0.0000 C   0  0  0  0  0  0  0  0  0  0  0  0
   -4.0520    2.0624   -0.0000 C   0  0  0  0  0  0  0  0  0  0  0  0
   -0.0607    5.9081   -0.0000 N   0  0  0  0  0  0  0  0  0  0  0  0
    5.2773    1.3102   -0.0000 C   0  0  0  0  0  0  0  0  0  0  0  0
    3.9428    3.6152   -0.0000 C   0  0  0  0  0  0  0  0  0  0  0  0
   -3.7972    3.7487   -0.0000 O   0  0  0  0  0  0  0  0  0  0  0  0
   -2.7296    5.9081   -0.0000 C   0  0  0  0  0  0  0  0  0  0  0  0
   -5.3986    1.3102   -0.0000 C   0  0  0  0  0  0  0  0  0  0  0  0
   -4.0641    3.6152   -0.0000 C   0  0  0  0  0  0  0  0  0  0  0  0
   -1.4073    6.6846   -0.0000 N   0  0  0  0  0  0  0  0  0  0  0  0
    1.2617    6.6967   -0.0000 C   0  0  0  0  0  0  0  0  0  0  0  0
    5.5927   -0.1820   -0.0000 N   0  0  0  0  0  0  0  0  0  0  0  0
    6.5996    2.0988   -0.0000 C   0  0  0  0  0  0  0  0  0  0  0  0
    5.2651    4.4038   -0.0000 C   0  0  0  0  0  0  0  0  0  0  0  0
   -6.7452    2.0988   -0.0000 C   0  0  0  0  0  0  0  0  0  0  0  0
   -5.4107    4.4038   -0.0000 C   0  0  0  0  0  0  0  0  0  0  0  0
   -1.4194    8.2374   -0.0000 C   0  0  0  0  0  0  0  0  0  0  0  0
    2.3172    6.0901   -0.0000 O   0  0  0  0  0  0  0  0  0  0  0  0
    1.2496    8.2495   -0.0000 N   0  0  0  0  0  0  0  0  0  0  0  0
    7.1092   -0.3276   -0.0000 C   0  0  0  0  0  0  0  0  0  0  0  0
    4.7556   -1.0919   -0.0000 C   0  0  0  0  0  0  0  0  0  0  0  0
    7.7400    1.0797   -0.0000 C   0  0  0  0  0  0  0  0  0  0  0  0
    6.5875    3.6516   -0.0000 C   0  0  0  0  0  0  0  0  0  0  0  0
   -6.7573    3.6516   -0.0000 C   0  0  0  0  0  0  0  0  0  0  0  0
   -2.7660    9.0138   -0.0000 C   0  0  0  0  0  0  0  0  0  0  0  0
    2.5719    9.0381   -0.0000 C   0  0  0  0  0  0  0  0  0  0  0  0
    9.2322    1.4194   -0.0000 C   0  0  0  0  0  0  0  0  0  0  0  0
   -7.8371    4.2825   -0.0000 O   0  0  0  0  0  0  0  0  0  0  0  0
   -2.7782   10.2634   -0.0000 C   0  0  0  0  0  0  0  0  0  0  0  0
    2.5598   10.5910   -0.0000 C   0  0  0  0  0  0  0  0  0  0  0  0
    9.5962    2.6083   -0.0000 O   0  0  0  0  0  0  0  0  0  0  0  0
   10.2513    0.2912   -0.0000 N   0  0  0  0  0  0  0  0  0  0  0  0
    3.8821   11.3795   -0.0000 C   0  0  0  0  0  0  0  0  0  0  0  0
    1.2132   11.3674   -0.0000 C   0  0  0  0  0  0  0  0  0  0  0  0
   11.7435    0.6308   -0.0000 C   0  0  0  0  0  0  0  0  0  0  0  0
    3.8700   12.9324   -0.0000 C   0  0  0  0  0  0  0  0  0  0  0  0
    1.2010   12.9202   -0.0000 C   0  0  0  0  0  0  0  0  0  0  0  0
   12.7625   -0.4974   -0.0000 C   0  0  0  0  0  0  0  0  0  0  0  0
   12.2045    2.1109   -0.0000 C   0  0  0  0  0  0  0  0  0  0  0  0
    2.5234   13.7088   -0.0000 C   0  0  0  0  0  0  0  0  0  0  0  0
   14.2547   -0.1577   -0.0000 C   0  0  0  0  0  0  0  0  0  0  0  0
   13.6967    2.4506   -0.0000 C   0  0  0  0  0  0  0  0  0  0  0  0
   14.7157    1.3224   -0.0000 N   0  0  0  0  0  0  0  0  0  0  0  0
   16.2079    1.6620   -0.0000 C   0  0  0  0  0  0  0  0  0  0  0  0
   17.0207    0.7643   -0.0000 O   0  0  0  0  0  0  0  0  0  0  0  0
   16.6689    3.1421   -0.0000 C   0  0  0  0  0  0  0  0  0  0  0  0
   18.1611    3.4818   -0.0000 C   0  0  0  0  0  0  0  0  0  0  0  0
   15.6135    4.2946   -0.0000 C   0  0  0  0  0  0  0  0  0  0  0  0
   18.6100    4.9619   -0.0000 C   0  0  0  0  0  0  0  0  0  0  0  0
   16.0623    5.7747   -0.0000 C   0  0  0  0  0  0  0  0  0  0  0  0
   17.5545    6.1144   -0.0000 C   0  0  0  0  0  0  0  0  0  0  0  0
   18.0034    7.5944   -0.0000 N   0  0  0  0  0  0  0  0  0  0  0  0
   17.1542    8.5164   -0.0000 C   0  0  0  0  0  0  0  0  0  0  0  0
   19.1923    7.8735   -0.0000 C   0  0  0  0  0  0  0  0  0  0  0  0
  1  2  2  0  0  0  0
  2  3  1  0  0  0  0
  2  4  1  0  0  0  0
  3  5  1  0  0  0  0
  3  6  1  0  0  0  0
  4  7  1  0  0  0  0
  4  8  1  6  0  0  0
  5  9  1  0  0  0  0
  6 10  1  0  0  0  0
  7 11  1  0  0  0  0
  8 12  1  0  0  0  0
  9 13  1  1  0  0  0
 10 14  2  0  0  0  0
 10 15  1  0  0  0  0
 11 16  2  0  0  0  0
 11 17  1  0  0  0  0
 12 18  2  0  0  0  0
 12 19  1  0  0  0  0
 13 20  1  0  0  0  0
 13 21  1  0  0  0  0
 14 22  1  0  0  0  0
 14 23  1  0  0  0  0
 15 24  2  0  0  0  0
 18 25  1  0  0  0  0
 19 26  2  0  0  0  0
 20 27  1  0  0  0  0
 21 28  2  0  0  0  0
 21 29  1  0  0  0  0
 22 30  1  0  0  0  0
 22 31  1  0  0  0  0
 23 32  1  0  0  0  0
 23 33  2  0  0  0  0
 25 34  2  0  0  0  0
 27 35  1  0  0  0  0
 29 36  1  0  0  0  0
 32 37  1  0  0  0  0
 34 38  1  0  0  0  0
 35 39  2  0  0  0  0
 36 40  1  0  0  0  0
 37 41  2  0  0  0  0
 37 42  1  0  0  0  0
 40 43  2  0  0  0  0
 40 44  1  0  0  0  0
 42 45  1  0  0  0  0
 43 46  1  0  0  0  0
 44 47  2  0  0  0  0
 45 48  1  0  0  0  0
 45 49  1  0  0  0  0
 46 50  2  0  0  0  0
 48 51  1  0  0  0  0
 49 52  1  0  0  0  0
 51 53  1  0  0  0  0
 53 54  1  0  0  0  0
 54 55  2  0  0  0  0
 54 56  1  0  0  0  0
 56 57  2  0  0  0  0
 56 58  1  0  0  0  0
 57 59  1  0  0  0  0
 58 60  2  0  0  0  0
 59 61  2  0  0  0  0
 61 62  1  0  0  0  0
 62 63  1  0  0  0  0
 62 64  1  0  0  0  0
  7  9  1  0  0  0  0
 17 20  1  0  0  0  0
 24 33  1  0  0  0  0
 26 34  1  0  0  0  0
 30 32  2  0  0  0  0
 47 50  1  0  0  0  0
 52 53  1  0  0  0  0
 60 61  1  0  0  0  0
M  END
>  <MolRegNo>
2036094

>  <m>
=

>  <Value>
6150

>  <Unit>
nM

>  <Type>
IC50

>  <pValue>
5.21

>  <Ligand Efficiency>
0.11

>  <Binding Efficiency>
6.02

>  <Surface Efficiency>
3.38

>  <Assay Index>
974120

>  <Assay Category>


>  <Assay Organism>
Homo sapiens

>  <Target ID>
17045

>  <Target Name>
Cytochrome P450 3A4

>  <Target Organism>
Homo sapiens

>  <Target Description>
Target is a single protein chain

>  <Sequence Accession>
P08684

>  <Reference>


>  <Pubmed ID>


>  <DOI>


$$$$
2036095
Actelion Java MolfileCreator 1.0

 68 76  0  0  1  0  0  0  0  0999 V2000
    0.0000   -0.0000   -0.0000 O   0  0  0  0  0  0  0  0  0  0  0  0
   -0.0121    1.2436   -0.0000 C   0  0  0  0  0  0  0  0  0  0  0  0
    1.3040    2.0163   -0.0000 N   0  0  0  0  0  0  0  0  0  0  0  0
   -1.3522    2.0163   -0.0000 C   0  0  0  0  0  0  0  0  0  0  0  0
    1.2919    3.5617   -0.0000 C   0  0  0  0  0  0  0  0  0  0  0  0
    2.6200    1.2677   -0.0000 C   0  0  0  0  0  0  0  0  0  0  0  0
   -1.3643    3.5617   -0.0000 N   0  0  0  0  0  0  0  0  0  0  0  0
   -2.6924    1.2677   -0.0000 C   0  0  0  0  0  0  0  0  0  0  0  0
   -0.0483    4.3344   -0.0000 C   0  0  0  0  0  0  0  0  0  0  0  0
    3.9360    2.0525   -0.0000 C   0  0  0  0  0  0  0  0  0  0  0  0
   -2.7045    4.3344   -0.0000 C   0  0  0  0  0  0  0  0  0  0  0  0
   -4.0326    2.0525   -0.0000 C   0  0  0  0  0  0  0  0  0  0  0  0
   -0.0604    5.8799   -0.0000 N   0  0  0  0  0  0  0  0  0  0  0  0
    5.2520    1.3040   -0.0000 C   0  0  0  0  0  0  0  0  0  0  0  0
    3.9239    3.5979   -0.0000 C   0  0  0  0  0  0  0  0  0  0  0  0
   -3.7790    3.7307   -0.0000 O   0  0  0  0  0  0  0  0  0  0  0  0
   -2.7166    5.8799   -0.0000 C   0  0  0  0  0  0  0  0  0  0  0  0
   -5.3728    1.3040   -0.0000 C   0  0  0  0  0  0  0  0  0  0  0  0
   -4.0447    3.5979   -0.0000 C   0  0  0  0  0  0  0  0  0  0  0  0
   -1.4005    6.6526   -0.0000 N   0  0  0  0  0  0  0  0  0  0  0  0
    1.2557    6.6646   -0.0000 C   0  0  0  0  0  0  0  0  0  0  0  0
    5.5659   -0.1811   -0.0000 N   0  0  0  0  0  0  0  0  0  0  0  0
    6.5680    2.0887   -0.0000 C   0  0  0  0  0  0  0  0  0  0  0  0
    5.2400    4.3827   -0.0000 C   0  0  0  0  0  0  0  0  0  0  0  0
   -6.7129    2.0887   -0.0000 C   0  0  0  0  0  0  0  0  0  0  0  0
   -5.3848    4.3827   -0.0000 C   0  0  0  0  0  0  0  0  0  0  0  0
   -1.4126    8.1980   -0.0000 C   0  0  0  0  0  0  0  0  0  0  0  0
    2.3061    6.0610   -0.0000 O   0  0  0  0  0  0  0  0  0  0  0  0
    1.2436    8.2101   -0.0000 N   0  0  0  0  0  0  0  0  0  0  0  0
    7.0751   -0.3260   -0.0000 C   0  0  0  0  0  0  0  0  0  0  0  0
    4.7329   -1.0866   -0.0000 C   0  0  0  0  0  0  0  0  0  0  0  0
    7.7030    1.0746   -0.0000 C   0  0  0  0  0  0  0  0  0  0  0  0
    6.5560    3.6342   -0.0000 C   0  0  0  0  0  0  0  0  0  0  0  0
   -6.7250    3.6342   -0.0000 C   0  0  0  0  0  0  0  0  0  0  0  0
   -2.7528    8.9707   -0.0000 C   0  0  0  0  0  0  0  0  0  0  0  0
    2.5596    8.9948   -0.0000 C   0  0  0  0  0  0  0  0  0  0  0  0
    9.1880    1.4126   -0.0000 C   0  0  0  0  0  0  0  0  0  0  0  0
   -7.7996    4.2620   -0.0000 O   0  0  0  0  0  0  0  0  0  0  0  0
   -2.7649   10.2143   -0.0000 C   0  0  0  0  0  0  0  0  0  0  0  0
    2.5475   10.5403   -0.0000 C   0  0  0  0  0  0  0  0  0  0  0  0
    9.5502    2.5958   -0.0000 O   0  0  0  0  0  0  0  0  0  0  0  0
   10.2022    0.2898   -0.0000 N   0  0  0  0  0  0  0  0  0  0  0  0
    3.8636   11.3251   -0.0000 C   0  0  0  0  0  0  0  0  0  0  0  0
    1.2074   11.3130   -0.0000 C   0  0  0  0  0  0  0  0  0  0  0  0
   11.6873    0.6278   -0.0000 C   0  0  0  0  0  0  0  0  0  0  0  0
    3.8515   12.8705   -0.0000 C   0  0  0  0  0  0  0  0  0  0  0  0
    1.1953   12.8584   -0.0000 C   0  0  0  0  0  0  0  0  0  0  0  0
   12.7014   -0.4950   -0.0000 C   0  0  0  0  0  0  0  0  0  0  0  0
   12.1461    2.1008   -0.0000 C   0  0  0  0  0  0  0  0  0  0  0  0
    2.5113   13.6432   -0.0000 C   0  0  0  0  0  0  0  0  0  0  0  0
   14.1865   -0.1570   -0.0000 C   0  0  0  0  0  0  0  0  0  0  0  0
   13.6311    2.4389   -0.0000 C   0  0  0  0  0  0  0  0  0  0  0  0
   14.6453    1.3160   -0.0000 N   0  0  0  0  0  0  0  0  0  0  0  0
   16.1304    1.6541   -0.0000 C   0  0  0  0  0  0  0  0  0  0  0  0
   16.9393    0.7606   -0.0000 O   0  0  0  0  0  0  0  0  0  0  0  0
   16.5892    3.1271   -0.0000 C   0  0  0  0  0  0  0  0  0  0  0  0
   18.0742    3.4651   -0.0000 C   0  0  0  0  0  0  0  0  0  0  0  0
   15.5387    4.2741   -0.0000 C   0  0  0  0  0  0  0  0  0  0  0  0
   18.5209    4.9381   -0.0000 C   0  0  0  0  0  0  0  0  0  0  0  0
   15.9855    5.7470   -0.0000 C   0  0  0  0  0  0  0  0  0  0  0  0
   17.4705    6.0851   -0.0000 C   0  0  0  0  0  0  0  0  0  0  0  0
   17.9173    7.5581   -0.0000 N   0  0  0  0  0  0  0  0  0  0  0  0
   19.4023    7.8961   -0.0000 C   0  0  0  0  0  0  0  0  0  0  0  0
   16.8668    8.7051   -0.0000 C   0  0  0  0  0  0  0  0  0  0  0  0
   19.8490    9.3691   -0.0000 C   0  0  0  0  0  0  0  0  0  0  0  0
   17.3136   10.1781   -0.0000 C   0  0  0  0  0  0  0  0  0  0  0  0
   18.7986   10.5161   -0.0000 N   0  0  0  0  0  0  0  0  0  0  0  0
   19.1608   11.6993   -0.0000 C   0  0  0  0  0  0  0  0  0  0  0  0
  1  2  2  0  0  0  0
  2  3  1  0  0  0  0
  2  4  1  0  0  0  0
  3  5  1  0  0  0  0
  3  6  1  0  0  0  0
  4  7  1  0  0  0  0
  4  8  1  6  0  0  0
  5  9  1  0  0  0  0
  6 10  1  0  0  0  0
  7 11  1  0  0  0  0
  8 12  1  0  0  0  0
  9 13  1  1  0  0  0
 10 14  2  0  0  0  0
 10 15  1  0  0  0  0
 11 16  2  0  0  0  0
 11 17  1  0  0  0  0
 12 18  2  0  0  0  0
 12 19  1  0  0  0  0
 13 20  1  0  0  0  0
 13 21  1  0  0  0  0
 14 22  1  0  0  0  0
 14 23  1  0  0  0  0
 15 24  2  0  0  0  0
 18 25  1  0  0  0  0
 19 26  2  0  0  0  0
 20 27  1  0  0  0  0
 21 28  2  0  0  0  0
 21 29  1  0  0  0  0
 22 30  1  0  0  0  0
 22 31  1  0  0  0  0
 23 32  1  0  0  0  0
 23 33  2  0  0  0  0
 25 34  2  0  0  0  0
 27 35  1  0  0  0  0
 29 36  1  0  0  0  0
 32 37  1  0  0  0  0
 34 38  1  0  0  0  0
 35 39  2  0  0  0  0
 36 40  1  0  0  0  0
 37 41  2  0  0  0  0
 37 42  1  0  0  0  0
 40 43  2  0  0  0  0
 40 44  1  0  0  0  0
 42 45  1  0  0  0  0
 43 46  1  0  0  0  0
 44 47  2  0  0  0  0
 45 48  1  0  0  0  0
 45 49  1  0  0  0  0
 46 50  2  0  0  0  0
 48 51  1  0  0  0  0
 49 52  1  0  0  0  0
 51 53  1  0  0  0  0
 53 54  1  0  0  0  0
 54 55  2  0  0  0  0
 54 56  1  0  0  0  0
 56 57  2  0  0  0  0
 56 58  1  0  0  0  0
 57 59  1  0  0  0  0
 58 60  2  0  0  0  0
 59 61  2  0  0  0  0
 61 62  1  0  0  0  0
 62 63  1  0  0  0  0
 62 64  1  0  0  0  0
 63 65  1  0  0  0  0
 64 66  1  0  0  0  0
 65 67  1  0  0  0  0
 67 68  1  0  0  0  0
  7  9  1  0  0  0  0
 17 20  1  0  0  0  0
 24 33  1  0  0  0  0
 26 34  1  0  0  0  0
 30 32  2  0  0  0  0
 47 50  1  0  0  0  0
 52 53  1  0  0  0  0
 60 61  1  0  0  0  0
 66 67  1  0  0  0  0
M  END
>  <MolRegNo>
2036095

>  <m>
=

>  <Value>
9650

>  <Unit>
nM

>  <Type>
IC50

>  <pValue>
5.01

>  <Ligand Efficiency>
0.1

>  <Binding Efficiency>
5.44

>  <Surface Efficiency>
3.19

>  <Assay Index>
974120

>  <Assay Category>


>  <Assay Organism>
Homo sapiens

>  <Target ID>
17045

>  <Target Name>
Cytochrome P450 3A4

>  <Target Organism>
Homo sapiens

>  <Target Description>
Target is a single protein chain

>  <Sequence Accession>
P08684

>  <Reference>


>  <Pubmed ID>


>  <DOI>


$$$$
2036096
Actelion Java MolfileCreator 1.0

 54 60  0  0  1  0  0  0  0  0999 V2000
    0.0000   -0.0000   -0.0000 F   0  0  0  0  0  0  0  0  0  0  0  0
   -1.2067   -0.2413   -0.0000 C   0  0  0  0  0  0  0  0  0  0  0  0
   -2.2444    0.9050   -0.0000 N   0  0  0  0  0  0  0  0  0  0  0  0
   -1.6893   -1.6893   -0.0000 C   0  0  0  0  0  0  0  0  0  0  0  0
   -3.7527    0.5913   -0.0000 C   0  0  0  0  0  0  0  0  0  0  0  0
   -3.1976   -2.0031   -0.0000 C   0  0  0  0  0  0  0  0  0  0  0  0
   -4.2354   -0.8567   -0.0000 C   0  0  0  0  0  0  0  0  0  0  0  0
   -5.7437   -1.1705   -0.0000 N   0  0  0  0  0  0  0  0  0  0  0  0
   -6.7814   -0.0241   -0.0000 C   0  0  0  0  0  0  0  0  0  0  0  0
   -6.4194    1.1584   -0.0000 O   0  0  0  0  0  0  0  0  0  0  0  0
   -8.2897   -0.3379   -0.0000 C   0  0  0  0  0  0  0  0  0  0  0  0
   -9.4481    0.6999   -0.0000 C   0  0  0  0  0  0  0  0  0  0  0  0
   -8.9172   -1.7255   -0.0000 C   0  0  0  0  0  0  0  0  0  0  0  0
  -10.7875   -0.0603   -0.0000 C   0  0  0  0  0  0  0  0  0  0  0  0
   -9.4602    2.2444   -0.0000 C   0  0  0  0  0  0  0  0  0  0  0  0
  -10.4497   -1.5566   -0.0000 N   0  0  0  0  0  0  0  0  0  0  0  0
  -12.1269    0.7119   -0.0000 C   0  0  0  0  0  0  0  0  0  0  0  0
  -10.7996    3.0166   -0.0000 C   0  0  0  0  0  0  0  0  0  0  0  0
  -11.2822   -2.4616   -0.0000 C   0  0  0  0  0  0  0  0  0  0  0  0
  -12.1390    2.2564   -0.0000 C   0  0  0  0  0  0  0  0  0  0  0  0
  -13.4663   -0.0483   -0.0000 C   0  0  0  0  0  0  0  0  0  0  0  0
  -14.8057    0.7240   -0.0000 N   0  0  0  0  0  0  0  0  0  0  0  0
  -16.1451   -0.0241   -0.0000 C   0  0  0  0  0  0  0  0  0  0  0  0
  -14.8178    2.2685   -0.0000 C   0  0  0  0  0  0  0  0  0  0  0  0
  -16.1571   -1.2429   -0.0000 O   0  0  0  0  0  0  0  0  0  0  0  0
  -17.4845    0.7481   -0.0000 C   0  0  0  0  0  0  0  0  0  0  0  0
  -16.1571    3.0408   -0.0000 C   0  0  0  0  0  0  0  0  0  0  0  0
  -17.4965    2.2926   -0.0000 N   0  0  0  0  0  0  0  0  0  0  0  0
  -18.8239   -0.0000   -0.0000 C   0  0  0  0  0  0  0  0  0  0  0  0
  -16.1692    4.5853   -0.0000 N   0  0  0  0  0  0  0  0  0  0  0  0
  -18.8359    3.0649   -0.0000 C   0  0  0  0  0  0  0  0  0  0  0  0
  -20.1632    0.7843   -0.0000 C   0  0  0  0  0  0  0  0  0  0  0  0
  -17.5086    5.3576   -0.0000 N   0  0  0  0  0  0  0  0  0  0  0  0
  -14.8540    5.3696   -0.0000 C   0  0  0  0  0  0  0  0  0  0  0  0
  -19.9098    2.4616   -0.0000 O   0  0  0  0  0  0  0  0  0  0  0  0
  -18.8480    4.6094   -0.0000 C   0  0  0  0  0  0  0  0  0  0  0  0
  -21.5026    0.0362   -0.0000 C   0  0  0  0  0  0  0  0  0  0  0  0
  -20.1753    2.3288   -0.0000 C   0  0  0  0  0  0  0  0  0  0  0  0
  -17.5207    6.9021   -0.0000 C   0  0  0  0  0  0  0  0  0  0  0  0
  -13.8042    4.7663   -0.0000 O   0  0  0  0  0  0  0  0  0  0  0  0
  -14.8660    6.9141   -0.0000 N   0  0  0  0  0  0  0  0  0  0  0  0
  -22.8420    0.8205   -0.0000 C   0  0  0  0  0  0  0  0  0  0  0  0
  -21.5147    3.1132   -0.0000 C   0  0  0  0  0  0  0  0  0  0  0  0
  -18.8601    7.6743   -0.0000 C   0  0  0  0  0  0  0  0  0  0  0  0
  -13.5508    7.6985   -0.0000 C   0  0  0  0  0  0  0  0  0  0  0  0
  -22.8541    2.3650   -0.0000 C   0  0  0  0  0  0  0  0  0  0  0  0
  -18.8721    8.9172   -0.0000 C   0  0  0  0  0  0  0  0  0  0  0  0
  -13.5628    9.2430   -0.0000 C   0  0  0  0  0  0  0  0  0  0  0  0
  -23.9280    2.9925   -0.0000 O   0  0  0  0  0  0  0  0  0  0  0  0
  -12.2476   10.0273   -0.0000 C   0  0  0  0  0  0  0  0  0  0  0  0
  -14.9022   10.0153   -0.0000 C   0  0  0  0  0  0  0  0  0  0  0  0
  -12.2596   11.5718   -0.0000 C   0  0  0  0  0  0  0  0  0  0  0  0
  -14.9143   11.5598   -0.0000 C   0  0  0  0  0  0  0  0  0  0  0  0
  -13.5990   12.3441   -0.0000 C   0  0  0  0  0  0  0  0  0  0  0  0
  1  2  1  0  0  0  0
  2  3  2  0  0  0  0
  2  4  1  0  0  0  0
  3  5  1  0  0  0  0
  4  6  2  0  0  0  0
  5  7  2  0  0  0  0
  7  8  1  0  0  0  0
  8  9  1  0  0  0  0
  9 10  2  0  0  0  0
  9 11  1  0  0  0  0
 11 12  1  0  0  0  0
 11 13  2  0  0  0  0
 12 14  2  0  0  0  0
 12 15  1  0  0  0  0
 13 16  1  0  0  0  0
 14 17  1  0  0  0  0
 15 18  2  0  0  0  0
 16 19  1  0  0  0  0
 17 20  2  0  0  0  0
 17 21  1  0  0  0  0
 21 22  1  0  0  0  0
 22 23  1  0  0  0  0
 22 24  1  0  0  0  0
 23 25  2  0  0  0  0
 23 26  1  0  0  0  0
 24 27  1  0  0  0  0
 26 28  1  0  0  0  0
 26 29  1  6  0  0  0
 27 30  1  1  0  0  0
 28 31  1  0  0  0  0
 29 32  1  0  0  0  0
 30 33  1  0  0  0  0
 30 34  1  0  0  0  0
 31 35  2  0  0  0  0
 31 36  1  0  0  0  0
 32 37  2  0  0  0  0
 32 38  1  0  0  0  0
 33 39  1  0  0  0  0
 34 40  2  0  0  0  0
 34 41  1  0  0  0  0
 37 42  1  0  0  0  0
 38 43  2  0  0  0  0
 39 44  1  0  0  0  0
 41 45  1  0  0  0  0
 42 46  2  0  0  0  0
 44 47  2  0  0  0  0
 45 48  1  0  0  0  0
 46 49  1  0  0  0  0
 48 50  2  0  0  0  0
 48 51  1  0  0  0  0
 50 52  1  0  0  0  0
 51 53  2  0  0  0  0
 52 54  2  0  0  0  0
  6  7  1  0  0  0  0
 14 16  1  0  0  0  0
 18 20  1  0  0  0  0
 27 28  1  0  0  0  0
 33 36  1  0  0  0  0
 43 46  1  0  0  0  0
 53 54  1  0  0  0  0
M  END
>  <MolRegNo>
2036096

>  <m>
=

>  <Value>
2970

>  <Unit>
nM

>  <Type>
IC50

>  <pValue>
5.53

>  <Ligand Efficiency>
0.14

>  <Binding Efficiency>
7.56

>  <Surface Efficiency>
3.86

>  <Assay Index>
974120

>  <Assay Category>


>  <Assay Organism>
Homo sapiens

>  <Target ID>
17045

>  <Target Name>
Cytochrome P450 3A4

>  <Target Organism>
Homo sapiens

>  <Target Description>
Target is a single protein chain

>  <Sequence Accession>
P08684

>  <Reference>


>  <Pubmed ID>


>  <DOI>


$$$$
2036097
Actelion Java MolfileCreator 1.0

 55 61  0  0  1  0  0  0  0  0999 V2000
    0.0000   -0.0000   -0.0000 O   0  0  0  0  0  0  0  0  0  0  0  0
   -0.0121    1.2471   -0.0000 C   0  0  0  0  0  0  0  0  0  0  0  0
    1.3076    2.0220   -0.0000 N   0  0  0  0  0  0  0  0  0  0  0  0
   -1.3561    2.0220   -0.0000 C   0  0  0  0  0  0  0  0  0  0  0  0
    1.2955    3.5718   -0.0000 C   0  0  0  0  0  0  0  0  0  0  0  0
    2.6274    1.2713   -0.0000 C   0  0  0  0  0  0  0  0  0  0  0  0
   -1.3682    3.5718   -0.0000 N   0  0  0  0  0  0  0  0  0  0  0  0
   -2.7000    1.2713   -0.0000 C   0  0  0  0  0  0  0  0  0  0  0  0
   -0.0484    4.3467   -0.0000 C   0  0  0  0  0  0  0  0  0  0  0  0
    3.9471    2.0583   -0.0000 C   0  0  0  0  0  0  0  0  0  0  0  0
   -2.7121    4.3467   -0.0000 C   0  0  0  0  0  0  0  0  0  0  0  0
   -4.0440    2.0583   -0.0000 C   0  0  0  0  0  0  0  0  0  0  0  0
   -0.0605    5.8965   -0.0000 N   0  0  0  0  0  0  0  0  0  0  0  0
    5.2669    1.3076   -0.0000 C   0  0  0  0  0  0  0  0  0  0  0  0
    3.9350    3.6081   -0.0000 C   0  0  0  0  0  0  0  0  0  0  0  0
   -3.7897    3.7413   -0.0000 O   0  0  0  0  0  0  0  0  0  0  0  0
   -2.7242    5.8965   -0.0000 C   0  0  0  0  0  0  0  0  0  0  0  0
   -5.3879    1.3076   -0.0000 C   0  0  0  0  0  0  0  0  0  0  0  0
   -4.0561    3.6081   -0.0000 C   0  0  0  0  0  0  0  0  0  0  0  0
   -1.4045    6.6713   -0.0000 N   0  0  0  0  0  0  0  0  0  0  0  0
    1.2592    6.6835   -0.0000 C   0  0  0  0  0  0  0  0  0  0  0  0
    5.5817   -0.1816   -0.0000 N   0  0  0  0  0  0  0  0  0  0  0  0
    6.5866    2.0946   -0.0000 C   0  0  0  0  0  0  0  0  0  0  0  0
    5.2547    4.3951   -0.0000 C   0  0  0  0  0  0  0  0  0  0  0  0
   -6.7319    2.0946   -0.0000 C   0  0  0  0  0  0  0  0  0  0  0  0
   -5.4000    4.3951   -0.0000 C   0  0  0  0  0  0  0  0  0  0  0  0
   -1.4166    8.2211   -0.0000 C   0  0  0  0  0  0  0  0  0  0  0  0
    2.3126    6.0781   -0.0000 O   0  0  0  0  0  0  0  0  0  0  0  0
    1.2471    8.2332   -0.0000 N   0  0  0  0  0  0  0  0  0  0  0  0
    7.0951   -0.3269   -0.0000 C   0  0  0  0  0  0  0  0  0  0  0  0
    4.7462   -1.0897   -0.0000 C   0  0  0  0  0  0  0  0  0  0  0  0
    7.7247    1.0776   -0.0000 C   0  0  0  0  0  0  0  0  0  0  0  0
    6.5745    3.6444   -0.0000 C   0  0  0  0  0  0  0  0  0  0  0  0
   -6.7440    3.6444   -0.0000 C   0  0  0  0  0  0  0  0  0  0  0  0
   -2.7606    8.9960   -0.0000 C   0  0  0  0  0  0  0  0  0  0  0  0
    2.5668    9.0202   -0.0000 C   0  0  0  0  0  0  0  0  0  0  0  0
    9.2140    1.4166   -0.0000 C   0  0  0  0  0  0  0  0  0  0  0  0
   -7.8216    4.2740   -0.0000 O   0  0  0  0  0  0  0  0  0  0  0  0
   -2.7727   10.2431   -0.0000 C   0  0  0  0  0  0  0  0  0  0  0  0
    2.5547   10.5700   -0.0000 C   0  0  0  0  0  0  0  0  0  0  0  0
    9.5772    2.6032   -0.0000 O   0  0  0  0  0  0  0  0  0  0  0  0
   10.2310    0.2906   -0.0000 N   0  0  0  0  0  0  0  0  0  0  0  0
    3.8745   11.3570   -0.0000 C   0  0  0  0  0  0  0  0  0  0  0  0
    1.2108   11.3449   -0.0000 C   0  0  0  0  0  0  0  0  0  0  0  0
   11.7203    0.6296   -0.0000 C   0  0  0  0  0  0  0  0  0  0  0  0
    3.8624   12.9068   -0.0000 C   0  0  0  0  0  0  0  0  0  0  0  0
    1.1987   12.8947   -0.0000 C   0  0  0  0  0  0  0  0  0  0  0  0
   12.7373   -0.4964   -0.0000 C   0  0  0  0  0  0  0  0  0  0  0  0
   12.1803    2.1067   -0.0000 C   0  0  0  0  0  0  0  0  0  0  0  0
    2.5184   13.6817   -0.0000 C   0  0  0  0  0  0  0  0  0  0  0  0
   14.2265   -0.1574   -0.0000 C   0  0  0  0  0  0  0  0  0  0  0  0
   13.6696    2.4458   -0.0000 C   0  0  0  0  0  0  0  0  0  0  0  0
   14.6866    1.3197   -0.0000 C   0  0  0  0  0  0  0  0  0  0  0  0
   16.1759    1.6588   -0.0000 O   0  0  0  0  0  0  0  0  0  0  0  0
   16.5391    2.8453   -0.0000 C   0  0  0  0  0  0  0  0  0  0  0  0
  1  2  2  0  0  0  0
  2  3  1  0  0  0  0
  2  4  1  0  0  0  0
  3  5  1  0  0  0  0
  3  6  1  0  0  0  0
  4  7  1  0  0  0  0
  4  8  1  6  0  0  0
  5  9  1  0  0  0  0
  6 10  1  0  0  0  0
  7 11  1  0  0  0  0
  8 12  1  0  0  0  0
  9 13  1  1  0  0  0
 10 14  2  0  0  0  0
 10 15  1  0  0  0  0
 11 16  2  0  0  0  0
 11 17  1  0  0  0  0
 12 18  2  0  0  0  0
 12 19  1  0  0  0  0
 13 20  1  0  0  0  0
 13 21  1  0  0  0  0
 14 22  1  0  0  0  0
 14 23  1  0  0  0  0
 15 24  2  0  0  0  0
 18 25  1  0  0  0  0
 19 26  2  0  0  0  0
 20 27  1  0  0  0  0
 21 28  2  0  0  0  0
 21 29  1  0  0  0  0
 22 30  1  0  0  0  0
 22 31  1  0  0  0  0
 23 32  1  0  0  0  0
 23 33  2  0  0  0  0
 25 34  2  0  0  0  0
 27 35  1  0  0  0  0
 29 36  1  0  0  0  0
 32 37  1  0  0  0  0
 34 38  1  0  0  0  0
 35 39  2  0  0  0  0
 36 40  1  0  0  0  0
 37 41  2  0  0  0  0
 37 42  1  0  0  0  0
 40 43  2  0  0  0  0
 40 44  1  0  0  0  0
 42 45  1  0  0  0  0
 43 46  1  0  0  0  0
 44 47  2  0  0  0  0
 45 48  2  0  0  0  0
 45 49  1  0  0  0  0
 46 50  2  0  0  0  0
 48 51  1  0  0  0  0
 49 52  2  0  0  0  0
 51 53  2  0  0  0  0
 53 54  1  0  0  0  0
 54 55  1  0  0  0  0
  7  9  1  0  0  0  0
 17 20  1  0  0  0  0
 24 33  1  0  0  0  0
 26 34  1  0  0  0  0
 30 32  2  0  0  0  0
 47 50  1  0  0  0  0
 52 53  1  0  0  0  0
M  END
>  <MolRegNo>
2036097

>  <m>
=

>  <Value>
2610

>  <Unit>
nM

>  <Type>
IC50

>  <pValue>
5.58

>  <Ligand Efficiency>
0.14

>  <Binding Efficiency>
7.53

>  <Surface Efficiency>
4

>  <Assay Index>
974120

>  <Assay Category>


>  <Assay Organism>
Homo sapiens

>  <Target ID>
17045

>  <Target Name>
Cytochrome P450 3A4

>  <Target Organism>
Homo sapiens

>  <Target Description>
Target is a single protein chain

>  <Sequence Accession>
P08684

>  <Reference>


>  <Pubmed ID>


>  <DOI>


$$$$
2036098
Actelion Java MolfileCreator 1.0

 55 61  0  0  1  0  0  0  0  0999 V2000
    0.0000   -0.0000   -0.0000 O   0  0  0  0  0  0  0  0  0  0  0  0
   -0.0121    1.2471   -0.0000 C   0  0  0  0  0  0  0  0  0  0  0  0
    1.3076    2.0220   -0.0000 N   0  0  0  0  0  0  0  0  0  0  0  0
   -1.3561    2.0220   -0.0000 C   0  0  0  0  0  0  0  0  0  0  0  0
    1.2955    3.5718   -0.0000 C   0  0  0  0  0  0  0  0  0  0  0  0
    2.6274    1.2713   -0.0000 C   0  0  0  0  0  0  0  0  0  0  0  0
   -1.3682    3.5718   -0.0000 N   0  0  0  0  0  0  0  0  0  0  0  0
   -2.7000    1.2713   -0.0000 C   0  0  0  0  0  0  0  0  0  0  0  0
   -0.0484    4.3467   -0.0000 C   0  0  0  0  0  0  0  0  0  0  0  0
    3.9471    2.0583   -0.0000 C   0  0  0  0  0  0  0  0  0  0  0  0
   -2.7121    4.3467   -0.0000 C   0  0  0  0  0  0  0  0  0  0  0  0
   -4.0440    2.0583   -0.0000 C   0  0  0  0  0  0  0  0  0  0  0  0
   -0.0605    5.8965   -0.0000 N   0  0  0  0  0  0  0  0  0  0  0  0
    5.2669    1.3076   -0.0000 C   0  0  0  0  0  0  0  0  0  0  0  0
    3.9350    3.6081   -0.0000 C   0  0  0  0  0  0  0  0  0  0  0  0
   -3.7897    3.7413   -0.0000 O   0  0  0  0  0  0  0  0  0  0  0  0
   -2.7242    5.8965   -0.0000 C   0  0  0  0  0  0  0  0  0  0  0  0
   -5.3879    1.3076   -0.0000 C   0  0  0  0  0  0  0  0  0  0  0  0
   -4.0561    3.6081   -0.0000 C   0  0  0  0  0  0  0  0  0  0  0  0
   -1.4045    6.6713   -0.0000 N   0  0  0  0  0  0  0  0  0  0  0  0
    1.2592    6.6835   -0.0000 C   0  0  0  0  0  0  0  0  0  0  0  0
    5.5817   -0.1816   -0.0000 N   0  0  0  0  0  0  0  0  0  0  0  0
    6.5866    2.0946   -0.0000 C   0  0  0  0  0  0  0  0  0  0  0  0
    5.2547    4.3951   -0.0000 C   0  0  0  0  0  0  0  0  0  0  0  0
   -6.7319    2.0946   -0.0000 C   0  0  0  0  0  0  0  0  0  0  0  0
   -5.4000    4.3951   -0.0000 C   0  0  0  0  0  0  0  0  0  0  0  0
   -1.4166    8.2211   -0.0000 C   0  0  0  0  0  0  0  0  0  0  0  0
    2.3126    6.0781   -0.0000 O   0  0  0  0  0  0  0  0  0  0  0  0
    1.2471    8.2332   -0.0000 N   0  0  0  0  0  0  0  0  0  0  0  0
    7.0951   -0.3269   -0.0000 C   0  0  0  0  0  0  0  0  0  0  0  0
    4.7462   -1.0897   -0.0000 C   0  0  0  0  0  0  0  0  0  0  0  0
    7.7247    1.0776   -0.0000 C   0  0  0  0  0  0  0  0  0  0  0  0
    6.5745    3.6444   -0.0000 C   0  0  0  0  0  0  0  0  0  0  0  0
   -6.7440    3.6444   -0.0000 C   0  0  0  0  0  0  0  0  0  0  0  0
   -2.7606    8.9960   -0.0000 C   0  0  0  0  0  0  0  0  0  0  0  0
    2.5668    9.0202   -0.0000 C   0  0  0  0  0  0  0  0  0  0  0  0
    9.2140    1.4166   -0.0000 C   0  0  0  0  0  0  0  0  0  0  0  0
   -7.8216    4.2740   -0.0000 O   0  0  0  0  0  0  0  0  0  0  0  0
   -2.7727   10.2431   -0.0000 C   0  0  0  0  0  0  0  0  0  0  0  0
    2.5547   10.5700   -0.0000 C   0  0  0  0  0  0  0  0  0  0  0  0
    9.5772    2.6032   -0.0000 O   0  0  0  0  0  0  0  0  0  0  0  0
   10.2310    0.2906   -0.0000 N   0  0  0  0  0  0  0  0  0  0  0  0
    3.8745   11.3570   -0.0000 C   0  0  0  0  0  0  0  0  0  0  0  0
    1.2108   11.3449   -0.0000 C   0  0  0  0  0  0  0  0  0  0  0  0
   11.7203    0.6296   -0.0000 C   0  0  0  0  0  0  0  0  0  0  0  0
    3.8624   12.9068   -0.0000 C   0  0  0  0  0  0  0  0  0  0  0  0
    1.1987   12.8947   -0.0000 C   0  0  0  0  0  0  0  0  0  0  0  0
   12.1803    2.1067   -0.0000 C   0  0  0  0  0  0  0  0  0  0  0  0
   12.7373   -0.4964   -0.0000 C   0  0  0  0  0  0  0  0  0  0  0  0
    2.5184   13.6817   -0.0000 C   0  0  0  0  0  0  0  0  0  0  0  0
   13.6696    2.4458   -0.0000 N   0  0  0  0  0  0  0  0  0  0  0  0
   14.2265   -0.1574   -0.0000 C   0  0  0  0  0  0  0  0  0  0  0  0
   14.6866    1.3197   -0.0000 C   0  0  0  0  0  0  0  0  0  0  0  0
   16.1759    1.6588   -0.0000 O   0  0  0  0  0  0  0  0  0  0  0  0
   16.5391    2.8453   -0.0000 C   0  0  0  0  0  0  0  0  0  0  0  0
  1  2  2  0  0  0  0
  2  3  1  0  0  0  0
  2  4  1  0  0  0  0
  3  5  1  0  0  0  0
  3  6  1  0  0  0  0
  4  7  1  0  0  0  0
  4  8  1  6  0  0  0
  5  9  1  0  0  0  0
  6 10  1  0  0  0  0
  7 11  1  0  0  0  0
  8 12  1  0  0  0  0
  9 13  1  0  0  0  0
 10 14  2  0  0  0  0
 10 15  1  0  0  0  0
 11 16  2  0  0  0  0
 11 17  1  0  0  0  0
 12 18  2  0  0  0  0
 12 19  1  0  0  0  0
 13 20  1  0  0  0  0
 13 21  1  0  0  0  0
 14 22  1  0  0  0  0
 14 23  1  0  0  0  0
 15 24  2  0  0  0  0
 18 25  1  0  0  0  0
 19 26  2  0  0  0  0
 20 27  1  0  0  0  0
 21 28  2  0  0  0  0
 21 29  1  0  0  0  0
 22 30  1  0  0  0  0
 22 31  1  0  0  0  0
 23 32  1  0  0  0  0
 23 33  2  0  0  0  0
 25 34  2  0  0  0  0
 27 35  1  0  0  0  0
 29 36  1  0  0  0  0
 32 37  1  0  0  0  0
 34 38  1  0  0  0  0
 35 39  2  0  0  0  0
 36 40  1  0  0  0  0
 37 41  2  0  0  0  0
 37 42  1  0  0  0  0
 40 43  2  0  0  0  0
 40 44  1  0  0  0  0
 42 45  1  0  0  0  0
 43 46  1  0  0  0  0
 44 47  2  0  0  0  0
 45 48  2  0  0  0  0
 45 49  1  0  0  0  0
 46 50  2  0  0  0  0
 48 51  1  0  0  0  0
 49 52  2  0  0  0  0
 51 53  2  0  0  0  0
 53 54  1  0  0  0  0
 54 55  1  0  0  0  0
  7  9  1  0  0  0  0
 17 20  1  0  0  0  0
 24 33  1  0  0  0  0
 26 34  1  0  0  0  0
 30 32  2  0  0  0  0
 47 50  1  0  0  0  0
 52 53  1  0  0  0  0
M  END
>  <MolRegNo>
2036098

>  <m>
=

>  <Value>
2160

>  <Unit>
nM

>  <Type>
IC50

>  <pValue>
5.67

>  <Ligand Efficiency>
0.14

>  <Binding Efficiency>
7.63

>  <Surface Efficiency>
3.71

>  <Assay Index>
974120

>  <Assay Category>


>  <Assay Organism>
Homo sapiens

>  <Target ID>
17045

>  <Target Name>
Cytochrome P450 3A4

>  <Target Organism>
Homo sapiens

>  <Target Description>
Target is a single protein chain

>  <Sequence Accession>
P08684

>  <Reference>


>  <Pubmed ID>


>  <DOI>


$$$$
2036099
Actelion Java MolfileCreator 1.0

 58 64  0  0  1  0  0  0  0  0999 V2000
    0.0000   -0.0000   -0.0000 O   0  0  0  0  0  0  0  0  0  0  0  0
   -0.0122    1.2535   -0.0000 C   0  0  0  0  0  0  0  0  0  0  0  0
    1.3144    2.0324   -0.0000 N   0  0  0  0  0  0  0  0  0  0  0  0
   -1.3630    2.0324   -0.0000 C   0  0  0  0  0  0  0  0  0  0  0  0
    1.3022    3.5901   -0.0000 C   0  0  0  0  0  0  0  0  0  0  0  0
    2.6409    1.2778   -0.0000 C   0  0  0  0  0  0  0  0  0  0  0  0
   -1.3752    3.5901   -0.0000 N   0  0  0  0  0  0  0  0  0  0  0  0
   -2.7139    1.2778   -0.0000 C   0  0  0  0  0  0  0  0  0  0  0  0
   -0.0487    4.3690   -0.0000 C   0  0  0  0  0  0  0  0  0  0  0  0
    3.9674    2.0689   -0.0000 C   0  0  0  0  0  0  0  0  0  0  0  0
   -2.7261    4.3690   -0.0000 C   0  0  0  0  0  0  0  0  0  0  0  0
   -4.0648    2.0689   -0.0000 C   0  0  0  0  0  0  0  0  0  0  0  0
   -0.0608    5.9268   -0.0000 N   0  0  0  0  0  0  0  0  0  0  0  0
    5.2939    1.3144   -0.0000 C   0  0  0  0  0  0  0  0  0  0  0  0
    3.9552    3.6267   -0.0000 C   0  0  0  0  0  0  0  0  0  0  0  0
   -3.8092    3.7605   -0.0000 O   0  0  0  0  0  0  0  0  0  0  0  0
   -2.7382    5.9268   -0.0000 C   0  0  0  0  0  0  0  0  0  0  0  0
   -5.4156    1.3144   -0.0000 C   0  0  0  0  0  0  0  0  0  0  0  0
   -4.0769    3.6267   -0.0000 C   0  0  0  0  0  0  0  0  0  0  0  0
   -1.4117    6.7057   -0.0000 N   0  0  0  0  0  0  0  0  0  0  0  0
    1.2657    6.7178   -0.0000 C   0  0  0  0  0  0  0  0  0  0  0  0
    5.6104   -0.1825   -0.0000 N   0  0  0  0  0  0  0  0  0  0  0  0
    6.6205    2.1054   -0.0000 C   0  0  0  0  0  0  0  0  0  0  0  0
    5.2818    4.4177   -0.0000 C   0  0  0  0  0  0  0  0  0  0  0  0
   -6.7665    2.1054   -0.0000 C   0  0  0  0  0  0  0  0  0  0  0  0
   -5.4278    4.4177   -0.0000 C   0  0  0  0  0  0  0  0  0  0  0  0
   -1.4239    8.2634   -0.0000 C   0  0  0  0  0  0  0  0  0  0  0  0
    2.3245    6.1093   -0.0000 O   0  0  0  0  0  0  0  0  0  0  0  0
    1.2535    8.2756   -0.0000 N   0  0  0  0  0  0  0  0  0  0  0  0
    7.1316   -0.3286   -0.0000 C   0  0  0  0  0  0  0  0  0  0  0  0
    4.7706   -1.0953   -0.0000 C   0  0  0  0  0  0  0  0  0  0  0  0
    7.7644    1.0831   -0.0000 C   0  0  0  0  0  0  0  0  0  0  0  0
    6.6083    3.6632   -0.0000 C   0  0  0  0  0  0  0  0  0  0  0  0
   -6.7787    3.6632   -0.0000 C   0  0  0  0  0  0  0  0  0  0  0  0
   -2.7748    9.0423   -0.0000 C   0  0  0  0  0  0  0  0  0  0  0  0
    2.5800    9.0666   -0.0000 C   0  0  0  0  0  0  0  0  0  0  0  0
    9.2613    1.4239   -0.0000 C   0  0  0  0  0  0  0  0  0  0  0  0
   -7.8618    4.2960   -0.0000 O   0  0  0  0  0  0  0  0  0  0  0  0
   -2.7869   10.2958   -0.0000 C   0  0  0  0  0  0  0  0  0  0  0  0
    2.5679   10.6244   -0.0000 C   0  0  0  0  0  0  0  0  0  0  0  0
    9.6264    2.6165   -0.0000 O   0  0  0  0  0  0  0  0  0  0  0  0
   10.2836    0.2921   -0.0000 N   0  0  0  0  0  0  0  0  0  0  0  0
    3.8944   11.4154   -0.0000 C   0  0  0  0  0  0  0  0  0  0  0  0
    1.2170   11.4033   -0.0000 C   0  0  0  0  0  0  0  0  0  0  0  0
   11.7805    0.6328   -0.0000 C   0  0  0  0  0  0  0  0  0  0  0  0
    3.8822   12.9732   -0.0000 C   0  0  0  0  0  0  0  0  0  0  0  0
    1.2048   12.9610   -0.0000 C   0  0  0  0  0  0  0  0  0  0  0  0
   12.8028   -0.4990   -0.0000 C   0  0  0  0  0  0  0  0  0  0  0  0
   12.2430    2.1176   -0.0000 C   0  0  0  0  0  0  0  0  0  0  0  0
    2.5314   13.7521   -0.0000 C   0  0  0  0  0  0  0  0  0  0  0  0
   14.2997   -0.1582   -0.0000 C   0  0  0  0  0  0  0  0  0  0  0  0
   13.7399    2.4583   -0.0000 C   0  0  0  0  0  0  0  0  0  0  0  0
   14.7622    1.3265   -0.0000 C   0  0  0  0  0  0  0  0  0  0  0  0
   16.2591    1.6673   -0.0000 O   0  0  0  0  0  0  0  0  0  0  0  0
   16.7215    3.1520   -0.0000 C   0  0  0  0  0  0  0  0  0  0  0  0
   17.9142    3.4319   -0.0000 C   0  0  0  0  0  0  0  0  0  0  0  0
   15.8818    4.0769   -0.0000 C   0  0  0  0  0  0  0  0  0  0  0  0
   17.0866    4.3447   -0.0000 C   0  0  0  0  0  0  0  0  0  0  0  0
  1  2  2  0  0  0  0
  2  3  1  0  0  0  0
  2  4  1  0  0  0  0
  3  5  1  0  0  0  0
  3  6  1  0  0  0  0
  4  7  1  0  0  0  0
  4  8  1  6  0  0  0
  5  9  1  0  0  0  0
  6 10  1  0  0  0  0
  7 11  1  0  0  0  0
  8 12  1  0  0  0  0
  9 13  1  1  0  0  0
 10 14  2  0  0  0  0
 10 15  1  0  0  0  0
 11 16  2  0  0  0  0
 11 17  1  0  0  0  0
 12 18  2  0  0  0  0
 12 19  1  0  0  0  0
 13 20  1  0  0  0  0
 13 21  1  0  0  0  0
 14 22  1  0  0  0  0
 14 23  1  0  0  0  0
 15 24  2  0  0  0  0
 18 25  1  0  0  0  0
 19 26  2  0  0  0  0
 20 27  1  0  0  0  0
 21 28  2  0  0  0  0
 21 29  1  0  0  0  0
 22 30  1  0  0  0  0
 22 31  1  0  0  0  0
 23 32  1  0  0  0  0
 23 33  2  0  0  0  0
 25 34  2  0  0  0  0
 27 35  1  0  0  0  0
 29 36  1  0  0  0  0
 32 37  1  0  0  0  0
 34 38  1  0  0  0  0
 35 39  2  0  0  0  0
 36 40  1  0  0  0  0
 37 41  2  0  0  0  0
 37 42  1  0  0  0  0
 40 43  2  0  0  0  0
 40 44  1  0  0  0  0
 42 45  1  0  0  0  0
 43 46  1  0  0  0  0
 44 47  2  0  0  0  0
 45 48  2  0  0  0  0
 45 49  1  0  0  0  0
 46 50  2  0  0  0  0
 48 51  1  0  0  0  0
 49 52  2  0  0  0  0
 51 53  2  0  0  0  0
 53 54  1  0  0  0  0
 54 55  1  0  0  0  0
 55 56  1  0  0  0  0
 55 57  1  0  0  0  0
 55 58  1  0  0  0  0
  7  9  1  0  0  0  0
 17 20  1  0  0  0  0
 24 33  1  0  0  0  0
 26 34  1  0  0  0  0
 30 32  2  0  0  0  0
 47 50  1  0  0  0  0
 52 53  1  0  0  0  0
M  END
>  <MolRegNo>
2036099

>  <m>
=

>  <Value>
19100

>  <Unit>
nM

>  <Type>
IC50

>  <pValue>
4.72

>  <Ligand Efficiency>
0.11

>  <Binding Efficiency>
6.02

>  <Surface Efficiency>
3.38

>  <Assay Index>
974120

>  <Assay Category>


>  <Assay Organism>
Homo sapiens

>  <Target ID>
17045

>  <Target Name>
Cytochrome P450 3A4

>  <Target Organism>
Homo sapiens

>  <Target Description>
Target is a single protein chain

>  <Sequence Accession>
P08684

>  <Reference>


>  <Pubmed ID>


>  <DOI>


$$$$
2036100
Actelion Java MolfileCreator 1.0

 56 62  0  0  1  0  0  0  0  0999 V2000
    0.0000   -0.0000   -0.0000 O   0  0  0  0  0  0  0  0  0  0  0  0
   -0.0121    1.2468   -0.0000 C   0  0  0  0  0  0  0  0  0  0  0  0
    1.3073    2.0214   -0.0000 N   0  0  0  0  0  0  0  0  0  0  0  0
   -1.3557    2.0214   -0.0000 C   0  0  0  0  0  0  0  0  0  0  0  0
    1.2952    3.5708   -0.0000 C   0  0  0  0  0  0  0  0  0  0  0  0
    2.6267    1.2710   -0.0000 C   0  0  0  0  0  0  0  0  0  0  0  0
   -1.3678    3.5708   -0.0000 N   0  0  0  0  0  0  0  0  0  0  0  0
   -2.6993    1.2710   -0.0000 C   0  0  0  0  0  0  0  0  0  0  0  0
   -0.0484    4.3455   -0.0000 C   0  0  0  0  0  0  0  0  0  0  0  0
    3.9460    2.0578   -0.0000 C   0  0  0  0  0  0  0  0  0  0  0  0
   -2.7114    4.3455   -0.0000 C   0  0  0  0  0  0  0  0  0  0  0  0
   -4.0429    2.0578   -0.0000 C   0  0  0  0  0  0  0  0  0  0  0  0
   -0.0605    5.8949   -0.0000 N   0  0  0  0  0  0  0  0  0  0  0  0
    5.2654    1.3073   -0.0000 C   0  0  0  0  0  0  0  0  0  0  0  0
    3.9339    3.6071   -0.0000 C   0  0  0  0  0  0  0  0  0  0  0  0
   -3.7887    3.7403   -0.0000 O   0  0  0  0  0  0  0  0  0  0  0  0
   -2.7235    5.8949   -0.0000 C   0  0  0  0  0  0  0  0  0  0  0  0
   -5.3865    1.3073   -0.0000 C   0  0  0  0  0  0  0  0  0  0  0  0
   -4.0550    3.6071   -0.0000 C   0  0  0  0  0  0  0  0  0  0  0  0
   -1.4041    6.6695   -0.0000 N   0  0  0  0  0  0  0  0  0  0  0  0
    1.2589    6.6817   -0.0000 C   0  0  0  0  0  0  0  0  0  0  0  0
    5.5801   -0.1816   -0.0000 N   0  0  0  0  0  0  0  0  0  0  0  0
    6.5848    2.0941   -0.0000 C   0  0  0  0  0  0  0  0  0  0  0  0
    5.2533    4.3939   -0.0000 C   0  0  0  0  0  0  0  0  0  0  0  0
   -6.7301    2.0941   -0.0000 C   0  0  0  0  0  0  0  0  0  0  0  0
   -5.3986    4.3939   -0.0000 C   0  0  0  0  0  0  0  0  0  0  0  0
   -1.4162    8.2189   -0.0000 C   0  0  0  0  0  0  0  0  0  0  0  0
    2.3119    6.0764   -0.0000 O   0  0  0  0  0  0  0  0  0  0  0  0
    1.2468    8.2310   -0.0000 N   0  0  0  0  0  0  0  0  0  0  0  0
    7.0932   -0.3268   -0.0000 C   0  0  0  0  0  0  0  0  0  0  0  0
    4.7449   -1.0894   -0.0000 C   0  0  0  0  0  0  0  0  0  0  0  0
    7.7226    1.0773   -0.0000 C   0  0  0  0  0  0  0  0  0  0  0  0
    6.5727    3.6434   -0.0000 C   0  0  0  0  0  0  0  0  0  0  0  0
   -6.7422    3.6434   -0.0000 C   0  0  0  0  0  0  0  0  0  0  0  0
   -2.7598    8.9936   -0.0000 C   0  0  0  0  0  0  0  0  0  0  0  0
    2.5661    9.0178   -0.0000 C   0  0  0  0  0  0  0  0  0  0  0  0
    9.2115    1.4162   -0.0000 C   0  0  0  0  0  0  0  0  0  0  0  0
   -7.8195    4.2729   -0.0000 O   0  0  0  0  0  0  0  0  0  0  0  0
   -2.7719   10.2404   -0.0000 C   0  0  0  0  0  0  0  0  0  0  0  0
    2.5540   10.5672   -0.0000 C   0  0  0  0  0  0  0  0  0  0  0  0
    9.5746    2.6025   -0.0000 O   0  0  0  0  0  0  0  0  0  0  0  0
   10.2283    0.2905   -0.0000 N   0  0  0  0  0  0  0  0  0  0  0  0
    3.8734   11.3540   -0.0000 C   0  0  0  0  0  0  0  0  0  0  0  0
    1.2104   11.3419   -0.0000 C   0  0  0  0  0  0  0  0  0  0  0  0
   11.7171    0.6294   -0.0000 C   0  0  0  0  0  0  0  0  0  0  0  0
    3.8613   12.9033   -0.0000 C   0  0  0  0  0  0  0  0  0  0  0  0
    1.1983   12.8912   -0.0000 C   0  0  0  0  0  0  0  0  0  0  0  0
   12.7339   -0.4963   -0.0000 C   0  0  0  0  0  0  0  0  0  0  0  0
   12.1771    2.1062   -0.0000 C   0  0  0  0  0  0  0  0  0  0  0  0
    2.5177   13.6780   -0.0000 C   0  0  0  0  0  0  0  0  0  0  0  0
   14.2227   -0.1574   -0.0000 C   0  0  0  0  0  0  0  0  0  0  0  0
   13.6659    2.4451   -0.0000 C   0  0  0  0  0  0  0  0  0  0  0  0
   14.6827    1.3194   -0.0000 C   0  0  0  0  0  0  0  0  0  0  0  0
   16.1715    1.6583   -0.0000 C   0  0  0  0  0  0  0  0  0  0  0  0
   16.6315    3.1351   -0.0000 C   0  0  0  0  0  0  0  0  0  0  0  0
   17.8177    3.4135   -0.0000 O   0  0  0  0  0  0  0  0  0  0  0  0
  1  2  2  0  0  0  0
  2  3  1  0  0  0  0
  2  4  1  0  0  0  0
  3  5  1  0  0  0  0
  3  6  1  0  0  0  0
  4  7  1  0  0  0  0
  4  8  1  6  0  0  0
  5  9  1  0  0  0  0
  6 10  1  0  0  0  0
  7 11  1  0  0  0  0
  8 12  1  0  0  0  0
  9 13  1  0  0  0  0
 10 14  2  0  0  0  0
 10 15  1  0  0  0  0
 11 16  2  0  0  0  0
 11 17  1  0  0  0  0
 12 18  2  0  0  0  0
 12 19  1  0  0  0  0
 13 20  1  0  0  0  0
 13 21  1  0  0  0  0
 14 22  1  0  0  0  0
 14 23  1  0  0  0  0
 15 24  2  0  0  0  0
 18 25  1  0  0  0  0
 19 26  2  0  0  0  0
 20 27  1  0  0  0  0
 21 28  2  0  0  0  0
 21 29  1  0  0  0  0
 22 30  1  0  0  0  0
 22 31  1  0  0  0  0
 23 32  1  0  0  0  0
 23 33  2  0  0  0  0
 25 34  2  0  0  0  0
 27 35  1  0  0  0  0
 29 36  1  0  0  0  0
 32 37  1  0  0  0  0
 34 38  1  0  0  0  0
 35 39  2  0  0  0  0
 36 40  1  0  0  0  0
 37 41  2  0  0  0  0
 37 42  1  0  0  0  0
 40 43  2  0  0  0  0
 40 44  1  0  0  0  0
 42 45  1  0  0  0  0
 43 46  1  0  0  0  0
 44 47  2  0  0  0  0
 45 48  2  0  0  0  0
 45 49  1  0  0  0  0
 46 50  2  0  0  0  0
 48 51  1  0  0  0  0
 49 52  2  0  0  0  0
 51 53  2  0  0  0  0
 53 54  1  0  0  0  0
 54 55  1  0  0  0  0
 55 56  1  0  0  0  0
  7  9  1  0  0  0  0
 17 20  1  0  0  0  0
 24 33  1  0  0  0  0
 26 34  1  0  0  0  0
 30 32  2  0  0  0  0
 47 50  1  0  0  0  0
 52 53  1  0  0  0  0
M  END
>  <MolRegNo>
2036100

>  <m>
=

>  <Value>
7400

>  <Unit>
nM

>  <Type>
IC50

>  <pValue>
5.13

>  <Ligand Efficiency>
0.13

>  <Binding Efficiency>
6.79

>  <Surface Efficiency>
3.4

>  <Assay Index>
974120

>  <Assay Category>


>  <Assay Organism>
Homo sapiens

>  <Target ID>
17045

>  <Target Name>
Cytochrome P450 3A4

>  <Target Organism>
Homo sapiens

>  <Target Description>
Target is a single protein chain

>  <Sequence Accession>
P08684

>  <Reference>


>  <Pubmed ID>


>  <DOI>


$$$$
2036101
Actelion Java MolfileCreator 1.0

 58 64  0  0  1  0  0  0  0  0999 V2000
    0.0000   -0.0000   -0.0000 O   0  0  0  0  0  0  0  0  0  0  0  0
   -0.0121    1.2458   -0.0000 C   0  0  0  0  0  0  0  0  0  0  0  0
    1.3063    2.0199   -0.0000 N   0  0  0  0  0  0  0  0  0  0  0  0
   -1.3547    2.0199   -0.0000 C   0  0  0  0  0  0  0  0  0  0  0  0
    1.2942    3.5681   -0.0000 C   0  0  0  0  0  0  0  0  0  0  0  0
    2.6247    1.2700   -0.0000 C   0  0  0  0  0  0  0  0  0  0  0  0
   -1.3668    3.5681   -0.0000 N   0  0  0  0  0  0  0  0  0  0  0  0
   -2.6972    1.2700   -0.0000 C   0  0  0  0  0  0  0  0  0  0  0  0
   -0.0484    4.3422   -0.0000 C   0  0  0  0  0  0  0  0  0  0  0  0
    3.9430    2.0562   -0.0000 C   0  0  0  0  0  0  0  0  0  0  0  0
   -2.7093    4.3422   -0.0000 C   0  0  0  0  0  0  0  0  0  0  0  0
   -4.0398    2.0562   -0.0000 C   0  0  0  0  0  0  0  0  0  0  0  0
   -0.0605    5.8903   -0.0000 N   0  0  0  0  0  0  0  0  0  0  0  0
    5.2614    1.3063   -0.0000 C   0  0  0  0  0  0  0  0  0  0  0  0
    3.9309    3.6044   -0.0000 C   0  0  0  0  0  0  0  0  0  0  0  0
   -3.7858    3.7374   -0.0000 O   0  0  0  0  0  0  0  0  0  0  0  0
   -2.7214    5.8903   -0.0000 C   0  0  0  0  0  0  0  0  0  0  0  0
   -5.3823    1.3063   -0.0000 C   0  0  0  0  0  0  0  0  0  0  0  0
   -4.0519    3.6044   -0.0000 C   0  0  0  0  0  0  0  0  0  0  0  0
   -1.4030    6.6644   -0.0000 N   0  0  0  0  0  0  0  0  0  0  0  0
    1.2579    6.6765   -0.0000 C   0  0  0  0  0  0  0  0  0  0  0  0
    5.5759   -0.1814   -0.0000 N   0  0  0  0  0  0  0  0  0  0  0  0
    6.5798    2.0925   -0.0000 C   0  0  0  0  0  0  0  0  0  0  0  0
    5.2493    4.3905   -0.0000 C   0  0  0  0  0  0  0  0  0  0  0  0
   -6.7249    2.0925   -0.0000 C   0  0  0  0  0  0  0  0  0  0  0  0
   -5.3944    4.3905   -0.0000 C   0  0  0  0  0  0  0  0  0  0  0  0
   -1.4151    8.2126   -0.0000 C   0  0  0  0  0  0  0  0  0  0  0  0
    2.3102    6.0718   -0.0000 O   0  0  0  0  0  0  0  0  0  0  0  0
    1.2458    8.2247   -0.0000 N   0  0  0  0  0  0  0  0  0  0  0  0
    7.0878   -0.3266   -0.0000 C   0  0  0  0  0  0  0  0  0  0  0  0
    4.7413   -1.0886   -0.0000 C   0  0  0  0  0  0  0  0  0  0  0  0
    7.7167    1.0765   -0.0000 C   0  0  0  0  0  0  0  0  0  0  0  0
    6.5677    3.6406   -0.0000 C   0  0  0  0  0  0  0  0  0  0  0  0
   -6.7370    3.6406   -0.0000 C   0  0  0  0  0  0  0  0  0  0  0  0
   -2.7577    8.9867   -0.0000 C   0  0  0  0  0  0  0  0  0  0  0  0
    2.5642    9.0109   -0.0000 C   0  0  0  0  0  0  0  0  0  0  0  0
    9.2044    1.4151   -0.0000 C   0  0  0  0  0  0  0  0  0  0  0  0
   -7.8135    4.2696   -0.0000 O   0  0  0  0  0  0  0  0  0  0  0  0
   -2.7698   10.2325   -0.0000 C   0  0  0  0  0  0  0  0  0  0  0  0
    2.5521   10.5591   -0.0000 C   0  0  0  0  0  0  0  0  0  0  0  0
    9.5673    2.6005   -0.0000 O   0  0  0  0  0  0  0  0  0  0  0  0
   10.2204    0.2903   -0.0000 N   0  0  0  0  0  0  0  0  0  0  0  0
    3.8705   11.3453   -0.0000 C   0  0  0  0  0  0  0  0  0  0  0  0
    1.2095   11.3332   -0.0000 C   0  0  0  0  0  0  0  0  0  0  0  0
   11.7081    0.6289   -0.0000 C   0  0  0  0  0  0  0  0  0  0  0  0
    3.8584   12.8934   -0.0000 C   0  0  0  0  0  0  0  0  0  0  0  0
    1.1974   12.8814   -0.0000 C   0  0  0  0  0  0  0  0  0  0  0  0
   12.1677    2.1046   -0.0000 C   0  0  0  0  0  0  0  0  0  0  0  0
   12.7241   -0.4959   -0.0000 C   0  0  0  0  0  0  0  0  0  0  0  0
    2.5158   13.6675   -0.0000 C   0  0  0  0  0  0  0  0  0  0  0  0
   13.6554    2.4432   -0.0000 N   0  0  0  0  0  0  0  0  0  0  0  0
   14.2118   -0.1572   -0.0000 C   0  0  0  0  0  0  0  0  0  0  0  0
   14.6714    1.3184   -0.0000 C   0  0  0  0  0  0  0  0  0  0  0  0
   16.1591    1.6570   -0.0000 O   0  0  0  0  0  0  0  0  0  0  0  0
   16.6188    3.1326   -0.0000 C   0  0  0  0  0  0  0  0  0  0  0  0
   18.1065    3.4713   -0.0000 C   0  0  0  0  0  0  0  0  0  0  0  0
   18.5661    4.9469   -0.0000 O   0  0  0  0  0  0  0  0  0  0  0  0
   19.7514    5.2251   -0.0000 C   0  0  0  0  0  0  0  0  0  0  0  0
  1  2  2  0  0  0  0
  2  3  1  0  0  0  0
  2  4  1  0  0  0  0
  3  5  1  0  0  0  0
  3  6  1  0  0  0  0
  4  7  1  0  0  0  0
  4  8  1  6  0  0  0
  5  9  1  0  0  0  0
  6 10  1  0  0  0  0
  7 11  1  0  0  0  0
  8 12  1  0  0  0  0
  9 13  1  1  0  0  0
 10 14  2  0  0  0  0
 10 15  1  0  0  0  0
 11 16  2  0  0  0  0
 11 17  1  0  0  0  0
 12 18  2  0  0  0  0
 12 19  1  0  0  0  0
 13 20  1  0  0  0  0
 13 21  1  0  0  0  0
 14 22  1  0  0  0  0
 14 23  1  0  0  0  0
 15 24  2  0  0  0  0
 18 25  1  0  0  0  0
 19 26  2  0  0  0  0
 20 27  1  0  0  0  0
 21 28  2  0  0  0  0
 21 29  1  0  0  0  0
 22 30  1  0  0  0  0
 22 31  1  0  0  0  0
 23 32  1  0  0  0  0
 23 33  2  0  0  0  0
 25 34  2  0  0  0  0
 27 35  1  0  0  0  0
 29 36  1  0  0  0  0
 32 37  1  0  0  0  0
 34 38  1  0  0  0  0
 35 39  2  0  0  0  0
 36 40  1  0  0  0  0
 37 41  2  0  0  0  0
 37 42  1  0  0  0  0
 40 43  2  0  0  0  0
 40 44  1  0  0  0  0
 42 45  1  0  0  0  0
 43 46  1  0  0  0  0
 44 47  2  0  0  0  0
 45 48  2  0  0  0  0
 45 49  1  0  0  0  0
 46 50  2  0  0  0  0
 48 51  1  0  0  0  0
 49 52  2  0  0  0  0
 51 53  2  0  0  0  0
 53 54  1  0  0  0  0
 54 55  1  0  0  0  0
 55 56  1  0  0  0  0
 56 57  1  0  0  0  0
 57 58  1  0  0  0  0
  7  9  1  0  0  0  0
 17 20  1  0  0  0  0
 24 33  1  0  0  0  0
 26 34  1  0  0  0  0
 30 32  2  0  0  0  0
 47 50  1  0  0  0  0
 52 53  1  0  0  0  0
M  END
>  <MolRegNo>
2036101

>  <m>
=

>  <Value>
7620

>  <Unit>
nM

>  <Type>
IC50

>  <pValue>
5.12

>  <Ligand Efficiency>
0.12

>  <Binding Efficiency>
6.5

>  <Surface Efficiency>
3.16

>  <Assay Index>
974120

>  <Assay Category>


>  <Assay Organism>
Homo sapiens

>  <Target ID>
17045

>  <Target Name>
Cytochrome P450 3A4

>  <Target Organism>
Homo sapiens

>  <Target Description>
Target is a single protein chain

>  <Sequence Accession>
P08684

>  <Reference>


>  <Pubmed ID>


>  <DOI>


$$$$
2036102
Actelion Java MolfileCreator 1.0

 59 65  0  0  1  0  0  0  0  0999 V2000
    0.0000   -0.0000   -0.0000 O   0  0  0  0  0  0  0  0  0  0  0  0
   -0.0121    1.2491   -0.0000 C   0  0  0  0  0  0  0  0  0  0  0  0
    1.3097    2.0253   -0.0000 N   0  0  0  0  0  0  0  0  0  0  0  0
   -1.3583    2.0253   -0.0000 C   0  0  0  0  0  0  0  0  0  0  0  0
    1.2976    3.5776   -0.0000 C   0  0  0  0  0  0  0  0  0  0  0  0
    2.6316    1.2734   -0.0000 C   0  0  0  0  0  0  0  0  0  0  0  0
   -1.3704    3.5776   -0.0000 N   0  0  0  0  0  0  0  0  0  0  0  0
   -2.7044    1.2734   -0.0000 C   0  0  0  0  0  0  0  0  0  0  0  0
   -0.0485    4.3537   -0.0000 C   0  0  0  0  0  0  0  0  0  0  0  0
    3.9535    2.0616   -0.0000 C   0  0  0  0  0  0  0  0  0  0  0  0
   -2.7165    4.3537   -0.0000 C   0  0  0  0  0  0  0  0  0  0  0  0
   -4.0505    2.0616   -0.0000 C   0  0  0  0  0  0  0  0  0  0  0  0
   -0.0606    5.9060   -0.0000 N   0  0  0  0  0  0  0  0  0  0  0  0
    5.2754    1.3097   -0.0000 C   0  0  0  0  0  0  0  0  0  0  0  0
    3.9414    3.6139   -0.0000 C   0  0  0  0  0  0  0  0  0  0  0  0
   -3.7958    3.7473   -0.0000 O   0  0  0  0  0  0  0  0  0  0  0  0
   -2.7286    5.9060   -0.0000 C   0  0  0  0  0  0  0  0  0  0  0  0
   -5.3967    1.3097   -0.0000 C   0  0  0  0  0  0  0  0  0  0  0  0
   -4.0626    3.6139   -0.0000 C   0  0  0  0  0  0  0  0  0  0  0  0
   -1.4068    6.6821   -0.0000 N   0  0  0  0  0  0  0  0  0  0  0  0
    1.2612    6.6943   -0.0000 C   0  0  0  0  0  0  0  0  0  0  0  0
    5.5907   -0.1819   -0.0000 N   0  0  0  0  0  0  0  0  0  0  0  0
    6.5973    2.0980   -0.0000 C   0  0  0  0  0  0  0  0  0  0  0  0
    5.2633    4.4022   -0.0000 C   0  0  0  0  0  0  0  0  0  0  0  0
   -6.7428    2.0980   -0.0000 C   0  0  0  0  0  0  0  0  0  0  0  0
   -5.4088    4.4022   -0.0000 C   0  0  0  0  0  0  0  0  0  0  0  0
   -1.4189    8.2344   -0.0000 C   0  0  0  0  0  0  0  0  0  0  0  0
    2.3163    6.0879   -0.0000 O   0  0  0  0  0  0  0  0  0  0  0  0
    1.2491    8.2466   -0.0000 N   0  0  0  0  0  0  0  0  0  0  0  0
    7.1066   -0.3274   -0.0000 C   0  0  0  0  0  0  0  0  0  0  0  0
    4.7539   -1.0915   -0.0000 C   0  0  0  0  0  0  0  0  0  0  0  0
    7.7372    1.0793   -0.0000 C   0  0  0  0  0  0  0  0  0  0  0  0
    6.5851    3.6503   -0.0000 C   0  0  0  0  0  0  0  0  0  0  0  0
   -6.7549    3.6503   -0.0000 C   0  0  0  0  0  0  0  0  0  0  0  0
   -2.7650    9.0106   -0.0000 C   0  0  0  0  0  0  0  0  0  0  0  0
    2.5710    9.0348   -0.0000 C   0  0  0  0  0  0  0  0  0  0  0  0
    9.2289    1.4189   -0.0000 C   0  0  0  0  0  0  0  0  0  0  0  0
   -7.8342    4.2809   -0.0000 O   0  0  0  0  0  0  0  0  0  0  0  0
   -2.7772   10.2597   -0.0000 C   0  0  0  0  0  0  0  0  0  0  0  0
    2.5589   10.5871   -0.0000 C   0  0  0  0  0  0  0  0  0  0  0  0
    9.5927    2.6074   -0.0000 O   0  0  0  0  0  0  0  0  0  0  0  0
   10.2476    0.2911   -0.0000 N   0  0  0  0  0  0  0  0  0  0  0  0
    3.8807   11.3754   -0.0000 C   0  0  0  0  0  0  0  0  0  0  0  0
    1.2127   11.3633   -0.0000 C   0  0  0  0  0  0  0  0  0  0  0  0
   11.7392    0.6306   -0.0000 C   0  0  0  0  0  0  0  0  0  0  0  0
    3.8686   12.9277   -0.0000 C   0  0  0  0  0  0  0  0  0  0  0  0
    1.2006   12.9156   -0.0000 C   0  0  0  0  0  0  0  0  0  0  0  0
   12.2001    2.1102   -0.0000 C   0  0  0  0  0  0  0  0  0  0  0  0
   12.7579   -0.4972   -0.0000 C   0  0  0  0  0  0  0  0  0  0  0  0
    2.5225   13.7039   -0.0000 C   0  0  0  0  0  0  0  0  0  0  0  0
   13.6917    2.4497   -0.0000 N   0  0  0  0  0  0  0  0  0  0  0  0
   14.2496   -0.1577   -0.0000 C   0  0  0  0  0  0  0  0  0  0  0  0
   14.7104    1.3219   -0.0000 C   0  0  0  0  0  0  0  0  0  0  0  0
   16.2021    1.6614   -0.0000 O   0  0  0  0  0  0  0  0  0  0  0  0
   16.6629    3.1410   -0.0000 C   0  0  0  0  0  0  0  0  0  0  0  0
   18.1546    3.4805   -0.0000 C   0  0  0  0  0  0  0  0  0  0  0  0
   18.6154    4.9601   -0.0000 N   0  0  0  0  0  0  0  0  0  0  0  0
   19.8039    5.2390   -0.0000 C   0  0  0  0  0  0  0  0  0  0  0  0
   17.7786    5.8817   -0.0000 C   0  0  0  0  0  0  0  0  0  0  0  0
  1  2  2  0  0  0  0
  2  3  1  0  0  0  0
  2  4  1  0  0  0  0
  3  5  1  0  0  0  0
  3  6  1  0  0  0  0
  4  7  1  0  0  0  0
  4  8  1  6  0  0  0
  5  9  1  0  0  0  0
  6 10  1  0  0  0  0
  7 11  1  0  0  0  0
  8 12  1  0  0  0  0
  9 13  1  1  0  0  0
 10 14  2  0  0  0  0
 10 15  1  0  0  0  0
 11 16  2  0  0  0  0
 11 17  1  0  0  0  0
 12 18  2  0  0  0  0
 12 19  1  0  0  0  0
 13 20  1  0  0  0  0
 13 21  1  0  0  0  0
 14 22  1  0  0  0  0
 14 23  1  0  0  0  0
 15 24  2  0  0  0  0
 18 25  1  0  0  0  0
 19 26  2  0  0  0  0
 20 27  1  0  0  0  0
 21 28  2  0  0  0  0
 21 29  1  0  0  0  0
 22 30  1  0  0  0  0
 22 31  1  0  0  0  0
 23 32  1  0  0  0  0
 23 33  2  0  0  0  0
 25 34  2  0  0  0  0
 27 35  1  0  0  0  0
 29 36  1  0  0  0  0
 32 37  1  0  0  0  0
 34 38  1  0  0  0  0
 35 39  2  0  0  0  0
 36 40  1  0  0  0  0
 37 41  2  0  0  0  0
 37 42  1  0  0  0  0
 40 43  2  0  0  0  0
 40 44  1  0  0  0  0
 42 45  1  0  0  0  0
 43 46  1  0  0  0  0
 44 47  2  0  0  0  0
 45 48  2  0  0  0  0
 45 49  1  0  0  0  0
 46 50  2  0  0  0  0
 48 51  1  0  0  0  0
 49 52  2  0  0  0  0
 51 53  2  0  0  0  0
 53 54  1  0  0  0  0
 54 55  1  0  0  0  0
 55 56  1  0  0  0  0
 56 57  1  0  0  0  0
 57 58  1  0  0  0  0
 57 59  1  0  0  0  0
  7  9  1  0  0  0  0
 17 20  1  0  0  0  0
 24 33  1  0  0  0  0
 26 34  1  0  0  0  0
 30 32  2  0  0  0  0
 47 50  1  0  0  0  0
 52 53  1  0  0  0  0
M  END
>  <MolRegNo>
2036102

>  <m>
=

>  <Value>
10100

>  <Unit>
nM

>  <Type>
IC50

>  <pValue>
5

>  <Ligand Efficiency>
0.12

>  <Binding Efficiency>
6.25

>  <Surface Efficiency>
3.21

>  <Assay Index>
974120

>  <Assay Category>


>  <Assay Organism>
Homo sapiens

>  <Target ID>
17045

>  <Target Name>
Cytochrome P450 3A4

>  <Target Organism>
Homo sapiens

>  <Target Description>
Target is a single protein chain

>  <Sequence Accession>
P08684

>  <Reference>


>  <Pubmed ID>


>  <DOI>


$$$$
2036103
Actelion Java MolfileCreator 1.0

 60 66  0  0  1  0  0  0  0  0999 V2000
    0.0000   -0.0000   -0.0000 O   0  0  0  0  0  0  0  0  0  0  0  0
   -0.0121    1.2489   -0.0000 C   0  0  0  0  0  0  0  0  0  0  0  0
    1.3095    2.0249   -0.0000 N   0  0  0  0  0  0  0  0  0  0  0  0
   -1.3580    2.0249   -0.0000 C   0  0  0  0  0  0  0  0  0  0  0  0
    1.2974    3.5769   -0.0000 C   0  0  0  0  0  0  0  0  0  0  0  0
    2.6312    1.2731   -0.0000 C   0  0  0  0  0  0  0  0  0  0  0  0
   -1.3701    3.5769   -0.0000 N   0  0  0  0  0  0  0  0  0  0  0  0
   -2.7039    1.2731   -0.0000 C   0  0  0  0  0  0  0  0  0  0  0  0
   -0.0485    4.3529   -0.0000 C   0  0  0  0  0  0  0  0  0  0  0  0
    3.9528    2.0613   -0.0000 C   0  0  0  0  0  0  0  0  0  0  0  0
   -2.7160    4.3529   -0.0000 C   0  0  0  0  0  0  0  0  0  0  0  0
   -4.0498    2.0613   -0.0000 C   0  0  0  0  0  0  0  0  0  0  0  0
   -0.0606    5.9049   -0.0000 N   0  0  0  0  0  0  0  0  0  0  0  0
    5.2744    1.3095   -0.0000 C   0  0  0  0  0  0  0  0  0  0  0  0
    3.9407    3.6133   -0.0000 C   0  0  0  0  0  0  0  0  0  0  0  0
   -3.7952    3.7467   -0.0000 O   0  0  0  0  0  0  0  0  0  0  0  0
   -2.7282    5.9049   -0.0000 C   0  0  0  0  0  0  0  0  0  0  0  0
   -5.3957    1.3095   -0.0000 C   0  0  0  0  0  0  0  0  0  0  0  0
   -4.0619    3.6133   -0.0000 C   0  0  0  0  0  0  0  0  0  0  0  0
   -1.4065    6.6810   -0.0000 N   0  0  0  0  0  0  0  0  0  0  0  0
    1.2610    6.6931   -0.0000 C   0  0  0  0  0  0  0  0  0  0  0  0
    5.5897   -0.1819   -0.0000 N   0  0  0  0  0  0  0  0  0  0  0  0
    6.5961    2.0976   -0.0000 C   0  0  0  0  0  0  0  0  0  0  0  0
    5.2623    4.4014   -0.0000 C   0  0  0  0  0  0  0  0  0  0  0  0
   -6.7416    2.0976   -0.0000 C   0  0  0  0  0  0  0  0  0  0  0  0
   -5.4078    4.4014   -0.0000 C   0  0  0  0  0  0  0  0  0  0  0  0
   -1.4186    8.2330   -0.0000 C   0  0  0  0  0  0  0  0  0  0  0  0
    2.3159    6.0868   -0.0000 O   0  0  0  0  0  0  0  0  0  0  0  0
    1.2489    8.2451   -0.0000 N   0  0  0  0  0  0  0  0  0  0  0  0
    7.1053   -0.3274   -0.0000 C   0  0  0  0  0  0  0  0  0  0  0  0
    4.7531   -1.0913   -0.0000 C   0  0  0  0  0  0  0  0  0  0  0  0
    7.7358    1.0791   -0.0000 C   0  0  0  0  0  0  0  0  0  0  0  0
    6.5840    3.6497   -0.0000 C   0  0  0  0  0  0  0  0  0  0  0  0
   -6.7537    3.6497   -0.0000 C   0  0  0  0  0  0  0  0  0  0  0  0
   -2.7645    9.0090   -0.0000 C   0  0  0  0  0  0  0  0  0  0  0  0
    2.5705    9.0332   -0.0000 C   0  0  0  0  0  0  0  0  0  0  0  0
    9.2272    1.4186   -0.0000 C   0  0  0  0  0  0  0  0  0  0  0  0
   -7.8328    4.2802   -0.0000 O   0  0  0  0  0  0  0  0  0  0  0  0
   -2.7767   10.2579   -0.0000 C   0  0  0  0  0  0  0  0  0  0  0  0
    2.5584   10.5852   -0.0000 C   0  0  0  0  0  0  0  0  0  0  0  0
    9.5910    2.6069   -0.0000 O   0  0  0  0  0  0  0  0  0  0  0  0
   10.2457    0.2910   -0.0000 N   0  0  0  0  0  0  0  0  0  0  0  0
    3.8800   11.3734   -0.0000 C   0  0  0  0  0  0  0  0  0  0  0  0
    1.2125   11.3613   -0.0000 C   0  0  0  0  0  0  0  0  0  0  0  0
   11.7371    0.6305   -0.0000 C   0  0  0  0  0  0  0  0  0  0  0  0
    3.8679   12.9254   -0.0000 C   0  0  0  0  0  0  0  0  0  0  0  0
    1.2004   12.9133   -0.0000 C   0  0  0  0  0  0  0  0  0  0  0  0
   12.1979    2.1098   -0.0000 C   0  0  0  0  0  0  0  0  0  0  0  0
   12.7556   -0.4971   -0.0000 C   0  0  0  0  0  0  0  0  0  0  0  0
    2.5220   13.7014   -0.0000 C   0  0  0  0  0  0  0  0  0  0  0  0
   13.6893    2.4493   -0.0000 N   0  0  0  0  0  0  0  0  0  0  0  0
   14.2470   -0.1576   -0.0000 C   0  0  0  0  0  0  0  0  0  0  0  0
   14.7078    1.3216   -0.0000 C   0  0  0  0  0  0  0  0  0  0  0  0
   16.1992    1.6611   -0.0000 O   0  0  0  0  0  0  0  0  0  0  0  0
   16.6599    3.1404   -0.0000 C   0  0  0  0  0  0  0  0  0  0  0  0
   18.1513    3.4799   -0.0000 C   0  0  0  0  0  0  0  0  0  0  0  0
   18.6121    4.9592   -0.0000 C   0  0  0  0  0  0  0  0  0  0  0  0
   20.1035    5.2987   -0.0000 N   0  0  0  0  0  0  0  0  0  0  0  0
   20.4672    6.4870   -0.0000 C   0  0  0  0  0  0  0  0  0  0  0  0
   20.9159    4.4014   -0.0000 C   0  0  0  0  0  0  0  0  0  0  0  0
  1  2  2  0  0  0  0
  2  3  1  0  0  0  0
  2  4  1  0  0  0  0
  3  5  1  0  0  0  0
  3  6  1  0  0  0  0
  4  7  1  0  0  0  0
  4  8  1  6  0  0  0
  5  9  1  0  0  0  0
  6 10  1  0  0  0  0
  7 11  1  0  0  0  0
  8 12  1  0  0  0  0
  9 13  1  1  0  0  0
 10 14  2  0  0  0  0
 10 15  1  0  0  0  0
 11 16  2  0  0  0  0
 11 17  1  0  0  0  0
 12 18  2  0  0  0  0
 12 19  1  0  0  0  0
 13 20  1  0  0  0  0
 13 21  1  0  0  0  0
 14 22  1  0  0  0  0
 14 23  1  0  0  0  0
 15 24  2  0  0  0  0
 18 25  1  0  0  0  0
 19 26  2  0  0  0  0
 20 27  1  0  0  0  0
 21 28  2  0  0  0  0
 21 29  1  0  0  0  0
 22 30  1  0  0  0  0
 22 31  1  0  0  0  0
 23 32  1  0  0  0  0
 23 33  2  0  0  0  0
 25 34  2  0  0  0  0
 27 35  1  0  0  0  0
 29 36  1  0  0  0  0
 32 37  1  0  0  0  0
 34 38  1  0  0  0  0
 35 39  2  0  0  0  0
 36 40  1  0  0  0  0
 37 41  2  0  0  0  0
 37 42  1  0  0  0  0
 40 43  2  0  0  0  0
 40 44  1  0  0  0  0
 42 45  1  0  0  0  0
 43 46  1  0  0  0  0
 44 47  2  0  0  0  0
 45 48  2  0  0  0  0
 45 49  1  0  0  0  0
 46 50  2  0  0  0  0
 48 51  1  0  0  0  0
 49 52  2  0  0  0  0
 51 53  2  0  0  0  0
 53 54  1  0  0  0  0
 54 55  1  0  0  0  0
 55 56  1  0  0  0  0
 56 57  1  0  0  0  0
 57 58  1  0  0  0  0
 58 59  1  0  0  0  0
 58 60  1  0  0  0  0
  7  9  1  0  0  0  0
 17 20  1  0  0  0  0
 24 33  1  0  0  0  0
 26 34  1  0  0  0  0
 30 32  2  0  0  0  0
 47 50  1  0  0  0  0
 52 53  1  0  0  0  0
M  END
>  <MolRegNo>
2036103

>  <m>
=

>  <Value>
13030

>  <Unit>
nM

>  <Type>
IC50

>  <pValue>
4.88

>  <Ligand Efficiency>
0.11

>  <Binding Efficiency>
6

>  <Surface Efficiency>
3.14

>  <Assay Index>
974120

>  <Assay Category>


>  <Assay Organism>
Homo sapiens

>  <Target ID>
17045

>  <Target Name>
Cytochrome P450 3A4

>  <Target Organism>
Homo sapiens

>  <Target Description>
Target is a single protein chain

>  <Sequence Accession>
P08684

>  <Reference>


>  <Pubmed ID>


>  <DOI>


$$$$
2036104
Actelion Java MolfileCreator 1.0

 56 62  0  0  1  0  0  0  0  0999 V2000
    0.0000   -0.0000   -0.0000 O   0  0  0  0  0  0  0  0  0  0  0  0
   -0.0121    1.2510   -0.0000 C   0  0  0  0  0  0  0  0  0  0  0  0
    1.3117    2.0283   -0.0000 N   0  0  0  0  0  0  0  0  0  0  0  0
   -1.3603    2.0283   -0.0000 C   0  0  0  0  0  0  0  0  0  0  0  0
    1.2996    3.5830   -0.0000 C   0  0  0  0  0  0  0  0  0  0  0  0
    2.6356    1.2753   -0.0000 C   0  0  0  0  0  0  0  0  0  0  0  0
   -1.3725    3.5830   -0.0000 N   0  0  0  0  0  0  0  0  0  0  0  0
   -2.7085    1.2753   -0.0000 C   0  0  0  0  0  0  0  0  0  0  0  0
   -0.0486    4.3603   -0.0000 C   0  0  0  0  0  0  0  0  0  0  0  0
    3.9595    2.0648   -0.0000 C   0  0  0  0  0  0  0  0  0  0  0  0
   -2.7206    4.3603   -0.0000 C   0  0  0  0  0  0  0  0  0  0  0  0
   -4.0567    2.0648   -0.0000 C   0  0  0  0  0  0  0  0  0  0  0  0
   -0.0607    5.9150   -0.0000 N   0  0  0  0  0  0  0  0  0  0  0  0
    5.2834    1.3117   -0.0000 C   0  0  0  0  0  0  0  0  0  0  0  0
    3.9474    3.6194   -0.0000 C   0  0  0  0  0  0  0  0  0  0  0  0
   -3.8016    3.7530   -0.0000 O   0  0  0  0  0  0  0  0  0  0  0  0
   -2.7328    5.9150   -0.0000 C   0  0  0  0  0  0  0  0  0  0  0  0
   -5.4049    1.3117   -0.0000 C   0  0  0  0  0  0  0  0  0  0  0  0
   -4.0688    3.6194   -0.0000 C   0  0  0  0  0  0  0  0  0  0  0  0
   -1.4089    6.6923   -0.0000 N   0  0  0  0  0  0  0  0  0  0  0  0
    1.2632    6.7045   -0.0000 C   0  0  0  0  0  0  0  0  0  0  0  0
    5.5992   -0.1822   -0.0000 N   0  0  0  0  0  0  0  0  0  0  0  0
    6.6073    2.1012   -0.0000 C   0  0  0  0  0  0  0  0  0  0  0  0
    5.2713    4.4089   -0.0000 C   0  0  0  0  0  0  0  0  0  0  0  0
   -6.7530    2.1012   -0.0000 C   0  0  0  0  0  0  0  0  0  0  0  0
   -5.4170    4.4089   -0.0000 C   0  0  0  0  0  0  0  0  0  0  0  0
   -1.4211    8.2470   -0.0000 C   0  0  0  0  0  0  0  0  0  0  0  0
    2.3198    6.0972   -0.0000 O   0  0  0  0  0  0  0  0  0  0  0  0
    1.2510    8.2591   -0.0000 N   0  0  0  0  0  0  0  0  0  0  0  0
    7.1174   -0.3279   -0.0000 C   0  0  0  0  0  0  0  0  0  0  0  0
    4.7611   -1.0931   -0.0000 C   0  0  0  0  0  0  0  0  0  0  0  0
    7.7490    1.0810   -0.0000 C   0  0  0  0  0  0  0  0  0  0  0  0
    6.5951    3.6559   -0.0000 C   0  0  0  0  0  0  0  0  0  0  0  0
   -6.7652    3.6559   -0.0000 C   0  0  0  0  0  0  0  0  0  0  0  0
   -2.7692    9.0243   -0.0000 C   0  0  0  0  0  0  0  0  0  0  0  0
    2.5749    9.0486   -0.0000 C   0  0  0  0  0  0  0  0  0  0  0  0
    9.2429    1.4211   -0.0000 C   0  0  0  0  0  0  0  0  0  0  0  0
   -7.8462    4.2875   -0.0000 O   0  0  0  0  0  0  0  0  0  0  0  0
   -2.7814   10.2753   -0.0000 C   0  0  0  0  0  0  0  0  0  0  0  0
    2.5628   10.6032   -0.0000 C   0  0  0  0  0  0  0  0  0  0  0  0
    9.6073    2.6113   -0.0000 O   0  0  0  0  0  0  0  0  0  0  0  0
   10.2632    0.2915   -0.0000 N   0  0  0  0  0  0  0  0  0  0  0  0
    3.8866   11.3927   -0.0000 C   0  0  0  0  0  0  0  0  0  0  0  0
    1.2146   11.3806   -0.0000 C   0  0  0  0  0  0  0  0  0  0  0  0
   11.7571    0.6316   -0.0000 C   0  0  0  0  0  0  0  0  0  0  0  0
    3.8745   12.9474   -0.0000 C   0  0  0  0  0  0  0  0  0  0  0  0
    1.2024   12.9352   -0.0000 C   0  0  0  0  0  0  0  0  0  0  0  0
   12.2186    2.1134   -0.0000 C   0  0  0  0  0  0  0  0  0  0  0  0
   12.7773   -0.4980   -0.0000 C   0  0  0  0  0  0  0  0  0  0  0  0
    2.5263   13.7247   -0.0000 C   0  0  0  0  0  0  0  0  0  0  0  0
   13.7126    2.4534   -0.0000 N   0  0  0  0  0  0  0  0  0  0  0  0
   14.2713   -0.1579   -0.0000 C   0  0  0  0  0  0  0  0  0  0  0  0
   14.7328    1.3239   -0.0000 C   0  0  0  0  0  0  0  0  0  0  0  0
   16.2267    1.6640   -0.0000 N   0  0  0  0  0  0  0  0  0  0  0  0
   16.5911    2.8543   -0.0000 C   0  0  0  0  0  0  0  0  0  0  0  0
   17.0405    0.7652   -0.0000 C   0  0  0  0  0  0  0  0  0  0  0  0
  1  2  2  0  0  0  0
  2  3  1  0  0  0  0
  2  4  1  0  0  0  0
  3  5  1  0  0  0  0
  3  6  1  0  0  0  0
  4  7  1  0  0  0  0
  4  8  1  6  0  0  0
  5  9  1  0  0  0  0
  6 10  1  0  0  0  0
  7 11  1  0  0  0  0
  8 12  1  0  0  0  0
  9 13  1  1  0  0  0
 10 14  2  0  0  0  0
 10 15  1  0  0  0  0
 11 16  2  0  0  0  0
 11 17  1  0  0  0  0
 12 18  2  0  0  0  0
 12 19  1  0  0  0  0
 13 20  1  0  0  0  0
 13 21  1  0  0  0  0
 14 22  1  0  0  0  0
 14 23  1  0  0  0  0
 15 24  2  0  0  0  0
 18 25  1  0  0  0  0
 19 26  2  0  0  0  0
 20 27  1  0  0  0  0
 21 28  2  0  0  0  0
 21 29  1  0  0  0  0
 22 30  1  0  0  0  0
 22 31  1  0  0  0  0
 23 32  1  0  0  0  0
 23 33  2  0  0  0  0
 25 34  2  0  0  0  0
 27 35  1  0  0  0  0
 29 36  1  0  0  0  0
 32 37  1  0  0  0  0
 34 38  1  0  0  0  0
 35 39  2  0  0  0  0
 36 40  1  0  0  0  0
 37 41  2  0  0  0  0
 37 42  1  0  0  0  0
 40 43  2  0  0  0  0
 40 44  1  0  0  0  0
 42 45  1  0  0  0  0
 43 46  1  0  0  0  0
 44 47  2  0  0  0  0
 45 48  2  0  0  0  0
 45 49  1  0  0  0  0
 46 50  2  0  0  0  0
 48 51  1  0  0  0  0
 49 52  2  0  0  0  0
 51 53  2  0  0  0  0
 53 54  1  0  0  0  0
 54 55  1  0  0  0  0
 54 56  1  0  0  0  0
  7  9  1  0  0  0  0
 17 20  1  0  0  0  0
 24 33  1  0  0  0  0
 26 34  1  0  0  0  0
 30 32  2  0  0  0  0
 47 50  1  0  0  0  0
 52 53  1  0  0  0  0
M  END
>  <MolRegNo>
2036104

>  <m>
=

>  <Value>
6750

>  <Unit>
nM

>  <Type>
IC50

>  <pValue>
5.17

>  <Ligand Efficiency>
0.13

>  <Binding Efficiency>
6.84

>  <Surface Efficiency>
3.53

>  <Assay Index>
974120

>  <Assay Category>


>  <Assay Organism>
Homo sapiens

>  <Target ID>
17045

>  <Target Name>
Cytochrome P450 3A4

>  <Target Organism>
Homo sapiens

>  <Target Description>
Target is a single protein chain

>  <Sequence Accession>
P08684

>  <Reference>


>  <Pubmed ID>


>  <DOI>


$$$$
2036105
Actelion Java MolfileCreator 1.0

 58 64  0  0  1  0  0  0  0  0999 V2000
    0.0000   -0.0000   -0.0000 O   0  0  0  0  0  0  0  0  0  0  0  0
   -0.0121    1.2499   -0.0000 C   0  0  0  0  0  0  0  0  0  0  0  0
    1.3106    2.0266   -0.0000 N   0  0  0  0  0  0  0  0  0  0  0  0
   -1.3591    2.0266   -0.0000 C   0  0  0  0  0  0  0  0  0  0  0  0
    1.2985    3.5799   -0.0000 C   0  0  0  0  0  0  0  0  0  0  0  0
    2.6333    1.2742   -0.0000 C   0  0  0  0  0  0  0  0  0  0  0  0
   -1.3713    3.5799   -0.0000 N   0  0  0  0  0  0  0  0  0  0  0  0
   -2.7061    1.2742   -0.0000 C   0  0  0  0  0  0  0  0  0  0  0  0
   -0.0485    4.3565   -0.0000 C   0  0  0  0  0  0  0  0  0  0  0  0
    3.9560    2.0630   -0.0000 C   0  0  0  0  0  0  0  0  0  0  0  0
   -2.7183    4.3565   -0.0000 C   0  0  0  0  0  0  0  0  0  0  0  0
   -4.0531    2.0630   -0.0000 C   0  0  0  0  0  0  0  0  0  0  0  0
   -0.0607    5.9098   -0.0000 N   0  0  0  0  0  0  0  0  0  0  0  0
    5.2788    1.3106   -0.0000 C   0  0  0  0  0  0  0  0  0  0  0  0
    3.9439    3.6163   -0.0000 C   0  0  0  0  0  0  0  0  0  0  0  0
   -3.7983    3.7498   -0.0000 O   0  0  0  0  0  0  0  0  0  0  0  0
   -2.7304    5.9098   -0.0000 C   0  0  0  0  0  0  0  0  0  0  0  0
   -5.4001    1.3106   -0.0000 C   0  0  0  0  0  0  0  0  0  0  0  0
   -4.0653    3.6163   -0.0000 C   0  0  0  0  0  0  0  0  0  0  0  0
   -1.4077    6.6864   -0.0000 N   0  0  0  0  0  0  0  0  0  0  0  0
    1.2621    6.6986   -0.0000 C   0  0  0  0  0  0  0  0  0  0  0  0
    5.5943   -0.1820   -0.0000 N   0  0  0  0  0  0  0  0  0  0  0  0
    6.6015    2.0994   -0.0000 C   0  0  0  0  0  0  0  0  0  0  0  0
    5.2666    4.4050   -0.0000 C   0  0  0  0  0  0  0  0  0  0  0  0
   -6.7471    2.0994   -0.0000 C   0  0  0  0  0  0  0  0  0  0  0  0
   -5.4123    4.4050   -0.0000 C   0  0  0  0  0  0  0  0  0  0  0  0
   -1.4198    8.2397   -0.0000 C   0  0  0  0  0  0  0  0  0  0  0  0
    2.3178    6.0918   -0.0000 O   0  0  0  0  0  0  0  0  0  0  0  0
    1.2499    8.2519   -0.0000 N   0  0  0  0  0  0  0  0  0  0  0  0
    7.1112   -0.3276   -0.0000 C   0  0  0  0  0  0  0  0  0  0  0  0
    4.7570   -1.0922   -0.0000 C   0  0  0  0  0  0  0  0  0  0  0  0
    7.7422    1.0800   -0.0000 C   0  0  0  0  0  0  0  0  0  0  0  0
    6.5894    3.6527   -0.0000 C   0  0  0  0  0  0  0  0  0  0  0  0
   -6.7593    3.6527   -0.0000 C   0  0  0  0  0  0  0  0  0  0  0  0
   -2.7668    9.0164   -0.0000 C   0  0  0  0  0  0  0  0  0  0  0  0
    2.5726    9.0407   -0.0000 C   0  0  0  0  0  0  0  0  0  0  0  0
    9.2348    1.4198   -0.0000 C   0  0  0  0  0  0  0  0  0  0  0  0
   -7.8393    4.2837   -0.0000 O   0  0  0  0  0  0  0  0  0  0  0  0
   -2.7789   10.2663   -0.0000 C   0  0  0  0  0  0  0  0  0  0  0  0
    2.5605   10.5940   -0.0000 C   0  0  0  0  0  0  0  0  0  0  0  0
    9.5989    2.6090   -0.0000 O   0  0  0  0  0  0  0  0  0  0  0  0
   10.2542    0.2912   -0.0000 N   0  0  0  0  0  0  0  0  0  0  0  0
    3.8832   11.3827   -0.0000 C   0  0  0  0  0  0  0  0  0  0  0  0
    1.2135   11.3706   -0.0000 C   0  0  0  0  0  0  0  0  0  0  0  0
   11.7468    0.6310   -0.0000 C   0  0  0  0  0  0  0  0  0  0  0  0
    3.8711   12.9360   -0.0000 C   0  0  0  0  0  0  0  0  0  0  0  0
    1.2014   12.9239   -0.0000 C   0  0  0  0  0  0  0  0  0  0  0  0
   12.2079    2.1115   -0.0000 C   0  0  0  0  0  0  0  0  0  0  0  0
   12.7661   -0.4975   -0.0000 C   0  0  0  0  0  0  0  0  0  0  0  0
    2.5241   13.7127   -0.0000 C   0  0  0  0  0  0  0  0  0  0  0  0
   13.7005    2.4513   -0.0000 N   0  0  0  0  0  0  0  0  0  0  0  0
   14.2588   -0.1578   -0.0000 C   0  0  0  0  0  0  0  0  0  0  0  0
   14.7199    1.3227   -0.0000 C   0  0  0  0  0  0  0  0  0  0  0  0
   16.2125    1.6625   -0.0000 N   0  0  0  0  0  0  0  0  0  0  0  0
   16.6736    3.1430   -0.0000 C   0  0  0  0  0  0  0  0  0  0  0  0
   17.0256    0.7645   -0.0000 C   0  0  0  0  0  0  0  0  0  0  0  0
   18.1663    3.4828   -0.0000 C   0  0  0  0  0  0  0  0  0  0  0  0
   18.5303    4.6720   -0.0000 O   0  0  0  0  0  0  0  0  0  0  0  0
  1  2  2  0  0  0  0
  2  3  1  0  0  0  0
  2  4  1  0  0  0  0
  3  5  1  0  0  0  0
  3  6  1  0  0  0  0
  4  7  1  0  0  0  0
  4  8  1  6  0  0  0
  5  9  1  0  0  0  0
  6 10  1  0  0  0  0
  7 11  1  0  0  0  0
  8 12  1  0  0  0  0
  9 13  1  1  0  0  0
 10 14  2  0  0  0  0
 10 15  1  0  0  0  0
 11 16  2  0  0  0  0
 11 17  1  0  0  0  0
 12 18  2  0  0  0  0
 12 19  1  0  0  0  0
 13 20  1  0  0  0  0
 13 21  1  0  0  0  0
 14 22  1  0  0  0  0
 14 23  1  0  0  0  0
 15 24  2  0  0  0  0
 18 25  1  0  0  0  0
 19 26  2  0  0  0  0
 20 27  1  0  0  0  0
 21 28  2  0  0  0  0
 21 29  1  0  0  0  0
 22 30  1  0  0  0  0
 22 31  1  0  0  0  0
 23 32  1  0  0  0  0
 23 33  2  0  0  0  0
 25 34  2  0  0  0  0
 27 35  1  0  0  0  0
 29 36  1  0  0  0  0
 32 37  1  0  0  0  0
 34 38  1  0  0  0  0
 35 39  2  0  0  0  0
 36 40  1  0  0  0  0
 37 41  2  0  0  0  0
 37 42  1  0  0  0  0
 40 43  2  0  0  0  0
 40 44  1  0  0  0  0
 42 45  1  0  0  0  0
 43 46  1  0  0  0  0
 44 47  2  0  0  0  0
 45 48  2  0  0  0  0
 45 49  1  0  0  0  0
 46 50  2  0  0  0  0
 48 51  1  0  0  0  0
 49 52  2  0  0  0  0
 51 53  2  0  0  0  0
 53 54  1  0  0  0  0
 54 55  1  0  0  0  0
 54 56  1  0  0  0  0
 55 57  1  0  0  0  0
 57 58  1  0  0  0  0
  7  9  1  0  0  0  0
 17 20  1  0  0  0  0
 24 33  1  0  0  0  0
 26 34  1  0  0  0  0
 30 32  2  0  0  0  0
 47 50  1  0  0  0  0
 52 53  1  0  0  0  0
M  END
>  <MolRegNo>
2036105

>  <m>
=

>  <Value>
3450

>  <Unit>
nM

>  <Type>
IC50

>  <pValue>
5.46

>  <Ligand Efficiency>
0.13

>  <Binding Efficiency>
6.95

>  <Surface Efficiency>
3.27

>  <Assay Index>
974120

>  <Assay Category>


>  <Assay Organism>
Homo sapiens

>  <Target ID>
17045

>  <Target Name>
Cytochrome P450 3A4

>  <Target Organism>
Homo sapiens

>  <Target Description>
Target is a single protein chain

>  <Sequence Accession>
P08684

>  <Reference>


>  <Pubmed ID>


>  <DOI>


$$$$
2036106
Actelion Java MolfileCreator 1.0

 59 65  0  0  1  0  0  0  0  0999 V2000
    0.0000   -0.0000   -0.0000 O   0  0  0  0  0  0  0  0  0  0  0  0
   -0.0121    1.2496   -0.0000 C   0  0  0  0  0  0  0  0  0  0  0  0
    1.3102    2.0260   -0.0000 N   0  0  0  0  0  0  0  0  0  0  0  0
   -1.3587    2.0260   -0.0000 C   0  0  0  0  0  0  0  0  0  0  0  0
    1.2981    3.5788   -0.0000 C   0  0  0  0  0  0  0  0  0  0  0  0
    2.6326    1.2738   -0.0000 C   0  0  0  0  0  0  0  0  0  0  0  0
   -1.3709    3.5788   -0.0000 N   0  0  0  0  0  0  0  0  0  0  0  0
   -2.7053    1.2738   -0.0000 C   0  0  0  0  0  0  0  0  0  0  0  0
   -0.0485    4.3552   -0.0000 C   0  0  0  0  0  0  0  0  0  0  0  0
    3.9549    2.0624   -0.0000 C   0  0  0  0  0  0  0  0  0  0  0  0
   -2.7175    4.3552   -0.0000 C   0  0  0  0  0  0  0  0  0  0  0  0
   -4.0519    2.0624   -0.0000 C   0  0  0  0  0  0  0  0  0  0  0  0
   -0.0607    5.9081   -0.0000 N   0  0  0  0  0  0  0  0  0  0  0  0
    5.2772    1.3102   -0.0000 C   0  0  0  0  0  0  0  0  0  0  0  0
    3.9428    3.6152   -0.0000 C   0  0  0  0  0  0  0  0  0  0  0  0
   -3.7972    3.7487   -0.0000 O   0  0  0  0  0  0  0  0  0  0  0  0
   -2.7296    5.9081   -0.0000 C   0  0  0  0  0  0  0  0  0  0  0  0
   -5.3985    1.3102   -0.0000 C   0  0  0  0  0  0  0  0  0  0  0  0
   -4.0641    3.6152   -0.0000 C   0  0  0  0  0  0  0  0  0  0  0  0
   -1.4073    6.6845   -0.0000 N   0  0  0  0  0  0  0  0  0  0  0  0
    1.2617    6.6966   -0.0000 C   0  0  0  0  0  0  0  0  0  0  0  0
    5.5927   -0.1820   -0.0000 N   0  0  0  0  0  0  0  0  0  0  0  0
    6.5996    2.0988   -0.0000 C   0  0  0  0  0  0  0  0  0  0  0  0
    5.2651    4.4038   -0.0000 C   0  0  0  0  0  0  0  0  0  0  0  0
   -6.7452    2.0988   -0.0000 C   0  0  0  0  0  0  0  0  0  0  0  0
   -5.4107    4.4038   -0.0000 C   0  0  0  0  0  0  0  0  0  0  0  0
   -1.4194    8.2373   -0.0000 C   0  0  0  0  0  0  0  0  0  0  0  0
    2.3171    6.0900   -0.0000 O   0  0  0  0  0  0  0  0  0  0  0  0
    1.2496    8.2495   -0.0000 N   0  0  0  0  0  0  0  0  0  0  0  0
    7.1091   -0.3276   -0.0000 C   0  0  0  0  0  0  0  0  0  0  0  0
    4.7556   -1.0918   -0.0000 C   0  0  0  0  0  0  0  0  0  0  0  0
    7.7399    1.0797   -0.0000 C   0  0  0  0  0  0  0  0  0  0  0  0
    6.5874    3.6516   -0.0000 C   0  0  0  0  0  0  0  0  0  0  0  0
   -6.7573    3.6516   -0.0000 C   0  0  0  0  0  0  0  0  0  0  0  0
   -2.7660    9.0138   -0.0000 C   0  0  0  0  0  0  0  0  0  0  0  0
    2.5719    9.0380   -0.0000 C   0  0  0  0  0  0  0  0  0  0  0  0
    9.2321    1.4194   -0.0000 C   0  0  0  0  0  0  0  0  0  0  0  0
   -7.8370    4.2824   -0.0000 O   0  0  0  0  0  0  0  0  0  0  0  0
   -2.7781   10.2633   -0.0000 C   0  0  0  0  0  0  0  0  0  0  0  0
    2.5598   10.5909   -0.0000 C   0  0  0  0  0  0  0  0  0  0  0  0
    9.5961    2.6083   -0.0000 O   0  0  0  0  0  0  0  0  0  0  0  0
   10.2512    0.2912   -0.0000 N   0  0  0  0  0  0  0  0  0  0  0  0
    3.8821   11.3794   -0.0000 C   0  0  0  0  0  0  0  0  0  0  0  0
    1.2132   11.3673   -0.0000 C   0  0  0  0  0  0  0  0  0  0  0  0
   11.7434    0.6308   -0.0000 C   0  0  0  0  0  0  0  0  0  0  0  0
    3.8700   12.9323   -0.0000 C   0  0  0  0  0  0  0  0  0  0  0  0
    1.2010   12.9201   -0.0000 C   0  0  0  0  0  0  0  0  0  0  0  0
   12.2044    2.1109   -0.0000 C   0  0  0  0  0  0  0  0  0  0  0  0
   12.7624   -0.4974   -0.0000 C   0  0  0  0  0  0  0  0  0  0  0  0
    2.5234   13.7087   -0.0000 C   0  0  0  0  0  0  0  0  0  0  0  0
   13.6965    2.4506   -0.0000 N   0  0  0  0  0  0  0  0  0  0  0  0
   14.2546   -0.1577   -0.0000 C   0  0  0  0  0  0  0  0  0  0  0  0
   14.7156    1.3223   -0.0000 C   0  0  0  0  0  0  0  0  0  0  0  0
   16.2078    1.6620   -0.0000 N   0  0  0  0  0  0  0  0  0  0  0  0
   16.6688    3.1421   -0.0000 C   0  0  0  0  0  0  0  0  0  0  0  0
   18.1610    3.4818   -0.0000 C   0  0  0  0  0  0  0  0  0  0  0  0
   18.9738    2.5840   -0.0000 O   0  0  0  0  0  0  0  0  0  0  0  0
   18.6220    4.9618   -0.0000 C   0  0  0  0  0  0  0  0  0  0  0  0
   19.8109    5.2408   -0.0000 O   0  0  0  0  0  0  0  0  0  0  0  0
  1  2  2  0  0  0  0
  2  3  1  0  0  0  0
  2  4  1  0  0  0  0
  3  5  1  0  0  0  0
  3  6  1  0  0  0  0
  4  7  1  0  0  0  0
  4  8  1  6  0  0  0
  5  9  1  0  0  0  0
  6 10  1  0  0  0  0
  7 11  1  0  0  0  0
  8 12  1  0  0  0  0
  9 13  1  0  0  0  0
 10 14  2  0  0  0  0
 10 15  1  0  0  0  0
 11 16  2  0  0  0  0
 11 17  1  0  0  0  0
 12 18  2  0  0  0  0
 12 19  1  0  0  0  0
 13 20  1  0  0  0  0
 13 21  1  0  0  0  0
 14 22  1  0  0  0  0
 14 23  1  0  0  0  0
 15 24  2  0  0  0  0
 18 25  1  0  0  0  0
 19 26  2  0  0  0  0
 20 27  1  0  0  0  0
 21 28  2  0  0  0  0
 21 29  1  0  0  0  0
 22 30  1  0  0  0  0
 22 31  1  0  0  0  0
 23 32  1  0  0  0  0
 23 33  2  0  0  0  0
 25 34  2  0  0  0  0
 27 35  1  0  0  0  0
 29 36  1  0  0  0  0
 32 37  1  0  0  0  0
 34 38  1  0  0  0  0
 35 39  2  0  0  0  0
 36 40  1  0  0  0  0
 37 41  2  0  0  0  0
 37 42  1  0  0  0  0
 40 43  2  0  0  0  0
 40 44  1  0  0  0  0
 42 45  1  0  0  0  0
 43 46  1  0  0  0  0
 44 47  2  0  0  0  0
 45 48  2  0  0  0  0
 45 49  1  0  0  0  0
 46 50  2  0  0  0  0
 48 51  1  0  0  0  0
 49 52  2  0  0  0  0
 51 53  2  0  0  0  0
 53 54  1  0  0  0  0
 54 55  1  0  0  0  0
 55 56  1  0  0  0  0
 56 57  1  0  0  0  0
 56 58  1  0  0  0  0
 58 59  1  0  0  0  0
  7  9  1  0  0  0  0
 17 20  1  0  0  0  0
 24 33  1  0  0  0  0
 26 34  1  0  0  0  0
 30 32  2  0  0  0  0
 47 50  1  0  0  0  0
 52 53  1  0  0  0  0
M  END
>  <MolRegNo>
2036106

>  <m>
=

>  <Value>
2550

>  <Unit>
nM

>  <Type>
IC50

>  <pValue>
5.59

>  <Ligand Efficiency>
0.13

>  <Binding Efficiency>
6.98

>  <Surface Efficiency>
2.86

>  <Assay Index>
974120

>  <Assay Category>


>  <Assay Organism>
Homo sapiens

>  <Target ID>
17045

>  <Target Name>
Cytochrome P450 3A4

>  <Target Organism>
Homo sapiens

>  <Target Description>
Target is a single protein chain

>  <Sequence Accession>
P08684

>  <Reference>


>  <Pubmed ID>


>  <DOI>


$$$$
2036107
Actelion Java MolfileCreator 1.0

 59 65  0  0  0  0  0  0  0  0999 V2000
    0.0000   -0.0000   -0.0000 O   0  0  0  0  0  0  0  0  0  0  0  0
   -0.0122    1.2556   -0.0000 C   0  0  0  0  0  0  0  0  0  0  0  0
    1.3166    2.0358   -0.0000 N   0  0  0  0  0  0  0  0  0  0  0  0
   -1.3654    2.0358   -0.0000 C   0  0  0  0  0  0  0  0  0  0  0  0
    1.3044    3.5963   -0.0000 C   0  0  0  0  0  0  0  0  0  0  0  0
    2.6454    1.2800   -0.0000 C   0  0  0  0  0  0  0  0  0  0  0  0
   -1.3775    3.5963   -0.0000 N   0  0  0  0  0  0  0  0  0  0  0  0
   -2.7185    1.2678   -0.0000 C   0  0  0  0  0  0  0  0  0  0  0  0
   -0.0488    4.3765   -0.0000 C   0  0  0  0  0  0  0  0  0  0  0  0
    3.9742    2.0724   -0.0000 C   0  0  0  0  0  0  0  0  0  0  0  0
   -2.7307    4.3765   -0.0000 C   0  0  0  0  0  0  0  0  0  0  0  0
   -2.7307   -0.2682   -0.0000 C   0  0  0  0  0  0  0  0  0  0  0  0
   -0.0610    5.9369   -0.0000 N   0  0  0  0  0  0  0  0  0  0  0  0
    5.3030    1.3166   -0.0000 C   0  0  0  0  0  0  0  0  0  0  0  0
    3.9620    3.6328   -0.0000 C   0  0  0  0  0  0  0  0  0  0  0  0
   -3.8157    3.7669   -0.0000 O   0  0  0  0  0  0  0  0  0  0  0  0
   -2.7429    5.9369   -0.0000 C   0  0  0  0  0  0  0  0  0  0  0  0
   -4.0839   -1.0362   -0.0000 C   0  0  0  0  0  0  0  0  0  0  0  0
   -1.4019   -1.0240   -0.0000 C   0  0  0  0  0  0  0  0  0  0  0  0
   -1.4141    6.7171   -0.0000 N   0  0  0  0  0  0  0  0  0  0  0  0
    1.2678    6.7293   -0.0000 C   0  0  0  0  0  0  0  0  0  0  0  0
    5.6199   -0.1829   -0.0000 N   0  0  0  0  0  0  0  0  0  0  0  0
    6.6317    2.1090   -0.0000 C   0  0  0  0  0  0  0  0  0  0  0  0
    5.2908    4.4252   -0.0000 C   0  0  0  0  0  0  0  0  0  0  0  0
   -4.0961   -2.5722   -0.0000 C   0  0  0  0  0  0  0  0  0  0  0  0
   -1.4141   -2.5600   -0.0000 C   0  0  0  0  0  0  0  0  0  0  0  0
   -1.4263    8.2775   -0.0000 C   0  0  0  0  0  0  0  0  0  0  0  0
    2.3284    6.1197   -0.0000 O   0  0  0  0  0  0  0  0  0  0  0  0
    1.2556    8.2897   -0.0000 N   0  0  0  0  0  0  0  0  0  0  0  0
    7.1438   -0.3291   -0.0000 C   0  0  0  0  0  0  0  0  0  0  0  0
    4.7788   -1.0972   -0.0000 C   0  0  0  0  0  0  0  0  0  0  0  0
    7.7777    1.0850   -0.0000 C   0  0  0  0  0  0  0  0  0  0  0  0
    6.6196    3.6694   -0.0000 C   0  0  0  0  0  0  0  0  0  0  0  0
   -2.7673   -3.3281   -0.0000 C   0  0  0  0  0  0  0  0  0  0  0  0
   -2.7795    9.0577   -0.0000 C   0  0  0  0  0  0  0  0  0  0  0  0
    2.5844    9.0821   -0.0000 C   0  0  0  0  0  0  0  0  0  0  0  0
    9.2771    1.4263   -0.0000 C   0  0  0  0  0  0  0  0  0  0  0  0
   -2.7795   -4.5593   -0.0000 O   0  0  0  0  0  0  0  0  0  0  0  0
   -2.7917   10.3133   -0.0000 C   0  0  0  0  0  0  0  0  0  0  0  0
    2.5722   10.6425   -0.0000 C   0  0  0  0  0  0  0  0  0  0  0  0
    9.6428    2.6210   -0.0000 O   0  0  0  0  0  0  0  0  0  0  0  0
   10.3011    0.2926   -0.0000 N   0  0  0  0  0  0  0  0  0  0  0  0
    3.9010   11.4349   -0.0000 C   0  0  0  0  0  0  0  0  0  0  0  0
    1.2191   11.4227   -0.0000 C   0  0  0  0  0  0  0  0  0  0  0  0
   11.8006    0.6339   -0.0000 C   0  0  0  0  0  0  0  0  0  0  0  0
    3.8888   12.9953   -0.0000 C   0  0  0  0  0  0  0  0  0  0  0  0
    1.2069   12.9831   -0.0000 C   0  0  0  0  0  0  0  0  0  0  0  0
   12.2638    2.1212   -0.0000 C   0  0  0  0  0  0  0  0  0  0  0  0
   12.8246   -0.4998   -0.0000 C   0  0  0  0  0  0  0  0  0  0  0  0
    2.5357   13.7755   -0.0000 C   0  0  0  0  0  0  0  0  0  0  0  0
   13.7633    2.4625   -0.0000 N   0  0  0  0  0  0  0  0  0  0  0  0
   14.3241   -0.1585   -0.0000 C   0  0  0  0  0  0  0  0  0  0  0  0
   14.7873    1.3288   -0.0000 C   0  0  0  0  0  0  0  0  0  0  0  0
   16.2868    1.6701   -0.0000 N   0  0  0  0  0  0  0  0  0  0  0  0
   16.7500    3.1574   -0.0000 C   0  0  0  0  0  0  0  0  0  0  0  0
   18.2495    3.4987   -0.0000 C   0  0  0  0  0  0  0  0  0  0  0  0
   18.6152    4.6934   -0.0000 C   0  0  0  0  0  0  0  0  0  0  0  0
   19.0663    2.5966   -0.0000 C   0  0  0  0  0  0  0  0  0  0  0  0
   19.4442    3.7791   -0.0000 C   0  0  0  0  0  0  0  0  0  0  0  0
  1  2  2  0  0  0  0
  2  3  1  0  0  0  0
  2  4  1  0  0  0  0
  3  5  1  0  0  0  0
  3  6  1  0  0  0  0
  4  7  1  0  0  0  0
  4  8  1  0  0  0  0
  5  9  1  0  0  0  0
  6 10  1  0  0  0  0
  7 11  1  0  0  0  0
  8 12  1  0  0  0  0
  9 13  1  0  0  0  0
 10 14  2  0  0  0  0
 10 15  1  0  0  0  0
 11 16  2  0  0  0  0
 11 17  1  0  0  0  0
 12 18  2  0  0  0  0
 12 19  1  0  0  0  0
 13 20  1  0  0  0  0
 13 21  1  0  0  0  0
 14 22  1  0  0  0  0
 14 23  1  0  0  0  0
 15 24  2  0  0  0  0
 18 25  1  0  0  0  0
 19 26  2  0  0  0  0
 20 27  1  0  0  0  0
 21 28  2  0  0  0  0
 21 29  1  0  0  0  0
 22 30  1  0  0  0  0
 22 31  1  0  0  0  0
 23 32  1  0  0  0  0
 23 33  2  0  0  0  0
 25 34  2  0  0  0  0
 27 35  1  0  0  0  0
 29 36  1  0  0  0  0
 32 37  1  0  0  0  0
 34 38  1  0  0  0  0
 35 39  2  0  0  0  0
 36 40  1  0  0  0  0
 37 41  2  0  0  0  0
 37 42  1  0  0  0  0
 40 43  2  0  0  0  0
 40 44  1  0  0  0  0
 42 45  1  0  0  0  0
 43 46  1  0  0  0  0
 44 47  2  0  0  0  0
 45 48  2  0  0  0  0
 45 49  1  0  0  0  0
 46 50  2  0  0  0  0
 48 51  1  0  0  0  0
 49 52  2  0  0  0  0
 51 53  2  0  0  0  0
 53 54  1  0  0  0  0
 54 55  1  0  0  0  0
 55 56  1  0  0  0  0
 56 57  1  0  0  0  0
 56 58  1  0  0  0  0
 56 59  1  0  0  0  0
  7  9  1  0  0  0  0
 17 20  1  0  0  0  0
 24 33  1  0  0  0  0
 26 34  1  0  0  0  0
 30 32  2  0  0  0  0
 47 50  1  0  0  0  0
 52 53  1  0  0  0  0
M  END
>  <MolRegNo>
2036107

>  <m>
=

>  <Value>
2380

>  <Unit>
nM

>  <Type>
IC50

>  <pValue>
5.62

>  <Ligand Efficiency>
0.13

>  <Binding Efficiency>
7.05

>  <Surface Efficiency>
3.62

>  <Assay Index>
974120

>  <Assay Category>


>  <Assay Organism>
Homo sapiens

>  <Target ID>
17045

>  <Target Name>
Cytochrome P450 3A4

>  <Target Organism>
Homo sapiens

>  <Target Description>
Target is a single protein chain

>  <Sequence Accession>
P08684

>  <Reference>


>  <Pubmed ID>


>  <DOI>


$$$$
2036108
Actelion Java MolfileCreator 1.0

 59 65  0  0  1  0  0  0  0  0999 V2000
    0.0000   -0.0000   -0.0000 O   0  0  0  0  0  0  0  0  0  0  0  0
   -0.0121    1.2491   -0.0000 C   0  0  0  0  0  0  0  0  0  0  0  0
    1.3097    2.0253   -0.0000 N   0  0  0  0  0  0  0  0  0  0  0  0
   -1.3583    2.0253   -0.0000 C   0  0  0  0  0  0  0  0  0  0  0  0
    1.2976    3.5776   -0.0000 C   0  0  0  0  0  0  0  0  0  0  0  0
    2.6316    1.2734   -0.0000 C   0  0  0  0  0  0  0  0  0  0  0  0
   -1.3704    3.5776   -0.0000 N   0  0  0  0  0  0  0  0  0  0  0  0
   -2.7044    1.2734   -0.0000 C   0  0  0  0  0  0  0  0  0  0  0  0
   -0.0485    4.3537   -0.0000 C   0  0  0  0  0  0  0  0  0  0  0  0
    3.9535    2.0616   -0.0000 C   0  0  0  0  0  0  0  0  0  0  0  0
   -2.7165    4.3537   -0.0000 C   0  0  0  0  0  0  0  0  0  0  0  0
   -4.0505    2.0616   -0.0000 C   0  0  0  0  0  0  0  0  0  0  0  0
   -0.0606    5.9060   -0.0000 N   0  0  0  0  0  0  0  0  0  0  0  0
    5.2754    1.3097   -0.0000 C   0  0  0  0  0  0  0  0  0  0  0  0
    3.9414    3.6139   -0.0000 C   0  0  0  0  0  0  0  0  0  0  0  0
   -3.7958    3.7473   -0.0000 O   0  0  0  0  0  0  0  0  0  0  0  0
   -2.7286    5.9060   -0.0000 C   0  0  0  0  0  0  0  0  0  0  0  0
   -5.3967    1.3097   -0.0000 C   0  0  0  0  0  0  0  0  0  0  0  0
   -4.0626    3.6139   -0.0000 C   0  0  0  0  0  0  0  0  0  0  0  0
   -1.4068    6.6821   -0.0000 N   0  0  0  0  0  0  0  0  0  0  0  0
    1.2612    6.6943   -0.0000 C   0  0  0  0  0  0  0  0  0  0  0  0
    5.5907   -0.1819   -0.0000 N   0  0  0  0  0  0  0  0  0  0  0  0
    6.5973    2.0980   -0.0000 C   0  0  0  0  0  0  0  0  0  0  0  0
    5.2633    4.4022   -0.0000 C   0  0  0  0  0  0  0  0  0  0  0  0
   -6.7428    2.0980   -0.0000 C   0  0  0  0  0  0  0  0  0  0  0  0
   -5.4088    4.4022   -0.0000 C   0  0  0  0  0  0  0  0  0  0  0  0
   -1.4189    8.2344   -0.0000 C   0  0  0  0  0  0  0  0  0  0  0  0
    2.3163    6.0879   -0.0000 O   0  0  0  0  0  0  0  0  0  0  0  0
    1.2491    8.2466   -0.0000 N   0  0  0  0  0  0  0  0  0  0  0  0
    7.1066   -0.3274   -0.0000 C   0  0  0  0  0  0  0  0  0  0  0  0
    4.7539   -1.0915   -0.0000 C   0  0  0  0  0  0  0  0  0  0  0  0
    7.7372    1.0793   -0.0000 C   0  0  0  0  0  0  0  0  0  0  0  0
    6.5851    3.6503   -0.0000 C   0  0  0  0  0  0  0  0  0  0  0  0
   -6.7549    3.6503   -0.0000 C   0  0  0  0  0  0  0  0  0  0  0  0
   -2.7650    9.0106   -0.0000 C   0  0  0  0  0  0  0  0  0  0  0  0
    2.5710    9.0348   -0.0000 C   0  0  0  0  0  0  0  0  0  0  0  0
    9.2289    1.4189   -0.0000 C   0  0  0  0  0  0  0  0  0  0  0  0
   -7.8342    4.2809   -0.0000 O   0  0  0  0  0  0  0  0  0  0  0  0
   -2.7772   10.2597   -0.0000 C   0  0  0  0  0  0  0  0  0  0  0  0
    2.5589   10.5871   -0.0000 C   0  0  0  0  0  0  0  0  0  0  0  0
    9.5927    2.6074   -0.0000 O   0  0  0  0  0  0  0  0  0  0  0  0
   10.2476    0.2911   -0.0000 N   0  0  0  0  0  0  0  0  0  0  0  0
    3.8807   11.3754   -0.0000 C   0  0  0  0  0  0  0  0  0  0  0  0
    1.2127   11.3633   -0.0000 C   0  0  0  0  0  0  0  0  0  0  0  0
   11.7392    0.6306   -0.0000 C   0  0  0  0  0  0  0  0  0  0  0  0
    3.8686   12.9277   -0.0000 C   0  0  0  0  0  0  0  0  0  0  0  0
    1.2006   12.9156   -0.0000 C   0  0  0  0  0  0  0  0  0  0  0  0
   12.2001    2.1102   -0.0000 C   0  0  0  0  0  0  0  0  0  0  0  0
   12.7579   -0.4972   -0.0000 C   0  0  0  0  0  0  0  0  0  0  0  0
    2.5225   13.7039   -0.0000 C   0  0  0  0  0  0  0  0  0  0  0  0
   13.6917    2.4497   -0.0000 N   0  0  0  0  0  0  0  0  0  0  0  0
   14.2496   -0.1577   -0.0000 C   0  0  0  0  0  0  0  0  0  0  0  0
   14.7104    1.3219   -0.0000 C   0  0  0  0  0  0  0  0  0  0  0  0
   16.2021    1.6614   -0.0000 N   0  0  0  0  0  0  0  0  0  0  0  0
   16.6629    3.1410   -0.0000 C   0  0  0  0  0  0  0  0  0  0  0  0
   18.1546    3.4805   -0.0000 C   0  0  0  0  0  0  0  0  0  0  0  0
   18.6154    4.9601   -0.0000 N   0  0  0  0  0  0  0  0  0  0  0  0
   19.8039    5.2390   -0.0000 C   0  0  0  0  0  0  0  0  0  0  0  0
   17.7786    5.8817   -0.0000 C   0  0  0  0  0  0  0  0  0  0  0  0
  1  2  2  0  0  0  0
  2  3  1  0  0  0  0
  2  4  1  0  0  0  0
  3  5  1  0  0  0  0
  3  6  1  0  0  0  0
  4  7  1  0  0  0  0
  4  8  1  6  0  0  0
  5  9  1  0  0  0  0
  6 10  1  0  0  0  0
  7 11  1  0  0  0  0
  8 12  1  0  0  0  0
  9 13  1  1  0  0  0
 10 14  2  0  0  0  0
 10 15  1  0  0  0  0
 11 16  2  0  0  0  0
 11 17  1  0  0  0  0
 12 18  2  0  0  0  0
 12 19  1  0  0  0  0
 13 20  1  0  0  0  0
 13 21  1  0  0  0  0
 14 22  1  0  0  0  0
 14 23  1  0  0  0  0
 15 24  2  0  0  0  0
 18 25  1  0  0  0  0
 19 26  2  0  0  0  0
 20 27  1  0  0  0  0
 21 28  2  0  0  0  0
 21 29  1  0  0  0  0
 22 30  1  0  0  0  0
 22 31  1  0  0  0  0
 23 32  1  0  0  0  0
 23 33  2  0  0  0  0
 25 34  2  0  0  0  0
 27 35  1  0  0  0  0
 29 36  1  0  0  0  0
 32 37  1  0  0  0  0
 34 38  1  0  0  0  0
 35 39  2  0  0  0  0
 36 40  1  0  0  0  0
 37 41  2  0  0  0  0
 37 42  1  0  0  0  0
 40 43  2  0  0  0  0
 40 44  1  0  0  0  0
 42 45  1  0  0  0  0
 43 46  1  0  0  0  0
 44 47  2  0  0  0  0
 45 48  2  0  0  0  0
 45 49  1  0  0  0  0
 46 50  2  0  0  0  0
 48 51  1  0  0  0  0
 49 52  2  0  0  0  0
 51 53  2  0  0  0  0
 53 54  1  0  0  0  0
 54 55  1  0  0  0  0
 55 56  1  0  0  0  0
 56 57  1  0  0  0  0
 57 58  1  0  0  0  0
 57 59  1  0  0  0  0
  7  9  1  0  0  0  0
 17 20  1  0  0  0  0
 24 33  1  0  0  0  0
 26 34  1  0  0  0  0
 30 32  2  0  0  0  0
 47 50  1  0  0  0  0
 52 53  1  0  0  0  0
M  END
>  <MolRegNo>
2036108

>  <m>
=

>  <Value>
6750

>  <Unit>
nM

>  <Type>
IC50

>  <pValue>
5.17

>  <Ligand Efficiency>
0.12

>  <Binding Efficiency>
6.47

>  <Surface Efficiency>
3.26

>  <Assay Index>
974120

>  <Assay Category>


>  <Assay Organism>
Homo sapiens

>  <Target ID>
17045

>  <Target Name>
Cytochrome P450 3A4

>  <Target Organism>
Homo sapiens

>  <Target Description>
Target is a single protein chain

>  <Sequence Accession>
P08684

>  <Reference>


>  <Pubmed ID>


>  <DOI>


$$$$
2036109
Actelion Java MolfileCreator 1.0

 61 67  0  0  1  0  0  0  0  0999 V2000
    0.0000   -0.0000   -0.0000 O   0  0  0  0  0  0  0  0  0  0  0  0
   -0.0121    1.2478   -0.0000 C   0  0  0  0  0  0  0  0  0  0  0  0
    1.3083    2.0231   -0.0000 N   0  0  0  0  0  0  0  0  0  0  0  0
   -1.3568    2.0231   -0.0000 C   0  0  0  0  0  0  0  0  0  0  0  0
    1.2962    3.5737   -0.0000 C   0  0  0  0  0  0  0  0  0  0  0  0
    2.6288    1.2720   -0.0000 C   0  0  0  0  0  0  0  0  0  0  0  0
   -1.3689    3.5737   -0.0000 N   0  0  0  0  0  0  0  0  0  0  0  0
   -2.7015    1.2720   -0.0000 C   0  0  0  0  0  0  0  0  0  0  0  0
   -0.0485    4.3490   -0.0000 C   0  0  0  0  0  0  0  0  0  0  0  0
    3.9492    2.0594   -0.0000 C   0  0  0  0  0  0  0  0  0  0  0  0
   -2.7136    4.3490   -0.0000 C   0  0  0  0  0  0  0  0  0  0  0  0
   -4.0462    2.0594   -0.0000 C   0  0  0  0  0  0  0  0  0  0  0  0
   -0.0606    5.8996   -0.0000 N   0  0  0  0  0  0  0  0  0  0  0  0
    5.2697    1.3083   -0.0000 C   0  0  0  0  0  0  0  0  0  0  0  0
    3.9371    3.6100   -0.0000 C   0  0  0  0  0  0  0  0  0  0  0  0
   -3.7918    3.7433   -0.0000 O   0  0  0  0  0  0  0  0  0  0  0  0
   -2.7257    5.8996   -0.0000 C   0  0  0  0  0  0  0  0  0  0  0  0
   -5.3908    1.3083   -0.0000 C   0  0  0  0  0  0  0  0  0  0  0  0
   -4.0583    3.6100   -0.0000 C   0  0  0  0  0  0  0  0  0  0  0  0
   -1.4053    6.6749   -0.0000 N   0  0  0  0  0  0  0  0  0  0  0  0
    1.2599    6.6871   -0.0000 C   0  0  0  0  0  0  0  0  0  0  0  0
    5.5847   -0.1817   -0.0000 N   0  0  0  0  0  0  0  0  0  0  0  0
    6.5901    2.0958   -0.0000 C   0  0  0  0  0  0  0  0  0  0  0  0
    5.2576    4.3975   -0.0000 C   0  0  0  0  0  0  0  0  0  0  0  0
   -6.7355    2.0958   -0.0000 C   0  0  0  0  0  0  0  0  0  0  0  0
   -5.4029    4.3975   -0.0000 C   0  0  0  0  0  0  0  0  0  0  0  0
   -1.4174    8.2256   -0.0000 C   0  0  0  0  0  0  0  0  0  0  0  0
    2.3138    6.0813   -0.0000 O   0  0  0  0  0  0  0  0  0  0  0  0
    1.2478    8.2377   -0.0000 N   0  0  0  0  0  0  0  0  0  0  0  0
    7.0989   -0.3271   -0.0000 C   0  0  0  0  0  0  0  0  0  0  0  0
    4.7488   -1.0903   -0.0000 C   0  0  0  0  0  0  0  0  0  0  0  0
    7.7289    1.0782   -0.0000 C   0  0  0  0  0  0  0  0  0  0  0  0
    6.5780    3.6464   -0.0000 C   0  0  0  0  0  0  0  0  0  0  0  0
   -6.7476    3.6464   -0.0000 C   0  0  0  0  0  0  0  0  0  0  0  0
   -2.7620    9.0009   -0.0000 C   0  0  0  0  0  0  0  0  0  0  0  0
    2.5682    9.0251   -0.0000 C   0  0  0  0  0  0  0  0  0  0  0  0
    9.2189    1.4174   -0.0000 C   0  0  0  0  0  0  0  0  0  0  0  0
   -7.8258    4.2763   -0.0000 O   0  0  0  0  0  0  0  0  0  0  0  0
   -2.7742   10.2486   -0.0000 C   0  0  0  0  0  0  0  0  0  0  0  0
    2.5561   10.5757   -0.0000 C   0  0  0  0  0  0  0  0  0  0  0  0
    9.5824    2.6046   -0.0000 O   0  0  0  0  0  0  0  0  0  0  0  0
   10.2365    0.2907   -0.0000 N   0  0  0  0  0  0  0  0  0  0  0  0
    3.8766   11.3631   -0.0000 C   0  0  0  0  0  0  0  0  0  0  0  0
    1.2114   11.3510   -0.0000 C   0  0  0  0  0  0  0  0  0  0  0  0
   11.7266    0.6299   -0.0000 C   0  0  0  0  0  0  0  0  0  0  0  0
    3.8644   12.9138   -0.0000 C   0  0  0  0  0  0  0  0  0  0  0  0
    1.1993   12.9017   -0.0000 C   0  0  0  0  0  0  0  0  0  0  0  0
   12.1869    2.1079   -0.0000 C   0  0  0  0  0  0  0  0  0  0  0  0
   12.7442   -0.4967   -0.0000 C   0  0  0  0  0  0  0  0  0  0  0  0
    2.5198   13.6891   -0.0000 C   0  0  0  0  0  0  0  0  0  0  0  0
   13.6770    2.4471   -0.0000 N   0  0  0  0  0  0  0  0  0  0  0  0
   14.2342   -0.1575   -0.0000 C   0  0  0  0  0  0  0  0  0  0  0  0
   14.6946    1.3205   -0.0000 C   0  0  0  0  0  0  0  0  0  0  0  0
   16.1846    1.6596   -0.0000 N   0  0  0  0  0  0  0  0  0  0  0  0
   16.6450    3.1376   -0.0000 C   0  0  0  0  0  0  0  0  0  0  0  0
   18.1350    3.4768   -0.0000 C   0  0  0  0  0  0  0  0  0  0  0  0
   18.5953    4.9547   -0.0000 N   0  0  0  0  0  0  0  0  0  0  0  0
   20.0854    5.2939   -0.0000 C   0  0  0  0  0  0  0  0  0  0  0  0
   17.5414    6.1056   -0.0000 C   0  0  0  0  0  0  0  0  0  0  0  0
   20.4488    6.4811   -0.0000 C   0  0  0  0  0  0  0  0  0  0  0  0
   16.3300    5.8512   -0.0000 C   0  0  0  0  0  0  0  0  0  0  0  0
  1  2  2  0  0  0  0
  2  3  1  0  0  0  0
  2  4  1  0  0  0  0
  3  5  1  0  0  0  0
  3  6  1  0  0  0  0
  4  7  1  0  0  0  0
  4  8  1  6  0  0  0
  5  9  1  0  0  0  0
  6 10  1  0  0  0  0
  7 11  1  0  0  0  0
  8 12  1  0  0  0  0
  9 13  1  0  0  0  0
 10 14  2  0  0  0  0
 10 15  1  0  0  0  0
 11 16  2  0  0  0  0
 11 17  1  0  0  0  0
 12 18  2  0  0  0  0
 12 19  1  0  0  0  0
 13 20  1  0  0  0  0
 13 21  1  0  0  0  0
 14 22  1  0  0  0  0
 14 23  1  0  0  0  0
 15 24  2  0  0  0  0
 18 25  1  0  0  0  0
 19 26  2  0  0  0  0
 20 27  1  0  0  0  0
 21 28  2  0  0  0  0
 21 29  1  0  0  0  0
 22 30  1  0  0  0  0
 22 31  1  0  0  0  0
 23 32  1  0  0  0  0
 23 33  2  0  0  0  0
 25 34  2  0  0  0  0
 27 35  1  0  0  0  0
 29 36  1  0  0  0  0
 32 37  1  0  0  0  0
 34 38  1  0  0  0  0
 35 39  2  0  0  0  0
 36 40  1  0  0  0  0
 37 41  2  0  0  0  0
 37 42  1  0  0  0  0
 40 43  2  0  0  0  0
 40 44  1  0  0  0  0
 42 45  1  0  0  0  0
 43 46  1  0  0  0  0
 44 47  2  0  0  0  0
 45 48  2  0  0  0  0
 45 49  1  0  0  0  0
 46 50  2  0  0  0  0
 48 51  1  0  0  0  0
 49 52  2  0  0  0  0
 51 53  2  0  0  0  0
 53 54  1  0  0  0  0
 54 55  1  0  0  0  0
 55 56  1  0  0  0  0
 56 57  1  0  0  0  0
 57 58  1  0  0  0  0
 57 59  1  0  0  0  0
 58 60  1  0  0  0  0
 59 61  1  0  0  0  0
  7  9  1  0  0  0  0
 17 20  1  0  0  0  0
 24 33  1  0  0  0  0
 26 34  1  0  0  0  0
 30 32  2  0  0  0  0
 47 50  1  0  0  0  0
 52 53  1  0  0  0  0
M  END
>  <MolRegNo>
2036109

>  <m>
=

>  <Value>
4530

>  <Unit>
nM

>  <Type>
IC50

>  <pValue>
5.34

>  <Ligand Efficiency>
0.12

>  <Binding Efficiency>
6.46

>  <Surface Efficiency>
3.37

>  <Assay Index>
974120

>  <Assay Category>


>  <Assay Organism>
Homo sapiens

>  <Target ID>
17045

>  <Target Name>
Cytochrome P450 3A4

>  <Target Organism>
Homo sapiens

>  <Target Description>
Target is a single protein chain

>  <Sequence Accession>
P08684

>  <Reference>


>  <Pubmed ID>


>  <DOI>


$$$$
2036110
Actelion Java MolfileCreator 1.0

 63 69  0  0  0  0  0  0  0  0999 V2000
    0.0000   -0.0000   -0.0000 O   0  0  0  0  0  0  0  0  0  0  0  0
   -0.0122    1.2564   -0.0000 C   0  0  0  0  0  0  0  0  0  0  0  0
    1.3174    2.0371   -0.0000 N   0  0  0  0  0  0  0  0  0  0  0  0
   -1.3662    2.0371   -0.0000 C   0  0  0  0  0  0  0  0  0  0  0  0
    1.3052    3.5986   -0.0000 C   0  0  0  0  0  0  0  0  0  0  0  0
    2.6471    1.2808   -0.0000 C   0  0  0  0  0  0  0  0  0  0  0  0
   -1.3784    3.5986   -0.0000 N   0  0  0  0  0  0  0  0  0  0  0  0
   -2.7203    1.2686   -0.0000 C   0  0  0  0  0  0  0  0  0  0  0  0
   -0.0488    4.3793   -0.0000 C   0  0  0  0  0  0  0  0  0  0  0  0
    3.9767    2.0737   -0.0000 C   0  0  0  0  0  0  0  0  0  0  0  0
   -2.7325    4.3793   -0.0000 C   0  0  0  0  0  0  0  0  0  0  0  0
   -2.7325   -0.2684   -0.0000 C   0  0  0  0  0  0  0  0  0  0  0  0
   -0.0610    5.9407   -0.0000 N   0  0  0  0  0  0  0  0  0  0  0  0
    5.3063    1.3174   -0.0000 C   0  0  0  0  0  0  0  0  0  0  0  0
    3.9645    3.6352   -0.0000 C   0  0  0  0  0  0  0  0  0  0  0  0
   -3.8181    3.7693   -0.0000 O   0  0  0  0  0  0  0  0  0  0  0  0
   -2.7447    5.9407   -0.0000 C   0  0  0  0  0  0  0  0  0  0  0  0
   -4.0865   -1.0369   -0.0000 C   0  0  0  0  0  0  0  0  0  0  0  0
   -1.4028   -1.0247   -0.0000 C   0  0  0  0  0  0  0  0  0  0  0  0
   -1.4150    6.7214   -0.0000 N   0  0  0  0  0  0  0  0  0  0  0  0
    1.2686    6.7336   -0.0000 C   0  0  0  0  0  0  0  0  0  0  0  0
    5.6235   -0.1830   -0.0000 N   0  0  0  0  0  0  0  0  0  0  0  0
    6.6360    2.1103   -0.0000 C   0  0  0  0  0  0  0  0  0  0  0  0
    5.2941    4.4281   -0.0000 C   0  0  0  0  0  0  0  0  0  0  0  0
   -4.0987   -2.5739   -0.0000 C   0  0  0  0  0  0  0  0  0  0  0  0
   -1.4150   -2.5617   -0.0000 C   0  0  0  0  0  0  0  0  0  0  0  0
   -1.4272    8.2828   -0.0000 C   0  0  0  0  0  0  0  0  0  0  0  0
    2.3299    6.1236   -0.0000 O   0  0  0  0  0  0  0  0  0  0  0  0
    1.2564    8.2950   -0.0000 N   0  0  0  0  0  0  0  0  0  0  0  0
    7.1483   -0.3294   -0.0000 C   0  0  0  0  0  0  0  0  0  0  0  0
    4.7818   -1.0979   -0.0000 C   0  0  0  0  0  0  0  0  0  0  0  0
    7.7826    1.0857   -0.0000 C   0  0  0  0  0  0  0  0  0  0  0  0
    6.6238    3.6717   -0.0000 C   0  0  0  0  0  0  0  0  0  0  0  0
   -2.7691   -3.3302   -0.0000 C   0  0  0  0  0  0  0  0  0  0  0  0
   -2.7813    9.0635   -0.0000 C   0  0  0  0  0  0  0  0  0  0  0  0
    2.5861    9.0879   -0.0000 C   0  0  0  0  0  0  0  0  0  0  0  0
    9.2831    1.4272   -0.0000 C   0  0  0  0  0  0  0  0  0  0  0  0
   -2.7813   -4.5622   -0.0000 O   0  0  0  0  0  0  0  0  0  0  0  0
   -2.7935   10.3199   -0.0000 C   0  0  0  0  0  0  0  0  0  0  0  0
    2.5739   10.6493   -0.0000 C   0  0  0  0  0  0  0  0  0  0  0  0
    9.6490    2.6227   -0.0000 O   0  0  0  0  0  0  0  0  0  0  0  0
   10.3077    0.2928   -0.0000 N   0  0  0  0  0  0  0  0  0  0  0  0
    3.9035   11.4422   -0.0000 C   0  0  0  0  0  0  0  0  0  0  0  0
    1.2198   11.4300   -0.0000 C   0  0  0  0  0  0  0  0  0  0  0  0
   11.8081    0.6343   -0.0000 C   0  0  0  0  0  0  0  0  0  0  0  0
    3.8913   13.0036   -0.0000 C   0  0  0  0  0  0  0  0  0  0  0  0
    1.2077   12.9914   -0.0000 C   0  0  0  0  0  0  0  0  0  0  0  0
   12.2717    2.1225   -0.0000 C   0  0  0  0  0  0  0  0  0  0  0  0
   12.8328   -0.5001   -0.0000 C   0  0  0  0  0  0  0  0  0  0  0  0
    2.5373   13.7843   -0.0000 C   0  0  0  0  0  0  0  0  0  0  0  0
   13.7721    2.4641   -0.0000 N   0  0  0  0  0  0  0  0  0  0  0  0
   14.3332   -0.1586   -0.0000 C   0  0  0  0  0  0  0  0  0  0  0  0
   14.7968    1.3296   -0.0000 C   0  0  0  0  0  0  0  0  0  0  0  0
   16.2972    1.6712   -0.0000 N   0  0  0  0  0  0  0  0  0  0  0  0
   16.7607    3.1594   -0.0000 C   0  0  0  0  0  0  0  0  0  0  0  0
   18.2612    3.5010   -0.0000 C   0  0  0  0  0  0  0  0  0  0  0  0
   18.7247    4.9892   -0.0000 N   0  0  0  0  0  0  0  0  0  0  0  0
   20.2251    5.3307   -0.0000 C   0  0  0  0  0  0  0  0  0  0  0  0
   17.6634    6.1480   -0.0000 C   0  0  0  0  0  0  0  0  0  0  0  0
   20.5911    6.5262   -0.0000 C   0  0  0  0  0  0  0  0  0  0  0  0
   21.0424    4.4281   -0.0000 C   0  0  0  0  0  0  0  0  0  0  0  0
   16.4436    5.8919   -0.0000 C   0  0  0  0  0  0  0  0  0  0  0  0
   18.0294    7.3435   -0.0000 C   0  0  0  0  0  0  0  0  0  0  0  0
  1  2  2  0  0  0  0
  2  3  1  0  0  0  0
  2  4  1  0  0  0  0
  3  5  1  0  0  0  0
  3  6  1  0  0  0  0
  4  7  1  0  0  0  0
  4  8  1  0  0  0  0
  5  9  1  0  0  0  0
  6 10  1  0  0  0  0
  7 11  1  0  0  0  0
  8 12  1  0  0  0  0
  9 13  1  0  0  0  0
 10 14  2  0  0  0  0
 10 15  1  0  0  0  0
 11 16  2  0  0  0  0
 11 17  1  0  0  0  0
 12 18  2  0  0  0  0
 12 19  1  0  0  0  0
 13 20  1  0  0  0  0
 13 21  1  0  0  0  0
 14 22  1  0  0  0  0
 14 23  1  0  0  0  0
 15 24  2  0  0  0  0
 18 25  1  0  0  0  0
 19 26  2  0  0  0  0
 20 27  1  0  0  0  0
 21 28  2  0  0  0  0
 21 29  1  0  0  0  0
 22 30  1  0  0  0  0
 22 31  1  0  0  0  0
 23 32  1  0  0  0  0
 23 33  2  0  0  0  0
 25 34  2  0  0  0  0
 27 35  1  0  0  0  0
 29 36  1  0  0  0  0
 32 37  1  0  0  0  0
 34 38  1  0  0  0  0
 35 39  2  0  0  0  0
 36 40  1  0  0  0  0
 37 41  2  0  0  0  0
 37 42  1  0  0  0  0
 40 43  2  0  0  0  0
 40 44  1  0  0  0  0
 42 45  1  0  0  0  0
 43 46  1  0  0  0  0
 44 47  2  0  0  0  0
 45 48  2  0  0  0  0
 45 49  1  0  0  0  0
 46 50  2  0  0  0  0
 48 51  1  0  0  0  0
 49 52  2  0  0  0  0
 51 53  2  0  0  0  0
 53 54  1  0  0  0  0
 54 55  1  0  0  0  0
 55 56  1  0  0  0  0
 56 57  1  0  0  0  0
 57 58  1  0  0  0  0
 57 59  1  0  0  0  0
 58 60  1  0  0  0  0
 58 61  1  0  0  0  0
 59 62  1  0  0  0  0
 59 63  1  0  0  0  0
  7  9  1  0  0  0  0
 17 20  1  0  0  0  0
 24 33  1  0  0  0  0
 26 34  1  0  0  0  0
 30 32  2  0  0  0  0
 47 50  1  0  0  0  0
 52 53  1  0  0  0  0
M  END
>  <MolRegNo>
2036110

>  <m>
=

>  <Value>
4050

>  <Unit>
nM

>  <Type>
IC50

>  <pValue>
5.39

>  <Ligand Efficiency>
0.12

>  <Binding Efficiency>
6.31

>  <Surface Efficiency>
3.4

>  <Assay Index>
974120

>  <Assay Category>


>  <Assay Organism>
Homo sapiens

>  <Target ID>
17045

>  <Target Name>
Cytochrome P450 3A4

>  <Target Organism>
Homo sapiens

>  <Target Description>
Target is a single protein chain

>  <Sequence Accession>
P08684

>  <Reference>


>  <Pubmed ID>


>  <DOI>


$$$$
2036111
Actelion Java MolfileCreator 1.0

 68 74  0  0  0  0  0  0  0  0999 V2000
    0.0000   -0.0000   -0.0000 O   0  0  0  0  0  0  0  0  0  0  0  0
   -0.0122    1.2545   -0.0000 C   0  0  0  0  0  0  0  0  0  0  0  0
    1.3154    2.0340   -0.0000 N   0  0  0  0  0  0  0  0  0  0  0  0
   -1.3641    2.0340   -0.0000 C   0  0  0  0  0  0  0  0  0  0  0  0
    1.3032    3.5929   -0.0000 C   0  0  0  0  0  0  0  0  0  0  0  0
    2.6429    1.2788   -0.0000 C   0  0  0  0  0  0  0  0  0  0  0  0
   -1.3763    3.5929   -0.0000 N   0  0  0  0  0  0  0  0  0  0  0  0
   -2.7160    1.2667   -0.0000 C   0  0  0  0  0  0  0  0  0  0  0  0
   -0.0487    4.3724   -0.0000 C   0  0  0  0  0  0  0  0  0  0  0  0
    3.9705    2.0705   -0.0000 C   0  0  0  0  0  0  0  0  0  0  0  0
   -2.7282    4.3724   -0.0000 C   0  0  0  0  0  0  0  0  0  0  0  0
   -2.7282   -0.2679   -0.0000 C   0  0  0  0  0  0  0  0  0  0  0  0
   -0.0609    5.9313   -0.0000 N   0  0  0  0  0  0  0  0  0  0  0  0
    5.2980    1.3154   -0.0000 C   0  0  0  0  0  0  0  0  0  0  0  0
    3.9583    3.6294   -0.0000 C   0  0  0  0  0  0  0  0  0  0  0  0
   -3.8121    3.7634   -0.0000 O   0  0  0  0  0  0  0  0  0  0  0  0
   -2.7404    5.9313   -0.0000 C   0  0  0  0  0  0  0  0  0  0  0  0
   -4.0801   -1.0352   -0.0000 C   0  0  0  0  0  0  0  0  0  0  0  0
   -1.4006   -1.0231   -0.0000 C   0  0  0  0  0  0  0  0  0  0  0  0
   -1.4128    6.7108   -0.0000 N   0  0  0  0  0  0  0  0  0  0  0  0
    1.2667    6.7230   -0.0000 C   0  0  0  0  0  0  0  0  0  0  0  0
    5.6147   -0.1827   -0.0000 N   0  0  0  0  0  0  0  0  0  0  0  0
    6.6256    2.1070   -0.0000 C   0  0  0  0  0  0  0  0  0  0  0  0
    5.2858    4.4211   -0.0000 C   0  0  0  0  0  0  0  0  0  0  0  0
   -4.0923   -2.5698   -0.0000 C   0  0  0  0  0  0  0  0  0  0  0  0
   -1.4128   -2.5577   -0.0000 C   0  0  0  0  0  0  0  0  0  0  0  0
   -1.4250    8.2698   -0.0000 C   0  0  0  0  0  0  0  0  0  0  0  0
    2.3263    6.1140   -0.0000 O   0  0  0  0  0  0  0  0  0  0  0  0
    1.2545    8.2820   -0.0000 N   0  0  0  0  0  0  0  0  0  0  0  0
    7.1371   -0.3288   -0.0000 C   0  0  0  0  0  0  0  0  0  0  0  0
    4.7743   -1.0961   -0.0000 C   0  0  0  0  0  0  0  0  0  0  0  0
    7.7704    1.0840   -0.0000 C   0  0  0  0  0  0  0  0  0  0  0  0
    6.6134    3.6660   -0.0000 C   0  0  0  0  0  0  0  0  0  0  0  0
   -2.7647   -3.3250   -0.0000 C   0  0  0  0  0  0  0  0  0  0  0  0
   -2.7769    9.0493   -0.0000 C   0  0  0  0  0  0  0  0  0  0  0  0
    2.5820    9.0736   -0.0000 C   0  0  0  0  0  0  0  0  0  0  0  0
    9.2685    1.4250   -0.0000 C   0  0  0  0  0  0  0  0  0  0  0  0
   -2.7769   -4.5551   -0.0000 O   0  0  0  0  0  0  0  0  0  0  0  0
   -2.7891   10.3037   -0.0000 C   0  0  0  0  0  0  0  0  0  0  0  0
    2.5698   10.6326   -0.0000 C   0  0  0  0  0  0  0  0  0  0  0  0
    9.6339    2.6186   -0.0000 O   0  0  0  0  0  0  0  0  0  0  0  0
   10.2915    0.2923   -0.0000 N   0  0  0  0  0  0  0  0  0  0  0  0
    3.8974   11.4242   -0.0000 C   0  0  0  0  0  0  0  0  0  0  0  0
    1.2179   11.4120   -0.0000 C   0  0  0  0  0  0  0  0  0  0  0  0
   11.7896    0.6333   -0.0000 C   0  0  0  0  0  0  0  0  0  0  0  0
    3.8852   12.9832   -0.0000 C   0  0  0  0  0  0  0  0  0  0  0  0
    1.2058   12.9710   -0.0000 C   0  0  0  0  0  0  0  0  0  0  0  0
   12.2524    2.1192   -0.0000 C   0  0  0  0  0  0  0  0  0  0  0  0
   12.8127   -0.4994   -0.0000 C   0  0  0  0  0  0  0  0  0  0  0  0
    2.5333   13.7627   -0.0000 C   0  0  0  0  0  0  0  0  0  0  0  0
   13.7505    2.4602   -0.0000 N   0  0  0  0  0  0  0  0  0  0  0  0
   14.3107   -0.1583   -0.0000 C   0  0  0  0  0  0  0  0  0  0  0  0
   14.7735    1.3275   -0.0000 C   0  0  0  0  0  0  0  0  0  0  0  0
   16.2716    1.6686   -0.0000 N   0  0  0  0  0  0  0  0  0  0  0  0
   16.7344    3.1545   -0.0000 C   0  0  0  0  0  0  0  0  0  0  0  0
   17.3069    0.5359   -0.0000 C   0  0  0  0  0  0  0  0  0  0  0  0
   18.2325    3.4955   -0.0000 C   0  0  0  0  0  0  0  0  0  0  0  0
   18.8049    0.8769   -0.0000 C   0  0  0  0  0  0  0  0  0  0  0  0
   18.6953    4.9814   -0.0000 N   0  0  0  0  0  0  0  0  0  0  0  0
   19.8402   -0.2558   -0.0000 N   0  0  0  0  0  0  0  0  0  0  0  0
   20.1934    5.3224   -0.0000 C   0  0  0  0  0  0  0  0  0  0  0  0
   17.6357    6.1384   -0.0000 C   0  0  0  0  0  0  0  0  0  0  0  0
   21.3382    0.0853   -0.0000 C   0  0  0  0  0  0  0  0  0  0  0  0
   19.3652   -1.7173   -0.0000 C   0  0  0  0  0  0  0  0  0  0  0  0
   20.5587    6.5160   -0.0000 C   0  0  0  0  0  0  0  0  0  0  0  0
   16.4178    5.8826   -0.0000 C   0  0  0  0  0  0  0  0  0  0  0  0
   22.1664   -0.8160   -0.0000 C   0  0  0  0  0  0  0  0  0  0  0  0
   20.1934   -2.6186   -0.0000 C   0  0  0  0  0  0  0  0  0  0  0  0
  1  2  2  0  0  0  0
  2  3  1  0  0  0  0
  2  4  1  0  0  0  0
  3  5  1  0  0  0  0
  3  6  1  0  0  0  0
  4  7  1  0  0  0  0
  4  8  1  0  0  0  0
  5  9  1  0  0  0  0
  6 10  1  0  0  0  0
  7 11  1  0  0  0  0
  8 12  1  0  0  0  0
  9 13  1  0  0  0  0
 10 14  2  0  0  0  0
 10 15  1  0  0  0  0
 11 16  2  0  0  0  0
 11 17  1  0  0  0  0
 12 18  2  0  0  0  0
 12 19  1  0  0  0  0
 13 20  1  0  0  0  0
 13 21  1  0  0  0  0
 14 22  1  0  0  0  0
 14 23  1  0  0  0  0
 15 24  2  0  0  0  0
 18 25  1  0  0  0  0
 19 26  2  0  0  0  0
 20 27  1  0  0  0  0
 21 28  2  0  0  0  0
 21 29  1  0  0  0  0
 22 30  1  0  0  0  0
 22 31  1  0  0  0  0
 23 32  1  0  0  0  0
 23 33  2  0  0  0  0
 25 34  2  0  0  0  0
 27 35  1  0  0  0  0
 29 36  1  0  0  0  0
 32 37  1  0  0  0  0
 34 38  1  0  0  0  0
 35 39  2  0  0  0  0
 36 40  1  0  0  0  0
 37 41  2  0  0  0  0
 37 42  1  0  0  0  0
 40 43  2  0  0  0  0
 40 44  1  0  0  0  0
 42 45  1  0  0  0  0
 43 46  1  0  0  0  0
 44 47  2  0  0  0  0
 45 48  2  0  0  0  0
 45 49  1  0  0  0  0
 46 50  2  0  0  0  0
 48 51  1  0  0  0  0
 49 52  2  0  0  0  0
 51 53  2  0  0  0  0
 53 54  1  0  0  0  0
 54 55  1  0  0  0  0
 54 56  1  0  0  0  0
 55 57  1  0  0  0  0
 56 58  1  0  0  0  0
 57 59  1  0  0  0  0
 58 60  1  0  0  0  0
 59 61  1  0  0  0  0
 59 62  1  0  0  0  0
 60 63  1  0  0  0  0
 60 64  1  0  0  0  0
 61 65  1  0  0  0  0
 62 66  1  0  0  0  0
 63 67  1  0  0  0  0
 64 68  1  0  0  0  0
  7  9  1  0  0  0  0
 17 20  1  0  0  0  0
 24 33  1  0  0  0  0
 26 34  1  0  0  0  0
 30 32  2  0  0  0  0
 47 50  1  0  0  0  0
 52 53  1  0  0  0  0
M  END
>  <MolRegNo>
2036111

>  <m>
=

>  <Value>
5350

>  <Unit>
nM

>  <Type>
IC50

>  <pValue>
5.27

>  <Ligand Efficiency>
0.11

>  <Binding Efficiency>
5.69

>  <Surface Efficiency>
3.44

>  <Assay Index>
974120

>  <Assay Category>


>  <Assay Organism>
Homo sapiens

>  <Target ID>
17045

>  <Target Name>
Cytochrome P450 3A4

>  <Target Organism>
Homo sapiens

>  <Target Description>
Target is a single protein chain

>  <Sequence Accession>
P08684

>  <Reference>


>  <Pubmed ID>


>  <DOI>


$$$$
2036112
Actelion Java MolfileCreator 1.0

 62 69  0  0  0  0  0  0  0  0999 V2000
    0.0000   -0.0000   -0.0000 O   0  0  0  0  0  0  0  0  0  0  0  0
   -0.0121    1.2414   -0.0000 C   0  0  0  0  0  0  0  0  0  0  0  0
    1.3016    2.0127   -0.0000 N   0  0  0  0  0  0  0  0  0  0  0  0
   -1.3499    2.0127   -0.0000 C   0  0  0  0  0  0  0  0  0  0  0  0
    1.2896    3.5554   -0.0000 C   0  0  0  0  0  0  0  0  0  0  0  0
    2.6153    1.2655   -0.0000 C   0  0  0  0  0  0  0  0  0  0  0  0
   -1.3619    3.5554   -0.0000 N   0  0  0  0  0  0  0  0  0  0  0  0
   -2.6877    1.2534   -0.0000 C   0  0  0  0  0  0  0  0  0  0  0  0
   -0.0482    4.3268   -0.0000 C   0  0  0  0  0  0  0  0  0  0  0  0
    3.9290    2.0489   -0.0000 C   0  0  0  0  0  0  0  0  0  0  0  0
   -2.6997    4.3268   -0.0000 C   0  0  0  0  0  0  0  0  0  0  0  0
   -2.6997   -0.2651   -0.0000 C   0  0  0  0  0  0  0  0  0  0  0  0
   -0.0603    5.8694   -0.0000 N   0  0  0  0  0  0  0  0  0  0  0  0
    5.2427    1.3016   -0.0000 C   0  0  0  0  0  0  0  0  0  0  0  0
    3.9170    3.5916   -0.0000 C   0  0  0  0  0  0  0  0  0  0  0  0
   -3.7724    3.7241   -0.0000 O   0  0  0  0  0  0  0  0  0  0  0  0
   -2.7118    5.8694   -0.0000 C   0  0  0  0  0  0  0  0  0  0  0  0
   -4.0375   -1.0244   -0.0000 C   0  0  0  0  0  0  0  0  0  0  0  0
   -1.3860   -1.0124   -0.0000 C   0  0  0  0  0  0  0  0  0  0  0  0
   -1.3981    6.6408   -0.0000 N   0  0  0  0  0  0  0  0  0  0  0  0
    1.2534    6.6528   -0.0000 C   0  0  0  0  0  0  0  0  0  0  0  0
    5.5561   -0.1808   -0.0000 N   0  0  0  0  0  0  0  0  0  0  0  0
    6.5564    2.0850   -0.0000 C   0  0  0  0  0  0  0  0  0  0  0  0
    5.2307    4.3750   -0.0000 C   0  0  0  0  0  0  0  0  0  0  0  0
   -4.0496   -2.5430   -0.0000 C   0  0  0  0  0  0  0  0  0  0  0  0
   -1.3981   -2.5310   -0.0000 C   0  0  0  0  0  0  0  0  0  0  0  0
   -1.4101    8.1835   -0.0000 C   0  0  0  0  0  0  0  0  0  0  0  0
    2.3020    6.0502   -0.0000 O   0  0  0  0  0  0  0  0  0  0  0  0
    1.2414    8.1955   -0.0000 N   0  0  0  0  0  0  0  0  0  0  0  0
    7.0626   -0.3254   -0.0000 C   0  0  0  0  0  0  0  0  0  0  0  0
    4.7245   -1.0847   -0.0000 C   0  0  0  0  0  0  0  0  0  0  0  0
    7.6893    1.0727   -0.0000 C   0  0  0  0  0  0  0  0  0  0  0  0
    6.5444    3.6277   -0.0000 C   0  0  0  0  0  0  0  0  0  0  0  0
   -2.7359   -3.2903   -0.0000 C   0  0  0  0  0  0  0  0  0  0  0  0
   -2.7479    8.9548   -0.0000 C   0  0  0  0  0  0  0  0  0  0  0  0
    2.5551    8.9789   -0.0000 C   0  0  0  0  0  0  0  0  0  0  0  0
    9.1718    1.4101   -0.0000 C   0  0  0  0  0  0  0  0  0  0  0  0
   -2.7479   -4.5075   -0.0000 O   0  0  0  0  0  0  0  0  0  0  0  0
   -2.7600   10.1962   -0.0000 C   0  0  0  0  0  0  0  0  0  0  0  0
    2.5430   10.5216   -0.0000 C   0  0  0  0  0  0  0  0  0  0  0  0
    9.5333    2.5912   -0.0000 O   0  0  0  0  0  0  0  0  0  0  0  0
   10.1842    0.2893   -0.0000 N   0  0  0  0  0  0  0  0  0  0  0  0
    3.8567   11.3050   -0.0000 C   0  0  0  0  0  0  0  0  0  0  0  0
    1.2052   11.2930   -0.0000 C   0  0  0  0  0  0  0  0  0  0  0  0
   11.6666    0.6267   -0.0000 C   0  0  0  0  0  0  0  0  0  0  0  0
    3.8447   12.8477   -0.0000 C   0  0  0  0  0  0  0  0  0  0  0  0
    1.1932   12.8357   -0.0000 C   0  0  0  0  0  0  0  0  0  0  0  0
   12.1246    2.0971   -0.0000 C   0  0  0  0  0  0  0  0  0  0  0  0
   12.6790   -0.4941   -0.0000 C   0  0  0  0  0  0  0  0  0  0  0  0
    2.5069   13.6190   -0.0000 C   0  0  0  0  0  0  0  0  0  0  0  0
   13.6070    2.4346   -0.0000 N   0  0  0  0  0  0  0  0  0  0  0  0
   14.1614   -0.1567   -0.0000 C   0  0  0  0  0  0  0  0  0  0  0  0
   14.6194    1.3137   -0.0000 C   0  0  0  0  0  0  0  0  0  0  0  0
   16.1018    1.6512   -0.0000 N   0  0  0  0  0  0  0  0  0  0  0  0
   16.5598    3.1215   -0.0000 C   0  0  0  0  0  0  0  0  0  0  0  0
   18.0422    3.4590   -0.0000 C   0  0  0  0  0  0  0  0  0  0  0  0
   18.5002    4.9294   -0.0000 N   0  0  0  0  0  0  0  0  0  0  0  0
   19.9826    5.2668   -0.0000 C   0  0  0  0  0  0  0  0  0  0  0  0
   17.4517    6.0743   -0.0000 C   0  0  0  0  0  0  0  0  0  0  0  0
   20.4286    6.7372   -0.0000 C   0  0  0  0  0  0  0  0  0  0  0  0
   17.8976    7.5447   -0.0000 C   0  0  0  0  0  0  0  0  0  0  0  0
   19.3800    7.8822   -0.0000 C   0  0  0  0  0  0  0  0  0  0  0  0
  1  2  2  0  0  0  0
  2  3  1  0  0  0  0
  2  4  1  0  0  0  0
  3  5  1  0  0  0  0
  3  6  1  0  0  0  0
  4  7  1  0  0  0  0
  4  8  1  0  0  0  0
  5  9  1  0  0  0  0
  6 10  1  0  0  0  0
  7 11  1  0  0  0  0
  8 12  1  0  0  0  0
  9 13  1  0  0  0  0
 10 14  2  0  0  0  0
 10 15  1  0  0  0  0
 11 16  2  0  0  0  0
 11 17  1  0  0  0  0
 12 18  2  0  0  0  0
 12 19  1  0  0  0  0
 13 20  1  0  0  0  0
 13 21  1  0  0  0  0
 14 22  1  0  0  0  0
 14 23  1  0  0  0  0
 15 24  2  0  0  0  0
 18 25  1  0  0  0  0
 19 26  2  0  0  0  0
 20 27  1  0  0  0  0
 21 28  2  0  0  0  0
 21 29  1  0  0  0  0
 22 30  1  0  0  0  0
 22 31  1  0  0  0  0
 23 32  1  0  0  0  0
 23 33  2  0  0  0  0
 25 34  2  0  0  0  0
 27 35  1  0  0  0  0
 29 36  1  0  0  0  0
 32 37  1  0  0  0  0
 34 38  1  0  0  0  0
 35 39  2  0  0  0  0
 36 40  1  0  0  0  0
 37 41  2  0  0  0  0
 37 42  1  0  0  0  0
 40 43  2  0  0  0  0
 40 44  1  0  0  0  0
 42 45  1  0  0  0  0
 43 46  1  0  0  0  0
 44 47  2  0  0  0  0
 45 48  2  0  0  0  0
 45 49  1  0  0  0  0
 46 50  2  0  0  0  0
 48 51  1  0  0  0  0
 49 52  2  0  0  0  0
 51 53  2  0  0  0  0
 53 54  1  0  0  0  0
 54 55  1  0  0  0  0
 55 56  1  0  0  0  0
 56 57  1  0  0  0  0
 57 58  1  0  0  0  0
 57 59  1  0  0  0  0
 58 60  1  0  0  0  0
 59 61  1  0  0  0  0
 60 62  1  0  0  0  0
  7  9  1  0  0  0  0
 17 20  1  0  0  0  0
 24 33  1  0  0  0  0
 26 34  1  0  0  0  0
 30 32  2  0  0  0  0
 47 50  1  0  0  0  0
 52 53  1  0  0  0  0
 61 62  1  0  0  0  0
M  END
>  <MolRegNo>
2036112

>  <m>
=

>  <Value>
2530

>  <Unit>
nM

>  <Type>
IC50

>  <pValue>
5.6

>  <Ligand Efficiency>
0.12

>  <Binding Efficiency>
6.67

>  <Surface Efficiency>
3.53

>  <Assay Index>
974120

>  <Assay Category>


>  <Assay Organism>
Homo sapiens

>  <Target ID>
17045

>  <Target Name>
Cytochrome P450 3A4

>  <Target Organism>
Homo sapiens

>  <Target Description>
Target is a single protein chain

>  <Sequence Accession>
P08684

>  <Reference>


>  <Pubmed ID>


>  <DOI>


$$$$
2036113
Actelion Java MolfileCreator 1.0

 62 69  0  0  0  0  0  0  0  0999 V2000
    0.0000   -0.0000   -0.0000 O   0  0  0  0  0  0  0  0  0  0  0  0
   -0.0121    1.2414   -0.0000 C   0  0  0  0  0  0  0  0  0  0  0  0
    1.3016    2.0127   -0.0000 N   0  0  0  0  0  0  0  0  0  0  0  0
   -1.3499    2.0127   -0.0000 C   0  0  0  0  0  0  0  0  0  0  0  0
    1.2896    3.5554   -0.0000 C   0  0  0  0  0  0  0  0  0  0  0  0
    2.6153    1.2655   -0.0000 C   0  0  0  0  0  0  0  0  0  0  0  0
   -1.3619    3.5554   -0.0000 N   0  0  0  0  0  0  0  0  0  0  0  0
   -2.6877    1.2534   -0.0000 C   0  0  0  0  0  0  0  0  0  0  0  0
   -0.0482    4.3268   -0.0000 C   0  0  0  0  0  0  0  0  0  0  0  0
    3.9290    2.0489   -0.0000 C   0  0  0  0  0  0  0  0  0  0  0  0
   -2.6997    4.3268   -0.0000 C   0  0  0  0  0  0  0  0  0  0  0  0
   -2.6997   -0.2651   -0.0000 C   0  0  0  0  0  0  0  0  0  0  0  0
   -0.0603    5.8694   -0.0000 N   0  0  0  0  0  0  0  0  0  0  0  0
    5.2427    1.3016   -0.0000 C   0  0  0  0  0  0  0  0  0  0  0  0
    3.9170    3.5916   -0.0000 C   0  0  0  0  0  0  0  0  0  0  0  0
   -3.7724    3.7241   -0.0000 O   0  0  0  0  0  0  0  0  0  0  0  0
   -2.7118    5.8694   -0.0000 C   0  0  0  0  0  0  0  0  0  0  0  0
   -4.0375   -1.0244   -0.0000 C   0  0  0  0  0  0  0  0  0  0  0  0
   -1.3860   -1.0124   -0.0000 C   0  0  0  0  0  0  0  0  0  0  0  0
   -1.3981    6.6408   -0.0000 N   0  0  0  0  0  0  0  0  0  0  0  0
    1.2534    6.6528   -0.0000 C   0  0  0  0  0  0  0  0  0  0  0  0
    5.5561   -0.1808   -0.0000 N   0  0  0  0  0  0  0  0  0  0  0  0
    6.5564    2.0850   -0.0000 C   0  0  0  0  0  0  0  0  0  0  0  0
    5.2307    4.3750   -0.0000 C   0  0  0  0  0  0  0  0  0  0  0  0
   -4.0496   -2.5430   -0.0000 C   0  0  0  0  0  0  0  0  0  0  0  0
   -1.3981   -2.5310   -0.0000 C   0  0  0  0  0  0  0  0  0  0  0  0
   -1.4101    8.1835   -0.0000 C   0  0  0  0  0  0  0  0  0  0  0  0
    2.3020    6.0502   -0.0000 O   0  0  0  0  0  0  0  0  0  0  0  0
    1.2414    8.1955   -0.0000 N   0  0  0  0  0  0  0  0  0  0  0  0
    7.0626   -0.3254   -0.0000 C   0  0  0  0  0  0  0  0  0  0  0  0
    4.7245   -1.0847   -0.0000 C   0  0  0  0  0  0  0  0  0  0  0  0
    7.6893    1.0727   -0.0000 C   0  0  0  0  0  0  0  0  0  0  0  0
    6.5444    3.6277   -0.0000 C   0  0  0  0  0  0  0  0  0  0  0  0
   -2.7359   -3.2903   -0.0000 C   0  0  0  0  0  0  0  0  0  0  0  0
   -2.7479    8.9548   -0.0000 C   0  0  0  0  0  0  0  0  0  0  0  0
    2.5551    8.9789   -0.0000 C   0  0  0  0  0  0  0  0  0  0  0  0
    9.1718    1.4101   -0.0000 C   0  0  0  0  0  0  0  0  0  0  0  0
   -2.7479   -4.5075   -0.0000 O   0  0  0  0  0  0  0  0  0  0  0  0
   -2.7600   10.1962   -0.0000 C   0  0  0  0  0  0  0  0  0  0  0  0
    2.5430   10.5216   -0.0000 C   0  0  0  0  0  0  0  0  0  0  0  0
    9.5333    2.5912   -0.0000 O   0  0  0  0  0  0  0  0  0  0  0  0
   10.1842    0.2893   -0.0000 N   0  0  0  0  0  0  0  0  0  0  0  0
    3.8567   11.3050   -0.0000 C   0  0  0  0  0  0  0  0  0  0  0  0
    1.2052   11.2930   -0.0000 C   0  0  0  0  0  0  0  0  0  0  0  0
   11.6666    0.6267   -0.0000 C   0  0  0  0  0  0  0  0  0  0  0  0
    3.8447   12.8477   -0.0000 C   0  0  0  0  0  0  0  0  0  0  0  0
    1.1932   12.8357   -0.0000 C   0  0  0  0  0  0  0  0  0  0  0  0
   12.1246    2.0971   -0.0000 C   0  0  0  0  0  0  0  0  0  0  0  0
   12.6790   -0.4941   -0.0000 C   0  0  0  0  0  0  0  0  0  0  0  0
    2.5069   13.6190   -0.0000 C   0  0  0  0  0  0  0  0  0  0  0  0
   13.6070    2.4346   -0.0000 N   0  0  0  0  0  0  0  0  0  0  0  0
   14.1614   -0.1567   -0.0000 C   0  0  0  0  0  0  0  0  0  0  0  0
   14.6194    1.3137   -0.0000 C   0  0  0  0  0  0  0  0  0  0  0  0
   16.1018    1.6512   -0.0000 N   0  0  0  0  0  0  0  0  0  0  0  0
   16.5598    3.1215   -0.0000 C   0  0  0  0  0  0  0  0  0  0  0  0
   18.0422    3.4590   -0.0000 C   0  0  0  0  0  0  0  0  0  0  0  0
   18.5002    4.9294   -0.0000 N   0  0  0  0  0  0  0  0  0  0  0  0
   19.9826    5.2668   -0.0000 C   0  0  0  0  0  0  0  0  0  0  0  0
   17.4517    6.0743   -0.0000 C   0  0  0  0  0  0  0  0  0  0  0  0
   20.4286    6.7372   -0.0000 C   0  0  0  0  0  0  0  0  0  0  0  0
   17.8976    7.5447   -0.0000 C   0  0  0  0  0  0  0  0  0  0  0  0
   19.3800    7.8822   -0.0000 O   0  0  0  0  0  0  0  0  0  0  0  0
  1  2  2  0  0  0  0
  2  3  1  0  0  0  0
  2  4  1  0  0  0  0
  3  5  1  0  0  0  0
  3  6  1  0  0  0  0
  4  7  1  0  0  0  0
  4  8  1  0  0  0  0
  5  9  1  0  0  0  0
  6 10  1  0  0  0  0
  7 11  1  0  0  0  0
  8 12  1  0  0  0  0
  9 13  1  0  0  0  0
 10 14  2  0  0  0  0
 10 15  1  0  0  0  0
 11 16  2  0  0  0  0
 11 17  1  0  0  0  0
 12 18  2  0  0  0  0
 12 19  1  0  0  0  0
 13 20  1  0  0  0  0
 13 21  1  0  0  0  0
 14 22  1  0  0  0  0
 14 23  1  0  0  0  0
 15 24  2  0  0  0  0
 18 25  1  0  0  0  0
 19 26  2  0  0  0  0
 20 27  1  0  0  0  0
 21 28  2  0  0  0  0
 21 29  1  0  0  0  0
 22 30  1  0  0  0  0
 22 31  1  0  0  0  0
 23 32  1  0  0  0  0
 23 33  2  0  0  0  0
 25 34  2  0  0  0  0
 27 35  1  0  0  0  0
 29 36  1  0  0  0  0
 32 37  1  0  0  0  0
 34 38  1  0  0  0  0
 35 39  2  0  0  0  0
 36 40  1  0  0  0  0
 37 41  2  0  0  0  0
 37 42  1  0  0  0  0
 40 43  2  0  0  0  0
 40 44  1  0  0  0  0
 42 45  1  0  0  0  0
 43 46  1  0  0  0  0
 44 47  2  0  0  0  0
 45 48  2  0  0  0  0
 45 49  1  0  0  0  0
 46 50  2  0  0  0  0
 48 51  1  0  0  0  0
 49 52  2  0  0  0  0
 51 53  2  0  0  0  0
 53 54  1  0  0  0  0
 54 55  1  0  0  0  0
 55 56  1  0  0  0  0
 56 57  1  0  0  0  0
 57 58  1  0  0  0  0
 57 59  1  0  0  0  0
 58 60  1  0  0  0  0
 59 61  1  0  0  0  0
 60 62  1  0  0  0  0
  7  9  1  0  0  0  0
 17 20  1  0  0  0  0
 24 33  1  0  0  0  0
 26 34  1  0  0  0  0
 30 32  2  0  0  0  0
 47 50  1  0  0  0  0
 52 53  1  0  0  0  0
 61 62  1  0  0  0  0
M  END
>  <MolRegNo>
2036113

>  <m>
=

>  <Value>
2320

>  <Unit>
nM

>  <Type>
IC50

>  <pValue>
5.63

>  <Ligand Efficiency>
0.12

>  <Binding Efficiency>
6.7

>  <Surface Efficiency>
3.36

>  <Assay Index>
974120

>  <Assay Category>


>  <Assay Organism>
Homo sapiens

>  <Target ID>
17045

>  <Target Name>
Cytochrome P450 3A4

>  <Target Organism>
Homo sapiens

>  <Target Description>
Target is a single protein chain

>  <Sequence Accession>
P08684

>  <Reference>


>  <Pubmed ID>


>  <DOI>


$$$$
2036114
Actelion Java MolfileCreator 1.0

 63 70  0  0  1  0  0  0  0  0999 V2000
    0.0000   -0.0000   -0.0000 O   0  0  0  0  0  0  0  0  0  0  0  0
   -0.0121    1.2426   -0.0000 C   0  0  0  0  0  0  0  0  0  0  0  0
    1.3029    2.0146   -0.0000 N   0  0  0  0  0  0  0  0  0  0  0  0
   -1.3511    2.0146   -0.0000 C   0  0  0  0  0  0  0  0  0  0  0  0
    1.2908    3.5588   -0.0000 C   0  0  0  0  0  0  0  0  0  0  0  0
    2.6178    1.2667   -0.0000 C   0  0  0  0  0  0  0  0  0  0  0  0
   -1.3632    3.5588   -0.0000 N   0  0  0  0  0  0  0  0  0  0  0  0
   -2.6902    1.2667   -0.0000 C   0  0  0  0  0  0  0  0  0  0  0  0
   -0.0483    4.3309   -0.0000 C   0  0  0  0  0  0  0  0  0  0  0  0
    3.9328    2.0508   -0.0000 C   0  0  0  0  0  0  0  0  0  0  0  0
   -2.7023    4.3309   -0.0000 C   0  0  0  0  0  0  0  0  0  0  0  0
   -4.0293    2.0508   -0.0000 C   0  0  0  0  0  0  0  0  0  0  0  0
   -0.0603    5.8750   -0.0000 N   0  0  0  0  0  0  0  0  0  0  0  0
    5.2477    1.3029   -0.0000 C   0  0  0  0  0  0  0  0  0  0  0  0
    3.9207    3.5950   -0.0000 C   0  0  0  0  0  0  0  0  0  0  0  0
   -3.7759    3.7277   -0.0000 O   0  0  0  0  0  0  0  0  0  0  0  0
   -2.7143    5.8750   -0.0000 C   0  0  0  0  0  0  0  0  0  0  0  0
   -5.3684    1.3029   -0.0000 C   0  0  0  0  0  0  0  0  0  0  0  0
   -4.0413    3.5950   -0.0000 C   0  0  0  0  0  0  0  0  0  0  0  0
   -1.3994    6.6471   -0.0000 N   0  0  0  0  0  0  0  0  0  0  0  0
    1.2546    6.6592   -0.0000 C   0  0  0  0  0  0  0  0  0  0  0  0
    5.5614   -0.1810   -0.0000 N   0  0  0  0  0  0  0  0  0  0  0  0
    6.5627    2.0870   -0.0000 C   0  0  0  0  0  0  0  0  0  0  0  0
    5.2357    4.3791   -0.0000 C   0  0  0  0  0  0  0  0  0  0  0  0
   -6.7074    2.0870   -0.0000 C   0  0  0  0  0  0  0  0  0  0  0  0
   -5.3804    4.3791   -0.0000 C   0  0  0  0  0  0  0  0  0  0  0  0
   -1.4115    8.1913   -0.0000 C   0  0  0  0  0  0  0  0  0  0  0  0
    2.3042    6.0560   -0.0000 O   0  0  0  0  0  0  0  0  0  0  0  0
    1.2426    8.2033   -0.0000 N   0  0  0  0  0  0  0  0  0  0  0  0
    7.0693   -0.3257   -0.0000 C   0  0  0  0  0  0  0  0  0  0  0  0
    4.7290   -1.0857   -0.0000 C   0  0  0  0  0  0  0  0  0  0  0  0
    7.6967    1.0737   -0.0000 C   0  0  0  0  0  0  0  0  0  0  0  0
    6.5506    3.6312   -0.0000 C   0  0  0  0  0  0  0  0  0  0  0  0
   -6.7195    3.6312   -0.0000 C   0  0  0  0  0  0  0  0  0  0  0  0
   -2.7505    8.9633   -0.0000 C   0  0  0  0  0  0  0  0  0  0  0  0
    2.5575    8.9875   -0.0000 C   0  0  0  0  0  0  0  0  0  0  0  0
    9.1805    1.4115   -0.0000 C   0  0  0  0  0  0  0  0  0  0  0  0
   -7.7932    4.2585   -0.0000 O   0  0  0  0  0  0  0  0  0  0  0  0
   -2.7626   10.2059   -0.0000 C   0  0  0  0  0  0  0  0  0  0  0  0
    2.5454   10.5316   -0.0000 C   0  0  0  0  0  0  0  0  0  0  0  0
    9.5424    2.5937   -0.0000 O   0  0  0  0  0  0  0  0  0  0  0  0
   10.1938    0.2895   -0.0000 N   0  0  0  0  0  0  0  0  0  0  0  0
    3.8604   11.3158   -0.0000 C   0  0  0  0  0  0  0  0  0  0  0  0
    1.2064   11.3037   -0.0000 C   0  0  0  0  0  0  0  0  0  0  0  0
   11.6777    0.6273   -0.0000 C   0  0  0  0  0  0  0  0  0  0  0  0
    3.8483   12.8599   -0.0000 C   0  0  0  0  0  0  0  0  0  0  0  0
    1.1943   12.8479   -0.0000 C   0  0  0  0  0  0  0  0  0  0  0  0
   12.1361    2.0991   -0.0000 C   0  0  0  0  0  0  0  0  0  0  0  0
   12.6910   -0.4946   -0.0000 C   0  0  0  0  0  0  0  0  0  0  0  0
    2.5093   13.6320   -0.0000 C   0  0  0  0  0  0  0  0  0  0  0  0
   13.6199    2.4369   -0.0000 N   0  0  0  0  0  0  0  0  0  0  0  0
   14.1749   -0.1568   -0.0000 C   0  0  0  0  0  0  0  0  0  0  0  0
   14.6333    1.3149   -0.0000 C   0  0  0  0  0  0  0  0  0  0  0  0
   16.1171    1.6527   -0.0000 N   0  0  0  0  0  0  0  0  0  0  0  0
   16.5755    3.1245   -0.0000 C   0  0  0  0  0  0  0  0  0  0  0  0
   18.0594    3.4623   -0.0000 C   0  0  0  0  0  0  0  0  0  0  0  0
   18.5178    4.9341   -0.0000 N   0  0  0  0  0  0  0  0  0  0  0  0
   20.0016    5.2718   -0.0000 C   0  0  0  0  0  0  0  0  0  0  0  0
   17.4683    6.0801   -0.0000 C   0  0  0  0  0  0  0  0  0  0  0  0
   20.4480    6.7436   -0.0000 C   0  0  0  0  0  0  0  0  0  0  0  0
   17.9146    7.5519   -0.0000 C   0  0  0  0  0  0  0  0  0  0  0  0
   19.3985    7.8897   -0.0000 C   0  0  0  0  0  0  0  0  0  0  0  0
   19.7604    9.0719   -0.0000 O   0  0  0  0  0  0  0  0  0  0  0  0
  1  2  2  0  0  0  0
  2  3  1  0  0  0  0
  2  4  1  0  0  0  0
  3  5  1  0  0  0  0
  3  6  1  0  0  0  0
  4  7  1  0  0  0  0
  4  8  1  6  0  0  0
  5  9  1  0  0  0  0
  6 10  1  0  0  0  0
  7 11  1  0  0  0  0
  8 12  1  0  0  0  0
  9 13  1  0  0  0  0
 10 14  2  0  0  0  0
 10 15  1  0  0  0  0
 11 16  2  0  0  0  0
 11 17  1  0  0  0  0
 12 18  2  0  0  0  0
 12 19  1  0  0  0  0
 13 20  1  0  0  0  0
 13 21  1  0  0  0  0
 14 22  1  0  0  0  0
 14 23  1  0  0  0  0
 15 24  2  0  0  0  0
 18 25  1  0  0  0  0
 19 26  2  0  0  0  0
 20 27  1  0  0  0  0
 21 28  2  0  0  0  0
 21 29  1  0  0  0  0
 22 30  1  0  0  0  0
 22 31  1  0  0  0  0
 23 32  1  0  0  0  0
 23 33  2  0  0  0  0
 25 34  2  0  0  0  0
 27 35  1  0  0  0  0
 29 36  1  0  0  0  0
 32 37  1  0  0  0  0
 34 38  1  0  0  0  0
 35 39  2  0  0  0  0
 36 40  1  0  0  0  0
 37 41  2  0  0  0  0
 37 42  1  0  0  0  0
 40 43  2  0  0  0  0
 40 44  1  0  0  0  0
 42 45  1  0  0  0  0
 43 46  1  0  0  0  0
 44 47  2  0  0  0  0
 45 48  2  0  0  0  0
 45 49  1  0  0  0  0
 46 50  2  0  0  0  0
 48 51  1  0  0  0  0
 49 52  2  0  0  0  0
 51 53  2  0  0  0  0
 53 54  1  0  0  0  0
 54 55  1  0  0  0  0
 55 56  1  0  0  0  0
 56 57  1  0  0  0  0
 57 58  1  0  0  0  0
 57 59  1  0  0  0  0
 58 60  1  0  0  0  0
 59 61  1  0  0  0  0
 60 62  1  0  0  0  0
 62 63  1  0  0  0  0
  7  9  1  0  0  0  0
 17 20  1  0  0  0  0
 24 33  1  0  0  0  0
 26 34  1  0  0  0  0
 30 32  2  0  0  0  0
 47 50  1  0  0  0  0
 52 53  1  0  0  0  0
 61 62  1  0  0  0  0
M  END
>  <MolRegNo>
2036114

>  <m>
=

>  <Value>
5800

>  <Unit>
nM

>  <Type>
IC50

>  <pValue>
5.24

>  <Ligand Efficiency>
0.11

>  <Binding Efficiency>
6.12

>  <Surface Efficiency>
2.93

>  <Assay Index>
974120

>  <Assay Category>


>  <Assay Organism>
Homo sapiens

>  <Target ID>
17045

>  <Target Name>
Cytochrome P450 3A4

>  <Target Organism>
Homo sapiens

>  <Target Description>
Target is a single protein chain

>  <Sequence Accession>
P08684

>  <Reference>


>  <Pubmed ID>


>  <DOI>


$$$$
2036115
Actelion Java MolfileCreator 1.0

 63 70  0  0  1  0  0  0  0  0999 V2000
    0.0000   -0.0000   -0.0000 O   0  0  0  0  0  0  0  0  0  0  0  0
   -0.0120    1.2401   -0.0000 C   0  0  0  0  0  0  0  0  0  0  0  0
    1.3003    2.0107   -0.0000 N   0  0  0  0  0  0  0  0  0  0  0  0
   -1.3485    2.0107   -0.0000 C   0  0  0  0  0  0  0  0  0  0  0  0
    1.2883    3.5518   -0.0000 C   0  0  0  0  0  0  0  0  0  0  0  0
    2.6126    1.2642   -0.0000 C   0  0  0  0  0  0  0  0  0  0  0  0
   -1.3605    3.5518   -0.0000 N   0  0  0  0  0  0  0  0  0  0  0  0
   -2.6849    1.2642   -0.0000 C   0  0  0  0  0  0  0  0  0  0  0  0
   -0.0482    4.3223   -0.0000 C   0  0  0  0  0  0  0  0  0  0  0  0
    3.9250    2.0468   -0.0000 C   0  0  0  0  0  0  0  0  0  0  0  0
   -2.6969    4.3223   -0.0000 C   0  0  0  0  0  0  0  0  0  0  0  0
   -4.0213    2.0468   -0.0000 C   0  0  0  0  0  0  0  0  0  0  0  0
   -0.0602    5.8634   -0.0000 N   0  0  0  0  0  0  0  0  0  0  0  0
    5.2373    1.3003   -0.0000 C   0  0  0  0  0  0  0  0  0  0  0  0
    3.9130    3.5879   -0.0000 C   0  0  0  0  0  0  0  0  0  0  0  0
   -3.7685    3.7203   -0.0000 O   0  0  0  0  0  0  0  0  0  0  0  0
   -2.7090    5.8634   -0.0000 C   0  0  0  0  0  0  0  0  0  0  0  0
   -5.3577    1.3003   -0.0000 C   0  0  0  0  0  0  0  0  0  0  0  0
   -4.0334    3.5879   -0.0000 C   0  0  0  0  0  0  0  0  0  0  0  0
   -1.3966    6.6340   -0.0000 N   0  0  0  0  0  0  0  0  0  0  0  0
    1.2521    6.6460   -0.0000 C   0  0  0  0  0  0  0  0  0  0  0  0
    5.5504   -0.1806   -0.0000 N   0  0  0  0  0  0  0  0  0  0  0  0
    6.5497    2.0829   -0.0000 C   0  0  0  0  0  0  0  0  0  0  0  0
    5.2253    4.3705   -0.0000 C   0  0  0  0  0  0  0  0  0  0  0  0
   -6.6942    2.0829   -0.0000 C   0  0  0  0  0  0  0  0  0  0  0  0
   -5.3698    4.3705   -0.0000 C   0  0  0  0  0  0  0  0  0  0  0  0
   -1.4087    8.1751   -0.0000 C   0  0  0  0  0  0  0  0  0  0  0  0
    2.2996    6.0440   -0.0000 O   0  0  0  0  0  0  0  0  0  0  0  0
    1.2401    8.1871   -0.0000 N   0  0  0  0  0  0  0  0  0  0  0  0
    7.0554   -0.3251   -0.0000 C   0  0  0  0  0  0  0  0  0  0  0  0
    4.7196   -1.0836   -0.0000 C   0  0  0  0  0  0  0  0  0  0  0  0
    7.6814    1.0715   -0.0000 C   0  0  0  0  0  0  0  0  0  0  0  0
    6.5376    3.6240   -0.0000 C   0  0  0  0  0  0  0  0  0  0  0  0
   -6.7062    3.6240   -0.0000 C   0  0  0  0  0  0  0  0  0  0  0  0
   -2.7451    8.9456   -0.0000 C   0  0  0  0  0  0  0  0  0  0  0  0
    2.5524    8.9697   -0.0000 C   0  0  0  0  0  0  0  0  0  0  0  0
    9.1623    1.4087   -0.0000 C   0  0  0  0  0  0  0  0  0  0  0  0
   -7.7777    4.2501   -0.0000 O   0  0  0  0  0  0  0  0  0  0  0  0
   -2.7571   10.1857   -0.0000 C   0  0  0  0  0  0  0  0  0  0  0  0
    2.5404   10.5108   -0.0000 C   0  0  0  0  0  0  0  0  0  0  0  0
    9.5235    2.5886   -0.0000 O   0  0  0  0  0  0  0  0  0  0  0  0
   10.1737    0.2890   -0.0000 N   0  0  0  0  0  0  0  0  0  0  0  0
    3.8528   11.2934   -0.0000 C   0  0  0  0  0  0  0  0  0  0  0  0
    1.2040   11.2813   -0.0000 C   0  0  0  0  0  0  0  0  0  0  0  0
   11.6546    0.6261   -0.0000 C   0  0  0  0  0  0  0  0  0  0  0  0
    3.8407   12.8345   -0.0000 C   0  0  0  0  0  0  0  0  0  0  0  0
    1.1919   12.8224   -0.0000 C   0  0  0  0  0  0  0  0  0  0  0  0
   12.1121    2.0949   -0.0000 C   0  0  0  0  0  0  0  0  0  0  0  0
   12.6659   -0.4936   -0.0000 C   0  0  0  0  0  0  0  0  0  0  0  0
    2.5043   13.6050   -0.0000 C   0  0  0  0  0  0  0  0  0  0  0  0
   13.5930    2.4321   -0.0000 N   0  0  0  0  0  0  0  0  0  0  0  0
   14.1468   -0.1565   -0.0000 C   0  0  0  0  0  0  0  0  0  0  0  0
   14.6043    1.3123   -0.0000 C   0  0  0  0  0  0  0  0  0  0  0  0
   16.0852    1.6495   -0.0000 O   0  0  0  0  0  0  0  0  0  0  0  0
   16.5428    3.1183   -0.0000 C   0  0  0  0  0  0  0  0  0  0  0  0
   18.0237    3.4554   -0.0000 C   0  0  0  0  0  0  0  0  0  0  0  0
   18.4812    4.9243   -0.0000 C   0  0  0  0  0  0  0  0  0  0  0  0
   19.9621    5.2614   -0.0000 N   0  0  0  0  0  0  0  0  0  0  0  0
   20.4196    6.7303   -0.0000 C   0  0  0  0  0  0  0  0  0  0  0  0
   20.9734    4.1417   -0.0000 C   0  0  0  0  0  0  0  0  0  0  0  0
   21.9005    7.0674   -0.0000 C   0  0  0  0  0  0  0  0  0  0  0  0
   22.4543    4.4788   -0.0000 C   0  0  0  0  0  0  0  0  0  0  0  0
   22.9118    5.9477   -0.0000 C   0  0  0  0  0  0  0  0  0  0  0  0
  1  2  2  0  0  0  0
  2  3  1  0  0  0  0
  2  4  1  0  0  0  0
  3  5  1  0  0  0  0
  3  6  1  0  0  0  0
  4  7  1  0  0  0  0
  4  8  1  6  0  0  0
  5  9  1  0  0  0  0
  6 10  1  0  0  0  0
  7 11  1  0  0  0  0
  8 12  1  0  0  0  0
  9 13  1  1  0  0  0
 10 14  2  0  0  0  0
 10 15  1  0  0  0  0
 11 16  2  0  0  0  0
 11 17  1  0  0  0  0
 12 18  2  0  0  0  0
 12 19  1  0  0  0  0
 13 20  1  0  0  0  0
 13 21  1  0  0  0  0
 14 22  1  0  0  0  0
 14 23  1  0  0  0  0
 15 24  2  0  0  0  0
 18 25  1  0  0  0  0
 19 26  2  0  0  0  0
 20 27  1  0  0  0  0
 21 28  2  0  0  0  0
 21 29  1  0  0  0  0
 22 30  1  0  0  0  0
 22 31  1  0  0  0  0
 23 32  1  0  0  0  0
 23 33  2  0  0  0  0
 25 34  2  0  0  0  0
 27 35  1  0  0  0  0
 29 36  1  0  0  0  0
 32 37  1  0  0  0  0
 34 38  1  0  0  0  0
 35 39  2  0  0  0  0
 36 40  1  0  0  0  0
 37 41  2  0  0  0  0
 37 42  1  0  0  0  0
 40 43  2  0  0  0  0
 40 44  1  0  0  0  0
 42 45  1  0  0  0  0
 43 46  1  0  0  0  0
 44 47  2  0  0  0  0
 45 48  2  0  0  0  0
 45 49  1  0  0  0  0
 46 50  2  0  0  0  0
 48 51  1  0  0  0  0
 49 52  2  0  0  0  0
 51 53  2  0  0  0  0
 53 54  1  0  0  0  0
 54 55  1  0  0  0  0
 55 56  1  0  0  0  0
 56 57  1  0  0  0  0
 57 58  1  0  0  0  0
 58 59  1  0  0  0  0
 58 60  1  0  0  0  0
 59 61  1  0  0  0  0
 60 62  1  0  0  0  0
 61 63  1  0  0  0  0
  7  9  1  0  0  0  0
 17 20  1  0  0  0  0
 24 33  1  0  0  0  0
 26 34  1  0  0  0  0
 30 32  2  0  0  0  0
 47 50  1  0  0  0  0
 52 53  1  0  0  0  0
 62 63  1  0  0  0  0
M  END
>  <MolRegNo>
2036115

>  <m>
=

>  <Value>
7670

>  <Unit>
nM

>  <Type>
IC50

>  <pValue>
5.12

>  <Ligand Efficiency>
0.11

>  <Binding Efficiency>
5.99

>  <Surface Efficiency>
3.28

>  <Assay Index>
974120

>  <Assay Category>


>  <Assay Organism>
Homo sapiens

>  <Target ID>
17045

>  <Target Name>
Cytochrome P450 3A4

>  <Target Organism>
Homo sapiens

>  <Target Description>
Target is a single protein chain

>  <Sequence Accession>
P08684

>  <Reference>


>  <Pubmed ID>


>  <DOI>


$$$$
2036116
Actelion Java MolfileCreator 1.0

 62 69  0  0  0  0  0  0  0  0999 V2000
    0.0000   -0.0000   -0.0000 O   0  0  0  0  0  0  0  0  0  0  0  0
   -0.0121    1.2426   -0.0000 C   0  0  0  0  0  0  0  0  0  0  0  0
    1.3029    2.0146   -0.0000 N   0  0  0  0  0  0  0  0  0  0  0  0
   -1.3511    2.0146   -0.0000 C   0  0  0  0  0  0  0  0  0  0  0  0
    1.2908    3.5588   -0.0000 C   0  0  0  0  0  0  0  0  0  0  0  0
    2.6178    1.2667   -0.0000 C   0  0  0  0  0  0  0  0  0  0  0  0
   -1.3632    3.5588   -0.0000 N   0  0  0  0  0  0  0  0  0  0  0  0
   -2.6902    1.2546   -0.0000 C   0  0  0  0  0  0  0  0  0  0  0  0
   -0.0483    4.3308   -0.0000 C   0  0  0  0  0  0  0  0  0  0  0  0
    3.9327    2.0508   -0.0000 C   0  0  0  0  0  0  0  0  0  0  0  0
   -2.7023    4.3308   -0.0000 C   0  0  0  0  0  0  0  0  0  0  0  0
   -2.7023   -0.2654   -0.0000 C   0  0  0  0  0  0  0  0  0  0  0  0
   -0.0603    5.8750   -0.0000 N   0  0  0  0  0  0  0  0  0  0  0  0
    5.2477    1.3029   -0.0000 C   0  0  0  0  0  0  0  0  0  0  0  0
    3.9207    3.5950   -0.0000 C   0  0  0  0  0  0  0  0  0  0  0  0
   -3.7759    3.7277   -0.0000 O   0  0  0  0  0  0  0  0  0  0  0  0
   -2.7143    5.8750   -0.0000 C   0  0  0  0  0  0  0  0  0  0  0  0
   -4.0413   -1.0254   -0.0000 C   0  0  0  0  0  0  0  0  0  0  0  0
   -1.3873   -1.0133   -0.0000 C   0  0  0  0  0  0  0  0  0  0  0  0
   -1.3994    6.6471   -0.0000 N   0  0  0  0  0  0  0  0  0  0  0  0
    1.2546    6.6591   -0.0000 C   0  0  0  0  0  0  0  0  0  0  0  0
    5.5613   -0.1810   -0.0000 N   0  0  0  0  0  0  0  0  0  0  0  0
    6.5626    2.0870   -0.0000 C   0  0  0  0  0  0  0  0  0  0  0  0
    5.2356    4.3791   -0.0000 C   0  0  0  0  0  0  0  0  0  0  0  0
   -4.0534   -2.5454   -0.0000 C   0  0  0  0  0  0  0  0  0  0  0  0
   -1.3994   -2.5334   -0.0000 C   0  0  0  0  0  0  0  0  0  0  0  0
   -1.4114    8.1912   -0.0000 C   0  0  0  0  0  0  0  0  0  0  0  0
    2.3042    6.0559   -0.0000 O   0  0  0  0  0  0  0  0  0  0  0  0
    1.2426    8.2033   -0.0000 N   0  0  0  0  0  0  0  0  0  0  0  0
    7.0693   -0.3257   -0.0000 C   0  0  0  0  0  0  0  0  0  0  0  0
    4.7289   -1.0857   -0.0000 C   0  0  0  0  0  0  0  0  0  0  0  0
    7.6966    1.0737   -0.0000 C   0  0  0  0  0  0  0  0  0  0  0  0
    6.5506    3.6312   -0.0000 C   0  0  0  0  0  0  0  0  0  0  0  0
   -2.7384   -3.2934   -0.0000 C   0  0  0  0  0  0  0  0  0  0  0  0
   -2.7505    8.9633   -0.0000 C   0  0  0  0  0  0  0  0  0  0  0  0
    2.5575    8.9874   -0.0000 C   0  0  0  0  0  0  0  0  0  0  0  0
    9.1804    1.4114   -0.0000 C   0  0  0  0  0  0  0  0  0  0  0  0
   -2.7505   -4.5118   -0.0000 O   0  0  0  0  0  0  0  0  0  0  0  0
   -2.7626   10.2058   -0.0000 C   0  0  0  0  0  0  0  0  0  0  0  0
    2.5454   10.5316   -0.0000 C   0  0  0  0  0  0  0  0  0  0  0  0
    9.5423    2.5937   -0.0000 O   0  0  0  0  0  0  0  0  0  0  0  0
   10.1938    0.2895   -0.0000 N   0  0  0  0  0  0  0  0  0  0  0  0
    3.8604   11.3157   -0.0000 C   0  0  0  0  0  0  0  0  0  0  0  0
    1.2064   11.3036   -0.0000 C   0  0  0  0  0  0  0  0  0  0  0  0
   11.6776    0.6273   -0.0000 C   0  0  0  0  0  0  0  0  0  0  0  0
    3.8483   12.8598   -0.0000 C   0  0  0  0  0  0  0  0  0  0  0  0
    1.1943   12.8478   -0.0000 C   0  0  0  0  0  0  0  0  0  0  0  0
   12.1360    2.0991   -0.0000 C   0  0  0  0  0  0  0  0  0  0  0  0
   12.6910   -0.4946   -0.0000 C   0  0  0  0  0  0  0  0  0  0  0  0
    2.5092   13.6319   -0.0000 C   0  0  0  0  0  0  0  0  0  0  0  0
   13.6199    2.4369   -0.0000 N   0  0  0  0  0  0  0  0  0  0  0  0
   14.1748   -0.1568   -0.0000 C   0  0  0  0  0  0  0  0  0  0  0  0
   14.6332    1.3149   -0.0000 C   0  0  0  0  0  0  0  0  0  0  0  0
   16.1170    1.6527   -0.0000 N   0  0  0  0  0  0  0  0  0  0  0  0
   16.5754    3.1245   -0.0000 C   0  0  0  0  0  0  0  0  0  0  0  0
   18.0593    3.4623   -0.0000 C   0  0  0  0  0  0  0  0  0  0  0  0
   18.5177    4.9340   -0.0000 C   0  0  0  0  0  0  0  0  0  0  0  0
   20.0015    5.2718   -0.0000 N   0  0  0  0  0  0  0  0  0  0  0  0
   20.5806    6.6833   -0.0000 C   0  0  0  0  0  0  0  0  0  0  0  0
   21.1114    4.2585   -0.0000 C   0  0  0  0  0  0  0  0  0  0  0  0
   22.0885    6.5385   -0.0000 C   0  0  0  0  0  0  0  0  0  0  0  0
   22.4263    5.0426   -0.0000 C   0  0  0  0  0  0  0  0  0  0  0  0
  1  2  2  0  0  0  0
  2  3  1  0  0  0  0
  2  4  1  0  0  0  0
  3  5  1  0  0  0  0
  3  6  1  0  0  0  0
  4  7  1  0  0  0  0
  4  8  1  0  0  0  0
  5  9  1  0  0  0  0
  6 10  1  0  0  0  0
  7 11  1  0  0  0  0
  8 12  1  0  0  0  0
  9 13  1  0  0  0  0
 10 14  2  0  0  0  0
 10 15  1  0  0  0  0
 11 16  2  0  0  0  0
 11 17  1  0  0  0  0
 12 18  2  0  0  0  0
 12 19  1  0  0  0  0
 13 20  1  0  0  0  0
 13 21  1  0  0  0  0
 14 22  1  0  0  0  0
 14 23  1  0  0  0  0
 15 24  2  0  0  0  0
 18 25  1  0  0  0  0
 19 26  2  0  0  0  0
 20 27  1  0  0  0  0
 21 28  2  0  0  0  0
 21 29  1  0  0  0  0
 22 30  1  0  0  0  0
 22 31  1  0  0  0  0
 23 32  1  0  0  0  0
 23 33  2  0  0  0  0
 25 34  2  0  0  0  0
 27 35  1  0  0  0  0
 29 36  1  0  0  0  0
 32 37  1  0  0  0  0
 34 38  1  0  0  0  0
 35 39  2  0  0  0  0
 36 40  1  0  0  0  0
 37 41  2  0  0  0  0
 37 42  1  0  0  0  0
 40 43  2  0  0  0  0
 40 44  1  0  0  0  0
 42 45  1  0  0  0  0
 43 46  1  0  0  0  0
 44 47  2  0  0  0  0
 45 48  2  0  0  0  0
 45 49  1  0  0  0  0
 46 50  2  0  0  0  0
 48 51  1  0  0  0  0
 49 52  2  0  0  0  0
 51 53  2  0  0  0  0
 53 54  1  0  0  0  0
 54 55  1  0  0  0  0
 55 56  1  0  0  0  0
 56 57  1  0  0  0  0
 57 58  1  0  0  0  0
 58 59  1  0  0  0  0
 58 60  1  0  0  0  0
 59 61  1  0  0  0  0
 60 62  1  0  0  0  0
  7  9  1  0  0  0  0
 17 20  1  0  0  0  0
 24 33  1  0  0  0  0
 26 34  1  0  0  0  0
 30 32  2  0  0  0  0
 47 50  1  0  0  0  0
 52 53  1  0  0  0  0
 61 62  1  0  0  0  0
M  END
>  <MolRegNo>
2036116

>  <m>
=

>  <Value>
2570

>  <Unit>
nM

>  <Type>
IC50

>  <pValue>
5.59

>  <Ligand Efficiency>
0.12

>  <Binding Efficiency>
6.66

>  <Surface Efficiency>
3.52

>  <Assay Index>
974120

>  <Assay Category>


>  <Assay Organism>
Homo sapiens

>  <Target ID>
17045

>  <Target Name>
Cytochrome P450 3A4

>  <Target Organism>
Homo sapiens

>  <Target Description>
Target is a single protein chain

>  <Sequence Accession>
P08684

>  <Reference>


>  <Pubmed ID>


>  <DOI>


$$$$
2036117
Actelion Java MolfileCreator 1.0

 59 66  0  0  1  0  0  0  0  0999 V2000
    0.0000   -0.0000   -0.0000 O   0  0  0  0  0  0  0  0  0  0  0  0
   -0.0121    1.2415   -0.0000 C   0  0  0  0  0  0  0  0  0  0  0  0
    1.3018    2.0130   -0.0000 N   0  0  0  0  0  0  0  0  0  0  0  0
   -1.3500    2.0130   -0.0000 C   0  0  0  0  0  0  0  0  0  0  0  0
    1.2898    3.5559   -0.0000 C   0  0  0  0  0  0  0  0  0  0  0  0
    2.6157    1.2656   -0.0000 C   0  0  0  0  0  0  0  0  0  0  0  0
   -1.3621    3.5559   -0.0000 N   0  0  0  0  0  0  0  0  0  0  0  0
   -2.6880    1.2656   -0.0000 C   0  0  0  0  0  0  0  0  0  0  0  0
   -0.0482    4.3273   -0.0000 C   0  0  0  0  0  0  0  0  0  0  0  0
    3.9295    2.0491   -0.0000 C   0  0  0  0  0  0  0  0  0  0  0  0
   -2.7001    4.3273   -0.0000 C   0  0  0  0  0  0  0  0  0  0  0  0
   -4.0260    2.0491   -0.0000 C   0  0  0  0  0  0  0  0  0  0  0  0
   -0.0603    5.8702   -0.0000 N   0  0  0  0  0  0  0  0  0  0  0  0
    5.2434    1.3018   -0.0000 C   0  0  0  0  0  0  0  0  0  0  0  0
    3.9175    3.5920   -0.0000 C   0  0  0  0  0  0  0  0  0  0  0  0
   -3.7728    3.7246   -0.0000 O   0  0  0  0  0  0  0  0  0  0  0  0
   -2.7121    5.8702   -0.0000 C   0  0  0  0  0  0  0  0  0  0  0  0
   -5.3639    1.3018   -0.0000 C   0  0  0  0  0  0  0  0  0  0  0  0
   -4.0380    3.5920   -0.0000 C   0  0  0  0  0  0  0  0  0  0  0  0
   -1.3982    6.6416   -0.0000 N   0  0  0  0  0  0  0  0  0  0  0  0
    1.2536    6.6537   -0.0000 C   0  0  0  0  0  0  0  0  0  0  0  0
    5.5568   -0.1808   -0.0000 N   0  0  0  0  0  0  0  0  0  0  0  0
    6.5573    2.0853   -0.0000 C   0  0  0  0  0  0  0  0  0  0  0  0
    5.2313    4.3755   -0.0000 C   0  0  0  0  0  0  0  0  0  0  0  0
   -6.7019    2.0853   -0.0000 C   0  0  0  0  0  0  0  0  0  0  0  0
   -5.3760    4.3755   -0.0000 C   0  0  0  0  0  0  0  0  0  0  0  0
   -1.4103    8.1845   -0.0000 C   0  0  0  0  0  0  0  0  0  0  0  0
    2.3023    6.0510   -0.0000 O   0  0  0  0  0  0  0  0  0  0  0  0
    1.2415    8.1966   -0.0000 N   0  0  0  0  0  0  0  0  0  0  0  0
    7.0635   -0.3255   -0.0000 C   0  0  0  0  0  0  0  0  0  0  0  0
    4.7251   -1.0848   -0.0000 C   0  0  0  0  0  0  0  0  0  0  0  0
    7.6903    1.0728   -0.0000 C   0  0  0  0  0  0  0  0  0  0  0  0
    6.5452    3.6282   -0.0000 C   0  0  0  0  0  0  0  0  0  0  0  0
   -6.7140    3.6282   -0.0000 C   0  0  0  0  0  0  0  0  0  0  0  0
   -2.7483    8.9560   -0.0000 C   0  0  0  0  0  0  0  0  0  0  0  0
    2.5554    8.9801   -0.0000 C   0  0  0  0  0  0  0  0  0  0  0  0
    9.1729    1.4103   -0.0000 C   0  0  0  0  0  0  0  0  0  0  0  0
   -7.7868    4.2550   -0.0000 O   0  0  0  0  0  0  0  0  0  0  0  0
   -2.7603   10.1975   -0.0000 C   0  0  0  0  0  0  0  0  0  0  0  0
    2.5434   10.5230   -0.0000 C   0  0  0  0  0  0  0  0  0  0  0  0
    9.5346    2.5916   -0.0000 O   0  0  0  0  0  0  0  0  0  0  0  0
   10.1855    0.2893   -0.0000 N   0  0  0  0  0  0  0  0  0  0  0  0
    3.8572   11.3065   -0.0000 C   0  0  0  0  0  0  0  0  0  0  0  0
    1.2054   11.2944   -0.0000 C   0  0  0  0  0  0  0  0  0  0  0  0
   11.6681    0.6268   -0.0000 C   0  0  0  0  0  0  0  0  0  0  0  0
    3.8452   12.8493   -0.0000 C   0  0  0  0  0  0  0  0  0  0  0  0
    1.1933   12.8373   -0.0000 C   0  0  0  0  0  0  0  0  0  0  0  0
   12.1261    2.0974   -0.0000 C   0  0  0  0  0  0  0  0  0  0  0  0
   12.6806   -0.4942   -0.0000 C   0  0  0  0  0  0  0  0  0  0  0  0
    2.5072   13.6208   -0.0000 C   0  0  0  0  0  0  0  0  0  0  0  0
   13.6087    2.4349   -0.0000 N   0  0  0  0  0  0  0  0  0  0  0  0
   14.1632   -0.1567   -0.0000 C   0  0  0  0  0  0  0  0  0  0  0  0
   14.6213    1.3139   -0.0000 C   0  0  0  0  0  0  0  0  0  0  0  0
   16.1039    1.6514   -0.0000 N   0  0  0  0  0  0  0  0  0  0  0  0
   17.1164    0.5304   -0.0000 C   0  0  0  0  0  0  0  0  0  0  0  0
   16.5619    3.1219   -0.0000 C   0  0  0  0  0  0  0  0  0  0  0  0
   18.5990    0.8679   -0.0000 C   0  0  0  0  0  0  0  0  0  0  0  0
   18.0445    3.4594   -0.0000 C   0  0  0  0  0  0  0  0  0  0  0  0
   19.0571    2.3384   -0.0000 O   0  0  0  0  0  0  0  0  0  0  0  0
  1  2  2  0  0  0  0
  2  3  1  0  0  0  0
  2  4  1  0  0  0  0
  3  5  1  0  0  0  0
  3  6  1  0  0  0  0
  4  7  1  0  0  0  0
  4  8  1  6  0  0  0
  5  9  1  0  0  0  0
  6 10  1  0  0  0  0
  7 11  1  0  0  0  0
  8 12  1  0  0  0  0
  9 13  1  0  0  0  0
 10 14  2  0  0  0  0
 10 15  1  0  0  0  0
 11 16  2  0  0  0  0
 11 17  1  0  0  0  0
 12 18  2  0  0  0  0
 12 19  1  0  0  0  0
 13 20  1  0  0  0  0
 13 21  1  0  0  0  0
 14 22  1  0  0  0  0
 14 23  1  0  0  0  0
 15 24  2  0  0  0  0
 18 25  1  0  0  0  0
 19 26  2  0  0  0  0
 20 27  1  0  0  0  0
 21 28  2  0  0  0  0
 21 29  1  0  0  0  0
 22 30  1  0  0  0  0
 22 31  1  0  0  0  0
 23 32  1  0  0  0  0
 23 33  2  0  0  0  0
 25 34  2  0  0  0  0
 27 35  1  0  0  0  0
 29 36  1  0  0  0  0
 32 37  1  0  0  0  0
 34 38  1  0  0  0  0
 35 39  2  0  0  0  0
 36 40  1  0  0  0  0
 37 41  2  0  0  0  0
 37 42  1  0  0  0  0
 40 43  2  0  0  0  0
 40 44  1  0  0  0  0
 42 45  1  0  0  0  0
 43 46  1  0  0  0  0
 44 47  2  0  0  0  0
 45 48  2  0  0  0  0
 45 49  1  0  0  0  0
 46 50  2  0  0  0  0
 48 51  1  0  0  0  0
 49 52  2  0  0  0  0
 51 53  2  0  0  0  0
 53 54  1  0  0  0  0
 54 55  1  0  0  0  0
 54 56  1  0  0  0  0
 55 57  1  0  0  0  0
 56 58  1  0  0  0  0
 57 59  1  0  0  0  0
  7  9  1  0  0  0  0
 17 20  1  0  0  0  0
 24 33  1  0  0  0  0
 26 34  1  0  0  0  0
 30 32  2  0  0  0  0
 47 50  1  0  0  0  0
 52 53  1  0  0  0  0
 58 59  1  0  0  0  0
M  END
>  <MolRegNo>
2036117

>  <m>
=

>  <Value>
21060

>  <Unit>
nM

>  <Type>
IC50

>  <pValue>
4.68

>  <Ligand Efficiency>
0.11

>  <Binding Efficiency>
5.86

>  <Surface Efficiency>
3

>  <Assay Index>
974120

>  <Assay Category>


>  <Assay Organism>
Homo sapiens

>  <Target ID>
17045

>  <Target Name>
Cytochrome P450 3A4

>  <Target Organism>
Homo sapiens

>  <Target Description>
Target is a single protein chain

>  <Sequence Accession>
P08684

>  <Reference>


>  <Pubmed ID>


>  <DOI>


$$$$
2036118
Actelion Java MolfileCreator 1.0

 60 67  0  0  0  0  0  0  0  0999 V2000
    0.0000   -0.0000   -0.0000 O   0  0  0  0  0  0  0  0  0  0  0  0
   -0.0121    1.2471   -0.0000 C   0  0  0  0  0  0  0  0  0  0  0  0
    1.3077    2.0221   -0.0000 N   0  0  0  0  0  0  0  0  0  0  0  0
   -1.3561    2.0221   -0.0000 C   0  0  0  0  0  0  0  0  0  0  0  0
    1.2956    3.5719   -0.0000 C   0  0  0  0  0  0  0  0  0  0  0  0
    2.6275    1.2714   -0.0000 C   0  0  0  0  0  0  0  0  0  0  0  0
   -1.3682    3.5719   -0.0000 N   0  0  0  0  0  0  0  0  0  0  0  0
   -2.7001    1.2593   -0.0000 C   0  0  0  0  0  0  0  0  0  0  0  0
   -0.0484    4.3468   -0.0000 C   0  0  0  0  0  0  0  0  0  0  0  0
    3.9473    2.0584   -0.0000 C   0  0  0  0  0  0  0  0  0  0  0  0
   -2.7122    4.3468   -0.0000 C   0  0  0  0  0  0  0  0  0  0  0  0
   -2.7122   -0.2664   -0.0000 C   0  0  0  0  0  0  0  0  0  0  0  0
   -0.0605    5.8967   -0.0000 N   0  0  0  0  0  0  0  0  0  0  0  0
    5.2671    1.3077   -0.0000 C   0  0  0  0  0  0  0  0  0  0  0  0
    3.9352    3.6082   -0.0000 C   0  0  0  0  0  0  0  0  0  0  0  0
   -3.7899    3.7414   -0.0000 O   0  0  0  0  0  0  0  0  0  0  0  0
   -2.7243    5.8967   -0.0000 C   0  0  0  0  0  0  0  0  0  0  0  0
   -4.0563   -1.0292   -0.0000 C   0  0  0  0  0  0  0  0  0  0  0  0
   -1.3924   -1.0171   -0.0000 C   0  0  0  0  0  0  0  0  0  0  0  0
   -1.4046    6.6716   -0.0000 N   0  0  0  0  0  0  0  0  0  0  0  0
    1.2593    6.6837   -0.0000 C   0  0  0  0  0  0  0  0  0  0  0  0
    5.5819   -0.1816   -0.0000 N   0  0  0  0  0  0  0  0  0  0  0  0
    6.5869    2.0947   -0.0000 C   0  0  0  0  0  0  0  0  0  0  0  0
    5.2550    4.3953   -0.0000 C   0  0  0  0  0  0  0  0  0  0  0  0
   -4.0684   -2.5548   -0.0000 C   0  0  0  0  0  0  0  0  0  0  0  0
   -1.4046   -2.5427   -0.0000 C   0  0  0  0  0  0  0  0  0  0  0  0
   -1.4167    8.2215   -0.0000 C   0  0  0  0  0  0  0  0  0  0  0  0
    2.3127    6.0783   -0.0000 O   0  0  0  0  0  0  0  0  0  0  0  0
    1.2471    8.2336   -0.0000 N   0  0  0  0  0  0  0  0  0  0  0  0
    7.0954   -0.3269   -0.0000 C   0  0  0  0  0  0  0  0  0  0  0  0
    4.7464   -1.0897   -0.0000 C   0  0  0  0  0  0  0  0  0  0  0  0
    7.7250    1.0776   -0.0000 C   0  0  0  0  0  0  0  0  0  0  0  0
    6.5748    3.6446   -0.0000 C   0  0  0  0  0  0  0  0  0  0  0  0
   -2.7486   -3.3055   -0.0000 C   0  0  0  0  0  0  0  0  0  0  0  0
   -2.7607    8.9964   -0.0000 C   0  0  0  0  0  0  0  0  0  0  0  0
    2.5669    9.0206   -0.0000 C   0  0  0  0  0  0  0  0  0  0  0  0
    9.2144    1.4167   -0.0000 C   0  0  0  0  0  0  0  0  0  0  0  0
   -2.7607   -4.5285   -0.0000 O   0  0  0  0  0  0  0  0  0  0  0  0
   -2.7728   10.2435   -0.0000 C   0  0  0  0  0  0  0  0  0  0  0  0
    2.5548   10.5705   -0.0000 C   0  0  0  0  0  0  0  0  0  0  0  0
    9.5776    2.6033   -0.0000 O   0  0  0  0  0  0  0  0  0  0  0  0
   10.2314    0.2906   -0.0000 N   0  0  0  0  0  0  0  0  0  0  0  0
    3.8746   11.3575   -0.0000 C   0  0  0  0  0  0  0  0  0  0  0  0
    1.2108   11.3454   -0.0000 C   0  0  0  0  0  0  0  0  0  0  0  0
   11.7208    0.6296   -0.0000 C   0  0  0  0  0  0  0  0  0  0  0  0
    3.8625   12.9074   -0.0000 C   0  0  0  0  0  0  0  0  0  0  0  0
    1.1987   12.8952   -0.0000 C   0  0  0  0  0  0  0  0  0  0  0  0
   12.1809    2.1068   -0.0000 C   0  0  0  0  0  0  0  0  0  0  0  0
   12.7378   -0.4964   -0.0000 C   0  0  0  0  0  0  0  0  0  0  0  0
    2.5185   13.6823   -0.0000 C   0  0  0  0  0  0  0  0  0  0  0  0
   13.6702    2.4459   -0.0000 N   0  0  0  0  0  0  0  0  0  0  0  0
   14.2272   -0.1574   -0.0000 C   0  0  0  0  0  0  0  0  0  0  0  0
   14.6873    1.3198   -0.0000 C   0  0  0  0  0  0  0  0  0  0  0  0
   16.1766    1.6588   -0.0000 N   0  0  0  0  0  0  0  0  0  0  0  0
   17.1937    0.5328   -0.0000 C   0  0  0  0  0  0  0  0  0  0  0  0
   16.6367    3.1360   -0.0000 C   0  0  0  0  0  0  0  0  0  0  0  0
   18.6830    0.8718   -0.0000 C   0  0  0  0  0  0  0  0  0  0  0  0
   18.1260    3.4751   -0.0000 C   0  0  0  0  0  0  0  0  0  0  0  0
   19.1431    2.3490   -0.0000 C   0  0  0  0  0  0  0  0  0  0  0  0
   20.3297    2.6275   -0.0000 O   0  0  0  0  0  0  0  0  0  0  0  0
  1  2  2  0  0  0  0
  2  3  1  0  0  0  0
  2  4  1  0  0  0  0
  3  5  1  0  0  0  0
  3  6  1  0  0  0  0
  4  7  1  0  0  0  0
  4  8  1  0  0  0  0
  5  9  1  0  0  0  0
  6 10  1  0  0  0  0
  7 11  1  0  0  0  0
  8 12  1  0  0  0  0
  9 13  1  0  0  0  0
 10 14  2  0  0  0  0
 10 15  1  0  0  0  0
 11 16  2  0  0  0  0
 11 17  1  0  0  0  0
 12 18  2  0  0  0  0
 12 19  1  0  0  0  0
 13 20  1  0  0  0  0
 13 21  1  0  0  0  0
 14 22  1  0  0  0  0
 14 23  1  0  0  0  0
 15 24  2  0  0  0  0
 18 25  1  0  0  0  0
 19 26  2  0  0  0  0
 20 27  1  0  0  0  0
 21 28  2  0  0  0  0
 21 29  1  0  0  0  0
 22 30  1  0  0  0  0
 22 31  1  0  0  0  0
 23 32  1  0  0  0  0
 23 33  2  0  0  0  0
 25 34  2  0  0  0  0
 27 35  1  0  0  0  0
 29 36  1  0  0  0  0
 32 37  1  0  0  0  0
 34 38  1  0  0  0  0
 35 39  2  0  0  0  0
 36 40  1  0  0  0  0
 37 41  2  0  0  0  0
 37 42  1  0  0  0  0
 40 43  2  0  0  0  0
 40 44  1  0  0  0  0
 42 45  1  0  0  0  0
 43 46  1  0  0  0  0
 44 47  2  0  0  0  0
 45 48  2  0  0  0  0
 45 49  1  0  0  0  0
 46 50  2  0  0  0  0
 48 51  1  0  0  0  0
 49 52  2  0  0  0  0
 51 53  2  0  0  0  0
 53 54  1  0  0  0  0
 54 55  1  0  0  0  0
 54 56  1  0  0  0  0
 55 57  1  0  0  0  0
 56 58  1  0  0  0  0
 57 59  1  0  0  0  0
 59 60  1  0  0  0  0
  7  9  1  0  0  0  0
 17 20  1  0  0  0  0
 24 33  1  0  0  0  0
 26 34  1  0  0  0  0
 30 32  2  0  0  0  0
 47 50  1  0  0  0  0
 52 53  1  0  0  0  0
 58 59  1  0  0  0  0
M  END
>  <MolRegNo>
2036118

>  <m>
=

>  <Value>
6950

>  <Unit>
nM

>  <Type>
IC50

>  <pValue>
5.16

>  <Ligand Efficiency>
0.12

>  <Binding Efficiency>
6.35

>  <Surface Efficiency>
3.09

>  <Assay Index>
974120

>  <Assay Category>


>  <Assay Organism>
Homo sapiens

>  <Target ID>
17045

>  <Target Name>
Cytochrome P450 3A4

>  <Target Organism>
Homo sapiens

>  <Target Description>
Target is a single protein chain

>  <Sequence Accession>
P08684

>  <Reference>


>  <Pubmed ID>


>  <DOI>


$$$$
2036119
Actelion Java MolfileCreator 1.0

 61 68  0  0  1  0  0  0  0  0999 V2000
    0.0000   -0.0000   -0.0000 O   0  0  0  0  0  0  0  0  0  0  0  0
   -0.0121    1.2445   -0.0000 C   0  0  0  0  0  0  0  0  0  0  0  0
    1.3049    2.0178   -0.0000 N   0  0  0  0  0  0  0  0  0  0  0  0
   -1.3533    2.0178   -0.0000 C   0  0  0  0  0  0  0  0  0  0  0  0
    1.2928    3.5644   -0.0000 C   0  0  0  0  0  0  0  0  0  0  0  0
    2.6219    1.2687   -0.0000 C   0  0  0  0  0  0  0  0  0  0  0  0
   -1.3653    3.5644   -0.0000 N   0  0  0  0  0  0  0  0  0  0  0  0
   -2.6944    1.2687   -0.0000 C   0  0  0  0  0  0  0  0  0  0  0  0
   -0.0483    4.3377   -0.0000 C   0  0  0  0  0  0  0  0  0  0  0  0
    3.9390    2.0541   -0.0000 C   0  0  0  0  0  0  0  0  0  0  0  0
   -2.7065    4.3377   -0.0000 C   0  0  0  0  0  0  0  0  0  0  0  0
   -4.0356    2.0541   -0.0000 C   0  0  0  0  0  0  0  0  0  0  0  0
   -0.0604    5.8843   -0.0000 N   0  0  0  0  0  0  0  0  0  0  0  0
    5.2560    1.3049   -0.0000 C   0  0  0  0  0  0  0  0  0  0  0  0
    3.9269    3.6006   -0.0000 C   0  0  0  0  0  0  0  0  0  0  0  0
   -3.7819    3.7336   -0.0000 O   0  0  0  0  0  0  0  0  0  0  0  0
   -2.7186    5.8843   -0.0000 C   0  0  0  0  0  0  0  0  0  0  0  0
   -5.3768    1.3049   -0.0000 C   0  0  0  0  0  0  0  0  0  0  0  0
   -4.0477    3.6006   -0.0000 C   0  0  0  0  0  0  0  0  0  0  0  0
   -1.4016    6.6576   -0.0000 N   0  0  0  0  0  0  0  0  0  0  0  0
    1.2566    6.6697   -0.0000 C   0  0  0  0  0  0  0  0  0  0  0  0
    5.5701   -0.1812   -0.0000 N   0  0  0  0  0  0  0  0  0  0  0  0
    6.5730    2.0903   -0.0000 C   0  0  0  0  0  0  0  0  0  0  0  0
    5.2439    4.3860   -0.0000 C   0  0  0  0  0  0  0  0  0  0  0  0
   -6.7180    2.0903   -0.0000 C   0  0  0  0  0  0  0  0  0  0  0  0
   -5.3889    4.3860   -0.0000 C   0  0  0  0  0  0  0  0  0  0  0  0
   -1.4137    8.2042   -0.0000 C   0  0  0  0  0  0  0  0  0  0  0  0
    2.3078    6.0655   -0.0000 O   0  0  0  0  0  0  0  0  0  0  0  0
    1.2445    8.2162   -0.0000 N   0  0  0  0  0  0  0  0  0  0  0  0
    7.0805   -0.3262   -0.0000 C   0  0  0  0  0  0  0  0  0  0  0  0
    4.7364   -1.0874   -0.0000 C   0  0  0  0  0  0  0  0  0  0  0  0
    7.7088    1.0754   -0.0000 C   0  0  0  0  0  0  0  0  0  0  0  0
    6.5609    3.6369   -0.0000 C   0  0  0  0  0  0  0  0  0  0  0  0
   -6.7301    3.6369   -0.0000 C   0  0  0  0  0  0  0  0  0  0  0  0
   -2.7549    8.9775   -0.0000 C   0  0  0  0  0  0  0  0  0  0  0  0
    2.5615    9.0016   -0.0000 C   0  0  0  0  0  0  0  0  0  0  0  0
    9.1949    1.4137   -0.0000 C   0  0  0  0  0  0  0  0  0  0  0  0
   -7.8054    4.2652   -0.0000 O   0  0  0  0  0  0  0  0  0  0  0  0
   -2.7669   10.2220   -0.0000 C   0  0  0  0  0  0  0  0  0  0  0  0
    2.5495   10.5482   -0.0000 C   0  0  0  0  0  0  0  0  0  0  0  0
    9.5574    2.5978   -0.0000 O   0  0  0  0  0  0  0  0  0  0  0  0
   10.2099    0.2900   -0.0000 N   0  0  0  0  0  0  0  0  0  0  0  0
    3.8665   11.3336   -0.0000 C   0  0  0  0  0  0  0  0  0  0  0  0
    1.2083   11.3215   -0.0000 C   0  0  0  0  0  0  0  0  0  0  0  0
   11.6961    0.6283   -0.0000 C   0  0  0  0  0  0  0  0  0  0  0  0
    3.8544   12.8802   -0.0000 C   0  0  0  0  0  0  0  0  0  0  0  0
    1.1962   12.8681   -0.0000 C   0  0  0  0  0  0  0  0  0  0  0  0
   12.1552    2.1024   -0.0000 C   0  0  0  0  0  0  0  0  0  0  0  0
   12.7110   -0.4954   -0.0000 C   0  0  0  0  0  0  0  0  0  0  0  0
    2.5132   13.6535   -0.0000 C   0  0  0  0  0  0  0  0  0  0  0  0
   13.6414    2.4407   -0.0000 N   0  0  0  0  0  0  0  0  0  0  0  0
   14.1972   -0.1571   -0.0000 C   0  0  0  0  0  0  0  0  0  0  0  0
   14.6563    1.3170   -0.0000 C   0  0  0  0  0  0  0  0  0  0  0  0
   16.1425    1.6553   -0.0000 N   0  0  0  0  0  0  0  0  0  0  0  0
   17.1574    0.5316   -0.0000 C   0  0  0  0  0  0  0  0  0  0  0  0
   16.6016    3.1294   -0.0000 C   0  0  0  0  0  0  0  0  0  0  0  0
   18.6436    0.8700   -0.0000 C   0  0  0  0  0  0  0  0  0  0  0  0
   18.0878    3.4677   -0.0000 C   0  0  0  0  0  0  0  0  0  0  0  0
   19.1028    2.3440   -0.0000 C   0  0  0  0  0  0  0  0  0  0  0  0
   20.5889    2.6824   -0.0000 O   0  0  0  0  0  0  0  0  0  0  0  0
   20.9514    3.8665   -0.0000 C   0  0  0  0  0  0  0  0  0  0  0  0
  1  2  2  0  0  0  0
  2  3  1  0  0  0  0
  2  4  1  0  0  0  0
  3  5  1  0  0  0  0
  3  6  1  0  0  0  0
  4  7  1  0  0  0  0
  4  8  1  6  0  0  0
  5  9  1  0  0  0  0
  6 10  1  0  0  0  0
  7 11  1  0  0  0  0
  8 12  1  0  0  0  0
  9 13  1  1  0  0  0
 10 14  2  0  0  0  0
 10 15  1  0  0  0  0
 11 16  2  0  0  0  0
 11 17  1  0  0  0  0
 12 18  2  0  0  0  0
 12 19  1  0  0  0  0
 13 20  1  0  0  0  0
 13 21  1  0  0  0  0
 14 22  1  0  0  0  0
 14 23  1  0  0  0  0
 15 24  2  0  0  0  0
 18 25  1  0  0  0  0
 19 26  2  0  0  0  0
 20 27  1  0  0  0  0
 21 28  2  0  0  0  0
 21 29  1  0  0  0  0
 22 30  1  0  0  0  0
 22 31  1  0  0  0  0
 23 32  1  0  0  0  0
 23 33  2  0  0  0  0
 25 34  2  0  0  0  0
 27 35  1  0  0  0  0
 29 36  1  0  0  0  0
 32 37  1  0  0  0  0
 34 38  1  0  0  0  0
 35 39  2  0  0  0  0
 36 40  1  0  0  0  0
 37 41  2  0  0  0  0
 37 42  1  0  0  0  0
 40 43  2  0  0  0  0
 40 44  1  0  0  0  0
 42 45  1  0  0  0  0
 43 46  1  0  0  0  0
 44 47  2  0  0  0  0
 45 48  2  0  0  0  0
 45 49  1  0  0  0  0
 46 50  2  0  0  0  0
 48 51  1  0  0  0  0
 49 52  2  0  0  0  0
 51 53  2  0  0  0  0
 53 54  1  0  0  0  0
 54 55  1  0  0  0  0
 54 56  1  0  0  0  0
 55 57  1  0  0  0  0
 56 58  1  0  0  0  0
 57 59  1  0  0  0  0
 59 60  1  0  0  0  0
 60 61  1  0  0  0  0
  7  9  1  0  0  0  0
 17 20  1  0  0  0  0
 24 33  1  0  0  0  0
 26 34  1  0  0  0  0
 30 32  2  0  0  0  0
 47 50  1  0  0  0  0
 52 53  1  0  0  0  0
 58 59  1  0  0  0  0
M  END
>  <MolRegNo>
2036119

>  <m>
=

>  <Value>
2210

>  <Unit>
nM

>  <Type>
IC50

>  <pValue>
5.66

>  <Ligand Efficiency>
0.13

>  <Binding Efficiency>
6.85

>  <Surface Efficiency>
3.63

>  <Assay Index>
974120

>  <Assay Category>


>  <Assay Organism>
Homo sapiens

>  <Target ID>
17045

>  <Target Name>
Cytochrome P450 3A4

>  <Target Organism>
Homo sapiens

>  <Target Description>
Target is a single protein chain

>  <Sequence Accession>
P08684

>  <Reference>


>  <Pubmed ID>


>  <DOI>


$$$$
2036120
Actelion Java MolfileCreator 1.0

 59 66  0  0  1  0  0  0  0  0999 V2000
    0.0000   -0.0000   -0.0000 O   0  0  0  0  0  0  0  0  0  0  0  0
   -0.0121    1.2415   -0.0000 C   0  0  0  0  0  0  0  0  0  0  0  0
    1.3018    2.0130   -0.0000 N   0  0  0  0  0  0  0  0  0  0  0  0
   -1.3500    2.0130   -0.0000 C   0  0  0  0  0  0  0  0  0  0  0  0
    1.2898    3.5559   -0.0000 C   0  0  0  0  0  0  0  0  0  0  0  0
    2.6157    1.2656   -0.0000 C   0  0  0  0  0  0  0  0  0  0  0  0
   -1.3621    3.5559   -0.0000 N   0  0  0  0  0  0  0  0  0  0  0  0
   -2.6880    1.2656   -0.0000 C   0  0  0  0  0  0  0  0  0  0  0  0
   -0.0482    4.3273   -0.0000 C   0  0  0  0  0  0  0  0  0  0  0  0
    3.9295    2.0491   -0.0000 C   0  0  0  0  0  0  0  0  0  0  0  0
   -2.7001    4.3273   -0.0000 C   0  0  0  0  0  0  0  0  0  0  0  0
   -4.0260    2.0491   -0.0000 C   0  0  0  0  0  0  0  0  0  0  0  0
   -0.0603    5.8702   -0.0000 N   0  0  0  0  0  0  0  0  0  0  0  0
    5.2434    1.3018   -0.0000 C   0  0  0  0  0  0  0  0  0  0  0  0
    3.9175    3.5920   -0.0000 C   0  0  0  0  0  0  0  0  0  0  0  0
   -3.7728    3.7246   -0.0000 O   0  0  0  0  0  0  0  0  0  0  0  0
   -2.7121    5.8702   -0.0000 C   0  0  0  0  0  0  0  0  0  0  0  0
   -5.3639    1.3018   -0.0000 C   0  0  0  0  0  0  0  0  0  0  0  0
   -4.0380    3.5920   -0.0000 C   0  0  0  0  0  0  0  0  0  0  0  0
   -1.3982    6.6416   -0.0000 N   0  0  0  0  0  0  0  0  0  0  0  0
    1.2536    6.6537   -0.0000 C   0  0  0  0  0  0  0  0  0  0  0  0
    5.5568   -0.1808   -0.0000 N   0  0  0  0  0  0  0  0  0  0  0  0
    6.5573    2.0853   -0.0000 C   0  0  0  0  0  0  0  0  0  0  0  0
    5.2313    4.3755   -0.0000 C   0  0  0  0  0  0  0  0  0  0  0  0
   -6.7019    2.0853   -0.0000 C   0  0  0  0  0  0  0  0  0  0  0  0
   -5.3760    4.3755   -0.0000 C   0  0  0  0  0  0  0  0  0  0  0  0
   -1.4103    8.1845   -0.0000 C   0  0  0  0  0  0  0  0  0  0  0  0
    2.3023    6.0510   -0.0000 O   0  0  0  0  0  0  0  0  0  0  0  0
    1.2415    8.1966   -0.0000 N   0  0  0  0  0  0  0  0  0  0  0  0
    7.0635   -0.3255   -0.0000 C   0  0  0  0  0  0  0  0  0  0  0  0
    4.7251   -1.0848   -0.0000 C   0  0  0  0  0  0  0  0  0  0  0  0
    7.6903    1.0728   -0.0000 C   0  0  0  0  0  0  0  0  0  0  0  0
    6.5452    3.6282   -0.0000 C   0  0  0  0  0  0  0  0  0  0  0  0
   -6.7140    3.6282   -0.0000 C   0  0  0  0  0  0  0  0  0  0  0  0
   -2.7483    8.9560   -0.0000 C   0  0  0  0  0  0  0  0  0  0  0  0
    2.5554    8.9801   -0.0000 C   0  0  0  0  0  0  0  0  0  0  0  0
    9.1729    1.4103   -0.0000 C   0  0  0  0  0  0  0  0  0  0  0  0
   -7.7868    4.2550   -0.0000 O   0  0  0  0  0  0  0  0  0  0  0  0
   -2.7603   10.1975   -0.0000 C   0  0  0  0  0  0  0  0  0  0  0  0
    2.5434   10.5230   -0.0000 C   0  0  0  0  0  0  0  0  0  0  0  0
    9.5346    2.5916   -0.0000 O   0  0  0  0  0  0  0  0  0  0  0  0
   10.1855    0.2893   -0.0000 N   0  0  0  0  0  0  0  0  0  0  0  0
    3.8572   11.3065   -0.0000 C   0  0  0  0  0  0  0  0  0  0  0  0
    1.2054   11.2944   -0.0000 C   0  0  0  0  0  0  0  0  0  0  0  0
   11.6681    0.6268   -0.0000 C   0  0  0  0  0  0  0  0  0  0  0  0
    3.8452   12.8493   -0.0000 C   0  0  0  0  0  0  0  0  0  0  0  0
    1.1933   12.8373   -0.0000 C   0  0  0  0  0  0  0  0  0  0  0  0
   12.1261    2.0974   -0.0000 C   0  0  0  0  0  0  0  0  0  0  0  0
   12.6806   -0.4942   -0.0000 C   0  0  0  0  0  0  0  0  0  0  0  0
    2.5072   13.6208   -0.0000 C   0  0  0  0  0  0  0  0  0  0  0  0
   13.6087    2.4349   -0.0000 N   0  0  0  0  0  0  0  0  0  0  0  0
   14.1632   -0.1567   -0.0000 C   0  0  0  0  0  0  0  0  0  0  0  0
   14.6213    1.3139   -0.0000 C   0  0  0  0  0  0  0  0  0  0  0  0
   16.1039    1.6514   -0.0000 N   0  0  0  0  0  0  0  0  0  0  0  0
   17.1164    0.5304   -0.0000 C   0  0  0  0  0  0  0  0  0  0  0  0
   16.5619    3.1219   -0.0000 C   0  0  0  0  0  0  0  0  0  0  0  0
   18.5990    0.8679   -0.0000 C   0  0  0  0  0  0  0  0  0  0  0  0
   18.0445    3.4594   -0.0000 C   0  0  0  0  0  0  0  0  0  0  0  0
   19.0571    2.3384   -0.0000 N   0  0  0  0  0  0  0  0  0  0  0  0
  1  2  2  0  0  0  0
  2  3  1  0  0  0  0
  2  4  1  0  0  0  0
  3  5  1  0  0  0  0
  3  6  1  0  0  0  0
  4  7  1  0  0  0  0
  4  8  1  6  0  0  0
  5  9  1  0  0  0  0
  6 10  1  0  0  0  0
  7 11  1  0  0  0  0
  8 12  1  0  0  0  0
  9 13  1  0  0  0  0
 10 14  2  0  0  0  0
 10 15  1  0  0  0  0
 11 16  2  0  0  0  0
 11 17  1  0  0  0  0
 12 18  2  0  0  0  0
 12 19  1  0  0  0  0
 13 20  1  0  0  0  0
 13 21  1  0  0  0  0
 14 22  1  0  0  0  0
 14 23  1  0  0  0  0
 15 24  2  0  0  0  0
 18 25  1  0  0  0  0
 19 26  2  0  0  0  0
 20 27  1  0  0  0  0
 21 28  2  0  0  0  0
 21 29  1  0  0  0  0
 22 30  1  0  0  0  0
 22 31  1  0  0  0  0
 23 32  1  0  0  0  0
 23 33  2  0  0  0  0
 25 34  2  0  0  0  0
 27 35  1  0  0  0  0
 29 36  1  0  0  0  0
 32 37  1  0  0  0  0
 34 38  1  0  0  0  0
 35 39  2  0  0  0  0
 36 40  1  0  0  0  0
 37 41  2  0  0  0  0
 37 42  1  0  0  0  0
 40 43  2  0  0  0  0
 40 44  1  0  0  0  0
 42 45  1  0  0  0  0
 43 46  1  0  0  0  0
 44 47  2  0  0  0  0
 45 48  2  0  0  0  0
 45 49  1  0  0  0  0
 46 50  2  0  0  0  0
 48 51  1  0  0  0  0
 49 52  2  0  0  0  0
 51 53  2  0  0  0  0
 53 54  1  0  0  0  0
 54 55  1  0  0  0  0
 54 56  1  0  0  0  0
 55 57  1  0  0  0  0
 56 58  1  0  0  0  0
 57 59  1  0  0  0  0
  7  9  1  0  0  0  0
 17 20  1  0  0  0  0
 24 33  1  0  0  0  0
 26 34  1  0  0  0  0
 30 32  2  0  0  0  0
 47 50  1  0  0  0  0
 52 53  1  0  0  0  0
 58 59  1  0  0  0  0
M  END
>  <MolRegNo>
2036120

>  <m>
=

>  <Value>
2730

>  <Unit>
nM

>  <Type>
IC50

>  <pValue>
5.56

>  <Ligand Efficiency>
0.13

>  <Binding Efficiency>
6.98

>  <Surface Efficiency>
3.51

>  <Assay Index>
974120

>  <Assay Category>


>  <Assay Organism>
Homo sapiens

>  <Target ID>
17045

>  <Target Name>
Cytochrome P450 3A4

>  <Target Organism>
Homo sapiens

>  <Target Description>
Target is a single protein chain

>  <Sequence Accession>
P08684

>  <Reference>


>  <Pubmed ID>


>  <DOI>


$$$$
2036121
Actelion Java MolfileCreator 1.0

 60 67  0  0  1  0  0  0  0  0999 V2000
    0.0000   -0.0000   -0.0000 O   0  0  0  0  0  0  0  0  0  0  0  0
   -0.0121    1.2451   -0.0000 C   0  0  0  0  0  0  0  0  0  0  0  0
    1.3055    2.0187   -0.0000 N   0  0  0  0  0  0  0  0  0  0  0  0
   -1.3539    2.0187   -0.0000 C   0  0  0  0  0  0  0  0  0  0  0  0
    1.2934    3.5660   -0.0000 C   0  0  0  0  0  0  0  0  0  0  0  0
    2.6232    1.2693   -0.0000 C   0  0  0  0  0  0  0  0  0  0  0  0
   -1.3660    3.5660   -0.0000 N   0  0  0  0  0  0  0  0  0  0  0  0
   -2.6957    1.2693   -0.0000 C   0  0  0  0  0  0  0  0  0  0  0  0
   -0.0484    4.3397   -0.0000 C   0  0  0  0  0  0  0  0  0  0  0  0
    3.9408    2.0550   -0.0000 C   0  0  0  0  0  0  0  0  0  0  0  0
   -2.7078    4.3397   -0.0000 C   0  0  0  0  0  0  0  0  0  0  0  0
   -4.0375    2.0550   -0.0000 C   0  0  0  0  0  0  0  0  0  0  0  0
   -0.0604    5.8870   -0.0000 N   0  0  0  0  0  0  0  0  0  0  0  0
    5.2584    1.3055   -0.0000 C   0  0  0  0  0  0  0  0  0  0  0  0
    3.9287    3.6023   -0.0000 C   0  0  0  0  0  0  0  0  0  0  0  0
   -3.7836    3.7353   -0.0000 O   0  0  0  0  0  0  0  0  0  0  0  0
   -2.7199    5.8870   -0.0000 C   0  0  0  0  0  0  0  0  0  0  0  0
   -5.3793    1.3055   -0.0000 C   0  0  0  0  0  0  0  0  0  0  0  0
   -4.0496    3.6023   -0.0000 C   0  0  0  0  0  0  0  0  0  0  0  0
   -1.4022    6.6606   -0.0000 N   0  0  0  0  0  0  0  0  0  0  0  0
    1.2572    6.6727   -0.0000 C   0  0  0  0  0  0  0  0  0  0  0  0
    5.5727   -0.1813   -0.0000 N   0  0  0  0  0  0  0  0  0  0  0  0
    6.5760    2.0913   -0.0000 C   0  0  0  0  0  0  0  0  0  0  0  0
    5.2463    4.3880   -0.0000 C   0  0  0  0  0  0  0  0  0  0  0  0
   -6.7211    2.0913   -0.0000 C   0  0  0  0  0  0  0  0  0  0  0  0
   -5.3914    4.3880   -0.0000 C   0  0  0  0  0  0  0  0  0  0  0  0
   -1.4143    8.2079   -0.0000 C   0  0  0  0  0  0  0  0  0  0  0  0
    2.3089    6.0683   -0.0000 O   0  0  0  0  0  0  0  0  0  0  0  0
    1.2451    8.2200   -0.0000 N   0  0  0  0  0  0  0  0  0  0  0  0
    7.0837   -0.3264   -0.0000 C   0  0  0  0  0  0  0  0  0  0  0  0
    4.7386   -1.0879   -0.0000 C   0  0  0  0  0  0  0  0  0  0  0  0
    7.7123    1.0759   -0.0000 C   0  0  0  0  0  0  0  0  0  0  0  0
    6.5639    3.6386   -0.0000 C   0  0  0  0  0  0  0  0  0  0  0  0
   -6.7332    3.6386   -0.0000 C   0  0  0  0  0  0  0  0  0  0  0  0
   -2.7561    8.9816   -0.0000 C   0  0  0  0  0  0  0  0  0  0  0  0
    2.5627    9.0058   -0.0000 C   0  0  0  0  0  0  0  0  0  0  0  0
    9.1992    1.4143   -0.0000 C   0  0  0  0  0  0  0  0  0  0  0  0
   -7.8090    4.2672   -0.0000 O   0  0  0  0  0  0  0  0  0  0  0  0
   -2.7682   10.2267   -0.0000 C   0  0  0  0  0  0  0  0  0  0  0  0
    2.5506   10.5531   -0.0000 C   0  0  0  0  0  0  0  0  0  0  0  0
    9.5618    2.5990   -0.0000 O   0  0  0  0  0  0  0  0  0  0  0  0
   10.2146    0.2901   -0.0000 N   0  0  0  0  0  0  0  0  0  0  0  0
    3.8682   11.3388   -0.0000 C   0  0  0  0  0  0  0  0  0  0  0  0
    1.2088   11.3267   -0.0000 C   0  0  0  0  0  0  0  0  0  0  0  0
   11.7014    0.6286   -0.0000 C   0  0  0  0  0  0  0  0  0  0  0  0
    3.8562   12.8861   -0.0000 C   0  0  0  0  0  0  0  0  0  0  0  0
    1.1967   12.8740   -0.0000 C   0  0  0  0  0  0  0  0  0  0  0  0
   12.1608    2.1034   -0.0000 C   0  0  0  0  0  0  0  0  0  0  0  0
   12.7169   -0.4956   -0.0000 C   0  0  0  0  0  0  0  0  0  0  0  0
    2.5144   13.6597   -0.0000 C   0  0  0  0  0  0  0  0  0  0  0  0
   13.6477    2.4418   -0.0000 N   0  0  0  0  0  0  0  0  0  0  0  0
   14.2037   -0.1571   -0.0000 C   0  0  0  0  0  0  0  0  0  0  0  0
   14.6631    1.3176   -0.0000 C   0  0  0  0  0  0  0  0  0  0  0  0
   16.1499    1.6561   -0.0000 N   0  0  0  0  0  0  0  0  0  0  0  0
   17.1653    0.5319   -0.0000 C   0  0  0  0  0  0  0  0  0  0  0  0
   16.6093    3.1309   -0.0000 C   0  0  0  0  0  0  0  0  0  0  0  0
   18.6522    0.8704   -0.0000 C   0  0  0  0  0  0  0  0  0  0  0  0
   18.0961    3.4693   -0.0000 C   0  0  0  0  0  0  0  0  0  0  0  0
   19.1116    2.3451   -0.0000 N   0  0  0  0  0  0  0  0  0  0  0  0
   20.2962    2.6232   -0.0000 C   0  0  0  0  0  0  0  0  0  0  0  0
  1  2  2  0  0  0  0
  2  3  1  0  0  0  0
  2  4  1  0  0  0  0
  3  5  1  0  0  0  0
  3  6  1  0  0  0  0
  4  7  1  0  0  0  0
  4  8  1  6  0  0  0
  5  9  1  0  0  0  0
  6 10  1  0  0  0  0
  7 11  1  0  0  0  0
  8 12  1  0  0  0  0
  9 13  1  0  0  0  0
 10 14  2  0  0  0  0
 10 15  1  0  0  0  0
 11 16  2  0  0  0  0
 11 17  1  0  0  0  0
 12 18  2  0  0  0  0
 12 19  1  0  0  0  0
 13 20  1  0  0  0  0
 13 21  1  0  0  0  0
 14 22  1  0  0  0  0
 14 23  1  0  0  0  0
 15 24  2  0  0  0  0
 18 25  1  0  0  0  0
 19 26  2  0  0  0  0
 20 27  1  0  0  0  0
 21 28  2  0  0  0  0
 21 29  1  0  0  0  0
 22 30  1  0  0  0  0
 22 31  1  0  0  0  0
 23 32  1  0  0  0  0
 23 33  2  0  0  0  0
 25 34  2  0  0  0  0
 27 35  1  0  0  0  0
 29 36  1  0  0  0  0
 32 37  1  0  0  0  0
 34 38  1  0  0  0  0
 35 39  2  0  0  0  0
 36 40  1  0  0  0  0
 37 41  2  0  0  0  0
 37 42  1  0  0  0  0
 40 43  2  0  0  0  0
 40 44  1  0  0  0  0
 42 45  1  0  0  0  0
 43 46  1  0  0  0  0
 44 47  2  0  0  0  0
 45 48  2  0  0  0  0
 45 49  1  0  0  0  0
 46 50  2  0  0  0  0
 48 51  1  0  0  0  0
 49 52  2  0  0  0  0
 51 53  2  0  0  0  0
 53 54  1  0  0  0  0
 54 55  1  0  0  0  0
 54 56  1  0  0  0  0
 55 57  1  0  0  0  0
 56 58  1  0  0  0  0
 57 59  1  0  0  0  0
 59 60  1  0  0  0  0
  7  9  1  0  0  0  0
 17 20  1  0  0  0  0
 24 33  1  0  0  0  0
 26 34  1  0  0  0  0
 30 32  2  0  0  0  0
 47 50  1  0  0  0  0
 52 53  1  0  0  0  0
 58 59  1  0  0  0  0
M  END
>  <MolRegNo>
2036121

>  <m>
=

>  <Value>
7600

>  <Unit>
nM

>  <Type>
IC50

>  <pValue>
5.12

>  <Ligand Efficiency>
0.12

>  <Binding Efficiency>
6.31

>  <Surface Efficiency>
3.42

>  <Assay Index>
974120

>  <Assay Category>


>  <Assay Organism>
Homo sapiens

>  <Target ID>
17045

>  <Target Name>
Cytochrome P450 3A4

>  <Target Organism>
Homo sapiens

>  <Target Description>
Target is a single protein chain

>  <Sequence Accession>
P08684

>  <Reference>


>  <Pubmed ID>


>  <DOI>


$$$$
2036122
Actelion Java MolfileCreator 1.0

 61 68  0  0  1  0  0  0  0  0999 V2000
    0.0000   -0.0000   -0.0000 O   0  0  0  0  0  0  0  0  0  0  0  0
   -0.0121    1.2445   -0.0000 C   0  0  0  0  0  0  0  0  0  0  0  0
    1.3049    2.0178   -0.0000 N   0  0  0  0  0  0  0  0  0  0  0  0
   -1.3533    2.0178   -0.0000 C   0  0  0  0  0  0  0  0  0  0  0  0
    1.2928    3.5644   -0.0000 C   0  0  0  0  0  0  0  0  0  0  0  0
    2.6219    1.2687   -0.0000 C   0  0  0  0  0  0  0  0  0  0  0  0
   -1.3653    3.5644   -0.0000 N   0  0  0  0  0  0  0  0  0  0  0  0
   -2.6944    1.2687   -0.0000 C   0  0  0  0  0  0  0  0  0  0  0  0
   -0.0483    4.3377   -0.0000 C   0  0  0  0  0  0  0  0  0  0  0  0
    3.9390    2.0541   -0.0000 C   0  0  0  0  0  0  0  0  0  0  0  0
   -2.7065    4.3377   -0.0000 C   0  0  0  0  0  0  0  0  0  0  0  0
   -4.0356    2.0541   -0.0000 C   0  0  0  0  0  0  0  0  0  0  0  0
   -0.0604    5.8843   -0.0000 N   0  0  0  0  0  0  0  0  0  0  0  0
    5.2560    1.3049   -0.0000 C   0  0  0  0  0  0  0  0  0  0  0  0
    3.9269    3.6006   -0.0000 C   0  0  0  0  0  0  0  0  0  0  0  0
   -3.7819    3.7336   -0.0000 O   0  0  0  0  0  0  0  0  0  0  0  0
   -2.7186    5.8843   -0.0000 C   0  0  0  0  0  0  0  0  0  0  0  0
   -5.3768    1.3049   -0.0000 C   0  0  0  0  0  0  0  0  0  0  0  0
   -4.0477    3.6006   -0.0000 C   0  0  0  0  0  0  0  0  0  0  0  0
   -1.4016    6.6576   -0.0000 N   0  0  0  0  0  0  0  0  0  0  0  0
    1.2566    6.6697   -0.0000 C   0  0  0  0  0  0  0  0  0  0  0  0
    5.5701   -0.1812   -0.0000 N   0  0  0  0  0  0  0  0  0  0  0  0
    6.5730    2.0903   -0.0000 C   0  0  0  0  0  0  0  0  0  0  0  0
    5.2439    4.3860   -0.0000 C   0  0  0  0  0  0  0  0  0  0  0  0
   -6.7180    2.0903   -0.0000 C   0  0  0  0  0  0  0  0  0  0  0  0
   -5.3889    4.3860   -0.0000 C   0  0  0  0  0  0  0  0  0  0  0  0
   -1.4137    8.2042   -0.0000 C   0  0  0  0  0  0  0  0  0  0  0  0
    2.3078    6.0655   -0.0000 O   0  0  0  0  0  0  0  0  0  0  0  0
    1.2445    8.2162   -0.0000 N   0  0  0  0  0  0  0  0  0  0  0  0
    7.0805   -0.3262   -0.0000 C   0  0  0  0  0  0  0  0  0  0  0  0
    4.7364   -1.0874   -0.0000 C   0  0  0  0  0  0  0  0  0  0  0  0
    7.7088    1.0754   -0.0000 C   0  0  0  0  0  0  0  0  0  0  0  0
    6.5609    3.6369   -0.0000 C   0  0  0  0  0  0  0  0  0  0  0  0
   -6.7301    3.6369   -0.0000 C   0  0  0  0  0  0  0  0  0  0  0  0
   -2.7549    8.9775   -0.0000 C   0  0  0  0  0  0  0  0  0  0  0  0
    2.5615    9.0016   -0.0000 C   0  0  0  0  0  0  0  0  0  0  0  0
    9.1949    1.4137   -0.0000 C   0  0  0  0  0  0  0  0  0  0  0  0
   -7.8054    4.2652   -0.0000 O   0  0  0  0  0  0  0  0  0  0  0  0
   -2.7669   10.2220   -0.0000 C   0  0  0  0  0  0  0  0  0  0  0  0
    2.5495   10.5482   -0.0000 C   0  0  0  0  0  0  0  0  0  0  0  0
    9.5574    2.5978   -0.0000 O   0  0  0  0  0  0  0  0  0  0  0  0
   10.2099    0.2900   -0.0000 N   0  0  0  0  0  0  0  0  0  0  0  0
    3.8665   11.3336   -0.0000 C   0  0  0  0  0  0  0  0  0  0  0  0
    1.2083   11.3215   -0.0000 C   0  0  0  0  0  0  0  0  0  0  0  0
   11.6961    0.6283   -0.0000 C   0  0  0  0  0  0  0  0  0  0  0  0
    3.8544   12.8802   -0.0000 C   0  0  0  0  0  0  0  0  0  0  0  0
    1.1962   12.8681   -0.0000 C   0  0  0  0  0  0  0  0  0  0  0  0
   12.1552    2.1024   -0.0000 C   0  0  0  0  0  0  0  0  0  0  0  0
   12.7110   -0.4954   -0.0000 C   0  0  0  0  0  0  0  0  0  0  0  0
    2.5132   13.6535   -0.0000 C   0  0  0  0  0  0  0  0  0  0  0  0
   13.6414    2.4407   -0.0000 N   0  0  0  0  0  0  0  0  0  0  0  0
   14.1972   -0.1571   -0.0000 C   0  0  0  0  0  0  0  0  0  0  0  0
   14.6563    1.3170   -0.0000 C   0  0  0  0  0  0  0  0  0  0  0  0
   16.1425    1.6553   -0.0000 N   0  0  0  0  0  0  0  0  0  0  0  0
   17.1574    0.5316   -0.0000 C   0  0  0  0  0  0  0  0  0  0  0  0
   16.6016    3.1294   -0.0000 C   0  0  0  0  0  0  0  0  0  0  0  0
   18.6436    0.8700   -0.0000 C   0  0  0  0  0  0  0  0  0  0  0  0
   18.0878    3.4677   -0.0000 C   0  0  0  0  0  0  0  0  0  0  0  0
   19.1028    2.3440   -0.0000 N   0  0  0  0  0  0  0  0  0  0  0  0
   20.5889    2.6824   -0.0000 C   0  0  0  0  0  0  0  0  0  0  0  0
   20.9514    3.8665   -0.0000 C   0  0  0  0  0  0  0  0  0  0  0  0
  1  2  2  0  0  0  0
  2  3  1  0  0  0  0
  2  4  1  0  0  0  0
  3  5  1  0  0  0  0
  3  6  1  0  0  0  0
  4  7  1  0  0  0  0
  4  8  1  6  0  0  0
  5  9  1  0  0  0  0
  6 10  1  0  0  0  0
  7 11  1  0  0  0  0
  8 12  1  0  0  0  0
  9 13  1  0  0  0  0
 10 14  2  0  0  0  0
 10 15  1  0  0  0  0
 11 16  2  0  0  0  0
 11 17  1  0  0  0  0
 12 18  2  0  0  0  0
 12 19  1  0  0  0  0
 13 20  1  0  0  0  0
 13 21  1  0  0  0  0
 14 22  1  0  0  0  0
 14 23  1  0  0  0  0
 15 24  2  0  0  0  0
 18 25  1  0  0  0  0
 19 26  2  0  0  0  0
 20 27  1  0  0  0  0
 21 28  2  0  0  0  0
 21 29  1  0  0  0  0
 22 30  1  0  0  0  0
 22 31  1  0  0  0  0
 23 32  1  0  0  0  0
 23 33  2  0  0  0  0
 25 34  2  0  0  0  0
 27 35  1  0  0  0  0
 29 36  1  0  0  0  0
 32 37  1  0  0  0  0
 34 38  1  0  0  0  0
 35 39  2  0  0  0  0
 36 40  1  0  0  0  0
 37 41  2  0  0  0  0
 37 42  1  0  0  0  0
 40 43  2  0  0  0  0
 40 44  1  0  0  0  0
 42 45  1  0  0  0  0
 43 46  1  0  0  0  0
 44 47  2  0  0  0  0
 45 48  2  0  0  0  0
 45 49  1  0  0  0  0
 46 50  2  0  0  0  0
 48 51  1  0  0  0  0
 49 52  2  0  0  0  0
 51 53  2  0  0  0  0
 53 54  1  0  0  0  0
 54 55  1  0  0  0  0
 54 56  1  0  0  0  0
 55 57  1  0  0  0  0
 56 58  1  0  0  0  0
 57 59  1  0  0  0  0
 59 60  1  0  0  0  0
 60 61  1  0  0  0  0
  7  9  1  0  0  0  0
 17 20  1  0  0  0  0
 24 33  1  0  0  0  0
 26 34  1  0  0  0  0
 30 32  2  0  0  0  0
 47 50  1  0  0  0  0
 52 53  1  0  0  0  0
 58 59  1  0  0  0  0
M  END
>  <MolRegNo>
2036122

>  <m>
=

>  <Value>
5730

>  <Unit>
nM

>  <Type>
IC50

>  <pValue>
5.24

>  <Ligand Efficiency>
0.12

>  <Binding Efficiency>
6.35

>  <Surface Efficiency>
3.5

>  <Assay Index>
974120

>  <Assay Category>


>  <Assay Organism>
Homo sapiens

>  <Target ID>
17045

>  <Target Name>
Cytochrome P450 3A4

>  <Target Organism>
Homo sapiens

>  <Target Description>
Target is a single protein chain

>  <Sequence Accession>
P08684

>  <Reference>


>  <Pubmed ID>


>  <DOI>


$$$$
2036123
Actelion Java MolfileCreator 1.0

 62 69  0  0  0  0  0  0  0  0999 V2000
    0.0000   -0.0000   -0.0000 O   0  0  0  0  0  0  0  0  0  0  0  0
   -0.0121    1.2463   -0.0000 C   0  0  0  0  0  0  0  0  0  0  0  0
    1.3068    2.0207   -0.0000 N   0  0  0  0  0  0  0  0  0  0  0  0
   -1.3552    2.0207   -0.0000 C   0  0  0  0  0  0  0  0  0  0  0  0
    1.2947    3.5695   -0.0000 C   0  0  0  0  0  0  0  0  0  0  0  0
    2.6257    1.2705   -0.0000 C   0  0  0  0  0  0  0  0  0  0  0  0
   -1.3673    3.5695   -0.0000 N   0  0  0  0  0  0  0  0  0  0  0  0
   -2.6983    1.2584   -0.0000 C   0  0  0  0  0  0  0  0  0  0  0  0
   -0.0484    4.3439   -0.0000 C   0  0  0  0  0  0  0  0  0  0  0  0
    3.9446    2.0570   -0.0000 C   0  0  0  0  0  0  0  0  0  0  0  0
   -2.7104    4.3439   -0.0000 C   0  0  0  0  0  0  0  0  0  0  0  0
   -2.7104   -0.2662   -0.0000 C   0  0  0  0  0  0  0  0  0  0  0  0
   -0.0605    5.8927   -0.0000 N   0  0  0  0  0  0  0  0  0  0  0  0
    5.2635    1.3068   -0.0000 C   0  0  0  0  0  0  0  0  0  0  0  0
    3.9325    3.6058   -0.0000 C   0  0  0  0  0  0  0  0  0  0  0  0
   -3.7873    3.7389   -0.0000 O   0  0  0  0  0  0  0  0  0  0  0  0
   -2.7225    5.8927   -0.0000 C   0  0  0  0  0  0  0  0  0  0  0  0
   -4.0535   -1.0285   -0.0000 C   0  0  0  0  0  0  0  0  0  0  0  0
   -1.3915   -1.0164   -0.0000 C   0  0  0  0  0  0  0  0  0  0  0  0
   -1.4036    6.6670   -0.0000 N   0  0  0  0  0  0  0  0  0  0  0  0
    1.2584    6.6791   -0.0000 C   0  0  0  0  0  0  0  0  0  0  0  0
    5.5781   -0.1815   -0.0000 N   0  0  0  0  0  0  0  0  0  0  0  0
    6.5823    2.0933   -0.0000 C   0  0  0  0  0  0  0  0  0  0  0  0
    5.2514    4.3923   -0.0000 C   0  0  0  0  0  0  0  0  0  0  0  0
   -4.0656   -2.5531   -0.0000 C   0  0  0  0  0  0  0  0  0  0  0  0
   -1.4036   -2.5410   -0.0000 C   0  0  0  0  0  0  0  0  0  0  0  0
   -1.4157    8.2158   -0.0000 C   0  0  0  0  0  0  0  0  0  0  0  0
    2.3111    6.0742   -0.0000 O   0  0  0  0  0  0  0  0  0  0  0  0
    1.2463    8.2279   -0.0000 N   0  0  0  0  0  0  0  0  0  0  0  0
    7.0905   -0.3267   -0.0000 C   0  0  0  0  0  0  0  0  0  0  0  0
    4.7432   -1.0890   -0.0000 C   0  0  0  0  0  0  0  0  0  0  0  0
    7.7197    1.0769   -0.0000 C   0  0  0  0  0  0  0  0  0  0  0  0
    6.5702    3.6421   -0.0000 C   0  0  0  0  0  0  0  0  0  0  0  0
   -2.7467   -3.3033   -0.0000 C   0  0  0  0  0  0  0  0  0  0  0  0
   -2.7588    8.9902   -0.0000 C   0  0  0  0  0  0  0  0  0  0  0  0
    2.5652    9.0144   -0.0000 C   0  0  0  0  0  0  0  0  0  0  0  0
    9.2080    1.4157   -0.0000 C   0  0  0  0  0  0  0  0  0  0  0  0
   -2.7588   -4.5254   -0.0000 O   0  0  0  0  0  0  0  0  0  0  0  0
   -2.7709   10.2365   -0.0000 C   0  0  0  0  0  0  0  0  0  0  0  0
    2.5531   10.5632   -0.0000 C   0  0  0  0  0  0  0  0  0  0  0  0
    9.5710    2.6015   -0.0000 O   0  0  0  0  0  0  0  0  0  0  0  0
   10.2244    0.2904   -0.0000 N   0  0  0  0  0  0  0  0  0  0  0  0
    3.8720   11.3497   -0.0000 C   0  0  0  0  0  0  0  0  0  0  0  0
    1.2100   11.3376   -0.0000 C   0  0  0  0  0  0  0  0  0  0  0  0
   11.7127    0.6292   -0.0000 C   0  0  0  0  0  0  0  0  0  0  0  0
    3.8599   12.8985   -0.0000 C   0  0  0  0  0  0  0  0  0  0  0  0
    1.1979   12.8864   -0.0000 C   0  0  0  0  0  0  0  0  0  0  0  0
   12.1725    2.1054   -0.0000 C   0  0  0  0  0  0  0  0  0  0  0  0
   12.7291   -0.4961   -0.0000 C   0  0  0  0  0  0  0  0  0  0  0  0
    2.5168   13.6729   -0.0000 C   0  0  0  0  0  0  0  0  0  0  0  0
   13.6608    2.4442   -0.0000 N   0  0  0  0  0  0  0  0  0  0  0  0
   14.2174   -0.1573   -0.0000 C   0  0  0  0  0  0  0  0  0  0  0  0
   14.6772    1.3189   -0.0000 C   0  0  0  0  0  0  0  0  0  0  0  0
   16.1655    1.6577   -0.0000 N   0  0  0  0  0  0  0  0  0  0  0  0
   17.1819    0.5324   -0.0000 C   0  0  0  0  0  0  0  0  0  0  0  0
   16.6253    3.1339   -0.0000 C   0  0  0  0  0  0  0  0  0  0  0  0
   18.6702    0.8712   -0.0000 C   0  0  0  0  0  0  0  0  0  0  0  0
   18.1136    3.4727   -0.0000 C   0  0  0  0  0  0  0  0  0  0  0  0
   19.1300    2.3474   -0.0000 N   0  0  0  0  0  0  0  0  0  0  0  0
   20.6182    2.6862   -0.0000 C   0  0  0  0  0  0  0  0  0  0  0  0
   21.0659    4.1624   -0.0000 C   0  0  0  0  0  0  0  0  0  0  0  0
   22.2517    4.4407   -0.0000 C   0  0  0  0  0  0  0  0  0  0  0  0
  1  2  2  0  0  0  0
  2  3  1  0  0  0  0
  2  4  1  0  0  0  0
  3  5  1  0  0  0  0
  3  6  1  0  0  0  0
  4  7  1  0  0  0  0
  4  8  1  0  0  0  0
  5  9  1  0  0  0  0
  6 10  1  0  0  0  0
  7 11  1  0  0  0  0
  8 12  1  0  0  0  0
  9 13  1  0  0  0  0
 10 14  2  0  0  0  0
 10 15  1  0  0  0  0
 11 16  2  0  0  0  0
 11 17  1  0  0  0  0
 12 18  2  0  0  0  0
 12 19  1  0  0  0  0
 13 20  1  0  0  0  0
 13 21  1  0  0  0  0
 14 22  1  0  0  0  0
 14 23  1  0  0  0  0
 15 24  2  0  0  0  0
 18 25  1  0  0  0  0
 19 26  2  0  0  0  0
 20 27  1  0  0  0  0
 21 28  2  0  0  0  0
 21 29  1  0  0  0  0
 22 30  1  0  0  0  0
 22 31  1  0  0  0  0
 23 32  1  0  0  0  0
 23 33  2  0  0  0  0
 25 34  2  0  0  0  0
 27 35  1  0  0  0  0
 29 36  1  0  0  0  0
 32 37  1  0  0  0  0
 34 38  1  0  0  0  0
 35 39  2  0  0  0  0
 36 40  1  0  0  0  0
 37 41  2  0  0  0  0
 37 42  1  0  0  0  0
 40 43  2  0  0  0  0
 40 44  1  0  0  0  0
 42 45  1  0  0  0  0
 43 46  1  0  0  0  0
 44 47  2  0  0  0  0
 45 48  2  0  0  0  0
 45 49  1  0  0  0  0
 46 50  2  0  0  0  0
 48 51  1  0  0  0  0
 49 52  2  0  0  0  0
 51 53  2  0  0  0  0
 53 54  1  0  0  0  0
 54 55  1  0  0  0  0
 54 56  1  0  0  0  0
 55 57  1  0  0  0  0
 56 58  1  0  0  0  0
 57 59  1  0  0  0  0
 59 60  1  0  0  0  0
 60 61  1  0  0  0  0
 61 62  1  0  0  0  0
  7  9  1  0  0  0  0
 17 20  1  0  0  0  0
 24 33  1  0  0  0  0
 26 34  1  0  0  0  0
 30 32  2  0  0  0  0
 47 50  1  0  0  0  0
 52 53  1  0  0  0  0
 58 59  1  0  0  0  0
M  END
>  <MolRegNo>
2036123

>  <m>
=

>  <Value>
6940

>  <Unit>
nM

>  <Type>
IC50

>  <pValue>
5.16

>  <Ligand Efficiency>
0.11

>  <Binding Efficiency>
6.15

>  <Surface Efficiency>
3.44

>  <Assay Index>
974120

>  <Assay Category>


>  <Assay Organism>
Homo sapiens

>  <Target ID>
17045

>  <Target Name>
Cytochrome P450 3A4

>  <Target Organism>
Homo sapiens

>  <Target Description>
Target is a single protein chain

>  <Sequence Accession>
P08684

>  <Reference>


>  <Pubmed ID>


>  <DOI>


$$$$
2036124
Actelion Java MolfileCreator 1.0

 62 69  0  0  0  0  0  0  0  0999 V2000
    0.0000   -0.0000   -0.0000 O   0  0  0  0  0  0  0  0  0  0  0  0
   -0.0121    1.2463   -0.0000 C   0  0  0  0  0  0  0  0  0  0  0  0
    1.3068    2.0207   -0.0000 N   0  0  0  0  0  0  0  0  0  0  0  0
   -1.3552    2.0207   -0.0000 C   0  0  0  0  0  0  0  0  0  0  0  0
    1.2947    3.5695   -0.0000 C   0  0  0  0  0  0  0  0  0  0  0  0
    2.6257    1.2705   -0.0000 C   0  0  0  0  0  0  0  0  0  0  0  0
   -1.3673    3.5695   -0.0000 N   0  0  0  0  0  0  0  0  0  0  0  0
   -2.6983    1.2584   -0.0000 C   0  0  0  0  0  0  0  0  0  0  0  0
   -0.0484    4.3439   -0.0000 C   0  0  0  0  0  0  0  0  0  0  0  0
    3.9446    2.0570   -0.0000 C   0  0  0  0  0  0  0  0  0  0  0  0
   -2.7104    4.3439   -0.0000 C   0  0  0  0  0  0  0  0  0  0  0  0
   -2.7104   -0.2662   -0.0000 C   0  0  0  0  0  0  0  0  0  0  0  0
   -0.0605    5.8927   -0.0000 N   0  0  0  0  0  0  0  0  0  0  0  0
    5.2635    1.3068   -0.0000 C   0  0  0  0  0  0  0  0  0  0  0  0
    3.9325    3.6058   -0.0000 C   0  0  0  0  0  0  0  0  0  0  0  0
   -3.7873    3.7389   -0.0000 O   0  0  0  0  0  0  0  0  0  0  0  0
   -2.7225    5.8927   -0.0000 C   0  0  0  0  0  0  0  0  0  0  0  0
   -4.0535   -1.0285   -0.0000 C   0  0  0  0  0  0  0  0  0  0  0  0
   -1.3915   -1.0164   -0.0000 C   0  0  0  0  0  0  0  0  0  0  0  0
   -1.4036    6.6670   -0.0000 N   0  0  0  0  0  0  0  0  0  0  0  0
    1.2584    6.6791   -0.0000 C   0  0  0  0  0  0  0  0  0  0  0  0
    5.5781   -0.1815   -0.0000 N   0  0  0  0  0  0  0  0  0  0  0  0
    6.5823    2.0933   -0.0000 C   0  0  0  0  0  0  0  0  0  0  0  0
    5.2514    4.3923   -0.0000 C   0  0  0  0  0  0  0  0  0  0  0  0
   -4.0656   -2.5531   -0.0000 C   0  0  0  0  0  0  0  0  0  0  0  0
   -1.4036   -2.5410   -0.0000 C   0  0  0  0  0  0  0  0  0  0  0  0
   -1.4157    8.2158   -0.0000 C   0  0  0  0  0  0  0  0  0  0  0  0
    2.3111    6.0742   -0.0000 O   0  0  0  0  0  0  0  0  0  0  0  0
    1.2463    8.2279   -0.0000 N   0  0  0  0  0  0  0  0  0  0  0  0
    7.0905   -0.3267   -0.0000 C   0  0  0  0  0  0  0  0  0  0  0  0
    4.7432   -1.0890   -0.0000 C   0  0  0  0  0  0  0  0  0  0  0  0
    7.7197    1.0769   -0.0000 C   0  0  0  0  0  0  0  0  0  0  0  0
    6.5702    3.6421   -0.0000 C   0  0  0  0  0  0  0  0  0  0  0  0
   -2.7467   -3.3033   -0.0000 C   0  0  0  0  0  0  0  0  0  0  0  0
   -2.7588    8.9902   -0.0000 C   0  0  0  0  0  0  0  0  0  0  0  0
    2.5652    9.0144   -0.0000 C   0  0  0  0  0  0  0  0  0  0  0  0
    9.2080    1.4157   -0.0000 C   0  0  0  0  0  0  0  0  0  0  0  0
   -2.7588   -4.5254   -0.0000 O   0  0  0  0  0  0  0  0  0  0  0  0
   -2.7709   10.2365   -0.0000 C   0  0  0  0  0  0  0  0  0  0  0  0
    2.5531   10.5632   -0.0000 C   0  0  0  0  0  0  0  0  0  0  0  0
    9.5710    2.6015   -0.0000 O   0  0  0  0  0  0  0  0  0  0  0  0
   10.2244    0.2904   -0.0000 N   0  0  0  0  0  0  0  0  0  0  0  0
    3.8720   11.3497   -0.0000 C   0  0  0  0  0  0  0  0  0  0  0  0
    1.2100   11.3376   -0.0000 C   0  0  0  0  0  0  0  0  0  0  0  0
   11.7127    0.6292   -0.0000 C   0  0  0  0  0  0  0  0  0  0  0  0
    3.8599   12.8985   -0.0000 C   0  0  0  0  0  0  0  0  0  0  0  0
    1.1979   12.8864   -0.0000 C   0  0  0  0  0  0  0  0  0  0  0  0
   12.1725    2.1054   -0.0000 C   0  0  0  0  0  0  0  0  0  0  0  0
   12.7291   -0.4961   -0.0000 C   0  0  0  0  0  0  0  0  0  0  0  0
    2.5168   13.6729   -0.0000 C   0  0  0  0  0  0  0  0  0  0  0  0
   13.6608    2.4442   -0.0000 N   0  0  0  0  0  0  0  0  0  0  0  0
   14.2174   -0.1573   -0.0000 C   0  0  0  0  0  0  0  0  0  0  0  0
   14.6772    1.3189   -0.0000 C   0  0  0  0  0  0  0  0  0  0  0  0
   16.1655    1.6577   -0.0000 N   0  0  0  0  0  0  0  0  0  0  0  0
   17.1819    0.5324   -0.0000 C   0  0  0  0  0  0  0  0  0  0  0  0
   16.6253    3.1339   -0.0000 C   0  0  0  0  0  0  0  0  0  0  0  0
   18.6702    0.8712   -0.0000 C   0  0  0  0  0  0  0  0  0  0  0  0
   18.1136    3.4727   -0.0000 C   0  0  0  0  0  0  0  0  0  0  0  0
   19.1300    2.3474   -0.0000 N   0  0  0  0  0  0  0  0  0  0  0  0
   20.6182    2.6862   -0.0000 C   0  0  0  0  0  0  0  0  0  0  0  0
   21.0659    4.1624   -0.0000 C   0  0  0  0  0  0  0  0  0  0  0  0
   22.2517    4.4407   -0.0000 O   0  0  0  0  0  0  0  0  0  0  0  0
  1  2  2  0  0  0  0
  2  3  1  0  0  0  0
  2  4  1  0  0  0  0
  3  5  1  0  0  0  0
  3  6  1  0  0  0  0
  4  7  1  0  0  0  0
  4  8  1  0  0  0  0
  5  9  1  0  0  0  0
  6 10  1  0  0  0  0
  7 11  1  0  0  0  0
  8 12  1  0  0  0  0
  9 13  1  0  0  0  0
 10 14  2  0  0  0  0
 10 15  1  0  0  0  0
 11 16  2  0  0  0  0
 11 17  1  0  0  0  0
 12 18  2  0  0  0  0
 12 19  1  0  0  0  0
 13 20  1  0  0  0  0
 13 21  1  0  0  0  0
 14 22  1  0  0  0  0
 14 23  1  0  0  0  0
 15 24  2  0  0  0  0
 18 25  1  0  0  0  0
 19 26  2  0  0  0  0
 20 27  1  0  0  0  0
 21 28  2  0  0  0  0
 21 29  1  0  0  0  0
 22 30  1  0  0  0  0
 22 31  1  0  0  0  0
 23 32  1  0  0  0  0
 23 33  2  0  0  0  0
 25 34  2  0  0  0  0
 27 35  1  0  0  0  0
 29 36  1  0  0  0  0
 32 37  1  0  0  0  0
 34 38  1  0  0  0  0
 35 39  2  0  0  0  0
 36 40  1  0  0  0  0
 37 41  2  0  0  0  0
 37 42  1  0  0  0  0
 40 43  2  0  0  0  0
 40 44  1  0  0  0  0
 42 45  1  0  0  0  0
 43 46  1  0  0  0  0
 44 47  2  0  0  0  0
 45 48  2  0  0  0  0
 45 49  1  0  0  0  0
 46 50  2  0  0  0  0
 48 51  1  0  0  0  0
 49 52  2  0  0  0  0
 51 53  2  0  0  0  0
 53 54  1  0  0  0  0
 54 55  1  0  0  0  0
 54 56  1  0  0  0  0
 55 57  1  0  0  0  0
 56 58  1  0  0  0  0
 57 59  1  0  0  0  0
 59 60  1  0  0  0  0
 60 61  1  0  0  0  0
 61 62  1  0  0  0  0
  7  9  1  0  0  0  0
 17 20  1  0  0  0  0
 24 33  1  0  0  0  0
 26 34  1  0  0  0  0
 30 32  2  0  0  0  0
 47 50  1  0  0  0  0
 52 53  1  0  0  0  0
 58 59  1  0  0  0  0
M  END
>  <MolRegNo>
2036124

>  <m>
=

>  <Value>
6040

>  <Unit>
nM

>  <Type>
IC50

>  <pValue>
5.22

>  <Ligand Efficiency>
0.11

>  <Binding Efficiency>
6.21

>  <Surface Efficiency>
3.07

>  <Assay Index>
974120

>  <Assay Category>


>  <Assay Organism>
Homo sapiens

>  <Target ID>
17045

>  <Target Name>
Cytochrome P450 3A4

>  <Target Organism>
Homo sapiens

>  <Target Description>
Target is a single protein chain

>  <Sequence Accession>
P08684

>  <Reference>


>  <Pubmed ID>


>  <DOI>


$$$$
2036125
Actelion Java MolfileCreator 1.0

 62 69  0  0  1  0  0  0  0  0999 V2000
    0.0000   -0.0000   -0.0000 O   0  0  0  0  0  0  0  0  0  0  0  0
   -0.0121    1.2481   -0.0000 C   0  0  0  0  0  0  0  0  0  0  0  0
    1.3086    2.0236   -0.0000 N   0  0  0  0  0  0  0  0  0  0  0  0
   -1.3571    2.0236   -0.0000 C   0  0  0  0  0  0  0  0  0  0  0  0
    1.2965    3.5745   -0.0000 C   0  0  0  0  0  0  0  0  0  0  0  0
    2.6294    1.2723   -0.0000 C   0  0  0  0  0  0  0  0  0  0  0  0
   -1.3692    3.5745   -0.0000 N   0  0  0  0  0  0  0  0  0  0  0  0
   -2.7021    1.2723   -0.0000 C   0  0  0  0  0  0  0  0  0  0  0  0
   -0.0485    4.3500   -0.0000 C   0  0  0  0  0  0  0  0  0  0  0  0
    3.9502    2.0599   -0.0000 C   0  0  0  0  0  0  0  0  0  0  0  0
   -2.7142    4.3500   -0.0000 C   0  0  0  0  0  0  0  0  0  0  0  0
   -4.0471    2.0599   -0.0000 C   0  0  0  0  0  0  0  0  0  0  0  0
   -0.0606    5.9010   -0.0000 N   0  0  0  0  0  0  0  0  0  0  0  0
    5.2709    1.3086   -0.0000 C   0  0  0  0  0  0  0  0  0  0  0  0
    3.9381    3.6109   -0.0000 C   0  0  0  0  0  0  0  0  0  0  0  0
   -3.7927    3.7442   -0.0000 O   0  0  0  0  0  0  0  0  0  0  0  0
   -2.7264    5.9010   -0.0000 C   0  0  0  0  0  0  0  0  0  0  0  0
   -5.3921    1.3086   -0.0000 C   0  0  0  0  0  0  0  0  0  0  0  0
   -4.0592    3.6109   -0.0000 C   0  0  0  0  0  0  0  0  0  0  0  0
   -1.4056    6.6765   -0.0000 N   0  0  0  0  0  0  0  0  0  0  0  0
    1.2602    6.6886   -0.0000 C   0  0  0  0  0  0  0  0  0  0  0  0
    5.5860   -0.1818   -0.0000 N   0  0  0  0  0  0  0  0  0  0  0  0
    6.5917    2.0963   -0.0000 C   0  0  0  0  0  0  0  0  0  0  0  0
    5.2588    4.3985   -0.0000 C   0  0  0  0  0  0  0  0  0  0  0  0
   -6.7371    2.0963   -0.0000 C   0  0  0  0  0  0  0  0  0  0  0  0
   -5.4042    4.3985   -0.0000 C   0  0  0  0  0  0  0  0  0  0  0  0
   -1.4177    8.2275   -0.0000 C   0  0  0  0  0  0  0  0  0  0  0  0
    2.3144    6.0828   -0.0000 O   0  0  0  0  0  0  0  0  0  0  0  0
    1.2481    8.2396   -0.0000 N   0  0  0  0  0  0  0  0  0  0  0  0
    7.1006   -0.3272   -0.0000 C   0  0  0  0  0  0  0  0  0  0  0  0
    4.7499   -1.0905   -0.0000 C   0  0  0  0  0  0  0  0  0  0  0  0
    7.7307    1.0784   -0.0000 C   0  0  0  0  0  0  0  0  0  0  0  0
    6.5796    3.6473   -0.0000 C   0  0  0  0  0  0  0  0  0  0  0  0
   -6.7492    3.6473   -0.0000 C   0  0  0  0  0  0  0  0  0  0  0  0
   -2.7627    9.0030   -0.0000 C   0  0  0  0  0  0  0  0  0  0  0  0
    2.5688    9.0272   -0.0000 C   0  0  0  0  0  0  0  0  0  0  0  0
    9.2211    1.4177   -0.0000 C   0  0  0  0  0  0  0  0  0  0  0  0
   -7.8277    4.2773   -0.0000 O   0  0  0  0  0  0  0  0  0  0  0  0
   -2.7748   10.2511   -0.0000 C   0  0  0  0  0  0  0  0  0  0  0  0
    2.5567   10.5782   -0.0000 C   0  0  0  0  0  0  0  0  0  0  0  0
    9.5846    2.6052   -0.0000 O   0  0  0  0  0  0  0  0  0  0  0  0
   10.2390    0.2908   -0.0000 N   0  0  0  0  0  0  0  0  0  0  0  0
    3.8775   11.3659   -0.0000 C   0  0  0  0  0  0  0  0  0  0  0  0
    1.2117   11.3537   -0.0000 C   0  0  0  0  0  0  0  0  0  0  0  0
   11.7294    0.6301   -0.0000 C   0  0  0  0  0  0  0  0  0  0  0  0
    3.8654   12.9168   -0.0000 C   0  0  0  0  0  0  0  0  0  0  0  0
    1.1996   12.9047   -0.0000 C   0  0  0  0  0  0  0  0  0  0  0  0
   12.1898    2.1084   -0.0000 C   0  0  0  0  0  0  0  0  0  0  0  0
   12.7472   -0.4968   -0.0000 C   0  0  0  0  0  0  0  0  0  0  0  0
    2.5204   13.6923   -0.0000 C   0  0  0  0  0  0  0  0  0  0  0  0
   13.6802    2.4477   -0.0000 N   0  0  0  0  0  0  0  0  0  0  0  0
   14.2376   -0.1575   -0.0000 C   0  0  0  0  0  0  0  0  0  0  0  0
   14.6981    1.3208   -0.0000 C   0  0  0  0  0  0  0  0  0  0  0  0
   16.1885    1.6600   -0.0000 N   0  0  0  0  0  0  0  0  0  0  0  0
   17.2063    0.5332   -0.0000 C   0  0  0  0  0  0  0  0  0  0  0  0
   16.6489    3.1383   -0.0000 C   0  0  0  0  0  0  0  0  0  0  0  0
   18.6967    0.8724   -0.0000 C   0  0  0  0  0  0  0  0  0  0  0  0
   18.1393    3.4776   -0.0000 C   0  0  0  0  0  0  0  0  0  0  0  0
   19.1572    2.3507   -0.0000 N   0  0  0  0  0  0  0  0  0  0  0  0
   20.6476    2.6900   -0.0000 C   0  0  0  0  0  0  0  0  0  0  0  0
   21.0111    3.8775   -0.0000 C   0  0  0  0  0  0  0  0  0  0  0  0
   21.4594    1.7933   -0.0000 C   0  0  0  0  0  0  0  0  0  0  0  0
  1  2  2  0  0  0  0
  2  3  1  0  0  0  0
  2  4  1  0  0  0  0
  3  5  1  0  0  0  0
  3  6  1  0  0  0  0
  4  7  1  0  0  0  0
  4  8  1  6  0  0  0
  5  9  1  0  0  0  0
  6 10  1  0  0  0  0
  7 11  1  0  0  0  0
  8 12  1  0  0  0  0
  9 13  1  0  0  0  0
 10 14  2  0  0  0  0
 10 15  1  0  0  0  0
 11 16  2  0  0  0  0
 11 17  1  0  0  0  0
 12 18  2  0  0  0  0
 12 19  1  0  0  0  0
 13 20  1  0  0  0  0
 13 21  1  0  0  0  0
 14 22  1  0  0  0  0
 14 23  1  0  0  0  0
 15 24  2  0  0  0  0
 18 25  1  0  0  0  0
 19 26  2  0  0  0  0
 20 27  1  0  0  0  0
 21 28  2  0  0  0  0
 21 29  1  0  0  0  0
 22 30  1  0  0  0  0
 22 31  1  0  0  0  0
 23 32  1  0  0  0  0
 23 33  2  0  0  0  0
 25 34  2  0  0  0  0
 27 35  1  0  0  0  0
 29 36  1  0  0  0  0
 32 37  1  0  0  0  0
 34 38  1  0  0  0  0
 35 39  2  0  0  0  0
 36 40  1  0  0  0  0
 37 41  2  0  0  0  0
 37 42  1  0  0  0  0
 40 43  2  0  0  0  0
 40 44  1  0  0  0  0
 42 45  1  0  0  0  0
 43 46  1  0  0  0  0
 44 47  2  0  0  0  0
 45 48  2  0  0  0  0
 45 49  1  0  0  0  0
 46 50  2  0  0  0  0
 48 51  1  0  0  0  0
 49 52  2  0  0  0  0
 51 53  2  0  0  0  0
 53 54  1  0  0  0  0
 54 55  1  0  0  0  0
 54 56  1  0  0  0  0
 55 57  1  0  0  0  0
 56 58  1  0  0  0  0
 57 59  1  0  0  0  0
 59 60  1  0  0  0  0
 60 61  1  0  0  0  0
 60 62  1  0  0  0  0
  7  9  1  0  0  0  0
 17 20  1  0  0  0  0
 24 33  1  0  0  0  0
 26 34  1  0  0  0  0
 30 32  2  0  0  0  0
 47 50  1  0  0  0  0
 52 53  1  0  0  0  0
 58 59  1  0  0  0  0
M  END
>  <MolRegNo>
2036125

>  <m>
=

>  <Value>
6120

>  <Unit>
nM

>  <Type>
IC50

>  <pValue>
5.21

>  <Ligand Efficiency>
0.11

>  <Binding Efficiency>
6.21

>  <Surface Efficiency>
3.48

>  <Assay Index>
974120

>  <Assay Category>


>  <Assay Organism>
Homo sapiens

>  <Target ID>
17045

>  <Target Name>
Cytochrome P450 3A4

>  <Target Organism>
Homo sapiens

>  <Target Description>
Target is a single protein chain

>  <Sequence Accession>
P08684

>  <Reference>


>  <Pubmed ID>


>  <DOI>


$$$$
2036126
Actelion Java MolfileCreator 1.0

 62 69  0  0  1  0  0  0  0  0999 V2000
    0.0000   -0.0000   -0.0000 O   0  0  0  0  0  0  0  0  0  0  0  0
   -0.0121    1.2481   -0.0000 C   0  0  0  0  0  0  0  0  0  0  0  0
    1.3086    2.0236   -0.0000 N   0  0  0  0  0  0  0  0  0  0  0  0
   -1.3571    2.0236   -0.0000 C   0  0  0  0  0  0  0  0  0  0  0  0
    1.2965    3.5745   -0.0000 C   0  0  0  0  0  0  0  0  0  0  0  0
    2.6294    1.2723   -0.0000 C   0  0  0  0  0  0  0  0  0  0  0  0
   -1.3692    3.5745   -0.0000 N   0  0  0  0  0  0  0  0  0  0  0  0
   -2.7021    1.2723   -0.0000 C   0  0  0  0  0  0  0  0  0  0  0  0
   -0.0485    4.3500   -0.0000 C   0  0  0  0  0  0  0  0  0  0  0  0
    3.9502    2.0599   -0.0000 C   0  0  0  0  0  0  0  0  0  0  0  0
   -2.7142    4.3500   -0.0000 C   0  0  0  0  0  0  0  0  0  0  0  0
   -4.0471    2.0599   -0.0000 C   0  0  0  0  0  0  0  0  0  0  0  0
   -0.0606    5.9010   -0.0000 N   0  0  0  0  0  0  0  0  0  0  0  0
    5.2709    1.3086   -0.0000 C   0  0  0  0  0  0  0  0  0  0  0  0
    3.9381    3.6109   -0.0000 C   0  0  0  0  0  0  0  0  0  0  0  0
   -3.7927    3.7442   -0.0000 O   0  0  0  0  0  0  0  0  0  0  0  0
   -2.7264    5.9010   -0.0000 C   0  0  0  0  0  0  0  0  0  0  0  0
   -5.3921    1.3086   -0.0000 C   0  0  0  0  0  0  0  0  0  0  0  0
   -4.0592    3.6109   -0.0000 C   0  0  0  0  0  0  0  0  0  0  0  0
   -1.4056    6.6765   -0.0000 N   0  0  0  0  0  0  0  0  0  0  0  0
    1.2602    6.6886   -0.0000 C   0  0  0  0  0  0  0  0  0  0  0  0
    5.5860   -0.1818   -0.0000 N   0  0  0  0  0  0  0  0  0  0  0  0
    6.5917    2.0963   -0.0000 C   0  0  0  0  0  0  0  0  0  0  0  0
    5.2588    4.3985   -0.0000 C   0  0  0  0  0  0  0  0  0  0  0  0
   -6.7371    2.0963   -0.0000 C   0  0  0  0  0  0  0  0  0  0  0  0
   -5.4042    4.3985   -0.0000 C   0  0  0  0  0  0  0  0  0  0  0  0
   -1.4177    8.2275   -0.0000 C   0  0  0  0  0  0  0  0  0  0  0  0
    2.3144    6.0828   -0.0000 O   0  0  0  0  0  0  0  0  0  0  0  0
    1.2481    8.2396   -0.0000 N   0  0  0  0  0  0  0  0  0  0  0  0
    7.1006   -0.3272   -0.0000 C   0  0  0  0  0  0  0  0  0  0  0  0
    4.7499   -1.0905   -0.0000 C   0  0  0  0  0  0  0  0  0  0  0  0
    7.7307    1.0784   -0.0000 C   0  0  0  0  0  0  0  0  0  0  0  0
    6.5796    3.6473   -0.0000 C   0  0  0  0  0  0  0  0  0  0  0  0
   -6.7492    3.6473   -0.0000 C   0  0  0  0  0  0  0  0  0  0  0  0
   -2.7627    9.0030   -0.0000 C   0  0  0  0  0  0  0  0  0  0  0  0
    2.5688    9.0272   -0.0000 C   0  0  0  0  0  0  0  0  0  0  0  0
    9.2211    1.4177   -0.0000 C   0  0  0  0  0  0  0  0  0  0  0  0
   -7.8277    4.2773   -0.0000 O   0  0  0  0  0  0  0  0  0  0  0  0
   -2.7748   10.2511   -0.0000 C   0  0  0  0  0  0  0  0  0  0  0  0
    2.5567   10.5782   -0.0000 C   0  0  0  0  0  0  0  0  0  0  0  0
    9.5846    2.6052   -0.0000 O   0  0  0  0  0  0  0  0  0  0  0  0
   10.2390    0.2908   -0.0000 N   0  0  0  0  0  0  0  0  0  0  0  0
    3.8775   11.3659   -0.0000 C   0  0  0  0  0  0  0  0  0  0  0  0
    1.2117   11.3537   -0.0000 C   0  0  0  0  0  0  0  0  0  0  0  0
   11.7294    0.6301   -0.0000 C   0  0  0  0  0  0  0  0  0  0  0  0
    3.8654   12.9168   -0.0000 C   0  0  0  0  0  0  0  0  0  0  0  0
    1.1996   12.9047   -0.0000 C   0  0  0  0  0  0  0  0  0  0  0  0
   12.7472   -0.4968   -0.0000 C   0  0  0  0  0  0  0  0  0  0  0  0
   12.1898    2.1084   -0.0000 C   0  0  0  0  0  0  0  0  0  0  0  0
    2.5204   13.6923   -0.0000 C   0  0  0  0  0  0  0  0  0  0  0  0
   14.2376   -0.1575   -0.0000 N   0  0  0  0  0  0  0  0  0  0  0  0
   13.6802    2.4477   -0.0000 N   0  0  0  0  0  0  0  0  0  0  0  0
   14.6981    1.3208   -0.0000 C   0  0  0  0  0  0  0  0  0  0  0  0
   16.1885    1.6600   -0.0000 N   0  0  0  0  0  0  0  0  0  0  0  0
   17.2063    0.5332   -0.0000 C   0  0  0  0  0  0  0  0  0  0  0  0
   16.6489    3.1383   -0.0000 C   0  0  0  0  0  0  0  0  0  0  0  0
   18.6967    0.8724   -0.0000 C   0  0  0  0  0  0  0  0  0  0  0  0
   18.1393    3.4776   -0.0000 C   0  0  0  0  0  0  0  0  0  0  0  0
   19.1572    2.3507   -0.0000 N   0  0  0  0  0  0  0  0  0  0  0  0
   20.6476    2.6900   -0.0000 C   0  0  0  0  0  0  0  0  0  0  0  0
   21.0111    3.8775   -0.0000 C   0  0  0  0  0  0  0  0  0  0  0  0
   21.4594    1.7933   -0.0000 C   0  0  0  0  0  0  0  0  0  0  0  0
  1  2  2  0  0  0  0
  2  3  1  0  0  0  0
  2  4  1  0  0  0  0
  3  5  1  0  0  0  0
  3  6  1  0  0  0  0
  4  7  1  0  0  0  0
  4  8  1  6  0  0  0
  5  9  1  0  0  0  0
  6 10  1  0  0  0  0
  7 11  1  0  0  0  0
  8 12  1  0  0  0  0
  9 13  1  1  0  0  0
 10 14  2  0  0  0  0
 10 15  1  0  0  0  0
 11 16  2  0  0  0  0
 11 17  1  0  0  0  0
 12 18  2  0  0  0  0
 12 19  1  0  0  0  0
 13 20  1  0  0  0  0
 13 21  1  0  0  0  0
 14 22  1  0  0  0  0
 14 23  1  0  0  0  0
 15 24  2  0  0  0  0
 18 25  1  0  0  0  0
 19 26  2  0  0  0  0
 20 27  1  0  0  0  0
 21 28  2  0  0  0  0
 21 29  1  0  0  0  0
 22 30  1  0  0  0  0
 22 31  1  0  0  0  0
 23 32  1  0  0  0  0
 23 33  2  0  0  0  0
 25 34  2  0  0  0  0
 27 35  1  0  0  0  0
 29 36  1  0  0  0  0
 32 37  1  0  0  0  0
 34 38  1  0  0  0  0
 35 39  2  0  0  0  0
 36 40  1  0  0  0  0
 37 41  2  0  0  0  0
 37 42  1  0  0  0  0
 40 43  2  0  0  0  0
 40 44  1  0  0  0  0
 42 45  1  0  0  0  0
 43 46  1  0  0  0  0
 44 47  2  0  0  0  0
 45 48  2  0  0  0  0
 45 49  1  0  0  0  0
 46 50  2  0  0  0  0
 48 51  1  0  0  0  0
 49 52  2  0  0  0  0
 51 53  2  0  0  0  0
 53 54  1  0  0  0  0
 54 55  1  0  0  0  0
 54 56  1  0  0  0  0
 55 57  1  0  0  0  0
 56 58  1  0  0  0  0
 57 59  1  0  0  0  0
 59 60  1  0  0  0  0
 60 61  1  0  0  0  0
 60 62  1  0  0  0  0
  7  9  1  0  0  0  0
 17 20  1  0  0  0  0
 24 33  1  0  0  0  0
 26 34  1  0  0  0  0
 30 32  2  0  0  0  0
 47 50  1  0  0  0  0
 52 53  1  0  0  0  0
 58 59  1  0  0  0  0
M  END
>  <MolRegNo>
2036126

>  <m>
=

>  <Value>
3670

>  <Unit>
nM

>  <Type>
IC50

>  <pValue>
5.43

>  <Ligand Efficiency>
0.12

>  <Binding Efficiency>
6.47

>  <Surface Efficiency>
3.34

>  <Assay Index>
974120

>  <Assay Category>


>  <Assay Organism>
Homo sapiens

>  <Target ID>
17045

>  <Target Name>
Cytochrome P450 3A4

>  <Target Organism>
Homo sapiens

>  <Target Description>
Target is a single protein chain

>  <Sequence Accession>
P08684

>  <Reference>


>  <Pubmed ID>


>  <DOI>


$$$$
2036127
Actelion Java MolfileCreator 1.0

 63 70  0  0  0  0  0  0  0  0999 V2000
    0.0000   -0.0000   -0.0000 O   0  0  0  0  0  0  0  0  0  0  0  0
   -0.0122    1.2534   -0.0000 C   0  0  0  0  0  0  0  0  0  0  0  0
    1.3142    2.0322   -0.0000 N   0  0  0  0  0  0  0  0  0  0  0  0
   -1.3629    2.0322   -0.0000 C   0  0  0  0  0  0  0  0  0  0  0  0
    1.3021    3.5898   -0.0000 C   0  0  0  0  0  0  0  0  0  0  0  0
    2.6406    1.2777   -0.0000 C   0  0  0  0  0  0  0  0  0  0  0  0
   -1.3751    3.5898   -0.0000 N   0  0  0  0  0  0  0  0  0  0  0  0
   -2.7136    1.2656   -0.0000 C   0  0  0  0  0  0  0  0  0  0  0  0
   -0.0487    4.3686   -0.0000 C   0  0  0  0  0  0  0  0  0  0  0  0
    3.9670    2.0687   -0.0000 C   0  0  0  0  0  0  0  0  0  0  0  0
   -2.7258    4.3686   -0.0000 C   0  0  0  0  0  0  0  0  0  0  0  0
   -2.7258   -0.2677   -0.0000 C   0  0  0  0  0  0  0  0  0  0  0  0
   -0.0608    5.9262   -0.0000 N   0  0  0  0  0  0  0  0  0  0  0  0
    5.2934    1.3142   -0.0000 C   0  0  0  0  0  0  0  0  0  0  0  0
    3.9549    3.6263   -0.0000 C   0  0  0  0  0  0  0  0  0  0  0  0
   -3.8088    3.7602   -0.0000 O   0  0  0  0  0  0  0  0  0  0  0  0
   -2.7380    5.9262   -0.0000 C   0  0  0  0  0  0  0  0  0  0  0  0
   -4.0766   -1.0343   -0.0000 C   0  0  0  0  0  0  0  0  0  0  0  0
   -1.3994   -1.0222   -0.0000 C   0  0  0  0  0  0  0  0  0  0  0  0
   -1.4116    6.7050   -0.0000 N   0  0  0  0  0  0  0  0  0  0  0  0
    1.2656    6.7172   -0.0000 C   0  0  0  0  0  0  0  0  0  0  0  0
    5.6098   -0.1825   -0.0000 N   0  0  0  0  0  0  0  0  0  0  0  0
    6.6198    2.1052   -0.0000 C   0  0  0  0  0  0  0  0  0  0  0  0
    5.2813    4.4173   -0.0000 C   0  0  0  0  0  0  0  0  0  0  0  0
   -4.0887   -2.5676   -0.0000 C   0  0  0  0  0  0  0  0  0  0  0  0
   -1.4116   -2.5555   -0.0000 C   0  0  0  0  0  0  0  0  0  0  0  0
   -1.4238    8.2626   -0.0000 C   0  0  0  0  0  0  0  0  0  0  0  0
    2.3242    6.1087   -0.0000 O   0  0  0  0  0  0  0  0  0  0  0  0
    1.2534    8.2748   -0.0000 N   0  0  0  0  0  0  0  0  0  0  0  0
    7.1309   -0.3286   -0.0000 C   0  0  0  0  0  0  0  0  0  0  0  0
    4.7702   -1.0952   -0.0000 C   0  0  0  0  0  0  0  0  0  0  0  0
    7.7637    1.0830   -0.0000 C   0  0  0  0  0  0  0  0  0  0  0  0
    6.6077    3.6628   -0.0000 C   0  0  0  0  0  0  0  0  0  0  0  0
   -2.7623   -3.3221   -0.0000 C   0  0  0  0  0  0  0  0  0  0  0  0
   -2.7745    9.0414   -0.0000 C   0  0  0  0  0  0  0  0  0  0  0  0
    2.5798    9.0658   -0.0000 C   0  0  0  0  0  0  0  0  0  0  0  0
    9.2605    1.4238   -0.0000 C   0  0  0  0  0  0  0  0  0  0  0  0
   -2.7745   -4.5511   -0.0000 O   0  0  0  0  0  0  0  0  0  0  0  0
   -2.7867   10.2948   -0.0000 C   0  0  0  0  0  0  0  0  0  0  0  0
    2.5676   10.6234   -0.0000 C   0  0  0  0  0  0  0  0  0  0  0  0
    9.6255    2.6163   -0.0000 O   0  0  0  0  0  0  0  0  0  0  0  0
   10.2827    0.2921   -0.0000 N   0  0  0  0  0  0  0  0  0  0  0  0
    3.8940   11.4144   -0.0000 C   0  0  0  0  0  0  0  0  0  0  0  0
    1.2169   11.4022   -0.0000 C   0  0  0  0  0  0  0  0  0  0  0  0
   11.7794    0.6328   -0.0000 C   0  0  0  0  0  0  0  0  0  0  0  0
    3.8819   12.9720   -0.0000 C   0  0  0  0  0  0  0  0  0  0  0  0
    1.2047   12.9598   -0.0000 C   0  0  0  0  0  0  0  0  0  0  0  0
   12.2418    2.1174   -0.0000 C   0  0  0  0  0  0  0  0  0  0  0  0
   12.8016   -0.4989   -0.0000 C   0  0  0  0  0  0  0  0  0  0  0  0
    2.5311   13.7508   -0.0000 C   0  0  0  0  0  0  0  0  0  0  0  0
   13.7386    2.4581   -0.0000 N   0  0  0  0  0  0  0  0  0  0  0  0
   14.2984   -0.1582   -0.0000 C   0  0  0  0  0  0  0  0  0  0  0  0
   14.7608    1.3264   -0.0000 C   0  0  0  0  0  0  0  0  0  0  0  0
   16.2575    1.6671   -0.0000 N   0  0  0  0  0  0  0  0  0  0  0  0
   17.2797    0.5354   -0.0000 C   0  0  0  0  0  0  0  0  0  0  0  0
   16.7200    3.1517   -0.0000 C   0  0  0  0  0  0  0  0  0  0  0  0
   18.7765    0.8762   -0.0000 C   0  0  0  0  0  0  0  0  0  0  0  0
   18.2167    3.4925   -0.0000 C   0  0  0  0  0  0  0  0  0  0  0  0
   19.2389    2.3608   -0.0000 N   0  0  0  0  0  0  0  0  0  0  0  0
   20.7357    2.7015   -0.0000 C   0  0  0  0  0  0  0  0  0  0  0  0
   21.5510    1.8010   -0.0000 C   0  0  0  0  0  0  0  0  0  0  0  0
   21.1007    3.8940   -0.0000 C   0  0  0  0  0  0  0  0  0  0  0  0
   21.9282    2.9814   -0.0000 C   0  0  0  0  0  0  0  0  0  0  0  0
  1  2  2  0  0  0  0
  2  3  1  0  0  0  0
  2  4  1  0  0  0  0
  3  5  1  0  0  0  0
  3  6  1  0  0  0  0
  4  7  1  0  0  0  0
  4  8  1  0  0  0  0
  5  9  1  0  0  0  0
  6 10  1  0  0  0  0
  7 11  1  0  0  0  0
  8 12  1  0  0  0  0
  9 13  1  0  0  0  0
 10 14  2  0  0  0  0
 10 15  1  0  0  0  0
 11 16  2  0  0  0  0
 11 17  1  0  0  0  0
 12 18  2  0  0  0  0
 12 19  1  0  0  0  0
 13 20  1  0  0  0  0
 13 21  1  0  0  0  0
 14 22  1  0  0  0  0
 14 23  1  0  0  0  0
 15 24  2  0  0  0  0
 18 25  1  0  0  0  0
 19 26  2  0  0  0  0
 20 27  1  0  0  0  0
 21 28  2  0  0  0  0
 21 29  1  0  0  0  0
 22 30  1  0  0  0  0
 22 31  1  0  0  0  0
 23 32  1  0  0  0  0
 23 33  2  0  0  0  0
 25 34  2  0  0  0  0
 27 35  1  0  0  0  0
 29 36  1  0  0  0  0
 32 37  1  0  0  0  0
 34 38  1  0  0  0  0
 35 39  2  0  0  0  0
 36 40  1  0  0  0  0
 37 41  2  0  0  0  0
 37 42  1  0  0  0  0
 40 43  2  0  0  0  0
 40 44  1  0  0  0  0
 42 45  1  0  0  0  0
 43 46  1  0  0  0  0
 44 47  2  0  0  0  0
 45 48  2  0  0  0  0
 45 49  1  0  0  0  0
 46 50  2  0  0  0  0
 48 51  1  0  0  0  0
 49 52  2  0  0  0  0
 51 53  2  0  0  0  0
 53 54  1  0  0  0  0
 54 55  1  0  0  0  0
 54 56  1  0  0  0  0
 55 57  1  0  0  0  0
 56 58  1  0  0  0  0
 57 59  1  0  0  0  0
 59 60  1  0  0  0  0
 60 61  1  0  0  0  0
 60 62  1  0  0  0  0
 60 63  1  0  0  0  0
  7  9  1  0  0  0  0
 17 20  1  0  0  0  0
 24 33  1  0  0  0  0
 26 34  1  0  0  0  0
 30 32  2  0  0  0  0
 47 50  1  0  0  0  0
 52 53  1  0  0  0  0
 58 59  1  0  0  0  0
M  END
>  <MolRegNo>
2036127

>  <m>
=

>  <Value>
4190

>  <Unit>
nM

>  <Type>
IC50

>  <pValue>
5.38

>  <Ligand Efficiency>
0.12

>  <Binding Efficiency>
6.3

>  <Surface Efficiency>
3.59

>  <Assay Index>
974120

>  <Assay Category>


>  <Assay Organism>
Homo sapiens

>  <Target ID>
17045

>  <Target Name>
Cytochrome P450 3A4

>  <Target Organism>
Homo sapiens

>  <Target Description>
Target is a single protein chain

>  <Sequence Accession>
P08684

>  <Reference>


>  <Pubmed ID>


>  <DOI>


$$$$
2036128
Actelion Java MolfileCreator 1.0

 62 70  0  0  0  0  0  0  0  0999 V2000
    0.0000   -0.0000   -0.0000 O   0  0  0  0  0  0  0  0  0  0  0  0
   -0.0121    1.2443   -0.0000 C   0  0  0  0  0  0  0  0  0  0  0  0
    1.3047    2.0175   -0.0000 N   0  0  0  0  0  0  0  0  0  0  0  0
   -1.3531    2.0175   -0.0000 C   0  0  0  0  0  0  0  0  0  0  0  0
    1.2927    3.5639   -0.0000 C   0  0  0  0  0  0  0  0  0  0  0  0
    2.6216    1.2685   -0.0000 C   0  0  0  0  0  0  0  0  0  0  0  0
   -1.3652    3.5639   -0.0000 N   0  0  0  0  0  0  0  0  0  0  0  0
   -2.6941    1.2564   -0.0000 C   0  0  0  0  0  0  0  0  0  0  0  0
   -0.0483    4.3371   -0.0000 C   0  0  0  0  0  0  0  0  0  0  0  0
    3.9384    2.0538   -0.0000 C   0  0  0  0  0  0  0  0  0  0  0  0
   -2.7061    4.3371   -0.0000 C   0  0  0  0  0  0  0  0  0  0  0  0
   -2.7061   -0.2658   -0.0000 C   0  0  0  0  0  0  0  0  0  0  0  0
   -0.0604    5.8834   -0.0000 N   0  0  0  0  0  0  0  0  0  0  0  0
    5.2552    1.3047   -0.0000 C   0  0  0  0  0  0  0  0  0  0  0  0
    3.9263    3.6001   -0.0000 C   0  0  0  0  0  0  0  0  0  0  0  0
   -3.7813    3.7330   -0.0000 O   0  0  0  0  0  0  0  0  0  0  0  0
   -2.7182    5.8834   -0.0000 C   0  0  0  0  0  0  0  0  0  0  0  0
   -4.0471   -1.0269   -0.0000 C   0  0  0  0  0  0  0  0  0  0  0  0
   -1.3893   -1.0148   -0.0000 C   0  0  0  0  0  0  0  0  0  0  0  0
   -1.4014    6.6566   -0.0000 N   0  0  0  0  0  0  0  0  0  0  0  0
    1.2564    6.6687   -0.0000 C   0  0  0  0  0  0  0  0  0  0  0  0
    5.5693   -0.1812   -0.0000 N   0  0  0  0  0  0  0  0  0  0  0  0
    6.5721    2.0900   -0.0000 C   0  0  0  0  0  0  0  0  0  0  0  0
    5.2431    4.3854   -0.0000 C   0  0  0  0  0  0  0  0  0  0  0  0
   -4.0592   -2.5491   -0.0000 C   0  0  0  0  0  0  0  0  0  0  0  0
   -1.4014   -2.5370   -0.0000 C   0  0  0  0  0  0  0  0  0  0  0  0
   -1.4135    8.2030   -0.0000 C   0  0  0  0  0  0  0  0  0  0  0  0
    2.3075    6.0647   -0.0000 O   0  0  0  0  0  0  0  0  0  0  0  0
    1.2443    8.2151   -0.0000 N   0  0  0  0  0  0  0  0  0  0  0  0
    7.0795   -0.3262   -0.0000 C   0  0  0  0  0  0  0  0  0  0  0  0
    4.7357   -1.0873   -0.0000 C   0  0  0  0  0  0  0  0  0  0  0  0
    7.7077    1.0752   -0.0000 C   0  0  0  0  0  0  0  0  0  0  0  0
    6.5600    3.6364   -0.0000 C   0  0  0  0  0  0  0  0  0  0  0  0
   -2.7424   -3.2981   -0.0000 C   0  0  0  0  0  0  0  0  0  0  0  0
   -2.7545    8.9762   -0.0000 C   0  0  0  0  0  0  0  0  0  0  0  0
    2.5612    9.0003   -0.0000 C   0  0  0  0  0  0  0  0  0  0  0  0
    9.1936    1.4135   -0.0000 C   0  0  0  0  0  0  0  0  0  0  0  0
   -2.7545   -4.5183   -0.0000 O   0  0  0  0  0  0  0  0  0  0  0  0
   -2.7665   10.2205   -0.0000 C   0  0  0  0  0  0  0  0  0  0  0  0
    2.5491   10.5467   -0.0000 C   0  0  0  0  0  0  0  0  0  0  0  0
    9.5561    2.5974   -0.0000 O   0  0  0  0  0  0  0  0  0  0  0  0
   10.2084    0.2899   -0.0000 N   0  0  0  0  0  0  0  0  0  0  0  0
    3.8659   11.3320   -0.0000 C   0  0  0  0  0  0  0  0  0  0  0  0
    1.2081   11.3199   -0.0000 C   0  0  0  0  0  0  0  0  0  0  0  0
   11.6944    0.6282   -0.0000 C   0  0  0  0  0  0  0  0  0  0  0  0
    3.8538   12.8783   -0.0000 C   0  0  0  0  0  0  0  0  0  0  0  0
    1.1960   12.8662   -0.0000 C   0  0  0  0  0  0  0  0  0  0  0  0
   12.1535    2.1021   -0.0000 C   0  0  0  0  0  0  0  0  0  0  0  0
   12.7092   -0.4953   -0.0000 C   0  0  0  0  0  0  0  0  0  0  0  0
    2.5128   13.6515   -0.0000 C   0  0  0  0  0  0  0  0  0  0  0  0
   13.6394    2.4404   -0.0000 N   0  0  0  0  0  0  0  0  0  0  0  0
   14.1952   -0.1571   -0.0000 C   0  0  0  0  0  0  0  0  0  0  0  0
   14.6542    1.3168   -0.0000 C   0  0  0  0  0  0  0  0  0  0  0  0
   16.1402    1.6551   -0.0000 N   0  0  0  0  0  0  0  0  0  0  0  0
   17.1550    0.5316   -0.0000 C   0  0  0  0  0  0  0  0  0  0  0  0
   16.5993    3.1290   -0.0000 C   0  0  0  0  0  0  0  0  0  0  0  0
   18.6410    0.8698   -0.0000 C   0  0  0  0  0  0  0  0  0  0  0  0
   18.0852    3.4672   -0.0000 C   0  0  0  0  0  0  0  0  0  0  0  0
   19.1000    2.3437   -0.0000 N   0  0  0  0  0  0  0  0  0  0  0  0
   20.5860    2.6820   -0.0000 C   0  0  0  0  0  0  0  0  0  0  0  0
   21.9391    2.2108   -0.0000 C   0  0  0  0  0  0  0  0  0  0  0  0
   21.6129    3.7089   -0.0000 C   0  0  0  0  0  0  0  0  0  0  0  0
  1  2  2  0  0  0  0
  2  3  1  0  0  0  0
  2  4  1  0  0  0  0
  3  5  1  0  0  0  0
  3  6  1  0  0  0  0
  4  7  1  0  0  0  0
  4  8  1  0  0  0  0
  5  9  1  0  0  0  0
  6 10  1  0  0  0  0
  7 11  1  0  0  0  0
  8 12  1  0  0  0  0
  9 13  1  0  0  0  0
 10 14  2  0  0  0  0
 10 15  1  0  0  0  0
 11 16  2  0  0  0  0
 11 17  1  0  0  0  0
 12 18  2  0  0  0  0
 12 19  1  0  0  0  0
 13 20  1  0  0  0  0
 13 21  1  0  0  0  0
 14 22  1  0  0  0  0
 14 23  1  0  0  0  0
 15 24  2  0  0  0  0
 18 25  1  0  0  0  0
 19 26  2  0  0  0  0
 20 27  1  0  0  0  0
 21 28  2  0  0  0  0
 21 29  1  0  0  0  0
 22 30  1  0  0  0  0
 22 31  1  0  0  0  0
 23 32  1  0  0  0  0
 23 33  2  0  0  0  0
 25 34  2  0  0  0  0
 27 35  1  0  0  0  0
 29 36  1  0  0  0  0
 32 37  1  0  0  0  0
 34 38  1  0  0  0  0
 35 39  2  0  0  0  0
 36 40  1  0  0  0  0
 37 41  2  0  0  0  0
 37 42  1  0  0  0  0
 40 43  2  0  0  0  0
 40 44  1  0  0  0  0
 42 45  1  0  0  0  0
 43 46  1  0  0  0  0
 44 47  2  0  0  0  0
 45 48  2  0  0  0  0
 45 49  1  0  0  0  0
 46 50  2  0  0  0  0
 48 51  1  0  0  0  0
 49 52  2  0  0  0  0
 51 53  2  0  0  0  0
 53 54  1  0  0  0  0
 54 55  1  0  0  0  0
 54 56  1  0  0  0  0
 55 57  1  0  0  0  0
 56 58  1  0  0  0  0
 57 59  1  0  0  0  0
 59 60  1  0  0  0  0
 60 61  1  0  0  0  0
 60 62  1  0  0  0  0
  7  9  1  0  0  0  0
 17 20  1  0  0  0  0
 24 33  1  0  0  0  0
 26 34  1  0  0  0  0
 30 32  2  0  0  0  0
 47 50  1  0  0  0  0
 52 53  1  0  0  0  0
 58 59  1  0  0  0  0
 61 62  1  0  0  0  0
M  END
>  <MolRegNo>
2036128

>  <m>
=

>  <Value>
6940

>  <Unit>
nM

>  <Type>
IC50

>  <pValue>
5.16

>  <Ligand Efficiency>
0.11

>  <Binding Efficiency>
6.16

>  <Surface Efficiency>
3.44

>  <Assay Index>
974120

>  <Assay Category>


>  <Assay Organism>
Homo sapiens

>  <Target ID>
17045

>  <Target Name>
Cytochrome P450 3A4

>  <Target Organism>
Homo sapiens

>  <Target Description>
Target is a single protein chain

>  <Sequence Accession>
P08684

>  <Reference>


>  <Pubmed ID>


>  <DOI>


$$$$
2036129
Actelion Java MolfileCreator 1.0

 64 72  0  0  1  0  0  0  0  0999 V2000
    0.0000   -0.0000   -0.0000 O   0  0  0  0  0  0  0  0  0  0  0  0
   -0.0120    1.2402   -0.0000 C   0  0  0  0  0  0  0  0  0  0  0  0
    1.3004    2.0108   -0.0000 N   0  0  0  0  0  0  0  0  0  0  0  0
   -1.3485    2.0108   -0.0000 C   0  0  0  0  0  0  0  0  0  0  0  0
    1.2883    3.5519   -0.0000 C   0  0  0  0  0  0  0  0  0  0  0  0
    2.6128    1.2642   -0.0000 C   0  0  0  0  0  0  0  0  0  0  0  0
   -1.3606    3.5519   -0.0000 N   0  0  0  0  0  0  0  0  0  0  0  0
   -2.6850    1.2642   -0.0000 C   0  0  0  0  0  0  0  0  0  0  0  0
   -0.0482    4.3225   -0.0000 C   0  0  0  0  0  0  0  0  0  0  0  0
    3.9252    2.0469   -0.0000 C   0  0  0  0  0  0  0  0  0  0  0  0
   -2.6971    4.3225   -0.0000 C   0  0  0  0  0  0  0  0  0  0  0  0
   -4.0215    2.0469   -0.0000 C   0  0  0  0  0  0  0  0  0  0  0  0
   -0.0602    5.8637   -0.0000 N   0  0  0  0  0  0  0  0  0  0  0  0
    5.2376    1.3004   -0.0000 C   0  0  0  0  0  0  0  0  0  0  0  0
    3.9131    3.5880   -0.0000 C   0  0  0  0  0  0  0  0  0  0  0  0
   -3.7687    3.7205   -0.0000 O   0  0  0  0  0  0  0  0  0  0  0  0
   -2.7091    5.8637   -0.0000 C   0  0  0  0  0  0  0  0  0  0  0  0
   -5.3580    1.3004   -0.0000 C   0  0  0  0  0  0  0  0  0  0  0  0
   -4.0335    3.5880   -0.0000 C   0  0  0  0  0  0  0  0  0  0  0  0
   -1.3967    6.6343   -0.0000 N   0  0  0  0  0  0  0  0  0  0  0  0
    1.2522    6.6463   -0.0000 C   0  0  0  0  0  0  0  0  0  0  0  0
    5.5506   -0.1806   -0.0000 N   0  0  0  0  0  0  0  0  0  0  0  0
    6.5500    2.0830   -0.0000 C   0  0  0  0  0  0  0  0  0  0  0  0
    5.2255    4.3707   -0.0000 C   0  0  0  0  0  0  0  0  0  0  0  0
   -6.6945    2.0830   -0.0000 C   0  0  0  0  0  0  0  0  0  0  0  0
   -5.3700    4.3707   -0.0000 C   0  0  0  0  0  0  0  0  0  0  0  0
   -1.4087    8.1754   -0.0000 C   0  0  0  0  0  0  0  0  0  0  0  0
    2.2997    6.0443   -0.0000 O   0  0  0  0  0  0  0  0  0  0  0  0
    1.2402    8.1875   -0.0000 N   0  0  0  0  0  0  0  0  0  0  0  0
    7.0557   -0.3251   -0.0000 C   0  0  0  0  0  0  0  0  0  0  0  0
    4.7198   -1.0836   -0.0000 C   0  0  0  0  0  0  0  0  0  0  0  0
    7.6818    1.0716   -0.0000 C   0  0  0  0  0  0  0  0  0  0  0  0
    6.5379    3.6242   -0.0000 C   0  0  0  0  0  0  0  0  0  0  0  0
   -6.7065    3.6242   -0.0000 C   0  0  0  0  0  0  0  0  0  0  0  0
   -2.7452    8.9460   -0.0000 C   0  0  0  0  0  0  0  0  0  0  0  0
    2.5526    8.9701   -0.0000 C   0  0  0  0  0  0  0  0  0  0  0  0
    9.1628    1.4087   -0.0000 C   0  0  0  0  0  0  0  0  0  0  0  0
   -7.7781    4.2503   -0.0000 O   0  0  0  0  0  0  0  0  0  0  0  0
   -2.7573   10.1862   -0.0000 C   0  0  0  0  0  0  0  0  0  0  0  0
    2.5405   10.5113   -0.0000 C   0  0  0  0  0  0  0  0  0  0  0  0
    9.5240    2.5887   -0.0000 O   0  0  0  0  0  0  0  0  0  0  0  0
   10.1742    0.2890   -0.0000 N   0  0  0  0  0  0  0  0  0  0  0  0
    3.8529   11.2939   -0.0000 C   0  0  0  0  0  0  0  0  0  0  0  0
    1.2040   11.2819   -0.0000 C   0  0  0  0  0  0  0  0  0  0  0  0
   11.6551    0.6261   -0.0000 C   0  0  0  0  0  0  0  0  0  0  0  0
    3.8409   12.8351   -0.0000 C   0  0  0  0  0  0  0  0  0  0  0  0
    1.1920   12.8230   -0.0000 C   0  0  0  0  0  0  0  0  0  0  0  0
   12.1127    2.0950   -0.0000 C   0  0  0  0  0  0  0  0  0  0  0  0
   12.6665   -0.4937   -0.0000 C   0  0  0  0  0  0  0  0  0  0  0  0
    2.5044   13.6057   -0.0000 C   0  0  0  0  0  0  0  0  0  0  0  0
   13.5936    2.4322   -0.0000 N   0  0  0  0  0  0  0  0  0  0  0  0
   14.1475   -0.1565   -0.0000 C   0  0  0  0  0  0  0  0  0  0  0  0
   14.6050    1.3124   -0.0000 C   0  0  0  0  0  0  0  0  0  0  0  0
   16.0860    1.6495   -0.0000 N   0  0  0  0  0  0  0  0  0  0  0  0
   17.0974    0.5298   -0.0000 C   0  0  0  0  0  0  0  0  0  0  0  0
   16.5435    3.1185   -0.0000 C   0  0  0  0  0  0  0  0  0  0  0  0
   18.5784    0.8669   -0.0000 C   0  0  0  0  0  0  0  0  0  0  0  0
   18.0245    3.4556   -0.0000 C   0  0  0  0  0  0  0  0  0  0  0  0
   19.0359    2.3358   -0.0000 N   0  0  0  0  0  0  0  0  0  0  0  0
   20.5169    2.6730   -0.0000 C   0  0  0  0  0  0  0  0  0  0  0  0
   21.6246    1.6616   -0.0000 C   0  0  0  0  0  0  0  0  0  0  0  0
   21.0948    4.0817   -0.0000 C   0  0  0  0  0  0  0  0  0  0  0  0
   22.9250    2.4442   -0.0000 C   0  0  0  0  0  0  0  0  0  0  0  0
   22.5999    3.9493   -0.0000 C   0  0  0  0  0  0  0  0  0  0  0  0
  1  2  2  0  0  0  0
  2  3  1  0  0  0  0
  2  4  1  0  0  0  0
  3  5  1  0  0  0  0
  3  6  1  0  0  0  0
  4  7  1  0  0  0  0
  4  8  1  6  0  0  0
  5  9  1  0  0  0  0
  6 10  1  0  0  0  0
  7 11  1  0  0  0  0
  8 12  1  0  0  0  0
  9 13  1  1  0  0  0
 10 14  2  0  0  0  0
 10 15  1  0  0  0  0
 11 16  2  0  0  0  0
 11 17  1  0  0  0  0
 12 18  2  0  0  0  0
 12 19  1  0  0  0  0
 13 20  1  0  0  0  0
 13 21  1  0  0  0  0
 14 22  1  0  0  0  0
 14 23  1  0  0  0  0
 15 24  2  0  0  0  0
 18 25  1  0  0  0  0
 19 26  2  0  0  0  0
 20 27  1  0  0  0  0
 21 28  2  0  0  0  0
 21 29  1  0  0  0  0
 22 30  1  0  0  0  0
 22 31  1  0  0  0  0
 23 32  1  0  0  0  0
 23 33  2  0  0  0  0
 25 34  2  0  0  0  0
 27 35  1  0  0  0  0
 29 36  1  0  0  0  0
 32 37  1  0  0  0  0
 34 38  1  0  0  0  0
 35 39  2  0  0  0  0
 36 40  1  0  0  0  0
 37 41  2  0  0  0  0
 37 42  1  0  0  0  0
 40 43  2  0  0  0  0
 40 44  1  0  0  0  0
 42 45  1  0  0  0  0
 43 46  1  0  0  0  0
 44 47  2  0  0  0  0
 45 48  2  0  0  0  0
 45 49  1  0  0  0  0
 46 50  2  0  0  0  0
 48 51  1  0  0  0  0
 49 52  2  0  0  0  0
 51 53  2  0  0  0  0
 53 54  1  0  0  0  0
 54 55  1  0  0  0  0
 54 56  1  0  0  0  0
 55 57  1  0  0  0  0
 56 58  1  0  0  0  0
 57 59  1  0  0  0  0
 59 60  1  0  0  0  0
 60 61  1  0  0  0  0
 60 62  1  0  0  0  0
 61 63  1  0  0  0  0
 62 64  1  0  0  0  0
  7  9  1  0  0  0  0
 17 20  1  0  0  0  0
 24 33  1  0  0  0  0
 26 34  1  0  0  0  0
 30 32  2  0  0  0  0
 47 50  1  0  0  0  0
 52 53  1  0  0  0  0
 58 59  1  0  0  0  0
 63 64  1  0  0  0  0
M  END
>  <MolRegNo>
2036129

>  <m>
=

>  <Value>
17240

>  <Unit>
nM

>  <Type>
IC50

>  <pValue>
4.76

>  <Ligand Efficiency>
0.1

>  <Binding Efficiency>
5.51

>  <Surface Efficiency>
3.18

>  <Assay Index>
974120

>  <Assay Category>


>  <Assay Organism>
Homo sapiens

>  <Target ID>
17045

>  <Target Name>
Cytochrome P450 3A4

>  <Target Organism>
Homo sapiens

>  <Target Description>
Target is a single protein chain

>  <Sequence Accession>
P08684

>  <Reference>


>  <Pubmed ID>


>  <DOI>


$$$$
2036130
Actelion Java MolfileCreator 1.0

 64 72  0  0  0  0  0  0  0  0999 V2000
    0.0000   -0.0000   -0.0000 O   0  0  0  0  0  0  0  0  0  0  0  0
   -0.0121    1.2421   -0.0000 C   0  0  0  0  0  0  0  0  0  0  0  0
    1.3024    2.0138   -0.0000 N   0  0  0  0  0  0  0  0  0  0  0  0
   -1.3506    2.0138   -0.0000 C   0  0  0  0  0  0  0  0  0  0  0  0
    1.2903    3.5574   -0.0000 C   0  0  0  0  0  0  0  0  0  0  0  0
    2.6168    1.2662   -0.0000 C   0  0  0  0  0  0  0  0  0  0  0  0
   -1.3626    3.5574   -0.0000 N   0  0  0  0  0  0  0  0  0  0  0  0
   -2.6891    1.2541   -0.0000 C   0  0  0  0  0  0  0  0  0  0  0  0
   -0.0482    4.3291   -0.0000 C   0  0  0  0  0  0  0  0  0  0  0  0
    3.9312    2.0500   -0.0000 C   0  0  0  0  0  0  0  0  0  0  0  0
   -2.7012    4.3291   -0.0000 C   0  0  0  0  0  0  0  0  0  0  0  0
   -2.7012   -0.2653   -0.0000 C   0  0  0  0  0  0  0  0  0  0  0  0
   -0.0603    5.8726   -0.0000 N   0  0  0  0  0  0  0  0  0  0  0  0
    5.2456    1.3024   -0.0000 C   0  0  0  0  0  0  0  0  0  0  0  0
    3.9191    3.5935   -0.0000 C   0  0  0  0  0  0  0  0  0  0  0  0
   -3.7744    3.7262   -0.0000 O   0  0  0  0  0  0  0  0  0  0  0  0
   -2.7132    5.8726   -0.0000 C   0  0  0  0  0  0  0  0  0  0  0  0
   -4.0397   -1.0250   -0.0000 C   0  0  0  0  0  0  0  0  0  0  0  0
   -1.3868   -1.0129   -0.0000 C   0  0  0  0  0  0  0  0  0  0  0  0
   -1.3988    6.6444   -0.0000 N   0  0  0  0  0  0  0  0  0  0  0  0
    1.2541    6.6565   -0.0000 C   0  0  0  0  0  0  0  0  0  0  0  0
    5.5591   -0.1809   -0.0000 N   0  0  0  0  0  0  0  0  0  0  0  0
    6.5600    2.0862   -0.0000 C   0  0  0  0  0  0  0  0  0  0  0  0
    5.2335    4.3774   -0.0000 C   0  0  0  0  0  0  0  0  0  0  0  0
   -4.0518   -2.5444   -0.0000 C   0  0  0  0  0  0  0  0  0  0  0  0
   -1.3988   -2.5324   -0.0000 C   0  0  0  0  0  0  0  0  0  0  0  0
   -1.4109    8.1879   -0.0000 C   0  0  0  0  0  0  0  0  0  0  0  0
    2.3032    6.0535   -0.0000 O   0  0  0  0  0  0  0  0  0  0  0  0
    1.2421    8.2000   -0.0000 N   0  0  0  0  0  0  0  0  0  0  0  0
    7.0665   -0.3256   -0.0000 C   0  0  0  0  0  0  0  0  0  0  0  0
    4.7271   -1.0853   -0.0000 C   0  0  0  0  0  0  0  0  0  0  0  0
    7.6935    1.0732   -0.0000 C   0  0  0  0  0  0  0  0  0  0  0  0
    6.5479    3.6297   -0.0000 C   0  0  0  0  0  0  0  0  0  0  0  0
   -2.7374   -3.2921   -0.0000 C   0  0  0  0  0  0  0  0  0  0  0  0
   -2.7494    8.9597   -0.0000 C   0  0  0  0  0  0  0  0  0  0  0  0
    2.5565    8.9838   -0.0000 C   0  0  0  0  0  0  0  0  0  0  0  0
    9.1768    1.4109   -0.0000 C   0  0  0  0  0  0  0  0  0  0  0  0
   -2.7494   -4.5100   -0.0000 O   0  0  0  0  0  0  0  0  0  0  0  0
   -2.7615   10.2018   -0.0000 C   0  0  0  0  0  0  0  0  0  0  0  0
    2.5444   10.5274   -0.0000 C   0  0  0  0  0  0  0  0  0  0  0  0
    9.5385    2.5926   -0.0000 O   0  0  0  0  0  0  0  0  0  0  0  0
   10.1897    0.2894   -0.0000 N   0  0  0  0  0  0  0  0  0  0  0  0
    3.8588   11.3112   -0.0000 C   0  0  0  0  0  0  0  0  0  0  0  0
    1.2059   11.2991   -0.0000 C   0  0  0  0  0  0  0  0  0  0  0  0
   11.6729    0.6271   -0.0000 C   0  0  0  0  0  0  0  0  0  0  0  0
    3.8468   12.8547   -0.0000 C   0  0  0  0  0  0  0  0  0  0  0  0
    1.1938   12.8427   -0.0000 C   0  0  0  0  0  0  0  0  0  0  0  0
   12.1312    2.0982   -0.0000 C   0  0  0  0  0  0  0  0  0  0  0  0
   12.6859   -0.4944   -0.0000 C   0  0  0  0  0  0  0  0  0  0  0  0
    2.5082   13.6265   -0.0000 C   0  0  0  0  0  0  0  0  0  0  0  0
   13.6144    2.4359   -0.0000 N   0  0  0  0  0  0  0  0  0  0  0  0
   14.1691   -0.1568   -0.0000 C   0  0  0  0  0  0  0  0  0  0  0  0
   14.6274    1.3144   -0.0000 C   0  0  0  0  0  0  0  0  0  0  0  0
   16.1106    1.6521   -0.0000 N   0  0  0  0  0  0  0  0  0  0  0  0
   17.1235    0.5306   -0.0000 C   0  0  0  0  0  0  0  0  0  0  0  0
   16.5688    3.1232   -0.0000 C   0  0  0  0  0  0  0  0  0  0  0  0
   18.6068    0.8682   -0.0000 C   0  0  0  0  0  0  0  0  0  0  0  0
   18.0521    3.4609   -0.0000 C   0  0  0  0  0  0  0  0  0  0  0  0
   19.0650    2.3394   -0.0000 C   0  0  0  0  0  0  0  0  0  0  0  0
   20.5482    2.6771   -0.0000 N   0  0  0  0  0  0  0  0  0  0  0  0
   21.6577    1.6641   -0.0000 C   0  0  0  0  0  0  0  0  0  0  0  0
   21.1271    4.0879   -0.0000 C   0  0  0  0  0  0  0  0  0  0  0  0
   22.9600    2.4479   -0.0000 C   0  0  0  0  0  0  0  0  0  0  0  0
   22.6344    3.9553   -0.0000 C   0  0  0  0  0  0  0  0  0  0  0  0
  1  2  2  0  0  0  0
  2  3  1  0  0  0  0
  2  4  1  0  0  0  0
  3  5  1  0  0  0  0
  3  6  1  0  0  0  0
  4  7  1  0  0  0  0
  4  8  1  0  0  0  0
  5  9  1  0  0  0  0
  6 10  1  0  0  0  0
  7 11  1  0  0  0  0
  8 12  1  0  0  0  0
  9 13  1  0  0  0  0
 10 14  2  0  0  0  0
 10 15  1  0  0  0  0
 11 16  2  0  0  0  0
 11 17  1  0  0  0  0
 12 18  2  0  0  0  0
 12 19  1  0  0  0  0
 13 20  1  0  0  0  0
 13 21  1  0  0  0  0
 14 22  1  0  0  0  0
 14 23  1  0  0  0  0
 15 24  2  0  0  0  0
 18 25  1  0  0  0  0
 19 26  2  0  0  0  0
 20 27  1  0  0  0  0
 21 28  2  0  0  0  0
 21 29  1  0  0  0  0
 22 30  1  0  0  0  0
 22 31  1  0  0  0  0
 23 32  1  0  0  0  0
 23 33  2  0  0  0  0
 25 34  2  0  0  0  0
 27 35  1  0  0  0  0
 29 36  1  0  0  0  0
 32 37  1  0  0  0  0
 34 38  1  0  0  0  0
 35 39  2  0  0  0  0
 36 40  1  0  0  0  0
 37 41  2  0  0  0  0
 37 42  1  0  0  0  0
 40 43  2  0  0  0  0
 40 44  1  0  0  0  0
 42 45  1  0  0  0  0
 43 46  1  0  0  0  0
 44 47  2  0  0  0  0
 45 48  2  0  0  0  0
 45 49  1  0  0  0  0
 46 50  2  0  0  0  0
 48 51  1  0  0  0  0
 49 52  2  0  0  0  0
 51 53  2  0  0  0  0
 53 54  1  0  0  0  0
 54 55  1  0  0  0  0
 54 56  1  0  0  0  0
 55 57  1  0  0  0  0
 56 58  1  0  0  0  0
 57 59  1  0  0  0  0
 59 60  1  0  0  0  0
 60 61  1  0  0  0  0
 60 62  1  0  0  0  0
 61 63  1  0  0  0  0
 62 64  1  0  0  0  0
  7  9  1  0  0  0  0
 17 20  1  0  0  0  0
 24 33  1  0  0  0  0
 26 34  1  0  0  0  0
 30 32  2  0  0  0  0
 47 50  1  0  0  0  0
 52 53  1  0  0  0  0
 58 59  1  0  0  0  0
 63 64  1  0  0  0  0
M  END
>  <MolRegNo>
2036130

>  <m>
=

>  <Value>
3970

>  <Unit>
nM

>  <Type>
IC50

>  <pValue>
5.4

>  <Ligand Efficiency>
0.12

>  <Binding Efficiency>
6.24

>  <Surface Efficiency>
3.6

>  <Assay Index>
974120

>  <Assay Category>


>  <Assay Organism>
Homo sapiens

>  <Target ID>
17045

>  <Target Name>
Cytochrome P450 3A4

>  <Target Organism>
Homo sapiens

>  <Target Description>
Target is a single protein chain

>  <Sequence Accession>
P08684

>  <Reference>


>  <Pubmed ID>


>  <DOI>


$$$$
2036131
Actelion Java MolfileCreator 1.0

 65 72  0  0  0  0  0  0  0  0999 V2000
    0.0000   -0.0000   -0.0000 O   0  0  0  0  0  0  0  0  0  0  0  0
   -0.0122    1.2579   -0.0000 C   0  0  0  0  0  0  0  0  0  0  0  0
    1.3190    2.0395   -0.0000 N   0  0  0  0  0  0  0  0  0  0  0  0
   -1.3678    2.0395   -0.0000 C   0  0  0  0  0  0  0  0  0  0  0  0
    1.3068    3.6028   -0.0000 C   0  0  0  0  0  0  0  0  0  0  0  0
    2.6502    1.2823   -0.0000 C   0  0  0  0  0  0  0  0  0  0  0  0
   -1.3800    3.6028   -0.0000 N   0  0  0  0  0  0  0  0  0  0  0  0
   -2.7234    1.2701   -0.0000 C   0  0  0  0  0  0  0  0  0  0  0  0
   -0.0489    4.3844   -0.0000 C   0  0  0  0  0  0  0  0  0  0  0  0
    3.9814    2.0762   -0.0000 C   0  0  0  0  0  0  0  0  0  0  0  0
   -2.7357    4.3844   -0.0000 C   0  0  0  0  0  0  0  0  0  0  0  0
   -2.7357   -0.2687   -0.0000 C   0  0  0  0  0  0  0  0  0  0  0  0
   -0.0611    5.9476   -0.0000 N   0  0  0  0  0  0  0  0  0  0  0  0
    5.3125    1.3190   -0.0000 C   0  0  0  0  0  0  0  0  0  0  0  0
    3.9691    3.6394   -0.0000 C   0  0  0  0  0  0  0  0  0  0  0  0
   -3.8226    3.7737   -0.0000 O   0  0  0  0  0  0  0  0  0  0  0  0
   -2.7479    5.9476   -0.0000 C   0  0  0  0  0  0  0  0  0  0  0  0
   -4.0913   -1.0381   -0.0000 C   0  0  0  0  0  0  0  0  0  0  0  0
   -1.4045   -1.0259   -0.0000 C   0  0  0  0  0  0  0  0  0  0  0  0
   -1.4167    6.7292   -0.0000 N   0  0  0  0  0  0  0  0  0  0  0  0
    1.2701    6.7414   -0.0000 C   0  0  0  0  0  0  0  0  0  0  0  0
    5.6301   -0.1832   -0.0000 N   0  0  0  0  0  0  0  0  0  0  0  0
    6.6437    2.1128   -0.0000 C   0  0  0  0  0  0  0  0  0  0  0  0
    5.3003    4.4332   -0.0000 C   0  0  0  0  0  0  0  0  0  0  0  0
   -4.1035   -2.5769   -0.0000 C   0  0  0  0  0  0  0  0  0  0  0  0
   -1.4167   -2.5647   -0.0000 C   0  0  0  0  0  0  0  0  0  0  0  0
   -1.4289    8.2924   -0.0000 C   0  0  0  0  0  0  0  0  0  0  0  0
    2.3326    6.1308   -0.0000 O   0  0  0  0  0  0  0  0  0  0  0  0
    1.2579    8.3047   -0.0000 N   0  0  0  0  0  0  0  0  0  0  0  0
    7.1567   -0.3297   -0.0000 C   0  0  0  0  0  0  0  0  0  0  0  0
    4.7874   -1.0991   -0.0000 C   0  0  0  0  0  0  0  0  0  0  0  0
    7.7917    1.0869   -0.0000 C   0  0  0  0  0  0  0  0  0  0  0  0
    6.6315    3.6760   -0.0000 C   0  0  0  0  0  0  0  0  0  0  0  0
   -2.7723   -3.3341   -0.0000 C   0  0  0  0  0  0  0  0  0  0  0  0
   -2.7845    9.0741   -0.0000 C   0  0  0  0  0  0  0  0  0  0  0  0
    2.5891    9.0985   -0.0000 C   0  0  0  0  0  0  0  0  0  0  0  0
    9.2939    1.4289   -0.0000 C   0  0  0  0  0  0  0  0  0  0  0  0
   -2.7845   -4.5676   -0.0000 O   0  0  0  0  0  0  0  0  0  0  0  0
   -2.7967   10.3320   -0.0000 C   0  0  0  0  0  0  0  0  0  0  0  0
    2.5769   10.6617   -0.0000 C   0  0  0  0  0  0  0  0  0  0  0  0
    9.6603    2.6257   -0.0000 O   0  0  0  0  0  0  0  0  0  0  0  0
   10.3198    0.2931   -0.0000 N   0  0  0  0  0  0  0  0  0  0  0  0
    3.9081   11.4555   -0.0000 C   0  0  0  0  0  0  0  0  0  0  0  0
    1.2213   11.4433   -0.0000 C   0  0  0  0  0  0  0  0  0  0  0  0
   11.8219    0.6351   -0.0000 C   0  0  0  0  0  0  0  0  0  0  0  0
    3.8959   13.0188   -0.0000 C   0  0  0  0  0  0  0  0  0  0  0  0
    1.2091   13.0066   -0.0000 C   0  0  0  0  0  0  0  0  0  0  0  0
   12.2860    2.1250   -0.0000 C   0  0  0  0  0  0  0  0  0  0  0  0
   12.8478   -0.5007   -0.0000 C   0  0  0  0  0  0  0  0  0  0  0  0
    2.5402   13.8004   -0.0000 C   0  0  0  0  0  0  0  0  0  0  0  0
   13.7882    2.4670   -0.0000 N   0  0  0  0  0  0  0  0  0  0  0  0
   14.3500   -0.1588   -0.0000 C   0  0  0  0  0  0  0  0  0  0  0  0
   14.8140    1.3312   -0.0000 C   0  0  0  0  0  0  0  0  0  0  0  0
   16.3162    1.6731   -0.0000 N   0  0  0  0  0  0  0  0  0  0  0  0
   16.7803    3.1631   -0.0000 C   0  0  0  0  0  0  0  0  0  0  0  0
   18.2825    3.5051   -0.0000 C   0  0  0  0  0  0  0  0  0  0  0  0
   15.7178    4.3233   -0.0000 C   0  0  0  0  0  0  0  0  0  0  0  0
   18.7343    4.9950   -0.0000 C   0  0  0  0  0  0  0  0  0  0  0  0
   16.1697    5.8133   -0.0000 C   0  0  0  0  0  0  0  0  0  0  0  0
   17.6718    6.1552   -0.0000 N   0  0  0  0  0  0  0  0  0  0  0  0
   19.0641    6.1919   -0.0000 C   0  0  0  0  0  0  0  0  0  0  0  0
   19.5404    4.0668   -0.0000 C   0  0  0  0  0  0  0  0  0  0  0  0
   16.5605    6.9979   -0.0000 C   0  0  0  0  0  0  0  0  0  0  0  0
   14.9484    5.5324   -0.0000 C   0  0  0  0  0  0  0  0  0  0  0  0
   18.0382    7.3521   -0.0000 C   0  0  0  0  0  0  0  0  0  0  0  0
  1  2  2  0  0  0  0
  2  3  1  0  0  0  0
  2  4  1  0  0  0  0
  3  5  1  0  0  0  0
  3  6  1  0  0  0  0
  4  7  1  0  0  0  0
  4  8  1  0  0  0  0
  5  9  1  0  0  0  0
  6 10  1  0  0  0  0
  7 11  1  0  0  0  0
  8 12  1  0  0  0  0
  9 13  1  0  0  0  0
 10 14  2  0  0  0  0
 10 15  1  0  0  0  0
 11 16  2  0  0  0  0
 11 17  1  0  0  0  0
 12 18  2  0  0  0  0
 12 19  1  0  0  0  0
 13 20  1  0  0  0  0
 13 21  1  0  0  0  0
 14 22  1  0  0  0  0
 14 23  1  0  0  0  0
 15 24  2  0  0  0  0
 18 25  1  0  0  0  0
 19 26  2  0  0  0  0
 20 27  1  0  0  0  0
 21 28  2  0  0  0  0
 21 29  1  0  0  0  0
 22 30  1  0  0  0  0
 22 31  1  0  0  0  0
 23 32  1  0  0  0  0
 23 33  2  0  0  0  0
 25 34  2  0  0  0  0
 27 35  1  0  0  0  0
 29 36  1  0  0  0  0
 32 37  1  0  0  0  0
 34 38  1  0  0  0  0
 35 39  2  0  0  0  0
 36 40  1  0  0  0  0
 37 41  2  0  0  0  0
 37 42  1  0  0  0  0
 40 43  2  0  0  0  0
 40 44  1  0  0  0  0
 42 45  1  0  0  0  0
 43 46  1  0  0  0  0
 44 47  2  0  0  0  0
 45 48  2  0  0  0  0
 45 49  1  0  0  0  0
 46 50  2  0  0  0  0
 48 51  1  0  0  0  0
 49 52  2  0  0  0  0
 51 53  2  0  0  0  0
 53 54  1  0  0  0  0
 54 55  1  0  0  0  0
 55 56  1  0  0  0  0
 55 57  1  0  0  0  0
 56 58  1  0  0  0  0
 57 59  1  0  0  0  0
 58 60  1  0  0  0  0
 58 61  1  0  0  0  0
 58 62  1  0  0  0  0
 59 63  1  0  0  0  0
 59 64  1  0  0  0  0
 60 65  1  0  0  0  0
  7  9  1  0  0  0  0
 17 20  1  0  0  0  0
 24 33  1  0  0  0  0
 26 34  1  0  0  0  0
 30 32  2  0  0  0  0
 47 50  1  0  0  0  0
 52 53  1  0  0  0  0
 59 60  1  0  0  0  0
M  END
>  <MolRegNo>
2036131

>  <m>
=

>  <Value>
7100

>  <Unit>
nM

>  <Type>
IC50

>  <pValue>
5.15

>  <Ligand Efficiency>
0.11

>  <Binding Efficiency>
5.84

>  <Surface Efficiency>
3.25

>  <Assay Index>
974120

>  <Assay Category>


>  <Assay Organism>
Homo sapiens

>  <Target ID>
17045

>  <Target Name>
Cytochrome P450 3A4

>  <Target Organism>
Homo sapiens

>  <Target Description>
Target is a single protein chain

>  <Sequence Accession>
P08684

>  <Reference>


>  <Pubmed ID>


>  <DOI>


$$$$
2036133
Actelion Java MolfileCreator 1.0

 63 71  0  0  1  0  0  0  0  0999 V2000
    0.0000   -0.0000   -0.0000 O   0  0  0  0  0  0  0  0  0  0  0  0
   -0.0120    1.2411   -0.0000 C   0  0  0  0  0  0  0  0  0  0  0  0
    1.3013    2.0123   -0.0000 N   0  0  0  0  0  0  0  0  0  0  0  0
   -1.3495    2.0123   -0.0000 C   0  0  0  0  0  0  0  0  0  0  0  0
    1.2893    3.5546   -0.0000 C   0  0  0  0  0  0  0  0  0  0  0  0
    2.6147    1.2652   -0.0000 C   0  0  0  0  0  0  0  0  0  0  0  0
   -1.3616    3.5546   -0.0000 N   0  0  0  0  0  0  0  0  0  0  0  0
   -2.6870    1.2652   -0.0000 C   0  0  0  0  0  0  0  0  0  0  0  0
   -0.0482    4.3258   -0.0000 C   0  0  0  0  0  0  0  0  0  0  0  0
    3.9281    2.0484   -0.0000 C   0  0  0  0  0  0  0  0  0  0  0  0
   -2.6991    4.3258   -0.0000 C   0  0  0  0  0  0  0  0  0  0  0  0
   -4.0245    2.0484   -0.0000 C   0  0  0  0  0  0  0  0  0  0  0  0
   -0.0602    5.8681   -0.0000 N   0  0  0  0  0  0  0  0  0  0  0  0
    5.2415    1.3013   -0.0000 C   0  0  0  0  0  0  0  0  0  0  0  0
    3.9161    3.5907   -0.0000 C   0  0  0  0  0  0  0  0  0  0  0  0
   -3.7715    3.7233   -0.0000 O   0  0  0  0  0  0  0  0  0  0  0  0
   -2.7111    5.8681   -0.0000 C   0  0  0  0  0  0  0  0  0  0  0  0
   -5.3620    1.3013   -0.0000 C   0  0  0  0  0  0  0  0  0  0  0  0
   -4.0366    3.5907   -0.0000 C   0  0  0  0  0  0  0  0  0  0  0  0
   -1.3977    6.6392   -0.0000 N   0  0  0  0  0  0  0  0  0  0  0  0
    1.2531    6.6513   -0.0000 C   0  0  0  0  0  0  0  0  0  0  0  0
    5.5548   -0.1807   -0.0000 N   0  0  0  0  0  0  0  0  0  0  0  0
    6.5549    2.0846   -0.0000 C   0  0  0  0  0  0  0  0  0  0  0  0
    5.2295    4.3740   -0.0000 C   0  0  0  0  0  0  0  0  0  0  0  0
   -6.6995    2.0846   -0.0000 C   0  0  0  0  0  0  0  0  0  0  0  0
   -5.3741    4.3740   -0.0000 C   0  0  0  0  0  0  0  0  0  0  0  0
   -1.4098    8.1816   -0.0000 C   0  0  0  0  0  0  0  0  0  0  0  0
    2.3014    6.0488   -0.0000 O   0  0  0  0  0  0  0  0  0  0  0  0
    1.2411    8.1936   -0.0000 N   0  0  0  0  0  0  0  0  0  0  0  0
    7.0610   -0.3253   -0.0000 C   0  0  0  0  0  0  0  0  0  0  0  0
    4.7234   -1.0845   -0.0000 C   0  0  0  0  0  0  0  0  0  0  0  0
    7.6875    1.0724   -0.0000 C   0  0  0  0  0  0  0  0  0  0  0  0
    6.5429    3.6269   -0.0000 C   0  0  0  0  0  0  0  0  0  0  0  0
   -6.7115    3.6269   -0.0000 C   0  0  0  0  0  0  0  0  0  0  0  0
   -2.7473    8.9527   -0.0000 C   0  0  0  0  0  0  0  0  0  0  0  0
    2.5545    8.9768   -0.0000 C   0  0  0  0  0  0  0  0  0  0  0  0
    9.1696    1.4098   -0.0000 C   0  0  0  0  0  0  0  0  0  0  0  0
   -7.7839    4.2535   -0.0000 O   0  0  0  0  0  0  0  0  0  0  0  0
   -2.7593   10.1938   -0.0000 C   0  0  0  0  0  0  0  0  0  0  0  0
    2.5424   10.5192   -0.0000 C   0  0  0  0  0  0  0  0  0  0  0  0
    9.5311    2.5906   -0.0000 O   0  0  0  0  0  0  0  0  0  0  0  0
   10.1818    0.2892   -0.0000 N   0  0  0  0  0  0  0  0  0  0  0  0
    3.8558   11.3024   -0.0000 C   0  0  0  0  0  0  0  0  0  0  0  0
    1.2049   11.2903   -0.0000 C   0  0  0  0  0  0  0  0  0  0  0  0
   11.6639    0.6266   -0.0000 C   0  0  0  0  0  0  0  0  0  0  0  0
    3.8438   12.8447   -0.0000 C   0  0  0  0  0  0  0  0  0  0  0  0
    1.1929   12.8327   -0.0000 C   0  0  0  0  0  0  0  0  0  0  0  0
   12.1217    2.0966   -0.0000 C   0  0  0  0  0  0  0  0  0  0  0  0
   12.6760   -0.4940   -0.0000 C   0  0  0  0  0  0  0  0  0  0  0  0
    2.5063   13.6159   -0.0000 C   0  0  0  0  0  0  0  0  0  0  0  0
   13.6038    2.4340   -0.0000 N   0  0  0  0  0  0  0  0  0  0  0  0
   14.1581   -0.1566   -0.0000 C   0  0  0  0  0  0  0  0  0  0  0  0
   14.6160    1.3134   -0.0000 C   0  0  0  0  0  0  0  0  0  0  0  0
   16.0981    1.6508   -0.0000 N   0  0  0  0  0  0  0  0  0  0  0  0
   17.1102    0.5302   -0.0000 C   0  0  0  0  0  0  0  0  0  0  0  0
   16.5559    3.1208   -0.0000 C   0  0  0  0  0  0  0  0  0  0  0  0
   18.5923    0.8676   -0.0000 C   0  0  0  0  0  0  0  0  0  0  0  0
   18.0380    3.4582   -0.0000 C   0  0  0  0  0  0  0  0  0  0  0  0
   19.0502    2.3376   -0.0000 C   0  0  0  0  0  0  0  0  0  0  0  0
   20.5323    2.6750   -0.0000 N   0  0  0  0  0  0  0  0  0  0  0  0
   21.7613    1.8556   -0.0000 C   0  0  0  0  0  0  0  0  0  0  0  0
   21.2914    3.9643   -0.0000 C   0  0  0  0  0  0  0  0  0  0  0  0
   22.5686    3.1570   -0.0000 C   0  0  0  0  0  0  0  0  0  0  0  0
  1  2  2  0  0  0  0
  2  3  1  0  0  0  0
  2  4  1  0  0  0  0
  3  5  1  0  0  0  0
  3  6  1  0  0  0  0
  4  7  1  0  0  0  0
  4  8  1  6  0  0  0
  5  9  1  0  0  0  0
  6 10  1  0  0  0  0
  7 11  1  0  0  0  0
  8 12  1  0  0  0  0
  9 13  1  1  0  0  0
 10 14  2  0  0  0  0
 10 15  1  0  0  0  0
 11 16  2  0  0  0  0
 11 17  1  0  0  0  0
 12 18  2  0  0  0  0
 12 19  1  0  0  0  0
 13 20  1  0  0  0  0
 13 21  1  0  0  0  0
 14 22  1  0  0  0  0
 14 23  1  0  0  0  0
 15 24  2  0  0  0  0
 18 25  1  0  0  0  0
 19 26  2  0  0  0  0
 20 27  1  0  0  0  0
 21 28  2  0  0  0  0
 21 29  1  0  0  0  0
 22 30  1  0  0  0  0
 22 31  1  0  0  0  0
 23 32  1  0  0  0  0
 23 33  2  0  0  0  0
 25 34  2  0  0  0  0
 27 35  1  0  0  0  0
 29 36  1  0  0  0  0
 32 37  1  0  0  0  0
 34 38  1  0  0  0  0
 35 39  2  0  0  0  0
 36 40  1  0  0  0  0
 37 41  2  0  0  0  0
 37 42  1  0  0  0  0
 40 43  2  0  0  0  0
 40 44  1  0  0  0  0
 42 45  1  0  0  0  0
 43 46  1  0  0  0  0
 44 47  2  0  0  0  0
 45 48  2  0  0  0  0
 45 49  1  0  0  0  0
 46 50  2  0  0  0  0
 48 51  1  0  0  0  0
 49 52  2  0  0  0  0
 51 53  2  0  0  0  0
 53 54  1  0  0  0  0
 54 55  1  0  0  0  0
 54 56  1  0  0  0  0
 55 57  1  0  0  0  0
 56 58  1  0  0  0  0
 57 59  1  0  0  0  0
 59 60  1  0  0  0  0
 60 61  1  0  0  0  0
 60 62  1  0  0  0  0
 61 63  1  0  0  0  0
  7  9  1  0  0  0  0
 17 20  1  0  0  0  0
 24 33  1  0  0  0  0
 26 34  1  0  0  0  0
 30 32  2  0  0  0  0
 47 50  1  0  0  0  0
 52 53  1  0  0  0  0
 58 59  1  0  0  0  0
 62 63  1  0  0  0  0
M  END
>  <MolRegNo>
2036133

>  <m>
=

>  <Value>
3290

>  <Unit>
nM

>  <Type>
IC50

>  <pValue>
5.48

>  <Ligand Efficiency>
0.12

>  <Binding Efficiency>
6.44

>  <Surface Efficiency>
3.66

>  <Assay Index>
974120

>  <Assay Category>


>  <Assay Organism>
Homo sapiens

>  <Target ID>
17045

>  <Target Name>
Cytochrome P450 3A4

>  <Target Organism>
Homo sapiens

>  <Target Description>
Target is a single protein chain

>  <Sequence Accession>
P08684

>  <Reference>


>  <Pubmed ID>


>  <DOI>


$$$$
2036134
Actelion Java MolfileCreator 1.0

 65 73  0  0  0  0  0  0  0  0999 V2000
    0.0000   -0.0000   -0.0000 O   0  0  0  0  0  0  0  0  0  0  0  0
   -0.0121    1.2415   -0.0000 C   0  0  0  0  0  0  0  0  0  0  0  0
    1.3017    2.0128   -0.0000 N   0  0  0  0  0  0  0  0  0  0  0  0
   -1.3499    2.0128   -0.0000 C   0  0  0  0  0  0  0  0  0  0  0  0
    1.2897    3.5556   -0.0000 C   0  0  0  0  0  0  0  0  0  0  0  0
    2.6155    1.2656   -0.0000 C   0  0  0  0  0  0  0  0  0  0  0  0
   -1.3620    3.5556   -0.0000 N   0  0  0  0  0  0  0  0  0  0  0  0
   -2.6878    1.2535   -0.0000 C   0  0  0  0  0  0  0  0  0  0  0  0
   -0.0482    4.3270   -0.0000 C   0  0  0  0  0  0  0  0  0  0  0  0
    3.9293    2.0490   -0.0000 C   0  0  0  0  0  0  0  0  0  0  0  0
   -2.6999    4.3270   -0.0000 C   0  0  0  0  0  0  0  0  0  0  0  0
   -2.6999   -0.2652   -0.0000 C   0  0  0  0  0  0  0  0  0  0  0  0
   -0.0603    5.8698   -0.0000 N   0  0  0  0  0  0  0  0  0  0  0  0
    5.2430    1.3017   -0.0000 C   0  0  0  0  0  0  0  0  0  0  0  0
    3.9172    3.5918   -0.0000 C   0  0  0  0  0  0  0  0  0  0  0  0
   -3.7726    3.7244   -0.0000 O   0  0  0  0  0  0  0  0  0  0  0  0
   -2.7119    5.8698   -0.0000 C   0  0  0  0  0  0  0  0  0  0  0  0
   -4.0378   -1.0245   -0.0000 C   0  0  0  0  0  0  0  0  0  0  0  0
   -1.3861   -1.0125   -0.0000 C   0  0  0  0  0  0  0  0  0  0  0  0
   -1.3981    6.6412   -0.0000 N   0  0  0  0  0  0  0  0  0  0  0  0
    1.2535    6.6532   -0.0000 C   0  0  0  0  0  0  0  0  0  0  0  0
    5.5564   -0.1808   -0.0000 N   0  0  0  0  0  0  0  0  0  0  0  0
    6.5568    2.0852   -0.0000 C   0  0  0  0  0  0  0  0  0  0  0  0
    5.2310    4.3752   -0.0000 C   0  0  0  0  0  0  0  0  0  0  0  0
   -4.0498   -2.5432   -0.0000 C   0  0  0  0  0  0  0  0  0  0  0  0
   -1.3981   -2.5311   -0.0000 C   0  0  0  0  0  0  0  0  0  0  0  0
   -1.4102    8.1840   -0.0000 C   0  0  0  0  0  0  0  0  0  0  0  0
    2.3021    6.0506   -0.0000 O   0  0  0  0  0  0  0  0  0  0  0  0
    1.2415    8.1960   -0.0000 N   0  0  0  0  0  0  0  0  0  0  0  0
    7.0630   -0.3254   -0.0000 C   0  0  0  0  0  0  0  0  0  0  0  0
    4.7248   -1.0848   -0.0000 C   0  0  0  0  0  0  0  0  0  0  0  0
    7.6898    1.0727   -0.0000 C   0  0  0  0  0  0  0  0  0  0  0  0
    6.5448    3.6279   -0.0000 C   0  0  0  0  0  0  0  0  0  0  0  0
   -2.7360   -3.2905   -0.0000 C   0  0  0  0  0  0  0  0  0  0  0  0
   -2.7481    8.9554   -0.0000 C   0  0  0  0  0  0  0  0  0  0  0  0
    2.5552    8.9795   -0.0000 C   0  0  0  0  0  0  0  0  0  0  0  0
    9.1723    1.4102   -0.0000 C   0  0  0  0  0  0  0  0  0  0  0  0
   -2.7481   -4.5078   -0.0000 O   0  0  0  0  0  0  0  0  0  0  0  0
   -2.7601   10.1968   -0.0000 C   0  0  0  0  0  0  0  0  0  0  0  0
    2.5432   10.5223   -0.0000 C   0  0  0  0  0  0  0  0  0  0  0  0
    9.5339    2.5914   -0.0000 O   0  0  0  0  0  0  0  0  0  0  0  0
   10.1848    0.2893   -0.0000 N   0  0  0  0  0  0  0  0  0  0  0  0
    3.8570   11.3057   -0.0000 C   0  0  0  0  0  0  0  0  0  0  0  0
    1.2053   11.2936   -0.0000 C   0  0  0  0  0  0  0  0  0  0  0  0
   11.6673    0.6268   -0.0000 C   0  0  0  0  0  0  0  0  0  0  0  0
    3.8449   12.8485   -0.0000 C   0  0  0  0  0  0  0  0  0  0  0  0
    1.1932   12.8364   -0.0000 C   0  0  0  0  0  0  0  0  0  0  0  0
   12.1253    2.0972   -0.0000 C   0  0  0  0  0  0  0  0  0  0  0  0
   12.6797   -0.4942   -0.0000 C   0  0  0  0  0  0  0  0  0  0  0  0
    2.5070   13.6199   -0.0000 C   0  0  0  0  0  0  0  0  0  0  0  0
   13.6078    2.4347   -0.0000 N   0  0  0  0  0  0  0  0  0  0  0  0
   14.1623   -0.1567   -0.0000 C   0  0  0  0  0  0  0  0  0  0  0  0
   14.6203    1.3138   -0.0000 C   0  0  0  0  0  0  0  0  0  0  0  0
   16.1028    1.6513   -0.0000 N   0  0  0  0  0  0  0  0  0  0  0  0
   17.1152    0.5303   -0.0000 C   0  0  0  0  0  0  0  0  0  0  0  0
   16.5608    3.1217   -0.0000 C   0  0  0  0  0  0  0  0  0  0  0  0
   18.5978    0.8678   -0.0000 C   0  0  0  0  0  0  0  0  0  0  0  0
   18.0433    3.4592   -0.0000 C   0  0  0  0  0  0  0  0  0  0  0  0
   19.0558    2.3383   -0.0000 C   0  0  0  0  0  0  0  0  0  0  0  0
   20.5383    2.6758   -0.0000 N   0  0  0  0  0  0  0  0  0  0  0  0
   21.5628    1.5548   -0.0000 C   0  0  0  0  0  0  0  0  0  0  0  0
   20.9842    4.1462   -0.0000 C   0  0  0  0  0  0  0  0  0  0  0  0
   23.0453    1.8923   -0.0000 C   0  0  0  0  0  0  0  0  0  0  0  0
   22.4668    4.4837   -0.0000 C   0  0  0  0  0  0  0  0  0  0  0  0
   23.4913    3.3628   -0.0000 C   0  0  0  0  0  0  0  0  0  0  0  0
  1  2  2  0  0  0  0
  2  3  1  0  0  0  0
  2  4  1  0  0  0  0
  3  5  1  0  0  0  0
  3  6  1  0  0  0  0
  4  7  1  0  0  0  0
  4  8  1  0  0  0  0
  5  9  1  0  0  0  0
  6 10  1  0  0  0  0
  7 11  1  0  0  0  0
  8 12  1  0  0  0  0
  9 13  1  0  0  0  0
 10 14  2  0  0  0  0
 10 15  1  0  0  0  0
 11 16  2  0  0  0  0
 11 17  1  0  0  0  0
 12 18  2  0  0  0  0
 12 19  1  0  0  0  0
 13 20  1  0  0  0  0
 13 21  1  0  0  0  0
 14 22  1  0  0  0  0
 14 23  1  0  0  0  0
 15 24  2  0  0  0  0
 18 25  1  0  0  0  0
 19 26  2  0  0  0  0
 20 27  1  0  0  0  0
 21 28  2  0  0  0  0
 21 29  1  0  0  0  0
 22 30  1  0  0  0  0
 22 31  1  0  0  0  0
 23 32  1  0  0  0  0
 23 33  2  0  0  0  0
 25 34  2  0  0  0  0
 27 35  1  0  0  0  0
 29 36  1  0  0  0  0
 32 37  1  0  0  0  0
 34 38  1  0  0  0  0
 35 39  2  0  0  0  0
 36 40  1  0  0  0  0
 37 41  2  0  0  0  0
 37 42  1  0  0  0  0
 40 43  2  0  0  0  0
 40 44  1  0  0  0  0
 42 45  1  0  0  0  0
 43 46  1  0  0  0  0
 44 47  2  0  0  0  0
 45 48  2  0  0  0  0
 45 49  1  0  0  0  0
 46 50  2  0  0  0  0
 48 51  1  0  0  0  0
 49 52  2  0  0  0  0
 51 53  2  0  0  0  0
 53 54  1  0  0  0  0
 54 55  1  0  0  0  0
 54 56  1  0  0  0  0
 55 57  1  0  0  0  0
 56 58  1  0  0  0  0
 57 59  1  0  0  0  0
 59 60  1  0  0  0  0
 60 61  1  0  0  0  0
 60 62  1  0  0  0  0
 61 63  1  0  0  0  0
 62 64  1  0  0  0  0
 63 65  1  0  0  0  0
  7  9  1  0  0  0  0
 17 20  1  0  0  0  0
 24 33  1  0  0  0  0
 26 34  1  0  0  0  0
 30 32  2  0  0  0  0
 47 50  1  0  0  0  0
 52 53  1  0  0  0  0
 58 59  1  0  0  0  0
 64 65  1  0  0  0  0
M  END
>  <MolRegNo>
2036134

>  <m>
=

>  <Value>
2370

>  <Unit>
nM

>  <Type>
IC50

>  <pValue>
5.62

>  <Ligand Efficiency>
0.12

>  <Binding Efficiency>
6.4

>  <Surface Efficiency>
3.75

>  <Assay Index>
974120

>  <Assay Category>


>  <Assay Organism>
Homo sapiens

>  <Target ID>
17045

>  <Target Name>
Cytochrome P450 3A4

>  <Target Organism>
Homo sapiens

>  <Target Description>
Target is a single protein chain

>  <Sequence Accession>
P08684

>  <Reference>


>  <Pubmed ID>


>  <DOI>


$$$$
2036135
Actelion Java MolfileCreator 1.0

 66 74  0  0  1  0  0  0  0  0999 V2000
    0.0000   -0.0000   -0.0000 O   0  0  0  0  0  0  0  0  0  0  0  0
   -0.0121    1.2428   -0.0000 C   0  0  0  0  0  0  0  0  0  0  0  0
    1.3032    2.0151   -0.0000 N   0  0  0  0  0  0  0  0  0  0  0  0
   -1.3514    2.0151   -0.0000 C   0  0  0  0  0  0  0  0  0  0  0  0
    1.2911    3.5595   -0.0000 C   0  0  0  0  0  0  0  0  0  0  0  0
    2.6184    1.2670   -0.0000 C   0  0  0  0  0  0  0  0  0  0  0  0
   -1.3635    3.5595   -0.0000 N   0  0  0  0  0  0  0  0  0  0  0  0
   -2.6908    1.2670   -0.0000 C   0  0  0  0  0  0  0  0  0  0  0  0
   -0.0483    4.3318   -0.0000 C   0  0  0  0  0  0  0  0  0  0  0  0
    3.9336    2.0513   -0.0000 C   0  0  0  0  0  0  0  0  0  0  0  0
   -2.7028    4.3318   -0.0000 C   0  0  0  0  0  0  0  0  0  0  0  0
   -4.0301    2.0513   -0.0000 C   0  0  0  0  0  0  0  0  0  0  0  0
   -0.0603    5.8762   -0.0000 N   0  0  0  0  0  0  0  0  0  0  0  0
    5.2488    1.3032   -0.0000 C   0  0  0  0  0  0  0  0  0  0  0  0
    3.9215    3.5957   -0.0000 C   0  0  0  0  0  0  0  0  0  0  0  0
   -3.7767    3.7285   -0.0000 O   0  0  0  0  0  0  0  0  0  0  0  0
   -2.7149    5.8762   -0.0000 C   0  0  0  0  0  0  0  0  0  0  0  0
   -5.3695    1.3032   -0.0000 C   0  0  0  0  0  0  0  0  0  0  0  0
   -4.0422    3.5957   -0.0000 C   0  0  0  0  0  0  0  0  0  0  0  0
   -1.3997    6.6485   -0.0000 N   0  0  0  0  0  0  0  0  0  0  0  0
    1.2549    6.6605   -0.0000 C   0  0  0  0  0  0  0  0  0  0  0  0
    5.5625   -0.1810   -0.0000 N   0  0  0  0  0  0  0  0  0  0  0  0
    6.5640    2.0875   -0.0000 C   0  0  0  0  0  0  0  0  0  0  0  0
    5.2367    4.3800   -0.0000 C   0  0  0  0  0  0  0  0  0  0  0  0
   -6.7088    2.0875   -0.0000 C   0  0  0  0  0  0  0  0  0  0  0  0
   -5.3815    4.3800   -0.0000 C   0  0  0  0  0  0  0  0  0  0  0  0
   -1.4117    8.1930   -0.0000 C   0  0  0  0  0  0  0  0  0  0  0  0
    2.3046    6.0572   -0.0000 O   0  0  0  0  0  0  0  0  0  0  0  0
    1.2428    8.2050   -0.0000 N   0  0  0  0  0  0  0  0  0  0  0  0
    7.0708   -0.3258   -0.0000 C   0  0  0  0  0  0  0  0  0  0  0  0
    4.7300   -1.0860   -0.0000 C   0  0  0  0  0  0  0  0  0  0  0  0
    7.6982    1.0739   -0.0000 C   0  0  0  0  0  0  0  0  0  0  0  0
    6.5520    3.6319   -0.0000 C   0  0  0  0  0  0  0  0  0  0  0  0
   -6.7209    3.6319   -0.0000 C   0  0  0  0  0  0  0  0  0  0  0  0
   -2.7511    8.9652   -0.0000 C   0  0  0  0  0  0  0  0  0  0  0  0
    2.5580    8.9893   -0.0000 C   0  0  0  0  0  0  0  0  0  0  0  0
    9.1824    1.4117   -0.0000 C   0  0  0  0  0  0  0  0  0  0  0  0
   -7.7948    4.2594   -0.0000 O   0  0  0  0  0  0  0  0  0  0  0  0
   -2.7632   10.2080   -0.0000 C   0  0  0  0  0  0  0  0  0  0  0  0
    2.5460   10.5338   -0.0000 C   0  0  0  0  0  0  0  0  0  0  0  0
    9.5444    2.5942   -0.0000 O   0  0  0  0  0  0  0  0  0  0  0  0
   10.1960    0.2896   -0.0000 N   0  0  0  0  0  0  0  0  0  0  0  0
    3.8612   11.3181   -0.0000 C   0  0  0  0  0  0  0  0  0  0  0  0
    1.2066   11.3060   -0.0000 C   0  0  0  0  0  0  0  0  0  0  0  0
   11.6801    0.6274   -0.0000 C   0  0  0  0  0  0  0  0  0  0  0  0
    3.8491   12.8626   -0.0000 C   0  0  0  0  0  0  0  0  0  0  0  0
    1.1946   12.8505   -0.0000 C   0  0  0  0  0  0  0  0  0  0  0  0
   12.1386    2.0995   -0.0000 C   0  0  0  0  0  0  0  0  0  0  0  0
   12.6937   -0.4947   -0.0000 C   0  0  0  0  0  0  0  0  0  0  0  0
    2.5098   13.6348   -0.0000 C   0  0  0  0  0  0  0  0  0  0  0  0
   13.6228    2.4374   -0.0000 N   0  0  0  0  0  0  0  0  0  0  0  0
   14.1778   -0.1569   -0.0000 C   0  0  0  0  0  0  0  0  0  0  0  0
   14.6363    1.3152   -0.0000 C   0  0  0  0  0  0  0  0  0  0  0  0
   16.1205    1.6531   -0.0000 N   0  0  0  0  0  0  0  0  0  0  0  0
   17.1340    0.5309   -0.0000 C   0  0  0  0  0  0  0  0  0  0  0  0
   16.5790    3.1251   -0.0000 C   0  0  0  0  0  0  0  0  0  0  0  0
   18.6182    0.8688   -0.0000 C   0  0  0  0  0  0  0  0  0  0  0  0
   18.0631    3.4630   -0.0000 C   0  0  0  0  0  0  0  0  0  0  0  0
   19.0767    2.3408   -0.0000 C   0  0  0  0  0  0  0  0  0  0  0  0
   20.5608    2.6787   -0.0000 N   0  0  0  0  0  0  0  0  0  0  0  0
   21.5865    1.5565   -0.0000 C   0  0  0  0  0  0  0  0  0  0  0  0
   21.0073    4.1508   -0.0000 C   0  0  0  0  0  0  0  0  0  0  0  0
   23.0706    1.8944   -0.0000 C   0  0  0  0  0  0  0  0  0  0  0  0
   22.4914    4.4886   -0.0000 C   0  0  0  0  0  0  0  0  0  0  0  0
   23.5170    3.3665   -0.0000 N   0  0  0  0  0  0  0  0  0  0  0  0
   24.6995    3.6440   -0.0000 C   0  0  0  0  0  0  0  0  0  0  0  0
  1  2  2  0  0  0  0
  2  3  1  0  0  0  0
  2  4  1  0  0  0  0
  3  5  1  0  0  0  0
  3  6  1  0  0  0  0
  4  7  1  0  0  0  0
  4  8  1  6  0  0  0
  5  9  1  0  0  0  0
  6 10  1  0  0  0  0
  7 11  1  0  0  0  0
  8 12  1  0  0  0  0
  9 13  1  1  0  0  0
 10 14  2  0  0  0  0
 10 15  1  0  0  0  0
 11 16  2  0  0  0  0
 11 17  1  0  0  0  0
 12 18  2  0  0  0  0
 12 19  1  0  0  0  0
 13 20  1  0  0  0  0
 13 21  1  0  0  0  0
 14 22  1  0  0  0  0
 14 23  1  0  0  0  0
 15 24  2  0  0  0  0
 18 25  1  0  0  0  0
 19 26  2  0  0  0  0
 20 27  1  0  0  0  0
 21 28  2  0  0  0  0
 21 29  1  0  0  0  0
 22 30  1  0  0  0  0
 22 31  1  0  0  0  0
 23 32  1  0  0  0  0
 23 33  2  0  0  0  0
 25 34  2  0  0  0  0
 27 35  1  0  0  0  0
 29 36  1  0  0  0  0
 32 37  1  0  0  0  0
 34 38  1  0  0  0  0
 35 39  2  0  0  0  0
 36 40  1  0  0  0  0
 37 41  2  0  0  0  0
 37 42  1  0  0  0  0
 40 43  2  0  0  0  0
 40 44  1  0  0  0  0
 42 45  1  0  0  0  0
 43 46  1  0  0  0  0
 44 47  2  0  0  0  0
 45 48  2  0  0  0  0
 45 49  1  0  0  0  0
 46 50  2  0  0  0  0
 48 51  1  0  0  0  0
 49 52  2  0  0  0  0
 51 53  2  0  0  0  0
 53 54  1  0  0  0  0
 54 55  1  0  0  0  0
 54 56  1  0  0  0  0
 55 57  1  0  0  0  0
 56 58  1  0  0  0  0
 57 59  1  0  0  0  0
 59 60  1  0  0  0  0
 60 61  1  0  0  0  0
 60 62  1  0  0  0  0
 61 63  1  0  0  0  0
 62 64  1  0  0  0  0
 63 65  1  0  0  0  0
 65 66  1  0  0  0  0
  7  9  1  0  0  0  0
 17 20  1  0  0  0  0
 24 33  1  0  0  0  0
 26 34  1  0  0  0  0
 30 32  2  0  0  0  0
 47 50  1  0  0  0  0
 52 53  1  0  0  0  0
 58 59  1  0  0  0  0
 64 65  1  0  0  0  0
M  END
>  <MolRegNo>
2036135

>  <m>
=

>  <Value>
6320

>  <Unit>
nM

>  <Type>
IC50

>  <pValue>
5.2

>  <Ligand Efficiency>
0.11

>  <Binding Efficiency>
5.82

>  <Surface Efficiency>
3.4

>  <Assay Index>
974120

>  <Assay Category>


>  <Assay Organism>
Homo sapiens

>  <Target ID>
17045

>  <Target Name>
Cytochrome P450 3A4

>  <Target Organism>
Homo sapiens

>  <Target Description>
Target is a single protein chain

>  <Sequence Accession>
P08684

>  <Reference>


>  <Pubmed ID>


>  <DOI>


$$$$
2036136
Actelion Java MolfileCreator 1.0

 69 77  0  0  0  0  0  0  0  0999 V2000
    0.0000   -0.0000   -0.0000 F   0  0  0  0  0  0  0  0  0  0  0  0
   -0.8455    0.9180   -0.0000 C   0  0  0  0  0  0  0  0  0  0  0  0
   -0.4831    2.1017   -0.0000 F   0  0  0  0  0  0  0  0  0  0  0  0
    0.3382    1.1958   -0.0000 F   0  0  0  0  0  0  0  0  0  0  0  0
   -2.3553    0.6039   -0.0000 C   0  0  0  0  0  0  0  0  0  0  0  0
   -2.8264   -0.8455   -0.0000 C   0  0  0  0  0  0  0  0  0  0  0  0
   -3.4061    1.7514   -0.0000 C   0  0  0  0  0  0  0  0  0  0  0  0
   -4.3362   -1.1595   -0.0000 C   0  0  0  0  0  0  0  0  0  0  0  0
   -4.9160    1.4373   -0.0000 C   0  0  0  0  0  0  0  0  0  0  0  0
   -5.3870   -0.0121   -0.0000 C   0  0  0  0  0  0  0  0  0  0  0  0
   -6.8968   -0.3261   -0.0000 N   0  0  0  0  0  0  0  0  0  0  0  0
   -7.3800   -1.7755   -0.0000 C   0  0  0  0  0  0  0  0  0  0  0  0
   -7.9356    0.8213   -0.0000 C   0  0  0  0  0  0  0  0  0  0  0  0
   -8.8898   -2.0896   -0.0000 C   0  0  0  0  0  0  0  0  0  0  0  0
   -9.4454    0.5073   -0.0000 C   0  0  0  0  0  0  0  0  0  0  0  0
   -9.9286   -0.9421   -0.0000 N   0  0  0  0  0  0  0  0  0  0  0  0
  -11.4384   -1.2562   -0.0000 C   0  0  0  0  0  0  0  0  0  0  0  0
  -12.4771   -0.1087   -0.0000 N   0  0  0  0  0  0  0  0  0  0  0  0
  -11.9215   -2.7056   -0.0000 C   0  0  0  0  0  0  0  0  0  0  0  0
  -13.9869   -0.4227   -0.0000 C   0  0  0  0  0  0  0  0  0  0  0  0
  -13.4313   -3.0196   -0.0000 C   0  0  0  0  0  0  0  0  0  0  0  0
  -14.4701   -1.8722   -0.0000 C   0  0  0  0  0  0  0  0  0  0  0  0
  -15.9799   -2.1862   -0.0000 N   0  0  0  0  0  0  0  0  0  0  0  0
  -17.0187   -1.0388   -0.0000 C   0  0  0  0  0  0  0  0  0  0  0  0
  -16.6563    0.1449   -0.0000 O   0  0  0  0  0  0  0  0  0  0  0  0
  -18.5285   -1.3528   -0.0000 C   0  0  0  0  0  0  0  0  0  0  0  0
  -19.6880   -0.3140   -0.0000 C   0  0  0  0  0  0  0  0  0  0  0  0
  -19.1566   -2.7418   -0.0000 C   0  0  0  0  0  0  0  0  0  0  0  0
  -21.0287   -1.0750   -0.0000 C   0  0  0  0  0  0  0  0  0  0  0  0
  -19.7001    1.2320   -0.0000 C   0  0  0  0  0  0  0  0  0  0  0  0
  -20.6905   -2.5727   -0.0000 N   0  0  0  0  0  0  0  0  0  0  0  0
  -22.3695   -0.3020   -0.0000 C   0  0  0  0  0  0  0  0  0  0  0  0
  -21.0408    2.0050   -0.0000 C   0  0  0  0  0  0  0  0  0  0  0  0
  -21.5240   -3.4786   -0.0000 C   0  0  0  0  0  0  0  0  0  0  0  0
  -22.3815    1.2441   -0.0000 C   0  0  0  0  0  0  0  0  0  0  0  0
  -23.7102   -1.0629   -0.0000 C   0  0  0  0  0  0  0  0  0  0  0  0
  -25.0509   -0.2899   -0.0000 N   0  0  0  0  0  0  0  0  0  0  0  0
  -26.3916   -1.0388   -0.0000 C   0  0  0  0  0  0  0  0  0  0  0  0
  -25.0630    1.2562   -0.0000 C   0  0  0  0  0  0  0  0  0  0  0  0
  -26.4037   -2.2587   -0.0000 O   0  0  0  0  0  0  0  0  0  0  0  0
  -27.7323   -0.2657   -0.0000 C   0  0  0  0  0  0  0  0  0  0  0  0
  -26.4037    2.0292   -0.0000 C   0  0  0  0  0  0  0  0  0  0  0  0
  -27.7444    1.2803   -0.0000 N   0  0  0  0  0  0  0  0  0  0  0  0
  -29.0730   -1.0267   -0.0000 C   0  0  0  0  0  0  0  0  0  0  0  0
  -26.4158    3.5752   -0.0000 N   0  0  0  0  0  0  0  0  0  0  0  0
  -29.0851    2.0534   -0.0000 C   0  0  0  0  0  0  0  0  0  0  0  0
  -29.0851   -2.5486   -0.0000 C   0  0  0  0  0  0  0  0  0  0  0  0
  -27.7565    4.3483   -0.0000 N   0  0  0  0  0  0  0  0  0  0  0  0
  -25.0992    4.3604   -0.0000 C   0  0  0  0  0  0  0  0  0  0  0  0
  -30.1601    1.4494   -0.0000 O   0  0  0  0  0  0  0  0  0  0  0  0
  -29.0972    3.5994   -0.0000 C   0  0  0  0  0  0  0  0  0  0  0  0
  -30.4258   -3.3095   -0.0000 C   0  0  0  0  0  0  0  0  0  0  0  0
  -27.7686   -3.2974   -0.0000 C   0  0  0  0  0  0  0  0  0  0  0  0
  -27.7686    5.8943   -0.0000 C   0  0  0  0  0  0  0  0  0  0  0  0
  -24.0484    3.7564   -0.0000 O   0  0  0  0  0  0  0  0  0  0  0  0
  -25.1113    5.9064   -0.0000 N   0  0  0  0  0  0  0  0  0  0  0  0
  -30.4379   -4.8314   -0.0000 C   0  0  0  0  0  0  0  0  0  0  0  0
  -27.7806   -4.8193   -0.0000 C   0  0  0  0  0  0  0  0  0  0  0  0
  -29.1093    6.6674   -0.0000 C   0  0  0  0  0  0  0  0  0  0  0  0
  -23.7947    6.6915   -0.0000 C   0  0  0  0  0  0  0  0  0  0  0  0
  -29.1214   -5.5803   -0.0000 C   0  0  0  0  0  0  0  0  0  0  0  0
  -29.1214    7.9114   -0.0000 C   0  0  0  0  0  0  0  0  0  0  0  0
  -23.8068    8.2376   -0.0000 C   0  0  0  0  0  0  0  0  0  0  0  0
  -29.1334   -6.8002   -0.0000 O   0  0  0  0  0  0  0  0  0  0  0  0
  -22.4902    9.0227   -0.0000 C   0  0  0  0  0  0  0  0  0  0  0  0
  -25.1475    9.0106   -0.0000 C   0  0  0  0  0  0  0  0  0  0  0  0
  -22.5023   10.5687   -0.0000 C   0  0  0  0  0  0  0  0  0  0  0  0
  -25.1596   10.5566   -0.0000 C   0  0  0  0  0  0  0  0  0  0  0  0
  -23.8430   11.3417   -0.0000 C   0  0  0  0  0  0  0  0  0  0  0  0
  1  2  1  0  0  0  0
  2  3  1  0  0  0  0
  2  4  1  0  0  0  0
  2  5  1  0  0  0  0
  5  6  2  0  0  0  0
  5  7  1  0  0  0  0
  6  8  1  0  0  0  0
  7  9  2  0  0  0  0
  8 10  2  0  0  0  0
 10 11  1  0  0  0  0
 11 12  1  0  0  0  0
 11 13  1  0  0  0  0
 12 14  1  0  0  0  0
 13 15  1  0  0  0  0
 14 16  1  0  0  0  0
 16 17  1  0  0  0  0
 17 18  2  0  0  0  0
 17 19  1  0  0  0  0
 18 20  1  0  0  0  0
 19 21  2  0  0  0  0
 20 22  2  0  0  0  0
 22 23  1  0  0  0  0
 23 24  1  0  0  0  0
 24 25  2  0  0  0  0
 24 26  1  0  0  0  0
 26 27  1  0  0  0  0
 26 28  2  0  0  0  0
 27 29  2  0  0  0  0
 27 30  1  0  0  0  0
 28 31  1  0  0  0  0
 29 32  1  0  0  0  0
 30 33  2  0  0  0  0
 31 34  1  0  0  0  0
 32 35  2  0  0  0  0
 32 36  1  0  0  0  0
 36 37  1  0  0  0  0
 37 38  1  0  0  0  0
 37 39  1  0  0  0  0
 38 40  2  0  0  0  0
 38 41  1  0  0  0  0
 39 42  1  0  0  0  0
 41 43  1  0  0  0  0
 41 44  1  0  0  0  0
 42 45  1  0  0  0  0
 43 46  1  0  0  0  0
 44 47  1  0  0  0  0
 45 48  1  0  0  0  0
 45 49  1  0  0  0  0
 46 50  2  0  0  0  0
 46 51  1  0  0  0  0
 47 52  2  0  0  0  0
 47 53  1  0  0  0  0
 48 54  1  0  0  0  0
 49 55  2  0  0  0  0
 49 56  1  0  0  0  0
 52 57  1  0  0  0  0
 53 58  2  0  0  0  0
 54 59  1  0  0  0  0
 56 60  1  0  0  0  0
 57 61  2  0  0  0  0
 59 62  2  0  0  0  0
 60 63  1  0  0  0  0
 61 64  1  0  0  0  0
 63 65  2  0  0  0  0
 63 66  1  0  0  0  0
 65 67  1  0  0  0  0
 66 68  2  0  0  0  0
 67 69  2  0  0  0  0
  9 10  1  0  0  0  0
 15 16  1  0  0  0  0
 21 22  1  0  0  0  0
 29 31  1  0  0  0  0
 33 35  1  0  0  0  0
 42 43  1  0  0  0  0
 48 51  1  0  0  0  0
 58 61  1  0  0  0  0
 68 69  1  0  0  0  0
M  END
>  <MolRegNo>
2036136

>  <m>
=

>  <Value>
23670

>  <Unit>
nM

>  <Type>
IC50

>  <pValue>
4.63

>  <Ligand Efficiency>
0.09

>  <Binding Efficiency>
4.92

>  <Surface Efficiency>
3.09

>  <Assay Index>
974120

>  <Assay Category>


>  <Assay Organism>
Homo sapiens

>  <Target ID>
17045

>  <Target Name>
Cytochrome P450 3A4

>  <Target Organism>
Homo sapiens

>  <Target Description>
Target is a single protein chain

>  <Sequence Accession>
P08684

>  <Reference>


>  <Pubmed ID>


>  <DOI>


$$$$
2036138
Actelion Java MolfileCreator 1.0

 68 76  0  0  0  0  0  0  0  0999 V2000
    0.0000   -0.0000   -0.0000 O   0  0  0  0  0  0  0  0  0  0  0  0
   -0.0121    1.2427   -0.0000 C   0  0  0  0  0  0  0  0  0  0  0  0
    1.3030    2.0149   -0.0000 N   0  0  0  0  0  0  0  0  0  0  0  0
   -1.3513    2.0149   -0.0000 C   0  0  0  0  0  0  0  0  0  0  0  0
    1.2910    3.5592   -0.0000 C   0  0  0  0  0  0  0  0  0  0  0  0
    2.6181    1.2668   -0.0000 C   0  0  0  0  0  0  0  0  0  0  0  0
   -1.3633    3.5592   -0.0000 N   0  0  0  0  0  0  0  0  0  0  0  0
   -2.6905    1.2548   -0.0000 C   0  0  0  0  0  0  0  0  0  0  0  0
   -0.0483    4.3313   -0.0000 C   0  0  0  0  0  0  0  0  0  0  0  0
    3.9332    2.0510   -0.0000 C   0  0  0  0  0  0  0  0  0  0  0  0
   -2.7026    4.3313   -0.0000 C   0  0  0  0  0  0  0  0  0  0  0  0
   -2.7026   -0.2654   -0.0000 C   0  0  0  0  0  0  0  0  0  0  0  0
   -0.0603    5.8756   -0.0000 N   0  0  0  0  0  0  0  0  0  0  0  0
    5.2483    1.3030   -0.0000 C   0  0  0  0  0  0  0  0  0  0  0  0
    3.9211    3.5954   -0.0000 C   0  0  0  0  0  0  0  0  0  0  0  0
   -3.7763    3.7281   -0.0000 O   0  0  0  0  0  0  0  0  0  0  0  0
   -2.7146    5.8756   -0.0000 C   0  0  0  0  0  0  0  0  0  0  0  0
   -4.0418   -1.0255   -0.0000 C   0  0  0  0  0  0  0  0  0  0  0  0
   -1.3875   -1.0135   -0.0000 C   0  0  0  0  0  0  0  0  0  0  0  0
   -1.3995    6.6478   -0.0000 N   0  0  0  0  0  0  0  0  0  0  0  0
    1.2548    6.6599   -0.0000 C   0  0  0  0  0  0  0  0  0  0  0  0
    5.5620   -0.1810   -0.0000 N   0  0  0  0  0  0  0  0  0  0  0  0
    6.5633    2.0872   -0.0000 C   0  0  0  0  0  0  0  0  0  0  0  0
    5.2362    4.3796   -0.0000 C   0  0  0  0  0  0  0  0  0  0  0  0
   -4.0538   -2.5457   -0.0000 C   0  0  0  0  0  0  0  0  0  0  0  0
   -1.3995   -2.5336   -0.0000 C   0  0  0  0  0  0  0  0  0  0  0  0
   -1.4116    8.1921   -0.0000 C   0  0  0  0  0  0  0  0  0  0  0  0
    2.3044    6.0566   -0.0000 O   0  0  0  0  0  0  0  0  0  0  0  0
    1.2427    8.2042   -0.0000 N   0  0  0  0  0  0  0  0  0  0  0  0
    7.0701   -0.3258   -0.0000 C   0  0  0  0  0  0  0  0  0  0  0  0
    4.7295   -1.0858   -0.0000 C   0  0  0  0  0  0  0  0  0  0  0  0
    7.6975    1.0738   -0.0000 C   0  0  0  0  0  0  0  0  0  0  0  0
    6.5513    3.6316   -0.0000 C   0  0  0  0  0  0  0  0  0  0  0  0
   -2.7387   -3.2937   -0.0000 C   0  0  0  0  0  0  0  0  0  0  0  0
   -2.7508    8.9643   -0.0000 C   0  0  0  0  0  0  0  0  0  0  0  0
    2.5578    8.9884   -0.0000 C   0  0  0  0  0  0  0  0  0  0  0  0
    9.1814    1.4116   -0.0000 C   0  0  0  0  0  0  0  0  0  0  0  0
   -2.7508   -4.5123   -0.0000 O   0  0  0  0  0  0  0  0  0  0  0  0
   -2.7629   10.2070   -0.0000 C   0  0  0  0  0  0  0  0  0  0  0  0
    2.5457   10.5327   -0.0000 C   0  0  0  0  0  0  0  0  0  0  0  0
    9.5434    2.5940   -0.0000 O   0  0  0  0  0  0  0  0  0  0  0  0
   10.1949    0.2896   -0.0000 N   0  0  0  0  0  0  0  0  0  0  0  0
    3.8608   11.3169   -0.0000 C   0  0  0  0  0  0  0  0  0  0  0  0
    1.2065   11.3049   -0.0000 C   0  0  0  0  0  0  0  0  0  0  0  0
   11.6789    0.6274   -0.0000 C   0  0  0  0  0  0  0  0  0  0  0  0
    3.8487   12.8613   -0.0000 C   0  0  0  0  0  0  0  0  0  0  0  0
    1.1944   12.8492   -0.0000 C   0  0  0  0  0  0  0  0  0  0  0  0
   12.1374    2.0993   -0.0000 C   0  0  0  0  0  0  0  0  0  0  0  0
   12.6924   -0.4947   -0.0000 C   0  0  0  0  0  0  0  0  0  0  0  0
    2.5095   13.6334   -0.0000 C   0  0  0  0  0  0  0  0  0  0  0  0
   13.6214    2.4371   -0.0000 N   0  0  0  0  0  0  0  0  0  0  0  0
   14.1763   -0.1568   -0.0000 C   0  0  0  0  0  0  0  0  0  0  0  0
   14.6348    1.3151   -0.0000 C   0  0  0  0  0  0  0  0  0  0  0  0
   16.1188    1.6529   -0.0000 N   0  0  0  0  0  0  0  0  0  0  0  0
   17.1323    0.5309   -0.0000 C   0  0  0  0  0  0  0  0  0  0  0  0
   16.5773    3.1248   -0.0000 C   0  0  0  0  0  0  0  0  0  0  0  0
   18.6163    0.8687   -0.0000 C   0  0  0  0  0  0  0  0  0  0  0  0
   18.0613    3.4626   -0.0000 C   0  0  0  0  0  0  0  0  0  0  0  0
   19.0747    2.3406   -0.0000 N   0  0  0  0  0  0  0  0  0  0  0  0
   20.5587    2.6784   -0.0000 C   0  0  0  0  0  0  0  0  0  0  0  0
   21.0051    4.1504   -0.0000 C   0  0  0  0  0  0  0  0  0  0  0  0
   22.4891    4.4882   -0.0000 C   0  0  0  0  0  0  0  0  0  0  0  0
   19.9555    5.2965   -0.0000 C   0  0  0  0  0  0  0  0  0  0  0  0
   22.9355    5.9601   -0.0000 C   0  0  0  0  0  0  0  0  0  0  0  0
   20.4019    6.7685   -0.0000 C   0  0  0  0  0  0  0  0  0  0  0  0
   21.8859    7.1063   -0.0000 C   0  0  0  0  0  0  0  0  0  0  0  0
   22.3323    8.5782   -0.0000 O   0  0  0  0  0  0  0  0  0  0  0  0
   21.4877    9.4951   -0.0000 C   0  0  0  0  0  0  0  0  0  0  0  0
  1  2  2  0  0  0  0
  2  3  1  0  0  0  0
  2  4  1  0  0  0  0
  3  5  1  0  0  0  0
  3  6  1  0  0  0  0
  4  7  1  0  0  0  0
  4  8  1  0  0  0  0
  5  9  1  0  0  0  0
  6 10  1  0  0  0  0
  7 11  1  0  0  0  0
  8 12  1  0  0  0  0
  9 13  1  0  0  0  0
 10 14  2  0  0  0  0
 10 15  1  0  0  0  0
 11 16  2  0  0  0  0
 11 17  1  0  0  0  0
 12 18  2  0  0  0  0
 12 19  1  0  0  0  0
 13 20  1  0  0  0  0
 13 21  1  0  0  0  0
 14 22  1  0  0  0  0
 14 23  1  0  0  0  0
 15 24  2  0  0  0  0
 18 25  1  0  0  0  0
 19 26  2  0  0  0  0
 20 27  1  0  0  0  0
 21 28  2  0  0  0  0
 21 29  1  0  0  0  0
 22 30  1  0  0  0  0
 22 31  1  0  0  0  0
 23 32  1  0  0  0  0
 23 33  2  0  0  0  0
 25 34  2  0  0  0  0
 27 35  1  0  0  0  0
 29 36  1  0  0  0  0
 32 37  1  0  0  0  0
 34 38  1  0  0  0  0
 35 39  2  0  0  0  0
 36 40  1  0  0  0  0
 37 41  2  0  0  0  0
 37 42  1  0  0  0  0
 40 43  2  0  0  0  0
 40 44  1  0  0  0  0
 42 45  1  0  0  0  0
 43 46  1  0  0  0  0
 44 47  2  0  0  0  0
 45 48  2  0  0  0  0
 45 49  1  0  0  0  0
 46 50  2  0  0  0  0
 48 51  1  0  0  0  0
 49 52  2  0  0  0  0
 51 53  2  0  0  0  0
 53 54  1  0  0  0  0
 54 55  1  0  0  0  0
 54 56  1  0  0  0  0
 55 57  1  0  0  0  0
 56 58  1  0  0  0  0
 57 59  1  0  0  0  0
 59 60  1  0  0  0  0
 60 61  1  0  0  0  0
 61 62  2  0  0  0  0
 61 63  1  0  0  0  0
 62 64  1  0  0  0  0
 63 65  2  0  0  0  0
 64 66  2  0  0  0  0
 66 67  1  0  0  0  0
 67 68  1  0  0  0  0
  7  9  1  0  0  0  0
 17 20  1  0  0  0  0
 24 33  1  0  0  0  0
 26 34  1  0  0  0  0
 30 32  2  0  0  0  0
 47 50  1  0  0  0  0
 52 53  1  0  0  0  0
 58 59  1  0  0  0  0
 65 66  1  0  0  0  0
M  END
>  <MolRegNo>
2036138

>  <m>
=

>  <Value>
21520

>  <Unit>
nM

>  <Type>
IC50

>  <pValue>
4.67

>  <Ligand Efficiency>
0.09

>  <Binding Efficiency>
5.09

>  <Surface Efficiency>
2.93

>  <Assay Index>
974120

>  <Assay Category>


>  <Assay Organism>
Homo sapiens

>  <Target ID>
17045

>  <Target Name>
Cytochrome P450 3A4

>  <Target Organism>
Homo sapiens

>  <Target Description>
Target is a single protein chain

>  <Sequence Accession>
P08684

>  <Reference>


>  <Pubmed ID>


>  <DOI>


$$$$
2036139
Actelion Java MolfileCreator 1.0

 58 65  0  0  1  0  0  0  0  0999 V2000
    0.0000   -0.0000   -0.0000 O   0  0  0  0  0  0  0  0  0  0  0  0
   -0.0121    1.2464   -0.0000 C   0  0  0  0  0  0  0  0  0  0  0  0
    1.3069    2.0209   -0.0000 N   0  0  0  0  0  0  0  0  0  0  0  0
   -1.3553    2.0209   -0.0000 C   0  0  0  0  0  0  0  0  0  0  0  0
    1.2948    3.5698   -0.0000 C   0  0  0  0  0  0  0  0  0  0  0  0
    2.6260    1.2706   -0.0000 C   0  0  0  0  0  0  0  0  0  0  0  0
   -1.3674    3.5698   -0.0000 N   0  0  0  0  0  0  0  0  0  0  0  0
   -2.6986    1.2706   -0.0000 C   0  0  0  0  0  0  0  0  0  0  0  0
   -0.0484    4.3443   -0.0000 C   0  0  0  0  0  0  0  0  0  0  0  0
    3.9450    2.0572   -0.0000 C   0  0  0  0  0  0  0  0  0  0  0  0
   -2.7107    4.3443   -0.0000 C   0  0  0  0  0  0  0  0  0  0  0  0
   -4.0418    2.0572   -0.0000 C   0  0  0  0  0  0  0  0  0  0  0  0
   -0.0605    5.8933   -0.0000 N   0  0  0  0  0  0  0  0  0  0  0  0
    5.2640    1.3069   -0.0000 C   0  0  0  0  0  0  0  0  0  0  0  0
    3.9329    3.6062   -0.0000 C   0  0  0  0  0  0  0  0  0  0  0  0
   -3.7877    3.7393   -0.0000 O   0  0  0  0  0  0  0  0  0  0  0  0
   -2.7228    5.8933   -0.0000 C   0  0  0  0  0  0  0  0  0  0  0  0
   -5.3850    1.3069   -0.0000 C   0  0  0  0  0  0  0  0  0  0  0  0
   -4.0539    3.6062   -0.0000 C   0  0  0  0  0  0  0  0  0  0  0  0
   -1.4037    6.6677   -0.0000 N   0  0  0  0  0  0  0  0  0  0  0  0
    1.2585    6.6799   -0.0000 C   0  0  0  0  0  0  0  0  0  0  0  0
    5.5786   -0.1815   -0.0000 N   0  0  0  0  0  0  0  0  0  0  0  0
    6.5830    2.0935   -0.0000 C   0  0  0  0  0  0  0  0  0  0  0  0
    5.2519    4.3927   -0.0000 C   0  0  0  0  0  0  0  0  0  0  0  0
   -6.7283    2.0935   -0.0000 C   0  0  0  0  0  0  0  0  0  0  0  0
   -5.3971    4.3927   -0.0000 C   0  0  0  0  0  0  0  0  0  0  0  0
   -1.4158    8.2167   -0.0000 C   0  0  0  0  0  0  0  0  0  0  0  0
    2.3113    6.0748   -0.0000 O   0  0  0  0  0  0  0  0  0  0  0  0
    1.2464    8.2288   -0.0000 N   0  0  0  0  0  0  0  0  0  0  0  0
    7.0913   -0.3267   -0.0000 C   0  0  0  0  0  0  0  0  0  0  0  0
    4.7437   -1.0891   -0.0000 C   0  0  0  0  0  0  0  0  0  0  0  0
    7.7206    1.0770   -0.0000 C   0  0  0  0  0  0  0  0  0  0  0  0
    6.5709    3.6425   -0.0000 C   0  0  0  0  0  0  0  0  0  0  0  0
   -6.7404    3.6425   -0.0000 C   0  0  0  0  0  0  0  0  0  0  0  0
   -2.7591    8.9912   -0.0000 C   0  0  0  0  0  0  0  0  0  0  0  0
    2.5654    9.0154   -0.0000 C   0  0  0  0  0  0  0  0  0  0  0  0
    9.2090    1.4158   -0.0000 C   0  0  0  0  0  0  0  0  0  0  0  0
   -7.8174    4.2717   -0.0000 O   0  0  0  0  0  0  0  0  0  0  0  0
   -2.7712   10.2376   -0.0000 C   0  0  0  0  0  0  0  0  0  0  0  0
    2.5533   10.5643   -0.0000 C   0  0  0  0  0  0  0  0  0  0  0  0
    9.5720    2.6018   -0.0000 O   0  0  0  0  0  0  0  0  0  0  0  0
   10.2255    0.2904   -0.0000 N   0  0  0  0  0  0  0  0  0  0  0  0
    3.8724   11.3509   -0.0000 C   0  0  0  0  0  0  0  0  0  0  0  0
    1.2101   11.3388   -0.0000 C   0  0  0  0  0  0  0  0  0  0  0  0
   11.7139    0.6293   -0.0000 C   0  0  0  0  0  0  0  0  0  0  0  0
    3.8603   12.8999   -0.0000 C   0  0  0  0  0  0  0  0  0  0  0  0
    1.1980   12.8878   -0.0000 C   0  0  0  0  0  0  0  0  0  0  0  0
   12.1738    2.1056   -0.0000 C   0  0  0  0  0  0  0  0  0  0  0  0
   12.7304   -0.4961   -0.0000 C   0  0  0  0  0  0  0  0  0  0  0  0
    2.5170   13.6743   -0.0000 C   0  0  0  0  0  0  0  0  0  0  0  0
   13.6622    2.4444   -0.0000 N   0  0  0  0  0  0  0  0  0  0  0  0
   14.2189   -0.1573   -0.0000 C   0  0  0  0  0  0  0  0  0  0  0  0
   14.6787    1.3190   -0.0000 C   0  0  0  0  0  0  0  0  0  0  0  0
   16.1672    1.6579   -0.0000 N   0  0  0  0  0  0  0  0  0  0  0  0
   17.4015    0.8229   -0.0000 C   0  0  0  0  0  0  0  0  0  0  0  0
   16.9295    2.9527   -0.0000 C   0  0  0  0  0  0  0  0  0  0  0  0
   18.2244    2.1298   -0.0000 C   0  0  0  0  0  0  0  0  0  0  0  0
   19.4103    2.4081   -0.0000 O   0  0  0  0  0  0  0  0  0  0  0  0
  1  2  2  0  0  0  0
  2  3  1  0  0  0  0
  2  4  1  0  0  0  0
  3  5  1  0  0  0  0
  3  6  1  0  0  0  0
  4  7  1  0  0  0  0
  4  8  1  6  0  0  0
  5  9  1  0  0  0  0
  6 10  1  0  0  0  0
  7 11  1  0  0  0  0
  8 12  1  0  0  0  0
  9 13  1  1  0  0  0
 10 14  2  0  0  0  0
 10 15  1  0  0  0  0
 11 16  2  0  0  0  0
 11 17  1  0  0  0  0
 12 18  2  0  0  0  0
 12 19  1  0  0  0  0
 13 20  1  0  0  0  0
 13 21  1  0  0  0  0
 14 22  1  0  0  0  0
 14 23  1  0  0  0  0
 15 24  2  0  0  0  0
 18 25  1  0  0  0  0
 19 26  2  0  0  0  0
 20 27  1  0  0  0  0
 21 28  2  0  0  0  0
 21 29  1  0  0  0  0
 22 30  1  0  0  0  0
 22 31  1  0  0  0  0
 23 32  1  0  0  0  0
 23 33  2  0  0  0  0
 25 34  2  0  0  0  0
 27 35  1  0  0  0  0
 29 36  1  0  0  0  0
 32 37  1  0  0  0  0
 34 38  1  0  0  0  0
 35 39  2  0  0  0  0
 36 40  1  0  0  0  0
 37 41  2  0  0  0  0
 37 42  1  0  0  0  0
 40 43  2  0  0  0  0
 40 44  1  0  0  0  0
 42 45  1  0  0  0  0
 43 46  1  0  0  0  0
 44 47  2  0  0  0  0
 45 48  2  0  0  0  0
 45 49  1  0  0  0  0
 46 50  2  0  0  0  0
 48 51  1  0  0  0  0
 49 52  2  0  0  0  0
 51 53  2  0  0  0  0
 53 54  1  0  0  0  0
 54 55  1  0  0  0  0
 54 56  1  0  0  0  0
 55 57  1  0  0  0  0
 57 58  1  0  0  0  0
  7  9  1  0  0  0  0
 17 20  1  0  0  0  0
 24 33  1  0  0  0  0
 26 34  1  0  0  0  0
 30 32  2  0  0  0  0
 47 50  1  0  0  0  0
 52 53  1  0  0  0  0
 56 57  1  0  0  0  0
M  END
>  <MolRegNo>
2036139

>  <m>
=

>  <Value>
4870

>  <Unit>
nM

>  <Type>
IC50

>  <pValue>
5.31

>  <Ligand Efficiency>
0.13

>  <Binding Efficiency>
6.78

>  <Surface Efficiency>
3.18

>  <Assay Index>
974120

>  <Assay Category>


>  <Assay Organism>
Homo sapiens

>  <Target ID>
17045

>  <Target Name>
Cytochrome P450 3A4

>  <Target Organism>
Homo sapiens

>  <Target Description>
Target is a single protein chain

>  <Sequence Accession>
P08684

>  <Reference>


>  <Pubmed ID>


>  <DOI>


$$$$
2036140
Actelion Java MolfileCreator 1.0

 64 72  0  0  1  0  0  0  0  0999 V2000
    0.0000   -0.0000   -0.0000 O   0  0  0  0  0  0  0  0  0  0  0  0
   -0.0121    1.2441   -0.0000 C   0  0  0  0  0  0  0  0  0  0  0  0
    1.3045    2.0171   -0.0000 N   0  0  0  0  0  0  0  0  0  0  0  0
   -1.3528    2.0171   -0.0000 C   0  0  0  0  0  0  0  0  0  0  0  0
    1.2924    3.5631   -0.0000 C   0  0  0  0  0  0  0  0  0  0  0  0
    2.6210    1.2682   -0.0000 C   0  0  0  0  0  0  0  0  0  0  0  0
   -1.3648    3.5631   -0.0000 N   0  0  0  0  0  0  0  0  0  0  0  0
   -2.6935    1.2682   -0.0000 C   0  0  0  0  0  0  0  0  0  0  0  0
   -0.0483    4.3361   -0.0000 C   0  0  0  0  0  0  0  0  0  0  0  0
    3.9375    2.0533   -0.0000 C   0  0  0  0  0  0  0  0  0  0  0  0
   -2.7055    4.3361   -0.0000 C   0  0  0  0  0  0  0  0  0  0  0  0
   -4.0341    2.0533   -0.0000 C   0  0  0  0  0  0  0  0  0  0  0  0
   -0.0604    5.8821   -0.0000 N   0  0  0  0  0  0  0  0  0  0  0  0
    5.2540    1.3045   -0.0000 C   0  0  0  0  0  0  0  0  0  0  0  0
    3.9254    3.5993   -0.0000 C   0  0  0  0  0  0  0  0  0  0  0  0
   -3.7805    3.7322   -0.0000 O   0  0  0  0  0  0  0  0  0  0  0  0
   -2.7176    5.8821   -0.0000 C   0  0  0  0  0  0  0  0  0  0  0  0
   -5.3748    1.3045   -0.0000 C   0  0  0  0  0  0  0  0  0  0  0  0
   -4.0462    3.5993   -0.0000 C   0  0  0  0  0  0  0  0  0  0  0  0
   -1.4011    6.6551   -0.0000 N   0  0  0  0  0  0  0  0  0  0  0  0
    1.2561    6.6672   -0.0000 C   0  0  0  0  0  0  0  0  0  0  0  0
    5.5681   -0.1812   -0.0000 N   0  0  0  0  0  0  0  0  0  0  0  0
    6.5706    2.0895   -0.0000 C   0  0  0  0  0  0  0  0  0  0  0  0
    5.2420    4.3844   -0.0000 C   0  0  0  0  0  0  0  0  0  0  0  0
   -6.7155    2.0895   -0.0000 C   0  0  0  0  0  0  0  0  0  0  0  0
   -5.3869    4.3844   -0.0000 C   0  0  0  0  0  0  0  0  0  0  0  0
   -1.4132    8.2011   -0.0000 C   0  0  0  0  0  0  0  0  0  0  0  0
    2.3070    6.0633   -0.0000 O   0  0  0  0  0  0  0  0  0  0  0  0
    1.2441    8.2132   -0.0000 N   0  0  0  0  0  0  0  0  0  0  0  0
    7.0779   -0.3261   -0.0000 C   0  0  0  0  0  0  0  0  0  0  0  0
    4.7347   -1.0870   -0.0000 C   0  0  0  0  0  0  0  0  0  0  0  0
    7.7059    1.0750   -0.0000 C   0  0  0  0  0  0  0  0  0  0  0  0
    6.5585    3.6356   -0.0000 C   0  0  0  0  0  0  0  0  0  0  0  0
   -6.7276    3.6356   -0.0000 C   0  0  0  0  0  0  0  0  0  0  0  0
   -2.7538    8.9742   -0.0000 C   0  0  0  0  0  0  0  0  0  0  0  0
    2.5606    8.9983   -0.0000 C   0  0  0  0  0  0  0  0  0  0  0  0
    9.1916    1.4132   -0.0000 C   0  0  0  0  0  0  0  0  0  0  0  0
   -7.8026    4.2636   -0.0000 O   0  0  0  0  0  0  0  0  0  0  0  0
   -2.7659   10.2182   -0.0000 C   0  0  0  0  0  0  0  0  0  0  0  0
    2.5485   10.5443   -0.0000 C   0  0  0  0  0  0  0  0  0  0  0  0
    9.5539    2.5968   -0.0000 O   0  0  0  0  0  0  0  0  0  0  0  0
   10.2061    0.2899   -0.0000 N   0  0  0  0  0  0  0  0  0  0  0  0
    3.8650   11.3294   -0.0000 C   0  0  0  0  0  0  0  0  0  0  0  0
    1.2078   11.3173   -0.0000 C   0  0  0  0  0  0  0  0  0  0  0  0
   11.6918    0.6281   -0.0000 C   0  0  0  0  0  0  0  0  0  0  0  0
    3.8530   12.8754   -0.0000 C   0  0  0  0  0  0  0  0  0  0  0  0
    1.1957   12.8634   -0.0000 C   0  0  0  0  0  0  0  0  0  0  0  0
   12.1507    2.1016   -0.0000 C   0  0  0  0  0  0  0  0  0  0  0  0
   12.7063   -0.4952   -0.0000 C   0  0  0  0  0  0  0  0  0  0  0  0
    2.5123   13.6485   -0.0000 C   0  0  0  0  0  0  0  0  0  0  0  0
   13.6364    2.4398   -0.0000 N   0  0  0  0  0  0  0  0  0  0  0  0
   14.1920   -0.1570   -0.0000 C   0  0  0  0  0  0  0  0  0  0  0  0
   14.6509    1.3165   -0.0000 C   0  0  0  0  0  0  0  0  0  0  0  0
   16.1366    1.6547   -0.0000 N   0  0  0  0  0  0  0  0  0  0  0  0
   17.3686    0.8213   -0.0000 C   0  0  0  0  0  0  0  0  0  0  0  0
   16.8975    2.9471   -0.0000 C   0  0  0  0  0  0  0  0  0  0  0  0
   18.1899    2.1258   -0.0000 C   0  0  0  0  0  0  0  0  0  0  0  0
   19.6755    2.4640   -0.0000 N   0  0  0  0  0  0  0  0  0  0  0  0
   20.8713    1.5581   -0.0000 C   0  0  0  0  0  0  0  0  0  0  0  0
   19.8446    3.9979   -0.0000 C   0  0  0  0  0  0  0  0  0  0  0  0
   22.2723    2.1620   -0.0000 C   0  0  0  0  0  0  0  0  0  0  0  0
   21.2457    4.6018   -0.0000 C   0  0  0  0  0  0  0  0  0  0  0  0
   22.4535    3.6960   -0.0000 N   0  0  0  0  0  0  0  0  0  0  0  0
   23.5768    4.1912   -0.0000 C   0  0  0  0  0  0  0  0  0  0  0  0
  1  2  2  0  0  0  0
  2  3  1  0  0  0  0
  2  4  1  0  0  0  0
  3  5  1  0  0  0  0
  3  6  1  0  0  0  0
  4  7  1  0  0  0  0
  4  8  1  6  0  0  0
  5  9  1  0  0  0  0
  6 10  1  0  0  0  0
  7 11  1  0  0  0  0
  8 12  1  0  0  0  0
  9 13  1  1  0  0  0
 10 14  2  0  0  0  0
 10 15  1  0  0  0  0
 11 16  2  0  0  0  0
 11 17  1  0  0  0  0
 12 18  2  0  0  0  0
 12 19  1  0  0  0  0
 13 20  1  0  0  0  0
 13 21  1  0  0  0  0
 14 22  1  0  0  0  0
 14 23  1  0  0  0  0
 15 24  2  0  0  0  0
 18 25  1  0  0  0  0
 19 26  2  0  0  0  0
 20 27  1  0  0  0  0
 21 28  2  0  0  0  0
 21 29  1  0  0  0  0
 22 30  1  0  0  0  0
 22 31  1  0  0  0  0
 23 32  1  0  0  0  0
 23 33  2  0  0  0  0
 25 34  2  0  0  0  0
 27 35  1  0  0  0  0
 29 36  1  0  0  0  0
 32 37  1  0  0  0  0
 34 38  1  0  0  0  0
 35 39  2  0  0  0  0
 36 40  1  0  0  0  0
 37 41  2  0  0  0  0
 37 42  1  0  0  0  0
 40 43  2  0  0  0  0
 40 44  1  0  0  0  0
 42 45  1  0  0  0  0
 43 46  1  0  0  0  0
 44 47  2  0  0  0  0
 45 48  2  0  0  0  0
 45 49  1  0  0  0  0
 46 50  2  0  0  0  0
 48 51  1  0  0  0  0
 49 52  2  0  0  0  0
 51 53  2  0  0  0  0
 53 54  1  0  0  0  0
 54 55  1  0  0  0  0
 54 56  1  0  0  0  0
 55 57  1  0  0  0  0
 57 58  1  0  0  0  0
 58 59  1  0  0  0  0
 58 60  1  0  0  0  0
 59 61  1  0  0  0  0
 60 62  1  0  0  0  0
 61 63  1  0  0  0  0
 63 64  1  0  0  0  0
  7  9  1  0  0  0  0
 17 20  1  0  0  0  0
 24 33  1  0  0  0  0
 26 34  1  0  0  0  0
 30 32  2  0  0  0  0
 47 50  1  0  0  0  0
 52 53  1  0  0  0  0
 56 57  1  0  0  0  0
 62 63  1  0  0  0  0
M  END
>  <MolRegNo>
2036140

>  <m>
=

>  <Value>
4100

>  <Unit>
nM

>  <Type>
IC50

>  <pValue>
5.39

>  <Ligand Efficiency>
0.11

>  <Binding Efficiency>
6.22

>  <Surface Efficiency>
3.52

>  <Assay Index>
974120

>  <Assay Category>


>  <Assay Organism>
Homo sapiens

>  <Target ID>
17045

>  <Target Name>
Cytochrome P450 3A4

>  <Target Organism>
Homo sapiens

>  <Target Description>
Target is a single protein chain

>  <Sequence Accession>
P08684

>  <Reference>


>  <Pubmed ID>


>  <DOI>


$$$$
2036141
Actelion Java MolfileCreator 1.0

 65 73  0  0  1  0  0  0  0  0999 V2000
    0.0000   -0.0000   -0.0000 O   0  0  0  0  0  0  0  0  0  0  0  0
   -0.0121    1.2436   -0.0000 C   0  0  0  0  0  0  0  0  0  0  0  0
    1.3040    2.0163   -0.0000 N   0  0  0  0  0  0  0  0  0  0  0  0
   -1.3522    2.0163   -0.0000 C   0  0  0  0  0  0  0  0  0  0  0  0
    1.2919    3.5617   -0.0000 C   0  0  0  0  0  0  0  0  0  0  0  0
    2.6200    1.2677   -0.0000 C   0  0  0  0  0  0  0  0  0  0  0  0
   -1.3643    3.5617   -0.0000 N   0  0  0  0  0  0  0  0  0  0  0  0
   -2.6924    1.2677   -0.0000 C   0  0  0  0  0  0  0  0  0  0  0  0
   -0.0483    4.3344   -0.0000 C   0  0  0  0  0  0  0  0  0  0  0  0
    3.9360    2.0525   -0.0000 C   0  0  0  0  0  0  0  0  0  0  0  0
   -2.7045    4.3344   -0.0000 C   0  0  0  0  0  0  0  0  0  0  0  0
   -4.0326    2.0525   -0.0000 C   0  0  0  0  0  0  0  0  0  0  0  0
   -0.0604    5.8799   -0.0000 N   0  0  0  0  0  0  0  0  0  0  0  0
    5.2520    1.3040   -0.0000 C   0  0  0  0  0  0  0  0  0  0  0  0
    3.9239    3.5979   -0.0000 C   0  0  0  0  0  0  0  0  0  0  0  0
   -3.7790    3.7308   -0.0000 O   0  0  0  0  0  0  0  0  0  0  0  0
   -2.7166    5.8799   -0.0000 C   0  0  0  0  0  0  0  0  0  0  0  0
   -5.3728    1.3040   -0.0000 C   0  0  0  0  0  0  0  0  0  0  0  0
   -4.0447    3.5979   -0.0000 C   0  0  0  0  0  0  0  0  0  0  0  0
   -1.4005    6.6526   -0.0000 N   0  0  0  0  0  0  0  0  0  0  0  0
    1.2557    6.6646   -0.0000 C   0  0  0  0  0  0  0  0  0  0  0  0
    5.5659   -0.1811   -0.0000 N   0  0  0  0  0  0  0  0  0  0  0  0
    6.5681    2.0887   -0.0000 C   0  0  0  0  0  0  0  0  0  0  0  0
    5.2400    4.3827   -0.0000 C   0  0  0  0  0  0  0  0  0  0  0  0
   -6.7129    2.0887   -0.0000 C   0  0  0  0  0  0  0  0  0  0  0  0
   -5.3848    4.3827   -0.0000 C   0  0  0  0  0  0  0  0  0  0  0  0
   -1.4126    8.1980   -0.0000 C   0  0  0  0  0  0  0  0  0  0  0  0
    2.3061    6.0610   -0.0000 O   0  0  0  0  0  0  0  0  0  0  0  0
    1.2436    8.2101   -0.0000 N   0  0  0  0  0  0  0  0  0  0  0  0
    7.0752   -0.3260   -0.0000 C   0  0  0  0  0  0  0  0  0  0  0  0
    4.7329   -1.0866   -0.0000 C   0  0  0  0  0  0  0  0  0  0  0  0
    7.7030    1.0746   -0.0000 C   0  0  0  0  0  0  0  0  0  0  0  0
    6.5560    3.6342   -0.0000 C   0  0  0  0  0  0  0  0  0  0  0  0
   -6.7250    3.6342   -0.0000 C   0  0  0  0  0  0  0  0  0  0  0  0
   -2.7528    8.9707   -0.0000 C   0  0  0  0  0  0  0  0  0  0  0  0
    2.5596    8.9949   -0.0000 C   0  0  0  0  0  0  0  0  0  0  0  0
    9.1880    1.4126   -0.0000 C   0  0  0  0  0  0  0  0  0  0  0  0
   -7.7996    4.2620   -0.0000 O   0  0  0  0  0  0  0  0  0  0  0  0
   -2.7649   10.2143   -0.0000 C   0  0  0  0  0  0  0  0  0  0  0  0
    2.5475   10.5403   -0.0000 C   0  0  0  0  0  0  0  0  0  0  0  0
    9.5502    2.5958   -0.0000 O   0  0  0  0  0  0  0  0  0  0  0  0
   10.2022    0.2898   -0.0000 N   0  0  0  0  0  0  0  0  0  0  0  0
    3.8636   11.3251   -0.0000 C   0  0  0  0  0  0  0  0  0  0  0  0
    1.2074   11.3130   -0.0000 C   0  0  0  0  0  0  0  0  0  0  0  0
   11.6873    0.6278   -0.0000 C   0  0  0  0  0  0  0  0  0  0  0  0
    3.8515   12.8705   -0.0000 C   0  0  0  0  0  0  0  0  0  0  0  0
    1.1953   12.8584   -0.0000 C   0  0  0  0  0  0  0  0  0  0  0  0
   12.1461    2.1008   -0.0000 C   0  0  0  0  0  0  0  0  0  0  0  0
   12.7015   -0.4950   -0.0000 C   0  0  0  0  0  0  0  0  0  0  0  0
    2.5113   13.6432   -0.0000 C   0  0  0  0  0  0  0  0  0  0  0  0
   13.6311    2.4389   -0.0000 N   0  0  0  0  0  0  0  0  0  0  0  0
   14.1865   -0.1570   -0.0000 C   0  0  0  0  0  0  0  0  0  0  0  0
   14.6453    1.3160   -0.0000 C   0  0  0  0  0  0  0  0  0  0  0  0
   16.1304    1.6541   -0.0000 N   0  0  0  0  0  0  0  0  0  0  0  0
   17.3619    0.8210   -0.0000 C   0  0  0  0  0  0  0  0  0  0  0  0
   16.8910    2.9460   -0.0000 C   0  0  0  0  0  0  0  0  0  0  0  0
   18.1829    2.1250   -0.0000 C   0  0  0  0  0  0  0  0  0  0  0  0
   19.6680    2.4630   -0.0000 N   0  0  0  0  0  0  0  0  0  0  0  0
   20.8632    1.5575   -0.0000 C   0  0  0  0  0  0  0  0  0  0  0  0
   19.8370    3.9964   -0.0000 C   0  0  0  0  0  0  0  0  0  0  0  0
   22.2638    2.1612   -0.0000 C   0  0  0  0  0  0  0  0  0  0  0  0
   21.2375    4.6001   -0.0000 C   0  0  0  0  0  0  0  0  0  0  0  0
   22.4449    3.6945   -0.0000 C   0  0  0  0  0  0  0  0  0  0  0  0
   23.8454    4.3103   -0.0000 O   0  0  0  0  0  0  0  0  0  0  0  0
   23.9782    5.5418   -0.0000 C   0  0  0  0  0  0  0  0  0  0  0  0
  1  2  2  0  0  0  0
  2  3  1  0  0  0  0
  2  4  1  0  0  0  0
  3  5  1  0  0  0  0
  3  6  1  0  0  0  0
  4  7  1  0  0  0  0
  4  8  1  6  0  0  0
  5  9  1  0  0  0  0
  6 10  1  0  0  0  0
  7 11  1  0  0  0  0
  8 12  1  0  0  0  0
  9 13  1  1  0  0  0
 10 14  2  0  0  0  0
 10 15  1  0  0  0  0
 11 16  2  0  0  0  0
 11 17  1  0  0  0  0
 12 18  2  0  0  0  0
 12 19  1  0  0  0  0
 13 20  1  0  0  0  0
 13 21  1  0  0  0  0
 14 22  1  0  0  0  0
 14 23  1  0  0  0  0
 15 24  2  0  0  0  0
 18 25  1  0  0  0  0
 19 26  2  0  0  0  0
 20 27  1  0  0  0  0
 21 28  2  0  0  0  0
 21 29  1  0  0  0  0
 22 30  1  0  0  0  0
 22 31  1  0  0  0  0
 23 32  1  0  0  0  0
 23 33  2  0  0  0  0
 25 34  2  0  0  0  0
 27 35  1  0  0  0  0
 29 36  1  0  0  0  0
 32 37  1  0  0  0  0
 34 38  1  0  0  0  0
 35 39  2  0  0  0  0
 36 40  1  0  0  0  0
 37 41  2  0  0  0  0
 37 42  1  0  0  0  0
 40 43  2  0  0  0  0
 40 44  1  0  0  0  0
 42 45  1  0  0  0  0
 43 46  1  0  0  0  0
 44 47  2  0  0  0  0
 45 48  2  0  0  0  0
 45 49  1  0  0  0  0
 46 50  2  0  0  0  0
 48 51  1  0  0  0  0
 49 52  2  0  0  0  0
 51 53  2  0  0  0  0
 53 54  1  0  0  0  0
 54 55  1  0  0  0  0
 54 56  1  0  0  0  0
 55 57  1  0  0  0  0
 57 58  1  0  0  0  0
 58 59  1  0  0  0  0
 58 60  1  0  0  0  0
 59 61  1  0  0  0  0
 60 62  1  0  0  0  0
 61 63  1  0  0  0  0
 63 64  1  0  0  0  0
 64 65  1  0  0  0  0
  7  9  1  0  0  0  0
 17 20  1  0  0  0  0
 24 33  1  0  0  0  0
 26 34  1  0  0  0  0
 30 32  2  0  0  0  0
 47 50  1  0  0  0  0
 52 53  1  0  0  0  0
 56 57  1  0  0  0  0
 62 63  1  0  0  0  0
M  END
>  <MolRegNo>
2036141

>  <m>
=

>  <Value>
2560

>  <Unit>
nM

>  <Type>
IC50

>  <pValue>
5.59

>  <Ligand Efficiency>
0.12

>  <Binding Efficiency>
6.35

>  <Surface Efficiency>
3.52

>  <Assay Index>
974120

>  <Assay Category>


>  <Assay Organism>
Homo sapiens

>  <Target ID>
17045

>  <Target Name>
Cytochrome P450 3A4

>  <Target Organism>
Homo sapiens

>  <Target Description>
Target is a single protein chain

>  <Sequence Accession>
P08684

>  <Reference>


>  <Pubmed ID>


>  <DOI>


$$$$
2036142
Actelion Java MolfileCreator 1.0

 62 70  0  0  1  0  0  0  0  0999 V2000
    0.0000   -0.0000   -0.0000 O   0  0  0  0  0  0  0  0  0  0  0  0
   -0.0121    1.2441   -0.0000 C   0  0  0  0  0  0  0  0  0  0  0  0
    1.3045    2.0171   -0.0000 N   0  0  0  0  0  0  0  0  0  0  0  0
   -1.3528    2.0171   -0.0000 C   0  0  0  0  0  0  0  0  0  0  0  0
    1.2924    3.5632   -0.0000 C   0  0  0  0  0  0  0  0  0  0  0  0
    2.6210    1.2682   -0.0000 C   0  0  0  0  0  0  0  0  0  0  0  0
   -1.3649    3.5632   -0.0000 N   0  0  0  0  0  0  0  0  0  0  0  0
   -2.6935    1.2682   -0.0000 C   0  0  0  0  0  0  0  0  0  0  0  0
   -0.0483    4.3362   -0.0000 C   0  0  0  0  0  0  0  0  0  0  0  0
    3.9376    2.0534   -0.0000 C   0  0  0  0  0  0  0  0  0  0  0  0
   -2.7056    4.3362   -0.0000 C   0  0  0  0  0  0  0  0  0  0  0  0
   -4.0342    2.0534   -0.0000 C   0  0  0  0  0  0  0  0  0  0  0  0
   -0.0604    5.8823   -0.0000 N   0  0  0  0  0  0  0  0  0  0  0  0
    5.2542    1.3045   -0.0000 C   0  0  0  0  0  0  0  0  0  0  0  0
    3.9255    3.5994   -0.0000 C   0  0  0  0  0  0  0  0  0  0  0  0
   -3.7806    3.7323   -0.0000 O   0  0  0  0  0  0  0  0  0  0  0  0
   -2.7177    5.8823   -0.0000 C   0  0  0  0  0  0  0  0  0  0  0  0
   -5.3750    1.3045   -0.0000 C   0  0  0  0  0  0  0  0  0  0  0  0
   -4.0463    3.5994   -0.0000 C   0  0  0  0  0  0  0  0  0  0  0  0
   -1.4011    6.6553   -0.0000 N   0  0  0  0  0  0  0  0  0  0  0  0
    1.2562    6.6674   -0.0000 C   0  0  0  0  0  0  0  0  0  0  0  0
    5.5682   -0.1812   -0.0000 N   0  0  0  0  0  0  0  0  0  0  0  0
    6.5707    2.0896   -0.0000 C   0  0  0  0  0  0  0  0  0  0  0  0
    5.2421    4.3845   -0.0000 C   0  0  0  0  0  0  0  0  0  0  0  0
   -6.7157    2.0896   -0.0000 C   0  0  0  0  0  0  0  0  0  0  0  0
   -5.3870    4.3845   -0.0000 C   0  0  0  0  0  0  0  0  0  0  0  0
   -1.4132    8.2013   -0.0000 C   0  0  0  0  0  0  0  0  0  0  0  0
    2.3070    6.0634   -0.0000 O   0  0  0  0  0  0  0  0  0  0  0  0
    1.2441    8.2134   -0.0000 N   0  0  0  0  0  0  0  0  0  0  0  0
    7.0780   -0.3261   -0.0000 C   0  0  0  0  0  0  0  0  0  0  0  0
    4.7348   -1.0871   -0.0000 C   0  0  0  0  0  0  0  0  0  0  0  0
    7.7061    1.0750   -0.0000 C   0  0  0  0  0  0  0  0  0  0  0  0
    6.5587    3.6356   -0.0000 C   0  0  0  0  0  0  0  0  0  0  0  0
   -6.7278    3.6356   -0.0000 C   0  0  0  0  0  0  0  0  0  0  0  0
   -2.7539    8.9744   -0.0000 C   0  0  0  0  0  0  0  0  0  0  0  0
    2.5607    8.9985   -0.0000 C   0  0  0  0  0  0  0  0  0  0  0  0
    9.1918    1.4132   -0.0000 C   0  0  0  0  0  0  0  0  0  0  0  0
   -7.8028    4.2637   -0.0000 O   0  0  0  0  0  0  0  0  0  0  0  0
   -2.7660   10.2185   -0.0000 C   0  0  0  0  0  0  0  0  0  0  0  0
    2.5486   10.5446   -0.0000 C   0  0  0  0  0  0  0  0  0  0  0  0
    9.5541    2.5969   -0.0000 O   0  0  0  0  0  0  0  0  0  0  0  0
   10.2064    0.2899   -0.0000 N   0  0  0  0  0  0  0  0  0  0  0  0
    3.8651   11.3297   -0.0000 C   0  0  0  0  0  0  0  0  0  0  0  0
    1.2079   11.3176   -0.0000 C   0  0  0  0  0  0  0  0  0  0  0  0
   11.6920    0.6281   -0.0000 C   0  0  0  0  0  0  0  0  0  0  0  0
    3.8531   12.8757   -0.0000 C   0  0  0  0  0  0  0  0  0  0  0  0
    1.1958   12.8637   -0.0000 C   0  0  0  0  0  0  0  0  0  0  0  0
   12.1510    2.1017   -0.0000 C   0  0  0  0  0  0  0  0  0  0  0  0
   12.7066   -0.4952   -0.0000 C   0  0  0  0  0  0  0  0  0  0  0  0
    2.5123   13.6488   -0.0000 C   0  0  0  0  0  0  0  0  0  0  0  0
   13.6367    2.4399   -0.0000 N   0  0  0  0  0  0  0  0  0  0  0  0
   14.1923   -0.1570   -0.0000 C   0  0  0  0  0  0  0  0  0  0  0  0
   14.6513    1.3166   -0.0000 C   0  0  0  0  0  0  0  0  0  0  0  0
   16.1370    1.6548   -0.0000 N   0  0  0  0  0  0  0  0  0  0  0  0
   16.7167    3.0680   -0.0000 C   0  0  0  0  0  0  0  0  0  0  0  0
   17.2482    0.6402   -0.0000 C   0  0  0  0  0  0  0  0  0  0  0  0
   18.2265    2.9230   -0.0000 C   0  0  0  0  0  0  0  0  0  0  0  0
   18.5527    1.4253   -0.0000 C   0  0  0  0  0  0  0  0  0  0  0  0
   19.5431    3.7081   -0.0000 N   0  0  0  0  0  0  0  0  0  0  0  0
   20.0625    1.2803   -0.0000 C   0  0  0  0  0  0  0  0  0  0  0  0
   20.6785    2.7056   -0.0000 C   0  0  0  0  0  0  0  0  0  0  0  0
   19.6518    4.9401   -0.0000 C   0  0  0  0  0  0  0  0  0  0  0  0
  1  2  2  0  0  0  0
  2  3  1  0  0  0  0
  2  4  1  0  0  0  0
  3  5  1  0  0  0  0
  3  6  1  0  0  0  0
  4  7  1  0  0  0  0
  4  8  1  6  0  0  0
  5  9  1  0  0  0  0
  6 10  1  0  0  0  0
  7 11  1  0  0  0  0
  8 12  1  0  0  0  0
  9 13  1  1  0  0  0
 10 14  2  0  0  0  0
 10 15  1  0  0  0  0
 11 16  2  0  0  0  0
 11 17  1  0  0  0  0
 12 18  2  0  0  0  0
 12 19  1  0  0  0  0
 13 20  1  0  0  0  0
 13 21  1  0  0  0  0
 14 22  1  0  0  0  0
 14 23  1  0  0  0  0
 15 24  2  0  0  0  0
 18 25  1  0  0  0  0
 19 26  2  0  0  0  0
 20 27  1  0  0  0  0
 21 28  2  0  0  0  0
 21 29  1  0  0  0  0
 22 30  1  0  0  0  0
 22 31  1  0  0  0  0
 23 32  1  0  0  0  0
 23 33  2  0  0  0  0
 25 34  2  0  0  0  0
 27 35  1  0  0  0  0
 29 36  1  0  0  0  0
 32 37  1  0  0  0  0
 34 38  1  0  0  0  0
 35 39  2  0  0  0  0
 36 40  1  0  0  0  0
 37 41  2  0  0  0  0
 37 42  1  0  0  0  0
 40 43  2  0  0  0  0
 40 44  1  0  0  0  0
 42 45  1  0  0  0  0
 43 46  1  0  0  0  0
 44 47  2  0  0  0  0
 45 48  2  0  0  0  0
 45 49  1  0  0  0  0
 46 50  2  0  0  0  0
 48 51  1  0  0  0  0
 49 52  2  0  0  0  0
 51 53  2  0  0  0  0
 53 54  1  0  0  0  0
 54 55  1  0  0  0  0
 54 56  1  0  0  0  0
 55 57  1  0  0  0  0
 56 58  1  0  0  0  0
 57 59  1  0  0  0  0
 58 60  1  0  0  0  0
 59 61  1  0  0  0  0
 59 62  1  0  0  0  0
  7  9  1  0  0  0  0
 17 20  1  0  0  0  0
 24 33  1  0  0  0  0
 26 34  1  0  0  0  0
 30 32  2  0  0  0  0
 47 50  1  0  0  0  0
 52 53  1  0  0  0  0
 57 58  1  0  0  0  0
 60 61  1  0  0  0  0
M  END
>  <MolRegNo>
2036142

>  <m>
=

>  <Value>
7640

>  <Unit>
nM

>  <Type>
IC50

>  <pValue>
5.12

>  <Ligand Efficiency>
0.11

>  <Binding Efficiency>
6.11

>  <Surface Efficiency>
3.42

>  <Assay Index>
974120

>  <Assay Category>


>  <Assay Organism>
Homo sapiens

>  <Target ID>
17045

>  <Target Name>
Cytochrome P450 3A4

>  <Target Organism>
Homo sapiens

>  <Target Description>
Target is a single protein chain

>  <Sequence Accession>
P08684

>  <Reference>


>  <Pubmed ID>


>  <DOI>


$$$$
2036143
Actelion Java MolfileCreator 1.0

 64 72  0  0  1  0  0  0  0  0999 V2000
    0.0000   -0.0000   -0.0000 O   0  0  0  0  0  0  0  0  0  0  0  0
   -0.0121    1.2429   -0.0000 C   0  0  0  0  0  0  0  0  0  0  0  0
    1.3032    2.0151   -0.0000 N   0  0  0  0  0  0  0  0  0  0  0  0
   -1.3515    2.0151   -0.0000 C   0  0  0  0  0  0  0  0  0  0  0  0
    1.2911    3.5597   -0.0000 C   0  0  0  0  0  0  0  0  0  0  0  0
    2.6185    1.2670   -0.0000 C   0  0  0  0  0  0  0  0  0  0  0  0
   -1.3635    3.5597   -0.0000 N   0  0  0  0  0  0  0  0  0  0  0  0
   -2.6909    1.2670   -0.0000 C   0  0  0  0  0  0  0  0  0  0  0  0
   -0.0483    4.3320   -0.0000 C   0  0  0  0  0  0  0  0  0  0  0  0
    3.9338    2.0513   -0.0000 C   0  0  0  0  0  0  0  0  0  0  0  0
   -2.7030    4.3320   -0.0000 C   0  0  0  0  0  0  0  0  0  0  0  0
   -4.0303    2.0513   -0.0000 C   0  0  0  0  0  0  0  0  0  0  0  0
   -0.0603    5.8765   -0.0000 N   0  0  0  0  0  0  0  0  0  0  0  0
    5.2490    1.3032   -0.0000 C   0  0  0  0  0  0  0  0  0  0  0  0
    3.9217    3.5959   -0.0000 C   0  0  0  0  0  0  0  0  0  0  0  0
   -3.7769    3.7286   -0.0000 O   0  0  0  0  0  0  0  0  0  0  0  0
   -2.7150    5.8765   -0.0000 C   0  0  0  0  0  0  0  0  0  0  0  0
   -5.3697    1.3032   -0.0000 C   0  0  0  0  0  0  0  0  0  0  0  0
   -4.0424    3.5959   -0.0000 C   0  0  0  0  0  0  0  0  0  0  0  0
   -1.3997    6.6488   -0.0000 N   0  0  0  0  0  0  0  0  0  0  0  0
    1.2549    6.6608   -0.0000 C   0  0  0  0  0  0  0  0  0  0  0  0
    5.5628   -0.1810   -0.0000 N   0  0  0  0  0  0  0  0  0  0  0  0
    6.5643    2.0875   -0.0000 C   0  0  0  0  0  0  0  0  0  0  0  0
    5.2370    4.3802   -0.0000 C   0  0  0  0  0  0  0  0  0  0  0  0
   -6.7091    2.0875   -0.0000 C   0  0  0  0  0  0  0  0  0  0  0  0
   -5.3818    4.3802   -0.0000 C   0  0  0  0  0  0  0  0  0  0  0  0
   -1.4118    8.1933   -0.0000 C   0  0  0  0  0  0  0  0  0  0  0  0
    2.3047    6.0575   -0.0000 O   0  0  0  0  0  0  0  0  0  0  0  0
    1.2429    8.2054   -0.0000 N   0  0  0  0  0  0  0  0  0  0  0  0
    7.0711   -0.3258   -0.0000 C   0  0  0  0  0  0  0  0  0  0  0  0
    4.7302   -1.0860   -0.0000 C   0  0  0  0  0  0  0  0  0  0  0  0
    7.6986    1.0739   -0.0000 C   0  0  0  0  0  0  0  0  0  0  0  0
    6.5522    3.6321   -0.0000 C   0  0  0  0  0  0  0  0  0  0  0  0
   -6.7212    3.6321   -0.0000 C   0  0  0  0  0  0  0  0  0  0  0  0
   -2.7512    8.9656   -0.0000 C   0  0  0  0  0  0  0  0  0  0  0  0
    2.5582    8.9897   -0.0000 C   0  0  0  0  0  0  0  0  0  0  0  0
    9.1828    1.4118   -0.0000 C   0  0  0  0  0  0  0  0  0  0  0  0
   -7.7951    4.2596   -0.0000 O   0  0  0  0  0  0  0  0  0  0  0  0
   -2.7633   10.2085   -0.0000 C   0  0  0  0  0  0  0  0  0  0  0  0
    2.5461   10.5343   -0.0000 C   0  0  0  0  0  0  0  0  0  0  0  0
    9.5448    2.5944   -0.0000 O   0  0  0  0  0  0  0  0  0  0  0  0
   10.1964    0.2896   -0.0000 N   0  0  0  0  0  0  0  0  0  0  0  0
    3.8614   11.3186   -0.0000 C   0  0  0  0  0  0  0  0  0  0  0  0
    1.2067   11.3065   -0.0000 C   0  0  0  0  0  0  0  0  0  0  0  0
   11.6806    0.6275   -0.0000 C   0  0  0  0  0  0  0  0  0  0  0  0
    3.8493   12.8632   -0.0000 C   0  0  0  0  0  0  0  0  0  0  0  0
    1.1946   12.8511   -0.0000 C   0  0  0  0  0  0  0  0  0  0  0  0
   12.1392    2.0996   -0.0000 C   0  0  0  0  0  0  0  0  0  0  0  0
   12.6942   -0.4947   -0.0000 C   0  0  0  0  0  0  0  0  0  0  0  0
    2.5099   13.6354   -0.0000 C   0  0  0  0  0  0  0  0  0  0  0  0
   13.6234    2.4375   -0.0000 N   0  0  0  0  0  0  0  0  0  0  0  0
   14.1784   -0.1569   -0.0000 C   0  0  0  0  0  0  0  0  0  0  0  0
   14.6370    1.3153   -0.0000 C   0  0  0  0  0  0  0  0  0  0  0  0
   16.1212    1.6531   -0.0000 N   0  0  0  0  0  0  0  0  0  0  0  0
   16.7004    3.0650   -0.0000 C   0  0  0  0  0  0  0  0  0  0  0  0
   17.2313    0.6395   -0.0000 C   0  0  0  0  0  0  0  0  0  0  0  0
   18.2208    2.9202   -0.0000 C   0  0  0  0  0  0  0  0  0  0  0  0
   18.5466    1.4239   -0.0000 C   0  0  0  0  0  0  0  0  0  0  0  0
   17.8709    4.4285   -0.0000 C   0  0  0  0  0  0  0  0  0  0  0  0
   19.7171    2.7754   -0.0000 C   0  0  0  0  0  0  0  0  0  0  0  0
   19.1861    5.2128   -0.0000 N   0  0  0  0  0  0  0  0  0  0  0  0
   20.3204    4.1751   -0.0000 C   0  0  0  0  0  0  0  0  0  0  0  0
   19.3309    6.7453   -0.0000 C   0  0  0  0  0  0  0  0  0  0  0  0
   18.3294    7.4814   -0.0000 C   0  0  0  0  0  0  0  0  0  0  0  0
  1  2  2  0  0  0  0
  2  3  1  0  0  0  0
  2  4  1  0  0  0  0
  3  5  1  0  0  0  0
  3  6  1  0  0  0  0
  4  7  1  0  0  0  0
  4  8  1  6  0  0  0
  5  9  1  0  0  0  0
  6 10  1  0  0  0  0
  7 11  1  0  0  0  0
  8 12  1  0  0  0  0
  9 13  1  0  0  0  0
 10 14  2  0  0  0  0
 10 15  1  0  0  0  0
 11 16  2  0  0  0  0
 11 17  1  0  0  0  0
 12 18  2  0  0  0  0
 12 19  1  0  0  0  0
 13 20  1  0  0  0  0
 13 21  1  0  0  0  0
 14 22  1  0  0  0  0
 14 23  1  0  0  0  0
 15 24  2  0  0  0  0
 18 25  1  0  0  0  0
 19 26  2  0  0  0  0
 20 27  1  0  0  0  0
 21 28  2  0  0  0  0
 21 29  1  0  0  0  0
 22 30  1  0  0  0  0
 22 31  1  0  0  0  0
 23 32  1  0  0  0  0
 23 33  2  0  0  0  0
 25 34  2  0  0  0  0
 27 35  1  0  0  0  0
 29 36  1  0  0  0  0
 32 37  1  0  0  0  0
 34 38  1  0  0  0  0
 35 39  2  0  0  0  0
 36 40  1  0  0  0  0
 37 41  2  0  0  0  0
 37 42  1  0  0  0  0
 40 43  2  0  0  0  0
 40 44  1  0  0  0  0
 42 45  1  0  0  0  0
 43 46  1  0  0  0  0
 44 47  2  0  0  0  0
 45 48  2  0  0  0  0
 45 49  1  0  0  0  0
 46 50  2  0  0  0  0
 48 51  1  0  0  0  0
 49 52  2  0  0  0  0
 51 53  2  0  0  0  0
 53 54  1  0  0  0  0
 54 55  1  0  0  0  0
 54 56  1  0  0  0  0
 55 57  1  0  0  0  0
 56 58  1  0  0  0  0
 57 59  1  0  0  0  0
 57 60  1  0  0  0  0
 59 61  1  0  0  0  0
 60 62  1  0  0  0  0
 61 63  1  0  0  0  0
 63 64  1  0  0  0  0
  7  9  1  0  0  0  0
 17 20  1  0  0  0  0
 24 33  1  0  0  0  0
 26 34  1  0  0  0  0
 30 32  2  0  0  0  0
 47 50  1  0  0  0  0
 52 53  1  0  0  0  0
 57 58  1  0  0  0  0
 61 62  1  0  0  0  0
M  END
>  <MolRegNo>
2036143

>  <m>
=

>  <Value>
3910

>  <Unit>
nM

>  <Type>
IC50

>  <pValue>
5.41

>  <Ligand Efficiency>
0.12

>  <Binding Efficiency>
6.25

>  <Surface Efficiency>
3.61

>  <Assay Index>
974120

>  <Assay Category>


>  <Assay Organism>
Homo sapiens

>  <Target ID>
17045

>  <Target Name>
Cytochrome P450 3A4

>  <Target Organism>
Homo sapiens

>  <Target Description>
Target is a single protein chain

>  <Sequence Accession>
P08684

>  <Reference>


>  <Pubmed ID>


>  <DOI>


$$$$
2036144
Actelion Java MolfileCreator 1.0

 62 70  0  0  1  0  0  0  0  0999 V2000
    0.0000   -0.0000   -0.0000 O   0  0  0  0  0  0  0  0  0  0  0  0
   -0.0120    1.2404   -0.0000 C   0  0  0  0  0  0  0  0  0  0  0  0
    1.3006    2.0111   -0.0000 N   0  0  0  0  0  0  0  0  0  0  0  0
   -1.3487    2.0111   -0.0000 C   0  0  0  0  0  0  0  0  0  0  0  0
    1.2885    3.5525   -0.0000 C   0  0  0  0  0  0  0  0  0  0  0  0
    2.6132    1.2644   -0.0000 C   0  0  0  0  0  0  0  0  0  0  0  0
   -1.3608    3.5525   -0.0000 N   0  0  0  0  0  0  0  0  0  0  0  0
   -2.6854    1.2644   -0.0000 C   0  0  0  0  0  0  0  0  0  0  0  0
   -0.0482    4.3232   -0.0000 C   0  0  0  0  0  0  0  0  0  0  0  0
    3.9258    2.0472   -0.0000 C   0  0  0  0  0  0  0  0  0  0  0  0
   -2.6975    4.3232   -0.0000 C   0  0  0  0  0  0  0  0  0  0  0  0
   -4.0221    2.0472   -0.0000 C   0  0  0  0  0  0  0  0  0  0  0  0
   -0.0602    5.8646   -0.0000 N   0  0  0  0  0  0  0  0  0  0  0  0
    5.2384    1.3006   -0.0000 C   0  0  0  0  0  0  0  0  0  0  0  0
    3.9138    3.5886   -0.0000 C   0  0  0  0  0  0  0  0  0  0  0  0
   -3.7693    3.7211   -0.0000 O   0  0  0  0  0  0  0  0  0  0  0  0
   -2.7095    5.8646   -0.0000 C   0  0  0  0  0  0  0  0  0  0  0  0
   -5.3588    1.3006   -0.0000 C   0  0  0  0  0  0  0  0  0  0  0  0
   -4.0342    3.5886   -0.0000 C   0  0  0  0  0  0  0  0  0  0  0  0
   -1.3969    6.6353   -0.0000 N   0  0  0  0  0  0  0  0  0  0  0  0
    1.2524    6.6474   -0.0000 C   0  0  0  0  0  0  0  0  0  0  0  0
    5.5515   -0.1806   -0.0000 N   0  0  0  0  0  0  0  0  0  0  0  0
    6.5510    2.0833   -0.0000 C   0  0  0  0  0  0  0  0  0  0  0  0
    5.2264    4.3714   -0.0000 C   0  0  0  0  0  0  0  0  0  0  0  0
   -6.6955    2.0833   -0.0000 C   0  0  0  0  0  0  0  0  0  0  0  0
   -5.3709    4.3714   -0.0000 C   0  0  0  0  0  0  0  0  0  0  0  0
   -1.4090    8.1767   -0.0000 C   0  0  0  0  0  0  0  0  0  0  0  0
    2.3001    6.0453   -0.0000 O   0  0  0  0  0  0  0  0  0  0  0  0
    1.2404    8.1888   -0.0000 N   0  0  0  0  0  0  0  0  0  0  0  0
    7.0568   -0.3251   -0.0000 C   0  0  0  0  0  0  0  0  0  0  0  0
    4.7206   -1.0838   -0.0000 C   0  0  0  0  0  0  0  0  0  0  0  0
    7.6830    1.0718   -0.0000 C   0  0  0  0  0  0  0  0  0  0  0  0
    6.5390    3.6247   -0.0000 C   0  0  0  0  0  0  0  0  0  0  0  0
   -6.7076    3.6247   -0.0000 C   0  0  0  0  0  0  0  0  0  0  0  0
   -2.7457    8.9475   -0.0000 C   0  0  0  0  0  0  0  0  0  0  0  0
    2.5530    8.9715   -0.0000 C   0  0  0  0  0  0  0  0  0  0  0  0
    9.1642    1.4090   -0.0000 C   0  0  0  0  0  0  0  0  0  0  0  0
   -7.7794    4.2509   -0.0000 O   0  0  0  0  0  0  0  0  0  0  0  0
   -2.7577   10.1878   -0.0000 C   0  0  0  0  0  0  0  0  0  0  0  0
    2.5409   10.5130   -0.0000 C   0  0  0  0  0  0  0  0  0  0  0  0
    9.5255    2.5891   -0.0000 O   0  0  0  0  0  0  0  0  0  0  0  0
   10.1758    0.2890   -0.0000 N   0  0  0  0  0  0  0  0  0  0  0  0
    3.8535   11.2957   -0.0000 C   0  0  0  0  0  0  0  0  0  0  0  0
    1.2042   11.2837   -0.0000 C   0  0  0  0  0  0  0  0  0  0  0  0
   11.6570    0.6262   -0.0000 C   0  0  0  0  0  0  0  0  0  0  0  0
    3.8415   12.8371   -0.0000 C   0  0  0  0  0  0  0  0  0  0  0  0
    1.1922   12.8251   -0.0000 C   0  0  0  0  0  0  0  0  0  0  0  0
   12.1146    2.0954   -0.0000 C   0  0  0  0  0  0  0  0  0  0  0  0
   12.6685   -0.4937   -0.0000 C   0  0  0  0  0  0  0  0  0  0  0  0
    2.5048   13.6078   -0.0000 C   0  0  0  0  0  0  0  0  0  0  0  0
   13.5958    2.4326   -0.0000 N   0  0  0  0  0  0  0  0  0  0  0  0
   14.1497   -0.1566   -0.0000 C   0  0  0  0  0  0  0  0  0  0  0  0
   14.6074    1.3126   -0.0000 C   0  0  0  0  0  0  0  0  0  0  0  0
   16.0886    1.6498   -0.0000 N   0  0  0  0  0  0  0  0  0  0  0  0
   16.5462    3.1190   -0.0000 C   0  0  0  0  0  0  0  0  0  0  0  0
   17.1001    0.5299   -0.0000 C   0  0  0  0  0  0  0  0  0  0  0  0
   18.0274    3.4562   -0.0000 N   0  0  0  0  0  0  0  0  0  0  0  0
   18.5813    0.8670   -0.0000 C   0  0  0  0  0  0  0  0  0  0  0  0
   19.0389    2.3362   -0.0000 C   0  0  0  0  0  0  0  0  0  0  0  0
   18.7740    4.7929   -0.0000 C   0  0  0  0  0  0  0  0  0  0  0  0
   20.4238    2.9745   -0.0000 C   0  0  0  0  0  0  0  0  0  0  0  0
   20.2552    4.4918   -0.0000 C   0  0  0  0  0  0  0  0  0  0  0  0
  1  2  2  0  0  0  0
  2  3  1  0  0  0  0
  2  4  1  0  0  0  0
  3  5  1  0  0  0  0
  3  6  1  0  0  0  0
  4  7  1  0  0  0  0
  4  8  1  6  0  0  0
  5  9  1  0  0  0  0
  6 10  1  0  0  0  0
  7 11  1  0  0  0  0
  8 12  1  0  0  0  0
  9 13  1  0  0  0  0
 10 14  2  0  0  0  0
 10 15  1  0  0  0  0
 11 16  2  0  0  0  0
 11 17  1  0  0  0  0
 12 18  2  0  0  0  0
 12 19  1  0  0  0  0
 13 20  1  0  0  0  0
 13 21  1  0  0  0  0
 14 22  1  0  0  0  0
 14 23  1  0  0  0  0
 15 24  2  0  0  0  0
 18 25  1  0  0  0  0
 19 26  2  0  0  0  0
 20 27  1  0  0  0  0
 21 28  2  0  0  0  0
 21 29  1  0  0  0  0
 22 30  1  0  0  0  0
 22 31  1  0  0  0  0
 23 32  1  0  0  0  0
 23 33  2  0  0  0  0
 25 34  2  0  0  0  0
 27 35  1  0  0  0  0
 29 36  1  0  0  0  0
 32 37  1  0  0  0  0
 34 38  1  0  0  0  0
 35 39  2  0  0  0  0
 36 40  1  0  0  0  0
 37 41  2  0  0  0  0
 37 42  1  0  0  0  0
 40 43  2  0  0  0  0
 40 44  1  0  0  0  0
 42 45  1  0  0  0  0
 43 46  1  0  0  0  0
 44 47  2  0  0  0  0
 45 48  2  0  0  0  0
 45 49  1  0  0  0  0
 46 50  2  0  0  0  0
 48 51  1  0  0  0  0
 49 52  2  0  0  0  0
 51 53  2  0  0  0  0
 53 54  1  0  0  0  0
 54 55  1  0  0  0  0
 54 56  1  0  0  0  0
 55 57  1  0  0  0  0
 56 58  1  0  0  0  0
 57 59  1  0  0  0  0
 57 60  1  0  0  0  0
 59 61  1  0  0  0  0
 60 62  1  0  0  0  0
  7  9  1  0  0  0  0
 17 20  1  0  0  0  0
 24 33  1  0  0  0  0
 26 34  1  0  0  0  0
 30 32  2  0  0  0  0
 47 50  1  0  0  0  0
 52 53  1  0  0  0  0
 58 59  1  0  0  0  0
 61 62  1  0  0  0  0
M  END
>  <MolRegNo>
2036144

>  <m>
=

>  <Value>
4600

>  <Unit>
nM

>  <Type>
IC50

>  <pValue>
5.34

>  <Ligand Efficiency>
0.12

>  <Binding Efficiency>
6.38

>  <Surface Efficiency>
3.56

>  <Assay Index>
974120

>  <Assay Category>


>  <Assay Organism>
Homo sapiens

>  <Target ID>
17045

>  <Target Name>
Cytochrome P450 3A4

>  <Target Organism>
Homo sapiens

>  <Target Description>
Target is a single protein chain

>  <Sequence Accession>
P08684

>  <Reference>


>  <Pubmed ID>


>  <DOI>


$$$$
2036145
Actelion Java MolfileCreator 1.0

 61 68  0  0  1  0  0  0  0  0999 V2000
    0.0000   -0.0000   -0.0000 O   0  0  0  0  0  0  0  0  0  0  0  0
   -0.0121    1.2441   -0.0000 C   0  0  0  0  0  0  0  0  0  0  0  0
    1.3045    2.0172   -0.0000 N   0  0  0  0  0  0  0  0  0  0  0  0
   -1.3529    2.0172   -0.0000 C   0  0  0  0  0  0  0  0  0  0  0  0
    1.2925    3.5633   -0.0000 C   0  0  0  0  0  0  0  0  0  0  0  0
    2.6212    1.2683   -0.0000 C   0  0  0  0  0  0  0  0  0  0  0  0
   -1.3649    3.5633   -0.0000 N   0  0  0  0  0  0  0  0  0  0  0  0
   -2.6936    1.2683   -0.0000 C   0  0  0  0  0  0  0  0  0  0  0  0
   -0.0483    4.3364   -0.0000 C   0  0  0  0  0  0  0  0  0  0  0  0
    3.9378    2.0534   -0.0000 C   0  0  0  0  0  0  0  0  0  0  0  0
   -2.7057    4.3364   -0.0000 C   0  0  0  0  0  0  0  0  0  0  0  0
   -4.0344    2.0534   -0.0000 C   0  0  0  0  0  0  0  0  0  0  0  0
   -0.0604    5.8825   -0.0000 N   0  0  0  0  0  0  0  0  0  0  0  0
    5.2544    1.3045   -0.0000 C   0  0  0  0  0  0  0  0  0  0  0  0
    3.9257    3.5996   -0.0000 C   0  0  0  0  0  0  0  0  0  0  0  0
   -3.7808    3.7324   -0.0000 O   0  0  0  0  0  0  0  0  0  0  0  0
   -2.7178    5.8825   -0.0000 C   0  0  0  0  0  0  0  0  0  0  0  0
   -5.3752    1.3045   -0.0000 C   0  0  0  0  0  0  0  0  0  0  0  0
   -4.0465    3.5996   -0.0000 C   0  0  0  0  0  0  0  0  0  0  0  0
   -1.4012    6.6556   -0.0000 N   0  0  0  0  0  0  0  0  0  0  0  0
    1.2562    6.6677   -0.0000 C   0  0  0  0  0  0  0  0  0  0  0  0
    5.5685   -0.1812   -0.0000 N   0  0  0  0  0  0  0  0  0  0  0  0
    6.5710    2.0897   -0.0000 C   0  0  0  0  0  0  0  0  0  0  0  0
    5.2423    4.3847   -0.0000 C   0  0  0  0  0  0  0  0  0  0  0  0
   -6.7160    2.0897   -0.0000 C   0  0  0  0  0  0  0  0  0  0  0  0
   -5.3873    4.3847   -0.0000 C   0  0  0  0  0  0  0  0  0  0  0  0
   -1.4133    8.2017   -0.0000 C   0  0  0  0  0  0  0  0  0  0  0  0
    2.3071    6.0637   -0.0000 O   0  0  0  0  0  0  0  0  0  0  0  0
    1.2441    8.2138   -0.0000 N   0  0  0  0  0  0  0  0  0  0  0  0
    7.0783   -0.3261   -0.0000 C   0  0  0  0  0  0  0  0  0  0  0  0
    4.7350   -1.0871   -0.0000 C   0  0  0  0  0  0  0  0  0  0  0  0
    7.7065    1.0750   -0.0000 C   0  0  0  0  0  0  0  0  0  0  0  0
    6.5589    3.6358   -0.0000 C   0  0  0  0  0  0  0  0  0  0  0  0
   -6.7280    3.6358   -0.0000 C   0  0  0  0  0  0  0  0  0  0  0  0
   -2.7540    8.9748   -0.0000 C   0  0  0  0  0  0  0  0  0  0  0  0
    2.5608    8.9989   -0.0000 C   0  0  0  0  0  0  0  0  0  0  0  0
    9.1922    1.4133   -0.0000 C   0  0  0  0  0  0  0  0  0  0  0  0
   -7.8031    4.2639   -0.0000 O   0  0  0  0  0  0  0  0  0  0  0  0
   -2.7661   10.2189   -0.0000 C   0  0  0  0  0  0  0  0  0  0  0  0
    2.5487   10.5450   -0.0000 C   0  0  0  0  0  0  0  0  0  0  0  0
    9.5546    2.5970   -0.0000 O   0  0  0  0  0  0  0  0  0  0  0  0
   10.2068    0.2899   -0.0000 N   0  0  0  0  0  0  0  0  0  0  0  0
    3.8653   11.3302   -0.0000 C   0  0  0  0  0  0  0  0  0  0  0  0
    1.2079   11.3181   -0.0000 C   0  0  0  0  0  0  0  0  0  0  0  0
   11.6926    0.6281   -0.0000 C   0  0  0  0  0  0  0  0  0  0  0  0
    3.8532   12.8763   -0.0000 C   0  0  0  0  0  0  0  0  0  0  0  0
    1.1958   12.8642   -0.0000 C   0  0  0  0  0  0  0  0  0  0  0  0
   12.1516    2.1018   -0.0000 C   0  0  0  0  0  0  0  0  0  0  0  0
   12.7072   -0.4952   -0.0000 C   0  0  0  0  0  0  0  0  0  0  0  0
    2.5124   13.6494   -0.0000 C   0  0  0  0  0  0  0  0  0  0  0  0
   13.6373    2.4400   -0.0000 N   0  0  0  0  0  0  0  0  0  0  0  0
   14.1929   -0.1570   -0.0000 C   0  0  0  0  0  0  0  0  0  0  0  0
   14.6519    1.3166   -0.0000 C   0  0  0  0  0  0  0  0  0  0  0  0
   16.1377    1.6548   -0.0000 N   0  0  0  0  0  0  0  0  0  0  0  0
   16.5000    3.1647   -0.0000 C   0  0  0  0  0  0  0  0  0  0  0  0
   17.0919    0.4590   -0.0000 C   0  0  0  0  0  0  0  0  0  0  0  0
   17.8770    3.8291   -0.0000 C   0  0  0  0  0  0  0  0  0  0  0  0
   18.6139    0.4590   -0.0000 C   0  0  0  0  0  0  0  0  0  0  0  0
   19.2420    3.1647   -0.0000 N   0  0  0  0  0  0  0  0  0  0  0  0
   19.5681    1.6548   -0.0000 C   0  0  0  0  0  0  0  0  0  0  0  0
   20.1962    3.9378   -0.0000 C   0  0  0  0  0  0  0  0  0  0  0  0
  1  2  2  0  0  0  0
  2  3  1  0  0  0  0
  2  4  1  0  0  0  0
  3  5  1  0  0  0  0
  3  6  1  0  0  0  0
  4  7  1  0  0  0  0
  4  8  1  6  0  0  0
  5  9  1  0  0  0  0
  6 10  1  0  0  0  0
  7 11  1  0  0  0  0
  8 12  1  0  0  0  0
  9 13  1  1  0  0  0
 10 14  2  0  0  0  0
 10 15  1  0  0  0  0
 11 16  2  0  0  0  0
 11 17  1  0  0  0  0
 12 18  2  0  0  0  0
 12 19  1  0  0  0  0
 13 20  1  0  0  0  0
 13 21  1  0  0  0  0
 14 22  1  0  0  0  0
 14 23  1  0  0  0  0
 15 24  2  0  0  0  0
 18 25  1  0  0  0  0
 19 26  2  0  0  0  0
 20 27  1  0  0  0  0
 21 28  2  0  0  0  0
 21 29  1  0  0  0  0
 22 30  1  0  0  0  0
 22 31  1  0  0  0  0
 23 32  1  0  0  0  0
 23 33  2  0  0  0  0
 25 34  2  0  0  0  0
 27 35  1  0  0  0  0
 29 36  1  0  0  0  0
 32 37  1  0  0  0  0
 34 38  1  0  0  0  0
 35 39  2  0  0  0  0
 36 40  1  0  0  0  0
 37 41  2  0  0  0  0
 37 42  1  0  0  0  0
 40 43  2  0  0  0  0
 40 44  1  0  0  0  0
 42 45  1  0  0  0  0
 43 46  1  0  0  0  0
 44 47  2  0  0  0  0
 45 48  2  0  0  0  0
 45 49  1  0  0  0  0
 46 50  2  0  0  0  0
 48 51  1  0  0  0  0
 49 52  2  0  0  0  0
 51 53  2  0  0  0  0
 53 54  1  0  0  0  0
 54 55  1  0  0  0  0
 54 56  1  0  0  0  0
 55 57  1  0  0  0  0
 56 58  1  0  0  0  0
 57 59  1  0  0  0  0
 58 60  1  0  0  0  0
 59 61  1  0  0  0  0
  7  9  1  0  0  0  0
 17 20  1  0  0  0  0
 24 33  1  0  0  0  0
 26 34  1  0  0  0  0
 30 32  2  0  0  0  0
 47 50  1  0  0  0  0
 52 53  1  0  0  0  0
 59 60  1  0  0  0  0
M  END
>  <MolRegNo>
2036145

>  <m>
=

>  <Value>
11240

>  <Unit>
nM

>  <Type>
IC50

>  <pValue>
4.95

>  <Ligand Efficiency>
0.11

>  <Binding Efficiency>
6

>  <Surface Efficiency>
3.3

>  <Assay Index>
974120

>  <Assay Category>


>  <Assay Organism>
Homo sapiens

>  <Target ID>
17045

>  <Target Name>
Cytochrome P450 3A4

>  <Target Organism>
Homo sapiens

>  <Target Description>
Target is a single protein chain

>  <Sequence Accession>
P08684

>  <Reference>


>  <Pubmed ID>


>  <DOI>


$$$$
2036146
Actelion Java MolfileCreator 1.0

 63 70  0  0  0  0  0  0  0  0999 V2000
    0.0000   -0.0000   -0.0000 S   0  0  0  0  0  0  0  0  0  0  0  0
    0.2787    1.2120   -0.0000 O   0  0  0  0  0  0  0  0  0  0  0  0
    0.8847   -0.8362   -0.0000 O   0  0  0  0  0  0  0  0  0  0  0  0
   -1.4907   -0.4242   -0.0000 N   0  0  0  0  0  0  0  0  0  0  0  0
    1.1635    0.3636   -0.0000 C   0  0  0  0  0  0  0  0  0  0  0  0
   -2.6178    0.6423   -0.0000 C   0  0  0  0  0  0  0  0  0  0  0  0
   -1.8664   -1.9028   -0.0000 C   0  0  0  0  0  0  0  0  0  0  0  0
   -4.1085    0.2182   -0.0000 C   0  0  0  0  0  0  0  0  0  0  0  0
   -3.3571   -2.3270   -0.0000 C   0  0  0  0  0  0  0  0  0  0  0  0
   -4.4842   -1.2604   -0.0000 N   0  0  0  0  0  0  0  0  0  0  0  0
   -5.9749   -1.6846   -0.0000 C   0  0  0  0  0  0  0  0  0  0  0  0
   -6.8839   -0.8241   -0.0000 O   0  0  0  0  0  0  0  0  0  0  0  0
   -6.3385   -3.1753   -0.0000 N   0  0  0  0  0  0  0  0  0  0  0  0
   -7.8292   -3.5995   -0.0000 C   0  0  0  0  0  0  0  0  0  0  0  0
   -8.9564   -2.5330   -0.0000 N   0  0  0  0  0  0  0  0  0  0  0  0
   -8.2049   -5.0781   -0.0000 C   0  0  0  0  0  0  0  0  0  0  0  0
  -10.4471   -2.9572   -0.0000 C   0  0  0  0  0  0  0  0  0  0  0  0
   -9.6956   -5.5023   -0.0000 C   0  0  0  0  0  0  0  0  0  0  0  0
  -10.8106   -4.4479   -0.0000 C   0  0  0  0  0  0  0  0  0  0  0  0
  -12.3256   -4.7630   -0.0000 C   0  0  0  0  0  0  0  0  0  0  0  0
  -13.4891   -3.7207   -0.0000 C   0  0  0  0  0  0  0  0  0  0  0  0
  -12.9558   -6.1567   -0.0000 C   0  0  0  0  0  0  0  0  0  0  0  0
  -14.8343   -4.4842   -0.0000 C   0  0  0  0  0  0  0  0  0  0  0  0
  -13.5012   -2.1694   -0.0000 C   0  0  0  0  0  0  0  0  0  0  0  0
  -14.4950   -5.9871   -0.0000 N   0  0  0  0  0  0  0  0  0  0  0  0
  -16.1796   -3.7086   -0.0000 C   0  0  0  0  0  0  0  0  0  0  0  0
  -14.8465   -1.3937   -0.0000 C   0  0  0  0  0  0  0  0  0  0  0  0
  -15.3312   -6.8960   -0.0000 C   0  0  0  0  0  0  0  0  0  0  0  0
  -16.1917   -2.1573   -0.0000 C   0  0  0  0  0  0  0  0  0  0  0  0
  -17.5249   -4.4721   -0.0000 C   0  0  0  0  0  0  0  0  0  0  0  0
  -18.8702   -3.6965   -0.0000 N   0  0  0  0  0  0  0  0  0  0  0  0
  -20.2154   -4.4479   -0.0000 C   0  0  0  0  0  0  0  0  0  0  0  0
  -18.8823   -2.1452   -0.0000 C   0  0  0  0  0  0  0  0  0  0  0  0
  -20.2275   -5.6720   -0.0000 O   0  0  0  0  0  0  0  0  0  0  0  0
  -21.5607   -3.6722   -0.0000 C   0  0  0  0  0  0  0  0  0  0  0  0
  -20.2275   -1.3695   -0.0000 C   0  0  0  0  0  0  0  0  0  0  0  0
  -21.5728   -2.1209   -0.0000 N   0  0  0  0  0  0  0  0  0  0  0  0
  -22.9060   -4.4358   -0.0000 C   0  0  0  0  0  0  0  0  0  0  0  0
  -20.2397    0.1818   -0.0000 N   0  0  0  0  0  0  0  0  0  0  0  0
  -22.9181   -1.3453   -0.0000 C   0  0  0  0  0  0  0  0  0  0  0  0
  -22.9181   -5.9628   -0.0000 C   0  0  0  0  0  0  0  0  0  0  0  0
  -21.5849    0.9574   -0.0000 N   0  0  0  0  0  0  0  0  0  0  0  0
  -18.9186    0.9696   -0.0000 C   0  0  0  0  0  0  0  0  0  0  0  0
  -23.9967   -1.9512   -0.0000 O   0  0  0  0  0  0  0  0  0  0  0  0
  -22.9302    0.2060   -0.0000 C   0  0  0  0  0  0  0  0  0  0  0  0
  -24.2634   -6.7264   -0.0000 C   0  0  0  0  0  0  0  0  0  0  0  0
  -21.5971   -6.7142   -0.0000 C   0  0  0  0  0  0  0  0  0  0  0  0
  -21.5971    2.5087   -0.0000 C   0  0  0  0  0  0  0  0  0  0  0  0
  -17.8642    0.3636   -0.0000 O   0  0  0  0  0  0  0  0  0  0  0  0
  -18.9308    2.5209   -0.0000 N   0  0  0  0  0  0  0  0  0  0  0  0
  -24.2755   -8.2534   -0.0000 C   0  0  0  0  0  0  0  0  0  0  0  0
  -21.6092   -8.2413   -0.0000 C   0  0  0  0  0  0  0  0  0  0  0  0
  -22.9423    3.2844   -0.0000 C   0  0  0  0  0  0  0  0  0  0  0  0
  -17.6097    3.3086   -0.0000 C   0  0  0  0  0  0  0  0  0  0  0  0
  -22.9544   -9.0048   -0.0000 C   0  0  0  0  0  0  0  0  0  0  0  0
  -22.9544    4.5327   -0.0000 C   0  0  0  0  0  0  0  0  0  0  0  0
  -17.6218    4.8599   -0.0000 C   0  0  0  0  0  0  0  0  0  0  0  0
  -22.9666  -10.2289   -0.0000 O   0  0  0  0  0  0  0  0  0  0  0  0
  -16.3008    5.6477   -0.0000 C   0  0  0  0  0  0  0  0  0  0  0  0
  -18.9671    5.6356   -0.0000 C   0  0  0  0  0  0  0  0  0  0  0  0
  -16.3129    7.1990   -0.0000 C   0  0  0  0  0  0  0  0  0  0  0  0
  -18.9792    7.1869   -0.0000 C   0  0  0  0  0  0  0  0  0  0  0  0
  -17.6582    7.9747   -0.0000 C   0  0  0  0  0  0  0  0  0  0  0  0
  1  2  2  0  0  0  0
  1  3  2  0  0  0  0
  1  4  1  0  0  0  0
  1  5  1  0  0  0  0
  4  6  1  0  0  0  0
  4  7  1  0  0  0  0
  6  8  1  0  0  0  0
  7  9  1  0  0  0  0
  8 10  1  0  0  0  0
 10 11  1  0  0  0  0
 11 12  2  0  0  0  0
 11 13  1  0  0  0  0
 13 14  1  0  0  0  0
 14 15  2  0  0  0  0
 14 16  1  0  0  0  0
 15 17  1  0  0  0  0
 16 18  2  0  0  0  0
 17 19  2  0  0  0  0
 19 20  1  0  0  0  0
 20 21  1  0  0  0  0
 20 22  2  0  0  0  0
 21 23  2  0  0  0  0
 21 24  1  0  0  0  0
 22 25  1  0  0  0  0
 23 26  1  0  0  0  0
 24 27  2  0  0  0  0
 25 28  1  0  0  0  0
 26 29  2  0  0  0  0
 26 30  1  0  0  0  0
 30 31  1  0  0  0  0
 31 32  1  0  0  0  0
 31 33  1  0  0  0  0
 32 34  2  0  0  0  0
 32 35  1  0  0  0  0
 33 36  1  0  0  0  0
 35 37  1  0  0  0  0
 35 38  1  0  0  0  0
 36 39  1  0  0  0  0
 37 40  1  0  0  0  0
 38 41  1  0  0  0  0
 39 42  1  0  0  0  0
 39 43  1  0  0  0  0
 40 44  2  0  0  0  0
 40 45  1  0  0  0  0
 41 46  2  0  0  0  0
 41 47  1  0  0  0  0
 42 48  1  0  0  0  0
 43 49  2  0  0  0  0
 43 50  1  0  0  0  0
 46 51  1  0  0  0  0
 47 52  2  0  0  0  0
 48 53  1  0  0  0  0
 50 54  1  0  0  0  0
 51 55  2  0  0  0  0
 53 56  2  0  0  0  0
 54 57  1  0  0  0  0
 55 58  1  0  0  0  0
 57 59  2  0  0  0  0
 57 60  1  0  0  0  0
 59 61  1  0  0  0  0
 60 62  2  0  0  0  0
 61 63  2  0  0  0  0
  9 10  1  0  0  0  0
 18 19  1  0  0  0  0
 23 25  1  0  0  0  0
 27 29  1  0  0  0  0
 36 37  1  0  0  0  0
 42 45  1  0  0  0  0
 52 55  1  0  0  0  0
 62 63  1  0  0  0  0
M  END
>  <MolRegNo>
2036146

>  <m>
=

>  <Value>
6400

>  <Unit>
nM

>  <Type>
IC50

>  <pValue>
5.19

>  <Ligand Efficiency>
0.11

>  <Binding Efficiency>
5.94

>  <Surface Efficiency>
2.82

>  <Assay Index>
974120

>  <Assay Category>


>  <Assay Organism>
Homo sapiens

>  <Target ID>
17045

>  <Target Name>
Cytochrome P450 3A4

>  <Target Organism>
Homo sapiens

>  <Target Description>
Target is a single protein chain

>  <Sequence Accession>
P08684

>  <Reference>


>  <Pubmed ID>


>  <DOI>


$$$$
2036147
Actelion Java MolfileCreator 1.0

 57 64  0  0  1  0  0  0  0  0999 V2000
    0.0000   -0.0000   -0.0000 O   0  0  0  0  0  0  0  0  0  0  0  0
   -0.8326   -0.8930   -0.0000 C   0  0  0  0  0  0  0  0  0  0  0  0
   -2.3410   -0.5551   -0.0000 N   0  0  0  0  0  0  0  0  0  0  0  0
   -0.3741   -2.3410   -0.0000 C   0  0  0  0  0  0  0  0  0  0  0  0
   -3.3788   -1.6773   -0.0000 C   0  0  0  0  0  0  0  0  0  0  0  0
   -2.8237    0.9171   -0.0000 C   0  0  0  0  0  0  0  0  0  0  0  0
   -1.4119   -3.4633   -0.0000 N   0  0  0  0  0  0  0  0  0  0  0  0
    1.1102   -2.6548   -0.0000 C   0  0  0  0  0  0  0  0  0  0  0  0
   -2.9202   -3.1254   -0.0000 C   0  0  0  0  0  0  0  0  0  0  0  0
   -4.3321    1.2550   -0.0000 C   0  0  0  0  0  0  0  0  0  0  0  0
   -0.9533   -4.9113   -0.0000 C   0  0  0  0  0  0  0  0  0  0  0  0
    1.5687   -4.1028   -0.0000 C   0  0  0  0  0  0  0  0  0  0  0  0
   -3.9580   -4.2476   -0.0000 N   0  0  0  0  0  0  0  0  0  0  0  0
   -4.8148    2.7272   -0.0000 C   0  0  0  0  0  0  0  0  0  0  0  0
   -5.3699    0.1327   -0.0000 C   0  0  0  0  0  0  0  0  0  0  0  0
    0.2293   -5.1527   -0.0000 O   0  0  0  0  0  0  0  0  0  0  0  0
   -1.9911   -6.0336   -0.0000 C   0  0  0  0  0  0  0  0  0  0  0  0
    3.0530   -4.4166   -0.0000 C   0  0  0  0  0  0  0  0  0  0  0  0
    0.5189   -5.2251   -0.0000 C   0  0  0  0  0  0  0  0  0  0  0  0
   -3.4995   -5.6957   -0.0000 N   0  0  0  0  0  0  0  0  0  0  0  0
   -5.4664   -3.9097   -0.0000 C   0  0  0  0  0  0  0  0  0  0  0  0
   -4.0666    4.0666   -0.0000 N   0  0  0  0  0  0  0  0  0  0  0  0
   -6.3232    3.0530   -0.0000 C   0  0  0  0  0  0  0  0  0  0  0  0
   -6.8783    0.4586   -0.0000 C   0  0  0  0  0  0  0  0  0  0  0  0
    3.4995   -5.8646   -0.0000 C   0  0  0  0  0  0  0  0  0  0  0  0
    0.9654   -6.6731   -0.0000 C   0  0  0  0  0  0  0  0  0  0  0  0
   -4.5372   -6.8179   -0.0000 C   0  0  0  0  0  0  0  0  0  0  0  0
   -5.8525   -2.7272   -0.0000 O   0  0  0  0  0  0  0  0  0  0  0  0
   -6.5042   -5.0320   -0.0000 N   0  0  0  0  0  0  0  0  0  0  0  0
   -5.1044    5.2130   -0.0000 C   0  0  0  0  0  0  0  0  0  0  0  0
   -2.8599    4.2114   -0.0000 C   0  0  0  0  0  0  0  0  0  0  0  0
   -6.4800    4.5734   -0.0000 C   0  0  0  0  0  0  0  0  0  0  0  0
   -7.3609    1.9307   -0.0000 C   0  0  0  0  0  0  0  0  0  0  0  0
    2.4496   -6.9869   -0.0000 C   0  0  0  0  0  0  0  0  0  0  0  0
   -4.0787   -8.2660   -0.0000 C   0  0  0  0  0  0  0  0  0  0  0  0
   -8.0126   -4.6941   -0.0000 C   0  0  0  0  0  0  0  0  0  0  0  0
   -7.8195    5.3578   -0.0000 C   0  0  0  0  0  0  0  0  0  0  0  0
    2.8116   -8.1453   -0.0000 O   0  0  0  0  0  0  0  0  0  0  0  0
   -4.9113   -9.1589   -0.0000 C   0  0  0  0  0  0  0  0  0  0  0  0
   -9.0503   -5.8163   -0.0000 C   0  0  0  0  0  0  0  0  0  0  0  0
   -8.8935    4.7544   -0.0000 O   0  0  0  0  0  0  0  0  0  0  0  0
   -7.8316    6.9024   -0.0000 N   0  0  0  0  0  0  0  0  0  0  0  0
  -10.5587   -5.4905   -0.0000 C   0  0  0  0  0  0  0  0  0  0  0  0
   -8.5918   -7.2644   -0.0000 C   0  0  0  0  0  0  0  0  0  0  0  0
   -9.1710    7.6867   -0.0000 C   0  0  0  0  0  0  0  0  0  0  0  0
  -11.5965   -6.6128   -0.0000 C   0  0  0  0  0  0  0  0  0  0  0  0
   -9.6296   -8.3866   -0.0000 C   0  0  0  0  0  0  0  0  0  0  0  0
  -10.5104    6.9386   -0.0000 C   0  0  0  0  0  0  0  0  0  0  0  0
   -9.1831    9.2313   -0.0000 C   0  0  0  0  0  0  0  0  0  0  0  0
  -11.1379   -8.0608   -0.0000 C   0  0  0  0  0  0  0  0  0  0  0  0
  -11.8499    7.7109   -0.0000 C   0  0  0  0  0  0  0  0  0  0  0  0
  -10.5225   10.0036   -0.0000 C   0  0  0  0  0  0  0  0  0  0  0  0
  -13.1893    6.9627   -0.0000 O   0  0  0  0  0  0  0  0  0  0  0  0
  -11.8620    9.2555   -0.0000 C   0  0  0  0  0  0  0  0  0  0  0  0
  -14.5288    7.7350   -0.0000 C   0  0  0  0  0  0  0  0  0  0  0  0
  -13.2014   10.0278   -0.0000 O   0  0  0  0  0  0  0  0  0  0  0  0
  -14.5409    9.2796   -0.0000 C   0  0  0  0  0  0  0  0  0  0  0  0
  1  2  2  0  0  0  0
  2  3  1  0  0  0  0
  2  4  1  0  0  0  0
  3  5  1  0  0  0  0
  3  6  1  0  0  0  0
  4  7  1  0  0  0  0
  4  8  1  6  0  0  0
  5  9  1  0  0  0  0
  6 10  1  0  0  0  0
  7 11  1  0  0  0  0
  8 12  1  0  0  0  0
  9 13  1  0  0  0  0
 10 14  2  0  0  0  0
 10 15  1  0  0  0  0
 11 16  2  0  0  0  0
 11 17  1  0  0  0  0
 12 18  2  0  0  0  0
 12 19  1  0  0  0  0
 13 20  1  0  0  0  0
 13 21  1  0  0  0  0
 14 22  1  0  0  0  0
 14 23  1  0  0  0  0
 15 24  2  0  0  0  0
 18 25  1  0  0  0  0
 19 26  2  0  0  0  0
 20 27  1  0  0  0  0
 21 28  2  0  0  0  0
 21 29  1  0  0  0  0
 22 30  1  0  0  0  0
 22 31  1  0  0  0  0
 23 32  1  0  0  0  0
 23 33  2  0  0  0  0
 25 34  2  0  0  0  0
 27 35  1  0  0  0  0
 29 36  1  0  0  0  0
 32 37  1  0  0  0  0
 34 38  1  0  0  0  0
 35 39  2  0  0  0  0
 36 40  1  0  0  0  0
 37 41  2  0  0  0  0
 37 42  1  0  0  0  0
 40 43  2  0  0  0  0
 40 44  1  0  0  0  0
 42 45  1  0  0  0  0
 43 46  1  0  0  0  0
 44 47  2  0  0  0  0
 45 48  2  0  0  0  0
 45 49  1  0  0  0  0
 46 50  2  0  0  0  0
 48 51  1  0  0  0  0
 49 52  2  0  0  0  0
 51 53  1  0  0  0  0
 51 54  2  0  0  0  0
 53 55  1  0  0  0  0
 54 56  1  0  0  0  0
 55 57  1  0  0  0  0
  7  9  1  0  0  0  0
 17 20  1  0  0  0  0
 24 33  1  0  0  0  0
 26 34  1  0  0  0  0
 30 32  2  0  0  0  0
 47 50  1  0  0  0  0
 52 54  1  0  0  0  0
 56 57  1  0  0  0  0
M  END
>  <MolRegNo>
2036147

>  <m>
=

>  <Value>
2630

>  <Unit>
nM

>  <Type>
IC50

>  <pValue>
5.58

>  <Ligand Efficiency>
0.13

>  <Binding Efficiency>
7.25

>  <Surface Efficiency>
3.75

>  <Assay Index>
974120

>  <Assay Category>


>  <Assay Organism>
Homo sapiens

>  <Target ID>
17045

>  <Target Name>
Cytochrome P450 3A4

>  <Target Organism>
Homo sapiens

>  <Target Description>
Target is a single protein chain

>  <Sequence Accession>
P08684

>  <Reference>


>  <Pubmed ID>


>  <DOI>


$$$$
2036148
Actelion Java MolfileCreator 1.0

 54 60  0  0  1  0  0  0  0  0999 V2000
    0.0000   -0.0000   -0.0000 O   0  0  0  0  0  0  0  0  0  0  0  0
   -0.0121    1.2473   -0.0000 C   0  0  0  0  0  0  0  0  0  0  0  0
    1.3078    2.0223   -0.0000 N   0  0  0  0  0  0  0  0  0  0  0  0
   -1.3563    2.0223   -0.0000 C   0  0  0  0  0  0  0  0  0  0  0  0
    1.2957    3.5724   -0.0000 C   0  0  0  0  0  0  0  0  0  0  0  0
    2.6278    1.2715   -0.0000 C   0  0  0  0  0  0  0  0  0  0  0  0
   -1.3684    3.5724   -0.0000 N   0  0  0  0  0  0  0  0  0  0  0  0
   -2.7005    1.2715   -0.0000 C   0  0  0  0  0  0  0  0  0  0  0  0
   -0.0484    4.3474   -0.0000 C   0  0  0  0  0  0  0  0  0  0  0  0
    3.9478    2.0586   -0.0000 C   0  0  0  0  0  0  0  0  0  0  0  0
   -2.7126    4.3474   -0.0000 C   0  0  0  0  0  0  0  0  0  0  0  0
   -4.0446    2.0586   -0.0000 C   0  0  0  0  0  0  0  0  0  0  0  0
   -0.0605    5.8974   -0.0000 N   0  0  0  0  0  0  0  0  0  0  0  0
    5.2677    1.3078   -0.0000 C   0  0  0  0  0  0  0  0  0  0  0  0
    3.9356    3.6087   -0.0000 C   0  0  0  0  0  0  0  0  0  0  0  0
   -3.7903    3.7419   -0.0000 O   0  0  0  0  0  0  0  0  0  0  0  0
   -2.7247    5.8974   -0.0000 C   0  0  0  0  0  0  0  0  0  0  0  0
   -5.3888    1.3078   -0.0000 C   0  0  0  0  0  0  0  0  0  0  0  0
   -4.0567    3.6087   -0.0000 C   0  0  0  0  0  0  0  0  0  0  0  0
   -1.4047    6.6724   -0.0000 N   0  0  0  0  0  0  0  0  0  0  0  0
    1.2594    6.6845   -0.0000 C   0  0  0  0  0  0  0  0  0  0  0  0
    5.5826   -0.1816   -0.0000 N   0  0  0  0  0  0  0  0  0  0  0  0
    6.5877    2.0950   -0.0000 C   0  0  0  0  0  0  0  0  0  0  0  0
    5.2556    4.3958   -0.0000 C   0  0  0  0  0  0  0  0  0  0  0  0
   -6.7330    2.0950   -0.0000 C   0  0  0  0  0  0  0  0  0  0  0  0
   -5.4009    4.3958   -0.0000 C   0  0  0  0  0  0  0  0  0  0  0  0
   -1.4168    8.2225   -0.0000 C   0  0  0  0  0  0  0  0  0  0  0  0
    2.3129    6.0791   -0.0000 O   0  0  0  0  0  0  0  0  0  0  0  0
    1.2473    8.2346   -0.0000 N   0  0  0  0  0  0  0  0  0  0  0  0
    7.0963   -0.3270   -0.0000 C   0  0  0  0  0  0  0  0  0  0  0  0
    4.7470   -1.0899   -0.0000 C   0  0  0  0  0  0  0  0  0  0  0  0
    7.7260    1.0778   -0.0000 C   0  0  0  0  0  0  0  0  0  0  0  0
    6.5756    3.6450   -0.0000 C   0  0  0  0  0  0  0  0  0  0  0  0
   -6.7451    3.6450   -0.0000 C   0  0  0  0  0  0  0  0  0  0  0  0
   -2.7610    8.9975   -0.0000 C   0  0  0  0  0  0  0  0  0  0  0  0
    2.5672    9.0217   -0.0000 C   0  0  0  0  0  0  0  0  0  0  0  0
    9.2155    1.4168   -0.0000 C   0  0  0  0  0  0  0  0  0  0  0  0
   -7.8228    4.2747   -0.0000 O   0  0  0  0  0  0  0  0  0  0  0  0
   -2.7731   10.2448   -0.0000 C   0  0  0  0  0  0  0  0  0  0  0  0
    2.5551   10.5717   -0.0000 C   0  0  0  0  0  0  0  0  0  0  0  0
   10.3174    0.3754   -0.0000 C   0  0  0  0  0  0  0  0  0  0  0  0
    9.5545    2.9305   -0.0000 C   0  0  0  0  0  0  0  0  0  0  0  0
    3.8751   11.3589   -0.0000 C   0  0  0  0  0  0  0  0  0  0  0  0
    1.2110   11.3468   -0.0000 C   0  0  0  0  0  0  0  0  0  0  0  0
   11.7827    0.8235   -0.0000 C   0  0  0  0  0  0  0  0  0  0  0  0
   11.0198    3.3786   -0.0000 C   0  0  0  0  0  0  0  0  0  0  0  0
    3.8630   12.9089   -0.0000 C   0  0  0  0  0  0  0  0  0  0  0  0
    1.1989   12.8968   -0.0000 C   0  0  0  0  0  0  0  0  0  0  0  0
   12.1339    2.3251   -0.0000 C   0  0  0  0  0  0  0  0  0  0  0  0
    2.5188   13.6839   -0.0000 C   0  0  0  0  0  0  0  0  0  0  0  0
   13.5992    2.7731   -0.0000 C   0  0  0  0  0  0  0  0  0  0  0  0
   14.4832    1.9375   -0.0000 O   0  0  0  0  0  0  0  0  0  0  0  0
   13.9382    4.2868   -0.0000 O   0  0  0  0  0  0  0  0  0  0  0  0
   15.1008    4.6501   -0.0000 C   0  0  0  0  0  0  0  0  0  0  0  0
  1  2  2  0  0  0  0
  2  3  1  0  0  0  0
  2  4  1  0  0  0  0
  3  5  1  0  0  0  0
  3  6  1  0  0  0  0
  4  7  1  0  0  0  0
  4  8  1  6  0  0  0
  5  9  1  0  0  0  0
  6 10  1  0  0  0  0
  7 11  1  0  0  0  0
  8 12  1  0  0  0  0
  9 13  1  1  0  0  0
 10 14  2  0  0  0  0
 10 15  1  0  0  0  0
 11 16  2  0  0  0  0
 11 17  1  0  0  0  0
 12 18  2  0  0  0  0
 12 19  1  0  0  0  0
 13 20  1  0  0  0  0
 13 21  1  0  0  0  0
 14 22  1  0  0  0  0
 14 23  1  0  0  0  0
 15 24  2  0  0  0  0
 18 25  1  0  0  0  0
 19 26  2  0  0  0  0
 20 27  1  0  0  0  0
 21 28  2  0  0  0  0
 21 29  1  0  0  0  0
 22 30  1  0  0  0  0
 22 31  1  0  0  0  0
 23 32  1  0  0  0  0
 23 33  2  0  0  0  0
 25 34  2  0  0  0  0
 27 35  1  0  0  0  0
 29 36  1  0  0  0  0
 32 37  1  0  0  0  0
 34 38  1  0  0  0  0
 35 39  2  0  0  0  0
 36 40  1  0  0  0  0
 37 41  2  0  0  0  0
 37 42  1  0  0  0  0
 40 43  2  0  0  0  0
 40 44  1  0  0  0  0
 41 45  1  0  0  0  0
 42 46  2  0  0  0  0
 43 47  1  0  0  0  0
 44 48  2  0  0  0  0
 45 49  2  0  0  0  0
 47 50  2  0  0  0  0
 49 51  1  0  0  0  0
 51 52  2  0  0  0  0
 51 53  1  0  0  0  0
 53 54  1  0  0  0  0
  7  9  1  0  0  0  0
 17 20  1  0  0  0  0
 24 33  1  0  0  0  0
 26 34  1  0  0  0  0
 30 32  2  0  0  0  0
 46 49  1  0  0  0  0
 48 50  1  0  0  0  0
M  END
>  <MolRegNo>
2036148

>  <m>
=

>  <Value>
3850

>  <Unit>
nM

>  <Type>
IC50

>  <pValue>
5.42

>  <Ligand Efficiency>
0.14

>  <Binding Efficiency>
7.45

>  <Surface Efficiency>
4.24

>  <Assay Index>
974120

>  <Assay Category>


>  <Assay Organism>
Homo sapiens

>  <Target ID>
17045

>  <Target Name>
Cytochrome P450 3A4

>  <Target Organism>
Homo sapiens

>  <Target Description>
Target is a single protein chain

>  <Sequence Accession>
P08684

>  <Reference>


>  <Pubmed ID>


>  <DOI>


$$$$
2036149
Actelion Java MolfileCreator 1.0

 52 58  0  0  1  0  0  0  0  0999 V2000
    0.0000   -0.0000   -0.0000 O   0  0  0  0  0  0  0  0  0  0  0  0
   -0.0121    1.2440   -0.0000 C   0  0  0  0  0  0  0  0  0  0  0  0
    1.3044    2.0169   -0.0000 N   0  0  0  0  0  0  0  0  0  0  0  0
   -1.3527    2.0169   -0.0000 C   0  0  0  0  0  0  0  0  0  0  0  0
    1.2923    3.5628   -0.0000 C   0  0  0  0  0  0  0  0  0  0  0  0
    2.6208    1.2681   -0.0000 C   0  0  0  0  0  0  0  0  0  0  0  0
   -1.3647    3.5628   -0.0000 N   0  0  0  0  0  0  0  0  0  0  0  0
   -2.6933    1.2681   -0.0000 C   0  0  0  0  0  0  0  0  0  0  0  0
   -0.0483    4.3358   -0.0000 C   0  0  0  0  0  0  0  0  0  0  0  0
    3.9372    2.0532   -0.0000 C   0  0  0  0  0  0  0  0  0  0  0  0
   -2.7053    4.3358   -0.0000 C   0  0  0  0  0  0  0  0  0  0  0  0
   -4.0339    2.0532   -0.0000 C   0  0  0  0  0  0  0  0  0  0  0  0
   -0.0604    5.8817   -0.0000 N   0  0  0  0  0  0  0  0  0  0  0  0
    5.2537    1.3044   -0.0000 C   0  0  0  0  0  0  0  0  0  0  0  0
    3.9252    3.5991   -0.0000 C   0  0  0  0  0  0  0  0  0  0  0  0
   -3.7802    3.7319   -0.0000 O   0  0  0  0  0  0  0  0  0  0  0  0
   -2.7174    5.8817   -0.0000 C   0  0  0  0  0  0  0  0  0  0  0  0
   -5.3744    1.3044   -0.0000 C   0  0  0  0  0  0  0  0  0  0  0  0
   -4.0459    3.5991   -0.0000 C   0  0  0  0  0  0  0  0  0  0  0  0
   -1.4010    6.6547   -0.0000 N   0  0  0  0  0  0  0  0  0  0  0  0
    1.2561    6.6667   -0.0000 C   0  0  0  0  0  0  0  0  0  0  0  0
    5.5677   -0.1812   -0.0000 N   0  0  0  0  0  0  0  0  0  0  0  0
    6.5701    2.0894   -0.0000 C   0  0  0  0  0  0  0  0  0  0  0  0
    5.2416    4.3841   -0.0000 C   0  0  0  0  0  0  0  0  0  0  0  0
   -6.7150    2.0894   -0.0000 C   0  0  0  0  0  0  0  0  0  0  0  0
   -5.3865    4.3841   -0.0000 C   0  0  0  0  0  0  0  0  0  0  0  0
   -1.4131    8.2006   -0.0000 C   0  0  0  0  0  0  0  0  0  0  0  0
    2.3068    6.0629   -0.0000 O   0  0  0  0  0  0  0  0  0  0  0  0
    1.2440    8.2126   -0.0000 N   0  0  0  0  0  0  0  0  0  0  0  0
    7.0774   -0.3261   -0.0000 C   0  0  0  0  0  0  0  0  0  0  0  0
    4.7343   -1.0870   -0.0000 C   0  0  0  0  0  0  0  0  0  0  0  0
    7.7054    1.0749   -0.0000 C   0  0  0  0  0  0  0  0  0  0  0  0
    6.5580    3.6353   -0.0000 C   0  0  0  0  0  0  0  0  0  0  0  0
   -6.7271    3.6353   -0.0000 C   0  0  0  0  0  0  0  0  0  0  0  0
   -2.7536    8.9735   -0.0000 C   0  0  0  0  0  0  0  0  0  0  0  0
    2.5604    8.9977   -0.0000 C   0  0  0  0  0  0  0  0  0  0  0  0
    9.1909    1.4131   -0.0000 C   0  0  0  0  0  0  0  0  0  0  0  0
   -7.8020    4.2633   -0.0000 O   0  0  0  0  0  0  0  0  0  0  0  0
   -2.7657   10.2175   -0.0000 C   0  0  0  0  0  0  0  0  0  0  0  0
    2.5483   10.5436   -0.0000 C   0  0  0  0  0  0  0  0  0  0  0  0
   10.2900    0.3744   -0.0000 C   0  0  0  0  0  0  0  0  0  0  0  0
    9.5291    2.9227   -0.0000 C   0  0  0  0  0  0  0  0  0  0  0  0
    3.8648   11.3286   -0.0000 C   0  0  0  0  0  0  0  0  0  0  0  0
    1.2077   11.3165   -0.0000 C   0  0  0  0  0  0  0  0  0  0  0  0
   11.7513    0.8213   -0.0000 C   0  0  0  0  0  0  0  0  0  0  0  0
   10.9904    3.3696   -0.0000 C   0  0  0  0  0  0  0  0  0  0  0  0
    3.8527   12.8745   -0.0000 C   0  0  0  0  0  0  0  0  0  0  0  0
    1.1957   12.8624   -0.0000 C   0  0  0  0  0  0  0  0  0  0  0  0
   12.1016    2.3189   -0.0000 C   0  0  0  0  0  0  0  0  0  0  0  0
    2.5121   13.6475   -0.0000 C   0  0  0  0  0  0  0  0  0  0  0  0
   13.5629    2.7657   -0.0000 C   0  0  0  0  0  0  0  0  0  0  0  0
   14.7224    3.1280   -0.0000 N   0  0  0  0  0  0  0  0  0  0  0  0
  1  2  2  0  0  0  0
  2  3  1  0  0  0  0
  2  4  1  0  0  0  0
  3  5  1  0  0  0  0
  3  6  1  0  0  0  0
  4  7  1  0  0  0  0
  4  8  1  6  0  0  0
  5  9  1  0  0  0  0
  6 10  1  0  0  0  0
  7 11  1  0  0  0  0
  8 12  1  0  0  0  0
  9 13  1  1  0  0  0
 10 14  2  0  0  0  0
 10 15  1  0  0  0  0
 11 16  2  0  0  0  0
 11 17  1  0  0  0  0
 12 18  2  0  0  0  0
 12 19  1  0  0  0  0
 13 20  1  0  0  0  0
 13 21  1  0  0  0  0
 14 22  1  0  0  0  0
 14 23  1  0  0  0  0
 15 24  2  0  0  0  0
 18 25  1  0  0  0  0
 19 26  2  0  0  0  0
 20 27  1  0  0  0  0
 21 28  2  0  0  0  0
 21 29  1  0  0  0  0
 22 30  1  0  0  0  0
 22 31  1  0  0  0  0
 23 32  1  0  0  0  0
 23 33  2  0  0  0  0
 25 34  2  0  0  0  0
 27 35  1  0  0  0  0
 29 36  1  0  0  0  0
 32 37  1  0  0  0  0
 34 38  1  0  0  0  0
 35 39  2  0  0  0  0
 36 40  1  0  0  0  0
 37 41  2  0  0  0  0
 37 42  1  0  0  0  0
 40 43  2  0  0  0  0
 40 44  1  0  0  0  0
 41 45  1  0  0  0  0
 42 46  2  0  0  0  0
 43 47  1  0  0  0  0
 44 48  2  0  0  0  0
 45 49  2  0  0  0  0
 47 50  2  0  0  0  0
 49 51  1  0  0  0  0
 51 52  3  0  0  0  0
  7  9  1  0  0  0  0
 17 20  1  0  0  0  0
 24 33  1  0  0  0  0
 26 34  1  0  0  0  0
 30 32  2  0  0  0  0
 46 49  1  0  0  0  0
 48 50  1  0  0  0  0
M  END
>  <MolRegNo>
2036149

>  <m>
=

>  <Value>
9330

>  <Unit>
nM

>  <Type>
IC50

>  <pValue>
5.03

>  <Ligand Efficiency>
0.13

>  <Binding Efficiency>
7.25

>  <Surface Efficiency>
4.02

>  <Assay Index>
974120

>  <Assay Category>


>  <Assay Organism>
Homo sapiens

>  <Target ID>
17045

>  <Target Name>
Cytochrome P450 3A4

>  <Target Organism>
Homo sapiens

>  <Target Description>
Target is a single protein chain

>  <Sequence Accession>
P08684

>  <Reference>


>  <Pubmed ID>


>  <DOI>


$$$$
2036150
Actelion Java MolfileCreator 1.0

 54 60  0  0  1  0  0  0  0  0999 V2000
    0.0000   -0.0000   -0.0000 S   0  0  0  0  0  0  0  0  0  0  0  0
    0.8844   -0.8359   -0.0000 O   0  0  0  0  0  0  0  0  0  0  0  0
    0.2786    1.2115   -0.0000 O   0  0  0  0  0  0  0  0  0  0  0  0
   -1.4901   -0.4240   -0.0000 C   0  0  0  0  0  0  0  0  0  0  0  0
    1.1630    0.3634   -0.0000 C   0  0  0  0  0  0  0  0  0  0  0  0
   -1.8657   -1.9021   -0.0000 C   0  0  0  0  0  0  0  0  0  0  0  0
   -2.6168    0.6421   -0.0000 C   0  0  0  0  0  0  0  0  0  0  0  0
   -3.3558   -2.3261   -0.0000 C   0  0  0  0  0  0  0  0  0  0  0  0
   -4.1070    0.2181   -0.0000 C   0  0  0  0  0  0  0  0  0  0  0  0
   -4.4825   -1.2600   -0.0000 C   0  0  0  0  0  0  0  0  0  0  0  0
   -5.9969   -1.5749   -0.0000 C   0  0  0  0  0  0  0  0  0  0  0  0
   -7.1600   -0.5331   -0.0000 C   0  0  0  0  0  0  0  0  0  0  0  0
   -6.6269   -2.9682   -0.0000 C   0  0  0  0  0  0  0  0  0  0  0  0
   -8.5047   -1.2963   -0.0000 C   0  0  0  0  0  0  0  0  0  0  0  0
   -7.1721    1.0177   -0.0000 C   0  0  0  0  0  0  0  0  0  0  0  0
   -8.1655   -2.7986   -0.0000 N   0  0  0  0  0  0  0  0  0  0  0  0
   -9.8495   -0.5209   -0.0000 C   0  0  0  0  0  0  0  0  0  0  0  0
   -8.5168    1.7930   -0.0000 C   0  0  0  0  0  0  0  0  0  0  0  0
   -9.0014   -3.7072   -0.0000 C   0  0  0  0  0  0  0  0  0  0  0  0
   -9.8616    1.0298   -0.0000 C   0  0  0  0  0  0  0  0  0  0  0  0
  -11.1942   -1.2842   -0.0000 C   0  0  0  0  0  0  0  0  0  0  0  0
  -12.5390   -0.5088   -0.0000 N   0  0  0  0  0  0  0  0  0  0  0  0
  -13.8838   -1.2600   -0.0000 C   0  0  0  0  0  0  0  0  0  0  0  0
  -12.5511    1.0419   -0.0000 C   0  0  0  0  0  0  0  0  0  0  0  0
  -13.8959   -2.4836   -0.0000 O   0  0  0  0  0  0  0  0  0  0  0  0
  -15.2285   -0.4846   -0.0000 C   0  0  0  0  0  0  0  0  0  0  0  0
  -13.8959    1.8172   -0.0000 C   0  0  0  0  0  0  0  0  0  0  0  0
  -15.2406    1.0661   -0.0000 N   0  0  0  0  0  0  0  0  0  0  0  0
  -16.5733   -1.2357   -0.0000 C   0  0  0  0  0  0  0  0  0  0  0  0
  -13.9080    3.3680   -0.0000 N   0  0  0  0  0  0  0  0  0  0  0  0
  -16.5854    1.8415   -0.0000 C   0  0  0  0  0  0  0  0  0  0  0  0
  -17.9181   -0.4483   -0.0000 C   0  0  0  0  0  0  0  0  0  0  0  0
  -15.2528    4.1433   -0.0000 N   0  0  0  0  0  0  0  0  0  0  0  0
  -12.5875    4.1554   -0.0000 C   0  0  0  0  0  0  0  0  0  0  0  0
  -17.6636    1.2357   -0.0000 O   0  0  0  0  0  0  0  0  0  0  0  0
  -16.5975    3.3922   -0.0000 C   0  0  0  0  0  0  0  0  0  0  0  0
  -19.2628   -1.1994   -0.0000 C   0  0  0  0  0  0  0  0  0  0  0  0
  -17.9302    1.1025   -0.0000 C   0  0  0  0  0  0  0  0  0  0  0  0
  -15.2649    5.6940   -0.0000 C   0  0  0  0  0  0  0  0  0  0  0  0
  -11.5335    3.5497   -0.0000 O   0  0  0  0  0  0  0  0  0  0  0  0
  -12.5996    5.7062   -0.0000 N   0  0  0  0  0  0  0  0  0  0  0  0
  -20.6076   -0.4119   -0.0000 C   0  0  0  0  0  0  0  0  0  0  0  0
  -19.2749    1.8899   -0.0000 C   0  0  0  0  0  0  0  0  0  0  0  0
  -16.6096    6.4694   -0.0000 C   0  0  0  0  0  0  0  0  0  0  0  0
  -11.2790    6.4936   -0.0000 C   0  0  0  0  0  0  0  0  0  0  0  0
  -20.6197    1.1388   -0.0000 C   0  0  0  0  0  0  0  0  0  0  0  0
  -16.6218    7.7172   -0.0000 C   0  0  0  0  0  0  0  0  0  0  0  0
  -11.2912    8.0443   -0.0000 C   0  0  0  0  0  0  0  0  0  0  0  0
  -21.6979    1.7688   -0.0000 O   0  0  0  0  0  0  0  0  0  0  0  0
   -9.9706    8.8318   -0.0000 C   0  0  0  0  0  0  0  0  0  0  0  0
  -12.6359    8.8197   -0.0000 C   0  0  0  0  0  0  0  0  0  0  0  0
   -9.9827   10.3825   -0.0000 C   0  0  0  0  0  0  0  0  0  0  0  0
  -12.6480   10.3704   -0.0000 C   0  0  0  0  0  0  0  0  0  0  0  0
  -11.3275   11.1579   -0.0000 C   0  0  0  0  0  0  0  0  0  0  0  0
  1  2  2  0  0  0  0
  1  3  2  0  0  0  0
  1  4  1  0  0  0  0
  1  5  1  0  0  0  0
  4  6  2  0  0  0  0
  4  7  1  0  0  0  0
  6  8  1  0  0  0  0
  7  9  2  0  0  0  0
  8 10  2  0  0  0  0
 10 11  1  0  0  0  0
 11 12  1  0  0  0  0
 11 13  2  0  0  0  0
 12 14  2  0  0  0  0
 12 15  1  0  0  0  0
 13 16  1  0  0  0  0
 14 17  1  0  0  0  0
 15 18  2  0  0  0  0
 16 19  1  0  0  0  0
 17 20  2  0  0  0  0
 17 21  1  0  0  0  0
 21 22  1  0  0  0  0
 22 23  1  0  0  0  0
 22 24  1  0  0  0  0
 23 25  2  0  0  0  0
 23 26  1  0  0  0  0
 24 27  1  0  0  0  0
 26 28  1  0  0  0  0
 26 29  1  6  0  0  0
 27 30  1  0  0  0  0
 28 31  1  0  0  0  0
 29 32  1  0  0  0  0
 30 33  1  0  0  0  0
 30 34  1  0  0  0  0
 31 35  2  0  0  0  0
 31 36  1  0  0  0  0
 32 37  2  0  0  0  0
 32 38  1  0  0  0  0
 33 39  1  0  0  0  0
 34 40  2  0  0  0  0
 34 41  1  0  0  0  0
 37 42  1  0  0  0  0
 38 43  2  0  0  0  0
 39 44  1  0  0  0  0
 41 45  1  0  0  0  0
 42 46  2  0  0  0  0
 44 47  2  0  0  0  0
 45 48  1  0  0  0  0
 46 49  1  0  0  0  0
 48 50  2  0  0  0  0
 48 51  1  0  0  0  0
 50 52  1  0  0  0  0
 51 53  2  0  0  0  0
 52 54  2  0  0  0  0
  9 10  1  0  0  0  0
 14 16  1  0  0  0  0
 18 20  1  0  0  0  0
 27 28  1  0  0  0  0
 33 36  1  0  0  0  0
 43 46  1  0  0  0  0
 53 54  1  0  0  0  0
M  END
>  <MolRegNo>
2036150

>  <m>
=

>  <Value>
10000

>  <Unit>
nM

>  <Type>
IC50

>  <pValue>
5

>  <Ligand Efficiency>
0.13

>  <Binding Efficiency>
6.69

>  <Surface Efficiency>
3.69

>  <Assay Index>
974120

>  <Assay Category>


>  <Assay Organism>
Homo sapiens

>  <Target ID>
17045

>  <Target Name>
Cytochrome P450 3A4

>  <Target Organism>
Homo sapiens

>  <Target Description>
Target is a single protein chain

>  <Sequence Accession>
P08684

>  <Reference>


>  <Pubmed ID>


>  <DOI>


$$$$
2036153
Actelion Java MolfileCreator 1.0

 54 61  0  0  1  0  0  0  0  0999 V2000
    0.0000   -0.0000   -0.0000 O   0  0  0  0  0  0  0  0  0  0  0  0
    0.3604    1.1775   -0.0000 C   0  0  0  0  0  0  0  0  0  0  0  0
   -0.6728    2.3189   -0.0000 N   0  0  0  0  0  0  0  0  0  0  0  0
    1.8383    1.5139   -0.0000 C   0  0  0  0  0  0  0  0  0  0  0  0
   -0.2163    3.7847   -0.0000 C   0  0  0  0  0  0  0  0  0  0  0  0
   -2.1747    2.0185   -0.0000 C   0  0  0  0  0  0  0  0  0  0  0  0
    2.2949    2.9797   -0.0000 N   0  0  0  0  0  0  0  0  0  0  0  0
    2.8475    0.3965   -0.0000 C   0  0  0  0  0  0  0  0  0  0  0  0
    1.2616    4.1211   -0.0000 C   0  0  0  0  0  0  0  0  0  0  0  0
   -3.2080    3.1599   -0.0000 C   0  0  0  0  0  0  0  0  0  0  0  0
    3.7727    3.3161   -0.0000 C   0  0  0  0  0  0  0  0  0  0  0  0
    4.3254    0.7329   -0.0000 C   0  0  0  0  0  0  0  0  0  0  0  0
    1.7181    5.5870   -0.0000 N   0  0  0  0  0  0  0  0  0  0  0  0
   -4.7099    2.8596   -0.0000 C   0  0  0  0  0  0  0  0  0  0  0  0
   -2.7514    4.6258   -0.0000 C   0  0  0  0  0  0  0  0  0  0  0  0
    4.5777    2.4270   -0.0000 O   0  0  0  0  0  0  0  0  0  0  0  0
    4.2293    4.7820   -0.0000 C   0  0  0  0  0  0  0  0  0  0  0  0
    5.3346   -0.3845   -0.0000 C   0  0  0  0  0  0  0  0  0  0  0  0
    4.7820    2.1987   -0.0000 C   0  0  0  0  0  0  0  0  0  0  0  0
    3.1960    5.9234   -0.0000 N   0  0  0  0  0  0  0  0  0  0  0  0
    0.6849    6.7284   -0.0000 C   0  0  0  0  0  0  0  0  0  0  0  0
   -5.4908    1.5499   -0.0000 N   0  0  0  0  0  0  0  0  0  0  0  0
   -5.7431    4.0130   -0.0000 C   0  0  0  0  0  0  0  0  0  0  0  0
   -3.7847    5.7792   -0.0000 C   0  0  0  0  0  0  0  0  0  0  0  0
    6.8125   -0.0481   -0.0000 C   0  0  0  0  0  0  0  0  0  0  0  0
    6.2598    2.5352   -0.0000 C   0  0  0  0  0  0  0  0  0  0  0  0
    3.6525    7.3892   -0.0000 C   0  0  0  0  0  0  0  0  0  0  0  0
   -0.5166    6.4881   -0.0000 O   0  0  0  0  0  0  0  0  0  0  0  0
    1.1414    8.1942   -0.0000 N   0  0  0  0  0  0  0  0  0  0  0  0
   -6.9927    1.8863   -0.0000 C   0  0  0  0  0  0  0  0  0  0  0  0
   -5.0102    0.4446   -0.0000 C   0  0  0  0  0  0  0  0  0  0  0  0
   -7.1249    3.4002   -0.0000 C   0  0  0  0  0  0  0  0  0  0  0  0
   -5.2866    5.4788   -0.0000 C   0  0  0  0  0  0  0  0  0  0  0  0
    7.2690    1.4178   -0.0000 C   0  0  0  0  0  0  0  0  0  0  0  0
    5.1304    7.7136   -0.0000 C   0  0  0  0  0  0  0  0  0  0  0  0
    0.1081    9.3356   -0.0000 C   0  0  0  0  0  0  0  0  0  0  0  0
   -8.4585    4.1812   -0.0000 C   0  0  0  0  0  0  0  0  0  0  0  0
    8.4465    1.6941   -0.0000 O   0  0  0  0  0  0  0  0  0  0  0  0
    5.4908    8.8911   -0.0000 C   0  0  0  0  0  0  0  0  0  0  0  0
    0.5647   10.8014   -0.0000 C   0  0  0  0  0  0  0  0  0  0  0  0
   -8.4705    5.7191   -0.0000 C   0  0  0  0  0  0  0  0  0  0  0  0
   -9.7922    3.4243   -0.0000 C   0  0  0  0  0  0  0  0  0  0  0  0
   -0.4686   11.9549   -0.0000 C   0  0  0  0  0  0  0  0  0  0  0  0
    2.0425   11.1258   -0.0000 C   0  0  0  0  0  0  0  0  0  0  0  0
   -9.8042    6.4881   -0.0000 N   0  0  0  0  0  0  0  0  0  0  0  0
  -11.1258    4.1932   -0.0000 C   0  0  0  0  0  0  0  0  0  0  0  0
   -0.0120   13.4207   -0.0000 C   0  0  0  0  0  0  0  0  0  0  0  0
    2.4991   12.5917   -0.0000 C   0  0  0  0  0  0  0  0  0  0  0  0
  -11.1379    5.7311   -0.0000 C   0  0  0  0  0  0  0  0  0  0  0  0
  -12.4595    3.4363   -0.0000 C   0  0  0  0  0  0  0  0  0  0  0  0
    1.4658   13.7451   -0.0000 C   0  0  0  0  0  0  0  0  0  0  0  0
  -12.4715    6.5001   -0.0000 C   0  0  0  0  0  0  0  0  0  0  0  0
  -13.7932    4.2052   -0.0000 C   0  0  0  0  0  0  0  0  0  0  0  0
  -13.8052    5.7431   -0.0000 C   0  0  0  0  0  0  0  0  0  0  0  0
  1  2  2  0  0  0  0
  2  3  1  0  0  0  0
  2  4  1  0  0  0  0
  3  5  1  0  0  0  0
  3  6  1  0  0  0  0
  4  7  1  0  0  0  0
  4  8  1  1  0  0  0
  5  9  1  0  0  0  0
  6 10  1  0  0  0  0
  7 11  1  0  0  0  0
  8 12  1  0  0  0  0
  9 13  1  6  0  0  0
 10 14  2  0  0  0  0
 10 15  1  0  0  0  0
 11 16  2  0  0  0  0
 11 17  1  0  0  0  0
 12 18  2  0  0  0  0
 12 19  1  0  0  0  0
 13 20  1  0  0  0  0
 13 21  1  0  0  0  0
 14 22  1  0  0  0  0
 14 23  1  0  0  0  0
 15 24  2  0  0  0  0
 18 25  1  0  0  0  0
 19 26  2  0  0  0  0
 20 27  1  0  0  0  0
 21 28  2  0  0  0  0
 21 29  1  0  0  0  0
 22 30  1  0  0  0  0
 22 31  1  0  0  0  0
 23 32  1  0  0  0  0
 23 33  2  0  0  0  0
 25 34  2  0  0  0  0
 27 35  1  0  0  0  0
 29 36  1  0  0  0  0
 32 37  1  0  0  0  0
 34 38  1  0  0  0  0
 35 39  2  0  0  0  0
 36 40  1  0  0  0  0
 37 41  1  0  0  0  0
 37 42  2  0  0  0  0
 40 43  2  0  0  0  0
 40 44  1  0  0  0  0
 41 45  2  0  0  0  0
 42 46  1  0  0  0  0
 43 47  1  0  0  0  0
 44 48  2  0  0  0  0
 45 49  1  0  0  0  0
 46 50  2  0  0  0  0
 47 51  2  0  0  0  0
 49 52  2  0  0  0  0
 50 53  1  0  0  0  0
 52 54  1  0  0  0  0
  7  9  1  0  0  0  0
 17 20  1  0  0  0  0
 24 33  1  0  0  0  0
 26 34  1  0  0  0  0
 30 32  2  0  0  0  0
 46 49  1  0  0  0  0
 48 51  1  0  0  0  0
 53 54  2  0  0  0  0
M  END
>  <MolRegNo>
2036153

>  <m>
=

>  <Value>
2090

>  <Unit>
nM

>  <Type>
IC50

>  <pValue>
5.68

>  <Ligand Efficiency>
0.14

>  <Binding Efficiency>
7.89

>  <Surface Efficiency>
4.97

>  <Assay Index>
974120

>  <Assay Category>


>  <Assay Organism>
Homo sapiens

>  <Target ID>
17045

>  <Target Name>
Cytochrome P450 3A4

>  <Target Organism>
Homo sapiens

>  <Target Description>
Target is a single protein chain

>  <Sequence Accession>
P08684

>  <Reference>


>  <Pubmed ID>


>  <DOI>


$$$$
2036154
Actelion Java MolfileCreator 1.0

 53 59  0  0  1  0  0  0  0  0999 V2000
    0.0000   -0.0000   -0.0000 O   0  0  0  0  0  0  0  0  0  0  0  0
   -0.0121    1.2477   -0.0000 C   0  0  0  0  0  0  0  0  0  0  0  0
    1.3082    2.0229   -0.0000 N   0  0  0  0  0  0  0  0  0  0  0  0
   -1.3567    2.0229   -0.0000 C   0  0  0  0  0  0  0  0  0  0  0  0
    1.2961    3.5734   -0.0000 C   0  0  0  0  0  0  0  0  0  0  0  0
    2.6286    1.2719   -0.0000 C   0  0  0  0  0  0  0  0  0  0  0  0
   -1.3688    3.5734   -0.0000 N   0  0  0  0  0  0  0  0  0  0  0  0
   -2.7013    1.2719   -0.0000 C   0  0  0  0  0  0  0  0  0  0  0  0
   -0.0485    4.3487   -0.0000 C   0  0  0  0  0  0  0  0  0  0  0  0
    3.9489    2.0593   -0.0000 C   0  0  0  0  0  0  0  0  0  0  0  0
   -2.7134    4.3487   -0.0000 C   0  0  0  0  0  0  0  0  0  0  0  0
   -4.0458    2.0593   -0.0000 C   0  0  0  0  0  0  0  0  0  0  0  0
   -0.0606    5.8992   -0.0000 N   0  0  0  0  0  0  0  0  0  0  0  0
    5.2693    1.3082   -0.0000 C   0  0  0  0  0  0  0  0  0  0  0  0
    3.9368    3.6098   -0.0000 C   0  0  0  0  0  0  0  0  0  0  0  0
   -3.7915    3.7430   -0.0000 O   0  0  0  0  0  0  0  0  0  0  0  0
   -2.7255    5.8992   -0.0000 C   0  0  0  0  0  0  0  0  0  0  0  0
   -5.3904    1.3082   -0.0000 C   0  0  0  0  0  0  0  0  0  0  0  0
   -4.0580    3.6098   -0.0000 C   0  0  0  0  0  0  0  0  0  0  0  0
   -1.4051    6.6744   -0.0000 N   0  0  0  0  0  0  0  0  0  0  0  0
    1.2598    6.6865   -0.0000 C   0  0  0  0  0  0  0  0  0  0  0  0
    5.5842   -0.1817   -0.0000 N   0  0  0  0  0  0  0  0  0  0  0  0
    6.5896    2.0956   -0.0000 C   0  0  0  0  0  0  0  0  0  0  0  0
    5.2572    4.3971   -0.0000 C   0  0  0  0  0  0  0  0  0  0  0  0
   -6.7350    2.0956   -0.0000 C   0  0  0  0  0  0  0  0  0  0  0  0
   -5.4025    4.3971   -0.0000 C   0  0  0  0  0  0  0  0  0  0  0  0
   -1.4173    8.2249   -0.0000 C   0  0  0  0  0  0  0  0  0  0  0  0
    2.3136    6.0809   -0.0000 O   0  0  0  0  0  0  0  0  0  0  0  0
    1.2477    8.2371   -0.0000 N   0  0  0  0  0  0  0  0  0  0  0  0
    7.0984   -0.3271   -0.0000 C   0  0  0  0  0  0  0  0  0  0  0  0
    4.7484   -1.0902   -0.0000 C   0  0  0  0  0  0  0  0  0  0  0  0
    7.7283    1.0781   -0.0000 C   0  0  0  0  0  0  0  0  0  0  0  0
    6.5775    3.6461   -0.0000 C   0  0  0  0  0  0  0  0  0  0  0  0
   -6.7471    3.6461   -0.0000 C   0  0  0  0  0  0  0  0  0  0  0  0
   -2.7618    9.0002   -0.0000 C   0  0  0  0  0  0  0  0  0  0  0  0
    2.5680    9.0244   -0.0000 C   0  0  0  0  0  0  0  0  0  0  0  0
    9.2182    1.4173   -0.0000 C   0  0  0  0  0  0  0  0  0  0  0  0
   -7.8252    4.2760   -0.0000 O   0  0  0  0  0  0  0  0  0  0  0  0
   -2.7739   10.2479   -0.0000 C   0  0  0  0  0  0  0  0  0  0  0  0
    2.5559   10.5749   -0.0000 C   0  0  0  0  0  0  0  0  0  0  0  0
   10.3205    0.3755   -0.0000 C   0  0  0  0  0  0  0  0  0  0  0  0
    9.5574    2.9314   -0.0000 C   0  0  0  0  0  0  0  0  0  0  0  0
    3.8763   11.3623   -0.0000 C   0  0  0  0  0  0  0  0  0  0  0  0
    1.2113   11.3502   -0.0000 C   0  0  0  0  0  0  0  0  0  0  0  0
   11.7863    0.8237   -0.0000 N   0  0  0  0  0  0  0  0  0  0  0  0
   11.0231    3.3796   -0.0000 N   0  0  0  0  0  0  0  0  0  0  0  0
    3.8641   12.9128   -0.0000 C   0  0  0  0  0  0  0  0  0  0  0  0
    1.1992   12.9007   -0.0000 C   0  0  0  0  0  0  0  0  0  0  0  0
   12.1375    2.3258   -0.0000 C   0  0  0  0  0  0  0  0  0  0  0  0
    2.5196   13.6880   -0.0000 C   0  0  0  0  0  0  0  0  0  0  0  0
   13.6032    2.7739   -0.0000 N   0  0  0  0  0  0  0  0  0  0  0  0
   13.8819    3.9853   -0.0000 C   0  0  0  0  0  0  0  0  0  0  0  0
   14.4875    1.9381   -0.0000 C   0  0  0  0  0  0  0  0  0  0  0  0
  1  2  2  0  0  0  0
  2  3  1  0  0  0  0
  2  4  1  0  0  0  0
  3  5  1  0  0  0  0
  3  6  1  0  0  0  0
  4  7  1  0  0  0  0
  4  8  1  6  0  0  0
  5  9  1  0  0  0  0
  6 10  1  0  0  0  0
  7 11  1  0  0  0  0
  8 12  1  0  0  0  0
  9 13  1  1  0  0  0
 10 14  2  0  0  0  0
 10 15  1  0  0  0  0
 11 16  2  0  0  0  0
 11 17  1  0  0  0  0
 12 18  2  0  0  0  0
 12 19  1  0  0  0  0
 13 20  1  0  0  0  0
 13 21  1  0  0  0  0
 14 22  1  0  0  0  0
 14 23  1  0  0  0  0
 15 24  2  0  0  0  0
 18 25  1  0  0  0  0
 19 26  2  0  0  0  0
 20 27  1  0  0  0  0
 21 28  2  0  0  0  0
 21 29  1  0  0  0  0
 22 30  1  0  0  0  0
 22 31  1  0  0  0  0
 23 32  1  0  0  0  0
 23 33  2  0  0  0  0
 25 34  2  0  0  0  0
 27 35  1  0  0  0  0
 29 36  1  0  0  0  0
 32 37  1  0  0  0  0
 34 38  1  0  0  0  0
 35 39  2  0  0  0  0
 36 40  1  0  0  0  0
 37 41  2  0  0  0  0
 37 42  1  0  0  0  0
 40 43  2  0  0  0  0
 40 44  1  0  0  0  0
 41 45  1  0  0  0  0
 42 46  2  0  0  0  0
 43 47  1  0  0  0  0
 44 48  2  0  0  0  0
 45 49  2  0  0  0  0
 47 50  2  0  0  0  0
 49 51  1  0  0  0  0
 51 52  1  0  0  0  0
 51 53  1  0  0  0  0
  7  9  1  0  0  0  0
 17 20  1  0  0  0  0
 24 33  1  0  0  0  0
 26 34  1  0  0  0  0
 30 32  2  0  0  0  0
 46 49  1  0  0  0  0
 48 50  1  0  0  0  0
M  END
>  <MolRegNo>
2036154

>  <m>
=

>  <Value>
6410

>  <Unit>
nM

>  <Type>
IC50

>  <pValue>
5.19

>  <Ligand Efficiency>
0.13

>  <Binding Efficiency>
7.27

>  <Surface Efficiency>
3.98

>  <Assay Index>
974120

>  <Assay Category>


>  <Assay Organism>
Homo sapiens

>  <Target ID>
17045

>  <Target Name>
Cytochrome P450 3A4

>  <Target Organism>
Homo sapiens

>  <Target Description>
Target is a single protein chain

>  <Sequence Accession>
P08684

>  <Reference>


>  <Pubmed ID>


>  <DOI>


$$$$
1834303
Actelion Java MolfileCreator 1.0

 39 42  0  0  1  0  0  0  0  0999 V2000
    0.0000   -0.0000   -0.0000 Cl  0  0  0  0  0  0  0  0  0  0  0  0
   -1.1171   -0.6276   -0.0000 C   0  0  0  0  0  0  0  0  0  0  0  0
   -1.1297   -2.2091   -0.0000 C   0  0  0  0  0  0  0  0  0  0  0  0
   -2.5104    0.1883   -0.0000 C   0  0  0  0  0  0  0  0  0  0  0  0
   -0.0377   -2.8367   -0.0000 F   0  0  0  0  0  0  0  0  0  0  0  0
   -2.5229   -2.9874   -0.0000 C   0  0  0  0  0  0  0  0  0  0  0  0
   -3.9036   -0.5899   -0.0000 C   0  0  0  0  0  0  0  0  0  0  0  0
   -3.9162   -2.1715   -0.0000 C   0  0  0  0  0  0  0  0  0  0  0  0
   -5.3095   -2.9497   -0.0000 C   0  0  0  0  0  0  0  0  0  0  0  0
   -5.3220   -4.5312   -0.0000 N   0  0  0  0  0  0  0  0  0  0  0  0
   -6.7027   -2.1464   -0.0000 C   0  0  0  0  0  0  0  0  0  0  0  0
   -6.7153   -5.3095   -0.0000 C   0  0  0  0  0  0  0  0  0  0  0  0
   -3.9539   -5.3095   -0.0000 C   0  0  0  0  0  0  0  0  0  0  0  0
   -6.7153   -0.5397   -0.0000 C   0  0  0  0  0  0  0  0  0  0  0  0
   -8.0960   -2.9246   -0.0000 C   0  0  0  0  0  0  0  0  0  0  0  0
   -6.7278   -6.5772   -0.0000 O   0  0  0  0  0  0  0  0  0  0  0  0
   -8.1085   -4.5061   -0.0000 C   0  0  0  0  0  0  0  0  0  0  0  0
   -2.5857   -4.5061   -0.0000 C   0  0  0  0  0  0  0  0  0  0  0  0
   -3.9664   -6.8910   -0.0000 C   0  0  0  0  0  0  0  0  0  0  0  0
   -5.3471    0.2636   -0.0000 C   0  0  0  0  0  0  0  0  0  0  0  0
   -8.1085    0.2761   -0.0000 C   0  0  0  0  0  0  0  0  0  0  0  0
   -9.4641   -3.6777   -0.0000 C   0  0  0  0  0  0  0  0  0  0  0  0
   -8.0960   -5.7739   -0.0000 C   0  0  0  0  0  0  0  0  0  0  0  0
   -1.8828   -3.1631   -0.0000 C   0  0  0  0  0  0  0  0  0  0  0  0
   -1.0920   -4.5438   -0.0000 C   0  0  0  0  0  0  0  0  0  0  0  0
   -5.3597   -7.6692   -0.0000 S   0  0  0  0  0  0  0  0  0  0  0  0
   -5.3597    1.8702   -0.0000 C   0  0  0  0  0  0  0  0  0  0  0  0
   -8.1211    1.8828   -0.0000 C   0  0  0  0  0  0  0  0  0  0  0  0
   -9.4767   -2.0711   -0.0000 C   0  0  0  0  0  0  0  0  0  0  0  0
   -5.3722   -6.3764   -0.0000 O   0  0  0  0  0  0  0  0  0  0  0  0
   -6.4768   -7.0165   -0.0000 O   0  0  0  0  0  0  0  0  0  0  0  0
   -5.3722   -9.2508   -0.0000 C   0  0  0  0  0  0  0  0  0  0  0  0
   -4.2677    2.5229   -0.0000 Cl  0  0  0  0  0  0  0  0  0  0  0  0
   -6.7529    2.6861   -0.0000 C   0  0  0  0  0  0  0  0  0  0  0  0
  -10.5938   -1.4184   -0.0000 O   0  0  0  0  0  0  0  0  0  0  0  0
   -8.3847   -1.4184   -0.0000 O   0  0  0  0  0  0  0  0  0  0  0  0
   -6.4893   -9.8784   -0.0000 C   0  0  0  0  0  0  0  0  0  0  0  0
   -5.3848  -10.5185   -0.0000 C   0  0  0  0  0  0  0  0  0  0  0  0
   -4.2802   -9.8784   -0.0000 C   0  0  0  0  0  0  0  0  0  0  0  0
  1  2  1  0  0  0  0
  2  3  2  0  0  0  0
  2  4  1  0  0  0  0
  3  5  1  0  0  0  0
  3  6  1  0  0  0  0
  4  7  2  0  0  0  0
  6  8  2  0  0  0  0
  9  8  1  1  0  0  0
  9 10  1  0  0  0  0
  9 11  1  0  0  0  0
 10 12  1  0  0  0  0
 13 10  1  1  0  0  0
 11 14  1  6  0  0  0
 11 15  1  0  0  0  0
 12 16  2  0  0  0  0
 17 12  1  1  0  0  0
 13 18  1  0  0  0  0
 13 19  1  0  0  0  0
 14 20  2  0  0  0  0
 14 21  1  0  0  0  0
 17 22  1  0  0  0  0
 17 23  1  0  0  0  0
 18 24  1  0  0  0  0
 18 25  1  0  0  0  0
 19 26  1  0  0  0  0
 20 27  1  0  0  0  0
 21 28  2  0  0  0  0
 22 29  1  0  0  0  0
 26 30  2  0  0  0  0
 26 31  2  0  0  0  0
 26 32  1  0  0  0  0
 27 33  1  0  0  0  0
 27 34  2  0  0  0  0
 29 35  2  0  0  0  0
 29 36  1  0  0  0  0
 32 37  1  0  0  0  0
 32 38  1  0  0  0  0
 32 39  1  0  0  0  0
  7  8  1  0  0  0  0
 15 17  1  0  0  0  0
 24 25  1  0  0  0  0
 28 34  1  0  0  0  0
M  END
>  <MolRegNo>
1834303

>  <m>
=

>  <Value>
0.102

>  <Unit>
nM

>  <Type>
IC50

>  <pValue>
9.99

>  <Ligand Efficiency>
0.35

>  <Binding Efficiency>
16.69

>  <Surface Efficiency>
10.89

>  <Assay Index>
974165

>  <Assay Category>


>  <Assay Organism>
Homo sapiens

>  <Target ID>
17045

>  <Target Name>
Cytochrome P450 3A4

>  <Target Organism>
Homo sapiens

>  <Target Description>
Target is a single protein chain

>  <Sequence Accession>
P08684

>  <Reference>


>  <Pubmed ID>


>  <DOI>


$$$$
2005594
Actelion Java MolfileCreator 1.0

 50 54  0  0  1  0  0  0  0  0999 V2000
    0.0000   -0.0000   -0.0000 S   0  0  0  0  0  0  0  0  0  0  0  0
    0.1334    1.5283   -0.0000 C   0  0  0  0  0  0  0  0  0  0  0  0
   -1.5161   -0.3032   -0.0000 C   0  0  0  0  0  0  0  0  0  0  0  0
   -1.2614    2.1832   -0.0000 C   0  0  0  0  0  0  0  0  0  0  0  0
    1.4555    2.3045   -0.0000 C   0  0  0  0  0  0  0  0  0  0  0  0
   -2.2924    1.0431   -0.0000 N   0  0  0  0  0  0  0  0  0  0  0  0
    2.7775    1.5404   -0.0000 O   0  0  0  0  0  0  0  0  0  0  0  0
    4.0996    2.3166   -0.0000 C   0  0  0  0  0  0  0  0  0  0  0  0
    4.0875    3.5659   -0.0000 O   0  0  0  0  0  0  0  0  0  0  0  0
    5.4216    1.5525   -0.0000 N   0  0  0  0  0  0  0  0  0  0  0  0
    6.7437    2.3288   -0.0000 C   0  0  0  0  0  0  0  0  0  0  0  0
    6.7316    3.8813   -0.0000 C   0  0  0  0  0  0  0  0  0  0  0  0
    8.0658    1.5646   -0.0000 C   0  0  0  0  0  0  0  0  0  0  0  0
    5.3853    4.6697   -0.0000 C   0  0  0  0  0  0  0  0  0  0  0  0
    9.3878    2.3409   -0.0000 C   0  0  0  0  0  0  0  0  0  0  0  0
    5.3731    6.2222   -0.0000 C   0  0  0  0  0  0  0  0  0  0  0  0
    4.0389    3.9177   -0.0000 C   0  0  0  0  0  0  0  0  0  0  0  0
   10.7099    1.5768   -0.0000 C   0  0  0  0  0  0  0  0  0  0  0  0
    4.0268    6.9984   -0.0000 C   0  0  0  0  0  0  0  0  0  0  0  0
    2.6926    4.6939   -0.0000 C   0  0  0  0  0  0  0  0  0  0  0  0
   12.0319    2.3530   -0.0000 N   0  0  0  0  0  0  0  0  0  0  0  0
   10.6856    0.0485   -0.0000 C   0  0  0  0  0  0  0  0  0  0  0  0
    2.6805    6.2464   -0.0000 C   0  0  0  0  0  0  0  0  0  0  0  0
   13.3540    1.5889   -0.0000 C   0  0  0  0  0  0  0  0  0  0  0  0
    9.3393   -0.7035   -0.0000 C   0  0  0  0  0  0  0  0  0  0  0  0
   13.3419    0.3639   -0.0000 O   0  0  0  0  0  0  0  0  0  0  0  0
   14.6761    2.3651   -0.0000 C   0  0  0  0  0  0  0  0  0  0  0  0
    9.3150   -2.2317   -0.0000 C   0  0  0  0  0  0  0  0  0  0  0  0
    8.0051    0.0849   -0.0000 C   0  0  0  0  0  0  0  0  0  0  0  0
   14.8095    3.8934   -0.0000 N   0  0  0  0  0  0  0  0  0  0  0  0
   16.0466    1.7344   -0.0000 C   0  0  0  0  0  0  0  0  0  0  0  0
    7.9687   -2.9837   -0.0000 C   0  0  0  0  0  0  0  0  0  0  0  0
    6.6588   -0.6671   -0.0000 C   0  0  0  0  0  0  0  0  0  0  0  0
   13.6451    4.9244   -0.0000 C   0  0  0  0  0  0  0  0  0  0  0  0
   16.3013    4.2209   -0.0000 C   0  0  0  0  0  0  0  0  0  0  0  0
   17.0655    2.8867   -0.0000 C   0  0  0  0  0  0  0  0  0  0  0  0
    6.6345   -2.1953   -0.0000 C   0  0  0  0  0  0  0  0  0  0  0  0
   12.4686    4.5484   -0.0000 O   0  0  0  0  0  0  0  0  0  0  0  0
   13.9483    6.4405   -0.0000 N   0  0  0  0  0  0  0  0  0  0  0  0
   18.2784    2.7654   -0.0000 O   0  0  0  0  0  0  0  0  0  0  0  0
   12.7839    7.4836   -0.0000 C   0  0  0  0  0  0  0  0  0  0  0  0
   15.1006    6.8407   -0.0000 C   0  0  0  0  0  0  0  0  0  0  0  0
   13.0872    8.9997   -0.0000 C   0  0  0  0  0  0  0  0  0  0  0  0
   12.0319   10.1277   -0.0000 N   0  0  0  0  0  0  0  0  0  0  0  0
   14.4699    9.6183   -0.0000 C   0  0  0  0  0  0  0  0  0  0  0  0
   12.7839   11.4740   -0.0000 C   0  0  0  0  0  0  0  0  0  0  0  0
   14.2879   11.1587   -0.0000 S   0  0  0  0  0  0  0  0  0  0  0  0
   12.1411   12.8931   -0.0000 C   0  0  0  0  0  0  0  0  0  0  0  0
   12.8567   13.8998   -0.0000 C   0  0  0  0  0  0  0  0  0  0  0  0
   10.9039   13.0386   -0.0000 C   0  0  0  0  0  0  0  0  0  0  0  0
  1  2  1  0  0  0  0
  1  3  1  0  0  0  0
  2  4  2  0  0  0  0
  2  5  1  0  0  0  0
  3  6  2  0  0  0  0
  5  7  1  0  0  0  0
  7  8  1  0  0  0  0
  8  9  2  0  0  0  0
  8 10  1  0  0  0  0
 11 10  1  1  0  0  0
 11 12  1  0  0  0  0
 11 13  1  0  0  0  0
 12 14  1  0  0  0  0
 13 15  1  0  0  0  0
 14 16  2  0  0  0  0
 14 17  1  0  0  0  0
 15 18  1  0  0  0  0
 16 19  1  0  0  0  0
 17 20  2  0  0  0  0
 18 21  1  1  0  0  0
 18 22  1  0  0  0  0
 19 23  2  0  0  0  0
 21 24  1  0  0  0  0
 22 25  1  0  0  0  0
 24 26  2  0  0  0  0
 27 24  1  1  0  0  0
 25 28  2  0  0  0  0
 25 29  1  0  0  0  0
 27 30  1  0  0  0  0
 27 31  1  0  0  0  0
 28 32  1  0  0  0  0
 29 33  2  0  0  0  0
 30 34  1  0  0  0  0
 30 35  1  0  0  0  0
 31 36  1  0  0  0  0
 32 37  2  0  0  0  0
 34 38  2  0  0  0  0
 34 39  1  0  0  0  0
 36 40  1  6  0  0  0
 39 41  1  0  0  0  0
 39 42  1  0  0  0  0
 41 43  1  0  0  0  0
 43 44  1  0  0  0  0
 43 45  2  0  0  0  0
 44 46  2  0  0  0  0
 45 47  1  0  0  0  0
 46 48  1  0  0  0  0
 48 49  1  0  0  0  0
 48 50  1  0  0  0  0
  4  6  1  0  0  0  0
 20 23  1  0  0  0  0
 33 37  1  0  0  0  0
 35 36  1  0  0  0  0
 46 47  1  0  0  0  0
M  END
>  <MolRegNo>
2005594

>  <m>
=

>  <Value>
160

>  <Unit>
nM

>  <Type>
IC50

>  <pValue>
6.8

>  <Ligand Efficiency>
0.19

>  <Binding Efficiency>
9.45

>  <Surface Efficiency>
4.96

>  <Assay Index>
973840

>  <Assay Category>


>  <Assay Organism>
Homo sapiens

>  <Target ID>
17045

>  <Target Name>
Cytochrome P450 3A4

>  <Target Organism>
Homo sapiens

>  <Target Description>
Target is a single protein chain

>  <Sequence Accession>
P08684

>  <Reference>


>  <Pubmed ID>


>  <DOI>


$$$$
2005595
Actelion Java MolfileCreator 1.0

 50 54  0  0  1  0  0  0  0  0999 V2000
    0.0000   -0.0000   -0.0000 S   0  0  0  0  0  0  0  0  0  0  0  0
    0.1334    1.5283   -0.0000 C   0  0  0  0  0  0  0  0  0  0  0  0
   -1.5161   -0.3032   -0.0000 C   0  0  0  0  0  0  0  0  0  0  0  0
   -1.2614    2.1832   -0.0000 C   0  0  0  0  0  0  0  0  0  0  0  0
    1.4555    2.3045   -0.0000 C   0  0  0  0  0  0  0  0  0  0  0  0
   -2.2924    1.0431   -0.0000 N   0  0  0  0  0  0  0  0  0  0  0  0
    2.7775    1.5404   -0.0000 O   0  0  0  0  0  0  0  0  0  0  0  0
    4.0996    2.3166   -0.0000 C   0  0  0  0  0  0  0  0  0  0  0  0
    4.0875    3.5659   -0.0000 O   0  0  0  0  0  0  0  0  0  0  0  0
    5.4216    1.5525   -0.0000 N   0  0  0  0  0  0  0  0  0  0  0  0
    6.7437    2.3288   -0.0000 C   0  0  0  0  0  0  0  0  0  0  0  0
    6.7316    3.8813   -0.0000 C   0  0  0  0  0  0  0  0  0  0  0  0
    8.0658    1.5646   -0.0000 C   0  0  0  0  0  0  0  0  0  0  0  0
    5.3853    4.6697   -0.0000 C   0  0  0  0  0  0  0  0  0  0  0  0
    9.3878    2.3409   -0.0000 C   0  0  0  0  0  0  0  0  0  0  0  0
    5.3731    6.2222   -0.0000 C   0  0  0  0  0  0  0  0  0  0  0  0
    4.0389    3.9177   -0.0000 C   0  0  0  0  0  0  0  0  0  0  0  0
   10.7099    1.5768   -0.0000 C   0  0  0  0  0  0  0  0  0  0  0  0
    4.0268    6.9984   -0.0000 C   0  0  0  0  0  0  0  0  0  0  0  0
    2.6926    4.6939   -0.0000 C   0  0  0  0  0  0  0  0  0  0  0  0
   12.0319    2.3530   -0.0000 N   0  0  0  0  0  0  0  0  0  0  0  0
   10.6856    0.0485   -0.0000 C   0  0  0  0  0  0  0  0  0  0  0  0
    2.6805    6.2464   -0.0000 C   0  0  0  0  0  0  0  0  0  0  0  0
   13.3540    1.5889   -0.0000 C   0  0  0  0  0  0  0  0  0  0  0  0
    9.3393   -0.7035   -0.0000 C   0  0  0  0  0  0  0  0  0  0  0  0
   13.3419    0.3639   -0.0000 O   0  0  0  0  0  0  0  0  0  0  0  0
   14.6761    2.3651   -0.0000 C   0  0  0  0  0  0  0  0  0  0  0  0
    9.3150   -2.2317   -0.0000 C   0  0  0  0  0  0  0  0  0  0  0  0
    8.0051    0.0849   -0.0000 C   0  0  0  0  0  0  0  0  0  0  0  0
   14.8095    3.8934   -0.0000 N   0  0  0  0  0  0  0  0  0  0  0  0
   16.0466    1.7344   -0.0000 C   0  0  0  0  0  0  0  0  0  0  0  0
    7.9687   -2.9837   -0.0000 C   0  0  0  0  0  0  0  0  0  0  0  0
    6.6588   -0.6671   -0.0000 C   0  0  0  0  0  0  0  0  0  0  0  0
   13.6451    4.9244   -0.0000 C   0  0  0  0  0  0  0  0  0  0  0  0
   16.3013    4.2209   -0.0000 C   0  0  0  0  0  0  0  0  0  0  0  0
   17.0655    2.8867   -0.0000 C   0  0  0  0  0  0  0  0  0  0  0  0
    6.6345   -2.1953   -0.0000 C   0  0  0  0  0  0  0  0  0  0  0  0
   12.4686    4.5484   -0.0000 O   0  0  0  0  0  0  0  0  0  0  0  0
   13.9483    6.4405   -0.0000 N   0  0  0  0  0  0  0  0  0  0  0  0
   18.2784    2.7654   -0.0000 O   0  0  0  0  0  0  0  0  0  0  0  0
   12.7839    7.4836   -0.0000 C   0  0  0  0  0  0  0  0  0  0  0  0
   15.1006    6.8407   -0.0000 C   0  0  0  0  0  0  0  0  0  0  0  0
   13.0872    8.9997   -0.0000 C   0  0  0  0  0  0  0  0  0  0  0  0
   12.0319   10.1277   -0.0000 N   0  0  0  0  0  0  0  0  0  0  0  0
   14.4699    9.6183   -0.0000 C   0  0  0  0  0  0  0  0  0  0  0  0
   12.7839   11.4740   -0.0000 C   0  0  0  0  0  0  0  0  0  0  0  0
   14.2879   11.1587   -0.0000 S   0  0  0  0  0  0  0  0  0  0  0  0
   12.1411   12.8931   -0.0000 C   0  0  0  0  0  0  0  0  0  0  0  0
   12.8567   13.8998   -0.0000 C   0  0  0  0  0  0  0  0  0  0  0  0
   10.9039   13.0386   -0.0000 C   0  0  0  0  0  0  0  0  0  0  0  0
  1  2  1  0  0  0  0
  1  3  1  0  0  0  0
  2  4  2  0  0  0  0
  2  5  1  0  0  0  0
  3  6  2  0  0  0  0
  5  7  1  0  0  0  0
  7  8  1  0  0  0  0
  8  9  2  0  0  0  0
  8 10  1  0  0  0  0
 11 10  1  1  0  0  0
 11 12  1  0  0  0  0
 11 13  1  0  0  0  0
 12 14  1  0  0  0  0
 13 15  1  0  0  0  0
 14 16  2  0  0  0  0
 14 17  1  0  0  0  0
 15 18  1  0  0  0  0
 16 19  1  0  0  0  0
 17 20  2  0  0  0  0
 18 21  1  1  0  0  0
 18 22  1  0  0  0  0
 19 23  2  0  0  0  0
 21 24  1  0  0  0  0
 22 25  1  0  0  0  0
 24 26  2  0  0  0  0
 27 24  1  1  0  0  0
 25 28  2  0  0  0  0
 25 29  1  0  0  0  0
 27 30  1  0  0  0  0
 27 31  1  0  0  0  0
 28 32  1  0  0  0  0
 29 33  2  0  0  0  0
 30 34  1  0  0  0  0
 30 35  1  0  0  0  0
 31 36  1  0  0  0  0
 32 37  2  0  0  0  0
 34 38  2  0  0  0  0
 34 39  1  0  0  0  0
 36 40  1  1  0  0  0
 39 41  1  0  0  0  0
 39 42  1  0  0  0  0
 41 43  1  0  0  0  0
 43 44  1  0  0  0  0
 43 45  2  0  0  0  0
 44 46  2  0  0  0  0
 45 47  1  0  0  0  0
 46 48  1  0  0  0  0
 48 49  1  0  0  0  0
 48 50  1  0  0  0  0
  4  6  1  0  0  0  0
 20 23  1  0  0  0  0
 33 37  1  0  0  0  0
 35 36  1  0  0  0  0
 46 47  1  0  0  0  0
M  END
>  <MolRegNo>
2005595

>  <m>
=

>  <Value>
170

>  <Unit>
nM

>  <Type>
IC50

>  <pValue>
6.77

>  <Ligand Efficiency>
0.18

>  <Binding Efficiency>
9.42

>  <Surface Efficiency>
4.94

>  <Assay Index>
973840

>  <Assay Category>


>  <Assay Organism>
Homo sapiens

>  <Target ID>
17045

>  <Target Name>
Cytochrome P450 3A4

>  <Target Organism>
Homo sapiens

>  <Target Description>
Target is a single protein chain

>  <Sequence Accession>
P08684

>  <Reference>


>  <Pubmed ID>


>  <DOI>


$$$$
2005596
Actelion Java MolfileCreator 1.0

 50 54  0  0  1  0  0  0  0  0999 V2000
    0.0000   -0.0000   -0.0000 S   0  0  0  0  0  0  0  0  0  0  0  0
    0.1334    1.5283   -0.0000 C   0  0  0  0  0  0  0  0  0  0  0  0
   -1.5161   -0.3032   -0.0000 C   0  0  0  0  0  0  0  0  0  0  0  0
   -1.2614    2.1832   -0.0000 C   0  0  0  0  0  0  0  0  0  0  0  0
    1.4555    2.3045   -0.0000 C   0  0  0  0  0  0  0  0  0  0  0  0
   -2.2924    1.0431   -0.0000 N   0  0  0  0  0  0  0  0  0  0  0  0
    2.7775    1.5404   -0.0000 O   0  0  0  0  0  0  0  0  0  0  0  0
    4.0996    2.3166   -0.0000 C   0  0  0  0  0  0  0  0  0  0  0  0
    4.0875    3.5659   -0.0000 O   0  0  0  0  0  0  0  0  0  0  0  0
    5.4216    1.5525   -0.0000 N   0  0  0  0  0  0  0  0  0  0  0  0
    6.7437    2.3288   -0.0000 C   0  0  0  0  0  0  0  0  0  0  0  0
    6.7316    3.8813   -0.0000 C   0  0  0  0  0  0  0  0  0  0  0  0
    8.0658    1.5646   -0.0000 C   0  0  0  0  0  0  0  0  0  0  0  0
    5.3853    4.6697   -0.0000 C   0  0  0  0  0  0  0  0  0  0  0  0
    9.3878    2.3409   -0.0000 C   0  0  0  0  0  0  0  0  0  0  0  0
    5.3731    6.2222   -0.0000 C   0  0  0  0  0  0  0  0  0  0  0  0
    4.0389    3.9177   -0.0000 C   0  0  0  0  0  0  0  0  0  0  0  0
   10.7099    1.5768   -0.0000 C   0  0  0  0  0  0  0  0  0  0  0  0
    4.0268    6.9984   -0.0000 C   0  0  0  0  0  0  0  0  0  0  0  0
    2.6926    4.6939   -0.0000 C   0  0  0  0  0  0  0  0  0  0  0  0
   12.0319    2.3530   -0.0000 N   0  0  0  0  0  0  0  0  0  0  0  0
   10.6856    0.0485   -0.0000 C   0  0  0  0  0  0  0  0  0  0  0  0
    2.6805    6.2464   -0.0000 C   0  0  0  0  0  0  0  0  0  0  0  0
   13.3540    1.5889   -0.0000 C   0  0  0  0  0  0  0  0  0  0  0  0
    9.3393   -0.7035   -0.0000 C   0  0  0  0  0  0  0  0  0  0  0  0
   13.3419    0.3639   -0.0000 O   0  0  0  0  0  0  0  0  0  0  0  0
   14.6761    2.3651   -0.0000 C   0  0  0  0  0  0  0  0  0  0  0  0
    9.3150   -2.2317   -0.0000 C   0  0  0  0  0  0  0  0  0  0  0  0
    8.0051    0.0849   -0.0000 C   0  0  0  0  0  0  0  0  0  0  0  0
   14.8095    3.8934   -0.0000 N   0  0  0  0  0  0  0  0  0  0  0  0
   16.0466    1.7344   -0.0000 C   0  0  0  0  0  0  0  0  0  0  0  0
    7.9687   -2.9837   -0.0000 C   0  0  0  0  0  0  0  0  0  0  0  0
    6.6588   -0.6671   -0.0000 C   0  0  0  0  0  0  0  0  0  0  0  0
   13.6451    4.9244   -0.0000 C   0  0  0  0  0  0  0  0  0  0  0  0
   16.3013    4.2209   -0.0000 C   0  0  0  0  0  0  0  0  0  0  0  0
   17.0655    2.8867   -0.0000 C   0  0  0  0  0  0  0  0  0  0  0  0
    6.6345   -2.1953   -0.0000 C   0  0  0  0  0  0  0  0  0  0  0  0
   12.4686    4.5484   -0.0000 O   0  0  0  0  0  0  0  0  0  0  0  0
   13.9483    6.4405   -0.0000 N   0  0  0  0  0  0  0  0  0  0  0  0
   18.2784    2.7654   -0.0000 O   0  0  0  0  0  0  0  0  0  0  0  0
   12.7839    7.4836   -0.0000 C   0  0  0  0  0  0  0  0  0  0  0  0
   15.1006    6.8407   -0.0000 C   0  0  0  0  0  0  0  0  0  0  0  0
   13.0872    8.9997   -0.0000 C   0  0  0  0  0  0  0  0  0  0  0  0
   12.0319   10.1277   -0.0000 N   0  0  0  0  0  0  0  0  0  0  0  0
   14.4699    9.6183   -0.0000 C   0  0  0  0  0  0  0  0  0  0  0  0
   12.7839   11.4740   -0.0000 C   0  0  0  0  0  0  0  0  0  0  0  0
   14.2879   11.1587   -0.0000 S   0  0  0  0  0  0  0  0  0  0  0  0
   12.1411   12.8931   -0.0000 C   0  0  0  0  0  0  0  0  0  0  0  0
   12.8567   13.8998   -0.0000 C   0  0  0  0  0  0  0  0  0  0  0  0
   10.9039   13.0386   -0.0000 C   0  0  0  0  0  0  0  0  0  0  0  0
  1  2  1  0  0  0  0
  1  3  1  0  0  0  0
  2  4  2  0  0  0  0
  2  5  1  0  0  0  0
  3  6  2  0  0  0  0
  5  7  1  0  0  0  0
  7  8  1  0  0  0  0
  8  9  2  0  0  0  0
  8 10  1  0  0  0  0
 11 10  1  6  0  0  0
 11 12  1  0  0  0  0
 11 13  1  0  0  0  0
 12 14  1  0  0  0  0
 13 15  1  0  0  0  0
 14 16  2  0  0  0  0
 14 17  1  0  0  0  0
 15 18  1  0  0  0  0
 16 19  1  0  0  0  0
 17 20  2  0  0  0  0
 18 21  1  6  0  0  0
 18 22  1  0  0  0  0
 19 23  2  0  0  0  0
 21 24  1  0  0  0  0
 22 25  1  0  0  0  0
 24 26  2  0  0  0  0
 27 24  1  1  0  0  0
 25 28  2  0  0  0  0
 25 29  1  0  0  0  0
 27 30  1  0  0  0  0
 27 31  1  0  0  0  0
 28 32  1  0  0  0  0
 29 33  2  0  0  0  0
 30 34  1  0  0  0  0
 30 35  1  0  0  0  0
 31 36  1  0  0  0  0
 32 37  2  0  0  0  0
 34 38  2  0  0  0  0
 34 39  1  0  0  0  0
 36 40  1  6  0  0  0
 39 41  1  0  0  0  0
 39 42  1  0  0  0  0
 41 43  1  0  0  0  0
 43 44  1  0  0  0  0
 43 45  2  0  0  0  0
 44 46  2  0  0  0  0
 45 47  1  0  0  0  0
 46 48  1  0  0  0  0
 48 49  1  0  0  0  0
 48 50  1  0  0  0  0
  4  6  1  0  0  0  0
 20 23  1  0  0  0  0
 33 37  1  0  0  0  0
 35 36  1  0  0  0  0
 46 47  1  0  0  0  0
M  END
>  <MolRegNo>
2005596

>  <m>
=

>  <Value>
120

>  <Unit>
nM

>  <Type>
IC50

>  <pValue>
6.92

>  <Ligand Efficiency>
0.19

>  <Binding Efficiency>
9.63

>  <Surface Efficiency>
5.05

>  <Assay Index>
973840

>  <Assay Category>


>  <Assay Organism>
Homo sapiens

>  <Target ID>
17045

>  <Target Name>
Cytochrome P450 3A4

>  <Target Organism>
Homo sapiens

>  <Target Description>
Target is a single protein chain

>  <Sequence Accession>
P08684

>  <Reference>


>  <Pubmed ID>


>  <DOI>


$$$$
2005597
Actelion Java MolfileCreator 1.0

 49 53  0  0  1  0  0  0  0  0999 V2000
    0.0000   -0.0000   -0.0000 S   0  0  0  0  0  0  0  0  0  0  0  0
    0.1329    1.5229   -0.0000 C   0  0  0  0  0  0  0  0  0  0  0  0
   -1.5108   -0.3022   -0.0000 C   0  0  0  0  0  0  0  0  0  0  0  0
   -1.2570    2.1755   -0.0000 C   0  0  0  0  0  0  0  0  0  0  0  0
    1.4503    2.2964   -0.0000 C   0  0  0  0  0  0  0  0  0  0  0  0
   -2.2843    1.0394   -0.0000 N   0  0  0  0  0  0  0  0  0  0  0  0
    2.7677    1.5350   -0.0000 O   0  0  0  0  0  0  0  0  0  0  0  0
    4.0851    2.3085   -0.0000 C   0  0  0  0  0  0  0  0  0  0  0  0
    4.0731    3.5534   -0.0000 O   0  0  0  0  0  0  0  0  0  0  0  0
    5.4025    1.5470   -0.0000 N   0  0  0  0  0  0  0  0  0  0  0  0
    6.7199    2.3206   -0.0000 C   0  0  0  0  0  0  0  0  0  0  0  0
    6.7079    3.8676   -0.0000 C   0  0  0  0  0  0  0  0  0  0  0  0
    8.0373    1.5591   -0.0000 C   0  0  0  0  0  0  0  0  0  0  0  0
    5.3663    4.6532   -0.0000 C   0  0  0  0  0  0  0  0  0  0  0  0
    9.3547    2.3326   -0.0000 C   0  0  0  0  0  0  0  0  0  0  0  0
    5.3542    6.2002   -0.0000 C   0  0  0  0  0  0  0  0  0  0  0  0
    4.0247    3.9039   -0.0000 C   0  0  0  0  0  0  0  0  0  0  0  0
   10.6722    1.5712   -0.0000 C   0  0  0  0  0  0  0  0  0  0  0  0
    4.0126    6.9738   -0.0000 C   0  0  0  0  0  0  0  0  0  0  0  0
    2.6831    4.6774   -0.0000 C   0  0  0  0  0  0  0  0  0  0  0  0
   11.9896    2.3447   -0.0000 N   0  0  0  0  0  0  0  0  0  0  0  0
   10.6480    0.0483   -0.0000 C   0  0  0  0  0  0  0  0  0  0  0  0
    2.6711    6.2244   -0.0000 C   0  0  0  0  0  0  0  0  0  0  0  0
   13.3070    1.5833   -0.0000 C   0  0  0  0  0  0  0  0  0  0  0  0
    9.3064   -0.7010   -0.0000 C   0  0  0  0  0  0  0  0  0  0  0  0
   13.2949    0.3626   -0.0000 O   0  0  0  0  0  0  0  0  0  0  0  0
   14.6244    2.3568   -0.0000 C   0  0  0  0  0  0  0  0  0  0  0  0
    9.2822   -2.2239   -0.0000 C   0  0  0  0  0  0  0  0  0  0  0  0
    7.9769    0.0846   -0.0000 C   0  0  0  0  0  0  0  0  0  0  0  0
   14.7573    3.8797   -0.0000 N   0  0  0  0  0  0  0  0  0  0  0  0
   15.9901    1.7283   -0.0000 C   0  0  0  0  0  0  0  0  0  0  0  0
    7.9407   -2.9732   -0.0000 C   0  0  0  0  0  0  0  0  0  0  0  0
    6.6353   -0.6647   -0.0000 C   0  0  0  0  0  0  0  0  0  0  0  0
   13.5970    4.9070   -0.0000 C   0  0  0  0  0  0  0  0  0  0  0  0
   16.2439    4.2060   -0.0000 C   0  0  0  0  0  0  0  0  0  0  0  0
   17.0053    2.8765   -0.0000 S   0  0  0  0  0  0  0  0  0  0  0  0
    6.6112   -2.1876   -0.0000 C   0  0  0  0  0  0  0  0  0  0  0  0
   12.4247    4.5323   -0.0000 O   0  0  0  0  0  0  0  0  0  0  0  0
   13.8992    6.4178   -0.0000 N   0  0  0  0  0  0  0  0  0  0  0  0
   12.7389    7.4572   -0.0000 C   0  0  0  0  0  0  0  0  0  0  0  0
   15.0474    6.8166   -0.0000 C   0  0  0  0  0  0  0  0  0  0  0  0
   13.0411    8.9680   -0.0000 C   0  0  0  0  0  0  0  0  0  0  0  0
   11.9896   10.0920   -0.0000 N   0  0  0  0  0  0  0  0  0  0  0  0
   14.4189    9.5844   -0.0000 C   0  0  0  0  0  0  0  0  0  0  0  0
   12.7389   11.4336   -0.0000 C   0  0  0  0  0  0  0  0  0  0  0  0
   14.2376   11.1193   -0.0000 S   0  0  0  0  0  0  0  0  0  0  0  0
   12.0983   12.8477   -0.0000 C   0  0  0  0  0  0  0  0  0  0  0  0
   12.8114   13.8508   -0.0000 C   0  0  0  0  0  0  0  0  0  0  0  0
   10.8655   12.9927   -0.0000 C   0  0  0  0  0  0  0  0  0  0  0  0
  1  2  1  0  0  0  0
  1  3  1  0  0  0  0
  2  4  2  0  0  0  0
  2  5  1  0  0  0  0
  3  6  2  0  0  0  0
  5  7  1  0  0  0  0
  7  8  1  0  0  0  0
  8  9  2  0  0  0  0
  8 10  1  0  0  0  0
 11 10  1  1  0  0  0
 11 12  1  0  0  0  0
 11 13  1  0  0  0  0
 12 14  1  0  0  0  0
 13 15  1  0  0  0  0
 14 16  2  0  0  0  0
 14 17  1  0  0  0  0
 15 18  1  0  0  0  0
 16 19  1  0  0  0  0
 17 20  2  0  0  0  0
 18 21  1  1  0  0  0
 18 22  1  0  0  0  0
 19 23  2  0  0  0  0
 21 24  1  0  0  0  0
 22 25  1  0  0  0  0
 24 26  2  0  0  0  0
 27 24  1  1  0  0  0
 25 28  2  0  0  0  0
 25 29  1  0  0  0  0
 27 30  1  0  0  0  0
 27 31  1  0  0  0  0
 28 32  1  0  0  0  0
 29 33  2  0  0  0  0
 30 34  1  0  0  0  0
 30 35  1  0  0  0  0
 31 36  1  0  0  0  0
 32 37  2  0  0  0  0
 34 38  2  0  0  0  0
 34 39  1  0  0  0  0
 39 40  1  0  0  0  0
 39 41  1  0  0  0  0
 40 42  1  0  0  0  0
 42 43  1  0  0  0  0
 42 44  2  0  0  0  0
 43 45  2  0  0  0  0
 44 46  1  0  0  0  0
 45 47  1  0  0  0  0
 47 48  1  0  0  0  0
 47 49  1  0  0  0  0
  4  6  1  0  0  0  0
 20 23  1  0  0  0  0
 33 37  1  0  0  0  0
 35 36  1  0  0  0  0
 45 46  1  0  0  0  0
M  END
>  <MolRegNo>
2005597

>  <m>
=

>  <Value>
200

>  <Unit>
nM

>  <Type>
IC50

>  <pValue>
6.7

>  <Ligand Efficiency>
0.19

>  <Binding Efficiency>
9.29

>  <Surface Efficiency>
5.74

>  <Assay Index>
973840

>  <Assay Category>


>  <Assay Organism>
Homo sapiens

>  <Target ID>
17045

>  <Target Name>
Cytochrome P450 3A4

>  <Target Organism>
Homo sapiens

>  <Target Description>
Target is a single protein chain

>  <Sequence Accession>
P08684

>  <Reference>


>  <Pubmed ID>


>  <DOI>


$$$$
2005598
Actelion Java MolfileCreator 1.0

 51 55  0  0  1  0  0  0  0  0999 V2000
    0.0000   -0.0000   -0.0000 S   0  0  0  0  0  0  0  0  0  0  0  0
    0.7038    1.0192   -0.0000 O   0  0  0  0  0  0  0  0  0  0  0  0
    0.4732   -1.1163   -0.0000 O   0  0  0  0  0  0  0  0  0  0  0  0
   -0.7766    1.3469   -0.0000 C   0  0  0  0  0  0  0  0  0  0  0  0
   -1.0435   -1.1285   -0.0000 C   0  0  0  0  0  0  0  0  0  0  0  0
   -2.2933    1.0435   -0.0000 N   0  0  0  0  0  0  0  0  0  0  0  0
   -2.4389   -0.4732   -0.0000 C   0  0  0  0  0  0  0  0  0  0  0  0
   -3.4582    2.0749   -0.0000 C   0  0  0  0  0  0  0  0  0  0  0  0
   -3.7858   -1.2255   -0.0000 C   0  0  0  0  0  0  0  0  0  0  0  0
   -4.6351    1.6987   -0.0000 O   0  0  0  0  0  0  0  0  0  0  0  0
   -3.1548    3.5916   -0.0000 N   0  0  0  0  0  0  0  0  0  0  0  0
   -3.7979   -2.4510   -0.0000 O   0  0  0  0  0  0  0  0  0  0  0  0
   -5.1326   -0.4368   -0.0000 N   0  0  0  0  0  0  0  0  0  0  0  0
   -4.3197    4.6351   -0.0000 C   0  0  0  0  0  0  0  0  0  0  0  0
   -2.0021    3.9920   -0.0000 C   0  0  0  0  0  0  0  0  0  0  0  0
   -6.4795   -1.1891   -0.0000 C   0  0  0  0  0  0  0  0  0  0  0  0
   -4.0163    6.1519   -0.0000 C   0  0  0  0  0  0  0  0  0  0  0  0
   -6.5038   -2.7180   -0.0000 C   0  0  0  0  0  0  0  0  0  0  0  0
   -7.8263   -0.4004   -0.0000 C   0  0  0  0  0  0  0  0  0  0  0  0
   -5.0720    7.2803   -0.0000 N   0  0  0  0  0  0  0  0  0  0  0  0
   -2.6331    6.7707   -0.0000 C   0  0  0  0  0  0  0  0  0  0  0  0
   -7.8506   -3.4703   -0.0000 C   0  0  0  0  0  0  0  0  0  0  0  0
   -9.1732   -1.1527   -0.0000 C   0  0  0  0  0  0  0  0  0  0  0  0
   -4.3197    8.6272   -0.0000 C   0  0  0  0  0  0  0  0  0  0  0  0
   -2.8151    8.3117   -0.0000 S   0  0  0  0  0  0  0  0  0  0  0  0
   -7.8749   -4.9992   -0.0000 C   0  0  0  0  0  0  0  0  0  0  0  0
   -9.1853   -2.6816   -0.0000 C   0  0  0  0  0  0  0  0  0  0  0  0
  -10.5201   -0.3640   -0.0000 C   0  0  0  0  0  0  0  0  0  0  0  0
   -4.9628   10.0468   -0.0000 C   0  0  0  0  0  0  0  0  0  0  0  0
   -9.2217   -5.7515   -0.0000 C   0  0  0  0  0  0  0  0  0  0  0  0
  -10.5322   -3.4339   -0.0000 C   0  0  0  0  0  0  0  0  0  0  0  0
  -11.8669   -1.1163   -0.0000 N   0  0  0  0  0  0  0  0  0  0  0  0
  -10.5322    1.1891   -0.0000 C   0  0  0  0  0  0  0  0  0  0  0  0
   -4.2469   11.0540   -0.0000 C   0  0  0  0  0  0  0  0  0  0  0  0
   -6.2004   10.1925   -0.0000 C   0  0  0  0  0  0  0  0  0  0  0  0
  -10.5565   -4.9628   -0.0000 C   0  0  0  0  0  0  0  0  0  0  0  0
  -13.2138   -0.3276   -0.0000 C   0  0  0  0  0  0  0  0  0  0  0  0
  -11.8791    1.9778   -0.0000 C   0  0  0  0  0  0  0  0  0  0  0  0
  -13.2259    0.9222   -0.0000 O   0  0  0  0  0  0  0  0  0  0  0  0
  -14.5607   -1.0799   -0.0000 O   0  0  0  0  0  0  0  0  0  0  0  0
  -11.8912    3.5310   -0.0000 C   0  0  0  0  0  0  0  0  0  0  0  0
  -13.2259    1.2255   -0.0000 C   0  0  0  0  0  0  0  0  0  0  0  0
  -15.9075   -0.2912   -0.0000 C   0  0  0  0  0  0  0  0  0  0  0  0
  -13.2381    4.3075   -0.0000 C   0  0  0  0  0  0  0  0  0  0  0  0
  -14.5728    2.0021   -0.0000 C   0  0  0  0  0  0  0  0  0  0  0  0
  -17.2544   -1.0435   -0.0000 C   0  0  0  0  0  0  0  0  0  0  0  0
  -14.5849    3.5552   -0.0000 C   0  0  0  0  0  0  0  0  0  0  0  0
  -17.4121   -2.5481   -0.0000 S   0  0  0  0  0  0  0  0  0  0  0  0
  -18.6498   -0.3883   -0.0000 C   0  0  0  0  0  0  0  0  0  0  0  0
  -18.9288   -2.8515   -0.0000 C   0  0  0  0  0  0  0  0  0  0  0  0
  -19.6933   -1.5167   -0.0000 N   0  0  0  0  0  0  0  0  0  0  0  0
  1  2  2  0  0  0  0
  1  3  2  0  0  0  0
  1  4  1  0  0  0  0
  1  5  1  0  0  0  0
  4  6  1  0  0  0  0
  5  7  1  0  0  0  0
  6  8  1  0  0  0  0
  7  9  1  1  0  0  0
  8 10  2  0  0  0  0
  8 11  1  0  0  0  0
  9 12  2  0  0  0  0
  9 13  1  0  0  0  0
 11 14  1  0  0  0  0
 11 15  1  0  0  0  0
 16 13  1  1  0  0  0
 14 17  1  0  0  0  0
 16 18  1  0  0  0  0
 16 19  1  0  0  0  0
 17 20  1  0  0  0  0
 17 21  2  0  0  0  0
 18 22  1  0  0  0  0
 19 23  1  0  0  0  0
 20 24  2  0  0  0  0
 21 25  1  0  0  0  0
 22 26  2  0  0  0  0
 22 27  1  0  0  0  0
 23 28  1  0  0  0  0
 24 29  1  0  0  0  0
 26 30  1  0  0  0  0
 27 31  2  0  0  0  0
 28 32  1  1  0  0  0
 28 33  1  0  0  0  0
 29 34  1  0  0  0  0
 29 35  1  0  0  0  0
 30 36  2  0  0  0  0
 32 37  1  0  0  0  0
 33 38  1  0  0  0  0
 37 39  2  0  0  0  0
 37 40  1  0  0  0  0
 38 41  2  0  0  0  0
 38 42  1  0  0  0  0
 40 43  1  0  0  0  0
 41 44  1  0  0  0  0
 42 45  2  0  0  0  0
 43 46  1  0  0  0  0
 44 47  2  0  0  0  0
 46 48  1  0  0  0  0
 46 49  2  0  0  0  0
 48 50  1  0  0  0  0
 49 51  1  0  0  0  0
  6  7  1  0  0  0  0
 24 25  1  0  0  0  0
 31 36  1  0  0  0  0
 45 47  1  0  0  0  0
 50 51  2  0  0  0  0
M  END
>  <MolRegNo>
2005598

>  <m>
=

>  <Value>
160

>  <Unit>
nM

>  <Type>
IC50

>  <pValue>
6.8

>  <Ligand Efficiency>
0.18

>  <Binding Efficiency>
9.03

>  <Surface Efficiency>
4.5

>  <Assay Index>
973840

>  <Assay Category>


>  <Assay Organism>
Homo sapiens

>  <Target ID>
17045

>  <Target Name>
Cytochrome P450 3A4

>  <Target Organism>
Homo sapiens

>  <Target Description>
Target is a single protein chain

>  <Sequence Accession>
P08684

>  <Reference>


>  <Pubmed ID>


>  <DOI>


$$$$
2005599
Actelion Java MolfileCreator 1.0

 52 56  0  0  1  0  0  0  0  0999 V2000
    0.0000   -0.0000   -0.0000 S   0  0  0  0  0  0  0  0  0  0  0  0
   -1.2591    0.8959   -0.0000 C   0  0  0  0  0  0  0  0  0  0  0  0
   -0.4843   -1.4528   -0.0000 C   0  0  0  0  0  0  0  0  0  0  0  0
   -2.5183    0.0242   -0.0000 C   0  0  0  0  0  0  0  0  0  0  0  0
   -1.2712    2.4456   -0.0000 C   0  0  0  0  0  0  0  0  0  0  0  0
   -2.0340   -1.4407   -0.0000 N   0  0  0  0  0  0  0  0  0  0  0  0
    0.0484    3.2326   -0.0000 O   0  0  0  0  0  0  0  0  0  0  0  0
    0.0363    4.7823   -0.0000 C   0  0  0  0  0  0  0  0  0  0  0  0
   -1.0412    5.4118   -0.0000 O   0  0  0  0  0  0  0  0  0  0  0  0
    1.3560    5.5692   -0.0000 N   0  0  0  0  0  0  0  0  0  0  0  0
    1.3439    7.1189   -0.0000 C   0  0  0  0  0  0  0  0  0  0  0  0
    0.0000    7.8938   -0.0000 C   0  0  0  0  0  0  0  0  0  0  0  0
    2.6635    7.9059   -0.0000 C   0  0  0  0  0  0  0  0  0  0  0  0
   -1.3439    7.1310   -0.0000 C   0  0  0  0  0  0  0  0  0  0  0  0
    2.6514    9.4556   -0.0000 C   0  0  0  0  0  0  0  0  0  0  0  0
   -2.6878    7.9059   -0.0000 C   0  0  0  0  0  0  0  0  0  0  0  0
   -1.3560    5.6056   -0.0000 C   0  0  0  0  0  0  0  0  0  0  0  0
    3.9711   10.2426   -0.0000 C   0  0  0  0  0  0  0  0  0  0  0  0
   -4.0316    7.1432   -0.0000 C   0  0  0  0  0  0  0  0  0  0  0  0
   -2.6999    4.8428   -0.0000 C   0  0  0  0  0  0  0  0  0  0  0  0
    3.9590   11.7923   -0.0000 N   0  0  0  0  0  0  0  0  0  0  0  0
    5.2908    9.4798   -0.0000 C   0  0  0  0  0  0  0  0  0  0  0  0
   -4.0437    5.6177   -0.0000 C   0  0  0  0  0  0  0  0  0  0  0  0
    5.2787   12.5792   -0.0000 C   0  0  0  0  0  0  0  0  0  0  0  0
    5.2787    7.9543   -0.0000 C   0  0  0  0  0  0  0  0  0  0  0  0
    6.3320   11.9739   -0.0000 O   0  0  0  0  0  0  0  0  0  0  0  0
    5.3029   14.1047   -0.0000 C   0  0  0  0  0  0  0  0  0  0  0  0
    6.5983    7.1916   -0.0000 C   0  0  0  0  0  0  0  0  0  0  0  0
    3.9348    7.2037   -0.0000 C   0  0  0  0  0  0  0  0  0  0  0  0
    6.5862   14.9038   -0.0000 N   0  0  0  0  0  0  0  0  0  0  0  0
    5.2908   15.6544   -0.0000 C   0  0  0  0  0  0  0  0  0  0  0  0
    3.9590   13.3541   -0.0000 C   0  0  0  0  0  0  0  0  0  0  0  0
    6.5862    5.6661   -0.0000 C   0  0  0  0  0  0  0  0  0  0  0  0
    3.9227    5.6782   -0.0000 C   0  0  0  0  0  0  0  0  0  0  0  0
    6.5741   16.4535   -0.0000 C   0  0  0  0  0  0  0  0  0  0  0  0
    3.9469   16.4292   -0.0000 C   0  0  0  0  0  0  0  0  0  0  0  0
    2.6151   14.1289   -0.0000 C   0  0  0  0  0  0  0  0  0  0  0  0
    5.2423    4.9155   -0.0000 C   0  0  0  0  0  0  0  0  0  0  0  0
    5.4966   17.0830   -0.0000 O   0  0  0  0  0  0  0  0  0  0  0  0
    7.8938   17.2404   -0.0000 N   0  0  0  0  0  0  0  0  0  0  0  0
    2.6030   15.6786   -0.0000 N   0  0  0  0  0  0  0  0  0  0  0  0
    7.8817   18.7901   -0.0000 C   0  0  0  0  0  0  0  0  0  0  0  0
    8.9471   16.6351   -0.0000 C   0  0  0  0  0  0  0  0  0  0  0  0
    1.5255   16.3082   -0.0000 C   0  0  0  0  0  0  0  0  0  0  0  0
    9.2013   19.5771   -0.0000 C   0  0  0  0  0  0  0  0  0  0  0  0
    9.3345   21.1026   -0.0000 N   0  0  0  0  0  0  0  0  0  0  0  0
   10.5694   18.9475   -0.0000 C   0  0  0  0  0  0  0  0  0  0  0  0
   10.8237   21.4295   -0.0000 C   0  0  0  0  0  0  0  0  0  0  0  0
   11.5864   20.0977   -0.0000 S   0  0  0  0  0  0  0  0  0  0  0  0
   11.4411   22.8460   -0.0000 C   0  0  0  0  0  0  0  0  0  0  0  0
   12.6519   22.9792   -0.0000 C   0  0  0  0  0  0  0  0  0  0  0  0
   10.7147   23.8509   -0.0000 C   0  0  0  0  0  0  0  0  0  0  0  0
  1  2  1  0  0  0  0
  1  3  1  0  0  0  0
  2  4  2  0  0  0  0
  2  5  1  0  0  0  0
  3  6  2  0  0  0  0
  5  7  1  0  0  0  0
  7  8  1  0  0  0  0
  8  9  2  0  0  0  0
  8 10  1  0  0  0  0
 11 10  1  1  0  0  0
 11 12  1  0  0  0  0
 11 13  1  0  0  0  0
 12 14  1  0  0  0  0
 13 15  1  0  0  0  0
 14 16  2  0  0  0  0
 14 17  1  0  0  0  0
 15 18  1  0  0  0  0
 16 19  1  0  0  0  0
 17 20  2  0  0  0  0
 18 21  1  1  0  0  0
 18 22  1  0  0  0  0
 19 23  2  0  0  0  0
 21 24  1  0  0  0  0
 22 25  1  0  0  0  0
 24 26  2  0  0  0  0
 24 27  1  0  0  0  0
 25 28  2  0  0  0  0
 25 29  1  0  0  0  0
 27 30  1  0  0  0  0
 27 31  1  0  0  0  0
 27 32  1  0  0  0  0
 28 33  1  0  0  0  0
 29 34  2  0  0  0  0
 30 35  1  0  0  0  0
 31 36  1  0  0  0  0
 32 37  1  0  0  0  0
 33 38  2  0  0  0  0
 35 39  2  0  0  0  0
 35 40  1  0  0  0  0
 36 41  1  0  0  0  0
 40 42  1  0  0  0  0
 40 43  1  0  0  0  0
 41 44  1  0  0  0  0
 42 45  1  0  0  0  0
 45 46  1  0  0  0  0
 45 47  2  0  0  0  0
 46 48  2  0  0  0  0
 47 49  1  0  0  0  0
 48 50  1  0  0  0  0
 50 51  1  0  0  0  0
 50 52  1  0  0  0  0
  4  6  1  0  0  0  0
 20 23  1  0  0  0  0
 34 38  1  0  0  0  0
 37 41  1  0  0  0  0
 48 49  1  0  0  0  0
M  END
>  <MolRegNo>
2005599

>  <m>
=

>  <Value>
190

>  <Unit>
nM

>  <Type>
IC50

>  <pValue>
6.72

>  <Ligand Efficiency>
0.18

>  <Binding Efficiency>
9.01

>  <Surface Efficiency>
5.22

>  <Assay Index>
973840

>  <Assay Category>


>  <Assay Organism>
Homo sapiens

>  <Target ID>
17045

>  <Target Name>
Cytochrome P450 3A4

>  <Target Organism>
Homo sapiens

>  <Target Description>
Target is a single protein chain

>  <Sequence Accession>
P08684

>  <Reference>


>  <Pubmed ID>


>  <DOI>


$$$$
2005608
Actelion Java MolfileCreator 1.0

 51 55  0  0  1  0  0  0  0  0999 V2000
    0.0000   -0.0000   -0.0000 S   0  0  0  0  0  0  0  0  0  0  0  0
   -1.2553    0.8932   -0.0000 C   0  0  0  0  0  0  0  0  0  0  0  0
   -0.4828   -1.4484   -0.0000 C   0  0  0  0  0  0  0  0  0  0  0  0
   -2.5106    0.0241   -0.0000 C   0  0  0  0  0  0  0  0  0  0  0  0
   -1.2674    2.4382   -0.0000 C   0  0  0  0  0  0  0  0  0  0  0  0
   -2.0278   -1.4363   -0.0000 N   0  0  0  0  0  0  0  0  0  0  0  0
    0.0483    3.2227   -0.0000 O   0  0  0  0  0  0  0  0  0  0  0  0
    0.0362    4.7677   -0.0000 C   0  0  0  0  0  0  0  0  0  0  0  0
   -1.0380    5.3954   -0.0000 O   0  0  0  0  0  0  0  0  0  0  0  0
    1.3519    5.5523   -0.0000 N   0  0  0  0  0  0  0  0  0  0  0  0
    1.3398    7.0973   -0.0000 C   0  0  0  0  0  0  0  0  0  0  0  0
    0.0000    7.8697   -0.0000 C   0  0  0  0  0  0  0  0  0  0  0  0
    2.6554    7.8818   -0.0000 C   0  0  0  0  0  0  0  0  0  0  0  0
   -1.3398    7.1093   -0.0000 C   0  0  0  0  0  0  0  0  0  0  0  0
    2.6434    9.4268   -0.0000 C   0  0  0  0  0  0  0  0  0  0  0  0
   -2.6796    7.8818   -0.0000 C   0  0  0  0  0  0  0  0  0  0  0  0
   -1.3519    5.5885   -0.0000 C   0  0  0  0  0  0  0  0  0  0  0  0
    3.9590   10.2114   -0.0000 C   0  0  0  0  0  0  0  0  0  0  0  0
   -4.0194    7.1214   -0.0000 C   0  0  0  0  0  0  0  0  0  0  0  0
   -2.6916    4.8281   -0.0000 C   0  0  0  0  0  0  0  0  0  0  0  0
    3.9469   11.7563   -0.0000 N   0  0  0  0  0  0  0  0  0  0  0  0
    5.2747    9.4509   -0.0000 C   0  0  0  0  0  0  0  0  0  0  0  0
   -4.0314    5.6006   -0.0000 C   0  0  0  0  0  0  0  0  0  0  0  0
    5.2626   12.5409   -0.0000 C   0  0  0  0  0  0  0  0  0  0  0  0
    5.2626    7.9301   -0.0000 C   0  0  0  0  0  0  0  0  0  0  0  0
    6.3127   11.9374   -0.0000 O   0  0  0  0  0  0  0  0  0  0  0  0
    5.2867   14.0617   -0.0000 C   0  0  0  0  0  0  0  0  0  0  0  0
    6.5782    7.1697   -0.0000 C   0  0  0  0  0  0  0  0  0  0  0  0
    3.9228    7.1817   -0.0000 C   0  0  0  0  0  0  0  0  0  0  0  0
    6.5662   14.8584   -0.0000 N   0  0  0  0  0  0  0  0  0  0  0  0
    5.2747   15.6067   -0.0000 C   0  0  0  0  0  0  0  0  0  0  0  0
    3.9469   13.3134   -0.0000 C   0  0  0  0  0  0  0  0  0  0  0  0
    6.5662    5.6488   -0.0000 C   0  0  0  0  0  0  0  0  0  0  0  0
    3.9107    5.6609   -0.0000 C   0  0  0  0  0  0  0  0  0  0  0  0
    6.5541   16.4033   -0.0000 C   0  0  0  0  0  0  0  0  0  0  0  0
    3.9349   16.3792   -0.0000 C   0  0  0  0  0  0  0  0  0  0  0  0
    2.6072   14.0859   -0.0000 C   0  0  0  0  0  0  0  0  0  0  0  0
    5.2264    4.9005   -0.0000 C   0  0  0  0  0  0  0  0  0  0  0  0
    5.4799   17.0310   -0.0000 O   0  0  0  0  0  0  0  0  0  0  0  0
    7.8697   17.1879   -0.0000 N   0  0  0  0  0  0  0  0  0  0  0  0
    2.5951   15.6309   -0.0000 N   0  0  0  0  0  0  0  0  0  0  0  0
    7.8577   18.7329   -0.0000 C   0  0  0  0  0  0  0  0  0  0  0  0
    8.9198   16.5844   -0.0000 C   0  0  0  0  0  0  0  0  0  0  0  0
    9.1733   19.5175   -0.0000 C   0  0  0  0  0  0  0  0  0  0  0  0
    9.3061   21.0383   -0.0000 N   0  0  0  0  0  0  0  0  0  0  0  0
   10.5373   18.8898   -0.0000 C   0  0  0  0  0  0  0  0  0  0  0  0
   10.7907   21.3642   -0.0000 C   0  0  0  0  0  0  0  0  0  0  0  0
   11.5511   20.0365   -0.0000 S   0  0  0  0  0  0  0  0  0  0  0  0
   11.4063   22.7764   -0.0000 C   0  0  0  0  0  0  0  0  0  0  0  0
   12.6133   22.9092   -0.0000 C   0  0  0  0  0  0  0  0  0  0  0  0
   10.6821   23.7782   -0.0000 C   0  0  0  0  0  0  0  0  0  0  0  0
  1  2  1  0  0  0  0
  1  3  1  0  0  0  0
  2  4  2  0  0  0  0
  2  5  1  0  0  0  0
  3  6  2  0  0  0  0
  5  7  1  0  0  0  0
  7  8  1  0  0  0  0
  8  9  2  0  0  0  0
  8 10  1  0  0  0  0
 11 10  1  1  0  0  0
 11 12  1  0  0  0  0
 11 13  1  0  0  0  0
 12 14  1  0  0  0  0
 13 15  1  0  0  0  0
 14 16  2  0  0  0  0
 14 17  1  0  0  0  0
 15 18  1  0  0  0  0
 16 19  1  0  0  0  0
 17 20  2  0  0  0  0
 18 21  1  1  0  0  0
 18 22  1  0  0  0  0
 19 23  2  0  0  0  0
 21 24  1  0  0  0  0
 22 25  1  0  0  0  0
 24 26  2  0  0  0  0
 24 27  1  0  0  0  0
 25 28  2  0  0  0  0
 25 29  1  0  0  0  0
 27 30  1  0  0  0  0
 27 31  1  0  0  0  0
 27 32  1  0  0  0  0
 28 33  1  0  0  0  0
 29 34  2  0  0  0  0
 30 35  1  0  0  0  0
 31 36  1  0  0  0  0
 32 37  1  0  0  0  0
 33 38  2  0  0  0  0
 35 39  2  0  0  0  0
 35 40  1  0  0  0  0
 36 41  1  0  0  0  0
 40 42  1  0  0  0  0
 40 43  1  0  0  0  0
 42 44  1  0  0  0  0
 44 45  1  0  0  0  0
 44 46  2  0  0  0  0
 45 47  2  0  0  0  0
 46 48  1  0  0  0  0
 47 49  1  0  0  0  0
 49 50  1  0  0  0  0
 49 51  1  0  0  0  0
  4  6  1  0  0  0  0
 20 23  1  0  0  0  0
 34 38  1  0  0  0  0
 37 41  1  0  0  0  0
 47 48  1  0  0  0  0
M  END
>  <MolRegNo>
2005608

>  <m>
=

>  <Value>
150

>  <Unit>
nM

>  <Type>
IC50

>  <pValue>
6.82

>  <Ligand Efficiency>
0.18

>  <Binding Efficiency>
9.32

>  <Surface Efficiency>
4.96

>  <Assay Index>
973840

>  <Assay Category>


>  <Assay Organism>
Homo sapiens

>  <Target ID>
17045

>  <Target Name>
Cytochrome P450 3A4

>  <Target Organism>
Homo sapiens

>  <Target Description>
Target is a single protein chain

>  <Sequence Accession>
P08684

>  <Reference>


>  <Pubmed ID>


>  <DOI>


$$$$
2005600
Actelion Java MolfileCreator 1.0

 51 55  0  0  1  0  0  0  0  0999 V2000
    0.0000   -0.0000   -0.0000 S   0  0  0  0  0  0  0  0  0  0  0  0
    1.2378    0.8980   -0.0000 C   0  0  0  0  0  0  0  0  0  0  0  0
    0.4611   -1.4562   -0.0000 C   0  0  0  0  0  0  0  0  0  0  0  0
    2.4755    0.0243   -0.0000 C   0  0  0  0  0  0  0  0  0  0  0  0
    1.2256    2.4512   -0.0000 C   0  0  0  0  0  0  0  0  0  0  0  0
    1.9901   -1.4440   -0.0000 N   0  0  0  0  0  0  0  0  0  0  0  0
   -0.1213    3.2279   -0.0000 O   0  0  0  0  0  0  0  0  0  0  0  0
   -0.1335    4.7811   -0.0000 C   0  0  0  0  0  0  0  0  0  0  0  0
    0.9222    5.4121   -0.0000 O   0  0  0  0  0  0  0  0  0  0  0  0
   -1.4804    5.5577   -0.0000 N   0  0  0  0  0  0  0  0  0  0  0  0
   -1.4926    7.1110   -0.0000 C   0  0  0  0  0  0  0  0  0  0  0  0
   -0.1699    7.8876   -0.0000 C   0  0  0  0  0  0  0  0  0  0  0  0
   -2.8395    7.8876   -0.0000 C   0  0  0  0  0  0  0  0  0  0  0  0
    1.1528    7.1353   -0.0000 C   0  0  0  0  0  0  0  0  0  0  0  0
   -2.8517    9.4409   -0.0000 C   0  0  0  0  0  0  0  0  0  0  0  0
    2.4755    7.9119   -0.0000 C   0  0  0  0  0  0  0  0  0  0  0  0
    1.1407    5.6063   -0.0000 C   0  0  0  0  0  0  0  0  0  0  0  0
   -4.1986   10.2175   -0.0000 C   0  0  0  0  0  0  0  0  0  0  0  0
    3.7982    7.1474   -0.0000 C   0  0  0  0  0  0  0  0  0  0  0  0
    2.4634    4.8418   -0.0000 C   0  0  0  0  0  0  0  0  0  0  0  0
   -4.2108   11.7708   -0.0000 N   0  0  0  0  0  0  0  0  0  0  0  0
   -5.5456    9.4530   -0.0000 C   0  0  0  0  0  0  0  0  0  0  0  0
    3.7861    5.6184   -0.0000 C   0  0  0  0  0  0  0  0  0  0  0  0
   -5.5577   12.5474   -0.0000 C   0  0  0  0  0  0  0  0  0  0  0  0
   -5.5577    7.9240   -0.0000 C   0  0  0  0  0  0  0  0  0  0  0  0
   -6.6377   11.9407   -0.0000 O   0  0  0  0  0  0  0  0  0  0  0  0
   -5.5699   14.1007   -0.0000 C   0  0  0  0  0  0  0  0  0  0  0  0
   -6.9047    7.1595   -0.0000 C   0  0  0  0  0  0  0  0  0  0  0  0
   -4.2351    7.1717   -0.0000 C   0  0  0  0  0  0  0  0  0  0  0  0
   -4.2472   14.8773   -0.0000 N   0  0  0  0  0  0  0  0  0  0  0  0
   -6.9168   14.8773   -0.0000 C   0  0  0  0  0  0  0  0  0  0  0  0
   -6.9047    5.6306   -0.0000 C   0  0  0  0  0  0  0  0  0  0  0  0
   -4.2351    5.6427   -0.0000 C   0  0  0  0  0  0  0  0  0  0  0  0
   -2.9245   14.1249   -0.0000 C   0  0  0  0  0  0  0  0  0  0  0  0
   -4.2593   16.4305   -0.0000 C   0  0  0  0  0  0  0  0  0  0  0  0
   -6.9290   16.4305   -0.0000 N   0  0  0  0  0  0  0  0  0  0  0  0
   -5.5820    4.8782   -0.0000 C   0  0  0  0  0  0  0  0  0  0  0  0
   -2.9366   12.8993   -0.0000 O   0  0  0  0  0  0  0  0  0  0  0  0
   -1.6018   14.9137   -0.0000 N   0  0  0  0  0  0  0  0  0  0  0  0
   -5.6063   17.2072   -0.0000 C   0  0  0  0  0  0  0  0  0  0  0  0
   -8.0090   17.0616   -0.0000 C   0  0  0  0  0  0  0  0  0  0  0  0
   -0.2791   14.1613   -0.0000 C   0  0  0  0  0  0  0  0  0  0  0  0
   -1.6139   16.1636   -0.0000 C   0  0  0  0  0  0  0  0  0  0  0  0
    1.0436   14.9501   -0.0000 C   0  0  0  0  0  0  0  0  0  0  0  0
    2.4270   14.3312   -0.0000 N   0  0  0  0  0  0  0  0  0  0  0  0
    1.1649   16.4791   -0.0000 C   0  0  0  0  0  0  0  0  0  0  0  0
    3.4463   15.4962   -0.0000 C   0  0  0  0  0  0  0  0  0  0  0  0
    2.6575   16.8189   -0.0000 S   0  0  0  0  0  0  0  0  0  0  0  0
    4.9631   15.3505   -0.0000 C   0  0  0  0  0  0  0  0  0  0  0  0
    5.6670   16.3577   -0.0000 C   0  0  0  0  0  0  0  0  0  0  0  0
    5.4607   14.2341   -0.0000 C   0  0  0  0  0  0  0  0  0  0  0  0
  1  2  1  0  0  0  0
  1  3  1  0  0  0  0
  2  4  2  0  0  0  0
  2  5  1  0  0  0  0
  3  6  2  0  0  0  0
  5  7  1  0  0  0  0
  7  8  1  0  0  0  0
  8  9  2  0  0  0  0
  8 10  1  0  0  0  0
 11 10  1  6  0  0  0
 11 12  1  0  0  0  0
 11 13  1  0  0  0  0
 12 14  1  0  0  0  0
 13 15  1  0  0  0  0
 14 16  2  0  0  0  0
 14 17  1  0  0  0  0
 15 18  1  0  0  0  0
 16 19  1  0  0  0  0
 17 20  2  0  0  0  0
 18 21  1  6  0  0  0
 18 22  1  0  0  0  0
 19 23  2  0  0  0  0
 21 24  1  0  0  0  0
 22 25  1  0  0  0  0
 24 26  2  0  0  0  0
 27 24  1  6  0  0  0
 25 28  2  0  0  0  0
 25 29  1  0  0  0  0
 27 30  1  0  0  0  0
 27 31  1  0  0  0  0
 28 32  1  0  0  0  0
 29 33  2  0  0  0  0
 30 34  1  0  0  0  0
 30 35  1  0  0  0  0
 31 36  1  0  0  0  0
 32 37  2  0  0  0  0
 34 38  2  0  0  0  0
 34 39  1  0  0  0  0
 35 40  1  0  0  0  0
 36 41  1  0  0  0  0
 39 42  1  0  0  0  0
 39 43  1  0  0  0  0
 42 44  1  0  0  0  0
 44 45  1  0  0  0  0
 44 46  2  0  0  0  0
 45 47  2  0  0  0  0
 46 48  1  0  0  0  0
 47 49  1  0  0  0  0
 49 50  1  0  0  0  0
 49 51  1  0  0  0  0
  4  6  1  0  0  0  0
 20 23  1  0  0  0  0
 33 37  1  0  0  0  0
 36 40  1  0  0  0  0
 47 48  1  0  0  0  0
M  END
>  <MolRegNo>
2005600

>  <m>
=

>  <Value>
140

>  <Unit>
nM

>  <Type>
IC50

>  <pValue>
6.85

>  <Ligand Efficiency>
0.18

>  <Binding Efficiency>
9.36

>  <Surface Efficiency>
5.71

>  <Assay Index>
973840

>  <Assay Category>


>  <Assay Organism>
Homo sapiens

>  <Target ID>
17045

>  <Target Name>
Cytochrome P450 3A4

>  <Target Organism>
Homo sapiens

>  <Target Description>
Target is a single protein chain

>  <Sequence Accession>
P08684

>  <Reference>


>  <Pubmed ID>


>  <DOI>


$$$$
2005601
Actelion Java MolfileCreator 1.0

 50 54  0  0  1  0  0  0  0  0999 V2000
    0.0000   -0.0000   -0.0000 S   0  0  0  0  0  0  0  0  0  0  0  0
    0.1334    1.5283   -0.0000 C   0  0  0  0  0  0  0  0  0  0  0  0
   -1.5161   -0.3032   -0.0000 C   0  0  0  0  0  0  0  0  0  0  0  0
   -1.2614    2.1832   -0.0000 C   0  0  0  0  0  0  0  0  0  0  0  0
    1.4555    2.3045   -0.0000 C   0  0  0  0  0  0  0  0  0  0  0  0
   -2.2924    1.0431   -0.0000 N   0  0  0  0  0  0  0  0  0  0  0  0
    2.7775    1.5404   -0.0000 O   0  0  0  0  0  0  0  0  0  0  0  0
    4.0996    2.3166   -0.0000 C   0  0  0  0  0  0  0  0  0  0  0  0
    4.0875    3.5659   -0.0000 O   0  0  0  0  0  0  0  0  0  0  0  0
    5.4216    1.5525   -0.0000 N   0  0  0  0  0  0  0  0  0  0  0  0
    6.7437    2.3288   -0.0000 C   0  0  0  0  0  0  0  0  0  0  0  0
    6.7316    3.8813   -0.0000 C   0  0  0  0  0  0  0  0  0  0  0  0
    8.0658    1.5646   -0.0000 C   0  0  0  0  0  0  0  0  0  0  0  0
    5.3853    4.6697   -0.0000 C   0  0  0  0  0  0  0  0  0  0  0  0
    9.3878    2.3409   -0.0000 C   0  0  0  0  0  0  0  0  0  0  0  0
    5.3731    6.2222   -0.0000 C   0  0  0  0  0  0  0  0  0  0  0  0
    4.0389    3.9177   -0.0000 C   0  0  0  0  0  0  0  0  0  0  0  0
   10.7099    1.5768   -0.0000 C   0  0  0  0  0  0  0  0  0  0  0  0
    4.0268    6.9984   -0.0000 C   0  0  0  0  0  0  0  0  0  0  0  0
    2.6926    4.6939   -0.0000 C   0  0  0  0  0  0  0  0  0  0  0  0
   12.0319    2.3530   -0.0000 N   0  0  0  0  0  0  0  0  0  0  0  0
   10.6856    0.0485   -0.0000 C   0  0  0  0  0  0  0  0  0  0  0  0
    2.6805    6.2464   -0.0000 C   0  0  0  0  0  0  0  0  0  0  0  0
   13.3540    1.5889   -0.0000 C   0  0  0  0  0  0  0  0  0  0  0  0
    9.3393   -0.7035   -0.0000 C   0  0  0  0  0  0  0  0  0  0  0  0
   13.3419    0.3639   -0.0000 O   0  0  0  0  0  0  0  0  0  0  0  0
   14.6761    2.3651   -0.0000 C   0  0  0  0  0  0  0  0  0  0  0  0
    9.3150   -2.2317   -0.0000 C   0  0  0  0  0  0  0  0  0  0  0  0
    8.0051    0.0849   -0.0000 C   0  0  0  0  0  0  0  0  0  0  0  0
   14.8095    3.8934   -0.0000 N   0  0  0  0  0  0  0  0  0  0  0  0
   16.0466    1.7344   -0.0000 C   0  0  0  0  0  0  0  0  0  0  0  0
    7.9687   -2.9837   -0.0000 C   0  0  0  0  0  0  0  0  0  0  0  0
    6.6588   -0.6671   -0.0000 C   0  0  0  0  0  0  0  0  0  0  0  0
   13.6451    4.9244   -0.0000 C   0  0  0  0  0  0  0  0  0  0  0  0
   16.3013    4.2209   -0.0000 C   0  0  0  0  0  0  0  0  0  0  0  0
   17.0655    2.8867   -0.0000 C   0  0  0  0  0  0  0  0  0  0  0  0
    6.6345   -2.1953   -0.0000 C   0  0  0  0  0  0  0  0  0  0  0  0
   12.4686    4.5484   -0.0000 O   0  0  0  0  0  0  0  0  0  0  0  0
   13.9483    6.4405   -0.0000 N   0  0  0  0  0  0  0  0  0  0  0  0
   18.2784    2.7654   -0.0000 N   0  0  0  0  0  0  0  0  0  0  0  0
   12.7839    7.4836   -0.0000 C   0  0  0  0  0  0  0  0  0  0  0  0
   15.1006    6.8407   -0.0000 C   0  0  0  0  0  0  0  0  0  0  0  0
   13.0872    8.9997   -0.0000 C   0  0  0  0  0  0  0  0  0  0  0  0
   12.0319   10.1277   -0.0000 N   0  0  0  0  0  0  0  0  0  0  0  0
   14.4699    9.6183   -0.0000 C   0  0  0  0  0  0  0  0  0  0  0  0
   12.7839   11.4740   -0.0000 C   0  0  0  0  0  0  0  0  0  0  0  0
   14.2879   11.1587   -0.0000 S   0  0  0  0  0  0  0  0  0  0  0  0
   12.1411   12.8931   -0.0000 C   0  0  0  0  0  0  0  0  0  0  0  0
   12.8567   13.8998   -0.0000 C   0  0  0  0  0  0  0  0  0  0  0  0
   10.9039   13.0386   -0.0000 C   0  0  0  0  0  0  0  0  0  0  0  0
  1  2  1  0  0  0  0
  1  3  1  0  0  0  0
  2  4  2  0  0  0  0
  2  5  1  0  0  0  0
  3  6  2  0  0  0  0
  5  7  1  0  0  0  0
  7  8  1  0  0  0  0
  8  9  2  0  0  0  0
  8 10  1  0  0  0  0
 11 10  1  1  0  0  0
 11 12  1  0  0  0  0
 11 13  1  0  0  0  0
 12 14  1  0  0  0  0
 13 15  1  0  0  0  0
 14 16  2  0  0  0  0
 14 17  1  0  0  0  0
 15 18  1  0  0  0  0
 16 19  1  0  0  0  0
 17 20  2  0  0  0  0
 18 21  1  1  0  0  0
 18 22  1  0  0  0  0
 19 23  2  0  0  0  0
 21 24  1  0  0  0  0
 22 25  1  0  0  0  0
 24 26  2  0  0  0  0
 27 24  1  1  0  0  0
 25 28  2  0  0  0  0
 25 29  1  0  0  0  0
 27 30  1  0  0  0  0
 27 31  1  0  0  0  0
 28 32  1  0  0  0  0
 29 33  2  0  0  0  0
 30 34  1  0  0  0  0
 30 35  1  0  0  0  0
 31 36  1  0  0  0  0
 32 37  2  0  0  0  0
 34 38  2  0  0  0  0
 34 39  1  0  0  0  0
 36 40  1  1  0  0  0
 39 41  1  0  0  0  0
 39 42  1  0  0  0  0
 41 43  1  0  0  0  0
 43 44  1  0  0  0  0
 43 45  2  0  0  0  0
 44 46  2  0  0  0  0
 45 47  1  0  0  0  0
 46 48  1  0  0  0  0
 48 49  1  0  0  0  0
 48 50  1  0  0  0  0
  4  6  1  0  0  0  0
 20 23  1  0  0  0  0
 33 37  1  0  0  0  0
 35 36  1  0  0  0  0
 46 47  1  0  0  0  0
M  END
>  <MolRegNo>
2005601

>  <m>
=

>  <Value>
190

>  <Unit>
nM

>  <Type>
IC50

>  <pValue>
6.72

>  <Ligand Efficiency>
0.18

>  <Binding Efficiency>
9.36

>  <Surface Efficiency>
4.71

>  <Assay Index>
973840

>  <Assay Category>


>  <Assay Organism>
Homo sapiens

>  <Target ID>
17045

>  <Target Name>
Cytochrome P450 3A4

>  <Target Organism>
Homo sapiens

>  <Target Description>
Target is a single protein chain

>  <Sequence Accession>
P08684

>  <Reference>


>  <Pubmed ID>


>  <DOI>


$$$$
2005609
Actelion Java MolfileCreator 1.0

 51 55  0  0  1  0  0  0  0  0999 V2000
    0.0000   -0.0000   -0.0000 S   0  0  0  0  0  0  0  0  0  0  0  0
    0.1334    1.5283   -0.0000 C   0  0  0  0  0  0  0  0  0  0  0  0
   -1.5161   -0.3032   -0.0000 C   0  0  0  0  0  0  0  0  0  0  0  0
   -1.2614    2.1832   -0.0000 C   0  0  0  0  0  0  0  0  0  0  0  0
    1.4555    2.3045   -0.0000 C   0  0  0  0  0  0  0  0  0  0  0  0
   -2.2924    1.0431   -0.0000 N   0  0  0  0  0  0  0  0  0  0  0  0
    2.7776    1.5404   -0.0000 O   0  0  0  0  0  0  0  0  0  0  0  0
    4.0997    2.3167   -0.0000 C   0  0  0  0  0  0  0  0  0  0  0  0
    4.0875    3.5660   -0.0000 O   0  0  0  0  0  0  0  0  0  0  0  0
    5.4217    1.5525   -0.0000 N   0  0  0  0  0  0  0  0  0  0  0  0
    6.7438    2.3288   -0.0000 C   0  0  0  0  0  0  0  0  0  0  0  0
    6.7317    3.8813   -0.0000 C   0  0  0  0  0  0  0  0  0  0  0  0
    8.0659    1.5647   -0.0000 C   0  0  0  0  0  0  0  0  0  0  0  0
    5.3853    4.6697   -0.0000 C   0  0  0  0  0  0  0  0  0  0  0  0
    9.3880    2.3409   -0.0000 C   0  0  0  0  0  0  0  0  0  0  0  0
    5.3732    6.2223   -0.0000 C   0  0  0  0  0  0  0  0  0  0  0  0
    4.0390    3.9177   -0.0000 C   0  0  0  0  0  0  0  0  0  0  0  0
   10.7100    1.5768   -0.0000 C   0  0  0  0  0  0  0  0  0  0  0  0
    4.0269    6.9985   -0.0000 C   0  0  0  0  0  0  0  0  0  0  0  0
    2.6927    4.6940   -0.0000 C   0  0  0  0  0  0  0  0  0  0  0  0
   12.0321    2.3531   -0.0000 N   0  0  0  0  0  0  0  0  0  0  0  0
   10.6858    0.0485   -0.0000 C   0  0  0  0  0  0  0  0  0  0  0  0
    2.6805    6.2465   -0.0000 C   0  0  0  0  0  0  0  0  0  0  0  0
   13.3542    1.5889   -0.0000 C   0  0  0  0  0  0  0  0  0  0  0  0
    9.3394   -0.7035   -0.0000 C   0  0  0  0  0  0  0  0  0  0  0  0
   13.3421    0.3639   -0.0000 O   0  0  0  0  0  0  0  0  0  0  0  0
   14.6763    2.3652   -0.0000 C   0  0  0  0  0  0  0  0  0  0  0  0
    9.3152   -2.2318   -0.0000 C   0  0  0  0  0  0  0  0  0  0  0  0
    8.0052    0.0849   -0.0000 C   0  0  0  0  0  0  0  0  0  0  0  0
   14.8097    3.8935   -0.0000 N   0  0  0  0  0  0  0  0  0  0  0  0
   16.0469    1.7345   -0.0000 C   0  0  0  0  0  0  0  0  0  0  0  0
    7.9689   -2.9838   -0.0000 C   0  0  0  0  0  0  0  0  0  0  0  0
    6.6589   -0.6671   -0.0000 C   0  0  0  0  0  0  0  0  0  0  0  0
   13.6453    4.9244   -0.0000 C   0  0  0  0  0  0  0  0  0  0  0  0
   16.3016    4.2209   -0.0000 C   0  0  0  0  0  0  0  0  0  0  0  0
   17.0657    2.8867   -0.0000 C   0  0  0  0  0  0  0  0  0  0  0  0
    6.6346   -2.1954   -0.0000 C   0  0  0  0  0  0  0  0  0  0  0  0
   12.4688    4.5484   -0.0000 O   0  0  0  0  0  0  0  0  0  0  0  0
   13.9485    6.4406   -0.0000 N   0  0  0  0  0  0  0  0  0  0  0  0
   18.5819    2.7412   -0.0000 N   0  0  0  0  0  0  0  0  0  0  0  0
   12.7841    7.4837   -0.0000 C   0  0  0  0  0  0  0  0  0  0  0  0
   15.1008    6.8408   -0.0000 C   0  0  0  0  0  0  0  0  0  0  0  0
   19.2975    3.7479   -0.0000 C   0  0  0  0  0  0  0  0  0  0  0  0
   13.0874    8.9998   -0.0000 C   0  0  0  0  0  0  0  0  0  0  0  0
   14.4701    9.6184   -0.0000 N   0  0  0  0  0  0  0  0  0  0  0  0
   12.0321   10.1278   -0.0000 C   0  0  0  0  0  0  0  0  0  0  0  0
   14.2881   11.1588   -0.0000 C   0  0  0  0  0  0  0  0  0  0  0  0
   12.7841   11.4742   -0.0000 S   0  0  0  0  0  0  0  0  0  0  0  0
   15.4162   12.2019   -0.0000 C   0  0  0  0  0  0  0  0  0  0  0  0
   16.5806   11.8381   -0.0000 C   0  0  0  0  0  0  0  0  0  0  0  0
   15.1493   13.4148   -0.0000 C   0  0  0  0  0  0  0  0  0  0  0  0
  1  2  1  0  0  0  0
  1  3  1  0  0  0  0
  2  4  2  0  0  0  0
  2  5  1  0  0  0  0
  3  6  2  0  0  0  0
  5  7  1  0  0  0  0
  7  8  1  0  0  0  0
  8  9  2  0  0  0  0
  8 10  1  0  0  0  0
 11 10  1  1  0  0  0
 11 12  1  0  0  0  0
 11 13  1  0  0  0  0
 12 14  1  0  0  0  0
 13 15  1  0  0  0  0
 14 16  2  0  0  0  0
 14 17  1  0  0  0  0
 15 18  1  0  0  0  0
 16 19  1  0  0  0  0
 17 20  2  0  0  0  0
 18 21  1  1  0  0  0
 18 22  1  0  0  0  0
 19 23  2  0  0  0  0
 21 24  1  0  0  0  0
 22 25  1  0  0  0  0
 24 26  2  0  0  0  0
 27 24  1  1  0  0  0
 25 28  2  0  0  0  0
 25 29  1  0  0  0  0
 27 30  1  0  0  0  0
 27 31  1  0  0  0  0
 28 32  1  0  0  0  0
 29 33  2  0  0  0  0
 30 34  1  0  0  0  0
 30 35  1  0  0  0  0
 31 36  1  0  0  0  0
 32 37  2  0  0  0  0
 34 38  2  0  0  0  0
 34 39  1  0  0  0  0
 36 40  1  1  0  0  0
 39 41  1  0  0  0  0
 39 42  1  0  0  0  0
 40 43  1  0  0  0  0
 41 44  1  0  0  0  0
 44 45  1  0  0  0  0
 44 46  2  0  0  0  0
 45 47  2  0  0  0  0
 46 48  1  0  0  0  0
 47 49  1  0  0  0  0
 49 50  1  0  0  0  0
 49 51  1  0  0  0  0
  4  6  1  0  0  0  0
 20 23  1  0  0  0  0
 33 37  1  0  0  0  0
 35 36  1  0  0  0  0
 47 48  1  0  0  0  0
M  END
>  <MolRegNo>
2005609

>  <m>
=

>  <Value>
170

>  <Unit>
nM

>  <Type>
IC50

>  <pValue>
6.77

>  <Ligand Efficiency>
0.18

>  <Binding Efficiency>
9.25

>  <Surface Efficiency>
5.26

>  <Assay Index>
973840

>  <Assay Category>


>  <Assay Organism>
Homo sapiens

>  <Target ID>
17045

>  <Target Name>
Cytochrome P450 3A4

>  <Target Organism>
Homo sapiens

>  <Target Description>
Target is a single protein chain

>  <Sequence Accession>
P08684

>  <Reference>


>  <Pubmed ID>


>  <DOI>


$$$$
2005610
Actelion Java MolfileCreator 1.0

 52 56  0  0  1  0  0  0  0  0999 V2000
    0.0000   -0.0000   -0.0000 S   0  0  0  0  0  0  0  0  0  0  0  0
    0.1338    1.5327   -0.0000 C   0  0  0  0  0  0  0  0  0  0  0  0
   -1.5205   -0.3041   -0.0000 C   0  0  0  0  0  0  0  0  0  0  0  0
   -1.2651    2.1895   -0.0000 C   0  0  0  0  0  0  0  0  0  0  0  0
    1.4597    2.3112   -0.0000 C   0  0  0  0  0  0  0  0  0  0  0  0
   -2.2990    1.0461   -0.0000 N   0  0  0  0  0  0  0  0  0  0  0  0
    2.7856    1.5448   -0.0000 O   0  0  0  0  0  0  0  0  0  0  0  0
    4.1115    2.3233   -0.0000 C   0  0  0  0  0  0  0  0  0  0  0  0
    4.0993    3.5763   -0.0000 O   0  0  0  0  0  0  0  0  0  0  0  0
    5.4374    1.5570   -0.0000 N   0  0  0  0  0  0  0  0  0  0  0  0
    6.7633    2.3355   -0.0000 C   0  0  0  0  0  0  0  0  0  0  0  0
    6.7511    3.8925   -0.0000 C   0  0  0  0  0  0  0  0  0  0  0  0
    8.0891    1.5692   -0.0000 C   0  0  0  0  0  0  0  0  0  0  0  0
    5.4009    4.6832   -0.0000 C   0  0  0  0  0  0  0  0  0  0  0  0
    9.4150    2.3477   -0.0000 C   0  0  0  0  0  0  0  0  0  0  0  0
    5.3887    6.2402   -0.0000 C   0  0  0  0  0  0  0  0  0  0  0  0
    4.0507    3.9290   -0.0000 C   0  0  0  0  0  0  0  0  0  0  0  0
   10.7409    1.5813   -0.0000 C   0  0  0  0  0  0  0  0  0  0  0  0
    4.0385    7.0187   -0.0000 C   0  0  0  0  0  0  0  0  0  0  0  0
    2.7004    4.7075   -0.0000 C   0  0  0  0  0  0  0  0  0  0  0  0
   12.0668    2.3598   -0.0000 N   0  0  0  0  0  0  0  0  0  0  0  0
   10.7166    0.0487   -0.0000 C   0  0  0  0  0  0  0  0  0  0  0  0
    2.6883    6.2645   -0.0000 C   0  0  0  0  0  0  0  0  0  0  0  0
   13.3927    1.5935   -0.0000 C   0  0  0  0  0  0  0  0  0  0  0  0
    9.3664   -0.7055   -0.0000 C   0  0  0  0  0  0  0  0  0  0  0  0
   13.3805    0.3649   -0.0000 O   0  0  0  0  0  0  0  0  0  0  0  0
   14.7186    2.3720   -0.0000 C   0  0  0  0  0  0  0  0  0  0  0  0
    9.3420   -2.2382   -0.0000 C   0  0  0  0  0  0  0  0  0  0  0  0
    8.0283    0.0851   -0.0000 C   0  0  0  0  0  0  0  0  0  0  0  0
   14.8524    3.9047   -0.0000 N   0  0  0  0  0  0  0  0  0  0  0  0
   16.0931    1.7395   -0.0000 C   0  0  0  0  0  0  0  0  0  0  0  0
    7.9918   -2.9924   -0.0000 C   0  0  0  0  0  0  0  0  0  0  0  0
    6.6781   -0.6690   -0.0000 C   0  0  0  0  0  0  0  0  0  0  0  0
   13.6846    4.9386   -0.0000 C   0  0  0  0  0  0  0  0  0  0  0  0
   16.3486    4.2331   -0.0000 C   0  0  0  0  0  0  0  0  0  0  0  0
   17.1149    2.8951   -0.0000 C   0  0  0  0  0  0  0  0  0  0  0  0
    6.6538   -2.2017   -0.0000 C   0  0  0  0  0  0  0  0  0  0  0  0
   12.5047    4.5615   -0.0000 O   0  0  0  0  0  0  0  0  0  0  0  0
   13.9887    6.4591   -0.0000 N   0  0  0  0  0  0  0  0  0  0  0  0
   18.6354    2.7369   -0.0000 N   0  0  0  0  0  0  0  0  0  0  0  0
   12.8210    7.5053   -0.0000 C   0  0  0  0  0  0  0  0  0  0  0  0
   15.1443    6.8606   -0.0000 C   0  0  0  0  0  0  0  0  0  0  0  0
   19.1220    1.6178   -0.0000 C   0  0  0  0  0  0  0  0  0  0  0  0
   19.3531    3.7465   -0.0000 C   0  0  0  0  0  0  0  0  0  0  0  0
   13.1251    9.0258   -0.0000 C   0  0  0  0  0  0  0  0  0  0  0  0
   12.0668   10.1570   -0.0000 N   0  0  0  0  0  0  0  0  0  0  0  0
   14.5118    9.6461   -0.0000 C   0  0  0  0  0  0  0  0  0  0  0  0
   12.8210   11.5073   -0.0000 C   0  0  0  0  0  0  0  0  0  0  0  0
   14.3293   11.1910   -0.0000 S   0  0  0  0  0  0  0  0  0  0  0  0
   12.1763   12.9305   -0.0000 C   0  0  0  0  0  0  0  0  0  0  0  0
   12.8940   13.9401   -0.0000 C   0  0  0  0  0  0  0  0  0  0  0  0
   10.9355   13.0764   -0.0000 C   0  0  0  0  0  0  0  0  0  0  0  0
  1  2  1  0  0  0  0
  1  3  1  0  0  0  0
  2  4  2  0  0  0  0
  2  5  1  0  0  0  0
  3  6  2  0  0  0  0
  5  7  1  0  0  0  0
  7  8  1  0  0  0  0
  8  9  2  0  0  0  0
  8 10  1  0  0  0  0
 11 10  1  1  0  0  0
 11 12  1  0  0  0  0
 11 13  1  0  0  0  0
 12 14  1  0  0  0  0
 13 15  1  0  0  0  0
 14 16  2  0  0  0  0
 14 17  1  0  0  0  0
 15 18  1  0  0  0  0
 16 19  1  0  0  0  0
 17 20  2  0  0  0  0
 18 21  1  1  0  0  0
 18 22  1  0  0  0  0
 19 23  2  0  0  0  0
 21 24  1  0  0  0  0
 22 25  1  0  0  0  0
 24 26  2  0  0  0  0
 27 24  1  1  0  0  0
 25 28  2  0  0  0  0
 25 29  1  0  0  0  0
 27 30  1  0  0  0  0
 27 31  1  0  0  0  0
 28 32  1  0  0  0  0
 29 33  2  0  0  0  0
 30 34  1  0  0  0  0
 30 35  1  0  0  0  0
 31 36  1  0  0  0  0
 32 37  2  0  0  0  0
 34 38  2  0  0  0  0
 34 39  1  0  0  0  0
 36 40  1  1  0  0  0
 39 41  1  0  0  0  0
 39 42  1  0  0  0  0
 40 43  1  0  0  0  0
 40 44  1  0  0  0  0
 41 45  1  0  0  0  0
 45 46  1  0  0  0  0
 45 47  2  0  0  0  0
 46 48  2  0  0  0  0
 47 49  1  0  0  0  0
 48 50  1  0  0  0  0
 50 51  1  0  0  0  0
 50 52  1  0  0  0  0
  4  6  1  0  0  0  0
 20 23  1  0  0  0  0
 33 37  1  0  0  0  0
 35 36  1  0  0  0  0
 48 49  1  0  0  0  0
M  END
>  <MolRegNo>
2005610

>  <m>
=

>  <Value>
150

>  <Unit>
nM

>  <Type>
IC50

>  <pValue>
6.82

>  <Ligand Efficiency>
0.18

>  <Binding Efficiency>
9.15

>  <Surface Efficiency>
5.69

>  <Assay Index>
973840

>  <Assay Category>


>  <Assay Organism>
Homo sapiens

>  <Target ID>
17045

>  <Target Name>
Cytochrome P450 3A4

>  <Target Organism>
Homo sapiens

>  <Target Description>
Target is a single protein chain

>  <Sequence Accession>
P08684

>  <Reference>


>  <Pubmed ID>


>  <DOI>


$$$$
2005602
Actelion Java MolfileCreator 1.0

 55 60  0  0  1  0  0  0  0  0999 V2000
    0.0000   -0.0000   -0.0000 S   0  0  0  0  0  0  0  0  0  0  0  0
    0.1327    1.5198   -0.0000 C   0  0  0  0  0  0  0  0  0  0  0  0
   -1.5077   -0.3015   -0.0000 C   0  0  0  0  0  0  0  0  0  0  0  0
   -1.2544    2.1711   -0.0000 C   0  0  0  0  0  0  0  0  0  0  0  0
    1.4474    2.2917   -0.0000 C   0  0  0  0  0  0  0  0  0  0  0  0
   -2.2797    1.0373   -0.0000 N   0  0  0  0  0  0  0  0  0  0  0  0
    2.7621    1.5318   -0.0000 O   0  0  0  0  0  0  0  0  0  0  0  0
    4.0769    2.3038   -0.0000 C   0  0  0  0  0  0  0  0  0  0  0  0
    4.0648    3.5461   -0.0000 O   0  0  0  0  0  0  0  0  0  0  0  0
    5.3916    1.5439   -0.0000 N   0  0  0  0  0  0  0  0  0  0  0  0
    6.7063    2.3158   -0.0000 C   0  0  0  0  0  0  0  0  0  0  0  0
    6.6942    3.8597   -0.0000 C   0  0  0  0  0  0  0  0  0  0  0  0
    8.0210    1.5560   -0.0000 C   0  0  0  0  0  0  0  0  0  0  0  0
    5.3554    4.6438   -0.0000 C   0  0  0  0  0  0  0  0  0  0  0  0
    9.3358    2.3279   -0.0000 C   0  0  0  0  0  0  0  0  0  0  0  0
    5.3433    6.1877   -0.0000 C   0  0  0  0  0  0  0  0  0  0  0  0
    4.0165    3.8959   -0.0000 C   0  0  0  0  0  0  0  0  0  0  0  0
   10.6505    1.5680   -0.0000 C   0  0  0  0  0  0  0  0  0  0  0  0
    4.0045    6.9596   -0.0000 C   0  0  0  0  0  0  0  0  0  0  0  0
    2.6777    4.6679   -0.0000 C   0  0  0  0  0  0  0  0  0  0  0  0
   11.9652    2.3400   -0.0000 N   0  0  0  0  0  0  0  0  0  0  0  0
   10.6264    0.0482   -0.0000 C   0  0  0  0  0  0  0  0  0  0  0  0
    2.6656    6.2118   -0.0000 C   0  0  0  0  0  0  0  0  0  0  0  0
   13.2799    1.5801   -0.0000 C   0  0  0  0  0  0  0  0  0  0  0  0
    9.2875   -0.6996   -0.0000 C   0  0  0  0  0  0  0  0  0  0  0  0
   13.2679    0.3619   -0.0000 O   0  0  0  0  0  0  0  0  0  0  0  0
   14.5947    2.3520   -0.0000 C   0  0  0  0  0  0  0  0  0  0  0  0
    9.2634   -2.2194   -0.0000 C   0  0  0  0  0  0  0  0  0  0  0  0
    7.9607    0.0844   -0.0000 C   0  0  0  0  0  0  0  0  0  0  0  0
   14.7273    3.8718   -0.0000 N   0  0  0  0  0  0  0  0  0  0  0  0
   15.9576    1.7248   -0.0000 C   0  0  0  0  0  0  0  0  0  0  0  0
    7.9245   -2.9672   -0.0000 C   0  0  0  0  0  0  0  0  0  0  0  0
    6.6219   -0.6634   -0.0000 C   0  0  0  0  0  0  0  0  0  0  0  0
   13.5694    4.8971   -0.0000 C   0  0  0  0  0  0  0  0  0  0  0  0
   16.2109    4.1975   -0.0000 C   0  0  0  0  0  0  0  0  0  0  0  0
   16.9708    2.8707   -0.0000 C   0  0  0  0  0  0  0  0  0  0  0  0
    6.5977   -2.1832   -0.0000 C   0  0  0  0  0  0  0  0  0  0  0  0
   12.3994    4.5231   -0.0000 O   0  0  0  0  0  0  0  0  0  0  0  0
   13.8710    6.4048   -0.0000 N   0  0  0  0  0  0  0  0  0  0  0  0
   18.4785    2.7259   -0.0000 N   0  0  0  0  0  0  0  0  0  0  0  0
   12.7130    7.4421   -0.0000 C   0  0  0  0  0  0  0  0  0  0  0  0
   15.0168    6.8028   -0.0000 C   0  0  0  0  0  0  0  0  0  0  0  0
   19.1902    1.3871   -0.0000 C   0  0  0  0  0  0  0  0  0  0  0  0
   19.2746    4.0407   -0.0000 C   0  0  0  0  0  0  0  0  0  0  0  0
   13.0146    8.9498   -0.0000 C   0  0  0  0  0  0  0  0  0  0  0  0
   20.7099    1.3509   -0.0000 C   0  0  0  0  0  0  0  0  0  0  0  0
   20.7944    4.0045   -0.0000 C   0  0  0  0  0  0  0  0  0  0  0  0
   11.9652   10.0715   -0.0000 N   0  0  0  0  0  0  0  0  0  0  0  0
   14.3896    9.5649   -0.0000 C   0  0  0  0  0  0  0  0  0  0  0  0
   21.5060    2.6656   -0.0000 O   0  0  0  0  0  0  0  0  0  0  0  0
   12.7130   11.4104   -0.0000 C   0  0  0  0  0  0  0  0  0  0  0  0
   14.2087   11.0968   -0.0000 S   0  0  0  0  0  0  0  0  0  0  0  0
   12.0738   12.8216   -0.0000 C   0  0  0  0  0  0  0  0  0  0  0  0
   12.7854   13.8227   -0.0000 C   0  0  0  0  0  0  0  0  0  0  0  0
   10.8435   12.9663   -0.0000 C   0  0  0  0  0  0  0  0  0  0  0  0
  1  2  1  0  0  0  0
  1  3  1  0  0  0  0
  2  4  2  0  0  0  0
  2  5  1  0  0  0  0
  3  6  2  0  0  0  0
  5  7  1  0  0  0  0
  7  8  1  0  0  0  0
  8  9  2  0  0  0  0
  8 10  1  0  0  0  0
 11 10  1  1  0  0  0
 11 12  1  0  0  0  0
 11 13  1  0  0  0  0
 12 14  1  0  0  0  0
 13 15  1  0  0  0  0
 14 16  2  0  0  0  0
 14 17  1  0  0  0  0
 15 18  1  0  0  0  0
 16 19  1  0  0  0  0
 17 20  2  0  0  0  0
 18 21  1  1  0  0  0
 18 22  1  0  0  0  0
 19 23  2  0  0  0  0
 21 24  1  0  0  0  0
 22 25  1  0  0  0  0
 24 26  2  0  0  0  0
 27 24  1  1  0  0  0
 25 28  2  0  0  0  0
 25 29  1  0  0  0  0
 27 30  1  0  0  0  0
 27 31  1  0  0  0  0
 28 32  1  0  0  0  0
 29 33  2  0  0  0  0
 30 34  1  0  0  0  0
 30 35  1  0  0  0  0
 31 36  1  0  0  0  0
 32 37  2  0  0  0  0
 34 38  2  0  0  0  0
 34 39  1  0  0  0  0
 36 40  1  1  0  0  0
 39 41  1  0  0  0  0
 39 42  1  0  0  0  0
 40 43  1  0  0  0  0
 40 44  1  0  0  0  0
 41 45  1  0  0  0  0
 43 46  1  0  0  0  0
 44 47  1  0  0  0  0
 45 48  1  0  0  0  0
 45 49  2  0  0  0  0
 46 50  1  0  0  0  0
 48 51  2  0  0  0  0
 49 52  1  0  0  0  0
 51 53  1  0  0  0  0
 53 54  1  0  0  0  0
 53 55  1  0  0  0  0
  4  6  1  0  0  0  0
 20 23  1  0  0  0  0
 33 37  1  0  0  0  0
 35 36  1  0  0  0  0
 47 50  1  0  0  0  0
 51 52  1  0  0  0  0
M  END
>  <MolRegNo>
2005602

>  <m>
=

>  <Value>
120

>  <Unit>
nM

>  <Type>
IC50

>  <pValue>
6.92

>  <Ligand Efficiency>
0.17

>  <Binding Efficiency>
8.78

>  <Surface Efficiency>
5.36

>  <Assay Index>
973840

>  <Assay Category>


>  <Assay Organism>
Homo sapiens

>  <Target ID>
17045

>  <Target Name>
Cytochrome P450 3A4

>  <Target Organism>
Homo sapiens

>  <Target Description>
Target is a single protein chain

>  <Sequence Accession>
P08684

>  <Reference>


>  <Pubmed ID>


>  <DOI>


$$$$
2005605
Actelion Java MolfileCreator 1.0

 49 53  0  0  1  0  0  0  0  0999 V2000
    0.0000   -0.0000   -0.0000 S   0  0  0  0  0  0  0  0  0  0  0  0
    0.1329    1.5229   -0.0000 C   0  0  0  0  0  0  0  0  0  0  0  0
   -1.5108   -0.3022   -0.0000 C   0  0  0  0  0  0  0  0  0  0  0  0
   -1.2570    2.1755   -0.0000 C   0  0  0  0  0  0  0  0  0  0  0  0
    1.4503    2.2964   -0.0000 C   0  0  0  0  0  0  0  0  0  0  0  0
   -2.2843    1.0394   -0.0000 N   0  0  0  0  0  0  0  0  0  0  0  0
    2.7677    1.5350   -0.0000 O   0  0  0  0  0  0  0  0  0  0  0  0
    4.0851    2.3085   -0.0000 C   0  0  0  0  0  0  0  0  0  0  0  0
    4.0731    3.5534   -0.0000 O   0  0  0  0  0  0  0  0  0  0  0  0
    5.4025    1.5470   -0.0000 N   0  0  0  0  0  0  0  0  0  0  0  0
    6.7199    2.3206   -0.0000 C   0  0  0  0  0  0  0  0  0  0  0  0
    6.7079    3.8676   -0.0000 C   0  0  0  0  0  0  0  0  0  0  0  0
    8.0373    1.5591   -0.0000 C   0  0  0  0  0  0  0  0  0  0  0  0
    5.3663    4.6532   -0.0000 C   0  0  0  0  0  0  0  0  0  0  0  0
    9.3547    2.3326   -0.0000 C   0  0  0  0  0  0  0  0  0  0  0  0
    5.3542    6.2002   -0.0000 C   0  0  0  0  0  0  0  0  0  0  0  0
    4.0247    3.9039   -0.0000 C   0  0  0  0  0  0  0  0  0  0  0  0
   10.6722    1.5712   -0.0000 C   0  0  0  0  0  0  0  0  0  0  0  0
    4.0126    6.9738   -0.0000 C   0  0  0  0  0  0  0  0  0  0  0  0
    2.6831    4.6774   -0.0000 C   0  0  0  0  0  0  0  0  0  0  0  0
   11.9896    2.3447   -0.0000 N   0  0  0  0  0  0  0  0  0  0  0  0
   10.6480    0.0483   -0.0000 C   0  0  0  0  0  0  0  0  0  0  0  0
    2.6711    6.2244   -0.0000 C   0  0  0  0  0  0  0  0  0  0  0  0
   13.3070    1.5833   -0.0000 C   0  0  0  0  0  0  0  0  0  0  0  0
    9.3064   -0.7010   -0.0000 C   0  0  0  0  0  0  0  0  0  0  0  0
   13.2949    0.3626   -0.0000 O   0  0  0  0  0  0  0  0  0  0  0  0
   14.6244    2.3568   -0.0000 C   0  0  0  0  0  0  0  0  0  0  0  0
    9.2822   -2.2239   -0.0000 C   0  0  0  0  0  0  0  0  0  0  0  0
    7.9769    0.0846   -0.0000 C   0  0  0  0  0  0  0  0  0  0  0  0
   14.7573    3.8797   -0.0000 N   0  0  0  0  0  0  0  0  0  0  0  0
   15.9901    1.7283   -0.0000 C   0  0  0  0  0  0  0  0  0  0  0  0
    7.9407   -2.9732   -0.0000 C   0  0  0  0  0  0  0  0  0  0  0  0
    6.6353   -0.6647   -0.0000 C   0  0  0  0  0  0  0  0  0  0  0  0
   13.5970    4.9070   -0.0000 C   0  0  0  0  0  0  0  0  0  0  0  0
   16.2439    4.2060   -0.0000 C   0  0  0  0  0  0  0  0  0  0  0  0
   17.0053    2.8765   -0.0000 C   0  0  0  0  0  0  0  0  0  0  0  0
    6.6112   -2.1876   -0.0000 C   0  0  0  0  0  0  0  0  0  0  0  0
   12.4247    4.5323   -0.0000 O   0  0  0  0  0  0  0  0  0  0  0  0
   13.8992    6.4178   -0.0000 N   0  0  0  0  0  0  0  0  0  0  0  0
   12.7389    7.4572   -0.0000 C   0  0  0  0  0  0  0  0  0  0  0  0
   15.0474    6.8166   -0.0000 C   0  0  0  0  0  0  0  0  0  0  0  0
   13.0411    8.9680   -0.0000 C   0  0  0  0  0  0  0  0  0  0  0  0
   11.9896   10.0920   -0.0000 N   0  0  0  0  0  0  0  0  0  0  0  0
   14.4189    9.5844   -0.0000 C   0  0  0  0  0  0  0  0  0  0  0  0
   12.7389   11.4336   -0.0000 C   0  0  0  0  0  0  0  0  0  0  0  0
   14.2376   11.1193   -0.0000 S   0  0  0  0  0  0  0  0  0  0  0  0
   12.0983   12.8477   -0.0000 C   0  0  0  0  0  0  0  0  0  0  0  0
   12.8114   13.8508   -0.0000 C   0  0  0  0  0  0  0  0  0  0  0  0
   10.8655   12.9927   -0.0000 C   0  0  0  0  0  0  0  0  0  0  0  0
  1  2  1  0  0  0  0
  1  3  1  0  0  0  0
  2  4  2  0  0  0  0
  2  5  1  0  0  0  0
  3  6  2  0  0  0  0
  5  7  1  0  0  0  0
  7  8  1  0  0  0  0
  8  9  2  0  0  0  0
  8 10  1  0  0  0  0
 11 10  1  1  0  0  0
 11 12  1  0  0  0  0
 11 13  1  0  0  0  0
 12 14  1  0  0  0  0
 13 15  1  0  0  0  0
 14 16  2  0  0  0  0
 14 17  1  0  0  0  0
 15 18  1  0  0  0  0
 16 19  1  0  0  0  0
 17 20  2  0  0  0  0
 18 21  1  1  0  0  0
 18 22  1  0  0  0  0
 19 23  2  0  0  0  0
 21 24  1  0  0  0  0
 22 25  1  0  0  0  0
 24 26  2  0  0  0  0
 27 24  1  1  0  0  0
 25 28  2  0  0  0  0
 25 29  1  0  0  0  0
 27 30  1  0  0  0  0
 27 31  1  0  0  0  0
 28 32  1  0  0  0  0
 29 33  2  0  0  0  0
 30 34  1  0  0  0  0
 30 35  1  0  0  0  0
 31 36  1  0  0  0  0
 32 37  2  0  0  0  0
 34 38  2  0  0  0  0
 34 39  1  0  0  0  0
 39 40  1  0  0  0  0
 39 41  1  0  0  0  0
 40 42  1  0  0  0  0
 42 43  1  0  0  0  0
 42 44  2  0  0  0  0
 43 45  2  0  0  0  0
 44 46  1  0  0  0  0
 45 47  1  0  0  0  0
 47 48  1  0  0  0  0
 47 49  1  0  0  0  0
  4  6  1  0  0  0  0
 20 23  1  0  0  0  0
 33 37  1  0  0  0  0
 35 36  1  0  0  0  0
 45 46  1  0  0  0  0
M  END
>  <MolRegNo>
2005605

>  <m>
=

>  <Value>
130

>  <Unit>
nM

>  <Type>
IC50

>  <pValue>
6.89

>  <Ligand Efficiency>
0.19

>  <Binding Efficiency>
9.8

>  <Surface Efficiency>
5.9

>  <Assay Index>
973840

>  <Assay Category>


>  <Assay Organism>
Homo sapiens

>  <Target ID>
17045

>  <Target Name>
Cytochrome P450 3A4

>  <Target Organism>
Homo sapiens

>  <Target Description>
Target is a single protein chain

>  <Sequence Accession>
P08684

>  <Reference>


>  <Pubmed ID>


>  <DOI>


$$$$
2005606
Actelion Java MolfileCreator 1.0

 49 53  0  0  1  0  0  0  0  0999 V2000
    0.0000   -0.0000   -0.0000 S   0  0  0  0  0  0  0  0  0  0  0  0
    0.1329    1.5229   -0.0000 C   0  0  0  0  0  0  0  0  0  0  0  0
   -1.5108   -0.3022   -0.0000 C   0  0  0  0  0  0  0  0  0  0  0  0
   -1.2570    2.1755   -0.0000 C   0  0  0  0  0  0  0  0  0  0  0  0
    1.4503    2.2964   -0.0000 C   0  0  0  0  0  0  0  0  0  0  0  0
   -2.2843    1.0394   -0.0000 N   0  0  0  0  0  0  0  0  0  0  0  0
    2.7677    1.5350   -0.0000 O   0  0  0  0  0  0  0  0  0  0  0  0
    4.0851    2.3085   -0.0000 C   0  0  0  0  0  0  0  0  0  0  0  0
    4.0731    3.5534   -0.0000 O   0  0  0  0  0  0  0  0  0  0  0  0
    5.4025    1.5470   -0.0000 N   0  0  0  0  0  0  0  0  0  0  0  0
    6.7199    2.3206   -0.0000 C   0  0  0  0  0  0  0  0  0  0  0  0
    6.7079    3.8676   -0.0000 C   0  0  0  0  0  0  0  0  0  0  0  0
    8.0373    1.5591   -0.0000 C   0  0  0  0  0  0  0  0  0  0  0  0
    5.3663    4.6532   -0.0000 C   0  0  0  0  0  0  0  0  0  0  0  0
    9.3547    2.3326   -0.0000 C   0  0  0  0  0  0  0  0  0  0  0  0
    5.3542    6.2002   -0.0000 C   0  0  0  0  0  0  0  0  0  0  0  0
    4.0247    3.9039   -0.0000 C   0  0  0  0  0  0  0  0  0  0  0  0
   10.6722    1.5712   -0.0000 C   0  0  0  0  0  0  0  0  0  0  0  0
    4.0126    6.9738   -0.0000 C   0  0  0  0  0  0  0  0  0  0  0  0
    2.6831    4.6774   -0.0000 C   0  0  0  0  0  0  0  0  0  0  0  0
   11.9896    2.3447   -0.0000 N   0  0  0  0  0  0  0  0  0  0  0  0
   10.6480    0.0483   -0.0000 C   0  0  0  0  0  0  0  0  0  0  0  0
    2.6711    6.2244   -0.0000 C   0  0  0  0  0  0  0  0  0  0  0  0
   13.3070    1.5833   -0.0000 C   0  0  0  0  0  0  0  0  0  0  0  0
    9.3064   -0.7010   -0.0000 C   0  0  0  0  0  0  0  0  0  0  0  0
   13.2949    0.3626   -0.0000 O   0  0  0  0  0  0  0  0  0  0  0  0
   14.6244    2.3568   -0.0000 C   0  0  0  0  0  0  0  0  0  0  0  0
    9.2822   -2.2239   -0.0000 C   0  0  0  0  0  0  0  0  0  0  0  0
    7.9769    0.0846   -0.0000 C   0  0  0  0  0  0  0  0  0  0  0  0
   14.7573    3.8797   -0.0000 N   0  0  0  0  0  0  0  0  0  0  0  0
   15.9901    1.7283   -0.0000 C   0  0  0  0  0  0  0  0  0  0  0  0
    7.9407   -2.9732   -0.0000 C   0  0  0  0  0  0  0  0  0  0  0  0
    6.6353   -0.6647   -0.0000 C   0  0  0  0  0  0  0  0  0  0  0  0
   13.5970    4.9070   -0.0000 C   0  0  0  0  0  0  0  0  0  0  0  0
   16.2439    4.2060   -0.0000 C   0  0  0  0  0  0  0  0  0  0  0  0
   17.0053    2.8765   -0.0000 C   0  0  0  0  0  0  0  0  0  0  0  0
    6.6112   -2.1876   -0.0000 C   0  0  0  0  0  0  0  0  0  0  0  0
   12.4247    4.5323   -0.0000 O   0  0  0  0  0  0  0  0  0  0  0  0
   13.8992    6.4178   -0.0000 N   0  0  0  0  0  0  0  0  0  0  0  0
   12.7389    7.4572   -0.0000 C   0  0  0  0  0  0  0  0  0  0  0  0
   15.0474    6.8166   -0.0000 C   0  0  0  0  0  0  0  0  0  0  0  0
   13.0411    8.9680   -0.0000 C   0  0  0  0  0  0  0  0  0  0  0  0
   11.9896   10.0920   -0.0000 N   0  0  0  0  0  0  0  0  0  0  0  0
   14.4189    9.5844   -0.0000 C   0  0  0  0  0  0  0  0  0  0  0  0
   12.7389   11.4336   -0.0000 C   0  0  0  0  0  0  0  0  0  0  0  0
   14.2376   11.1193   -0.0000 S   0  0  0  0  0  0  0  0  0  0  0  0
   12.0983   12.8477   -0.0000 C   0  0  0  0  0  0  0  0  0  0  0  0
   12.8114   13.8508   -0.0000 C   0  0  0  0  0  0  0  0  0  0  0  0
   10.8655   12.9927   -0.0000 C   0  0  0  0  0  0  0  0  0  0  0  0
  1  2  1  0  0  0  0
  1  3  1  0  0  0  0
  2  4  2  0  0  0  0
  2  5  1  0  0  0  0
  3  6  2  0  0  0  0
  5  7  1  0  0  0  0
  7  8  1  0  0  0  0
  8  9  2  0  0  0  0
  8 10  1  0  0  0  0
 11 10  1  1  0  0  0
 11 12  1  0  0  0  0
 11 13  1  0  0  0  0
 12 14  1  0  0  0  0
 13 15  1  0  0  0  0
 14 16  2  0  0  0  0
 14 17  1  0  0  0  0
 15 18  1  0  0  0  0
 16 19  1  0  0  0  0
 17 20  2  0  0  0  0
 18 21  1  1  0  0  0
 18 22  1  0  0  0  0
 19 23  2  0  0  0  0
 21 24  1  0  0  0  0
 22 25  1  0  0  0  0
 24 26  2  0  0  0  0
 27 24  1  6  0  0  0
 25 28  2  0  0  0  0
 25 29  1  0  0  0  0
 27 30  1  0  0  0  0
 27 31  1  0  0  0  0
 28 32  1  0  0  0  0
 29 33  2  0  0  0  0
 30 34  1  0  0  0  0
 30 35  1  0  0  0  0
 31 36  1  0  0  0  0
 32 37  2  0  0  0  0
 34 38  2  0  0  0  0
 34 39  1  0  0  0  0
 39 40  1  0  0  0  0
 39 41  1  0  0  0  0
 40 42  1  0  0  0  0
 42 43  1  0  0  0  0
 42 44  2  0  0  0  0
 43 45  2  0  0  0  0
 44 46  1  0  0  0  0
 45 47  1  0  0  0  0
 47 48  1  0  0  0  0
 47 49  1  0  0  0  0
  4  6  1  0  0  0  0
 20 23  1  0  0  0  0
 33 37  1  0  0  0  0
 35 36  1  0  0  0  0
 45 46  1  0  0  0  0
M  END
>  <MolRegNo>
2005606

>  <m>
=

>  <Value>
110

>  <Unit>
nM

>  <Type>
IC50

>  <pValue>
6.96

>  <Ligand Efficiency>
0.19

>  <Binding Efficiency>
9.9

>  <Surface Efficiency>
5.96

>  <Assay Index>
973840

>  <Assay Category>


>  <Assay Organism>
Homo sapiens

>  <Target ID>
17045

>  <Target Name>
Cytochrome P450 3A4

>  <Target Organism>
Homo sapiens

>  <Target Description>
Target is a single protein chain

>  <Sequence Accession>
P08684

>  <Reference>


>  <Pubmed ID>


>  <DOI>


$$$$
2005607
Actelion Java MolfileCreator 1.0

 53 58  0  0  1  0  0  0  0  0999 V2000
    0.0000   -0.0000   -0.0000 S   0  0  0  0  0  0  0  0  0  0  0  0
    1.2315    0.8934   -0.0000 C   0  0  0  0  0  0  0  0  0  0  0  0
    0.4588   -1.4488   -0.0000 C   0  0  0  0  0  0  0  0  0  0  0  0
    2.4630    0.0241   -0.0000 C   0  0  0  0  0  0  0  0  0  0  0  0
    1.2194    2.4388   -0.0000 C   0  0  0  0  0  0  0  0  0  0  0  0
    1.9800   -1.4367   -0.0000 N   0  0  0  0  0  0  0  0  0  0  0  0
   -0.1207    3.2115   -0.0000 O   0  0  0  0  0  0  0  0  0  0  0  0
   -0.1328    4.7569   -0.0000 C   0  0  0  0  0  0  0  0  0  0  0  0
    0.9176    5.3847   -0.0000 O   0  0  0  0  0  0  0  0  0  0  0  0
   -1.4729    5.5296   -0.0000 N   0  0  0  0  0  0  0  0  0  0  0  0
   -1.4850    7.0750   -0.0000 C   0  0  0  0  0  0  0  0  0  0  0  0
   -0.1690    7.8477   -0.0000 C   0  0  0  0  0  0  0  0  0  0  0  0
   -2.8252    7.8477   -0.0000 C   0  0  0  0  0  0  0  0  0  0  0  0
    1.1470    7.0991   -0.0000 C   0  0  0  0  0  0  0  0  0  0  0  0
   -2.8372    9.3930   -0.0000 C   0  0  0  0  0  0  0  0  0  0  0  0
    2.4630    7.8718   -0.0000 C   0  0  0  0  0  0  0  0  0  0  0  0
    1.1349    5.5779   -0.0000 C   0  0  0  0  0  0  0  0  0  0  0  0
   -4.1774   10.1657   -0.0000 C   0  0  0  0  0  0  0  0  0  0  0  0
    3.7789    7.1112   -0.0000 C   0  0  0  0  0  0  0  0  0  0  0  0
    2.4509    4.8173   -0.0000 C   0  0  0  0  0  0  0  0  0  0  0  0
   -4.1894   11.7111   -0.0000 N   0  0  0  0  0  0  0  0  0  0  0  0
   -5.5175    9.4051   -0.0000 C   0  0  0  0  0  0  0  0  0  0  0  0
    3.7669    5.5899   -0.0000 C   0  0  0  0  0  0  0  0  0  0  0  0
   -5.5296   12.4838   -0.0000 C   0  0  0  0  0  0  0  0  0  0  0  0
   -5.5296    7.8839   -0.0000 C   0  0  0  0  0  0  0  0  0  0  0  0
   -6.6041   11.8801   -0.0000 O   0  0  0  0  0  0  0  0  0  0  0  0
   -5.5416   14.0292   -0.0000 C   0  0  0  0  0  0  0  0  0  0  0  0
   -6.8697    7.1233   -0.0000 C   0  0  0  0  0  0  0  0  0  0  0  0
   -4.2136    7.1353   -0.0000 C   0  0  0  0  0  0  0  0  0  0  0  0
   -4.2257   14.8019   -0.0000 N   0  0  0  0  0  0  0  0  0  0  0  0
   -6.8818   14.8019   -0.0000 C   0  0  0  0  0  0  0  0  0  0  0  0
   -6.8697    5.6020   -0.0000 C   0  0  0  0  0  0  0  0  0  0  0  0
   -4.2136    5.6141   -0.0000 C   0  0  0  0  0  0  0  0  0  0  0  0
   -2.9097   14.0533   -0.0000 C   0  0  0  0  0  0  0  0  0  0  0  0
   -4.2377   16.3473   -0.0000 C   0  0  0  0  0  0  0  0  0  0  0  0
   -6.8939   16.3473   -0.0000 C   0  0  0  0  0  0  0  0  0  0  0  0
   -5.5537    4.8535   -0.0000 C   0  0  0  0  0  0  0  0  0  0  0  0
   -2.9217   12.8339   -0.0000 O   0  0  0  0  0  0  0  0  0  0  0  0
   -1.5937   14.8381   -0.0000 N   0  0  0  0  0  0  0  0  0  0  0  0
   -5.5779   17.1200   -0.0000 C   0  0  0  0  0  0  0  0  0  0  0  0
   -8.0408   17.3856   -0.0000 N   0  0  0  0  0  0  0  0  0  0  0  0
   -0.2777   14.0896   -0.0000 C   0  0  0  0  0  0  0  0  0  0  0  0
   -1.6058   16.0817   -0.0000 C   0  0  0  0  0  0  0  0  0  0  0  0
   -5.9038   18.6291   -0.0000 N   0  0  0  0  0  0  0  0  0  0  0  0
   -7.4251   18.7981   -0.0000 C   0  0  0  0  0  0  0  0  0  0  0  0
    1.0383   14.8743   -0.0000 C   0  0  0  0  0  0  0  0  0  0  0  0
    2.4147   14.2586   -0.0000 N   0  0  0  0  0  0  0  0  0  0  0  0
    1.1590   16.3956   -0.0000 C   0  0  0  0  0  0  0  0  0  0  0  0
    3.4288   15.4176   -0.0000 C   0  0  0  0  0  0  0  0  0  0  0  0
    2.6441   16.7336   -0.0000 S   0  0  0  0  0  0  0  0  0  0  0  0
    4.9380   15.2727   -0.0000 C   0  0  0  0  0  0  0  0  0  0  0  0
    5.6382   16.2748   -0.0000 C   0  0  0  0  0  0  0  0  0  0  0  0
    5.4330   14.1620   -0.0000 C   0  0  0  0  0  0  0  0  0  0  0  0
  1  2  1  0  0  0  0
  1  3  1  0  0  0  0
  2  4  2  0  0  0  0
  2  5  1  0  0  0  0
  3  6  2  0  0  0  0
  5  7  1  0  0  0  0
  7  8  1  0  0  0  0
  8  9  2  0  0  0  0
  8 10  1  0  0  0  0
 11 10  1  6  0  0  0
 11 12  1  0  0  0  0
 11 13  1  0  0  0  0
 12 14  1  0  0  0  0
 13 15  1  0  0  0  0
 14 16  2  0  0  0  0
 14 17  1  0  0  0  0
 15 18  1  0  0  0  0
 16 19  1  0  0  0  0
 17 20  2  0  0  0  0
 18 21  1  6  0  0  0
 18 22  1  0  0  0  0
 19 23  2  0  0  0  0
 21 24  1  0  0  0  0
 22 25  1  0  0  0  0
 24 26  2  0  0  0  0
 27 24  1  6  0  0  0
 25 28  2  0  0  0  0
 25 29  1  0  0  0  0
 27 30  1  0  0  0  0
 27 31  1  0  0  0  0
 28 32  1  0  0  0  0
 29 33  2  0  0  0  0
 30 34  1  0  0  0  0
 30 35  1  0  0  0  0
 31 36  1  0  0  0  0
 32 37  2  0  0  0  0
 34 38  2  0  0  0  0
 34 39  1  0  0  0  0
 35 40  1  0  0  0  0
 36 41  1  0  0  0  0
 39 42  1  0  0  0  0
 39 43  1  0  0  0  0
 40 44  1  0  0  0  0
 41 45  1  0  0  0  0
 42 46  1  0  0  0  0
 46 47  1  0  0  0  0
 46 48  2  0  0  0  0
 47 49  2  0  0  0  0
 48 50  1  0  0  0  0
 49 51  1  0  0  0  0
 51 52  1  0  0  0  0
 51 53  1  0  0  0  0
  4  6  1  0  0  0  0
 20 23  1  0  0  0  0
 33 37  1  0  0  0  0
 36 40  2  0  0  0  0
 44 45  2  0  0  0  0
 49 50  1  0  0  0  0
M  END
>  <MolRegNo>
2005607

>  <m>
=

>  <Value>
190

>  <Unit>
nM

>  <Type>
IC50

>  <pValue>
6.72

>  <Ligand Efficiency>
0.17

>  <Binding Efficiency>
8.9

>  <Surface Efficiency>
4.62

>  <Assay Index>
973840

>  <Assay Category>


>  <Assay Organism>
Homo sapiens

>  <Target ID>
17045

>  <Target Name>
Cytochrome P450 3A4

>  <Target Organism>
Homo sapiens

>  <Target Description>
Target is a single protein chain

>  <Sequence Accession>
P08684

>  <Reference>


>  <Pubmed ID>


>  <DOI>


$$$$
2005603
Actelion Java MolfileCreator 1.0

 55 60  0  0  1  0  0  0  0  0999 V2000
    0.0000   -0.0000   -0.0000 S   0  0  0  0  0  0  0  0  0  0  0  0
    0.1327    1.5198   -0.0000 C   0  0  0  0  0  0  0  0  0  0  0  0
   -1.5077   -0.3015   -0.0000 C   0  0  0  0  0  0  0  0  0  0  0  0
   -1.2544    2.1711   -0.0000 C   0  0  0  0  0  0  0  0  0  0  0  0
    1.4474    2.2917   -0.0000 C   0  0  0  0  0  0  0  0  0  0  0  0
   -2.2797    1.0373   -0.0000 N   0  0  0  0  0  0  0  0  0  0  0  0
    2.7621    1.5318   -0.0000 O   0  0  0  0  0  0  0  0  0  0  0  0
    4.0769    2.3038   -0.0000 C   0  0  0  0  0  0  0  0  0  0  0  0
    4.0648    3.5461   -0.0000 O   0  0  0  0  0  0  0  0  0  0  0  0
    5.3916    1.5439   -0.0000 N   0  0  0  0  0  0  0  0  0  0  0  0
    6.7063    2.3158   -0.0000 C   0  0  0  0  0  0  0  0  0  0  0  0
    6.6942    3.8597   -0.0000 C   0  0  0  0  0  0  0  0  0  0  0  0
    8.0210    1.5560   -0.0000 C   0  0  0  0  0  0  0  0  0  0  0  0
    5.3554    4.6438   -0.0000 C   0  0  0  0  0  0  0  0  0  0  0  0
    9.3358    2.3279   -0.0000 C   0  0  0  0  0  0  0  0  0  0  0  0
    5.3433    6.1877   -0.0000 C   0  0  0  0  0  0  0  0  0  0  0  0
    4.0165    3.8959   -0.0000 C   0  0  0  0  0  0  0  0  0  0  0  0
   10.6505    1.5680   -0.0000 C   0  0  0  0  0  0  0  0  0  0  0  0
    4.0045    6.9596   -0.0000 C   0  0  0  0  0  0  0  0  0  0  0  0
    2.6777    4.6679   -0.0000 C   0  0  0  0  0  0  0  0  0  0  0  0
   11.9652    2.3400   -0.0000 N   0  0  0  0  0  0  0  0  0  0  0  0
   10.6264    0.0482   -0.0000 C   0  0  0  0  0  0  0  0  0  0  0  0
    2.6656    6.2118   -0.0000 C   0  0  0  0  0  0  0  0  0  0  0  0
   13.2799    1.5801   -0.0000 C   0  0  0  0  0  0  0  0  0  0  0  0
    9.2875   -0.6996   -0.0000 C   0  0  0  0  0  0  0  0  0  0  0  0
   13.2679    0.3619   -0.0000 O   0  0  0  0  0  0  0  0  0  0  0  0
   14.5947    2.3520   -0.0000 C   0  0  0  0  0  0  0  0  0  0  0  0
    9.2634   -2.2194   -0.0000 C   0  0  0  0  0  0  0  0  0  0  0  0
    7.9607    0.0844   -0.0000 C   0  0  0  0  0  0  0  0  0  0  0  0
   14.7273    3.8718   -0.0000 N   0  0  0  0  0  0  0  0  0  0  0  0
   15.9576    1.7248   -0.0000 C   0  0  0  0  0  0  0  0  0  0  0  0
    7.9245   -2.9672   -0.0000 C   0  0  0  0  0  0  0  0  0  0  0  0
    6.6219   -0.6634   -0.0000 C   0  0  0  0  0  0  0  0  0  0  0  0
   13.5694    4.8971   -0.0000 C   0  0  0  0  0  0  0  0  0  0  0  0
   16.2109    4.1975   -0.0000 C   0  0  0  0  0  0  0  0  0  0  0  0
   16.9708    2.8707   -0.0000 C   0  0  0  0  0  0  0  0  0  0  0  0
    6.5977   -2.1832   -0.0000 C   0  0  0  0  0  0  0  0  0  0  0  0
   12.3994    4.5231   -0.0000 O   0  0  0  0  0  0  0  0  0  0  0  0
   13.8710    6.4048   -0.0000 N   0  0  0  0  0  0  0  0  0  0  0  0
   18.4785    2.7259   -0.0000 N   0  0  0  0  0  0  0  0  0  0  0  0
   12.7130    7.4421   -0.0000 C   0  0  0  0  0  0  0  0  0  0  0  0
   15.0168    6.8028   -0.0000 C   0  0  0  0  0  0  0  0  0  0  0  0
   19.1902    1.3871   -0.0000 C   0  0  0  0  0  0  0  0  0  0  0  0
   19.2746    4.0407   -0.0000 C   0  0  0  0  0  0  0  0  0  0  0  0
   13.0146    8.9498   -0.0000 C   0  0  0  0  0  0  0  0  0  0  0  0
   20.7099    1.3509   -0.0000 C   0  0  0  0  0  0  0  0  0  0  0  0
   20.7944    4.0045   -0.0000 C   0  0  0  0  0  0  0  0  0  0  0  0
   11.9652   10.0715   -0.0000 N   0  0  0  0  0  0  0  0  0  0  0  0
   14.3896    9.5649   -0.0000 C   0  0  0  0  0  0  0  0  0  0  0  0
   21.5060    2.6656   -0.0000 O   0  0  0  0  0  0  0  0  0  0  0  0
   12.7130   11.4104   -0.0000 C   0  0  0  0  0  0  0  0  0  0  0  0
   14.2087   11.0968   -0.0000 S   0  0  0  0  0  0  0  0  0  0  0  0
   12.0738   12.8216   -0.0000 C   0  0  0  0  0  0  0  0  0  0  0  0
   12.7854   13.8227   -0.0000 C   0  0  0  0  0  0  0  0  0  0  0  0
   10.8435   12.9663   -0.0000 C   0  0  0  0  0  0  0  0  0  0  0  0
  1  2  1  0  0  0  0
  1  3  1  0  0  0  0
  2  4  2  0  0  0  0
  2  5  1  0  0  0  0
  3  6  2  0  0  0  0
  5  7  1  0  0  0  0
  7  8  1  0  0  0  0
  8  9  2  0  0  0  0
  8 10  1  0  0  0  0
 11 10  1  6  0  0  0
 11 12  1  0  0  0  0
 11 13  1  0  0  0  0
 12 14  1  0  0  0  0
 13 15  1  0  0  0  0
 14 16  2  0  0  0  0
 14 17  1  0  0  0  0
 15 18  1  0  0  0  0
 16 19  1  0  0  0  0
 17 20  2  0  0  0  0
 18 21  1  6  0  0  0
 18 22  1  0  0  0  0
 19 23  2  0  0  0  0
 21 24  1  0  0  0  0
 22 25  1  0  0  0  0
 24 26  2  0  0  0  0
 27 24  1  1  0  0  0
 25 28  2  0  0  0  0
 25 29  1  0  0  0  0
 27 30  1  0  0  0  0
 27 31  1  0  0  0  0
 28 32  1  0  0  0  0
 29 33  2  0  0  0  0
 30 34  1  0  0  0  0
 30 35  1  0  0  0  0
 31 36  1  0  0  0  0
 32 37  2  0  0  0  0
 34 38  2  0  0  0  0
 34 39  1  0  0  0  0
 36 40  1  6  0  0  0
 39 41  1  0  0  0  0
 39 42  1  0  0  0  0
 40 43  1  0  0  0  0
 40 44  1  0  0  0  0
 41 45  1  0  0  0  0
 43 46  1  0  0  0  0
 44 47  1  0  0  0  0
 45 48  1  0  0  0  0
 45 49  2  0  0  0  0
 46 50  1  0  0  0  0
 48 51  2  0  0  0  0
 49 52  1  0  0  0  0
 51 53  1  0  0  0  0
 53 54  1  0  0  0  0
 53 55  1  0  0  0  0
  4  6  1  0  0  0  0
 20 23  1  0  0  0  0
 33 37  1  0  0  0  0
 35 36  1  0  0  0  0
 47 50  1  0  0  0  0
 51 52  1  0  0  0  0
M  END
>  <MolRegNo>
2005603

>  <m>
=

>  <Value>
150

>  <Unit>
nM

>  <Type>
IC50

>  <pValue>
6.82

>  <Ligand Efficiency>
0.17

>  <Binding Efficiency>
8.66

>  <Surface Efficiency>
5.28

>  <Assay Index>
973840

>  <Assay Category>


>  <Assay Organism>
Homo sapiens

>  <Target ID>
17045

>  <Target Name>
Cytochrome P450 3A4

>  <Target Organism>
Homo sapiens

>  <Target Description>
Target is a single protein chain

>  <Sequence Accession>
P08684

>  <Reference>


>  <Pubmed ID>


>  <DOI>


$$$$
2005604
Actelion Java MolfileCreator 1.0

 53 57  0  0  1  0  0  0  0  0999 V2000
    0.0000   -0.0000   -0.0000 S   0  0  0  0  0  0  0  0  0  0  0  0
    0.1337    1.5315   -0.0000 C   0  0  0  0  0  0  0  0  0  0  0  0
   -1.5193   -0.3039   -0.0000 C   0  0  0  0  0  0  0  0  0  0  0  0
   -1.2641    2.1878   -0.0000 C   0  0  0  0  0  0  0  0  0  0  0  0
    1.4585    2.3094   -0.0000 C   0  0  0  0  0  0  0  0  0  0  0  0
   -2.2972    1.0453   -0.0000 N   0  0  0  0  0  0  0  0  0  0  0  0
    2.7834    1.5436   -0.0000 O   0  0  0  0  0  0  0  0  0  0  0  0
    4.1082    2.3215   -0.0000 C   0  0  0  0  0  0  0  0  0  0  0  0
    4.0961    3.5734   -0.0000 O   0  0  0  0  0  0  0  0  0  0  0  0
    5.4331    1.5558   -0.0000 N   0  0  0  0  0  0  0  0  0  0  0  0
    6.7579    2.3337   -0.0000 C   0  0  0  0  0  0  0  0  0  0  0  0
    6.7458    3.8895   -0.0000 C   0  0  0  0  0  0  0  0  0  0  0  0
    8.0828    1.5679   -0.0000 C   0  0  0  0  0  0  0  0  0  0  0  0
    5.3966    4.6795   -0.0000 C   0  0  0  0  0  0  0  0  0  0  0  0
    9.4076    2.3458   -0.0000 C   0  0  0  0  0  0  0  0  0  0  0  0
    5.3845    6.2353   -0.0000 C   0  0  0  0  0  0  0  0  0  0  0  0
    4.0475    3.9259   -0.0000 C   0  0  0  0  0  0  0  0  0  0  0  0
   10.7325    1.5801   -0.0000 C   0  0  0  0  0  0  0  0  0  0  0  0
    4.0353    7.0132   -0.0000 C   0  0  0  0  0  0  0  0  0  0  0  0
    2.6983    4.7038   -0.0000 C   0  0  0  0  0  0  0  0  0  0  0  0
   12.0573    2.3580   -0.0000 N   0  0  0  0  0  0  0  0  0  0  0  0
   10.7082    0.0486   -0.0000 C   0  0  0  0  0  0  0  0  0  0  0  0
    2.6862    6.2596   -0.0000 C   0  0  0  0  0  0  0  0  0  0  0  0
   13.3822    1.5922   -0.0000 C   0  0  0  0  0  0  0  0  0  0  0  0
    9.3590   -0.7050   -0.0000 C   0  0  0  0  0  0  0  0  0  0  0  0
   13.3700    0.3646   -0.0000 O   0  0  0  0  0  0  0  0  0  0  0  0
   14.7070    2.3701   -0.0000 C   0  0  0  0  0  0  0  0  0  0  0  0
    9.3347   -2.2364   -0.0000 C   0  0  0  0  0  0  0  0  0  0  0  0
    8.0220    0.0851   -0.0000 C   0  0  0  0  0  0  0  0  0  0  0  0
   14.8407    3.9016   -0.0000 N   0  0  0  0  0  0  0  0  0  0  0  0
   16.0805    1.7381   -0.0000 C   0  0  0  0  0  0  0  0  0  0  0  0
    7.9855   -2.9900   -0.0000 C   0  0  0  0  0  0  0  0  0  0  0  0
    6.6729   -0.6685   -0.0000 C   0  0  0  0  0  0  0  0  0  0  0  0
   13.6739    4.9348   -0.0000 C   0  0  0  0  0  0  0  0  0  0  0  0
   16.3357    4.2298   -0.0000 C   0  0  0  0  0  0  0  0  0  0  0  0
   17.1015    2.8928   -0.0000 C   0  0  0  0  0  0  0  0  0  0  0  0
    6.6485   -2.2000   -0.0000 C   0  0  0  0  0  0  0  0  0  0  0  0
   12.4949    4.5580   -0.0000 O   0  0  0  0  0  0  0  0  0  0  0  0
   13.9777    6.4541   -0.0000 N   0  0  0  0  0  0  0  0  0  0  0  0
   18.6208    2.7469   -0.0000 N   0  0  0  0  0  0  0  0  0  0  0  0
   12.8109    7.4994   -0.0000 C   0  0  0  0  0  0  0  0  0  0  0  0
   15.1324    6.8552   -0.0000 C   0  0  0  0  0  0  0  0  0  0  0  0
   19.5202    4.0110   -0.0000 C   0  0  0  0  0  0  0  0  0  0  0  0
   13.1148    9.0187   -0.0000 C   0  0  0  0  0  0  0  0  0  0  0  0
   20.7357    3.8895   -0.0000 O   0  0  0  0  0  0  0  0  0  0  0  0
   19.0097    5.1535   -0.0000 C   0  0  0  0  0  0  0  0  0  0  0  0
   12.0573   10.1491   -0.0000 N   0  0  0  0  0  0  0  0  0  0  0  0
   14.5004    9.6386   -0.0000 C   0  0  0  0  0  0  0  0  0  0  0  0
   12.8109   11.4982   -0.0000 C   0  0  0  0  0  0  0  0  0  0  0  0
   14.3181   11.1822   -0.0000 S   0  0  0  0  0  0  0  0  0  0  0  0
   12.1667   12.9203   -0.0000 C   0  0  0  0  0  0  0  0  0  0  0  0
   12.8838   13.9291   -0.0000 C   0  0  0  0  0  0  0  0  0  0  0  0
   10.9269   13.0662   -0.0000 C   0  0  0  0  0  0  0  0  0  0  0  0
  1  2  1  0  0  0  0
  1  3  1  0  0  0  0
  2  4  2  0  0  0  0
  2  5  1  0  0  0  0
  3  6  2  0  0  0  0
  5  7  1  0  0  0  0
  7  8  1  0  0  0  0
  8  9  2  0  0  0  0
  8 10  1  0  0  0  0
 11 10  1  1  0  0  0
 11 12  1  0  0  0  0
 11 13  1  0  0  0  0
 12 14  1  0  0  0  0
 13 15  1  0  0  0  0
 14 16  2  0  0  0  0
 14 17  1  0  0  0  0
 15 18  1  0  0  0  0
 16 19  1  0  0  0  0
 17 20  2  0  0  0  0
 18 21  1  1  0  0  0
 18 22  1  0  0  0  0
 19 23  2  0  0  0  0
 21 24  1  0  0  0  0
 22 25  1  0  0  0  0
 24 26  2  0  0  0  0
 27 24  1  1  0  0  0
 25 28  2  0  0  0  0
 25 29  1  0  0  0  0
 27 30  1  0  0  0  0
 27 31  1  0  0  0  0
 28 32  1  0  0  0  0
 29 33  2  0  0  0  0
 30 34  1  0  0  0  0
 30 35  1  0  0  0  0
 31 36  1  0  0  0  0
 32 37  2  0  0  0  0
 34 38  2  0  0  0  0
 34 39  1  0  0  0  0
 36 40  1  1  0  0  0
 39 41  1  0  0  0  0
 39 42  1  0  0  0  0
 40 43  1  0  0  0  0
 41 44  1  0  0  0  0
 43 45  2  0  0  0  0
 43 46  1  0  0  0  0
 44 47  1  0  0  0  0
 44 48  2  0  0  0  0
 47 49  2  0  0  0  0
 48 50  1  0  0  0  0
 49 51  1  0  0  0  0
 51 52  1  0  0  0  0
 51 53  1  0  0  0  0
  4  6  1  0  0  0  0
 20 23  1  0  0  0  0
 33 37  1  0  0  0  0
 35 36  1  0  0  0  0
 49 50  1  0  0  0  0
M  END
>  <MolRegNo>
2005604

>  <m>
=

>  <Value>
370

>  <Unit>
nM

>  <Type>
IC50

>  <pValue>
6.43

>  <Ligand Efficiency>
0.17

>  <Binding Efficiency>
8.46

>  <Surface Efficiency>
4.41

>  <Assay Index>
973840

>  <Assay Category>


>  <Assay Organism>
Homo sapiens

>  <Target ID>
17045

>  <Target Name>
Cytochrome P450 3A4

>  <Target Organism>
Homo sapiens

>  <Target Description>
Target is a single protein chain

>  <Sequence Accession>
P08684

>  <Reference>


>  <Pubmed ID>


>  <DOI>


$$$$
861648
Actelion Java MolfileCreator 1.0

 20 21  0  0  0  0  0  0  0  0999 V2000
    0.0000   -0.0000   -0.0000 Cl  0  0  0  0  0  0  0  0  0  0  0  0
    1.5211    0.0121   -0.0000 C   0  0  0  0  0  0  0  0  0  0  0  0
    2.2334   -1.2676   -0.0000 C   0  0  0  0  0  0  0  0  0  0  0  0
    2.2334    1.3280   -0.0000 C   0  0  0  0  0  0  0  0  0  0  0  0
    3.7546   -1.2555   -0.0000 C   0  0  0  0  0  0  0  0  0  0  0  0
    3.7546    1.3401   -0.0000 C   0  0  0  0  0  0  0  0  0  0  0  0
    4.4789    0.0483   -0.0000 C   0  0  0  0  0  0  0  0  0  0  0  0
    5.9880    0.0604   -0.0000 O   0  0  0  0  0  0  0  0  0  0  0  0
    6.7123   -1.2193   -0.0000 C   0  0  0  0  0  0  0  0  0  0  0  0
    5.9638   -2.4990   -0.0000 N   0  0  0  0  0  0  0  0  0  0  0  0
    8.2335   -1.2073   -0.0000 C   0  0  0  0  0  0  0  0  0  0  0  0
    6.3985   -3.9477   -0.0000 C   0  0  0  0  0  0  0  0  0  0  0  0
    4.4306   -2.4869   -0.0000 C   0  0  0  0  0  0  0  0  0  0  0  0
    8.9458    0.0966   -0.0000 O   0  0  0  0  0  0  0  0  0  0  0  0
    8.9458   -2.4869   -0.0000 C   0  0  0  0  0  0  0  0  0  0  0  0
    5.1912   -4.7807   -0.0000 N   0  0  0  0  0  0  0  0  0  0  0  0
    3.9719   -3.9357   -0.0000 C   0  0  0  0  0  0  0  0  0  0  0  0
    7.6299   -3.2354   -0.0000 C   0  0  0  0  0  0  0  0  0  0  0  0
   10.2617   -1.7143   -0.0000 C   0  0  0  0  0  0  0  0  0  0  0  0
    9.6943   -3.8029   -0.0000 C   0  0  0  0  0  0  0  0  0  0  0  0
  1  2  1  0  0  0  0
  2  3  2  0  0  0  0
  2  4  1  0  0  0  0
  3  5  1  0  0  0  0
  4  6  2  0  0  0  0
  5  7  2  0  0  0  0
  7  8  1  0  0  0  0
  8  9  1  0  0  0  0
  9 10  1  0  0  0  0
  9 11  1  0  0  0  0
 10 12  1  0  0  0  0
 10 13  1  0  0  0  0
 11 14  2  0  0  0  0
 11 15  1  0  0  0  0
 12 16  2  0  0  0  0
 13 17  2  0  0  0  0
 15 18  1  0  0  0  0
 15 19  1  0  0  0  0
 15 20  1  0  0  0  0
  6  7  1  0  0  0  0
 16 17  1  0  0  0  0
M  END
>  <MolRegNo>
861648

>  <m>
=

>  <Value>
47500

>  <Unit>
nM

>  <Type>
IC50

>  <pValue>
4.32

>  <Ligand Efficiency>
0.3

>  <Binding Efficiency>
14.77

>  <Surface Efficiency>
9.8

>  <Assay Index>
1058282

>  <Assay Category>


>  <Assay Organism>
Homo sapiens

>  <Target ID>
17045

>  <Target Name>
Cytochrome P450 3A4

>  <Target Organism>
Homo sapiens

>  <Target Description>
Target is a single protein chain

>  <Sequence Accession>
P08684

>  <Reference>


>  <Pubmed ID>


>  <DOI>


$$$$
13442
Actelion Java MolfileCreator 1.0

 11 12  0  0  0  0  0  0  0  0999 V2000
    0.0000   -0.0000   -0.0000 N   0  0  0  0  0  0  0  0  0  0  0  0
    1.0005   -1.1077   -0.0000 C   0  0  0  0  0  0  0  0  0  0  0  0
    0.7384    1.3221   -0.0000 C   0  0  0  0  0  0  0  0  0  0  0  0
    2.3463   -0.4645   -0.0000 N   0  0  0  0  0  0  0  0  0  0  0  0
    2.2034    1.0243   -0.0000 C   0  0  0  0  0  0  0  0  0  0  0  0
    3.6446   -1.2149   -0.0000 C   0  0  0  0  0  0  0  0  0  0  0  0
    4.9428   -0.4526   -0.0000 C   0  0  0  0  0  0  0  0  0  0  0  0
    3.6327   -2.7156   -0.0000 C   0  0  0  0  0  0  0  0  0  0  0  0
    6.2410   -1.2029   -0.0000 C   0  0  0  0  0  0  0  0  0  0  0  0
    4.9309   -3.4659   -0.0000 C   0  0  0  0  0  0  0  0  0  0  0  0
    6.2291   -2.7037   -0.0000 C   0  0  0  0  0  0  0  0  0  0  0  0
  1  2  2  0  0  0  0
  1  3  1  0  0  0  0
  2  4  1  0  0  0  0
  3  5  2  0  0  0  0
  4  6  1  0  0  0  0
  6  7  2  0  0  0  0
  6  8  1  0  0  0  0
  7  9  1  0  0  0  0
  8 10  2  0  0  0  0
  9 11  2  0  0  0  0
  4  5  1  0  0  0  0
 10 11  1  0  0  0  0
M  END
>  <MolRegNo>
13442

>  <m>
=

>  <Value>
52500

>  <Unit>
nM

>  <Type>
IC50

>  <pValue>
4.28

>  <Ligand Efficiency>
0.53

>  <Binding Efficiency>
29.68

>  <Surface Efficiency>
24.02

>  <Assay Index>
1058282

>  <Assay Category>


>  <Assay Organism>
Homo sapiens

>  <Target ID>
17045

>  <Target Name>
Cytochrome P450 3A4

>  <Target Organism>
Homo sapiens

>  <Target Description>
Target is a single protein chain

>  <Sequence Accession>
P08684

>  <Reference>


>  <Pubmed ID>


>  <DOI>


$$$$
13401
Actelion Java MolfileCreator 1.0

 11 12  0  0  0  0  0  0  0  0999 V2000
    0.0000   -0.0000   -0.0000 N   0  0  0  0  0  0  0  0  0  0  0  0
    1.3413    0.6410   -0.0000 C   0  0  0  0  0  0  0  0  0  0  0  0
   -1.0208    1.1277   -0.0000 C   0  0  0  0  0  0  0  0  0  0  0  0
    2.6352   -0.1068   -0.0000 C   0  0  0  0  0  0  0  0  0  0  0  0
    1.1870    2.1367   -0.0000 C   0  0  0  0  0  0  0  0  0  0  0  0
   -0.2849    2.4453   -0.0000 N   0  0  0  0  0  0  0  0  0  0  0  0
    3.9291    0.6529   -0.0000 C   0  0  0  0  0  0  0  0  0  0  0  0
    2.6233   -1.6025   -0.0000 C   0  0  0  0  0  0  0  0  0  0  0  0
    5.2229   -0.0950   -0.0000 C   0  0  0  0  0  0  0  0  0  0  0  0
    3.9172   -2.3503   -0.0000 C   0  0  0  0  0  0  0  0  0  0  0  0
    5.2111   -1.5906   -0.0000 C   0  0  0  0  0  0  0  0  0  0  0  0
  1  2  1  0  0  0  0
  1  3  2  0  0  0  0
  2  4  1  0  0  0  0
  2  5  2  0  0  0  0
  3  6  1  0  0  0  0
  4  7  2  0  0  0  0
  4  8  1  0  0  0  0
  7  9  1  0  0  0  0
  8 10  2  0  0  0  0
  9 11  2  0  0  0  0
  5  6  1  0  0  0  0
 10 11  1  0  0  0  0
M  END
>  <MolRegNo>
13401

>  <m>
=

>  <Value>
58800

>  <Unit>
nM

>  <Type>
IC50

>  <pValue>
4.23

>  <Ligand Efficiency>
0.53

>  <Binding Efficiency>
29.34

>  <Surface Efficiency>
14.75

>  <Assay Index>
1058282

>  <Assay Category>


>  <Assay Organism>
Homo sapiens

>  <Target ID>
17045

>  <Target Name>
Cytochrome P450 3A4

>  <Target Organism>
Homo sapiens

>  <Target Description>
Target is a single protein chain

>  <Sequence Accession>
P08684

>  <Reference>


>  <Pubmed ID>


>  <DOI>


$$$$
13402
Actelion Java MolfileCreator 1.0

 12 13  0  0  0  0  0  0  0  0999 V2000
    0.0000   -0.0000   -0.0000 N   0  0  0  0  0  0  0  0  0  0  0  0
   -0.4708    1.4359   -0.0000 C   0  0  0  0  0  0  0  0  0  0  0  0
    1.4830    0.0118   -0.0000 C   0  0  0  0  0  0  0  0  0  0  0  0
    0.7297    2.2951   -0.0000 N   0  0  0  0  0  0  0  0  0  0  0  0
    1.9420    1.4477   -0.0000 C   0  0  0  0  0  0  0  0  0  0  0  0
    0.7180    3.8017   -0.0000 C   0  0  0  0  0  0  0  0  0  0  0  0
   -0.5885    4.5667   -0.0000 C   0  0  0  0  0  0  0  0  0  0  0  0
   -0.6003    6.0733   -0.0000 C   0  0  0  0  0  0  0  0  0  0  0  0
   -1.8950    3.8370   -0.0000 C   0  0  0  0  0  0  0  0  0  0  0  0
   -1.9067    6.8266   -0.0000 C   0  0  0  0  0  0  0  0  0  0  0  0
   -3.2014    4.5903   -0.0000 C   0  0  0  0  0  0  0  0  0  0  0  0
   -3.2132    6.0968   -0.0000 C   0  0  0  0  0  0  0  0  0  0  0  0
  1  2  2  0  0  0  0
  1  3  1  0  0  0  0
  2  4  1  0  0  0  0
  3  5  2  0  0  0  0
  4  6  1  0  0  0  0
  6  7  1  0  0  0  0
  7  8  2  0  0  0  0
  7  9  1  0  0  0  0
  8 10  1  0  0  0  0
  9 11  2  0  0  0  0
 10 12  2  0  0  0  0
  4  5  1  0  0  0  0
 11 12  1  0  0  0  0
M  END
>  <MolRegNo>
13402

>  <m>
=

>  <Value>
77500

>  <Unit>
nM

>  <Type>
IC50

>  <pValue>
4.11

>  <Ligand Efficiency>
0.47

>  <Binding Efficiency>
25.98

>  <Surface Efficiency>
23.07

>  <Assay Index>
1058282

>  <Assay Category>


>  <Assay Organism>
Homo sapiens

>  <Target ID>
17045

>  <Target Name>
Cytochrome P450 3A4

>  <Target Organism>
Homo sapiens

>  <Target Description>
Target is a single protein chain

>  <Sequence Accession>
P08684

>  <Reference>


>  <Pubmed ID>


>  <DOI>


$$$$
376142
Actelion Java MolfileCreator 1.0

 17 19  0  0  0  0  0  0  0  0999 V2000
    0.0000   -0.0000   -0.0000 N   0  0  0  0  0  0  0  0  0  0  0  0
    1.3384    0.6396   -0.0000 C   0  0  0  0  0  0  0  0  0  0  0  0
   -1.0186    1.1252   -0.0000 C   0  0  0  0  0  0  0  0  0  0  0  0
    2.6295   -0.1066   -0.0000 C   0  0  0  0  0  0  0  0  0  0  0  0
    1.1844    2.1320   -0.0000 C   0  0  0  0  0  0  0  0  0  0  0  0
   -0.2843    2.4400   -0.0000 N   0  0  0  0  0  0  0  0  0  0  0  0
    3.9205    0.6514   -0.0000 C   0  0  0  0  0  0  0  0  0  0  0  0
    2.6176   -1.5990   -0.0000 C   0  0  0  0  0  0  0  0  0  0  0  0
    2.2978    3.1506   -0.0000 C   0  0  0  0  0  0  0  0  0  0  0  0
    5.2116   -0.0948   -0.0000 C   0  0  0  0  0  0  0  0  0  0  0  0
    3.9087   -2.3452   -0.0000 C   0  0  0  0  0  0  0  0  0  0  0  0
    3.7429    2.8071   -0.0000 C   0  0  0  0  0  0  0  0  0  0  0  0
    1.8596    4.6075   -0.0000 C   0  0  0  0  0  0  0  0  0  0  0  0
    5.1997   -1.5872   -0.0000 C   0  0  0  0  0  0  0  0  0  0  0  0
    4.7733    3.9087   -0.0000 C   0  0  0  0  0  0  0  0  0  0  0  0
    2.8901    5.7090   -0.0000 C   0  0  0  0  0  0  0  0  0  0  0  0
    4.3351    5.3656   -0.0000 C   0  0  0  0  0  0  0  0  0  0  0  0
  1  2  1  0  0  0  0
  1  3  2  0  0  0  0
  2  4  1  0  0  0  0
  2  5  2  0  0  0  0
  3  6  1  0  0  0  0
  4  7  2  0  0  0  0
  4  8  1  0  0  0  0
  5  9  1  0  0  0  0
  7 10  1  0  0  0  0
  8 11  2  0  0  0  0
  9 12  2  0  0  0  0
  9 13  1  0  0  0  0
 10 14  2  0  0  0  0
 12 15  1  0  0  0  0
 13 16  2  0  0  0  0
 15 17  2  0  0  0  0
  5  6  1  0  0  0  0
 11 14  1  0  0  0  0
 16 17  1  0  0  0  0
M  END
>  <MolRegNo>
376142

>  <m>
=

>  <Value>
1.0e5

>  <Unit>
nM

>  <Type>
IC50

>  <pValue>
4

>  <Ligand Efficiency>
0.32

>  <Binding Efficiency>
18.16

>  <Surface Efficiency>
13.95

>  <Assay Index>
1058282

>  <Assay Category>


>  <Assay Organism>
Homo sapiens

>  <Target ID>
17045

>  <Target Name>
Cytochrome P450 3A4

>  <Target Organism>
Homo sapiens

>  <Target Description>
Target is a single protein chain

>  <Sequence Accession>
P08684

>  <Reference>


>  <Pubmed ID>


>  <DOI>


$$$$
708383
Actelion Java MolfileCreator 1.0

 13 14  0  0  0  0  0  0  0  0999 V2000
    0.0000   -0.0000   -0.0000 N   0  0  0  0  0  0  0  0  0  0  0  0
    0.4645    1.4532   -0.0000 C   0  0  0  0  0  0  0  0  0  0  0  0
   -1.5246    0.0119   -0.0000 C   0  0  0  0  0  0  0  0  0  0  0  0
   -0.7623    2.3346   -0.0000 N   0  0  0  0  0  0  0  0  0  0  0  0
    1.6080    1.8462   -0.0000 C   0  0  0  0  0  0  0  0  0  0  0  0
   -2.0011    1.4651   -0.0000 C   0  0  0  0  0  0  0  0  0  0  0  0
   -0.7742    3.8592   -0.0000 C   0  0  0  0  0  0  0  0  0  0  0  0
   -2.0964    4.6334   -0.0000 C   0  0  0  0  0  0  0  0  0  0  0  0
   -2.1083    6.1580   -0.0000 C   0  0  0  0  0  0  0  0  0  0  0  0
   -3.4185    3.8949   -0.0000 C   0  0  0  0  0  0  0  0  0  0  0  0
   -3.4304    6.9203   -0.0000 C   0  0  0  0  0  0  0  0  0  0  0  0
   -4.7406    4.6572   -0.0000 C   0  0  0  0  0  0  0  0  0  0  0  0
   -4.7525    6.1819   -0.0000 C   0  0  0  0  0  0  0  0  0  0  0  0
  1  2  2  0  0  0  0
  1  3  1  0  0  0  0
  2  4  1  0  0  0  0
  2  5  1  0  0  0  0
  3  6  2  0  0  0  0
  4  7  1  0  0  0  0
  7  8  1  0  0  0  0
  8  9  2  0  0  0  0
  8 10  1  0  0  0  0
  9 11  1  0  0  0  0
 10 12  2  0  0  0  0
 11 13  2  0  0  0  0
  4  6  1  0  0  0  0
 12 13  1  0  0  0  0
M  END
>  <MolRegNo>
708383

>  <m>
=

>  <Value>
307500

>  <Unit>
nM

>  <Type>
IC50

>  <pValue>
0

>  <Ligand Efficiency>
0

>  <Binding Efficiency>
0

>  <Surface Efficiency>
0

>  <Assay Index>
1058282

>  <Assay Category>


>  <Assay Organism>
Homo sapiens

>  <Target ID>
17045

>  <Target Name>
Cytochrome P450 3A4

>  <Target Organism>
Homo sapiens

>  <Target Description>
Target is a single protein chain

>  <Sequence Accession>
P08684

>  <Reference>


>  <Pubmed ID>


>  <DOI>


$$$$
2170560
Actelion Java MolfileCreator 1.0

 24 26  0  0  0  0  0  0  0  0999 V2000
    0.0000   -0.0000   -0.0000 N   0  0  0  0  0  0  0  0  0  0  0  0
    1.0436   -0.5998   -0.0000 C   0  0  0  0  0  0  0  0  0  0  0  0
    2.3511    0.1679   -0.0000 N   0  0  0  0  0  0  0  0  0  0  0  0
    3.6587   -0.5878   -0.0000 C   0  0  0  0  0  0  0  0  0  0  0  0
    2.3392    1.7034   -0.0000 C   0  0  0  0  0  0  0  0  0  0  0  0
    4.7023    0.0360   -0.0000 C   0  0  0  0  0  0  0  0  0  0  0  0
    3.6467    2.4711   -0.0000 C   0  0  0  0  0  0  0  0  0  0  0  0
    1.0076    2.4831   -0.0000 C   0  0  0  0  0  0  0  0  0  0  0  0
    3.6347    4.0065   -0.0000 C   0  0  0  0  0  0  0  0  0  0  0  0
    4.9542    1.7154   -0.0000 C   0  0  0  0  0  0  0  0  0  0  0  0
    0.9956    4.0185   -0.0000 C   0  0  0  0  0  0  0  0  0  0  0  0
   -0.3239    1.7394   -0.0000 C   0  0  0  0  0  0  0  0  0  0  0  0
    4.9422    4.7743   -0.0000 C   0  0  0  0  0  0  0  0  0  0  0  0
    6.2617    2.4831   -0.0000 C   0  0  0  0  0  0  0  0  0  0  0  0
   -0.3359    4.7863   -0.0000 C   0  0  0  0  0  0  0  0  0  0  0  0
   -1.6554    2.5071   -0.0000 C   0  0  0  0  0  0  0  0  0  0  0  0
    6.2497    4.0185   -0.0000 C   0  0  0  0  0  0  0  0  0  0  0  0
   -1.6674    4.0425   -0.0000 C   0  0  0  0  0  0  0  0  0  0  0  0
    7.5573    4.7863   -0.0000 C   0  0  0  0  0  0  0  0  0  0  0  0
    7.5573    6.3217   -0.0000 C   0  0  0  0  0  0  0  0  0  0  0  0
    8.8648    4.0305   -0.0000 C   0  0  0  0  0  0  0  0  0  0  0  0
    8.8648    7.0894   -0.0000 C   0  0  0  0  0  0  0  0  0  0  0  0
   10.1723    4.7983   -0.0000 C   0  0  0  0  0  0  0  0  0  0  0  0
   10.1723    6.3337   -0.0000 C   0  0  0  0  0  0  0  0  0  0  0  0
  1  2  2  0  0  0  0
  2  3  1  0  0  0  0
  3  4  1  0  0  0  0
  3  5  1  0  0  0  0
  4  6  2  0  0  0  0
  5  7  1  0  0  0  0
  5  8  1  0  0  0  0
  7  9  2  0  0  0  0
  7 10  1  0  0  0  0
  8 11  2  0  0  0  0
  8 12  1  0  0  0  0
  9 13  1  0  0  0  0
 10 14  2  0  0  0  0
 11 15  1  0  0  0  0
 12 16  2  0  0  0  0
 13 17  2  0  0  0  0
 15 18  2  0  0  0  0
 17 19  1  0  0  0  0
 19 20  2  0  0  0  0
 19 21  1  0  0  0  0
 20 22  1  0  0  0  0
 21 23  2  0  0  0  0
 22 24  2  0  0  0  0
 14 17  1  0  0  0  0
 16 18  1  0  0  0  0
 23 24  1  0  0  0  0
M  END
>  <MolRegNo>
2170560

>  <m>
=

>  <Value>
800

>  <Unit>
nM

>  <Type>
IC50

>  <pValue>
6.1

>  <Ligand Efficiency>
0.35

>  <Binding Efficiency>
19.52

>  <Surface Efficiency>
22.51

>  <Assay Index>
1058283

>  <Assay Category>


>  <Assay Organism>
Homo sapiens

>  <Target ID>
17045

>  <Target Name>
Cytochrome P450 3A4

>  <Target Organism>
Homo sapiens

>  <Target Description>
Target is a single protein chain

>  <Sequence Accession>
P08684

>  <Reference>


>  <Pubmed ID>


>  <DOI>


$$$$
528444
Actelion Java MolfileCreator 1.0

 14 15  0  0  0  0  0  0  0  0999 V2000
    0.0000   -0.0000   -0.0000 O   0  0  0  0  0  0  0  0  0  0  0  0
   -0.0121    1.2427   -0.0000 C   0  0  0  0  0  0  0  0  0  0  0  0
   -1.3513    2.0270   -0.0000 C   0  0  0  0  0  0  0  0  0  0  0  0
    1.0376    1.8702   -0.0000 C   0  0  0  0  0  0  0  0  0  0  0  0
   -1.3634    3.5714   -0.0000 C   0  0  0  0  0  0  0  0  0  0  0  0
   -2.6906    1.2669   -0.0000 C   0  0  0  0  0  0  0  0  0  0  0  0
   -2.7027    4.3436   -0.0000 C   0  0  0  0  0  0  0  0  0  0  0  0
   -4.0299    2.0391   -0.0000 C   0  0  0  0  0  0  0  0  0  0  0  0
   -4.0419    3.5834   -0.0000 C   0  0  0  0  0  0  0  0  0  0  0  0
   -5.3812    4.3677   -0.0000 N   0  0  0  0  0  0  0  0  0  0  0  0
   -6.7687    3.7403   -0.0000 C   0  0  0  0  0  0  0  0  0  0  0  0
   -5.5381    5.8880   -0.0000 C   0  0  0  0  0  0  0  0  0  0  0  0
   -7.8064    4.8865   -0.0000 N   0  0  0  0  0  0  0  0  0  0  0  0
   -7.0462    6.2137   -0.0000 C   0  0  0  0  0  0  0  0  0  0  0  0
  1  2  2  0  0  0  0
  2  3  1  0  0  0  0
  2  4  1  0  0  0  0
  3  5  2  0  0  0  0
  3  6  1  0  0  0  0
  5  7  1  0  0  0  0
  6  8  2  0  0  0  0
  7  9  2  0  0  0  0
  9 10  1  0  0  0  0
 10 11  1  0  0  0  0
 10 12  1  0  0  0  0
 11 13  2  0  0  0  0
 12 14  2  0  0  0  0
  8  9  1  0  0  0  0
 13 14  1  0  0  0  0
M  END
>  <MolRegNo>
528444

>  <m>
=

>  <Value>
800

>  <Unit>
nM

>  <Type>
IC50

>  <pValue>
6.1

>  <Ligand Efficiency>
0.59

>  <Binding Efficiency>
32.74

>  <Surface Efficiency>
17.47

>  <Assay Index>
1058283

>  <Assay Category>


>  <Assay Organism>
Homo sapiens

>  <Target ID>
17045

>  <Target Name>
Cytochrome P450 3A4

>  <Target Organism>
Homo sapiens

>  <Target Description>
Target is a single protein chain

>  <Sequence Accession>
P08684

>  <Reference>


>  <Pubmed ID>


>  <DOI>


$$$$
2098962
Actelion Java MolfileCreator 1.0

 21 22  0  0  0  0  0  0  0  0999 V2000
    0.0000   -0.0000   -0.0000 O   0  0  0  0  0  0  0  0  0  0  0  0
   -1.0762   -0.6046   -0.0000 C   0  0  0  0  0  0  0  0  0  0  0  0
   -1.0883   -2.1282   -0.0000 N   0  0  0  0  0  0  0  0  0  0  0  0
   -2.4185    0.1814   -0.0000 C   0  0  0  0  0  0  0  0  0  0  0  0
    0.2298   -2.8901   -0.0000 C   0  0  0  0  0  0  0  0  0  0  0  0
   -2.4306   -2.8901   -0.0000 C   0  0  0  0  0  0  0  0  0  0  0  0
   -2.4306    1.7292   -0.0000 C   0  0  0  0  0  0  0  0  0  0  0  0
    0.2177   -4.4137   -0.0000 C   0  0  0  0  0  0  0  0  0  0  0  0
   -2.4426   -4.1114   -0.0000 C   0  0  0  0  0  0  0  0  0  0  0  0
   -3.7728    2.5152   -0.0000 C   0  0  0  0  0  0  0  0  0  0  0  0
    1.2697   -5.0183   -0.0000 C   0  0  0  0  0  0  0  0  0  0  0  0
   -3.7849    4.0630   -0.0000 C   0  0  0  0  0  0  0  0  0  0  0  0
   -5.1271    4.8490   -0.0000 C   0  0  0  0  0  0  0  0  0  0  0  0
   -6.4694    4.0993   -0.0000 C   0  0  0  0  0  0  0  0  0  0  0  0
   -5.1392    6.3968   -0.0000 C   0  0  0  0  0  0  0  0  0  0  0  0
   -7.8116    4.8732   -0.0000 C   0  0  0  0  0  0  0  0  0  0  0  0
   -6.4815    7.1707   -0.0000 C   0  0  0  0  0  0  0  0  0  0  0  0
   -9.2869    4.4137   -0.0000 O   0  0  0  0  0  0  0  0  0  0  0  0
   -7.8237    6.4210   -0.0000 C   0  0  0  0  0  0  0  0  0  0  0  0
  -10.2059    5.6713   -0.0000 C   0  0  0  0  0  0  0  0  0  0  0  0
   -9.2990    6.9047   -0.0000 O   0  0  0  0  0  0  0  0  0  0  0  0
  1  2  2  0  0  0  0
  2  3  1  0  0  0  0
  2  4  1  0  0  0  0
  3  5  1  0  0  0  0
  3  6  1  0  0  0  0
  4  7  2  0  0  0  0
  5  8  1  0  0  0  0
  6  9  1  0  0  0  0
  7 10  1  0  0  0  0
  8 11  1  0  0  0  0
 10 12  2  0  0  0  0
 12 13  1  0  0  0  0
 13 14  2  0  0  0  0
 13 15  1  0  0  0  0
 14 16  1  0  0  0  0
 15 17  2  0  0  0  0
 16 18  1  0  0  0  0
 16 19  2  0  0  0  0
 18 20  1  0  0  0  0
 19 21  1  0  0  0  0
 17 19  1  0  0  0  0
 20 21  1  0  0  0  0
M  END
>  <MolRegNo>
2098962

>  <m>
=

>  <Value>
10000

>  <Unit>
nM

>  <Type>
IC50

>  <pValue>
5

>  <Ligand Efficiency>
0.33

>  <Binding Efficiency>
17.4

>  <Surface Efficiency>
12.9

>  <Assay Index>
1058283

>  <Assay Category>


>  <Assay Organism>
Homo sapiens

>  <Target ID>
17045

>  <Target Name>
Cytochrome P450 3A4

>  <Target Organism>
Homo sapiens

>  <Target Description>
Target is a single protein chain

>  <Sequence Accession>
P08684

>  <Reference>


>  <Pubmed ID>


>  <DOI>


$$$$
2161839
Actelion Java MolfileCreator 1.0

 25 28  0  0  0  0  0  0  0  0999 V2000
    0.0000   -0.0000   -0.0000 Cl  0  0  0  0  0  0  0  0  0  0  0  0
   -1.0587    0.6186   -0.0000 C   0  0  0  0  0  0  0  0  0  0  0  0
   -2.3791   -0.1190   -0.0000 C   0  0  0  0  0  0  0  0  0  0  0  0
   -1.0706    2.1412   -0.0000 C   0  0  0  0  0  0  0  0  0  0  0  0
   -3.6995    0.6424   -0.0000 C   0  0  0  0  0  0  0  0  0  0  0  0
   -2.3910   -1.6178   -0.0000 C   0  0  0  0  0  0  0  0  0  0  0  0
   -2.3910    2.9025   -0.0000 C   0  0  0  0  0  0  0  0  0  0  0  0
   -3.7114    2.1650   -0.0000 C   0  0  0  0  0  0  0  0  0  0  0  0
   -3.7114   -2.3672   -0.0000 N   0  0  0  0  0  0  0  0  0  0  0  0
   -1.0944   -2.3553   -0.0000 C   0  0  0  0  0  0  0  0  0  0  0  0
   -3.7114   -0.8565   -0.0000 C   0  0  0  0  0  0  0  0  0  0  0  0
   -5.0793   -1.7367   -0.0000 C   0  0  0  0  0  0  0  0  0  0  0  0
   -3.8660   -3.8422   -0.0000 C   0  0  0  0  0  0  0  0  0  0  0  0
   -1.1063   -3.8541   -0.0000 C   0  0  0  0  0  0  0  0  0  0  0  0
    0.2022   -1.5940   -0.0000 C   0  0  0  0  0  0  0  0  0  0  0  0
   -5.0317   -1.6059   -0.0000 C   0  0  0  0  0  0  0  0  0  0  0  0
   -3.7233    0.6661   -0.0000 C   0  0  0  0  0  0  0  0  0  0  0  0
   -6.1023   -2.8430   -0.0000 N   0  0  0  0  0  0  0  0  0  0  0  0
   -5.3529   -4.1396   -0.0000 C   0  0  0  0  0  0  0  0  0  0  0  0
    0.1903   -4.5916   -0.0000 C   0  0  0  0  0  0  0  0  0  0  0  0
    1.4988   -2.3315   -0.0000 C   0  0  0  0  0  0  0  0  0  0  0  0
   -6.3521   -0.8446   -0.0000 C   0  0  0  0  0  0  0  0  0  0  0  0
   -5.0436    1.4274   -0.0000 C   0  0  0  0  0  0  0  0  0  0  0  0
    1.4869   -3.8184   -0.0000 C   0  0  0  0  0  0  0  0  0  0  0  0
   -6.3640    0.6780   -0.0000 C   0  0  0  0  0  0  0  0  0  0  0  0
  1  2  1  0  0  0  0
  2  3  1  0  0  0  0
  2  4  1  0  0  0  0
  3  5  2  0  0  0  0
  3  6  1  0  0  0  0
  4  7  1  0  0  0  0
  5  8  1  0  0  0  0
  6  9  1  0  0  0  0
  6 10  1  0  0  0  0
  6 11  1  0  0  0  0
  9 12  1  0  0  0  0
  9 13  1  0  0  0  0
 10 14  2  0  0  0  0
 10 15  1  0  0  0  0
 11 16  2  0  0  0  0
 11 17  1  0  0  0  0
 12 18  2  0  0  0  0
 13 19  2  0  0  0  0
 14 20  1  0  0  0  0
 15 21  2  0  0  0  0
 16 22  1  0  0  0  0
 17 23  2  0  0  0  0
 20 24  2  0  0  0  0
 22 25  2  0  0  0  0
  7  8  2  0  0  0  0
 18 19  1  0  0  0  0
 21 24  1  0  0  0  0
 23 25  1  0  0  0  0
M  END
>  <MolRegNo>
2161839

>  <m>
=

>  <Value>
300

>  <Unit>
nM

>  <Type>
IC50

>  <pValue>
6.52

>  <Ligand Efficiency>
0.36

>  <Binding Efficiency>
18.81

>  <Surface Efficiency>
36.6

>  <Assay Index>
1058297

>  <Assay Category>


>  <Assay Organism>
Homo sapiens

>  <Target ID>
17045

>  <Target Name>
Cytochrome P450 3A4

>  <Target Organism>
Homo sapiens

>  <Target Description>
Target is a single protein chain

>  <Sequence Accession>
P08684

>  <Reference>


>  <Pubmed ID>


>  <DOI>


$$$$
2138611
Actelion Java MolfileCreator 1.0

 32 36  0  0  1  0  0  0  0  0999 V2000
    0.0000   -0.0000   -0.0000 O   0  0  0  0  0  0  0  0  0  0  0  0
    1.0422   -0.5990   -0.0000 C   0  0  0  0  0  0  0  0  0  0  0  0
    1.0303   -2.1085   -0.0000 N   0  0  0  0  0  0  0  0  0  0  0  0
    2.3481    0.1797   -0.0000 C   0  0  0  0  0  0  0  0  0  0  0  0
   -0.2995   -2.8632   -0.0000 C   0  0  0  0  0  0  0  0  0  0  0  0
    2.3361   -2.8512   -0.0000 C   0  0  0  0  0  0  0  0  0  0  0  0
    2.3361    1.7131   -0.0000 C   0  0  0  0  0  0  0  0  0  0  0  0
    3.6539   -0.5631   -0.0000 C   0  0  0  0  0  0  0  0  0  0  0  0
   -0.3115   -4.3727   -0.0000 C   0  0  0  0  0  0  0  0  0  0  0  0
   -1.6293   -2.0965   -0.0000 C   0  0  0  0  0  0  0  0  0  0  0  0
    2.3241   -4.3607   -0.0000 C   0  0  0  0  0  0  0  0  0  0  0  0
    1.0063    2.4798   -0.0000 N   0  0  0  0  0  0  0  0  0  0  0  0
    3.6419    2.4798   -0.0000 C   0  0  0  0  0  0  0  0  0  0  0  0
    4.9597    0.2037   -0.0000 C   0  0  0  0  0  0  0  0  0  0  0  0
    0.9943   -5.1154   -0.0000 O   0  0  0  0  0  0  0  0  0  0  0  0
   -2.9590   -2.8512   -0.0000 C   0  0  0  0  0  0  0  0  0  0  0  0
    0.8506    3.9893   -0.0000 N   0  0  0  0  0  0  0  0  0  0  0  0
   -0.3714    1.8569   -0.0000 N   0  0  0  0  0  0  0  0  0  0  0  0
    4.9477    1.7371   -0.0000 C   0  0  0  0  0  0  0  0  0  0  0  0
    6.0019   -0.3953   -0.0000 C   0  0  0  0  0  0  0  0  0  0  0  0
   -2.9590   -4.3607   -0.0000 C   0  0  0  0  0  0  0  0  0  0  0  0
   -4.2888   -2.0845   -0.0000 C   0  0  0  0  0  0  0  0  0  0  0  0
   -0.6469    4.3128   -0.0000 C   0  0  0  0  0  0  0  0  0  0  0  0
   -1.4016    2.9950   -0.0000 C   0  0  0  0  0  0  0  0  0  0  0  0
   -4.2768   -5.1154   -0.0000 C   0  0  0  0  0  0  0  0  0  0  0  0
   -5.6066   -2.8392   -0.0000 C   0  0  0  0  0  0  0  0  0  0  0  0
   -4.2768   -6.6249   -0.0000 C   0  0  0  0  0  0  0  0  0  0  0  0
   -5.6066   -4.3487   -0.0000 C   0  0  0  0  0  0  0  0  0  0  0  0
   -5.5107   -7.4994   -0.0000 N   0  0  0  0  0  0  0  0  0  0  0  0
   -3.0549   -7.4754   -0.0000 N   0  0  0  0  0  0  0  0  0  0  0  0
   -5.0435   -8.9250   -0.0000 O   0  0  0  0  0  0  0  0  0  0  0  0
   -3.5221   -8.9130   -0.0000 C   0  0  0  0  0  0  0  0  0  0  0  0
  1  2  2  0  0  0  0
  2  3  1  0  0  0  0
  2  4  1  0  0  0  0
  3  5  1  0  0  0  0
  3  6  1  0  0  0  0
  4  7  2  0  0  0  0
  4  8  1  0  0  0  0
  5  9  1  0  0  0  0
  5 10  1  1  0  0  0
  6 11  1  0  0  0  0
  7 12  1  0  0  0  0
  7 13  1  0  0  0  0
  8 14  2  0  0  0  0
  9 15  1  0  0  0  0
 10 16  1  0  0  0  0
 12 17  1  0  0  0  0
 12 18  1  0  0  0  0
 13 19  2  0  0  0  0
 14 20  1  0  0  0  0
 16 21  2  0  0  0  0
 16 22  1  0  0  0  0
 17 23  2  0  0  0  0
 18 24  2  0  0  0  0
 21 25  1  0  0  0  0
 22 26  2  0  0  0  0
 25 27  1  0  0  0  0
 25 28  2  0  0  0  0
 27 29  2  0  0  0  0
 27 30  1  0  0  0  0
 29 31  1  0  0  0  0
 30 32  2  0  0  0  0
 11 15  1  0  0  0  0
 14 19  1  0  0  0  0
 23 24  1  0  0  0  0
 26 28  1  0  0  0  0
 31 32  1  0  0  0  0
M  END
>  <MolRegNo>
2138611

>  <m>
=

>  <Value>
43000

>  <Unit>
nM

>  <Type>
IC50

>  <pValue>
4.37

>  <Ligand Efficiency>
0.19

>  <Binding Efficiency>
10.14

>  <Surface Efficiency>
4.4

>  <Assay Index>
1058329

>  <Assay Category>


>  <Assay Organism>
Homo sapiens

>  <Target ID>
17045

>  <Target Name>
Cytochrome P450 3A4

>  <Target Organism>
Homo sapiens

>  <Target Description>
Target is a single protein chain

>  <Sequence Accession>
P08684

>  <Reference>


>  <Pubmed ID>


>  <DOI>


$$$$
2115912
Actelion Java MolfileCreator 1.0

 34 38  0  0  1  0  0  0  0  0999 V2000
    0.0000   -0.0000   -0.0000 O   0  0  0  0  0  0  0  0  0  0  0  0
   -1.0665   -0.5992   -0.0000 C   0  0  0  0  0  0  0  0  0  0  0  0
   -1.0665   -2.1091   -0.0000 N   0  0  0  0  0  0  0  0  0  0  0  0
   -2.3967    0.1678   -0.0000 C   0  0  0  0  0  0  0  0  0  0  0  0
    0.2397   -2.8521   -0.0000 C   0  0  0  0  0  0  0  0  0  0  0  0
   -2.3967   -2.8641   -0.0000 C   0  0  0  0  0  0  0  0  0  0  0  0
   -2.4207    1.7017   -0.0000 C   0  0  0  0  0  0  0  0  0  0  0  0
   -3.7149   -0.5872   -0.0000 C   0  0  0  0  0  0  0  0  0  0  0  0
    0.2277   -4.3620   -0.0000 C   0  0  0  0  0  0  0  0  0  0  0  0
    1.5459   -2.0732   -0.0000 C   0  0  0  0  0  0  0  0  0  0  0  0
   -2.4087   -4.3740   -0.0000 C   0  0  0  0  0  0  0  0  0  0  0  0
   -1.1145    2.4806   -0.0000 N   0  0  0  0  0  0  0  0  0  0  0  0
   -3.7509    2.4686   -0.0000 C   0  0  0  0  0  0  0  0  0  0  0  0
   -5.0451    0.1798   -0.0000 C   0  0  0  0  0  0  0  0  0  0  0  0
   -1.1025   -5.1170   -0.0000 O   0  0  0  0  0  0  0  0  0  0  0  0
    2.8521   -2.8162   -0.0000 C   0  0  0  0  0  0  0  0  0  0  0  0
    0.2517    1.8694   -0.0000 N   0  0  0  0  0  0  0  0  0  0  0  0
   -0.9946    3.9905   -0.0000 N   0  0  0  0  0  0  0  0  0  0  0  0
   -5.0691    1.7137   -0.0000 C   0  0  0  0  0  0  0  0  0  0  0  0
    2.8401   -4.3261   -0.0000 C   0  0  0  0  0  0  0  0  0  0  0  0
    4.1583   -2.0492   -0.0000 C   0  0  0  0  0  0  0  0  0  0  0  0
    1.2463    3.0199   -0.0000 C   0  0  0  0  0  0  0  0  0  0  0  0
    0.4793    4.3261   -0.0000 C   0  0  0  0  0  0  0  0  0  0  0  0
    4.1463   -5.0691   -0.0000 C   0  0  0  0  0  0  0  0  0  0  0  0
    5.4645   -2.7922   -0.0000 C   0  0  0  0  0  0  0  0  0  0  0  0
    5.4525   -4.3021   -0.0000 C   0  0  0  0  0  0  0  0  0  0  0  0
    4.1343   -6.5790   -0.0000 C   0  0  0  0  0  0  0  0  0  0  0  0
    6.7588   -5.0451   -0.0000 O   0  0  0  0  0  0  0  0  0  0  0  0
    5.4406   -7.3220   -0.0000 N   0  0  0  0  0  0  0  0  0  0  0  0
    2.8042   -7.3340   -0.0000 C   0  0  0  0  0  0  0  0  0  0  0  0
    7.8013   -4.4220   -0.0000 C   0  0  0  0  0  0  0  0  0  0  0  0
    5.4286   -8.8319   -0.0000 C   0  0  0  0  0  0  0  0  0  0  0  0
    2.7922   -8.8439   -0.0000 C   0  0  0  0  0  0  0  0  0  0  0  0
    4.0984   -9.5869   -0.0000 C   0  0  0  0  0  0  0  0  0  0  0  0
  1  2  2  0  0  0  0
  2  3  1  0  0  0  0
  2  4  1  0  0  0  0
  3  5  1  0  0  0  0
  3  6  1  0  0  0  0
  4  7  2  0  0  0  0
  4  8  1  0  0  0  0
  5  9  1  0  0  0  0
  5 10  1  6  0  0  0
  6 11  1  0  0  0  0
  7 12  1  0  0  0  0
  7 13  1  0  0  0  0
  8 14  2  0  0  0  0
  9 15  1  0  0  0  0
 10 16  1  0  0  0  0
 12 17  1  0  0  0  0
 12 18  1  0  0  0  0
 13 19  2  0  0  0  0
 16 20  2  0  0  0  0
 16 21  1  0  0  0  0
 17 22  2  0  0  0  0
 18 23  2  0  0  0  0
 20 24  1  0  0  0  0
 21 25  2  0  0  0  0
 24 26  2  0  0  0  0
 24 27  1  0  0  0  0
 26 28  1  0  0  0  0
 27 29  2  0  0  0  0
 27 30  1  0  0  0  0
 28 31  1  0  0  0  0
 29 32  1  0  0  0  0
 30 33  2  0  0  0  0
 32 34  2  0  0  0  0
 11 15  1  0  0  0  0
 14 19  1  0  0  0  0
 22 23  1  0  0  0  0
 25 26  1  0  0  0  0
 33 34  1  0  0  0  0
M  END
>  <MolRegNo>
2115912

>  <m>
=

>  <Value>
21000

>  <Unit>
nM

>  <Type>
IC50

>  <pValue>
4.68

>  <Ligand Efficiency>
0.19

>  <Binding Efficiency>
10.27

>  <Surface Efficiency>
5.68

>  <Assay Index>
1058329

>  <Assay Category>


>  <Assay Organism>
Homo sapiens

>  <Target ID>
17045

>  <Target Name>
Cytochrome P450 3A4

>  <Target Organism>
Homo sapiens

>  <Target Description>
Target is a single protein chain

>  <Sequence Accession>
P08684

>  <Reference>


>  <Pubmed ID>


>  <DOI>


$$$$
2129691
Actelion Java MolfileCreator 1.0

 34 38  0  0  1  0  0  0  0  0999 V2000
    0.0000   -0.0000   -0.0000 O   0  0  0  0  0  0  0  0  0  0  0  0
   -1.0665   -0.5992   -0.0000 C   0  0  0  0  0  0  0  0  0  0  0  0
   -1.0665   -2.1091   -0.0000 N   0  0  0  0  0  0  0  0  0  0  0  0
   -2.3967    0.1678   -0.0000 C   0  0  0  0  0  0  0  0  0  0  0  0
    0.2397   -2.8521   -0.0000 C   0  0  0  0  0  0  0  0  0  0  0  0
   -2.3967   -2.8641   -0.0000 C   0  0  0  0  0  0  0  0  0  0  0  0
   -2.4207    1.7017   -0.0000 C   0  0  0  0  0  0  0  0  0  0  0  0
   -3.7149   -0.5872   -0.0000 C   0  0  0  0  0  0  0  0  0  0  0  0
    0.2277   -4.3620   -0.0000 C   0  0  0  0  0  0  0  0  0  0  0  0
    1.5459   -2.0732   -0.0000 C   0  0  0  0  0  0  0  0  0  0  0  0
   -2.4087   -4.3740   -0.0000 C   0  0  0  0  0  0  0  0  0  0  0  0
   -1.1145    2.4806   -0.0000 N   0  0  0  0  0  0  0  0  0  0  0  0
   -3.7509    2.4686   -0.0000 C   0  0  0  0  0  0  0  0  0  0  0  0
   -5.0451    0.1798   -0.0000 C   0  0  0  0  0  0  0  0  0  0  0  0
   -1.1025   -5.1170   -0.0000 O   0  0  0  0  0  0  0  0  0  0  0  0
    2.8521   -2.8162   -0.0000 C   0  0  0  0  0  0  0  0  0  0  0  0
    0.2517    1.8694   -0.0000 N   0  0  0  0  0  0  0  0  0  0  0  0
   -0.9946    3.9905   -0.0000 N   0  0  0  0  0  0  0  0  0  0  0  0
   -5.0691    1.7137   -0.0000 C   0  0  0  0  0  0  0  0  0  0  0  0
    2.8401   -4.3261   -0.0000 C   0  0  0  0  0  0  0  0  0  0  0  0
    4.1583   -2.0492   -0.0000 C   0  0  0  0  0  0  0  0  0  0  0  0
    1.2463    3.0199   -0.0000 C   0  0  0  0  0  0  0  0  0  0  0  0
    0.4793    4.3261   -0.0000 C   0  0  0  0  0  0  0  0  0  0  0  0
    4.1463   -5.0691   -0.0000 C   0  0  0  0  0  0  0  0  0  0  0  0
    5.4645   -2.7922   -0.0000 C   0  0  0  0  0  0  0  0  0  0  0  0
    5.4525   -4.3021   -0.0000 C   0  0  0  0  0  0  0  0  0  0  0  0
    4.1343   -6.5790   -0.0000 C   0  0  0  0  0  0  0  0  0  0  0  0
    6.7588   -5.0451   -0.0000 O   0  0  0  0  0  0  0  0  0  0  0  0
    5.4406   -7.3220   -0.0000 C   0  0  0  0  0  0  0  0  0  0  0  0
    2.8042   -7.3340   -0.0000 C   0  0  0  0  0  0  0  0  0  0  0  0
    7.8013   -4.4220   -0.0000 C   0  0  0  0  0  0  0  0  0  0  0  0
    5.4286   -8.8319   -0.0000 N   0  0  0  0  0  0  0  0  0  0  0  0
    2.7922   -8.8439   -0.0000 C   0  0  0  0  0  0  0  0  0  0  0  0
    4.0984   -9.5869   -0.0000 C   0  0  0  0  0  0  0  0  0  0  0  0
  1  2  2  0  0  0  0
  2  3  1  0  0  0  0
  2  4  1  0  0  0  0
  3  5  1  0  0  0  0
  3  6  1  0  0  0  0
  4  7  2  0  0  0  0
  4  8  1  0  0  0  0
  5  9  1  0  0  0  0
  5 10  1  6  0  0  0
  6 11  1  0  0  0  0
  7 12  1  0  0  0  0
  7 13  1  0  0  0  0
  8 14  2  0  0  0  0
  9 15  1  0  0  0  0
 10 16  1  0  0  0  0
 12 17  1  0  0  0  0
 12 18  1  0  0  0  0
 13 19  2  0  0  0  0
 16 20  2  0  0  0  0
 16 21  1  0  0  0  0
 17 22  2  0  0  0  0
 18 23  2  0  0  0  0
 20 24  1  0  0  0  0
 21 25  2  0  0  0  0
 24 26  2  0  0  0  0
 24 27  1  0  0  0  0
 26 28  1  0  0  0  0
 27 29  2  0  0  0  0
 27 30  1  0  0  0  0
 28 31  1  0  0  0  0
 29 32  1  0  0  0  0
 30 33  2  0  0  0  0
 32 34  2  0  0  0  0
 11 15  1  0  0  0  0
 14 19  1  0  0  0  0
 22 23  1  0  0  0  0
 25 26  1  0  0  0  0
 33 34  1  0  0  0  0
M  END
>  <MolRegNo>
2129691

>  <m>
=

>  <Value>
1200

>  <Unit>
nM

>  <Type>
IC50

>  <pValue>
5.92

>  <Ligand Efficiency>
0.24

>  <Binding Efficiency>
13

>  <Surface Efficiency>
7.19

>  <Assay Index>
1058329

>  <Assay Category>


>  <Assay Organism>
Homo sapiens

>  <Target ID>
17045

>  <Target Name>
Cytochrome P450 3A4

>  <Target Organism>
Homo sapiens

>  <Target Description>
Target is a single protein chain

>  <Sequence Accession>
P08684

>  <Reference>


>  <Pubmed ID>


>  <DOI>


$$$$
2132003
Actelion Java MolfileCreator 1.0

 34 38  0  0  1  0  0  0  0  0999 V2000
    0.0000   -0.0000   -0.0000 O   0  0  0  0  0  0  0  0  0  0  0  0
   -1.0665   -0.5992   -0.0000 C   0  0  0  0  0  0  0  0  0  0  0  0
   -1.0665   -2.1091   -0.0000 N   0  0  0  0  0  0  0  0  0  0  0  0
   -2.3967    0.1678   -0.0000 C   0  0  0  0  0  0  0  0  0  0  0  0
    0.2397   -2.8521   -0.0000 C   0  0  0  0  0  0  0  0  0  0  0  0
   -2.3967   -2.8641   -0.0000 C   0  0  0  0  0  0  0  0  0  0  0  0
   -2.4207    1.7017   -0.0000 C   0  0  0  0  0  0  0  0  0  0  0  0
   -3.7149   -0.5872   -0.0000 C   0  0  0  0  0  0  0  0  0  0  0  0
    0.2277   -4.3620   -0.0000 C   0  0  0  0  0  0  0  0  0  0  0  0
    1.5459   -2.0732   -0.0000 C   0  0  0  0  0  0  0  0  0  0  0  0
   -2.4087   -4.3740   -0.0000 C   0  0  0  0  0  0  0  0  0  0  0  0
   -1.1145    2.4806   -0.0000 N   0  0  0  0  0  0  0  0  0  0  0  0
   -3.7509    2.4686   -0.0000 C   0  0  0  0  0  0  0  0  0  0  0  0
   -5.0451    0.1798   -0.0000 C   0  0  0  0  0  0  0  0  0  0  0  0
   -1.1025   -5.1170   -0.0000 O   0  0  0  0  0  0  0  0  0  0  0  0
    2.8521   -2.8162   -0.0000 C   0  0  0  0  0  0  0  0  0  0  0  0
    0.2517    1.8694   -0.0000 N   0  0  0  0  0  0  0  0  0  0  0  0
   -0.9946    3.9905   -0.0000 N   0  0  0  0  0  0  0  0  0  0  0  0
   -5.0691    1.7137   -0.0000 C   0  0  0  0  0  0  0  0  0  0  0  0
    2.8401   -4.3261   -0.0000 C   0  0  0  0  0  0  0  0  0  0  0  0
    4.1583   -2.0492   -0.0000 C   0  0  0  0  0  0  0  0  0  0  0  0
    1.2463    3.0199   -0.0000 C   0  0  0  0  0  0  0  0  0  0  0  0
    0.4793    4.3261   -0.0000 C   0  0  0  0  0  0  0  0  0  0  0  0
    4.1463   -5.0691   -0.0000 C   0  0  0  0  0  0  0  0  0  0  0  0
    5.4645   -2.7922   -0.0000 C   0  0  0  0  0  0  0  0  0  0  0  0
    5.4525   -4.3021   -0.0000 C   0  0  0  0  0  0  0  0  0  0  0  0
    4.1343   -6.5790   -0.0000 C   0  0  0  0  0  0  0  0  0  0  0  0
    6.7588   -5.0451   -0.0000 O   0  0  0  0  0  0  0  0  0  0  0  0
    5.4406   -7.3220   -0.0000 N   0  0  0  0  0  0  0  0  0  0  0  0
    2.8042   -7.3340   -0.0000 C   0  0  0  0  0  0  0  0  0  0  0  0
    7.8013   -4.4220   -0.0000 C   0  0  0  0  0  0  0  0  0  0  0  0
    5.4286   -8.8319   -0.0000 C   0  0  0  0  0  0  0  0  0  0  0  0
    2.7922   -8.8439   -0.0000 N   0  0  0  0  0  0  0  0  0  0  0  0
    4.0984   -9.5869   -0.0000 C   0  0  0  0  0  0  0  0  0  0  0  0
  1  2  2  0  0  0  0
  2  3  1  0  0  0  0
  2  4  1  0  0  0  0
  3  5  1  0  0  0  0
  3  6  1  0  0  0  0
  4  7  2  0  0  0  0
  4  8  1  0  0  0  0
  5  9  1  0  0  0  0
  5 10  1  6  0  0  0
  6 11  1  0  0  0  0
  7 12  1  0  0  0  0
  7 13  1  0  0  0  0
  8 14  2  0  0  0  0
  9 15  1  0  0  0  0
 10 16  1  0  0  0  0
 12 17  1  0  0  0  0
 12 18  1  0  0  0  0
 13 19  2  0  0  0  0
 16 20  2  0  0  0  0
 16 21  1  0  0  0  0
 17 22  2  0  0  0  0
 18 23  2  0  0  0  0
 20 24  1  0  0  0  0
 21 25  2  0  0  0  0
 24 26  2  0  0  0  0
 24 27  1  0  0  0  0
 26 28  1  0  0  0  0
 27 29  2  0  0  0  0
 27 30  1  0  0  0  0
 28 31  1  0  0  0  0
 29 32  1  0  0  0  0
 30 33  2  0  0  0  0
 32 34  2  0  0  0  0
 11 15  1  0  0  0  0
 14 19  1  0  0  0  0
 22 23  1  0  0  0  0
 25 26  1  0  0  0  0
 33 34  1  0  0  0  0
M  END
>  <MolRegNo>
2132003

>  <m>
=

>  <Value>
26000

>  <Unit>
nM

>  <Type>
IC50

>  <pValue>
4.58

>  <Ligand Efficiency>
0.18

>  <Binding Efficiency>
10.04

>  <Surface Efficiency>
4.81

>  <Assay Index>
1058329

>  <Assay Category>


>  <Assay Organism>
Homo sapiens

>  <Target ID>
17045

>  <Target Name>
Cytochrome P450 3A4

>  <Target Organism>
Homo sapiens

>  <Target Description>
Target is a single protein chain

>  <Sequence Accession>
P08684

>  <Reference>


>  <Pubmed ID>


>  <DOI>


$$$$
2121747
Actelion Java MolfileCreator 1.0

 33 37  0  0  1  0  0  0  0  0999 V2000
    0.0000   -0.0000   -0.0000 S   0  0  0  0  0  0  0  0  0  0  0  0
   -1.2397    0.8821   -0.0000 C   0  0  0  0  0  0  0  0  0  0  0  0
   -0.4768   -1.4304   -0.0000 C   0  0  0  0  0  0  0  0  0  0  0  0
   -2.4793    0.0238   -0.0000 N   0  0  0  0  0  0  0  0  0  0  0  0
   -1.2516    2.4078   -0.0000 C   0  0  0  0  0  0  0  0  0  0  0  0
   -2.0025   -1.4184   -0.0000 C   0  0  0  0  0  0  0  0  0  0  0  0
    0.0477    3.1706   -0.0000 C   0  0  0  0  0  0  0  0  0  0  0  0
   -2.5747    3.1706   -0.0000 C   0  0  0  0  0  0  0  0  0  0  0  0
    1.3469    2.4316   -0.0000 O   0  0  0  0  0  0  0  0  0  0  0  0
    0.0358    4.6964   -0.0000 C   0  0  0  0  0  0  0  0  0  0  0  0
   -2.5866    4.6964   -0.0000 C   0  0  0  0  0  0  0  0  0  0  0  0
    2.3839    3.0515   -0.0000 C   0  0  0  0  0  0  0  0  0  0  0  0
   -1.2873    5.4592   -0.0000 C   0  0  0  0  0  0  0  0  0  0  0  0
   -3.9097    5.4592   -0.0000 C   0  0  0  0  0  0  0  0  0  0  0  0
   -5.2328    4.7083   -0.0000 C   0  0  0  0  0  0  0  0  0  0  0  0
   -6.5559    5.4712   -0.0000 N   0  0  0  0  0  0  0  0  0  0  0  0
   -5.2447    3.2064   -0.0000 C   0  0  0  0  0  0  0  0  0  0  0  0
   -6.5797    6.9969   -0.0000 C   0  0  0  0  0  0  0  0  0  0  0  0
   -7.8789    4.7202   -0.0000 C   0  0  0  0  0  0  0  0  0  0  0  0
   -6.5678    2.4555   -0.0000 O   0  0  0  0  0  0  0  0  0  0  0  0
   -5.5427    7.6167   -0.0000 O   0  0  0  0  0  0  0  0  0  0  0  0
   -7.9028    7.7597   -0.0000 C   0  0  0  0  0  0  0  0  0  0  0  0
   -7.8909    3.2183   -0.0000 C   0  0  0  0  0  0  0  0  0  0  0  0
   -7.9266    9.2855   -0.0000 C   0  0  0  0  0  0  0  0  0  0  0  0
   -9.2140    7.0088   -0.0000 C   0  0  0  0  0  0  0  0  0  0  0  0
   -6.6274   10.0603   -0.0000 N   0  0  0  0  0  0  0  0  0  0  0  0
   -9.2497   10.0483   -0.0000 C   0  0  0  0  0  0  0  0  0  0  0  0
  -10.5370    7.7717   -0.0000 C   0  0  0  0  0  0  0  0  0  0  0  0
   -5.2685    9.4523   -0.0000 N   0  0  0  0  0  0  0  0  0  0  0  0
   -6.5082   11.5621   -0.0000 N   0  0  0  0  0  0  0  0  0  0  0  0
  -10.5609    9.2974   -0.0000 C   0  0  0  0  0  0  0  0  0  0  0  0
   -4.2792   10.5966   -0.0000 C   0  0  0  0  0  0  0  0  0  0  0  0
   -5.0420   11.8959   -0.0000 C   0  0  0  0  0  0  0  0  0  0  0  0
  1  2  1  0  0  0  0
  1  3  1  0  0  0  0
  2  4  2  0  0  0  0
  2  5  1  0  0  0  0
  3  6  2  0  0  0  0
  5  7  2  0  0  0  0
  5  8  1  0  0  0  0
  7  9  1  0  0  0  0
  7 10  1  0  0  0  0
  8 11  2  0  0  0  0
  9 12  1  0  0  0  0
 10 13  2  0  0  0  0
 11 14  1  0  0  0  0
 15 14  1  6  0  0  0
 15 16  1  0  0  0  0
 15 17  1  0  0  0  0
 16 18  1  0  0  0  0
 16 19  1  0  0  0  0
 17 20  1  0  0  0  0
 18 21  2  0  0  0  0
 18 22  1  0  0  0  0
 19 23  1  0  0  0  0
 22 24  2  0  0  0  0
 22 25  1  0  0  0  0
 24 26  1  0  0  0  0
 24 27  1  0  0  0  0
 25 28  2  0  0  0  0
 26 29  1  0  0  0  0
 26 30  1  0  0  0  0
 27 31  2  0  0  0  0
 29 32  2  0  0  0  0
 30 33  2  0  0  0  0
  4  6  1  0  0  0  0
 11 13  1  0  0  0  0
 20 23  1  0  0  0  0
 28 31  1  0  0  0  0
 32 33  1  0  0  0  0
M  END
>  <MolRegNo>
2121747

>  <m>
=

>  <Value>
3200

>  <Unit>
nM

>  <Type>
IC50

>  <pValue>
5.5

>  <Ligand Efficiency>
0.23

>  <Binding Efficiency>
11.91

>  <Surface Efficiency>
6.67

>  <Assay Index>
1058329

>  <Assay Category>


>  <Assay Organism>
Homo sapiens

>  <Target ID>
17045

>  <Target Name>
Cytochrome P450 3A4

>  <Target Organism>
Homo sapiens

>  <Target Description>
Target is a single protein chain

>  <Sequence Accession>
P08684

>  <Reference>


>  <Pubmed ID>


>  <DOI>


$$$$
2155782
Actelion Java MolfileCreator 1.0

 33 37  0  0  1  0  0  0  0  0999 V2000
    0.0000   -0.0000   -0.0000 O   0  0  0  0  0  0  0  0  0  0  0  0
   -1.0668   -0.5993   -0.0000 C   0  0  0  0  0  0  0  0  0  0  0  0
   -1.0668   -2.1097   -0.0000 N   0  0  0  0  0  0  0  0  0  0  0  0
   -2.3973    0.1678   -0.0000 C   0  0  0  0  0  0  0  0  0  0  0  0
    0.2397   -2.8528   -0.0000 C   0  0  0  0  0  0  0  0  0  0  0  0
   -2.3973   -2.8648   -0.0000 C   0  0  0  0  0  0  0  0  0  0  0  0
   -2.4213    1.7021   -0.0000 C   0  0  0  0  0  0  0  0  0  0  0  0
   -3.7159   -0.5873   -0.0000 C   0  0  0  0  0  0  0  0  0  0  0  0
    0.2277   -4.3632   -0.0000 C   0  0  0  0  0  0  0  0  0  0  0  0
    1.5463   -2.0737   -0.0000 C   0  0  0  0  0  0  0  0  0  0  0  0
   -2.4093   -4.3751   -0.0000 C   0  0  0  0  0  0  0  0  0  0  0  0
   -1.1148    2.4812   -0.0000 N   0  0  0  0  0  0  0  0  0  0  0  0
   -3.7518    2.4693   -0.0000 C   0  0  0  0  0  0  0  0  0  0  0  0
   -5.0464    0.1798   -0.0000 C   0  0  0  0  0  0  0  0  0  0  0  0
   -1.1028   -5.1183   -0.0000 O   0  0  0  0  0  0  0  0  0  0  0  0
    2.8528   -2.8169   -0.0000 C   0  0  0  0  0  0  0  0  0  0  0  0
    0.2517    1.8699   -0.0000 N   0  0  0  0  0  0  0  0  0  0  0  0
   -0.9949    3.9916   -0.0000 N   0  0  0  0  0  0  0  0  0  0  0  0
   -5.0704    1.7141   -0.0000 C   0  0  0  0  0  0  0  0  0  0  0  0
    2.8409   -4.3272   -0.0000 C   0  0  0  0  0  0  0  0  0  0  0  0
    4.1594   -2.0497   -0.0000 C   0  0  0  0  0  0  0  0  0  0  0  0
    1.2466    3.0207   -0.0000 C   0  0  0  0  0  0  0  0  0  0  0  0
    0.4795    4.3272   -0.0000 C   0  0  0  0  0  0  0  0  0  0  0  0
    4.1474   -5.0704   -0.0000 C   0  0  0  0  0  0  0  0  0  0  0  0
    5.4659   -2.7929   -0.0000 C   0  0  0  0  0  0  0  0  0  0  0  0
    5.4540   -4.3032   -0.0000 C   0  0  0  0  0  0  0  0  0  0  0  0
    4.1354   -6.5807   -0.0000 C   0  0  0  0  0  0  0  0  0  0  0  0
    6.7605   -5.0464   -0.0000 O   0  0  0  0  0  0  0  0  0  0  0  0
    2.8888   -7.4437   -0.0000 O   0  0  0  0  0  0  0  0  0  0  0  0
    5.3581   -7.4437   -0.0000 N   0  0  0  0  0  0  0  0  0  0  0  0
    7.8033   -4.4231   -0.0000 C   0  0  0  0  0  0  0  0  0  0  0  0
    3.3443   -8.8822   -0.0000 C   0  0  0  0  0  0  0  0  0  0  0  0
    4.8786   -8.8822   -0.0000 C   0  0  0  0  0  0  0  0  0  0  0  0
  1  2  2  0  0  0  0
  2  3  1  0  0  0  0
  2  4  1  0  0  0  0
  3  5  1  0  0  0  0
  3  6  1  0  0  0  0
  4  7  2  0  0  0  0
  4  8  1  0  0  0  0
  5  9  1  0  0  0  0
  5 10  1  6  0  0  0
  6 11  1  0  0  0  0
  7 12  1  0  0  0  0
  7 13  1  0  0  0  0
  8 14  2  0  0  0  0
  9 15  1  0  0  0  0
 10 16  1  0  0  0  0
 12 17  1  0  0  0  0
 12 18  1  0  0  0  0
 13 19  2  0  0  0  0
 16 20  2  0  0  0  0
 16 21  1  0  0  0  0
 17 22  2  0  0  0  0
 18 23  2  0  0  0  0
 20 24  1  0  0  0  0
 21 25  2  0  0  0  0
 24 26  2  0  0  0  0
 24 27  1  0  0  0  0
 26 28  1  0  0  0  0
 27 29  1  0  0  0  0
 27 30  2  0  0  0  0
 28 31  1  0  0  0  0
 29 32  1  0  0  0  0
 30 33  1  0  0  0  0
 11 15  1  0  0  0  0
 14 19  1  0  0  0  0
 22 23  1  0  0  0  0
 25 26  1  0  0  0  0
 32 33  2  0  0  0  0
M  END
>  <MolRegNo>
2155782

>  <m>
=

>  <Value>
8400

>  <Unit>
nM

>  <Type>
IC50

>  <pValue>
5.08

>  <Ligand Efficiency>
0.21

>  <Binding Efficiency>
11.39

>  <Surface Efficiency>
5.31

>  <Assay Index>
1058329

>  <Assay Category>


>  <Assay Organism>
Homo sapiens

>  <Target ID>
17045

>  <Target Name>
Cytochrome P450 3A4

>  <Target Organism>
Homo sapiens

>  <Target Description>
Target is a single protein chain

>  <Sequence Accession>
P08684

>  <Reference>


>  <Pubmed ID>


>  <DOI>


$$$$
2161052
Actelion Java MolfileCreator 1.0

 32 36  0  0  1  0  0  0  0  0999 V2000
    0.0000   -0.0000   -0.0000 O   0  0  0  0  0  0  0  0  0  0  0  0
    1.0422   -0.5990   -0.0000 C   0  0  0  0  0  0  0  0  0  0  0  0
    1.0303   -2.1085   -0.0000 N   0  0  0  0  0  0  0  0  0  0  0  0
    2.3481    0.1797   -0.0000 C   0  0  0  0  0  0  0  0  0  0  0  0
   -0.2995   -2.8632   -0.0000 C   0  0  0  0  0  0  0  0  0  0  0  0
    2.3361   -2.8512   -0.0000 C   0  0  0  0  0  0  0  0  0  0  0  0
    2.3361    1.7131   -0.0000 C   0  0  0  0  0  0  0  0  0  0  0  0
    3.6539   -0.5631   -0.0000 C   0  0  0  0  0  0  0  0  0  0  0  0
   -0.3115   -4.3727   -0.0000 C   0  0  0  0  0  0  0  0  0  0  0  0
   -1.6293   -2.0965   -0.0000 C   0  0  0  0  0  0  0  0  0  0  0  0
    2.3241   -4.3607   -0.0000 C   0  0  0  0  0  0  0  0  0  0  0  0
    1.0063    2.4798   -0.0000 N   0  0  0  0  0  0  0  0  0  0  0  0
    3.6419    2.4798   -0.0000 C   0  0  0  0  0  0  0  0  0  0  0  0
    4.9597    0.2037   -0.0000 C   0  0  0  0  0  0  0  0  0  0  0  0
    0.9943   -5.1154   -0.0000 O   0  0  0  0  0  0  0  0  0  0  0  0
   -2.9590   -2.8512   -0.0000 C   0  0  0  0  0  0  0  0  0  0  0  0
    0.8506    3.9893   -0.0000 N   0  0  0  0  0  0  0  0  0  0  0  0
   -0.3714    1.8569   -0.0000 N   0  0  0  0  0  0  0  0  0  0  0  0
    4.9477    1.7371   -0.0000 C   0  0  0  0  0  0  0  0  0  0  0  0
    6.0019   -0.3953   -0.0000 C   0  0  0  0  0  0  0  0  0  0  0  0
   -2.9590   -4.3607   -0.0000 C   0  0  0  0  0  0  0  0  0  0  0  0
   -4.2888   -2.0845   -0.0000 C   0  0  0  0  0  0  0  0  0  0  0  0
   -0.6469    4.3128   -0.0000 C   0  0  0  0  0  0  0  0  0  0  0  0
   -1.4016    2.9950   -0.0000 C   0  0  0  0  0  0  0  0  0  0  0  0
   -4.2768   -5.1154   -0.0000 C   0  0  0  0  0  0  0  0  0  0  0  0
   -5.6066   -2.8392   -0.0000 C   0  0  0  0  0  0  0  0  0  0  0  0
   -4.2768   -6.6249   -0.0000 N   0  0  0  0  0  0  0  0  0  0  0  0
   -5.6066   -4.3487   -0.0000 C   0  0  0  0  0  0  0  0  0  0  0  0
   -5.5107   -7.4994   -0.0000 N   0  0  0  0  0  0  0  0  0  0  0  0
   -3.0549   -7.4754   -0.0000 N   0  0  0  0  0  0  0  0  0  0  0  0
   -5.0435   -8.9250   -0.0000 C   0  0  0  0  0  0  0  0  0  0  0  0
   -3.5221   -8.9130   -0.0000 C   0  0  0  0  0  0  0  0  0  0  0  0
  1  2  2  0  0  0  0
  2  3  1  0  0  0  0
  2  4  1  0  0  0  0
  3  5  1  0  0  0  0
  3  6  1  0  0  0  0
  4  7  2  0  0  0  0
  4  8  1  0  0  0  0
  5  9  1  0  0  0  0
  5 10  1  1  0  0  0
  6 11  1  0  0  0  0
  7 12  1  0  0  0  0
  7 13  1  0  0  0  0
  8 14  2  0  0  0  0
  9 15  1  0  0  0  0
 10 16  1  0  0  0  0
 12 17  1  0  0  0  0
 12 18  1  0  0  0  0
 13 19  2  0  0  0  0
 14 20  1  0  0  0  0
 16 21  2  0  0  0  0
 16 22  1  0  0  0  0
 17 23  2  0  0  0  0
 18 24  2  0  0  0  0
 21 25  1  0  0  0  0
 22 26  2  0  0  0  0
 25 27  1  0  0  0  0
 25 28  2  0  0  0  0
 27 29  1  0  0  0  0
 27 30  1  0  0  0  0
 29 31  2  0  0  0  0
 30 32  2  0  0  0  0
 11 15  1  0  0  0  0
 14 19  1  0  0  0  0
 23 24  1  0  0  0  0
 26 28  1  0  0  0  0
 31 32  1  0  0  0  0
M  END
>  <MolRegNo>
2161052

>  <m>
=

>  <Value>
43000

>  <Unit>
nM

>  <Type>
IC50

>  <pValue>
4.37

>  <Ligand Efficiency>
0.19

>  <Binding Efficiency>
10.17

>  <Surface Efficiency>
4.8

>  <Assay Index>
1058329

>  <Assay Category>


>  <Assay Organism>
Homo sapiens

>  <Target ID>
17045

>  <Target Name>
Cytochrome P450 3A4

>  <Target Organism>
Homo sapiens

>  <Target Description>
Target is a single protein chain

>  <Sequence Accession>
P08684

>  <Reference>


>  <Pubmed ID>


>  <DOI>


$$$$
2110717
Actelion Java MolfileCreator 1.0

 31 35  0  0  1  0  0  0  0  0999 V2000
    0.0000   -0.0000   -0.0000 O   0  0  0  0  0  0  0  0  0  0  0  0
   -0.0119    1.2231   -0.0000 C   0  0  0  0  0  0  0  0  0  0  0  0
   -1.3300    1.9831   -0.0000 N   0  0  0  0  0  0  0  0  0  0  0  0
    1.2825    1.9949   -0.0000 C   0  0  0  0  0  0  0  0  0  0  0  0
   -2.6480    1.2468   -0.0000 C   0  0  0  0  0  0  0  0  0  0  0  0
   -1.3418    3.5030   -0.0000 C   0  0  0  0  0  0  0  0  0  0  0  0
    2.5768    1.2587   -0.0000 C   0  0  0  0  0  0  0  0  0  0  0  0
    1.2706    3.5149   -0.0000 C   0  0  0  0  0  0  0  0  0  0  0  0
   -3.9661    2.0068   -0.0000 C   0  0  0  0  0  0  0  0  0  0  0  0
   -2.6599   -0.2494   -0.0000 C   0  0  0  0  0  0  0  0  0  0  0  0
   -2.6599    4.2630   -0.0000 C   0  0  0  0  0  0  0  0  0  0  0  0
    2.5649   -0.2375   -0.0000 N   0  0  0  0  0  0  0  0  0  0  0  0
    3.8711    2.0306   -0.0000 C   0  0  0  0  0  0  0  0  0  0  0  0
    2.5649    4.2868   -0.0000 C   0  0  0  0  0  0  0  0  0  0  0  0
   -3.9780    3.5268   -0.0000 O   0  0  0  0  0  0  0  0  0  0  0  0
   -3.9780   -0.9856   -0.0000 C   0  0  0  0  0  0  0  0  0  0  0  0
    1.3418   -1.0925   -0.0000 N   0  0  0  0  0  0  0  0  0  0  0  0
    3.7761   -1.0806   -0.0000 N   0  0  0  0  0  0  0  0  0  0  0  0
    3.8593    3.5505   -0.0000 C   0  0  0  0  0  0  0  0  0  0  0  0
   -5.2961   -0.2137   -0.0000 C   0  0  0  0  0  0  0  0  0  0  0  0
   -3.9899   -2.4818   -0.0000 C   0  0  0  0  0  0  0  0  0  0  0  0
    1.8049   -2.5174   -0.0000 C   0  0  0  0  0  0  0  0  0  0  0  0
    3.3012   -2.5056   -0.0000 C   0  0  0  0  0  0  0  0  0  0  0  0
   -6.6142   -0.9500   -0.0000 C   0  0  0  0  0  0  0  0  0  0  0  0
   -5.3080   -3.2180   -0.0000 C   0  0  0  0  0  0  0  0  0  0  0  0
   -7.9323   -0.1781   -0.0000 N   0  0  0  0  0  0  0  0  0  0  0  0
   -6.6261   -2.4462   -0.0000 C   0  0  0  0  0  0  0  0  0  0  0  0
   -9.3097   -0.7837   -0.0000 N   0  0  0  0  0  0  0  0  0  0  0  0
   -8.0748    1.3181   -0.0000 N   0  0  0  0  0  0  0  0  0  0  0  0
  -10.3191    0.3562   -0.0000 C   0  0  0  0  0  0  0  0  0  0  0  0
   -9.5591    1.6506   -0.0000 C   0  0  0  0  0  0  0  0  0  0  0  0
  1  2  2  0  0  0  0
  2  3  1  0  0  0  0
  2  4  1  0  0  0  0
  3  5  1  0  0  0  0
  3  6  1  0  0  0  0
  4  7  2  0  0  0  0
  4  8  1  0  0  0  0
  5  9  1  0  0  0  0
  5 10  1  6  0  0  0
  6 11  1  0  0  0  0
  7 12  1  0  0  0  0
  7 13  1  0  0  0  0
  8 14  2  0  0  0  0
  9 15  1  0  0  0  0
 10 16  1  0  0  0  0
 12 17  1  0  0  0  0
 12 18  1  0  0  0  0
 13 19  2  0  0  0  0
 16 20  2  0  0  0  0
 16 21  1  0  0  0  0
 17 22  2  0  0  0  0
 18 23  2  0  0  0  0
 20 24  1  0  0  0  0
 21 25  2  0  0  0  0
 24 26  1  0  0  0  0
 24 27  2  0  0  0  0
 26 28  1  0  0  0  0
 26 29  1  0  0  0  0
 28 30  2  0  0  0  0
 29 31  2  0  0  0  0
 11 15  1  0  0  0  0
 14 19  1  0  0  0  0
 22 23  1  0  0  0  0
 25 27  1  0  0  0  0
 30 31  1  0  0  0  0
M  END
>  <MolRegNo>
2110717

>  <m>
=

>  <Value>
30000

>  <Unit>
nM

>  <Type>
IC50

>  <pValue>
4.52

>  <Ligand Efficiency>
0.2

>  <Binding Efficiency>
10.89

>  <Surface Efficiency>
4.97

>  <Assay Index>
1058329

>  <Assay Category>


>  <Assay Organism>
Homo sapiens

>  <Target ID>
17045

>  <Target Name>
Cytochrome P450 3A4

>  <Target Organism>
Homo sapiens

>  <Target Description>
Target is a single protein chain

>  <Sequence Accession>
P08684

>  <Reference>


>  <Pubmed ID>


>  <DOI>


$$$$
2184117
Actelion Java MolfileCreator 1.0

 32 36  0  0  1  0  0  0  0  0999 V2000
    0.0000   -0.0000   -0.0000 O   0  0  0  0  0  0  0  0  0  0  0  0
    1.0422   -0.5990   -0.0000 C   0  0  0  0  0  0  0  0  0  0  0  0
    1.0303   -2.1085   -0.0000 N   0  0  0  0  0  0  0  0  0  0  0  0
    2.3481    0.1797   -0.0000 C   0  0  0  0  0  0  0  0  0  0  0  0
   -0.2995   -2.8632   -0.0000 C   0  0  0  0  0  0  0  0  0  0  0  0
    2.3361   -2.8512   -0.0000 C   0  0  0  0  0  0  0  0  0  0  0  0
    2.3361    1.7131   -0.0000 C   0  0  0  0  0  0  0  0  0  0  0  0
    3.6539   -0.5631   -0.0000 C   0  0  0  0  0  0  0  0  0  0  0  0
   -0.3115   -4.3727   -0.0000 C   0  0  0  0  0  0  0  0  0  0  0  0
   -1.6293   -2.0965   -0.0000 C   0  0  0  0  0  0  0  0  0  0  0  0
    2.3241   -4.3607   -0.0000 C   0  0  0  0  0  0  0  0  0  0  0  0
    1.0063    2.4798   -0.0000 N   0  0  0  0  0  0  0  0  0  0  0  0
    3.6419    2.4798   -0.0000 C   0  0  0  0  0  0  0  0  0  0  0  0
    4.9597    0.2037   -0.0000 C   0  0  0  0  0  0  0  0  0  0  0  0
    0.9943   -5.1154   -0.0000 O   0  0  0  0  0  0  0  0  0  0  0  0
   -2.9590   -2.8512   -0.0000 C   0  0  0  0  0  0  0  0  0  0  0  0
    0.8506    3.9893   -0.0000 N   0  0  0  0  0  0  0  0  0  0  0  0
   -0.3714    1.8569   -0.0000 N   0  0  0  0  0  0  0  0  0  0  0  0
    4.9477    1.7371   -0.0000 C   0  0  0  0  0  0  0  0  0  0  0  0
    6.0019   -0.3953   -0.0000 C   0  0  0  0  0  0  0  0  0  0  0  0
   -2.9590   -4.3607   -0.0000 C   0  0  0  0  0  0  0  0  0  0  0  0
   -4.2888   -2.0845   -0.0000 C   0  0  0  0  0  0  0  0  0  0  0  0
   -0.6469    4.3128   -0.0000 C   0  0  0  0  0  0  0  0  0  0  0  0
   -1.4016    2.9950   -0.0000 C   0  0  0  0  0  0  0  0  0  0  0  0
   -4.2768   -5.1154   -0.0000 C   0  0  0  0  0  0  0  0  0  0  0  0
   -5.6066   -2.8392   -0.0000 C   0  0  0  0  0  0  0  0  0  0  0  0
   -4.2768   -6.6249   -0.0000 N   0  0  0  0  0  0  0  0  0  0  0  0
   -5.6066   -4.3487   -0.0000 C   0  0  0  0  0  0  0  0  0  0  0  0
   -3.0549   -7.4754   -0.0000 N   0  0  0  0  0  0  0  0  0  0  0  0
   -5.5107   -7.4994   -0.0000 C   0  0  0  0  0  0  0  0  0  0  0  0
   -3.5221   -8.9130   -0.0000 N   0  0  0  0  0  0  0  0  0  0  0  0
   -5.0435   -8.9250   -0.0000 C   0  0  0  0  0  0  0  0  0  0  0  0
  1  2  2  0  0  0  0
  2  3  1  0  0  0  0
  2  4  1  0  0  0  0
  3  5  1  0  0  0  0
  3  6  1  0  0  0  0
  4  7  2  0  0  0  0
  4  8  1  0  0  0  0
  5  9  1  0  0  0  0
  5 10  1  1  0  0  0
  6 11  1  0  0  0  0
  7 12  1  0  0  0  0
  7 13  1  0  0  0  0
  8 14  2  0  0  0  0
  9 15  1  0  0  0  0
 10 16  1  0  0  0  0
 12 17  1  0  0  0  0
 12 18  1  0  0  0  0
 13 19  2  0  0  0  0
 14 20  1  0  0  0  0
 16 21  2  0  0  0  0
 16 22  1  0  0  0  0
 17 23  2  0  0  0  0
 18 24  2  0  0  0  0
 21 25  1  0  0  0  0
 22 26  2  0  0  0  0
 25 27  1  0  0  0  0
 25 28  2  0  0  0  0
 27 29  1  0  0  0  0
 27 30  1  0  0  0  0
 29 31  2  0  0  0  0
 30 32  2  0  0  0  0
 11 15  1  0  0  0  0
 14 19  1  0  0  0  0
 23 24  1  0  0  0  0
 26 28  1  0  0  0  0
 31 32  1  0  0  0  0
M  END
>  <MolRegNo>
2184117

>  <m>
=

>  <Value>
14000

>  <Unit>
nM

>  <Type>
IC50

>  <pValue>
4.85

>  <Ligand Efficiency>
0.21

>  <Binding Efficiency>
11.3

>  <Surface Efficiency>
5.34

>  <Assay Index>
1058329

>  <Assay Category>


>  <Assay Organism>
Homo sapiens

>  <Target ID>
17045

>  <Target Name>
Cytochrome P450 3A4

>  <Target Organism>
Homo sapiens

>  <Target Description>
Target is a single protein chain

>  <Sequence Accession>
P08684

>  <Reference>


>  <Pubmed ID>


>  <DOI>


$$$$
2141923
Actelion Java MolfileCreator 1.0

 31 35  0  0  1  0  0  0  0  0999 V2000
    0.0000   -0.0000   -0.0000 O   0  0  0  0  0  0  0  0  0  0  0  0
   -0.0119    1.2231   -0.0000 C   0  0  0  0  0  0  0  0  0  0  0  0
   -1.3300    1.9831   -0.0000 N   0  0  0  0  0  0  0  0  0  0  0  0
    1.2825    1.9949   -0.0000 C   0  0  0  0  0  0  0  0  0  0  0  0
   -2.6480    1.2468   -0.0000 C   0  0  0  0  0  0  0  0  0  0  0  0
   -1.3418    3.5030   -0.0000 C   0  0  0  0  0  0  0  0  0  0  0  0
    2.5768    1.2587   -0.0000 C   0  0  0  0  0  0  0  0  0  0  0  0
    1.2706    3.5149   -0.0000 C   0  0  0  0  0  0  0  0  0  0  0  0
   -3.9661    2.0068   -0.0000 C   0  0  0  0  0  0  0  0  0  0  0  0
   -2.6599   -0.2494   -0.0000 C   0  0  0  0  0  0  0  0  0  0  0  0
   -2.6599    4.2630   -0.0000 C   0  0  0  0  0  0  0  0  0  0  0  0
    2.5649   -0.2375   -0.0000 N   0  0  0  0  0  0  0  0  0  0  0  0
    3.8711    2.0306   -0.0000 C   0  0  0  0  0  0  0  0  0  0  0  0
    2.5649    4.2868   -0.0000 C   0  0  0  0  0  0  0  0  0  0  0  0
   -3.9780    3.5268   -0.0000 O   0  0  0  0  0  0  0  0  0  0  0  0
   -3.9780   -0.9856   -0.0000 C   0  0  0  0  0  0  0  0  0  0  0  0
    1.3418   -1.0925   -0.0000 N   0  0  0  0  0  0  0  0  0  0  0  0
    3.7761   -1.0806   -0.0000 N   0  0  0  0  0  0  0  0  0  0  0  0
    3.8593    3.5505   -0.0000 C   0  0  0  0  0  0  0  0  0  0  0  0
   -5.2961   -0.2137   -0.0000 C   0  0  0  0  0  0  0  0  0  0  0  0
   -3.9899   -2.4818   -0.0000 C   0  0  0  0  0  0  0  0  0  0  0  0
    1.8049   -2.5174   -0.0000 C   0  0  0  0  0  0  0  0  0  0  0  0
    3.3012   -2.5056   -0.0000 C   0  0  0  0  0  0  0  0  0  0  0  0
   -6.6142   -0.9500   -0.0000 C   0  0  0  0  0  0  0  0  0  0  0  0
   -5.3080   -3.2180   -0.0000 C   0  0  0  0  0  0  0  0  0  0  0  0
   -7.9323   -0.1781   -0.0000 N   0  0  0  0  0  0  0  0  0  0  0  0
   -6.6261   -2.4462   -0.0000 C   0  0  0  0  0  0  0  0  0  0  0  0
   -8.0748    1.3181   -0.0000 N   0  0  0  0  0  0  0  0  0  0  0  0
   -9.3097   -0.7837   -0.0000 C   0  0  0  0  0  0  0  0  0  0  0  0
   -9.5591    1.6506   -0.0000 C   0  0  0  0  0  0  0  0  0  0  0  0
  -10.3191    0.3562   -0.0000 C   0  0  0  0  0  0  0  0  0  0  0  0
  1  2  2  0  0  0  0
  2  3  1  0  0  0  0
  2  4  1  0  0  0  0
  3  5  1  0  0  0  0
  3  6  1  0  0  0  0
  4  7  2  0  0  0  0
  4  8  1  0  0  0  0
  5  9  1  0  0  0  0
  5 10  1  6  0  0  0
  6 11  1  0  0  0  0
  7 12  1  0  0  0  0
  7 13  1  0  0  0  0
  8 14  2  0  0  0  0
  9 15  1  0  0  0  0
 10 16  1  0  0  0  0
 12 17  1  0  0  0  0
 12 18  1  0  0  0  0
 13 19  2  0  0  0  0
 16 20  2  0  0  0  0
 16 21  1  0  0  0  0
 17 22  2  0  0  0  0
 18 23  2  0  0  0  0
 20 24  1  0  0  0  0
 21 25  2  0  0  0  0
 24 26  1  0  0  0  0
 24 27  2  0  0  0  0
 26 28  1  0  0  0  0
 26 29  1  0  0  0  0
 28 30  2  0  0  0  0
 29 31  2  0  0  0  0
 11 15  1  0  0  0  0
 14 19  1  0  0  0  0
 22 23  1  0  0  0  0
 25 27  1  0  0  0  0
 30 31  1  0  0  0  0
M  END
>  <MolRegNo>
2141923

>  <m>
=

>  <Value>
43000

>  <Unit>
nM

>  <Type>
IC50

>  <pValue>
4.37

>  <Ligand Efficiency>
0.19

>  <Binding Efficiency>
10.54

>  <Surface Efficiency>
5.59

>  <Assay Index>
1058329

>  <Assay Category>


>  <Assay Organism>
Homo sapiens

>  <Target ID>
17045

>  <Target Name>
Cytochrome P450 3A4

>  <Target Organism>
Homo sapiens

>  <Target Description>
Target is a single protein chain

>  <Sequence Accession>
P08684

>  <Reference>


>  <Pubmed ID>


>  <DOI>


$$$$
2131982
Actelion Java MolfileCreator 1.0

 33 37  0  0  1  0  0  0  0  0999 V2000
    0.0000   -0.0000   -0.0000 O   0  0  0  0  0  0  0  0  0  0  0  0
    1.0418   -0.5987   -0.0000 C   0  0  0  0  0  0  0  0  0  0  0  0
    1.0298   -2.1075   -0.0000 N   0  0  0  0  0  0  0  0  0  0  0  0
    2.3470    0.1796   -0.0000 C   0  0  0  0  0  0  0  0  0  0  0  0
   -0.2994   -2.8618   -0.0000 C   0  0  0  0  0  0  0  0  0  0  0  0
    2.3350   -2.8499   -0.0000 C   0  0  0  0  0  0  0  0  0  0  0  0
    2.3350    1.7123   -0.0000 C   0  0  0  0  0  0  0  0  0  0  0  0
    3.6521   -0.5628   -0.0000 C   0  0  0  0  0  0  0  0  0  0  0  0
   -0.3113   -4.3706   -0.0000 C   0  0  0  0  0  0  0  0  0  0  0  0
   -1.6285   -2.0955   -0.0000 C   0  0  0  0  0  0  0  0  0  0  0  0
    2.3230   -4.3586   -0.0000 C   0  0  0  0  0  0  0  0  0  0  0  0
    1.0058    2.4787   -0.0000 N   0  0  0  0  0  0  0  0  0  0  0  0
    3.6402    2.4787   -0.0000 C   0  0  0  0  0  0  0  0  0  0  0  0
    4.9573    0.2036   -0.0000 C   0  0  0  0  0  0  0  0  0  0  0  0
    0.9939   -5.1130   -0.0000 O   0  0  0  0  0  0  0  0  0  0  0  0
   -2.9576   -2.8499   -0.0000 C   0  0  0  0  0  0  0  0  0  0  0  0
    0.8502    3.9874   -0.0000 N   0  0  0  0  0  0  0  0  0  0  0  0
   -0.3712    1.8560   -0.0000 N   0  0  0  0  0  0  0  0  0  0  0  0
    4.9454    1.7363   -0.0000 C   0  0  0  0  0  0  0  0  0  0  0  0
    5.9991   -0.3951   -0.0000 C   0  0  0  0  0  0  0  0  0  0  0  0
   -2.9576   -4.3586   -0.0000 C   0  0  0  0  0  0  0  0  0  0  0  0
   -4.2868   -2.0835   -0.0000 C   0  0  0  0  0  0  0  0  0  0  0  0
   -0.6466    4.3107   -0.0000 C   0  0  0  0  0  0  0  0  0  0  0  0
   -1.4010    2.9936   -0.0000 C   0  0  0  0  0  0  0  0  0  0  0  0
   -4.2748   -5.1130   -0.0000 C   0  0  0  0  0  0  0  0  0  0  0  0
   -5.6039   -2.8379   -0.0000 C   0  0  0  0  0  0  0  0  0  0  0  0
   -4.2748   -6.6218   -0.0000 C   0  0  0  0  0  0  0  0  0  0  0  0
   -5.6039   -4.3466   -0.0000 C   0  0  0  0  0  0  0  0  0  0  0  0
   -5.5920   -7.3761   -0.0000 N   0  0  0  0  0  0  0  0  0  0  0  0
   -2.9696   -7.3642   -0.0000 N   0  0  0  0  0  0  0  0  0  0  0  0
   -5.5920   -8.8849   -0.0000 C   0  0  0  0  0  0  0  0  0  0  0  0
   -2.9696   -8.8729   -0.0000 C   0  0  0  0  0  0  0  0  0  0  0  0
   -4.2868   -9.6273   -0.0000 C   0  0  0  0  0  0  0  0  0  0  0  0
  1  2  2  0  0  0  0
  2  3  1  0  0  0  0
  2  4  1  0  0  0  0
  3  5  1  0  0  0  0
  3  6  1  0  0  0  0
  4  7  2  0  0  0  0
  4  8  1  0  0  0  0
  5  9  1  0  0  0  0
  5 10  1  1  0  0  0
  6 11  1  0  0  0  0
  7 12  1  0  0  0  0
  7 13  1  0  0  0  0
  8 14  2  0  0  0  0
  9 15  1  0  0  0  0
 10 16  1  0  0  0  0
 12 17  1  0  0  0  0
 12 18  1  0  0  0  0
 13 19  2  0  0  0  0
 14 20  1  0  0  0  0
 16 21  2  0  0  0  0
 16 22  1  0  0  0  0
 17 23  2  0  0  0  0
 18 24  2  0  0  0  0
 21 25  1  0  0  0  0
 22 26  2  0  0  0  0
 25 27  1  0  0  0  0
 25 28  2  0  0  0  0
 27 29  2  0  0  0  0
 27 30  1  0  0  0  0
 29 31  1  0  0  0  0
 30 32  2  0  0  0  0
 31 33  2  0  0  0  0
 11 15  1  0  0  0  0
 14 19  1  0  0  0  0
 23 24  1  0  0  0  0
 26 28  1  0  0  0  0
 32 33  1  0  0  0  0
M  END
>  <MolRegNo>
2131982

>  <m>
=

>  <Value>
33000

>  <Unit>
nM

>  <Type>
IC50

>  <pValue>
4.48

>  <Ligand Efficiency>
0.19

>  <Binding Efficiency>
10.17

>  <Surface Efficiency>
5.21

>  <Assay Index>
1058329

>  <Assay Category>


>  <Assay Organism>
Homo sapiens

>  <Target ID>
17045

>  <Target Name>
Cytochrome P450 3A4

>  <Target Organism>
Homo sapiens

>  <Target Description>
Target is a single protein chain

>  <Sequence Accession>
P08684

>  <Reference>


>  <Pubmed ID>


>  <DOI>


$$$$
2171426
Actelion Java MolfileCreator 1.0

 32 36  0  0  1  0  0  0  0  0999 V2000
    0.0000   -0.0000   -0.0000 O   0  0  0  0  0  0  0  0  0  0  0  0
   -0.0119    1.2217   -0.0000 C   0  0  0  0  0  0  0  0  0  0  0  0
   -1.3284    1.9808   -0.0000 N   0  0  0  0  0  0  0  0  0  0  0  0
    1.2810    1.9927   -0.0000 C   0  0  0  0  0  0  0  0  0  0  0  0
   -2.6450    1.2454   -0.0000 C   0  0  0  0  0  0  0  0  0  0  0  0
   -1.3403    3.4990   -0.0000 C   0  0  0  0  0  0  0  0  0  0  0  0
    2.5738    1.2573   -0.0000 C   0  0  0  0  0  0  0  0  0  0  0  0
    1.2691    3.5109   -0.0000 C   0  0  0  0  0  0  0  0  0  0  0  0
   -3.9616    2.0045   -0.0000 C   0  0  0  0  0  0  0  0  0  0  0  0
   -2.6569   -0.2491   -0.0000 C   0  0  0  0  0  0  0  0  0  0  0  0
   -2.6569    4.2581   -0.0000 C   0  0  0  0  0  0  0  0  0  0  0  0
    2.5620   -0.2372   -0.0000 N   0  0  0  0  0  0  0  0  0  0  0  0
    3.8667    2.0282   -0.0000 C   0  0  0  0  0  0  0  0  0  0  0  0
    2.5620    4.2818   -0.0000 C   0  0  0  0  0  0  0  0  0  0  0  0
   -3.9734    3.5227   -0.0000 O   0  0  0  0  0  0  0  0  0  0  0  0
   -3.9734   -0.9845   -0.0000 C   0  0  0  0  0  0  0  0  0  0  0  0
    1.3403   -1.0912   -0.0000 N   0  0  0  0  0  0  0  0  0  0  0  0
    3.7718   -1.0794   -0.0000 N   0  0  0  0  0  0  0  0  0  0  0  0
    3.8548    3.5465   -0.0000 C   0  0  0  0  0  0  0  0  0  0  0  0
   -5.2900   -0.2135   -0.0000 C   0  0  0  0  0  0  0  0  0  0  0  0
   -3.9853   -2.4790   -0.0000 C   0  0  0  0  0  0  0  0  0  0  0  0
    1.8029   -2.5145   -0.0000 C   0  0  0  0  0  0  0  0  0  0  0  0
    3.2974   -2.5027   -0.0000 C   0  0  0  0  0  0  0  0  0  0  0  0
   -6.6066   -0.9489   -0.0000 C   0  0  0  0  0  0  0  0  0  0  0  0
   -5.3019   -3.2143   -0.0000 C   0  0  0  0  0  0  0  0  0  0  0  0
   -7.9232   -0.1779   -0.0000 C   0  0  0  0  0  0  0  0  0  0  0  0
   -6.6185   -2.4434   -0.0000 C   0  0  0  0  0  0  0  0  0  0  0  0
   -9.2398   -0.9133   -0.0000 N   0  0  0  0  0  0  0  0  0  0  0  0
   -7.9232    1.3403   -0.0000 N   0  0  0  0  0  0  0  0  0  0  0  0
  -10.5563   -0.1423   -0.0000 C   0  0  0  0  0  0  0  0  0  0  0  0
   -9.2398    2.1113   -0.0000 C   0  0  0  0  0  0  0  0  0  0  0  0
  -10.5563    1.3759   -0.0000 C   0  0  0  0  0  0  0  0  0  0  0  0
  1  2  2  0  0  0  0
  2  3  1  0  0  0  0
  2  4  1  0  0  0  0
  3  5  1  0  0  0  0
  3  6  1  0  0  0  0
  4  7  2  0  0  0  0
  4  8  1  0  0  0  0
  5  9  1  0  0  0  0
  5 10  1  6  0  0  0
  6 11  1  0  0  0  0
  7 12  1  0  0  0  0
  7 13  1  0  0  0  0
  8 14  2  0  0  0  0
  9 15  1  0  0  0  0
 10 16  1  0  0  0  0
 12 17  1  0  0  0  0
 12 18  1  0  0  0  0
 13 19  2  0  0  0  0
 16 20  2  0  0  0  0
 16 21  1  0  0  0  0
 17 22  2  0  0  0  0
 18 23  2  0  0  0  0
 20 24  1  0  0  0  0
 21 25  2  0  0  0  0
 24 26  1  0  0  0  0
 24 27  2  0  0  0  0
 26 28  2  0  0  0  0
 26 29  1  0  0  0  0
 28 30  1  0  0  0  0
 29 31  2  0  0  0  0
 30 32  2  0  0  0  0
 11 15  1  0  0  0  0
 14 19  1  0  0  0  0
 22 23  1  0  0  0  0
 25 27  1  0  0  0  0
 31 32  1  0  0  0  0
M  END
>  <MolRegNo>
2171426

>  <m>
=

>  <Value>
39000

>  <Unit>
nM

>  <Type>
IC50

>  <pValue>
4.41

>  <Ligand Efficiency>
0.19

>  <Binding Efficiency>
10.34

>  <Surface Efficiency>
5.12

>  <Assay Index>
1058329

>  <Assay Category>


>  <Assay Organism>
Homo sapiens

>  <Target ID>
17045

>  <Target Name>
Cytochrome P450 3A4

>  <Target Organism>
Homo sapiens

>  <Target Description>
Target is a single protein chain

>  <Sequence Accession>
P08684

>  <Reference>


>  <Pubmed ID>


>  <DOI>


$$$$
2191525
Actelion Java MolfileCreator 1.0

 32 36  0  0  1  0  0  0  0  0999 V2000
    0.0000   -0.0000   -0.0000 O   0  0  0  0  0  0  0  0  0  0  0  0
    1.0422   -0.5990   -0.0000 C   0  0  0  0  0  0  0  0  0  0  0  0
    1.0303   -2.1085   -0.0000 N   0  0  0  0  0  0  0  0  0  0  0  0
    2.3481    0.1797   -0.0000 C   0  0  0  0  0  0  0  0  0  0  0  0
   -0.2995   -2.8632   -0.0000 C   0  0  0  0  0  0  0  0  0  0  0  0
    2.3361   -2.8512   -0.0000 C   0  0  0  0  0  0  0  0  0  0  0  0
    2.3361    1.7131   -0.0000 C   0  0  0  0  0  0  0  0  0  0  0  0
    3.6539   -0.5631   -0.0000 C   0  0  0  0  0  0  0  0  0  0  0  0
   -0.3115   -4.3727   -0.0000 C   0  0  0  0  0  0  0  0  0  0  0  0
   -1.6293   -2.0965   -0.0000 C   0  0  0  0  0  0  0  0  0  0  0  0
    2.3241   -4.3607   -0.0000 C   0  0  0  0  0  0  0  0  0  0  0  0
    1.0063    2.4798   -0.0000 N   0  0  0  0  0  0  0  0  0  0  0  0
    3.6419    2.4798   -0.0000 C   0  0  0  0  0  0  0  0  0  0  0  0
    4.9597    0.2037   -0.0000 C   0  0  0  0  0  0  0  0  0  0  0  0
    0.9943   -5.1154   -0.0000 O   0  0  0  0  0  0  0  0  0  0  0  0
   -2.9590   -2.8512   -0.0000 C   0  0  0  0  0  0  0  0  0  0  0  0
    0.8506    3.9893   -0.0000 N   0  0  0  0  0  0  0  0  0  0  0  0
   -0.3714    1.8569   -0.0000 N   0  0  0  0  0  0  0  0  0  0  0  0
    4.9477    1.7371   -0.0000 C   0  0  0  0  0  0  0  0  0  0  0  0
    6.0019   -0.3953   -0.0000 C   0  0  0  0  0  0  0  0  0  0  0  0
   -2.9590   -4.3607   -0.0000 C   0  0  0  0  0  0  0  0  0  0  0  0
   -4.2888   -2.0845   -0.0000 C   0  0  0  0  0  0  0  0  0  0  0  0
   -0.6469    4.3128   -0.0000 C   0  0  0  0  0  0  0  0  0  0  0  0
   -1.4016    2.9950   -0.0000 C   0  0  0  0  0  0  0  0  0  0  0  0
   -4.2768   -5.1154   -0.0000 C   0  0  0  0  0  0  0  0  0  0  0  0
   -5.6066   -2.8392   -0.0000 C   0  0  0  0  0  0  0  0  0  0  0  0
   -4.2768   -6.6249   -0.0000 N   0  0  0  0  0  0  0  0  0  0  0  0
   -5.6066   -4.3487   -0.0000 C   0  0  0  0  0  0  0  0  0  0  0  0
   -3.0549   -7.4754   -0.0000 N   0  0  0  0  0  0  0  0  0  0  0  0
   -5.5107   -7.4994   -0.0000 C   0  0  0  0  0  0  0  0  0  0  0  0
   -3.5221   -8.9130   -0.0000 C   0  0  0  0  0  0  0  0  0  0  0  0
   -5.0435   -8.9250   -0.0000 C   0  0  0  0  0  0  0  0  0  0  0  0
  1  2  2  0  0  0  0
  2  3  1  0  0  0  0
  2  4  1  0  0  0  0
  3  5  1  0  0  0  0
  3  6  1  0  0  0  0
  4  7  2  0  0  0  0
  4  8  1  0  0  0  0
  5  9  1  0  0  0  0
  5 10  1  1  0  0  0
  6 11  1  0  0  0  0
  7 12  1  0  0  0  0
  7 13  1  0  0  0  0
  8 14  2  0  0  0  0
  9 15  1  0  0  0  0
 10 16  1  0  0  0  0
 12 17  1  0  0  0  0
 12 18  1  0  0  0  0
 13 19  2  0  0  0  0
 14 20  1  0  0  0  0
 16 21  2  0  0  0  0
 16 22  1  0  0  0  0
 17 23  2  0  0  0  0
 18 24  2  0  0  0  0
 21 25  1  0  0  0  0
 22 26  2  0  0  0  0
 25 27  1  0  0  0  0
 25 28  2  0  0  0  0
 27 29  1  0  0  0  0
 27 30  1  0  0  0  0
 29 31  2  0  0  0  0
 30 32  2  0  0  0  0
 11 15  1  0  0  0  0
 14 19  1  0  0  0  0
 23 24  1  0  0  0  0
 26 28  1  0  0  0  0
 31 32  1  0  0  0  0
M  END
>  <MolRegNo>
2191525

>  <m>
=

>  <Value>
32000

>  <Unit>
nM

>  <Type>
IC50

>  <pValue>
4.5

>  <Ligand Efficiency>
0.19

>  <Binding Efficiency>
10.49

>  <Surface Efficiency>
5.76

>  <Assay Index>
1058329

>  <Assay Category>


>  <Assay Organism>
Homo sapiens

>  <Target ID>
17045

>  <Target Name>
Cytochrome P450 3A4

>  <Target Organism>
Homo sapiens

>  <Target Description>
Target is a single protein chain

>  <Sequence Accession>
P08684

>  <Reference>


>  <Pubmed ID>


>  <DOI>


$$$$
2153156
Actelion Java MolfileCreator 1.0

 32 36  0  0  1  0  0  0  0  0999 V2000
    0.0000   -0.0000   -0.0000 F   0  0  0  0  0  0  0  0  0  0  0  0
   -1.0631    0.6211   -0.0000 C   0  0  0  0  0  0  0  0  0  0  0  0
   -2.3890   -0.1195   -0.0000 C   0  0  0  0  0  0  0  0  0  0  0  0
   -1.0751    2.1501   -0.0000 C   0  0  0  0  0  0  0  0  0  0  0  0
   -3.7149    0.6450   -0.0000 C   0  0  0  0  0  0  0  0  0  0  0  0
   -2.4010    2.9146   -0.0000 C   0  0  0  0  0  0  0  0  0  0  0  0
   -3.7269    2.1740   -0.0000 C   0  0  0  0  0  0  0  0  0  0  0  0
   -5.0408   -0.1075   -0.0000 C   0  0  0  0  0  0  0  0  0  0  0  0
   -5.0528    2.9385   -0.0000 N   0  0  0  0  0  0  0  0  0  0  0  0
   -6.1039    0.5136   -0.0000 O   0  0  0  0  0  0  0  0  0  0  0  0
   -5.0528   -1.6126   -0.0000 N   0  0  0  0  0  0  0  0  0  0  0  0
   -5.2081    4.4436   -0.0000 N   0  0  0  0  0  0  0  0  0  0  0  0
   -6.4265    2.3173   -0.0000 N   0  0  0  0  0  0  0  0  0  0  0  0
   -6.3787   -2.3651   -0.0000 C   0  0  0  0  0  0  0  0  0  0  0  0
   -3.7508   -2.3532   -0.0000 C   0  0  0  0  0  0  0  0  0  0  0  0
   -6.7012    4.7661   -0.0000 C   0  0  0  0  0  0  0  0  0  0  0  0
   -7.4537    3.4521   -0.0000 C   0  0  0  0  0  0  0  0  0  0  0  0
   -6.3906   -3.8702   -0.0000 C   0  0  0  0  0  0  0  0  0  0  0  0
   -7.7046   -1.6006   -0.0000 C   0  0  0  0  0  0  0  0  0  0  0  0
   -3.7627   -3.8583   -0.0000 C   0  0  0  0  0  0  0  0  0  0  0  0
   -5.0886   -4.6108   -0.0000 O   0  0  0  0  0  0  0  0  0  0  0  0
   -9.0305   -2.3532   -0.0000 C   0  0  0  0  0  0  0  0  0  0  0  0
   -9.0305   -3.8583   -0.0000 C   0  0  0  0  0  0  0  0  0  0  0  0
  -10.3564   -1.5887   -0.0000 C   0  0  0  0  0  0  0  0  0  0  0  0
  -10.3444   -4.6108   -0.0000 C   0  0  0  0  0  0  0  0  0  0  0  0
  -11.6703   -2.3412   -0.0000 C   0  0  0  0  0  0  0  0  0  0  0  0
  -10.3444   -6.1159   -0.0000 N   0  0  0  0  0  0  0  0  0  0  0  0
  -11.6703   -3.8463   -0.0000 C   0  0  0  0  0  0  0  0  0  0  0  0
   -9.1260   -6.9640   -0.0000 N   0  0  0  0  0  0  0  0  0  0  0  0
  -11.5748   -6.9879   -0.0000 C   0  0  0  0  0  0  0  0  0  0  0  0
   -9.5919   -8.3974   -0.0000 C   0  0  0  0  0  0  0  0  0  0  0  0
  -11.1089   -8.4093   -0.0000 C   0  0  0  0  0  0  0  0  0  0  0  0
  1  2  1  0  0  0  0
  2  3  2  0  0  0  0
  2  4  1  0  0  0  0
  3  5  1  0  0  0  0
  4  6  2  0  0  0  0
  5  7  2  0  0  0  0
  5  8  1  0  0  0  0
  7  9  1  0  0  0  0
  8 10  2  0  0  0  0
  8 11  1  0  0  0  0
  9 12  1  0  0  0  0
  9 13  1  0  0  0  0
 11 14  1  0  0  0  0
 11 15  1  0  0  0  0
 12 16  2  0  0  0  0
 13 17  2  0  0  0  0
 14 18  1  0  0  0  0
 14 19  1  1  0  0  0
 15 20  1  0  0  0  0
 18 21  1  0  0  0  0
 19 22  1  0  0  0  0
 22 23  2  0  0  0  0
 22 24  1  0  0  0  0
 23 25  1  0  0  0  0
 24 26  2  0  0  0  0
 25 27  1  0  0  0  0
 25 28  2  0  0  0  0
 27 29  1  0  0  0  0
 27 30  1  0  0  0  0
 29 31  2  0  0  0  0
 30 32  2  0  0  0  0
  6  7  1  0  0  0  0
 16 17  1  0  0  0  0
 20 21  1  0  0  0  0
 26 28  1  0  0  0  0
 31 32  1  0  0  0  0
M  END
>  <MolRegNo>
2153156

>  <m>
=

>  <Value>
25000

>  <Unit>
nM

>  <Type>
IC50

>  <pValue>
4.6

>  <Ligand Efficiency>
0.2

>  <Binding Efficiency>
10.64

>  <Surface Efficiency>
5.89

>  <Assay Index>
1058329

>  <Assay Category>


>  <Assay Organism>
Homo sapiens

>  <Target ID>
17045

>  <Target Name>
Cytochrome P450 3A4

>  <Target Organism>
Homo sapiens

>  <Target Description>
Target is a single protein chain

>  <Sequence Accession>
P08684

>  <Reference>


>  <Pubmed ID>


>  <DOI>


$$$$
2130667
Actelion Java MolfileCreator 1.0

 33 37  0  0  1  0  0  0  0  0999 V2000
    0.0000   -0.0000   -0.0000 F   0  0  0  0  0  0  0  0  0  0  0  0
   -0.0120    1.2375   -0.0000 C   0  0  0  0  0  0  0  0  0  0  0  0
   -1.3456    2.0064   -0.0000 C   0  0  0  0  0  0  0  0  0  0  0  0
    1.2975    2.0064   -0.0000 C   0  0  0  0  0  0  0  0  0  0  0  0
   -1.3576    3.5442   -0.0000 C   0  0  0  0  0  0  0  0  0  0  0  0
   -2.6792    1.2495   -0.0000 C   0  0  0  0  0  0  0  0  0  0  0  0
    1.2855    3.5442   -0.0000 C   0  0  0  0  0  0  0  0  0  0  0  0
    2.3428    1.4057   -0.0000 C   0  0  0  0  0  0  0  0  0  0  0  0
   -2.6912    4.3131   -0.0000 N   0  0  0  0  0  0  0  0  0  0  0  0
   -0.0481    4.3131   -0.0000 C   0  0  0  0  0  0  0  0  0  0  0  0
   -3.7485    1.8742   -0.0000 O   0  0  0  0  0  0  0  0  0  0  0  0
   -2.6912   -0.2643   -0.0000 N   0  0  0  0  0  0  0  0  0  0  0  0
   -2.8474    5.8270   -0.0000 N   0  0  0  0  0  0  0  0  0  0  0  0
   -4.0729    3.6884   -0.0000 N   0  0  0  0  0  0  0  0  0  0  0  0
   -4.0248   -1.0212   -0.0000 C   0  0  0  0  0  0  0  0  0  0  0  0
   -1.3816   -1.0092   -0.0000 C   0  0  0  0  0  0  0  0  0  0  0  0
   -4.3492    6.1513   -0.0000 C   0  0  0  0  0  0  0  0  0  0  0  0
   -5.1061    4.8298   -0.0000 C   0  0  0  0  0  0  0  0  0  0  0  0
   -4.0368   -2.5350   -0.0000 C   0  0  0  0  0  0  0  0  0  0  0  0
   -5.3584   -0.2523   -0.0000 C   0  0  0  0  0  0  0  0  0  0  0  0
   -1.3937   -2.5230   -0.0000 C   0  0  0  0  0  0  0  0  0  0  0  0
   -2.7273   -3.2799   -0.0000 O   0  0  0  0  0  0  0  0  0  0  0  0
   -6.6920   -1.0092   -0.0000 C   0  0  0  0  0  0  0  0  0  0  0  0
   -6.6920   -2.5230   -0.0000 C   0  0  0  0  0  0  0  0  0  0  0  0
   -8.0256   -0.2403   -0.0000 C   0  0  0  0  0  0  0  0  0  0  0  0
   -8.0136   -3.2799   -0.0000 C   0  0  0  0  0  0  0  0  0  0  0  0
   -9.3472   -0.9972   -0.0000 C   0  0  0  0  0  0  0  0  0  0  0  0
   -8.0136   -4.7937   -0.0000 N   0  0  0  0  0  0  0  0  0  0  0  0
   -9.3472   -2.5110   -0.0000 C   0  0  0  0  0  0  0  0  0  0  0  0
   -6.7881   -5.6467   -0.0000 N   0  0  0  0  0  0  0  0  0  0  0  0
   -9.2510   -5.6708   -0.0000 C   0  0  0  0  0  0  0  0  0  0  0  0
   -7.2567   -7.0885   -0.0000 C   0  0  0  0  0  0  0  0  0  0  0  0
   -8.7825   -7.1005   -0.0000 C   0  0  0  0  0  0  0  0  0  0  0  0
  1  2  1  0  0  0  0
  2  3  2  0  0  0  0
  2  4  1  0  0  0  0
  3  5  1  0  0  0  0
  3  6  1  0  0  0  0
  4  7  2  0  0  0  0
  4  8  1  0  0  0  0
  5  9  1  0  0  0  0
  5 10  2  0  0  0  0
  6 11  2  0  0  0  0
  6 12  1  0  0  0  0
  9 13  1  0  0  0  0
  9 14  1  0  0  0  0
 12 15  1  0  0  0  0
 12 16  1  0  0  0  0
 13 17  2  0  0  0  0
 14 18  2  0  0  0  0
 15 19  1  0  0  0  0
 15 20  1  1  0  0  0
 16 21  1  0  0  0  0
 19 22  1  0  0  0  0
 20 23  1  0  0  0  0
 23 24  2  0  0  0  0
 23 25  1  0  0  0  0
 24 26  1  0  0  0  0
 25 27  2  0  0  0  0
 26 28  1  0  0  0  0
 26 29  2  0  0  0  0
 28 30  1  0  0  0  0
 28 31  1  0  0  0  0
 30 32  2  0  0  0  0
 31 33  2  0  0  0  0
  7 10  1  0  0  0  0
 17 18  1  0  0  0  0
 21 22  1  0  0  0  0
 27 29  1  0  0  0  0
 32 33  1  0  0  0  0
M  END
>  <MolRegNo>
2130667

>  <m>
=

>  <Value>
20000

>  <Unit>
nM

>  <Type>
IC50

>  <pValue>
4.7

>  <Ligand Efficiency>
0.19

>  <Binding Efficiency>
10.52

>  <Surface Efficiency>
6.02

>  <Assay Index>
1058329

>  <Assay Category>


>  <Assay Organism>
Homo sapiens

>  <Target ID>
17045

>  <Target Name>
Cytochrome P450 3A4

>  <Target Organism>
Homo sapiens

>  <Target Description>
Target is a single protein chain

>  <Sequence Accession>
P08684

>  <Reference>


>  <Pubmed ID>


>  <DOI>


$$$$
2172081
Actelion Java MolfileCreator 1.0

 32 36  0  0  1  0  0  0  0  0999 V2000
    0.0000   -0.0000   -0.0000 O   0  0  0  0  0  0  0  0  0  0  0  0
    1.0389    0.6210   -0.0000 C   0  0  0  0  0  0  0  0  0  0  0  0
    1.0270    2.1495   -0.0000 N   0  0  0  0  0  0  0  0  0  0  0  0
    2.3406   -0.1314   -0.0000 C   0  0  0  0  0  0  0  0  0  0  0  0
   -0.2985    2.9258   -0.0000 C   0  0  0  0  0  0  0  0  0  0  0  0
    2.3287    2.9138   -0.0000 C   0  0  0  0  0  0  0  0  0  0  0  0
    2.3287   -1.6360   -0.0000 C   0  0  0  0  0  0  0  0  0  0  0  0
    3.6423    0.6329   -0.0000 C   0  0  0  0  0  0  0  0  0  0  0  0
   -0.3105    4.4543   -0.0000 C   0  0  0  0  0  0  0  0  0  0  0  0
   -1.6241    2.1854   -0.0000 C   0  0  0  0  0  0  0  0  0  0  0  0
    2.3167    4.4424   -0.0000 C   0  0  0  0  0  0  0  0  0  0  0  0
    1.0031   -2.3764   -0.0000 N   0  0  0  0  0  0  0  0  0  0  0  0
    3.6303   -2.3764   -0.0000 C   0  0  0  0  0  0  0  0  0  0  0  0
    4.9440   -0.1075   -0.0000 C   0  0  0  0  0  0  0  0  0  0  0  0
    0.9912    5.2186   -0.0000 O   0  0  0  0  0  0  0  0  0  0  0  0
   -2.9497    2.9616   -0.0000 C   0  0  0  0  0  0  0  0  0  0  0  0
   -0.3702   -1.7435   -0.0000 N   0  0  0  0  0  0  0  0  0  0  0  0
    0.8598   -3.8572   -0.0000 N   0  0  0  0  0  0  0  0  0  0  0  0
    4.9320   -1.6122   -0.0000 C   0  0  0  0  0  0  0  0  0  0  0  0
   -2.9497    4.4902   -0.0000 C   0  0  0  0  0  0  0  0  0  0  0  0
   -4.2752    2.2212   -0.0000 C   0  0  0  0  0  0  0  0  0  0  0  0
   -1.3972   -2.8541   -0.0000 C   0  0  0  0  0  0  0  0  0  0  0  0
   -0.6329   -4.1677   -0.0000 C   0  0  0  0  0  0  0  0  0  0  0  0
    5.9710   -2.2093   -0.0000 C   0  0  0  0  0  0  0  0  0  0  0  0
   -4.2633    5.2664   -0.0000 C   0  0  0  0  0  0  0  0  0  0  0  0
   -5.5888    2.9974   -0.0000 C   0  0  0  0  0  0  0  0  0  0  0  0
   -4.2633    6.7950   -0.0000 N   0  0  0  0  0  0  0  0  0  0  0  0
   -5.5888    4.5260   -0.0000 C   0  0  0  0  0  0  0  0  0  0  0  0
   -3.0452    7.6667   -0.0000 N   0  0  0  0  0  0  0  0  0  0  0  0
   -5.4933    7.6906   -0.0000 C   0  0  0  0  0  0  0  0  0  0  0  0
   -3.5109    9.1236   -0.0000 C   0  0  0  0  0  0  0  0  0  0  0  0
   -5.0275    9.1356   -0.0000 C   0  0  0  0  0  0  0  0  0  0  0  0
  1  2  2  0  0  0  0
  2  3  1  0  0  0  0
  2  4  1  0  0  0  0
  3  5  1  0  0  0  0
  3  6  1  0  0  0  0
  4  7  2  0  0  0  0
  4  8  1  0  0  0  0
  5  9  1  0  0  0  0
  5 10  1  6  0  0  0
  6 11  1  0  0  0  0
  7 12  1  0  0  0  0
  7 13  1  0  0  0  0
  8 14  2  0  0  0  0
  9 15  1  0  0  0  0
 10 16  1  0  0  0  0
 12 17  1  0  0  0  0
 12 18  1  0  0  0  0
 13 19  2  0  0  0  0
 16 20  2  0  0  0  0
 16 21  1  0  0  0  0
 17 22  2  0  0  0  0
 18 23  2  0  0  0  0
 19 24  1  0  0  0  0
 20 25  1  0  0  0  0
 21 26  2  0  0  0  0
 25 27  1  0  0  0  0
 25 28  2  0  0  0  0
 27 29  1  0  0  0  0
 27 30  1  0  0  0  0
 29 31  2  0  0  0  0
 30 32  2  0  0  0  0
 11 15  1  0  0  0  0
 14 19  1  0  0  0  0
 22 23  1  0  0  0  0
 26 28  1  0  0  0  0
 31 32  1  0  0  0  0
M  END
>  <MolRegNo>
2172081

>  <m>
=

>  <Value>
41000

>  <Unit>
nM

>  <Type>
IC50

>  <pValue>
4.39

>  <Ligand Efficiency>
0.19

>  <Binding Efficiency>
10.24

>  <Surface Efficiency>
5.62

>  <Assay Index>
1058329

>  <Assay Category>


>  <Assay Organism>
Homo sapiens

>  <Target ID>
17045

>  <Target Name>
Cytochrome P450 3A4

>  <Target Organism>
Homo sapiens

>  <Target Description>
Target is a single protein chain

>  <Sequence Accession>
P08684

>  <Reference>


>  <Pubmed ID>


>  <DOI>


$$$$
2143115
Actelion Java MolfileCreator 1.0

 32 36  0  0  1  0  0  0  0  0999 V2000
    0.0000   -0.0000   -0.0000 O   0  0  0  0  0  0  0  0  0  0  0  0
    1.0422   -0.5990   -0.0000 C   0  0  0  0  0  0  0  0  0  0  0  0
    1.0303   -2.1085   -0.0000 N   0  0  0  0  0  0  0  0  0  0  0  0
    2.3481    0.1797   -0.0000 C   0  0  0  0  0  0  0  0  0  0  0  0
   -0.2995   -2.8632   -0.0000 C   0  0  0  0  0  0  0  0  0  0  0  0
    2.3361   -2.8512   -0.0000 C   0  0  0  0  0  0  0  0  0  0  0  0
    2.3361    1.7131   -0.0000 C   0  0  0  0  0  0  0  0  0  0  0  0
    3.6539   -0.5631   -0.0000 C   0  0  0  0  0  0  0  0  0  0  0  0
   -0.3115   -4.3727   -0.0000 C   0  0  0  0  0  0  0  0  0  0  0  0
   -1.6293   -2.0965   -0.0000 C   0  0  0  0  0  0  0  0  0  0  0  0
    2.3241   -4.3607   -0.0000 C   0  0  0  0  0  0  0  0  0  0  0  0
    1.0063    2.4798   -0.0000 N   0  0  0  0  0  0  0  0  0  0  0  0
    3.6419    2.4798   -0.0000 C   0  0  0  0  0  0  0  0  0  0  0  0
    4.9597    0.2037   -0.0000 C   0  0  0  0  0  0  0  0  0  0  0  0
    0.9943   -5.1154   -0.0000 O   0  0  0  0  0  0  0  0  0  0  0  0
   -2.9590   -2.8512   -0.0000 C   0  0  0  0  0  0  0  0  0  0  0  0
    0.8506    3.9893   -0.0000 N   0  0  0  0  0  0  0  0  0  0  0  0
   -0.3714    1.8569   -0.0000 N   0  0  0  0  0  0  0  0  0  0  0  0
    4.9477    1.7371   -0.0000 C   0  0  0  0  0  0  0  0  0  0  0  0
    6.0019   -0.3953   -0.0000 C   0  0  0  0  0  0  0  0  0  0  0  0
   -2.9590   -4.3607   -0.0000 C   0  0  0  0  0  0  0  0  0  0  0  0
   -4.2888   -2.0845   -0.0000 C   0  0  0  0  0  0  0  0  0  0  0  0
   -0.6469    4.3128   -0.0000 C   0  0  0  0  0  0  0  0  0  0  0  0
   -1.4016    2.9950   -0.0000 C   0  0  0  0  0  0  0  0  0  0  0  0
   -4.2768   -5.1154   -0.0000 C   0  0  0  0  0  0  0  0  0  0  0  0
   -5.6066   -2.8392   -0.0000 C   0  0  0  0  0  0  0  0  0  0  0  0
   -4.2768   -6.6249   -0.0000 N   0  0  0  0  0  0  0  0  0  0  0  0
   -5.6066   -4.3487   -0.0000 C   0  0  0  0  0  0  0  0  0  0  0  0
   -3.0549   -7.4754   -0.0000 N   0  0  0  0  0  0  0  0  0  0  0  0
   -5.5107   -7.4994   -0.0000 C   0  0  0  0  0  0  0  0  0  0  0  0
   -3.5221   -8.9130   -0.0000 C   0  0  0  0  0  0  0  0  0  0  0  0
   -5.0435   -8.9250   -0.0000 N   0  0  0  0  0  0  0  0  0  0  0  0
  1  2  2  0  0  0  0
  2  3  1  0  0  0  0
  2  4  1  0  0  0  0
  3  5  1  0  0  0  0
  3  6  1  0  0  0  0
  4  7  2  0  0  0  0
  4  8  1  0  0  0  0
  5  9  1  0  0  0  0
  5 10  1  1  0  0  0
  6 11  1  0  0  0  0
  7 12  1  0  0  0  0
  7 13  1  0  0  0  0
  8 14  2  0  0  0  0
  9 15  1  0  0  0  0
 10 16  1  0  0  0  0
 12 17  1  0  0  0  0
 12 18  1  0  0  0  0
 13 19  2  0  0  0  0
 14 20  1  0  0  0  0
 16 21  2  0  0  0  0
 16 22  1  0  0  0  0
 17 23  2  0  0  0  0
 18 24  2  0  0  0  0
 21 25  1  0  0  0  0
 22 26  2  0  0  0  0
 25 27  1  0  0  0  0
 25 28  2  0  0  0  0
 27 29  1  0  0  0  0
 27 30  1  0  0  0  0
 29 31  2  0  0  0  0
 30 32  2  0  0  0  0
 11 15  1  0  0  0  0
 14 19  1  0  0  0  0
 23 24  1  0  0  0  0
 26 28  1  0  0  0  0
 31 32  1  0  0  0  0
M  END
>  <MolRegNo>
2143115

>  <m>
=

>  <Value>
6000

>  <Unit>
nM

>  <Type>
IC50

>  <pValue>
5.22

>  <Ligand Efficiency>
0.22

>  <Binding Efficiency>
12.16

>  <Surface Efficiency>
5.74

>  <Assay Index>
1058329

>  <Assay Category>


>  <Assay Organism>
Homo sapiens

>  <Target ID>
17045

>  <Target Name>
Cytochrome P450 3A4

>  <Target Organism>
Homo sapiens

>  <Target Description>
Target is a single protein chain

>  <Sequence Accession>
P08684

>  <Reference>


>  <Pubmed ID>


>  <DOI>


$$$$
2179355
Actelion Java MolfileCreator 1.0

 32 36  0  0  1  0  0  0  0  0999 V2000
    0.0000   -0.0000   -0.0000 F   0  0  0  0  0  0  0  0  0  0  0  0
   -1.0631    0.6211   -0.0000 C   0  0  0  0  0  0  0  0  0  0  0  0
   -2.3890   -0.1195   -0.0000 C   0  0  0  0  0  0  0  0  0  0  0  0
   -1.0751    2.1501   -0.0000 C   0  0  0  0  0  0  0  0  0  0  0  0
   -3.7149    0.6450   -0.0000 C   0  0  0  0  0  0  0  0  0  0  0  0
   -2.4010    2.9146   -0.0000 C   0  0  0  0  0  0  0  0  0  0  0  0
   -3.7269    2.1740   -0.0000 C   0  0  0  0  0  0  0  0  0  0  0  0
   -5.0408   -0.1075   -0.0000 C   0  0  0  0  0  0  0  0  0  0  0  0
   -5.0528    2.9385   -0.0000 N   0  0  0  0  0  0  0  0  0  0  0  0
   -6.1039    0.5136   -0.0000 O   0  0  0  0  0  0  0  0  0  0  0  0
   -5.0528   -1.6126   -0.0000 N   0  0  0  0  0  0  0  0  0  0  0  0
   -5.2081    4.4436   -0.0000 N   0  0  0  0  0  0  0  0  0  0  0  0
   -6.4265    2.3173   -0.0000 N   0  0  0  0  0  0  0  0  0  0  0  0
   -6.3787   -2.3651   -0.0000 C   0  0  0  0  0  0  0  0  0  0  0  0
   -3.7508   -2.3532   -0.0000 C   0  0  0  0  0  0  0  0  0  0  0  0
   -6.7012    4.7661   -0.0000 C   0  0  0  0  0  0  0  0  0  0  0  0
   -7.4537    3.4521   -0.0000 C   0  0  0  0  0  0  0  0  0  0  0  0
   -6.3906   -3.8702   -0.0000 C   0  0  0  0  0  0  0  0  0  0  0  0
   -7.7046   -1.6006   -0.0000 C   0  0  0  0  0  0  0  0  0  0  0  0
   -3.7627   -3.8583   -0.0000 C   0  0  0  0  0  0  0  0  0  0  0  0
   -5.0886   -4.6108   -0.0000 O   0  0  0  0  0  0  0  0  0  0  0  0
   -9.0305   -2.3532   -0.0000 C   0  0  0  0  0  0  0  0  0  0  0  0
   -9.0305   -3.8583   -0.0000 C   0  0  0  0  0  0  0  0  0  0  0  0
  -10.3564   -1.5887   -0.0000 C   0  0  0  0  0  0  0  0  0  0  0  0
  -10.3444   -4.6108   -0.0000 C   0  0  0  0  0  0  0  0  0  0  0  0
  -11.6703   -2.3412   -0.0000 C   0  0  0  0  0  0  0  0  0  0  0  0
  -10.3444   -6.1159   -0.0000 N   0  0  0  0  0  0  0  0  0  0  0  0
  -11.6703   -3.8463   -0.0000 C   0  0  0  0  0  0  0  0  0  0  0  0
  -11.5748   -6.9879   -0.0000 N   0  0  0  0  0  0  0  0  0  0  0  0
   -9.1260   -6.9640   -0.0000 N   0  0  0  0  0  0  0  0  0  0  0  0
  -11.1089   -8.4093   -0.0000 C   0  0  0  0  0  0  0  0  0  0  0  0
   -9.5919   -8.3974   -0.0000 C   0  0  0  0  0  0  0  0  0  0  0  0
  1  2  1  0  0  0  0
  2  3  2  0  0  0  0
  2  4  1  0  0  0  0
  3  5  1  0  0  0  0
  4  6  2  0  0  0  0
  5  7  2  0  0  0  0
  5  8  1  0  0  0  0
  7  9  1  0  0  0  0
  8 10  2  0  0  0  0
  8 11  1  0  0  0  0
  9 12  1  0  0  0  0
  9 13  1  0  0  0  0
 11 14  1  0  0  0  0
 11 15  1  0  0  0  0
 12 16  2  0  0  0  0
 13 17  2  0  0  0  0
 14 18  1  0  0  0  0
 14 19  1  1  0  0  0
 15 20  1  0  0  0  0
 18 21  1  0  0  0  0
 19 22  1  0  0  0  0
 22 23  2  0  0  0  0
 22 24  1  0  0  0  0
 23 25  1  0  0  0  0
 24 26  2  0  0  0  0
 25 27  1  0  0  0  0
 25 28  2  0  0  0  0
 27 29  1  0  0  0  0
 27 30  1  0  0  0  0
 29 31  2  0  0  0  0
 30 32  2  0  0  0  0
  6  7  1  0  0  0  0
 16 17  1  0  0  0  0
 20 21  1  0  0  0  0
 26 28  1  0  0  0  0
 31 32  1  0  0  0  0
M  END
>  <MolRegNo>
2179355

>  <m>
=

>  <Value>
24000

>  <Unit>
nM

>  <Type>
IC50

>  <pValue>
4.62

>  <Ligand Efficiency>
0.2

>  <Binding Efficiency>
10.66

>  <Surface Efficiency>
5.08

>  <Assay Index>
1058329

>  <Assay Category>


>  <Assay Organism>
Homo sapiens

>  <Target ID>
17045

>  <Target Name>
Cytochrome P450 3A4

>  <Target Organism>
Homo sapiens

>  <Target Description>
Target is a single protein chain

>  <Sequence Accession>
P08684

>  <Reference>


>  <Pubmed ID>


>  <DOI>


$$$$
2101740
Actelion Java MolfileCreator 1.0

 32 36  0  0  0  0  0  0  0  0999 V2000
    0.0000   -0.0000   -0.0000 O   0  0  0  0  0  0  0  0  0  0  0  0
   -0.0118   -1.4874   -0.0000 C   0  0  0  0  0  0  0  0  0  0  0  0
   -1.3221   -2.2193   -0.0000 N   0  0  0  0  0  0  0  0  0  0  0  0
    1.2749   -2.2193   -0.0000 C   0  0  0  0  0  0  0  0  0  0  0  0
   -2.6325   -1.4638   -0.0000 C   0  0  0  0  0  0  0  0  0  0  0  0
   -1.3339   -3.7067   -0.0000 C   0  0  0  0  0  0  0  0  0  0  0  0
    2.5617   -1.4638   -0.0000 C   0  0  0  0  0  0  0  0  0  0  0  0
    1.2631   -3.7067   -0.0000 C   0  0  0  0  0  0  0  0  0  0  0  0
   -3.9428   -2.1957   -0.0000 C   0  0  0  0  0  0  0  0  0  0  0  0
   -2.6443    0.0472   -0.0000 C   0  0  0  0  0  0  0  0  0  0  0  0
   -2.6443   -4.4386   -0.0000 C   0  0  0  0  0  0  0  0  0  0  0  0
    2.5498    0.0472   -0.0000 N   0  0  0  0  0  0  0  0  0  0  0  0
    3.8484   -2.1957   -0.0000 C   0  0  0  0  0  0  0  0  0  0  0  0
    2.5498   -4.4386   -0.0000 C   0  0  0  0  0  0  0  0  0  0  0  0
   -3.9546   -3.6831   -0.0000 O   0  0  0  0  0  0  0  0  0  0  0  0
   -3.9546    0.8027   -0.0000 C   0  0  0  0  0  0  0  0  0  0  0  0
    1.2395    0.8027   -0.0000 N   0  0  0  0  0  0  0  0  0  0  0  0
    3.6477    1.0624   -0.0000 N   0  0  0  0  0  0  0  0  0  0  0  0
    3.8366   -3.6831   -0.0000 C   0  0  0  0  0  0  0  0  0  0  0  0
   -5.2650    0.0708   -0.0000 C   0  0  0  0  0  0  0  0  0  0  0  0
   -3.9664    2.3137   -0.0000 C   0  0  0  0  0  0  0  0  0  0  0  0
    1.5346    2.2783   -0.0000 C   0  0  0  0  0  0  0  0  0  0  0  0
    3.0220    2.4436   -0.0000 C   0  0  0  0  0  0  0  0  0  0  0  0
    5.1233   -4.4150   -0.0000 C   0  0  0  0  0  0  0  0  0  0  0  0
   -6.5753    0.8263   -0.0000 C   0  0  0  0  0  0  0  0  0  0  0  0
   -5.2768    3.0811   -0.0000 C   0  0  0  0  0  0  0  0  0  0  0  0
   -7.8856    0.0944   -0.0000 N   0  0  0  0  0  0  0  0  0  0  0  0
   -6.5871    2.3374   -0.0000 C   0  0  0  0  0  0  0  0  0  0  0  0
   -7.8974   -1.3930   -0.0000 N   0  0  0  0  0  0  0  0  0  0  0  0
   -9.3258    0.5666   -0.0000 N   0  0  0  0  0  0  0  0  0  0  0  0
   -9.3376   -1.8416   -0.0000 C   0  0  0  0  0  0  0  0  0  0  0  0
  -10.2230   -0.6375   -0.0000 C   0  0  0  0  0  0  0  0  0  0  0  0
  1  2  2  0  0  0  0
  2  3  1  0  0  0  0
  2  4  1  0  0  0  0
  3  5  1  0  0  0  0
  3  6  1  0  0  0  0
  4  7  2  0  0  0  0
  4  8  1  0  0  0  0
  5  9  1  0  0  0  0
  5 10  1  6  0  0  0
  6 11  1  0  0  0  0
  7 12  1  0  0  0  0
  7 13  1  0  0  0  0
  8 14  2  0  0  0  0
  9 15  1  0  0  0  0
 10 16  1  0  0  0  0
 12 17  1  0  0  0  0
 12 18  1  0  0  0  0
 13 19  2  0  0  0  0
 16 20  2  0  0  0  0
 16 21  1  0  0  0  0
 17 22  2  0  0  0  0
 18 23  2  0  0  0  0
 19 24  1  0  0  0  0
 20 25  1  0  0  0  0
 21 26  2  0  0  0  0
 25 27  1  0  0  0  0
 25 28  2  0  0  0  0
 27 29  1  0  0  0  0
 27 30  1  0  0  0  0
 29 31  2  0  0  0  0
 30 32  2  0  0  0  0
 11 15  1  0  0  0  0
 14 19  1  0  0  0  0
 22 23  1  0  0  0  0
 26 28  1  0  0  0  0
 31 32  1  0  0  0  0
M  END
>  <MolRegNo>
2101740

>  <m>
=

>  <Value>
31000

>  <Unit>
nM

>  <Type>
IC50

>  <pValue>
4.51

>  <Ligand Efficiency>
0.19

>  <Binding Efficiency>
10.5

>  <Surface Efficiency>
4.96

>  <Assay Index>
1058329

>  <Assay Category>


>  <Assay Organism>
Homo sapiens

>  <Target ID>
17045

>  <Target Name>
Cytochrome P450 3A4

>  <Target Organism>
Homo sapiens

>  <Target Description>
Target is a single protein chain

>  <Sequence Accession>
P08684

>  <Reference>


>  <Pubmed ID>


>  <DOI>


$$$$
2176510
Actelion Java MolfileCreator 1.0

 33 37  0  0  1  0  0  0  0  0999 V2000
    0.0000   -0.0000   -0.0000 O   0  0  0  0  0  0  0  0  0  0  0  0
    1.0418   -0.5987   -0.0000 C   0  0  0  0  0  0  0  0  0  0  0  0
    1.0298   -2.1075   -0.0000 N   0  0  0  0  0  0  0  0  0  0  0  0
    2.3470    0.1796   -0.0000 C   0  0  0  0  0  0  0  0  0  0  0  0
   -0.2994   -2.8618   -0.0000 C   0  0  0  0  0  0  0  0  0  0  0  0
    2.3350   -2.8499   -0.0000 C   0  0  0  0  0  0  0  0  0  0  0  0
    2.3350    1.7123   -0.0000 C   0  0  0  0  0  0  0  0  0  0  0  0
    3.6521   -0.5628   -0.0000 C   0  0  0  0  0  0  0  0  0  0  0  0
   -0.3113   -4.3706   -0.0000 C   0  0  0  0  0  0  0  0  0  0  0  0
   -1.6285   -2.0955   -0.0000 C   0  0  0  0  0  0  0  0  0  0  0  0
    2.3230   -4.3586   -0.0000 C   0  0  0  0  0  0  0  0  0  0  0  0
    1.0058    2.4787   -0.0000 N   0  0  0  0  0  0  0  0  0  0  0  0
    3.6402    2.4787   -0.0000 C   0  0  0  0  0  0  0  0  0  0  0  0
    4.9573    0.2036   -0.0000 C   0  0  0  0  0  0  0  0  0  0  0  0
    0.9939   -5.1130   -0.0000 O   0  0  0  0  0  0  0  0  0  0  0  0
   -2.9576   -2.8499   -0.0000 C   0  0  0  0  0  0  0  0  0  0  0  0
    0.8502    3.9874   -0.0000 N   0  0  0  0  0  0  0  0  0  0  0  0
   -0.3712    1.8560   -0.0000 N   0  0  0  0  0  0  0  0  0  0  0  0
    4.9454    1.7363   -0.0000 C   0  0  0  0  0  0  0  0  0  0  0  0
    5.9991   -0.3951   -0.0000 C   0  0  0  0  0  0  0  0  0  0  0  0
   -2.9576   -4.3586   -0.0000 C   0  0  0  0  0  0  0  0  0  0  0  0
   -4.2868   -2.0835   -0.0000 C   0  0  0  0  0  0  0  0  0  0  0  0
   -0.6466    4.3107   -0.0000 C   0  0  0  0  0  0  0  0  0  0  0  0
   -1.4010    2.9936   -0.0000 C   0  0  0  0  0  0  0  0  0  0  0  0
   -4.2748   -5.1130   -0.0000 C   0  0  0  0  0  0  0  0  0  0  0  0
   -5.6039   -2.8379   -0.0000 C   0  0  0  0  0  0  0  0  0  0  0  0
   -4.2748   -6.6218   -0.0000 C   0  0  0  0  0  0  0  0  0  0  0  0
   -5.6039   -4.3466   -0.0000 C   0  0  0  0  0  0  0  0  0  0  0  0
   -5.5920   -7.3761   -0.0000 C   0  0  0  0  0  0  0  0  0  0  0  0
   -2.9696   -7.3642   -0.0000 C   0  0  0  0  0  0  0  0  0  0  0  0
   -5.5920   -8.8849   -0.0000 C   0  0  0  0  0  0  0  0  0  0  0  0
   -2.9696   -8.8729   -0.0000 C   0  0  0  0  0  0  0  0  0  0  0  0
   -4.2868   -9.6273   -0.0000 N   0  0  0  0  0  0  0  0  0  0  0  0
  1  2  2  0  0  0  0
  2  3  1  0  0  0  0
  2  4  1  0  0  0  0
  3  5  1  0  0  0  0
  3  6  1  0  0  0  0
  4  7  2  0  0  0  0
  4  8  1  0  0  0  0
  5  9  1  0  0  0  0
  5 10  1  1  0  0  0
  6 11  1  0  0  0  0
  7 12  1  0  0  0  0
  7 13  1  0  0  0  0
  8 14  2  0  0  0  0
  9 15  1  0  0  0  0
 10 16  1  0  0  0  0
 12 17  1  0  0  0  0
 12 18  1  0  0  0  0
 13 19  2  0  0  0  0
 14 20  1  0  0  0  0
 16 21  2  0  0  0  0
 16 22  1  0  0  0  0
 17 23  2  0  0  0  0
 18 24  2  0  0  0  0
 21 25  1  0  0  0  0
 22 26  2  0  0  0  0
 25 27  1  0  0  0  0
 25 28  2  0  0  0  0
 27 29  2  0  0  0  0
 27 30  1  0  0  0  0
 29 31  1  0  0  0  0
 30 32  2  0  0  0  0
 31 33  2  0  0  0  0
 11 15  1  0  0  0  0
 14 19  1  0  0  0  0
 23 24  1  0  0  0  0
 26 28  1  0  0  0  0
 32 33  1  0  0  0  0
M  END
>  <MolRegNo>
2176510

>  <m>
=

>  <Value>
300

>  <Unit>
nM

>  <Type>
IC50

>  <pValue>
6.52

>  <Ligand Efficiency>
0.27

>  <Binding Efficiency>
14.84

>  <Surface Efficiency>
8.92

>  <Assay Index>
1058329

>  <Assay Category>


>  <Assay Organism>
Homo sapiens

>  <Target ID>
17045

>  <Target Name>
Cytochrome P450 3A4

>  <Target Organism>
Homo sapiens

>  <Target Description>
Target is a single protein chain

>  <Sequence Accession>
P08684

>  <Reference>


>  <Pubmed ID>


>  <DOI>


$$$$
2190783
Actelion Java MolfileCreator 1.0

 33 37  0  0  1  0  0  0  0  0999 V2000
    0.0000   -0.0000   -0.0000 F   0  0  0  0  0  0  0  0  0  0  0  0
   -0.0120    1.2375   -0.0000 C   0  0  0  0  0  0  0  0  0  0  0  0
   -1.3456    2.0064   -0.0000 C   0  0  0  0  0  0  0  0  0  0  0  0
    1.2975    2.0064   -0.0000 C   0  0  0  0  0  0  0  0  0  0  0  0
   -1.3576    3.5442   -0.0000 C   0  0  0  0  0  0  0  0  0  0  0  0
   -2.6792    1.2495   -0.0000 C   0  0  0  0  0  0  0  0  0  0  0  0
    1.2855    3.5442   -0.0000 C   0  0  0  0  0  0  0  0  0  0  0  0
    2.3428    1.4057   -0.0000 C   0  0  0  0  0  0  0  0  0  0  0  0
   -2.6912    4.3131   -0.0000 N   0  0  0  0  0  0  0  0  0  0  0  0
   -0.0481    4.3131   -0.0000 C   0  0  0  0  0  0  0  0  0  0  0  0
   -3.7485    1.8742   -0.0000 O   0  0  0  0  0  0  0  0  0  0  0  0
   -2.6912   -0.2643   -0.0000 N   0  0  0  0  0  0  0  0  0  0  0  0
   -2.8474    5.8270   -0.0000 N   0  0  0  0  0  0  0  0  0  0  0  0
   -4.0729    3.6884   -0.0000 N   0  0  0  0  0  0  0  0  0  0  0  0
   -4.0248   -1.0212   -0.0000 C   0  0  0  0  0  0  0  0  0  0  0  0
   -1.3816   -1.0092   -0.0000 C   0  0  0  0  0  0  0  0  0  0  0  0
   -4.3492    6.1513   -0.0000 C   0  0  0  0  0  0  0  0  0  0  0  0
   -5.1061    4.8298   -0.0000 C   0  0  0  0  0  0  0  0  0  0  0  0
   -4.0368   -2.5350   -0.0000 C   0  0  0  0  0  0  0  0  0  0  0  0
   -5.3584   -0.2523   -0.0000 C   0  0  0  0  0  0  0  0  0  0  0  0
   -1.3937   -2.5230   -0.0000 C   0  0  0  0  0  0  0  0  0  0  0  0
   -2.7273   -3.2799   -0.0000 O   0  0  0  0  0  0  0  0  0  0  0  0
   -6.6920   -1.0092   -0.0000 C   0  0  0  0  0  0  0  0  0  0  0  0
   -6.6920   -2.5230   -0.0000 C   0  0  0  0  0  0  0  0  0  0  0  0
   -8.0256   -0.2403   -0.0000 C   0  0  0  0  0  0  0  0  0  0  0  0
   -8.0136   -3.2799   -0.0000 C   0  0  0  0  0  0  0  0  0  0  0  0
   -9.3472   -0.9972   -0.0000 C   0  0  0  0  0  0  0  0  0  0  0  0
   -8.0136   -4.7937   -0.0000 N   0  0  0  0  0  0  0  0  0  0  0  0
   -9.3472   -2.5110   -0.0000 C   0  0  0  0  0  0  0  0  0  0  0  0
   -9.2510   -5.6708   -0.0000 N   0  0  0  0  0  0  0  0  0  0  0  0
   -6.7881   -5.6467   -0.0000 N   0  0  0  0  0  0  0  0  0  0  0  0
   -8.7825   -7.1005   -0.0000 C   0  0  0  0  0  0  0  0  0  0  0  0
   -7.2567   -7.0885   -0.0000 C   0  0  0  0  0  0  0  0  0  0  0  0
  1  2  1  0  0  0  0
  2  3  2  0  0  0  0
  2  4  1  0  0  0  0
  3  5  1  0  0  0  0
  3  6  1  0  0  0  0
  4  7  2  0  0  0  0
  4  8  1  0  0  0  0
  5  9  1  0  0  0  0
  5 10  2  0  0  0  0
  6 11  2  0  0  0  0
  6 12  1  0  0  0  0
  9 13  1  0  0  0  0
  9 14  1  0  0  0  0
 12 15  1  0  0  0  0
 12 16  1  0  0  0  0
 13 17  2  0  0  0  0
 14 18  2  0  0  0  0
 15 19  1  0  0  0  0
 15 20  1  1  0  0  0
 16 21  1  0  0  0  0
 19 22  1  0  0  0  0
 20 23  1  0  0  0  0
 23 24  2  0  0  0  0
 23 25  1  0  0  0  0
 24 26  1  0  0  0  0
 25 27  2  0  0  0  0
 26 28  1  0  0  0  0
 26 29  2  0  0  0  0
 28 30  1  0  0  0  0
 28 31  1  0  0  0  0
 30 32  2  0  0  0  0
 31 33  2  0  0  0  0
  7 10  1  0  0  0  0
 17 18  1  0  0  0  0
 21 22  1  0  0  0  0
 27 29  1  0  0  0  0
 32 33  1  0  0  0  0
M  END
>  <MolRegNo>
2190783

>  <m>
=

>  <Value>
39000

>  <Unit>
nM

>  <Type>
IC50

>  <pValue>
4.41

>  <Ligand Efficiency>
0.18

>  <Binding Efficiency>
9.85

>  <Surface Efficiency>
4.85

>  <Assay Index>
1058329

>  <Assay Category>


>  <Assay Organism>
Homo sapiens

>  <Target ID>
17045

>  <Target Name>
Cytochrome P450 3A4

>  <Target Organism>
Homo sapiens

>  <Target Description>
Target is a single protein chain

>  <Sequence Accession>
P08684

>  <Reference>


>  <Pubmed ID>


>  <DOI>


$$$$
2162037
Actelion Java MolfileCreator 1.0

 32 36  0  0  1  0  0  0  0  0999 V2000
    0.0000   -0.0000   -0.0000 Cl  0  0  0  0  0  0  0  0  0  0  0  0
   -1.0631    0.6211   -0.0000 C   0  0  0  0  0  0  0  0  0  0  0  0
   -2.3890   -0.1195   -0.0000 C   0  0  0  0  0  0  0  0  0  0  0  0
   -1.0751    2.1501   -0.0000 C   0  0  0  0  0  0  0  0  0  0  0  0
   -3.7149    0.6450   -0.0000 C   0  0  0  0  0  0  0  0  0  0  0  0
   -2.4010    2.9146   -0.0000 C   0  0  0  0  0  0  0  0  0  0  0  0
   -3.7269    2.1740   -0.0000 C   0  0  0  0  0  0  0  0  0  0  0  0
   -5.0408   -0.1075   -0.0000 C   0  0  0  0  0  0  0  0  0  0  0  0
   -5.0528    2.9385   -0.0000 N   0  0  0  0  0  0  0  0  0  0  0  0
   -6.1039    0.5136   -0.0000 O   0  0  0  0  0  0  0  0  0  0  0  0
   -5.0528   -1.6126   -0.0000 N   0  0  0  0  0  0  0  0  0  0  0  0
   -5.2081    4.4436   -0.0000 N   0  0  0  0  0  0  0  0  0  0  0  0
   -6.4265    2.3173   -0.0000 N   0  0  0  0  0  0  0  0  0  0  0  0
   -6.3787   -2.3651   -0.0000 C   0  0  0  0  0  0  0  0  0  0  0  0
   -3.7508   -2.3532   -0.0000 C   0  0  0  0  0  0  0  0  0  0  0  0
   -6.7012    4.7661   -0.0000 C   0  0  0  0  0  0  0  0  0  0  0  0
   -7.4537    3.4521   -0.0000 C   0  0  0  0  0  0  0  0  0  0  0  0
   -6.3906   -3.8702   -0.0000 C   0  0  0  0  0  0  0  0  0  0  0  0
   -7.7046   -1.6006   -0.0000 C   0  0  0  0  0  0  0  0  0  0  0  0
   -3.7627   -3.8583   -0.0000 C   0  0  0  0  0  0  0  0  0  0  0  0
   -5.0886   -4.6108   -0.0000 O   0  0  0  0  0  0  0  0  0  0  0  0
   -9.0305   -2.3532   -0.0000 C   0  0  0  0  0  0  0  0  0  0  0  0
   -9.0305   -3.8583   -0.0000 C   0  0  0  0  0  0  0  0  0  0  0  0
  -10.3564   -1.5887   -0.0000 C   0  0  0  0  0  0  0  0  0  0  0  0
  -10.3444   -4.6108   -0.0000 C   0  0  0  0  0  0  0  0  0  0  0  0
  -11.6703   -2.3412   -0.0000 C   0  0  0  0  0  0  0  0  0  0  0  0
  -10.3444   -6.1159   -0.0000 N   0  0  0  0  0  0  0  0  0  0  0  0
  -11.6703   -3.8463   -0.0000 C   0  0  0  0  0  0  0  0  0  0  0  0
  -11.5748   -6.9879   -0.0000 N   0  0  0  0  0  0  0  0  0  0  0  0
   -9.1260   -6.9640   -0.0000 N   0  0  0  0  0  0  0  0  0  0  0  0
  -11.1089   -8.4093   -0.0000 C   0  0  0  0  0  0  0  0  0  0  0  0
   -9.5919   -8.3974   -0.0000 C   0  0  0  0  0  0  0  0  0  0  0  0
  1  2  1  0  0  0  0
  2  3  2  0  0  0  0
  2  4  1  0  0  0  0
  3  5  1  0  0  0  0
  4  6  2  0  0  0  0
  5  7  2  0  0  0  0
  5  8  1  0  0  0  0
  7  9  1  0  0  0  0
  8 10  2  0  0  0  0
  8 11  1  0  0  0  0
  9 12  1  0  0  0  0
  9 13  1  0  0  0  0
 11 14  1  0  0  0  0
 11 15  1  0  0  0  0
 12 16  2  0  0  0  0
 13 17  2  0  0  0  0
 14 18  1  0  0  0  0
 14 19  1  1  0  0  0
 15 20  1  0  0  0  0
 18 21  1  0  0  0  0
 19 22  1  0  0  0  0
 22 23  2  0  0  0  0
 22 24  1  0  0  0  0
 23 25  1  0  0  0  0
 24 26  2  0  0  0  0
 25 27  1  0  0  0  0
 25 28  2  0  0  0  0
 27 29  1  0  0  0  0
 27 30  1  0  0  0  0
 29 31  2  0  0  0  0
 30 32  2  0  0  0  0
  6  7  1  0  0  0  0
 16 17  1  0  0  0  0
 20 21  1  0  0  0  0
 26 28  1  0  0  0  0
 31 32  1  0  0  0  0
M  END
>  <MolRegNo>
2162037

>  <m>
=

>  <Value>
17000

>  <Unit>
nM

>  <Type>
IC50

>  <pValue>
4.77

>  <Ligand Efficiency>
0.2

>  <Binding Efficiency>
10.6

>  <Surface Efficiency>
5.24

>  <Assay Index>
1058329

>  <Assay Category>


>  <Assay Organism>
Homo sapiens

>  <Target ID>
17045

>  <Target Name>
Cytochrome P450 3A4

>  <Target Organism>
Homo sapiens

>  <Target Description>
Target is a single protein chain

>  <Sequence Accession>
P08684

>  <Reference>


>  <Pubmed ID>


>  <DOI>


$$$$
2123240
Actelion Java MolfileCreator 1.0

 33 37  0  0  1  0  0  0  0  0999 V2000
    0.0000   -0.0000   -0.0000 O   0  0  0  0  0  0  0  0  0  0  0  0
    1.0464   -0.6014   -0.0000 C   0  0  0  0  0  0  0  0  0  0  0  0
    2.3575    0.1684   -0.0000 N   0  0  0  0  0  0  0  0  0  0  0  0
    1.0344   -2.1169   -0.0000 C   0  0  0  0  0  0  0  0  0  0  0  0
    2.3454    1.7080   -0.0000 C   0  0  0  0  0  0  0  0  0  0  0  0
    3.6685   -0.5894   -0.0000 C   0  0  0  0  0  0  0  0  0  0  0  0
   -0.3007   -2.8626   -0.0000 C   0  0  0  0  0  0  0  0  0  0  0  0
    2.3454   -2.8626   -0.0000 C   0  0  0  0  0  0  0  0  0  0  0  0
    3.6565    2.4777   -0.0000 C   0  0  0  0  0  0  0  0  0  0  0  0
    1.0103    2.4898   -0.0000 C   0  0  0  0  0  0  0  0  0  0  0  0
    4.9795    0.1804   -0.0000 C   0  0  0  0  0  0  0  0  0  0  0  0
   -1.6358   -2.0928   -0.0000 N   0  0  0  0  0  0  0  0  0  0  0  0
   -0.3127   -4.3781   -0.0000 C   0  0  0  0  0  0  0  0  0  0  0  0
    2.3334   -4.3781   -0.0000 C   0  0  0  0  0  0  0  0  0  0  0  0
    4.9675    1.7200   -0.0000 O   0  0  0  0  0  0  0  0  0  0  0  0
    1.0103    4.0293   -0.0000 C   0  0  0  0  0  0  0  0  0  0  0  0
   -1.7921   -0.5773   -0.0000 N   0  0  0  0  0  0  0  0  0  0  0  0
   -3.0190   -2.7183   -0.0000 N   0  0  0  0  0  0  0  0  0  0  0  0
    0.9983   -5.1239   -0.0000 C   0  0  0  0  0  0  0  0  0  0  0  0
    3.3798   -4.9795   -0.0000 C   0  0  0  0  0  0  0  0  0  0  0  0
    2.3214    4.7991   -0.0000 C   0  0  0  0  0  0  0  0  0  0  0  0
   -0.3127    4.8111   -0.0000 C   0  0  0  0  0  0  0  0  0  0  0  0
   -3.2956   -0.2526   -0.0000 C   0  0  0  0  0  0  0  0  0  0  0  0
   -4.0534   -1.5756   -0.0000 C   0  0  0  0  0  0  0  0  0  0  0  0
    0.9863   -6.3387   -0.0000 C   0  0  0  0  0  0  0  0  0  0  0  0
    2.3214    6.3387   -0.0000 C   0  0  0  0  0  0  0  0  0  0  0  0
   -0.3127    6.3507   -0.0000 C   0  0  0  0  0  0  0  0  0  0  0  0
    3.6324    7.1084   -0.0000 N   0  0  0  0  0  0  0  0  0  0  0  0
    0.9983    7.1205   -0.0000 C   0  0  0  0  0  0  0  0  0  0  0  0
    3.7767    8.6240   -0.0000 N   0  0  0  0  0  0  0  0  0  0  0  0
    4.9916    6.4710   -0.0000 N   0  0  0  0  0  0  0  0  0  0  0  0
    5.2562    8.9367   -0.0000 C   0  0  0  0  0  0  0  0  0  0  0  0
    6.0139    7.6136   -0.0000 C   0  0  0  0  0  0  0  0  0  0  0  0
  1  2  2  0  0  0  0
  2  3  1  0  0  0  0
  2  4  1  0  0  0  0
  3  5  1  0  0  0  0
  3  6  1  0  0  0  0
  4  7  2  0  0  0  0
  4  8  1  0  0  0  0
  5  9  1  0  0  0  0
  5 10  1  6  0  0  0
  6 11  1  0  0  0  0
  7 12  1  0  0  0  0
  7 13  1  0  0  0  0
  8 14  2  0  0  0  0
  9 15  1  0  0  0  0
 10 16  1  0  0  0  0
 12 17  1  0  0  0  0
 12 18  1  0  0  0  0
 13 19  2  0  0  0  0
 14 20  1  0  0  0  0
 16 21  2  0  0  0  0
 16 22  1  0  0  0  0
 17 23  2  0  0  0  0
 18 24  2  0  0  0  0
 19 25  1  0  0  0  0
 21 26  1  0  0  0  0
 22 27  2  0  0  0  0
 26 28  1  0  0  0  0
 26 29  2  0  0  0  0
 28 30  1  0  0  0  0
 28 31  1  0  0  0  0
 30 32  2  0  0  0  0
 31 33  2  0  0  0  0
 11 15  1  0  0  0  0
 14 19  1  0  0  0  0
 23 24  1  0  0  0  0
 27 29  1  0  0  0  0
 32 33  1  0  0  0  0
M  END
>  <MolRegNo>
2123240

>  <m>
=

>  <Value>
20000

>  <Unit>
nM

>  <Type>
IC50

>  <pValue>
4.7

>  <Ligand Efficiency>
0.19

>  <Binding Efficiency>
10.59

>  <Surface Efficiency>
5.17

>  <Assay Index>
1058329

>  <Assay Category>


>  <Assay Organism>
Homo sapiens

>  <Target ID>
17045

>  <Target Name>
Cytochrome P450 3A4

>  <Target Organism>
Homo sapiens

>  <Target Description>
Target is a single protein chain

>  <Sequence Accession>
P08684

>  <Reference>


>  <Pubmed ID>


>  <DOI>


$$$$
2169927
Actelion Java MolfileCreator 1.0

 32 36  0  0  1  0  0  0  0  0999 V2000
    0.0000   -0.0000   -0.0000 F   0  0  0  0  0  0  0  0  0  0  0  0
   -1.0588    0.6186   -0.0000 C   0  0  0  0  0  0  0  0  0  0  0  0
   -2.3794   -0.1190   -0.0000 C   0  0  0  0  0  0  0  0  0  0  0  0
   -1.0707    2.1414   -0.0000 C   0  0  0  0  0  0  0  0  0  0  0  0
   -3.6999    0.6424   -0.0000 C   0  0  0  0  0  0  0  0  0  0  0  0
   -2.3913    2.9028   -0.0000 C   0  0  0  0  0  0  0  0  0  0  0  0
   -5.0205   -0.0952   -0.0000 N   0  0  0  0  0  0  0  0  0  0  0  0
   -3.7118    2.1652   -0.0000 C   0  0  0  0  0  0  0  0  0  0  0  0
   -6.3886    0.5354   -0.0000 N   0  0  0  0  0  0  0  0  0  0  0  0
   -5.1632   -1.5704   -0.0000 N   0  0  0  0  0  0  0  0  0  0  0  0
   -5.0324    2.9385   -0.0000 C   0  0  0  0  0  0  0  0  0  0  0  0
   -7.4117   -0.5710   -0.0000 C   0  0  0  0  0  0  0  0  0  0  0  0
   -6.6503   -1.8797   -0.0000 C   0  0  0  0  0  0  0  0  0  0  0  0
   -6.0912    2.3437   -0.0000 O   0  0  0  0  0  0  0  0  0  0  0  0
   -5.0443    4.4613   -0.0000 N   0  0  0  0  0  0  0  0  0  0  0  0
   -6.3648    5.2346   -0.0000 C   0  0  0  0  0  0  0  0  0  0  0  0
   -3.7475    5.2227   -0.0000 C   0  0  0  0  0  0  0  0  0  0  0  0
   -6.3767    6.7574   -0.0000 C   0  0  0  0  0  0  0  0  0  0  0  0
   -7.6854    4.4970   -0.0000 C   0  0  0  0  0  0  0  0  0  0  0  0
   -3.7594    6.7455   -0.0000 C   0  0  0  0  0  0  0  0  0  0  0  0
   -5.0799    7.5188   -0.0000 O   0  0  0  0  0  0  0  0  0  0  0  0
   -9.0059    5.2703   -0.0000 C   0  0  0  0  0  0  0  0  0  0  0  0
   -9.0059    6.7931   -0.0000 C   0  0  0  0  0  0  0  0  0  0  0  0
  -10.3264    4.5327   -0.0000 C   0  0  0  0  0  0  0  0  0  0  0  0
  -10.3146    7.5664   -0.0000 C   0  0  0  0  0  0  0  0  0  0  0  0
  -11.6351    5.3060   -0.0000 C   0  0  0  0  0  0  0  0  0  0  0  0
  -10.3146    9.0892   -0.0000 N   0  0  0  0  0  0  0  0  0  0  0  0
  -11.6351    6.8288   -0.0000 C   0  0  0  0  0  0  0  0  0  0  0  0
  -11.5399    9.9814   -0.0000 N   0  0  0  0  0  0  0  0  0  0  0  0
   -9.1011    9.9576   -0.0000 N   0  0  0  0  0  0  0  0  0  0  0  0
  -11.0759   11.4210   -0.0000 C   0  0  0  0  0  0  0  0  0  0  0  0
   -9.5651   11.4091   -0.0000 C   0  0  0  0  0  0  0  0  0  0  0  0
  1  2  1  0  0  0  0
  2  3  2  0  0  0  0
  2  4  1  0  0  0  0
  3  5  1  0  0  0  0
  4  6  2  0  0  0  0
  5  7  1  0  0  0  0
  5  8  2  0  0  0  0
  7  9  1  0  0  0  0
  7 10  1  0  0  0  0
  8 11  1  0  0  0  0
  9 12  2  0  0  0  0
 10 13  2  0  0  0  0
 11 14  2  0  0  0  0
 11 15  1  0  0  0  0
 15 16  1  0  0  0  0
 15 17  1  0  0  0  0
 16 18  1  0  0  0  0
 16 19  1  6  0  0  0
 17 20  1  0  0  0  0
 18 21  1  0  0  0  0
 19 22  1  0  0  0  0
 22 23  2  0  0  0  0
 22 24  1  0  0  0  0
 23 25  1  0  0  0  0
 24 26  2  0  0  0  0
 25 27  1  0  0  0  0
 25 28  2  0  0  0  0
 27 29  1  0  0  0  0
 27 30  1  0  0  0  0
 29 31  2  0  0  0  0
 30 32  2  0  0  0  0
  6  8  1  0  0  0  0
 12 13  1  0  0  0  0
 20 21  1  0  0  0  0
 26 28  1  0  0  0  0
 31 32  1  0  0  0  0
M  END
>  <MolRegNo>
2169927

>  <m>
=

>  <Value>
36000

>  <Unit>
nM

>  <Type>
IC50

>  <pValue>
4.44

>  <Ligand Efficiency>
0.19

>  <Binding Efficiency>
10.25

>  <Surface Efficiency>
4.89

>  <Assay Index>
1058329

>  <Assay Category>


>  <Assay Organism>
Homo sapiens

>  <Target ID>
17045

>  <Target Name>
Cytochrome P450 3A4

>  <Target Organism>
Homo sapiens

>  <Target Description>
Target is a single protein chain

>  <Sequence Accession>
P08684

>  <Reference>


>  <Pubmed ID>


>  <DOI>


$$$$
2151633
Actelion Java MolfileCreator 1.0

 34 38  0  0  1  0  0  0  0  0999 V2000
    0.0000   -0.0000   -0.0000 O   0  0  0  0  0  0  0  0  0  0  0  0
    1.0460   -0.6012   -0.0000 C   0  0  0  0  0  0  0  0  0  0  0  0
    2.3566    0.1683   -0.0000 N   0  0  0  0  0  0  0  0  0  0  0  0
    1.0340   -2.1161   -0.0000 C   0  0  0  0  0  0  0  0  0  0  0  0
    2.3446    1.7073   -0.0000 C   0  0  0  0  0  0  0  0  0  0  0  0
    3.6672   -0.5892   -0.0000 C   0  0  0  0  0  0  0  0  0  0  0  0
   -0.3006   -2.8616   -0.0000 C   0  0  0  0  0  0  0  0  0  0  0  0
    2.3446   -2.8616   -0.0000 C   0  0  0  0  0  0  0  0  0  0  0  0
    3.6552    2.4768   -0.0000 C   0  0  0  0  0  0  0  0  0  0  0  0
    1.0100    2.4889   -0.0000 C   0  0  0  0  0  0  0  0  0  0  0  0
    4.9777    0.1804   -0.0000 C   0  0  0  0  0  0  0  0  0  0  0  0
   -1.6352   -2.0921   -0.0000 N   0  0  0  0  0  0  0  0  0  0  0  0
   -0.3126   -4.3766   -0.0000 C   0  0  0  0  0  0  0  0  0  0  0  0
    2.3326   -4.3766   -0.0000 C   0  0  0  0  0  0  0  0  0  0  0  0
    4.9657    1.7194   -0.0000 O   0  0  0  0  0  0  0  0  0  0  0  0
    1.0100    4.0279   -0.0000 C   0  0  0  0  0  0  0  0  0  0  0  0
   -1.7915   -0.5771   -0.0000 N   0  0  0  0  0  0  0  0  0  0  0  0
   -3.0179   -2.7173   -0.0000 N   0  0  0  0  0  0  0  0  0  0  0  0
    0.9980   -5.1220   -0.0000 C   0  0  0  0  0  0  0  0  0  0  0  0
    3.6431   -5.1220   -0.0000 O   0  0  0  0  0  0  0  0  0  0  0  0
    2.3205    4.7974   -0.0000 C   0  0  0  0  0  0  0  0  0  0  0  0
   -0.3126    4.8094   -0.0000 C   0  0  0  0  0  0  0  0  0  0  0  0
   -3.2944   -0.2525   -0.0000 C   0  0  0  0  0  0  0  0  0  0  0  0
   -4.0519   -1.5751   -0.0000 C   0  0  0  0  0  0  0  0  0  0  0  0
    0.9859   -6.3364   -0.0000 C   0  0  0  0  0  0  0  0  0  0  0  0
    4.6892   -4.4968   -0.0000 C   0  0  0  0  0  0  0  0  0  0  0  0
    2.3205    6.3364   -0.0000 C   0  0  0  0  0  0  0  0  0  0  0  0
   -0.3126    6.3484   -0.0000 C   0  0  0  0  0  0  0  0  0  0  0  0
    3.6311    7.1059   -0.0000 N   0  0  0  0  0  0  0  0  0  0  0  0
    0.9980    7.1179   -0.0000 C   0  0  0  0  0  0  0  0  0  0  0  0
    3.7754    8.6209   -0.0000 N   0  0  0  0  0  0  0  0  0  0  0  0
    4.9898    6.4687   -0.0000 N   0  0  0  0  0  0  0  0  0  0  0  0
    5.2543    8.9335   -0.0000 C   0  0  0  0  0  0  0  0  0  0  0  0
    6.0118    7.6109   -0.0000 C   0  0  0  0  0  0  0  0  0  0  0  0
  1  2  2  0  0  0  0
  2  3  1  0  0  0  0
  2  4  1  0  0  0  0
  3  5  1  0  0  0  0
  3  6  1  0  0  0  0
  4  7  2  0  0  0  0
  4  8  1  0  0  0  0
  5  9  1  0  0  0  0
  5 10  1  6  0  0  0
  6 11  1  0  0  0  0
  7 12  1  0  0  0  0
  7 13  1  0  0  0  0
  8 14  2  0  0  0  0
  9 15  1  0  0  0  0
 10 16  1  0  0  0  0
 12 17  1  0  0  0  0
 12 18  1  0  0  0  0
 13 19  2  0  0  0  0
 14 20  1  0  0  0  0
 16 21  2  0  0  0  0
 16 22  1  0  0  0  0
 17 23  2  0  0  0  0
 18 24  2  0  0  0  0
 19 25  1  0  0  0  0
 20 26  1  0  0  0  0
 21 27  1  0  0  0  0
 22 28  2  0  0  0  0
 27 29  1  0  0  0  0
 27 30  2  0  0  0  0
 29 31  1  0  0  0  0
 29 32  1  0  0  0  0
 31 33  2  0  0  0  0
 32 34  2  0  0  0  0
 11 15  1  0  0  0  0
 14 19  1  0  0  0  0
 23 24  1  0  0  0  0
 28 30  1  0  0  0  0
 33 34  1  0  0  0  0
M  END
>  <MolRegNo>
2151633

>  <m>
=

>  <Value>
17000

>  <Unit>
nM

>  <Type>
IC50

>  <pValue>
4.77

>  <Ligand Efficiency>
0.19

>  <Binding Efficiency>
10.38

>  <Surface Efficiency>
4.76

>  <Assay Index>
1058329

>  <Assay Category>


>  <Assay Organism>
Homo sapiens

>  <Target ID>
17045

>  <Target Name>
Cytochrome P450 3A4

>  <Target Organism>
Homo sapiens

>  <Target Description>
Target is a single protein chain

>  <Sequence Accession>
P08684

>  <Reference>


>  <Pubmed ID>


>  <DOI>


$$$$
2156942
Actelion Java MolfileCreator 1.0

 34 38  0  0  1  0  0  0  0  0999 V2000
    0.0000   -0.0000   -0.0000 O   0  0  0  0  0  0  0  0  0  0  0  0
    1.0474   -0.6019   -0.0000 C   0  0  0  0  0  0  0  0  0  0  0  0
    1.0353   -2.1188   -0.0000 N   0  0  0  0  0  0  0  0  0  0  0  0
    2.3596    0.1806   -0.0000 C   0  0  0  0  0  0  0  0  0  0  0  0
   -0.3010   -2.8772   -0.0000 C   0  0  0  0  0  0  0  0  0  0  0  0
    2.3475   -2.8652   -0.0000 C   0  0  0  0  0  0  0  0  0  0  0  0
    2.3475    1.7215   -0.0000 C   0  0  0  0  0  0  0  0  0  0  0  0
    3.6717   -0.5658   -0.0000 C   0  0  0  0  0  0  0  0  0  0  0  0
   -0.3130   -4.3941   -0.0000 C   0  0  0  0  0  0  0  0  0  0  0  0
   -1.6372   -2.1067   -0.0000 C   0  0  0  0  0  0  0  0  0  0  0  0
    2.3355   -4.3820   -0.0000 C   0  0  0  0  0  0  0  0  0  0  0  0
    1.0112    2.4920   -0.0000 N   0  0  0  0  0  0  0  0  0  0  0  0
    3.6597    2.4920   -0.0000 C   0  0  0  0  0  0  0  0  0  0  0  0
    4.9839    0.2047   -0.0000 C   0  0  0  0  0  0  0  0  0  0  0  0
    0.9992   -5.1404   -0.0000 O   0  0  0  0  0  0  0  0  0  0  0  0
   -2.9735   -2.8652   -0.0000 C   0  0  0  0  0  0  0  0  0  0  0  0
    0.8547    4.0088   -0.0000 N   0  0  0  0  0  0  0  0  0  0  0  0
   -0.3732    1.8660   -0.0000 N   0  0  0  0  0  0  0  0  0  0  0  0
    4.9719    1.7456   -0.0000 C   0  0  0  0  0  0  0  0  0  0  0  0
    6.0313   -0.3973   -0.0000 C   0  0  0  0  0  0  0  0  0  0  0  0
   -2.9735   -4.3820   -0.0000 C   0  0  0  0  0  0  0  0  0  0  0  0
   -4.3098   -2.0947   -0.0000 C   0  0  0  0  0  0  0  0  0  0  0  0
   -0.6501    4.3339   -0.0000 C   0  0  0  0  0  0  0  0  0  0  0  0
   -1.4085    3.0096   -0.0000 C   0  0  0  0  0  0  0  0  0  0  0  0
   -4.2978   -5.1404   -0.0000 C   0  0  0  0  0  0  0  0  0  0  0  0
   -5.6340   -2.8531   -0.0000 C   0  0  0  0  0  0  0  0  0  0  0  0
   -4.2978   -6.6573   -0.0000 C   0  0  0  0  0  0  0  0  0  0  0  0
   -5.6340   -4.3700   -0.0000 C   0  0  0  0  0  0  0  0  0  0  0  0
   -2.9856   -7.4037   -0.0000 N   0  0  0  0  0  0  0  0  0  0  0  0
   -5.6220   -7.4157   -0.0000 N   0  0  0  0  0  0  0  0  0  0  0  0
   -2.9856   -8.9205   -0.0000 C   0  0  0  0  0  0  0  0  0  0  0  0
   -5.6220   -8.9326   -0.0000 C   0  0  0  0  0  0  0  0  0  0  0  0
   -4.3098   -9.6790   -0.0000 C   0  0  0  0  0  0  0  0  0  0  0  0
   -1.9382   -9.5104   -0.0000 C   0  0  0  0  0  0  0  0  0  0  0  0
  1  2  2  0  0  0  0
  2  3  1  0  0  0  0
  2  4  1  0  0  0  0
  3  5  1  0  0  0  0
  3  6  1  0  0  0  0
  4  7  2  0  0  0  0
  4  8  1  0  0  0  0
  5  9  1  0  0  0  0
  5 10  1  1  0  0  0
  6 11  1  0  0  0  0
  7 12  1  0  0  0  0
  7 13  1  0  0  0  0
  8 14  2  0  0  0  0
  9 15  1  0  0  0  0
 10 16  1  0  0  0  0
 12 17  1  0  0  0  0
 12 18  1  0  0  0  0
 13 19  2  0  0  0  0
 14 20  1  0  0  0  0
 16 21  2  0  0  0  0
 16 22  1  0  0  0  0
 17 23  2  0  0  0  0
 18 24  2  0  0  0  0
 21 25  1  0  0  0  0
 22 26  2  0  0  0  0
 25 27  1  0  0  0  0
 25 28  2  0  0  0  0
 27 29  2  0  0  0  0
 27 30  1  0  0  0  0
 29 31  1  0  0  0  0
 30 32  2  0  0  0  0
 31 33  2  0  0  0  0
 31 34  1  0  0  0  0
 11 15  1  0  0  0  0
 14 19  1  0  0  0  0
 23 24  1  0  0  0  0
 26 28  1  0  0  0  0
 32 33  1  0  0  0  0
M  END
>  <MolRegNo>
2156942

>  <m>
=

>  <Value>
18000

>  <Unit>
nM

>  <Type>
IC50

>  <pValue>
4.75

>  <Ligand Efficiency>
0.19

>  <Binding Efficiency>
10.44

>  <Surface Efficiency>
5.52

>  <Assay Index>
1058329

>  <Assay Category>


>  <Assay Organism>
Homo sapiens

>  <Target ID>
17045

>  <Target Name>
Cytochrome P450 3A4

>  <Target Organism>
Homo sapiens

>  <Target Description>
Target is a single protein chain

>  <Sequence Accession>
P08684

>  <Reference>


>  <Pubmed ID>


>  <DOI>


$$$$
2165518
Actelion Java MolfileCreator 1.0

 31 35  0  0  1  0  0  0  0  0999 V2000
    0.0000   -0.0000   -0.0000 O   0  0  0  0  0  0  0  0  0  0  0  0
   -0.0119    1.2231   -0.0000 C   0  0  0  0  0  0  0  0  0  0  0  0
   -1.3300    1.9831   -0.0000 N   0  0  0  0  0  0  0  0  0  0  0  0
    1.2825    1.9949   -0.0000 C   0  0  0  0  0  0  0  0  0  0  0  0
   -2.6480    1.2468   -0.0000 C   0  0  0  0  0  0  0  0  0  0  0  0
   -1.3418    3.5030   -0.0000 C   0  0  0  0  0  0  0  0  0  0  0  0
    2.5768    1.2587   -0.0000 C   0  0  0  0  0  0  0  0  0  0  0  0
    1.2706    3.5149   -0.0000 C   0  0  0  0  0  0  0  0  0  0  0  0
   -3.9661    2.0068   -0.0000 C   0  0  0  0  0  0  0  0  0  0  0  0
   -2.6599   -0.2494   -0.0000 C   0  0  0  0  0  0  0  0  0  0  0  0
   -2.6599    4.2630   -0.0000 C   0  0  0  0  0  0  0  0  0  0  0  0
    2.5649   -0.2375   -0.0000 N   0  0  0  0  0  0  0  0  0  0  0  0
    3.8711    2.0306   -0.0000 C   0  0  0  0  0  0  0  0  0  0  0  0
    2.5649    4.2868   -0.0000 C   0  0  0  0  0  0  0  0  0  0  0  0
   -3.9780    3.5268   -0.0000 O   0  0  0  0  0  0  0  0  0  0  0  0
   -3.9780   -0.9856   -0.0000 C   0  0  0  0  0  0  0  0  0  0  0  0
    1.3418   -1.0925   -0.0000 N   0  0  0  0  0  0  0  0  0  0  0  0
    3.7761   -1.0806   -0.0000 N   0  0  0  0  0  0  0  0  0  0  0  0
    3.8593    3.5505   -0.0000 C   0  0  0  0  0  0  0  0  0  0  0  0
   -5.2961   -0.2137   -0.0000 C   0  0  0  0  0  0  0  0  0  0  0  0
   -3.9899   -2.4818   -0.0000 C   0  0  0  0  0  0  0  0  0  0  0  0
    1.8049   -2.5174   -0.0000 C   0  0  0  0  0  0  0  0  0  0  0  0
    3.3012   -2.5056   -0.0000 C   0  0  0  0  0  0  0  0  0  0  0  0
   -6.6142   -0.9500   -0.0000 C   0  0  0  0  0  0  0  0  0  0  0  0
   -5.3080   -3.2180   -0.0000 C   0  0  0  0  0  0  0  0  0  0  0  0
   -7.9323   -0.1781   -0.0000 C   0  0  0  0  0  0  0  0  0  0  0  0
   -6.6261   -2.4462   -0.0000 C   0  0  0  0  0  0  0  0  0  0  0  0
   -9.3097   -0.7837   -0.0000 O   0  0  0  0  0  0  0  0  0  0  0  0
   -8.0748    1.3181   -0.0000 N   0  0  0  0  0  0  0  0  0  0  0  0
  -10.3191    0.3562   -0.0000 C   0  0  0  0  0  0  0  0  0  0  0  0
   -9.5591    1.6506   -0.0000 C   0  0  0  0  0  0  0  0  0  0  0  0
  1  2  2  0  0  0  0
  2  3  1  0  0  0  0
  2  4  1  0  0  0  0
  3  5  1  0  0  0  0
  3  6  1  0  0  0  0
  4  7  2  0  0  0  0
  4  8  1  0  0  0  0
  5  9  1  0  0  0  0
  5 10  1  6  0  0  0
  6 11  1  0  0  0  0
  7 12  1  0  0  0  0
  7 13  1  0  0  0  0
  8 14  2  0  0  0  0
  9 15  1  0  0  0  0
 10 16  1  0  0  0  0
 12 17  1  0  0  0  0
 12 18  1  0  0  0  0
 13 19  2  0  0  0  0
 16 20  2  0  0  0  0
 16 21  1  0  0  0  0
 17 22  2  0  0  0  0
 18 23  2  0  0  0  0
 20 24  1  0  0  0  0
 21 25  2  0  0  0  0
 24 26  1  0  0  0  0
 24 27  2  0  0  0  0
 26 28  1  0  0  0  0
 26 29  2  0  0  0  0
 28 30  1  0  0  0  0
 29 31  1  0  0  0  0
 11 15  1  0  0  0  0
 14 19  1  0  0  0  0
 22 23  1  0  0  0  0
 25 27  1  0  0  0  0
 30 31  2  0  0  0  0
M  END
>  <MolRegNo>
2165518

>  <m>
=

>  <Value>
5100

>  <Unit>
nM

>  <Type>
IC50

>  <pValue>
5.29

>  <Ligand Efficiency>
0.23

>  <Binding Efficiency>
12.74

>  <Surface Efficiency>
6.13

>  <Assay Index>
1058329

>  <Assay Category>


>  <Assay Organism>
Homo sapiens

>  <Target ID>
17045

>  <Target Name>
Cytochrome P450 3A4

>  <Target Organism>
Homo sapiens

>  <Target Description>
Target is a single protein chain

>  <Sequence Accession>
P08684

>  <Reference>


>  <Pubmed ID>


>  <DOI>


$$$$
2150456
Actelion Java MolfileCreator 1.0

 32 36  0  0  1  0  0  0  0  0999 V2000
    0.0000   -0.0000   -0.0000 S   0  0  0  0  0  0  0  0  0  0  0  0
   -1.2433    0.8727   -0.0000 C   0  0  0  0  0  0  0  0  0  0  0  0
   -0.4662   -1.4346   -0.0000 C   0  0  0  0  0  0  0  0  0  0  0  0
   -2.4746   -0.0000   -0.0000 N   0  0  0  0  0  0  0  0  0  0  0  0
   -1.2672    2.4029   -0.0000 C   0  0  0  0  0  0  0  0  0  0  0  0
   -1.9964   -1.4346   -0.0000 C   0  0  0  0  0  0  0  0  0  0  0  0
    0.0239    3.1799   -0.0000 C   0  0  0  0  0  0  0  0  0  0  0  0
   -2.5942    3.1680   -0.0000 C   0  0  0  0  0  0  0  0  0  0  0  0
    0.0000    4.7101   -0.0000 C   0  0  0  0  0  0  0  0  0  0  0  0
   -2.6181    4.6982   -0.0000 C   0  0  0  0  0  0  0  0  0  0  0  0
   -1.3270    5.4752   -0.0000 C   0  0  0  0  0  0  0  0  0  0  0  0
    1.3031    5.4872   -0.0000 C   0  0  0  0  0  0  0  0  0  0  0  0
    2.6061    4.7460   -0.0000 C   0  0  0  0  0  0  0  0  0  0  0  0
    3.9092    5.5231   -0.0000 N   0  0  0  0  0  0  0  0  0  0  0  0
    2.5942    3.2397   -0.0000 C   0  0  0  0  0  0  0  0  0  0  0  0
    3.8972    7.0533   -0.0000 C   0  0  0  0  0  0  0  0  0  0  0  0
    5.2122    4.7819   -0.0000 C   0  0  0  0  0  0  0  0  0  0  0  0
    3.8972    2.4985   -0.0000 O   0  0  0  0  0  0  0  0  0  0  0  0
    2.8333    7.6749   -0.0000 O   0  0  0  0  0  0  0  0  0  0  0  0
    5.2003    7.8303   -0.0000 C   0  0  0  0  0  0  0  0  0  0  0  0
    5.2003    3.2756   -0.0000 C   0  0  0  0  0  0  0  0  0  0  0  0
    5.1883    9.3605   -0.0000 C   0  0  0  0  0  0  0  0  0  0  0  0
    6.5033    7.0891   -0.0000 C   0  0  0  0  0  0  0  0  0  0  0  0
    3.8614   10.1256   -0.0000 N   0  0  0  0  0  0  0  0  0  0  0  0
    6.4914   10.1256   -0.0000 C   0  0  0  0  0  0  0  0  0  0  0  0
    7.8064    7.8542   -0.0000 C   0  0  0  0  0  0  0  0  0  0  0  0
    3.7059   11.6319   -0.0000 N   0  0  0  0  0  0  0  0  0  0  0  0
    2.4866    9.5040   -0.0000 N   0  0  0  0  0  0  0  0  0  0  0  0
    7.7944    9.3844   -0.0000 C   0  0  0  0  0  0  0  0  0  0  0  0
    8.8465    7.2565   -0.0000 C   0  0  0  0  0  0  0  0  0  0  0  0
    2.2116   11.9547   -0.0000 C   0  0  0  0  0  0  0  0  0  0  0  0
    1.4585   10.6397   -0.0000 C   0  0  0  0  0  0  0  0  0  0  0  0
  1  2  1  0  0  0  0
  1  3  1  0  0  0  0
  2  4  2  0  0  0  0
  2  5  1  0  0  0  0
  3  6  2  0  0  0  0
  5  7  2  0  0  0  0
  5  8  1  0  0  0  0
  7  9  1  0  0  0  0
  8 10  2  0  0  0  0
  9 11  2  0  0  0  0
  9 12  1  0  0  0  0
 13 12  1  1  0  0  0
 13 14  1  0  0  0  0
 13 15  1  0  0  0  0
 14 16  1  0  0  0  0
 14 17  1  0  0  0  0
 15 18  1  0  0  0  0
 16 19  2  0  0  0  0
 16 20  1  0  0  0  0
 17 21  1  0  0  0  0
 20 22  2  0  0  0  0
 20 23  1  0  0  0  0
 22 24  1  0  0  0  0
 22 25  1  0  0  0  0
 23 26  2  0  0  0  0
 24 27  1  0  0  0  0
 24 28  1  0  0  0  0
 25 29  2  0  0  0  0
 26 30  1  0  0  0  0
 27 31  2  0  0  0  0
 28 32  2  0  0  0  0
  4  6  1  0  0  0  0
 10 11  1  0  0  0  0
 18 21  1  0  0  0  0
 26 29  1  0  0  0  0
 31 32  1  0  0  0  0
M  END
>  <MolRegNo>
2150456

>  <m>
=

>  <Value>
1200

>  <Unit>
nM

>  <Type>
IC50

>  <pValue>
5.92

>  <Ligand Efficiency>
0.25

>  <Binding Efficiency>
13.29

>  <Surface Efficiency>
8.1

>  <Assay Index>
1058329

>  <Assay Category>


>  <Assay Organism>
Homo sapiens

>  <Target ID>
17045

>  <Target Name>
Cytochrome P450 3A4

>  <Target Organism>
Homo sapiens

>  <Target Description>
Target is a single protein chain

>  <Sequence Accession>
P08684

>  <Reference>


>  <Pubmed ID>


>  <DOI>


$$$$
2176622
Actelion Java MolfileCreator 1.0

 31 35  0  0  1  0  0  0  0  0999 V2000
    0.0000   -0.0000   -0.0000 S   0  0  0  0  0  0  0  0  0  0  0  0
    0.1192   -1.4786   -0.0000 C   0  0  0  0  0  0  0  0  0  0  0  0
   -1.4906    0.3339   -0.0000 C   0  0  0  0  0  0  0  0  0  0  0  0
   -1.2640   -2.0868   -0.0000 N   0  0  0  0  0  0  0  0  0  0  0  0
    1.4190   -2.2299   -0.0000 C   0  0  0  0  0  0  0  0  0  0  0  0
   -2.2656   -0.9659   -0.0000 C   0  0  0  0  0  0  0  0  0  0  0  0
    2.7188   -1.4667   -0.0000 C   0  0  0  0  0  0  0  0  0  0  0  0
    1.4071   -3.7323   -0.0000 C   0  0  0  0  0  0  0  0  0  0  0  0
    4.0185   -2.2179   -0.0000 C   0  0  0  0  0  0  0  0  0  0  0  0
    2.7068   -4.4836   -0.0000 C   0  0  0  0  0  0  0  0  0  0  0  0
    4.0066   -3.7204   -0.0000 C   0  0  0  0  0  0  0  0  0  0  0  0
    5.3183   -1.4548   -0.0000 C   0  0  0  0  0  0  0  0  0  0  0  0
    5.3064    0.0715   -0.0000 C   0  0  0  0  0  0  0  0  0  0  0  0
    6.6061    0.8347   -0.0000 N   0  0  0  0  0  0  0  0  0  0  0  0
    3.9828    0.8347   -0.0000 C   0  0  0  0  0  0  0  0  0  0  0  0
    7.9059    0.0954   -0.0000 C   0  0  0  0  0  0  0  0  0  0  0  0
    6.5942    2.3610   -0.0000 C   0  0  0  0  0  0  0  0  0  0  0  0
    3.9708    2.3610   -0.0000 O   0  0  0  0  0  0  0  0  0  0  0  0
    7.8940   -1.1090   -0.0000 O   0  0  0  0  0  0  0  0  0  0  0  0
    9.2057    0.8705   -0.0000 C   0  0  0  0  0  0  0  0  0  0  0  0
    5.2706    3.1242   -0.0000 C   0  0  0  0  0  0  0  0  0  0  0  0
   10.5054    0.1312   -0.0000 C   0  0  0  0  0  0  0  0  0  0  0  0
    9.1937    2.3968   -0.0000 C   0  0  0  0  0  0  0  0  0  0  0  0
   10.4935   -1.3713   -0.0000 N   0  0  0  0  0  0  0  0  0  0  0  0
   11.8052    0.9063   -0.0000 C   0  0  0  0  0  0  0  0  0  0  0  0
   10.4935    3.1719   -0.0000 C   0  0  0  0  0  0  0  0  0  0  0  0
    9.2653   -2.2299   -0.0000 N   0  0  0  0  0  0  0  0  0  0  0  0
   11.7098   -2.2179   -0.0000 N   0  0  0  0  0  0  0  0  0  0  0  0
   11.7933    2.4326   -0.0000 C   0  0  0  0  0  0  0  0  0  0  0  0
    9.7303   -3.6608   -0.0000 C   0  0  0  0  0  0  0  0  0  0  0  0
   11.2328   -3.6489   -0.0000 C   0  0  0  0  0  0  0  0  0  0  0  0
  1  2  1  0  0  0  0
  1  3  1  0  0  0  0
  2  4  2  0  0  0  0
  2  5  1  0  0  0  0
  3  6  2  0  0  0  0
  5  7  2  0  0  0  0
  5  8  1  0  0  0  0
  7  9  1  0  0  0  0
  8 10  2  0  0  0  0
  9 11  2  0  0  0  0
  9 12  1  0  0  0  0
 13 12  1  6  0  0  0
 13 14  1  0  0  0  0
 13 15  1  0  0  0  0
 14 16  1  0  0  0  0
 14 17  1  0  0  0  0
 15 18  1  0  0  0  0
 16 19  2  0  0  0  0
 16 20  1  0  0  0  0
 17 21  1  0  0  0  0
 20 22  2  0  0  0  0
 20 23  1  0  0  0  0
 22 24  1  0  0  0  0
 22 25  1  0  0  0  0
 23 26  2  0  0  0  0
 24 27  1  0  0  0  0
 24 28  1  0  0  0  0
 25 29  2  0  0  0  0
 27 30  2  0  0  0  0
 28 31  2  0  0  0  0
  4  6  1  0  0  0  0
 10 11  1  0  0  0  0
 18 21  1  0  0  0  0
 26 29  1  0  0  0  0
 30 31  1  0  0  0  0
M  END
>  <MolRegNo>
2176622

>  <m>
=

>  <Value>
2000

>  <Unit>
nM

>  <Type>
IC50

>  <pValue>
5.7

>  <Ligand Efficiency>
0.25

>  <Binding Efficiency>
13.21

>  <Surface Efficiency>
7.79

>  <Assay Index>
1058329

>  <Assay Category>


>  <Assay Organism>
Homo sapiens

>  <Target ID>
17045

>  <Target Name>
Cytochrome P450 3A4

>  <Target Organism>
Homo sapiens

>  <Target Description>
Target is a single protein chain

>  <Sequence Accession>
P08684

>  <Reference>


>  <Pubmed ID>


>  <DOI>


$$$$
2159726
Actelion Java MolfileCreator 1.0

 33 37  0  0  1  0  0  0  0  0999 V2000
    0.0000   -0.0000   -0.0000 O   0  0  0  0  0  0  0  0  0  0  0  0
    1.0418   -0.5987   -0.0000 C   0  0  0  0  0  0  0  0  0  0  0  0
    1.0298   -2.1075   -0.0000 N   0  0  0  0  0  0  0  0  0  0  0  0
    2.3470    0.1796   -0.0000 C   0  0  0  0  0  0  0  0  0  0  0  0
   -0.2994   -2.8618   -0.0000 C   0  0  0  0  0  0  0  0  0  0  0  0
    2.3350   -2.8499   -0.0000 C   0  0  0  0  0  0  0  0  0  0  0  0
    2.3350    1.7123   -0.0000 C   0  0  0  0  0  0  0  0  0  0  0  0
    3.6521   -0.5628   -0.0000 C   0  0  0  0  0  0  0  0  0  0  0  0
   -0.3113   -4.3706   -0.0000 C   0  0  0  0  0  0  0  0  0  0  0  0
   -1.6285   -2.0955   -0.0000 C   0  0  0  0  0  0  0  0  0  0  0  0
    2.3230   -4.3586   -0.0000 C   0  0  0  0  0  0  0  0  0  0  0  0
    1.0058    2.4787   -0.0000 N   0  0  0  0  0  0  0  0  0  0  0  0
    3.6402    2.4787   -0.0000 C   0  0  0  0  0  0  0  0  0  0  0  0
    4.9573    0.2036   -0.0000 C   0  0  0  0  0  0  0  0  0  0  0  0
    0.9939   -5.1130   -0.0000 O   0  0  0  0  0  0  0  0  0  0  0  0
   -2.9576   -2.8499   -0.0000 C   0  0  0  0  0  0  0  0  0  0  0  0
    0.8502    3.9874   -0.0000 N   0  0  0  0  0  0  0  0  0  0  0  0
   -0.3712    1.8560   -0.0000 N   0  0  0  0  0  0  0  0  0  0  0  0
    4.9454    1.7363   -0.0000 C   0  0  0  0  0  0  0  0  0  0  0  0
    5.9991   -0.3951   -0.0000 C   0  0  0  0  0  0  0  0  0  0  0  0
   -2.9576   -4.3586   -0.0000 C   0  0  0  0  0  0  0  0  0  0  0  0
   -4.2868   -2.0835   -0.0000 C   0  0  0  0  0  0  0  0  0  0  0  0
   -0.6466    4.3107   -0.0000 C   0  0  0  0  0  0  0  0  0  0  0  0
   -1.4010    2.9936   -0.0000 C   0  0  0  0  0  0  0  0  0  0  0  0
   -4.2748   -5.1130   -0.0000 C   0  0  0  0  0  0  0  0  0  0  0  0
   -5.6039   -2.8379   -0.0000 C   0  0  0  0  0  0  0  0  0  0  0  0
   -4.2748   -6.6218   -0.0000 C   0  0  0  0  0  0  0  0  0  0  0  0
   -5.6039   -4.3466   -0.0000 C   0  0  0  0  0  0  0  0  0  0  0  0
   -2.9696   -7.3642   -0.0000 N   0  0  0  0  0  0  0  0  0  0  0  0
   -5.5920   -7.3761   -0.0000 C   0  0  0  0  0  0  0  0  0  0  0  0
   -2.9696   -8.8729   -0.0000 N   0  0  0  0  0  0  0  0  0  0  0  0
   -5.5920   -8.8849   -0.0000 C   0  0  0  0  0  0  0  0  0  0  0  0
   -4.2868   -9.6273   -0.0000 C   0  0  0  0  0  0  0  0  0  0  0  0
  1  2  2  0  0  0  0
  2  3  1  0  0  0  0
  2  4  1  0  0  0  0
  3  5  1  0  0  0  0
  3  6  1  0  0  0  0
  4  7  2  0  0  0  0
  4  8  1  0  0  0  0
  5  9  1  0  0  0  0
  5 10  1  1  0  0  0
  6 11  1  0  0  0  0
  7 12  1  0  0  0  0
  7 13  1  0  0  0  0
  8 14  2  0  0  0  0
  9 15  1  0  0  0  0
 10 16  1  0  0  0  0
 12 17  1  0  0  0  0
 12 18  1  0  0  0  0
 13 19  2  0  0  0  0
 14 20  1  0  0  0  0
 16 21  2  0  0  0  0
 16 22  1  0  0  0  0
 17 23  2  0  0  0  0
 18 24  2  0  0  0  0
 21 25  1  0  0  0  0
 22 26  2  0  0  0  0
 25 27  1  0  0  0  0
 25 28  2  0  0  0  0
 27 29  2  0  0  0  0
 27 30  1  0  0  0  0
 29 31  1  0  0  0  0
 30 32  2  0  0  0  0
 31 33  2  0  0  0  0
 11 15  1  0  0  0  0
 14 19  1  0  0  0  0
 23 24  1  0  0  0  0
 26 28  1  0  0  0  0
 32 33  1  0  0  0  0
M  END
>  <MolRegNo>
2159726

>  <m>
=

>  <Value>
6000

>  <Unit>
nM

>  <Type>
IC50

>  <pValue>
5.22

>  <Ligand Efficiency>
0.22

>  <Binding Efficiency>
11.85

>  <Surface Efficiency>
6.07

>  <Assay Index>
1058329

>  <Assay Category>


>  <Assay Organism>
Homo sapiens

>  <Target ID>
17045

>  <Target Name>
Cytochrome P450 3A4

>  <Target Organism>
Homo sapiens

>  <Target Description>
Target is a single protein chain

>  <Sequence Accession>
P08684

>  <Reference>


>  <Pubmed ID>


>  <DOI>


$$$$
2135538
Actelion Java MolfileCreator 1.0

 32 36  0  0  1  0  0  0  0  0999 V2000
    0.0000   -0.0000   -0.0000 O   0  0  0  0  0  0  0  0  0  0  0  0
   -0.0119    1.2217   -0.0000 C   0  0  0  0  0  0  0  0  0  0  0  0
   -1.3284    1.9808   -0.0000 N   0  0  0  0  0  0  0  0  0  0  0  0
    1.2810    1.9927   -0.0000 C   0  0  0  0  0  0  0  0  0  0  0  0
   -2.6450    1.2454   -0.0000 C   0  0  0  0  0  0  0  0  0  0  0  0
   -1.3403    3.4990   -0.0000 C   0  0  0  0  0  0  0  0  0  0  0  0
    2.5738    1.2573   -0.0000 C   0  0  0  0  0  0  0  0  0  0  0  0
    1.2691    3.5109   -0.0000 C   0  0  0  0  0  0  0  0  0  0  0  0
   -3.9616    2.0045   -0.0000 C   0  0  0  0  0  0  0  0  0  0  0  0
   -2.6569   -0.2491   -0.0000 C   0  0  0  0  0  0  0  0  0  0  0  0
   -2.6569    4.2581   -0.0000 C   0  0  0  0  0  0  0  0  0  0  0  0
    2.5620   -0.2372   -0.0000 N   0  0  0  0  0  0  0  0  0  0  0  0
    3.8667    2.0282   -0.0000 C   0  0  0  0  0  0  0  0  0  0  0  0
    2.5620    4.2818   -0.0000 C   0  0  0  0  0  0  0  0  0  0  0  0
   -3.9734    3.5227   -0.0000 O   0  0  0  0  0  0  0  0  0  0  0  0
   -3.9734   -0.9845   -0.0000 C   0  0  0  0  0  0  0  0  0  0  0  0
    1.3403   -1.0912   -0.0000 N   0  0  0  0  0  0  0  0  0  0  0  0
    3.7718   -1.0794   -0.0000 N   0  0  0  0  0  0  0  0  0  0  0  0
    3.8548    3.5465   -0.0000 C   0  0  0  0  0  0  0  0  0  0  0  0
   -5.2900   -0.2135   -0.0000 C   0  0  0  0  0  0  0  0  0  0  0  0
   -3.9853   -2.4790   -0.0000 C   0  0  0  0  0  0  0  0  0  0  0  0
    1.8029   -2.5145   -0.0000 C   0  0  0  0  0  0  0  0  0  0  0  0
    3.2974   -2.5027   -0.0000 C   0  0  0  0  0  0  0  0  0  0  0  0
   -6.6066   -0.9489   -0.0000 C   0  0  0  0  0  0  0  0  0  0  0  0
   -5.3019   -3.2143   -0.0000 C   0  0  0  0  0  0  0  0  0  0  0  0
   -7.9232   -0.1779   -0.0000 C   0  0  0  0  0  0  0  0  0  0  0  0
   -6.6185   -2.4434   -0.0000 C   0  0  0  0  0  0  0  0  0  0  0  0
   -7.9232    1.3403   -0.0000 N   0  0  0  0  0  0  0  0  0  0  0  0
   -9.2398   -0.9133   -0.0000 C   0  0  0  0  0  0  0  0  0  0  0  0
   -9.2398    2.1113   -0.0000 N   0  0  0  0  0  0  0  0  0  0  0  0
  -10.5563   -0.1423   -0.0000 C   0  0  0  0  0  0  0  0  0  0  0  0
  -10.5563    1.3759   -0.0000 C   0  0  0  0  0  0  0  0  0  0  0  0
  1  2  2  0  0  0  0
  2  3  1  0  0  0  0
  2  4  1  0  0  0  0
  3  5  1  0  0  0  0
  3  6  1  0  0  0  0
  4  7  2  0  0  0  0
  4  8  1  0  0  0  0
  5  9  1  0  0  0  0
  5 10  1  6  0  0  0
  6 11  1  0  0  0  0
  7 12  1  0  0  0  0
  7 13  1  0  0  0  0
  8 14  2  0  0  0  0
  9 15  1  0  0  0  0
 10 16  1  0  0  0  0
 12 17  1  0  0  0  0
 12 18  1  0  0  0  0
 13 19  2  0  0  0  0
 16 20  2  0  0  0  0
 16 21  1  0  0  0  0
 17 22  2  0  0  0  0
 18 23  2  0  0  0  0
 20 24  1  0  0  0  0
 21 25  2  0  0  0  0
 24 26  1  0  0  0  0
 24 27  2  0  0  0  0
 26 28  2  0  0  0  0
 26 29  1  0  0  0  0
 28 30  1  0  0  0  0
 29 31  2  0  0  0  0
 30 32  2  0  0  0  0
 11 15  1  0  0  0  0
 14 19  1  0  0  0  0
 22 23  1  0  0  0  0
 25 27  1  0  0  0  0
 31 32  1  0  0  0  0
M  END
>  <MolRegNo>
2135538

>  <m>
=

>  <Value>
9600

>  <Unit>
nM

>  <Type>
IC50

>  <pValue>
5.02

>  <Ligand Efficiency>
0.21

>  <Binding Efficiency>
11.77

>  <Surface Efficiency>
5.83

>  <Assay Index>
1058329

>  <Assay Category>


>  <Assay Organism>
Homo sapiens

>  <Target ID>
17045

>  <Target Name>
Cytochrome P450 3A4

>  <Target Organism>
Homo sapiens

>  <Target Description>
Target is a single protein chain

>  <Sequence Accession>
P08684

>  <Reference>


>  <Pubmed ID>


>  <DOI>


$$$$
2151006
Actelion Java MolfileCreator 1.0

 34 38  0  0  1  0  0  0  0  0999 V2000
    0.0000   -0.0000   -0.0000 F   0  0  0  0  0  0  0  0  0  0  0  0
   -0.0120    1.2368   -0.0000 C   0  0  0  0  0  0  0  0  0  0  0  0
   -1.3449    2.0053   -0.0000 C   0  0  0  0  0  0  0  0  0  0  0  0
    1.2969    2.0053   -0.0000 C   0  0  0  0  0  0  0  0  0  0  0  0
   -1.3569    3.5423   -0.0000 C   0  0  0  0  0  0  0  0  0  0  0  0
   -2.6778    1.2488   -0.0000 C   0  0  0  0  0  0  0  0  0  0  0  0
    1.2848    3.5423   -0.0000 C   0  0  0  0  0  0  0  0  0  0  0  0
    2.3415    1.4049   -0.0000 C   0  0  0  0  0  0  0  0  0  0  0  0
   -2.6898    4.3108   -0.0000 N   0  0  0  0  0  0  0  0  0  0  0  0
   -0.0480    4.3108   -0.0000 C   0  0  0  0  0  0  0  0  0  0  0  0
   -3.7465    1.8732   -0.0000 O   0  0  0  0  0  0  0  0  0  0  0  0
   -2.6898   -0.2642   -0.0000 N   0  0  0  0  0  0  0  0  0  0  0  0
   -2.8459    5.8238   -0.0000 N   0  0  0  0  0  0  0  0  0  0  0  0
   -4.0707    3.6864   -0.0000 N   0  0  0  0  0  0  0  0  0  0  0  0
   -4.0227   -1.0207   -0.0000 C   0  0  0  0  0  0  0  0  0  0  0  0
   -1.3809   -1.0087   -0.0000 C   0  0  0  0  0  0  0  0  0  0  0  0
   -4.3469    6.1481   -0.0000 C   0  0  0  0  0  0  0  0  0  0  0  0
   -5.1034    4.8272   -0.0000 C   0  0  0  0  0  0  0  0  0  0  0  0
   -4.0347   -2.5337   -0.0000 C   0  0  0  0  0  0  0  0  0  0  0  0
   -5.3555   -0.2522   -0.0000 C   0  0  0  0  0  0  0  0  0  0  0  0
   -1.3929   -2.5217   -0.0000 C   0  0  0  0  0  0  0  0  0  0  0  0
   -2.7258   -3.2782   -0.0000 O   0  0  0  0  0  0  0  0  0  0  0  0
   -6.6884   -1.0087   -0.0000 C   0  0  0  0  0  0  0  0  0  0  0  0
   -6.6884   -2.5217   -0.0000 C   0  0  0  0  0  0  0  0  0  0  0  0
   -8.0213   -0.2402   -0.0000 C   0  0  0  0  0  0  0  0  0  0  0  0
   -8.0093   -3.2782   -0.0000 C   0  0  0  0  0  0  0  0  0  0  0  0
   -9.3422   -0.9967   -0.0000 C   0  0  0  0  0  0  0  0  0  0  0  0
   -8.0093   -4.7912   -0.0000 C   0  0  0  0  0  0  0  0  0  0  0  0
   -9.3422   -2.5097   -0.0000 C   0  0  0  0  0  0  0  0  0  0  0  0
   -9.3301   -5.5477   -0.0000 N   0  0  0  0  0  0  0  0  0  0  0  0
   -6.7004   -5.5356   -0.0000 N   0  0  0  0  0  0  0  0  0  0  0  0
   -9.3301   -7.0607   -0.0000 C   0  0  0  0  0  0  0  0  0  0  0  0
   -6.7004   -7.0486   -0.0000 C   0  0  0  0  0  0  0  0  0  0  0  0
   -8.0213   -7.8051   -0.0000 C   0  0  0  0  0  0  0  0  0  0  0  0
  1  2  1  0  0  0  0
  2  3  2  0  0  0  0
  2  4  1  0  0  0  0
  3  5  1  0  0  0  0
  3  6  1  0  0  0  0
  4  7  2  0  0  0  0
  4  8  1  0  0  0  0
  5  9  1  0  0  0  0
  5 10  2  0  0  0  0
  6 11  2  0  0  0  0
  6 12  1  0  0  0  0
  9 13  1  0  0  0  0
  9 14  1  0  0  0  0
 12 15  1  0  0  0  0
 12 16  1  0  0  0  0
 13 17  2  0  0  0  0
 14 18  2  0  0  0  0
 15 19  1  0  0  0  0
 15 20  1  1  0  0  0
 16 21  1  0  0  0  0
 19 22  1  0  0  0  0
 20 23  1  0  0  0  0
 23 24  2  0  0  0  0
 23 25  1  0  0  0  0
 24 26  1  0  0  0  0
 25 27  2  0  0  0  0
 26 28  1  0  0  0  0
 26 29  2  0  0  0  0
 28 30  2  0  0  0  0
 28 31  1  0  0  0  0
 30 32  1  0  0  0  0
 31 33  2  0  0  0  0
 32 34  2  0  0  0  0
  7 10  1  0  0  0  0
 17 18  1  0  0  0  0
 21 22  1  0  0  0  0
 27 29  1  0  0  0  0
 33 34  1  0  0  0  0
M  END
>  <MolRegNo>
2151006

>  <m>
=

>  <Value>
21000

>  <Unit>
nM

>  <Type>
IC50

>  <pValue>
4.68

>  <Ligand Efficiency>
0.19

>  <Binding Efficiency>
10.2

>  <Surface Efficiency>
5.44

>  <Assay Index>
1058329

>  <Assay Category>


>  <Assay Organism>
Homo sapiens

>  <Target ID>
17045

>  <Target Name>
Cytochrome P450 3A4

>  <Target Organism>
Homo sapiens

>  <Target Description>
Target is a single protein chain

>  <Sequence Accession>
P08684

>  <Reference>


>  <Pubmed ID>


>  <DOI>


$$$$
2145525
Actelion Java MolfileCreator 1.0

 33 37  0  0  1  0  0  0  0  0999 V2000
    0.0000   -0.0000   -0.0000 Cl  0  0  0  0  0  0  0  0  0  0  0  0
   -1.0627    0.6209   -0.0000 C   0  0  0  0  0  0  0  0  0  0  0  0
   -2.3881   -0.1194   -0.0000 C   0  0  0  0  0  0  0  0  0  0  0  0
   -1.0746    2.1493   -0.0000 C   0  0  0  0  0  0  0  0  0  0  0  0
   -3.7135    0.6448   -0.0000 C   0  0  0  0  0  0  0  0  0  0  0  0
   -2.4000    2.9135   -0.0000 C   0  0  0  0  0  0  0  0  0  0  0  0
   -3.7254    2.1732   -0.0000 C   0  0  0  0  0  0  0  0  0  0  0  0
   -5.0389   -0.1075   -0.0000 C   0  0  0  0  0  0  0  0  0  0  0  0
   -5.0508    2.9373   -0.0000 N   0  0  0  0  0  0  0  0  0  0  0  0
   -6.1015    0.5134   -0.0000 O   0  0  0  0  0  0  0  0  0  0  0  0
   -5.0508   -1.6120   -0.0000 N   0  0  0  0  0  0  0  0  0  0  0  0
   -5.2060    4.4418   -0.0000 N   0  0  0  0  0  0  0  0  0  0  0  0
   -6.4239    2.3164   -0.0000 N   0  0  0  0  0  0  0  0  0  0  0  0
   -6.3762   -2.3642   -0.0000 C   0  0  0  0  0  0  0  0  0  0  0  0
   -3.7493   -2.3523   -0.0000 C   0  0  0  0  0  0  0  0  0  0  0  0
   -6.6986    4.7642   -0.0000 C   0  0  0  0  0  0  0  0  0  0  0  0
   -7.4508    3.4508   -0.0000 C   0  0  0  0  0  0  0  0  0  0  0  0
   -6.3881   -3.8687   -0.0000 C   0  0  0  0  0  0  0  0  0  0  0  0
   -7.7016   -1.6000   -0.0000 C   0  0  0  0  0  0  0  0  0  0  0  0
   -3.7612   -3.8568   -0.0000 C   0  0  0  0  0  0  0  0  0  0  0  0
   -5.0866   -4.6090   -0.0000 O   0  0  0  0  0  0  0  0  0  0  0  0
   -9.0269   -2.3523   -0.0000 C   0  0  0  0  0  0  0  0  0  0  0  0
   -9.0269   -3.8568   -0.0000 C   0  0  0  0  0  0  0  0  0  0  0  0
  -10.3523   -1.5881   -0.0000 C   0  0  0  0  0  0  0  0  0  0  0  0
  -10.3404   -4.6090   -0.0000 C   0  0  0  0  0  0  0  0  0  0  0  0
  -11.6658   -2.3403   -0.0000 C   0  0  0  0  0  0  0  0  0  0  0  0
  -10.3404   -6.1135   -0.0000 C   0  0  0  0  0  0  0  0  0  0  0  0
  -11.6658   -3.8448   -0.0000 C   0  0  0  0  0  0  0  0  0  0  0  0
  -11.6538   -6.8657   -0.0000 N   0  0  0  0  0  0  0  0  0  0  0  0
   -9.0389   -6.8538   -0.0000 N   0  0  0  0  0  0  0  0  0  0  0  0
  -11.6538   -8.3702   -0.0000 C   0  0  0  0  0  0  0  0  0  0  0  0
   -9.0389   -8.3583   -0.0000 C   0  0  0  0  0  0  0  0  0  0  0  0
  -10.3523   -9.1105   -0.0000 C   0  0  0  0  0  0  0  0  0  0  0  0
  1  2  1  0  0  0  0
  2  3  2  0  0  0  0
  2  4  1  0  0  0  0
  3  5  1  0  0  0  0
  4  6  2  0  0  0  0
  5  7  2  0  0  0  0
  5  8  1  0  0  0  0
  7  9  1  0  0  0  0
  8 10  2  0  0  0  0
  8 11  1  0  0  0  0
  9 12  1  0  0  0  0
  9 13  1  0  0  0  0
 11 14  1  0  0  0  0
 11 15  1  0  0  0  0
 12 16  2  0  0  0  0
 13 17  2  0  0  0  0
 14 18  1  0  0  0  0
 14 19  1  1  0  0  0
 15 20  1  0  0  0  0
 18 21  1  0  0  0  0
 19 22  1  0  0  0  0
 22 23  2  0  0  0  0
 22 24  1  0  0  0  0
 23 25  1  0  0  0  0
 24 26  2  0  0  0  0
 25 27  1  0  0  0  0
 25 28  2  0  0  0  0
 27 29  2  0  0  0  0
 27 30  1  0  0  0  0
 29 31  1  0  0  0  0
 30 32  2  0  0  0  0
 31 33  2  0  0  0  0
  6  7  1  0  0  0  0
 16 17  1  0  0  0  0
 20 21  1  0  0  0  0
 26 28  1  0  0  0  0
 32 33  1  0  0  0  0
M  END
>  <MolRegNo>
2145525

>  <m>
=

>  <Value>
20000

>  <Unit>
nM

>  <Type>
IC50

>  <pValue>
4.7

>  <Ligand Efficiency>
0.19

>  <Binding Efficiency>
10.19

>  <Surface Efficiency>
5.46

>  <Assay Index>
1058329

>  <Assay Category>


>  <Assay Organism>
Homo sapiens

>  <Target ID>
17045

>  <Target Name>
Cytochrome P450 3A4

>  <Target Organism>
Homo sapiens

>  <Target Description>
Target is a single protein chain

>  <Sequence Accession>
P08684

>  <Reference>


>  <Pubmed ID>


>  <DOI>


$$$$
2152186
Actelion Java MolfileCreator 1.0

 33 37  0  0  1  0  0  0  0  0999 V2000
    0.0000   -0.0000   -0.0000 F   0  0  0  0  0  0  0  0  0  0  0  0
    0.0000   -1.2179   -0.0000 C   0  0  0  0  0  0  0  0  0  0  0  0
    1.3144   -1.9655   -0.0000 C   0  0  0  0  0  0  0  0  0  0  0  0
   -1.3264   -1.9776   -0.0000 C   0  0  0  0  0  0  0  0  0  0  0  0
    1.3144   -3.4849   -0.0000 C   0  0  0  0  0  0  0  0  0  0  0  0
    2.6287   -1.1817   -0.0000 C   0  0  0  0  0  0  0  0  0  0  0  0
   -1.3264   -3.4969   -0.0000 C   0  0  0  0  0  0  0  0  0  0  0  0
   -0.0121   -4.2445   -0.0000 C   0  0  0  0  0  0  0  0  0  0  0  0
    3.9431   -1.9293   -0.0000 C   0  0  0  0  0  0  0  0  0  0  0  0
   -0.0121   -5.7639   -0.0000 N   0  0  0  0  0  0  0  0  0  0  0  0
    5.2574   -1.1455   -0.0000 N   0  0  0  0  0  0  0  0  0  0  0  0
    3.9310   -3.4487   -0.0000 C   0  0  0  0  0  0  0  0  0  0  0  0
    1.2179   -6.6200   -0.0000 N   0  0  0  0  0  0  0  0  0  0  0  0
   -1.2541   -6.6321   -0.0000 N   0  0  0  0  0  0  0  0  0  0  0  0
    5.2454    0.3979   -0.0000 C   0  0  0  0  0  0  0  0  0  0  0  0
    6.5718   -1.8932   -0.0000 C   0  0  0  0  0  0  0  0  0  0  0  0
    5.2454   -4.1963   -0.0000 O   0  0  0  0  0  0  0  0  0  0  0  0
    0.7356   -8.0670   -0.0000 C   0  0  0  0  0  0  0  0  0  0  0  0
   -0.7838   -8.0791   -0.0000 C   0  0  0  0  0  0  0  0  0  0  0  0
    4.1722    1.0250   -0.0000 O   0  0  0  0  0  0  0  0  0  0  0  0
    6.5597    1.1817   -0.0000 C   0  0  0  0  0  0  0  0  0  0  0  0
    6.5597   -3.4125   -0.0000 C   0  0  0  0  0  0  0  0  0  0  0  0
    6.5477    2.7252   -0.0000 C   0  0  0  0  0  0  0  0  0  0  0  0
    7.8741    0.4341   -0.0000 C   0  0  0  0  0  0  0  0  0  0  0  0
    5.2092    3.4969   -0.0000 N   0  0  0  0  0  0  0  0  0  0  0  0
    7.8620    3.4969   -0.0000 C   0  0  0  0  0  0  0  0  0  0  0  0
    9.1885    1.2058   -0.0000 C   0  0  0  0  0  0  0  0  0  0  0  0
    5.0524    5.0163   -0.0000 N   0  0  0  0  0  0  0  0  0  0  0  0
    3.8225    2.8699   -0.0000 N   0  0  0  0  0  0  0  0  0  0  0  0
    9.1764    2.7493   -0.0000 C   0  0  0  0  0  0  0  0  0  0  0  0
   10.2375    0.6029   -0.0000 C   0  0  0  0  0  0  0  0  0  0  0  0
    3.5452    5.3418   -0.0000 C   0  0  0  0  0  0  0  0  0  0  0  0
    2.7855    4.0154   -0.0000 C   0  0  0  0  0  0  0  0  0  0  0  0
  1  2  1  0  0  0  0
  2  3  2  0  0  0  0
  2  4  1  0  0  0  0
  3  5  1  0  0  0  0
  3  6  1  0  0  0  0
  4  7  2  0  0  0  0
  5  8  2  0  0  0  0
  9  6  1  1  0  0  0
  8 10  1  0  0  0  0
  9 11  1  0  0  0  0
  9 12  1  0  0  0  0
 10 13  1  0  0  0  0
 10 14  1  0  0  0  0
 11 15  1  0  0  0  0
 11 16  1  0  0  0  0
 12 17  1  0  0  0  0
 13 18  2  0  0  0  0
 14 19  2  0  0  0  0
 15 20  2  0  0  0  0
 15 21  1  0  0  0  0
 16 22  1  0  0  0  0
 21 23  2  0  0  0  0
 21 24  1  0  0  0  0
 23 25  1  0  0  0  0
 23 26  1  0  0  0  0
 24 27  2  0  0  0  0
 25 28  1  0  0  0  0
 25 29  1  0  0  0  0
 26 30  2  0  0  0  0
 27 31  1  0  0  0  0
 28 32  2  0  0  0  0
 29 33  2  0  0  0  0
  7  8  1  0  0  0  0
 17 22  1  0  0  0  0
 18 19  1  0  0  0  0
 27 30  1  0  0  0  0
 32 33  1  0  0  0  0
M  END
>  <MolRegNo>
2152186

>  <m>
=

>  <Value>
33000

>  <Unit>
nM

>  <Type>
IC50

>  <pValue>
4.48

>  <Ligand Efficiency>
0.19

>  <Binding Efficiency>
10.02

>  <Surface Efficiency>
4.93

>  <Assay Index>
1058329

>  <Assay Category>


>  <Assay Organism>
Homo sapiens

>  <Target ID>
17045

>  <Target Name>
Cytochrome P450 3A4

>  <Target Organism>
Homo sapiens

>  <Target Description>
Target is a single protein chain

>  <Sequence Accession>
P08684

>  <Reference>


>  <Pubmed ID>


>  <DOI>


$$$$
2178093
Actelion Java MolfileCreator 1.0

 32 36  0  0  1  0  0  0  0  0999 V2000
    0.0000   -0.0000   -0.0000 F   0  0  0  0  0  0  0  0  0  0  0  0
   -1.0640    0.6217   -0.0000 C   0  0  0  0  0  0  0  0  0  0  0  0
   -2.3910   -0.1195   -0.0000 C   0  0  0  0  0  0  0  0  0  0  0  0
   -1.0759    2.1519   -0.0000 C   0  0  0  0  0  0  0  0  0  0  0  0
   -3.7180    0.6456   -0.0000 C   0  0  0  0  0  0  0  0  0  0  0  0
   -2.4029   -1.6259   -0.0000 C   0  0  0  0  0  0  0  0  0  0  0  0
   -2.4029    2.9170   -0.0000 C   0  0  0  0  0  0  0  0  0  0  0  0
   -3.7299    2.1758   -0.0000 C   0  0  0  0  0  0  0  0  0  0  0  0
   -3.7299   -2.3671   -0.0000 C   0  0  0  0  0  0  0  0  0  0  0  0
   -5.0569    2.9409   -0.0000 N   0  0  0  0  0  0  0  0  0  0  0  0
   -3.7419   -3.8734   -0.0000 N   0  0  0  0  0  0  0  0  0  0  0  0
   -5.0569   -1.5900   -0.0000 C   0  0  0  0  0  0  0  0  0  0  0  0
   -5.2123    4.4472   -0.0000 N   0  0  0  0  0  0  0  0  0  0  0  0
   -6.4317    2.3192   -0.0000 N   0  0  0  0  0  0  0  0  0  0  0  0
   -2.4388   -4.6265   -0.0000 C   0  0  0  0  0  0  0  0  0  0  0  0
   -5.0688   -4.6146   -0.0000 C   0  0  0  0  0  0  0  0  0  0  0  0
   -6.3839   -2.3312   -0.0000 O   0  0  0  0  0  0  0  0  0  0  0  0
   -6.7067    4.7700   -0.0000 C   0  0  0  0  0  0  0  0  0  0  0  0
   -7.4598    3.4549   -0.0000 C   0  0  0  0  0  0  0  0  0  0  0  0
   -1.3987   -4.0168   -0.0000 O   0  0  0  0  0  0  0  0  0  0  0  0
   -2.4627   -6.1328   -0.0000 C   0  0  0  0  0  0  0  0  0  0  0  0
   -6.3958   -3.8375   -0.0000 C   0  0  0  0  0  0  0  0  0  0  0  0
   -1.1716   -6.8860   -0.0000 C   0  0  0  0  0  0  0  0  0  0  0  0
   -3.7897   -6.8740   -0.0000 C   0  0  0  0  0  0  0  0  0  0  0  0
    0.1315   -6.1209   -0.0000 N   0  0  0  0  0  0  0  0  0  0  0  0
   -1.1955   -8.3923   -0.0000 C   0  0  0  0  0  0  0  0  0  0  0  0
   -3.8136   -8.3803   -0.0000 C   0  0  0  0  0  0  0  0  0  0  0  0
    0.2750   -4.6146   -0.0000 N   0  0  0  0  0  0  0  0  0  0  0  0
    1.4824   -6.7545   -0.0000 N   0  0  0  0  0  0  0  0  0  0  0  0
   -2.5225   -9.1335   -0.0000 C   0  0  0  0  0  0  0  0  0  0  0  0
    1.7454   -4.3037   -0.0000 C   0  0  0  0  0  0  0  0  0  0  0  0
    2.4986   -5.6188   -0.0000 C   0  0  0  0  0  0  0  0  0  0  0  0
  1  2  1  0  0  0  0
  2  3  2  0  0  0  0
  2  4  1  0  0  0  0
  3  5  1  0  0  0  0
  3  6  1  0  0  0  0
  4  7  2  0  0  0  0
  5  8  2  0  0  0  0
  9  6  1  1  0  0  0
  8 10  1  0  0  0  0
  9 11  1  0  0  0  0
  9 12  1  0  0  0  0
 10 13  1  0  0  0  0
 10 14  1  0  0  0  0
 11 15  1  0  0  0  0
 11 16  1  0  0  0  0
 12 17  1  0  0  0  0
 13 18  2  0  0  0  0
 14 19  2  0  0  0  0
 15 20  2  0  0  0  0
 15 21  1  0  0  0  0
 16 22  1  0  0  0  0
 21 23  2  0  0  0  0
 21 24  1  0  0  0  0
 23 25  1  0  0  0  0
 23 26  1  0  0  0  0
 24 27  2  0  0  0  0
 25 28  1  0  0  0  0
 25 29  1  0  0  0  0
 26 30  2  0  0  0  0
 28 31  2  0  0  0  0
 29 32  2  0  0  0  0
  7  8  1  0  0  0  0
 17 22  1  0  0  0  0
 18 19  1  0  0  0  0
 27 30  1  0  0  0  0
 31 32  1  0  0  0  0
M  END
>  <MolRegNo>
2178093

>  <m>
=

>  <Value>
20000

>  <Unit>
nM

>  <Type>
IC50

>  <pValue>
4.7

>  <Ligand Efficiency>
0.2

>  <Binding Efficiency>
10.84

>  <Surface Efficiency>
5.17

>  <Assay Index>
1058329

>  <Assay Category>


>  <Assay Organism>
Homo sapiens

>  <Target ID>
17045

>  <Target Name>
Cytochrome P450 3A4

>  <Target Organism>
Homo sapiens

>  <Target Description>
Target is a single protein chain

>  <Sequence Accession>
P08684

>  <Reference>


>  <Pubmed ID>


>  <DOI>


$$$$
2169275
Actelion Java MolfileCreator 1.0

 34 38  0  0  1  0  0  0  0  0999 V2000
    0.0000   -0.0000   -0.0000 O   0  0  0  0  0  0  0  0  0  0  0  0
   -1.0720   -0.6023   -0.0000 C   0  0  0  0  0  0  0  0  0  0  0  0
   -1.0720   -2.1199   -0.0000 N   0  0  0  0  0  0  0  0  0  0  0  0
   -2.4090    0.1686   -0.0000 C   0  0  0  0  0  0  0  0  0  0  0  0
    0.2409   -2.8667   -0.0000 C   0  0  0  0  0  0  0  0  0  0  0  0
   -2.4090   -2.8788   -0.0000 C   0  0  0  0  0  0  0  0  0  0  0  0
   -2.4331    1.7104   -0.0000 C   0  0  0  0  0  0  0  0  0  0  0  0
   -3.7340   -0.5902   -0.0000 C   0  0  0  0  0  0  0  0  0  0  0  0
    0.2289   -4.3844   -0.0000 C   0  0  0  0  0  0  0  0  0  0  0  0
    1.5538   -2.0838   -0.0000 C   0  0  0  0  0  0  0  0  0  0  0  0
   -2.4211   -4.3965   -0.0000 C   0  0  0  0  0  0  0  0  0  0  0  0
   -1.1202    2.4933   -0.0000 N   0  0  0  0  0  0  0  0  0  0  0  0
   -3.7701    2.4813   -0.0000 C   0  0  0  0  0  0  0  0  0  0  0  0
   -5.0710    0.1807   -0.0000 C   0  0  0  0  0  0  0  0  0  0  0  0
   -1.1082   -5.1433   -0.0000 O   0  0  0  0  0  0  0  0  0  0  0  0
    2.8667   -2.8306   -0.0000 C   0  0  0  0  0  0  0  0  0  0  0  0
    0.2529    1.8790   -0.0000 N   0  0  0  0  0  0  0  0  0  0  0  0
   -0.9997    4.0110   -0.0000 N   0  0  0  0  0  0  0  0  0  0  0  0
   -5.0951    1.7225   -0.0000 C   0  0  0  0  0  0  0  0  0  0  0  0
   -6.1430   -0.4216   -0.0000 C   0  0  0  0  0  0  0  0  0  0  0  0
    2.8547   -4.3483   -0.0000 C   0  0  0  0  0  0  0  0  0  0  0  0
    4.1797   -2.0597   -0.0000 C   0  0  0  0  0  0  0  0  0  0  0  0
    1.2527    3.0354   -0.0000 C   0  0  0  0  0  0  0  0  0  0  0  0
    0.4818    4.3483   -0.0000 C   0  0  0  0  0  0  0  0  0  0  0  0
    4.1676   -5.0951   -0.0000 C   0  0  0  0  0  0  0  0  0  0  0  0
    5.4926   -2.8065   -0.0000 C   0  0  0  0  0  0  0  0  0  0  0  0
    5.4805   -4.3242   -0.0000 C   0  0  0  0  0  0  0  0  0  0  0  0
    4.1556   -6.6128   -0.0000 C   0  0  0  0  0  0  0  0  0  0  0  0
    6.7934   -5.0710   -0.0000 O   0  0  0  0  0  0  0  0  0  0  0  0
    2.9029   -7.4800   -0.0000 N   0  0  0  0  0  0  0  0  0  0  0  0
    5.3842   -7.4800   -0.0000 N   0  0  0  0  0  0  0  0  0  0  0  0
    7.8414   -4.4446   -0.0000 C   0  0  0  0  0  0  0  0  0  0  0  0
    3.3606   -8.9254   -0.0000 O   0  0  0  0  0  0  0  0  0  0  0  0
    4.9024   -8.9254   -0.0000 C   0  0  0  0  0  0  0  0  0  0  0  0
  1  2  2  0  0  0  0
  2  3  1  0  0  0  0
  2  4  1  0  0  0  0
  3  5  1  0  0  0  0
  3  6  1  0  0  0  0
  4  7  2  0  0  0  0
  4  8  1  0  0  0  0
  5  9  1  0  0  0  0
  5 10  1  6  0  0  0
  6 11  1  0  0  0  0
  7 12  1  0  0  0  0
  7 13  1  0  0  0  0
  8 14  2  0  0  0  0
  9 15  1  0  0  0  0
 10 16  1  0  0  0  0
 12 17  1  0  0  0  0
 12 18  1  0  0  0  0
 13 19  2  0  0  0  0
 14 20  1  0  0  0  0
 16 21  2  0  0  0  0
 16 22  1  0  0  0  0
 17 23  2  0  0  0  0
 18 24  2  0  0  0  0
 21 25  1  0  0  0  0
 22 26  2  0  0  0  0
 25 27  2  0  0  0  0
 25 28  1  0  0  0  0
 27 29  1  0  0  0  0
 28 30  2  0  0  0  0
 28 31  1  0  0  0  0
 29 32  1  0  0  0  0
 30 33  1  0  0  0  0
 31 34  2  0  0  0  0
 11 15  1  0  0  0  0
 14 19  1  0  0  0  0
 23 24  1  0  0  0  0
 26 27  1  0  0  0  0
 33 34  1  0  0  0  0
M  END
>  <MolRegNo>
2169275

>  <m>
=

>  <Value>
42000

>  <Unit>
nM

>  <Type>
IC50

>  <pValue>
4.38

>  <Ligand Efficiency>
0.18

>  <Binding Efficiency>
9.5

>  <Surface Efficiency>
4.04

>  <Assay Index>
1058329

>  <Assay Category>


>  <Assay Organism>
Homo sapiens

>  <Target ID>
17045

>  <Target Name>
Cytochrome P450 3A4

>  <Target Organism>
Homo sapiens

>  <Target Description>
Target is a single protein chain

>  <Sequence Accession>
P08684

>  <Reference>


>  <Pubmed ID>


>  <DOI>


$$$$
2184878
Actelion Java MolfileCreator 1.0

 33 37  0  0  1  0  0  0  0  0999 V2000
    0.0000   -0.0000   -0.0000 O   0  0  0  0  0  0  0  0  0  0  0  0
   -1.0668   -0.5993   -0.0000 C   0  0  0  0  0  0  0  0  0  0  0  0
   -1.0668   -2.1097   -0.0000 N   0  0  0  0  0  0  0  0  0  0  0  0
   -2.3973    0.1678   -0.0000 C   0  0  0  0  0  0  0  0  0  0  0  0
    0.2397   -2.8528   -0.0000 C   0  0  0  0  0  0  0  0  0  0  0  0
   -2.3973   -2.8648   -0.0000 C   0  0  0  0  0  0  0  0  0  0  0  0
   -2.4213    1.7021   -0.0000 C   0  0  0  0  0  0  0  0  0  0  0  0
   -3.7159   -0.5873   -0.0000 C   0  0  0  0  0  0  0  0  0  0  0  0
    0.2277   -4.3632   -0.0000 C   0  0  0  0  0  0  0  0  0  0  0  0
    1.5463   -2.0737   -0.0000 C   0  0  0  0  0  0  0  0  0  0  0  0
   -2.4093   -4.3751   -0.0000 C   0  0  0  0  0  0  0  0  0  0  0  0
   -1.1148    2.4812   -0.0000 N   0  0  0  0  0  0  0  0  0  0  0  0
   -3.7518    2.4693   -0.0000 C   0  0  0  0  0  0  0  0  0  0  0  0
   -5.0464    0.1798   -0.0000 C   0  0  0  0  0  0  0  0  0  0  0  0
   -1.1028   -5.1183   -0.0000 O   0  0  0  0  0  0  0  0  0  0  0  0
    2.8528   -2.8169   -0.0000 C   0  0  0  0  0  0  0  0  0  0  0  0
    0.2517    1.8699   -0.0000 N   0  0  0  0  0  0  0  0  0  0  0  0
   -0.9949    3.9916   -0.0000 N   0  0  0  0  0  0  0  0  0  0  0  0
   -5.0704    1.7141   -0.0000 C   0  0  0  0  0  0  0  0  0  0  0  0
    2.8409   -4.3272   -0.0000 C   0  0  0  0  0  0  0  0  0  0  0  0
    4.1594   -2.0497   -0.0000 C   0  0  0  0  0  0  0  0  0  0  0  0
    1.2466    3.0207   -0.0000 C   0  0  0  0  0  0  0  0  0  0  0  0
    0.4795    4.3272   -0.0000 C   0  0  0  0  0  0  0  0  0  0  0  0
    4.1474   -5.0704   -0.0000 C   0  0  0  0  0  0  0  0  0  0  0  0
    5.4659   -2.7929   -0.0000 C   0  0  0  0  0  0  0  0  0  0  0  0
    5.4540   -4.3032   -0.0000 C   0  0  0  0  0  0  0  0  0  0  0  0
    4.1354   -6.5807   -0.0000 C   0  0  0  0  0  0  0  0  0  0  0  0
    6.7605   -5.0464   -0.0000 O   0  0  0  0  0  0  0  0  0  0  0  0
    2.8888   -7.4437   -0.0000 N   0  0  0  0  0  0  0  0  0  0  0  0
    5.3581   -7.4437   -0.0000 N   0  0  0  0  0  0  0  0  0  0  0  0
    7.8033   -4.4231   -0.0000 C   0  0  0  0  0  0  0  0  0  0  0  0
    3.3443   -8.8822   -0.0000 O   0  0  0  0  0  0  0  0  0  0  0  0
    4.8786   -8.8822   -0.0000 C   0  0  0  0  0  0  0  0  0  0  0  0
  1  2  2  0  0  0  0
  2  3  1  0  0  0  0
  2  4  1  0  0  0  0
  3  5  1  0  0  0  0
  3  6  1  0  0  0  0
  4  7  2  0  0  0  0
  4  8  1  0  0  0  0
  5  9  1  0  0  0  0
  5 10  1  6  0  0  0
  6 11  1  0  0  0  0
  7 12  1  0  0  0  0
  7 13  1  0  0  0  0
  8 14  2  0  0  0  0
  9 15  1  0  0  0  0
 10 16  1  0  0  0  0
 12 17  1  0  0  0  0
 12 18  1  0  0  0  0
 13 19  2  0  0  0  0
 16 20  2  0  0  0  0
 16 21  1  0  0  0  0
 17 22  2  0  0  0  0
 18 23  2  0  0  0  0
 20 24  1  0  0  0  0
 21 25  2  0  0  0  0
 24 26  2  0  0  0  0
 24 27  1  0  0  0  0
 26 28  1  0  0  0  0
 27 29  2  0  0  0  0
 27 30  1  0  0  0  0
 28 31  1  0  0  0  0
 29 32  1  0  0  0  0
 30 33  2  0  0  0  0
 11 15  1  0  0  0  0
 14 19  1  0  0  0  0
 22 23  1  0  0  0  0
 25 26  1  0  0  0  0
 32 33  1  0  0  0  0
M  END
>  <MolRegNo>
2184878

>  <m>
=

>  <Value>
32000

>  <Unit>
nM

>  <Type>
IC50

>  <pValue>
4.5

>  <Ligand Efficiency>
0.19

>  <Binding Efficiency>
10.07

>  <Surface Efficiency>
4.15

>  <Assay Index>
1058329

>  <Assay Category>


>  <Assay Organism>
Homo sapiens

>  <Target ID>
17045

>  <Target Name>
Cytochrome P450 3A4

>  <Target Organism>
Homo sapiens

>  <Target Description>
Target is a single protein chain

>  <Sequence Accession>
P08684

>  <Reference>


>  <Pubmed ID>


>  <DOI>


$$$$
2157132
Actelion Java MolfileCreator 1.0

 34 38  0  0  1  0  0  0  0  0999 V2000
    0.0000   -0.0000   -0.0000 O   0  0  0  0  0  0  0  0  0  0  0  0
   -1.0719   -0.6022   -0.0000 C   0  0  0  0  0  0  0  0  0  0  0  0
   -1.0719   -2.1197   -0.0000 N   0  0  0  0  0  0  0  0  0  0  0  0
   -2.4088    0.1686   -0.0000 C   0  0  0  0  0  0  0  0  0  0  0  0
    0.2409   -2.8664   -0.0000 C   0  0  0  0  0  0  0  0  0  0  0  0
   -2.4088   -2.8785   -0.0000 C   0  0  0  0  0  0  0  0  0  0  0  0
   -2.4329    1.7102   -0.0000 C   0  0  0  0  0  0  0  0  0  0  0  0
   -3.7336   -0.5901   -0.0000 C   0  0  0  0  0  0  0  0  0  0  0  0
    0.2288   -4.3840   -0.0000 C   0  0  0  0  0  0  0  0  0  0  0  0
    1.5537   -2.0836   -0.0000 C   0  0  0  0  0  0  0  0  0  0  0  0
   -2.4208   -4.3960   -0.0000 C   0  0  0  0  0  0  0  0  0  0  0  0
   -1.1201    2.4931   -0.0000 N   0  0  0  0  0  0  0  0  0  0  0  0
   -3.7697    2.4810   -0.0000 C   0  0  0  0  0  0  0  0  0  0  0  0
   -5.0705    0.1807   -0.0000 C   0  0  0  0  0  0  0  0  0  0  0  0
   -1.1080   -5.1427   -0.0000 O   0  0  0  0  0  0  0  0  0  0  0  0
    2.8664   -2.8303   -0.0000 C   0  0  0  0  0  0  0  0  0  0  0  0
    0.2529    1.8788   -0.0000 N   0  0  0  0  0  0  0  0  0  0  0  0
   -0.9996    4.0106   -0.0000 N   0  0  0  0  0  0  0  0  0  0  0  0
   -5.0946    1.7223   -0.0000 C   0  0  0  0  0  0  0  0  0  0  0  0
    2.8544   -4.3478   -0.0000 C   0  0  0  0  0  0  0  0  0  0  0  0
    4.1792   -2.0595   -0.0000 C   0  0  0  0  0  0  0  0  0  0  0  0
    1.2526    3.0351   -0.0000 C   0  0  0  0  0  0  0  0  0  0  0  0
    0.4818    4.3478   -0.0000 C   0  0  0  0  0  0  0  0  0  0  0  0
   -6.1665    2.3365   -0.0000 C   0  0  0  0  0  0  0  0  0  0  0  0
    4.1672   -5.0946   -0.0000 C   0  0  0  0  0  0  0  0  0  0  0  0
    5.4920   -2.8062   -0.0000 C   0  0  0  0  0  0  0  0  0  0  0  0
    5.4800   -4.3237   -0.0000 C   0  0  0  0  0  0  0  0  0  0  0  0
    4.1551   -6.6121   -0.0000 C   0  0  0  0  0  0  0  0  0  0  0  0
    6.7927   -5.0705   -0.0000 O   0  0  0  0  0  0  0  0  0  0  0  0
    2.9026   -7.4792   -0.0000 N   0  0  0  0  0  0  0  0  0  0  0  0
    5.3836   -7.4792   -0.0000 N   0  0  0  0  0  0  0  0  0  0  0  0
    7.8405   -4.4442   -0.0000 C   0  0  0  0  0  0  0  0  0  0  0  0
    3.3602   -8.9245   -0.0000 O   0  0  0  0  0  0  0  0  0  0  0  0
    4.9018   -8.9245   -0.0000 C   0  0  0  0  0  0  0  0  0  0  0  0
  1  2  2  0  0  0  0
  2  3  1  0  0  0  0
  2  4  1  0  0  0  0
  3  5  1  0  0  0  0
  3  6  1  0  0  0  0
  4  7  2  0  0  0  0
  4  8  1  0  0  0  0
  5  9  1  0  0  0  0
  5 10  1  6  0  0  0
  6 11  1  0  0  0  0
  7 12  1  0  0  0  0
  7 13  1  0  0  0  0
  8 14  2  0  0  0  0
  9 15  1  0  0  0  0
 10 16  1  0  0  0  0
 12 17  1  0  0  0  0
 12 18  1  0  0  0  0
 13 19  2  0  0  0  0
 16 20  2  0  0  0  0
 16 21  1  0  0  0  0
 17 22  2  0  0  0  0
 18 23  2  0  0  0  0
 19 24  1  0  0  0  0
 20 25  1  0  0  0  0
 21 26  2  0  0  0  0
 25 27  2  0  0  0  0
 25 28  1  0  0  0  0
 27 29  1  0  0  0  0
 28 30  2  0  0  0  0
 28 31  1  0  0  0  0
 29 32  1  0  0  0  0
 30 33  1  0  0  0  0
 31 34  2  0  0  0  0
 11 15  1  0  0  0  0
 14 19  1  0  0  0  0
 22 23  1  0  0  0  0
 26 27  1  0  0  0  0
 33 34  1  0  0  0  0
M  END
>  <MolRegNo>
2157132

>  <m>
=

>  <Value>
41000

>  <Unit>
nM

>  <Type>
IC50

>  <pValue>
4.39

>  <Ligand Efficiency>
0.18

>  <Binding Efficiency>
9.53

>  <Surface Efficiency>
4.05

>  <Assay Index>
1058329

>  <Assay Category>


>  <Assay Organism>
Homo sapiens

>  <Target ID>
17045

>  <Target Name>
Cytochrome P450 3A4

>  <Target Organism>
Homo sapiens

>  <Target Description>
Target is a single protein chain

>  <Sequence Accession>
P08684

>  <Reference>


>  <Pubmed ID>


>  <DOI>


$$$$
2186394
Actelion Java MolfileCreator 1.0

 34 38  0  0  1  0  0  0  0  0999 V2000
    0.0000   -0.0000   -0.0000 F   0  0  0  0  0  0  0  0  0  0  0  0
    1.0516   -0.5923   -0.0000 C   0  0  0  0  0  0  0  0  0  0  0  0
    2.3571    0.1934   -0.0000 C   0  0  0  0  0  0  0  0  0  0  0  0
    1.0516   -2.1153   -0.0000 C   0  0  0  0  0  0  0  0  0  0  0  0
    3.6746   -0.5560   -0.0000 C   0  0  0  0  0  0  0  0  0  0  0  0
    2.3692   -2.8647   -0.0000 C   0  0  0  0  0  0  0  0  0  0  0  0
    4.9921    0.2297   -0.0000 N   0  0  0  0  0  0  0  0  0  0  0  0
    3.6746   -2.0791   -0.0000 C   0  0  0  0  0  0  0  0  0  0  0  0
    6.3701   -0.3868   -0.0000 N   0  0  0  0  0  0  0  0  0  0  0  0
    5.1130    1.7527   -0.0000 N   0  0  0  0  0  0  0  0  0  0  0  0
    4.9921   -2.8285   -0.0000 C   0  0  0  0  0  0  0  0  0  0  0  0
    7.3734    0.7736   -0.0000 C   0  0  0  0  0  0  0  0  0  0  0  0
    6.5998    2.0911   -0.0000 C   0  0  0  0  0  0  0  0  0  0  0  0
    6.0438   -2.1999   -0.0000 O   0  0  0  0  0  0  0  0  0  0  0  0
    4.9921   -4.3515   -0.0000 N   0  0  0  0  0  0  0  0  0  0  0  0
    6.3097   -5.1009   -0.0000 C   0  0  0  0  0  0  0  0  0  0  0  0
    3.6504   -5.1130   -0.0000 C   0  0  0  0  0  0  0  0  0  0  0  0
    6.2976   -6.6240   -0.0000 C   0  0  0  0  0  0  0  0  0  0  0  0
    7.6272   -4.3152   -0.0000 C   0  0  0  0  0  0  0  0  0  0  0  0
    3.6383   -6.6361   -0.0000 C   0  0  0  0  0  0  0  0  0  0  0  0
    4.9559   -7.3855   -0.0000 O   0  0  0  0  0  0  0  0  0  0  0  0
    8.9448   -5.0647   -0.0000 C   0  0  0  0  0  0  0  0  0  0  0  0
    8.9327   -6.5877   -0.0000 C   0  0  0  0  0  0  0  0  0  0  0  0
   10.2623   -4.2911   -0.0000 C   0  0  0  0  0  0  0  0  0  0  0  0
   10.2502   -7.3371   -0.0000 C   0  0  0  0  0  0  0  0  0  0  0  0
   11.5798   -5.0405   -0.0000 C   0  0  0  0  0  0  0  0  0  0  0  0
   11.5678   -6.5635   -0.0000 C   0  0  0  0  0  0  0  0  0  0  0  0
   10.2381   -8.8602   -0.0000 C   0  0  0  0  0  0  0  0  0  0  0  0
   12.8853   -7.3130   -0.0000 O   0  0  0  0  0  0  0  0  0  0  0  0
    8.9810   -9.7305   -0.0000 N   0  0  0  0  0  0  0  0  0  0  0  0
   11.4711   -9.7305   -0.0000 N   0  0  0  0  0  0  0  0  0  0  0  0
   13.9369   -6.6844   -0.0000 C   0  0  0  0  0  0  0  0  0  0  0  0
    9.4404  -11.1810   -0.0000 O   0  0  0  0  0  0  0  0  0  0  0  0
   10.9876  -11.1810   -0.0000 C   0  0  0  0  0  0  0  0  0  0  0  0
  1  2  1  0  0  0  0
  2  3  2  0  0  0  0
  2  4  1  0  0  0  0
  3  5  1  0  0  0  0
  4  6  2  0  0  0  0
  5  7  1  0  0  0  0
  5  8  2  0  0  0  0
  7  9  1  0  0  0  0
  7 10  1  0  0  0  0
  8 11  1  0  0  0  0
  9 12  2  0  0  0  0
 10 13  2  0  0  0  0
 11 14  2  0  0  0  0
 11 15  1  0  0  0  0
 15 16  1  0  0  0  0
 15 17  1  0  0  0  0
 16 18  1  0  0  0  0
 16 19  1  6  0  0  0
 17 20  1  0  0  0  0
 18 21  1  0  0  0  0
 19 22  1  0  0  0  0
 22 23  2  0  0  0  0
 22 24  1  0  0  0  0
 23 25  1  0  0  0  0
 24 26  2  0  0  0  0
 25 27  2  0  0  0  0
 25 28  1  0  0  0  0
 27 29  1  0  0  0  0
 28 30  2  0  0  0  0
 28 31  1  0  0  0  0
 29 32  1  0  0  0  0
 30 33  1  0  0  0  0
 31 34  2  0  0  0  0
  6  8  1  0  0  0  0
 12 13  1  0  0  0  0
 20 21  1  0  0  0  0
 26 27  1  0  0  0  0
 33 34  1  0  0  0  0
M  END
>  <MolRegNo>
2186394

>  <m>
=

>  <Value>
42000

>  <Unit>
nM

>  <Type>
IC50

>  <pValue>
4.38

>  <Ligand Efficiency>
0.18

>  <Binding Efficiency>
9.42

>  <Surface Efficiency>
4.04

>  <Assay Index>
1058329

>  <Assay Category>


>  <Assay Organism>
Homo sapiens

>  <Target ID>
17045

>  <Target Name>
Cytochrome P450 3A4

>  <Target Organism>
Homo sapiens

>  <Target Description>
Target is a single protein chain

>  <Sequence Accession>
P08684

>  <Reference>


>  <Pubmed ID>


>  <DOI>


$$$$
2148352
Actelion Java MolfileCreator 1.0

 33 37  0  0  1  0  0  0  0  0999 V2000
    0.0000   -0.0000   -0.0000 F   0  0  0  0  0  0  0  0  0  0  0  0
    0.0000    1.2393   -0.0000 C   0  0  0  0  0  0  0  0  0  0  0  0
    1.3114    2.0093   -0.0000 C   0  0  0  0  0  0  0  0  0  0  0  0
   -1.3235    2.0213   -0.0000 C   0  0  0  0  0  0  0  0  0  0  0  0
    1.3114    3.5493   -0.0000 C   0  0  0  0  0  0  0  0  0  0  0  0
    2.6229    1.2513   -0.0000 C   0  0  0  0  0  0  0  0  0  0  0  0
   -1.3235    3.5613   -0.0000 C   0  0  0  0  0  0  0  0  0  0  0  0
   -0.0120    4.3314   -0.0000 C   0  0  0  0  0  0  0  0  0  0  0  0
    3.9343    2.0213   -0.0000 C   0  0  0  0  0  0  0  0  0  0  0  0
   -0.0120    5.8714   -0.0000 N   0  0  0  0  0  0  0  0  0  0  0  0
    5.2458    1.2633   -0.0000 N   0  0  0  0  0  0  0  0  0  0  0  0
    3.9223    3.5613   -0.0000 C   0  0  0  0  0  0  0  0  0  0  0  0
    1.2152    6.7497   -0.0000 N   0  0  0  0  0  0  0  0  0  0  0  0
   -1.2513    6.7617   -0.0000 N   0  0  0  0  0  0  0  0  0  0  0  0
    5.2337   -0.2527   -0.0000 C   0  0  0  0  0  0  0  0  0  0  0  0
    6.5572    2.0333   -0.0000 C   0  0  0  0  0  0  0  0  0  0  0  0
    5.2337    4.3314   -0.0000 O   0  0  0  0  0  0  0  0  0  0  0  0
    0.7339    8.2176   -0.0000 C   0  0  0  0  0  0  0  0  0  0  0  0
   -0.7821    8.2296   -0.0000 C   0  0  0  0  0  0  0  0  0  0  0  0
    4.1629   -0.8542   -0.0000 O   0  0  0  0  0  0  0  0  0  0  0  0
    6.5452   -1.0107   -0.0000 C   0  0  0  0  0  0  0  0  0  0  0  0
    6.5452    3.5734   -0.0000 C   0  0  0  0  0  0  0  0  0  0  0  0
    6.5331   -2.5266   -0.0000 C   0  0  0  0  0  0  0  0  0  0  0  0
    7.8566   -0.2406   -0.0000 C   0  0  0  0  0  0  0  0  0  0  0  0
    5.1976   -3.2726   -0.0000 N   0  0  0  0  0  0  0  0  0  0  0  0
    7.8446   -3.2726   -0.0000 C   0  0  0  0  0  0  0  0  0  0  0  0
    9.1681   -0.9866   -0.0000 C   0  0  0  0  0  0  0  0  0  0  0  0
    3.8140   -2.6349   -0.0000 N   0  0  0  0  0  0  0  0  0  0  0  0
    5.0533   -4.7645   -0.0000 N   0  0  0  0  0  0  0  0  0  0  0  0
    9.1560   -2.5026   -0.0000 C   0  0  0  0  0  0  0  0  0  0  0  0
    2.7793   -3.7539   -0.0000 C   0  0  0  0  0  0  0  0  0  0  0  0
    3.5493   -5.0773   -0.0000 C   0  0  0  0  0  0  0  0  0  0  0  0
   10.2028   -3.1041   -0.0000 C   0  0  0  0  0  0  0  0  0  0  0  0
  1  2  1  0  0  0  0
  2  3  2  0  0  0  0
  2  4  1  0  0  0  0
  3  5  1  0  0  0  0
  3  6  1  0  0  0  0
  4  7  2  0  0  0  0
  5  8  2  0  0  0  0
  9  6  1  6  0  0  0
  8 10  1  0  0  0  0
  9 11  1  0  0  0  0
  9 12  1  0  0  0  0
 10 13  1  0  0  0  0
 10 14  1  0  0  0  0
 11 15  1  0  0  0  0
 11 16  1  0  0  0  0
 12 17  1  0  0  0  0
 13 18  2  0  0  0  0
 14 19  2  0  0  0  0
 15 20  2  0  0  0  0
 15 21  1  0  0  0  0
 16 22  1  0  0  0  0
 21 23  2  0  0  0  0
 21 24  1  0  0  0  0
 23 25  1  0  0  0  0
 23 26  1  0  0  0  0
 24 27  2  0  0  0  0
 25 28  1  0  0  0  0
 25 29  1  0  0  0  0
 26 30  2  0  0  0  0
 28 31  2  0  0  0  0
 29 32  2  0  0  0  0
 30 33  1  0  0  0  0
  7  8  1  0  0  0  0
 17 22  1  0  0  0  0
 18 19  1  0  0  0  0
 27 30  1  0  0  0  0
 31 32  1  0  0  0  0
M  END
>  <MolRegNo>
2148352

>  <m>
=

>  <Value>
29000

>  <Unit>
nM

>  <Type>
IC50

>  <pValue>
4.54

>  <Ligand Efficiency>
0.19

>  <Binding Efficiency>
10.14

>  <Surface Efficiency>
4.99

>  <Assay Index>
1058329

>  <Assay Category>


>  <Assay Organism>
Homo sapiens

>  <Target ID>
17045

>  <Target Name>
Cytochrome P450 3A4

>  <Target Organism>
Homo sapiens

>  <Target Description>
Target is a single protein chain

>  <Sequence Accession>
P08684

>  <Reference>


>  <Pubmed ID>


>  <DOI>


$$$$
2142838
Actelion Java MolfileCreator 1.0

 32 36  0  0  1  0  0  0  0  0999 V2000
    0.0000   -0.0000   -0.0000 O   0  0  0  0  0  0  0  0  0  0  0  0
   -0.0119    1.2297   -0.0000 C   0  0  0  0  0  0  0  0  0  0  0  0
   -1.3372    2.0058   -0.0000 N   0  0  0  0  0  0  0  0  0  0  0  0
    1.2894    1.9939   -0.0000 C   0  0  0  0  0  0  0  0  0  0  0  0
   -2.6625    1.2656   -0.0000 C   0  0  0  0  0  0  0  0  0  0  0  0
   -1.3491    3.5340   -0.0000 C   0  0  0  0  0  0  0  0  0  0  0  0
    2.5908    1.2536   -0.0000 C   0  0  0  0  0  0  0  0  0  0  0  0
    1.2775    3.5221   -0.0000 C   0  0  0  0  0  0  0  0  0  0  0  0
   -3.9877    2.0416   -0.0000 C   0  0  0  0  0  0  0  0  0  0  0  0
   -2.6863   -0.2388   -0.0000 C   0  0  0  0  0  0  0  0  0  0  0  0
   -2.6744    4.3101   -0.0000 C   0  0  0  0  0  0  0  0  0  0  0  0
    2.5789   -0.2507   -0.0000 N   0  0  0  0  0  0  0  0  0  0  0  0
    3.8922    2.0177   -0.0000 C   0  0  0  0  0  0  0  0  0  0  0  0
    2.5789    4.2862   -0.0000 C   0  0  0  0  0  0  0  0  0  0  0  0
   -3.9996    3.5698   -0.0000 O   0  0  0  0  0  0  0  0  0  0  0  0
   -4.0116   -0.9790   -0.0000 C   0  0  0  0  0  0  0  0  0  0  0  0
    1.3372   -1.1103   -0.0000 N   0  0  0  0  0  0  0  0  0  0  0  0
    3.7967   -1.1103   -0.0000 N   0  0  0  0  0  0  0  0  0  0  0  0
    3.8803    3.5460   -0.0000 C   0  0  0  0  0  0  0  0  0  0  0  0
    4.9309    1.4208   -0.0000 C   0  0  0  0  0  0  0  0  0  0  0  0
   -5.3249   -0.2030   -0.0000 C   0  0  0  0  0  0  0  0  0  0  0  0
   -4.0355   -2.4834   -0.0000 C   0  0  0  0  0  0  0  0  0  0  0  0
    1.7909   -2.5431   -0.0000 C   0  0  0  0  0  0  0  0  0  0  0  0
    3.3191   -2.5431   -0.0000 C   0  0  0  0  0  0  0  0  0  0  0  0
   -6.6502   -0.9432   -0.0000 C   0  0  0  0  0  0  0  0  0  0  0  0
   -5.3607   -3.2236   -0.0000 C   0  0  0  0  0  0  0  0  0  0  0  0
   -7.9754   -0.1671   -0.0000 N   0  0  0  0  0  0  0  0  0  0  0  0
   -6.6740   -2.4475   -0.0000 C   0  0  0  0  0  0  0  0  0  0  0  0
   -9.3604   -0.7761   -0.0000 N   0  0  0  0  0  0  0  0  0  0  0  0
   -8.1187    1.3372   -0.0000 N   0  0  0  0  0  0  0  0  0  0  0  0
  -10.3752    0.3701   -0.0000 C   0  0  0  0  0  0  0  0  0  0  0  0
   -9.6111    1.6715   -0.0000 C   0  0  0  0  0  0  0  0  0  0  0  0
  1  2  2  0  0  0  0
  2  3  1  0  0  0  0
  2  4  1  0  0  0  0
  3  5  1  0  0  0  0
  3  6  1  0  0  0  0
  4  7  2  0  0  0  0
  4  8  1  0  0  0  0
  5  9  1  0  0  0  0
  5 10  1  6  0  0  0
  6 11  1  0  0  0  0
  7 12  1  0  0  0  0
  7 13  1  0  0  0  0
  8 14  2  0  0  0  0
  9 15  1  0  0  0  0
 10 16  1  0  0  0  0
 12 17  1  0  0  0  0
 12 18  1  0  0  0  0
 13 19  2  0  0  0  0
 13 20  1  0  0  0  0
 16 21  2  0  0  0  0
 16 22  1  0  0  0  0
 17 23  2  0  0  0  0
 18 24  2  0  0  0  0
 21 25  1  0  0  0  0
 22 26  2  0  0  0  0
 25 27  1  0  0  0  0
 25 28  2  0  0  0  0
 27 29  1  0  0  0  0
 27 30  1  0  0  0  0
 29 31  2  0  0  0  0
 30 32  2  0  0  0  0
 11 15  1  0  0  0  0
 14 19  1  0  0  0  0
 23 24  1  0  0  0  0
 26 28  1  0  0  0  0
 31 32  1  0  0  0  0
M  END
>  <MolRegNo>
2142838

>  <m>
=

>  <Value>
33000

>  <Unit>
nM

>  <Type>
IC50

>  <pValue>
4.48

>  <Ligand Efficiency>
0.19

>  <Binding Efficiency>
10.43

>  <Surface Efficiency>
4.93

>  <Assay Index>
1058329

>  <Assay Category>


>  <Assay Organism>
Homo sapiens

>  <Target ID>
17045

>  <Target Name>
Cytochrome P450 3A4

>  <Target Organism>
Homo sapiens

>  <Target Description>
Target is a single protein chain

>  <Sequence Accession>
P08684

>  <Reference>


>  <Pubmed ID>


>  <DOI>


$$$$
2254414
Actelion Java MolfileCreator 1.0

 33 37  0  0  1  0  0  0  0  0999 V2000
    0.0000   -0.0000   -0.0000 O   0  0  0  0  0  0  0  0  0  0  0  0
    1.0475   -0.6020   -0.0000 C   0  0  0  0  0  0  0  0  0  0  0  0
    1.0354   -2.1190   -0.0000 N   0  0  0  0  0  0  0  0  0  0  0  0
    2.3598    0.1806   -0.0000 C   0  0  0  0  0  0  0  0  0  0  0  0
   -0.3010   -2.8776   -0.0000 C   0  0  0  0  0  0  0  0  0  0  0  0
    2.3478   -2.8655   -0.0000 C   0  0  0  0  0  0  0  0  0  0  0  0
    2.3478    1.7217   -0.0000 C   0  0  0  0  0  0  0  0  0  0  0  0
    3.6722   -0.5659   -0.0000 C   0  0  0  0  0  0  0  0  0  0  0  0
   -0.3130   -4.3946   -0.0000 C   0  0  0  0  0  0  0  0  0  0  0  0
   -1.6374   -2.1070   -0.0000 C   0  0  0  0  0  0  0  0  0  0  0  0
    2.3358   -4.3826   -0.0000 C   0  0  0  0  0  0  0  0  0  0  0  0
    1.0114    2.4923   -0.0000 N   0  0  0  0  0  0  0  0  0  0  0  0
    3.6602    2.4923   -0.0000 C   0  0  0  0  0  0  0  0  0  0  0  0
    4.9846    0.2047   -0.0000 C   0  0  0  0  0  0  0  0  0  0  0  0
    0.9993   -5.1411   -0.0000 O   0  0  0  0  0  0  0  0  0  0  0  0
   -2.9739   -2.8655   -0.0000 C   0  0  0  0  0  0  0  0  0  0  0  0
    0.8548    4.0093   -0.0000 N   0  0  0  0  0  0  0  0  0  0  0  0
   -0.3732    1.8662   -0.0000 N   0  0  0  0  0  0  0  0  0  0  0  0
    4.9725    1.7458   -0.0000 C   0  0  0  0  0  0  0  0  0  0  0  0
    6.0320   -0.3973   -0.0000 C   0  0  0  0  0  0  0  0  0  0  0  0
   -2.9739   -4.3826   -0.0000 C   0  0  0  0  0  0  0  0  0  0  0  0
   -4.3103   -2.0950   -0.0000 C   0  0  0  0  0  0  0  0  0  0  0  0
   -0.6502    4.3344   -0.0000 C   0  0  0  0  0  0  0  0  0  0  0  0
   -1.4087    3.0100   -0.0000 C   0  0  0  0  0  0  0  0  0  0  0  0
   -4.2983   -5.1411   -0.0000 C   0  0  0  0  0  0  0  0  0  0  0  0
   -5.6347   -2.8535   -0.0000 C   0  0  0  0  0  0  0  0  0  0  0  0
   -4.2983   -6.6581   -0.0000 N   0  0  0  0  0  0  0  0  0  0  0  0
   -5.6347   -4.3705   -0.0000 C   0  0  0  0  0  0  0  0  0  0  0  0
   -5.5384   -7.5370   -0.0000 N   0  0  0  0  0  0  0  0  0  0  0  0
   -3.0702   -7.5129   -0.0000 N   0  0  0  0  0  0  0  0  0  0  0  0
   -6.7063   -4.9725   -0.0000 C   0  0  0  0  0  0  0  0  0  0  0  0
   -5.0688   -8.9698   -0.0000 C   0  0  0  0  0  0  0  0  0  0  0  0
   -3.5398   -8.9577   -0.0000 C   0  0  0  0  0  0  0  0  0  0  0  0
  1  2  2  0  0  0  0
  2  3  1  0  0  0  0
  2  4  1  0  0  0  0
  3  5  1  0  0  0  0
  3  6  1  0  0  0  0
  4  7  2  0  0  0  0
  4  8  1  0  0  0  0
  5  9  1  0  0  0  0
  5 10  1  1  0  0  0
  6 11  1  0  0  0  0
  7 12  1  0  0  0  0
  7 13  1  0  0  0  0
  8 14  2  0  0  0  0
  9 15  1  0  0  0  0
 10 16  1  0  0  0  0
 12 17  1  0  0  0  0
 12 18  1  0  0  0  0
 13 19  2  0  0  0  0
 14 20  1  0  0  0  0
 16 21  2  0  0  0  0
 16 22  1  0  0  0  0
 17 23  2  0  0  0  0
 18 24  2  0  0  0  0
 21 25  1  0  0  0  0
 22 26  2  0  0  0  0
 25 27  1  0  0  0  0
 25 28  2  0  0  0  0
 27 29  1  0  0  0  0
 27 30  1  0  0  0  0
 28 31  1  0  0  0  0
 29 32  2  0  0  0  0
 30 33  2  0  0  0  0
 11 15  1  0  0  0  0
 14 19  1  0  0  0  0
 23 24  1  0  0  0  0
 26 28  1  0  0  0  0
 32 33  1  0  0  0  0
M  END
>  <MolRegNo>
2254414

>  <m>
=

>  <Value>
22000

>  <Unit>
nM

>  <Type>
IC50

>  <pValue>
4.66

>  <Ligand Efficiency>
0.19

>  <Binding Efficiency>
10.5

>  <Surface Efficiency>
5.12

>  <Assay Index>
1058329

>  <Assay Category>


>  <Assay Organism>
Homo sapiens

>  <Target ID>
17045

>  <Target Name>
Cytochrome P450 3A4

>  <Target Organism>
Homo sapiens

>  <Target Description>
Target is a single protein chain

>  <Sequence Accession>
P08684

>  <Reference>


>  <Pubmed ID>


>  <DOI>


$$$$
2182370
Actelion Java MolfileCreator 1.0

 32 36  0  0  1  0  0  0  0  0999 V2000
    0.0000   -0.0000   -0.0000 O   0  0  0  0  0  0  0  0  0  0  0  0
   -1.0671   -0.5995   -0.0000 C   0  0  0  0  0  0  0  0  0  0  0  0
   -1.0671   -2.1103   -0.0000 N   0  0  0  0  0  0  0  0  0  0  0  0
   -2.3980    0.1679   -0.0000 C   0  0  0  0  0  0  0  0  0  0  0  0
    0.2398   -2.8536   -0.0000 C   0  0  0  0  0  0  0  0  0  0  0  0
   -2.3980   -2.8656   -0.0000 C   0  0  0  0  0  0  0  0  0  0  0  0
   -2.4220    1.7026   -0.0000 C   0  0  0  0  0  0  0  0  0  0  0  0
   -3.7169   -0.5875   -0.0000 C   0  0  0  0  0  0  0  0  0  0  0  0
    0.2278   -4.3644   -0.0000 C   0  0  0  0  0  0  0  0  0  0  0  0
    1.5467   -2.0743   -0.0000 C   0  0  0  0  0  0  0  0  0  0  0  0
   -2.4100   -4.3764   -0.0000 C   0  0  0  0  0  0  0  0  0  0  0  0
   -1.1151    2.4820   -0.0000 N   0  0  0  0  0  0  0  0  0  0  0  0
   -3.7529    2.4700   -0.0000 C   0  0  0  0  0  0  0  0  0  0  0  0
   -5.0478    0.1799   -0.0000 C   0  0  0  0  0  0  0  0  0  0  0  0
   -1.1031   -5.1198   -0.0000 O   0  0  0  0  0  0  0  0  0  0  0  0
    2.8536   -2.8177   -0.0000 C   0  0  0  0  0  0  0  0  0  0  0  0
    0.2518    1.8705   -0.0000 N   0  0  0  0  0  0  0  0  0  0  0  0
   -0.9952    3.9927   -0.0000 N   0  0  0  0  0  0  0  0  0  0  0  0
   -5.0718    1.7146   -0.0000 C   0  0  0  0  0  0  0  0  0  0  0  0
    2.8417   -4.3284   -0.0000 C   0  0  0  0  0  0  0  0  0  0  0  0
    4.1606   -2.0503   -0.0000 C   0  0  0  0  0  0  0  0  0  0  0  0
    1.2470    3.0215   -0.0000 C   0  0  0  0  0  0  0  0  0  0  0  0
    0.4796    4.3284   -0.0000 C   0  0  0  0  0  0  0  0  0  0  0  0
    4.1486   -5.0718   -0.0000 C   0  0  0  0  0  0  0  0  0  0  0  0
    5.4675   -2.7937   -0.0000 C   0  0  0  0  0  0  0  0  0  0  0  0
    4.1366   -6.5826   -0.0000 N   0  0  0  0  0  0  0  0  0  0  0  0
    5.4555   -4.3044   -0.0000 C   0  0  0  0  0  0  0  0  0  0  0  0
    2.8896   -7.4459   -0.0000 N   0  0  0  0  0  0  0  0  0  0  0  0
    5.3596   -7.4459   -0.0000 N   0  0  0  0  0  0  0  0  0  0  0  0
    6.4986   -4.9039   -0.0000 C   0  0  0  0  0  0  0  0  0  0  0  0
    3.3452   -8.8847   -0.0000 C   0  0  0  0  0  0  0  0  0  0  0  0
    4.8800   -8.8847   -0.0000 C   0  0  0  0  0  0  0  0  0  0  0  0
  1  2  2  0  0  0  0
  2  3  1  0  0  0  0
  2  4  1  0  0  0  0
  3  5  1  0  0  0  0
  3  6  1  0  0  0  0
  4  7  2  0  0  0  0
  4  8  1  0  0  0  0
  5  9  1  0  0  0  0
  5 10  1  6  0  0  0
  6 11  1  0  0  0  0
  7 12  1  0  0  0  0
  7 13  1  0  0  0  0
  8 14  2  0  0  0  0
  9 15  1  0  0  0  0
 10 16  1  0  0  0  0
 12 17  1  0  0  0  0
 12 18  1  0  0  0  0
 13 19  2  0  0  0  0
 16 20  2  0  0  0  0
 16 21  1  0  0  0  0
 17 22  2  0  0  0  0
 18 23  2  0  0  0  0
 20 24  1  0  0  0  0
 21 25  2  0  0  0  0
 24 26  1  0  0  0  0
 24 27  2  0  0  0  0
 26 28  1  0  0  0  0
 26 29  1  0  0  0  0
 27 30  1  0  0  0  0
 28 31  2  0  0  0  0
 29 32  2  0  0  0  0
 11 15  1  0  0  0  0
 14 19  1  0  0  0  0
 22 23  1  0  0  0  0
 25 27  1  0  0  0  0
 31 32  1  0  0  0  0
M  END
>  <MolRegNo>
2182370

>  <m>
=

>  <Value>
36000

>  <Unit>
nM

>  <Type>
IC50

>  <pValue>
4.44

>  <Ligand Efficiency>
0.19

>  <Binding Efficiency>
10.35

>  <Surface Efficiency>
4.89

>  <Assay Index>
1058329

>  <Assay Category>


>  <Assay Organism>
Homo sapiens

>  <Target ID>
17045

>  <Target Name>
Cytochrome P450 3A4

>  <Target Organism>
Homo sapiens

>  <Target Description>
Target is a single protein chain

>  <Sequence Accession>
P08684

>  <Reference>


>  <Pubmed ID>


>  <DOI>


$$$$
2104501
Actelion Java MolfileCreator 1.0

 33 37  0  0  1  0  0  0  0  0999 V2000
    0.0000   -0.0000   -0.0000 O   0  0  0  0  0  0  0  0  0  0  0  0
    1.0440    0.6240   -0.0000 C   0  0  0  0  0  0  0  0  0  0  0  0
    1.0320    2.1600   -0.0000 N   0  0  0  0  0  0  0  0  0  0  0  0
    2.3520   -0.1320   -0.0000 C   0  0  0  0  0  0  0  0  0  0  0  0
   -0.3000    2.9400   -0.0000 C   0  0  0  0  0  0  0  0  0  0  0  0
    2.3400    2.9280   -0.0000 C   0  0  0  0  0  0  0  0  0  0  0  0
    2.3400   -1.6440   -0.0000 C   0  0  0  0  0  0  0  0  0  0  0  0
    3.6600    0.6360   -0.0000 C   0  0  0  0  0  0  0  0  0  0  0  0
   -0.3120    4.4760   -0.0000 C   0  0  0  0  0  0  0  0  0  0  0  0
   -1.6320    2.1960   -0.0000 C   0  0  0  0  0  0  0  0  0  0  0  0
    2.3280    4.4640   -0.0000 C   0  0  0  0  0  0  0  0  0  0  0  0
    1.0080   -2.3880   -0.0000 N   0  0  0  0  0  0  0  0  0  0  0  0
    3.6480   -2.3880   -0.0000 C   0  0  0  0  0  0  0  0  0  0  0  0
    4.9680   -0.1080   -0.0000 C   0  0  0  0  0  0  0  0  0  0  0  0
    0.9960    5.2440   -0.0000 O   0  0  0  0  0  0  0  0  0  0  0  0
   -2.9640    2.9760   -0.0000 C   0  0  0  0  0  0  0  0  0  0  0  0
   -0.3720   -1.7520   -0.0000 N   0  0  0  0  0  0  0  0  0  0  0  0
    0.8640   -3.8760   -0.0000 N   0  0  0  0  0  0  0  0  0  0  0  0
    4.9560   -1.6200   -0.0000 C   0  0  0  0  0  0  0  0  0  0  0  0
   -2.9640    4.5120   -0.0000 C   0  0  0  0  0  0  0  0  0  0  0  0
   -4.2960    2.2320   -0.0000 C   0  0  0  0  0  0  0  0  0  0  0  0
   -1.4040   -2.8680   -0.0000 C   0  0  0  0  0  0  0  0  0  0  0  0
   -0.6360   -4.1880   -0.0000 C   0  0  0  0  0  0  0  0  0  0  0  0
    6.0000   -2.2200   -0.0000 C   0  0  0  0  0  0  0  0  0  0  0  0
   -4.2840    5.2920   -0.0000 C   0  0  0  0  0  0  0  0  0  0  0  0
   -5.6160    3.0120   -0.0000 C   0  0  0  0  0  0  0  0  0  0  0  0
   -4.2840    6.8281   -0.0000 N   0  0  0  0  0  0  0  0  0  0  0  0
   -5.6160    4.5480   -0.0000 C   0  0  0  0  0  0  0  0  0  0  0  0
   -5.5200    7.7281   -0.0000 N   0  0  0  0  0  0  0  0  0  0  0  0
   -3.0600    7.7041   -0.0000 N   0  0  0  0  0  0  0  0  0  0  0  0
   -6.6841    5.1720   -0.0000 C   0  0  0  0  0  0  0  0  0  0  0  0
   -5.0520    9.1801   -0.0000 C   0  0  0  0  0  0  0  0  0  0  0  0
   -3.5280    9.1681   -0.0000 C   0  0  0  0  0  0  0  0  0  0  0  0
  1  2  2  0  0  0  0
  2  3  1  0  0  0  0
  2  4  1  0  0  0  0
  3  5  1  0  0  0  0
  3  6  1  0  0  0  0
  4  7  2  0  0  0  0
  4  8  1  0  0  0  0
  5  9  1  0  0  0  0
  5 10  1  6  0  0  0
  6 11  1  0  0  0  0
  7 12  1  0  0  0  0
  7 13  1  0  0  0  0
  8 14  2  0  0  0  0
  9 15  1  0  0  0  0
 10 16  1  0  0  0  0
 12 17  1  0  0  0  0
 12 18  1  0  0  0  0
 13 19  2  0  0  0  0
 16 20  2  0  0  0  0
 16 21  1  0  0  0  0
 17 22  2  0  0  0  0
 18 23  2  0  0  0  0
 19 24  1  0  0  0  0
 20 25  1  0  0  0  0
 21 26  2  0  0  0  0
 25 27  1  0  0  0  0
 25 28  2  0  0  0  0
 27 29  1  0  0  0  0
 27 30  1  0  0  0  0
 28 31  1  0  0  0  0
 29 32  2  0  0  0  0
 30 33  2  0  0  0  0
 11 15  1  0  0  0  0
 14 19  1  0  0  0  0
 22 23  1  0  0  0  0
 26 28  1  0  0  0  0
 32 33  1  0  0  0  0
M  END
>  <MolRegNo>
2104501

>  <m>
=

>  <Value>
25000

>  <Unit>
nM

>  <Type>
IC50

>  <pValue>
4.6

>  <Ligand Efficiency>
0.19

>  <Binding Efficiency>
10.38

>  <Surface Efficiency>
5.06

>  <Assay Index>
1058329

>  <Assay Category>


>  <Assay Organism>
Homo sapiens

>  <Target ID>
17045

>  <Target Name>
Cytochrome P450 3A4

>  <Target Organism>
Homo sapiens

>  <Target Description>
Target is a single protein chain

>  <Sequence Accession>
P08684

>  <Reference>


>  <Pubmed ID>


>  <DOI>


$$$$
2161312
Actelion Java MolfileCreator 1.0

 32 36  0  0  1  0  0  0  0  0999 V2000
    0.0000   -0.0000   -0.0000 O   0  0  0  0  0  0  0  0  0  0  0  0
    1.0386    0.6208   -0.0000 C   0  0  0  0  0  0  0  0  0  0  0  0
    1.0267    2.1488   -0.0000 N   0  0  0  0  0  0  0  0  0  0  0  0
    2.3398   -0.1194   -0.0000 C   0  0  0  0  0  0  0  0  0  0  0  0
   -0.2984    2.9128   -0.0000 C   0  0  0  0  0  0  0  0  0  0  0  0
    2.3279    2.9128   -0.0000 C   0  0  0  0  0  0  0  0  0  0  0  0
    2.3279   -1.6236   -0.0000 C   0  0  0  0  0  0  0  0  0  0  0  0
    3.6411    0.6566   -0.0000 C   0  0  0  0  0  0  0  0  0  0  0  0
   -0.3104    4.4409   -0.0000 C   0  0  0  0  0  0  0  0  0  0  0  0
   -1.6236    2.1727   -0.0000 C   0  0  0  0  0  0  0  0  0  0  0  0
    2.3160    4.4409   -0.0000 C   0  0  0  0  0  0  0  0  0  0  0  0
    3.3665    2.3160   -0.0000 C   0  0  0  0  0  0  0  0  0  0  0  0
    1.0028   -2.3756   -0.0000 N   0  0  0  0  0  0  0  0  0  0  0  0
    3.6291   -2.3637   -0.0000 C   0  0  0  0  0  0  0  0  0  0  0  0
    4.9423   -0.0836   -0.0000 C   0  0  0  0  0  0  0  0  0  0  0  0
    0.9908    5.2049   -0.0000 O   0  0  0  0  0  0  0  0  0  0  0  0
   -2.9487    2.9487   -0.0000 C   0  0  0  0  0  0  0  0  0  0  0  0
   -0.3820   -1.7429   -0.0000 N   0  0  0  0  0  0  0  0  0  0  0  0
    0.8595   -3.8559   -0.0000 N   0  0  0  0  0  0  0  0  0  0  0  0
    4.9303   -1.5877   -0.0000 C   0  0  0  0  0  0  0  0  0  0  0  0
   -2.9606    4.4767   -0.0000 C   0  0  0  0  0  0  0  0  0  0  0  0
   -4.2738    2.2085   -0.0000 C   0  0  0  0  0  0  0  0  0  0  0  0
   -1.3967   -2.8651   -0.0000 C   0  0  0  0  0  0  0  0  0  0  0  0
   -0.6327   -4.1663   -0.0000 C   0  0  0  0  0  0  0  0  0  0  0  0
   -4.2857    5.2527   -0.0000 C   0  0  0  0  0  0  0  0  0  0  0  0
   -5.5989    2.9845   -0.0000 C   0  0  0  0  0  0  0  0  0  0  0  0
   -4.2976    6.7807   -0.0000 N   0  0  0  0  0  0  0  0  0  0  0  0
   -5.6108    4.5125   -0.0000 C   0  0  0  0  0  0  0  0  0  0  0  0
   -5.5272    7.6641   -0.0000 N   0  0  0  0  0  0  0  0  0  0  0  0
   -3.0800    7.6522   -0.0000 N   0  0  0  0  0  0  0  0  0  0  0  0
   -5.0617    9.1205   -0.0000 C   0  0  0  0  0  0  0  0  0  0  0  0
   -3.5575    9.1086   -0.0000 C   0  0  0  0  0  0  0  0  0  0  0  0
  1  2  2  0  0  0  0
  2  3  1  0  0  0  0
  2  4  1  0  0  0  0
  3  5  1  0  0  0  0
  3  6  1  0  0  0  0
  4  7  2  0  0  0  0
  4  8  1  0  0  0  0
  5  9  1  0  0  0  0
  5 10  1  6  0  0  0
  6 11  1  0  0  0  0
  6 12  1  1  0  0  0
  7 13  1  0  0  0  0
  7 14  1  0  0  0  0
  8 15  2  0  0  0  0
  9 16  1  0  0  0  0
 10 17  1  0  0  0  0
 13 18  1  0  0  0  0
 13 19  1  0  0  0  0
 14 20  2  0  0  0  0
 17 21  2  0  0  0  0
 17 22  1  0  0  0  0
 18 23  2  0  0  0  0
 19 24  2  0  0  0  0
 21 25  1  0  0  0  0
 22 26  2  0  0  0  0
 25 27  1  0  0  0  0
 25 28  2  0  0  0  0
 27 29  1  0  0  0  0
 27 30  1  0  0  0  0
 29 31  2  0  0  0  0
 30 32  2  0  0  0  0
 11 16  1  0  0  0  0
 15 20  1  0  0  0  0
 23 24  1  0  0  0  0
 26 28  1  0  0  0  0
 31 32  1  0  0  0  0
M  END
>  <MolRegNo>
2161312

>  <m>
=

>  <Value>
24000

>  <Unit>
nM

>  <Type>
IC50

>  <pValue>
4.62

>  <Ligand Efficiency>
0.2

>  <Binding Efficiency>
10.76

>  <Surface Efficiency>
5.08

>  <Assay Index>
1058329

>  <Assay Category>


>  <Assay Organism>
Homo sapiens

>  <Target ID>
17045

>  <Target Name>
Cytochrome P450 3A4

>  <Target Organism>
Homo sapiens

>  <Target Description>
Target is a single protein chain

>  <Sequence Accession>
P08684

>  <Reference>


>  <Pubmed ID>


>  <DOI>


$$$$
2146075
Actelion Java MolfileCreator 1.0

 33 37  0  0  1  0  0  0  0  0999 V2000
    0.0000   -0.0000   -0.0000 O   0  0  0  0  0  0  0  0  0  0  0  0
    1.0444    0.6242   -0.0000 C   0  0  0  0  0  0  0  0  0  0  0  0
    1.0324    2.1608   -0.0000 N   0  0  0  0  0  0  0  0  0  0  0  0
    2.3529   -0.1200   -0.0000 C   0  0  0  0  0  0  0  0  0  0  0  0
   -0.3001    2.9291   -0.0000 C   0  0  0  0  0  0  0  0  0  0  0  0
    2.3409    2.9291   -0.0000 C   0  0  0  0  0  0  0  0  0  0  0  0
    2.3409   -1.6326   -0.0000 C   0  0  0  0  0  0  0  0  0  0  0  0
    3.6614    0.6602   -0.0000 C   0  0  0  0  0  0  0  0  0  0  0  0
   -0.3121    4.4657   -0.0000 C   0  0  0  0  0  0  0  0  0  0  0  0
   -1.6326    2.1848   -0.0000 C   0  0  0  0  0  0  0  0  0  0  0  0
    2.3289    4.4657   -0.0000 C   0  0  0  0  0  0  0  0  0  0  0  0
    3.3853    2.3289   -0.0000 C   0  0  0  0  0  0  0  0  0  0  0  0
    1.0084   -2.3889   -0.0000 N   0  0  0  0  0  0  0  0  0  0  0  0
    3.6494   -2.3769   -0.0000 C   0  0  0  0  0  0  0  0  0  0  0  0
    4.9699   -0.0840   -0.0000 C   0  0  0  0  0  0  0  0  0  0  0  0
    0.9964    5.2340   -0.0000 O   0  0  0  0  0  0  0  0  0  0  0  0
   -2.9651    2.9651   -0.0000 C   0  0  0  0  0  0  0  0  0  0  0  0
   -0.3841   -1.7527   -0.0000 N   0  0  0  0  0  0  0  0  0  0  0  0
    0.8643   -3.8775   -0.0000 N   0  0  0  0  0  0  0  0  0  0  0  0
    4.9579   -1.5966   -0.0000 C   0  0  0  0  0  0  0  0  0  0  0  0
   -2.9771    4.5017   -0.0000 C   0  0  0  0  0  0  0  0  0  0  0  0
   -4.2976    2.2208   -0.0000 C   0  0  0  0  0  0  0  0  0  0  0  0
   -1.4045   -2.8811   -0.0000 C   0  0  0  0  0  0  0  0  0  0  0  0
   -0.6362   -4.1896   -0.0000 C   0  0  0  0  0  0  0  0  0  0  0  0
    6.0023   -2.1848   -0.0000 C   0  0  0  0  0  0  0  0  0  0  0  0
   -4.3096    5.2820   -0.0000 C   0  0  0  0  0  0  0  0  0  0  0  0
   -5.6301    3.0011   -0.0000 C   0  0  0  0  0  0  0  0  0  0  0  0
   -4.3216    6.8186   -0.0000 N   0  0  0  0  0  0  0  0  0  0  0  0
   -5.6421    4.5377   -0.0000 C   0  0  0  0  0  0  0  0  0  0  0  0
   -5.5581    7.7069   -0.0000 N   0  0  0  0  0  0  0  0  0  0  0  0
   -3.0972    7.6949   -0.0000 N   0  0  0  0  0  0  0  0  0  0  0  0
   -5.0899    9.1714   -0.0000 C   0  0  0  0  0  0  0  0  0  0  0  0
   -3.5773    9.1594   -0.0000 C   0  0  0  0  0  0  0  0  0  0  0  0
  1  2  2  0  0  0  0
  2  3  1  0  0  0  0
  2  4  1  0  0  0  0
  3  5  1  0  0  0  0
  3  6  1  0  0  0  0
  4  7  2  0  0  0  0
  4  8  1  0  0  0  0
  5  9  1  0  0  0  0
  5 10  1  6  0  0  0
  6 11  1  0  0  0  0
  6 12  1  6  0  0  0
  7 13  1  0  0  0  0
  7 14  1  0  0  0  0
  8 15  2  0  0  0  0
  9 16  1  0  0  0  0
 10 17  1  0  0  0  0
 13 18  1  0  0  0  0
 13 19  1  0  0  0  0
 14 20  2  0  0  0  0
 17 21  2  0  0  0  0
 17 22  1  0  0  0  0
 18 23  2  0  0  0  0
 19 24  2  0  0  0  0
 20 25  1  0  0  0  0
 21 26  1  0  0  0  0
 22 27  2  0  0  0  0
 26 28  1  0  0  0  0
 26 29  2  0  0  0  0
 28 30  1  0  0  0  0
 28 31  1  0  0  0  0
 30 32  2  0  0  0  0
 31 33  2  0  0  0  0
 11 16  1  0  0  0  0
 15 20  1  0  0  0  0
 23 24  1  0  0  0  0
 27 29  1  0  0  0  0
 32 33  1  0  0  0  0
M  END
>  <MolRegNo>
2146075

>  <m>
=

>  <Value>
14000

>  <Unit>
nM

>  <Type>
IC50

>  <pValue>
4.85

>  <Ligand Efficiency>
0.2

>  <Binding Efficiency>
10.94

>  <Surface Efficiency>
5.34

>  <Assay Index>
1058329

>  <Assay Category>


>  <Assay Organism>
Homo sapiens

>  <Target ID>
17045

>  <Target Name>
Cytochrome P450 3A4

>  <Target Organism>
Homo sapiens

>  <Target Description>
Target is a single protein chain

>  <Sequence Accession>
P08684

>  <Reference>


>  <Pubmed ID>


>  <DOI>


$$$$
2119247
Actelion Java MolfileCreator 1.0

 33 37  0  0  1  0  0  0  0  0999 V2000
    0.0000   -0.0000   -0.0000 O   0  0  0  0  0  0  0  0  0  0  0  0
    1.0441    0.6240   -0.0000 C   0  0  0  0  0  0  0  0  0  0  0  0
    1.0321    2.1601   -0.0000 N   0  0  0  0  0  0  0  0  0  0  0  0
    2.3521   -0.1200   -0.0000 C   0  0  0  0  0  0  0  0  0  0  0  0
   -0.3000    2.9281   -0.0000 C   0  0  0  0  0  0  0  0  0  0  0  0
    2.3401    2.9281   -0.0000 C   0  0  0  0  0  0  0  0  0  0  0  0
    2.3401   -1.6321   -0.0000 C   0  0  0  0  0  0  0  0  0  0  0  0
    3.6602    0.6600   -0.0000 C   0  0  0  0  0  0  0  0  0  0  0  0
   -0.3120    4.4642   -0.0000 C   0  0  0  0  0  0  0  0  0  0  0  0
   -1.6321    2.1841   -0.0000 C   0  0  0  0  0  0  0  0  0  0  0  0
    2.3281    4.4642   -0.0000 C   0  0  0  0  0  0  0  0  0  0  0  0
    3.3842    2.3281   -0.0000 C   0  0  0  0  0  0  0  0  0  0  0  0
    1.0081   -2.3881   -0.0000 N   0  0  0  0  0  0  0  0  0  0  0  0
    3.6482   -2.3761   -0.0000 C   0  0  0  0  0  0  0  0  0  0  0  0
    4.9682   -0.0840   -0.0000 C   0  0  0  0  0  0  0  0  0  0  0  0
    0.9960    5.2323   -0.0000 O   0  0  0  0  0  0  0  0  0  0  0  0
   -2.9641    2.9641   -0.0000 C   0  0  0  0  0  0  0  0  0  0  0  0
   -0.3840   -1.7521   -0.0000 N   0  0  0  0  0  0  0  0  0  0  0  0
    0.8640   -3.8762   -0.0000 N   0  0  0  0  0  0  0  0  0  0  0  0
    4.9562   -1.5961   -0.0000 C   0  0  0  0  0  0  0  0  0  0  0  0
    6.0123    0.5400   -0.0000 C   0  0  0  0  0  0  0  0  0  0  0  0
   -2.9761    4.5002   -0.0000 C   0  0  0  0  0  0  0  0  0  0  0  0
   -4.2962    2.2201   -0.0000 C   0  0  0  0  0  0  0  0  0  0  0  0
   -1.4041   -2.8801   -0.0000 C   0  0  0  0  0  0  0  0  0  0  0  0
   -0.6360   -4.1882   -0.0000 C   0  0  0  0  0  0  0  0  0  0  0  0
   -4.3082    5.2803   -0.0000 C   0  0  0  0  0  0  0  0  0  0  0  0
   -5.6283    3.0002   -0.0000 C   0  0  0  0  0  0  0  0  0  0  0  0
   -4.3202    6.8163   -0.0000 N   0  0  0  0  0  0  0  0  0  0  0  0
   -5.6403    4.5362   -0.0000 C   0  0  0  0  0  0  0  0  0  0  0  0
   -5.5563    7.7044   -0.0000 N   0  0  0  0  0  0  0  0  0  0  0  0
   -3.0962    7.6924   -0.0000 N   0  0  0  0  0  0  0  0  0  0  0  0
   -5.0883    9.1685   -0.0000 C   0  0  0  0  0  0  0  0  0  0  0  0
   -3.5762    9.1565   -0.0000 C   0  0  0  0  0  0  0  0  0  0  0  0
  1  2  2  0  0  0  0
  2  3  1  0  0  0  0
  2  4  1  0  0  0  0
  3  5  1  0  0  0  0
  3  6  1  0  0  0  0
  4  7  2  0  0  0  0
  4  8  1  0  0  0  0
  5  9  1  0  0  0  0
  5 10  1  6  0  0  0
  6 11  1  0  0  0  0
  6 12  1  6  0  0  0
  7 13  1  0  0  0  0
  7 14  1  0  0  0  0
  8 15  2  0  0  0  0
  9 16  1  0  0  0  0
 10 17  1  0  0  0  0
 13 18  1  0  0  0  0
 13 19  1  0  0  0  0
 14 20  2  0  0  0  0
 15 21  1  0  0  0  0
 17 22  2  0  0  0  0
 17 23  1  0  0  0  0
 18 24  2  0  0  0  0
 19 25  2  0  0  0  0
 22 26  1  0  0  0  0
 23 27  2  0  0  0  0
 26 28  1  0  0  0  0
 26 29  2  0  0  0  0
 28 30  1  0  0  0  0
 28 31  1  0  0  0  0
 30 32  2  0  0  0  0
 31 33  2  0  0  0  0
 11 16  1  0  0  0  0
 15 20  1  0  0  0  0
 24 25  1  0  0  0  0
 27 29  1  0  0  0  0
 32 33  1  0  0  0  0
M  END
>  <MolRegNo>
2119247

>  <m>
=

>  <Value>
6800

>  <Unit>
nM

>  <Type>
IC50

>  <pValue>
5.17

>  <Ligand Efficiency>
0.21

>  <Binding Efficiency>
11.65

>  <Surface Efficiency>
5.68

>  <Assay Index>
1058329

>  <Assay Category>


>  <Assay Organism>
Homo sapiens

>  <Target ID>
17045

>  <Target Name>
Cytochrome P450 3A4

>  <Target Organism>
Homo sapiens

>  <Target Description>
Target is a single protein chain

>  <Sequence Accession>
P08684

>  <Reference>


>  <Pubmed ID>


>  <DOI>


$$$$
2124602
Actelion Java MolfileCreator 1.0

 33 37  0  0  1  0  0  0  0  0999 V2000
    0.0000   -0.0000   -0.0000 O   0  0  0  0  0  0  0  0  0  0  0  0
    1.0473   -0.6019   -0.0000 C   0  0  0  0  0  0  0  0  0  0  0  0
    1.0352   -2.1186   -0.0000 N   0  0  0  0  0  0  0  0  0  0  0  0
    2.3594    0.1806   -0.0000 C   0  0  0  0  0  0  0  0  0  0  0  0
   -0.3009   -2.8770   -0.0000 C   0  0  0  0  0  0  0  0  0  0  0  0
    2.3473   -2.8649   -0.0000 C   0  0  0  0  0  0  0  0  0  0  0  0
    2.3473    1.7214   -0.0000 C   0  0  0  0  0  0  0  0  0  0  0  0
    3.6715   -0.5658   -0.0000 C   0  0  0  0  0  0  0  0  0  0  0  0
   -0.3130   -4.3937   -0.0000 C   0  0  0  0  0  0  0  0  0  0  0  0
   -1.6371   -2.1066   -0.0000 C   0  0  0  0  0  0  0  0  0  0  0  0
    2.3353   -4.3817   -0.0000 C   0  0  0  0  0  0  0  0  0  0  0  0
    1.0112    2.4918   -0.0000 N   0  0  0  0  0  0  0  0  0  0  0  0
    3.6594    2.4918   -0.0000 C   0  0  0  0  0  0  0  0  0  0  0  0
    4.9836    0.2046   -0.0000 C   0  0  0  0  0  0  0  0  0  0  0  0
    0.9991   -5.1400   -0.0000 O   0  0  0  0  0  0  0  0  0  0  0  0
   -2.9733   -2.8649   -0.0000 C   0  0  0  0  0  0  0  0  0  0  0  0
    0.8547    4.0085   -0.0000 N   0  0  0  0  0  0  0  0  0  0  0  0
   -0.3732    1.8658   -0.0000 N   0  0  0  0  0  0  0  0  0  0  0  0
    4.9715    1.7454   -0.0000 C   0  0  0  0  0  0  0  0  0  0  0  0
    3.6474    3.7316   -0.0000 C   0  0  0  0  0  0  0  0  0  0  0  0
    6.0308   -0.3972   -0.0000 C   0  0  0  0  0  0  0  0  0  0  0  0
   -2.9733   -4.3817   -0.0000 C   0  0  0  0  0  0  0  0  0  0  0  0
   -4.3095   -2.0945   -0.0000 C   0  0  0  0  0  0  0  0  0  0  0  0
   -0.6500    4.3335   -0.0000 C   0  0  0  0  0  0  0  0  0  0  0  0
   -1.4084    3.0094   -0.0000 C   0  0  0  0  0  0  0  0  0  0  0  0
   -4.2974   -5.1400   -0.0000 C   0  0  0  0  0  0  0  0  0  0  0  0
   -5.6336   -2.8529   -0.0000 C   0  0  0  0  0  0  0  0  0  0  0  0
   -4.2974   -6.6568   -0.0000 N   0  0  0  0  0  0  0  0  0  0  0  0
   -5.6336   -4.3696   -0.0000 C   0  0  0  0  0  0  0  0  0  0  0  0
   -5.5373   -7.5355   -0.0000 N   0  0  0  0  0  0  0  0  0  0  0  0
   -3.0696   -7.5114   -0.0000 N   0  0  0  0  0  0  0  0  0  0  0  0
   -5.0678   -8.9680   -0.0000 C   0  0  0  0  0  0  0  0  0  0  0  0
   -3.5390   -8.9560   -0.0000 C   0  0  0  0  0  0  0  0  0  0  0  0
  1  2  2  0  0  0  0
  2  3  1  0  0  0  0
  2  4  1  0  0  0  0
  3  5  1  0  0  0  0
  3  6  1  0  0  0  0
  4  7  2  0  0  0  0
  4  8  1  0  0  0  0
  5  9  1  0  0  0  0
  5 10  1  1  0  0  0
  6 11  1  0  0  0  0
  7 12  1  0  0  0  0
  7 13  1  0  0  0  0
  8 14  2  0  0  0  0
  9 15  1  0  0  0  0
 10 16  1  0  0  0  0
 12 17  1  0  0  0  0
 12 18  1  0  0  0  0
 13 19  2  0  0  0  0
 13 20  1  0  0  0  0
 14 21  1  0  0  0  0
 16 22  2  0  0  0  0
 16 23  1  0  0  0  0
 17 24  2  0  0  0  0
 18 25  2  0  0  0  0
 22 26  1  0  0  0  0
 23 27  2  0  0  0  0
 26 28  1  0  0  0  0
 26 29  2  0  0  0  0
 28 30  1  0  0  0  0
 28 31  1  0  0  0  0
 30 32  2  0  0  0  0
 31 33  2  0  0  0  0
 11 15  1  0  0  0  0
 14 19  1  0  0  0  0
 24 25  1  0  0  0  0
 27 29  1  0  0  0  0
 32 33  1  0  0  0  0
M  END
>  <MolRegNo>
2124602

>  <m>
=

>  <Value>
15000

>  <Unit>
nM

>  <Type>
IC50

>  <pValue>
4.82

>  <Ligand Efficiency>
0.2

>  <Binding Efficiency>
10.88

>  <Surface Efficiency>
5.3

>  <Assay Index>
1058329

>  <Assay Category>


>  <Assay Organism>
Homo sapiens

>  <Target ID>
17045

>  <Target Name>
Cytochrome P450 3A4

>  <Target Organism>
Homo sapiens

>  <Target Description>
Target is a single protein chain

>  <Sequence Accession>
P08684

>  <Reference>


>  <Pubmed ID>


>  <DOI>


$$$$
2168841
Actelion Java MolfileCreator 1.0

 35 39  0  0  1  0  0  0  0  0999 V2000
    0.0000   -0.0000   -0.0000 F   0  0  0  0  0  0  0  0  0  0  0  0
   -1.0696   -0.6009   -0.0000 C   0  0  0  0  0  0  0  0  0  0  0  0
   -1.0817   -1.8148   -0.0000 F   0  0  0  0  0  0  0  0  0  0  0  0
   -0.0240   -1.2018   -0.0000 F   0  0  0  0  0  0  0  0  0  0  0  0
   -2.4037    0.1683   -0.0000 C   0  0  0  0  0  0  0  0  0  0  0  0
   -3.7377   -0.5769   -0.0000 C   0  0  0  0  0  0  0  0  0  0  0  0
   -2.4157    1.7066   -0.0000 C   0  0  0  0  0  0  0  0  0  0  0  0
   -5.0718    0.1923   -0.0000 C   0  0  0  0  0  0  0  0  0  0  0  0
   -3.7498    2.4758   -0.0000 C   0  0  0  0  0  0  0  0  0  0  0  0
   -6.4058   -0.5528   -0.0000 N   0  0  0  0  0  0  0  0  0  0  0  0
   -5.0838    1.7307   -0.0000 C   0  0  0  0  0  0  0  0  0  0  0  0
   -7.7880    0.0841   -0.0000 N   0  0  0  0  0  0  0  0  0  0  0  0
   -6.5501   -2.0431   -0.0000 N   0  0  0  0  0  0  0  0  0  0  0  0
   -6.4179    2.5119   -0.0000 C   0  0  0  0  0  0  0  0  0  0  0  0
   -8.8216   -1.0336   -0.0000 C   0  0  0  0  0  0  0  0  0  0  0  0
   -8.0524   -2.3556   -0.0000 C   0  0  0  0  0  0  0  0  0  0  0  0
   -7.4875    1.9109   -0.0000 O   0  0  0  0  0  0  0  0  0  0  0  0
   -6.4299    4.0502   -0.0000 N   0  0  0  0  0  0  0  0  0  0  0  0
   -7.7639    4.8314   -0.0000 C   0  0  0  0  0  0  0  0  0  0  0  0
   -5.1199    4.8194   -0.0000 C   0  0  0  0  0  0  0  0  0  0  0  0
   -7.7760    6.3698   -0.0000 C   0  0  0  0  0  0  0  0  0  0  0  0
   -9.0980    4.0863   -0.0000 C   0  0  0  0  0  0  0  0  0  0  0  0
   -5.1319    6.3578   -0.0000 C   0  0  0  0  0  0  0  0  0  0  0  0
   -6.4659    7.1390   -0.0000 O   0  0  0  0  0  0  0  0  0  0  0  0
  -10.4320    4.8675   -0.0000 C   0  0  0  0  0  0  0  0  0  0  0  0
  -10.4320    6.4058   -0.0000 C   0  0  0  0  0  0  0  0  0  0  0  0
  -11.7661    4.1223   -0.0000 C   0  0  0  0  0  0  0  0  0  0  0  0
  -11.7541    7.1870   -0.0000 C   0  0  0  0  0  0  0  0  0  0  0  0
  -13.0881    4.9035   -0.0000 C   0  0  0  0  0  0  0  0  0  0  0  0
  -11.7541    8.7254   -0.0000 N   0  0  0  0  0  0  0  0  0  0  0  0
  -13.0881    6.4419   -0.0000 C   0  0  0  0  0  0  0  0  0  0  0  0
  -12.9920    9.6268   -0.0000 N   0  0  0  0  0  0  0  0  0  0  0  0
  -10.5282    9.6028   -0.0000 N   0  0  0  0  0  0  0  0  0  0  0  0
  -12.5232   11.0810   -0.0000 C   0  0  0  0  0  0  0  0  0  0  0  0
  -10.9969   11.0690   -0.0000 C   0  0  0  0  0  0  0  0  0  0  0  0
  1  2  1  0  0  0  0
  2  3  1  0  0  0  0
  2  4  1  0  0  0  0
  2  5  1  0  0  0  0
  5  6  2  0  0  0  0
  5  7  1  0  0  0  0
  6  8  1  0  0  0  0
  7  9  2  0  0  0  0
  8 10  1  0  0  0  0
  8 11  2  0  0  0  0
 10 12  1  0  0  0  0
 10 13  1  0  0  0  0
 11 14  1  0  0  0  0
 12 15  2  0  0  0  0
 13 16  2  0  0  0  0
 14 17  2  0  0  0  0
 14 18  1  0  0  0  0
 18 19  1  0  0  0  0
 18 20  1  0  0  0  0
 19 21  1  0  0  0  0
 19 22  1  6  0  0  0
 20 23  1  0  0  0  0
 21 24  1  0  0  0  0
 22 25  1  0  0  0  0
 25 26  2  0  0  0  0
 25 27  1  0  0  0  0
 26 28  1  0  0  0  0
 27 29  2  0  0  0  0
 28 30  1  0  0  0  0
 28 31  2  0  0  0  0
 30 32  1  0  0  0  0
 30 33  1  0  0  0  0
 32 34  2  0  0  0  0
 33 35  2  0  0  0  0
  9 11  1  0  0  0  0
 15 16  1  0  0  0  0
 23 24  1  0  0  0  0
 29 31  1  0  0  0  0
 34 35  1  0  0  0  0
M  END
>  <MolRegNo>
2168841

>  <m>
=

>  <Value>
7500

>  <Unit>
nM

>  <Type>
IC50

>  <pValue>
5.12

>  <Ligand Efficiency>
0.2

>  <Binding Efficiency>
10.6

>  <Surface Efficiency>
5.63

>  <Assay Index>
1058329

>  <Assay Category>


>  <Assay Organism>
Homo sapiens

>  <Target ID>
17045

>  <Target Name>
Cytochrome P450 3A4

>  <Target Organism>
Homo sapiens

>  <Target Description>
Target is a single protein chain

>  <Sequence Accession>
P08684

>  <Reference>


>  <Pubmed ID>


>  <DOI>


$$$$
2156259
Actelion Java MolfileCreator 1.0

 32 36  0  0  1  0  0  0  0  0999 V2000
    0.0000   -0.0000   -0.0000 Cl  0  0  0  0  0  0  0  0  0  0  0  0
   -1.0588    0.6186   -0.0000 C   0  0  0  0  0  0  0  0  0  0  0  0
   -2.3794   -0.1190   -0.0000 C   0  0  0  0  0  0  0  0  0  0  0  0
   -1.0707    2.1414   -0.0000 C   0  0  0  0  0  0  0  0  0  0  0  0
   -3.6999    0.6424   -0.0000 C   0  0  0  0  0  0  0  0  0  0  0  0
   -2.3913    2.9028   -0.0000 C   0  0  0  0  0  0  0  0  0  0  0  0
   -5.0205   -0.0952   -0.0000 N   0  0  0  0  0  0  0  0  0  0  0  0
   -3.7118    2.1652   -0.0000 C   0  0  0  0  0  0  0  0  0  0  0  0
   -6.3886    0.5354   -0.0000 N   0  0  0  0  0  0  0  0  0  0  0  0
   -5.1632   -1.5704   -0.0000 N   0  0  0  0  0  0  0  0  0  0  0  0
   -5.0324    2.9385   -0.0000 C   0  0  0  0  0  0  0  0  0  0  0  0
   -7.4117   -0.5710   -0.0000 C   0  0  0  0  0  0  0  0  0  0  0  0
   -6.6503   -1.8797   -0.0000 C   0  0  0  0  0  0  0  0  0  0  0  0
   -6.0912    2.3437   -0.0000 O   0  0  0  0  0  0  0  0  0  0  0  0
   -5.0443    4.4613   -0.0000 N   0  0  0  0  0  0  0  0  0  0  0  0
   -6.3648    5.2346   -0.0000 C   0  0  0  0  0  0  0  0  0  0  0  0
   -3.7475    5.2227   -0.0000 C   0  0  0  0  0  0  0  0  0  0  0  0
   -6.3767    6.7574   -0.0000 C   0  0  0  0  0  0  0  0  0  0  0  0
   -7.6854    4.4970   -0.0000 C   0  0  0  0  0  0  0  0  0  0  0  0
   -3.7594    6.7455   -0.0000 C   0  0  0  0  0  0  0  0  0  0  0  0
   -5.0799    7.5188   -0.0000 O   0  0  0  0  0  0  0  0  0  0  0  0
   -9.0059    5.2703   -0.0000 C   0  0  0  0  0  0  0  0  0  0  0  0
   -9.0059    6.7931   -0.0000 C   0  0  0  0  0  0  0  0  0  0  0  0
  -10.3264    4.5327   -0.0000 C   0  0  0  0  0  0  0  0  0  0  0  0
  -10.3146    7.5664   -0.0000 C   0  0  0  0  0  0  0  0  0  0  0  0
  -11.6351    5.3060   -0.0000 C   0  0  0  0  0  0  0  0  0  0  0  0
  -10.3146    9.0892   -0.0000 N   0  0  0  0  0  0  0  0  0  0  0  0
  -11.6351    6.8288   -0.0000 C   0  0  0  0  0  0  0  0  0  0  0  0
  -11.5399    9.9814   -0.0000 N   0  0  0  0  0  0  0  0  0  0  0  0
   -9.1011    9.9576   -0.0000 N   0  0  0  0  0  0  0  0  0  0  0  0
  -11.0759   11.4210   -0.0000 C   0  0  0  0  0  0  0  0  0  0  0  0
   -9.5651   11.4091   -0.0000 C   0  0  0  0  0  0  0  0  0  0  0  0
  1  2  1  0  0  0  0
  2  3  2  0  0  0  0
  2  4  1  0  0  0  0
  3  5  1  0  0  0  0
  4  6  2  0  0  0  0
  5  7  1  0  0  0  0
  5  8  2  0  0  0  0
  7  9  1  0  0  0  0
  7 10  1  0  0  0  0
  8 11  1  0  0  0  0
  9 12  2  0  0  0  0
 10 13  2  0  0  0  0
 11 14  2  0  0  0  0
 11 15  1  0  0  0  0
 15 16  1  0  0  0  0
 15 17  1  0  0  0  0
 16 18  1  0  0  0  0
 16 19  1  6  0  0  0
 17 20  1  0  0  0  0
 18 21  1  0  0  0  0
 19 22  1  0  0  0  0
 22 23  2  0  0  0  0
 22 24  1  0  0  0  0
 23 25  1  0  0  0  0
 24 26  2  0  0  0  0
 25 27  1  0  0  0  0
 25 28  2  0  0  0  0
 27 29  1  0  0  0  0
 27 30  1  0  0  0  0
 29 31  2  0  0  0  0
 30 32  2  0  0  0  0
  6  8  1  0  0  0  0
 12 13  1  0  0  0  0
 20 21  1  0  0  0  0
 26 28  1  0  0  0  0
 31 32  1  0  0  0  0
M  END
>  <MolRegNo>
2156259

>  <m>
=

>  <Value>
16000

>  <Unit>
nM

>  <Type>
IC50

>  <pValue>
4.8

>  <Ligand Efficiency>
0.2

>  <Binding Efficiency>
10.66

>  <Surface Efficiency>
5.27

>  <Assay Index>
1058329

>  <Assay Category>


>  <Assay Organism>
Homo sapiens

>  <Target ID>
17045

>  <Target Name>
Cytochrome P450 3A4

>  <Target Organism>
Homo sapiens

>  <Target Description>
Target is a single protein chain

>  <Sequence Accession>
P08684

>  <Reference>


>  <Pubmed ID>


>  <DOI>


$$$$
2178313
Actelion Java MolfileCreator 1.0

 34 38  0  0  1  0  0  0  0  0999 V2000
    0.0000   -0.0000   -0.0000 F   0  0  0  0  0  0  0  0  0  0  0  0
   -0.0120    1.2346   -0.0000 C   0  0  0  0  0  0  0  0  0  0  0  0
    1.2945    2.0017   -0.0000 C   0  0  0  0  0  0  0  0  0  0  0  0
   -1.3425    2.0017   -0.0000 C   0  0  0  0  0  0  0  0  0  0  0  0
    2.6010    1.2586   -0.0000 O   0  0  0  0  0  0  0  0  0  0  0  0
    1.2825    3.5360   -0.0000 C   0  0  0  0  0  0  0  0  0  0  0  0
   -1.3545    3.5360   -0.0000 C   0  0  0  0  0  0  0  0  0  0  0  0
    3.6438    1.8819   -0.0000 C   0  0  0  0  0  0  0  0  0  0  0  0
   -0.0479    4.3031   -0.0000 C   0  0  0  0  0  0  0  0  0  0  0  0
   -2.6849    4.3031   -0.0000 N   0  0  0  0  0  0  0  0  0  0  0  0
   -0.0599    5.8373   -0.0000 C   0  0  0  0  0  0  0  0  0  0  0  0
   -2.8408    5.8134   -0.0000 N   0  0  0  0  0  0  0  0  0  0  0  0
   -4.0634    3.6798   -0.0000 N   0  0  0  0  0  0  0  0  0  0  0  0
   -1.1267    6.4606   -0.0000 O   0  0  0  0  0  0  0  0  0  0  0  0
    1.2466    6.6045   -0.0000 N   0  0  0  0  0  0  0  0  0  0  0  0
   -4.3391    6.1370   -0.0000 C   0  0  0  0  0  0  0  0  0  0  0  0
   -5.0942    4.8185   -0.0000 C   0  0  0  0  0  0  0  0  0  0  0  0
    1.2346    8.1387   -0.0000 C   0  0  0  0  0  0  0  0  0  0  0  0
    2.5531    5.8493   -0.0000 C   0  0  0  0  0  0  0  0  0  0  0  0
    2.5411    8.9058   -0.0000 C   0  0  0  0  0  0  0  0  0  0  0  0
   -0.0959    8.9178   -0.0000 C   0  0  0  0  0  0  0  0  0  0  0  0
    3.8596    6.6165   -0.0000 C   0  0  0  0  0  0  0  0  0  0  0  0
    3.8476    8.1507   -0.0000 O   0  0  0  0  0  0  0  0  0  0  0  0
   -0.0959   10.4521   -0.0000 C   0  0  0  0  0  0  0  0  0  0  0  0
    1.2106   11.2192   -0.0000 C   0  0  0  0  0  0  0  0  0  0  0  0
   -1.4144   11.2312   -0.0000 C   0  0  0  0  0  0  0  0  0  0  0  0
    1.2106   12.7535   -0.0000 C   0  0  0  0  0  0  0  0  0  0  0  0
   -1.4144   12.7654   -0.0000 C   0  0  0  0  0  0  0  0  0  0  0  0
    2.5171   13.5206   -0.0000 N   0  0  0  0  0  0  0  0  0  0  0  0
   -0.1079   13.5326   -0.0000 C   0  0  0  0  0  0  0  0  0  0  0  0
    2.6610   15.0309   -0.0000 N   0  0  0  0  0  0  0  0  0  0  0  0
    3.8716   12.8853   -0.0000 N   0  0  0  0  0  0  0  0  0  0  0  0
    4.1353   15.3425   -0.0000 C   0  0  0  0  0  0  0  0  0  0  0  0
    4.8904   14.0240   -0.0000 C   0  0  0  0  0  0  0  0  0  0  0  0
  1  2  1  0  0  0  0
  2  3  2  0  0  0  0
  2  4  1  0  0  0  0
  3  5  1  0  0  0  0
  3  6  1  0  0  0  0
  4  7  2  0  0  0  0
  5  8  1  0  0  0  0
  6  9  2  0  0  0  0
  7 10  1  0  0  0  0
  9 11  1  0  0  0  0
 10 12  1  0  0  0  0
 10 13  1  0  0  0  0
 11 14  2  0  0  0  0
 11 15  1  0  0  0  0
 12 16  2  0  0  0  0
 13 17  2  0  0  0  0
 15 18  1  0  0  0  0
 15 19  1  0  0  0  0
 18 20  1  0  0  0  0
 18 21  1  6  0  0  0
 19 22  1  0  0  0  0
 20 23  1  0  0  0  0
 21 24  1  0  0  0  0
 24 25  2  0  0  0  0
 24 26  1  0  0  0  0
 25 27  1  0  0  0  0
 26 28  2  0  0  0  0
 27 29  1  0  0  0  0
 27 30  2  0  0  0  0
 29 31  1  0  0  0  0
 29 32  1  0  0  0  0
 31 33  2  0  0  0  0
 32 34  2  0  0  0  0
  7  9  1  0  0  0  0
 16 17  1  0  0  0  0
 22 23  1  0  0  0  0
 28 30  1  0  0  0  0
 33 34  1  0  0  0  0
M  END
>  <MolRegNo>
2178313

>  <m>
=

>  <Value>
22000

>  <Unit>
nM

>  <Type>
IC50

>  <pValue>
4.66

>  <Ligand Efficiency>
0.19

>  <Binding Efficiency>
10.05

>  <Surface Efficiency>
4.65

>  <Assay Index>
1058329

>  <Assay Category>


>  <Assay Organism>
Homo sapiens

>  <Target ID>
17045

>  <Target Name>
Cytochrome P450 3A4

>  <Target Organism>
Homo sapiens

>  <Target Description>
Target is a single protein chain

>  <Sequence Accession>
P08684

>  <Reference>


>  <Pubmed ID>


>  <DOI>


$$$$
2105157
Actelion Java MolfileCreator 1.0

 32 36  0  0  1  0  0  0  0  0999 V2000
    0.0000   -0.0000   -0.0000 O   0  0  0  0  0  0  0  0  0  0  0  0
    1.0389    0.6210   -0.0000 C   0  0  0  0  0  0  0  0  0  0  0  0
    1.0270    2.1495   -0.0000 N   0  0  0  0  0  0  0  0  0  0  0  0
    2.3406   -0.1314   -0.0000 C   0  0  0  0  0  0  0  0  0  0  0  0
   -0.2985    2.9258   -0.0000 C   0  0  0  0  0  0  0  0  0  0  0  0
    2.3287    2.9138   -0.0000 C   0  0  0  0  0  0  0  0  0  0  0  0
    2.3287   -1.6360   -0.0000 C   0  0  0  0  0  0  0  0  0  0  0  0
    3.6423    0.6329   -0.0000 C   0  0  0  0  0  0  0  0  0  0  0  0
   -0.3105    4.4543   -0.0000 C   0  0  0  0  0  0  0  0  0  0  0  0
   -1.6241    2.1854   -0.0000 C   0  0  0  0  0  0  0  0  0  0  0  0
    2.3167    4.4424   -0.0000 C   0  0  0  0  0  0  0  0  0  0  0  0
    1.0031   -2.3764   -0.0000 N   0  0  0  0  0  0  0  0  0  0  0  0
    3.6303   -2.3764   -0.0000 C   0  0  0  0  0  0  0  0  0  0  0  0
    4.9440   -0.1075   -0.0000 C   0  0  0  0  0  0  0  0  0  0  0  0
    0.9912    5.2186   -0.0000 O   0  0  0  0  0  0  0  0  0  0  0  0
   -2.9497    2.9616   -0.0000 C   0  0  0  0  0  0  0  0  0  0  0  0
   -0.3702   -1.7435   -0.0000 N   0  0  0  0  0  0  0  0  0  0  0  0
    0.8598   -3.8572   -0.0000 N   0  0  0  0  0  0  0  0  0  0  0  0
    4.9320   -1.6122   -0.0000 C   0  0  0  0  0  0  0  0  0  0  0  0
   -2.9497    4.4902   -0.0000 C   0  0  0  0  0  0  0  0  0  0  0  0
   -4.2752    2.2212   -0.0000 C   0  0  0  0  0  0  0  0  0  0  0  0
   -1.3972   -2.8541   -0.0000 C   0  0  0  0  0  0  0  0  0  0  0  0
   -0.6329   -4.1677   -0.0000 C   0  0  0  0  0  0  0  0  0  0  0  0
    5.9710   -2.2093   -0.0000 C   0  0  0  0  0  0  0  0  0  0  0  0
   -4.2633    5.2664   -0.0000 C   0  0  0  0  0  0  0  0  0  0  0  0
   -5.5888    2.9974   -0.0000 C   0  0  0  0  0  0  0  0  0  0  0  0
   -4.2633    6.7950   -0.0000 C   0  0  0  0  0  0  0  0  0  0  0  0
   -5.5888    4.5260   -0.0000 C   0  0  0  0  0  0  0  0  0  0  0  0
   -5.4933    7.6906   -0.0000 N   0  0  0  0  0  0  0  0  0  0  0  0
   -3.0452    7.6667   -0.0000 N   0  0  0  0  0  0  0  0  0  0  0  0
   -5.0275    9.1356   -0.0000 O   0  0  0  0  0  0  0  0  0  0  0  0
   -3.5109    9.1236   -0.0000 C   0  0  0  0  0  0  0  0  0  0  0  0
  1  2  2  0  0  0  0
  2  3  1  0  0  0  0
  2  4  1  0  0  0  0
  3  5  1  0  0  0  0
  3  6  1  0  0  0  0
  4  7  2  0  0  0  0
  4  8  1  0  0  0  0
  5  9  1  0  0  0  0
  5 10  1  6  0  0  0
  6 11  1  0  0  0  0
  7 12  1  0  0  0  0
  7 13  1  0  0  0  0
  8 14  2  0  0  0  0
  9 15  1  0  0  0  0
 10 16  1  0  0  0  0
 12 17  1  0  0  0  0
 12 18  1  0  0  0  0
 13 19  2  0  0  0  0
 16 20  2  0  0  0  0
 16 21  1  0  0  0  0
 17 22  2  0  0  0  0
 18 23  2  0  0  0  0
 19 24  1  0  0  0  0
 20 25  1  0  0  0  0
 21 26  2  0  0  0  0
 25 27  1  0  0  0  0
 25 28  2  0  0  0  0
 27 29  2  0  0  0  0
 27 30  1  0  0  0  0
 29 31  1  0  0  0  0
 30 32  2  0  0  0  0
 11 15  1  0  0  0  0
 14 19  1  0  0  0  0
 22 23  1  0  0  0  0
 26 28  1  0  0  0  0
 31 32  1  0  0  0  0
M  END
>  <MolRegNo>
2105157

>  <m>
=

>  <Value>
33000

>  <Unit>
nM

>  <Type>
IC50

>  <pValue>
4.48

>  <Ligand Efficiency>
0.19

>  <Binding Efficiency>
10.41

>  <Surface Efficiency>
4.52

>  <Assay Index>
1058329

>  <Assay Category>


>  <Assay Organism>
Homo sapiens

>  <Target ID>
17045

>  <Target Name>
Cytochrome P450 3A4

>  <Target Organism>
Homo sapiens

>  <Target Description>
Target is a single protein chain

>  <Sequence Accession>
P08684

>  <Reference>


>  <Pubmed ID>


>  <DOI>


$$$$
2141502
Actelion Java MolfileCreator 1.0

 32 36  0  0  1  0  0  0  0  0999 V2000
    0.0000   -0.0000   -0.0000 O   0  0  0  0  0  0  0  0  0  0  0  0
   -0.0119    1.2297   -0.0000 C   0  0  0  0  0  0  0  0  0  0  0  0
   -1.3372    2.0058   -0.0000 N   0  0  0  0  0  0  0  0  0  0  0  0
    1.2894    1.9939   -0.0000 C   0  0  0  0  0  0  0  0  0  0  0  0
   -2.6625    1.2656   -0.0000 C   0  0  0  0  0  0  0  0  0  0  0  0
   -1.3491    3.5340   -0.0000 C   0  0  0  0  0  0  0  0  0  0  0  0
    2.5908    1.2536   -0.0000 C   0  0  0  0  0  0  0  0  0  0  0  0
    1.2775    3.5221   -0.0000 C   0  0  0  0  0  0  0  0  0  0  0  0
   -3.9877    2.0416   -0.0000 C   0  0  0  0  0  0  0  0  0  0  0  0
   -2.6863   -0.2388   -0.0000 C   0  0  0  0  0  0  0  0  0  0  0  0
   -2.6744    4.3101   -0.0000 C   0  0  0  0  0  0  0  0  0  0  0  0
    2.5789   -0.2507   -0.0000 N   0  0  0  0  0  0  0  0  0  0  0  0
    3.8922    2.0177   -0.0000 C   0  0  0  0  0  0  0  0  0  0  0  0
    2.5789    4.2862   -0.0000 C   0  0  0  0  0  0  0  0  0  0  0  0
   -3.9996    3.5698   -0.0000 O   0  0  0  0  0  0  0  0  0  0  0  0
   -4.0116   -0.9790   -0.0000 C   0  0  0  0  0  0  0  0  0  0  0  0
    1.3372   -1.1103   -0.0000 N   0  0  0  0  0  0  0  0  0  0  0  0
    3.7967   -1.1103   -0.0000 N   0  0  0  0  0  0  0  0  0  0  0  0
    3.8803    3.5460   -0.0000 C   0  0  0  0  0  0  0  0  0  0  0  0
    4.9309    1.4208   -0.0000 C   0  0  0  0  0  0  0  0  0  0  0  0
   -5.3249   -0.2030   -0.0000 C   0  0  0  0  0  0  0  0  0  0  0  0
   -4.0355   -2.4834   -0.0000 C   0  0  0  0  0  0  0  0  0  0  0  0
    1.7909   -2.5431   -0.0000 C   0  0  0  0  0  0  0  0  0  0  0  0
    3.3191   -2.5431   -0.0000 C   0  0  0  0  0  0  0  0  0  0  0  0
   -6.6502   -0.9432   -0.0000 C   0  0  0  0  0  0  0  0  0  0  0  0
   -5.3607   -3.2236   -0.0000 C   0  0  0  0  0  0  0  0  0  0  0  0
   -7.9754   -0.1671   -0.0000 C   0  0  0  0  0  0  0  0  0  0  0  0
   -6.6740   -2.4475   -0.0000 C   0  0  0  0  0  0  0  0  0  0  0  0
   -9.3604   -0.7761   -0.0000 N   0  0  0  0  0  0  0  0  0  0  0  0
   -8.1187    1.3372   -0.0000 N   0  0  0  0  0  0  0  0  0  0  0  0
  -10.3752    0.3701   -0.0000 O   0  0  0  0  0  0  0  0  0  0  0  0
   -9.6111    1.6715   -0.0000 C   0  0  0  0  0  0  0  0  0  0  0  0
  1  2  2  0  0  0  0
  2  3  1  0  0  0  0
  2  4  1  0  0  0  0
  3  5  1  0  0  0  0
  3  6  1  0  0  0  0
  4  7  2  0  0  0  0
  4  8  1  0  0  0  0
  5  9  1  0  0  0  0
  5 10  1  6  0  0  0
  6 11  1  0  0  0  0
  7 12  1  0  0  0  0
  7 13  1  0  0  0  0
  8 14  2  0  0  0  0
  9 15  1  0  0  0  0
 10 16  1  0  0  0  0
 12 17  1  0  0  0  0
 12 18  1  0  0  0  0
 13 19  2  0  0  0  0
 13 20  1  0  0  0  0
 16 21  2  0  0  0  0
 16 22  1  0  0  0  0
 17 23  2  0  0  0  0
 18 24  2  0  0  0  0
 21 25  1  0  0  0  0
 22 26  2  0  0  0  0
 25 27  1  0  0  0  0
 25 28  2  0  0  0  0
 27 29  2  0  0  0  0
 27 30  1  0  0  0  0
 29 31  1  0  0  0  0
 30 32  2  0  0  0  0
 11 15  1  0  0  0  0
 14 19  1  0  0  0  0
 23 24  1  0  0  0  0
 26 28  1  0  0  0  0
 31 32  1  0  0  0  0
M  END
>  <MolRegNo>
2141502

>  <m>
=

>  <Value>
25000

>  <Unit>
nM

>  <Type>
IC50

>  <pValue>
4.6

>  <Ligand Efficiency>
0.2

>  <Binding Efficiency>
10.69

>  <Surface Efficiency>
4.64

>  <Assay Index>
1058329

>  <Assay Category>


>  <Assay Organism>
Homo sapiens

>  <Target ID>
17045

>  <Target Name>
Cytochrome P450 3A4

>  <Target Organism>
Homo sapiens

>  <Target Description>
Target is a single protein chain

>  <Sequence Accession>
P08684

>  <Reference>


>  <Pubmed ID>


>  <DOI>


$$$$
2119072
Actelion Java MolfileCreator 1.0

 32 36  0  0  1  0  0  0  0  0999 V2000
    0.0000   -0.0000   -0.0000 Cl  0  0  0  0  0  0  0  0  0  0  0  0
   -1.0631    0.6211   -0.0000 C   0  0  0  0  0  0  0  0  0  0  0  0
   -2.3890   -0.1195   -0.0000 C   0  0  0  0  0  0  0  0  0  0  0  0
   -1.0751    2.1501   -0.0000 C   0  0  0  0  0  0  0  0  0  0  0  0
   -3.7149    0.6450   -0.0000 C   0  0  0  0  0  0  0  0  0  0  0  0
   -2.4010    2.9146   -0.0000 C   0  0  0  0  0  0  0  0  0  0  0  0
   -3.7269    2.1740   -0.0000 C   0  0  0  0  0  0  0  0  0  0  0  0
   -5.0408   -0.1075   -0.0000 C   0  0  0  0  0  0  0  0  0  0  0  0
   -5.0528    2.9385   -0.0000 N   0  0  0  0  0  0  0  0  0  0  0  0
   -6.1039    0.5136   -0.0000 O   0  0  0  0  0  0  0  0  0  0  0  0
   -5.0528   -1.6126   -0.0000 N   0  0  0  0  0  0  0  0  0  0  0  0
   -5.2081    4.4436   -0.0000 N   0  0  0  0  0  0  0  0  0  0  0  0
   -6.4265    2.3173   -0.0000 N   0  0  0  0  0  0  0  0  0  0  0  0
   -6.3787   -2.3651   -0.0000 C   0  0  0  0  0  0  0  0  0  0  0  0
   -3.7508   -2.3532   -0.0000 C   0  0  0  0  0  0  0  0  0  0  0  0
   -6.7012    4.7661   -0.0000 C   0  0  0  0  0  0  0  0  0  0  0  0
   -7.4537    3.4521   -0.0000 C   0  0  0  0  0  0  0  0  0  0  0  0
   -6.3906   -3.8702   -0.0000 C   0  0  0  0  0  0  0  0  0  0  0  0
   -7.7046   -1.6006   -0.0000 C   0  0  0  0  0  0  0  0  0  0  0  0
   -3.7627   -3.8583   -0.0000 C   0  0  0  0  0  0  0  0  0  0  0  0
   -5.0886   -4.6108   -0.0000 O   0  0  0  0  0  0  0  0  0  0  0  0
   -9.0305   -2.3532   -0.0000 C   0  0  0  0  0  0  0  0  0  0  0  0
   -9.0305   -3.8583   -0.0000 C   0  0  0  0  0  0  0  0  0  0  0  0
  -10.3564   -1.5887   -0.0000 C   0  0  0  0  0  0  0  0  0  0  0  0
  -10.3444   -4.6108   -0.0000 C   0  0  0  0  0  0  0  0  0  0  0  0
  -11.6703   -2.3412   -0.0000 C   0  0  0  0  0  0  0  0  0  0  0  0
  -10.3444   -6.1159   -0.0000 C   0  0  0  0  0  0  0  0  0  0  0  0
  -11.6703   -3.8463   -0.0000 C   0  0  0  0  0  0  0  0  0  0  0  0
  -11.5748   -6.9879   -0.0000 N   0  0  0  0  0  0  0  0  0  0  0  0
   -9.1260   -6.9640   -0.0000 N   0  0  0  0  0  0  0  0  0  0  0  0
  -11.1089   -8.4093   -0.0000 O   0  0  0  0  0  0  0  0  0  0  0  0
   -9.5919   -8.3974   -0.0000 C   0  0  0  0  0  0  0  0  0  0  0  0
  1  2  1  0  0  0  0
  2  3  2  0  0  0  0
  2  4  1  0  0  0  0
  3  5  1  0  0  0  0
  4  6  2  0  0  0  0
  5  7  2  0  0  0  0
  5  8  1  0  0  0  0
  7  9  1  0  0  0  0
  8 10  2  0  0  0  0
  8 11  1  0  0  0  0
  9 12  1  0  0  0  0
  9 13  1  0  0  0  0
 11 14  1  0  0  0  0
 11 15  1  0  0  0  0
 12 16  2  0  0  0  0
 13 17  2  0  0  0  0
 14 18  1  0  0  0  0
 14 19  1  1  0  0  0
 15 20  1  0  0  0  0
 18 21  1  0  0  0  0
 19 22  1  0  0  0  0
 22 23  2  0  0  0  0
 22 24  1  0  0  0  0
 23 25  1  0  0  0  0
 24 26  2  0  0  0  0
 25 27  1  0  0  0  0
 25 28  2  0  0  0  0
 27 29  2  0  0  0  0
 27 30  1  0  0  0  0
 29 31  1  0  0  0  0
 30 32  2  0  0  0  0
  6  7  1  0  0  0  0
 16 17  1  0  0  0  0
 20 21  1  0  0  0  0
 26 28  1  0  0  0  0
 31 32  1  0  0  0  0
M  END
>  <MolRegNo>
2119072

>  <m>
=

>  <Value>
21000

>  <Unit>
nM

>  <Type>
IC50

>  <pValue>
4.68

>  <Ligand Efficiency>
0.2

>  <Binding Efficiency>
10.37

>  <Surface Efficiency>
4.72

>  <Assay Index>
1058329

>  <Assay Category>


>  <Assay Organism>
Homo sapiens

>  <Target ID>
17045

>  <Target Name>
Cytochrome P450 3A4

>  <Target Organism>
Homo sapiens

>  <Target Description>
Target is a single protein chain

>  <Sequence Accession>
P08684

>  <Reference>


>  <Pubmed ID>


>  <DOI>


$$$$
2172633
Actelion Java MolfileCreator 1.0

 33 37  0  0  1  0  0  0  0  0999 V2000
    0.0000   -0.0000   -0.0000 O   0  0  0  0  0  0  0  0  0  0  0  0
    1.0464   -0.6014   -0.0000 C   0  0  0  0  0  0  0  0  0  0  0  0
    2.3575    0.1684   -0.0000 N   0  0  0  0  0  0  0  0  0  0  0  0
    1.0344   -2.1169   -0.0000 C   0  0  0  0  0  0  0  0  0  0  0  0
    2.3454    1.7080   -0.0000 C   0  0  0  0  0  0  0  0  0  0  0  0
    3.6685   -0.5894   -0.0000 C   0  0  0  0  0  0  0  0  0  0  0  0
   -0.3007   -2.8626   -0.0000 C   0  0  0  0  0  0  0  0  0  0  0  0
    2.3454   -2.8626   -0.0000 C   0  0  0  0  0  0  0  0  0  0  0  0
    3.6565    2.4777   -0.0000 C   0  0  0  0  0  0  0  0  0  0  0  0
    1.0103    2.4898   -0.0000 C   0  0  0  0  0  0  0  0  0  0  0  0
    4.9795    0.1804   -0.0000 C   0  0  0  0  0  0  0  0  0  0  0  0
   -1.6358   -2.0928   -0.0000 N   0  0  0  0  0  0  0  0  0  0  0  0
   -0.3127   -4.3781   -0.0000 C   0  0  0  0  0  0  0  0  0  0  0  0
    2.3334   -4.3781   -0.0000 C   0  0  0  0  0  0  0  0  0  0  0  0
    4.9675    1.7200   -0.0000 O   0  0  0  0  0  0  0  0  0  0  0  0
    1.0103    4.0293   -0.0000 C   0  0  0  0  0  0  0  0  0  0  0  0
   -1.7921   -0.5773   -0.0000 N   0  0  0  0  0  0  0  0  0  0  0  0
   -3.0190   -2.7183   -0.0000 N   0  0  0  0  0  0  0  0  0  0  0  0
    0.9983   -5.1239   -0.0000 C   0  0  0  0  0  0  0  0  0  0  0  0
    3.3798   -4.9795   -0.0000 C   0  0  0  0  0  0  0  0  0  0  0  0
    2.3214    4.7991   -0.0000 C   0  0  0  0  0  0  0  0  0  0  0  0
   -0.3127    4.8111   -0.0000 C   0  0  0  0  0  0  0  0  0  0  0  0
   -3.2956   -0.2526   -0.0000 C   0  0  0  0  0  0  0  0  0  0  0  0
   -4.0534   -1.5756   -0.0000 C   0  0  0  0  0  0  0  0  0  0  0  0
    0.9863   -6.3387   -0.0000 C   0  0  0  0  0  0  0  0  0  0  0  0
    2.3214    6.3387   -0.0000 C   0  0  0  0  0  0  0  0  0  0  0  0
   -0.3127    6.3507   -0.0000 C   0  0  0  0  0  0  0  0  0  0  0  0
    3.6324    7.1084   -0.0000 C   0  0  0  0  0  0  0  0  0  0  0  0
    0.9983    7.1205   -0.0000 C   0  0  0  0  0  0  0  0  0  0  0  0
    3.7767    8.6240   -0.0000 N   0  0  0  0  0  0  0  0  0  0  0  0
    4.9916    6.4710   -0.0000 N   0  0  0  0  0  0  0  0  0  0  0  0
    5.2562    8.9367   -0.0000 O   0  0  0  0  0  0  0  0  0  0  0  0
    6.0139    7.6136   -0.0000 C   0  0  0  0  0  0  0  0  0  0  0  0
  1  2  2  0  0  0  0
  2  3  1  0  0  0  0
  2  4  1  0  0  0  0
  3  5  1  0  0  0  0
  3  6  1  0  0  0  0
  4  7  2  0  0  0  0
  4  8  1  0  0  0  0
  5  9  1  0  0  0  0
  5 10  1  6  0  0  0
  6 11  1  0  0  0  0
  7 12  1  0  0  0  0
  7 13  1  0  0  0  0
  8 14  2  0  0  0  0
  9 15  1  0  0  0  0
 10 16  1  0  0  0  0
 12 17  1  0  0  0  0
 12 18  1  0  0  0  0
 13 19  2  0  0  0  0
 14 20  1  0  0  0  0
 16 21  2  0  0  0  0
 16 22  1  0  0  0  0
 17 23  2  0  0  0  0
 18 24  2  0  0  0  0
 19 25  1  0  0  0  0
 21 26  1  0  0  0  0
 22 27  2  0  0  0  0
 26 28  1  0  0  0  0
 26 29  2  0  0  0  0
 28 30  2  0  0  0  0
 28 31  1  0  0  0  0
 30 32  1  0  0  0  0
 31 33  2  0  0  0  0
 11 15  1  0  0  0  0
 14 19  1  0  0  0  0
 23 24  1  0  0  0  0
 27 29  1  0  0  0  0
 32 33  1  0  0  0  0
M  END
>  <MolRegNo>
2172633

>  <m>
=

>  <Value>
25000

>  <Unit>
nM

>  <Type>
IC50

>  <pValue>
4.6

>  <Ligand Efficiency>
0.19

>  <Binding Efficiency>
10.35

>  <Surface Efficiency>
4.64

>  <Assay Index>
1058329

>  <Assay Category>


>  <Assay Organism>
Homo sapiens

>  <Target ID>
17045

>  <Target Name>
Cytochrome P450 3A4

>  <Target Organism>
Homo sapiens

>  <Target Description>
Target is a single protein chain

>  <Sequence Accession>
P08684

>  <Reference>


>  <Pubmed ID>


>  <DOI>


$$$$
2148193
Actelion Java MolfileCreator 1.0

 35 39  0  0  1  0  0  0  0  0999 V2000
    0.0000   -0.0000   -0.0000 F   0  0  0  0  0  0  0  0  0  0  0  0
   -1.0696   -0.6009   -0.0000 C   0  0  0  0  0  0  0  0  0  0  0  0
   -1.0817   -1.8148   -0.0000 F   0  0  0  0  0  0  0  0  0  0  0  0
   -0.0240   -1.2018   -0.0000 F   0  0  0  0  0  0  0  0  0  0  0  0
   -2.4037    0.1683   -0.0000 C   0  0  0  0  0  0  0  0  0  0  0  0
   -3.7377   -0.5769   -0.0000 C   0  0  0  0  0  0  0  0  0  0  0  0
   -2.4157    1.7066   -0.0000 C   0  0  0  0  0  0  0  0  0  0  0  0
   -5.0718    0.1923   -0.0000 C   0  0  0  0  0  0  0  0  0  0  0  0
   -3.7498    2.4758   -0.0000 C   0  0  0  0  0  0  0  0  0  0  0  0
   -6.4058   -0.5528   -0.0000 N   0  0  0  0  0  0  0  0  0  0  0  0
   -5.0838    1.7307   -0.0000 C   0  0  0  0  0  0  0  0  0  0  0  0
   -7.7880    0.0841   -0.0000 N   0  0  0  0  0  0  0  0  0  0  0  0
   -6.5501   -2.0431   -0.0000 N   0  0  0  0  0  0  0  0  0  0  0  0
   -6.4179    2.5119   -0.0000 C   0  0  0  0  0  0  0  0  0  0  0  0
   -8.8216   -1.0336   -0.0000 C   0  0  0  0  0  0  0  0  0  0  0  0
   -8.0524   -2.3556   -0.0000 C   0  0  0  0  0  0  0  0  0  0  0  0
   -7.4875    1.9109   -0.0000 O   0  0  0  0  0  0  0  0  0  0  0  0
   -6.4299    4.0502   -0.0000 N   0  0  0  0  0  0  0  0  0  0  0  0
   -7.7639    4.8314   -0.0000 C   0  0  0  0  0  0  0  0  0  0  0  0
   -5.1199    4.8194   -0.0000 C   0  0  0  0  0  0  0  0  0  0  0  0
   -7.7760    6.3698   -0.0000 C   0  0  0  0  0  0  0  0  0  0  0  0
   -9.0980    4.0863   -0.0000 C   0  0  0  0  0  0  0  0  0  0  0  0
   -5.1319    6.3578   -0.0000 C   0  0  0  0  0  0  0  0  0  0  0  0
   -6.4659    7.1390   -0.0000 O   0  0  0  0  0  0  0  0  0  0  0  0
  -10.4320    4.8675   -0.0000 C   0  0  0  0  0  0  0  0  0  0  0  0
  -10.4320    6.4058   -0.0000 C   0  0  0  0  0  0  0  0  0  0  0  0
  -11.7661    4.1223   -0.0000 C   0  0  0  0  0  0  0  0  0  0  0  0
  -11.7541    7.1870   -0.0000 C   0  0  0  0  0  0  0  0  0  0  0  0
  -13.0881    4.9035   -0.0000 C   0  0  0  0  0  0  0  0  0  0  0  0
  -11.7541    8.7254   -0.0000 C   0  0  0  0  0  0  0  0  0  0  0  0
  -13.0881    6.4419   -0.0000 C   0  0  0  0  0  0  0  0  0  0  0  0
  -12.9920    9.6268   -0.0000 N   0  0  0  0  0  0  0  0  0  0  0  0
  -10.5282    9.6028   -0.0000 N   0  0  0  0  0  0  0  0  0  0  0  0
  -12.5232   11.0810   -0.0000 O   0  0  0  0  0  0  0  0  0  0  0  0
  -10.9969   11.0690   -0.0000 C   0  0  0  0  0  0  0  0  0  0  0  0
  1  2  1  0  0  0  0
  2  3  1  0  0  0  0
  2  4  1  0  0  0  0
  2  5  1  0  0  0  0
  5  6  2  0  0  0  0
  5  7  1  0  0  0  0
  6  8  1  0  0  0  0
  7  9  2  0  0  0  0
  8 10  1  0  0  0  0
  8 11  2  0  0  0  0
 10 12  1  0  0  0  0
 10 13  1  0  0  0  0
 11 14  1  0  0  0  0
 12 15  2  0  0  0  0
 13 16  2  0  0  0  0
 14 17  2  0  0  0  0
 14 18  1  0  0  0  0
 18 19  1  0  0  0  0
 18 20  1  0  0  0  0
 19 21  1  0  0  0  0
 19 22  1  6  0  0  0
 20 23  1  0  0  0  0
 21 24  1  0  0  0  0
 22 25  1  0  0  0  0
 25 26  2  0  0  0  0
 25 27  1  0  0  0  0
 26 28  1  0  0  0  0
 27 29  2  0  0  0  0
 28 30  1  0  0  0  0
 28 31  2  0  0  0  0
 30 32  2  0  0  0  0
 30 33  1  0  0  0  0
 32 34  1  0  0  0  0
 33 35  2  0  0  0  0
  9 11  1  0  0  0  0
 15 16  1  0  0  0  0
 23 24  1  0  0  0  0
 29 31  1  0  0  0  0
 34 35  1  0  0  0  0
M  END
>  <MolRegNo>
2148193

>  <m>
=

>  <Value>
15000

>  <Unit>
nM

>  <Type>
IC50

>  <pValue>
4.82

>  <Ligand Efficiency>
0.19

>  <Binding Efficiency>
9.96

>  <Surface Efficiency>
4.86

>  <Assay Index>
1058329

>  <Assay Category>


>  <Assay Organism>
Homo sapiens

>  <Target ID>
17045

>  <Target Name>
Cytochrome P450 3A4

>  <Target Organism>
Homo sapiens

>  <Target Description>
Target is a single protein chain

>  <Sequence Accession>
P08684

>  <Reference>


>  <Pubmed ID>


>  <DOI>


$$$$
2145963
Actelion Java MolfileCreator 1.0

 32 36  0  0  1  0  0  0  0  0999 V2000
    0.0000   -0.0000   -0.0000 Cl  0  0  0  0  0  0  0  0  0  0  0  0
   -1.0615    0.6202   -0.0000 C   0  0  0  0  0  0  0  0  0  0  0  0
   -2.3854   -0.1193   -0.0000 C   0  0  0  0  0  0  0  0  0  0  0  0
   -1.0734    2.1468   -0.0000 C   0  0  0  0  0  0  0  0  0  0  0  0
   -2.3973   -1.6221   -0.0000 C   0  0  0  0  0  0  0  0  0  0  0  0
   -3.7093    0.6441   -0.0000 C   0  0  0  0  0  0  0  0  0  0  0  0
   -2.3973    2.9102   -0.0000 C   0  0  0  0  0  0  0  0  0  0  0  0
   -3.6377   -2.4808   -0.0000 N   0  0  0  0  0  0  0  0  0  0  0  0
   -1.1808   -2.4808   -0.0000 N   0  0  0  0  0  0  0  0  0  0  0  0
   -3.7212    2.1707   -0.0000 C   0  0  0  0  0  0  0  0  0  0  0  0
   -3.1845   -3.9120   -0.0000 O   0  0  0  0  0  0  0  0  0  0  0  0
   -1.6578   -3.9120   -0.0000 C   0  0  0  0  0  0  0  0  0  0  0  0
   -5.0451    2.9340   -0.0000 C   0  0  0  0  0  0  0  0  0  0  0  0
   -6.3689    2.1826   -0.0000 C   0  0  0  0  0  0  0  0  0  0  0  0
   -7.6928    2.9459   -0.0000 N   0  0  0  0  0  0  0  0  0  0  0  0
   -6.3809    0.6798   -0.0000 C   0  0  0  0  0  0  0  0  0  0  0  0
   -7.7167    4.4726   -0.0000 C   0  0  0  0  0  0  0  0  0  0  0  0
   -9.0167    2.1945   -0.0000 C   0  0  0  0  0  0  0  0  0  0  0  0
   -7.7048   -0.0716   -0.0000 O   0  0  0  0  0  0  0  0  0  0  0  0
   -6.6790    5.0928   -0.0000 O   0  0  0  0  0  0  0  0  0  0  0  0
   -9.0406    5.2359   -0.0000 C   0  0  0  0  0  0  0  0  0  0  0  0
   -9.0286    0.6918   -0.0000 C   0  0  0  0  0  0  0  0  0  0  0  0
   -9.0644    6.7625   -0.0000 C   0  0  0  0  0  0  0  0  0  0  0  0
  -10.3525    4.4845   -0.0000 C   0  0  0  0  0  0  0  0  0  0  0  0
   -7.7644    7.5378   -0.0000 N   0  0  0  0  0  0  0  0  0  0  0  0
  -10.3883    7.5259   -0.0000 C   0  0  0  0  0  0  0  0  0  0  0  0
  -11.6764    5.2478   -0.0000 C   0  0  0  0  0  0  0  0  0  0  0  0
   -6.4047    6.9295   -0.0000 N   0  0  0  0  0  0  0  0  0  0  0  0
   -7.6451    9.0406   -0.0000 N   0  0  0  0  0  0  0  0  0  0  0  0
  -11.7003    6.7745   -0.0000 C   0  0  0  0  0  0  0  0  0  0  0  0
   -5.4148    8.0745   -0.0000 C   0  0  0  0  0  0  0  0  0  0  0  0
   -6.1781    9.3745   -0.0000 C   0  0  0  0  0  0  0  0  0  0  0  0
  1  2  1  0  0  0  0
  2  3  2  0  0  0  0
  2  4  1  0  0  0  0
  3  5  1  0  0  0  0
  3  6  1  0  0  0  0
  4  7  2  0  0  0  0
  5  8  2  0  0  0  0
  5  9  1  0  0  0  0
  6 10  2  0  0  0  0
  8 11  1  0  0  0  0
  9 12  2  0  0  0  0
 10 13  1  0  0  0  0
 14 13  1  6  0  0  0
 14 15  1  0  0  0  0
 14 16  1  0  0  0  0
 15 17  1  0  0  0  0
 15 18  1  0  0  0  0
 16 19  1  0  0  0  0
 17 20  2  0  0  0  0
 17 21  1  0  0  0  0
 18 22  1  0  0  0  0
 21 23  2  0  0  0  0
 21 24  1  0  0  0  0
 23 25  1  0  0  0  0
 23 26  1  0  0  0  0
 24 27  2  0  0  0  0
 25 28  1  0  0  0  0
 25 29  1  0  0  0  0
 26 30  2  0  0  0  0
 28 31  2  0  0  0  0
 29 32  2  0  0  0  0
  7 10  1  0  0  0  0
 11 12  1  0  0  0  0
 19 22  1  0  0  0  0
 27 30  1  0  0  0  0
 31 32  1  0  0  0  0
M  END
>  <MolRegNo>
2145963

>  <m>
=

>  <Value>
21000

>  <Unit>
nM

>  <Type>
IC50

>  <pValue>
4.68

>  <Ligand Efficiency>
0.2

>  <Binding Efficiency>
10.37

>  <Surface Efficiency>
4.72

>  <Assay Index>
1058329

>  <Assay Category>


>  <Assay Organism>
Homo sapiens

>  <Target ID>
17045

>  <Target Name>
Cytochrome P450 3A4

>  <Target Organism>
Homo sapiens

>  <Target Description>
Target is a single protein chain

>  <Sequence Accession>
P08684

>  <Reference>


>  <Pubmed ID>


>  <DOI>


$$$$
2111220
Actelion Java MolfileCreator 1.0

 33 37  0  0  1  0  0  0  0  0999 V2000
    0.0000   -0.0000   -0.0000 F   0  0  0  0  0  0  0  0  0  0  0  0
   -0.0120    1.2349   -0.0000 C   0  0  0  0  0  0  0  0  0  0  0  0
    1.2949    2.0023   -0.0000 C   0  0  0  0  0  0  0  0  0  0  0  0
   -1.3428    2.0023   -0.0000 C   0  0  0  0  0  0  0  0  0  0  0  0
    2.3380    1.4028   -0.0000 F   0  0  0  0  0  0  0  0  0  0  0  0
    1.2829    3.5369   -0.0000 C   0  0  0  0  0  0  0  0  0  0  0  0
   -1.3548    3.5369   -0.0000 C   0  0  0  0  0  0  0  0  0  0  0  0
   -0.0480    4.3043   -0.0000 C   0  0  0  0  0  0  0  0  0  0  0  0
   -2.6857    4.3043   -0.0000 N   0  0  0  0  0  0  0  0  0  0  0  0
   -0.0599    5.8389   -0.0000 C   0  0  0  0  0  0  0  0  0  0  0  0
   -2.8415    5.8150   -0.0000 N   0  0  0  0  0  0  0  0  0  0  0  0
   -4.0645    3.6808   -0.0000 N   0  0  0  0  0  0  0  0  0  0  0  0
   -1.1270    6.4624   -0.0000 O   0  0  0  0  0  0  0  0  0  0  0  0
    1.2469    6.6063   -0.0000 N   0  0  0  0  0  0  0  0  0  0  0  0
   -4.3402    6.1387   -0.0000 C   0  0  0  0  0  0  0  0  0  0  0  0
   -5.0956    4.8198   -0.0000 C   0  0  0  0  0  0  0  0  0  0  0  0
    1.2349    8.1409   -0.0000 C   0  0  0  0  0  0  0  0  0  0  0  0
    2.5538    5.8509   -0.0000 C   0  0  0  0  0  0  0  0  0  0  0  0
    2.5418    8.9083   -0.0000 C   0  0  0  0  0  0  0  0  0  0  0  0
   -0.0959    8.9203   -0.0000 C   0  0  0  0  0  0  0  0  0  0  0  0
    3.8607    6.6183   -0.0000 C   0  0  0  0  0  0  0  0  0  0  0  0
    3.8487    8.1529   -0.0000 O   0  0  0  0  0  0  0  0  0  0  0  0
   -0.0959   10.4549   -0.0000 C   0  0  0  0  0  0  0  0  0  0  0  0
    1.2110   11.2223   -0.0000 C   0  0  0  0  0  0  0  0  0  0  0  0
   -1.4148   11.2343   -0.0000 C   0  0  0  0  0  0  0  0  0  0  0  0
    1.2110   12.7569   -0.0000 C   0  0  0  0  0  0  0  0  0  0  0  0
   -1.4148   12.7689   -0.0000 C   0  0  0  0  0  0  0  0  0  0  0  0
    2.5178   13.5243   -0.0000 N   0  0  0  0  0  0  0  0  0  0  0  0
   -0.1079   13.5363   -0.0000 C   0  0  0  0  0  0  0  0  0  0  0  0
    2.6617   15.0350   -0.0000 N   0  0  0  0  0  0  0  0  0  0  0  0
    3.8726   12.8888   -0.0000 N   0  0  0  0  0  0  0  0  0  0  0  0
    4.1364   15.3467   -0.0000 C   0  0  0  0  0  0  0  0  0  0  0  0
    4.8918   14.0278   -0.0000 C   0  0  0  0  0  0  0  0  0  0  0  0
  1  2  1  0  0  0  0
  2  3  2  0  0  0  0
  2  4  1  0  0  0  0
  3  5  1  0  0  0  0
  3  6  1  0  0  0  0
  4  7  2  0  0  0  0
  6  8  2  0  0  0  0
  7  9  1  0  0  0  0
  8 10  1  0  0  0  0
  9 11  1  0  0  0  0
  9 12  1  0  0  0  0
 10 13  2  0  0  0  0
 10 14  1  0  0  0  0
 11 15  2  0  0  0  0
 12 16  2  0  0  0  0
 14 17  1  0  0  0  0
 14 18  1  0  0  0  0
 17 19  1  0  0  0  0
 17 20  1  6  0  0  0
 18 21  1  0  0  0  0
 19 22  1  0  0  0  0
 20 23  1  0  0  0  0
 23 24  2  0  0  0  0
 23 25  1  0  0  0  0
 24 26  1  0  0  0  0
 25 27  2  0  0  0  0
 26 28  1  0  0  0  0
 26 29  2  0  0  0  0
 28 30  1  0  0  0  0
 28 31  1  0  0  0  0
 30 32  2  0  0  0  0
 31 33  2  0  0  0  0
  7  8  1  0  0  0  0
 15 16  1  0  0  0  0
 21 22  1  0  0  0  0
 27 29  1  0  0  0  0
 32 33  1  0  0  0  0
M  END
>  <MolRegNo>
2111220

>  <m>
=

>  <Value>
17000

>  <Unit>
nM

>  <Type>
IC50

>  <pValue>
4.77

>  <Ligand Efficiency>
0.2

>  <Binding Efficiency>
10.57

>  <Surface Efficiency>
5.24

>  <Assay Index>
1058329

>  <Assay Category>


>  <Assay Organism>
Homo sapiens

>  <Target ID>
17045

>  <Target Name>
Cytochrome P450 3A4

>  <Target Organism>
Homo sapiens

>  <Target Description>
Target is a single protein chain

>  <Sequence Accession>
P08684

>  <Reference>


>  <Pubmed ID>


>  <DOI>


$$$$
2162341
Actelion Java MolfileCreator 1.0

 33 37  0  0  1  0  0  0  0  0999 V2000
    0.0000   -0.0000   -0.0000 O   0  0  0  0  0  0  0  0  0  0  0  0
    1.0445    0.6243   -0.0000 C   0  0  0  0  0  0  0  0  0  0  0  0
    1.0325    2.1610   -0.0000 N   0  0  0  0  0  0  0  0  0  0  0  0
    2.3531   -0.1321   -0.0000 C   0  0  0  0  0  0  0  0  0  0  0  0
   -0.3001    2.9413   -0.0000 C   0  0  0  0  0  0  0  0  0  0  0  0
    2.3411    2.9293   -0.0000 C   0  0  0  0  0  0  0  0  0  0  0  0
    2.3411   -1.6447   -0.0000 C   0  0  0  0  0  0  0  0  0  0  0  0
    3.6617    0.6363   -0.0000 C   0  0  0  0  0  0  0  0  0  0  0  0
   -0.3121    4.4780   -0.0000 C   0  0  0  0  0  0  0  0  0  0  0  0
   -1.6327    2.1970   -0.0000 C   0  0  0  0  0  0  0  0  0  0  0  0
    2.3291    4.4660   -0.0000 C   0  0  0  0  0  0  0  0  0  0  0  0
    1.0085   -2.3891   -0.0000 N   0  0  0  0  0  0  0  0  0  0  0  0
    3.6497   -2.3891   -0.0000 C   0  0  0  0  0  0  0  0  0  0  0  0
    4.9703   -0.1080   -0.0000 C   0  0  0  0  0  0  0  0  0  0  0  0
    0.9965    5.2464   -0.0000 O   0  0  0  0  0  0  0  0  0  0  0  0
   -2.9654    2.9774   -0.0000 C   0  0  0  0  0  0  0  0  0  0  0  0
   -0.3722   -1.7528   -0.0000 N   0  0  0  0  0  0  0  0  0  0  0  0
    0.8644   -3.8778   -0.0000 N   0  0  0  0  0  0  0  0  0  0  0  0
    4.9583   -1.6207   -0.0000 C   0  0  0  0  0  0  0  0  0  0  0  0
    3.6377   -3.6016   -0.0000 C   0  0  0  0  0  0  0  0  0  0  0  0
   -2.9654    4.5141   -0.0000 C   0  0  0  0  0  0  0  0  0  0  0  0
   -4.2980    2.2330   -0.0000 C   0  0  0  0  0  0  0  0  0  0  0  0
   -1.4046   -2.8693   -0.0000 C   0  0  0  0  0  0  0  0  0  0  0  0
   -0.6363   -4.1899   -0.0000 C   0  0  0  0  0  0  0  0  0  0  0  0
    6.0027   -2.2210   -0.0000 C   0  0  0  0  0  0  0  0  0  0  0  0
   -4.2860    5.2944   -0.0000 C   0  0  0  0  0  0  0  0  0  0  0  0
   -5.6186    3.0134   -0.0000 C   0  0  0  0  0  0  0  0  0  0  0  0
   -4.2860    6.8311   -0.0000 N   0  0  0  0  0  0  0  0  0  0  0  0
   -5.6186    4.5501   -0.0000 C   0  0  0  0  0  0  0  0  0  0  0  0
   -5.5225    7.7315   -0.0000 N   0  0  0  0  0  0  0  0  0  0  0  0
   -3.0614    7.7075   -0.0000 N   0  0  0  0  0  0  0  0  0  0  0  0
   -5.0543    9.1842   -0.0000 C   0  0  0  0  0  0  0  0  0  0  0  0
   -3.5296    9.1722   -0.0000 C   0  0  0  0  0  0  0  0  0  0  0  0
  1  2  2  0  0  0  0
  2  3  1  0  0  0  0
  2  4  1  0  0  0  0
  3  5  1  0  0  0  0
  3  6  1  0  0  0  0
  4  7  2  0  0  0  0
  4  8  1  0  0  0  0
  5  9  1  0  0  0  0
  5 10  1  6  0  0  0
  6 11  1  0  0  0  0
  7 12  1  0  0  0  0
  7 13  1  0  0  0  0
  8 14  2  0  0  0  0
  9 15  1  0  0  0  0
 10 16  1  0  0  0  0
 12 17  1  0  0  0  0
 12 18  1  0  0  0  0
 13 19  2  0  0  0  0
 13 20  1  0  0  0  0
 16 21  2  0  0  0  0
 16 22  1  0  0  0  0
 17 23  2  0  0  0  0
 18 24  2  0  0  0  0
 19 25  1  0  0  0  0
 21 26  1  0  0  0  0
 22 27  2  0  0  0  0
 26 28  1  0  0  0  0
 26 29  2  0  0  0  0
 28 30  1  0  0  0  0
 28 31  1  0  0  0  0
 30 32  2  0  0  0  0
 31 33  2  0  0  0  0
 11 15  1  0  0  0  0
 14 19  1  0  0  0  0
 23 24  1  0  0  0  0
 27 29  1  0  0  0  0
 32 33  1  0  0  0  0
M  END
>  <MolRegNo>
2162341

>  <m>
=

>  <Value>
44000

>  <Unit>
nM

>  <Type>
IC50

>  <pValue>
4.36

>  <Ligand Efficiency>
0.18

>  <Binding Efficiency>
9.82

>  <Surface Efficiency>
4.79

>  <Assay Index>
1058329

>  <Assay Category>


>  <Assay Organism>
Homo sapiens

>  <Target ID>
17045

>  <Target Name>
Cytochrome P450 3A4

>  <Target Organism>
Homo sapiens

>  <Target Description>
Target is a single protein chain

>  <Sequence Accession>
P08684

>  <Reference>


>  <Pubmed ID>


>  <DOI>


$$$$
2153593
Actelion Java MolfileCreator 1.0

 34 38  0  0  1  0  0  0  0  0999 V2000
    0.0000   -0.0000   -0.0000 F   0  0  0  0  0  0  0  0  0  0  0  0
    0.0000    1.2455   -0.0000 C   0  0  0  0  0  0  0  0  0  0  0  0
    1.3180    2.0194   -0.0000 C   0  0  0  0  0  0  0  0  0  0  0  0
   -1.3301    2.0315   -0.0000 C   0  0  0  0  0  0  0  0  0  0  0  0
    1.3180    3.5671   -0.0000 C   0  0  0  0  0  0  0  0  0  0  0  0
    2.6361    1.2576   -0.0000 C   0  0  0  0  0  0  0  0  0  0  0  0
   -1.3301    3.5792   -0.0000 C   0  0  0  0  0  0  0  0  0  0  0  0
   -0.0121    4.3531   -0.0000 C   0  0  0  0  0  0  0  0  0  0  0  0
    3.9541    2.0315   -0.0000 C   0  0  0  0  0  0  0  0  0  0  0  0
   -0.0121    5.9009   -0.0000 N   0  0  0  0  0  0  0  0  0  0  0  0
    5.2721    1.2697   -0.0000 N   0  0  0  0  0  0  0  0  0  0  0  0
    3.9420    3.5792   -0.0000 C   0  0  0  0  0  0  0  0  0  0  0  0
    1.2213    6.7836   -0.0000 N   0  0  0  0  0  0  0  0  0  0  0  0
   -1.2576    6.7957   -0.0000 N   0  0  0  0  0  0  0  0  0  0  0  0
    5.2600   -0.2539   -0.0000 C   0  0  0  0  0  0  0  0  0  0  0  0
    6.5901    2.0435   -0.0000 C   0  0  0  0  0  0  0  0  0  0  0  0
    5.2600    4.3531   -0.0000 O   0  0  0  0  0  0  0  0  0  0  0  0
    0.7376    8.2588   -0.0000 C   0  0  0  0  0  0  0  0  0  0  0  0
   -0.7860    8.2709   -0.0000 C   0  0  0  0  0  0  0  0  0  0  0  0
    4.1838   -0.8585   -0.0000 O   0  0  0  0  0  0  0  0  0  0  0  0
    6.5780   -1.0157   -0.0000 C   0  0  0  0  0  0  0  0  0  0  0  0
    6.5780    3.5913   -0.0000 C   0  0  0  0  0  0  0  0  0  0  0  0
    6.5659   -2.5393   -0.0000 C   0  0  0  0  0  0  0  0  0  0  0  0
    7.8961   -0.2418   -0.0000 C   0  0  0  0  0  0  0  0  0  0  0  0
    5.2237   -3.2890   -0.0000 N   0  0  0  0  0  0  0  0  0  0  0  0
    7.8840   -3.2890   -0.0000 C   0  0  0  0  0  0  0  0  0  0  0  0
    9.2141   -0.9915   -0.0000 C   0  0  0  0  0  0  0  0  0  0  0  0
    3.8332   -2.6481   -0.0000 N   0  0  0  0  0  0  0  0  0  0  0  0
    5.0786   -4.7884   -0.0000 N   0  0  0  0  0  0  0  0  0  0  0  0
    9.2020   -2.5151   -0.0000 C   0  0  0  0  0  0  0  0  0  0  0  0
    7.8719   -4.5103   -0.0000 C   0  0  0  0  0  0  0  0  0  0  0  0
    2.7932   -3.7727   -0.0000 C   0  0  0  0  0  0  0  0  0  0  0  0
    3.5671   -5.1028   -0.0000 C   0  0  0  0  0  0  0  0  0  0  0  0
   10.2540   -3.1197   -0.0000 C   0  0  0  0  0  0  0  0  0  0  0  0
  1  2  1  0  0  0  0
  2  3  2  0  0  0  0
  2  4  1  0  0  0  0
  3  5  1  0  0  0  0
  3  6  1  0  0  0  0
  4  7  2  0  0  0  0
  5  8  2  0  0  0  0
  9  6  1  6  0  0  0
  8 10  1  0  0  0  0
  9 11  1  0  0  0  0
  9 12  1  0  0  0  0
 10 13  1  0  0  0  0
 10 14  1  0  0  0  0
 11 15  1  0  0  0  0
 11 16  1  0  0  0  0
 12 17  1  0  0  0  0
 13 18  2  0  0  0  0
 14 19  2  0  0  0  0
 15 20  2  0  0  0  0
 15 21  1  0  0  0  0
 16 22  1  0  0  0  0
 21 23  2  0  0  0  0
 21 24  1  0  0  0  0
 23 25  1  0  0  0  0
 23 26  1  0  0  0  0
 24 27  2  0  0  0  0
 25 28  1  0  0  0  0
 25 29  1  0  0  0  0
 26 30  2  0  0  0  0
 26 31  1  0  0  0  0
 28 32  2  0  0  0  0
 29 33  2  0  0  0  0
 30 34  1  0  0  0  0
  7  8  1  0  0  0  0
 17 22  1  0  0  0  0
 18 19  1  0  0  0  0
 27 30  1  0  0  0  0
 32 33  1  0  0  0  0
M  END
>  <MolRegNo>
2153593

>  <m>
=

>  <Value>
30000

>  <Unit>
nM

>  <Type>
IC50

>  <pValue>
4.52

>  <Ligand Efficiency>
0.18

>  <Binding Efficiency>
9.8

>  <Surface Efficiency>
4.97

>  <Assay Index>
1058329

>  <Assay Category>


>  <Assay Organism>
Homo sapiens

>  <Target ID>
17045

>  <Target Name>
Cytochrome P450 3A4

>  <Target Organism>
Homo sapiens

>  <Target Description>
Target is a single protein chain

>  <Sequence Accession>
P08684

>  <Reference>


>  <Pubmed ID>


>  <DOI>


$$$$
2125661
Actelion Java MolfileCreator 1.0

 34 38  0  0  1  0  0  0  0  0999 V2000
    0.0000   -0.0000   -0.0000 F   0  0  0  0  0  0  0  0  0  0  0  0
    0.0000    1.2388   -0.0000 C   0  0  0  0  0  0  0  0  0  0  0  0
    1.3109    2.0085   -0.0000 C   0  0  0  0  0  0  0  0  0  0  0  0
   -1.3229    2.0205   -0.0000 C   0  0  0  0  0  0  0  0  0  0  0  0
    1.3109    3.5479   -0.0000 C   0  0  0  0  0  0  0  0  0  0  0  0
    2.6218    1.2508   -0.0000 C   0  0  0  0  0  0  0  0  0  0  0  0
   -1.3229    3.5599   -0.0000 C   0  0  0  0  0  0  0  0  0  0  0  0
   -0.0120    4.3296   -0.0000 C   0  0  0  0  0  0  0  0  0  0  0  0
    3.9328    2.0205   -0.0000 C   0  0  0  0  0  0  0  0  0  0  0  0
   -0.0120    5.8691   -0.0000 N   0  0  0  0  0  0  0  0  0  0  0  0
    5.2437    1.2628   -0.0000 N   0  0  0  0  0  0  0  0  0  0  0  0
    3.9207    3.5599   -0.0000 C   0  0  0  0  0  0  0  0  0  0  0  0
    1.2147    6.7470   -0.0000 N   0  0  0  0  0  0  0  0  0  0  0  0
   -1.2508    6.7591   -0.0000 N   0  0  0  0  0  0  0  0  0  0  0  0
    5.2317   -0.2526   -0.0000 C   0  0  0  0  0  0  0  0  0  0  0  0
    6.5546    2.0325   -0.0000 C   0  0  0  0  0  0  0  0  0  0  0  0
    5.2317    4.3296   -0.0000 O   0  0  0  0  0  0  0  0  0  0  0  0
    0.7336    8.2143   -0.0000 C   0  0  0  0  0  0  0  0  0  0  0  0
   -0.7817    8.2263   -0.0000 C   0  0  0  0  0  0  0  0  0  0  0  0
    4.1613   -0.8539   -0.0000 O   0  0  0  0  0  0  0  0  0  0  0  0
    6.5426   -1.0103   -0.0000 C   0  0  0  0  0  0  0  0  0  0  0  0
    6.5426    3.5720   -0.0000 C   0  0  0  0  0  0  0  0  0  0  0  0
    6.5305   -2.5256   -0.0000 C   0  0  0  0  0  0  0  0  0  0  0  0
    7.8535   -0.2405   -0.0000 C   0  0  0  0  0  0  0  0  0  0  0  0
    5.1956   -3.2713   -0.0000 N   0  0  0  0  0  0  0  0  0  0  0  0
    7.8415   -3.2713   -0.0000 C   0  0  0  0  0  0  0  0  0  0  0  0
    9.1644   -0.9862   -0.0000 C   0  0  0  0  0  0  0  0  0  0  0  0
    3.8125   -2.6339   -0.0000 N   0  0  0  0  0  0  0  0  0  0  0  0
    5.0513   -4.7626   -0.0000 N   0  0  0  0  0  0  0  0  0  0  0  0
    9.1524   -2.5016   -0.0000 C   0  0  0  0  0  0  0  0  0  0  0  0
    2.7782   -3.7524   -0.0000 C   0  0  0  0  0  0  0  0  0  0  0  0
    3.5479   -5.0753   -0.0000 C   0  0  0  0  0  0  0  0  0  0  0  0
   10.4633   -3.2593   -0.0000 O   0  0  0  0  0  0  0  0  0  0  0  0
   10.4513   -4.4740   -0.0000 C   0  0  0  0  0  0  0  0  0  0  0  0
  1  2  1  0  0  0  0
  2  3  2  0  0  0  0
  2  4  1  0  0  0  0
  3  5  1  0  0  0  0
  3  6  1  0  0  0  0
  4  7  2  0  0  0  0
  5  8  2  0  0  0  0
  9  6  1  6  0  0  0
  8 10  1  0  0  0  0
  9 11  1  0  0  0  0
  9 12  1  0  0  0  0
 10 13  1  0  0  0  0
 10 14  1  0  0  0  0
 11 15  1  0  0  0  0
 11 16  1  0  0  0  0
 12 17  1  0  0  0  0
 13 18  2  0  0  0  0
 14 19  2  0  0  0  0
 15 20  2  0  0  0  0
 15 21  1  0  0  0  0
 16 22  1  0  0  0  0
 21 23  2  0  0  0  0
 21 24  1  0  0  0  0
 23 25  1  0  0  0  0
 23 26  1  0  0  0  0
 24 27  2  0  0  0  0
 25 28  1  0  0  0  0
 25 29  1  0  0  0  0
 26 30  2  0  0  0  0
 28 31  2  0  0  0  0
 29 32  2  0  0  0  0
 30 33  1  0  0  0  0
 33 34  1  0  0  0  0
  7  8  1  0  0  0  0
 17 22  1  0  0  0  0
 18 19  1  0  0  0  0
 27 30  1  0  0  0  0
 31 32  1  0  0  0  0
M  END
>  <MolRegNo>
2125661

>  <m>
=

>  <Value>
49000

>  <Unit>
nM

>  <Type>
IC50

>  <pValue>
4.31

>  <Ligand Efficiency>
0.17

>  <Binding Efficiency>
9.3

>  <Surface Efficiency>
4.3

>  <Assay Index>
1058329

>  <Assay Category>


>  <Assay Organism>
Homo sapiens

>  <Target ID>
17045

>  <Target Name>
Cytochrome P450 3A4

>  <Target Organism>
Homo sapiens

>  <Target Description>
Target is a single protein chain

>  <Sequence Accession>
P08684

>  <Reference>


>  <Pubmed ID>


>  <DOI>


$$$$
2155845
Actelion Java MolfileCreator 1.0

 33 37  0  0  1  0  0  0  0  0999 V2000
    0.0000   -0.0000   -0.0000 O   0  0  0  0  0  0  0  0  0  0  0  0
    1.0461   -0.6012   -0.0000 C   0  0  0  0  0  0  0  0  0  0  0  0
    1.0341   -2.1162   -0.0000 N   0  0  0  0  0  0  0  0  0  0  0  0
    2.3567    0.1683   -0.0000 C   0  0  0  0  0  0  0  0  0  0  0  0
   -0.3006   -2.8617   -0.0000 C   0  0  0  0  0  0  0  0  0  0  0  0
    2.3447   -2.8617   -0.0000 C   0  0  0  0  0  0  0  0  0  0  0  0
    2.3447    1.7074   -0.0000 C   0  0  0  0  0  0  0  0  0  0  0  0
    3.6673   -0.5892   -0.0000 C   0  0  0  0  0  0  0  0  0  0  0  0
   -0.3126   -4.3768   -0.0000 C   0  0  0  0  0  0  0  0  0  0  0  0
   -1.6353   -2.0802   -0.0000 C   0  0  0  0  0  0  0  0  0  0  0  0
    2.3327   -4.3768   -0.0000 C   0  0  0  0  0  0  0  0  0  0  0  0
    1.0100    2.4890   -0.0000 N   0  0  0  0  0  0  0  0  0  0  0  0
    3.6553    2.4770   -0.0000 C   0  0  0  0  0  0  0  0  0  0  0  0
    4.9780    0.1804   -0.0000 C   0  0  0  0  0  0  0  0  0  0  0  0
    0.9980   -5.1222   -0.0000 O   0  0  0  0  0  0  0  0  0  0  0  0
   -1.6473   -0.5411   -0.0000 C   0  0  0  0  0  0  0  0  0  0  0  0
    3.3788   -4.9780   -0.0000 C   0  0  0  0  0  0  0  0  0  0  0  0
   -0.3848    1.8758   -0.0000 N   0  0  0  0  0  0  0  0  0  0  0  0
    0.8657    4.0040   -0.0000 N   0  0  0  0  0  0  0  0  0  0  0  0
    4.9659    1.7194   -0.0000 C   0  0  0  0  0  0  0  0  0  0  0  0
   -0.3367    0.2285   -0.0000 C   0  0  0  0  0  0  0  0  0  0  0  0
   -2.9820    0.2405   -0.0000 C   0  0  0  0  0  0  0  0  0  0  0  0
   -1.4068    3.0301   -0.0000 C   0  0  0  0  0  0  0  0  0  0  0  0
   -0.6373    4.3407   -0.0000 C   0  0  0  0  0  0  0  0  0  0  0  0
    6.0120    2.3327   -0.0000 C   0  0  0  0  0  0  0  0  0  0  0  0
   -0.3487    1.7675   -0.0000 C   0  0  0  0  0  0  0  0  0  0  0  0
   -2.9940    1.7796   -0.0000 C   0  0  0  0  0  0  0  0  0  0  0  0
    0.9619    2.5371   -0.0000 N   0  0  0  0  0  0  0  0  0  0  0  0
   -1.6834    2.5491   -0.0000 C   0  0  0  0  0  0  0  0  0  0  0  0
    1.0942    4.0521   -0.0000 N   0  0  0  0  0  0  0  0  0  0  0  0
    2.3206    1.9118   -0.0000 N   0  0  0  0  0  0  0  0  0  0  0  0
    2.5731    4.3768   -0.0000 C   0  0  0  0  0  0  0  0  0  0  0  0
    3.3307    3.0541   -0.0000 C   0  0  0  0  0  0  0  0  0  0  0  0
  1  2  2  0  0  0  0
  2  3  1  0  0  0  0
  2  4  1  0  0  0  0
  3  5  1  0  0  0  0
  3  6  1  0  0  0  0
  4  7  2  0  0  0  0
  4  8  1  0  0  0  0
  5  9  1  0  0  0  0
  5 10  1  1  0  0  0
  6 11  1  0  0  0  0
  7 12  1  0  0  0  0
  7 13  1  0  0  0  0
  8 14  2  0  0  0  0
  9 15  1  0  0  0  0
 10 16  1  0  0  0  0
 11 17  1  6  0  0  0
 12 18  1  0  0  0  0
 12 19  1  0  0  0  0
 13 20  2  0  0  0  0
 16 21  2  0  0  0  0
 16 22  1  0  0  0  0
 18 23  2  0  0  0  0
 19 24  2  0  0  0  0
 20 25  1  0  0  0  0
 21 26  1  0  0  0  0
 22 27  2  0  0  0  0
 26 28  1  0  0  0  0
 26 29  2  0  0  0  0
 28 30  1  0  0  0  0
 28 31  1  0  0  0  0
 30 32  2  0  0  0  0
 31 33  2  0  0  0  0
 11 15  1  0  0  0  0
 14 20  1  0  0  0  0
 23 24  1  0  0  0  0
 27 29  1  0  0  0  0
 32 33  1  0  0  0  0
M  END
>  <MolRegNo>
2155845

>  <m>
=

>  <Value>
28000

>  <Unit>
nM

>  <Type>
IC50

>  <pValue>
4.55

>  <Ligand Efficiency>
0.19

>  <Binding Efficiency>
10.27

>  <Surface Efficiency>
5.01

>  <Assay Index>
1058329

>  <Assay Category>


>  <Assay Organism>
Homo sapiens

>  <Target ID>
17045

>  <Target Name>
Cytochrome P450 3A4

>  <Target Organism>
Homo sapiens

>  <Target Description>
Target is a single protein chain

>  <Sequence Accession>
P08684

>  <Reference>


>  <Pubmed ID>


>  <DOI>


$$$$
2152512
Actelion Java MolfileCreator 1.0

 33 37  0  0  1  0  0  0  0  0999 V2000
    0.0000   -0.0000   -0.0000 O   0  0  0  0  0  0  0  0  0  0  0  0
    1.0456   -0.6009   -0.0000 C   0  0  0  0  0  0  0  0  0  0  0  0
    1.0336   -2.1152   -0.0000 N   0  0  0  0  0  0  0  0  0  0  0  0
    2.3556    0.1683   -0.0000 C   0  0  0  0  0  0  0  0  0  0  0  0
   -0.3005   -2.8604   -0.0000 C   0  0  0  0  0  0  0  0  0  0  0  0
    2.3436   -2.8604   -0.0000 C   0  0  0  0  0  0  0  0  0  0  0  0
    2.3436    1.7066   -0.0000 C   0  0  0  0  0  0  0  0  0  0  0  0
    3.6656   -0.5889   -0.0000 C   0  0  0  0  0  0  0  0  0  0  0  0
   -0.3125   -4.3747   -0.0000 C   0  0  0  0  0  0  0  0  0  0  0  0
   -1.6345   -2.0792   -0.0000 C   0  0  0  0  0  0  0  0  0  0  0  0
    2.3316   -4.3747   -0.0000 C   0  0  0  0  0  0  0  0  0  0  0  0
    1.0095    2.4878   -0.0000 N   0  0  0  0  0  0  0  0  0  0  0  0
    3.6536    2.4758   -0.0000 C   0  0  0  0  0  0  0  0  0  0  0  0
    4.9756    0.1803   -0.0000 C   0  0  0  0  0  0  0  0  0  0  0  0
    0.9975   -5.1199   -0.0000 O   0  0  0  0  0  0  0  0  0  0  0  0
   -1.6465   -0.5408   -0.0000 C   0  0  0  0  0  0  0  0  0  0  0  0
    3.3772   -4.9756   -0.0000 C   0  0  0  0  0  0  0  0  0  0  0  0
   -0.3846    1.8749   -0.0000 N   0  0  0  0  0  0  0  0  0  0  0  0
    0.8653    4.0021   -0.0000 N   0  0  0  0  0  0  0  0  0  0  0  0
    4.9636    1.7186   -0.0000 C   0  0  0  0  0  0  0  0  0  0  0  0
    3.6416    3.7137   -0.0000 C   0  0  0  0  0  0  0  0  0  0  0  0
   -0.3365    0.2284   -0.0000 C   0  0  0  0  0  0  0  0  0  0  0  0
   -2.9806    0.2404   -0.0000 C   0  0  0  0  0  0  0  0  0  0  0  0
   -1.4062    3.0286   -0.0000 C   0  0  0  0  0  0  0  0  0  0  0  0
   -0.6370    4.3387   -0.0000 C   0  0  0  0  0  0  0  0  0  0  0  0
   -0.3485    1.7667   -0.0000 C   0  0  0  0  0  0  0  0  0  0  0  0
   -2.9926    1.7787   -0.0000 C   0  0  0  0  0  0  0  0  0  0  0  0
    0.9615    2.5359   -0.0000 N   0  0  0  0  0  0  0  0  0  0  0  0
   -1.6826    2.5479   -0.0000 C   0  0  0  0  0  0  0  0  0  0  0  0
    1.0937    4.0502   -0.0000 N   0  0  0  0  0  0  0  0  0  0  0  0
    2.3196    1.9109   -0.0000 N   0  0  0  0  0  0  0  0  0  0  0  0
    2.5719    4.3747   -0.0000 C   0  0  0  0  0  0  0  0  0  0  0  0
    3.3291    3.0527   -0.0000 C   0  0  0  0  0  0  0  0  0  0  0  0
  1  2  2  0  0  0  0
  2  3  1  0  0  0  0
  2  4  1  0  0  0  0
  3  5  1  0  0  0  0
  3  6  1  0  0  0  0
  4  7  2  0  0  0  0
  4  8  1  0  0  0  0
  5  9  1  0  0  0  0
  5 10  1  1  0  0  0
  6 11  1  0  0  0  0
  7 12  1  0  0  0  0
  7 13  1  0  0  0  0
  8 14  2  0  0  0  0
  9 15  1  0  0  0  0
 10 16  1  0  0  0  0
 11 17  1  1  0  0  0
 12 18  1  0  0  0  0
 12 19  1  0  0  0  0
 13 20  2  0  0  0  0
 13 21  1  0  0  0  0
 16 22  2  0  0  0  0
 16 23  1  0  0  0  0
 18 24  2  0  0  0  0
 19 25  2  0  0  0  0
 22 26  1  0  0  0  0
 23 27  2  0  0  0  0
 26 28  1  0  0  0  0
 26 29  2  0  0  0  0
 28 30  1  0  0  0  0
 28 31  1  0  0  0  0
 30 32  2  0  0  0  0
 31 33  2  0  0  0  0
 11 15  1  0  0  0  0
 14 20  1  0  0  0  0
 24 25  1  0  0  0  0
 27 29  1  0  0  0  0
 32 33  1  0  0  0  0
M  END
>  <MolRegNo>
2152512

>  <m>
=

>  <Value>
11000

>  <Unit>
nM

>  <Type>
IC50

>  <pValue>
4.96

>  <Ligand Efficiency>
0.21

>  <Binding Efficiency>
11.18

>  <Surface Efficiency>
5.45

>  <Assay Index>
1058329

>  <Assay Category>


>  <Assay Organism>
Homo sapiens

>  <Target ID>
17045

>  <Target Name>
Cytochrome P450 3A4

>  <Target Organism>
Homo sapiens

>  <Target Description>
Target is a single protein chain

>  <Sequence Accession>
P08684

>  <Reference>


>  <Pubmed ID>


>  <DOI>


$$$$
2119488
Actelion Java MolfileCreator 1.0

 34 38  0  0  1  0  0  0  0  0999 V2000
    0.0000   -0.0000   -0.0000 O   0  0  0  0  0  0  0  0  0  0  0  0
    1.0515   -0.6043   -0.0000 C   0  0  0  0  0  0  0  0  0  0  0  0
    1.0394   -2.1272   -0.0000 N   0  0  0  0  0  0  0  0  0  0  0  0
    2.3689    0.1692   -0.0000 C   0  0  0  0  0  0  0  0  0  0  0  0
   -0.3022   -2.8765   -0.0000 C   0  0  0  0  0  0  0  0  0  0  0  0
    2.3568   -2.8765   -0.0000 C   0  0  0  0  0  0  0  0  0  0  0  0
    2.3568    1.7163   -0.0000 C   0  0  0  0  0  0  0  0  0  0  0  0
    3.6863   -0.5922   -0.0000 C   0  0  0  0  0  0  0  0  0  0  0  0
   -0.3142   -4.3994   -0.0000 C   0  0  0  0  0  0  0  0  0  0  0  0
   -1.6437   -2.0909   -0.0000 C   0  0  0  0  0  0  0  0  0  0  0  0
    2.3447   -4.3994   -0.0000 C   0  0  0  0  0  0  0  0  0  0  0  0
    1.0152    2.5019   -0.0000 N   0  0  0  0  0  0  0  0  0  0  0  0
    3.6742    2.4898   -0.0000 C   0  0  0  0  0  0  0  0  0  0  0  0
    5.0037    0.1813   -0.0000 C   0  0  0  0  0  0  0  0  0  0  0  0
    1.0032   -5.1488   -0.0000 O   0  0  0  0  0  0  0  0  0  0  0  0
   -1.6558   -0.5439   -0.0000 C   0  0  0  0  0  0  0  0  0  0  0  0
    3.3962   -5.0037   -0.0000 C   0  0  0  0  0  0  0  0  0  0  0  0
   -0.3868    1.8855   -0.0000 N   0  0  0  0  0  0  0  0  0  0  0  0
    0.8702    4.0247   -0.0000 N   0  0  0  0  0  0  0  0  0  0  0  0
    4.9916    1.7283   -0.0000 C   0  0  0  0  0  0  0  0  0  0  0  0
    6.0552   -0.4230   -0.0000 C   0  0  0  0  0  0  0  0  0  0  0  0
   -0.3384    0.2296   -0.0000 C   0  0  0  0  0  0  0  0  0  0  0  0
   -2.9974    0.2417   -0.0000 C   0  0  0  0  0  0  0  0  0  0  0  0
   -1.4141    3.0457   -0.0000 C   0  0  0  0  0  0  0  0  0  0  0  0
   -0.6406    4.3631   -0.0000 C   0  0  0  0  0  0  0  0  0  0  0  0
    6.0431    2.3447   -0.0000 C   0  0  0  0  0  0  0  0  0  0  0  0
   -0.3505    1.7767   -0.0000 C   0  0  0  0  0  0  0  0  0  0  0  0
   -3.0095    1.7888   -0.0000 C   0  0  0  0  0  0  0  0  0  0  0  0
    0.9669    2.5502   -0.0000 N   0  0  0  0  0  0  0  0  0  0  0  0
   -1.6921    2.5623   -0.0000 C   0  0  0  0  0  0  0  0  0  0  0  0
    1.0999    4.0731   -0.0000 N   0  0  0  0  0  0  0  0  0  0  0  0
    2.3327    1.9217   -0.0000 N   0  0  0  0  0  0  0  0  0  0  0  0
    2.5865    4.3994   -0.0000 C   0  0  0  0  0  0  0  0  0  0  0  0
    3.3479    3.0699   -0.0000 C   0  0  0  0  0  0  0  0  0  0  0  0
  1  2  2  0  0  0  0
  2  3  1  0  0  0  0
  2  4  1  0  0  0  0
  3  5  1  0  0  0  0
  3  6  1  0  0  0  0
  4  7  2  0  0  0  0
  4  8  1  0  0  0  0
  5  9  1  0  0  0  0
  5 10  1  1  0  0  0
  6 11  1  0  0  0  0
  7 12  1  0  0  0  0
  7 13  1  0  0  0  0
  8 14  2  0  0  0  0
  9 15  1  0  0  0  0
 10 16  1  0  0  0  0
 11 17  1  1  0  0  0
 12 18  1  0  0  0  0
 12 19  1  0  0  0  0
 13 20  2  0  0  0  0
 14 21  1  0  0  0  0
 16 22  2  0  0  0  0
 16 23  1  0  0  0  0
 18 24  2  0  0  0  0
 19 25  2  0  0  0  0
 20 26  1  0  0  0  0
 22 27  1  0  0  0  0
 23 28  2  0  0  0  0
 27 29  1  0  0  0  0
 27 30  2  0  0  0  0
 29 31  1  0  0  0  0
 29 32  1  0  0  0  0
 31 33  2  0  0  0  0
 32 34  2  0  0  0  0
 11 15  1  0  0  0  0
 14 20  1  0  0  0  0
 24 25  1  0  0  0  0
 28 30  1  0  0  0  0
 33 34  1  0  0  0  0
M  END
>  <MolRegNo>
2119488

>  <m>
=

>  <Value>
9700

>  <Unit>
nM

>  <Type>
IC50

>  <pValue>
5.01

>  <Ligand Efficiency>
0.2

>  <Binding Efficiency>
10.96

>  <Surface Efficiency>
5.51

>  <Assay Index>
1058329

>  <Assay Category>


>  <Assay Organism>
Homo sapiens

>  <Target ID>
17045

>  <Target Name>
Cytochrome P450 3A4

>  <Target Organism>
Homo sapiens

>  <Target Description>
Target is a single protein chain

>  <Sequence Accession>
P08684

>  <Reference>


>  <Pubmed ID>


>  <DOI>


$$$$
2163097
Actelion Java MolfileCreator 1.0

 34 38  0  0  1  0  0  0  0  0999 V2000
    0.0000   -0.0000   -0.0000 O   0  0  0  0  0  0  0  0  0  0  0  0
    1.0509   -0.6040   -0.0000 C   0  0  0  0  0  0  0  0  0  0  0  0
    1.0388   -2.1260   -0.0000 N   0  0  0  0  0  0  0  0  0  0  0  0
    2.3676    0.1691   -0.0000 C   0  0  0  0  0  0  0  0  0  0  0  0
   -0.3020   -2.8749   -0.0000 C   0  0  0  0  0  0  0  0  0  0  0  0
    2.3555   -2.8749   -0.0000 C   0  0  0  0  0  0  0  0  0  0  0  0
    2.3555    1.7153   -0.0000 C   0  0  0  0  0  0  0  0  0  0  0  0
    3.6842   -0.5919   -0.0000 C   0  0  0  0  0  0  0  0  0  0  0  0
   -0.3141   -4.3969   -0.0000 C   0  0  0  0  0  0  0  0  0  0  0  0
   -1.6428   -2.0897   -0.0000 C   0  0  0  0  0  0  0  0  0  0  0  0
    2.3434   -4.3969   -0.0000 C   0  0  0  0  0  0  0  0  0  0  0  0
    1.0147    2.5004   -0.0000 N   0  0  0  0  0  0  0  0  0  0  0  0
    3.6722    2.4884   -0.0000 C   0  0  0  0  0  0  0  0  0  0  0  0
    5.0009    0.1812   -0.0000 C   0  0  0  0  0  0  0  0  0  0  0  0
    1.0026   -5.1459   -0.0000 O   0  0  0  0  0  0  0  0  0  0  0  0
   -1.6549   -0.5436   -0.0000 C   0  0  0  0  0  0  0  0  0  0  0  0
    3.3943   -5.0009   -0.0000 C   0  0  0  0  0  0  0  0  0  0  0  0
   -0.3865    1.8844   -0.0000 N   0  0  0  0  0  0  0  0  0  0  0  0
    0.8697    4.0225   -0.0000 N   0  0  0  0  0  0  0  0  0  0  0  0
    4.9888    1.7274   -0.0000 C   0  0  0  0  0  0  0  0  0  0  0  0
    3.6601    3.7326   -0.0000 C   0  0  0  0  0  0  0  0  0  0  0  0
   -0.3382    0.2295   -0.0000 C   0  0  0  0  0  0  0  0  0  0  0  0
   -2.9957    0.2416   -0.0000 C   0  0  0  0  0  0  0  0  0  0  0  0
   -1.4133    3.0440   -0.0000 C   0  0  0  0  0  0  0  0  0  0  0  0
   -0.6402    4.3607   -0.0000 C   0  0  0  0  0  0  0  0  0  0  0  0
    6.0397    2.3434   -0.0000 C   0  0  0  0  0  0  0  0  0  0  0  0
   -0.3503    1.7757   -0.0000 C   0  0  0  0  0  0  0  0  0  0  0  0
   -3.0078    1.7878   -0.0000 C   0  0  0  0  0  0  0  0  0  0  0  0
    0.9664    2.5488   -0.0000 N   0  0  0  0  0  0  0  0  0  0  0  0
   -1.6911    2.5608   -0.0000 C   0  0  0  0  0  0  0  0  0  0  0  0
    1.0992    4.0708   -0.0000 N   0  0  0  0  0  0  0  0  0  0  0  0
    2.3313    1.9206   -0.0000 N   0  0  0  0  0  0  0  0  0  0  0  0
    2.5850    4.3969   -0.0000 C   0  0  0  0  0  0  0  0  0  0  0  0
    3.3460    3.0682   -0.0000 C   0  0  0  0  0  0  0  0  0  0  0  0
  1  2  2  0  0  0  0
  2  3  1  0  0  0  0
  2  4  1  0  0  0  0
  3  5  1  0  0  0  0
  3  6  1  0  0  0  0
  4  7  2  0  0  0  0
  4  8  1  0  0  0  0
  5  9  1  0  0  0  0
  5 10  1  1  0  0  0
  6 11  1  0  0  0  0
  7 12  1  0  0  0  0
  7 13  1  0  0  0  0
  8 14  2  0  0  0  0
  9 15  1  0  0  0  0
 10 16  1  0  0  0  0
 11 17  1  1  0  0  0
 12 18  1  0  0  0  0
 12 19  1  0  0  0  0
 13 20  2  0  0  0  0
 13 21  1  0  0  0  0
 16 22  2  0  0  0  0
 16 23  1  0  0  0  0
 18 24  2  0  0  0  0
 19 25  2  0  0  0  0
 20 26  1  0  0  0  0
 22 27  1  0  0  0  0
 23 28  2  0  0  0  0
 27 29  1  0  0  0  0
 27 30  2  0  0  0  0
 29 31  1  0  0  0  0
 29 32  1  0  0  0  0
 31 33  2  0  0  0  0
 32 34  2  0  0  0  0
 11 15  1  0  0  0  0
 14 20  1  0  0  0  0
 24 25  1  0  0  0  0
 28 30  1  0  0  0  0
 33 34  1  0  0  0  0
M  END
>  <MolRegNo>
2163097

>  <m>
=

>  <Value>
9600

>  <Unit>
nM

>  <Type>
IC50

>  <pValue>
5.02

>  <Ligand Efficiency>
0.2

>  <Binding Efficiency>
10.97

>  <Surface Efficiency>
5.52

>  <Assay Index>
1058329

>  <Assay Category>


>  <Assay Organism>
Homo sapiens

>  <Target ID>
17045

>  <Target Name>
Cytochrome P450 3A4

>  <Target Organism>
Homo sapiens

>  <Target Description>
Target is a single protein chain

>  <Sequence Accession>
P08684

>  <Reference>


>  <Pubmed ID>


>  <DOI>


$$$$
2185405
Actelion Java MolfileCreator 1.0

 32 36  0  0  1  0  0  0  0  0999 V2000
    0.0000   -0.0000   -0.0000 O   0  0  0  0  0  0  0  0  0  0  0  0
    1.0406   -0.5980   -0.0000 C   0  0  0  0  0  0  0  0  0  0  0  0
    1.0286   -2.1050   -0.0000 N   0  0  0  0  0  0  0  0  0  0  0  0
    2.3442    0.1674   -0.0000 C   0  0  0  0  0  0  0  0  0  0  0  0
   -0.2990   -2.8466   -0.0000 C   0  0  0  0  0  0  0  0  0  0  0  0
    2.3323   -2.8466   -0.0000 C   0  0  0  0  0  0  0  0  0  0  0  0
    2.3323    1.6984   -0.0000 C   0  0  0  0  0  0  0  0  0  0  0  0
    3.6479   -0.5861   -0.0000 C   0  0  0  0  0  0  0  0  0  0  0  0
   -0.3110   -4.3536   -0.0000 C   0  0  0  0  0  0  0  0  0  0  0  0
   -1.6266   -2.0691   -0.0000 C   0  0  0  0  0  0  0  0  0  0  0  0
    2.3203   -4.3536   -0.0000 C   0  0  0  0  0  0  0  0  0  0  0  0
    1.0047    2.4758   -0.0000 N   0  0  0  0  0  0  0  0  0  0  0  0
    3.6360    2.4638   -0.0000 C   0  0  0  0  0  0  0  0  0  0  0  0
    4.9516    0.1794   -0.0000 C   0  0  0  0  0  0  0  0  0  0  0  0
    0.9927   -5.0951   -0.0000 O   0  0  0  0  0  0  0  0  0  0  0  0
   -1.6386   -0.5382   -0.0000 C   0  0  0  0  0  0  0  0  0  0  0  0
    3.3609   -4.9516   -0.0000 C   0  0  0  0  0  0  0  0  0  0  0  0
   -0.3827    1.8658   -0.0000 N   0  0  0  0  0  0  0  0  0  0  0  0
    0.8611    3.9828   -0.0000 N   0  0  0  0  0  0  0  0  0  0  0  0
    4.9396    1.7103   -0.0000 C   0  0  0  0  0  0  0  0  0  0  0  0
   -0.3349    0.2272   -0.0000 C   0  0  0  0  0  0  0  0  0  0  0  0
   -2.9662    0.2392   -0.0000 C   0  0  0  0  0  0  0  0  0  0  0  0
   -1.3994    3.0140   -0.0000 C   0  0  0  0  0  0  0  0  0  0  0  0
   -0.6339    4.3177   -0.0000 C   0  0  0  0  0  0  0  0  0  0  0  0
   -0.3469    1.7582   -0.0000 C   0  0  0  0  0  0  0  0  0  0  0  0
   -2.9781    1.7701   -0.0000 C   0  0  0  0  0  0  0  0  0  0  0  0
    0.9568    2.5236   -0.0000 N   0  0  0  0  0  0  0  0  0  0  0  0
   -1.6745    2.5356   -0.0000 C   0  0  0  0  0  0  0  0  0  0  0  0
    1.0884    4.0307   -0.0000 N   0  0  0  0  0  0  0  0  0  0  0  0
    2.3084    1.9017   -0.0000 N   0  0  0  0  0  0  0  0  0  0  0  0
    2.5595    4.3536   -0.0000 C   0  0  0  0  0  0  0  0  0  0  0  0
    3.3130    3.0379   -0.0000 C   0  0  0  0  0  0  0  0  0  0  0  0
  1  2  2  0  0  0  0
  2  3  1  0  0  0  0
  2  4  1  0  0  0  0
  3  5  1  0  0  0  0
  3  6  1  0  0  0  0
  4  7  2  0  0  0  0
  4  8  1  0  0  0  0
  5  9  1  0  0  0  0
  5 10  1  1  0  0  0
  6 11  1  0  0  0  0
  7 12  1  0  0  0  0
  7 13  1  0  0  0  0
  8 14  2  0  0  0  0
  9 15  1  0  0  0  0
 10 16  1  0  0  0  0
 11 17  1  1  0  0  0
 12 18  1  0  0  0  0
 12 19  1  0  0  0  0
 13 20  2  0  0  0  0
 16 21  2  0  0  0  0
 16 22  1  0  0  0  0
 18 23  2  0  0  0  0
 19 24  2  0  0  0  0
 21 25  1  0  0  0  0
 22 26  2  0  0  0  0
 25 27  1  0  0  0  0
 25 28  2  0  0  0  0
 27 29  1  0  0  0  0
 27 30  1  0  0  0  0
 29 31  2  0  0  0  0
 30 32  2  0  0  0  0
 11 15  1  0  0  0  0
 14 20  1  0  0  0  0
 23 24  1  0  0  0  0
 26 28  1  0  0  0  0
 31 32  1  0  0  0  0
M  END
>  <MolRegNo>
2185405

>  <m>
=

>  <Value>
13000

>  <Unit>
nM

>  <Type>
IC50

>  <pValue>
4.89

>  <Ligand Efficiency>
0.21

>  <Binding Efficiency>
11.38

>  <Surface Efficiency>
5.37

>  <Assay Index>
1058329

>  <Assay Category>


>  <Assay Organism>
Homo sapiens

>  <Target ID>
17045

>  <Target Name>
Cytochrome P450 3A4

>  <Target Organism>
Homo sapiens

>  <Target Description>
Target is a single protein chain

>  <Sequence Accession>
P08684

>  <Reference>


>  <Pubmed ID>


>  <DOI>


$$$$
2124787
Actelion Java MolfileCreator 1.0

 33 37  0  0  1  0  0  0  0  0999 V2000
    0.0000   -0.0000   -0.0000 O   0  0  0  0  0  0  0  0  0  0  0  0
    1.0461   -0.6012   -0.0000 C   0  0  0  0  0  0  0  0  0  0  0  0
    1.0341   -2.1162   -0.0000 N   0  0  0  0  0  0  0  0  0  0  0  0
    2.3567    0.1683   -0.0000 C   0  0  0  0  0  0  0  0  0  0  0  0
   -0.3006   -2.8617   -0.0000 C   0  0  0  0  0  0  0  0  0  0  0  0
    2.3447   -2.8617   -0.0000 C   0  0  0  0  0  0  0  0  0  0  0  0
    2.3447    1.7074   -0.0000 C   0  0  0  0  0  0  0  0  0  0  0  0
    3.6673   -0.5892   -0.0000 C   0  0  0  0  0  0  0  0  0  0  0  0
   -0.3126   -4.3768   -0.0000 C   0  0  0  0  0  0  0  0  0  0  0  0
   -1.6353   -2.0802   -0.0000 C   0  0  0  0  0  0  0  0  0  0  0  0
    2.3327   -4.3768   -0.0000 C   0  0  0  0  0  0  0  0  0  0  0  0
    1.0100    2.4890   -0.0000 N   0  0  0  0  0  0  0  0  0  0  0  0
    3.6553    2.4770   -0.0000 C   0  0  0  0  0  0  0  0  0  0  0  0
    4.9780    0.1804   -0.0000 C   0  0  0  0  0  0  0  0  0  0  0  0
    0.9980   -5.1222   -0.0000 O   0  0  0  0  0  0  0  0  0  0  0  0
   -1.6473   -0.5411   -0.0000 C   0  0  0  0  0  0  0  0  0  0  0  0
    3.3788   -4.9780   -0.0000 C   0  0  0  0  0  0  0  0  0  0  0  0
   -0.3848    1.8758   -0.0000 N   0  0  0  0  0  0  0  0  0  0  0  0
    0.8657    4.0040   -0.0000 N   0  0  0  0  0  0  0  0  0  0  0  0
    4.9659    1.7194   -0.0000 C   0  0  0  0  0  0  0  0  0  0  0  0
   -0.3367    0.2285   -0.0000 C   0  0  0  0  0  0  0  0  0  0  0  0
   -2.9820    0.2405   -0.0000 C   0  0  0  0  0  0  0  0  0  0  0  0
   -1.4068    3.0301   -0.0000 C   0  0  0  0  0  0  0  0  0  0  0  0
   -0.6373    4.3407   -0.0000 C   0  0  0  0  0  0  0  0  0  0  0  0
    6.0120    2.3327   -0.0000 C   0  0  0  0  0  0  0  0  0  0  0  0
   -0.3487    1.7675   -0.0000 C   0  0  0  0  0  0  0  0  0  0  0  0
   -2.9940    1.7796   -0.0000 C   0  0  0  0  0  0  0  0  0  0  0  0
    0.9619    2.5371   -0.0000 N   0  0  0  0  0  0  0  0  0  0  0  0
   -1.6834    2.5491   -0.0000 C   0  0  0  0  0  0  0  0  0  0  0  0
    1.0942    4.0521   -0.0000 N   0  0  0  0  0  0  0  0  0  0  0  0
    2.3206    1.9118   -0.0000 N   0  0  0  0  0  0  0  0  0  0  0  0
    2.5731    4.3768   -0.0000 C   0  0  0  0  0  0  0  0  0  0  0  0
    3.3307    3.0541   -0.0000 C   0  0  0  0  0  0  0  0  0  0  0  0
  1  2  2  0  0  0  0
  2  3  1  0  0  0  0
  2  4  1  0  0  0  0
  3  5  1  0  0  0  0
  3  6  1  0  0  0  0
  4  7  2  0  0  0  0
  4  8  1  0  0  0  0
  5  9  1  0  0  0  0
  5 10  1  1  0  0  0
  6 11  1  0  0  0  0
  7 12  1  0  0  0  0
  7 13  1  0  0  0  0
  8 14  2  0  0  0  0
  9 15  1  0  0  0  0
 10 16  1  0  0  0  0
 11 17  1  1  0  0  0
 12 18  1  0  0  0  0
 12 19  1  0  0  0  0
 13 20  2  0  0  0  0
 16 21  2  0  0  0  0
 16 22  1  0  0  0  0
 18 23  2  0  0  0  0
 19 24  2  0  0  0  0
 20 25  1  0  0  0  0
 21 26  1  0  0  0  0
 22 27  2  0  0  0  0
 26 28  1  0  0  0  0
 26 29  2  0  0  0  0
 28 30  1  0  0  0  0
 28 31  1  0  0  0  0
 30 32  2  0  0  0  0
 31 33  2  0  0  0  0
 11 15  1  0  0  0  0
 14 20  1  0  0  0  0
 23 24  1  0  0  0  0
 27 29  1  0  0  0  0
 32 33  1  0  0  0  0
M  END
>  <MolRegNo>
2124787

>  <m>
=

>  <Value>
9700

>  <Unit>
nM

>  <Type>
IC50

>  <pValue>
5.01

>  <Ligand Efficiency>
0.21

>  <Binding Efficiency>
11.3

>  <Surface Efficiency>
5.51

>  <Assay Index>
1058329

>  <Assay Category>


>  <Assay Organism>
Homo sapiens

>  <Target ID>
17045

>  <Target Name>
Cytochrome P450 3A4

>  <Target Organism>
Homo sapiens

>  <Target Description>
Target is a single protein chain

>  <Sequence Accession>
P08684

>  <Reference>


>  <Pubmed ID>


>  <DOI>


$$$$
2123688
Actelion Java MolfileCreator 1.0

 33 37  0  0  1  0  0  0  0  0999 V2000
    0.0000   -0.0000   -0.0000 O   0  0  0  0  0  0  0  0  0  0  0  0
    1.0499   -0.6034   -0.0000 C   0  0  0  0  0  0  0  0  0  0  0  0
    1.0378   -2.1238   -0.0000 N   0  0  0  0  0  0  0  0  0  0  0  0
    2.3652    0.1810   -0.0000 C   0  0  0  0  0  0  0  0  0  0  0  0
   -0.3017   -2.8841   -0.0000 C   0  0  0  0  0  0  0  0  0  0  0  0
    2.3531   -2.8720   -0.0000 C   0  0  0  0  0  0  0  0  0  0  0  0
    2.3531    1.7256   -0.0000 C   0  0  0  0  0  0  0  0  0  0  0  0
    3.6805   -0.5672   -0.0000 C   0  0  0  0  0  0  0  0  0  0  0  0
   -0.3138   -4.4046   -0.0000 C   0  0  0  0  0  0  0  0  0  0  0  0
   -1.6050   -3.6685   -0.0000 C   0  0  0  0  0  0  0  0  0  0  0  0
   -0.2896   -1.6412   -0.0000 C   0  0  0  0  0  0  0  0  0  0  0  0
    2.3411   -4.3925   -0.0000 C   0  0  0  0  0  0  0  0  0  0  0  0
    1.0137    2.4979   -0.0000 N   0  0  0  0  0  0  0  0  0  0  0  0
    3.6685    2.4979   -0.0000 C   0  0  0  0  0  0  0  0  0  0  0  0
    4.9959    0.2051   -0.0000 C   0  0  0  0  0  0  0  0  0  0  0  0
    1.0016   -5.1527   -0.0000 O   0  0  0  0  0  0  0  0  0  0  0  0
   -1.6170   -5.1889   -0.0000 C   0  0  0  0  0  0  0  0  0  0  0  0
    0.8568    4.0184   -0.0000 N   0  0  0  0  0  0  0  0  0  0  0  0
   -0.3741    1.8704   -0.0000 N   0  0  0  0  0  0  0  0  0  0  0  0
    4.9838    1.7498   -0.0000 C   0  0  0  0  0  0  0  0  0  0  0  0
    6.0457   -0.3982   -0.0000 C   0  0  0  0  0  0  0  0  0  0  0  0
   -0.2896   -5.9130   -0.0000 C   0  0  0  0  0  0  0  0  0  0  0  0
   -2.9324   -5.9733   -0.0000 C   0  0  0  0  0  0  0  0  0  0  0  0
   -0.6516    4.3442   -0.0000 C   0  0  0  0  0  0  0  0  0  0  0  0
   -1.4119    3.0168   -0.0000 C   0  0  0  0  0  0  0  0  0  0  0  0
   -0.2655   -7.4335   -0.0000 C   0  0  0  0  0  0  0  0  0  0  0  0
   -2.9082   -7.4938   -0.0000 C   0  0  0  0  0  0  0  0  0  0  0  0
    1.0619   -8.1575   -0.0000 N   0  0  0  0  0  0  0  0  0  0  0  0
   -1.5929   -8.2178   -0.0000 C   0  0  0  0  0  0  0  0  0  0  0  0
    1.2309   -9.6538   -0.0000 N   0  0  0  0  0  0  0  0  0  0  0  0
    2.4135   -7.4817   -0.0000 N   0  0  0  0  0  0  0  0  0  0  0  0
    2.7272   -9.9193   -0.0000 C   0  0  0  0  0  0  0  0  0  0  0  0
    3.4513   -8.5799   -0.0000 C   0  0  0  0  0  0  0  0  0  0  0  0
  1  2  2  0  0  0  0
  2  3  1  0  0  0  0
  2  4  1  0  0  0  0
  5  3  1  1  0  0  0
  3  6  1  0  0  0  0
  4  7  2  0  0  0  0
  4  8  1  0  0  0  0
  5  9  1  0  0  0  0
  5 10  1  0  0  0  0
  5 11  1  0  0  0  0
  6 12  1  0  0  0  0
  7 13  1  0  0  0  0
  7 14  1  0  0  0  0
  8 15  2  0  0  0  0
  9 16  1  0  0  0  0
 10 17  1  0  0  0  0
 13 18  1  0  0  0  0
 13 19  1  0  0  0  0
 14 20  2  0  0  0  0
 15 21  1  0  0  0  0
 17 22  2  0  0  0  0
 17 23  1  0  0  0  0
 18 24  2  0  0  0  0
 19 25  2  0  0  0  0
 22 26  1  0  0  0  0
 23 27  2  0  0  0  0
 26 28  1  0  0  0  0
 26 29  2  0  0  0  0
 28 30  1  0  0  0  0
 28 31  1  0  0  0  0
 30 32  2  0  0  0  0
 31 33  2  0  0  0  0
 12 16  1  0  0  0  0
 15 20  1  0  0  0  0
 24 25  1  0  0  0  0
 27 29  1  0  0  0  0
 32 33  1  0  0  0  0
M  END
>  <MolRegNo>
2123688

>  <m>
=

>  <Value>
17000

>  <Unit>
nM

>  <Type>
IC50

>  <pValue>
4.77

>  <Ligand Efficiency>
0.2

>  <Binding Efficiency>
10.75

>  <Surface Efficiency>
5.24

>  <Assay Index>
1058329

>  <Assay Category>


>  <Assay Organism>
Homo sapiens

>  <Target ID>
17045

>  <Target Name>
Cytochrome P450 3A4

>  <Target Organism>
Homo sapiens

>  <Target Description>
Target is a single protein chain

>  <Sequence Accession>
P08684

>  <Reference>


>  <Pubmed ID>


>  <DOI>


$$$$
2111249
Actelion Java MolfileCreator 1.0

 34 38  0  0  1  0  0  0  0  0999 V2000
    0.0000   -0.0000   -0.0000 Cl  0  0  0  0  0  0  0  0  0  0  0  0
   -0.0120    1.2346   -0.0000 C   0  0  0  0  0  0  0  0  0  0  0  0
    1.2945    2.0017   -0.0000 C   0  0  0  0  0  0  0  0  0  0  0  0
   -1.3425    2.0017   -0.0000 C   0  0  0  0  0  0  0  0  0  0  0  0
    2.6010    1.2586   -0.0000 O   0  0  0  0  0  0  0  0  0  0  0  0
    1.2825    3.5360   -0.0000 C   0  0  0  0  0  0  0  0  0  0  0  0
   -1.3545    3.5360   -0.0000 C   0  0  0  0  0  0  0  0  0  0  0  0
    3.6438    1.8819   -0.0000 C   0  0  0  0  0  0  0  0  0  0  0  0
   -0.0479    4.3031   -0.0000 C   0  0  0  0  0  0  0  0  0  0  0  0
   -2.6849    4.3031   -0.0000 N   0  0  0  0  0  0  0  0  0  0  0  0
   -0.0599    5.8373   -0.0000 C   0  0  0  0  0  0  0  0  0  0  0  0
   -2.8408    5.8134   -0.0000 N   0  0  0  0  0  0  0  0  0  0  0  0
   -4.0634    3.6798   -0.0000 N   0  0  0  0  0  0  0  0  0  0  0  0
   -1.1267    6.4606   -0.0000 O   0  0  0  0  0  0  0  0  0  0  0  0
    1.2466    6.6045   -0.0000 N   0  0  0  0  0  0  0  0  0  0  0  0
   -4.3391    6.1370   -0.0000 C   0  0  0  0  0  0  0  0  0  0  0  0
   -5.0942    4.8185   -0.0000 C   0  0  0  0  0  0  0  0  0  0  0  0
    1.2346    8.1387   -0.0000 C   0  0  0  0  0  0  0  0  0  0  0  0
    2.5531    5.8493   -0.0000 C   0  0  0  0  0  0  0  0  0  0  0  0
    2.5411    8.9058   -0.0000 C   0  0  0  0  0  0  0  0  0  0  0  0
   -0.0959    8.9178   -0.0000 C   0  0  0  0  0  0  0  0  0  0  0  0
    3.8596    6.6165   -0.0000 C   0  0  0  0  0  0  0  0  0  0  0  0
    3.8476    8.1507   -0.0000 O   0  0  0  0  0  0  0  0  0  0  0  0
   -0.0959   10.4521   -0.0000 C   0  0  0  0  0  0  0  0  0  0  0  0
    1.2106   11.2192   -0.0000 C   0  0  0  0  0  0  0  0  0  0  0  0
   -1.4144   11.2312   -0.0000 C   0  0  0  0  0  0  0  0  0  0  0  0
    1.2106   12.7535   -0.0000 C   0  0  0  0  0  0  0  0  0  0  0  0
   -1.4144   12.7654   -0.0000 C   0  0  0  0  0  0  0  0  0  0  0  0
    2.5171   13.5206   -0.0000 N   0  0  0  0  0  0  0  0  0  0  0  0
   -0.1079   13.5326   -0.0000 C   0  0  0  0  0  0  0  0  0  0  0  0
    2.6610   15.0309   -0.0000 N   0  0  0  0  0  0  0  0  0  0  0  0
    3.8716   12.8853   -0.0000 N   0  0  0  0  0  0  0  0  0  0  0  0
    4.1353   15.3425   -0.0000 C   0  0  0  0  0  0  0  0  0  0  0  0
    4.8904   14.0240   -0.0000 C   0  0  0  0  0  0  0  0  0  0  0  0
  1  2  1  0  0  0  0
  2  3  2  0  0  0  0
  2  4  1  0  0  0  0
  3  5  1  0  0  0  0
  3  6  1  0  0  0  0
  4  7  2  0  0  0  0
  5  8  1  0  0  0  0
  6  9  2  0  0  0  0
  7 10  1  0  0  0  0
  9 11  1  0  0  0  0
 10 12  1  0  0  0  0
 10 13  1  0  0  0  0
 11 14  2  0  0  0  0
 11 15  1  0  0  0  0
 12 16  2  0  0  0  0
 13 17  2  0  0  0  0
 15 18  1  0  0  0  0
 15 19  1  0  0  0  0
 18 20  1  0  0  0  0
 18 21  1  6  0  0  0
 19 22  1  0  0  0  0
 20 23  1  0  0  0  0
 21 24  1  0  0  0  0
 24 25  2  0  0  0  0
 24 26  1  0  0  0  0
 25 27  1  0  0  0  0
 26 28  2  0  0  0  0
 27 29  1  0  0  0  0
 27 30  2  0  0  0  0
 29 31  1  0  0  0  0
 29 32  1  0  0  0  0
 31 33  2  0  0  0  0
 32 34  2  0  0  0  0
  7  9  1  0  0  0  0
 16 17  1  0  0  0  0
 22 23  1  0  0  0  0
 28 30  1  0  0  0  0
 33 34  1  0  0  0  0
M  END
>  <MolRegNo>
2111249

>  <m>
=

>  <Value>
13000

>  <Unit>
nM

>  <Type>
IC50

>  <pValue>
4.89

>  <Ligand Efficiency>
0.2

>  <Binding Efficiency>
10.18

>  <Surface Efficiency>
4.88

>  <Assay Index>
1058329

>  <Assay Category>


>  <Assay Organism>
Homo sapiens

>  <Target ID>
17045

>  <Target Name>
Cytochrome P450 3A4

>  <Target Organism>
Homo sapiens

>  <Target Description>
Target is a single protein chain

>  <Sequence Accession>
P08684

>  <Reference>


>  <Pubmed ID>


>  <DOI>


$$$$
2113856
Actelion Java MolfileCreator 1.0

 33 37  0  0  1  0  0  0  0  0999 V2000
    0.0000   -0.0000   -0.0000 Cl  0  0  0  0  0  0  0  0  0  0  0  0
    1.0484    0.6146   -0.0000 C   0  0  0  0  0  0  0  0  0  0  0  0
    1.0484    2.1571   -0.0000 C   0  0  0  0  0  0  0  0  0  0  0  0
    2.3499   -0.1446   -0.0000 C   0  0  0  0  0  0  0  0  0  0  0  0
    2.3619    2.9283   -0.0000 C   0  0  0  0  0  0  0  0  0  0  0  0
    3.6634    0.6266   -0.0000 C   0  0  0  0  0  0  0  0  0  0  0  0
    2.3619    4.4708   -0.0000 N   0  0  0  0  0  0  0  0  0  0  0  0
    3.6634    2.1691   -0.0000 C   0  0  0  0  0  0  0  0  0  0  0  0
    4.9769   -0.1326   -0.0000 C   0  0  0  0  0  0  0  0  0  0  0  0
    1.1207    5.3746   -0.0000 N   0  0  0  0  0  0  0  0  0  0  0  0
    3.5911    5.3505   -0.0000 N   0  0  0  0  0  0  0  0  0  0  0  0
    6.2904    0.6387   -0.0000 C   0  0  0  0  0  0  0  0  0  0  0  0
    1.5907    6.8327   -0.0000 C   0  0  0  0  0  0  0  0  0  0  0  0
    3.1211    6.8207   -0.0000 C   0  0  0  0  0  0  0  0  0  0  0  0
    7.6040   -0.1205   -0.0000 N   0  0  0  0  0  0  0  0  0  0  0  0
    6.2784    2.1812   -0.0000 C   0  0  0  0  0  0  0  0  0  0  0  0
    7.5919   -1.6389   -0.0000 C   0  0  0  0  0  0  0  0  0  0  0  0
    8.9175    0.6507   -0.0000 C   0  0  0  0  0  0  0  0  0  0  0  0
    7.5919    2.9524   -0.0000 O   0  0  0  0  0  0  0  0  0  0  0  0
    6.5194   -2.2414   -0.0000 O   0  0  0  0  0  0  0  0  0  0  0  0
    8.9054   -2.3981   -0.0000 C   0  0  0  0  0  0  0  0  0  0  0  0
    8.9054    2.1932   -0.0000 C   0  0  0  0  0  0  0  0  0  0  0  0
    8.8934   -3.9165   -0.0000 C   0  0  0  0  0  0  0  0  0  0  0  0
   10.2190   -1.6268   -0.0000 C   0  0  0  0  0  0  0  0  0  0  0  0
    7.5558   -4.6636   -0.0000 N   0  0  0  0  0  0  0  0  0  0  0  0
   10.2069   -4.6636   -0.0000 C   0  0  0  0  0  0  0  0  0  0  0  0
   11.5325   -2.3740   -0.0000 C   0  0  0  0  0  0  0  0  0  0  0  0
    6.1699   -4.0249   -0.0000 N   0  0  0  0  0  0  0  0  0  0  0  0
    7.4112   -6.1579   -0.0000 N   0  0  0  0  0  0  0  0  0  0  0  0
   11.5204   -3.8924   -0.0000 C   0  0  0  0  0  0  0  0  0  0  0  0
    5.1336   -5.1456   -0.0000 C   0  0  0  0  0  0  0  0  0  0  0  0
    5.9048   -6.4712   -0.0000 C   0  0  0  0  0  0  0  0  0  0  0  0
   12.5688   -4.4949   -0.0000 C   0  0  0  0  0  0  0  0  0  0  0  0
  1  2  1  0  0  0  0
  2  3  2  0  0  0  0
  2  4  1  0  0  0  0
  3  5  1  0  0  0  0
  4  6  2  0  0  0  0
  5  7  1  0  0  0  0
  5  8  2  0  0  0  0
  6  9  1  0  0  0  0
  7 10  1  0  0  0  0
  7 11  1  0  0  0  0
 12  9  1  6  0  0  0
 10 13  2  0  0  0  0
 11 14  2  0  0  0  0
 12 15  1  0  0  0  0
 12 16  1  0  0  0  0
 15 17  1  0  0  0  0
 15 18  1  0  0  0  0
 16 19  1  0  0  0  0
 17 20  2  0  0  0  0
 17 21  1  0  0  0  0
 18 22  1  0  0  0  0
 21 23  2  0  0  0  0
 21 24  1  0  0  0  0
 23 25  1  0  0  0  0
 23 26  1  0  0  0  0
 24 27  2  0  0  0  0
 25 28  1  0  0  0  0
 25 29  1  0  0  0  0
 26 30  2  0  0  0  0
 28 31  2  0  0  0  0
 29 32  2  0  0  0  0
 30 33  1  0  0  0  0
  6  8  1  0  0  0  0
 13 14  1  0  0  0  0
 19 22  1  0  0  0  0
 27 30  1  0  0  0  0
 31 32  1  0  0  0  0
M  END
>  <MolRegNo>
2113856

>  <m>
=

>  <Value>
21000

>  <Unit>
nM

>  <Type>
IC50

>  <pValue>
4.68

>  <Ligand Efficiency>
0.19

>  <Binding Efficiency>
10.08

>  <Surface Efficiency>
5.14

>  <Assay Index>
1058329

>  <Assay Category>


>  <Assay Organism>
Homo sapiens

>  <Target ID>
17045

>  <Target Name>
Cytochrome P450 3A4

>  <Target Organism>
Homo sapiens

>  <Target Description>
Target is a single protein chain

>  <Sequence Accession>
P08684

>  <Reference>


>  <Pubmed ID>


>  <DOI>


$$$$
2192367
Actelion Java MolfileCreator 1.0

 33 37  0  0  1  0  0  0  0  0999 V2000
    0.0000   -0.0000   -0.0000 Cl  0  0  0  0  0  0  0  0  0  0  0  0
    0.0000    1.2364   -0.0000 C   0  0  0  0  0  0  0  0  0  0  0  0
   -1.3205    2.0167   -0.0000 C   0  0  0  0  0  0  0  0  0  0  0  0
    1.3084    2.0047   -0.0000 C   0  0  0  0  0  0  0  0  0  0  0  0
   -1.3205    3.5532   -0.0000 C   0  0  0  0  0  0  0  0  0  0  0  0
    1.3084    3.5412   -0.0000 C   0  0  0  0  0  0  0  0  0  0  0  0
   -2.6529    4.3335   -0.0000 N   0  0  0  0  0  0  0  0  0  0  0  0
   -0.0120    4.3215   -0.0000 C   0  0  0  0  0  0  0  0  0  0  0  0
    2.6169    4.3095   -0.0000 C   0  0  0  0  0  0  0  0  0  0  0  0
   -4.0454    3.7213   -0.0000 N   0  0  0  0  0  0  0  0  0  0  0  0
   -2.7970    5.8460   -0.0000 N   0  0  0  0  0  0  0  0  0  0  0  0
    2.6169    5.8460   -0.0000 C   0  0  0  0  0  0  0  0  0  0  0  0
   -5.0657    4.8737   -0.0000 C   0  0  0  0  0  0  0  0  0  0  0  0
   -4.2975    6.1821   -0.0000 C   0  0  0  0  0  0  0  0  0  0  0  0
    3.9253    6.6143   -0.0000 N   0  0  0  0  0  0  0  0  0  0  0  0
    1.2844    6.6263   -0.0000 C   0  0  0  0  0  0  0  0  0  0  0  0
    5.2338    5.8580   -0.0000 C   0  0  0  0  0  0  0  0  0  0  0  0
    3.9133    8.1508   -0.0000 C   0  0  0  0  0  0  0  0  0  0  0  0
    1.2724    8.1628   -0.0000 O   0  0  0  0  0  0  0  0  0  0  0  0
    5.2218    4.6456   -0.0000 O   0  0  0  0  0  0  0  0  0  0  0  0
    6.5422    6.6263   -0.0000 C   0  0  0  0  0  0  0  0  0  0  0  0
    2.5809    8.9311   -0.0000 C   0  0  0  0  0  0  0  0  0  0  0  0
    7.8507    5.8820   -0.0000 C   0  0  0  0  0  0  0  0  0  0  0  0
    6.5302    8.1628   -0.0000 C   0  0  0  0  0  0  0  0  0  0  0  0
    7.8387    4.3695   -0.0000 N   0  0  0  0  0  0  0  0  0  0  0  0
    9.1591    6.6503   -0.0000 C   0  0  0  0  0  0  0  0  0  0  0  0
    7.8387    8.9311   -0.0000 C   0  0  0  0  0  0  0  0  0  0  0  0
    6.5903    3.5052   -0.0000 N   0  0  0  0  0  0  0  0  0  0  0  0
    9.0631    3.5052   -0.0000 N   0  0  0  0  0  0  0  0  0  0  0  0
    9.1471    8.1868   -0.0000 C   0  0  0  0  0  0  0  0  0  0  0  0
   10.2035    6.0501   -0.0000 C   0  0  0  0  0  0  0  0  0  0  0  0
    7.0464    2.0647   -0.0000 C   0  0  0  0  0  0  0  0  0  0  0  0
    8.5829    2.0647   -0.0000 C   0  0  0  0  0  0  0  0  0  0  0  0
  1  2  1  0  0  0  0
  2  3  2  0  0  0  0
  2  4  1  0  0  0  0
  3  5  1  0  0  0  0
  4  6  2  0  0  0  0
  5  7  1  0  0  0  0
  5  8  2  0  0  0  0
  6  9  1  0  0  0  0
  7 10  1  0  0  0  0
  7 11  1  0  0  0  0
 12  9  1  6  0  0  0
 10 13  2  0  0  0  0
 11 14  2  0  0  0  0
 12 15  1  0  0  0  0
 12 16  1  0  0  0  0
 15 17  1  0  0  0  0
 15 18  1  0  0  0  0
 16 19  1  0  0  0  0
 17 20  2  0  0  0  0
 17 21  1  0  0  0  0
 18 22  1  0  0  0  0
 21 23  2  0  0  0  0
 21 24  1  0  0  0  0
 23 25  1  0  0  0  0
 23 26  1  0  0  0  0
 24 27  2  0  0  0  0
 25 28  1  0  0  0  0
 25 29  1  0  0  0  0
 26 30  2  0  0  0  0
 26 31  1  0  0  0  0
 28 32  2  0  0  0  0
 29 33  2  0  0  0  0
  6  8  1  0  0  0  0
 13 14  1  0  0  0  0
 19 22  1  0  0  0  0
 27 30  1  0  0  0  0
 32 33  1  0  0  0  0
M  END
>  <MolRegNo>
2192367

>  <m>
=

>  <Value>
14000

>  <Unit>
nM

>  <Type>
IC50

>  <pValue>
4.85

>  <Ligand Efficiency>
0.2

>  <Binding Efficiency>
10.46

>  <Surface Efficiency>
5.34

>  <Assay Index>
1058329

>  <Assay Category>


>  <Assay Organism>
Homo sapiens

>  <Target ID>
17045

>  <Target Name>
Cytochrome P450 3A4

>  <Target Organism>
Homo sapiens

>  <Target Description>
Target is a single protein chain

>  <Sequence Accession>
P08684

>  <Reference>


>  <Pubmed ID>


>  <DOI>


$$$$
2126036
Actelion Java MolfileCreator 1.0

 32 36  0  0  1  0  0  0  0  0999 V2000
    0.0000   -0.0000   -0.0000 Cl  0  0  0  0  0  0  0  0  0  0  0  0
   -1.0606    0.6197   -0.0000 C   0  0  0  0  0  0  0  0  0  0  0  0
   -2.3834   -0.1192   -0.0000 C   0  0  0  0  0  0  0  0  0  0  0  0
   -1.0725    2.1451   -0.0000 C   0  0  0  0  0  0  0  0  0  0  0  0
   -2.3953   -1.6207   -0.0000 N   0  0  0  0  0  0  0  0  0  0  0  0
   -3.7062    0.6435   -0.0000 C   0  0  0  0  0  0  0  0  0  0  0  0
   -2.3953    2.9078   -0.0000 C   0  0  0  0  0  0  0  0  0  0  0  0
   -3.6347   -2.4787   -0.0000 N   0  0  0  0  0  0  0  0  0  0  0  0
   -1.1798   -2.4787   -0.0000 N   0  0  0  0  0  0  0  0  0  0  0  0
   -5.0290   -0.0953   -0.0000 C   0  0  0  0  0  0  0  0  0  0  0  0
   -3.7181    2.1689   -0.0000 C   0  0  0  0  0  0  0  0  0  0  0  0
   -3.1819   -3.9088   -0.0000 C   0  0  0  0  0  0  0  0  0  0  0  0
   -1.6565   -3.9088   -0.0000 C   0  0  0  0  0  0  0  0  0  0  0  0
   -5.0409   -1.2990   -0.0000 O   0  0  0  0  0  0  0  0  0  0  0  0
   -6.3518    0.6793   -0.0000 N   0  0  0  0  0  0  0  0  0  0  0  0
   -7.6746   -0.0596   -0.0000 C   0  0  0  0  0  0  0  0  0  0  0  0
   -6.3637    2.2047   -0.0000 C   0  0  0  0  0  0  0  0  0  0  0  0
   -8.9974    0.7150   -0.0000 C   0  0  0  0  0  0  0  0  0  0  0  0
   -7.6984   -1.5611   -0.0000 C   0  0  0  0  0  0  0  0  0  0  0  0
   -7.6865    2.9793   -0.0000 C   0  0  0  0  0  0  0  0  0  0  0  0
   -9.0093    2.2404   -0.0000 O   0  0  0  0  0  0  0  0  0  0  0  0
   -9.0212   -2.3000   -0.0000 C   0  0  0  0  0  0  0  0  0  0  0  0
  -10.3321   -1.5254   -0.0000 C   0  0  0  0  0  0  0  0  0  0  0  0
   -9.0451   -3.8015   -0.0000 C   0  0  0  0  0  0  0  0  0  0  0  0
  -11.6549   -2.2642   -0.0000 C   0  0  0  0  0  0  0  0  0  0  0  0
  -10.3678   -4.5404   -0.0000 C   0  0  0  0  0  0  0  0  0  0  0  0
  -12.9777   -1.4896   -0.0000 N   0  0  0  0  0  0  0  0  0  0  0  0
  -11.6787   -3.7658   -0.0000 C   0  0  0  0  0  0  0  0  0  0  0  0
  -14.3601   -2.0974   -0.0000 N   0  0  0  0  0  0  0  0  0  0  0  0
  -13.1207    0.0119   -0.0000 N   0  0  0  0  0  0  0  0  0  0  0  0
  -15.3730   -0.9534   -0.0000 C   0  0  0  0  0  0  0  0  0  0  0  0
  -14.6103    0.3456   -0.0000 C   0  0  0  0  0  0  0  0  0  0  0  0
  1  2  1  0  0  0  0
  2  3  2  0  0  0  0
  2  4  1  0  0  0  0
  3  5  1  0  0  0  0
  3  6  1  0  0  0  0
  4  7  2  0  0  0  0
  5  8  1  0  0  0  0
  5  9  1  0  0  0  0
  6 10  1  0  0  0  0
  6 11  2  0  0  0  0
  8 12  2  0  0  0  0
  9 13  2  0  0  0  0
 10 14  2  0  0  0  0
 10 15  1  0  0  0  0
 15 16  1  0  0  0  0
 15 17  1  0  0  0  0
 16 18  1  0  0  0  0
 16 19  1  6  0  0  0
 17 20  1  0  0  0  0
 18 21  1  0  0  0  0
 19 22  1  0  0  0  0
 22 23  2  0  0  0  0
 22 24  1  0  0  0  0
 23 25  1  0  0  0  0
 24 26  2  0  0  0  0
 25 27  1  0  0  0  0
 25 28  2  0  0  0  0
 27 29  1  0  0  0  0
 27 30  1  0  0  0  0
 29 31  2  0  0  0  0
 30 32  2  0  0  0  0
  7 11  1  0  0  0  0
 12 13  1  0  0  0  0
 20 21  1  0  0  0  0
 26 28  1  0  0  0  0
 31 32  1  0  0  0  0
M  END
>  <MolRegNo>
2126036

>  <m>
=

>  <Value>
22000

>  <Unit>
nM

>  <Type>
IC50

>  <pValue>
4.66

>  <Ligand Efficiency>
0.2

>  <Binding Efficiency>
10.35

>  <Surface Efficiency>
5.12

>  <Assay Index>
1058329

>  <Assay Category>


>  <Assay Organism>
Homo sapiens

>  <Target ID>
17045

>  <Target Name>
Cytochrome P450 3A4

>  <Target Organism>
Homo sapiens

>  <Target Description>
Target is a single protein chain

>  <Sequence Accession>
P08684

>  <Reference>


>  <Pubmed ID>


>  <DOI>


$$$$
2132078
Actelion Java MolfileCreator 1.0

 33 37  0  0  1  0  0  0  0  0999 V2000
    0.0000   -0.0000   -0.0000 O   0  0  0  0  0  0  0  0  0  0  0  0
    1.0395   -0.5974   -0.0000 C   0  0  0  0  0  0  0  0  0  0  0  0
    1.0275   -2.1029   -0.0000 N   0  0  0  0  0  0  0  0  0  0  0  0
    2.3418    0.1673   -0.0000 C   0  0  0  0  0  0  0  0  0  0  0  0
   -0.2987   -2.8436   -0.0000 C   0  0  0  0  0  0  0  0  0  0  0  0
    2.3299   -2.8436   -0.0000 C   0  0  0  0  0  0  0  0  0  0  0  0
    2.3299    1.6966   -0.0000 C   0  0  0  0  0  0  0  0  0  0  0  0
    3.6441   -0.5855   -0.0000 C   0  0  0  0  0  0  0  0  0  0  0  0
   -0.3106   -4.3491   -0.0000 C   0  0  0  0  0  0  0  0  0  0  0  0
   -1.6249   -2.0670   -0.0000 C   0  0  0  0  0  0  0  0  0  0  0  0
    2.3179   -4.3491   -0.0000 C   0  0  0  0  0  0  0  0  0  0  0  0
    1.0036    2.4732   -0.0000 N   0  0  0  0  0  0  0  0  0  0  0  0
    3.6322    2.4613   -0.0000 C   0  0  0  0  0  0  0  0  0  0  0  0
    4.9465    0.1792   -0.0000 C   0  0  0  0  0  0  0  0  0  0  0  0
    0.9917   -5.0899   -0.0000 O   0  0  0  0  0  0  0  0  0  0  0  0
   -1.6369   -0.5377   -0.0000 C   0  0  0  0  0  0  0  0  0  0  0  0
    3.3574   -4.9465   -0.0000 C   0  0  0  0  0  0  0  0  0  0  0  0
   -0.3823    1.8639   -0.0000 N   0  0  0  0  0  0  0  0  0  0  0  0
    0.8603    3.9787   -0.0000 N   0  0  0  0  0  0  0  0  0  0  0  0
    4.9345    1.7086   -0.0000 C   0  0  0  0  0  0  0  0  0  0  0  0
   -0.3345    0.2270   -0.0000 C   0  0  0  0  0  0  0  0  0  0  0  0
   -2.9631    0.2390   -0.0000 C   0  0  0  0  0  0  0  0  0  0  0  0
   -1.3979    3.0109   -0.0000 C   0  0  0  0  0  0  0  0  0  0  0  0
   -0.6332    4.3132   -0.0000 C   0  0  0  0  0  0  0  0  0  0  0  0
   -0.3465    1.7564   -0.0000 C   0  0  0  0  0  0  0  0  0  0  0  0
   -2.9751    1.7683   -0.0000 C   0  0  0  0  0  0  0  0  0  0  0  0
    0.9558    2.5210   -0.0000 C   0  0  0  0  0  0  0  0  0  0  0  0
   -1.6727    2.5330   -0.0000 C   0  0  0  0  0  0  0  0  0  0  0  0
    0.9558    4.0504   -0.0000 N   0  0  0  0  0  0  0  0  0  0  0  0
    2.2582    1.7683   -0.0000 N   0  0  0  0  0  0  0  0  0  0  0  0
    2.2582    4.8151   -0.0000 C   0  0  0  0  0  0  0  0  0  0  0  0
    3.5605    2.5330   -0.0000 C   0  0  0  0  0  0  0  0  0  0  0  0
    3.5605    4.0623   -0.0000 C   0  0  0  0  0  0  0  0  0  0  0  0
  1  2  2  0  0  0  0
  2  3  1  0  0  0  0
  2  4  1  0  0  0  0
  3  5  1  0  0  0  0
  3  6  1  0  0  0  0
  4  7  2  0  0  0  0
  4  8  1  0  0  0  0
  5  9  1  0  0  0  0
  5 10  1  1  0  0  0
  6 11  1  0  0  0  0
  7 12  1  0  0  0  0
  7 13  1  0  0  0  0
  8 14  2  0  0  0  0
  9 15  1  0  0  0  0
 10 16  1  0  0  0  0
 11 17  1  1  0  0  0
 12 18  1  0  0  0  0
 12 19  1  0  0  0  0
 13 20  2  0  0  0  0
 16 21  2  0  0  0  0
 16 22  1  0  0  0  0
 18 23  2  0  0  0  0
 19 24  2  0  0  0  0
 21 25  1  0  0  0  0
 22 26  2  0  0  0  0
 25 27  1  0  0  0  0
 25 28  2  0  0  0  0
 27 29  2  0  0  0  0
 27 30  1  0  0  0  0
 29 31  1  0  0  0  0
 30 32  2  0  0  0  0
 31 33  2  0  0  0  0
 11 15  1  0  0  0  0
 14 20  1  0  0  0  0
 23 24  1  0  0  0  0
 26 28  1  0  0  0  0
 32 33  1  0  0  0  0
M  END
>  <MolRegNo>
2132078

>  <m>
=

>  <Value>
46000

>  <Unit>
nM

>  <Type>
IC50

>  <pValue>
4.34

>  <Ligand Efficiency>
0.18

>  <Binding Efficiency>
9.85

>  <Surface Efficiency>
5.04

>  <Assay Index>
1058329

>  <Assay Category>


>  <Assay Organism>
Homo sapiens

>  <Target ID>
17045

>  <Target Name>
Cytochrome P450 3A4

>  <Target Organism>
Homo sapiens

>  <Target Description>
Target is a single protein chain

>  <Sequence Accession>
P08684

>  <Reference>


>  <Pubmed ID>


>  <DOI>


$$$$
2104094
Actelion Java MolfileCreator 1.0

 34 38  0  0  1  0  0  0  0  0999 V2000
    0.0000   -0.0000   -0.0000 O   0  0  0  0  0  0  0  0  0  0  0  0
    1.0450   -0.6006   -0.0000 C   0  0  0  0  0  0  0  0  0  0  0  0
    1.0330   -2.1140   -0.0000 N   0  0  0  0  0  0  0  0  0  0  0  0
    2.3542    0.1682   -0.0000 C   0  0  0  0  0  0  0  0  0  0  0  0
   -0.3003   -2.8587   -0.0000 C   0  0  0  0  0  0  0  0  0  0  0  0
    2.3422   -2.8587   -0.0000 C   0  0  0  0  0  0  0  0  0  0  0  0
    2.3422    1.7056   -0.0000 C   0  0  0  0  0  0  0  0  0  0  0  0
    3.6635   -0.5886   -0.0000 C   0  0  0  0  0  0  0  0  0  0  0  0
   -0.3123   -4.3722   -0.0000 C   0  0  0  0  0  0  0  0  0  0  0  0
   -1.6336   -2.0780   -0.0000 C   0  0  0  0  0  0  0  0  0  0  0  0
    2.3302   -4.3722   -0.0000 C   0  0  0  0  0  0  0  0  0  0  0  0
    1.0090    2.4864   -0.0000 N   0  0  0  0  0  0  0  0  0  0  0  0
    3.6515    2.4744   -0.0000 C   0  0  0  0  0  0  0  0  0  0  0  0
    4.9727    0.1802   -0.0000 C   0  0  0  0  0  0  0  0  0  0  0  0
    0.9970   -5.1169   -0.0000 O   0  0  0  0  0  0  0  0  0  0  0  0
   -1.6456   -0.5405   -0.0000 C   0  0  0  0  0  0  0  0  0  0  0  0
    3.3752   -4.9727   -0.0000 C   0  0  0  0  0  0  0  0  0  0  0  0
   -0.3844    1.8738   -0.0000 N   0  0  0  0  0  0  0  0  0  0  0  0
    0.8648    3.9998   -0.0000 N   0  0  0  0  0  0  0  0  0  0  0  0
    4.9607    1.7176   -0.0000 C   0  0  0  0  0  0  0  0  0  0  0  0
    6.0177   -0.4204   -0.0000 C   0  0  0  0  0  0  0  0  0  0  0  0
   -0.3363    0.2282   -0.0000 C   0  0  0  0  0  0  0  0  0  0  0  0
   -2.9788    0.2402   -0.0000 C   0  0  0  0  0  0  0  0  0  0  0  0
   -1.4053    3.0269   -0.0000 C   0  0  0  0  0  0  0  0  0  0  0  0
   -0.6366    4.3361   -0.0000 C   0  0  0  0  0  0  0  0  0  0  0  0
   -0.3483    1.7657   -0.0000 C   0  0  0  0  0  0  0  0  0  0  0  0
   -2.9909    1.7777   -0.0000 C   0  0  0  0  0  0  0  0  0  0  0  0
    0.9609    2.5344   -0.0000 C   0  0  0  0  0  0  0  0  0  0  0  0
   -1.6816    2.5464   -0.0000 C   0  0  0  0  0  0  0  0  0  0  0  0
    0.9609    4.0719   -0.0000 N   0  0  0  0  0  0  0  0  0  0  0  0
    2.2702    1.7777   -0.0000 N   0  0  0  0  0  0  0  0  0  0  0  0
    2.2702    4.8406   -0.0000 C   0  0  0  0  0  0  0  0  0  0  0  0
    3.5794    2.5464   -0.0000 C   0  0  0  0  0  0  0  0  0  0  0  0
    3.5794    4.0839   -0.0000 C   0  0  0  0  0  0  0  0  0  0  0  0
  1  2  2  0  0  0  0
  2  3  1  0  0  0  0
  2  4  1  0  0  0  0
  3  5  1  0  0  0  0
  3  6  1  0  0  0  0
  4  7  2  0  0  0  0
  4  8  1  0  0  0  0
  5  9  1  0  0  0  0
  5 10  1  1  0  0  0
  6 11  1  0  0  0  0
  7 12  1  0  0  0  0
  7 13  1  0  0  0  0
  8 14  2  0  0  0  0
  9 15  1  0  0  0  0
 10 16  1  0  0  0  0
 11 17  1  1  0  0  0
 12 18  1  0  0  0  0
 12 19  1  0  0  0  0
 13 20  2  0  0  0  0
 14 21  1  0  0  0  0
 16 22  2  0  0  0  0
 16 23  1  0  0  0  0
 18 24  2  0  0  0  0
 19 25  2  0  0  0  0
 22 26  1  0  0  0  0
 23 27  2  0  0  0  0
 26 28  1  0  0  0  0
 26 29  2  0  0  0  0
 28 30  2  0  0  0  0
 28 31  1  0  0  0  0
 30 32  1  0  0  0  0
 31 33  2  0  0  0  0
 32 34  2  0  0  0  0
 11 15  1  0  0  0  0
 14 20  1  0  0  0  0
 24 25  1  0  0  0  0
 27 29  1  0  0  0  0
 33 34  1  0  0  0  0
M  END
>  <MolRegNo>
2104094

>  <m>
=

>  <Value>
43000

>  <Unit>
nM

>  <Type>
IC50

>  <pValue>
4.37

>  <Ligand Efficiency>
0.18

>  <Binding Efficiency>
9.61

>  <Surface Efficiency>
5.08

>  <Assay Index>
1058329

>  <Assay Category>


>  <Assay Organism>
Homo sapiens

>  <Target ID>
17045

>  <Target Name>
Cytochrome P450 3A4

>  <Target Organism>
Homo sapiens

>  <Target Description>
Target is a single protein chain

>  <Sequence Accession>
P08684

>  <Reference>


>  <Pubmed ID>


>  <DOI>


$$$$
2109524
Actelion Java MolfileCreator 1.0

 34 38  0  0  1  0  0  0  0  0999 V2000
    0.0000   -0.0000   -0.0000 O   0  0  0  0  0  0  0  0  0  0  0  0
    1.0444   -0.6002   -0.0000 C   0  0  0  0  0  0  0  0  0  0  0  0
    1.0324   -2.1128   -0.0000 N   0  0  0  0  0  0  0  0  0  0  0  0
    2.3529    0.1681   -0.0000 C   0  0  0  0  0  0  0  0  0  0  0  0
   -0.3001   -2.8571   -0.0000 C   0  0  0  0  0  0  0  0  0  0  0  0
    2.3409   -2.8571   -0.0000 C   0  0  0  0  0  0  0  0  0  0  0  0
    2.3409    1.7047   -0.0000 C   0  0  0  0  0  0  0  0  0  0  0  0
    3.6614   -0.5882   -0.0000 C   0  0  0  0  0  0  0  0  0  0  0  0
   -0.3121   -4.3697   -0.0000 C   0  0  0  0  0  0  0  0  0  0  0  0
   -1.6326   -2.0768   -0.0000 C   0  0  0  0  0  0  0  0  0  0  0  0
    2.3289   -4.3697   -0.0000 C   0  0  0  0  0  0  0  0  0  0  0  0
    1.0084    2.4850   -0.0000 N   0  0  0  0  0  0  0  0  0  0  0  0
    3.6494    2.4730   -0.0000 C   0  0  0  0  0  0  0  0  0  0  0  0
    4.9700    0.1801   -0.0000 C   0  0  0  0  0  0  0  0  0  0  0  0
    0.9964   -5.1140   -0.0000 O   0  0  0  0  0  0  0  0  0  0  0  0
   -1.6446   -0.5402   -0.0000 C   0  0  0  0  0  0  0  0  0  0  0  0
    3.3733   -4.9700   -0.0000 C   0  0  0  0  0  0  0  0  0  0  0  0
   -0.3842    1.8727   -0.0000 N   0  0  0  0  0  0  0  0  0  0  0  0
    0.8643    3.9976   -0.0000 N   0  0  0  0  0  0  0  0  0  0  0  0
    4.9580    1.7167   -0.0000 C   0  0  0  0  0  0  0  0  0  0  0  0
    3.6374    3.7095   -0.0000 C   0  0  0  0  0  0  0  0  0  0  0  0
   -0.3361    0.2281   -0.0000 C   0  0  0  0  0  0  0  0  0  0  0  0
   -2.9772    0.2401   -0.0000 C   0  0  0  0  0  0  0  0  0  0  0  0
   -1.4046    3.0252   -0.0000 C   0  0  0  0  0  0  0  0  0  0  0  0
   -0.6363    4.3337   -0.0000 C   0  0  0  0  0  0  0  0  0  0  0  0
   -0.3481    1.7647   -0.0000 C   0  0  0  0  0  0  0  0  0  0  0  0
   -2.9892    1.7767   -0.0000 C   0  0  0  0  0  0  0  0  0  0  0  0
    0.9604    2.5330   -0.0000 C   0  0  0  0  0  0  0  0  0  0  0  0
   -1.6807    2.5450   -0.0000 C   0  0  0  0  0  0  0  0  0  0  0  0
    0.9604    4.0696   -0.0000 N   0  0  0  0  0  0  0  0  0  0  0  0
    2.2689    1.7767   -0.0000 N   0  0  0  0  0  0  0  0  0  0  0  0
    2.2689    4.8379   -0.0000 C   0  0  0  0  0  0  0  0  0  0  0  0
    3.5774    2.5450   -0.0000 C   0  0  0  0  0  0  0  0  0  0  0  0
    3.5774    4.0816   -0.0000 C   0  0  0  0  0  0  0  0  0  0  0  0
  1  2  2  0  0  0  0
  2  3  1  0  0  0  0
  2  4  1  0  0  0  0
  3  5  1  0  0  0  0
  3  6  1  0  0  0  0
  4  7  2  0  0  0  0
  4  8  1  0  0  0  0
  5  9  1  0  0  0  0
  5 10  1  1  0  0  0
  6 11  1  0  0  0  0
  7 12  1  0  0  0  0
  7 13  1  0  0  0  0
  8 14  2  0  0  0  0
  9 15  1  0  0  0  0
 10 16  1  0  0  0  0
 11 17  1  1  0  0  0
 12 18  1  0  0  0  0
 12 19  1  0  0  0  0
 13 20  2  0  0  0  0
 13 21  1  0  0  0  0
 16 22  2  0  0  0  0
 16 23  1  0  0  0  0
 18 24  2  0  0  0  0
 19 25  2  0  0  0  0
 22 26  1  0  0  0  0
 23 27  2  0  0  0  0
 26 28  1  0  0  0  0
 26 29  2  0  0  0  0
 28 30  2  0  0  0  0
 28 31  1  0  0  0  0
 30 32  1  0  0  0  0
 31 33  2  0  0  0  0
 32 34  2  0  0  0  0
 11 15  1  0  0  0  0
 14 20  1  0  0  0  0
 24 25  1  0  0  0  0
 27 29  1  0  0  0  0
 33 34  1  0  0  0  0
M  END
>  <MolRegNo>
2109524

>  <m>
=

>  <Value>
40000

>  <Unit>
nM

>  <Type>
IC50

>  <pValue>
4.4

>  <Ligand Efficiency>
0.18

>  <Binding Efficiency>
9.68

>  <Surface Efficiency>
5.11

>  <Assay Index>
1058329

>  <Assay Category>


>  <Assay Organism>
Homo sapiens

>  <Target ID>
17045

>  <Target Name>
Cytochrome P450 3A4

>  <Target Organism>
Homo sapiens

>  <Target Description>
Target is a single protein chain

>  <Sequence Accession>
P08684

>  <Reference>


>  <Pubmed ID>


>  <DOI>


$$$$
2118566
Actelion Java MolfileCreator 1.0

 34 38  0  0  1  0  0  0  0  0999 V2000
    0.0000   -0.0000   -0.0000 Cl  0  0  0  0  0  0  0  0  0  0  0  0
   -1.0661    0.6229   -0.0000 C   0  0  0  0  0  0  0  0  0  0  0  0
   -2.3956   -0.1198   -0.0000 C   0  0  0  0  0  0  0  0  0  0  0  0
   -1.0780    2.1561   -0.0000 C   0  0  0  0  0  0  0  0  0  0  0  0
   -3.7252    0.6588   -0.0000 C   0  0  0  0  0  0  0  0  0  0  0  0
   -2.4076    2.9347   -0.0000 C   0  0  0  0  0  0  0  0  0  0  0  0
   -3.7372    2.1920   -0.0000 C   0  0  0  0  0  0  0  0  0  0  0  0
   -5.0548   -0.0838   -0.0000 C   0  0  0  0  0  0  0  0  0  0  0  0
   -5.0668    2.9706   -0.0000 N   0  0  0  0  0  0  0  0  0  0  0  0
   -6.1209    0.5390   -0.0000 O   0  0  0  0  0  0  0  0  0  0  0  0
   -5.0668   -1.5931   -0.0000 N   0  0  0  0  0  0  0  0  0  0  0  0
   -6.4563    2.3597   -0.0000 N   0  0  0  0  0  0  0  0  0  0  0  0
   -5.2105    4.4799   -0.0000 N   0  0  0  0  0  0  0  0  0  0  0  0
   -6.3964   -2.3358   -0.0000 C   0  0  0  0  0  0  0  0  0  0  0  0
   -3.7612   -2.3358   -0.0000 C   0  0  0  0  0  0  0  0  0  0  0  0
   -7.4744    3.5096   -0.0000 C   0  0  0  0  0  0  0  0  0  0  0  0
   -6.7078    4.8153   -0.0000 C   0  0  0  0  0  0  0  0  0  0  0  0
   -6.4084   -3.8450   -0.0000 C   0  0  0  0  0  0  0  0  0  0  0  0
   -7.7260   -1.5572   -0.0000 C   0  0  0  0  0  0  0  0  0  0  0  0
   -3.7731   -3.8450   -0.0000 C   0  0  0  0  0  0  0  0  0  0  0  0
   -5.1027   -4.5877   -0.0000 O   0  0  0  0  0  0  0  0  0  0  0  0
   -7.7379   -0.0240   -0.0000 C   0  0  0  0  0  0  0  0  0  0  0  0
   -2.7310   -4.4439   -0.0000 C   0  0  0  0  0  0  0  0  0  0  0  0
   -6.4323    0.7427   -0.0000 C   0  0  0  0  0  0  0  0  0  0  0  0
   -9.0675    0.7546   -0.0000 C   0  0  0  0  0  0  0  0  0  0  0  0
   -6.4443    2.2759   -0.0000 C   0  0  0  0  0  0  0  0  0  0  0  0
   -9.0795    2.2878   -0.0000 C   0  0  0  0  0  0  0  0  0  0  0  0
   -5.1387    3.0425   -0.0000 C   0  0  0  0  0  0  0  0  0  0  0  0
   -7.7739    3.0545   -0.0000 C   0  0  0  0  0  0  0  0  0  0  0  0
   -5.1387    4.5757   -0.0000 N   0  0  0  0  0  0  0  0  0  0  0  0
   -3.8330    2.2878   -0.0000 N   0  0  0  0  0  0  0  0  0  0  0  0
   -3.8330    5.3423   -0.0000 C   0  0  0  0  0  0  0  0  0  0  0  0
   -2.5274    3.0545   -0.0000 C   0  0  0  0  0  0  0  0  0  0  0  0
   -2.5274    4.5877   -0.0000 C   0  0  0  0  0  0  0  0  0  0  0  0
  1  2  1  0  0  0  0
  2  3  2  0  0  0  0
  2  4  1  0  0  0  0
  3  5  1  0  0  0  0
  4  6  2  0  0  0  0
  5  7  2  0  0  0  0
  5  8  1  0  0  0  0
  7  9  1  0  0  0  0
  8 10  2  0  0  0  0
  8 11  1  0  0  0  0
  9 12  1  0  0  0  0
  9 13  1  0  0  0  0
 11 14  1  0  0  0  0
 11 15  1  0  0  0  0
 12 16  2  0  0  0  0
 13 17  2  0  0  0  0
 14 18  1  0  0  0  0
 14 19  1  1  0  0  0
 15 20  1  0  0  0  0
 18 21  1  0  0  0  0
 19 22  1  0  0  0  0
 20 23  1  1  0  0  0
 22 24  2  0  0  0  0
 22 25  1  0  0  0  0
 24 26  1  0  0  0  0
 25 27  2  0  0  0  0
 26 28  1  0  0  0  0
 26 29  2  0  0  0  0
 28 30  2  0  0  0  0
 28 31  1  0  0  0  0
 30 32  1  0  0  0  0
 31 33  2  0  0  0  0
 32 34  2  0  0  0  0
  6  7  1  0  0  0  0
 16 17  1  0  0  0  0
 20 21  1  0  0  0  0
 27 29  1  0  0  0  0
 33 34  1  0  0  0  0
M  END
>  <MolRegNo>
2118566

>  <m>
=

>  <Value>
26000

>  <Unit>
nM

>  <Type>
IC50

>  <pValue>
4.58

>  <Ligand Efficiency>
0.18

>  <Binding Efficiency>
9.65

>  <Surface Efficiency>
5.33

>  <Assay Index>
1058329

>  <Assay Category>


>  <Assay Organism>
Homo sapiens

>  <Target ID>
17045

>  <Target Name>
Cytochrome P450 3A4

>  <Target Organism>
Homo sapiens

>  <Target Description>
Target is a single protein chain

>  <Sequence Accession>
P08684

>  <Reference>


>  <Pubmed ID>


>  <DOI>


$$$$
2155390
Actelion Java MolfileCreator 1.0

 34 38  0  0  1  0  0  0  0  0999 V2000
    0.0000   -0.0000   -0.0000 Cl  0  0  0  0  0  0  0  0  0  0  0  0
   -1.0673   -0.5876   -0.0000 C   0  0  0  0  0  0  0  0  0  0  0  0
   -2.3984    0.1919   -0.0000 C   0  0  0  0  0  0  0  0  0  0  0  0
   -1.0793   -2.0986   -0.0000 C   0  0  0  0  0  0  0  0  0  0  0  0
   -3.7295   -0.5516   -0.0000 C   0  0  0  0  0  0  0  0  0  0  0  0
   -2.4104   -2.8421   -0.0000 C   0  0  0  0  0  0  0  0  0  0  0  0
   -5.0606    0.2278   -0.0000 N   0  0  0  0  0  0  0  0  0  0  0  0
   -3.7415   -2.0626   -0.0000 C   0  0  0  0  0  0  0  0  0  0  0  0
   -6.4517   -0.3837   -0.0000 N   0  0  0  0  0  0  0  0  0  0  0  0
   -5.2046    1.7388   -0.0000 N   0  0  0  0  0  0  0  0  0  0  0  0
   -5.0726   -2.8061   -0.0000 C   0  0  0  0  0  0  0  0  0  0  0  0
   -7.4711    0.7675   -0.0000 C   0  0  0  0  0  0  0  0  0  0  0  0
   -6.7036    2.0746   -0.0000 C   0  0  0  0  0  0  0  0  0  0  0  0
   -6.1399   -2.1826   -0.0000 O   0  0  0  0  0  0  0  0  0  0  0  0
   -5.0846   -4.3171   -0.0000 N   0  0  0  0  0  0  0  0  0  0  0  0
   -6.4158   -5.0606   -0.0000 C   0  0  0  0  0  0  0  0  0  0  0  0
   -3.7775   -5.0606   -0.0000 C   0  0  0  0  0  0  0  0  0  0  0  0
   -6.4277   -6.5716   -0.0000 C   0  0  0  0  0  0  0  0  0  0  0  0
   -7.7469   -4.2812   -0.0000 C   0  0  0  0  0  0  0  0  0  0  0  0
   -3.7895   -6.5716   -0.0000 C   0  0  0  0  0  0  0  0  0  0  0  0
   -5.1206   -7.3152   -0.0000 O   0  0  0  0  0  0  0  0  0  0  0  0
   -7.7589   -2.7462   -0.0000 C   0  0  0  0  0  0  0  0  0  0  0  0
   -2.7462   -7.1712   -0.0000 C   0  0  0  0  0  0  0  0  0  0  0  0
   -6.4517   -1.9787   -0.0000 C   0  0  0  0  0  0  0  0  0  0  0  0
   -9.0900   -1.9667   -0.0000 C   0  0  0  0  0  0  0  0  0  0  0  0
   -6.4637   -0.4437   -0.0000 C   0  0  0  0  0  0  0  0  0  0  0  0
   -9.1020   -0.4317   -0.0000 C   0  0  0  0  0  0  0  0  0  0  0  0
   -5.1566    0.3238   -0.0000 C   0  0  0  0  0  0  0  0  0  0  0  0
   -7.7948    0.3358   -0.0000 C   0  0  0  0  0  0  0  0  0  0  0  0
   -5.1566    1.8588   -0.0000 N   0  0  0  0  0  0  0  0  0  0  0  0
   -3.8495   -0.4317   -0.0000 N   0  0  0  0  0  0  0  0  0  0  0  0
   -3.8495    2.6263   -0.0000 C   0  0  0  0  0  0  0  0  0  0  0  0
   -2.5423    0.3358   -0.0000 C   0  0  0  0  0  0  0  0  0  0  0  0
   -2.5423    1.8708   -0.0000 C   0  0  0  0  0  0  0  0  0  0  0  0
  1  2  1  0  0  0  0
  2  3  2  0  0  0  0
  2  4  1  0  0  0  0
  3  5  1  0  0  0  0
  4  6  2  0  0  0  0
  5  7  1  0  0  0  0
  5  8  2  0  0  0  0
  7  9  1  0  0  0  0
  7 10  1  0  0  0  0
  8 11  1  0  0  0  0
  9 12  2  0  0  0  0
 10 13  2  0  0  0  0
 11 14  2  0  0  0  0
 11 15  1  0  0  0  0
 15 16  1  0  0  0  0
 15 17  1  0  0  0  0
 16 18  1  0  0  0  0
 16 19  1  1  0  0  0
 17 20  1  0  0  0  0
 18 21  1  0  0  0  0
 19 22  1  0  0  0  0
 20 23  1  1  0  0  0
 22 24  2  0  0  0  0
 22 25  1  0  0  0  0
 24 26  1  0  0  0  0
 25 27  2  0  0  0  0
 26 28  1  0  0  0  0
 26 29  2  0  0  0  0
 28 30  2  0  0  0  0
 28 31  1  0  0  0  0
 30 32  1  0  0  0  0
 31 33  2  0  0  0  0
 32 34  2  0  0  0  0
  6  8  1  0  0  0  0
 12 13  1  0  0  0  0
 20 21  1  0  0  0  0
 27 29  1  0  0  0  0
 33 34  1  0  0  0  0
M  END
>  <MolRegNo>
2155390

>  <m>
=

>  <Value>
35000

>  <Unit>
nM

>  <Type>
IC50

>  <pValue>
4.46

>  <Ligand Efficiency>
0.18

>  <Binding Efficiency>
9.38

>  <Surface Efficiency>
5.18

>  <Assay Index>
1058329

>  <Assay Category>


>  <Assay Organism>
Homo sapiens

>  <Target ID>
17045

>  <Target Name>
Cytochrome P450 3A4

>  <Target Organism>
Homo sapiens

>  <Target Description>
Target is a single protein chain

>  <Sequence Accession>
P08684

>  <Reference>


>  <Pubmed ID>


>  <DOI>


$$$$
2131029
Actelion Java MolfileCreator 1.0

 34 38  0  0  1  0  0  0  0  0999 V2000
    0.0000   -0.0000   -0.0000 F   0  0  0  0  0  0  0  0  0  0  0  0
    1.0531    0.6173   -0.0000 C   0  0  0  0  0  0  0  0  0  0  0  0
    2.3724   -0.1452   -0.0000 C   0  0  0  0  0  0  0  0  0  0  0  0
    1.0410    2.1666   -0.0000 C   0  0  0  0  0  0  0  0  0  0  0  0
    3.6918    0.6294   -0.0000 C   0  0  0  0  0  0  0  0  0  0  0  0
    2.3603   -1.6704   -0.0000 C   0  0  0  0  0  0  0  0  0  0  0  0
    2.3603    2.9413   -0.0000 C   0  0  0  0  0  0  0  0  0  0  0  0
    3.6797    2.1787   -0.0000 C   0  0  0  0  0  0  0  0  0  0  0  0
    3.6797   -2.4329   -0.0000 C   0  0  0  0  0  0  0  0  0  0  0  0
    4.9990    2.9534   -0.0000 N   0  0  0  0  0  0  0  0  0  0  0  0
    4.9990   -1.6583   -0.0000 N   0  0  0  0  0  0  0  0  0  0  0  0
    3.6675   -3.9580   -0.0000 C   0  0  0  0  0  0  0  0  0  0  0  0
    6.3668    2.3240   -0.0000 N   0  0  0  0  0  0  0  0  0  0  0  0
    5.1321    4.4785   -0.0000 N   0  0  0  0  0  0  0  0  0  0  0  0
    4.9869   -0.1089   -0.0000 C   0  0  0  0  0  0  0  0  0  0  0  0
    6.3184   -2.4087   -0.0000 C   0  0  0  0  0  0  0  0  0  0  0  0
    4.9869   -4.7085   -0.0000 O   0  0  0  0  0  0  0  0  0  0  0  0
    7.3835    3.4739   -0.0000 C   0  0  0  0  0  0  0  0  0  0  0  0
    6.6210    4.8053   -0.0000 C   0  0  0  0  0  0  0  0  0  0  0  0
    3.9096    0.5205   -0.0000 O   0  0  0  0  0  0  0  0  0  0  0  0
    6.3062    0.6657   -0.0000 C   0  0  0  0  0  0  0  0  0  0  0  0
    6.3062   -3.9338   -0.0000 C   0  0  0  0  0  0  0  0  0  0  0  0
    6.2941    2.2151   -0.0000 C   0  0  0  0  0  0  0  0  0  0  0  0
    7.6256   -0.0968   -0.0000 C   0  0  0  0  0  0  0  0  0  0  0  0
    7.3593   -4.5390   -0.0000 C   0  0  0  0  0  0  0  0  0  0  0  0
    4.9506    3.0018   -0.0000 N   0  0  0  0  0  0  0  0  0  0  0  0
    7.6135    2.9897   -0.0000 C   0  0  0  0  0  0  0  0  0  0  0  0
    8.9449    0.6778   -0.0000 C   0  0  0  0  0  0  0  0  0  0  0  0
    3.5465    2.3845   -0.0000 N   0  0  0  0  0  0  0  0  0  0  0  0
    4.8053    4.5269   -0.0000 N   0  0  0  0  0  0  0  0  0  0  0  0
    8.9328    2.2272   -0.0000 C   0  0  0  0  0  0  0  0  0  0  0  0
    9.9980    0.0726   -0.0000 C   0  0  0  0  0  0  0  0  0  0  0  0
    2.5177    3.5465   -0.0000 C   0  0  0  0  0  0  0  0  0  0  0  0
    3.2923    4.8659   -0.0000 C   0  0  0  0  0  0  0  0  0  0  0  0
  1  2  1  0  0  0  0
  2  3  2  0  0  0  0
  2  4  1  0  0  0  0
  3  5  1  0  0  0  0
  3  6  1  0  0  0  0
  4  7  2  0  0  0  0
  5  8  2  0  0  0  0
  9  6  1  1  0  0  0
  8 10  1  0  0  0  0
  9 11  1  0  0  0  0
  9 12  1  0  0  0  0
 10 13  1  0  0  0  0
 10 14  1  0  0  0  0
 11 15  1  0  0  0  0
 11 16  1  0  0  0  0
 12 17  1  0  0  0  0
 13 18  2  0  0  0  0
 14 19  2  0  0  0  0
 15 20  2  0  0  0  0
 15 21  1  0  0  0  0
 16 22  1  0  0  0  0
 21 23  2  0  0  0  0
 21 24  1  0  0  0  0
 22 25  1  1  0  0  0
 23 26  1  0  0  0  0
 23 27  1  0  0  0  0
 24 28  2  0  0  0  0
 26 29  1  0  0  0  0
 26 30  1  0  0  0  0
 27 31  2  0  0  0  0
 28 32  1  0  0  0  0
 29 33  2  0  0  0  0
 30 34  2  0  0  0  0
  7  8  1  0  0  0  0
 17 22  1  0  0  0  0
 18 19  1  0  0  0  0
 28 31  1  0  0  0  0
 33 34  1  0  0  0  0
M  END
>  <MolRegNo>
2131029

>  <m>
=

>  <Value>
24000

>  <Unit>
nM

>  <Type>
IC50

>  <pValue>
4.62

>  <Ligand Efficiency>
0.19

>  <Binding Efficiency>
10.01

>  <Surface Efficiency>
5.08

>  <Assay Index>
1058329

>  <Assay Category>


>  <Assay Organism>
Homo sapiens

>  <Target ID>
17045

>  <Target Name>
Cytochrome P450 3A4

>  <Target Organism>
Homo sapiens

>  <Target Description>
Target is a single protein chain

>  <Sequence Accession>
P08684

>  <Reference>


>  <Pubmed ID>


>  <DOI>


$$$$
2124267
Actelion Java MolfileCreator 1.0

 33 37  0  0  1  0  0  0  0  0999 V2000
    0.0000   -0.0000   -0.0000 F   0  0  0  0  0  0  0  0  0  0  0  0
    1.0477    0.6142   -0.0000 C   0  0  0  0  0  0  0  0  0  0  0  0
    2.3603   -0.1445   -0.0000 C   0  0  0  0  0  0  0  0  0  0  0  0
    1.0356    2.1556   -0.0000 C   0  0  0  0  0  0  0  0  0  0  0  0
    3.6729    0.6262   -0.0000 C   0  0  0  0  0  0  0  0  0  0  0  0
    2.3482   -1.6618   -0.0000 C   0  0  0  0  0  0  0  0  0  0  0  0
    2.3482    2.9263   -0.0000 C   0  0  0  0  0  0  0  0  0  0  0  0
    3.6608    2.1676   -0.0000 C   0  0  0  0  0  0  0  0  0  0  0  0
    3.6608   -2.4205   -0.0000 C   0  0  0  0  0  0  0  0  0  0  0  0
    4.9734    2.9383   -0.0000 N   0  0  0  0  0  0  0  0  0  0  0  0
    4.9734   -1.6498   -0.0000 N   0  0  0  0  0  0  0  0  0  0  0  0
    3.6488   -3.9378   -0.0000 C   0  0  0  0  0  0  0  0  0  0  0  0
    6.3342    2.3121   -0.0000 N   0  0  0  0  0  0  0  0  0  0  0  0
    5.1059    4.4556   -0.0000 N   0  0  0  0  0  0  0  0  0  0  0  0
    4.9614   -0.1084   -0.0000 C   0  0  0  0  0  0  0  0  0  0  0  0
    6.2860   -2.3964   -0.0000 C   0  0  0  0  0  0  0  0  0  0  0  0
    4.9614   -4.6844   -0.0000 O   0  0  0  0  0  0  0  0  0  0  0  0
    7.3457    3.4561   -0.0000 C   0  0  0  0  0  0  0  0  0  0  0  0
    6.5871    4.7808   -0.0000 C   0  0  0  0  0  0  0  0  0  0  0  0
    3.8896    0.5178   -0.0000 O   0  0  0  0  0  0  0  0  0  0  0  0
    6.2740    0.6623   -0.0000 C   0  0  0  0  0  0  0  0  0  0  0  0
    6.2740   -3.9137   -0.0000 C   0  0  0  0  0  0  0  0  0  0  0  0
    6.2619    2.2037   -0.0000 C   0  0  0  0  0  0  0  0  0  0  0  0
    7.5866   -0.0963   -0.0000 C   0  0  0  0  0  0  0  0  0  0  0  0
    7.3217   -4.5158   -0.0000 C   0  0  0  0  0  0  0  0  0  0  0  0
    4.9253    2.9865   -0.0000 N   0  0  0  0  0  0  0  0  0  0  0  0
    7.5745    2.9744   -0.0000 C   0  0  0  0  0  0  0  0  0  0  0  0
    8.8992    0.6744   -0.0000 C   0  0  0  0  0  0  0  0  0  0  0  0
    3.5284    2.3723   -0.0000 N   0  0  0  0  0  0  0  0  0  0  0  0
    4.7808    4.5038   -0.0000 N   0  0  0  0  0  0  0  0  0  0  0  0
    8.8871    2.2158   -0.0000 C   0  0  0  0  0  0  0  0  0  0  0  0
    2.5048    3.5284   -0.0000 C   0  0  0  0  0  0  0  0  0  0  0  0
    3.2755    4.8410   -0.0000 C   0  0  0  0  0  0  0  0  0  0  0  0
  1  2  1  0  0  0  0
  2  3  2  0  0  0  0
  2  4  1  0  0  0  0
  3  5  1  0  0  0  0
  3  6  1  0  0  0  0
  4  7  2  0  0  0  0
  5  8  2  0  0  0  0
  9  6  1  1  0  0  0
  8 10  1  0  0  0  0
  9 11  1  0  0  0  0
  9 12  1  0  0  0  0
 10 13  1  0  0  0  0
 10 14  1  0  0  0  0
 11 15  1  0  0  0  0
 11 16  1  0  0  0  0
 12 17  1  0  0  0  0
 13 18  2  0  0  0  0
 14 19  2  0  0  0  0
 15 20  2  0  0  0  0
 15 21  1  0  0  0  0
 16 22  1  0  0  0  0
 21 23  2  0  0  0  0
 21 24  1  0  0  0  0
 22 25  1  1  0  0  0
 23 26  1  0  0  0  0
 23 27  1  0  0  0  0
 24 28  2  0  0  0  0
 26 29  1  0  0  0  0
 26 30  1  0  0  0  0
 27 31  2  0  0  0  0
 29 32  2  0  0  0  0
 30 33  2  0  0  0  0
  7  8  1  0  0  0  0
 17 22  1  0  0  0  0
 18 19  1  0  0  0  0
 28 31  1  0  0  0  0
 32 33  1  0  0  0  0
M  END
>  <MolRegNo>
2124267

>  <m>
=

>  <Value>
21000

>  <Unit>
nM

>  <Type>
IC50

>  <pValue>
4.68

>  <Ligand Efficiency>
0.19

>  <Binding Efficiency>
10.45

>  <Surface Efficiency>
5.14

>  <Assay Index>
1058329

>  <Assay Category>


>  <Assay Organism>
Homo sapiens

>  <Target ID>
17045

>  <Target Name>
Cytochrome P450 3A4

>  <Target Organism>
Homo sapiens

>  <Target Description>
Target is a single protein chain

>  <Sequence Accession>
P08684

>  <Reference>


>  <Pubmed ID>


>  <DOI>


$$$$
2194076
Actelion Java MolfileCreator 1.0

 34 38  0  0  1  0  0  0  0  0999 V2000
    0.0000   -0.0000   -0.0000 F   0  0  0  0  0  0  0  0  0  0  0  0
    1.0529    0.6172   -0.0000 C   0  0  0  0  0  0  0  0  0  0  0  0
    2.3722   -0.1452   -0.0000 C   0  0  0  0  0  0  0  0  0  0  0  0
    1.0408    2.1664   -0.0000 C   0  0  0  0  0  0  0  0  0  0  0  0
    3.6914    0.6293   -0.0000 C   0  0  0  0  0  0  0  0  0  0  0  0
    2.3601   -1.6702   -0.0000 C   0  0  0  0  0  0  0  0  0  0  0  0
    2.3601    2.9410   -0.0000 C   0  0  0  0  0  0  0  0  0  0  0  0
    3.6793    2.1785   -0.0000 C   0  0  0  0  0  0  0  0  0  0  0  0
    3.6793   -2.4327   -0.0000 C   0  0  0  0  0  0  0  0  0  0  0  0
    4.9985    2.9531   -0.0000 N   0  0  0  0  0  0  0  0  0  0  0  0
    4.9985   -1.6581   -0.0000 N   0  0  0  0  0  0  0  0  0  0  0  0
    3.6672   -3.9576   -0.0000 C   0  0  0  0  0  0  0  0  0  0  0  0
    6.3661    2.3237   -0.0000 N   0  0  0  0  0  0  0  0  0  0  0  0
    5.1316    4.4780   -0.0000 N   0  0  0  0  0  0  0  0  0  0  0  0
    4.9864   -0.1089   -0.0000 C   0  0  0  0  0  0  0  0  0  0  0  0
    6.3177   -2.4085   -0.0000 C   0  0  0  0  0  0  0  0  0  0  0  0
    4.9864   -4.7080   -0.0000 O   0  0  0  0  0  0  0  0  0  0  0  0
    7.3827    3.4735   -0.0000 C   0  0  0  0  0  0  0  0  0  0  0  0
    6.6203    4.8048   -0.0000 C   0  0  0  0  0  0  0  0  0  0  0  0
    3.9092    0.5204   -0.0000 O   0  0  0  0  0  0  0  0  0  0  0  0
    6.3056    0.6657   -0.0000 C   0  0  0  0  0  0  0  0  0  0  0  0
    6.3056   -3.9334   -0.0000 C   0  0  0  0  0  0  0  0  0  0  0  0
    6.2935    2.2148   -0.0000 C   0  0  0  0  0  0  0  0  0  0  0  0
    7.6248   -0.0968   -0.0000 C   0  0  0  0  0  0  0  0  0  0  0  0
    7.3585   -4.5386   -0.0000 C   0  0  0  0  0  0  0  0  0  0  0  0
    4.9501    3.0015   -0.0000 N   0  0  0  0  0  0  0  0  0  0  0  0
    7.6127    2.9894   -0.0000 C   0  0  0  0  0  0  0  0  0  0  0  0
    8.9440    0.6778   -0.0000 C   0  0  0  0  0  0  0  0  0  0  0  0
    3.5461    2.3843   -0.0000 N   0  0  0  0  0  0  0  0  0  0  0  0
    4.8048    4.5265   -0.0000 N   0  0  0  0  0  0  0  0  0  0  0  0
    8.9319    2.2269   -0.0000 C   0  0  0  0  0  0  0  0  0  0  0  0
    2.5174    3.5461   -0.0000 C   0  0  0  0  0  0  0  0  0  0  0  0
    3.2920    4.8653   -0.0000 C   0  0  0  0  0  0  0  0  0  0  0  0
    9.9848    2.8442   -0.0000 C   0  0  0  0  0  0  0  0  0  0  0  0
  1  2  1  0  0  0  0
  2  3  2  0  0  0  0
  2  4  1  0  0  0  0
  3  5  1  0  0  0  0
  3  6  1  0  0  0  0
  4  7  2  0  0  0  0
  5  8  2  0  0  0  0
  9  6  1  1  0  0  0
  8 10  1  0  0  0  0
  9 11  1  0  0  0  0
  9 12  1  0  0  0  0
 10 13  1  0  0  0  0
 10 14  1  0  0  0  0
 11 15  1  0  0  0  0
 11 16  1  0  0  0  0
 12 17  1  0  0  0  0
 13 18  2  0  0  0  0
 14 19  2  0  0  0  0
 15 20  2  0  0  0  0
 15 21  1  0  0  0  0
 16 22  1  0  0  0  0
 21 23  2  0  0  0  0
 21 24  1  0  0  0  0
 22 25  1  1  0  0  0
 23 26  1  0  0  0  0
 23 27  1  0  0  0  0
 24 28  2  0  0  0  0
 26 29  1  0  0  0  0
 26 30  1  0  0  0  0
 27 31  2  0  0  0  0
 29 32  2  0  0  0  0
 30 33  2  0  0  0  0
 31 34  1  0  0  0  0
  7  8  1  0  0  0  0
 17 22  1  0  0  0  0
 18 19  1  0  0  0  0
 28 31  1  0  0  0  0
 32 33  1  0  0  0  0
M  END
>  <MolRegNo>
2194076

>  <m>
=

>  <Value>
23000

>  <Unit>
nM

>  <Type>
IC50

>  <pValue>
4.64

>  <Ligand Efficiency>
0.19

>  <Binding Efficiency>
10.05

>  <Surface Efficiency>
5.1

>  <Assay Index>
1058329

>  <Assay Category>


>  <Assay Organism>
Homo sapiens

>  <Target ID>
17045

>  <Target Name>
Cytochrome P450 3A4

>  <Target Organism>
Homo sapiens

>  <Target Description>
Target is a single protein chain

>  <Sequence Accession>
P08684

>  <Reference>


>  <Pubmed ID>


>  <DOI>


$$$$
2150092
Actelion Java MolfileCreator 1.0

 34 38  0  0  1  0  0  0  0  0999 V2000
    0.0000   -0.0000   -0.0000 F   0  0  0  0  0  0  0  0  0  0  0  0
    1.0525    0.6170   -0.0000 C   0  0  0  0  0  0  0  0  0  0  0  0
    2.3711   -0.1452   -0.0000 C   0  0  0  0  0  0  0  0  0  0  0  0
    1.0404    2.1654   -0.0000 C   0  0  0  0  0  0  0  0  0  0  0  0
    3.6897    0.6291   -0.0000 C   0  0  0  0  0  0  0  0  0  0  0  0
    2.3590   -1.6694   -0.0000 C   0  0  0  0  0  0  0  0  0  0  0  0
    2.3590    2.9396   -0.0000 C   0  0  0  0  0  0  0  0  0  0  0  0
    3.6776    2.1775   -0.0000 C   0  0  0  0  0  0  0  0  0  0  0  0
    3.6776   -2.4316   -0.0000 C   0  0  0  0  0  0  0  0  0  0  0  0
    4.9962    2.9517   -0.0000 N   0  0  0  0  0  0  0  0  0  0  0  0
    4.9962   -1.6573   -0.0000 N   0  0  0  0  0  0  0  0  0  0  0  0
    3.6655   -3.9558   -0.0000 C   0  0  0  0  0  0  0  0  0  0  0  0
    6.3632    2.3227   -0.0000 N   0  0  0  0  0  0  0  0  0  0  0  0
    5.1293    4.4760   -0.0000 N   0  0  0  0  0  0  0  0  0  0  0  0
    4.9841   -0.1089   -0.0000 C   0  0  0  0  0  0  0  0  0  0  0  0
    6.3148   -2.4074   -0.0000 C   0  0  0  0  0  0  0  0  0  0  0  0
    4.9841   -4.7058   -0.0000 O   0  0  0  0  0  0  0  0  0  0  0  0
    7.3793    3.4719   -0.0000 C   0  0  0  0  0  0  0  0  0  0  0  0
    6.6172    4.8026   -0.0000 C   0  0  0  0  0  0  0  0  0  0  0  0
    3.9074    0.5202   -0.0000 O   0  0  0  0  0  0  0  0  0  0  0  0
    6.3027    0.6654   -0.0000 C   0  0  0  0  0  0  0  0  0  0  0  0
    6.3027   -3.9316   -0.0000 C   0  0  0  0  0  0  0  0  0  0  0  0
    6.2906    2.2138   -0.0000 C   0  0  0  0  0  0  0  0  0  0  0  0
    7.6213   -0.0968   -0.0000 C   0  0  0  0  0  0  0  0  0  0  0  0
    7.3552   -4.5365   -0.0000 C   0  0  0  0  0  0  0  0  0  0  0  0
    4.9478    3.0001   -0.0000 N   0  0  0  0  0  0  0  0  0  0  0  0
    7.6092    2.9880   -0.0000 C   0  0  0  0  0  0  0  0  0  0  0  0
    8.9399    0.6774   -0.0000 C   0  0  0  0  0  0  0  0  0  0  0  0
    3.5445    2.3832   -0.0000 N   0  0  0  0  0  0  0  0  0  0  0  0
    4.8026    4.5244   -0.0000 N   0  0  0  0  0  0  0  0  0  0  0  0
    8.9278    2.2259   -0.0000 C   0  0  0  0  0  0  0  0  0  0  0  0
    7.5971    4.2341   -0.0000 C   0  0  0  0  0  0  0  0  0  0  0  0
    2.5162    3.5445   -0.0000 C   0  0  0  0  0  0  0  0  0  0  0  0
    3.2905    4.8631   -0.0000 C   0  0  0  0  0  0  0  0  0  0  0  0
  1  2  1  0  0  0  0
  2  3  2  0  0  0  0
  2  4  1  0  0  0  0
  3  5  1  0  0  0  0
  3  6  1  0  0  0  0
  4  7  2  0  0  0  0
  5  8  2  0  0  0  0
  9  6  1  1  0  0  0
  8 10  1  0  0  0  0
  9 11  1  0  0  0  0
  9 12  1  0  0  0  0
 10 13  1  0  0  0  0
 10 14  1  0  0  0  0
 11 15  1  0  0  0  0
 11 16  1  0  0  0  0
 12 17  1  0  0  0  0
 13 18  2  0  0  0  0
 14 19  2  0  0  0  0
 15 20  2  0  0  0  0
 15 21  1  0  0  0  0
 16 22  1  0  0  0  0
 21 23  2  0  0  0  0
 21 24  1  0  0  0  0
 22 25  1  1  0  0  0
 23 26  1  0  0  0  0
 23 27  1  0  0  0  0
 24 28  2  0  0  0  0
 26 29  1  0  0  0  0
 26 30  1  0  0  0  0
 27 31  2  0  0  0  0
 27 32  1  0  0  0  0
 29 33  2  0  0  0  0
 30 34  2  0  0  0  0
  7  8  1  0  0  0  0
 17 22  1  0  0  0  0
 18 19  1  0  0  0  0
 28 31  1  0  0  0  0
 33 34  1  0  0  0  0
M  END
>  <MolRegNo>
2150092

>  <m>
=

>  <Value>
23000

>  <Unit>
nM

>  <Type>
IC50

>  <pValue>
4.64

>  <Ligand Efficiency>
0.19

>  <Binding Efficiency>
10.05

>  <Surface Efficiency>
5.1

>  <Assay Index>
1058329

>  <Assay Category>


>  <Assay Organism>
Homo sapiens

>  <Target ID>
17045

>  <Target Name>
Cytochrome P450 3A4

>  <Target Organism>
Homo sapiens

>  <Target Description>
Target is a single protein chain

>  <Sequence Accession>
P08684

>  <Reference>


>  <Pubmed ID>


>  <DOI>


$$$$
2145890
Actelion Java MolfileCreator 1.0

 33 37  0  0  1  0  0  0  0  0999 V2000
    0.0000   -0.0000   -0.0000 O   0  0  0  0  0  0  0  0  0  0  0  0
    1.0473   -0.6019   -0.0000 C   0  0  0  0  0  0  0  0  0  0  0  0
    1.0353   -2.1187   -0.0000 N   0  0  0  0  0  0  0  0  0  0  0  0
    2.3595    0.1806   -0.0000 C   0  0  0  0  0  0  0  0  0  0  0  0
   -0.3010   -2.8772   -0.0000 C   0  0  0  0  0  0  0  0  0  0  0  0
    2.3475   -2.8651   -0.0000 C   0  0  0  0  0  0  0  0  0  0  0  0
    2.3475    1.7215   -0.0000 C   0  0  0  0  0  0  0  0  0  0  0  0
    3.6717   -0.5658   -0.0000 C   0  0  0  0  0  0  0  0  0  0  0  0
   -0.3130   -4.3940   -0.0000 C   0  0  0  0  0  0  0  0  0  0  0  0
   -1.6372   -2.1067   -0.0000 C   0  0  0  0  0  0  0  0  0  0  0  0
    2.3354   -4.3820   -0.0000 C   0  0  0  0  0  0  0  0  0  0  0  0
    1.0112    2.4919   -0.0000 N   0  0  0  0  0  0  0  0  0  0  0  0
    3.6597    2.4919   -0.0000 C   0  0  0  0  0  0  0  0  0  0  0  0
    4.9839    0.2047   -0.0000 C   0  0  0  0  0  0  0  0  0  0  0  0
    0.9992   -5.1404   -0.0000 O   0  0  0  0  0  0  0  0  0  0  0  0
   -2.9735   -2.8651   -0.0000 C   0  0  0  0  0  0  0  0  0  0  0  0
    0.8547    4.0088   -0.0000 N   0  0  0  0  0  0  0  0  0  0  0  0
   -0.3732    1.8659   -0.0000 N   0  0  0  0  0  0  0  0  0  0  0  0
    4.9718    1.7456   -0.0000 C   0  0  0  0  0  0  0  0  0  0  0  0
    6.0312   -0.3973   -0.0000 C   0  0  0  0  0  0  0  0  0  0  0  0
   -4.3097   -2.0947   -0.0000 C   0  0  0  0  0  0  0  0  0  0  0  0
   -2.9735   -4.3820   -0.0000 C   0  0  0  0  0  0  0  0  0  0  0  0
   -0.6501    4.3338   -0.0000 C   0  0  0  0  0  0  0  0  0  0  0  0
   -1.4085    3.0096   -0.0000 C   0  0  0  0  0  0  0  0  0  0  0  0
   -5.6339   -2.8531   -0.0000 C   0  0  0  0  0  0  0  0  0  0  0  0
   -4.3338   -0.8547   -0.0000 C   0  0  0  0  0  0  0  0  0  0  0  0
   -4.2977   -5.1404   -0.0000 C   0  0  0  0  0  0  0  0  0  0  0  0
   -5.6339   -4.3699   -0.0000 C   0  0  0  0  0  0  0  0  0  0  0  0
   -4.2977   -6.6572   -0.0000 N   0  0  0  0  0  0  0  0  0  0  0  0
   -3.0698   -7.5119   -0.0000 N   0  0  0  0  0  0  0  0  0  0  0  0
   -5.5376   -7.5240   -0.0000 N   0  0  0  0  0  0  0  0  0  0  0  0
   -3.5513   -8.9565   -0.0000 C   0  0  0  0  0  0  0  0  0  0  0  0
   -5.0681   -8.9686   -0.0000 C   0  0  0  0  0  0  0  0  0  0  0  0
  1  2  2  0  0  0  0
  2  3  1  0  0  0  0
  2  4  1  0  0  0  0
  3  5  1  0  0  0  0
  3  6  1  0  0  0  0
  4  7  2  0  0  0  0
  4  8  1  0  0  0  0
  5  9  1  0  0  0  0
  5 10  1  1  0  0  0
  6 11  1  0  0  0  0
  7 12  1  0  0  0  0
  7 13  1  0  0  0  0
  8 14  2  0  0  0  0
  9 15  1  0  0  0  0
 10 16  1  0  0  0  0
 12 17  1  0  0  0  0
 12 18  1  0  0  0  0
 13 19  2  0  0  0  0
 14 20  1  0  0  0  0
 16 21  2  0  0  0  0
 16 22  1  0  0  0  0
 17 23  2  0  0  0  0
 18 24  2  0  0  0  0
 21 25  1  0  0  0  0
 21 26  1  0  0  0  0
 22 27  2  0  0  0  0
 25 28  2  0  0  0  0
 27 29  1  0  0  0  0
 29 30  1  0  0  0  0
 29 31  1  0  0  0  0
 30 32  2  0  0  0  0
 31 33  2  0  0  0  0
 11 15  1  0  0  0  0
 14 19  1  0  0  0  0
 23 24  1  0  0  0  0
 27 28  1  0  0  0  0
 32 33  1  0  0  0  0
M  END
>  <MolRegNo>
2145890

>  <m>
=

>  <Value>
19000

>  <Unit>
nM

>  <Type>
IC50

>  <pValue>
4.72

>  <Ligand Efficiency>
0.2

>  <Binding Efficiency>
10.65

>  <Surface Efficiency>
5.19

>  <Assay Index>
1058329

>  <Assay Category>


>  <Assay Organism>
Homo sapiens

>  <Target ID>
17045

>  <Target Name>
Cytochrome P450 3A4

>  <Target Organism>
Homo sapiens

>  <Target Description>
Target is a single protein chain

>  <Sequence Accession>
P08684

>  <Reference>


>  <Pubmed ID>


>  <DOI>


$$$$
2146291
Actelion Java MolfileCreator 1.0

 33 37  0  0  1  0  0  0  0  0999 V2000
    0.0000   -0.0000   -0.0000 Cl  0  0  0  0  0  0  0  0  0  0  0  0
    0.0000    1.2393   -0.0000 C   0  0  0  0  0  0  0  0  0  0  0  0
    1.3114    2.0093   -0.0000 C   0  0  0  0  0  0  0  0  0  0  0  0
   -1.3235    2.0213   -0.0000 C   0  0  0  0  0  0  0  0  0  0  0  0
    1.3114    3.5493   -0.0000 C   0  0  0  0  0  0  0  0  0  0  0  0
    2.6229    1.2513   -0.0000 C   0  0  0  0  0  0  0  0  0  0  0  0
   -1.3235    3.5613   -0.0000 C   0  0  0  0  0  0  0  0  0  0  0  0
   -0.0120    4.3314   -0.0000 C   0  0  0  0  0  0  0  0  0  0  0  0
    3.9343    2.0213   -0.0000 C   0  0  0  0  0  0  0  0  0  0  0  0
   -0.0120    5.8714   -0.0000 N   0  0  0  0  0  0  0  0  0  0  0  0
    5.2458    1.2633   -0.0000 N   0  0  0  0  0  0  0  0  0  0  0  0
    3.9223    3.5613   -0.0000 C   0  0  0  0  0  0  0  0  0  0  0  0
    1.2152    6.7497   -0.0000 N   0  0  0  0  0  0  0  0  0  0  0  0
   -1.2513    6.7617   -0.0000 N   0  0  0  0  0  0  0  0  0  0  0  0
    5.2337   -0.2527   -0.0000 C   0  0  0  0  0  0  0  0  0  0  0  0
    6.5572    2.0333   -0.0000 C   0  0  0  0  0  0  0  0  0  0  0  0
    5.2337    4.3314   -0.0000 O   0  0  0  0  0  0  0  0  0  0  0  0
    0.7339    8.2176   -0.0000 C   0  0  0  0  0  0  0  0  0  0  0  0
   -0.7821    8.2296   -0.0000 C   0  0  0  0  0  0  0  0  0  0  0  0
    4.1629   -0.8542   -0.0000 O   0  0  0  0  0  0  0  0  0  0  0  0
    6.5452   -1.0107   -0.0000 C   0  0  0  0  0  0  0  0  0  0  0  0
    6.5452    3.5734   -0.0000 C   0  0  0  0  0  0  0  0  0  0  0  0
    6.5331   -2.5266   -0.0000 C   0  0  0  0  0  0  0  0  0  0  0  0
    7.8566   -0.2406   -0.0000 C   0  0  0  0  0  0  0  0  0  0  0  0
    5.1976   -3.2726   -0.0000 N   0  0  0  0  0  0  0  0  0  0  0  0
    7.8446   -3.2726   -0.0000 C   0  0  0  0  0  0  0  0  0  0  0  0
    9.1681   -0.9866   -0.0000 C   0  0  0  0  0  0  0  0  0  0  0  0
    3.8140   -2.6349   -0.0000 N   0  0  0  0  0  0  0  0  0  0  0  0
    5.0533   -4.7645   -0.0000 N   0  0  0  0  0  0  0  0  0  0  0  0
    9.1560   -2.5026   -0.0000 C   0  0  0  0  0  0  0  0  0  0  0  0
    2.7793   -3.7539   -0.0000 C   0  0  0  0  0  0  0  0  0  0  0  0
    3.5493   -5.0773   -0.0000 C   0  0  0  0  0  0  0  0  0  0  0  0
   10.2028   -3.1041   -0.0000 C   0  0  0  0  0  0  0  0  0  0  0  0
  1  2  1  0  0  0  0
  2  3  2  0  0  0  0
  2  4  1  0  0  0  0
  3  5  1  0  0  0  0
  3  6  1  0  0  0  0
  4  7  2  0  0  0  0
  5  8  2  0  0  0  0
  9  6  1  6  0  0  0
  8 10  1  0  0  0  0
  9 11  1  0  0  0  0
  9 12  1  0  0  0  0
 10 13  1  0  0  0  0
 10 14  1  0  0  0  0
 11 15  1  0  0  0  0
 11 16  1  0  0  0  0
 12 17  1  0  0  0  0
 13 18  2  0  0  0  0
 14 19  2  0  0  0  0
 15 20  2  0  0  0  0
 15 21  1  0  0  0  0
 16 22  1  0  0  0  0
 21 23  2  0  0  0  0
 21 24  1  0  0  0  0
 23 25  1  0  0  0  0
 23 26  1  0  0  0  0
 24 27  2  0  0  0  0
 25 28  1  0  0  0  0
 25 29  1  0  0  0  0
 26 30  2  0  0  0  0
 28 31  2  0  0  0  0
 29 32  2  0  0  0  0
 30 33  1  0  0  0  0
  7  8  1  0  0  0  0
 17 22  1  0  0  0  0
 18 19  1  0  0  0  0
 27 30  1  0  0  0  0
 31 32  1  0  0  0  0
M  END
>  <MolRegNo>
2146291

>  <m>
=

>  <Value>
19000

>  <Unit>
nM

>  <Type>
IC50

>  <pValue>
4.72

>  <Ligand Efficiency>
0.2

>  <Binding Efficiency>
10.18

>  <Surface Efficiency>
5.19

>  <Assay Index>
1058329

>  <Assay Category>


>  <Assay Organism>
Homo sapiens

>  <Target ID>
17045

>  <Target Name>
Cytochrome P450 3A4

>  <Target Organism>
Homo sapiens

>  <Target Description>
Target is a single protein chain

>  <Sequence Accession>
P08684

>  <Reference>


>  <Pubmed ID>


>  <DOI>


$$$$
2187944
Actelion Java MolfileCreator 1.0

 32 36  0  0  1  0  0  0  0  0999 V2000
    0.0000   -0.0000   -0.0000 O   0  0  0  0  0  0  0  0  0  0  0  0
   -1.0629   -0.5852   -0.0000 C   0  0  0  0  0  0  0  0  0  0  0  0
   -2.3886    0.1911   -0.0000 N   0  0  0  0  0  0  0  0  0  0  0  0
   -1.0868   -2.0900   -0.0000 C   0  0  0  0  0  0  0  0  0  0  0  0
   -2.4005    1.7198   -0.0000 C   0  0  0  0  0  0  0  0  0  0  0  0
   -3.7142   -0.5494   -0.0000 C   0  0  0  0  0  0  0  0  0  0  0  0
    0.2030   -2.8424   -0.0000 C   0  0  0  0  0  0  0  0  0  0  0  0
   -2.4125   -2.8305   -0.0000 C   0  0  0  0  0  0  0  0  0  0  0  0
   -3.7262    2.4961   -0.0000 C   0  0  0  0  0  0  0  0  0  0  0  0
   -1.0987    2.4841   -0.0000 C   0  0  0  0  0  0  0  0  0  0  0  0
   -5.0399    0.2269   -0.0000 C   0  0  0  0  0  0  0  0  0  0  0  0
    1.5048   -2.0781   -0.0000 N   0  0  0  0  0  0  0  0  0  0  0  0
    0.1791   -4.3472   -0.0000 C   0  0  0  0  0  0  0  0  0  0  0  0
   -2.4363   -4.3353   -0.0000 C   0  0  0  0  0  0  0  0  0  0  0  0
   -5.0518    1.7556   -0.0000 O   0  0  0  0  0  0  0  0  0  0  0  0
   -1.1107    4.0128   -0.0000 C   0  0  0  0  0  0  0  0  0  0  0  0
    1.6481   -0.5733   -0.0000 N   0  0  0  0  0  0  0  0  0  0  0  0
    2.8543   -2.7110   -0.0000 N   0  0  0  0  0  0  0  0  0  0  0  0
   -1.1465   -5.0877   -0.0000 C   0  0  0  0  0  0  0  0  0  0  0  0
    0.1911    4.7771   -0.0000 C   0  0  0  0  0  0  0  0  0  0  0  0
   -2.4363    4.7771   -0.0000 C   0  0  0  0  0  0  0  0  0  0  0  0
    3.1171   -0.2627   -0.0000 C   0  0  0  0  0  0  0  0  0  0  0  0
    3.8695   -1.5765   -0.0000 C   0  0  0  0  0  0  0  0  0  0  0  0
    0.1791    6.3058   -0.0000 C   0  0  0  0  0  0  0  0  0  0  0  0
    1.2301    4.1800   -0.0000 C   0  0  0  0  0  0  0  0  0  0  0  0
   -2.4483    6.3058   -0.0000 C   0  0  0  0  0  0  0  0  0  0  0  0
   -1.1465    7.0702   -0.0000 C   0  0  0  0  0  0  0  0  0  0  0  0
   -3.7739    7.0702   -0.0000 N   0  0  0  0  0  0  0  0  0  0  0  0
   -3.9292    8.5750   -0.0000 N   0  0  0  0  0  0  0  0  0  0  0  0
   -5.1474    6.4491   -0.0000 N   0  0  0  0  0  0  0  0  0  0  0  0
   -5.4221    8.8974   -0.0000 C   0  0  0  0  0  0  0  0  0  0  0  0
   -6.1745    7.5837   -0.0000 C   0  0  0  0  0  0  0  0  0  0  0  0
  1  2  2  0  0  0  0
  2  3  1  0  0  0  0
  2  4  1  0  0  0  0
  3  5  1  0  0  0  0
  3  6  1  0  0  0  0
  4  7  2  0  0  0  0
  4  8  1  0  0  0  0
  5  9  1  0  0  0  0
  5 10  1  1  0  0  0
  6 11  1  0  0  0  0
  7 12  1  0  0  0  0
  7 13  1  0  0  0  0
  8 14  2  0  0  0  0
  9 15  1  0  0  0  0
 10 16  1  0  0  0  0
 12 17  1  0  0  0  0
 12 18  1  0  0  0  0
 13 19  2  0  0  0  0
 16 20  2  0  0  0  0
 16 21  1  0  0  0  0
 17 22  2  0  0  0  0
 18 23  2  0  0  0  0
 20 24  1  0  0  0  0
 20 25  1  0  0  0  0
 21 26  2  0  0  0  0
 24 27  2  0  0  0  0
 26 28  1  0  0  0  0
 28 29  1  0  0  0  0
 28 30  1  0  0  0  0
 29 31  2  0  0  0  0
 30 32  2  0  0  0  0
 11 15  1  0  0  0  0
 14 19  1  0  0  0  0
 22 23  1  0  0  0  0
 26 27  1  0  0  0  0
 31 32  1  0  0  0  0
M  END
>  <MolRegNo>
2187944

>  <m>
=

>  <Value>
18000

>  <Unit>
nM

>  <Type>
IC50

>  <pValue>
4.75

>  <Ligand Efficiency>
0.2

>  <Binding Efficiency>
11.05

>  <Surface Efficiency>
5.22

>  <Assay Index>
1058329

>  <Assay Category>


>  <Assay Organism>
Homo sapiens

>  <Target ID>
17045

>  <Target Name>
Cytochrome P450 3A4

>  <Target Organism>
Homo sapiens

>  <Target Description>
Target is a single protein chain

>  <Sequence Accession>
P08684

>  <Reference>


>  <Pubmed ID>


>  <DOI>


$$$$
2164127
Actelion Java MolfileCreator 1.0

 33 37  0  0  1  0  0  0  0  0999 V2000
    0.0000   -0.0000   -0.0000 Cl  0  0  0  0  0  0  0  0  0  0  0  0
   -1.0680    0.6240   -0.0000 C   0  0  0  0  0  0  0  0  0  0  0  0
   -1.0680    2.1600   -0.0000 C   0  0  0  0  0  0  0  0  0  0  0  0
   -2.4000   -0.1200   -0.0000 C   0  0  0  0  0  0  0  0  0  0  0  0
   -2.3880    2.9400   -0.0000 C   0  0  0  0  0  0  0  0  0  0  0  0
    0.2400    2.9280   -0.0000 C   0  0  0  0  0  0  0  0  0  0  0  0
   -3.7200    0.6600   -0.0000 C   0  0  0  0  0  0  0  0  0  0  0  0
   -3.7200    2.1960   -0.0000 C   0  0  0  0  0  0  0  0  0  0  0  0
    0.2400    4.4640   -0.0000 C   0  0  0  0  0  0  0  0  0  0  0  0
   -5.0520    2.9760   -0.0000 N   0  0  0  0  0  0  0  0  0  0  0  0
    1.5480    5.2320   -0.0000 N   0  0  0  0  0  0  0  0  0  0  0  0
   -1.0920    5.2440   -0.0000 C   0  0  0  0  0  0  0  0  0  0  0  0
   -5.1960    4.4880   -0.0000 N   0  0  0  0  0  0  0  0  0  0  0  0
   -6.4440    2.3640   -0.0000 N   0  0  0  0  0  0  0  0  0  0  0  0
    2.8560    4.4760   -0.0000 C   0  0  0  0  0  0  0  0  0  0  0  0
    1.5360    6.7680   -0.0000 C   0  0  0  0  0  0  0  0  0  0  0  0
   -1.1040    6.7800   -0.0000 O   0  0  0  0  0  0  0  0  0  0  0  0
   -6.6960    4.8240   -0.0000 C   0  0  0  0  0  0  0  0  0  0  0  0
   -7.4640    3.5160   -0.0000 C   0  0  0  0  0  0  0  0  0  0  0  0
    2.8440    3.2640   -0.0000 O   0  0  0  0  0  0  0  0  0  0  0  0
    4.1640    5.2440   -0.0000 C   0  0  0  0  0  0  0  0  0  0  0  0
    0.2040    7.5480   -0.0000 C   0  0  0  0  0  0  0  0  0  0  0  0
    5.4720    4.5000   -0.0000 C   0  0  0  0  0  0  0  0  0  0  0  0
    4.1520    6.7800   -0.0000 C   0  0  0  0  0  0  0  0  0  0  0  0
    5.4600    2.9880   -0.0000 N   0  0  0  0  0  0  0  0  0  0  0  0
    6.7800    5.2680   -0.0000 C   0  0  0  0  0  0  0  0  0  0  0  0
    5.4600    7.5480   -0.0000 C   0  0  0  0  0  0  0  0  0  0  0  0
    4.2120    2.1240   -0.0000 N   0  0  0  0  0  0  0  0  0  0  0  0
    6.6840    2.1240   -0.0000 N   0  0  0  0  0  0  0  0  0  0  0  0
    6.7680    6.8040   -0.0000 C   0  0  0  0  0  0  0  0  0  0  0  0
    7.8240    4.6680   -0.0000 C   0  0  0  0  0  0  0  0  0  0  0  0
    4.6680    0.6840   -0.0000 C   0  0  0  0  0  0  0  0  0  0  0  0
    6.2040    0.6840   -0.0000 C   0  0  0  0  0  0  0  0  0  0  0  0
  1  2  1  0  0  0  0
  2  3  2  0  0  0  0
  2  4  1  0  0  0  0
  3  5  1  0  0  0  0
  3  6  1  0  0  0  0
  4  7  2  0  0  0  0
  5  8  2  0  0  0  0
  9  6  1  6  0  0  0
  8 10  1  0  0  0  0
  9 11  1  0  0  0  0
  9 12  1  0  0  0  0
 10 13  1  0  0  0  0
 10 14  1  0  0  0  0
 11 15  1  0  0  0  0
 11 16  1  0  0  0  0
 12 17  1  0  0  0  0
 13 18  2  0  0  0  0
 14 19  2  0  0  0  0
 15 20  2  0  0  0  0
 15 21  1  0  0  0  0
 16 22  1  0  0  0  0
 21 23  2  0  0  0  0
 21 24  1  0  0  0  0
 23 25  1  0  0  0  0
 23 26  1  0  0  0  0
 24 27  2  0  0  0  0
 25 28  1  0  0  0  0
 25 29  1  0  0  0  0
 26 30  2  0  0  0  0
 26 31  1  0  0  0  0
 28 32  2  0  0  0  0
 29 33  2  0  0  0  0
  7  8  1  0  0  0  0
 17 22  1  0  0  0  0
 18 19  1  0  0  0  0
 27 30  1  0  0  0  0
 32 33  1  0  0  0  0
M  END
>  <MolRegNo>
2164127

>  <m>
=

>  <Value>
18000

>  <Unit>
nM

>  <Type>
IC50

>  <pValue>
4.75

>  <Ligand Efficiency>
0.2

>  <Binding Efficiency>
10.23

>  <Surface Efficiency>
5.22

>  <Assay Index>
1058329

>  <Assay Category>


>  <Assay Organism>
Homo sapiens

>  <Target ID>
17045

>  <Target Name>
Cytochrome P450 3A4

>  <Target Organism>
Homo sapiens

>  <Target Description>
Target is a single protein chain

>  <Sequence Accession>
P08684

>  <Reference>


>  <Pubmed ID>


>  <DOI>


$$$$
2172394
Actelion Java MolfileCreator 1.0

 33 37  0  0  1  0  0  0  0  0999 V2000
    0.0000   -0.0000   -0.0000 O   0  0  0  0  0  0  0  0  0  0  0  0
    1.0445    0.6243   -0.0000 C   0  0  0  0  0  0  0  0  0  0  0  0
    1.0325    2.1611   -0.0000 N   0  0  0  0  0  0  0  0  0  0  0  0
    2.3532   -0.1321   -0.0000 C   0  0  0  0  0  0  0  0  0  0  0  0
   -0.3002    2.9415   -0.0000 C   0  0  0  0  0  0  0  0  0  0  0  0
    2.3412    2.9295   -0.0000 C   0  0  0  0  0  0  0  0  0  0  0  0
    2.3412   -1.6449   -0.0000 C   0  0  0  0  0  0  0  0  0  0  0  0
    3.6619    0.6363   -0.0000 C   0  0  0  0  0  0  0  0  0  0  0  0
   -0.3122    4.4783   -0.0000 C   0  0  0  0  0  0  0  0  0  0  0  0
   -1.6329    2.1971   -0.0000 C   0  0  0  0  0  0  0  0  0  0  0  0
    2.3292    4.4663   -0.0000 C   0  0  0  0  0  0  0  0  0  0  0  0
    1.0085   -2.3892   -0.0000 N   0  0  0  0  0  0  0  0  0  0  0  0
    3.6499   -2.3892   -0.0000 C   0  0  0  0  0  0  0  0  0  0  0  0
    4.9706   -0.1081   -0.0000 C   0  0  0  0  0  0  0  0  0  0  0  0
    0.9965    5.2467   -0.0000 O   0  0  0  0  0  0  0  0  0  0  0  0
   -2.9656    2.9776   -0.0000 C   0  0  0  0  0  0  0  0  0  0  0  0
   -0.3722   -1.7529   -0.0000 N   0  0  0  0  0  0  0  0  0  0  0  0
    0.8645   -3.8780   -0.0000 N   0  0  0  0  0  0  0  0  0  0  0  0
    4.9586   -1.6208   -0.0000 C   0  0  0  0  0  0  0  0  0  0  0  0
   -4.2982    2.2332   -0.0000 C   0  0  0  0  0  0  0  0  0  0  0  0
   -2.9656    4.5144   -0.0000 C   0  0  0  0  0  0  0  0  0  0  0  0
   -1.4047   -2.8695   -0.0000 C   0  0  0  0  0  0  0  0  0  0  0  0
   -0.6363   -4.1902   -0.0000 C   0  0  0  0  0  0  0  0  0  0  0  0
    6.0031   -2.2212   -0.0000 C   0  0  0  0  0  0  0  0  0  0  0  0
   -5.6189    3.0136   -0.0000 C   0  0  0  0  0  0  0  0  0  0  0  0
   -4.3223    1.0205   -0.0000 C   0  0  0  0  0  0  0  0  0  0  0  0
   -4.2862    5.2948   -0.0000 C   0  0  0  0  0  0  0  0  0  0  0  0
   -5.6189    4.5504   -0.0000 C   0  0  0  0  0  0  0  0  0  0  0  0
   -4.2862    6.8316   -0.0000 N   0  0  0  0  0  0  0  0  0  0  0  0
   -3.0616    7.7080   -0.0000 N   0  0  0  0  0  0  0  0  0  0  0  0
   -5.5229    7.7200   -0.0000 N   0  0  0  0  0  0  0  0  0  0  0  0
   -3.5419    9.1728   -0.0000 C   0  0  0  0  0  0  0  0  0  0  0  0
   -5.0546    9.1848   -0.0000 C   0  0  0  0  0  0  0  0  0  0  0  0
  1  2  2  0  0  0  0
  2  3  1  0  0  0  0
  2  4  1  0  0  0  0
  3  5  1  0  0  0  0
  3  6  1  0  0  0  0
  4  7  2  0  0  0  0
  4  8  1  0  0  0  0
  5  9  1  0  0  0  0
  5 10  1  6  0  0  0
  6 11  1  0  0  0  0
  7 12  1  0  0  0  0
  7 13  1  0  0  0  0
  8 14  2  0  0  0  0
  9 15  1  0  0  0  0
 10 16  1  0  0  0  0
 12 17  1  0  0  0  0
 12 18  1  0  0  0  0
 13 19  2  0  0  0  0
 16 20  2  0  0  0  0
 16 21  1  0  0  0  0
 17 22  2  0  0  0  0
 18 23  2  0  0  0  0
 19 24  1  0  0  0  0
 20 25  1  0  0  0  0
 20 26  1  0  0  0  0
 21 27  2  0  0  0  0
 25 28  2  0  0  0  0
 27 29  1  0  0  0  0
 29 30  1  0  0  0  0
 29 31  1  0  0  0  0
 30 32  2  0  0  0  0
 31 33  2  0  0  0  0
 11 15  1  0  0  0  0
 14 19  1  0  0  0  0
 22 23  1  0  0  0  0
 27 28  1  0  0  0  0
 32 33  1  0  0  0  0
M  END
>  <MolRegNo>
2172394

>  <m>
=

>  <Value>
27000

>  <Unit>
nM

>  <Type>
IC50

>  <pValue>
4.57

>  <Ligand Efficiency>
0.19

>  <Binding Efficiency>
10.3

>  <Surface Efficiency>
5.02

>  <Assay Index>
1058329

>  <Assay Category>


>  <Assay Organism>
Homo sapiens

>  <Target ID>
17045

>  <Target Name>
Cytochrome P450 3A4

>  <Target Organism>
Homo sapiens

>  <Target Description>
Target is a single protein chain

>  <Sequence Accession>
P08684

>  <Reference>


>  <Pubmed ID>


>  <DOI>


$$$$
2148881
Actelion Java MolfileCreator 1.0

 33 37  0  0  1  0  0  0  0  0999 V2000
    0.0000   -0.0000   -0.0000 O   0  0  0  0  0  0  0  0  0  0  0  0
   -1.0687   -0.5884   -0.0000 C   0  0  0  0  0  0  0  0  0  0  0  0
   -2.4016    0.1921   -0.0000 N   0  0  0  0  0  0  0  0  0  0  0  0
   -1.0927   -2.1014   -0.0000 C   0  0  0  0  0  0  0  0  0  0  0  0
   -2.4136    1.7292   -0.0000 C   0  0  0  0  0  0  0  0  0  0  0  0
   -3.7345   -0.5524   -0.0000 C   0  0  0  0  0  0  0  0  0  0  0  0
    0.2041   -2.8579   -0.0000 C   0  0  0  0  0  0  0  0  0  0  0  0
   -2.4256   -2.8459   -0.0000 C   0  0  0  0  0  0  0  0  0  0  0  0
   -3.7465    2.5097   -0.0000 C   0  0  0  0  0  0  0  0  0  0  0  0
   -1.1047    2.4977   -0.0000 C   0  0  0  0  0  0  0  0  0  0  0  0
   -5.0674    0.2282   -0.0000 C   0  0  0  0  0  0  0  0  0  0  0  0
    1.5130   -2.0894   -0.0000 N   0  0  0  0  0  0  0  0  0  0  0  0
    0.1801   -4.3710   -0.0000 C   0  0  0  0  0  0  0  0  0  0  0  0
   -2.4497   -4.3589   -0.0000 C   0  0  0  0  0  0  0  0  0  0  0  0
   -5.0794    1.7652   -0.0000 O   0  0  0  0  0  0  0  0  0  0  0  0
   -1.1168    4.0347   -0.0000 C   0  0  0  0  0  0  0  0  0  0  0  0
    1.6571   -0.5764   -0.0000 N   0  0  0  0  0  0  0  0  0  0  0  0
    2.8699   -2.7258   -0.0000 N   0  0  0  0  0  0  0  0  0  0  0  0
   -1.1528   -5.1155   -0.0000 C   0  0  0  0  0  0  0  0  0  0  0  0
    1.2248   -4.9714   -0.0000 C   0  0  0  0  0  0  0  0  0  0  0  0
    0.1921    4.8032   -0.0000 C   0  0  0  0  0  0  0  0  0  0  0  0
   -2.4497    4.8032   -0.0000 C   0  0  0  0  0  0  0  0  0  0  0  0
    3.1341   -0.2642   -0.0000 C   0  0  0  0  0  0  0  0  0  0  0  0
    3.8906   -1.5851   -0.0000 C   0  0  0  0  0  0  0  0  0  0  0  0
    0.1801    6.3403   -0.0000 C   0  0  0  0  0  0  0  0  0  0  0  0
    1.2368    4.2028   -0.0000 C   0  0  0  0  0  0  0  0  0  0  0  0
   -2.4617    6.3403   -0.0000 C   0  0  0  0  0  0  0  0  0  0  0  0
   -1.1528    7.1088   -0.0000 C   0  0  0  0  0  0  0  0  0  0  0  0
   -3.7946    7.1088   -0.0000 N   0  0  0  0  0  0  0  0  0  0  0  0
   -3.9507    8.6218   -0.0000 N   0  0  0  0  0  0  0  0  0  0  0  0
   -5.1755    6.4844   -0.0000 N   0  0  0  0  0  0  0  0  0  0  0  0
   -5.4517    8.9460   -0.0000 C   0  0  0  0  0  0  0  0  0  0  0  0
   -6.2082    7.6252   -0.0000 C   0  0  0  0  0  0  0  0  0  0  0  0
  1  2  2  0  0  0  0
  2  3  1  0  0  0  0
  2  4  1  0  0  0  0
  3  5  1  0  0  0  0
  3  6  1  0  0  0  0
  4  7  2  0  0  0  0
  4  8  1  0  0  0  0
  5  9  1  0  0  0  0
  5 10  1  1  0  0  0
  6 11  1  0  0  0  0
  7 12  1  0  0  0  0
  7 13  1  0  0  0  0
  8 14  2  0  0  0  0
  9 15  1  0  0  0  0
 10 16  1  0  0  0  0
 12 17  1  0  0  0  0
 12 18  1  0  0  0  0
 13 19  2  0  0  0  0
 13 20  1  0  0  0  0
 16 21  2  0  0  0  0
 16 22  1  0  0  0  0
 17 23  2  0  0  0  0
 18 24  2  0  0  0  0
 21 25  1  0  0  0  0
 21 26  1  0  0  0  0
 22 27  2  0  0  0  0
 25 28  2  0  0  0  0
 27 29  1  0  0  0  0
 29 30  1  0  0  0  0
 29 31  1  0  0  0  0
 30 32  2  0  0  0  0
 31 33  2  0  0  0  0
 11 15  1  0  0  0  0
 14 19  1  0  0  0  0
 23 24  1  0  0  0  0
 27 28  1  0  0  0  0
 32 33  1  0  0  0  0
M  END
>  <MolRegNo>
2148881

>  <m>
=

>  <Value>
22000

>  <Unit>
nM

>  <Type>
IC50

>  <pValue>
4.66

>  <Ligand Efficiency>
0.19

>  <Binding Efficiency>
10.5

>  <Surface Efficiency>
5.12

>  <Assay Index>
1058329

>  <Assay Category>


>  <Assay Organism>
Homo sapiens

>  <Target ID>
17045

>  <Target Name>
Cytochrome P450 3A4

>  <Target Organism>
Homo sapiens

>  <Target Description>
Target is a single protein chain

>  <Sequence Accession>
P08684

>  <Reference>


>  <Pubmed ID>


>  <DOI>


$$$$
2175198
Actelion Java MolfileCreator 1.0

 33 37  0  0  1  0  0  0  0  0999 V2000
    0.0000   -0.0000   -0.0000 Cl  0  0  0  0  0  0  0  0  0  0  0  0
    0.0000   -1.2179   -0.0000 C   0  0  0  0  0  0  0  0  0  0  0  0
    1.3144   -1.9655   -0.0000 C   0  0  0  0  0  0  0  0  0  0  0  0
   -1.3264   -1.9776   -0.0000 C   0  0  0  0  0  0  0  0  0  0  0  0
    1.3144   -3.4849   -0.0000 C   0  0  0  0  0  0  0  0  0  0  0  0
    2.6287   -1.1817   -0.0000 C   0  0  0  0  0  0  0  0  0  0  0  0
   -1.3264   -3.4969   -0.0000 C   0  0  0  0  0  0  0  0  0  0  0  0
   -0.0121   -4.2445   -0.0000 C   0  0  0  0  0  0  0  0  0  0  0  0
    3.9431   -1.9293   -0.0000 C   0  0  0  0  0  0  0  0  0  0  0  0
   -0.0121   -5.7639   -0.0000 N   0  0  0  0  0  0  0  0  0  0  0  0
    5.2574   -1.1455   -0.0000 N   0  0  0  0  0  0  0  0  0  0  0  0
    3.9310   -3.4487   -0.0000 C   0  0  0  0  0  0  0  0  0  0  0  0
    1.2179   -6.6200   -0.0000 N   0  0  0  0  0  0  0  0  0  0  0  0
   -1.2541   -6.6321   -0.0000 N   0  0  0  0  0  0  0  0  0  0  0  0
    5.2454    0.3979   -0.0000 C   0  0  0  0  0  0  0  0  0  0  0  0
    6.5718   -1.8932   -0.0000 C   0  0  0  0  0  0  0  0  0  0  0  0
    5.2454   -4.1963   -0.0000 O   0  0  0  0  0  0  0  0  0  0  0  0
    0.7356   -8.0670   -0.0000 C   0  0  0  0  0  0  0  0  0  0  0  0
   -0.7838   -8.0791   -0.0000 C   0  0  0  0  0  0  0  0  0  0  0  0
    4.1722    1.0250   -0.0000 O   0  0  0  0  0  0  0  0  0  0  0  0
    6.5597    1.1817   -0.0000 C   0  0  0  0  0  0  0  0  0  0  0  0
    6.5597   -3.4125   -0.0000 C   0  0  0  0  0  0  0  0  0  0  0  0
    6.5477    2.7252   -0.0000 C   0  0  0  0  0  0  0  0  0  0  0  0
    7.8741    0.4341   -0.0000 C   0  0  0  0  0  0  0  0  0  0  0  0
    5.2092    3.4969   -0.0000 N   0  0  0  0  0  0  0  0  0  0  0  0
    7.8620    3.4969   -0.0000 C   0  0  0  0  0  0  0  0  0  0  0  0
    9.1885    1.2058   -0.0000 C   0  0  0  0  0  0  0  0  0  0  0  0
    5.0524    5.0163   -0.0000 N   0  0  0  0  0  0  0  0  0  0  0  0
    3.8225    2.8699   -0.0000 N   0  0  0  0  0  0  0  0  0  0  0  0
    9.1764    2.7493   -0.0000 C   0  0  0  0  0  0  0  0  0  0  0  0
   10.2375    0.6029   -0.0000 C   0  0  0  0  0  0  0  0  0  0  0  0
    3.5452    5.3418   -0.0000 C   0  0  0  0  0  0  0  0  0  0  0  0
    2.7855    4.0154   -0.0000 C   0  0  0  0  0  0  0  0  0  0  0  0
  1  2  1  0  0  0  0
  2  3  2  0  0  0  0
  2  4  1  0  0  0  0
  3  5  1  0  0  0  0
  3  6  1  0  0  0  0
  4  7  2  0  0  0  0
  5  8  2  0  0  0  0
  9  6  1  1  0  0  0
  8 10  1  0  0  0  0
  9 11  1  0  0  0  0
  9 12  1  0  0  0  0
 10 13  1  0  0  0  0
 10 14  1  0  0  0  0
 11 15  1  0  0  0  0
 11 16  1  0  0  0  0
 12 17  1  0  0  0  0
 13 18  2  0  0  0  0
 14 19  2  0  0  0  0
 15 20  2  0  0  0  0
 15 21  1  0  0  0  0
 16 22  1  0  0  0  0
 21 23  2  0  0  0  0
 21 24  1  0  0  0  0
 23 25  1  0  0  0  0
 23 26  1  0  0  0  0
 24 27  2  0  0  0  0
 25 28  1  0  0  0  0
 25 29  1  0  0  0  0
 26 30  2  0  0  0  0
 27 31  1  0  0  0  0
 28 32  2  0  0  0  0
 29 33  2  0  0  0  0
  7  8  1  0  0  0  0
 17 22  1  0  0  0  0
 18 19  1  0  0  0  0
 27 30  1  0  0  0  0
 32 33  1  0  0  0  0
M  END
>  <MolRegNo>
2175198

>  <m>
=

>  <Value>
22000

>  <Unit>
nM

>  <Type>
IC50

>  <pValue>
4.66

>  <Ligand Efficiency>
0.19

>  <Binding Efficiency>
10.04

>  <Surface Efficiency>
5.12

>  <Assay Index>
1058329

>  <Assay Category>


>  <Assay Organism>
Homo sapiens

>  <Target ID>
17045

>  <Target Name>
Cytochrome P450 3A4

>  <Target Organism>
Homo sapiens

>  <Target Description>
Target is a single protein chain

>  <Sequence Accession>
P08684

>  <Reference>


>  <Pubmed ID>


>  <DOI>


$$$$
2159845
Actelion Java MolfileCreator 1.0

 32 36  0  0  1  0  0  0  0  0999 V2000
    0.0000   -0.0000   -0.0000 Cl  0  0  0  0  0  0  0  0  0  0  0  0
   -1.0640    0.6217   -0.0000 C   0  0  0  0  0  0  0  0  0  0  0  0
   -2.3910   -0.1195   -0.0000 C   0  0  0  0  0  0  0  0  0  0  0  0
   -1.0759    2.1519   -0.0000 C   0  0  0  0  0  0  0  0  0  0  0  0
   -3.7180    0.6456   -0.0000 C   0  0  0  0  0  0  0  0  0  0  0  0
   -2.4029   -1.6259   -0.0000 C   0  0  0  0  0  0  0  0  0  0  0  0
   -2.4029    2.9170   -0.0000 C   0  0  0  0  0  0  0  0  0  0  0  0
   -3.7299    2.1758   -0.0000 C   0  0  0  0  0  0  0  0  0  0  0  0
   -3.7299   -2.3671   -0.0000 C   0  0  0  0  0  0  0  0  0  0  0  0
   -5.0569    2.9409   -0.0000 N   0  0  0  0  0  0  0  0  0  0  0  0
   -3.7419   -3.8734   -0.0000 N   0  0  0  0  0  0  0  0  0  0  0  0
   -5.0569   -1.5900   -0.0000 C   0  0  0  0  0  0  0  0  0  0  0  0
   -5.2123    4.4472   -0.0000 N   0  0  0  0  0  0  0  0  0  0  0  0
   -6.4317    2.3192   -0.0000 N   0  0  0  0  0  0  0  0  0  0  0  0
   -2.4388   -4.6265   -0.0000 C   0  0  0  0  0  0  0  0  0  0  0  0
   -5.0688   -4.6146   -0.0000 C   0  0  0  0  0  0  0  0  0  0  0  0
   -6.3839   -2.3312   -0.0000 O   0  0  0  0  0  0  0  0  0  0  0  0
   -6.7067    4.7700   -0.0000 C   0  0  0  0  0  0  0  0  0  0  0  0
   -7.4598    3.4549   -0.0000 C   0  0  0  0  0  0  0  0  0  0  0  0
   -1.3987   -4.0168   -0.0000 O   0  0  0  0  0  0  0  0  0  0  0  0
   -2.4627   -6.1328   -0.0000 C   0  0  0  0  0  0  0  0  0  0  0  0
   -6.3958   -3.8375   -0.0000 C   0  0  0  0  0  0  0  0  0  0  0  0
   -1.1716   -6.8860   -0.0000 C   0  0  0  0  0  0  0  0  0  0  0  0
   -3.7897   -6.8740   -0.0000 C   0  0  0  0  0  0  0  0  0  0  0  0
    0.1315   -6.1209   -0.0000 N   0  0  0  0  0  0  0  0  0  0  0  0
   -1.1955   -8.3923   -0.0000 C   0  0  0  0  0  0  0  0  0  0  0  0
   -3.8136   -8.3803   -0.0000 C   0  0  0  0  0  0  0  0  0  0  0  0
    0.2750   -4.6146   -0.0000 N   0  0  0  0  0  0  0  0  0  0  0  0
    1.4824   -6.7545   -0.0000 N   0  0  0  0  0  0  0  0  0  0  0  0
   -2.5225   -9.1335   -0.0000 C   0  0  0  0  0  0  0  0  0  0  0  0
    1.7454   -4.3037   -0.0000 C   0  0  0  0  0  0  0  0  0  0  0  0
    2.4986   -5.6188   -0.0000 C   0  0  0  0  0  0  0  0  0  0  0  0
  1  2  1  0  0  0  0
  2  3  2  0  0  0  0
  2  4  1  0  0  0  0
  3  5  1  0  0  0  0
  3  6  1  0  0  0  0
  4  7  2  0  0  0  0
  5  8  2  0  0  0  0
  9  6  1  1  0  0  0
  8 10  1  0  0  0  0
  9 11  1  0  0  0  0
  9 12  1  0  0  0  0
 10 13  1  0  0  0  0
 10 14  1  0  0  0  0
 11 15  1  0  0  0  0
 11 16  1  0  0  0  0
 12 17  1  0  0  0  0
 13 18  2  0  0  0  0
 14 19  2  0  0  0  0
 15 20  2  0  0  0  0
 15 21  1  0  0  0  0
 16 22  1  0  0  0  0
 21 23  2  0  0  0  0
 21 24  1  0  0  0  0
 23 25  1  0  0  0  0
 23 26  1  0  0  0  0
 24 27  2  0  0  0  0
 25 28  1  0  0  0  0
 25 29  1  0  0  0  0
 26 30  2  0  0  0  0
 28 31  2  0  0  0  0
 29 32  2  0  0  0  0
  7  8  1  0  0  0  0
 17 22  1  0  0  0  0
 18 19  1  0  0  0  0
 27 30  1  0  0  0  0
 31 32  1  0  0  0  0
M  END
>  <MolRegNo>
2159845

>  <m>
=

>  <Value>
17000

>  <Unit>
nM

>  <Type>
IC50

>  <pValue>
4.77

>  <Ligand Efficiency>
0.2

>  <Binding Efficiency>
10.6

>  <Surface Efficiency>
5.24

>  <Assay Index>
1058329

>  <Assay Category>


>  <Assay Organism>
Homo sapiens

>  <Target ID>
17045

>  <Target Name>
Cytochrome P450 3A4

>  <Target Organism>
Homo sapiens

>  <Target Description>
Target is a single protein chain

>  <Sequence Accession>
P08684

>  <Reference>


>  <Pubmed ID>


>  <DOI>


$$$$
2186892
Actelion Java MolfileCreator 1.0

 33 37  0  0  1  0  0  0  0  0999 V2000
    0.0000   -0.0000   -0.0000 F   0  0  0  0  0  0  0  0  0  0  0  0
   -1.0680    0.6240   -0.0000 C   0  0  0  0  0  0  0  0  0  0  0  0
   -1.0680    2.1600   -0.0000 C   0  0  0  0  0  0  0  0  0  0  0  0
   -2.4000   -0.1200   -0.0000 C   0  0  0  0  0  0  0  0  0  0  0  0
   -2.3880    2.9400   -0.0000 C   0  0  0  0  0  0  0  0  0  0  0  0
    0.2400    2.9280   -0.0000 C   0  0  0  0  0  0  0  0  0  0  0  0
   -3.7200    0.6600   -0.0000 C   0  0  0  0  0  0  0  0  0  0  0  0
   -3.7200    2.1960   -0.0000 C   0  0  0  0  0  0  0  0  0  0  0  0
    0.2400    4.4640   -0.0000 C   0  0  0  0  0  0  0  0  0  0  0  0
   -5.0520    2.9760   -0.0000 N   0  0  0  0  0  0  0  0  0  0  0  0
    1.5480    5.2320   -0.0000 N   0  0  0  0  0  0  0  0  0  0  0  0
   -1.0920    5.2440   -0.0000 C   0  0  0  0  0  0  0  0  0  0  0  0
   -5.1960    4.4880   -0.0000 N   0  0  0  0  0  0  0  0  0  0  0  0
   -6.4440    2.3640   -0.0000 N   0  0  0  0  0  0  0  0  0  0  0  0
    2.8560    4.4760   -0.0000 C   0  0  0  0  0  0  0  0  0  0  0  0
    1.5360    6.7680   -0.0000 C   0  0  0  0  0  0  0  0  0  0  0  0
   -1.1040    6.7800   -0.0000 O   0  0  0  0  0  0  0  0  0  0  0  0
   -6.6960    4.8240   -0.0000 C   0  0  0  0  0  0  0  0  0  0  0  0
   -7.4640    3.5160   -0.0000 C   0  0  0  0  0  0  0  0  0  0  0  0
    2.8440    3.2640   -0.0000 O   0  0  0  0  0  0  0  0  0  0  0  0
    4.1640    5.2440   -0.0000 C   0  0  0  0  0  0  0  0  0  0  0  0
    0.2040    7.5480   -0.0000 C   0  0  0  0  0  0  0  0  0  0  0  0
    5.4720    4.5000   -0.0000 C   0  0  0  0  0  0  0  0  0  0  0  0
    4.1520    6.7800   -0.0000 C   0  0  0  0  0  0  0  0  0  0  0  0
    5.4600    2.9880   -0.0000 N   0  0  0  0  0  0  0  0  0  0  0  0
    6.7800    5.2680   -0.0000 C   0  0  0  0  0  0  0  0  0  0  0  0
    5.4600    7.5480   -0.0000 C   0  0  0  0  0  0  0  0  0  0  0  0
    4.2120    2.1240   -0.0000 N   0  0  0  0  0  0  0  0  0  0  0  0
    6.6840    2.1240   -0.0000 N   0  0  0  0  0  0  0  0  0  0  0  0
    6.7680    6.8040   -0.0000 C   0  0  0  0  0  0  0  0  0  0  0  0
    7.8240    4.6680   -0.0000 C   0  0  0  0  0  0  0  0  0  0  0  0
    4.6680    0.6840   -0.0000 C   0  0  0  0  0  0  0  0  0  0  0  0
    6.2040    0.6840   -0.0000 C   0  0  0  0  0  0  0  0  0  0  0  0
  1  2  1  0  0  0  0
  2  3  2  0  0  0  0
  2  4  1  0  0  0  0
  3  5  1  0  0  0  0
  3  6  1  0  0  0  0
  4  7  2  0  0  0  0
  5  8  2  0  0  0  0
  9  6  1  6  0  0  0
  8 10  1  0  0  0  0
  9 11  1  0  0  0  0
  9 12  1  0  0  0  0
 10 13  1  0  0  0  0
 10 14  1  0  0  0  0
 11 15  1  0  0  0  0
 11 16  1  0  0  0  0
 12 17  1  0  0  0  0
 13 18  2  0  0  0  0
 14 19  2  0  0  0  0
 15 20  2  0  0  0  0
 15 21  1  0  0  0  0
 16 22  1  0  0  0  0
 21 23  2  0  0  0  0
 21 24  1  0  0  0  0
 23 25  1  0  0  0  0
 23 26  1  0  0  0  0
 24 27  2  0  0  0  0
 25 28  1  0  0  0  0
 25 29  1  0  0  0  0
 26 30  2  0  0  0  0
 26 31  1  0  0  0  0
 28 32  2  0  0  0  0
 29 33  2  0  0  0  0
  7  8  1  0  0  0  0
 17 22  1  0  0  0  0
 18 19  1  0  0  0  0
 27 30  1  0  0  0  0
 32 33  1  0  0  0  0
M  END
>  <MolRegNo>
2186892

>  <m>
=

>  <Value>
30000

>  <Unit>
nM

>  <Type>
IC50

>  <pValue>
4.52

>  <Ligand Efficiency>
0.19

>  <Binding Efficiency>
10.11

>  <Surface Efficiency>
4.97

>  <Assay Index>
1058329

>  <Assay Category>


>  <Assay Organism>
Homo sapiens

>  <Target ID>
17045

>  <Target Name>
Cytochrome P450 3A4

>  <Target Organism>
Homo sapiens

>  <Target Description>
Target is a single protein chain

>  <Sequence Accession>
P08684

>  <Reference>


>  <Pubmed ID>


>  <DOI>


$$$$
2177512
Actelion Java MolfileCreator 1.0

 33 37  0  0  1  0  0  0  0  0999 V2000
    0.0000   -0.0000   -0.0000 Cl  0  0  0  0  0  0  0  0  0  0  0  0
    1.0438    0.6119   -0.0000 C   0  0  0  0  0  0  0  0  0  0  0  0
    1.0438    2.1475   -0.0000 C   0  0  0  0  0  0  0  0  0  0  0  0
    2.3394   -0.1440   -0.0000 C   0  0  0  0  0  0  0  0  0  0  0  0
    2.3514    2.9153   -0.0000 C   0  0  0  0  0  0  0  0  0  0  0  0
    3.6471    0.6239   -0.0000 C   0  0  0  0  0  0  0  0  0  0  0  0
    3.6471    2.1595   -0.0000 C   0  0  0  0  0  0  0  0  0  0  0  0
    2.3514    4.4509   -0.0000 C   0  0  0  0  0  0  0  0  0  0  0  0
    4.9548    2.9273   -0.0000 N   0  0  0  0  0  0  0  0  0  0  0  0
    3.3952    5.0628   -0.0000 O   0  0  0  0  0  0  0  0  0  0  0  0
    1.0198    5.2308   -0.0000 N   0  0  0  0  0  0  0  0  0  0  0  0
    5.0988    4.4389   -0.0000 N   0  0  0  0  0  0  0  0  0  0  0  0
    6.3105    2.2915   -0.0000 N   0  0  0  0  0  0  0  0  0  0  0  0
    1.0078    6.7664   -0.0000 C   0  0  0  0  0  0  0  0  0  0  0  0
   -0.3119    4.4869   -0.0000 C   0  0  0  0  0  0  0  0  0  0  0  0
    6.5744    4.7509   -0.0000 C   0  0  0  0  0  0  0  0  0  0  0  0
    7.3303    3.4312   -0.0000 C   0  0  0  0  0  0  0  0  0  0  0  0
   -0.3239    7.5462   -0.0000 C   0  0  0  0  0  0  0  0  0  0  0  0
    2.3155    7.5342   -0.0000 C   0  0  0  0  0  0  0  0  0  0  0  0
   -1.6436    5.2668   -0.0000 C   0  0  0  0  0  0  0  0  0  0  0  0
   -1.6556    6.8024   -0.0000 O   0  0  0  0  0  0  0  0  0  0  0  0
    2.3035    9.0699   -0.0000 C   0  0  0  0  0  0  0  0  0  0  0  0
    3.6111    9.8377   -0.0000 C   0  0  0  0  0  0  0  0  0  0  0  0
    0.9718    9.8377   -0.0000 C   0  0  0  0  0  0  0  0  0  0  0  0
    4.6549    9.2378   -0.0000 F   0  0  0  0  0  0  0  0  0  0  0  0
    3.5991   11.3733   -0.0000 C   0  0  0  0  0  0  0  0  0  0  0  0
    0.9598   11.3733   -0.0000 C   0  0  0  0  0  0  0  0  0  0  0  0
    2.2675   12.1411   -0.0000 C   0  0  0  0  0  0  0  0  0  0  0  0
   -0.3719   12.1411   -0.0000 N   0  0  0  0  0  0  0  0  0  0  0  0
   -0.5279   13.6528   -0.0000 N   0  0  0  0  0  0  0  0  0  0  0  0
   -1.7516   11.5173   -0.0000 N   0  0  0  0  0  0  0  0  0  0  0  0
   -2.0275   13.9767   -0.0000 C   0  0  0  0  0  0  0  0  0  0  0  0
   -2.7833   12.6570   -0.0000 C   0  0  0  0  0  0  0  0  0  0  0  0
  1  2  1  0  0  0  0
  2  3  2  0  0  0  0
  2  4  1  0  0  0  0
  3  5  1  0  0  0  0
  4  6  2  0  0  0  0
  5  7  2  0  0  0  0
  5  8  1  0  0  0  0
  7  9  1  0  0  0  0
  8 10  2  0  0  0  0
  8 11  1  0  0  0  0
  9 12  1  0  0  0  0
  9 13  1  0  0  0  0
 11 14  1  0  0  0  0
 11 15  1  0  0  0  0
 12 16  2  0  0  0  0
 13 17  2  0  0  0  0
 14 18  1  0  0  0  0
 14 19  1  1  0  0  0
 15 20  1  0  0  0  0
 18 21  1  0  0  0  0
 19 22  1  0  0  0  0
 22 23  2  0  0  0  0
 22 24  1  0  0  0  0
 23 25  1  0  0  0  0
 23 26  1  0  0  0  0
 24 27  2  0  0  0  0
 26 28  2  0  0  0  0
 27 29  1  0  0  0  0
 29 30  1  0  0  0  0
 29 31  1  0  0  0  0
 30 32  2  0  0  0  0
 31 33  2  0  0  0  0
  6  7  1  0  0  0  0
 16 17  1  0  0  0  0
 20 21  1  0  0  0  0
 27 28  1  0  0  0  0
 32 33  1  0  0  0  0
M  END
>  <MolRegNo>
2177512

>  <m>
=

>  <Value>
26000

>  <Unit>
nM

>  <Type>
IC50

>  <pValue>
4.58

>  <Ligand Efficiency>
0.19

>  <Binding Efficiency>
9.8

>  <Surface Efficiency>
5.04

>  <Assay Index>
1058329

>  <Assay Category>


>  <Assay Organism>
Homo sapiens

>  <Target ID>
17045

>  <Target Name>
Cytochrome P450 3A4

>  <Target Organism>
Homo sapiens

>  <Target Description>
Target is a single protein chain

>  <Sequence Accession>
P08684

>  <Reference>


>  <Pubmed ID>


>  <DOI>


$$$$
2122045
Actelion Java MolfileCreator 1.0

 33 37  0  0  1  0  0  0  0  0999 V2000
    0.0000   -0.0000   -0.0000 Cl  0  0  0  0  0  0  0  0  0  0  0  0
    0.0000    1.2337   -0.0000 C   0  0  0  0  0  0  0  0  0  0  0  0
    1.3055    2.0002   -0.0000 C   0  0  0  0  0  0  0  0  0  0  0  0
   -1.3175    2.0122   -0.0000 C   0  0  0  0  0  0  0  0  0  0  0  0
    1.3055    3.5333   -0.0000 C   0  0  0  0  0  0  0  0  0  0  0  0
   -1.3175    3.5453   -0.0000 C   0  0  0  0  0  0  0  0  0  0  0  0
    2.6111    4.2999   -0.0000 N   0  0  0  0  0  0  0  0  0  0  0  0
   -0.0120    4.3119   -0.0000 C   0  0  0  0  0  0  0  0  0  0  0  0
    2.7548    5.8090   -0.0000 N   0  0  0  0  0  0  0  0  0  0  0  0
    3.9645    3.6651   -0.0000 N   0  0  0  0  0  0  0  0  0  0  0  0
   -0.0120    5.8450   -0.0000 C   0  0  0  0  0  0  0  0  0  0  0  0
    4.2280    6.1205   -0.0000 C   0  0  0  0  0  0  0  0  0  0  0  0
    4.9826    4.8029   -0.0000 C   0  0  0  0  0  0  0  0  0  0  0  0
    1.0301    6.4558   -0.0000 O   0  0  0  0  0  0  0  0  0  0  0  0
   -1.3415    6.6235   -0.0000 N   0  0  0  0  0  0  0  0  0  0  0  0
   -1.3534    8.1566   -0.0000 C   0  0  0  0  0  0  0  0  0  0  0  0
   -2.6710    5.8809   -0.0000 C   0  0  0  0  0  0  0  0  0  0  0  0
   -2.6829    8.9351   -0.0000 C   0  0  0  0  0  0  0  0  0  0  0  0
   -0.0479    8.9232   -0.0000 C   0  0  0  0  0  0  0  0  0  0  0  0
   -4.0005    6.6594   -0.0000 C   0  0  0  0  0  0  0  0  0  0  0  0
   -4.0124    8.1925   -0.0000 O   0  0  0  0  0  0  0  0  0  0  0  0
   -0.0599   10.4563   -0.0000 C   0  0  0  0  0  0  0  0  0  0  0  0
    1.2457   11.2228   -0.0000 C   0  0  0  0  0  0  0  0  0  0  0  0
   -1.3894   11.2228   -0.0000 C   0  0  0  0  0  0  0  0  0  0  0  0
    2.2877   10.6240   -0.0000 F   0  0  0  0  0  0  0  0  0  0  0  0
    1.2337   12.7559   -0.0000 C   0  0  0  0  0  0  0  0  0  0  0  0
   -1.4014   12.7559   -0.0000 C   0  0  0  0  0  0  0  0  0  0  0  0
   -0.0958   13.5225   -0.0000 C   0  0  0  0  0  0  0  0  0  0  0  0
   -2.7308   13.5225   -0.0000 N   0  0  0  0  0  0  0  0  0  0  0  0
   -2.8866   15.0317   -0.0000 N   0  0  0  0  0  0  0  0  0  0  0  0
   -4.1083   12.8997   -0.0000 N   0  0  0  0  0  0  0  0  0  0  0  0
   -4.3837   15.3550   -0.0000 C   0  0  0  0  0  0  0  0  0  0  0  0
   -5.1383   14.0375   -0.0000 C   0  0  0  0  0  0  0  0  0  0  0  0
  1  2  1  0  0  0  0
  2  3  2  0  0  0  0
  2  4  1  0  0  0  0
  3  5  1  0  0  0  0
  4  6  2  0  0  0  0
  5  7  1  0  0  0  0
  5  8  2  0  0  0  0
  7  9  1  0  0  0  0
  7 10  1  0  0  0  0
  8 11  1  0  0  0  0
  9 12  2  0  0  0  0
 10 13  2  0  0  0  0
 11 14  2  0  0  0  0
 11 15  1  0  0  0  0
 15 16  1  0  0  0  0
 15 17  1  0  0  0  0
 16 18  1  0  0  0  0
 16 19  1  1  0  0  0
 17 20  1  0  0  0  0
 18 21  1  0  0  0  0
 19 22  1  0  0  0  0
 22 23  2  0  0  0  0
 22 24  1  0  0  0  0
 23 25  1  0  0  0  0
 23 26  1  0  0  0  0
 24 27  2  0  0  0  0
 26 28  2  0  0  0  0
 27 29  1  0  0  0  0
 29 30  1  0  0  0  0
 29 31  1  0  0  0  0
 30 32  2  0  0  0  0
 31 33  2  0  0  0  0
  6  8  1  0  0  0  0
 12 13  1  0  0  0  0
 20 21  1  0  0  0  0
 27 28  1  0  0  0  0
 32 33  1  0  0  0  0
M  END
>  <MolRegNo>
2122045

>  <m>
=

>  <Value>
20000

>  <Unit>
nM

>  <Type>
IC50

>  <pValue>
4.7

>  <Ligand Efficiency>
0.19

>  <Binding Efficiency>
10.04

>  <Surface Efficiency>
5.17

>  <Assay Index>
1058329

>  <Assay Category>


>  <Assay Organism>
Homo sapiens

>  <Target ID>
17045

>  <Target Name>
Cytochrome P450 3A4

>  <Target Organism>
Homo sapiens

>  <Target Description>
Target is a single protein chain

>  <Sequence Accession>
P08684

>  <Reference>


>  <Pubmed ID>


>  <DOI>


$$$$
2166991
Actelion Java MolfileCreator 1.0

 34 38  0  0  1  0  0  0  0  0999 V2000
    0.0000   -0.0000   -0.0000 F   0  0  0  0  0  0  0  0  0  0  0  0
    0.0000   -1.2173   -0.0000 C   0  0  0  0  0  0  0  0  0  0  0  0
    1.3138   -1.9646   -0.0000 C   0  0  0  0  0  0  0  0  0  0  0  0
   -1.3258   -1.9767   -0.0000 C   0  0  0  0  0  0  0  0  0  0  0  0
    1.3138   -3.4833   -0.0000 C   0  0  0  0  0  0  0  0  0  0  0  0
    2.6275   -1.1812   -0.0000 C   0  0  0  0  0  0  0  0  0  0  0  0
   -1.3258   -3.4953   -0.0000 C   0  0  0  0  0  0  0  0  0  0  0  0
   -0.0121   -4.2426   -0.0000 C   0  0  0  0  0  0  0  0  0  0  0  0
    3.9413   -1.9285   -0.0000 C   0  0  0  0  0  0  0  0  0  0  0  0
   -0.0121   -5.7613   -0.0000 N   0  0  0  0  0  0  0  0  0  0  0  0
    5.2550   -1.1450   -0.0000 N   0  0  0  0  0  0  0  0  0  0  0  0
    3.9292   -3.4471   -0.0000 C   0  0  0  0  0  0  0  0  0  0  0  0
    1.2173   -6.6170   -0.0000 N   0  0  0  0  0  0  0  0  0  0  0  0
   -1.2535   -6.6291   -0.0000 N   0  0  0  0  0  0  0  0  0  0  0  0
    5.2430    0.3977   -0.0000 C   0  0  0  0  0  0  0  0  0  0  0  0
    6.5688   -1.8923   -0.0000 C   0  0  0  0  0  0  0  0  0  0  0  0
    5.2430   -4.1944   -0.0000 O   0  0  0  0  0  0  0  0  0  0  0  0
    0.7352   -8.0633   -0.0000 C   0  0  0  0  0  0  0  0  0  0  0  0
   -0.7834   -8.0754   -0.0000 C   0  0  0  0  0  0  0  0  0  0  0  0
    4.1703    1.0245   -0.0000 O   0  0  0  0  0  0  0  0  0  0  0  0
    6.5567    1.1812   -0.0000 C   0  0  0  0  0  0  0  0  0  0  0  0
    6.5567   -3.4110   -0.0000 C   0  0  0  0  0  0  0  0  0  0  0  0
    6.5447    2.7239   -0.0000 C   0  0  0  0  0  0  0  0  0  0  0  0
    7.8705    0.4339   -0.0000 C   0  0  0  0  0  0  0  0  0  0  0  0
    5.2068    3.4953   -0.0000 N   0  0  0  0  0  0  0  0  0  0  0  0
    7.8584    3.4953   -0.0000 C   0  0  0  0  0  0  0  0  0  0  0  0
    9.1843    1.2053   -0.0000 C   0  0  0  0  0  0  0  0  0  0  0  0
    5.0501    5.0140   -0.0000 N   0  0  0  0  0  0  0  0  0  0  0  0
    3.8207    2.8686   -0.0000 N   0  0  0  0  0  0  0  0  0  0  0  0
    9.1722    2.7480   -0.0000 C   0  0  0  0  0  0  0  0  0  0  0  0
   10.4980    0.4460   -0.0000 O   0  0  0  0  0  0  0  0  0  0  0  0
    3.5435    5.3394   -0.0000 C   0  0  0  0  0  0  0  0  0  0  0  0
    2.7842    4.0136   -0.0000 C   0  0  0  0  0  0  0  0  0  0  0  0
   10.4860   -0.7714   -0.0000 C   0  0  0  0  0  0  0  0  0  0  0  0
  1  2  1  0  0  0  0
  2  3  2  0  0  0  0
  2  4  1  0  0  0  0
  3  5  1  0  0  0  0
  3  6  1  0  0  0  0
  4  7  2  0  0  0  0
  5  8  2  0  0  0  0
  9  6  1  1  0  0  0
  8 10  1  0  0  0  0
  9 11  1  0  0  0  0
  9 12  1  0  0  0  0
 10 13  1  0  0  0  0
 10 14  1  0  0  0  0
 11 15  1  0  0  0  0
 11 16  1  0  0  0  0
 12 17  1  0  0  0  0
 13 18  2  0  0  0  0
 14 19  2  0  0  0  0
 15 20  2  0  0  0  0
 15 21  1  0  0  0  0
 16 22  1  0  0  0  0
 21 23  2  0  0  0  0
 21 24  1  0  0  0  0
 23 25  1  0  0  0  0
 23 26  1  0  0  0  0
 24 27  2  0  0  0  0
 25 28  1  0  0  0  0
 25 29  1  0  0  0  0
 26 30  2  0  0  0  0
 27 31  1  0  0  0  0
 28 32  2  0  0  0  0
 29 33  2  0  0  0  0
 31 34  1  0  0  0  0
  7  8  1  0  0  0  0
 17 22  1  0  0  0  0
 18 19  1  0  0  0  0
 27 30  1  0  0  0  0
 32 33  1  0  0  0  0
M  END
>  <MolRegNo>
2166991

>  <m>
=

>  <Value>
35000

>  <Unit>
nM

>  <Type>
IC50

>  <pValue>
4.46

>  <Ligand Efficiency>
0.18

>  <Binding Efficiency>
9.61

>  <Surface Efficiency>
4.45

>  <Assay Index>
1058329

>  <Assay Category>


>  <Assay Organism>
Homo sapiens

>  <Target ID>
17045

>  <Target Name>
Cytochrome P450 3A4

>  <Target Organism>
Homo sapiens

>  <Target Description>
Target is a single protein chain

>  <Sequence Accession>
P08684

>  <Reference>


>  <Pubmed ID>


>  <DOI>


$$$$
2116564
Actelion Java MolfileCreator 1.0

 34 38  0  0  1  0  0  0  0  0999 V2000
    0.0000   -0.0000   -0.0000 F   0  0  0  0  0  0  0  0  0  0  0  0
   -0.0121    1.2433   -0.0000 C   0  0  0  0  0  0  0  0  0  0  0  0
   -1.3519    2.0158   -0.0000 C   0  0  0  0  0  0  0  0  0  0  0  0
    1.3036    2.0158   -0.0000 C   0  0  0  0  0  0  0  0  0  0  0  0
   -1.3640    3.5609   -0.0000 C   0  0  0  0  0  0  0  0  0  0  0  0
   -2.6918    1.2554   -0.0000 C   0  0  0  0  0  0  0  0  0  0  0  0
    1.2916    3.5609   -0.0000 C   0  0  0  0  0  0  0  0  0  0  0  0
    2.3538    1.4123   -0.0000 C   0  0  0  0  0  0  0  0  0  0  0  0
   -2.7038    4.3334   -0.0000 N   0  0  0  0  0  0  0  0  0  0  0  0
   -0.0483    4.3334   -0.0000 C   0  0  0  0  0  0  0  0  0  0  0  0
   -3.7661    1.8830   -0.0000 O   0  0  0  0  0  0  0  0  0  0  0  0
   -2.7038   -0.2656   -0.0000 N   0  0  0  0  0  0  0  0  0  0  0  0
   -2.8608    5.8543   -0.0000 N   0  0  0  0  0  0  0  0  0  0  0  0
   -4.0920    3.7057   -0.0000 N   0  0  0  0  0  0  0  0  0  0  0  0
   -4.0437   -1.0260   -0.0000 C   0  0  0  0  0  0  0  0  0  0  0  0
   -1.3881   -1.0139   -0.0000 C   0  0  0  0  0  0  0  0  0  0  0  0
   -4.3696    6.1802   -0.0000 C   0  0  0  0  0  0  0  0  0  0  0  0
   -5.1300    4.8524   -0.0000 C   0  0  0  0  0  0  0  0  0  0  0  0
   -4.0557   -2.5469   -0.0000 C   0  0  0  0  0  0  0  0  0  0  0  0
   -5.3835   -0.2535   -0.0000 C   0  0  0  0  0  0  0  0  0  0  0  0
   -1.4002   -2.5348   -0.0000 C   0  0  0  0  0  0  0  0  0  0  0  0
   -2.7400   -3.2953   -0.0000 O   0  0  0  0  0  0  0  0  0  0  0  0
   -6.7234   -1.0139   -0.0000 C   0  0  0  0  0  0  0  0  0  0  0  0
   -8.0632   -0.2414   -0.0000 C   0  0  0  0  0  0  0  0  0  0  0  0
   -6.7234   -2.5348   -0.0000 C   0  0  0  0  0  0  0  0  0  0  0  0
   -8.0874    1.0019   -0.0000 F   0  0  0  0  0  0  0  0  0  0  0  0
   -9.3910   -1.0019   -0.0000 C   0  0  0  0  0  0  0  0  0  0  0  0
   -8.0511   -3.2953   -0.0000 C   0  0  0  0  0  0  0  0  0  0  0  0
   -9.3910   -2.5228   -0.0000 C   0  0  0  0  0  0  0  0  0  0  0  0
   -8.0511   -4.8162   -0.0000 N   0  0  0  0  0  0  0  0  0  0  0  0
   -6.8199   -5.6732   -0.0000 N   0  0  0  0  0  0  0  0  0  0  0  0
   -9.2944   -5.6853   -0.0000 N   0  0  0  0  0  0  0  0  0  0  0  0
   -7.3028   -7.1217   -0.0000 C   0  0  0  0  0  0  0  0  0  0  0  0
   -8.8237   -7.1338   -0.0000 C   0  0  0  0  0  0  0  0  0  0  0  0
  1  2  1  0  0  0  0
  2  3  2  0  0  0  0
  2  4  1  0  0  0  0
  3  5  1  0  0  0  0
  3  6  1  0  0  0  0
  4  7  2  0  0  0  0
  4  8  1  0  0  0  0
  5  9  1  0  0  0  0
  5 10  2  0  0  0  0
  6 11  2  0  0  0  0
  6 12  1  0  0  0  0
  9 13  1  0  0  0  0
  9 14  1  0  0  0  0
 12 15  1  0  0  0  0
 12 16  1  0  0  0  0
 13 17  2  0  0  0  0
 14 18  2  0  0  0  0
 15 19  1  0  0  0  0
 15 20  1  1  0  0  0
 16 21  1  0  0  0  0
 19 22  1  0  0  0  0
 20 23  1  0  0  0  0
 23 24  2  0  0  0  0
 23 25  1  0  0  0  0
 24 26  1  0  0  0  0
 24 27  1  0  0  0  0
 25 28  2  0  0  0  0
 27 29  2  0  0  0  0
 28 30  1  0  0  0  0
 30 31  1  0  0  0  0
 30 32  1  0  0  0  0
 31 33  2  0  0  0  0
 32 34  2  0  0  0  0
  7 10  1  0  0  0  0
 17 18  1  0  0  0  0
 21 22  1  0  0  0  0
 28 29  1  0  0  0  0
 33 34  1  0  0  0  0
M  END
>  <MolRegNo>
2116564

>  <m>
=

>  <Value>
19000

>  <Unit>
nM

>  <Type>
IC50

>  <pValue>
4.72

>  <Ligand Efficiency>
0.19

>  <Binding Efficiency>
10.14

>  <Surface Efficiency>
5.19

>  <Assay Index>
1058329

>  <Assay Category>


>  <Assay Organism>
Homo sapiens

>  <Target ID>
17045

>  <Target Name>
Cytochrome P450 3A4

>  <Target Organism>
Homo sapiens

>  <Target Description>
Target is a single protein chain

>  <Sequence Accession>
P08684

>  <Reference>


>  <Pubmed ID>


>  <DOI>


$$$$
2183953
Actelion Java MolfileCreator 1.0

 35 39  0  0  1  0  0  0  0  0999 V2000
    0.0000   -0.0000   -0.0000 F   0  0  0  0  0  0  0  0  0  0  0  0
   -0.0121    1.2427   -0.0000 C   0  0  0  0  0  0  0  0  0  0  0  0
   -1.3513    2.0149   -0.0000 C   0  0  0  0  0  0  0  0  0  0  0  0
    1.3031    2.0149   -0.0000 C   0  0  0  0  0  0  0  0  0  0  0  0
   -1.3634    3.5593   -0.0000 C   0  0  0  0  0  0  0  0  0  0  0  0
   -2.6906    1.2548   -0.0000 C   0  0  0  0  0  0  0  0  0  0  0  0
    2.6182    1.2669   -0.0000 O   0  0  0  0  0  0  0  0  0  0  0  0
    1.2910    3.5593   -0.0000 C   0  0  0  0  0  0  0  0  0  0  0  0
   -2.7026    4.3315   -0.0000 N   0  0  0  0  0  0  0  0  0  0  0  0
   -0.0483    4.3315   -0.0000 C   0  0  0  0  0  0  0  0  0  0  0  0
   -3.7644    1.8822   -0.0000 O   0  0  0  0  0  0  0  0  0  0  0  0
   -2.7026   -0.2654   -0.0000 N   0  0  0  0  0  0  0  0  0  0  0  0
    3.6679    1.8943   -0.0000 C   0  0  0  0  0  0  0  0  0  0  0  0
   -2.8595    5.8517   -0.0000 N   0  0  0  0  0  0  0  0  0  0  0  0
   -4.0902    3.7041   -0.0000 N   0  0  0  0  0  0  0  0  0  0  0  0
   -4.0419   -1.0256   -0.0000 C   0  0  0  0  0  0  0  0  0  0  0  0
   -1.3875   -1.0135   -0.0000 C   0  0  0  0  0  0  0  0  0  0  0  0
   -4.3677    6.1775   -0.0000 C   0  0  0  0  0  0  0  0  0  0  0  0
   -5.1278    4.8503   -0.0000 C   0  0  0  0  0  0  0  0  0  0  0  0
   -4.0540   -2.5458   -0.0000 C   0  0  0  0  0  0  0  0  0  0  0  0
   -5.3811   -0.2534   -0.0000 C   0  0  0  0  0  0  0  0  0  0  0  0
   -1.3996   -2.5337   -0.0000 C   0  0  0  0  0  0  0  0  0  0  0  0
   -2.7388   -3.2938   -0.0000 O   0  0  0  0  0  0  0  0  0  0  0  0
   -6.7204   -1.0135   -0.0000 C   0  0  0  0  0  0  0  0  0  0  0  0
   -8.0597   -0.2413   -0.0000 C   0  0  0  0  0  0  0  0  0  0  0  0
   -6.7204   -2.5337   -0.0000 C   0  0  0  0  0  0  0  0  0  0  0  0
   -8.0838    1.0014   -0.0000 F   0  0  0  0  0  0  0  0  0  0  0  0
   -9.3868   -1.0014   -0.0000 C   0  0  0  0  0  0  0  0  0  0  0  0
   -8.0476   -3.2938   -0.0000 C   0  0  0  0  0  0  0  0  0  0  0  0
   -9.3868   -2.5217   -0.0000 C   0  0  0  0  0  0  0  0  0  0  0  0
   -8.0476   -4.8141   -0.0000 N   0  0  0  0  0  0  0  0  0  0  0  0
   -6.8169   -5.6707   -0.0000 N   0  0  0  0  0  0  0  0  0  0  0  0
   -9.2903   -5.6828   -0.0000 N   0  0  0  0  0  0  0  0  0  0  0  0
   -7.2995   -7.1186   -0.0000 C   0  0  0  0  0  0  0  0  0  0  0  0
   -8.8198   -7.1306   -0.0000 C   0  0  0  0  0  0  0  0  0  0  0  0
  1  2  1  0  0  0  0
  2  3  2  0  0  0  0
  2  4  1  0  0  0  0
  3  5  1  0  0  0  0
  3  6  1  0  0  0  0
  4  7  1  0  0  0  0
  4  8  2  0  0  0  0
  5  9  1  0  0  0  0
  5 10  2  0  0  0  0
  6 11  2  0  0  0  0
  6 12  1  0  0  0  0
  7 13  1  0  0  0  0
  9 14  1  0  0  0  0
  9 15  1  0  0  0  0
 12 16  1  0  0  0  0
 12 17  1  0  0  0  0
 14 18  2  0  0  0  0
 15 19  2  0  0  0  0
 16 20  1  0  0  0  0
 16 21  1  1  0  0  0
 17 22  1  0  0  0  0
 20 23  1  0  0  0  0
 21 24  1  0  0  0  0
 24 25  2  0  0  0  0
 24 26  1  0  0  0  0
 25 27  1  0  0  0  0
 25 28  1  0  0  0  0
 26 29  2  0  0  0  0
 28 30  2  0  0  0  0
 29 31  1  0  0  0  0
 31 32  1  0  0  0  0
 31 33  1  0  0  0  0
 32 34  2  0  0  0  0
 33 35  2  0  0  0  0
  8 10  1  0  0  0  0
 18 19  1  0  0  0  0
 22 23  1  0  0  0  0
 29 30  1  0  0  0  0
 34 35  1  0  0  0  0
M  END
>  <MolRegNo>
2183953

>  <m>
=

>  <Value>
37000

>  <Unit>
nM

>  <Type>
IC50

>  <pValue>
4.43

>  <Ligand Efficiency>
0.17

>  <Binding Efficiency>
9.2

>  <Surface Efficiency>
4.42

>  <Assay Index>
1058329

>  <Assay Category>


>  <Assay Organism>
Homo sapiens

>  <Target ID>
17045

>  <Target Name>
Cytochrome P450 3A4

>  <Target Organism>
Homo sapiens

>  <Target Description>
Target is a single protein chain

>  <Sequence Accession>
P08684

>  <Reference>


>  <Pubmed ID>


>  <DOI>


$$$$
2111662
Actelion Java MolfileCreator 1.0

 35 39  0  0  1  0  0  0  0  0999 V2000
    0.0000   -0.0000   -0.0000 F   0  0  0  0  0  0  0  0  0  0  0  0
    1.0538    0.6177   -0.0000 C   0  0  0  0  0  0  0  0  0  0  0  0
    2.3619   -0.1453   -0.0000 C   0  0  0  0  0  0  0  0  0  0  0  0
    1.0538    2.1681   -0.0000 C   0  0  0  0  0  0  0  0  0  0  0  0
    3.6821    0.6298   -0.0000 C   0  0  0  0  0  0  0  0  0  0  0  0
    2.3376   -1.6715   -0.0000 C   0  0  0  0  0  0  0  0  0  0  0  0
    2.3740    2.9432   -0.0000 C   0  0  0  0  0  0  0  0  0  0  0  0
    3.6821    2.1802   -0.0000 C   0  0  0  0  0  0  0  0  0  0  0  0
    3.6579   -2.4345   -0.0000 C   0  0  0  0  0  0  0  0  0  0  0  0
    5.0023    2.9554   -0.0000 N   0  0  0  0  0  0  0  0  0  0  0  0
    3.6458   -3.9607   -0.0000 N   0  0  0  0  0  0  0  0  0  0  0  0
    4.9781   -1.6594   -0.0000 C   0  0  0  0  0  0  0  0  0  0  0  0
    6.3710    2.3255   -0.0000 N   0  0  0  0  0  0  0  0  0  0  0  0
    5.1355    4.4815   -0.0000 N   0  0  0  0  0  0  0  0  0  0  0  0
    2.3013   -4.7116   -0.0000 C   0  0  0  0  0  0  0  0  0  0  0  0
    4.9660   -4.7237   -0.0000 C   0  0  0  0  0  0  0  0  0  0  0  0
    6.2983   -2.4224   -0.0000 O   0  0  0  0  0  0  0  0  0  0  0  0
    7.3884    3.4762   -0.0000 C   0  0  0  0  0  0  0  0  0  0  0  0
    6.6253    4.8085   -0.0000 C   0  0  0  0  0  0  0  0  0  0  0  0
    1.2233   -4.0818   -0.0000 O   0  0  0  0  0  0  0  0  0  0  0  0
    2.2892   -6.2377   -0.0000 C   0  0  0  0  0  0  0  0  0  0  0  0
    6.2862   -3.9486   -0.0000 C   0  0  0  0  0  0  0  0  0  0  0  0
    0.9447   -6.9887   -0.0000 C   0  0  0  0  0  0  0  0  0  0  0  0
    3.6094   -6.9887   -0.0000 C   0  0  0  0  0  0  0  0  0  0  0  0
   -0.3997   -6.2135   -0.0000 N   0  0  0  0  0  0  0  0  0  0  0  0
    0.9326   -8.5148   -0.0000 C   0  0  0  0  0  0  0  0  0  0  0  0
    3.5973   -8.5148   -0.0000 C   0  0  0  0  0  0  0  0  0  0  0  0
   -0.5572   -4.6874   -0.0000 N   0  0  0  0  0  0  0  0  0  0  0  0
   -1.7926   -6.8434   -0.0000 N   0  0  0  0  0  0  0  0  0  0  0  0
    2.2529   -9.2658   -0.0000 C   0  0  0  0  0  0  0  0  0  0  0  0
    4.9175   -9.2658   -0.0000 O   0  0  0  0  0  0  0  0  0  0  0  0
   -2.0712   -4.3604   -0.0000 C   0  0  0  0  0  0  0  0  0  0  0  0
   -2.8342   -5.6927   -0.0000 C   0  0  0  0  0  0  0  0  0  0  0  0
    2.2407  -10.4891   -0.0000 C   0  0  0  0  0  0  0  0  0  0  0  0
    5.9713   -8.6359   -0.0000 C   0  0  0  0  0  0  0  0  0  0  0  0
  1  2  1  0  0  0  0
  2  3  2  0  0  0  0
  2  4  1  0  0  0  0
  3  5  1  0  0  0  0
  3  6  1  0  0  0  0
  4  7  2  0  0  0  0
  5  8  2  0  0  0  0
  9  6  1  6  0  0  0
  8 10  1  0  0  0  0
  9 11  1  0  0  0  0
  9 12  1  0  0  0  0
 10 13  1  0  0  0  0
 10 14  1  0  0  0  0
 11 15  1  0  0  0  0
 11 16  1  0  0  0  0
 12 17  1  0  0  0  0
 13 18  2  0  0  0  0
 14 19  2  0  0  0  0
 15 20  2  0  0  0  0
 15 21  1  0  0  0  0
 16 22  1  0  0  0  0
 21 23  2  0  0  0  0
 21 24  1  0  0  0  0
 23 25  1  0  0  0  0
 23 26  1  0  0  0  0
 24 27  2  0  0  0  0
 25 28  1  0  0  0  0
 25 29  1  0  0  0  0
 26 30  2  0  0  0  0
 27 31  1  0  0  0  0
 28 32  2  0  0  0  0
 29 33  2  0  0  0  0
 30 34  1  0  0  0  0
 31 35  1  0  0  0  0
  7  8  1  0  0  0  0
 17 22  1  0  0  0  0
 18 19  1  0  0  0  0
 27 30  1  0  0  0  0
 32 33  1  0  0  0  0
M  END
>  <MolRegNo>
2111662

>  <m>
=

>  <Value>
19000

>  <Unit>
nM

>  <Type>
IC50

>  <pValue>
4.72

>  <Ligand Efficiency>
0.18

>  <Binding Efficiency>
9.89

>  <Surface Efficiency>
4.71

>  <Assay Index>
1058329

>  <Assay Category>


>  <Assay Organism>
Homo sapiens

>  <Target ID>
17045

>  <Target Name>
Cytochrome P450 3A4

>  <Target Organism>
Homo sapiens

>  <Target Description>
Target is a single protein chain

>  <Sequence Accession>
P08684

>  <Reference>


>  <Pubmed ID>


>  <DOI>


$$$$
2133431
Actelion Java MolfileCreator 1.0

 33 37  0  0  1  0  0  0  0  0999 V2000
    0.0000   -0.0000   -0.0000 Cl  0  0  0  0  0  0  0  0  0  0  0  0
   -1.0656    0.6226   -0.0000 C   0  0  0  0  0  0  0  0  0  0  0  0
   -1.0656    2.1552   -0.0000 C   0  0  0  0  0  0  0  0  0  0  0  0
   -2.3947   -0.1197   -0.0000 C   0  0  0  0  0  0  0  0  0  0  0  0
    0.2395    2.9215   -0.0000 N   0  0  0  0  0  0  0  0  0  0  0  0
   -2.3827    2.9335   -0.0000 C   0  0  0  0  0  0  0  0  0  0  0  0
   -3.7117    0.6585   -0.0000 C   0  0  0  0  0  0  0  0  0  0  0  0
    0.3831    4.4302   -0.0000 N   0  0  0  0  0  0  0  0  0  0  0  0
    1.5925    2.2869   -0.0000 N   0  0  0  0  0  0  0  0  0  0  0  0
   -2.3827    4.4661   -0.0000 C   0  0  0  0  0  0  0  0  0  0  0  0
   -3.7117    2.1911   -0.0000 C   0  0  0  0  0  0  0  0  0  0  0  0
    1.8559    4.7415   -0.0000 C   0  0  0  0  0  0  0  0  0  0  0  0
    2.6102    3.4244   -0.0000 C   0  0  0  0  0  0  0  0  0  0  0  0
   -1.3410    5.0767   -0.0000 O   0  0  0  0  0  0  0  0  0  0  0  0
   -3.7117    5.2443   -0.0000 N   0  0  0  0  0  0  0  0  0  0  0  0
   -3.7237    6.7769   -0.0000 C   0  0  0  0  0  0  0  0  0  0  0  0
   -5.0408    4.5020   -0.0000 C   0  0  0  0  0  0  0  0  0  0  0  0
   -5.0528    7.5552   -0.0000 C   0  0  0  0  0  0  0  0  0  0  0  0
   -2.4186    7.5432   -0.0000 C   0  0  0  0  0  0  0  0  0  0  0  0
   -6.3698    5.2803   -0.0000 C   0  0  0  0  0  0  0  0  0  0  0  0
   -6.3818    6.8129   -0.0000 O   0  0  0  0  0  0  0  0  0  0  0  0
   -2.4306    9.0758   -0.0000 C   0  0  0  0  0  0  0  0  0  0  0  0
   -1.1255    9.8421   -0.0000 C   0  0  0  0  0  0  0  0  0  0  0  0
   -3.7596    9.8421   -0.0000 C   0  0  0  0  0  0  0  0  0  0  0  0
   -0.0838    9.2434   -0.0000 F   0  0  0  0  0  0  0  0  0  0  0  0
   -1.1375   11.3747   -0.0000 C   0  0  0  0  0  0  0  0  0  0  0  0
   -3.7716   11.3747   -0.0000 C   0  0  0  0  0  0  0  0  0  0  0  0
   -2.4665   12.1410   -0.0000 C   0  0  0  0  0  0  0  0  0  0  0  0
   -5.1007   12.1410   -0.0000 N   0  0  0  0  0  0  0  0  0  0  0  0
   -5.2563   13.6497   -0.0000 N   0  0  0  0  0  0  0  0  0  0  0  0
   -6.4776   11.5184   -0.0000 N   0  0  0  0  0  0  0  0  0  0  0  0
   -6.7530   13.9729   -0.0000 C   0  0  0  0  0  0  0  0  0  0  0  0
   -7.5073   12.6559   -0.0000 C   0  0  0  0  0  0  0  0  0  0  0  0
  1  2  1  0  0  0  0
  2  3  2  0  0  0  0
  2  4  1  0  0  0  0
  3  5  1  0  0  0  0
  3  6  1  0  0  0  0
  4  7  2  0  0  0  0
  5  8  1  0  0  0  0
  5  9  1  0  0  0  0
  6 10  1  0  0  0  0
  6 11  2  0  0  0  0
  8 12  2  0  0  0  0
  9 13  2  0  0  0  0
 10 14  2  0  0  0  0
 10 15  1  0  0  0  0
 15 16  1  0  0  0  0
 15 17  1  0  0  0  0
 16 18  1  0  0  0  0
 16 19  1  1  0  0  0
 17 20  1  0  0  0  0
 18 21  1  0  0  0  0
 19 22  1  0  0  0  0
 22 23  2  0  0  0  0
 22 24  1  0  0  0  0
 23 25  1  0  0  0  0
 23 26  1  0  0  0  0
 24 27  2  0  0  0  0
 26 28  2  0  0  0  0
 27 29  1  0  0  0  0
 29 30  1  0  0  0  0
 29 31  1  0  0  0  0
 30 32  2  0  0  0  0
 31 33  2  0  0  0  0
  7 11  1  0  0  0  0
 12 13  1  0  0  0  0
 20 21  1  0  0  0  0
 27 28  1  0  0  0  0
 32 33  1  0  0  0  0
M  END
>  <MolRegNo>
2133431

>  <m>
=

>  <Value>
30000

>  <Unit>
nM

>  <Type>
IC50

>  <pValue>
4.52

>  <Ligand Efficiency>
0.19

>  <Binding Efficiency>
9.67

>  <Surface Efficiency>
4.97

>  <Assay Index>
1058329

>  <Assay Category>


>  <Assay Organism>
Homo sapiens

>  <Target ID>
17045

>  <Target Name>
Cytochrome P450 3A4

>  <Target Organism>
Homo sapiens

>  <Target Description>
Target is a single protein chain

>  <Sequence Accession>
P08684

>  <Reference>


>  <Pubmed ID>


>  <DOI>


$$$$
2170575
Actelion Java MolfileCreator 1.0

 36 40  0  0  1  0  0  0  0  0999 V2000
    0.0000   -0.0000   -0.0000 F   0  0  0  0  0  0  0  0  0  0  0  0
   -1.0797    0.6308   -0.0000 C   0  0  0  0  0  0  0  0  0  0  0  0
   -2.4262   -0.1213   -0.0000 C   0  0  0  0  0  0  0  0  0  0  0  0
   -1.0918    2.1836   -0.0000 C   0  0  0  0  0  0  0  0  0  0  0  0
   -3.7728    0.6551   -0.0000 C   0  0  0  0  0  0  0  0  0  0  0  0
   -2.4383   -1.6498   -0.0000 C   0  0  0  0  0  0  0  0  0  0  0  0
   -2.4383    2.9600   -0.0000 C   0  0  0  0  0  0  0  0  0  0  0  0
   -3.7849    2.2079   -0.0000 C   0  0  0  0  0  0  0  0  0  0  0  0
   -3.7849   -2.4020   -0.0000 C   0  0  0  0  0  0  0  0  0  0  0  0
   -5.1314    2.9842   -0.0000 N   0  0  0  0  0  0  0  0  0  0  0  0
   -3.7970   -3.9305   -0.0000 N   0  0  0  0  0  0  0  0  0  0  0  0
   -5.1314   -1.6134   -0.0000 C   0  0  0  0  0  0  0  0  0  0  0  0
   -5.2891    4.5128   -0.0000 N   0  0  0  0  0  0  0  0  0  0  0  0
   -6.5265    2.3534   -0.0000 N   0  0  0  0  0  0  0  0  0  0  0  0
   -2.4747   -4.6947   -0.0000 C   0  0  0  0  0  0  0  0  0  0  0  0
   -5.1436   -4.6826   -0.0000 C   0  0  0  0  0  0  0  0  0  0  0  0
   -6.4780   -2.3656   -0.0000 O   0  0  0  0  0  0  0  0  0  0  0  0
   -6.8055    4.8403   -0.0000 C   0  0  0  0  0  0  0  0  0  0  0  0
   -7.5698    3.5059   -0.0000 C   0  0  0  0  0  0  0  0  0  0  0  0
   -1.4193   -4.0760   -0.0000 O   0  0  0  0  0  0  0  0  0  0  0  0
   -2.4990   -6.2232   -0.0000 C   0  0  0  0  0  0  0  0  0  0  0  0
   -6.4901   -3.8941   -0.0000 C   0  0  0  0  0  0  0  0  0  0  0  0
   -1.1888   -6.9875   -0.0000 C   0  0  0  0  0  0  0  0  0  0  0  0
   -3.8455   -6.9754   -0.0000 C   0  0  0  0  0  0  0  0  0  0  0  0
    0.1334   -6.2111   -0.0000 N   0  0  0  0  0  0  0  0  0  0  0  0
   -1.2131   -8.5160   -0.0000 C   0  0  0  0  0  0  0  0  0  0  0  0
   -3.8698   -8.5039   -0.0000 C   0  0  0  0  0  0  0  0  0  0  0  0
    0.2790   -4.6826   -0.0000 N   0  0  0  0  0  0  0  0  0  0  0  0
    1.5043   -6.8541   -0.0000 N   0  0  0  0  0  0  0  0  0  0  0  0
   -2.5597   -9.2681   -0.0000 C   0  0  0  0  0  0  0  0  0  0  0  0
    1.7711   -4.3672   -0.0000 C   0  0  0  0  0  0  0  0  0  0  0  0
    2.5354   -5.7016   -0.0000 C   0  0  0  0  0  0  0  0  0  0  0  0
   -2.5839  -10.7966   -0.0000 C   0  0  0  0  0  0  0  0  0  0  0  0
   -3.6636  -11.3911   -0.0000 F   0  0  0  0  0  0  0  0  0  0  0  0
   -1.5285  -11.4032   -0.0000 F   0  0  0  0  0  0  0  0  0  0  0  0
   -2.6082  -12.0219   -0.0000 F   0  0  0  0  0  0  0  0  0  0  0  0
  1  2  1  0  0  0  0
  2  3  2  0  0  0  0
  2  4  1  0  0  0  0
  3  5  1  0  0  0  0
  3  6  1  0  0  0  0
  4  7  2  0  0  0  0
  5  8  2  0  0  0  0
  9  6  1  1  0  0  0
  8 10  1  0  0  0  0
  9 11  1  0  0  0  0
  9 12  1  0  0  0  0
 10 13  1  0  0  0  0
 10 14  1  0  0  0  0
 11 15  1  0  0  0  0
 11 16  1  0  0  0  0
 12 17  1  0  0  0  0
 13 18  2  0  0  0  0
 14 19  2  0  0  0  0
 15 20  2  0  0  0  0
 15 21  1  0  0  0  0
 16 22  1  0  0  0  0
 21 23  2  0  0  0  0
 21 24  1  0  0  0  0
 23 25  1  0  0  0  0
 23 26  1  0  0  0  0
 24 27  2  0  0  0  0
 25 28  1  0  0  0  0
 25 29  1  0  0  0  0
 26 30  2  0  0  0  0
 28 31  2  0  0  0  0
 29 32  2  0  0  0  0
 30 33  1  0  0  0  0
 33 34  1  0  0  0  0
 33 35  1  0  0  0  0
 33 36  1  0  0  0  0
  7  8  1  0  0  0  0
 17 22  1  0  0  0  0
 18 19  1  0  0  0  0
 27 30  1  0  0  0  0
 31 32  1  0  0  0  0
M  END
>  <MolRegNo>
2170575

>  <m>
=

>  <Value>
7400

>  <Unit>
nM

>  <Type>
IC50

>  <pValue>
5.13

>  <Ligand Efficiency>
0.19

>  <Binding Efficiency>
10.23

>  <Surface Efficiency>
5.64

>  <Assay Index>
1058329

>  <Assay Category>


>  <Assay Organism>
Homo sapiens

>  <Target ID>
17045

>  <Target Name>
Cytochrome P450 3A4

>  <Target Organism>
Homo sapiens

>  <Target Description>
Target is a single protein chain

>  <Sequence Accession>
P08684

>  <Reference>


>  <Pubmed ID>


>  <DOI>


$$$$
2143107
Actelion Java MolfileCreator 1.0

 35 39  0  0  1  0  0  0  0  0999 V2000
    0.0000   -0.0000   -0.0000 Cl  0  0  0  0  0  0  0  0  0  0  0  0
   -0.0120    1.2408   -0.0000 C   0  0  0  0  0  0  0  0  0  0  0  0
    1.3011    2.0118   -0.0000 C   0  0  0  0  0  0  0  0  0  0  0  0
   -1.3492    2.0118   -0.0000 C   0  0  0  0  0  0  0  0  0  0  0  0
    2.6142    1.2649   -0.0000 O   0  0  0  0  0  0  0  0  0  0  0  0
    1.2890    3.5538   -0.0000 C   0  0  0  0  0  0  0  0  0  0  0  0
   -1.3613    3.5538   -0.0000 C   0  0  0  0  0  0  0  0  0  0  0  0
    3.6622    1.8914   -0.0000 C   0  0  0  0  0  0  0  0  0  0  0  0
   -0.0482    4.3248   -0.0000 C   0  0  0  0  0  0  0  0  0  0  0  0
   -2.6985    4.3248   -0.0000 N   0  0  0  0  0  0  0  0  0  0  0  0
   -0.0602    5.8668   -0.0000 C   0  0  0  0  0  0  0  0  0  0  0  0
   -2.8551    5.8427   -0.0000 N   0  0  0  0  0  0  0  0  0  0  0  0
   -4.0839    3.6984   -0.0000 N   0  0  0  0  0  0  0  0  0  0  0  0
   -1.1324    6.4932   -0.0000 O   0  0  0  0  0  0  0  0  0  0  0  0
    1.2529    6.6378   -0.0000 N   0  0  0  0  0  0  0  0  0  0  0  0
   -4.3610    6.1680   -0.0000 C   0  0  0  0  0  0  0  0  0  0  0  0
   -5.1199    4.8428   -0.0000 C   0  0  0  0  0  0  0  0  0  0  0  0
    1.2408    8.1798   -0.0000 C   0  0  0  0  0  0  0  0  0  0  0  0
    2.5660    5.8789   -0.0000 C   0  0  0  0  0  0  0  0  0  0  0  0
    2.5539    8.9508   -0.0000 C   0  0  0  0  0  0  0  0  0  0  0  0
   -0.0964    8.9628   -0.0000 C   0  0  0  0  0  0  0  0  0  0  0  0
    3.8791    6.6499   -0.0000 C   0  0  0  0  0  0  0  0  0  0  0  0
    3.8670    8.1918   -0.0000 O   0  0  0  0  0  0  0  0  0  0  0  0
   -0.0964   10.5048   -0.0000 C   0  0  0  0  0  0  0  0  0  0  0  0
   -1.4215   11.2879   -0.0000 C   0  0  0  0  0  0  0  0  0  0  0  0
    1.2167   11.2758   -0.0000 C   0  0  0  0  0  0  0  0  0  0  0  0
   -2.4937   10.6976   -0.0000 F   0  0  0  0  0  0  0  0  0  0  0  0
   -1.4215   12.8299   -0.0000 C   0  0  0  0  0  0  0  0  0  0  0  0
    1.2167   12.8178   -0.0000 C   0  0  0  0  0  0  0  0  0  0  0  0
   -0.1084   13.6009   -0.0000 C   0  0  0  0  0  0  0  0  0  0  0  0
    2.5298   13.5888   -0.0000 N   0  0  0  0  0  0  0  0  0  0  0  0
    3.8911   12.9624   -0.0000 N   0  0  0  0  0  0  0  0  0  0  0  0
    2.6624   15.1067   -0.0000 N   0  0  0  0  0  0  0  0  0  0  0  0
    4.9031   14.1068   -0.0000 C   0  0  0  0  0  0  0  0  0  0  0  0
    4.1441   15.4320   -0.0000 C   0  0  0  0  0  0  0  0  0  0  0  0
  1  2  1  0  0  0  0
  2  3  2  0  0  0  0
  2  4  1  0  0  0  0
  3  5  1  0  0  0  0
  3  6  1  0  0  0  0
  4  7  2  0  0  0  0
  5  8  1  0  0  0  0
  6  9  2  0  0  0  0
  7 10  1  0  0  0  0
  9 11  1  0  0  0  0
 10 12  1  0  0  0  0
 10 13  1  0  0  0  0
 11 14  2  0  0  0  0
 11 15  1  0  0  0  0
 12 16  2  0  0  0  0
 13 17  2  0  0  0  0
 15 18  1  0  0  0  0
 15 19  1  0  0  0  0
 18 20  1  0  0  0  0
 18 21  1  6  0  0  0
 19 22  1  0  0  0  0
 20 23  1  0  0  0  0
 21 24  1  0  0  0  0
 24 25  2  0  0  0  0
 24 26  1  0  0  0  0
 25 27  1  0  0  0  0
 25 28  1  0  0  0  0
 26 29  2  0  0  0  0
 28 30  2  0  0  0  0
 29 31  1  0  0  0  0
 31 32  1  0  0  0  0
 31 33  1  0  0  0  0
 32 34  2  0  0  0  0
 33 35  2  0  0  0  0
  7  9  1  0  0  0  0
 16 17  1  0  0  0  0
 22 23  1  0  0  0  0
 29 30  1  0  0  0  0
 34 35  1  0  0  0  0
M  END
>  <MolRegNo>
2143107

>  <m>
=

>  <Value>
13000

>  <Unit>
nM

>  <Type>
IC50

>  <pValue>
4.89

>  <Ligand Efficiency>
0.19

>  <Binding Efficiency>
9.81

>  <Surface Efficiency>
4.88

>  <Assay Index>
1058329

>  <Assay Category>


>  <Assay Organism>
Homo sapiens

>  <Target ID>
17045

>  <Target Name>
Cytochrome P450 3A4

>  <Target Organism>
Homo sapiens

>  <Target Description>
Target is a single protein chain

>  <Sequence Accession>
P08684

>  <Reference>


>  <Pubmed ID>


>  <DOI>


$$$$
2148620
Actelion Java MolfileCreator 1.0

 34 38  0  0  1  0  0  0  0  0999 V2000
    0.0000   -0.0000   -0.0000 F   0  0  0  0  0  0  0  0  0  0  0  0
    1.0529    0.6172   -0.0000 C   0  0  0  0  0  0  0  0  0  0  0  0
    2.3722   -0.1452   -0.0000 C   0  0  0  0  0  0  0  0  0  0  0  0
    1.0408    2.1664   -0.0000 C   0  0  0  0  0  0  0  0  0  0  0  0
    3.6914    0.6293   -0.0000 C   0  0  0  0  0  0  0  0  0  0  0  0
    2.3601   -1.6702   -0.0000 C   0  0  0  0  0  0  0  0  0  0  0  0
    2.3601    2.9410   -0.0000 C   0  0  0  0  0  0  0  0  0  0  0  0
    3.6793    2.1785   -0.0000 C   0  0  0  0  0  0  0  0  0  0  0  0
    3.6793   -2.4327   -0.0000 C   0  0  0  0  0  0  0  0  0  0  0  0
    4.9985    2.9531   -0.0000 N   0  0  0  0  0  0  0  0  0  0  0  0
    4.9985   -1.6581   -0.0000 N   0  0  0  0  0  0  0  0  0  0  0  0
    3.6672   -3.9576   -0.0000 C   0  0  0  0  0  0  0  0  0  0  0  0
    5.1316    4.4780   -0.0000 N   0  0  0  0  0  0  0  0  0  0  0  0
    6.3661    2.3237   -0.0000 C   0  0  0  0  0  0  0  0  0  0  0  0
    4.9864   -0.1089   -0.0000 C   0  0  0  0  0  0  0  0  0  0  0  0
    6.3177   -2.4085   -0.0000 C   0  0  0  0  0  0  0  0  0  0  0  0
    4.9864   -4.7080   -0.0000 O   0  0  0  0  0  0  0  0  0  0  0  0
    6.6203    4.8048   -0.0000 N   0  0  0  0  0  0  0  0  0  0  0  0
    7.3827    3.4735   -0.0000 C   0  0  0  0  0  0  0  0  0  0  0  0
    3.9092    0.5204   -0.0000 O   0  0  0  0  0  0  0  0  0  0  0  0
    6.3056    0.6657   -0.0000 C   0  0  0  0  0  0  0  0  0  0  0  0
    6.3056   -3.9334   -0.0000 C   0  0  0  0  0  0  0  0  0  0  0  0
    6.2935    2.2148   -0.0000 C   0  0  0  0  0  0  0  0  0  0  0  0
    7.6248   -0.0968   -0.0000 C   0  0  0  0  0  0  0  0  0  0  0  0
    7.3585   -4.5386   -0.0000 C   0  0  0  0  0  0  0  0  0  0  0  0
    4.9501    3.0015   -0.0000 N   0  0  0  0  0  0  0  0  0  0  0  0
    7.6127    2.9894   -0.0000 C   0  0  0  0  0  0  0  0  0  0  0  0
    8.9440    0.6778   -0.0000 C   0  0  0  0  0  0  0  0  0  0  0  0
    3.5461    2.3843   -0.0000 N   0  0  0  0  0  0  0  0  0  0  0  0
    4.8048    4.5265   -0.0000 N   0  0  0  0  0  0  0  0  0  0  0  0
    8.9319    2.2269   -0.0000 C   0  0  0  0  0  0  0  0  0  0  0  0
    2.5174    3.5461   -0.0000 C   0  0  0  0  0  0  0  0  0  0  0  0
    3.2920    4.8653   -0.0000 C   0  0  0  0  0  0  0  0  0  0  0  0
    9.9848    2.8442   -0.0000 C   0  0  0  0  0  0  0  0  0  0  0  0
  1  2  1  0  0  0  0
  2  3  2  0  0  0  0
  2  4  1  0  0  0  0
  3  5  1  0  0  0  0
  3  6  1  0  0  0  0
  4  7  2  0  0  0  0
  5  8  2  0  0  0  0
  9  6  1  1  0  0  0
  8 10  1  0  0  0  0
  9 11  1  0  0  0  0
  9 12  1  0  0  0  0
 10 13  1  0  0  0  0
 10 14  1  0  0  0  0
 11 15  1  0  0  0  0
 11 16  1  0  0  0  0
 12 17  1  0  0  0  0
 13 18  2  0  0  0  0
 14 19  2  0  0  0  0
 15 20  2  0  0  0  0
 15 21  1  0  0  0  0
 16 22  1  0  0  0  0
 21 23  2  0  0  0  0
 21 24  1  0  0  0  0
 22 25  1  1  0  0  0
 23 26  1  0  0  0  0
 23 27  1  0  0  0  0
 24 28  2  0  0  0  0
 26 29  1  0  0  0  0
 26 30  1  0  0  0  0
 27 31  2  0  0  0  0
 29 32  2  0  0  0  0
 30 33  2  0  0  0  0
 31 34  1  0  0  0  0
  7  8  1  0  0  0  0
 17 22  1  0  0  0  0
 18 19  1  0  0  0  0
 28 31  1  0  0  0  0
 32 33  1  0  0  0  0
M  END
>  <MolRegNo>
2148620

>  <m>
=

>  <Value>
19000

>  <Unit>
nM

>  <Type>
IC50

>  <pValue>
4.72

>  <Ligand Efficiency>
0.19

>  <Binding Efficiency>
10.23

>  <Surface Efficiency>
5.19

>  <Assay Index>
1058329

>  <Assay Category>


>  <Assay Organism>
Homo sapiens

>  <Target ID>
17045

>  <Target Name>
Cytochrome P450 3A4

>  <Target Organism>
Homo sapiens

>  <Target Description>
Target is a single protein chain

>  <Sequence Accession>
P08684

>  <Reference>


>  <Pubmed ID>


>  <DOI>


$$$$
2186644
Actelion Java MolfileCreator 1.0

 34 38  0  0  1  0  0  0  0  0999 V2000
    0.0000   -0.0000   -0.0000 O   0  0  0  0  0  0  0  0  0  0  0  0
    1.0458   -0.6010   -0.0000 C   0  0  0  0  0  0  0  0  0  0  0  0
    1.0338   -2.1157   -0.0000 N   0  0  0  0  0  0  0  0  0  0  0  0
    2.3561    0.1683   -0.0000 C   0  0  0  0  0  0  0  0  0  0  0  0
   -0.3005   -2.8609   -0.0000 C   0  0  0  0  0  0  0  0  0  0  0  0
    2.3440   -2.8609   -0.0000 C   0  0  0  0  0  0  0  0  0  0  0  0
    2.3440    1.7069   -0.0000 C   0  0  0  0  0  0  0  0  0  0  0  0
    3.6663   -0.5890   -0.0000 C   0  0  0  0  0  0  0  0  0  0  0  0
   -0.3125   -4.3756   -0.0000 C   0  0  0  0  0  0  0  0  0  0  0  0
   -1.6348   -2.0796   -0.0000 C   0  0  0  0  0  0  0  0  0  0  0  0
    2.3320   -4.3756   -0.0000 C   0  0  0  0  0  0  0  0  0  0  0  0
    1.0097    2.4883   -0.0000 N   0  0  0  0  0  0  0  0  0  0  0  0
    3.6543    2.4763   -0.0000 C   0  0  0  0  0  0  0  0  0  0  0  0
    4.9766    0.1803   -0.0000 C   0  0  0  0  0  0  0  0  0  0  0  0
    0.9977   -5.1208   -0.0000 O   0  0  0  0  0  0  0  0  0  0  0  0
   -1.6468   -0.5409   -0.0000 C   0  0  0  0  0  0  0  0  0  0  0  0
    3.6423   -5.1329   -0.0000 C   0  0  0  0  0  0  0  0  0  0  0  0
   -0.3847    1.8752   -0.0000 N   0  0  0  0  0  0  0  0  0  0  0  0
    0.8655    4.0029   -0.0000 N   0  0  0  0  0  0  0  0  0  0  0  0
    4.9646    1.7190   -0.0000 C   0  0  0  0  0  0  0  0  0  0  0  0
    6.0224   -0.4207   -0.0000 C   0  0  0  0  0  0  0  0  0  0  0  0
   -0.3366    0.2284   -0.0000 C   0  0  0  0  0  0  0  0  0  0  0  0
   -2.9811    0.2404   -0.0000 C   0  0  0  0  0  0  0  0  0  0  0  0
    3.6303   -6.3470   -0.0000 C   0  0  0  0  0  0  0  0  0  0  0  0
   -1.4064    3.0292   -0.0000 C   0  0  0  0  0  0  0  0  0  0  0  0
   -0.6371    4.3395   -0.0000 C   0  0  0  0  0  0  0  0  0  0  0  0
   -0.3486    1.7670   -0.0000 C   0  0  0  0  0  0  0  0  0  0  0  0
   -2.9932    1.7791   -0.0000 C   0  0  0  0  0  0  0  0  0  0  0  0
    0.9617    2.5364   -0.0000 N   0  0  0  0  0  0  0  0  0  0  0  0
   -1.6829    2.5484   -0.0000 C   0  0  0  0  0  0  0  0  0  0  0  0
    1.0939    4.0510   -0.0000 N   0  0  0  0  0  0  0  0  0  0  0  0
    2.3200    1.9113   -0.0000 N   0  0  0  0  0  0  0  0  0  0  0  0
    2.5724    4.3756   -0.0000 C   0  0  0  0  0  0  0  0  0  0  0  0
    3.3297    3.0533   -0.0000 C   0  0  0  0  0  0  0  0  0  0  0  0
  1  2  2  0  0  0  0
  2  3  1  0  0  0  0
  2  4  1  0  0  0  0
  3  5  1  0  0  0  0
  3  6  1  0  0  0  0
  4  7  2  0  0  0  0
  4  8  1  0  0  0  0
  5  9  1  0  0  0  0
  5 10  1  1  0  0  0
  6 11  1  0  0  0  0
  7 12  1  0  0  0  0
  7 13  1  0  0  0  0
  8 14  2  0  0  0  0
  9 15  1  0  0  0  0
 10 16  1  0  0  0  0
 11 17  1  1  0  0  0
 12 18  1  0  0  0  0
 12 19  1  0  0  0  0
 13 20  2  0  0  0  0
 14 21  1  0  0  0  0
 16 22  2  0  0  0  0
 16 23  1  0  0  0  0
 17 24  1  0  0  0  0
 18 25  2  0  0  0  0
 19 26  2  0  0  0  0
 22 27  1  0  0  0  0
 23 28  2  0  0  0  0
 27 29  1  0  0  0  0
 27 30  2  0  0  0  0
 29 31  1  0  0  0  0
 29 32  1  0  0  0  0
 31 33  2  0  0  0  0
 32 34  2  0  0  0  0
 11 15  1  0  0  0  0
 14 20  1  0  0  0  0
 25 26  1  0  0  0  0
 28 30  1  0  0  0  0
 33 34  1  0  0  0  0
M  END
>  <MolRegNo>
2186644

>  <m>
=

>  <Value>
9200

>  <Unit>
nM

>  <Type>
IC50

>  <pValue>
5.04

>  <Ligand Efficiency>
0.2

>  <Binding Efficiency>
11.01

>  <Surface Efficiency>
5.54

>  <Assay Index>
1058329

>  <Assay Category>


>  <Assay Organism>
Homo sapiens

>  <Target ID>
17045

>  <Target Name>
Cytochrome P450 3A4

>  <Target Organism>
Homo sapiens

>  <Target Description>
Target is a single protein chain

>  <Sequence Accession>
P08684

>  <Reference>


>  <Pubmed ID>


>  <DOI>


$$$$
2118751
Actelion Java MolfileCreator 1.0

 33 37  0  0  1  0  0  0  0  0999 V2000
    0.0000   -0.0000   -0.0000 O   0  0  0  0  0  0  0  0  0  0  0  0
    1.0403   -0.5979   -0.0000 C   0  0  0  0  0  0  0  0  0  0  0  0
    1.0283   -2.1045   -0.0000 N   0  0  0  0  0  0  0  0  0  0  0  0
    2.3437    0.1674   -0.0000 C   0  0  0  0  0  0  0  0  0  0  0  0
   -0.2989   -2.8459   -0.0000 C   0  0  0  0  0  0  0  0  0  0  0  0
    2.3317   -2.8459   -0.0000 C   0  0  0  0  0  0  0  0  0  0  0  0
    2.3317    1.6980   -0.0000 C   0  0  0  0  0  0  0  0  0  0  0  0
    3.6470   -0.5859   -0.0000 C   0  0  0  0  0  0  0  0  0  0  0  0
   -0.3109   -4.3525   -0.0000 C   0  0  0  0  0  0  0  0  0  0  0  0
   -1.6262   -2.0686   -0.0000 C   0  0  0  0  0  0  0  0  0  0  0  0
    2.3197   -4.3525   -0.0000 C   0  0  0  0  0  0  0  0  0  0  0  0
    1.0044    2.4752   -0.0000 N   0  0  0  0  0  0  0  0  0  0  0  0
    3.6351    2.4632   -0.0000 C   0  0  0  0  0  0  0  0  0  0  0  0
    4.9504    0.1794   -0.0000 C   0  0  0  0  0  0  0  0  0  0  0  0
    0.9925   -5.0939   -0.0000 O   0  0  0  0  0  0  0  0  0  0  0  0
   -1.6382   -0.5381   -0.0000 C   0  0  0  0  0  0  0  0  0  0  0  0
    3.6231   -5.1058   -0.0000 C   0  0  0  0  0  0  0  0  0  0  0  0
   -0.3826    1.8654   -0.0000 N   0  0  0  0  0  0  0  0  0  0  0  0
    0.8609    3.9818   -0.0000 N   0  0  0  0  0  0  0  0  0  0  0  0
    4.9384    1.7099   -0.0000 C   0  0  0  0  0  0  0  0  0  0  0  0
   -0.3348    0.2272   -0.0000 C   0  0  0  0  0  0  0  0  0  0  0  0
   -2.9654    0.2391   -0.0000 C   0  0  0  0  0  0  0  0  0  0  0  0
    3.6111   -6.3135   -0.0000 C   0  0  0  0  0  0  0  0  0  0  0  0
   -1.3990    3.0133   -0.0000 C   0  0  0  0  0  0  0  0  0  0  0  0
   -0.6337    4.3166   -0.0000 C   0  0  0  0  0  0  0  0  0  0  0  0
   -0.3468    1.7577   -0.0000 C   0  0  0  0  0  0  0  0  0  0  0  0
   -2.9774    1.7697   -0.0000 C   0  0  0  0  0  0  0  0  0  0  0  0
    0.9566    2.5230   -0.0000 N   0  0  0  0  0  0  0  0  0  0  0  0
   -1.6740    2.5350   -0.0000 C   0  0  0  0  0  0  0  0  0  0  0  0
    1.0881    4.0297   -0.0000 N   0  0  0  0  0  0  0  0  0  0  0  0
    2.3078    1.9012   -0.0000 N   0  0  0  0  0  0  0  0  0  0  0  0
    2.5589    4.3525   -0.0000 C   0  0  0  0  0  0  0  0  0  0  0  0
    3.3122    3.0372   -0.0000 C   0  0  0  0  0  0  0  0  0  0  0  0
  1  2  2  0  0  0  0
  2  3  1  0  0  0  0
  2  4  1  0  0  0  0
  3  5  1  0  0  0  0
  3  6  1  0  0  0  0
  4  7  2  0  0  0  0
  4  8  1  0  0  0  0
  5  9  1  0  0  0  0
  5 10  1  1  0  0  0
  6 11  1  0  0  0  0
  7 12  1  0  0  0  0
  7 13  1  0  0  0  0
  8 14  2  0  0  0  0
  9 15  1  0  0  0  0
 10 16  1  0  0  0  0
 11 17  1  1  0  0  0
 12 18  1  0  0  0  0
 12 19  1  0  0  0  0
 13 20  2  0  0  0  0
 16 21  2  0  0  0  0
 16 22  1  0  0  0  0
 17 23  1  0  0  0  0
 18 24  2  0  0  0  0
 19 25  2  0  0  0  0
 21 26  1  0  0  0  0
 22 27  2  0  0  0  0
 26 28  1  0  0  0  0
 26 29  2  0  0  0  0
 28 30  1  0  0  0  0
 28 31  1  0  0  0  0
 30 32  2  0  0  0  0
 31 33  2  0  0  0  0
 11 15  1  0  0  0  0
 14 20  1  0  0  0  0
 24 25  1  0  0  0  0
 27 29  1  0  0  0  0
 32 33  1  0  0  0  0
M  END
>  <MolRegNo>
2118751

>  <m>
=

>  <Value>
9100

>  <Unit>
nM

>  <Type>
IC50

>  <pValue>
5.04

>  <Ligand Efficiency>
0.21

>  <Binding Efficiency>
11.37

>  <Surface Efficiency>
5.54

>  <Assay Index>
1058329

>  <Assay Category>


>  <Assay Organism>
Homo sapiens

>  <Target ID>
17045

>  <Target Name>
Cytochrome P450 3A4

>  <Target Organism>
Homo sapiens

>  <Target Description>
Target is a single protein chain

>  <Sequence Accession>
P08684

>  <Reference>


>  <Pubmed ID>


>  <DOI>


$$$$
2165927
Actelion Java MolfileCreator 1.0

 34 38  0  0  1  0  0  0  0  0999 V2000
    0.0000   -0.0000   -0.0000 O   0  0  0  0  0  0  0  0  0  0  0  0
    1.0457   -0.6010   -0.0000 C   0  0  0  0  0  0  0  0  0  0  0  0
    1.0337   -2.1154   -0.0000 N   0  0  0  0  0  0  0  0  0  0  0  0
    2.3558    0.1683   -0.0000 C   0  0  0  0  0  0  0  0  0  0  0  0
   -0.3005   -2.8606   -0.0000 C   0  0  0  0  0  0  0  0  0  0  0  0
    2.3438   -2.8606   -0.0000 C   0  0  0  0  0  0  0  0  0  0  0  0
    2.3438    1.7068   -0.0000 C   0  0  0  0  0  0  0  0  0  0  0  0
    3.6659   -0.5890   -0.0000 C   0  0  0  0  0  0  0  0  0  0  0  0
   -0.3125   -4.3751   -0.0000 C   0  0  0  0  0  0  0  0  0  0  0  0
   -1.6346   -2.0794   -0.0000 C   0  0  0  0  0  0  0  0  0  0  0  0
    2.3318   -4.3751   -0.0000 C   0  0  0  0  0  0  0  0  0  0  0  0
    1.0096    2.4880   -0.0000 N   0  0  0  0  0  0  0  0  0  0  0  0
    3.6539    2.4760   -0.0000 C   0  0  0  0  0  0  0  0  0  0  0  0
    4.9761    0.1803   -0.0000 C   0  0  0  0  0  0  0  0  0  0  0  0
    0.9976   -5.1203   -0.0000 O   0  0  0  0  0  0  0  0  0  0  0  0
   -1.6467   -0.5409   -0.0000 C   0  0  0  0  0  0  0  0  0  0  0  0
    3.6419   -5.1323   -0.0000 C   0  0  0  0  0  0  0  0  0  0  0  0
   -0.3846    1.8750   -0.0000 N   0  0  0  0  0  0  0  0  0  0  0  0
    0.8654    4.0025   -0.0000 N   0  0  0  0  0  0  0  0  0  0  0  0
    4.9640    1.7188   -0.0000 C   0  0  0  0  0  0  0  0  0  0  0  0
   -0.3365    0.2284   -0.0000 C   0  0  0  0  0  0  0  0  0  0  0  0
   -2.9808    0.2404   -0.0000 C   0  0  0  0  0  0  0  0  0  0  0  0
    3.6299   -6.3463   -0.0000 C   0  0  0  0  0  0  0  0  0  0  0  0
   -1.4063    3.0289   -0.0000 C   0  0  0  0  0  0  0  0  0  0  0  0
   -0.6370    4.3390   -0.0000 C   0  0  0  0  0  0  0  0  0  0  0  0
    6.0097    2.3318   -0.0000 C   0  0  0  0  0  0  0  0  0  0  0  0
   -0.3486    1.7669   -0.0000 C   0  0  0  0  0  0  0  0  0  0  0  0
   -2.9928    1.7789   -0.0000 C   0  0  0  0  0  0  0  0  0  0  0  0
    0.9616    2.5361   -0.0000 N   0  0  0  0  0  0  0  0  0  0  0  0
   -1.6827    2.5481   -0.0000 C   0  0  0  0  0  0  0  0  0  0  0  0
    1.0938    4.0506   -0.0000 N   0  0  0  0  0  0  0  0  0  0  0  0
    2.3198    1.9111   -0.0000 N   0  0  0  0  0  0  0  0  0  0  0  0
    2.5722    4.3751   -0.0000 C   0  0  0  0  0  0  0  0  0  0  0  0
    3.3294    3.0529   -0.0000 C   0  0  0  0  0  0  0  0  0  0  0  0
  1  2  2  0  0  0  0
  2  3  1  0  0  0  0
  2  4  1  0  0  0  0
  3  5  1  0  0  0  0
  3  6  1  0  0  0  0
  4  7  2  0  0  0  0
  4  8  1  0  0  0  0
  5  9  1  0  0  0  0
  5 10  1  1  0  0  0
  6 11  1  0  0  0  0
  7 12  1  0  0  0  0
  7 13  1  0  0  0  0
  8 14  2  0  0  0  0
  9 15  1  0  0  0  0
 10 16  1  0  0  0  0
 11 17  1  1  0  0  0
 12 18  1  0  0  0  0
 12 19  1  0  0  0  0
 13 20  2  0  0  0  0
 16 21  2  0  0  0  0
 16 22  1  0  0  0  0
 17 23  1  0  0  0  0
 18 24  2  0  0  0  0
 19 25  2  0  0  0  0
 20 26  1  0  0  0  0
 21 27  1  0  0  0  0
 22 28  2  0  0  0  0
 27 29  1  0  0  0  0
 27 30  2  0  0  0  0
 29 31  1  0  0  0  0
 29 32  1  0  0  0  0
 31 33  2  0  0  0  0
 32 34  2  0  0  0  0
 11 15  1  0  0  0  0
 14 20  1  0  0  0  0
 24 25  1  0  0  0  0
 28 30  1  0  0  0  0
 33 34  1  0  0  0  0
M  END
>  <MolRegNo>
2165927

>  <m>
=

>  <Value>
9600

>  <Unit>
nM

>  <Type>
IC50

>  <pValue>
5.02

>  <Ligand Efficiency>
0.2

>  <Binding Efficiency>
10.97

>  <Surface Efficiency>
5.52

>  <Assay Index>
1058329

>  <Assay Category>


>  <Assay Organism>
Homo sapiens

>  <Target ID>
17045

>  <Target Name>
Cytochrome P450 3A4

>  <Target Organism>
Homo sapiens

>  <Target Description>
Target is a single protein chain

>  <Sequence Accession>
P08684

>  <Reference>


>  <Pubmed ID>


>  <DOI>


$$$$
2141915
Actelion Java MolfileCreator 1.0

 32 36  0  0  1  0  0  0  0  0999 V2000
    0.0000   -0.0000   -0.0000 F   0  0  0  0  0  0  0  0  0  0  0  0
   -1.0618    0.6204   -0.0000 C   0  0  0  0  0  0  0  0  0  0  0  0
   -2.3861   -0.1193   -0.0000 C   0  0  0  0  0  0  0  0  0  0  0  0
   -1.0738    2.1475   -0.0000 C   0  0  0  0  0  0  0  0  0  0  0  0
   -3.7104    0.6443   -0.0000 C   0  0  0  0  0  0  0  0  0  0  0  0
   -2.3981    2.9111   -0.0000 C   0  0  0  0  0  0  0  0  0  0  0  0
   -5.0348   -0.0954   -0.0000 N   0  0  0  0  0  0  0  0  0  0  0  0
   -3.7224    2.1714   -0.0000 C   0  0  0  0  0  0  0  0  0  0  0  0
   -2.4100    4.4382   -0.0000 C   0  0  0  0  0  0  0  0  0  0  0  0
   -6.4068    0.5369   -0.0000 N   0  0  0  0  0  0  0  0  0  0  0  0
   -5.1779   -1.5749   -0.0000 N   0  0  0  0  0  0  0  0  0  0  0  0
   -3.7343    5.2018   -0.0000 C   0  0  0  0  0  0  0  0  0  0  0  0
   -7.4328   -0.5727   -0.0000 C   0  0  0  0  0  0  0  0  0  0  0  0
   -6.6693   -1.8851   -0.0000 C   0  0  0  0  0  0  0  0  0  0  0  0
   -3.7462    6.7289   -0.0000 N   0  0  0  0  0  0  0  0  0  0  0  0
   -5.0586    4.4502   -0.0000 C   0  0  0  0  0  0  0  0  0  0  0  0
   -2.4458    7.5044   -0.0000 C   0  0  0  0  0  0  0  0  0  0  0  0
   -5.0705    7.4925   -0.0000 C   0  0  0  0  0  0  0  0  0  0  0  0
   -6.3829    5.2137   -0.0000 O   0  0  0  0  0  0  0  0  0  0  0  0
   -1.4078    6.9198   -0.0000 O   0  0  0  0  0  0  0  0  0  0  0  0
   -2.4697    9.0315   -0.0000 C   0  0  0  0  0  0  0  0  0  0  0  0
   -6.3949    6.7408   -0.0000 C   0  0  0  0  0  0  0  0  0  0  0  0
   -1.1811    9.8070   -0.0000 C   0  0  0  0  0  0  0  0  0  0  0  0
   -3.7940    9.7951   -0.0000 C   0  0  0  0  0  0  0  0  0  0  0  0
    0.1193    9.0673   -0.0000 N   0  0  0  0  0  0  0  0  0  0  0  0
   -1.2050   11.3342   -0.0000 C   0  0  0  0  0  0  0  0  0  0  0  0
   -3.8178   11.3222   -0.0000 C   0  0  0  0  0  0  0  0  0  0  0  0
    0.2625    7.5879   -0.0000 N   0  0  0  0  0  0  0  0  0  0  0  0
    1.4675    9.7235   -0.0000 N   0  0  0  0  0  0  0  0  0  0  0  0
   -2.5293   12.0977   -0.0000 C   0  0  0  0  0  0  0  0  0  0  0  0
    1.7300    7.3016   -0.0000 C   0  0  0  0  0  0  0  0  0  0  0  0
    2.4816    8.6140   -0.0000 C   0  0  0  0  0  0  0  0  0  0  0  0
  1  2  1  0  0  0  0
  2  3  2  0  0  0  0
  2  4  1  0  0  0  0
  3  5  1  0  0  0  0
  4  6  2  0  0  0  0
  5  7  1  0  0  0  0
  5  8  2  0  0  0  0
  6  9  1  0  0  0  0
  7 10  1  0  0  0  0
  7 11  1  0  0  0  0
 12  9  1  6  0  0  0
 10 13  2  0  0  0  0
 11 14  2  0  0  0  0
 12 15  1  0  0  0  0
 12 16  1  0  0  0  0
 15 17  1  0  0  0  0
 15 18  1  0  0  0  0
 16 19  1  0  0  0  0
 17 20  2  0  0  0  0
 17 21  1  0  0  0  0
 18 22  1  0  0  0  0
 21 23  2  0  0  0  0
 21 24  1  0  0  0  0
 23 25  1  0  0  0  0
 23 26  1  0  0  0  0
 24 27  2  0  0  0  0
 25 28  1  0  0  0  0
 25 29  1  0  0  0  0
 26 30  2  0  0  0  0
 28 31  2  0  0  0  0
 29 32  2  0  0  0  0
  6  8  1  0  0  0  0
 13 14  1  0  0  0  0
 19 22  1  0  0  0  0
 27 30  1  0  0  0  0
 31 32  1  0  0  0  0
M  END
>  <MolRegNo>
2141915

>  <m>
=

>  <Value>
22000

>  <Unit>
nM

>  <Type>
IC50

>  <pValue>
4.66

>  <Ligand Efficiency>
0.2

>  <Binding Efficiency>
10.75

>  <Surface Efficiency>
5.12

>  <Assay Index>
1058329

>  <Assay Category>


>  <Assay Organism>
Homo sapiens

>  <Target ID>
17045

>  <Target Name>
Cytochrome P450 3A4

>  <Target Organism>
Homo sapiens

>  <Target Description>
Target is a single protein chain

>  <Sequence Accession>
P08684

>  <Reference>


>  <Pubmed ID>


>  <DOI>


$$$$
2180487
Actelion Java MolfileCreator 1.0

 33 37  0  0  1  0  0  0  0  0999 V2000
    0.0000   -0.0000   -0.0000 F   0  0  0  0  0  0  0  0  0  0  0  0
    1.0484    0.6146   -0.0000 C   0  0  0  0  0  0  0  0  0  0  0  0
    1.0484    2.1571   -0.0000 C   0  0  0  0  0  0  0  0  0  0  0  0
    2.3499   -0.1446   -0.0000 C   0  0  0  0  0  0  0  0  0  0  0  0
    2.3619    2.9283   -0.0000 C   0  0  0  0  0  0  0  0  0  0  0  0
    3.6634    0.6266   -0.0000 C   0  0  0  0  0  0  0  0  0  0  0  0
    2.3619    4.4708   -0.0000 N   0  0  0  0  0  0  0  0  0  0  0  0
    3.6634    2.1691   -0.0000 C   0  0  0  0  0  0  0  0  0  0  0  0
    4.9769   -0.1326   -0.0000 C   0  0  0  0  0  0  0  0  0  0  0  0
    1.1207    5.3746   -0.0000 N   0  0  0  0  0  0  0  0  0  0  0  0
    3.5911    5.3505   -0.0000 N   0  0  0  0  0  0  0  0  0  0  0  0
    6.2904    0.6387   -0.0000 C   0  0  0  0  0  0  0  0  0  0  0  0
    1.5907    6.8327   -0.0000 C   0  0  0  0  0  0  0  0  0  0  0  0
    3.1211    6.8207   -0.0000 C   0  0  0  0  0  0  0  0  0  0  0  0
    7.6040   -0.1205   -0.0000 N   0  0  0  0  0  0  0  0  0  0  0  0
    6.2784    2.1812   -0.0000 C   0  0  0  0  0  0  0  0  0  0  0  0
    7.5919   -1.6389   -0.0000 C   0  0  0  0  0  0  0  0  0  0  0  0
    8.9175    0.6507   -0.0000 C   0  0  0  0  0  0  0  0  0  0  0  0
    7.5919    2.9524   -0.0000 O   0  0  0  0  0  0  0  0  0  0  0  0
    6.5194   -2.2414   -0.0000 O   0  0  0  0  0  0  0  0  0  0  0  0
    8.9054   -2.3981   -0.0000 C   0  0  0  0  0  0  0  0  0  0  0  0
    8.9054    2.1932   -0.0000 C   0  0  0  0  0  0  0  0  0  0  0  0
    8.8934   -3.9165   -0.0000 C   0  0  0  0  0  0  0  0  0  0  0  0
   10.2190   -1.6268   -0.0000 C   0  0  0  0  0  0  0  0  0  0  0  0
    7.5558   -4.6636   -0.0000 N   0  0  0  0  0  0  0  0  0  0  0  0
   10.2069   -4.6636   -0.0000 C   0  0  0  0  0  0  0  0  0  0  0  0
   11.5325   -2.3740   -0.0000 C   0  0  0  0  0  0  0  0  0  0  0  0
    6.1699   -4.0249   -0.0000 N   0  0  0  0  0  0  0  0  0  0  0  0
    7.4112   -6.1579   -0.0000 N   0  0  0  0  0  0  0  0  0  0  0  0
   11.5204   -3.8924   -0.0000 C   0  0  0  0  0  0  0  0  0  0  0  0
    5.1336   -5.1456   -0.0000 C   0  0  0  0  0  0  0  0  0  0  0  0
    5.9048   -6.4712   -0.0000 C   0  0  0  0  0  0  0  0  0  0  0  0
   12.5688   -4.4949   -0.0000 C   0  0  0  0  0  0  0  0  0  0  0  0
  1  2  1  0  0  0  0
  2  3  2  0  0  0  0
  2  4  1  0  0  0  0
  3  5  1  0  0  0  0
  4  6  2  0  0  0  0
  5  7  1  0  0  0  0
  5  8  2  0  0  0  0
  6  9  1  0  0  0  0
  7 10  1  0  0  0  0
  7 11  1  0  0  0  0
 12  9  1  6  0  0  0
 10 13  2  0  0  0  0
 11 14  2  0  0  0  0
 12 15  1  0  0  0  0
 12 16  1  0  0  0  0
 15 17  1  0  0  0  0
 15 18  1  0  0  0  0
 16 19  1  0  0  0  0
 17 20  2  0  0  0  0
 17 21  1  0  0  0  0
 18 22  1  0  0  0  0
 21 23  2  0  0  0  0
 21 24  1  0  0  0  0
 23 25  1  0  0  0  0
 23 26  1  0  0  0  0
 24 27  2  0  0  0  0
 25 28  1  0  0  0  0
 25 29  1  0  0  0  0
 26 30  2  0  0  0  0
 28 31  2  0  0  0  0
 29 32  2  0  0  0  0
 30 33  1  0  0  0  0
  6  8  1  0  0  0  0
 13 14  1  0  0  0  0
 19 22  1  0  0  0  0
 27 30  1  0  0  0  0
 31 32  1  0  0  0  0
M  END
>  <MolRegNo>
2180487

>  <m>
=

>  <Value>
40000

>  <Unit>
nM

>  <Type>
IC50

>  <pValue>
4.4

>  <Ligand Efficiency>
0.18

>  <Binding Efficiency>
9.83

>  <Surface Efficiency>
4.84

>  <Assay Index>
1058329

>  <Assay Category>


>  <Assay Organism>
Homo sapiens

>  <Target ID>
17045

>  <Target Name>
Cytochrome P450 3A4

>  <Target Organism>
Homo sapiens

>  <Target Description>
Target is a single protein chain

>  <Sequence Accession>
P08684

>  <Reference>


>  <Pubmed ID>


>  <DOI>


$$$$
2118594
Actelion Java MolfileCreator 1.0

 35 39  0  0  1  0  0  0  0  0999 V2000
    0.0000   -0.0000   -0.0000 F   0  0  0  0  0  0  0  0  0  0  0  0
    1.0517    0.6165   -0.0000 C   0  0  0  0  0  0  0  0  0  0  0  0
    2.3693   -0.1451   -0.0000 C   0  0  0  0  0  0  0  0  0  0  0  0
    1.0396    2.1638   -0.0000 C   0  0  0  0  0  0  0  0  0  0  0  0
    3.6869    0.6286   -0.0000 C   0  0  0  0  0  0  0  0  0  0  0  0
    2.3572   -1.6682   -0.0000 C   0  0  0  0  0  0  0  0  0  0  0  0
    2.3572    2.9375   -0.0000 C   0  0  0  0  0  0  0  0  0  0  0  0
    3.6749    2.1759   -0.0000 C   0  0  0  0  0  0  0  0  0  0  0  0
    3.6749   -2.4298   -0.0000 C   0  0  0  0  0  0  0  0  0  0  0  0
    4.9925    2.9496   -0.0000 C   0  0  0  0  0  0  0  0  0  0  0  0
    4.9925   -1.6561   -0.0000 N   0  0  0  0  0  0  0  0  0  0  0  0
    3.6628   -3.9529   -0.0000 C   0  0  0  0  0  0  0  0  0  0  0  0
    6.3101    2.1880   -0.0000 N   0  0  0  0  0  0  0  0  0  0  0  0
    4.9804    4.4969   -0.0000 N   0  0  0  0  0  0  0  0  0  0  0  0
    4.9804   -0.1088   -0.0000 C   0  0  0  0  0  0  0  0  0  0  0  0
    6.3101   -2.4056   -0.0000 C   0  0  0  0  0  0  0  0  0  0  0  0
    4.9804   -4.7024   -0.0000 O   0  0  0  0  0  0  0  0  0  0  0  0
    7.6278    2.9616   -0.0000 C   0  0  0  0  0  0  0  0  0  0  0  0
    6.2980    5.2705   -0.0000 C   0  0  0  0  0  0  0  0  0  0  0  0
    3.9045    0.5198   -0.0000 O   0  0  0  0  0  0  0  0  0  0  0  0
    6.2980    0.6649   -0.0000 C   0  0  0  0  0  0  0  0  0  0  0  0
    6.2980   -3.9287   -0.0000 C   0  0  0  0  0  0  0  0  0  0  0  0
    7.6157    4.5090   -0.0000 C   0  0  0  0  0  0  0  0  0  0  0  0
    6.2859    2.2122   -0.0000 C   0  0  0  0  0  0  0  0  0  0  0  0
    7.6157   -0.0967   -0.0000 C   0  0  0  0  0  0  0  0  0  0  0  0
    7.3497   -4.5331   -0.0000 C   0  0  0  0  0  0  0  0  0  0  0  0
    4.9441    2.9979   -0.0000 N   0  0  0  0  0  0  0  0  0  0  0  0
    7.6036    2.9858   -0.0000 C   0  0  0  0  0  0  0  0  0  0  0  0
    8.9333    0.6769   -0.0000 C   0  0  0  0  0  0  0  0  0  0  0  0
    3.5419    2.3814   -0.0000 N   0  0  0  0  0  0  0  0  0  0  0  0
    4.7991    4.5210   -0.0000 N   0  0  0  0  0  0  0  0  0  0  0  0
    8.9212    2.2243   -0.0000 C   0  0  0  0  0  0  0  0  0  0  0  0
    9.9850    0.0725   -0.0000 C   0  0  0  0  0  0  0  0  0  0  0  0
    2.5144    3.5419   -0.0000 C   0  0  0  0  0  0  0  0  0  0  0  0
    3.2880    4.8595   -0.0000 C   0  0  0  0  0  0  0  0  0  0  0  0
  1  2  1  0  0  0  0
  2  3  2  0  0  0  0
  2  4  1  0  0  0  0
  3  5  1  0  0  0  0
  3  6  1  0  0  0  0
  4  7  2  0  0  0  0
  5  8  2  0  0  0  0
  9  6  1  1  0  0  0
  8 10  1  0  0  0  0
  9 11  1  0  0  0  0
  9 12  1  0  0  0  0
 10 13  2  0  0  0  0
 10 14  1  0  0  0  0
 11 15  1  0  0  0  0
 11 16  1  0  0  0  0
 12 17  1  0  0  0  0
 13 18  1  0  0  0  0
 14 19  2  0  0  0  0
 15 20  2  0  0  0  0
 15 21  1  0  0  0  0
 16 22  1  0  0  0  0
 18 23  2  0  0  0  0
 21 24  2  0  0  0  0
 21 25  1  0  0  0  0
 22 26  1  1  0  0  0
 24 27  1  0  0  0  0
 24 28  1  0  0  0  0
 25 29  2  0  0  0  0
 27 30  1  0  0  0  0
 27 31  1  0  0  0  0
 28 32  2  0  0  0  0
 29 33  1  0  0  0  0
 30 34  2  0  0  0  0
 31 35  2  0  0  0  0
  7  8  1  0  0  0  0
 17 22  1  0  0  0  0
 19 23  1  0  0  0  0
 29 32  1  0  0  0  0
 34 35  1  0  0  0  0
M  END
>  <MolRegNo>
2118594

>  <m>
=

>  <Value>
28000

>  <Unit>
nM

>  <Type>
IC50

>  <pValue>
4.55

>  <Ligand Efficiency>
0.18

>  <Binding Efficiency>
9.64

>  <Surface Efficiency>
5.29

>  <Assay Index>
1058329

>  <Assay Category>


>  <Assay Organism>
Homo sapiens

>  <Target ID>
17045

>  <Target Name>
Cytochrome P450 3A4

>  <Target Organism>
Homo sapiens

>  <Target Description>
Target is a single protein chain

>  <Sequence Accession>
P08684

>  <Reference>


>  <Pubmed ID>


>  <DOI>


$$$$
2172273
Actelion Java MolfileCreator 1.0

 35 39  0  0  1  0  0  0  0  0999 V2000
    0.0000   -0.0000   -0.0000 F   0  0  0  0  0  0  0  0  0  0  0  0
    1.0516    0.6164   -0.0000 C   0  0  0  0  0  0  0  0  0  0  0  0
    2.3691   -0.1450   -0.0000 C   0  0  0  0  0  0  0  0  0  0  0  0
    1.0395    2.1636   -0.0000 C   0  0  0  0  0  0  0  0  0  0  0  0
    3.6866    0.6285   -0.0000 C   0  0  0  0  0  0  0  0  0  0  0  0
    2.3570   -1.6680   -0.0000 C   0  0  0  0  0  0  0  0  0  0  0  0
    2.3570    2.9372   -0.0000 C   0  0  0  0  0  0  0  0  0  0  0  0
    3.6745    2.1757   -0.0000 C   0  0  0  0  0  0  0  0  0  0  0  0
    3.6745   -2.4295   -0.0000 C   0  0  0  0  0  0  0  0  0  0  0  0
    4.9920    2.9493   -0.0000 C   0  0  0  0  0  0  0  0  0  0  0  0
    4.9920   -1.6559   -0.0000 N   0  0  0  0  0  0  0  0  0  0  0  0
    3.6624   -3.9525   -0.0000 C   0  0  0  0  0  0  0  0  0  0  0  0
    6.3095    2.1878   -0.0000 N   0  0  0  0  0  0  0  0  0  0  0  0
    4.9799    4.4964   -0.0000 N   0  0  0  0  0  0  0  0  0  0  0  0
    4.9799   -0.1088   -0.0000 C   0  0  0  0  0  0  0  0  0  0  0  0
    6.3095   -2.4053   -0.0000 C   0  0  0  0  0  0  0  0  0  0  0  0
    4.9799   -4.7019   -0.0000 O   0  0  0  0  0  0  0  0  0  0  0  0
    7.6270    2.9613   -0.0000 C   0  0  0  0  0  0  0  0  0  0  0  0
    6.2974    5.2700   -0.0000 C   0  0  0  0  0  0  0  0  0  0  0  0
    3.9041    0.5197   -0.0000 O   0  0  0  0  0  0  0  0  0  0  0  0
    6.2974    0.6648   -0.0000 C   0  0  0  0  0  0  0  0  0  0  0  0
    6.2974   -3.9283   -0.0000 C   0  0  0  0  0  0  0  0  0  0  0  0
    7.6149    4.5085   -0.0000 C   0  0  0  0  0  0  0  0  0  0  0  0
    6.2853    2.2119   -0.0000 C   0  0  0  0  0  0  0  0  0  0  0  0
    7.6149   -0.0967   -0.0000 C   0  0  0  0  0  0  0  0  0  0  0  0
    7.3490   -4.5327   -0.0000 C   0  0  0  0  0  0  0  0  0  0  0  0
    4.9436    2.9976   -0.0000 N   0  0  0  0  0  0  0  0  0  0  0  0
    7.6028    2.9855   -0.0000 C   0  0  0  0  0  0  0  0  0  0  0  0
    8.9324    0.6769   -0.0000 C   0  0  0  0  0  0  0  0  0  0  0  0
    3.5415    2.3812   -0.0000 N   0  0  0  0  0  0  0  0  0  0  0  0
    4.7986    4.5206   -0.0000 N   0  0  0  0  0  0  0  0  0  0  0  0
    8.9203    2.2240   -0.0000 C   0  0  0  0  0  0  0  0  0  0  0  0
    2.5141    3.5415   -0.0000 C   0  0  0  0  0  0  0  0  0  0  0  0
    3.2877    4.8590   -0.0000 C   0  0  0  0  0  0  0  0  0  0  0  0
    9.9719    2.8405   -0.0000 C   0  0  0  0  0  0  0  0  0  0  0  0
  1  2  1  0  0  0  0
  2  3  2  0  0  0  0
  2  4  1  0  0  0  0
  3  5  1  0  0  0  0
  3  6  1  0  0  0  0
  4  7  2  0  0  0  0
  5  8  2  0  0  0  0
  9  6  1  1  0  0  0
  8 10  1  0  0  0  0
  9 11  1  0  0  0  0
  9 12  1  0  0  0  0
 10 13  2  0  0  0  0
 10 14  1  0  0  0  0
 11 15  1  0  0  0  0
 11 16  1  0  0  0  0
 12 17  1  0  0  0  0
 13 18  1  0  0  0  0
 14 19  2  0  0  0  0
 15 20  2  0  0  0  0
 15 21  1  0  0  0  0
 16 22  1  0  0  0  0
 18 23  2  0  0  0  0
 21 24  2  0  0  0  0
 21 25  1  0  0  0  0
 22 26  1  1  0  0  0
 24 27  1  0  0  0  0
 24 28  1  0  0  0  0
 25 29  2  0  0  0  0
 27 30  1  0  0  0  0
 27 31  1  0  0  0  0
 28 32  2  0  0  0  0
 30 33  2  0  0  0  0
 31 34  2  0  0  0  0
 32 35  1  0  0  0  0
  7  8  1  0  0  0  0
 17 22  1  0  0  0  0
 19 23  1  0  0  0  0
 29 32  1  0  0  0  0
 33 34  1  0  0  0  0
M  END
>  <MolRegNo>
2172273

>  <m>
=

>  <Value>
31000

>  <Unit>
nM

>  <Type>
IC50

>  <pValue>
4.51

>  <Ligand Efficiency>
0.18

>  <Binding Efficiency>
9.54

>  <Surface Efficiency>
5.24

>  <Assay Index>
1058329

>  <Assay Category>


>  <Assay Organism>
Homo sapiens

>  <Target ID>
17045

>  <Target Name>
Cytochrome P450 3A4

>  <Target Organism>
Homo sapiens

>  <Target Description>
Target is a single protein chain

>  <Sequence Accession>
P08684

>  <Reference>


>  <Pubmed ID>


>  <DOI>


$$$$
2110484
Actelion Java MolfileCreator 1.0

 35 39  0  0  1  0  0  0  0  0999 V2000
    0.0000   -0.0000   -0.0000 F   0  0  0  0  0  0  0  0  0  0  0  0
    1.0511    0.6162   -0.0000 C   0  0  0  0  0  0  0  0  0  0  0  0
    2.3680   -0.1450   -0.0000 C   0  0  0  0  0  0  0  0  0  0  0  0
    1.0390    2.1626   -0.0000 C   0  0  0  0  0  0  0  0  0  0  0  0
    3.6849    0.6282   -0.0000 C   0  0  0  0  0  0  0  0  0  0  0  0
    2.3559   -1.6673   -0.0000 C   0  0  0  0  0  0  0  0  0  0  0  0
    2.3559    2.9359   -0.0000 C   0  0  0  0  0  0  0  0  0  0  0  0
    3.6728    2.1747   -0.0000 C   0  0  0  0  0  0  0  0  0  0  0  0
    3.6728   -2.4284   -0.0000 C   0  0  0  0  0  0  0  0  0  0  0  0
    4.9897    2.9479   -0.0000 C   0  0  0  0  0  0  0  0  0  0  0  0
    4.9897   -1.6552   -0.0000 N   0  0  0  0  0  0  0  0  0  0  0  0
    3.6608   -3.9507   -0.0000 C   0  0  0  0  0  0  0  0  0  0  0  0
    6.3067    2.1868   -0.0000 N   0  0  0  0  0  0  0  0  0  0  0  0
    4.9777    4.4944   -0.0000 N   0  0  0  0  0  0  0  0  0  0  0  0
    4.9777   -0.1087   -0.0000 C   0  0  0  0  0  0  0  0  0  0  0  0
    6.3067   -2.4043   -0.0000 C   0  0  0  0  0  0  0  0  0  0  0  0
    4.9777   -4.6998   -0.0000 O   0  0  0  0  0  0  0  0  0  0  0  0
    7.6236    2.9600   -0.0000 C   0  0  0  0  0  0  0  0  0  0  0  0
    6.2946    5.2676   -0.0000 C   0  0  0  0  0  0  0  0  0  0  0  0
    3.9024    0.5195   -0.0000 O   0  0  0  0  0  0  0  0  0  0  0  0
    6.2946    0.6645   -0.0000 C   0  0  0  0  0  0  0  0  0  0  0  0
    6.2946   -3.9266   -0.0000 C   0  0  0  0  0  0  0  0  0  0  0  0
    7.6115    4.5065   -0.0000 C   0  0  0  0  0  0  0  0  0  0  0  0
    6.2825    2.2110   -0.0000 C   0  0  0  0  0  0  0  0  0  0  0  0
    7.6115   -0.0967   -0.0000 C   0  0  0  0  0  0  0  0  0  0  0  0
    7.3457   -4.5306   -0.0000 C   0  0  0  0  0  0  0  0  0  0  0  0
    4.9414    2.9963   -0.0000 N   0  0  0  0  0  0  0  0  0  0  0  0
    7.5994    2.9842   -0.0000 C   0  0  0  0  0  0  0  0  0  0  0  0
    8.9284    0.6766   -0.0000 C   0  0  0  0  0  0  0  0  0  0  0  0
    3.5399    2.3801   -0.0000 N   0  0  0  0  0  0  0  0  0  0  0  0
    4.7964    4.5186   -0.0000 N   0  0  0  0  0  0  0  0  0  0  0  0
    8.9163    2.2230   -0.0000 C   0  0  0  0  0  0  0  0  0  0  0  0
    7.5873    4.2286   -0.0000 C   0  0  0  0  0  0  0  0  0  0  0  0
    2.5130    3.5399   -0.0000 C   0  0  0  0  0  0  0  0  0  0  0  0
    3.2862    4.8568   -0.0000 C   0  0  0  0  0  0  0  0  0  0  0  0
  1  2  1  0  0  0  0
  2  3  2  0  0  0  0
  2  4  1  0  0  0  0
  3  5  1  0  0  0  0
  3  6  1  0  0  0  0
  4  7  2  0  0  0  0
  5  8  2  0  0  0  0
  9  6  1  1  0  0  0
  8 10  1  0  0  0  0
  9 11  1  0  0  0  0
  9 12  1  0  0  0  0
 10 13  2  0  0  0  0
 10 14  1  0  0  0  0
 11 15  1  0  0  0  0
 11 16  1  0  0  0  0
 12 17  1  0  0  0  0
 13 18  1  0  0  0  0
 14 19  2  0  0  0  0
 15 20  2  0  0  0  0
 15 21  1  0  0  0  0
 16 22  1  0  0  0  0
 18 23  2  0  0  0  0
 21 24  2  0  0  0  0
 21 25  1  0  0  0  0
 22 26  1  1  0  0  0
 24 27  1  0  0  0  0
 24 28  1  0  0  0  0
 25 29  2  0  0  0  0
 27 30  1  0  0  0  0
 27 31  1  0  0  0  0
 28 32  2  0  0  0  0
 28 33  1  0  0  0  0
 30 34  2  0  0  0  0
 31 35  2  0  0  0  0
  7  8  1  0  0  0  0
 17 22  1  0  0  0  0
 19 23  1  0  0  0  0
 29 32  1  0  0  0  0
 34 35  1  0  0  0  0
M  END
>  <MolRegNo>
2110484

>  <m>
=

>  <Value>
32000

>  <Unit>
nM

>  <Type>
IC50

>  <pValue>
4.5

>  <Ligand Efficiency>
0.18

>  <Binding Efficiency>
9.51

>  <Surface Efficiency>
5.22

>  <Assay Index>
1058329

>  <Assay Category>


>  <Assay Organism>
Homo sapiens

>  <Target ID>
17045

>  <Target Name>
Cytochrome P450 3A4

>  <Target Organism>
Homo sapiens

>  <Target Description>
Target is a single protein chain

>  <Sequence Accession>
P08684

>  <Reference>


>  <Pubmed ID>


>  <DOI>


$$$$
2134697
Actelion Java MolfileCreator 1.0

 35 39  0  0  1  0  0  0  0  0999 V2000
    0.0000   -0.0000   -0.0000 Cl  0  0  0  0  0  0  0  0  0  0  0  0
   -1.0712    0.6259   -0.0000 C   0  0  0  0  0  0  0  0  0  0  0  0
   -2.4073   -0.1204   -0.0000 C   0  0  0  0  0  0  0  0  0  0  0  0
   -1.0833    2.1666   -0.0000 C   0  0  0  0  0  0  0  0  0  0  0  0
   -3.7433    0.6620   -0.0000 C   0  0  0  0  0  0  0  0  0  0  0  0
   -2.4193    2.9489   -0.0000 C   0  0  0  0  0  0  0  0  0  0  0  0
   -3.7554    2.2027   -0.0000 C   0  0  0  0  0  0  0  0  0  0  0  0
   -5.0794   -0.0843   -0.0000 C   0  0  0  0  0  0  0  0  0  0  0  0
   -5.0914    2.9850   -0.0000 N   0  0  0  0  0  0  0  0  0  0  0  0
   -6.1506    0.5416   -0.0000 O   0  0  0  0  0  0  0  0  0  0  0  0
   -5.0914   -1.6008   -0.0000 N   0  0  0  0  0  0  0  0  0  0  0  0
   -6.4877    2.3712   -0.0000 N   0  0  0  0  0  0  0  0  0  0  0  0
   -5.2359    4.5016   -0.0000 N   0  0  0  0  0  0  0  0  0  0  0  0
   -6.4275   -2.3471   -0.0000 C   0  0  0  0  0  0  0  0  0  0  0  0
   -3.7794   -2.3471   -0.0000 C   0  0  0  0  0  0  0  0  0  0  0  0
   -7.5108    3.5267   -0.0000 C   0  0  0  0  0  0  0  0  0  0  0  0
   -6.7404    4.8387   -0.0000 C   0  0  0  0  0  0  0  0  0  0  0  0
   -6.4395   -3.8637   -0.0000 C   0  0  0  0  0  0  0  0  0  0  0  0
   -7.7635   -1.5647   -0.0000 C   0  0  0  0  0  0  0  0  0  0  0  0
   -3.7915   -3.8637   -0.0000 C   0  0  0  0  0  0  0  0  0  0  0  0
   -5.1275   -4.6100   -0.0000 O   0  0  0  0  0  0  0  0  0  0  0  0
   -7.7756   -0.0241   -0.0000 C   0  0  0  0  0  0  0  0  0  0  0  0
   -2.7443   -4.4655   -0.0000 C   0  0  0  0  0  0  0  0  0  0  0  0
   -9.1116    0.7583   -0.0000 C   0  0  0  0  0  0  0  0  0  0  0  0
   -6.4636    0.7463   -0.0000 C   0  0  0  0  0  0  0  0  0  0  0  0
  -10.1828    0.1685   -0.0000 F   0  0  0  0  0  0  0  0  0  0  0  0
   -9.1236    2.2990   -0.0000 C   0  0  0  0  0  0  0  0  0  0  0  0
   -6.4756    2.2869   -0.0000 C   0  0  0  0  0  0  0  0  0  0  0  0
   -7.8117    3.0693   -0.0000 C   0  0  0  0  0  0  0  0  0  0  0  0
   -5.1636    3.0573   -0.0000 C   0  0  0  0  0  0  0  0  0  0  0  0
   -3.8517    2.2990   -0.0000 N   0  0  0  0  0  0  0  0  0  0  0  0
   -5.1757    4.5979   -0.0000 N   0  0  0  0  0  0  0  0  0  0  0  0
   -2.5397    3.0693   -0.0000 C   0  0  0  0  0  0  0  0  0  0  0  0
   -3.8637    5.3683   -0.0000 C   0  0  0  0  0  0  0  0  0  0  0  0
   -2.5517    4.6100   -0.0000 C   0  0  0  0  0  0  0  0  0  0  0  0
  1  2  1  0  0  0  0
  2  3  2  0  0  0  0
  2  4  1  0  0  0  0
  3  5  1  0  0  0  0
  4  6  2  0  0  0  0
  5  7  2  0  0  0  0
  5  8  1  0  0  0  0
  7  9  1  0  0  0  0
  8 10  2  0  0  0  0
  8 11  1  0  0  0  0
  9 12  1  0  0  0  0
  9 13  1  0  0  0  0
 11 14  1  0  0  0  0
 11 15  1  0  0  0  0
 12 16  2  0  0  0  0
 13 17  2  0  0  0  0
 14 18  1  0  0  0  0
 14 19  1  1  0  0  0
 15 20  1  0  0  0  0
 18 21  1  0  0  0  0
 19 22  1  0  0  0  0
 20 23  1  1  0  0  0
 22 24  2  0  0  0  0
 22 25  1  0  0  0  0
 24 26  1  0  0  0  0
 24 27  1  0  0  0  0
 25 28  2  0  0  0  0
 27 29  2  0  0  0  0
 28 30  1  0  0  0  0
 30 31  2  0  0  0  0
 30 32  1  0  0  0  0
 31 33  1  0  0  0  0
 32 34  2  0  0  0  0
 33 35  2  0  0  0  0
  6  7  1  0  0  0  0
 16 17  1  0  0  0  0
 20 21  1  0  0  0  0
 28 29  1  0  0  0  0
 34 35  1  0  0  0  0
M  END
>  <MolRegNo>
2134697

>  <m>
=

>  <Value>
15000

>  <Unit>
nM

>  <Type>
IC50

>  <pValue>
4.82

>  <Ligand Efficiency>
0.19

>  <Binding Efficiency>
9.79

>  <Surface Efficiency>
5.61

>  <Assay Index>
1058329

>  <Assay Category>


>  <Assay Organism>
Homo sapiens

>  <Target ID>
17045

>  <Target Name>
Cytochrome P450 3A4

>  <Target Organism>
Homo sapiens

>  <Target Description>
Target is a single protein chain

>  <Sequence Accession>
P08684

>  <Reference>


>  <Pubmed ID>


>  <DOI>


$$$$
2158964
Actelion Java MolfileCreator 1.0

 35 39  0  0  1  0  0  0  0  0999 V2000
    0.0000   -0.0000   -0.0000 Cl  0  0  0  0  0  0  0  0  0  0  0  0
   -1.0725   -0.5905   -0.0000 C   0  0  0  0  0  0  0  0  0  0  0  0
   -2.4100    0.1928   -0.0000 C   0  0  0  0  0  0  0  0  0  0  0  0
   -1.0845   -2.1088   -0.0000 C   0  0  0  0  0  0  0  0  0  0  0  0
   -3.7476   -0.5543   -0.0000 C   0  0  0  0  0  0  0  0  0  0  0  0
   -2.4221   -2.8559   -0.0000 C   0  0  0  0  0  0  0  0  0  0  0  0
   -5.0851    0.2290   -0.0000 N   0  0  0  0  0  0  0  0  0  0  0  0
   -3.7596   -2.0726   -0.0000 C   0  0  0  0  0  0  0  0  0  0  0  0
   -6.4829   -0.3856   -0.0000 N   0  0  0  0  0  0  0  0  0  0  0  0
   -5.2297    1.7473   -0.0000 N   0  0  0  0  0  0  0  0  0  0  0  0
   -5.0972   -2.8197   -0.0000 C   0  0  0  0  0  0  0  0  0  0  0  0
   -7.5072    0.7712   -0.0000 C   0  0  0  0  0  0  0  0  0  0  0  0
   -6.7360    2.0847   -0.0000 C   0  0  0  0  0  0  0  0  0  0  0  0
   -6.1696   -2.1931   -0.0000 O   0  0  0  0  0  0  0  0  0  0  0  0
   -5.1092   -4.3380   -0.0000 N   0  0  0  0  0  0  0  0  0  0  0  0
   -6.4468   -5.0851   -0.0000 C   0  0  0  0  0  0  0  0  0  0  0  0
   -3.7958   -5.0851   -0.0000 C   0  0  0  0  0  0  0  0  0  0  0  0
   -6.4588   -6.6034   -0.0000 C   0  0  0  0  0  0  0  0  0  0  0  0
   -7.7843   -4.3019   -0.0000 C   0  0  0  0  0  0  0  0  0  0  0  0
   -3.8078   -6.6034   -0.0000 C   0  0  0  0  0  0  0  0  0  0  0  0
   -5.1454   -7.3505   -0.0000 O   0  0  0  0  0  0  0  0  0  0  0  0
   -7.7964   -2.7595   -0.0000 C   0  0  0  0  0  0  0  0  0  0  0  0
   -2.7595   -7.2059   -0.0000 C   0  0  0  0  0  0  0  0  0  0  0  0
   -9.1339   -1.9762   -0.0000 C   0  0  0  0  0  0  0  0  0  0  0  0
   -6.4829   -1.9883   -0.0000 C   0  0  0  0  0  0  0  0  0  0  0  0
  -10.2064   -2.5667   -0.0000 F   0  0  0  0  0  0  0  0  0  0  0  0
   -9.1460   -0.4338   -0.0000 C   0  0  0  0  0  0  0  0  0  0  0  0
   -6.4950   -0.4459   -0.0000 C   0  0  0  0  0  0  0  0  0  0  0  0
   -7.8325    0.3374   -0.0000 C   0  0  0  0  0  0  0  0  0  0  0  0
   -5.1815    0.3254   -0.0000 C   0  0  0  0  0  0  0  0  0  0  0  0
   -3.8681   -0.4338   -0.0000 N   0  0  0  0  0  0  0  0  0  0  0  0
   -5.1936    1.8678   -0.0000 N   0  0  0  0  0  0  0  0  0  0  0  0
   -2.5546    0.3374   -0.0000 C   0  0  0  0  0  0  0  0  0  0  0  0
   -3.8801    2.6390   -0.0000 C   0  0  0  0  0  0  0  0  0  0  0  0
   -2.5667    1.8798   -0.0000 C   0  0  0  0  0  0  0  0  0  0  0  0
  1  2  1  0  0  0  0
  2  3  2  0  0  0  0
  2  4  1  0  0  0  0
  3  5  1  0  0  0  0
  4  6  2  0  0  0  0
  5  7  1  0  0  0  0
  5  8  2  0  0  0  0
  7  9  1  0  0  0  0
  7 10  1  0  0  0  0
  8 11  1  0  0  0  0
  9 12  2  0  0  0  0
 10 13  2  0  0  0  0
 11 14  2  0  0  0  0
 11 15  1  0  0  0  0
 15 16  1  0  0  0  0
 15 17  1  0  0  0  0
 16 18  1  0  0  0  0
 16 19  1  1  0  0  0
 17 20  1  0  0  0  0
 18 21  1  0  0  0  0
 19 22  1  0  0  0  0
 20 23  1  1  0  0  0
 22 24  2  0  0  0  0
 22 25  1  0  0  0  0
 24 26  1  0  0  0  0
 24 27  1  0  0  0  0
 25 28  2  0  0  0  0
 27 29  2  0  0  0  0
 28 30  1  0  0  0  0
 30 31  2  0  0  0  0
 30 32  1  0  0  0  0
 31 33  1  0  0  0  0
 32 34  2  0  0  0  0
 33 35  2  0  0  0  0
  6  8  1  0  0  0  0
 12 13  1  0  0  0  0
 20 21  1  0  0  0  0
 28 29  1  0  0  0  0
 34 35  1  0  0  0  0
M  END
>  <MolRegNo>
2158964

>  <m>
=

>  <Value>
18000

>  <Unit>
nM

>  <Type>
IC50

>  <pValue>
4.75

>  <Ligand Efficiency>
0.19

>  <Binding Efficiency>
9.63

>  <Surface Efficiency>
5.52

>  <Assay Index>
1058329

>  <Assay Category>


>  <Assay Organism>
Homo sapiens

>  <Target ID>
17045

>  <Target Name>
Cytochrome P450 3A4

>  <Target Organism>
Homo sapiens

>  <Target Description>
Target is a single protein chain

>  <Sequence Accession>
P08684

>  <Reference>


>  <Pubmed ID>


>  <DOI>


$$$$
2150329
Actelion Java MolfileCreator 1.0

 35 39  0  0  1  0  0  0  0  0999 V2000
    0.0000   -0.0000   -0.0000 Cl  0  0  0  0  0  0  0  0  0  0  0  0
   -0.0121   -1.2186   -0.0000 C   0  0  0  0  0  0  0  0  0  0  0  0
   -1.3513   -1.9666   -0.0000 C   0  0  0  0  0  0  0  0  0  0  0  0
    1.3030   -1.9787   -0.0000 C   0  0  0  0  0  0  0  0  0  0  0  0
   -2.6905   -1.1824   -0.0000 N   0  0  0  0  0  0  0  0  0  0  0  0
   -1.3634   -3.4868   -0.0000 C   0  0  0  0  0  0  0  0  0  0  0  0
    1.2910   -3.4989   -0.0000 C   0  0  0  0  0  0  0  0  0  0  0  0
   -4.0901   -1.7977   -0.0000 N   0  0  0  0  0  0  0  0  0  0  0  0
   -2.8353    0.3378   -0.0000 N   0  0  0  0  0  0  0  0  0  0  0  0
   -2.7026   -4.2349   -0.0000 C   0  0  0  0  0  0  0  0  0  0  0  0
   -0.0483   -4.2469   -0.0000 C   0  0  0  0  0  0  0  0  0  0  0  0
   -5.1156   -0.6395   -0.0000 C   0  0  0  0  0  0  0  0  0  0  0  0
   -4.3434    0.6756   -0.0000 C   0  0  0  0  0  0  0  0  0  0  0  0
   -3.7764   -3.6075   -0.0000 O   0  0  0  0  0  0  0  0  0  0  0  0
   -2.7147   -5.7551   -0.0000 N   0  0  0  0  0  0  0  0  0  0  0  0
   -4.0539   -6.5031   -0.0000 C   0  0  0  0  0  0  0  0  0  0  0  0
   -1.3996   -6.5031   -0.0000 C   0  0  0  0  0  0  0  0  0  0  0  0
   -4.0659   -8.0233   -0.0000 C   0  0  0  0  0  0  0  0  0  0  0  0
   -5.3931   -5.7189   -0.0000 C   0  0  0  0  0  0  0  0  0  0  0  0
   -1.4116   -8.0233   -0.0000 C   0  0  0  0  0  0  0  0  0  0  0  0
   -2.7508   -8.7713   -0.0000 O   0  0  0  0  0  0  0  0  0  0  0  0
   -5.4052   -4.1745   -0.0000 C   0  0  0  0  0  0  0  0  0  0  0  0
   -0.3620   -8.6266   -0.0000 C   0  0  0  0  0  0  0  0  0  0  0  0
   -6.7444   -3.3903   -0.0000 C   0  0  0  0  0  0  0  0  0  0  0  0
   -4.0901   -3.4024   -0.0000 C   0  0  0  0  0  0  0  0  0  0  0  0
   -7.8182   -3.9815   -0.0000 F   0  0  0  0  0  0  0  0  0  0  0  0
   -6.7565   -1.8460   -0.0000 C   0  0  0  0  0  0  0  0  0  0  0  0
   -4.1021   -1.8580   -0.0000 C   0  0  0  0  0  0  0  0  0  0  0  0
   -5.4414   -1.0738   -0.0000 C   0  0  0  0  0  0  0  0  0  0  0  0
   -2.7870   -1.0859   -0.0000 C   0  0  0  0  0  0  0  0  0  0  0  0
   -1.4719   -1.8460   -0.0000 N   0  0  0  0  0  0  0  0  0  0  0  0
   -2.7991    0.4585   -0.0000 N   0  0  0  0  0  0  0  0  0  0  0  0
   -0.1568   -1.0738   -0.0000 C   0  0  0  0  0  0  0  0  0  0  0  0
   -1.4840    1.2306   -0.0000 C   0  0  0  0  0  0  0  0  0  0  0  0
   -0.1689    0.4705   -0.0000 C   0  0  0  0  0  0  0  0  0  0  0  0
  1  2  1  0  0  0  0
  2  3  2  0  0  0  0
  2  4  1  0  0  0  0
  3  5  1  0  0  0  0
  3  6  1  0  0  0  0
  4  7  2  0  0  0  0
  5  8  1  0  0  0  0
  5  9  1  0  0  0  0
  6 10  1  0  0  0  0
  6 11  2  0  0  0  0
  8 12  2  0  0  0  0
  9 13  2  0  0  0  0
 10 14  2  0  0  0  0
 10 15  1  0  0  0  0
 15 16  1  0  0  0  0
 15 17  1  0  0  0  0
 16 18  1  0  0  0  0
 16 19  1  1  0  0  0
 17 20  1  0  0  0  0
 18 21  1  0  0  0  0
 19 22  1  0  0  0  0
 20 23  1  1  0  0  0
 22 24  2  0  0  0  0
 22 25  1  0  0  0  0
 24 26  1  0  0  0  0
 24 27  1  0  0  0  0
 25 28  2  0  0  0  0
 27 29  2  0  0  0  0
 28 30  1  0  0  0  0
 30 31  2  0  0  0  0
 30 32  1  0  0  0  0
 31 33  1  0  0  0  0
 32 34  2  0  0  0  0
 33 35  2  0  0  0  0
  7 11  1  0  0  0  0
 12 13  1  0  0  0  0
 20 21  1  0  0  0  0
 28 29  1  0  0  0  0
 34 35  1  0  0  0  0
M  END
>  <MolRegNo>
2150329

>  <m>
=

>  <Value>
24000

>  <Unit>
nM

>  <Type>
IC50

>  <pValue>
4.62

>  <Ligand Efficiency>
0.18

>  <Binding Efficiency>
9.37

>  <Surface Efficiency>
5.37

>  <Assay Index>
1058329

>  <Assay Category>


>  <Assay Organism>
Homo sapiens

>  <Target ID>
17045

>  <Target Name>
Cytochrome P450 3A4

>  <Target Organism>
Homo sapiens

>  <Target Description>
Target is a single protein chain

>  <Sequence Accession>
P08684

>  <Reference>


>  <Pubmed ID>


>  <DOI>


$$$$
2179875
Actelion Java MolfileCreator 1.0

 34 38  0  0  1  0  0  0  0  0999 V2000
    0.0000   -0.0000   -0.0000 F   0  0  0  0  0  0  0  0  0  0  0  0
    0.0000   -1.2166   -0.0000 C   0  0  0  0  0  0  0  0  0  0  0  0
    1.3130   -1.9634   -0.0000 C   0  0  0  0  0  0  0  0  0  0  0  0
   -1.3250   -1.9755   -0.0000 C   0  0  0  0  0  0  0  0  0  0  0  0
    1.3130   -3.4811   -0.0000 C   0  0  0  0  0  0  0  0  0  0  0  0
    2.6259   -1.1805   -0.0000 C   0  0  0  0  0  0  0  0  0  0  0  0
   -1.3250   -3.4932   -0.0000 C   0  0  0  0  0  0  0  0  0  0  0  0
   -0.0120   -4.2400   -0.0000 C   0  0  0  0  0  0  0  0  0  0  0  0
    3.9389   -1.9273   -0.0000 C   0  0  0  0  0  0  0  0  0  0  0  0
   -0.0120   -5.7577   -0.0000 C   0  0  0  0  0  0  0  0  0  0  0  0
    5.2518   -1.1443   -0.0000 N   0  0  0  0  0  0  0  0  0  0  0  0
    3.9268   -3.4450   -0.0000 C   0  0  0  0  0  0  0  0  0  0  0  0
    1.3009   -6.5046   -0.0000 N   0  0  0  0  0  0  0  0  0  0  0  0
   -1.3491   -6.5166   -0.0000 N   0  0  0  0  0  0  0  0  0  0  0  0
    5.2398    0.3975   -0.0000 C   0  0  0  0  0  0  0  0  0  0  0  0
    6.5648   -1.8911   -0.0000 C   0  0  0  0  0  0  0  0  0  0  0  0
    5.2398   -4.1918   -0.0000 O   0  0  0  0  0  0  0  0  0  0  0  0
    1.3009   -8.0223   -0.0000 C   0  0  0  0  0  0  0  0  0  0  0  0
   -1.3491   -8.0343   -0.0000 C   0  0  0  0  0  0  0  0  0  0  0  0
    4.1677    1.0239   -0.0000 O   0  0  0  0  0  0  0  0  0  0  0  0
    6.5527    1.1805   -0.0000 C   0  0  0  0  0  0  0  0  0  0  0  0
    6.5527   -3.4089   -0.0000 C   0  0  0  0  0  0  0  0  0  0  0  0
   -0.0361   -8.7812   -0.0000 C   0  0  0  0  0  0  0  0  0  0  0  0
    6.5407    2.7223   -0.0000 C   0  0  0  0  0  0  0  0  0  0  0  0
    7.8657    0.4336   -0.0000 C   0  0  0  0  0  0  0  0  0  0  0  0
    5.2036    3.4932   -0.0000 N   0  0  0  0  0  0  0  0  0  0  0  0
    7.8537    3.4932   -0.0000 C   0  0  0  0  0  0  0  0  0  0  0  0
    9.1787    1.2045   -0.0000 C   0  0  0  0  0  0  0  0  0  0  0  0
    5.0471    5.0109   -0.0000 N   0  0  0  0  0  0  0  0  0  0  0  0
    3.8184    2.8668   -0.0000 N   0  0  0  0  0  0  0  0  0  0  0  0
    9.1666    2.7464   -0.0000 C   0  0  0  0  0  0  0  0  0  0  0  0
   10.2266    0.6023   -0.0000 C   0  0  0  0  0  0  0  0  0  0  0  0
    3.5414    5.3361   -0.0000 C   0  0  0  0  0  0  0  0  0  0  0  0
    2.7825    4.0111   -0.0000 C   0  0  0  0  0  0  0  0  0  0  0  0
  1  2  1  0  0  0  0
  2  3  2  0  0  0  0
  2  4  1  0  0  0  0
  3  5  1  0  0  0  0
  3  6  1  0  0  0  0
  4  7  2  0  0  0  0
  5  8  2  0  0  0  0
  9  6  1  1  0  0  0
  8 10  1  0  0  0  0
  9 11  1  0  0  0  0
  9 12  1  0  0  0  0
 10 13  2  0  0  0  0
 10 14  1  0  0  0  0
 11 15  1  0  0  0  0
 11 16  1  0  0  0  0
 12 17  1  0  0  0  0
 13 18  1  0  0  0  0
 14 19  2  0  0  0  0
 15 20  2  0  0  0  0
 15 21  1  0  0  0  0
 16 22  1  0  0  0  0
 18 23  2  0  0  0  0
 21 24  2  0  0  0  0
 21 25  1  0  0  0  0
 24 26  1  0  0  0  0
 24 27  1  0  0  0  0
 25 28  2  0  0  0  0
 26 29  1  0  0  0  0
 26 30  1  0  0  0  0
 27 31  2  0  0  0  0
 28 32  1  0  0  0  0
 29 33  2  0  0  0  0
 30 34  2  0  0  0  0
  7  8  1  0  0  0  0
 17 22  1  0  0  0  0
 19 23  1  0  0  0  0
 28 31  1  0  0  0  0
 33 34  1  0  0  0  0
M  END
>  <MolRegNo>
2179875

>  <m>
=

>  <Value>
30000

>  <Unit>
nM

>  <Type>
IC50

>  <pValue>
4.52

>  <Ligand Efficiency>
0.18

>  <Binding Efficiency>
9.86

>  <Surface Efficiency>
5.26

>  <Assay Index>
1058329

>  <Assay Category>


>  <Assay Organism>
Homo sapiens

>  <Target ID>
17045

>  <Target Name>
Cytochrome P450 3A4

>  <Target Organism>
Homo sapiens

>  <Target Description>
Target is a single protein chain

>  <Sequence Accession>
P08684

>  <Reference>


>  <Pubmed ID>


>  <DOI>


$$$$
2142079
Actelion Java MolfileCreator 1.0

 35 39  0  0  1  0  0  0  0  0999 V2000
    0.0000   -0.0000   -0.0000 F   0  0  0  0  0  0  0  0  0  0  0  0
    0.0000    1.2436   -0.0000 C   0  0  0  0  0  0  0  0  0  0  0  0
    1.3160    2.0163   -0.0000 C   0  0  0  0  0  0  0  0  0  0  0  0
   -1.3281    2.0284   -0.0000 C   0  0  0  0  0  0  0  0  0  0  0  0
    1.3160    3.5618   -0.0000 C   0  0  0  0  0  0  0  0  0  0  0  0
    2.6321    1.2557   -0.0000 C   0  0  0  0  0  0  0  0  0  0  0  0
   -1.3281    3.5739   -0.0000 C   0  0  0  0  0  0  0  0  0  0  0  0
   -0.0121    4.3466   -0.0000 C   0  0  0  0  0  0  0  0  0  0  0  0
    3.9481    2.0284   -0.0000 C   0  0  0  0  0  0  0  0  0  0  0  0
   -0.0121    5.8920   -0.0000 C   0  0  0  0  0  0  0  0  0  0  0  0
    5.2642    1.2678   -0.0000 N   0  0  0  0  0  0  0  0  0  0  0  0
    3.9361    3.5739   -0.0000 C   0  0  0  0  0  0  0  0  0  0  0  0
    1.3040    6.6647   -0.0000 N   0  0  0  0  0  0  0  0  0  0  0  0
   -1.3523    6.6768   -0.0000 N   0  0  0  0  0  0  0  0  0  0  0  0
    5.2521   -0.2536   -0.0000 C   0  0  0  0  0  0  0  0  0  0  0  0
    6.5802    2.0405   -0.0000 C   0  0  0  0  0  0  0  0  0  0  0  0
    5.2521    4.3466   -0.0000 O   0  0  0  0  0  0  0  0  0  0  0  0
    1.3040    8.2102   -0.0000 C   0  0  0  0  0  0  0  0  0  0  0  0
   -1.3523    8.2223   -0.0000 C   0  0  0  0  0  0  0  0  0  0  0  0
    4.1775   -0.8572   -0.0000 O   0  0  0  0  0  0  0  0  0  0  0  0
    6.5682   -1.0142   -0.0000 C   0  0  0  0  0  0  0  0  0  0  0  0
    6.5682    3.5859   -0.0000 C   0  0  0  0  0  0  0  0  0  0  0  0
   -0.0362    8.9950   -0.0000 C   0  0  0  0  0  0  0  0  0  0  0  0
    6.5561   -2.5355   -0.0000 C   0  0  0  0  0  0  0  0  0  0  0  0
    7.8842   -0.2415   -0.0000 C   0  0  0  0  0  0  0  0  0  0  0  0
    5.2159   -3.2841   -0.0000 N   0  0  0  0  0  0  0  0  0  0  0  0
    7.8721   -3.2841   -0.0000 C   0  0  0  0  0  0  0  0  0  0  0  0
    9.2002   -0.9901   -0.0000 C   0  0  0  0  0  0  0  0  0  0  0  0
    3.8274   -2.6442   -0.0000 N   0  0  0  0  0  0  0  0  0  0  0  0
    5.0710   -4.7812   -0.0000 N   0  0  0  0  0  0  0  0  0  0  0  0
    9.1882   -2.5114   -0.0000 C   0  0  0  0  0  0  0  0  0  0  0  0
    7.8601   -4.5035   -0.0000 C   0  0  0  0  0  0  0  0  0  0  0  0
    2.7891   -3.7670   -0.0000 C   0  0  0  0  0  0  0  0  0  0  0  0
    3.5618   -5.0952   -0.0000 C   0  0  0  0  0  0  0  0  0  0  0  0
   10.2386   -3.1150   -0.0000 C   0  0  0  0  0  0  0  0  0  0  0  0
  1  2  1  0  0  0  0
  2  3  2  0  0  0  0
  2  4  1  0  0  0  0
  3  5  1  0  0  0  0
  3  6  1  0  0  0  0
  4  7  2  0  0  0  0
  5  8  2  0  0  0  0
  9  6  1  6  0  0  0
  8 10  1  0  0  0  0
  9 11  1  0  0  0  0
  9 12  1  0  0  0  0
 10 13  2  0  0  0  0
 10 14  1  0  0  0  0
 11 15  1  0  0  0  0
 11 16  1  0  0  0  0
 12 17  1  0  0  0  0
 13 18  1  0  0  0  0
 14 19  2  0  0  0  0
 15 20  2  0  0  0  0
 15 21  1  0  0  0  0
 16 22  1  0  0  0  0
 18 23  2  0  0  0  0
 21 24  2  0  0  0  0
 21 25  1  0  0  0  0
 24 26  1  0  0  0  0
 24 27  1  0  0  0  0
 25 28  2  0  0  0  0
 26 29  1  0  0  0  0
 26 30  1  0  0  0  0
 27 31  2  0  0  0  0
 27 32  1  0  0  0  0
 29 33  2  0  0  0  0
 30 34  2  0  0  0  0
 31 35  1  0  0  0  0
  7  8  1  0  0  0  0
 17 22  1  0  0  0  0
 19 23  1  0  0  0  0
 28 31  1  0  0  0  0
 33 34  1  0  0  0  0
M  END
>  <MolRegNo>
2142079

>  <m>
=

>  <Value>
40000

>  <Unit>
nM

>  <Type>
IC50

>  <pValue>
4.4

>  <Ligand Efficiency>
0.17

>  <Binding Efficiency>
9.31

>  <Surface Efficiency>
5.11

>  <Assay Index>
1058329

>  <Assay Category>


>  <Assay Organism>
Homo sapiens

>  <Target ID>
17045

>  <Target Name>
Cytochrome P450 3A4

>  <Target Organism>
Homo sapiens

>  <Target Description>
Target is a single protein chain

>  <Sequence Accession>
P08684

>  <Reference>


>  <Pubmed ID>


>  <DOI>


$$$$
2110588
Actelion Java MolfileCreator 1.0

 34 38  0  0  1  0  0  0  0  0999 V2000
    0.0000   -0.0000   -0.0000 Cl  0  0  0  0  0  0  0  0  0  0  0  0
    1.0423    0.6110   -0.0000 C   0  0  0  0  0  0  0  0  0  0  0  0
    1.0423    2.1444   -0.0000 C   0  0  0  0  0  0  0  0  0  0  0  0
    2.3361   -0.1438   -0.0000 C   0  0  0  0  0  0  0  0  0  0  0  0
    2.3481    2.9111   -0.0000 C   0  0  0  0  0  0  0  0  0  0  0  0
    3.6419    0.6230   -0.0000 C   0  0  0  0  0  0  0  0  0  0  0  0
    3.6419    2.1564   -0.0000 C   0  0  0  0  0  0  0  0  0  0  0  0
    2.3481    4.4446   -0.0000 C   0  0  0  0  0  0  0  0  0  0  0  0
    4.9477    2.9231   -0.0000 N   0  0  0  0  0  0  0  0  0  0  0  0
    3.3903    5.0555   -0.0000 O   0  0  0  0  0  0  0  0  0  0  0  0
    1.0183    5.2233   -0.0000 N   0  0  0  0  0  0  0  0  0  0  0  0
    5.0915    4.4326   -0.0000 N   0  0  0  0  0  0  0  0  0  0  0  0
    6.3014    2.2882   -0.0000 N   0  0  0  0  0  0  0  0  0  0  0  0
    1.0063    6.7567   -0.0000 C   0  0  0  0  0  0  0  0  0  0  0  0
   -0.3115    4.4805   -0.0000 C   0  0  0  0  0  0  0  0  0  0  0  0
    6.5650    4.7441   -0.0000 C   0  0  0  0  0  0  0  0  0  0  0  0
    7.3197    3.4263   -0.0000 C   0  0  0  0  0  0  0  0  0  0  0  0
   -0.3235    7.5354   -0.0000 C   0  0  0  0  0  0  0  0  0  0  0  0
    2.3121    7.5234   -0.0000 C   0  0  0  0  0  0  0  0  0  0  0  0
   -1.6413    5.2592   -0.0000 C   0  0  0  0  0  0  0  0  0  0  0  0
   -1.6532    6.7926   -0.0000 O   0  0  0  0  0  0  0  0  0  0  0  0
    2.3001    9.0568   -0.0000 C   0  0  0  0  0  0  0  0  0  0  0  0
    3.6060    9.8235   -0.0000 C   0  0  0  0  0  0  0  0  0  0  0  0
    0.9704    9.8235   -0.0000 C   0  0  0  0  0  0  0  0  0  0  0  0
    4.6482    9.2246   -0.0000 F   0  0  0  0  0  0  0  0  0  0  0  0
    3.5940   11.3570   -0.0000 C   0  0  0  0  0  0  0  0  0  0  0  0
    0.9584   11.3570   -0.0000 C   0  0  0  0  0  0  0  0  0  0  0  0
    2.2642   12.1237   -0.0000 C   0  0  0  0  0  0  0  0  0  0  0  0
   -0.3714   12.1237   -0.0000 C   0  0  0  0  0  0  0  0  0  0  0  0
   -0.3834   13.6571   -0.0000 N   0  0  0  0  0  0  0  0  0  0  0  0
   -1.7012   11.3690   -0.0000 N   0  0  0  0  0  0  0  0  0  0  0  0
   -1.7131   14.4238   -0.0000 C   0  0  0  0  0  0  0  0  0  0  0  0
   -3.0309   12.1357   -0.0000 C   0  0  0  0  0  0  0  0  0  0  0  0
   -3.0429   13.6691   -0.0000 C   0  0  0  0  0  0  0  0  0  0  0  0
  1  2  1  0  0  0  0
  2  3  2  0  0  0  0
  2  4  1  0  0  0  0
  3  5  1  0  0  0  0
  4  6  2  0  0  0  0
  5  7  2  0  0  0  0
  5  8  1  0  0  0  0
  7  9  1  0  0  0  0
  8 10  2  0  0  0  0
  8 11  1  0  0  0  0
  9 12  1  0  0  0  0
  9 13  1  0  0  0  0
 11 14  1  0  0  0  0
 11 15  1  0  0  0  0
 12 16  2  0  0  0  0
 13 17  2  0  0  0  0
 14 18  1  0  0  0  0
 14 19  1  1  0  0  0
 15 20  1  0  0  0  0
 18 21  1  0  0  0  0
 19 22  1  0  0  0  0
 22 23  2  0  0  0  0
 22 24  1  0  0  0  0
 23 25  1  0  0  0  0
 23 26  1  0  0  0  0
 24 27  2  0  0  0  0
 26 28  2  0  0  0  0
 27 29  1  0  0  0  0
 29 30  2  0  0  0  0
 29 31  1  0  0  0  0
 30 32  1  0  0  0  0
 31 33  2  0  0  0  0
 32 34  2  0  0  0  0
  6  7  1  0  0  0  0
 16 17  1  0  0  0  0
 20 21  1  0  0  0  0
 27 28  1  0  0  0  0
 33 34  1  0  0  0  0
M  END
>  <MolRegNo>
2110588

>  <m>
=

>  <Value>
17000

>  <Unit>
nM

>  <Type>
IC50

>  <pValue>
4.77

>  <Ligand Efficiency>
0.19

>  <Binding Efficiency>
9.96

>  <Surface Efficiency>
5.54

>  <Assay Index>
1058329

>  <Assay Category>


>  <Assay Organism>
Homo sapiens

>  <Target ID>
17045

>  <Target Name>
Cytochrome P450 3A4

>  <Target Organism>
Homo sapiens

>  <Target Description>
Target is a single protein chain

>  <Sequence Accession>
P08684

>  <Reference>


>  <Pubmed ID>


>  <DOI>


$$$$
2133131
Actelion Java MolfileCreator 1.0

 34 38  0  0  1  0  0  0  0  0999 V2000
    0.0000   -0.0000   -0.0000 Cl  0  0  0  0  0  0  0  0  0  0  0  0
    0.0000    1.2320   -0.0000 C   0  0  0  0  0  0  0  0  0  0  0  0
    1.3037    1.9974   -0.0000 C   0  0  0  0  0  0  0  0  0  0  0  0
   -1.3157    2.0094   -0.0000 C   0  0  0  0  0  0  0  0  0  0  0  0
    1.3037    3.5284   -0.0000 C   0  0  0  0  0  0  0  0  0  0  0  0
   -1.3157    3.5404   -0.0000 C   0  0  0  0  0  0  0  0  0  0  0  0
    2.6074    4.2939   -0.0000 N   0  0  0  0  0  0  0  0  0  0  0  0
   -0.0120    4.3059   -0.0000 C   0  0  0  0  0  0  0  0  0  0  0  0
    2.7510    5.8010   -0.0000 N   0  0  0  0  0  0  0  0  0  0  0  0
    3.9590    3.6600   -0.0000 N   0  0  0  0  0  0  0  0  0  0  0  0
   -0.0120    5.8369   -0.0000 C   0  0  0  0  0  0  0  0  0  0  0  0
    4.2221    6.1119   -0.0000 C   0  0  0  0  0  0  0  0  0  0  0  0
    4.9757    4.7963   -0.0000 C   0  0  0  0  0  0  0  0  0  0  0  0
    1.0286    6.4469   -0.0000 O   0  0  0  0  0  0  0  0  0  0  0  0
   -1.3396    6.6143   -0.0000 N   0  0  0  0  0  0  0  0  0  0  0  0
   -1.3516    8.1453   -0.0000 C   0  0  0  0  0  0  0  0  0  0  0  0
   -2.6672    5.8727   -0.0000 C   0  0  0  0  0  0  0  0  0  0  0  0
   -2.6792    8.9227   -0.0000 C   0  0  0  0  0  0  0  0  0  0  0  0
   -0.0478    8.9108   -0.0000 C   0  0  0  0  0  0  0  0  0  0  0  0
   -3.9949    6.6502   -0.0000 C   0  0  0  0  0  0  0  0  0  0  0  0
   -4.0069    8.1812   -0.0000 O   0  0  0  0  0  0  0  0  0  0  0  0
   -0.0598   10.4417   -0.0000 C   0  0  0  0  0  0  0  0  0  0  0  0
    1.2439   11.2072   -0.0000 C   0  0  0  0  0  0  0  0  0  0  0  0
   -1.3874   11.2072   -0.0000 C   0  0  0  0  0  0  0  0  0  0  0  0
    2.2845   10.6092   -0.0000 F   0  0  0  0  0  0  0  0  0  0  0  0
    1.2320   12.7382   -0.0000 C   0  0  0  0  0  0  0  0  0  0  0  0
   -1.3994   12.7382   -0.0000 C   0  0  0  0  0  0  0  0  0  0  0  0
   -0.0957   13.5037   -0.0000 C   0  0  0  0  0  0  0  0  0  0  0  0
   -2.7271   13.5037   -0.0000 C   0  0  0  0  0  0  0  0  0  0  0  0
   -2.7390   15.0347   -0.0000 N   0  0  0  0  0  0  0  0  0  0  0  0
   -4.0547   12.7502   -0.0000 N   0  0  0  0  0  0  0  0  0  0  0  0
   -4.0667   15.8002   -0.0000 C   0  0  0  0  0  0  0  0  0  0  0  0
   -5.3823   13.5157   -0.0000 C   0  0  0  0  0  0  0  0  0  0  0  0
   -5.3943   15.0466   -0.0000 C   0  0  0  0  0  0  0  0  0  0  0  0
  1  2  1  0  0  0  0
  2  3  2  0  0  0  0
  2  4  1  0  0  0  0
  3  5  1  0  0  0  0
  4  6  2  0  0  0  0
  5  7  1  0  0  0  0
  5  8  2  0  0  0  0
  7  9  1  0  0  0  0
  7 10  1  0  0  0  0
  8 11  1  0  0  0  0
  9 12  2  0  0  0  0
 10 13  2  0  0  0  0
 11 14  2  0  0  0  0
 11 15  1  0  0  0  0
 15 16  1  0  0  0  0
 15 17  1  0  0  0  0
 16 18  1  0  0  0  0
 16 19  1  1  0  0  0
 17 20  1  0  0  0  0
 18 21  1  0  0  0  0
 19 22  1  0  0  0  0
 22 23  2  0  0  0  0
 22 24  1  0  0  0  0
 23 25  1  0  0  0  0
 23 26  1  0  0  0  0
 24 27  2  0  0  0  0
 26 28  2  0  0  0  0
 27 29  1  0  0  0  0
 29 30  2  0  0  0  0
 29 31  1  0  0  0  0
 30 32  1  0  0  0  0
 31 33  2  0  0  0  0
 32 34  2  0  0  0  0
  6  8  1  0  0  0  0
 12 13  1  0  0  0  0
 20 21  1  0  0  0  0
 27 28  1  0  0  0  0
 33 34  1  0  0  0  0
M  END
>  <MolRegNo>
2133131

>  <m>
=

>  <Value>
17000

>  <Unit>
nM

>  <Type>
IC50

>  <pValue>
4.77

>  <Ligand Efficiency>
0.19

>  <Binding Efficiency>
9.96

>  <Surface Efficiency>
5.54

>  <Assay Index>
1058329

>  <Assay Category>


>  <Assay Organism>
Homo sapiens

>  <Target ID>
17045

>  <Target Name>
Cytochrome P450 3A4

>  <Target Organism>
Homo sapiens

>  <Target Description>
Target is a single protein chain

>  <Sequence Accession>
P08684

>  <Reference>


>  <Pubmed ID>


>  <DOI>


$$$$
2105130
Actelion Java MolfileCreator 1.0

 34 38  0  0  1  0  0  0  0  0999 V2000
    0.0000   -0.0000   -0.0000 Cl  0  0  0  0  0  0  0  0  0  0  0  0
   -1.0642    0.6218   -0.0000 C   0  0  0  0  0  0  0  0  0  0  0  0
   -1.0642    2.1522   -0.0000 C   0  0  0  0  0  0  0  0  0  0  0  0
   -2.3914   -0.1196   -0.0000 C   0  0  0  0  0  0  0  0  0  0  0  0
    0.2391    2.9175   -0.0000 N   0  0  0  0  0  0  0  0  0  0  0  0
   -2.3794    2.9294   -0.0000 C   0  0  0  0  0  0  0  0  0  0  0  0
   -3.7066    0.6576   -0.0000 C   0  0  0  0  0  0  0  0  0  0  0  0
    0.3826    4.4240   -0.0000 N   0  0  0  0  0  0  0  0  0  0  0  0
    1.5903    2.2838   -0.0000 N   0  0  0  0  0  0  0  0  0  0  0  0
   -2.3794    4.4599   -0.0000 C   0  0  0  0  0  0  0  0  0  0  0  0
   -3.7066    2.1881   -0.0000 C   0  0  0  0  0  0  0  0  0  0  0  0
    1.8533    4.7349   -0.0000 C   0  0  0  0  0  0  0  0  0  0  0  0
    2.6066    3.4197   -0.0000 C   0  0  0  0  0  0  0  0  0  0  0  0
   -1.3392    5.0697   -0.0000 O   0  0  0  0  0  0  0  0  0  0  0  0
   -3.7066    5.2371   -0.0000 N   0  0  0  0  0  0  0  0  0  0  0  0
   -3.7186    6.7676   -0.0000 C   0  0  0  0  0  0  0  0  0  0  0  0
   -5.0338    4.4958   -0.0000 C   0  0  0  0  0  0  0  0  0  0  0  0
   -5.0458    7.5448   -0.0000 C   0  0  0  0  0  0  0  0  0  0  0  0
   -2.4153    7.5328   -0.0000 C   0  0  0  0  0  0  0  0  0  0  0  0
   -6.3610    5.2730   -0.0000 C   0  0  0  0  0  0  0  0  0  0  0  0
   -6.3730    6.8034   -0.0000 O   0  0  0  0  0  0  0  0  0  0  0  0
   -2.4272    9.0633   -0.0000 C   0  0  0  0  0  0  0  0  0  0  0  0
   -1.1239    9.8285   -0.0000 C   0  0  0  0  0  0  0  0  0  0  0  0
   -3.7544    9.8285   -0.0000 C   0  0  0  0  0  0  0  0  0  0  0  0
   -0.0837    9.2307   -0.0000 F   0  0  0  0  0  0  0  0  0  0  0  0
   -1.1359   11.3590   -0.0000 C   0  0  0  0  0  0  0  0  0  0  0  0
   -3.7664   11.3590   -0.0000 C   0  0  0  0  0  0  0  0  0  0  0  0
   -2.4631   12.1242   -0.0000 C   0  0  0  0  0  0  0  0  0  0  0  0
   -5.0936   12.1242   -0.0000 C   0  0  0  0  0  0  0  0  0  0  0  0
   -5.1056   13.6547   -0.0000 N   0  0  0  0  0  0  0  0  0  0  0  0
   -6.4208   11.3710   -0.0000 N   0  0  0  0  0  0  0  0  0  0  0  0
   -6.4328   14.4200   -0.0000 C   0  0  0  0  0  0  0  0  0  0  0  0
   -7.7480   12.1362   -0.0000 C   0  0  0  0  0  0  0  0  0  0  0  0
   -7.7600   13.6667   -0.0000 C   0  0  0  0  0  0  0  0  0  0  0  0
  1  2  1  0  0  0  0
  2  3  2  0  0  0  0
  2  4  1  0  0  0  0
  3  5  1  0  0  0  0
  3  6  1  0  0  0  0
  4  7  2  0  0  0  0
  5  8  1  0  0  0  0
  5  9  1  0  0  0  0
  6 10  1  0  0  0  0
  6 11  2  0  0  0  0
  8 12  2  0  0  0  0
  9 13  2  0  0  0  0
 10 14  2  0  0  0  0
 10 15  1  0  0  0  0
 15 16  1  0  0  0  0
 15 17  1  0  0  0  0
 16 18  1  0  0  0  0
 16 19  1  1  0  0  0
 17 20  1  0  0  0  0
 18 21  1  0  0  0  0
 19 22  1  0  0  0  0
 22 23  2  0  0  0  0
 22 24  1  0  0  0  0
 23 25  1  0  0  0  0
 23 26  1  0  0  0  0
 24 27  2  0  0  0  0
 26 28  2  0  0  0  0
 27 29  1  0  0  0  0
 29 30  2  0  0  0  0
 29 31  1  0  0  0  0
 30 32  1  0  0  0  0
 31 33  2  0  0  0  0
 32 34  2  0  0  0  0
  7 11  1  0  0  0  0
 12 13  1  0  0  0  0
 20 21  1  0  0  0  0
 27 28  1  0  0  0  0
 33 34  1  0  0  0  0
M  END
>  <MolRegNo>
2105130

>  <m>
=

>  <Value>
33000

>  <Unit>
nM

>  <Type>
IC50

>  <pValue>
4.48

>  <Ligand Efficiency>
0.18

>  <Binding Efficiency>
9.36

>  <Surface Efficiency>
5.21

>  <Assay Index>
1058329

>  <Assay Category>


>  <Assay Organism>
Homo sapiens

>  <Target ID>
17045

>  <Target Name>
Cytochrome P450 3A4

>  <Target Organism>
Homo sapiens

>  <Target Description>
Target is a single protein chain

>  <Sequence Accession>
P08684

>  <Reference>


>  <Pubmed ID>


>  <DOI>


$$$$
2132049
Actelion Java MolfileCreator 1.0

 33 37  0  0  1  0  0  0  0  0999 V2000
    0.0000   -0.0000   -0.0000 O   0  0  0  0  0  0  0  0  0  0  0  0
   -0.0120    1.2361   -0.0000 C   0  0  0  0  0  0  0  0  0  0  0  0
    1.2961    2.0042   -0.0000 N   0  0  0  0  0  0  0  0  0  0  0  0
   -1.3441    2.0162   -0.0000 C   0  0  0  0  0  0  0  0  0  0  0  0
    2.6042    1.2601   -0.0000 C   0  0  0  0  0  0  0  0  0  0  0  0
    1.2841    3.5403   -0.0000 C   0  0  0  0  0  0  0  0  0  0  0  0
   -2.6762    1.2721   -0.0000 C   0  0  0  0  0  0  0  0  0  0  0  0
   -1.3561    3.5523   -0.0000 C   0  0  0  0  0  0  0  0  0  0  0  0
    3.9123    2.0282   -0.0000 C   0  0  0  0  0  0  0  0  0  0  0  0
    2.5922   -0.2520   -0.0000 C   0  0  0  0  0  0  0  0  0  0  0  0
    2.5922    4.3084   -0.0000 C   0  0  0  0  0  0  0  0  0  0  0  0
   -2.6882   -0.2400   -0.0000 N   0  0  0  0  0  0  0  0  0  0  0  0
   -4.0083    2.0522   -0.0000 C   0  0  0  0  0  0  0  0  0  0  0  0
   -2.6882    4.3324   -0.0000 C   0  0  0  0  0  0  0  0  0  0  0  0
    3.9003    3.5643   -0.0000 O   0  0  0  0  0  0  0  0  0  0  0  0
    4.9564    1.4281   -0.0000 C   0  0  0  0  0  0  0  0  0  0  0  0
    1.2601   -0.9961   -0.0000 C   0  0  0  0  0  0  0  0  0  0  0  0
   -1.4761   -1.1041   -0.0000 N   0  0  0  0  0  0  0  0  0  0  0  0
   -3.9363   -1.0921   -0.0000 N   0  0  0  0  0  0  0  0  0  0  0  0
   -4.0203    3.5883   -0.0000 C   0  0  0  0  0  0  0  0  0  0  0  0
   -0.0720   -0.2160   -0.0000 C   0  0  0  0  0  0  0  0  0  0  0  0
    1.2481   -2.5082   -0.0000 C   0  0  0  0  0  0  0  0  0  0  0  0
   -1.9682   -2.5442   -0.0000 C   0  0  0  0  0  0  0  0  0  0  0  0
   -3.4803   -2.5322   -0.0000 C   0  0  0  0  0  0  0  0  0  0  0  0
   -5.0884    4.2124   -0.0000 C   0  0  0  0  0  0  0  0  0  0  0  0
   -1.4041   -0.9601   -0.0000 C   0  0  0  0  0  0  0  0  0  0  0  0
   -0.0840   -3.2523   -0.0000 C   0  0  0  0  0  0  0  0  0  0  0  0
   -2.7362   -0.1800   -0.0000 N   0  0  0  0  0  0  0  0  0  0  0  0
   -1.4161   -2.4722   -0.0000 C   0  0  0  0  0  0  0  0  0  0  0  0
   -4.1283   -0.7921   -0.0000 N   0  0  0  0  0  0  0  0  0  0  0  0
   -2.8802    1.3321   -0.0000 N   0  0  0  0  0  0  0  0  0  0  0  0
   -5.1484    0.3600   -0.0000 C   0  0  0  0  0  0  0  0  0  0  0  0
   -4.3804    1.6681   -0.0000 C   0  0  0  0  0  0  0  0  0  0  0  0
  1  2  2  0  0  0  0
  2  3  1  0  0  0  0
  2  4  1  0  0  0  0
  3  5  1  0  0  0  0
  3  6  1  0  0  0  0
  4  7  2  0  0  0  0
  4  8  1  0  0  0  0
  5  9  1  0  0  0  0
  5 10  1  1  0  0  0
  6 11  1  0  0  0  0
  7 12  1  0  0  0  0
  7 13  1  0  0  0  0
  8 14  2  0  0  0  0
  9 15  1  0  0  0  0
  9 16  1  1  0  0  0
 10 17  1  0  0  0  0
 12 18  1  0  0  0  0
 12 19  1  0  0  0  0
 13 20  2  0  0  0  0
 17 21  2  0  0  0  0
 17 22  1  0  0  0  0
 18 23  2  0  0  0  0
 19 24  2  0  0  0  0
 20 25  1  0  0  0  0
 21 26  1  0  0  0  0
 22 27  2  0  0  0  0
 26 28  1  0  0  0  0
 26 29  2  0  0  0  0
 28 30  1  0  0  0  0
 28 31  1  0  0  0  0
 30 32  2  0  0  0  0
 31 33  2  0  0  0  0
 11 15  1  0  0  0  0
 14 20  1  0  0  0  0
 23 24  1  0  0  0  0
 27 29  1  0  0  0  0
 32 33  1  0  0  0  0
M  END
>  <MolRegNo>
2132049

>  <m>
=

>  <Value>
14000

>  <Unit>
nM

>  <Type>
IC50

>  <pValue>
4.85

>  <Ligand Efficiency>
0.2

>  <Binding Efficiency>
10.94

>  <Surface Efficiency>
5.34

>  <Assay Index>
1058329

>  <Assay Category>


>  <Assay Organism>
Homo sapiens

>  <Target ID>
17045

>  <Target Name>
Cytochrome P450 3A4

>  <Target Organism>
Homo sapiens

>  <Target Description>
Target is a single protein chain

>  <Sequence Accession>
P08684

>  <Reference>


>  <Pubmed ID>


>  <DOI>


$$$$
2119657
Actelion Java MolfileCreator 1.0

 35 39  0  0  1  0  0  0  0  0999 V2000
    0.0000   -0.0000   -0.0000 F   0  0  0  0  0  0  0  0  0  0  0  0
    1.0516    0.6164   -0.0000 C   0  0  0  0  0  0  0  0  0  0  0  0
    2.3691   -0.1450   -0.0000 C   0  0  0  0  0  0  0  0  0  0  0  0
    1.0395    2.1636   -0.0000 C   0  0  0  0  0  0  0  0  0  0  0  0
    3.6866    0.6285   -0.0000 C   0  0  0  0  0  0  0  0  0  0  0  0
    2.3570   -1.6680   -0.0000 C   0  0  0  0  0  0  0  0  0  0  0  0
    2.3570    2.9372   -0.0000 C   0  0  0  0  0  0  0  0  0  0  0  0
    3.6745    2.1757   -0.0000 C   0  0  0  0  0  0  0  0  0  0  0  0
    3.6745   -2.4295   -0.0000 C   0  0  0  0  0  0  0  0  0  0  0  0
    4.9920    2.9493   -0.0000 C   0  0  0  0  0  0  0  0  0  0  0  0
    4.9920   -1.6559   -0.0000 N   0  0  0  0  0  0  0  0  0  0  0  0
    3.6624   -3.9525   -0.0000 C   0  0  0  0  0  0  0  0  0  0  0  0
    4.9799    4.4964   -0.0000 N   0  0  0  0  0  0  0  0  0  0  0  0
    6.3095    2.1878   -0.0000 C   0  0  0  0  0  0  0  0  0  0  0  0
    4.9799   -0.1088   -0.0000 C   0  0  0  0  0  0  0  0  0  0  0  0
    6.3095   -2.4053   -0.0000 C   0  0  0  0  0  0  0  0  0  0  0  0
    4.9799   -4.7019   -0.0000 O   0  0  0  0  0  0  0  0  0  0  0  0
    6.2974    5.2700   -0.0000 N   0  0  0  0  0  0  0  0  0  0  0  0
    7.6270    2.9613   -0.0000 C   0  0  0  0  0  0  0  0  0  0  0  0
    3.9041    0.5197   -0.0000 O   0  0  0  0  0  0  0  0  0  0  0  0
    6.2974    0.6648   -0.0000 C   0  0  0  0  0  0  0  0  0  0  0  0
    6.2974   -3.9283   -0.0000 C   0  0  0  0  0  0  0  0  0  0  0  0
    7.6149    4.5085   -0.0000 C   0  0  0  0  0  0  0  0  0  0  0  0
    6.2853    2.2119   -0.0000 C   0  0  0  0  0  0  0  0  0  0  0  0
    7.6149   -0.0967   -0.0000 C   0  0  0  0  0  0  0  0  0  0  0  0
    7.3490   -4.5327   -0.0000 C   0  0  0  0  0  0  0  0  0  0  0  0
    4.9436    2.9976   -0.0000 N   0  0  0  0  0  0  0  0  0  0  0  0
    7.6028    2.9855   -0.0000 C   0  0  0  0  0  0  0  0  0  0  0  0
    8.9324    0.6769   -0.0000 C   0  0  0  0  0  0  0  0  0  0  0  0
    3.5415    2.3812   -0.0000 N   0  0  0  0  0  0  0  0  0  0  0  0
    4.7986    4.5206   -0.0000 N   0  0  0  0  0  0  0  0  0  0  0  0
    8.9203    2.2240   -0.0000 C   0  0  0  0  0  0  0  0  0  0  0  0
    2.5141    3.5415   -0.0000 C   0  0  0  0  0  0  0  0  0  0  0  0
    3.2877    4.8590   -0.0000 C   0  0  0  0  0  0  0  0  0  0  0  0
    9.9719    2.8405   -0.0000 C   0  0  0  0  0  0  0  0  0  0  0  0
  1  2  1  0  0  0  0
  2  3  2  0  0  0  0
  2  4  1  0  0  0  0
  3  5  1  0  0  0  0
  3  6  1  0  0  0  0
  4  7  2  0  0  0  0
  5  8  2  0  0  0  0
  9  6  1  1  0  0  0
  8 10  1  0  0  0  0
  9 11  1  0  0  0  0
  9 12  1  0  0  0  0
 10 13  2  0  0  0  0
 10 14  1  0  0  0  0
 11 15  1  0  0  0  0
 11 16  1  0  0  0  0
 12 17  1  0  0  0  0
 13 18  1  0  0  0  0
 14 19  2  0  0  0  0
 15 20  2  0  0  0  0
 15 21  1  0  0  0  0
 16 22  1  0  0  0  0
 18 23  2  0  0  0  0
 21 24  2  0  0  0  0
 21 25  1  0  0  0  0
 22 26  1  1  0  0  0
 24 27  1  0  0  0  0
 24 28  1  0  0  0  0
 25 29  2  0  0  0  0
 27 30  1  0  0  0  0
 27 31  1  0  0  0  0
 28 32  2  0  0  0  0
 30 33  2  0  0  0  0
 31 34  2  0  0  0  0
 32 35  1  0  0  0  0
  7  8  1  0  0  0  0
 17 22  1  0  0  0  0
 19 23  1  0  0  0  0
 29 32  1  0  0  0  0
 33 34  1  0  0  0  0
M  END
>  <MolRegNo>
2119657

>  <m>
=

>  <Value>
20000

>  <Unit>
nM

>  <Type>
IC50

>  <pValue>
4.7

>  <Ligand Efficiency>
0.18

>  <Binding Efficiency>
9.94

>  <Surface Efficiency>
5.46

>  <Assay Index>
1058329

>  <Assay Category>


>  <Assay Organism>
Homo sapiens

>  <Target ID>
17045

>  <Target Name>
Cytochrome P450 3A4

>  <Target Organism>
Homo sapiens

>  <Target Description>
Target is a single protein chain

>  <Sequence Accession>
P08684

>  <Reference>


>  <Pubmed ID>


>  <DOI>


$$$$
2116681
Actelion Java MolfileCreator 1.0

 34 38  0  0  1  0  0  0  0  0999 V2000
    0.0000   -0.0000   -0.0000 F   0  0  0  0  0  0  0  0  0  0  0  0
    0.0000    1.2375   -0.0000 C   0  0  0  0  0  0  0  0  0  0  0  0
    1.3096    2.0065   -0.0000 C   0  0  0  0  0  0  0  0  0  0  0  0
   -1.3216    2.0185   -0.0000 C   0  0  0  0  0  0  0  0  0  0  0  0
    1.3096    3.5443   -0.0000 C   0  0  0  0  0  0  0  0  0  0  0  0
    2.6192    1.2495   -0.0000 C   0  0  0  0  0  0  0  0  0  0  0  0
   -1.3216    3.5563   -0.0000 C   0  0  0  0  0  0  0  0  0  0  0  0
   -0.0120    4.3253   -0.0000 C   0  0  0  0  0  0  0  0  0  0  0  0
    3.9288    2.0185   -0.0000 C   0  0  0  0  0  0  0  0  0  0  0  0
   -0.0120    5.8632   -0.0000 C   0  0  0  0  0  0  0  0  0  0  0  0
    5.2384    1.2615   -0.0000 N   0  0  0  0  0  0  0  0  0  0  0  0
    3.9168    3.5563   -0.0000 C   0  0  0  0  0  0  0  0  0  0  0  0
   -1.3456    6.6441   -0.0000 N   0  0  0  0  0  0  0  0  0  0  0  0
    1.2976    6.6321   -0.0000 C   0  0  0  0  0  0  0  0  0  0  0  0
    5.2264   -0.2523   -0.0000 C   0  0  0  0  0  0  0  0  0  0  0  0
    6.5480    2.0305   -0.0000 C   0  0  0  0  0  0  0  0  0  0  0  0
    5.2264    4.3253   -0.0000 O   0  0  0  0  0  0  0  0  0  0  0  0
   -1.3456    8.1820   -0.0000 N   0  0  0  0  0  0  0  0  0  0  0  0
    1.2976    8.1700   -0.0000 C   0  0  0  0  0  0  0  0  0  0  0  0
    4.1571   -0.8530   -0.0000 O   0  0  0  0  0  0  0  0  0  0  0  0
    6.5360   -1.0092   -0.0000 C   0  0  0  0  0  0  0  0  0  0  0  0
    6.5360    3.5684   -0.0000 C   0  0  0  0  0  0  0  0  0  0  0  0
   -0.0360    8.9509   -0.0000 C   0  0  0  0  0  0  0  0  0  0  0  0
    6.5240   -2.5231   -0.0000 C   0  0  0  0  0  0  0  0  0  0  0  0
    7.8456   -0.2403   -0.0000 C   0  0  0  0  0  0  0  0  0  0  0  0
    5.1903   -3.2680   -0.0000 N   0  0  0  0  0  0  0  0  0  0  0  0
    7.8336   -3.2680   -0.0000 C   0  0  0  0  0  0  0  0  0  0  0  0
    9.1552   -0.9852   -0.0000 C   0  0  0  0  0  0  0  0  0  0  0  0
    3.8087   -2.6312   -0.0000 N   0  0  0  0  0  0  0  0  0  0  0  0
    5.0462   -4.7578   -0.0000 N   0  0  0  0  0  0  0  0  0  0  0  0
    9.1432   -2.4991   -0.0000 C   0  0  0  0  0  0  0  0  0  0  0  0
    2.7754   -3.7486   -0.0000 C   0  0  0  0  0  0  0  0  0  0  0  0
    3.5443   -5.0702   -0.0000 C   0  0  0  0  0  0  0  0  0  0  0  0
   10.1885   -3.0998   -0.0000 C   0  0  0  0  0  0  0  0  0  0  0  0
  1  2  1  0  0  0  0
  2  3  2  0  0  0  0
  2  4  1  0  0  0  0
  3  5  1  0  0  0  0
  3  6  1  0  0  0  0
  4  7  2  0  0  0  0
  5  8  2  0  0  0  0
  9  6  1  6  0  0  0
  8 10  1  0  0  0  0
  9 11  1  0  0  0  0
  9 12  1  0  0  0  0
 10 13  2  0  0  0  0
 10 14  1  0  0  0  0
 11 15  1  0  0  0  0
 11 16  1  0  0  0  0
 12 17  1  0  0  0  0
 13 18  1  0  0  0  0
 14 19  2  0  0  0  0
 15 20  2  0  0  0  0
 15 21  1  0  0  0  0
 16 22  1  0  0  0  0
 18 23  2  0  0  0  0
 21 24  2  0  0  0  0
 21 25  1  0  0  0  0
 24 26  1  0  0  0  0
 24 27  1  0  0  0  0
 25 28  2  0  0  0  0
 26 29  1  0  0  0  0
 26 30  1  0  0  0  0
 27 31  2  0  0  0  0
 29 32  2  0  0  0  0
 30 33  2  0  0  0  0
 31 34  1  0  0  0  0
  7  8  1  0  0  0  0
 17 22  1  0  0  0  0
 19 23  1  0  0  0  0
 28 31  1  0  0  0  0
 32 33  1  0  0  0  0
M  END
>  <MolRegNo>
2116681

>  <m>
=

>  <Value>
19000

>  <Unit>
nM

>  <Type>
IC50

>  <pValue>
4.72

>  <Ligand Efficiency>
0.19

>  <Binding Efficiency>
10.3

>  <Surface Efficiency>
5.49

>  <Assay Index>
1058329

>  <Assay Category>


>  <Assay Organism>
Homo sapiens

>  <Target ID>
17045

>  <Target Name>
Cytochrome P450 3A4

>  <Target Organism>
Homo sapiens

>  <Target Description>
Target is a single protein chain

>  <Sequence Accession>
P08684

>  <Reference>


>  <Pubmed ID>


>  <DOI>


$$$$
2166546
Actelion Java MolfileCreator 1.0

 33 37  0  0  1  0  0  0  0  0999 V2000
    0.0000   -0.0000   -0.0000 O   0  0  0  0  0  0  0  0  0  0  0  0
   -0.0120    1.2361   -0.0000 C   0  0  0  0  0  0  0  0  0  0  0  0
    1.2961    2.0042   -0.0000 N   0  0  0  0  0  0  0  0  0  0  0  0
   -1.3441    2.0162   -0.0000 C   0  0  0  0  0  0  0  0  0  0  0  0
    2.6042    1.2601   -0.0000 C   0  0  0  0  0  0  0  0  0  0  0  0
    1.2841    3.5403   -0.0000 C   0  0  0  0  0  0  0  0  0  0  0  0
   -2.6762    1.2721   -0.0000 C   0  0  0  0  0  0  0  0  0  0  0  0
   -1.3561    3.5523   -0.0000 C   0  0  0  0  0  0  0  0  0  0  0  0
    3.9123    2.0282   -0.0000 C   0  0  0  0  0  0  0  0  0  0  0  0
    2.5922   -0.2520   -0.0000 C   0  0  0  0  0  0  0  0  0  0  0  0
    2.5922    4.3084   -0.0000 C   0  0  0  0  0  0  0  0  0  0  0  0
   -2.6882   -0.2400   -0.0000 N   0  0  0  0  0  0  0  0  0  0  0  0
   -4.0083    2.0522   -0.0000 C   0  0  0  0  0  0  0  0  0  0  0  0
   -2.6882    4.3324   -0.0000 C   0  0  0  0  0  0  0  0  0  0  0  0
    3.9003    3.5643   -0.0000 O   0  0  0  0  0  0  0  0  0  0  0  0
    4.9564    1.4281   -0.0000 C   0  0  0  0  0  0  0  0  0  0  0  0
    1.2601   -0.9961   -0.0000 C   0  0  0  0  0  0  0  0  0  0  0  0
   -1.4761   -1.1041   -0.0000 N   0  0  0  0  0  0  0  0  0  0  0  0
   -3.9363   -1.0921   -0.0000 N   0  0  0  0  0  0  0  0  0  0  0  0
   -4.0203    3.5883   -0.0000 C   0  0  0  0  0  0  0  0  0  0  0  0
   -0.0720   -0.2160   -0.0000 C   0  0  0  0  0  0  0  0  0  0  0  0
    1.2481   -2.5082   -0.0000 C   0  0  0  0  0  0  0  0  0  0  0  0
   -1.9682   -2.5442   -0.0000 C   0  0  0  0  0  0  0  0  0  0  0  0
   -3.4803   -2.5322   -0.0000 C   0  0  0  0  0  0  0  0  0  0  0  0
   -5.0884    4.2124   -0.0000 C   0  0  0  0  0  0  0  0  0  0  0  0
   -1.4041   -0.9601   -0.0000 C   0  0  0  0  0  0  0  0  0  0  0  0
   -0.0840   -3.2523   -0.0000 C   0  0  0  0  0  0  0  0  0  0  0  0
   -2.7362   -0.1800   -0.0000 N   0  0  0  0  0  0  0  0  0  0  0  0
   -1.4161   -2.4722   -0.0000 C   0  0  0  0  0  0  0  0  0  0  0  0
   -4.1283   -0.7921   -0.0000 N   0  0  0  0  0  0  0  0  0  0  0  0
   -2.8802    1.3321   -0.0000 N   0  0  0  0  0  0  0  0  0  0  0  0
   -5.1484    0.3600   -0.0000 C   0  0  0  0  0  0  0  0  0  0  0  0
   -4.3804    1.6681   -0.0000 C   0  0  0  0  0  0  0  0  0  0  0  0
  1  2  2  0  0  0  0
  2  3  1  0  0  0  0
  2  4  1  0  0  0  0
  3  5  1  0  0  0  0
  3  6  1  0  0  0  0
  4  7  2  0  0  0  0
  4  8  1  0  0  0  0
  5  9  1  0  0  0  0
  5 10  1  1  0  0  0
  6 11  1  0  0  0  0
  7 12  1  0  0  0  0
  7 13  1  0  0  0  0
  8 14  2  0  0  0  0
  9 15  1  0  0  0  0
  9 16  1  6  0  0  0
 10 17  1  0  0  0  0
 12 18  1  0  0  0  0
 12 19  1  0  0  0  0
 13 20  2  0  0  0  0
 17 21  2  0  0  0  0
 17 22  1  0  0  0  0
 18 23  2  0  0  0  0
 19 24  2  0  0  0  0
 20 25  1  0  0  0  0
 21 26  1  0  0  0  0
 22 27  2  0  0  0  0
 26 28  1  0  0  0  0
 26 29  2  0  0  0  0
 28 30  1  0  0  0  0
 28 31  1  0  0  0  0
 30 32  2  0  0  0  0
 31 33  2  0  0  0  0
 11 15  1  0  0  0  0
 14 20  1  0  0  0  0
 23 24  1  0  0  0  0
 27 29  1  0  0  0  0
 32 33  1  0  0  0  0
M  END
>  <MolRegNo>
2166546

>  <m>
=

>  <Value>
8500

>  <Unit>
nM

>  <Type>
IC50

>  <pValue>
5.07

>  <Ligand Efficiency>
0.21

>  <Binding Efficiency>
11.43

>  <Surface Efficiency>
5.57

>  <Assay Index>
1058329

>  <Assay Category>


>  <Assay Organism>
Homo sapiens

>  <Target ID>
17045

>  <Target Name>
Cytochrome P450 3A4

>  <Target Organism>
Homo sapiens

>  <Target Description>
Target is a single protein chain

>  <Sequence Accession>
P08684

>  <Reference>


>  <Pubmed ID>


>  <DOI>


$$$$
2195217
Actelion Java MolfileCreator 1.0

 34 38  0  0  1  0  0  0  0  0999 V2000
    0.0000   -0.0000   -0.0000 Cl  0  0  0  0  0  0  0  0  0  0  0  0
    0.0000    1.2455   -0.0000 C   0  0  0  0  0  0  0  0  0  0  0  0
    1.3180    2.0194   -0.0000 C   0  0  0  0  0  0  0  0  0  0  0  0
   -1.3301    2.0315   -0.0000 C   0  0  0  0  0  0  0  0  0  0  0  0
    1.3180    3.5671   -0.0000 C   0  0  0  0  0  0  0  0  0  0  0  0
    2.6361    1.2576   -0.0000 C   0  0  0  0  0  0  0  0  0  0  0  0
   -1.3301    3.5792   -0.0000 C   0  0  0  0  0  0  0  0  0  0  0  0
   -0.0121    4.3531   -0.0000 C   0  0  0  0  0  0  0  0  0  0  0  0
    3.9541    2.0315   -0.0000 C   0  0  0  0  0  0  0  0  0  0  0  0
   -0.0121    5.9009   -0.0000 N   0  0  0  0  0  0  0  0  0  0  0  0
    5.2721    1.2697   -0.0000 N   0  0  0  0  0  0  0  0  0  0  0  0
    3.9420    3.5792   -0.0000 C   0  0  0  0  0  0  0  0  0  0  0  0
    1.2213    6.7836   -0.0000 N   0  0  0  0  0  0  0  0  0  0  0  0
   -1.2576    6.7957   -0.0000 N   0  0  0  0  0  0  0  0  0  0  0  0
    5.2600   -0.2539   -0.0000 C   0  0  0  0  0  0  0  0  0  0  0  0
    6.5901    2.0435   -0.0000 C   0  0  0  0  0  0  0  0  0  0  0  0
    5.2600    4.3531   -0.0000 O   0  0  0  0  0  0  0  0  0  0  0  0
    0.7376    8.2588   -0.0000 C   0  0  0  0  0  0  0  0  0  0  0  0
   -0.7860    8.2709   -0.0000 C   0  0  0  0  0  0  0  0  0  0  0  0
    4.1838   -0.8585   -0.0000 O   0  0  0  0  0  0  0  0  0  0  0  0
    6.5780   -1.0157   -0.0000 C   0  0  0  0  0  0  0  0  0  0  0  0
    6.5780    3.5913   -0.0000 C   0  0  0  0  0  0  0  0  0  0  0  0
    6.5659   -2.5393   -0.0000 C   0  0  0  0  0  0  0  0  0  0  0  0
    7.8961   -0.2418   -0.0000 C   0  0  0  0  0  0  0  0  0  0  0  0
    5.2237   -3.2890   -0.0000 N   0  0  0  0  0  0  0  0  0  0  0  0
    7.8840   -3.2890   -0.0000 C   0  0  0  0  0  0  0  0  0  0  0  0
    9.2141   -0.9915   -0.0000 C   0  0  0  0  0  0  0  0  0  0  0  0
    3.8332   -2.6481   -0.0000 N   0  0  0  0  0  0  0  0  0  0  0  0
    5.0786   -4.7884   -0.0000 N   0  0  0  0  0  0  0  0  0  0  0  0
    9.2020   -2.5151   -0.0000 C   0  0  0  0  0  0  0  0  0  0  0  0
    7.8719   -4.5103   -0.0000 C   0  0  0  0  0  0  0  0  0  0  0  0
    2.7932   -3.7727   -0.0000 C   0  0  0  0  0  0  0  0  0  0  0  0
    3.5671   -5.1028   -0.0000 C   0  0  0  0  0  0  0  0  0  0  0  0
   10.2540   -3.1197   -0.0000 C   0  0  0  0  0  0  0  0  0  0  0  0
  1  2  1  0  0  0  0
  2  3  2  0  0  0  0
  2  4  1  0  0  0  0
  3  5  1  0  0  0  0
  3  6  1  0  0  0  0
  4  7  2  0  0  0  0
  5  8  2  0  0  0  0
  9  6  1  6  0  0  0
  8 10  1  0  0  0  0
  9 11  1  0  0  0  0
  9 12  1  0  0  0  0
 10 13  1  0  0  0  0
 10 14  1  0  0  0  0
 11 15  1  0  0  0  0
 11 16  1  0  0  0  0
 12 17  1  0  0  0  0
 13 18  2  0  0  0  0
 14 19  2  0  0  0  0
 15 20  2  0  0  0  0
 15 21  1  0  0  0  0
 16 22  1  0  0  0  0
 21 23  2  0  0  0  0
 21 24  1  0  0  0  0
 23 25  1  0  0  0  0
 23 26  1  0  0  0  0
 24 27  2  0  0  0  0
 25 28  1  0  0  0  0
 25 29  1  0  0  0  0
 26 30  2  0  0  0  0
 26 31  1  0  0  0  0
 28 32  2  0  0  0  0
 29 33  2  0  0  0  0
 30 34  1  0  0  0  0
  7  8  1  0  0  0  0
 17 22  1  0  0  0  0
 18 19  1  0  0  0  0
 27 30  1  0  0  0  0
 32 33  1  0  0  0  0
M  END
>  <MolRegNo>
2195217

>  <m>
=

>  <Value>
29000

>  <Unit>
nM

>  <Type>
IC50

>  <pValue>
4.54

>  <Ligand Efficiency>
0.18

>  <Binding Efficiency>
9.49

>  <Surface Efficiency>
4.99

>  <Assay Index>
1058329

>  <Assay Category>


>  <Assay Organism>
Homo sapiens

>  <Target ID>
17045

>  <Target Name>
Cytochrome P450 3A4

>  <Target Organism>
Homo sapiens

>  <Target Description>
Target is a single protein chain

>  <Sequence Accession>
P08684

>  <Reference>


>  <Pubmed ID>


>  <DOI>


$$$$
2151378
Actelion Java MolfileCreator 1.0

 33 37  0  0  1  0  0  0  0  0999 V2000
    0.0000   -0.0000   -0.0000 Cl  0  0  0  0  0  0  0  0  0  0  0  0
    0.0000    1.2393   -0.0000 C   0  0  0  0  0  0  0  0  0  0  0  0
    1.3114    2.0093   -0.0000 C   0  0  0  0  0  0  0  0  0  0  0  0
   -1.3235    2.0213   -0.0000 C   0  0  0  0  0  0  0  0  0  0  0  0
    1.3114    3.5493   -0.0000 C   0  0  0  0  0  0  0  0  0  0  0  0
    2.6229    1.2513   -0.0000 C   0  0  0  0  0  0  0  0  0  0  0  0
   -1.3235    3.5613   -0.0000 C   0  0  0  0  0  0  0  0  0  0  0  0
   -0.0120    4.3314   -0.0000 C   0  0  0  0  0  0  0  0  0  0  0  0
    3.9343    2.0213   -0.0000 C   0  0  0  0  0  0  0  0  0  0  0  0
   -0.0120    5.8714   -0.0000 N   0  0  0  0  0  0  0  0  0  0  0  0
    5.2458    1.2633   -0.0000 N   0  0  0  0  0  0  0  0  0  0  0  0
    3.9223    3.5613   -0.0000 C   0  0  0  0  0  0  0  0  0  0  0  0
    1.2152    6.7497   -0.0000 N   0  0  0  0  0  0  0  0  0  0  0  0
   -1.2513    6.7617   -0.0000 N   0  0  0  0  0  0  0  0  0  0  0  0
    5.2337   -0.2527   -0.0000 C   0  0  0  0  0  0  0  0  0  0  0  0
    6.5572    2.0333   -0.0000 C   0  0  0  0  0  0  0  0  0  0  0  0
    5.2337    4.3314   -0.0000 O   0  0  0  0  0  0  0  0  0  0  0  0
    0.7339    8.2176   -0.0000 C   0  0  0  0  0  0  0  0  0  0  0  0
   -0.7821    8.2296   -0.0000 C   0  0  0  0  0  0  0  0  0  0  0  0
    4.1629   -0.8542   -0.0000 O   0  0  0  0  0  0  0  0  0  0  0  0
    6.5452   -1.0107   -0.0000 C   0  0  0  0  0  0  0  0  0  0  0  0
    6.5452    3.5734   -0.0000 C   0  0  0  0  0  0  0  0  0  0  0  0
    6.5331   -2.5266   -0.0000 C   0  0  0  0  0  0  0  0  0  0  0  0
    7.8566   -0.2406   -0.0000 C   0  0  0  0  0  0  0  0  0  0  0  0
    5.1976   -3.2726   -0.0000 N   0  0  0  0  0  0  0  0  0  0  0  0
    7.8446   -3.2726   -0.0000 C   0  0  0  0  0  0  0  0  0  0  0  0
    9.1681   -0.9866   -0.0000 C   0  0  0  0  0  0  0  0  0  0  0  0
    3.8140   -2.6349   -0.0000 N   0  0  0  0  0  0  0  0  0  0  0  0
    5.0533   -4.7645   -0.0000 N   0  0  0  0  0  0  0  0  0  0  0  0
    9.1560   -2.5026   -0.0000 C   0  0  0  0  0  0  0  0  0  0  0  0
    2.7793   -3.7539   -0.0000 C   0  0  0  0  0  0  0  0  0  0  0  0
    3.5493   -5.0773   -0.0000 C   0  0  0  0  0  0  0  0  0  0  0  0
   10.2028   -3.1041   -0.0000 Cl  0  0  0  0  0  0  0  0  0  0  0  0
  1  2  1  0  0  0  0
  2  3  2  0  0  0  0
  2  4  1  0  0  0  0
  3  5  1  0  0  0  0
  3  6  1  0  0  0  0
  4  7  2  0  0  0  0
  5  8  2  0  0  0  0
  9  6  1  6  0  0  0
  8 10  1  0  0  0  0
  9 11  1  0  0  0  0
  9 12  1  0  0  0  0
 10 13  1  0  0  0  0
 10 14  1  0  0  0  0
 11 15  1  0  0  0  0
 11 16  1  0  0  0  0
 12 17  1  0  0  0  0
 13 18  2  0  0  0  0
 14 19  2  0  0  0  0
 15 20  2  0  0  0  0
 15 21  1  0  0  0  0
 16 22  1  0  0  0  0
 21 23  2  0  0  0  0
 21 24  1  0  0  0  0
 23 25  1  0  0  0  0
 23 26  1  0  0  0  0
 24 27  2  0  0  0  0
 25 28  1  0  0  0  0
 25 29  1  0  0  0  0
 26 30  2  0  0  0  0
 28 31  2  0  0  0  0
 29 32  2  0  0  0  0
 30 33  1  0  0  0  0
  7  8  1  0  0  0  0
 17 22  1  0  0  0  0
 18 19  1  0  0  0  0
 27 30  1  0  0  0  0
 31 32  1  0  0  0  0
M  END
>  <MolRegNo>
2151378

>  <m>
=

>  <Value>
9800

>  <Unit>
nM

>  <Type>
IC50

>  <pValue>
5.01

>  <Ligand Efficiency>
0.21

>  <Binding Efficiency>
10.34

>  <Surface Efficiency>
5.51

>  <Assay Index>
1058329

>  <Assay Category>


>  <Assay Organism>
Homo sapiens

>  <Target ID>
17045

>  <Target Name>
Cytochrome P450 3A4

>  <Target Organism>
Homo sapiens

>  <Target Description>
Target is a single protein chain

>  <Sequence Accession>
P08684

>  <Reference>


>  <Pubmed ID>


>  <DOI>


$$$$
2106581
Actelion Java MolfileCreator 1.0

 33 37  0  0  1  0  0  0  0  0999 V2000
    0.0000   -0.0000   -0.0000 Cl  0  0  0  0  0  0  0  0  0  0  0  0
   -1.0656    0.6226   -0.0000 C   0  0  0  0  0  0  0  0  0  0  0  0
   -1.0656    2.1552   -0.0000 C   0  0  0  0  0  0  0  0  0  0  0  0
   -2.3947   -0.1197   -0.0000 C   0  0  0  0  0  0  0  0  0  0  0  0
    0.2395    2.9215   -0.0000 N   0  0  0  0  0  0  0  0  0  0  0  0
   -2.3827    2.9335   -0.0000 C   0  0  0  0  0  0  0  0  0  0  0  0
   -3.7117    0.6585   -0.0000 C   0  0  0  0  0  0  0  0  0  0  0  0
    0.3831    4.4302   -0.0000 N   0  0  0  0  0  0  0  0  0  0  0  0
    1.5925    2.2869   -0.0000 N   0  0  0  0  0  0  0  0  0  0  0  0
   -2.3827    4.4661   -0.0000 C   0  0  0  0  0  0  0  0  0  0  0  0
   -3.7117    2.1911   -0.0000 C   0  0  0  0  0  0  0  0  0  0  0  0
    1.8559    4.7415   -0.0000 C   0  0  0  0  0  0  0  0  0  0  0  0
    2.6102    3.4244   -0.0000 C   0  0  0  0  0  0  0  0  0  0  0  0
   -1.3410    5.0767   -0.0000 O   0  0  0  0  0  0  0  0  0  0  0  0
   -3.7117    5.2443   -0.0000 N   0  0  0  0  0  0  0  0  0  0  0  0
   -3.7237    6.7769   -0.0000 C   0  0  0  0  0  0  0  0  0  0  0  0
   -5.0408    4.5020   -0.0000 C   0  0  0  0  0  0  0  0  0  0  0  0
   -5.0528    7.5552   -0.0000 C   0  0  0  0  0  0  0  0  0  0  0  0
   -2.4186    7.5432   -0.0000 C   0  0  0  0  0  0  0  0  0  0  0  0
   -6.3698    5.2803   -0.0000 C   0  0  0  0  0  0  0  0  0  0  0  0
   -6.3818    6.8129   -0.0000 O   0  0  0  0  0  0  0  0  0  0  0  0
   -2.4306    9.0758   -0.0000 C   0  0  0  0  0  0  0  0  0  0  0  0
   -1.1255    9.8421   -0.0000 C   0  0  0  0  0  0  0  0  0  0  0  0
   -3.7596    9.8421   -0.0000 C   0  0  0  0  0  0  0  0  0  0  0  0
   -0.0838    9.2434   -0.0000 Cl  0  0  0  0  0  0  0  0  0  0  0  0
   -1.1375   11.3747   -0.0000 C   0  0  0  0  0  0  0  0  0  0  0  0
   -3.7716   11.3747   -0.0000 C   0  0  0  0  0  0  0  0  0  0  0  0
   -2.4665   12.1410   -0.0000 C   0  0  0  0  0  0  0  0  0  0  0  0
   -5.1007   12.1410   -0.0000 N   0  0  0  0  0  0  0  0  0  0  0  0
   -5.2563   13.6497   -0.0000 N   0  0  0  0  0  0  0  0  0  0  0  0
   -6.4776   11.5184   -0.0000 N   0  0  0  0  0  0  0  0  0  0  0  0
   -6.7530   13.9729   -0.0000 C   0  0  0  0  0  0  0  0  0  0  0  0
   -7.5073   12.6559   -0.0000 C   0  0  0  0  0  0  0  0  0  0  0  0
  1  2  1  0  0  0  0
  2  3  2  0  0  0  0
  2  4  1  0  0  0  0
  3  5  1  0  0  0  0
  3  6  1  0  0  0  0
  4  7  2  0  0  0  0
  5  8  1  0  0  0  0
  5  9  1  0  0  0  0
  6 10  1  0  0  0  0
  6 11  2  0  0  0  0
  8 12  2  0  0  0  0
  9 13  2  0  0  0  0
 10 14  2  0  0  0  0
 10 15  1  0  0  0  0
 15 16  1  0  0  0  0
 15 17  1  0  0  0  0
 16 18  1  0  0  0  0
 16 19  1  1  0  0  0
 17 20  1  0  0  0  0
 18 21  1  0  0  0  0
 19 22  1  0  0  0  0
 22 23  2  0  0  0  0
 22 24  1  0  0  0  0
 23 25  1  0  0  0  0
 23 26  1  0  0  0  0
 24 27  2  0  0  0  0
 26 28  2  0  0  0  0
 27 29  1  0  0  0  0
 29 30  1  0  0  0  0
 29 31  1  0  0  0  0
 30 32  2  0  0  0  0
 31 33  2  0  0  0  0
  7 11  1  0  0  0  0
 12 13  1  0  0  0  0
 20 21  1  0  0  0  0
 27 28  1  0  0  0  0
 32 33  1  0  0  0  0
M  END
>  <MolRegNo>
2106581

>  <m>
=

>  <Value>
13000

>  <Unit>
nM

>  <Type>
IC50

>  <pValue>
4.89

>  <Ligand Efficiency>
0.2

>  <Binding Efficiency>
10.09

>  <Surface Efficiency>
5.37

>  <Assay Index>
1058329

>  <Assay Category>


>  <Assay Organism>
Homo sapiens

>  <Target ID>
17045

>  <Target Name>
Cytochrome P450 3A4

>  <Target Organism>
Homo sapiens

>  <Target Description>
Target is a single protein chain

>  <Sequence Accession>
P08684

>  <Reference>


>  <Pubmed ID>


>  <DOI>


$$$$
2152541
Actelion Java MolfileCreator 1.0

 33 37  0  0  1  0  0  0  0  0999 V2000
    0.0000   -0.0000   -0.0000 Cl  0  0  0  0  0  0  0  0  0  0  0  0
   -0.0120   -1.2141   -0.0000 C   0  0  0  0  0  0  0  0  0  0  0  0
   -1.3464   -1.9594   -0.0000 C   0  0  0  0  0  0  0  0  0  0  0  0
    1.2983   -1.9715   -0.0000 C   0  0  0  0  0  0  0  0  0  0  0  0
   -2.6807   -1.1781   -0.0000 N   0  0  0  0  0  0  0  0  0  0  0  0
   -1.3584   -3.4741   -0.0000 C   0  0  0  0  0  0  0  0  0  0  0  0
    1.2863   -3.4861   -0.0000 C   0  0  0  0  0  0  0  0  0  0  0  0
   -4.0752   -1.7912   -0.0000 N   0  0  0  0  0  0  0  0  0  0  0  0
   -2.8250    0.3366   -0.0000 N   0  0  0  0  0  0  0  0  0  0  0  0
   -2.6927   -4.2194   -0.0000 C   0  0  0  0  0  0  0  0  0  0  0  0
   -0.0481   -4.2314   -0.0000 C   0  0  0  0  0  0  0  0  0  0  0  0
   -5.0970   -0.6371   -0.0000 C   0  0  0  0  0  0  0  0  0  0  0  0
   -4.3276    0.6732   -0.0000 C   0  0  0  0  0  0  0  0  0  0  0  0
   -3.7626   -3.5943   -0.0000 O   0  0  0  0  0  0  0  0  0  0  0  0
   -2.7048   -5.7341   -0.0000 N   0  0  0  0  0  0  0  0  0  0  0  0
   -4.0391   -6.4794   -0.0000 C   0  0  0  0  0  0  0  0  0  0  0  0
   -1.3945   -6.4794   -0.0000 C   0  0  0  0  0  0  0  0  0  0  0  0
   -4.0511   -7.9941   -0.0000 C   0  0  0  0  0  0  0  0  0  0  0  0
   -5.3735   -5.6980   -0.0000 C   0  0  0  0  0  0  0  0  0  0  0  0
   -1.4065   -7.9941   -0.0000 C   0  0  0  0  0  0  0  0  0  0  0  0
   -2.7408   -8.7394   -0.0000 O   0  0  0  0  0  0  0  0  0  0  0  0
   -5.3855   -4.1593   -0.0000 C   0  0  0  0  0  0  0  0  0  0  0  0
   -0.3606   -8.5951   -0.0000 C   0  0  0  0  0  0  0  0  0  0  0  0
   -4.0752   -3.3900   -0.0000 C   0  0  0  0  0  0  0  0  0  0  0  0
   -6.7198   -3.3779   -0.0000 C   0  0  0  0  0  0  0  0  0  0  0  0
   -4.0872   -1.8513   -0.0000 C   0  0  0  0  0  0  0  0  0  0  0  0
   -6.7318   -1.8392   -0.0000 C   0  0  0  0  0  0  0  0  0  0  0  0
   -2.7769   -1.0819   -0.0000 N   0  0  0  0  0  0  0  0  0  0  0  0
   -5.4215   -1.0699   -0.0000 C   0  0  0  0  0  0  0  0  0  0  0  0
   -2.6447    0.4328   -0.0000 N   0  0  0  0  0  0  0  0  0  0  0  0
   -1.4185   -1.7070   -0.0000 N   0  0  0  0  0  0  0  0  0  0  0  0
   -1.1661    0.7573   -0.0000 C   0  0  0  0  0  0  0  0  0  0  0  0
   -0.4087   -0.5650   -0.0000 C   0  0  0  0  0  0  0  0  0  0  0  0
  1  2  1  0  0  0  0
  2  3  2  0  0  0  0
  2  4  1  0  0  0  0
  3  5  1  0  0  0  0
  3  6  1  0  0  0  0
  4  7  2  0  0  0  0
  5  8  1  0  0  0  0
  5  9  1  0  0  0  0
  6 10  1  0  0  0  0
  6 11  2  0  0  0  0
  8 12  2  0  0  0  0
  9 13  2  0  0  0  0
 10 14  2  0  0  0  0
 10 15  1  0  0  0  0
 15 16  1  0  0  0  0
 15 17  1  0  0  0  0
 16 18  1  0  0  0  0
 16 19  1  1  0  0  0
 17 20  1  0  0  0  0
 18 21  1  0  0  0  0
 19 22  1  0  0  0  0
 20 23  1  1  0  0  0
 22 24  2  0  0  0  0
 22 25  1  0  0  0  0
 24 26  1  0  0  0  0
 25 27  2  0  0  0  0
 26 28  1  0  0  0  0
 26 29  2  0  0  0  0
 28 30  1  0  0  0  0
 28 31  1  0  0  0  0
 30 32  2  0  0  0  0
 31 33  2  0  0  0  0
  7 11  1  0  0  0  0
 12 13  1  0  0  0  0
 20 21  1  0  0  0  0
 27 29  1  0  0  0  0
 32 33  1  0  0  0  0
M  END
>  <MolRegNo>
2152541

>  <m>
=

>  <Value>
23000

>  <Unit>
nM

>  <Type>
IC50

>  <pValue>
4.64

>  <Ligand Efficiency>
0.19

>  <Binding Efficiency>
10

>  <Surface Efficiency>
5.1

>  <Assay Index>
1058329

>  <Assay Category>


>  <Assay Organism>
Homo sapiens

>  <Target ID>
17045

>  <Target Name>
Cytochrome P450 3A4

>  <Target Organism>
Homo sapiens

>  <Target Description>
Target is a single protein chain

>  <Sequence Accession>
P08684

>  <Reference>


>  <Pubmed ID>


>  <DOI>


$$$$
2182104
Actelion Java MolfileCreator 1.0

 34 38  0  0  1  0  0  0  0  0999 V2000
    0.0000   -0.0000   -0.0000 Cl  0  0  0  0  0  0  0  0  0  0  0  0
   -0.0121   -1.2201   -0.0000 C   0  0  0  0  0  0  0  0  0  0  0  0
   -1.3530   -1.9691   -0.0000 C   0  0  0  0  0  0  0  0  0  0  0  0
    1.3047   -1.9812   -0.0000 C   0  0  0  0  0  0  0  0  0  0  0  0
   -2.6939   -1.1839   -0.0000 N   0  0  0  0  0  0  0  0  0  0  0  0
   -1.3651   -3.4912   -0.0000 C   0  0  0  0  0  0  0  0  0  0  0  0
    1.2926   -3.5033   -0.0000 C   0  0  0  0  0  0  0  0  0  0  0  0
   -4.0952   -1.8000   -0.0000 N   0  0  0  0  0  0  0  0  0  0  0  0
   -2.8388    0.3382   -0.0000 N   0  0  0  0  0  0  0  0  0  0  0  0
   -2.7060   -4.2402   -0.0000 C   0  0  0  0  0  0  0  0  0  0  0  0
   -0.0483   -4.2522   -0.0000 C   0  0  0  0  0  0  0  0  0  0  0  0
   -5.1220   -0.6403   -0.0000 C   0  0  0  0  0  0  0  0  0  0  0  0
   -4.3489    0.6765   -0.0000 C   0  0  0  0  0  0  0  0  0  0  0  0
   -3.7811   -3.6120   -0.0000 O   0  0  0  0  0  0  0  0  0  0  0  0
   -2.7180   -5.7623   -0.0000 N   0  0  0  0  0  0  0  0  0  0  0  0
   -4.0590   -6.5112   -0.0000 C   0  0  0  0  0  0  0  0  0  0  0  0
   -1.4013   -6.5112   -0.0000 C   0  0  0  0  0  0  0  0  0  0  0  0
   -4.0710   -8.0333   -0.0000 C   0  0  0  0  0  0  0  0  0  0  0  0
   -5.3999   -5.7260   -0.0000 C   0  0  0  0  0  0  0  0  0  0  0  0
   -1.4134   -8.0333   -0.0000 C   0  0  0  0  0  0  0  0  0  0  0  0
   -2.7543   -8.7823   -0.0000 O   0  0  0  0  0  0  0  0  0  0  0  0
   -5.4119   -4.1798   -0.0000 C   0  0  0  0  0  0  0  0  0  0  0  0
   -0.3624   -8.6373   -0.0000 C   0  0  0  0  0  0  0  0  0  0  0  0
   -6.7528   -3.3945   -0.0000 C   0  0  0  0  0  0  0  0  0  0  0  0
   -4.0952   -3.4066   -0.0000 C   0  0  0  0  0  0  0  0  0  0  0  0
   -7.8280   -3.9865   -0.0000 F   0  0  0  0  0  0  0  0  0  0  0  0
   -6.7649   -1.8483   -0.0000 C   0  0  0  0  0  0  0  0  0  0  0  0
   -4.1073   -1.8604   -0.0000 C   0  0  0  0  0  0  0  0  0  0  0  0
   -5.4482   -1.0751   -0.0000 C   0  0  0  0  0  0  0  0  0  0  0  0
   -2.7905   -1.0872   -0.0000 N   0  0  0  0  0  0  0  0  0  0  0  0
   -1.4255   -1.7154   -0.0000 N   0  0  0  0  0  0  0  0  0  0  0  0
   -2.6576    0.4349   -0.0000 N   0  0  0  0  0  0  0  0  0  0  0  0
   -0.4107   -0.5678   -0.0000 C   0  0  0  0  0  0  0  0  0  0  0  0
   -1.1718    0.7611   -0.0000 C   0  0  0  0  0  0  0  0  0  0  0  0
  1  2  1  0  0  0  0
  2  3  2  0  0  0  0
  2  4  1  0  0  0  0
  3  5  1  0  0  0  0
  3  6  1  0  0  0  0
  4  7  2  0  0  0  0
  5  8  1  0  0  0  0
  5  9  1  0  0  0  0
  6 10  1  0  0  0  0
  6 11  2  0  0  0  0
  8 12  2  0  0  0  0
  9 13  2  0  0  0  0
 10 14  2  0  0  0  0
 10 15  1  0  0  0  0
 15 16  1  0  0  0  0
 15 17  1  0  0  0  0
 16 18  1  0  0  0  0
 16 19  1  1  0  0  0
 17 20  1  0  0  0  0
 18 21  1  0  0  0  0
 19 22  1  0  0  0  0
 20 23  1  1  0  0  0
 22 24  2  0  0  0  0
 22 25  1  0  0  0  0
 24 26  1  0  0  0  0
 24 27  1  0  0  0  0
 25 28  2  0  0  0  0
 27 29  2  0  0  0  0
 28 30  1  0  0  0  0
 30 31  1  0  0  0  0
 30 32  1  0  0  0  0
 31 33  2  0  0  0  0
 32 34  2  0  0  0  0
  7 11  1  0  0  0  0
 12 13  1  0  0  0  0
 20 21  1  0  0  0  0
 28 29  1  0  0  0  0
 33 34  1  0  0  0  0
M  END
>  <MolRegNo>
2182104

>  <m>
=

>  <Value>
21000

>  <Unit>
nM

>  <Type>
IC50

>  <pValue>
4.68

>  <Ligand Efficiency>
0.19

>  <Binding Efficiency>
9.71

>  <Surface Efficiency>
5.14

>  <Assay Index>
1058329

>  <Assay Category>


>  <Assay Organism>
Homo sapiens

>  <Target ID>
17045

>  <Target Name>
Cytochrome P450 3A4

>  <Target Organism>
Homo sapiens

>  <Target Description>
Target is a single protein chain

>  <Sequence Accession>
P08684

>  <Reference>


>  <Pubmed ID>


>  <DOI>


$$$$
2157870
Actelion Java MolfileCreator 1.0

 33 37  0  0  1  0  0  0  0  0999 V2000
    0.0000   -0.0000   -0.0000 F   0  0  0  0  0  0  0  0  0  0  0  0
    0.0000   -1.2179   -0.0000 C   0  0  0  0  0  0  0  0  0  0  0  0
    1.3144   -1.9655   -0.0000 C   0  0  0  0  0  0  0  0  0  0  0  0
   -1.3264   -1.9776   -0.0000 C   0  0  0  0  0  0  0  0  0  0  0  0
    1.3144   -3.4849   -0.0000 C   0  0  0  0  0  0  0  0  0  0  0  0
    2.6287   -1.1817   -0.0000 C   0  0  0  0  0  0  0  0  0  0  0  0
   -1.3264   -3.4969   -0.0000 C   0  0  0  0  0  0  0  0  0  0  0  0
   -0.0121   -4.2445   -0.0000 C   0  0  0  0  0  0  0  0  0  0  0  0
    3.9431   -1.9293   -0.0000 C   0  0  0  0  0  0  0  0  0  0  0  0
   -0.0121   -5.7639   -0.0000 C   0  0  0  0  0  0  0  0  0  0  0  0
    5.2574   -1.1455   -0.0000 N   0  0  0  0  0  0  0  0  0  0  0  0
    3.9310   -3.4487   -0.0000 C   0  0  0  0  0  0  0  0  0  0  0  0
    1.2179   -6.6200   -0.0000 N   0  0  0  0  0  0  0  0  0  0  0  0
   -1.2541   -6.6321   -0.0000 N   0  0  0  0  0  0  0  0  0  0  0  0
    5.2454    0.3979   -0.0000 C   0  0  0  0  0  0  0  0  0  0  0  0
    6.5718   -1.8932   -0.0000 C   0  0  0  0  0  0  0  0  0  0  0  0
    5.2454   -4.1963   -0.0000 O   0  0  0  0  0  0  0  0  0  0  0  0
    0.7356   -8.0670   -0.0000 O   0  0  0  0  0  0  0  0  0  0  0  0
   -0.7838   -8.0791   -0.0000 C   0  0  0  0  0  0  0  0  0  0  0  0
    4.1722    1.0250   -0.0000 O   0  0  0  0  0  0  0  0  0  0  0  0
    6.5597    1.1817   -0.0000 C   0  0  0  0  0  0  0  0  0  0  0  0
    6.5597   -3.4125   -0.0000 C   0  0  0  0  0  0  0  0  0  0  0  0
    6.5477    2.7252   -0.0000 C   0  0  0  0  0  0  0  0  0  0  0  0
    7.8741    0.4341   -0.0000 C   0  0  0  0  0  0  0  0  0  0  0  0
    5.2092    3.4969   -0.0000 N   0  0  0  0  0  0  0  0  0  0  0  0
    7.8620    3.4969   -0.0000 C   0  0  0  0  0  0  0  0  0  0  0  0
    9.1885    1.2058   -0.0000 C   0  0  0  0  0  0  0  0  0  0  0  0
    5.0524    5.0163   -0.0000 N   0  0  0  0  0  0  0  0  0  0  0  0
    3.8225    2.8699   -0.0000 N   0  0  0  0  0  0  0  0  0  0  0  0
    9.1764    2.7493   -0.0000 C   0  0  0  0  0  0  0  0  0  0  0  0
   10.2375    0.6029   -0.0000 C   0  0  0  0  0  0  0  0  0  0  0  0
    3.5452    5.3418   -0.0000 C   0  0  0  0  0  0  0  0  0  0  0  0
    2.7855    4.0154   -0.0000 C   0  0  0  0  0  0  0  0  0  0  0  0
  1  2  1  0  0  0  0
  2  3  2  0  0  0  0
  2  4  1  0  0  0  0
  3  5  1  0  0  0  0
  3  6  1  0  0  0  0
  4  7  2  0  0  0  0
  5  8  2  0  0  0  0
  9  6  1  1  0  0  0
  8 10  1  0  0  0  0
  9 11  1  0  0  0  0
  9 12  1  0  0  0  0
 10 13  2  0  0  0  0
 10 14  1  0  0  0  0
 11 15  1  0  0  0  0
 11 16  1  0  0  0  0
 12 17  1  0  0  0  0
 13 18  1  0  0  0  0
 14 19  2  0  0  0  0
 15 20  2  0  0  0  0
 15 21  1  0  0  0  0
 16 22  1  0  0  0  0
 21 23  2  0  0  0  0
 21 24  1  0  0  0  0
 23 25  1  0  0  0  0
 23 26  1  0  0  0  0
 24 27  2  0  0  0  0
 25 28  1  0  0  0  0
 25 29  1  0  0  0  0
 26 30  2  0  0  0  0
 27 31  1  0  0  0  0
 28 32  2  0  0  0  0
 29 33  2  0  0  0  0
  7  8  1  0  0  0  0
 17 22  1  0  0  0  0
 18 19  1  0  0  0  0
 27 30  1  0  0  0  0
 32 33  1  0  0  0  0
M  END
>  <MolRegNo>
2157870

>  <m>
=

>  <Value>
50000

>  <Unit>
nM

>  <Type>
IC50

>  <pValue>
4.3

>  <Ligand Efficiency>
0.18

>  <Binding Efficiency>
9.59

>  <Surface Efficiency>
4.34

>  <Assay Index>
1058329

>  <Assay Category>


>  <Assay Organism>
Homo sapiens

>  <Target ID>
17045

>  <Target Name>
Cytochrome P450 3A4

>  <Target Organism>
Homo sapiens

>  <Target Description>
Target is a single protein chain

>  <Sequence Accession>
P08684

>  <Reference>


>  <Pubmed ID>


>  <DOI>


$$$$
2190137
Actelion Java MolfileCreator 1.0

 33 37  0  0  1  0  0  0  0  0999 V2000
    0.0000   -0.0000   -0.0000 F   0  0  0  0  0  0  0  0  0  0  0  0
    0.0000    1.2393   -0.0000 C   0  0  0  0  0  0  0  0  0  0  0  0
    1.3114    2.0093   -0.0000 C   0  0  0  0  0  0  0  0  0  0  0  0
   -1.3235    2.0213   -0.0000 C   0  0  0  0  0  0  0  0  0  0  0  0
    1.3114    3.5493   -0.0000 C   0  0  0  0  0  0  0  0  0  0  0  0
    2.6229    1.2513   -0.0000 C   0  0  0  0  0  0  0  0  0  0  0  0
   -1.3235    3.5613   -0.0000 C   0  0  0  0  0  0  0  0  0  0  0  0
   -0.0120    4.3314   -0.0000 C   0  0  0  0  0  0  0  0  0  0  0  0
    3.9343    2.0213   -0.0000 C   0  0  0  0  0  0  0  0  0  0  0  0
   -0.0120    5.8714   -0.0000 C   0  0  0  0  0  0  0  0  0  0  0  0
    5.2458    1.2633   -0.0000 N   0  0  0  0  0  0  0  0  0  0  0  0
    3.9223    3.5613   -0.0000 C   0  0  0  0  0  0  0  0  0  0  0  0
    1.2152    6.7497   -0.0000 N   0  0  0  0  0  0  0  0  0  0  0  0
   -1.2513    6.7617   -0.0000 N   0  0  0  0  0  0  0  0  0  0  0  0
    5.2337   -0.2527   -0.0000 C   0  0  0  0  0  0  0  0  0  0  0  0
    6.5572    2.0333   -0.0000 C   0  0  0  0  0  0  0  0  0  0  0  0
    5.2337    4.3314   -0.0000 O   0  0  0  0  0  0  0  0  0  0  0  0
    0.7339    8.2176   -0.0000 O   0  0  0  0  0  0  0  0  0  0  0  0
   -0.7821    8.2296   -0.0000 C   0  0  0  0  0  0  0  0  0  0  0  0
    4.1629   -0.8542   -0.0000 O   0  0  0  0  0  0  0  0  0  0  0  0
    6.5452   -1.0107   -0.0000 C   0  0  0  0  0  0  0  0  0  0  0  0
    6.5452    3.5734   -0.0000 C   0  0  0  0  0  0  0  0  0  0  0  0
    6.5331   -2.5266   -0.0000 C   0  0  0  0  0  0  0  0  0  0  0  0
    7.8566   -0.2406   -0.0000 C   0  0  0  0  0  0  0  0  0  0  0  0
    5.1976   -3.2726   -0.0000 N   0  0  0  0  0  0  0  0  0  0  0  0
    7.8446   -3.2726   -0.0000 C   0  0  0  0  0  0  0  0  0  0  0  0
    9.1681   -0.9866   -0.0000 C   0  0  0  0  0  0  0  0  0  0  0  0
    3.8140   -2.6349   -0.0000 N   0  0  0  0  0  0  0  0  0  0  0  0
    5.0533   -4.7645   -0.0000 N   0  0  0  0  0  0  0  0  0  0  0  0
    9.1560   -2.5026   -0.0000 C   0  0  0  0  0  0  0  0  0  0  0  0
    2.7793   -3.7539   -0.0000 C   0  0  0  0  0  0  0  0  0  0  0  0
    3.5493   -5.0773   -0.0000 C   0  0  0  0  0  0  0  0  0  0  0  0
   10.2028   -3.1041   -0.0000 C   0  0  0  0  0  0  0  0  0  0  0  0
  1  2  1  0  0  0  0
  2  3  2  0  0  0  0
  2  4  1  0  0  0  0
  3  5  1  0  0  0  0
  3  6  1  0  0  0  0
  4  7  2  0  0  0  0
  5  8  2  0  0  0  0
  9  6  1  6  0  0  0
  8 10  1  0  0  0  0
  9 11  1  0  0  0  0
  9 12  1  0  0  0  0
 10 13  2  0  0  0  0
 10 14  1  0  0  0  0
 11 15  1  0  0  0  0
 11 16  1  0  0  0  0
 12 17  1  0  0  0  0
 13 18  1  0  0  0  0
 14 19  2  0  0  0  0
 15 20  2  0  0  0  0
 15 21  1  0  0  0  0
 16 22  1  0  0  0  0
 21 23  2  0  0  0  0
 21 24  1  0  0  0  0
 23 25  1  0  0  0  0
 23 26  1  0  0  0  0
 24 27  2  0  0  0  0
 25 28  1  0  0  0  0
 25 29  1  0  0  0  0
 26 30  2  0  0  0  0
 28 31  2  0  0  0  0
 29 32  2  0  0  0  0
 30 33  1  0  0  0  0
  7  8  1  0  0  0  0
 17 22  1  0  0  0  0
 18 19  1  0  0  0  0
 27 30  1  0  0  0  0
 31 32  1  0  0  0  0
M  END
>  <MolRegNo>
2190137

>  <m>
=

>  <Value>
35000

>  <Unit>
nM

>  <Type>
IC50

>  <pValue>
4.46

>  <Ligand Efficiency>
0.18

>  <Binding Efficiency>
9.94

>  <Surface Efficiency>
4.49

>  <Assay Index>
1058329

>  <Assay Category>


>  <Assay Organism>
Homo sapiens

>  <Target ID>
17045

>  <Target Name>
Cytochrome P450 3A4

>  <Target Organism>
Homo sapiens

>  <Target Description>
Target is a single protein chain

>  <Sequence Accession>
P08684

>  <Reference>


>  <Pubmed ID>


>  <DOI>


$$$$
2176496
Actelion Java MolfileCreator 1.0

 33 37  0  0  1  0  0  0  0  0999 V2000
    0.0000   -0.0000   -0.0000 Cl  0  0  0  0  0  0  0  0  0  0  0  0
    1.0438    0.6119   -0.0000 C   0  0  0  0  0  0  0  0  0  0  0  0
    1.0438    2.1475   -0.0000 C   0  0  0  0  0  0  0  0  0  0  0  0
    2.3394   -0.1440   -0.0000 C   0  0  0  0  0  0  0  0  0  0  0  0
    2.3514    2.9153   -0.0000 C   0  0  0  0  0  0  0  0  0  0  0  0
    3.6471    0.6239   -0.0000 C   0  0  0  0  0  0  0  0  0  0  0  0
    3.6471    2.1595   -0.0000 C   0  0  0  0  0  0  0  0  0  0  0  0
    2.3514    4.4509   -0.0000 C   0  0  0  0  0  0  0  0  0  0  0  0
    4.9548    2.9273   -0.0000 N   0  0  0  0  0  0  0  0  0  0  0  0
    3.3952    5.0628   -0.0000 O   0  0  0  0  0  0  0  0  0  0  0  0
    1.0198    5.2308   -0.0000 N   0  0  0  0  0  0  0  0  0  0  0  0
    5.0988    4.4389   -0.0000 N   0  0  0  0  0  0  0  0  0  0  0  0
    6.3105    2.2915   -0.0000 N   0  0  0  0  0  0  0  0  0  0  0  0
    1.0078    6.7664   -0.0000 C   0  0  0  0  0  0  0  0  0  0  0  0
   -0.3119    4.4869   -0.0000 C   0  0  0  0  0  0  0  0  0  0  0  0
    6.5744    4.7509   -0.0000 C   0  0  0  0  0  0  0  0  0  0  0  0
    7.3303    3.4312   -0.0000 C   0  0  0  0  0  0  0  0  0  0  0  0
   -0.3239    7.5462   -0.0000 C   0  0  0  0  0  0  0  0  0  0  0  0
    2.3155    7.5342   -0.0000 C   0  0  0  0  0  0  0  0  0  0  0  0
   -1.6436    5.2668   -0.0000 C   0  0  0  0  0  0  0  0  0  0  0  0
   -1.6556    6.8024   -0.0000 O   0  0  0  0  0  0  0  0  0  0  0  0
    2.3035    9.0699   -0.0000 C   0  0  0  0  0  0  0  0  0  0  0  0
    3.6111    9.8377   -0.0000 C   0  0  0  0  0  0  0  0  0  0  0  0
    0.9718    9.8377   -0.0000 C   0  0  0  0  0  0  0  0  0  0  0  0
    4.6549    9.2378   -0.0000 F   0  0  0  0  0  0  0  0  0  0  0  0
    3.5991   11.3733   -0.0000 C   0  0  0  0  0  0  0  0  0  0  0  0
    0.9598   11.3733   -0.0000 C   0  0  0  0  0  0  0  0  0  0  0  0
    2.2675   12.1411   -0.0000 C   0  0  0  0  0  0  0  0  0  0  0  0
   -0.3719   12.1411   -0.0000 C   0  0  0  0  0  0  0  0  0  0  0  0
   -0.5279   13.6528   -0.0000 N   0  0  0  0  0  0  0  0  0  0  0  0
   -1.7516   11.5173   -0.0000 N   0  0  0  0  0  0  0  0  0  0  0  0
   -2.0275   13.9767   -0.0000 O   0  0  0  0  0  0  0  0  0  0  0  0
   -2.7833   12.6570   -0.0000 C   0  0  0  0  0  0  0  0  0  0  0  0
  1  2  1  0  0  0  0
  2  3  2  0  0  0  0
  2  4  1  0  0  0  0
  3  5  1  0  0  0  0
  4  6  2  0  0  0  0
  5  7  2  0  0  0  0
  5  8  1  0  0  0  0
  7  9  1  0  0  0  0
  8 10  2  0  0  0  0
  8 11  1  0  0  0  0
  9 12  1  0  0  0  0
  9 13  1  0  0  0  0
 11 14  1  0  0  0  0
 11 15  1  0  0  0  0
 12 16  2  0  0  0  0
 13 17  2  0  0  0  0
 14 18  1  0  0  0  0
 14 19  1  1  0  0  0
 15 20  1  0  0  0  0
 18 21  1  0  0  0  0
 19 22  1  0  0  0  0
 22 23  2  0  0  0  0
 22 24  1  0  0  0  0
 23 25  1  0  0  0  0
 23 26  1  0  0  0  0
 24 27  2  0  0  0  0
 26 28  2  0  0  0  0
 27 29  1  0  0  0  0
 29 30  2  0  0  0  0
 29 31  1  0  0  0  0
 30 32  1  0  0  0  0
 31 33  2  0  0  0  0
  6  7  1  0  0  0  0
 16 17  1  0  0  0  0
 20 21  1  0  0  0  0
 27 28  1  0  0  0  0
 32 33  1  0  0  0  0
M  END
>  <MolRegNo>
2176496

>  <m>
=

>  <Value>
22000

>  <Unit>
nM

>  <Type>
IC50

>  <pValue>
4.66

>  <Ligand Efficiency>
0.19

>  <Binding Efficiency>
9.93

>  <Surface Efficiency>
4.7

>  <Assay Index>
1058329

>  <Assay Category>


>  <Assay Organism>
Homo sapiens

>  <Target ID>
17045

>  <Target Name>
Cytochrome P450 3A4

>  <Target Organism>
Homo sapiens

>  <Target Description>
Target is a single protein chain

>  <Sequence Accession>
P08684

>  <Reference>


>  <Pubmed ID>


>  <DOI>


$$$$
2155416
Actelion Java MolfileCreator 1.0

 33 37  0  0  1  0  0  0  0  0999 V2000
    0.0000   -0.0000   -0.0000 Cl  0  0  0  0  0  0  0  0  0  0  0  0
    0.0000    1.2337   -0.0000 C   0  0  0  0  0  0  0  0  0  0  0  0
    1.3055    2.0002   -0.0000 C   0  0  0  0  0  0  0  0  0  0  0  0
   -1.3175    2.0122   -0.0000 C   0  0  0  0  0  0  0  0  0  0  0  0
    1.3055    3.5333   -0.0000 C   0  0  0  0  0  0  0  0  0  0  0  0
   -1.3175    3.5453   -0.0000 C   0  0  0  0  0  0  0  0  0  0  0  0
    2.6111    4.2999   -0.0000 N   0  0  0  0  0  0  0  0  0  0  0  0
   -0.0120    4.3119   -0.0000 C   0  0  0  0  0  0  0  0  0  0  0  0
    2.7548    5.8090   -0.0000 N   0  0  0  0  0  0  0  0  0  0  0  0
    3.9645    3.6651   -0.0000 N   0  0  0  0  0  0  0  0  0  0  0  0
   -0.0120    5.8450   -0.0000 C   0  0  0  0  0  0  0  0  0  0  0  0
    4.2280    6.1205   -0.0000 C   0  0  0  0  0  0  0  0  0  0  0  0
    4.9826    4.8029   -0.0000 C   0  0  0  0  0  0  0  0  0  0  0  0
    1.0301    6.4558   -0.0000 O   0  0  0  0  0  0  0  0  0  0  0  0
   -1.3415    6.6235   -0.0000 N   0  0  0  0  0  0  0  0  0  0  0  0
   -1.3534    8.1566   -0.0000 C   0  0  0  0  0  0  0  0  0  0  0  0
   -2.6710    5.8809   -0.0000 C   0  0  0  0  0  0  0  0  0  0  0  0
   -2.6829    8.9351   -0.0000 C   0  0  0  0  0  0  0  0  0  0  0  0
   -0.0479    8.9232   -0.0000 C   0  0  0  0  0  0  0  0  0  0  0  0
   -4.0005    6.6594   -0.0000 C   0  0  0  0  0  0  0  0  0  0  0  0
   -4.0124    8.1925   -0.0000 O   0  0  0  0  0  0  0  0  0  0  0  0
   -0.0599   10.4563   -0.0000 C   0  0  0  0  0  0  0  0  0  0  0  0
    1.2457   11.2228   -0.0000 C   0  0  0  0  0  0  0  0  0  0  0  0
   -1.3894   11.2228   -0.0000 C   0  0  0  0  0  0  0  0  0  0  0  0
    2.2877   10.6240   -0.0000 F   0  0  0  0  0  0  0  0  0  0  0  0
    1.2337   12.7559   -0.0000 C   0  0  0  0  0  0  0  0  0  0  0  0
   -1.4014   12.7559   -0.0000 C   0  0  0  0  0  0  0  0  0  0  0  0
   -0.0958   13.5225   -0.0000 C   0  0  0  0  0  0  0  0  0  0  0  0
   -2.7308   13.5225   -0.0000 C   0  0  0  0  0  0  0  0  0  0  0  0
   -2.8866   15.0317   -0.0000 N   0  0  0  0  0  0  0  0  0  0  0  0
   -4.1083   12.8997   -0.0000 N   0  0  0  0  0  0  0  0  0  0  0  0
   -4.3837   15.3550   -0.0000 O   0  0  0  0  0  0  0  0  0  0  0  0
   -5.1383   14.0375   -0.0000 C   0  0  0  0  0  0  0  0  0  0  0  0
  1  2  1  0  0  0  0
  2  3  2  0  0  0  0
  2  4  1  0  0  0  0
  3  5  1  0  0  0  0
  4  6  2  0  0  0  0
  5  7  1  0  0  0  0
  5  8  2  0  0  0  0
  7  9  1  0  0  0  0
  7 10  1  0  0  0  0
  8 11  1  0  0  0  0
  9 12  2  0  0  0  0
 10 13  2  0  0  0  0
 11 14  2  0  0  0  0
 11 15  1  0  0  0  0
 15 16  1  0  0  0  0
 15 17  1  0  0  0  0
 16 18  1  0  0  0  0
 16 19  1  1  0  0  0
 17 20  1  0  0  0  0
 18 21  1  0  0  0  0
 19 22  1  0  0  0  0
 22 23  2  0  0  0  0
 22 24  1  0  0  0  0
 23 25  1  0  0  0  0
 23 26  1  0  0  0  0
 24 27  2  0  0  0  0
 26 28  2  0  0  0  0
 27 29  1  0  0  0  0
 29 30  2  0  0  0  0
 29 31  1  0  0  0  0
 30 32  1  0  0  0  0
 31 33  2  0  0  0  0
  6  8  1  0  0  0  0
 12 13  1  0  0  0  0
 20 21  1  0  0  0  0
 27 28  1  0  0  0  0
 32 33  1  0  0  0  0
M  END
>  <MolRegNo>
2155416

>  <m>
=

>  <Value>
24000

>  <Unit>
nM

>  <Type>
IC50

>  <pValue>
4.62

>  <Ligand Efficiency>
0.19

>  <Binding Efficiency>
9.85

>  <Surface Efficiency>
4.66

>  <Assay Index>
1058329

>  <Assay Category>


>  <Assay Organism>
Homo sapiens

>  <Target ID>
17045

>  <Target Name>
Cytochrome P450 3A4

>  <Target Organism>
Homo sapiens

>  <Target Description>
Target is a single protein chain

>  <Sequence Accession>
P08684

>  <Reference>


>  <Pubmed ID>


>  <DOI>


$$$$
2177851
Actelion Java MolfileCreator 1.0

 34 38  0  0  1  0  0  0  0  0999 V2000
    0.0000   -0.0000   -0.0000 F   0  0  0  0  0  0  0  0  0  0  0  0
    1.0543    0.6181   -0.0000 C   0  0  0  0  0  0  0  0  0  0  0  0
    2.3632   -0.1454   -0.0000 C   0  0  0  0  0  0  0  0  0  0  0  0
    1.0543    2.1693   -0.0000 C   0  0  0  0  0  0  0  0  0  0  0  0
    3.6841    0.6302   -0.0000 C   0  0  0  0  0  0  0  0  0  0  0  0
    2.3389   -1.6724   -0.0000 C   0  0  0  0  0  0  0  0  0  0  0  0
    2.3753    2.9449   -0.0000 C   0  0  0  0  0  0  0  0  0  0  0  0
    3.6841    2.1814   -0.0000 C   0  0  0  0  0  0  0  0  0  0  0  0
    3.6599   -2.4359   -0.0000 C   0  0  0  0  0  0  0  0  0  0  0  0
    5.0050    2.9570   -0.0000 C   0  0  0  0  0  0  0  0  0  0  0  0
    3.6477   -3.9628   -0.0000 N   0  0  0  0  0  0  0  0  0  0  0  0
    4.9808   -1.6603   -0.0000 C   0  0  0  0  0  0  0  0  0  0  0  0
    6.3745    2.3268   -0.0000 N   0  0  0  0  0  0  0  0  0  0  0  0
    5.1383    4.4839   -0.0000 N   0  0  0  0  0  0  0  0  0  0  0  0
    2.3026   -4.7142   -0.0000 C   0  0  0  0  0  0  0  0  0  0  0  0
    4.9687   -4.7263   -0.0000 C   0  0  0  0  0  0  0  0  0  0  0  0
    6.3017   -2.4237   -0.0000 O   0  0  0  0  0  0  0  0  0  0  0  0
    7.3924    3.4781   -0.0000 O   0  0  0  0  0  0  0  0  0  0  0  0
    6.6290    4.8111   -0.0000 C   0  0  0  0  0  0  0  0  0  0  0  0
    1.2240   -4.0840   -0.0000 O   0  0  0  0  0  0  0  0  0  0  0  0
    2.2904   -6.2412   -0.0000 C   0  0  0  0  0  0  0  0  0  0  0  0
    6.2896   -3.9507   -0.0000 C   0  0  0  0  0  0  0  0  0  0  0  0
    0.9453   -6.9925   -0.0000 C   0  0  0  0  0  0  0  0  0  0  0  0
    3.6114   -6.9925   -0.0000 C   0  0  0  0  0  0  0  0  0  0  0  0
   -0.3999   -6.2169   -0.0000 N   0  0  0  0  0  0  0  0  0  0  0  0
    0.9331   -8.5195   -0.0000 C   0  0  0  0  0  0  0  0  0  0  0  0
    3.5993   -8.5195   -0.0000 C   0  0  0  0  0  0  0  0  0  0  0  0
   -0.5575   -4.6900   -0.0000 N   0  0  0  0  0  0  0  0  0  0  0  0
   -1.7936   -6.8471   -0.0000 N   0  0  0  0  0  0  0  0  0  0  0  0
    2.2541   -9.2708   -0.0000 C   0  0  0  0  0  0  0  0  0  0  0  0
    4.6536   -9.1254   -0.0000 C   0  0  0  0  0  0  0  0  0  0  0  0
   -2.0723   -4.3627   -0.0000 C   0  0  0  0  0  0  0  0  0  0  0  0
   -2.8358   -5.6958   -0.0000 C   0  0  0  0  0  0  0  0  0  0  0  0
    2.2420  -10.4948   -0.0000 C   0  0  0  0  0  0  0  0  0  0  0  0
  1  2  1  0  0  0  0
  2  3  2  0  0  0  0
  2  4  1  0  0  0  0
  3  5  1  0  0  0  0
  3  6  1  0  0  0  0
  4  7  2  0  0  0  0
  5  8  2  0  0  0  0
  9  6  1  6  0  0  0
  8 10  1  0  0  0  0
  9 11  1  0  0  0  0
  9 12  1  0  0  0  0
 10 13  2  0  0  0  0
 10 14  1  0  0  0  0
 11 15  1  0  0  0  0
 11 16  1  0  0  0  0
 12 17  1  0  0  0  0
 13 18  1  0  0  0  0
 14 19  2  0  0  0  0
 15 20  2  0  0  0  0
 15 21  1  0  0  0  0
 16 22  1  0  0  0  0
 21 23  2  0  0  0  0
 21 24  1  0  0  0  0
 23 25  1  0  0  0  0
 23 26  1  0  0  0  0
 24 27  2  0  0  0  0
 25 28  1  0  0  0  0
 25 29  1  0  0  0  0
 26 30  2  0  0  0  0
 27 31  1  0  0  0  0
 28 32  2  0  0  0  0
 29 33  2  0  0  0  0
 30 34  1  0  0  0  0
  7  8  1  0  0  0  0
 17 22  1  0  0  0  0
 18 19  1  0  0  0  0
 27 30  1  0  0  0  0
 32 33  1  0  0  0  0
M  END
>  <MolRegNo>
2177851

>  <m>
=

>  <Value>
29000

>  <Unit>
nM

>  <Type>
IC50

>  <pValue>
4.54

>  <Ligand Efficiency>
0.18

>  <Binding Efficiency>
9.81

>  <Surface Efficiency>
4.58

>  <Assay Index>
1058329

>  <Assay Category>


>  <Assay Organism>
Homo sapiens

>  <Target ID>
17045

>  <Target Name>
Cytochrome P450 3A4

>  <Target Organism>
Homo sapiens

>  <Target Description>
Target is a single protein chain

>  <Sequence Accession>
P08684

>  <Reference>


>  <Pubmed ID>


>  <DOI>


$$$$
2164103
Actelion Java MolfileCreator 1.0

 33 37  0  0  1  0  0  0  0  0999 V2000
    0.0000   -0.0000   -0.0000 Cl  0  0  0  0  0  0  0  0  0  0  0  0
   -1.0656    0.6226   -0.0000 C   0  0  0  0  0  0  0  0  0  0  0  0
   -1.0656    2.1552   -0.0000 C   0  0  0  0  0  0  0  0  0  0  0  0
   -2.3947   -0.1197   -0.0000 C   0  0  0  0  0  0  0  0  0  0  0  0
    0.2395    2.9215   -0.0000 N   0  0  0  0  0  0  0  0  0  0  0  0
   -2.3827    2.9335   -0.0000 C   0  0  0  0  0  0  0  0  0  0  0  0
   -3.7117    0.6585   -0.0000 C   0  0  0  0  0  0  0  0  0  0  0  0
    0.3831    4.4302   -0.0000 N   0  0  0  0  0  0  0  0  0  0  0  0
    1.5925    2.2869   -0.0000 N   0  0  0  0  0  0  0  0  0  0  0  0
   -2.3827    4.4661   -0.0000 C   0  0  0  0  0  0  0  0  0  0  0  0
   -3.7117    2.1911   -0.0000 C   0  0  0  0  0  0  0  0  0  0  0  0
    1.8559    4.7415   -0.0000 C   0  0  0  0  0  0  0  0  0  0  0  0
    2.6102    3.4244   -0.0000 C   0  0  0  0  0  0  0  0  0  0  0  0
   -1.3410    5.0767   -0.0000 O   0  0  0  0  0  0  0  0  0  0  0  0
   -3.7117    5.2443   -0.0000 N   0  0  0  0  0  0  0  0  0  0  0  0
   -3.7237    6.7769   -0.0000 C   0  0  0  0  0  0  0  0  0  0  0  0
   -5.0408    4.5020   -0.0000 C   0  0  0  0  0  0  0  0  0  0  0  0
   -5.0528    7.5552   -0.0000 C   0  0  0  0  0  0  0  0  0  0  0  0
   -2.4186    7.5432   -0.0000 C   0  0  0  0  0  0  0  0  0  0  0  0
   -6.3698    5.2803   -0.0000 C   0  0  0  0  0  0  0  0  0  0  0  0
   -6.3818    6.8129   -0.0000 O   0  0  0  0  0  0  0  0  0  0  0  0
   -2.4306    9.0758   -0.0000 C   0  0  0  0  0  0  0  0  0  0  0  0
   -1.1255    9.8421   -0.0000 C   0  0  0  0  0  0  0  0  0  0  0  0
   -3.7596    9.8421   -0.0000 C   0  0  0  0  0  0  0  0  0  0  0  0
   -0.0838    9.2434   -0.0000 F   0  0  0  0  0  0  0  0  0  0  0  0
   -1.1375   11.3747   -0.0000 C   0  0  0  0  0  0  0  0  0  0  0  0
   -3.7716   11.3747   -0.0000 C   0  0  0  0  0  0  0  0  0  0  0  0
   -2.4665   12.1410   -0.0000 C   0  0  0  0  0  0  0  0  0  0  0  0
   -5.1007   12.1410   -0.0000 C   0  0  0  0  0  0  0  0  0  0  0  0
   -5.2563   13.6497   -0.0000 N   0  0  0  0  0  0  0  0  0  0  0  0
   -6.4776   11.5184   -0.0000 N   0  0  0  0  0  0  0  0  0  0  0  0
   -6.7530   13.9729   -0.0000 O   0  0  0  0  0  0  0  0  0  0  0  0
   -7.5073   12.6559   -0.0000 C   0  0  0  0  0  0  0  0  0  0  0  0
  1  2  1  0  0  0  0
  2  3  2  0  0  0  0
  2  4  1  0  0  0  0
  3  5  1  0  0  0  0
  3  6  1  0  0  0  0
  4  7  2  0  0  0  0
  5  8  1  0  0  0  0
  5  9  1  0  0  0  0
  6 10  1  0  0  0  0
  6 11  2  0  0  0  0
  8 12  2  0  0  0  0
  9 13  2  0  0  0  0
 10 14  2  0  0  0  0
 10 15  1  0  0  0  0
 15 16  1  0  0  0  0
 15 17  1  0  0  0  0
 16 18  1  0  0  0  0
 16 19  1  1  0  0  0
 17 20  1  0  0  0  0
 18 21  1  0  0  0  0
 19 22  1  0  0  0  0
 22 23  2  0  0  0  0
 22 24  1  0  0  0  0
 23 25  1  0  0  0  0
 23 26  1  0  0  0  0
 24 27  2  0  0  0  0
 26 28  2  0  0  0  0
 27 29  1  0  0  0  0
 29 30  2  0  0  0  0
 29 31  1  0  0  0  0
 30 32  1  0  0  0  0
 31 33  2  0  0  0  0
  7 11  1  0  0  0  0
 12 13  1  0  0  0  0
 20 21  1  0  0  0  0
 27 28  1  0  0  0  0
 32 33  1  0  0  0  0
M  END
>  <MolRegNo>
2164103

>  <m>
=

>  <Value>
36000

>  <Unit>
nM

>  <Type>
IC50

>  <pValue>
4.44

>  <Ligand Efficiency>
0.18

>  <Binding Efficiency>
9.48

>  <Surface Efficiency>
4.48

>  <Assay Index>
1058329

>  <Assay Category>


>  <Assay Organism>
Homo sapiens

>  <Target ID>
17045

>  <Target Name>
Cytochrome P450 3A4

>  <Target Organism>
Homo sapiens

>  <Target Description>
Target is a single protein chain

>  <Sequence Accession>
P08684

>  <Reference>


>  <Pubmed ID>


>  <DOI>


$$$$
2140001
Actelion Java MolfileCreator 1.0

 34 38  0  0  1  0  0  0  0  0999 V2000
    0.0000   -0.0000   -0.0000 F   0  0  0  0  0  0  0  0  0  0  0  0
    0.0000    1.2455   -0.0000 C   0  0  0  0  0  0  0  0  0  0  0  0
    1.3180    2.0194   -0.0000 C   0  0  0  0  0  0  0  0  0  0  0  0
   -1.3301    2.0315   -0.0000 C   0  0  0  0  0  0  0  0  0  0  0  0
    1.3180    3.5671   -0.0000 C   0  0  0  0  0  0  0  0  0  0  0  0
    2.6361    1.2576   -0.0000 C   0  0  0  0  0  0  0  0  0  0  0  0
   -1.3301    3.5792   -0.0000 C   0  0  0  0  0  0  0  0  0  0  0  0
   -0.0121    4.3531   -0.0000 C   0  0  0  0  0  0  0  0  0  0  0  0
    3.9541    2.0315   -0.0000 C   0  0  0  0  0  0  0  0  0  0  0  0
   -0.0121    5.9009   -0.0000 C   0  0  0  0  0  0  0  0  0  0  0  0
    5.2721    1.2697   -0.0000 N   0  0  0  0  0  0  0  0  0  0  0  0
    3.9420    3.5792   -0.0000 C   0  0  0  0  0  0  0  0  0  0  0  0
    1.2213    6.7836   -0.0000 N   0  0  0  0  0  0  0  0  0  0  0  0
   -1.2576    6.7957   -0.0000 N   0  0  0  0  0  0  0  0  0  0  0  0
    5.2600   -0.2539   -0.0000 C   0  0  0  0  0  0  0  0  0  0  0  0
    6.5901    2.0435   -0.0000 C   0  0  0  0  0  0  0  0  0  0  0  0
    5.2600    4.3531   -0.0000 O   0  0  0  0  0  0  0  0  0  0  0  0
    0.7376    8.2588   -0.0000 O   0  0  0  0  0  0  0  0  0  0  0  0
   -0.7860    8.2709   -0.0000 C   0  0  0  0  0  0  0  0  0  0  0  0
    4.1838   -0.8585   -0.0000 O   0  0  0  0  0  0  0  0  0  0  0  0
    6.5780   -1.0157   -0.0000 C   0  0  0  0  0  0  0  0  0  0  0  0
    6.5780    3.5913   -0.0000 C   0  0  0  0  0  0  0  0  0  0  0  0
    6.5659   -2.5393   -0.0000 C   0  0  0  0  0  0  0  0  0  0  0  0
    7.8961   -0.2418   -0.0000 C   0  0  0  0  0  0  0  0  0  0  0  0
    5.2237   -3.2890   -0.0000 N   0  0  0  0  0  0  0  0  0  0  0  0
    7.8840   -3.2890   -0.0000 C   0  0  0  0  0  0  0  0  0  0  0  0
    9.2141   -0.9915   -0.0000 C   0  0  0  0  0  0  0  0  0  0  0  0
    3.8332   -2.6481   -0.0000 N   0  0  0  0  0  0  0  0  0  0  0  0
    5.0786   -4.7884   -0.0000 N   0  0  0  0  0  0  0  0  0  0  0  0
    9.2020   -2.5151   -0.0000 C   0  0  0  0  0  0  0  0  0  0  0  0
    7.8719   -4.5103   -0.0000 C   0  0  0  0  0  0  0  0  0  0  0  0
    2.7932   -3.7727   -0.0000 C   0  0  0  0  0  0  0  0  0  0  0  0
    3.5671   -5.1028   -0.0000 C   0  0  0  0  0  0  0  0  0  0  0  0
   10.2540   -3.1197   -0.0000 C   0  0  0  0  0  0  0  0  0  0  0  0
  1  2  1  0  0  0  0
  2  3  2  0  0  0  0
  2  4  1  0  0  0  0
  3  5  1  0  0  0  0
  3  6  1  0  0  0  0
  4  7  2  0  0  0  0
  5  8  2  0  0  0  0
  9  6  1  6  0  0  0
  8 10  1  0  0  0  0
  9 11  1  0  0  0  0
  9 12  1  0  0  0  0
 10 13  2  0  0  0  0
 10 14  1  0  0  0  0
 11 15  1  0  0  0  0
 11 16  1  0  0  0  0
 12 17  1  0  0  0  0
 13 18  1  0  0  0  0
 14 19  2  0  0  0  0
 15 20  2  0  0  0  0
 15 21  1  0  0  0  0
 16 22  1  0  0  0  0
 21 23  2  0  0  0  0
 21 24  1  0  0  0  0
 23 25  1  0  0  0  0
 23 26  1  0  0  0  0
 24 27  2  0  0  0  0
 25 28  1  0  0  0  0
 25 29  1  0  0  0  0
 26 30  2  0  0  0  0
 26 31  1  0  0  0  0
 28 32  2  0  0  0  0
 29 33  2  0  0  0  0
 30 34  1  0  0  0  0
  7  8  1  0  0  0  0
 17 22  1  0  0  0  0
 18 19  1  0  0  0  0
 27 30  1  0  0  0  0
 32 33  1  0  0  0  0
M  END
>  <MolRegNo>
2140001

>  <m>
=

>  <Value>
36000

>  <Unit>
nM

>  <Type>
IC50

>  <pValue>
4.44

>  <Ligand Efficiency>
0.18

>  <Binding Efficiency>
9.61

>  <Surface Efficiency>
4.48

>  <Assay Index>
1058329

>  <Assay Category>


>  <Assay Organism>
Homo sapiens

>  <Target ID>
17045

>  <Target Name>
Cytochrome P450 3A4

>  <Target Organism>
Homo sapiens

>  <Target Description>
Target is a single protein chain

>  <Sequence Accession>
P08684

>  <Reference>


>  <Pubmed ID>


>  <DOI>


$$$$
2141064
Actelion Java MolfileCreator 1.0

 35 39  0  0  1  0  0  0  0  0999 V2000
    0.0000   -0.0000   -0.0000 F   0  0  0  0  0  0  0  0  0  0  0  0
   -1.0713   -0.6019   -0.0000 C   0  0  0  0  0  0  0  0  0  0  0  0
   -1.0834   -1.8177   -0.0000 F   0  0  0  0  0  0  0  0  0  0  0  0
   -0.0241   -1.2038   -0.0000 F   0  0  0  0  0  0  0  0  0  0  0  0
   -2.4075    0.1685   -0.0000 C   0  0  0  0  0  0  0  0  0  0  0  0
   -3.7437   -0.5778   -0.0000 C   0  0  0  0  0  0  0  0  0  0  0  0
   -2.4195    1.7093   -0.0000 C   0  0  0  0  0  0  0  0  0  0  0  0
   -3.7557   -2.0945   -0.0000 N   0  0  0  0  0  0  0  0  0  0  0  0
   -5.0798    0.1926   -0.0000 C   0  0  0  0  0  0  0  0  0  0  0  0
   -3.7557    2.4797   -0.0000 C   0  0  0  0  0  0  0  0  0  0  0  0
   -5.0076   -2.9612   -0.0000 N   0  0  0  0  0  0  0  0  0  0  0  0
   -2.5279   -2.9612   -0.0000 N   0  0  0  0  0  0  0  0  0  0  0  0
   -6.4160   -0.5537   -0.0000 C   0  0  0  0  0  0  0  0  0  0  0  0
   -5.0919    1.7334   -0.0000 C   0  0  0  0  0  0  0  0  0  0  0  0
   -4.5502   -4.4057   -0.0000 C   0  0  0  0  0  0  0  0  0  0  0  0
   -3.0094   -4.4057   -0.0000 C   0  0  0  0  0  0  0  0  0  0  0  0
   -6.4280   -1.7695   -0.0000 O   0  0  0  0  0  0  0  0  0  0  0  0
   -7.7522    0.2287   -0.0000 N   0  0  0  0  0  0  0  0  0  0  0  0
   -9.0883   -0.5176   -0.0000 C   0  0  0  0  0  0  0  0  0  0  0  0
   -7.7642    1.7695   -0.0000 C   0  0  0  0  0  0  0  0  0  0  0  0
  -10.4245    0.2648   -0.0000 C   0  0  0  0  0  0  0  0  0  0  0  0
   -9.1124   -2.0343   -0.0000 C   0  0  0  0  0  0  0  0  0  0  0  0
   -9.1004    2.5520   -0.0000 C   0  0  0  0  0  0  0  0  0  0  0  0
  -10.4365    1.8056   -0.0000 O   0  0  0  0  0  0  0  0  0  0  0  0
  -10.4486   -2.7807   -0.0000 C   0  0  0  0  0  0  0  0  0  0  0  0
  -11.7727   -1.9982   -0.0000 C   0  0  0  0  0  0  0  0  0  0  0  0
  -10.4726   -4.2974   -0.0000 C   0  0  0  0  0  0  0  0  0  0  0  0
  -13.1089   -2.7446   -0.0000 C   0  0  0  0  0  0  0  0  0  0  0  0
  -11.8088   -5.0437   -0.0000 C   0  0  0  0  0  0  0  0  0  0  0  0
  -14.4450   -1.9621   -0.0000 N   0  0  0  0  0  0  0  0  0  0  0  0
  -13.1329   -4.2613   -0.0000 C   0  0  0  0  0  0  0  0  0  0  0  0
  -15.8414   -2.5760   -0.0000 N   0  0  0  0  0  0  0  0  0  0  0  0
  -14.5895   -0.4454   -0.0000 N   0  0  0  0  0  0  0  0  0  0  0  0
  -16.8646   -1.4204   -0.0000 C   0  0  0  0  0  0  0  0  0  0  0  0
  -16.0942   -0.1083   -0.0000 C   0  0  0  0  0  0  0  0  0  0  0  0
  1  2  1  0  0  0  0
  2  3  1  0  0  0  0
  2  4  1  0  0  0  0
  2  5  1  0  0  0  0
  5  6  2  0  0  0  0
  5  7  1  0  0  0  0
  6  8  1  0  0  0  0
  6  9  1  0  0  0  0
  7 10  2  0  0  0  0
  8 11  1  0  0  0  0
  8 12  1  0  0  0  0
  9 13  1  0  0  0  0
  9 14  2  0  0  0  0
 11 15  2  0  0  0  0
 12 16  2  0  0  0  0
 13 17  2  0  0  0  0
 13 18  1  0  0  0  0
 18 19  1  0  0  0  0
 18 20  1  0  0  0  0
 19 21  1  0  0  0  0
 19 22  1  6  0  0  0
 20 23  1  0  0  0  0
 21 24  1  0  0  0  0
 22 25  1  0  0  0  0
 25 26  2  0  0  0  0
 25 27  1  0  0  0  0
 26 28  1  0  0  0  0
 27 29  2  0  0  0  0
 28 30  1  0  0  0  0
 28 31  2  0  0  0  0
 30 32  1  0  0  0  0
 30 33  1  0  0  0  0
 32 34  2  0  0  0  0
 33 35  2  0  0  0  0
 10 14  1  0  0  0  0
 15 16  1  0  0  0  0
 23 24  1  0  0  0  0
 29 31  1  0  0  0  0
 34 35  1  0  0  0  0
M  END
>  <MolRegNo>
2141064

>  <m>
=

>  <Value>
14000

>  <Unit>
nM

>  <Type>
IC50

>  <pValue>
4.85

>  <Ligand Efficiency>
0.19

>  <Binding Efficiency>
10.04

>  <Surface Efficiency>
5.34

>  <Assay Index>
1058329

>  <Assay Category>


>  <Assay Organism>
Homo sapiens

>  <Target ID>
17045

>  <Target Name>
Cytochrome P450 3A4

>  <Target Organism>
Homo sapiens

>  <Target Description>
Target is a single protein chain

>  <Sequence Accession>
P08684

>  <Reference>


>  <Pubmed ID>


>  <DOI>


$$$$
2150071
Actelion Java MolfileCreator 1.0

 33 37  0  0  1  0  0  0  0  0999 V2000
    0.0000   -0.0000   -0.0000 Cl  0  0  0  0  0  0  0  0  0  0  0  0
   -1.0672    0.6235   -0.0000 C   0  0  0  0  0  0  0  0  0  0  0  0
   -2.3982   -0.1199   -0.0000 C   0  0  0  0  0  0  0  0  0  0  0  0
   -1.0792    2.1584   -0.0000 C   0  0  0  0  0  0  0  0  0  0  0  0
   -3.7293    0.6595   -0.0000 C   0  0  0  0  0  0  0  0  0  0  0  0
   -2.4102    2.9378   -0.0000 C   0  0  0  0  0  0  0  0  0  0  0  0
   -3.7412    2.1944   -0.0000 C   0  0  0  0  0  0  0  0  0  0  0  0
   -5.0603   -0.0839   -0.0000 C   0  0  0  0  0  0  0  0  0  0  0  0
   -5.0723    2.9738   -0.0000 N   0  0  0  0  0  0  0  0  0  0  0  0
   -6.1275    0.5396   -0.0000 O   0  0  0  0  0  0  0  0  0  0  0  0
   -5.0723   -1.5948   -0.0000 N   0  0  0  0  0  0  0  0  0  0  0  0
   -6.4632    2.3623   -0.0000 N   0  0  0  0  0  0  0  0  0  0  0  0
   -5.2162    4.4847   -0.0000 N   0  0  0  0  0  0  0  0  0  0  0  0
   -6.4033   -2.3383   -0.0000 C   0  0  0  0  0  0  0  0  0  0  0  0
   -3.7652   -2.3383   -0.0000 C   0  0  0  0  0  0  0  0  0  0  0  0
   -7.4825    3.5134   -0.0000 C   0  0  0  0  0  0  0  0  0  0  0  0
   -6.7151    4.8205   -0.0000 C   0  0  0  0  0  0  0  0  0  0  0  0
   -6.4153   -3.8492   -0.0000 C   0  0  0  0  0  0  0  0  0  0  0  0
   -7.7343   -1.5589   -0.0000 C   0  0  0  0  0  0  0  0  0  0  0  0
   -3.7772   -3.8492   -0.0000 C   0  0  0  0  0  0  0  0  0  0  0  0
   -5.1082   -4.5926   -0.0000 O   0  0  0  0  0  0  0  0  0  0  0  0
   -7.7463   -0.0240   -0.0000 C   0  0  0  0  0  0  0  0  0  0  0  0
   -2.7340   -4.4487   -0.0000 C   0  0  0  0  0  0  0  0  0  0  0  0
   -6.4393    0.7435   -0.0000 C   0  0  0  0  0  0  0  0  0  0  0  0
   -9.0773    0.7554   -0.0000 C   0  0  0  0  0  0  0  0  0  0  0  0
   -6.4512    2.2783   -0.0000 C   0  0  0  0  0  0  0  0  0  0  0  0
   -9.0893    2.2903   -0.0000 C   0  0  0  0  0  0  0  0  0  0  0  0
   -5.1442    3.0458   -0.0000 N   0  0  0  0  0  0  0  0  0  0  0  0
   -7.7823    3.0577   -0.0000 C   0  0  0  0  0  0  0  0  0  0  0  0
   -5.0123    4.5566   -0.0000 N   0  0  0  0  0  0  0  0  0  0  0  0
   -3.7892    2.4222   -0.0000 N   0  0  0  0  0  0  0  0  0  0  0  0
   -3.5374    4.8804   -0.0000 C   0  0  0  0  0  0  0  0  0  0  0  0
   -2.7820    3.5614   -0.0000 C   0  0  0  0  0  0  0  0  0  0  0  0
  1  2  1  0  0  0  0
  2  3  2  0  0  0  0
  2  4  1  0  0  0  0
  3  5  1  0  0  0  0
  4  6  2  0  0  0  0
  5  7  2  0  0  0  0
  5  8  1  0  0  0  0
  7  9  1  0  0  0  0
  8 10  2  0  0  0  0
  8 11  1  0  0  0  0
  9 12  1  0  0  0  0
  9 13  1  0  0  0  0
 11 14  1  0  0  0  0
 11 15  1  0  0  0  0
 12 16  2  0  0  0  0
 13 17  2  0  0  0  0
 14 18  1  0  0  0  0
 14 19  1  1  0  0  0
 15 20  1  0  0  0  0
 18 21  1  0  0  0  0
 19 22  1  0  0  0  0
 20 23  1  1  0  0  0
 22 24  2  0  0  0  0
 22 25  1  0  0  0  0
 24 26  1  0  0  0  0
 25 27  2  0  0  0  0
 26 28  1  0  0  0  0
 26 29  2  0  0  0  0
 28 30  1  0  0  0  0
 28 31  1  0  0  0  0
 30 32  2  0  0  0  0
 31 33  2  0  0  0  0
  6  7  1  0  0  0  0
 16 17  1  0  0  0  0
 20 21  1  0  0  0  0
 27 29  1  0  0  0  0
 32 33  1  0  0  0  0
M  END
>  <MolRegNo>
2150071

>  <m>
=

>  <Value>
19000

>  <Unit>
nM

>  <Type>
IC50

>  <pValue>
4.72

>  <Ligand Efficiency>
0.2

>  <Binding Efficiency>
10.18

>  <Surface Efficiency>
5.19

>  <Assay Index>
1058329

>  <Assay Category>


>  <Assay Organism>
Homo sapiens

>  <Target ID>
17045

>  <Target Name>
Cytochrome P450 3A4

>  <Target Organism>
Homo sapiens

>  <Target Description>
Target is a single protein chain

>  <Sequence Accession>
P08684

>  <Reference>


>  <Pubmed ID>


>  <DOI>


$$$$
2118595
Actelion Java MolfileCreator 1.0

 33 37  0  0  1  0  0  0  0  0999 V2000
    0.0000   -0.0000   -0.0000 Cl  0  0  0  0  0  0  0  0  0  0  0  0
   -1.0685   -0.5883   -0.0000 C   0  0  0  0  0  0  0  0  0  0  0  0
   -2.4011    0.1921   -0.0000 C   0  0  0  0  0  0  0  0  0  0  0  0
   -1.0805   -2.1009   -0.0000 C   0  0  0  0  0  0  0  0  0  0  0  0
   -3.7337   -0.5522   -0.0000 C   0  0  0  0  0  0  0  0  0  0  0  0
   -2.4131   -2.8453   -0.0000 C   0  0  0  0  0  0  0  0  0  0  0  0
   -5.0663    0.2281   -0.0000 N   0  0  0  0  0  0  0  0  0  0  0  0
   -3.7457   -2.0649   -0.0000 C   0  0  0  0  0  0  0  0  0  0  0  0
   -6.4589   -0.3842   -0.0000 N   0  0  0  0  0  0  0  0  0  0  0  0
   -5.2103    1.7408   -0.0000 N   0  0  0  0  0  0  0  0  0  0  0  0
   -5.0783   -2.8093   -0.0000 C   0  0  0  0  0  0  0  0  0  0  0  0
   -7.4794    0.7683   -0.0000 C   0  0  0  0  0  0  0  0  0  0  0  0
   -6.7110    2.0769   -0.0000 C   0  0  0  0  0  0  0  0  0  0  0  0
   -6.1468   -2.1850   -0.0000 O   0  0  0  0  0  0  0  0  0  0  0  0
   -5.0903   -4.3219   -0.0000 N   0  0  0  0  0  0  0  0  0  0  0  0
   -6.4229   -5.0663   -0.0000 C   0  0  0  0  0  0  0  0  0  0  0  0
   -3.7817   -5.0663   -0.0000 C   0  0  0  0  0  0  0  0  0  0  0  0
   -6.4349   -6.5790   -0.0000 C   0  0  0  0  0  0  0  0  0  0  0  0
   -7.7555   -4.2859   -0.0000 C   0  0  0  0  0  0  0  0  0  0  0  0
   -3.7937   -6.5790   -0.0000 C   0  0  0  0  0  0  0  0  0  0  0  0
   -5.1263   -7.3233   -0.0000 O   0  0  0  0  0  0  0  0  0  0  0  0
   -7.7675   -2.7492   -0.0000 C   0  0  0  0  0  0  0  0  0  0  0  0
   -2.7492   -7.1792   -0.0000 C   0  0  0  0  0  0  0  0  0  0  0  0
   -6.4589   -1.9809   -0.0000 C   0  0  0  0  0  0  0  0  0  0  0  0
   -9.1001   -1.9689   -0.0000 C   0  0  0  0  0  0  0  0  0  0  0  0
   -6.4709   -0.4442   -0.0000 C   0  0  0  0  0  0  0  0  0  0  0  0
   -9.1121   -0.4322   -0.0000 C   0  0  0  0  0  0  0  0  0  0  0  0
   -5.1623    0.3241   -0.0000 N   0  0  0  0  0  0  0  0  0  0  0  0
   -7.8035    0.3362   -0.0000 C   0  0  0  0  0  0  0  0  0  0  0  0
   -5.0303    1.8368   -0.0000 N   0  0  0  0  0  0  0  0  0  0  0  0
   -3.8057   -0.3001   -0.0000 N   0  0  0  0  0  0  0  0  0  0  0  0
   -3.5536    2.1610   -0.0000 C   0  0  0  0  0  0  0  0  0  0  0  0
   -2.7973    0.8404   -0.0000 C   0  0  0  0  0  0  0  0  0  0  0  0
  1  2  1  0  0  0  0
  2  3  2  0  0  0  0
  2  4  1  0  0  0  0
  3  5  1  0  0  0  0
  4  6  2  0  0  0  0
  5  7  1  0  0  0  0
  5  8  2  0  0  0  0
  7  9  1  0  0  0  0
  7 10  1  0  0  0  0
  8 11  1  0  0  0  0
  9 12  2  0  0  0  0
 10 13  2  0  0  0  0
 11 14  2  0  0  0  0
 11 15  1  0  0  0  0
 15 16  1  0  0  0  0
 15 17  1  0  0  0  0
 16 18  1  0  0  0  0
 16 19  1  1  0  0  0
 17 20  1  0  0  0  0
 18 21  1  0  0  0  0
 19 22  1  0  0  0  0
 20 23  1  1  0  0  0
 22 24  2  0  0  0  0
 22 25  1  0  0  0  0
 24 26  1  0  0  0  0
 25 27  2  0  0  0  0
 26 28  1  0  0  0  0
 26 29  2  0  0  0  0
 28 30  1  0  0  0  0
 28 31  1  0  0  0  0
 30 32  2  0  0  0  0
 31 33  2  0  0  0  0
  6  8  1  0  0  0  0
 12 13  1  0  0  0  0
 20 21  1  0  0  0  0
 27 29  1  0  0  0  0
 32 33  1  0  0  0  0
M  END
>  <MolRegNo>
2118595

>  <m>
=

>  <Value>
20000

>  <Unit>
nM

>  <Type>
IC50

>  <pValue>
4.7

>  <Ligand Efficiency>
0.19

>  <Binding Efficiency>
10.13

>  <Surface Efficiency>
5.17

>  <Assay Index>
1058329

>  <Assay Category>


>  <Assay Organism>
Homo sapiens

>  <Target ID>
17045

>  <Target Name>
Cytochrome P450 3A4

>  <Target Organism>
Homo sapiens

>  <Target Description>
Target is a single protein chain

>  <Sequence Accession>
P08684

>  <Reference>


>  <Pubmed ID>


>  <DOI>


$$$$
2147757
Actelion Java MolfileCreator 1.0

 34 38  0  0  1  0  0  0  0  0999 V2000
    0.0000   -0.0000   -0.0000 Cl  0  0  0  0  0  0  0  0  0  0  0  0
   -1.0725    0.6266   -0.0000 C   0  0  0  0  0  0  0  0  0  0  0  0
   -2.4101   -0.1205   -0.0000 C   0  0  0  0  0  0  0  0  0  0  0  0
   -1.0846    2.1691   -0.0000 C   0  0  0  0  0  0  0  0  0  0  0  0
   -3.7478    0.6628   -0.0000 C   0  0  0  0  0  0  0  0  0  0  0  0
   -2.4222    2.9524   -0.0000 C   0  0  0  0  0  0  0  0  0  0  0  0
   -3.7598    2.2053   -0.0000 C   0  0  0  0  0  0  0  0  0  0  0  0
   -5.0854   -0.0844   -0.0000 C   0  0  0  0  0  0  0  0  0  0  0  0
   -5.0975    2.9886   -0.0000 N   0  0  0  0  0  0  0  0  0  0  0  0
   -6.1579    0.5423   -0.0000 O   0  0  0  0  0  0  0  0  0  0  0  0
   -5.0975   -1.6027   -0.0000 N   0  0  0  0  0  0  0  0  0  0  0  0
   -6.4953    2.3740   -0.0000 N   0  0  0  0  0  0  0  0  0  0  0  0
   -5.2421    4.5070   -0.0000 N   0  0  0  0  0  0  0  0  0  0  0  0
   -6.4351   -2.3499   -0.0000 C   0  0  0  0  0  0  0  0  0  0  0  0
   -3.7839   -2.3499   -0.0000 C   0  0  0  0  0  0  0  0  0  0  0  0
   -7.5197    3.5309   -0.0000 C   0  0  0  0  0  0  0  0  0  0  0  0
   -6.7484    4.8444   -0.0000 C   0  0  0  0  0  0  0  0  0  0  0  0
   -6.4471   -3.8683   -0.0000 C   0  0  0  0  0  0  0  0  0  0  0  0
   -7.7727   -1.5666   -0.0000 C   0  0  0  0  0  0  0  0  0  0  0  0
   -3.7960   -3.8683   -0.0000 C   0  0  0  0  0  0  0  0  0  0  0  0
   -5.1336   -4.6154   -0.0000 O   0  0  0  0  0  0  0  0  0  0  0  0
   -7.7848   -0.0241   -0.0000 C   0  0  0  0  0  0  0  0  0  0  0  0
   -2.7476   -4.4708   -0.0000 C   0  0  0  0  0  0  0  0  0  0  0  0
   -9.1224    0.7592   -0.0000 C   0  0  0  0  0  0  0  0  0  0  0  0
   -6.4712    0.7471   -0.0000 C   0  0  0  0  0  0  0  0  0  0  0  0
  -10.1949    0.1687   -0.0000 F   0  0  0  0  0  0  0  0  0  0  0  0
   -9.1345    2.3017   -0.0000 C   0  0  0  0  0  0  0  0  0  0  0  0
   -6.4833    2.2896   -0.0000 C   0  0  0  0  0  0  0  0  0  0  0  0
   -7.8209    3.0729   -0.0000 C   0  0  0  0  0  0  0  0  0  0  0  0
   -5.1698    3.0609   -0.0000 N   0  0  0  0  0  0  0  0  0  0  0  0
   -3.8080    2.4342   -0.0000 N   0  0  0  0  0  0  0  0  0  0  0  0
   -5.0372    4.5793   -0.0000 N   0  0  0  0  0  0  0  0  0  0  0  0
   -2.7958    3.5791   -0.0000 C   0  0  0  0  0  0  0  0  0  0  0  0
   -3.5550    4.9046   -0.0000 C   0  0  0  0  0  0  0  0  0  0  0  0
  1  2  1  0  0  0  0
  2  3  2  0  0  0  0
  2  4  1  0  0  0  0
  3  5  1  0  0  0  0
  4  6  2  0  0  0  0
  5  7  2  0  0  0  0
  5  8  1  0  0  0  0
  7  9  1  0  0  0  0
  8 10  2  0  0  0  0
  8 11  1  0  0  0  0
  9 12  1  0  0  0  0
  9 13  1  0  0  0  0
 11 14  1  0  0  0  0
 11 15  1  0  0  0  0
 12 16  2  0  0  0  0
 13 17  2  0  0  0  0
 14 18  1  0  0  0  0
 14 19  1  1  0  0  0
 15 20  1  0  0  0  0
 18 21  1  0  0  0  0
 19 22  1  0  0  0  0
 20 23  1  1  0  0  0
 22 24  2  0  0  0  0
 22 25  1  0  0  0  0
 24 26  1  0  0  0  0
 24 27  1  0  0  0  0
 25 28  2  0  0  0  0
 27 29  2  0  0  0  0
 28 30  1  0  0  0  0
 30 31  1  0  0  0  0
 30 32  1  0  0  0  0
 31 33  2  0  0  0  0
 32 34  2  0  0  0  0
  6  7  1  0  0  0  0
 16 17  1  0  0  0  0
 20 21  1  0  0  0  0
 28 29  1  0  0  0  0
 33 34  1  0  0  0  0
M  END
>  <MolRegNo>
2147757

>  <m>
=

>  <Value>
19000

>  <Unit>
nM

>  <Type>
IC50

>  <pValue>
4.72

>  <Ligand Efficiency>
0.19

>  <Binding Efficiency>
9.8

>  <Surface Efficiency>
5.19

>  <Assay Index>
1058329

>  <Assay Category>


>  <Assay Organism>
Homo sapiens

>  <Target ID>
17045

>  <Target Name>
Cytochrome P450 3A4

>  <Target Organism>
Homo sapiens

>  <Target Description>
Target is a single protein chain

>  <Sequence Accession>
P08684

>  <Reference>


>  <Pubmed ID>


>  <DOI>


$$$$
2119818
Actelion Java MolfileCreator 1.0

 34 38  0  0  1  0  0  0  0  0999 V2000
    0.0000   -0.0000   -0.0000 Cl  0  0  0  0  0  0  0  0  0  0  0  0
   -1.0738   -0.5912   -0.0000 C   0  0  0  0  0  0  0  0  0  0  0  0
   -2.4129    0.1930   -0.0000 C   0  0  0  0  0  0  0  0  0  0  0  0
   -1.0858   -2.1113   -0.0000 C   0  0  0  0  0  0  0  0  0  0  0  0
   -3.7521   -0.5550   -0.0000 C   0  0  0  0  0  0  0  0  0  0  0  0
   -2.4250   -2.8593   -0.0000 C   0  0  0  0  0  0  0  0  0  0  0  0
   -5.0913    0.2292   -0.0000 N   0  0  0  0  0  0  0  0  0  0  0  0
   -3.7642   -2.0751   -0.0000 C   0  0  0  0  0  0  0  0  0  0  0  0
   -6.4908   -0.3861   -0.0000 N   0  0  0  0  0  0  0  0  0  0  0  0
   -5.2361    1.7494   -0.0000 N   0  0  0  0  0  0  0  0  0  0  0  0
   -5.1034   -2.8231   -0.0000 C   0  0  0  0  0  0  0  0  0  0  0  0
   -7.5163    0.7721   -0.0000 C   0  0  0  0  0  0  0  0  0  0  0  0
   -6.7442    2.0872   -0.0000 C   0  0  0  0  0  0  0  0  0  0  0  0
   -6.1771   -2.1958   -0.0000 O   0  0  0  0  0  0  0  0  0  0  0  0
   -5.1154   -4.3433   -0.0000 N   0  0  0  0  0  0  0  0  0  0  0  0
   -6.4546   -5.0913   -0.0000 C   0  0  0  0  0  0  0  0  0  0  0  0
   -3.8004   -5.0913   -0.0000 C   0  0  0  0  0  0  0  0  0  0  0  0
   -6.4667   -6.6115   -0.0000 C   0  0  0  0  0  0  0  0  0  0  0  0
   -7.7938   -4.3071   -0.0000 C   0  0  0  0  0  0  0  0  0  0  0  0
   -3.8124   -6.6115   -0.0000 C   0  0  0  0  0  0  0  0  0  0  0  0
   -5.1516   -7.3595   -0.0000 O   0  0  0  0  0  0  0  0  0  0  0  0
   -7.8059   -2.7628   -0.0000 C   0  0  0  0  0  0  0  0  0  0  0  0
   -2.7628   -7.2147   -0.0000 C   0  0  0  0  0  0  0  0  0  0  0  0
   -9.1451   -1.9786   -0.0000 C   0  0  0  0  0  0  0  0  0  0  0  0
   -6.4908   -1.9907   -0.0000 C   0  0  0  0  0  0  0  0  0  0  0  0
  -10.2188   -2.5698   -0.0000 F   0  0  0  0  0  0  0  0  0  0  0  0
   -9.1571   -0.4343   -0.0000 C   0  0  0  0  0  0  0  0  0  0  0  0
   -6.5029   -0.4464   -0.0000 C   0  0  0  0  0  0  0  0  0  0  0  0
   -7.8421    0.3378   -0.0000 C   0  0  0  0  0  0  0  0  0  0  0  0
   -5.1878    0.3257   -0.0000 N   0  0  0  0  0  0  0  0  0  0  0  0
   -3.8245   -0.3016   -0.0000 N   0  0  0  0  0  0  0  0  0  0  0  0
   -5.0551    1.8459   -0.0000 N   0  0  0  0  0  0  0  0  0  0  0  0
   -2.8111    0.8445   -0.0000 C   0  0  0  0  0  0  0  0  0  0  0  0
   -3.5712    2.1716   -0.0000 C   0  0  0  0  0  0  0  0  0  0  0  0
  1  2  1  0  0  0  0
  2  3  2  0  0  0  0
  2  4  1  0  0  0  0
  3  5  1  0  0  0  0
  4  6  2  0  0  0  0
  5  7  1  0  0  0  0
  5  8  2  0  0  0  0
  7  9  1  0  0  0  0
  7 10  1  0  0  0  0
  8 11  1  0  0  0  0
  9 12  2  0  0  0  0
 10 13  2  0  0  0  0
 11 14  2  0  0  0  0
 11 15  1  0  0  0  0
 15 16  1  0  0  0  0
 15 17  1  0  0  0  0
 16 18  1  0  0  0  0
 16 19  1  1  0  0  0
 17 20  1  0  0  0  0
 18 21  1  0  0  0  0
 19 22  1  0  0  0  0
 20 23  1  1  0  0  0
 22 24  2  0  0  0  0
 22 25  1  0  0  0  0
 24 26  1  0  0  0  0
 24 27  1  0  0  0  0
 25 28  2  0  0  0  0
 27 29  2  0  0  0  0
 28 30  1  0  0  0  0
 30 31  1  0  0  0  0
 30 32  1  0  0  0  0
 31 33  2  0  0  0  0
 32 34  2  0  0  0  0
  6  8  1  0  0  0  0
 12 13  1  0  0  0  0
 20 21  1  0  0  0  0
 28 29  1  0  0  0  0
 33 34  1  0  0  0  0
M  END
>  <MolRegNo>
2119818

>  <m>
=

>  <Value>
14000

>  <Unit>
nM

>  <Type>
IC50

>  <pValue>
4.85

>  <Ligand Efficiency>
0.19

>  <Binding Efficiency>
10.07

>  <Surface Efficiency>
5.34

>  <Assay Index>
1058329

>  <Assay Category>


>  <Assay Organism>
Homo sapiens

>  <Target ID>
17045

>  <Target Name>
Cytochrome P450 3A4

>  <Target Organism>
Homo sapiens

>  <Target Description>
Target is a single protein chain

>  <Sequence Accession>
P08684

>  <Reference>


>  <Pubmed ID>


>  <DOI>


$$$$
2132727
Actelion Java MolfileCreator 1.0

 33 37  0  0  1  0  0  0  0  0999 V2000
    0.0000   -0.0000   -0.0000 O   0  0  0  0  0  0  0  0  0  0  0  0
    1.0473   -0.6019   -0.0000 C   0  0  0  0  0  0  0  0  0  0  0  0
    1.0353   -2.1187   -0.0000 N   0  0  0  0  0  0  0  0  0  0  0  0
    2.3595    0.1806   -0.0000 C   0  0  0  0  0  0  0  0  0  0  0  0
   -0.3010   -2.8772   -0.0000 C   0  0  0  0  0  0  0  0  0  0  0  0
    2.3475   -2.8651   -0.0000 C   0  0  0  0  0  0  0  0  0  0  0  0
    2.3475    1.7215   -0.0000 C   0  0  0  0  0  0  0  0  0  0  0  0
    3.6717   -0.5658   -0.0000 C   0  0  0  0  0  0  0  0  0  0  0  0
   -0.3130   -4.3940   -0.0000 C   0  0  0  0  0  0  0  0  0  0  0  0
   -1.6372   -2.1067   -0.0000 C   0  0  0  0  0  0  0  0  0  0  0  0
    2.3354   -4.3820   -0.0000 C   0  0  0  0  0  0  0  0  0  0  0  0
    1.0112    2.4919   -0.0000 N   0  0  0  0  0  0  0  0  0  0  0  0
    3.6597    2.4919   -0.0000 C   0  0  0  0  0  0  0  0  0  0  0  0
    4.9839    0.2047   -0.0000 C   0  0  0  0  0  0  0  0  0  0  0  0
    0.9992   -5.1404   -0.0000 O   0  0  0  0  0  0  0  0  0  0  0  0
   -2.9735   -2.8651   -0.0000 C   0  0  0  0  0  0  0  0  0  0  0  0
    0.8547    4.0088   -0.0000 N   0  0  0  0  0  0  0  0  0  0  0  0
   -0.3732    1.8659   -0.0000 N   0  0  0  0  0  0  0  0  0  0  0  0
    4.9718    1.7456   -0.0000 C   0  0  0  0  0  0  0  0  0  0  0  0
    6.0312   -0.3973   -0.0000 C   0  0  0  0  0  0  0  0  0  0  0  0
   -4.3097   -2.0947   -0.0000 C   0  0  0  0  0  0  0  0  0  0  0  0
   -2.9735   -4.3820   -0.0000 C   0  0  0  0  0  0  0  0  0  0  0  0
   -0.6501    4.3338   -0.0000 C   0  0  0  0  0  0  0  0  0  0  0  0
   -1.4085    3.0096   -0.0000 C   0  0  0  0  0  0  0  0  0  0  0  0
   -5.6339   -2.8531   -0.0000 C   0  0  0  0  0  0  0  0  0  0  0  0
   -4.3338   -0.8547   -0.0000 C   0  0  0  0  0  0  0  0  0  0  0  0
   -4.2977   -5.1404   -0.0000 C   0  0  0  0  0  0  0  0  0  0  0  0
   -5.6339   -4.3699   -0.0000 C   0  0  0  0  0  0  0  0  0  0  0  0
   -4.2977   -6.6572   -0.0000 N   0  0  0  0  0  0  0  0  0  0  0  0
   -5.5376   -7.5240   -0.0000 N   0  0  0  0  0  0  0  0  0  0  0  0
   -3.0698   -7.5119   -0.0000 C   0  0  0  0  0  0  0  0  0  0  0  0
   -5.0681   -8.9686   -0.0000 C   0  0  0  0  0  0  0  0  0  0  0  0
   -3.5513   -8.9565   -0.0000 C   0  0  0  0  0  0  0  0  0  0  0  0
  1  2  2  0  0  0  0
  2  3  1  0  0  0  0
  2  4  1  0  0  0  0
  3  5  1  0  0  0  0
  3  6  1  0  0  0  0
  4  7  2  0  0  0  0
  4  8  1  0  0  0  0
  5  9  1  0  0  0  0
  5 10  1  1  0  0  0
  6 11  1  0  0  0  0
  7 12  1  0  0  0  0
  7 13  1  0  0  0  0
  8 14  2  0  0  0  0
  9 15  1  0  0  0  0
 10 16  1  0  0  0  0
 12 17  1  0  0  0  0
 12 18  1  0  0  0  0
 13 19  2  0  0  0  0
 14 20  1  0  0  0  0
 16 21  2  0  0  0  0
 16 22  1  0  0  0  0
 17 23  2  0  0  0  0
 18 24  2  0  0  0  0
 21 25  1  0  0  0  0
 21 26  1  0  0  0  0
 22 27  2  0  0  0  0
 25 28  2  0  0  0  0
 27 29  1  0  0  0  0
 29 30  1  0  0  0  0
 29 31  1  0  0  0  0
 30 32  2  0  0  0  0
 31 33  2  0  0  0  0
 11 15  1  0  0  0  0
 14 19  1  0  0  0  0
 23 24  1  0  0  0  0
 27 28  1  0  0  0  0
 32 33  1  0  0  0  0
M  END
>  <MolRegNo>
2132727

>  <m>
=

>  <Value>
14000

>  <Unit>
nM

>  <Type>
IC50

>  <pValue>
4.85

>  <Ligand Efficiency>
0.2

>  <Binding Efficiency>
10.97

>  <Surface Efficiency>
6.22

>  <Assay Index>
1058329

>  <Assay Category>


>  <Assay Organism>
Homo sapiens

>  <Target ID>
17045

>  <Target Name>
Cytochrome P450 3A4

>  <Target Organism>
Homo sapiens

>  <Target Description>
Target is a single protein chain

>  <Sequence Accession>
P08684

>  <Reference>


>  <Pubmed ID>


>  <DOI>


$$$$
2157038
Actelion Java MolfileCreator 1.0

 33 37  0  0  1  0  0  0  0  0999 V2000
    0.0000   -0.0000   -0.0000 O   0  0  0  0  0  0  0  0  0  0  0  0
    1.0445    0.6243   -0.0000 C   0  0  0  0  0  0  0  0  0  0  0  0
    1.0325    2.1611   -0.0000 N   0  0  0  0  0  0  0  0  0  0  0  0
    2.3532   -0.1321   -0.0000 C   0  0  0  0  0  0  0  0  0  0  0  0
   -0.3002    2.9415   -0.0000 C   0  0  0  0  0  0  0  0  0  0  0  0
    2.3412    2.9295   -0.0000 C   0  0  0  0  0  0  0  0  0  0  0  0
    2.3412   -1.6449   -0.0000 C   0  0  0  0  0  0  0  0  0  0  0  0
    3.6619    0.6363   -0.0000 C   0  0  0  0  0  0  0  0  0  0  0  0
   -0.3122    4.4783   -0.0000 C   0  0  0  0  0  0  0  0  0  0  0  0
   -1.6329    2.1971   -0.0000 C   0  0  0  0  0  0  0  0  0  0  0  0
    2.3292    4.4663   -0.0000 C   0  0  0  0  0  0  0  0  0  0  0  0
    1.0085   -2.3892   -0.0000 N   0  0  0  0  0  0  0  0  0  0  0  0
    3.6499   -2.3892   -0.0000 C   0  0  0  0  0  0  0  0  0  0  0  0
    4.9706   -0.1081   -0.0000 C   0  0  0  0  0  0  0  0  0  0  0  0
    0.9965    5.2467   -0.0000 O   0  0  0  0  0  0  0  0  0  0  0  0
   -2.9656    2.9776   -0.0000 C   0  0  0  0  0  0  0  0  0  0  0  0
   -0.3722   -1.7529   -0.0000 N   0  0  0  0  0  0  0  0  0  0  0  0
    0.8645   -3.8780   -0.0000 N   0  0  0  0  0  0  0  0  0  0  0  0
    4.9586   -1.6208   -0.0000 C   0  0  0  0  0  0  0  0  0  0  0  0
   -4.2982    2.2332   -0.0000 C   0  0  0  0  0  0  0  0  0  0  0  0
   -2.9656    4.5144   -0.0000 C   0  0  0  0  0  0  0  0  0  0  0  0
   -1.4047   -2.8695   -0.0000 C   0  0  0  0  0  0  0  0  0  0  0  0
   -0.6363   -4.1902   -0.0000 C   0  0  0  0  0  0  0  0  0  0  0  0
    6.0031   -2.2212   -0.0000 C   0  0  0  0  0  0  0  0  0  0  0  0
   -5.6189    3.0136   -0.0000 C   0  0  0  0  0  0  0  0  0  0  0  0
   -4.3223    1.0205   -0.0000 C   0  0  0  0  0  0  0  0  0  0  0  0
   -4.2862    5.2948   -0.0000 C   0  0  0  0  0  0  0  0  0  0  0  0
   -5.6189    4.5504   -0.0000 C   0  0  0  0  0  0  0  0  0  0  0  0
   -4.2862    6.8316   -0.0000 N   0  0  0  0  0  0  0  0  0  0  0  0
   -5.5229    7.7200   -0.0000 N   0  0  0  0  0  0  0  0  0  0  0  0
   -3.0616    7.7080   -0.0000 C   0  0  0  0  0  0  0  0  0  0  0  0
   -5.0546    9.1848   -0.0000 C   0  0  0  0  0  0  0  0  0  0  0  0
   -3.5419    9.1728   -0.0000 C   0  0  0  0  0  0  0  0  0  0  0  0
  1  2  2  0  0  0  0
  2  3  1  0  0  0  0
  2  4  1  0  0  0  0
  3  5  1  0  0  0  0
  3  6  1  0  0  0  0
  4  7  2  0  0  0  0
  4  8  1  0  0  0  0
  5  9  1  0  0  0  0
  5 10  1  6  0  0  0
  6 11  1  0  0  0  0
  7 12  1  0  0  0  0
  7 13  1  0  0  0  0
  8 14  2  0  0  0  0
  9 15  1  0  0  0  0
 10 16  1  0  0  0  0
 12 17  1  0  0  0  0
 12 18  1  0  0  0  0
 13 19  2  0  0  0  0
 16 20  2  0  0  0  0
 16 21  1  0  0  0  0
 17 22  2  0  0  0  0
 18 23  2  0  0  0  0
 19 24  1  0  0  0  0
 20 25  1  0  0  0  0
 20 26  1  0  0  0  0
 21 27  2  0  0  0  0
 25 28  2  0  0  0  0
 27 29  1  0  0  0  0
 29 30  1  0  0  0  0
 29 31  1  0  0  0  0
 30 32  2  0  0  0  0
 31 33  2  0  0  0  0
 11 15  1  0  0  0  0
 14 19  1  0  0  0  0
 22 23  1  0  0  0  0
 27 28  1  0  0  0  0
 32 33  1  0  0  0  0
M  END
>  <MolRegNo>
2157038

>  <m>
=

>  <Value>
17000

>  <Unit>
nM

>  <Type>
IC50

>  <pValue>
4.77

>  <Ligand Efficiency>
0.2

>  <Binding Efficiency>
10.78

>  <Surface Efficiency>
6.11

>  <Assay Index>
1058329

>  <Assay Category>


>  <Assay Organism>
Homo sapiens

>  <Target ID>
17045

>  <Target Name>
Cytochrome P450 3A4

>  <Target Organism>
Homo sapiens

>  <Target Description>
Target is a single protein chain

>  <Sequence Accession>
P08684

>  <Reference>


>  <Pubmed ID>


>  <DOI>


$$$$
2120303
Actelion Java MolfileCreator 1.0

 33 37  0  0  1  0  0  0  0  0999 V2000
    0.0000   -0.0000   -0.0000 O   0  0  0  0  0  0  0  0  0  0  0  0
   -1.0687   -0.5884   -0.0000 C   0  0  0  0  0  0  0  0  0  0  0  0
   -2.4016    0.1921   -0.0000 N   0  0  0  0  0  0  0  0  0  0  0  0
   -1.0927   -2.1014   -0.0000 C   0  0  0  0  0  0  0  0  0  0  0  0
   -2.4136    1.7292   -0.0000 C   0  0  0  0  0  0  0  0  0  0  0  0
   -3.7345   -0.5524   -0.0000 C   0  0  0  0  0  0  0  0  0  0  0  0
    0.2041   -2.8579   -0.0000 C   0  0  0  0  0  0  0  0  0  0  0  0
   -2.4256   -2.8459   -0.0000 C   0  0  0  0  0  0  0  0  0  0  0  0
   -3.7465    2.5097   -0.0000 C   0  0  0  0  0  0  0  0  0  0  0  0
   -1.1047    2.4977   -0.0000 C   0  0  0  0  0  0  0  0  0  0  0  0
   -5.0674    0.2282   -0.0000 C   0  0  0  0  0  0  0  0  0  0  0  0
    1.5130   -2.0894   -0.0000 N   0  0  0  0  0  0  0  0  0  0  0  0
    0.1801   -4.3710   -0.0000 C   0  0  0  0  0  0  0  0  0  0  0  0
   -2.4497   -4.3589   -0.0000 C   0  0  0  0  0  0  0  0  0  0  0  0
   -5.0794    1.7652   -0.0000 O   0  0  0  0  0  0  0  0  0  0  0  0
   -1.1168    4.0347   -0.0000 C   0  0  0  0  0  0  0  0  0  0  0  0
    1.6571   -0.5764   -0.0000 N   0  0  0  0  0  0  0  0  0  0  0  0
    2.8699   -2.7258   -0.0000 N   0  0  0  0  0  0  0  0  0  0  0  0
   -1.1528   -5.1155   -0.0000 C   0  0  0  0  0  0  0  0  0  0  0  0
    1.2248   -4.9714   -0.0000 C   0  0  0  0  0  0  0  0  0  0  0  0
    0.1921    4.8032   -0.0000 C   0  0  0  0  0  0  0  0  0  0  0  0
   -2.4497    4.8032   -0.0000 C   0  0  0  0  0  0  0  0  0  0  0  0
    3.1341   -0.2642   -0.0000 C   0  0  0  0  0  0  0  0  0  0  0  0
    3.8906   -1.5851   -0.0000 C   0  0  0  0  0  0  0  0  0  0  0  0
    0.1801    6.3403   -0.0000 C   0  0  0  0  0  0  0  0  0  0  0  0
    1.2368    4.2028   -0.0000 C   0  0  0  0  0  0  0  0  0  0  0  0
   -2.4617    6.3403   -0.0000 C   0  0  0  0  0  0  0  0  0  0  0  0
   -1.1528    7.1088   -0.0000 C   0  0  0  0  0  0  0  0  0  0  0  0
   -3.7946    7.1088   -0.0000 N   0  0  0  0  0  0  0  0  0  0  0  0
   -5.1755    6.4844   -0.0000 N   0  0  0  0  0  0  0  0  0  0  0  0
   -3.9507    8.6218   -0.0000 C   0  0  0  0  0  0  0  0  0  0  0  0
   -6.2082    7.6252   -0.0000 C   0  0  0  0  0  0  0  0  0  0  0  0
   -5.4517    8.9460   -0.0000 C   0  0  0  0  0  0  0  0  0  0  0  0
  1  2  2  0  0  0  0
  2  3  1  0  0  0  0
  2  4  1  0  0  0  0
  3  5  1  0  0  0  0
  3  6  1  0  0  0  0
  4  7  2  0  0  0  0
  4  8  1  0  0  0  0
  5  9  1  0  0  0  0
  5 10  1  1  0  0  0
  6 11  1  0  0  0  0
  7 12  1  0  0  0  0
  7 13  1  0  0  0  0
  8 14  2  0  0  0  0
  9 15  1  0  0  0  0
 10 16  1  0  0  0  0
 12 17  1  0  0  0  0
 12 18  1  0  0  0  0
 13 19  2  0  0  0  0
 13 20  1  0  0  0  0
 16 21  2  0  0  0  0
 16 22  1  0  0  0  0
 17 23  2  0  0  0  0
 18 24  2  0  0  0  0
 21 25  1  0  0  0  0
 21 26  1  0  0  0  0
 22 27  2  0  0  0  0
 25 28  2  0  0  0  0
 27 29  1  0  0  0  0
 29 30  1  0  0  0  0
 29 31  1  0  0  0  0
 30 32  2  0  0  0  0
 31 33  2  0  0  0  0
 11 15  1  0  0  0  0
 14 19  1  0  0  0  0
 23 24  1  0  0  0  0
 27 28  1  0  0  0  0
 32 33  1  0  0  0  0
M  END
>  <MolRegNo>
2120303

>  <m>
=

>  <Value>
26000

>  <Unit>
nM

>  <Type>
IC50

>  <pValue>
4.58

>  <Ligand Efficiency>
0.19

>  <Binding Efficiency>
10.36

>  <Surface Efficiency>
5.87

>  <Assay Index>
1058329

>  <Assay Category>


>  <Assay Organism>
Homo sapiens

>  <Target ID>
17045

>  <Target Name>
Cytochrome P450 3A4

>  <Target Organism>
Homo sapiens

>  <Target Description>
Target is a single protein chain

>  <Sequence Accession>
P08684

>  <Reference>


>  <Pubmed ID>


>  <DOI>


$$$$
2148243
Actelion Java MolfileCreator 1.0

 33 37  0  0  1  0  0  0  0  0999 V2000
    0.0000   -0.0000   -0.0000 Cl  0  0  0  0  0  0  0  0  0  0  0  0
    0.0000    1.2337   -0.0000 C   0  0  0  0  0  0  0  0  0  0  0  0
    1.3055    2.0002   -0.0000 C   0  0  0  0  0  0  0  0  0  0  0  0
   -1.3175    2.0122   -0.0000 C   0  0  0  0  0  0  0  0  0  0  0  0
    1.3055    3.5333   -0.0000 C   0  0  0  0  0  0  0  0  0  0  0  0
   -1.3175    3.5453   -0.0000 C   0  0  0  0  0  0  0  0  0  0  0  0
    2.6111    4.2999   -0.0000 N   0  0  0  0  0  0  0  0  0  0  0  0
   -0.0120    4.3119   -0.0000 C   0  0  0  0  0  0  0  0  0  0  0  0
    2.7548    5.8090   -0.0000 N   0  0  0  0  0  0  0  0  0  0  0  0
    3.9645    3.6651   -0.0000 N   0  0  0  0  0  0  0  0  0  0  0  0
   -0.0120    5.8450   -0.0000 C   0  0  0  0  0  0  0  0  0  0  0  0
    4.2280    6.1205   -0.0000 C   0  0  0  0  0  0  0  0  0  0  0  0
    4.9826    4.8029   -0.0000 C   0  0  0  0  0  0  0  0  0  0  0  0
    1.0301    6.4558   -0.0000 O   0  0  0  0  0  0  0  0  0  0  0  0
   -1.3415    6.6235   -0.0000 N   0  0  0  0  0  0  0  0  0  0  0  0
   -1.3534    8.1566   -0.0000 C   0  0  0  0  0  0  0  0  0  0  0  0
   -2.6710    5.8809   -0.0000 C   0  0  0  0  0  0  0  0  0  0  0  0
   -2.6829    8.9351   -0.0000 C   0  0  0  0  0  0  0  0  0  0  0  0
   -0.0479    8.9232   -0.0000 C   0  0  0  0  0  0  0  0  0  0  0  0
   -4.0005    6.6594   -0.0000 C   0  0  0  0  0  0  0  0  0  0  0  0
   -4.0124    8.1925   -0.0000 O   0  0  0  0  0  0  0  0  0  0  0  0
   -0.0599   10.4563   -0.0000 C   0  0  0  0  0  0  0  0  0  0  0  0
    1.2457   11.2228   -0.0000 C   0  0  0  0  0  0  0  0  0  0  0  0
   -1.3894   11.2228   -0.0000 C   0  0  0  0  0  0  0  0  0  0  0  0
    1.2337   12.7559   -0.0000 C   0  0  0  0  0  0  0  0  0  0  0  0
    2.2877   10.6240   -0.0000 C   0  0  0  0  0  0  0  0  0  0  0  0
   -1.4014   12.7559   -0.0000 C   0  0  0  0  0  0  0  0  0  0  0  0
   -0.0958   13.5225   -0.0000 C   0  0  0  0  0  0  0  0  0  0  0  0
   -2.7308   13.5225   -0.0000 N   0  0  0  0  0  0  0  0  0  0  0  0
   -2.8866   15.0317   -0.0000 N   0  0  0  0  0  0  0  0  0  0  0  0
   -4.1083   12.8997   -0.0000 N   0  0  0  0  0  0  0  0  0  0  0  0
   -4.3837   15.3550   -0.0000 C   0  0  0  0  0  0  0  0  0  0  0  0
   -5.1383   14.0375   -0.0000 C   0  0  0  0  0  0  0  0  0  0  0  0
  1  2  1  0  0  0  0
  2  3  2  0  0  0  0
  2  4  1  0  0  0  0
  3  5  1  0  0  0  0
  4  6  2  0  0  0  0
  5  7  1  0  0  0  0
  5  8  2  0  0  0  0
  7  9  1  0  0  0  0
  7 10  1  0  0  0  0
  8 11  1  0  0  0  0
  9 12  2  0  0  0  0
 10 13  2  0  0  0  0
 11 14  2  0  0  0  0
 11 15  1  0  0  0  0
 15 16  1  0  0  0  0
 15 17  1  0  0  0  0
 16 18  1  0  0  0  0
 16 19  1  1  0  0  0
 17 20  1  0  0  0  0
 18 21  1  0  0  0  0
 19 22  1  0  0  0  0
 22 23  2  0  0  0  0
 22 24  1  0  0  0  0
 23 25  1  0  0  0  0
 23 26  1  0  0  0  0
 24 27  2  0  0  0  0
 25 28  2  0  0  0  0
 27 29  1  0  0  0  0
 29 30  1  0  0  0  0
 29 31  1  0  0  0  0
 30 32  2  0  0  0  0
 31 33  2  0  0  0  0
  6  8  1  0  0  0  0
 12 13  1  0  0  0  0
 20 21  1  0  0  0  0
 27 28  1  0  0  0  0
 32 33  1  0  0  0  0
M  END
>  <MolRegNo>
2148243

>  <m>
=

>  <Value>
14000

>  <Unit>
nM

>  <Type>
IC50

>  <pValue>
4.85

>  <Ligand Efficiency>
0.2

>  <Binding Efficiency>
10.46

>  <Surface Efficiency>
5.34

>  <Assay Index>
1058329

>  <Assay Category>


>  <Assay Organism>
Homo sapiens

>  <Target ID>
17045

>  <Target Name>
Cytochrome P450 3A4

>  <Target Organism>
Homo sapiens

>  <Target Description>
Target is a single protein chain

>  <Sequence Accession>
P08684

>  <Reference>


>  <Pubmed ID>


>  <DOI>


$$$$
2116745
Actelion Java MolfileCreator 1.0

 32 36  0  0  1  0  0  0  0  0999 V2000
    0.0000   -0.0000   -0.0000 S   0  0  0  0  0  0  0  0  0  0  0  0
   -1.2398    0.8822   -0.0000 C   0  0  0  0  0  0  0  0  0  0  0  0
   -0.4768   -1.4305   -0.0000 C   0  0  0  0  0  0  0  0  0  0  0  0
   -2.4796    0.0238   -0.0000 N   0  0  0  0  0  0  0  0  0  0  0  0
   -1.2517    2.4081   -0.0000 C   0  0  0  0  0  0  0  0  0  0  0  0
   -2.0028   -1.4186   -0.0000 C   0  0  0  0  0  0  0  0  0  0  0  0
    0.0477    3.1710   -0.0000 C   0  0  0  0  0  0  0  0  0  0  0  0
   -2.5750    3.1710   -0.0000 C   0  0  0  0  0  0  0  0  0  0  0  0
    0.0358    4.6970   -0.0000 C   0  0  0  0  0  0  0  0  0  0  0  0
    1.0848    2.5750   -0.0000 C   0  0  0  0  0  0  0  0  0  0  0  0
   -2.5869    4.6970   -0.0000 C   0  0  0  0  0  0  0  0  0  0  0  0
   -1.2875    5.4599   -0.0000 C   0  0  0  0  0  0  0  0  0  0  0  0
   -3.9102    5.4599   -0.0000 C   0  0  0  0  0  0  0  0  0  0  0  0
   -5.2334    4.7089   -0.0000 C   0  0  0  0  0  0  0  0  0  0  0  0
   -6.5567    5.4718   -0.0000 N   0  0  0  0  0  0  0  0  0  0  0  0
   -5.2453    3.2068   -0.0000 C   0  0  0  0  0  0  0  0  0  0  0  0
   -6.5805    6.9978   -0.0000 C   0  0  0  0  0  0  0  0  0  0  0  0
   -7.8799    4.7208   -0.0000 C   0  0  0  0  0  0  0  0  0  0  0  0
   -6.5686    2.4558   -0.0000 O   0  0  0  0  0  0  0  0  0  0  0  0
   -5.5434    7.6177   -0.0000 O   0  0  0  0  0  0  0  0  0  0  0  0
   -7.9038    7.7607   -0.0000 C   0  0  0  0  0  0  0  0  0  0  0  0
   -7.8919    3.2187   -0.0000 C   0  0  0  0  0  0  0  0  0  0  0  0
   -7.9276    9.2866   -0.0000 C   0  0  0  0  0  0  0  0  0  0  0  0
   -9.2151    7.0097   -0.0000 C   0  0  0  0  0  0  0  0  0  0  0  0
   -6.6282   10.0615   -0.0000 N   0  0  0  0  0  0  0  0  0  0  0  0
   -9.2509   10.0496   -0.0000 C   0  0  0  0  0  0  0  0  0  0  0  0
  -10.5384    7.7726   -0.0000 C   0  0  0  0  0  0  0  0  0  0  0  0
   -5.2692    9.4535   -0.0000 N   0  0  0  0  0  0  0  0  0  0  0  0
   -6.5090   11.5636   -0.0000 N   0  0  0  0  0  0  0  0  0  0  0  0
  -10.5622    9.2986   -0.0000 C   0  0  0  0  0  0  0  0  0  0  0  0
   -4.2797   10.5980   -0.0000 C   0  0  0  0  0  0  0  0  0  0  0  0
   -5.0427   11.8974   -0.0000 C   0  0  0  0  0  0  0  0  0  0  0  0
  1  2  1  0  0  0  0
  1  3  1  0  0  0  0
  2  4  2  0  0  0  0
  2  5  1  0  0  0  0
  3  6  2  0  0  0  0
  5  7  2  0  0  0  0
  5  8  1  0  0  0  0
  7  9  1  0  0  0  0
  7 10  1  0  0  0  0
  8 11  2  0  0  0  0
  9 12  2  0  0  0  0
 11 13  1  0  0  0  0
 14 13  1  6  0  0  0
 14 15  1  0  0  0  0
 14 16  1  0  0  0  0
 15 17  1  0  0  0  0
 15 18  1  0  0  0  0
 16 19  1  0  0  0  0
 17 20  2  0  0  0  0
 17 21  1  0  0  0  0
 18 22  1  0  0  0  0
 21 23  2  0  0  0  0
 21 24  1  0  0  0  0
 23 25  1  0  0  0  0
 23 26  1  0  0  0  0
 24 27  2  0  0  0  0
 25 28  1  0  0  0  0
 25 29  1  0  0  0  0
 26 30  2  0  0  0  0
 28 31  2  0  0  0  0
 29 32  2  0  0  0  0
  4  6  1  0  0  0  0
 11 12  1  0  0  0  0
 19 22  1  0  0  0  0
 27 30  1  0  0  0  0
 31 32  1  0  0  0  0
M  END
>  <MolRegNo>
2116745

>  <m>
=

>  <Value>
600

>  <Unit>
nM

>  <Type>
IC50

>  <pValue>
6.22

>  <Ligand Efficiency>
0.27

>  <Binding Efficiency>
13.96

>  <Surface Efficiency>
8.51

>  <Assay Index>
1058329

>  <Assay Category>


>  <Assay Organism>
Homo sapiens

>  <Target ID>
17045

>  <Target Name>
Cytochrome P450 3A4

>  <Target Organism>
Homo sapiens

>  <Target Description>
Target is a single protein chain

>  <Sequence Accession>
P08684

>  <Reference>


>  <Pubmed ID>


>  <DOI>


$$$$
2115179
Actelion Java MolfileCreator 1.0

 30 34  0  0  1  0  0  0  0  0999 V2000
    0.0000   -0.0000   -0.0000 O   0  0  0  0  0  0  0  0  0  0  0  0
   -0.2615   -1.1650   -0.0000 C   0  0  0  0  0  0  0  0  0  0  0  0
   -1.6999   -1.6167   -0.0000 N   0  0  0  0  0  0  0  0  0  0  0  0
    0.8559   -2.1635   -0.0000 C   0  0  0  0  0  0  0  0  0  0  0  0
   -2.9243   -0.7370   -0.0000 C   0  0  0  0  0  0  0  0  0  0  0  0
   -2.1873   -3.0432   -0.0000 C   0  0  0  0  0  0  0  0  0  0  0  0
    2.2824   -1.6880   -0.0000 C   0  0  0  0  0  0  0  0  0  0  0  0
    0.5349   -3.6256   -0.0000 C   0  0  0  0  0  0  0  0  0  0  0  0
   -4.1606   -1.5810   -0.0000 C   0  0  0  0  0  0  0  0  0  0  0  0
   -2.9362    0.7846   -0.0000 C   0  0  0  0  0  0  0  0  0  0  0  0
   -3.7088   -3.0313   -0.0000 C   0  0  0  0  0  0  0  0  0  0  0  0
    2.5796   -0.2021   -0.0000 N   0  0  0  0  0  0  0  0  0  0  0  0
    3.3879   -2.6865   -0.0000 C   0  0  0  0  0  0  0  0  0  0  0  0
    1.6405   -4.6242   -0.0000 C   0  0  0  0  0  0  0  0  0  0  0  0
   -4.2557    1.5572   -0.0000 C   0  0  0  0  0  0  0  0  0  0  0  0
    1.5572    0.9153   -0.0000 N   0  0  0  0  0  0  0  0  0  0  0  0
    3.9466    0.4042   -0.0000 N   0  0  0  0  0  0  0  0  0  0  0  0
    3.0669   -4.1487   -0.0000 C   0  0  0  0  0  0  0  0  0  0  0  0
   -5.5752    0.8202   -0.0000 C   0  0  0  0  0  0  0  0  0  0  0  0
   -4.2676    3.0788   -0.0000 C   0  0  0  0  0  0  0  0  0  0  0  0
    2.3061    2.2348   -0.0000 C   0  0  0  0  0  0  0  0  0  0  0  0
    3.7802    1.9139   -0.0000 C   0  0  0  0  0  0  0  0  0  0  0  0
   -6.8947    1.5810   -0.0000 C   0  0  0  0  0  0  0  0  0  0  0  0
   -5.5870    3.8396   -0.0000 C   0  0  0  0  0  0  0  0  0  0  0  0
   -8.2141    0.8440   -0.0000 N   0  0  0  0  0  0  0  0  0  0  0  0
   -6.9065    3.1026   -0.0000 C   0  0  0  0  0  0  0  0  0  0  0  0
   -9.5812    1.4740   -0.0000 N   0  0  0  0  0  0  0  0  0  0  0  0
   -8.3568   -0.6300   -0.0000 N   0  0  0  0  0  0  0  0  0  0  0  0
  -10.6035    0.3685   -0.0000 C   0  0  0  0  0  0  0  0  0  0  0  0
   -9.8427   -0.9391   -0.0000 C   0  0  0  0  0  0  0  0  0  0  0  0
  1  2  2  0  0  0  0
  2  3  1  0  0  0  0
  2  4  1  0  0  0  0
  3  5  1  0  0  0  0
  3  6  1  0  0  0  0
  4  7  2  0  0  0  0
  4  8  1  0  0  0  0
  5  9  1  0  0  0  0
  5 10  1  1  0  0  0
  6 11  1  0  0  0  0
  7 12  1  0  0  0  0
  7 13  1  0  0  0  0
  8 14  2  0  0  0  0
 10 15  1  0  0  0  0
 12 16  1  0  0  0  0
 12 17  1  0  0  0  0
 13 18  2  0  0  0  0
 15 19  2  0  0  0  0
 15 20  1  0  0  0  0
 16 21  2  0  0  0  0
 17 22  2  0  0  0  0
 19 23  1  0  0  0  0
 20 24  2  0  0  0  0
 23 25  1  0  0  0  0
 23 26  2  0  0  0  0
 25 27  1  0  0  0  0
 25 28  1  0  0  0  0
 27 29  2  0  0  0  0
 28 30  2  0  0  0  0
  9 11  1  0  0  0  0
 14 18  1  0  0  0  0
 21 22  1  0  0  0  0
 24 26  1  0  0  0  0
 29 30  1  0  0  0  0
M  END
>  <MolRegNo>
2115179

>  <m>
=

>  <Value>
5500

>  <Unit>
nM

>  <Type>
IC50

>  <pValue>
5.26

>  <Ligand Efficiency>
0.24

>  <Binding Efficiency>
13.17

>  <Surface Efficiency>
6.44

>  <Assay Index>
1058329

>  <Assay Category>


>  <Assay Organism>
Homo sapiens

>  <Target ID>
17045

>  <Target Name>
Cytochrome P450 3A4

>  <Target Organism>
Homo sapiens

>  <Target Description>
Target is a single protein chain

>  <Sequence Accession>
P08684

>  <Reference>


>  <Pubmed ID>


>  <DOI>


$$$$
2126921
Actelion Java MolfileCreator 1.0

 31 35  0  0  1  0  0  0  0  0999 V2000
    0.0000   -0.0000   -0.0000 O   0  0  0  0  0  0  0  0  0  0  0  0
    1.0435   -0.5997   -0.0000 C   0  0  0  0  0  0  0  0  0  0  0  0
    1.0315   -2.1110   -0.0000 N   0  0  0  0  0  0  0  0  0  0  0  0
    2.3509    0.1799   -0.0000 C   0  0  0  0  0  0  0  0  0  0  0  0
   -0.2039   -2.9746   -0.0000 C   0  0  0  0  0  0  0  0  0  0  0  0
    2.2549   -2.9626   -0.0000 C   0  0  0  0  0  0  0  0  0  0  0  0
    2.3389    1.7152   -0.0000 C   0  0  0  0  0  0  0  0  0  0  0  0
    3.6582   -0.5637   -0.0000 C   0  0  0  0  0  0  0  0  0  0  0  0
    0.2639   -4.4139   -0.0000 C   0  0  0  0  0  0  0  0  0  0  0  0
   -1.6552   -2.4948   -0.0000 C   0  0  0  0  0  0  0  0  0  0  0  0
    1.7751   -4.4019   -0.0000 C   0  0  0  0  0  0  0  0  0  0  0  0
    1.0075    2.4828   -0.0000 N   0  0  0  0  0  0  0  0  0  0  0  0
    3.6462    2.4828   -0.0000 C   0  0  0  0  0  0  0  0  0  0  0  0
    4.9656    0.2039   -0.0000 C   0  0  0  0  0  0  0  0  0  0  0  0
   -2.8067   -3.5023   -0.0000 C   0  0  0  0  0  0  0  0  0  0  0  0
    0.8516    3.9941   -0.0000 N   0  0  0  0  0  0  0  0  0  0  0  0
   -0.3718    1.8591   -0.0000 N   0  0  0  0  0  0  0  0  0  0  0  0
    4.9536    1.7392   -0.0000 C   0  0  0  0  0  0  0  0  0  0  0  0
    6.0091   -0.3958   -0.0000 C   0  0  0  0  0  0  0  0  0  0  0  0
   -2.5068   -4.9776   -0.0000 C   0  0  0  0  0  0  0  0  0  0  0  0
   -4.2699   -3.0225   -0.0000 C   0  0  0  0  0  0  0  0  0  0  0  0
   -0.6477    4.3179   -0.0000 C   0  0  0  0  0  0  0  0  0  0  0  0
   -1.4033    2.9986   -0.0000 C   0  0  0  0  0  0  0  0  0  0  0  0
   -3.6462   -5.9851   -0.0000 C   0  0  0  0  0  0  0  0  0  0  0  0
   -5.4094   -4.0301   -0.0000 C   0  0  0  0  0  0  0  0  0  0  0  0
   -3.3464   -7.4604   -0.0000 N   0  0  0  0  0  0  0  0  0  0  0  0
   -5.1095   -5.5054   -0.0000 C   0  0  0  0  0  0  0  0  0  0  0  0
   -4.3779   -8.5639   -0.0000 N   0  0  0  0  0  0  0  0  0  0  0  0
   -1.9671   -8.0481   -0.0000 N   0  0  0  0  0  0  0  0  0  0  0  0
   -3.6223   -9.8713   -0.0000 C   0  0  0  0  0  0  0  0  0  0  0  0
   -2.1350   -9.5474   -0.0000 C   0  0  0  0  0  0  0  0  0  0  0  0
  1  2  2  0  0  0  0
  2  3  1  0  0  0  0
  2  4  1  0  0  0  0
  3  5  1  0  0  0  0
  3  6  1  0  0  0  0
  4  7  2  0  0  0  0
  4  8  1  0  0  0  0
  5  9  1  0  0  0  0
  5 10  1  1  0  0  0
  6 11  1  0  0  0  0
  7 12  1  0  0  0  0
  7 13  1  0  0  0  0
  8 14  2  0  0  0  0
 10 15  1  0  0  0  0
 12 16  1  0  0  0  0
 12 17  1  0  0  0  0
 13 18  2  0  0  0  0
 14 19  1  0  0  0  0
 15 20  2  0  0  0  0
 15 21  1  0  0  0  0
 16 22  2  0  0  0  0
 17 23  2  0  0  0  0
 20 24  1  0  0  0  0
 21 25  2  0  0  0  0
 24 26  1  0  0  0  0
 24 27  2  0  0  0  0
 26 28  1  0  0  0  0
 26 29  1  0  0  0  0
 28 30  2  0  0  0  0
 29 31  2  0  0  0  0
  9 11  1  0  0  0  0
 14 18  1  0  0  0  0
 22 23  1  0  0  0  0
 25 27  1  0  0  0  0
 30 31  1  0  0  0  0
M  END
>  <MolRegNo>
2126921

>  <m>
=

>  <Value>
3300

>  <Unit>
nM

>  <Type>
IC50

>  <pValue>
5.48

>  <Ligand Efficiency>
0.24

>  <Binding Efficiency>
13.26

>  <Surface Efficiency>
6.71

>  <Assay Index>
1058329

>  <Assay Category>


>  <Assay Organism>
Homo sapiens

>  <Target ID>
17045

>  <Target Name>
Cytochrome P450 3A4

>  <Target Organism>
Homo sapiens

>  <Target Description>
Target is a single protein chain

>  <Sequence Accession>
P08684

>  <Reference>


>  <Pubmed ID>


>  <DOI>


$$$$
2114674
Actelion Java MolfileCreator 1.0

 31 35  0  0  1  0  0  0  0  0999 V2000
    0.0000   -0.0000   -0.0000 O   0  0  0  0  0  0  0  0  0  0  0  0
   -0.0119    1.2231   -0.0000 C   0  0  0  0  0  0  0  0  0  0  0  0
   -1.3300    1.9831   -0.0000 N   0  0  0  0  0  0  0  0  0  0  0  0
    1.2825    1.9949   -0.0000 C   0  0  0  0  0  0  0  0  0  0  0  0
   -2.6480    1.2468   -0.0000 C   0  0  0  0  0  0  0  0  0  0  0  0
   -1.3418    3.5030   -0.0000 C   0  0  0  0  0  0  0  0  0  0  0  0
    2.5768    1.2587   -0.0000 C   0  0  0  0  0  0  0  0  0  0  0  0
    1.2706    3.5149   -0.0000 C   0  0  0  0  0  0  0  0  0  0  0  0
   -3.9661    2.0068   -0.0000 C   0  0  0  0  0  0  0  0  0  0  0  0
   -2.6599   -0.2494   -0.0000 C   0  0  0  0  0  0  0  0  0  0  0  0
   -2.6599    4.2630   -0.0000 C   0  0  0  0  0  0  0  0  0  0  0  0
    2.5649   -0.2375   -0.0000 N   0  0  0  0  0  0  0  0  0  0  0  0
    3.8711    2.0306   -0.0000 C   0  0  0  0  0  0  0  0  0  0  0  0
    2.5649    4.2868   -0.0000 C   0  0  0  0  0  0  0  0  0  0  0  0
   -3.9780    3.5268   -0.0000 C   0  0  0  0  0  0  0  0  0  0  0  0
   -3.9780   -0.9856   -0.0000 C   0  0  0  0  0  0  0  0  0  0  0  0
    1.3418   -1.0925   -0.0000 N   0  0  0  0  0  0  0  0  0  0  0  0
    3.7761   -1.0806   -0.0000 N   0  0  0  0  0  0  0  0  0  0  0  0
    3.8593    3.5505   -0.0000 C   0  0  0  0  0  0  0  0  0  0  0  0
   -5.2961   -0.2137   -0.0000 C   0  0  0  0  0  0  0  0  0  0  0  0
   -3.9899   -2.4818   -0.0000 C   0  0  0  0  0  0  0  0  0  0  0  0
    1.8049   -2.5174   -0.0000 C   0  0  0  0  0  0  0  0  0  0  0  0
    3.3012   -2.5056   -0.0000 C   0  0  0  0  0  0  0  0  0  0  0  0
   -6.6142   -0.9500   -0.0000 C   0  0  0  0  0  0  0  0  0  0  0  0
   -5.3080   -3.2180   -0.0000 C   0  0  0  0  0  0  0  0  0  0  0  0
   -7.9323   -0.1781   -0.0000 N   0  0  0  0  0  0  0  0  0  0  0  0
   -6.6261   -2.4462   -0.0000 C   0  0  0  0  0  0  0  0  0  0  0  0
   -9.3097   -0.7837   -0.0000 N   0  0  0  0  0  0  0  0  0  0  0  0
   -8.0748    1.3181   -0.0000 N   0  0  0  0  0  0  0  0  0  0  0  0
  -10.3191    0.3562   -0.0000 C   0  0  0  0  0  0  0  0  0  0  0  0
   -9.5591    1.6506   -0.0000 C   0  0  0  0  0  0  0  0  0  0  0  0
  1  2  2  0  0  0  0
  2  3  1  0  0  0  0
  2  4  1  0  0  0  0
  3  5  1  0  0  0  0
  3  6  1  0  0  0  0
  4  7  2  0  0  0  0
  4  8  1  0  0  0  0
  5  9  1  0  0  0  0
  5 10  1  6  0  0  0
  6 11  1  0  0  0  0
  7 12  1  0  0  0  0
  7 13  1  0  0  0  0
  8 14  2  0  0  0  0
  9 15  1  0  0  0  0
 10 16  1  0  0  0  0
 12 17  1  0  0  0  0
 12 18  1  0  0  0  0
 13 19  2  0  0  0  0
 16 20  2  0  0  0  0
 16 21  1  0  0  0  0
 17 22  2  0  0  0  0
 18 23  2  0  0  0  0
 20 24  1  0  0  0  0
 21 25  2  0  0  0  0
 24 26  1  0  0  0  0
 24 27  2  0  0  0  0
 26 28  1  0  0  0  0
 26 29  1  0  0  0  0
 28 30  2  0  0  0  0
 29 31  2  0  0  0  0
 11 15  1  0  0  0  0
 14 19  1  0  0  0  0
 22 23  1  0  0  0  0
 25 27  1  0  0  0  0
 30 31  1  0  0  0  0
M  END
>  <MolRegNo>
2114674

>  <m>
=

>  <Value>
6100

>  <Unit>
nM

>  <Type>
IC50

>  <pValue>
5.21

>  <Ligand Efficiency>
0.23

>  <Binding Efficiency>
12.61

>  <Surface Efficiency>
6.38

>  <Assay Index>
1058329

>  <Assay Category>


>  <Assay Organism>
Homo sapiens

>  <Target ID>
17045

>  <Target Name>
Cytochrome P450 3A4

>  <Target Organism>
Homo sapiens

>  <Target Description>
Target is a single protein chain

>  <Sequence Accession>
P08684

>  <Reference>


>  <Pubmed ID>


>  <DOI>


$$$$
2190756
Actelion Java MolfileCreator 1.0

 32 36  0  0  1  0  0  0  0  0999 V2000
    0.0000   -0.0000   -0.0000 O   0  0  0  0  0  0  0  0  0  0  0  0
    1.0422   -0.5990   -0.0000 C   0  0  0  0  0  0  0  0  0  0  0  0
    1.0303   -2.1085   -0.0000 N   0  0  0  0  0  0  0  0  0  0  0  0
    2.3481    0.1797   -0.0000 C   0  0  0  0  0  0  0  0  0  0  0  0
   -0.2995   -2.8632   -0.0000 C   0  0  0  0  0  0  0  0  0  0  0  0
    2.3361   -2.8512   -0.0000 C   0  0  0  0  0  0  0  0  0  0  0  0
    2.3361    1.7131   -0.0000 C   0  0  0  0  0  0  0  0  0  0  0  0
    3.6539   -0.5631   -0.0000 C   0  0  0  0  0  0  0  0  0  0  0  0
   -0.3115   -4.3727   -0.0000 C   0  0  0  0  0  0  0  0  0  0  0  0
   -1.6293   -2.0965   -0.0000 C   0  0  0  0  0  0  0  0  0  0  0  0
    2.3241   -4.3607   -0.0000 C   0  0  0  0  0  0  0  0  0  0  0  0
    1.0063    2.4798   -0.0000 N   0  0  0  0  0  0  0  0  0  0  0  0
    3.6419    2.4798   -0.0000 C   0  0  0  0  0  0  0  0  0  0  0  0
    4.9597    0.2037   -0.0000 C   0  0  0  0  0  0  0  0  0  0  0  0
    0.9943   -5.1154   -0.0000 C   0  0  0  0  0  0  0  0  0  0  0  0
   -2.9590   -2.8512   -0.0000 C   0  0  0  0  0  0  0  0  0  0  0  0
    0.8506    3.9893   -0.0000 N   0  0  0  0  0  0  0  0  0  0  0  0
   -0.3714    1.8569   -0.0000 N   0  0  0  0  0  0  0  0  0  0  0  0
    4.9477    1.7371   -0.0000 C   0  0  0  0  0  0  0  0  0  0  0  0
    6.0019   -0.3953   -0.0000 C   0  0  0  0  0  0  0  0  0  0  0  0
   -2.9590   -4.3607   -0.0000 C   0  0  0  0  0  0  0  0  0  0  0  0
   -4.2888   -2.0845   -0.0000 C   0  0  0  0  0  0  0  0  0  0  0  0
   -0.6469    4.3128   -0.0000 C   0  0  0  0  0  0  0  0  0  0  0  0
   -1.4016    2.9950   -0.0000 C   0  0  0  0  0  0  0  0  0  0  0  0
   -4.2768   -5.1154   -0.0000 C   0  0  0  0  0  0  0  0  0  0  0  0
   -5.6066   -2.8392   -0.0000 C   0  0  0  0  0  0  0  0  0  0  0  0
   -4.2768   -6.6249   -0.0000 N   0  0  0  0  0  0  0  0  0  0  0  0
   -5.6066   -4.3487   -0.0000 C   0  0  0  0  0  0  0  0  0  0  0  0
   -5.5107   -7.4994   -0.0000 N   0  0  0  0  0  0  0  0  0  0  0  0
   -3.0549   -7.4754   -0.0000 N   0  0  0  0  0  0  0  0  0  0  0  0
   -5.0435   -8.9250   -0.0000 C   0  0  0  0  0  0  0  0  0  0  0  0
   -3.5221   -8.9130   -0.0000 C   0  0  0  0  0  0  0  0  0  0  0  0
  1  2  2  0  0  0  0
  2  3  1  0  0  0  0
  2  4  1  0  0  0  0
  3  5  1  0  0  0  0
  3  6  1  0  0  0  0
  4  7  2  0  0  0  0
  4  8  1  0  0  0  0
  5  9  1  0  0  0  0
  5 10  1  1  0  0  0
  6 11  1  0  0  0  0
  7 12  1  0  0  0  0
  7 13  1  0  0  0  0
  8 14  2  0  0  0  0
  9 15  1  0  0  0  0
 10 16  1  0  0  0  0
 12 17  1  0  0  0  0
 12 18  1  0  0  0  0
 13 19  2  0  0  0  0
 14 20  1  0  0  0  0
 16 21  2  0  0  0  0
 16 22  1  0  0  0  0
 17 23  2  0  0  0  0
 18 24  2  0  0  0  0
 21 25  1  0  0  0  0
 22 26  2  0  0  0  0
 25 27  1  0  0  0  0
 25 28  2  0  0  0  0
 27 29  1  0  0  0  0
 27 30  1  0  0  0  0
 29 31  2  0  0  0  0
 30 32  2  0  0  0  0
 11 15  1  0  0  0  0
 14 19  1  0  0  0  0
 23 24  1  0  0  0  0
 26 28  1  0  0  0  0
 31 32  1  0  0  0  0
M  END
>  <MolRegNo>
2190756

>  <m>
=

>  <Value>
7700

>  <Unit>
nM

>  <Type>
IC50

>  <pValue>
5.11

>  <Ligand Efficiency>
0.22

>  <Binding Efficiency>
11.96

>  <Surface Efficiency>
6.26

>  <Assay Index>
1058329

>  <Assay Category>


>  <Assay Organism>
Homo sapiens

>  <Target ID>
17045

>  <Target Name>
Cytochrome P450 3A4

>  <Target Organism>
Homo sapiens

>  <Target Description>
Target is a single protein chain

>  <Sequence Accession>
P08684

>  <Reference>


>  <Pubmed ID>


>  <DOI>


$$$$
2246356
Actelion Java MolfileCreator 1.0

 64 66  0  0  0  0  0  0  0  0999 V2000
    0.0000   -0.0000   -0.0000 P   0  0  0  0  0  0  0  0  0  0  0  0
    1.1921   -0.2433   -0.0000 O   0  0  0  0  0  0  0  0  0  0  0  0
   -1.5206    0.3284   -0.0000 O   0  0  0  0  0  0  0  0  0  0  0  0
    0.8150    0.9367   -0.0000 O   0  0  0  0  0  0  0  0  0  0  0  0
    0.4744   -1.4598   -0.0000 C   0  0  0  0  0  0  0  0  0  0  0  0
   -2.0193    1.8125   -0.0000 C   0  0  0  0  0  0  0  0  0  0  0  0
    1.9707   -1.7639   -0.0000 C   0  0  0  0  0  0  0  0  0  0  0  0
   -3.5399    2.1410   -0.0000 C   0  0  0  0  0  0  0  0  0  0  0  0
    2.4451   -3.2236   -0.0000 C   0  0  0  0  0  0  0  0  0  0  0  0
   -4.0386    3.6250   -0.0000 N   0  0  0  0  0  0  0  0  0  0  0  0
    1.3989   -4.3671   -0.0000 O   0  0  0  0  0  0  0  0  0  0  0  0
    3.9413   -3.5277   -0.0000 C   0  0  0  0  0  0  0  0  0  0  0  0
   -5.5592    3.9535   -0.0000 C   0  0  0  0  0  0  0  0  0  0  0  0
   -0.1216   -4.0386   -0.0000 C   0  0  0  0  0  0  0  0  0  0  0  0
    4.4157   -4.9875   -0.0000 O   0  0  0  0  0  0  0  0  0  0  0  0
   -6.3986    3.0411   -0.0000 O   0  0  0  0  0  0  0  0  0  0  0  0
   -6.0580    5.4376   -0.0000 C   0  0  0  0  0  0  0  0  0  0  0  0
   -0.5231   -2.8465   -0.0000 O   0  0  0  0  0  0  0  0  0  0  0  0
   -1.1678   -5.1821   -0.0000 C   0  0  0  0  0  0  0  0  0  0  0  0
    5.9120   -5.2916   -0.0000 C   0  0  0  0  0  0  0  0  0  0  0  0
   -7.5785    5.7660   -0.0000 C   0  0  0  0  0  0  0  0  0  0  0  0
   -5.0361    6.6054   -0.0000 C   0  0  0  0  0  0  0  0  0  0  0  0
   -2.6884   -4.8537   -0.0000 C   0  0  0  0  0  0  0  0  0  0  0  0
    6.7270   -4.3549   -0.0000 O   0  0  0  0  0  0  0  0  0  0  0  0
    6.3864   -6.7513   -0.0000 C   0  0  0  0  0  0  0  0  0  0  0  0
   -8.0773    7.2501   -0.0000 C   0  0  0  0  0  0  0  0  0  0  0  0
   -5.5349    8.0895   -0.0000 C   0  0  0  0  0  0  0  0  0  0  0  0
   -3.7345   -5.9971   -0.0000 C   0  0  0  0  0  0  0  0  0  0  0  0
    7.8827   -7.0555   -0.0000 C   0  0  0  0  0  0  0  0  0  0  0  0
   -7.0555    8.4179   -0.0000 C   0  0  0  0  0  0  0  0  0  0  0  0
   -5.2551   -5.6687   -0.0000 C   0  0  0  0  0  0  0  0  0  0  0  0
    8.3571   -8.5152   -0.0000 C   0  0  0  0  0  0  0  0  0  0  0  0
   -7.5420    9.9020   -0.0000 C   0  0  0  0  0  0  0  0  0  0  0  0
   -6.3013   -6.8122   -0.0000 C   0  0  0  0  0  0  0  0  0  0  0  0
    9.8533   -8.8193   -0.0000 C   0  0  0  0  0  0  0  0  0  0  0  0
   -6.5202   11.0576   -0.0000 N   0  0  0  0  0  0  0  0  0  0  0  0
   -7.8218   -6.4837   -0.0000 C   0  0  0  0  0  0  0  0  0  0  0  0
   10.3277  -10.2791   -0.0000 C   0  0  0  0  0  0  0  0  0  0  0  0
   -4.9996   10.9116   -0.0000 C   0  0  0  0  0  0  0  0  0  0  0  0
   -6.8487   12.5782   -0.0000 C   0  0  0  0  0  0  0  0  0  0  0  0
   -8.8680   -7.6272   -0.0000 C   0  0  0  0  0  0  0  0  0  0  0  0
   11.8240  -10.5832   -0.0000 C   0  0  0  0  0  0  0  0  0  0  0  0
   -4.3914    9.8533   -0.0000 O   0  0  0  0  0  0  0  0  0  0  0  0
   -4.3793   12.3349   -0.0000 N   0  0  0  0  0  0  0  0  0  0  0  0
   -8.1989   13.3567   -0.0000 N   0  0  0  0  0  0  0  0  0  0  0  0
   -5.5227   13.3567   -0.0000 C   0  0  0  0  0  0  0  0  0  0  0  0
  -10.3886   -7.2988   -0.0000 C   0  0  0  0  0  0  0  0  0  0  0  0
   12.2984  -12.0429   -0.0000 C   0  0  0  0  0  0  0  0  0  0  0  0
   -8.2111   14.9138   -0.0000 C   0  0  0  0  0  0  0  0  0  0  0  0
   -5.5349   14.9138   -0.0000 C   0  0  0  0  0  0  0  0  0  0  0  0
  -11.4347   -8.4422   -0.0000 C   0  0  0  0  0  0  0  0  0  0  0  0
   13.7946  -12.3471   -0.0000 C   0  0  0  0  0  0  0  0  0  0  0  0
   -9.5614   15.6923   -0.0000 O   0  0  0  0  0  0  0  0  0  0  0  0
   -6.8852   15.6923   -0.0000 N   0  0  0  0  0  0  0  0  0  0  0  0
   -4.4766   15.5464   -0.0000 N   0  0  0  0  0  0  0  0  0  0  0  0
  -12.9553   -8.1138   -0.0000 C   0  0  0  0  0  0  0  0  0  0  0  0
   14.2691  -13.8068   -0.0000 C   0  0  0  0  0  0  0  0  0  0  0  0
  -10.9116   14.9260   -0.0000 C   0  0  0  0  0  0  0  0  0  0  0  0
  -13.7946   -9.0261   -0.0000 C   0  0  0  0  0  0  0  0  0  0  0  0
   15.7653  -14.1109   -0.0000 C   0  0  0  0  0  0  0  0  0  0  0  0
  -12.2619   15.7045   -0.0000 C   0  0  0  0  0  0  0  0  0  0  0  0
   16.1424  -15.2666   -0.0000 C   0  0  0  0  0  0  0  0  0  0  0  0
  -13.6122   14.9381   -0.0000 O   0  0  0  0  0  0  0  0  0  0  0  0
  -14.6948   15.5707   -0.0000 C   0  0  0  0  0  0  0  0  0  0  0  0
  1  2  2  0  0  0  0
  1  3  1  0  0  0  0
  1  4  1  0  0  0  0
  1  5  1  0  0  0  0
  3  6  1  0  0  0  0
  5  7  1  0  0  0  0
  6  8  1  0  0  0  0
  7  9  1  0  0  0  0
  8 10  1  0  0  0  0
  9 11  1  0  0  0  0
  9 12  1  0  0  0  0
 10 13  1  0  0  0  0
 11 14  1  0  0  0  0
 12 15  1  0  0  0  0
 13 16  2  0  0  0  0
 13 17  1  0  0  0  0
 14 18  2  0  0  0  0
 14 19  1  0  0  0  0
 15 20  1  0  0  0  0
 17 21  2  0  0  0  0
 17 22  1  0  0  0  0
 19 23  1  0  0  0  0
 20 24  2  0  0  0  0
 20 25  1  0  0  0  0
 21 26  1  0  0  0  0
 22 27  2  0  0  0  0
 23 28  1  0  0  0  0
 25 29  1  0  0  0  0
 26 30  2  0  0  0  0
 28 31  1  0  0  0  0
 29 32  1  0  0  0  0
 30 33  1  0  0  0  0
 31 34  1  0  0  0  0
 32 35  1  0  0  0  0
 33 36  1  0  0  0  0
 34 37  1  0  0  0  0
 35 38  1  0  0  0  0
 36 39  1  0  0  0  0
 36 40  1  0  0  0  0
 37 41  1  0  0  0  0
 38 42  1  0  0  0  0
 39 43  2  0  0  0  0
 39 44  1  0  0  0  0
 40 45  2  0  0  0  0
 40 46  1  0  0  0  0
 41 47  1  0  0  0  0
 42 48  1  0  0  0  0
 45 49  1  0  0  0  0
 46 50  2  0  0  0  0
 47 51  1  0  0  0  0
 48 52  1  0  0  0  0
 49 53  1  0  0  0  0
 49 54  2  0  0  0  0
 50 55  1  0  0  0  0
 51 56  1  0  0  0  0
 52 57  1  0  0  0  0
 53 58  1  0  0  0  0
 56 59  1  0  0  0  0
 57 60  1  0  0  0  0
 58 61  1  0  0  0  0
 60 62  1  0  0  0  0
 61 63  1  0  0  0  0
 63 64  1  0  0  0  0
 27 30  1  0  0  0  0
 44 46  1  0  0  0  0
 50 54  1  0  0  0  0
M  END
>  <MolRegNo>
2246356

>  <m>
=

>  <Value>
13600

>  <Unit>
nM

>  <Type>
IC50

>  <pValue>
4.87

>  <Ligand Efficiency>
0.1

>  <Binding Efficiency>
5.29

>  <Surface Efficiency>
2.06

>  <Assay Index>
1058126

>  <Assay Category>


>  <Assay Organism>
Homo sapiens

>  <Target ID>
17045

>  <Target Name>
Cytochrome P450 3A4

>  <Target Organism>
Homo sapiens

>  <Target Description>
Target is a single protein chain

>  <Sequence Accession>
P08684

>  <Reference>


>  <Pubmed ID>


>  <DOI>


$$$$
2245772
Actelion Java MolfileCreator 1.0

 64 66  0  0  0  0  0  0  0  0999 V2000
    0.0000   -0.0000   -0.0000 P   0  0  0  0  0  0  0  0  0  0  0  0
    1.1921   -0.2433   -0.0000 O   0  0  0  0  0  0  0  0  0  0  0  0
    0.4744   -1.4598   -0.0000 O   0  0  0  0  0  0  0  0  0  0  0  0
   -1.5206    0.3284   -0.0000 O   0  0  0  0  0  0  0  0  0  0  0  0
    0.8150    0.9367   -0.0000 O   0  0  0  0  0  0  0  0  0  0  0  0
    1.9707   -1.7639   -0.0000 C   0  0  0  0  0  0  0  0  0  0  0  0
   -2.0193    1.8125   -0.0000 C   0  0  0  0  0  0  0  0  0  0  0  0
    2.4451   -3.2236   -0.0000 C   0  0  0  0  0  0  0  0  0  0  0  0
   -3.5399    2.1410   -0.0000 C   0  0  0  0  0  0  0  0  0  0  0  0
    1.3989   -4.3671   -0.0000 O   0  0  0  0  0  0  0  0  0  0  0  0
    3.9413   -3.5277   -0.0000 C   0  0  0  0  0  0  0  0  0  0  0  0
   -4.0386    3.6250   -0.0000 N   0  0  0  0  0  0  0  0  0  0  0  0
   -0.1216   -4.0386   -0.0000 C   0  0  0  0  0  0  0  0  0  0  0  0
    4.4157   -4.9875   -0.0000 O   0  0  0  0  0  0  0  0  0  0  0  0
   -5.5592    3.9535   -0.0000 C   0  0  0  0  0  0  0  0  0  0  0  0
   -0.5231   -2.8465   -0.0000 O   0  0  0  0  0  0  0  0  0  0  0  0
   -1.1678   -5.1821   -0.0000 C   0  0  0  0  0  0  0  0  0  0  0  0
    5.9120   -5.2916   -0.0000 C   0  0  0  0  0  0  0  0  0  0  0  0
   -6.3986    3.0411   -0.0000 O   0  0  0  0  0  0  0  0  0  0  0  0
   -6.0580    5.4376   -0.0000 C   0  0  0  0  0  0  0  0  0  0  0  0
   -2.6884   -4.8537   -0.0000 C   0  0  0  0  0  0  0  0  0  0  0  0
    6.7270   -4.3549   -0.0000 O   0  0  0  0  0  0  0  0  0  0  0  0
    6.3864   -6.7513   -0.0000 C   0  0  0  0  0  0  0  0  0  0  0  0
   -7.5785    5.7660   -0.0000 C   0  0  0  0  0  0  0  0  0  0  0  0
   -5.0361    6.6054   -0.0000 C   0  0  0  0  0  0  0  0  0  0  0  0
   -3.7345   -5.9971   -0.0000 C   0  0  0  0  0  0  0  0  0  0  0  0
    7.8827   -7.0555   -0.0000 C   0  0  0  0  0  0  0  0  0  0  0  0
   -8.0773    7.2501   -0.0000 C   0  0  0  0  0  0  0  0  0  0  0  0
   -5.5349    8.0895   -0.0000 C   0  0  0  0  0  0  0  0  0  0  0  0
   -5.2551   -5.6687   -0.0000 C   0  0  0  0  0  0  0  0  0  0  0  0
    8.3571   -8.5152   -0.0000 C   0  0  0  0  0  0  0  0  0  0  0  0
   -7.0555    8.4179   -0.0000 C   0  0  0  0  0  0  0  0  0  0  0  0
   -6.3013   -6.8122   -0.0000 C   0  0  0  0  0  0  0  0  0  0  0  0
    9.8533   -8.8193   -0.0000 C   0  0  0  0  0  0  0  0  0  0  0  0
   -7.5420    9.9020   -0.0000 C   0  0  0  0  0  0  0  0  0  0  0  0
   -7.8218   -6.4837   -0.0000 C   0  0  0  0  0  0  0  0  0  0  0  0
   10.3277  -10.2791   -0.0000 C   0  0  0  0  0  0  0  0  0  0  0  0
   -6.5202   11.0576   -0.0000 N   0  0  0  0  0  0  0  0  0  0  0  0
   -8.8680   -7.6272   -0.0000 C   0  0  0  0  0  0  0  0  0  0  0  0
   11.8240  -10.5832   -0.0000 C   0  0  0  0  0  0  0  0  0  0  0  0
   -4.9996   10.9116   -0.0000 C   0  0  0  0  0  0  0  0  0  0  0  0
   -6.8487   12.5782   -0.0000 C   0  0  0  0  0  0  0  0  0  0  0  0
  -10.3886   -7.2988   -0.0000 C   0  0  0  0  0  0  0  0  0  0  0  0
   12.2984  -12.0429   -0.0000 C   0  0  0  0  0  0  0  0  0  0  0  0
   -4.3914    9.8533   -0.0000 O   0  0  0  0  0  0  0  0  0  0  0  0
   -4.3793   12.3349   -0.0000 N   0  0  0  0  0  0  0  0  0  0  0  0
   -8.1989   13.3567   -0.0000 N   0  0  0  0  0  0  0  0  0  0  0  0
   -5.5227   13.3567   -0.0000 C   0  0  0  0  0  0  0  0  0  0  0  0
  -11.4347   -8.4422   -0.0000 C   0  0  0  0  0  0  0  0  0  0  0  0
   13.7946  -12.3471   -0.0000 C   0  0  0  0  0  0  0  0  0  0  0  0
   -8.2111   14.9138   -0.0000 C   0  0  0  0  0  0  0  0  0  0  0  0
   -5.5349   14.9138   -0.0000 C   0  0  0  0  0  0  0  0  0  0  0  0
  -12.9553   -8.1138   -0.0000 C   0  0  0  0  0  0  0  0  0  0  0  0
   14.2691  -13.8068   -0.0000 C   0  0  0  0  0  0  0  0  0  0  0  0
   -9.5614   15.6923   -0.0000 O   0  0  0  0  0  0  0  0  0  0  0  0
   -6.8852   15.6923   -0.0000 N   0  0  0  0  0  0  0  0  0  0  0  0
   -4.4766   15.5464   -0.0000 N   0  0  0  0  0  0  0  0  0  0  0  0
  -13.7946   -9.0261   -0.0000 C   0  0  0  0  0  0  0  0  0  0  0  0
   15.7653  -14.1109   -0.0000 C   0  0  0  0  0  0  0  0  0  0  0  0
  -10.9116   14.9260   -0.0000 C   0  0  0  0  0  0  0  0  0  0  0  0
   16.1424  -15.2666   -0.0000 C   0  0  0  0  0  0  0  0  0  0  0  0
  -12.2619   15.7045   -0.0000 C   0  0  0  0  0  0  0  0  0  0  0  0
  -13.6122   14.9381   -0.0000 O   0  0  0  0  0  0  0  0  0  0  0  0
  -14.6948   15.5707   -0.0000 C   0  0  0  0  0  0  0  0  0  0  0  0
  1  2  2  0  0  0  0
  1  3  1  0  0  0  0
  1  4  1  0  0  0  0
  1  5  1  0  0  0  0
  3  6  1  0  0  0  0
  4  7  1  0  0  0  0
  6  8  1  0  0  0  0
  7  9  1  0  0  0  0
  8 10  1  0  0  0  0
  8 11  1  0  0  0  0
  9 12  1  0  0  0  0
 10 13  1  0  0  0  0
 11 14  1  0  0  0  0
 12 15  1  0  0  0  0
 13 16  2  0  0  0  0
 13 17  1  0  0  0  0
 14 18  1  0  0  0  0
 15 19  2  0  0  0  0
 15 20  1  0  0  0  0
 17 21  1  0  0  0  0
 18 22  2  0  0  0  0
 18 23  1  0  0  0  0
 20 24  2  0  0  0  0
 20 25  1  0  0  0  0
 21 26  1  0  0  0  0
 23 27  1  0  0  0  0
 24 28  1  0  0  0  0
 25 29  2  0  0  0  0
 26 30  1  0  0  0  0
 27 31  1  0  0  0  0
 28 32  2  0  0  0  0
 30 33  1  0  0  0  0
 31 34  1  0  0  0  0
 32 35  1  0  0  0  0
 33 36  1  0  0  0  0
 34 37  1  0  0  0  0
 35 38  1  0  0  0  0
 36 39  1  0  0  0  0
 37 40  1  0  0  0  0
 38 41  1  0  0  0  0
 38 42  1  0  0  0  0
 39 43  1  0  0  0  0
 40 44  1  0  0  0  0
 41 45  2  0  0  0  0
 41 46  1  0  0  0  0
 42 47  2  0  0  0  0
 42 48  1  0  0  0  0
 43 49  1  0  0  0  0
 44 50  1  0  0  0  0
 47 51  1  0  0  0  0
 48 52  2  0  0  0  0
 49 53  1  0  0  0  0
 50 54  1  0  0  0  0
 51 55  1  0  0  0  0
 51 56  2  0  0  0  0
 52 57  1  0  0  0  0
 53 58  1  0  0  0  0
 54 59  1  0  0  0  0
 55 60  1  0  0  0  0
 59 61  1  0  0  0  0
 60 62  1  0  0  0  0
 62 63  1  0  0  0  0
 63 64  1  0  0  0  0
 29 32  1  0  0  0  0
 46 48  1  0  0  0  0
 52 56  1  0  0  0  0
M  END
>  <MolRegNo>
2245772

>  <m>
=

>  <Value>
13600

>  <Unit>
nM

>  <Type>
IC50

>  <pValue>
4.87

>  <Ligand Efficiency>
0.1

>  <Binding Efficiency>
5.28

>  <Surface Efficiency>
1.98

>  <Assay Index>
1058495

>  <Assay Category>


>  <Assay Organism>
Homo sapiens

>  <Target ID>
17045

>  <Target Name>
Cytochrome P450 3A4

>  <Target Organism>
Homo sapiens

>  <Target Description>
Target is a single protein chain

>  <Sequence Accession>
P08684

>  <Reference>


>  <Pubmed ID>


>  <DOI>


$$$$
2100831
Actelion Java MolfileCreator 1.0

 32 34  0  0  0  0  0  0  0  0999 V2000
    0.0000   -0.0000   -0.0000 F   0  0  0  0  0  0  0  0  0  0  0  0
   -1.0974    0.6412   -0.0000 C   0  0  0  0  0  0  0  0  0  0  0  0
   -2.4661   -0.1233   -0.0000 C   0  0  0  0  0  0  0  0  0  0  0  0
   -1.1097    2.2195   -0.0000 C   0  0  0  0  0  0  0  0  0  0  0  0
   -3.8348    0.6658   -0.0000 C   0  0  0  0  0  0  0  0  0  0  0  0
   -2.4784   -1.6769   -0.0000 C   0  0  0  0  0  0  0  0  0  0  0  0
   -2.4784    3.0086   -0.0000 C   0  0  0  0  0  0  0  0  0  0  0  0
   -3.8471    2.2441   -0.0000 C   0  0  0  0  0  0  0  0  0  0  0  0
   -1.4057   -1.0358   -0.0000 O   0  0  0  0  0  0  0  0  0  0  0  0
   -2.4907   -3.2306   -0.0000 C   0  0  0  0  0  0  0  0  0  0  0  0
   -3.8471   -0.8878   -0.0000 C   0  0  0  0  0  0  0  0  0  0  0  0
   -2.4907    4.2787   -0.0000 F   0  0  0  0  0  0  0  0  0  0  0  0
   -3.5882   -3.8471   -0.0000 F   0  0  0  0  0  0  0  0  0  0  0  0
   -2.5031   -4.4759   -0.0000 F   0  0  0  0  0  0  0  0  0  0  0  0
   -1.1467   -3.9951   -0.0000 C   0  0  0  0  0  0  0  0  0  0  0  0
   -3.8594    0.6905   -0.0000 N   0  0  0  0  0  0  0  0  0  0  0  0
   -1.1591   -5.5487   -0.0000 N   0  0  0  0  0  0  0  0  0  0  0  0
    0.1973   -3.2059   -0.0000 C   0  0  0  0  0  0  0  0  0  0  0  0
   -2.6017    1.6030   -0.0000 N   0  0  0  0  0  0  0  0  0  0  0  0
   -5.1418    1.6030   -0.0000 C   0  0  0  0  0  0  0  0  0  0  0  0
    0.1850   -6.3132   -0.0000 C   0  0  0  0  0  0  0  0  0  0  0  0
    1.5413   -3.9704   -0.0000 C   0  0  0  0  0  0  0  0  0  0  0  0
   -3.0949    3.1073   -0.0000 N   0  0  0  0  0  0  0  0  0  0  0  0
   -4.6732    3.1073   -0.0000 N   0  0  0  0  0  0  0  0  0  0  0  0
    1.5290   -5.5240   -0.0000 C   0  0  0  0  0  0  0  0  0  0  0  0
    2.8730   -6.3009   -0.0000 C   0  0  0  0  0  0  0  0  0  0  0  0
    2.8607   -7.8545   -0.0000 C   0  0  0  0  0  0  0  0  0  0  0  0
    4.2047   -8.6313   -0.0000 C   0  0  0  0  0  0  0  0  0  0  0  0
    5.2774   -7.9901   -0.0000 O   0  0  0  0  0  0  0  0  0  0  0  0
    4.1923  -10.1849   -0.0000 O   0  0  0  0  0  0  0  0  0  0  0  0
    5.5364  -10.9618   -0.0000 C   0  0  0  0  0  0  0  0  0  0  0  0
    5.5240  -12.2071   -0.0000 C   0  0  0  0  0  0  0  0  0  0  0  0
  1  2  1  0  0  0  0
  2  3  2  0  0  0  0
  2  4  1  0  0  0  0
  3  5  1  0  0  0  0
  3  6  1  0  0  0  0
  4  7  2  0  0  0  0
  5  8  2  0  0  0  0
  6  9  1  0  0  0  0
  6 10  1  0  0  0  0
  6 11  1  0  0  0  0
  7 12  1  0  0  0  0
 10 13  1  0  0  0  0
 10 14  1  0  0  0  0
 10 15  1  0  0  0  0
 11 16  1  0  0  0  0
 15 17  2  0  0  0  0
 15 18  1  0  0  0  0
 16 19  1  0  0  0  0
 16 20  1  0  0  0  0
 17 21  1  0  0  0  0
 18 22  2  0  0  0  0
 19 23  2  0  0  0  0
 20 24  2  0  0  0  0
 21 25  2  0  0  0  0
 25 26  1  0  0  0  0
 26 27  2  0  0  0  0
 27 28  1  0  0  0  0
 28 29  2  0  0  0  0
 28 30  1  0  0  0  0
 30 31  1  0  0  0  0
 31 32  1  0  0  0  0
  7  8  1  0  0  0  0
 22 25  1  0  0  0  0
 23 24  1  0  0  0  0
M  END
>  <MolRegNo>
2100831

>  <m>
=

>  <Value>
83000

>  <Unit>
nM

>  <Type>
IC50

>  <pValue>
4.08

>  <Ligand Efficiency>
0.17

>  <Binding Efficiency>
9.04

>  <Surface Efficiency>
3.96

>  <Assay Index>
1058765

>  <Assay Category>


>  <Assay Organism>
Homo sapiens

>  <Target ID>
17045

>  <Target Name>
Cytochrome P450 3A4

>  <Target Organism>
Homo sapiens

>  <Target Description>
Target is a single protein chain

>  <Sequence Accession>
P08684

>  <Reference>


>  <Pubmed ID>


>  <DOI>


$$$$
2163872
Actelion Java MolfileCreator 1.0

 34 36  0  0  0  0  0  0  0  0999 V2000
    0.0000   -0.0000   -0.0000 F   0  0  0  0  0  0  0  0  0  0  0  0
   -0.0123    1.2711   -0.0000 C   0  0  0  0  0  0  0  0  0  0  0  0
    1.3328    2.0610   -0.0000 C   0  0  0  0  0  0  0  0  0  0  0  0
   -1.3822    2.0610   -0.0000 C   0  0  0  0  0  0  0  0  0  0  0  0
    1.3205    3.6406   -0.0000 C   0  0  0  0  0  0  0  0  0  0  0  0
    2.6780    1.2958   -0.0000 C   0  0  0  0  0  0  0  0  0  0  0  0
   -1.3945    3.6406   -0.0000 C   0  0  0  0  0  0  0  0  0  0  0  0
   -0.0494    4.4304   -0.0000 C   0  0  0  0  0  0  0  0  0  0  0  0
    2.6657    2.5669   -0.0000 O   0  0  0  0  0  0  0  0  0  0  0  0
    4.0232    0.5307   -0.0000 C   0  0  0  0  0  0  0  0  0  0  0  0
    1.3082    0.5307   -0.0000 C   0  0  0  0  0  0  0  0  0  0  0  0
   -2.4929    4.2824   -0.0000 F   0  0  0  0  0  0  0  0  0  0  0  0
    4.0108   -0.7158   -0.0000 F   0  0  0  0  0  0  0  0  0  0  0  0
    5.0969   -0.0864   -0.0000 F   0  0  0  0  0  0  0  0  0  0  0  0
    5.3684    1.3205   -0.0000 C   0  0  0  0  0  0  0  0  0  0  0  0
   -0.0617    1.3205   -0.0000 N   0  0  0  0  0  0  0  0  0  0  0  0
    5.3560    2.9002   -0.0000 N   0  0  0  0  0  0  0  0  0  0  0  0
    6.7135    0.5553   -0.0000 C   0  0  0  0  0  0  0  0  0  0  0  0
   -0.2098    2.8755   -0.0000 N   0  0  0  0  0  0  0  0  0  0  0  0
   -1.4809    0.6911   -0.0000 C   0  0  0  0  0  0  0  0  0  0  0  0
    6.7012    3.6900   -0.0000 C   0  0  0  0  0  0  0  0  0  0  0  0
    8.0587    1.3452   -0.0000 C   0  0  0  0  0  0  0  0  0  0  0  0
   -1.7524    3.2210   -0.0000 N   0  0  0  0  0  0  0  0  0  0  0  0
   -2.5423    1.8635   -0.0000 N   0  0  0  0  0  0  0  0  0  0  0  0
    8.0464    2.9248   -0.0000 C   0  0  0  0  0  0  0  0  0  0  0  0
    9.3916    3.7270   -0.0000 C   0  0  0  0  0  0  0  0  0  0  0  0
    9.3792    5.3067   -0.0000 C   0  0  0  0  0  0  0  0  0  0  0  0
   10.7244    6.1088   -0.0000 C   0  0  0  0  0  0  0  0  0  0  0  0
   10.7120    7.6885   -0.0000 O   0  0  0  0  0  0  0  0  0  0  0  0
   12.0572    8.4907   -0.0000 C   0  0  0  0  0  0  0  0  0  0  0  0
   12.0449   10.0703   -0.0000 C   0  0  0  0  0  0  0  0  0  0  0  0
   13.1186   10.7120   -0.0000 F   0  0  0  0  0  0  0  0  0  0  0  0
   10.9465   10.7120   -0.0000 F   0  0  0  0  0  0  0  0  0  0  0  0
   12.0325   11.3414   -0.0000 F   0  0  0  0  0  0  0  0  0  0  0  0
  1  2  1  0  0  0  0
  2  3  2  0  0  0  0
  2  4  1  0  0  0  0
  3  5  1  0  0  0  0
  3  6  1  0  0  0  0
  4  7  2  0  0  0  0
  5  8  2  0  0  0  0
  6  9  1  0  0  0  0
  6 10  1  0  0  0  0
  6 11  1  0  0  0  0
  7 12  1  0  0  0  0
 10 13  1  0  0  0  0
 10 14  1  0  0  0  0
 10 15  1  0  0  0  0
 11 16  1  0  0  0  0
 15 17  2  0  0  0  0
 15 18  1  0  0  0  0
 16 19  1  0  0  0  0
 16 20  1  0  0  0  0
 17 21  1  0  0  0  0
 18 22  2  0  0  0  0
 19 23  2  0  0  0  0
 20 24  2  0  0  0  0
 21 25  2  0  0  0  0
 25 26  1  0  0  0  0
 26 27  2  0  0  0  0
 27 28  1  0  0  0  0
 28 29  1  0  0  0  0
 29 30  1  0  0  0  0
 30 31  1  0  0  0  0
 31 32  1  0  0  0  0
 31 33  1  0  0  0  0
 31 34  1  0  0  0  0
  7  8  1  0  0  0  0
 22 25  1  0  0  0  0
 23 24  1  0  0  0  0
M  END
>  <MolRegNo>
2163872

>  <m>
=

>  <Value>
81000

>  <Unit>
nM

>  <Type>
IC50

>  <pValue>
4.09

>  <Ligand Efficiency>
0.16

>  <Binding Efficiency>
8.33

>  <Surface Efficiency>
4.76

>  <Assay Index>
1058765

>  <Assay Category>


>  <Assay Organism>
Homo sapiens

>  <Target ID>
17045

>  <Target Name>
Cytochrome P450 3A4

>  <Target Organism>
Homo sapiens

>  <Target Description>
Target is a single protein chain

>  <Sequence Accession>
P08684

>  <Reference>


>  <Pubmed ID>


>  <DOI>


$$$$
2128127
Actelion Java MolfileCreator 1.0

 32 35  0  0  0  0  0  0  0  0999 V2000
    0.0000   -0.0000   -0.0000 Cl  0  0  0  0  0  0  0  0  0  0  0  0
   -1.0847   -0.6094   -0.0000 C   0  0  0  0  0  0  0  0  0  0  0  0
   -2.4375    0.1706   -0.0000 N   0  0  0  0  0  0  0  0  0  0  0  0
   -1.0969   -2.1450   -0.0000 C   0  0  0  0  0  0  0  0  0  0  0  0
   -3.7903   -0.5972   -0.0000 C   0  0  0  0  0  0  0  0  0  0  0  0
   -2.4497   -2.9128   -0.0000 C   0  0  0  0  0  0  0  0  0  0  0  0
   -3.8025   -2.1328   -0.0000 C   0  0  0  0  0  0  0  0  0  0  0  0
   -5.1553   -2.9006   -0.0000 C   0  0  0  0  0  0  0  0  0  0  0  0
   -6.5081   -2.1084   -0.0000 C   0  0  0  0  0  0  0  0  0  0  0  0
   -5.1675   -4.4362   -0.0000 C   0  0  0  0  0  0  0  0  0  0  0  0
   -7.8609   -2.8641   -0.0000 N   0  0  0  0  0  0  0  0  0  0  0  0
   -6.5203   -5.1919   -0.0000 C   0  0  0  0  0  0  0  0  0  0  0  0
   -7.8731   -4.3997   -0.0000 C   0  0  0  0  0  0  0  0  0  0  0  0
   -9.2259   -5.1675   -0.0000 C   0  0  0  0  0  0  0  0  0  0  0  0
   -9.2381   -6.3984   -0.0000 F   0  0  0  0  0  0  0  0  0  0  0  0
   -8.1656   -5.7769   -0.0000 F   0  0  0  0  0  0  0  0  0  0  0  0
  -10.5787   -4.3875   -0.0000 C   0  0  0  0  0  0  0  0  0  0  0  0
  -10.5909   -3.1322   -0.0000 O   0  0  0  0  0  0  0  0  0  0  0  0
  -11.9316   -3.5953   -0.0000 C   0  0  0  0  0  0  0  0  0  0  0  0
  -11.9316   -5.1553   -0.0000 C   0  0  0  0  0  0  0  0  0  0  0  0
  -13.2844   -4.3509   -0.0000 C   0  0  0  0  0  0  0  0  0  0  0  0
  -11.9437   -2.0353   -0.0000 C   0  0  0  0  0  0  0  0  0  0  0  0
  -13.2844   -4.3753   -0.0000 N   0  0  0  0  0  0  0  0  0  0  0  0
  -13.2966   -5.5819   -0.0000 F   0  0  0  0  0  0  0  0  0  0  0  0
  -14.6372   -3.5709   -0.0000 C   0  0  0  0  0  0  0  0  0  0  0  0
  -13.2966   -1.2553   -0.0000 C   0  0  0  0  0  0  0  0  0  0  0  0
  -13.4306   -2.8397   -0.0000 N   0  0  0  0  0  0  0  0  0  0  0  0
  -14.6859   -4.9969   -0.0000 C   0  0  0  0  0  0  0  0  0  0  0  0
  -14.6494   -2.0109   -0.0000 C   0  0  0  0  0  0  0  0  0  0  0  0
  -14.9541   -2.4984   -0.0000 N   0  0  0  0  0  0  0  0  0  0  0  0
  -15.7341   -3.8269   -0.0000 N   0  0  0  0  0  0  0  0  0  0  0  0
  -15.7341   -1.3772   -0.0000 F   0  0  0  0  0  0  0  0  0  0  0  0
  1  2  1  0  0  0  0
  2  3  2  0  0  0  0
  2  4  1  0  0  0  0
  3  5  1  0  0  0  0
  4  6  2  0  0  0  0
  5  7  2  0  0  0  0
  7  8  1  0  0  0  0
  8  9  2  0  0  0  0
  8 10  1  0  0  0  0
  9 11  1  0  0  0  0
 10 12  2  0  0  0  0
 11 13  2  0  0  0  0
 13 14  1  0  0  0  0
 14 15  1  0  0  0  0
 14 16  1  0  0  0  0
 14 17  1  0  0  0  0
 17 18  1  0  0  0  0
 17 19  1  0  0  0  0
 17 20  1  0  0  0  0
 19 21  2  0  0  0  0
 19 22  1  0  0  0  0
 20 23  1  0  0  0  0
 21 24  1  0  0  0  0
 21 25  1  0  0  0  0
 22 26  2  0  0  0  0
 23 27  1  0  0  0  0
 23 28  1  0  0  0  0
 25 29  2  0  0  0  0
 27 30  2  0  0  0  0
 28 31  2  0  0  0  0
 29 32  1  0  0  0  0
  6  7  1  0  0  0  0
 12 13  1  0  0  0  0
 26 29  1  0  0  0  0
 30 31  1  0  0  0  0
M  END
>  <MolRegNo>
2128127

>  <m>
=

>  <Value>
17000

>  <Unit>
nM

>  <Type>
IC50

>  <pValue>
4.77

>  <Ligand Efficiency>
0.2

>  <Binding Efficiency>
10.26

>  <Surface Efficiency>
5.32

>  <Assay Index>
1058765

>  <Assay Category>


>  <Assay Organism>
Homo sapiens

>  <Target ID>
17045

>  <Target Name>
Cytochrome P450 3A4

>  <Target Organism>
Homo sapiens

>  <Target Description>
Target is a single protein chain

>  <Sequence Accession>
P08684

>  <Reference>


>  <Pubmed ID>


>  <DOI>


$$$$
2154693
Actelion Java MolfileCreator 1.0

 32 35  0  0  0  0  0  0  0  0999 V2000
    0.0000   -0.0000   -0.0000 F   0  0  0  0  0  0  0  0  0  0  0  0
   -1.0847   -0.6094   -0.0000 C   0  0  0  0  0  0  0  0  0  0  0  0
   -2.4375    0.1706   -0.0000 N   0  0  0  0  0  0  0  0  0  0  0  0
   -1.0969   -2.1450   -0.0000 C   0  0  0  0  0  0  0  0  0  0  0  0
   -3.7903   -0.5972   -0.0000 C   0  0  0  0  0  0  0  0  0  0  0  0
   -2.4497   -2.9128   -0.0000 C   0  0  0  0  0  0  0  0  0  0  0  0
   -3.8025   -2.1328   -0.0000 C   0  0  0  0  0  0  0  0  0  0  0  0
   -5.1553   -2.9006   -0.0000 C   0  0  0  0  0  0  0  0  0  0  0  0
   -6.5081   -2.1084   -0.0000 C   0  0  0  0  0  0  0  0  0  0  0  0
   -5.1675   -4.4362   -0.0000 C   0  0  0  0  0  0  0  0  0  0  0  0
   -7.8609   -2.8641   -0.0000 N   0  0  0  0  0  0  0  0  0  0  0  0
   -6.5203   -5.1919   -0.0000 C   0  0  0  0  0  0  0  0  0  0  0  0
   -7.8731   -4.3997   -0.0000 C   0  0  0  0  0  0  0  0  0  0  0  0
   -9.2259   -5.1675   -0.0000 C   0  0  0  0  0  0  0  0  0  0  0  0
   -9.2381   -6.3984   -0.0000 F   0  0  0  0  0  0  0  0  0  0  0  0
   -8.1656   -5.7769   -0.0000 F   0  0  0  0  0  0  0  0  0  0  0  0
  -10.5787   -4.3875   -0.0000 C   0  0  0  0  0  0  0  0  0  0  0  0
  -10.5909   -3.1322   -0.0000 O   0  0  0  0  0  0  0  0  0  0  0  0
  -11.9316   -3.5953   -0.0000 C   0  0  0  0  0  0  0  0  0  0  0  0
  -11.9316   -5.1553   -0.0000 C   0  0  0  0  0  0  0  0  0  0  0  0
  -13.2844   -4.3509   -0.0000 C   0  0  0  0  0  0  0  0  0  0  0  0
  -11.9437   -2.0353   -0.0000 C   0  0  0  0  0  0  0  0  0  0  0  0
  -13.2844   -4.3753   -0.0000 N   0  0  0  0  0  0  0  0  0  0  0  0
  -13.2966   -5.5819   -0.0000 F   0  0  0  0  0  0  0  0  0  0  0  0
  -14.6372   -3.5709   -0.0000 C   0  0  0  0  0  0  0  0  0  0  0  0
  -13.2966   -1.2553   -0.0000 C   0  0  0  0  0  0  0  0  0  0  0  0
  -13.4306   -2.8397   -0.0000 N   0  0  0  0  0  0  0  0  0  0  0  0
  -14.6859   -4.9969   -0.0000 C   0  0  0  0  0  0  0  0  0  0  0  0
  -14.6494   -2.0109   -0.0000 C   0  0  0  0  0  0  0  0  0  0  0  0
  -14.9541   -2.4984   -0.0000 N   0  0  0  0  0  0  0  0  0  0  0  0
  -15.7341   -3.8269   -0.0000 N   0  0  0  0  0  0  0  0  0  0  0  0
  -15.7341   -1.3772   -0.0000 F   0  0  0  0  0  0  0  0  0  0  0  0
  1  2  1  0  0  0  0
  2  3  2  0  0  0  0
  2  4  1  0  0  0  0
  3  5  1  0  0  0  0
  4  6  2  0  0  0  0
  5  7  2  0  0  0  0
  7  8  1  0  0  0  0
  8  9  2  0  0  0  0
  8 10  1  0  0  0  0
  9 11  1  0  0  0  0
 10 12  2  0  0  0  0
 11 13  2  0  0  0  0
 13 14  1  0  0  0  0
 14 15  1  0  0  0  0
 14 16  1  0  0  0  0
 14 17  1  0  0  0  0
 17 18  1  0  0  0  0
 17 19  1  0  0  0  0
 17 20  1  0  0  0  0
 19 21  2  0  0  0  0
 19 22  1  0  0  0  0
 20 23  1  0  0  0  0
 21 24  1  0  0  0  0
 21 25  1  0  0  0  0
 22 26  2  0  0  0  0
 23 27  1  0  0  0  0
 23 28  1  0  0  0  0
 25 29  2  0  0  0  0
 27 30  2  0  0  0  0
 28 31  2  0  0  0  0
 29 32  1  0  0  0  0
  6  7  1  0  0  0  0
 12 13  1  0  0  0  0
 26 29  1  0  0  0  0
 30 31  1  0  0  0  0
M  END
>  <MolRegNo>
2154693

>  <m>
=

>  <Value>
33000

>  <Unit>
nM

>  <Type>
IC50

>  <pValue>
4.48

>  <Ligand Efficiency>
0.19

>  <Binding Efficiency>
10

>  <Surface Efficiency>
5

>  <Assay Index>
1058765

>  <Assay Category>


>  <Assay Organism>
Homo sapiens

>  <Target ID>
17045

>  <Target Name>
Cytochrome P450 3A4

>  <Target Organism>
Homo sapiens

>  <Target Description>
Target is a single protein chain

>  <Sequence Accession>
P08684

>  <Reference>


>  <Pubmed ID>


>  <DOI>


$$$$
2178985
Actelion Java MolfileCreator 1.0

 28 31  0  0  1  0  0  0  0  0999 V2000
    0.0000   -0.0000   -0.0000 Cl  0  0  0  0  0  0  0  0  0  0  0  0
    1.0649    0.6365   -0.0000 C   0  0  0  0  0  0  0  0  0  0  0  0
    2.3991   -0.1224   -0.0000 C   0  0  0  0  0  0  0  0  0  0  0  0
    1.0527    2.2032   -0.0000 C   0  0  0  0  0  0  0  0  0  0  0  0
    3.7332    0.6610   -0.0000 N   0  0  0  0  0  0  0  0  0  0  0  0
    2.3868    2.9866   -0.0000 C   0  0  0  0  0  0  0  0  0  0  0  0
    3.7210    2.2277   -0.0000 C   0  0  0  0  0  0  0  0  0  0  0  0
    2.3746    4.5533   -0.0000 C   0  0  0  0  0  0  0  0  0  0  0  0
    5.0552    3.0111   -0.0000 C   0  0  0  0  0  0  0  0  0  0  0  0
    3.7088    5.3367   -0.0000 C   0  0  0  0  0  0  0  0  0  0  0  0
    6.3893    2.2522   -0.0000 N   0  0  0  0  0  0  0  0  0  0  0  0
    5.0429    4.5778   -0.0000 C   0  0  0  0  0  0  0  0  0  0  0  0
    3.6965    6.5974   -0.0000 Cl  0  0  0  0  0  0  0  0  0  0  0  0
    7.7235    3.0478   -0.0000 C   0  0  0  0  0  0  0  0  0  0  0  0
    9.0577    2.2889   -0.0000 C   0  0  0  0  0  0  0  0  0  0  0  0
    7.7113    4.6145   -0.0000 C   0  0  0  0  0  0  0  0  0  0  0  0
   10.3919    3.0845   -0.0000 C   0  0  0  0  0  0  0  0  0  0  0  0
    9.0454    5.4101   -0.0000 C   0  0  0  0  0  0  0  0  0  0  0  0
   10.3796    4.6512   -0.0000 C   0  0  0  0  0  0  0  0  0  0  0  0
   11.7260    2.3256   -0.0000 C   0  0  0  0  0  0  0  0  0  0  0  0
   11.4445    5.2877   -0.0000 F   0  0  0  0  0  0  0  0  0  0  0  0
   11.6771    3.8679   -0.0000 N   0  0  0  0  0  0  0  0  0  0  0  0
   13.0235    1.5423   -0.0000 C   0  0  0  0  0  0  0  0  0  0  0  0
   11.7138    1.0894   -0.0000 C   0  0  0  0  0  0  0  0  0  0  0  0
   13.0112    4.6635   -0.0000 C   0  0  0  0  0  0  0  0  0  0  0  0
   14.3577    2.3379   -0.0000 O   0  0  0  0  0  0  0  0  0  0  0  0
   12.9990    5.9242   -0.0000 N   0  0  0  0  0  0  0  0  0  0  0  0
   14.3454    3.9046   -0.0000 C   0  0  0  0  0  0  0  0  0  0  0  0
  1  2  1  0  0  0  0
  2  3  1  0  0  0  0
  2  4  2  0  0  0  0
  3  5  2  0  0  0  0
  4  6  1  0  0  0  0
  5  7  1  0  0  0  0
  6  8  2  0  0  0  0
  7  9  2  0  0  0  0
  8 10  1  0  0  0  0
  9 11  1  0  0  0  0
  9 12  1  0  0  0  0
 10 13  1  0  0  0  0
 11 14  1  0  0  0  0
 14 15  2  0  0  0  0
 14 16  1  0  0  0  0
 15 17  1  0  0  0  0
 16 18  2  0  0  0  0
 17 19  2  0  0  0  0
 20 17  1  1  0  0  0
 19 21  1  0  0  0  0
 20 22  1  0  0  0  0
 20 23  1  0  0  0  0
 20 24  1  0  0  0  0
 22 25  2  0  0  0  0
 23 26  1  0  0  0  0
 25 27  1  0  0  0  0
 25 28  1  0  0  0  0
  6  7  1  0  0  0  0
 10 12  2  0  0  0  0
 18 19  1  0  0  0  0
 26 28  1  0  0  0  0
M  END
>  <MolRegNo>
2178985

>  <m>
=

>  <Value>
33000

>  <Unit>
nM

>  <Type>
IC50

>  <pValue>
4.48

>  <Ligand Efficiency>
0.22

>  <Binding Efficiency>
10.69

>  <Surface Efficiency>
6.18

>  <Assay Index>
1058876

>  <Assay Category>


>  <Assay Organism>
Homo sapiens

>  <Target ID>
17045

>  <Target Name>
Cytochrome P450 3A4

>  <Target Organism>
Homo sapiens

>  <Target Description>
Target is a single protein chain

>  <Sequence Accession>
P08684

>  <Reference>


>  <Pubmed ID>


>  <DOI>


$$$$
2250705
Actelion Java MolfileCreator 1.0

 27 30  0  0  1  0  0  0  0  0999 V2000
    0.0000   -0.0000   -0.0000 Cl  0  0  0  0  0  0  0  0  0  0  0  0
    1.0716   -0.6159   -0.0000 C   0  0  0  0  0  0  0  0  0  0  0  0
    1.0593   -2.1679   -0.0000 C   0  0  0  0  0  0  0  0  0  0  0  0
    2.4143    0.1724   -0.0000 C   0  0  0  0  0  0  0  0  0  0  0  0
    2.4020   -2.9439   -0.0000 C   0  0  0  0  0  0  0  0  0  0  0  0
    3.7569   -0.6036   -0.0000 C   0  0  0  0  0  0  0  0  0  0  0  0
    2.7099   -4.4590   -0.0000 N   0  0  0  0  0  0  0  0  0  0  0  0
    3.7446   -2.1556   -0.0000 C   0  0  0  0  0  0  0  0  0  0  0  0
    4.2496   -4.6068   -0.0000 N   0  0  0  0  0  0  0  0  0  0  0  0
    1.8600   -5.3705   -0.0000 C   0  0  0  0  0  0  0  0  0  0  0  0
    4.8901   -3.1903   -0.0000 C   0  0  0  0  0  0  0  0  0  0  0  0
    6.4052   -2.8577   -0.0000 N   0  0  0  0  0  0  0  0  0  0  0  0
    7.4399   -4.0156   -0.0000 C   0  0  0  0  0  0  0  0  0  0  0  0
    6.9349   -5.4937   -0.0000 C   0  0  0  0  0  0  0  0  0  0  0  0
    8.9550   -3.6830   -0.0000 C   0  0  0  0  0  0  0  0  0  0  0  0
    7.9696   -6.6516   -0.0000 C   0  0  0  0  0  0  0  0  0  0  0  0
    9.9897   -4.8409   -0.0000 C   0  0  0  0  0  0  0  0  0  0  0  0
    9.4847   -6.3190   -0.0000 C   0  0  0  0  0  0  0  0  0  0  0  0
    7.4645   -8.1297   -0.0000 C   0  0  0  0  0  0  0  0  0  0  0  0
   10.3099   -7.2428   -0.0000 F   0  0  0  0  0  0  0  0  0  0  0  0
    6.9349   -9.5709   -0.0000 N   0  0  0  0  0  0  0  0  0  0  0  0
    8.9550   -7.7725   -0.0000 C   0  0  0  0  0  0  0  0  0  0  0  0
    6.2328   -8.3761   -0.0000 C   0  0  0  0  0  0  0  0  0  0  0  0
    7.9696  -10.7287   -0.0000 C   0  0  0  0  0  0  0  0  0  0  0  0
    9.9897   -8.9304   -0.0000 O   0  0  0  0  0  0  0  0  0  0  0  0
    7.5631  -11.8989   -0.0000 N   0  0  0  0  0  0  0  0  0  0  0  0
    9.4847  -10.3962   -0.0000 C   0  0  0  0  0  0  0  0  0  0  0  0
  1  2  1  0  0  0  0
  2  3  2  0  0  0  0
  2  4  1  0  0  0  0
  3  5  1  0  0  0  0
  4  6  2  0  0  0  0
  5  7  1  0  0  0  0
  5  8  2  0  0  0  0
  7  9  1  0  0  0  0
  7 10  1  0  0  0  0
  8 11  1  0  0  0  0
 11 12  1  0  0  0  0
 12 13  1  0  0  0  0
 13 14  2  0  0  0  0
 13 15  1  0  0  0  0
 14 16  1  0  0  0  0
 15 17  2  0  0  0  0
 16 18  2  0  0  0  0
 19 16  1  1  0  0  0
 18 20  1  0  0  0  0
 19 21  1  0  0  0  0
 19 22  1  0  0  0  0
 19 23  1  0  0  0  0
 21 24  2  0  0  0  0
 22 25  1  0  0  0  0
 24 26  1  0  0  0  0
 24 27  1  0  0  0  0
  6  8  1  0  0  0  0
  9 11  2  0  0  0  0
 17 18  1  0  0  0  0
 25 27  1  0  0  0  0
M  END
>  <MolRegNo>
2250705

>  <m>
=

>  <Value>
25000

>  <Unit>
nM

>  <Type>
IC50

>  <pValue>
4.6

>  <Ligand Efficiency>
0.23

>  <Binding Efficiency>
11.87

>  <Surface Efficiency>
5.94

>  <Assay Index>
1058876

>  <Assay Category>


>  <Assay Organism>
Homo sapiens

>  <Target ID>
17045

>  <Target Name>
Cytochrome P450 3A4

>  <Target Organism>
Homo sapiens

>  <Target Description>
Target is a single protein chain

>  <Sequence Accession>
P08684

>  <Reference>


>  <Pubmed ID>


>  <DOI>


$$$$
2247175
Actelion Java MolfileCreator 1.0

 48 48  0  0  1  0  0  0  0  0999 V2000
    0.0000   -0.0000   -0.0000 F   0  0  0  0  0  0  0  0  0  0  0  0
    1.0736    0.6417   -0.0000 C   0  0  0  0  0  0  0  0  0  0  0  0
    1.0613   -0.6047   -0.0000 F   0  0  0  0  0  0  0  0  0  0  0  0
    1.0613    2.2212   -0.0000 C   0  0  0  0  0  0  0  0  0  0  0  0
    2.4187   -0.1357   -0.0000 C   0  0  0  0  0  0  0  0  0  0  0  0
   -0.3085    3.0233   -0.0000 C   0  0  0  0  0  0  0  0  0  0  0  0
    2.4063   -1.6906   -0.0000 C   0  0  0  0  0  0  0  0  0  0  0  0
   -0.3208    4.6029   -0.0000 C   0  0  0  0  0  0  0  0  0  0  0  0
    3.7514   -2.4680   -0.0000 C   0  0  0  0  0  0  0  0  0  0  0  0
   -1.6906    5.4050   -0.0000 C   0  0  0  0  0  0  0  0  0  0  0  0
    3.7391   -4.0229   -0.0000 C   0  0  0  0  0  0  0  0  0  0  0  0
   -1.7029    6.9845   -0.0000 C   0  0  0  0  0  0  0  0  0  0  0  0
    5.0842   -4.8003   -0.0000 C   0  0  0  0  0  0  0  0  0  0  0  0
   -3.0727    7.7867   -0.0000 C   0  0  0  0  0  0  0  0  0  0  0  0
    5.0718   -6.3552   -0.0000 C   0  0  0  0  0  0  0  0  0  0  0  0
   -3.0850    9.3662   -0.0000 C   0  0  0  0  0  0  0  0  0  0  0  0
    6.1454   -6.9722   -0.0000 C   0  0  0  0  0  0  0  0  0  0  0  0
   -4.4548   10.1683   -0.0000 C   0  0  0  0  0  0  0  0  0  0  0  0
   -4.4671   11.7479   -0.0000 C   0  0  0  0  0  0  0  0  0  0  0  0
   -3.1221   12.5376   -0.0000 C   0  0  0  0  0  0  0  0  0  0  0  0
   -5.8369   12.5500   -0.0000 C   0  0  0  0  0  0  0  0  0  0  0  0
   -3.1344   11.2913   -0.0000 O   0  0  0  0  0  0  0  0  0  0  0  0
   -3.1344   14.1172   -0.0000 C   0  0  0  0  0  0  0  0  0  0  0  0
   -1.7770   11.7602   -0.0000 C   0  0  0  0  0  0  0  0  0  0  0  0
   -6.9352   11.9330   -0.0000 O   0  0  0  0  0  0  0  0  0  0  0  0
   -5.8492   14.1295   -0.0000 N   0  0  0  0  0  0  0  0  0  0  0  0
   -4.2327   14.7589   -0.0000 O   0  0  0  0  0  0  0  0  0  0  0  0
   -2.0608   14.7465   -0.0000 O   0  0  0  0  0  0  0  0  0  0  0  0
   -1.7893   10.2053   -0.0000 C   0  0  0  0  0  0  0  0  0  0  0  0
   -7.2190   14.9316   -0.0000 C   0  0  0  0  0  0  0  0  0  0  0  0
   -0.4442    9.4279   -0.0000 O   0  0  0  0  0  0  0  0  0  0  0  0
   -8.5888   14.1665   -0.0000 C   0  0  0  0  0  0  0  0  0  0  0  0
   -7.2313   16.5112   -0.0000 C   0  0  0  0  0  0  0  0  0  0  0  0
   -0.4566    8.1815   -0.0000 C   0  0  0  0  0  0  0  0  0  0  0  0
   -8.6011   12.9202   -0.0000 O   0  0  0  0  0  0  0  0  0  0  0  0
   -9.9585   14.9686   -0.0000 O   0  0  0  0  0  0  0  0  0  0  0  0
   -8.6011   17.3133   -0.0000 C   0  0  0  0  0  0  0  0  0  0  0  0
  -11.0568   14.3640   -0.0000 C   0  0  0  0  0  0  0  0  0  0  0  0
   -8.6134   18.8928   -0.0000 C   0  0  0  0  0  0  0  0  0  0  0  0
   -9.9709   16.5482   -0.0000 C   0  0  0  0  0  0  0  0  0  0  0  0
   -9.9832   19.6826   -0.0000 C   0  0  0  0  0  0  0  0  0  0  0  0
  -11.3406   17.3380   -0.0000 C   0  0  0  0  0  0  0  0  0  0  0  0
  -11.3530   18.9175   -0.0000 C   0  0  0  0  0  0  0  0  0  0  0  0
  -12.7227   19.7073   -0.0000 O   0  0  0  0  0  0  0  0  0  0  0  0
  -14.0925   18.9298   -0.0000 C   0  0  0  0  0  0  0  0  0  0  0  0
  -15.4623   19.7196   -0.0000 C   0  0  0  0  0  0  0  0  0  0  0  0
  -16.8320   18.9422   -0.0000 C   0  0  0  0  0  0  0  0  0  0  0  0
  -17.9303   19.5839   -0.0000 C   0  0  0  0  0  0  0  0  0  0  0  0
  1  2  1  0  0  0  0
  2  3  1  0  0  0  0
  2  4  1  0  0  0  0
  2  5  1  0  0  0  0
  4  6  1  0  0  0  0
  5  7  1  0  0  0  0
  6  8  1  0  0  0  0
  7  9  1  0  0  0  0
  8 10  1  0  0  0  0
  9 11  1  0  0  0  0
 10 12  1  0  0  0  0
 11 13  1  0  0  0  0
 12 14  1  0  0  0  0
 13 15  1  0  0  0  0
 14 16  1  0  0  0  0
 15 17  1  0  0  0  0
 16 18  2  0  0  0  0
 19 18  1  6  0  0  0
 19 20  1  0  0  0  0
 19 21  1  0  0  0  0
 20 22  1  1  0  0  0
 20 23  1  0  0  0  0
 20 24  1  0  0  0  0
 21 25  1  0  0  0  0
 21 26  1  0  0  0  0
 23 27  2  0  0  0  0
 23 28  1  0  0  0  0
 24 29  1  0  0  0  0
 30 26  1  6  0  0  0
 29 31  1  0  0  0  0
 30 32  1  0  0  0  0
 30 33  1  0  0  0  0
 31 34  1  0  0  0  0
 32 35  2  0  0  0  0
 32 36  1  0  0  0  0
 33 37  1  0  0  0  0
 36 38  1  0  0  0  0
 37 39  2  0  0  0  0
 37 40  1  0  0  0  0
 39 41  1  0  0  0  0
 40 42  2  0  0  0  0
 41 43  2  0  0  0  0
 43 44  1  0  0  0  0
 44 45  1  0  0  0  0
 45 46  1  0  0  0  0
 46 47  1  0  0  0  0
 47 48  1  0  0  0  0
 42 43  1  0  0  0  0
M  END
>  <MolRegNo>
2247175

>  <m>
=

>  <Value>
23800

>  <Unit>
nM

>  <Type>
IC50

>  <pValue>
4.62

>  <Ligand Efficiency>
0.13

>  <Binding Efficiency>
6.74

>  <Surface Efficiency>
3.44

>  <Assay Index>
1059019

>  <Assay Category>


>  <Assay Organism>
Homo sapiens

>  <Target ID>
17045

>  <Target Name>
Cytochrome P450 3A4

>  <Target Organism>
Homo sapiens

>  <Target Description>
Target is a single protein chain

>  <Sequence Accession>
P08684

>  <Reference>


>  <Pubmed ID>


>  <DOI>


$$$$
2245997
Actelion Java MolfileCreator 1.0

 47 47  0  0  1  0  0  0  0  0999 V2000
    0.0000   -0.0000   -0.0000 F   0  0  0  0  0  0  0  0  0  0  0  0
    1.0746    0.6423   -0.0000 C   0  0  0  0  0  0  0  0  0  0  0  0
    1.0623   -0.6053   -0.0000 F   0  0  0  0  0  0  0  0  0  0  0  0
    1.0623    2.2234   -0.0000 C   0  0  0  0  0  0  0  0  0  0  0  0
    2.4210   -0.1359   -0.0000 C   0  0  0  0  0  0  0  0  0  0  0  0
   -0.3088    3.0263   -0.0000 C   0  0  0  0  0  0  0  0  0  0  0  0
    2.4087   -1.6923   -0.0000 C   0  0  0  0  0  0  0  0  0  0  0  0
   -0.3212    4.6074   -0.0000 C   0  0  0  0  0  0  0  0  0  0  0  0
    3.7551   -2.4705   -0.0000 C   0  0  0  0  0  0  0  0  0  0  0  0
   -1.6923    5.4103   -0.0000 C   0  0  0  0  0  0  0  0  0  0  0  0
    3.7427   -4.0268   -0.0000 C   0  0  0  0  0  0  0  0  0  0  0  0
   -1.7046    6.9914   -0.0000 C   0  0  0  0  0  0  0  0  0  0  0  0
    5.0891   -4.8050   -0.0000 C   0  0  0  0  0  0  0  0  0  0  0  0
   -3.0757    7.7943   -0.0000 C   0  0  0  0  0  0  0  0  0  0  0  0
    5.0768   -6.3614   -0.0000 C   0  0  0  0  0  0  0  0  0  0  0  0
   -3.0881    9.3754   -0.0000 C   0  0  0  0  0  0  0  0  0  0  0  0
    6.1514   -6.9790   -0.0000 C   0  0  0  0  0  0  0  0  0  0  0  0
   -4.4592   10.1783   -0.0000 C   0  0  0  0  0  0  0  0  0  0  0  0
   -4.4715   11.7594   -0.0000 C   0  0  0  0  0  0  0  0  0  0  0  0
   -3.1251   12.5499   -0.0000 C   0  0  0  0  0  0  0  0  0  0  0  0
   -5.8426   12.5623   -0.0000 C   0  0  0  0  0  0  0  0  0  0  0  0
   -3.1375   11.3023   -0.0000 O   0  0  0  0  0  0  0  0  0  0  0  0
   -3.1375   14.1310   -0.0000 C   0  0  0  0  0  0  0  0  0  0  0  0
   -1.7787   11.7717   -0.0000 C   0  0  0  0  0  0  0  0  0  0  0  0
   -6.9420   11.9447   -0.0000 O   0  0  0  0  0  0  0  0  0  0  0  0
   -5.8550   14.1434   -0.0000 N   0  0  0  0  0  0  0  0  0  0  0  0
   -4.2368   14.7733   -0.0000 O   0  0  0  0  0  0  0  0  0  0  0  0
   -2.0628   14.7610   -0.0000 O   0  0  0  0  0  0  0  0  0  0  0  0
   -1.7911   10.2153   -0.0000 C   0  0  0  0  0  0  0  0  0  0  0  0
   -7.2261   14.9463   -0.0000 C   0  0  0  0  0  0  0  0  0  0  0  0
   -0.4447    9.4371   -0.0000 O   0  0  0  0  0  0  0  0  0  0  0  0
   -8.5972   14.1804   -0.0000 C   0  0  0  0  0  0  0  0  0  0  0  0
   -7.2384   16.5274   -0.0000 C   0  0  0  0  0  0  0  0  0  0  0  0
   -0.4570    8.1896   -0.0000 C   0  0  0  0  0  0  0  0  0  0  0  0
   -9.6965   14.8227   -0.0000 O   0  0  0  0  0  0  0  0  0  0  0  0
   -8.6095   12.9328   -0.0000 O   0  0  0  0  0  0  0  0  0  0  0  0
   -8.6095   17.3303   -0.0000 C   0  0  0  0  0  0  0  0  0  0  0  0
   -8.6219   18.9114   -0.0000 C   0  0  0  0  0  0  0  0  0  0  0  0
   -9.9806   16.5644   -0.0000 C   0  0  0  0  0  0  0  0  0  0  0  0
   -9.9930   19.7019   -0.0000 C   0  0  0  0  0  0  0  0  0  0  0  0
  -11.3518   17.3550   -0.0000 C   0  0  0  0  0  0  0  0  0  0  0  0
  -11.3641   18.9361   -0.0000 C   0  0  0  0  0  0  0  0  0  0  0  0
  -12.7352   19.7266   -0.0000 O   0  0  0  0  0  0  0  0  0  0  0  0
  -14.1063   18.9484   -0.0000 C   0  0  0  0  0  0  0  0  0  0  0  0
  -15.4774   19.7390   -0.0000 C   0  0  0  0  0  0  0  0  0  0  0  0
  -16.8485   18.9608   -0.0000 C   0  0  0  0  0  0  0  0  0  0  0  0
  -17.9479   19.6031   -0.0000 C   0  0  0  0  0  0  0  0  0  0  0  0
  1  2  1  0  0  0  0
  2  3  1  0  0  0  0
  2  4  1  0  0  0  0
  2  5  1  0  0  0  0
  4  6  1  0  0  0  0
  5  7  1  0  0  0  0
  6  8  1  0  0  0  0
  7  9  1  0  0  0  0
  8 10  1  0  0  0  0
  9 11  1  0  0  0  0
 10 12  1  0  0  0  0
 11 13  1  0  0  0  0
 12 14  1  0  0  0  0
 13 15  1  0  0  0  0
 14 16  1  0  0  0  0
 15 17  1  0  0  0  0
 16 18  2  0  0  0  0
 19 18  1  6  0  0  0
 19 20  1  0  0  0  0
 19 21  1  0  0  0  0
 20 22  1  1  0  0  0
 20 23  1  0  0  0  0
 20 24  1  0  0  0  0
 21 25  1  0  0  0  0
 21 26  1  0  0  0  0
 23 27  2  0  0  0  0
 23 28  1  0  0  0  0
 24 29  1  0  0  0  0
 30 26  1  6  0  0  0
 29 31  1  0  0  0  0
 30 32  1  0  0  0  0
 30 33  1  0  0  0  0
 31 34  1  0  0  0  0
 32 35  2  0  0  0  0
 32 36  1  0  0  0  0
 33 37  1  0  0  0  0
 37 38  2  0  0  0  0
 37 39  1  0  0  0  0
 38 40  1  0  0  0  0
 39 41  2  0  0  0  0
 40 42  2  0  0  0  0
 42 43  1  0  0  0  0
 43 44  1  0  0  0  0
 44 45  1  0  0  0  0
 45 46  1  0  0  0  0
 46 47  1  0  0  0  0
 41 42  1  0  0  0  0
M  END
>  <MolRegNo>
2245997

>  <m>
=

>  <Value>
16200

>  <Unit>
nM

>  <Type>
IC50

>  <pValue>
4.79

>  <Ligand Efficiency>
0.14

>  <Binding Efficiency>
7.13

>  <Surface Efficiency>
3.29

>  <Assay Index>
1059019

>  <Assay Category>


>  <Assay Organism>
Homo sapiens

>  <Target ID>
17045

>  <Target Name>
Cytochrome P450 3A4

>  <Target Organism>
Homo sapiens

>  <Target Description>
Target is a single protein chain

>  <Sequence Accession>
P08684

>  <Reference>


>  <Pubmed ID>


>  <DOI>


$$$$
1927090
Actelion Java MolfileCreator 1.0

 26 29  0  0  0  0  0  0  0  0999 V2000
    0.0000   -0.0000   -0.0000 F   0  0  0  0  0  0  0  0  0  0  0  0
    0.7498    1.3092   -0.0000 C   0  0  0  0  0  0  0  0  0  0  0  0
   -0.0238    2.6303   -0.0000 C   0  0  0  0  0  0  0  0  0  0  0  0
    2.2375    1.3211   -0.0000 C   0  0  0  0  0  0  0  0  0  0  0  0
    0.7260    3.9513   -0.0000 C   0  0  0  0  0  0  0  0  0  0  0  0
    2.9754    2.6422   -0.0000 C   0  0  0  0  0  0  0  0  0  0  0  0
    2.2137    3.9632   -0.0000 C   0  0  0  0  0  0  0  0  0  0  0  0
    2.9516    5.2724   -0.0000 C   0  0  0  0  0  0  0  0  0  0  0  0
    1.6305    6.0460   -0.0000 O   0  0  0  0  0  0  0  0  0  0  0  0
    4.2370    4.5345   -0.0000 C   0  0  0  0  0  0  0  0  0  0  0  0
    4.2251    3.0349   -0.0000 N   0  0  0  0  0  0  0  0  0  0  0  0
    5.5342    5.2962   -0.0000 N   0  0  0  0  0  0  0  0  0  0  0  0
    5.5223    2.2970   -0.0000 C   0  0  0  0  0  0  0  0  0  0  0  0
    6.8315    4.5583   -0.0000 C   0  0  0  0  0  0  0  0  0  0  0  0
    5.5104    0.7974   -0.0000 N   0  0  0  0  0  0  0  0  0  0  0  0
    6.8196    3.0587   -0.0000 C   0  0  0  0  0  0  0  0  0  0  0  0
    8.1288    5.3200   -0.0000 C   0  0  0  0  0  0  0  0  0  0  0  0
    6.8077    0.0595   -0.0000 C   0  0  0  0  0  0  0  0  0  0  0  0
    8.1169    2.3208   -0.0000 C   0  0  0  0  0  0  0  0  0  0  0  0
    9.4142    4.5821   -0.0000 C   0  0  0  0  0  0  0  0  0  0  0  0
    6.9505   -1.4282   -0.0000 N   0  0  0  0  0  0  0  0  0  0  0  0
    8.1645    0.6784   -0.0000 C   0  0  0  0  0  0  0  0  0  0  0  0
    9.4023    3.0825   -0.0000 C   0  0  0  0  0  0  0  0  0  0  0  0
    8.4144   -1.7257   -0.0000 N   0  0  0  0  0  0  0  0  0  0  0  0
    9.1523   -0.4166   -0.0000 C   0  0  0  0  0  0  0  0  0  0  0  0
   10.6400   -0.2499   -0.0000 C   0  0  0  0  0  0  0  0  0  0  0  0
  1  2  1  0  0  0  0
  2  3  2  0  0  0  0
  2  4  1  0  0  0  0
  3  5  1  0  0  0  0
  4  6  2  0  0  0  0
  5  7  2  0  0  0  0
  7  8  1  0  0  0  0
  8  9  1  0  0  0  0
  8 10  1  0  0  0  0
 10 11  1  0  0  0  0
 10 12  2  0  0  0  0
 11 13  2  0  0  0  0
 12 14  1  0  0  0  0
 13 15  1  0  0  0  0
 13 16  1  0  0  0  0
 14 17  2  0  0  0  0
 15 18  1  0  0  0  0
 16 19  2  0  0  0  0
 17 20  1  0  0  0  0
 18 21  2  0  0  0  0
 18 22  1  0  0  0  0
 19 23  1  0  0  0  0
 21 24  1  0  0  0  0
 22 25  2  0  0  0  0
 25 26  1  0  0  0  0
  6  7  1  0  0  0  0
 14 16  1  0  0  0  0
 20 23  2  0  0  0  0
 24 25  1  0  0  0  0
M  END
>  <MolRegNo>
1927090

>  <m>
=

>  <Value>
10900

>  <Unit>
nM

>  <Type>
IC50

>  <pValue>
4.96

>  <Ligand Efficiency>
0.26

>  <Binding Efficiency>
14.2

>  <Surface Efficiency>
5.72

>  <Assay Index>
1059171

>  <Assay Category>


>  <Assay Organism>
Homo sapiens

>  <Target ID>
17045

>  <Target Name>
Cytochrome P450 3A4

>  <Target Organism>
Homo sapiens

>  <Target Description>
Target is a single protein chain

>  <Sequence Accession>
P08684

>  <Reference>


>  <Pubmed ID>


>  <DOI>


$$$$
2149171
Actelion Java MolfileCreator 1.0

 26 29  0  0  1  0  0  0  0  0999 V2000
    0.0000   -0.0000   -0.0000 F   0  0  0  0  0  0  0  0  0  0  0  0
   -1.0770   -0.6051   -0.0000 C   0  0  0  0  0  0  0  0  0  0  0  0
   -2.4202    0.1694   -0.0000 C   0  0  0  0  0  0  0  0  0  0  0  0
   -1.0891   -2.1298   -0.0000 C   0  0  0  0  0  0  0  0  0  0  0  0
   -3.7634   -0.5808   -0.0000 C   0  0  0  0  0  0  0  0  0  0  0  0
   -2.4323   -2.8800   -0.0000 C   0  0  0  0  0  0  0  0  0  0  0  0
   -3.7755   -2.1056   -0.0000 C   0  0  0  0  0  0  0  0  0  0  0  0
   -5.1187   -2.8679   -0.0000 C   0  0  0  0  0  0  0  0  0  0  0  0
   -6.1957   -2.2387   -0.0000 O   0  0  0  0  0  0  0  0  0  0  0  0
   -5.1308   -4.3927   -0.0000 C   0  0  0  0  0  0  0  0  0  0  0  0
   -3.8118   -5.1429   -0.0000 N   0  0  0  0  0  0  0  0  0  0  0  0
   -6.4740   -5.1429   -0.0000 N   0  0  0  0  0  0  0  0  0  0  0  0
   -3.8239   -6.6677   -0.0000 C   0  0  0  0  0  0  0  0  0  0  0  0
   -6.4861   -6.6677   -0.0000 C   0  0  0  0  0  0  0  0  0  0  0  0
   -2.5049   -7.4179   -0.0000 N   0  0  0  0  0  0  0  0  0  0  0  0
   -5.1671   -7.4179   -0.0000 C   0  0  0  0  0  0  0  0  0  0  0  0
   -7.8294   -7.4179   -0.0000 C   0  0  0  0  0  0  0  0  0  0  0  0
   -1.1859   -6.6314   -0.0000 C   0  0  0  0  0  0  0  0  0  0  0  0
   -5.1792   -8.9426   -0.0000 C   0  0  0  0  0  0  0  0  0  0  0  0
   -7.8415   -8.9426   -0.0000 C   0  0  0  0  0  0  0  0  0  0  0  0
   -1.0649   -5.1066   -0.0000 N   0  0  0  0  0  0  0  0  0  0  0  0
    0.1936   -7.2485   -0.0000 C   0  0  0  0  0  0  0  0  0  0  0  0
   -6.5224   -9.6929   -0.0000 C   0  0  0  0  0  0  0  0  0  0  0  0
    0.4235   -4.7678   -0.0000 N   0  0  0  0  0  0  0  0  0  0  0  0
    1.2101   -6.0868   -0.0000 C   0  0  0  0  0  0  0  0  0  0  0  0
    2.4202   -6.1957   -0.0000 C   0  0  0  0  0  0  0  0  0  0  0  0
  1  2  1  0  0  0  0
  2  3  2  0  0  0  0
  2  4  1  0  0  0  0
  3  5  1  0  0  0  0
  4  6  2  0  0  0  0
  5  7  2  0  0  0  0
  7  8  1  0  0  0  0
  8  9  1  1  0  0  0
  8 10  1  0  0  0  0
 10 11  1  0  0  0  0
 10 12  2  0  0  0  0
 11 13  2  0  0  0  0
 12 14  1  0  0  0  0
 13 15  1  0  0  0  0
 13 16  1  0  0  0  0
 14 17  2  0  0  0  0
 15 18  1  0  0  0  0
 16 19  2  0  0  0  0
 17 20  1  0  0  0  0
 18 21  2  0  0  0  0
 18 22  1  0  0  0  0
 19 23  1  0  0  0  0
 21 24  1  0  0  0  0
 22 25  2  0  0  0  0
 25 26  1  0  0  0  0
  6  7  1  0  0  0  0
 14 16  1  0  0  0  0
 20 23  2  0  0  0  0
 24 25  1  0  0  0  0
M  END
>  <MolRegNo>
2149171

>  <m>
=

>  <Value>
10500

>  <Unit>
nM

>  <Type>
IC50

>  <pValue>
4.98

>  <Ligand Efficiency>
0.26

>  <Binding Efficiency>
14.25

>  <Surface Efficiency>
5.74

>  <Assay Index>
1059171

>  <Assay Category>


>  <Assay Organism>
Homo sapiens

>  <Target ID>
17045

>  <Target Name>
Cytochrome P450 3A4

>  <Target Organism>
Homo sapiens

>  <Target Description>
Target is a single protein chain

>  <Sequence Accession>
P08684

>  <Reference>


>  <Pubmed ID>


>  <DOI>


$$$$
2171640
Actelion Java MolfileCreator 1.0

 26 29  0  0  1  0  0  0  0  0999 V2000
    0.0000   -0.0000   -0.0000 F   0  0  0  0  0  0  0  0  0  0  0  0
   -1.0770   -0.6051   -0.0000 C   0  0  0  0  0  0  0  0  0  0  0  0
   -2.4202    0.1694   -0.0000 C   0  0  0  0  0  0  0  0  0  0  0  0
   -1.0891   -2.1298   -0.0000 C   0  0  0  0  0  0  0  0  0  0  0  0
   -3.7634   -0.5808   -0.0000 C   0  0  0  0  0  0  0  0  0  0  0  0
   -2.4323   -2.8800   -0.0000 C   0  0  0  0  0  0  0  0  0  0  0  0
   -3.7755   -2.1056   -0.0000 C   0  0  0  0  0  0  0  0  0  0  0  0
   -5.1187   -2.8679   -0.0000 C   0  0  0  0  0  0  0  0  0  0  0  0
   -6.1957   -2.2387   -0.0000 O   0  0  0  0  0  0  0  0  0  0  0  0
   -5.1308   -4.3927   -0.0000 C   0  0  0  0  0  0  0  0  0  0  0  0
   -3.8118   -5.1429   -0.0000 N   0  0  0  0  0  0  0  0  0  0  0  0
   -6.4740   -5.1429   -0.0000 N   0  0  0  0  0  0  0  0  0  0  0  0
   -3.8239   -6.6677   -0.0000 C   0  0  0  0  0  0  0  0  0  0  0  0
   -6.4861   -6.6677   -0.0000 C   0  0  0  0  0  0  0  0  0  0  0  0
   -2.5049   -7.4179   -0.0000 N   0  0  0  0  0  0  0  0  0  0  0  0
   -5.1671   -7.4179   -0.0000 C   0  0  0  0  0  0  0  0  0  0  0  0
   -7.8294   -7.4179   -0.0000 C   0  0  0  0  0  0  0  0  0  0  0  0
   -1.1859   -6.6314   -0.0000 C   0  0  0  0  0  0  0  0  0  0  0  0
   -5.1792   -8.9426   -0.0000 C   0  0  0  0  0  0  0  0  0  0  0  0
   -7.8415   -8.9426   -0.0000 C   0  0  0  0  0  0  0  0  0  0  0  0
   -1.0649   -5.1066   -0.0000 N   0  0  0  0  0  0  0  0  0  0  0  0
    0.1936   -7.2485   -0.0000 C   0  0  0  0  0  0  0  0  0  0  0  0
   -6.5224   -9.6929   -0.0000 C   0  0  0  0  0  0  0  0  0  0  0  0
    0.4235   -4.7678   -0.0000 N   0  0  0  0  0  0  0  0  0  0  0  0
    1.2101   -6.0868   -0.0000 C   0  0  0  0  0  0  0  0  0  0  0  0
    2.4202   -6.1957   -0.0000 C   0  0  0  0  0  0  0  0  0  0  0  0
  1  2  1  0  0  0  0
  2  3  2  0  0  0  0
  2  4  1  0  0  0  0
  3  5  1  0  0  0  0
  4  6  2  0  0  0  0
  5  7  2  0  0  0  0
  7  8  1  0  0  0  0
  8  9  1  6  0  0  0
  8 10  1  0  0  0  0
 10 11  1  0  0  0  0
 10 12  2  0  0  0  0
 11 13  2  0  0  0  0
 12 14  1  0  0  0  0
 13 15  1  0  0  0  0
 13 16  1  0  0  0  0
 14 17  2  0  0  0  0
 15 18  1  0  0  0  0
 16 19  2  0  0  0  0
 17 20  1  0  0  0  0
 18 21  2  0  0  0  0
 18 22  1  0  0  0  0
 19 23  1  0  0  0  0
 21 24  1  0  0  0  0
 22 25  2  0  0  0  0
 25 26  1  0  0  0  0
  6  7  1  0  0  0  0
 14 16  1  0  0  0  0
 20 23  2  0  0  0  0
 24 25  1  0  0  0  0
M  END
>  <MolRegNo>
2171640

>  <m>
=

>  <Value>
14800

>  <Unit>
nM

>  <Type>
IC50

>  <pValue>
4.83

>  <Ligand Efficiency>
0.25

>  <Binding Efficiency>
13.82

>  <Surface Efficiency>
5.57

>  <Assay Index>
1059171

>  <Assay Category>


>  <Assay Organism>
Homo sapiens

>  <Target ID>
17045

>  <Target Name>
Cytochrome P450 3A4

>  <Target Organism>
Homo sapiens

>  <Target Description>
Target is a single protein chain

>  <Sequence Accession>
P08684

>  <Reference>


>  <Pubmed ID>


>  <DOI>


$$$$
1362688
Actelion Java MolfileCreator 1.0

 22 25  0  0  1  0  0  0  0  0999 V2000
    0.0000   -0.0000   -0.0000 O   0  0  0  0  0  0  0  0  0  0  0  0
    1.0791   -0.6201   -0.0000 C   0  0  0  0  0  0  0  0  0  0  0  0
    1.0667   -2.1829   -0.0000 C   0  0  0  0  0  0  0  0  0  0  0  0
    2.4310    0.1736   -0.0000 C   0  0  0  0  0  0  0  0  0  0  0  0
    2.4186   -2.9643   -0.0000 C   0  0  0  0  0  0  0  0  0  0  0  0
    3.7829   -0.6077   -0.0000 C   0  0  0  0  0  0  0  0  0  0  0  0
    3.7705   -2.1705   -0.0000 C   0  0  0  0  0  0  0  0  0  0  0  0
    2.4062   -4.5271   -0.0000 C   0  0  0  0  0  0  0  0  0  0  0  0
    5.1224   -2.9519   -0.0000 C   0  0  0  0  0  0  0  0  0  0  0  0
    4.8496   -1.5256   -0.0000 C   0  0  0  0  0  0  0  0  0  0  0  0
    1.3023   -5.1472   -0.0000 O   0  0  0  0  0  0  0  0  0  0  0  0
    3.7581   -5.3085   -0.0000 C   0  0  0  0  0  0  0  0  0  0  0  0
    5.1100   -4.5147   -0.0000 C   0  0  0  0  0  0  0  0  0  0  0  0
    6.4743   -2.1581   -0.0000 C   0  0  0  0  0  0  0  0  0  0  0  0
    6.4619   -5.2961   -0.0000 C   0  0  0  0  0  0  0  0  0  0  0  0
    7.8263   -2.9395   -0.0000 C   0  0  0  0  0  0  0  0  0  0  0  0
    7.8139   -4.5023   -0.0000 C   0  0  0  0  0  0  0  0  0  0  0  0
    6.7968   -6.8092   -0.0000 C   0  0  0  0  0  0  0  0  0  0  0  0
    8.9797   -5.5193   -0.0000 C   0  0  0  0  0  0  0  0  0  0  0  0
    8.9425   -3.9689   -0.0000 C   0  0  0  0  0  0  0  0  0  0  0  0
    8.3472   -6.9457   -0.0000 C   0  0  0  0  0  0  0  0  0  0  0  0
   10.1952   -5.2340   -0.0000 O   0  0  0  0  0  0  0  0  0  0  0  0
  1  2  2  0  0  0  0
  2  3  1  0  0  0  0
  2  4  1  0  0  0  0
  3  5  2  0  0  0  0
  4  6  1  0  0  0  0
  5  7  1  0  0  0  0
  5  8  1  0  0  0  0
  7  9  1  0  0  0  0
  7 10  1  1  0  0  0
  8 11  1  1  0  0  0
  8 12  1  0  0  0  0
  9 13  1  0  0  0  0
  9 14  1  1  0  0  0
 13 15  1  0  0  0  0
 14 16  1  0  0  0  0
 15 17  1  0  0  0  0
 15 18  1  1  0  0  0
 17 19  1  0  0  0  0
 17 20  1  1  0  0  0
 18 21  1  0  0  0  0
 19 22  1  1  0  0  0
  6  7  1  0  0  0  0
 13 12  1  6  0  0  0
 16 17  1  0  0  0  0
 19 21  1  0  0  0  0
M  END
>  <MolRegNo>
1362688

>  <m>
=

>  <Value>
10500

>  <Unit>
nM

>  <Type>
IC50

>  <pValue>
4.98

>  <Ligand Efficiency>
0.31

>  <Binding Efficiency>
16.35

>  <Surface Efficiency>
8.65

>  <Assay Index>
1059379

>  <Assay Category>


>  <Assay Organism>
Homo sapiens

>  <Target ID>
17045

>  <Target Name>
Cytochrome P450 3A4

>  <Target Organism>
Homo sapiens

>  <Target Description>
Target is a single protein chain

>  <Sequence Accession>
P08684

>  <Reference>


>  <Pubmed ID>


>  <DOI>


$$$$
1614743
Actelion Java MolfileCreator 1.0

 29 32  0  0  0  0  0  0  0  0999 V2000
    0.0000   -0.0000   -0.0000 O   0  0  0  0  0  0  0  0  0  0  0  0
   -1.1758    0.4121   -0.0000 C   0  0  0  0  0  0  0  0  0  0  0  0
   -1.6606    1.8909   -0.0000 N   0  0  0  0  0  0  0  0  0  0  0  0
   -2.4364   -0.4121   -0.0000 C   0  0  0  0  0  0  0  0  0  0  0  0
   -3.2122    1.9031   -0.0000 C   0  0  0  0  0  0  0  0  0  0  0  0
   -0.7636    3.1516   -0.0000 C   0  0  0  0  0  0  0  0  0  0  0  0
   -3.6970    0.4364   -0.0000 N   0  0  0  0  0  0  0  0  0  0  0  0
   -1.1152   -1.1758   -0.0000 C   0  0  0  0  0  0  0  0  0  0  0  0
   -3.7819   -1.1758   -0.0000 C   0  0  0  0  0  0  0  0  0  0  0  0
   -3.9516    2.9091   -0.0000 N   0  0  0  0  0  0  0  0  0  0  0  0
   -1.2970    4.6061   -0.0000 C   0  0  0  0  0  0  0  0  0  0  0  0
    0.7394    2.8849   -0.0000 C   0  0  0  0  0  0  0  0  0  0  0  0
    0.2061   -0.4000   -0.0000 C   0  0  0  0  0  0  0  0  0  0  0  0
   -1.1273   -2.7031   -0.0000 C   0  0  0  0  0  0  0  0  0  0  0  0
   -3.7940   -2.7031   -0.0000 C   0  0  0  0  0  0  0  0  0  0  0  0
   -5.1274   -0.4000   -0.0000 C   0  0  0  0  0  0  0  0  0  0  0  0
   -0.3152    5.7940   -0.0000 C   0  0  0  0  0  0  0  0  0  0  0  0
    1.7212    4.0728   -0.0000 C   0  0  0  0  0  0  0  0  0  0  0  0
    1.5273   -1.1637   -0.0000 C   0  0  0  0  0  0  0  0  0  0  0  0
    0.1939   -3.4667   -0.0000 C   0  0  0  0  0  0  0  0  0  0  0  0
   -5.1395   -3.4667   -0.0000 C   0  0  0  0  0  0  0  0  0  0  0  0
   -6.4728   -1.1637   -0.0000 C   0  0  0  0  0  0  0  0  0  0  0  0
    1.1879    5.5274   -0.0000 C   0  0  0  0  0  0  0  0  0  0  0  0
    1.5152   -2.6909   -0.0000 C   0  0  0  0  0  0  0  0  0  0  0  0
   -6.4849   -2.6909   -0.0000 C   0  0  0  0  0  0  0  0  0  0  0  0
    2.8364   -3.4546   -0.0000 O   0  0  0  0  0  0  0  0  0  0  0  0
   -7.8304   -3.4546   -0.0000 O   0  0  0  0  0  0  0  0  0  0  0  0
    2.8243   -4.6789   -0.0000 C   0  0  0  0  0  0  0  0  0  0  0  0
   -8.9092   -2.8243   -0.0000 C   0  0  0  0  0  0  0  0  0  0  0  0
  1  2  2  0  0  0  0
  2  3  1  0  0  0  0
  2  4  1  0  0  0  0
  3  5  1  0  0  0  0
  3  6  1  0  0  0  0
  4  7  1  0  0  0  0
  4  8  1  0  0  0  0
  4  9  1  0  0  0  0
  5 10  2  0  0  0  0
  6 11  1  0  0  0  0
  6 12  1  0  0  0  0
  8 13  2  0  0  0  0
  8 14  1  0  0  0  0
  9 15  2  0  0  0  0
  9 16  1  0  0  0  0
 11 17  1  0  0  0  0
 12 18  1  0  0  0  0
 13 19  1  0  0  0  0
 14 20  2  0  0  0  0
 15 21  1  0  0  0  0
 16 22  2  0  0  0  0
 17 23  1  0  0  0  0
 19 24  2  0  0  0  0
 21 25  2  0  0  0  0
 24 26  1  0  0  0  0
 25 27  1  0  0  0  0
 26 28  1  0  0  0  0
 27 29  1  0  0  0  0
  5  7  1  0  0  0  0
 18 23  1  0  0  0  0
 20 24  1  0  0  0  0
 22 25  1  0  0  0  0
M  END
>  <MolRegNo>
1614743

>  <m>
=

>  <Value>
449

>  <Unit>
nM

>  <Type>
IC50

>  <pValue>
6.35

>  <Ligand Efficiency>
0.3

>  <Binding Efficiency>
16.13

>  <Surface Efficiency>
8.5

>  <Assay Index>
1059560

>  <Assay Category>


>  <Assay Organism>
Homo sapiens

>  <Target ID>
17045

>  <Target Name>
Cytochrome P450 3A4

>  <Target Organism>
Homo sapiens

>  <Target Description>
Target is a single protein chain

>  <Sequence Accession>
P08684

>  <Reference>


>  <Pubmed ID>


>  <DOI>


$$$$
2185328
Actelion Java MolfileCreator 1.0

 31 34  0  0  1  0  0  0  0  0999 V2000
    0.0000   -0.0000   -0.0000 Cl  0  0  0  0  0  0  0  0  0  0  0  0
   -1.0780   -0.6056   -0.0000 C   0  0  0  0  0  0  0  0  0  0  0  0
   -2.4952    0.0242   -0.0000 S   0  0  0  0  0  0  0  0  0  0  0  0
   -1.2476   -2.1197   -0.0000 C   0  0  0  0  0  0  0  0  0  0  0  0
   -3.5127   -1.1144   -0.0000 C   0  0  0  0  0  0  0  0  0  0  0  0
   -2.7617   -2.4346   -0.0000 C   0  0  0  0  0  0  0  0  0  0  0  0
   -5.0510   -0.9448   -0.0000 C   0  0  0  0  0  0  0  0  0  0  0  0
   -5.7899   -1.9259   -0.0000 O   0  0  0  0  0  0  0  0  0  0  0  0
   -5.6930    0.4724   -0.0000 N   0  0  0  0  0  0  0  0  0  0  0  0
   -4.8087    1.7321   -0.0000 C   0  0  0  0  0  0  0  0  0  0  0  0
   -7.2313    0.6420   -0.0000 C   0  0  0  0  0  0  0  0  0  0  0  0
   -5.3175    2.8707   -0.0000 O   0  0  0  0  0  0  0  0  0  0  0  0
   -7.8732    2.0592   -0.0000 C   0  0  0  0  0  0  0  0  0  0  0  0
   -7.1101    3.4037   -0.0000 O   0  0  0  0  0  0  0  0  0  0  0  0
   -9.3873    2.3983   -0.0000 C   0  0  0  0  0  0  0  0  0  0  0  0
   -8.1518    4.5665   -0.0000 C   0  0  0  0  0  0  0  0  0  0  0  0
   -9.5327    3.9245   -0.0000 N   0  0  0  0  0  0  0  0  0  0  0  0
   -7.9096    5.7777   -0.0000 O   0  0  0  0  0  0  0  0  0  0  0  0
  -10.8772    4.7118   -0.0000 C   0  0  0  0  0  0  0  0  0  0  0  0
  -10.8893    6.2622   -0.0000 C   0  0  0  0  0  0  0  0  0  0  0  0
  -12.2217    3.9608   -0.0000 C   0  0  0  0  0  0  0  0  0  0  0  0
  -12.2338    7.0375   -0.0000 C   0  0  0  0  0  0  0  0  0  0  0  0
  -13.5662    4.7361   -0.0000 C   0  0  0  0  0  0  0  0  0  0  0  0
  -13.5783    6.2865   -0.0000 C   0  0  0  0  0  0  0  0  0  0  0  0
  -14.9228    7.0738   -0.0000 N   0  0  0  0  0  0  0  0  0  0  0  0
  -14.9349    8.6242   -0.0000 C   0  0  0  0  0  0  0  0  0  0  0  0
  -16.2673    6.3107   -0.0000 C   0  0  0  0  0  0  0  0  0  0  0  0
  -13.8811    9.2541   -0.0000 O   0  0  0  0  0  0  0  0  0  0  0  0
  -16.2794    9.3994   -0.0000 C   0  0  0  0  0  0  0  0  0  0  0  0
  -17.6118    7.0859   -0.0000 C   0  0  0  0  0  0  0  0  0  0  0  0
  -17.6239    8.6363   -0.0000 O   0  0  0  0  0  0  0  0  0  0  0  0
  1  2  1  0  0  0  0
  2  3  1  0  0  0  0
  2  4  2  0  0  0  0
  3  5  1  0  0  0  0
  4  6  1  0  0  0  0
  5  7  1  0  0  0  0
  7  8  2  0  0  0  0
  7  9  1  0  0  0  0
  9 10  1  0  0  0  0
  9 11  1  0  0  0  0
 10 12  2  0  0  0  0
 13 11  1  1  0  0  0
 13 14  1  0  0  0  0
 13 15  1  0  0  0  0
 14 16  1  0  0  0  0
 15 17  1  0  0  0  0
 16 18  2  0  0  0  0
 17 19  1  0  0  0  0
 19 20  2  0  0  0  0
 19 21  1  0  0  0  0
 20 22  1  0  0  0  0
 21 23  2  0  0  0  0
 22 24  2  0  0  0  0
 24 25  1  0  0  0  0
 25 26  1  0  0  0  0
 25 27  1  0  0  0  0
 26 28  2  0  0  0  0
 26 29  1  0  0  0  0
 27 30  1  0  0  0  0
 29 31  1  0  0  0  0
  5  6  2  0  0  0  0
 16 17  1  0  0  0  0
 23 24  1  0  0  0  0
 30 31  1  0  0  0  0
M  END
>  <MolRegNo>
2185328

>  <m>
=

>  <Value>
5700

>  <Unit>
nM

>  <Type>
IC50

>  <pValue>
5.24

>  <Ligand Efficiency>
0.23

>  <Binding Efficiency>
11.3

>  <Surface Efficiency>
5.44

>  <Assay Index>
1059578

>  <Assay Category>


>  <Assay Organism>
Homo sapiens

>  <Target ID>
17045

>  <Target Name>
Cytochrome P450 3A4

>  <Target Organism>
Homo sapiens

>  <Target Description>
Target is a single protein chain

>  <Sequence Accession>
P08684

>  <Reference>


>  <Pubmed ID>


>  <DOI>


$$$$
328626
Actelion Java MolfileCreator 1.0

 29 32  0  0  1  0  0  0  0  0999 V2000
    0.0000   -0.0000   -0.0000 S   0  0  0  0  0  0  0  0  0  0  0  0
   -1.0141   -1.1348   -0.0000 C   0  0  0  0  0  0  0  0  0  0  0  0
    1.3883   -0.6036   -0.0000 C   0  0  0  0  0  0  0  0  0  0  0  0
   -2.5473   -0.9658   -0.0000 C   0  0  0  0  0  0  0  0  0  0  0  0
   -0.2777   -2.4507   -0.0000 C   0  0  0  0  0  0  0  0  0  0  0  0
    1.2193   -2.1127   -0.0000 C   0  0  0  0  0  0  0  0  0  0  0  0
    2.4386    0.0241   -0.0000 C   0  0  0  0  0  0  0  0  0  0  0  0
   -3.2837   -1.9436   -0.0000 O   0  0  0  0  0  0  0  0  0  0  0  0
   -3.1871    0.4467   -0.0000 N   0  0  0  0  0  0  0  0  0  0  0  0
   -4.7203    0.6157   -0.0000 C   0  0  0  0  0  0  0  0  0  0  0  0
   -5.3601    2.0281   -0.0000 C   0  0  0  0  0  0  0  0  0  0  0  0
   -4.5995    3.3682   -0.0000 O   0  0  0  0  0  0  0  0  0  0  0  0
   -6.8691    2.3662   -0.0000 C   0  0  0  0  0  0  0  0  0  0  0  0
   -5.6378    4.5271   -0.0000 C   0  0  0  0  0  0  0  0  0  0  0  0
   -7.0140    3.8873   -0.0000 N   0  0  0  0  0  0  0  0  0  0  0  0
   -5.3963    5.7343   -0.0000 O   0  0  0  0  0  0  0  0  0  0  0  0
   -8.3540    4.6720   -0.0000 C   0  0  0  0  0  0  0  0  0  0  0  0
   -8.3661    6.2172   -0.0000 C   0  0  0  0  0  0  0  0  0  0  0  0
   -9.6941    3.9235   -0.0000 C   0  0  0  0  0  0  0  0  0  0  0  0
   -9.7061    6.9899   -0.0000 C   0  0  0  0  0  0  0  0  0  0  0  0
  -11.0341    4.6961   -0.0000 C   0  0  0  0  0  0  0  0  0  0  0  0
  -11.0462    6.2414   -0.0000 C   0  0  0  0  0  0  0  0  0  0  0  0
  -12.3862    7.0261   -0.0000 N   0  0  0  0  0  0  0  0  0  0  0  0
  -12.3983    8.5713   -0.0000 C   0  0  0  0  0  0  0  0  0  0  0  0
  -13.7262    6.2655   -0.0000 C   0  0  0  0  0  0  0  0  0  0  0  0
  -11.3480    9.1991   -0.0000 O   0  0  0  0  0  0  0  0  0  0  0  0
  -13.7383    9.3440   -0.0000 C   0  0  0  0  0  0  0  0  0  0  0  0
  -15.0662    7.0382   -0.0000 C   0  0  0  0  0  0  0  0  0  0  0  0
  -15.0783    8.5834   -0.0000 O   0  0  0  0  0  0  0  0  0  0  0  0
  1  2  1  0  0  0  0
  1  3  1  0  0  0  0
  2  4  1  0  0  0  0
  2  5  2  0  0  0  0
  3  6  2  0  0  0  0
  3  7  1  0  0  0  0
  4  8  2  0  0  0  0
  4  9  1  0  0  0  0
  9 10  1  0  0  0  0
 11 10  1  1  0  0  0
 11 12  1  0  0  0  0
 11 13  1  0  0  0  0
 12 14  1  0  0  0  0
 13 15  1  0  0  0  0
 14 16  2  0  0  0  0
 15 17  1  0  0  0  0
 17 18  2  0  0  0  0
 17 19  1  0  0  0  0
 18 20  1  0  0  0  0
 19 21  2  0  0  0  0
 20 22  2  0  0  0  0
 22 23  1  0  0  0  0
 23 24  1  0  0  0  0
 23 25  1  0  0  0  0
 24 26  2  0  0  0  0
 24 27  1  0  0  0  0
 25 28  1  0  0  0  0
 27 29  1  0  0  0  0
  5  6  1  0  0  0  0
 14 15  1  0  0  0  0
 21 22  1  0  0  0  0
 28 29  1  0  0  0  0
M  END
>  <MolRegNo>
328626

>  <m>
=

>  <Value>
9700

>  <Unit>
nM

>  <Type>
IC50

>  <pValue>
5.01

>  <Ligand Efficiency>
0.24

>  <Binding Efficiency>
12.07

>  <Surface Efficiency>
5.69

>  <Assay Index>
1059578

>  <Assay Category>


>  <Assay Organism>
Homo sapiens

>  <Target ID>
17045

>  <Target Name>
Cytochrome P450 3A4

>  <Target Organism>
Homo sapiens

>  <Target Description>
Target is a single protein chain

>  <Sequence Accession>
P08684

>  <Reference>


>  <Pubmed ID>


>  <DOI>


$$$$
2160677
Actelion Java MolfileCreator 1.0

 33 36  0  0  0  0  0  0  0  0999 V2000
    0.0000   -0.0000   -0.0000 Cl  0  0  0  0  0  0  0  0  0  0  0  0
   -0.0246    1.2691   -0.0000 C   0  0  0  0  0  0  0  0  0  0  0  0
    1.3184    2.0700   -0.0000 C   0  0  0  0  0  0  0  0  0  0  0  0
   -1.3923    2.0577   -0.0000 C   0  0  0  0  0  0  0  0  0  0  0  0
    1.2938    3.6472   -0.0000 C   0  0  0  0  0  0  0  0  0  0  0  0
    2.6615    1.3061   -0.0000 C   0  0  0  0  0  0  0  0  0  0  0  0
   -1.4170    3.6349   -0.0000 C   0  0  0  0  0  0  0  0  0  0  0  0
   -0.0739    4.4358   -0.0000 C   0  0  0  0  0  0  0  0  0  0  0  0
    2.6615    0.0616   -0.0000 F   0  0  0  0  0  0  0  0  0  0  0  0
    3.7335    1.9468   -0.0000 F   0  0  0  0  0  0  0  0  0  0  0  0
    3.7335    0.7023   -0.0000 F   0  0  0  0  0  0  0  0  0  0  0  0
   -0.0986    6.0130   -0.0000 S   0  0  0  0  0  0  0  0  0  0  0  0
    0.9734    6.6537   -0.0000 O   0  0  0  0  0  0  0  0  0  0  0  0
   -0.1232    7.2821   -0.0000 O   0  0  0  0  0  0  0  0  0  0  0  0
   -1.4663    6.8015   -0.0000 N   0  0  0  0  0  0  0  0  0  0  0  0
   -1.4909    8.3787   -0.0000 C   0  0  0  0  0  0  0  0  0  0  0  0
   -2.8586    9.1673   -0.0000 C   0  0  0  0  0  0  0  0  0  0  0  0
   -0.1479    9.1796   -0.0000 C   0  0  0  0  0  0  0  0  0  0  0  0
   -2.8709   10.7445   -0.0000 N   0  0  0  0  0  0  0  0  0  0  0  0
   -4.2263    8.3910   -0.0000 C   0  0  0  0  0  0  0  0  0  0  0  0
   -0.1602   10.7568   -0.0000 C   0  0  0  0  0  0  0  0  0  0  0  0
   -1.5279   11.5454   -0.0000 C   0  0  0  0  0  0  0  0  0  0  0  0
   -4.2386    7.1465   -0.0000 O   0  0  0  0  0  0  0  0  0  0  0  0
   -5.5940    9.1796   -0.0000 C   0  0  0  0  0  0  0  0  0  0  0  0
    0.9118   11.3975   -0.0000 C   0  0  0  0  0  0  0  0  0  0  0  0
   -6.9617    8.4157   -0.0000 C   0  0  0  0  0  0  0  0  0  0  0  0
   -5.6063   10.7568   -0.0000 C   0  0  0  0  0  0  0  0  0  0  0  0
   -8.3294    9.2043   -0.0000 C   0  0  0  0  0  0  0  0  0  0  0  0
   -7.2944    6.9001   -0.0000 C   0  0  0  0  0  0  0  0  0  0  0  0
   -6.9740   11.5454   -0.0000 C   0  0  0  0  0  0  0  0  0  0  0  0
   -8.3417   10.7814   -0.0000 N   0  0  0  0  0  0  0  0  0  0  0  0
   -9.5000    8.1692   -0.0000 N   0  0  0  0  0  0  0  0  0  0  0  0
   -8.8593    6.7523   -0.0000 N   0  0  0  0  0  0  0  0  0  0  0  0
  1  2  1  0  0  0  0
  2  3  2  0  0  0  0
  2  4  1  0  0  0  0
  3  5  1  0  0  0  0
  3  6  1  0  0  0  0
  4  7  2  0  0  0  0
  5  8  2  0  0  0  0
  6  9  1  0  0  0  0
  6 10  1  0  0  0  0
  6 11  1  0  0  0  0
  8 12  1  0  0  0  0
 12 13  2  0  0  0  0
 12 14  2  0  0  0  0
 12 15  1  0  0  0  0
 15 16  1  0  0  0  0
 16 17  2  0  0  0  0
 16 18  1  0  0  0  0
 17 19  1  0  0  0  0
 17 20  1  0  0  0  0
 18 21  2  0  0  0  0
 19 22  2  0  0  0  0
 20 23  2  0  0  0  0
 20 24  1  0  0  0  0
 21 25  1  0  0  0  0
 24 26  2  0  0  0  0
 24 27  1  0  0  0  0
 26 28  1  0  0  0  0
 26 29  1  0  0  0  0
 27 30  2  0  0  0  0
 28 31  2  0  0  0  0
 28 32  1  0  0  0  0
 29 33  2  0  0  0  0
  7  8  1  0  0  0  0
 21 22  1  0  0  0  0
 30 31  1  0  0  0  0
 32 33  1  0  0  0  0
M  END
>  <MolRegNo>
2160677

>  <m>
=

>  <Value>
3000

>  <Unit>
nM

>  <Type>
IC50

>  <pValue>
5.52

>  <Ligand Efficiency>
0.23

>  <Binding Efficiency>
11.14

>  <Surface Efficiency>
4.69

>  <Assay Index>
1059740

>  <Assay Category>


>  <Assay Organism>
Homo sapiens

>  <Target ID>
17045

>  <Target Name>
Cytochrome P450 3A4

>  <Target Organism>
Homo sapiens

>  <Target Description>
Target is a single protein chain

>  <Sequence Accession>
P08684

>  <Reference>


>  <Pubmed ID>


>  <DOI>


$$$$
1439369
Actelion Java MolfileCreator 1.0

 33 36  0  0  0  0  0  0  0  0999 V2000
    0.0000   -0.0000   -0.0000 Cl  0  0  0  0  0  0  0  0  0  0  0  0
    0.7459    1.3141   -0.0000 C   0  0  0  0  0  0  0  0  0  0  0  0
    2.2376    1.3260   -0.0000 C   0  0  0  0  0  0  0  0  0  0  0  0
   -0.0237    2.6283   -0.0000 C   0  0  0  0  0  0  0  0  0  0  0  0
    2.9716    2.6401   -0.0000 C   0  0  0  0  0  0  0  0  0  0  0  0
    2.9716    0.0355   -0.0000 C   0  0  0  0  0  0  0  0  0  0  0  0
    0.7222    3.9424   -0.0000 C   0  0  0  0  0  0  0  0  0  0  0  0
    2.2139    3.9543   -0.0000 C   0  0  0  0  0  0  0  0  0  0  0  0
    1.6575   -0.6985   -0.0000 F   0  0  0  0  0  0  0  0  0  0  0  0
    4.2621    0.8051   -0.0000 F   0  0  0  0  0  0  0  0  0  0  0  0
    3.7175   -1.2550   -0.0000 F   0  0  0  0  0  0  0  0  0  0  0  0
    2.9479    5.2684   -0.0000 S   0  0  0  0  0  0  0  0  0  0  0  0
    1.6338    6.0261   -0.0000 O   0  0  0  0  0  0  0  0  0  0  0  0
    3.6938    6.5826   -0.0000 O   0  0  0  0  0  0  0  0  0  0  0  0
    4.2384    4.5344   -0.0000 N   0  0  0  0  0  0  0  0  0  0  0  0
    5.5289    5.2921   -0.0000 C   0  0  0  0  0  0  0  0  0  0  0  0
    6.8194    4.5581   -0.0000 C   0  0  0  0  0  0  0  0  0  0  0  0
    5.5170    6.8075   -0.0000 C   0  0  0  0  0  0  0  0  0  0  0  0
    8.1098    5.3158   -0.0000 N   0  0  0  0  0  0  0  0  0  0  0  0
    6.8075    3.0663   -0.0000 C   0  0  0  0  0  0  0  0  0  0  0  0
    6.8075    7.5771   -0.0000 C   0  0  0  0  0  0  0  0  0  0  0  0
    8.0980    6.8312   -0.0000 C   0  0  0  0  0  0  0  0  0  0  0  0
    5.4934    2.3323   -0.0000 O   0  0  0  0  0  0  0  0  0  0  0  0
    8.0980    2.3323   -0.0000 C   0  0  0  0  0  0  0  0  0  0  0  0
    6.7957    9.0925   -0.0000 C   0  0  0  0  0  0  0  0  0  0  0  0
    8.0861    0.8406   -0.0000 N   0  0  0  0  0  0  0  0  0  0  0  0
    9.3885    3.0900   -0.0000 C   0  0  0  0  0  0  0  0  0  0  0  0
    9.3766    0.0947   -0.0000 C   0  0  0  0  0  0  0  0  0  0  0  0
   10.6789    2.3560   -0.0000 C   0  0  0  0  0  0  0  0  0  0  0  0
    9.6844    4.5699   -0.0000 C   0  0  0  0  0  0  0  0  0  0  0  0
   10.6671    0.8643   -0.0000 N   0  0  0  0  0  0  0  0  0  0  0  0
   11.7800    3.3742   -0.0000 N   0  0  0  0  0  0  0  0  0  0  0  0
   11.1643    4.7357   -0.0000 C   0  0  0  0  0  0  0  0  0  0  0  0
  1  2  1  0  0  0  0
  2  3  2  0  0  0  0
  2  4  1  0  0  0  0
  3  5  1  0  0  0  0
  3  6  1  0  0  0  0
  4  7  2  0  0  0  0
  5  8  2  0  0  0  0
  6  9  1  0  0  0  0
  6 10  1  0  0  0  0
  6 11  1  0  0  0  0
  8 12  1  0  0  0  0
 12 13  2  0  0  0  0
 12 14  2  0  0  0  0
 12 15  1  0  0  0  0
 15 16  1  0  0  0  0
 16 17  2  0  0  0  0
 16 18  1  0  0  0  0
 17 19  1  0  0  0  0
 17 20  1  0  0  0  0
 18 21  2  0  0  0  0
 19 22  2  0  0  0  0
 20 23  2  0  0  0  0
 20 24  1  0  0  0  0
 21 25  1  0  0  0  0
 24 26  2  0  0  0  0
 24 27  1  0  0  0  0
 26 28  1  0  0  0  0
 27 29  2  0  0  0  0
 27 30  1  0  0  0  0
 28 31  2  0  0  0  0
 29 32  1  0  0  0  0
 30 33  2  0  0  0  0
  7  8  1  0  0  0  0
 21 22  1  0  0  0  0
 29 31  1  0  0  0  0
 32 33  1  0  0  0  0
M  END
>  <MolRegNo>
1439369

>  <m>
=

>  <Value>
20000

>  <Unit>
nM

>  <Type>
IC50

>  <pValue>
4.7

>  <Ligand Efficiency>
0.19

>  <Binding Efficiency>
9.48

>  <Surface Efficiency>
3.99

>  <Assay Index>
1059740

>  <Assay Category>


>  <Assay Organism>
Homo sapiens

>  <Target ID>
17045

>  <Target Name>
Cytochrome P450 3A4

>  <Target Organism>
Homo sapiens

>  <Target Description>
Target is a single protein chain

>  <Sequence Accession>
P08684

>  <Reference>


>  <Pubmed ID>


>  <DOI>


$$$$
2154217
Actelion Java MolfileCreator 1.0

 35 38  0  0  0  0  0  0  0  0999 V2000
    0.0000   -0.0000   -0.0000 Cl  0  0  0  0  0  0  0  0  0  0  0  0
   -0.0248   -1.2535   -0.0000 C   0  0  0  0  0  0  0  0  0  0  0  0
   -1.4025   -2.0230   -0.0000 C   0  0  0  0  0  0  0  0  0  0  0  0
    1.3280   -2.0354   -0.0000 C   0  0  0  0  0  0  0  0  0  0  0  0
   -1.4273   -3.5868   -0.0000 C   0  0  0  0  0  0  0  0  0  0  0  0
   -2.7801   -1.2163   -0.0000 C   0  0  0  0  0  0  0  0  0  0  0  0
    1.3032   -3.5992   -0.0000 C   0  0  0  0  0  0  0  0  0  0  0  0
   -0.0745   -4.3687   -0.0000 C   0  0  0  0  0  0  0  0  0  0  0  0
   -2.7925    0.0621   -0.0000 F   0  0  0  0  0  0  0  0  0  0  0  0
   -3.8847   -1.8244   -0.0000 F   0  0  0  0  0  0  0  0  0  0  0  0
   -3.8847   -0.5709   -0.0000 F   0  0  0  0  0  0  0  0  0  0  0  0
   -0.0993   -5.9325   -0.0000 S   0  0  0  0  0  0  0  0  0  0  0  0
    0.9805   -6.5531   -0.0000 O   0  0  0  0  0  0  0  0  0  0  0  0
   -0.1241   -7.1861   -0.0000 O   0  0  0  0  0  0  0  0  0  0  0  0
   -1.4769   -6.7020   -0.0000 N   0  0  0  0  0  0  0  0  0  0  0  0
   -1.5018   -8.2658   -0.0000 C   0  0  0  0  0  0  0  0  0  0  0  0
   -2.8794   -9.0353   -0.0000 C   0  0  0  0  0  0  0  0  0  0  0  0
   -0.1489   -9.0477   -0.0000 C   0  0  0  0  0  0  0  0  0  0  0  0
   -2.8918  -10.5991   -0.0000 N   0  0  0  0  0  0  0  0  0  0  0  0
   -4.2570   -8.2286   -0.0000 C   0  0  0  0  0  0  0  0  0  0  0  0
   -0.1613  -10.6115   -0.0000 C   0  0  0  0  0  0  0  0  0  0  0  0
   -1.5390  -11.3810   -0.0000 C   0  0  0  0  0  0  0  0  0  0  0  0
   -4.2694   -6.9502   -0.0000 O   0  0  0  0  0  0  0  0  0  0  0  0
   -5.6347   -8.9981   -0.0000 C   0  0  0  0  0  0  0  0  0  0  0  0
    0.9184  -11.2321   -0.0000 C   0  0  0  0  0  0  0  0  0  0  0  0
   -5.6471  -10.5619   -0.0000 C   0  0  0  0  0  0  0  0  0  0  0  0
   -7.0123   -8.2038   -0.0000 C   0  0  0  0  0  0  0  0  0  0  0  0
   -4.2943  -11.3438   -0.0000 O   0  0  0  0  0  0  0  0  0  0  0  0
   -7.0247  -11.3314   -0.0000 C   0  0  0  0  0  0  0  0  0  0  0  0
   -7.3474   -6.6524   -0.0000 C   0  0  0  0  0  0  0  0  0  0  0  0
   -8.3899   -8.9733   -0.0000 C   0  0  0  0  0  0  0  0  0  0  0  0
   -4.3067  -12.5973   -0.0000 C   0  0  0  0  0  0  0  0  0  0  0  0
   -8.4024  -10.5371   -0.0000 N   0  0  0  0  0  0  0  0  0  0  0  0
   -8.9236   -6.4786   -0.0000 C   0  0  0  0  0  0  0  0  0  0  0  0
   -9.5690   -7.9059   -0.0000 N   0  0  0  0  0  0  0  0  0  0  0  0
  1  2  1  0  0  0  0
  2  3  2  0  0  0  0
  2  4  1  0  0  0  0
  3  5  1  0  0  0  0
  3  6  1  0  0  0  0
  4  7  2  0  0  0  0
  5  8  2  0  0  0  0
  6  9  1  0  0  0  0
  6 10  1  0  0  0  0
  6 11  1  0  0  0  0
  8 12  1  0  0  0  0
 12 13  2  0  0  0  0
 12 14  2  0  0  0  0
 12 15  1  0  0  0  0
 15 16  1  0  0  0  0
 16 17  2  0  0  0  0
 16 18  1  0  0  0  0
 17 19  1  0  0  0  0
 17 20  1  0  0  0  0
 18 21  2  0  0  0  0
 19 22  2  0  0  0  0
 20 23  2  0  0  0  0
 20 24  1  0  0  0  0
 21 25  1  0  0  0  0
 24 26  2  0  0  0  0
 24 27  1  0  0  0  0
 26 28  1  0  0  0  0
 26 29  1  0  0  0  0
 27 30  1  0  0  0  0
 27 31  1  0  0  0  0
 28 32  1  0  0  0  0
 29 33  2  0  0  0  0
 30 34  2  0  0  0  0
 31 35  1  0  0  0  0
  7  8  1  0  0  0  0
 21 22  1  0  0  0  0
 31 33  1  0  0  0  0
 34 35  1  0  0  0  0
M  END
>  <MolRegNo>
2154217

>  <m>
=

>  <Value>
3000

>  <Unit>
nM

>  <Type>
IC50

>  <pValue>
5.52

>  <Ligand Efficiency>
0.22

>  <Binding Efficiency>
10.48

>  <Surface Efficiency>
5.03

>  <Assay Index>
1059740

>  <Assay Category>


>  <Assay Organism>
Homo sapiens

>  <Target ID>
17045

>  <Target Name>
Cytochrome P450 3A4

>  <Target Organism>
Homo sapiens

>  <Target Description>
Target is a single protein chain

>  <Sequence Accession>
P08684

>  <Reference>


>  <Pubmed ID>


>  <DOI>


$$$$
2195218
Actelion Java MolfileCreator 1.0

 32 36  0  0  1  0  0  0  0  0999 V2000
    0.0000   -0.0000   -0.0000 S   0  0  0  0  0  0  0  0  0  0  0  0
   -1.0892   -0.6119   -0.0000 O   0  0  0  0  0  0  0  0  0  0  0  0
   -0.0122    1.2605   -0.0000 O   0  0  0  0  0  0  0  0  0  0  0  0
    1.3339   -0.7588   -0.0000 C   0  0  0  0  0  0  0  0  0  0  0  0
   -1.0892    0.6364   -0.0000 C   0  0  0  0  0  0  0  0  0  0  0  0
    2.6679    0.0367   -0.0000 C   0  0  0  0  0  0  0  0  0  0  0  0
    1.3217   -1.9948   -0.0000 C   0  0  0  0  0  0  0  0  0  0  0  0
    2.3986   -1.3706   -0.0000 C   0  0  0  0  0  0  0  0  0  0  0  0
    4.0018   -0.7343   -0.0000 N   0  0  0  0  0  0  0  0  0  0  0  0
    2.6556    1.6032   -0.0000 C   0  0  0  0  0  0  0  0  0  0  0  0
    5.3357    0.0490   -0.0000 C   0  0  0  0  0  0  0  0  0  0  0  0
    1.2972    2.3864   -0.0000 O   0  0  0  0  0  0  0  0  0  0  0  0
    3.9896    2.3864   -0.0000 C   0  0  0  0  0  0  0  0  0  0  0  0
    5.3235    1.6154   -0.0000 N   0  0  0  0  0  0  0  0  0  0  0  0
    6.6697   -0.7220   -0.0000 N   0  0  0  0  0  0  0  0  0  0  0  0
    1.2850    3.9528   -0.0000 C   0  0  0  0  0  0  0  0  0  0  0  0
    3.9773    3.9528   -0.0000 N   0  0  0  0  0  0  0  0  0  0  0  0
    6.7920   -2.2395   -0.0000 C   0  0  0  0  0  0  0  0  0  0  0  0
    8.0525   -0.0734   -0.0000 C   0  0  0  0  0  0  0  0  0  0  0  0
    2.6189    4.7361   -0.0000 C   0  0  0  0  0  0  0  0  0  0  0  0
    5.3113    4.7361   -0.0000 C   0  0  0  0  0  0  0  0  0  0  0  0
    8.2973   -2.5577   -0.0000 N   0  0  0  0  0  0  0  0  0  0  0  0
    5.6172   -3.2553   -0.0000 N   0  0  0  0  0  0  0  0  0  0  0  0
    9.0805   -1.2238   -0.0000 C   0  0  0  0  0  0  0  0  0  0  0  0
    8.5176    1.4196   -0.0000 C   0  0  0  0  0  0  0  0  0  0  0  0
    2.6067    6.3025   -0.0000 C   0  0  0  0  0  0  0  0  0  0  0  0
    5.2990    6.3025   -0.0000 C   0  0  0  0  0  0  0  0  0  0  0  0
    5.8497   -4.4668   -0.0000 C   0  0  0  0  0  0  0  0  0  0  0  0
   10.5858   -0.8934   -0.0000 C   0  0  0  0  0  0  0  0  0  0  0  0
   10.0229    1.7500   -0.0000 C   0  0  0  0  0  0  0  0  0  0  0  0
    3.9406    7.0858   -0.0000 O   0  0  0  0  0  0  0  0  0  0  0  0
   11.0508    0.5997   -0.0000 C   0  0  0  0  0  0  0  0  0  0  0  0
  1  2  2  0  0  0  0
  1  3  2  0  0  0  0
  1  4  1  0  0  0  0
  1  5  1  0  0  0  0
  4  6  1  0  0  0  0
  4  7  1  0  0  0  0
  4  8  1  0  0  0  0
  6  9  2  0  0  0  0
  6 10  1  0  0  0  0
  9 11  1  0  0  0  0
 10 12  1  0  0  0  0
 10 13  2  0  0  0  0
 11 14  2  0  0  0  0
 11 15  1  0  0  0  0
 12 16  1  0  0  0  0
 13 17  1  0  0  0  0
 15 18  1  0  0  0  0
 15 19  1  0  0  0  0
 16 20  1  0  0  0  0
 17 21  1  0  0  0  0
 18 22  2  0  0  0  0
 18 23  1  0  0  0  0
 19 24  2  0  0  0  0
 19 25  1  0  0  0  0
 20 26  1  0  0  0  0
 21 27  1  0  0  0  0
 23 28  1  0  0  0  0
 24 29  1  0  0  0  0
 25 30  2  0  0  0  0
 26 31  1  0  0  0  0
 29 32  2  0  0  0  0
 13 14  1  0  0  0  0
 20 17  1  6  0  0  0
 22 24  1  0  0  0  0
 27 31  1  0  0  0  0
 30 32  1  0  0  0  0
M  END
>  <MolRegNo>
2195218

>  <m>
=

>  <Value>
39000

>  <Unit>
nM

>  <Type>
IC50

>  <pValue>
4.41

>  <Ligand Efficiency>
0.19

>  <Binding Efficiency>
9.62

>  <Surface Efficiency>
3.96

>  <Assay Index>
1060173

>  <Assay Category>


>  <Assay Organism>
Homo sapiens

>  <Target ID>
17045

>  <Target Name>
Cytochrome P450 3A4

>  <Target Organism>
Homo sapiens

>  <Target Description>
Target is a single protein chain

>  <Sequence Accession>
P08684

>  <Reference>


>  <Pubmed ID>


>  <DOI>


$$$$
2135332
Actelion Java MolfileCreator 1.0

 41 46  0  0  0  0  0  0  0  0999 V2000
    0.0000   -0.0000   -0.0000 O   0  0  0  0  0  0  0  0  0  0  0  0
    1.0445   -0.6003   -0.0000 C   0  0  0  0  0  0  0  0  0  0  0  0
    1.0325   -2.1130   -0.0000 N   0  0  0  0  0  0  0  0  0  0  0  0
    2.3531    0.1801   -0.0000 C   0  0  0  0  0  0  0  0  0  0  0  0
   -0.3001   -2.8693   -0.0000 C   0  0  0  0  0  0  0  0  0  0  0  0
    2.3411    1.7168   -0.0000 N   0  0  0  0  0  0  0  0  0  0  0  0
    3.3976   -0.4202   -0.0000 C   0  0  0  0  0  0  0  0  0  0  0  0
   -1.6327   -2.1010   -0.0000 N   0  0  0  0  0  0  0  0  0  0  0  0
   -0.3121   -4.3820   -0.0000 C   0  0  0  0  0  0  0  0  0  0  0  0
    3.3855    2.3411   -0.0000 C   0  0  0  0  0  0  0  0  0  0  0  0
   -2.9654   -2.8453   -0.0000 C   0  0  0  0  0  0  0  0  0  0  0  0
   -1.6448   -5.1263   -0.0000 C   0  0  0  0  0  0  0  0  0  0  0  0
   -4.2980   -2.0649   -0.0000 C   0  0  0  0  0  0  0  0  0  0  0  0
   -2.9774   -4.3580   -0.0000 C   0  0  0  0  0  0  0  0  0  0  0  0
   -5.6306   -1.2966   -0.0000 C   0  0  0  0  0  0  0  0  0  0  0  0
   -4.3100   -5.1023   -0.0000 C   0  0  0  0  0  0  0  0  0  0  0  0
   -6.9632   -0.5282   -0.0000 C   0  0  0  0  0  0  0  0  0  0  0  0
   -5.6906   -4.4660   -0.0000 N   0  0  0  0  0  0  0  0  0  0  0  0
   -4.4540   -6.5910   -0.0000 C   0  0  0  0  0  0  0  0  0  0  0  0
   -8.2958   -1.2726   -0.0000 C   0  0  0  0  0  0  0  0  0  0  0  0
   -6.9752    1.0085   -0.0000 C   0  0  0  0  0  0  0  0  0  0  0  0
   -6.7231   -5.5825   -0.0000 C   0  0  0  0  0  0  0  0  0  0  0  0
   -6.1708   -3.0014   -0.0000 C   0  0  0  0  0  0  0  0  0  0  0  0
   -5.9547   -6.9032   -0.0000 N   0  0  0  0  0  0  0  0  0  0  0  0
   -3.3255   -7.5875   -0.0000 C   0  0  0  0  0  0  0  0  0  0  0  0
   -9.6284   -0.5042   -0.0000 C   0  0  0  0  0  0  0  0  0  0  0  0
   -8.3078    1.7768   -0.0000 C   0  0  0  0  0  0  0  0  0  0  0  0
   -8.2238   -5.2584   -0.0000 C   0  0  0  0  0  0  0  0  0  0  0  0
   -7.6715   -2.6772   -0.0000 C   0  0  0  0  0  0  0  0  0  0  0  0
   -1.8608   -7.2153   -0.0000 C   0  0  0  0  0  0  0  0  0  0  0  0
   -3.7697   -9.0401   -0.0000 C   0  0  0  0  0  0  0  0  0  0  0  0
   -9.6404    1.0325   -0.0000 C   0  0  0  0  0  0  0  0  0  0  0  0
  -10.9610   -1.2486   -0.0000 C   0  0  0  0  0  0  0  0  0  0  0  0
   -8.7040   -3.7937   -0.0000 C   0  0  0  0  0  0  0  0  0  0  0  0
   -0.8164   -8.3078   -0.0000 C   0  0  0  0  0  0  0  0  0  0  0  0
   -2.7252  -10.1326   -0.0000 C   0  0  0  0  0  0  0  0  0  0  0  0
  -10.9730    1.8008   -0.0000 N   0  0  0  0  0  0  0  0  0  0  0  0
  -12.2936   -0.4802   -0.0000 C   0  0  0  0  0  0  0  0  0  0  0  0
   -9.9045   -3.5296   -0.0000 C   0  0  0  0  0  0  0  0  0  0  0  0
   -1.2486   -9.7605   -0.0000 N   0  0  0  0  0  0  0  0  0  0  0  0
  -12.3056    1.0565   -0.0000 C   0  0  0  0  0  0  0  0  0  0  0  0
  1  2  2  0  0  0  0
  2  3  1  0  0  0  0
  2  4  1  0  0  0  0
  3  5  1  0  0  0  0
  4  6  1  0  0  0  0
  4  7  1  0  0  0  0
  5  8  2  0  0  0  0
  5  9  1  0  0  0  0
  6 10  1  0  0  0  0
  8 11  1  0  0  0  0
  9 12  2  0  0  0  0
 11 13  1  0  0  0  0
 11 14  2  0  0  0  0
 13 15  3  0  0  0  0
 14 16  1  0  0  0  0
 15 17  1  0  0  0  0
 16 18  1  0  0  0  0
 16 19  2  0  0  0  0
 17 20  2  0  0  0  0
 17 21  1  0  0  0  0
 18 22  1  0  0  0  0
 18 23  1  0  0  0  0
 19 24  1  0  0  0  0
 19 25  1  0  0  0  0
 20 26  1  0  0  0  0
 21 27  2  0  0  0  0
 22 28  1  0  0  0  0
 23 29  2  0  0  0  0
 25 30  2  0  0  0  0
 25 31  1  0  0  0  0
 26 32  1  0  0  0  0
 26 33  2  0  0  0  0
 28 34  2  0  0  0  0
 30 35  1  0  0  0  0
 31 36  2  0  0  0  0
 32 37  2  0  0  0  0
 33 38  1  0  0  0  0
 34 39  1  0  0  0  0
 35 40  2  0  0  0  0
 37 41  1  0  0  0  0
 12 14  1  0  0  0  0
 22 24  2  0  0  0  0
 27 32  1  0  0  0  0
 29 34  1  0  0  0  0
 36 40  1  0  0  0  0
 38 41  2  0  0  0  0
M  END
>  <MolRegNo>
2135332

>  <m>
=

>  <Value>
3700

>  <Unit>
nM

>  <Type>
IC50

>  <pValue>
5.43

>  <Ligand Efficiency>
0.18

>  <Binding Efficiency>
10.1

>  <Surface Efficiency>
5.59

>  <Assay Index>
1060231

>  <Assay Category>


>  <Assay Organism>
Homo sapiens

>  <Target ID>
17045

>  <Target Name>
Cytochrome P450 3A4

>  <Target Organism>
Homo sapiens

>  <Target Description>
Target is a single protein chain

>  <Sequence Accession>
P08684

>  <Reference>


>  <Pubmed ID>


>  <DOI>


$$$$
2119849
Actelion Java MolfileCreator 1.0

 42 47  0  0  0  0  0  0  0  0999 V2000
    0.0000   -0.0000   -0.0000 O   0  0  0  0  0  0  0  0  0  0  0  0
    1.0484   -0.6025   -0.0000 C   0  0  0  0  0  0  0  0  0  0  0  0
    1.0363   -2.1209   -0.0000 N   0  0  0  0  0  0  0  0  0  0  0  0
    2.3619    0.1808   -0.0000 C   0  0  0  0  0  0  0  0  0  0  0  0
   -0.3013   -2.8800   -0.0000 C   0  0  0  0  0  0  0  0  0  0  0  0
    2.3498    1.7232   -0.0000 N   0  0  0  0  0  0  0  0  0  0  0  0
    3.4102   -0.4218   -0.0000 C   0  0  0  0  0  0  0  0  0  0  0  0
   -1.6388   -2.1088   -0.0000 N   0  0  0  0  0  0  0  0  0  0  0  0
   -0.3133   -4.3984   -0.0000 C   0  0  0  0  0  0  0  0  0  0  0  0
    3.3982    2.3498   -0.0000 C   0  0  0  0  0  0  0  0  0  0  0  0
   -2.9764   -2.8559   -0.0000 C   0  0  0  0  0  0  0  0  0  0  0  0
   -1.6509   -5.1455   -0.0000 C   0  0  0  0  0  0  0  0  0  0  0  0
   -4.3140   -2.0727   -0.0000 C   0  0  0  0  0  0  0  0  0  0  0  0
   -2.9885   -4.3743   -0.0000 C   0  0  0  0  0  0  0  0  0  0  0  0
   -5.6516   -1.3014   -0.0000 C   0  0  0  0  0  0  0  0  0  0  0  0
   -4.3261   -5.1214   -0.0000 C   0  0  0  0  0  0  0  0  0  0  0  0
   -6.9892   -0.5302   -0.0000 C   0  0  0  0  0  0  0  0  0  0  0  0
   -5.7119   -4.4827   -0.0000 N   0  0  0  0  0  0  0  0  0  0  0  0
   -4.4707   -6.6156   -0.0000 C   0  0  0  0  0  0  0  0  0  0  0  0
   -8.3268   -1.2773   -0.0000 C   0  0  0  0  0  0  0  0  0  0  0  0
   -7.0013    1.0122   -0.0000 C   0  0  0  0  0  0  0  0  0  0  0  0
   -6.7482   -5.6034   -0.0000 C   0  0  0  0  0  0  0  0  0  0  0  0
   -6.1939   -3.0126   -0.0000 C   0  0  0  0  0  0  0  0  0  0  0  0
   -5.9770   -6.9290   -0.0000 N   0  0  0  0  0  0  0  0  0  0  0  0
   -3.3379   -7.6158   -0.0000 C   0  0  0  0  0  0  0  0  0  0  0  0
   -9.6644   -0.5061   -0.0000 C   0  0  0  0  0  0  0  0  0  0  0  0
   -8.3388    1.7835   -0.0000 C   0  0  0  0  0  0  0  0  0  0  0  0
   -8.2545   -5.2781   -0.0000 C   0  0  0  0  0  0  0  0  0  0  0  0
   -7.7002   -2.6872   -0.0000 C   0  0  0  0  0  0  0  0  0  0  0  0
   -1.8678   -7.2423   -0.0000 C   0  0  0  0  0  0  0  0  0  0  0  0
   -3.7838   -9.0739   -0.0000 C   0  0  0  0  0  0  0  0  0  0  0  0
   -9.6764    1.0363   -0.0000 C   0  0  0  0  0  0  0  0  0  0  0  0
  -11.0020   -1.2532   -0.0000 C   0  0  0  0  0  0  0  0  0  0  0  0
   -8.7365   -3.8079   -0.0000 C   0  0  0  0  0  0  0  0  0  0  0  0
   -0.8194   -8.3388   -0.0000 C   0  0  0  0  0  0  0  0  0  0  0  0
   -2.7354  -10.1705   -0.0000 C   0  0  0  0  0  0  0  0  0  0  0  0
  -11.0140    1.8076   -0.0000 N   0  0  0  0  0  0  0  0  0  0  0  0
  -12.3396   -0.4820   -0.0000 C   0  0  0  0  0  0  0  0  0  0  0  0
   -9.9415   -3.5428   -0.0000 C   0  0  0  0  0  0  0  0  0  0  0  0
   -1.2532   -9.7969   -0.0000 N   0  0  0  0  0  0  0  0  0  0  0  0
  -12.3516    1.0604   -0.0000 C   0  0  0  0  0  0  0  0  0  0  0  0
  -13.4241    1.6870   -0.0000 C   0  0  0  0  0  0  0  0  0  0  0  0
  1  2  2  0  0  0  0
  2  3  1  0  0  0  0
  2  4  1  0  0  0  0
  3  5  1  0  0  0  0
  4  6  1  0  0  0  0
  4  7  1  0  0  0  0
  5  8  2  0  0  0  0
  5  9  1  0  0  0  0
  6 10  1  0  0  0  0
  8 11  1  0  0  0  0
  9 12  2  0  0  0  0
 11 13  1  0  0  0  0
 11 14  2  0  0  0  0
 13 15  3  0  0  0  0
 14 16  1  0  0  0  0
 15 17  1  0  0  0  0
 16 18  1  0  0  0  0
 16 19  2  0  0  0  0
 17 20  2  0  0  0  0
 17 21  1  0  0  0  0
 18 22  1  0  0  0  0
 18 23  1  0  0  0  0
 19 24  1  0  0  0  0
 19 25  1  0  0  0  0
 20 26  1  0  0  0  0
 21 27  2  0  0  0  0
 22 28  1  0  0  0  0
 23 29  2  0  0  0  0
 25 30  2  0  0  0  0
 25 31  1  0  0  0  0
 26 32  1  0  0  0  0
 26 33  2  0  0  0  0
 28 34  2  0  0  0  0
 30 35  1  0  0  0  0
 31 36  2  0  0  0  0
 32 37  2  0  0  0  0
 33 38  1  0  0  0  0
 34 39  1  0  0  0  0
 35 40  2  0  0  0  0
 37 41  1  0  0  0  0
 41 42  1  0  0  0  0
 12 14  1  0  0  0  0
 22 24  2  0  0  0  0
 27 32  1  0  0  0  0
 29 34  1  0  0  0  0
 36 40  1  0  0  0  0
 38 41  2  0  0  0  0
M  END
>  <MolRegNo>
2119849

>  <m>
=

>  <Value>
2100

>  <Unit>
nM

>  <Type>
IC50

>  <pValue>
5.68

>  <Ligand Efficiency>
0.18

>  <Binding Efficiency>
10.29

>  <Surface Efficiency>
5.85

>  <Assay Index>
1060231

>  <Assay Category>


>  <Assay Organism>
Homo sapiens

>  <Target ID>
17045

>  <Target Name>
Cytochrome P450 3A4

>  <Target Organism>
Homo sapiens

>  <Target Description>
Target is a single protein chain

>  <Sequence Accession>
P08684

>  <Reference>


>  <Pubmed ID>


>  <DOI>


$$$$
2144210
Actelion Java MolfileCreator 1.0

 43 48  0  0  0  0  0  0  0  0999 V2000
    0.0000   -0.0000   -0.0000 O   0  0  0  0  0  0  0  0  0  0  0  0
    1.0582   -0.6081   -0.0000 C   0  0  0  0  0  0  0  0  0  0  0  0
    2.3839    0.1703   -0.0000 N   0  0  0  0  0  0  0  0  0  0  0  0
    1.0460   -2.1406   -0.0000 C   0  0  0  0  0  0  0  0  0  0  0  0
    3.7096   -0.5838   -0.0000 C   0  0  0  0  0  0  0  0  0  0  0  0
    2.3717    1.4230   -0.0000 C   0  0  0  0  0  0  0  0  0  0  0  0
    2.3717   -2.8947   -0.0000 C   0  0  0  0  0  0  0  0  0  0  0  0
    3.6975   -2.1163   -0.0000 C   0  0  0  0  0  0  0  0  0  0  0  0
    5.0354    0.1946   -0.0000 C   0  0  0  0  0  0  0  0  0  0  0  0
    5.0232   -2.8704   -0.0000 C   0  0  0  0  0  0  0  0  0  0  0  0
    6.3611   -0.5595   -0.0000 C   0  0  0  0  0  0  0  0  0  0  0  0
    6.3490   -2.0920   -0.0000 C   0  0  0  0  0  0  0  0  0  0  0  0
    7.6747   -2.8461   -0.0000 C   0  0  0  0  0  0  0  0  0  0  0  0
    9.0004   -3.6002   -0.0000 C   0  0  0  0  0  0  0  0  0  0  0  0
   10.3262   -4.3664   -0.0000 C   0  0  0  0  0  0  0  0  0  0  0  0
   11.6519   -3.5880   -0.0000 N   0  0  0  0  0  0  0  0  0  0  0  0
   10.3140   -5.8989   -0.0000 C   0  0  0  0  0  0  0  0  0  0  0  0
   12.9777   -4.3421   -0.0000 C   0  0  0  0  0  0  0  0  0  0  0  0
    8.9639   -6.6530   -0.0000 C   0  0  0  0  0  0  0  0  0  0  0  0
   11.6397   -6.6530   -0.0000 C   0  0  0  0  0  0  0  0  0  0  0  0
   14.3034   -3.5515   -0.0000 N   0  0  0  0  0  0  0  0  0  0  0  0
   12.9655   -5.8746   -0.0000 C   0  0  0  0  0  0  0  0  0  0  0  0
    7.5652   -6.0084   -0.0000 N   0  0  0  0  0  0  0  0  0  0  0  0
    8.8180   -8.1612   -0.0000 C   0  0  0  0  0  0  0  0  0  0  0  0
   14.2912   -1.9947   -0.0000 C   0  0  0  0  0  0  0  0  0  0  0  0
    6.5192   -7.1395   -0.0000 C   0  0  0  0  0  0  0  0  0  0  0  0
    7.0787   -4.5245   -0.0000 C   0  0  0  0  0  0  0  0  0  0  0  0
    7.2976   -8.4774   -0.0000 N   0  0  0  0  0  0  0  0  0  0  0  0
    9.9613   -9.1707   -0.0000 C   0  0  0  0  0  0  0  0  0  0  0  0
   13.2087   -1.3622   -0.0000 O   0  0  0  0  0  0  0  0  0  0  0  0
   15.6170   -1.2041   -0.0000 C   0  0  0  0  0  0  0  0  0  0  0  0
    4.9989   -6.8111   -0.0000 C   0  0  0  0  0  0  0  0  0  0  0  0
    5.5584   -4.1961   -0.0000 C   0  0  0  0  0  0  0  0  0  0  0  0
   11.4451   -8.7937   -0.0000 C   0  0  0  0  0  0  0  0  0  0  0  0
    9.5113  -10.6424   -0.0000 C   0  0  0  0  0  0  0  0  0  0  0  0
   15.6048    0.3527   -0.0000 N   0  0  0  0  0  0  0  0  0  0  0  0
   16.6751   -1.8122   -0.0000 C   0  0  0  0  0  0  0  0  0  0  0  0
    4.5124   -5.3273   -0.0000 C   0  0  0  0  0  0  0  0  0  0  0  0
   12.5033   -9.9005   -0.0000 C   0  0  0  0  0  0  0  0  0  0  0  0
   10.5694  -11.7492   -0.0000 C   0  0  0  0  0  0  0  0  0  0  0  0
   16.6630    0.9852   -0.0000 C   0  0  0  0  0  0  0  0  0  0  0  0
    3.2961   -5.0597   -0.0000 C   0  0  0  0  0  0  0  0  0  0  0  0
   12.0654  -11.3722   -0.0000 N   0  0  0  0  0  0  0  0  0  0  0  0
  1  2  2  0  0  0  0
  2  3  1  0  0  0  0
  2  4  1  0  0  0  0
  3  5  1  0  0  0  0
  3  6  1  0  0  0  0
  4  7  2  0  0  0  0
  5  8  2  0  0  0  0
  5  9  1  0  0  0  0
  8 10  1  0  0  0  0
  9 11  2  0  0  0  0
 10 12  2  0  0  0  0
 12 13  1  0  0  0  0
 13 14  3  0  0  0  0
 14 15  1  0  0  0  0
 15 16  2  0  0  0  0
 15 17  1  0  0  0  0
 16 18  1  0  0  0  0
 17 19  1  0  0  0  0
 17 20  2  0  0  0  0
 18 21  1  0  0  0  0
 18 22  2  0  0  0  0
 19 23  1  0  0  0  0
 19 24  2  0  0  0  0
 21 25  1  0  0  0  0
 23 26  1  0  0  0  0
 23 27  1  0  0  0  0
 24 28  1  0  0  0  0
 24 29  1  0  0  0  0
 25 30  2  0  0  0  0
 25 31  1  0  0  0  0
 26 32  1  0  0  0  0
 27 33  2  0  0  0  0
 29 34  2  0  0  0  0
 29 35  1  0  0  0  0
 31 36  1  0  0  0  0
 31 37  1  0  0  0  0
 32 38  2  0  0  0  0
 34 39  1  0  0  0  0
 35 40  2  0  0  0  0
 36 41  1  0  0  0  0
 38 42  1  0  0  0  0
 39 43  2  0  0  0  0
  7  8  1  0  0  0  0
 11 12  1  0  0  0  0
 20 22  1  0  0  0  0
 26 28  2  0  0  0  0
 33 38  1  0  0  0  0
 40 43  1  0  0  0  0
M  END
>  <MolRegNo>
2144210

>  <m>
=

>  <Value>
4000

>  <Unit>
nM

>  <Type>
IC50

>  <pValue>
5.4

>  <Ligand Efficiency>
0.17

>  <Binding Efficiency>
9.51

>  <Surface Efficiency>
5.08

>  <Assay Index>
1060231

>  <Assay Category>


>  <Assay Organism>
Homo sapiens

>  <Target ID>
17045

>  <Target Name>
Cytochrome P450 3A4

>  <Target Organism>
Homo sapiens

>  <Target Description>
Target is a single protein chain

>  <Sequence Accession>
P08684

>  <Reference>


>  <Pubmed ID>


>  <DOI>


$$$$
2179121
Actelion Java MolfileCreator 1.0

 42 47  0  0  0  0  0  0  0  0999 V2000
    0.0000   -0.0000   -0.0000 O   0  0  0  0  0  0  0  0  0  0  0  0
   -1.1925    0.3493   -0.0000 C   0  0  0  0  0  0  0  0  0  0  0  0
   -1.5659    1.8430   -0.0000 N   0  0  0  0  0  0  0  0  0  0  0  0
   -2.3128   -0.6986   -0.0000 C   0  0  0  0  0  0  0  0  0  0  0  0
   -0.4698    2.9151   -0.0000 C   0  0  0  0  0  0  0  0  0  0  0  0
   -1.9634   -2.1682   -0.0000 N   0  0  0  0  0  0  0  0  0  0  0  0
   -3.5053   -0.3493   -0.0000 C   0  0  0  0  0  0  0  0  0  0  0  0
    0.9877    2.4935   -0.0000 N   0  0  0  0  0  0  0  0  0  0  0  0
   -0.8432    4.4087   -0.0000 C   0  0  0  0  0  0  0  0  0  0  0  0
   -2.8548   -2.9994   -0.0000 C   0  0  0  0  0  0  0  0  0  0  0  0
    2.0839    3.5655   -0.0000 C   0  0  0  0  0  0  0  0  0  0  0  0
    0.2530    5.4808   -0.0000 C   0  0  0  0  0  0  0  0  0  0  0  0
    3.5414    3.1439   -0.0000 C   0  0  0  0  0  0  0  0  0  0  0  0
    1.7105    5.0592   -0.0000 C   0  0  0  0  0  0  0  0  0  0  0  0
    4.9990    2.7223   -0.0000 C   0  0  0  0  0  0  0  0  0  0  0  0
    2.7223    6.2035   -0.0000 C   0  0  0  0  0  0  0  0  0  0  0  0
    6.4565    2.3007   -0.0000 C   0  0  0  0  0  0  0  0  0  0  0  0
    2.3971    7.7092   -0.0000 N   0  0  0  0  0  0  0  0  0  0  0  0
    4.2280    6.0590   -0.0000 C   0  0  0  0  0  0  0  0  0  0  0  0
    6.8058    0.8312   -0.0000 C   0  0  0  0  0  0  0  0  0  0  0  0
    7.5526    3.3728   -0.0000 C   0  0  0  0  0  0  0  0  0  0  0  0
    3.7101    8.4802   -0.0000 C   0  0  0  0  0  0  0  0  0  0  0  0
    1.0600    8.4802   -0.0000 C   0  0  0  0  0  0  0  0  0  0  0  0
    4.8424    7.4683   -0.0000 N   0  0  0  0  0  0  0  0  0  0  0  0
    4.9869    4.7460   -0.0000 C   0  0  0  0  0  0  0  0  0  0  0  0
    8.2633    0.4096   -0.0000 C   0  0  0  0  0  0  0  0  0  0  0  0
    9.0102    2.9512   -0.0000 C   0  0  0  0  0  0  0  0  0  0  0  0
    3.6980   10.0220   -0.0000 C   0  0  0  0  0  0  0  0  0  0  0  0
    1.0480   10.0220   -0.0000 C   0  0  0  0  0  0  0  0  0  0  0  0
    4.3124    3.3848   -0.0000 C   0  0  0  0  0  0  0  0  0  0  0  0
    6.5047    4.8785   -0.0000 C   0  0  0  0  0  0  0  0  0  0  0  0
    9.3595    1.4816   -0.0000 C   0  0  0  0  0  0  0  0  0  0  0  0
    2.3610   10.7929   -0.0000 C   0  0  0  0  0  0  0  0  0  0  0  0
    5.1676    2.1321   -0.0000 C   0  0  0  0  0  0  0  0  0  0  0  0
    7.3599    3.6258   -0.0000 C   0  0  0  0  0  0  0  0  0  0  0  0
   10.8170    1.0600   -0.0000 C   0  0  0  0  0  0  0  0  0  0  0  0
    2.3489   12.0336   -0.0000 C   0  0  0  0  0  0  0  0  0  0  0  0
    6.6854    2.2646   -0.0000 N   0  0  0  0  0  0  0  0  0  0  0  0
   11.9975    2.0116   -0.0000 N   0  0  0  0  0  0  0  0  0  0  0  0
   11.2989   -0.3614   -0.0000 C   0  0  0  0  0  0  0  0  0  0  0  0
   13.2503    1.1684   -0.0000 O   0  0  0  0  0  0  0  0  0  0  0  0
   12.8166   -0.3011   -0.0000 C   0  0  0  0  0  0  0  0  0  0  0  0
  1  2  2  0  0  0  0
  2  3  1  0  0  0  0
  2  4  1  0  0  0  0
  3  5  1  0  0  0  0
  4  6  1  0  0  0  0
  4  7  1  0  0  0  0
  5  8  2  0  0  0  0
  5  9  1  0  0  0  0
  6 10  1  0  0  0  0
  8 11  1  0  0  0  0
  9 12  2  0  0  0  0
 11 13  1  0  0  0  0
 11 14  2  0  0  0  0
 13 15  3  0  0  0  0
 14 16  1  0  0  0  0
 15 17  1  0  0  0  0
 16 18  1  0  0  0  0
 16 19  2  0  0  0  0
 17 20  2  0  0  0  0
 17 21  1  0  0  0  0
 18 22  1  0  0  0  0
 18 23  1  0  0  0  0
 19 24  1  0  0  0  0
 19 25  1  0  0  0  0
 20 26  1  0  0  0  0
 21 27  2  0  0  0  0
 22 28  1  0  0  0  0
 23 29  2  0  0  0  0
 25 30  2  0  0  0  0
 25 31  1  0  0  0  0
 26 32  2  0  0  0  0
 28 33  2  0  0  0  0
 30 34  1  0  0  0  0
 31 35  2  0  0  0  0
 32 36  1  0  0  0  0
 33 37  1  0  0  0  0
 34 38  2  0  0  0  0
 36 39  2  0  0  0  0
 36 40  1  0  0  0  0
 39 41  1  0  0  0  0
 40 42  2  0  0  0  0
 12 14  1  0  0  0  0
 22 24  2  0  0  0  0
 27 32  1  0  0  0  0
 29 33  1  0  0  0  0
 35 38  1  0  0  0  0
 41 42  1  0  0  0  0
M  END
>  <MolRegNo>
2179121

>  <m>
=

>  <Value>
2300

>  <Unit>
nM

>  <Type>
IC50

>  <pValue>
5.64

>  <Ligand Efficiency>
0.18

>  <Binding Efficiency>
10.18

>  <Surface Efficiency>
5.11

>  <Assay Index>
1060231

>  <Assay Category>


>  <Assay Organism>
Homo sapiens

>  <Target ID>
17045

>  <Target Name>
Cytochrome P450 3A4

>  <Target Organism>
Homo sapiens

>  <Target Description>
Target is a single protein chain

>  <Sequence Accession>
P08684

>  <Reference>


>  <Pubmed ID>


>  <DOI>


$$$$
2179673
Actelion Java MolfileCreator 1.0

 37 41  0  0  0  0  0  0  0  0999 V2000
    0.0000   -0.0000   -0.0000 O   0  0  0  0  0  0  0  0  0  0  0  0
   -1.1944    0.3499   -0.0000 C   0  0  0  0  0  0  0  0  0  0  0  0
   -1.5684    1.8459   -0.0000 N   0  0  0  0  0  0  0  0  0  0  0  0
   -2.3164   -0.6997   -0.0000 C   0  0  0  0  0  0  0  0  0  0  0  0
   -0.4705    2.9196   -0.0000 C   0  0  0  0  0  0  0  0  0  0  0  0
   -1.9665   -2.1716   -0.0000 N   0  0  0  0  0  0  0  0  0  0  0  0
   -3.5108   -0.3499   -0.0000 C   0  0  0  0  0  0  0  0  0  0  0  0
    0.9893    2.4973   -0.0000 N   0  0  0  0  0  0  0  0  0  0  0  0
   -0.8445    4.4156   -0.0000 C   0  0  0  0  0  0  0  0  0  0  0  0
   -2.8593   -3.0040   -0.0000 C   0  0  0  0  0  0  0  0  0  0  0  0
    2.0871    3.5711   -0.0000 C   0  0  0  0  0  0  0  0  0  0  0  0
    0.2534    5.4893   -0.0000 C   0  0  0  0  0  0  0  0  0  0  0  0
    3.5469    3.1488   -0.0000 C   0  0  0  0  0  0  0  0  0  0  0  0
    1.7132    5.0671   -0.0000 C   0  0  0  0  0  0  0  0  0  0  0  0
    5.0067    2.7266   -0.0000 C   0  0  0  0  0  0  0  0  0  0  0  0
    2.7266    6.2132   -0.0000 C   0  0  0  0  0  0  0  0  0  0  0  0
    6.4665    2.3043   -0.0000 C   0  0  0  0  0  0  0  0  0  0  0  0
    2.4008    7.7212   -0.0000 N   0  0  0  0  0  0  0  0  0  0  0  0
    4.2346    6.0684   -0.0000 C   0  0  0  0  0  0  0  0  0  0  0  0
    6.8164    0.8324   -0.0000 C   0  0  0  0  0  0  0  0  0  0  0  0
    7.5644    3.3780   -0.0000 C   0  0  0  0  0  0  0  0  0  0  0  0
    3.7159    8.4934   -0.0000 C   0  0  0  0  0  0  0  0  0  0  0  0
    1.0617    8.4934   -0.0000 C   0  0  0  0  0  0  0  0  0  0  0  0
    4.8499    7.4800   -0.0000 N   0  0  0  0  0  0  0  0  0  0  0  0
    4.9947    4.7534   -0.0000 C   0  0  0  0  0  0  0  0  0  0  0  0
    8.2762    0.4102   -0.0000 C   0  0  0  0  0  0  0  0  0  0  0  0
    9.0242    2.9558   -0.0000 C   0  0  0  0  0  0  0  0  0  0  0  0
    3.7038   10.0376   -0.0000 C   0  0  0  0  0  0  0  0  0  0  0  0
    1.0496   10.0376   -0.0000 C   0  0  0  0  0  0  0  0  0  0  0  0
    4.3191    3.3901   -0.0000 C   0  0  0  0  0  0  0  0  0  0  0  0
    6.5148    4.8861   -0.0000 C   0  0  0  0  0  0  0  0  0  0  0  0
    9.3741    1.4839   -0.0000 C   0  0  0  0  0  0  0  0  0  0  0  0
    2.3646   10.8097   -0.0000 C   0  0  0  0  0  0  0  0  0  0  0  0
    5.1756    2.1354   -0.0000 C   0  0  0  0  0  0  0  0  0  0  0  0
    7.3714    3.6314   -0.0000 C   0  0  0  0  0  0  0  0  0  0  0  0
    2.3526   12.0524   -0.0000 C   0  0  0  0  0  0  0  0  0  0  0  0
    6.6958    2.2681   -0.0000 N   0  0  0  0  0  0  0  0  0  0  0  0
  1  2  2  0  0  0  0
  2  3  1  0  0  0  0
  2  4  1  0  0  0  0
  3  5  1  0  0  0  0
  4  6  1  0  0  0  0
  4  7  1  0  0  0  0
  5  8  2  0  0  0  0
  5  9  1  0  0  0  0
  6 10  1  0  0  0  0
  8 11  1  0  0  0  0
  9 12  2  0  0  0  0
 11 13  1  0  0  0  0
 11 14  2  0  0  0  0
 13 15  3  0  0  0  0
 14 16  1  0  0  0  0
 15 17  1  0  0  0  0
 16 18  1  0  0  0  0
 16 19  2  0  0  0  0
 17 20  2  0  0  0  0
 17 21  1  0  0  0  0
 18 22  1  0  0  0  0
 18 23  1  0  0  0  0
 19 24  1  0  0  0  0
 19 25  1  0  0  0  0
 20 26  1  0  0  0  0
 21 27  2  0  0  0  0
 22 28  1  0  0  0  0
 23 29  2  0  0  0  0
 25 30  2  0  0  0  0
 25 31  1  0  0  0  0
 26 32  2  0  0  0  0
 28 33  2  0  0  0  0
 30 34  1  0  0  0  0
 31 35  2  0  0  0  0
 33 36  1  0  0  0  0
 34 37  2  0  0  0  0
 12 14  1  0  0  0  0
 22 24  2  0  0  0  0
 27 32  1  0  0  0  0
 29 33  1  0  0  0  0
 35 37  1  0  0  0  0
M  END
>  <MolRegNo>
2179673

>  <m>
=

>  <Value>
3000

>  <Unit>
nM

>  <Type>
IC50

>  <pValue>
5.52

>  <Ligand Efficiency>
0.2

>  <Binding Efficiency>
11.35

>  <Surface Efficiency>
6.56

>  <Assay Index>
1060231

>  <Assay Category>


>  <Assay Organism>
Homo sapiens

>  <Target ID>
17045

>  <Target Name>
Cytochrome P450 3A4

>  <Target Organism>
Homo sapiens

>  <Target Description>
Target is a single protein chain

>  <Sequence Accession>
P08684

>  <Reference>


>  <Pubmed ID>


>  <DOI>


$$$$
2167378
Actelion Java MolfileCreator 1.0

 38 42  0  0  1  0  0  0  0  0999 V2000
    0.0000   -0.0000   -0.0000 O   0  0  0  0  0  0  0  0  0  0  0  0
   -1.1999    0.3515   -0.0000 C   0  0  0  0  0  0  0  0  0  0  0  0
   -1.5756    1.8544   -0.0000 N   0  0  0  0  0  0  0  0  0  0  0  0
   -2.3270   -0.7030   -0.0000 C   0  0  0  0  0  0  0  0  0  0  0  0
   -0.4727    2.9330   -0.0000 C   0  0  0  0  0  0  0  0  0  0  0  0
   -1.9756   -2.1816   -0.0000 N   0  0  0  0  0  0  0  0  0  0  0  0
   -3.5269   -0.3515   -0.0000 C   0  0  0  0  0  0  0  0  0  0  0  0
    0.9938    2.5088   -0.0000 N   0  0  0  0  0  0  0  0  0  0  0  0
   -0.8484    4.4359   -0.0000 C   0  0  0  0  0  0  0  0  0  0  0  0
   -2.8724   -3.0179   -0.0000 C   0  0  0  0  0  0  0  0  0  0  0  0
    2.0968    3.5875   -0.0000 C   0  0  0  0  0  0  0  0  0  0  0  0
    0.2545    5.5146   -0.0000 C   0  0  0  0  0  0  0  0  0  0  0  0
    3.5633    3.1633   -0.0000 C   0  0  0  0  0  0  0  0  0  0  0  0
    1.7210    5.0904   -0.0000 C   0  0  0  0  0  0  0  0  0  0  0  0
    5.0298    2.7391   -0.0000 C   0  0  0  0  0  0  0  0  0  0  0  0
    2.7391    6.2418   -0.0000 C   0  0  0  0  0  0  0  0  0  0  0  0
    6.4963    2.3149   -0.0000 C   0  0  0  0  0  0  0  0  0  0  0  0
    2.4119    7.7568   -0.0000 N   0  0  0  0  0  0  0  0  0  0  0  0
    4.2541    6.0964   -0.0000 C   0  0  0  0  0  0  0  0  0  0  0  0
    6.8478    0.8363   -0.0000 C   0  0  0  0  0  0  0  0  0  0  0  0
    7.5992    3.3936   -0.0000 C   0  0  0  0  0  0  0  0  0  0  0  0
    3.7330    8.5325   -0.0000 C   0  0  0  0  0  0  0  0  0  0  0  0
    1.0666    8.5325   -0.0000 C   0  0  0  0  0  0  0  0  0  0  0  0
    4.8722    7.5144   -0.0000 N   0  0  0  0  0  0  0  0  0  0  0  0
    5.0177    4.7753   -0.0000 C   0  0  0  0  0  0  0  0  0  0  0  0
    8.3143    0.4121   -0.0000 C   0  0  0  0  0  0  0  0  0  0  0  0
    9.0657    2.9694   -0.0000 C   0  0  0  0  0  0  0  0  0  0  0  0
    3.7208   10.0838   -0.0000 C   0  0  0  0  0  0  0  0  0  0  0  0
    1.0544   10.0838   -0.0000 C   0  0  0  0  0  0  0  0  0  0  0  0
    6.5448    4.9086   -0.0000 C   0  0  0  0  0  0  0  0  0  0  0  0
    4.3390    3.4057   -0.0000 C   0  0  0  0  0  0  0  0  0  0  0  0
    9.4172    1.4908   -0.0000 C   0  0  0  0  0  0  0  0  0  0  0  0
    2.3755   10.8595   -0.0000 C   0  0  0  0  0  0  0  0  0  0  0  0
    7.4053    3.6481   -0.0000 C   0  0  0  0  0  0  0  0  0  0  0  0
    5.1995    2.1452   -0.0000 C   0  0  0  0  0  0  0  0  0  0  0  0
    2.3634   12.1079   -0.0000 C   0  0  0  0  0  0  0  0  0  0  0  0
    6.7266    2.2786   -0.0000 N   0  0  0  0  0  0  0  0  0  0  0  0
    8.6173    3.7572   -0.0000 C   0  0  0  0  0  0  0  0  0  0  0  0
  1  2  2  0  0  0  0
  2  3  1  0  0  0  0
  2  4  1  0  0  0  0
  3  5  1  0  0  0  0
  4  6  1  1  0  0  0
  4  7  1  0  0  0  0
  5  8  2  0  0  0  0
  5  9  1  0  0  0  0
  6 10  1  0  0  0  0
  8 11  1  0  0  0  0
  9 12  2  0  0  0  0
 11 13  1  0  0  0  0
 11 14  2  0  0  0  0
 13 15  3  0  0  0  0
 14 16  1  0  0  0  0
 15 17  1  0  0  0  0
 16 18  1  0  0  0  0
 16 19  2  0  0  0  0
 17 20  2  0  0  0  0
 17 21  1  0  0  0  0
 18 22  1  0  0  0  0
 18 23  1  0  0  0  0
 19 24  1  0  0  0  0
 19 25  1  0  0  0  0
 20 26  1  0  0  0  0
 21 27  2  0  0  0  0
 22 28  1  0  0  0  0
 23 29  2  0  0  0  0
 25 30  2  0  0  0  0
 25 31  1  0  0  0  0
 26 32  2  0  0  0  0
 28 33  2  0  0  0  0
 30 34  1  0  0  0  0
 31 35  2  0  0  0  0
 33 36  1  0  0  0  0
 34 37  2  0  0  0  0
 34 38  1  0  0  0  0
 12 14  1  0  0  0  0
 22 24  2  0  0  0  0
 27 32  1  0  0  0  0
 29 33  1  0  0  0  0
 35 37  1  0  0  0  0
M  END
>  <MolRegNo>
2167378

>  <m>
=

>  <Value>
46000

>  <Unit>
nM

>  <Type>
IC50

>  <pValue>
4.34

>  <Ligand Efficiency>
0.16

>  <Binding Efficiency>
8.66

>  <Surface Efficiency>
5.15

>  <Assay Index>
1060231

>  <Assay Category>


>  <Assay Organism>
Homo sapiens

>  <Target ID>
17045

>  <Target Name>
Cytochrome P450 3A4

>  <Target Organism>
Homo sapiens

>  <Target Description>
Target is a single protein chain

>  <Sequence Accession>
P08684

>  <Reference>


>  <Pubmed ID>


>  <DOI>


$$$$
2235604
Actelion Java MolfileCreator 1.0

 35 38  0  0  0  0  0  0  0  0999 V2000
    0.0000   -0.0000   -0.0000 Cl  0  0  0  0  0  0  0  0  0  0  0  0
    0.0241    1.5034   -0.0000 C   0  0  0  0  0  0  0  0  0  0  0  0
   -1.2628    2.2851   -0.0000 C   0  0  0  0  0  0  0  0  0  0  0  0
    1.3109    2.2370   -0.0000 C   0  0  0  0  0  0  0  0  0  0  0  0
   -1.2508    3.7885   -0.0000 C   0  0  0  0  0  0  0  0  0  0  0  0
    1.3230    3.7404   -0.0000 C   0  0  0  0  0  0  0  0  0  0  0  0
    0.0361    4.5222   -0.0000 C   0  0  0  0  0  0  0  0  0  0  0  0
    0.0601    6.0135   -0.0000 N   0  0  0  0  0  0  0  0  0  0  0  0
   -1.2268    6.7953   -0.0000 C   0  0  0  0  0  0  0  0  0  0  0  0
    1.3470    6.7472   -0.0000 C   0  0  0  0  0  0  0  0  0  0  0  0
   -2.5377    6.0977   -0.0000 O   0  0  0  0  0  0  0  0  0  0  0  0
   -1.2147    8.2987   -0.0000 N   0  0  0  0  0  0  0  0  0  0  0  0
    2.6099    5.9895   -0.0000 N   0  0  0  0  0  0  0  0  0  0  0  0
    1.3591    8.2505   -0.0000 C   0  0  0  0  0  0  0  0  0  0  0  0
    0.0722    9.0323   -0.0000 C   0  0  0  0  0  0  0  0  0  0  0  0
    3.8968    6.7231   -0.0000 C   0  0  0  0  0  0  0  0  0  0  0  0
    2.6459    8.9842   -0.0000 C   0  0  0  0  0  0  0  0  0  0  0  0
    0.0962   10.5718   -0.0000 O   0  0  0  0  0  0  0  0  0  0  0  0
    3.9208    8.2265   -0.0000 N   0  0  0  0  0  0  0  0  0  0  0  0
    5.1596    5.9654   -0.0000 C   0  0  0  0  0  0  0  0  0  0  0  0
    3.7164   10.0907   -0.0000 C   0  0  0  0  0  0  0  0  0  0  0  0
    2.2370   10.4756   -0.0000 C   0  0  0  0  0  0  0  0  0  0  0  0
    6.4465    6.6991   -0.0000 C   0  0  0  0  0  0  0  0  0  0  0  0
    5.1235    4.4861   -0.0000 C   0  0  0  0  0  0  0  0  0  0  0  0
    3.6923   11.6301   -0.0000 F   0  0  0  0  0  0  0  0  0  0  0  0
    5.0273   10.8724   -0.0000 F   0  0  0  0  0  0  0  0  0  0  0  0
    5.1837    9.7058   -0.0000 F   0  0  0  0  0  0  0  0  0  0  0  0
    1.4553   11.8106   -0.0000 F   0  0  0  0  0  0  0  0  0  0  0  0
    2.9827   11.8226   -0.0000 F   0  0  0  0  0  0  0  0  0  0  0  0
    0.7457   10.8845   -0.0000 F   0  0  0  0  0  0  0  0  0  0  0  0
    7.7093    5.9414   -0.0000 C   0  0  0  0  0  0  0  0  0  0  0  0
    6.3864    3.7284   -0.0000 C   0  0  0  0  0  0  0  0  0  0  0  0
    8.9962    6.6750   -0.0000 O   0  0  0  0  0  0  0  0  0  0  0  0
    7.6733    4.4620   -0.0000 C   0  0  0  0  0  0  0  0  0  0  0  0
   10.2591    5.9173   -0.0000 C   0  0  0  0  0  0  0  0  0  0  0  0
  1  2  1  0  0  0  0
  2  3  2  0  0  0  0
  2  4  1  0  0  0  0
  3  5  1  0  0  0  0
  4  6  2  0  0  0  0
  5  7  2  0  0  0  0
  7  8  1  0  0  0  0
  8  9  1  0  0  0  0
  8 10  1  0  0  0  0
  9 11  2  0  0  0  0
  9 12  1  0  0  0  0
 10 13  1  0  0  0  0
 10 14  2  0  0  0  0
 12 15  1  0  0  0  0
 13 16  1  0  0  0  0
 14 17  1  0  0  0  0
 15 18  2  0  0  0  0
 16 19  2  0  0  0  0
 16 20  1  0  0  0  0
 17 21  1  0  0  0  0
 17 22  1  0  0  0  0
 20 23  2  0  0  0  0
 20 24  1  0  0  0  0
 21 25  1  0  0  0  0
 21 26  1  0  0  0  0
 21 27  1  0  0  0  0
 22 28  1  0  0  0  0
 22 29  1  0  0  0  0
 22 30  1  0  0  0  0
 23 31  1  0  0  0  0
 24 32  2  0  0  0  0
 31 33  1  0  0  0  0
 31 34  2  0  0  0  0
 33 35  1  0  0  0  0
  6  7  1  0  0  0  0
 14 15  1  0  0  0  0
 17 19  1  0  0  0  0
 32 34  1  0  0  0  0
M  END
>  <MolRegNo>
2235604

>  <m>
=

>  <Value>
16440

>  <Unit>
nM

>  <Type>
IC50

>  <pValue>
4.78

>  <Ligand Efficiency>
0

>  <Binding Efficiency>
0

>  <Surface Efficiency>
0

>  <Assay Index>
1062576

>  <Assay Category>


>  <Assay Organism>
Homo sapiens

>  <Target ID>
17045

>  <Target Name>
Cytochrome P450 3A4

>  <Target Organism>
Homo sapiens

>  <Target Description>
Target is a single protein chain

>  <Sequence Accession>
P08684

>  <Reference>
J Med Chem 60 (4), 1611-1616 (2017)

>  <Pubmed ID>
28103022

>  <DOI>
10.1021/acs.jmedchem.6b01706

$$$$
2237015
Actelion Java MolfileCreator 1.0

 28 31  0  0  0  0  0  0  0  0999 V2000
    0.0000   -0.0000   -0.0000 O   0  0  0  0  0  0  0  0  0  0  0  0
   -0.0119   -1.4868   -0.0000 C   0  0  0  0  0  0  0  0  0  0  0  0
    1.2727   -2.2243   -0.0000 N   0  0  0  0  0  0  0  0  0  0  0  0
   -1.3203   -2.2243   -0.0000 C   0  0  0  0  0  0  0  0  0  0  0  0
    2.5573   -1.4630   -0.0000 C   0  0  0  0  0  0  0  0  0  0  0  0
   -2.6287   -1.4630   -0.0000 O   0  0  0  0  0  0  0  0  0  0  0  0
    3.8419   -2.2005   -0.0000 C   0  0  0  0  0  0  0  0  0  0  0  0
    2.5335    0.0476   -0.0000 C   0  0  0  0  0  0  0  0  0  0  0  0
   -3.9371   -2.2005   -0.0000 C   0  0  0  0  0  0  0  0  0  0  0  0
    5.1265   -1.4392   -0.0000 C   0  0  0  0  0  0  0  0  0  0  0  0
    3.8181    0.8207   -0.0000 C   0  0  0  0  0  0  0  0  0  0  0  0
   -5.2455   -1.4392   -0.0000 C   0  0  0  0  0  0  0  0  0  0  0  0
   -3.9490   -3.6992   -0.0000 C   0  0  0  0  0  0  0  0  0  0  0  0
    5.1146    0.0714   -0.0000 C   0  0  0  0  0  0  0  0  0  0  0  0
   -6.5539   -2.1767   -0.0000 C   0  0  0  0  0  0  0  0  0  0  0  0
   -5.2693   -4.4367   -0.0000 C   0  0  0  0  0  0  0  0  0  0  0  0
    6.3992    0.8326   -0.0000 C   0  0  0  0  0  0  0  0  0  0  0  0
   -6.5658   -3.6754   -0.0000 C   0  0  0  0  0  0  0  0  0  0  0  0
    7.6957    0.0952   -0.0000 C   0  0  0  0  0  0  0  0  0  0  0  0
    6.3755    2.3432   -0.0000 C   0  0  0  0  0  0  0  0  0  0  0  0
   -7.8742   -4.4129   -0.0000 N   0  0  0  0  0  0  0  0  0  0  0  0
    8.9804    0.8683   -0.0000 C   0  0  0  0  0  0  0  0  0  0  0  0
    7.6482    3.1164   -0.0000 C   0  0  0  0  0  0  0  0  0  0  0  0
   -8.0407   -5.8878   -0.0000 C   0  0  0  0  0  0  0  0  0  0  0  0
   -9.2539   -3.7943   -0.0000 C   0  0  0  0  0  0  0  0  0  0  0  0
    8.9566    2.3789   -0.0000 C   0  0  0  0  0  0  0  0  0  0  0  0
   -9.5156   -6.1851   -0.0000 N   0  0  0  0  0  0  0  0  0  0  0  0
  -10.2769   -4.9005   -0.0000 C   0  0  0  0  0  0  0  0  0  0  0  0
  1  2  2  0  0  0  0
  2  3  1  0  0  0  0
  2  4  1  0  0  0  0
  3  5  1  0  0  0  0
  4  6  1  0  0  0  0
  5  7  2  0  0  0  0
  5  8  1  0  0  0  0
  6  9  1  0  0  0  0
  7 10  1  0  0  0  0
  8 11  2  0  0  0  0
  9 12  2  0  0  0  0
  9 13  1  0  0  0  0
 10 14  2  0  0  0  0
 12 15  1  0  0  0  0
 13 16  2  0  0  0  0
 14 17  1  0  0  0  0
 15 18  2  0  0  0  0
 17 19  2  0  0  0  0
 17 20  1  0  0  0  0
 18 21  1  0  0  0  0
 19 22  1  0  0  0  0
 20 23  2  0  0  0  0
 21 24  1  0  0  0  0
 21 25  1  0  0  0  0
 22 26  2  0  0  0  0
 24 27  2  0  0  0  0
 25 28  2  0  0  0  0
 11 14  1  0  0  0  0
 16 18  1  0  0  0  0
 23 26  1  0  0  0  0
 27 28  1  0  0  0  0
M  END
>  <MolRegNo>
2237015

>  <m>
=

>  <Value>
20

>  <Unit>
nM

>  <Type>
IC50

>  <pValue>
7.7

>  <Ligand Efficiency>
0

>  <Binding Efficiency>
0

>  <Surface Efficiency>
0

>  <Assay Index>
1068667

>  <Assay Category>


>  <Assay Organism>
Homo sapiens

>  <Target ID>
17045

>  <Target Name>
Cytochrome P450 3A4

>  <Target Organism>
Homo sapiens

>  <Target Description>
Target is a single protein chain

>  <Sequence Accession>
P08684

>  <Reference>
J Med Chem 58 (15), 5889-5899 (2015)

>  <Pubmed ID>
26110200

>  <DOI>
10.1021/acs.jmedchem.5b00507

$$$$
2210560
Actelion Java MolfileCreator 1.0

 29 32  0  0  0  0  0  0  0  0999 V2000
    0.0000   -0.0000   -0.0000 O   0  0  0  0  0  0  0  0  0  0  0  0
   -0.0119   -1.4878   -0.0000 C   0  0  0  0  0  0  0  0  0  0  0  0
    1.2735   -2.2257   -0.0000 N   0  0  0  0  0  0  0  0  0  0  0  0
   -1.3212   -2.2257   -0.0000 C   0  0  0  0  0  0  0  0  0  0  0  0
    2.5590   -1.4640   -0.0000 C   0  0  0  0  0  0  0  0  0  0  0  0
   -2.6304   -1.4640   -0.0000 O   0  0  0  0  0  0  0  0  0  0  0  0
    3.8444   -2.2019   -0.0000 C   0  0  0  0  0  0  0  0  0  0  0  0
    2.5352    0.0476   -0.0000 C   0  0  0  0  0  0  0  0  0  0  0  0
   -3.9397   -2.2019   -0.0000 C   0  0  0  0  0  0  0  0  0  0  0  0
    5.1299   -1.4402   -0.0000 C   0  0  0  0  0  0  0  0  0  0  0  0
    3.8087    0.8213   -0.0000 C   0  0  0  0  0  0  0  0  0  0  0  0
   -5.2489   -1.4402   -0.0000 C   0  0  0  0  0  0  0  0  0  0  0  0
   -3.9516   -3.7016   -0.0000 C   0  0  0  0  0  0  0  0  0  0  0  0
    5.1180    0.0714   -0.0000 C   0  0  0  0  0  0  0  0  0  0  0  0
   -6.5581   -2.1781   -0.0000 C   0  0  0  0  0  0  0  0  0  0  0  0
   -5.2727   -4.4395   -0.0000 C   0  0  0  0  0  0  0  0  0  0  0  0
    6.4034    0.8332   -0.0000 C   0  0  0  0  0  0  0  0  0  0  0  0
   -6.5701   -3.6778   -0.0000 C   0  0  0  0  0  0  0  0  0  0  0  0
    7.7008    0.0952   -0.0000 C   0  0  0  0  0  0  0  0  0  0  0  0
    6.3796    2.3447   -0.0000 C   0  0  0  0  0  0  0  0  0  0  0  0
   -7.8793   -4.4157   -0.0000 N   0  0  0  0  0  0  0  0  0  0  0  0
    8.9862    0.8689   -0.0000 C   0  0  0  0  0  0  0  0  0  0  0  0
    7.6532    3.1184   -0.0000 C   0  0  0  0  0  0  0  0  0  0  0  0
   -8.0459   -5.8916   -0.0000 C   0  0  0  0  0  0  0  0  0  0  0  0
   -9.2600   -3.7968   -0.0000 C   0  0  0  0  0  0  0  0  0  0  0  0
    8.9624    2.3805   -0.0000 C   0  0  0  0  0  0  0  0  0  0  0  0
   -9.5218   -6.1892   -0.0000 N   0  0  0  0  0  0  0  0  0  0  0  0
   -6.9390   -6.8795   -0.0000 C   0  0  0  0  0  0  0  0  0  0  0  0
  -10.2717   -4.9037   -0.0000 C   0  0  0  0  0  0  0  0  0  0  0  0
  1  2  2  0  0  0  0
  2  3  1  0  0  0  0
  2  4  1  0  0  0  0
  3  5  1  0  0  0  0
  4  6  1  0  0  0  0
  5  7  2  0  0  0  0
  5  8  1  0  0  0  0
  6  9  1  0  0  0  0
  7 10  1  0  0  0  0
  8 11  2  0  0  0  0
  9 12  2  0  0  0  0
  9 13  1  0  0  0  0
 10 14  2  0  0  0  0
 12 15  1  0  0  0  0
 13 16  2  0  0  0  0
 14 17  1  0  0  0  0
 15 18  2  0  0  0  0
 17 19  2  0  0  0  0
 17 20  1  0  0  0  0
 18 21  1  0  0  0  0
 19 22  1  0  0  0  0
 20 23  2  0  0  0  0
 21 24  1  0  0  0  0
 21 25  1  0  0  0  0
 22 26  2  0  0  0  0
 24 27  2  0  0  0  0
 24 28  1  0  0  0  0
 25 29  2  0  0  0  0
 11 14  1  0  0  0  0
 16 18  1  0  0  0  0
 23 26  1  0  0  0  0
 27 29  1  0  0  0  0
M  END
>  <MolRegNo>
2210560

>  <m>
=

>  <Value>
5200

>  <Unit>
nM

>  <Type>
IC50

>  <pValue>
5.28

>  <Ligand Efficiency>
0

>  <Binding Efficiency>
0

>  <Surface Efficiency>
0

>  <Assay Index>
1068667

>  <Assay Category>


>  <Assay Organism>
Homo sapiens

>  <Target ID>
17045

>  <Target Name>
Cytochrome P450 3A4

>  <Target Organism>
Homo sapiens

>  <Target Description>
Target is a single protein chain

>  <Sequence Accession>
P08684

>  <Reference>
J Med Chem 58 (15), 5889-5899 (2015)

>  <Pubmed ID>
26110200

>  <DOI>
10.1021/acs.jmedchem.5b00507

$$$$
2210358
Actelion Java MolfileCreator 1.0

 22 22  0  0  0  0  0  0  0  0999 V2000
    0.0000   -0.0000   -0.0000 Cl  0  0  0  0  0  0  0  0  0  0  0  0
   -1.3055   -0.7477   -0.0000 C   0  0  0  0  0  0  0  0  0  0  0  0
   -2.6109   -0.0000   -0.0000 C   0  0  0  0  0  0  0  0  0  0  0  0
   -1.3173   -2.2312   -0.0000 C   0  0  0  0  0  0  0  0  0  0  0  0
   -2.6228    1.5072   -0.0000 C   0  0  0  0  0  0  0  0  0  0  0  0
   -3.9164   -0.7239   -0.0000 C   0  0  0  0  0  0  0  0  0  0  0  0
   -2.6347   -2.9788   -0.0000 C   0  0  0  0  0  0  0  0  0  0  0  0
   -3.9283    2.2668   -0.0000 O   0  0  0  0  0  0  0  0  0  0  0  0
   -1.3411    2.2668   -0.0000 N   0  0  0  0  0  0  0  0  0  0  0  0
   -3.9283   -2.2074   -0.0000 C   0  0  0  0  0  0  0  0  0  0  0  0
   -2.6465   -4.4623   -0.0000 Cl  0  0  0  0  0  0  0  0  0  0  0  0
   -1.3529    3.7740   -0.0000 C   0  0  0  0  0  0  0  0  0  0  0  0
   -0.0593    1.5310   -0.0000 C   0  0  0  0  0  0  0  0  0  0  0  0
   -2.6584    4.5335   -0.0000 C   0  0  0  0  0  0  0  0  0  0  0  0
   -0.0593    4.5335   -0.0000 C   0  0  0  0  0  0  0  0  0  0  0  0
    1.2224    2.2905   -0.0000 C   0  0  0  0  0  0  0  0  0  0  0  0
   -2.6703    6.0526   -0.0000 C   0  0  0  0  0  0  0  0  0  0  0  0
   -0.0712    6.0526   -0.0000 C   0  0  0  0  0  0  0  0  0  0  0  0
    2.5041    1.5547   -0.0000 N   0  0  0  0  0  0  0  0  0  0  0  0
   -1.3885    6.8122   -0.0000 C   0  0  0  0  0  0  0  0  0  0  0  0
   -1.4004    8.3194   -0.0000 F   0  0  0  0  0  0  0  0  0  0  0  0
    3.8927    3.7028   -0.0000 Cl  0  0  0  0  0  0  0  0  0  0  0  0
  1  2  1  0  0  0  0
  2  3  2  0  0  0  0
  2  4  1  0  0  0  0
  3  5  1  0  0  0  0
  3  6  1  0  0  0  0
  4  7  2  0  0  0  0
  5  8  2  0  0  0  0
  5  9  1  0  0  0  0
  6 10  2  0  0  0  0
  7 11  1  0  0  0  0
  9 12  1  0  0  0  0
  9 13  1  0  0  0  0
 12 14  2  0  0  0  0
 12 15  1  0  0  0  0
 13 16  1  0  0  0  0
 14 17  1  0  0  0  0
 15 18  2  0  0  0  0
 16 19  1  0  0  0  0
 17 20  2  0  0  0  0
 20 21  1  0  0  0  0
  7 10  1  0  0  0  0
 18 20  1  0  0  0  0
M  END
>  <MolRegNo>
2210358

>  <m>
=

>  <Value>
74

>  <Unit>
nM

>  <Type>
IC50

>  <pValue>
7.13

>  <Ligand Efficiency>
0

>  <Binding Efficiency>
0

>  <Surface Efficiency>
0

>  <Assay Index>
1070706

>  <Assay Category>


>  <Assay Organism>
Homo sapiens

>  <Target ID>
17045

>  <Target Name>
Cytochrome P450 3A4

>  <Target Organism>
Homo sapiens

>  <Target Description>
Target is a single protein chain

>  <Sequence Accession>
P08684

>  <Reference>
Bioorg Med Chem 25 (5), 1571-1584 (2017)

>  <Pubmed ID>
28187957

>  <DOI>
10.1016/j.bmc.2016.11.019

$$$$
2237533
Actelion Java MolfileCreator 1.0

 22 22  0  0  0  0  0  0  0  0999 V2000
    0.0000   -0.0000   -0.0000 Cl  0  0  0  0  0  0  0  0  0  0  0  0
   -1.3055   -0.7477   -0.0000 C   0  0  0  0  0  0  0  0  0  0  0  0
   -2.6109   -0.0000   -0.0000 C   0  0  0  0  0  0  0  0  0  0  0  0
   -1.3173   -2.2312   -0.0000 C   0  0  0  0  0  0  0  0  0  0  0  0
   -2.6228    1.5072   -0.0000 C   0  0  0  0  0  0  0  0  0  0  0  0
   -3.9164   -0.7239   -0.0000 C   0  0  0  0  0  0  0  0  0  0  0  0
   -2.6347   -2.9788   -0.0000 C   0  0  0  0  0  0  0  0  0  0  0  0
   -3.9283    2.2668   -0.0000 O   0  0  0  0  0  0  0  0  0  0  0  0
   -1.3411    2.2668   -0.0000 N   0  0  0  0  0  0  0  0  0  0  0  0
   -3.9283   -2.2074   -0.0000 C   0  0  0  0  0  0  0  0  0  0  0  0
   -2.6465   -4.4623   -0.0000 Cl  0  0  0  0  0  0  0  0  0  0  0  0
   -1.3529    3.7740   -0.0000 C   0  0  0  0  0  0  0  0  0  0  0  0
   -0.0593    1.5310   -0.0000 C   0  0  0  0  0  0  0  0  0  0  0  0
   -2.6584    4.5335   -0.0000 C   0  0  0  0  0  0  0  0  0  0  0  0
   -0.0593    4.5335   -0.0000 C   0  0  0  0  0  0  0  0  0  0  0  0
    1.2224    2.2905   -0.0000 C   0  0  0  0  0  0  0  0  0  0  0  0
   -2.6703    6.0526   -0.0000 C   0  0  0  0  0  0  0  0  0  0  0  0
   -0.0712    6.0526   -0.0000 C   0  0  0  0  0  0  0  0  0  0  0  0
    2.5041    1.5547   -0.0000 N   0  0  0  0  0  0  0  0  0  0  0  0
   -1.3885    6.8122   -0.0000 C   0  0  0  0  0  0  0  0  0  0  0  0
   -1.4004    8.3194   -0.0000 Cl  0  0  0  0  0  0  0  0  0  0  0  0
    3.7028    3.3230   -0.0000 Cl  0  0  0  0  0  0  0  0  0  0  0  0
  1  2  1  0  0  0  0
  2  3  2  0  0  0  0
  2  4  1  0  0  0  0
  3  5  1  0  0  0  0
  3  6  1  0  0  0  0
  4  7  2  0  0  0  0
  5  8  2  0  0  0  0
  5  9  1  0  0  0  0
  6 10  2  0  0  0  0
  7 11  1  0  0  0  0
  9 12  1  0  0  0  0
  9 13  1  0  0  0  0
 12 14  2  0  0  0  0
 12 15  1  0  0  0  0
 13 16  1  0  0  0  0
 14 17  1  0  0  0  0
 15 18  2  0  0  0  0
 16 19  1  0  0  0  0
 17 20  2  0  0  0  0
 20 21  1  0  0  0  0
  7 10  1  0  0  0  0
 18 20  1  0  0  0  0
M  END
>  <MolRegNo>
2237533

>  <m>
=

>  <Value>
70

>  <Unit>
nM

>  <Type>
IC50

>  <pValue>
7.16

>  <Ligand Efficiency>
0

>  <Binding Efficiency>
0

>  <Surface Efficiency>
0

>  <Assay Index>
1070706

>  <Assay Category>


>  <Assay Organism>
Homo sapiens

>  <Target ID>
17045

>  <Target Name>
Cytochrome P450 3A4

>  <Target Organism>
Homo sapiens

>  <Target Description>
Target is a single protein chain

>  <Sequence Accession>
P08684

>  <Reference>
Bioorg Med Chem 25 (5), 1571-1584 (2017)

>  <Pubmed ID>
28187957

>  <DOI>
10.1016/j.bmc.2016.11.019

$$$$
2232254
Actelion Java MolfileCreator 1.0

 20 21  0  0  0  0  0  0  0  0999 V2000
    0.0000   -0.0000   -0.0000 Cl  0  0  0  0  0  0  0  0  0  0  0  0
   -1.2741   -0.7481   -0.0000 C   0  0  0  0  0  0  0  0  0  0  0  0
   -2.6067   -0.0117   -0.0000 C   0  0  0  0  0  0  0  0  0  0  0  0
   -1.2858   -2.2092   -0.0000 C   0  0  0  0  0  0  0  0  0  0  0  0
   -2.6183    1.4728   -0.0000 C   0  0  0  0  0  0  0  0  0  0  0  0
   -3.9509   -0.7247   -0.0000 C   0  0  0  0  0  0  0  0  0  0  0  0
   -2.6300   -2.9456   -0.0000 C   0  0  0  0  0  0  0  0  0  0  0  0
   -3.9626    2.2209   -0.0000 O   0  0  0  0  0  0  0  0  0  0  0  0
   -1.2975    2.2209   -0.0000 N   0  0  0  0  0  0  0  0  0  0  0  0
   -3.9626   -2.1859   -0.0000 C   0  0  0  0  0  0  0  0  0  0  0  0
   -2.6417   -4.4068   -0.0000 Cl  0  0  0  0  0  0  0  0  0  0  0  0
   -1.3092    3.7054   -0.0000 C   0  0  0  0  0  0  0  0  0  0  0  0
   -0.0351    1.4845   -0.0000 C   0  0  0  0  0  0  0  0  0  0  0  0
   -2.6534    4.4535   -0.0000 C   0  0  0  0  0  0  0  0  0  0  0  0
    0.0000    4.4535   -0.0000 C   0  0  0  0  0  0  0  0  0  0  0  0
    1.2390    2.2209   -0.0000 C   0  0  0  0  0  0  0  0  0  0  0  0
   -2.6651    5.9497   -0.0000 C   0  0  0  0  0  0  0  0  0  0  0  0
   -0.0117    5.9497   -0.0000 C   0  0  0  0  0  0  0  0  0  0  0  0
   -1.3559    6.6978   -0.0000 C   0  0  0  0  0  0  0  0  0  0  0  0
   -1.3676    8.1823   -0.0000 Cl  0  0  0  0  0  0  0  0  0  0  0  0
  1  2  1  0  0  0  0
  2  3  2  0  0  0  0
  2  4  1  0  0  0  0
  3  5  1  0  0  0  0
  3  6  1  0  0  0  0
  4  7  2  0  0  0  0
  5  8  2  0  0  0  0
  5  9  1  0  0  0  0
  6 10  2  0  0  0  0
  7 11  1  0  0  0  0
  9 12  1  0  0  0  0
  9 13  1  0  0  0  0
 12 14  2  0  0  0  0
 12 15  1  0  0  0  0
 13 16  1  0  0  0  0
 14 17  1  0  0  0  0
 15 18  2  0  0  0  0
 17 19  2  0  0  0  0
 19 20  1  0  0  0  0
  7 10  1  0  0  0  0
 18 19  1  0  0  0  0
M  END
>  <MolRegNo>
2232254

>  <m>
=

>  <Value>
11900

>  <Unit>
nM

>  <Type>
IC50

>  <pValue>
4.92

>  <Ligand Efficiency>
0

>  <Binding Efficiency>
0

>  <Surface Efficiency>
0

>  <Assay Index>
1070706

>  <Assay Category>


>  <Assay Organism>
Homo sapiens

>  <Target ID>
17045

>  <Target Name>
Cytochrome P450 3A4

>  <Target Organism>
Homo sapiens

>  <Target Description>
Target is a single protein chain

>  <Sequence Accession>
P08684

>  <Reference>
Bioorg Med Chem 25 (5), 1571-1584 (2017)

>  <Pubmed ID>
28187957

>  <DOI>
10.1016/j.bmc.2016.11.019

$$$$
2228923
Actelion Java MolfileCreator 1.0

 30 31  0  0  0  0  0  0  0  0999 V2000
    0.0000   -0.0000   -0.0000 Cl  0  0  0  0  0  0  0  0  0  0  0  0
   -1.2964   -0.7425   -0.0000 C   0  0  0  0  0  0  0  0  0  0  0  0
   -2.5929   -0.0000   -0.0000 C   0  0  0  0  0  0  0  0  0  0  0  0
   -1.3082   -2.2157   -0.0000 C   0  0  0  0  0  0  0  0  0  0  0  0
   -2.6047    1.4968   -0.0000 C   0  0  0  0  0  0  0  0  0  0  0  0
   -3.8893   -0.7189   -0.0000 C   0  0  0  0  0  0  0  0  0  0  0  0
   -2.6164   -2.9582   -0.0000 C   0  0  0  0  0  0  0  0  0  0  0  0
   -3.9600    2.2511   -0.0000 O   0  0  0  0  0  0  0  0  0  0  0  0
   -1.2729    2.2511   -0.0000 N   0  0  0  0  0  0  0  0  0  0  0  0
   -3.9011   -2.1922   -0.0000 C   0  0  0  0  0  0  0  0  0  0  0  0
   -2.6282   -4.4315   -0.0000 Cl  0  0  0  0  0  0  0  0  0  0  0  0
   -1.2847    3.7479   -0.0000 C   0  0  0  0  0  0  0  0  0  0  0  0
   -0.0118    1.5086   -0.0000 C   0  0  0  0  0  0  0  0  0  0  0  0
   -2.6400    4.5022   -0.0000 C   0  0  0  0  0  0  0  0  0  0  0  0
    0.0354    4.5022   -0.0000 C   0  0  0  0  0  0  0  0  0  0  0  0
    1.2729    2.2511   -0.0000 C   0  0  0  0  0  0  0  0  0  0  0  0
   -2.6518    6.0107   -0.0000 C   0  0  0  0  0  0  0  0  0  0  0  0
    0.0236    6.0107   -0.0000 C   0  0  0  0  0  0  0  0  0  0  0  0
    2.5457    1.5086   -0.0000 N   0  0  0  0  0  0  0  0  0  0  0  0
   -1.3318    6.7650   -0.0000 C   0  0  0  0  0  0  0  0  0  0  0  0
   -1.3436    8.2618   -0.0000 O   0  0  0  0  0  0  0  0  0  0  0  0
   -2.6400    9.0161   -0.0000 C   0  0  0  0  0  0  0  0  0  0  0  0
   -2.6518   10.5129   -0.0000 C   0  0  0  0  0  0  0  0  0  0  0  0
   -1.3789   11.2672   -0.0000 C   0  0  0  0  0  0  0  0  0  0  0  0
   -3.9482   11.2554   -0.0000 C   0  0  0  0  0  0  0  0  0  0  0  0
   -1.3907   12.7640   -0.0000 C   0  0  0  0  0  0  0  0  0  0  0  0
   -3.9718   12.7522   -0.0000 C   0  0  0  0  0  0  0  0  0  0  0  0
   -2.6872   13.5183   -0.0000 C   0  0  0  0  0  0  0  0  0  0  0  0
   -2.6989   15.0151   -0.0000 Cl  0  0  0  0  0  0  0  0  0  0  0  0
    4.5257    1.4143   -0.0000 Cl  0  0  0  0  0  0  0  0  0  0  0  0
  1  2  1  0  0  0  0
  2  3  2  0  0  0  0
  2  4  1  0  0  0  0
  3  5  1  0  0  0  0
  3  6  1  0  0  0  0
  4  7  2  0  0  0  0
  5  8  2  0  0  0  0
  5  9  1  0  0  0  0
  6 10  2  0  0  0  0
  7 11  1  0  0  0  0
  9 12  1  0  0  0  0
  9 13  1  0  0  0  0
 12 14  2  0  0  0  0
 12 15  1  0  0  0  0
 13 16  1  0  0  0  0
 14 17  1  0  0  0  0
 15 18  2  0  0  0  0
 16 19  1  0  0  0  0
 17 20  2  0  0  0  0
 20 21  1  0  0  0  0
 21 22  1  0  0  0  0
 22 23  1  0  0  0  0
 23 24  2  0  0  0  0
 23 25  1  0  0  0  0
 24 26  1  0  0  0  0
 25 27  2  0  0  0  0
 26 28  2  0  0  0  0
 28 29  1  0  0  0  0
  7 10  1  0  0  0  0
 18 20  1  0  0  0  0
 27 28  1  0  0  0  0
M  END
>  <MolRegNo>
2228923

>  <m>
=

>  <Value>
179

>  <Unit>
nM

>  <Type>
IC50

>  <pValue>
6.75

>  <Ligand Efficiency>
0

>  <Binding Efficiency>
0

>  <Surface Efficiency>
0

>  <Assay Index>
1070706

>  <Assay Category>


>  <Assay Organism>
Homo sapiens

>  <Target ID>
17045

>  <Target Name>
Cytochrome P450 3A4

>  <Target Organism>
Homo sapiens

>  <Target Description>
Target is a single protein chain

>  <Sequence Accession>
P08684

>  <Reference>
Bioorg Med Chem 25 (5), 1571-1584 (2017)

>  <Pubmed ID>
28187957

>  <DOI>
10.1016/j.bmc.2016.11.019

$$$$
2205829
Actelion Java MolfileCreator 1.0

 33 34  0  0  0  0  0  0  0  0999 V2000
    0.0000   -0.0000   -0.0000 Cl  0  0  0  0  0  0  0  0  0  0  0  0
   -0.0133   -1.4916   -0.0000 C   0  0  0  0  0  0  0  0  0  0  0  0
    1.2785   -2.2240   -0.0000 C   0  0  0  0  0  0  0  0  0  0  0  0
   -1.3318   -2.2374   -0.0000 C   0  0  0  0  0  0  0  0  0  0  0  0
    1.2652   -3.7023   -0.0000 C   0  0  0  0  0  0  0  0  0  0  0  0
   -1.3318   -3.7156   -0.0000 C   0  0  0  0  0  0  0  0  0  0  0  0
   -0.0533   -4.4348   -0.0000 C   0  0  0  0  0  0  0  0  0  0  0  0
   -0.0666   -5.9263   -0.0000 C   0  0  0  0  0  0  0  0  0  0  0  0
    1.2252   -6.6588   -0.0000 O   0  0  0  0  0  0  0  0  0  0  0  0
    1.2119   -8.1504   -0.0000 C   0  0  0  0  0  0  0  0  0  0  0  0
   -0.1465   -8.8828   -0.0000 C   0  0  0  0  0  0  0  0  0  0  0  0
    2.5437   -8.8828   -0.0000 C   0  0  0  0  0  0  0  0  0  0  0  0
   -0.1598  -10.3744   -0.0000 C   0  0  0  0  0  0  0  0  0  0  0  0
    2.5303  -10.3744   -0.0000 C   0  0  0  0  0  0  0  0  0  0  0  0
    1.1719  -11.1069   -0.0000 C   0  0  0  0  0  0  0  0  0  0  0  0
    1.1586  -12.5984   -0.0000 N   0  0  0  0  0  0  0  0  0  0  0  0
   -0.1998  -13.3309   -0.0000 C   0  0  0  0  0  0  0  0  0  0  0  0
    2.4238  -13.3442   -0.0000 C   0  0  0  0  0  0  0  0  0  0  0  0
   -1.5582  -12.5718   -0.0000 O   0  0  0  0  0  0  0  0  0  0  0  0
   -0.2131  -14.8225   -0.0000 C   0  0  0  0  0  0  0  0  0  0  0  0
    3.7156  -12.5984   -0.0000 C   0  0  0  0  0  0  0  0  0  0  0  0
   -1.5315  -15.5549   -0.0000 C   0  0  0  0  0  0  0  0  0  0  0  0
    1.0654  -15.5416   -0.0000 C   0  0  0  0  0  0  0  0  0  0  0  0
    4.9941  -13.3442   -0.0000 N   0  0  0  0  0  0  0  0  0  0  0  0
   -1.5448  -17.0332   -0.0000 C   0  0  0  0  0  0  0  0  0  0  0  0
   -2.8366  -14.7825   -0.0000 C   0  0  0  0  0  0  0  0  0  0  0  0
    1.0521  -17.0199   -0.0000 C   0  0  0  0  0  0  0  0  0  0  0  0
   -0.2530  -17.7657   -0.0000 C   0  0  0  0  0  0  0  0  0  0  0  0
   -2.8500  -13.2643   -0.0000 F   0  0  0  0  0  0  0  0  0  0  0  0
   -4.1551  -15.5150   -0.0000 F   0  0  0  0  0  0  0  0  0  0  0  0
   -4.1551  -14.0234   -0.0000 F   0  0  0  0  0  0  0  0  0  0  0  0
   -0.2664  -19.2572   -0.0000 F   0  0  0  0  0  0  0  0  0  0  0  0
    8.0971  -13.4241   -0.0000 Cl  0  0  0  0  0  0  0  0  0  0  0  0
  1  2  1  0  0  0  0
  2  3  2  0  0  0  0
  2  4  1  0  0  0  0
  3  5  1  0  0  0  0
  4  6  2  0  0  0  0
  5  7  2  0  0  0  0
  7  8  1  0  0  0  0
  8  9  1  0  0  0  0
  9 10  1  0  0  0  0
 10 11  2  0  0  0  0
 10 12  1  0  0  0  0
 11 13  1  0  0  0  0
 12 14  2  0  0  0  0
 13 15  2  0  0  0  0
 15 16  1  0  0  0  0
 16 17  1  0  0  0  0
 16 18  1  0  0  0  0
 17 19  2  0  0  0  0
 17 20  1  0  0  0  0
 18 21  1  0  0  0  0
 20 22  2  0  0  0  0
 20 23  1  0  0  0  0
 21 24  1  0  0  0  0
 22 25  1  0  0  0  0
 22 26  1  0  0  0  0
 23 27  2  0  0  0  0
 25 28  2  0  0  0  0
 26 29  1  0  0  0  0
 26 30  1  0  0  0  0
 26 31  1  0  0  0  0
 28 32  1  0  0  0  0
  6  7  1  0  0  0  0
 14 15  1  0  0  0  0
 27 28  1  0  0  0  0
M  END
>  <MolRegNo>
2205829

>  <m>
=

>  <Value>
10

>  <Unit>
nM

>  <Type>
IC50

>  <pValue>
8

>  <Ligand Efficiency>
0

>  <Binding Efficiency>
0

>  <Surface Efficiency>
0

>  <Assay Index>
1070706

>  <Assay Category>


>  <Assay Organism>
Homo sapiens

>  <Target ID>
17045

>  <Target Name>
Cytochrome P450 3A4

>  <Target Organism>
Homo sapiens

>  <Target Description>
Target is a single protein chain

>  <Sequence Accession>
P08684

>  <Reference>
Bioorg Med Chem 25 (5), 1571-1584 (2017)

>  <Pubmed ID>
28187957

>  <DOI>
10.1016/j.bmc.2016.11.019

$$$$
2235862
Actelion Java MolfileCreator 1.0

 32 33  0  0  0  0  0  0  0  0999 V2000
    0.0000   -0.0000   -0.0000 Cl  0  0  0  0  0  0  0  0  0  0  0  0
   -1.2970   -0.7428   -0.0000 C   0  0  0  0  0  0  0  0  0  0  0  0
   -2.5939   -0.0000   -0.0000 C   0  0  0  0  0  0  0  0  0  0  0  0
   -1.3088   -2.2166   -0.0000 C   0  0  0  0  0  0  0  0  0  0  0  0
   -2.6057    1.4974   -0.0000 C   0  0  0  0  0  0  0  0  0  0  0  0
   -3.8909   -0.7192   -0.0000 C   0  0  0  0  0  0  0  0  0  0  0  0
   -2.6175   -2.9595   -0.0000 C   0  0  0  0  0  0  0  0  0  0  0  0
   -3.9617    2.2520   -0.0000 O   0  0  0  0  0  0  0  0  0  0  0  0
   -1.2734    2.2520   -0.0000 N   0  0  0  0  0  0  0  0  0  0  0  0
   -3.9027   -2.1931   -0.0000 C   0  0  0  0  0  0  0  0  0  0  0  0
   -2.6293   -4.4333   -0.0000 Cl  0  0  0  0  0  0  0  0  0  0  0  0
   -1.2852    3.7494   -0.0000 C   0  0  0  0  0  0  0  0  0  0  0  0
   -0.0118    1.5092   -0.0000 C   0  0  0  0  0  0  0  0  0  0  0  0
   -2.6411    4.5040   -0.0000 C   0  0  0  0  0  0  0  0  0  0  0  0
    0.0354    4.5040   -0.0000 C   0  0  0  0  0  0  0  0  0  0  0  0
    1.2734    2.2520   -0.0000 C   0  0  0  0  0  0  0  0  0  0  0  0
   -2.6529    6.0132   -0.0000 C   0  0  0  0  0  0  0  0  0  0  0  0
    0.0236    6.0132   -0.0000 C   0  0  0  0  0  0  0  0  0  0  0  0
    2.5468    1.5092   -0.0000 N   0  0  0  0  0  0  0  0  0  0  0  0
   -1.3323    6.7678   -0.0000 C   0  0  0  0  0  0  0  0  0  0  0  0
   -1.3441    8.2653   -0.0000 O   0  0  0  0  0  0  0  0  0  0  0  0
   -2.6411    9.0199   -0.0000 C   0  0  0  0  0  0  0  0  0  0  0  0
   -2.6529   10.5173   -0.0000 C   0  0  0  0  0  0  0  0  0  0  0  0
   -1.3795   11.2719   -0.0000 C   0  0  0  0  0  0  0  0  0  0  0  0
   -3.9499   11.2601   -0.0000 C   0  0  0  0  0  0  0  0  0  0  0  0
   -1.3913   12.7693   -0.0000 C   0  0  0  0  0  0  0  0  0  0  0  0
   -3.9735   12.7575   -0.0000 C   0  0  0  0  0  0  0  0  0  0  0  0
   -2.6883   13.5239   -0.0000 C   0  0  0  0  0  0  0  0  0  0  0  0
   -2.7001   15.0213   -0.0000 C   0  0  0  0  0  0  0  0  0  0  0  0
   -1.4267   15.7759   -0.0000 C   0  0  0  0  0  0  0  0  0  0  0  0
   -3.9970   15.7759   -0.0000 C   0  0  0  0  0  0  0  0  0  0  0  0
    4.9049    1.6035   -0.0000 Cl  0  0  0  0  0  0  0  0  0  0  0  0
  1  2  1  0  0  0  0
  2  3  2  0  0  0  0
  2  4  1  0  0  0  0
  3  5  1  0  0  0  0
  3  6  1  0  0  0  0
  4  7  2  0  0  0  0
  5  8  2  0  0  0  0
  5  9  1  0  0  0  0
  6 10  2  0  0  0  0
  7 11  1  0  0  0  0
  9 12  1  0  0  0  0
  9 13  1  0  0  0  0
 12 14  2  0  0  0  0
 12 15  1  0  0  0  0
 13 16  1  0  0  0  0
 14 17  1  0  0  0  0
 15 18  2  0  0  0  0
 16 19  1  0  0  0  0
 17 20  2  0  0  0  0
 20 21  1  0  0  0  0
 21 22  1  0  0  0  0
 22 23  1  0  0  0  0
 23 24  2  0  0  0  0
 23 25  1  0  0  0  0
 24 26  1  0  0  0  0
 25 27  2  0  0  0  0
 26 28  2  0  0  0  0
 28 29  1  0  0  0  0
 29 30  1  0  0  0  0
 29 31  1  0  0  0  0
  7 10  1  0  0  0  0
 18 20  1  0  0  0  0
 27 28  1  0  0  0  0
M  END
>  <MolRegNo>
2235862

>  <m>
=

>  <Value>
15

>  <Unit>
nM

>  <Type>
IC50

>  <pValue>
7.82

>  <Ligand Efficiency>
0

>  <Binding Efficiency>
0

>  <Surface Efficiency>
0

>  <Assay Index>
1070706

>  <Assay Category>


>  <Assay Organism>
Homo sapiens

>  <Target ID>
17045

>  <Target Name>
Cytochrome P450 3A4

>  <Target Organism>
Homo sapiens

>  <Target Description>
Target is a single protein chain

>  <Sequence Accession>
P08684

>  <Reference>
Bioorg Med Chem 25 (5), 1571-1584 (2017)

>  <Pubmed ID>
28187957

>  <DOI>
10.1016/j.bmc.2016.11.019

$$$$
2220277
Actelion Java MolfileCreator 1.0

 34 35  0  0  0  0  0  0  0  0999 V2000
    0.0000   -0.0000   -0.0000 Cl  0  0  0  0  0  0  0  0  0  0  0  0
   -9.6425    0.2836   -0.0000 F   0  0  0  0  0  0  0  0  0  0  0  0
   -9.6543   -1.1935   -0.0000 C   0  0  0  0  0  0  0  0  0  0  0  0
  -10.9542   -1.9261   -0.0000 F   0  0  0  0  0  0  0  0  0  0  0  0
  -10.9660   -0.4372   -0.0000 F   0  0  0  0  0  0  0  0  0  0  0  0
   -8.3781   -1.9261   -0.0000 C   0  0  0  0  0  0  0  0  0  0  0  0
   -8.3899   -3.4032   -0.0000 N   0  0  0  0  0  0  0  0  0  0  0  0
   -7.1019   -1.1817   -0.0000 C   0  0  0  0  0  0  0  0  0  0  0  0
   -7.1137   -4.1359   -0.0000 C   0  0  0  0  0  0  0  0  0  0  0  0
   -7.1137    0.3191   -0.0000 C   0  0  0  0  0  0  0  0  0  0  0  0
   -5.8257   -1.9025   -0.0000 C   0  0  0  0  0  0  0  0  0  0  0  0
   -5.8257   -3.3678   -0.0000 C   0  0  0  0  0  0  0  0  0  0  0  0
   -8.4727    1.0753   -0.0000 O   0  0  0  0  0  0  0  0  0  0  0  0
   -5.7784    1.0753   -0.0000 N   0  0  0  0  0  0  0  0  0  0  0  0
   -5.7902    2.5761   -0.0000 C   0  0  0  0  0  0  0  0  0  0  0  0
   -4.5140    0.3309   -0.0000 C   0  0  0  0  0  0  0  0  0  0  0  0
   -7.1492    3.3323   -0.0000 C   0  0  0  0  0  0  0  0  0  0  0  0
   -4.4668    3.3323   -0.0000 C   0  0  0  0  0  0  0  0  0  0  0  0
   -3.2260    1.0753   -0.0000 C   0  0  0  0  0  0  0  0  0  0  0  0
   -7.1610    4.8449   -0.0000 C   0  0  0  0  0  0  0  0  0  0  0  0
   -4.4786    4.8449   -0.0000 C   0  0  0  0  0  0  0  0  0  0  0  0
   -1.9498    0.3309   -0.0000 N   0  0  0  0  0  0  0  0  0  0  0  0
   -5.8375    5.6012   -0.0000 C   0  0  0  0  0  0  0  0  0  0  0  0
   -5.8493    7.1019   -0.0000 O   0  0  0  0  0  0  0  0  0  0  0  0
   -7.1492    7.8582   -0.0000 C   0  0  0  0  0  0  0  0  0  0  0  0
   -7.1610    9.3589   -0.0000 C   0  0  0  0  0  0  0  0  0  0  0  0
   -5.8848   10.1152   -0.0000 C   0  0  0  0  0  0  0  0  0  0  0  0
   -8.4608   10.1034   -0.0000 C   0  0  0  0  0  0  0  0  0  0  0  0
   -5.8966   11.6159   -0.0000 C   0  0  0  0  0  0  0  0  0  0  0  0
   -8.4845   11.6041   -0.0000 C   0  0  0  0  0  0  0  0  0  0  0  0
   -7.1964   12.3722   -0.0000 C   0  0  0  0  0  0  0  0  0  0  0  0
   -7.2083   13.8730   -0.0000 C   0  0  0  0  0  0  0  0  0  0  0  0
   -5.9320   14.6292   -0.0000 C   0  0  0  0  0  0  0  0  0  0  0  0
   -8.5081   14.6292   -0.0000 C   0  0  0  0  0  0  0  0  0  0  0  0
  2  3  1  0  0  0  0
  3  4  1  0  0  0  0
  3  5  1  0  0  0  0
  3  6  1  0  0  0  0
  6  7  2  0  0  0  0
  6  8  1  0  0  0  0
  7  9  1  0  0  0  0
  8 10  1  0  0  0  0
  8 11  2  0  0  0  0
  9 12  2  0  0  0  0
 10 13  2  0  0  0  0
 10 14  1  0  0  0  0
 14 15  1  0  0  0  0
 14 16  1  0  0  0  0
 15 17  2  0  0  0  0
 15 18  1  0  0  0  0
 16 19  1  0  0  0  0
 17 20  1  0  0  0  0
 18 21  2  0  0  0  0
 19 22  1  0  0  0  0
 20 23  2  0  0  0  0
 23 24  1  0  0  0  0
 24 25  1  0  0  0  0
 25 26  1  0  0  0  0
 26 27  2  0  0  0  0
 26 28  1  0  0  0  0
 27 29  1  0  0  0  0
 28 30  2  0  0  0  0
 29 31  2  0  0  0  0
 31 32  1  0  0  0  0
 32 33  1  0  0  0  0
 32 34  1  0  0  0  0
 11 12  1  0  0  0  0
 21 23  1  0  0  0  0
 30 31  1  0  0  0  0
M  END
>  <MolRegNo>
2220277

>  <m>
=

>  <Value>
144

>  <Unit>
nM

>  <Type>
IC50

>  <pValue>
6.84

>  <Ligand Efficiency>
0

>  <Binding Efficiency>
0

>  <Surface Efficiency>
0

>  <Assay Index>
1070706

>  <Assay Category>


>  <Assay Organism>
Homo sapiens

>  <Target ID>
17045

>  <Target Name>
Cytochrome P450 3A4

>  <Target Organism>
Homo sapiens

>  <Target Description>
Target is a single protein chain

>  <Sequence Accession>
P08684

>  <Reference>
Bioorg Med Chem 25 (5), 1571-1584 (2017)

>  <Pubmed ID>
28187957

>  <DOI>
10.1016/j.bmc.2016.11.019

$$$$
2228856
Actelion Java MolfileCreator 1.0

 31 32  0  0  0  0  0  0  0  0999 V2000
    0.0000   -0.0000   -0.0000 Cl  0  0  0  0  0  0  0  0  0  0  0  0
    1.2754   -0.7322   -0.0000 C   0  0  0  0  0  0  0  0  0  0  0  0
    2.5626    0.0236   -0.0000 C   0  0  0  0  0  0  0  0  0  0  0  0
    1.2636   -2.2083   -0.0000 C   0  0  0  0  0  0  0  0  0  0  0  0
    2.5508    1.5234   -0.0000 C   0  0  0  0  0  0  0  0  0  0  0  0
    3.8380   -0.7086   -0.0000 C   0  0  0  0  0  0  0  0  0  0  0  0
    2.5390   -2.9405   -0.0000 C   0  0  0  0  0  0  0  0  0  0  0  0
    1.1927    2.2792   -0.0000 O   0  0  0  0  0  0  0  0  0  0  0  0
    3.8852    2.2792   -0.0000 N   0  0  0  0  0  0  0  0  0  0  0  0
    3.8262   -2.1847   -0.0000 C   0  0  0  0  0  0  0  0  0  0  0  0
    2.5272   -4.4166   -0.0000 Cl  0  0  0  0  0  0  0  0  0  0  0  0
    3.8734    3.7789   -0.0000 C   0  0  0  0  0  0  0  0  0  0  0  0
    5.1488    1.5352   -0.0000 C   0  0  0  0  0  0  0  0  0  0  0  0
    2.5154    4.5347   -0.0000 C   0  0  0  0  0  0  0  0  0  0  0  0
    5.1960    4.5347   -0.0000 C   0  0  0  0  0  0  0  0  0  0  0  0
    6.4360    2.2792   -0.0000 C   0  0  0  0  0  0  0  0  0  0  0  0
    2.5035    6.0463   -0.0000 C   0  0  0  0  0  0  0  0  0  0  0  0
    5.1842    6.0463   -0.0000 C   0  0  0  0  0  0  0  0  0  0  0  0
    7.7114    1.5352   -0.0000 N   0  0  0  0  0  0  0  0  0  0  0  0
    3.8262    6.8021   -0.0000 C   0  0  0  0  0  0  0  0  0  0  0  0
    3.8144    8.3018   -0.0000 O   0  0  0  0  0  0  0  0  0  0  0  0
    2.5154    9.0576   -0.0000 C   0  0  0  0  0  0  0  0  0  0  0  0
    2.5035   10.5574   -0.0000 C   0  0  0  0  0  0  0  0  0  0  0  0
    1.2045   11.3014   -0.0000 C   0  0  0  0  0  0  0  0  0  0  0  0
    3.7789   11.3132   -0.0000 C   0  0  0  0  0  0  0  0  0  0  0  0
    1.1809   12.8011   -0.0000 C   0  0  0  0  0  0  0  0  0  0  0  0
    3.7671   12.8129   -0.0000 C   0  0  0  0  0  0  0  0  0  0  0  0
    2.4681   13.5687   -0.0000 C   0  0  0  0  0  0  0  0  0  0  0  0
   -0.1299   13.5569   -0.0000 C   0  0  0  0  0  0  0  0  0  0  0  0
    5.0425   13.5687   -0.0000 C   0  0  0  0  0  0  0  0  0  0  0  0
   10.0142    1.6060   -0.0000 Cl  0  0  0  0  0  0  0  0  0  0  0  0
  1  2  1  0  0  0  0
  2  3  2  0  0  0  0
  2  4  1  0  0  0  0
  3  5  1  0  0  0  0
  3  6  1  0  0  0  0
  4  7  2  0  0  0  0
  5  8  2  0  0  0  0
  5  9  1  0  0  0  0
  6 10  2  0  0  0  0
  7 11  1  0  0  0  0
  9 12  1  0  0  0  0
  9 13  1  0  0  0  0
 12 14  2  0  0  0  0
 12 15  1  0  0  0  0
 13 16  1  0  0  0  0
 14 17  1  0  0  0  0
 15 18  2  0  0  0  0
 16 19  1  0  0  0  0
 17 20  2  0  0  0  0
 20 21  1  0  0  0  0
 21 22  1  0  0  0  0
 22 23  1  0  0  0  0
 23 24  2  0  0  0  0
 23 25  1  0  0  0  0
 24 26  1  0  0  0  0
 25 27  2  0  0  0  0
 26 28  2  0  0  0  0
 26 29  1  0  0  0  0
 27 30  1  0  0  0  0
  7 10  1  0  0  0  0
 18 20  1  0  0  0  0
 27 28  1  0  0  0  0
M  END
>  <MolRegNo>
2228856

>  <m>
=

>  <Value>
3

>  <Unit>
nM

>  <Type>
IC50

>  <pValue>
8.52

>  <Ligand Efficiency>
0

>  <Binding Efficiency>
0

>  <Surface Efficiency>
0

>  <Assay Index>
1070706

>  <Assay Category>


>  <Assay Organism>
Homo sapiens

>  <Target ID>
17045

>  <Target Name>
Cytochrome P450 3A4

>  <Target Organism>
Homo sapiens

>  <Target Description>
Target is a single protein chain

>  <Sequence Accession>
P08684

>  <Reference>
Bioorg Med Chem 25 (5), 1571-1584 (2017)

>  <Pubmed ID>
28187957

>  <DOI>
10.1016/j.bmc.2016.11.019

$$$$
1377990
Actelion Java MolfileCreator 1.0

 24 27  0  0  0  0  0  0  0  0999 V2000
    0.0000   -0.0000   -0.0000 Br  0  0  0  0  0  0  0  0  0  0  0  0
    1.0994   -0.9930   -0.0000 C   0  0  0  0  0  0  0  0  0  0  0  0
    2.5535   -0.6739   -0.0000 N   0  0  0  0  0  0  0  0  0  0  0  0
    0.9339   -2.4708   -0.0000 N   0  0  0  0  0  0  0  0  0  0  0  0
    3.2865   -1.9624   -0.0000 N   0  0  0  0  0  0  0  0  0  0  0  0
   -0.3783   -3.2037   -0.0000 C   0  0  0  0  0  0  0  0  0  0  0  0
    2.2935   -3.0737   -0.0000 C   0  0  0  0  0  0  0  0  0  0  0  0
   -1.6905   -2.4471   -0.0000 C   0  0  0  0  0  0  0  0  0  0  0  0
   -0.3901   -4.6933   -0.0000 C   0  0  0  0  0  0  0  0  0  0  0  0
    2.5890   -4.5278   -0.0000 S   0  0  0  0  0  0  0  0  0  0  0  0
   -3.0028   -3.1801   -0.0000 C   0  0  0  0  0  0  0  0  0  0  0  0
   -1.7024   -0.9339   -0.0000 C   0  0  0  0  0  0  0  0  0  0  0  0
   -1.7024   -5.4263   -0.0000 C   0  0  0  0  0  0  0  0  0  0  0  0
    4.0313   -4.9061   -0.0000 C   0  0  0  0  0  0  0  0  0  0  0  0
   -3.0146   -4.6697   -0.0000 C   0  0  0  0  0  0  0  0  0  0  0  0
   -4.3150   -2.4235   -0.0000 C   0  0  0  0  0  0  0  0  0  0  0  0
   -3.0146   -0.1773   -0.0000 C   0  0  0  0  0  0  0  0  0  0  0  0
    5.0834   -3.8303   -0.0000 C   0  0  0  0  0  0  0  0  0  0  0  0
   -4.3268   -5.4026   -0.0000 C   0  0  0  0  0  0  0  0  0  0  0  0
   -4.3268   -0.9103   -0.0000 C   0  0  0  0  0  0  0  0  0  0  0  0
    4.6815   -2.3644   -0.0000 O   0  0  0  0  0  0  0  0  0  0  0  0
    6.5257   -4.2086   -0.0000 O   0  0  0  0  0  0  0  0  0  0  0  0
   -5.8400   -5.3908   -0.0000 C   0  0  0  0  0  0  0  0  0  0  0  0
   -5.0834   -6.6912   -0.0000 C   0  0  0  0  0  0  0  0  0  0  0  0
  1  2  1  0  0  0  0
  2  3  2  0  0  0  0
  2  4  1  0  0  0  0
  3  5  1  0  0  0  0
  4  6  1  0  0  0  0
  4  7  1  0  0  0  0
  6  8  1  0  0  0  0
  6  9  2  0  0  0  0
  7 10  1  0  0  0  0
  8 11  1  0  0  0  0
  8 12  2  0  0  0  0
  9 13  1  0  0  0  0
 10 14  1  0  0  0  0
 11 15  1  0  0  0  0
 11 16  2  0  0  0  0
 12 17  1  0  0  0  0
 14 18  1  0  0  0  0
 15 19  1  0  0  0  0
 16 20  1  0  0  0  0
 18 21  2  0  0  0  0
 18 22  1  0  0  0  0
 19 23  1  0  0  0  0
 19 24  1  0  0  0  0
  5  7  2  0  0  0  0
 13 15  2  0  0  0  0
 17 20  2  0  0  0  0
 23 24  1  0  0  0  0
M  END
>  <MolRegNo>
1377990

>  <m>
=

>  <Value>
74400

>  <Unit>
nM

>  <Type>
IC50

>  <pValue>
4.13

>  <Ligand Efficiency>
0

>  <Binding Efficiency>
0

>  <Surface Efficiency>
0

>  <Assay Index>
1070784

>  <Assay Category>


>  <Assay Organism>
Homo sapiens

>  <Target ID>
17045

>  <Target Name>
Cytochrome P450 3A4

>  <Target Organism>
Homo sapiens

>  <Target Description>
Target is a single protein chain

>  <Sequence Accession>
P08684

>  <Reference>
ACS Med Chem Lett 8 (3), 299-303 (2017)

>  <Pubmed ID>
28337320

>  <DOI>
10.1021/acsmedchemlett.6b00465

$$$$
2241718
Actelion Java MolfileCreator 1.0

 25 27  0  0  0  0  0  0  0  0999 V2000
    0.0000   -0.0000   -0.0000 O   0  0  0  0  0  0  0  0  0  0  0  0
   -1.2740   -0.8022   -0.0000 C   0  0  0  0  0  0  0  0  0  0  0  0
   -1.2858   -2.2886   -0.0000 C   0  0  0  0  0  0  0  0  0  0  0  0
   -2.5953   -3.0200   -0.0000 C   0  0  0  0  0  0  0  0  0  0  0  0
    0.0000   -3.0200   -0.0000 C   0  0  0  0  0  0  0  0  0  0  0  0
   -3.9047   -2.2650   -0.0000 O   0  0  0  0  0  0  0  0  0  0  0  0
   -2.6071   -4.5063   -0.0000 C   0  0  0  0  0  0  0  0  0  0  0  0
    1.2858   -2.2650   -0.0000 O   0  0  0  0  0  0  0  0  0  0  0  0
   -0.0118   -4.5063   -0.0000 C   0  0  0  0  0  0  0  0  0  0  0  0
   -5.2142   -2.9964   -0.0000 C   0  0  0  0  0  0  0  0  0  0  0  0
   -1.3212   -5.2377   -0.0000 C   0  0  0  0  0  0  0  0  0  0  0  0
   -6.5236   -2.2414   -0.0000 C   0  0  0  0  0  0  0  0  0  0  0  0
   -6.5354   -0.7314   -0.0000 C   0  0  0  0  0  0  0  0  0  0  0  0
   -7.8330   -2.9728   -0.0000 C   0  0  0  0  0  0  0  0  0  0  0  0
   -7.8448    0.0354   -0.0000 N   0  0  0  0  0  0  0  0  0  0  0  0
   -5.2495    0.0354   -0.0000 C   0  0  0  0  0  0  0  0  0  0  0  0
   -9.1425   -2.2178   -0.0000 C   0  0  0  0  0  0  0  0  0  0  0  0
   -9.1543   -0.7078   -0.0000 C   0  0  0  0  0  0  0  0  0  0  0  0
   -5.1080    1.5336   -0.0000 N   0  0  0  0  0  0  0  0  0  0  0  0
   -3.8929   -0.5662   -0.0000 C   0  0  0  0  0  0  0  0  0  0  0  0
   -3.6570    1.8521   -0.0000 N   0  0  0  0  0  0  0  0  0  0  0  0
   -6.1815    2.6071   -0.0000 C   0  0  0  0  0  0  0  0  0  0  0  0
   -2.9020    0.5544   -0.0000 C   0  0  0  0  0  0  0  0  0  0  0  0
   -5.8040    4.0699   -0.0000 C   0  0  0  0  0  0  0  0  0  0  0  0
   -7.6443    2.2296   -0.0000 C   0  0  0  0  0  0  0  0  0  0  0  0
  1  2  2  0  0  0  0
  2  3  1  0  0  0  0
  3  4  2  0  0  0  0
  3  5  1  0  0  0  0
  4  6  1  0  0  0  0
  4  7  1  0  0  0  0
  5  8  1  0  0  0  0
  5  9  2  0  0  0  0
  6 10  1  0  0  0  0
  7 11  2  0  0  0  0
 10 12  1  0  0  0  0
 12 13  2  0  0  0  0
 12 14  1  0  0  0  0
 13 15  1  0  0  0  0
 13 16  1  0  0  0  0
 14 17  2  0  0  0  0
 15 18  2  0  0  0  0
 16 19  1  0  0  0  0
 16 20  2  0  0  0  0
 19 21  1  0  0  0  0
 19 22  1  0  0  0  0
 20 23  1  0  0  0  0
 22 24  1  0  0  0  0
 22 25  1  0  0  0  0
  9 11  1  0  0  0  0
 17 18  1  0  0  0  0
 21 23  2  0  0  0  0
M  END
>  <MolRegNo>
2241718

>  <m>
=

>  <Value>
81900

>  <Unit>
nM

>  <Type>
IC50

>  <pValue>
4.09

>  <Ligand Efficiency>
0

>  <Binding Efficiency>
0

>  <Surface Efficiency>
0

>  <Assay Index>
1072902

>  <Assay Category>


>  <Assay Organism>
Homo sapiens

>  <Target ID>
17045

>  <Target Name>
Cytochrome P450 3A4

>  <Target Organism>
Homo sapiens

>  <Target Description>
Target is a single protein chain

>  <Sequence Accession>
P08684

>  <Reference>
ACS Med Chem Lett 8 (3), 321-326 (2017)

>  <Pubmed ID>
28337324

>  <DOI>
10.1021/acsmedchemlett.6b00491

$$$$
2210195
Actelion Java MolfileCreator 1.0

 27 30  0  0  0  0  0  0  0  0999 V2000
    0.0000   -0.0000   -0.0000 S   0  0  0  0  0  0  0  0  0  0  0  0
   -0.4004   -1.4366   -0.0000 O   0  0  0  0  0  0  0  0  0  0  0  0
   -1.4601   -0.3650   -0.0000 O   0  0  0  0  0  0  0  0  0  0  0  0
   -0.4121    1.4601   -0.0000 N   0  0  0  0  0  0  0  0  0  0  0  0
    1.4483   -0.3650   -0.0000 C   0  0  0  0  0  0  0  0  0  0  0  0
   -1.8369    1.9900   -0.0000 C   0  0  0  0  0  0  0  0  0  0  0  0
    0.5063    2.6494   -0.0000 C   0  0  0  0  0  0  0  0  0  0  0  0
    1.8369   -1.8016   -0.0000 C   0  0  0  0  0  0  0  0  0  0  0  0
    2.4728    0.7183   -0.0000 C   0  0  0  0  0  0  0  0  0  0  0  0
   -1.7898    3.4972   -0.0000 C   0  0  0  0  0  0  0  0  0  0  0  0
   -3.1675    1.3070   -0.0000 C   0  0  0  0  0  0  0  0  0  0  0  0
   -0.3415    3.9093   -0.0000 C   0  0  0  0  0  0  0  0  0  0  0  0
    3.2735   -2.1666   -0.0000 C   0  0  0  0  0  0  0  0  0  0  0  0
    3.9093    0.3650   -0.0000 C   0  0  0  0  0  0  0  0  0  0  0  0
   -3.0615    4.3097   -0.0000 C   0  0  0  0  0  0  0  0  0  0  0  0
   -4.4392    2.1077   -0.0000 C   0  0  0  0  0  0  0  0  0  0  0  0
    0.1649    5.3341   -0.0000 C   0  0  0  0  0  0  0  0  0  0  0  0
    4.3097   -1.0833   -0.0000 C   0  0  0  0  0  0  0  0  0  0  0  0
   -4.4039    3.6267   -0.0000 C   0  0  0  0  0  0  0  0  0  0  0  0
    1.6367    5.6049   -0.0000 N   0  0  0  0  0  0  0  0  0  0  0  0
    5.7580   -1.4366   -0.0000 F   0  0  0  0  0  0  0  0  0  0  0  0
    2.5787    4.4628   -0.0000 C   0  0  0  0  0  0  0  0  0  0  0  0
    2.1313    7.0297   -0.0000 C   0  0  0  0  0  0  0  0  0  0  0  0
    4.0389    4.7218   -0.0000 C   0  0  0  0  0  0  0  0  0  0  0  0
    3.6032    7.2888   -0.0000 C   0  0  0  0  0  0  0  0  0  0  0  0
    4.5570    6.1348   -0.0000 N   0  0  0  0  0  0  0  0  0  0  0  0
    6.0288    6.3939   -0.0000 C   0  0  0  0  0  0  0  0  0  0  0  0
  1  2  2  0  0  0  0
  1  3  2  0  0  0  0
  1  4  1  0  0  0  0
  1  5  1  0  0  0  0
  4  6  1  0  0  0  0
  4  7  1  0  0  0  0
  5  8  2  0  0  0  0
  5  9  1  0  0  0  0
  6 10  2  0  0  0  0
  6 11  1  0  0  0  0
  7 12  2  0  0  0  0
  8 13  1  0  0  0  0
  9 14  2  0  0  0  0
 10 15  1  0  0  0  0
 11 16  2  0  0  0  0
 12 17  1  0  0  0  0
 13 18  2  0  0  0  0
 15 19  2  0  0  0  0
 17 20  1  0  0  0  0
 18 21  1  0  0  0  0
 20 22  1  0  0  0  0
 20 23  1  0  0  0  0
 22 24  1  0  0  0  0
 23 25  1  0  0  0  0
 24 26  1  0  0  0  0
 26 27  1  0  0  0  0
 10 12  1  0  0  0  0
 14 18  1  0  0  0  0
 16 19  1  0  0  0  0
 25 26  1  0  0  0  0
M  END
>  <MolRegNo>
2210195

>  <m>
=

>  <Value>
1820

>  <Unit>
nM

>  <Type>
IC50

>  <pValue>
5.74

>  <Ligand Efficiency>
0

>  <Binding Efficiency>
0

>  <Surface Efficiency>
0

>  <Assay Index>
1077009

>  <Assay Category>


>  <Assay Organism>
Homo sapiens

>  <Target ID>
17045

>  <Target Name>
Cytochrome P450 3A4

>  <Target Organism>
Homo sapiens

>  <Target Description>
Target is a single protein chain

>  <Sequence Accession>
P08684

>  <Reference>
J Med Chem 60 (5), 1843-1859 (2017)

>  <Pubmed ID>
28212021

>  <DOI>
10.1021/acs.jmedchem.6b01662

$$$$
2233610
Actelion Java MolfileCreator 1.0

 32 33  0  0  0  0  0  0  0  0999 V2000
    0.0000   -0.0000   -0.0000 Cl  0  0  0  0  0  0  0  0  0  0  0  0
   -4.1439    0.0942   -0.0000 Cl  0  0  0  0  0  0  0  0  0  0  0  0
   -8.0994   -2.2603   -0.0000 S   0  0  0  0  0  0  0  0  0  0  0  0
   -8.4996   -3.6965   -0.0000 O   0  0  0  0  0  0  0  0  0  0  0  0
   -9.5592   -2.6252   -0.0000 O   0  0  0  0  0  0  0  0  0  0  0  0
   -8.5114   -0.8005   -0.0000 N   0  0  0  0  0  0  0  0  0  0  0  0
   -6.6514   -2.6252   -0.0000 C   0  0  0  0  0  0  0  0  0  0  0  0
   -9.9359   -0.2708   -0.0000 C   0  0  0  0  0  0  0  0  0  0  0  0
   -7.5932    0.3885   -0.0000 C   0  0  0  0  0  0  0  0  0  0  0  0
   -6.2629   -4.0615   -0.0000 C   0  0  0  0  0  0  0  0  0  0  0  0
   -5.6272   -1.5422   -0.0000 C   0  0  0  0  0  0  0  0  0  0  0  0
   -9.8888    1.2361   -0.0000 C   0  0  0  0  0  0  0  0  0  0  0  0
  -11.2662   -0.9536   -0.0000 C   0  0  0  0  0  0  0  0  0  0  0  0
   -8.4408    1.6481   -0.0000 C   0  0  0  0  0  0  0  0  0  0  0  0
   -4.8267   -4.4264   -0.0000 C   0  0  0  0  0  0  0  0  0  0  0  0
   -4.1910   -1.8954   -0.0000 C   0  0  0  0  0  0  0  0  0  0  0  0
  -11.1602    2.0484   -0.0000 C   0  0  0  0  0  0  0  0  0  0  0  0
  -12.5376   -0.1530   -0.0000 C   0  0  0  0  0  0  0  0  0  0  0  0
   -7.9346    3.0726   -0.0000 C   0  0  0  0  0  0  0  0  0  0  0  0
   -3.7907   -3.3434   -0.0000 C   0  0  0  0  0  0  0  0  0  0  0  0
  -12.5023    1.3656   -0.0000 C   0  0  0  0  0  0  0  0  0  0  0  0
   -6.4630    3.3434   -0.0000 N   0  0  0  0  0  0  0  0  0  0  0  0
   -2.3427   -3.6965   -0.0000 C   0  0  0  0  0  0  0  0  0  0  0  0
  -13.7854    2.1779   -0.0000 F   0  0  0  0  0  0  0  0  0  0  0  0
   -5.5212    2.2014   -0.0000 C   0  0  0  0  0  0  0  0  0  0  0  0
   -5.9686    4.7678   -0.0000 C   0  0  0  0  0  0  0  0  0  0  0  0
   -1.9424   -5.1328   -0.0000 C   0  0  0  0  0  0  0  0  0  0  0  0
   -1.3067   -2.6135   -0.0000 C   0  0  0  0  0  0  0  0  0  0  0  0
   -4.0615    2.4604   -0.0000 C   0  0  0  0  0  0  0  0  0  0  0  0
   -4.4970    5.0268   -0.0000 C   0  0  0  0  0  0  0  0  0  0  0  0
   -3.5435    3.8849   -0.0000 N   0  0  0  0  0  0  0  0  0  0  0  0
   -2.0719    4.1439   -0.0000 C   0  0  0  0  0  0  0  0  0  0  0  0
  3  4  2  0  0  0  0
  3  5  2  0  0  0  0
  3  6  1  0  0  0  0
  3  7  1  0  0  0  0
  6  8  1  0  0  0  0
  6  9  1  0  0  0  0
  7 10  2  0  0  0  0
  7 11  1  0  0  0  0
  8 12  2  0  0  0  0
  8 13  1  0  0  0  0
  9 14  2  0  0  0  0
 10 15  1  0  0  0  0
 11 16  2  0  0  0  0
 12 17  1  0  0  0  0
 13 18  2  0  0  0  0
 14 19  1  0  0  0  0
 15 20  2  0  0  0  0
 17 21  2  0  0  0  0
 19 22  1  0  0  0  0
 20 23  1  0  0  0  0
 21 24  1  0  0  0  0
 22 25  1  0  0  0  0
 22 26  1  0  0  0  0
 23 27  1  0  0  0  0
 23 28  1  0  0  0  0
 25 29  1  0  0  0  0
 26 30  1  0  0  0  0
 29 31  1  0  0  0  0
 31 32  1  0  0  0  0
 12 14  1  0  0  0  0
 16 20  1  0  0  0  0
 18 21  1  0  0  0  0
 30 31  1  0  0  0  0
M  END
>  <MolRegNo>
2233610

>  <m>
=

>  <Value>
1400

>  <Unit>
nM

>  <Type>
IC50

>  <pValue>
5.85

>  <Ligand Efficiency>
0

>  <Binding Efficiency>
0

>  <Surface Efficiency>
0

>  <Assay Index>
1077009

>  <Assay Category>


>  <Assay Organism>
Homo sapiens

>  <Target ID>
17045

>  <Target Name>
Cytochrome P450 3A4

>  <Target Organism>
Homo sapiens

>  <Target Description>
Target is a single protein chain

>  <Sequence Accession>
P08684

>  <Reference>
J Med Chem 60 (5), 1843-1859 (2017)

>  <Pubmed ID>
28212021

>  <DOI>
10.1021/acs.jmedchem.6b01662

$$$$
2224914
Actelion Java MolfileCreator 1.0

 33 34  0  0  0  0  0  0  0  0999 V2000
    0.0000   -0.0000   -0.0000 Cl  0  0  0  0  0  0  0  0  0  0  0  0
   -3.5906   -0.0000   -0.0000 Cl  0  0  0  0  0  0  0  0  0  0  0  0
   -6.4252   -2.4567   -0.0000 S   0  0  0  0  0  0  0  0  0  0  0  0
   -6.8268   -3.8977   -0.0000 O   0  0  0  0  0  0  0  0  0  0  0  0
   -7.8898   -2.8229   -0.0000 O   0  0  0  0  0  0  0  0  0  0  0  0
   -6.8386   -1.0039   -0.0000 N   0  0  0  0  0  0  0  0  0  0  0  0
   -4.9725   -2.8229   -0.0000 C   0  0  0  0  0  0  0  0  0  0  0  0
   -8.2560   -0.4724   -0.0000 C   0  0  0  0  0  0  0  0  0  0  0  0
   -5.9174    0.1890   -0.0000 C   0  0  0  0  0  0  0  0  0  0  0  0
   -4.5827   -4.2638   -0.0000 C   0  0  0  0  0  0  0  0  0  0  0  0
   -3.9449   -1.7362   -0.0000 C   0  0  0  0  0  0  0  0  0  0  0  0
   -8.2087    1.0394   -0.0000 C   0  0  0  0  0  0  0  0  0  0  0  0
   -9.5906   -1.1575   -0.0000 C   0  0  0  0  0  0  0  0  0  0  0  0
   -6.7678    1.4528   -0.0000 C   0  0  0  0  0  0  0  0  0  0  0  0
   -3.1417   -4.6181   -0.0000 C   0  0  0  0  0  0  0  0  0  0  0  0
   -2.5040   -2.0906   -0.0000 C   0  0  0  0  0  0  0  0  0  0  0  0
   -9.4843    1.8543   -0.0000 C   0  0  0  0  0  0  0  0  0  0  0  0
  -10.8662   -0.3543   -0.0000 C   0  0  0  0  0  0  0  0  0  0  0  0
   -6.2599    2.8701   -0.0000 C   0  0  0  0  0  0  0  0  0  0  0  0
   -2.1024   -3.5315   -0.0000 C   0  0  0  0  0  0  0  0  0  0  0  0
   -9.4371    3.3662   -0.0000 O   0  0  0  0  0  0  0  0  0  0  0  0
  -10.8190    1.1693   -0.0000 C   0  0  0  0  0  0  0  0  0  0  0  0
   -4.7953    3.1417   -0.0000 N   0  0  0  0  0  0  0  0  0  0  0  0
   -0.6614   -3.8858   -0.0000 C   0  0  0  0  0  0  0  0  0  0  0  0
   -8.1142    4.0748   -0.0000 C   0  0  0  0  0  0  0  0  0  0  0  0
   -3.8504    1.9961   -0.0000 C   0  0  0  0  0  0  0  0  0  0  0  0
   -4.2992    4.5591   -0.0000 C   0  0  0  0  0  0  0  0  0  0  0  0
   -0.2717   -5.3150   -0.0000 C   0  0  0  0  0  0  0  0  0  0  0  0
    0.3780   -2.7992   -0.0000 C   0  0  0  0  0  0  0  0  0  0  0  0
   -2.3858    2.2559   -0.0000 C   0  0  0  0  0  0  0  0  0  0  0  0
   -2.8229    4.8189   -0.0000 C   0  0  0  0  0  0  0  0  0  0  0  0
   -1.8780    3.6732   -0.0000 N   0  0  0  0  0  0  0  0  0  0  0  0
   -0.4134    3.9331   -0.0000 C   0  0  0  0  0  0  0  0  0  0  0  0
  3  4  2  0  0  0  0
  3  5  2  0  0  0  0
  3  6  1  0  0  0  0
  3  7  1  0  0  0  0
  6  8  1  0  0  0  0
  6  9  1  0  0  0  0
  7 10  2  0  0  0  0
  7 11  1  0  0  0  0
  8 12  2  0  0  0  0
  8 13  1  0  0  0  0
  9 14  2  0  0  0  0
 10 15  1  0  0  0  0
 11 16  2  0  0  0  0
 12 17  1  0  0  0  0
 13 18  2  0  0  0  0
 14 19  1  0  0  0  0
 15 20  2  0  0  0  0
 17 21  1  0  0  0  0
 17 22  2  0  0  0  0
 19 23  1  0  0  0  0
 20 24  1  0  0  0  0
 21 25  1  0  0  0  0
 23 26  1  0  0  0  0
 23 27  1  0  0  0  0
 24 28  1  0  0  0  0
 24 29  1  0  0  0  0
 26 30  1  0  0  0  0
 27 31  1  0  0  0  0
 30 32  1  0  0  0  0
 32 33  1  0  0  0  0
 12 14  1  0  0  0  0
 16 20  1  0  0  0  0
 18 22  1  0  0  0  0
 31 32  1  0  0  0  0
M  END
>  <MolRegNo>
2224914

>  <m>
=

>  <Value>
7100

>  <Unit>
nM

>  <Type>
IC50

>  <pValue>
5.15

>  <Ligand Efficiency>
0

>  <Binding Efficiency>
0

>  <Surface Efficiency>
0

>  <Assay Index>
1077009

>  <Assay Category>


>  <Assay Organism>
Homo sapiens

>  <Target ID>
17045

>  <Target Name>
Cytochrome P450 3A4

>  <Target Organism>
Homo sapiens

>  <Target Description>
Target is a single protein chain

>  <Sequence Accession>
P08684

>  <Reference>
J Med Chem 60 (5), 1843-1859 (2017)

>  <Pubmed ID>
28212021

>  <DOI>
10.1021/acs.jmedchem.6b01662

$$$$
2222384
Actelion Java MolfileCreator 1.0

 35 36  0  0  0  0  0  0  0  0999 V2000
    0.0000   -0.0000   -0.0000 Br  0  0  0  0  0  0  0  0  0  0  0  0
    0.4013   -1.4281   -0.0000 C   0  0  0  0  0  0  0  0  0  0  0  0
   -0.6491   -2.4902   -0.0000 C   0  0  0  0  0  0  0  0  0  0  0  0
    1.8411   -1.7821   -0.0000 C   0  0  0  0  0  0  0  0  0  0  0  0
   -2.1244   -2.1008   -0.0000 S   0  0  0  0  0  0  0  0  0  0  0  0
   -0.2596   -3.9301   -0.0000 C   0  0  0  0  0  0  0  0  0  0  0  0
    2.2424   -3.2220   -0.0000 C   0  0  0  0  0  0  0  0  0  0  0  0
   -2.5256   -3.5406   -0.0000 O   0  0  0  0  0  0  0  0  0  0  0  0
   -3.5878   -2.4666   -0.0000 O   0  0  0  0  0  0  0  0  0  0  0  0
   -2.5374   -0.6491   -0.0000 N   0  0  0  0  0  0  0  0  0  0  0  0
    1.1802   -4.2842   -0.0000 C   0  0  0  0  0  0  0  0  0  0  0  0
   -3.9537   -0.1180   -0.0000 C   0  0  0  0  0  0  0  0  0  0  0  0
   -1.6169    0.5429   -0.0000 C   0  0  0  0  0  0  0  0  0  0  0  0
   -3.9065    1.3926   -0.0000 C   0  0  0  0  0  0  0  0  0  0  0  0
   -5.2873   -0.8025   -0.0000 C   0  0  0  0  0  0  0  0  0  0  0  0
   -2.4666    1.8057   -0.0000 C   0  0  0  0  0  0  0  0  0  0  0  0
   -5.1811    2.2070   -0.0000 C   0  0  0  0  0  0  0  0  0  0  0  0
   -6.5620   -0.0000   -0.0000 C   0  0  0  0  0  0  0  0  0  0  0  0
   -1.9591    3.2220   -0.0000 C   0  0  0  0  0  0  0  0  0  0  0  0
   -6.5148    1.5225   -0.0000 C   0  0  0  0  0  0  0  0  0  0  0  0
   -0.4957    3.4934   -0.0000 N   0  0  0  0  0  0  0  0  0  0  0  0
   -7.7894    2.3368   -0.0000 O   0  0  0  0  0  0  0  0  0  0  0  0
    0.4485    2.3486   -0.0000 C   0  0  0  0  0  0  0  0  0  0  0  0
    0.0000    4.9097   -0.0000 C   0  0  0  0  0  0  0  0  0  0  0  0
   -7.7422    3.8475   -0.0000 C   0  0  0  0  0  0  0  0  0  0  0  0
    1.9119    2.6083   -0.0000 C   0  0  0  0  0  0  0  0  0  0  0  0
    1.4753    5.1693   -0.0000 C   0  0  0  0  0  0  0  0  0  0  0  0
    2.4194    4.0245   -0.0000 N   0  0  0  0  0  0  0  0  0  0  0  0
    3.8829    4.2842   -0.0000 C   0  0  0  0  0  0  0  0  0  0  0  0
    4.0599    1.2274   -0.0000 S   0  0  0  0  0  0  0  0  0  0  0  0
    3.2928    2.5256   -0.0000 O   0  0  0  0  0  0  0  0  0  0  0  0
    4.7916    2.5374   -0.0000 O   0  0  0  0  0  0  0  0  0  0  0  0
    5.3345    0.4839   -0.0000 O   0  0  0  0  0  0  0  0  0  0  0  0
    2.7617    0.4839   -0.0000 C   0  0  0  0  0  0  0  0  0  0  0  0
    4.6264   -0.8498   -0.0000 O   0  0  0  0  0  0  0  0  0  0  0  0
  1  2  1  0  0  0  0
  2  3  2  0  0  0  0
  2  4  1  0  0  0  0
  3  5  1  0  0  0  0
  3  6  1  0  0  0  0
  4  7  2  0  0  0  0
  5  8  2  0  0  0  0
  5  9  2  0  0  0  0
  5 10  1  0  0  0  0
  6 11  2  0  0  0  0
 10 12  1  0  0  0  0
 10 13  1  0  0  0  0
 12 14  2  0  0  0  0
 12 15  1  0  0  0  0
 13 16  2  0  0  0  0
 14 17  1  0  0  0  0
 15 18  2  0  0  0  0
 16 19  1  0  0  0  0
 17 20  2  0  0  0  0
 19 21  1  0  0  0  0
 20 22  1  0  0  0  0
 21 23  1  0  0  0  0
 21 24  1  0  0  0  0
 22 25  1  0  0  0  0
 23 26  1  0  0  0  0
 24 27  1  0  0  0  0
 26 28  1  0  0  0  0
 28 29  1  0  0  0  0
 30 31  2  0  0  0  0
 30 32  2  0  0  0  0
 30 33  1  0  0  0  0
 30 34  1  0  0  0  0
  7 11  1  0  0  0  0
 14 16  1  0  0  0  0
 18 20  1  0  0  0  0
 27 28  1  0  0  0  0
M  END
>  <MolRegNo>
2222384

>  <m>
=

>  <Value>
1500

>  <Unit>
nM

>  <Type>
IC50

>  <pValue>
5.82

>  <Ligand Efficiency>
0

>  <Binding Efficiency>
0

>  <Surface Efficiency>
0

>  <Assay Index>
1077009

>  <Assay Category>


>  <Assay Organism>
Homo sapiens

>  <Target ID>
17045

>  <Target Name>
Cytochrome P450 3A4

>  <Target Organism>
Homo sapiens

>  <Target Description>
Target is a single protein chain

>  <Sequence Accession>
P08684

>  <Reference>
J Med Chem 60 (5), 1843-1859 (2017)

>  <Pubmed ID>
28212021

>  <DOI>
10.1021/acs.jmedchem.6b01662

$$$$
2240395
Actelion Java MolfileCreator 1.0

 41 42  0  0  0  0  0  0  0  0999 V2000
    0.0000   -0.0000   -0.0000 S   0  0  0  0  0  0  0  0  0  0  0  0
   -0.4017   -1.4414   -0.0000 O   0  0  0  0  0  0  0  0  0  0  0  0
   -1.4650   -0.3662   -0.0000 O   0  0  0  0  0  0  0  0  0  0  0  0
   -0.4135    1.4532   -0.0000 N   0  0  0  0  0  0  0  0  0  0  0  0
    1.4532   -0.3662   -0.0000 C   0  0  0  0  0  0  0  0  0  0  0  0
   -1.8312    1.9848   -0.0000 C   0  0  0  0  0  0  0  0  0  0  0  0
    0.5080    2.6464   -0.0000 C   0  0  0  0  0  0  0  0  0  0  0  0
    1.8430   -1.8076   -0.0000 C   0  0  0  0  0  0  0  0  0  0  0  0
    2.4810    0.7207   -0.0000 C   0  0  0  0  0  0  0  0  0  0  0  0
   -1.7840    3.4971   -0.0000 C   0  0  0  0  0  0  0  0  0  0  0  0
   -3.1663    1.2996   -0.0000 C   0  0  0  0  0  0  0  0  0  0  0  0
   -0.3426    3.9106   -0.0000 C   0  0  0  0  0  0  0  0  0  0  0  0
    3.2844   -2.1620   -0.0000 C   0  0  0  0  0  0  0  0  0  0  0  0
    3.9224    0.3662   -0.0000 C   0  0  0  0  0  0  0  0  0  0  0  0
   -3.0599    4.3122   -0.0000 C   0  0  0  0  0  0  0  0  0  0  0  0
   -4.4422    2.1030   -0.0000 C   0  0  0  0  0  0  0  0  0  0  0  0
    0.1654    5.3283   -0.0000 C   0  0  0  0  0  0  0  0  0  0  0  0
    4.3241   -1.0751   -0.0000 C   0  0  0  0  0  0  0  0  0  0  0  0
   -4.3949    3.6270   -0.0000 C   0  0  0  0  0  0  0  0  0  0  0  0
    1.6304    5.6000   -0.0000 N   0  0  0  0  0  0  0  0  0  0  0  0
    5.7654   -1.4295   -0.0000 C   0  0  0  0  0  0  0  0  0  0  0  0
   -5.6709    4.4422   -0.0000 O   0  0  0  0  0  0  0  0  0  0  0  0
    2.5755    4.4540   -0.0000 C   0  0  0  0  0  0  0  0  0  0  0  0
    2.1266    7.0177   -0.0000 C   0  0  0  0  0  0  0  0  0  0  0  0
    6.1553   -2.8591   -0.0000 C   0  0  0  0  0  0  0  0  0  0  0  0
    6.8051   -0.3426   -0.0000 C   0  0  0  0  0  0  0  0  0  0  0  0
   -5.6236    5.9544   -0.0000 C   0  0  0  0  0  0  0  0  0  0  0  0
    4.0405    4.7139   -0.0000 C   0  0  0  0  0  0  0  0  0  0  0  0
    3.6034    7.2777   -0.0000 C   0  0  0  0  0  0  0  0  0  0  0  0
    4.5485    6.1317   -0.0000 N   0  0  0  0  0  0  0  0  0  0  0  0
    6.0135    6.3916   -0.0000 C   0  0  0  0  0  0  0  0  0  0  0  0
    9.1679    1.6068   -0.0000 S   0  0  0  0  0  0  0  0  0  0  0  0
    8.4000    2.9063   -0.0000 O   0  0  0  0  0  0  0  0  0  0  0  0
    9.9004    2.9181   -0.0000 O   0  0  0  0  0  0  0  0  0  0  0  0
   10.4439    0.8624   -0.0000 O   0  0  0  0  0  0  0  0  0  0  0  0
    7.8684    0.8624   -0.0000 C   0  0  0  0  0  0  0  0  0  0  0  0
    9.2625    5.1038   -0.0000 S   0  0  0  0  0  0  0  0  0  0  0  0
    8.4945    6.4034   -0.0000 O   0  0  0  0  0  0  0  0  0  0  0  0
    9.9950    6.4152   -0.0000 O   0  0  0  0  0  0  0  0  0  0  0  0
   10.5384    4.3595   -0.0000 O   0  0  0  0  0  0  0  0  0  0  0  0
    7.9629    4.3595   -0.0000 C   0  0  0  0  0  0  0  0  0  0  0  0
  1  2  2  0  0  0  0
  1  3  2  0  0  0  0
  1  4  1  0  0  0  0
  1  5  1  0  0  0  0
  4  6  1  0  0  0  0
  4  7  1  0  0  0  0
  5  8  2  0  0  0  0
  5  9  1  0  0  0  0
  6 10  2  0  0  0  0
  6 11  1  0  0  0  0
  7 12  2  0  0  0  0
  8 13  1  0  0  0  0
  9 14  2  0  0  0  0
 10 15  1  0  0  0  0
 11 16  2  0  0  0  0
 12 17  1  0  0  0  0
 13 18  2  0  0  0  0
 15 19  2  0  0  0  0
 17 20  1  0  0  0  0
 18 21  1  0  0  0  0
 19 22  1  0  0  0  0
 20 23  1  0  0  0  0
 20 24  1  0  0  0  0
 21 25  1  0  0  0  0
 21 26  1  0  0  0  0
 22 27  1  0  0  0  0
 23 28  1  0  0  0  0
 24 29  1  0  0  0  0
 28 30  1  0  0  0  0
 30 31  1  0  0  0  0
 32 33  2  0  0  0  0
 32 34  2  0  0  0  0
 32 35  1  0  0  0  0
 32 36  1  0  0  0  0
 37 38  2  0  0  0  0
 37 39  2  0  0  0  0
 37 40  1  0  0  0  0
 37 41  1  0  0  0  0
 10 12  1  0  0  0  0
 14 18  1  0  0  0  0
 16 19  1  0  0  0  0
 29 30  1  0  0  0  0
M  END
>  <MolRegNo>
2240395

>  <m>
=

>  <Value>
1850

>  <Unit>
nM

>  <Type>
IC50

>  <pValue>
5.73

>  <Ligand Efficiency>
0

>  <Binding Efficiency>
0

>  <Surface Efficiency>
0

>  <Assay Index>
1077009

>  <Assay Category>


>  <Assay Organism>
Homo sapiens

>  <Target ID>
17045

>  <Target Name>
Cytochrome P450 3A4

>  <Target Organism>
Homo sapiens

>  <Target Description>
Target is a single protein chain

>  <Sequence Accession>
P08684

>  <Reference>
J Med Chem 60 (5), 1843-1859 (2017)

>  <Pubmed ID>
28212021

>  <DOI>
10.1021/acs.jmedchem.6b01662

$$$$
2213497
Actelion Java MolfileCreator 1.0

 39 40  0  0  0  0  0  0  0  0999 V2000
    0.0000   -0.0000   -0.0000 S   0  0  0  0  0  0  0  0  0  0  0  0
   -0.4016   -1.4410   -0.0000 O   0  0  0  0  0  0  0  0  0  0  0  0
   -1.4646   -0.3662   -0.0000 O   0  0  0  0  0  0  0  0  0  0  0  0
   -0.4134    1.4528   -0.0000 N   0  0  0  0  0  0  0  0  0  0  0  0
    1.4528   -0.3662   -0.0000 C   0  0  0  0  0  0  0  0  0  0  0  0
   -1.8308    1.9843   -0.0000 C   0  0  0  0  0  0  0  0  0  0  0  0
    0.5079    2.6458   -0.0000 C   0  0  0  0  0  0  0  0  0  0  0  0
    1.8426   -1.8072   -0.0000 C   0  0  0  0  0  0  0  0  0  0  0  0
    2.4804    0.7205   -0.0000 C   0  0  0  0  0  0  0  0  0  0  0  0
   -1.7835    3.4962   -0.0000 C   0  0  0  0  0  0  0  0  0  0  0  0
   -3.1655    1.2993   -0.0000 C   0  0  0  0  0  0  0  0  0  0  0  0
   -0.3425    3.9096   -0.0000 C   0  0  0  0  0  0  0  0  0  0  0  0
    3.2836   -2.1615   -0.0000 C   0  0  0  0  0  0  0  0  0  0  0  0
    3.9214    0.3662   -0.0000 C   0  0  0  0  0  0  0  0  0  0  0  0
   -3.0592    4.3112   -0.0000 C   0  0  0  0  0  0  0  0  0  0  0  0
   -4.4412    2.1025   -0.0000 C   0  0  0  0  0  0  0  0  0  0  0  0
    0.1654    5.3270   -0.0000 C   0  0  0  0  0  0  0  0  0  0  0  0
    4.3230   -1.0749   -0.0000 C   0  0  0  0  0  0  0  0  0  0  0  0
   -4.3939    3.6262   -0.0000 C   0  0  0  0  0  0  0  0  0  0  0  0
    1.6300    5.5987   -0.0000 N   0  0  0  0  0  0  0  0  0  0  0  0
    5.7641   -1.4292   -0.0000 F   0  0  0  0  0  0  0  0  0  0  0  0
   -5.6696    4.4412   -0.0000 O   0  0  0  0  0  0  0  0  0  0  0  0
    2.5749    4.4530   -0.0000 C   0  0  0  0  0  0  0  0  0  0  0  0
    2.1261    7.0161   -0.0000 C   0  0  0  0  0  0  0  0  0  0  0  0
   -5.6223    5.9530   -0.0000 C   0  0  0  0  0  0  0  0  0  0  0  0
    4.0396    4.7128   -0.0000 C   0  0  0  0  0  0  0  0  0  0  0  0
    3.6025    7.2759   -0.0000 C   0  0  0  0  0  0  0  0  0  0  0  0
    4.5475    6.1302   -0.0000 N   0  0  0  0  0  0  0  0  0  0  0  0
    6.0121    6.3901   -0.0000 C   0  0  0  0  0  0  0  0  0  0  0  0
    8.3154    0.1890   -0.0000 S   0  0  0  0  0  0  0  0  0  0  0  0
    7.5476    1.4883   -0.0000 O   0  0  0  0  0  0  0  0  0  0  0  0
    9.0477    1.5001   -0.0000 O   0  0  0  0  0  0  0  0  0  0  0  0
    9.5910   -0.5551   -0.0000 O   0  0  0  0  0  0  0  0  0  0  0  0
    7.0161   -0.5551   -0.0000 C   0  0  0  0  0  0  0  0  0  0  0  0
    7.9374    4.2522   -0.0000 S   0  0  0  0  0  0  0  0  0  0  0  0
    7.1696    5.5514   -0.0000 O   0  0  0  0  0  0  0  0  0  0  0  0
    8.6697    5.5633   -0.0000 O   0  0  0  0  0  0  0  0  0  0  0  0
    9.2130    3.5080   -0.0000 O   0  0  0  0  0  0  0  0  0  0  0  0
    6.6381    3.5080   -0.0000 C   0  0  0  0  0  0  0  0  0  0  0  0
  1  2  2  0  0  0  0
  1  3  2  0  0  0  0
  1  4  1  0  0  0  0
  1  5  1  0  0  0  0
  4  6  1  0  0  0  0
  4  7  1  0  0  0  0
  5  8  2  0  0  0  0
  5  9  1  0  0  0  0
  6 10  2  0  0  0  0
  6 11  1  0  0  0  0
  7 12  2  0  0  0  0
  8 13  1  0  0  0  0
  9 14  2  0  0  0  0
 10 15  1  0  0  0  0
 11 16  2  0  0  0  0
 12 17  1  0  0  0  0
 13 18  2  0  0  0  0
 15 19  2  0  0  0  0
 17 20  1  0  0  0  0
 18 21  1  0  0  0  0
 19 22  1  0  0  0  0
 20 23  1  0  0  0  0
 20 24  1  0  0  0  0
 22 25  1  0  0  0  0
 23 26  1  0  0  0  0
 24 27  1  0  0  0  0
 26 28  1  0  0  0  0
 28 29  1  0  0  0  0
 30 31  2  0  0  0  0
 30 32  2  0  0  0  0
 30 33  1  0  0  0  0
 30 34  1  0  0  0  0
 35 36  2  0  0  0  0
 35 37  2  0  0  0  0
 35 38  1  0  0  0  0
 35 39  1  0  0  0  0
 10 12  1  0  0  0  0
 14 18  1  0  0  0  0
 16 19  1  0  0  0  0
 27 28  1  0  0  0  0
M  END
>  <MolRegNo>
2213497

>  <m>
=

>  <Value>
1710

>  <Unit>
nM

>  <Type>
IC50

>  <pValue>
5.77

>  <Ligand Efficiency>
0

>  <Binding Efficiency>
0

>  <Surface Efficiency>
0

>  <Assay Index>
1077009

>  <Assay Category>


>  <Assay Organism>
Homo sapiens

>  <Target ID>
17045

>  <Target Name>
Cytochrome P450 3A4

>  <Target Organism>
Homo sapiens

>  <Target Description>
Target is a single protein chain

>  <Sequence Accession>
P08684

>  <Reference>
J Med Chem 60 (5), 1843-1859 (2017)

>  <Pubmed ID>
28212021

>  <DOI>
10.1021/acs.jmedchem.6b01662

$$$$
2241195
Actelion Java MolfileCreator 1.0

 34 35  0  0  0  0  0  0  0  0999 V2000
    0.0000   -0.0000   -0.0000 Cl  0  0  0  0  0  0  0  0  0  0  0  0
   -3.1220   -0.0946   -0.0000 Cl  0  0  0  0  0  0  0  0  0  0  0  0
   -6.5279   -2.4598   -0.0000 S   0  0  0  0  0  0  0  0  0  0  0  0
   -6.9300   -3.8907   -0.0000 O   0  0  0  0  0  0  0  0  0  0  0  0
   -7.9943   -2.8264   -0.0000 O   0  0  0  0  0  0  0  0  0  0  0  0
   -6.9418   -1.0052   -0.0000 N   0  0  0  0  0  0  0  0  0  0  0  0
   -5.0733   -2.8146   -0.0000 C   0  0  0  0  0  0  0  0  0  0  0  0
   -8.3609   -0.4730   -0.0000 C   0  0  0  0  0  0  0  0  0  0  0  0
   -6.0194    0.1892   -0.0000 C   0  0  0  0  0  0  0  0  0  0  0  0
   -4.6831   -4.2455   -0.0000 C   0  0  0  0  0  0  0  0  0  0  0  0
   -4.0445   -1.7266   -0.0000 C   0  0  0  0  0  0  0  0  0  0  0  0
   -8.3136    1.0289   -0.0000 C   0  0  0  0  0  0  0  0  0  0  0  0
   -9.6854   -1.1589   -0.0000 C   0  0  0  0  0  0  0  0  0  0  0  0
   -6.8709    1.4546   -0.0000 C   0  0  0  0  0  0  0  0  0  0  0  0
   -3.2403   -4.6003   -0.0000 C   0  0  0  0  0  0  0  0  0  0  0  0
   -2.6017   -2.0814   -0.0000 C   0  0  0  0  0  0  0  0  0  0  0  0
   -9.5908    1.8448   -0.0000 C   0  0  0  0  0  0  0  0  0  0  0  0
  -10.9626   -0.3548   -0.0000 C   0  0  0  0  0  0  0  0  0  0  0  0
   -6.3624    2.8737   -0.0000 C   0  0  0  0  0  0  0  0  0  0  0  0
   -2.1996   -3.5123   -0.0000 C   0  0  0  0  0  0  0  0  0  0  0  0
  -10.9272    1.1589   -0.0000 C   0  0  0  0  0  0  0  0  0  0  0  0
   -4.8959    3.1457   -0.0000 N   0  0  0  0  0  0  0  0  0  0  0  0
   -0.7569   -3.8671   -0.0000 C   0  0  0  0  0  0  0  0  0  0  0  0
  -12.2044    1.9749   -0.0000 O   0  0  0  0  0  0  0  0  0  0  0  0
   -4.5057    4.5885   -0.0000 C   0  0  0  0  0  0  0  0  0  0  0  0
   -4.0326    1.9276   -0.0000 C   0  0  0  0  0  0  0  0  0  0  0  0
   -0.3666   -5.2980   -0.0000 C   0  0  0  0  0  0  0  0  0  0  0  0
    0.2838   -2.7791   -0.0000 C   0  0  0  0  0  0  0  0  0  0  0  0
  -12.1571    3.4886   -0.0000 C   0  0  0  0  0  0  0  0  0  0  0  0
   -3.1339    5.1798   -0.0000 C   0  0  0  0  0  0  0  0  0  0  0  0
   -2.5426    1.8685   -0.0000 C   0  0  0  0  0  0  0  0  0  0  0  0
   -1.8212    4.4820   -0.0000 N   0  0  0  0  0  0  0  0  0  0  0  0
   -1.5610    3.0156   -0.0000 C   0  0  0  0  0  0  0  0  0  0  0  0
   -0.6149    5.3690   -0.0000 C   0  0  0  0  0  0  0  0  0  0  0  0
  3  4  2  0  0  0  0
  3  5  2  0  0  0  0
  3  6  1  0  0  0  0
  3  7  1  0  0  0  0
  6  8  1  0  0  0  0
  6  9  1  0  0  0  0
  7 10  2  0  0  0  0
  7 11  1  0  0  0  0
  8 12  2  0  0  0  0
  8 13  1  0  0  0  0
  9 14  2  0  0  0  0
 10 15  1  0  0  0  0
 11 16  2  0  0  0  0
 12 17  1  0  0  0  0
 13 18  2  0  0  0  0
 14 19  1  0  0  0  0
 15 20  2  0  0  0  0
 17 21  2  0  0  0  0
 19 22  1  0  0  0  0
 20 23  1  0  0  0  0
 21 24  1  0  0  0  0
 22 25  1  0  0  0  0
 22 26  1  0  0  0  0
 23 27  1  0  0  0  0
 23 28  1  0  0  0  0
 24 29  1  0  0  0  0
 25 30  1  0  0  0  0
 26 31  1  0  0  0  0
 30 32  1  0  0  0  0
 31 33  1  0  0  0  0
 32 34  1  0  0  0  0
 12 14  1  0  0  0  0
 16 20  1  0  0  0  0
 18 21  1  0  0  0  0
 32 33  1  0  0  0  0
M  END
>  <MolRegNo>
2241195

>  <m>
=

>  <Value>
2200

>  <Unit>
nM

>  <Type>
IC50

>  <pValue>
5.66

>  <Ligand Efficiency>
0

>  <Binding Efficiency>
0

>  <Surface Efficiency>
0

>  <Assay Index>
1077009

>  <Assay Category>


>  <Assay Organism>
Homo sapiens

>  <Target ID>
17045

>  <Target Name>
Cytochrome P450 3A4

>  <Target Organism>
Homo sapiens

>  <Target Description>
Target is a single protein chain

>  <Sequence Accession>
P08684

>  <Reference>
J Med Chem 60 (5), 1843-1859 (2017)

>  <Pubmed ID>
28212021

>  <DOI>
10.1021/acs.jmedchem.6b01662

$$$$
406089
Actelion Java MolfileCreator 1.0

 20 21  0  0  0  0  0  0  0  0999 V2000
    0.0000   -0.0000   -0.0000 O   0  0  0  0  0  0  0  0  0  0  0  0
   -0.0119   -1.4904   -0.0000 C   0  0  0  0  0  0  0  0  0  0  0  0
   -1.3235   -2.2297   -0.0000 C   0  0  0  0  0  0  0  0  0  0  0  0
    1.2758   -2.2297   -0.0000 C   0  0  0  0  0  0  0  0  0  0  0  0
   -2.6351   -1.4666   -0.0000 C   0  0  0  0  0  0  0  0  0  0  0  0
   -1.3354   -3.7320   -0.0000 C   0  0  0  0  0  0  0  0  0  0  0  0
    2.5635   -1.4666   -0.0000 C   0  0  0  0  0  0  0  0  0  0  0  0
   -2.6470    0.0477   -0.0000 O   0  0  0  0  0  0  0  0  0  0  0  0
   -3.9467   -2.2058   -0.0000 C   0  0  0  0  0  0  0  0  0  0  0  0
   -2.6589   -4.4713   -0.0000 C   0  0  0  0  0  0  0  0  0  0  0  0
    3.8513   -2.2058   -0.0000 C   0  0  0  0  0  0  0  0  0  0  0  0
   -1.3593    0.8108   -0.0000 C   0  0  0  0  0  0  0  0  0  0  0  0
   -3.9586   -3.7082   -0.0000 C   0  0  0  0  0  0  0  0  0  0  0  0
    5.1271   -1.4308   -0.0000 C   0  0  0  0  0  0  0  0  0  0  0  0
    3.8394   -3.6963   -0.0000 C   0  0  0  0  0  0  0  0  0  0  0  0
   -5.2702   -4.4474   -0.0000 O   0  0  0  0  0  0  0  0  0  0  0  0
    6.4148   -2.1581   -0.0000 N   0  0  0  0  0  0  0  0  0  0  0  0
    5.1271   -4.4355   -0.0000 C   0  0  0  0  0  0  0  0  0  0  0  0
   -6.5817   -3.6843   -0.0000 C   0  0  0  0  0  0  0  0  0  0  0  0
    6.4148   -3.6605   -0.0000 C   0  0  0  0  0  0  0  0  0  0  0  0
  1  2  2  0  0  0  0
  2  3  1  0  0  0  0
  2  4  1  0  0  0  0
  3  5  2  0  0  0  0
  3  6  1  0  0  0  0
  4  7  2  0  0  0  0
  5  8  1  0  0  0  0
  5  9  1  0  0  0  0
  6 10  2  0  0  0  0
  7 11  1  0  0  0  0
  8 12  1  0  0  0  0
  9 13  2  0  0  0  0
 11 14  2  0  0  0  0
 11 15  1  0  0  0  0
 13 16  1  0  0  0  0
 14 17  1  0  0  0  0
 15 18  2  0  0  0  0
 16 19  1  0  0  0  0
 17 20  2  0  0  0  0
 10 13  1  0  0  0  0
 18 20  1  0  0  0  0
M  END
>  <MolRegNo>
406089

>  <m>
=

>  <Value>
11000

>  <Unit>
nM

>  <Type>
IC50

>  <pValue>
4.96

>  <Ligand Efficiency>
0

>  <Binding Efficiency>
0

>  <Surface Efficiency>
0

>  <Assay Index>
1077438

>  <Assay Category>


>  <Assay Organism>
Homo sapiens

>  <Target ID>
17045

>  <Target Name>
Cytochrome P450 3A4

>  <Target Organism>
Homo sapiens

>  <Target Description>
Target is a single protein chain

>  <Sequence Accession>
P08684

>  <Reference>


>  <Pubmed ID>
28222316

>  <DOI>
10.1016/j.ejmech.2017.02.016

$$$$
2205195
Actelion Java MolfileCreator 1.0

 17 18  0  0  0  0  0  0  0  0999 V2000
    0.0000   -0.0000   -0.0000 Cl  0  0  0  0  0  0  0  0  0  0  0  0
   -1.3041   -0.7469   -0.0000 C   0  0  0  0  0  0  0  0  0  0  0  0
   -2.6081   -0.0000   -0.0000 C   0  0  0  0  0  0  0  0  0  0  0  0
   -1.3041   -2.2406   -0.0000 C   0  0  0  0  0  0  0  0  0  0  0  0
   -3.9003   -0.7469   -0.0000 C   0  0  0  0  0  0  0  0  0  0  0  0
   -2.6081   -2.9756   -0.0000 C   0  0  0  0  0  0  0  0  0  0  0  0
   -5.2044    0.0119   -0.0000 C   0  0  0  0  0  0  0  0  0  0  0  0
   -3.9122   -2.2288   -0.0000 C   0  0  0  0  0  0  0  0  0  0  0  0
   -5.2163    1.5175   -0.0000 O   0  0  0  0  0  0  0  0  0  0  0  0
   -6.5085   -0.7232   -0.0000 C   0  0  0  0  0  0  0  0  0  0  0  0
   -7.8126    0.0356   -0.0000 C   0  0  0  0  0  0  0  0  0  0  0  0
   -9.1166   -0.6995   -0.0000 C   0  0  0  0  0  0  0  0  0  0  0  0
   -9.1285   -2.1932   -0.0000 C   0  0  0  0  0  0  0  0  0  0  0  0
  -10.4207    0.0593   -0.0000 C   0  0  0  0  0  0  0  0  0  0  0  0
  -10.4444   -2.9282   -0.0000 N   0  0  0  0  0  0  0  0  0  0  0  0
  -11.7248   -0.6757   -0.0000 C   0  0  0  0  0  0  0  0  0  0  0  0
  -11.7485   -2.1695   -0.0000 C   0  0  0  0  0  0  0  0  0  0  0  0
  1  2  1  0  0  0  0
  2  3  2  0  0  0  0
  2  4  1  0  0  0  0
  3  5  1  0  0  0  0
  4  6  2  0  0  0  0
  5  7  1  0  0  0  0
  5  8  2  0  0  0  0
  7  9  2  0  0  0  0
  7 10  1  0  0  0  0
 10 11  2  0  0  0  0
 11 12  1  0  0  0  0
 12 13  2  0  0  0  0
 12 14  1  0  0  0  0
 13 15  1  0  0  0  0
 14 16  2  0  0  0  0
 15 17  2  0  0  0  0
  6  8  1  0  0  0  0
 16 17  1  0  0  0  0
M  END
>  <MolRegNo>
2205195

>  <m>
=

>  <Value>
12500

>  <Unit>
nM

>  <Type>
IC50

>  <pValue>
4.9

>  <Ligand Efficiency>
0

>  <Binding Efficiency>
0

>  <Surface Efficiency>
0

>  <Assay Index>
1077438

>  <Assay Category>


>  <Assay Organism>
Homo sapiens

>  <Target ID>
17045

>  <Target Name>
Cytochrome P450 3A4

>  <Target Organism>
Homo sapiens

>  <Target Description>
Target is a single protein chain

>  <Sequence Accession>
P08684

>  <Reference>


>  <Pubmed ID>
28222316

>  <DOI>
10.1016/j.ejmech.2017.02.016

$$$$
2224888
Actelion Java MolfileCreator 1.0

 17 18  0  0  0  0  0  0  0  0999 V2000
    0.0000   -0.0000   -0.0000 Br  0  0  0  0  0  0  0  0  0  0  0  0
    1.2880   -0.7513   -0.0000 C   0  0  0  0  0  0  0  0  0  0  0  0
    2.5878    0.0119   -0.0000 C   0  0  0  0  0  0  0  0  0  0  0  0
    1.2641   -2.2420   -0.0000 C   0  0  0  0  0  0  0  0  0  0  0  0
    3.8758   -0.7394   -0.0000 C   0  0  0  0  0  0  0  0  0  0  0  0
    2.5521   -2.9933   -0.0000 C   0  0  0  0  0  0  0  0  0  0  0  0
    5.1757    0.0239   -0.0000 C   0  0  0  0  0  0  0  0  0  0  0  0
    3.8519   -2.2420   -0.0000 C   0  0  0  0  0  0  0  0  0  0  0  0
    5.1757    1.5384   -0.0000 O   0  0  0  0  0  0  0  0  0  0  0  0
    6.4636   -0.7275   -0.0000 C   0  0  0  0  0  0  0  0  0  0  0  0
    7.7755    0.0358   -0.0000 C   0  0  0  0  0  0  0  0  0  0  0  0
    9.0634   -0.7155   -0.0000 C   0  0  0  0  0  0  0  0  0  0  0  0
    9.0396   -2.2182   -0.0000 C   0  0  0  0  0  0  0  0  0  0  0  0
   10.3633    0.0477   -0.0000 C   0  0  0  0  0  0  0  0  0  0  0  0
   10.3275   -2.9695   -0.0000 N   0  0  0  0  0  0  0  0  0  0  0  0
   11.6513   -0.7036   -0.0000 C   0  0  0  0  0  0  0  0  0  0  0  0
   11.6274   -2.2062   -0.0000 C   0  0  0  0  0  0  0  0  0  0  0  0
  1  2  1  0  0  0  0
  2  3  2  0  0  0  0
  2  4  1  0  0  0  0
  3  5  1  0  0  0  0
  4  6  2  0  0  0  0
  5  7  1  0  0  0  0
  5  8  2  0  0  0  0
  7  9  2  0  0  0  0
  7 10  1  0  0  0  0
 10 11  2  0  0  0  0
 11 12  1  0  0  0  0
 12 13  2  0  0  0  0
 12 14  1  0  0  0  0
 13 15  1  0  0  0  0
 14 16  2  0  0  0  0
 15 17  2  0  0  0  0
  6  8  1  0  0  0  0
 16 17  1  0  0  0  0
M  END
>  <MolRegNo>
2224888

>  <m>
=

>  <Value>
14000

>  <Unit>
nM

>  <Type>
IC50

>  <pValue>
4.85

>  <Ligand Efficiency>
0

>  <Binding Efficiency>
0

>  <Surface Efficiency>
0

>  <Assay Index>
1077438

>  <Assay Category>


>  <Assay Organism>
Homo sapiens

>  <Target ID>
17045

>  <Target Name>
Cytochrome P450 3A4

>  <Target Organism>
Homo sapiens

>  <Target Description>
Target is a single protein chain

>  <Sequence Accession>
P08684

>  <Reference>


>  <Pubmed ID>
28222316

>  <DOI>
10.1016/j.ejmech.2017.02.016

$$$$
2203244
Actelion Java MolfileCreator 1.0

 20 22  0  0  0  0  0  0  0  0999 V2000
    0.0000   -0.0000   -0.0000 O   0  0  0  0  0  0  0  0  0  0  0  0
   -0.0238   -1.4847   -0.0000 C   0  0  0  0  0  0  0  0  0  0  0  0
   -1.3422   -2.2211   -0.0000 C   0  0  0  0  0  0  0  0  0  0  0  0
    1.2590   -2.2330   -0.0000 C   0  0  0  0  0  0  0  0  0  0  0  0
   -2.6487   -1.4490   -0.0000 C   0  0  0  0  0  0  0  0  0  0  0  0
   -1.3659   -3.7176   -0.0000 C   0  0  0  0  0  0  0  0  0  0  0  0
    2.5655   -1.4728   -0.0000 C   0  0  0  0  0  0  0  0  0  0  0  0
   -3.9671   -2.1855   -0.0000 C   0  0  0  0  0  0  0  0  0  0  0  0
   -2.6843   -4.4540   -0.0000 C   0  0  0  0  0  0  0  0  0  0  0  0
    3.8483   -2.2211   -0.0000 C   0  0  0  0  0  0  0  0  0  0  0  0
   -3.9908   -3.6701   -0.0000 C   0  0  0  0  0  0  0  0  0  0  0  0
   -5.2617   -1.4134   -0.0000 C   0  0  0  0  0  0  0  0  0  0  0  0
    3.8245   -3.7176   -0.0000 C   0  0  0  0  0  0  0  0  0  0  0  0
    5.1429   -1.4609   -0.0000 C   0  0  0  0  0  0  0  0  0  0  0  0
   -5.2973   -4.3947   -0.0000 C   0  0  0  0  0  0  0  0  0  0  0  0
   -6.5801   -2.1379   -0.0000 C   0  0  0  0  0  0  0  0  0  0  0  0
    5.1073   -4.4659   -0.0000 N   0  0  0  0  0  0  0  0  0  0  0  0
    6.4257   -2.2092   -0.0000 C   0  0  0  0  0  0  0  0  0  0  0  0
   -6.6039   -3.6345   -0.0000 C   0  0  0  0  0  0  0  0  0  0  0  0
    6.4019   -3.7058   -0.0000 C   0  0  0  0  0  0  0  0  0  0  0  0
  1  2  2  0  0  0  0
  2  3  1  0  0  0  0
  2  4  1  0  0  0  0
  3  5  2  0  0  0  0
  3  6  1  0  0  0  0
  4  7  2  0  0  0  0
  5  8  1  0  0  0  0
  6  9  2  0  0  0  0
  7 10  1  0  0  0  0
  8 11  1  0  0  0  0
  8 12  2  0  0  0  0
 10 13  2  0  0  0  0
 10 14  1  0  0  0  0
 11 15  2  0  0  0  0
 12 16  1  0  0  0  0
 13 17  1  0  0  0  0
 14 18  2  0  0  0  0
 15 19  1  0  0  0  0
 17 20  2  0  0  0  0
  9 11  1  0  0  0  0
 16 19  2  0  0  0  0
 18 20  1  0  0  0  0
M  END
>  <MolRegNo>
2203244

>  <m>
=

>  <Value>
28000

>  <Unit>
nM

>  <Type>
IC50

>  <pValue>
4.55

>  <Ligand Efficiency>
0

>  <Binding Efficiency>
0

>  <Surface Efficiency>
0

>  <Assay Index>
1077438

>  <Assay Category>


>  <Assay Organism>
Homo sapiens

>  <Target ID>
17045

>  <Target Name>
Cytochrome P450 3A4

>  <Target Organism>
Homo sapiens

>  <Target Description>
Target is a single protein chain

>  <Sequence Accession>
P08684

>  <Reference>


>  <Pubmed ID>
28222316

>  <DOI>
10.1016/j.ejmech.2017.02.016

$$$$
2232648
Actelion Java MolfileCreator 1.0

 22 24  0  0  0  0  0  0  0  0999 V2000
    0.0000   -0.0000   -0.0000 O   0  0  0  0  0  0  0  0  0  0  0  0
   -0.0237   -1.4831   -0.0000 C   0  0  0  0  0  0  0  0  0  0  0  0
   -1.3407   -2.2187   -0.0000 C   0  0  0  0  0  0  0  0  0  0  0  0
    1.2577   -2.2306   -0.0000 C   0  0  0  0  0  0  0  0  0  0  0  0
   -2.6459   -1.4475   -0.0000 C   0  0  0  0  0  0  0  0  0  0  0  0
   -1.3645   -3.7137   -0.0000 C   0  0  0  0  0  0  0  0  0  0  0  0
    2.5628   -1.4713   -0.0000 C   0  0  0  0  0  0  0  0  0  0  0  0
   -3.9629   -2.1832   -0.0000 C   0  0  0  0  0  0  0  0  0  0  0  0
   -2.6815   -4.4494   -0.0000 C   0  0  0  0  0  0  0  0  0  0  0  0
    3.8442   -2.2187   -0.0000 C   0  0  0  0  0  0  0  0  0  0  0  0
   -3.9866   -3.6663   -0.0000 C   0  0  0  0  0  0  0  0  0  0  0  0
   -5.2562   -1.4119   -0.0000 C   0  0  0  0  0  0  0  0  0  0  0  0
    3.8205   -3.7137   -0.0000 C   0  0  0  0  0  0  0  0  0  0  0  0
    5.1375   -1.4594   -0.0000 C   0  0  0  0  0  0  0  0  0  0  0  0
   -5.2918   -4.3900   -0.0000 C   0  0  0  0  0  0  0  0  0  0  0  0
   -6.5732   -2.1357   -0.0000 C   0  0  0  0  0  0  0  0  0  0  0  0
    5.1019   -4.4612   -0.0000 N   0  0  0  0  0  0  0  0  0  0  0  0
    6.4189   -2.2069   -0.0000 C   0  0  0  0  0  0  0  0  0  0  0  0
   -6.5969   -3.6307   -0.0000 C   0  0  0  0  0  0  0  0  0  0  0  0
    6.3952   -3.7019   -0.0000 C   0  0  0  0  0  0  0  0  0  0  0  0
   -7.9139   -4.3663   -0.0000 O   0  0  0  0  0  0  0  0  0  0  0  0
   -9.2309   -3.5951   -0.0000 C   0  0  0  0  0  0  0  0  0  0  0  0
  1  2  2  0  0  0  0
  2  3  1  0  0  0  0
  2  4  1  0  0  0  0
  3  5  2  0  0  0  0
  3  6  1  0  0  0  0
  4  7  2  0  0  0  0
  5  8  1  0  0  0  0
  6  9  2  0  0  0  0
  7 10  1  0  0  0  0
  8 11  1  0  0  0  0
  8 12  2  0  0  0  0
 10 13  2  0  0  0  0
 10 14  1  0  0  0  0
 11 15  2  0  0  0  0
 12 16  1  0  0  0  0
 13 17  1  0  0  0  0
 14 18  2  0  0  0  0
 15 19  1  0  0  0  0
 17 20  2  0  0  0  0
 19 21  1  0  0  0  0
 21 22  1  0  0  0  0
  9 11  1  0  0  0  0
 16 19  2  0  0  0  0
 18 20  1  0  0  0  0
M  END
>  <MolRegNo>
2232648

>  <m>
=

>  <Value>
10600

>  <Unit>
nM

>  <Type>
IC50

>  <pValue>
4.97

>  <Ligand Efficiency>
0

>  <Binding Efficiency>
0

>  <Surface Efficiency>
0

>  <Assay Index>
1077438

>  <Assay Category>


>  <Assay Organism>
Homo sapiens

>  <Target ID>
17045

>  <Target Name>
Cytochrome P450 3A4

>  <Target Organism>
Homo sapiens

>  <Target Description>
Target is a single protein chain

>  <Sequence Accession>
P08684

>  <Reference>


>  <Pubmed ID>
28222316

>  <DOI>
10.1016/j.ejmech.2017.02.016

$$$$
2211870
Actelion Java MolfileCreator 1.0

 20 22  0  0  0  0  0  0  0  0999 V2000
    0.0000   -0.0000   -0.0000 O   0  0  0  0  0  0  0  0  0  0  0  0
   -0.0237   -1.4826   -0.0000 C   0  0  0  0  0  0  0  0  0  0  0  0
   -1.3403   -2.2180   -0.0000 C   0  0  0  0  0  0  0  0  0  0  0  0
    1.2572   -2.2298   -0.0000 C   0  0  0  0  0  0  0  0  0  0  0  0
   -2.6450   -1.4589   -0.0000 C   0  0  0  0  0  0  0  0  0  0  0  0
   -1.3640   -3.7124   -0.0000 C   0  0  0  0  0  0  0  0  0  0  0  0
    2.5619   -1.4707   -0.0000 C   0  0  0  0  0  0  0  0  0  0  0  0
   -3.9615   -2.1943   -0.0000 C   0  0  0  0  0  0  0  0  0  0  0  0
   -2.6450    0.0474   -0.0000 C   0  0  0  0  0  0  0  0  0  0  0  0
   -2.6805   -4.4478   -0.0000 C   0  0  0  0  0  0  0  0  0  0  0  0
    3.8429   -2.2180   -0.0000 C   0  0  0  0  0  0  0  0  0  0  0  0
   -3.9852   -3.6769   -0.0000 C   0  0  0  0  0  0  0  0  0  0  0  0
   -5.2662   -1.4352   -0.0000 C   0  0  0  0  0  0  0  0  0  0  0  0
   -3.9497    0.8184   -0.0000 C   0  0  0  0  0  0  0  0  0  0  0  0
    3.8192   -3.7124   -0.0000 C   0  0  0  0  0  0  0  0  0  0  0  0
    5.1357   -1.4589   -0.0000 C   0  0  0  0  0  0  0  0  0  0  0  0
   -5.2781    0.0712   -0.0000 C   0  0  0  0  0  0  0  0  0  0  0  0
    5.1002   -4.4597   -0.0000 N   0  0  0  0  0  0  0  0  0  0  0  0
    6.4167   -2.2061   -0.0000 C   0  0  0  0  0  0  0  0  0  0  0  0
    6.3930   -3.7006   -0.0000 C   0  0  0  0  0  0  0  0  0  0  0  0
  1  2  2  0  0  0  0
  2  3  1  0  0  0  0
  2  4  1  0  0  0  0
  3  5  1  0  0  0  0
  3  6  2  0  0  0  0
  4  7  2  0  0  0  0
  5  8  1  0  0  0  0
  5  9  2  0  0  0  0
  6 10  1  0  0  0  0
  7 11  1  0  0  0  0
  8 12  1  0  0  0  0
  8 13  2  0  0  0  0
  9 14  1  0  0  0  0
 11 15  2  0  0  0  0
 11 16  1  0  0  0  0
 13 17  1  0  0  0  0
 15 18  1  0  0  0  0
 16 19  2  0  0  0  0
 18 20  2  0  0  0  0
 10 12  2  0  0  0  0
 14 17  2  0  0  0  0
 19 20  1  0  0  0  0
M  END
>  <MolRegNo>
2211870

>  <m>
=

>  <Value>
6000

>  <Unit>
nM

>  <Type>
IC50

>  <pValue>
5.22

>  <Ligand Efficiency>
0

>  <Binding Efficiency>
0

>  <Surface Efficiency>
0

>  <Assay Index>
1077438

>  <Assay Category>


>  <Assay Organism>
Homo sapiens

>  <Target ID>
17045

>  <Target Name>
Cytochrome P450 3A4

>  <Target Organism>
Homo sapiens

>  <Target Description>
Target is a single protein chain

>  <Sequence Accession>
P08684

>  <Reference>


>  <Pubmed ID>
28222316

>  <DOI>
10.1016/j.ejmech.2017.02.016

$$$$
2220006
Actelion Java MolfileCreator 1.0

 24 27  0  0  0  0  0  0  0  0999 V2000
    0.0000   -0.0000   -0.0000 O   0  0  0  0  0  0  0  0  0  0  0  0
   -0.0119   -1.4950   -0.0000 C   0  0  0  0  0  0  0  0  0  0  0  0
   -1.3289   -2.2306   -0.0000 C   0  0  0  0  0  0  0  0  0  0  0  0
    1.2696   -2.2306   -0.0000 C   0  0  0  0  0  0  0  0  0  0  0  0
   -2.6340   -1.4713   -0.0000 C   0  0  0  0  0  0  0  0  0  0  0  0
   -1.3408   -3.7138   -0.0000 C   0  0  0  0  0  0  0  0  0  0  0  0
    2.5629   -1.4713   -0.0000 C   0  0  0  0  0  0  0  0  0  0  0  0
   -3.9511   -2.2069   -0.0000 C   0  0  0  0  0  0  0  0  0  0  0  0
   -2.6459   -4.4494   -0.0000 C   0  0  0  0  0  0  0  0  0  0  0  0
    3.8561   -2.2069   -0.0000 C   0  0  0  0  0  0  0  0  0  0  0  0
   -5.2681   -1.4475   -0.0000 C   0  0  0  0  0  0  0  0  0  0  0  0
   -3.9629   -3.6900   -0.0000 C   0  0  0  0  0  0  0  0  0  0  0  0
    5.1494   -1.4475   -0.0000 C   0  0  0  0  0  0  0  0  0  0  0  0
    3.8443   -3.6900   -0.0000 C   0  0  0  0  0  0  0  0  0  0  0  0
   -6.5851   -2.1832   -0.0000 C   0  0  0  0  0  0  0  0  0  0  0  0
   -5.2800    0.0712   -0.0000 C   0  0  0  0  0  0  0  0  0  0  0  0
   -5.2800   -4.4257   -0.0000 C   0  0  0  0  0  0  0  0  0  0  0  0
    6.4309   -2.1832   -0.0000 N   0  0  0  0  0  0  0  0  0  0  0  0
    5.1376   -4.4257   -0.0000 C   0  0  0  0  0  0  0  0  0  0  0  0
   -6.5970   -3.6663   -0.0000 C   0  0  0  0  0  0  0  0  0  0  0  0
   -7.8903   -1.4238   -0.0000 C   0  0  0  0  0  0  0  0  0  0  0  0
   -6.5970    0.8306   -0.0000 C   0  0  0  0  0  0  0  0  0  0  0  0
    6.4190   -3.6663   -0.0000 C   0  0  0  0  0  0  0  0  0  0  0  0
   -7.9021    0.0949   -0.0000 C   0  0  0  0  0  0  0  0  0  0  0  0
  1  2  2  0  0  0  0
  2  3  1  0  0  0  0
  2  4  1  0  0  0  0
  3  5  2  0  0  0  0
  3  6  1  0  0  0  0
  4  7  2  0  0  0  0
  5  8  1  0  0  0  0
  6  9  2  0  0  0  0
  7 10  1  0  0  0  0
  8 11  2  0  0  0  0
  8 12  1  0  0  0  0
 10 13  2  0  0  0  0
 10 14  1  0  0  0  0
 11 15  1  0  0  0  0
 11 16  1  0  0  0  0
 12 17  2  0  0  0  0
 13 18  1  0  0  0  0
 14 19  2  0  0  0  0
 15 20  2  0  0  0  0
 15 21  1  0  0  0  0
 16 22  2  0  0  0  0
 18 23  2  0  0  0  0
 21 24  2  0  0  0  0
  9 12  1  0  0  0  0
 17 20  1  0  0  0  0
 19 23  1  0  0  0  0
 22 24  1  0  0  0  0
M  END
>  <MolRegNo>
2220006

>  <m>
=

>  <Value>
26000

>  <Unit>
nM

>  <Type>
IC50

>  <pValue>
4.58

>  <Ligand Efficiency>
0

>  <Binding Efficiency>
0

>  <Surface Efficiency>
0

>  <Assay Index>
1077438

>  <Assay Category>


>  <Assay Organism>
Homo sapiens

>  <Target ID>
17045

>  <Target Name>
Cytochrome P450 3A4

>  <Target Organism>
Homo sapiens

>  <Target Description>
Target is a single protein chain

>  <Sequence Accession>
P08684

>  <Reference>


>  <Pubmed ID>
28222316

>  <DOI>
10.1016/j.ejmech.2017.02.016

$$$$
837214
Actelion Java MolfileCreator 1.0

 19 21  0  0  0  0  0  0  0  0999 V2000
    0.0000   -0.0000   -0.0000 O   0  0  0  0  0  0  0  0  0  0  0  0
   -0.0117    1.5034   -0.0000 C   0  0  0  0  0  0  0  0  0  0  0  0
    1.2685    2.2668   -0.0000 C   0  0  0  0  0  0  0  0  0  0  0  0
   -1.3155    2.2668   -0.0000 C   0  0  0  0  0  0  0  0  0  0  0  0
    2.5487    1.5269   -0.0000 C   0  0  0  0  0  0  0  0  0  0  0  0
    1.2567    3.7702   -0.0000 C   0  0  0  0  0  0  0  0  0  0  0  0
   -1.3272    3.7702   -0.0000 C   0  0  0  0  0  0  0  0  0  0  0  0
    3.8290    2.2903   -0.0000 N   0  0  0  0  0  0  0  0  0  0  0  0
    2.5370    4.5337   -0.0000 C   0  0  0  0  0  0  0  0  0  0  0  0
   -2.6309    4.5337   -0.0000 C   0  0  0  0  0  0  0  0  0  0  0  0
    3.8172    3.7937   -0.0000 C   0  0  0  0  0  0  0  0  0  0  0  0
   -3.9347    3.7937   -0.0000 C   0  0  0  0  0  0  0  0  0  0  0  0
   -2.6427    6.0371   -0.0000 C   0  0  0  0  0  0  0  0  0  0  0  0
   -5.2384    4.5572   -0.0000 C   0  0  0  0  0  0  0  0  0  0  0  0
   -3.9464    6.8005   -0.0000 C   0  0  0  0  0  0  0  0  0  0  0  0
   -6.6713    4.1109   -0.0000 O   0  0  0  0  0  0  0  0  0  0  0  0
   -5.2502    6.0606   -0.0000 C   0  0  0  0  0  0  0  0  0  0  0  0
   -7.5640    5.3324   -0.0000 C   0  0  0  0  0  0  0  0  0  0  0  0
   -6.6831    6.5304   -0.0000 O   0  0  0  0  0  0  0  0  0  0  0  0
  1  2  2  0  0  0  0
  2  3  1  0  0  0  0
  2  4  1  0  0  0  0
  3  5  2  0  0  0  0
  3  6  1  0  0  0  0
  4  7  2  0  0  0  0
  5  8  1  0  0  0  0
  6  9  2  0  0  0  0
  7 10  1  0  0  0  0
  8 11  2  0  0  0  0
 10 12  2  0  0  0  0
 10 13  1  0  0  0  0
 12 14  1  0  0  0  0
 13 15  2  0  0  0  0
 14 16  1  0  0  0  0
 14 17  2  0  0  0  0
 16 18  1  0  0  0  0
 17 19  1  0  0  0  0
  9 11  1  0  0  0  0
 15 17  1  0  0  0  0
 18 19  1  0  0  0  0
M  END
>  <MolRegNo>
837214

>  <m>
=

>  <Value>
12000

>  <Unit>
nM

>  <Type>
IC50

>  <pValue>
4.92

>  <Ligand Efficiency>
0

>  <Binding Efficiency>
0

>  <Surface Efficiency>
0

>  <Assay Index>
1077438

>  <Assay Category>


>  <Assay Organism>
Homo sapiens

>  <Target ID>
17045

>  <Target Name>
Cytochrome P450 3A4

>  <Target Organism>
Homo sapiens

>  <Target Description>
Target is a single protein chain

>  <Sequence Accession>
P08684

>  <Reference>


>  <Pubmed ID>
28222316

>  <DOI>
10.1016/j.ejmech.2017.02.016

$$$$
2238969
Actelion Java MolfileCreator 1.0

 18 19  0  0  0  0  0  0  0  0999 V2000
    0.0000   -0.0000   -0.0000 O   0  0  0  0  0  0  0  0  0  0  0  0
   -0.0119   -1.4907   -0.0000 C   0  0  0  0  0  0  0  0  0  0  0  0
   -1.3237   -2.2420   -0.0000 C   0  0  0  0  0  0  0  0  0  0  0  0
    1.2880   -2.2301   -0.0000 C   0  0  0  0  0  0  0  0  0  0  0  0
   -1.3357   -3.7446   -0.0000 C   0  0  0  0  0  0  0  0  0  0  0  0
   -2.6355   -1.4788   -0.0000 C   0  0  0  0  0  0  0  0  0  0  0  0
    2.5759   -1.4668   -0.0000 C   0  0  0  0  0  0  0  0  0  0  0  0
   -2.6594   -4.4840   -0.0000 N   0  0  0  0  0  0  0  0  0  0  0  0
   -3.9473   -2.2181   -0.0000 C   0  0  0  0  0  0  0  0  0  0  0  0
    3.8758   -2.2062   -0.0000 C   0  0  0  0  0  0  0  0  0  0  0  0
   -3.9712   -3.7207   -0.0000 C   0  0  0  0  0  0  0  0  0  0  0  0
    5.1518   -1.4311   -0.0000 C   0  0  0  0  0  0  0  0  0  0  0  0
    3.8639   -3.6969   -0.0000 C   0  0  0  0  0  0  0  0  0  0  0  0
    6.4398   -2.1585   -0.0000 C   0  0  0  0  0  0  0  0  0  0  0  0
    5.1518   -4.4363   -0.0000 C   0  0  0  0  0  0  0  0  0  0  0  0
    7.7277   -1.3834   -0.0000 O   0  0  0  0  0  0  0  0  0  0  0  0
    6.4398   -3.6611   -0.0000 C   0  0  0  0  0  0  0  0  0  0  0  0
    9.0276   -2.1108   -0.0000 C   0  0  0  0  0  0  0  0  0  0  0  0
  1  2  2  0  0  0  0
  2  3  1  0  0  0  0
  2  4  1  0  0  0  0
  3  5  2  0  0  0  0
  3  6  1  0  0  0  0
  4  7  2  0  0  0  0
  5  8  1  0  0  0  0
  6  9  2  0  0  0  0
  7 10  1  0  0  0  0
  8 11  2  0  0  0  0
 10 12  2  0  0  0  0
 10 13  1  0  0  0  0
 12 14  1  0  0  0  0
 13 15  2  0  0  0  0
 14 16  1  0  0  0  0
 14 17  2  0  0  0  0
 16 18  1  0  0  0  0
  9 11  1  0  0  0  0
 15 17  1  0  0  0  0
M  END
>  <MolRegNo>
2238969

>  <m>
=

>  <Value>
1280

>  <Unit>
nM

>  <Type>
IC50

>  <pValue>
5.89

>  <Ligand Efficiency>
0

>  <Binding Efficiency>
0

>  <Surface Efficiency>
0

>  <Assay Index>
1077438

>  <Assay Category>


>  <Assay Organism>
Homo sapiens

>  <Target ID>
17045

>  <Target Name>
Cytochrome P450 3A4

>  <Target Organism>
Homo sapiens

>  <Target Description>
Target is a single protein chain

>  <Sequence Accession>
P08684

>  <Reference>


>  <Pubmed ID>
28222316

>  <DOI>
10.1016/j.ejmech.2017.02.016

$$$$
2212002
Actelion Java MolfileCreator 1.0

 18 19  0  0  0  0  0  0  0  0999 V2000
    0.0000   -0.0000   -0.0000 O   0  0  0  0  0  0  0  0  0  0  0  0
   -0.0119   -1.4894   -0.0000 C   0  0  0  0  0  0  0  0  0  0  0  0
   -1.3226   -2.2400   -0.0000 C   0  0  0  0  0  0  0  0  0  0  0  0
    1.2868   -2.2281   -0.0000 C   0  0  0  0  0  0  0  0  0  0  0  0
   -1.3345   -3.7413   -0.0000 C   0  0  0  0  0  0  0  0  0  0  0  0
   -2.6332   -1.4775   -0.0000 C   0  0  0  0  0  0  0  0  0  0  0  0
    2.5736   -1.4655   -0.0000 C   0  0  0  0  0  0  0  0  0  0  0  0
   -2.6570   -4.4800   -0.0000 N   0  0  0  0  0  0  0  0  0  0  0  0
   -3.9439   -2.2162   -0.0000 C   0  0  0  0  0  0  0  0  0  0  0  0
    3.8724   -2.2043   -0.0000 C   0  0  0  0  0  0  0  0  0  0  0  0
   -3.9677   -3.7175   -0.0000 C   0  0  0  0  0  0  0  0  0  0  0  0
    5.1473   -1.4298   -0.0000 C   0  0  0  0  0  0  0  0  0  0  0  0
    3.8604   -3.6936   -0.0000 C   0  0  0  0  0  0  0  0  0  0  0  0
    5.1234    0.0834   -0.0000 O   0  0  0  0  0  0  0  0  0  0  0  0
    6.4341   -2.1566   -0.0000 C   0  0  0  0  0  0  0  0  0  0  0  0
    5.1473   -4.4324   -0.0000 C   0  0  0  0  0  0  0  0  0  0  0  0
    6.4103    0.8579   -0.0000 C   0  0  0  0  0  0  0  0  0  0  0  0
    6.4341   -3.6579   -0.0000 C   0  0  0  0  0  0  0  0  0  0  0  0
  1  2  2  0  0  0  0
  2  3  1  0  0  0  0
  2  4  1  0  0  0  0
  3  5  2  0  0  0  0
  3  6  1  0  0  0  0
  4  7  2  0  0  0  0
  5  8  1  0  0  0  0
  6  9  2  0  0  0  0
  7 10  1  0  0  0  0
  8 11  2  0  0  0  0
 10 12  2  0  0  0  0
 10 13  1  0  0  0  0
 12 14  1  0  0  0  0
 12 15  1  0  0  0  0
 13 16  2  0  0  0  0
 14 17  1  0  0  0  0
 15 18  2  0  0  0  0
  9 11  1  0  0  0  0
 16 18  1  0  0  0  0
M  END
>  <MolRegNo>
2212002

>  <m>
=

>  <Value>
1520

>  <Unit>
nM

>  <Type>
IC50

>  <pValue>
5.82

>  <Ligand Efficiency>
0

>  <Binding Efficiency>
0

>  <Surface Efficiency>
0

>  <Assay Index>
1077438

>  <Assay Category>


>  <Assay Organism>
Homo sapiens

>  <Target ID>
17045

>  <Target Name>
Cytochrome P450 3A4

>  <Target Organism>
Homo sapiens

>  <Target Description>
Target is a single protein chain

>  <Sequence Accession>
P08684

>  <Reference>


>  <Pubmed ID>
28222316

>  <DOI>
10.1016/j.ejmech.2017.02.016

$$$$
2203382
Actelion Java MolfileCreator 1.0

 20 21  0  0  0  0  0  0  0  0999 V2000
    0.0000   -0.0000   -0.0000 O   0  0  0  0  0  0  0  0  0  0  0  0
   -0.0119   -1.4902   -0.0000 C   0  0  0  0  0  0  0  0  0  0  0  0
   -1.3233   -2.2412   -0.0000 C   0  0  0  0  0  0  0  0  0  0  0  0
    1.2875   -2.2293   -0.0000 C   0  0  0  0  0  0  0  0  0  0  0  0
   -1.3352   -3.7433   -0.0000 C   0  0  0  0  0  0  0  0  0  0  0  0
   -2.6346   -1.4782   -0.0000 C   0  0  0  0  0  0  0  0  0  0  0  0
    2.5750   -1.4663   -0.0000 C   0  0  0  0  0  0  0  0  0  0  0  0
   -2.6584   -4.4824   -0.0000 N   0  0  0  0  0  0  0  0  0  0  0  0
   -3.9459   -2.2173   -0.0000 C   0  0  0  0  0  0  0  0  0  0  0  0
    3.8744   -2.2054   -0.0000 C   0  0  0  0  0  0  0  0  0  0  0  0
   -3.9698   -3.7194   -0.0000 C   0  0  0  0  0  0  0  0  0  0  0  0
    5.1500   -1.4305   -0.0000 C   0  0  0  0  0  0  0  0  0  0  0  0
    3.8625   -3.6956   -0.0000 C   0  0  0  0  0  0  0  0  0  0  0  0
    6.4375   -2.1577   -0.0000 C   0  0  0  0  0  0  0  0  0  0  0  0
    5.1500   -4.4347   -0.0000 C   0  0  0  0  0  0  0  0  0  0  0  0
    7.7249   -1.3829   -0.0000 O   0  0  0  0  0  0  0  0  0  0  0  0
    6.4375   -3.6598   -0.0000 C   0  0  0  0  0  0  0  0  0  0  0  0
    7.7011    0.1311   -0.0000 C   0  0  0  0  0  0  0  0  0  0  0  0
    7.7369   -4.3989   -0.0000 O   0  0  0  0  0  0  0  0  0  0  0  0
    7.7369   -5.8891   -0.0000 C   0  0  0  0  0  0  0  0  0  0  0  0
  1  2  2  0  0  0  0
  2  3  1  0  0  0  0
  2  4  1  0  0  0  0
  3  5  2  0  0  0  0
  3  6  1  0  0  0  0
  4  7  2  0  0  0  0
  5  8  1  0  0  0  0
  6  9  2  0  0  0  0
  7 10  1  0  0  0  0
  8 11  2  0  0  0  0
 10 12  2  0  0  0  0
 10 13  1  0  0  0  0
 12 14  1  0  0  0  0
 13 15  2  0  0  0  0
 14 16  1  0  0  0  0
 14 17  2  0  0  0  0
 16 18  1  0  0  0  0
 17 19  1  0  0  0  0
 19 20  1  0  0  0  0
  9 11  1  0  0  0  0
 15 17  1  0  0  0  0
M  END
>  <MolRegNo>
2203382

>  <m>
=

>  <Value>
53000

>  <Unit>
nM

>  <Type>
IC50

>  <pValue>
4.28

>  <Ligand Efficiency>
0

>  <Binding Efficiency>
0

>  <Surface Efficiency>
0

>  <Assay Index>
1077438

>  <Assay Category>


>  <Assay Organism>
Homo sapiens

>  <Target ID>
17045

>  <Target Name>
Cytochrome P450 3A4

>  <Target Organism>
Homo sapiens

>  <Target Description>
Target is a single protein chain

>  <Sequence Accession>
P08684

>  <Reference>


>  <Pubmed ID>
28222316

>  <DOI>
10.1016/j.ejmech.2017.02.016

$$$$
1473241
Actelion Java MolfileCreator 1.0

 22 23  0  0  0  0  0  0  0  0999 V2000
    0.0000   -0.0000   -0.0000 O   0  0  0  0  0  0  0  0  0  0  0  0
   -0.0119   -1.4919   -0.0000 C   0  0  0  0  0  0  0  0  0  0  0  0
   -1.3248   -2.2437   -0.0000 C   0  0  0  0  0  0  0  0  0  0  0  0
    1.2770   -2.2318   -0.0000 C   0  0  0  0  0  0  0  0  0  0  0  0
   -2.6376   -1.4799   -0.0000 C   0  0  0  0  0  0  0  0  0  0  0  0
   -1.3367   -3.7475   -0.0000 C   0  0  0  0  0  0  0  0  0  0  0  0
    2.5660   -1.4680   -0.0000 C   0  0  0  0  0  0  0  0  0  0  0  0
   -3.9504   -2.2199   -0.0000 N   0  0  0  0  0  0  0  0  0  0  0  0
   -2.6615   -4.4875   -0.0000 C   0  0  0  0  0  0  0  0  0  0  0  0
    3.8550   -2.2079   -0.0000 C   0  0  0  0  0  0  0  0  0  0  0  0
   -3.9624   -3.7237   -0.0000 C   0  0  0  0  0  0  0  0  0  0  0  0
    5.1320   -1.4322   -0.0000 C   0  0  0  0  0  0  0  0  0  0  0  0
    3.8430   -3.6998   -0.0000 C   0  0  0  0  0  0  0  0  0  0  0  0
    5.1081    0.0835   -0.0000 O   0  0  0  0  0  0  0  0  0  0  0  0
    6.4209   -2.1602   -0.0000 C   0  0  0  0  0  0  0  0  0  0  0  0
    5.1320   -4.4398   -0.0000 C   0  0  0  0  0  0  0  0  0  0  0  0
    6.3971    0.8593   -0.0000 C   0  0  0  0  0  0  0  0  0  0  0  0
    7.7099   -1.3844   -0.0000 O   0  0  0  0  0  0  0  0  0  0  0  0
    6.4209   -3.6640   -0.0000 C   0  0  0  0  0  0  0  0  0  0  0  0
    9.0108   -2.1125   -0.0000 C   0  0  0  0  0  0  0  0  0  0  0  0
    7.7218   -4.4040   -0.0000 O   0  0  0  0  0  0  0  0  0  0  0  0
    7.7218   -5.8958   -0.0000 C   0  0  0  0  0  0  0  0  0  0  0  0
  1  2  2  0  0  0  0
  2  3  1  0  0  0  0
  2  4  1  0  0  0  0
  3  5  2  0  0  0  0
  3  6  1  0  0  0  0
  4  7  2  0  0  0  0
  5  8  1  0  0  0  0
  6  9  2  0  0  0  0
  7 10  1  0  0  0  0
  8 11  2  0  0  0  0
 10 12  2  0  0  0  0
 10 13  1  0  0  0  0
 12 14  1  0  0  0  0
 12 15  1  0  0  0  0
 13 16  2  0  0  0  0
 14 17  1  0  0  0  0
 15 18  1  0  0  0  0
 15 19  2  0  0  0  0
 18 20  1  0  0  0  0
 19 21  1  0  0  0  0
 21 22  1  0  0  0  0
  9 11  1  0  0  0  0
 16 19  1  0  0  0  0
M  END
>  <MolRegNo>
1473241

>  <m>
=

>  <Value>
11800

>  <Unit>
nM

>  <Type>
IC50

>  <pValue>
4.93

>  <Ligand Efficiency>
0

>  <Binding Efficiency>
0

>  <Surface Efficiency>
0

>  <Assay Index>
1077438

>  <Assay Category>


>  <Assay Organism>
Homo sapiens

>  <Target ID>
17045

>  <Target Name>
Cytochrome P450 3A4

>  <Target Organism>
Homo sapiens

>  <Target Description>
Target is a single protein chain

>  <Sequence Accession>
P08684

>  <Reference>


>  <Pubmed ID>
28222316

>  <DOI>
10.1016/j.ejmech.2017.02.016

$$$$
2208244
Actelion Java MolfileCreator 1.0

 18 19  0  0  0  0  0  0  0  0999 V2000
    0.0000   -0.0000   -0.0000 Cl  0  0  0  0  0  0  0  0  0  0  0  0
   -1.3029   -0.7462   -0.0000 C   0  0  0  0  0  0  0  0  0  0  0  0
   -1.3029   -2.2387   -0.0000 C   0  0  0  0  0  0  0  0  0  0  0  0
   -2.6059   -0.0000   -0.0000 C   0  0  0  0  0  0  0  0  0  0  0  0
   -0.0118   -2.9731   -0.0000 Cl  0  0  0  0  0  0  0  0  0  0  0  0
   -2.6059   -2.9849   -0.0000 C   0  0  0  0  0  0  0  0  0  0  0  0
   -3.8970   -0.7462   -0.0000 C   0  0  0  0  0  0  0  0  0  0  0  0
   -3.9088   -2.2268   -0.0000 C   0  0  0  0  0  0  0  0  0  0  0  0
   -5.2117    0.0118   -0.0000 C   0  0  0  0  0  0  0  0  0  0  0  0
   -6.5147   -0.7225   -0.0000 C   0  0  0  0  0  0  0  0  0  0  0  0
   -7.8295    0.0355   -0.0000 C   0  0  0  0  0  0  0  0  0  0  0  0
   -7.8413    1.5398   -0.0000 O   0  0  0  0  0  0  0  0  0  0  0  0
   -9.1324   -0.7107   -0.0000 C   0  0  0  0  0  0  0  0  0  0  0  0
   -9.1442   -2.2031   -0.0000 C   0  0  0  0  0  0  0  0  0  0  0  0
  -10.4353    0.0474   -0.0000 C   0  0  0  0  0  0  0  0  0  0  0  0
  -10.4590   -2.9375   -0.0000 N   0  0  0  0  0  0  0  0  0  0  0  0
  -11.7383   -0.6870   -0.0000 C   0  0  0  0  0  0  0  0  0  0  0  0
  -11.7619   -2.1795   -0.0000 C   0  0  0  0  0  0  0  0  0  0  0  0
  1  2  1  0  0  0  0
  2  3  2  0  0  0  0
  2  4  1  0  0  0  0
  3  5  1  0  0  0  0
  3  6  1  0  0  0  0
  4  7  2  0  0  0  0
  6  8  2  0  0  0  0
  7  9  1  0  0  0  0
  9 10  2  0  0  0  0
 10 11  1  0  0  0  0
 11 12  2  0  0  0  0
 11 13  1  0  0  0  0
 13 14  2  0  0  0  0
 13 15  1  0  0  0  0
 14 16  1  0  0  0  0
 15 17  2  0  0  0  0
 16 18  2  0  0  0  0
  7  8  1  0  0  0  0
 17 18  1  0  0  0  0
M  END
>  <MolRegNo>
2208244

>  <m>
=

>  <Value>
15000

>  <Unit>
nM

>  <Type>
IC50

>  <pValue>
4.82

>  <Ligand Efficiency>
0

>  <Binding Efficiency>
0

>  <Surface Efficiency>
0

>  <Assay Index>
1077438

>  <Assay Category>


>  <Assay Organism>
Homo sapiens

>  <Target ID>
17045

>  <Target Name>
Cytochrome P450 3A4

>  <Target Organism>
Homo sapiens

>  <Target Description>
Target is a single protein chain

>  <Sequence Accession>
P08684

>  <Reference>


>  <Pubmed ID>
28222316

>  <DOI>
10.1016/j.ejmech.2017.02.016

$$$$
2199588
Actelion Java MolfileCreator 1.0

 20 22  0  0  0  0  0  0  0  0999 V2000
    0.0000   -0.0000   -0.0000 O   0  0  0  0  0  0  0  0  0  0  0  0
   -0.0120   -1.4944   -0.0000 C   0  0  0  0  0  0  0  0  0  0  0  0
   -1.3271   -2.2357   -0.0000 C   0  0  0  0  0  0  0  0  0  0  0  0
    1.2792   -2.2237   -0.0000 C   0  0  0  0  0  0  0  0  0  0  0  0
   -1.3390   -3.7421   -0.0000 C   0  0  0  0  0  0  0  0  0  0  0  0
   -2.6422   -1.4825   -0.0000 C   0  0  0  0  0  0  0  0  0  0  0  0
    2.5705   -1.4586   -0.0000 C   0  0  0  0  0  0  0  0  0  0  0  0
   -2.6541   -4.4833   -0.0000 N   0  0  0  0  0  0  0  0  0  0  0  0
   -3.9573   -2.2237   -0.0000 C   0  0  0  0  0  0  0  0  0  0  0  0
    3.8617   -2.1879   -0.0000 C   0  0  0  0  0  0  0  0  0  0  0  0
   -3.9693   -3.7182   -0.0000 C   0  0  0  0  0  0  0  0  0  0  0  0
    5.1409   -1.4108   -0.0000 C   0  0  0  0  0  0  0  0  0  0  0  0
    3.8497   -3.6823   -0.0000 C   0  0  0  0  0  0  0  0  0  0  0  0
    6.4321   -2.1281   -0.0000 C   0  0  0  0  0  0  0  0  0  0  0  0
    5.1409   -4.4116   -0.0000 C   0  0  0  0  0  0  0  0  0  0  0  0
    6.4321   -3.6345   -0.0000 C   0  0  0  0  0  0  0  0  0  0  0  0
    7.7233   -1.3510   -0.0000 C   0  0  0  0  0  0  0  0  0  0  0  0
    7.7353   -4.3638   -0.0000 C   0  0  0  0  0  0  0  0  0  0  0  0
    9.0265   -2.0803   -0.0000 C   0  0  0  0  0  0  0  0  0  0  0  0
    9.0265   -3.5867   -0.0000 C   0  0  0  0  0  0  0  0  0  0  0  0
  1  2  2  0  0  0  0
  2  3  1  0  0  0  0
  2  4  1  0  0  0  0
  3  5  2  0  0  0  0
  3  6  1  0  0  0  0
  4  7  2  0  0  0  0
  5  8  1  0  0  0  0
  6  9  2  0  0  0  0
  7 10  1  0  0  0  0
  8 11  2  0  0  0  0
 10 12  2  0  0  0  0
 10 13  1  0  0  0  0
 12 14  1  0  0  0  0
 13 15  2  0  0  0  0
 14 16  1  0  0  0  0
 14 17  2  0  0  0  0
 16 18  2  0  0  0  0
 17 19  1  0  0  0  0
 18 20  1  0  0  0  0
  9 11  1  0  0  0  0
 15 16  1  0  0  0  0
 19 20  2  0  0  0  0
M  END
>  <MolRegNo>
2199588

>  <m>
=

>  <Value>
18000

>  <Unit>
nM

>  <Type>
IC50

>  <pValue>
4.75

>  <Ligand Efficiency>
0

>  <Binding Efficiency>
0

>  <Surface Efficiency>
0

>  <Assay Index>
1077438

>  <Assay Category>


>  <Assay Organism>
Homo sapiens

>  <Target ID>
17045

>  <Target Name>
Cytochrome P450 3A4

>  <Target Organism>
Homo sapiens

>  <Target Description>
Target is a single protein chain

>  <Sequence Accession>
P08684

>  <Reference>


>  <Pubmed ID>
28222316

>  <DOI>
10.1016/j.ejmech.2017.02.016

$$$$
2227884
Actelion Java MolfileCreator 1.0

 16 17  0  0  0  0  0  0  0  0999 V2000
    0.0000   -0.0000   -0.0000 O   0  0  0  0  0  0  0  0  0  0  0  0
   -0.0119   -1.4899   -0.0000 C   0  0  0  0  0  0  0  0  0  0  0  0
   -1.3230   -2.2408   -0.0000 C   0  0  0  0  0  0  0  0  0  0  0  0
    1.2873   -2.2289   -0.0000 C   0  0  0  0  0  0  0  0  0  0  0  0
   -1.3350   -3.7426   -0.0000 C   0  0  0  0  0  0  0  0  0  0  0  0
   -2.6342   -1.4780   -0.0000 C   0  0  0  0  0  0  0  0  0  0  0  0
    2.5746   -1.4661   -0.0000 C   0  0  0  0  0  0  0  0  0  0  0  0
   -2.6580   -4.4816   -0.0000 N   0  0  0  0  0  0  0  0  0  0  0  0
   -3.9453   -2.2170   -0.0000 C   0  0  0  0  0  0  0  0  0  0  0  0
    3.8738   -2.2051   -0.0000 C   0  0  0  0  0  0  0  0  0  0  0  0
   -3.9691   -3.7188   -0.0000 C   0  0  0  0  0  0  0  0  0  0  0  0
    3.8618   -3.6950   -0.0000 C   0  0  0  0  0  0  0  0  0  0  0  0
    5.1491   -1.4303   -0.0000 C   0  0  0  0  0  0  0  0  0  0  0  0
    5.1491   -4.4340   -0.0000 C   0  0  0  0  0  0  0  0  0  0  0  0
    6.4364   -2.1455   -0.0000 C   0  0  0  0  0  0  0  0  0  0  0  0
    6.4364   -3.6592   -0.0000 C   0  0  0  0  0  0  0  0  0  0  0  0
  1  2  2  0  0  0  0
  2  3  1  0  0  0  0
  2  4  1  0  0  0  0
  3  5  2  0  0  0  0
  3  6  1  0  0  0  0
  4  7  2  0  0  0  0
  5  8  1  0  0  0  0
  6  9  2  0  0  0  0
  7 10  1  0  0  0  0
  8 11  2  0  0  0  0
 10 12  2  0  0  0  0
 10 13  1  0  0  0  0
 12 14  1  0  0  0  0
 13 15  2  0  0  0  0
 14 16  2  0  0  0  0
  9 11  1  0  0  0  0
 15 16  1  0  0  0  0
M  END
>  <MolRegNo>
2227884

>  <m>
=

>  <Value>
11100

>  <Unit>
nM

>  <Type>
IC50

>  <pValue>
4.96

>  <Ligand Efficiency>
0

>  <Binding Efficiency>
0

>  <Surface Efficiency>
0

>  <Assay Index>
1077438

>  <Assay Category>


>  <Assay Organism>
Homo sapiens

>  <Target ID>
17045

>  <Target Name>
Cytochrome P450 3A4

>  <Target Organism>
Homo sapiens

>  <Target Description>
Target is a single protein chain

>  <Sequence Accession>
P08684

>  <Reference>


>  <Pubmed ID>
28222316

>  <DOI>
10.1016/j.ejmech.2017.02.016

$$$$
2241720
Actelion Java MolfileCreator 1.0

 29 33  0  0  0  0  0  0  0  0999 V2000
    0.0000   -0.0000   -0.0000 O   0  0  0  0  0  0  0  0  0  0  0  0
   -1.3162   -0.7351   -0.0000 N   0  0  0  0  0  0  0  0  0  0  0  0
    1.2924   -0.7351   -0.0000 C   0  0  0  0  0  0  0  0  0  0  0  0
   -1.3280   -2.2292   -0.0000 C   0  0  0  0  0  0  0  0  0  0  0  0
    1.2806   -2.2292   -0.0000 C   0  0  0  0  0  0  0  0  0  0  0  0
   -0.0356   -2.9643   -0.0000 N   0  0  0  0  0  0  0  0  0  0  0  0
   -2.6442   -2.9643   -0.0000 C   0  0  0  0  0  0  0  0  0  0  0  0
    2.5730   -2.9643   -0.0000 C   0  0  0  0  0  0  0  0  0  0  0  0
   -2.6560   -4.4583   -0.0000 N   0  0  0  0  0  0  0  0  0  0  0  0
   -3.9603   -2.2054   -0.0000 C   0  0  0  0  0  0  0  0  0  0  0  0
    3.9366   -2.3359   -0.0000 O   0  0  0  0  0  0  0  0  0  0  0  0
    2.7272   -4.4465   -0.0000 C   0  0  0  0  0  0  0  0  0  0  0  0
   -3.9722   -5.1935   -0.0000 C   0  0  0  0  0  0  0  0  0  0  0  0
   -5.2765   -2.9406   -0.0000 C   0  0  0  0  0  0  0  0  0  0  0  0
    4.9326   -3.4386   -0.0000 C   0  0  0  0  0  0  0  0  0  0  0  0
    4.1856   -4.7548   -0.0000 C   0  0  0  0  0  0  0  0  0  0  0  0
   -3.9840   -6.6875   -0.0000 O   0  0  0  0  0  0  0  0  0  0  0  0
   -5.2883   -4.4346   -0.0000 C   0  0  0  0  0  0  0  0  0  0  0  0
    6.4266   -3.4267   -0.0000 C   0  0  0  0  0  0  0  0  0  0  0  0
    4.9208   -6.0472   -0.0000 C   0  0  0  0  0  0  0  0  0  0  0  0
   -2.6916   -7.4226   -0.0000 C   0  0  0  0  0  0  0  0  0  0  0  0
   -6.6045   -5.1698   -0.0000 N   0  0  0  0  0  0  0  0  0  0  0  0
    7.1618   -4.7192   -0.0000 C   0  0  0  0  0  0  0  0  0  0  0  0
    6.4148   -6.0353   -0.0000 C   0  0  0  0  0  0  0  0  0  0  0  0
   -7.9918   -4.5413   -0.0000 C   0  0  0  0  0  0  0  0  0  0  0  0
   -6.7823   -6.6519   -0.0000 C   0  0  0  0  0  0  0  0  0  0  0  0
   -9.0115   -5.6441   -0.0000 N   0  0  0  0  0  0  0  0  0  0  0  0
   -8.2645   -6.9602   -0.0000 C   0  0  0  0  0  0  0  0  0  0  0  0
   -8.8811   -8.3238   -0.0000 C   0  0  0  0  0  0  0  0  0  0  0  0
  1  2  1  0  0  0  0
  1  3  1  0  0  0  0
  2  4  2  0  0  0  0
  3  5  1  0  0  0  0
  4  6  1  0  0  0  0
  4  7  1  0  0  0  0
  5  8  1  1  0  0  0
  7  9  2  0  0  0  0
  7 10  1  0  0  0  0
  8 11  1  0  0  0  0
  8 12  2  0  0  0  0
  9 13  1  0  0  0  0
 10 14  2  0  0  0  0
 11 15  1  0  0  0  0
 12 16  1  0  0  0  0
 13 17  1  0  0  0  0
 13 18  2  0  0  0  0
 15 19  1  0  0  0  0
 16 20  1  0  0  0  0
 17 21  1  0  0  0  0
 18 22  1  0  0  0  0
 19 23  2  0  0  0  0
 20 24  2  0  0  0  0
 22 25  1  0  0  0  0
 22 26  1  0  0  0  0
 25 27  2  0  0  0  0
 26 28  2  0  0  0  0
 28 29  1  0  0  0  0
  5  6  1  0  0  0  0
 14 18  1  0  0  0  0
 15 16  2  0  0  0  0
 23 24  1  0  0  0  0
 27 28  1  0  0  0  0
M  END
>  <MolRegNo>
2241720

>  <m>
=

>  <Value>
25000

>  <Unit>
nM

>  <Type>
IC50

>  <pValue>
4.6

>  <Ligand Efficiency>
0

>  <Binding Efficiency>
0

>  <Surface Efficiency>
0

>  <Assay Index>
1077583

>  <Assay Category>


>  <Assay Organism>
Homo sapiens

>  <Target ID>
17045

>  <Target Name>
Cytochrome P450 3A4

>  <Target Organism>
Homo sapiens

>  <Target Description>
Target is a single protein chain

>  <Sequence Accession>
P08684

>  <Reference>
J Med Chem 60 (6), 2383-2400 (2017)

>  <Pubmed ID>
28230986

>  <DOI>
10.1021/acs.jmedchem.6b01620

$$$$
2234798
Actelion Java MolfileCreator 1.0

 34 37  0  0  1  0  0  0  0  0999 V2000
    0.0000   -0.0000   -0.0000 Cl  0  0  0  0  0  0  0  0  0  0  0  0
    1.0566   -1.0566   -0.0000 C   0  0  0  0  0  0  0  0  0  0  0  0
    2.5169   -0.6411   -0.0000 C   0  0  0  0  0  0  0  0  0  0  0  0
    0.6530   -2.5287   -0.0000 C   0  0  0  0  0  0  0  0  0  0  0  0
    3.5735   -1.7214   -0.0000 C   0  0  0  0  0  0  0  0  0  0  0  0
    1.7214   -3.5853   -0.0000 C   0  0  0  0  0  0  0  0  0  0  0  0
    3.1580   -3.1817   -0.0000 C   0  0  0  0  0  0  0  0  0  0  0  0
    4.2264   -4.2502   -0.0000 C   0  0  0  0  0  0  0  0  0  0  0  0
    2.8968   -4.9388   -0.0000 C   0  0  0  0  0  0  0  0  0  0  0  0
    5.4967   -5.0100   -0.0000 C   0  0  0  0  0  0  0  0  0  0  0  0
    4.9744   -2.9443   -0.0000 C   0  0  0  0  0  0  0  0  0  0  0  0
    2.8374   -6.4228   -0.0000 C   0  0  0  0  0  0  0  0  0  0  0  0
    5.4374   -6.5059   -0.0000 C   0  0  0  0  0  0  0  0  0  0  0  0
    6.4702   -2.9443   -0.0000 C   0  0  0  0  0  0  0  0  0  0  0  0
    4.0958   -7.2063   -0.0000 C   0  0  0  0  0  0  0  0  0  0  0  0
    7.2063   -4.2383   -0.0000 O   0  0  0  0  0  0  0  0  0  0  0  0
    4.0365   -8.7022   -0.0000 N   0  0  0  0  0  0  0  0  0  0  0  0
    8.7022   -4.2383   -0.0000 C   0  0  0  0  0  0  0  0  0  0  0  0
    9.4264   -5.5442   -0.0000 C   0  0  0  0  0  0  0  0  0  0  0  0
    9.4382   -2.9324   -0.0000 C   0  0  0  0  0  0  0  0  0  0  0  0
    8.6547   -6.8264   -0.0000 F   0  0  0  0  0  0  0  0  0  0  0  0
   10.9222   -5.5442   -0.0000 C   0  0  0  0  0  0  0  0  0  0  0  0
   10.9222   -2.9205   -0.0000 C   0  0  0  0  0  0  0  0  0  0  0  0
   11.6702   -4.2383   -0.0000 C   0  0  0  0  0  0  0  0  0  0  0  0
   11.6702   -1.6027   -0.0000 F   0  0  0  0  0  0  0  0  0  0  0  0
   13.1661   -4.2264   -0.0000 S   0  0  0  0  0  0  0  0  0  0  0  0
   13.5578   -2.7543   -0.0000 O   0  0  0  0  0  0  0  0  0  0  0  0
   14.6144   -3.8347   -0.0000 O   0  0  0  0  0  0  0  0  0  0  0  0
   13.9021   -5.5205   -0.0000 N   0  0  0  0  0  0  0  0  0  0  0  0
   15.3980   -5.5086   -0.0000 C   0  0  0  0  0  0  0  0  0  0  0  0
   16.2646   -6.7196   -0.0000 S   0  0  0  0  0  0  0  0  0  0  0  0
   16.2765   -4.2858   -0.0000 N   0  0  0  0  0  0  0  0  0  0  0  0
   17.6893   -6.2447   -0.0000 N   0  0  0  0  0  0  0  0  0  0  0  0
   17.6893   -4.7488   -0.0000 C   0  0  0  0  0  0  0  0  0  0  0  0
  1  2  1  0  0  0  0
  2  3  2  0  0  0  0
  2  4  1  0  0  0  0
  3  5  1  0  0  0  0
  4  6  2  0  0  0  0
  5  7  2  0  0  0  0
  7  8  1  0  0  0  0
  8  9  1  0  0  0  0
  8 10  1  0  0  0  0
  8 11  1  1  0  0  0
  9 12  1  0  0  0  0
 10 13  1  0  0  0  0
 11 14  1  0  0  0  0
 12 15  1  0  0  0  0
 14 16  1  0  0  0  0
 15 17  1  1  0  0  0
 16 18  1  0  0  0  0
 18 19  2  0  0  0  0
 18 20  1  0  0  0  0
 19 21  1  0  0  0  0
 19 22  1  0  0  0  0
 20 23  2  0  0  0  0
 22 24  2  0  0  0  0
 23 25  1  0  0  0  0
 24 26  1  0  0  0  0
 26 27  2  0  0  0  0
 26 28  2  0  0  0  0
 26 29  1  0  0  0  0
 29 30  1  0  0  0  0
 30 31  1  0  0  0  0
 30 32  2  0  0  0  0
 31 33  1  0  0  0  0
 32 34  1  0  0  0  0
  6  7  1  0  0  0  0
 13 15  1  0  0  0  0
 23 24  1  0  0  0  0
 33 34  2  0  0  0  0
M  END
>  <MolRegNo>
2234798

>  <m>
=

>  <Value>
280

>  <Unit>
nM

>  <Type>
IC50

>  <pValue>
6.55

>  <Ligand Efficiency>
0

>  <Binding Efficiency>
0

>  <Surface Efficiency>
0

>  <Assay Index>
1077710

>  <Assay Category>


>  <Assay Organism>
Homo sapiens

>  <Target ID>
17045

>  <Target Name>
Cytochrome P450 3A4

>  <Target Organism>
Homo sapiens

>  <Target Description>
Target is a single protein chain

>  <Sequence Accession>
P08684

>  <Reference>
J Med Chem 60 (6), 2513-2525 (2017)

>  <Pubmed ID>
28234467

>  <DOI>
10.1021/acs.jmedchem.6b01918

$$$$
2242544
Actelion Java MolfileCreator 1.0

 33 36  0  0  1  0  0  0  0  0999 V2000
    0.0000   -0.0000   -0.0000 S   0  0  0  0  0  0  0  0  0  0  0  0
    0.3895    1.4636   -0.0000 O   0  0  0  0  0  0  0  0  0  0  0  0
    1.4400    0.3895   -0.0000 O   0  0  0  0  0  0  0  0  0  0  0  0
    0.7318   -1.2866   -0.0000 N   0  0  0  0  0  0  0  0  0  0  0  0
   -1.5108    0.0118   -0.0000 C   0  0  0  0  0  0  0  0  0  0  0  0
    2.2190   -1.2748   -0.0000 C   0  0  0  0  0  0  0  0  0  0  0  0
   -2.2662    1.3220   -0.0000 C   0  0  0  0  0  0  0  0  0  0  0  0
   -2.2780   -1.2630   -0.0000 C   0  0  0  0  0  0  0  0  0  0  0  0
    3.0807   -2.4787   -0.0000 S   0  0  0  0  0  0  0  0  0  0  0  0
    3.0925   -0.0590   -0.0000 N   0  0  0  0  0  0  0  0  0  0  0  0
   -1.5226    2.6321   -0.0000 F   0  0  0  0  0  0  0  0  0  0  0  0
   -3.7653    1.3338   -0.0000 C   0  0  0  0  0  0  0  0  0  0  0  0
   -3.7889   -1.2394   -0.0000 C   0  0  0  0  0  0  0  0  0  0  0  0
    4.4971   -2.0066   -0.0000 N   0  0  0  0  0  0  0  0  0  0  0  0
    4.4971   -0.5193   -0.0000 C   0  0  0  0  0  0  0  0  0  0  0  0
   -4.5207    0.0590   -0.0000 C   0  0  0  0  0  0  0  0  0  0  0  0
   -4.5561   -2.5141   -0.0000 F   0  0  0  0  0  0  0  0  0  0  0  0
   -6.0315    0.0826   -0.0000 O   0  0  0  0  0  0  0  0  0  0  0  0
   -6.7869    1.3928   -0.0000 C   0  0  0  0  0  0  0  0  0  0  0  0
   -8.2978    1.4164   -0.0000 C   0  0  0  0  0  0  0  0  0  0  0  0
   -9.0650    0.1416   -0.0000 C   0  0  0  0  0  0  0  0  0  0  0  0
  -10.1509    1.2275   -0.0000 C   0  0  0  0  0  0  0  0  0  0  0  0
  -10.3869   -0.5430   -0.0000 C   0  0  0  0  0  0  0  0  0  0  0  0
   -7.8020   -0.6138   -0.0000 C   0  0  0  0  0  0  0  0  0  0  0  0
   -9.7614    2.7030   -0.0000 C   0  0  0  0  0  0  0  0  0  0  0  0
  -11.6145    0.8498   -0.0000 C   0  0  0  0  0  0  0  0  0  0  0  0
  -10.4460   -2.0184   -0.0000 C   0  0  0  0  0  0  0  0  0  0  0  0
   -7.8610   -2.1010   -0.0000 C   0  0  0  0  0  0  0  0  0  0  0  0
  -10.8355    3.7889   -0.0000 C   0  0  0  0  0  0  0  0  0  0  0  0
  -12.7004    1.9239   -0.0000 C   0  0  0  0  0  0  0  0  0  0  0  0
   -9.1948   -2.7974   -0.0000 C   0  0  0  0  0  0  0  0  0  0  0  0
  -12.3109    3.4112   -0.0000 C   0  0  0  0  0  0  0  0  0  0  0  0
   -9.2538   -4.2846   -0.0000 N   0  0  0  0  0  0  0  0  0  0  0  0
  1  2  2  0  0  0  0
  1  3  2  0  0  0  0
  1  4  1  0  0  0  0
  1  5  1  0  0  0  0
  4  6  1  0  0  0  0
  5  7  2  0  0  0  0
  5  8  1  0  0  0  0
  6  9  1  0  0  0  0
  6 10  2  0  0  0  0
  7 11  1  0  0  0  0
  7 12  1  0  0  0  0
  8 13  2  0  0  0  0
  9 14  1  0  0  0  0
 10 15  1  0  0  0  0
 12 16  2  0  0  0  0
 13 17  1  0  0  0  0
 16 18  1  0  0  0  0
 18 19  1  0  0  0  0
 19 20  1  0  0  0  0
 21 20  1  1  0  0  0
 21 22  1  0  0  0  0
 21 23  1  0  0  0  0
 21 24  1  0  0  0  0
 22 25  2  0  0  0  0
 22 26  1  0  0  0  0
 23 27  1  0  0  0  0
 24 28  1  0  0  0  0
 25 29  1  0  0  0  0
 26 30  2  0  0  0  0
 27 31  1  0  0  0  0
 29 32  2  0  0  0  0
 31 33  1  1  0  0  0
 13 16  1  0  0  0  0
 14 15  2  0  0  0  0
 28 31  1  0  0  0  0
 30 32  1  0  0  0  0
M  END
>  <MolRegNo>
2242544

>  <m>
=

>  <Value>
430

>  <Unit>
nM

>  <Type>
IC50

>  <pValue>
6.37

>  <Ligand Efficiency>
0

>  <Binding Efficiency>
0

>  <Surface Efficiency>
0

>  <Assay Index>
1077710

>  <Assay Category>


>  <Assay Organism>
Homo sapiens

>  <Target ID>
17045

>  <Target Name>
Cytochrome P450 3A4

>  <Target Organism>
Homo sapiens

>  <Target Description>
Target is a single protein chain

>  <Sequence Accession>
P08684

>  <Reference>
J Med Chem 60 (6), 2513-2525 (2017)

>  <Pubmed ID>
28234467

>  <DOI>
10.1021/acs.jmedchem.6b01918

$$$$
2202477
Actelion Java MolfileCreator 1.0

 33 36  0  0  1  0  0  0  0  0999 V2000
    0.0000   -0.0000   -0.0000 S   0  0  0  0  0  0  0  0  0  0  0  0
    0.3895    1.4636   -0.0000 O   0  0  0  0  0  0  0  0  0  0  0  0
    1.4400    0.3895   -0.0000 O   0  0  0  0  0  0  0  0  0  0  0  0
    0.7318   -1.2866   -0.0000 N   0  0  0  0  0  0  0  0  0  0  0  0
   -1.5108    0.0118   -0.0000 C   0  0  0  0  0  0  0  0  0  0  0  0
    2.2190   -1.2748   -0.0000 C   0  0  0  0  0  0  0  0  0  0  0  0
   -2.2662    1.3220   -0.0000 C   0  0  0  0  0  0  0  0  0  0  0  0
   -2.2780   -1.2630   -0.0000 C   0  0  0  0  0  0  0  0  0  0  0  0
    3.0807   -2.4787   -0.0000 S   0  0  0  0  0  0  0  0  0  0  0  0
    3.0925   -0.0590   -0.0000 N   0  0  0  0  0  0  0  0  0  0  0  0
   -1.5226    2.6321   -0.0000 F   0  0  0  0  0  0  0  0  0  0  0  0
   -3.7653    1.3338   -0.0000 C   0  0  0  0  0  0  0  0  0  0  0  0
   -3.7889   -1.2394   -0.0000 C   0  0  0  0  0  0  0  0  0  0  0  0
    4.4971   -2.0066   -0.0000 N   0  0  0  0  0  0  0  0  0  0  0  0
    4.4971   -0.5193   -0.0000 C   0  0  0  0  0  0  0  0  0  0  0  0
   -4.5207    0.0590   -0.0000 C   0  0  0  0  0  0  0  0  0  0  0  0
   -4.5561   -2.5141   -0.0000 F   0  0  0  0  0  0  0  0  0  0  0  0
   -6.0315    0.0826   -0.0000 O   0  0  0  0  0  0  0  0  0  0  0  0
   -6.7869    1.3928   -0.0000 C   0  0  0  0  0  0  0  0  0  0  0  0
   -8.2978    1.4164   -0.0000 C   0  0  0  0  0  0  0  0  0  0  0  0
   -9.0650    0.1416   -0.0000 C   0  0  0  0  0  0  0  0  0  0  0  0
  -10.1509    1.2275   -0.0000 C   0  0  0  0  0  0  0  0  0  0  0  0
  -10.3869   -0.5430   -0.0000 C   0  0  0  0  0  0  0  0  0  0  0  0
   -7.8020   -0.6138   -0.0000 C   0  0  0  0  0  0  0  0  0  0  0  0
   -9.7614    2.7030   -0.0000 C   0  0  0  0  0  0  0  0  0  0  0  0
  -11.6145    0.8498   -0.0000 C   0  0  0  0  0  0  0  0  0  0  0  0
  -10.4460   -2.0184   -0.0000 C   0  0  0  0  0  0  0  0  0  0  0  0
   -7.8610   -2.1010   -0.0000 C   0  0  0  0  0  0  0  0  0  0  0  0
  -10.8355    3.7889   -0.0000 C   0  0  0  0  0  0  0  0  0  0  0  0
  -12.7004    1.9239   -0.0000 C   0  0  0  0  0  0  0  0  0  0  0  0
   -9.1948   -2.7974   -0.0000 C   0  0  0  0  0  0  0  0  0  0  0  0
  -12.3109    3.4112   -0.0000 C   0  0  0  0  0  0  0  0  0  0  0  0
   -9.2538   -4.2846   -0.0000 N   0  0  0  0  0  0  0  0  0  0  0  0
  1  2  2  0  0  0  0
  1  3  2  0  0  0  0
  1  4  1  0  0  0  0
  1  5  1  0  0  0  0
  4  6  1  0  0  0  0
  5  7  2  0  0  0  0
  5  8  1  0  0  0  0
  6  9  1  0  0  0  0
  6 10  2  0  0  0  0
  7 11  1  0  0  0  0
  7 12  1  0  0  0  0
  8 13  2  0  0  0  0
  9 14  1  0  0  0  0
 10 15  1  0  0  0  0
 12 16  2  0  0  0  0
 13 17  1  0  0  0  0
 16 18  1  0  0  0  0
 18 19  1  0  0  0  0
 19 20  1  0  0  0  0
 21 20  1  1  0  0  0
 21 22  1  0  0  0  0
 21 23  1  0  0  0  0
 21 24  1  0  0  0  0
 22 25  2  0  0  0  0
 22 26  1  0  0  0  0
 23 27  1  0  0  0  0
 24 28  1  0  0  0  0
 25 29  1  0  0  0  0
 26 30  2  0  0  0  0
 27 31  1  0  0  0  0
 29 32  2  0  0  0  0
 31 33  1  6  0  0  0
 13 16  1  0  0  0  0
 14 15  2  0  0  0  0
 28 31  1  0  0  0  0
 30 32  1  0  0  0  0
M  END
>  <MolRegNo>
2202477

>  <m>
=

>  <Value>
680

>  <Unit>
nM

>  <Type>
IC50

>  <pValue>
6.17

>  <Ligand Efficiency>
0

>  <Binding Efficiency>
0

>  <Surface Efficiency>
0

>  <Assay Index>
1077710

>  <Assay Category>


>  <Assay Organism>
Homo sapiens

>  <Target ID>
17045

>  <Target Name>
Cytochrome P450 3A4

>  <Target Organism>
Homo sapiens

>  <Target Description>
Target is a single protein chain

>  <Sequence Accession>
P08684

>  <Reference>
J Med Chem 60 (6), 2513-2525 (2017)

>  <Pubmed ID>
28234467

>  <DOI>
10.1021/acs.jmedchem.6b01918

$$$$
2238823
Actelion Java MolfileCreator 1.0

 33 36  0  0  1  0  0  0  0  0999 V2000
    0.0000   -0.0000   -0.0000 Cl  0  0  0  0  0  0  0  0  0  0  0  0
    0.7436    1.2983   -0.0000 C   0  0  0  0  0  0  0  0  0  0  0  0
    0.0000    2.6203   -0.0000 C   0  0  0  0  0  0  0  0  0  0  0  0
    2.2308    1.2983   -0.0000 C   0  0  0  0  0  0  0  0  0  0  0  0
   -1.5108    2.6439   -0.0000 O   0  0  0  0  0  0  0  0  0  0  0  0
    0.7318    3.9186   -0.0000 C   0  0  0  0  0  0  0  0  0  0  0  0
    2.9744    2.5967   -0.0000 C   0  0  0  0  0  0  0  0  0  0  0  0
   -2.2662    3.9540   -0.0000 C   0  0  0  0  0  0  0  0  0  0  0  0
    2.2072    3.9304   -0.0000 C   0  0  0  0  0  0  0  0  0  0  0  0
    4.4616    2.6085   -0.0000 S   0  0  0  0  0  0  0  0  0  0  0  0
   -3.7770    3.9776   -0.0000 C   0  0  0  0  0  0  0  0  0  0  0  0
    2.9390    5.2406   -0.0000 F   0  0  0  0  0  0  0  0  0  0  0  0
    4.8511    4.0721   -0.0000 O   0  0  0  0  0  0  0  0  0  0  0  0
    5.9015    2.9980   -0.0000 O   0  0  0  0  0  0  0  0  0  0  0  0
    5.1933    1.3219   -0.0000 N   0  0  0  0  0  0  0  0  0  0  0  0
   -4.5442    2.7029   -0.0000 C   0  0  0  0  0  0  0  0  0  0  0  0
    6.6805    1.3337   -0.0000 C   0  0  0  0  0  0  0  0  0  0  0  0
   -5.6301    3.7888   -0.0000 C   0  0  0  0  0  0  0  0  0  0  0  0
   -5.8661    2.0183   -0.0000 C   0  0  0  0  0  0  0  0  0  0  0  0
   -3.2812    1.9475   -0.0000 C   0  0  0  0  0  0  0  0  0  0  0  0
    7.5421    0.1298   -0.0000 S   0  0  0  0  0  0  0  0  0  0  0  0
    7.5540    2.5495   -0.0000 N   0  0  0  0  0  0  0  0  0  0  0  0
   -5.2406    5.2642   -0.0000 C   0  0  0  0  0  0  0  0  0  0  0  0
   -7.0936    3.4111   -0.0000 C   0  0  0  0  0  0  0  0  0  0  0  0
   -5.9251    0.5429   -0.0000 C   0  0  0  0  0  0  0  0  0  0  0  0
   -3.3403    0.4603   -0.0000 C   0  0  0  0  0  0  0  0  0  0  0  0
    8.9585    0.6020   -0.0000 N   0  0  0  0  0  0  0  0  0  0  0  0
    8.9585    2.0891   -0.0000 C   0  0  0  0  0  0  0  0  0  0  0  0
   -6.3146    6.3500   -0.0000 C   0  0  0  0  0  0  0  0  0  0  0  0
   -8.1795    4.4852   -0.0000 C   0  0  0  0  0  0  0  0  0  0  0  0
   -4.6740   -0.2361   -0.0000 C   0  0  0  0  0  0  0  0  0  0  0  0
   -7.7900    5.9723   -0.0000 C   0  0  0  0  0  0  0  0  0  0  0  0
   -4.7330   -1.7232   -0.0000 N   0  0  0  0  0  0  0  0  0  0  0  0
  1  2  1  0  0  0  0
  2  3  2  0  0  0  0
  2  4  1  0  0  0  0
  3  5  1  0  0  0  0
  3  6  1  0  0  0  0
  4  7  2  0  0  0  0
  5  8  1  0  0  0  0
  6  9  2  0  0  0  0
  7 10  1  0  0  0  0
  8 11  1  0  0  0  0
  9 12  1  0  0  0  0
 10 13  2  0  0  0  0
 10 14  2  0  0  0  0
 10 15  1  0  0  0  0
 16 11  1  1  0  0  0
 15 17  1  0  0  0  0
 16 18  1  0  0  0  0
 16 19  1  0  0  0  0
 16 20  1  0  0  0  0
 17 21  1  0  0  0  0
 17 22  2  0  0  0  0
 18 23  2  0  0  0  0
 18 24  1  0  0  0  0
 19 25  1  0  0  0  0
 20 26  1  0  0  0  0
 21 27  1  0  0  0  0
 22 28  1  0  0  0  0
 23 29  1  0  0  0  0
 24 30  2  0  0  0  0
 25 31  1  0  0  0  0
 29 32  2  0  0  0  0
 31 33  1  1  0  0  0
  7  9  1  0  0  0  0
 26 31  1  0  0  0  0
 27 28  2  0  0  0  0
 30 32  1  0  0  0  0
M  END
>  <MolRegNo>
2238823

>  <m>
=

>  <Value>
270

>  <Unit>
nM

>  <Type>
IC50

>  <pValue>
6.57

>  <Ligand Efficiency>
0

>  <Binding Efficiency>
0

>  <Surface Efficiency>
0

>  <Assay Index>
1077710

>  <Assay Category>


>  <Assay Organism>
Homo sapiens

>  <Target ID>
17045

>  <Target Name>
Cytochrome P450 3A4

>  <Target Organism>
Homo sapiens

>  <Target Description>
Target is a single protein chain

>  <Sequence Accession>
P08684

>  <Reference>
J Med Chem 60 (6), 2513-2525 (2017)

>  <Pubmed ID>
28234467

>  <DOI>
10.1021/acs.jmedchem.6b01918

$$$$
2238889
Actelion Java MolfileCreator 1.0

 33 36  0  0  1  0  0  0  0  0999 V2000
    0.0000   -0.0000   -0.0000 Cl  0  0  0  0  0  0  0  0  0  0  0  0
    0.7435    1.2982   -0.0000 C   0  0  0  0  0  0  0  0  0  0  0  0
    0.0000    2.6200   -0.0000 C   0  0  0  0  0  0  0  0  0  0  0  0
    2.2305    1.2982   -0.0000 C   0  0  0  0  0  0  0  0  0  0  0  0
   -1.5106    2.6436   -0.0000 O   0  0  0  0  0  0  0  0  0  0  0  0
    0.7317    3.9182   -0.0000 C   0  0  0  0  0  0  0  0  0  0  0  0
    2.9740    2.5964   -0.0000 C   0  0  0  0  0  0  0  0  0  0  0  0
   -2.2659    3.9536   -0.0000 C   0  0  0  0  0  0  0  0  0  0  0  0
    2.2069    3.9300   -0.0000 C   0  0  0  0  0  0  0  0  0  0  0  0
    4.4611    2.6082   -0.0000 S   0  0  0  0  0  0  0  0  0  0  0  0
   -3.7766    3.9772   -0.0000 C   0  0  0  0  0  0  0  0  0  0  0  0
    2.9504    5.2400   -0.0000 F   0  0  0  0  0  0  0  0  0  0  0  0
    4.8505    4.0716   -0.0000 O   0  0  0  0  0  0  0  0  0  0  0  0
    5.9009    2.9977   -0.0000 O   0  0  0  0  0  0  0  0  0  0  0  0
    5.1928    1.3218   -0.0000 N   0  0  0  0  0  0  0  0  0  0  0  0
   -4.5437    2.7026   -0.0000 C   0  0  0  0  0  0  0  0  0  0  0  0
    6.6798    1.3336   -0.0000 C   0  0  0  0  0  0  0  0  0  0  0  0
   -5.6295    3.7884   -0.0000 C   0  0  0  0  0  0  0  0  0  0  0  0
   -5.8655    2.0181   -0.0000 C   0  0  0  0  0  0  0  0  0  0  0  0
   -3.2809    1.9473   -0.0000 C   0  0  0  0  0  0  0  0  0  0  0  0
    7.5413    0.1298   -0.0000 S   0  0  0  0  0  0  0  0  0  0  0  0
    7.5531    2.5492   -0.0000 N   0  0  0  0  0  0  0  0  0  0  0  0
   -5.2400    5.2636   -0.0000 C   0  0  0  0  0  0  0  0  0  0  0  0
   -7.0929    3.4107   -0.0000 C   0  0  0  0  0  0  0  0  0  0  0  0
   -5.9245    0.5429   -0.0000 C   0  0  0  0  0  0  0  0  0  0  0  0
   -3.3399    0.4603   -0.0000 C   0  0  0  0  0  0  0  0  0  0  0  0
    8.9576    0.6019   -0.0000 N   0  0  0  0  0  0  0  0  0  0  0  0
    8.9576    2.0889   -0.0000 C   0  0  0  0  0  0  0  0  0  0  0  0
   -6.3140    6.3494   -0.0000 C   0  0  0  0  0  0  0  0  0  0  0  0
   -8.1786    4.4847   -0.0000 C   0  0  0  0  0  0  0  0  0  0  0  0
   -4.6735   -0.2360   -0.0000 C   0  0  0  0  0  0  0  0  0  0  0  0
   -7.7892    5.9717   -0.0000 C   0  0  0  0  0  0  0  0  0  0  0  0
   -4.7325   -1.7231   -0.0000 N   0  0  0  0  0  0  0  0  0  0  0  0
  1  2  1  0  0  0  0
  2  3  2  0  0  0  0
  2  4  1  0  0  0  0
  3  5  1  0  0  0  0
  3  6  1  0  0  0  0
  4  7  2  0  0  0  0
  5  8  1  0  0  0  0
  6  9  2  0  0  0  0
  7 10  1  0  0  0  0
  8 11  1  0  0  0  0
  9 12  1  0  0  0  0
 10 13  2  0  0  0  0
 10 14  2  0  0  0  0
 10 15  1  0  0  0  0
 16 11  1  1  0  0  0
 15 17  1  0  0  0  0
 16 18  1  0  0  0  0
 16 19  1  0  0  0  0
 16 20  1  0  0  0  0
 17 21  1  0  0  0  0
 17 22  2  0  0  0  0
 18 23  2  0  0  0  0
 18 24  1  0  0  0  0
 19 25  1  0  0  0  0
 20 26  1  0  0  0  0
 21 27  1  0  0  0  0
 22 28  1  0  0  0  0
 23 29  1  0  0  0  0
 24 30  2  0  0  0  0
 25 31  1  0  0  0  0
 29 32  2  0  0  0  0
 31 33  1  6  0  0  0
  7  9  1  0  0  0  0
 26 31  1  0  0  0  0
 27 28  2  0  0  0  0
 30 32  1  0  0  0  0
M  END
>  <MolRegNo>
2238889

>  <m>
=

>  <Value>
580

>  <Unit>
nM

>  <Type>
IC50

>  <pValue>
6.24

>  <Ligand Efficiency>
0

>  <Binding Efficiency>
0

>  <Surface Efficiency>
0

>  <Assay Index>
1077710

>  <Assay Category>


>  <Assay Organism>
Homo sapiens

>  <Target ID>
17045

>  <Target Name>
Cytochrome P450 3A4

>  <Target Organism>
Homo sapiens

>  <Target Description>
Target is a single protein chain

>  <Sequence Accession>
P08684

>  <Reference>
J Med Chem 60 (6), 2513-2525 (2017)

>  <Pubmed ID>
28234467

>  <DOI>
10.1021/acs.jmedchem.6b01918

$$$$
2211918
Actelion Java MolfileCreator 1.0

 34 37  0  0  1  0  0  0  0  0999 V2000
    0.0000   -0.0000   -0.0000 S   0  0  0  0  0  0  0  0  0  0  0  0
    0.3897    1.4642   -0.0000 O   0  0  0  0  0  0  0  0  0  0  0  0
    1.4406    0.3897   -0.0000 O   0  0  0  0  0  0  0  0  0  0  0  0
    0.7321   -1.2871   -0.0000 N   0  0  0  0  0  0  0  0  0  0  0  0
   -1.5114    0.0118   -0.0000 C   0  0  0  0  0  0  0  0  0  0  0  0
    2.2199   -1.2753   -0.0000 C   0  0  0  0  0  0  0  0  0  0  0  0
   -2.2671    1.3225   -0.0000 C   0  0  0  0  0  0  0  0  0  0  0  0
   -2.2789   -1.2635   -0.0000 C   0  0  0  0  0  0  0  0  0  0  0  0
    3.0819   -2.4797   -0.0000 S   0  0  0  0  0  0  0  0  0  0  0  0
    3.0937   -0.0590   -0.0000 N   0  0  0  0  0  0  0  0  0  0  0  0
   -1.5350    2.6332   -0.0000 F   0  0  0  0  0  0  0  0  0  0  0  0
   -3.7668    1.3343   -0.0000 C   0  0  0  0  0  0  0  0  0  0  0  0
   -3.7904   -1.2398   -0.0000 C   0  0  0  0  0  0  0  0  0  0  0  0
    4.4988   -2.0074   -0.0000 N   0  0  0  0  0  0  0  0  0  0  0  0
    4.4988   -0.5196   -0.0000 C   0  0  0  0  0  0  0  0  0  0  0  0
   -4.5225    0.0590   -0.0000 C   0  0  0  0  0  0  0  0  0  0  0  0
   -4.5579   -2.5151   -0.0000 F   0  0  0  0  0  0  0  0  0  0  0  0
   -6.0339    0.0827   -0.0000 O   0  0  0  0  0  0  0  0  0  0  0  0
   -6.7896    1.3933   -0.0000 C   0  0  0  0  0  0  0  0  0  0  0  0
   -8.3010    1.4170   -0.0000 C   0  0  0  0  0  0  0  0  0  0  0  0
   -9.0685    0.1417   -0.0000 C   0  0  0  0  0  0  0  0  0  0  0  0
  -10.1549    1.2280   -0.0000 C   0  0  0  0  0  0  0  0  0  0  0  0
  -10.3910   -0.5432   -0.0000 C   0  0  0  0  0  0  0  0  0  0  0  0
   -7.8051   -0.6140   -0.0000 C   0  0  0  0  0  0  0  0  0  0  0  0
   -9.7652    2.7040   -0.0000 C   0  0  0  0  0  0  0  0  0  0  0  0
  -11.6191    0.8502   -0.0000 C   0  0  0  0  0  0  0  0  0  0  0  0
  -10.4501   -2.0192   -0.0000 C   0  0  0  0  0  0  0  0  0  0  0  0
   -7.8641   -2.1018   -0.0000 C   0  0  0  0  0  0  0  0  0  0  0  0
  -10.8397    3.7904   -0.0000 C   0  0  0  0  0  0  0  0  0  0  0  0
  -12.7054    1.9247   -0.0000 C   0  0  0  0  0  0  0  0  0  0  0  0
   -9.1984   -2.7985   -0.0000 C   0  0  0  0  0  0  0  0  0  0  0  0
  -12.3157    3.4125   -0.0000 C   0  0  0  0  0  0  0  0  0  0  0  0
   -9.2575   -4.2863   -0.0000 N   0  0  0  0  0  0  0  0  0  0  0  0
   -7.9940   -5.0656   -0.0000 C   0  0  0  0  0  0  0  0  0  0  0  0
  1  2  2  0  0  0  0
  1  3  2  0  0  0  0
  1  4  1  0  0  0  0
  1  5  1  0  0  0  0
  4  6  1  0  0  0  0
  5  7  2  0  0  0  0
  5  8  1  0  0  0  0
  6  9  1  0  0  0  0
  6 10  2  0  0  0  0
  7 11  1  0  0  0  0
  7 12  1  0  0  0  0
  8 13  2  0  0  0  0
  9 14  1  0  0  0  0
 10 15  1  0  0  0  0
 12 16  2  0  0  0  0
 13 17  1  0  0  0  0
 16 18  1  0  0  0  0
 18 19  1  0  0  0  0
 19 20  1  0  0  0  0
 21 20  1  1  0  0  0
 21 22  1  0  0  0  0
 21 23  1  0  0  0  0
 21 24  1  0  0  0  0
 22 25  2  0  0  0  0
 22 26  1  0  0  0  0
 23 27  1  0  0  0  0
 24 28  1  0  0  0  0
 25 29  1  0  0  0  0
 26 30  2  0  0  0  0
 27 31  1  0  0  0  0
 29 32  2  0  0  0  0
 31 33  1  1  0  0  0
 33 34  1  0  0  0  0
 13 16  1  0  0  0  0
 14 15  2  0  0  0  0
 28 31  1  0  0  0  0
 30 32  1  0  0  0  0
M  END
>  <MolRegNo>
2211918

>  <m>
=

>  <Value>
450

>  <Unit>
nM

>  <Type>
IC50

>  <pValue>
6.35

>  <Ligand Efficiency>
0

>  <Binding Efficiency>
0

>  <Surface Efficiency>
0

>  <Assay Index>
1077710

>  <Assay Category>


>  <Assay Organism>
Homo sapiens

>  <Target ID>
17045

>  <Target Name>
Cytochrome P450 3A4

>  <Target Organism>
Homo sapiens

>  <Target Description>
Target is a single protein chain

>  <Sequence Accession>
P08684

>  <Reference>
J Med Chem 60 (6), 2513-2525 (2017)

>  <Pubmed ID>
28234467

>  <DOI>
10.1021/acs.jmedchem.6b01918

$$$$
2203289
Actelion Java MolfileCreator 1.0

 36 40  0  0  1  0  0  0  0  0999 V2000
    0.0000   -0.0000   -0.0000 S   0  0  0  0  0  0  0  0  0  0  0  0
    0.3900    1.4654   -0.0000 O   0  0  0  0  0  0  0  0  0  0  0  0
    1.4418    0.3900   -0.0000 O   0  0  0  0  0  0  0  0  0  0  0  0
    0.7327   -1.2881   -0.0000 N   0  0  0  0  0  0  0  0  0  0  0  0
   -1.5127    0.0118   -0.0000 C   0  0  0  0  0  0  0  0  0  0  0  0
    2.2217   -1.2763   -0.0000 C   0  0  0  0  0  0  0  0  0  0  0  0
   -2.2690    1.3236   -0.0000 C   0  0  0  0  0  0  0  0  0  0  0  0
   -2.2808   -1.2645   -0.0000 C   0  0  0  0  0  0  0  0  0  0  0  0
    3.0844   -2.4817   -0.0000 S   0  0  0  0  0  0  0  0  0  0  0  0
    3.0962   -0.0591   -0.0000 N   0  0  0  0  0  0  0  0  0  0  0  0
   -1.5363    2.6354   -0.0000 F   0  0  0  0  0  0  0  0  0  0  0  0
   -3.7699    1.3354   -0.0000 C   0  0  0  0  0  0  0  0  0  0  0  0
   -3.7935   -1.2409   -0.0000 C   0  0  0  0  0  0  0  0  0  0  0  0
    4.5026   -2.0090   -0.0000 N   0  0  0  0  0  0  0  0  0  0  0  0
    4.5026   -0.5200   -0.0000 C   0  0  0  0  0  0  0  0  0  0  0  0
   -4.5262    0.0591   -0.0000 C   0  0  0  0  0  0  0  0  0  0  0  0
   -4.5616   -2.5172   -0.0000 F   0  0  0  0  0  0  0  0  0  0  0  0
   -6.0389    0.0827   -0.0000 O   0  0  0  0  0  0  0  0  0  0  0  0
   -6.7952    1.3945   -0.0000 C   0  0  0  0  0  0  0  0  0  0  0  0
   -8.3079    1.4181   -0.0000 C   0  0  0  0  0  0  0  0  0  0  0  0
   -9.0760    0.1418   -0.0000 C   0  0  0  0  0  0  0  0  0  0  0  0
  -10.1514    1.2290   -0.0000 C   0  0  0  0  0  0  0  0  0  0  0  0
  -10.3996   -0.5436   -0.0000 C   0  0  0  0  0  0  0  0  0  0  0  0
   -7.8115   -0.6145   -0.0000 C   0  0  0  0  0  0  0  0  0  0  0  0
  -11.6168    0.8509   -0.0000 C   0  0  0  0  0  0  0  0  0  0  0  0
   -9.7615    2.7063   -0.0000 C   0  0  0  0  0  0  0  0  0  0  0  0
  -10.4587   -2.0208   -0.0000 C   0  0  0  0  0  0  0  0  0  0  0  0
   -7.8706   -2.1036   -0.0000 C   0  0  0  0  0  0  0  0  0  0  0  0
  -12.7041    1.9263   -0.0000 C   0  0  0  0  0  0  0  0  0  0  0  0
  -10.8369    3.7935   -0.0000 C   0  0  0  0  0  0  0  0  0  0  0  0
   -9.2060   -2.8008   -0.0000 C   0  0  0  0  0  0  0  0  0  0  0  0
  -12.3259    3.4035   -0.0000 C   0  0  0  0  0  0  0  0  0  0  0  0
   -9.2651   -4.2898   -0.0000 N   0  0  0  0  0  0  0  0  0  0  0  0
  -10.5887   -4.9753   -0.0000 C   0  0  0  0  0  0  0  0  0  0  0  0
  -12.0777   -4.9162   -0.0000 C   0  0  0  0  0  0  0  0  0  0  0  0
  -11.3805   -6.2280   -0.0000 C   0  0  0  0  0  0  0  0  0  0  0  0
  1  2  2  0  0  0  0
  1  3  2  0  0  0  0
  1  4  1  0  0  0  0
  1  5  1  0  0  0  0
  4  6  1  0  0  0  0
  5  7  2  0  0  0  0
  5  8  1  0  0  0  0
  6  9  1  0  0  0  0
  6 10  2  0  0  0  0
  7 11  1  0  0  0  0
  7 12  1  0  0  0  0
  8 13  2  0  0  0  0
  9 14  1  0  0  0  0
 10 15  1  0  0  0  0
 12 16  2  0  0  0  0
 13 17  1  0  0  0  0
 16 18  1  0  0  0  0
 18 19  1  0  0  0  0
 19 20  1  0  0  0  0
 21 20  1  1  0  0  0
 21 22  1  0  0  0  0
 21 23  1  0  0  0  0
 21 24  1  0  0  0  0
 22 25  2  0  0  0  0
 22 26  1  0  0  0  0
 23 27  1  0  0  0  0
 24 28  1  0  0  0  0
 25 29  1  0  0  0  0
 26 30  2  0  0  0  0
 27 31  1  0  0  0  0
 29 32  2  0  0  0  0
 31 33  1  1  0  0  0
 33 34  1  0  0  0  0
 34 35  1  0  0  0  0
 34 36  1  0  0  0  0
 13 16  1  0  0  0  0
 14 15  2  0  0  0  0
 28 31  1  0  0  0  0
 30 32  1  0  0  0  0
 35 36  1  0  0  0  0
M  END
>  <MolRegNo>
2203289

>  <m>
=

>  <Value>
90

>  <Unit>
nM

>  <Type>
IC50

>  <pValue>
7.05

>  <Ligand Efficiency>
0

>  <Binding Efficiency>
0

>  <Surface Efficiency>
0

>  <Assay Index>
1077710

>  <Assay Category>


>  <Assay Organism>
Homo sapiens

>  <Target ID>
17045

>  <Target Name>
Cytochrome P450 3A4

>  <Target Organism>
Homo sapiens

>  <Target Description>
Target is a single protein chain

>  <Sequence Accession>
P08684

>  <Reference>
J Med Chem 60 (6), 2513-2525 (2017)

>  <Pubmed ID>
28234467

>  <DOI>
10.1021/acs.jmedchem.6b01918

$$$$
2241348
Actelion Java MolfileCreator 1.0

 33 36  0  0  1  0  0  0  0  0999 V2000
    0.0000   -0.0000   -0.0000 Cl  0  0  0  0  0  0  0  0  0  0  0  0
    0.7435    1.2982   -0.0000 C   0  0  0  0  0  0  0  0  0  0  0  0
    0.0000    2.6200   -0.0000 C   0  0  0  0  0  0  0  0  0  0  0  0
    2.2305    1.2982   -0.0000 C   0  0  0  0  0  0  0  0  0  0  0  0
   -1.5106    2.6436   -0.0000 N   0  0  0  0  0  0  0  0  0  0  0  0
    0.7317    3.9182   -0.0000 C   0  0  0  0  0  0  0  0  0  0  0  0
    2.9740    2.5964   -0.0000 C   0  0  0  0  0  0  0  0  0  0  0  0
   -2.2659    3.9536   -0.0000 C   0  0  0  0  0  0  0  0  0  0  0  0
    2.2069    3.9300   -0.0000 C   0  0  0  0  0  0  0  0  0  0  0  0
    4.4611    2.6082   -0.0000 S   0  0  0  0  0  0  0  0  0  0  0  0
   -3.7766    3.9772   -0.0000 C   0  0  0  0  0  0  0  0  0  0  0  0
    2.9504    5.2400   -0.0000 F   0  0  0  0  0  0  0  0  0  0  0  0
    4.8505    4.0716   -0.0000 O   0  0  0  0  0  0  0  0  0  0  0  0
    5.9009    2.9977   -0.0000 O   0  0  0  0  0  0  0  0  0  0  0  0
    5.1928    1.3218   -0.0000 N   0  0  0  0  0  0  0  0  0  0  0  0
   -4.5437    2.7026   -0.0000 C   0  0  0  0  0  0  0  0  0  0  0  0
    6.6798    1.3336   -0.0000 C   0  0  0  0  0  0  0  0  0  0  0  0
   -5.6295    3.7884   -0.0000 C   0  0  0  0  0  0  0  0  0  0  0  0
   -5.8655    2.0181   -0.0000 C   0  0  0  0  0  0  0  0  0  0  0  0
   -3.2809    1.9473   -0.0000 C   0  0  0  0  0  0  0  0  0  0  0  0
    7.5413    0.1298   -0.0000 S   0  0  0  0  0  0  0  0  0  0  0  0
    7.5531    2.5492   -0.0000 N   0  0  0  0  0  0  0  0  0  0  0  0
   -5.2400    5.2636   -0.0000 C   0  0  0  0  0  0  0  0  0  0  0  0
   -7.0929    3.4107   -0.0000 C   0  0  0  0  0  0  0  0  0  0  0  0
   -5.9245    0.5429   -0.0000 C   0  0  0  0  0  0  0  0  0  0  0  0
   -3.3399    0.4603   -0.0000 C   0  0  0  0  0  0  0  0  0  0  0  0
    8.9576    0.6019   -0.0000 C   0  0  0  0  0  0  0  0  0  0  0  0
    8.9576    2.0889   -0.0000 C   0  0  0  0  0  0  0  0  0  0  0  0
   -6.3140    6.3494   -0.0000 C   0  0  0  0  0  0  0  0  0  0  0  0
   -8.1786    4.4847   -0.0000 C   0  0  0  0  0  0  0  0  0  0  0  0
   -4.6735   -0.2360   -0.0000 C   0  0  0  0  0  0  0  0  0  0  0  0
   -7.7892    5.9717   -0.0000 C   0  0  0  0  0  0  0  0  0  0  0  0
   -4.7325   -1.7231   -0.0000 N   0  0  0  0  0  0  0  0  0  0  0  0
  1  2  1  0  0  0  0
  2  3  2  0  0  0  0
  2  4  1  0  0  0  0
  3  5  1  0  0  0  0
  3  6  1  0  0  0  0
  4  7  2  0  0  0  0
  5  8  1  0  0  0  0
  6  9  2  0  0  0  0
  7 10  1  0  0  0  0
  8 11  1  0  0  0  0
  9 12  1  0  0  0  0
 10 13  2  0  0  0  0
 10 14  2  0  0  0  0
 10 15  1  0  0  0  0
 16 11  1  1  0  0  0
 15 17  1  0  0  0  0
 16 18  1  0  0  0  0
 16 19  1  0  0  0  0
 16 20  1  0  0  0  0
 17 21  1  0  0  0  0
 17 22  2  0  0  0  0
 18 23  2  0  0  0  0
 18 24  1  0  0  0  0
 19 25  1  0  0  0  0
 20 26  1  0  0  0  0
 21 27  1  0  0  0  0
 22 28  1  0  0  0  0
 23 29  1  0  0  0  0
 24 30  2  0  0  0  0
 25 31  1  0  0  0  0
 29 32  2  0  0  0  0
 31 33  1  1  0  0  0
  7  9  1  0  0  0  0
 26 31  1  0  0  0  0
 27 28  2  0  0  0  0
 30 32  1  0  0  0  0
M  END
>  <MolRegNo>
2241348

>  <m>
=

>  <Value>
6700

>  <Unit>
nM

>  <Type>
IC50

>  <pValue>
5.17

>  <Ligand Efficiency>
0

>  <Binding Efficiency>
0

>  <Surface Efficiency>
0

>  <Assay Index>
1077710

>  <Assay Category>


>  <Assay Organism>
Homo sapiens

>  <Target ID>
17045

>  <Target Name>
Cytochrome P450 3A4

>  <Target Organism>
Homo sapiens

>  <Target Description>
Target is a single protein chain

>  <Sequence Accession>
P08684

>  <Reference>
J Med Chem 60 (6), 2513-2525 (2017)

>  <Pubmed ID>
28234467

>  <DOI>
10.1021/acs.jmedchem.6b01918

$$$$
2217177
Actelion Java MolfileCreator 1.0

 33 36  0  0  1  0  0  0  0  0999 V2000
    0.0000   -0.0000   -0.0000 Cl  0  0  0  0  0  0  0  0  0  0  0  0
    0.7435    1.2982   -0.0000 C   0  0  0  0  0  0  0  0  0  0  0  0
    0.0000    2.6200   -0.0000 C   0  0  0  0  0  0  0  0  0  0  0  0
    2.2305    1.2982   -0.0000 C   0  0  0  0  0  0  0  0  0  0  0  0
   -1.5106    2.6436   -0.0000 N   0  0  0  0  0  0  0  0  0  0  0  0
    0.7317    3.9182   -0.0000 C   0  0  0  0  0  0  0  0  0  0  0  0
    2.9740    2.5964   -0.0000 C   0  0  0  0  0  0  0  0  0  0  0  0
   -2.2659    3.9536   -0.0000 C   0  0  0  0  0  0  0  0  0  0  0  0
    2.2069    3.9300   -0.0000 C   0  0  0  0  0  0  0  0  0  0  0  0
    4.4611    2.6082   -0.0000 S   0  0  0  0  0  0  0  0  0  0  0  0
   -3.7766    3.9772   -0.0000 C   0  0  0  0  0  0  0  0  0  0  0  0
    2.9504    5.2400   -0.0000 F   0  0  0  0  0  0  0  0  0  0  0  0
    4.8505    4.0716   -0.0000 O   0  0  0  0  0  0  0  0  0  0  0  0
    5.9009    2.9977   -0.0000 O   0  0  0  0  0  0  0  0  0  0  0  0
    5.1928    1.3218   -0.0000 N   0  0  0  0  0  0  0  0  0  0  0  0
   -4.5437    2.7026   -0.0000 C   0  0  0  0  0  0  0  0  0  0  0  0
    6.6798    1.3336   -0.0000 C   0  0  0  0  0  0  0  0  0  0  0  0
   -5.6295    3.7884   -0.0000 C   0  0  0  0  0  0  0  0  0  0  0  0
   -5.8655    2.0181   -0.0000 C   0  0  0  0  0  0  0  0  0  0  0  0
   -3.2809    1.9473   -0.0000 C   0  0  0  0  0  0  0  0  0  0  0  0
    7.5413    0.1298   -0.0000 S   0  0  0  0  0  0  0  0  0  0  0  0
    7.5531    2.5492   -0.0000 N   0  0  0  0  0  0  0  0  0  0  0  0
   -5.2400    5.2636   -0.0000 C   0  0  0  0  0  0  0  0  0  0  0  0
   -7.0929    3.4107   -0.0000 C   0  0  0  0  0  0  0  0  0  0  0  0
   -5.9245    0.5429   -0.0000 C   0  0  0  0  0  0  0  0  0  0  0  0
   -3.3399    0.4603   -0.0000 C   0  0  0  0  0  0  0  0  0  0  0  0
    8.9576    0.6019   -0.0000 C   0  0  0  0  0  0  0  0  0  0  0  0
    8.9576    2.0889   -0.0000 C   0  0  0  0  0  0  0  0  0  0  0  0
   -6.3140    6.3494   -0.0000 C   0  0  0  0  0  0  0  0  0  0  0  0
   -8.1786    4.4847   -0.0000 C   0  0  0  0  0  0  0  0  0  0  0  0
   -4.6735   -0.2360   -0.0000 C   0  0  0  0  0  0  0  0  0  0  0  0
   -7.7892    5.9717   -0.0000 C   0  0  0  0  0  0  0  0  0  0  0  0
   -4.7325   -1.7231   -0.0000 N   0  0  0  0  0  0  0  0  0  0  0  0
  1  2  1  0  0  0  0
  2  3  2  0  0  0  0
  2  4  1  0  0  0  0
  3  5  1  0  0  0  0
  3  6  1  0  0  0  0
  4  7  2  0  0  0  0
  5  8  1  0  0  0  0
  6  9  2  0  0  0  0
  7 10  1  0  0  0  0
  8 11  1  0  0  0  0
  9 12  1  0  0  0  0
 10 13  2  0  0  0  0
 10 14  2  0  0  0  0
 10 15  1  0  0  0  0
 16 11  1  1  0  0  0
 15 17  1  0  0  0  0
 16 18  1  0  0  0  0
 16 19  1  0  0  0  0
 16 20  1  0  0  0  0
 17 21  1  0  0  0  0
 17 22  2  0  0  0  0
 18 23  2  0  0  0  0
 18 24  1  0  0  0  0
 19 25  1  0  0  0  0
 20 26  1  0  0  0  0
 21 27  1  0  0  0  0
 22 28  1  0  0  0  0
 23 29  1  0  0  0  0
 24 30  2  0  0  0  0
 25 31  1  0  0  0  0
 29 32  2  0  0  0  0
 31 33  1  6  0  0  0
  7  9  1  0  0  0  0
 26 31  1  0  0  0  0
 27 28  2  0  0  0  0
 30 32  1  0  0  0  0
M  END
>  <MolRegNo>
2217177

>  <m>
=

>  <Value>
9800

>  <Unit>
nM

>  <Type>
IC50

>  <pValue>
5.01

>  <Ligand Efficiency>
0

>  <Binding Efficiency>
0

>  <Surface Efficiency>
0

>  <Assay Index>
1077710

>  <Assay Category>


>  <Assay Organism>
Homo sapiens

>  <Target ID>
17045

>  <Target Name>
Cytochrome P450 3A4

>  <Target Organism>
Homo sapiens

>  <Target Description>
Target is a single protein chain

>  <Sequence Accession>
P08684

>  <Reference>
J Med Chem 60 (6), 2513-2525 (2017)

>  <Pubmed ID>
28234467

>  <DOI>
10.1021/acs.jmedchem.6b01918

$$$$
2233631
Actelion Java MolfileCreator 1.0

 28 30  0  0  1  0  0  0  0  0999 V2000
    0.0000   -0.0000   -0.0000 S   0  0  0  0  0  0  0  0  0  0  0  0
    0.3908    1.4686   -0.0000 O   0  0  0  0  0  0  0  0  0  0  0  0
    1.4449    0.3908   -0.0000 O   0  0  0  0  0  0  0  0  0  0  0  0
    0.7343   -1.2909   -0.0000 N   0  0  0  0  0  0  0  0  0  0  0  0
   -1.5160    0.0118   -0.0000 C   0  0  0  0  0  0  0  0  0  0  0  0
    2.2266   -1.2791   -0.0000 C   0  0  0  0  0  0  0  0  0  0  0  0
   -2.2740    1.3265   -0.0000 C   0  0  0  0  0  0  0  0  0  0  0  0
   -2.2858   -1.2673   -0.0000 C   0  0  0  0  0  0  0  0  0  0  0  0
    3.0912   -2.4871   -0.0000 S   0  0  0  0  0  0  0  0  0  0  0  0
    3.1030   -0.0592   -0.0000 N   0  0  0  0  0  0  0  0  0  0  0  0
   -1.5278    2.6411   -0.0000 F   0  0  0  0  0  0  0  0  0  0  0  0
   -3.7781    1.3383   -0.0000 C   0  0  0  0  0  0  0  0  0  0  0  0
   -3.8018   -1.2436   -0.0000 C   0  0  0  0  0  0  0  0  0  0  0  0
    4.5124   -2.0134   -0.0000 N   0  0  0  0  0  0  0  0  0  0  0  0
    4.5124   -0.5211   -0.0000 C   0  0  0  0  0  0  0  0  0  0  0  0
   -4.5361    0.0592   -0.0000 C   0  0  0  0  0  0  0  0  0  0  0  0
   -4.5716   -2.5227   -0.0000 F   0  0  0  0  0  0  0  0  0  0  0  0
   -6.0520    0.0829   -0.0000 O   0  0  0  0  0  0  0  0  0  0  0  0
   -6.8100    1.3975   -0.0000 C   0  0  0  0  0  0  0  0  0  0  0  0
   -8.3260    1.4212   -0.0000 C   0  0  0  0  0  0  0  0  0  0  0  0
   -9.0958    0.1421   -0.0000 C   0  0  0  0  0  0  0  0  0  0  0  0
  -10.4223   -0.5448   -0.0000 C   0  0  0  0  0  0  0  0  0  0  0  0
   -7.8286   -0.6159   -0.0000 C   0  0  0  0  0  0  0  0  0  0  0  0
  -10.1854    1.2317   -0.0000 C   0  0  0  0  0  0  0  0  0  0  0  0
  -10.4815   -2.0252   -0.0000 C   0  0  0  0  0  0  0  0  0  0  0  0
   -7.8878   -2.1081   -0.0000 C   0  0  0  0  0  0  0  0  0  0  0  0
   -9.2261   -2.8069   -0.0000 C   0  0  0  0  0  0  0  0  0  0  0  0
   -9.2853   -4.2992   -0.0000 N   0  0  0  0  0  0  0  0  0  0  0  0
  1  2  2  0  0  0  0
  1  3  2  0  0  0  0
  1  4  1  0  0  0  0
  1  5  1  0  0  0  0
  4  6  1  0  0  0  0
  5  7  2  0  0  0  0
  5  8  1  0  0  0  0
  6  9  1  0  0  0  0
  6 10  2  0  0  0  0
  7 11  1  0  0  0  0
  7 12  1  0  0  0  0
  8 13  2  0  0  0  0
  9 14  1  0  0  0  0
 10 15  1  0  0  0  0
 12 16  2  0  0  0  0
 13 17  1  0  0  0  0
 16 18  1  0  0  0  0
 18 19  1  0  0  0  0
 19 20  1  0  0  0  0
 20 21  1  0  0  0  0
 21 22  1  0  0  0  0
 21 23  1  0  0  0  0
 21 24  1  1  0  0  0
 22 25  1  0  0  0  0
 23 26  1  0  0  0  0
 25 27  1  0  0  0  0
 27 28  1  6  0  0  0
 13 16  1  0  0  0  0
 14 15  2  0  0  0  0
 26 27  1  0  0  0  0
M  END
>  <MolRegNo>
2233631

>  <m>
=

>  <Value>
780

>  <Unit>
nM

>  <Type>
IC50

>  <pValue>
6.11

>  <Ligand Efficiency>
0

>  <Binding Efficiency>
0

>  <Surface Efficiency>
0

>  <Assay Index>
1077710

>  <Assay Category>


>  <Assay Organism>
Homo sapiens

>  <Target ID>
17045

>  <Target Name>
Cytochrome P450 3A4

>  <Target Organism>
Homo sapiens

>  <Target Description>
Target is a single protein chain

>  <Sequence Accession>
P08684

>  <Reference>
J Med Chem 60 (6), 2513-2525 (2017)

>  <Pubmed ID>
28234467

>  <DOI>
10.1021/acs.jmedchem.6b01918

$$$$
2227809
Actelion Java MolfileCreator 1.0

 28 30  0  0  1  0  0  0  0  0999 V2000
    0.0000   -0.0000   -0.0000 S   0  0  0  0  0  0  0  0  0  0  0  0
    0.3908    1.4686   -0.0000 O   0  0  0  0  0  0  0  0  0  0  0  0
    1.4449    0.3908   -0.0000 O   0  0  0  0  0  0  0  0  0  0  0  0
    0.7343   -1.2909   -0.0000 N   0  0  0  0  0  0  0  0  0  0  0  0
   -1.5160    0.0118   -0.0000 C   0  0  0  0  0  0  0  0  0  0  0  0
    2.2266   -1.2791   -0.0000 C   0  0  0  0  0  0  0  0  0  0  0  0
   -2.2740    1.3265   -0.0000 C   0  0  0  0  0  0  0  0  0  0  0  0
   -2.2858   -1.2673   -0.0000 C   0  0  0  0  0  0  0  0  0  0  0  0
    3.0912   -2.4871   -0.0000 S   0  0  0  0  0  0  0  0  0  0  0  0
    3.1030   -0.0592   -0.0000 N   0  0  0  0  0  0  0  0  0  0  0  0
   -1.5278    2.6411   -0.0000 F   0  0  0  0  0  0  0  0  0  0  0  0
   -3.7781    1.3383   -0.0000 C   0  0  0  0  0  0  0  0  0  0  0  0
   -3.8018   -1.2436   -0.0000 C   0  0  0  0  0  0  0  0  0  0  0  0
    4.5124   -2.0134   -0.0000 N   0  0  0  0  0  0  0  0  0  0  0  0
    4.5124   -0.5211   -0.0000 C   0  0  0  0  0  0  0  0  0  0  0  0
   -4.5361    0.0592   -0.0000 C   0  0  0  0  0  0  0  0  0  0  0  0
   -4.5716   -2.5227   -0.0000 F   0  0  0  0  0  0  0  0  0  0  0  0
   -6.0520    0.0829   -0.0000 O   0  0  0  0  0  0  0  0  0  0  0  0
   -6.8100    1.3975   -0.0000 C   0  0  0  0  0  0  0  0  0  0  0  0
   -8.3260    1.4212   -0.0000 C   0  0  0  0  0  0  0  0  0  0  0  0
   -9.0958    0.1421   -0.0000 C   0  0  0  0  0  0  0  0  0  0  0  0
  -10.4223   -0.5448   -0.0000 C   0  0  0  0  0  0  0  0  0  0  0  0
   -7.8286   -0.6159   -0.0000 C   0  0  0  0  0  0  0  0  0  0  0  0
  -10.1854    1.2317   -0.0000 C   0  0  0  0  0  0  0  0  0  0  0  0
  -10.4815   -2.0252   -0.0000 C   0  0  0  0  0  0  0  0  0  0  0  0
   -7.8878   -2.1081   -0.0000 C   0  0  0  0  0  0  0  0  0  0  0  0
   -9.2261   -2.8069   -0.0000 C   0  0  0  0  0  0  0  0  0  0  0  0
   -9.2853   -4.2992   -0.0000 N   0  0  0  0  0  0  0  0  0  0  0  0
  1  2  2  0  0  0  0
  1  3  2  0  0  0  0
  1  4  1  0  0  0  0
  1  5  1  0  0  0  0
  4  6  1  0  0  0  0
  5  7  2  0  0  0  0
  5  8  1  0  0  0  0
  6  9  1  0  0  0  0
  6 10  2  0  0  0  0
  7 11  1  0  0  0  0
  7 12  1  0  0  0  0
  8 13  2  0  0  0  0
  9 14  1  0  0  0  0
 10 15  1  0  0  0  0
 12 16  2  0  0  0  0
 13 17  1  0  0  0  0
 16 18  1  0  0  0  0
 18 19  1  0  0  0  0
 19 20  1  0  0  0  0
 20 21  1  0  0  0  0
 21 22  1  0  0  0  0
 21 23  1  0  0  0  0
 21 24  1  1  0  0  0
 22 25  1  0  0  0  0
 23 26  1  0  0  0  0
 25 27  1  0  0  0  0
 27 28  1  1  0  0  0
 13 16  1  0  0  0  0
 14 15  2  0  0  0  0
 26 27  1  0  0  0  0
M  END
>  <MolRegNo>
2227809

>  <m>
=

>  <Value>
3000

>  <Unit>
nM

>  <Type>
IC50

>  <pValue>
5.52

>  <Ligand Efficiency>
0

>  <Binding Efficiency>
0

>  <Surface Efficiency>
0

>  <Assay Index>
1077710

>  <Assay Category>


>  <Assay Organism>
Homo sapiens

>  <Target ID>
17045

>  <Target Name>
Cytochrome P450 3A4

>  <Target Organism>
Homo sapiens

>  <Target Description>
Target is a single protein chain

>  <Sequence Accession>
P08684

>  <Reference>
J Med Chem 60 (6), 2513-2525 (2017)

>  <Pubmed ID>
28234467

>  <DOI>
10.1021/acs.jmedchem.6b01918

$$$$
2200065
Actelion Java MolfileCreator 1.0

 27 29  0  0  1  0  0  0  0  0999 V2000
    0.0000   -0.0000   -0.0000 Cl  0  0  0  0  0  0  0  0  0  0  0  0
   -0.0119    1.5113   -0.0000 C   0  0  0  0  0  0  0  0  0  0  0  0
   -1.3209    2.2729   -0.0000 C   0  0  0  0  0  0  0  0  0  0  0  0
    1.2733    2.2729   -0.0000 C   0  0  0  0  0  0  0  0  0  0  0  0
   -2.6299    1.5113   -0.0000 N   0  0  0  0  0  0  0  0  0  0  0  0
   -1.3328    3.7842   -0.0000 C   0  0  0  0  0  0  0  0  0  0  0  0
    1.2614    3.7842   -0.0000 C   0  0  0  0  0  0  0  0  0  0  0  0
   -2.6299    0.0119   -0.0000 C   0  0  0  0  0  0  0  0  0  0  0  0
   -0.0476    4.5458   -0.0000 C   0  0  0  0  0  0  0  0  0  0  0  0
    2.5585    4.5577   -0.0000 S   0  0  0  0  0  0  0  0  0  0  0  0
   -3.9270   -0.7259   -0.0000 C   0  0  0  0  0  0  0  0  0  0  0  0
   -0.0595    6.0571   -0.0000 F   0  0  0  0  0  0  0  0  0  0  0  0
    1.7969    5.8667   -0.0000 O   0  0  0  0  0  0  0  0  0  0  0  0
    3.2963    5.8786   -0.0000 O   0  0  0  0  0  0  0  0  0  0  0  0
    3.8556    3.8199   -0.0000 N   0  0  0  0  0  0  0  0  0  0  0  0
   -3.9389   -2.2134   -0.0000 C   0  0  0  0  0  0  0  0  0  0  0  0
    5.1408    4.5934   -0.0000 C   0  0  0  0  0  0  0  0  0  0  0  0
   -2.6537   -2.9512   -0.0000 C   0  0  0  0  0  0  0  0  0  0  0  0
   -5.2479   -2.9512   -0.0000 C   0  0  0  0  0  0  0  0  0  0  0  0
    6.5450    4.1412   -0.0000 S   0  0  0  0  0  0  0  0  0  0  0  0
    5.1170    6.1047   -0.0000 N   0  0  0  0  0  0  0  0  0  0  0  0
   -2.6656   -4.4506   -0.0000 C   0  0  0  0  0  0  0  0  0  0  0  0
   -5.2598   -4.4387   -0.0000 C   0  0  0  0  0  0  0  0  0  0  0  0
    7.4137    5.3669   -0.0000 C   0  0  0  0  0  0  0  0  0  0  0  0
    6.5212    6.5688   -0.0000 C   0  0  0  0  0  0  0  0  0  0  0  0
   -3.9627   -5.1884   -0.0000 C   0  0  0  0  0  0  0  0  0  0  0  0
   -3.9746   -6.6759   -0.0000 N   0  0  0  0  0  0  0  0  0  0  0  0
  1  2  1  0  0  0  0
  2  3  2  0  0  0  0
  2  4  1  0  0  0  0
  3  5  1  0  0  0  0
  3  6  1  0  0  0  0
  4  7  2  0  0  0  0
  5  8  1  0  0  0  0
  6  9  2  0  0  0  0
  7 10  1  0  0  0  0
  8 11  1  0  0  0  0
  9 12  1  0  0  0  0
 10 13  2  0  0  0  0
 10 14  2  0  0  0  0
 10 15  1  0  0  0  0
 16 11  1  6  0  0  0
 15 17  1  0  0  0  0
 16 18  1  0  0  0  0
 16 19  1  0  0  0  0
 17 20  1  0  0  0  0
 17 21  2  0  0  0  0
 18 22  1  0  0  0  0
 19 23  1  0  0  0  0
 20 24  1  0  0  0  0
 21 25  1  0  0  0  0
 22 26  1  0  0  0  0
 26 27  1  6  0  0  0
  7  9  1  0  0  0  0
 23 26  1  0  0  0  0
 24 25  2  0  0  0  0
M  END
>  <MolRegNo>
2200065

>  <m>
=

>  <Value>
20000

>  <Unit>
nM

>  <Type>
IC50

>  <pValue>
4.7

>  <Ligand Efficiency>
0

>  <Binding Efficiency>
0

>  <Surface Efficiency>
0

>  <Assay Index>
1077710

>  <Assay Category>


>  <Assay Organism>
Homo sapiens

>  <Target ID>
17045

>  <Target Name>
Cytochrome P450 3A4

>  <Target Organism>
Homo sapiens

>  <Target Description>
Target is a single protein chain

>  <Sequence Accession>
P08684

>  <Reference>
J Med Chem 60 (6), 2513-2525 (2017)

>  <Pubmed ID>
28234467

>  <DOI>
10.1021/acs.jmedchem.6b01918

$$$$
2220623
Actelion Java MolfileCreator 1.0

 27 29  0  0  1  0  0  0  0  0999 V2000
    0.0000   -0.0000   -0.0000 Cl  0  0  0  0  0  0  0  0  0  0  0  0
   -0.0119    1.5117   -0.0000 C   0  0  0  0  0  0  0  0  0  0  0  0
   -1.3213    2.2735   -0.0000 C   0  0  0  0  0  0  0  0  0  0  0  0
    1.2736    2.2735   -0.0000 C   0  0  0  0  0  0  0  0  0  0  0  0
   -2.6306    1.5117   -0.0000 N   0  0  0  0  0  0  0  0  0  0  0  0
   -1.3332    3.7852   -0.0000 C   0  0  0  0  0  0  0  0  0  0  0  0
    1.2617    3.7852   -0.0000 C   0  0  0  0  0  0  0  0  0  0  0  0
   -2.6306    0.0119   -0.0000 C   0  0  0  0  0  0  0  0  0  0  0  0
   -0.0476    4.5470   -0.0000 C   0  0  0  0  0  0  0  0  0  0  0  0
    2.5592    4.5589   -0.0000 S   0  0  0  0  0  0  0  0  0  0  0  0
   -3.9280   -0.7261   -0.0000 C   0  0  0  0  0  0  0  0  0  0  0  0
   -0.0595    6.0587   -0.0000 F   0  0  0  0  0  0  0  0  0  0  0  0
    1.7974    5.8683   -0.0000 O   0  0  0  0  0  0  0  0  0  0  0  0
    3.2972    5.8802   -0.0000 O   0  0  0  0  0  0  0  0  0  0  0  0
    3.8566    3.8209   -0.0000 N   0  0  0  0  0  0  0  0  0  0  0  0
   -3.9400   -2.2140   -0.0000 C   0  0  0  0  0  0  0  0  0  0  0  0
    5.1422    4.5946   -0.0000 C   0  0  0  0  0  0  0  0  0  0  0  0
   -5.2493   -2.9520   -0.0000 C   0  0  0  0  0  0  0  0  0  0  0  0
   -2.6544   -2.9520   -0.0000 C   0  0  0  0  0  0  0  0  0  0  0  0
    6.5467    4.1423   -0.0000 S   0  0  0  0  0  0  0  0  0  0  0  0
    5.1184    6.1063   -0.0000 N   0  0  0  0  0  0  0  0  0  0  0  0
   -5.2612   -4.4399   -0.0000 C   0  0  0  0  0  0  0  0  0  0  0  0
   -2.6663   -4.4518   -0.0000 C   0  0  0  0  0  0  0  0  0  0  0  0
    7.4157    5.3683   -0.0000 C   0  0  0  0  0  0  0  0  0  0  0  0
    6.5229    6.5706   -0.0000 C   0  0  0  0  0  0  0  0  0  0  0  0
   -3.9757   -5.1779   -0.0000 C   0  0  0  0  0  0  0  0  0  0  0  0
   -3.9876   -6.6658   -0.0000 N   0  0  0  0  0  0  0  0  0  0  0  0
  1  2  1  0  0  0  0
  2  3  2  0  0  0  0
  2  4  1  0  0  0  0
  3  5  1  0  0  0  0
  3  6  1  0  0  0  0
  4  7  2  0  0  0  0
  5  8  1  0  0  0  0
  6  9  2  0  0  0  0
  7 10  1  0  0  0  0
  8 11  1  0  0  0  0
  9 12  1  0  0  0  0
 10 13  2  0  0  0  0
 10 14  2  0  0  0  0
 10 15  1  0  0  0  0
 16 11  1  6  0  0  0
 15 17  1  0  0  0  0
 16 18  1  0  0  0  0
 16 19  1  0  0  0  0
 17 20  1  0  0  0  0
 17 21  2  0  0  0  0
 18 22  1  0  0  0  0
 19 23  1  0  0  0  0
 20 24  1  0  0  0  0
 21 25  1  0  0  0  0
 22 26  1  0  0  0  0
 26 27  1  1  0  0  0
  7  9  1  0  0  0  0
 23 26  1  0  0  0  0
 24 25  2  0  0  0  0
M  END
>  <MolRegNo>
2220623

>  <m>
=

>  <Value>
9000

>  <Unit>
nM

>  <Type>
IC50

>  <pValue>
5.05

>  <Ligand Efficiency>
0

>  <Binding Efficiency>
0

>  <Surface Efficiency>
0

>  <Assay Index>
1077710

>  <Assay Category>


>  <Assay Organism>
Homo sapiens

>  <Target ID>
17045

>  <Target Name>
Cytochrome P450 3A4

>  <Target Organism>
Homo sapiens

>  <Target Description>
Target is a single protein chain

>  <Sequence Accession>
P08684

>  <Reference>
J Med Chem 60 (6), 2513-2525 (2017)

>  <Pubmed ID>
28234467

>  <DOI>
10.1021/acs.jmedchem.6b01918

$$$$
2216538
Actelion Java MolfileCreator 1.0

 26 28  0  0  1  0  0  0  0  0999 V2000
    0.0000   -0.0000   -0.0000 Cl  0  0  0  0  0  0  0  0  0  0  0  0
   -0.0119    1.5081   -0.0000 C   0  0  0  0  0  0  0  0  0  0  0  0
   -1.3181    2.2681   -0.0000 C   0  0  0  0  0  0  0  0  0  0  0  0
    1.2706    2.2681   -0.0000 C   0  0  0  0  0  0  0  0  0  0  0  0
   -2.6362    1.5081   -0.0000 N   0  0  0  0  0  0  0  0  0  0  0  0
   -1.3300    3.7761   -0.0000 C   0  0  0  0  0  0  0  0  0  0  0  0
    1.2587    3.7761   -0.0000 C   0  0  0  0  0  0  0  0  0  0  0  0
   -2.6243    0.0119   -0.0000 C   0  0  0  0  0  0  0  0  0  0  0  0
   -0.0594    4.5361   -0.0000 C   0  0  0  0  0  0  0  0  0  0  0  0
    2.5412    4.5480   -0.0000 S   0  0  0  0  0  0  0  0  0  0  0  0
   -3.9186   -0.7244   -0.0000 C   0  0  0  0  0  0  0  0  0  0  0  0
   -0.0712    6.0442   -0.0000 F   0  0  0  0  0  0  0  0  0  0  0  0
    1.7812    5.8542   -0.0000 O   0  0  0  0  0  0  0  0  0  0  0  0
    3.2774    5.8661   -0.0000 O   0  0  0  0  0  0  0  0  0  0  0  0
    3.8355    3.8117   -0.0000 N   0  0  0  0  0  0  0  0  0  0  0  0
   -3.9305   -2.2087   -0.0000 C   0  0  0  0  0  0  0  0  0  0  0  0
   -5.2248    0.0356   -0.0000 C   0  0  0  0  0  0  0  0  0  0  0  0
    5.1061    4.5836   -0.0000 C   0  0  0  0  0  0  0  0  0  0  0  0
   -5.2367   -2.9449   -0.0000 C   0  0  0  0  0  0  0  0  0  0  0  0
   -6.5310   -0.7006   -0.0000 C   0  0  0  0  0  0  0  0  0  0  0  0
    6.5192    4.1324   -0.0000 S   0  0  0  0  0  0  0  0  0  0  0  0
    5.0823    6.0917   -0.0000 N   0  0  0  0  0  0  0  0  0  0  0  0
   -6.5429   -2.1849   -0.0000 C   0  0  0  0  0  0  0  0  0  0  0  0
    7.3741    5.3554   -0.0000 N   0  0  0  0  0  0  0  0  0  0  0  0
    6.4954    6.5548   -0.0000 C   0  0  0  0  0  0  0  0  0  0  0  0
   -7.8610   -2.9330   -0.0000 N   0  0  0  0  0  0  0  0  0  0  0  0
  1  2  1  0  0  0  0
  2  3  2  0  0  0  0
  2  4  1  0  0  0  0
  3  5  1  0  0  0  0
  3  6  1  0  0  0  0
  4  7  2  0  0  0  0
  5  8  1  0  0  0  0
  6  9  2  0  0  0  0
  7 10  1  0  0  0  0
 11  8  1  6  0  0  0
  9 12  1  0  0  0  0
 10 13  2  0  0  0  0
 10 14  2  0  0  0  0
 10 15  1  0  0  0  0
 11 16  1  0  0  0  0
 11 17  1  0  0  0  0
 15 18  1  0  0  0  0
 16 19  1  0  0  0  0
 17 20  1  0  0  0  0
 18 21  1  0  0  0  0
 18 22  2  0  0  0  0
 19 23  1  0  0  0  0
 21 24  1  0  0  0  0
 22 25  1  0  0  0  0
 23 26  1  6  0  0  0
  7  9  1  0  0  0  0
 20 23  1  0  0  0  0
 24 25  2  0  0  0  0
M  END
>  <MolRegNo>
2216538

>  <m>
=

>  <Value>
2300

>  <Unit>
nM

>  <Type>
IC50

>  <pValue>
5.64

>  <Ligand Efficiency>
0

>  <Binding Efficiency>
0

>  <Surface Efficiency>
0

>  <Assay Index>
1077710

>  <Assay Category>


>  <Assay Organism>
Homo sapiens

>  <Target ID>
17045

>  <Target Name>
Cytochrome P450 3A4

>  <Target Organism>
Homo sapiens

>  <Target Description>
Target is a single protein chain

>  <Sequence Accession>
P08684

>  <Reference>
J Med Chem 60 (6), 2513-2525 (2017)

>  <Pubmed ID>
28234467

>  <DOI>
10.1021/acs.jmedchem.6b01918

$$$$
2218179
Actelion Java MolfileCreator 1.0

 26 28  0  0  1  0  0  0  0  0999 V2000
    0.0000   -0.0000   -0.0000 Cl  0  0  0  0  0  0  0  0  0  0  0  0
   -0.0119    1.5081   -0.0000 C   0  0  0  0  0  0  0  0  0  0  0  0
   -1.3181    2.2681   -0.0000 C   0  0  0  0  0  0  0  0  0  0  0  0
    1.2706    2.2681   -0.0000 C   0  0  0  0  0  0  0  0  0  0  0  0
   -2.6362    1.5081   -0.0000 N   0  0  0  0  0  0  0  0  0  0  0  0
   -1.3300    3.7761   -0.0000 C   0  0  0  0  0  0  0  0  0  0  0  0
    1.2587    3.7761   -0.0000 C   0  0  0  0  0  0  0  0  0  0  0  0
   -2.6243    0.0119   -0.0000 C   0  0  0  0  0  0  0  0  0  0  0  0
   -0.0594    4.5361   -0.0000 C   0  0  0  0  0  0  0  0  0  0  0  0
    2.5412    4.5480   -0.0000 S   0  0  0  0  0  0  0  0  0  0  0  0
   -3.9186   -0.7244   -0.0000 C   0  0  0  0  0  0  0  0  0  0  0  0
   -0.0712    6.0442   -0.0000 F   0  0  0  0  0  0  0  0  0  0  0  0
    1.7812    5.8542   -0.0000 O   0  0  0  0  0  0  0  0  0  0  0  0
    3.2774    5.8661   -0.0000 O   0  0  0  0  0  0  0  0  0  0  0  0
    3.8355    3.8117   -0.0000 N   0  0  0  0  0  0  0  0  0  0  0  0
   -3.9305   -2.2087   -0.0000 C   0  0  0  0  0  0  0  0  0  0  0  0
   -5.2248    0.0356   -0.0000 C   0  0  0  0  0  0  0  0  0  0  0  0
    5.1061    4.5836   -0.0000 C   0  0  0  0  0  0  0  0  0  0  0  0
   -5.2367   -2.9449   -0.0000 C   0  0  0  0  0  0  0  0  0  0  0  0
   -6.5310   -0.7006   -0.0000 C   0  0  0  0  0  0  0  0  0  0  0  0
    6.5192    4.1324   -0.0000 S   0  0  0  0  0  0  0  0  0  0  0  0
    5.0823    6.0917   -0.0000 N   0  0  0  0  0  0  0  0  0  0  0  0
   -6.5429   -2.1849   -0.0000 C   0  0  0  0  0  0  0  0  0  0  0  0
    7.3741    5.3554   -0.0000 C   0  0  0  0  0  0  0  0  0  0  0  0
    6.4954    6.5548   -0.0000 C   0  0  0  0  0  0  0  0  0  0  0  0
   -7.8610   -2.9330   -0.0000 N   0  0  0  0  0  0  0  0  0  0  0  0
  1  2  1  0  0  0  0
  2  3  2  0  0  0  0
  2  4  1  0  0  0  0
  3  5  1  0  0  0  0
  3  6  1  0  0  0  0
  4  7  2  0  0  0  0
  5  8  1  0  0  0  0
  6  9  2  0  0  0  0
  7 10  1  0  0  0  0
 11  8  1  6  0  0  0
  9 12  1  0  0  0  0
 10 13  2  0  0  0  0
 10 14  2  0  0  0  0
 10 15  1  0  0  0  0
 11 16  1  0  0  0  0
 11 17  1  0  0  0  0
 15 18  1  0  0  0  0
 16 19  1  0  0  0  0
 17 20  1  0  0  0  0
 18 21  1  0  0  0  0
 18 22  2  0  0  0  0
 19 23  1  0  0  0  0
 21 24  1  0  0  0  0
 22 25  1  0  0  0  0
 23 26  1  6  0  0  0
  7  9  1  0  0  0  0
 20 23  1  0  0  0  0
 24 25  2  0  0  0  0
M  END
>  <MolRegNo>
2218179

>  <m>
=

>  <Value>
20000

>  <Unit>
nM

>  <Type>
IC50

>  <pValue>
4.7

>  <Ligand Efficiency>
0

>  <Binding Efficiency>
0

>  <Surface Efficiency>
0

>  <Assay Index>
1077710

>  <Assay Category>


>  <Assay Organism>
Homo sapiens

>  <Target ID>
17045

>  <Target Name>
Cytochrome P450 3A4

>  <Target Organism>
Homo sapiens

>  <Target Description>
Target is a single protein chain

>  <Sequence Accession>
P08684

>  <Reference>
J Med Chem 60 (6), 2513-2525 (2017)

>  <Pubmed ID>
28234467

>  <DOI>
10.1021/acs.jmedchem.6b01918

$$$$
2236210
Actelion Java MolfileCreator 1.0

 26 28  0  0  0  0  0  0  0  0999 V2000
    0.0000   -0.0000   -0.0000 Cl  0  0  0  0  0  0  0  0  0  0  0  0
   -0.0119    1.5113   -0.0000 C   0  0  0  0  0  0  0  0  0  0  0  0
   -1.3209    2.2729   -0.0000 C   0  0  0  0  0  0  0  0  0  0  0  0
    1.2733    2.2729   -0.0000 C   0  0  0  0  0  0  0  0  0  0  0  0
   -2.6298    1.5113   -0.0000 N   0  0  0  0  0  0  0  0  0  0  0  0
   -1.3328    3.7841   -0.0000 C   0  0  0  0  0  0  0  0  0  0  0  0
    1.2614    3.7841   -0.0000 C   0  0  0  0  0  0  0  0  0  0  0  0
   -2.6298    0.0119   -0.0000 C   0  0  0  0  0  0  0  0  0  0  0  0
   -0.0476    4.5457   -0.0000 C   0  0  0  0  0  0  0  0  0  0  0  0
    2.5584    4.5576   -0.0000 S   0  0  0  0  0  0  0  0  0  0  0  0
   -3.9269   -0.7259   -0.0000 C   0  0  0  0  0  0  0  0  0  0  0  0
   -0.0595    6.0570   -0.0000 F   0  0  0  0  0  0  0  0  0  0  0  0
    1.7969    5.8666   -0.0000 O   0  0  0  0  0  0  0  0  0  0  0  0
    3.2962    5.8785   -0.0000 O   0  0  0  0  0  0  0  0  0  0  0  0
    3.8555    3.8198   -0.0000 N   0  0  0  0  0  0  0  0  0  0  0  0
   -3.9388   -2.2134   -0.0000 C   0  0  0  0  0  0  0  0  0  0  0  0
    5.1407    4.5933   -0.0000 C   0  0  0  0  0  0  0  0  0  0  0  0
   -5.2478   -2.9511   -0.0000 C   0  0  0  0  0  0  0  0  0  0  0  0
   -2.6536   -2.9511   -0.0000 C   0  0  0  0  0  0  0  0  0  0  0  0
    6.5449    4.1411   -0.0000 S   0  0  0  0  0  0  0  0  0  0  0  0
    5.1169    6.1046   -0.0000 N   0  0  0  0  0  0  0  0  0  0  0  0
   -5.2597   -4.4386   -0.0000 C   0  0  0  0  0  0  0  0  0  0  0  0
   -2.6655   -4.4505   -0.0000 C   0  0  0  0  0  0  0  0  0  0  0  0
    7.4136    5.3668   -0.0000 C   0  0  0  0  0  0  0  0  0  0  0  0
    6.5211    6.5687   -0.0000 C   0  0  0  0  0  0  0  0  0  0  0  0
   -3.9745   -5.1764   -0.0000 N   0  0  0  0  0  0  0  0  0  0  0  0
  1  2  1  0  0  0  0
  2  3  2  0  0  0  0
  2  4  1  0  0  0  0
  3  5  1  0  0  0  0
  3  6  1  0  0  0  0
  4  7  2  0  0  0  0
  5  8  1  0  0  0  0
  6  9  2  0  0  0  0
  7 10  1  0  0  0  0
  8 11  1  0  0  0  0
  9 12  1  0  0  0  0
 10 13  2  0  0  0  0
 10 14  2  0  0  0  0
 10 15  1  0  0  0  0
 11 16  1  0  0  0  0
 15 17  1  0  0  0  0
 16 18  1  0  0  0  0
 16 19  1  0  0  0  0
 17 20  1  0  0  0  0
 17 21  2  0  0  0  0
 18 22  1  0  0  0  0
 19 23  1  0  0  0  0
 20 24  1  0  0  0  0
 21 25  1  0  0  0  0
 22 26  1  0  0  0  0
  7  9  1  0  0  0  0
 23 26  1  0  0  0  0
 24 25  2  0  0  0  0
M  END
>  <MolRegNo>
2236210

>  <m>
=

>  <Value>
20000

>  <Unit>
nM

>  <Type>
IC50

>  <pValue>
4.7

>  <Ligand Efficiency>
0

>  <Binding Efficiency>
0

>  <Surface Efficiency>
0

>  <Assay Index>
1077710

>  <Assay Category>


>  <Assay Organism>
Homo sapiens

>  <Target ID>
17045

>  <Target Name>
Cytochrome P450 3A4

>  <Target Organism>
Homo sapiens

>  <Target Description>
Target is a single protein chain

>  <Sequence Accession>
P08684

>  <Reference>
J Med Chem 60 (6), 2513-2525 (2017)

>  <Pubmed ID>
28234467

>  <DOI>
10.1021/acs.jmedchem.6b01918

$$$$
2218163
Actelion Java MolfileCreator 1.0

 26 28  0  0  0  0  0  0  0  0999 V2000
    0.0000   -0.0000   -0.0000 Cl  0  0  0  0  0  0  0  0  0  0  0  0
   -0.0119    1.5108   -0.0000 C   0  0  0  0  0  0  0  0  0  0  0  0
   -1.3205    2.2722   -0.0000 C   0  0  0  0  0  0  0  0  0  0  0  0
    1.2729    2.2722   -0.0000 C   0  0  0  0  0  0  0  0  0  0  0  0
   -2.6291    1.5108   -0.0000 N   0  0  0  0  0  0  0  0  0  0  0  0
   -1.3324    3.7831   -0.0000 C   0  0  0  0  0  0  0  0  0  0  0  0
    1.2610    3.7831   -0.0000 C   0  0  0  0  0  0  0  0  0  0  0  0
   -2.6291    0.0119   -0.0000 C   0  0  0  0  0  0  0  0  0  0  0  0
   -0.0476    4.5444   -0.0000 C   0  0  0  0  0  0  0  0  0  0  0  0
    2.5577    4.5563   -0.0000 S   0  0  0  0  0  0  0  0  0  0  0  0
   -3.9258   -0.7257   -0.0000 C   0  0  0  0  0  0  0  0  0  0  0  0
   -0.0595    6.0553   -0.0000 F   0  0  0  0  0  0  0  0  0  0  0  0
    1.7964    5.8649   -0.0000 O   0  0  0  0  0  0  0  0  0  0  0  0
    3.2953    5.8768   -0.0000 O   0  0  0  0  0  0  0  0  0  0  0  0
    3.8544    3.8188   -0.0000 N   0  0  0  0  0  0  0  0  0  0  0  0
   -3.9377   -2.2127   -0.0000 C   0  0  0  0  0  0  0  0  0  0  0  0
    5.1393    4.5920   -0.0000 C   0  0  0  0  0  0  0  0  0  0  0  0
   -2.6529   -2.9503   -0.0000 C   0  0  0  0  0  0  0  0  0  0  0  0
   -5.2463   -2.9503   -0.0000 C   0  0  0  0  0  0  0  0  0  0  0  0
    6.5430    4.1400   -0.0000 S   0  0  0  0  0  0  0  0  0  0  0  0
    5.1155    6.1029   -0.0000 N   0  0  0  0  0  0  0  0  0  0  0  0
   -2.6648   -4.4493   -0.0000 N   0  0  0  0  0  0  0  0  0  0  0  0
   -5.2582   -4.4374   -0.0000 C   0  0  0  0  0  0  0  0  0  0  0  0
    7.4115    5.3653   -0.0000 C   0  0  0  0  0  0  0  0  0  0  0  0
    6.5193    6.5668   -0.0000 C   0  0  0  0  0  0  0  0  0  0  0  0
   -3.9615   -5.1869   -0.0000 C   0  0  0  0  0  0  0  0  0  0  0  0
  1  2  1  0  0  0  0
  2  3  2  0  0  0  0
  2  4  1  0  0  0  0
  3  5  1  0  0  0  0
  3  6  1  0  0  0  0
  4  7  2  0  0  0  0
  5  8  1  0  0  0  0
  6  9  2  0  0  0  0
  7 10  1  0  0  0  0
  8 11  1  0  0  0  0
  9 12  1  0  0  0  0
 10 13  2  0  0  0  0
 10 14  2  0  0  0  0
 10 15  1  0  0  0  0
 11 16  1  0  0  0  0
 15 17  1  0  0  0  0
 16 18  1  0  0  0  0
 16 19  1  0  0  0  0
 17 20  1  0  0  0  0
 17 21  2  0  0  0  0
 18 22  1  0  0  0  0
 19 23  1  0  0  0  0
 20 24  1  0  0  0  0
 21 25  1  0  0  0  0
 22 26  1  0  0  0  0
  7  9  1  0  0  0  0
 23 26  1  0  0  0  0
 24 25  2  0  0  0  0
M  END
>  <MolRegNo>
2218163

>  <m>
=

>  <Value>
6700

>  <Unit>
nM

>  <Type>
IC50

>  <pValue>
5.17

>  <Ligand Efficiency>
0

>  <Binding Efficiency>
0

>  <Surface Efficiency>
0

>  <Assay Index>
1077710

>  <Assay Category>


>  <Assay Organism>
Homo sapiens

>  <Target ID>
17045

>  <Target Name>
Cytochrome P450 3A4

>  <Target Organism>
Homo sapiens

>  <Target Description>
Target is a single protein chain

>  <Sequence Accession>
P08684

>  <Reference>
J Med Chem 60 (6), 2513-2525 (2017)

>  <Pubmed ID>
28234467

>  <DOI>
10.1021/acs.jmedchem.6b01918

$$$$
2228492
Actelion Java MolfileCreator 1.0

 26 28  0  0  0  0  0  0  0  0999 V2000
    0.0000   -0.0000   -0.0000 Cl  0  0  0  0  0  0  0  0  0  0  0  0
   -0.0119    1.5108   -0.0000 C   0  0  0  0  0  0  0  0  0  0  0  0
   -1.3205    2.2722   -0.0000 C   0  0  0  0  0  0  0  0  0  0  0  0
    1.2729    2.2722   -0.0000 C   0  0  0  0  0  0  0  0  0  0  0  0
   -2.6291    1.5108   -0.0000 N   0  0  0  0  0  0  0  0  0  0  0  0
   -1.3324    3.7831   -0.0000 C   0  0  0  0  0  0  0  0  0  0  0  0
    1.2610    3.7831   -0.0000 C   0  0  0  0  0  0  0  0  0  0  0  0
   -2.6291    0.0119   -0.0000 C   0  0  0  0  0  0  0  0  0  0  0  0
   -0.0476    4.5444   -0.0000 C   0  0  0  0  0  0  0  0  0  0  0  0
    2.5577    4.5563   -0.0000 S   0  0  0  0  0  0  0  0  0  0  0  0
   -3.9258   -0.7257   -0.0000 C   0  0  0  0  0  0  0  0  0  0  0  0
   -0.0595    6.0553   -0.0000 F   0  0  0  0  0  0  0  0  0  0  0  0
    1.7964    5.8649   -0.0000 O   0  0  0  0  0  0  0  0  0  0  0  0
    3.2953    5.8768   -0.0000 O   0  0  0  0  0  0  0  0  0  0  0  0
    3.8544    3.8188   -0.0000 N   0  0  0  0  0  0  0  0  0  0  0  0
   -3.9377   -2.2127   -0.0000 C   0  0  0  0  0  0  0  0  0  0  0  0
    5.1393    4.5920   -0.0000 C   0  0  0  0  0  0  0  0  0  0  0  0
   -2.6529   -2.9503   -0.0000 N   0  0  0  0  0  0  0  0  0  0  0  0
   -5.2463   -2.9503   -0.0000 C   0  0  0  0  0  0  0  0  0  0  0  0
    6.5430    4.1400   -0.0000 S   0  0  0  0  0  0  0  0  0  0  0  0
    5.1155    6.1029   -0.0000 N   0  0  0  0  0  0  0  0  0  0  0  0
   -2.6648   -4.4493   -0.0000 C   0  0  0  0  0  0  0  0  0  0  0  0
   -5.2582   -4.4374   -0.0000 C   0  0  0  0  0  0  0  0  0  0  0  0
    7.4115    5.3653   -0.0000 N   0  0  0  0  0  0  0  0  0  0  0  0
    6.5193    6.5668   -0.0000 C   0  0  0  0  0  0  0  0  0  0  0  0
   -3.9615   -5.1869   -0.0000 C   0  0  0  0  0  0  0  0  0  0  0  0
  1  2  1  0  0  0  0
  2  3  2  0  0  0  0
  2  4  1  0  0  0  0
  3  5  1  0  0  0  0
  3  6  1  0  0  0  0
  4  7  2  0  0  0  0
  5  8  1  0  0  0  0
  6  9  2  0  0  0  0
  7 10  1  0  0  0  0
  8 11  1  0  0  0  0
  9 12  1  0  0  0  0
 10 13  2  0  0  0  0
 10 14  2  0  0  0  0
 10 15  1  0  0  0  0
 11 16  1  0  0  0  0
 15 17  1  0  0  0  0
 16 18  1  0  0  0  0
 16 19  1  0  0  0  0
 17 20  1  0  0  0  0
 17 21  2  0  0  0  0
 18 22  1  0  0  0  0
 19 23  1  0  0  0  0
 20 24  1  0  0  0  0
 21 25  1  0  0  0  0
 22 26  1  0  0  0  0
  7  9  1  0  0  0  0
 23 26  1  0  0  0  0
 24 25  2  0  0  0  0
M  END
>  <MolRegNo>
2228492

>  <m>
=

>  <Value>
5900

>  <Unit>
nM

>  <Type>
IC50

>  <pValue>
5.23

>  <Ligand Efficiency>
0

>  <Binding Efficiency>
0

>  <Surface Efficiency>
0

>  <Assay Index>
1077710

>  <Assay Category>


>  <Assay Organism>
Homo sapiens

>  <Target ID>
17045

>  <Target Name>
Cytochrome P450 3A4

>  <Target Organism>
Homo sapiens

>  <Target Description>
Target is a single protein chain

>  <Sequence Accession>
P08684

>  <Reference>
J Med Chem 60 (6), 2513-2525 (2017)

>  <Pubmed ID>
28234467

>  <DOI>
10.1021/acs.jmedchem.6b01918

$$$$
2216355
Actelion Java MolfileCreator 1.0

 26 28  0  0  0  0  0  0  0  0999 V2000
    0.0000   -0.0000   -0.0000 Cl  0  0  0  0  0  0  0  0  0  0  0  0
   -0.0119    1.5108   -0.0000 C   0  0  0  0  0  0  0  0  0  0  0  0
   -1.3205    2.2722   -0.0000 C   0  0  0  0  0  0  0  0  0  0  0  0
    1.2729    2.2722   -0.0000 C   0  0  0  0  0  0  0  0  0  0  0  0
   -2.6291    1.5108   -0.0000 N   0  0  0  0  0  0  0  0  0  0  0  0
   -1.3324    3.7831   -0.0000 C   0  0  0  0  0  0  0  0  0  0  0  0
    1.2610    3.7831   -0.0000 C   0  0  0  0  0  0  0  0  0  0  0  0
   -2.6291    0.0119   -0.0000 C   0  0  0  0  0  0  0  0  0  0  0  0
   -0.0476    4.5444   -0.0000 C   0  0  0  0  0  0  0  0  0  0  0  0
    2.5577    4.5563   -0.0000 S   0  0  0  0  0  0  0  0  0  0  0  0
   -3.9258   -0.7257   -0.0000 C   0  0  0  0  0  0  0  0  0  0  0  0
   -0.0595    6.0553   -0.0000 F   0  0  0  0  0  0  0  0  0  0  0  0
    1.7964    5.8649   -0.0000 O   0  0  0  0  0  0  0  0  0  0  0  0
    3.2953    5.8768   -0.0000 O   0  0  0  0  0  0  0  0  0  0  0  0
    3.8544    3.8188   -0.0000 N   0  0  0  0  0  0  0  0  0  0  0  0
   -3.9377   -2.2127   -0.0000 C   0  0  0  0  0  0  0  0  0  0  0  0
    5.1393    4.5920   -0.0000 C   0  0  0  0  0  0  0  0  0  0  0  0
   -2.6529   -2.9503   -0.0000 N   0  0  0  0  0  0  0  0  0  0  0  0
   -5.2463   -2.9503   -0.0000 C   0  0  0  0  0  0  0  0  0  0  0  0
    6.5430    4.1400   -0.0000 S   0  0  0  0  0  0  0  0  0  0  0  0
    5.1155    6.1029   -0.0000 N   0  0  0  0  0  0  0  0  0  0  0  0
   -2.6648   -4.4493   -0.0000 C   0  0  0  0  0  0  0  0  0  0  0  0
   -5.2582   -4.4374   -0.0000 C   0  0  0  0  0  0  0  0  0  0  0  0
    7.4115    5.3653   -0.0000 C   0  0  0  0  0  0  0  0  0  0  0  0
    6.5193    6.5668   -0.0000 C   0  0  0  0  0  0  0  0  0  0  0  0
   -3.9615   -5.1869   -0.0000 C   0  0  0  0  0  0  0  0  0  0  0  0
  1  2  1  0  0  0  0
  2  3  2  0  0  0  0
  2  4  1  0  0  0  0
  3  5  1  0  0  0  0
  3  6  1  0  0  0  0
  4  7  2  0  0  0  0
  5  8  1  0  0  0  0
  6  9  2  0  0  0  0
  7 10  1  0  0  0  0
  8 11  1  0  0  0  0
  9 12  1  0  0  0  0
 10 13  2  0  0  0  0
 10 14  2  0  0  0  0
 10 15  1  0  0  0  0
 11 16  1  0  0  0  0
 15 17  1  0  0  0  0
 16 18  1  0  0  0  0
 16 19  1  0  0  0  0
 17 20  1  0  0  0  0
 17 21  2  0  0  0  0
 18 22  1  0  0  0  0
 19 23  1  0  0  0  0
 20 24  1  0  0  0  0
 21 25  1  0  0  0  0
 22 26  1  0  0  0  0
  7  9  1  0  0  0  0
 23 26  1  0  0  0  0
 24 25  2  0  0  0  0
M  END
>  <MolRegNo>
2216355

>  <m>
=

>  <Value>
20000

>  <Unit>
nM

>  <Type>
IC50

>  <pValue>
4.7

>  <Ligand Efficiency>
0

>  <Binding Efficiency>
0

>  <Surface Efficiency>
0

>  <Assay Index>
1077710

>  <Assay Category>


>  <Assay Organism>
Homo sapiens

>  <Target ID>
17045

>  <Target Name>
Cytochrome P450 3A4

>  <Target Organism>
Homo sapiens

>  <Target Description>
Target is a single protein chain

>  <Sequence Accession>
P08684

>  <Reference>
J Med Chem 60 (6), 2513-2525 (2017)

>  <Pubmed ID>
28234467

>  <DOI>
10.1021/acs.jmedchem.6b01918

$$$$
2231833
Actelion Java MolfileCreator 1.0

 27 29  0  0  0  0  0  0  0  0999 V2000
    0.0000   -0.0000   -0.0000 Cl  0  0  0  0  0  0  0  0  0  0  0  0
   -0.0119    1.5117   -0.0000 C   0  0  0  0  0  0  0  0  0  0  0  0
   -1.3213    2.2735   -0.0000 C   0  0  0  0  0  0  0  0  0  0  0  0
    1.2736    2.2735   -0.0000 C   0  0  0  0  0  0  0  0  0  0  0  0
   -2.6306    1.5117   -0.0000 N   0  0  0  0  0  0  0  0  0  0  0  0
   -1.3332    3.7852   -0.0000 C   0  0  0  0  0  0  0  0  0  0  0  0
    1.2617    3.7852   -0.0000 C   0  0  0  0  0  0  0  0  0  0  0  0
   -2.6306    0.0119   -0.0000 C   0  0  0  0  0  0  0  0  0  0  0  0
   -0.0476    4.5470   -0.0000 C   0  0  0  0  0  0  0  0  0  0  0  0
    2.5592    4.5589   -0.0000 S   0  0  0  0  0  0  0  0  0  0  0  0
   -3.9280   -0.7261   -0.0000 C   0  0  0  0  0  0  0  0  0  0  0  0
   -0.0595    6.0587   -0.0000 F   0  0  0  0  0  0  0  0  0  0  0  0
    1.7974    5.8683   -0.0000 O   0  0  0  0  0  0  0  0  0  0  0  0
    3.2972    5.8802   -0.0000 O   0  0  0  0  0  0  0  0  0  0  0  0
    3.8566    3.8209   -0.0000 N   0  0  0  0  0  0  0  0  0  0  0  0
   -3.9400   -2.2140   -0.0000 C   0  0  0  0  0  0  0  0  0  0  0  0
    5.1422    4.5946   -0.0000 C   0  0  0  0  0  0  0  0  0  0  0  0
   -5.2493   -2.9520   -0.0000 C   0  0  0  0  0  0  0  0  0  0  0  0
   -2.6544   -2.9520   -0.0000 C   0  0  0  0  0  0  0  0  0  0  0  0
    6.5467    4.1423   -0.0000 S   0  0  0  0  0  0  0  0  0  0  0  0
    5.1184    6.1063   -0.0000 N   0  0  0  0  0  0  0  0  0  0  0  0
   -5.2612   -4.4399   -0.0000 C   0  0  0  0  0  0  0  0  0  0  0  0
   -2.6663   -4.4518   -0.0000 C   0  0  0  0  0  0  0  0  0  0  0  0
    7.4157    5.3683   -0.0000 C   0  0  0  0  0  0  0  0  0  0  0  0
    6.5229    6.5706   -0.0000 C   0  0  0  0  0  0  0  0  0  0  0  0
   -3.9757   -5.1779   -0.0000 N   0  0  0  0  0  0  0  0  0  0  0  0
   -3.9876   -6.6658   -0.0000 C   0  0  0  0  0  0  0  0  0  0  0  0
  1  2  1  0  0  0  0
  2  3  2  0  0  0  0
  2  4  1  0  0  0  0
  3  5  1  0  0  0  0
  3  6  1  0  0  0  0
  4  7  2  0  0  0  0
  5  8  1  0  0  0  0
  6  9  2  0  0  0  0
  7 10  1  0  0  0  0
  8 11  1  0  0  0  0
  9 12  1  0  0  0  0
 10 13  2  0  0  0  0
 10 14  2  0  0  0  0
 10 15  1  0  0  0  0
 11 16  1  0  0  0  0
 15 17  1  0  0  0  0
 16 18  1  0  0  0  0
 16 19  1  0  0  0  0
 17 20  1  0  0  0  0
 17 21  2  0  0  0  0
 18 22  1  0  0  0  0
 19 23  1  0  0  0  0
 20 24  1  0  0  0  0
 21 25  1  0  0  0  0
 22 26  1  0  0  0  0
 26 27  1  0  0  0  0
  7  9  1  0  0  0  0
 23 26  1  0  0  0  0
 24 25  2  0  0  0  0
M  END
>  <MolRegNo>
2231833

>  <m>
=

>  <Value>
20000

>  <Unit>
nM

>  <Type>
IC50

>  <pValue>
4.7

>  <Ligand Efficiency>
0

>  <Binding Efficiency>
0

>  <Surface Efficiency>
0

>  <Assay Index>
1077710

>  <Assay Category>


>  <Assay Organism>
Homo sapiens

>  <Target ID>
17045

>  <Target Name>
Cytochrome P450 3A4

>  <Target Organism>
Homo sapiens

>  <Target Description>
Target is a single protein chain

>  <Sequence Accession>
P08684

>  <Reference>
J Med Chem 60 (6), 2513-2525 (2017)

>  <Pubmed ID>
28234467

>  <DOI>
10.1021/acs.jmedchem.6b01918

$$$$
2211009
Actelion Java MolfileCreator 1.0

 25 27  0  0  0  0  0  0  0  0999 V2000
    0.0000   -0.0000   -0.0000 Cl  0  0  0  0  0  0  0  0  0  0  0  0
   -0.0119    1.5110   -0.0000 C   0  0  0  0  0  0  0  0  0  0  0  0
   -1.3206    2.2724   -0.0000 C   0  0  0  0  0  0  0  0  0  0  0  0
    1.2730    2.2724   -0.0000 C   0  0  0  0  0  0  0  0  0  0  0  0
   -2.6293    1.5110   -0.0000 N   0  0  0  0  0  0  0  0  0  0  0  0
   -1.3325    3.7834   -0.0000 C   0  0  0  0  0  0  0  0  0  0  0  0
    1.2611    3.7834   -0.0000 C   0  0  0  0  0  0  0  0  0  0  0  0
   -2.6293    0.0119   -0.0000 C   0  0  0  0  0  0  0  0  0  0  0  0
   -0.0476    4.5448   -0.0000 C   0  0  0  0  0  0  0  0  0  0  0  0
    2.5579    4.5567   -0.0000 S   0  0  0  0  0  0  0  0  0  0  0  0
   -3.9261   -0.7257   -0.0000 C   0  0  0  0  0  0  0  0  0  0  0  0
   -0.0595    6.0558   -0.0000 F   0  0  0  0  0  0  0  0  0  0  0  0
    1.7965    5.8654   -0.0000 O   0  0  0  0  0  0  0  0  0  0  0  0
    3.2956    5.8773   -0.0000 O   0  0  0  0  0  0  0  0  0  0  0  0
    3.8548    3.8191   -0.0000 N   0  0  0  0  0  0  0  0  0  0  0  0
   -3.9380   -2.2129   -0.0000 C   0  0  0  0  0  0  0  0  0  0  0  0
    5.1397    4.5924   -0.0000 C   0  0  0  0  0  0  0  0  0  0  0  0
   -2.7364   -3.0695   -0.0000 C   0  0  0  0  0  0  0  0  0  0  0  0
   -5.1635   -3.0814   -0.0000 C   0  0  0  0  0  0  0  0  0  0  0  0
    6.5436    4.1403   -0.0000 S   0  0  0  0  0  0  0  0  0  0  0  0
    5.1159    6.1034   -0.0000 N   0  0  0  0  0  0  0  0  0  0  0  0
   -3.2123   -4.4853   -0.0000 N   0  0  0  0  0  0  0  0  0  0  0  0
   -4.7114   -4.4972   -0.0000 C   0  0  0  0  0  0  0  0  0  0  0  0
    7.4121    5.3657   -0.0000 C   0  0  0  0  0  0  0  0  0  0  0  0
    6.5198    6.5674   -0.0000 C   0  0  0  0  0  0  0  0  0  0  0  0
  1  2  1  0  0  0  0
  2  3  2  0  0  0  0
  2  4  1  0  0  0  0
  3  5  1  0  0  0  0
  3  6  1  0  0  0  0
  4  7  2  0  0  0  0
  5  8  1  0  0  0  0
  6  9  2  0  0  0  0
  7 10  1  0  0  0  0
  8 11  1  0  0  0  0
  9 12  1  0  0  0  0
 10 13  2  0  0  0  0
 10 14  2  0  0  0  0
 10 15  1  0  0  0  0
 11 16  1  0  0  0  0
 15 17  1  0  0  0  0
 16 18  1  0  0  0  0
 16 19  1  0  0  0  0
 17 20  1  0  0  0  0
 17 21  2  0  0  0  0
 18 22  1  0  0  0  0
 19 23  1  0  0  0  0
 20 24  1  0  0  0  0
 21 25  1  0  0  0  0
  7  9  1  0  0  0  0
 22 23  1  0  0  0  0
 24 25  2  0  0  0  0
M  END
>  <MolRegNo>
2211009

>  <m>
=

>  <Value>
20000

>  <Unit>
nM

>  <Type>
IC50

>  <pValue>
4.7

>  <Ligand Efficiency>
0

>  <Binding Efficiency>
0

>  <Surface Efficiency>
0

>  <Assay Index>
1077710

>  <Assay Category>


>  <Assay Organism>
Homo sapiens

>  <Target ID>
17045

>  <Target Name>
Cytochrome P450 3A4

>  <Target Organism>
Homo sapiens

>  <Target Description>
Target is a single protein chain

>  <Sequence Accession>
P08684

>  <Reference>
J Med Chem 60 (6), 2513-2525 (2017)

>  <Pubmed ID>
28234467

>  <DOI>
10.1021/acs.jmedchem.6b01918

$$$$
2243851
Actelion Java MolfileCreator 1.0

 24 26  0  0  0  0  0  0  0  0999 V2000
    0.0000   -0.0000   -0.0000 Cl  0  0  0  0  0  0  0  0  0  0  0  0
   -0.0119    1.5110   -0.0000 C   0  0  0  0  0  0  0  0  0  0  0  0
   -1.3206    2.2724   -0.0000 C   0  0  0  0  0  0  0  0  0  0  0  0
    1.2730    2.2724   -0.0000 C   0  0  0  0  0  0  0  0  0  0  0  0
   -2.6293    1.5110   -0.0000 N   0  0  0  0  0  0  0  0  0  0  0  0
   -1.3325    3.7834   -0.0000 C   0  0  0  0  0  0  0  0  0  0  0  0
    1.2611    3.7834   -0.0000 C   0  0  0  0  0  0  0  0  0  0  0  0
   -2.6293    0.0119   -0.0000 C   0  0  0  0  0  0  0  0  0  0  0  0
   -0.0476    4.5448   -0.0000 C   0  0  0  0  0  0  0  0  0  0  0  0
    2.5580    4.5567   -0.0000 S   0  0  0  0  0  0  0  0  0  0  0  0
   -3.9262   -0.7257   -0.0000 C   0  0  0  0  0  0  0  0  0  0  0  0
   -0.0595    6.0558   -0.0000 F   0  0  0  0  0  0  0  0  0  0  0  0
    1.7965    5.8655   -0.0000 O   0  0  0  0  0  0  0  0  0  0  0  0
    3.2956    5.8773   -0.0000 O   0  0  0  0  0  0  0  0  0  0  0  0
    3.8548    3.8191   -0.0000 N   0  0  0  0  0  0  0  0  0  0  0  0
   -3.9381   -2.2129   -0.0000 C   0  0  0  0  0  0  0  0  0  0  0  0
    5.1397    4.5924   -0.0000 C   0  0  0  0  0  0  0  0  0  0  0  0
   -5.0088   -3.2599   -0.0000 C   0  0  0  0  0  0  0  0  0  0  0  0
   -2.8911   -3.2599   -0.0000 C   0  0  0  0  0  0  0  0  0  0  0  0
    6.5436    4.1403   -0.0000 S   0  0  0  0  0  0  0  0  0  0  0  0
    5.1159    6.1034   -0.0000 N   0  0  0  0  0  0  0  0  0  0  0  0
   -3.9619   -4.3069   -0.0000 N   0  0  0  0  0  0  0  0  0  0  0  0
    7.4121    5.3658   -0.0000 C   0  0  0  0  0  0  0  0  0  0  0  0
    6.5198    6.5674   -0.0000 C   0  0  0  0  0  0  0  0  0  0  0  0
  1  2  1  0  0  0  0
  2  3  2  0  0  0  0
  2  4  1  0  0  0  0
  3  5  1  0  0  0  0
  3  6  1  0  0  0  0
  4  7  2  0  0  0  0
  5  8  1  0  0  0  0
  6  9  2  0  0  0  0
  7 10  1  0  0  0  0
  8 11  1  0  0  0  0
  9 12  1  0  0  0  0
 10 13  2  0  0  0  0
 10 14  2  0  0  0  0
 10 15  1  0  0  0  0
 11 16  1  0  0  0  0
 15 17  1  0  0  0  0
 16 18  1  0  0  0  0
 16 19  1  0  0  0  0
 17 20  1  0  0  0  0
 17 21  2  0  0  0  0
 18 22  1  0  0  0  0
 20 23  1  0  0  0  0
 21 24  1  0  0  0  0
  7  9  1  0  0  0  0
 19 22  1  0  0  0  0
 23 24  2  0  0  0  0
M  END
>  <MolRegNo>
2243851

>  <m>
=

>  <Value>
20000

>  <Unit>
nM

>  <Type>
IC50

>  <pValue>
4.7

>  <Ligand Efficiency>
0

>  <Binding Efficiency>
0

>  <Surface Efficiency>
0

>  <Assay Index>
1077710

>  <Assay Category>


>  <Assay Organism>
Homo sapiens

>  <Target ID>
17045

>  <Target Name>
Cytochrome P450 3A4

>  <Target Organism>
Homo sapiens

>  <Target Description>
Target is a single protein chain

>  <Sequence Accession>
P08684

>  <Reference>
J Med Chem 60 (6), 2513-2525 (2017)

>  <Pubmed ID>
28234467

>  <DOI>
10.1021/acs.jmedchem.6b01918

$$$$
2225189
Actelion Java MolfileCreator 1.0

 25 27  0  0  0  0  0  0  0  0999 V2000
    0.0000   -0.0000   -0.0000 Cl  0  0  0  0  0  0  0  0  0  0  0  0
   -0.0119    1.5105   -0.0000 C   0  0  0  0  0  0  0  0  0  0  0  0
   -1.3202    2.2718   -0.0000 C   0  0  0  0  0  0  0  0  0  0  0  0
    1.2727    2.2718   -0.0000 C   0  0  0  0  0  0  0  0  0  0  0  0
   -2.6286    1.5105   -0.0000 N   0  0  0  0  0  0  0  0  0  0  0  0
   -1.3321    3.7823   -0.0000 C   0  0  0  0  0  0  0  0  0  0  0  0
    1.2608    3.7823   -0.0000 C   0  0  0  0  0  0  0  0  0  0  0  0
   -2.6286    0.0119   -0.0000 C   0  0  0  0  0  0  0  0  0  0  0  0
   -0.0476    4.5435   -0.0000 C   0  0  0  0  0  0  0  0  0  0  0  0
    2.5572    4.5554   -0.0000 S   0  0  0  0  0  0  0  0  0  0  0  0
   -3.9250   -0.7255   -0.0000 C   0  0  0  0  0  0  0  0  0  0  0  0
   -0.0595    6.0541   -0.0000 F   0  0  0  0  0  0  0  0  0  0  0  0
    1.7960    5.8638   -0.0000 O   0  0  0  0  0  0  0  0  0  0  0  0
    3.2946    5.8757   -0.0000 O   0  0  0  0  0  0  0  0  0  0  0  0
    3.8537    3.8180   -0.0000 N   0  0  0  0  0  0  0  0  0  0  0  0
   -3.9250   -2.1885   -0.0000 C   0  0  0  0  0  0  0  0  0  0  0  0
   -5.2334    0.0357   -0.0000 C   0  0  0  0  0  0  0  0  0  0  0  0
    5.1382    4.5911   -0.0000 C   0  0  0  0  0  0  0  0  0  0  0  0
   -5.2334   -2.9259   -0.0000 N   0  0  0  0  0  0  0  0  0  0  0  0
   -6.5298   -0.6899   -0.0000 C   0  0  0  0  0  0  0  0  0  0  0  0
    6.5417    4.1391   -0.0000 S   0  0  0  0  0  0  0  0  0  0  0  0
    5.1144    6.1016   -0.0000 N   0  0  0  0  0  0  0  0  0  0  0  0
   -6.5417   -2.1647   -0.0000 C   0  0  0  0  0  0  0  0  0  0  0  0
    7.4100    5.3642   -0.0000 C   0  0  0  0  0  0  0  0  0  0  0  0
    6.5179    6.5655   -0.0000 C   0  0  0  0  0  0  0  0  0  0  0  0
  1  2  1  0  0  0  0
  2  3  2  0  0  0  0
  2  4  1  0  0  0  0
  3  5  1  0  0  0  0
  3  6  1  0  0  0  0
  4  7  2  0  0  0  0
  5  8  1  0  0  0  0
  6  9  2  0  0  0  0
  7 10  1  0  0  0  0
 11  8  1  6  0  0  0
  9 12  1  0  0  0  0
 10 13  2  0  0  0  0
 10 14  2  0  0  0  0
 10 15  1  0  0  0  0
 11 16  1  0  0  0  0
 11 17  1  0  0  0  0
 15 18  1  0  0  0  0
 16 19  1  0  0  0  0
 17 20  1  0  0  0  0
 18 21  1  0  0  0  0
 18 22  2  0  0  0  0
 19 23  1  0  0  0  0
 21 24  1  0  0  0  0
 22 25  1  0  0  0  0
  7  9  1  0  0  0  0
 20 23  1  0  0  0  0
 24 25  2  0  0  0  0
M  END
>  <MolRegNo>
2225189

>  <m>
=

>  <Value>
20000

>  <Unit>
nM

>  <Type>
IC50

>  <pValue>
4.7

>  <Ligand Efficiency>
0

>  <Binding Efficiency>
0

>  <Surface Efficiency>
0

>  <Assay Index>
1077710

>  <Assay Category>


>  <Assay Organism>
Homo sapiens

>  <Target ID>
17045

>  <Target Name>
Cytochrome P450 3A4

>  <Target Organism>
Homo sapiens

>  <Target Description>
Target is a single protein chain

>  <Sequence Accession>
P08684

>  <Reference>
J Med Chem 60 (6), 2513-2525 (2017)

>  <Pubmed ID>
28234467

>  <DOI>
10.1021/acs.jmedchem.6b01918

$$$$
2228921
Actelion Java MolfileCreator 1.0

 25 27  0  0  0  0  0  0  0  0999 V2000
    0.0000   -0.0000   -0.0000 Cl  0  0  0  0  0  0  0  0  0  0  0  0
   -0.0119    1.5105   -0.0000 C   0  0  0  0  0  0  0  0  0  0  0  0
   -1.3202    2.2718   -0.0000 C   0  0  0  0  0  0  0  0  0  0  0  0
    1.2727    2.2718   -0.0000 C   0  0  0  0  0  0  0  0  0  0  0  0
   -2.6286    1.5105   -0.0000 N   0  0  0  0  0  0  0  0  0  0  0  0
   -1.3321    3.7823   -0.0000 C   0  0  0  0  0  0  0  0  0  0  0  0
    1.2608    3.7823   -0.0000 C   0  0  0  0  0  0  0  0  0  0  0  0
   -2.6286    0.0119   -0.0000 C   0  0  0  0  0  0  0  0  0  0  0  0
   -0.0476    4.5435   -0.0000 C   0  0  0  0  0  0  0  0  0  0  0  0
    2.5572    4.5554   -0.0000 S   0  0  0  0  0  0  0  0  0  0  0  0
   -3.9250   -0.7255   -0.0000 C   0  0  0  0  0  0  0  0  0  0  0  0
   -0.0595    6.0541   -0.0000 F   0  0  0  0  0  0  0  0  0  0  0  0
    1.7960    5.8638   -0.0000 O   0  0  0  0  0  0  0  0  0  0  0  0
    3.2946    5.8757   -0.0000 O   0  0  0  0  0  0  0  0  0  0  0  0
    3.8537    3.8180   -0.0000 N   0  0  0  0  0  0  0  0  0  0  0  0
   -5.2334    0.0357   -0.0000 O   0  0  0  0  0  0  0  0  0  0  0  0
   -3.9250   -2.1885   -0.0000 C   0  0  0  0  0  0  0  0  0  0  0  0
    5.1382    4.5911   -0.0000 C   0  0  0  0  0  0  0  0  0  0  0  0
   -6.5298   -0.6899   -0.0000 C   0  0  0  0  0  0  0  0  0  0  0  0
   -5.2334   -2.9259   -0.0000 N   0  0  0  0  0  0  0  0  0  0  0  0
    6.5417    4.1391   -0.0000 S   0  0  0  0  0  0  0  0  0  0  0  0
    5.1144    6.1016   -0.0000 N   0  0  0  0  0  0  0  0  0  0  0  0
   -6.5417   -2.1647   -0.0000 C   0  0  0  0  0  0  0  0  0  0  0  0
    7.4100    5.3642   -0.0000 C   0  0  0  0  0  0  0  0  0  0  0  0
    6.5179    6.5655   -0.0000 C   0  0  0  0  0  0  0  0  0  0  0  0
  1  2  1  0  0  0  0
  2  3  2  0  0  0  0
  2  4  1  0  0  0  0
  3  5  1  0  0  0  0
  3  6  1  0  0  0  0
  4  7  2  0  0  0  0
  5  8  1  0  0  0  0
  6  9  2  0  0  0  0
  7 10  1  0  0  0  0
  8 11  1  0  0  0  0
  9 12  1  0  0  0  0
 10 13  2  0  0  0  0
 10 14  2  0  0  0  0
 10 15  1  0  0  0  0
 11 16  1  0  0  0  0
 11 17  1  0  0  0  0
 15 18  1  0  0  0  0
 16 19  1  0  0  0  0
 17 20  1  0  0  0  0
 18 21  1  0  0  0  0
 18 22  2  0  0  0  0
 19 23  1  0  0  0  0
 21 24  1  0  0  0  0
 22 25  1  0  0  0  0
  7  9  1  0  0  0  0
 20 23  1  0  0  0  0
 24 25  2  0  0  0  0
M  END
>  <MolRegNo>
2228921

>  <m>
=

>  <Value>
20000

>  <Unit>
nM

>  <Type>
IC50

>  <pValue>
4.7

>  <Ligand Efficiency>
0

>  <Binding Efficiency>
0

>  <Surface Efficiency>
0

>  <Assay Index>
1077710

>  <Assay Category>


>  <Assay Organism>
Homo sapiens

>  <Target ID>
17045

>  <Target Name>
Cytochrome P450 3A4

>  <Target Organism>
Homo sapiens

>  <Target Description>
Target is a single protein chain

>  <Sequence Accession>
P08684

>  <Reference>
J Med Chem 60 (6), 2513-2525 (2017)

>  <Pubmed ID>
28234467

>  <DOI>
10.1021/acs.jmedchem.6b01918

$$$$
2236622
Actelion Java MolfileCreator 1.0

 26 28  0  0  0  0  0  0  0  0999 V2000
    0.0000   -0.0000   -0.0000 Cl  0  0  0  0  0  0  0  0  0  0  0  0
   -0.0119    1.5110   -0.0000 C   0  0  0  0  0  0  0  0  0  0  0  0
   -1.3207    2.2725   -0.0000 C   0  0  0  0  0  0  0  0  0  0  0  0
    1.2731    2.2725   -0.0000 C   0  0  0  0  0  0  0  0  0  0  0  0
   -2.6294    1.5110   -0.0000 N   0  0  0  0  0  0  0  0  0  0  0  0
   -1.3326    3.7835   -0.0000 C   0  0  0  0  0  0  0  0  0  0  0  0
    1.2612    3.7835   -0.0000 C   0  0  0  0  0  0  0  0  0  0  0  0
   -2.6294    0.0119   -0.0000 C   0  0  0  0  0  0  0  0  0  0  0  0
   -0.0476    4.5450   -0.0000 C   0  0  0  0  0  0  0  0  0  0  0  0
    2.5580    4.5569   -0.0000 S   0  0  0  0  0  0  0  0  0  0  0  0
   -3.9263   -0.7258   -0.0000 C   0  0  0  0  0  0  0  0  0  0  0  0
   -0.0595    6.0560   -0.0000 F   0  0  0  0  0  0  0  0  0  0  0  0
    1.7966    5.8656   -0.0000 O   0  0  0  0  0  0  0  0  0  0  0  0
    3.2957    5.8775   -0.0000 O   0  0  0  0  0  0  0  0  0  0  0  0
    3.8549    3.8192   -0.0000 N   0  0  0  0  0  0  0  0  0  0  0  0
   -3.9263   -2.1892   -0.0000 C   0  0  0  0  0  0  0  0  0  0  0  0
   -5.2350    0.0357   -0.0000 C   0  0  0  0  0  0  0  0  0  0  0  0
    5.1398    4.5925   -0.0000 C   0  0  0  0  0  0  0  0  0  0  0  0
   -5.2350   -2.9269   -0.0000 N   0  0  0  0  0  0  0  0  0  0  0  0
   -6.5319   -0.6901   -0.0000 C   0  0  0  0  0  0  0  0  0  0  0  0
    6.5438    4.1404   -0.0000 S   0  0  0  0  0  0  0  0  0  0  0  0
    5.1160    6.1036   -0.0000 N   0  0  0  0  0  0  0  0  0  0  0  0
   -5.2469   -4.4141   -0.0000 O   0  0  0  0  0  0  0  0  0  0  0  0
   -6.5438   -2.1654   -0.0000 C   0  0  0  0  0  0  0  0  0  0  0  0
    7.4123    5.3659   -0.0000 C   0  0  0  0  0  0  0  0  0  0  0  0
    6.5200    6.5676   -0.0000 C   0  0  0  0  0  0  0  0  0  0  0  0
  1  2  1  0  0  0  0
  2  3  2  0  0  0  0
  2  4  1  0  0  0  0
  3  5  1  0  0  0  0
  3  6  1  0  0  0  0
  4  7  2  0  0  0  0
  5  8  1  0  0  0  0
  6  9  2  0  0  0  0
  7 10  1  0  0  0  0
 11  8  1  6  0  0  0
  9 12  1  0  0  0  0
 10 13  2  0  0  0  0
 10 14  2  0  0  0  0
 10 15  1  0  0  0  0
 11 16  1  0  0  0  0
 11 17  1  0  0  0  0
 15 18  1  0  0  0  0
 16 19  1  0  0  0  0
 17 20  1  0  0  0  0
 18 21  1  0  0  0  0
 18 22  2  0  0  0  0
 19 23  1  0  0  0  0
 19 24  1  0  0  0  0
 21 25  1  0  0  0  0
 22 26  1  0  0  0  0
  7  9  1  0  0  0  0
 20 24  1  0  0  0  0
 25 26  2  0  0  0  0
M  END
>  <MolRegNo>
2236622

>  <m>
=

>  <Value>
7900

>  <Unit>
nM

>  <Type>
IC50

>  <pValue>
5.1

>  <Ligand Efficiency>
0

>  <Binding Efficiency>
0

>  <Surface Efficiency>
0

>  <Assay Index>
1077710

>  <Assay Category>


>  <Assay Organism>
Homo sapiens

>  <Target ID>
17045

>  <Target Name>
Cytochrome P450 3A4

>  <Target Organism>
Homo sapiens

>  <Target Description>
Target is a single protein chain

>  <Sequence Accession>
P08684

>  <Reference>
J Med Chem 60 (6), 2513-2525 (2017)

>  <Pubmed ID>
28234467

>  <DOI>
10.1021/acs.jmedchem.6b01918

$$$$
2211462
Actelion Java MolfileCreator 1.0

 23 25  0  0  0  0  0  0  0  0999 V2000
    0.0000   -0.0000   -0.0000 Cl  0  0  0  0  0  0  0  0  0  0  0  0
   -0.0119    1.5100   -0.0000 C   0  0  0  0  0  0  0  0  0  0  0  0
   -1.3197    2.2709   -0.0000 C   0  0  0  0  0  0  0  0  0  0  0  0
    1.2722    2.2709   -0.0000 C   0  0  0  0  0  0  0  0  0  0  0  0
   -2.6276    1.5100   -0.0000 N   0  0  0  0  0  0  0  0  0  0  0  0
   -1.3316    3.7809   -0.0000 C   0  0  0  0  0  0  0  0  0  0  0  0
    1.2603    3.7809   -0.0000 C   0  0  0  0  0  0  0  0  0  0  0  0
   -2.6276    0.0119   -0.0000 C   0  0  0  0  0  0  0  0  0  0  0  0
   -0.0476    4.5418   -0.0000 C   0  0  0  0  0  0  0  0  0  0  0  0
    2.5562    4.5537   -0.0000 S   0  0  0  0  0  0  0  0  0  0  0  0
   -3.9235   -0.7253   -0.0000 C   0  0  0  0  0  0  0  0  0  0  0  0
   -0.0594    6.0518   -0.0000 F   0  0  0  0  0  0  0  0  0  0  0  0
    1.7953    5.8615   -0.0000 O   0  0  0  0  0  0  0  0  0  0  0  0
    3.2934    5.8734   -0.0000 O   0  0  0  0  0  0  0  0  0  0  0  0
    3.8522    3.8165   -0.0000 N   0  0  0  0  0  0  0  0  0  0  0  0
   -5.3741   -0.3329   -0.0000 C   0  0  0  0  0  0  0  0  0  0  0  0
   -4.3159   -2.1520   -0.0000 C   0  0  0  0  0  0  0  0  0  0  0  0
    5.1363    4.5894   -0.0000 C   0  0  0  0  0  0  0  0  0  0  0  0
   -5.7664   -1.7597   -0.0000 N   0  0  0  0  0  0  0  0  0  0  0  0
    6.5392    4.1376   -0.0000 S   0  0  0  0  0  0  0  0  0  0  0  0
    5.1125    6.0993   -0.0000 N   0  0  0  0  0  0  0  0  0  0  0  0
    7.4072    5.3622   -0.0000 C   0  0  0  0  0  0  0  0  0  0  0  0
    6.5155    6.5630   -0.0000 C   0  0  0  0  0  0  0  0  0  0  0  0
  1  2  1  0  0  0  0
  2  3  2  0  0  0  0
  2  4  1  0  0  0  0
  3  5  1  0  0  0  0
  3  6  1  0  0  0  0
  4  7  2  0  0  0  0
  5  8  1  0  0  0  0
  6  9  2  0  0  0  0
  7 10  1  0  0  0  0
  8 11  1  0  0  0  0
  9 12  1  0  0  0  0
 10 13  2  0  0  0  0
 10 14  2  0  0  0  0
 10 15  1  0  0  0  0
 11 16  1  0  0  0  0
 11 17  1  0  0  0  0
 15 18  1  0  0  0  0
 16 19  1  0  0  0  0
 18 20  1  0  0  0  0
 18 21  2  0  0  0  0
 20 22  1  0  0  0  0
 21 23  1  0  0  0  0
  7  9  1  0  0  0  0
 17 19  1  0  0  0  0
 22 23  2  0  0  0  0
M  END
>  <MolRegNo>
2211462

>  <m>
=

>  <Value>
20000

>  <Unit>
nM

>  <Type>
IC50

>  <pValue>
4.7

>  <Ligand Efficiency>
0

>  <Binding Efficiency>
0

>  <Surface Efficiency>
0

>  <Assay Index>
1077710

>  <Assay Category>


>  <Assay Organism>
Homo sapiens

>  <Target ID>
17045

>  <Target Name>
Cytochrome P450 3A4

>  <Target Organism>
Homo sapiens

>  <Target Description>
Target is a single protein chain

>  <Sequence Accession>
P08684

>  <Reference>
J Med Chem 60 (6), 2513-2525 (2017)

>  <Pubmed ID>
28234467

>  <DOI>
10.1021/acs.jmedchem.6b01918

$$$$
2204104
Actelion Java MolfileCreator 1.0

 29 31  0  0  0  0  0  0  0  0999 V2000
    0.0000   -0.0000   -0.0000 Cl  0  0  0  0  0  0  0  0  0  0  0  0
   -0.0119    1.5046   -0.0000 C   0  0  0  0  0  0  0  0  0  0  0  0
   -1.3136    2.2689   -0.0000 C   0  0  0  0  0  0  0  0  0  0  0  0
    1.2777    2.2689   -0.0000 C   0  0  0  0  0  0  0  0  0  0  0  0
   -2.6271    1.5046   -0.0000 N   0  0  0  0  0  0  0  0  0  0  0  0
   -1.3255    3.7735   -0.0000 C   0  0  0  0  0  0  0  0  0  0  0  0
    1.2658    3.7854   -0.0000 C   0  0  0  0  0  0  0  0  0  0  0  0
   -2.6271   -0.0000   -0.0000 C   0  0  0  0  0  0  0  0  0  0  0  0
   -0.0358    4.5377   -0.0000 C   0  0  0  0  0  0  0  0  0  0  0  0
    2.5555    4.5616   -0.0000 S   0  0  0  0  0  0  0  0  0  0  0  0
   -3.9407   -0.7523   -0.0000 C   0  0  0  0  0  0  0  0  0  0  0  0
   -1.3255   -0.7284   -0.0000 C   0  0  0  0  0  0  0  0  0  0  0  0
   -0.0478    6.0423   -0.0000 F   0  0  0  0  0  0  0  0  0  0  0  0
    1.7912    5.8752   -0.0000 O   0  0  0  0  0  0  0  0  0  0  0  0
    3.2958    5.8752   -0.0000 O   0  0  0  0  0  0  0  0  0  0  0  0
    3.8571    3.8212   -0.0000 N   0  0  0  0  0  0  0  0  0  0  0  0
   -3.9526   -2.2450   -0.0000 C   0  0  0  0  0  0  0  0  0  0  0  0
   -1.3374   -2.2330   -0.0000 C   0  0  0  0  0  0  0  0  0  0  0  0
    5.1348    4.5855   -0.0000 C   0  0  0  0  0  0  0  0  0  0  0  0
   -2.6510   -2.9853   -0.0000 N   0  0  0  0  0  0  0  0  0  0  0  0
   -4.7168   -3.5227   -0.0000 C   0  0  0  0  0  0  0  0  0  0  0  0
   -5.4572   -2.2211   -0.0000 C   0  0  0  0  0  0  0  0  0  0  0  0
    0.1433   -2.2211   -0.0000 C   0  0  0  0  0  0  0  0  0  0  0  0
   -0.5971   -3.5108   -0.0000 C   0  0  0  0  0  0  0  0  0  0  0  0
    6.5439    4.1317   -0.0000 S   0  0  0  0  0  0  0  0  0  0  0  0
    5.1109    6.0901   -0.0000 N   0  0  0  0  0  0  0  0  0  0  0  0
   -2.6629   -4.4661   -0.0000 C   0  0  0  0  0  0  0  0  0  0  0  0
    7.4156    5.3497   -0.0000 C   0  0  0  0  0  0  0  0  0  0  0  0
    6.5200    6.5558   -0.0000 C   0  0  0  0  0  0  0  0  0  0  0  0
  1  2  1  0  0  0  0
  2  3  2  0  0  0  0
  2  4  1  0  0  0  0
  3  5  1  0  0  0  0
  3  6  1  0  0  0  0
  4  7  2  0  0  0  0
  5  8  1  0  0  0  0
  6  9  2  0  0  0  0
  7 10  1  0  0  0  0
  8 11  1  0  0  0  0
  8 12  1  0  0  0  0
  9 13  1  0  0  0  0
 10 14  2  0  0  0  0
 10 15  2  0  0  0  0
 10 16  1  0  0  0  0
 11 17  1  0  0  0  0
 12 18  1  0  0  0  0
 16 19  1  0  0  0  0
 17 20  1  0  0  0  0
 17 21  1  0  0  0  0
 17 22  1  0  0  0  0
 18 23  1  0  0  0  0
 18 24  1  0  0  0  0
 19 25  1  0  0  0  0
 19 26  2  0  0  0  0
 20 27  1  0  0  0  0
 25 28  1  0  0  0  0
 26 29  1  0  0  0  0
  7  9  1  0  0  0  0
 18 20  1  0  0  0  0
 28 29  2  0  0  0  0
M  END
>  <MolRegNo>
2204104

>  <m>
=

>  <Value>
20000

>  <Unit>
nM

>  <Type>
IC50

>  <pValue>
4.7

>  <Ligand Efficiency>
0

>  <Binding Efficiency>
0

>  <Surface Efficiency>
0

>  <Assay Index>
1077710

>  <Assay Category>


>  <Assay Organism>
Homo sapiens

>  <Target ID>
17045

>  <Target Name>
Cytochrome P450 3A4

>  <Target Organism>
Homo sapiens

>  <Target Description>
Target is a single protein chain

>  <Sequence Accession>
P08684

>  <Reference>
J Med Chem 60 (6), 2513-2525 (2017)

>  <Pubmed ID>
28234467

>  <DOI>
10.1021/acs.jmedchem.6b01918

$$$$
2231989
Actelion Java MolfileCreator 1.0

 28 31  0  0  0  0  0  0  0  0999 V2000
    0.0000   -0.0000   -0.0000 Cl  0  0  0  0  0  0  0  0  0  0  0  0
   -0.0119    1.5072   -0.0000 C   0  0  0  0  0  0  0  0  0  0  0  0
   -1.3173    2.2667   -0.0000 C   0  0  0  0  0  0  0  0  0  0  0  0
    1.2698    2.2667   -0.0000 C   0  0  0  0  0  0  0  0  0  0  0  0
   -2.6227    1.5072   -0.0000 N   0  0  0  0  0  0  0  0  0  0  0  0
   -1.3292    3.7738   -0.0000 C   0  0  0  0  0  0  0  0  0  0  0  0
    1.2579    3.7738   -0.0000 C   0  0  0  0  0  0  0  0  0  0  0  0
   -2.6227    0.0119   -0.0000 C   0  0  0  0  0  0  0  0  0  0  0  0
   -0.0475    4.5334   -0.0000 C   0  0  0  0  0  0  0  0  0  0  0  0
    2.5515    4.5452   -0.0000 S   0  0  0  0  0  0  0  0  0  0  0  0
   -3.9400   -0.7358   -0.0000 C   0  0  0  0  0  0  0  0  0  0  0  0
   -0.0593    6.0405   -0.0000 F   0  0  0  0  0  0  0  0  0  0  0  0
    1.7920    5.8506   -0.0000 O   0  0  0  0  0  0  0  0  0  0  0  0
    3.2873    5.8625   -0.0000 O   0  0  0  0  0  0  0  0  0  0  0  0
    3.8450    3.8094   -0.0000 N   0  0  0  0  0  0  0  0  0  0  0  0
   -5.4472   -0.7239   -0.0000 C   0  0  0  0  0  0  0  0  0  0  0  0
   -4.6995    0.5696   -0.0000 C   0  0  0  0  0  0  0  0  0  0  0  0
   -3.9400   -2.2192   -0.0000 C   0  0  0  0  0  0  0  0  0  0  0  0
    5.1267    4.5808   -0.0000 C   0  0  0  0  0  0  0  0  0  0  0  0
   -5.2454   -2.9550   -0.0000 N   0  0  0  0  0  0  0  0  0  0  0  0
    6.5271    4.1299   -0.0000 S   0  0  0  0  0  0  0  0  0  0  0  0
    5.1030    6.0880   -0.0000 N   0  0  0  0  0  0  0  0  0  0  0  0
   -6.6220   -2.3498   -0.0000 C   0  0  0  0  0  0  0  0  0  0  0  0
   -5.4115   -4.4384   -0.0000 C   0  0  0  0  0  0  0  0  0  0  0  0
    7.3934    5.3522   -0.0000 C   0  0  0  0  0  0  0  0  0  0  0  0
    6.5034    6.5508   -0.0000 C   0  0  0  0  0  0  0  0  0  0  0  0
   -7.6426   -3.4534   -0.0000 C   0  0  0  0  0  0  0  0  0  0  0  0
   -6.8831   -4.7470   -0.0000 C   0  0  0  0  0  0  0  0  0  0  0  0
  1  2  1  0  0  0  0
  2  3  2  0  0  0  0
  2  4  1  0  0  0  0
  3  5  1  0  0  0  0
  3  6  1  0  0  0  0
  4  7  2  0  0  0  0
  5  8  1  0  0  0  0
  6  9  2  0  0  0  0
  7 10  1  0  0  0  0
  8 11  1  0  0  0  0
  9 12  1  0  0  0  0
 10 13  2  0  0  0  0
 10 14  2  0  0  0  0
 10 15  1  0  0  0  0
 11 16  1  0  0  0  0
 11 17  1  0  0  0  0
 11 18  1  0  0  0  0
 15 19  1  0  0  0  0
 18 20  1  0  0  0  0
 19 21  1  0  0  0  0
 19 22  2  0  0  0  0
 20 23  1  0  0  0  0
 20 24  1  0  0  0  0
 21 25  1  0  0  0  0
 22 26  1  0  0  0  0
 23 27  1  0  0  0  0
 24 28  1  0  0  0  0
  7  9  1  0  0  0  0
 16 17  1  0  0  0  0
 25 26  2  0  0  0  0
 27 28  1  0  0  0  0
M  END
>  <MolRegNo>
2231989

>  <m>
=

>  <Value>
20000

>  <Unit>
nM

>  <Type>
IC50

>  <pValue>
4.7

>  <Ligand Efficiency>
0

>  <Binding Efficiency>
0

>  <Surface Efficiency>
0

>  <Assay Index>
1077710

>  <Assay Category>


>  <Assay Organism>
Homo sapiens

>  <Target ID>
17045

>  <Target Name>
Cytochrome P450 3A4

>  <Target Organism>
Homo sapiens

>  <Target Description>
Target is a single protein chain

>  <Sequence Accession>
P08684

>  <Reference>
J Med Chem 60 (6), 2513-2525 (2017)

>  <Pubmed ID>
28234467

>  <DOI>
10.1021/acs.jmedchem.6b01918

$$$$
563320
Actelion Java MolfileCreator 1.0

 25 25  0  0  0  0  0  0  0  0999 V2000
    0.0000   -0.0000   -0.0000 O   0  0  0  0  0  0  0  0  0  0  0  0
   -0.0119   -1.4898   -0.0000 C   0  0  0  0  0  0  0  0  0  0  0  0
    1.2752   -2.2287   -0.0000 C   0  0  0  0  0  0  0  0  0  0  0  0
   -1.3229   -2.2287   -0.0000 C   0  0  0  0  0  0  0  0  0  0  0  0
    2.5624   -1.4659   -0.0000 C   0  0  0  0  0  0  0  0  0  0  0  0
   -2.6339   -1.4659   -0.0000 C   0  0  0  0  0  0  0  0  0  0  0  0
    2.5505    0.0477   -0.0000 O   0  0  0  0  0  0  0  0  0  0  0  0
    3.8496   -2.2049   -0.0000 C   0  0  0  0  0  0  0  0  0  0  0  0
   -3.9449   -2.2049   -0.0000 C   0  0  0  0  0  0  0  0  0  0  0  0
    5.1367   -1.4421   -0.0000 C   0  0  0  0  0  0  0  0  0  0  0  0
   -5.2559   -1.4421   -0.0000 C   0  0  0  0  0  0  0  0  0  0  0  0
   -3.9568   -3.7066   -0.0000 C   0  0  0  0  0  0  0  0  0  0  0  0
    6.4239   -2.1810   -0.0000 C   0  0  0  0  0  0  0  0  0  0  0  0
   -6.5669   -2.1810   -0.0000 C   0  0  0  0  0  0  0  0  0  0  0  0
   -5.2798   -4.4455   -0.0000 C   0  0  0  0  0  0  0  0  0  0  0  0
    7.7111   -1.4183   -0.0000 C   0  0  0  0  0  0  0  0  0  0  0  0
   -7.8779   -1.4183   -0.0000 O   0  0  0  0  0  0  0  0  0  0  0  0
   -6.5789   -3.6827   -0.0000 C   0  0  0  0  0  0  0  0  0  0  0  0
    9.0102   -2.1572   -0.0000 C   0  0  0  0  0  0  0  0  0  0  0  0
   -9.1889   -2.1572   -0.0000 C   0  0  0  0  0  0  0  0  0  0  0  0
   -7.8899   -4.4217   -0.0000 O   0  0  0  0  0  0  0  0  0  0  0  0
   10.2973   -1.3944   -0.0000 C   0  0  0  0  0  0  0  0  0  0  0  0
   11.5845   -2.1334   -0.0000 C   0  0  0  0  0  0  0  0  0  0  0  0
   12.8717   -1.3706   -0.0000 C   0  0  0  0  0  0  0  0  0  0  0  0
   14.1588   -2.1095   -0.0000 C   0  0  0  0  0  0  0  0  0  0  0  0
  1  2  2  0  0  0  0
  2  3  1  0  0  0  0
  2  4  1  0  0  0  0
  3  5  1  0  0  0  0
  4  6  1  0  0  0  0
  5  7  1  1  0  0  0
  5  8  1  0  0  0  0
  6  9  1  0  0  0  0
  8 10  1  0  0  0  0
  9 11  2  0  0  0  0
  9 12  1  0  0  0  0
 10 13  1  0  0  0  0
 11 14  1  0  0  0  0
 12 15  2  0  0  0  0
 13 16  1  0  0  0  0
 14 17  1  0  0  0  0
 14 18  2  0  0  0  0
 16 19  1  0  0  0  0
 17 20  1  0  0  0  0
 18 21  1  0  0  0  0
 19 22  1  0  0  0  0
 22 23  1  0  0  0  0
 23 24  1  0  0  0  0
 24 25  1  0  0  0  0
 15 18  1  0  0  0  0
M  END
>  <MolRegNo>
563320

>  <m>
=

>  <Value>
7100

>  <Unit>
nM

>  <Type>
IC50

>  <pValue>
5.15

>  <Ligand Efficiency>
0

>  <Binding Efficiency>
0

>  <Surface Efficiency>
0

>  <Assay Index>
1078584

>  <Assay Category>


>  <Assay Organism>
Homo sapiens

>  <Target ID>
17045

>  <Target Name>
Cytochrome P450 3A4

>  <Target Organism>
Homo sapiens

>  <Target Description>
Target is a single protein chain

>  <Sequence Accession>
P08684

>  <Reference>
Bioorg Med Chem Lett 27 (8), 1826-1830 (2017)

>  <Pubmed ID>
28274629

>  <DOI>
10.1016/j.bmcl.2017.02.047

$$$$
425474
Actelion Java MolfileCreator 1.0

 21 21  0  0  0  0  0  0  0  0999 V2000
    0.0000   -0.0000   -0.0000 O   0  0  0  0  0  0  0  0  0  0  0  0
   -0.0119   -1.4884   -0.0000 C   0  0  0  0  0  0  0  0  0  0  0  0
    1.2741   -2.2267   -0.0000 C   0  0  0  0  0  0  0  0  0  0  0  0
   -1.3217   -2.2267   -0.0000 C   0  0  0  0  0  0  0  0  0  0  0  0
    2.5601   -1.4646   -0.0000 C   0  0  0  0  0  0  0  0  0  0  0  0
   -2.6315   -1.4646   -0.0000 C   0  0  0  0  0  0  0  0  0  0  0  0
    2.5482    0.0476   -0.0000 O   0  0  0  0  0  0  0  0  0  0  0  0
    3.8461   -2.2028   -0.0000 C   0  0  0  0  0  0  0  0  0  0  0  0
   -3.9413   -2.2028   -0.0000 C   0  0  0  0  0  0  0  0  0  0  0  0
    5.1320   -1.4408   -0.0000 C   0  0  0  0  0  0  0  0  0  0  0  0
   -5.2511   -1.4408   -0.0000 C   0  0  0  0  0  0  0  0  0  0  0  0
   -3.9532   -3.7032   -0.0000 C   0  0  0  0  0  0  0  0  0  0  0  0
    6.4180   -2.1790   -0.0000 C   0  0  0  0  0  0  0  0  0  0  0  0
   -6.5609   -2.1790   -0.0000 C   0  0  0  0  0  0  0  0  0  0  0  0
   -5.2749   -4.4414   -0.0000 C   0  0  0  0  0  0  0  0  0  0  0  0
    7.7040   -1.4170   -0.0000 C   0  0  0  0  0  0  0  0  0  0  0  0
   -7.8707   -1.4170   -0.0000 O   0  0  0  0  0  0  0  0  0  0  0  0
   -6.5728   -3.6794   -0.0000 C   0  0  0  0  0  0  0  0  0  0  0  0
    8.9900   -2.1552   -0.0000 C   0  0  0  0  0  0  0  0  0  0  0  0
   -9.1805   -2.1552   -0.0000 C   0  0  0  0  0  0  0  0  0  0  0  0
   -7.8826   -4.4176   -0.0000 O   0  0  0  0  0  0  0  0  0  0  0  0
  1  2  2  0  0  0  0
  2  3  1  0  0  0  0
  2  4  1  0  0  0  0
  3  5  1  0  0  0  0
  4  6  1  0  0  0  0
  5  7  1  1  0  0  0
  5  8  1  0  0  0  0
  6  9  1  0  0  0  0
  8 10  1  0  0  0  0
  9 11  2  0  0  0  0
  9 12  1  0  0  0  0
 10 13  1  0  0  0  0
 11 14  1  0  0  0  0
 12 15  2  0  0  0  0
 13 16  1  0  0  0  0
 14 17  1  0  0  0  0
 14 18  2  0  0  0  0
 16 19  1  0  0  0  0
 17 20  1  0  0  0  0
 18 21  1  0  0  0  0
 15 18  1  0  0  0  0
M  END
>  <MolRegNo>
425474

>  <m>
=

>  <Value>
73400

>  <Unit>
nM

>  <Type>
IC50

>  <pValue>
4.13

>  <Ligand Efficiency>
0

>  <Binding Efficiency>
0

>  <Surface Efficiency>
0

>  <Assay Index>
1078578

>  <Assay Category>


>  <Assay Organism>
Homo sapiens

>  <Target ID>
17045

>  <Target Name>
Cytochrome P450 3A4

>  <Target Organism>
Homo sapiens

>  <Target Description>
Target is a single protein chain

>  <Sequence Accession>
P08684

>  <Reference>
Bioorg Med Chem Lett 27 (8), 1826-1830 (2017)

>  <Pubmed ID>
28274629

>  <DOI>
10.1016/j.bmcl.2017.02.047

$$$$
627805
Actelion Java MolfileCreator 1.0

 23 23  0  0  0  0  0  0  0  0999 V2000
    0.0000   -0.0000   -0.0000 O   0  0  0  0  0  0  0  0  0  0  0  0
   -0.0119   -1.4896   -0.0000 C   0  0  0  0  0  0  0  0  0  0  0  0
    1.2751   -2.2285   -0.0000 C   0  0  0  0  0  0  0  0  0  0  0  0
   -1.3228   -2.2285   -0.0000 C   0  0  0  0  0  0  0  0  0  0  0  0
    2.5622   -1.4658   -0.0000 C   0  0  0  0  0  0  0  0  0  0  0  0
   -2.6337   -1.4658   -0.0000 C   0  0  0  0  0  0  0  0  0  0  0  0
    2.5502    0.0477   -0.0000 O   0  0  0  0  0  0  0  0  0  0  0  0
    3.8492   -2.2047   -0.0000 C   0  0  0  0  0  0  0  0  0  0  0  0
   -3.9445   -2.2047   -0.0000 C   0  0  0  0  0  0  0  0  0  0  0  0
    5.1362   -1.4420   -0.0000 C   0  0  0  0  0  0  0  0  0  0  0  0
   -5.2554   -1.4420   -0.0000 C   0  0  0  0  0  0  0  0  0  0  0  0
   -3.9565   -3.7062   -0.0000 C   0  0  0  0  0  0  0  0  0  0  0  0
    6.4233   -2.1808   -0.0000 C   0  0  0  0  0  0  0  0  0  0  0  0
   -6.5663   -2.1808   -0.0000 C   0  0  0  0  0  0  0  0  0  0  0  0
   -5.2792   -4.4451   -0.0000 C   0  0  0  0  0  0  0  0  0  0  0  0
    7.7103   -1.4181   -0.0000 C   0  0  0  0  0  0  0  0  0  0  0  0
   -7.8772   -1.4181   -0.0000 O   0  0  0  0  0  0  0  0  0  0  0  0
   -6.5782   -3.6704   -0.0000 C   0  0  0  0  0  0  0  0  0  0  0  0
    8.9974   -2.1570   -0.0000 C   0  0  0  0  0  0  0  0  0  0  0  0
   -9.1880   -2.1570   -0.0000 C   0  0  0  0  0  0  0  0  0  0  0  0
   -7.8891   -4.4093   -0.0000 O   0  0  0  0  0  0  0  0  0  0  0  0
   10.2844   -1.3943   -0.0000 C   0  0  0  0  0  0  0  0  0  0  0  0
   11.5714   -2.1331   -0.0000 C   0  0  0  0  0  0  0  0  0  0  0  0
  1  2  2  0  0  0  0
  2  3  1  0  0  0  0
  2  4  1  0  0  0  0
  3  5  1  0  0  0  0
  4  6  1  0  0  0  0
  5  7  1  1  0  0  0
  5  8  1  0  0  0  0
  6  9  1  0  0  0  0
  8 10  1  0  0  0  0
  9 11  2  0  0  0  0
  9 12  1  0  0  0  0
 10 13  1  0  0  0  0
 11 14  1  0  0  0  0
 12 15  2  0  0  0  0
 13 16  1  0  0  0  0
 14 17  1  0  0  0  0
 14 18  2  0  0  0  0
 16 19  1  0  0  0  0
 17 20  1  0  0  0  0
 18 21  1  0  0  0  0
 19 22  1  0  0  0  0
 22 23  1  0  0  0  0
 15 18  1  0  0  0  0
M  END
>  <MolRegNo>
627805

>  <m>
=

>  <Value>
8100

>  <Unit>
nM

>  <Type>
IC50

>  <pValue>
5.09

>  <Ligand Efficiency>
0

>  <Binding Efficiency>
0

>  <Surface Efficiency>
0

>  <Assay Index>
1078584

>  <Assay Category>


>  <Assay Organism>
Homo sapiens

>  <Target ID>
17045

>  <Target Name>
Cytochrome P450 3A4

>  <Target Organism>
Homo sapiens

>  <Target Description>
Target is a single protein chain

>  <Sequence Accession>
P08684

>  <Reference>
Bioorg Med Chem Lett 27 (8), 1826-1830 (2017)

>  <Pubmed ID>
28274629

>  <DOI>
10.1016/j.bmcl.2017.02.047

$$$$
2025359
Actelion Java MolfileCreator 1.0

 32 35  0  0  0  0  0  0  0  0999 V2000
    0.0000   -0.0000   -0.0000 S   0  0  0  0  0  0  0  0  0  0  0  0
   -0.0123   -1.2380   -0.0000 O   0  0  0  0  0  0  0  0  0  0  0  0
   -1.0909   -0.6129   -0.0000 O   0  0  0  0  0  0  0  0  0  0  0  0
   -1.3606    0.7845   -0.0000 N   0  0  0  0  0  0  0  0  0  0  0  0
    1.3361    0.7967   -0.0000 C   0  0  0  0  0  0  0  0  0  0  0  0
   -2.7212    0.0123   -0.0000 C   0  0  0  0  0  0  0  0  0  0  0  0
    1.3238    2.3657   -0.0000 C   0  0  0  0  0  0  0  0  0  0  0  0
    2.6722    0.0368   -0.0000 C   0  0  0  0  0  0  0  0  0  0  0  0
   -2.7334   -1.5322   -0.0000 N   0  0  0  0  0  0  0  0  0  0  0  0
   -4.0818    0.7967   -0.0000 C   0  0  0  0  0  0  0  0  0  0  0  0
    2.6599    3.1502   -0.0000 C   0  0  0  0  0  0  0  0  0  0  0  0
    4.0082    0.8213   -0.0000 C   0  0  0  0  0  0  0  0  0  0  0  0
   -4.0940   -2.3044   -0.0000 C   0  0  0  0  0  0  0  0  0  0  0  0
   -5.4424    0.0245   -0.0000 C   0  0  0  0  0  0  0  0  0  0  0  0
    3.9960    2.3902   -0.0000 C   0  0  0  0  0  0  0  0  0  0  0  0
    2.6476    4.7192   -0.0000 C   0  0  0  0  0  0  0  0  0  0  0  0
   -5.4546   -1.5199   -0.0000 N   0  0  0  0  0  0  0  0  0  0  0  0
    5.3320    3.1747   -0.0000 C   0  0  0  0  0  0  0  0  0  0  0  0
    3.9837    5.5037   -0.0000 C   0  0  0  0  0  0  0  0  0  0  0  0
    5.3198    4.7437   -0.0000 N   0  0  0  0  0  0  0  0  0  0  0  0
    6.6681    2.4147   -0.0000 C   0  0  0  0  0  0  0  0  0  0  0  0
    8.0042    3.1992   -0.0000 C   0  0  0  0  0  0  0  0  0  0  0  0
    6.6559    0.8703   -0.0000 C   0  0  0  0  0  0  0  0  0  0  0  0
    7.9919    4.7682   -0.0000 O   0  0  0  0  0  0  0  0  0  0  0  0
    9.3403    2.4270   -0.0000 C   0  0  0  0  0  0  0  0  0  0  0  0
    7.9919    0.0981   -0.0000 C   0  0  0  0  0  0  0  0  0  0  0  0
    9.0583    5.4056   -0.0000 C   0  0  0  0  0  0  0  0  0  0  0  0
    9.3280    0.8825   -0.0000 C   0  0  0  0  0  0  0  0  0  0  0  0
   10.6641    0.1103   -0.0000 C   0  0  0  0  0  0  0  0  0  0  0  0
   11.7305    0.7477   -0.0000 F   0  0  0  0  0  0  0  0  0  0  0  0
   10.6518   -1.1277   -0.0000 F   0  0  0  0  0  0  0  0  0  0  0  0
   11.7305   -0.5026   -0.0000 F   0  0  0  0  0  0  0  0  0  0  0  0
  1  2  2  0  0  0  0
  1  3  2  0  0  0  0
  1  4  1  0  0  0  0
  1  5  1  0  0  0  0
  4  6  1  0  0  0  0
  5  7  2  0  0  0  0
  5  8  1  0  0  0  0
  6  9  2  0  0  0  0
  6 10  1  0  0  0  0
  7 11  1  0  0  0  0
  8 12  2  0  0  0  0
  9 13  1  0  0  0  0
 10 14  2  0  0  0  0
 11 15  1  0  0  0  0
 11 16  2  0  0  0  0
 13 17  2  0  0  0  0
 15 18  2  0  0  0  0
 16 19  1  0  0  0  0
 18 20  1  0  0  0  0
 18 21  1  0  0  0  0
 21 22  2  0  0  0  0
 21 23  1  0  0  0  0
 22 24  1  0  0  0  0
 22 25  1  0  0  0  0
 23 26  2  0  0  0  0
 24 27  1  0  0  0  0
 25 28  2  0  0  0  0
 28 29  1  0  0  0  0
 29 30  1  0  0  0  0
 29 31  1  0  0  0  0
 29 32  1  0  0  0  0
 12 15  1  0  0  0  0
 14 17  1  0  0  0  0
 19 20  2  0  0  0  0
 26 28  1  0  0  0  0
M  END
>  <MolRegNo>
2025359

>  <m>
=

>  <Value>
7200

>  <Unit>
nM

>  <Type>
IC50

>  <pValue>
5.14

>  <Ligand Efficiency>
0

>  <Binding Efficiency>
0

>  <Surface Efficiency>
0

>  <Assay Index>
1080100

>  <Assay Category>


>  <Assay Organism>
Homo sapiens

>  <Target ID>
17045

>  <Target Name>
Cytochrome P450 3A4

>  <Target Organism>
Homo sapiens

>  <Target Description>
Target is a single protein chain

>  <Sequence Accession>
P08684

>  <Reference>
J Med Chem 60 (14), 5969-5989 (2017)

>  <Pubmed ID>
28287723

>  <DOI>
10.1021/acs.jmedchem.6b01851

$$$$
2015915
Actelion Java MolfileCreator 1.0

 35 39  0  0  0  0  0  0  0  0999 V2000
    0.0000   -0.0000   -0.0000 S   0  0  0  0  0  0  0  0  0  0  0  0
   -0.0121   -1.2213   -0.0000 O   0  0  0  0  0  0  0  0  0  0  0  0
   -1.0762   -0.6046   -0.0000 O   0  0  0  0  0  0  0  0  0  0  0  0
   -1.3422    0.7739   -0.0000 N   0  0  0  0  0  0  0  0  0  0  0  0
    1.3180    0.7860   -0.0000 C   0  0  0  0  0  0  0  0  0  0  0  0
   -2.6844    0.0121   -0.0000 C   0  0  0  0  0  0  0  0  0  0  0  0
    1.3059    2.3337   -0.0000 C   0  0  0  0  0  0  0  0  0  0  0  0
    2.6360    0.0363   -0.0000 C   0  0  0  0  0  0  0  0  0  0  0  0
   -2.6965   -1.5115   -0.0000 N   0  0  0  0  0  0  0  0  0  0  0  0
   -4.0266    0.7860   -0.0000 C   0  0  0  0  0  0  0  0  0  0  0  0
    2.6239    3.1076   -0.0000 C   0  0  0  0  0  0  0  0  0  0  0  0
    3.9540    0.8102   -0.0000 C   0  0  0  0  0  0  0  0  0  0  0  0
   -4.0387   -2.2733   -0.0000 C   0  0  0  0  0  0  0  0  0  0  0  0
   -5.3688    0.0242   -0.0000 C   0  0  0  0  0  0  0  0  0  0  0  0
    3.9419    2.3579   -0.0000 C   0  0  0  0  0  0  0  0  0  0  0  0
    2.6118    4.6554   -0.0000 C   0  0  0  0  0  0  0  0  0  0  0  0
   -5.3809   -1.4994   -0.0000 N   0  0  0  0  0  0  0  0  0  0  0  0
    5.2600    3.1318   -0.0000 C   0  0  0  0  0  0  0  0  0  0  0  0
    3.9299    5.4292   -0.0000 C   0  0  0  0  0  0  0  0  0  0  0  0
    5.2479    4.6795   -0.0000 N   0  0  0  0  0  0  0  0  0  0  0  0
    6.5780    2.3821   -0.0000 C   0  0  0  0  0  0  0  0  0  0  0  0
    7.8960    3.1560   -0.0000 C   0  0  0  0  0  0  0  0  0  0  0  0
    6.5659    0.8585   -0.0000 C   0  0  0  0  0  0  0  0  0  0  0  0
    7.8839    4.7037   -0.0000 O   0  0  0  0  0  0  0  0  0  0  0  0
    9.2140    2.3942   -0.0000 C   0  0  0  0  0  0  0  0  0  0  0  0
    7.8839    0.0967   -0.0000 C   0  0  0  0  0  0  0  0  0  0  0  0
    8.9359    5.3325   -0.0000 C   0  0  0  0  0  0  0  0  0  0  0  0
    9.2019    0.8706   -0.0000 C   0  0  0  0  0  0  0  0  0  0  0  0
   10.5199    0.1088   -0.0000 C   0  0  0  0  0  0  0  0  0  0  0  0
   10.5078   -1.4147   -0.0000 C   0  0  0  0  0  0  0  0  0  0  0  0
   11.8379    0.8827   -0.0000 C   0  0  0  0  0  0  0  0  0  0  0  0
   11.8258   -2.1765   -0.0000 C   0  0  0  0  0  0  0  0  0  0  0  0
   13.1559    0.1209   -0.0000 C   0  0  0  0  0  0  0  0  0  0  0  0
   11.8137   -3.3978   -0.0000 F   0  0  0  0  0  0  0  0  0  0  0  0
   13.1438   -1.4027   -0.0000 C   0  0  0  0  0  0  0  0  0  0  0  0
  1  2  2  0  0  0  0
  1  3  2  0  0  0  0
  1  4  1  0  0  0  0
  1  5  1  0  0  0  0
  4  6  1  0  0  0  0
  5  7  2  0  0  0  0
  5  8  1  0  0  0  0
  6  9  2  0  0  0  0
  6 10  1  0  0  0  0
  7 11  1  0  0  0  0
  8 12  2  0  0  0  0
  9 13  1  0  0  0  0
 10 14  2  0  0  0  0
 11 15  1  0  0  0  0
 11 16  2  0  0  0  0
 13 17  2  0  0  0  0
 15 18  2  0  0  0  0
 16 19  1  0  0  0  0
 18 20  1  0  0  0  0
 18 21  1  0  0  0  0
 21 22  2  0  0  0  0
 21 23  1  0  0  0  0
 22 24  1  0  0  0  0
 22 25  1  0  0  0  0
 23 26  2  0  0  0  0
 24 27  1  0  0  0  0
 25 28  2  0  0  0  0
 28 29  1  0  0  0  0
 29 30  2  0  0  0  0
 29 31  1  0  0  0  0
 30 32  1  0  0  0  0
 31 33  2  0  0  0  0
 32 34  1  0  0  0  0
 32 35  2  0  0  0  0
 12 15  1  0  0  0  0
 14 17  1  0  0  0  0
 19 20  2  0  0  0  0
 26 28  1  0  0  0  0
 33 35  1  0  0  0  0
M  END
>  <MolRegNo>
2015915

>  <m>
=

>  <Value>
1300

>  <Unit>
nM

>  <Type>
IC50

>  <pValue>
5.89

>  <Ligand Efficiency>
0

>  <Binding Efficiency>
0

>  <Surface Efficiency>
0

>  <Assay Index>
1080100

>  <Assay Category>


>  <Assay Organism>
Homo sapiens

>  <Target ID>
17045

>  <Target Name>
Cytochrome P450 3A4

>  <Target Organism>
Homo sapiens

>  <Target Description>
Target is a single protein chain

>  <Sequence Accession>
P08684

>  <Reference>
J Med Chem 60 (14), 5969-5989 (2017)

>  <Pubmed ID>
28287723

>  <DOI>
10.1021/acs.jmedchem.6b01851

$$$$
2158971
Actelion Java MolfileCreator 1.0

 38 42  0  0  0  0  0  0  0  0999 V2000
    0.0000   -0.0000   -0.0000 S   0  0  0  0  0  0  0  0  0  0  0  0
   -0.0123   -1.2390   -0.0000 O   0  0  0  0  0  0  0  0  0  0  0  0
   -1.0918   -0.6134   -0.0000 O   0  0  0  0  0  0  0  0  0  0  0  0
   -1.3617    0.7851   -0.0000 N   0  0  0  0  0  0  0  0  0  0  0  0
    1.3371    0.7851   -0.0000 C   0  0  0  0  0  0  0  0  0  0  0  0
   -2.7234    0.0245   -0.0000 C   0  0  0  0  0  0  0  0  0  0  0  0
    1.3249    2.3553   -0.0000 C   0  0  0  0  0  0  0  0  0  0  0  0
    2.6743    0.0245   -0.0000 C   0  0  0  0  0  0  0  0  0  0  0  0
   -2.8706   -1.4966   -0.0000 N   0  0  0  0  0  0  0  0  0  0  0  0
   -4.1341    0.6747   -0.0000 C   0  0  0  0  0  0  0  0  0  0  0  0
    2.6620    3.1405   -0.0000 C   0  0  0  0  0  0  0  0  0  0  0  0
    4.0114    0.8097   -0.0000 C   0  0  0  0  0  0  0  0  0  0  0  0
   -4.4040   -1.8156   -0.0000 O   0  0  0  0  0  0  0  0  0  0  0  0
   -5.1891   -0.4662   -0.0000 C   0  0  0  0  0  0  0  0  0  0  0  0
    3.9992    2.3799   -0.0000 C   0  0  0  0  0  0  0  0  0  0  0  0
    2.6498    4.7107   -0.0000 C   0  0  0  0  0  0  0  0  0  0  0  0
    5.3363    3.1650   -0.0000 N   0  0  0  0  0  0  0  0  0  0  0  0
    3.9869    5.4958   -0.0000 C   0  0  0  0  0  0  0  0  0  0  0  0
    5.3241    4.7352   -0.0000 C   0  0  0  0  0  0  0  0  0  0  0  0
    6.6735    2.4044   -0.0000 C   0  0  0  0  0  0  0  0  0  0  0  0
    6.3913    5.3731   -0.0000 O   0  0  0  0  0  0  0  0  0  0  0  0
    8.0106    3.1895   -0.0000 C   0  0  0  0  0  0  0  0  0  0  0  0
    6.6612    0.8587   -0.0000 C   0  0  0  0  0  0  0  0  0  0  0  0
    7.9984    4.7598   -0.0000 O   0  0  0  0  0  0  0  0  0  0  0  0
    9.3478    2.4167   -0.0000 C   0  0  0  0  0  0  0  0  0  0  0  0
    7.9984    0.0859   -0.0000 C   0  0  0  0  0  0  0  0  0  0  0  0
    9.0656    5.3977   -0.0000 C   0  0  0  0  0  0  0  0  0  0  0  0
    9.3355    0.8710   -0.0000 C   0  0  0  0  0  0  0  0  0  0  0  0
   10.6727    0.0981   -0.0000 C   0  0  0  0  0  0  0  0  0  0  0  0
   10.6604   -1.4476   -0.0000 C   0  0  0  0  0  0  0  0  0  0  0  0
   12.0098    0.8833   -0.0000 C   0  0  0  0  0  0  0  0  0  0  0  0
   11.9975   -2.2204   -0.0000 C   0  0  0  0  0  0  0  0  0  0  0  0
   13.3470    0.1104   -0.0000 C   0  0  0  0  0  0  0  0  0  0  0  0
   13.3347   -1.4353   -0.0000 C   0  0  0  0  0  0  0  0  0  0  0  0
   11.9853   -3.7661   -0.0000 C   0  0  0  0  0  0  0  0  0  0  0  0
   13.0525   -4.3795   -0.0000 F   0  0  0  0  0  0  0  0  0  0  0  0
   10.8935   -4.3672   -0.0000 F   0  0  0  0  0  0  0  0  0  0  0  0
   11.9730   -5.0051   -0.0000 F   0  0  0  0  0  0  0  0  0  0  0  0
  1  2  2  0  0  0  0
  1  3  2  0  0  0  0
  1  4  1  0  0  0  0
  1  5  1  0  0  0  0
  4  6  1  0  0  0  0
  5  7  2  0  0  0  0
  5  8  1  0  0  0  0
  6  9  2  0  0  0  0
  6 10  1  0  0  0  0
  7 11  1  0  0  0  0
  8 12  2  0  0  0  0
  9 13  1  0  0  0  0
 10 14  2  0  0  0  0
 11 15  2  0  0  0  0
 11 16  1  0  0  0  0
 15 17  1  0  0  0  0
 16 18  2  0  0  0  0
 17 19  1  0  0  0  0
 17 20  1  0  0  0  0
 19 21  2  0  0  0  0
 20 22  2  0  0  0  0
 20 23  1  0  0  0  0
 22 24  1  0  0  0  0
 22 25  1  0  0  0  0
 23 26  2  0  0  0  0
 24 27  1  0  0  0  0
 25 28  2  0  0  0  0
 28 29  1  0  0  0  0
 29 30  2  0  0  0  0
 29 31  1  0  0  0  0
 30 32  1  0  0  0  0
 31 33  2  0  0  0  0
 32 34  2  0  0  0  0
 32 35  1  0  0  0  0
 35 36  1  0  0  0  0
 35 37  1  0  0  0  0
 35 38  1  0  0  0  0
 12 15  1  0  0  0  0
 13 14  1  0  0  0  0
 18 19  1  0  0  0  0
 26 28  1  0  0  0  0
 33 34  1  0  0  0  0
M  END
>  <MolRegNo>
2158971

>  <m>
=

>  <Value>
45000

>  <Unit>
nM

>  <Type>
IC50

>  <pValue>
4.35

>  <Ligand Efficiency>
0

>  <Binding Efficiency>
0

>  <Surface Efficiency>
0

>  <Assay Index>
1080221

>  <Assay Category>


>  <Assay Organism>
Homo sapiens

>  <Target ID>
17045

>  <Target Name>
Cytochrome P450 3A4

>  <Target Organism>
Homo sapiens

>  <Target Description>
Target is a single protein chain

>  <Sequence Accession>
P08684

>  <Reference>
J Med Chem 60 (14), 5990-6017 (2017)

>  <Pubmed ID>
28324649

>  <DOI>
10.1021/acs.jmedchem.6b01850

$$$$
2158845
Actelion Java MolfileCreator 1.0

 39 43  0  0  0  0  0  0  0  0999 V2000
    0.0000   -0.0000   -0.0000 S   0  0  0  0  0  0  0  0  0  0  0  0
   -0.0123   -1.2435   -0.0000 O   0  0  0  0  0  0  0  0  0  0  0  0
   -1.0957   -0.6156   -0.0000 O   0  0  0  0  0  0  0  0  0  0  0  0
   -1.3666    0.7879   -0.0000 N   0  0  0  0  0  0  0  0  0  0  0  0
    1.3419    0.7879   -0.0000 C   0  0  0  0  0  0  0  0  0  0  0  0
   -2.7331    0.0246   -0.0000 C   0  0  0  0  0  0  0  0  0  0  0  0
    1.3296    2.3638   -0.0000 C   0  0  0  0  0  0  0  0  0  0  0  0
    2.6839    0.0246   -0.0000 C   0  0  0  0  0  0  0  0  0  0  0  0
   -2.8809   -1.5020   -0.0000 N   0  0  0  0  0  0  0  0  0  0  0  0
   -4.1489    0.6771   -0.0000 C   0  0  0  0  0  0  0  0  0  0  0  0
    2.6716    3.1517   -0.0000 C   0  0  0  0  0  0  0  0  0  0  0  0
    4.0258    0.8126   -0.0000 C   0  0  0  0  0  0  0  0  0  0  0  0
   -4.4198   -1.8221   -0.0000 O   0  0  0  0  0  0  0  0  0  0  0  0
   -5.2077   -0.4678   -0.0000 C   0  0  0  0  0  0  0  0  0  0  0  0
    4.0135    2.3884   -0.0000 C   0  0  0  0  0  0  0  0  0  0  0  0
    2.6593    4.7276   -0.0000 C   0  0  0  0  0  0  0  0  0  0  0  0
    5.3555    3.1763   -0.0000 N   0  0  0  0  0  0  0  0  0  0  0  0
    4.0012    5.5155   -0.0000 C   0  0  0  0  0  0  0  0  0  0  0  0
    5.3432    4.7522   -0.0000 C   0  0  0  0  0  0  0  0  0  0  0  0
    6.6974    2.4130   -0.0000 C   0  0  0  0  0  0  0  0  0  0  0  0
    6.4142    5.3924   -0.0000 O   0  0  0  0  0  0  0  0  0  0  0  0
    8.0394    3.2010   -0.0000 C   0  0  0  0  0  0  0  0  0  0  0  0
    6.6851    0.8618   -0.0000 C   0  0  0  0  0  0  0  0  0  0  0  0
    8.0270    4.7768   -0.0000 O   0  0  0  0  0  0  0  0  0  0  0  0
    9.3813    2.4253   -0.0000 C   0  0  0  0  0  0  0  0  0  0  0  0
    8.0270    0.0862   -0.0000 C   0  0  0  0  0  0  0  0  0  0  0  0
    9.0981    5.4170   -0.0000 C   0  0  0  0  0  0  0  0  0  0  0  0
    9.3690    0.8741   -0.0000 C   0  0  0  0  0  0  0  0  0  0  0  0
   10.7109    0.0985   -0.0000 C   0  0  0  0  0  0  0  0  0  0  0  0
   12.0529    0.8864   -0.0000 C   0  0  0  0  0  0  0  0  0  0  0  0
   10.6986   -1.4527   -0.0000 C   0  0  0  0  0  0  0  0  0  0  0  0
   13.3948    0.1108   -0.0000 C   0  0  0  0  0  0  0  0  0  0  0  0
   12.0406    2.1545   -0.0000 C   0  0  0  0  0  0  0  0  0  0  0  0
   12.0406   -2.2284   -0.0000 C   0  0  0  0  0  0  0  0  0  0  0  0
   13.3825   -1.4404   -0.0000 C   0  0  0  0  0  0  0  0  0  0  0  0
   12.0282   -3.7796   -0.0000 C   0  0  0  0  0  0  0  0  0  0  0  0
   10.9325   -4.3952   -0.0000 F   0  0  0  0  0  0  0  0  0  0  0  0
   13.0993   -4.3952   -0.0000 F   0  0  0  0  0  0  0  0  0  0  0  0
   12.0159   -5.0231   -0.0000 F   0  0  0  0  0  0  0  0  0  0  0  0
  1  2  2  0  0  0  0
  1  3  2  0  0  0  0
  1  4  1  0  0  0  0
  1  5  1  0  0  0  0
  4  6  1  0  0  0  0
  5  7  2  0  0  0  0
  5  8  1  0  0  0  0
  6  9  2  0  0  0  0
  6 10  1  0  0  0  0
  7 11  1  0  0  0  0
  8 12  2  0  0  0  0
  9 13  1  0  0  0  0
 10 14  2  0  0  0  0
 11 15  2  0  0  0  0
 11 16  1  0  0  0  0
 15 17  1  0  0  0  0
 16 18  2  0  0  0  0
 17 19  1  0  0  0  0
 17 20  1  0  0  0  0
 19 21  2  0  0  0  0
 20 22  2  0  0  0  0
 20 23  1  0  0  0  0
 22 24  1  0  0  0  0
 22 25  1  0  0  0  0
 23 26  2  0  0  0  0
 24 27  1  0  0  0  0
 25 28  2  0  0  0  0
 28 29  1  0  0  0  0
 29 30  2  0  0  0  0
 29 31  1  0  0  0  0
 30 32  1  0  0  0  0
 30 33  1  0  0  0  0
 31 34  2  0  0  0  0
 32 35  2  0  0  0  0
 34 36  1  0  0  0  0
 36 37  1  0  0  0  0
 36 38  1  0  0  0  0
 36 39  1  0  0  0  0
 12 15  1  0  0  0  0
 13 14  1  0  0  0  0
 18 19  1  0  0  0  0
 26 28  1  0  0  0  0
 34 35  1  0  0  0  0
M  END
>  <MolRegNo>
2158845

>  <m>
=

>  <Value>
2200

>  <Unit>
nM

>  <Type>
IC50

>  <pValue>
5.66

>  <Ligand Efficiency>
0

>  <Binding Efficiency>
0

>  <Surface Efficiency>
0

>  <Assay Index>
1080221

>  <Assay Category>


>  <Assay Organism>
Homo sapiens

>  <Target ID>
17045

>  <Target Name>
Cytochrome P450 3A4

>  <Target Organism>
Homo sapiens

>  <Target Description>
Target is a single protein chain

>  <Sequence Accession>
P08684

>  <Reference>
J Med Chem 60 (14), 5990-6017 (2017)

>  <Pubmed ID>
28324649

>  <DOI>
10.1021/acs.jmedchem.6b01850

$$$$
2165934
Actelion Java MolfileCreator 1.0

 39 43  0  0  0  0  0  0  0  0999 V2000
    0.0000   -0.0000   -0.0000 S   0  0  0  0  0  0  0  0  0  0  0  0
   -0.0123   -1.2440   -0.0000 O   0  0  0  0  0  0  0  0  0  0  0  0
   -1.0962   -0.6159   -0.0000 O   0  0  0  0  0  0  0  0  0  0  0  0
   -1.3672    0.7883   -0.0000 N   0  0  0  0  0  0  0  0  0  0  0  0
    1.3426    0.7883   -0.0000 C   0  0  0  0  0  0  0  0  0  0  0  0
   -2.7344    0.0246   -0.0000 C   0  0  0  0  0  0  0  0  0  0  0  0
    1.3303    2.3649   -0.0000 C   0  0  0  0  0  0  0  0  0  0  0  0
    2.6852    0.0246   -0.0000 C   0  0  0  0  0  0  0  0  0  0  0  0
   -2.8822   -1.5027   -0.0000 N   0  0  0  0  0  0  0  0  0  0  0  0
   -4.1509    0.6774   -0.0000 C   0  0  0  0  0  0  0  0  0  0  0  0
    2.6728    3.1532   -0.0000 C   0  0  0  0  0  0  0  0  0  0  0  0
    4.0277    0.8129   -0.0000 C   0  0  0  0  0  0  0  0  0  0  0  0
   -4.4219   -1.8230   -0.0000 O   0  0  0  0  0  0  0  0  0  0  0  0
   -5.2102   -0.4681   -0.0000 C   0  0  0  0  0  0  0  0  0  0  0  0
    4.0154    2.3895   -0.0000 C   0  0  0  0  0  0  0  0  0  0  0  0
    2.6605    4.7298   -0.0000 C   0  0  0  0  0  0  0  0  0  0  0  0
    5.3580    3.1779   -0.0000 N   0  0  0  0  0  0  0  0  0  0  0  0
    4.0031    5.5181   -0.0000 C   0  0  0  0  0  0  0  0  0  0  0  0
    5.3457    4.7545   -0.0000 C   0  0  0  0  0  0  0  0  0  0  0  0
    6.7006    2.4142   -0.0000 C   0  0  0  0  0  0  0  0  0  0  0  0
    6.4173    5.3950   -0.0000 O   0  0  0  0  0  0  0  0  0  0  0  0
    8.0432    3.2025   -0.0000 C   0  0  0  0  0  0  0  0  0  0  0  0
    6.6883    0.8622   -0.0000 C   0  0  0  0  0  0  0  0  0  0  0  0
    8.0308    4.7791   -0.0000 O   0  0  0  0  0  0  0  0  0  0  0  0
    9.3857    2.4265   -0.0000 C   0  0  0  0  0  0  0  0  0  0  0  0
    8.0308    0.0862   -0.0000 C   0  0  0  0  0  0  0  0  0  0  0  0
    9.1025    5.4196   -0.0000 C   0  0  0  0  0  0  0  0  0  0  0  0
    9.3734    0.8745   -0.0000 C   0  0  0  0  0  0  0  0  0  0  0  0
    8.0185   -1.1578   -0.0000 C   0  0  0  0  0  0  0  0  0  0  0  0
   10.7160    0.0985   -0.0000 C   0  0  0  0  0  0  0  0  0  0  0  0
   10.7037   -1.4534   -0.0000 C   0  0  0  0  0  0  0  0  0  0  0  0
   12.0586    0.8868   -0.0000 C   0  0  0  0  0  0  0  0  0  0  0  0
   12.0463   -2.2294   -0.0000 C   0  0  0  0  0  0  0  0  0  0  0  0
   13.4012    0.1109   -0.0000 C   0  0  0  0  0  0  0  0  0  0  0  0
   13.3889   -1.4411   -0.0000 C   0  0  0  0  0  0  0  0  0  0  0  0
   12.0340   -3.7814   -0.0000 C   0  0  0  0  0  0  0  0  0  0  0  0
   13.1056   -4.3973   -0.0000 F   0  0  0  0  0  0  0  0  0  0  0  0
   10.9377   -4.3849   -0.0000 F   0  0  0  0  0  0  0  0  0  0  0  0
   12.0216   -5.0254   -0.0000 F   0  0  0  0  0  0  0  0  0  0  0  0
  1  2  2  0  0  0  0
  1  3  2  0  0  0  0
  1  4  1  0  0  0  0
  1  5  1  0  0  0  0
  4  6  1  0  0  0  0
  5  7  2  0  0  0  0
  5  8  1  0  0  0  0
  6  9  2  0  0  0  0
  6 10  1  0  0  0  0
  7 11  1  0  0  0  0
  8 12  2  0  0  0  0
  9 13  1  0  0  0  0
 10 14  2  0  0  0  0
 11 15  2  0  0  0  0
 11 16  1  0  0  0  0
 15 17  1  0  0  0  0
 16 18  2  0  0  0  0
 17 19  1  0  0  0  0
 17 20  1  0  0  0  0
 19 21  2  0  0  0  0
 20 22  2  0  0  0  0
 20 23  1  0  0  0  0
 22 24  1  0  0  0  0
 22 25  1  0  0  0  0
 23 26  2  0  0  0  0
 24 27  1  0  0  0  0
 25 28  2  0  0  0  0
 26 29  1  0  0  0  0
 28 30  1  0  0  0  0
 30 31  2  0  0  0  0
 30 32  1  0  0  0  0
 31 33  1  0  0  0  0
 32 34  2  0  0  0  0
 33 35  2  0  0  0  0
 33 36  1  0  0  0  0
 36 37  1  0  0  0  0
 36 38  1  0  0  0  0
 36 39  1  0  0  0  0
 12 15  1  0  0  0  0
 13 14  1  0  0  0  0
 18 19  1  0  0  0  0
 26 28  1  0  0  0  0
 34 35  1  0  0  0  0
M  END
>  <MolRegNo>
2165934

>  <m>
=

>  <Value>
2800

>  <Unit>
nM

>  <Type>
IC50

>  <pValue>
5.55

>  <Ligand Efficiency>
0

>  <Binding Efficiency>
0

>  <Surface Efficiency>
0

>  <Assay Index>
1080221

>  <Assay Category>


>  <Assay Organism>
Homo sapiens

>  <Target ID>
17045

>  <Target Name>
Cytochrome P450 3A4

>  <Target Organism>
Homo sapiens

>  <Target Description>
Target is a single protein chain

>  <Sequence Accession>
P08684

>  <Reference>
J Med Chem 60 (14), 5990-6017 (2017)

>  <Pubmed ID>
28324649

>  <DOI>
10.1021/acs.jmedchem.6b01850

$$$$
2163031
Actelion Java MolfileCreator 1.0

 38 42  0  0  0  0  0  0  0  0999 V2000
    0.0000   -0.0000   -0.0000 Cl  0  0  0  0  0  0  0  0  0  0  0  0
   -1.0827    0.6326   -0.0000 C   0  0  0  0  0  0  0  0  0  0  0  0
   -2.4331   -0.1217   -0.0000 C   0  0  0  0  0  0  0  0  0  0  0  0
   -1.0949    2.1898   -0.0000 C   0  0  0  0  0  0  0  0  0  0  0  0
   -3.7834    0.6691   -0.0000 C   0  0  0  0  0  0  0  0  0  0  0  0
   -2.4452   -1.3504   -0.0000 C   0  0  0  0  0  0  0  0  0  0  0  0
   -2.4452    2.9805   -0.0000 C   0  0  0  0  0  0  0  0  0  0  0  0
   -3.7956    2.2263   -0.0000 C   0  0  0  0  0  0  0  0  0  0  0  0
   -5.1459    3.0170   -0.0000 C   0  0  0  0  0  0  0  0  0  0  0  0
   -6.4963    2.2628   -0.0000 C   0  0  0  0  0  0  0  0  0  0  0  0
   -5.1581    4.5742   -0.0000 C   0  0  0  0  0  0  0  0  0  0  0  0
   -6.5085    1.0341   -0.0000 F   0  0  0  0  0  0  0  0  0  0  0  0
   -7.8466    3.0535   -0.0000 C   0  0  0  0  0  0  0  0  0  0  0  0
   -6.5085    5.3649   -0.0000 C   0  0  0  0  0  0  0  0  0  0  0  0
   -7.8588    4.6107   -0.0000 C   0  0  0  0  0  0  0  0  0  0  0  0
   -6.5206    6.9221   -0.0000 O   0  0  0  0  0  0  0  0  0  0  0  0
   -9.2092    5.3892   -0.0000 N   0  0  0  0  0  0  0  0  0  0  0  0
   -5.4622    7.5547   -0.0000 C   0  0  0  0  0  0  0  0  0  0  0  0
   -9.2213    6.9464   -0.0000 C   0  0  0  0  0  0  0  0  0  0  0  0
  -10.5595    4.6350   -0.0000 C   0  0  0  0  0  0  0  0  0  0  0  0
   -8.1629    7.5790   -0.0000 O   0  0  0  0  0  0  0  0  0  0  0  0
  -10.5717    7.7250   -0.0000 C   0  0  0  0  0  0  0  0  0  0  0  0
  -11.9099    5.4136   -0.0000 C   0  0  0  0  0  0  0  0  0  0  0  0
  -10.5717    3.1022   -0.0000 C   0  0  0  0  0  0  0  0  0  0  0  0
  -11.9220    6.9707   -0.0000 C   0  0  0  0  0  0  0  0  0  0  0  0
  -13.2602    4.6593   -0.0000 C   0  0  0  0  0  0  0  0  0  0  0  0
  -11.9220    2.3479   -0.0000 C   0  0  0  0  0  0  0  0  0  0  0  0
  -13.2724    3.1265   -0.0000 C   0  0  0  0  0  0  0  0  0  0  0  0
  -14.6227    2.3601   -0.0000 S   0  0  0  0  0  0  0  0  0  0  0  0
  -14.6349    1.1314   -0.0000 O   0  0  0  0  0  0  0  0  0  0  0  0
  -15.7054    1.7518   -0.0000 O   0  0  0  0  0  0  0  0  0  0  0  0
  -15.9731    3.1387   -0.0000 N   0  0  0  0  0  0  0  0  0  0  0  0
  -17.3234    2.3722   -0.0000 C   0  0  0  0  0  0  0  0  0  0  0  0
  -17.3356    0.8394   -0.0000 N   0  0  0  0  0  0  0  0  0  0  0  0
  -18.6738    3.1508   -0.0000 C   0  0  0  0  0  0  0  0  0  0  0  0
  -18.6859    0.0730   -0.0000 C   0  0  0  0  0  0  0  0  0  0  0  0
  -20.0241    2.3844   -0.0000 N   0  0  0  0  0  0  0  0  0  0  0  0
  -20.0363    0.8516   -0.0000 C   0  0  0  0  0  0  0  0  0  0  0  0
  1  2  1  0  0  0  0
  2  3  2  0  0  0  0
  2  4  1  0  0  0  0
  3  5  1  0  0  0  0
  3  6  1  0  0  0  0
  4  7  2  0  0  0  0
  5  8  2  0  0  0  0
  8  9  1  0  0  0  0
  9 10  2  0  0  0  0
  9 11  1  0  0  0  0
 10 12  1  0  0  0  0
 10 13  1  0  0  0  0
 11 14  2  0  0  0  0
 13 15  2  0  0  0  0
 14 16  1  0  0  0  0
 15 17  1  0  0  0  0
 16 18  1  0  0  0  0
 17 19  1  0  0  0  0
 17 20  1  0  0  0  0
 19 21  2  0  0  0  0
 19 22  1  0  0  0  0
 20 23  2  0  0  0  0
 20 24  1  0  0  0  0
 22 25  2  0  0  0  0
 23 26  1  0  0  0  0
 24 27  2  0  0  0  0
 26 28  2  0  0  0  0
 28 29  1  0  0  0  0
 29 30  2  0  0  0  0
 29 31  2  0  0  0  0
 29 32  1  0  0  0  0
 32 33  1  0  0  0  0
 33 34  2  0  0  0  0
 33 35  1  0  0  0  0
 34 36  1  0  0  0  0
 35 37  2  0  0  0  0
 36 38  2  0  0  0  0
  7  8  1  0  0  0  0
 14 15  1  0  0  0  0
 23 25  1  0  0  0  0
 27 28  1  0  0  0  0
 37 38  1  0  0  0  0
M  END
>  <MolRegNo>
2163031

>  <m>
=

>  <Value>
4600

>  <Unit>
nM

>  <Type>
IC50

>  <pValue>
5.34

>  <Ligand Efficiency>
0

>  <Binding Efficiency>
0

>  <Surface Efficiency>
0

>  <Assay Index>
1080221

>  <Assay Category>


>  <Assay Organism>
Homo sapiens

>  <Target ID>
17045

>  <Target Name>
Cytochrome P450 3A4

>  <Target Organism>
Homo sapiens

>  <Target Description>
Target is a single protein chain

>  <Sequence Accession>
P08684

>  <Reference>
J Med Chem 60 (14), 5990-6017 (2017)

>  <Pubmed ID>
28324649

>  <DOI>
10.1021/acs.jmedchem.6b01850

$$$$
2151098
Actelion Java MolfileCreator 1.0

 38 42  0  0  0  0  0  0  0  0999 V2000
    0.0000   -0.0000   -0.0000 Cl  0  0  0  0  0  0  0  0  0  0  0  0
   -1.0827    0.6326   -0.0000 C   0  0  0  0  0  0  0  0  0  0  0  0
   -2.4331   -0.1217   -0.0000 C   0  0  0  0  0  0  0  0  0  0  0  0
   -1.0949    2.1898   -0.0000 C   0  0  0  0  0  0  0  0  0  0  0  0
   -3.7834    0.6691   -0.0000 C   0  0  0  0  0  0  0  0  0  0  0  0
   -2.4452   -1.3504   -0.0000 C   0  0  0  0  0  0  0  0  0  0  0  0
   -2.4452    2.9805   -0.0000 C   0  0  0  0  0  0  0  0  0  0  0  0
   -3.7956    2.2263   -0.0000 C   0  0  0  0  0  0  0  0  0  0  0  0
   -5.1459    3.0170   -0.0000 C   0  0  0  0  0  0  0  0  0  0  0  0
   -6.4963    2.2628   -0.0000 C   0  0  0  0  0  0  0  0  0  0  0  0
   -5.1581    4.5742   -0.0000 C   0  0  0  0  0  0  0  0  0  0  0  0
   -6.5085    1.0341   -0.0000 F   0  0  0  0  0  0  0  0  0  0  0  0
   -7.8466    3.0535   -0.0000 C   0  0  0  0  0  0  0  0  0  0  0  0
   -6.5085    5.3649   -0.0000 C   0  0  0  0  0  0  0  0  0  0  0  0
   -7.8588    4.6107   -0.0000 C   0  0  0  0  0  0  0  0  0  0  0  0
   -6.5206    6.9221   -0.0000 O   0  0  0  0  0  0  0  0  0  0  0  0
   -9.2092    5.3892   -0.0000 N   0  0  0  0  0  0  0  0  0  0  0  0
   -5.4622    7.5547   -0.0000 C   0  0  0  0  0  0  0  0  0  0  0  0
   -9.2213    6.9464   -0.0000 C   0  0  0  0  0  0  0  0  0  0  0  0
  -10.5595    4.6350   -0.0000 C   0  0  0  0  0  0  0  0  0  0  0  0
   -8.1629    7.5790   -0.0000 O   0  0  0  0  0  0  0  0  0  0  0  0
  -10.5717    7.7250   -0.0000 C   0  0  0  0  0  0  0  0  0  0  0  0
  -11.9099    5.4136   -0.0000 C   0  0  0  0  0  0  0  0  0  0  0  0
  -10.5717    3.1022   -0.0000 C   0  0  0  0  0  0  0  0  0  0  0  0
  -11.9220    6.9707   -0.0000 C   0  0  0  0  0  0  0  0  0  0  0  0
  -13.2602    4.6593   -0.0000 C   0  0  0  0  0  0  0  0  0  0  0  0
  -11.9220    2.3479   -0.0000 C   0  0  0  0  0  0  0  0  0  0  0  0
  -13.2724    3.1265   -0.0000 C   0  0  0  0  0  0  0  0  0  0  0  0
  -14.6227    2.3601   -0.0000 S   0  0  0  0  0  0  0  0  0  0  0  0
  -14.6349    1.1314   -0.0000 O   0  0  0  0  0  0  0  0  0  0  0  0
  -15.7054    1.7518   -0.0000 O   0  0  0  0  0  0  0  0  0  0  0  0
  -15.9731    3.1387   -0.0000 N   0  0  0  0  0  0  0  0  0  0  0  0
  -17.3234    2.3722   -0.0000 C   0  0  0  0  0  0  0  0  0  0  0  0
  -18.6738    3.1508   -0.0000 N   0  0  0  0  0  0  0  0  0  0  0  0
  -17.3356    0.8394   -0.0000 N   0  0  0  0  0  0  0  0  0  0  0  0
  -20.0241    2.3844   -0.0000 C   0  0  0  0  0  0  0  0  0  0  0  0
  -18.6859    0.0730   -0.0000 C   0  0  0  0  0  0  0  0  0  0  0  0
  -20.0363    0.8516   -0.0000 C   0  0  0  0  0  0  0  0  0  0  0  0
  1  2  1  0  0  0  0
  2  3  2  0  0  0  0
  2  4  1  0  0  0  0
  3  5  1  0  0  0  0
  3  6  1  0  0  0  0
  4  7  2  0  0  0  0
  5  8  2  0  0  0  0
  8  9  1  0  0  0  0
  9 10  2  0  0  0  0
  9 11  1  0  0  0  0
 10 12  1  0  0  0  0
 10 13  1  0  0  0  0
 11 14  2  0  0  0  0
 13 15  2  0  0  0  0
 14 16  1  0  0  0  0
 15 17  1  0  0  0  0
 16 18  1  0  0  0  0
 17 19  1  0  0  0  0
 17 20  1  0  0  0  0
 19 21  2  0  0  0  0
 19 22  1  0  0  0  0
 20 23  2  0  0  0  0
 20 24  1  0  0  0  0
 22 25  2  0  0  0  0
 23 26  1  0  0  0  0
 24 27  2  0  0  0  0
 26 28  2  0  0  0  0
 28 29  1  0  0  0  0
 29 30  2  0  0  0  0
 29 31  2  0  0  0  0
 29 32  1  0  0  0  0
 32 33  1  0  0  0  0
 33 34  2  0  0  0  0
 33 35  1  0  0  0  0
 34 36  1  0  0  0  0
 35 37  2  0  0  0  0
 36 38  2  0  0  0  0
  7  8  1  0  0  0  0
 14 15  1  0  0  0  0
 23 25  1  0  0  0  0
 27 28  1  0  0  0  0
 37 38  1  0  0  0  0
M  END
>  <MolRegNo>
2151098

>  <m>
=

>  <Value>
32000

>  <Unit>
nM

>  <Type>
IC50

>  <pValue>
4.5

>  <Ligand Efficiency>
0

>  <Binding Efficiency>
0

>  <Surface Efficiency>
0

>  <Assay Index>
1080221

>  <Assay Category>


>  <Assay Organism>
Homo sapiens

>  <Target ID>
17045

>  <Target Name>
Cytochrome P450 3A4

>  <Target Organism>
Homo sapiens

>  <Target Description>
Target is a single protein chain

>  <Sequence Accession>
P08684

>  <Reference>
J Med Chem 60 (14), 5990-6017 (2017)

>  <Pubmed ID>
28324649

>  <DOI>
10.1021/acs.jmedchem.6b01850

$$$$
2224682
Actelion Java MolfileCreator 1.0

 25 28  0  0  0  0  0  0  0  0999 V2000
    0.0000   -0.0000   -0.0000 Cl  0  0  0  0  0  0  0  0  0  0  0  0
    1.2985   -0.7267   -0.0000 C   0  0  0  0  0  0  0  0  0  0  0  0
    1.2985   -2.2158   -0.0000 C   0  0  0  0  0  0  0  0  0  0  0  0
    2.5851    0.0477   -0.0000 C   0  0  0  0  0  0  0  0  0  0  0  0
    2.5970   -2.9424   -0.0000 C   0  0  0  0  0  0  0  0  0  0  0  0
    3.8835   -0.6909   -0.0000 C   0  0  0  0  0  0  0  0  0  0  0  0
    3.8835   -2.1800   -0.0000 C   0  0  0  0  0  0  0  0  0  0  0  0
    2.5970   -4.4315   -0.0000 C   0  0  0  0  0  0  0  0  0  0  0  0
    5.1701   -2.9186   -0.0000 F   0  0  0  0  0  0  0  0  0  0  0  0
    3.8955   -5.1701   -0.0000 N   0  0  0  0  0  0  0  0  0  0  0  0
    1.2866   -5.1820   -0.0000 C   0  0  0  0  0  0  0  0  0  0  0  0
    3.8835   -6.6592   -0.0000 C   0  0  0  0  0  0  0  0  0  0  0  0
    1.2866   -6.6711   -0.0000 C   0  0  0  0  0  0  0  0  0  0  0  0
    2.5731   -7.3978   -0.0000 C   0  0  0  0  0  0  0  0  0  0  0  0
   -0.0238   -7.4097   -0.0000 N   0  0  0  0  0  0  0  0  0  0  0  0
    2.5612   -8.8869   -0.0000 C   0  0  0  0  0  0  0  0  0  0  0  0
   -1.3342   -6.6473   -0.0000 C   0  0  0  0  0  0  0  0  0  0  0  0
   -2.6565   -7.3859   -0.0000 C   0  0  0  0  0  0  0  0  0  0  0  0
   -1.3461   -5.1225   -0.0000 C   0  0  0  0  0  0  0  0  0  0  0  0
   -2.9782   -8.8392   -0.0000 N   0  0  0  0  0  0  0  0  0  0  0  0
   -3.9669   -6.6235   -0.0000 C   0  0  0  0  0  0  0  0  0  0  0  0
   -2.6565   -4.3600   -0.0000 C   0  0  0  0  0  0  0  0  0  0  0  0
   -4.4792   -8.9941   -0.0000 N   0  0  0  0  0  0  0  0  0  0  0  0
   -3.9788   -5.0986   -0.0000 N   0  0  0  0  0  0  0  0  0  0  0  0
   -5.0867   -7.6241   -0.0000 C   0  0  0  0  0  0  0  0  0  0  0  0
  1  2  1  0  0  0  0
  2  3  2  0  0  0  0
  2  4  1  0  0  0  0
  3  5  1  0  0  0  0
  4  6  2  0  0  0  0
  5  7  2  0  0  0  0
  5  8  1  0  0  0  0
  7  9  1  0  0  0  0
  8 10  2  0  0  0  0
  8 11  1  0  0  0  0
 10 12  1  0  0  0  0
 11 13  2  0  0  0  0
 12 14  2  0  0  0  0
 13 15  1  0  0  0  0
 14 16  1  0  0  0  0
 15 17  1  0  0  0  0
 17 18  2  0  0  0  0
 17 19  1  0  0  0  0
 18 20  1  0  0  0  0
 18 21  1  0  0  0  0
 19 22  2  0  0  0  0
 20 23  1  0  0  0  0
 21 24  2  0  0  0  0
 21 25  1  0  0  0  0
  6  7  1  0  0  0  0
 13 14  1  0  0  0  0
 22 24  1  0  0  0  0
 23 25  2  0  0  0  0
M  END
>  <MolRegNo>
2224682

>  <m>
=

>  <Value>
3162.3

>  <Unit>
nM

>  <Type>
IC50

>  <pValue>
5.5

>  <Ligand Efficiency>
0

>  <Binding Efficiency>
0

>  <Surface Efficiency>
0

>  <Assay Index>
1080325

>  <Assay Category>


>  <Assay Organism>
Homo sapiens

>  <Target ID>
17045

>  <Target Name>
Cytochrome P450 3A4

>  <Target Organism>
Homo sapiens

>  <Target Description>
Target is a single protein chain

>  <Sequence Accession>
P08684

>  <Reference>
Bioorg Med Chem Lett 27 (9), 1955-1961 (2017)

>  <Pubmed ID>
28359790

>  <DOI>
10.1016/j.bmcl.2017.03.026

$$$$
2242607
Actelion Java MolfileCreator 1.0

 25 28  0  0  0  0  0  0  0  0999 V2000
    0.0000   -0.0000   -0.0000 F   0  0  0  0  0  0  0  0  0  0  0  0
   -1.3043    0.7589   -0.0000 C   0  0  0  0  0  0  0  0  0  0  0  0
   -2.6087    0.0237   -0.0000 C   0  0  0  0  0  0  0  0  0  0  0  0
   -1.3280    2.2648   -0.0000 C   0  0  0  0  0  0  0  0  0  0  0  0
   -2.6087   -1.4585   -0.0000 C   0  0  0  0  0  0  0  0  0  0  0  0
   -3.9249    0.7707   -0.0000 C   0  0  0  0  0  0  0  0  0  0  0  0
   -2.6442    3.0237   -0.0000 C   0  0  0  0  0  0  0  0  0  0  0  0
   -1.3162   -2.1937   -0.0000 N   0  0  0  0  0  0  0  0  0  0  0  0
   -3.9130   -2.1937   -0.0000 C   0  0  0  0  0  0  0  0  0  0  0  0
   -3.9486    2.2767   -0.0000 C   0  0  0  0  0  0  0  0  0  0  0  0
   -1.3280   -3.6759   -0.0000 C   0  0  0  0  0  0  0  0  0  0  0  0
   -3.9130   -3.6759   -0.0000 C   0  0  0  0  0  0  0  0  0  0  0  0
   -5.2648    3.0237   -0.0000 F   0  0  0  0  0  0  0  0  0  0  0  0
   -2.6324   -4.4110   -0.0000 C   0  0  0  0  0  0  0  0  0  0  0  0
   -5.2173   -4.4110   -0.0000 N   0  0  0  0  0  0  0  0  0  0  0  0
   -2.6442   -5.8932   -0.0000 C   0  0  0  0  0  0  0  0  0  0  0  0
   -6.5217   -3.6521   -0.0000 C   0  0  0  0  0  0  0  0  0  0  0  0
   -7.8379   -4.3873   -0.0000 C   0  0  0  0  0  0  0  0  0  0  0  0
   -6.5335   -2.1344   -0.0000 C   0  0  0  0  0  0  0  0  0  0  0  0
   -8.1580   -5.8339   -0.0000 N   0  0  0  0  0  0  0  0  0  0  0  0
   -9.1422   -3.6284   -0.0000 C   0  0  0  0  0  0  0  0  0  0  0  0
   -7.8379   -1.3755   -0.0000 C   0  0  0  0  0  0  0  0  0  0  0  0
   -9.6521   -5.9881   -0.0000 N   0  0  0  0  0  0  0  0  0  0  0  0
   -9.1541   -2.1107   -0.0000 N   0  0  0  0  0  0  0  0  0  0  0  0
  -10.2568   -4.6245   -0.0000 C   0  0  0  0  0  0  0  0  0  0  0  0
  1  2  1  0  0  0  0
  2  3  2  0  0  0  0
  2  4  1  0  0  0  0
  3  5  1  0  0  0  0
  3  6  1  0  0  0  0
  4  7  2  0  0  0  0
  5  8  2  0  0  0  0
  5  9  1  0  0  0  0
  6 10  2  0  0  0  0
  8 11  1  0  0  0  0
  9 12  2  0  0  0  0
 10 13  1  0  0  0  0
 11 14  2  0  0  0  0
 12 15  1  0  0  0  0
 14 16  1  0  0  0  0
 15 17  1  0  0  0  0
 17 18  2  0  0  0  0
 17 19  1  0  0  0  0
 18 20  1  0  0  0  0
 18 21  1  0  0  0  0
 19 22  2  0  0  0  0
 20 23  1  0  0  0  0
 21 24  2  0  0  0  0
 21 25  1  0  0  0  0
  7 10  1  0  0  0  0
 12 14  1  0  0  0  0
 22 24  1  0  0  0  0
 23 25  2  0  0  0  0
M  END
>  <MolRegNo>
2242607

>  <m>
=

>  <Value>
1584.9

>  <Unit>
nM

>  <Type>
IC50

>  <pValue>
5.8

>  <Ligand Efficiency>
0

>  <Binding Efficiency>
0

>  <Surface Efficiency>
0

>  <Assay Index>
1080325

>  <Assay Category>


>  <Assay Organism>
Homo sapiens

>  <Target ID>
17045

>  <Target Name>
Cytochrome P450 3A4

>  <Target Organism>
Homo sapiens

>  <Target Description>
Target is a single protein chain

>  <Sequence Accession>
P08684

>  <Reference>
Bioorg Med Chem Lett 27 (9), 1955-1961 (2017)

>  <Pubmed ID>
28359790

>  <DOI>
10.1016/j.bmcl.2017.03.026

$$$$
2234869
Actelion Java MolfileCreator 1.0

 28 31  0  0  0  0  0  0  0  0999 V2000
    0.0000   -0.0000   -0.0000 F   0  0  0  0  0  0  0  0  0  0  0  0
    1.2841    0.7728   -0.0000 C   0  0  0  0  0  0  0  0  0  0  0  0
    2.5801    0.0476   -0.0000 C   0  0  0  0  0  0  0  0  0  0  0  0
    1.2603    2.2828   -0.0000 C   0  0  0  0  0  0  0  0  0  0  0  0
    3.8642    0.8204   -0.0000 N   0  0  0  0  0  0  0  0  0  0  0  0
    2.5801   -1.4387   -0.0000 C   0  0  0  0  0  0  0  0  0  0  0  0
    2.5563    3.0557   -0.0000 C   0  0  0  0  0  0  0  0  0  0  0  0
    3.8404    2.3304   -0.0000 C   0  0  0  0  0  0  0  0  0  0  0  0
    3.8761   -2.1758   -0.0000 N   0  0  0  0  0  0  0  0  0  0  0  0
    1.2722   -2.1877   -0.0000 C   0  0  0  0  0  0  0  0  0  0  0  0
    5.1245    3.1032   -0.0000 C   0  0  0  0  0  0  0  0  0  0  0  0
    3.8642   -3.6739   -0.0000 C   0  0  0  0  0  0  0  0  0  0  0  0
    1.2722   -3.6739   -0.0000 C   0  0  0  0  0  0  0  0  0  0  0  0
    2.5563   -4.4111   -0.0000 C   0  0  0  0  0  0  0  0  0  0  0  0
   -0.0357   -4.4111   -0.0000 N   0  0  0  0  0  0  0  0  0  0  0  0
    2.5444   -5.8973   -0.0000 C   0  0  0  0  0  0  0  0  0  0  0  0
   -1.3554   -3.6501   -0.0000 C   0  0  0  0  0  0  0  0  0  0  0  0
   -2.6633   -4.3873   -0.0000 C   0  0  0  0  0  0  0  0  0  0  0  0
   -1.3673   -2.1402   -0.0000 C   0  0  0  0  0  0  0  0  0  0  0  0
   -2.6633   -5.8854   -0.0000 C   0  0  0  0  0  0  0  0  0  0  0  0
   -3.9712   -3.6264   -0.0000 C   0  0  0  0  0  0  0  0  0  0  0  0
   -2.6871   -1.3792   -0.0000 C   0  0  0  0  0  0  0  0  0  0  0  0
   -1.3673   -6.6226   -0.0000 O   0  0  0  0  0  0  0  0  0  0  0  0
   -3.9831   -6.6226   -0.0000 C   0  0  0  0  0  0  0  0  0  0  0  0
   -3.9831   -2.1283   -0.0000 N   0  0  0  0  0  0  0  0  0  0  0  0
   -5.2790   -4.3635   -0.0000 C   0  0  0  0  0  0  0  0  0  0  0  0
   -1.3792   -8.1088   -0.0000 C   0  0  0  0  0  0  0  0  0  0  0  0
   -5.3028   -5.8616   -0.0000 C   0  0  0  0  0  0  0  0  0  0  0  0
  1  2  1  0  0  0  0
  2  3  2  0  0  0  0
  2  4  1  0  0  0  0
  3  5  1  0  0  0  0
  3  6  1  0  0  0  0
  4  7  2  0  0  0  0
  5  8  2  0  0  0  0
  6  9  2  0  0  0  0
  6 10  1  0  0  0  0
  8 11  1  0  0  0  0
  9 12  1  0  0  0  0
 10 13  2  0  0  0  0
 12 14  2  0  0  0  0
 13 15  1  0  0  0  0
 14 16  1  0  0  0  0
 15 17  1  0  0  0  0
 17 18  1  0  0  0  0
 17 19  2  0  0  0  0
 18 20  2  0  0  0  0
 18 21  1  0  0  0  0
 19 22  1  0  0  0  0
 20 23  1  0  0  0  0
 20 24  1  0  0  0  0
 21 25  1  0  0  0  0
 21 26  2  0  0  0  0
 23 27  1  0  0  0  0
 24 28  2  0  0  0  0
  7  8  1  0  0  0  0
 13 14  1  0  0  0  0
 22 25  2  0  0  0  0
 26 28  1  0  0  0  0
M  END
>  <MolRegNo>
2234869

>  <m>
=

>  <Value>
6309.6

>  <Unit>
nM

>  <Type>
IC50

>  <pValue>
5.2

>  <Ligand Efficiency>
0

>  <Binding Efficiency>
0

>  <Surface Efficiency>
0

>  <Assay Index>
1080325

>  <Assay Category>


>  <Assay Organism>
Homo sapiens

>  <Target ID>
17045

>  <Target Name>
Cytochrome P450 3A4

>  <Target Organism>
Homo sapiens

>  <Target Description>
Target is a single protein chain

>  <Sequence Accession>
P08684

>  <Reference>
Bioorg Med Chem Lett 27 (9), 1955-1961 (2017)

>  <Pubmed ID>
28359790

>  <DOI>
10.1016/j.bmcl.2017.03.026

$$$$
2212236
Actelion Java MolfileCreator 1.0

 29 32  0  0  0  0  0  0  0  0999 V2000
    0.0000   -0.0000   -0.0000 Cl  0  0  0  0  0  0  0  0  0  0  0  0
   -1.3156   -0.7467   -0.0000 C   0  0  0  0  0  0  0  0  0  0  0  0
   -1.3156   -2.2401   -0.0000 C   0  0  0  0  0  0  0  0  0  0  0  0
   -2.6312    0.0119   -0.0000 C   0  0  0  0  0  0  0  0  0  0  0  0
   -2.6312   -2.9868   -0.0000 C   0  0  0  0  0  0  0  0  0  0  0  0
   -3.9468   -0.7467   -0.0000 C   0  0  0  0  0  0  0  0  0  0  0  0
   -3.9468   -2.2401   -0.0000 C   0  0  0  0  0  0  0  0  0  0  0  0
   -2.6312   -4.4802   -0.0000 C   0  0  0  0  0  0  0  0  0  0  0  0
   -5.2506   -2.9868   -0.0000 F   0  0  0  0  0  0  0  0  0  0  0  0
   -1.3275   -5.2150   -0.0000 N   0  0  0  0  0  0  0  0  0  0  0  0
   -3.9350   -5.2269   -0.0000 C   0  0  0  0  0  0  0  0  0  0  0  0
   -1.3393   -6.7084   -0.0000 C   0  0  0  0  0  0  0  0  0  0  0  0
   -3.9350   -6.7084   -0.0000 C   0  0  0  0  0  0  0  0  0  0  0  0
   -2.6549   -7.4433   -0.0000 C   0  0  0  0  0  0  0  0  0  0  0  0
   -5.2506   -7.4551   -0.0000 N   0  0  0  0  0  0  0  0  0  0  0  0
   -2.6668   -8.9367   -0.0000 C   0  0  0  0  0  0  0  0  0  0  0  0
   -6.5662   -6.6966   -0.0000 C   0  0  0  0  0  0  0  0  0  0  0  0
   -7.8699   -7.4314   -0.0000 C   0  0  0  0  0  0  0  0  0  0  0  0
   -6.5780   -5.1913   -0.0000 C   0  0  0  0  0  0  0  0  0  0  0  0
   -8.1900   -8.8774   -0.0000 N   0  0  0  0  0  0  0  0  0  0  0  0
   -9.1737   -6.6847   -0.0000 C   0  0  0  0  0  0  0  0  0  0  0  0
   -7.8936   -4.4328   -0.0000 C   0  0  0  0  0  0  0  0  0  0  0  0
   -9.6834   -9.0315   -0.0000 N   0  0  0  0  0  0  0  0  0  0  0  0
   -7.1944   -9.9797   -0.0000 C   0  0  0  0  0  0  0  0  0  0  0  0
   -9.1856   -5.1795   -0.0000 N   0  0  0  0  0  0  0  0  0  0  0  0
  -10.2878   -7.6803   -0.0000 C   0  0  0  0  0  0  0  0  0  0  0  0
   -7.6685  -11.4019   -0.0000 C   0  0  0  0  0  0  0  0  0  0  0  0
   -9.1500  -11.7101   -0.0000 O   0  0  0  0  0  0  0  0  0  0  0  0
   -6.6729  -12.5042   -0.0000 N   0  0  0  0  0  0  0  0  0  0  0  0
  1  2  1  0  0  0  0
  2  3  2  0  0  0  0
  2  4  1  0  0  0  0
  3  5  1  0  0  0  0
  4  6  2  0  0  0  0
  5  7  2  0  0  0  0
  5  8  1  0  0  0  0
  7  9  1  0  0  0  0
  8 10  2  0  0  0  0
  8 11  1  0  0  0  0
 10 12  1  0  0  0  0
 11 13  2  0  0  0  0
 12 14  2  0  0  0  0
 13 15  1  0  0  0  0
 14 16  1  0  0  0  0
 15 17  1  0  0  0  0
 17 18  2  0  0  0  0
 17 19  1  0  0  0  0
 18 20  1  0  0  0  0
 18 21  1  0  0  0  0
 19 22  2  0  0  0  0
 20 23  1  0  0  0  0
 20 24  1  0  0  0  0
 21 25  2  0  0  0  0
 21 26  1  0  0  0  0
 24 27  1  0  0  0  0
 27 28  2  0  0  0  0
 27 29  1  0  0  0  0
  6  7  1  0  0  0  0
 13 14  1  0  0  0  0
 22 25  1  0  0  0  0
 23 26  2  0  0  0  0
M  END
>  <MolRegNo>
2212236

>  <m>
=

>  <Value>
12589

>  <Unit>
nM

>  <Type>
IC50

>  <pValue>
4.9

>  <Ligand Efficiency>
0

>  <Binding Efficiency>
0

>  <Surface Efficiency>
0

>  <Assay Index>
1080325

>  <Assay Category>


>  <Assay Organism>
Homo sapiens

>  <Target ID>
17045

>  <Target Name>
Cytochrome P450 3A4

>  <Target Organism>
Homo sapiens

>  <Target Description>
Target is a single protein chain

>  <Sequence Accession>
P08684

>  <Reference>
Bioorg Med Chem Lett 27 (9), 1955-1961 (2017)

>  <Pubmed ID>
28359790

>  <DOI>
10.1016/j.bmcl.2017.03.026

$$$$
2207399
Actelion Java MolfileCreator 1.0

 28 31  0  0  0  0  0  0  0  0999 V2000
    0.0000   -0.0000   -0.0000 Cl  0  0  0  0  0  0  0  0  0  0  0  0
   -1.3112   -0.7390   -0.0000 C   0  0  0  0  0  0  0  0  0  0  0  0
   -1.3112   -2.2409   -0.0000 C   0  0  0  0  0  0  0  0  0  0  0  0
   -2.6223    0.0119   -0.0000 C   0  0  0  0  0  0  0  0  0  0  0  0
   -2.6223   -2.9799   -0.0000 C   0  0  0  0  0  0  0  0  0  0  0  0
   -3.9335   -0.7390   -0.0000 C   0  0  0  0  0  0  0  0  0  0  0  0
   -3.9335   -2.2290   -0.0000 C   0  0  0  0  0  0  0  0  0  0  0  0
   -2.6223   -4.4699   -0.0000 C   0  0  0  0  0  0  0  0  0  0  0  0
   -5.2447   -2.9799   -0.0000 F   0  0  0  0  0  0  0  0  0  0  0  0
   -1.3231   -5.2089   -0.0000 N   0  0  0  0  0  0  0  0  0  0  0  0
   -3.9216   -5.2089   -0.0000 C   0  0  0  0  0  0  0  0  0  0  0  0
   -1.3350   -6.6989   -0.0000 C   0  0  0  0  0  0  0  0  0  0  0  0
   -3.9216   -6.6870   -0.0000 C   0  0  0  0  0  0  0  0  0  0  0  0
   -2.6462   -7.4379   -0.0000 C   0  0  0  0  0  0  0  0  0  0  0  0
   -5.2328   -7.4260   -0.0000 N   0  0  0  0  0  0  0  0  0  0  0  0
   -6.5439   -6.6631   -0.0000 C   0  0  0  0  0  0  0  0  0  0  0  0
   -7.8432   -7.4022   -0.0000 C   0  0  0  0  0  0  0  0  0  0  0  0
   -6.5559   -5.1613   -0.0000 C   0  0  0  0  0  0  0  0  0  0  0  0
   -8.1531   -8.8445   -0.0000 N   0  0  0  0  0  0  0  0  0  0  0  0
   -9.1544   -6.6512   -0.0000 C   0  0  0  0  0  0  0  0  0  0  0  0
   -7.8670   -4.4103   -0.0000 C   0  0  0  0  0  0  0  0  0  0  0  0
   -9.6431   -8.9994   -0.0000 N   0  0  0  0  0  0  0  0  0  0  0  0
   -9.1663   -5.1493   -0.0000 N   0  0  0  0  0  0  0  0  0  0  0  0
  -10.2748   -7.6406   -0.0000 C   0  0  0  0  0  0  0  0  0  0  0  0
  -10.3940  -10.2867   -0.0000 C   0  0  0  0  0  0  0  0  0  0  0  0
  -11.9078  -10.2867   -0.0000 C   0  0  0  0  0  0  0  0  0  0  0  0
  -12.6588  -11.5741   -0.0000 O   0  0  0  0  0  0  0  0  0  0  0  0
  -12.6826   -8.9756   -0.0000 N   0  0  0  0  0  0  0  0  0  0  0  0
  1  2  1  0  0  0  0
  2  3  2  0  0  0  0
  2  4  1  0  0  0  0
  3  5  1  0  0  0  0
  4  6  2  0  0  0  0
  5  7  2  0  0  0  0
  5  8  1  0  0  0  0
  7  9  1  0  0  0  0
  8 10  2  0  0  0  0
  8 11  1  0  0  0  0
 10 12  1  0  0  0  0
 11 13  2  0  0  0  0
 12 14  2  0  0  0  0
 13 15  1  0  0  0  0
 15 16  1  0  0  0  0
 16 17  1  0  0  0  0
 16 18  2  0  0  0  0
 17 19  2  0  0  0  0
 17 20  1  0  0  0  0
 18 21  1  0  0  0  0
 19 22  1  0  0  0  0
 20 23  1  0  0  0  0
 20 24  2  0  0  0  0
 22 25  1  0  0  0  0
 25 26  1  0  0  0  0
 26 27  2  0  0  0  0
 26 28  1  0  0  0  0
  6  7  1  0  0  0  0
 13 14  1  0  0  0  0
 21 23  2  0  0  0  0
 22 24  1  0  0  0  0
M  END
>  <MolRegNo>
2207399

>  <m>
=

>  <Value>
12589

>  <Unit>
nM

>  <Type>
IC50

>  <pValue>
4.9

>  <Ligand Efficiency>
0

>  <Binding Efficiency>
0

>  <Surface Efficiency>
0

>  <Assay Index>
1080325

>  <Assay Category>


>  <Assay Organism>
Homo sapiens

>  <Target ID>
17045

>  <Target Name>
Cytochrome P450 3A4

>  <Target Organism>
Homo sapiens

>  <Target Description>
Target is a single protein chain

>  <Sequence Accession>
P08684

>  <Reference>
Bioorg Med Chem Lett 27 (9), 1955-1961 (2017)

>  <Pubmed ID>
28359790

>  <DOI>
10.1016/j.bmcl.2017.03.026

$$$$
2016888
Actelion Java MolfileCreator 1.0

 31 35  0  0  1  0  0  0  0  0999 V2000
    0.0000   -0.0000   -0.0000 Br  0  0  0  0  0  0  0  0  0  0  0  0
   -0.6214   -1.0601   -0.0000 C   0  0  0  0  0  0  0  0  0  0  0  0
    0.1462   -2.3761   -0.0000 N   0  0  0  0  0  0  0  0  0  0  0  0
   -2.1812   -1.0601   -0.0000 C   0  0  0  0  0  0  0  0  0  0  0  0
   -0.6336   -3.7043   -0.0000 C   0  0  0  0  0  0  0  0  0  0  0  0
   -2.9610   -2.3883   -0.0000 C   0  0  0  0  0  0  0  0  0  0  0  0
    0.1462   -5.0203   -0.0000 N   0  0  0  0  0  0  0  0  0  0  0  0
   -2.1933   -3.7043   -0.0000 C   0  0  0  0  0  0  0  0  0  0  0  0
    1.6816   -4.9960   -0.0000 C   0  0  0  0  0  0  0  0  0  0  0  0
    2.2786   -3.9115   -0.0000 O   0  0  0  0  0  0  0  0  0  0  0  0
    2.4492   -6.3120   -0.0000 C   0  0  0  0  0  0  0  0  0  0  0  0
    1.8278   -7.7133   -0.0000 N   0  0  0  0  0  0  0  0  0  0  0  0
    3.9724   -6.4582   -0.0000 C   0  0  0  0  0  0  0  0  0  0  0  0
    0.3046   -8.0179   -0.0000 C   0  0  0  0  0  0  0  0  0  0  0  0
    2.9488   -8.7368   -0.0000 C   0  0  0  0  0  0  0  0  0  0  0  0
    4.2770   -7.9570   -0.0000 C   0  0  0  0  0  0  0  0  0  0  0  0
   -0.0975   -9.1877   -0.0000 O   0  0  0  0  0  0  0  0  0  0  0  0
   -0.7433   -6.8603   -0.0000 C   0  0  0  0  0  0  0  0  0  0  0  0
    4.2770   -9.4923   -0.0000 C   0  0  0  0  0  0  0  0  0  0  0  0
   -2.2665   -7.1649   -0.0000 N   0  0  0  0  0  0  0  0  0  0  0  0
   -2.9123   -8.5662   -0.0000 N   0  0  0  0  0  0  0  0  0  0  0  0
   -3.4241   -6.1170   -0.0000 C   0  0  0  0  0  0  0  0  0  0  0  0
   -4.4598   -8.3957   -0.0000 C   0  0  0  0  0  0  0  0  0  0  0  0
   -4.7766   -6.8725   -0.0000 C   0  0  0  0  0  0  0  0  0  0  0  0
   -3.4362   -4.5573   -0.0000 C   0  0  0  0  0  0  0  0  0  0  0  0
   -5.5077   -9.5289   -0.0000 C   0  0  0  0  0  0  0  0  0  0  0  0
   -6.1292   -6.0926   -0.0000 C   0  0  0  0  0  0  0  0  0  0  0  0
   -4.7888   -3.7774   -0.0000 C   0  0  0  0  0  0  0  0  0  0  0  0
   -5.1300  -10.6987   -0.0000 O   0  0  0  0  0  0  0  0  0  0  0  0
   -6.7263   -9.2608   -0.0000 N   0  0  0  0  0  0  0  0  0  0  0  0
   -6.1414   -4.5329   -0.0000 C   0  0  0  0  0  0  0  0  0  0  0  0
  1  2  1  0  0  0  0
  2  3  2  0  0  0  0
  2  4  1  0  0  0  0
  3  5  1  0  0  0  0
  4  6  2  0  0  0  0
  5  7  1  0  0  0  0
  5  8  2  0  0  0  0
  7  9  1  0  0  0  0
  9 10  2  0  0  0  0
 11  9  1  6  0  0  0
 11 12  1  0  0  0  0
 11 13  1  0  0  0  0
 12 14  1  0  0  0  0
 15 12  1  1  0  0  0
 16 13  1  1  0  0  0
 14 17  2  0  0  0  0
 14 18  1  0  0  0  0
 15 19  1  0  0  0  0
 18 20  1  0  0  0  0
 20 21  1  0  0  0  0
 20 22  1  0  0  0  0
 21 23  2  0  0  0  0
 22 24  2  0  0  0  0
 22 25  1  0  0  0  0
 23 26  1  0  0  0  0
 24 27  1  0  0  0  0
 25 28  2  0  0  0  0
 26 29  2  0  0  0  0
 26 30  1  0  0  0  0
 27 31  2  0  0  0  0
  6  8  1  0  0  0  0
 15 16  1  0  0  0  0
 16 19  1  0  0  0  0
 23 24  1  0  0  0  0
 28 31  1  0  0  0  0
M  END
>  <MolRegNo>
2016888

>  <m>
=

>  <Value>
17000

>  <Unit>
nM

>  <Type>
IC50

>  <pValue>
4.77

>  <Ligand Efficiency>
0

>  <Binding Efficiency>
0

>  <Surface Efficiency>
0

>  <Assay Index>
1081174

>  <Assay Category>


>  <Assay Organism>
Homo sapiens

>  <Target ID>
17045

>  <Target Name>
Cytochrome P450 3A4

>  <Target Organism>
Homo sapiens

>  <Target Description>
Target is a single protein chain

>  <Sequence Accession>
P08684

>  <Reference>
J Med Chem 60 (13), 5717-5735 (2017)

>  <Pubmed ID>
28621538

>  <DOI>
10.1021/acs.jmedchem.7b00425

$$$$
2243911
Actelion Java MolfileCreator 1.0

 39 44  0  0  0  0  0  0  0  0999 V2000
    0.0000   -0.0000   -0.0000 F   0  0  0  0  0  0  0  0  0  0  0  0
   -1.5055   -0.0000   -0.0000 C   0  0  0  0  0  0  0  0  0  0  0  0
   -2.2583   -1.2821   -0.0000 C   0  0  0  0  0  0  0  0  0  0  0  0
   -2.2818    1.3056   -0.0000 C   0  0  0  0  0  0  0  0  0  0  0  0
   -3.7639   -1.2821   -0.0000 C   0  0  0  0  0  0  0  0  0  0  0  0
   -3.7756    1.3056   -0.0000 C   0  0  0  0  0  0  0  0  0  0  0  0
   -4.5284    0.0235   -0.0000 C   0  0  0  0  0  0  0  0  0  0  0  0
   -6.0340    0.0235   -0.0000 C   0  0  0  0  0  0  0  0  0  0  0  0
   -6.9161   -1.1880   -0.0000 O   0  0  0  0  0  0  0  0  0  0  0  0
   -6.9396    1.2468   -0.0000 C   0  0  0  0  0  0  0  0  0  0  0  0
   -8.3629   -0.7175   -0.0000 C   0  0  0  0  0  0  0  0  0  0  0  0
   -8.3746    0.7881   -0.0000 C   0  0  0  0  0  0  0  0  0  0  0  0
   -6.5044    2.6818   -0.0000 C   0  0  0  0  0  0  0  0  0  0  0  0
   -9.6685   -1.4467   -0.0000 C   0  0  0  0  0  0  0  0  0  0  0  0
   -9.6802    1.5408   -0.0000 C   0  0  0  0  0  0  0  0  0  0  0  0
   -5.0577    3.0111   -0.0000 O   0  0  0  0  0  0  0  0  0  0  0  0
   -7.5160    3.7992   -0.0000 N   0  0  0  0  0  0  0  0  0  0  0  0
  -10.9740   -0.6940   -0.0000 C   0  0  0  0  0  0  0  0  0  0  0  0
  -10.9740    0.8116   -0.0000 C   0  0  0  0  0  0  0  0  0  0  0  0
   -7.0808    5.2341   -0.0000 C   0  0  0  0  0  0  0  0  0  0  0  0
  -12.2796    1.5644   -0.0000 C   0  0  0  0  0  0  0  0  0  0  0  0
  -12.2914    3.0699   -0.0000 C   0  0  0  0  0  0  0  0  0  0  0  0
  -13.5735    0.8351   -0.0000 C   0  0  0  0  0  0  0  0  0  0  0  0
  -13.5970    3.8227   -0.0000 C   0  0  0  0  0  0  0  0  0  0  0  0
  -11.0093    3.8227   -0.0000 C   0  0  0  0  0  0  0  0  0  0  0  0
  -14.8791    1.5879   -0.0000 C   0  0  0  0  0  0  0  0  0  0  0  0
  -14.9026    3.0934   -0.0000 C   0  0  0  0  0  0  0  0  0  0  0  0
  -16.1847    0.8469   -0.0000 C   0  0  0  0  0  0  0  0  0  0  0  0
  -16.1964   -0.6352   -0.0000 O   0  0  0  0  0  0  0  0  0  0  0  0
  -17.4903    1.5996   -0.0000 N   0  0  0  0  0  0  0  0  0  0  0  0
  -17.5138    3.1052   -0.0000 C   0  0  0  0  0  0  0  0  0  0  0  0
  -18.8076    3.8580   -0.0000 C   0  0  0  0  0  0  0  0  0  0  0  0
  -16.7845    4.4108   -0.0000 C   0  0  0  0  0  0  0  0  0  0  0  0
  -16.0435    3.1287   -0.0000 C   0  0  0  0  0  0  0  0  0  0  0  0
  -18.8194    5.3518   -0.0000 N   0  0  0  0  0  0  0  0  0  0  0  0
  -20.1014    3.1170   -0.0000 N   0  0  0  0  0  0  0  0  0  0  0  0
  -20.1250    6.1045   -0.0000 C   0  0  0  0  0  0  0  0  0  0  0  0
  -21.4070    3.8580   -0.0000 C   0  0  0  0  0  0  0  0  0  0  0  0
  -21.4306    5.3635   -0.0000 C   0  0  0  0  0  0  0  0  0  0  0  0
  1  2  1  0  0  0  0
  2  3  2  0  0  0  0
  2  4  1  0  0  0  0
  3  5  1  0  0  0  0
  4  6  2  0  0  0  0
  5  7  2  0  0  0  0
  7  8  1  0  0  0  0
  8  9  1  0  0  0  0
  8 10  2  0  0  0  0
  9 11  1  0  0  0  0
 10 12  1  0  0  0  0
 10 13  1  0  0  0  0
 11 14  1  0  0  0  0
 12 15  1  0  0  0  0
 13 16  2  0  0  0  0
 13 17  1  0  0  0  0
 14 18  2  0  0  0  0
 15 19  2  0  0  0  0
 17 20  1  0  0  0  0
 19 21  1  0  0  0  0
 21 22  2  0  0  0  0
 21 23  1  0  0  0  0
 22 24  1  0  0  0  0
 22 25  1  0  0  0  0
 23 26  2  0  0  0  0
 24 27  2  0  0  0  0
 26 28  1  0  0  0  0
 28 29  2  0  0  0  0
 28 30  1  0  0  0  0
 30 31  1  0  0  0  0
 31 32  1  0  0  0  0
 31 33  1  0  0  0  0
 31 34  1  0  0  0  0
 32 35  2  0  0  0  0
 32 36  1  0  0  0  0
 35 37  1  0  0  0  0
 36 38  2  0  0  0  0
 37 39  2  0  0  0  0
  6  7  1  0  0  0  0
 11 12  2  0  0  0  0
 18 19  1  0  0  0  0
 26 27  1  0  0  0  0
 33 34  1  0  0  0  0
 38 39  1  0  0  0  0
M  END
>  <MolRegNo>
2243911

>  <m>
=

>  <Value>
11400

>  <Unit>
nM

>  <Type>
IC50

>  <pValue>
4.94

>  <Ligand Efficiency>
0

>  <Binding Efficiency>
0

>  <Surface Efficiency>
0

>  <Assay Index>
1083339

>  <Assay Category>


>  <Assay Organism>
Homo sapiens

>  <Target ID>
17045

>  <Target Name>
Cytochrome P450 3A4

>  <Target Organism>
Homo sapiens

>  <Target Description>
Target is a single protein chain

>  <Sequence Accession>
P08684

>  <Reference>
J Med Chem 60 (10), 4369-4385 (2017)

>  <Pubmed ID>
28430437

>  <DOI>
10.1021/acs.jmedchem.7b00328

$$$$
2225991
Actelion Java MolfileCreator 1.0

 39 44  0  0  0  0  0  0  0  0999 V2000
    0.0000   -0.0000   -0.0000 F   0  0  0  0  0  0  0  0  0  0  0  0
   -1.5054   -0.0000   -0.0000 C   0  0  0  0  0  0  0  0  0  0  0  0
   -2.2581   -1.2819   -0.0000 C   0  0  0  0  0  0  0  0  0  0  0  0
   -2.2816    1.3055   -0.0000 C   0  0  0  0  0  0  0  0  0  0  0  0
   -3.7635   -1.2819   -0.0000 C   0  0  0  0  0  0  0  0  0  0  0  0
   -3.7752    1.3055   -0.0000 C   0  0  0  0  0  0  0  0  0  0  0  0
   -4.5279    0.0235   -0.0000 C   0  0  0  0  0  0  0  0  0  0  0  0
   -6.0333    0.0235   -0.0000 C   0  0  0  0  0  0  0  0  0  0  0  0
   -6.9272   -1.1878   -0.0000 O   0  0  0  0  0  0  0  0  0  0  0  0
   -6.9389    1.2467   -0.0000 C   0  0  0  0  0  0  0  0  0  0  0  0
   -8.3737   -0.7174   -0.0000 C   0  0  0  0  0  0  0  0  0  0  0  0
   -8.3737    0.7880   -0.0000 C   0  0  0  0  0  0  0  0  0  0  0  0
   -6.5038    2.6815   -0.0000 C   0  0  0  0  0  0  0  0  0  0  0  0
   -9.6792   -1.4466   -0.0000 C   0  0  0  0  0  0  0  0  0  0  0  0
   -9.6792    1.5407   -0.0000 C   0  0  0  0  0  0  0  0  0  0  0  0
   -5.0572    3.0108   -0.0000 O   0  0  0  0  0  0  0  0  0  0  0  0
   -7.5152    3.7988   -0.0000 N   0  0  0  0  0  0  0  0  0  0  0  0
  -10.9846   -0.6939   -0.0000 C   0  0  0  0  0  0  0  0  0  0  0  0
  -10.9729    0.8115   -0.0000 C   0  0  0  0  0  0  0  0  0  0  0  0
   -7.0800    5.2336   -0.0000 C   0  0  0  0  0  0  0  0  0  0  0  0
  -12.2783    1.5642   -0.0000 C   0  0  0  0  0  0  0  0  0  0  0  0
  -12.2901    3.0696   -0.0000 C   0  0  0  0  0  0  0  0  0  0  0  0
  -13.5720    0.8350   -0.0000 C   0  0  0  0  0  0  0  0  0  0  0  0
  -13.5956    3.8223   -0.0000 C   0  0  0  0  0  0  0  0  0  0  0  0
  -11.0082    3.8223   -0.0000 C   0  0  0  0  0  0  0  0  0  0  0  0
  -14.8775    1.5877   -0.0000 C   0  0  0  0  0  0  0  0  0  0  0  0
  -14.9010    3.0931   -0.0000 C   0  0  0  0  0  0  0  0  0  0  0  0
  -16.1830    0.8468   -0.0000 C   0  0  0  0  0  0  0  0  0  0  0  0
  -16.1947   -0.6351   -0.0000 O   0  0  0  0  0  0  0  0  0  0  0  0
  -17.4884    1.5995   -0.0000 N   0  0  0  0  0  0  0  0  0  0  0  0
  -17.5119    3.1049   -0.0000 C   0  0  0  0  0  0  0  0  0  0  0  0
  -18.8056    3.8576   -0.0000 C   0  0  0  0  0  0  0  0  0  0  0  0
  -16.7828    4.4103   -0.0000 C   0  0  0  0  0  0  0  0  0  0  0  0
  -16.0418    3.1284   -0.0000 C   0  0  0  0  0  0  0  0  0  0  0  0
  -18.8174    5.3512   -0.0000 C   0  0  0  0  0  0  0  0  0  0  0  0
  -20.0993    3.1166   -0.0000 C   0  0  0  0  0  0  0  0  0  0  0  0
  -20.1228    6.1039   -0.0000 C   0  0  0  0  0  0  0  0  0  0  0  0
  -21.4048    3.8576   -0.0000 C   0  0  0  0  0  0  0  0  0  0  0  0
  -21.4283    5.3630   -0.0000 N   0  0  0  0  0  0  0  0  0  0  0  0
  1  2  1  0  0  0  0
  2  3  2  0  0  0  0
  2  4  1  0  0  0  0
  3  5  1  0  0  0  0
  4  6  2  0  0  0  0
  5  7  2  0  0  0  0
  7  8  1  0  0  0  0
  8  9  1  0  0  0  0
  8 10  2  0  0  0  0
  9 11  1  0  0  0  0
 10 12  1  0  0  0  0
 10 13  1  0  0  0  0
 11 14  1  0  0  0  0
 12 15  1  0  0  0  0
 13 16  2  0  0  0  0
 13 17  1  0  0  0  0
 14 18  2  0  0  0  0
 15 19  2  0  0  0  0
 17 20  1  0  0  0  0
 19 21  1  0  0  0  0
 21 22  2  0  0  0  0
 21 23  1  0  0  0  0
 22 24  1  0  0  0  0
 22 25  1  0  0  0  0
 23 26  2  0  0  0  0
 24 27  2  0  0  0  0
 26 28  1  0  0  0  0
 28 29  2  0  0  0  0
 28 30  1  0  0  0  0
 30 31  1  0  0  0  0
 31 32  1  0  0  0  0
 31 33  1  0  0  0  0
 31 34  1  0  0  0  0
 32 35  2  0  0  0  0
 32 36  1  0  0  0  0
 35 37  1  0  0  0  0
 36 38  2  0  0  0  0
 37 39  2  0  0  0  0
  6  7  1  0  0  0  0
 11 12  2  0  0  0  0
 18 19  1  0  0  0  0
 26 27  1  0  0  0  0
 33 34  1  0  0  0  0
 38 39  1  0  0  0  0
M  END
>  <MolRegNo>
2225991

>  <m>
=

>  <Value>
73

>  <Unit>
nM

>  <Type>
IC50

>  <pValue>
7.14

>  <Ligand Efficiency>
0

>  <Binding Efficiency>
0

>  <Surface Efficiency>
0

>  <Assay Index>
1083339

>  <Assay Category>


>  <Assay Organism>
Homo sapiens

>  <Target ID>
17045

>  <Target Name>
Cytochrome P450 3A4

>  <Target Organism>
Homo sapiens

>  <Target Description>
Target is a single protein chain

>  <Sequence Accession>
P08684

>  <Reference>
J Med Chem 60 (10), 4369-4385 (2017)

>  <Pubmed ID>
28430437

>  <DOI>
10.1021/acs.jmedchem.7b00328

$$$$
2236152
Actelion Java MolfileCreator 1.0

 39 44  0  0  0  0  0  0  0  0999 V2000
    0.0000   -0.0000   -0.0000 F   0  0  0  0  0  0  0  0  0  0  0  0
   -1.4998   -0.0000   -0.0000 C   0  0  0  0  0  0  0  0  0  0  0  0
   -2.2557   -1.2873   -0.0000 C   0  0  0  0  0  0  0  0  0  0  0  0
   -2.2793    1.2991   -0.0000 C   0  0  0  0  0  0  0  0  0  0  0  0
   -3.7555   -1.2873   -0.0000 C   0  0  0  0  0  0  0  0  0  0  0  0
   -3.7791    1.2991   -0.0000 C   0  0  0  0  0  0  0  0  0  0  0  0
   -4.5231    0.0118   -0.0000 C   0  0  0  0  0  0  0  0  0  0  0  0
   -6.0230    0.0118   -0.0000 C   0  0  0  0  0  0  0  0  0  0  0  0
   -6.9087   -1.1928   -0.0000 O   0  0  0  0  0  0  0  0  0  0  0  0
   -6.9205    1.2400   -0.0000 C   0  0  0  0  0  0  0  0  0  0  0  0
   -8.3495   -0.7204   -0.0000 C   0  0  0  0  0  0  0  0  0  0  0  0
   -8.3613    0.7794   -0.0000 C   0  0  0  0  0  0  0  0  0  0  0  0
   -6.4835    2.6690   -0.0000 C   0  0  0  0  0  0  0  0  0  0  0  0
   -9.6603   -1.4526   -0.0000 C   0  0  0  0  0  0  0  0  0  0  0  0
   -9.6722    1.5353   -0.0000 C   0  0  0  0  0  0  0  0  0  0  0  0
   -5.0427    2.9997   -0.0000 O   0  0  0  0  0  0  0  0  0  0  0  0
   -7.4992    3.7791   -0.0000 N   0  0  0  0  0  0  0  0  0  0  0  0
  -10.9594   -0.6968   -0.0000 C   0  0  0  0  0  0  0  0  0  0  0  0
  -10.9712    0.8031   -0.0000 C   0  0  0  0  0  0  0  0  0  0  0  0
   -7.0622    5.2081   -0.0000 C   0  0  0  0  0  0  0  0  0  0  0  0
  -12.2703    1.5589   -0.0000 C   0  0  0  0  0  0  0  0  0  0  0  0
  -12.2821    3.0705   -0.0000 C   0  0  0  0  0  0  0  0  0  0  0  0
  -13.5694    0.8267   -0.0000 C   0  0  0  0  0  0  0  0  0  0  0  0
  -13.5812    3.8263   -0.0000 C   0  0  0  0  0  0  0  0  0  0  0  0
  -11.0067    3.8263   -0.0000 C   0  0  0  0  0  0  0  0  0  0  0  0
  -14.8684    1.5825   -0.0000 C   0  0  0  0  0  0  0  0  0  0  0  0
  -14.8921    3.0941   -0.0000 C   0  0  0  0  0  0  0  0  0  0  0  0
  -16.1675    0.8385   -0.0000 C   0  0  0  0  0  0  0  0  0  0  0  0
  -16.1793   -0.6377   -0.0000 O   0  0  0  0  0  0  0  0  0  0  0  0
  -17.4784    1.5943   -0.0000 N   0  0  0  0  0  0  0  0  0  0  0  0
  -17.5020    3.1060   -0.0000 C   0  0  0  0  0  0  0  0  0  0  0  0
  -18.8011    3.8618   -0.0000 C   0  0  0  0  0  0  0  0  0  0  0  0
  -16.7698    4.4168   -0.0000 C   0  0  0  0  0  0  0  0  0  0  0  0
  -16.0376    3.1296   -0.0000 C   0  0  0  0  0  0  0  0  0  0  0  0
  -20.0883    3.1178   -0.0000 C   0  0  0  0  0  0  0  0  0  0  0  0
  -18.8129    5.3616   -0.0000 C   0  0  0  0  0  0  0  0  0  0  0  0
  -21.3992    3.8618   -0.0000 N   0  0  0  0  0  0  0  0  0  0  0  0
  -20.1238    6.1174   -0.0000 C   0  0  0  0  0  0  0  0  0  0  0  0
  -21.4228    5.3734   -0.0000 C   0  0  0  0  0  0  0  0  0  0  0  0
  1  2  1  0  0  0  0
  2  3  2  0  0  0  0
  2  4  1  0  0  0  0
  3  5  1  0  0  0  0
  4  6  2  0  0  0  0
  5  7  2  0  0  0  0
  7  8  1  0  0  0  0
  8  9  1  0  0  0  0
  8 10  2  0  0  0  0
  9 11  1  0  0  0  0
 10 12  1  0  0  0  0
 10 13  1  0  0  0  0
 11 14  1  0  0  0  0
 12 15  1  0  0  0  0
 13 16  2  0  0  0  0
 13 17  1  0  0  0  0
 14 18  2  0  0  0  0
 15 19  2  0  0  0  0
 17 20  1  0  0  0  0
 19 21  1  0  0  0  0
 21 22  2  0  0  0  0
 21 23  1  0  0  0  0
 22 24  1  0  0  0  0
 22 25  1  0  0  0  0
 23 26  2  0  0  0  0
 24 27  2  0  0  0  0
 26 28  1  0  0  0  0
 28 29  2  0  0  0  0
 28 30  1  0  0  0  0
 30 31  1  0  0  0  0
 31 32  1  0  0  0  0
 31 33  1  0  0  0  0
 31 34  1  0  0  0  0
 32 35  2  0  0  0  0
 32 36  1  0  0  0  0
 35 37  1  0  0  0  0
 36 38  2  0  0  0  0
 37 39  2  0  0  0  0
  6  7  1  0  0  0  0
 11 12  2  0  0  0  0
 18 19  1  0  0  0  0
 26 27  1  0  0  0  0
 33 34  1  0  0  0  0
 38 39  1  0  0  0  0
M  END
>  <MolRegNo>
2236152

>  <m>
=

>  <Value>
63

>  <Unit>
nM

>  <Type>
IC50

>  <pValue>
7.2

>  <Ligand Efficiency>
0

>  <Binding Efficiency>
0

>  <Surface Efficiency>
0

>  <Assay Index>
1083339

>  <Assay Category>


>  <Assay Organism>
Homo sapiens

>  <Target ID>
17045

>  <Target Name>
Cytochrome P450 3A4

>  <Target Organism>
Homo sapiens

>  <Target Description>
Target is a single protein chain

>  <Sequence Accession>
P08684

>  <Reference>
J Med Chem 60 (10), 4369-4385 (2017)

>  <Pubmed ID>
28430437

>  <DOI>
10.1021/acs.jmedchem.7b00328

$$$$
2218099
Actelion Java MolfileCreator 1.0

 39 44  0  0  0  0  0  0  0  0999 V2000
    0.0000   -0.0000   -0.0000 F   0  0  0  0  0  0  0  0  0  0  0  0
   -1.4998   -0.0000   -0.0000 C   0  0  0  0  0  0  0  0  0  0  0  0
   -2.2557   -1.2873   -0.0000 C   0  0  0  0  0  0  0  0  0  0  0  0
   -2.2675    1.2991   -0.0000 C   0  0  0  0  0  0  0  0  0  0  0  0
   -3.7555   -1.2873   -0.0000 C   0  0  0  0  0  0  0  0  0  0  0  0
   -3.7673    1.2991   -0.0000 C   0  0  0  0  0  0  0  0  0  0  0  0
   -4.5231    0.0118   -0.0000 C   0  0  0  0  0  0  0  0  0  0  0  0
   -6.0230    0.0118   -0.0000 C   0  0  0  0  0  0  0  0  0  0  0  0
   -6.9087   -1.1928   -0.0000 O   0  0  0  0  0  0  0  0  0  0  0  0
   -6.9205    1.2400   -0.0000 C   0  0  0  0  0  0  0  0  0  0  0  0
   -8.3495   -0.7204   -0.0000 C   0  0  0  0  0  0  0  0  0  0  0  0
   -8.3613    0.7794   -0.0000 C   0  0  0  0  0  0  0  0  0  0  0  0
   -6.4835    2.6690   -0.0000 C   0  0  0  0  0  0  0  0  0  0  0  0
   -9.6604   -1.4526   -0.0000 C   0  0  0  0  0  0  0  0  0  0  0  0
   -9.6722    1.5353   -0.0000 C   0  0  0  0  0  0  0  0  0  0  0  0
   -5.0428    2.9997   -0.0000 O   0  0  0  0  0  0  0  0  0  0  0  0
   -7.4992    3.7791   -0.0000 N   0  0  0  0  0  0  0  0  0  0  0  0
  -10.9594   -0.6968   -0.0000 C   0  0  0  0  0  0  0  0  0  0  0  0
  -10.9712    0.8031   -0.0000 C   0  0  0  0  0  0  0  0  0  0  0  0
   -7.0622    5.2081   -0.0000 C   0  0  0  0  0  0  0  0  0  0  0  0
  -12.2703    1.5589   -0.0000 C   0  0  0  0  0  0  0  0  0  0  0  0
  -12.2821    3.0705   -0.0000 C   0  0  0  0  0  0  0  0  0  0  0  0
  -13.5694    0.8267   -0.0000 C   0  0  0  0  0  0  0  0  0  0  0  0
  -13.5812    3.8264   -0.0000 C   0  0  0  0  0  0  0  0  0  0  0  0
  -11.0067    3.8264   -0.0000 C   0  0  0  0  0  0  0  0  0  0  0  0
  -14.8685    1.5825   -0.0000 C   0  0  0  0  0  0  0  0  0  0  0  0
  -14.8921    3.0942   -0.0000 C   0  0  0  0  0  0  0  0  0  0  0  0
  -16.1675    0.8385   -0.0000 C   0  0  0  0  0  0  0  0  0  0  0  0
  -16.1793   -0.6377   -0.0000 O   0  0  0  0  0  0  0  0  0  0  0  0
  -17.4784    1.5943   -0.0000 N   0  0  0  0  0  0  0  0  0  0  0  0
  -17.5020    3.1060   -0.0000 C   0  0  0  0  0  0  0  0  0  0  0  0
  -18.8011    3.8618   -0.0000 C   0  0  0  0  0  0  0  0  0  0  0  0
  -16.7698    4.4168   -0.0000 C   0  0  0  0  0  0  0  0  0  0  0  0
  -16.0376    3.1296   -0.0000 C   0  0  0  0  0  0  0  0  0  0  0  0
  -20.0884    3.1178   -0.0000 N   0  0  0  0  0  0  0  0  0  0  0  0
  -18.8129    5.3616   -0.0000 C   0  0  0  0  0  0  0  0  0  0  0  0
  -21.3992    3.8618   -0.0000 C   0  0  0  0  0  0  0  0  0  0  0  0
  -20.1238    6.1174   -0.0000 C   0  0  0  0  0  0  0  0  0  0  0  0
  -21.4229    5.3734   -0.0000 C   0  0  0  0  0  0  0  0  0  0  0  0
  1  2  1  0  0  0  0
  2  3  2  0  0  0  0
  2  4  1  0  0  0  0
  3  5  1  0  0  0  0
  4  6  2  0  0  0  0
  5  7  2  0  0  0  0
  7  8  1  0  0  0  0
  8  9  1  0  0  0  0
  8 10  2  0  0  0  0
  9 11  1  0  0  0  0
 10 12  1  0  0  0  0
 10 13  1  0  0  0  0
 11 14  1  0  0  0  0
 12 15  1  0  0  0  0
 13 16  2  0  0  0  0
 13 17  1  0  0  0  0
 14 18  2  0  0  0  0
 15 19  2  0  0  0  0
 17 20  1  0  0  0  0
 19 21  1  0  0  0  0
 21 22  2  0  0  0  0
 21 23  1  0  0  0  0
 22 24  1  0  0  0  0
 22 25  1  0  0  0  0
 23 26  2  0  0  0  0
 24 27  2  0  0  0  0
 26 28  1  0  0  0  0
 28 29  2  0  0  0  0
 28 30  1  0  0  0  0
 30 31  1  0  0  0  0
 31 32  1  0  0  0  0
 31 33  1  0  0  0  0
 31 34  1  0  0  0  0
 32 35  2  0  0  0  0
 32 36  1  0  0  0  0
 35 37  1  0  0  0  0
 36 38  2  0  0  0  0
 37 39  2  0  0  0  0
  6  7  1  0  0  0  0
 11 12  2  0  0  0  0
 18 19  1  0  0  0  0
 26 27  1  0  0  0  0
 33 34  1  0  0  0  0
 38 39  1  0  0  0  0
M  END
>  <MolRegNo>
2218099

>  <m>
=

>  <Value>
4100

>  <Unit>
nM

>  <Type>
IC50

>  <pValue>
5.39

>  <Ligand Efficiency>
0

>  <Binding Efficiency>
0

>  <Surface Efficiency>
0

>  <Assay Index>
1083339

>  <Assay Category>


>  <Assay Organism>
Homo sapiens

>  <Target ID>
17045

>  <Target Name>
Cytochrome P450 3A4

>  <Target Organism>
Homo sapiens

>  <Target Description>
Target is a single protein chain

>  <Sequence Accession>
P08684

>  <Reference>
J Med Chem 60 (10), 4369-4385 (2017)

>  <Pubmed ID>
28430437

>  <DOI>
10.1021/acs.jmedchem.7b00328

$$$$
2228428
Actelion Java MolfileCreator 1.0

 39 44  0  0  0  0  0  0  0  0999 V2000
    0.0000   -0.0000   -0.0000 F   0  0  0  0  0  0  0  0  0  0  0  0
   -1.5054   -0.0000   -0.0000 C   0  0  0  0  0  0  0  0  0  0  0  0
   -2.2581   -1.2820   -0.0000 C   0  0  0  0  0  0  0  0  0  0  0  0
   -2.2816    1.3055   -0.0000 C   0  0  0  0  0  0  0  0  0  0  0  0
   -3.7635   -1.2820   -0.0000 C   0  0  0  0  0  0  0  0  0  0  0  0
   -3.7871    1.3055   -0.0000 C   0  0  0  0  0  0  0  0  0  0  0  0
   -4.5280    0.0235   -0.0000 C   0  0  0  0  0  0  0  0  0  0  0  0
   -6.0334    0.0235   -0.0000 C   0  0  0  0  0  0  0  0  0  0  0  0
   -6.9155   -1.1879   -0.0000 O   0  0  0  0  0  0  0  0  0  0  0  0
   -6.9390    1.2467   -0.0000 C   0  0  0  0  0  0  0  0  0  0  0  0
   -8.3621   -0.7174   -0.0000 C   0  0  0  0  0  0  0  0  0  0  0  0
   -8.3739    0.7880   -0.0000 C   0  0  0  0  0  0  0  0  0  0  0  0
   -6.5039    2.6815   -0.0000 C   0  0  0  0  0  0  0  0  0  0  0  0
   -9.6676   -1.4466   -0.0000 C   0  0  0  0  0  0  0  0  0  0  0  0
   -9.6794    1.5407   -0.0000 C   0  0  0  0  0  0  0  0  0  0  0  0
   -5.0573    3.0108   -0.0000 O   0  0  0  0  0  0  0  0  0  0  0  0
   -7.5153    3.7988   -0.0000 N   0  0  0  0  0  0  0  0  0  0  0  0
  -10.9731   -0.6939   -0.0000 C   0  0  0  0  0  0  0  0  0  0  0  0
  -10.9731    0.8115   -0.0000 C   0  0  0  0  0  0  0  0  0  0  0  0
   -7.0802    5.2337   -0.0000 C   0  0  0  0  0  0  0  0  0  0  0  0
  -12.2786    1.5642   -0.0000 C   0  0  0  0  0  0  0  0  0  0  0  0
  -12.2903    3.0696   -0.0000 C   0  0  0  0  0  0  0  0  0  0  0  0
  -13.5723    0.8350   -0.0000 C   0  0  0  0  0  0  0  0  0  0  0  0
  -13.5958    3.8223   -0.0000 C   0  0  0  0  0  0  0  0  0  0  0  0
  -11.0084    3.8223   -0.0000 C   0  0  0  0  0  0  0  0  0  0  0  0
  -14.8777    1.5877   -0.0000 C   0  0  0  0  0  0  0  0  0  0  0  0
  -14.9013    3.0932   -0.0000 C   0  0  0  0  0  0  0  0  0  0  0  0
  -16.1832    0.8468   -0.0000 C   0  0  0  0  0  0  0  0  0  0  0  0
  -16.1950   -0.6351   -0.0000 O   0  0  0  0  0  0  0  0  0  0  0  0
  -17.4887    1.5995   -0.0000 N   0  0  0  0  0  0  0  0  0  0  0  0
  -17.5122    3.1049   -0.0000 C   0  0  0  0  0  0  0  0  0  0  0  0
  -18.8059    3.8576   -0.0000 C   0  0  0  0  0  0  0  0  0  0  0  0
  -16.7830    4.4104   -0.0000 C   0  0  0  0  0  0  0  0  0  0  0  0
  -16.0421    3.1284   -0.0000 C   0  0  0  0  0  0  0  0  0  0  0  0
  -18.8177    5.3513   -0.0000 C   0  0  0  0  0  0  0  0  0  0  0  0
  -20.0997    3.1167   -0.0000 C   0  0  0  0  0  0  0  0  0  0  0  0
  -20.1232    6.1040   -0.0000 C   0  0  0  0  0  0  0  0  0  0  0  0
  -21.4051    3.8576   -0.0000 C   0  0  0  0  0  0  0  0  0  0  0  0
  -21.4287    5.3630   -0.0000 C   0  0  0  0  0  0  0  0  0  0  0  0
  1  2  1  0  0  0  0
  2  3  2  0  0  0  0
  2  4  1  0  0  0  0
  3  5  1  0  0  0  0
  4  6  2  0  0  0  0
  5  7  2  0  0  0  0
  7  8  1  0  0  0  0
  8  9  1  0  0  0  0
  8 10  2  0  0  0  0
  9 11  1  0  0  0  0
 10 12  1  0  0  0  0
 10 13  1  0  0  0  0
 11 14  1  0  0  0  0
 12 15  1  0  0  0  0
 13 16  2  0  0  0  0
 13 17  1  0  0  0  0
 14 18  2  0  0  0  0
 15 19  2  0  0  0  0
 17 20  1  0  0  0  0
 19 21  1  0  0  0  0
 21 22  2  0  0  0  0
 21 23  1  0  0  0  0
 22 24  1  0  0  0  0
 22 25  1  0  0  0  0
 23 26  2  0  0  0  0
 24 27  2  0  0  0  0
 26 28  1  0  0  0  0
 28 29  2  0  0  0  0
 28 30  1  0  0  0  0
 30 31  1  0  0  0  0
 31 32  1  0  0  0  0
 31 33  1  0  0  0  0
 31 34  1  0  0  0  0
 32 35  2  0  0  0  0
 32 36  1  0  0  0  0
 35 37  1  0  0  0  0
 36 38  2  0  0  0  0
 37 39  2  0  0  0  0
  6  7  1  0  0  0  0
 11 12  2  0  0  0  0
 18 19  1  0  0  0  0
 26 27  1  0  0  0  0
 33 34  1  0  0  0  0
 38 39  1  0  0  0  0
M  END
>  <MolRegNo>
2228428

>  <m>
=

>  <Value>
2100

>  <Unit>
nM

>  <Type>
IC50

>  <pValue>
5.68

>  <Ligand Efficiency>
0

>  <Binding Efficiency>
0

>  <Surface Efficiency>
0

>  <Assay Index>
1083339

>  <Assay Category>


>  <Assay Organism>
Homo sapiens

>  <Target ID>
17045

>  <Target Name>
Cytochrome P450 3A4

>  <Target Organism>
Homo sapiens

>  <Target Description>
Target is a single protein chain

>  <Sequence Accession>
P08684

>  <Reference>
J Med Chem 60 (10), 4369-4385 (2017)

>  <Pubmed ID>
28430437

>  <DOI>
10.1021/acs.jmedchem.7b00328

$$$$
2221629
Actelion Java MolfileCreator 1.0

 36 38  0  0  0  0  0  0  0  0999 V2000
    0.0000   -0.0000   -0.0000 Cl  0  0  0  0  0  0  0  0  0  0  0  0
   -1.0670   -1.0552   -0.0000 C   0  0  0  0  0  0  0  0  0  0  0  0
    0.3794   -1.4227   -0.0000 F   0  0  0  0  0  0  0  0  0  0  0  0
   -2.2763   -0.2016   -0.0000 C   0  0  0  0  0  0  0  0  0  0  0  0
   -1.5176   -2.4897   -0.0000 C   0  0  0  0  0  0  0  0  0  0  0  0
   -3.5212   -1.0907   -0.0000 O   0  0  0  0  0  0  0  0  0  0  0  0
   -2.2882    1.3042   -0.0000 N   0  0  0  0  0  0  0  0  0  0  0  0
   -0.2727   -3.3434   -0.0000 O   0  0  0  0  0  0  0  0  0  0  0  0
   -3.0233   -2.5253   -0.0000 C   0  0  0  0  0  0  0  0  0  0  0  0
   -1.0196    2.0511   -0.0000 C   0  0  0  0  0  0  0  0  0  0  0  0
   -3.5805    2.0511   -0.0000 C   0  0  0  0  0  0  0  0  0  0  0  0
   -3.8769   -3.7465   -0.0000 C   0  0  0  0  0  0  0  0  0  0  0  0
    0.2727    1.3160   -0.0000 O   0  0  0  0  0  0  0  0  0  0  0  0
   -1.0196    3.5568   -0.0000 N   0  0  0  0  0  0  0  0  0  0  0  0
   -3.6042    3.5568   -0.0000 C   0  0  0  0  0  0  0  0  0  0  0  0
   -5.3352   -3.3315   -0.0000 O   0  0  0  0  0  0  0  0  0  0  0  0
   -2.3119    4.3037   -0.0000 C   0  0  0  0  0  0  0  0  0  0  0  0
   -6.4259   -4.3630   -0.0000 P   0  0  0  0  0  0  0  0  0  0  0  0
   -2.3238    5.8213   -0.0000 O   0  0  0  0  0  0  0  0  0  0  0  0
   -6.8290   -5.7976   -0.0000 O   0  0  0  0  0  0  0  0  0  0  0  0
   -5.3826   -5.4063   -0.0000 O   0  0  0  0  0  0  0  0  0  0  0  0
   -7.8723   -3.9599   -0.0000 N   0  0  0  0  0  0  0  0  0  0  0  0
   -5.7857   -6.8409   -0.0000 C   0  0  0  0  0  0  0  0  0  0  0  0
   -8.2636   -2.5016   -0.0000 C   0  0  0  0  0  0  0  0  0  0  0  0
   -7.2440   -7.2084   -0.0000 C   0  0  0  0  0  0  0  0  0  0  0  0
   -4.7424   -7.8842   -0.0000 C   0  0  0  0  0  0  0  0  0  0  0  0
   -9.7219   -2.0866   -0.0000 C   0  0  0  0  0  0  0  0  0  0  0  0
   -7.2084   -1.4346   -0.0000 C   0  0  0  0  0  0  0  0  0  0  0  0
   -7.6471   -8.6430   -0.0000 C   0  0  0  0  0  0  0  0  0  0  0  0
   -5.1336   -9.3188   -0.0000 C   0  0  0  0  0  0  0  0  0  0  0  0
  -10.8008   -3.1300   -0.0000 O   0  0  0  0  0  0  0  0  0  0  0  0
  -10.1131   -0.6284   -0.0000 O   0  0  0  0  0  0  0  0  0  0  0  0
   -6.6038   -9.6982   -0.0000 C   0  0  0  0  0  0  0  0  0  0  0  0
  -11.5714   -0.2134   -0.0000 C   0  0  0  0  0  0  0  0  0  0  0  0
  -11.9626    1.2449   -0.0000 C   0  0  0  0  0  0  0  0  0  0  0  0
  -12.6503   -1.2567   -0.0000 C   0  0  0  0  0  0  0  0  0  0  0  0
  2  1  1  1  0  0  0
  2  3  1  0  0  0  0
  2  4  1  0  0  0  0
  2  5  1  0  0  0  0
  4  6  1  0  0  0  0
  4  7  1  1  0  0  0
  5  8  1  6  0  0  0
  5  9  1  0  0  0  0
  7 10  1  0  0  0  0
  7 11  1  0  0  0  0
  9 12  1  1  0  0  0
 10 13  2  0  0  0  0
 10 14  1  0  0  0  0
 11 15  2  0  0  0  0
 12 16  1  0  0  0  0
 14 17  1  0  0  0  0
 16 18  1  0  0  0  0
 17 19  2  0  0  0  0
 18 20  2  0  0  0  0
 18 21  1  0  0  0  0
 18 22  1  0  0  0  0
 21 23  1  0  0  0  0
 24 22  1  6  0  0  0
 23 25  2  0  0  0  0
 23 26  1  0  0  0  0
 24 27  1  0  0  0  0
 24 28  1  0  0  0  0
 25 29  1  0  0  0  0
 26 30  2  0  0  0  0
 27 31  2  0  0  0  0
 27 32  1  0  0  0  0
 29 33  2  0  0  0  0
 32 34  1  0  0  0  0
 34 35  1  0  0  0  0
 34 36  1  0  0  0  0
  6  9  1  0  0  0  0
 15 17  1  0  0  0  0
 30 33  1  0  0  0  0
M  END
>  <MolRegNo>
2221629

>  <m>
=

>  <Value>
6800

>  <Unit>
nM

>  <Type>
IC50

>  <pValue>
5.17

>  <Ligand Efficiency>
0

>  <Binding Efficiency>
0

>  <Surface Efficiency>
0

>  <Assay Index>
1085107

>  <Assay Category>


>  <Assay Organism>
Homo sapiens

>  <Target ID>
17045

>  <Target Name>
Cytochrome P450 3A4

>  <Target Organism>
Homo sapiens

>  <Target Description>
Target is a single protein chain

>  <Sequence Accession>
P08684

>  <Reference>
J Med Chem 60 (13), 5424-5437 (2017)

>  <Pubmed ID>
28595015

>  <DOI>
10.1021/acs.jmedchem.7b00067

$$$$
708075
Actelion Java MolfileCreator 1.0

 36 38  0  0  0  0  0  0  0  0999 V2000
    0.0000   -0.0000   -0.0000 P   0  0  0  0  0  0  0  0  0  0  0  0
   -0.7582    1.3150   -0.0000 O   0  0  0  0  0  0  0  0  0  0  0  0
    1.2913    0.7582   -0.0000 O   0  0  0  0  0  0  0  0  0  0  0  0
    0.7464   -1.2795   -0.0000 O   0  0  0  0  0  0  0  0  0  0  0  0
   -1.3150   -0.7345   -0.0000 N   0  0  0  0  0  0  0  0  0  0  0  0
    1.2795    2.2746   -0.0000 C   0  0  0  0  0  0  0  0  0  0  0  0
    2.2391   -1.2676   -0.0000 C   0  0  0  0  0  0  0  0  0  0  0  0
   -2.6063    0.0592   -0.0000 C   0  0  0  0  0  0  0  0  0  0  0  0
   -0.0355    3.0447   -0.0000 C   0  0  0  0  0  0  0  0  0  0  0  0
    2.5708    3.0328   -0.0000 C   0  0  0  0  0  0  0  0  0  0  0  0
    3.0210   -2.5234   -0.0000 C   0  0  0  0  0  0  0  0  0  0  0  0
   -3.9095   -0.6990   -0.0000 C   0  0  0  0  0  0  0  0  0  0  0  0
   -2.6300    1.5756   -0.0000 C   0  0  0  0  0  0  0  0  0  0  0  0
   -0.0474    4.5611   -0.0000 C   0  0  0  0  0  0  0  0  0  0  0  0
    2.5589    4.5492   -0.0000 C   0  0  0  0  0  0  0  0  0  0  0  0
    4.5018   -2.6182   -0.0000 O   0  0  0  0  0  0  0  0  0  0  0  0
    2.4523   -3.9095   -0.0000 C   0  0  0  0  0  0  0  0  0  0  0  0
   -3.9332   -2.1917   -0.0000 O   0  0  0  0  0  0  0  0  0  0  0  0
   -5.2364    0.0355   -0.0000 O   0  0  0  0  0  0  0  0  0  0  0  0
    1.2439    5.3193   -0.0000 C   0  0  0  0  0  0  0  0  0  0  0  0
    4.8573   -4.0635   -0.0000 C   0  0  0  0  0  0  0  0  0  0  0  0
    0.9833   -4.2649   -0.0000 O   0  0  0  0  0  0  0  0  0  0  0  0
    3.5896   -4.8573   -0.0000 C   0  0  0  0  0  0  0  0  0  0  0  0
   -6.5632   -0.6753   -0.0000 C   0  0  0  0  0  0  0  0  0  0  0  0
    6.2433   -4.6085   -0.0000 N   0  0  0  0  0  0  0  0  0  0  0  0
    2.6063   -5.9827   -0.0000 F   0  0  0  0  0  0  0  0  0  0  0  0
    4.2767   -6.1723   -0.0000 C   0  0  0  0  0  0  0  0  0  0  0  0
   -7.8782    0.0829   -0.0000 C   0  0  0  0  0  0  0  0  0  0  0  0
   -6.5632   -2.1680   -0.0000 C   0  0  0  0  0  0  0  0  0  0  0  0
    7.4399   -3.7081   -0.0000 C   0  0  0  0  0  0  0  0  0  0  0  0
    6.3974   -6.0893   -0.0000 C   0  0  0  0  0  0  0  0  0  0  0  0
    7.1319   -2.2272   -0.0000 O   0  0  0  0  0  0  0  0  0  0  0  0
    8.8023   -4.3004   -0.0000 N   0  0  0  0  0  0  0  0  0  0  0  0
    7.7598   -6.6817   -0.0000 C   0  0  0  0  0  0  0  0  0  0  0  0
    8.9563   -5.7813   -0.0000 C   0  0  0  0  0  0  0  0  0  0  0  0
   10.3187   -6.3737   -0.0000 O   0  0  0  0  0  0  0  0  0  0  0  0
  1  2  2  0  0  0  0
  1  3  1  1  0  0  0
  1  4  1  0  0  0  0
  1  5  1  0  0  0  0
  3  6  1  0  0  0  0
  4  7  1  0  0  0  0
  8  5  1  6  0  0  0
  6  9  2  0  0  0  0
  6 10  1  0  0  0  0
 11  7  1  1  0  0  0
  8 12  1  0  0  0  0
  8 13  1  0  0  0  0
  9 14  1  0  0  0  0
 10 15  2  0  0  0  0
 11 16  1  0  0  0  0
 11 17  1  0  0  0  0
 12 18  2  0  0  0  0
 12 19  1  0  0  0  0
 14 20  2  0  0  0  0
 16 21  1  0  0  0  0
 17 22  1  6  0  0  0
 17 23  1  0  0  0  0
 19 24  1  0  0  0  0
 21 25  1  1  0  0  0
 23 26  1  6  0  0  0
 23 27  1  0  0  0  0
 24 28  1  0  0  0  0
 24 29  1  0  0  0  0
 25 30  1  0  0  0  0
 25 31  1  0  0  0  0
 30 32  2  0  0  0  0
 30 33  1  0  0  0  0
 31 34  2  0  0  0  0
 33 35  1  0  0  0  0
 35 36  2  0  0  0  0
 15 20  1  0  0  0  0
 21 23  1  0  0  0  0
 34 35  1  0  0  0  0
M  END
>  <MolRegNo>
708075

>  <m>
=

>  <Value>
8400

>  <Unit>
nM

>  <Type>
IC50

>  <pValue>
5.08

>  <Ligand Efficiency>
0

>  <Binding Efficiency>
0

>  <Surface Efficiency>
0

>  <Assay Index>
1085107

>  <Assay Category>


>  <Assay Organism>
Homo sapiens

>  <Target ID>
17045

>  <Target Name>
Cytochrome P450 3A4

>  <Target Organism>
Homo sapiens

>  <Target Description>
Target is a single protein chain

>  <Sequence Accession>
P08684

>  <Reference>
J Med Chem 60 (13), 5424-5437 (2017)

>  <Pubmed ID>
28595015

>  <DOI>
10.1021/acs.jmedchem.7b00067

$$$$
2219659
Actelion Java MolfileCreator 1.0

 33 36  0  0  0  0  0  0  0  0999 V2000
    0.0000   -0.0000   -0.0000 Cl  0  0  0  0  0  0  0  0  0  0  0  0
    1.2909    0.7579   -0.0000 C   0  0  0  0  0  0  0  0  0  0  0  0
    1.2909    2.2738   -0.0000 C   0  0  0  0  0  0  0  0  0  0  0  0
    2.5817    0.0118   -0.0000 C   0  0  0  0  0  0  0  0  0  0  0  0
   -0.0237    3.0436   -0.0000 N   0  0  0  0  0  0  0  0  0  0  0  0
    2.5699    3.0436   -0.0000 C   0  0  0  0  0  0  0  0  0  0  0  0
    3.8726    0.7698   -0.0000 C   0  0  0  0  0  0  0  0  0  0  0  0
   -1.3382    2.3093   -0.0000 C   0  0  0  0  0  0  0  0  0  0  0  0
    3.8607    2.3093   -0.0000 C   0  0  0  0  0  0  0  0  0  0  0  0
    5.1634    0.0355   -0.0000 S   0  0  0  0  0  0  0  0  0  0  0  0
   -2.6528    3.0791   -0.0000 C   0  0  0  0  0  0  0  0  0  0  0  0
    5.1516    3.0791   -0.0000 F   0  0  0  0  0  0  0  0  0  0  0  0
    5.8977   -1.2553   -0.0000 O   0  0  0  0  0  0  0  0  0  0  0  0
    4.3936   -1.2435   -0.0000 O   0  0  0  0  0  0  0  0  0  0  0  0
    6.4543    0.7935   -0.0000 N   0  0  0  0  0  0  0  0  0  0  0  0
   -3.9555    2.3449   -0.0000 N   0  0  0  0  0  0  0  0  0  0  0  0
   -2.6646    4.5950   -0.0000 C   0  0  0  0  0  0  0  0  0  0  0  0
    7.7451    0.0592   -0.0000 C   0  0  0  0  0  0  0  0  0  0  0  0
   -5.2700    3.1028   -0.0000 C   0  0  0  0  0  0  0  0  0  0  0  0
   -1.3738    5.3529   -0.0000 C   0  0  0  0  0  0  0  0  0  0  0  0
   -3.9673    5.3647   -0.0000 C   0  0  0  0  0  0  0  0  0  0  0  0
    9.1070    0.6869   -0.0000 S   0  0  0  0  0  0  0  0  0  0  0  0
    7.8991   -1.4211   -0.0000 N   0  0  0  0  0  0  0  0  0  0  0  0
   -5.2818    4.6187   -0.0000 C   0  0  0  0  0  0  0  0  0  0  0  0
   -0.0947    4.6068   -0.0000 C   0  0  0  0  0  0  0  0  0  0  0  0
   -1.3856    6.8569   -0.0000 C   0  0  0  0  0  0  0  0  0  0  0  0
   10.1018   -0.4145   -0.0000 C   0  0  0  0  0  0  0  0  0  0  0  0
    9.3557   -1.7172   -0.0000 C   0  0  0  0  0  0  0  0  0  0  0  0
    1.1961    5.3647   -0.0000 C   0  0  0  0  0  0  0  0  0  0  0  0
   -0.0947    7.6149   -0.0000 C   0  0  0  0  0  0  0  0  0  0  0  0
   11.5822   -0.2487   -0.0000 F   0  0  0  0  0  0  0  0  0  0  0  0
    1.1843    6.8806   -0.0000 C   0  0  0  0  0  0  0  0  0  0  0  0
    2.4751    7.6385   -0.0000 F   0  0  0  0  0  0  0  0  0  0  0  0
  1  2  1  0  0  0  0
  2  3  2  0  0  0  0
  2  4  1  0  0  0  0
  3  5  1  0  0  0  0
  3  6  1  0  0  0  0
  4  7  2  0  0  0  0
  5  8  1  0  0  0  0
  6  9  2  0  0  0  0
  7 10  1  0  0  0  0
 11  8  1  6  0  0  0
  9 12  1  0  0  0  0
 10 13  2  0  0  0  0
 10 14  2  0  0  0  0
 10 15  1  0  0  0  0
 11 16  1  0  0  0  0
 11 17  1  0  0  0  0
 15 18  1  0  0  0  0
 16 19  1  0  0  0  0
 17 20  1  0  0  0  0
 17 21  2  0  0  0  0
 18 22  1  0  0  0  0
 18 23  2  0  0  0  0
 19 24  1  0  0  0  0
 20 25  2  0  0  0  0
 20 26  1  0  0  0  0
 22 27  1  0  0  0  0
 23 28  1  0  0  0  0
 25 29  1  0  0  0  0
 26 30  2  0  0  0  0
 27 31  1  0  0  0  0
 29 32  2  0  0  0  0
 32 33  1  0  0  0  0
  7  9  1  0  0  0  0
 21 24  1  0  0  0  0
 27 28  2  0  0  0  0
 30 32  1  0  0  0  0
M  END
>  <MolRegNo>
2219659

>  <m>
=

>  <Value>
37500

>  <Unit>
nM

>  <Type>
IC50

>  <pValue>
4.43

>  <Ligand Efficiency>
0

>  <Binding Efficiency>
0

>  <Surface Efficiency>
0

>  <Assay Index>
1085419

>  <Assay Category>


>  <Assay Organism>
Homo sapiens

>  <Target ID>
17045

>  <Target Name>
Cytochrome P450 3A4

>  <Target Organism>
Homo sapiens

>  <Target Description>
Target is a single protein chain

>  <Sequence Accession>
P08684

>  <Reference>
Bioorg Med Chem Lett 27 (10), 2210-2215 (2017)

>  <Pubmed ID>
28385504

>  <DOI>
10.1016/j.bmcl.2017.03.043

$$$$
2230114
Actelion Java MolfileCreator 1.0

 33 36  0  0  0  0  0  0  0  0999 V2000
    0.0000   -0.0000   -0.0000 Cl  0  0  0  0  0  0  0  0  0  0  0  0
    1.2910    0.7580   -0.0000 C   0  0  0  0  0  0  0  0  0  0  0  0
    1.2910    2.2740   -0.0000 C   0  0  0  0  0  0  0  0  0  0  0  0
    2.5820    0.0118   -0.0000 C   0  0  0  0  0  0  0  0  0  0  0  0
   -0.0237    3.0439   -0.0000 N   0  0  0  0  0  0  0  0  0  0  0  0
    2.5701    3.0439   -0.0000 C   0  0  0  0  0  0  0  0  0  0  0  0
    3.8730    0.7699   -0.0000 C   0  0  0  0  0  0  0  0  0  0  0  0
   -1.3384    2.3096   -0.0000 C   0  0  0  0  0  0  0  0  0  0  0  0
    3.8611    2.3096   -0.0000 C   0  0  0  0  0  0  0  0  0  0  0  0
    5.1640    0.0355   -0.0000 S   0  0  0  0  0  0  0  0  0  0  0  0
   -2.6530    3.0794   -0.0000 C   0  0  0  0  0  0  0  0  0  0  0  0
    5.1521    3.0794   -0.0000 F   0  0  0  0  0  0  0  0  0  0  0  0
    5.8983   -1.2555   -0.0000 O   0  0  0  0  0  0  0  0  0  0  0  0
    4.4060   -1.2436   -0.0000 O   0  0  0  0  0  0  0  0  0  0  0  0
    6.4550    0.7935   -0.0000 N   0  0  0  0  0  0  0  0  0  0  0  0
   -3.9559    2.3451   -0.0000 N   0  0  0  0  0  0  0  0  0  0  0  0
   -2.6649    4.5955   -0.0000 C   0  0  0  0  0  0  0  0  0  0  0  0
    7.7460    0.0592   -0.0000 C   0  0  0  0  0  0  0  0  0  0  0  0
   -5.2706    3.1031   -0.0000 C   0  0  0  0  0  0  0  0  0  0  0  0
   -1.3739    5.3535   -0.0000 C   0  0  0  0  0  0  0  0  0  0  0  0
   -3.9677    5.3653   -0.0000 C   0  0  0  0  0  0  0  0  0  0  0  0
    9.1080    0.6870   -0.0000 S   0  0  0  0  0  0  0  0  0  0  0  0
    7.8999   -1.4213   -0.0000 N   0  0  0  0  0  0  0  0  0  0  0  0
   -5.2824    4.6191   -0.0000 C   0  0  0  0  0  0  0  0  0  0  0  0
   -0.0948    4.6073   -0.0000 C   0  0  0  0  0  0  0  0  0  0  0  0
   -1.3857    6.8577   -0.0000 C   0  0  0  0  0  0  0  0  0  0  0  0
   10.1029   -0.4145   -0.0000 C   0  0  0  0  0  0  0  0  0  0  0  0
    9.3567   -1.7174   -0.0000 C   0  0  0  0  0  0  0  0  0  0  0  0
    1.1962    5.3653   -0.0000 C   0  0  0  0  0  0  0  0  0  0  0  0
   -0.0948    7.6157   -0.0000 C   0  0  0  0  0  0  0  0  0  0  0  0
    9.9608   -3.0794   -0.0000 Cl  0  0  0  0  0  0  0  0  0  0  0  0
    1.1844    6.8813   -0.0000 C   0  0  0  0  0  0  0  0  0  0  0  0
    2.4754    7.6394   -0.0000 F   0  0  0  0  0  0  0  0  0  0  0  0
  1  2  1  0  0  0  0
  2  3  2  0  0  0  0
  2  4  1  0  0  0  0
  3  5  1  0  0  0  0
  3  6  1  0  0  0  0
  4  7  2  0  0  0  0
  5  8  1  0  0  0  0
  6  9  2  0  0  0  0
  7 10  1  0  0  0  0
 11  8  1  6  0  0  0
  9 12  1  0  0  0  0
 10 13  2  0  0  0  0
 10 14  2  0  0  0  0
 10 15  1  0  0  0  0
 11 16  1  0  0  0  0
 11 17  1  0  0  0  0
 15 18  1  0  0  0  0
 16 19  1  0  0  0  0
 17 20  1  0  0  0  0
 17 21  2  0  0  0  0
 18 22  1  0  0  0  0
 18 23  2  0  0  0  0
 19 24  1  0  0  0  0
 20 25  2  0  0  0  0
 20 26  1  0  0  0  0
 22 27  1  0  0  0  0
 23 28  1  0  0  0  0
 25 29  1  0  0  0  0
 26 30  2  0  0  0  0
 28 31  1  0  0  0  0
 29 32  2  0  0  0  0
 32 33  1  0  0  0  0
  7  9  1  0  0  0  0
 21 24  1  0  0  0  0
 27 28  2  0  0  0  0
 30 32  1  0  0  0  0
M  END
>  <MolRegNo>
2230114

>  <m>
=

>  <Value>
40100

>  <Unit>
nM

>  <Type>
IC50

>  <pValue>
4.4

>  <Ligand Efficiency>
0

>  <Binding Efficiency>
0

>  <Surface Efficiency>
0

>  <Assay Index>
1085419

>  <Assay Category>


>  <Assay Organism>
Homo sapiens

>  <Target ID>
17045

>  <Target Name>
Cytochrome P450 3A4

>  <Target Organism>
Homo sapiens

>  <Target Description>
Target is a single protein chain

>  <Sequence Accession>
P08684

>  <Reference>
Bioorg Med Chem Lett 27 (10), 2210-2215 (2017)

>  <Pubmed ID>
28385504

>  <DOI>
10.1016/j.bmcl.2017.03.043

$$$$
2215945
Actelion Java MolfileCreator 1.0

 26 29  0  0  0  0  0  0  0  0999 V2000
    0.0000   -0.0000   -0.0000 O   0  0  0  0  0  0  0  0  0  0  0  0
   -1.3042   -0.7470   -0.0000 C   0  0  0  0  0  0  0  0  0  0  0  0
    1.2923   -0.7351   -0.0000 C   0  0  0  0  0  0  0  0  0  0  0  0
   -2.6203    0.0119   -0.0000 C   0  0  0  0  0  0  0  0  0  0  0  0
   -1.3042   -2.2409   -0.0000 C   0  0  0  0  0  0  0  0  0  0  0  0
   -2.6440    1.5295   -0.0000 O   0  0  0  0  0  0  0  0  0  0  0  0
   -3.9363   -0.7470   -0.0000 C   0  0  0  0  0  0  0  0  0  0  0  0
   -2.6203   -2.9759   -0.0000 C   0  0  0  0  0  0  0  0  0  0  0  0
   -1.3635    2.3001   -0.0000 C   0  0  0  0  0  0  0  0  0  0  0  0
   -3.9363   -2.2290   -0.0000 C   0  0  0  0  0  0  0  0  0  0  0  0
   -2.6203   -4.4698   -0.0000 C   0  0  0  0  0  0  0  0  0  0  0  0
   -1.3279   -5.2049   -0.0000 N   0  0  0  0  0  0  0  0  0  0  0  0
   -1.3279   -6.6988   -0.0000 C   0  0  0  0  0  0  0  0  0  0  0  0
   -2.6321   -7.4458   -0.0000 C   0  0  0  0  0  0  0  0  0  0  0  0
   -0.0356   -7.4339   -0.0000 C   0  0  0  0  0  0  0  0  0  0  0  0
   -2.6440   -8.9397   -0.0000 C   0  0  0  0  0  0  0  0  0  0  0  0
   -3.9482   -6.6870   -0.0000 C   0  0  0  0  0  0  0  0  0  0  0  0
   -0.0474   -8.9278   -0.0000 C   0  0  0  0  0  0  0  0  0  0  0  0
    1.2449   -6.6633   -0.0000 C   0  0  0  0  0  0  0  0  0  0  0  0
   -1.3516   -9.6748   -0.0000 N   0  0  0  0  0  0  0  0  0  0  0  0
   -3.9600   -9.6866   -0.0000 C   0  0  0  0  0  0  0  0  0  0  0  0
   -5.2524   -7.4221   -0.0000 C   0  0  0  0  0  0  0  0  0  0  0  0
    1.2449   -9.6629   -0.0000 C   0  0  0  0  0  0  0  0  0  0  0  0
    2.5373   -7.4102   -0.0000 C   0  0  0  0  0  0  0  0  0  0  0  0
   -5.2761   -8.9278   -0.0000 C   0  0  0  0  0  0  0  0  0  0  0  0
    2.5373   -8.9041   -0.0000 C   0  0  0  0  0  0  0  0  0  0  0  0
  1  2  1  0  0  0  0
  1  3  1  0  0  0  0
  2  4  2  0  0  0  0
  2  5  1  0  0  0  0
  4  6  1  0  0  0  0
  4  7  1  0  0  0  0
  5  8  2  0  0  0  0
  6  9  1  0  0  0  0
  7 10  2  0  0  0  0
  8 11  1  0  0  0  0
 11 12  1  0  0  0  0
 12 13  1  0  0  0  0
 13 14  1  0  0  0  0
 13 15  2  0  0  0  0
 14 16  1  0  0  0  0
 14 17  2  0  0  0  0
 15 18  1  0  0  0  0
 15 19  1  0  0  0  0
 16 20  1  0  0  0  0
 16 21  2  0  0  0  0
 17 22  1  0  0  0  0
 18 23  1  0  0  0  0
 19 24  1  0  0  0  0
 21 25  1  0  0  0  0
 23 26  1  0  0  0  0
  8 10  1  0  0  0  0
 18 20  2  0  0  0  0
 22 25  2  0  0  0  0
 24 26  1  0  0  0  0
M  END
>  <MolRegNo>
2215945

>  <m>
=

>  <Value>
3700

>  <Unit>
nM

>  <Type>
IC50

>  <pValue>
5.43

>  <Ligand Efficiency>
0

>  <Binding Efficiency>
0

>  <Surface Efficiency>
0

>  <Assay Index>
1085627

>  <Assay Category>


>  <Assay Organism>
Homo sapiens

>  <Target ID>
17045

>  <Target Name>
Cytochrome P450 3A4

>  <Target Organism>
Homo sapiens

>  <Target Description>
Target is a single protein chain

>  <Sequence Accession>
P08684

>  <Reference>
Bioorg Med Chem Lett 27 (11), 2443-2449 (2017)

>  <Pubmed ID>
28400237

>  <DOI>
10.1016/j.bmcl.2017.04.006

$$$$
2210093
Actelion Java MolfileCreator 1.0

 27 30  0  0  0  0  0  0  0  0999 V2000
    0.0000   -0.0000   -0.0000 Cl  0  0  0  0  0  0  0  0  0  0  0  0
    1.2901    0.7575   -0.0000 C   0  0  0  0  0  0  0  0  0  0  0  0
    2.5801    0.0237   -0.0000 C   0  0  0  0  0  0  0  0  0  0  0  0
    1.2782    2.2724   -0.0000 C   0  0  0  0  0  0  0  0  0  0  0  0
    3.8702    0.7930   -0.0000 C   0  0  0  0  0  0  0  0  0  0  0  0
    2.5565    3.0299   -0.0000 C   0  0  0  0  0  0  0  0  0  0  0  0
    5.1603    0.0592   -0.0000 N   0  0  0  0  0  0  0  0  0  0  0  0
    3.8584    2.3079   -0.0000 C   0  0  0  0  0  0  0  0  0  0  0  0
    6.4385    0.8285   -0.0000 C   0  0  0  0  0  0  0  0  0  0  0  0
    5.1366    3.0772   -0.0000 C   0  0  0  0  0  0  0  0  0  0  0  0
    6.4267    2.3434   -0.0000 C   0  0  0  0  0  0  0  0  0  0  0  0
    7.7167    0.0947   -0.0000 C   0  0  0  0  0  0  0  0  0  0  0  0
    5.1129    4.5922   -0.0000 N   0  0  0  0  0  0  0  0  0  0  0  0
    7.7049    3.1127   -0.0000 C   0  0  0  0  0  0  0  0  0  0  0  0
    9.0068    0.8522   -0.0000 C   0  0  0  0  0  0  0  0  0  0  0  0
    3.7992    5.3496   -0.0000 C   0  0  0  0  0  0  0  0  0  0  0  0
    8.9950    2.3671   -0.0000 C   0  0  0  0  0  0  0  0  0  0  0  0
    3.7755    6.8646   -0.0000 C   0  0  0  0  0  0  0  0  0  0  0  0
    5.0656    7.6221   -0.0000 C   0  0  0  0  0  0  0  0  0  0  0  0
    2.4618    7.6102   -0.0000 C   0  0  0  0  0  0  0  0  0  0  0  0
    5.0419    9.1370   -0.0000 C   0  0  0  0  0  0  0  0  0  0  0  0
    2.4381    9.1133   -0.0000 C   0  0  0  0  0  0  0  0  0  0  0  0
    6.3202    9.9063   -0.0000 O   0  0  0  0  0  0  0  0  0  0  0  0
    3.7282    9.8945   -0.0000 C   0  0  0  0  0  0  0  0  0  0  0  0
    7.6102    9.1725   -0.0000 C   0  0  0  0  0  0  0  0  0  0  0  0
    3.7045   11.4094   -0.0000 O   0  0  0  0  0  0  0  0  0  0  0  0
    4.9827   12.1787   -0.0000 C   0  0  0  0  0  0  0  0  0  0  0  0
  1  2  1  0  0  0  0
  2  3  2  0  0  0  0
  2  4  1  0  0  0  0
  3  5  1  0  0  0  0
  4  6  2  0  0  0  0
  5  7  2  0  0  0  0
  5  8  1  0  0  0  0
  7  9  1  0  0  0  0
  8 10  2  0  0  0  0
  9 11  2  0  0  0  0
  9 12  1  0  0  0  0
 10 13  1  0  0  0  0
 11 14  1  0  0  0  0
 12 15  1  0  0  0  0
 13 16  1  0  0  0  0
 14 17  1  0  0  0  0
 16 18  1  0  0  0  0
 18 19  2  0  0  0  0
 18 20  1  0  0  0  0
 19 21  1  0  0  0  0
 20 22  2  0  0  0  0
 21 23  1  0  0  0  0
 21 24  2  0  0  0  0
 23 25  1  0  0  0  0
 24 26  1  0  0  0  0
 26 27  1  0  0  0  0
  6  8  1  0  0  0  0
 10 11  1  0  0  0  0
 15 17  1  0  0  0  0
 22 24  1  0  0  0  0
M  END
>  <MolRegNo>
2210093

>  <m>
=

>  <Value>
13800

>  <Unit>
nM

>  <Type>
IC50

>  <pValue>
4.86

>  <Ligand Efficiency>
0

>  <Binding Efficiency>
0

>  <Surface Efficiency>
0

>  <Assay Index>
1085627

>  <Assay Category>


>  <Assay Organism>
Homo sapiens

>  <Target ID>
17045

>  <Target Name>
Cytochrome P450 3A4

>  <Target Organism>
Homo sapiens

>  <Target Description>
Target is a single protein chain

>  <Sequence Accession>
P08684

>  <Reference>
Bioorg Med Chem Lett 27 (11), 2443-2449 (2017)

>  <Pubmed ID>
28400237

>  <DOI>
10.1016/j.bmcl.2017.04.006

$$$$
2214972
Actelion Java MolfileCreator 1.0

 23 26  0  0  0  0  0  0  0  0999 V2000
    0.0000   -0.0000   -0.0000 Cl  0  0  0  0  0  0  0  0  0  0  0  0
    1.2895    0.7571   -0.0000 C   0  0  0  0  0  0  0  0  0  0  0  0
    2.5790    0.0237   -0.0000 C   0  0  0  0  0  0  0  0  0  0  0  0
    1.2777    2.2714   -0.0000 C   0  0  0  0  0  0  0  0  0  0  0  0
    3.8685    0.7926   -0.0000 C   0  0  0  0  0  0  0  0  0  0  0  0
    2.5554    3.0286   -0.0000 C   0  0  0  0  0  0  0  0  0  0  0  0
    5.1580    0.0592   -0.0000 N   0  0  0  0  0  0  0  0  0  0  0  0
    3.8567    2.3069   -0.0000 C   0  0  0  0  0  0  0  0  0  0  0  0
    6.4357    0.8281   -0.0000 C   0  0  0  0  0  0  0  0  0  0  0  0
    5.1344    3.0759   -0.0000 C   0  0  0  0  0  0  0  0  0  0  0  0
    6.4239    2.3424   -0.0000 C   0  0  0  0  0  0  0  0  0  0  0  0
    7.7134    0.0946   -0.0000 C   0  0  0  0  0  0  0  0  0  0  0  0
    5.1107    4.5902   -0.0000 N   0  0  0  0  0  0  0  0  0  0  0  0
    7.7016    3.1114   -0.0000 C   0  0  0  0  0  0  0  0  0  0  0  0
    9.0029    0.8518   -0.0000 C   0  0  0  0  0  0  0  0  0  0  0  0
    3.7975    5.3473   -0.0000 C   0  0  0  0  0  0  0  0  0  0  0  0
    8.9911    2.3661   -0.0000 C   0  0  0  0  0  0  0  0  0  0  0  0
    3.7739    6.8616   -0.0000 C   0  0  0  0  0  0  0  0  0  0  0  0
    5.0634    7.6188   -0.0000 N   0  0  0  0  0  0  0  0  0  0  0  0
    2.4607    7.6069   -0.0000 C   0  0  0  0  0  0  0  0  0  0  0  0
    5.0397    9.1330   -0.0000 C   0  0  0  0  0  0  0  0  0  0  0  0
    2.4371    9.1094   -0.0000 C   0  0  0  0  0  0  0  0  0  0  0  0
    3.7266    9.8902   -0.0000 C   0  0  0  0  0  0  0  0  0  0  0  0
  1  2  1  0  0  0  0
  2  3  2  0  0  0  0
  2  4  1  0  0  0  0
  3  5  1  0  0  0  0
  4  6  2  0  0  0  0
  5  7  2  0  0  0  0
  5  8  1  0  0  0  0
  7  9  1  0  0  0  0
  8 10  2  0  0  0  0
  9 11  2  0  0  0  0
  9 12  1  0  0  0  0
 10 13  1  0  0  0  0
 11 14  1  0  0  0  0
 12 15  1  0  0  0  0
 13 16  1  0  0  0  0
 14 17  1  0  0  0  0
 16 18  1  0  0  0  0
 18 19  2  0  0  0  0
 18 20  1  0  0  0  0
 19 21  1  0  0  0  0
 20 22  2  0  0  0  0
 21 23  2  0  0  0  0
  6  8  1  0  0  0  0
 10 11  1  0  0  0  0
 15 17  1  0  0  0  0
 22 23  1  0  0  0  0
M  END
>  <MolRegNo>
2214972

>  <m>
=

>  <Value>
9100

>  <Unit>
nM

>  <Type>
IC50

>  <pValue>
5.04

>  <Ligand Efficiency>
0

>  <Binding Efficiency>
0

>  <Surface Efficiency>
0

>  <Assay Index>
1085627

>  <Assay Category>


>  <Assay Organism>
Homo sapiens

>  <Target ID>
17045

>  <Target Name>
Cytochrome P450 3A4

>  <Target Organism>
Homo sapiens

>  <Target Description>
Target is a single protein chain

>  <Sequence Accession>
P08684

>  <Reference>
Bioorg Med Chem Lett 27 (11), 2443-2449 (2017)

>  <Pubmed ID>
28400237

>  <DOI>
10.1016/j.bmcl.2017.04.006

$$$$
2208807
Actelion Java MolfileCreator 1.0

 35 38  0  0  0  0  0  0  0  0999 V2000
    0.0000   -0.0000   -0.0000 Cl  0  0  0  0  0  0  0  0  0  0  0  0
    1.2919   -0.7348   -0.0000 C   0  0  0  0  0  0  0  0  0  0  0  0
    1.2919   -2.2164   -0.0000 C   0  0  0  0  0  0  0  0  0  0  0  0
    2.5720    0.0356   -0.0000 C   0  0  0  0  0  0  0  0  0  0  0  0
    2.5838   -2.9512   -0.0000 C   0  0  0  0  0  0  0  0  0  0  0  0
   -0.0237   -2.9512   -0.0000 C   0  0  0  0  0  0  0  0  0  0  0  0
    2.5601    1.5408   -0.0000 O   0  0  0  0  0  0  0  0  0  0  0  0
    3.8757   -0.6993   -0.0000 C   0  0  0  0  0  0  0  0  0  0  0  0
    2.5720   -4.4447   -0.0000 Cl  0  0  0  0  0  0  0  0  0  0  0  0
    3.8757   -2.1927   -0.0000 C   0  0  0  0  0  0  0  0  0  0  0  0
   -1.3275   -2.2045   -0.0000 C   0  0  0  0  0  0  0  0  0  0  0  0
   -0.0356   -4.4447   -0.0000 C   0  0  0  0  0  0  0  0  0  0  0  0
    1.2445    2.2875   -0.0000 C   0  0  0  0  0  0  0  0  0  0  0  0
    5.1676   -2.9275   -0.0000 O   0  0  0  0  0  0  0  0  0  0  0  0
   -2.6312   -2.9394   -0.0000 C   0  0  0  0  0  0  0  0  0  0  0  0
   -1.3512   -5.1795   -0.0000 C   0  0  0  0  0  0  0  0  0  0  0  0
    6.4596   -2.1690   -0.0000 C   0  0  0  0  0  0  0  0  0  0  0  0
   -2.6431   -4.4209   -0.0000 C   0  0  0  0  0  0  0  0  0  0  0  0
   -3.9469   -2.1808   -0.0000 C   0  0  0  0  0  0  0  0  0  0  0  0
   -3.9587   -5.1676   -0.0000 N   0  0  0  0  0  0  0  0  0  0  0  0
   -5.2625   -2.9157   -0.0000 N   0  0  0  0  0  0  0  0  0  0  0  0
   -5.2743   -4.3972   -0.0000 C   0  0  0  0  0  0  0  0  0  0  0  0
   -6.5899   -5.1439   -0.0000 N   0  0  0  0  0  0  0  0  0  0  0  0
   -6.6018   -6.6373   -0.0000 C   0  0  0  0  0  0  0  0  0  0  0  0
   -7.9174   -7.3722   -0.0000 C   0  0  0  0  0  0  0  0  0  0  0  0
   -5.3099   -7.3840   -0.0000 C   0  0  0  0  0  0  0  0  0  0  0  0
   -9.2330   -6.6018   -0.0000 N   0  0  0  0  0  0  0  0  0  0  0  0
   -7.9293   -8.8656   -0.0000 C   0  0  0  0  0  0  0  0  0  0  0  0
   -5.3217   -8.8775   -0.0000 C   0  0  0  0  0  0  0  0  0  0  0  0
   -4.0180   -6.6136   -0.0000 C   0  0  0  0  0  0  0  0  0  0  0  0
  -10.5486   -7.3485   -0.0000 C   0  0  0  0  0  0  0  0  0  0  0  0
   -6.6373   -9.6123   -0.0000 C   0  0  0  0  0  0  0  0  0  0  0  0
  -11.8643   -6.5781   -0.0000 O   0  0  0  0  0  0  0  0  0  0  0  0
  -10.5605   -8.8419   -0.0000 C   0  0  0  0  0  0  0  0  0  0  0  0
   -9.2686   -9.5767   -0.0000 C   0  0  0  0  0  0  0  0  0  0  0  0
  1  2  1  0  0  0  0
  2  3  2  0  0  0  0
  2  4  1  0  0  0  0
  3  5  1  0  0  0  0
  3  6  1  0  0  0  0
  4  7  1  0  0  0  0
  4  8  2  0  0  0  0
  5  9  1  0  0  0  0
  5 10  2  0  0  0  0
  6 11  2  0  0  0  0
  6 12  1  0  0  0  0
  7 13  1  0  0  0  0
 10 14  1  0  0  0  0
 11 15  1  0  0  0  0
 12 16  2  0  0  0  0
 14 17  1  0  0  0  0
 15 18  1  0  0  0  0
 15 19  2  0  0  0  0
 18 20  2  0  0  0  0
 19 21  1  0  0  0  0
 20 22  1  0  0  0  0
 22 23  1  0  0  0  0
 23 24  1  0  0  0  0
 24 25  2  0  0  0  0
 24 26  1  0  0  0  0
 25 27  1  0  0  0  0
 25 28  1  0  0  0  0
 26 29  2  0  0  0  0
 26 30  1  0  0  0  0
 27 31  1  0  0  0  0
 28 32  2  0  0  0  0
 31 33  2  0  0  0  0
 31 34  1  0  0  0  0
 34 35  2  0  0  0  0
  8 10  1  0  0  0  0
 16 18  1  0  0  0  0
 21 22  2  0  0  0  0
 29 32  1  0  0  0  0
M  END
>  <MolRegNo>
2208807

>  <m>
=

>  <Value>
3000

>  <Unit>
nM

>  <Type>
IC50

>  <pValue>
5.52

>  <Ligand Efficiency>
0

>  <Binding Efficiency>
0

>  <Surface Efficiency>
0

>  <Assay Index>
1085958

>  <Assay Category>


>  <Assay Organism>
Homo sapiens

>  <Target ID>
17045

>  <Target Name>
Cytochrome P450 3A4

>  <Target Organism>
Homo sapiens

>  <Target Description>
Target is a single protein chain

>  <Sequence Accession>
P08684

>  <Reference>
Bioorg Med Chem Lett 27 (11), 2420-2423 (2017)

>  <Pubmed ID>
28433531

>  <DOI>
10.1016/j.bmcl.2017.04.014

$$$$
2229156
Actelion Java MolfileCreator 1.0

 33 35  0  0  0  0  0  0  0  0999 V2000
    0.0000   -0.0000   -0.0000 F   0  0  0  0  0  0  0  0  0  0  0  0
    1.2988   -0.7269   -0.0000 C   0  0  0  0  0  0  0  0  0  0  0  0
    2.5739    0.0477   -0.0000 C   0  0  0  0  0  0  0  0  0  0  0  0
    1.2988   -2.2164   -0.0000 C   0  0  0  0  0  0  0  0  0  0  0  0
    2.5500    1.5610   -0.0000 O   0  0  0  0  0  0  0  0  0  0  0  0
    3.8727   -0.6911   -0.0000 C   0  0  0  0  0  0  0  0  0  0  0  0
    2.5858   -2.9552   -0.0000 C   0  0  0  0  0  0  0  0  0  0  0  0
   -0.0119   -2.9671   -0.0000 C   0  0  0  0  0  0  0  0  0  0  0  0
    3.8370    2.3355   -0.0000 C   0  0  0  0  0  0  0  0  0  0  0  0
    3.8608   -2.1806   -0.0000 C   0  0  0  0  0  0  0  0  0  0  0  0
    2.5739   -4.4447   -0.0000 F   0  0  0  0  0  0  0  0  0  0  0  0
   -1.3346   -2.2045   -0.0000 O   0  0  0  0  0  0  0  0  0  0  0  0
    5.1597   -2.9194   -0.0000 O   0  0  0  0  0  0  0  0  0  0  0  0
   -2.6454   -2.9552   -0.0000 C   0  0  0  0  0  0  0  0  0  0  0  0
    6.4466   -2.1568   -0.0000 C   0  0  0  0  0  0  0  0  0  0  0  0
   -2.6573   -4.4447   -0.0000 C   0  0  0  0  0  0  0  0  0  0  0  0
   -3.9680   -2.1926   -0.0000 C   0  0  0  0  0  0  0  0  0  0  0  0
   -3.9680   -5.1835   -0.0000 N   0  0  0  0  0  0  0  0  0  0  0  0
   -5.2788   -2.9433   -0.0000 N   0  0  0  0  0  0  0  0  0  0  0  0
   -5.2788   -4.4209   -0.0000 C   0  0  0  0  0  0  0  0  0  0  0  0
   -6.5896   -5.1597   -0.0000 N   0  0  0  0  0  0  0  0  0  0  0  0
   -6.6015   -6.6492   -0.0000 C   0  0  0  0  0  0  0  0  0  0  0  0
   -7.9123   -7.3880   -0.0000 C   0  0  0  0  0  0  0  0  0  0  0  0
   -5.3146   -7.3880   -0.0000 C   0  0  0  0  0  0  0  0  0  0  0  0
   -9.2230   -6.6253   -0.0000 N   0  0  0  0  0  0  0  0  0  0  0  0
   -7.9242   -8.8894   -0.0000 C   0  0  0  0  0  0  0  0  0  0  0  0
   -5.3265   -8.8894   -0.0000 C   0  0  0  0  0  0  0  0  0  0  0  0
   -4.0276   -6.6253   -0.0000 C   0  0  0  0  0  0  0  0  0  0  0  0
  -10.5338   -7.3641   -0.0000 C   0  0  0  0  0  0  0  0  0  0  0  0
   -6.6372   -9.6282   -0.0000 C   0  0  0  0  0  0  0  0  0  0  0  0
  -10.5457   -8.8536   -0.0000 O   0  0  0  0  0  0  0  0  0  0  0  0
  -11.8446   -6.6015   -0.0000 C   0  0  0  0  0  0  0  0  0  0  0  0
  -13.1553   -7.3403   -0.0000 C   0  0  0  0  0  0  0  0  0  0  0  0
  1  2  1  0  0  0  0
  2  3  2  0  0  0  0
  2  4  1  0  0  0  0
  3  5  1  0  0  0  0
  3  6  1  0  0  0  0
  4  7  2  0  0  0  0
  4  8  1  0  0  0  0
  5  9  1  0  0  0  0
  6 10  2  0  0  0  0
  7 11  1  0  0  0  0
  8 12  1  0  0  0  0
 10 13  1  0  0  0  0
 12 14  1  0  0  0  0
 13 15  1  0  0  0  0
 14 16  2  0  0  0  0
 14 17  1  0  0  0  0
 16 18  1  0  0  0  0
 17 19  2  0  0  0  0
 18 20  2  0  0  0  0
 20 21  1  0  0  0  0
 21 22  1  0  0  0  0
 22 23  2  0  0  0  0
 22 24  1  0  0  0  0
 23 25  1  0  0  0  0
 23 26  1  0  0  0  0
 24 27  2  0  0  0  0
 24 28  1  0  0  0  0
 25 29  1  0  0  0  0
 26 30  2  0  0  0  0
 29 31  2  0  0  0  0
 29 32  1  0  0  0  0
 32 33  2  0  0  0  0
  7 10  1  0  0  0  0
 19 20  1  0  0  0  0
 27 30  1  0  0  0  0
M  END
>  <MolRegNo>
2229156

>  <m>
=

>  <Value>
6900

>  <Unit>
nM

>  <Type>
IC50

>  <pValue>
5.16

>  <Ligand Efficiency>
0

>  <Binding Efficiency>
0

>  <Surface Efficiency>
0

>  <Assay Index>
1085958

>  <Assay Category>


>  <Assay Organism>
Homo sapiens

>  <Target ID>
17045

>  <Target Name>
Cytochrome P450 3A4

>  <Target Organism>
Homo sapiens

>  <Target Description>
Target is a single protein chain

>  <Sequence Accession>
P08684

>  <Reference>
Bioorg Med Chem Lett 27 (11), 2420-2423 (2017)

>  <Pubmed ID>
28433531

>  <DOI>
10.1016/j.bmcl.2017.04.014

$$$$
2217770
Actelion Java MolfileCreator 1.0

 31 33  0  0  0  0  0  0  0  0999 V2000
    0.0000   -0.0000   -0.0000 F   0  0  0  0  0  0  0  0  0  0  0  0
    1.3023   -0.7340   -0.0000 C   0  0  0  0  0  0  0  0  0  0  0  0
    2.5810    0.0355   -0.0000 C   0  0  0  0  0  0  0  0  0  0  0  0
    1.3023   -2.2139   -0.0000 C   0  0  0  0  0  0  0  0  0  0  0  0
    2.5573    1.5509   -0.0000 O   0  0  0  0  0  0  0  0  0  0  0  0
    3.8833   -0.6985   -0.0000 C   0  0  0  0  0  0  0  0  0  0  0  0
    2.5928   -2.9480   -0.0000 C   0  0  0  0  0  0  0  0  0  0  0  0
   -0.0118   -2.9598   -0.0000 C   0  0  0  0  0  0  0  0  0  0  0  0
    3.8359    2.3205   -0.0000 C   0  0  0  0  0  0  0  0  0  0  0  0
    3.8714   -2.1903   -0.0000 C   0  0  0  0  0  0  0  0  0  0  0  0
    2.5810   -4.4397   -0.0000 F   0  0  0  0  0  0  0  0  0  0  0  0
   -1.3260   -2.2021   -0.0000 O   0  0  0  0  0  0  0  0  0  0  0  0
    5.1619   -2.9243   -0.0000 O   0  0  0  0  0  0  0  0  0  0  0  0
   -2.6402   -2.9480   -0.0000 C   0  0  0  0  0  0  0  0  0  0  0  0
    6.4406   -2.1547   -0.0000 C   0  0  0  0  0  0  0  0  0  0  0  0
   -2.6520   -4.4397   -0.0000 C   0  0  0  0  0  0  0  0  0  0  0  0
   -3.9662   -2.1903   -0.0000 C   0  0  0  0  0  0  0  0  0  0  0  0
   -3.9662   -5.1856   -0.0000 N   0  0  0  0  0  0  0  0  0  0  0  0
   -5.2685   -2.9361   -0.0000 N   0  0  0  0  0  0  0  0  0  0  0  0
   -5.2685   -4.4161   -0.0000 C   0  0  0  0  0  0  0  0  0  0  0  0
   -6.5826   -5.1619   -0.0000 N   0  0  0  0  0  0  0  0  0  0  0  0
   -6.5945   -6.6537   -0.0000 C   0  0  0  0  0  0  0  0  0  0  0  0
   -7.8139   -7.5298   -0.0000 C   0  0  0  0  0  0  0  0  0  0  0  0
   -5.3750   -7.5298   -0.0000 C   0  0  0  0  0  0  0  0  0  0  0  0
   -9.2583   -7.0562   -0.0000 N   0  0  0  0  0  0  0  0  0  0  0  0
   -7.3640   -8.9505   -0.0000 C   0  0  0  0  0  0  0  0  0  0  0  0
   -5.8486   -8.9505   -0.0000 O   0  0  0  0  0  0  0  0  0  0  0  0
  -10.3831   -8.0626   -0.0000 C   0  0  0  0  0  0  0  0  0  0  0  0
  -10.0752   -9.5188   -0.0000 O   0  0  0  0  0  0  0  0  0  0  0  0
  -11.8274   -7.6008   -0.0000 C   0  0  0  0  0  0  0  0  0  0  0  0
  -12.9403   -8.5953   -0.0000 C   0  0  0  0  0  0  0  0  0  0  0  0
  1  2  1  0  0  0  0
  2  3  2  0  0  0  0
  2  4  1  0  0  0  0
  3  5  1  0  0  0  0
  3  6  1  0  0  0  0
  4  7  2  0  0  0  0
  4  8  1  0  0  0  0
  5  9  1  0  0  0  0
  6 10  2  0  0  0  0
  7 11  1  0  0  0  0
  8 12  1  0  0  0  0
 10 13  1  0  0  0  0
 12 14  1  0  0  0  0
 13 15  1  0  0  0  0
 14 16  2  0  0  0  0
 14 17  1  0  0  0  0
 16 18  1  0  0  0  0
 17 19  2  0  0  0  0
 18 20  2  0  0  0  0
 20 21  1  0  0  0  0
 22 21  1  1  0  0  0
 22 23  1  0  0  0  0
 22 24  1  0  0  0  0
 23 25  1  1  0  0  0
 23 26  1  0  0  0  0
 24 27  1  0  0  0  0
 25 28  1  0  0  0  0
 28 29  2  0  0  0  0
 28 30  1  0  0  0  0
 30 31  2  0  0  0  0
  7 10  1  0  0  0  0
 19 20  1  0  0  0  0
 26 27  1  0  0  0  0
M  END
>  <MolRegNo>
2217770

>  <m>
=

>  <Value>
13300

>  <Unit>
nM

>  <Type>
IC50

>  <pValue>
4.88

>  <Ligand Efficiency>
0

>  <Binding Efficiency>
0

>  <Surface Efficiency>
0

>  <Assay Index>
1085958

>  <Assay Category>


>  <Assay Organism>
Homo sapiens

>  <Target ID>
17045

>  <Target Name>
Cytochrome P450 3A4

>  <Target Organism>
Homo sapiens

>  <Target Description>
Target is a single protein chain

>  <Sequence Accession>
P08684

>  <Reference>
Bioorg Med Chem Lett 27 (11), 2420-2423 (2017)

>  <Pubmed ID>
28433531

>  <DOI>
10.1016/j.bmcl.2017.04.014

$$$$
2203871
Actelion Java MolfileCreator 1.0

 23 26  0  0  0  0  0  0  0  0999 V2000
    0.0000   -0.0000   -0.0000 S   0  0  0  0  0  0  0  0  0  0  0  0
   -1.4463    0.4742   -0.0000 C   0  0  0  0  0  0  0  0  0  0  0  0
    0.8654    1.2329   -0.0000 C   0  0  0  0  0  0  0  0  0  0  0  0
   -1.4700    1.9916   -0.0000 C   0  0  0  0  0  0  0  0  0  0  0  0
   -2.7622   -0.2608   -0.0000 C   0  0  0  0  0  0  0  0  0  0  0  0
   -0.0356    2.4658   -0.0000 C   0  0  0  0  0  0  0  0  0  0  0  0
    2.3472    1.3989   -0.0000 C   0  0  0  0  0  0  0  0  0  0  0  0
   -2.7740    2.7503   -0.0000 C   0  0  0  0  0  0  0  0  0  0  0  0
   -4.0662    0.4979   -0.0000 C   0  0  0  0  0  0  0  0  0  0  0  0
    0.5572    3.8528   -0.0000 C   0  0  0  0  0  0  0  0  0  0  0  0
    2.9518    2.7859   -0.0000 N   0  0  0  0  0  0  0  0  0  0  0  0
   -4.0780    2.0153   -0.0000 C   0  0  0  0  0  0  0  0  0  0  0  0
    2.0509    4.0188   -0.0000 C   0  0  0  0  0  0  0  0  0  0  0  0
    4.4218    2.9518   -0.0000 C   0  0  0  0  0  0  0  0  0  0  0  0
   -5.3821    2.7740   -0.0000 F   0  0  0  0  0  0  0  0  0  0  0  0
    5.2872    1.7545   -0.0000 C   0  0  0  0  0  0  0  0  0  0  0  0
    4.6708    0.4031   -0.0000 C   0  0  0  0  0  0  0  0  0  0  0  0
    6.7572    1.9323   -0.0000 C   0  0  0  0  0  0  0  0  0  0  0  0
    5.5362   -0.7943   -0.0000 N   0  0  0  0  0  0  0  0  0  0  0  0
    7.6226    0.7469   -0.0000 C   0  0  0  0  0  0  0  0  0  0  0  0
    7.0180   -0.6283   -0.0000 C   0  0  0  0  0  0  0  0  0  0  0  0
    9.0926    0.9247   -0.0000 O   0  0  0  0  0  0  0  0  0  0  0  0
    9.9699   -0.2727   -0.0000 C   0  0  0  0  0  0  0  0  0  0  0  0
  1  2  1  0  0  0  0
  1  3  1  0  0  0  0
  2  4  2  0  0  0  0
  2  5  1  0  0  0  0
  3  6  2  0  0  0  0
  3  7  1  0  0  0  0
  4  8  1  0  0  0  0
  5  9  2  0  0  0  0
  6 10  1  0  0  0  0
  7 11  1  0  0  0  0
  8 12  2  0  0  0  0
 10 13  1  0  0  0  0
 11 14  1  0  0  0  0
 12 15  1  0  0  0  0
 14 16  1  0  0  0  0
 16 17  2  0  0  0  0
 16 18  1  0  0  0  0
 17 19  1  0  0  0  0
 18 20  2  0  0  0  0
 19 21  2  0  0  0  0
 20 22  1  0  0  0  0
 22 23  1  0  0  0  0
  4  6  1  0  0  0  0
  9 12  1  0  0  0  0
 11 13  1  0  0  0  0
 20 21  1  0  0  0  0
M  END
>  <MolRegNo>
2203871

>  <m>
=

>  <Value>
6526

>  <Unit>
nM

>  <Type>
IC50

>  <pValue>
5.18

>  <Ligand Efficiency>
0

>  <Binding Efficiency>
0

>  <Surface Efficiency>
0

>  <Assay Index>
1093015

>  <Assay Category>


>  <Assay Organism>
Homo sapiens

>  <Target ID>
17045

>  <Target Name>
Cytochrome P450 3A4

>  <Target Organism>
Homo sapiens

>  <Target Description>
Target is a single protein chain

>  <Sequence Accession>
P08684

>  <Reference>


>  <Pubmed ID>
28350999

>  <DOI>
10.1016/j.ejmech.2017.03.037

$$$$
2231637
Actelion Java MolfileCreator 1.0

 22 25  0  0  0  0  0  0  0  0999 V2000
    0.0000   -0.0000   -0.0000 S   0  0  0  0  0  0  0  0  0  0  0  0
   -1.4457    0.4740   -0.0000 C   0  0  0  0  0  0  0  0  0  0  0  0
    0.8650    1.2324   -0.0000 C   0  0  0  0  0  0  0  0  0  0  0  0
   -1.4694    1.9908   -0.0000 C   0  0  0  0  0  0  0  0  0  0  0  0
   -2.7610   -0.2607   -0.0000 C   0  0  0  0  0  0  0  0  0  0  0  0
   -0.0355    2.4648   -0.0000 C   0  0  0  0  0  0  0  0  0  0  0  0
    2.3463    1.3983   -0.0000 C   0  0  0  0  0  0  0  0  0  0  0  0
   -2.7729    2.7492   -0.0000 C   0  0  0  0  0  0  0  0  0  0  0  0
   -4.0645    0.4977   -0.0000 C   0  0  0  0  0  0  0  0  0  0  0  0
    0.5569    3.8512   -0.0000 C   0  0  0  0  0  0  0  0  0  0  0  0
    2.9506    2.7847   -0.0000 N   0  0  0  0  0  0  0  0  0  0  0  0
   -4.0763    2.0145   -0.0000 C   0  0  0  0  0  0  0  0  0  0  0  0
    2.0500    4.0171   -0.0000 C   0  0  0  0  0  0  0  0  0  0  0  0
    4.4200    2.9506   -0.0000 C   0  0  0  0  0  0  0  0  0  0  0  0
   -5.3798    2.7729   -0.0000 F   0  0  0  0  0  0  0  0  0  0  0  0
    5.2850    1.7538   -0.0000 C   0  0  0  0  0  0  0  0  0  0  0  0
    4.6688    0.4029   -0.0000 C   0  0  0  0  0  0  0  0  0  0  0  0
    6.7544    1.9315   -0.0000 C   0  0  0  0  0  0  0  0  0  0  0  0
    5.5339   -0.7939   -0.0000 N   0  0  0  0  0  0  0  0  0  0  0  0
    7.6194    0.7465   -0.0000 C   0  0  0  0  0  0  0  0  0  0  0  0
    7.0151   -0.6280   -0.0000 C   0  0  0  0  0  0  0  0  0  0  0  0
    9.0888    0.9243   -0.0000 F   0  0  0  0  0  0  0  0  0  0  0  0
  1  2  1  0  0  0  0
  1  3  1  0  0  0  0
  2  4  2  0  0  0  0
  2  5  1  0  0  0  0
  3  6  2  0  0  0  0
  3  7  1  0  0  0  0
  4  8  1  0  0  0  0
  5  9  2  0  0  0  0
  6 10  1  0  0  0  0
  7 11  1  0  0  0  0
  8 12  2  0  0  0  0
 10 13  1  0  0  0  0
 11 14  1  0  0  0  0
 12 15  1  0  0  0  0
 14 16  1  0  0  0  0
 16 17  2  0  0  0  0
 16 18  1  0  0  0  0
 17 19  1  0  0  0  0
 18 20  2  0  0  0  0
 19 21  2  0  0  0  0
 20 22  1  0  0  0  0
  4  6  1  0  0  0  0
  9 12  1  0  0  0  0
 11 13  1  0  0  0  0
 20 21  1  0  0  0  0
M  END
>  <MolRegNo>
2231637

>  <m>
=

>  <Value>
9032

>  <Unit>
nM

>  <Type>
IC50

>  <pValue>
5.04

>  <Ligand Efficiency>
0

>  <Binding Efficiency>
0

>  <Surface Efficiency>
0

>  <Assay Index>
1093015

>  <Assay Category>


>  <Assay Organism>
Homo sapiens

>  <Target ID>
17045

>  <Target Name>
Cytochrome P450 3A4

>  <Target Organism>
Homo sapiens

>  <Target Description>
Target is a single protein chain

>  <Sequence Accession>
P08684

>  <Reference>


>  <Pubmed ID>
28350999

>  <DOI>
10.1016/j.ejmech.2017.03.037

$$$$
2199691
Actelion Java MolfileCreator 1.0

 22 25  0  0  0  0  0  0  0  0999 V2000
    0.0000   -0.0000   -0.0000 S   0  0  0  0  0  0  0  0  0  0  0  0
   -1.4457    0.4740   -0.0000 C   0  0  0  0  0  0  0  0  0  0  0  0
    0.8650    1.2324   -0.0000 C   0  0  0  0  0  0  0  0  0  0  0  0
   -1.4694    1.9908   -0.0000 C   0  0  0  0  0  0  0  0  0  0  0  0
   -2.7610   -0.2607   -0.0000 C   0  0  0  0  0  0  0  0  0  0  0  0
   -0.0355    2.4647   -0.0000 C   0  0  0  0  0  0  0  0  0  0  0  0
    2.3462    1.3983   -0.0000 C   0  0  0  0  0  0  0  0  0  0  0  0
   -2.7728    2.7491   -0.0000 C   0  0  0  0  0  0  0  0  0  0  0  0
   -4.0645    0.4977   -0.0000 C   0  0  0  0  0  0  0  0  0  0  0  0
    0.5569    3.8512   -0.0000 C   0  0  0  0  0  0  0  0  0  0  0  0
    2.9506    2.7847   -0.0000 N   0  0  0  0  0  0  0  0  0  0  0  0
   -4.0763    2.0145   -0.0000 C   0  0  0  0  0  0  0  0  0  0  0  0
    2.0500    4.0171   -0.0000 C   0  0  0  0  0  0  0  0  0  0  0  0
    4.4199    2.9506   -0.0000 C   0  0  0  0  0  0  0  0  0  0  0  0
   -5.3798    2.7728   -0.0000 F   0  0  0  0  0  0  0  0  0  0  0  0
    5.2850    1.7538   -0.0000 C   0  0  0  0  0  0  0  0  0  0  0  0
    6.7543    1.9315   -0.0000 C   0  0  0  0  0  0  0  0  0  0  0  0
    4.6688    0.4029   -0.0000 C   0  0  0  0  0  0  0  0  0  0  0  0
    7.6194    0.7465   -0.0000 C   0  0  0  0  0  0  0  0  0  0  0  0
    7.3468    3.3061   -0.0000 C   0  0  0  0  0  0  0  0  0  0  0  0
    5.5338   -0.7939   -0.0000 N   0  0  0  0  0  0  0  0  0  0  0  0
    7.0032   -0.6162   -0.0000 C   0  0  0  0  0  0  0  0  0  0  0  0
  1  2  1  0  0  0  0
  1  3  1  0  0  0  0
  2  4  2  0  0  0  0
  2  5  1  0  0  0  0
  3  6  2  0  0  0  0
  3  7  1  0  0  0  0
  4  8  1  0  0  0  0
  5  9  2  0  0  0  0
  6 10  1  0  0  0  0
  7 11  1  0  0  0  0
  8 12  2  0  0  0  0
 10 13  1  0  0  0  0
 11 14  1  0  0  0  0
 12 15  1  0  0  0  0
 14 16  1  0  0  0  0
 16 17  2  0  0  0  0
 16 18  1  0  0  0  0
 17 19  1  0  0  0  0
 17 20  1  0  0  0  0
 18 21  2  0  0  0  0
 19 22  2  0  0  0  0
  4  6  1  0  0  0  0
  9 12  1  0  0  0  0
 11 13  1  0  0  0  0
 21 22  1  0  0  0  0
M  END
>  <MolRegNo>
2199691

>  <m>
=

>  <Value>
8561

>  <Unit>
nM

>  <Type>
IC50

>  <pValue>
5.07

>  <Ligand Efficiency>
0

>  <Binding Efficiency>
0

>  <Surface Efficiency>
0

>  <Assay Index>
1093015

>  <Assay Category>


>  <Assay Organism>
Homo sapiens

>  <Target ID>
17045

>  <Target Name>
Cytochrome P450 3A4

>  <Target Organism>
Homo sapiens

>  <Target Description>
Target is a single protein chain

>  <Sequence Accession>
P08684

>  <Reference>


>  <Pubmed ID>
28350999

>  <DOI>
10.1016/j.ejmech.2017.03.037

$$$$
2204052
Actelion Java MolfileCreator 1.0

 21 24  0  0  0  0  0  0  0  0999 V2000
    0.0000   -0.0000   -0.0000 S   0  0  0  0  0  0  0  0  0  0  0  0
   -1.4449    0.4737   -0.0000 C   0  0  0  0  0  0  0  0  0  0  0  0
    0.8646    1.2317   -0.0000 C   0  0  0  0  0  0  0  0  0  0  0  0
   -1.4686    1.9897   -0.0000 C   0  0  0  0  0  0  0  0  0  0  0  0
   -2.7595   -0.2606   -0.0000 C   0  0  0  0  0  0  0  0  0  0  0  0
   -0.0355    2.4634   -0.0000 C   0  0  0  0  0  0  0  0  0  0  0  0
    2.3450    1.3975   -0.0000 C   0  0  0  0  0  0  0  0  0  0  0  0
   -2.7713    2.7476   -0.0000 C   0  0  0  0  0  0  0  0  0  0  0  0
   -4.0622    0.4974   -0.0000 C   0  0  0  0  0  0  0  0  0  0  0  0
    0.5566    3.8491   -0.0000 C   0  0  0  0  0  0  0  0  0  0  0  0
    2.9490    2.7832   -0.0000 N   0  0  0  0  0  0  0  0  0  0  0  0
   -4.0741    2.0134   -0.0000 C   0  0  0  0  0  0  0  0  0  0  0  0
    2.0489    4.0149   -0.0000 C   0  0  0  0  0  0  0  0  0  0  0  0
    4.4175    2.9490   -0.0000 C   0  0  0  0  0  0  0  0  0  0  0  0
   -5.3769    2.7713   -0.0000 O   0  0  0  0  0  0  0  0  0  0  0  0
    5.2821    1.7528   -0.0000 C   0  0  0  0  0  0  0  0  0  0  0  0
    4.6663    0.4027   -0.0000 C   0  0  0  0  0  0  0  0  0  0  0  0
    6.7507    1.9305   -0.0000 C   0  0  0  0  0  0  0  0  0  0  0  0
    5.5308   -0.7935   -0.0000 N   0  0  0  0  0  0  0  0  0  0  0  0
    7.6152    0.7461   -0.0000 C   0  0  0  0  0  0  0  0  0  0  0  0
    7.0112   -0.6277   -0.0000 C   0  0  0  0  0  0  0  0  0  0  0  0
  1  2  1  0  0  0  0
  1  3  1  0  0  0  0
  2  4  2  0  0  0  0
  2  5  1  0  0  0  0
  3  6  2  0  0  0  0
  3  7  1  0  0  0  0
  4  8  1  0  0  0  0
  5  9  2  0  0  0  0
  6 10  1  0  0  0  0
  7 11  1  0  0  0  0
  8 12  2  0  0  0  0
 10 13  1  0  0  0  0
 11 14  1  0  0  0  0
 12 15  1  0  0  0  0
 14 16  1  0  0  0  0
 16 17  2  0  0  0  0
 16 18  1  0  0  0  0
 17 19  1  0  0  0  0
 18 20  2  0  0  0  0
 19 21  2  0  0  0  0
  4  6  1  0  0  0  0
  9 12  1  0  0  0  0
 11 13  1  0  0  0  0
 20 21  1  0  0  0  0
M  END
>  <MolRegNo>
2204052

>  <m>
=

>  <Value>
5282

>  <Unit>
nM

>  <Type>
IC50

>  <pValue>
5.28

>  <Ligand Efficiency>
0

>  <Binding Efficiency>
0

>  <Surface Efficiency>
0

>  <Assay Index>
1093015

>  <Assay Category>


>  <Assay Organism>
Homo sapiens

>  <Target ID>
17045

>  <Target Name>
Cytochrome P450 3A4

>  <Target Organism>
Homo sapiens

>  <Target Description>
Target is a single protein chain

>  <Sequence Accession>
P08684

>  <Reference>


>  <Pubmed ID>
28350999

>  <DOI>
10.1016/j.ejmech.2017.03.037

$$$$
2241523
Actelion Java MolfileCreator 1.0

 21 24  0  0  0  0  0  0  0  0999 V2000
    0.0000   -0.0000   -0.0000 S   0  0  0  0  0  0  0  0  0  0  0  0
   -1.4449    0.4737   -0.0000 C   0  0  0  0  0  0  0  0  0  0  0  0
    0.8646    1.2317   -0.0000 C   0  0  0  0  0  0  0  0  0  0  0  0
   -1.4686    1.9897   -0.0000 C   0  0  0  0  0  0  0  0  0  0  0  0
   -2.7595   -0.2606   -0.0000 C   0  0  0  0  0  0  0  0  0  0  0  0
   -0.0355    2.4634   -0.0000 C   0  0  0  0  0  0  0  0  0  0  0  0
    2.3450    1.3975   -0.0000 C   0  0  0  0  0  0  0  0  0  0  0  0
   -2.7713    2.7476   -0.0000 C   0  0  0  0  0  0  0  0  0  0  0  0
   -4.0622    0.4974   -0.0000 C   0  0  0  0  0  0  0  0  0  0  0  0
    0.5566    3.8491   -0.0000 C   0  0  0  0  0  0  0  0  0  0  0  0
    2.9490    2.7832   -0.0000 N   0  0  0  0  0  0  0  0  0  0  0  0
   -4.0741    2.0134   -0.0000 C   0  0  0  0  0  0  0  0  0  0  0  0
    2.0489    4.0149   -0.0000 C   0  0  0  0  0  0  0  0  0  0  0  0
    4.4175    2.9490   -0.0000 C   0  0  0  0  0  0  0  0  0  0  0  0
   -5.3769    2.7713   -0.0000 F   0  0  0  0  0  0  0  0  0  0  0  0
    5.2821    1.7528   -0.0000 C   0  0  0  0  0  0  0  0  0  0  0  0
    4.6663    0.4027   -0.0000 C   0  0  0  0  0  0  0  0  0  0  0  0
    6.7507    1.9305   -0.0000 C   0  0  0  0  0  0  0  0  0  0  0  0
    5.5308   -0.7935   -0.0000 N   0  0  0  0  0  0  0  0  0  0  0  0
    7.6152    0.7461   -0.0000 C   0  0  0  0  0  0  0  0  0  0  0  0
    7.0112   -0.6277   -0.0000 C   0  0  0  0  0  0  0  0  0  0  0  0
  1  2  1  0  0  0  0
  1  3  1  0  0  0  0
  2  4  2  0  0  0  0
  2  5  1  0  0  0  0
  3  6  2  0  0  0  0
  3  7  1  0  0  0  0
  4  8  1  0  0  0  0
  5  9  2  0  0  0  0
  6 10  1  0  0  0  0
  7 11  1  0  0  0  0
  8 12  2  0  0  0  0
 10 13  1  0  0  0  0
 11 14  1  0  0  0  0
 12 15  1  0  0  0  0
 14 16  1  0  0  0  0
 16 17  2  0  0  0  0
 16 18  1  0  0  0  0
 17 19  1  0  0  0  0
 18 20  2  0  0  0  0
 19 21  2  0  0  0  0
  4  6  1  0  0  0  0
  9 12  1  0  0  0  0
 11 13  1  0  0  0  0
 20 21  1  0  0  0  0
M  END
>  <MolRegNo>
2241523

>  <m>
=

>  <Value>
7897

>  <Unit>
nM

>  <Type>
IC50

>  <pValue>
5.1

>  <Ligand Efficiency>
0

>  <Binding Efficiency>
0

>  <Surface Efficiency>
0

>  <Assay Index>
1093015

>  <Assay Category>


>  <Assay Organism>
Homo sapiens

>  <Target ID>
17045

>  <Target Name>
Cytochrome P450 3A4

>  <Target Organism>
Homo sapiens

>  <Target Description>
Target is a single protein chain

>  <Sequence Accession>
P08684

>  <Reference>


>  <Pubmed ID>
28350999

>  <DOI>
10.1016/j.ejmech.2017.03.037

$$$$
2208713
Actelion Java MolfileCreator 1.0

 20 23  0  0  0  0  0  0  0  0999 V2000
    0.0000   -0.0000   -0.0000 S   0  0  0  0  0  0  0  0  0  0  0  0
   -1.4527    0.4724   -0.0000 C   0  0  0  0  0  0  0  0  0  0  0  0
    0.8504    1.2283   -0.0000 C   0  0  0  0  0  0  0  0  0  0  0  0
   -1.4764    1.9842   -0.0000 C   0  0  0  0  0  0  0  0  0  0  0  0
   -2.7637   -0.2598   -0.0000 C   0  0  0  0  0  0  0  0  0  0  0  0
   -0.0472    2.4567   -0.0000 C   0  0  0  0  0  0  0  0  0  0  0  0
    2.3267    1.4055   -0.0000 C   0  0  0  0  0  0  0  0  0  0  0  0
   -2.7874    2.7401   -0.0000 C   0  0  0  0  0  0  0  0  0  0  0  0
   -4.0747    0.4961   -0.0000 C   0  0  0  0  0  0  0  0  0  0  0  0
    0.5433    3.8385   -0.0000 C   0  0  0  0  0  0  0  0  0  0  0  0
    2.9291    2.7874   -0.0000 N   0  0  0  0  0  0  0  0  0  0  0  0
   -4.0866    2.0078   -0.0000 C   0  0  0  0  0  0  0  0  0  0  0  0
    2.0197    4.0157   -0.0000 C   0  0  0  0  0  0  0  0  0  0  0  0
    4.4054    2.9645   -0.0000 C   0  0  0  0  0  0  0  0  0  0  0  0
   -5.3976    2.7637   -0.0000 F   0  0  0  0  0  0  0  0  0  0  0  0
    5.2676    1.7598   -0.0000 C   0  0  0  0  0  0  0  0  0  0  0  0
    6.7558    1.7834   -0.0000 N   0  0  0  0  0  0  0  0  0  0  0  0
    4.8070    0.3543   -0.0000 C   0  0  0  0  0  0  0  0  0  0  0  0
    7.2046    0.3661   -0.0000 C   0  0  0  0  0  0  0  0  0  0  0  0
    5.9999   -0.5079   -0.0000 N   0  0  0  0  0  0  0  0  0  0  0  0
  1  2  1  0  0  0  0
  1  3  1  0  0  0  0
  2  4  2  0  0  0  0
  2  5  1  0  0  0  0
  3  6  2  0  0  0  0
  3  7  1  0  0  0  0
  4  8  1  0  0  0  0
  5  9  2  0  0  0  0
  6 10  1  0  0  0  0
  7 11  1  0  0  0  0
  8 12  2  0  0  0  0
 10 13  1  0  0  0  0
 11 14  1  0  0  0  0
 12 15  1  0  0  0  0
 14 16  1  0  0  0  0
 16 17  1  0  0  0  0
 16 18  2  0  0  0  0
 17 19  2  0  0  0  0
 18 20  1  0  0  0  0
  4  6  1  0  0  0  0
  9 12  1  0  0  0  0
 11 13  1  0  0  0  0
 19 20  1  0  0  0  0
M  END
>  <MolRegNo>
2208713

>  <m>
=

>  <Value>
685

>  <Unit>
nM

>  <Type>
IC50

>  <pValue>
6.16

>  <Ligand Efficiency>
0

>  <Binding Efficiency>
0

>  <Surface Efficiency>
0

>  <Assay Index>
1093015

>  <Assay Category>


>  <Assay Organism>
Homo sapiens

>  <Target ID>
17045

>  <Target Name>
Cytochrome P450 3A4

>  <Target Organism>
Homo sapiens

>  <Target Description>
Target is a single protein chain

>  <Sequence Accession>
P08684

>  <Reference>


>  <Pubmed ID>
28350999

>  <DOI>
10.1016/j.ejmech.2017.03.037

$$$$
2225919
Actelion Java MolfileCreator 1.0

 28 30  0  0  0  0  0  0  0  0999 V2000
    0.0000   -0.0000   -0.0000 Cl  0  0  0  0  0  0  0  0  0  0  0  0
   -7.5708   -0.2839   -0.0000 O   0  0  0  0  0  0  0  0  0  0  0  0
   -9.0850   -0.2721   -0.0000 C   0  0  0  0  0  0  0  0  0  0  0  0
   -7.1213    1.1593   -0.0000 C   0  0  0  0  0  0  0  0  0  0  0  0
   -9.5582    1.1593   -0.0000 C   0  0  0  0  0  0  0  0  0  0  0  0
  -10.0905   -1.3604   -0.0000 C   0  0  0  0  0  0  0  0  0  0  0  0
   -8.3516    2.0583   -0.0000 C   0  0  0  0  0  0  0  0  0  0  0  0
  -11.0250    1.4787   -0.0000 C   0  0  0  0  0  0  0  0  0  0  0  0
  -11.5574   -1.0410   -0.0000 C   0  0  0  0  0  0  0  0  0  0  0  0
   -8.3634    3.5725   -0.0000 C   0  0  0  0  0  0  0  0  0  0  0  0
  -12.0424    0.3785   -0.0000 C   0  0  0  0  0  0  0  0  0  0  0  0
   -7.0740    4.3296   -0.0000 N   0  0  0  0  0  0  0  0  0  0  0  0
   -5.7846    3.5961   -0.0000 C   0  0  0  0  0  0  0  0  0  0  0  0
   -7.0858    5.8437   -0.0000 C   0  0  0  0  0  0  0  0  0  0  0  0
   -4.4952    4.3532   -0.0000 C   0  0  0  0  0  0  0  0  0  0  0  0
   -3.2058    3.6198   -0.0000 C   0  0  0  0  0  0  0  0  0  0  0  0
   -1.9164    4.3769   -0.0000 C   0  0  0  0  0  0  0  0  0  0  0  0
   -1.9282    5.8792   -0.0000 C   0  0  0  0  0  0  0  0  0  0  0  0
   -0.6270    3.6316   -0.0000 C   0  0  0  0  0  0  0  0  0  0  0  0
   -0.6506    6.6481   -0.0000 C   0  0  0  0  0  0  0  0  0  0  0  0
    0.6506    4.3887   -0.0000 C   0  0  0  0  0  0  0  0  0  0  0  0
    0.6506    5.9147   -0.0000 C   0  0  0  0  0  0  0  0  0  0  0  0
    1.9400    6.6718   -0.0000 C   0  0  0  0  0  0  0  0  0  0  0  0
    3.2294    5.9265   -0.0000 C   0  0  0  0  0  0  0  0  0  0  0  0
    1.9282    8.1741   -0.0000 C   0  0  0  0  0  0  0  0  0  0  0  0
    4.5188    6.6836   -0.0000 C   0  0  0  0  0  0  0  0  0  0  0  0
    3.2058    8.9431   -0.0000 C   0  0  0  0  0  0  0  0  0  0  0  0
    4.5070    8.1978   -0.0000 C   0  0  0  0  0  0  0  0  0  0  0  0
  2  3  1  0  0  0  0
  2  4  1  0  0  0  0
  3  5  2  0  0  0  0
  3  6  1  0  0  0  0
  4  7  2  0  0  0  0
  5  8  1  0  0  0  0
  6  9  2  0  0  0  0
  7 10  1  0  0  0  0
  8 11  2  0  0  0  0
 10 12  1  0  0  0  0
 12 13  1  0  0  0  0
 12 14  1  0  0  0  0
 13 15  1  0  0  0  0
 15 16  2  0  0  0  0
 16 17  1  0  0  0  0
 17 18  2  0  0  0  0
 17 19  1  0  0  0  0
 18 20  1  0  0  0  0
 19 21  2  0  0  0  0
 20 22  2  0  0  0  0
 22 23  1  0  0  0  0
 23 24  2  0  0  0  0
 23 25  1  0  0  0  0
 24 26  1  0  0  0  0
 25 27  2  0  0  0  0
 26 28  2  0  0  0  0
  5  7  1  0  0  0  0
  9 11  1  0  0  0  0
 21 22  1  0  0  0  0
 27 28  1  0  0  0  0
M  END
>  <MolRegNo>
2225919

>  <m>
=

>  <Value>
10000

>  <Unit>
nM

>  <Type>
IC50

>  <pValue>
5

>  <Ligand Efficiency>
0

>  <Binding Efficiency>
0

>  <Surface Efficiency>
0

>  <Assay Index>
1095038

>  <Assay Category>


>  <Assay Organism>
Homo sapiens

>  <Target ID>
17045

>  <Target Name>
Cytochrome P450 3A4

>  <Target Organism>
Homo sapiens

>  <Target Description>
Target is a single protein chain

>  <Sequence Accession>
P08684

>  <Reference>
J Med Chem 61 (1), 224-250 (2018)

>  <Pubmed ID>
29243920

>  <DOI>
10.1021/acs.jmedchem.7b01300

$$$$
2216266
Actelion Java MolfileCreator 1.0

 41 44  0  0  0  0  0  0  0  0999 V2000
    0.0000   -0.0000   -0.0000 S   0  0  0  0  0  0  0  0  0  0  0  0
   -1.3815   -0.6074   -0.0000 C   0  0  0  0  0  0  0  0  0  0  0  0
    1.0004   -1.0957   -0.0000 C   0  0  0  0  0  0  0  0  0  0  0  0
   -1.2267   -2.0842   -0.0000 N   0  0  0  0  0  0  0  0  0  0  0  0
   -2.6916    0.1548   -0.0000 C   0  0  0  0  0  0  0  0  0  0  0  0
    0.2382   -2.3819   -0.0000 C   0  0  0  0  0  0  0  0  0  0  0  0
   -4.0016   -0.5836   -0.0000 N   0  0  0  0  0  0  0  0  0  0  0  0
   -2.7035    1.6673   -0.0000 C   0  0  0  0  0  0  0  0  0  0  0  0
    0.8456   -3.7396   -0.0000 C   0  0  0  0  0  0  0  0  0  0  0  0
   -5.3117    0.1786   -0.0000 C   0  0  0  0  0  0  0  0  0  0  0  0
   -1.4172    2.4296   -0.0000 C   0  0  0  0  0  0  0  0  0  0  0  0
   -4.0135    2.4296   -0.0000 C   0  0  0  0  0  0  0  0  0  0  0  0
   -0.0476   -4.9425   -0.0000 O   0  0  0  0  0  0  0  0  0  0  0  0
    2.3343   -3.8825   -0.0000 N   0  0  0  0  0  0  0  0  0  0  0  0
   -5.3236    1.6912   -0.0000 O   0  0  0  0  0  0  0  0  0  0  0  0
   -6.6218   -0.5598   -0.0000 C   0  0  0  0  0  0  0  0  0  0  0  0
    2.9417   -5.2402   -0.0000 C   0  0  0  0  0  0  0  0  0  0  0  0
   -7.9318    0.2025   -0.0000 C   0  0  0  0  0  0  0  0  0  0  0  0
   -6.6337   -2.0604   -0.0000 C   0  0  0  0  0  0  0  0  0  0  0  0
    4.4185   -5.3712   -0.0000 C   0  0  0  0  0  0  0  0  0  0  0  0
    2.0485   -6.4431   -0.0000 C   0  0  0  0  0  0  0  0  0  0  0  0
   -9.2419   -0.5359   -0.0000 C   0  0  0  0  0  0  0  0  0  0  0  0
   -7.9556   -2.7988   -0.0000 C   0  0  0  0  0  0  0  0  0  0  0  0
    5.2760   -4.1326   -0.0000 C   0  0  0  0  0  0  0  0  0  0  0  0
    5.0259   -6.7289   -0.0000 C   0  0  0  0  0  0  0  0  0  0  0  0
    2.6558   -7.8008   -0.0000 C   0  0  0  0  0  0  0  0  0  0  0  0
  -10.5519    0.2263   -0.0000 O   0  0  0  0  0  0  0  0  0  0  0  0
   -9.2538   -2.0365   -0.0000 C   0  0  0  0  0  0  0  0  0  0  0  0
   -7.9675   -4.2875   -0.0000 O   0  0  0  0  0  0  0  0  0  0  0  0
    4.6448   -2.7511   -0.0000 O   0  0  0  0  0  0  0  0  0  0  0  0
    6.7647   -4.2636   -0.0000 C   0  0  0  0  0  0  0  0  0  0  0  0
    4.1326   -7.9437   -0.0000 C   0  0  0  0  0  0  0  0  0  0  0  0
  -10.5638    1.7388   -0.0000 C   0  0  0  0  0  0  0  0  0  0  0  0
  -10.5638   -2.7749   -0.0000 O   0  0  0  0  0  0  0  0  0  0  0  0
   -9.2776   -5.0259   -0.0000 C   0  0  0  0  0  0  0  0  0  0  0  0
    7.3602   -5.6213   -0.0000 C   0  0  0  0  0  0  0  0  0  0  0  0
    7.6103   -3.0250   -0.0000 C   0  0  0  0  0  0  0  0  0  0  0  0
  -11.8739   -2.0127   -0.0000 C   0  0  0  0  0  0  0  0  0  0  0  0
    8.8369   -5.7524   -0.0000 C   0  0  0  0  0  0  0  0  0  0  0  0
    9.0871   -3.1561   -0.0000 C   0  0  0  0  0  0  0  0  0  0  0  0
    9.6944   -4.5138   -0.0000 C   0  0  0  0  0  0  0  0  0  0  0  0
  1  2  1  0  0  0  0
  1  3  1  0  0  0  0
  2  4  2  0  0  0  0
  2  5  1  0  0  0  0
  3  6  2  0  0  0  0
  5  7  1  0  0  0  0
  5  8  1  0  0  0  0
  6  9  1  0  0  0  0
  7 10  1  0  0  0  0
  8 11  1  0  0  0  0
  8 12  1  0  0  0  0
  9 13  2  0  0  0  0
  9 14  1  0  0  0  0
 10 15  2  0  0  0  0
 10 16  1  0  0  0  0
 14 17  1  0  0  0  0
 16 18  2  0  0  0  0
 16 19  1  0  0  0  0
 17 20  2  0  0  0  0
 17 21  1  0  0  0  0
 18 22  1  0  0  0  0
 19 23  2  0  0  0  0
 20 24  1  0  0  0  0
 20 25  1  0  0  0  0
 21 26  2  0  0  0  0
 22 27  1  0  0  0  0
 22 28  2  0  0  0  0
 23 29  1  0  0  0  0
 24 30  2  0  0  0  0
 24 31  1  0  0  0  0
 25 32  2  0  0  0  0
 27 33  1  0  0  0  0
 28 34  1  0  0  0  0
 29 35  1  0  0  0  0
 31 36  2  0  0  0  0
 31 37  1  0  0  0  0
 34 38  1  0  0  0  0
 36 39  1  0  0  0  0
 37 40  2  0  0  0  0
 39 41  2  0  0  0  0
  4  6  1  0  0  0  0
 23 28  1  0  0  0  0
 26 32  1  0  0  0  0
 40 41  1  0  0  0  0
M  END
>  <MolRegNo>
2216266

>  <m>
=

>  <Value>
8230

>  <Unit>
nM

>  <Type>
IC50

>  <pValue>
5.08

>  <Ligand Efficiency>
0

>  <Binding Efficiency>
0

>  <Surface Efficiency>
0

>  <Assay Index>
1095192

>  <Assay Category>


>  <Assay Organism>
Homo sapiens

>  <Target ID>
17045

>  <Target Name>
Cytochrome P450 3A4

>  <Target Organism>
Homo sapiens

>  <Target Description>
Target is a single protein chain

>  <Sequence Accession>
P08684

>  <Reference>
J Med Chem 61 (3), 834-864 (2018)

>  <Pubmed ID>
29251928

>  <DOI>
10.1021/acs.jmedchem.7b01340

$$$$
2232544
Actelion Java MolfileCreator 1.0

 50 55  0  0  0  0  0  0  0  0999 V2000
    0.0000   -0.0000   -0.0000 Cl  0  0  0  0  0  0  0  0  0  0  0  0
    0.4619    1.4330   -0.0000 C   0  0  0  0  0  0  0  0  0  0  0  0
    1.9067    1.7409   -0.0000 C   0  0  0  0  0  0  0  0  0  0  0  0
   -0.5329    2.5700   -0.0000 C   0  0  0  0  0  0  0  0  0  0  0  0
    2.3686    3.1503   -0.0000 C   0  0  0  0  0  0  0  0  0  0  0  0
   -0.0592    3.9911   -0.0000 C   0  0  0  0  0  0  0  0  0  0  0  0
    3.8253    3.4582   -0.0000 N   0  0  0  0  0  0  0  0  0  0  0  0
    1.3738    4.2872   -0.0000 C   0  0  0  0  0  0  0  0  0  0  0  0
    4.2872    4.9031   -0.0000 C   0  0  0  0  0  0  0  0  0  0  0  0
    1.8357    5.7084   -0.0000 C   0  0  0  0  0  0  0  0  0  0  0  0
    3.2806    6.0282   -0.0000 C   0  0  0  0  0  0  0  0  0  0  0  0
    0.8290    6.8453   -0.0000 N   0  0  0  0  0  0  0  0  0  0  0  0
   -0.6514    6.5611   -0.0000 C   0  0  0  0  0  0  0  0  0  0  0  0
   -1.6580    7.6980   -0.0000 C   0  0  0  0  0  0  0  0  0  0  0  0
   -3.1384    7.4138   -0.0000 C   0  0  0  0  0  0  0  0  0  0  0  0
   -4.1451    8.5508   -0.0000 C   0  0  0  0  0  0  0  0  0  0  0  0
   -5.6255    8.2665   -0.0000 N   0  0  0  0  0  0  0  0  0  0  0  0
   -6.6322    9.4035   -0.0000 C   0  0  0  0  0  0  0  0  0  0  0  0
   -8.1126    9.1192   -0.0000 C   0  0  0  0  0  0  0  0  0  0  0  0
   -9.1192   10.2562   -0.0000 C   0  0  0  0  0  0  0  0  0  0  0  0
  -10.5996    9.9719   -0.0000 C   0  0  0  0  0  0  0  0  0  0  0  0
  -11.0852    8.5626   -0.0000 C   0  0  0  0  0  0  0  0  0  0  0  0
  -11.6063   11.1089   -0.0000 C   0  0  0  0  0  0  0  0  0  0  0  0
  -12.5182    8.1244   -0.0000 C   0  0  0  0  0  0  0  0  0  0  0  0
  -10.2325    7.3546   -0.0000 C   0  0  0  0  0  0  0  0  0  0  0  0
  -13.8210    8.8942   -0.0000 C   0  0  0  0  0  0  0  0  0  0  0  0
  -12.5419    6.6440   -0.0000 C   0  0  0  0  0  0  0  0  0  0  0  0
  -12.5419    9.6403   -0.0000 C   0  0  0  0  0  0  0  0  0  0  0  0
  -11.1326    6.1703   -0.0000 C   0  0  0  0  0  0  0  0  0  0  0  0
  -13.8091   10.3983   -0.0000 O   0  0  0  0  0  0  0  0  0  0  0  0
  -15.1474    8.1718   -0.0000 C   0  0  0  0  0  0  0  0  0  0  0  0
  -13.8565    5.9216   -0.0000 C   0  0  0  0  0  0  0  0  0  0  0  0
  -15.1119   11.1799   -0.0000 C   0  0  0  0  0  0  0  0  0  0  0  0
  -15.1711    6.6914   -0.0000 C   0  0  0  0  0  0  0  0  0  0  0  0
  -13.8683    4.4412   -0.0000 C   0  0  0  0  0  0  0  0  0  0  0  0
  -15.1000   12.6840   -0.0000 O   0  0  0  0  0  0  0  0  0  0  0  0
  -16.4264   10.4575   -0.0000 C   0  0  0  0  0  0  0  0  0  0  0  0
  -16.4738    5.9571   -0.0000 C   0  0  0  0  0  0  0  0  0  0  0  0
  -12.5893    3.6951   -0.0000 O   0  0  0  0  0  0  0  0  0  0  0  0
  -15.1829    3.7187   -0.0000 C   0  0  0  0  0  0  0  0  0  0  0  0
  -16.4975    4.4767   -0.0000 C   0  0  0  0  0  0  0  0  0  0  0  0
  -17.7766    6.7269   -0.0000 C   0  0  0  0  0  0  0  0  0  0  0  0
  -16.4975    7.4612   -0.0000 C   0  0  0  0  0  0  0  0  0  0  0  0
  -12.6011    2.2147   -0.0000 C   0  0  0  0  0  0  0  0  0  0  0  0
  -17.8002    3.7424   -0.0000 C   0  0  0  0  0  0  0  0  0  0  0  0
  -19.0793    5.9808   -0.0000 C   0  0  0  0  0  0  0  0  0  0  0  0
  -13.9157    1.4804   -0.0000 O   0  0  0  0  0  0  0  0  0  0  0  0
  -11.3220    1.4686   -0.0000 C   0  0  0  0  0  0  0  0  0  0  0  0
  -19.1030    4.5004   -0.0000 C   0  0  0  0  0  0  0  0  0  0  0  0
  -20.4057    3.7661   -0.0000 N   0  0  0  0  0  0  0  0  0  0  0  0
  1  2  1  0  0  0  0
  2  3  2  0  0  0  0
  2  4  1  0  0  0  0
  3  5  1  0  0  0  0
  4  6  2  0  0  0  0
  5  7  2  0  0  0  0
  5  8  1  0  0  0  0
  7  9  1  0  0  0  0
  8 10  2  0  0  0  0
  9 11  2  0  0  0  0
 10 12  1  0  0  0  0
 12 13  1  0  0  0  0
 13 14  1  0  0  0  0
 14 15  1  0  0  0  0
 15 16  1  0  0  0  0
 16 17  1  0  0  0  0
 17 18  1  0  0  0  0
 18 19  1  0  0  0  0
 19 20  1  0  0  0  0
 20 21  1  0  0  0  0
 21 22  1  0  0  0  0
 21 23  1  6  0  0  0
 22 24  1  0  0  0  0
 22 25  1  1  0  0  0
 24 26  1  0  0  0  0
 24 27  1  0  0  0  0
 24 28  1  1  0  0  0
 25 29  1  0  0  0  0
 26 30  1  6  0  0  0
 26 31  1  0  0  0  0
 32 27  1  6  0  0  0
 30 33  1  0  0  0  0
 34 31  1  1  0  0  0
 32 35  1  0  0  0  0
 33 36  2  0  0  0  0
 33 37  1  0  0  0  0
 34 38  1  0  0  0  0
 35 39  1  6  0  0  0
 35 40  1  0  0  0  0
 38 41  1  0  0  0  0
 38 42  1  0  0  0  0
 38 43  1  1  0  0  0
 39 44  1  0  0  0  0
 41 45  1  6  0  0  0
 42 46  1  0  0  0  0
 44 47  2  0  0  0  0
 44 48  1  0  0  0  0
 45 49  1  0  0  0  0
 49 50  1  6  0  0  0
  6  8  1  0  0  0  0
 10 11  1  0  0  0  0
 27 29  1  1  0  0  0
 32 34  1  0  0  0  0
 40 41  1  0  0  0  0
 46 49  1  0  0  0  0
M  END
>  <MolRegNo>
2232544

>  <m>
=

>  <Value>
1100

>  <Unit>
nM

>  <Type>
IC50

>  <pValue>
5.96

>  <Ligand Efficiency>
0

>  <Binding Efficiency>
0

>  <Surface Efficiency>
0

>  <Assay Index>
1096061

>  <Assay Category>


>  <Assay Organism>
Homo sapiens

>  <Target ID>
17045

>  <Target Name>
Cytochrome P450 3A4

>  <Target Organism>
Homo sapiens

>  <Target Description>
Target is a single protein chain

>  <Sequence Accession>
P08684

>  <Reference>
J Med Chem 61 (4), 1595-1608 (2018)

>  <Pubmed ID>
29385334

>  <DOI>
10.1021/acs.jmedchem.7b01710

$$$$
2206911
Actelion Java MolfileCreator 1.0

 23 25  0  0  0  0  0  0  0  0999 V2000
    0.0000   -0.0000   -0.0000 F   0  0  0  0  0  0  0  0  0  0  0  0
    0.9906    1.1321   -0.0000 C   0  0  0  0  0  0  0  0  0  0  0  0
    2.4412    0.8373   -0.0000 F   0  0  0  0  0  0  0  0  0  0  0  0
    1.3680   -0.2948   -0.0000 F   0  0  0  0  0  0  0  0  0  0  0  0
    0.5189    2.5709   -0.0000 C   0  0  0  0  0  0  0  0  0  0  0  0
    1.4977    3.6912   -0.0000 C   0  0  0  0  0  0  0  0  0  0  0  0
   -0.9434    2.8893   -0.0000 C   0  0  0  0  0  0  0  0  0  0  0  0
    1.0260    5.1300   -0.0000 C   0  0  0  0  0  0  0  0  0  0  0  0
    2.9836    3.7030   -0.0000 C   0  0  0  0  0  0  0  0  0  0  0  0
   -1.4270    4.3280   -0.0000 C   0  0  0  0  0  0  0  0  0  0  0  0
    2.2171    6.0262   -0.0000 N   0  0  0  0  0  0  0  0  0  0  0  0
   -0.4481    5.4484   -0.0000 C   0  0  0  0  0  0  0  0  0  0  0  0
    3.4436    5.1418   -0.0000 N   0  0  0  0  0  0  0  0  0  0  0  0
    2.2053    7.5357   -0.0000 C   0  0  0  0  0  0  0  0  0  0  0  0
    0.9081    8.2787   -0.0000 C   0  0  0  0  0  0  0  0  0  0  0  0
    3.4907    8.2905   -0.0000 C   0  0  0  0  0  0  0  0  0  0  0  0
    0.8845    9.7882   -0.0000 N   0  0  0  0  0  0  0  0  0  0  0  0
    3.4789    9.8000   -0.0000 C   0  0  0  0  0  0  0  0  0  0  0  0
    2.1699   10.5548   -0.0000 C   0  0  0  0  0  0  0  0  0  0  0  0
    4.7526   10.5666   -0.0000 C   0  0  0  0  0  0  0  0  0  0  0  0
    6.0380    9.8354   -0.0000 O   0  0  0  0  0  0  0  0  0  0  0  0
    3.9860   11.8756   -0.0000 C   0  0  0  0  0  0  0  0  0  0  0  0
    5.4838   11.8874   -0.0000 C   0  0  0  0  0  0  0  0  0  0  0  0
  1  2  1  0  0  0  0
  2  3  1  0  0  0  0
  2  4  1  0  0  0  0
  2  5  1  0  0  0  0
  5  6  2  0  0  0  0
  5  7  1  0  0  0  0
  6  8  1  0  0  0  0
  6  9  1  0  0  0  0
  7 10  2  0  0  0  0
  8 11  1  0  0  0  0
  8 12  2  0  0  0  0
  9 13  2  0  0  0  0
 11 14  1  0  0  0  0
 14 15  2  0  0  0  0
 14 16  1  0  0  0  0
 15 17  1  0  0  0  0
 16 18  2  0  0  0  0
 17 19  2  0  0  0  0
 18 20  1  0  0  0  0
 20 21  1  0  0  0  0
 20 22  1  0  0  0  0
 20 23  1  0  0  0  0
 10 12  1  0  0  0  0
 11 13  1  0  0  0  0
 18 19  1  0  0  0  0
M  END
>  <MolRegNo>
2206911

>  <m>
=

>  <Value>
43000

>  <Unit>
nM

>  <Type>
IC50

>  <pValue>
4.37

>  <Ligand Efficiency>
0

>  <Binding Efficiency>
0

>  <Surface Efficiency>
0

>  <Assay Index>
1097201

>  <Assay Category>


>  <Assay Organism>
Homo sapiens

>  <Target ID>
17045

>  <Target Name>
Cytochrome P450 3A4

>  <Target Organism>
Homo sapiens

>  <Target Description>
Target is a single protein chain

>  <Sequence Accession>
P08684

>  <Reference>
Bioorg Med Chem Lett 27 (11), 2384-2388 (2017)

>  <Pubmed ID>
28416132

>  <DOI>
10.1016/j.bmcl.2017.04.021

$$$$
2210603
Actelion Java MolfileCreator 1.0

 28 31  0  0  0  0  0  0  0  0999 V2000
    0.0000   -0.0000   -0.0000 S   0  0  0  0  0  0  0  0  0  0  0  0
   -1.4465    0.4743   -0.0000 C   0  0  0  0  0  0  0  0  0  0  0  0
    0.8655    1.2331   -0.0000 C   0  0  0  0  0  0  0  0  0  0  0  0
   -2.7625   -0.2727   -0.0000 N   0  0  0  0  0  0  0  0  0  0  0  0
   -1.4702    1.9919   -0.0000 C   0  0  0  0  0  0  0  0  0  0  0  0
   -0.0356    2.4542   -0.0000 C   0  0  0  0  0  0  0  0  0  0  0  0
    2.3594    1.2568   -0.0000 C   0  0  0  0  0  0  0  0  0  0  0  0
   -4.0786    0.4861   -0.0000 N   0  0  0  0  0  0  0  0  0  0  0  0
   -2.7862    2.7507   -0.0000 C   0  0  0  0  0  0  0  0  0  0  0  0
    0.4031    3.9007   -0.0000 N   0  0  0  0  0  0  0  0  0  0  0  0
    3.0945    2.5728   -0.0000 O   0  0  0  0  0  0  0  0  0  0  0  0
    3.1063   -0.0237   -0.0000 N   0  0  0  0  0  0  0  0  0  0  0  0
   -4.0904    2.0037   -0.0000 C   0  0  0  0  0  0  0  0  0  0  0  0
   -2.7981    4.2683   -0.0000 C   0  0  0  0  0  0  0  0  0  0  0  0
    4.6002   -0.0000   -0.0000 C   0  0  0  0  0  0  0  0  0  0  0  0
   -5.4065    2.7625   -0.0000 C   0  0  0  0  0  0  0  0  0  0  0  0
    5.3472   -1.2805   -0.0000 C   0  0  0  0  0  0  0  0  0  0  0  0
    4.5884   -2.5610   -0.0000 C   0  0  0  0  0  0  0  0  0  0  0  0
    6.8292   -1.2449   -0.0000 C   0  0  0  0  0  0  0  0  0  0  0  0
    5.3353   -3.8414   -0.0000 C   0  0  0  0  0  0  0  0  0  0  0  0
    7.5761   -2.5254   -0.0000 C   0  0  0  0  0  0  0  0  0  0  0  0
    6.8292   -3.8177   -0.0000 C   0  0  0  0  0  0  0  0  0  0  0  0
    7.5761   -5.0982   -0.0000 C   0  0  0  0  0  0  0  0  0  0  0  0
    6.8173   -6.3905   -0.0000 C   0  0  0  0  0  0  0  0  0  0  0  0
    9.0582   -5.0626   -0.0000 C   0  0  0  0  0  0  0  0  0  0  0  0
    7.5643   -7.6710   -0.0000 C   0  0  0  0  0  0  0  0  0  0  0  0
    9.8051   -6.3431   -0.0000 C   0  0  0  0  0  0  0  0  0  0  0  0
    9.0582   -7.6473   -0.0000 N   0  0  0  0  0  0  0  0  0  0  0  0
  1  2  1  0  0  0  0
  1  3  1  0  0  0  0
  2  4  2  0  0  0  0
  2  5  1  0  0  0  0
  3  6  2  0  0  0  0
  3  7  1  0  0  0  0
  4  8  1  0  0  0  0
  5  9  2  0  0  0  0
  6 10  1  0  0  0  0
  7 11  2  0  0  0  0
  7 12  1  0  0  0  0
  8 13  2  0  0  0  0
  9 14  1  0  0  0  0
 12 15  1  0  0  0  0
 13 16  1  0  0  0  0
 15 17  1  0  0  0  0
 17 18  2  0  0  0  0
 17 19  1  0  0  0  0
 18 20  1  0  0  0  0
 19 21  2  0  0  0  0
 20 22  2  0  0  0  0
 22 23  1  0  0  0  0
 23 24  2  0  0  0  0
 23 25  1  0  0  0  0
 24 26  1  0  0  0  0
 25 27  2  0  0  0  0
 26 28  2  0  0  0  0
  5  6  1  0  0  0  0
  9 13  1  0  0  0  0
 21 22  1  0  0  0  0
 27 28  1  0  0  0  0
M  END
>  <MolRegNo>
2210603

>  <m>
=

>  <Value>
340

>  <Unit>
nM

>  <Type>
IC50

>  <pValue>
6.47

>  <Ligand Efficiency>
0

>  <Binding Efficiency>
0

>  <Surface Efficiency>
0

>  <Assay Index>
1097403

>  <Assay Category>


>  <Assay Organism>
Homo sapiens

>  <Target ID>
17045

>  <Target Name>
Cytochrome P450 3A4

>  <Target Organism>
Homo sapiens

>  <Target Description>
Target is a single protein chain

>  <Sequence Accession>
P08684

>  <Reference>
Bioorg Med Chem Lett 27 (11), 2296-2301 (2017)

>  <Pubmed ID>
28442253

>  <DOI>
10.1016/j.bmcl.2017.04.043

$$$$
2234350
Actelion Java MolfileCreator 1.0

 29 32  0  0  0  0  0  0  0  0999 V2000
    0.0000   -0.0000   -0.0000 S   0  0  0  0  0  0  0  0  0  0  0  0
   -1.4466    0.4743   -0.0000 C   0  0  0  0  0  0  0  0  0  0  0  0
    0.8656    1.2332   -0.0000 C   0  0  0  0  0  0  0  0  0  0  0  0
   -2.7628   -0.2727   -0.0000 N   0  0  0  0  0  0  0  0  0  0  0  0
   -1.4704    1.9921   -0.0000 C   0  0  0  0  0  0  0  0  0  0  0  0
   -0.0356    2.4545   -0.0000 C   0  0  0  0  0  0  0  0  0  0  0  0
    2.3597    1.2569   -0.0000 C   0  0  0  0  0  0  0  0  0  0  0  0
   -4.0791    0.4862   -0.0000 N   0  0  0  0  0  0  0  0  0  0  0  0
   -2.7866    2.7510   -0.0000 C   0  0  0  0  0  0  0  0  0  0  0  0
    0.4032    3.9012   -0.0000 N   0  0  0  0  0  0  0  0  0  0  0  0
    3.0949    2.5731   -0.0000 O   0  0  0  0  0  0  0  0  0  0  0  0
    3.1067   -0.0237   -0.0000 N   0  0  0  0  0  0  0  0  0  0  0  0
   -4.0909    2.0040   -0.0000 C   0  0  0  0  0  0  0  0  0  0  0  0
   -2.7984    4.2688   -0.0000 C   0  0  0  0  0  0  0  0  0  0  0  0
    4.6008   -0.0000   -0.0000 C   0  0  0  0  0  0  0  0  0  0  0  0
   -5.4071    2.7628   -0.0000 C   0  0  0  0  0  0  0  0  0  0  0  0
    5.3478   -1.2806   -0.0000 C   0  0  0  0  0  0  0  0  0  0  0  0
    4.5889   -2.5613   -0.0000 C   0  0  0  0  0  0  0  0  0  0  0  0
    6.8300   -1.2451   -0.0000 C   0  0  0  0  0  0  0  0  0  0  0  0
    5.3360   -3.8419   -0.0000 C   0  0  0  0  0  0  0  0  0  0  0  0
    7.5771   -2.5257   -0.0000 C   0  0  0  0  0  0  0  0  0  0  0  0
    6.8300   -3.8182   -0.0000 C   0  0  0  0  0  0  0  0  0  0  0  0
    7.5771   -5.0988   -0.0000 C   0  0  0  0  0  0  0  0  0  0  0  0
    9.0593   -5.0632   -0.0000 C   0  0  0  0  0  0  0  0  0  0  0  0
    6.8182   -6.3913   -0.0000 C   0  0  0  0  0  0  0  0  0  0  0  0
    9.8063   -6.3439   -0.0000 C   0  0  0  0  0  0  0  0  0  0  0  0
    7.5652   -7.6719   -0.0000 C   0  0  0  0  0  0  0  0  0  0  0  0
   11.3004   -6.3202   -0.0000 F   0  0  0  0  0  0  0  0  0  0  0  0
    9.0593   -7.6482   -0.0000 N   0  0  0  0  0  0  0  0  0  0  0  0
  1  2  1  0  0  0  0
  1  3  1  0  0  0  0
  2  4  2  0  0  0  0
  2  5  1  0  0  0  0
  3  6  2  0  0  0  0
  3  7  1  0  0  0  0
  4  8  1  0  0  0  0
  5  9  2  0  0  0  0
  6 10  1  0  0  0  0
  7 11  2  0  0  0  0
  7 12  1  0  0  0  0
  8 13  2  0  0  0  0
  9 14  1  0  0  0  0
 12 15  1  0  0  0  0
 13 16  1  0  0  0  0
 15 17  1  0  0  0  0
 17 18  2  0  0  0  0
 17 19  1  0  0  0  0
 18 20  1  0  0  0  0
 19 21  2  0  0  0  0
 20 22  2  0  0  0  0
 22 23  1  0  0  0  0
 23 24  2  0  0  0  0
 23 25  1  0  0  0  0
 24 26  1  0  0  0  0
 25 27  2  0  0  0  0
 26 28  1  0  0  0  0
 26 29  2  0  0  0  0
  5  6  1  0  0  0  0
  9 13  1  0  0  0  0
 21 22  1  0  0  0  0
 27 29  1  0  0  0  0
M  END
>  <MolRegNo>
2234350

>  <m>
=

>  <Value>
24000

>  <Unit>
nM

>  <Type>
IC50

>  <pValue>
4.62

>  <Ligand Efficiency>
0

>  <Binding Efficiency>
0

>  <Surface Efficiency>
0

>  <Assay Index>
1097403

>  <Assay Category>


>  <Assay Organism>
Homo sapiens

>  <Target ID>
17045

>  <Target Name>
Cytochrome P450 3A4

>  <Target Organism>
Homo sapiens

>  <Target Description>
Target is a single protein chain

>  <Sequence Accession>
P08684

>  <Reference>
Bioorg Med Chem Lett 27 (11), 2296-2301 (2017)

>  <Pubmed ID>
28442253

>  <DOI>
10.1016/j.bmcl.2017.04.043

$$$$
2241951
Actelion Java MolfileCreator 1.0

 29 32  0  0  0  0  0  0  0  0999 V2000
    0.0000   -0.0000   -0.0000 S   0  0  0  0  0  0  0  0  0  0  0  0
   -1.4470    0.4626   -0.0000 C   0  0  0  0  0  0  0  0  0  0  0  0
    0.8658    1.2335   -0.0000 C   0  0  0  0  0  0  0  0  0  0  0  0
   -2.7635   -0.2847   -0.0000 N   0  0  0  0  0  0  0  0  0  0  0  0
   -1.4707    1.9807   -0.0000 C   0  0  0  0  0  0  0  0  0  0  0  0
   -0.0356    2.4551   -0.0000 C   0  0  0  0  0  0  0  0  0  0  0  0
    2.3603    1.2572   -0.0000 C   0  0  0  0  0  0  0  0  0  0  0  0
   -4.0800    0.4744   -0.0000 N   0  0  0  0  0  0  0  0  0  0  0  0
   -2.7872    2.7398   -0.0000 C   0  0  0  0  0  0  0  0  0  0  0  0
    0.4033    3.9021   -0.0000 N   0  0  0  0  0  0  0  0  0  0  0  0
    3.0956    2.5737   -0.0000 O   0  0  0  0  0  0  0  0  0  0  0  0
    3.1075   -0.0237   -0.0000 N   0  0  0  0  0  0  0  0  0  0  0  0
   -4.0919    1.9926   -0.0000 C   0  0  0  0  0  0  0  0  0  0  0  0
   -2.7991    4.2580   -0.0000 C   0  0  0  0  0  0  0  0  0  0  0  0
    4.6019   -0.0000   -0.0000 C   0  0  0  0  0  0  0  0  0  0  0  0
   -5.4084    2.7517   -0.0000 C   0  0  0  0  0  0  0  0  0  0  0  0
    5.3491   -1.2809   -0.0000 C   0  0  0  0  0  0  0  0  0  0  0  0
    4.5901   -2.5619   -0.0000 C   0  0  0  0  0  0  0  0  0  0  0  0
    6.8317   -1.2454   -0.0000 C   0  0  0  0  0  0  0  0  0  0  0  0
    5.3373   -3.8428   -0.0000 C   0  0  0  0  0  0  0  0  0  0  0  0
    7.5789   -2.5263   -0.0000 C   0  0  0  0  0  0  0  0  0  0  0  0
    6.8317   -3.8191   -0.0000 C   0  0  0  0  0  0  0  0  0  0  0  0
    7.5789   -5.1001   -0.0000 C   0  0  0  0  0  0  0  0  0  0  0  0
    6.8198   -6.3929   -0.0000 C   0  0  0  0  0  0  0  0  0  0  0  0
    9.0615   -5.0645   -0.0000 C   0  0  0  0  0  0  0  0  0  0  0  0
    7.5671   -7.6738   -0.0000 N   0  0  0  0  0  0  0  0  0  0  0  0
    9.8087   -6.3454   -0.0000 C   0  0  0  0  0  0  0  0  0  0  0  0
    9.0615   -7.6501   -0.0000 C   0  0  0  0  0  0  0  0  0  0  0  0
    9.8087   -8.9310   -0.0000 F   0  0  0  0  0  0  0  0  0  0  0  0
  1  2  1  0  0  0  0
  1  3  1  0  0  0  0
  2  4  2  0  0  0  0
  2  5  1  0  0  0  0
  3  6  2  0  0  0  0
  3  7  1  0  0  0  0
  4  8  1  0  0  0  0
  5  9  2  0  0  0  0
  6 10  1  0  0  0  0
  7 11  2  0  0  0  0
  7 12  1  0  0  0  0
  8 13  2  0  0  0  0
  9 14  1  0  0  0  0
 12 15  1  0  0  0  0
 13 16  1  0  0  0  0
 15 17  1  0  0  0  0
 17 18  2  0  0  0  0
 17 19  1  0  0  0  0
 18 20  1  0  0  0  0
 19 21  2  0  0  0  0
 20 22  2  0  0  0  0
 22 23  1  0  0  0  0
 23 24  2  0  0  0  0
 23 25  1  0  0  0  0
 24 26  1  0  0  0  0
 25 27  2  0  0  0  0
 26 28  2  0  0  0  0
 28 29  1  0  0  0  0
  5  6  1  0  0  0  0
  9 13  1  0  0  0  0
 21 22  1  0  0  0  0
 27 28  1  0  0  0  0
M  END
>  <MolRegNo>
2241951

>  <m>
=

>  <Value>
25000

>  <Unit>
nM

>  <Type>
IC50

>  <pValue>
4.6

>  <Ligand Efficiency>
0

>  <Binding Efficiency>
0

>  <Surface Efficiency>
0

>  <Assay Index>
1097403

>  <Assay Category>


>  <Assay Organism>
Homo sapiens

>  <Target ID>
17045

>  <Target Name>
Cytochrome P450 3A4

>  <Target Organism>
Homo sapiens

>  <Target Description>
Target is a single protein chain

>  <Sequence Accession>
P08684

>  <Reference>
Bioorg Med Chem Lett 27 (11), 2296-2301 (2017)

>  <Pubmed ID>
28442253

>  <DOI>
10.1016/j.bmcl.2017.04.043

$$$$
2234914
Actelion Java MolfileCreator 1.0

 34 39  0  0  1  0  0  0  0  0999 V2000
    0.0000   -0.0000   -0.0000 Cl  0  0  0  0  0  0  0  0  0  0  0  0
   -1.3128   -0.7333   -0.0000 C   0  0  0  0  0  0  0  0  0  0  0  0
   -2.6256    0.0237   -0.0000 C   0  0  0  0  0  0  0  0  0  0  0  0
   -1.3246   -2.2235   -0.0000 C   0  0  0  0  0  0  0  0  0  0  0  0
   -2.6374    1.5375   -0.0000 N   0  0  0  0  0  0  0  0  0  0  0  0
   -3.9384   -0.7096   -0.0000 C   0  0  0  0  0  0  0  0  0  0  0  0
   -2.6374   -2.9567   -0.0000 C   0  0  0  0  0  0  0  0  0  0  0  0
   -3.8674    2.4363   -0.0000 C   0  0  0  0  0  0  0  0  0  0  0  0
   -1.4429    2.4363   -0.0000 C   0  0  0  0  0  0  0  0  0  0  0  0
   -3.9502   -2.1998   -0.0000 C   0  0  0  0  0  0  0  0  0  0  0  0
   -3.4062    3.8792   -0.0000 N   0  0  0  0  0  0  0  0  0  0  0  0
   -5.3103    1.9751   -0.0000 C   0  0  0  0  0  0  0  0  0  0  0  0
   -1.9160    3.8792   -0.0000 N   0  0  0  0  0  0  0  0  0  0  0  0
   -0.0237    1.9751   -0.0000 C   0  0  0  0  0  0  0  0  0  0  0  0
   -6.4338    2.9922   -0.0000 N   0  0  0  0  0  0  0  0  0  0  0  0
   -5.6414    0.5204   -0.0000 C   0  0  0  0  0  0  0  0  0  0  0  0
    0.6387    0.6505   -0.0000 C   0  0  0  0  0  0  0  0  0  0  0  0
    1.3010    2.6729   -0.0000 C   0  0  0  0  0  0  0  0  0  0  0  0
   -7.8767    2.5310   -0.0000 C   0  0  0  0  0  0  0  0  0  0  0  0
   -7.0843    0.0591   -0.0000 C   0  0  0  0  0  0  0  0  0  0  0  0
    1.9751    1.3483   -0.0000 C   0  0  0  0  0  0  0  0  0  0  0  0
   -8.2079    1.0763   -0.0000 N   0  0  0  0  0  0  0  0  0  0  0  0
    3.3943    0.8870   -0.0000 N   0  0  0  0  0  0  0  0  0  0  0  0
    4.5888    1.7859   -0.0000 C   0  0  0  0  0  0  0  0  0  0  0  0
    3.8438   -0.5322   -0.0000 C   0  0  0  0  0  0  0  0  0  0  0  0
    4.5770    3.2997   -0.0000 O   0  0  0  0  0  0  0  0  0  0  0  0
    5.7952    0.9107   -0.0000 N   0  0  0  0  0  0  0  0  0  0  0  0
    5.3339   -0.5204   -0.0000 C   0  0  0  0  0  0  0  0  0  0  0  0
    3.0868   -1.8213   -0.0000 C   0  0  0  0  0  0  0  0  0  0  0  0
    6.0672   -1.8095   -0.0000 C   0  0  0  0  0  0  0  0  0  0  0  0
    3.8201   -3.1105   -0.0000 C   0  0  0  0  0  0  0  0  0  0  0  0
    5.3103   -3.0987   -0.0000 C   0  0  0  0  0  0  0  0  0  0  0  0
    6.0554   -4.3878   -0.0000 C   0  0  0  0  0  0  0  0  0  0  0  0
    6.8005   -5.6769   -0.0000 N   0  0  0  0  0  0  0  0  0  0  0  0
  1  2  1  0  0  0  0
  2  3  2  0  0  0  0
  2  4  1  0  0  0  0
  3  5  1  0  0  0  0
  3  6  1  0  0  0  0
  4  7  2  0  0  0  0
  5  8  1  0  0  0  0
  5  9  1  0  0  0  0
  6 10  2  0  0  0  0
  8 11  2  0  0  0  0
  8 12  1  0  0  0  0
  9 13  2  0  0  0  0
 14  9  1  6  0  0  0
 12 15  2  0  0  0  0
 12 16  1  0  0  0  0
 14 17  1  0  0  0  0
 14 18  1  0  0  0  0
 15 19  1  0  0  0  0
 16 20  2  0  0  0  0
 17 21  1  0  0  0  0
 19 22  2  0  0  0  0
 21 23  1  1  0  0  0
 23 24  1  0  0  0  0
 23 25  1  0  0  0  0
 24 26  2  0  0  0  0
 24 27  1  0  0  0  0
 25 28  2  0  0  0  0
 25 29  1  0  0  0  0
 28 30  1  0  0  0  0
 29 31  2  0  0  0  0
 30 32  2  0  0  0  0
 32 33  1  0  0  0  0
 33 34  3  0  0  0  0
  7 10  1  0  0  0  0
 11 13  1  0  0  0  0
 18 21  1  0  0  0  0
 20 22  1  0  0  0  0
 27 28  1  0  0  0  0
 31 32  1  0  0  0  0
M  END
>  <MolRegNo>
2234914

>  <m>
=

>  <Value>
1300

>  <Unit>
nM

>  <Type>
IC50

>  <pValue>
5.89

>  <Ligand Efficiency>
0

>  <Binding Efficiency>
0

>  <Surface Efficiency>
0

>  <Assay Index>
1100064

>  <Assay Category>


>  <Assay Organism>
Homo sapiens

>  <Target ID>
17045

>  <Target Name>
Cytochrome P450 3A4

>  <Target Organism>
Homo sapiens

>  <Target Description>
Target is a single protein chain

>  <Sequence Accession>
P08684

>  <Reference>
J Med Chem 60 (24), 10013-10025 (2017)

>  <Pubmed ID>
29155568

>  <DOI>
10.1021/acs.jmedchem.7b00883

$$$$
2224329
Actelion Java MolfileCreator 1.0

 29 32  0  0  0  0  0  0  0  0999 V2000
    0.0000   -0.0000   -0.0000 Cl  0  0  0  0  0  0  0  0  0  0  0  0
   -0.0237   -1.4915   -0.0000 C   0  0  0  0  0  0  0  0  0  0  0  0
   -1.3376   -2.2255   -0.0000 C   0  0  0  0  0  0  0  0  0  0  0  0
    1.2666   -2.2373   -0.0000 C   0  0  0  0  0  0  0  0  0  0  0  0
   -1.3613   -3.7170   -0.0000 C   0  0  0  0  0  0  0  0  0  0  0  0
    1.2548   -3.7288   -0.0000 C   0  0  0  0  0  0  0  0  0  0  0  0
   -0.0710   -4.4628   -0.0000 C   0  0  0  0  0  0  0  0  0  0  0  0
   -0.0829   -5.9543   -0.0000 C   0  0  0  0  0  0  0  0  0  0  0  0
   -1.4087   -6.6882   -0.0000 N   0  0  0  0  0  0  0  0  0  0  0  0
   -1.4205   -8.1797   -0.0000 N   0  0  0  0  0  0  0  0  0  0  0  0
   -0.1302   -8.9255   -0.0000 C   0  0  0  0  0  0  0  0  0  0  0  0
    1.1601   -8.1679   -0.0000 O   0  0  0  0  0  0  0  0  0  0  0  0
   -0.1539  -10.4170   -0.0000 C   0  0  0  0  0  0  0  0  0  0  0  0
   -1.4797  -11.1510   -0.0000 C   0  0  0  0  0  0  0  0  0  0  0  0
    1.1364  -11.1628   -0.0000 C   0  0  0  0  0  0  0  0  0  0  0  0
   -1.4915  -12.6425   -0.0000 C   0  0  0  0  0  0  0  0  0  0  0  0
   -2.9239  -10.6656   -0.0000 C   0  0  0  0  0  0  0  0  0  0  0  0
    1.1127  -12.6543   -0.0000 C   0  0  0  0  0  0  0  0  0  0  0  0
   -0.2012  -13.3883   -0.0000 N   0  0  0  0  0  0  0  0  0  0  0  0
   -2.9357  -13.0923   -0.0000 N   0  0  0  0  0  0  0  0  0  0  0  0
   -3.8235  -11.8612   -0.0000 N   0  0  0  0  0  0  0  0  0  0  0  0
   -3.3855   -9.2215   -0.0000 C   0  0  0  0  0  0  0  0  0  0  0  0
    2.4030  -13.4001   -0.0000 C   0  0  0  0  0  0  0  0  0  0  0  0
   -3.4211  -14.5128   -0.0000 C   0  0  0  0  0  0  0  0  0  0  0  0
   -2.4267  -15.6256   -0.0000 C   0  0  0  0  0  0  0  0  0  0  0  0
   -4.9007  -14.8088   -0.0000 C   0  0  0  0  0  0  0  0  0  0  0  0
   -2.9120  -17.0461   -0.0000 C   0  0  0  0  0  0  0  0  0  0  0  0
   -5.3861  -16.2293   -0.0000 C   0  0  0  0  0  0  0  0  0  0  0  0
   -4.3917  -17.3420   -0.0000 C   0  0  0  0  0  0  0  0  0  0  0  0
  1  2  1  0  0  0  0
  2  3  2  0  0  0  0
  2  4  1  0  0  0  0
  3  5  1  0  0  0  0
  4  6  2  0  0  0  0
  5  7  2  0  0  0  0
  7  8  1  0  0  0  0
  8  9  2  0  0  0  0
  9 10  1  0  0  0  0
 10 11  1  0  0  0  0
 11 12  2  0  0  0  0
 11 13  1  0  0  0  0
 13 14  2  0  0  0  0
 13 15  1  0  0  0  0
 14 16  1  0  0  0  0
 14 17  1  0  0  0  0
 15 18  2  0  0  0  0
 16 19  2  0  0  0  0
 16 20  1  0  0  0  0
 17 21  2  0  0  0  0
 17 22  1  0  0  0  0
 18 23  1  0  0  0  0
 20 24  1  0  0  0  0
 24 25  2  0  0  0  0
 24 26  1  0  0  0  0
 25 27  1  0  0  0  0
 26 28  2  0  0  0  0
 27 29  2  0  0  0  0
  6  7  1  0  0  0  0
 18 19  1  0  0  0  0
 20 21  1  0  0  0  0
 28 29  1  0  0  0  0
M  END
>  <MolRegNo>
2224329

>  <m>
=

>  <Value>
94600

>  <Unit>
nM

>  <Type>
IC50

>  <pValue>
4.02

>  <Ligand Efficiency>
0

>  <Binding Efficiency>
0

>  <Surface Efficiency>
0

>  <Assay Index>
1102268

>  <Assay Category>


>  <Assay Organism>
Homo sapiens

>  <Target ID>
17045

>  <Target Name>
Cytochrome P450 3A4

>  <Target Organism>
Homo sapiens

>  <Target Description>
Target is a single protein chain

>  <Sequence Accession>
P08684

>  <Reference>


>  <Pubmed ID>
28453995

>  <DOI>
10.1016/j.ejmech.2017.04.023

$$$$
2202645
Actelion Java MolfileCreator 1.0

 29 32  0  0  0  0  0  0  0  0999 V2000
    0.0000   -0.0000   -0.0000 Br  0  0  0  0  0  0  0  0  0  0  0  0
   -0.0237   -1.4926   -0.0000 C   0  0  0  0  0  0  0  0  0  0  0  0
   -1.3504   -2.2151   -0.0000 C   0  0  0  0  0  0  0  0  0  0  0  0
    1.2675   -2.2507   -0.0000 C   0  0  0  0  0  0  0  0  0  0  0  0
   -1.3741   -3.7077   -0.0000 C   0  0  0  0  0  0  0  0  0  0  0  0
    1.2438   -3.7432   -0.0000 C   0  0  0  0  0  0  0  0  0  0  0  0
   -0.0948   -4.4658   -0.0000 C   0  0  0  0  0  0  0  0  0  0  0  0
   -0.1185   -5.9584   -0.0000 C   0  0  0  0  0  0  0  0  0  0  0  0
   -1.4452   -6.6810   -0.0000 N   0  0  0  0  0  0  0  0  0  0  0  0
   -1.4689   -8.1735   -0.0000 N   0  0  0  0  0  0  0  0  0  0  0  0
   -0.1895   -8.9316   -0.0000 C   0  0  0  0  0  0  0  0  0  0  0  0
    1.1135   -8.1854   -0.0000 O   0  0  0  0  0  0  0  0  0  0  0  0
   -0.2132  -10.4242   -0.0000 C   0  0  0  0  0  0  0  0  0  0  0  0
   -1.5399  -11.1468   -0.0000 C   0  0  0  0  0  0  0  0  0  0  0  0
    1.0661  -11.1823   -0.0000 C   0  0  0  0  0  0  0  0  0  0  0  0
   -1.5636  -12.6393   -0.0000 C   0  0  0  0  0  0  0  0  0  0  0  0
   -2.9733  -10.6611   -0.0000 C   0  0  0  0  0  0  0  0  0  0  0  0
    1.0424  -12.6749   -0.0000 C   0  0  0  0  0  0  0  0  0  0  0  0
   -0.2843  -13.3975   -0.0000 N   0  0  0  0  0  0  0  0  0  0  0  0
   -3.0088  -13.0776   -0.0000 N   0  0  0  0  0  0  0  0  0  0  0  0
   -3.8854  -11.8575   -0.0000 N   0  0  0  0  0  0  0  0  0  0  0  0
   -3.4352   -9.2159   -0.0000 C   0  0  0  0  0  0  0  0  0  0  0  0
    2.3218  -13.4330   -0.0000 C   0  0  0  0  0  0  0  0  0  0  0  0
   -3.5063  -14.4873   -0.0000 C   0  0  0  0  0  0  0  0  0  0  0  0
   -2.5231  -15.6126   -0.0000 C   0  0  0  0  0  0  0  0  0  0  0  0
   -4.9989  -14.7716   -0.0000 C   0  0  0  0  0  0  0  0  0  0  0  0
   -3.0207  -17.0223   -0.0000 C   0  0  0  0  0  0  0  0  0  0  0  0
   -5.4964  -16.1812   -0.0000 C   0  0  0  0  0  0  0  0  0  0  0  0
   -4.5132  -17.3065   -0.0000 C   0  0  0  0  0  0  0  0  0  0  0  0
  1  2  1  0  0  0  0
  2  3  2  0  0  0  0
  2  4  1  0  0  0  0
  3  5  1  0  0  0  0
  4  6  2  0  0  0  0
  5  7  2  0  0  0  0
  7  8  1  0  0  0  0
  8  9  2  0  0  0  0
  9 10  1  0  0  0  0
 10 11  1  0  0  0  0
 11 12  2  0  0  0  0
 11 13  1  0  0  0  0
 13 14  2  0  0  0  0
 13 15  1  0  0  0  0
 14 16  1  0  0  0  0
 14 17  1  0  0  0  0
 15 18  2  0  0  0  0
 16 19  2  0  0  0  0
 16 20  1  0  0  0  0
 17 21  2  0  0  0  0
 17 22  1  0  0  0  0
 18 23  1  0  0  0  0
 20 24  1  0  0  0  0
 24 25  2  0  0  0  0
 24 26  1  0  0  0  0
 25 27  1  0  0  0  0
 26 28  2  0  0  0  0
 27 29  2  0  0  0  0
  6  7  1  0  0  0  0
 18 19  1  0  0  0  0
 20 21  1  0  0  0  0
 28 29  1  0  0  0  0
M  END
>  <MolRegNo>
2202645

>  <m>
=

>  <Value>
137800

>  <Unit>
nM

>  <Type>
IC50

>  <pValue>
0

>  <Ligand Efficiency>
0

>  <Binding Efficiency>
0

>  <Surface Efficiency>
0

>  <Assay Index>
1102268

>  <Assay Category>


>  <Assay Organism>
Homo sapiens

>  <Target ID>
17045

>  <Target Name>
Cytochrome P450 3A4

>  <Target Organism>
Homo sapiens

>  <Target Description>
Target is a single protein chain

>  <Sequence Accession>
P08684

>  <Reference>


>  <Pubmed ID>
28453995

>  <DOI>
10.1016/j.ejmech.2017.04.023

$$$$
2239829
Actelion Java MolfileCreator 1.0

 31 34  0  0  0  0  0  0  0  0999 V2000
    0.0000   -0.0000   -0.0000 O   0  0  0  0  0  0  0  0  0  0  0  0
    1.2920   -0.7468   -0.0000 N   0  0  0  0  0  0  0  0  0  0  0  0
    2.5841    0.0237   -0.0000 O   0  0  0  0  0  0  0  0  0  0  0  0
    1.2802   -2.2403   -0.0000 C   0  0  0  0  0  0  0  0  0  0  0  0
   -0.0356   -2.9752   -0.0000 C   0  0  0  0  0  0  0  0  0  0  0  0
    2.5722   -2.9752   -0.0000 C   0  0  0  0  0  0  0  0  0  0  0  0
   -0.0474   -4.4688   -0.0000 C   0  0  0  0  0  0  0  0  0  0  0  0
    2.5604   -4.4688   -0.0000 C   0  0  0  0  0  0  0  0  0  0  0  0
    1.2446   -5.2155   -0.0000 C   0  0  0  0  0  0  0  0  0  0  0  0
    1.2328   -6.7091   -0.0000 C   0  0  0  0  0  0  0  0  0  0  0  0
   -0.0830   -7.4440   -0.0000 N   0  0  0  0  0  0  0  0  0  0  0  0
   -0.0948   -8.9375   -0.0000 N   0  0  0  0  0  0  0  0  0  0  0  0
    1.1972   -9.6843   -0.0000 C   0  0  0  0  0  0  0  0  0  0  0  0
    2.4892   -8.9138   -0.0000 O   0  0  0  0  0  0  0  0  0  0  0  0
    1.1853  -11.1778   -0.0000 C   0  0  0  0  0  0  0  0  0  0  0  0
   -0.1304  -11.9128   -0.0000 C   0  0  0  0  0  0  0  0  0  0  0  0
    2.4774  -11.9128   -0.0000 C   0  0  0  0  0  0  0  0  0  0  0  0
   -0.1422  -13.4063   -0.0000 C   0  0  0  0  0  0  0  0  0  0  0  0
   -1.5765  -11.4386   -0.0000 C   0  0  0  0  0  0  0  0  0  0  0  0
    2.4655  -13.4063   -0.0000 C   0  0  0  0  0  0  0  0  0  0  0  0
    1.1498  -14.1531   -0.0000 N   0  0  0  0  0  0  0  0  0  0  0  0
   -1.5765  -13.8567   -0.0000 N   0  0  0  0  0  0  0  0  0  0  0  0
   -2.4774  -12.6358   -0.0000 N   0  0  0  0  0  0  0  0  0  0  0  0
   -2.0388   -9.9925   -0.0000 C   0  0  0  0  0  0  0  0  0  0  0  0
    3.7576  -14.1531   -0.0000 C   0  0  0  0  0  0  0  0  0  0  0  0
   -2.3114  -15.1606   -0.0000 C   0  0  0  0  0  0  0  0  0  0  0  0
   -1.5410  -16.4289   -0.0000 C   0  0  0  0  0  0  0  0  0  0  0  0
   -3.8287  -15.1843   -0.0000 C   0  0  0  0  0  0  0  0  0  0  0  0
   -2.2640  -17.7447   -0.0000 C   0  0  0  0  0  0  0  0  0  0  0  0
   -4.5517  -16.5001   -0.0000 C   0  0  0  0  0  0  0  0  0  0  0  0
   -3.7813  -17.7684   -0.0000 C   0  0  0  0  0  0  0  0  0  0  0  0
  1  2  2  0  0  0  0
  2  3  1  0  0  0  0
  2  4  1  0  0  0  0
  4  5  2  0  0  0  0
  4  6  1  0  0  0  0
  5  7  1  0  0  0  0
  6  8  2  0  0  0  0
  7  9  2  0  0  0  0
  9 10  1  0  0  0  0
 10 11  2  0  0  0  0
 11 12  1  0  0  0  0
 12 13  1  0  0  0  0
 13 14  2  0  0  0  0
 13 15  1  0  0  0  0
 15 16  2  0  0  0  0
 15 17  1  0  0  0  0
 16 18  1  0  0  0  0
 16 19  1  0  0  0  0
 17 20  2  0  0  0  0
 18 21  2  0  0  0  0
 18 22  1  0  0  0  0
 19 23  2  0  0  0  0
 19 24  1  0  0  0  0
 20 25  1  0  0  0  0
 22 26  1  0  0  0  0
 26 27  2  0  0  0  0
 26 28  1  0  0  0  0
 27 29  1  0  0  0  0
 28 30  2  0  0  0  0
 29 31  2  0  0  0  0
  8  9  1  0  0  0  0
 20 21  1  0  0  0  0
 22 23  1  0  0  0  0
 30 31  1  0  0  0  0
M  CHG  2   2   1   3  -1
M  END
>  <MolRegNo>
2239829

>  <m>
=

>  <Value>
155700

>  <Unit>
nM

>  <Type>
IC50

>  <pValue>
0

>  <Ligand Efficiency>
0

>  <Binding Efficiency>
0

>  <Surface Efficiency>
0

>  <Assay Index>
1102268

>  <Assay Category>


>  <Assay Organism>
Homo sapiens

>  <Target ID>
17045

>  <Target Name>
Cytochrome P450 3A4

>  <Target Organism>
Homo sapiens

>  <Target Description>
Target is a single protein chain

>  <Sequence Accession>
P08684

>  <Reference>


>  <Pubmed ID>
28453995

>  <DOI>
10.1016/j.ejmech.2017.04.023

$$$$
2202230
Actelion Java MolfileCreator 1.0

 27 30  0  0  0  0  0  0  0  0999 V2000
    0.0000   -0.0000   -0.0000 S   0  0  0  0  0  0  0  0  0  0  0  0
   -1.4430    0.4731   -0.0000 C   0  0  0  0  0  0  0  0  0  0  0  0
    0.8752    1.2301   -0.0000 C   0  0  0  0  0  0  0  0  0  0  0  0
   -2.7558   -0.2720   -0.0000 N   0  0  0  0  0  0  0  0  0  0  0  0
   -1.4548    1.9870   -0.0000 C   0  0  0  0  0  0  0  0  0  0  0  0
   -0.0237    2.4602   -0.0000 C   0  0  0  0  0  0  0  0  0  0  0  0
    2.3655    1.2419   -0.0000 C   0  0  0  0  0  0  0  0  0  0  0  0
   -4.0687    0.4849   -0.0000 N   0  0  0  0  0  0  0  0  0  0  0  0
   -2.7677    2.7440   -0.0000 C   0  0  0  0  0  0  0  0  0  0  0  0
    0.4258    3.8913   -0.0000 N   0  0  0  0  0  0  0  0  0  0  0  0
    3.0988    2.5548   -0.0000 O   0  0  0  0  0  0  0  0  0  0  0  0
    3.0988   -0.0473   -0.0000 N   0  0  0  0  0  0  0  0  0  0  0  0
   -4.0805    1.9989   -0.0000 C   0  0  0  0  0  0  0  0  0  0  0  0
   -2.7795    4.2580   -0.0000 C   0  0  0  0  0  0  0  0  0  0  0  0
    4.5891   -0.0355   -0.0000 C   0  0  0  0  0  0  0  0  0  0  0  0
   -5.3934    2.7558   -0.0000 C   0  0  0  0  0  0  0  0  0  0  0  0
    5.6300   -1.0881   -0.0000 C   0  0  0  0  0  0  0  0  0  0  0  0
    5.6300    1.0408   -0.0000 C   0  0  0  0  0  0  0  0  0  0  0  0
    6.6826   -0.0118   -0.0000 N   0  0  0  0  0  0  0  0  0  0  0  0
    8.1611   -0.0000   -0.0000 C   0  0  0  0  0  0  0  0  0  0  0  0
    8.8826    1.3010   -0.0000 C   0  0  0  0  0  0  0  0  0  0  0  0
    8.8944   -1.2774   -0.0000 C   0  0  0  0  0  0  0  0  0  0  0  0
    8.1138    2.6021   -0.0000 F   0  0  0  0  0  0  0  0  0  0  0  0
   10.3610    1.3247   -0.0000 C   0  0  0  0  0  0  0  0  0  0  0  0
   10.3729   -1.2656   -0.0000 C   0  0  0  0  0  0  0  0  0  0  0  0
   11.0943    2.6376   -0.0000 F   0  0  0  0  0  0  0  0  0  0  0  0
   11.1062    0.0473   -0.0000 C   0  0  0  0  0  0  0  0  0  0  0  0
  1  2  1  0  0  0  0
  1  3  1  0  0  0  0
  2  4  2  0  0  0  0
  2  5  1  0  0  0  0
  3  6  2  0  0  0  0
  3  7  1  0  0  0  0
  4  8  1  0  0  0  0
  5  9  2  0  0  0  0
  6 10  1  0  0  0  0
  7 11  2  0  0  0  0
  7 12  1  0  0  0  0
  8 13  2  0  0  0  0
  9 14  1  0  0  0  0
 12 15  1  0  0  0  0
 13 16  1  0  0  0  0
 15 17  1  0  0  0  0
 15 18  1  0  0  0  0
 17 19  1  0  0  0  0
 19 20  1  0  0  0  0
 20 21  2  0  0  0  0
 20 22  1  0  0  0  0
 21 23  1  0  0  0  0
 21 24  1  0  0  0  0
 22 25  2  0  0  0  0
 24 26  1  0  0  0  0
 24 27  2  0  0  0  0
  5  6  1  0  0  0  0
  9 13  1  0  0  0  0
 18 19  1  0  0  0  0
 25 27  1  0  0  0  0
M  END
>  <MolRegNo>
2202230

>  <m>
=

>  <Value>
11000

>  <Unit>
nM

>  <Type>
IC50

>  <pValue>
4.96

>  <Ligand Efficiency>
0

>  <Binding Efficiency>
0

>  <Surface Efficiency>
0

>  <Assay Index>
1102877

>  <Assay Category>


>  <Assay Organism>
Homo sapiens

>  <Target ID>
17045

>  <Target Name>
Cytochrome P450 3A4

>  <Target Organism>
Homo sapiens

>  <Target Description>
Target is a single protein chain

>  <Sequence Accession>
P08684

>  <Reference>
Bioorg Med Chem Lett 27 (13), 2990-2995 (2017)

>  <Pubmed ID>
28522253

>  <DOI>
10.1016/j.bmcl.2017.05.014

$$$$
2240666
Actelion Java MolfileCreator 1.0

 31 33  0  0  0  0  0  0  0  0999 V2000
    0.0000   -0.0000   -0.0000 F   0  0  0  0  0  0  0  0  0  0  0  0
    1.5101   -0.0000   -0.0000 C   0  0  0  0  0  0  0  0  0  0  0  0
    2.2652    1.3303   -0.0000 C   0  0  0  0  0  0  0  0  0  0  0  0
    2.2652   -1.3183   -0.0000 C   0  0  0  0  0  0  0  0  0  0  0  0
    3.7753    1.3303   -0.0000 C   0  0  0  0  0  0  0  0  0  0  0  0
    3.7753   -1.3064   -0.0000 C   0  0  0  0  0  0  0  0  0  0  0  0
    4.5063    0.0240   -0.0000 C   0  0  0  0  0  0  0  0  0  0  0  0
    6.0164    0.0240   -0.0000 C   0  0  0  0  0  0  0  0  0  0  0  0
    5.9925    1.5221   -0.0000 O   0  0  0  0  0  0  0  0  0  0  0  0
    7.3108   -0.6951   -0.0000 C   0  0  0  0  0  0  0  0  0  0  0  0
    5.2374   -1.2824   -0.0000 C   0  0  0  0  0  0  0  0  0  0  0  0
    7.2629    2.3011   -0.0000 C   0  0  0  0  0  0  0  0  0  0  0  0
    8.5812    0.0839   -0.0000 C   0  0  0  0  0  0  0  0  0  0  0  0
    5.9805   -2.5887   -0.0000 C   0  0  0  0  0  0  0  0  0  0  0  0
    7.2269    3.7992   -0.0000 O   0  0  0  0  0  0  0  0  0  0  0  0
    8.5572    1.5820   -0.0000 N   0  0  0  0  0  0  0  0  0  0  0  0
    5.2015   -3.8951   -0.0000 C   0  0  0  0  0  0  0  0  0  0  0  0
    9.8157    2.3610   -0.0000 C   0  0  0  0  0  0  0  0  0  0  0  0
    5.9445   -5.2015   -0.0000 O   0  0  0  0  0  0  0  0  0  0  0  0
    3.6674   -3.8711   -0.0000 N   0  0  0  0  0  0  0  0  0  0  0  0
   11.1100    1.6419   -0.0000 C   0  0  0  0  0  0  0  0  0  0  0  0
    9.7917    3.8591   -0.0000 C   0  0  0  0  0  0  0  0  0  0  0  0
   11.1220    0.1678   -0.0000 C   0  0  0  0  0  0  0  0  0  0  0  0
   12.3804    2.4090   -0.0000 C   0  0  0  0  0  0  0  0  0  0  0  0
   12.4044   -0.5513   -0.0000 C   0  0  0  0  0  0  0  0  0  0  0  0
   13.6748    1.6899   -0.0000 C   0  0  0  0  0  0  0  0  0  0  0  0
   13.6748    0.2277   -0.0000 C   0  0  0  0  0  0  0  0  0  0  0  0
   14.9812   -0.5034   -0.0000 O   0  0  0  0  0  0  0  0  0  0  0  0
   16.2755    0.2876   -0.0000 C   0  0  0  0  0  0  0  0  0  0  0  0
   17.5939   -0.4434   -0.0000 F   0  0  0  0  0  0  0  0  0  0  0  0
   16.2396    1.8217   -0.0000 F   0  0  0  0  0  0  0  0  0  0  0  0
  1  2  1  0  0  0  0
  2  3  2  0  0  0  0
  2  4  1  0  0  0  0
  3  5  1  0  0  0  0
  4  6  2  0  0  0  0
  5  7  2  0  0  0  0
  7  8  1  0  0  0  0
  8  9  1  0  0  0  0
  8 10  1  0  0  0  0
  8 11  1  6  0  0  0
  9 12  1  0  0  0  0
 10 13  1  0  0  0  0
 11 14  1  0  0  0  0
 12 15  2  0  0  0  0
 12 16  1  0  0  0  0
 14 17  1  0  0  0  0
 18 16  1  6  0  0  0
 17 19  2  0  0  0  0
 17 20  1  0  0  0  0
 18 21  1  0  0  0  0
 18 22  1  0  0  0  0
 21 23  2  0  0  0  0
 21 24  1  0  0  0  0
 23 25  1  0  0  0  0
 24 26  2  0  0  0  0
 25 27  2  0  0  0  0
 27 28  1  0  0  0  0
 28 29  1  0  0  0  0
 29 30  1  0  0  0  0
 29 31  1  0  0  0  0
  6  7  1  0  0  0  0
 13 16  1  0  0  0  0
 26 27  1  0  0  0  0
M  END
>  <MolRegNo>
2240666

>  <m>
=

>  <Value>
27000

>  <Unit>
nM

>  <Type>
IC50

>  <pValue>
4.57

>  <Ligand Efficiency>
0

>  <Binding Efficiency>
0

>  <Surface Efficiency>
0

>  <Assay Index>
1103192

>  <Assay Category>


>  <Assay Organism>
Homo sapiens

>  <Target ID>
17045

>  <Target Name>
Cytochrome P450 3A4

>  <Target Organism>
Homo sapiens

>  <Target Description>
Target is a single protein chain

>  <Sequence Accession>
P08684

>  <Reference>
Bioorg Med Chem 25 (14), 3649-3657 (2017)

>  <Pubmed ID>
28528082

>  <DOI>
10.1016/j.bmc.2017.04.033

$$$$
2219266
Actelion Java MolfileCreator 1.0

 31 33  0  0  0  0  0  0  0  0999 V2000
    0.0000   -0.0000   -0.0000 F   0  0  0  0  0  0  0  0  0  0  0  0
    1.5105   -0.0000   -0.0000 C   0  0  0  0  0  0  0  0  0  0  0  0
    2.2658    1.3307   -0.0000 C   0  0  0  0  0  0  0  0  0  0  0  0
    2.2658   -1.3187   -0.0000 C   0  0  0  0  0  0  0  0  0  0  0  0
    3.7763    1.3307   -0.0000 C   0  0  0  0  0  0  0  0  0  0  0  0
    3.7763   -1.3067   -0.0000 C   0  0  0  0  0  0  0  0  0  0  0  0
    4.5075    0.0240   -0.0000 C   0  0  0  0  0  0  0  0  0  0  0  0
    6.0180    0.0240   -0.0000 C   0  0  0  0  0  0  0  0  0  0  0  0
    5.9941    1.5225   -0.0000 O   0  0  0  0  0  0  0  0  0  0  0  0
    7.3128   -0.6953   -0.0000 C   0  0  0  0  0  0  0  0  0  0  0  0
    5.2388   -1.2827   -0.0000 C   0  0  0  0  0  0  0  0  0  0  0  0
    7.2648    2.3017   -0.0000 C   0  0  0  0  0  0  0  0  0  0  0  0
    8.5835    0.0839   -0.0000 C   0  0  0  0  0  0  0  0  0  0  0  0
    5.9821   -2.5894   -0.0000 C   0  0  0  0  0  0  0  0  0  0  0  0
    7.2289    3.8002   -0.0000 O   0  0  0  0  0  0  0  0  0  0  0  0
    8.5595    1.5824   -0.0000 N   0  0  0  0  0  0  0  0  0  0  0  0
    5.2029   -3.8961   -0.0000 O   0  0  0  0  0  0  0  0  0  0  0  0
    7.2888   -1.8102   -0.0000 C   0  0  0  0  0  0  0  0  0  0  0  0
    7.2888   -3.3327   -0.0000 C   0  0  0  0  0  0  0  0  0  0  0  0
    9.8183    2.3617   -0.0000 C   0  0  0  0  0  0  0  0  0  0  0  0
   11.1130    1.6424   -0.0000 C   0  0  0  0  0  0  0  0  0  0  0  0
    9.7943    3.8602   -0.0000 C   0  0  0  0  0  0  0  0  0  0  0  0
   11.1250    0.1678   -0.0000 C   0  0  0  0  0  0  0  0  0  0  0  0
   12.3838    2.4096   -0.0000 C   0  0  0  0  0  0  0  0  0  0  0  0
   12.4077   -0.5515   -0.0000 C   0  0  0  0  0  0  0  0  0  0  0  0
   13.6785    1.6903   -0.0000 C   0  0  0  0  0  0  0  0  0  0  0  0
   13.6785    0.2278   -0.0000 C   0  0  0  0  0  0  0  0  0  0  0  0
   14.9852   -0.5035   -0.0000 O   0  0  0  0  0  0  0  0  0  0  0  0
   16.2799    0.2877   -0.0000 C   0  0  0  0  0  0  0  0  0  0  0  0
   17.5986   -0.4436   -0.0000 F   0  0  0  0  0  0  0  0  0  0  0  0
   16.2439    1.8222   -0.0000 F   0  0  0  0  0  0  0  0  0  0  0  0
  1  2  1  0  0  0  0
  2  3  2  0  0  0  0
  2  4  1  0  0  0  0
  3  5  1  0  0  0  0
  4  6  2  0  0  0  0
  5  7  2  0  0  0  0
  7  8  1  0  0  0  0
  8  9  1  0  0  0  0
  8 10  1  0  0  0  0
  8 11  1  6  0  0  0
  9 12  1  0  0  0  0
 10 13  1  0  0  0  0
 11 14  1  0  0  0  0
 12 15  2  0  0  0  0
 12 16  1  0  0  0  0
 14 17  1  0  0  0  0
 14 18  1  0  0  0  0
 14 19  1  0  0  0  0
 20 16  1  6  0  0  0
 20 21  1  0  0  0  0
 20 22  1  0  0  0  0
 21 23  2  0  0  0  0
 21 24  1  0  0  0  0
 23 25  1  0  0  0  0
 24 26  2  0  0  0  0
 25 27  2  0  0  0  0
 27 28  1  0  0  0  0
 28 29  1  0  0  0  0
 29 30  1  0  0  0  0
 29 31  1  0  0  0  0
  6  7  1  0  0  0  0
 13 16  1  0  0  0  0
 26 27  1  0  0  0  0
M  END
>  <MolRegNo>
2219266

>  <m>
=

>  <Value>
6600

>  <Unit>
nM

>  <Type>
IC50

>  <pValue>
5.18

>  <Ligand Efficiency>
0

>  <Binding Efficiency>
0

>  <Surface Efficiency>
0

>  <Assay Index>
1103192

>  <Assay Category>


>  <Assay Organism>
Homo sapiens

>  <Target ID>
17045

>  <Target Name>
Cytochrome P450 3A4

>  <Target Organism>
Homo sapiens

>  <Target Description>
Target is a single protein chain

>  <Sequence Accession>
P08684

>  <Reference>
Bioorg Med Chem 25 (14), 3649-3657 (2017)

>  <Pubmed ID>
28528082

>  <DOI>
10.1016/j.bmc.2017.04.033

$$$$
2243531
Actelion Java MolfileCreator 1.0

 30 32  0  0  0  0  0  0  0  0999 V2000
    0.0000   -0.0000   -0.0000 F   0  0  0  0  0  0  0  0  0  0  0  0
   -1.3314    0.7489   -0.0000 C   0  0  0  0  0  0  0  0  0  0  0  0
   -1.3671    2.2705   -0.0000 F   0  0  0  0  0  0  0  0  0  0  0  0
   -2.6391   -0.0119   -0.0000 O   0  0  0  0  0  0  0  0  0  0  0  0
   -3.9586    0.7370   -0.0000 C   0  0  0  0  0  0  0  0  0  0  0  0
   -5.2424   -0.0119   -0.0000 C   0  0  0  0  0  0  0  0  0  0  0  0
   -3.9824    2.2230   -0.0000 C   0  0  0  0  0  0  0  0  0  0  0  0
   -6.5382    0.7251   -0.0000 C   0  0  0  0  0  0  0  0  0  0  0  0
   -5.2900    2.9600   -0.0000 C   0  0  0  0  0  0  0  0  0  0  0  0
   -6.5739    2.2111   -0.0000 C   0  0  0  0  0  0  0  0  0  0  0  0
   -7.8815    2.9481   -0.0000 C   0  0  0  0  0  0  0  0  0  0  0  0
   -9.1535    2.1992   -0.0000 N   0  0  0  0  0  0  0  0  0  0  0  0
   -7.9053    4.4341   -0.0000 C   0  0  0  0  0  0  0  0  0  0  0  0
  -10.4611    2.9362   -0.0000 C   0  0  0  0  0  0  0  0  0  0  0  0
   -9.1535    0.7370   -0.0000 C   0  0  0  0  0  0  0  0  0  0  0  0
  -10.4968    4.4222   -0.0000 O   0  0  0  0  0  0  0  0  0  0  0  0
  -11.7450    2.1873   -0.0000 O   0  0  0  0  0  0  0  0  0  0  0  0
  -10.4373   -0.0119   -0.0000 C   0  0  0  0  0  0  0  0  0  0  0  0
  -11.7450    0.7251   -0.0000 C   0  0  0  0  0  0  0  0  0  0  0  0
  -13.2666    0.7489   -0.0000 C   0  0  0  0  0  0  0  0  0  0  0  0
  -12.5177   -0.5706   -0.0000 C   0  0  0  0  0  0  0  0  0  0  0  0
  -14.0155    2.0684   -0.0000 C   0  0  0  0  0  0  0  0  0  0  0  0
  -14.0274   -0.5468   -0.0000 C   0  0  0  0  0  0  0  0  0  0  0  0
  -11.7806   -1.8664   -0.0000 C   0  0  0  0  0  0  0  0  0  0  0  0
  -15.5371    2.0922   -0.0000 C   0  0  0  0  0  0  0  0  0  0  0  0
  -15.5490   -0.5349   -0.0000 C   0  0  0  0  0  0  0  0  0  0  0  0
  -12.5533   -3.1621   -0.0000 O   0  0  0  0  0  0  0  0  0  0  0  0
  -10.4849   -1.0937   -0.0000 C   0  0  0  0  0  0  0  0  0  0  0  0
  -10.4849   -2.6034   -0.0000 C   0  0  0  0  0  0  0  0  0  0  0  0
  -16.3098    0.7965   -0.0000 C   0  0  0  0  0  0  0  0  0  0  0  0
  1  2  1  0  0  0  0
  2  3  1  0  0  0  0
  2  4  1  0  0  0  0
  4  5  1  0  0  0  0
  5  6  2  0  0  0  0
  5  7  1  0  0  0  0
  6  8  1  0  0  0  0
  7  9  2  0  0  0  0
  8 10  2  0  0  0  0
 10 11  1  0  0  0  0
 11 12  1  6  0  0  0
 11 13  1  0  0  0  0
 12 14  1  0  0  0  0
 12 15  1  0  0  0  0
 14 16  2  0  0  0  0
 14 17  1  0  0  0  0
 15 18  1  0  0  0  0
 17 19  1  0  0  0  0
 19 20  1  0  0  0  0
 19 21  1  6  0  0  0
 20 22  2  0  0  0  0
 20 23  1  0  0  0  0
 21 24  1  0  0  0  0
 22 25  1  0  0  0  0
 23 26  2  0  0  0  0
 24 27  1  0  0  0  0
 24 28  1  0  0  0  0
 24 29  1  0  0  0  0
 25 30  2  0  0  0  0
  9 10  1  0  0  0  0
 18 19  1  0  0  0  0
 26 30  1  0  0  0  0
M  END
>  <MolRegNo>
2243531

>  <m>
=

>  <Value>
10000

>  <Unit>
nM

>  <Type>
IC50

>  <pValue>
5

>  <Ligand Efficiency>
0

>  <Binding Efficiency>
0

>  <Surface Efficiency>
0

>  <Assay Index>
1103192

>  <Assay Category>


>  <Assay Organism>
Homo sapiens

>  <Target ID>
17045

>  <Target Name>
Cytochrome P450 3A4

>  <Target Organism>
Homo sapiens

>  <Target Description>
Target is a single protein chain

>  <Sequence Accession>
P08684

>  <Reference>
Bioorg Med Chem 25 (14), 3649-3657 (2017)

>  <Pubmed ID>
28528082

>  <DOI>
10.1016/j.bmc.2017.04.033

$$$$
2200754
Actelion Java MolfileCreator 1.0

 31 34  0  0  0  0  0  0  0  0999 V2000
    0.0000   -0.0000   -0.0000 O   0  0  0  0  0  0  0  0  0  0  0  0
    0.0120   -1.4747   -0.0000 C   0  0  0  0  0  0  0  0  0  0  0  0
   -1.2829   -2.2301   -0.0000 O   0  0  0  0  0  0  0  0  0  0  0  0
    1.3069   -2.1941   -0.0000 N   0  0  0  0  0  0  0  0  0  0  0  0
   -1.2829   -3.7048   -0.0000 C   0  0  0  0  0  0  0  0  0  0  0  0
    2.5658   -1.4148   -0.0000 C   0  0  0  0  0  0  0  0  0  0  0  0
    1.3069   -3.6688   -0.0000 C   0  0  0  0  0  0  0  0  0  0  0  0
   -2.8176   -3.6808   -0.0000 C   0  0  0  0  0  0  0  0  0  0  0  0
    0.0120   -4.4242   -0.0000 C   0  0  0  0  0  0  0  0  0  0  0  0
   -2.0622   -5.0117   -0.0000 C   0  0  0  0  0  0  0  0  0  0  0  0
    3.8607   -2.1341   -0.0000 C   0  0  0  0  0  0  0  0  0  0  0  0
    2.5418    0.0839   -0.0000 C   0  0  0  0  0  0  0  0  0  0  0  0
   -3.5729   -2.3500   -0.0000 C   0  0  0  0  0  0  0  0  0  0  0  0
   -3.5849   -4.9877   -0.0000 C   0  0  0  0  0  0  0  0  0  0  0  0
   -1.3189   -6.3185   -0.0000 C   0  0  0  0  0  0  0  0  0  0  0  0
    3.8726   -3.6089   -0.0000 C   0  0  0  0  0  0  0  0  0  0  0  0
    5.1315   -1.3668   -0.0000 C   0  0  0  0  0  0  0  0  0  0  0  0
   -5.1076   -2.3260   -0.0000 C   0  0  0  0  0  0  0  0  0  0  0  0
   -5.1196   -4.9757   -0.0000 C   0  0  0  0  0  0  0  0  0  0  0  0
   -2.0982   -7.6134   -0.0000 C   0  0  0  0  0  0  0  0  0  0  0  0
    5.1555   -4.3282   -0.0000 C   0  0  0  0  0  0  0  0  0  0  0  0
    6.4264   -2.0862   -0.0000 C   0  0  0  0  0  0  0  0  0  0  0  0
   -5.8869   -3.6328   -0.0000 C   0  0  0  0  0  0  0  0  0  0  0  0
   -1.3548   -8.9203   -0.0000 O   0  0  0  0  0  0  0  0  0  0  0  0
    6.4264   -3.5489   -0.0000 C   0  0  0  0  0  0  0  0  0  0  0  0
    7.7333   -4.2803   -0.0000 C   0  0  0  0  0  0  0  0  0  0  0  0
    7.7333   -5.7910   -0.0000 N   0  0  0  0  0  0  0  0  0  0  0  0
    9.0282   -3.5010   -0.0000 C   0  0  0  0  0  0  0  0  0  0  0  0
    9.0402   -6.5223   -0.0000 C   0  0  0  0  0  0  0  0  0  0  0  0
   10.3350   -4.2323   -0.0000 C   0  0  0  0  0  0  0  0  0  0  0  0
   10.3350   -5.7310   -0.0000 C   0  0  0  0  0  0  0  0  0  0  0  0
  1  2  2  0  0  0  0
  2  3  1  0  0  0  0
  2  4  1  0  0  0  0
  3  5  1  0  0  0  0
  6  4  1  6  0  0  0
  4  7  1  0  0  0  0
  5  8  1  0  0  0  0
  5  9  1  0  0  0  0
  5 10  1  6  0  0  0
  6 11  1  0  0  0  0
  6 12  1  0  0  0  0
  8 13  2  0  0  0  0
  8 14  1  0  0  0  0
 10 15  1  0  0  0  0
 11 16  2  0  0  0  0
 11 17  1  0  0  0  0
 13 18  1  0  0  0  0
 14 19  2  0  0  0  0
 15 20  1  0  0  0  0
 16 21  1  0  0  0  0
 17 22  2  0  0  0  0
 18 23  2  0  0  0  0
 20 24  1  0  0  0  0
 21 25  2  0  0  0  0
 25 26  1  0  0  0  0
 26 27  2  0  0  0  0
 26 28  1  0  0  0  0
 27 29  1  0  0  0  0
 28 30  2  0  0  0  0
 29 31  2  0  0  0  0
  7  9  1  0  0  0  0
 19 23  1  0  0  0  0
 22 25  1  0  0  0  0
 30 31  1  0  0  0  0
M  END
>  <MolRegNo>
2200754

>  <m>
=

>  <Value>
23000

>  <Unit>
nM

>  <Type>
IC50

>  <pValue>
4.64

>  <Ligand Efficiency>
0

>  <Binding Efficiency>
0

>  <Surface Efficiency>
0

>  <Assay Index>
1103192

>  <Assay Category>


>  <Assay Organism>
Homo sapiens

>  <Target ID>
17045

>  <Target Name>
Cytochrome P450 3A4

>  <Target Organism>
Homo sapiens

>  <Target Description>
Target is a single protein chain

>  <Sequence Accession>
P08684

>  <Reference>
Bioorg Med Chem 25 (14), 3649-3657 (2017)

>  <Pubmed ID>
28528082

>  <DOI>
10.1016/j.bmc.2017.04.033

$$$$
2210482
Actelion Java MolfileCreator 1.0

 31 34  0  0  0  0  0  0  0  0999 V2000
    0.0000   -0.0000   -0.0000 O   0  0  0  0  0  0  0  0  0  0  0  0
    0.0120   -1.4747   -0.0000 C   0  0  0  0  0  0  0  0  0  0  0  0
   -1.2829   -2.2301   -0.0000 O   0  0  0  0  0  0  0  0  0  0  0  0
    1.3069   -2.1941   -0.0000 N   0  0  0  0  0  0  0  0  0  0  0  0
   -1.2829   -3.7048   -0.0000 C   0  0  0  0  0  0  0  0  0  0  0  0
    2.5658   -1.4148   -0.0000 C   0  0  0  0  0  0  0  0  0  0  0  0
    1.3069   -3.6688   -0.0000 C   0  0  0  0  0  0  0  0  0  0  0  0
   -2.8176   -3.6808   -0.0000 C   0  0  0  0  0  0  0  0  0  0  0  0
    0.0120   -4.4242   -0.0000 C   0  0  0  0  0  0  0  0  0  0  0  0
   -2.0622   -5.0117   -0.0000 C   0  0  0  0  0  0  0  0  0  0  0  0
    3.8607   -2.1341   -0.0000 C   0  0  0  0  0  0  0  0  0  0  0  0
    2.5418    0.0839   -0.0000 C   0  0  0  0  0  0  0  0  0  0  0  0
   -3.5729   -2.3500   -0.0000 C   0  0  0  0  0  0  0  0  0  0  0  0
   -3.5849   -4.9877   -0.0000 C   0  0  0  0  0  0  0  0  0  0  0  0
   -1.3189   -6.3185   -0.0000 C   0  0  0  0  0  0  0  0  0  0  0  0
    3.8726   -3.6089   -0.0000 C   0  0  0  0  0  0  0  0  0  0  0  0
    5.1315   -1.3668   -0.0000 C   0  0  0  0  0  0  0  0  0  0  0  0
   -5.1076   -2.3260   -0.0000 C   0  0  0  0  0  0  0  0  0  0  0  0
   -5.1196   -4.9757   -0.0000 C   0  0  0  0  0  0  0  0  0  0  0  0
   -2.0982   -7.6134   -0.0000 C   0  0  0  0  0  0  0  0  0  0  0  0
    5.1555   -4.3282   -0.0000 C   0  0  0  0  0  0  0  0  0  0  0  0
    6.4264   -2.0862   -0.0000 C   0  0  0  0  0  0  0  0  0  0  0  0
   -5.8869   -3.6328   -0.0000 C   0  0  0  0  0  0  0  0  0  0  0  0
   -1.3548   -8.9203   -0.0000 O   0  0  0  0  0  0  0  0  0  0  0  0
    6.4264   -3.5489   -0.0000 C   0  0  0  0  0  0  0  0  0  0  0  0
    7.7333   -4.2803   -0.0000 C   0  0  0  0  0  0  0  0  0  0  0  0
    7.7333   -5.7910   -0.0000 C   0  0  0  0  0  0  0  0  0  0  0  0
    9.0282   -3.5010   -0.0000 C   0  0  0  0  0  0  0  0  0  0  0  0
    9.0402   -6.5223   -0.0000 N   0  0  0  0  0  0  0  0  0  0  0  0
   10.3350   -4.2323   -0.0000 C   0  0  0  0  0  0  0  0  0  0  0  0
   10.3350   -5.7310   -0.0000 C   0  0  0  0  0  0  0  0  0  0  0  0
  1  2  2  0  0  0  0
  2  3  1  0  0  0  0
  2  4  1  0  0  0  0
  3  5  1  0  0  0  0
  6  4  1  6  0  0  0
  4  7  1  0  0  0  0
  5  8  1  0  0  0  0
  5  9  1  0  0  0  0
  5 10  1  6  0  0  0
  6 11  1  0  0  0  0
  6 12  1  0  0  0  0
  8 13  2  0  0  0  0
  8 14  1  0  0  0  0
 10 15  1  0  0  0  0
 11 16  2  0  0  0  0
 11 17  1  0  0  0  0
 13 18  1  0  0  0  0
 14 19  2  0  0  0  0
 15 20  1  0  0  0  0
 16 21  1  0  0  0  0
 17 22  2  0  0  0  0
 18 23  2  0  0  0  0
 20 24  1  0  0  0  0
 21 25  2  0  0  0  0
 25 26  1  0  0  0  0
 26 27  2  0  0  0  0
 26 28  1  0  0  0  0
 27 29  1  0  0  0  0
 28 30  2  0  0  0  0
 29 31  2  0  0  0  0
  7  9  1  0  0  0  0
 19 23  1  0  0  0  0
 22 25  1  0  0  0  0
 30 31  1  0  0  0  0
M  END
>  <MolRegNo>
2210482

>  <m>
=

>  <Value>
2100

>  <Unit>
nM

>  <Type>
IC50

>  <pValue>
5.68

>  <Ligand Efficiency>
0

>  <Binding Efficiency>
0

>  <Surface Efficiency>
0

>  <Assay Index>
1103192

>  <Assay Category>


>  <Assay Organism>
Homo sapiens

>  <Target ID>
17045

>  <Target Name>
Cytochrome P450 3A4

>  <Target Organism>
Homo sapiens

>  <Target Description>
Target is a single protein chain

>  <Sequence Accession>
P08684

>  <Reference>
Bioorg Med Chem 25 (14), 3649-3657 (2017)

>  <Pubmed ID>
28528082

>  <DOI>
10.1016/j.bmc.2017.04.033

$$$$
2241698
Actelion Java MolfileCreator 1.0

 31 34  0  0  0  0  0  0  0  0999 V2000
    0.0000   -0.0000   -0.0000 O   0  0  0  0  0  0  0  0  0  0  0  0
    0.0120   -1.4747   -0.0000 C   0  0  0  0  0  0  0  0  0  0  0  0
   -1.2829   -2.2301   -0.0000 O   0  0  0  0  0  0  0  0  0  0  0  0
    1.3069   -2.1941   -0.0000 N   0  0  0  0  0  0  0  0  0  0  0  0
   -1.2829   -3.7048   -0.0000 C   0  0  0  0  0  0  0  0  0  0  0  0
    2.5658   -1.4148   -0.0000 C   0  0  0  0  0  0  0  0  0  0  0  0
    1.3069   -3.6688   -0.0000 C   0  0  0  0  0  0  0  0  0  0  0  0
   -2.8176   -3.6808   -0.0000 C   0  0  0  0  0  0  0  0  0  0  0  0
    0.0120   -4.4242   -0.0000 C   0  0  0  0  0  0  0  0  0  0  0  0
   -2.0622   -5.0117   -0.0000 C   0  0  0  0  0  0  0  0  0  0  0  0
    3.8607   -2.1341   -0.0000 C   0  0  0  0  0  0  0  0  0  0  0  0
    2.5418    0.0839   -0.0000 C   0  0  0  0  0  0  0  0  0  0  0  0
   -3.5729   -2.3500   -0.0000 C   0  0  0  0  0  0  0  0  0  0  0  0
   -3.5849   -4.9877   -0.0000 C   0  0  0  0  0  0  0  0  0  0  0  0
   -1.3189   -6.3185   -0.0000 C   0  0  0  0  0  0  0  0  0  0  0  0
    3.8726   -3.6089   -0.0000 C   0  0  0  0  0  0  0  0  0  0  0  0
    5.1315   -1.3668   -0.0000 C   0  0  0  0  0  0  0  0  0  0  0  0
   -5.1076   -2.3260   -0.0000 C   0  0  0  0  0  0  0  0  0  0  0  0
   -5.1196   -4.9757   -0.0000 C   0  0  0  0  0  0  0  0  0  0  0  0
   -2.0982   -7.6134   -0.0000 C   0  0  0  0  0  0  0  0  0  0  0  0
    5.1555   -4.3282   -0.0000 C   0  0  0  0  0  0  0  0  0  0  0  0
    6.4264   -2.0862   -0.0000 C   0  0  0  0  0  0  0  0  0  0  0  0
   -5.8869   -3.6328   -0.0000 C   0  0  0  0  0  0  0  0  0  0  0  0
   -1.3548   -8.9203   -0.0000 O   0  0  0  0  0  0  0  0  0  0  0  0
    6.4264   -3.5489   -0.0000 C   0  0  0  0  0  0  0  0  0  0  0  0
    7.7333   -4.2803   -0.0000 C   0  0  0  0  0  0  0  0  0  0  0  0
    7.7333   -5.7910   -0.0000 C   0  0  0  0  0  0  0  0  0  0  0  0
    9.0282   -3.5010   -0.0000 C   0  0  0  0  0  0  0  0  0  0  0  0
    9.0402   -6.5223   -0.0000 C   0  0  0  0  0  0  0  0  0  0  0  0
   10.3350   -4.2323   -0.0000 C   0  0  0  0  0  0  0  0  0  0  0  0
   10.3350   -5.7310   -0.0000 N   0  0  0  0  0  0  0  0  0  0  0  0
  1  2  2  0  0  0  0
  2  3  1  0  0  0  0
  2  4  1  0  0  0  0
  3  5  1  0  0  0  0
  6  4  1  6  0  0  0
  4  7  1  0  0  0  0
  5  8  1  0  0  0  0
  5  9  1  0  0  0  0
  5 10  1  6  0  0  0
  6 11  1  0  0  0  0
  6 12  1  0  0  0  0
  8 13  2  0  0  0  0
  8 14  1  0  0  0  0
 10 15  1  0  0  0  0
 11 16  2  0  0  0  0
 11 17  1  0  0  0  0
 13 18  1  0  0  0  0
 14 19  2  0  0  0  0
 15 20  1  0  0  0  0
 16 21  1  0  0  0  0
 17 22  2  0  0  0  0
 18 23  2  0  0  0  0
 20 24  1  0  0  0  0
 21 25  2  0  0  0  0
 25 26  1  0  0  0  0
 26 27  2  0  0  0  0
 26 28  1  0  0  0  0
 27 29  1  0  0  0  0
 28 30  2  0  0  0  0
 29 31  2  0  0  0  0
  7  9  1  0  0  0  0
 19 23  1  0  0  0  0
 22 25  1  0  0  0  0
 30 31  1  0  0  0  0
M  END
>  <MolRegNo>
2241698

>  <m>
=

>  <Value>
1800

>  <Unit>
nM

>  <Type>
IC50

>  <pValue>
5.75

>  <Ligand Efficiency>
0

>  <Binding Efficiency>
0

>  <Surface Efficiency>
0

>  <Assay Index>
1103192

>  <Assay Category>


>  <Assay Organism>
Homo sapiens

>  <Target ID>
17045

>  <Target Name>
Cytochrome P450 3A4

>  <Target Organism>
Homo sapiens

>  <Target Description>
Target is a single protein chain

>  <Sequence Accession>
P08684

>  <Reference>
Bioorg Med Chem 25 (14), 3649-3657 (2017)

>  <Pubmed ID>
28528082

>  <DOI>
10.1016/j.bmc.2017.04.033

$$$$
2215780
Actelion Java MolfileCreator 1.0

 32 35  0  0  0  0  0  0  0  0999 V2000
    0.0000   -0.0000   -0.0000 F   0  0  0  0  0  0  0  0  0  0  0  0
   -1.3132   -0.7640   -0.0000 C   0  0  0  0  0  0  0  0  0  0  0  0
   -1.3012   -2.2682   -0.0000 C   0  0  0  0  0  0  0  0  0  0  0  0
   -2.6383   -0.0239   -0.0000 C   0  0  0  0  0  0  0  0  0  0  0  0
   -2.6144   -3.0203   -0.0000 N   0  0  0  0  0  0  0  0  0  0  0  0
   -3.9395   -0.7760   -0.0000 C   0  0  0  0  0  0  0  0  0  0  0  0
   -3.9395   -2.2682   -0.0000 C   0  0  0  0  0  0  0  0  0  0  0  0
   -5.2646   -0.0358   -0.0000 C   0  0  0  0  0  0  0  0  0  0  0  0
   -6.5539   -0.7760   -0.0000 C   0  0  0  0  0  0  0  0  0  0  0  0
   -5.2884    1.4564   -0.0000 C   0  0  0  0  0  0  0  0  0  0  0  0
   -7.8551   -0.0358   -0.0000 C   0  0  0  0  0  0  0  0  0  0  0  0
   -6.5897    2.1846   -0.0000 C   0  0  0  0  0  0  0  0  0  0  0  0
   -7.8909    1.4564   -0.0000 C   0  0  0  0  0  0  0  0  0  0  0  0
   -9.1921    2.1846   -0.0000 C   0  0  0  0  0  0  0  0  0  0  0  0
  -10.4695    1.4445   -0.0000 N   0  0  0  0  0  0  0  0  0  0  0  0
   -9.2160    3.6768   -0.0000 C   0  0  0  0  0  0  0  0  0  0  0  0
  -11.7707    2.1727   -0.0000 C   0  0  0  0  0  0  0  0  0  0  0  0
  -10.4695   -0.0239   -0.0000 C   0  0  0  0  0  0  0  0  0  0  0  0
  -11.8065    3.6649   -0.0000 O   0  0  0  0  0  0  0  0  0  0  0  0
  -13.0600    1.4325   -0.0000 O   0  0  0  0  0  0  0  0  0  0  0  0
  -11.7587   -0.7640   -0.0000 C   0  0  0  0  0  0  0  0  0  0  0  0
  -13.0600   -0.0239   -0.0000 C   0  0  0  0  0  0  0  0  0  0  0  0
  -14.5761   -0.0000   -0.0000 C   0  0  0  0  0  0  0  0  0  0  0  0
  -13.8359   -1.3132   -0.0000 C   0  0  0  0  0  0  0  0  0  0  0  0
  -15.3281    1.3251   -0.0000 C   0  0  0  0  0  0  0  0  0  0  0  0
  -15.3401   -1.2893   -0.0000 C   0  0  0  0  0  0  0  0  0  0  0  0
  -13.0958   -2.6144   -0.0000 C   0  0  0  0  0  0  0  0  0  0  0  0
  -16.8442    1.3490   -0.0000 C   0  0  0  0  0  0  0  0  0  0  0  0
  -16.8562   -1.2773   -0.0000 C   0  0  0  0  0  0  0  0  0  0  0  0
  -13.8717   -3.9037   -0.0000 C   0  0  0  0  0  0  0  0  0  0  0  0
  -17.6202    0.0597   -0.0000 C   0  0  0  0  0  0  0  0  0  0  0  0
  -13.1316   -5.2049   -0.0000 O   0  0  0  0  0  0  0  0  0  0  0  0
  1  2  1  0  0  0  0
  2  3  2  0  0  0  0
  2  4  1  0  0  0  0
  3  5  1  0  0  0  0
  4  6  2  0  0  0  0
  5  7  2  0  0  0  0
  6  8  1  0  0  0  0
  8  9  2  0  0  0  0
  8 10  1  0  0  0  0
  9 11  1  0  0  0  0
 10 12  2  0  0  0  0
 11 13  2  0  0  0  0
 13 14  1  0  0  0  0
 14 15  1  6  0  0  0
 14 16  1  0  0  0  0
 15 17  1  0  0  0  0
 15 18  1  0  0  0  0
 17 19  2  0  0  0  0
 17 20  1  0  0  0  0
 18 21  1  0  0  0  0
 20 22  1  0  0  0  0
 22 23  1  0  0  0  0
 22 24  1  6  0  0  0
 23 25  2  0  0  0  0
 23 26  1  0  0  0  0
 24 27  1  0  0  0  0
 25 28  1  0  0  0  0
 26 29  2  0  0  0  0
 27 30  1  0  0  0  0
 28 31  2  0  0  0  0
 30 32  1  0  0  0  0
  6  7  1  0  0  0  0
 12 13  1  0  0  0  0
 21 22  1  0  0  0  0
 29 31  1  0  0  0  0
M  END
>  <MolRegNo>
2215780

>  <m>
=

>  <Value>
11000

>  <Unit>
nM

>  <Type>
IC50

>  <pValue>
4.96

>  <Ligand Efficiency>
0

>  <Binding Efficiency>
0

>  <Surface Efficiency>
0

>  <Assay Index>
1103192

>  <Assay Category>


>  <Assay Organism>
Homo sapiens

>  <Target ID>
17045

>  <Target Name>
Cytochrome P450 3A4

>  <Target Organism>
Homo sapiens

>  <Target Description>
Target is a single protein chain

>  <Sequence Accession>
P08684

>  <Reference>
Bioorg Med Chem 25 (14), 3649-3657 (2017)

>  <Pubmed ID>
28528082

>  <DOI>
10.1016/j.bmc.2017.04.033

$$$$
1997653
Actelion Java MolfileCreator 1.0

 33 36  0  0  1  0  0  0  0  0999 V2000
    0.0000   -0.0000   -0.0000 O   0  0  0  0  0  0  0  0  0  0  0  0
   -0.0122    1.2539   -0.0000 C   0  0  0  0  0  0  0  0  0  0  0  0
   -1.3635    2.0330   -0.0000 O   0  0  0  0  0  0  0  0  0  0  0  0
    1.3148    2.0330   -0.0000 N   0  0  0  0  0  0  0  0  0  0  0  0
   -1.3756    3.5913   -0.0000 C   0  0  0  0  0  0  0  0  0  0  0  0
    2.6417    1.2782   -0.0000 C   0  0  0  0  0  0  0  0  0  0  0  0
    1.3026    3.5913   -0.0000 C   0  0  0  0  0  0  0  0  0  0  0  0
   -2.6904    2.8121   -0.0000 C   0  0  0  0  0  0  0  0  0  0  0  0
   -0.0487    4.3704   -0.0000 C   0  0  0  0  0  0  0  0  0  0  0  0
   -1.3513    5.1252   -0.0000 C   0  0  0  0  0  0  0  0  0  0  0  0
    2.6295   -0.2556   -0.0000 C   0  0  0  0  0  0  0  0  0  0  0  0
    3.7008    1.9113   -0.0000 C   0  0  0  0  0  0  0  0  0  0  0  0
   -2.6661    1.2782   -0.0000 C   0  0  0  0  0  0  0  0  0  0  0  0
   -4.0539    3.5669   -0.0000 C   0  0  0  0  0  0  0  0  0  0  0  0
   -0.0243    5.9165   -0.0000 C   0  0  0  0  0  0  0  0  0  0  0  0
    1.2782   -1.0226   -0.0000 C   0  0  0  0  0  0  0  0  0  0  0  0
    3.9565   -1.0104   -0.0000 C   0  0  0  0  0  0  0  0  0  0  0  0
   -3.9930    0.4870   -0.0000 C   0  0  0  0  0  0  0  0  0  0  0  0
   -5.3808    2.7756   -0.0000 C   0  0  0  0  0  0  0  0  0  0  0  0
   -0.0365    7.4747   -0.0000 C   0  0  0  0  0  0  0  0  0  0  0  0
    1.2661   -2.5565   -0.0000 C   0  0  0  0  0  0  0  0  0  0  0  0
    3.9443   -2.5443   -0.0000 C   0  0  0  0  0  0  0  0  0  0  0  0
   -5.3565    1.2417   -0.0000 C   0  0  0  0  0  0  0  0  0  0  0  0
    1.0226    8.1077   -0.0000 O   0  0  0  0  0  0  0  0  0  0  0  0
    2.5930   -3.3113   -0.0000 C   0  0  0  0  0  0  0  0  0  0  0  0
    2.5808   -4.8452   -0.0000 C   0  0  0  0  0  0  0  0  0  0  0  0
    1.2296   -5.6121   -0.0000 C   0  0  0  0  0  0  0  0  0  0  0  0
    3.9078   -5.5999   -0.0000 C   0  0  0  0  0  0  0  0  0  0  0  0
    1.2296   -7.1460   -0.0000 N   0  0  0  0  0  0  0  0  0  0  0  0
    3.9078   -7.1338   -0.0000 C   0  0  0  0  0  0  0  0  0  0  0  0
    2.5565   -7.9008   -0.0000 C   0  0  0  0  0  0  0  0  0  0  0  0
    0.1461   -7.7547   -0.0000 C   0  0  0  0  0  0  0  0  0  0  0  0
    2.5443   -9.1303   -0.0000 O   0  0  0  0  0  0  0  0  0  0  0  0
  1  2  2  0  0  0  0
  2  3  1  0  0  0  0
  2  4  1  0  0  0  0
  3  5  1  0  0  0  0
  6  4  1  1  0  0  0
  4  7  1  0  0  0  0
  5  8  1  0  0  0  0
  5  9  1  1  0  0  0
  5 10  1  0  0  0  0
  6 11  1  0  0  0  0
  6 12  1  0  0  0  0
  8 13  2  0  0  0  0
  8 14  1  0  0  0  0
 10 15  1  0  0  0  0
 11 16  2  0  0  0  0
 11 17  1  0  0  0  0
 13 18  1  0  0  0  0
 14 19  2  0  0  0  0
 15 20  1  0  0  0  0
 16 21  1  0  0  0  0
 17 22  2  0  0  0  0
 18 23  2  0  0  0  0
 20 24  1  0  0  0  0
 21 25  2  0  0  0  0
 25 26  1  0  0  0  0
 26 27  2  0  0  0  0
 26 28  1  0  0  0  0
 27 29  1  0  0  0  0
 28 30  2  0  0  0  0
 29 31  1  0  0  0  0
 29 32  1  0  0  0  0
 31 33  2  0  0  0  0
  7  9  1  0  0  0  0
 19 23  1  0  0  0  0
 22 25  1  0  0  0  0
 30 31  1  0  0  0  0
M  END
>  <MolRegNo>
1997653

>  <m>
=

>  <Value>
10500

>  <Unit>
nM

>  <Type>
IC50

>  <pValue>
4.98

>  <Ligand Efficiency>
0

>  <Binding Efficiency>
0

>  <Surface Efficiency>
0

>  <Assay Index>
1103192

>  <Assay Category>


>  <Assay Organism>
Homo sapiens

>  <Target ID>
17045

>  <Target Name>
Cytochrome P450 3A4

>  <Target Organism>
Homo sapiens

>  <Target Description>
Target is a single protein chain

>  <Sequence Accession>
P08684

>  <Reference>
Bioorg Med Chem 25 (14), 3649-3657 (2017)

>  <Pubmed ID>
28528082

>  <DOI>
10.1016/j.bmc.2017.04.033

$$$$
2209628
Actelion Java MolfileCreator 1.0

 34 37  0  0  0  0  0  0  0  0999 V2000
    0.0000   -0.0000   -0.0000 O   0  0  0  0  0  0  0  0  0  0  0  0
    0.0120   -1.4734   -0.0000 C   0  0  0  0  0  0  0  0  0  0  0  0
   -1.2817   -2.2280   -0.0000 O   0  0  0  0  0  0  0  0  0  0  0  0
    1.3057   -2.1921   -0.0000 N   0  0  0  0  0  0  0  0  0  0  0  0
   -1.2817   -3.7014   -0.0000 C   0  0  0  0  0  0  0  0  0  0  0  0
    2.5634   -1.4135   -0.0000 C   0  0  0  0  0  0  0  0  0  0  0  0
    1.3057   -3.6654   -0.0000 C   0  0  0  0  0  0  0  0  0  0  0  0
   -2.8150   -3.6774   -0.0000 C   0  0  0  0  0  0  0  0  0  0  0  0
    0.0120   -4.4201   -0.0000 C   0  0  0  0  0  0  0  0  0  0  0  0
   -2.0603   -5.0070   -0.0000 C   0  0  0  0  0  0  0  0  0  0  0  0
    3.8571   -2.1322   -0.0000 C   0  0  0  0  0  0  0  0  0  0  0  0
    2.5395    0.0838   -0.0000 C   0  0  0  0  0  0  0  0  0  0  0  0
   -3.5696   -2.3478   -0.0000 C   0  0  0  0  0  0  0  0  0  0  0  0
   -3.5816   -4.9831   -0.0000 C   0  0  0  0  0  0  0  0  0  0  0  0
   -1.3176   -6.3127   -0.0000 C   0  0  0  0  0  0  0  0  0  0  0  0
    3.8691   -3.6055   -0.0000 C   0  0  0  0  0  0  0  0  0  0  0  0
    5.1268   -1.3656   -0.0000 C   0  0  0  0  0  0  0  0  0  0  0  0
   -5.1029   -2.3238   -0.0000 C   0  0  0  0  0  0  0  0  0  0  0  0
   -5.1148   -4.9711   -0.0000 C   0  0  0  0  0  0  0  0  0  0  0  0
   -2.0962   -7.6184   -0.0000 O   0  0  0  0  0  0  0  0  0  0  0  0
   -0.0120   -5.5341   -0.0000 C   0  0  0  0  0  0  0  0  0  0  0  0
   -0.0120   -7.0554   -0.0000 C   0  0  0  0  0  0  0  0  0  0  0  0
    5.1508   -4.3243   -0.0000 C   0  0  0  0  0  0  0  0  0  0  0  0
    6.4205   -2.0843   -0.0000 C   0  0  0  0  0  0  0  0  0  0  0  0
   -5.8815   -3.6295   -0.0000 C   0  0  0  0  0  0  0  0  0  0  0  0
    6.4205   -3.5457   -0.0000 C   0  0  0  0  0  0  0  0  0  0  0  0
    7.7262   -4.2763   -0.0000 C   0  0  0  0  0  0  0  0  0  0  0  0
    7.7262   -5.7856   -0.0000 C   0  0  0  0  0  0  0  0  0  0  0  0
    8.9959   -3.4858   -0.0000 C   0  0  0  0  0  0  0  0  0  0  0  0
    9.0318   -6.5163   -0.0000 N   0  0  0  0  0  0  0  0  0  0  0  0
   10.3016   -4.2045   -0.0000 C   0  0  0  0  0  0  0  0  0  0  0  0
   10.3255   -5.7258   -0.0000 C   0  0  0  0  0  0  0  0  0  0  0  0
   11.6312   -6.4564   -0.0000 O   0  0  0  0  0  0  0  0  0  0  0  0
   12.9249   -5.6659   -0.0000 C   0  0  0  0  0  0  0  0  0  0  0  0
  1  2  2  0  0  0  0
  2  3  1  0  0  0  0
  2  4  1  0  0  0  0
  3  5  1  0  0  0  0
  6  4  1  6  0  0  0
  4  7  1  0  0  0  0
  5  8  1  0  0  0  0
  5  9  1  0  0  0  0
  5 10  1  6  0  0  0
  6 11  1  0  0  0  0
  6 12  1  0  0  0  0
  8 13  2  0  0  0  0
  8 14  1  0  0  0  0
 10 15  1  0  0  0  0
 11 16  2  0  0  0  0
 11 17  1  0  0  0  0
 13 18  1  0  0  0  0
 14 19  2  0  0  0  0
 15 20  1  0  0  0  0
 15 21  1  0  0  0  0
 15 22  1  0  0  0  0
 16 23  1  0  0  0  0
 17 24  2  0  0  0  0
 18 25  2  0  0  0  0
 23 26  2  0  0  0  0
 26 27  1  0  0  0  0
 27 28  2  0  0  0  0
 27 29  1  0  0  0  0
 28 30  1  0  0  0  0
 29 31  2  0  0  0  0
 30 32  2  0  0  0  0
 32 33  1  0  0  0  0
 33 34  1  0  0  0  0
  7  9  1  0  0  0  0
 19 25  1  0  0  0  0
 24 26  1  0  0  0  0
 31 32  1  0  0  0  0
M  END
>  <MolRegNo>
2209628

>  <m>
=

>  <Value>
11600

>  <Unit>
nM

>  <Type>
IC50

>  <pValue>
4.94

>  <Ligand Efficiency>
0

>  <Binding Efficiency>
0

>  <Surface Efficiency>
0

>  <Assay Index>
1103192

>  <Assay Category>


>  <Assay Organism>
Homo sapiens

>  <Target ID>
17045

>  <Target Name>
Cytochrome P450 3A4

>  <Target Organism>
Homo sapiens

>  <Target Description>
Target is a single protein chain

>  <Sequence Accession>
P08684

>  <Reference>
Bioorg Med Chem 25 (14), 3649-3657 (2017)

>  <Pubmed ID>
28528082

>  <DOI>
10.1016/j.bmc.2017.04.033

$$$$
2236090
Actelion Java MolfileCreator 1.0

 33 36  0  0  0  0  0  0  0  0999 V2000
    0.0000   -0.0000   -0.0000 F   0  0  0  0  0  0  0  0  0  0  0  0
   -1.3303    0.7483   -0.0000 C   0  0  0  0  0  0  0  0  0  0  0  0
   -2.6368   -0.0119   -0.0000 C   0  0  0  0  0  0  0  0  0  0  0  0
   -1.3659    2.2686   -0.0000 C   0  0  0  0  0  0  0  0  0  0  0  0
   -3.9551    0.7364   -0.0000 N   0  0  0  0  0  0  0  0  0  0  0  0
   -2.6843    3.0049   -0.0000 C   0  0  0  0  0  0  0  0  0  0  0  0
   -3.9789    2.2567   -0.0000 C   0  0  0  0  0  0  0  0  0  0  0  0
   -5.2973    3.0049   -0.0000 C   0  0  0  0  0  0  0  0  0  0  0  0
   -6.5800    2.2567   -0.0000 C   0  0  0  0  0  0  0  0  0  0  0  0
   -5.3210    4.4896   -0.0000 C   0  0  0  0  0  0  0  0  0  0  0  0
   -7.8746    2.9931   -0.0000 C   0  0  0  0  0  0  0  0  0  0  0  0
   -6.6275    5.2260   -0.0000 C   0  0  0  0  0  0  0  0  0  0  0  0
   -7.9103    4.4777   -0.0000 C   0  0  0  0  0  0  0  0  0  0  0  0
   -9.2168    5.2141   -0.0000 C   0  0  0  0  0  0  0  0  0  0  0  0
  -10.4876    4.4659   -0.0000 N   0  0  0  0  0  0  0  0  0  0  0  0
   -9.2405    6.6988   -0.0000 C   0  0  0  0  0  0  0  0  0  0  0  0
  -11.7941    5.2022   -0.0000 C   0  0  0  0  0  0  0  0  0  0  0  0
  -10.4876    3.0049   -0.0000 C   0  0  0  0  0  0  0  0  0  0  0  0
  -11.8298    6.6869   -0.0000 O   0  0  0  0  0  0  0  0  0  0  0  0
  -13.0769    4.4540   -0.0000 O   0  0  0  0  0  0  0  0  0  0  0  0
  -11.7704    2.2567   -0.0000 C   0  0  0  0  0  0  0  0  0  0  0  0
  -13.0769    2.9931   -0.0000 C   0  0  0  0  0  0  0  0  0  0  0  0
  -14.5972    3.0168   -0.0000 C   0  0  0  0  0  0  0  0  0  0  0  0
  -13.8489    1.6984   -0.0000 C   0  0  0  0  0  0  0  0  0  0  0  0
  -15.3454    4.3352   -0.0000 C   0  0  0  0  0  0  0  0  0  0  0  0
  -15.3573    1.7222   -0.0000 C   0  0  0  0  0  0  0  0  0  0  0  0
  -13.1125    0.4038   -0.0000 C   0  0  0  0  0  0  0  0  0  0  0  0
  -16.8657    4.3590   -0.0000 C   0  0  0  0  0  0  0  0  0  0  0  0
  -16.8776    1.7341   -0.0000 C   0  0  0  0  0  0  0  0  0  0  0  0
  -13.8845   -0.8908   -0.0000 O   0  0  0  0  0  0  0  0  0  0  0  0
  -11.8179    1.1758   -0.0000 C   0  0  0  0  0  0  0  0  0  0  0  0
  -11.8179   -0.3326   -0.0000 C   0  0  0  0  0  0  0  0  0  0  0  0
  -17.6377    3.0643   -0.0000 C   0  0  0  0  0  0  0  0  0  0  0  0
  1  2  1  0  0  0  0
  2  3  2  0  0  0  0
  2  4  1  0  0  0  0
  3  5  1  0  0  0  0
  4  6  2  0  0  0  0
  5  7  2  0  0  0  0
  7  8  1  0  0  0  0
  8  9  2  0  0  0  0
  8 10  1  0  0  0  0
  9 11  1  0  0  0  0
 10 12  2  0  0  0  0
 11 13  2  0  0  0  0
 13 14  1  0  0  0  0
 14 15  1  6  0  0  0
 14 16  1  0  0  0  0
 15 17  1  0  0  0  0
 15 18  1  0  0  0  0
 17 19  2  0  0  0  0
 17 20  1  0  0  0  0
 18 21  1  0  0  0  0
 20 22  1  0  0  0  0
 22 23  1  0  0  0  0
 22 24  1  6  0  0  0
 23 25  2  0  0  0  0
 23 26  1  0  0  0  0
 24 27  1  0  0  0  0
 25 28  1  0  0  0  0
 26 29  2  0  0  0  0
 27 30  1  0  0  0  0
 27 31  1  0  0  0  0
 27 32  1  0  0  0  0
 28 33  2  0  0  0  0
  6  7  1  0  0  0  0
 12 13  1  0  0  0  0
 21 22  1  0  0  0  0
 29 33  1  0  0  0  0
M  END
>  <MolRegNo>
2236090

>  <m>
=

>  <Value>
24100

>  <Unit>
nM

>  <Type>
IC50

>  <pValue>
4.62

>  <Ligand Efficiency>
0

>  <Binding Efficiency>
0

>  <Surface Efficiency>
0

>  <Assay Index>
1103192

>  <Assay Category>


>  <Assay Organism>
Homo sapiens

>  <Target ID>
17045

>  <Target Name>
Cytochrome P450 3A4

>  <Target Organism>
Homo sapiens

>  <Target Description>
Target is a single protein chain

>  <Sequence Accession>
P08684

>  <Reference>
Bioorg Med Chem 25 (14), 3649-3657 (2017)

>  <Pubmed ID>
28528082

>  <DOI>
10.1016/j.bmc.2017.04.033

$$$$
2230039
Actelion Java MolfileCreator 1.0

 34 37  0  0  0  0  0  0  0  0999 V2000
    0.0000   -0.0000   -0.0000 O   0  0  0  0  0  0  0  0  0  0  0  0
    0.0120   -1.4735   -0.0000 C   0  0  0  0  0  0  0  0  0  0  0  0
   -1.2818   -2.2282   -0.0000 O   0  0  0  0  0  0  0  0  0  0  0  0
    1.3058   -2.1923   -0.0000 N   0  0  0  0  0  0  0  0  0  0  0  0
   -1.2818   -3.7017   -0.0000 C   0  0  0  0  0  0  0  0  0  0  0  0
    2.5636   -1.4136   -0.0000 C   0  0  0  0  0  0  0  0  0  0  0  0
    1.3058   -3.6658   -0.0000 C   0  0  0  0  0  0  0  0  0  0  0  0
   -2.8152   -3.6777   -0.0000 C   0  0  0  0  0  0  0  0  0  0  0  0
    0.0120   -4.4205   -0.0000 C   0  0  0  0  0  0  0  0  0  0  0  0
   -2.0605   -5.0075   -0.0000 C   0  0  0  0  0  0  0  0  0  0  0  0
    3.8574   -2.1324   -0.0000 C   0  0  0  0  0  0  0  0  0  0  0  0
    2.5397    0.0839   -0.0000 C   0  0  0  0  0  0  0  0  0  0  0  0
   -3.5699   -2.3480   -0.0000 C   0  0  0  0  0  0  0  0  0  0  0  0
   -3.5819   -4.9835   -0.0000 C   0  0  0  0  0  0  0  0  0  0  0  0
   -1.3178   -6.3132   -0.0000 C   0  0  0  0  0  0  0  0  0  0  0  0
    3.8694   -3.6059   -0.0000 C   0  0  0  0  0  0  0  0  0  0  0  0
    5.1273   -1.3657   -0.0000 C   0  0  0  0  0  0  0  0  0  0  0  0
   -5.1033   -2.3240   -0.0000 C   0  0  0  0  0  0  0  0  0  0  0  0
   -5.1153   -4.9715   -0.0000 C   0  0  0  0  0  0  0  0  0  0  0  0
   -2.0964   -7.6190   -0.0000 O   0  0  0  0  0  0  0  0  0  0  0  0
   -0.0120   -5.5346   -0.0000 C   0  0  0  0  0  0  0  0  0  0  0  0
   -0.0120   -7.0560   -0.0000 C   0  0  0  0  0  0  0  0  0  0  0  0
    5.1512   -4.3246   -0.0000 C   0  0  0  0  0  0  0  0  0  0  0  0
    6.4211   -2.0844   -0.0000 C   0  0  0  0  0  0  0  0  0  0  0  0
   -5.8820   -3.6298   -0.0000 C   0  0  0  0  0  0  0  0  0  0  0  0
    6.4211   -3.5460   -0.0000 C   0  0  0  0  0  0  0  0  0  0  0  0
    7.7268   -4.2767   -0.0000 C   0  0  0  0  0  0  0  0  0  0  0  0
    7.7268   -5.7861   -0.0000 N   0  0  0  0  0  0  0  0  0  0  0  0
    8.9967   -3.4861   -0.0000 C   0  0  0  0  0  0  0  0  0  0  0  0
    9.0326   -6.5169   -0.0000 C   0  0  0  0  0  0  0  0  0  0  0  0
   10.3024   -4.2048   -0.0000 C   0  0  0  0  0  0  0  0  0  0  0  0
   10.3264   -5.7262   -0.0000 C   0  0  0  0  0  0  0  0  0  0  0  0
   11.6442   -6.4450   -0.0000 C   0  0  0  0  0  0  0  0  0  0  0  0
   12.9619   -7.1758   -0.0000 N   0  0  0  0  0  0  0  0  0  0  0  0
  1  2  2  0  0  0  0
  2  3  1  0  0  0  0
  2  4  1  0  0  0  0
  3  5  1  0  0  0  0
  6  4  1  6  0  0  0
  4  7  1  0  0  0  0
  5  8  1  0  0  0  0
  5  9  1  0  0  0  0
  5 10  1  6  0  0  0
  6 11  1  0  0  0  0
  6 12  1  0  0  0  0
  8 13  2  0  0  0  0
  8 14  1  0  0  0  0
 10 15  1  0  0  0  0
 11 16  2  0  0  0  0
 11 17  1  0  0  0  0
 13 18  1  0  0  0  0
 14 19  2  0  0  0  0
 15 20  1  0  0  0  0
 15 21  1  0  0  0  0
 15 22  1  0  0  0  0
 16 23  1  0  0  0  0
 17 24  2  0  0  0  0
 18 25  2  0  0  0  0
 23 26  2  0  0  0  0
 26 27  1  0  0  0  0
 27 28  2  0  0  0  0
 27 29  1  0  0  0  0
 28 30  1  0  0  0  0
 29 31  2  0  0  0  0
 30 32  2  0  0  0  0
 32 33  1  0  0  0  0
 33 34  3  0  0  0  0
  7  9  1  0  0  0  0
 19 25  1  0  0  0  0
 24 26  1  0  0  0  0
 31 32  1  0  0  0  0
M  END
>  <MolRegNo>
2230039

>  <m>
=

>  <Value>
12700

>  <Unit>
nM

>  <Type>
IC50

>  <pValue>
4.9

>  <Ligand Efficiency>
0

>  <Binding Efficiency>
0

>  <Surface Efficiency>
0

>  <Assay Index>
1103192

>  <Assay Category>


>  <Assay Organism>
Homo sapiens

>  <Target ID>
17045

>  <Target Name>
Cytochrome P450 3A4

>  <Target Organism>
Homo sapiens

>  <Target Description>
Target is a single protein chain

>  <Sequence Accession>
P08684

>  <Reference>
Bioorg Med Chem 25 (14), 3649-3657 (2017)

>  <Pubmed ID>
28528082

>  <DOI>
10.1016/j.bmc.2017.04.033

$$$$
1993037
Actelion Java MolfileCreator 1.0

 35 39  0  0  1  0  0  0  0  0999 V2000
    0.0000   -0.0000   -0.0000 O   0  0  0  0  0  0  0  0  0  0  0  0
    1.0530   -0.6052   -0.0000 C   0  0  0  0  0  0  0  0  0  0  0  0
    2.3723    0.1695   -0.0000 O   0  0  0  0  0  0  0  0  0  0  0  0
    1.0288   -2.1303   -0.0000 N   0  0  0  0  0  0  0  0  0  0  0  0
    3.6916   -0.5931   -0.0000 C   0  0  0  0  0  0  0  0  0  0  0  0
   -0.3147   -2.8807   -0.0000 C   0  0  0  0  0  0  0  0  0  0  0  0
    2.3481   -2.8928   -0.0000 C   0  0  0  0  0  0  0  0  0  0  0  0
    3.6553    0.9320   -0.0000 C   0  0  0  0  0  0  0  0  0  0  0  0
    3.6674   -2.1182   -0.0000 C   0  0  0  0  0  0  0  0  0  0  0  0
    4.9746   -1.3798   -0.0000 C   0  0  0  0  0  0  0  0  0  0  0  0
   -1.6582   -2.0939   -0.0000 C   0  0  0  0  0  0  0  0  0  0  0  0
   -0.3268   -4.1032   -0.0000 C   0  0  0  0  0  0  0  0  0  0  0  0
    2.2997    1.6824   -0.0000 C   0  0  0  0  0  0  0  0  0  0  0  0
    4.9625    1.7429   -0.0000 C   0  0  0  0  0  0  0  0  0  0  0  0
    4.9504   -2.9049   -0.0000 C   0  0  0  0  0  0  0  0  0  0  0  0
   -1.6703   -0.5447   -0.0000 C   0  0  0  0  0  0  0  0  0  0  0  0
   -3.0017   -2.8444   -0.0000 C   0  0  0  0  0  0  0  0  0  0  0  0
    2.2634    3.2317   -0.0000 C   0  0  0  0  0  0  0  0  0  0  0  0
    4.9262    3.2922   -0.0000 C   0  0  0  0  0  0  0  0  0  0  0  0
    6.0035   -3.5101   -0.0000 O   0  0  0  0  0  0  0  0  0  0  0  0
    3.8732   -3.4980   -0.0000 C   0  0  0  0  0  0  0  0  0  0  0  0
    4.9262   -4.1274   -0.0000 C   0  0  0  0  0  0  0  0  0  0  0  0
   -3.0138    0.2421   -0.0000 C   0  0  0  0  0  0  0  0  0  0  0  0
   -4.3452   -2.0576   -0.0000 C   0  0  0  0  0  0  0  0  0  0  0  0
    3.5706    4.0427   -0.0000 C   0  0  0  0  0  0  0  0  0  0  0  0
   -4.3574   -0.5084   -0.0000 C   0  0  0  0  0  0  0  0  0  0  0  0
   -5.7009    0.2663   -0.0000 C   0  0  0  0  0  0  0  0  0  0  0  0
   -7.0444   -0.4842   -0.0000 C   0  0  0  0  0  0  0  0  0  0  0  0
   -5.7130    1.8156   -0.0000 C   0  0  0  0  0  0  0  0  0  0  0  0
   -8.3879    0.2905   -0.0000 N   0  0  0  0  0  0  0  0  0  0  0  0
   -7.0565    2.5902   -0.0000 C   0  0  0  0  0  0  0  0  0  0  0  0
   -9.8646   -0.1695   -0.0000 N   0  0  0  0  0  0  0  0  0  0  0  0
   -8.4000    1.8398   -0.0000 C   0  0  0  0  0  0  0  0  0  0  0  0
  -10.7844    1.0893   -0.0000 C   0  0  0  0  0  0  0  0  0  0  0  0
   -9.8767    2.3239   -0.0000 N   0  0  0  0  0  0  0  0  0  0  0  0
  1  2  2  0  0  0  0
  2  3  1  0  0  0  0
  2  4  1  0  0  0  0
  3  5  1  0  0  0  0
  6  4  1  1  0  0  0
  4  7  1  0  0  0  0
  5  8  1  0  0  0  0
  5  9  1  1  0  0  0
  5 10  1  0  0  0  0
  6 11  1  0  0  0  0
  6 12  1  0  0  0  0
  8 13  2  0  0  0  0
  8 14  1  0  0  0  0
 10 15  1  0  0  0  0
 11 16  2  0  0  0  0
 11 17  1  0  0  0  0
 13 18  1  0  0  0  0
 14 19  2  0  0  0  0
 15 20  1  0  0  0  0
 15 21  1  0  0  0  0
 15 22  1  0  0  0  0
 16 23  1  0  0  0  0
 17 24  2  0  0  0  0
 18 25  2  0  0  0  0
 23 26  2  0  0  0  0
 26 27  1  0  0  0  0
 27 28  2  0  0  0  0
 27 29  1  0  0  0  0
 28 30  1  0  0  0  0
 29 31  2  0  0  0  0
 30 32  1  0  0  0  0
 30 33  1  0  0  0  0
 32 34  2  0  0  0  0
 33 35  2  0  0  0  0
  7  9  1  0  0  0  0
 19 25  1  0  0  0  0
 24 26  1  0  0  0  0
 31 33  1  0  0  0  0
 34 35  1  0  0  0  0
M  END
>  <MolRegNo>
1993037

>  <m>
=

>  <Value>
10000

>  <Unit>
nM

>  <Type>
IC50

>  <pValue>
5

>  <Ligand Efficiency>
0

>  <Binding Efficiency>
0

>  <Surface Efficiency>
0

>  <Assay Index>
1103192

>  <Assay Category>


>  <Assay Organism>
Homo sapiens

>  <Target ID>
17045

>  <Target Name>
Cytochrome P450 3A4

>  <Target Organism>
Homo sapiens

>  <Target Description>
Target is a single protein chain

>  <Sequence Accession>
P08684

>  <Reference>
Bioorg Med Chem 25 (14), 3649-3657 (2017)

>  <Pubmed ID>
28528082

>  <DOI>
10.1016/j.bmc.2017.04.033

$$$$
2222277
Actelion Java MolfileCreator 1.0

 31 34  0  0  0  0  0  0  0  0999 V2000
    0.0000   -0.0000   -0.0000 O   0  0  0  0  0  0  0  0  0  0  0  0
   -0.0119    1.5093   -0.0000 C   0  0  0  0  0  0  0  0  0  0  0  0
    1.2716    2.2699   -0.0000 N   0  0  0  0  0  0  0  0  0  0  0  0
   -1.3192    2.2699   -0.0000 N   0  0  0  0  0  0  0  0  0  0  0  0
    2.6265    1.6757   -0.0000 C   0  0  0  0  0  0  0  0  0  0  0  0
    1.4143    3.7793   -0.0000 C   0  0  0  0  0  0  0  0  0  0  0  0
   -2.6265    1.5331   -0.0000 C   0  0  0  0  0  0  0  0  0  0  0  0
    3.6010    2.8048   -0.0000 C   0  0  0  0  0  0  0  0  0  0  0  0
    2.8642    4.1121   -0.0000 C   0  0  0  0  0  0  0  0  0  0  0  0
   -3.9338    2.2937   -0.0000 C   0  0  0  0  0  0  0  0  0  0  0  0
   -2.6384    0.0357   -0.0000 C   0  0  0  0  0  0  0  0  0  0  0  0
    5.0866    2.8166   -0.0000 C   0  0  0  0  0  0  0  0  0  0  0  0
    3.5891    5.4194   -0.0000 C   0  0  0  0  0  0  0  0  0  0  0  0
   -5.2411    1.5569   -0.0000 C   0  0  0  0  0  0  0  0  0  0  0  0
   -3.9576   -0.7012   -0.0000 C   0  0  0  0  0  0  0  0  0  0  0  0
    5.8234    4.1239   -0.0000 C   0  0  0  0  0  0  0  0  0  0  0  0
    5.0628    5.4431   -0.0000 C   0  0  0  0  0  0  0  0  0  0  0  0
   -5.2530    0.0594   -0.0000 C   0  0  0  0  0  0  0  0  0  0  0  0
   -6.5603   -0.6774   -0.0000 C   0  0  0  0  0  0  0  0  0  0  0  0
   -7.8676    0.0951   -0.0000 C   0  0  0  0  0  0  0  0  0  0  0  0
   -6.5722   -2.1630   -0.0000 C   0  0  0  0  0  0  0  0  0  0  0  0
   -9.1749   -0.6299   -0.0000 C   0  0  0  0  0  0  0  0  0  0  0  0
   -7.8913   -2.8998   -0.0000 C   0  0  0  0  0  0  0  0  0  0  0  0
   -9.1986   -2.1154   -0.0000 N   0  0  0  0  0  0  0  0  0  0  0  0
  -10.5178   -2.8523   -0.0000 C   0  0  0  0  0  0  0  0  0  0  0  0
  -10.5416   -4.3379   -0.0000 O   0  0  0  0  0  0  0  0  0  0  0  0
  -11.8251   -2.0798   -0.0000 C   0  0  0  0  0  0  0  0  0  0  0  0
  -13.1324   -2.8166   -0.0000 C   0  0  0  0  0  0  0  0  0  0  0  0
  -14.4278   -2.0441   -0.0000 O   0  0  0  0  0  0  0  0  0  0  0  0
  -12.4075   -4.1002   -0.0000 C   0  0  0  0  0  0  0  0  0  0  0  0
  -13.8930   -4.1002   -0.0000 C   0  0  0  0  0  0  0  0  0  0  0  0
  1  2  2  0  0  0  0
  2  3  1  0  0  0  0
  2  4  1  0  0  0  0
  3  5  1  0  0  0  0
  3  6  1  0  0  0  0
  4  7  1  0  0  0  0
  5  8  1  0  0  0  0
  6  9  1  0  0  0  0
  7 10  2  0  0  0  0
  7 11  1  0  0  0  0
  8 12  1  0  0  0  0
  9 13  1  0  0  0  0
 10 14  1  0  0  0  0
 11 15  2  0  0  0  0
 12 16  2  0  0  0  0
 13 17  2  0  0  0  0
 14 18  2  0  0  0  0
 18 19  1  0  0  0  0
 19 20  1  0  0  0  0
 19 21  1  0  0  0  0
 20 22  1  0  0  0  0
 21 23  1  0  0  0  0
 22 24  1  0  0  0  0
 24 25  1  0  0  0  0
 25 26  2  0  0  0  0
 25 27  1  0  0  0  0
 27 28  1  0  0  0  0
 28 29  1  0  0  0  0
 28 30  1  0  0  0  0
 28 31  1  0  0  0  0
  8  9  2  0  0  0  0
 15 18  1  0  0  0  0
 16 17  1  0  0  0  0
 23 24  1  0  0  0  0
M  END
>  <MolRegNo>
2222277

>  <m>
=

>  <Value>
16000

>  <Unit>
nM

>  <Type>
IC50

>  <pValue>
4.8

>  <Ligand Efficiency>
0

>  <Binding Efficiency>
0

>  <Surface Efficiency>
0

>  <Assay Index>
1103659

>  <Assay Category>


>  <Assay Organism>
Homo sapiens

>  <Target ID>
17045

>  <Target Name>
Cytochrome P450 3A4

>  <Target Organism>
Homo sapiens

>  <Target Description>
Target is a single protein chain

>  <Sequence Accession>
P08684

>  <Reference>
Bioorg Med Chem Lett 27 (15), 3317-3325 (2017)

>  <Pubmed ID>
28610984

>  <DOI>
10.1016/j.bmcl.2017.06.018

$$$$
2201532
Actelion Java MolfileCreator 1.0

 45 49  0  0  0  0  0  0  0  0999 V2000
    0.0000   -0.0000   -0.0000 F   0  0  0  0  0  0  0  0  0  0  0  0
   -1.5049   -0.0000   -0.0000 C   0  0  0  0  0  0  0  0  0  0  0  0
   -2.2633   -1.2798   -0.0000 C   0  0  0  0  0  0  0  0  0  0  0  0
   -2.2870    1.3035   -0.0000 C   0  0  0  0  0  0  0  0  0  0  0  0
   -3.7682   -1.2798   -0.0000 C   0  0  0  0  0  0  0  0  0  0  0  0
   -3.7919    1.2916   -0.0000 C   0  0  0  0  0  0  0  0  0  0  0  0
   -4.5384    0.0118   -0.0000 C   0  0  0  0  0  0  0  0  0  0  0  0
   -6.0433    0.0118   -0.0000 C   0  0  0  0  0  0  0  0  0  0  0  0
   -6.9202   -1.1850   -0.0000 O   0  0  0  0  0  0  0  0  0  0  0  0
   -6.9439    1.2324   -0.0000 C   0  0  0  0  0  0  0  0  0  0  0  0
   -8.3659   -0.7228   -0.0000 C   0  0  0  0  0  0  0  0  0  0  0  0
   -8.3777    0.7702   -0.0000 C   0  0  0  0  0  0  0  0  0  0  0  0
   -6.5055    2.6662   -0.0000 C   0  0  0  0  0  0  0  0  0  0  0  0
   -9.6812   -1.4694   -0.0000 N   0  0  0  0  0  0  0  0  0  0  0  0
   -9.6812    1.5168   -0.0000 C   0  0  0  0  0  0  0  0  0  0  0  0
   -7.5245    3.7800   -0.0000 O   0  0  0  0  0  0  0  0  0  0  0  0
   -5.0598    2.9980   -0.0000 N   0  0  0  0  0  0  0  0  0  0  0  0
  -10.9846   -0.7110   -0.0000 C   0  0  0  0  0  0  0  0  0  0  0  0
  -10.9728    0.7821   -0.0000 C   0  0  0  0  0  0  0  0  0  0  0  0
   -4.6214    4.4318   -0.0000 C   0  0  0  0  0  0  0  0  0  0  0  0
  -12.2881   -1.4457   -0.0000 C   0  0  0  0  0  0  0  0  0  0  0  0
  -12.2763    1.5405   -0.0000 C   0  0  0  0  0  0  0  0  0  0  0  0
  -12.2999   -2.9269   -0.0000 C   0  0  0  0  0  0  0  0  0  0  0  0
  -12.2881    3.0572   -0.0000 C   0  0  0  0  0  0  0  0  0  0  0  0
  -13.5916    0.8058   -0.0000 C   0  0  0  0  0  0  0  0  0  0  0  0
  -13.6034   -3.6615   -0.0000 C   0  0  0  0  0  0  0  0  0  0  0  0
  -13.5916    3.8156   -0.0000 N   0  0  0  0  0  0  0  0  0  0  0  0
  -14.8950    1.5642   -0.0000 C   0  0  0  0  0  0  0  0  0  0  0  0
  -13.6153   -5.1428   -0.0000 F   0  0  0  0  0  0  0  0  0  0  0  0
  -14.9069   -2.9032   -0.0000 F   0  0  0  0  0  0  0  0  0  0  0  0
  -14.9069   -4.3844   -0.0000 F   0  0  0  0  0  0  0  0  0  0  0  0
  -14.8832    3.0809   -0.0000 C   0  0  0  0  0  0  0  0  0  0  0  0
  -13.6153    5.3205   -0.0000 C   0  0  0  0  0  0  0  0  0  0  0  0
  -16.1985    0.8295   -0.0000 C   0  0  0  0  0  0  0  0  0  0  0  0
  -16.1866    3.8274   -0.0000 O   0  0  0  0  0  0  0  0  0  0  0  0
  -16.2103   -0.6517   -0.0000 O   0  0  0  0  0  0  0  0  0  0  0  0
  -17.5020    1.5879   -0.0000 N   0  0  0  0  0  0  0  0  0  0  0  0
  -18.8173    0.8532   -0.0000 C   0  0  0  0  0  0  0  0  0  0  0  0
  -20.1207    1.6116   -0.0000 C   0  0  0  0  0  0  0  0  0  0  0  0
  -18.0944   -0.4266   -0.0000 C   0  0  0  0  0  0  0  0  0  0  0  0
  -19.5756   -0.4266   -0.0000 C   0  0  0  0  0  0  0  0  0  0  0  0
  -21.4953    1.0191   -0.0000 N   0  0  0  0  0  0  0  0  0  0  0  0
  -20.2866    3.1046   -0.0000 N   0  0  0  0  0  0  0  0  0  0  0  0
  -22.5025    2.1448   -0.0000 O   0  0  0  0  0  0  0  0  0  0  0  0
  -21.7560    3.4364   -0.0000 C   0  0  0  0  0  0  0  0  0  0  0  0
  1  2  1  0  0  0  0
  2  3  2  0  0  0  0
  2  4  1  0  0  0  0
  3  5  1  0  0  0  0
  4  6  2  0  0  0  0
  5  7  2  0  0  0  0
  7  8  1  0  0  0  0
  8  9  1  0  0  0  0
  8 10  2  0  0  0  0
  9 11  1  0  0  0  0
 10 12  1  0  0  0  0
 10 13  1  0  0  0  0
 11 14  1  0  0  0  0
 12 15  1  0  0  0  0
 13 16  2  0  0  0  0
 13 17  1  0  0  0  0
 14 18  2  0  0  0  0
 15 19  2  0  0  0  0
 17 20  1  0  0  0  0
 18 21  1  0  0  0  0
 19 22  1  0  0  0  0
 21 23  1  0  0  0  0
 22 24  2  0  0  0  0
 22 25  1  0  0  0  0
 23 26  1  0  0  0  0
 24 27  1  0  0  0  0
 25 28  2  0  0  0  0
 26 29  1  0  0  0  0
 26 30  1  0  0  0  0
 26 31  1  0  0  0  0
 27 32  1  0  0  0  0
 27 33  1  0  0  0  0
 28 34  1  0  0  0  0
 32 35  2  0  0  0  0
 34 36  2  0  0  0  0
 34 37  1  0  0  0  0
 37 38  1  0  0  0  0
 38 39  1  0  0  0  0
 38 40  1  0  0  0  0
 38 41  1  0  0  0  0
 39 42  2  0  0  0  0
 39 43  1  0  0  0  0
 42 44  1  0  0  0  0
 43 45  2  0  0  0  0
  6  7  1  0  0  0  0
 11 12  2  0  0  0  0
 18 19  1  0  0  0  0
 28 32  1  0  0  0  0
 44 45  1  0  0  0  0
M  END
>  <MolRegNo>
2201532

>  <m>
=

>  <Value>
440

>  <Unit>
nM

>  <Type>
IC50

>  <pValue>
6.36

>  <Ligand Efficiency>
0

>  <Binding Efficiency>
0

>  <Surface Efficiency>
0

>  <Assay Index>
1103976

>  <Assay Category>


>  <Assay Organism>
Homo sapiens

>  <Target ID>
17045

>  <Target Name>
Cytochrome P450 3A4

>  <Target Organism>
Homo sapiens

>  <Target Description>
Target is a single protein chain

>  <Sequence Accession>
P08684

>  <Reference>
ACS Med Chem Lett 8 (7), 771-774 (2017)

>  <Pubmed ID>
28740615

>  <DOI>
10.1021/acsmedchemlett.7b00211

$$$$
2244519
Actelion Java MolfileCreator 1.0

 34 38  0  0  0  0  0  0  0  0999 V2000
    0.0000   -0.0000   -0.0000 O   0  0  0  0  0  0  0  0  0  0  0  0
   -0.0118   -1.4872   -0.0000 C   0  0  0  0  0  0  0  0  0  0  0  0
   -1.3219   -2.2307   -0.0000 N   0  0  0  0  0  0  0  0  0  0  0  0
    1.2747   -2.2189   -0.0000 C   0  0  0  0  0  0  0  0  0  0  0  0
   -1.3337   -3.7179   -0.0000 C   0  0  0  0  0  0  0  0  0  0  0  0
   -2.6320   -1.4754   -0.0000 C   0  0  0  0  0  0  0  0  0  0  0  0
    1.2629   -3.7061   -0.0000 C   0  0  0  0  0  0  0  0  0  0  0  0
    2.5494   -1.4517   -0.0000 C   0  0  0  0  0  0  0  0  0  0  0  0
   -2.6320   -4.4615   -0.0000 C   0  0  0  0  0  0  0  0  0  0  0  0
   -3.9421   -2.2189   -0.0000 C   0  0  0  0  0  0  0  0  0  0  0  0
    2.5494   -4.4379   -0.0000 C   0  0  0  0  0  0  0  0  0  0  0  0
    3.8359   -2.1835   -0.0000 C   0  0  0  0  0  0  0  0  0  0  0  0
   -3.9421   -3.7061   -0.0000 N   0  0  0  0  0  0  0  0  0  0  0  0
    3.8359   -3.6707   -0.0000 C   0  0  0  0  0  0  0  0  0  0  0  0
   -5.2523   -4.4497   -0.0000 C   0  0  0  0  0  0  0  0  0  0  0  0
   -5.2523   -5.9368   -0.0000 O   0  0  0  0  0  0  0  0  0  0  0  0
   -6.5624   -3.6943   -0.0000 C   0  0  0  0  0  0  0  0  0  0  0  0
   -6.5860   -2.1835   -0.0000 O   0  0  0  0  0  0  0  0  0  0  0  0
   -7.8725   -4.4379   -0.0000 C   0  0  0  0  0  0  0  0  0  0  0  0
   -9.2534   -3.8359   -0.0000 C   0  0  0  0  0  0  0  0  0  0  0  0
   -8.0259   -5.9250   -0.0000 C   0  0  0  0  0  0  0  0  0  0  0  0
   -9.7373   -2.4078   -0.0000 C   0  0  0  0  0  0  0  0  0  0  0  0
  -10.2685   -4.9454   -0.0000 C   0  0  0  0  0  0  0  0  0  0  0  0
   -9.5013   -6.2319   -0.0000 N   0  0  0  0  0  0  0  0  0  0  0  0
   -8.7459   -1.2747   -0.0000 O   0  0  0  0  0  0  0  0  0  0  0  0
  -11.2127   -2.0891   -0.0000 C   0  0  0  0  0  0  0  0  0  0  0  0
  -11.7438   -4.6385   -0.0000 C   0  0  0  0  0  0  0  0  0  0  0  0
   -9.2298    0.1652   -0.0000 C   0  0  0  0  0  0  0  0  0  0  0  0
  -12.2277   -3.1986   -0.0000 N   0  0  0  0  0  0  0  0  0  0  0  0
  -12.7471   -5.7480   -0.0000 N   0  0  0  0  0  0  0  0  0  0  0  0
  -12.4284   -7.2115   -0.0000 N   0  0  0  0  0  0  0  0  0  0  0  0
  -14.2460   -5.5945   -0.0000 C   0  0  0  0  0  0  0  0  0  0  0  0
  -13.7267   -7.9551   -0.0000 C   0  0  0  0  0  0  0  0  0  0  0  0
  -14.8598   -6.9519   -0.0000 N   0  0  0  0  0  0  0  0  0  0  0  0
  1  2  2  0  0  0  0
  2  3  1  0  0  0  0
  2  4  1  0  0  0  0
  3  5  1  0  0  0  0
  3  6  1  0  0  0  0
  4  7  2  0  0  0  0
  4  8  1  0  0  0  0
  5  9  1  0  0  0  0
  6 10  1  0  0  0  0
  7 11  1  0  0  0  0
  8 12  2  0  0  0  0
  9 13  1  0  0  0  0
 11 14  2  0  0  0  0
 13 15  1  0  0  0  0
 15 16  2  0  0  0  0
 15 17  1  0  0  0  0
 17 18  2  0  0  0  0
 17 19  1  0  0  0  0
 19 20  1  0  0  0  0
 19 21  2  0  0  0  0
 20 22  2  0  0  0  0
 20 23  1  0  0  0  0
 21 24  1  0  0  0  0
 22 25  1  0  0  0  0
 22 26  1  0  0  0  0
 23 27  2  0  0  0  0
 25 28  1  0  0  0  0
 26 29  2  0  0  0  0
 27 30  1  0  0  0  0
 30 31  1  0  0  0  0
 30 32  1  0  0  0  0
 31 33  2  0  0  0  0
 32 34  2  0  0  0  0
 10 13  1  0  0  0  0
 12 14  1  0  0  0  0
 23 24  1  0  0  0  0
 27 29  1  0  0  0  0
 33 34  1  0  0  0  0
M  END
>  <MolRegNo>
2244519

>  <m>
=

>  <Value>
1000

>  <Unit>
nM

>  <Type>
IC50

>  <pValue>
6

>  <Ligand Efficiency>
0

>  <Binding Efficiency>
0

>  <Surface Efficiency>
0

>  <Assay Index>
1104283

>  <Assay Category>


>  <Assay Organism>
Homo sapiens

>  <Target ID>
17045

>  <Target Name>
Cytochrome P450 3A4

>  <Target Organism>
Homo sapiens

>  <Target Description>
Target is a single protein chain

>  <Sequence Accession>
P08684

>  <Reference>
J Med Chem 61 (1), 62-80 (2018)

>  <Pubmed ID>
29271653

>  <DOI>
10.1021/acs.jmedchem.7b01337

$$$$
2217583
Actelion Java MolfileCreator 1.0

 25 27  0  0  0  0  0  0  0  0999 V2000
    0.0000   -0.0000   -0.0000 F   0  0  0  0  0  0  0  0  0  0  0  0
   -1.3038   -0.7467   -0.0000 C   0  0  0  0  0  0  0  0  0  0  0  0
   -2.6077   -0.0000   -0.0000 N   0  0  0  0  0  0  0  0  0  0  0  0
   -1.3038   -2.2402   -0.0000 C   0  0  0  0  0  0  0  0  0  0  0  0
   -3.8997   -0.7467   -0.0000 C   0  0  0  0  0  0  0  0  0  0  0  0
   -2.6077   -2.9751   -0.0000 C   0  0  0  0  0  0  0  0  0  0  0  0
   -5.2035    0.0119   -0.0000 N   0  0  0  0  0  0  0  0  0  0  0  0
   -3.9234   -2.2284   -0.0000 C   0  0  0  0  0  0  0  0  0  0  0  0
   -6.5074   -0.7230   -0.0000 C   0  0  0  0  0  0  0  0  0  0  0  0
   -6.5192   -2.2047   -0.0000 O   0  0  0  0  0  0  0  0  0  0  0  0
   -7.8112    0.0356   -0.0000 C   0  0  0  0  0  0  0  0  0  0  0  0
   -9.1269   -0.6993   -0.0000 N   0  0  0  0  0  0  0  0  0  0  0  0
   -7.8230    1.5528   -0.0000 C   0  0  0  0  0  0  0  0  0  0  0  0
  -10.4307    0.0593   -0.0000 C   0  0  0  0  0  0  0  0  0  0  0  0
   -9.1269    2.3114   -0.0000 C   0  0  0  0  0  0  0  0  0  0  0  0
  -10.4426    1.5765   -0.0000 C   0  0  0  0  0  0  0  0  0  0  0  0
  -11.7346   -0.6756   -0.0000 C   0  0  0  0  0  0  0  0  0  0  0  0
   -9.1387    3.8167   -0.0000 O   0  0  0  0  0  0  0  0  0  0  0  0
   -7.8586    4.5753   -0.0000 C   0  0  0  0  0  0  0  0  0  0  0  0
   -6.5785    3.8404   -0.0000 C   0  0  0  0  0  0  0  0  0  0  0  0
   -7.8823    6.0806   -0.0000 C   0  0  0  0  0  0  0  0  0  0  0  0
   -5.2983    4.5990   -0.0000 N   0  0  0  0  0  0  0  0  0  0  0  0
   -6.6022    6.8511   -0.0000 C   0  0  0  0  0  0  0  0  0  0  0  0
   -5.3102    6.1043   -0.0000 C   0  0  0  0  0  0  0  0  0  0  0  0
   -6.6259    8.3564   -0.0000 F   0  0  0  0  0  0  0  0  0  0  0  0
  1  2  1  0  0  0  0
  2  3  2  0  0  0  0
  2  4  1  0  0  0  0
  3  5  1  0  0  0  0
  4  6  2  0  0  0  0
  5  7  1  0  0  0  0
  5  8  2  0  0  0  0
  7  9  1  0  0  0  0
  9 10  2  0  0  0  0
  9 11  1  0  0  0  0
 11 12  2  0  0  0  0
 11 13  1  0  0  0  0
 12 14  1  0  0  0  0
 13 15  2  0  0  0  0
 14 16  2  0  0  0  0
 14 17  1  0  0  0  0
 15 18  1  0  0  0  0
 18 19  1  0  0  0  0
 19 20  2  0  0  0  0
 19 21  1  0  0  0  0
 20 22  1  0  0  0  0
 21 23  2  0  0  0  0
 22 24  2  0  0  0  0
 23 25  1  0  0  0  0
  6  8  1  0  0  0  0
 15 16  1  0  0  0  0
 23 24  1  0  0  0  0
M  END
>  <MolRegNo>
2217583

>  <m>
=

>  <Value>
8000

>  <Unit>
nM

>  <Type>
IC50

>  <pValue>
5.1

>  <Ligand Efficiency>
0

>  <Binding Efficiency>
0

>  <Surface Efficiency>
0

>  <Assay Index>
1106121

>  <Assay Category>


>  <Assay Organism>
Homo sapiens

>  <Target ID>
17045

>  <Target Name>
Cytochrome P450 3A4

>  <Target Organism>
Homo sapiens

>  <Target Description>
Target is a single protein chain

>  <Sequence Accession>
P08684

>  <Reference>
J Med Chem 60 (12), 5072-5085 (2017)

>  <Pubmed ID>
28530802

>  <DOI>
10.1021/acs.jmedchem.7b00410

$$$$
1563620
Actelion Java MolfileCreator 1.0

 25 27  0  0  0  0  0  0  0  0999 V2000
    0.0000   -0.0000   -0.0000 F   0  0  0  0  0  0  0  0  0  0  0  0
    0.0000   -1.4958   -0.0000 C   0  0  0  0  0  0  0  0  0  0  0  0
    1.3043   -2.2377   -0.0000 C   0  0  0  0  0  0  0  0  0  0  0  0
   -1.3163   -2.2497   -0.0000 C   0  0  0  0  0  0  0  0  0  0  0  0
    1.2924   -3.7335   -0.0000 N   0  0  0  0  0  0  0  0  0  0  0  0
   -1.3163   -3.7455   -0.0000 C   0  0  0  0  0  0  0  0  0  0  0  0
   -0.0239   -4.4755   -0.0000 C   0  0  0  0  0  0  0  0  0  0  0  0
   -2.6326   -4.4874   -0.0000 O   0  0  0  0  0  0  0  0  0  0  0  0
   -2.6446   -5.9832   -0.0000 C   0  0  0  0  0  0  0  0  0  0  0  0
   -1.3522   -6.7252   -0.0000 C   0  0  0  0  0  0  0  0  0  0  0  0
   -3.9609   -6.7252   -0.0000 C   0  0  0  0  0  0  0  0  0  0  0  0
   -1.3642   -8.2329   -0.0000 C   0  0  0  0  0  0  0  0  0  0  0  0
   -3.9729   -8.2329   -0.0000 C   0  0  0  0  0  0  0  0  0  0  0  0
   -2.6925   -8.9749   -0.0000 N   0  0  0  0  0  0  0  0  0  0  0  0
   -0.0718   -8.9749   -0.0000 C   0  0  0  0  0  0  0  0  0  0  0  0
   -5.2892   -8.9749   -0.0000 C   0  0  0  0  0  0  0  0  0  0  0  0
   -0.0838  -10.4707   -0.0000 O   0  0  0  0  0  0  0  0  0  0  0  0
    1.2206   -8.2090   -0.0000 N   0  0  0  0  0  0  0  0  0  0  0  0
    2.5130   -8.9509   -0.0000 C   0  0  0  0  0  0  0  0  0  0  0  0
    3.7934   -8.1731   -0.0000 N   0  0  0  0  0  0  0  0  0  0  0  0
    2.4890  -10.4467   -0.0000 C   0  0  0  0  0  0  0  0  0  0  0  0
    5.0858   -8.9031   -0.0000 C   0  0  0  0  0  0  0  0  0  0  0  0
    3.7814  -11.1887   -0.0000 C   0  0  0  0  0  0  0  0  0  0  0  0
    5.0858  -10.4108   -0.0000 C   0  0  0  0  0  0  0  0  0  0  0  0
    6.3781  -11.1528   -0.0000 F   0  0  0  0  0  0  0  0  0  0  0  0
  1  2  1  0  0  0  0
  2  3  2  0  0  0  0
  2  4  1  0  0  0  0
  3  5  1  0  0  0  0
  4  6  2  0  0  0  0
  5  7  2  0  0  0  0
  6  8  1  0  0  0  0
  8  9  1  0  0  0  0
  9 10  2  0  0  0  0
  9 11  1  0  0  0  0
 10 12  1  0  0  0  0
 11 13  2  0  0  0  0
 12 14  2  0  0  0  0
 12 15  1  0  0  0  0
 13 16  1  0  0  0  0
 15 17  2  0  0  0  0
 15 18  1  0  0  0  0
 18 19  1  0  0  0  0
 19 20  2  0  0  0  0
 19 21  1  0  0  0  0
 20 22  1  0  0  0  0
 21 23  2  0  0  0  0
 22 24  2  0  0  0  0
 24 25  1  0  0  0  0
  6  7  1  0  0  0  0
 13 14  1  0  0  0  0
 23 24  1  0  0  0  0
M  END
>  <MolRegNo>
1563620

>  <m>
=

>  <Value>
4300

>  <Unit>
nM

>  <Type>
IC50

>  <pValue>
5.37

>  <Ligand Efficiency>
0

>  <Binding Efficiency>
0

>  <Surface Efficiency>
0

>  <Assay Index>
1106121

>  <Assay Category>


>  <Assay Organism>
Homo sapiens

>  <Target ID>
17045

>  <Target Name>
Cytochrome P450 3A4

>  <Target Organism>
Homo sapiens

>  <Target Description>
Target is a single protein chain

>  <Sequence Accession>
P08684

>  <Reference>
J Med Chem 60 (12), 5072-5085 (2017)

>  <Pubmed ID>
28530802

>  <DOI>
10.1021/acs.jmedchem.7b00410

$$$$
2222765
Actelion Java MolfileCreator 1.0

 24 26  0  0  0  0  0  0  0  0999 V2000
    0.0000   -0.0000   -0.0000 Cl  0  0  0  0  0  0  0  0  0  0  0  0
   -1.3028    0.7580   -0.0000 C   0  0  0  0  0  0  0  0  0  0  0  0
   -1.3265    2.2740   -0.0000 C   0  0  0  0  0  0  0  0  0  0  0  0
   -2.6056    0.0237   -0.0000 C   0  0  0  0  0  0  0  0  0  0  0  0
   -2.6293    3.0201   -0.0000 N   0  0  0  0  0  0  0  0  0  0  0  0
   -3.9084    0.7817   -0.0000 C   0  0  0  0  0  0  0  0  0  0  0  0
   -3.9202    2.2740   -0.0000 C   0  0  0  0  0  0  0  0  0  0  0  0
   -5.2230    3.0319   -0.0000 N   0  0  0  0  0  0  0  0  0  0  0  0
   -6.5258    2.2976   -0.0000 C   0  0  0  0  0  0  0  0  0  0  0  0
   -6.5376    0.8172   -0.0000 O   0  0  0  0  0  0  0  0  0  0  0  0
   -7.8286    3.0556   -0.0000 C   0  0  0  0  0  0  0  0  0  0  0  0
   -9.1432    2.3213   -0.0000 N   0  0  0  0  0  0  0  0  0  0  0  0
   -7.8404    4.5716   -0.0000 C   0  0  0  0  0  0  0  0  0  0  0  0
  -10.4460    3.0793   -0.0000 C   0  0  0  0  0  0  0  0  0  0  0  0
   -9.1432    5.3296   -0.0000 C   0  0  0  0  0  0  0  0  0  0  0  0
  -10.4578    4.5953   -0.0000 C   0  0  0  0  0  0  0  0  0  0  0  0
  -11.7488    2.3450   -0.0000 C   0  0  0  0  0  0  0  0  0  0  0  0
   -9.1550    6.8337   -0.0000 O   0  0  0  0  0  0  0  0  0  0  0  0
   -7.8759    7.5917   -0.0000 C   0  0  0  0  0  0  0  0  0  0  0  0
   -6.5968    6.8574   -0.0000 C   0  0  0  0  0  0  0  0  0  0  0  0
   -7.8996    9.0958   -0.0000 C   0  0  0  0  0  0  0  0  0  0  0  0
   -5.3177    7.6154   -0.0000 N   0  0  0  0  0  0  0  0  0  0  0  0
   -6.6205    9.8656   -0.0000 N   0  0  0  0  0  0  0  0  0  0  0  0
   -5.3296    9.1195   -0.0000 C   0  0  0  0  0  0  0  0  0  0  0  0
  1  2  1  0  0  0  0
  2  3  2  0  0  0  0
  2  4  1  0  0  0  0
  3  5  1  0  0  0  0
  4  6  2  0  0  0  0
  5  7  2  0  0  0  0
  7  8  1  0  0  0  0
  8  9  1  0  0  0  0
  9 10  2  0  0  0  0
  9 11  1  0  0  0  0
 11 12  2  0  0  0  0
 11 13  1  0  0  0  0
 12 14  1  0  0  0  0
 13 15  2  0  0  0  0
 14 16  2  0  0  0  0
 14 17  1  0  0  0  0
 15 18  1  0  0  0  0
 18 19  1  0  0  0  0
 19 20  2  0  0  0  0
 19 21  1  0  0  0  0
 20 22  1  0  0  0  0
 21 23  2  0  0  0  0
 22 24  2  0  0  0  0
  6  7  1  0  0  0  0
 15 16  1  0  0  0  0
 23 24  1  0  0  0  0
M  END
>  <MolRegNo>
2222765

>  <m>
=

>  <Value>
16400

>  <Unit>
nM

>  <Type>
IC50

>  <pValue>
4.79

>  <Ligand Efficiency>
0

>  <Binding Efficiency>
0

>  <Surface Efficiency>
0

>  <Assay Index>
1106121

>  <Assay Category>


>  <Assay Organism>
Homo sapiens

>  <Target ID>
17045

>  <Target Name>
Cytochrome P450 3A4

>  <Target Organism>
Homo sapiens

>  <Target Description>
Target is a single protein chain

>  <Sequence Accession>
P08684

>  <Reference>
J Med Chem 60 (12), 5072-5085 (2017)

>  <Pubmed ID>
28530802

>  <DOI>
10.1021/acs.jmedchem.7b00410

$$$$
2240741
Actelion Java MolfileCreator 1.0

 25 27  0  0  0  0  0  0  0  0999 V2000
    0.0000   -0.0000   -0.0000 Cl  0  0  0  0  0  0  0  0  0  0  0  0
   -1.3026    0.7579   -0.0000 C   0  0  0  0  0  0  0  0  0  0  0  0
   -1.3263    2.2737   -0.0000 C   0  0  0  0  0  0  0  0  0  0  0  0
   -2.6053    0.0237   -0.0000 C   0  0  0  0  0  0  0  0  0  0  0  0
   -2.6290    3.0198   -0.0000 N   0  0  0  0  0  0  0  0  0  0  0  0
   -3.9079    0.7816   -0.0000 C   0  0  0  0  0  0  0  0  0  0  0  0
   -3.9198    2.2737   -0.0000 C   0  0  0  0  0  0  0  0  0  0  0  0
   -5.2224    3.0316   -0.0000 N   0  0  0  0  0  0  0  0  0  0  0  0
   -6.5251    2.2974   -0.0000 C   0  0  0  0  0  0  0  0  0  0  0  0
   -6.5369    0.8171   -0.0000 O   0  0  0  0  0  0  0  0  0  0  0  0
   -7.8277    3.0553   -0.0000 C   0  0  0  0  0  0  0  0  0  0  0  0
   -9.1422    2.3211   -0.0000 N   0  0  0  0  0  0  0  0  0  0  0  0
   -7.8396    4.5711   -0.0000 C   0  0  0  0  0  0  0  0  0  0  0  0
  -10.4449    3.0790   -0.0000 C   0  0  0  0  0  0  0  0  0  0  0  0
   -9.1422    5.3290   -0.0000 C   0  0  0  0  0  0  0  0  0  0  0  0
  -10.4567    4.5948   -0.0000 C   0  0  0  0  0  0  0  0  0  0  0  0
  -11.7475    2.3448   -0.0000 C   0  0  0  0  0  0  0  0  0  0  0  0
   -9.1541    6.8330   -0.0000 O   0  0  0  0  0  0  0  0  0  0  0  0
   -7.8751    7.5909   -0.0000 C   0  0  0  0  0  0  0  0  0  0  0  0
   -6.5961    6.8567   -0.0000 C   0  0  0  0  0  0  0  0  0  0  0  0
   -7.8988    9.0948   -0.0000 C   0  0  0  0  0  0  0  0  0  0  0  0
   -5.3172    7.6146   -0.0000 N   0  0  0  0  0  0  0  0  0  0  0  0
   -6.6198    9.8646   -0.0000 C   0  0  0  0  0  0  0  0  0  0  0  0
   -5.3290    9.1185   -0.0000 C   0  0  0  0  0  0  0  0  0  0  0  0
   -6.6435   11.3685   -0.0000 F   0  0  0  0  0  0  0  0  0  0  0  0
  1  2  1  0  0  0  0
  2  3  2  0  0  0  0
  2  4  1  0  0  0  0
  3  5  1  0  0  0  0
  4  6  2  0  0  0  0
  5  7  2  0  0  0  0
  7  8  1  0  0  0  0
  8  9  1  0  0  0  0
  9 10  2  0  0  0  0
  9 11  1  0  0  0  0
 11 12  2  0  0  0  0
 11 13  1  0  0  0  0
 12 14  1  0  0  0  0
 13 15  2  0  0  0  0
 14 16  2  0  0  0  0
 14 17  1  0  0  0  0
 15 18  1  0  0  0  0
 18 19  1  0  0  0  0
 19 20  2  0  0  0  0
 19 21  1  0  0  0  0
 20 22  1  0  0  0  0
 21 23  2  0  0  0  0
 22 24  2  0  0  0  0
 23 25  1  0  0  0  0
  6  7  1  0  0  0  0
 15 16  1  0  0  0  0
 23 24  1  0  0  0  0
M  END
>  <MolRegNo>
2240741

>  <m>
=

>  <Value>
2000

>  <Unit>
nM

>  <Type>
IC50

>  <pValue>
5.7

>  <Ligand Efficiency>
0

>  <Binding Efficiency>
0

>  <Surface Efficiency>
0

>  <Assay Index>
1106121

>  <Assay Category>


>  <Assay Organism>
Homo sapiens

>  <Target ID>
17045

>  <Target Name>
Cytochrome P450 3A4

>  <Target Organism>
Homo sapiens

>  <Target Description>
Target is a single protein chain

>  <Sequence Accession>
P08684

>  <Reference>
J Med Chem 60 (12), 5072-5085 (2017)

>  <Pubmed ID>
28530802

>  <DOI>
10.1021/acs.jmedchem.7b00410

$$$$
2202608
Actelion Java MolfileCreator 1.0

 25 27  0  0  0  0  0  0  0  0999 V2000
    0.0000   -0.0000   -0.0000 F   0  0  0  0  0  0  0  0  0  0  0  0
    0.0000   -1.4956   -0.0000 C   0  0  0  0  0  0  0  0  0  0  0  0
    1.3042   -2.2374   -0.0000 C   0  0  0  0  0  0  0  0  0  0  0  0
   -1.3161   -2.2494   -0.0000 C   0  0  0  0  0  0  0  0  0  0  0  0
    1.2922   -3.7330   -0.0000 N   0  0  0  0  0  0  0  0  0  0  0  0
   -1.3161   -3.7450   -0.0000 C   0  0  0  0  0  0  0  0  0  0  0  0
   -0.0239   -4.4748   -0.0000 C   0  0  0  0  0  0  0  0  0  0  0  0
   -2.6323   -4.4868   -0.0000 O   0  0  0  0  0  0  0  0  0  0  0  0
   -2.6442   -5.9824   -0.0000 C   0  0  0  0  0  0  0  0  0  0  0  0
   -1.3520   -6.7242   -0.0000 C   0  0  0  0  0  0  0  0  0  0  0  0
   -3.9603   -6.7242   -0.0000 C   0  0  0  0  0  0  0  0  0  0  0  0
   -1.3640   -8.2318   -0.0000 C   0  0  0  0  0  0  0  0  0  0  0  0
   -3.9723   -8.2318   -0.0000 C   0  0  0  0  0  0  0  0  0  0  0  0
   -2.6921   -8.9736   -0.0000 N   0  0  0  0  0  0  0  0  0  0  0  0
   -0.0718   -8.9736   -0.0000 C   0  0  0  0  0  0  0  0  0  0  0  0
   -5.2884   -8.9736   -0.0000 C   0  0  0  0  0  0  0  0  0  0  0  0
   -0.0838  -10.4692   -0.0000 O   0  0  0  0  0  0  0  0  0  0  0  0
    1.2204   -8.2079   -0.0000 N   0  0  0  0  0  0  0  0  0  0  0  0
    2.5126   -8.9497   -0.0000 C   0  0  0  0  0  0  0  0  0  0  0  0
    3.7928   -8.1720   -0.0000 N   0  0  0  0  0  0  0  0  0  0  0  0
    2.4887  -10.4453   -0.0000 C   0  0  0  0  0  0  0  0  0  0  0  0
    5.0850   -8.9018   -0.0000 C   0  0  0  0  0  0  0  0  0  0  0  0
    3.7809  -11.1871   -0.0000 C   0  0  0  0  0  0  0  0  0  0  0  0
    5.0850  -10.4094   -0.0000 C   0  0  0  0  0  0  0  0  0  0  0  0
    3.7689  -12.6827   -0.0000 F   0  0  0  0  0  0  0  0  0  0  0  0
  1  2  1  0  0  0  0
  2  3  2  0  0  0  0
  2  4  1  0  0  0  0
  3  5  1  0  0  0  0
  4  6  2  0  0  0  0
  5  7  2  0  0  0  0
  6  8  1  0  0  0  0
  8  9  1  0  0  0  0
  9 10  2  0  0  0  0
  9 11  1  0  0  0  0
 10 12  1  0  0  0  0
 11 13  2  0  0  0  0
 12 14  2  0  0  0  0
 12 15  1  0  0  0  0
 13 16  1  0  0  0  0
 15 17  2  0  0  0  0
 15 18  1  0  0  0  0
 18 19  1  0  0  0  0
 19 20  2  0  0  0  0
 19 21  1  0  0  0  0
 20 22  1  0  0  0  0
 21 23  2  0  0  0  0
 22 24  2  0  0  0  0
 23 25  1  0  0  0  0
  6  7  1  0  0  0  0
 13 14  1  0  0  0  0
 23 24  1  0  0  0  0
M  END
>  <MolRegNo>
2202608

>  <m>
=

>  <Value>
27400

>  <Unit>
nM

>  <Type>
IC50

>  <pValue>
4.56

>  <Ligand Efficiency>
0

>  <Binding Efficiency>
0

>  <Surface Efficiency>
0

>  <Assay Index>
1106121

>  <Assay Category>


>  <Assay Organism>
Homo sapiens

>  <Target ID>
17045

>  <Target Name>
Cytochrome P450 3A4

>  <Target Organism>
Homo sapiens

>  <Target Description>
Target is a single protein chain

>  <Sequence Accession>
P08684

>  <Reference>
J Med Chem 60 (12), 5072-5085 (2017)

>  <Pubmed ID>
28530802

>  <DOI>
10.1021/acs.jmedchem.7b00410

$$$$
2236729
Actelion Java MolfileCreator 1.0

 25 27  0  0  0  0  0  0  0  0999 V2000
    0.0000   -0.0000   -0.0000 Cl  0  0  0  0  0  0  0  0  0  0  0  0
    0.0000   -1.4958   -0.0000 C   0  0  0  0  0  0  0  0  0  0  0  0
    1.3043   -2.2377   -0.0000 C   0  0  0  0  0  0  0  0  0  0  0  0
   -1.3163   -2.2497   -0.0000 C   0  0  0  0  0  0  0  0  0  0  0  0
    1.2924   -3.7335   -0.0000 N   0  0  0  0  0  0  0  0  0  0  0  0
   -1.3163   -3.7455   -0.0000 C   0  0  0  0  0  0  0  0  0  0  0  0
   -0.0239   -4.4755   -0.0000 C   0  0  0  0  0  0  0  0  0  0  0  0
   -2.6326   -4.4874   -0.0000 O   0  0  0  0  0  0  0  0  0  0  0  0
   -2.6446   -5.9832   -0.0000 C   0  0  0  0  0  0  0  0  0  0  0  0
   -1.3522   -6.7252   -0.0000 C   0  0  0  0  0  0  0  0  0  0  0  0
   -3.9609   -6.7252   -0.0000 C   0  0  0  0  0  0  0  0  0  0  0  0
   -1.3642   -8.2329   -0.0000 C   0  0  0  0  0  0  0  0  0  0  0  0
   -3.9729   -8.2329   -0.0000 C   0  0  0  0  0  0  0  0  0  0  0  0
   -2.6925   -8.9749   -0.0000 N   0  0  0  0  0  0  0  0  0  0  0  0
   -0.0718   -8.9749   -0.0000 C   0  0  0  0  0  0  0  0  0  0  0  0
   -5.2892   -8.9749   -0.0000 C   0  0  0  0  0  0  0  0  0  0  0  0
   -0.0838  -10.4707   -0.0000 O   0  0  0  0  0  0  0  0  0  0  0  0
    1.2206   -8.2090   -0.0000 N   0  0  0  0  0  0  0  0  0  0  0  0
    2.5130   -8.9509   -0.0000 C   0  0  0  0  0  0  0  0  0  0  0  0
    3.7934   -8.1731   -0.0000 N   0  0  0  0  0  0  0  0  0  0  0  0
    2.4890  -10.4467   -0.0000 C   0  0  0  0  0  0  0  0  0  0  0  0
    5.0858   -8.9031   -0.0000 C   0  0  0  0  0  0  0  0  0  0  0  0
    3.7814  -11.1887   -0.0000 C   0  0  0  0  0  0  0  0  0  0  0  0
    5.0858  -10.4108   -0.0000 C   0  0  0  0  0  0  0  0  0  0  0  0
    6.3781  -11.1528   -0.0000 F   0  0  0  0  0  0  0  0  0  0  0  0
  1  2  1  0  0  0  0
  2  3  2  0  0  0  0
  2  4  1  0  0  0  0
  3  5  1  0  0  0  0
  4  6  2  0  0  0  0
  5  7  2  0  0  0  0
  6  8  1  0  0  0  0
  8  9  1  0  0  0  0
  9 10  2  0  0  0  0
  9 11  1  0  0  0  0
 10 12  1  0  0  0  0
 11 13  2  0  0  0  0
 12 14  2  0  0  0  0
 12 15  1  0  0  0  0
 13 16  1  0  0  0  0
 15 17  2  0  0  0  0
 15 18  1  0  0  0  0
 18 19  1  0  0  0  0
 19 20  2  0  0  0  0
 19 21  1  0  0  0  0
 20 22  1  0  0  0  0
 21 23  2  0  0  0  0
 22 24  2  0  0  0  0
 24 25  1  0  0  0  0
  6  7  1  0  0  0  0
 13 14  1  0  0  0  0
 23 24  1  0  0  0  0
M  END
>  <MolRegNo>
2236729

>  <m>
=

>  <Value>
3800

>  <Unit>
nM

>  <Type>
IC50

>  <pValue>
5.42

>  <Ligand Efficiency>
0

>  <Binding Efficiency>
0

>  <Surface Efficiency>
0

>  <Assay Index>
1106121

>  <Assay Category>


>  <Assay Organism>
Homo sapiens

>  <Target ID>
17045

>  <Target Name>
Cytochrome P450 3A4

>  <Target Organism>
Homo sapiens

>  <Target Description>
Target is a single protein chain

>  <Sequence Accession>
P08684

>  <Reference>
J Med Chem 60 (12), 5072-5085 (2017)

>  <Pubmed ID>
28530802

>  <DOI>
10.1021/acs.jmedchem.7b00410

$$$$
1563621
Actelion Java MolfileCreator 1.0

 24 26  0  0  0  0  0  0  0  0999 V2000
    0.0000   -0.0000   -0.0000 F   0  0  0  0  0  0  0  0  0  0  0  0
   -1.3028    0.7580   -0.0000 C   0  0  0  0  0  0  0  0  0  0  0  0
   -1.3265    2.2740   -0.0000 C   0  0  0  0  0  0  0  0  0  0  0  0
   -2.6056    0.0237   -0.0000 C   0  0  0  0  0  0  0  0  0  0  0  0
   -2.6293    3.0201   -0.0000 N   0  0  0  0  0  0  0  0  0  0  0  0
   -3.9084    0.7817   -0.0000 C   0  0  0  0  0  0  0  0  0  0  0  0
   -3.9202    2.2740   -0.0000 C   0  0  0  0  0  0  0  0  0  0  0  0
   -5.2230    3.0319   -0.0000 N   0  0  0  0  0  0  0  0  0  0  0  0
   -6.5258    2.2976   -0.0000 C   0  0  0  0  0  0  0  0  0  0  0  0
   -6.5376    0.8172   -0.0000 O   0  0  0  0  0  0  0  0  0  0  0  0
   -7.8286    3.0556   -0.0000 C   0  0  0  0  0  0  0  0  0  0  0  0
   -9.1432    2.3213   -0.0000 N   0  0  0  0  0  0  0  0  0  0  0  0
   -7.8404    4.5716   -0.0000 C   0  0  0  0  0  0  0  0  0  0  0  0
  -10.4460    3.0793   -0.0000 C   0  0  0  0  0  0  0  0  0  0  0  0
   -9.1432    5.3296   -0.0000 C   0  0  0  0  0  0  0  0  0  0  0  0
  -10.4578    4.5953   -0.0000 C   0  0  0  0  0  0  0  0  0  0  0  0
  -11.7488    2.3450   -0.0000 C   0  0  0  0  0  0  0  0  0  0  0  0
   -9.1550    6.8337   -0.0000 O   0  0  0  0  0  0  0  0  0  0  0  0
   -7.8759    7.5917   -0.0000 C   0  0  0  0  0  0  0  0  0  0  0  0
   -6.5968    6.8574   -0.0000 C   0  0  0  0  0  0  0  0  0  0  0  0
   -7.8996    9.0958   -0.0000 C   0  0  0  0  0  0  0  0  0  0  0  0
   -5.3177    7.6154   -0.0000 N   0  0  0  0  0  0  0  0  0  0  0  0
   -6.6205    9.8656   -0.0000 N   0  0  0  0  0  0  0  0  0  0  0  0
   -5.3296    9.1195   -0.0000 C   0  0  0  0  0  0  0  0  0  0  0  0
  1  2  1  0  0  0  0
  2  3  2  0  0  0  0
  2  4  1  0  0  0  0
  3  5  1  0  0  0  0
  4  6  2  0  0  0  0
  5  7  2  0  0  0  0
  7  8  1  0  0  0  0
  8  9  1  0  0  0  0
  9 10  2  0  0  0  0
  9 11  1  0  0  0  0
 11 12  2  0  0  0  0
 11 13  1  0  0  0  0
 12 14  1  0  0  0  0
 13 15  2  0  0  0  0
 14 16  2  0  0  0  0
 14 17  1  0  0  0  0
 15 18  1  0  0  0  0
 18 19  1  0  0  0  0
 19 20  2  0  0  0  0
 19 21  1  0  0  0  0
 20 22  1  0  0  0  0
 21 23  2  0  0  0  0
 22 24  2  0  0  0  0
  6  7  1  0  0  0  0
 15 16  1  0  0  0  0
 23 24  1  0  0  0  0
M  END
>  <MolRegNo>
1563621

>  <m>
=

>  <Value>
133000

>  <Unit>
nM

>  <Type>
IC50

>  <pValue>
0

>  <Ligand Efficiency>
0

>  <Binding Efficiency>
0

>  <Surface Efficiency>
0

>  <Assay Index>
1106172

>  <Assay Category>


>  <Assay Organism>
Homo sapiens

>  <Target ID>
17045

>  <Target Name>
Cytochrome P450 3A4

>  <Target Organism>
Homo sapiens

>  <Target Description>
Target is a single protein chain

>  <Sequence Accession>
P08684

>  <Reference>
J Med Chem 60 (12), 5072-5085 (2017)

>  <Pubmed ID>
28530802

>  <DOI>
10.1021/acs.jmedchem.7b00410

$$$$
2234220
Actelion Java MolfileCreator 1.0

 27 30  0  0  0  0  0  0  0  0999 V2000
    0.0000   -0.0000   -0.0000 S   0  0  0  0  0  0  0  0  0  0  0  0
   -0.1657   -1.4798   -0.0000 C   0  0  0  0  0  0  0  0  0  0  0  0
    1.4561    0.3315   -0.0000 C   0  0  0  0  0  0  0  0  0  0  0  0
    1.1957   -2.0717   -0.0000 N   0  0  0  0  0  0  0  0  0  0  0  0
   -1.4798   -2.2256   -0.0000 C   0  0  0  0  0  0  0  0  0  0  0  0
    2.1901   -0.9589   -0.0000 C   0  0  0  0  0  0  0  0  0  0  0  0
   -1.4916   -3.7173   -0.0000 C   0  0  0  0  0  0  0  0  0  0  0  0
   -2.8057   -1.4680   -0.0000 C   0  0  0  0  0  0  0  0  0  0  0  0
   -2.8057   -4.4631   -0.0000 C   0  0  0  0  0  0  0  0  0  0  0  0
   -4.1079   -2.2019   -0.0000 C   0  0  0  0  0  0  0  0  0  0  0  0
   -4.1198   -3.6936   -0.0000 C   0  0  0  0  0  0  0  0  0  0  0  0
   -5.4338   -4.4394   -0.0000 N   0  0  0  0  0  0  0  0  0  0  0  0
   -6.7360   -3.6817   -0.0000 C   0  0  0  0  0  0  0  0  0  0  0  0
   -6.7479   -2.1664   -0.0000 O   0  0  0  0  0  0  0  0  0  0  0  0
   -8.0501   -4.4276   -0.0000 C   0  0  0  0  0  0  0  0  0  0  0  0
   -8.0619   -5.9192   -0.0000 N   0  0  0  0  0  0  0  0  0  0  0  0
   -9.3760   -6.6532   -0.0000 C   0  0  0  0  0  0  0  0  0  0  0  0
   -6.7716   -6.6532   -0.0000 C   0  0  0  0  0  0  0  0  0  0  0  0
  -10.8085   -6.1796   -0.0000 C   0  0  0  0  0  0  0  0  0  0  0  0
   -9.3878   -8.1330   -0.0000 C   0  0  0  0  0  0  0  0  0  0  0  0
   -6.7834   -8.1448   -0.0000 C   0  0  0  0  0  0  0  0  0  0  0  0
  -11.2820   -4.7354   -0.0000 O   0  0  0  0  0  0  0  0  0  0  0  0
  -11.7082   -7.3753   -0.0000 N   0  0  0  0  0  0  0  0  0  0  0  0
  -10.8203   -8.5710   -0.0000 C   0  0  0  0  0  0  0  0  0  0  0  0
   -8.0975   -8.8788   -0.0000 C   0  0  0  0  0  0  0  0  0  0  0  0
  -13.2235   -7.3635   -0.0000 C   0  0  0  0  0  0  0  0  0  0  0  0
  -11.2938   -9.9798   -0.0000 O   0  0  0  0  0  0  0  0  0  0  0  0
  1  2  1  0  0  0  0
  1  3  1  0  0  0  0
  2  4  2  0  0  0  0
  2  5  1  0  0  0  0
  3  6  2  0  0  0  0
  5  7  2  0  0  0  0
  5  8  1  0  0  0  0
  7  9  1  0  0  0  0
  8 10  2  0  0  0  0
  9 11  2  0  0  0  0
 11 12  1  0  0  0  0
 12 13  1  0  0  0  0
 13 14  2  0  0  0  0
 13 15  1  0  0  0  0
 15 16  1  0  0  0  0
 16 17  1  0  0  0  0
 16 18  1  0  0  0  0
 17 19  1  0  0  0  0
 17 20  2  0  0  0  0
 18 21  1  0  0  0  0
 19 22  2  0  0  0  0
 19 23  1  0  0  0  0
 20 24  1  0  0  0  0
 20 25  1  0  0  0  0
 23 26  1  0  0  0  0
 24 27  2  0  0  0  0
  4  6  1  0  0  0  0
 10 11  1  0  0  0  0
 21 25  1  0  0  0  0
 23 24  1  0  0  0  0
M  END
>  <MolRegNo>
2234220

>  <m>
=

>  <Value>
5200

>  <Unit>
nM

>  <Type>
IC50

>  <pValue>
5.28

>  <Ligand Efficiency>
0

>  <Binding Efficiency>
0

>  <Surface Efficiency>
0

>  <Assay Index>
1106937

>  <Assay Category>


>  <Assay Organism>
Homo sapiens

>  <Target ID>
17045

>  <Target Name>
Cytochrome P450 3A4

>  <Target Organism>
Homo sapiens

>  <Target Description>
Target is a single protein chain

>  <Sequence Accession>
P08684

>  <Reference>
J Med Chem 60 (15), 6678-6692 (2017)

>  <Pubmed ID>
28671458

>  <DOI>
10.1021/acs.jmedchem.7b00662

$$$$
2244168
Actelion Java MolfileCreator 1.0

 28 31  0  0  0  0  0  0  0  0999 V2000
    0.0000   -0.0000   -0.0000 O   0  0  0  0  0  0  0  0  0  0  0  0
    0.4516   -1.4260   -0.0000 C   0  0  0  0  0  0  0  0  0  0  0  0
   -0.4516   -2.6262   -0.0000 N   0  0  0  0  0  0  0  0  0  0  0  0
    1.8657   -1.8776   -0.0000 C   0  0  0  0  0  0  0  0  0  0  0  0
    0.4159   -3.8265   -0.0000 C   0  0  0  0  0  0  0  0  0  0  0  0
   -1.9726   -2.6144   -0.0000 C   0  0  0  0  0  0  0  0  0  0  0  0
    3.1610   -1.1170   -0.0000 N   0  0  0  0  0  0  0  0  0  0  0  0
    1.8538   -3.3630   -0.0000 C   0  0  0  0  0  0  0  0  0  0  0  0
   -0.0713   -5.2406   -0.0000 O   0  0  0  0  0  0  0  0  0  0  0  0
    4.4444   -1.8538   -0.0000 C   0  0  0  0  0  0  0  0  0  0  0  0
    3.1491    0.4040   -0.0000 C   0  0  0  0  0  0  0  0  0  0  0  0
    3.1491   -4.1117   -0.0000 C   0  0  0  0  0  0  0  0  0  0  0  0
    4.4325   -3.3511   -0.0000 C   0  0  0  0  0  0  0  0  0  0  0  0
    4.4325    1.1765   -0.0000 C   0  0  0  0  0  0  0  0  0  0  0  0
    4.4206    2.6975   -0.0000 O   0  0  0  0  0  0  0  0  0  0  0  0
    5.7278    0.4397   -0.0000 N   0  0  0  0  0  0  0  0  0  0  0  0
    7.0231    1.2121   -0.0000 C   0  0  0  0  0  0  0  0  0  0  0  0
    6.9993    2.7213   -0.0000 N   0  0  0  0  0  0  0  0  0  0  0  0
    8.3184    0.4635   -0.0000 C   0  0  0  0  0  0  0  0  0  0  0  0
    8.2827    3.4818   -0.0000 N   0  0  0  0  0  0  0  0  0  0  0  0
    9.6137    1.2359   -0.0000 C   0  0  0  0  0  0  0  0  0  0  0  0
    9.5899    2.7451   -0.0000 C   0  0  0  0  0  0  0  0  0  0  0  0
   10.8733    3.5056   -0.0000 C   0  0  0  0  0  0  0  0  0  0  0  0
   10.8496    5.0148   -0.0000 C   0  0  0  0  0  0  0  0  0  0  0  0
   12.1686    2.7688   -0.0000 C   0  0  0  0  0  0  0  0  0  0  0  0
   12.1330    5.7872   -0.0000 N   0  0  0  0  0  0  0  0  0  0  0  0
   13.4520    3.5294   -0.0000 C   0  0  0  0  0  0  0  0  0  0  0  0
   13.4401    5.0504   -0.0000 C   0  0  0  0  0  0  0  0  0  0  0  0
  1  2  2  0  0  0  0
  2  3  1  0  0  0  0
  2  4  1  0  0  0  0
  3  5  1  0  0  0  0
  3  6  1  0  0  0  0
  4  7  1  0  0  0  0
  4  8  2  0  0  0  0
  5  9  2  0  0  0  0
  7 10  1  0  0  0  0
  7 11  1  0  0  0  0
  8 12  1  0  0  0  0
 10 13  1  0  0  0  0
 11 14  1  0  0  0  0
 14 15  2  0  0  0  0
 14 16  1  0  0  0  0
 16 17  1  0  0  0  0
 17 18  2  0  0  0  0
 17 19  1  0  0  0  0
 18 20  1  0  0  0  0
 19 21  2  0  0  0  0
 20 22  2  0  0  0  0
 22 23  1  0  0  0  0
 23 24  2  0  0  0  0
 23 25  1  0  0  0  0
 24 26  1  0  0  0  0
 25 27  2  0  0  0  0
 26 28  2  0  0  0  0
  5  8  1  0  0  0  0
 12 13  1  0  0  0  0
 21 22  1  0  0  0  0
 27 28  1  0  0  0  0
M  END
>  <MolRegNo>
2244168

>  <m>
=

>  <Value>
6200

>  <Unit>
nM

>  <Type>
IC50

>  <pValue>
5.21

>  <Ligand Efficiency>
0

>  <Binding Efficiency>
0

>  <Surface Efficiency>
0

>  <Assay Index>
1106937

>  <Assay Category>


>  <Assay Organism>
Homo sapiens

>  <Target ID>
17045

>  <Target Name>
Cytochrome P450 3A4

>  <Target Organism>
Homo sapiens

>  <Target Description>
Target is a single protein chain

>  <Sequence Accession>
P08684

>  <Reference>
J Med Chem 60 (15), 6678-6692 (2017)

>  <Pubmed ID>
28671458

>  <DOI>
10.1021/acs.jmedchem.7b00662

$$$$
2227817
Actelion Java MolfileCreator 1.0

 30 34  0  0  0  0  0  0  0  0999 V2000
    0.0000   -0.0000   -0.0000 O   0  0  0  0  0  0  0  0  0  0  0  0
    0.4512   -1.4250   -0.0000 C   0  0  0  0  0  0  0  0  0  0  0  0
   -0.4512   -2.6243   -0.0000 N   0  0  0  0  0  0  0  0  0  0  0  0
    1.8643   -1.8762   -0.0000 C   0  0  0  0  0  0  0  0  0  0  0  0
    0.4156   -3.8237   -0.0000 C   0  0  0  0  0  0  0  0  0  0  0  0
   -1.9712   -2.6124   -0.0000 C   0  0  0  0  0  0  0  0  0  0  0  0
    3.1587   -1.1162   -0.0000 N   0  0  0  0  0  0  0  0  0  0  0  0
    1.8525   -3.3606   -0.0000 C   0  0  0  0  0  0  0  0  0  0  0  0
   -0.0594   -5.2368   -0.0000 O   0  0  0  0  0  0  0  0  0  0  0  0
   -3.2774   -1.8525   -0.0000 C   0  0  0  0  0  0  0  0  0  0  0  0
   -3.2893   -3.3487   -0.0000 C   0  0  0  0  0  0  0  0  0  0  0  0
    4.4530   -1.8525   -0.0000 C   0  0  0  0  0  0  0  0  0  0  0  0
    3.1468    0.4037   -0.0000 C   0  0  0  0  0  0  0  0  0  0  0  0
    3.1468   -4.1087   -0.0000 C   0  0  0  0  0  0  0  0  0  0  0  0
    4.4412   -3.3487   -0.0000 C   0  0  0  0  0  0  0  0  0  0  0  0
    4.4412    1.1756   -0.0000 C   0  0  0  0  0  0  0  0  0  0  0  0
    4.4293    2.6956   -0.0000 O   0  0  0  0  0  0  0  0  0  0  0  0
    5.7236    0.4394   -0.0000 N   0  0  0  0  0  0  0  0  0  0  0  0
    7.0180    1.2112   -0.0000 C   0  0  0  0  0  0  0  0  0  0  0  0
    6.9942    2.7193   -0.0000 N   0  0  0  0  0  0  0  0  0  0  0  0
    8.3123    0.4631   -0.0000 C   0  0  0  0  0  0  0  0  0  0  0  0
    8.2767    3.4793   -0.0000 N   0  0  0  0  0  0  0  0  0  0  0  0
    9.6067    1.2350   -0.0000 C   0  0  0  0  0  0  0  0  0  0  0  0
    9.5829    2.7431   -0.0000 C   0  0  0  0  0  0  0  0  0  0  0  0
   10.8654    3.5031   -0.0000 C   0  0  0  0  0  0  0  0  0  0  0  0
   10.8417    5.0111   -0.0000 C   0  0  0  0  0  0  0  0  0  0  0  0
   12.1598    2.7668   -0.0000 C   0  0  0  0  0  0  0  0  0  0  0  0
   12.1241    5.7830   -0.0000 N   0  0  0  0  0  0  0  0  0  0  0  0
   13.4422    3.5268   -0.0000 C   0  0  0  0  0  0  0  0  0  0  0  0
   13.4304    5.0468   -0.0000 C   0  0  0  0  0  0  0  0  0  0  0  0
  1  2  2  0  0  0  0
  2  3  1  0  0  0  0
  2  4  1  0  0  0  0
  3  5  1  0  0  0  0
  3  6  1  0  0  0  0
  4  7  1  0  0  0  0
  4  8  2  0  0  0  0
  5  9  2  0  0  0  0
  6 10  1  0  0  0  0
  6 11  1  0  0  0  0
  7 12  1  0  0  0  0
  7 13  1  0  0  0  0
  8 14  1  0  0  0  0
 12 15  1  0  0  0  0
 13 16  1  0  0  0  0
 16 17  2  0  0  0  0
 16 18  1  0  0  0  0
 18 19  1  0  0  0  0
 19 20  2  0  0  0  0
 19 21  1  0  0  0  0
 20 22  1  0  0  0  0
 21 23  2  0  0  0  0
 22 24  2  0  0  0  0
 24 25  1  0  0  0  0
 25 26  2  0  0  0  0
 25 27  1  0  0  0  0
 26 28  1  0  0  0  0
 27 29  2  0  0  0  0
 28 30  2  0  0  0  0
  5  8  1  0  0  0  0
 10 11  1  0  0  0  0
 14 15  1  0  0  0  0
 23 24  1  0  0  0  0
 29 30  1  0  0  0  0
M  END
>  <MolRegNo>
2227817

>  <m>
=

>  <Value>
2100

>  <Unit>
nM

>  <Type>
IC50

>  <pValue>
5.68

>  <Ligand Efficiency>
0

>  <Binding Efficiency>
0

>  <Surface Efficiency>
0

>  <Assay Index>
1106937

>  <Assay Category>


>  <Assay Organism>
Homo sapiens

>  <Target ID>
17045

>  <Target Name>
Cytochrome P450 3A4

>  <Target Organism>
Homo sapiens

>  <Target Description>
Target is a single protein chain

>  <Sequence Accession>
P08684

>  <Reference>
J Med Chem 60 (15), 6678-6692 (2017)

>  <Pubmed ID>
28671458

>  <DOI>
10.1021/acs.jmedchem.7b00662

$$$$
2206500
Actelion Java MolfileCreator 1.0

 29 32  0  0  0  0  0  0  0  0999 V2000
    0.0000   -0.0000   -0.0000 F   0  0  0  0  0  0  0  0  0  0  0  0
   -1.3117    0.7563   -0.0000 C   0  0  0  0  0  0  0  0  0  0  0  0
   -1.3235    2.2688   -0.0000 C   0  0  0  0  0  0  0  0  0  0  0  0
   -2.6115    0.0236   -0.0000 C   0  0  0  0  0  0  0  0  0  0  0  0
   -2.6470    3.0251   -0.0000 N   0  0  0  0  0  0  0  0  0  0  0  0
   -3.9232    0.7799   -0.0000 C   0  0  0  0  0  0  0  0  0  0  0  0
   -3.9468    2.2806   -0.0000 C   0  0  0  0  0  0  0  0  0  0  0  0
   -5.2230    0.0473   -0.0000 C   0  0  0  0  0  0  0  0  0  0  0  0
   -6.5347    0.8035   -0.0000 N   0  0  0  0  0  0  0  0  0  0  0  0
   -5.2348   -1.4416   -0.0000 C   0  0  0  0  0  0  0  0  0  0  0  0
   -7.8345    0.0709   -0.0000 N   0  0  0  0  0  0  0  0  0  0  0  0
   -6.5347   -2.1861   -0.0000 C   0  0  0  0  0  0  0  0  0  0  0  0
   -7.8345   -1.4062   -0.0000 C   0  0  0  0  0  0  0  0  0  0  0  0
   -9.1462   -2.1506   -0.0000 N   0  0  0  0  0  0  0  0  0  0  0  0
  -10.4578   -1.3944   -0.0000 C   0  0  0  0  0  0  0  0  0  0  0  0
  -10.4696    0.1182   -0.0000 O   0  0  0  0  0  0  0  0  0  0  0  0
  -11.7695   -2.1388   -0.0000 C   0  0  0  0  0  0  0  0  0  0  0  0
  -11.7813   -3.6277   -0.0000 N   0  0  0  0  0  0  0  0  0  0  0  0
  -13.0930   -4.3604   -0.0000 C   0  0  0  0  0  0  0  0  0  0  0  0
  -10.4933   -4.3604   -0.0000 C   0  0  0  0  0  0  0  0  0  0  0  0
  -14.5228   -3.8877   -0.0000 C   0  0  0  0  0  0  0  0  0  0  0  0
  -13.1048   -5.8375   -0.0000 C   0  0  0  0  0  0  0  0  0  0  0  0
  -10.5051   -5.8493   -0.0000 C   0  0  0  0  0  0  0  0  0  0  0  0
  -14.9954   -2.4461   -0.0000 O   0  0  0  0  0  0  0  0  0  0  0  0
  -15.4090   -5.0812   -0.0000 N   0  0  0  0  0  0  0  0  0  0  0  0
  -14.5346   -6.2865   -0.0000 C   0  0  0  0  0  0  0  0  0  0  0  0
  -11.8167   -6.5819   -0.0000 C   0  0  0  0  0  0  0  0  0  0  0  0
  -16.9216   -5.0694   -0.0000 C   0  0  0  0  0  0  0  0  0  0  0  0
  -15.0073   -7.6927   -0.0000 O   0  0  0  0  0  0  0  0  0  0  0  0
  1  2  1  0  0  0  0
  2  3  2  0  0  0  0
  2  4  1  0  0  0  0
  3  5  1  0  0  0  0
  4  6  2  0  0  0  0
  5  7  2  0  0  0  0
  6  8  1  0  0  0  0
  8  9  2  0  0  0  0
  8 10  1  0  0  0  0
  9 11  1  0  0  0  0
 10 12  2  0  0  0  0
 11 13  2  0  0  0  0
 13 14  1  0  0  0  0
 14 15  1  0  0  0  0
 15 16  2  0  0  0  0
 15 17  1  0  0  0  0
 17 18  1  0  0  0  0
 18 19  1  0  0  0  0
 18 20  1  0  0  0  0
 19 21  1  0  0  0  0
 19 22  2  0  0  0  0
 20 23  1  0  0  0  0
 21 24  2  0  0  0  0
 21 25  1  0  0  0  0
 22 26  1  0  0  0  0
 22 27  1  0  0  0  0
 25 28  1  0  0  0  0
 26 29  2  0  0  0  0
  6  7  1  0  0  0  0
 12 13  1  0  0  0  0
 23 27  1  0  0  0  0
 25 26  1  0  0  0  0
M  END
>  <MolRegNo>
2206500

>  <m>
=

>  <Value>
7100

>  <Unit>
nM

>  <Type>
IC50

>  <pValue>
5.15

>  <Ligand Efficiency>
0

>  <Binding Efficiency>
0

>  <Surface Efficiency>
0

>  <Assay Index>
1106937

>  <Assay Category>


>  <Assay Organism>
Homo sapiens

>  <Target ID>
17045

>  <Target Name>
Cytochrome P450 3A4

>  <Target Organism>
Homo sapiens

>  <Target Description>
Target is a single protein chain

>  <Sequence Accession>
P08684

>  <Reference>
J Med Chem 60 (15), 6678-6692 (2017)

>  <Pubmed ID>
28671458

>  <DOI>
10.1021/acs.jmedchem.7b00662

$$$$
2235520
Actelion Java MolfileCreator 1.0

 31 35  0  0  0  0  0  0  0  0999 V2000
    0.0000   -0.0000   -0.0000 F   0  0  0  0  0  0  0  0  0  0  0  0
   -1.3113    0.7560   -0.0000 C   0  0  0  0  0  0  0  0  0  0  0  0
   -1.3231    2.2681   -0.0000 C   0  0  0  0  0  0  0  0  0  0  0  0
   -2.6107    0.0236   -0.0000 C   0  0  0  0  0  0  0  0  0  0  0  0
   -2.6462    3.0242   -0.0000 N   0  0  0  0  0  0  0  0  0  0  0  0
   -3.9220    0.7797   -0.0000 C   0  0  0  0  0  0  0  0  0  0  0  0
   -3.9456    2.2799   -0.0000 C   0  0  0  0  0  0  0  0  0  0  0  0
   -5.2214    0.0473   -0.0000 C   0  0  0  0  0  0  0  0  0  0  0  0
   -6.5445    0.8033   -0.0000 N   0  0  0  0  0  0  0  0  0  0  0  0
   -5.2333   -1.4412   -0.0000 C   0  0  0  0  0  0  0  0  0  0  0  0
   -7.8440    0.0709   -0.0000 N   0  0  0  0  0  0  0  0  0  0  0  0
   -6.5445   -2.1854   -0.0000 C   0  0  0  0  0  0  0  0  0  0  0  0
   -7.8440   -1.4058   -0.0000 C   0  0  0  0  0  0  0  0  0  0  0  0
   -9.1552   -2.1500   -0.0000 N   0  0  0  0  0  0  0  0  0  0  0  0
  -10.4665   -1.3940   -0.0000 C   0  0  0  0  0  0  0  0  0  0  0  0
  -10.4783    0.1181   -0.0000 O   0  0  0  0  0  0  0  0  0  0  0  0
  -11.7778   -2.1382   -0.0000 C   0  0  0  0  0  0  0  0  0  0  0  0
  -11.7896   -3.6267   -0.0000 N   0  0  0  0  0  0  0  0  0  0  0  0
  -13.1008   -4.3591   -0.0000 C   0  0  0  0  0  0  0  0  0  0  0  0
  -10.5019   -4.3591   -0.0000 C   0  0  0  0  0  0  0  0  0  0  0  0
  -14.5302   -3.8865   -0.0000 C   0  0  0  0  0  0  0  0  0  0  0  0
  -13.1127   -5.8357   -0.0000 C   0  0  0  0  0  0  0  0  0  0  0  0
  -10.5138   -5.8475   -0.0000 C   0  0  0  0  0  0  0  0  0  0  0  0
  -15.0028   -2.4453   -0.0000 O   0  0  0  0  0  0  0  0  0  0  0  0
  -15.4162   -5.0797   -0.0000 N   0  0  0  0  0  0  0  0  0  0  0  0
  -14.5421   -6.2846   -0.0000 C   0  0  0  0  0  0  0  0  0  0  0  0
  -11.8250   -6.5800   -0.0000 C   0  0  0  0  0  0  0  0  0  0  0  0
  -16.9283   -5.0679   -0.0000 C   0  0  0  0  0  0  0  0  0  0  0  0
  -15.0146   -7.6904   -0.0000 O   0  0  0  0  0  0  0  0  0  0  0  0
  -18.2278   -4.3118   -0.0000 C   0  0  0  0  0  0  0  0  0  0  0  0
  -18.2396   -5.8003   -0.0000 C   0  0  0  0  0  0  0  0  0  0  0  0
  1  2  1  0  0  0  0
  2  3  2  0  0  0  0
  2  4  1  0  0  0  0
  3  5  1  0  0  0  0
  4  6  2  0  0  0  0
  5  7  2  0  0  0  0
  6  8  1  0  0  0  0
  8  9  2  0  0  0  0
  8 10  1  0  0  0  0
  9 11  1  0  0  0  0
 10 12  2  0  0  0  0
 11 13  2  0  0  0  0
 13 14  1  0  0  0  0
 14 15  1  0  0  0  0
 15 16  2  0  0  0  0
 15 17  1  0  0  0  0
 17 18  1  0  0  0  0
 18 19  1  0  0  0  0
 18 20  1  0  0  0  0
 19 21  1  0  0  0  0
 19 22  2  0  0  0  0
 20 23  1  0  0  0  0
 21 24  2  0  0  0  0
 21 25  1  0  0  0  0
 22 26  1  0  0  0  0
 22 27  1  0  0  0  0
 25 28  1  0  0  0  0
 26 29  2  0  0  0  0
 28 30  1  0  0  0  0
 28 31  1  0  0  0  0
  6  7  1  0  0  0  0
 12 13  1  0  0  0  0
 23 27  1  0  0  0  0
 25 26  1  0  0  0  0
 30 31  1  0  0  0  0
M  END
>  <MolRegNo>
2235520

>  <m>
=

>  <Value>
16000

>  <Unit>
nM

>  <Type>
IC50

>  <pValue>
4.8

>  <Ligand Efficiency>
0

>  <Binding Efficiency>
0

>  <Surface Efficiency>
0

>  <Assay Index>
1106937

>  <Assay Category>


>  <Assay Organism>
Homo sapiens

>  <Target ID>
17045

>  <Target Name>
Cytochrome P450 3A4

>  <Target Organism>
Homo sapiens

>  <Target Description>
Target is a single protein chain

>  <Sequence Accession>
P08684

>  <Reference>
J Med Chem 60 (15), 6678-6692 (2017)

>  <Pubmed ID>
28671458

>  <DOI>
10.1021/acs.jmedchem.7b00662

$$$$
2243267
Actelion Java MolfileCreator 1.0

 31 35  0  0  0  0  0  0  0  0999 V2000
    0.0000   -0.0000   -0.0000 O   0  0  0  0  0  0  0  0  0  0  0  0
    0.4514   -1.4256   -0.0000 C   0  0  0  0  0  0  0  0  0  0  0  0
   -0.4514   -2.6255   -0.0000 N   0  0  0  0  0  0  0  0  0  0  0  0
    1.8652   -1.8771   -0.0000 C   0  0  0  0  0  0  0  0  0  0  0  0
    0.4158   -3.8254   -0.0000 C   0  0  0  0  0  0  0  0  0  0  0  0
   -1.9721   -2.6136   -0.0000 C   0  0  0  0  0  0  0  0  0  0  0  0
    3.1601   -1.1167   -0.0000 N   0  0  0  0  0  0  0  0  0  0  0  0
    1.8533   -3.3621   -0.0000 C   0  0  0  0  0  0  0  0  0  0  0  0
   -0.0594   -5.2391   -0.0000 O   0  0  0  0  0  0  0  0  0  0  0  0
   -3.2789   -1.8533   -0.0000 C   0  0  0  0  0  0  0  0  0  0  0  0
   -3.2789   -3.3502   -0.0000 C   0  0  0  0  0  0  0  0  0  0  0  0
    4.4550   -1.8533   -0.0000 C   0  0  0  0  0  0  0  0  0  0  0  0
    3.1482    0.4039   -0.0000 C   0  0  0  0  0  0  0  0  0  0  0  0
    3.1482   -4.1105   -0.0000 C   0  0  0  0  0  0  0  0  0  0  0  0
    4.4432   -3.3502   -0.0000 C   0  0  0  0  0  0  0  0  0  0  0  0
    4.4432    1.1761   -0.0000 C   0  0  0  0  0  0  0  0  0  0  0  0
    4.4313    2.6968   -0.0000 O   0  0  0  0  0  0  0  0  0  0  0  0
    5.7381    0.4396   -0.0000 N   0  0  0  0  0  0  0  0  0  0  0  0
    7.0330    1.2118   -0.0000 C   0  0  0  0  0  0  0  0  0  0  0  0
    7.0093    2.7205   -0.0000 N   0  0  0  0  0  0  0  0  0  0  0  0
    8.3161    0.4633   -0.0000 C   0  0  0  0  0  0  0  0  0  0  0  0
    8.2804    3.4809   -0.0000 N   0  0  0  0  0  0  0  0  0  0  0  0
    9.6110    1.2355   -0.0000 C   0  0  0  0  0  0  0  0  0  0  0  0
    9.5873    2.7443   -0.0000 C   0  0  0  0  0  0  0  0  0  0  0  0
   10.8703    3.5046   -0.0000 C   0  0  0  0  0  0  0  0  0  0  0  0
   10.8466    5.0134   -0.0000 C   0  0  0  0  0  0  0  0  0  0  0  0
   12.1653    2.7681   -0.0000 C   0  0  0  0  0  0  0  0  0  0  0  0
   12.1296    5.7856   -0.0000 N   0  0  0  0  0  0  0  0  0  0  0  0
   13.4483    3.5284   -0.0000 C   0  0  0  0  0  0  0  0  0  0  0  0
   13.4364    5.0491   -0.0000 C   0  0  0  0  0  0  0  0  0  0  0  0
   14.7195    5.8213   -0.0000 C   0  0  0  0  0  0  0  0  0  0  0  0
  1  2  2  0  0  0  0
  2  3  1  0  0  0  0
  2  4  1  0  0  0  0
  3  5  1  0  0  0  0
  3  6  1  0  0  0  0
  4  7  1  0  0  0  0
  4  8  2  0  0  0  0
  5  9  2  0  0  0  0
  6 10  1  0  0  0  0
  6 11  1  0  0  0  0
  7 12  1  0  0  0  0
  7 13  1  0  0  0  0
  8 14  1  0  0  0  0
 12 15  1  0  0  0  0
 13 16  1  0  0  0  0
 16 17  2  0  0  0  0
 16 18  1  0  0  0  0
 18 19  1  0  0  0  0
 19 20  2  0  0  0  0
 19 21  1  0  0  0  0
 20 22  1  0  0  0  0
 21 23  2  0  0  0  0
 22 24  2  0  0  0  0
 24 25  1  0  0  0  0
 25 26  2  0  0  0  0
 25 27  1  0  0  0  0
 26 28  1  0  0  0  0
 27 29  2  0  0  0  0
 28 30  2  0  0  0  0
 30 31  1  0  0  0  0
  5  8  1  0  0  0  0
 10 11  1  0  0  0  0
 14 15  1  0  0  0  0
 23 24  1  0  0  0  0
 29 30  1  0  0  0  0
M  END
>  <MolRegNo>
2243267

>  <m>
=

>  <Value>
8000

>  <Unit>
nM

>  <Type>
IC50

>  <pValue>
5.1

>  <Ligand Efficiency>
0

>  <Binding Efficiency>
0

>  <Surface Efficiency>
0

>  <Assay Index>
1106937

>  <Assay Category>


>  <Assay Organism>
Homo sapiens

>  <Target ID>
17045

>  <Target Name>
Cytochrome P450 3A4

>  <Target Organism>
Homo sapiens

>  <Target Description>
Target is a single protein chain

>  <Sequence Accession>
P08684

>  <Reference>
J Med Chem 60 (15), 6678-6692 (2017)

>  <Pubmed ID>
28671458

>  <DOI>
10.1021/acs.jmedchem.7b00662

$$$$
1518925
Actelion Java MolfileCreator 1.0

 31 34  0  0  0  0  0  0  0  0999 V2000
    0.0000   -0.0000   -0.0000 Cl  0  0  0  0  0  0  0  0  0  0  0  0
   -1.3056    0.7646   -0.0000 C   0  0  0  0  0  0  0  0  0  0  0  0
   -2.6113    0.0235   -0.0000 C   0  0  0  0  0  0  0  0  0  0  0  0
   -1.3174    2.2702   -0.0000 C   0  0  0  0  0  0  0  0  0  0  0  0
   -3.9169    0.7881   -0.0000 C   0  0  0  0  0  0  0  0  0  0  0  0
   -2.6231    3.0230   -0.0000 C   0  0  0  0  0  0  0  0  0  0  0  0
   -3.9287    2.2937   -0.0000 C   0  0  0  0  0  0  0  0  0  0  0  0
   -5.1402   -0.0706   -0.0000 C   0  0  0  0  0  0  0  0  0  0  0  0
   -5.2343    3.0465   -0.0000 O   0  0  0  0  0  0  0  0  0  0  0  0
   -6.5635    0.4235   -0.0000 N   0  0  0  0  0  0  0  0  0  0  0  0
   -5.1638   -1.5409   -0.0000 C   0  0  0  0  0  0  0  0  0  0  0  0
   -5.2461    4.5521   -0.0000 C   0  0  0  0  0  0  0  0  0  0  0  0
   -7.4692   -0.7646   -0.0000 N   0  0  0  0  0  0  0  0  0  0  0  0
   -7.0340    1.8585   -0.0000 C   0  0  0  0  0  0  0  0  0  0  0  0
   -6.5988   -1.9761   -0.0000 C   0  0  0  0  0  0  0  0  0  0  0  0
   -6.5517    5.3049   -0.0000 C   0  0  0  0  0  0  0  0  0  0  0  0
   -3.9640    5.3049   -0.0000 C   0  0  0  0  0  0  0  0  0  0  0  0
   -7.8574    4.5756   -0.0000 C   0  0  0  0  0  0  0  0  0  0  0  0
   -6.5635    6.8105   -0.0000 C   0  0  0  0  0  0  0  0  0  0  0  0
   -3.9757    6.8105   -0.0000 C   0  0  0  0  0  0  0  0  0  0  0  0
   -9.1513    3.8346   -0.0000 N   0  0  0  0  0  0  0  0  0  0  0  0
   -5.2814    7.5751   -0.0000 C   0  0  0  0  0  0  0  0  0  0  0  0
   -5.2932    9.0689   -0.0000 S   0  0  0  0  0  0  0  0  0  0  0  0
   -6.7988    9.0807   -0.0000 O   0  0  0  0  0  0  0  0  0  0  0  0
   -5.3167   10.5628   -0.0000 O   0  0  0  0  0  0  0  0  0  0  0  0
   -3.9993    9.8100   -0.0000 N   0  0  0  0  0  0  0  0  0  0  0  0
   -3.9875   11.3156   -0.0000 C   0  0  0  0  0  0  0  0  0  0  0  0
   -5.1991   12.2213   -0.0000 S   0  0  0  0  0  0  0  0  0  0  0  0
   -2.7877   12.1860   -0.0000 N   0  0  0  0  0  0  0  0  0  0  0  0
   -4.7403   13.6446   -0.0000 N   0  0  0  0  0  0  0  0  0  0  0  0
   -3.2465   13.6210   -0.0000 C   0  0  0  0  0  0  0  0  0  0  0  0
  1  2  1  0  0  0  0
  2  3  2  0  0  0  0
  2  4  1  0  0  0  0
  3  5  1  0  0  0  0
  4  6  2  0  0  0  0
  5  7  2  0  0  0  0
  5  8  1  0  0  0  0
  7  9  1  0  0  0  0
  8 10  1  0  0  0  0
  8 11  2  0  0  0  0
  9 12  1  0  0  0  0
 10 13  1  0  0  0  0
 10 14  1  0  0  0  0
 11 15  1  0  0  0  0
 12 16  2  0  0  0  0
 12 17  1  0  0  0  0
 16 18  1  0  0  0  0
 16 19  1  0  0  0  0
 17 20  2  0  0  0  0
 18 21  3  0  0  0  0
 19 22  2  0  0  0  0
 22 23  1  0  0  0  0
 23 24  2  0  0  0  0
 23 25  2  0  0  0  0
 23 26  1  0  0  0  0
 26 27  1  0  0  0  0
 27 28  1  0  0  0  0
 27 29  2  0  0  0  0
 28 30  1  0  0  0  0
 29 31  1  0  0  0  0
  6  7  1  0  0  0  0
 13 15  2  0  0  0  0
 20 22  1  0  0  0  0
 30 31  2  0  0  0  0
M  END
>  <MolRegNo>
1518925

>  <m>
=

>  <Value>
556

>  <Unit>
nM

>  <Type>
IC50

>  <pValue>
6.25

>  <Ligand Efficiency>
0

>  <Binding Efficiency>
0

>  <Surface Efficiency>
0

>  <Assay Index>
1107034

>  <Assay Category>


>  <Assay Organism>
Homo sapiens

>  <Target ID>
17045

>  <Target Name>
Cytochrome P450 3A4

>  <Target Organism>
Homo sapiens

>  <Target Description>
Target is a single protein chain

>  <Sequence Accession>
P08684

>  <Reference>
J Med Chem 60 (16), 7029-7042 (2017)

>  <Pubmed ID>
28682065

>  <DOI>
10.1021/acs.jmedchem.7b00598

$$$$
1518927
Actelion Java MolfileCreator 1.0

 31 34  0  0  0  0  0  0  0  0999 V2000
    0.0000   -0.0000   -0.0000 Cl  0  0  0  0  0  0  0  0  0  0  0  0
   -1.3122    0.7566   -0.0000 C   0  0  0  0  0  0  0  0  0  0  0  0
   -2.6244    0.0236   -0.0000 C   0  0  0  0  0  0  0  0  0  0  0  0
   -1.3240    2.2697   -0.0000 C   0  0  0  0  0  0  0  0  0  0  0  0
   -2.6362   -1.4659   -0.0000 O   0  0  0  0  0  0  0  0  0  0  0  0
   -3.9366    0.7802   -0.0000 C   0  0  0  0  0  0  0  0  0  0  0  0
   -2.6362    3.0381   -0.0000 C   0  0  0  0  0  0  0  0  0  0  0  0
   -3.9484   -2.1988   -0.0000 C   0  0  0  0  0  0  0  0  0  0  0  0
   -3.9484    2.2934   -0.0000 C   0  0  0  0  0  0  0  0  0  0  0  0
   -2.6480    4.5395   -0.0000 S   0  0  0  0  0  0  0  0  0  0  0  0
   -3.9602   -3.6883   -0.0000 C   0  0  0  0  0  0  0  0  0  0  0  0
   -5.2606   -1.4422   -0.0000 C   0  0  0  0  0  0  0  0  0  0  0  0
   -5.2606    3.0618   -0.0000 F   0  0  0  0  0  0  0  0  0  0  0  0
   -4.1494    4.5513   -0.0000 O   0  0  0  0  0  0  0  0  0  0  0  0
   -2.6717    6.0408   -0.0000 O   0  0  0  0  0  0  0  0  0  0  0  0
   -1.2767    5.1542   -0.0000 N   0  0  0  0  0  0  0  0  0  0  0  0
   -2.7781   -4.5749   -0.0000 C   0  0  0  0  0  0  0  0  0  0  0  0
   -5.2724   -4.4331   -0.0000 C   0  0  0  0  0  0  0  0  0  0  0  0
   -6.5728   -2.1752   -0.0000 C   0  0  0  0  0  0  0  0  0  0  0  0
   -0.0828    4.2676   -0.0000 C   0  0  0  0  0  0  0  0  0  0  0  0
   -1.3477   -4.1139   -0.0000 N   0  0  0  0  0  0  0  0  0  0  0  0
   -2.8135   -6.0526   -0.0000 C   0  0  0  0  0  0  0  0  0  0  0  0
   -6.5846   -3.6647   -0.0000 C   0  0  0  0  0  0  0  0  0  0  0  0
    1.3240    4.7286   -0.0000 S   0  0  0  0  0  0  0  0  0  0  0  0
   -0.1064    2.7781   -0.0000 N   0  0  0  0  0  0  0  0  0  0  0  0
   -0.4965   -5.3315   -0.0000 N   0  0  0  0  0  0  0  0  0  0  0  0
   -0.8748   -2.6835   -0.0000 C   0  0  0  0  0  0  0  0  0  0  0  0
   -1.4068   -6.5255   -0.0000 C   0  0  0  0  0  0  0  0  0  0  0  0
   -7.8850   -4.4094   -0.0000 Cl  0  0  0  0  0  0  0  0  0  0  0  0
    2.1870    3.5110   -0.0000 C   0  0  0  0  0  0  0  0  0  0  0  0
    1.3004    2.3052   -0.0000 N   0  0  0  0  0  0  0  0  0  0  0  0
  1  2  1  0  0  0  0
  2  3  2  0  0  0  0
  2  4  1  0  0  0  0
  3  5  1  0  0  0  0
  3  6  1  0  0  0  0
  4  7  2  0  0  0  0
  5  8  1  0  0  0  0
  6  9  2  0  0  0  0
  7 10  1  0  0  0  0
  8 11  2  0  0  0  0
  8 12  1  0  0  0  0
  9 13  1  0  0  0  0
 10 14  2  0  0  0  0
 10 15  2  0  0  0  0
 10 16  1  0  0  0  0
 11 17  1  0  0  0  0
 11 18  1  0  0  0  0
 12 19  2  0  0  0  0
 16 20  1  0  0  0  0
 17 21  1  0  0  0  0
 17 22  2  0  0  0  0
 18 23  2  0  0  0  0
 20 24  1  0  0  0  0
 20 25  2  0  0  0  0
 21 26  1  0  0  0  0
 21 27  1  0  0  0  0
 22 28  1  0  0  0  0
 23 29  1  0  0  0  0
 24 30  1  0  0  0  0
 25 31  1  0  0  0  0
  7  9  1  0  0  0  0
 19 23  1  0  0  0  0
 26 28  2  0  0  0  0
 30 31  2  0  0  0  0
M  END
>  <MolRegNo>
1518927

>  <m>
=

>  <Value>
11068

>  <Unit>
nM

>  <Type>
IC50

>  <pValue>
4.96

>  <Ligand Efficiency>
0

>  <Binding Efficiency>
0

>  <Surface Efficiency>
0

>  <Assay Index>
1107034

>  <Assay Category>


>  <Assay Organism>
Homo sapiens

>  <Target ID>
17045

>  <Target Name>
Cytochrome P450 3A4

>  <Target Organism>
Homo sapiens

>  <Target Description>
Target is a single protein chain

>  <Sequence Accession>
P08684

>  <Reference>
J Med Chem 60 (16), 7029-7042 (2017)

>  <Pubmed ID>
28682065

>  <DOI>
10.1021/acs.jmedchem.7b00598

$$$$
1518573
Actelion Java MolfileCreator 1.0

 31 34  0  0  0  0  0  0  0  0999 V2000
    0.0000   -0.0000   -0.0000 Cl  0  0  0  0  0  0  0  0  0  0  0  0
   -1.3127    0.7569   -0.0000 C   0  0  0  0  0  0  0  0  0  0  0  0
   -2.6255    0.0237   -0.0000 C   0  0  0  0  0  0  0  0  0  0  0  0
   -1.3246    2.2707   -0.0000 C   0  0  0  0  0  0  0  0  0  0  0  0
   -2.6373   -1.4665   -0.0000 O   0  0  0  0  0  0  0  0  0  0  0  0
   -3.9382    0.7805   -0.0000 C   0  0  0  0  0  0  0  0  0  0  0  0
   -2.6373    3.0394   -0.0000 C   0  0  0  0  0  0  0  0  0  0  0  0
   -3.9500   -2.1997   -0.0000 C   0  0  0  0  0  0  0  0  0  0  0  0
   -3.9500    2.2943   -0.0000 C   0  0  0  0  0  0  0  0  0  0  0  0
   -2.6491    4.5414   -0.0000 S   0  0  0  0  0  0  0  0  0  0  0  0
   -3.9619   -3.6899   -0.0000 C   0  0  0  0  0  0  0  0  0  0  0  0
   -5.2628   -1.4428   -0.0000 C   0  0  0  0  0  0  0  0  0  0  0  0
   -5.2628    3.0630   -0.0000 F   0  0  0  0  0  0  0  0  0  0  0  0
   -4.1629    4.5532   -0.0000 O   0  0  0  0  0  0  0  0  0  0  0  0
   -2.6728    6.0433   -0.0000 O   0  0  0  0  0  0  0  0  0  0  0  0
   -1.2891    5.1563   -0.0000 N   0  0  0  0  0  0  0  0  0  0  0  0
   -2.7556   -4.5532   -0.0000 C   0  0  0  0  0  0  0  0  0  0  0  0
   -5.2746   -4.4349   -0.0000 C   0  0  0  0  0  0  0  0  0  0  0  0
   -6.5755   -2.1761   -0.0000 C   0  0  0  0  0  0  0  0  0  0  0  0
   -0.0946    4.2812   -0.0000 C   0  0  0  0  0  0  0  0  0  0  0  0
   -1.3364   -4.0565   -0.0000 N   0  0  0  0  0  0  0  0  0  0  0  0
   -2.7556   -6.0315   -0.0000 C   0  0  0  0  0  0  0  0  0  0  0  0
   -6.5873   -3.6662   -0.0000 C   0  0  0  0  0  0  0  0  0  0  0  0
    1.3127    4.7424   -0.0000 N   0  0  0  0  0  0  0  0  0  0  0  0
   -0.1183    2.7910   -0.0000 C   0  0  0  0  0  0  0  0  0  0  0  0
   -0.4612   -5.2509   -0.0000 N   0  0  0  0  0  0  0  0  0  0  0  0
   -0.8988   -2.6136   -0.0000 C   0  0  0  0  0  0  0  0  0  0  0  0
   -1.3364   -6.4691   -0.0000 C   0  0  0  0  0  0  0  0  0  0  0  0
   -7.8882   -4.4113   -0.0000 Cl  0  0  0  0  0  0  0  0  0  0  0  0
    2.1761    3.5361   -0.0000 C   0  0  0  0  0  0  0  0  0  0  0  0
    1.2891    2.3298   -0.0000 S   0  0  0  0  0  0  0  0  0  0  0  0
  1  2  1  0  0  0  0
  2  3  2  0  0  0  0
  2  4  1  0  0  0  0
  3  5  1  0  0  0  0
  3  6  1  0  0  0  0
  4  7  2  0  0  0  0
  5  8  1  0  0  0  0
  6  9  2  0  0  0  0
  7 10  1  0  0  0  0
  8 11  2  0  0  0  0
  8 12  1  0  0  0  0
  9 13  1  0  0  0  0
 10 14  2  0  0  0  0
 10 15  2  0  0  0  0
 10 16  1  0  0  0  0
 11 17  1  0  0  0  0
 11 18  1  0  0  0  0
 12 19  2  0  0  0  0
 16 20  1  0  0  0  0
 17 21  1  0  0  0  0
 17 22  2  0  0  0  0
 18 23  2  0  0  0  0
 20 24  1  0  0  0  0
 20 25  2  0  0  0  0
 21 26  1  0  0  0  0
 21 27  1  0  0  0  0
 22 28  1  0  0  0  0
 23 29  1  0  0  0  0
 24 30  2  0  0  0  0
 25 31  1  0  0  0  0
  7  9  1  0  0  0  0
 19 23  1  0  0  0  0
 26 28  2  0  0  0  0
 30 31  1  0  0  0  0
M  END
>  <MolRegNo>
1518573

>  <m>
=

>  <Value>
26588

>  <Unit>
nM

>  <Type>
IC50

>  <pValue>
4.58

>  <Ligand Efficiency>
0

>  <Binding Efficiency>
0

>  <Surface Efficiency>
0

>  <Assay Index>
1107034

>  <Assay Category>


>  <Assay Organism>
Homo sapiens

>  <Target ID>
17045

>  <Target Name>
Cytochrome P450 3A4

>  <Target Organism>
Homo sapiens

>  <Target Description>
Target is a single protein chain

>  <Sequence Accession>
P08684

>  <Reference>
J Med Chem 60 (16), 7029-7042 (2017)

>  <Pubmed ID>
28682065

>  <DOI>
10.1021/acs.jmedchem.7b00598

$$$$
1518559
Actelion Java MolfileCreator 1.0

 32 35  0  0  0  0  0  0  0  0999 V2000
    0.0000   -0.0000   -0.0000 Cl  0  0  0  0  0  0  0  0  0  0  0  0
   -1.3128    0.7569   -0.0000 C   0  0  0  0  0  0  0  0  0  0  0  0
   -2.6255    0.0237   -0.0000 C   0  0  0  0  0  0  0  0  0  0  0  0
   -1.3246    2.2707   -0.0000 C   0  0  0  0  0  0  0  0  0  0  0  0
   -2.6373   -1.4665   -0.0000 O   0  0  0  0  0  0  0  0  0  0  0  0
   -3.9383    0.7806   -0.0000 C   0  0  0  0  0  0  0  0  0  0  0  0
   -2.6373    3.0394   -0.0000 C   0  0  0  0  0  0  0  0  0  0  0  0
   -3.9501   -2.1997   -0.0000 C   0  0  0  0  0  0  0  0  0  0  0  0
   -3.9501    2.2944   -0.0000 C   0  0  0  0  0  0  0  0  0  0  0  0
   -2.6492    4.5414   -0.0000 S   0  0  0  0  0  0  0  0  0  0  0  0
   -3.9619   -3.6899   -0.0000 C   0  0  0  0  0  0  0  0  0  0  0  0
   -5.2628   -1.4428   -0.0000 C   0  0  0  0  0  0  0  0  0  0  0  0
   -5.2628    3.0631   -0.0000 F   0  0  0  0  0  0  0  0  0  0  0  0
   -4.1511    4.5532   -0.0000 O   0  0  0  0  0  0  0  0  0  0  0  0
   -2.6728    6.0434   -0.0000 O   0  0  0  0  0  0  0  0  0  0  0  0
   -1.3719    5.3220   -0.0000 N   0  0  0  0  0  0  0  0  0  0  0  0
   -2.6728   -4.4350   -0.0000 C   0  0  0  0  0  0  0  0  0  0  0  0
   -5.2747   -4.4350   -0.0000 C   0  0  0  0  0  0  0  0  0  0  0  0
   -6.5756   -2.1761   -0.0000 C   0  0  0  0  0  0  0  0  0  0  0  0
   -0.0710    4.6005   -0.0000 C   0  0  0  0  0  0  0  0  0  0  0  0
   -1.3128   -3.8082   -0.0000 N   0  0  0  0  0  0  0  0  0  0  0  0
   -2.5309   -5.9133   -0.0000 C   0  0  0  0  0  0  0  0  0  0  0  0
   -6.5874   -3.6662   -0.0000 C   0  0  0  0  0  0  0  0  0  0  0  0
   -0.0710    3.1104   -0.0000 N   0  0  0  0  0  0  0  0  0  0  0  0
    1.2063    5.3811   -0.0000 C   0  0  0  0  0  0  0  0  0  0  0  0
   -0.3193   -4.9080   -0.0000 N   0  0  0  0  0  0  0  0  0  0  0  0
   -1.0171   -2.3298   -0.0000 C   0  0  0  0  0  0  0  0  0  0  0  0
   -1.0762   -6.2090   -0.0000 C   0  0  0  0  0  0  0  0  0  0  0  0
   -7.8883   -4.4113   -0.0000 Cl  0  0  0  0  0  0  0  0  0  0  0  0
    1.2300    2.4008   -0.0000 C   0  0  0  0  0  0  0  0  0  0  0  0
    2.4954    4.6597   -0.0000 C   0  0  0  0  0  0  0  0  0  0  0  0
    2.5072    3.1814   -0.0000 N   0  0  0  0  0  0  0  0  0  0  0  0
  1  2  1  0  0  0  0
  2  3  2  0  0  0  0
  2  4  1  0  0  0  0
  3  5  1  0  0  0  0
  3  6  1  0  0  0  0
  4  7  2  0  0  0  0
  5  8  1  0  0  0  0
  6  9  2  0  0  0  0
  7 10  1  0  0  0  0
  8 11  2  0  0  0  0
  8 12  1  0  0  0  0
  9 13  1  0  0  0  0
 10 14  2  0  0  0  0
 10 15  2  0  0  0  0
 10 16  1  0  0  0  0
 11 17  1  0  0  0  0
 11 18  1  0  0  0  0
 12 19  2  0  0  0  0
 16 20  1  0  0  0  0
 17 21  1  0  0  0  0
 17 22  2  0  0  0  0
 18 23  2  0  0  0  0
 20 24  2  0  0  0  0
 20 25  1  0  0  0  0
 21 26  1  0  0  0  0
 21 27  1  0  0  0  0
 22 28  1  0  0  0  0
 23 29  1  0  0  0  0
 24 30  1  0  0  0  0
 25 31  2  0  0  0  0
 30 32  2  0  0  0  0
  7  9  1  0  0  0  0
 19 23  1  0  0  0  0
 26 28  2  0  0  0  0
 31 32  1  0  0  0  0
M  END
>  <MolRegNo>
1518559

>  <m>
=

>  <Value>
1058

>  <Unit>
nM

>  <Type>
IC50

>  <pValue>
5.98

>  <Ligand Efficiency>
0

>  <Binding Efficiency>
0

>  <Surface Efficiency>
0

>  <Assay Index>
1107034

>  <Assay Category>


>  <Assay Organism>
Homo sapiens

>  <Target ID>
17045

>  <Target Name>
Cytochrome P450 3A4

>  <Target Organism>
Homo sapiens

>  <Target Description>
Target is a single protein chain

>  <Sequence Accession>
P08684

>  <Reference>
J Med Chem 60 (16), 7029-7042 (2017)

>  <Pubmed ID>
28682065

>  <DOI>
10.1021/acs.jmedchem.7b00598

$$$$
1518914
Actelion Java MolfileCreator 1.0

 30 33  0  0  0  0  0  0  0  0999 V2000
    0.0000   -0.0000   -0.0000 Cl  0  0  0  0  0  0  0  0  0  0  0  0
   -1.3046    0.7640   -0.0000 C   0  0  0  0  0  0  0  0  0  0  0  0
   -2.6092    0.0235   -0.0000 C   0  0  0  0  0  0  0  0  0  0  0  0
   -1.3164    2.2684   -0.0000 C   0  0  0  0  0  0  0  0  0  0  0  0
   -3.9138    0.7875   -0.0000 C   0  0  0  0  0  0  0  0  0  0  0  0
   -2.6209    3.0206   -0.0000 C   0  0  0  0  0  0  0  0  0  0  0  0
   -3.9255    2.2919   -0.0000 C   0  0  0  0  0  0  0  0  0  0  0  0
   -5.2184    0.0470   -0.0000 C   0  0  0  0  0  0  0  0  0  0  0  0
   -5.2301    3.0441   -0.0000 O   0  0  0  0  0  0  0  0  0  0  0  0
   -6.5818    0.6699   -0.0000 N   0  0  0  0  0  0  0  0  0  0  0  0
   -5.3829   -1.4221   -0.0000 C   0  0  0  0  0  0  0  0  0  0  0  0
   -5.2419    4.5485   -0.0000 C   0  0  0  0  0  0  0  0  0  0  0  0
   -7.6043   -0.4231   -0.0000 N   0  0  0  0  0  0  0  0  0  0  0  0
   -6.8521   -1.7160   -0.0000 C   0  0  0  0  0  0  0  0  0  0  0  0
   -6.5465    5.3007   -0.0000 C   0  0  0  0  0  0  0  0  0  0  0  0
   -3.9608    5.3007   -0.0000 C   0  0  0  0  0  0  0  0  0  0  0  0
   -7.8511    4.5720   -0.0000 C   0  0  0  0  0  0  0  0  0  0  0  0
   -6.5582    6.8051   -0.0000 C   0  0  0  0  0  0  0  0  0  0  0  0
   -3.9726    6.8051   -0.0000 C   0  0  0  0  0  0  0  0  0  0  0  0
   -9.1439    3.8315   -0.0000 N   0  0  0  0  0  0  0  0  0  0  0  0
   -5.2772    7.5690   -0.0000 C   0  0  0  0  0  0  0  0  0  0  0  0
   -5.2889    9.0617   -0.0000 S   0  0  0  0  0  0  0  0  0  0  0  0
   -6.7933    9.0734   -0.0000 O   0  0  0  0  0  0  0  0  0  0  0  0
   -5.6885   10.5191   -0.0000 O   0  0  0  0  0  0  0  0  0  0  0  0
   -4.0078    9.8256   -0.0000 N   0  0  0  0  0  0  0  0  0  0  0  0
   -4.0196   11.3300   -0.0000 C   0  0  0  0  0  0  0  0  0  0  0  0
   -5.2419   12.2115   -0.0000 S   0  0  0  0  0  0  0  0  0  0  0  0
   -2.8325   12.2233   -0.0000 N   0  0  0  0  0  0  0  0  0  0  0  0
   -4.8070   13.6454   -0.0000 N   0  0  0  0  0  0  0  0  0  0  0  0
   -3.3144   13.6571   -0.0000 C   0  0  0  0  0  0  0  0  0  0  0  0
  1  2  1  0  0  0  0
  2  3  2  0  0  0  0
  2  4  1  0  0  0  0
  3  5  1  0  0  0  0
  4  6  2  0  0  0  0
  5  7  2  0  0  0  0
  5  8  1  0  0  0  0
  7  9  1  0  0  0  0
  8 10  1  0  0  0  0
  8 11  2  0  0  0  0
  9 12  1  0  0  0  0
 10 13  1  0  0  0  0
 11 14  1  0  0  0  0
 12 15  2  0  0  0  0
 12 16  1  0  0  0  0
 15 17  1  0  0  0  0
 15 18  1  0  0  0  0
 16 19  2  0  0  0  0
 17 20  3  0  0  0  0
 18 21  2  0  0  0  0
 21 22  1  0  0  0  0
 22 23  2  0  0  0  0
 22 24  2  0  0  0  0
 22 25  1  0  0  0  0
 25 26  1  0  0  0  0
 26 27  1  0  0  0  0
 26 28  2  0  0  0  0
 27 29  1  0  0  0  0
 28 30  1  0  0  0  0
  6  7  1  0  0  0  0
 13 14  2  0  0  0  0
 19 21  1  0  0  0  0
 29 30  2  0  0  0  0
M  END
>  <MolRegNo>
1518914

>  <m>
=

>  <Value>
400

>  <Unit>
nM

>  <Type>
IC50

>  <pValue>
6.4

>  <Ligand Efficiency>
0

>  <Binding Efficiency>
0

>  <Surface Efficiency>
0

>  <Assay Index>
1107034

>  <Assay Category>


>  <Assay Organism>
Homo sapiens

>  <Target ID>
17045

>  <Target Name>
Cytochrome P450 3A4

>  <Target Organism>
Homo sapiens

>  <Target Description>
Target is a single protein chain

>  <Sequence Accession>
P08684

>  <Reference>
J Med Chem 60 (16), 7029-7042 (2017)

>  <Pubmed ID>
28682065

>  <DOI>
10.1021/acs.jmedchem.7b00598

$$$$
1519508
Actelion Java MolfileCreator 1.0

 30 33  0  0  0  0  0  0  0  0999 V2000
    0.0000   -0.0000   -0.0000 Cl  0  0  0  0  0  0  0  0  0  0  0  0
    1.4897    0.0118   -0.0000 C   0  0  0  0  0  0  0  0  0  0  0  0
    2.2346   -1.2769   -0.0000 C   0  0  0  0  0  0  0  0  0  0  0  0
    2.2346    1.3242   -0.0000 C   0  0  0  0  0  0  0  0  0  0  0  0
    3.7243   -1.2651   -0.0000 C   0  0  0  0  0  0  0  0  0  0  0  0
    3.7243    1.3360   -0.0000 C   0  0  0  0  0  0  0  0  0  0  0  0
    4.4691    0.0473   -0.0000 C   0  0  0  0  0  0  0  0  0  0  0  0
    4.4691   -2.5656   -0.0000 C   0  0  0  0  0  0  0  0  0  0  0  0
    5.9589    0.0591   -0.0000 O   0  0  0  0  0  0  0  0  0  0  0  0
    5.9589   -2.7075   -0.0000 C   0  0  0  0  0  0  0  0  0  0  0  0
    3.8425   -3.9253   -0.0000 C   0  0  0  0  0  0  0  0  0  0  0  0
    6.7037    1.3715   -0.0000 C   0  0  0  0  0  0  0  0  0  0  0  0
    6.2663   -4.1736   -0.0000 N   0  0  0  0  0  0  0  0  0  0  0  0
    4.9421   -4.9184   -0.0000 N   0  0  0  0  0  0  0  0  0  0  0  0
    8.1934    1.3833   -0.0000 C   0  0  0  0  0  0  0  0  0  0  0  0
    5.9352    2.6838   -0.0000 C   0  0  0  0  0  0  0  0  0  0  0  0
    8.9383    0.0946   -0.0000 C   0  0  0  0  0  0  0  0  0  0  0  0
    8.9383    2.6957   -0.0000 C   0  0  0  0  0  0  0  0  0  0  0  0
    6.6801    4.0080   -0.0000 C   0  0  0  0  0  0  0  0  0  0  0  0
    9.6713   -1.1941   -0.0000 N   0  0  0  0  0  0  0  0  0  0  0  0
    8.1698    4.0199   -0.0000 C   0  0  0  0  0  0  0  0  0  0  0  0
    8.9146    5.3322   -0.0000 S   0  0  0  0  0  0  0  0  0  0  0  0
    8.5127    6.7983   -0.0000 O   0  0  0  0  0  0  0  0  0  0  0  0
    7.5904    6.0889   -0.0000 O   0  0  0  0  0  0  0  0  0  0  0  0
   10.4044    5.1904   -0.0000 N   0  0  0  0  0  0  0  0  0  0  0  0
   11.0192    3.8425   -0.0000 C   0  0  0  0  0  0  0  0  0  0  0  0
   10.2625    2.5420   -0.0000 S   0  0  0  0  0  0  0  0  0  0  0  0
   12.4734    3.5588   -0.0000 N   0  0  0  0  0  0  0  0  0  0  0  0
   11.2674    1.4424   -0.0000 N   0  0  0  0  0  0  0  0  0  0  0  0
   12.6389    2.0690   -0.0000 C   0  0  0  0  0  0  0  0  0  0  0  0
  1  2  1  0  0  0  0
  2  3  2  0  0  0  0
  2  4  1  0  0  0  0
  3  5  1  0  0  0  0
  4  6  2  0  0  0  0
  5  7  2  0  0  0  0
  5  8  1  0  0  0  0
  7  9  1  0  0  0  0
  8 10  1  0  0  0  0
  8 11  2  0  0  0  0
  9 12  1  0  0  0  0
 10 13  2  0  0  0  0
 11 14  1  0  0  0  0
 12 15  2  0  0  0  0
 12 16  1  0  0  0  0
 15 17  1  0  0  0  0
 15 18  1  0  0  0  0
 16 19  2  0  0  0  0
 17 20  3  0  0  0  0
 18 21  2  0  0  0  0
 21 22  1  0  0  0  0
 22 23  2  0  0  0  0
 22 24  2  0  0  0  0
 22 25  1  0  0  0  0
 25 26  1  0  0  0  0
 26 27  1  0  0  0  0
 26 28  2  0  0  0  0
 27 29  1  0  0  0  0
 28 30  1  0  0  0  0
  6  7  1  0  0  0  0
 13 14  1  0  0  0  0
 19 21  1  0  0  0  0
 29 30  2  0  0  0  0
M  END
>  <MolRegNo>
1519508

>  <m>
=

>  <Value>
505

>  <Unit>
nM

>  <Type>
IC50

>  <pValue>
6.3

>  <Ligand Efficiency>
0

>  <Binding Efficiency>
0

>  <Surface Efficiency>
0

>  <Assay Index>
1107034

>  <Assay Category>


>  <Assay Organism>
Homo sapiens

>  <Target ID>
17045

>  <Target Name>
Cytochrome P450 3A4

>  <Target Organism>
Homo sapiens

>  <Target Description>
Target is a single protein chain

>  <Sequence Accession>
P08684

>  <Reference>
J Med Chem 60 (16), 7029-7042 (2017)

>  <Pubmed ID>
28682065

>  <DOI>
10.1021/acs.jmedchem.7b00598

$$$$
1519799
Actelion Java MolfileCreator 1.0

 34 37  0  0  0  0  0  0  0  0999 V2000
    0.0000   -0.0000   -0.0000 S   0  0  0  0  0  0  0  0  0  0  0  0
   -0.4027    1.4569   -0.0000 O   0  0  0  0  0  0  0  0  0  0  0  0
   -1.3148    0.7581   -0.0000 O   0  0  0  0  0  0  0  0  0  0  0  0
    1.4925   -0.0000   -0.0000 N   0  0  0  0  0  0  0  0  0  0  0  0
   -0.7699   -1.2911   -0.0000 C   0  0  0  0  0  0  0  0  0  0  0  0
    2.2150   -1.2911   -0.0000 C   0  0  0  0  0  0  0  0  0  0  0  0
   -0.0237   -2.5822   -0.0000 C   0  0  0  0  0  0  0  0  0  0  0  0
   -2.2742   -1.2793   -0.0000 C   0  0  0  0  0  0  0  0  0  0  0  0
    1.5872   -2.6414   -0.0000 S   0  0  0  0  0  0  0  0  0  0  0  0
    3.6956   -1.4451   -0.0000 N   0  0  0  0  0  0  0  0  0  0  0  0
   -0.7936   -3.8733   -0.0000 C   0  0  0  0  0  0  0  0  0  0  0  0
   -3.0442   -2.5704   -0.0000 C   0  0  0  0  0  0  0  0  0  0  0  0
    2.6888   -3.6364   -0.0000 N   0  0  0  0  0  0  0  0  0  0  0  0
    3.9918   -2.9020   -0.0000 C   0  0  0  0  0  0  0  0  0  0  0  0
   -0.0474   -5.1644   -0.0000 C   0  0  0  0  0  0  0  0  0  0  0  0
   -2.2979   -3.8615   -0.0000 C   0  0  0  0  0  0  0  0  0  0  0  0
    0.6870   -6.4555   -0.0000 N   0  0  0  0  0  0  0  0  0  0  0  0
   -3.0679   -5.1526   -0.0000 O   0  0  0  0  0  0  0  0  0  0  0  0
   -4.5722   -5.1407   -0.0000 C   0  0  0  0  0  0  0  0  0  0  0  0
   -5.3421   -6.4318   -0.0000 C   0  0  0  0  0  0  0  0  0  0  0  0
   -5.3421   -3.8259   -0.0000 C   0  0  0  0  0  0  0  0  0  0  0  0
   -4.5959   -7.7229   -0.0000 C   0  0  0  0  0  0  0  0  0  0  0  0
   -6.8464   -6.4200   -0.0000 C   0  0  0  0  0  0  0  0  0  0  0  0
   -6.8464   -3.8141   -0.0000 C   0  0  0  0  0  0  0  0  0  0  0  0
   -3.1152   -7.8651   -0.0000 C   0  0  0  0  0  0  0  0  0  0  0  0
   -5.2236   -9.0851   -0.0000 C   0  0  0  0  0  0  0  0  0  0  0  0
   -7.6163   -5.1052   -0.0000 C   0  0  0  0  0  0  0  0  0  0  0  0
   -2.8191   -9.3220   -0.0000 N   0  0  0  0  0  0  0  0  0  0  0  0
   -2.1203   -6.7398   -0.0000 C   0  0  0  0  0  0  0  0  0  0  0  0
   -4.1221  -10.0801   -0.0000 N   0  0  0  0  0  0  0  0  0  0  0  0
   -9.1206   -5.0933   -0.0000 C   0  0  0  0  0  0  0  0  0  0  0  0
   -9.8906   -3.7785   -0.0000 F   0  0  0  0  0  0  0  0  0  0  0  0
  -10.6368   -5.0815   -0.0000 F   0  0  0  0  0  0  0  0  0  0  0  0
   -9.8906   -6.3844   -0.0000 F   0  0  0  0  0  0  0  0  0  0  0  0
  1  2  2  0  0  0  0
  1  3  2  0  0  0  0
  1  4  1  0  0  0  0
  1  5  1  0  0  0  0
  4  6  1  0  0  0  0
  5  7  2  0  0  0  0
  5  8  1  0  0  0  0
  6  9  1  0  0  0  0
  6 10  2  0  0  0  0
  7 11  1  0  0  0  0
  8 12  2  0  0  0  0
  9 13  1  0  0  0  0
 10 14  1  0  0  0  0
 11 15  1  0  0  0  0
 11 16  2  0  0  0  0
 15 17  3  0  0  0  0
 16 18  1  0  0  0  0
 18 19  1  0  0  0  0
 19 20  2  0  0  0  0
 19 21  1  0  0  0  0
 20 22  1  0  0  0  0
 20 23  1  0  0  0  0
 21 24  2  0  0  0  0
 22 25  2  0  0  0  0
 22 26  1  0  0  0  0
 23 27  2  0  0  0  0
 25 28  1  0  0  0  0
 25 29  1  0  0  0  0
 26 30  2  0  0  0  0
 27 31  1  0  0  0  0
 31 32  1  0  0  0  0
 31 33  1  0  0  0  0
 31 34  1  0  0  0  0
 12 16  1  0  0  0  0
 13 14  2  0  0  0  0
 24 27  1  0  0  0  0
 28 30  1  0  0  0  0
M  END
>  <MolRegNo>
1519799

>  <m>
=

>  <Value>
737

>  <Unit>
nM

>  <Type>
IC50

>  <pValue>
6.13

>  <Ligand Efficiency>
0

>  <Binding Efficiency>
0

>  <Surface Efficiency>
0

>  <Assay Index>
1107034

>  <Assay Category>


>  <Assay Organism>
Homo sapiens

>  <Target ID>
17045

>  <Target Name>
Cytochrome P450 3A4

>  <Target Organism>
Homo sapiens

>  <Target Description>
Target is a single protein chain

>  <Sequence Accession>
P08684

>  <Reference>
J Med Chem 60 (16), 7029-7042 (2017)

>  <Pubmed ID>
28682065

>  <DOI>
10.1021/acs.jmedchem.7b00598

$$$$
1519213
Actelion Java MolfileCreator 1.0

 31 34  0  0  0  0  0  0  0  0999 V2000
    0.0000   -0.0000   -0.0000 Cl  0  0  0  0  0  0  0  0  0  0  0  0
    1.4919    0.0118   -0.0000 C   0  0  0  0  0  0  0  0  0  0  0  0
    2.2259   -1.2787   -0.0000 C   0  0  0  0  0  0  0  0  0  0  0  0
    2.2259    1.3261   -0.0000 C   0  0  0  0  0  0  0  0  0  0  0  0
    3.7178   -1.2669   -0.0000 C   0  0  0  0  0  0  0  0  0  0  0  0
    3.7178    1.3379   -0.0000 C   0  0  0  0  0  0  0  0  0  0  0  0
    4.4637    0.0474   -0.0000 C   0  0  0  0  0  0  0  0  0  0  0  0
    4.4637   -2.5575   -0.0000 C   0  0  0  0  0  0  0  0  0  0  0  0
    5.9556    0.0592   -0.0000 O   0  0  0  0  0  0  0  0  0  0  0  0
    5.9437   -2.6995   -0.0000 C   0  0  0  0  0  0  0  0  0  0  0  0
    3.8362   -3.9191   -0.0000 C   0  0  0  0  0  0  0  0  0  0  0  0
    6.7015    1.3735   -0.0000 C   0  0  0  0  0  0  0  0  0  0  0  0
    6.2397   -4.1559   -0.0000 N   0  0  0  0  0  0  0  0  0  0  0  0
    6.9383   -1.5747   -0.0000 N   0  0  0  0  0  0  0  0  0  0  0  0
    4.9373   -4.9136   -0.0000 N   0  0  0  0  0  0  0  0  0  0  0  0
    8.1933    1.3853   -0.0000 C   0  0  0  0  0  0  0  0  0  0  0  0
    5.9437    2.6877   -0.0000 C   0  0  0  0  0  0  0  0  0  0  0  0
    8.9393    0.0947   -0.0000 C   0  0  0  0  0  0  0  0  0  0  0  0
    8.9393    2.6995   -0.0000 C   0  0  0  0  0  0  0  0  0  0  0  0
    6.6897    4.0020   -0.0000 C   0  0  0  0  0  0  0  0  0  0  0  0
    9.6734   -1.1959   -0.0000 N   0  0  0  0  0  0  0  0  0  0  0  0
    8.1815    4.0138   -0.0000 C   0  0  0  0  0  0  0  0  0  0  0  0
    8.9274    5.3280   -0.0000 S   0  0  0  0  0  0  0  0  0  0  0  0
   10.2180    4.5821   -0.0000 O   0  0  0  0  0  0  0  0  0  0  0  0
   10.3719    5.7306   -0.0000 O   0  0  0  0  0  0  0  0  0  0  0  0
    8.0986    6.6068   -0.0000 N   0  0  0  0  0  0  0  0  0  0  0  0
    8.7735    7.9565   -0.0000 C   0  0  0  0  0  0  0  0  0  0  0  0
   10.2535    8.1933   -0.0000 S   0  0  0  0  0  0  0  0  0  0  0  0
    8.0868    9.3063   -0.0000 N   0  0  0  0  0  0  0  0  0  0  0  0
   10.4785    9.6852   -0.0000 N   0  0  0  0  0  0  0  0  0  0  0  0
    9.1406   10.3719   -0.0000 C   0  0  0  0  0  0  0  0  0  0  0  0
  1  2  1  0  0  0  0
  2  3  2  0  0  0  0
  2  4  1  0  0  0  0
  3  5  1  0  0  0  0
  4  6  2  0  0  0  0
  5  7  2  0  0  0  0
  5  8  1  0  0  0  0
  7  9  1  0  0  0  0
  8 10  2  0  0  0  0
  8 11  1  0  0  0  0
  9 12  1  0  0  0  0
 10 13  1  0  0  0  0
 10 14  1  0  0  0  0
 11 15  2  0  0  0  0
 12 16  2  0  0  0  0
 12 17  1  0  0  0  0
 16 18  1  0  0  0  0
 16 19  1  0  0  0  0
 17 20  2  0  0  0  0
 18 21  3  0  0  0  0
 19 22  2  0  0  0  0
 22 23  1  0  0  0  0
 23 24  2  0  0  0  0
 23 25  2  0  0  0  0
 23 26  1  0  0  0  0
 26 27  1  0  0  0  0
 27 28  1  0  0  0  0
 27 29  2  0  0  0  0
 28 30  1  0  0  0  0
 29 31  1  0  0  0  0
  6  7  1  0  0  0  0
 13 15  1  0  0  0  0
 20 22  1  0  0  0  0
 30 31  2  0  0  0  0
M  END
>  <MolRegNo>
1519213

>  <m>
=

>  <Value>
827

>  <Unit>
nM

>  <Type>
IC50

>  <pValue>
6.08

>  <Ligand Efficiency>
0

>  <Binding Efficiency>
0

>  <Surface Efficiency>
0

>  <Assay Index>
1107034

>  <Assay Category>


>  <Assay Organism>
Homo sapiens

>  <Target ID>
17045

>  <Target Name>
Cytochrome P450 3A4

>  <Target Organism>
Homo sapiens

>  <Target Description>
Target is a single protein chain

>  <Sequence Accession>
P08684

>  <Reference>
J Med Chem 60 (16), 7029-7042 (2017)

>  <Pubmed ID>
28682065

>  <DOI>
10.1021/acs.jmedchem.7b00598

$$$$
1519187
Actelion Java MolfileCreator 1.0

 32 35  0  0  0  0  0  0  0  0999 V2000
    0.0000   -0.0000   -0.0000 Cl  0  0  0  0  0  0  0  0  0  0  0  0
   -1.3118   -0.7327   -0.0000 C   0  0  0  0  0  0  0  0  0  0  0  0
   -2.6236    0.0236   -0.0000 C   0  0  0  0  0  0  0  0  0  0  0  0
   -1.3236   -2.2218   -0.0000 C   0  0  0  0  0  0  0  0  0  0  0  0
   -3.9354   -0.7091   -0.0000 C   0  0  0  0  0  0  0  0  0  0  0  0
   -2.6354   -2.9664   -0.0000 C   0  0  0  0  0  0  0  0  0  0  0  0
   -3.9473   -2.1982   -0.0000 C   0  0  0  0  0  0  0  0  0  0  0  0
   -5.2473    0.0473   -0.0000 C   0  0  0  0  0  0  0  0  0  0  0  0
   -5.2591   -2.9427   -0.0000 O   0  0  0  0  0  0  0  0  0  0  0  0
   -5.2591    1.5600   -0.0000 C   0  0  0  0  0  0  0  0  0  0  0  0
   -6.5591   -0.6855   -0.0000 C   0  0  0  0  0  0  0  0  0  0  0  0
   -5.2709   -4.4318   -0.0000 C   0  0  0  0  0  0  0  0  0  0  0  0
   -6.5709    2.3164   -0.0000 C   0  0  0  0  0  0  0  0  0  0  0  0
   -7.8709    0.0709   -0.0000 C   0  0  0  0  0  0  0  0  0  0  0  0
   -6.5827   -5.1645   -0.0000 C   0  0  0  0  0  0  0  0  0  0  0  0
   -3.9827   -5.1645   -0.0000 C   0  0  0  0  0  0  0  0  0  0  0  0
   -7.8827    1.5836   -0.0000 N   0  0  0  0  0  0  0  0  0  0  0  0
   -6.5827    3.8291   -0.0000 N   0  0  0  0  0  0  0  0  0  0  0  0
   -7.8945   -4.4082   -0.0000 C   0  0  0  0  0  0  0  0  0  0  0  0
   -6.5945   -6.6536   -0.0000 C   0  0  0  0  0  0  0  0  0  0  0  0
   -3.9945   -6.6536   -0.0000 C   0  0  0  0  0  0  0  0  0  0  0  0
   -9.2063   -3.6518   -0.0000 N   0  0  0  0  0  0  0  0  0  0  0  0
   -5.3063   -7.3863   -0.0000 C   0  0  0  0  0  0  0  0  0  0  0  0
   -5.3182   -8.8754   -0.0000 S   0  0  0  0  0  0  0  0  0  0  0  0
   -6.8309   -8.8636   -0.0000 O   0  0  0  0  0  0  0  0  0  0  0  0
   -6.0745  -10.1636   -0.0000 O   0  0  0  0  0  0  0  0  0  0  0  0
   -4.0063   -9.5609   -0.0000 N   0  0  0  0  0  0  0  0  0  0  0  0
   -3.9591  -11.0500   -0.0000 C   0  0  0  0  0  0  0  0  0  0  0  0
   -5.1527  -11.9600   -0.0000 S   0  0  0  0  0  0  0  0  0  0  0  0
   -2.7300  -11.8772   -0.0000 N   0  0  0  0  0  0  0  0  0  0  0  0
   -4.6445  -13.3545   -0.0000 N   0  0  0  0  0  0  0  0  0  0  0  0
   -3.1554  -13.3072   -0.0000 C   0  0  0  0  0  0  0  0  0  0  0  0
  1  2  1  0  0  0  0
  2  3  2  0  0  0  0
  2  4  1  0  0  0  0
  3  5  1  0  0  0  0
  4  6  2  0  0  0  0
  5  7  2  0  0  0  0
  5  8  1  0  0  0  0
  7  9  1  0  0  0  0
  8 10  2  0  0  0  0
  8 11  1  0  0  0  0
  9 12  1  0  0  0  0
 10 13  1  0  0  0  0
 11 14  2  0  0  0  0
 12 15  2  0  0  0  0
 12 16  1  0  0  0  0
 13 17  2  0  0  0  0
 13 18  1  0  0  0  0
 15 19  1  0  0  0  0
 15 20  1  0  0  0  0
 16 21  2  0  0  0  0
 19 22  3  0  0  0  0
 20 23  2  0  0  0  0
 23 24  1  0  0  0  0
 24 25  2  0  0  0  0
 24 26  2  0  0  0  0
 24 27  1  0  0  0  0
 27 28  1  0  0  0  0
 28 29  1  0  0  0  0
 28 30  2  0  0  0  0
 29 31  1  0  0  0  0
 30 32  1  0  0  0  0
  6  7  1  0  0  0  0
 14 17  1  0  0  0  0
 21 23  1  0  0  0  0
 31 32  2  0  0  0  0
M  END
>  <MolRegNo>
1519187

>  <m>
=

>  <Value>
205

>  <Unit>
nM

>  <Type>
IC50

>  <pValue>
6.69

>  <Ligand Efficiency>
0

>  <Binding Efficiency>
0

>  <Surface Efficiency>
0

>  <Assay Index>
1107034

>  <Assay Category>


>  <Assay Organism>
Homo sapiens

>  <Target ID>
17045

>  <Target Name>
Cytochrome P450 3A4

>  <Target Organism>
Homo sapiens

>  <Target Description>
Target is a single protein chain

>  <Sequence Accession>
P08684

>  <Reference>
J Med Chem 60 (16), 7029-7042 (2017)

>  <Pubmed ID>
28682065

>  <DOI>
10.1021/acs.jmedchem.7b00598

$$$$
1517229
Actelion Java MolfileCreator 1.0

 34 37  0  0  0  0  0  0  0  0999 V2000
    0.0000   -0.0000   -0.0000 S   0  0  0  0  0  0  0  0  0  0  0  0
   -0.7544   -1.2849   -0.0000 O   0  0  0  0  0  0  0  0  0  0  0  0
    0.7191   -1.2731   -0.0000 O   0  0  0  0  0  0  0  0  0  0  0  0
    1.2849    0.7662   -0.0000 N   0  0  0  0  0  0  0  0  0  0  0  0
   -1.3085    0.7544   -0.0000 C   0  0  0  0  0  0  0  0  0  0  0  0
    1.2613    2.2751   -0.0000 C   0  0  0  0  0  0  0  0  0  0  0  0
   -1.3203    2.2633   -0.0000 C   0  0  0  0  0  0  0  0  0  0  0  0
   -2.6169    0.0236   -0.0000 C   0  0  0  0  0  0  0  0  0  0  0  0
    0.0354    3.1592   -0.0000 S   0  0  0  0  0  0  0  0  0  0  0  0
    2.4519    3.1710   -0.0000 N   0  0  0  0  0  0  0  0  0  0  0  0
   -2.6287    3.0177   -0.0000 C   0  0  0  0  0  0  0  0  0  0  0  0
   -3.9254    0.7780   -0.0000 C   0  0  0  0  0  0  0  0  0  0  0  0
    0.4833    4.5973   -0.0000 N   0  0  0  0  0  0  0  0  0  0  0  0
    1.9686    4.5973   -0.0000 C   0  0  0  0  0  0  0  0  0  0  0  0
   -2.6405    4.5266   -0.0000 C   0  0  0  0  0  0  0  0  0  0  0  0
   -3.9372    2.2869   -0.0000 C   0  0  0  0  0  0  0  0  0  0  0  0
   -2.6523    6.0237   -0.0000 N   0  0  0  0  0  0  0  0  0  0  0  0
   -5.2457    3.0413   -0.0000 O   0  0  0  0  0  0  0  0  0  0  0  0
   -6.5541    2.3105   -0.0000 C   0  0  0  0  0  0  0  0  0  0  0  0
   -7.8626    3.0649   -0.0000 C   0  0  0  0  0  0  0  0  0  0  0  0
   -6.5659    0.8252   -0.0000 C   0  0  0  0  0  0  0  0  0  0  0  0
   -7.8744    4.5738   -0.0000 C   0  0  0  0  0  0  0  0  0  0  0  0
   -9.1711    2.3340   -0.0000 C   0  0  0  0  0  0  0  0  0  0  0  0
   -7.8744    0.0943   -0.0000 C   0  0  0  0  0  0  0  0  0  0  0  0
   -9.1829    5.3282   -0.0000 N   0  0  0  0  0  0  0  0  0  0  0  0
   -6.5895    5.3282   -0.0000 C   0  0  0  0  0  0  0  0  0  0  0  0
   -9.1829    0.8487   -0.0000 C   0  0  0  0  0  0  0  0  0  0  0  0
   -9.1947    6.8371   -0.0000 C   0  0  0  0  0  0  0  0  0  0  0  0
   -6.6013    6.8371   -0.0000 C   0  0  0  0  0  0  0  0  0  0  0  0
  -10.4914    0.1179   -0.0000 C   0  0  0  0  0  0  0  0  0  0  0  0
   -7.9098    7.5915   -0.0000 N   0  0  0  0  0  0  0  0  0  0  0  0
  -11.7880    0.8723   -0.0000 F   0  0  0  0  0  0  0  0  0  0  0  0
  -10.5031   -1.3556   -0.0000 F   0  0  0  0  0  0  0  0  0  0  0  0
  -11.7998   -0.6012   -0.0000 F   0  0  0  0  0  0  0  0  0  0  0  0
  1  2  2  0  0  0  0
  1  3  2  0  0  0  0
  1  4  1  0  0  0  0
  1  5  1  0  0  0  0
  4  6  1  0  0  0  0
  5  7  2  0  0  0  0
  5  8  1  0  0  0  0
  6  9  1  0  0  0  0
  6 10  2  0  0  0  0
  7 11  1  0  0  0  0
  8 12  2  0  0  0  0
  9 13  1  0  0  0  0
 10 14  1  0  0  0  0
 11 15  1  0  0  0  0
 11 16  2  0  0  0  0
 15 17  3  0  0  0  0
 16 18  1  0  0  0  0
 18 19  1  0  0  0  0
 19 20  2  0  0  0  0
 19 21  1  0  0  0  0
 20 22  1  0  0  0  0
 20 23  1  0  0  0  0
 21 24  2  0  0  0  0
 22 25  2  0  0  0  0
 22 26  1  0  0  0  0
 23 27  2  0  0  0  0
 25 28  1  0  0  0  0
 26 29  2  0  0  0  0
 27 30  1  0  0  0  0
 28 31  2  0  0  0  0
 30 32  1  0  0  0  0
 30 33  1  0  0  0  0
 30 34  1  0  0  0  0
 12 16  1  0  0  0  0
 13 14  2  0  0  0  0
 24 27  1  0  0  0  0
 29 31  1  0  0  0  0
M  END
>  <MolRegNo>
1517229

>  <m>
=

>  <Value>
910

>  <Unit>
nM

>  <Type>
IC50

>  <pValue>
6.04

>  <Ligand Efficiency>
0

>  <Binding Efficiency>
0

>  <Surface Efficiency>
0

>  <Assay Index>
1107034

>  <Assay Category>


>  <Assay Organism>
Homo sapiens

>  <Target ID>
17045

>  <Target Name>
Cytochrome P450 3A4

>  <Target Organism>
Homo sapiens

>  <Target Description>
Target is a single protein chain

>  <Sequence Accession>
P08684

>  <Reference>
J Med Chem 60 (16), 7029-7042 (2017)

>  <Pubmed ID>
28682065

>  <DOI>
10.1021/acs.jmedchem.7b00598

$$$$
1517228
Actelion Java MolfileCreator 1.0

 34 37  0  0  0  0  0  0  0  0999 V2000
    0.0000   -0.0000   -0.0000 S   0  0  0  0  0  0  0  0  0  0  0  0
   -0.7542   -1.2845   -0.0000 O   0  0  0  0  0  0  0  0  0  0  0  0
    0.7188   -1.2727   -0.0000 O   0  0  0  0  0  0  0  0  0  0  0  0
    1.2963    0.7306   -0.0000 N   0  0  0  0  0  0  0  0  0  0  0  0
   -1.3081    0.7542   -0.0000 C   0  0  0  0  0  0  0  0  0  0  0  0
    1.3199    2.2390   -0.0000 C   0  0  0  0  0  0  0  0  0  0  0  0
   -1.3199    2.2626   -0.0000 C   0  0  0  0  0  0  0  0  0  0  0  0
   -2.6161    0.0236   -0.0000 C   0  0  0  0  0  0  0  0  0  0  0  0
    0.1178    3.1582   -0.0000 S   0  0  0  0  0  0  0  0  0  0  0  0
    2.5336    3.1111   -0.0000 N   0  0  0  0  0  0  0  0  0  0  0  0
   -2.6279    3.0168   -0.0000 C   0  0  0  0  0  0  0  0  0  0  0  0
   -3.9124    0.7778   -0.0000 C   0  0  0  0  0  0  0  0  0  0  0  0
    0.6010    4.5724   -0.0000 N   0  0  0  0  0  0  0  0  0  0  0  0
    2.0976    4.5606   -0.0000 C   0  0  0  0  0  0  0  0  0  0  0  0
   -2.6397    4.5252   -0.0000 C   0  0  0  0  0  0  0  0  0  0  0  0
   -3.9242    2.2862   -0.0000 C   0  0  0  0  0  0  0  0  0  0  0  0
   -2.6515    6.0336   -0.0000 N   0  0  0  0  0  0  0  0  0  0  0  0
   -5.2323    3.0404   -0.0000 O   0  0  0  0  0  0  0  0  0  0  0  0
   -6.5286    2.3097   -0.0000 C   0  0  0  0  0  0  0  0  0  0  0  0
   -7.8366    3.0639   -0.0000 C   0  0  0  0  0  0  0  0  0  0  0  0
   -6.5403    0.8249   -0.0000 C   0  0  0  0  0  0  0  0  0  0  0  0
   -7.8484    4.5724   -0.0000 C   0  0  0  0  0  0  0  0  0  0  0  0
   -9.1447    2.3333   -0.0000 C   0  0  0  0  0  0  0  0  0  0  0  0
   -7.8484    0.0943   -0.0000 C   0  0  0  0  0  0  0  0  0  0  0  0
   -6.5639    5.3266   -0.0000 N   0  0  0  0  0  0  0  0  0  0  0  0
   -9.1565    5.3266   -0.0000 C   0  0  0  0  0  0  0  0  0  0  0  0
   -9.1565    0.8485   -0.0000 C   0  0  0  0  0  0  0  0  0  0  0  0
   -6.5757    6.8350   -0.0000 N   0  0  0  0  0  0  0  0  0  0  0  0
   -9.1683    6.8350   -0.0000 C   0  0  0  0  0  0  0  0  0  0  0  0
  -10.4646    0.1178   -0.0000 C   0  0  0  0  0  0  0  0  0  0  0  0
   -7.8838    7.5892   -0.0000 C   0  0  0  0  0  0  0  0  0  0  0  0
  -11.7726    0.8838   -0.0000 F   0  0  0  0  0  0  0  0  0  0  0  0
  -10.4763   -1.3670   -0.0000 F   0  0  0  0  0  0  0  0  0  0  0  0
  -11.7726   -0.6010   -0.0000 F   0  0  0  0  0  0  0  0  0  0  0  0
  1  2  2  0  0  0  0
  1  3  2  0  0  0  0
  1  4  1  0  0  0  0
  1  5  1  0  0  0  0
  4  6  1  0  0  0  0
  5  7  2  0  0  0  0
  5  8  1  0  0  0  0
  6  9  1  0  0  0  0
  6 10  2  0  0  0  0
  7 11  1  0  0  0  0
  8 12  2  0  0  0  0
  9 13  1  0  0  0  0
 10 14  1  0  0  0  0
 11 15  1  0  0  0  0
 11 16  2  0  0  0  0
 15 17  3  0  0  0  0
 16 18  1  0  0  0  0
 18 19  1  0  0  0  0
 19 20  2  0  0  0  0
 19 21  1  0  0  0  0
 20 22  1  0  0  0  0
 20 23  1  0  0  0  0
 21 24  2  0  0  0  0
 22 25  2  0  0  0  0
 22 26  1  0  0  0  0
 23 27  2  0  0  0  0
 25 28  1  0  0  0  0
 26 29  2  0  0  0  0
 27 30  1  0  0  0  0
 28 31  2  0  0  0  0
 30 32  1  0  0  0  0
 30 33  1  0  0  0  0
 30 34  1  0  0  0  0
 12 16  1  0  0  0  0
 13 14  2  0  0  0  0
 24 27  1  0  0  0  0
 29 31  1  0  0  0  0
M  END
>  <MolRegNo>
1517228

>  <m>
=

>  <Value>
616

>  <Unit>
nM

>  <Type>
IC50

>  <pValue>
6.21

>  <Ligand Efficiency>
0

>  <Binding Efficiency>
0

>  <Surface Efficiency>
0

>  <Assay Index>
1107034

>  <Assay Category>


>  <Assay Organism>
Homo sapiens

>  <Target ID>
17045

>  <Target Name>
Cytochrome P450 3A4

>  <Target Organism>
Homo sapiens

>  <Target Description>
Target is a single protein chain

>  <Sequence Accession>
P08684

>  <Reference>
J Med Chem 60 (16), 7029-7042 (2017)

>  <Pubmed ID>
28682065

>  <DOI>
10.1021/acs.jmedchem.7b00598

$$$$
1519195
Actelion Java MolfileCreator 1.0

 34 37  0  0  0  0  0  0  0  0999 V2000
    0.0000   -0.0000   -0.0000 S   0  0  0  0  0  0  0  0  0  0  0  0
    1.4369    0.3887   -0.0000 O   0  0  0  0  0  0  0  0  0  0  0  0
    0.7420    1.3074   -0.0000 O   0  0  0  0  0  0  0  0  0  0  0  0
    0.0118   -1.4840   -0.0000 N   0  0  0  0  0  0  0  0  0  0  0  0
   -1.2956    0.7656   -0.0000 C   0  0  0  0  0  0  0  0  0  0  0  0
    1.3074   -2.1907   -0.0000 C   0  0  0  0  0  0  0  0  0  0  0  0
   -1.3074    2.2732   -0.0000 C   0  0  0  0  0  0  0  0  0  0  0  0
   -2.6030    0.0236   -0.0000 C   0  0  0  0  0  0  0  0  0  0  0  0
    2.6501   -1.5429   -0.0000 S   0  0  0  0  0  0  0  0  0  0  0  0
    1.4840   -3.6630   -0.0000 N   0  0  0  0  0  0  0  0  0  0  0  0
   -2.6147    3.0387   -0.0000 C   0  0  0  0  0  0  0  0  0  0  0  0
   -3.9103    0.7891   -0.0000 C   0  0  0  0  0  0  0  0  0  0  0  0
    3.6630   -2.6265   -0.0000 N   0  0  0  0  0  0  0  0  0  0  0  0
    2.9445   -3.9339   -0.0000 C   0  0  0  0  0  0  0  0  0  0  0  0
   -2.6265    4.5463   -0.0000 C   0  0  0  0  0  0  0  0  0  0  0  0
   -3.9221    2.2967   -0.0000 C   0  0  0  0  0  0  0  0  0  0  0  0
   -2.6383    6.0539   -0.0000 N   0  0  0  0  0  0  0  0  0  0  0  0
   -5.2295    3.0623   -0.0000 O   0  0  0  0  0  0  0  0  0  0  0  0
   -6.5368    2.3203   -0.0000 C   0  0  0  0  0  0  0  0  0  0  0  0
   -7.8442    3.0859   -0.0000 C   0  0  0  0  0  0  0  0  0  0  0  0
   -6.5486    0.8362   -0.0000 C   0  0  0  0  0  0  0  0  0  0  0  0
   -7.8560    4.5934   -0.0000 C   0  0  0  0  0  0  0  0  0  0  0  0
   -9.1516    2.3438   -0.0000 C   0  0  0  0  0  0  0  0  0  0  0  0
   -7.8560    0.0942   -0.0000 C   0  0  0  0  0  0  0  0  0  0  0  0
   -9.1633    5.3472   -0.0000 C   0  0  0  0  0  0  0  0  0  0  0  0
   -6.5722    5.3472   -0.0000 C   0  0  0  0  0  0  0  0  0  0  0  0
   -9.1633    0.8598   -0.0000 C   0  0  0  0  0  0  0  0  0  0  0  0
   -9.1751    6.8548   -0.0000 N   0  0  0  0  0  0  0  0  0  0  0  0
   -6.5839    6.8548   -0.0000 C   0  0  0  0  0  0  0  0  0  0  0  0
  -10.4707    0.1178   -0.0000 C   0  0  0  0  0  0  0  0  0  0  0  0
   -7.8913    7.6086   -0.0000 N   0  0  0  0  0  0  0  0  0  0  0  0
  -11.7781   -0.6125   -0.0000 F   0  0  0  0  0  0  0  0  0  0  0  0
  -11.5425    1.1896   -0.0000 F   0  0  0  0  0  0  0  0  0  0  0  0
  -10.4825   -1.3663   -0.0000 F   0  0  0  0  0  0  0  0  0  0  0  0
  1  2  2  0  0  0  0
  1  3  2  0  0  0  0
  1  4  1  0  0  0  0
  1  5  1  0  0  0  0
  4  6  1  0  0  0  0
  5  7  2  0  0  0  0
  5  8  1  0  0  0  0
  6  9  1  0  0  0  0
  6 10  2  0  0  0  0
  7 11  1  0  0  0  0
  8 12  2  0  0  0  0
  9 13  1  0  0  0  0
 10 14  1  0  0  0  0
 11 15  1  0  0  0  0
 11 16  2  0  0  0  0
 15 17  3  0  0  0  0
 16 18  1  0  0  0  0
 18 19  1  0  0  0  0
 19 20  2  0  0  0  0
 19 21  1  0  0  0  0
 20 22  1  0  0  0  0
 20 23  1  0  0  0  0
 21 24  2  0  0  0  0
 22 25  2  0  0  0  0
 22 26  1  0  0  0  0
 23 27  2  0  0  0  0
 25 28  1  0  0  0  0
 26 29  2  0  0  0  0
 27 30  1  0  0  0  0
 28 31  2  0  0  0  0
 30 32  1  0  0  0  0
 30 33  1  0  0  0  0
 30 34  1  0  0  0  0
 12 16  1  0  0  0  0
 13 14  2  0  0  0  0
 24 27  1  0  0  0  0
 29 31  1  0  0  0  0
M  END
>  <MolRegNo>
1519195

>  <m>
=

>  <Value>
1271

>  <Unit>
nM

>  <Type>
IC50

>  <pValue>
5.9

>  <Ligand Efficiency>
0

>  <Binding Efficiency>
0

>  <Surface Efficiency>
0

>  <Assay Index>
1107034

>  <Assay Category>


>  <Assay Organism>
Homo sapiens

>  <Target ID>
17045

>  <Target Name>
Cytochrome P450 3A4

>  <Target Organism>
Homo sapiens

>  <Target Description>
Target is a single protein chain

>  <Sequence Accession>
P08684

>  <Reference>
J Med Chem 60 (16), 7029-7042 (2017)

>  <Pubmed ID>
28682065

>  <DOI>
10.1021/acs.jmedchem.7b00598

$$$$
1519803
Actelion Java MolfileCreator 1.0

 35 39  0  0  0  0  0  0  0  0999 V2000
    0.0000   -0.0000   -0.0000 Cl  0  0  0  0  0  0  0  0  0  0  0  0
    1.2876    0.7560   -0.0000 C   0  0  0  0  0  0  0  0  0  0  0  0
    1.2758    2.2680   -0.0000 C   0  0  0  0  0  0  0  0  0  0  0  0
    2.5752    0.0236   -0.0000 C   0  0  0  0  0  0  0  0  0  0  0  0
    2.5634    3.0241   -0.0000 C   0  0  0  0  0  0  0  0  0  0  0  0
    3.8628    0.7796   -0.0000 C   0  0  0  0  0  0  0  0  0  0  0  0
    3.8509    2.2917   -0.0000 C   0  0  0  0  0  0  0  0  0  0  0  0
    2.5515    4.5361   -0.0000 C   0  0  0  0  0  0  0  0  0  0  0  0
    5.1385    3.0477   -0.0000 O   0  0  0  0  0  0  0  0  0  0  0  0
    1.3230    5.4220   -0.0000 N   0  0  0  0  0  0  0  0  0  0  0  0
    3.7564    5.4220   -0.0000 C   0  0  0  0  0  0  0  0  0  0  0  0
    6.4261    2.3153   -0.0000 C   0  0  0  0  0  0  0  0  0  0  0  0
    1.7719    6.8632   -0.0000 N   0  0  0  0  0  0  0  0  0  0  0  0
   -0.1181    4.9732   -0.0000 C   0  0  0  0  0  0  0  0  0  0  0  0
    3.2839    6.8632   -0.0000 C   0  0  0  0  0  0  0  0  0  0  0  0
    7.7137    3.0713   -0.0000 C   0  0  0  0  0  0  0  0  0  0  0  0
    6.4143    0.8269   -0.0000 C   0  0  0  0  0  0  0  0  0  0  0  0
   -1.4648    5.6701   -0.0000 C   0  0  0  0  0  0  0  0  0  0  0  0
   -0.8151    3.6501   -0.0000 C   0  0  0  0  0  0  0  0  0  0  0  0
    7.7019    4.5833   -0.0000 F   0  0  0  0  0  0  0  0  0  0  0  0
    9.0013    2.3389   -0.0000 C   0  0  0  0  0  0  0  0  0  0  0  0
    7.7019    0.0945   -0.0000 C   0  0  0  0  0  0  0  0  0  0  0  0
   -2.1617    4.3471   -0.0000 N   0  0  0  0  0  0  0  0  0  0  0  0
    8.9895    0.8505   -0.0000 C   0  0  0  0  0  0  0  0  0  0  0  0
    7.6901   -1.3939   -0.0000 F   0  0  0  0  0  0  0  0  0  0  0  0
   -3.6029    3.8982   -0.0000 C   0  0  0  0  0  0  0  0  0  0  0  0
   10.2771    0.1181   -0.0000 S   0  0  0  0  0  0  0  0  0  0  0  0
    9.5211   -1.1695   -0.0000 O   0  0  0  0  0  0  0  0  0  0  0  0
   10.6551   -1.3230   -0.0000 O   0  0  0  0  0  0  0  0  0  0  0  0
   11.5647    0.8978   -0.0000 N   0  0  0  0  0  0  0  0  0  0  0  0
   11.5292    2.4098   -0.0000 C   0  0  0  0  0  0  0  0  0  0  0  0
   10.2889    3.2839   -0.0000 S   0  0  0  0  0  0  0  0  0  0  0  0
   12.7223    3.3194   -0.0000 N   0  0  0  0  0  0  0  0  0  0  0  0
   10.7260    4.7251   -0.0000 N   0  0  0  0  0  0  0  0  0  0  0  0
   12.2262    4.7605   -0.0000 C   0  0  0  0  0  0  0  0  0  0  0  0
  1  2  1  0  0  0  0
  2  3  2  0  0  0  0
  2  4  1  0  0  0  0
  3  5  1  0  0  0  0
  4  6  2  0  0  0  0
  5  7  2  0  0  0  0
  5  8  1  0  0  0  0
  7  9  1  0  0  0  0
  8 10  1  0  0  0  0
  8 11  2  0  0  0  0
  9 12  1  0  0  0  0
 10 13  1  0  0  0  0
 10 14  1  0  0  0  0
 11 15  1  0  0  0  0
 12 16  2  0  0  0  0
 12 17  1  0  0  0  0
 14 18  1  0  0  0  0
 14 19  1  0  0  0  0
 16 20  1  0  0  0  0
 16 21  1  0  0  0  0
 17 22  2  0  0  0  0
 18 23  1  0  0  0  0
 21 24  2  0  0  0  0
 22 25  1  0  0  0  0
 23 26  1  0  0  0  0
 24 27  1  0  0  0  0
 27 28  2  0  0  0  0
 27 29  2  0  0  0  0
 27 30  1  0  0  0  0
 30 31  1  0  0  0  0
 31 32  1  0  0  0  0
 31 33  2  0  0  0  0
 32 34  1  0  0  0  0
 33 35  1  0  0  0  0
  6  7  1  0  0  0  0
 13 15  2  0  0  0  0
 19 23  1  0  0  0  0
 22 24  1  0  0  0  0
 34 35  2  0  0  0  0
M  END
>  <MolRegNo>
1519803

>  <m>
=

>  <Value>
427

>  <Unit>
nM

>  <Type>
IC50

>  <pValue>
6.37

>  <Ligand Efficiency>
0

>  <Binding Efficiency>
0

>  <Surface Efficiency>
0

>  <Assay Index>
1107034

>  <Assay Category>


>  <Assay Organism>
Homo sapiens

>  <Target ID>
17045

>  <Target Name>
Cytochrome P450 3A4

>  <Target Organism>
Homo sapiens

>  <Target Description>
Target is a single protein chain

>  <Sequence Accession>
P08684

>  <Reference>
J Med Chem 60 (16), 7029-7042 (2017)

>  <Pubmed ID>
28682065

>  <DOI>
10.1021/acs.jmedchem.7b00598

$$$$
1518920
Actelion Java MolfileCreator 1.0

 36 40  0  0  0  0  0  0  0  0999 V2000
    0.0000   -0.0000   -0.0000 Cl  0  0  0  0  0  0  0  0  0  0  0  0
   -1.3237   -0.6973   -0.0000 C   0  0  0  0  0  0  0  0  0  0  0  0
   -1.3828   -2.1747   -0.0000 C   0  0  0  0  0  0  0  0  0  0  0  0
   -2.6120    0.1064   -0.0000 C   0  0  0  0  0  0  0  0  0  0  0  0
   -2.7065   -2.8720   -0.0000 C   0  0  0  0  0  0  0  0  0  0  0  0
   -3.9475   -0.5909   -0.0000 C   0  0  0  0  0  0  0  0  0  0  0  0
   -3.9948   -2.0683   -0.0000 C   0  0  0  0  0  0  0  0  0  0  0  0
   -2.7774   -4.3612   -0.0000 C   0  0  0  0  0  0  0  0  0  0  0  0
   -5.3303   -2.7656   -0.0000 O   0  0  0  0  0  0  0  0  0  0  0  0
   -1.5956   -5.2594   -0.0000 N   0  0  0  0  0  0  0  0  0  0  0  0
   -4.0184   -5.1885   -0.0000 C   0  0  0  0  0  0  0  0  0  0  0  0
   -6.6186   -1.9619   -0.0000 C   0  0  0  0  0  0  0  0  0  0  0  0
   -2.1156   -6.6541   -0.0000 N   0  0  0  0  0  0  0  0  0  0  0  0
   -0.2837   -4.5621   -0.0000 C   0  0  0  0  0  0  0  0  0  0  0  0
   -3.6166   -6.6068   -0.0000 C   0  0  0  0  0  0  0  0  0  0  0  0
   -7.9423   -2.6593   -0.0000 C   0  0  0  0  0  0  0  0  0  0  0  0
   -6.5713   -0.4491   -0.0000 C   0  0  0  0  0  0  0  0  0  0  0  0
    0.1536   -3.1202   -0.0000 C   0  0  0  0  0  0  0  0  0  0  0  0
    1.1346   -4.9876   -0.0000 C   0  0  0  0  0  0  0  0  0  0  0  0
   -8.0014   -4.1366   -0.0000 C   0  0  0  0  0  0  0  0  0  0  0  0
   -9.2306   -1.8556   -0.0000 C   0  0  0  0  0  0  0  0  0  0  0  0
   -7.8596    0.3546   -0.0000 C   0  0  0  0  0  0  0  0  0  0  0  0
    1.5719   -3.5457   -0.0000 N   0  0  0  0  0  0  0  0  0  0  0  0
   -8.0605   -5.6258   -0.0000 N   0  0  0  0  0  0  0  0  0  0  0  0
   -9.1951   -0.3546   -0.0000 C   0  0  0  0  0  0  0  0  0  0  0  0
    2.8838   -2.8484   -0.0000 C   0  0  0  0  0  0  0  0  0  0  0  0
  -10.4834    0.4491   -0.0000 S   0  0  0  0  0  0  0  0  0  0  0  0
    2.9311   -1.3474   -0.0000 C   0  0  0  0  0  0  0  0  0  0  0  0
  -11.2871   -0.8037   -0.0000 O   0  0  0  0  0  0  0  0  0  0  0  0
  -11.9253    0.8864   -0.0000 O   0  0  0  0  0  0  0  0  0  0  0  0
  -10.4479    1.9501   -0.0000 N   0  0  0  0  0  0  0  0  0  0  0  0
  -11.6771    2.8365   -0.0000 C   0  0  0  0  0  0  0  0  0  0  0  0
  -13.1072    2.3756   -0.0000 N   0  0  0  0  0  0  0  0  0  0  0  0
  -11.7007    4.3494   -0.0000 C   0  0  0  0  0  0  0  0  0  0  0  0
  -14.0172    3.5930   -0.0000 C   0  0  0  0  0  0  0  0  0  0  0  0
  -13.1308    4.8103   -0.0000 S   0  0  0  0  0  0  0  0  0  0  0  0
  1  2  1  0  0  0  0
  2  3  2  0  0  0  0
  2  4  1  0  0  0  0
  3  5  1  0  0  0  0
  4  6  2  0  0  0  0
  5  7  2  0  0  0  0
  5  8  1  0  0  0  0
  7  9  1  0  0  0  0
  8 10  1  0  0  0  0
  8 11  2  0  0  0  0
  9 12  1  0  0  0  0
 10 13  1  0  0  0  0
 10 14  1  0  0  0  0
 11 15  1  0  0  0  0
 12 16  2  0  0  0  0
 12 17  1  0  0  0  0
 14 18  1  0  0  0  0
 14 19  1  0  0  0  0
 16 20  1  0  0  0  0
 16 21  1  0  0  0  0
 17 22  2  0  0  0  0
 18 23  1  0  0  0  0
 20 24  3  0  0  0  0
 21 25  2  0  0  0  0
 23 26  1  0  0  0  0
 25 27  1  0  0  0  0
 26 28  1  0  0  0  0
 27 29  2  0  0  0  0
 27 30  2  0  0  0  0
 27 31  1  0  0  0  0
 31 32  1  0  0  0  0
 32 33  1  0  0  0  0
 32 34  2  0  0  0  0
 33 35  2  0  0  0  0
 34 36  1  0  0  0  0
  6  7  1  0  0  0  0
 13 15  2  0  0  0  0
 19 23  1  0  0  0  0
 22 25  1  0  0  0  0
 35 36  1  0  0  0  0
M  END
>  <MolRegNo>
1518920

>  <m>
=

>  <Value>
12239

>  <Unit>
nM

>  <Type>
IC50

>  <pValue>
4.91

>  <Ligand Efficiency>
0

>  <Binding Efficiency>
0

>  <Surface Efficiency>
0

>  <Assay Index>
1107034

>  <Assay Category>


>  <Assay Organism>
Homo sapiens

>  <Target ID>
17045

>  <Target Name>
Cytochrome P450 3A4

>  <Target Organism>
Homo sapiens

>  <Target Description>
Target is a single protein chain

>  <Sequence Accession>
P08684

>  <Reference>
J Med Chem 60 (16), 7029-7042 (2017)

>  <Pubmed ID>
28682065

>  <DOI>
10.1021/acs.jmedchem.7b00598

$$$$
1519494
Actelion Java MolfileCreator 1.0

 35 39  0  0  0  0  0  0  0  0999 V2000
    0.0000   -0.0000   -0.0000 Cl  0  0  0  0  0  0  0  0  0  0  0  0
    1.4899    0.0118   -0.0000 C   0  0  0  0  0  0  0  0  0  0  0  0
    2.2230   -1.2770   -0.0000 C   0  0  0  0  0  0  0  0  0  0  0  0
    2.2230    1.3243   -0.0000 C   0  0  0  0  0  0  0  0  0  0  0  0
    3.7128   -1.2652   -0.0000 C   0  0  0  0  0  0  0  0  0  0  0  0
    3.7128    1.3361   -0.0000 C   0  0  0  0  0  0  0  0  0  0  0  0
    4.4459    0.0473   -0.0000 C   0  0  0  0  0  0  0  0  0  0  0  0
    4.4459   -2.5541   -0.0000 C   0  0  0  0  0  0  0  0  0  0  0  0
    5.9358    0.0591   -0.0000 O   0  0  0  0  0  0  0  0  0  0  0  0
    3.8193   -3.9139   -0.0000 N   0  0  0  0  0  0  0  0  0  0  0  0
    5.9240   -2.6959   -0.0000 C   0  0  0  0  0  0  0  0  0  0  0  0
    6.6807    1.3716   -0.0000 C   0  0  0  0  0  0  0  0  0  0  0  0
    4.9189   -4.9071   -0.0000 N   0  0  0  0  0  0  0  0  0  0  0  0
    2.3412   -4.2095   -0.0000 C   0  0  0  0  0  0  0  0  0  0  0  0
    6.2196   -4.1503   -0.0000 C   0  0  0  0  0  0  0  0  0  0  0  0
    5.9122    2.6841   -0.0000 C   0  0  0  0  0  0  0  0  0  0  0  0
    8.1706    1.3834   -0.0000 C   0  0  0  0  0  0  0  0  0  0  0  0
    1.5135   -5.4628   -0.0000 C   0  0  0  0  0  0  0  0  0  0  0  0
    1.0642   -3.3818   -0.0000 C   0  0  0  0  0  0  0  0  0  0  0  0
    4.3986    2.6959   -0.0000 F   0  0  0  0  0  0  0  0  0  0  0  0
    6.6571    3.9966   -0.0000 C   0  0  0  0  0  0  0  0  0  0  0  0
    8.9037    2.6959   -0.0000 C   0  0  0  0  0  0  0  0  0  0  0  0
    0.2365   -4.6351   -0.0000 N   0  0  0  0  0  0  0  0  0  0  0  0
    8.1470    4.0084   -0.0000 C   0  0  0  0  0  0  0  0  0  0  0  0
   10.3936    2.7078   -0.0000 F   0  0  0  0  0  0  0  0  0  0  0  0
   -1.2416   -4.9307   -0.0000 C   0  0  0  0  0  0  0  0  0  0  0  0
    8.8919    5.3209   -0.0000 S   0  0  0  0  0  0  0  0  0  0  0  0
   10.1689    4.5760   -0.0000 O   0  0  0  0  0  0  0  0  0  0  0  0
   10.1689    6.0777   -0.0000 O   0  0  0  0  0  0  0  0  0  0  0  0
    7.8986    6.4679   -0.0000 N   0  0  0  0  0  0  0  0  0  0  0  0
    8.3834    7.8986   -0.0000 C   0  0  0  0  0  0  0  0  0  0  0  0
    9.8142    8.3361   -0.0000 N   0  0  0  0  0  0  0  0  0  0  0  0
    7.5203    9.1402   -0.0000 C   0  0  0  0  0  0  0  0  0  0  0  0
    9.8378    9.8497   -0.0000 C   0  0  0  0  0  0  0  0  0  0  0  0
    8.4189   10.3463   -0.0000 S   0  0  0  0  0  0  0  0  0  0  0  0
  1  2  1  0  0  0  0
  2  3  2  0  0  0  0
  2  4  1  0  0  0  0
  3  5  1  0  0  0  0
  4  6  2  0  0  0  0
  5  7  2  0  0  0  0
  5  8  1  0  0  0  0
  7  9  1  0  0  0  0
  8 10  1  0  0  0  0
  8 11  2  0  0  0  0
  9 12  1  0  0  0  0
 10 13  1  0  0  0  0
 10 14  1  0  0  0  0
 11 15  1  0  0  0  0
 12 16  2  0  0  0  0
 12 17  1  0  0  0  0
 14 18  1  0  0  0  0
 14 19  1  0  0  0  0
 16 20  1  0  0  0  0
 16 21  1  0  0  0  0
 17 22  2  0  0  0  0
 18 23  1  0  0  0  0
 21 24  2  0  0  0  0
 22 25  1  0  0  0  0
 23 26  1  0  0  0  0
 24 27  1  0  0  0  0
 27 28  2  0  0  0  0
 27 29  2  0  0  0  0
 27 30  1  0  0  0  0
 30 31  1  0  0  0  0
 31 32  1  0  0  0  0
 31 33  2  0  0  0  0
 32 34  2  0  0  0  0
 33 35  1  0  0  0  0
  6  7  1  0  0  0  0
 13 15  2  0  0  0  0
 19 23  1  0  0  0  0
 22 24  1  0  0  0  0
 34 35  1  0  0  0  0
M  END
>  <MolRegNo>
1519494

>  <m>
=

>  <Value>
15124

>  <Unit>
nM

>  <Type>
IC50

>  <pValue>
4.82

>  <Ligand Efficiency>
0

>  <Binding Efficiency>
0

>  <Surface Efficiency>
0

>  <Assay Index>
1107034

>  <Assay Category>


>  <Assay Organism>
Homo sapiens

>  <Target ID>
17045

>  <Target Name>
Cytochrome P450 3A4

>  <Target Organism>
Homo sapiens

>  <Target Description>
Target is a single protein chain

>  <Sequence Accession>
P08684

>  <Reference>
J Med Chem 60 (16), 7029-7042 (2017)

>  <Pubmed ID>
28682065

>  <DOI>
10.1021/acs.jmedchem.7b00598

$$$$
2202904
Actelion Java MolfileCreator 1.0

 24 25  0  0  0  0  0  0  0  0999 V2000
    0.0000   -0.0000   -0.0000 O   0  0  0  0  0  0  0  0  0  0  0  0
   -0.0118   -1.4875   -0.0000 C   0  0  0  0  0  0  0  0  0  0  0  0
    1.2750   -2.2313   -0.0000 O   0  0  0  0  0  0  0  0  0  0  0  0
   -1.3223   -2.2313   -0.0000 C   0  0  0  0  0  0  0  0  0  0  0  0
    2.5619   -1.4757   -0.0000 C   0  0  0  0  0  0  0  0  0  0  0  0
   -2.6327   -1.4757   -0.0000 C   0  0  0  0  0  0  0  0  0  0  0  0
    3.8487   -2.2195   -0.0000 C   0  0  0  0  0  0  0  0  0  0  0  0
   -3.9432   -2.2195   -0.0000 C   0  0  0  0  0  0  0  0  0  0  0  0
   -5.2536   -1.4639   -0.0000 C   0  0  0  0  0  0  0  0  0  0  0  0
   -3.9550   -3.7071   -0.0000 C   0  0  0  0  0  0  0  0  0  0  0  0
   -6.5641   -2.2077   -0.0000 C   0  0  0  0  0  0  0  0  0  0  0  0
   -5.2654   -4.4390   -0.0000 C   0  0  0  0  0  0  0  0  0  0  0  0
   -6.5759   -3.6953   -0.0000 C   0  0  0  0  0  0  0  0  0  0  0  0
   -7.8864   -4.4272   -0.0000 C   0  0  0  0  0  0  0  0  0  0  0  0
   -9.1968   -3.6716   -0.0000 C   0  0  0  0  0  0  0  0  0  0  0  0
  -10.5073   -4.4036   -0.0000 C   0  0  0  0  0  0  0  0  0  0  0  0
  -11.8177   -3.6480   -0.0000 C   0  0  0  0  0  0  0  0  0  0  0  0
  -10.5191   -5.8912   -0.0000 C   0  0  0  0  0  0  0  0  0  0  0  0
  -13.1282   -4.3800   -0.0000 C   0  0  0  0  0  0  0  0  0  0  0  0
  -11.8295   -6.6231   -0.0000 C   0  0  0  0  0  0  0  0  0  0  0  0
  -14.4387   -3.6244   -0.0000 O   0  0  0  0  0  0  0  0  0  0  0  0
  -13.1400   -5.8675   -0.0000 C   0  0  0  0  0  0  0  0  0  0  0  0
  -11.8413   -8.1107   -0.0000 O   0  0  0  0  0  0  0  0  0  0  0  0
  -14.4505   -6.5995   -0.0000 O   0  0  0  0  0  0  0  0  0  0  0  0
  1  2  2  0  0  0  0
  2  3  1  0  0  0  0
  2  4  1  0  0  0  0
  3  5  1  0  0  0  0
  4  6  2  0  0  0  0
  5  7  1  0  0  0  0
  6  8  1  0  0  0  0
  8  9  2  0  0  0  0
  8 10  1  0  0  0  0
  9 11  1  0  0  0  0
 10 12  2  0  0  0  0
 11 13  2  0  0  0  0
 13 14  1  0  0  0  0
 14 15  2  0  0  0  0
 15 16  1  0  0  0  0
 16 17  2  0  0  0  0
 16 18  1  0  0  0  0
 17 19  1  0  0  0  0
 18 20  2  0  0  0  0
 19 21  1  0  0  0  0
 19 22  2  0  0  0  0
 20 23  1  0  0  0  0
 22 24  1  0  0  0  0
 12 13  1  0  0  0  0
 20 22  1  0  0  0  0
M  END
>  <MolRegNo>
2202904

>  <m>
=

>  <Value>
36200

>  <Unit>
nM

>  <Type>
IC50

>  <pValue>
4.44

>  <Ligand Efficiency>
0

>  <Binding Efficiency>
0

>  <Surface Efficiency>
0

>  <Assay Index>
1110321

>  <Assay Category>


>  <Assay Organism>
Homo sapiens

>  <Target ID>
17045

>  <Target Name>
Cytochrome P450 3A4

>  <Target Organism>
Homo sapiens

>  <Target Description>
Target is a single protein chain

>  <Sequence Accession>
P08684

>  <Reference>
J Med Chem 60 (9), 4062-4073 (2017)

>  <Pubmed ID>
28459572

>  <DOI>
10.1021/acs.jmedchem.7b00376

$$$$
2230216
Actelion Java MolfileCreator 1.0

 24 26  0  0  0  0  0  0  0  0999 V2000
    0.0000   -0.0000   -0.0000 O   0  0  0  0  0  0  0  0  0  0  0  0
   -1.5107    0.0236   -0.0000 C   0  0  0  0  0  0  0  0  0  0  0  0
   -2.2779   -1.2629   -0.0000 O   0  0  0  0  0  0  0  0  0  0  0  0
   -2.2661    1.3337   -0.0000 C   0  0  0  0  0  0  0  0  0  0  0  0
   -1.5461   -2.5493   -0.0000 C   0  0  0  0  0  0  0  0  0  0  0  0
   -1.5343    2.6320   -0.0000 C   0  0  0  0  0  0  0  0  0  0  0  0
   -2.3015   -3.8240   -0.0000 C   0  0  0  0  0  0  0  0  0  0  0  0
   -2.2897    3.9420   -0.0000 C   0  0  0  0  0  0  0  0  0  0  0  0
   -1.5461    5.2521   -0.0000 C   0  0  0  0  0  0  0  0  0  0  0  0
   -3.8004    3.9539   -0.0000 C   0  0  0  0  0  0  0  0  0  0  0  0
   -0.0590    5.2521   -0.0000 C   0  0  0  0  0  0  0  0  0  0  0  0
   -2.3015    6.5622   -0.0000 C   0  0  0  0  0  0  0  0  0  0  0  0
   -4.5558    5.2639   -0.0000 C   0  0  0  0  0  0  0  0  0  0  0  0
    0.8026    4.0483   -0.0000 O   0  0  0  0  0  0  0  0  0  0  0  0
    0.8144    6.4678   -0.0000 C   0  0  0  0  0  0  0  0  0  0  0  0
   -3.8122    6.5858   -0.0000 C   0  0  0  0  0  0  0  0  0  0  0  0
   -6.0665    5.2875   -0.0000 O   0  0  0  0  0  0  0  0  0  0  0  0
    2.2189    4.5086   -0.0000 C   0  0  0  0  0  0  0  0  0  0  0  0
    2.2307    6.0193   -0.0000 C   0  0  0  0  0  0  0  0  0  0  0  0
   -4.5794    7.8959   -0.0000 O   0  0  0  0  0  0  0  0  0  0  0  0
    3.5054    3.7768   -0.0000 C   0  0  0  0  0  0  0  0  0  0  0  0
    3.5172    6.7865   -0.0000 C   0  0  0  0  0  0  0  0  0  0  0  0
    4.7918    4.5322   -0.0000 C   0  0  0  0  0  0  0  0  0  0  0  0
    4.8036    6.0429   -0.0000 C   0  0  0  0  0  0  0  0  0  0  0  0
  1  2  2  0  0  0  0
  2  3  1  0  0  0  0
  2  4  1  0  0  0  0
  3  5  1  0  0  0  0
  4  6  2  0  0  0  0
  5  7  1  0  0  0  0
  6  8  1  0  0  0  0
  8  9  2  0  0  0  0
  8 10  1  0  0  0  0
  9 11  1  0  0  0  0
  9 12  1  0  0  0  0
 10 13  2  0  0  0  0
 11 14  1  0  0  0  0
 11 15  2  0  0  0  0
 12 16  2  0  0  0  0
 13 17  1  0  0  0  0
 14 18  1  0  0  0  0
 15 19  1  0  0  0  0
 16 20  1  0  0  0  0
 18 21  1  0  0  0  0
 19 22  1  0  0  0  0
 21 23  2  0  0  0  0
 22 24  2  0  0  0  0
 13 16  1  0  0  0  0
 18 19  2  0  0  0  0
 23 24  1  0  0  0  0
M  END
>  <MolRegNo>
2230216

>  <m>
=

>  <Value>
11200

>  <Unit>
nM

>  <Type>
IC50

>  <pValue>
4.95

>  <Ligand Efficiency>
0

>  <Binding Efficiency>
0

>  <Surface Efficiency>
0

>  <Assay Index>
1110321

>  <Assay Category>


>  <Assay Organism>
Homo sapiens

>  <Target ID>
17045

>  <Target Name>
Cytochrome P450 3A4

>  <Target Organism>
Homo sapiens

>  <Target Description>
Target is a single protein chain

>  <Sequence Accession>
P08684

>  <Reference>
J Med Chem 60 (9), 4062-4073 (2017)

>  <Pubmed ID>
28459572

>  <DOI>
10.1021/acs.jmedchem.7b00376

$$$$
1835960
Actelion Java MolfileCreator 1.0

 26 28  0  0  0  0  0  0  0  0999 V2000
    0.0000   -0.0000   -0.0000 O   0  0  0  0  0  0  0  0  0  0  0  0
    1.0768   -0.6188   -0.0000 C   0  0  0  0  0  0  0  0  0  0  0  0
    1.0520   -2.1783   -0.0000 O   0  0  0  0  0  0  0  0  0  0  0  0
    2.4259    0.1733   -0.0000 C   0  0  0  0  0  0  0  0  0  0  0  0
   -0.3218   -2.9457   -0.0000 C   0  0  0  0  0  0  0  0  0  0  0  0
    2.4259    1.7575   -0.0000 C   0  0  0  0  0  0  0  0  0  0  0  0
   -0.3466   -4.1957   -0.0000 C   0  0  0  0  0  0  0  0  0  0  0  0
    3.7749    2.5496   -0.0000 C   0  0  0  0  0  0  0  0  0  0  0  0
    3.7626    4.1339   -0.0000 C   0  0  0  0  0  0  0  0  0  0  0  0
    5.1364    1.7575   -0.0000 C   0  0  0  0  0  0  0  0  0  0  0  0
    5.1240    4.9507   -0.0000 C   0  0  0  0  0  0  0  0  0  0  0  0
    6.4855    2.5744   -0.0000 C   0  0  0  0  0  0  0  0  0  0  0  0
    5.1116    6.2255   -0.0000 O   0  0  0  0  0  0  0  0  0  0  0  0
    6.4731    4.1586   -0.0000 C   0  0  0  0  0  0  0  0  0  0  0  0
    7.9583    2.1041   -0.0000 C   0  0  0  0  0  0  0  0  0  0  0  0
    7.9459    4.6537   -0.0000 O   0  0  0  0  0  0  0  0  0  0  0  0
    8.8618    3.3912   -0.0000 C   0  0  0  0  0  0  0  0  0  0  0  0
   10.4213    3.4160   -0.0000 C   0  0  0  0  0  0  0  0  0  0  0  0
   11.2877    4.7279   -0.0000 C   0  0  0  0  0  0  0  0  0  0  0  0
   11.0896    2.0174   -0.0000 C   0  0  0  0  0  0  0  0  0  0  0  0
   12.8471    4.6289   -0.0000 C   0  0  0  0  0  0  0  0  0  0  0  0
   12.6491    1.9184   -0.0000 C   0  0  0  0  0  0  0  0  0  0  0  0
   13.5402    5.6810   -0.0000 O   0  0  0  0  0  0  0  0  0  0  0  0
   13.5279    3.2304   -0.0000 C   0  0  0  0  0  0  0  0  0  0  0  0
   13.1937    0.8045   -0.0000 O   0  0  0  0  0  0  0  0  0  0  0  0
   14.7655    3.1561   -0.0000 O   0  0  0  0  0  0  0  0  0  0  0  0
  1  2  2  0  0  0  0
  2  3  1  0  0  0  0
  2  4  1  0  0  0  0
  3  5  1  0  0  0  0
  4  6  2  0  0  0  0
  5  7  1  0  0  0  0
  6  8  1  0  0  0  0
  8  9  2  0  0  0  0
  8 10  1  0  0  0  0
  9 11  1  0  0  0  0
 10 12  2  0  0  0  0
 11 13  1  0  0  0  0
 11 14  2  0  0  0  0
 12 15  1  0  0  0  0
 14 16  1  0  0  0  0
 15 17  2  0  0  0  0
 17 18  1  0  0  0  0
 18 19  2  0  0  0  0
 18 20  1  0  0  0  0
 19 21  1  0  0  0  0
 20 22  2  0  0  0  0
 21 23  1  0  0  0  0
 21 24  2  0  0  0  0
 22 25  1  0  0  0  0
 24 26  1  0  0  0  0
 12 14  1  0  0  0  0
 16 17  1  0  0  0  0
 22 24  1  0  0  0  0
M  END
>  <MolRegNo>
1835960

>  <m>
=

>  <Value>
21700

>  <Unit>
nM

>  <Type>
IC50

>  <pValue>
4.66

>  <Ligand Efficiency>
0

>  <Binding Efficiency>
0

>  <Surface Efficiency>
0

>  <Assay Index>
1110321

>  <Assay Category>


>  <Assay Organism>
Homo sapiens

>  <Target ID>
17045

>  <Target Name>
Cytochrome P450 3A4

>  <Target Organism>
Homo sapiens

>  <Target Description>
Target is a single protein chain

>  <Sequence Accession>
P08684

>  <Reference>
J Med Chem 60 (9), 4062-4073 (2017)

>  <Pubmed ID>
28459572

>  <DOI>
10.1021/acs.jmedchem.7b00376

$$$$
1835957
Actelion Java MolfileCreator 1.0

 19 21  0  0  0  0  0  0  0  0999 V2000
    0.0000   -0.0000   -0.0000 Br  0  0  0  0  0  0  0  0  0  0  0  0
    1.0708    0.6400   -0.0000 C   0  0  0  0  0  0  0  0  0  0  0  0
    1.0585    2.2155   -0.0000 C   0  0  0  0  0  0  0  0  0  0  0  0
    2.4247   -0.1477   -0.0000 C   0  0  0  0  0  0  0  0  0  0  0  0
    2.4124    3.0278   -0.0000 C   0  0  0  0  0  0  0  0  0  0  0  0
    3.7663    0.6646   -0.0000 C   0  0  0  0  0  0  0  0  0  0  0  0
    2.4001    4.2955   -0.0000 O   0  0  0  0  0  0  0  0  0  0  0  0
    3.7540    2.2401   -0.0000 C   0  0  0  0  0  0  0  0  0  0  0  0
    5.2309    0.1969   -0.0000 C   0  0  0  0  0  0  0  0  0  0  0  0
    5.2186    2.7324   -0.0000 O   0  0  0  0  0  0  0  0  0  0  0  0
    6.1294    1.4770   -0.0000 C   0  0  0  0  0  0  0  0  0  0  0  0
    7.6802    1.5016   -0.0000 C   0  0  0  0  0  0  0  0  0  0  0  0
    8.5418    2.8062   -0.0000 C   0  0  0  0  0  0  0  0  0  0  0  0
    8.3449    0.1108   -0.0000 C   0  0  0  0  0  0  0  0  0  0  0  0
   10.0926    2.7078   -0.0000 C   0  0  0  0  0  0  0  0  0  0  0  0
    9.8957    0.0123   -0.0000 C   0  0  0  0  0  0  0  0  0  0  0  0
   10.7819    3.7540   -0.0000 O   0  0  0  0  0  0  0  0  0  0  0  0
   10.7696    1.3170   -0.0000 C   0  0  0  0  0  0  0  0  0  0  0  0
   12.0004    1.2431   -0.0000 O   0  0  0  0  0  0  0  0  0  0  0  0
  1  2  1  0  0  0  0
  2  3  2  0  0  0  0
  2  4  1  0  0  0  0
  3  5  1  0  0  0  0
  4  6  2  0  0  0  0
  5  7  1  0  0  0  0
  5  8  2  0  0  0  0
  6  9  1  0  0  0  0
  8 10  1  0  0  0  0
  9 11  2  0  0  0  0
 11 12  1  0  0  0  0
 12 13  2  0  0  0  0
 12 14  1  0  0  0  0
 13 15  1  0  0  0  0
 14 16  2  0  0  0  0
 15 17  1  0  0  0  0
 15 18  2  0  0  0  0
 18 19  1  0  0  0  0
  6  8  1  0  0  0  0
 10 11  1  0  0  0  0
 16 18  1  0  0  0  0
M  END
>  <MolRegNo>
1835957

>  <m>
=

>  <Value>
23500

>  <Unit>
nM

>  <Type>
IC50

>  <pValue>
4.63

>  <Ligand Efficiency>
0

>  <Binding Efficiency>
0

>  <Surface Efficiency>
0

>  <Assay Index>
1110321

>  <Assay Category>


>  <Assay Organism>
Homo sapiens

>  <Target ID>
17045

>  <Target Name>
Cytochrome P450 3A4

>  <Target Organism>
Homo sapiens

>  <Target Description>
Target is a single protein chain

>  <Sequence Accession>
P08684

>  <Reference>
J Med Chem 60 (9), 4062-4073 (2017)

>  <Pubmed ID>
28459572

>  <DOI>
10.1021/acs.jmedchem.7b00376

$$$$
2211647
Actelion Java MolfileCreator 1.0

 28 31  0  0  1  0  0  0  0  0999 V2000
    0.0000   -0.0000   -0.0000 Cl  0  0  0  0  0  0  0  0  0  0  0  0
   -0.0125    1.5077   -0.0000 C   0  0  0  0  0  0  0  0  0  0  0  0
   -1.3208    2.2678   -0.0000 C   0  0  0  0  0  0  0  0  0  0  0  0
    1.2709    2.2678   -0.0000 C   0  0  0  0  0  0  0  0  0  0  0  0
   -2.6291    1.5326   -0.0000 N   0  0  0  0  0  0  0  0  0  0  0  0
   -1.3332    3.7754   -0.0000 C   0  0  0  0  0  0  0  0  0  0  0  0
    1.2585    3.7879   -0.0000 C   0  0  0  0  0  0  0  0  0  0  0  0
   -3.9374    2.2927   -0.0000 C   0  0  0  0  0  0  0  0  0  0  0  0
   -0.0623    4.5355   -0.0000 C   0  0  0  0  0  0  0  0  0  0  0  0
    2.5294    4.5604   -0.0000 S   0  0  0  0  0  0  0  0  0  0  0  0
   -3.9499    3.8004   -0.0000 C   0  0  0  0  0  0  0  0  0  0  0  0
   -0.0748    6.0432   -0.0000 F   0  0  0  0  0  0  0  0  0  0  0  0
    1.7569    5.8688   -0.0000 O   0  0  0  0  0  0  0  0  0  0  0  0
    3.2646    5.8688   -0.0000 O   0  0  0  0  0  0  0  0  0  0  0  0
    3.8128    3.8253   -0.0000 N   0  0  0  0  0  0  0  0  0  0  0  0
   -3.9623    5.3953   -0.0000 C   0  0  0  0  0  0  0  0  0  0  0  0
   -5.3579    3.2770   -0.0000 C   0  0  0  0  0  0  0  0  0  0  0  0
   -2.5170    3.4266   -0.0000 C   0  0  0  0  0  0  0  0  0  0  0  0
    5.0962    4.5854   -0.0000 C   0  0  0  0  0  0  0  0  0  0  0  0
   -3.9873    6.9029   -0.0000 O   0  0  0  0  0  0  0  0  0  0  0  0
   -5.4949    5.7068   -0.0000 C   0  0  0  0  0  0  0  0  0  0  0  0
   -2.6665    5.8438   -0.0000 C   0  0  0  0  0  0  0  0  0  0  0  0
   -6.3049    4.4483   -0.0000 C   0  0  0  0  0  0  0  0  0  0  0  0
   -1.7195    4.6850   -0.0000 C   0  0  0  0  0  0  0  0  0  0  0  0
    5.2333    6.0806   -0.0000 S   0  0  0  0  0  0  0  0  0  0  0  0
    6.4419    3.9873   -0.0000 N   0  0  0  0  0  0  0  0  0  0  0  0
    6.6787    6.4045   -0.0000 C   0  0  0  0  0  0  0  0  0  0  0  0
    7.4263    5.1087   -0.0000 C   0  0  0  0  0  0  0  0  0  0  0  0
  1  2  1  0  0  0  0
  2  3  2  0  0  0  0
  2  4  1  0  0  0  0
  3  5  1  0  0  0  0
  3  6  1  0  0  0  0
  4  7  2  0  0  0  0
  5  8  1  0  0  0  0
  6  9  2  0  0  0  0
  7 10  1  0  0  0  0
 11  8  1  1  0  0  0
  9 12  1  0  0  0  0
 10 13  2  0  0  0  0
 10 14  2  0  0  0  0
 10 15  1  0  0  0  0
 11 16  1  0  0  0  0
 11 17  1  0  0  0  0
 11 18  1  0  0  0  0
 15 19  1  0  0  0  0
 16 20  1  1  0  0  0
 16 21  1  0  0  0  0
 16 22  1  0  0  0  0
 17 23  1  0  0  0  0
 18 24  1  0  0  0  0
 19 25  1  0  0  0  0
 19 26  2  0  0  0  0
 25 27  1  0  0  0  0
 26 28  1  0  0  0  0
  7  9  1  0  0  0  0
 21 23  1  0  0  0  0
 22 24  1  0  0  0  0
 27 28  2  0  0  0  0
M  END
>  <MolRegNo>
2211647

>  <m>
=

>  <Value>
6300

>  <Unit>
nM

>  <Type>
IC50

>  <pValue>
5.2

>  <Ligand Efficiency>
0

>  <Binding Efficiency>
0

>  <Surface Efficiency>
0

>  <Assay Index>
1113038

>  <Assay Category>


>  <Assay Organism>
Homo sapiens

>  <Target ID>
17045

>  <Target Name>
Cytochrome P450 3A4

>  <Target Organism>
Homo sapiens

>  <Target Description>
Target is a single protein chain

>  <Sequence Accession>
P08684

>  <Reference>
Bioorg Med Chem 25 (20), 5490-5505 (2017)

>  <Pubmed ID>
28818462

>  <DOI>
10.1016/j.bmc.2017.08.012

$$$$
2201040
Actelion Java MolfileCreator 1.0

 30 34  0  0  0  0  0  0  0  0999 V2000
    0.0000   -0.0000   -0.0000 Cl  0  0  0  0  0  0  0  0  0  0  0  0
   -0.0134    1.5148   -0.0000 C   0  0  0  0  0  0  0  0  0  0  0  0
   -1.3271    2.2789   -0.0000 C   0  0  0  0  0  0  0  0  0  0  0  0
    1.2735    2.2789   -0.0000 C   0  0  0  0  0  0  0  0  0  0  0  0
   -2.6409    1.5416   -0.0000 N   0  0  0  0  0  0  0  0  0  0  0  0
   -1.3405    3.7937   -0.0000 C   0  0  0  0  0  0  0  0  0  0  0  0
    1.2601    3.7937   -0.0000 C   0  0  0  0  0  0  0  0  0  0  0  0
   -2.6543    0.0536   -0.0000 C   0  0  0  0  0  0  0  0  0  0  0  0
   -0.0670    4.5578   -0.0000 C   0  0  0  0  0  0  0  0  0  0  0  0
    2.5336    4.5578   -0.0000 S   0  0  0  0  0  0  0  0  0  0  0  0
   -3.9680   -0.6837   -0.0000 C   0  0  0  0  0  0  0  0  0  0  0  0
   -0.0804    6.0727   -0.0000 F   0  0  0  0  0  0  0  0  0  0  0  0
    1.7695    5.8716   -0.0000 O   0  0  0  0  0  0  0  0  0  0  0  0
    3.2709    5.8716   -0.0000 O   0  0  0  0  0  0  0  0  0  0  0  0
    3.8205    3.8205   -0.0000 N   0  0  0  0  0  0  0  0  0  0  0  0
   -4.7723   -1.8231   -0.0000 C   0  0  0  0  0  0  0  0  0  0  0  0
   -3.9010   -2.2521   -0.0000 C   0  0  0  0  0  0  0  0  0  0  0  0
   -4.9466    0.4424   -0.0000 C   0  0  0  0  0  0  0  0  0  0  0  0
    5.0941    4.5847   -0.0000 C   0  0  0  0  0  0  0  0  0  0  0  0
   -6.0593   -2.3057   -0.0000 C   0  0  0  0  0  0  0  0  0  0  0  0
   -5.2951   -2.7347   -0.0000 C   0  0  0  0  0  0  0  0  0  0  0  0
   -6.3542   -0.0134   -0.0000 C   0  0  0  0  0  0  0  0  0  0  0  0
    5.2281    6.0861   -0.0000 S   0  0  0  0  0  0  0  0  0  0  0  0
    6.4480    3.9948   -0.0000 N   0  0  0  0  0  0  0  0  0  0  0  0
   -7.1451   -3.3514   -0.0000 O   0  0  0  0  0  0  0  0  0  0  0  0
   -6.1263   -3.9948   -0.0000 C   0  0  0  0  0  0  0  0  0  0  0  0
   -7.0378   -1.2199   -0.0000 C   0  0  0  0  0  0  0  0  0  0  0  0
   -6.3408   -1.5684   -0.0000 C   0  0  0  0  0  0  0  0  0  0  0  0
    6.6759    6.4212   -0.0000 C   0  0  0  0  0  0  0  0  0  0  0  0
    7.4266    5.1209   -0.0000 C   0  0  0  0  0  0  0  0  0  0  0  0
  1  2  1  0  0  0  0
  2  3  2  0  0  0  0
  2  4  1  0  0  0  0
  3  5  1  0  0  0  0
  3  6  1  0  0  0  0
  4  7  2  0  0  0  0
  5  8  1  0  0  0  0
  6  9  2  0  0  0  0
  7 10  1  0  0  0  0
  8 11  1  0  0  0  0
  9 12  1  0  0  0  0
 10 13  2  0  0  0  0
 10 14  2  0  0  0  0
 10 15  1  0  0  0  0
 11 16  1  0  0  0  0
 11 17  1  0  0  0  0
 11 18  1  0  0  0  0
 15 19  1  0  0  0  0
 16 20  1  0  0  0  0
 17 21  1  0  0  0  0
 18 22  1  0  0  0  0
 19 23  1  0  0  0  0
 19 24  2  0  0  0  0
 20 25  1  0  0  0  0
 20 26  1  0  0  0  0
 20 27  1  0  0  0  0
 21 28  1  0  0  0  0
 23 29  1  0  0  0  0
 24 30  1  0  0  0  0
  7  9  1  0  0  0  0
 21 26  1  0  0  0  0
 22 27  1  0  0  0  0
 22 28  1  0  0  0  0
 29 30  2  0  0  0  0
M  END
>  <MolRegNo>
2201040

>  <m>
=

>  <Value>
6300

>  <Unit>
nM

>  <Type>
IC50

>  <pValue>
5.2

>  <Ligand Efficiency>
0

>  <Binding Efficiency>
0

>  <Surface Efficiency>
0

>  <Assay Index>
1113038

>  <Assay Category>


>  <Assay Organism>
Homo sapiens

>  <Target ID>
17045

>  <Target Name>
Cytochrome P450 3A4

>  <Target Organism>
Homo sapiens

>  <Target Description>
Target is a single protein chain

>  <Sequence Accession>
P08684

>  <Reference>
Bioorg Med Chem 25 (20), 5490-5505 (2017)

>  <Pubmed ID>
28818462

>  <DOI>
10.1016/j.bmc.2017.08.012

$$$$
2204206
Actelion Java MolfileCreator 1.0

 29 31  0  0  0  0  0  0  0  0999 V2000
    0.0000   -0.0000   -0.0000 Cl  0  0  0  0  0  0  0  0  0  0  0  0
   -0.0119    1.5079   -0.0000 C   0  0  0  0  0  0  0  0  0  0  0  0
   -1.3179    2.2678   -0.0000 C   0  0  0  0  0  0  0  0  0  0  0  0
    1.2823    2.2678   -0.0000 C   0  0  0  0  0  0  0  0  0  0  0  0
   -2.6240    1.5316   -0.0000 N   0  0  0  0  0  0  0  0  0  0  0  0
   -1.3298    3.7875   -0.0000 C   0  0  0  0  0  0  0  0  0  0  0  0
    1.2704    3.7875   -0.0000 C   0  0  0  0  0  0  0  0  0  0  0  0
   -2.6358    0.0475   -0.0000 C   0  0  0  0  0  0  0  0  0  0  0  0
   -0.0475    4.5474   -0.0000 C   0  0  0  0  0  0  0  0  0  0  0  0
    2.5527    4.5593   -0.0000 S   0  0  0  0  0  0  0  0  0  0  0  0
   -3.9419   -0.6886   -0.0000 C   0  0  0  0  0  0  0  0  0  0  0  0
   -0.0594    6.0553   -0.0000 F   0  0  0  0  0  0  0  0  0  0  0  0
    1.7810    5.8772   -0.0000 O   0  0  0  0  0  0  0  0  0  0  0  0
    3.2889    5.8772   -0.0000 O   0  0  0  0  0  0  0  0  0  0  0  0
    3.8469    3.8231   -0.0000 N   0  0  0  0  0  0  0  0  0  0  0  0
   -3.9537   -2.1847   -0.0000 C   0  0  0  0  0  0  0  0  0  0  0  0
   -5.2479    0.0712   -0.0000 C   0  0  0  0  0  0  0  0  0  0  0  0
    5.1292    4.5830   -0.0000 C   0  0  0  0  0  0  0  0  0  0  0  0
   -5.2717   -2.9208   -0.0000 O   0  0  0  0  0  0  0  0  0  0  0  0
   -2.6714   -2.9208   -0.0000 C   0  0  0  0  0  0  0  0  0  0  0  0
   -6.5540   -0.6530   -0.0000 C   0  0  0  0  0  0  0  0  0  0  0  0
    5.2598    6.0790   -0.0000 S   0  0  0  0  0  0  0  0  0  0  0  0
    6.4827    3.9894   -0.0000 N   0  0  0  0  0  0  0  0  0  0  0  0
   -6.5777   -2.1609   -0.0000 C   0  0  0  0  0  0  0  0  0  0  0  0
   -2.6833   -4.4049   -0.0000 C   0  0  0  0  0  0  0  0  0  0  0  0
   -1.3892   -2.1609   -0.0000 C   0  0  0  0  0  0  0  0  0  0  0  0
   -1.3892   -3.6569   -0.0000 C   0  0  0  0  0  0  0  0  0  0  0  0
    6.7083    6.4115   -0.0000 C   0  0  0  0  0  0  0  0  0  0  0  0
    7.4682    5.1173   -0.0000 C   0  0  0  0  0  0  0  0  0  0  0  0
  1  2  1  0  0  0  0
  2  3  2  0  0  0  0
  2  4  1  0  0  0  0
  3  5  1  0  0  0  0
  3  6  1  0  0  0  0
  4  7  2  0  0  0  0
  5  8  1  0  0  0  0
  6  9  2  0  0  0  0
  7 10  1  0  0  0  0
 11  8  1  6  0  0  0
  9 12  1  0  0  0  0
 10 13  2  0  0  0  0
 10 14  2  0  0  0  0
 10 15  1  0  0  0  0
 11 16  1  0  0  0  0
 11 17  1  0  0  0  0
 15 18  1  0  0  0  0
 16 19  1  0  0  0  0
 16 20  1  1  0  0  0
 17 21  1  0  0  0  0
 18 22  1  0  0  0  0
 18 23  2  0  0  0  0
 19 24  1  0  0  0  0
 20 25  1  0  0  0  0
 20 26  1  0  0  0  0
 20 27  1  0  0  0  0
 22 28  1  0  0  0  0
 23 29  1  0  0  0  0
  7  9  1  0  0  0  0
 21 24  1  0  0  0  0
 28 29  2  0  0  0  0
M  END
>  <MolRegNo>
2204206

>  <m>
=

>  <Value>
4900

>  <Unit>
nM

>  <Type>
IC50

>  <pValue>
5.31

>  <Ligand Efficiency>
0

>  <Binding Efficiency>
0

>  <Surface Efficiency>
0

>  <Assay Index>
1113038

>  <Assay Category>


>  <Assay Organism>
Homo sapiens

>  <Target ID>
17045

>  <Target Name>
Cytochrome P450 3A4

>  <Target Organism>
Homo sapiens

>  <Target Description>
Target is a single protein chain

>  <Sequence Accession>
P08684

>  <Reference>
Bioorg Med Chem 25 (20), 5490-5505 (2017)

>  <Pubmed ID>
28818462

>  <DOI>
10.1016/j.bmc.2017.08.012

$$$$
2224179
Actelion Java MolfileCreator 1.0

 29 31  0  0  0  0  0  0  0  0999 V2000
    0.0000   -0.0000   -0.0000 Cl  0  0  0  0  0  0  0  0  0  0  0  0
   -0.0119    1.5079   -0.0000 C   0  0  0  0  0  0  0  0  0  0  0  0
   -1.3179    2.2678   -0.0000 C   0  0  0  0  0  0  0  0  0  0  0  0
    1.2823    2.2678   -0.0000 C   0  0  0  0  0  0  0  0  0  0  0  0
   -2.6240    1.5316   -0.0000 N   0  0  0  0  0  0  0  0  0  0  0  0
   -1.3298    3.7875   -0.0000 C   0  0  0  0  0  0  0  0  0  0  0  0
    1.2704    3.7875   -0.0000 C   0  0  0  0  0  0  0  0  0  0  0  0
   -2.6358    0.0475   -0.0000 C   0  0  0  0  0  0  0  0  0  0  0  0
   -0.0475    4.5474   -0.0000 C   0  0  0  0  0  0  0  0  0  0  0  0
    2.5527    4.5593   -0.0000 S   0  0  0  0  0  0  0  0  0  0  0  0
   -3.9419   -0.6886   -0.0000 C   0  0  0  0  0  0  0  0  0  0  0  0
   -0.0594    6.0553   -0.0000 F   0  0  0  0  0  0  0  0  0  0  0  0
    1.7810    5.8772   -0.0000 O   0  0  0  0  0  0  0  0  0  0  0  0
    3.2889    5.8772   -0.0000 O   0  0  0  0  0  0  0  0  0  0  0  0
    3.8469    3.8231   -0.0000 N   0  0  0  0  0  0  0  0  0  0  0  0
   -3.9537   -2.1847   -0.0000 C   0  0  0  0  0  0  0  0  0  0  0  0
   -5.2479    0.0712   -0.0000 C   0  0  0  0  0  0  0  0  0  0  0  0
    5.1292    4.5830   -0.0000 C   0  0  0  0  0  0  0  0  0  0  0  0
   -5.2717   -2.9208   -0.0000 O   0  0  0  0  0  0  0  0  0  0  0  0
   -2.6714   -2.9208   -0.0000 C   0  0  0  0  0  0  0  0  0  0  0  0
   -6.5540   -0.6530   -0.0000 C   0  0  0  0  0  0  0  0  0  0  0  0
    5.2598    6.0790   -0.0000 S   0  0  0  0  0  0  0  0  0  0  0  0
    6.4827    3.9894   -0.0000 N   0  0  0  0  0  0  0  0  0  0  0  0
   -6.5777   -2.1609   -0.0000 C   0  0  0  0  0  0  0  0  0  0  0  0
   -2.6833   -4.4049   -0.0000 C   0  0  0  0  0  0  0  0  0  0  0  0
   -1.3892   -2.1609   -0.0000 C   0  0  0  0  0  0  0  0  0  0  0  0
   -1.3892   -3.6569   -0.0000 C   0  0  0  0  0  0  0  0  0  0  0  0
    6.7083    6.4115   -0.0000 C   0  0  0  0  0  0  0  0  0  0  0  0
    7.4682    5.1173   -0.0000 C   0  0  0  0  0  0  0  0  0  0  0  0
  1  2  1  0  0  0  0
  2  3  2  0  0  0  0
  2  4  1  0  0  0  0
  3  5  1  0  0  0  0
  3  6  1  0  0  0  0
  4  7  2  0  0  0  0
  5  8  1  0  0  0  0
  6  9  2  0  0  0  0
  7 10  1  0  0  0  0
 11  8  1  1  0  0  0
  9 12  1  0  0  0  0
 10 13  2  0  0  0  0
 10 14  2  0  0  0  0
 10 15  1  0  0  0  0
 11 16  1  0  0  0  0
 11 17  1  0  0  0  0
 15 18  1  0  0  0  0
 16 19  1  0  0  0  0
 16 20  1  1  0  0  0
 17 21  1  0  0  0  0
 18 22  1  0  0  0  0
 18 23  2  0  0  0  0
 19 24  1  0  0  0  0
 20 25  1  0  0  0  0
 20 26  1  0  0  0  0
 20 27  1  0  0  0  0
 22 28  1  0  0  0  0
 23 29  1  0  0  0  0
  7  9  1  0  0  0  0
 21 24  1  0  0  0  0
 28 29  2  0  0  0  0
M  END
>  <MolRegNo>
2224179

>  <m>
=

>  <Value>
5500

>  <Unit>
nM

>  <Type>
IC50

>  <pValue>
5.26

>  <Ligand Efficiency>
0

>  <Binding Efficiency>
0

>  <Surface Efficiency>
0

>  <Assay Index>
1113038

>  <Assay Category>


>  <Assay Organism>
Homo sapiens

>  <Target ID>
17045

>  <Target Name>
Cytochrome P450 3A4

>  <Target Organism>
Homo sapiens

>  <Target Description>
Target is a single protein chain

>  <Sequence Accession>
P08684

>  <Reference>
Bioorg Med Chem 25 (20), 5490-5505 (2017)

>  <Pubmed ID>
28818462

>  <DOI>
10.1016/j.bmc.2017.08.012

$$$$
2242144
Actelion Java MolfileCreator 1.0

 31 34  0  0  0  0  0  0  0  0999 V2000
    0.0000   -0.0000   -0.0000 Cl  0  0  0  0  0  0  0  0  0  0  0  0
   -0.0119    1.5101   -0.0000 C   0  0  0  0  0  0  0  0  0  0  0  0
   -1.3199    2.2712   -0.0000 C   0  0  0  0  0  0  0  0  0  0  0  0
    1.2842    2.2712   -0.0000 C   0  0  0  0  0  0  0  0  0  0  0  0
   -2.6279    1.5339   -0.0000 N   0  0  0  0  0  0  0  0  0  0  0  0
   -1.3318    3.7932   -0.0000 C   0  0  0  0  0  0  0  0  0  0  0  0
    1.2723    3.7932   -0.0000 C   0  0  0  0  0  0  0  0  0  0  0  0
   -2.6398    0.0476   -0.0000 C   0  0  0  0  0  0  0  0  0  0  0  0
   -0.0476    4.5542   -0.0000 C   0  0  0  0  0  0  0  0  0  0  0  0
    2.5565    4.5661   -0.0000 S   0  0  0  0  0  0  0  0  0  0  0  0
   -3.9478   -0.6897   -0.0000 C   0  0  0  0  0  0  0  0  0  0  0  0
   -0.0595    6.0644   -0.0000 F   0  0  0  0  0  0  0  0  0  0  0  0
    1.7836    5.8860   -0.0000 O   0  0  0  0  0  0  0  0  0  0  0  0
    3.2938    5.8860   -0.0000 O   0  0  0  0  0  0  0  0  0  0  0  0
    3.8527    3.8289   -0.0000 N   0  0  0  0  0  0  0  0  0  0  0  0
   -3.9597   -2.1760   -0.0000 C   0  0  0  0  0  0  0  0  0  0  0  0
   -5.2558    0.0713   -0.0000 C   0  0  0  0  0  0  0  0  0  0  0  0
    5.1369    4.5899   -0.0000 C   0  0  0  0  0  0  0  0  0  0  0  0
   -5.2796   -2.9133   -0.0000 O   0  0  0  0  0  0  0  0  0  0  0  0
   -2.6755   -2.9133   -0.0000 C   0  0  0  0  0  0  0  0  0  0  0  0
   -6.5638   -0.6540   -0.0000 C   0  0  0  0  0  0  0  0  0  0  0  0
    5.2677    6.0881   -0.0000 S   0  0  0  0  0  0  0  0  0  0  0  0
    6.4924    3.9953   -0.0000 N   0  0  0  0  0  0  0  0  0  0  0  0
   -6.5876   -2.1404   -0.0000 C   0  0  0  0  0  0  0  0  0  0  0  0
   -2.6873   -4.3996   -0.0000 C   0  0  0  0  0  0  0  0  0  0  0  0
   -1.3912   -2.1523   -0.0000 C   0  0  0  0  0  0  0  0  0  0  0  0
    6.7184    6.4211   -0.0000 C   0  0  0  0  0  0  0  0  0  0  0  0
    7.4794    5.1250   -0.0000 C   0  0  0  0  0  0  0  0  0  0  0  0
   -1.4031   -5.1369   -0.0000 C   0  0  0  0  0  0  0  0  0  0  0  0
   -0.1070   -2.8895   -0.0000 C   0  0  0  0  0  0  0  0  0  0  0  0
   -0.1189   -4.3759   -0.0000 C   0  0  0  0  0  0  0  0  0  0  0  0
  1  2  1  0  0  0  0
  2  3  2  0  0  0  0
  2  4  1  0  0  0  0
  3  5  1  0  0  0  0
  3  6  1  0  0  0  0
  4  7  2  0  0  0  0
  5  8  1  0  0  0  0
  6  9  2  0  0  0  0
  7 10  1  0  0  0  0
 11  8  1  6  0  0  0
  9 12  1  0  0  0  0
 10 13  2  0  0  0  0
 10 14  2  0  0  0  0
 10 15  1  0  0  0  0
 11 16  1  0  0  0  0
 11 17  1  0  0  0  0
 15 18  1  0  0  0  0
 16 19  1  0  0  0  0
 16 20  1  1  0  0  0
 17 21  1  0  0  0  0
 18 22  1  0  0  0  0
 18 23  2  0  0  0  0
 19 24  1  0  0  0  0
 20 25  2  0  0  0  0
 20 26  1  0  0  0  0
 22 27  1  0  0  0  0
 23 28  1  0  0  0  0
 25 29  1  0  0  0  0
 26 30  2  0  0  0  0
 29 31  2  0  0  0  0
  7  9  1  0  0  0  0
 21 24  1  0  0  0  0
 27 28  2  0  0  0  0
 30 31  1  0  0  0  0
M  END
>  <MolRegNo>
2242144

>  <m>
=

>  <Value>
3600

>  <Unit>
nM

>  <Type>
IC50

>  <pValue>
5.44

>  <Ligand Efficiency>
0

>  <Binding Efficiency>
0

>  <Surface Efficiency>
0

>  <Assay Index>
1113038

>  <Assay Category>


>  <Assay Organism>
Homo sapiens

>  <Target ID>
17045

>  <Target Name>
Cytochrome P450 3A4

>  <Target Organism>
Homo sapiens

>  <Target Description>
Target is a single protein chain

>  <Sequence Accession>
P08684

>  <Reference>
Bioorg Med Chem 25 (20), 5490-5505 (2017)

>  <Pubmed ID>
28818462

>  <DOI>
10.1016/j.bmc.2017.08.012

$$$$
2214303
Actelion Java MolfileCreator 1.0

 29 32  0  0  0  0  0  0  0  0999 V2000
    0.0000   -0.0000   -0.0000 Cl  0  0  0  0  0  0  0  0  0  0  0  0
   -0.0119    1.5073   -0.0000 C   0  0  0  0  0  0  0  0  0  0  0  0
   -1.3174    2.2668   -0.0000 C   0  0  0  0  0  0  0  0  0  0  0  0
    1.2818    2.2668   -0.0000 C   0  0  0  0  0  0  0  0  0  0  0  0
   -2.6229    1.5310   -0.0000 N   0  0  0  0  0  0  0  0  0  0  0  0
   -1.3292    3.7860   -0.0000 C   0  0  0  0  0  0  0  0  0  0  0  0
    1.2699    3.7860   -0.0000 C   0  0  0  0  0  0  0  0  0  0  0  0
   -3.9284    2.2906   -0.0000 C   0  0  0  0  0  0  0  0  0  0  0  0
   -0.0475    4.5455   -0.0000 C   0  0  0  0  0  0  0  0  0  0  0  0
    2.5517    4.5574   -0.0000 S   0  0  0  0  0  0  0  0  0  0  0  0
   -5.2339    1.5547   -0.0000 C   0  0  0  0  0  0  0  0  0  0  0  0
   -0.0593    6.0528   -0.0000 F   0  0  0  0  0  0  0  0  0  0  0  0
    1.7802    5.8748   -0.0000 O   0  0  0  0  0  0  0  0  0  0  0  0
    3.2875    5.8748   -0.0000 O   0  0  0  0  0  0  0  0  0  0  0  0
    3.8453    3.8216   -0.0000 N   0  0  0  0  0  0  0  0  0  0  0  0
   -5.2458    0.0712   -0.0000 C   0  0  0  0  0  0  0  0  0  0  0  0
   -6.5394    2.3143   -0.0000 C   0  0  0  0  0  0  0  0  0  0  0  0
    5.1271    4.5812   -0.0000 C   0  0  0  0  0  0  0  0  0  0  0  0
   -6.5632   -0.6646   -0.0000 C   0  0  0  0  0  0  0  0  0  0  0  0
   -7.8449    1.5903   -0.0000 C   0  0  0  0  0  0  0  0  0  0  0  0
    5.2576    6.0766   -0.0000 S   0  0  0  0  0  0  0  0  0  0  0  0
    6.4801    3.9877   -0.0000 N   0  0  0  0  0  0  0  0  0  0  0  0
   -7.7856   -1.5310   -0.0000 O   0  0  0  0  0  0  0  0  0  0  0  0
   -5.3645   -1.5310   -0.0000 O   0  0  0  0  0  0  0  0  0  0  0  0
   -7.8687    0.0949   -0.0000 C   0  0  0  0  0  0  0  0  0  0  0  0
    6.7056    6.4089   -0.0000 C   0  0  0  0  0  0  0  0  0  0  0  0
    7.4651    5.1152   -0.0000 C   0  0  0  0  0  0  0  0  0  0  0  0
   -7.3346   -2.9433   -0.0000 C   0  0  0  0  0  0  0  0  0  0  0  0
   -5.8392   -2.9433   -0.0000 C   0  0  0  0  0  0  0  0  0  0  0  0
  1  2  1  0  0  0  0
  2  3  2  0  0  0  0
  2  4  1  0  0  0  0
  3  5  1  0  0  0  0
  3  6  1  0  0  0  0
  4  7  2  0  0  0  0
  5  8  1  0  0  0  0
  6  9  2  0  0  0  0
  7 10  1  0  0  0  0
  8 11  1  0  0  0  0
  9 12  1  0  0  0  0
 10 13  2  0  0  0  0
 10 14  2  0  0  0  0
 10 15  1  0  0  0  0
 11 16  1  0  0  0  0
 11 17  1  0  0  0  0
 15 18  1  0  0  0  0
 16 19  1  0  0  0  0
 17 20  1  0  0  0  0
 18 21  1  0  0  0  0
 18 22  2  0  0  0  0
 19 23  1  0  0  0  0
 19 24  1  0  0  0  0
 19 25  1  0  0  0  0
 21 26  1  0  0  0  0
 22 27  1  0  0  0  0
 23 28  1  0  0  0  0
 24 29  1  0  0  0  0
  7  9  1  0  0  0  0
 20 25  1  0  0  0  0
 26 27  2  0  0  0  0
 28 29  1  0  0  0  0
M  END
>  <MolRegNo>
2214303

>  <m>
=

>  <Value>
16500

>  <Unit>
nM

>  <Type>
IC50

>  <pValue>
4.78

>  <Ligand Efficiency>
0

>  <Binding Efficiency>
0

>  <Surface Efficiency>
0

>  <Assay Index>
1113038

>  <Assay Category>


>  <Assay Organism>
Homo sapiens

>  <Target ID>
17045

>  <Target Name>
Cytochrome P450 3A4

>  <Target Organism>
Homo sapiens

>  <Target Description>
Target is a single protein chain

>  <Sequence Accession>
P08684

>  <Reference>
Bioorg Med Chem 25 (20), 5490-5505 (2017)

>  <Pubmed ID>
28818462

>  <DOI>
10.1016/j.bmc.2017.08.012

$$$$
2240087
Actelion Java MolfileCreator 1.0

 28 30  0  0  0  0  0  0  0  0999 V2000
    0.0000   -0.0000   -0.0000 Cl  0  0  0  0  0  0  0  0  0  0  0  0
   -0.0118    1.5045   -0.0000 C   0  0  0  0  0  0  0  0  0  0  0  0
   -1.3150    2.2627   -0.0000 C   0  0  0  0  0  0  0  0  0  0  0  0
    1.2794    2.2627   -0.0000 C   0  0  0  0  0  0  0  0  0  0  0  0
   -2.6181    1.5282   -0.0000 N   0  0  0  0  0  0  0  0  0  0  0  0
   -1.3268    3.7790   -0.0000 C   0  0  0  0  0  0  0  0  0  0  0  0
    1.2676    3.7790   -0.0000 C   0  0  0  0  0  0  0  0  0  0  0  0
   -3.9212    2.2864   -0.0000 C   0  0  0  0  0  0  0  0  0  0  0  0
   -0.0474    4.5372   -0.0000 C   0  0  0  0  0  0  0  0  0  0  0  0
    2.5470    4.5490   -0.0000 S   0  0  0  0  0  0  0  0  0  0  0  0
   -5.2243    1.5519   -0.0000 C   0  0  0  0  0  0  0  0  0  0  0  0
   -0.0592    6.0417   -0.0000 F   0  0  0  0  0  0  0  0  0  0  0  0
    1.7770    5.8640   -0.0000 O   0  0  0  0  0  0  0  0  0  0  0  0
    3.2815    5.8640   -0.0000 O   0  0  0  0  0  0  0  0  0  0  0  0
    3.8382    3.8146   -0.0000 N   0  0  0  0  0  0  0  0  0  0  0  0
   -5.2243    0.0829   -0.0000 C   0  0  0  0  0  0  0  0  0  0  0  0
   -6.5274    2.3219   -0.0000 C   0  0  0  0  0  0  0  0  0  0  0  0
    5.1177    4.5727   -0.0000 C   0  0  0  0  0  0  0  0  0  0  0  0
   -6.5392   -0.6516   -0.0000 C   0  0  0  0  0  0  0  0  0  0  0  0
   -7.8305    1.5993   -0.0000 C   0  0  0  0  0  0  0  0  0  0  0  0
    5.2480    6.0654   -0.0000 S   0  0  0  0  0  0  0  0  0  0  0  0
    6.4682    3.9804   -0.0000 N   0  0  0  0  0  0  0  0  0  0  0  0
   -7.8423    0.1066   -0.0000 C   0  0  0  0  0  0  0  0  0  0  0  0
    6.6932    6.3971   -0.0000 C   0  0  0  0  0  0  0  0  0  0  0  0
    7.4514    5.1058   -0.0000 C   0  0  0  0  0  0  0  0  0  0  0  0
   -9.1573   -0.6279   -0.0000 N   0  0  0  0  0  0  0  0  0  0  0  0
  -10.4604    0.1422   -0.0000 O   0  0  0  0  0  0  0  0  0  0  0  0
  -11.7754   -0.5923   -0.0000 C   0  0  0  0  0  0  0  0  0  0  0  0
  1  2  1  0  0  0  0
  2  3  2  0  0  0  0
  2  4  1  0  0  0  0
  3  5  1  0  0  0  0
  3  6  1  0  0  0  0
  4  7  2  0  0  0  0
  5  8  1  0  0  0  0
  6  9  2  0  0  0  0
  7 10  1  0  0  0  0
  8 11  1  0  0  0  0
  9 12  1  0  0  0  0
 10 13  2  0  0  0  0
 10 14  2  0  0  0  0
 10 15  1  0  0  0  0
 11 16  1  0  0  0  0
 11 17  1  0  0  0  0
 15 18  1  0  0  0  0
 16 19  1  0  0  0  0
 17 20  1  0  0  0  0
 18 21  1  0  0  0  0
 18 22  2  0  0  0  0
 19 23  1  0  0  0  0
 21 24  1  0  0  0  0
 22 25  1  0  0  0  0
 23 26  2  3  0  0  0
 26 27  1  0  0  0  0
 27 28  1  0  0  0  0
  7  9  1  0  0  0  0
 20 23  1  0  0  0  0
 24 25  2  0  0  0  0
M  END
>  <MolRegNo>
2240087

>  <m>
=

>  <Value>
13700

>  <Unit>
nM

>  <Type>
IC50

>  <pValue>
4.86

>  <Ligand Efficiency>
0

>  <Binding Efficiency>
0

>  <Surface Efficiency>
0

>  <Assay Index>
1113038

>  <Assay Category>


>  <Assay Organism>
Homo sapiens

>  <Target ID>
17045

>  <Target Name>
Cytochrome P450 3A4

>  <Target Organism>
Homo sapiens

>  <Target Description>
Target is a single protein chain

>  <Sequence Accession>
P08684

>  <Reference>
Bioorg Med Chem 25 (20), 5490-5505 (2017)

>  <Pubmed ID>
28818462

>  <DOI>
10.1016/j.bmc.2017.08.012

$$$$
2244266
Actelion Java MolfileCreator 1.0

 23 26  0  0  0  0  0  0  0  0999 V2000
    0.0000   -0.0000   -0.0000 Cl  0  0  0  0  0  0  0  0  0  0  0  0
   -0.0119   -1.4977   -0.0000 C   0  0  0  0  0  0  0  0  0  0  0  0
    1.2838   -2.2347   -0.0000 C   0  0  0  0  0  0  0  0  0  0  0  0
   -1.3194   -2.2347   -0.0000 C   0  0  0  0  0  0  0  0  0  0  0  0
    1.2838   -3.7325   -0.0000 C   0  0  0  0  0  0  0  0  0  0  0  0
    2.6983   -1.7474   -0.0000 C   0  0  0  0  0  0  0  0  0  0  0  0
   -1.3313   -3.7325   -0.0000 C   0  0  0  0  0  0  0  0  0  0  0  0
   -0.0357   -4.4813   -0.0000 N   0  0  0  0  0  0  0  0  0  0  0  0
    2.7102   -4.1842   -0.0000 N   0  0  0  0  0  0  0  0  0  0  0  0
    3.1381   -0.2972   -0.0000 Cl  0  0  0  0  0  0  0  0  0  0  0  0
    3.5779   -2.9479   -0.0000 C   0  0  0  0  0  0  0  0  0  0  0  0
   -2.6508   -4.4694   -0.0000 C   0  0  0  0  0  0  0  0  0  0  0  0
    3.1738   -5.5987   -0.0000 C   0  0  0  0  0  0  0  0  0  0  0  0
    5.0757   -2.9242   -0.0000 C   0  0  0  0  0  0  0  0  0  0  0  0
   -3.9702   -3.7087   -0.0000 O   0  0  0  0  0  0  0  0  0  0  0  0
   -2.6626   -5.9672   -0.0000 N   0  0  0  0  0  0  0  0  0  0  0  0
    4.6359   -5.8840   -0.0000 C   0  0  0  0  0  0  0  0  0  0  0  0
    2.1515   -6.7042   -0.0000 C   0  0  0  0  0  0  0  0  0  0  0  0
    6.3713   -3.6611   -0.0000 C   0  0  0  0  0  0  0  0  0  0  0  0
    6.3595   -2.1515   -0.0000 C   0  0  0  0  0  0  0  0  0  0  0  0
    5.0876   -7.3104   -0.0000 N   0  0  0  0  0  0  0  0  0  0  0  0
    2.6032   -8.1187   -0.0000 C   0  0  0  0  0  0  0  0  0  0  0  0
    4.0772   -8.4159   -0.0000 C   0  0  0  0  0  0  0  0  0  0  0  0
  1  2  1  0  0  0  0
  2  3  2  0  0  0  0
  2  4  1  0  0  0  0
  3  5  1  0  0  0  0
  3  6  1  0  0  0  0
  4  7  2  0  0  0  0
  5  8  2  0  0  0  0
  5  9  1  0  0  0  0
  6 10  1  0  0  0  0
  6 11  2  0  0  0  0
  7 12  1  0  0  0  0
 13  9  1  6  0  0  0
 11 14  1  0  0  0  0
 12 15  2  0  0  0  0
 12 16  1  0  0  0  0
 13 17  1  0  0  0  0
 13 18  1  0  0  0  0
 14 19  1  0  0  0  0
 14 20  1  0  0  0  0
 17 21  1  0  0  0  0
 18 22  1  0  0  0  0
 21 23  1  0  0  0  0
  7  8  1  0  0  0  0
  9 11  1  0  0  0  0
 19 20  1  0  0  0  0
 22 23  1  0  0  0  0
M  END
>  <MolRegNo>
2244266

>  <m>
=

>  <Value>
21000

>  <Unit>
nM

>  <Type>
IC50

>  <pValue>
4.68

>  <Ligand Efficiency>
0

>  <Binding Efficiency>
0

>  <Surface Efficiency>
0

>  <Assay Index>
1113925

>  <Assay Category>


>  <Assay Organism>
Homo sapiens

>  <Target ID>
17045

>  <Target Name>
Cytochrome P450 3A4

>  <Target Organism>
Homo sapiens

>  <Target Description>
Target is a single protein chain

>  <Sequence Accession>
P08684

>  <Reference>
Bioorg Med Chem Lett 27 (20), 4735-4740 (2017)

>  <Pubmed ID>
28927793

>  <DOI>
10.1016/j.bmcl.2017.08.068

$$$$
2227947
Actelion Java MolfileCreator 1.0

 33 33  0  0  0  0  0  0  0  0999 V2000
    0.0000   -0.0000   -0.0000 Cl  0  0  0  0  0  0  0  0  0  0  0  0
   -6.2483    0.1893   -0.0000 Cl  0  0  0  0  0  0  0  0  0  0  0  0
    1.3254    2.7455   -0.0000 S   0  0  0  0  0  0  0  0  0  0  0  0
    0.5562    4.0591   -0.0000 O   0  0  0  0  0  0  0  0  0  0  0  0
    2.0591    4.0591   -0.0000 O   0  0  0  0  0  0  0  0  0  0  0  0
    0.0237    2.0118   -0.0000 N   0  0  0  0  0  0  0  0  0  0  0  0
    2.6035    1.9999   -0.0000 C   0  0  0  0  0  0  0  0  0  0  0  0
   -1.2781    2.7691   -0.0000 C   0  0  0  0  0  0  0  0  0  0  0  0
    3.8934    2.7573   -0.0000 C   0  0  0  0  0  0  0  0  0  0  0  0
   -2.5798    2.0354   -0.0000 C   0  0  0  0  0  0  0  0  0  0  0  0
   -3.8815    2.7928   -0.0000 C   0  0  0  0  0  0  0  0  0  0  0  0
   -5.1833    2.0591   -0.0000 C   0  0  0  0  0  0  0  0  0  0  0  0
   -6.4850    2.8165   -0.0000 N   0  0  0  0  0  0  0  0  0  0  0  0
   -7.7986    2.0828   -0.0000 C   0  0  0  0  0  0  0  0  0  0  0  0
   -6.4969    4.3194   -0.0000 C   0  0  0  0  0  0  0  0  0  0  0  0
   -9.1003    2.8402   -0.0000 C   0  0  0  0  0  0  0  0  0  0  0  0
   -7.8104    5.0886   -0.0000 C   0  0  0  0  0  0  0  0  0  0  0  0
   -9.1122    4.3431   -0.0000 C   0  0  0  0  0  0  0  0  0  0  0  0
  -10.4139    5.1004   -0.0000 O   0  0  0  0  0  0  0  0  0  0  0  0
  -10.4257    6.6034   -0.0000 C   0  0  0  0  0  0  0  0  0  0  0  0
   -9.1477    7.3726   -0.0000 C   0  0  0  0  0  0  0  0  0  0  0  0
  -11.7275    7.3607   -0.0000 C   0  0  0  0  0  0  0  0  0  0  0  0
   -7.8696    6.6389   -0.0000 N   0  0  0  0  0  0  0  0  0  0  0  0
   -9.1595    8.8873   -0.0000 C   0  0  0  0  0  0  0  0  0  0  0  0
  -11.7393    8.8755   -0.0000 C   0  0  0  0  0  0  0  0  0  0  0  0
   -6.5915    7.3962   -0.0000 C   0  0  0  0  0  0  0  0  0  0  0  0
  -10.4612    9.6447   -0.0000 C   0  0  0  0  0  0  0  0  0  0  0  0
   -7.8814    9.6447   -0.0000 C   0  0  0  0  0  0  0  0  0  0  0  0
  -13.0410    9.6329   -0.0000 C   0  0  0  0  0  0  0  0  0  0  0  0
   -6.6152    8.9110   -0.0000 C   0  0  0  0  0  0  0  0  0  0  0  0
  -14.3428    8.8991   -0.0000 C   0  0  0  0  0  0  0  0  0  0  0  0
  -15.6445    9.6565   -0.0000 C   0  0  0  0  0  0  0  0  0  0  0  0
  -16.9462    8.9228   -0.0000 C   0  0  0  0  0  0  0  0  0  0  0  0
  3  4  2  0  0  0  0
  3  5  2  0  0  0  0
  3  6  1  0  0  0  0
  3  7  1  0  0  0  0
  6  8  1  0  0  0  0
  7  9  1  0  0  0  0
  8 10  1  0  0  0  0
 10 11  1  0  0  0  0
 11 12  1  0  0  0  0
 12 13  1  0  0  0  0
 13 14  1  0  0  0  0
 13 15  1  0  0  0  0
 14 16  1  0  0  0  0
 15 17  1  0  0  0  0
 16 18  1  0  0  0  0
 18 19  1  0  0  0  0
 19 20  1  0  0  0  0
 20 21  1  0  0  0  0
 20 22  2  0  0  0  0
 21 23  2  0  0  0  0
 21 24  1  0  0  0  0
 22 25  1  0  0  0  0
 23 26  1  0  0  0  0
 24 27  1  0  0  0  0
 24 28  2  0  0  0  0
 25 29  1  0  0  0  0
 26 30  2  0  0  0  0
 29 31  1  0  0  0  0
 31 32  1  0  0  0  0
 32 33  1  0  0  0  0
 17 18  1  0  0  0  0
 25 27  2  0  0  0  0
 28 30  1  0  0  0  0
M  END
>  <MolRegNo>
2227947

>  <m>
=

>  <Value>
4000

>  <Unit>
nM

>  <Type>
IC50

>  <pValue>
5.4

>  <Ligand Efficiency>
0

>  <Binding Efficiency>
0

>  <Surface Efficiency>
0

>  <Assay Index>
1114314

>  <Assay Category>


>  <Assay Organism>
Homo sapiens

>  <Target ID>
17045

>  <Target Name>
Cytochrome P450 3A4

>  <Target Organism>
Homo sapiens

>  <Target Description>
Target is a single protein chain

>  <Sequence Accession>
P08684

>  <Reference>
Bioorg Med Chem Lett 27 (21), 4914-4919 (2017)

>  <Pubmed ID>
28958623

>  <DOI>
10.1016/j.bmcl.2017.09.020

$$$$
2229517
Actelion Java MolfileCreator 1.0

 28 31  0  0  0  0  0  0  0  0999 V2000
    0.0000   -0.0000   -0.0000 F   0  0  0  0  0  0  0  0  0  0  0  0
   -1.3035    0.7584   -0.0000 C   0  0  0  0  0  0  0  0  0  0  0  0
   -1.3272    2.2751   -0.0000 C   0  0  0  0  0  0  0  0  0  0  0  0
   -2.6069    0.0237   -0.0000 C   0  0  0  0  0  0  0  0  0  0  0  0
   -2.6306    3.0216   -0.0000 N   0  0  0  0  0  0  0  0  0  0  0  0
   -3.9104    0.7821   -0.0000 C   0  0  0  0  0  0  0  0  0  0  0  0
   -3.9222    2.2751   -0.0000 C   0  0  0  0  0  0  0  0  0  0  0  0
   -5.2257    3.0335   -0.0000 N   0  0  0  0  0  0  0  0  0  0  0  0
   -6.5291    2.2988   -0.0000 C   0  0  0  0  0  0  0  0  0  0  0  0
   -6.5410    0.8176   -0.0000 O   0  0  0  0  0  0  0  0  0  0  0  0
   -7.8326    3.0572   -0.0000 C   0  0  0  0  0  0  0  0  0  0  0  0
   -9.1479    2.3225   -0.0000 C   0  0  0  0  0  0  0  0  0  0  0  0
   -7.8444    4.5739   -0.0000 C   0  0  0  0  0  0  0  0  0  0  0  0
   -9.4678    0.8769   -0.0000 N   0  0  0  0  0  0  0  0  0  0  0  0
  -10.4513    3.0809   -0.0000 N   0  0  0  0  0  0  0  0  0  0  0  0
   -9.1479    5.3323   -0.0000 C   0  0  0  0  0  0  0  0  0  0  0  0
  -10.9609    0.7228   -0.0000 C   0  0  0  0  0  0  0  0  0  0  0  0
  -11.5652    2.0855   -0.0000 N   0  0  0  0  0  0  0  0  0  0  0  0
  -10.4632    4.5976   -0.0000 C   0  0  0  0  0  0  0  0  0  0  0  0
   -9.1597    6.8372   -0.0000 O   0  0  0  0  0  0  0  0  0  0  0  0
   -7.8800    7.5956   -0.0000 C   0  0  0  0  0  0  0  0  0  0  0  0
   -6.6002    6.8609   -0.0000 C   0  0  0  0  0  0  0  0  0  0  0  0
   -7.9037    9.1005   -0.0000 C   0  0  0  0  0  0  0  0  0  0  0  0
   -5.3205    7.6193   -0.0000 N   0  0  0  0  0  0  0  0  0  0  0  0
   -6.6239    9.8707   -0.0000 C   0  0  0  0  0  0  0  0  0  0  0  0
   -5.3323    9.1242   -0.0000 C   0  0  0  0  0  0  0  0  0  0  0  0
   -6.6476   11.3756   -0.0000 C   0  0  0  0  0  0  0  0  0  0  0  0
   -6.6713   12.8805   -0.0000 N   0  0  0  0  0  0  0  0  0  0  0  0
  1  2  1  0  0  0  0
  2  3  2  0  0  0  0
  2  4  1  0  0  0  0
  3  5  1  0  0  0  0
  4  6  2  0  0  0  0
  5  7  2  0  0  0  0
  7  8  1  0  0  0  0
  8  9  1  0  0  0  0
  9 10  2  0  0  0  0
  9 11  1  0  0  0  0
 11 12  1  0  0  0  0
 11 13  2  0  0  0  0
 12 14  2  0  0  0  0
 12 15  1  0  0  0  0
 13 16  1  0  0  0  0
 14 17  1  0  0  0  0
 15 18  1  0  0  0  0
 15 19  1  0  0  0  0
 16 20  1  0  0  0  0
 20 21  1  0  0  0  0
 21 22  2  0  0  0  0
 21 23  1  0  0  0  0
 22 24  1  0  0  0  0
 23 25  2  0  0  0  0
 24 26  2  0  0  0  0
 25 27  1  0  0  0  0
 27 28  3  0  0  0  0
  6  7  1  0  0  0  0
 16 19  2  0  0  0  0
 17 18  2  0  0  0  0
 25 26  1  0  0  0  0
M  END
>  <MolRegNo>
2229517

>  <m>
=

>  <Value>
10600

>  <Unit>
nM

>  <Type>
IC50

>  <pValue>
4.97

>  <Ligand Efficiency>
0

>  <Binding Efficiency>
0

>  <Surface Efficiency>
0

>  <Assay Index>
1114364

>  <Assay Category>


>  <Assay Organism>
Homo sapiens

>  <Target ID>
17045

>  <Target Name>
Cytochrome P450 3A4

>  <Target Organism>
Homo sapiens

>  <Target Description>
Target is a single protein chain

>  <Sequence Accession>
P08684

>  <Reference>
Bioorg Med Chem Lett 27 (21), 4858-4866 (2017)

>  <Pubmed ID>
28958625

>  <DOI>
10.1016/j.bmcl.2017.09.042

$$$$
2221644
Actelion Java MolfileCreator 1.0

 28 31  0  0  0  0  0  0  0  0999 V2000
    0.0000   -0.0000   -0.0000 F   0  0  0  0  0  0  0  0  0  0  0  0
   -1.3140   -0.7526   -0.0000 C   0  0  0  0  0  0  0  0  0  0  0  0
   -1.3260   -2.2458   -0.0000 N   0  0  0  0  0  0  0  0  0  0  0  0
   -2.6400    0.0119   -0.0000 C   0  0  0  0  0  0  0  0  0  0  0  0
   -2.6400   -2.9864   -0.0000 C   0  0  0  0  0  0  0  0  0  0  0  0
   -2.6639    1.5291   -0.0000 F   0  0  0  0  0  0  0  0  0  0  0  0
   -3.9540   -0.7406   -0.0000 C   0  0  0  0  0  0  0  0  0  0  0  0
   -3.9540   -2.2219   -0.0000 C   0  0  0  0  0  0  0  0  0  0  0  0
   -5.2681   -2.9625   -0.0000 O   0  0  0  0  0  0  0  0  0  0  0  0
   -5.2800   -4.4558   -0.0000 C   0  0  0  0  0  0  0  0  0  0  0  0
   -6.5940   -5.1964   -0.0000 C   0  0  0  0  0  0  0  0  0  0  0  0
   -3.9899   -5.1964   -0.0000 C   0  0  0  0  0  0  0  0  0  0  0  0
   -6.6060   -6.7015   -0.0000 N   0  0  0  0  0  0  0  0  0  0  0  0
   -4.0018   -6.7015   -0.0000 C   0  0  0  0  0  0  0  0  0  0  0  0
   -7.7289   -7.7050   -0.0000 N   0  0  0  0  0  0  0  0  0  0  0  0
   -5.3158   -7.4422   -0.0000 C   0  0  0  0  0  0  0  0  0  0  0  0
   -2.7117   -7.4422   -0.0000 C   0  0  0  0  0  0  0  0  0  0  0  0
   -7.1196   -9.0668   -0.0000 C   0  0  0  0  0  0  0  0  0  0  0  0
   -5.6384   -8.8996   -0.0000 N   0  0  0  0  0  0  0  0  0  0  0  0
   -2.7236   -8.9354   -0.0000 O   0  0  0  0  0  0  0  0  0  0  0  0
   -1.4215   -6.6777   -0.0000 N   0  0  0  0  0  0  0  0  0  0  0  0
   -0.1314   -7.4183   -0.0000 C   0  0  0  0  0  0  0  0  0  0  0  0
    1.1468   -6.6418   -0.0000 N   0  0  0  0  0  0  0  0  0  0  0  0
   -0.1553   -8.9115   -0.0000 C   0  0  0  0  0  0  0  0  0  0  0  0
    2.4369   -7.3705   -0.0000 C   0  0  0  0  0  0  0  0  0  0  0  0
    1.1348   -9.6521   -0.0000 C   0  0  0  0  0  0  0  0  0  0  0  0
    2.4369   -8.8757   -0.0000 C   0  0  0  0  0  0  0  0  0  0  0  0
    3.7271   -9.6163   -0.0000 F   0  0  0  0  0  0  0  0  0  0  0  0
  1  2  1  0  0  0  0
  2  3  2  0  0  0  0
  2  4  1  0  0  0  0
  3  5  1  0  0  0  0
  4  6  1  0  0  0  0
  4  7  2  0  0  0  0
  5  8  2  0  0  0  0
  8  9  1  0  0  0  0
  9 10  1  0  0  0  0
 10 11  2  0  0  0  0
 10 12  1  0  0  0  0
 11 13  1  0  0  0  0
 12 14  2  0  0  0  0
 13 15  1  0  0  0  0
 13 16  1  0  0  0  0
 14 17  1  0  0  0  0
 15 18  2  0  0  0  0
 16 19  2  0  0  0  0
 17 20  2  0  0  0  0
 17 21  1  0  0  0  0
 21 22  1  0  0  0  0
 22 23  2  0  0  0  0
 22 24  1  0  0  0  0
 23 25  1  0  0  0  0
 24 26  2  0  0  0  0
 25 27  2  0  0  0  0
 27 28  1  0  0  0  0
  7  8  1  0  0  0  0
 14 16  1  0  0  0  0
 18 19  1  0  0  0  0
 26 27  1  0  0  0  0
M  END
>  <MolRegNo>
2221644

>  <m>
=

>  <Value>
23000

>  <Unit>
nM

>  <Type>
IC50

>  <pValue>
4.64

>  <Ligand Efficiency>
0

>  <Binding Efficiency>
0

>  <Surface Efficiency>
0

>  <Assay Index>
1114364

>  <Assay Category>


>  <Assay Organism>
Homo sapiens

>  <Target ID>
17045

>  <Target Name>
Cytochrome P450 3A4

>  <Target Organism>
Homo sapiens

>  <Target Description>
Target is a single protein chain

>  <Sequence Accession>
P08684

>  <Reference>
Bioorg Med Chem Lett 27 (21), 4858-4866 (2017)

>  <Pubmed ID>
28958625

>  <DOI>
10.1016/j.bmcl.2017.09.042

$$$$
2211358
Actelion Java MolfileCreator 1.0

 27 30  0  0  0  0  0  0  0  0999 V2000
    0.0000   -0.0000   -0.0000 F   0  0  0  0  0  0  0  0  0  0  0  0
    0.0000   -1.4965   -0.0000 C   0  0  0  0  0  0  0  0  0  0  0  0
    1.3049   -2.2387   -0.0000 C   0  0  0  0  0  0  0  0  0  0  0  0
   -1.3169   -2.2507   -0.0000 C   0  0  0  0  0  0  0  0  0  0  0  0
    1.2929   -3.7352   -0.0000 N   0  0  0  0  0  0  0  0  0  0  0  0
   -1.3169   -3.7471   -0.0000 C   0  0  0  0  0  0  0  0  0  0  0  0
   -0.0239   -4.4774   -0.0000 C   0  0  0  0  0  0  0  0  0  0  0  0
   -2.6338   -4.4894   -0.0000 O   0  0  0  0  0  0  0  0  0  0  0  0
   -2.6457   -5.9858   -0.0000 C   0  0  0  0  0  0  0  0  0  0  0  0
   -3.9626   -6.7281   -0.0000 C   0  0  0  0  0  0  0  0  0  0  0  0
   -1.3528   -6.7281   -0.0000 C   0  0  0  0  0  0  0  0  0  0  0  0
   -3.9746   -8.2365   -0.0000 N   0  0  0  0  0  0  0  0  0  0  0  0
   -1.3648   -8.2365   -0.0000 C   0  0  0  0  0  0  0  0  0  0  0  0
   -2.6817   -8.9788   -0.0000 C   0  0  0  0  0  0  0  0  0  0  0  0
   -5.0999   -9.2421   -0.0000 C   0  0  0  0  0  0  0  0  0  0  0  0
   -0.0718   -8.9788   -0.0000 C   0  0  0  0  0  0  0  0  0  0  0  0
   -3.0049  -10.4393   -0.0000 N   0  0  0  0  0  0  0  0  0  0  0  0
   -4.4894  -10.6069   -0.0000 N   0  0  0  0  0  0  0  0  0  0  0  0
   -0.0838  -10.4752   -0.0000 O   0  0  0  0  0  0  0  0  0  0  0  0
    1.2211   -8.2126   -0.0000 N   0  0  0  0  0  0  0  0  0  0  0  0
    2.5141   -8.9548   -0.0000 C   0  0  0  0  0  0  0  0  0  0  0  0
    3.7950   -8.1767   -0.0000 N   0  0  0  0  0  0  0  0  0  0  0  0
    2.4901  -10.4513   -0.0000 C   0  0  0  0  0  0  0  0  0  0  0  0
    5.0880   -8.9069   -0.0000 C   0  0  0  0  0  0  0  0  0  0  0  0
    3.7831  -11.1935   -0.0000 C   0  0  0  0  0  0  0  0  0  0  0  0
    5.0880  -10.4154   -0.0000 C   0  0  0  0  0  0  0  0  0  0  0  0
    6.3809  -11.1576   -0.0000 F   0  0  0  0  0  0  0  0  0  0  0  0
  1  2  1  0  0  0  0
  2  3  2  0  0  0  0
  2  4  1  0  0  0  0
  3  5  1  0  0  0  0
  4  6  2  0  0  0  0
  5  7  2  0  0  0  0
  6  8  1  0  0  0  0
  8  9  1  0  0  0  0
  9 10  2  0  0  0  0
  9 11  1  0  0  0  0
 10 12  1  0  0  0  0
 11 13  2  0  0  0  0
 12 14  1  0  0  0  0
 12 15  1  0  0  0  0
 13 16  1  0  0  0  0
 14 17  2  0  0  0  0
 15 18  2  0  0  0  0
 16 19  2  0  0  0  0
 16 20  1  0  0  0  0
 20 21  1  0  0  0  0
 21 22  2  0  0  0  0
 21 23  1  0  0  0  0
 22 24  1  0  0  0  0
 23 25  2  0  0  0  0
 24 26  2  0  0  0  0
 26 27  1  0  0  0  0
  6  7  1  0  0  0  0
 13 14  1  0  0  0  0
 17 18  1  0  0  0  0
 25 26  1  0  0  0  0
M  END
>  <MolRegNo>
2211358

>  <m>
=

>  <Value>
17800

>  <Unit>
nM

>  <Type>
IC50

>  <pValue>
4.75

>  <Ligand Efficiency>
0

>  <Binding Efficiency>
0

>  <Surface Efficiency>
0

>  <Assay Index>
1114364

>  <Assay Category>


>  <Assay Organism>
Homo sapiens

>  <Target ID>
17045

>  <Target Name>
Cytochrome P450 3A4

>  <Target Organism>
Homo sapiens

>  <Target Description>
Target is a single protein chain

>  <Sequence Accession>
P08684

>  <Reference>
Bioorg Med Chem Lett 27 (21), 4858-4866 (2017)

>  <Pubmed ID>
28958625

>  <DOI>
10.1016/j.bmcl.2017.09.042

$$$$
2244457
Actelion Java MolfileCreator 1.0

 28 31  0  0  0  0  0  0  0  0999 V2000
    0.0000   -0.0000   -0.0000 F   0  0  0  0  0  0  0  0  0  0  0  0
    0.0000   -1.4964   -0.0000 C   0  0  0  0  0  0  0  0  0  0  0  0
    1.3048   -2.2386   -0.0000 C   0  0  0  0  0  0  0  0  0  0  0  0
   -1.3168   -2.2505   -0.0000 C   0  0  0  0  0  0  0  0  0  0  0  0
    1.2929   -3.7349   -0.0000 N   0  0  0  0  0  0  0  0  0  0  0  0
   -1.3168   -3.7469   -0.0000 C   0  0  0  0  0  0  0  0  0  0  0  0
   -0.0239   -4.4771   -0.0000 C   0  0  0  0  0  0  0  0  0  0  0  0
   -2.6336   -4.4891   -0.0000 O   0  0  0  0  0  0  0  0  0  0  0  0
   -2.6456   -5.9855   -0.0000 C   0  0  0  0  0  0  0  0  0  0  0  0
   -3.9624   -6.7277   -0.0000 C   0  0  0  0  0  0  0  0  0  0  0  0
   -1.3527   -6.7277   -0.0000 C   0  0  0  0  0  0  0  0  0  0  0  0
   -3.9743   -8.2360   -0.0000 N   0  0  0  0  0  0  0  0  0  0  0  0
   -1.3647   -8.2360   -0.0000 C   0  0  0  0  0  0  0  0  0  0  0  0
   -2.6815   -8.9782   -0.0000 C   0  0  0  0  0  0  0  0  0  0  0  0
   -5.0996   -9.2416   -0.0000 C   0  0  0  0  0  0  0  0  0  0  0  0
   -0.0718   -8.9782   -0.0000 C   0  0  0  0  0  0  0  0  0  0  0  0
   -3.0047  -10.4386   -0.0000 N   0  0  0  0  0  0  0  0  0  0  0  0
   -4.4891  -10.6062   -0.0000 C   0  0  0  0  0  0  0  0  0  0  0  0
   -0.0838  -10.4746   -0.0000 O   0  0  0  0  0  0  0  0  0  0  0  0
    1.2210   -8.2121   -0.0000 N   0  0  0  0  0  0  0  0  0  0  0  0
    2.5139   -8.9543   -0.0000 C   0  0  0  0  0  0  0  0  0  0  0  0
    3.7948   -8.1761   -0.0000 N   0  0  0  0  0  0  0  0  0  0  0  0
    2.4900  -10.4506   -0.0000 C   0  0  0  0  0  0  0  0  0  0  0  0
    5.0876   -8.9064   -0.0000 C   0  0  0  0  0  0  0  0  0  0  0  0
    3.7828  -11.1928   -0.0000 C   0  0  0  0  0  0  0  0  0  0  0  0
    5.0876  -10.4147   -0.0000 C   0  0  0  0  0  0  0  0  0  0  0  0
    6.3805  -11.1569   -0.0000 O   0  0  0  0  0  0  0  0  0  0  0  0
    7.6734  -10.3908   -0.0000 C   0  0  0  0  0  0  0  0  0  0  0  0
  1  2  1  0  0  0  0
  2  3  2  0  0  0  0
  2  4  1  0  0  0  0
  3  5  1  0  0  0  0
  4  6  2  0  0  0  0
  5  7  2  0  0  0  0
  6  8  1  0  0  0  0
  8  9  1  0  0  0  0
  9 10  2  0  0  0  0
  9 11  1  0  0  0  0
 10 12  1  0  0  0  0
 11 13  2  0  0  0  0
 12 14  1  0  0  0  0
 12 15  1  0  0  0  0
 13 16  1  0  0  0  0
 14 17  2  0  0  0  0
 15 18  2  0  0  0  0
 16 19  2  0  0  0  0
 16 20  1  0  0  0  0
 20 21  1  0  0  0  0
 21 22  2  0  0  0  0
 21 23  1  0  0  0  0
 22 24  1  0  0  0  0
 23 25  2  0  0  0  0
 24 26  2  0  0  0  0
 26 27  1  0  0  0  0
 27 28  1  0  0  0  0
  6  7  1  0  0  0  0
 13 14  1  0  0  0  0
 17 18  1  0  0  0  0
 25 26  1  0  0  0  0
M  END
>  <MolRegNo>
2244457

>  <m>
=

>  <Value>
2000

>  <Unit>
nM

>  <Type>
IC50

>  <pValue>
5.7

>  <Ligand Efficiency>
0

>  <Binding Efficiency>
0

>  <Surface Efficiency>
0

>  <Assay Index>
1114364

>  <Assay Category>


>  <Assay Organism>
Homo sapiens

>  <Target ID>
17045

>  <Target Name>
Cytochrome P450 3A4

>  <Target Organism>
Homo sapiens

>  <Target Description>
Target is a single protein chain

>  <Sequence Accession>
P08684

>  <Reference>
Bioorg Med Chem Lett 27 (21), 4858-4866 (2017)

>  <Pubmed ID>
28958625

>  <DOI>
10.1016/j.bmcl.2017.09.042

$$$$
2220227
Actelion Java MolfileCreator 1.0

 27 30  0  0  0  0  0  0  0  0999 V2000
    0.0000   -0.0000   -0.0000 F   0  0  0  0  0  0  0  0  0  0  0  0
    0.0000   -1.4965   -0.0000 C   0  0  0  0  0  0  0  0  0  0  0  0
    1.3049   -2.2387   -0.0000 C   0  0  0  0  0  0  0  0  0  0  0  0
   -1.3169   -2.2507   -0.0000 C   0  0  0  0  0  0  0  0  0  0  0  0
    1.2929   -3.7352   -0.0000 N   0  0  0  0  0  0  0  0  0  0  0  0
   -1.3169   -3.7471   -0.0000 C   0  0  0  0  0  0  0  0  0  0  0  0
   -0.0239   -4.4774   -0.0000 C   0  0  0  0  0  0  0  0  0  0  0  0
   -2.6338   -4.4894   -0.0000 O   0  0  0  0  0  0  0  0  0  0  0  0
   -2.6457   -5.9858   -0.0000 C   0  0  0  0  0  0  0  0  0  0  0  0
   -3.9626   -6.7281   -0.0000 C   0  0  0  0  0  0  0  0  0  0  0  0
   -1.3528   -6.7281   -0.0000 C   0  0  0  0  0  0  0  0  0  0  0  0
   -3.9746   -8.2365   -0.0000 N   0  0  0  0  0  0  0  0  0  0  0  0
   -1.3648   -8.2365   -0.0000 C   0  0  0  0  0  0  0  0  0  0  0  0
   -2.6817   -8.9788   -0.0000 C   0  0  0  0  0  0  0  0  0  0  0  0
   -5.0999   -9.2421   -0.0000 C   0  0  0  0  0  0  0  0  0  0  0  0
   -0.0718   -8.9788   -0.0000 C   0  0  0  0  0  0  0  0  0  0  0  0
   -3.0049  -10.4393   -0.0000 N   0  0  0  0  0  0  0  0  0  0  0  0
   -4.4894  -10.6069   -0.0000 C   0  0  0  0  0  0  0  0  0  0  0  0
   -0.0838  -10.4752   -0.0000 O   0  0  0  0  0  0  0  0  0  0  0  0
    1.2211   -8.2126   -0.0000 N   0  0  0  0  0  0  0  0  0  0  0  0
    2.5141   -8.9548   -0.0000 C   0  0  0  0  0  0  0  0  0  0  0  0
    3.7950   -8.1767   -0.0000 N   0  0  0  0  0  0  0  0  0  0  0  0
    2.4901  -10.4513   -0.0000 C   0  0  0  0  0  0  0  0  0  0  0  0
    5.0880   -8.9069   -0.0000 C   0  0  0  0  0  0  0  0  0  0  0  0
    3.7831  -11.1935   -0.0000 C   0  0  0  0  0  0  0  0  0  0  0  0
    5.0880  -10.4154   -0.0000 C   0  0  0  0  0  0  0  0  0  0  0  0
    6.3809  -11.1576   -0.0000 C   0  0  0  0  0  0  0  0  0  0  0  0
  1  2  1  0  0  0  0
  2  3  2  0  0  0  0
  2  4  1  0  0  0  0
  3  5  1  0  0  0  0
  4  6  2  0  0  0  0
  5  7  2  0  0  0  0
  6  8  1  0  0  0  0
  8  9  1  0  0  0  0
  9 10  2  0  0  0  0
  9 11  1  0  0  0  0
 10 12  1  0  0  0  0
 11 13  2  0  0  0  0
 12 14  1  0  0  0  0
 12 15  1  0  0  0  0
 13 16  1  0  0  0  0
 14 17  2  0  0  0  0
 15 18  2  0  0  0  0
 16 19  2  0  0  0  0
 16 20  1  0  0  0  0
 20 21  1  0  0  0  0
 21 22  2  0  0  0  0
 21 23  1  0  0  0  0
 22 24  1  0  0  0  0
 23 25  2  0  0  0  0
 24 26  2  0  0  0  0
 26 27  1  0  0  0  0
  6  7  1  0  0  0  0
 13 14  1  0  0  0  0
 17 18  1  0  0  0  0
 25 26  1  0  0  0  0
M  END
>  <MolRegNo>
2220227

>  <m>
=

>  <Value>
1900

>  <Unit>
nM

>  <Type>
IC50

>  <pValue>
5.72

>  <Ligand Efficiency>
0

>  <Binding Efficiency>
0

>  <Surface Efficiency>
0

>  <Assay Index>
1114364

>  <Assay Category>


>  <Assay Organism>
Homo sapiens

>  <Target ID>
17045

>  <Target Name>
Cytochrome P450 3A4

>  <Target Organism>
Homo sapiens

>  <Target Description>
Target is a single protein chain

>  <Sequence Accession>
P08684

>  <Reference>
Bioorg Med Chem Lett 27 (21), 4858-4866 (2017)

>  <Pubmed ID>
28958625

>  <DOI>
10.1016/j.bmcl.2017.09.042

$$$$
2206813
Actelion Java MolfileCreator 1.0

 27 30  0  0  0  0  0  0  0  0999 V2000
    0.0000   -0.0000   -0.0000 F   0  0  0  0  0  0  0  0  0  0  0  0
    0.0000   -1.4965   -0.0000 C   0  0  0  0  0  0  0  0  0  0  0  0
    1.3049   -2.2387   -0.0000 C   0  0  0  0  0  0  0  0  0  0  0  0
   -1.3169   -2.2507   -0.0000 C   0  0  0  0  0  0  0  0  0  0  0  0
    1.2929   -3.7352   -0.0000 N   0  0  0  0  0  0  0  0  0  0  0  0
   -1.3169   -3.7471   -0.0000 C   0  0  0  0  0  0  0  0  0  0  0  0
   -0.0239   -4.4774   -0.0000 C   0  0  0  0  0  0  0  0  0  0  0  0
   -2.6338   -4.4894   -0.0000 O   0  0  0  0  0  0  0  0  0  0  0  0
   -2.6457   -5.9858   -0.0000 C   0  0  0  0  0  0  0  0  0  0  0  0
   -3.9626   -6.7281   -0.0000 C   0  0  0  0  0  0  0  0  0  0  0  0
   -1.3528   -6.7281   -0.0000 C   0  0  0  0  0  0  0  0  0  0  0  0
   -3.9746   -8.2365   -0.0000 N   0  0  0  0  0  0  0  0  0  0  0  0
   -1.3648   -8.2365   -0.0000 C   0  0  0  0  0  0  0  0  0  0  0  0
   -2.6817   -8.9788   -0.0000 C   0  0  0  0  0  0  0  0  0  0  0  0
   -5.0999   -9.2421   -0.0000 C   0  0  0  0  0  0  0  0  0  0  0  0
   -0.0718   -8.9788   -0.0000 C   0  0  0  0  0  0  0  0  0  0  0  0
   -3.0049  -10.4393   -0.0000 N   0  0  0  0  0  0  0  0  0  0  0  0
   -4.4894  -10.6069   -0.0000 C   0  0  0  0  0  0  0  0  0  0  0  0
   -0.0838  -10.4752   -0.0000 O   0  0  0  0  0  0  0  0  0  0  0  0
    1.2211   -8.2126   -0.0000 N   0  0  0  0  0  0  0  0  0  0  0  0
    2.5141   -8.9548   -0.0000 C   0  0  0  0  0  0  0  0  0  0  0  0
    3.7950   -8.1767   -0.0000 N   0  0  0  0  0  0  0  0  0  0  0  0
    2.4901  -10.4513   -0.0000 C   0  0  0  0  0  0  0  0  0  0  0  0
    5.0880   -8.9069   -0.0000 C   0  0  0  0  0  0  0  0  0  0  0  0
    3.7831  -11.1935   -0.0000 C   0  0  0  0  0  0  0  0  0  0  0  0
    5.0880  -10.4154   -0.0000 C   0  0  0  0  0  0  0  0  0  0  0  0
    6.3809  -11.1576   -0.0000 F   0  0  0  0  0  0  0  0  0  0  0  0
  1  2  1  0  0  0  0
  2  3  2  0  0  0  0
  2  4  1  0  0  0  0
  3  5  1  0  0  0  0
  4  6  2  0  0  0  0
  5  7  2  0  0  0  0
  6  8  1  0  0  0  0
  8  9  1  0  0  0  0
  9 10  2  0  0  0  0
  9 11  1  0  0  0  0
 10 12  1  0  0  0  0
 11 13  2  0  0  0  0
 12 14  1  0  0  0  0
 12 15  1  0  0  0  0
 13 16  1  0  0  0  0
 14 17  2  0  0  0  0
 15 18  2  0  0  0  0
 16 19  2  0  0  0  0
 16 20  1  0  0  0  0
 20 21  1  0  0  0  0
 21 22  2  0  0  0  0
 21 23  1  0  0  0  0
 22 24  1  0  0  0  0
 23 25  2  0  0  0  0
 24 26  2  0  0  0  0
 26 27  1  0  0  0  0
  6  7  1  0  0  0  0
 13 14  1  0  0  0  0
 17 18  1  0  0  0  0
 25 26  1  0  0  0  0
M  END
>  <MolRegNo>
2206813

>  <m>
=

>  <Value>
3900

>  <Unit>
nM

>  <Type>
IC50

>  <pValue>
5.41

>  <Ligand Efficiency>
0

>  <Binding Efficiency>
0

>  <Surface Efficiency>
0

>  <Assay Index>
1114364

>  <Assay Category>


>  <Assay Organism>
Homo sapiens

>  <Target ID>
17045

>  <Target Name>
Cytochrome P450 3A4

>  <Target Organism>
Homo sapiens

>  <Target Description>
Target is a single protein chain

>  <Sequence Accession>
P08684

>  <Reference>
Bioorg Med Chem Lett 27 (21), 4858-4866 (2017)

>  <Pubmed ID>
28958625

>  <DOI>
10.1016/j.bmcl.2017.09.042

$$$$
2228085
Actelion Java MolfileCreator 1.0

 27 30  0  0  0  0  0  0  0  0999 V2000
    0.0000   -0.0000   -0.0000 F   0  0  0  0  0  0  0  0  0  0  0  0
    0.0000   -1.4959   -0.0000 C   0  0  0  0  0  0  0  0  0  0  0  0
    1.3044   -2.2378   -0.0000 C   0  0  0  0  0  0  0  0  0  0  0  0
   -1.3164   -2.2498   -0.0000 C   0  0  0  0  0  0  0  0  0  0  0  0
    1.2924   -3.7337   -0.0000 N   0  0  0  0  0  0  0  0  0  0  0  0
   -1.3164   -3.7456   -0.0000 C   0  0  0  0  0  0  0  0  0  0  0  0
   -0.0239   -4.4756   -0.0000 C   0  0  0  0  0  0  0  0  0  0  0  0
   -2.6327   -4.4876   -0.0000 O   0  0  0  0  0  0  0  0  0  0  0  0
   -2.6447   -5.9834   -0.0000 C   0  0  0  0  0  0  0  0  0  0  0  0
   -3.9610   -6.7254   -0.0000 C   0  0  0  0  0  0  0  0  0  0  0  0
   -1.3523   -6.7254   -0.0000 C   0  0  0  0  0  0  0  0  0  0  0  0
   -3.9730   -8.2332   -0.0000 N   0  0  0  0  0  0  0  0  0  0  0  0
   -1.3642   -8.2332   -0.0000 C   0  0  0  0  0  0  0  0  0  0  0  0
   -2.6806   -8.9751   -0.0000 C   0  0  0  0  0  0  0  0  0  0  0  0
   -5.0979   -9.2384   -0.0000 C   0  0  0  0  0  0  0  0  0  0  0  0
   -0.0718   -8.9751   -0.0000 C   0  0  0  0  0  0  0  0  0  0  0  0
   -3.0037  -10.4351   -0.0000 N   0  0  0  0  0  0  0  0  0  0  0  0
   -4.4876  -10.6026   -0.0000 C   0  0  0  0  0  0  0  0  0  0  0  0
   -0.0838  -10.4710   -0.0000 O   0  0  0  0  0  0  0  0  0  0  0  0
    1.2206   -8.2093   -0.0000 N   0  0  0  0  0  0  0  0  0  0  0  0
    2.5130   -8.9512   -0.0000 C   0  0  0  0  0  0  0  0  0  0  0  0
    3.7935   -8.1733   -0.0000 N   0  0  0  0  0  0  0  0  0  0  0  0
    2.4891  -10.4470   -0.0000 C   0  0  0  0  0  0  0  0  0  0  0  0
    5.0859   -8.9033   -0.0000 C   0  0  0  0  0  0  0  0  0  0  0  0
    3.7815  -11.1890   -0.0000 C   0  0  0  0  0  0  0  0  0  0  0  0
    5.0859  -10.4111   -0.0000 C   0  0  0  0  0  0  0  0  0  0  0  0
    6.3783   -8.1255   -0.0000 C   0  0  0  0  0  0  0  0  0  0  0  0
  1  2  1  0  0  0  0
  2  3  2  0  0  0  0
  2  4  1  0  0  0  0
  3  5  1  0  0  0  0
  4  6  2  0  0  0  0
  5  7  2  0  0  0  0
  6  8  1  0  0  0  0
  8  9  1  0  0  0  0
  9 10  2  0  0  0  0
  9 11  1  0  0  0  0
 10 12  1  0  0  0  0
 11 13  2  0  0  0  0
 12 14  1  0  0  0  0
 12 15  1  0  0  0  0
 13 16  1  0  0  0  0
 14 17  2  0  0  0  0
 15 18  2  0  0  0  0
 16 19  2  0  0  0  0
 16 20  1  0  0  0  0
 20 21  1  0  0  0  0
 21 22  2  0  0  0  0
 21 23  1  0  0  0  0
 22 24  1  0  0  0  0
 23 25  2  0  0  0  0
 24 26  2  0  0  0  0
 24 27  1  0  0  0  0
  6  7  1  0  0  0  0
 13 14  1  0  0  0  0
 17 18  1  0  0  0  0
 25 26  1  0  0  0  0
M  END
>  <MolRegNo>
2228085

>  <m>
=

>  <Value>
2100

>  <Unit>
nM

>  <Type>
IC50

>  <pValue>
5.68

>  <Ligand Efficiency>
0

>  <Binding Efficiency>
0

>  <Surface Efficiency>
0

>  <Assay Index>
1114364

>  <Assay Category>


>  <Assay Organism>
Homo sapiens

>  <Target ID>
17045

>  <Target Name>
Cytochrome P450 3A4

>  <Target Organism>
Homo sapiens

>  <Target Description>
Target is a single protein chain

>  <Sequence Accession>
P08684

>  <Reference>
Bioorg Med Chem Lett 27 (21), 4858-4866 (2017)

>  <Pubmed ID>
28958625

>  <DOI>
10.1016/j.bmcl.2017.09.042

$$$$
2217681
Actelion Java MolfileCreator 1.0

 27 30  0  0  0  0  0  0  0  0999 V2000
    0.0000   -0.0000   -0.0000 F   0  0  0  0  0  0  0  0  0  0  0  0
   -1.3047   -0.7472   -0.0000 C   0  0  0  0  0  0  0  0  0  0  0  0
   -2.6094   -0.0000   -0.0000 N   0  0  0  0  0  0  0  0  0  0  0  0
   -1.3047   -2.2417   -0.0000 C   0  0  0  0  0  0  0  0  0  0  0  0
   -3.9022   -0.7472   -0.0000 C   0  0  0  0  0  0  0  0  0  0  0  0
   -2.6094   -2.9770   -0.0000 C   0  0  0  0  0  0  0  0  0  0  0  0
   -5.2068    0.0119   -0.0000 N   0  0  0  0  0  0  0  0  0  0  0  0
   -3.9259   -2.2298   -0.0000 C   0  0  0  0  0  0  0  0  0  0  0  0
   -6.5115   -0.7235   -0.0000 C   0  0  0  0  0  0  0  0  0  0  0  0
   -6.5234   -2.2061   -0.0000 O   0  0  0  0  0  0  0  0  0  0  0  0
   -7.8162    0.0356   -0.0000 C   0  0  0  0  0  0  0  0  0  0  0  0
   -9.1327   -0.6998   -0.0000 C   0  0  0  0  0  0  0  0  0  0  0  0
   -7.8281    1.5538   -0.0000 C   0  0  0  0  0  0  0  0  0  0  0  0
   -9.4530   -2.1468   -0.0000 N   0  0  0  0  0  0  0  0  0  0  0  0
  -10.4374    0.0593   -0.0000 N   0  0  0  0  0  0  0  0  0  0  0  0
   -9.1327    2.3128   -0.0000 C   0  0  0  0  0  0  0  0  0  0  0  0
  -10.9474   -2.3010   -0.0000 C   0  0  0  0  0  0  0  0  0  0  0  0
  -10.4493    1.5775   -0.0000 C   0  0  0  0  0  0  0  0  0  0  0  0
  -11.5523   -0.9370   -0.0000 C   0  0  0  0  0  0  0  0  0  0  0  0
   -9.1446    3.8191   -0.0000 O   0  0  0  0  0  0  0  0  0  0  0  0
   -7.8636    4.5782   -0.0000 C   0  0  0  0  0  0  0  0  0  0  0  0
   -6.5827    3.8429   -0.0000 C   0  0  0  0  0  0  0  0  0  0  0  0
   -7.8874    6.0845   -0.0000 C   0  0  0  0  0  0  0  0  0  0  0  0
   -5.3017    4.6020   -0.0000 N   0  0  0  0  0  0  0  0  0  0  0  0
   -6.6064    6.8555   -0.0000 C   0  0  0  0  0  0  0  0  0  0  0  0
   -5.3136    6.1083   -0.0000 C   0  0  0  0  0  0  0  0  0  0  0  0
   -6.6301    8.3618   -0.0000 F   0  0  0  0  0  0  0  0  0  0  0  0
  1  2  1  0  0  0  0
  2  3  2  0  0  0  0
  2  4  1  0  0  0  0
  3  5  1  0  0  0  0
  4  6  2  0  0  0  0
  5  7  1  0  0  0  0
  5  8  2  0  0  0  0
  7  9  1  0  0  0  0
  9 10  2  0  0  0  0
  9 11  1  0  0  0  0
 11 12  1  0  0  0  0
 11 13  2  0  0  0  0
 12 14  2  0  0  0  0
 12 15  1  0  0  0  0
 13 16  1  0  0  0  0
 14 17  1  0  0  0  0
 15 18  1  0  0  0  0
 15 19  1  0  0  0  0
 16 20  1  0  0  0  0
 20 21  1  0  0  0  0
 21 22  2  0  0  0  0
 21 23  1  0  0  0  0
 22 24  1  0  0  0  0
 23 25  2  0  0  0  0
 24 26  2  0  0  0  0
 25 27  1  0  0  0  0
  6  8  1  0  0  0  0
 16 18  2  0  0  0  0
 17 19  2  0  0  0  0
 25 26  1  0  0  0  0
M  END
>  <MolRegNo>
2217681

>  <m>
=

>  <Value>
2300

>  <Unit>
nM

>  <Type>
IC50

>  <pValue>
5.64

>  <Ligand Efficiency>
0

>  <Binding Efficiency>
0

>  <Surface Efficiency>
0

>  <Assay Index>
1114364

>  <Assay Category>


>  <Assay Organism>
Homo sapiens

>  <Target ID>
17045

>  <Target Name>
Cytochrome P450 3A4

>  <Target Organism>
Homo sapiens

>  <Target Description>
Target is a single protein chain

>  <Sequence Accession>
P08684

>  <Reference>
Bioorg Med Chem Lett 27 (21), 4858-4866 (2017)

>  <Pubmed ID>
28958625

>  <DOI>
10.1016/j.bmcl.2017.09.042

$$$$
2236190
Actelion Java MolfileCreator 1.0

 27 29  0  0  0  0  0  0  0  0999 V2000
    0.0000   -0.0000   -0.0000 Cl  0  0  0  0  0  0  0  0  0  0  0  0
   -1.2634    0.7440   -0.0000 C   0  0  0  0  0  0  0  0  0  0  0  0
   -2.5408    0.0421   -0.0000 C   0  0  0  0  0  0  0  0  0  0  0  0
   -1.2774    2.2179   -0.0000 C   0  0  0  0  0  0  0  0  0  0  0  0
   -3.8042    0.7861   -0.0000 C   0  0  0  0  0  0  0  0  0  0  0  0
   -2.5408    2.9479   -0.0000 C   0  0  0  0  0  0  0  0  0  0  0  0
   -3.8042    2.2460   -0.0000 C   0  0  0  0  0  0  0  0  0  0  0  0
   -5.0676    2.9900   -0.0000 N   0  0  0  0  0  0  0  0  0  0  0  0
   -6.3450    2.2881   -0.0000 C   0  0  0  0  0  0  0  0  0  0  0  0
   -6.3731    0.8423   -0.0000 O   0  0  0  0  0  0  0  0  0  0  0  0
   -7.6084    3.0321   -0.0000 N   0  0  0  0  0  0  0  0  0  0  0  0
   -8.8858    2.3302   -0.0000 C   0  0  0  0  0  0  0  0  0  0  0  0
   -9.0542    0.8844   -0.0000 S   0  0  0  0  0  0  0  0  0  0  0  0
  -10.2193    2.9338   -0.0000 C   0  0  0  0  0  0  0  0  0  0  0  0
  -10.4861    0.6036   -0.0000 C   0  0  0  0  0  0  0  0  0  0  0  0
  -11.2020    1.8810   -0.0000 C   0  0  0  0  0  0  0  0  0  0  0  0
  -10.5282    4.3657   -0.0000 C   0  0  0  0  0  0  0  0  0  0  0  0
  -11.0476   -0.7440   -0.0000 C   0  0  0  0  0  0  0  0  0  0  0  0
  -12.6759    2.1197   -0.0000 C   0  0  0  0  0  0  0  0  0  0  0  0
  -11.9319    4.8430   -0.0000 O   0  0  0  0  0  0  0  0  0  0  0  0
   -9.4473    5.3483   -0.0000 N   0  0  0  0  0  0  0  0  0  0  0  0
  -12.4513   -1.1511   -0.0000 C   0  0  0  0  0  0  0  0  0  0  0  0
  -11.9600    0.5755   -0.0000 N   0  0  0  0  0  0  0  0  0  0  0  0
  -13.7708    1.1370   -0.0000 C   0  0  0  0  0  0  0  0  0  0  0  0
  -13.6726   -0.3088   -0.0000 C   0  0  0  0  0  0  0  0  0  0  0  0
  -10.1913   -0.2948   -0.0000 C   0  0  0  0  0  0  0  0  0  0  0  0
   -7.5241   -2.0214   -0.0000 Cl  0  0  0  0  0  0  0  0  0  0  0  0
  1  2  1  0  0  0  0
  2  3  2  0  0  0  0
  2  4  1  0  0  0  0
  3  5  1  0  0  0  0
  4  6  2  0  0  0  0
  5  7  2  0  0  0  0
  7  8  1  0  0  0  0
  8  9  1  0  0  0  0
  9 10  2  0  0  0  0
  9 11  1  0  0  0  0
 11 12  1  0  0  0  0
 12 13  1  0  0  0  0
 12 14  2  0  0  0  0
 13 15  1  0  0  0  0
 14 16  1  0  0  0  0
 14 17  1  0  0  0  0
 15 18  1  0  0  0  0
 16 19  1  0  0  0  0
 17 20  2  0  0  0  0
 17 21  1  0  0  0  0
 18 22  1  0  0  0  0
 19 23  1  6  0  0  0
 19 24  1  0  0  0  0
 22 25  1  0  0  0  0
 23 26  1  0  0  0  0
  6  7  1  0  0  0  0
 15 16  2  0  0  0  0
 22 23  1  6  0  0  0
 24 25  1  0  0  0  0
M  END
>  <MolRegNo>
2236190

>  <m>
=

>  <Value>
46000

>  <Unit>
nM

>  <Type>
IC50

>  <pValue>
4.34

>  <Ligand Efficiency>
0

>  <Binding Efficiency>
0

>  <Surface Efficiency>
0

>  <Assay Index>
1114544

>  <Assay Category>


>  <Assay Organism>
Homo sapiens

>  <Target ID>
17045

>  <Target Name>
Cytochrome P450 3A4

>  <Target Organism>
Homo sapiens

>  <Target Description>
Target is a single protein chain

>  <Sequence Accession>
P08684

>  <Reference>
J Med Chem 61 (1), 84-97 (2018)

>  <Pubmed ID>
28992413

>  <DOI>
10.1021/acs.jmedchem.7b00932

$$$$
2126786
Actelion Java MolfileCreator 1.0

 36 39  0  0  1  0  0  0  0  0999 V2000
    0.0000   -0.0000   -0.0000 Cl  0  0  0  0  0  0  0  0  0  0  0  0
    1.1200    0.4858   -0.0000 C   0  0  0  0  0  0  0  0  0  0  0  0
    1.9566   -0.7692   -0.0000 C   0  0  0  0  0  0  0  0  0  0  0  0
    0.8096    1.9971   -0.0000 C   0  0  0  0  0  0  0  0  0  0  0  0
    3.2116   -1.6058   -0.0000 O   0  0  0  0  0  0  0  0  0  0  0  0
    3.3330    0.9581   -0.0000 C   0  0  0  0  0  0  0  0  0  0  0  0
    1.0930    3.5084   -0.0000 C   0  0  0  0  0  0  0  0  0  0  0  0
    4.6959   -1.8891   -0.0000 C   0  0  0  0  0  0  0  0  0  0  0  0
    3.0226    2.4694   -0.0000 C   0  0  0  0  0  0  0  0  0  0  0  0
    1.9296    4.7903   -0.0000 C   0  0  0  0  0  0  0  0  0  0  0  0
    6.1802   -1.5788   -0.0000 C   0  0  0  0  0  0  0  0  0  0  0  0
    3.1846    5.6540   -0.0000 C   0  0  0  0  0  0  0  0  0  0  0  0
    7.4351   -0.7152   -0.0000 C   0  0  0  0  0  0  0  0  0  0  0  0
    4.6689    5.9643   -0.0000 N   0  0  0  0  0  0  0  0  0  0  0  0
    2.5773    7.0843   -0.0000 C   0  0  0  0  0  0  0  0  0  0  0  0
    8.2718    0.5667   -0.0000 C   0  0  0  0  0  0  0  0  0  0  0  0
    6.1532    5.6809   -0.0000 C   0  0  0  0  0  0  0  0  0  0  0  0
    3.3060    8.0694   -0.0000 O   0  0  0  0  0  0  0  0  0  0  0  0
    1.0525    7.3002   -0.0000 N   0  0  0  0  0  0  0  0  0  0  0  0
    8.5551    2.0781   -0.0000 O   0  0  0  0  0  0  0  0  0  0  0  0
    6.6120    6.8279   -0.0000 O   0  0  0  0  0  0  0  0  0  0  0  0
    7.4082    4.8443   -0.0000 C   0  0  0  0  0  0  0  0  0  0  0  0
    0.4453    8.7306   -0.0000 C   0  0  0  0  0  0  0  0  0  0  0  0
    8.2448    3.5894   -0.0000 C   0  0  0  0  0  0  0  0  0  0  0  0
    8.0829    6.2342   -0.0000 C   0  0  0  0  0  0  0  0  0  0  0  0
   -1.0795    8.9465   -0.0000 C   0  0  0  0  0  0  0  0  0  0  0  0
    0.5398   10.1474   -0.0000 C   0  0  0  0  0  0  0  0  0  0  0  0
    1.7542    9.2298   -0.0000 C   0  0  0  0  0  0  0  0  0  0  0  0
    9.7561    3.7108   -0.0000 C   0  0  0  0  0  0  0  0  0  0  0  0
    9.5942    6.3421   -0.0000 C   0  0  0  0  0  0  0  0  0  0  0  0
   -2.3075    9.1219   -0.0000 N   0  0  0  0  0  0  0  0  0  0  0  0
   10.4173    5.0872   -0.0000 C   0  0  0  0  0  0  0  0  0  0  0  0
   11.9286    5.1952   -0.0000 C   0  0  0  0  0  0  0  0  0  0  0  0
   12.4549    6.3017   -0.0000 F   0  0  0  0  0  0  0  0  0  0  0  0
   12.5898    4.1966   -0.0000 F   0  0  0  0  0  0  0  0  0  0  0  0
   13.1296    5.2896   -0.0000 F   0  0  0  0  0  0  0  0  0  0  0  0
  1  2  1  0  0  0  0
  2  3  2  0  0  0  0
  2  4  1  0  0  0  0
  3  5  1  0  0  0  0
  3  6  1  0  0  0  0
  4  7  2  0  0  0  0
  5  8  1  0  0  0  0
  6  9  2  0  0  0  0
  7 10  1  0  0  0  0
  8 11  1  0  0  0  0
 10 12  1  0  0  0  0
 11 13  1  0  0  0  0
 12 14  1  0  0  0  0
 12 15  1  1  0  0  0
 13 16  1  0  0  0  0
 14 17  1  0  0  0  0
 15 18  2  0  0  0  0
 15 19  1  0  0  0  0
 16 20  1  0  0  0  0
 17 21  2  0  0  0  0
 17 22  1  0  0  0  0
 19 23  1  0  0  0  0
 20 24  1  0  0  0  0
 22 25  1  0  0  0  0
 23 26  1  0  0  0  0
 23 27  1  0  0  0  0
 23 28  1  0  0  0  0
 24 29  1  0  0  0  0
 25 30  2  0  0  0  0
 26 31  3  0  0  0  0
 29 32  2  0  0  0  0
 32 33  1  0  0  0  0
 33 34  1  0  0  0  0
 33 35  1  0  0  0  0
 33 36  1  0  0  0  0
  7  9  1  0  0  0  0
 22 24  2  0  0  0  0
 27 28  1  0  0  0  0
 30 32  1  0  0  0  0
M  END
>  <MolRegNo>
2126786

>  <m>
=

>  <Value>
43000

>  <Unit>
nM

>  <Type>
IC50

>  <pValue>
4.37

>  <Ligand Efficiency>
0

>  <Binding Efficiency>
0

>  <Surface Efficiency>
0

>  <Assay Index>
1115598

>  <Assay Category>


>  <Assay Organism>
Homo sapiens

>  <Target ID>
17045

>  <Target Name>
Cytochrome P450 3A4

>  <Target Organism>
Homo sapiens

>  <Target Description>
Target is a single protein chain

>  <Sequence Accession>
P08684

>  <Reference>
J Med Chem 61 (8), 3350-3369 (2018)

>  <Pubmed ID>
29590750

>  <DOI>
10.1021/acs.jmedchem.7b01869

$$$$
2200806
Actelion Java MolfileCreator 1.0

 37 40  0  0  0  0  0  0  0  0999 V2000
    0.0000   -0.0000   -0.0000 Cl  0  0  0  0  0  0  0  0  0  0  0  0
   -0.0118    1.5007   -0.0000 C   0  0  0  0  0  0  0  0  0  0  0  0
   -1.3116    2.2569   -0.0000 C   0  0  0  0  0  0  0  0  0  0  0  0
    1.2762    2.2569   -0.0000 C   0  0  0  0  0  0  0  0  0  0  0  0
   -2.6114    1.5243   -0.0000 O   0  0  0  0  0  0  0  0  0  0  0  0
   -1.3234    3.7694   -0.0000 C   0  0  0  0  0  0  0  0  0  0  0  0
    1.2644    3.7694   -0.0000 C   0  0  0  0  0  0  0  0  0  0  0  0
   -3.9112    2.2806   -0.0000 C   0  0  0  0  0  0  0  0  0  0  0  0
   -0.0473    4.5257   -0.0000 C   0  0  0  0  0  0  0  0  0  0  0  0
    2.5405    4.5375   -0.0000 C   0  0  0  0  0  0  0  0  0  0  0  0
   -5.2110    1.5480   -0.0000 F   0  0  0  0  0  0  0  0  0  0  0  0
   -3.9231    3.7813   -0.0000 F   0  0  0  0  0  0  0  0  0  0  0  0
   -5.2229    3.0368   -0.0000 F   0  0  0  0  0  0  0  0  0  0  0  0
    2.5287    6.0382   -0.0000 C   0  0  0  0  0  0  0  0  0  0  0  0
    1.2171    6.7945   -0.0000 N   0  0  0  0  0  0  0  0  0  0  0  0
    3.8049    6.7945   -0.0000 C   0  0  0  0  0  0  0  0  0  0  0  0
    1.2053    8.2951   -0.0000 C   0  0  0  0  0  0  0  0  0  0  0  0
    3.7931    8.2951   -0.0000 O   0  0  0  0  0  0  0  0  0  0  0  0
    5.0929    6.0618   -0.0000 N   0  0  0  0  0  0  0  0  0  0  0  0
    2.4815    9.0514   -0.0000 O   0  0  0  0  0  0  0  0  0  0  0  0
   -0.1063    9.0514   -0.0000 C   0  0  0  0  0  0  0  0  0  0  0  0
    6.3691    6.8299   -0.0000 C   0  0  0  0  0  0  0  0  0  0  0  0
   -0.2836   10.5403   -0.0000 N   0  0  0  0  0  0  0  0  0  0  0  0
   -1.4889    8.4488   -0.0000 C   0  0  0  0  0  0  0  0  0  0  0  0
    7.6571    6.0973   -0.0000 C   0  0  0  0  0  0  0  0  0  0  0  0
    5.6010    8.1415   -0.0000 C   0  0  0  0  0  0  0  0  0  0  0  0
    7.1017    8.1415   -0.0000 C   0  0  0  0  0  0  0  0  0  0  0  0
   -1.7606   10.8593   -0.0000 N   0  0  0  0  0  0  0  0  0  0  0  0
   -2.5051    9.5595   -0.0000 N   0  0  0  0  0  0  0  0  0  0  0  0
    8.9450    5.3765   -0.0000 N   0  0  0  0  0  0  0  0  0  0  0  0
   -2.3869   12.2300   -0.0000 C   0  0  0  0  0  0  0  0  0  0  0  0
   -3.8758   12.3836   -0.0000 C   0  0  0  0  0  0  0  0  0  0  0  0
   -1.5243   13.4471   -0.0000 C   0  0  0  0  0  0  0  0  0  0  0  0
   -4.5021   13.7543   -0.0000 N   0  0  0  0  0  0  0  0  0  0  0  0
   -2.1506   14.8178   -0.0000 C   0  0  0  0  0  0  0  0  0  0  0  0
   -3.6395   14.9832   -0.0000 C   0  0  0  0  0  0  0  0  0  0  0  0
   -4.2657   16.3540   -0.0000 F   0  0  0  0  0  0  0  0  0  0  0  0
  1  2  1  0  0  0  0
  2  3  2  0  0  0  0
  2  4  1  0  0  0  0
  3  5  1  0  0  0  0
  3  6  1  0  0  0  0
  4  7  2  0  0  0  0
  5  8  1  0  0  0  0
  6  9  2  0  0  0  0
  7 10  1  0  0  0  0
  8 11  1  0  0  0  0
  8 12  1  0  0  0  0
  8 13  1  0  0  0  0
 10 14  1  0  0  0  0
 14 15  1  6  0  0  0
 14 16  1  0  0  0  0
 15 17  1  0  0  0  0
 16 18  2  0  0  0  0
 16 19  1  0  0  0  0
 17 20  2  0  0  0  0
 17 21  1  0  0  0  0
 19 22  1  0  0  0  0
 21 23  2  0  0  0  0
 21 24  1  0  0  0  0
 22 25  1  0  0  0  0
 22 26  1  0  0  0  0
 22 27  1  0  0  0  0
 23 28  1  0  0  0  0
 24 29  2  0  0  0  0
 25 30  3  0  0  0  0
 28 31  1  0  0  0  0
 31 32  2  0  0  0  0
 31 33  1  0  0  0  0
 32 34  1  0  0  0  0
 33 35  2  0  0  0  0
 34 36  2  0  0  0  0
 36 37  1  0  0  0  0
  7  9  1  0  0  0  0
 26 27  1  0  0  0  0
 28 29  1  0  0  0  0
 35 36  1  0  0  0  0
M  END
>  <MolRegNo>
2200806

>  <m>
=

>  <Value>
47000

>  <Unit>
nM

>  <Type>
IC50

>  <pValue>
4.33

>  <Ligand Efficiency>
0

>  <Binding Efficiency>
0

>  <Surface Efficiency>
0

>  <Assay Index>
1115644

>  <Assay Category>


>  <Assay Organism>
Homo sapiens

>  <Target ID>
17045

>  <Target Name>
Cytochrome P450 3A4

>  <Target Organism>
Homo sapiens

>  <Target Description>
Target is a single protein chain

>  <Sequence Accession>
P08684

>  <Reference>
J Med Chem 61 (8), 3370-3388 (2018)

>  <Pubmed ID>
29590751

>  <DOI>
10.1021/acs.jmedchem.7b01870

$$$$
2221124
Actelion Java MolfileCreator 1.0

 36 39  0  0  0  0  0  0  0  0999 V2000
    0.0000   -0.0000   -0.0000 Cl  0  0  0  0  0  0  0  0  0  0  0  0
   -0.0118    1.5013   -0.0000 C   0  0  0  0  0  0  0  0  0  0  0  0
   -1.3121    2.2578   -0.0000 C   0  0  0  0  0  0  0  0  0  0  0  0
    1.2767    2.2578   -0.0000 C   0  0  0  0  0  0  0  0  0  0  0  0
   -2.6125    1.5249   -0.0000 O   0  0  0  0  0  0  0  0  0  0  0  0
   -1.3240    3.7709   -0.0000 C   0  0  0  0  0  0  0  0  0  0  0  0
    1.2649    3.7709   -0.0000 C   0  0  0  0  0  0  0  0  0  0  0  0
   -3.9128    2.2815   -0.0000 C   0  0  0  0  0  0  0  0  0  0  0  0
   -0.0473    4.5275   -0.0000 C   0  0  0  0  0  0  0  0  0  0  0  0
    2.5415    4.5275   -0.0000 C   0  0  0  0  0  0  0  0  0  0  0  0
   -5.2131    1.5486   -0.0000 F   0  0  0  0  0  0  0  0  0  0  0  0
   -3.9246    3.7828   -0.0000 F   0  0  0  0  0  0  0  0  0  0  0  0
   -5.2249    3.0380   -0.0000 F   0  0  0  0  0  0  0  0  0  0  0  0
    2.5297    6.0288   -0.0000 C   0  0  0  0  0  0  0  0  0  0  0  0
    1.2176    6.7853   -0.0000 N   0  0  0  0  0  0  0  0  0  0  0  0
    3.8064    6.7853   -0.0000 C   0  0  0  0  0  0  0  0  0  0  0  0
    1.2058    8.2866   -0.0000 C   0  0  0  0  0  0  0  0  0  0  0  0
    3.7946    8.2866   -0.0000 O   0  0  0  0  0  0  0  0  0  0  0  0
    5.0949    6.0524   -0.0000 N   0  0  0  0  0  0  0  0  0  0  0  0
    2.4824    9.0432   -0.0000 O   0  0  0  0  0  0  0  0  0  0  0  0
   -0.0946    9.0432   -0.0000 C   0  0  0  0  0  0  0  0  0  0  0  0
    6.3716    6.8208   -0.0000 C   0  0  0  0  0  0  0  0  0  0  0  0
   -0.2719   10.5326   -0.0000 N   0  0  0  0  0  0  0  0  0  0  0  0
   -1.4776    8.4403   -0.0000 C   0  0  0  0  0  0  0  0  0  0  0  0
    7.6601    6.0879   -0.0000 C   0  0  0  0  0  0  0  0  0  0  0  0
    5.6032    8.1329   -0.0000 C   0  0  0  0  0  0  0  0  0  0  0  0
    7.1045    8.1329   -0.0000 C   0  0  0  0  0  0  0  0  0  0  0  0
   -1.7495   10.8518   -0.0000 N   0  0  0  0  0  0  0  0  0  0  0  0
   -2.4943    9.5515   -0.0000 N   0  0  0  0  0  0  0  0  0  0  0  0
    8.9486    5.3668   -0.0000 N   0  0  0  0  0  0  0  0  0  0  0  0
   -2.3761   12.2231   -0.0000 C   0  0  0  0  0  0  0  0  0  0  0  0
   -3.8655   12.3767   -0.0000 C   0  0  0  0  0  0  0  0  0  0  0  0
   -1.5131   13.4406   -0.0000 C   0  0  0  0  0  0  0  0  0  0  0  0
   -4.4920   13.7480   -0.0000 N   0  0  0  0  0  0  0  0  0  0  0  0
   -2.1396   14.8119   -0.0000 C   0  0  0  0  0  0  0  0  0  0  0  0
   -3.6291   14.9774   -0.0000 C   0  0  0  0  0  0  0  0  0  0  0  0
  1  2  1  0  0  0  0
  2  3  2  0  0  0  0
  2  4  1  0  0  0  0
  3  5  1  0  0  0  0
  3  6  1  0  0  0  0
  4  7  2  0  0  0  0
  5  8  1  0  0  0  0
  6  9  2  0  0  0  0
  7 10  1  0  0  0  0
  8 11  1  0  0  0  0
  8 12  1  0  0  0  0
  8 13  1  0  0  0  0
 10 14  1  0  0  0  0
 14 15  1  6  0  0  0
 14 16  1  0  0  0  0
 15 17  1  0  0  0  0
 16 18  2  0  0  0  0
 16 19  1  0  0  0  0
 17 20  2  0  0  0  0
 17 21  1  0  0  0  0
 19 22  1  0  0  0  0
 21 23  2  0  0  0  0
 21 24  1  0  0  0  0
 22 25  1  0  0  0  0
 22 26  1  0  0  0  0
 22 27  1  0  0  0  0
 23 28  1  0  0  0  0
 24 29  2  0  0  0  0
 25 30  3  0  0  0  0
 28 31  1  0  0  0  0
 31 32  2  0  0  0  0
 31 33  1  0  0  0  0
 32 34  1  0  0  0  0
 33 35  2  0  0  0  0
 34 36  2  0  0  0  0
  7  9  1  0  0  0  0
 26 27  1  0  0  0  0
 28 29  1  0  0  0  0
 35 36  1  0  0  0  0
M  END
>  <MolRegNo>
2221124

>  <m>
=

>  <Value>
8000

>  <Unit>
nM

>  <Type>
IC50

>  <pValue>
5.1

>  <Ligand Efficiency>
0

>  <Binding Efficiency>
0

>  <Surface Efficiency>
0

>  <Assay Index>
1115644

>  <Assay Category>


>  <Assay Organism>
Homo sapiens

>  <Target ID>
17045

>  <Target Name>
Cytochrome P450 3A4

>  <Target Organism>
Homo sapiens

>  <Target Description>
Target is a single protein chain

>  <Sequence Accession>
P08684

>  <Reference>
J Med Chem 61 (8), 3370-3388 (2018)

>  <Pubmed ID>
29590751

>  <DOI>
10.1021/acs.jmedchem.7b01870

$$$$
2240551
Actelion Java MolfileCreator 1.0

 34 38  0  0  0  0  0  0  0  0999 V2000
    0.0000   -0.0000   -0.0000 F   0  0  0  0  0  0  0  0  0  0  0  0
   -0.0124   -1.4887   -0.0000 C   0  0  0  0  0  0  0  0  0  0  0  0
   -1.3274   -2.2330   -0.0000 F   0  0  0  0  0  0  0  0  0  0  0  0
   -1.3398   -0.7195   -0.0000 F   0  0  0  0  0  0  0  0  0  0  0  0
    1.2778   -2.2330   -0.0000 C   0  0  0  0  0  0  0  0  0  0  0  0
    2.5679   -1.4639   -0.0000 C   0  0  0  0  0  0  0  0  0  0  0  0
    1.2654   -3.7341   -0.0000 C   0  0  0  0  0  0  0  0  0  0  0  0
    3.8581   -2.1958   -0.0000 C   0  0  0  0  0  0  0  0  0  0  0  0
    2.5555   -4.4784   -0.0000 C   0  0  0  0  0  0  0  0  0  0  0  0
    5.2848   -1.7120   -0.0000 N   0  0  0  0  0  0  0  0  0  0  0  0
    3.8457   -3.6968   -0.0000 C   0  0  0  0  0  0  0  0  0  0  0  0
    6.1655   -2.9153   -0.0000 C   0  0  0  0  0  0  0  0  0  0  0  0
    5.2723   -4.1559   -0.0000 N   0  0  0  0  0  0  0  0  0  0  0  0
    7.6542   -2.9029   -0.0000 C   0  0  0  0  0  0  0  0  0  0  0  0
    8.3861   -4.2055   -0.0000 C   0  0  0  0  0  0  0  0  0  0  0  0
    8.3861   -1.5879   -0.0000 C   0  0  0  0  0  0  0  0  0  0  0  0
    9.8748   -4.1931   -0.0000 N   0  0  0  0  0  0  0  0  0  0  0  0
    9.8748   -1.5631   -0.0000 C   0  0  0  0  0  0  0  0  0  0  0  0
   10.6191   -2.8781   -0.0000 C   0  0  0  0  0  0  0  0  0  0  0  0
   12.1822   -2.9277   -0.0000 N   0  0  0  0  0  0  0  0  0  0  0  0
   12.9142   -4.2303   -0.0000 C   0  0  0  0  0  0  0  0  0  0  0  0
   12.9142   -1.6127   -0.0000 C   0  0  0  0  0  0  0  0  0  0  0  0
   14.4028   -4.2303   -0.0000 C   0  0  0  0  0  0  0  0  0  0  0  0
   14.4152   -1.6127   -0.0000 C   0  0  0  0  0  0  0  0  0  0  0  0
   15.1471   -2.9153   -0.0000 C   0  0  0  0  0  0  0  0  0  0  0  0
   15.8791   -4.2055   -0.0000 C   0  0  0  0  0  0  0  0  0  0  0  0
   15.8791   -1.6127   -0.0000 C   0  0  0  0  0  0  0  0  0  0  0  0
   17.3553   -4.1931   -0.0000 C   0  0  0  0  0  0  0  0  0  0  0  0
   17.3677   -1.6127   -0.0000 C   0  0  0  0  0  0  0  0  0  0  0  0
   18.0997   -2.8905   -0.0000 C   0  0  0  0  0  0  0  0  0  0  0  0
   19.5883   -2.8905   -0.0000 C   0  0  0  0  0  0  0  0  0  0  0  0
   20.3327   -1.5755   -0.0000 C   0  0  0  0  0  0  0  0  0  0  0  0
   19.5759   -0.2605   -0.0000 O   0  0  0  0  0  0  0  0  0  0  0  0
   21.8213   -1.5755   -0.0000 O   0  0  0  0  0  0  0  0  0  0  0  0
  1  2  1  0  0  0  0
  2  3  1  0  0  0  0
  2  4  1  0  0  0  0
  2  5  1  0  0  0  0
  5  6  2  0  0  0  0
  5  7  1  0  0  0  0
  6  8  1  0  0  0  0
  7  9  2  0  0  0  0
  8 10  1  0  0  0  0
  8 11  2  0  0  0  0
 10 12  2  0  0  0  0
 11 13  1  0  0  0  0
 12 14  1  0  0  0  0
 14 15  2  0  0  0  0
 14 16  1  0  0  0  0
 15 17  1  0  0  0  0
 16 18  2  0  0  0  0
 17 19  2  0  0  0  0
 19 20  1  0  0  0  0
 20 21  1  0  0  0  0
 20 22  1  0  0  0  0
 21 23  1  0  0  0  0
 22 24  1  0  0  0  0
 23 25  1  0  0  0  0
 25 26  1  0  0  0  0
 25 27  1  0  0  0  0
 26 28  1  0  0  0  0
 27 29  1  0  0  0  0
 28 30  1  0  0  0  0
 30 31  1  0  0  0  0
 31 32  1  0  0  0  0
 32 33  2  0  0  0  0
 32 34  1  0  0  0  0
  9 11  1  0  0  0  0
 12 13  1  0  0  0  0
 18 19  1  0  0  0  0
 24 25  1  0  0  0  0
 29 30  1  0  0  0  0
M  END
>  <MolRegNo>
2240551

>  <m>
=

>  <Value>
6400

>  <Unit>
nM

>  <Type>
IC50

>  <pValue>
5.19

>  <Ligand Efficiency>
0

>  <Binding Efficiency>
0

>  <Surface Efficiency>
0

>  <Assay Index>
1116597

>  <Assay Category>


>  <Assay Organism>
Homo sapiens

>  <Target ID>
17045

>  <Target Name>
Cytochrome P450 3A4

>  <Target Organism>
Homo sapiens

>  <Target Description>
Target is a single protein chain

>  <Sequence Accession>
P08684

>  <Reference>
J Med Chem 60 (9), 3594-3605 (2017)

>  <Pubmed ID>
28252959

>  <DOI>
10.1021/acs.jmedchem.6b01543

$$$$
2200266
Actelion Java MolfileCreator 1.0

 34 38  0  0  0  0  0  0  0  0999 V2000
    0.0000   -0.0000   -0.0000 F   0  0  0  0  0  0  0  0  0  0  0  0
    1.3023    0.7646   -0.0000 C   0  0  0  0  0  0  0  0  0  0  0  0
   -0.0239    1.5293   -0.0000 F   0  0  0  0  0  0  0  0  0  0  0  0
    1.2903    2.2939   -0.0000 F   0  0  0  0  0  0  0  0  0  0  0  0
    2.6046    0.0239   -0.0000 C   0  0  0  0  0  0  0  0  0  0  0  0
    3.8949    0.7885   -0.0000 C   0  0  0  0  0  0  0  0  0  0  0  0
    2.5926   -1.4815   -0.0000 C   0  0  0  0  0  0  0  0  0  0  0  0
    5.1972    0.0478   -0.0000 C   0  0  0  0  0  0  0  0  0  0  0  0
    3.8949   -2.2223   -0.0000 C   0  0  0  0  0  0  0  0  0  0  0  0
    6.6309    0.5257   -0.0000 N   0  0  0  0  0  0  0  0  0  0  0  0
    5.1853   -1.4576   -0.0000 C   0  0  0  0  0  0  0  0  0  0  0  0
    7.5150   -0.6930   -0.0000 C   0  0  0  0  0  0  0  0  0  0  0  0
    6.6190   -1.9116   -0.0000 N   0  0  0  0  0  0  0  0  0  0  0  0
    9.0204   -0.6810   -0.0000 C   0  0  0  0  0  0  0  0  0  0  0  0
    9.7612   -1.9833   -0.0000 C   0  0  0  0  0  0  0  0  0  0  0  0
    9.7492    0.6332   -0.0000 C   0  0  0  0  0  0  0  0  0  0  0  0
   11.2546   -1.9714   -0.0000 N   0  0  0  0  0  0  0  0  0  0  0  0
   11.2427    0.6571   -0.0000 C   0  0  0  0  0  0  0  0  0  0  0  0
   11.9954   -0.6452   -0.0000 C   0  0  0  0  0  0  0  0  0  0  0  0
   13.5008   -0.6332   -0.0000 N   0  0  0  0  0  0  0  0  0  0  0  0
   14.2416    0.6810   -0.0000 C   0  0  0  0  0  0  0  0  0  0  0  0
   14.2416   -1.9355   -0.0000 C   0  0  0  0  0  0  0  0  0  0  0  0
   15.7469    0.6930   -0.0000 C   0  0  0  0  0  0  0  0  0  0  0  0
   15.7350   -1.9236   -0.0000 C   0  0  0  0  0  0  0  0  0  0  0  0
   16.4877   -0.6093   -0.0000 C   0  0  0  0  0  0  0  0  0  0  0  0
   17.2165   -1.8877   -0.0000 O   0  0  0  0  0  0  0  0  0  0  0  0
   17.2165    0.6930   -0.0000 C   0  0  0  0  0  0  0  0  0  0  0  0
   18.6861   -1.8758   -0.0000 C   0  0  0  0  0  0  0  0  0  0  0  0
   18.6980    0.6930   -0.0000 C   0  0  0  0  0  0  0  0  0  0  0  0
   19.4268   -0.5735   -0.0000 C   0  0  0  0  0  0  0  0  0  0  0  0
   20.9083   -0.5735   -0.0000 C   0  0  0  0  0  0  0  0  0  0  0  0
   21.6491    0.7288   -0.0000 C   0  0  0  0  0  0  0  0  0  0  0  0
   20.8964    2.0430   -0.0000 O   0  0  0  0  0  0  0  0  0  0  0  0
   23.1306    0.7288   -0.0000 O   0  0  0  0  0  0  0  0  0  0  0  0
  1  2  1  0  0  0  0
  2  3  1  0  0  0  0
  2  4  1  0  0  0  0
  2  5  1  0  0  0  0
  5  6  2  0  0  0  0
  5  7  1  0  0  0  0
  6  8  1  0  0  0  0
  7  9  2  0  0  0  0
  8 10  1  0  0  0  0
  8 11  2  0  0  0  0
 10 12  2  0  0  0  0
 11 13  1  0  0  0  0
 12 14  1  0  0  0  0
 14 15  2  0  0  0  0
 14 16  1  0  0  0  0
 15 17  1  0  0  0  0
 16 18  2  0  0  0  0
 17 19  2  0  0  0  0
 19 20  1  0  0  0  0
 20 21  1  0  0  0  0
 20 22  1  0  0  0  0
 21 23  1  0  0  0  0
 22 24  1  0  0  0  0
 23 25  1  0  0  0  0
 25 26  1  0  0  0  0
 25 27  1  0  0  0  0
 26 28  1  0  0  0  0
 27 29  1  0  0  0  0
 28 30  1  0  0  0  0
 30 31  1  0  0  0  0
 31 32  1  0  0  0  0
 32 33  2  0  0  0  0
 32 34  1  0  0  0  0
  9 11  1  0  0  0  0
 12 13  1  0  0  0  0
 18 19  1  0  0  0  0
 24 25  1  0  0  0  0
 29 30  1  0  0  0  0
M  END
>  <MolRegNo>
2200266

>  <m>
=

>  <Value>
19500

>  <Unit>
nM

>  <Type>
IC50

>  <pValue>
4.71

>  <Ligand Efficiency>
0

>  <Binding Efficiency>
0

>  <Surface Efficiency>
0

>  <Assay Index>
1116597

>  <Assay Category>


>  <Assay Organism>
Homo sapiens

>  <Target ID>
17045

>  <Target Name>
Cytochrome P450 3A4

>  <Target Organism>
Homo sapiens

>  <Target Description>
Target is a single protein chain

>  <Sequence Accession>
P08684

>  <Reference>
J Med Chem 60 (9), 3594-3605 (2017)

>  <Pubmed ID>
28252959

>  <DOI>
10.1021/acs.jmedchem.6b01543

$$$$
2208522
Actelion Java MolfileCreator 1.0

 41 46  0  0  0  0  0  0  0  0999 V2000
    0.0000   -0.0000   -0.0000 S   0  0  0  0  0  0  0  0  0  0  0  0
    0.7791    1.2631   -0.0000 O   0  0  0  0  0  0  0  0  0  0  0  0
   -0.7555    1.3103   -0.0000 O   0  0  0  0  0  0  0  0  0  0  0  0
   -1.3103   -0.7319   -0.0000 N   0  0  0  0  0  0  0  0  0  0  0  0
    1.2040   -0.8735   -0.0000 C   0  0  0  0  0  0  0  0  0  0  0  0
   -2.6206    0.0236   -0.0000 C   0  0  0  0  0  0  0  0  0  0  0  0
   -1.3221   -2.2192   -0.0000 C   0  0  0  0  0  0  0  0  0  0  0  0
    1.1922   -2.3609   -0.0000 C   0  0  0  0  0  0  0  0  0  0  0  0
    2.6206   -0.4013   -0.0000 C   0  0  0  0  0  0  0  0  0  0  0  0
   -3.9309   -0.7083   -0.0000 C   0  0  0  0  0  0  0  0  0  0  0  0
   -2.6324   -2.9629   -0.0000 C   0  0  0  0  0  0  0  0  0  0  0  0
    2.6088   -2.8094   -0.0000 N   0  0  0  0  0  0  0  0  0  0  0  0
    3.4941   -1.6054   -0.0000 N   0  0  0  0  0  0  0  0  0  0  0  0
   -3.9427   -2.1956   -0.0000 C   0  0  0  0  0  0  0  0  0  0  0  0
   -3.9427    0.8027   -0.0000 C   0  0  0  0  0  0  0  0  0  0  0  0
   -5.2411    0.0472   -0.0000 C   0  0  0  0  0  0  0  0  0  0  0  0
    4.9814   -1.5936   -0.0000 C   0  0  0  0  0  0  0  0  0  0  0  0
   -5.2530   -2.9393   -0.0000 C   0  0  0  0  0  0  0  0  0  0  0  0
   -2.6560    1.5582   -0.0000 O   0  0  0  0  0  0  0  0  0  0  0  0
   -5.2530    1.5582   -0.0000 C   0  0  0  0  0  0  0  0  0  0  0  0
   -6.5514   -0.6847   -0.0000 C   0  0  0  0  0  0  0  0  0  0  0  0
   -6.5632   -2.1720   -0.0000 C   0  0  0  0  0  0  0  0  0  0  0  0
   -6.5632    0.8145   -0.0000 N   0  0  0  0  0  0  0  0  0  0  0  0
   -5.2648    3.0691   -0.0000 C   0  0  0  0  0  0  0  0  0  0  0  0
   -7.9916   -0.2125   -0.0000 C   0  0  0  0  0  0  0  0  0  0  0  0
   -8.0034   -2.6206   -0.0000 N   0  0  0  0  0  0  0  0  0  0  0  0
   -7.8735    1.5700   -0.0000 C   0  0  0  0  0  0  0  0  0  0  0  0
   -6.5750    3.8364   -0.0000 C   0  0  0  0  0  0  0  0  0  0  0  0
   -8.8887   -1.4165   -0.0000 N   0  0  0  0  0  0  0  0  0  0  0  0
   -8.4755   -4.0371   -0.0000 C   0  0  0  0  0  0  0  0  0  0  0  0
   -7.8853    3.0809   -0.0000 C   0  0  0  0  0  0  0  0  0  0  0  0
   -6.5868    5.3474   -0.0000 C   0  0  0  0  0  0  0  0  0  0  0  0
   -7.4840   -5.1349   -0.0000 C   0  0  0  0  0  0  0  0  0  0  0  0
   -9.9511   -4.3322   -0.0000 C   0  0  0  0  0  0  0  0  0  0  0  0
   -6.5987    6.8583   -0.0000 F   0  0  0  0  0  0  0  0  0  0  0  0
   -5.7369    6.5632   -0.0000 F   0  0  0  0  0  0  0  0  0  0  0  0
   -7.3895    6.5987   -0.0000 F   0  0  0  0  0  0  0  0  0  0  0  0
   -7.9562   -6.5514   -0.0000 C   0  0  0  0  0  0  0  0  0  0  0  0
  -10.4233   -5.7487   -0.0000 C   0  0  0  0  0  0  0  0  0  0  0  0
   -9.4317   -6.8465   -0.0000 C   0  0  0  0  0  0  0  0  0  0  0  0
   -9.9039   -8.2631   -0.0000 F   0  0  0  0  0  0  0  0  0  0  0  0
  1  2  2  0  0  0  0
  1  3  2  0  0  0  0
  1  4  1  0  0  0  0
  1  5  1  0  0  0  0
  4  6  1  0  0  0  0
  4  7  1  0  0  0  0
  5  8  1  0  0  0  0
  5  9  2  0  0  0  0
  6 10  1  0  0  0  0
  7 11  1  0  0  0  0
  8 12  2  0  0  0  0
  9 13  1  0  0  0  0
 10 14  1  0  0  0  0
 10 15  1  6  0  0  0
 10 16  1  0  0  0  0
 13 17  1  0  0  0  0
 14 18  2  0  0  0  0
 15 19  2  0  0  0  0
 15 20  1  0  0  0  0
 16 21  1  0  0  0  0
 18 22  1  0  0  0  0
 20 23  2  0  0  0  0
 20 24  1  0  0  0  0
 21 25  1  0  0  0  0
 22 26  1  0  0  0  0
 23 27  1  0  0  0  0
 24 28  2  0  0  0  0
 25 29  2  0  0  0  0
 26 30  1  0  0  0  0
 27 31  2  0  0  0  0
 28 32  1  0  0  0  0
 30 33  2  0  0  0  0
 30 34  1  0  0  0  0
 32 35  1  0  0  0  0
 32 36  1  0  0  0  0
 32 37  1  0  0  0  0
 33 38  1  0  0  0  0
 34 39  2  0  0  0  0
 38 40  2  0  0  0  0
 40 41  1  0  0  0  0
 11 14  1  0  0  0  0
 12 13  1  0  0  0  0
 21 22  2  0  0  0  0
 26 29  1  0  0  0  0
 28 31  1  0  0  0  0
 39 40  1  0  0  0  0
M  END
>  <MolRegNo>
2208522

>  <m>
=

>  <Value>
1300

>  <Unit>
nM

>  <Type>
IC50

>  <pValue>
5.89

>  <Ligand Efficiency>
0

>  <Binding Efficiency>
0

>  <Surface Efficiency>
0

>  <Assay Index>
1117623

>  <Assay Category>


>  <Assay Organism>
Homo sapiens

>  <Target ID>
17045

>  <Target Name>
Cytochrome P450 3A4

>  <Target Organism>
Homo sapiens

>  <Target Description>
Target is a single protein chain

>  <Sequence Accession>
P08684

>  <Reference>
J Med Chem 60 (8), 3405-3421 (2017)

>  <Pubmed ID>
28368581

>  <DOI>
10.1021/acs.jmedchem.7b00162

$$$$
2203248
Actelion Java MolfileCreator 1.0

 25 26  0  0  0  0  0  0  0  0999 V2000
    0.0000   -0.0000   -0.0000 Cl  0  0  0  0  0  0  0  0  0  0  0  0
  -11.8589   -9.4871   -0.0000 F   0  0  0  0  0  0  0  0  0  0  0  0
  -11.2660   -8.1115   -0.0000 C   0  0  0  0  0  0  0  0  0  0  0  0
  -12.0250   -6.8070   -0.0000 C   0  0  0  0  0  0  0  0  0  0  0  0
   -9.8192   -7.7795   -0.0000 C   0  0  0  0  0  0  0  0  0  0  0  0
  -13.5310   -6.6410   -0.0000 O   0  0  0  0  0  0  0  0  0  0  0  0
  -11.0407   -5.6804   -0.0000 C   0  0  0  0  0  0  0  0  0  0  0  0
   -9.6769   -6.2734   -0.0000 N   0  0  0  0  0  0  0  0  0  0  0  0
   -8.3961   -5.5144   -0.0000 C   0  0  0  0  0  0  0  0  0  0  0  0
   -7.1154   -6.2497   -0.0000 O   0  0  0  0  0  0  0  0  0  0  0  0
   -8.4080   -4.0083   -0.0000 C   0  0  0  0  0  0  0  0  0  0  0  0
   -7.1272   -3.2493   -0.0000 C   0  0  0  0  0  0  0  0  0  0  0  0
   -9.7243   -3.2493   -0.0000 C   0  0  0  0  0  0  0  0  0  0  0  0
   -7.1509   -1.7551   -0.0000 C   0  0  0  0  0  0  0  0  0  0  0  0
   -9.7362   -1.7433   -0.0000 C   0  0  0  0  0  0  0  0  0  0  0  0
   -5.8702   -0.9962   -0.0000 O   0  0  0  0  0  0  0  0  0  0  0  0
   -8.4554   -0.9843   -0.0000 C   0  0  0  0  0  0  0  0  0  0  0  0
   -5.8820    0.5099   -0.0000 C   0  0  0  0  0  0  0  0  0  0  0  0
   -7.1865    1.2689   -0.0000 N   0  0  0  0  0  0  0  0  0  0  0  0
   -4.5894    1.2689   -0.0000 C   0  0  0  0  0  0  0  0  0  0  0  0
   -7.1984    2.7869   -0.0000 C   0  0  0  0  0  0  0  0  0  0  0  0
   -4.6013    2.7869   -0.0000 C   0  0  0  0  0  0  0  0  0  0  0  0
   -5.9176    3.5458   -0.0000 C   0  0  0  0  0  0  0  0  0  0  0  0
   -3.3205    3.5458   -0.0000 C   0  0  0  0  0  0  0  0  0  0  0  0
   -2.0397    2.8106   -0.0000 N   0  0  0  0  0  0  0  0  0  0  0  0
  3  2  1  6  0  0  0
  3  4  1  0  0  0  0
  3  5  1  0  0  0  0
  4  6  1  1  0  0  0
  4  7  1  0  0  0  0
  5  8  1  0  0  0  0
  8  9  1  0  0  0  0
  9 10  2  0  0  0  0
  9 11  1  0  0  0  0
 11 12  2  0  0  0  0
 11 13  1  0  0  0  0
 12 14  1  0  0  0  0
 13 15  2  0  0  0  0
 14 16  1  0  0  0  0
 14 17  2  0  0  0  0
 16 18  1  0  0  0  0
 18 19  2  0  0  0  0
 18 20  1  0  0  0  0
 19 21  1  0  0  0  0
 20 22  2  0  0  0  0
 21 23  2  0  0  0  0
 22 24  1  0  0  0  0
 24 25  1  0  0  0  0
  7  8  1  0  0  0  0
 15 17  1  0  0  0  0
 22 23  1  0  0  0  0
M  END
>  <MolRegNo>
2203248

>  <m>
=

>  <Value>
30000

>  <Unit>
nM

>  <Type>
IC50

>  <pValue>
4.52

>  <Ligand Efficiency>
0

>  <Binding Efficiency>
0

>  <Surface Efficiency>
0

>  <Assay Index>
1118793

>  <Assay Category>


>  <Assay Organism>
Homo sapiens

>  <Target ID>
17045

>  <Target Name>
Cytochrome P450 3A4

>  <Target Organism>
Homo sapiens

>  <Target Description>
Target is a single protein chain

>  <Sequence Accession>
P08684

>  <Reference>
J Med Chem 60 (10), 4403-4423 (2017)

>  <Pubmed ID>
28471663

>  <DOI>
10.1021/acs.jmedchem.7b00345

$$$$
2223276
Actelion Java MolfileCreator 1.0

 36 39  0  0  0  0  0  0  0  0999 V2000
    0.0000   -0.0000   -0.0000 F   0  0  0  0  0  0  0  0  0  0  0  0
   -1.3149   -0.7463   -0.0000 C   0  0  0  0  0  0  0  0  0  0  0  0
   -1.3268   -2.2390   -0.0000 C   0  0  0  0  0  0  0  0  0  0  0  0
   -2.6299    0.0118   -0.0000 C   0  0  0  0  0  0  0  0  0  0  0  0
   -0.0355   -2.9734   -0.0000 C   0  0  0  0  0  0  0  0  0  0  0  0
   -2.6417   -2.9734   -0.0000 C   0  0  0  0  0  0  0  0  0  0  0  0
   -3.9448   -0.7345   -0.0000 C   0  0  0  0  0  0  0  0  0  0  0  0
   -0.0474   -4.4661   -0.0000 C   0  0  0  0  0  0  0  0  0  0  0  0
    1.2557   -2.2153   -0.0000 C   0  0  0  0  0  0  0  0  0  0  0  0
   -3.9567   -2.2153   -0.0000 C   0  0  0  0  0  0  0  0  0  0  0  0
    1.2439   -5.2006   -0.0000 C   0  0  0  0  0  0  0  0  0  0  0  0
    2.5470   -2.9497   -0.0000 C   0  0  0  0  0  0  0  0  0  0  0  0
   -5.2716   -2.9497   -0.0000 O   0  0  0  0  0  0  0  0  0  0  0  0
    2.5351   -4.4424   -0.0000 C   0  0  0  0  0  0  0  0  0  0  0  0
    1.2320   -6.6932   -0.0000 C   0  0  0  0  0  0  0  0  0  0  0  0
   -6.5866   -2.1916   -0.0000 C   0  0  0  0  0  0  0  0  0  0  0  0
    3.8264   -5.1769   -0.0000 C   0  0  0  0  0  0  0  0  0  0  0  0
    5.1176   -4.4187   -0.0000 C   0  0  0  0  0  0  0  0  0  0  0  0
    5.1058   -2.9024   -0.0000 C   0  0  0  0  0  0  0  0  0  0  0  0
    6.4089   -5.1532   -0.0000 C   0  0  0  0  0  0  0  0  0  0  0  0
    6.3970   -2.1442   -0.0000 C   0  0  0  0  0  0  0  0  0  0  0  0
    7.7001   -4.3950   -0.0000 C   0  0  0  0  0  0  0  0  0  0  0  0
    7.6883   -2.8787   -0.0000 C   0  0  0  0  0  0  0  0  0  0  0  0
    8.9796   -2.1205   -0.0000 N   0  0  0  0  0  0  0  0  0  0  0  0
   10.3419   -2.7128   -0.0000 C   0  0  0  0  0  0  0  0  0  0  0  0
    9.1336   -0.6042   -0.0000 C   0  0  0  0  0  0  0  0  0  0  0  0
   11.3370   -1.5874   -0.0000 C   0  0  0  0  0  0  0  0  0  0  0  0
   10.6499   -4.1818   -0.0000 C   0  0  0  0  0  0  0  0  0  0  0  0
   10.5907   -0.2725   -0.0000 C   0  0  0  0  0  0  0  0  0  0  0  0
   12.0715   -4.6319   -0.0000 C   0  0  0  0  0  0  0  0  0  0  0  0
   11.1830    1.1136   -0.0000 C   0  0  0  0  0  0  0  0  0  0  0  0
   12.2965   -6.1009   -0.0000 O   0  0  0  0  0  0  0  0  0  0  0  0
   13.2324   -3.6724   -0.0000 O   0  0  0  0  0  0  0  0  0  0  0  0
   12.2373    2.1916   -0.0000 F   0  0  0  0  0  0  0  0  0  0  0  0
   12.6282    0.7345   -0.0000 F   0  0  0  0  0  0  0  0  0  0  0  0
   10.2827    2.3337   -0.0000 F   0  0  0  0  0  0  0  0  0  0  0  0
  1  2  1  0  0  0  0
  2  3  2  0  0  0  0
  2  4  1  0  0  0  0
  3  5  1  0  0  0  0
  3  6  1  0  0  0  0
  4  7  2  0  0  0  0
  5  8  2  0  0  0  0
  5  9  1  0  0  0  0
  6 10  2  0  0  0  0
  8 11  1  0  0  0  0
  9 12  2  0  0  0  0
 10 13  1  0  0  0  0
 11 14  2  0  0  0  0
 11 15  1  0  0  0  0
 13 16  1  0  0  0  0
 14 17  1  0  0  0  0
 17 18  1  0  0  0  0
 18 19  2  0  0  0  0
 18 20  1  0  0  0  0
 19 21  1  0  0  0  0
 20 22  2  0  0  0  0
 21 23  2  0  0  0  0
 23 24  1  0  0  0  0
 24 25  1  0  0  0  0
 24 26  1  0  0  0  0
 25 27  1  0  0  0  0
 25 28  1  1  0  0  0
 26 29  1  0  0  0  0
 28 30  1  0  0  0  0
 29 31  1  1  0  0  0
 30 32  2  0  0  0  0
 30 33  1  0  0  0  0
 31 34  1  0  0  0  0
 31 35  1  0  0  0  0
 31 36  1  0  0  0  0
  7 10  1  0  0  0  0
 12 14  1  0  0  0  0
 22 23  1  0  0  0  0
 27 29  1  0  0  0  0
M  END
>  <MolRegNo>
2223276

>  <m>
=

>  <Value>
1700

>  <Unit>
nM

>  <Type>
IC50

>  <pValue>
5.77

>  <Ligand Efficiency>
0

>  <Binding Efficiency>
0

>  <Surface Efficiency>
0

>  <Assay Index>
1119434

>  <Assay Category>


>  <Assay Organism>
Homo sapiens

>  <Target ID>
17045

>  <Target Name>
Cytochrome P450 3A4

>  <Target Organism>
Homo sapiens

>  <Target Description>
Target is a single protein chain

>  <Sequence Accession>
P08684

>  <Reference>
J Med Chem 60 (4), 1417-1431 (2017)

>  <Pubmed ID>
28112924

>  <DOI>
10.1021/acs.jmedchem.6b01559

$$$$
2214215
Actelion Java MolfileCreator 1.0

 29 32  0  0  1  0  0  0  0  0999 V2000
    0.0000   -0.0000   -0.0000 Cl  0  0  0  0  0  0  0  0  0  0  0  0
   -1.0899    0.6246   -0.0000 C   0  0  0  0  0  0  0  0  0  0  0  0
   -2.4493   -0.1470   -0.0000 C   0  0  0  0  0  0  0  0  0  0  0  0
   -1.1022    2.1921   -0.0000 C   0  0  0  0  0  0  0  0  0  0  0  0
   -2.4615   -1.6900   -0.0000 C   0  0  0  0  0  0  0  0  0  0  0  0
   -3.8086    0.6368   -0.0000 C   0  0  0  0  0  0  0  0  0  0  0  0
   -2.4615    2.9759   -0.0000 C   0  0  0  0  0  0  0  0  0  0  0  0
    0.2327    2.9881   -0.0000 C   0  0  0  0  0  0  0  0  0  0  0  0
   -1.3961   -2.3023   -0.0000 O   0  0  0  0  0  0  0  0  0  0  0  0
   -3.8209   -2.4615   -0.0000 N   0  0  0  0  0  0  0  0  0  0  0  0
   -3.8209    2.2043   -0.0000 C   0  0  0  0  0  0  0  0  0  0  0  0
    0.2204    4.2495   -0.0000 F   0  0  0  0  0  0  0  0  0  0  0  0
    1.2981    2.3880   -0.0000 F   0  0  0  0  0  0  0  0  0  0  0  0
    1.2981    3.6249   -0.0000 F   0  0  0  0  0  0  0  0  0  0  0  0
   -3.8331   -4.0046   -0.0000 C   0  0  0  0  0  0  0  0  0  0  0  0
   -5.1802   -1.6778   -0.0000 C   0  0  0  0  0  0  0  0  0  0  0  0
   -5.1925   -4.7638   -0.0000 C   0  0  0  0  0  0  0  0  0  0  0  0
   -2.7677   -4.6169   -0.0000 C   0  0  0  0  0  0  0  0  0  0  0  0
   -6.5396   -2.4370   -0.0000 C   0  0  0  0  0  0  0  0  0  0  0  0
   -5.5231   -6.2702   -0.0000 N   0  0  0  0  0  0  0  0  0  0  0  0
   -6.5518   -3.9801   -0.0000 C   0  0  0  0  0  0  0  0  0  0  0  0
   -7.0784   -6.4171   -0.0000 N   0  0  0  0  0  0  0  0  0  0  0  0
   -7.7152   -5.0088   -0.0000 N   0  0  0  0  0  0  0  0  0  0  0  0
   -9.2460   -4.6781   -0.0000 C   0  0  0  0  0  0  0  0  0  0  0  0
   -9.6257   -3.1473   -0.0000 N   0  0  0  0  0  0  0  0  0  0  0  0
  -10.3727   -5.7313   -0.0000 C   0  0  0  0  0  0  0  0  0  0  0  0
  -11.1320   -2.6942   -0.0000 C   0  0  0  0  0  0  0  0  0  0  0  0
  -11.8790   -5.2782   -0.0000 N   0  0  0  0  0  0  0  0  0  0  0  0
  -12.2709   -3.7596   -0.0000 C   0  0  0  0  0  0  0  0  0  0  0  0
  1  2  1  0  0  0  0
  2  3  2  0  0  0  0
  2  4  1  0  0  0  0
  3  5  1  0  0  0  0
  3  6  1  0  0  0  0
  4  7  2  0  0  0  0
  4  8  1  0  0  0  0
  5  9  2  0  0  0  0
  5 10  1  0  0  0  0
  6 11  2  0  0  0  0
  8 12  1  0  0  0  0
  8 13  1  0  0  0  0
  8 14  1  0  0  0  0
 10 15  1  0  0  0  0
 10 16  1  0  0  0  0
 15 17  1  0  0  0  0
 15 18  1  6  0  0  0
 16 19  1  0  0  0  0
 17 20  1  0  0  0  0
 17 21  2  0  0  0  0
 20 22  2  0  0  0  0
 21 23  1  0  0  0  0
 23 24  1  0  0  0  0
 24 25  2  0  0  0  0
 24 26  1  0  0  0  0
 25 27  1  0  0  0  0
 26 28  2  0  0  0  0
 27 29  2  0  0  0  0
  7 11  1  0  0  0  0
 19 21  1  0  0  0  0
 22 23  1  0  0  0  0
 28 29  1  0  0  0  0
M  END
>  <MolRegNo>
2214215

>  <m>
=

>  <Value>
2300

>  <Unit>
nM

>  <Type>
IC50

>  <pValue>
5.64

>  <Ligand Efficiency>
0

>  <Binding Efficiency>
0

>  <Surface Efficiency>
0

>  <Assay Index>
1120906

>  <Assay Category>


>  <Assay Organism>
Homo sapiens

>  <Target ID>
17045

>  <Target Name>
Cytochrome P450 3A4

>  <Target Organism>
Homo sapiens

>  <Target Description>
Target is a single protein chain

>  <Sequence Accession>
P08684

>  <Reference>
J Med Chem 60 (11), 4559-4572 (2017)

>  <Pubmed ID>
28493698

>  <DOI>
10.1021/acs.jmedchem.7b00408

$$$$
2236056
Actelion Java MolfileCreator 1.0

 28 31  0  0  0  0  0  0  0  0999 V2000
    0.0000   -0.0000   -0.0000 O   0  0  0  0  0  0  0  0  0  0  0  0
   -0.0119   -1.4965   -0.0000 C   0  0  0  0  0  0  0  0  0  0  0  0
   -1.3302   -2.2329   -0.0000 N   0  0  0  0  0  0  0  0  0  0  0  0
    1.2827   -2.2329   -0.0000 C   0  0  0  0  0  0  0  0  0  0  0  0
    2.5654   -1.4727   -0.0000 C   0  0  0  0  0  0  0  0  0  0  0  0
    1.2708   -3.7293   -0.0000 C   0  0  0  0  0  0  0  0  0  0  0  0
    2.5535    0.0475   -0.0000 N   0  0  0  0  0  0  0  0  0  0  0  0
    3.8600   -2.2091   -0.0000 C   0  0  0  0  0  0  0  0  0  0  0  0
    2.5654   -4.4657   -0.0000 N   0  0  0  0  0  0  0  0  0  0  0  0
    3.8362    0.8195   -0.0000 C   0  0  0  0  0  0  0  0  0  0  0  0
    3.8600   -3.7056   -0.0000 N   0  0  0  0  0  0  0  0  0  0  0  0
    5.2733   -1.7221   -0.0000 C   0  0  0  0  0  0  0  0  0  0  0  0
    3.9788    2.3397   -0.0000 C   0  0  0  0  0  0  0  0  0  0  0  0
    5.2021    0.2257   -0.0000 C   0  0  0  0  0  0  0  0  0  0  0  0
    5.2852   -4.1450   -0.0000 C   0  0  0  0  0  0  0  0  0  0  0  0
    6.1522   -2.9217   -0.0000 C   0  0  0  0  0  0  0  0  0  0  0  0
    5.4396    2.6604   -0.0000 C   0  0  0  0  0  0  0  0  0  0  0  0
    2.6604    3.0999   -0.0000 C   0  0  0  0  0  0  0  0  0  0  0  0
    3.9669    3.8600   -0.0000 C   0  0  0  0  0  0  0  0  0  0  0  0
    6.1879    1.3540   -0.0000 C   0  0  0  0  0  0  0  0  0  0  0  0
    7.6487   -2.8980   -0.0000 C   0  0  0  0  0  0  0  0  0  0  0  0
    6.7223    3.4324   -0.0000 N   0  0  0  0  0  0  0  0  0  0  0  0
    5.4159    4.1807   -0.0000 C   0  0  0  0  0  0  0  0  0  0  0  0
    8.3970   -4.1807   -0.0000 C   0  0  0  0  0  0  0  0  0  0  0  0
    8.3732   -1.5796   -0.0000 C   0  0  0  0  0  0  0  0  0  0  0  0
    9.8934   -4.1569   -0.0000 C   0  0  0  0  0  0  0  0  0  0  0  0
    9.8578   -1.5559   -0.0000 C   0  0  0  0  0  0  0  0  0  0  0  0
   10.6298   -2.8386   -0.0000 C   0  0  0  0  0  0  0  0  0  0  0  0
  1  2  2  0  0  0  0
  2  3  1  0  0  0  0
  2  4  1  0  0  0  0
  4  5  2  0  0  0  0
  4  6  1  0  0  0  0
  5  7  1  0  0  0  0
  5  8  1  0  0  0  0
  6  9  2  0  0  0  0
 10  7  1  1  0  0  0
  8 11  1  0  0  0  0
  8 12  2  0  0  0  0
 10 13  1  0  0  0  0
 10 14  1  0  0  0  0
 11 15  1  0  0  0  0
 12 16  1  0  0  0  0
 13 17  1  0  0  0  0
 13 18  1  0  0  0  0
 13 19  1  0  0  0  0
 14 20  1  0  0  0  0
 16 21  1  0  0  0  0
 17 22  1  1  0  0  0
 17 23  1  0  0  0  0
 21 24  2  0  0  0  0
 21 25  1  0  0  0  0
 24 26  1  0  0  0  0
 25 27  2  0  0  0  0
 26 28  2  0  0  0  0
  9 11  1  0  0  0  0
 15 16  2  0  0  0  0
 17 20  1  0  0  0  0
 27 28  1  0  0  0  0
M  END
>  <MolRegNo>
2236056

>  <m>
=

>  <Value>
3000

>  <Unit>
nM

>  <Type>
IC50

>  <pValue>
5.52

>  <Ligand Efficiency>
0

>  <Binding Efficiency>
0

>  <Surface Efficiency>
0

>  <Assay Index>
1121018

>  <Assay Category>


>  <Assay Organism>
Homo sapiens

>  <Target ID>
17045

>  <Target Name>
Cytochrome P450 3A4

>  <Target Organism>
Homo sapiens

>  <Target Description>
Target is a single protein chain

>  <Sequence Accession>
P08684

>  <Reference>
Bioorg Med Chem Lett 27 (14), 3101-3106 (2017)

>  <Pubmed ID>
28539220

>  <DOI>
10.1016/j.bmcl.2017.05.043

$$$$
2220708
Actelion Java MolfileCreator 1.0

 30 33  0  0  0  0  0  0  0  0999 V2000
    0.0000   -0.0000   -0.0000 O   0  0  0  0  0  0  0  0  0  0  0  0
   -0.0119   -1.4966   -0.0000 C   0  0  0  0  0  0  0  0  0  0  0  0
   -1.3303   -2.2331   -0.0000 N   0  0  0  0  0  0  0  0  0  0  0  0
    1.2828   -2.2331   -0.0000 C   0  0  0  0  0  0  0  0  0  0  0  0
    2.5657   -1.4729   -0.0000 C   0  0  0  0  0  0  0  0  0  0  0  0
    1.2710   -3.7297   -0.0000 C   0  0  0  0  0  0  0  0  0  0  0  0
    2.5538    0.0475   -0.0000 N   0  0  0  0  0  0  0  0  0  0  0  0
    3.8604   -2.2093   -0.0000 C   0  0  0  0  0  0  0  0  0  0  0  0
    2.5657   -4.4662   -0.0000 N   0  0  0  0  0  0  0  0  0  0  0  0
    3.8366    0.8196   -0.0000 C   0  0  0  0  0  0  0  0  0  0  0  0
    3.8604   -3.7060   -0.0000 N   0  0  0  0  0  0  0  0  0  0  0  0
    5.2739   -1.7223   -0.0000 C   0  0  0  0  0  0  0  0  0  0  0  0
    3.9792    2.3400   -0.0000 C   0  0  0  0  0  0  0  0  0  0  0  0
    5.2026    0.2257   -0.0000 C   0  0  0  0  0  0  0  0  0  0  0  0
    5.2858   -4.1573   -0.0000 C   0  0  0  0  0  0  0  0  0  0  0  0
    6.1529   -2.9220   -0.0000 C   0  0  0  0  0  0  0  0  0  0  0  0
    5.4402    2.6607   -0.0000 C   0  0  0  0  0  0  0  0  0  0  0  0
    2.6607    3.1002   -0.0000 C   0  0  0  0  0  0  0  0  0  0  0  0
    3.9673    3.8604   -0.0000 C   0  0  0  0  0  0  0  0  0  0  0  0
    6.1885    1.3541   -0.0000 C   0  0  0  0  0  0  0  0  0  0  0  0
    7.6495   -2.8983   -0.0000 C   0  0  0  0  0  0  0  0  0  0  0  0
    6.7230    3.4328   -0.0000 N   0  0  0  0  0  0  0  0  0  0  0  0
    5.4164    4.1811   -0.0000 C   0  0  0  0  0  0  0  0  0  0  0  0
    8.3978   -4.1811   -0.0000 C   0  0  0  0  0  0  0  0  0  0  0  0
    8.3741   -1.5798   -0.0000 C   0  0  0  0  0  0  0  0  0  0  0  0
    9.8945   -4.1573   -0.0000 N   0  0  0  0  0  0  0  0  0  0  0  0
    9.8588   -1.5560   -0.0000 C   0  0  0  0  0  0  0  0  0  0  0  0
   10.6309   -2.8389   -0.0000 C   0  0  0  0  0  0  0  0  0  0  0  0
   12.1275   -2.8151   -0.0000 O   0  0  0  0  0  0  0  0  0  0  0  0
   12.8759   -4.0979   -0.0000 C   0  0  0  0  0  0  0  0  0  0  0  0
  1  2  2  0  0  0  0
  2  3  1  0  0  0  0
  2  4  1  0  0  0  0
  4  5  2  0  0  0  0
  4  6  1  0  0  0  0
  5  7  1  0  0  0  0
  5  8  1  0  0  0  0
  6  9  2  0  0  0  0
 10  7  1  1  0  0  0
  8 11  1  0  0  0  0
  8 12  2  0  0  0  0
 10 13  1  0  0  0  0
 10 14  1  0  0  0  0
 11 15  1  0  0  0  0
 12 16  1  0  0  0  0
 13 17  1  0  0  0  0
 13 18  1  0  0  0  0
 13 19  1  0  0  0  0
 14 20  1  0  0  0  0
 16 21  1  0  0  0  0
 17 22  1  1  0  0  0
 17 23  1  0  0  0  0
 21 24  2  0  0  0  0
 21 25  1  0  0  0  0
 24 26  1  0  0  0  0
 25 27  2  0  0  0  0
 26 28  2  0  0  0  0
 28 29  1  0  0  0  0
 29 30  1  0  0  0  0
  9 11  1  0  0  0  0
 15 16  2  0  0  0  0
 17 20  1  0  0  0  0
 27 28  1  0  0  0  0
M  END
>  <MolRegNo>
2220708

>  <m>
=

>  <Value>
11000

>  <Unit>
nM

>  <Type>
IC50

>  <pValue>
4.96

>  <Ligand Efficiency>
0

>  <Binding Efficiency>
0

>  <Surface Efficiency>
0

>  <Assay Index>
1121018

>  <Assay Category>


>  <Assay Organism>
Homo sapiens

>  <Target ID>
17045

>  <Target Name>
Cytochrome P450 3A4

>  <Target Organism>
Homo sapiens

>  <Target Description>
Target is a single protein chain

>  <Sequence Accession>
P08684

>  <Reference>
Bioorg Med Chem Lett 27 (14), 3101-3106 (2017)

>  <Pubmed ID>
28539220

>  <DOI>
10.1016/j.bmcl.2017.05.043

$$$$
2208254
Actelion Java MolfileCreator 1.0

 34 37  0  0  0  0  0  0  0  0999 V2000
    0.0000   -0.0000   -0.0000 F   0  0  0  0  0  0  0  0  0  0  0  0
    1.2827   -0.7364   -0.0000 C   0  0  0  0  0  0  0  0  0  0  0  0
    2.5772    0.0238   -0.0000 C   0  0  0  0  0  0  0  0  0  0  0  0
    1.2708   -2.2328   -0.0000 C   0  0  0  0  0  0  0  0  0  0  0  0
    3.8599   -0.7007   -0.0000 C   0  0  0  0  0  0  0  0  0  0  0  0
    2.5654    1.5440   -0.0000 C   0  0  0  0  0  0  0  0  0  0  0  0
    2.5654   -2.9810   -0.0000 C   0  0  0  0  0  0  0  0  0  0  0  0
    3.8480   -2.1972   -0.0000 C   0  0  0  0  0  0  0  0  0  0  0  0
    2.5416    3.0642   -0.0000 O   0  0  0  0  0  0  0  0  0  0  0  0
    3.8599    2.3159   -0.0000 C   0  0  0  0  0  0  0  0  0  0  0  0
    1.2470    2.3159   -0.0000 C   0  0  0  0  0  0  0  0  0  0  0  0
    2.5535   -4.4656   -0.0000 F   0  0  0  0  0  0  0  0  0  0  0  0
    3.8362    3.8243   -0.0000 F   0  0  0  0  0  0  0  0  0  0  0  0
    5.1426    3.0879   -0.0000 F   0  0  0  0  0  0  0  0  0  0  0  0
    5.1545    1.5677   -0.0000 C   0  0  0  0  0  0  0  0  0  0  0  0
    1.2352    3.8362   -0.0000 N   0  0  0  0  0  0  0  0  0  0  0  0
    5.1426    0.0713   -0.0000 N   0  0  0  0  0  0  0  0  0  0  0  0
    6.4371    2.3397   -0.0000 C   0  0  0  0  0  0  0  0  0  0  0  0
    2.4347    4.7388   -0.0000 N   0  0  0  0  0  0  0  0  0  0  0  0
    0.0000    4.7388   -0.0000 C   0  0  0  0  0  0  0  0  0  0  0  0
    6.4371   -0.6651   -0.0000 C   0  0  0  0  0  0  0  0  0  0  0  0
    7.7198    1.6033   -0.0000 C   0  0  0  0  0  0  0  0  0  0  0  0
    1.9596    6.1877   -0.0000 N   0  0  0  0  0  0  0  0  0  0  0  0
    0.4632    6.1877   -0.0000 N   0  0  0  0  0  0  0  0  0  0  0  0
    7.7198    0.0950   -0.0000 C   0  0  0  0  0  0  0  0  0  0  0  0
    9.0144   -0.6295   -0.0000 C   0  0  0  0  0  0  0  0  0  0  0  0
   10.3089   -1.3777   -0.0000 C   0  0  0  0  0  0  0  0  0  0  0  0
   11.6035   -2.1140   -0.0000 C   0  0  0  0  0  0  0  0  0  0  0  0
   11.5916   -3.6105   -0.0000 C   0  0  0  0  0  0  0  0  0  0  0  0
   12.8861   -1.3539   -0.0000 C   0  0  0  0  0  0  0  0  0  0  0  0
   12.8861   -4.3587   -0.0000 C   0  0  0  0  0  0  0  0  0  0  0  0
   14.1807   -2.0784   -0.0000 C   0  0  0  0  0  0  0  0  0  0  0  0
   14.1807   -3.5867   -0.0000 C   0  0  0  0  0  0  0  0  0  0  0  0
   15.4753   -4.3231   -0.0000 F   0  0  0  0  0  0  0  0  0  0  0  0
  1  2  1  0  0  0  0
  2  3  2  0  0  0  0
  2  4  1  0  0  0  0
  3  5  1  0  0  0  0
  3  6  1  0  0  0  0
  4  7  2  0  0  0  0
  5  8  2  0  0  0  0
  6  9  1  0  0  0  0
  6 10  1  0  0  0  0
  6 11  1  0  0  0  0
  7 12  1  0  0  0  0
 10 13  1  0  0  0  0
 10 14  1  0  0  0  0
 10 15  1  0  0  0  0
 11 16  1  0  0  0  0
 15 17  2  0  0  0  0
 15 18  1  0  0  0  0
 16 19  1  0  0  0  0
 16 20  1  0  0  0  0
 17 21  1  0  0  0  0
 18 22  2  0  0  0  0
 19 23  2  0  0  0  0
 20 24  2  0  0  0  0
 21 25  2  0  0  0  0
 25 26  1  0  0  0  0
 26 27  3  0  0  0  0
 27 28  1  0  0  0  0
 28 29  2  0  0  0  0
 28 30  1  0  0  0  0
 29 31  1  0  0  0  0
 30 32  2  0  0  0  0
 31 33  2  0  0  0  0
 33 34  1  0  0  0  0
  7  8  1  0  0  0  0
 22 25  1  0  0  0  0
 23 24  1  0  0  0  0
 32 33  1  0  0  0  0
M  END
>  <MolRegNo>
2208254

>  <m>
=

>  <Value>
1.0e5

>  <Unit>
nM

>  <Type>
IC50

>  <pValue>
4

>  <Ligand Efficiency>
0

>  <Binding Efficiency>
0

>  <Surface Efficiency>
0

>  <Assay Index>
1122767

>  <Assay Category>


>  <Assay Organism>
Homo sapiens

>  <Target ID>
17045

>  <Target Name>
Cytochrome P450 3A4

>  <Target Organism>
Homo sapiens

>  <Target Description>
Target is a single protein chain

>  <Sequence Accession>
P08684

>  <Reference>
Bioorg Med Chem Lett 27 (15), 3243-3248 (2017)

>  <Pubmed ID>
28651982

>  <DOI>
10.1016/j.bmcl.2017.06.037

$$$$
2203096
Actelion Java MolfileCreator 1.0

 38 41  0  0  0  0  0  0  0  0999 V2000
    0.0000   -0.0000   -0.0000 F   0  0  0  0  0  0  0  0  0  0  0  0
    1.2837   -0.7370   -0.0000 C   0  0  0  0  0  0  0  0  0  0  0  0
    2.5793    0.0238   -0.0000 C   0  0  0  0  0  0  0  0  0  0  0  0
    1.2718   -2.2346   -0.0000 C   0  0  0  0  0  0  0  0  0  0  0  0
    3.8631   -0.7013   -0.0000 C   0  0  0  0  0  0  0  0  0  0  0  0
    2.5675    1.5452   -0.0000 C   0  0  0  0  0  0  0  0  0  0  0  0
    2.5675   -2.9835   -0.0000 C   0  0  0  0  0  0  0  0  0  0  0  0
    3.8512   -2.1990   -0.0000 C   0  0  0  0  0  0  0  0  0  0  0  0
    2.5437    3.0667   -0.0000 O   0  0  0  0  0  0  0  0  0  0  0  0
    3.8631    2.3178   -0.0000 C   0  0  0  0  0  0  0  0  0  0  0  0
    1.2481    2.3178   -0.0000 C   0  0  0  0  0  0  0  0  0  0  0  0
    2.5556   -4.4693   -0.0000 F   0  0  0  0  0  0  0  0  0  0  0  0
    3.8393    3.8274   -0.0000 F   0  0  0  0  0  0  0  0  0  0  0  0
    5.1468    3.0905   -0.0000 F   0  0  0  0  0  0  0  0  0  0  0  0
    5.1587    1.5690   -0.0000 C   0  0  0  0  0  0  0  0  0  0  0  0
    1.2362    3.8393   -0.0000 N   0  0  0  0  0  0  0  0  0  0  0  0
    5.1468    0.0713   -0.0000 N   0  0  0  0  0  0  0  0  0  0  0  0
    6.4424    2.3416   -0.0000 C   0  0  0  0  0  0  0  0  0  0  0  0
    2.4367    4.7427   -0.0000 N   0  0  0  0  0  0  0  0  0  0  0  0
    0.0000    4.7427   -0.0000 C   0  0  0  0  0  0  0  0  0  0  0  0
    6.4424   -0.6656   -0.0000 C   0  0  0  0  0  0  0  0  0  0  0  0
    7.7261    1.6047   -0.0000 C   0  0  0  0  0  0  0  0  0  0  0  0
    1.9613    6.1928   -0.0000 N   0  0  0  0  0  0  0  0  0  0  0  0
    0.4636    6.1928   -0.0000 N   0  0  0  0  0  0  0  0  0  0  0  0
    7.7261    0.0951   -0.0000 C   0  0  0  0  0  0  0  0  0  0  0  0
    9.0218   -0.6300   -0.0000 C   0  0  0  0  0  0  0  0  0  0  0  0
   10.3174   -1.3788   -0.0000 C   0  0  0  0  0  0  0  0  0  0  0  0
   11.6130   -2.1158   -0.0000 C   0  0  0  0  0  0  0  0  0  0  0  0
   11.6011   -3.6135   -0.0000 C   0  0  0  0  0  0  0  0  0  0  0  0
   12.8967   -1.3550   -0.0000 C   0  0  0  0  0  0  0  0  0  0  0  0
   12.8967   -4.3623   -0.0000 C   0  0  0  0  0  0  0  0  0  0  0  0
   14.1923   -2.0801   -0.0000 C   0  0  0  0  0  0  0  0  0  0  0  0
   14.1923   -3.5897   -0.0000 C   0  0  0  0  0  0  0  0  0  0  0  0
   15.4880   -4.3266   -0.0000 O   0  0  0  0  0  0  0  0  0  0  0  0
   15.4761   -5.8124   -0.0000 C   0  0  0  0  0  0  0  0  0  0  0  0
   16.7717   -6.5494   -0.0000 C   0  0  0  0  0  0  0  0  0  0  0  0
   16.7598   -8.0352   -0.0000 F   0  0  0  0  0  0  0  0  0  0  0  0
   18.0554   -5.7887   -0.0000 F   0  0  0  0  0  0  0  0  0  0  0  0
  1  2  1  0  0  0  0
  2  3  2  0  0  0  0
  2  4  1  0  0  0  0
  3  5  1  0  0  0  0
  3  6  1  0  0  0  0
  4  7  2  0  0  0  0
  5  8  2  0  0  0  0
  6  9  1  0  0  0  0
  6 10  1  0  0  0  0
  6 11  1  0  0  0  0
  7 12  1  0  0  0  0
 10 13  1  0  0  0  0
 10 14  1  0  0  0  0
 10 15  1  0  0  0  0
 11 16  1  0  0  0  0
 15 17  2  0  0  0  0
 15 18  1  0  0  0  0
 16 19  1  0  0  0  0
 16 20  1  0  0  0  0
 17 21  1  0  0  0  0
 18 22  2  0  0  0  0
 19 23  2  0  0  0  0
 20 24  2  0  0  0  0
 21 25  2  0  0  0  0
 25 26  1  0  0  0  0
 26 27  3  0  0  0  0
 27 28  1  0  0  0  0
 28 29  2  0  0  0  0
 28 30  1  0  0  0  0
 29 31  1  0  0  0  0
 30 32  2  0  0  0  0
 31 33  2  0  0  0  0
 33 34  1  0  0  0  0
 34 35  1  0  0  0  0
 35 36  1  0  0  0  0
 36 37  1  0  0  0  0
 36 38  1  0  0  0  0
  7  8  1  0  0  0  0
 22 25  1  0  0  0  0
 23 24  1  0  0  0  0
 32 33  1  0  0  0  0
M  END
>  <MolRegNo>
2203096

>  <m>
=

>  <Value>
60000

>  <Unit>
nM

>  <Type>
IC50

>  <pValue>
4.22

>  <Ligand Efficiency>
0

>  <Binding Efficiency>
0

>  <Surface Efficiency>
0

>  <Assay Index>
1122767

>  <Assay Category>


>  <Assay Organism>
Homo sapiens

>  <Target ID>
17045

>  <Target Name>
Cytochrome P450 3A4

>  <Target Organism>
Homo sapiens

>  <Target Description>
Target is a single protein chain

>  <Sequence Accession>
P08684

>  <Reference>
Bioorg Med Chem Lett 27 (15), 3243-3248 (2017)

>  <Pubmed ID>
28651982

>  <DOI>
10.1016/j.bmcl.2017.06.037

$$$$
2236029
Actelion Java MolfileCreator 1.0

 39 42  0  0  0  0  0  0  0  0999 V2000
    0.0000   -0.0000   -0.0000 F   0  0  0  0  0  0  0  0  0  0  0  0
    1.2843   -0.7373   -0.0000 C   0  0  0  0  0  0  0  0  0  0  0  0
    2.5806    0.0238   -0.0000 C   0  0  0  0  0  0  0  0  0  0  0  0
    1.2725   -2.2357   -0.0000 C   0  0  0  0  0  0  0  0  0  0  0  0
    3.8649   -0.7016   -0.0000 C   0  0  0  0  0  0  0  0  0  0  0  0
    2.5687    1.5460   -0.0000 C   0  0  0  0  0  0  0  0  0  0  0  0
    2.5687   -2.9849   -0.0000 C   0  0  0  0  0  0  0  0  0  0  0  0
    3.8530   -2.2000   -0.0000 C   0  0  0  0  0  0  0  0  0  0  0  0
    2.5449    3.0682   -0.0000 O   0  0  0  0  0  0  0  0  0  0  0  0
    3.8649    2.3190   -0.0000 C   0  0  0  0  0  0  0  0  0  0  0  0
    1.2487    2.3190   -0.0000 C   0  0  0  0  0  0  0  0  0  0  0  0
    2.5568   -4.4714   -0.0000 F   0  0  0  0  0  0  0  0  0  0  0  0
    3.8411    3.8292   -0.0000 F   0  0  0  0  0  0  0  0  0  0  0  0
    5.1493    3.0919   -0.0000 F   0  0  0  0  0  0  0  0  0  0  0  0
    5.1612    1.5698   -0.0000 C   0  0  0  0  0  0  0  0  0  0  0  0
    1.2368    3.8411   -0.0000 N   0  0  0  0  0  0  0  0  0  0  0  0
    5.1493    0.0714   -0.0000 N   0  0  0  0  0  0  0  0  0  0  0  0
    6.4455    2.3427   -0.0000 C   0  0  0  0  0  0  0  0  0  0  0  0
    2.4379    4.7449   -0.0000 N   0  0  0  0  0  0  0  0  0  0  0  0
    0.0000    4.7449   -0.0000 C   0  0  0  0  0  0  0  0  0  0  0  0
    6.4455   -0.6660   -0.0000 C   0  0  0  0  0  0  0  0  0  0  0  0
    7.7298    1.6054   -0.0000 C   0  0  0  0  0  0  0  0  0  0  0  0
    1.9622    6.1958   -0.0000 N   0  0  0  0  0  0  0  0  0  0  0  0
    0.4638    6.1958   -0.0000 N   0  0  0  0  0  0  0  0  0  0  0  0
    7.7298    0.0951   -0.0000 C   0  0  0  0  0  0  0  0  0  0  0  0
    9.0261   -0.6303   -0.0000 C   0  0  0  0  0  0  0  0  0  0  0  0
   10.3223   -1.3795   -0.0000 C   0  0  0  0  0  0  0  0  0  0  0  0
   11.6185   -2.1168   -0.0000 C   0  0  0  0  0  0  0  0  0  0  0  0
   11.6066   -3.6152   -0.0000 C   0  0  0  0  0  0  0  0  0  0  0  0
   12.9029   -1.3557   -0.0000 C   0  0  0  0  0  0  0  0  0  0  0  0
   12.9029   -4.3644   -0.0000 C   0  0  0  0  0  0  0  0  0  0  0  0
   14.1991   -2.0811   -0.0000 C   0  0  0  0  0  0  0  0  0  0  0  0
   14.1991   -3.5914   -0.0000 C   0  0  0  0  0  0  0  0  0  0  0  0
   15.4954   -4.3287   -0.0000 N   0  0  0  0  0  0  0  0  0  0  0  0
   15.4835   -5.8152   -0.0000 C   0  0  0  0  0  0  0  0  0  0  0  0
   16.7797   -6.5525   -0.0000 C   0  0  0  0  0  0  0  0  0  0  0  0
   16.7678   -8.0390   -0.0000 F   0  0  0  0  0  0  0  0  0  0  0  0
   18.0640   -5.7914   -0.0000 F   0  0  0  0  0  0  0  0  0  0  0  0
   18.0521   -7.2898   -0.0000 F   0  0  0  0  0  0  0  0  0  0  0  0
  1  2  1  0  0  0  0
  2  3  2  0  0  0  0
  2  4  1  0  0  0  0
  3  5  1  0  0  0  0
  3  6  1  0  0  0  0
  4  7  2  0  0  0  0
  5  8  2  0  0  0  0
  6  9  1  0  0  0  0
  6 10  1  0  0  0  0
  6 11  1  0  0  0  0
  7 12  1  0  0  0  0
 10 13  1  0  0  0  0
 10 14  1  0  0  0  0
 10 15  1  0  0  0  0
 11 16  1  0  0  0  0
 15 17  2  0  0  0  0
 15 18  1  0  0  0  0
 16 19  1  0  0  0  0
 16 20  1  0  0  0  0
 17 21  1  0  0  0  0
 18 22  2  0  0  0  0
 19 23  2  0  0  0  0
 20 24  2  0  0  0  0
 21 25  2  0  0  0  0
 25 26  1  0  0  0  0
 26 27  3  0  0  0  0
 27 28  1  0  0  0  0
 28 29  2  0  0  0  0
 28 30  1  0  0  0  0
 29 31  1  0  0  0  0
 30 32  2  0  0  0  0
 31 33  2  0  0  0  0
 33 34  1  0  0  0  0
 34 35  1  0  0  0  0
 35 36  1  0  0  0  0
 36 37  1  0  0  0  0
 36 38  1  0  0  0  0
 36 39  1  0  0  0  0
  7  8  1  0  0  0  0
 22 25  1  0  0  0  0
 23 24  1  0  0  0  0
 32 33  1  0  0  0  0
M  END
>  <MolRegNo>
2236029

>  <m>
=

>  <Value>
10000

>  <Unit>
nM

>  <Type>
IC50

>  <pValue>
5

>  <Ligand Efficiency>
0

>  <Binding Efficiency>
0

>  <Surface Efficiency>
0

>  <Assay Index>
1122767

>  <Assay Category>


>  <Assay Organism>
Homo sapiens

>  <Target ID>
17045

>  <Target Name>
Cytochrome P450 3A4

>  <Target Organism>
Homo sapiens

>  <Target Description>
Target is a single protein chain

>  <Sequence Accession>
P08684

>  <Reference>
Bioorg Med Chem Lett 27 (15), 3243-3248 (2017)

>  <Pubmed ID>
28651982

>  <DOI>
10.1016/j.bmcl.2017.06.037

$$$$
2209749
Actelion Java MolfileCreator 1.0

 45 49  0  0  0  0  0  0  0  0999 V2000
    0.0000   -0.0000   -0.0000 F   0  0  0  0  0  0  0  0  0  0  0  0
    1.2851   -0.7377   -0.0000 C   0  0  0  0  0  0  0  0  0  0  0  0
    2.5820    0.0238   -0.0000 C   0  0  0  0  0  0  0  0  0  0  0  0
    1.2732   -2.2370   -0.0000 C   0  0  0  0  0  0  0  0  0  0  0  0
    3.8671   -0.7020   -0.0000 C   0  0  0  0  0  0  0  0  0  0  0  0
    2.5701    1.5468   -0.0000 C   0  0  0  0  0  0  0  0  0  0  0  0
    2.5701   -2.9866   -0.0000 C   0  0  0  0  0  0  0  0  0  0  0  0
    3.8552   -2.2013   -0.0000 C   0  0  0  0  0  0  0  0  0  0  0  0
    2.5463    3.0699   -0.0000 O   0  0  0  0  0  0  0  0  0  0  0  0
    3.8671    2.3202   -0.0000 C   0  0  0  0  0  0  0  0  0  0  0  0
    1.2494    2.3202   -0.0000 C   0  0  0  0  0  0  0  0  0  0  0  0
    2.5582   -4.4739   -0.0000 F   0  0  0  0  0  0  0  0  0  0  0  0
    3.8433    3.8314   -0.0000 F   0  0  0  0  0  0  0  0  0  0  0  0
    5.1521    3.0937   -0.0000 F   0  0  0  0  0  0  0  0  0  0  0  0
    5.1640    1.5706   -0.0000 C   0  0  0  0  0  0  0  0  0  0  0  0
    1.2375    3.8433   -0.0000 N   0  0  0  0  0  0  0  0  0  0  0  0
    5.1521    0.0714   -0.0000 N   0  0  0  0  0  0  0  0  0  0  0  0
    6.4491    2.3440   -0.0000 C   0  0  0  0  0  0  0  0  0  0  0  0
    2.4392    4.7476   -0.0000 N   0  0  0  0  0  0  0  0  0  0  0  0
    0.0000    4.7476   -0.0000 C   0  0  0  0  0  0  0  0  0  0  0  0
    6.4491   -0.6663   -0.0000 C   0  0  0  0  0  0  0  0  0  0  0  0
    7.7342    1.6063   -0.0000 C   0  0  0  0  0  0  0  0  0  0  0  0
    1.9633    6.1992   -0.0000 N   0  0  0  0  0  0  0  0  0  0  0  0
    0.4640    6.1992   -0.0000 N   0  0  0  0  0  0  0  0  0  0  0  0
    7.7342    0.0952   -0.0000 C   0  0  0  0  0  0  0  0  0  0  0  0
    9.0311   -0.6306   -0.0000 C   0  0  0  0  0  0  0  0  0  0  0  0
   10.3281   -1.3803   -0.0000 C   0  0  0  0  0  0  0  0  0  0  0  0
   11.6250   -2.1180   -0.0000 C   0  0  0  0  0  0  0  0  0  0  0  0
   11.6131   -3.6172   -0.0000 C   0  0  0  0  0  0  0  0  0  0  0  0
   12.9101   -1.3565   -0.0000 C   0  0  0  0  0  0  0  0  0  0  0  0
   12.9101   -4.3668   -0.0000 C   0  0  0  0  0  0  0  0  0  0  0  0
   14.2071   -2.0823   -0.0000 C   0  0  0  0  0  0  0  0  0  0  0  0
   14.2071   -3.5934   -0.0000 C   0  0  0  0  0  0  0  0  0  0  0  0
   15.5040   -4.3311   -0.0000 O   0  0  0  0  0  0  0  0  0  0  0  0
   16.7891   -3.5696   -0.0000 C   0  0  0  0  0  0  0  0  0  0  0  0
   18.0860   -4.3073   -0.0000 C   0  0  0  0  0  0  0  0  0  0  0  0
   18.0742   -5.7947   -0.0000 C   0  0  0  0  0  0  0  0  0  0  0  0
   19.3592   -3.5339   -0.0000 C   0  0  0  0  0  0  0  0  0  0  0  0
   19.3592   -6.5324   -0.0000 C   0  0  0  0  0  0  0  0  0  0  0  0
   20.6443   -4.2597   -0.0000 C   0  0  0  0  0  0  0  0  0  0  0  0
   20.6443   -5.7709   -0.0000 C   0  0  0  0  0  0  0  0  0  0  0  0
   21.9412   -6.5086   -0.0000 C   0  0  0  0  0  0  0  0  0  0  0  0
   21.9412   -7.9959   -0.0000 O   0  0  0  0  0  0  0  0  0  0  0  0
   23.2263   -5.7352   -0.0000 N   0  0  0  0  0  0  0  0  0  0  0  0
   24.5233   -6.4729   -0.0000 C   0  0  0  0  0  0  0  0  0  0  0  0
  1  2  1  0  0  0  0
  2  3  2  0  0  0  0
  2  4  1  0  0  0  0
  3  5  1  0  0  0  0
  3  6  1  0  0  0  0
  4  7  2  0  0  0  0
  5  8  2  0  0  0  0
  6  9  1  0  0  0  0
  6 10  1  0  0  0  0
  6 11  1  0  0  0  0
  7 12  1  0  0  0  0
 10 13  1  0  0  0  0
 10 14  1  0  0  0  0
 10 15  1  0  0  0  0
 11 16  1  0  0  0  0
 15 17  2  0  0  0  0
 15 18  1  0  0  0  0
 16 19  1  0  0  0  0
 16 20  1  0  0  0  0
 17 21  1  0  0  0  0
 18 22  2  0  0  0  0
 19 23  2  0  0  0  0
 20 24  2  0  0  0  0
 21 25  2  0  0  0  0
 25 26  1  0  0  0  0
 26 27  3  0  0  0  0
 27 28  1  0  0  0  0
 28 29  2  0  0  0  0
 28 30  1  0  0  0  0
 29 31  1  0  0  0  0
 30 32  2  0  0  0  0
 31 33  2  0  0  0  0
 33 34  1  0  0  0  0
 34 35  1  0  0  0  0
 35 36  1  0  0  0  0
 36 37  2  0  0  0  0
 36 38  1  0  0  0  0
 37 39  1  0  0  0  0
 38 40  2  0  0  0  0
 39 41  2  0  0  0  0
 41 42  1  0  0  0  0
 42 43  2  0  0  0  0
 42 44  1  0  0  0  0
 44 45  1  0  0  0  0
  7  8  1  0  0  0  0
 22 25  1  0  0  0  0
 23 24  1  0  0  0  0
 32 33  1  0  0  0  0
 40 41  1  0  0  0  0
M  END
>  <MolRegNo>
2209749

>  <m>
=

>  <Value>
122000

>  <Unit>
nM

>  <Type>
IC50

>  <pValue>
0

>  <Ligand Efficiency>
0

>  <Binding Efficiency>
0

>  <Surface Efficiency>
0

>  <Assay Index>
1122767

>  <Assay Category>


>  <Assay Organism>
Homo sapiens

>  <Target ID>
17045

>  <Target Name>
Cytochrome P450 3A4

>  <Target Organism>
Homo sapiens

>  <Target Description>
Target is a single protein chain

>  <Sequence Accession>
P08684

>  <Reference>
Bioorg Med Chem Lett 27 (15), 3243-3248 (2017)

>  <Pubmed ID>
28651982

>  <DOI>
10.1016/j.bmcl.2017.06.037

$$$$
2242831
Actelion Java MolfileCreator 1.0

 31 34  0  0  0  0  0  0  0  0999 V2000
    0.0000   -0.0000   -0.0000 S   0  0  0  0  0  0  0  0  0  0  0  0
   -1.5090    0.0119   -0.0000 O   0  0  0  0  0  0  0  0  0  0  0  0
   -0.7604    1.3070   -0.0000 O   0  0  0  0  0  0  0  0  0  0  0  0
    1.2951    0.7485   -0.0000 N   0  0  0  0  0  0  0  0  0  0  0  0
   -0.0119   -1.4971   -0.0000 C   0  0  0  0  0  0  0  0  0  0  0  0
    1.2832    2.2575   -0.0000 C   0  0  0  0  0  0  0  0  0  0  0  0
    2.5902    0.0119   -0.0000 C   0  0  0  0  0  0  0  0  0  0  0  0
   -1.3307   -2.2338   -0.0000 C   0  0  0  0  0  0  0  0  0  0  0  0
    1.2832   -2.2219   -0.0000 C   0  0  0  0  0  0  0  0  0  0  0  0
    2.5664    3.0179   -0.0000 C   0  0  0  0  0  0  0  0  0  0  0  0
    3.8853    0.7723   -0.0000 C   0  0  0  0  0  0  0  0  0  0  0  0
   -1.3426   -3.7308   -0.0000 C   0  0  0  0  0  0  0  0  0  0  0  0
    1.2832   -3.7190   -0.0000 C   0  0  0  0  0  0  0  0  0  0  0  0
    3.8615    2.2813   -0.0000 N   0  0  0  0  0  0  0  0  0  0  0  0
    2.5546    4.5269   -0.0000 C   0  0  0  0  0  0  0  0  0  0  0  0
   -0.0475   -4.4675   -0.0000 C   0  0  0  0  0  0  0  0  0  0  0  0
    5.1566    3.0417   -0.0000 C   0  0  0  0  0  0  0  0  0  0  0  0
   -0.0594   -5.9527   -0.0000 C   0  0  0  0  0  0  0  0  0  0  0  0
    5.1448    4.5507   -0.0000 N   0  0  0  0  0  0  0  0  0  0  0  0
    6.4399    2.3050   -0.0000 N   0  0  0  0  0  0  0  0  0  0  0  0
    6.4280    5.3230   -0.0000 C   0  0  0  0  0  0  0  0  0  0  0  0
    7.7231    3.0655   -0.0000 C   0  0  0  0  0  0  0  0  0  0  0  0
    6.4280    0.8198   -0.0000 C   0  0  0  0  0  0  0  0  0  0  0  0
    6.4161    6.8320   -0.0000 C   0  0  0  0  0  0  0  0  0  0  0  0
    7.7112    4.5744   -0.0000 C   0  0  0  0  0  0  0  0  0  0  0  0
    9.0063    2.3288   -0.0000 O   0  0  0  0  0  0  0  0  0  0  0  0
    7.7112    7.5924   -0.0000 N   0  0  0  0  0  0  0  0  0  0  0  0
    5.1091    7.5924   -0.0000 C   0  0  0  0  0  0  0  0  0  0  0  0
    7.6993    9.1014   -0.0000 C   0  0  0  0  0  0  0  0  0  0  0  0
    5.0972    9.1014   -0.0000 C   0  0  0  0  0  0  0  0  0  0  0  0
    6.3805    9.8618   -0.0000 N   0  0  0  0  0  0  0  0  0  0  0  0
  1  2  2  0  0  0  0
  1  3  2  0  0  0  0
  1  4  1  0  0  0  0
  1  5  1  0  0  0  0
  4  6  1  0  0  0  0
  4  7  1  0  0  0  0
  5  8  2  0  0  0  0
  5  9  1  0  0  0  0
  6 10  1  0  0  0  0
  7 11  1  0  0  0  0
  8 12  1  0  0  0  0
  9 13  2  0  0  0  0
 10 14  1  0  0  0  0
 10 15  1  6  0  0  0
 12 16  2  0  0  0  0
 14 17  1  0  0  0  0
 16 18  1  0  0  0  0
 17 19  2  0  0  0  0
 17 20  1  0  0  0  0
 19 21  1  0  0  0  0
 20 22  1  0  0  0  0
 20 23  1  0  0  0  0
 21 24  1  0  0  0  0
 21 25  2  0  0  0  0
 22 26  2  0  0  0  0
 24 27  2  0  0  0  0
 24 28  1  0  0  0  0
 27 29  1  0  0  0  0
 28 30  2  0  0  0  0
 29 31  2  0  0  0  0
 11 14  1  0  0  0  0
 13 16  1  0  0  0  0
 22 25  1  0  0  0  0
 30 31  1  0  0  0  0
M  END
>  <MolRegNo>
2242831

>  <m>
=

>  <Value>
1400

>  <Unit>
nM

>  <Type>
IC50

>  <pValue>
5.85

>  <Ligand Efficiency>
0

>  <Binding Efficiency>
0

>  <Surface Efficiency>
0

>  <Assay Index>
1124017

>  <Assay Category>


>  <Assay Organism>
Homo sapiens

>  <Target ID>
17045

>  <Target Name>
Cytochrome P450 3A4

>  <Target Organism>
Homo sapiens

>  <Target Description>
Target is a single protein chain

>  <Sequence Accession>
P08684

>  <Reference>
Bioorg Med Chem Lett 27 (16), 3733-3738 (2017)

>  <Pubmed ID>
28712706

>  <DOI>
10.1016/j.bmcl.2017.06.077

$$$$
2203117
Actelion Java MolfileCreator 1.0

 29 32  0  0  0  0  0  0  0  0999 V2000
    0.0000   -0.0000   -0.0000 O   0  0  0  0  0  0  0  0  0  0  0  0
   -1.3066    0.7651   -0.0000 C   0  0  0  0  0  0  0  0  0  0  0  0
   -2.6132    0.0353   -0.0000 N   0  0  0  0  0  0  0  0  0  0  0  0
   -1.3184    2.2718   -0.0000 C   0  0  0  0  0  0  0  0  0  0  0  0
   -3.9198    0.7887   -0.0000 C   0  0  0  0  0  0  0  0  0  0  0  0
   -2.6250   -1.4478   -0.0000 C   0  0  0  0  0  0  0  0  0  0  0  0
   -2.6250    3.0369   -0.0000 C   0  0  0  0  0  0  0  0  0  0  0  0
   -3.9315    2.2954   -0.0000 N   0  0  0  0  0  0  0  0  0  0  0  0
   -5.2264    0.0471   -0.0000 N   0  0  0  0  0  0  0  0  0  0  0  0
   -2.6367    4.5436   -0.0000 C   0  0  0  0  0  0  0  0  0  0  0  0
   -6.5330    0.8122   -0.0000 C   0  0  0  0  0  0  0  0  0  0  0  0
   -5.2381   -1.4361   -0.0000 C   0  0  0  0  0  0  0  0  0  0  0  0
   -1.3537    5.2970   -0.0000 N   0  0  0  0  0  0  0  0  0  0  0  0
   -3.9433    5.2970   -0.0000 C   0  0  0  0  0  0  0  0  0  0  0  0
   -7.8396    0.0824   -0.0000 C   0  0  0  0  0  0  0  0  0  0  0  0
   -6.5447    2.3189   -0.0000 C   0  0  0  0  0  0  0  0  0  0  0  0
   -6.5447   -2.1659   -0.0000 C   0  0  0  0  0  0  0  0  0  0  0  0
   -1.3654    6.8037   -0.0000 C   0  0  0  0  0  0  0  0  0  0  0  0
   -3.9551    6.8037   -0.0000 C   0  0  0  0  0  0  0  0  0  0  0  0
   -7.8513   -1.4008   -0.0000 N   0  0  0  0  0  0  0  0  0  0  0  0
   -2.6720    7.5688   -0.0000 N   0  0  0  0  0  0  0  0  0  0  0  0
   -9.1461   -2.1306   -0.0000 C   0  0  0  0  0  0  0  0  0  0  0  0
   -9.1579   -3.6020   -0.0000 C   0  0  0  0  0  0  0  0  0  0  0  0
  -10.4527   -1.3654   -0.0000 C   0  0  0  0  0  0  0  0  0  0  0  0
  -10.4645   -4.3318   -0.0000 C   0  0  0  0  0  0  0  0  0  0  0  0
  -11.7593   -2.0953   -0.0000 C   0  0  0  0  0  0  0  0  0  0  0  0
  -10.4763   -5.8149   -0.0000 O   0  0  0  0  0  0  0  0  0  0  0  0
  -11.7829   -3.5666   -0.0000 C   0  0  0  0  0  0  0  0  0  0  0  0
  -11.7829   -6.5565   -0.0000 C   0  0  0  0  0  0  0  0  0  0  0  0
  1  2  2  0  0  0  0
  2  3  1  0  0  0  0
  2  4  1  0  0  0  0
  3  5  1  0  0  0  0
  3  6  1  0  0  0  0
  4  7  2  0  0  0  0
  5  8  2  0  0  0  0
  5  9  1  0  0  0  0
  7 10  1  0  0  0  0
  9 11  1  0  0  0  0
  9 12  1  0  0  0  0
 10 13  2  0  0  0  0
 10 14  1  0  0  0  0
 11 15  1  0  0  0  0
 11 16  1  6  0  0  0
 12 17  1  0  0  0  0
 13 18  1  0  0  0  0
 14 19  2  0  0  0  0
 15 20  1  0  0  0  0
 18 21  2  0  0  0  0
 20 22  1  0  0  0  0
 22 23  2  0  0  0  0
 22 24  1  0  0  0  0
 23 25  1  0  0  0  0
 24 26  2  0  0  0  0
 25 27  1  0  0  0  0
 25 28  2  0  0  0  0
 27 29  1  0  0  0  0
  7  8  1  0  0  0  0
 17 20  1  0  0  0  0
 19 21  1  0  0  0  0
 26 28  1  0  0  0  0
M  END
>  <MolRegNo>
2203117

>  <m>
=

>  <Value>
9600

>  <Unit>
nM

>  <Type>
IC50

>  <pValue>
5.02

>  <Ligand Efficiency>
0

>  <Binding Efficiency>
0

>  <Surface Efficiency>
0

>  <Assay Index>
1124017

>  <Assay Category>


>  <Assay Organism>
Homo sapiens

>  <Target ID>
17045

>  <Target Name>
Cytochrome P450 3A4

>  <Target Organism>
Homo sapiens

>  <Target Description>
Target is a single protein chain

>  <Sequence Accession>
P08684

>  <Reference>
Bioorg Med Chem Lett 27 (16), 3733-3738 (2017)

>  <Pubmed ID>
28712706

>  <DOI>
10.1016/j.bmcl.2017.06.077

$$$$
2224766
Actelion Java MolfileCreator 1.0

 29 32  0  0  0  0  0  0  0  0999 V2000
    0.0000   -0.0000   -0.0000 O   0  0  0  0  0  0  0  0  0  0  0  0
   -1.3077    0.7658   -0.0000 C   0  0  0  0  0  0  0  0  0  0  0  0
   -2.6036    0.0353   -0.0000 N   0  0  0  0  0  0  0  0  0  0  0  0
   -1.3195    2.2737   -0.0000 C   0  0  0  0  0  0  0  0  0  0  0  0
   -3.8995    0.7893   -0.0000 C   0  0  0  0  0  0  0  0  0  0  0  0
   -2.6154   -1.4491   -0.0000 C   0  0  0  0  0  0  0  0  0  0  0  0
   -2.6154    3.0395   -0.0000 C   0  0  0  0  0  0  0  0  0  0  0  0
   -3.9113    2.2973   -0.0000 N   0  0  0  0  0  0  0  0  0  0  0  0
   -5.2072    0.0471   -0.0000 N   0  0  0  0  0  0  0  0  0  0  0  0
   -2.6272    4.5475   -0.0000 C   0  0  0  0  0  0  0  0  0  0  0  0
   -6.5149    0.8129   -0.0000 C   0  0  0  0  0  0  0  0  0  0  0  0
   -5.2190   -1.4373   -0.0000 C   0  0  0  0  0  0  0  0  0  0  0  0
   -1.3430    5.3015   -0.0000 N   0  0  0  0  0  0  0  0  0  0  0  0
   -3.9349    5.3015   -0.0000 C   0  0  0  0  0  0  0  0  0  0  0  0
   -7.8108    0.0825   -0.0000 C   0  0  0  0  0  0  0  0  0  0  0  0
   -6.5267    2.3209   -0.0000 C   0  0  0  0  0  0  0  0  0  0  0  0
   -6.5267   -2.1677   -0.0000 C   0  0  0  0  0  0  0  0  0  0  0  0
   -1.3548    6.8095   -0.0000 C   0  0  0  0  0  0  0  0  0  0  0  0
   -3.9467    6.8095   -0.0000 C   0  0  0  0  0  0  0  0  0  0  0  0
   -7.8226   -1.4019   -0.0000 N   0  0  0  0  0  0  0  0  0  0  0  0
   -2.6625    7.5752   -0.0000 N   0  0  0  0  0  0  0  0  0  0  0  0
   -9.1185   -2.1324   -0.0000 C   0  0  0  0  0  0  0  0  0  0  0  0
  -10.4262   -1.3666   -0.0000 C   0  0  0  0  0  0  0  0  0  0  0  0
   -9.1303   -3.6050   -0.0000 C   0  0  0  0  0  0  0  0  0  0  0  0
  -11.7339   -2.0970   -0.0000 C   0  0  0  0  0  0  0  0  0  0  0  0
  -10.4262   -4.3354   -0.0000 C   0  0  0  0  0  0  0  0  0  0  0  0
  -11.7457   -3.5814   -0.0000 C   0  0  0  0  0  0  0  0  0  0  0  0
  -13.0534   -4.3119   -0.0000 O   0  0  0  0  0  0  0  0  0  0  0  0
  -14.3611   -3.5461   -0.0000 C   0  0  0  0  0  0  0  0  0  0  0  0
  1  2  2  0  0  0  0
  2  3  1  0  0  0  0
  2  4  1  0  0  0  0
  3  5  1  0  0  0  0
  3  6  1  0  0  0  0
  4  7  2  0  0  0  0
  5  8  2  0  0  0  0
  5  9  1  0  0  0  0
  7 10  1  0  0  0  0
  9 11  1  0  0  0  0
  9 12  1  0  0  0  0
 10 13  2  0  0  0  0
 10 14  1  0  0  0  0
 11 15  1  0  0  0  0
 11 16  1  6  0  0  0
 12 17  1  0  0  0  0
 13 18  1  0  0  0  0
 14 19  2  0  0  0  0
 15 20  1  0  0  0  0
 18 21  2  0  0  0  0
 20 22  1  0  0  0  0
 22 23  2  0  0  0  0
 22 24  1  0  0  0  0
 23 25  1  0  0  0  0
 24 26  2  0  0  0  0
 25 27  2  0  0  0  0
 27 28  1  0  0  0  0
 28 29  1  0  0  0  0
  7  8  1  0  0  0  0
 17 20  1  0  0  0  0
 19 21  1  0  0  0  0
 26 27  1  0  0  0  0
M  END
>  <MolRegNo>
2224766

>  <m>
=

>  <Value>
25000

>  <Unit>
nM

>  <Type>
IC50

>  <pValue>
4.6

>  <Ligand Efficiency>
0

>  <Binding Efficiency>
0

>  <Surface Efficiency>
0

>  <Assay Index>
1124017

>  <Assay Category>


>  <Assay Organism>
Homo sapiens

>  <Target ID>
17045

>  <Target Name>
Cytochrome P450 3A4

>  <Target Organism>
Homo sapiens

>  <Target Description>
Target is a single protein chain

>  <Sequence Accession>
P08684

>  <Reference>
Bioorg Med Chem Lett 27 (16), 3733-3738 (2017)

>  <Pubmed ID>
28712706

>  <DOI>
10.1016/j.bmcl.2017.06.077

$$$$
2226650
Actelion Java MolfileCreator 1.0

 41 46  0  0  0  0  0  0  0  0999 V2000
    0.0000   -0.0000   -0.0000 N   0  0  0  0  0  0  0  0  0  0  0  0
    1.2907    0.7649   -0.0000 C   0  0  0  0  0  0  0  0  0  0  0  0
   -1.3146    0.7649   -0.0000 C   0  0  0  0  0  0  0  0  0  0  0  0
    1.2787    2.2946   -0.0000 C   0  0  0  0  0  0  0  0  0  0  0  0
    2.5814    0.0239   -0.0000 C   0  0  0  0  0  0  0  0  0  0  0  0
   -1.3266    2.2826   -0.0000 C   0  0  0  0  0  0  0  0  0  0  0  0
   -0.0359    3.0475   -0.0000 C   0  0  0  0  0  0  0  0  0  0  0  0
    2.5695    3.0714   -0.0000 C   0  0  0  0  0  0  0  0  0  0  0  0
    2.5695   -1.4700   -0.0000 N   0  0  0  0  0  0  0  0  0  0  0  0
    3.8841    0.7888   -0.0000 C   0  0  0  0  0  0  0  0  0  0  0  0
    3.8721    2.3185   -0.0000 C   0  0  0  0  0  0  0  0  0  0  0  0
    1.2548   -2.2109   -0.0000 C   0  0  0  0  0  0  0  0  0  0  0  0
    3.8602   -2.2109   -0.0000 C   0  0  0  0  0  0  0  0  0  0  0  0
    1.2429   -3.7048   -0.0000 C   0  0  0  0  0  0  0  0  0  0  0  0
    5.1509   -1.4461   -0.0000 C   0  0  0  0  0  0  0  0  0  0  0  0
   -0.0717   -4.4338   -0.0000 N   0  0  0  0  0  0  0  0  0  0  0  0
    2.5336   -4.4457   -0.0000 C   0  0  0  0  0  0  0  0  0  0  0  0
    6.4416   -2.1870   -0.0000 C   0  0  0  0  0  0  0  0  0  0  0  0
   -0.0956   -5.9157   -0.0000 C   0  0  0  0  0  0  0  0  0  0  0  0
    2.5097   -5.9396   -0.0000 C   0  0  0  0  0  0  0  0  0  0  0  0
    7.7323   -1.4222   -0.0000 C   0  0  0  0  0  0  0  0  0  0  0  0
    1.1951   -6.6686   -0.0000 C   0  0  0  0  0  0  0  0  0  0  0  0
    3.7884   -6.6806   -0.0000 C   0  0  0  0  0  0  0  0  0  0  0  0
    9.0230   -2.1631   -0.0000 N   0  0  0  0  0  0  0  0  0  0  0  0
    1.1712   -8.1505   -0.0000 C   0  0  0  0  0  0  0  0  0  0  0  0
    3.7765   -8.1625   -0.0000 C   0  0  0  0  0  0  0  0  0  0  0  0
   10.3137   -1.3983   -0.0000 C   0  0  0  0  0  0  0  0  0  0  0  0
    9.0110   -3.6570   -0.0000 C   0  0  0  0  0  0  0  0  0  0  0  0
    2.4499   -8.8915   -0.0000 C   0  0  0  0  0  0  0  0  0  0  0  0
   10.3017    0.1195   -0.0000 C   0  0  0  0  0  0  0  0  0  0  0  0
   10.3017   -4.3979   -0.0000 C   0  0  0  0  0  0  0  0  0  0  0  0
   11.5924    0.8724   -0.0000 N   0  0  0  0  0  0  0  0  0  0  0  0
    8.9871    0.8724   -0.0000 C   0  0  0  0  0  0  0  0  0  0  0  0
   10.2778   -5.8918   -0.0000 N   0  0  0  0  0  0  0  0  0  0  0  0
   11.5805   -3.6331   -0.0000 C   0  0  0  0  0  0  0  0  0  0  0  0
   11.5805    2.3902   -0.0000 C   0  0  0  0  0  0  0  0  0  0  0  0
    8.9752    2.3782   -0.0000 C   0  0  0  0  0  0  0  0  0  0  0  0
   11.5685   -6.6328   -0.0000 C   0  0  0  0  0  0  0  0  0  0  0  0
   12.8712   -4.3740   -0.0000 C   0  0  0  0  0  0  0  0  0  0  0  0
   10.2659    3.1550   -0.0000 C   0  0  0  0  0  0  0  0  0  0  0  0
   12.8592   -5.8679   -0.0000 C   0  0  0  0  0  0  0  0  0  0  0  0
  1  2  2  0  0  0  0
  1  3  1  0  0  0  0
  2  4  1  0  0  0  0
  2  5  1  0  0  0  0
  3  6  2  0  0  0  0
  4  7  2  0  0  0  0
  4  8  1  0  0  0  0
  5  9  1  6  0  0  0
  5 10  1  0  0  0  0
  8 11  1  0  0  0  0
  9 12  1  0  0  0  0
  9 13  1  0  0  0  0
 14 12  1  1  0  0  0
 13 15  1  0  0  0  0
 14 16  1  0  0  0  0
 14 17  1  0  0  0  0
 15 18  1  0  0  0  0
 16 19  1  0  0  0  0
 17 20  1  0  0  0  0
 18 21  1  0  0  0  0
 19 22  1  0  0  0  0
 20 23  1  0  0  0  0
 21 24  1  0  0  0  0
 22 25  1  0  0  0  0
 23 26  2  0  0  0  0
 24 27  1  0  0  0  0
 24 28  1  0  0  0  0
 25 29  2  0  0  0  0
 27 30  1  0  0  0  0
 28 31  1  0  0  0  0
 30 32  2  0  0  0  0
 30 33  1  0  0  0  0
 31 34  2  0  0  0  0
 31 35  1  0  0  0  0
 32 36  1  0  0  0  0
 33 37  2  0  0  0  0
 34 38  1  0  0  0  0
 35 39  2  0  0  0  0
 36 40  2  0  0  0  0
 38 41  2  0  0  0  0
  6  7  1  0  0  0  0
 10 11  1  0  0  0  0
 20 22  2  0  0  0  0
 26 29  1  0  0  0  0
 37 40  1  0  0  0  0
 39 41  1  0  0  0  0
M  END
>  <MolRegNo>
2226650

>  <m>
=

>  <Value>
6010

>  <Unit>
nM

>  <Type>
IC50

>  <pValue>
5.22

>  <Ligand Efficiency>
0

>  <Binding Efficiency>
0

>  <Surface Efficiency>
0

>  <Assay Index>
1125341

>  <Assay Category>


>  <Assay Organism>
Homo sapiens

>  <Target ID>
17045

>  <Target Name>
Cytochrome P450 3A4

>  <Target Organism>
Homo sapiens

>  <Target Description>
Target is a single protein chain

>  <Sequence Accession>
P08684

>  <Reference>
J Med Chem 61 (3), 946-979 (2018)

>  <Pubmed ID>
29350534

>  <DOI>
10.1021/acs.jmedchem.7b01420

$$$$
2221249
Actelion Java MolfileCreator 1.0

 41 46  0  0  0  0  0  0  0  0999 V2000
    0.0000   -0.0000   -0.0000 N   0  0  0  0  0  0  0  0  0  0  0  0
    1.2907    0.7649   -0.0000 C   0  0  0  0  0  0  0  0  0  0  0  0
   -1.3146    0.7649   -0.0000 C   0  0  0  0  0  0  0  0  0  0  0  0
    1.2787    2.2946   -0.0000 C   0  0  0  0  0  0  0  0  0  0  0  0
    2.5814    0.0239   -0.0000 C   0  0  0  0  0  0  0  0  0  0  0  0
   -1.3266    2.2826   -0.0000 C   0  0  0  0  0  0  0  0  0  0  0  0
   -0.0359    3.0475   -0.0000 C   0  0  0  0  0  0  0  0  0  0  0  0
    2.5695    3.0714   -0.0000 C   0  0  0  0  0  0  0  0  0  0  0  0
    2.5695   -1.4700   -0.0000 N   0  0  0  0  0  0  0  0  0  0  0  0
    3.8841    0.7888   -0.0000 C   0  0  0  0  0  0  0  0  0  0  0  0
    3.8721    2.3185   -0.0000 C   0  0  0  0  0  0  0  0  0  0  0  0
    1.2548   -2.2109   -0.0000 C   0  0  0  0  0  0  0  0  0  0  0  0
    3.8602   -2.2109   -0.0000 C   0  0  0  0  0  0  0  0  0  0  0  0
    1.2429   -3.7048   -0.0000 C   0  0  0  0  0  0  0  0  0  0  0  0
    5.1509   -1.4461   -0.0000 C   0  0  0  0  0  0  0  0  0  0  0  0
   -0.0717   -4.4338   -0.0000 N   0  0  0  0  0  0  0  0  0  0  0  0
    2.5336   -4.4457   -0.0000 C   0  0  0  0  0  0  0  0  0  0  0  0
    6.4416   -2.1870   -0.0000 C   0  0  0  0  0  0  0  0  0  0  0  0
   -0.0956   -5.9157   -0.0000 C   0  0  0  0  0  0  0  0  0  0  0  0
    2.5097   -5.9396   -0.0000 C   0  0  0  0  0  0  0  0  0  0  0  0
    7.7323   -1.4222   -0.0000 C   0  0  0  0  0  0  0  0  0  0  0  0
    1.1951   -6.6686   -0.0000 C   0  0  0  0  0  0  0  0  0  0  0  0
    3.7884   -6.6806   -0.0000 C   0  0  0  0  0  0  0  0  0  0  0  0
    9.0230   -2.1631   -0.0000 N   0  0  0  0  0  0  0  0  0  0  0  0
    1.1712   -8.1505   -0.0000 C   0  0  0  0  0  0  0  0  0  0  0  0
    3.7765   -8.1625   -0.0000 C   0  0  0  0  0  0  0  0  0  0  0  0
   10.3137   -1.3983   -0.0000 C   0  0  0  0  0  0  0  0  0  0  0  0
    9.0110   -3.6570   -0.0000 C   0  0  0  0  0  0  0  0  0  0  0  0
    2.4499   -8.8915   -0.0000 C   0  0  0  0  0  0  0  0  0  0  0  0
   10.3017    0.1195   -0.0000 C   0  0  0  0  0  0  0  0  0  0  0  0
   10.3017   -4.3979   -0.0000 C   0  0  0  0  0  0  0  0  0  0  0  0
   11.5924    0.8724   -0.0000 C   0  0  0  0  0  0  0  0  0  0  0  0
    8.9871    0.8724   -0.0000 C   0  0  0  0  0  0  0  0  0  0  0  0
   10.2778   -5.8918   -0.0000 C   0  0  0  0  0  0  0  0  0  0  0  0
   11.5805   -3.6331   -0.0000 C   0  0  0  0  0  0  0  0  0  0  0  0
   11.5805    2.3902   -0.0000 N   0  0  0  0  0  0  0  0  0  0  0  0
    8.9752    2.3782   -0.0000 C   0  0  0  0  0  0  0  0  0  0  0  0
   11.5685   -6.6328   -0.0000 N   0  0  0  0  0  0  0  0  0  0  0  0
   12.8712   -4.3740   -0.0000 C   0  0  0  0  0  0  0  0  0  0  0  0
   10.2659    3.1550   -0.0000 C   0  0  0  0  0  0  0  0  0  0  0  0
   12.8592   -5.8679   -0.0000 C   0  0  0  0  0  0  0  0  0  0  0  0
  1  2  2  0  0  0  0
  1  3  1  0  0  0  0
  2  4  1  0  0  0  0
  2  5  1  0  0  0  0
  3  6  2  0  0  0  0
  4  7  2  0  0  0  0
  4  8  1  0  0  0  0
  5  9  1  6  0  0  0
  5 10  1  0  0  0  0
  8 11  1  0  0  0  0
  9 12  1  0  0  0  0
  9 13  1  0  0  0  0
 14 12  1  1  0  0  0
 13 15  1  0  0  0  0
 14 16  1  0  0  0  0
 14 17  1  0  0  0  0
 15 18  1  0  0  0  0
 16 19  1  0  0  0  0
 17 20  1  0  0  0  0
 18 21  1  0  0  0  0
 19 22  1  0  0  0  0
 20 23  1  0  0  0  0
 21 24  1  0  0  0  0
 22 25  1  0  0  0  0
 23 26  2  0  0  0  0
 24 27  1  0  0  0  0
 24 28  1  0  0  0  0
 25 29  2  0  0  0  0
 27 30  1  0  0  0  0
 28 31  1  0  0  0  0
 30 32  2  0  0  0  0
 30 33  1  0  0  0  0
 31 34  2  0  0  0  0
 31 35  1  0  0  0  0
 32 36  1  0  0  0  0
 33 37  2  0  0  0  0
 34 38  1  0  0  0  0
 35 39  2  0  0  0  0
 36 40  2  0  0  0  0
 38 41  2  0  0  0  0
  6  7  1  0  0  0  0
 10 11  1  0  0  0  0
 20 22  2  0  0  0  0
 26 29  1  0  0  0  0
 37 40  1  0  0  0  0
 39 41  1  0  0  0  0
M  END
>  <MolRegNo>
2221249

>  <m>
=

>  <Value>
1290

>  <Unit>
nM

>  <Type>
IC50

>  <pValue>
5.89

>  <Ligand Efficiency>
0

>  <Binding Efficiency>
0

>  <Surface Efficiency>
0

>  <Assay Index>
1125341

>  <Assay Category>


>  <Assay Organism>
Homo sapiens

>  <Target ID>
17045

>  <Target Name>
Cytochrome P450 3A4

>  <Target Organism>
Homo sapiens

>  <Target Description>
Target is a single protein chain

>  <Sequence Accession>
P08684

>  <Reference>
J Med Chem 61 (3), 946-979 (2018)

>  <Pubmed ID>
29350534

>  <DOI>
10.1021/acs.jmedchem.7b01420

$$$$
2245502
Actelion Java MolfileCreator 1.0

 41 46  0  0  0  0  0  0  0  0999 V2000
    0.0000   -0.0000   -0.0000 N   0  0  0  0  0  0  0  0  0  0  0  0
    1.2907    0.7649   -0.0000 C   0  0  0  0  0  0  0  0  0  0  0  0
   -1.3146    0.7649   -0.0000 C   0  0  0  0  0  0  0  0  0  0  0  0
    1.2787    2.2946   -0.0000 C   0  0  0  0  0  0  0  0  0  0  0  0
    2.5814    0.0239   -0.0000 C   0  0  0  0  0  0  0  0  0  0  0  0
   -1.3266    2.2826   -0.0000 C   0  0  0  0  0  0  0  0  0  0  0  0
   -0.0359    3.0475   -0.0000 C   0  0  0  0  0  0  0  0  0  0  0  0
    2.5695    3.0714   -0.0000 C   0  0  0  0  0  0  0  0  0  0  0  0
    2.5695   -1.4700   -0.0000 N   0  0  0  0  0  0  0  0  0  0  0  0
    3.8841    0.7888   -0.0000 C   0  0  0  0  0  0  0  0  0  0  0  0
    3.8721    2.3185   -0.0000 C   0  0  0  0  0  0  0  0  0  0  0  0
    1.2548   -2.2109   -0.0000 C   0  0  0  0  0  0  0  0  0  0  0  0
    3.8602   -2.2109   -0.0000 C   0  0  0  0  0  0  0  0  0  0  0  0
    1.2429   -3.7048   -0.0000 C   0  0  0  0  0  0  0  0  0  0  0  0
    5.1509   -1.4461   -0.0000 C   0  0  0  0  0  0  0  0  0  0  0  0
   -0.0717   -4.4338   -0.0000 N   0  0  0  0  0  0  0  0  0  0  0  0
    2.5336   -4.4457   -0.0000 C   0  0  0  0  0  0  0  0  0  0  0  0
    6.4416   -2.1870   -0.0000 C   0  0  0  0  0  0  0  0  0  0  0  0
   -0.0956   -5.9157   -0.0000 C   0  0  0  0  0  0  0  0  0  0  0  0
    2.5097   -5.9396   -0.0000 C   0  0  0  0  0  0  0  0  0  0  0  0
    7.7323   -1.4222   -0.0000 C   0  0  0  0  0  0  0  0  0  0  0  0
    1.1951   -6.6686   -0.0000 C   0  0  0  0  0  0  0  0  0  0  0  0
    3.7884   -6.6806   -0.0000 C   0  0  0  0  0  0  0  0  0  0  0  0
    9.0230   -2.1631   -0.0000 N   0  0  0  0  0  0  0  0  0  0  0  0
    1.1712   -8.1505   -0.0000 C   0  0  0  0  0  0  0  0  0  0  0  0
    3.7765   -8.1625   -0.0000 C   0  0  0  0  0  0  0  0  0  0  0  0
   10.3137   -1.3983   -0.0000 C   0  0  0  0  0  0  0  0  0  0  0  0
    9.0110   -3.6570   -0.0000 C   0  0  0  0  0  0  0  0  0  0  0  0
    2.4499   -8.8915   -0.0000 C   0  0  0  0  0  0  0  0  0  0  0  0
   10.3017    0.1195   -0.0000 C   0  0  0  0  0  0  0  0  0  0  0  0
   10.3017   -4.3979   -0.0000 C   0  0  0  0  0  0  0  0  0  0  0  0
   11.5924    0.8724   -0.0000 C   0  0  0  0  0  0  0  0  0  0  0  0
    8.9871    0.8724   -0.0000 C   0  0  0  0  0  0  0  0  0  0  0  0
   10.2778   -5.8918   -0.0000 C   0  0  0  0  0  0  0  0  0  0  0  0
   11.5805   -3.6331   -0.0000 C   0  0  0  0  0  0  0  0  0  0  0  0
   11.5805    2.3902   -0.0000 C   0  0  0  0  0  0  0  0  0  0  0  0
    8.9752    2.3782   -0.0000 C   0  0  0  0  0  0  0  0  0  0  0  0
   11.5685   -6.6328   -0.0000 C   0  0  0  0  0  0  0  0  0  0  0  0
   12.8712   -4.3740   -0.0000 C   0  0  0  0  0  0  0  0  0  0  0  0
   10.2659    3.1550   -0.0000 N   0  0  0  0  0  0  0  0  0  0  0  0
   12.8592   -5.8679   -0.0000 N   0  0  0  0  0  0  0  0  0  0  0  0
  1  2  2  0  0  0  0
  1  3  1  0  0  0  0
  2  4  1  0  0  0  0
  2  5  1  0  0  0  0
  3  6  2  0  0  0  0
  4  7  2  0  0  0  0
  4  8  1  0  0  0  0
  5  9  1  6  0  0  0
  5 10  1  0  0  0  0
  8 11  1  0  0  0  0
  9 12  1  0  0  0  0
  9 13  1  0  0  0  0
 14 12  1  1  0  0  0
 13 15  1  0  0  0  0
 14 16  1  0  0  0  0
 14 17  1  0  0  0  0
 15 18  1  0  0  0  0
 16 19  1  0  0  0  0
 17 20  1  0  0  0  0
 18 21  1  0  0  0  0
 19 22  1  0  0  0  0
 20 23  1  0  0  0  0
 21 24  1  0  0  0  0
 22 25  1  0  0  0  0
 23 26  2  0  0  0  0
 24 27  1  0  0  0  0
 24 28  1  0  0  0  0
 25 29  2  0  0  0  0
 27 30  1  0  0  0  0
 28 31  1  0  0  0  0
 30 32  2  0  0  0  0
 30 33  1  0  0  0  0
 31 34  2  0  0  0  0
 31 35  1  0  0  0  0
 32 36  1  0  0  0  0
 33 37  2  0  0  0  0
 34 38  1  0  0  0  0
 35 39  2  0  0  0  0
 36 40  2  0  0  0  0
 38 41  2  0  0  0  0
  6  7  1  0  0  0  0
 10 11  1  0  0  0  0
 20 22  2  0  0  0  0
 26 29  1  0  0  0  0
 37 40  1  0  0  0  0
 39 41  1  0  0  0  0
M  END
>  <MolRegNo>
2245502

>  <m>
=

>  <Value>
622

>  <Unit>
nM

>  <Type>
IC50

>  <pValue>
6.21

>  <Ligand Efficiency>
0

>  <Binding Efficiency>
0

>  <Surface Efficiency>
0

>  <Assay Index>
1125341

>  <Assay Category>


>  <Assay Organism>
Homo sapiens

>  <Target ID>
17045

>  <Target Name>
Cytochrome P450 3A4

>  <Target Organism>
Homo sapiens

>  <Target Description>
Target is a single protein chain

>  <Sequence Accession>
P08684

>  <Reference>
J Med Chem 61 (3), 946-979 (2018)

>  <Pubmed ID>
29350534

>  <DOI>
10.1021/acs.jmedchem.7b01420

$$$$
2222045
Actelion Java MolfileCreator 1.0

 41 46  0  0  0  0  0  0  0  0999 V2000
    0.0000   -0.0000   -0.0000 N   0  0  0  0  0  0  0  0  0  0  0  0
    1.2907    0.7649   -0.0000 C   0  0  0  0  0  0  0  0  0  0  0  0
   -1.3146    0.7649   -0.0000 C   0  0  0  0  0  0  0  0  0  0  0  0
    1.2787    2.2946   -0.0000 C   0  0  0  0  0  0  0  0  0  0  0  0
    2.5814    0.0239   -0.0000 C   0  0  0  0  0  0  0  0  0  0  0  0
   -1.3266    2.2826   -0.0000 C   0  0  0  0  0  0  0  0  0  0  0  0
   -0.0359    3.0475   -0.0000 C   0  0  0  0  0  0  0  0  0  0  0  0
    2.5695    3.0714   -0.0000 C   0  0  0  0  0  0  0  0  0  0  0  0
    2.5695   -1.4700   -0.0000 N   0  0  0  0  0  0  0  0  0  0  0  0
    3.8841    0.7888   -0.0000 C   0  0  0  0  0  0  0  0  0  0  0  0
    3.8721    2.3185   -0.0000 C   0  0  0  0  0  0  0  0  0  0  0  0
    1.2548   -2.2109   -0.0000 C   0  0  0  0  0  0  0  0  0  0  0  0
    3.8602   -2.2109   -0.0000 C   0  0  0  0  0  0  0  0  0  0  0  0
    1.2429   -3.7048   -0.0000 C   0  0  0  0  0  0  0  0  0  0  0  0
    5.1509   -1.4461   -0.0000 C   0  0  0  0  0  0  0  0  0  0  0  0
   -0.0717   -4.4338   -0.0000 N   0  0  0  0  0  0  0  0  0  0  0  0
    2.5336   -4.4457   -0.0000 C   0  0  0  0  0  0  0  0  0  0  0  0
    6.4416   -2.1870   -0.0000 C   0  0  0  0  0  0  0  0  0  0  0  0
   -0.0956   -5.9157   -0.0000 C   0  0  0  0  0  0  0  0  0  0  0  0
    2.5097   -5.9396   -0.0000 C   0  0  0  0  0  0  0  0  0  0  0  0
    7.7323   -1.4222   -0.0000 C   0  0  0  0  0  0  0  0  0  0  0  0
    1.1951   -6.6686   -0.0000 C   0  0  0  0  0  0  0  0  0  0  0  0
    3.7884   -6.6806   -0.0000 C   0  0  0  0  0  0  0  0  0  0  0  0
    9.0230   -2.1631   -0.0000 N   0  0  0  0  0  0  0  0  0  0  0  0
    1.1712   -8.1505   -0.0000 C   0  0  0  0  0  0  0  0  0  0  0  0
    3.7765   -8.1625   -0.0000 C   0  0  0  0  0  0  0  0  0  0  0  0
   10.3137   -1.3983   -0.0000 C   0  0  0  0  0  0  0  0  0  0  0  0
    9.0110   -3.6570   -0.0000 C   0  0  0  0  0  0  0  0  0  0  0  0
    2.4499   -8.8915   -0.0000 C   0  0  0  0  0  0  0  0  0  0  0  0
   10.3017    0.1195   -0.0000 C   0  0  0  0  0  0  0  0  0  0  0  0
   10.3017   -4.3979   -0.0000 C   0  0  0  0  0  0  0  0  0  0  0  0
   11.5924    0.8724   -0.0000 C   0  0  0  0  0  0  0  0  0  0  0  0
    8.9871    0.8724   -0.0000 C   0  0  0  0  0  0  0  0  0  0  0  0
   10.2778   -5.8918   -0.0000 C   0  0  0  0  0  0  0  0  0  0  0  0
   11.5805   -3.6331   -0.0000 C   0  0  0  0  0  0  0  0  0  0  0  0
   11.5805    2.3902   -0.0000 C   0  0  0  0  0  0  0  0  0  0  0  0
    8.9752    2.3782   -0.0000 C   0  0  0  0  0  0  0  0  0  0  0  0
   11.5685   -6.6328   -0.0000 C   0  0  0  0  0  0  0  0  0  0  0  0
   12.8712   -4.3740   -0.0000 C   0  0  0  0  0  0  0  0  0  0  0  0
   10.2659    3.1550   -0.0000 C   0  0  0  0  0  0  0  0  0  0  0  0
   12.8592   -5.8679   -0.0000 C   0  0  0  0  0  0  0  0  0  0  0  0
  1  2  2  0  0  0  0
  1  3  1  0  0  0  0
  2  4  1  0  0  0  0
  2  5  1  0  0  0  0
  3  6  2  0  0  0  0
  4  7  2  0  0  0  0
  4  8  1  0  0  0  0
  5  9  1  6  0  0  0
  5 10  1  0  0  0  0
  8 11  1  0  0  0  0
  9 12  1  0  0  0  0
  9 13  1  0  0  0  0
 14 12  1  1  0  0  0
 13 15  1  0  0  0  0
 14 16  1  0  0  0  0
 14 17  1  0  0  0  0
 15 18  1  0  0  0  0
 16 19  1  0  0  0  0
 17 20  1  0  0  0  0
 18 21  1  0  0  0  0
 19 22  1  0  0  0  0
 20 23  1  0  0  0  0
 21 24  1  0  0  0  0
 22 25  1  0  0  0  0
 23 26  2  0  0  0  0
 24 27  1  0  0  0  0
 24 28  1  0  0  0  0
 25 29  2  0  0  0  0
 27 30  1  0  0  0  0
 28 31  1  0  0  0  0
 30 32  2  0  0  0  0
 30 33  1  0  0  0  0
 31 34  2  0  0  0  0
 31 35  1  0  0  0  0
 32 36  1  0  0  0  0
 33 37  2  0  0  0  0
 34 38  1  0  0  0  0
 35 39  2  0  0  0  0
 36 40  2  0  0  0  0
 38 41  2  0  0  0  0
  6  7  1  0  0  0  0
 10 11  1  0  0  0  0
 20 22  2  0  0  0  0
 26 29  1  0  0  0  0
 37 40  1  0  0  0  0
 39 41  1  0  0  0  0
M  END
>  <MolRegNo>
2222045

>  <m>
=

>  <Value>
2240

>  <Unit>
nM

>  <Type>
IC50

>  <pValue>
5.65

>  <Ligand Efficiency>
0

>  <Binding Efficiency>
0

>  <Surface Efficiency>
0

>  <Assay Index>
1125341

>  <Assay Category>


>  <Assay Organism>
Homo sapiens

>  <Target ID>
17045

>  <Target Name>
Cytochrome P450 3A4

>  <Target Organism>
Homo sapiens

>  <Target Description>
Target is a single protein chain

>  <Sequence Accession>
P08684

>  <Reference>
J Med Chem 61 (3), 946-979 (2018)

>  <Pubmed ID>
29350534

>  <DOI>
10.1021/acs.jmedchem.7b01420

$$$$
1606046
Actelion Java MolfileCreator 1.0

 34 38  0  0  0  0  0  0  0  0999 V2000
    0.0000   -0.0000   -0.0000 N   0  0  0  0  0  0  0  0  0  0  0  0
    1.2922    0.7657   -0.0000 C   0  0  0  0  0  0  0  0  0  0  0  0
   -1.3161    0.7657   -0.0000 C   0  0  0  0  0  0  0  0  0  0  0  0
    1.2683    2.2972   -0.0000 C   0  0  0  0  0  0  0  0  0  0  0  0
    2.5964    0.0239   -0.0000 C   0  0  0  0  0  0  0  0  0  0  0  0
   -1.3281    2.2853   -0.0000 C   0  0  0  0  0  0  0  0  0  0  0  0
   -0.0479    3.0510   -0.0000 C   0  0  0  0  0  0  0  0  0  0  0  0
    2.5605    3.0750   -0.0000 C   0  0  0  0  0  0  0  0  0  0  0  0
    2.5844   -1.4717   -0.0000 N   0  0  0  0  0  0  0  0  0  0  0  0
    3.9005    0.8016   -0.0000 C   0  0  0  0  0  0  0  0  0  0  0  0
    3.8646    2.3331   -0.0000 C   0  0  0  0  0  0  0  0  0  0  0  0
    1.2683   -2.2135   -0.0000 C   0  0  0  0  0  0  0  0  0  0  0  0
    3.8766   -2.2135   -0.0000 C   0  0  0  0  0  0  0  0  0  0  0  0
    1.2563   -3.7091   -0.0000 C   0  0  0  0  0  0  0  0  0  0  0  0
    5.1688   -1.4477   -0.0000 C   0  0  0  0  0  0  0  0  0  0  0  0
   -0.0598   -4.4509   -0.0000 N   0  0  0  0  0  0  0  0  0  0  0  0
    2.5485   -4.4390   -0.0000 C   0  0  0  0  0  0  0  0  0  0  0  0
    6.4610   -2.1896   -0.0000 C   0  0  0  0  0  0  0  0  0  0  0  0
   -0.0718   -5.9346   -0.0000 C   0  0  0  0  0  0  0  0  0  0  0  0
    2.5365   -5.9346   -0.0000 C   0  0  0  0  0  0  0  0  0  0  0  0
    7.7532   -1.4238   -0.0000 C   0  0  0  0  0  0  0  0  0  0  0  0
    1.2204   -6.6764   -0.0000 C   0  0  0  0  0  0  0  0  0  0  0  0
    3.8168   -6.6644   -0.0000 C   0  0  0  0  0  0  0  0  0  0  0  0
    9.0454   -2.1656   -0.0000 N   0  0  0  0  0  0  0  0  0  0  0  0
    1.2084   -8.1600   -0.0000 C   0  0  0  0  0  0  0  0  0  0  0  0
    3.8168   -8.1481   -0.0000 C   0  0  0  0  0  0  0  0  0  0  0  0
   10.3376   -1.3999   -0.0000 C   0  0  0  0  0  0  0  0  0  0  0  0
    2.5007   -8.9018   -0.0000 C   0  0  0  0  0  0  0  0  0  0  0  0
   11.6298   -2.1417   -0.0000 C   0  0  0  0  0  0  0  0  0  0  0  0
   12.9101   -1.3760   -0.0000 N   0  0  0  0  0  0  0  0  0  0  0  0
   11.6179   -3.6373   -0.0000 C   0  0  0  0  0  0  0  0  0  0  0  0
   14.2023   -2.1058   -0.0000 C   0  0  0  0  0  0  0  0  0  0  0  0
   12.9101   -4.3791   -0.0000 C   0  0  0  0  0  0  0  0  0  0  0  0
   14.2023   -3.6014   -0.0000 C   0  0  0  0  0  0  0  0  0  0  0  0
  1  2  2  0  0  0  0
  1  3  1  0  0  0  0
  2  4  1  0  0  0  0
  2  5  1  0  0  0  0
  3  6  2  0  0  0  0
  4  7  2  0  0  0  0
  4  8  1  0  0  0  0
  5  9  1  6  0  0  0
  5 10  1  0  0  0  0
  8 11  1  0  0  0  0
  9 12  1  0  0  0  0
  9 13  1  0  0  0  0
 14 12  1  1  0  0  0
 13 15  1  0  0  0  0
 14 16  1  0  0  0  0
 14 17  1  0  0  0  0
 15 18  1  0  0  0  0
 16 19  1  0  0  0  0
 17 20  1  0  0  0  0
 18 21  1  0  0  0  0
 19 22  1  0  0  0  0
 20 23  1  0  0  0  0
 21 24  1  0  0  0  0
 22 25  1  0  0  0  0
 23 26  2  0  0  0  0
 24 27  1  0  0  0  0
 25 28  2  0  0  0  0
 27 29  1  0  0  0  0
 29 30  2  0  0  0  0
 29 31  1  0  0  0  0
 30 32  1  0  0  0  0
 31 33  2  0  0  0  0
 32 34  2  0  0  0  0
  6  7  1  0  0  0  0
 10 11  1  0  0  0  0
 20 22  2  0  0  0  0
 26 28  1  0  0  0  0
 33 34  1  0  0  0  0
M  END
>  <MolRegNo>
1606046

>  <m>
=

>  <Value>
4500

>  <Unit>
nM

>  <Type>
IC50

>  <pValue>
5.35

>  <Ligand Efficiency>
0

>  <Binding Efficiency>
0

>  <Surface Efficiency>
0

>  <Assay Index>
1125341

>  <Assay Category>


>  <Assay Organism>
Homo sapiens

>  <Target ID>
17045

>  <Target Name>
Cytochrome P450 3A4

>  <Target Organism>
Homo sapiens

>  <Target Description>
Target is a single protein chain

>  <Sequence Accession>
P08684

>  <Reference>
J Med Chem 61 (3), 946-979 (2018)

>  <Pubmed ID>
29350534

>  <DOI>
10.1021/acs.jmedchem.7b01420

$$$$
2211523
Actelion Java MolfileCreator 1.0

 34 38  0  0  0  0  0  0  0  0999 V2000
    0.0000   -0.0000   -0.0000 N   0  0  0  0  0  0  0  0  0  0  0  0
    1.2925    0.7659   -0.0000 C   0  0  0  0  0  0  0  0  0  0  0  0
   -1.3164    0.7659   -0.0000 C   0  0  0  0  0  0  0  0  0  0  0  0
    1.2805    2.2977   -0.0000 C   0  0  0  0  0  0  0  0  0  0  0  0
    2.5850    0.0239   -0.0000 C   0  0  0  0  0  0  0  0  0  0  0  0
   -1.3284    2.2858   -0.0000 C   0  0  0  0  0  0  0  0  0  0  0  0
   -0.0359    3.0517   -0.0000 C   0  0  0  0  0  0  0  0  0  0  0  0
    2.5730    3.0756   -0.0000 C   0  0  0  0  0  0  0  0  0  0  0  0
    2.5730   -1.4720   -0.0000 N   0  0  0  0  0  0  0  0  0  0  0  0
    3.8894    0.7898   -0.0000 C   0  0  0  0  0  0  0  0  0  0  0  0
    3.8774    2.3217   -0.0000 C   0  0  0  0  0  0  0  0  0  0  0  0
    1.2566   -2.2140   -0.0000 C   0  0  0  0  0  0  0  0  0  0  0  0
    3.8655   -2.2140   -0.0000 C   0  0  0  0  0  0  0  0  0  0  0  0
    1.2446   -3.7099   -0.0000 C   0  0  0  0  0  0  0  0  0  0  0  0
    5.1579   -1.4481   -0.0000 C   0  0  0  0  0  0  0  0  0  0  0  0
   -0.0718   -4.4399   -0.0000 N   0  0  0  0  0  0  0  0  0  0  0  0
    2.5371   -4.4519   -0.0000 C   0  0  0  0  0  0  0  0  0  0  0  0
    6.4504   -2.1900   -0.0000 C   0  0  0  0  0  0  0  0  0  0  0  0
   -0.0957   -5.9239   -0.0000 C   0  0  0  0  0  0  0  0  0  0  0  0
    2.5132   -5.9478   -0.0000 C   0  0  0  0  0  0  0  0  0  0  0  0
    7.7429   -1.4241   -0.0000 C   0  0  0  0  0  0  0  0  0  0  0  0
    1.1967   -6.6778   -0.0000 C   0  0  0  0  0  0  0  0  0  0  0  0
    3.7937   -6.6898   -0.0000 C   0  0  0  0  0  0  0  0  0  0  0  0
    9.0354   -2.1661   -0.0000 N   0  0  0  0  0  0  0  0  0  0  0  0
    1.1728   -8.1618   -0.0000 C   0  0  0  0  0  0  0  0  0  0  0  0
    3.7817   -8.1737   -0.0000 C   0  0  0  0  0  0  0  0  0  0  0  0
    9.0234   -3.6620   -0.0000 C   0  0  0  0  0  0  0  0  0  0  0  0
    2.4533   -8.9037   -0.0000 C   0  0  0  0  0  0  0  0  0  0  0  0
   10.3159   -4.4040   -0.0000 C   0  0  0  0  0  0  0  0  0  0  0  0
   10.2920   -5.8999   -0.0000 C   0  0  0  0  0  0  0  0  0  0  0  0
   11.5964   -3.6381   -0.0000 C   0  0  0  0  0  0  0  0  0  0  0  0
   11.5844   -6.6419   -0.0000 N   0  0  0  0  0  0  0  0  0  0  0  0
   12.8889   -4.3801   -0.0000 C   0  0  0  0  0  0  0  0  0  0  0  0
   12.8769   -5.8760   -0.0000 C   0  0  0  0  0  0  0  0  0  0  0  0
  1  2  2  0  0  0  0
  1  3  1  0  0  0  0
  2  4  1  0  0  0  0
  2  5  1  0  0  0  0
  3  6  2  0  0  0  0
  4  7  2  0  0  0  0
  4  8  1  0  0  0  0
  5  9  1  6  0  0  0
  5 10  1  0  0  0  0
  8 11  1  0  0  0  0
  9 12  1  0  0  0  0
  9 13  1  0  0  0  0
 14 12  1  1  0  0  0
 13 15  1  0  0  0  0
 14 16  1  0  0  0  0
 14 17  1  0  0  0  0
 15 18  1  0  0  0  0
 16 19  1  0  0  0  0
 17 20  1  0  0  0  0
 18 21  1  0  0  0  0
 19 22  1  0  0  0  0
 20 23  1  0  0  0  0
 21 24  1  0  0  0  0
 22 25  1  0  0  0  0
 23 26  2  0  0  0  0
 24 27  1  0  0  0  0
 25 28  2  0  0  0  0
 27 29  1  0  0  0  0
 29 30  2  0  0  0  0
 29 31  1  0  0  0  0
 30 32  1  0  0  0  0
 31 33  2  0  0  0  0
 32 34  2  0  0  0  0
  6  7  1  0  0  0  0
 10 11  1  0  0  0  0
 20 22  2  0  0  0  0
 26 28  1  0  0  0  0
 33 34  1  0  0  0  0
M  END
>  <MolRegNo>
2211523

>  <m>
=

>  <Value>
8450

>  <Unit>
nM

>  <Type>
IC50

>  <pValue>
5.07

>  <Ligand Efficiency>
0

>  <Binding Efficiency>
0

>  <Surface Efficiency>
0

>  <Assay Index>
1125341

>  <Assay Category>


>  <Assay Organism>
Homo sapiens

>  <Target ID>
17045

>  <Target Name>
Cytochrome P450 3A4

>  <Target Organism>
Homo sapiens

>  <Target Description>
Target is a single protein chain

>  <Sequence Accession>
P08684

>  <Reference>
J Med Chem 61 (3), 946-979 (2018)

>  <Pubmed ID>
29350534

>  <DOI>
10.1021/acs.jmedchem.7b01420

$$$$
2232316
Actelion Java MolfileCreator 1.0

 34 38  0  0  0  0  0  0  0  0999 V2000
    0.0000   -0.0000   -0.0000 N   0  0  0  0  0  0  0  0  0  0  0  0
    1.2925    0.7659   -0.0000 C   0  0  0  0  0  0  0  0  0  0  0  0
   -1.3164    0.7659   -0.0000 C   0  0  0  0  0  0  0  0  0  0  0  0
    1.2805    2.2977   -0.0000 C   0  0  0  0  0  0  0  0  0  0  0  0
    2.5850    0.0239   -0.0000 C   0  0  0  0  0  0  0  0  0  0  0  0
   -1.3284    2.2858   -0.0000 C   0  0  0  0  0  0  0  0  0  0  0  0
   -0.0359    3.0517   -0.0000 C   0  0  0  0  0  0  0  0  0  0  0  0
    2.5730    3.0756   -0.0000 C   0  0  0  0  0  0  0  0  0  0  0  0
    2.5730   -1.4720   -0.0000 N   0  0  0  0  0  0  0  0  0  0  0  0
    3.8894    0.7898   -0.0000 C   0  0  0  0  0  0  0  0  0  0  0  0
    3.8774    2.3217   -0.0000 C   0  0  0  0  0  0  0  0  0  0  0  0
    1.2566   -2.2140   -0.0000 C   0  0  0  0  0  0  0  0  0  0  0  0
    3.8655   -2.2140   -0.0000 C   0  0  0  0  0  0  0  0  0  0  0  0
    1.2446   -3.7099   -0.0000 C   0  0  0  0  0  0  0  0  0  0  0  0
    5.1579   -1.4481   -0.0000 C   0  0  0  0  0  0  0  0  0  0  0  0
   -0.0718   -4.4399   -0.0000 N   0  0  0  0  0  0  0  0  0  0  0  0
    2.5371   -4.4519   -0.0000 C   0  0  0  0  0  0  0  0  0  0  0  0
    6.4504   -2.1900   -0.0000 C   0  0  0  0  0  0  0  0  0  0  0  0
   -0.0957   -5.9239   -0.0000 C   0  0  0  0  0  0  0  0  0  0  0  0
    2.5132   -5.9478   -0.0000 C   0  0  0  0  0  0  0  0  0  0  0  0
    7.7429   -1.4241   -0.0000 C   0  0  0  0  0  0  0  0  0  0  0  0
    1.1967   -6.6778   -0.0000 C   0  0  0  0  0  0  0  0  0  0  0  0
    3.7937   -6.6898   -0.0000 C   0  0  0  0  0  0  0  0  0  0  0  0
    9.0354   -2.1661   -0.0000 N   0  0  0  0  0  0  0  0  0  0  0  0
    1.1728   -8.1618   -0.0000 C   0  0  0  0  0  0  0  0  0  0  0  0
    3.7817   -8.1737   -0.0000 C   0  0  0  0  0  0  0  0  0  0  0  0
    9.0234   -3.6620   -0.0000 C   0  0  0  0  0  0  0  0  0  0  0  0
    2.4533   -8.9037   -0.0000 C   0  0  0  0  0  0  0  0  0  0  0  0
   10.3159   -4.4040   -0.0000 C   0  0  0  0  0  0  0  0  0  0  0  0
   10.2920   -5.8999   -0.0000 C   0  0  0  0  0  0  0  0  0  0  0  0
   11.5964   -3.6381   -0.0000 C   0  0  0  0  0  0  0  0  0  0  0  0
   11.5844   -6.6419   -0.0000 C   0  0  0  0  0  0  0  0  0  0  0  0
   12.8889   -4.3801   -0.0000 C   0  0  0  0  0  0  0  0  0  0  0  0
   12.8769   -5.8760   -0.0000 N   0  0  0  0  0  0  0  0  0  0  0  0
  1  2  2  0  0  0  0
  1  3  1  0  0  0  0
  2  4  1  0  0  0  0
  2  5  1  0  0  0  0
  3  6  2  0  0  0  0
  4  7  2  0  0  0  0
  4  8  1  0  0  0  0
  5  9  1  6  0  0  0
  5 10  1  0  0  0  0
  8 11  1  0  0  0  0
  9 12  1  0  0  0  0
  9 13  1  0  0  0  0
 14 12  1  1  0  0  0
 13 15  1  0  0  0  0
 14 16  1  0  0  0  0
 14 17  1  0  0  0  0
 15 18  1  0  0  0  0
 16 19  1  0  0  0  0
 17 20  1  0  0  0  0
 18 21  1  0  0  0  0
 19 22  1  0  0  0  0
 20 23  1  0  0  0  0
 21 24  1  0  0  0  0
 22 25  1  0  0  0  0
 23 26  2  0  0  0  0
 24 27  1  0  0  0  0
 25 28  2  0  0  0  0
 27 29  1  0  0  0  0
 29 30  2  0  0  0  0
 29 31  1  0  0  0  0
 30 32  1  0  0  0  0
 31 33  2  0  0  0  0
 32 34  2  0  0  0  0
  6  7  1  0  0  0  0
 10 11  1  0  0  0  0
 20 22  2  0  0  0  0
 26 28  1  0  0  0  0
 33 34  1  0  0  0  0
M  END
>  <MolRegNo>
2232316

>  <m>
=

>  <Value>
4500

>  <Unit>
nM

>  <Type>
IC50

>  <pValue>
5.35

>  <Ligand Efficiency>
0

>  <Binding Efficiency>
0

>  <Surface Efficiency>
0

>  <Assay Index>
1125341

>  <Assay Category>


>  <Assay Organism>
Homo sapiens

>  <Target ID>
17045

>  <Target Name>
Cytochrome P450 3A4

>  <Target Organism>
Homo sapiens

>  <Target Description>
Target is a single protein chain

>  <Sequence Accession>
P08684

>  <Reference>
J Med Chem 61 (3), 946-979 (2018)

>  <Pubmed ID>
29350534

>  <DOI>
10.1021/acs.jmedchem.7b01420

$$$$
2202892
Actelion Java MolfileCreator 1.0

 34 38  0  0  0  0  0  0  0  0999 V2000
    0.0000   -0.0000   -0.0000 N   0  0  0  0  0  0  0  0  0  0  0  0
    1.2925    0.7659   -0.0000 C   0  0  0  0  0  0  0  0  0  0  0  0
   -1.3164    0.7659   -0.0000 C   0  0  0  0  0  0  0  0  0  0  0  0
    1.2805    2.2977   -0.0000 C   0  0  0  0  0  0  0  0  0  0  0  0
    2.5850    0.0239   -0.0000 C   0  0  0  0  0  0  0  0  0  0  0  0
   -1.3284    2.2858   -0.0000 C   0  0  0  0  0  0  0  0  0  0  0  0
   -0.0359    3.0517   -0.0000 C   0  0  0  0  0  0  0  0  0  0  0  0
    2.5730    3.0756   -0.0000 C   0  0  0  0  0  0  0  0  0  0  0  0
    2.5730   -1.4720   -0.0000 N   0  0  0  0  0  0  0  0  0  0  0  0
    3.8894    0.7898   -0.0000 C   0  0  0  0  0  0  0  0  0  0  0  0
    3.8774    2.3217   -0.0000 C   0  0  0  0  0  0  0  0  0  0  0  0
    1.2566   -2.2140   -0.0000 C   0  0  0  0  0  0  0  0  0  0  0  0
    3.8655   -2.2140   -0.0000 C   0  0  0  0  0  0  0  0  0  0  0  0
    1.2446   -3.7099   -0.0000 C   0  0  0  0  0  0  0  0  0  0  0  0
    5.1579   -1.4481   -0.0000 C   0  0  0  0  0  0  0  0  0  0  0  0
   -0.0718   -4.4399   -0.0000 N   0  0  0  0  0  0  0  0  0  0  0  0
    2.5371   -4.4519   -0.0000 C   0  0  0  0  0  0  0  0  0  0  0  0
    6.4504   -2.1900   -0.0000 C   0  0  0  0  0  0  0  0  0  0  0  0
   -0.0957   -5.9239   -0.0000 C   0  0  0  0  0  0  0  0  0  0  0  0
    2.5132   -5.9478   -0.0000 C   0  0  0  0  0  0  0  0  0  0  0  0
    7.7429   -1.4241   -0.0000 C   0  0  0  0  0  0  0  0  0  0  0  0
    1.1967   -6.6778   -0.0000 C   0  0  0  0  0  0  0  0  0  0  0  0
    3.7937   -6.6898   -0.0000 C   0  0  0  0  0  0  0  0  0  0  0  0
    9.0354   -2.1661   -0.0000 N   0  0  0  0  0  0  0  0  0  0  0  0
    1.1728   -8.1618   -0.0000 C   0  0  0  0  0  0  0  0  0  0  0  0
    3.7817   -8.1737   -0.0000 C   0  0  0  0  0  0  0  0  0  0  0  0
    9.0234   -3.6620   -0.0000 C   0  0  0  0  0  0  0  0  0  0  0  0
    2.4533   -8.9037   -0.0000 C   0  0  0  0  0  0  0  0  0  0  0  0
   10.3159   -4.4040   -0.0000 C   0  0  0  0  0  0  0  0  0  0  0  0
   10.2920   -5.8999   -0.0000 C   0  0  0  0  0  0  0  0  0  0  0  0
   11.5964   -3.6381   -0.0000 C   0  0  0  0  0  0  0  0  0  0  0  0
   11.5844   -6.6419   -0.0000 C   0  0  0  0  0  0  0  0  0  0  0  0
   12.8889   -4.3801   -0.0000 C   0  0  0  0  0  0  0  0  0  0  0  0
   12.8769   -5.8760   -0.0000 C   0  0  0  0  0  0  0  0  0  0  0  0
  1  2  2  0  0  0  0
  1  3  1  0  0  0  0
  2  4  1  0  0  0  0
  2  5  1  0  0  0  0
  3  6  2  0  0  0  0
  4  7  2  0  0  0  0
  4  8  1  0  0  0  0
  5  9  1  6  0  0  0
  5 10  1  0  0  0  0
  8 11  1  0  0  0  0
  9 12  1  0  0  0  0
  9 13  1  0  0  0  0
 14 12  1  1  0  0  0
 13 15  1  0  0  0  0
 14 16  1  0  0  0  0
 14 17  1  0  0  0  0
 15 18  1  0  0  0  0
 16 19  1  0  0  0  0
 17 20  1  0  0  0  0
 18 21  1  0  0  0  0
 19 22  1  0  0  0  0
 20 23  1  0  0  0  0
 21 24  1  0  0  0  0
 22 25  1  0  0  0  0
 23 26  2  0  0  0  0
 24 27  1  0  0  0  0
 25 28  2  0  0  0  0
 27 29  1  0  0  0  0
 29 30  2  0  0  0  0
 29 31  1  0  0  0  0
 30 32  1  0  0  0  0
 31 33  2  0  0  0  0
 32 34  2  0  0  0  0
  6  7  1  0  0  0  0
 10 11  1  0  0  0  0
 20 22  2  0  0  0  0
 26 28  1  0  0  0  0
 33 34  1  0  0  0  0
M  END
>  <MolRegNo>
2202892

>  <m>
=

>  <Value>
6150

>  <Unit>
nM

>  <Type>
IC50

>  <pValue>
5.21

>  <Ligand Efficiency>
0

>  <Binding Efficiency>
0

>  <Surface Efficiency>
0

>  <Assay Index>
1125341

>  <Assay Category>


>  <Assay Organism>
Homo sapiens

>  <Target ID>
17045

>  <Target Name>
Cytochrome P450 3A4

>  <Target Organism>
Homo sapiens

>  <Target Description>
Target is a single protein chain

>  <Sequence Accession>
P08684

>  <Reference>
J Med Chem 61 (3), 946-979 (2018)

>  <Pubmed ID>
29350534

>  <DOI>
10.1021/acs.jmedchem.7b01420

$$$$
2224563
Actelion Java MolfileCreator 1.0

 34 38  0  0  0  0  0  0  0  0999 V2000
    0.0000   -0.0000   -0.0000 N   0  0  0  0  0  0  0  0  0  0  0  0
    1.2926    0.7660   -0.0000 C   0  0  0  0  0  0  0  0  0  0  0  0
   -1.3165    0.7660   -0.0000 C   0  0  0  0  0  0  0  0  0  0  0  0
    1.2806    2.2979   -0.0000 C   0  0  0  0  0  0  0  0  0  0  0  0
    2.5851    0.0239   -0.0000 C   0  0  0  0  0  0  0  0  0  0  0  0
   -1.3285    2.2859   -0.0000 C   0  0  0  0  0  0  0  0  0  0  0  0
   -0.0359    3.0519   -0.0000 C   0  0  0  0  0  0  0  0  0  0  0  0
    2.5732    3.0758   -0.0000 C   0  0  0  0  0  0  0  0  0  0  0  0
    2.5732   -1.4721   -0.0000 N   0  0  0  0  0  0  0  0  0  0  0  0
    3.8897    0.7899   -0.0000 C   0  0  0  0  0  0  0  0  0  0  0  0
    3.8777    2.3218   -0.0000 C   0  0  0  0  0  0  0  0  0  0  0  0
    1.2567   -2.2141   -0.0000 C   0  0  0  0  0  0  0  0  0  0  0  0
    3.8657   -2.2141   -0.0000 C   0  0  0  0  0  0  0  0  0  0  0  0
    1.2447   -3.7101   -0.0000 C   0  0  0  0  0  0  0  0  0  0  0  0
    5.1583   -1.4482   -0.0000 C   0  0  0  0  0  0  0  0  0  0  0  0
   -0.0718   -4.4402   -0.0000 N   0  0  0  0  0  0  0  0  0  0  0  0
    2.5373   -4.4522   -0.0000 C   0  0  0  0  0  0  0  0  0  0  0  0
    6.4509   -2.1902   -0.0000 C   0  0  0  0  0  0  0  0  0  0  0  0
   -0.0957   -5.9243   -0.0000 C   0  0  0  0  0  0  0  0  0  0  0  0
    2.5133   -5.9482   -0.0000 C   0  0  0  0  0  0  0  0  0  0  0  0
    7.7434   -1.4242   -0.0000 C   0  0  0  0  0  0  0  0  0  0  0  0
    1.1968   -6.6783   -0.0000 C   0  0  0  0  0  0  0  0  0  0  0  0
    3.7939   -6.6902   -0.0000 C   0  0  0  0  0  0  0  0  0  0  0  0
    9.0360   -2.1662   -0.0000 N   0  0  0  0  0  0  0  0  0  0  0  0
    1.1729   -8.1623   -0.0000 C   0  0  0  0  0  0  0  0  0  0  0  0
    3.7820   -8.1743   -0.0000 C   0  0  0  0  0  0  0  0  0  0  0  0
   10.3286   -1.4003   -0.0000 C   0  0  0  0  0  0  0  0  0  0  0  0
    2.4535   -8.9043   -0.0000 C   0  0  0  0  0  0  0  0  0  0  0  0
   11.6211   -2.1423   -0.0000 C   0  0  0  0  0  0  0  0  0  0  0  0
   11.5972   -3.6383   -0.0000 C   0  0  0  0  0  0  0  0  0  0  0  0
   12.9017   -1.3763   -0.0000 C   0  0  0  0  0  0  0  0  0  0  0  0
   12.8778   -4.3804   -0.0000 C   0  0  0  0  0  0  0  0  0  0  0  0
   14.1943   -2.1303   -0.0000 C   0  0  0  0  0  0  0  0  0  0  0  0
   14.1704   -3.6264   -0.0000 C   0  0  0  0  0  0  0  0  0  0  0  0
  1  2  2  0  0  0  0
  1  3  1  0  0  0  0
  2  4  1  0  0  0  0
  2  5  1  0  0  0  0
  3  6  2  0  0  0  0
  4  7  2  0  0  0  0
  4  8  1  0  0  0  0
  5  9  1  6  0  0  0
  5 10  1  0  0  0  0
  8 11  1  0  0  0  0
  9 12  1  0  0  0  0
  9 13  1  0  0  0  0
 14 12  1  1  0  0  0
 13 15  1  0  0  0  0
 14 16  1  0  0  0  0
 14 17  1  0  0  0  0
 15 18  1  0  0  0  0
 16 19  1  0  0  0  0
 17 20  1  0  0  0  0
 18 21  1  0  0  0  0
 19 22  1  0  0  0  0
 20 23  1  0  0  0  0
 21 24  1  0  0  0  0
 22 25  1  0  0  0  0
 23 26  2  0  0  0  0
 24 27  1  0  0  0  0
 25 28  2  0  0  0  0
 27 29  1  0  0  0  0
 29 30  1  0  0  0  0
 29 31  1  0  0  0  0
 30 32  1  0  0  0  0
 31 33  1  0  0  0  0
 32 34  1  0  0  0  0
  6  7  1  0  0  0  0
 10 11  1  0  0  0  0
 20 22  2  0  0  0  0
 26 28  1  0  0  0  0
 33 34  1  0  0  0  0
M  END
>  <MolRegNo>
2224563

>  <m>
=

>  <Value>
2780

>  <Unit>
nM

>  <Type>
IC50

>  <pValue>
5.56

>  <Ligand Efficiency>
0

>  <Binding Efficiency>
0

>  <Surface Efficiency>
0

>  <Assay Index>
1125341

>  <Assay Category>


>  <Assay Organism>
Homo sapiens

>  <Target ID>
17045

>  <Target Name>
Cytochrome P450 3A4

>  <Target Organism>
Homo sapiens

>  <Target Description>
Target is a single protein chain

>  <Sequence Accession>
P08684

>  <Reference>
J Med Chem 61 (3), 946-979 (2018)

>  <Pubmed ID>
29350534

>  <DOI>
10.1021/acs.jmedchem.7b01420

$$$$
2241017
Actelion Java MolfileCreator 1.0

 36 40  0  0  0  0  0  0  0  0999 V2000
    0.0000   -0.0000   -0.0000 F   0  0  0  0  0  0  0  0  0  0  0  0
   -1.5098    0.0119   -0.0000 C   0  0  0  0  0  0  0  0  0  0  0  0
   -0.7727   -1.2720   -0.0000 F   0  0  0  0  0  0  0  0  0  0  0  0
   -2.8175   -0.7133   -0.0000 C   0  0  0  0  0  0  0  0  0  0  0  0
   -1.5098    1.5217   -0.0000 C   0  0  0  0  0  0  0  0  0  0  0  0
   -4.1132    0.0476   -0.0000 C   0  0  0  0  0  0  0  0  0  0  0  0
   -2.8175    2.2944   -0.0000 C   0  0  0  0  0  0  0  0  0  0  0  0
   -4.1132    1.5573   -0.0000 C   0  0  0  0  0  0  0  0  0  0  0  0
   -5.4209    2.3182   -0.0000 C   0  0  0  0  0  0  0  0  0  0  0  0
   -6.7286    1.5811   -0.0000 N   0  0  0  0  0  0  0  0  0  0  0  0
   -8.0363    2.3419   -0.0000 C   0  0  0  0  0  0  0  0  0  0  0  0
   -9.3440    1.6049   -0.0000 C   0  0  0  0  0  0  0  0  0  0  0  0
  -10.6516    2.3657   -0.0000 C   0  0  0  0  0  0  0  0  0  0  0  0
  -11.9593    1.6287   -0.0000 C   0  0  0  0  0  0  0  0  0  0  0  0
  -13.2670    2.3895   -0.0000 N   0  0  0  0  0  0  0  0  0  0  0  0
  -13.2789    3.8993   -0.0000 C   0  0  0  0  0  0  0  0  0  0  0  0
  -14.5747    1.6524   -0.0000 C   0  0  0  0  0  0  0  0  0  0  0  0
  -14.5865    4.6601   -0.0000 C   0  0  0  0  0  0  0  0  0  0  0  0
  -11.9831    4.6601   -0.0000 C   0  0  0  0  0  0  0  0  0  0  0  0
  -14.5865    0.1664   -0.0000 C   0  0  0  0  0  0  0  0  0  0  0  0
  -15.8942    3.9230   -0.0000 N   0  0  0  0  0  0  0  0  0  0  0  0
  -14.5984    6.1817   -0.0000 C   0  0  0  0  0  0  0  0  0  0  0  0
  -11.9950    6.1817   -0.0000 C   0  0  0  0  0  0  0  0  0  0  0  0
  -15.8942   -0.5587   -0.0000 N   0  0  0  0  0  0  0  0  0  0  0  0
  -13.3026   -0.5706   -0.0000 C   0  0  0  0  0  0  0  0  0  0  0  0
  -17.2019    4.6839   -0.0000 C   0  0  0  0  0  0  0  0  0  0  0  0
  -15.9061    6.9307   -0.0000 C   0  0  0  0  0  0  0  0  0  0  0  0
  -13.3145    6.9545   -0.0000 C   0  0  0  0  0  0  0  0  0  0  0  0
  -15.9180   -2.0328   -0.0000 C   0  0  0  0  0  0  0  0  0  0  0  0
  -13.3264   -2.0566   -0.0000 C   0  0  0  0  0  0  0  0  0  0  0  0
  -17.2138    6.1936   -0.0000 C   0  0  0  0  0  0  0  0  0  0  0  0
  -14.6341   -2.7818   -0.0000 C   0  0  0  0  0  0  0  0  0  0  0  0
  -12.0544   -2.7937   -0.0000 C   0  0  0  0  0  0  0  0  0  0  0  0
  -14.6579   -4.2559   -0.0000 C   0  0  0  0  0  0  0  0  0  0  0  0
  -12.0663   -4.2678   -0.0000 C   0  0  0  0  0  0  0  0  0  0  0  0
  -13.3859   -4.9930   -0.0000 C   0  0  0  0  0  0  0  0  0  0  0  0
  1  2  1  0  0  0  0
  2  3  1  0  0  0  0
  2  4  1  0  0  0  0
  2  5  1  0  0  0  0
  4  6  1  0  0  0  0
  5  7  1  0  0  0  0
  6  8  1  0  0  0  0
  8  9  1  0  0  0  0
  9 10  1  0  0  0  0
 10 11  1  0  0  0  0
 11 12  1  0  0  0  0
 12 13  1  0  0  0  0
 13 14  1  0  0  0  0
 14 15  1  0  0  0  0
 16 15  1  6  0  0  0
 15 17  1  0  0  0  0
 16 18  1  0  0  0  0
 16 19  1  0  0  0  0
 20 17  1  1  0  0  0
 18 21  2  0  0  0  0
 18 22  1  0  0  0  0
 19 23  1  0  0  0  0
 20 24  1  0  0  0  0
 20 25  1  0  0  0  0
 21 26  1  0  0  0  0
 22 27  2  0  0  0  0
 22 28  1  0  0  0  0
 24 29  1  0  0  0  0
 25 30  1  0  0  0  0
 26 31  2  0  0  0  0
 29 32  1  0  0  0  0
 30 33  1  0  0  0  0
 32 34  1  0  0  0  0
 33 35  2  0  0  0  0
 34 36  2  0  0  0  0
  7  8  1  0  0  0  0
 23 28  1  0  0  0  0
 27 31  1  0  0  0  0
 30 32  2  0  0  0  0
 35 36  1  0  0  0  0
M  END
>  <MolRegNo>
2241017

>  <m>
=

>  <Value>
19200

>  <Unit>
nM

>  <Type>
IC50

>  <pValue>
4.72

>  <Ligand Efficiency>
0

>  <Binding Efficiency>
0

>  <Surface Efficiency>
0

>  <Assay Index>
1125341

>  <Assay Category>


>  <Assay Organism>
Homo sapiens

>  <Target ID>
17045

>  <Target Name>
Cytochrome P450 3A4

>  <Target Organism>
Homo sapiens

>  <Target Description>
Target is a single protein chain

>  <Sequence Accession>
P08684

>  <Reference>
J Med Chem 61 (3), 946-979 (2018)

>  <Pubmed ID>
29350534

>  <DOI>
10.1021/acs.jmedchem.7b01420

$$$$
2237857
Actelion Java MolfileCreator 1.0

 33 37  0  0  0  0  0  0  0  0999 V2000
    0.0000   -0.0000   -0.0000 N   0  0  0  0  0  0  0  0  0  0  0  0
    1.2913    0.7652   -0.0000 C   0  0  0  0  0  0  0  0  0  0  0  0
   -1.3152    0.7652   -0.0000 C   0  0  0  0  0  0  0  0  0  0  0  0
    1.2793    2.2956   -0.0000 C   0  0  0  0  0  0  0  0  0  0  0  0
    2.5826    0.0239   -0.0000 C   0  0  0  0  0  0  0  0  0  0  0  0
   -1.3271    2.2836   -0.0000 C   0  0  0  0  0  0  0  0  0  0  0  0
   -0.0359    3.0489   -0.0000 C   0  0  0  0  0  0  0  0  0  0  0  0
    2.5706    3.0728   -0.0000 C   0  0  0  0  0  0  0  0  0  0  0  0
    2.5706   -1.4706   -0.0000 N   0  0  0  0  0  0  0  0  0  0  0  0
    3.8858    0.7891   -0.0000 C   0  0  0  0  0  0  0  0  0  0  0  0
    3.8738    2.3195   -0.0000 C   0  0  0  0  0  0  0  0  0  0  0  0
    1.2554   -2.2119   -0.0000 C   0  0  0  0  0  0  0  0  0  0  0  0
    3.8619   -2.2119   -0.0000 C   0  0  0  0  0  0  0  0  0  0  0  0
    1.2435   -3.7064   -0.0000 C   0  0  0  0  0  0  0  0  0  0  0  0
    5.1532   -1.4467   -0.0000 C   0  0  0  0  0  0  0  0  0  0  0  0
   -0.0717   -4.4358   -0.0000 N   0  0  0  0  0  0  0  0  0  0  0  0
    2.5347   -4.4477   -0.0000 C   0  0  0  0  0  0  0  0  0  0  0  0
    6.4444   -2.1880   -0.0000 C   0  0  0  0  0  0  0  0  0  0  0  0
   -0.0957   -5.9184   -0.0000 C   0  0  0  0  0  0  0  0  0  0  0  0
    2.5108   -5.9423   -0.0000 C   0  0  0  0  0  0  0  0  0  0  0  0
    7.7357   -1.4228   -0.0000 C   0  0  0  0  0  0  0  0  0  0  0  0
    1.1956   -6.6716   -0.0000 C   0  0  0  0  0  0  0  0  0  0  0  0
    3.7901   -6.6836   -0.0000 C   0  0  0  0  0  0  0  0  0  0  0  0
    9.0270   -2.1641   -0.0000 N   0  0  0  0  0  0  0  0  0  0  0  0
    1.1717   -8.1542   -0.0000 C   0  0  0  0  0  0  0  0  0  0  0  0
    3.7782   -8.1661   -0.0000 C   0  0  0  0  0  0  0  0  0  0  0  0
   10.3183   -1.3989   -0.0000 C   0  0  0  0  0  0  0  0  0  0  0  0
    2.4510   -8.8955   -0.0000 C   0  0  0  0  0  0  0  0  0  0  0  0
   11.5976   -2.1402   -0.0000 C   0  0  0  0  0  0  0  0  0  0  0  0
   10.3063    0.1196   -0.0000 C   0  0  0  0  0  0  0  0  0  0  0  0
   12.8889   -1.3869   -0.0000 C   0  0  0  0  0  0  0  0  0  0  0  0
   11.6095    0.8728   -0.0000 C   0  0  0  0  0  0  0  0  0  0  0  0
   12.8889    0.1315   -0.0000 C   0  0  0  0  0  0  0  0  0  0  0  0
  1  2  2  0  0  0  0
  1  3  1  0  0  0  0
  2  4  1  0  0  0  0
  2  5  1  0  0  0  0
  3  6  2  0  0  0  0
  4  7  2  0  0  0  0
  4  8  1  0  0  0  0
  5  9  1  6  0  0  0
  5 10  1  0  0  0  0
  8 11  1  0  0  0  0
  9 12  1  0  0  0  0
  9 13  1  0  0  0  0
 14 12  1  1  0  0  0
 13 15  1  0  0  0  0
 14 16  1  0  0  0  0
 14 17  1  0  0  0  0
 15 18  1  0  0  0  0
 16 19  1  0  0  0  0
 17 20  1  0  0  0  0
 18 21  1  0  0  0  0
 19 22  1  0  0  0  0
 20 23  1  0  0  0  0
 21 24  1  0  0  0  0
 22 25  1  0  0  0  0
 23 26  2  0  0  0  0
 24 27  1  0  0  0  0
 25 28  2  0  0  0  0
 27 29  1  0  0  0  0
 27 30  1  0  0  0  0
 29 31  1  0  0  0  0
 30 32  1  0  0  0  0
 31 33  1  0  0  0  0
  6  7  1  0  0  0  0
 10 11  1  0  0  0  0
 20 22  2  0  0  0  0
 26 28  1  0  0  0  0
 32 33  1  0  0  0  0
M  END
>  <MolRegNo>
2237857

>  <m>
=

>  <Value>
11700

>  <Unit>
nM

>  <Type>
IC50

>  <pValue>
4.93

>  <Ligand Efficiency>
0

>  <Binding Efficiency>
0

>  <Surface Efficiency>
0

>  <Assay Index>
1125341

>  <Assay Category>


>  <Assay Organism>
Homo sapiens

>  <Target ID>
17045

>  <Target Name>
Cytochrome P450 3A4

>  <Target Organism>
Homo sapiens

>  <Target Description>
Target is a single protein chain

>  <Sequence Accession>
P08684

>  <Reference>
J Med Chem 61 (3), 946-979 (2018)

>  <Pubmed ID>
29350534

>  <DOI>
10.1021/acs.jmedchem.7b01420

$$$$
2202134
Actelion Java MolfileCreator 1.0

 35 39  0  0  0  0  0  0  0  0999 V2000
    0.0000   -0.0000   -0.0000 F   0  0  0  0  0  0  0  0  0  0  0  0
   -0.7500   -1.2856   -0.0000 C   0  0  0  0  0  0  0  0  0  0  0  0
    0.7381   -1.2618   -0.0000 F   0  0  0  0  0  0  0  0  0  0  0  0
   -0.7738   -2.7737   -0.0000 C   0  0  0  0  0  0  0  0  0  0  0  0
   -2.0475   -0.5238   -0.0000 C   0  0  0  0  0  0  0  0  0  0  0  0
   -2.0832   -3.4998   -0.0000 C   0  0  0  0  0  0  0  0  0  0  0  0
   -3.3689   -1.2499   -0.0000 C   0  0  0  0  0  0  0  0  0  0  0  0
   -3.3808   -2.7379   -0.0000 C   0  0  0  0  0  0  0  0  0  0  0  0
   -4.6902   -3.4760   -0.0000 N   0  0  0  0  0  0  0  0  0  0  0  0
   -5.9997   -2.7141   -0.0000 C   0  0  0  0  0  0  0  0  0  0  0  0
   -7.3091   -3.4522   -0.0000 C   0  0  0  0  0  0  0  0  0  0  0  0
   -8.6186   -2.6903   -0.0000 C   0  0  0  0  0  0  0  0  0  0  0  0
   -9.9280   -3.4284   -0.0000 C   0  0  0  0  0  0  0  0  0  0  0  0
  -11.2375   -2.6665   -0.0000 N   0  0  0  0  0  0  0  0  0  0  0  0
  -11.2494   -1.1547   -0.0000 C   0  0  0  0  0  0  0  0  0  0  0  0
  -12.5469   -3.4046   -0.0000 C   0  0  0  0  0  0  0  0  0  0  0  0
  -12.5588   -0.3928   -0.0000 C   0  0  0  0  0  0  0  0  0  0  0  0
   -9.9518   -0.3928   -0.0000 C   0  0  0  0  0  0  0  0  0  0  0  0
  -12.5588   -4.8926   -0.0000 C   0  0  0  0  0  0  0  0  0  0  0  0
  -13.8683   -1.1309   -0.0000 N   0  0  0  0  0  0  0  0  0  0  0  0
  -12.5707    1.1309   -0.0000 C   0  0  0  0  0  0  0  0  0  0  0  0
   -9.9637    1.1309   -0.0000 C   0  0  0  0  0  0  0  0  0  0  0  0
  -13.8683   -5.6187   -0.0000 N   0  0  0  0  0  0  0  0  0  0  0  0
  -11.2732   -5.6306   -0.0000 C   0  0  0  0  0  0  0  0  0  0  0  0
  -15.1777   -0.3690   -0.0000 C   0  0  0  0  0  0  0  0  0  0  0  0
  -13.8802    1.8808   -0.0000 C   0  0  0  0  0  0  0  0  0  0  0  0
  -11.2851    1.9047   -0.0000 C   0  0  0  0  0  0  0  0  0  0  0  0
  -13.8921   -7.0948   -0.0000 C   0  0  0  0  0  0  0  0  0  0  0  0
  -11.2970   -7.1187   -0.0000 C   0  0  0  0  0  0  0  0  0  0  0  0
  -15.1896    1.1428   -0.0000 C   0  0  0  0  0  0  0  0  0  0  0  0
  -12.6064   -7.8448   -0.0000 C   0  0  0  0  0  0  0  0  0  0  0  0
  -10.0233   -7.8567   -0.0000 C   0  0  0  0  0  0  0  0  0  0  0  0
  -12.6303   -9.3209   -0.0000 C   0  0  0  0  0  0  0  0  0  0  0  0
  -10.0352   -9.3328   -0.0000 C   0  0  0  0  0  0  0  0  0  0  0  0
  -11.3565  -10.0590   -0.0000 C   0  0  0  0  0  0  0  0  0  0  0  0
  1  2  1  0  0  0  0
  2  3  1  0  0  0  0
  2  4  1  0  0  0  0
  2  5  1  0  0  0  0
  4  6  1  0  0  0  0
  5  7  1  0  0  0  0
  6  8  1  0  0  0  0
  8  9  1  0  0  0  0
  9 10  1  0  0  0  0
 10 11  1  0  0  0  0
 11 12  1  0  0  0  0
 12 13  1  0  0  0  0
 13 14  1  0  0  0  0
 15 14  1  6  0  0  0
 14 16  1  0  0  0  0
 15 17  1  0  0  0  0
 15 18  1  0  0  0  0
 19 16  1  1  0  0  0
 17 20  2  0  0  0  0
 17 21  1  0  0  0  0
 18 22  1  0  0  0  0
 19 23  1  0  0  0  0
 19 24  1  0  0  0  0
 20 25  1  0  0  0  0
 21 26  2  0  0  0  0
 21 27  1  0  0  0  0
 23 28  1  0  0  0  0
 24 29  1  0  0  0  0
 25 30  2  0  0  0  0
 28 31  1  0  0  0  0
 29 32  1  0  0  0  0
 31 33  1  0  0  0  0
 32 34  2  0  0  0  0
 33 35  2  0  0  0  0
  7  8  1  0  0  0  0
 22 27  1  0  0  0  0
 26 30  1  0  0  0  0
 29 31  2  0  0  0  0
 34 35  1  0  0  0  0
M  END
>  <MolRegNo>
2202134

>  <m>
=

>  <Value>
11300

>  <Unit>
nM

>  <Type>
IC50

>  <pValue>
4.95

>  <Ligand Efficiency>
0

>  <Binding Efficiency>
0

>  <Surface Efficiency>
0

>  <Assay Index>
1125341

>  <Assay Category>


>  <Assay Organism>
Homo sapiens

>  <Target ID>
17045

>  <Target Name>
Cytochrome P450 3A4

>  <Target Organism>
Homo sapiens

>  <Target Description>
Target is a single protein chain

>  <Sequence Accession>
P08684

>  <Reference>
J Med Chem 61 (3), 946-979 (2018)

>  <Pubmed ID>
29350534

>  <DOI>
10.1021/acs.jmedchem.7b01420

$$$$
2199373
Actelion Java MolfileCreator 1.0

 35 39  0  0  0  0  0  0  0  0999 V2000
    0.0000   -0.0000   -0.0000 N   0  0  0  0  0  0  0  0  0  0  0  0
    1.2913    0.7652   -0.0000 C   0  0  0  0  0  0  0  0  0  0  0  0
   -1.3152    0.7652   -0.0000 C   0  0  0  0  0  0  0  0  0  0  0  0
    1.2794    2.2957   -0.0000 C   0  0  0  0  0  0  0  0  0  0  0  0
    2.5826    0.0239   -0.0000 C   0  0  0  0  0  0  0  0  0  0  0  0
   -1.3272    2.2837   -0.0000 C   0  0  0  0  0  0  0  0  0  0  0  0
   -0.0359    3.0489   -0.0000 C   0  0  0  0  0  0  0  0  0  0  0  0
    2.5707    3.0728   -0.0000 C   0  0  0  0  0  0  0  0  0  0  0  0
    2.5707   -1.4707   -0.0000 N   0  0  0  0  0  0  0  0  0  0  0  0
    3.8859    0.7891   -0.0000 C   0  0  0  0  0  0  0  0  0  0  0  0
    3.8739    2.3196   -0.0000 C   0  0  0  0  0  0  0  0  0  0  0  0
    1.2554   -2.2120   -0.0000 C   0  0  0  0  0  0  0  0  0  0  0  0
    3.8620   -2.2120   -0.0000 C   0  0  0  0  0  0  0  0  0  0  0  0
    1.2435   -3.7065   -0.0000 C   0  0  0  0  0  0  0  0  0  0  0  0
    5.1533   -1.4467   -0.0000 C   0  0  0  0  0  0  0  0  0  0  0  0
   -0.0717   -4.4359   -0.0000 N   0  0  0  0  0  0  0  0  0  0  0  0
    2.5348   -4.4478   -0.0000 C   0  0  0  0  0  0  0  0  0  0  0  0
    6.4446   -2.1881   -0.0000 C   0  0  0  0  0  0  0  0  0  0  0  0
   -0.0957   -5.9185   -0.0000 C   0  0  0  0  0  0  0  0  0  0  0  0
    2.5109   -5.9424   -0.0000 C   0  0  0  0  0  0  0  0  0  0  0  0
    7.7359   -1.4228   -0.0000 C   0  0  0  0  0  0  0  0  0  0  0  0
    1.1957   -6.6718   -0.0000 C   0  0  0  0  0  0  0  0  0  0  0  0
    3.7902   -6.6837   -0.0000 C   0  0  0  0  0  0  0  0  0  0  0  0
    9.0272   -2.1641   -0.0000 N   0  0  0  0  0  0  0  0  0  0  0  0
    1.1717   -8.1544   -0.0000 C   0  0  0  0  0  0  0  0  0  0  0  0
    3.7783   -8.1663   -0.0000 C   0  0  0  0  0  0  0  0  0  0  0  0
   10.3185   -1.3989   -0.0000 C   0  0  0  0  0  0  0  0  0  0  0  0
    2.4511   -8.8957   -0.0000 C   0  0  0  0  0  0  0  0  0  0  0  0
   11.5979   -2.1402   -0.0000 C   0  0  0  0  0  0  0  0  0  0  0  0
   10.3066    0.1196   -0.0000 C   0  0  0  0  0  0  0  0  0  0  0  0
   12.8892   -1.3870   -0.0000 C   0  0  0  0  0  0  0  0  0  0  0  0
   11.6098    0.8728   -0.0000 C   0  0  0  0  0  0  0  0  0  0  0  0
   12.8892    0.1315   -0.0000 C   0  0  0  0  0  0  0  0  0  0  0  0
   13.6185    1.4467   -0.0000 C   0  0  0  0  0  0  0  0  0  0  0  0
   14.3837    0.1554   -0.0000 C   0  0  0  0  0  0  0  0  0  0  0  0
  1  2  2  0  0  0  0
  1  3  1  0  0  0  0
  2  4  1  0  0  0  0
  2  5  1  0  0  0  0
  3  6  2  0  0  0  0
  4  7  2  0  0  0  0
  4  8  1  0  0  0  0
  5  9  1  6  0  0  0
  5 10  1  0  0  0  0
  8 11  1  0  0  0  0
  9 12  1  0  0  0  0
  9 13  1  0  0  0  0
 14 12  1  1  0  0  0
 13 15  1  0  0  0  0
 14 16  1  0  0  0  0
 14 17  1  0  0  0  0
 15 18  1  0  0  0  0
 16 19  1  0  0  0  0
 17 20  1  0  0  0  0
 18 21  1  0  0  0  0
 19 22  1  0  0  0  0
 20 23  1  0  0  0  0
 21 24  1  0  0  0  0
 22 25  1  0  0  0  0
 23 26  2  0  0  0  0
 24 27  1  0  0  0  0
 25 28  2  0  0  0  0
 27 29  1  0  0  0  0
 27 30  1  0  0  0  0
 29 31  1  0  0  0  0
 30 32  1  0  0  0  0
 31 33  1  0  0  0  0
 33 34  1  0  0  0  0
 33 35  1  0  0  0  0
  6  7  1  0  0  0  0
 10 11  1  0  0  0  0
 20 22  2  0  0  0  0
 26 28  1  0  0  0  0
 32 33  1  0  0  0  0
M  END
>  <MolRegNo>
2199373

>  <m>
=

>  <Value>
12900

>  <Unit>
nM

>  <Type>
IC50

>  <pValue>
4.89

>  <Ligand Efficiency>
0

>  <Binding Efficiency>
0

>  <Surface Efficiency>
0

>  <Assay Index>
1125341

>  <Assay Category>


>  <Assay Organism>
Homo sapiens

>  <Target ID>
17045

>  <Target Name>
Cytochrome P450 3A4

>  <Target Organism>
Homo sapiens

>  <Target Description>
Target is a single protein chain

>  <Sequence Accession>
P08684

>  <Reference>
J Med Chem 61 (3), 946-979 (2018)

>  <Pubmed ID>
29350534

>  <DOI>
10.1021/acs.jmedchem.7b01420

$$$$
2224831
Actelion Java MolfileCreator 1.0

 31 35  0  0  0  0  0  0  0  0999 V2000
    0.0000   -0.0000   -0.0000 N   0  0  0  0  0  0  0  0  0  0  0  0
    1.2912    0.7651   -0.0000 C   0  0  0  0  0  0  0  0  0  0  0  0
   -1.3151    0.7651   -0.0000 C   0  0  0  0  0  0  0  0  0  0  0  0
    1.2792    2.2954   -0.0000 C   0  0  0  0  0  0  0  0  0  0  0  0
    2.5824    0.0239   -0.0000 C   0  0  0  0  0  0  0  0  0  0  0  0
   -1.3270    2.2835   -0.0000 C   0  0  0  0  0  0  0  0  0  0  0  0
   -0.0359    3.0486   -0.0000 C   0  0  0  0  0  0  0  0  0  0  0  0
    2.5704    3.0725   -0.0000 C   0  0  0  0  0  0  0  0  0  0  0  0
    2.5704   -1.4705   -0.0000 N   0  0  0  0  0  0  0  0  0  0  0  0
    3.8855    0.7891   -0.0000 C   0  0  0  0  0  0  0  0  0  0  0  0
    3.8735    2.3193   -0.0000 C   0  0  0  0  0  0  0  0  0  0  0  0
    3.8616   -2.2117   -0.0000 C   0  0  0  0  0  0  0  0  0  0  0  0
    1.2553   -2.2117   -0.0000 C   0  0  0  0  0  0  0  0  0  0  0  0
    5.1528   -1.4466   -0.0000 C   0  0  0  0  0  0  0  0  0  0  0  0
    1.2434   -3.7062   -0.0000 C   0  0  0  0  0  0  0  0  0  0  0  0
    6.4320   -2.1998   -0.0000 C   0  0  0  0  0  0  0  0  0  0  0  0
    5.1408    0.0598   -0.0000 C   0  0  0  0  0  0  0  0  0  0  0  0
   -0.0717   -4.4354   -0.0000 N   0  0  0  0  0  0  0  0  0  0  0  0
    2.5345   -4.4474   -0.0000 C   0  0  0  0  0  0  0  0  0  0  0  0
    7.7232   -1.4466   -0.0000 C   0  0  0  0  0  0  0  0  0  0  0  0
    6.4081   -3.6942   -0.0000 C   0  0  0  0  0  0  0  0  0  0  0  0
    6.4320    0.8249   -0.0000 C   0  0  0  0  0  0  0  0  0  0  0  0
   -0.0956   -5.9179   -0.0000 C   0  0  0  0  0  0  0  0  0  0  0  0
    2.5106   -5.9418   -0.0000 C   0  0  0  0  0  0  0  0  0  0  0  0
    7.7112    0.0717   -0.0000 C   0  0  0  0  0  0  0  0  0  0  0  0
    5.0930   -4.4235   -0.0000 N   0  0  0  0  0  0  0  0  0  0  0  0
    1.1955   -6.6711   -0.0000 C   0  0  0  0  0  0  0  0  0  0  0  0
    3.7898   -6.6830   -0.0000 C   0  0  0  0  0  0  0  0  0  0  0  0
    1.1836   -8.1536   -0.0000 C   0  0  0  0  0  0  0  0  0  0  0  0
    3.7779   -8.1655   -0.0000 C   0  0  0  0  0  0  0  0  0  0  0  0
    2.4628   -8.8948   -0.0000 C   0  0  0  0  0  0  0  0  0  0  0  0
  1  2  2  0  0  0  0
  1  3  1  0  0  0  0
  2  4  1  0  0  0  0
  2  5  1  0  0  0  0
  3  6  2  0  0  0  0
  4  7  2  0  0  0  0
  4  8  1  0  0  0  0
  5  9  1  6  0  0  0
  5 10  1  0  0  0  0
  8 11  1  0  0  0  0
  9 12  1  0  0  0  0
  9 13  1  0  0  0  0
 12 14  1  0  0  0  0
 15 13  1  1  0  0  0
 14 16  2  0  0  0  0
 14 17  1  0  0  0  0
 15 18  1  0  0  0  0
 15 19  1  0  0  0  0
 16 20  1  0  0  0  0
 16 21  1  0  0  0  0
 17 22  2  0  0  0  0
 18 23  1  0  0  0  0
 19 24  1  0  0  0  0
 20 25  2  0  0  0  0
 21 26  1  0  0  0  0
 23 27  1  0  0  0  0
 24 28  1  0  0  0  0
 27 29  1  0  0  0  0
 28 30  2  0  0  0  0
 29 31  2  0  0  0  0
  6  7  1  0  0  0  0
 10 11  1  0  0  0  0
 22 25  1  0  0  0  0
 24 27  2  0  0  0  0
 30 31  1  0  0  0  0
M  END
>  <MolRegNo>
2224831

>  <m>
=

>  <Value>
15200

>  <Unit>
nM

>  <Type>
IC50

>  <pValue>
4.82

>  <Ligand Efficiency>
0

>  <Binding Efficiency>
0

>  <Surface Efficiency>
0

>  <Assay Index>
1125341

>  <Assay Category>


>  <Assay Organism>
Homo sapiens

>  <Target ID>
17045

>  <Target Name>
Cytochrome P450 3A4

>  <Target Organism>
Homo sapiens

>  <Target Description>
Target is a single protein chain

>  <Sequence Accession>
P08684

>  <Reference>
J Med Chem 61 (3), 946-979 (2018)

>  <Pubmed ID>
29350534

>  <DOI>
10.1021/acs.jmedchem.7b01420

$$$$
2215605
Actelion Java MolfileCreator 1.0

 31 35  0  0  0  0  0  0  0  0999 V2000
    0.0000   -0.0000   -0.0000 N   0  0  0  0  0  0  0  0  0  0  0  0
    1.2916    0.7654   -0.0000 C   0  0  0  0  0  0  0  0  0  0  0  0
   -1.3155    0.7654   -0.0000 C   0  0  0  0  0  0  0  0  0  0  0  0
    1.2796    2.2961   -0.0000 C   0  0  0  0  0  0  0  0  0  0  0  0
    2.5831    0.0239   -0.0000 C   0  0  0  0  0  0  0  0  0  0  0  0
   -1.3274    2.2841   -0.0000 C   0  0  0  0  0  0  0  0  0  0  0  0
   -0.0359    3.0495   -0.0000 C   0  0  0  0  0  0  0  0  0  0  0  0
    2.5711    3.0734   -0.0000 C   0  0  0  0  0  0  0  0  0  0  0  0
    2.5711   -1.4709   -0.0000 N   0  0  0  0  0  0  0  0  0  0  0  0
    3.8866    0.7893   -0.0000 C   0  0  0  0  0  0  0  0  0  0  0  0
    3.8747    2.3200   -0.0000 C   0  0  0  0  0  0  0  0  0  0  0  0
    3.8627   -2.2124   -0.0000 C   0  0  0  0  0  0  0  0  0  0  0  0
    1.2557   -2.2124   -0.0000 C   0  0  0  0  0  0  0  0  0  0  0  0
    5.1542   -1.4470   -0.0000 C   0  0  0  0  0  0  0  0  0  0  0  0
    1.2437   -3.7072   -0.0000 C   0  0  0  0  0  0  0  0  0  0  0  0
    6.4338   -2.2004   -0.0000 C   0  0  0  0  0  0  0  0  0  0  0  0
    5.1423    0.0598   -0.0000 C   0  0  0  0  0  0  0  0  0  0  0  0
   -0.0718   -4.4367   -0.0000 N   0  0  0  0  0  0  0  0  0  0  0  0
    2.5353   -4.4487   -0.0000 C   0  0  0  0  0  0  0  0  0  0  0  0
    7.7254   -1.4470   -0.0000 C   0  0  0  0  0  0  0  0  0  0  0  0
    6.4338    0.8252   -0.0000 C   0  0  0  0  0  0  0  0  0  0  0  0
   -0.0957   -5.9196   -0.0000 C   0  0  0  0  0  0  0  0  0  0  0  0
    2.5113   -5.9435   -0.0000 C   0  0  0  0  0  0  0  0  0  0  0  0
    7.7134    0.0718   -0.0000 C   0  0  0  0  0  0  0  0  0  0  0  0
    9.0169   -2.1885   -0.0000 C   0  0  0  0  0  0  0  0  0  0  0  0
    1.1959   -6.6730   -0.0000 C   0  0  0  0  0  0  0  0  0  0  0  0
    3.7909   -6.6850   -0.0000 C   0  0  0  0  0  0  0  0  0  0  0  0
    9.0050   -3.6833   -0.0000 N   0  0  0  0  0  0  0  0  0  0  0  0
    1.1839   -8.1559   -0.0000 C   0  0  0  0  0  0  0  0  0  0  0  0
    3.7790   -8.1679   -0.0000 C   0  0  0  0  0  0  0  0  0  0  0  0
    2.4635   -8.8973   -0.0000 C   0  0  0  0  0  0  0  0  0  0  0  0
  1  2  2  0  0  0  0
  1  3  1  0  0  0  0
  2  4  1  0  0  0  0
  2  5  1  0  0  0  0
  3  6  2  0  0  0  0
  4  7  2  0  0  0  0
  4  8  1  0  0  0  0
  5  9  1  6  0  0  0
  5 10  1  0  0  0  0
  8 11  1  0  0  0  0
  9 12  1  0  0  0  0
  9 13  1  0  0  0  0
 12 14  1  0  0  0  0
 15 13  1  1  0  0  0
 14 16  2  0  0  0  0
 14 17  1  0  0  0  0
 15 18  1  0  0  0  0
 15 19  1  0  0  0  0
 16 20  1  0  0  0  0
 17 21  2  0  0  0  0
 18 22  1  0  0  0  0
 19 23  1  0  0  0  0
 20 24  2  0  0  0  0
 20 25  1  0  0  0  0
 22 26  1  0  0  0  0
 23 27  1  0  0  0  0
 25 28  1  0  0  0  0
 26 29  1  0  0  0  0
 27 30  2  0  0  0  0
 29 31  2  0  0  0  0
  6  7  1  0  0  0  0
 10 11  1  0  0  0  0
 21 24  1  0  0  0  0
 23 26  2  0  0  0  0
 30 31  1  0  0  0  0
M  END
>  <MolRegNo>
2215605

>  <m>
=

>  <Value>
4630

>  <Unit>
nM

>  <Type>
IC50

>  <pValue>
5.33

>  <Ligand Efficiency>
0

>  <Binding Efficiency>
0

>  <Surface Efficiency>
0

>  <Assay Index>
1125341

>  <Assay Category>


>  <Assay Organism>
Homo sapiens

>  <Target ID>
17045

>  <Target Name>
Cytochrome P450 3A4

>  <Target Organism>
Homo sapiens

>  <Target Description>
Target is a single protein chain

>  <Sequence Accession>
P08684

>  <Reference>
J Med Chem 61 (3), 946-979 (2018)

>  <Pubmed ID>
29350534

>  <DOI>
10.1021/acs.jmedchem.7b01420

$$$$
2218171
Actelion Java MolfileCreator 1.0

 31 35  0  0  0  0  0  0  0  0999 V2000
    0.0000   -0.0000   -0.0000 N   0  0  0  0  0  0  0  0  0  0  0  0
    1.2911    0.7651   -0.0000 C   0  0  0  0  0  0  0  0  0  0  0  0
   -1.3150    0.7651   -0.0000 C   0  0  0  0  0  0  0  0  0  0  0  0
    1.2792    2.2953   -0.0000 C   0  0  0  0  0  0  0  0  0  0  0  0
    2.5823    0.0239   -0.0000 C   0  0  0  0  0  0  0  0  0  0  0  0
   -1.3270    2.2834   -0.0000 C   0  0  0  0  0  0  0  0  0  0  0  0
   -0.0359    3.0485   -0.0000 C   0  0  0  0  0  0  0  0  0  0  0  0
    2.5703    3.0724   -0.0000 C   0  0  0  0  0  0  0  0  0  0  0  0
    2.5703   -1.4705   -0.0000 N   0  0  0  0  0  0  0  0  0  0  0  0
    3.8854    0.7890   -0.0000 C   0  0  0  0  0  0  0  0  0  0  0  0
    3.8734    2.3193   -0.0000 C   0  0  0  0  0  0  0  0  0  0  0  0
    3.8614   -2.2117   -0.0000 C   0  0  0  0  0  0  0  0  0  0  0  0
    1.2553   -2.2117   -0.0000 C   0  0  0  0  0  0  0  0  0  0  0  0
    5.1526   -1.4465   -0.0000 C   0  0  0  0  0  0  0  0  0  0  0  0
    1.2433   -3.7060   -0.0000 C   0  0  0  0  0  0  0  0  0  0  0  0
    6.4317   -2.1997   -0.0000 C   0  0  0  0  0  0  0  0  0  0  0  0
    5.1406    0.0598   -0.0000 C   0  0  0  0  0  0  0  0  0  0  0  0
   -0.0717   -4.4353   -0.0000 N   0  0  0  0  0  0  0  0  0  0  0  0
    2.5344   -4.4472   -0.0000 C   0  0  0  0  0  0  0  0  0  0  0  0
    7.7229   -1.4465   -0.0000 C   0  0  0  0  0  0  0  0  0  0  0  0
    6.4317    0.8249   -0.0000 C   0  0  0  0  0  0  0  0  0  0  0  0
   -0.0956   -5.9177   -0.0000 C   0  0  0  0  0  0  0  0  0  0  0  0
    2.5105   -5.9416   -0.0000 C   0  0  0  0  0  0  0  0  0  0  0  0
    7.7109    0.0717   -0.0000 C   0  0  0  0  0  0  0  0  0  0  0  0
    1.1955   -6.6708   -0.0000 C   0  0  0  0  0  0  0  0  0  0  0  0
    3.7897   -6.6828   -0.0000 C   0  0  0  0  0  0  0  0  0  0  0  0
    9.0021    0.8368   -0.0000 C   0  0  0  0  0  0  0  0  0  0  0  0
    1.1716   -8.1533   -0.0000 C   0  0  0  0  0  0  0  0  0  0  0  0
    3.7778   -8.1652   -0.0000 C   0  0  0  0  0  0  0  0  0  0  0  0
   10.2932    0.0956   -0.0000 N   0  0  0  0  0  0  0  0  0  0  0  0
    2.4508   -8.8945   -0.0000 C   0  0  0  0  0  0  0  0  0  0  0  0
  1  2  2  0  0  0  0
  1  3  1  0  0  0  0
  2  4  1  0  0  0  0
  2  5  1  0  0  0  0
  3  6  2  0  0  0  0
  4  7  2  0  0  0  0
  4  8  1  0  0  0  0
  5  9  1  6  0  0  0
  5 10  1  0  0  0  0
  8 11  1  0  0  0  0
  9 12  1  0  0  0  0
  9 13  1  0  0  0  0
 12 14  1  0  0  0  0
 15 13  1  1  0  0  0
 14 16  2  0  0  0  0
 14 17  1  0  0  0  0
 15 18  1  0  0  0  0
 15 19  1  0  0  0  0
 16 20  1  0  0  0  0
 17 21  2  0  0  0  0
 18 22  1  0  0  0  0
 19 23  1  0  0  0  0
 20 24  2  0  0  0  0
 22 25  1  0  0  0  0
 23 26  1  0  0  0  0
 24 27  1  0  0  0  0
 25 28  1  0  0  0  0
 26 29  2  0  0  0  0
 27 30  1  0  0  0  0
 28 31  2  0  0  0  0
  6  7  1  0  0  0  0
 10 11  1  0  0  0  0
 21 24  1  0  0  0  0
 23 25  2  0  0  0  0
 29 31  1  0  0  0  0
M  END
>  <MolRegNo>
2218171

>  <m>
=

>  <Value>
7440

>  <Unit>
nM

>  <Type>
IC50

>  <pValue>
5.13

>  <Ligand Efficiency>
0

>  <Binding Efficiency>
0

>  <Surface Efficiency>
0

>  <Assay Index>
1125341

>  <Assay Category>


>  <Assay Organism>
Homo sapiens

>  <Target ID>
17045

>  <Target Name>
Cytochrome P450 3A4

>  <Target Organism>
Homo sapiens

>  <Target Description>
Target is a single protein chain

>  <Sequence Accession>
P08684

>  <Reference>
J Med Chem 61 (3), 946-979 (2018)

>  <Pubmed ID>
29350534

>  <DOI>
10.1021/acs.jmedchem.7b01420

$$$$
2236216
Actelion Java MolfileCreator 1.0

 27 30  0  0  0  0  0  0  0  0999 V2000
    0.0000   -0.0000   -0.0000 N   0  0  0  0  0  0  0  0  0  0  0  0
    1.2913    0.7652   -0.0000 C   0  0  0  0  0  0  0  0  0  0  0  0
   -1.3152    0.7652   -0.0000 C   0  0  0  0  0  0  0  0  0  0  0  0
    1.2794    2.2957   -0.0000 C   0  0  0  0  0  0  0  0  0  0  0  0
    2.5827    0.0239   -0.0000 C   0  0  0  0  0  0  0  0  0  0  0  0
   -1.3272    2.2837   -0.0000 C   0  0  0  0  0  0  0  0  0  0  0  0
   -0.0359    3.0490   -0.0000 C   0  0  0  0  0  0  0  0  0  0  0  0
    2.5707    3.0729   -0.0000 C   0  0  0  0  0  0  0  0  0  0  0  0
    2.5707   -1.4707   -0.0000 N   0  0  0  0  0  0  0  0  0  0  0  0
    3.8859    0.7891   -0.0000 C   0  0  0  0  0  0  0  0  0  0  0  0
    3.8740    2.3196   -0.0000 C   0  0  0  0  0  0  0  0  0  0  0  0
    3.8620   -2.2120   -0.0000 C   0  0  0  0  0  0  0  0  0  0  0  0
    1.2555   -2.2120   -0.0000 C   0  0  0  0  0  0  0  0  0  0  0  0
    5.1533   -1.4468   -0.0000 C   0  0  0  0  0  0  0  0  0  0  0  0
    1.2435   -3.7066   -0.0000 C   0  0  0  0  0  0  0  0  0  0  0  0
    6.4447   -2.1881   -0.0000 C   0  0  0  0  0  0  0  0  0  0  0  0
   -0.0717   -4.4359   -0.0000 N   0  0  0  0  0  0  0  0  0  0  0  0
    2.5348   -4.4479   -0.0000 C   0  0  0  0  0  0  0  0  0  0  0  0
    6.4327   -3.6827   -0.0000 C   0  0  0  0  0  0  0  0  0  0  0  0
   -0.0957   -5.9186   -0.0000 C   0  0  0  0  0  0  0  0  0  0  0  0
    2.5109   -5.9425   -0.0000 C   0  0  0  0  0  0  0  0  0  0  0  0
    7.7240   -4.4240   -0.0000 N   0  0  0  0  0  0  0  0  0  0  0  0
    1.1957   -6.6718   -0.0000 C   0  0  0  0  0  0  0  0  0  0  0  0
    3.7903   -6.6838   -0.0000 C   0  0  0  0  0  0  0  0  0  0  0  0
    1.1718   -8.1545   -0.0000 C   0  0  0  0  0  0  0  0  0  0  0  0
    3.7783   -8.1664   -0.0000 C   0  0  0  0  0  0  0  0  0  0  0  0
    2.4511   -8.8958   -0.0000 C   0  0  0  0  0  0  0  0  0  0  0  0
  1  2  2  0  0  0  0
  1  3  1  0  0  0  0
  2  4  1  0  0  0  0
  2  5  1  0  0  0  0
  3  6  2  0  0  0  0
  4  7  2  0  0  0  0
  4  8  1  0  0  0  0
  5  9  1  6  0  0  0
  5 10  1  0  0  0  0
  8 11  1  0  0  0  0
  9 12  1  0  0  0  0
  9 13  1  0  0  0  0
 12 14  1  0  0  0  0
 15 13  1  1  0  0  0
 14 16  2  0  0  0  0
 15 17  1  0  0  0  0
 15 18  1  0  0  0  0
 16 19  1  0  0  0  0
 17 20  1  0  0  0  0
 18 21  1  0  0  0  0
 19 22  1  0  0  0  0
 20 23  1  0  0  0  0
 21 24  1  0  0  0  0
 23 25  1  0  0  0  0
 24 26  2  0  0  0  0
 25 27  2  0  0  0  0
  6  7  1  0  0  0  0
 10 11  1  0  0  0  0
 21 23  2  0  0  0  0
 26 27  1  0  0  0  0
M  END
>  <MolRegNo>
2236216

>  <m>
=

>  <Value>
12700

>  <Unit>
nM

>  <Type>
IC50

>  <pValue>
4.9

>  <Ligand Efficiency>
0

>  <Binding Efficiency>
0

>  <Surface Efficiency>
0

>  <Assay Index>
1125341

>  <Assay Category>


>  <Assay Organism>
Homo sapiens

>  <Target ID>
17045

>  <Target Name>
Cytochrome P450 3A4

>  <Target Organism>
Homo sapiens

>  <Target Description>
Target is a single protein chain

>  <Sequence Accession>
P08684

>  <Reference>
J Med Chem 61 (3), 946-979 (2018)

>  <Pubmed ID>
29350534

>  <DOI>
10.1021/acs.jmedchem.7b01420

$$$$
2226058
Actelion Java MolfileCreator 1.0

 27 30  0  0  0  0  0  0  0  0999 V2000
    0.0000   -0.0000   -0.0000 N   0  0  0  0  0  0  0  0  0  0  0  0
    1.2911    0.7651   -0.0000 C   0  0  0  0  0  0  0  0  0  0  0  0
   -1.3151    0.7651   -0.0000 C   0  0  0  0  0  0  0  0  0  0  0  0
    1.2792    2.2954   -0.0000 C   0  0  0  0  0  0  0  0  0  0  0  0
    2.5823    0.0239   -0.0000 C   0  0  0  0  0  0  0  0  0  0  0  0
   -1.3270    2.2834   -0.0000 C   0  0  0  0  0  0  0  0  0  0  0  0
   -0.0359    3.0485   -0.0000 C   0  0  0  0  0  0  0  0  0  0  0  0
    2.5703    3.0724   -0.0000 C   0  0  0  0  0  0  0  0  0  0  0  0
    2.5703   -1.4705   -0.0000 N   0  0  0  0  0  0  0  0  0  0  0  0
    3.8854    0.7890   -0.0000 C   0  0  0  0  0  0  0  0  0  0  0  0
    3.8734    2.3193   -0.0000 C   0  0  0  0  0  0  0  0  0  0  0  0
    3.8615   -2.2117   -0.0000 C   0  0  0  0  0  0  0  0  0  0  0  0
    1.2553   -2.2117   -0.0000 C   0  0  0  0  0  0  0  0  0  0  0  0
    5.1526   -1.4466   -0.0000 C   0  0  0  0  0  0  0  0  0  0  0  0
    1.2433   -3.7061   -0.0000 C   0  0  0  0  0  0  0  0  0  0  0  0
    6.4438   -2.1878   -0.0000 C   0  0  0  0  0  0  0  0  0  0  0  0
   -0.0717   -4.4353   -0.0000 N   0  0  0  0  0  0  0  0  0  0  0  0
    2.5345   -4.4473   -0.0000 C   0  0  0  0  0  0  0  0  0  0  0  0
    7.7349   -1.4226   -0.0000 C   0  0  0  0  0  0  0  0  0  0  0  0
   -0.0956   -5.9177   -0.0000 C   0  0  0  0  0  0  0  0  0  0  0  0
    2.5106   -5.9416   -0.0000 C   0  0  0  0  0  0  0  0  0  0  0  0
    9.0260   -2.1639   -0.0000 N   0  0  0  0  0  0  0  0  0  0  0  0
    1.1955   -6.6709   -0.0000 C   0  0  0  0  0  0  0  0  0  0  0  0
    3.7897   -6.6829   -0.0000 C   0  0  0  0  0  0  0  0  0  0  0  0
    1.1716   -8.1533   -0.0000 C   0  0  0  0  0  0  0  0  0  0  0  0
    3.7778   -8.1653   -0.0000 C   0  0  0  0  0  0  0  0  0  0  0  0
    2.4508   -8.8945   -0.0000 C   0  0  0  0  0  0  0  0  0  0  0  0
  1  2  2  0  0  0  0
  1  3  1  0  0  0  0
  2  4  1  0  0  0  0
  2  5  1  0  0  0  0
  3  6  2  0  0  0  0
  4  7  2  0  0  0  0
  4  8  1  0  0  0  0
  5  9  1  6  0  0  0
  5 10  1  0  0  0  0
  8 11  1  0  0  0  0
  9 12  1  0  0  0  0
  9 13  1  0  0  0  0
 12 14  1  0  0  0  0
 15 13  1  1  0  0  0
 14 16  2  0  0  0  0
 15 17  1  0  0  0  0
 15 18  1  0  0  0  0
 16 19  1  0  0  0  0
 17 20  1  0  0  0  0
 18 21  1  0  0  0  0
 19 22  1  0  0  0  0
 20 23  1  0  0  0  0
 21 24  1  0  0  0  0
 23 25  1  0  0  0  0
 24 26  2  0  0  0  0
 25 27  2  0  0  0  0
  6  7  1  0  0  0  0
 10 11  1  0  0  0  0
 21 23  2  0  0  0  0
 26 27  1  0  0  0  0
M  END
>  <MolRegNo>
2226058

>  <m>
=

>  <Value>
9290

>  <Unit>
nM

>  <Type>
IC50

>  <pValue>
5.03

>  <Ligand Efficiency>
0

>  <Binding Efficiency>
0

>  <Surface Efficiency>
0

>  <Assay Index>
1125341

>  <Assay Category>


>  <Assay Organism>
Homo sapiens

>  <Target ID>
17045

>  <Target Name>
Cytochrome P450 3A4

>  <Target Organism>
Homo sapiens

>  <Target Description>
Target is a single protein chain

>  <Sequence Accession>
P08684

>  <Reference>
J Med Chem 61 (3), 946-979 (2018)

>  <Pubmed ID>
29350534

>  <DOI>
10.1021/acs.jmedchem.7b01420

$$$$
2243967
Actelion Java MolfileCreator 1.0

 29 32  0  0  0  0  0  0  0  0999 V2000
    0.0000   -0.0000   -0.0000 N   0  0  0  0  0  0  0  0  0  0  0  0
    1.2893    0.7640   -0.0000 C   0  0  0  0  0  0  0  0  0  0  0  0
   -1.3132    0.7640   -0.0000 C   0  0  0  0  0  0  0  0  0  0  0  0
    1.2774    2.2921   -0.0000 C   0  0  0  0  0  0  0  0  0  0  0  0
    2.5786    0.0239   -0.0000 C   0  0  0  0  0  0  0  0  0  0  0  0
   -1.3251    2.2802   -0.0000 C   0  0  0  0  0  0  0  0  0  0  0  0
   -0.0358    3.0442   -0.0000 C   0  0  0  0  0  0  0  0  0  0  0  0
    2.5667    3.0681   -0.0000 C   0  0  0  0  0  0  0  0  0  0  0  0
    2.5667   -1.4684   -0.0000 N   0  0  0  0  0  0  0  0  0  0  0  0
    3.8799    0.7879   -0.0000 C   0  0  0  0  0  0  0  0  0  0  0  0
    3.8680    2.3160   -0.0000 C   0  0  0  0  0  0  0  0  0  0  0  0
    3.8560   -2.2086   -0.0000 C   0  0  0  0  0  0  0  0  0  0  0  0
    1.2535   -2.2086   -0.0000 C   0  0  0  0  0  0  0  0  0  0  0  0
    5.1453   -1.4445   -0.0000 C   0  0  0  0  0  0  0  0  0  0  0  0
    1.2416   -3.7008   -0.0000 C   0  0  0  0  0  0  0  0  0  0  0  0
    6.4347   -2.1966   -0.0000 C   0  0  0  0  0  0  0  0  0  0  0  0
    4.3694   -0.1313   -0.0000 C   0  0  0  0  0  0  0  0  0  0  0  0
    5.8855   -0.1194   -0.0000 C   0  0  0  0  0  0  0  0  0  0  0  0
   -0.0716   -4.4291   -0.0000 N   0  0  0  0  0  0  0  0  0  0  0  0
    2.5309   -4.4410   -0.0000 C   0  0  0  0  0  0  0  0  0  0  0  0
    6.4227   -3.6889   -0.0000 C   0  0  0  0  0  0  0  0  0  0  0  0
   -0.0955   -5.9094   -0.0000 C   0  0  0  0  0  0  0  0  0  0  0  0
    2.5070   -5.9333   -0.0000 C   0  0  0  0  0  0  0  0  0  0  0  0
    5.1095   -4.4291   -0.0000 N   0  0  0  0  0  0  0  0  0  0  0  0
    1.1938   -6.6615   -0.0000 C   0  0  0  0  0  0  0  0  0  0  0  0
    3.7844   -6.6734   -0.0000 C   0  0  0  0  0  0  0  0  0  0  0  0
    1.1699   -8.1418   -0.0000 C   0  0  0  0  0  0  0  0  0  0  0  0
    3.7725   -8.1538   -0.0000 C   0  0  0  0  0  0  0  0  0  0  0  0
    2.4473   -8.8820   -0.0000 C   0  0  0  0  0  0  0  0  0  0  0  0
  1  2  2  0  0  0  0
  1  3  1  0  0  0  0
  2  4  1  0  0  0  0
  2  5  1  0  0  0  0
  3  6  2  0  0  0  0
  4  7  2  0  0  0  0
  4  8  1  0  0  0  0
  5  9  1  6  0  0  0
  5 10  1  0  0  0  0
  8 11  1  0  0  0  0
  9 12  1  0  0  0  0
  9 13  1  0  0  0  0
 12 14  1  0  0  0  0
 15 13  1  1  0  0  0
 14 16  1  0  0  0  0
 14 17  1  0  0  0  0
 14 18  1  0  0  0  0
 15 19  1  0  0  0  0
 15 20  1  0  0  0  0
 16 21  1  0  0  0  0
 19 22  1  0  0  0  0
 20 23  1  0  0  0  0
 21 24  1  0  0  0  0
 22 25  1  0  0  0  0
 23 26  1  0  0  0  0
 25 27  1  0  0  0  0
 26 28  2  0  0  0  0
 27 29  2  0  0  0  0
  6  7  1  0  0  0  0
 10 11  1  0  0  0  0
 23 25  2  0  0  0  0
 28 29  1  0  0  0  0
M  END
>  <MolRegNo>
2243967

>  <m>
=

>  <Value>
10800

>  <Unit>
nM

>  <Type>
IC50

>  <pValue>
4.97

>  <Ligand Efficiency>
0

>  <Binding Efficiency>
0

>  <Surface Efficiency>
0

>  <Assay Index>
1125341

>  <Assay Category>


>  <Assay Organism>
Homo sapiens

>  <Target ID>
17045

>  <Target Name>
Cytochrome P450 3A4

>  <Target Organism>
Homo sapiens

>  <Target Description>
Target is a single protein chain

>  <Sequence Accession>
P08684

>  <Reference>
J Med Chem 61 (3), 946-979 (2018)

>  <Pubmed ID>
29350534

>  <DOI>
10.1021/acs.jmedchem.7b01420

$$$$
2199533
Actelion Java MolfileCreator 1.0

 38 43  0  0  0  0  0  0  0  0999 V2000
    0.0000   -0.0000   -0.0000 O   0  0  0  0  0  0  0  0  0  0  0  0
   -1.3086   -0.7257   -0.0000 C   0  0  0  0  0  0  0  0  0  0  0  0
   -0.0119    1.5109   -0.0000 C   0  0  0  0  0  0  0  0  0  0  0  0
   -2.6054    0.0357   -0.0000 C   0  0  0  0  0  0  0  0  0  0  0  0
   -1.3205    2.2842   -0.0000 C   0  0  0  0  0  0  0  0  0  0  0  0
   -2.6054    1.5466   -0.0000 C   0  0  0  0  0  0  0  0  0  0  0  0
   -3.9140    2.3080   -0.0000 C   0  0  0  0  0  0  0  0  0  0  0  0
   -5.2227    1.5704   -0.0000 N   0  0  0  0  0  0  0  0  0  0  0  0
   -6.5313    2.3318   -0.0000 C   0  0  0  0  0  0  0  0  0  0  0  0
   -7.8399    1.5942   -0.0000 C   0  0  0  0  0  0  0  0  0  0  0  0
   -7.8518    0.1071   -0.0000 C   0  0  0  0  0  0  0  0  0  0  0  0
   -9.1605    2.3556   -0.0000 C   0  0  0  0  0  0  0  0  0  0  0  0
   -9.1605   -0.6186   -0.0000 C   0  0  0  0  0  0  0  0  0  0  0  0
  -10.4691    1.6180   -0.0000 C   0  0  0  0  0  0  0  0  0  0  0  0
  -10.4572    0.1547   -0.0000 C   0  0  0  0  0  0  0  0  0  0  0  0
  -11.7659   -0.5829   -0.0000 C   0  0  0  0  0  0  0  0  0  0  0  0
  -13.0745    0.1785   -0.0000 N   0  0  0  0  0  0  0  0  0  0  0  0
  -13.0864    1.6893   -0.0000 C   0  0  0  0  0  0  0  0  0  0  0  0
  -14.3831   -0.5591   -0.0000 C   0  0  0  0  0  0  0  0  0  0  0  0
  -14.3950    2.4507   -0.0000 C   0  0  0  0  0  0  0  0  0  0  0  0
  -11.7896    2.4507   -0.0000 C   0  0  0  0  0  0  0  0  0  0  0  0
  -14.3950   -2.0462   -0.0000 C   0  0  0  0  0  0  0  0  0  0  0  0
  -15.7037    1.7131   -0.0000 N   0  0  0  0  0  0  0  0  0  0  0  0
  -14.4069    3.9735   -0.0000 C   0  0  0  0  0  0  0  0  0  0  0  0
  -11.8015    3.9735   -0.0000 C   0  0  0  0  0  0  0  0  0  0  0  0
  -15.7037   -2.7719   -0.0000 N   0  0  0  0  0  0  0  0  0  0  0  0
  -13.1102   -2.7838   -0.0000 C   0  0  0  0  0  0  0  0  0  0  0  0
  -17.0123    2.4745   -0.0000 C   0  0  0  0  0  0  0  0  0  0  0  0
  -15.7156    4.7230   -0.0000 C   0  0  0  0  0  0  0  0  0  0  0  0
  -13.1221    4.7468   -0.0000 C   0  0  0  0  0  0  0  0  0  0  0  0
  -15.7275   -4.2471   -0.0000 C   0  0  0  0  0  0  0  0  0  0  0  0
  -13.1340   -4.2709   -0.0000 C   0  0  0  0  0  0  0  0  0  0  0  0
  -17.0242    3.9854   -0.0000 C   0  0  0  0  0  0  0  0  0  0  0  0
  -14.4426   -4.9966   -0.0000 C   0  0  0  0  0  0  0  0  0  0  0  0
  -11.8610   -5.0085   -0.0000 C   0  0  0  0  0  0  0  0  0  0  0  0
  -14.4545   -6.4718   -0.0000 C   0  0  0  0  0  0  0  0  0  0  0  0
  -11.8729   -6.4837   -0.0000 C   0  0  0  0  0  0  0  0  0  0  0  0
  -13.1816   -7.2094   -0.0000 C   0  0  0  0  0  0  0  0  0  0  0  0
  1  2  1  0  0  0  0
  1  3  1  0  0  0  0
  2  4  1  0  0  0  0
  3  5  1  0  0  0  0
  4  6  1  0  0  0  0
  6  7  1  0  0  0  0
  7  8  1  0  0  0  0
  8  9  1  0  0  0  0
  9 10  1  0  0  0  0
 10 11  2  0  0  0  0
 10 12  1  0  0  0  0
 11 13  1  0  0  0  0
 12 14  2  0  0  0  0
 13 15  2  0  0  0  0
 15 16  1  0  0  0  0
 16 17  1  0  0  0  0
 18 17  1  6  0  0  0
 17 19  1  0  0  0  0
 18 20  1  0  0  0  0
 18 21  1  0  0  0  0
 22 19  1  1  0  0  0
 20 23  2  0  0  0  0
 20 24  1  0  0  0  0
 21 25  1  0  0  0  0
 22 26  1  0  0  0  0
 22 27  1  0  0  0  0
 23 28  1  0  0  0  0
 24 29  2  0  0  0  0
 24 30  1  0  0  0  0
 26 31  1  0  0  0  0
 27 32  1  0  0  0  0
 28 33  2  0  0  0  0
 31 34  1  0  0  0  0
 32 35  1  0  0  0  0
 34 36  1  0  0  0  0
 35 37  2  0  0  0  0
 36 38  2  0  0  0  0
  5  6  1  0  0  0  0
 14 15  1  0  0  0  0
 25 30  1  0  0  0  0
 29 33  1  0  0  0  0
 32 34  2  0  0  0  0
 37 38  1  0  0  0  0
M  END
>  <MolRegNo>
2199533

>  <m>
=

>  <Value>
994

>  <Unit>
nM

>  <Type>
IC50

>  <pValue>
6

>  <Ligand Efficiency>
0

>  <Binding Efficiency>
0

>  <Surface Efficiency>
0

>  <Assay Index>
1125341

>  <Assay Category>


>  <Assay Organism>
Homo sapiens

>  <Target ID>
17045

>  <Target Name>
Cytochrome P450 3A4

>  <Target Organism>
Homo sapiens

>  <Target Description>
Target is a single protein chain

>  <Sequence Accession>
P08684

>  <Reference>
J Med Chem 61 (3), 946-979 (2018)

>  <Pubmed ID>
29350534

>  <DOI>
10.1021/acs.jmedchem.7b01420

$$$$
2228499
Actelion Java MolfileCreator 1.0

 39 44  0  0  0  0  0  0  0  0999 V2000
    0.0000   -0.0000   -0.0000 F   0  0  0  0  0  0  0  0  0  0  0  0
   -0.7496    1.3088   -0.0000 C   0  0  0  0  0  0  0  0  0  0  0  0
   -1.5111    0.0357   -0.0000 F   0  0  0  0  0  0  0  0  0  0  0  0
   -2.0584    2.0703   -0.0000 C   0  0  0  0  0  0  0  0  0  0  0  0
    0.5354    2.0584   -0.0000 C   0  0  0  0  0  0  0  0  0  0  0  0
   -2.0703    3.5695   -0.0000 C   0  0  0  0  0  0  0  0  0  0  0  0
    0.5354    3.5695   -0.0000 C   0  0  0  0  0  0  0  0  0  0  0  0
   -0.7853    4.3191   -0.0000 C   0  0  0  0  0  0  0  0  0  0  0  0
   -0.7972    5.8302   -0.0000 N   0  0  0  0  0  0  0  0  0  0  0  0
   -2.1060    6.5917   -0.0000 C   0  0  0  0  0  0  0  0  0  0  0  0
   -3.4149    5.8540   -0.0000 C   0  0  0  0  0  0  0  0  0  0  0  0
   -3.4268    4.3667   -0.0000 C   0  0  0  0  0  0  0  0  0  0  0  0
   -4.7356    6.6155   -0.0000 C   0  0  0  0  0  0  0  0  0  0  0  0
   -4.7356    3.6409   -0.0000 C   0  0  0  0  0  0  0  0  0  0  0  0
   -6.0444    5.8778   -0.0000 C   0  0  0  0  0  0  0  0  0  0  0  0
   -6.0325    4.4143   -0.0000 C   0  0  0  0  0  0  0  0  0  0  0  0
   -7.3413    3.6766   -0.0000 C   0  0  0  0  0  0  0  0  0  0  0  0
   -8.6502    4.4381   -0.0000 N   0  0  0  0  0  0  0  0  0  0  0  0
   -8.6621    5.9492   -0.0000 C   0  0  0  0  0  0  0  0  0  0  0  0
   -9.9590    3.7004   -0.0000 C   0  0  0  0  0  0  0  0  0  0  0  0
   -9.9709    6.7107   -0.0000 C   0  0  0  0  0  0  0  0  0  0  0  0
   -7.3651    6.7107   -0.0000 C   0  0  0  0  0  0  0  0  0  0  0  0
   -9.9709    2.2131   -0.0000 C   0  0  0  0  0  0  0  0  0  0  0  0
  -11.2797    5.9730   -0.0000 N   0  0  0  0  0  0  0  0  0  0  0  0
   -9.9828    8.2337   -0.0000 C   0  0  0  0  0  0  0  0  0  0  0  0
   -7.3770    8.2337   -0.0000 C   0  0  0  0  0  0  0  0  0  0  0  0
  -11.2797    1.4873   -0.0000 N   0  0  0  0  0  0  0  0  0  0  0  0
   -8.6859    1.4754   -0.0000 C   0  0  0  0  0  0  0  0  0  0  0  0
  -12.5886    6.7345   -0.0000 C   0  0  0  0  0  0  0  0  0  0  0  0
  -11.2916    8.9833   -0.0000 C   0  0  0  0  0  0  0  0  0  0  0  0
   -8.6978    9.0071   -0.0000 C   0  0  0  0  0  0  0  0  0  0  0  0
  -11.3035    0.0119   -0.0000 C   0  0  0  0  0  0  0  0  0  0  0  0
   -8.7097   -0.0119   -0.0000 C   0  0  0  0  0  0  0  0  0  0  0  0
  -12.6005    8.2456   -0.0000 C   0  0  0  0  0  0  0  0  0  0  0  0
  -10.0185   -0.7377   -0.0000 C   0  0  0  0  0  0  0  0  0  0  0  0
   -7.4365   -0.7496   -0.0000 C   0  0  0  0  0  0  0  0  0  0  0  0
  -10.0423   -2.2131   -0.0000 C   0  0  0  0  0  0  0  0  0  0  0  0
   -7.4484   -2.2250   -0.0000 C   0  0  0  0  0  0  0  0  0  0  0  0
   -8.7692   -2.9508   -0.0000 C   0  0  0  0  0  0  0  0  0  0  0  0
  1  2  1  0  0  0  0
  2  3  1  0  0  0  0
  2  4  1  0  0  0  0
  2  5  1  0  0  0  0
  4  6  1  0  0  0  0
  5  7  1  0  0  0  0
  6  8  1  0  0  0  0
  8  9  1  0  0  0  0
  9 10  1  0  0  0  0
 10 11  1  0  0  0  0
 11 12  2  0  0  0  0
 11 13  1  0  0  0  0
 12 14  1  0  0  0  0
 13 15  2  0  0  0  0
 14 16  2  0  0  0  0
 16 17  1  0  0  0  0
 17 18  1  0  0  0  0
 19 18  1  6  0  0  0
 18 20  1  0  0  0  0
 19 21  1  0  0  0  0
 19 22  1  0  0  0  0
 23 20  1  1  0  0  0
 21 24  2  0  0  0  0
 21 25  1  0  0  0  0
 22 26  1  0  0  0  0
 23 27  1  0  0  0  0
 23 28  1  0  0  0  0
 24 29  1  0  0  0  0
 25 30  2  0  0  0  0
 25 31  1  0  0  0  0
 27 32  1  0  0  0  0
 28 33  1  0  0  0  0
 29 34  2  0  0  0  0
 32 35  1  0  0  0  0
 33 36  1  0  0  0  0
 35 37  1  0  0  0  0
 36 38  2  0  0  0  0
 37 39  2  0  0  0  0
  7  8  1  0  0  0  0
 15 16  1  0  0  0  0
 26 31  1  0  0  0  0
 30 34  1  0  0  0  0
 33 35  2  0  0  0  0
 38 39  1  0  0  0  0
M  END
>  <MolRegNo>
2228499

>  <m>
=

>  <Value>
200

>  <Unit>
nM

>  <Type>
IC50

>  <pValue>
6.7

>  <Ligand Efficiency>
0

>  <Binding Efficiency>
0

>  <Surface Efficiency>
0

>  <Assay Index>
1125341

>  <Assay Category>


>  <Assay Organism>
Homo sapiens

>  <Target ID>
17045

>  <Target Name>
Cytochrome P450 3A4

>  <Target Organism>
Homo sapiens

>  <Target Description>
Target is a single protein chain

>  <Sequence Accession>
P08684

>  <Reference>
J Med Chem 61 (3), 946-979 (2018)

>  <Pubmed ID>
29350534

>  <DOI>
10.1021/acs.jmedchem.7b01420

$$$$
2229442
Actelion Java MolfileCreator 1.0

 37 42  0  0  0  0  0  0  0  0999 V2000
    0.0000   -0.0000   -0.0000 O   0  0  0  0  0  0  0  0  0  0  0  0
   -1.3087    0.7614   -0.0000 C   0  0  0  0  0  0  0  0  0  0  0  0
    1.2849    0.7495   -0.0000 C   0  0  0  0  0  0  0  0  0  0  0  0
   -1.3206    2.2604   -0.0000 C   0  0  0  0  0  0  0  0  0  0  0  0
    1.2849    2.2604   -0.0000 C   0  0  0  0  0  0  0  0  0  0  0  0
   -0.0357    3.0099   -0.0000 C   0  0  0  0  0  0  0  0  0  0  0  0
   -0.0476    4.5208   -0.0000 N   0  0  0  0  0  0  0  0  0  0  0  0
   -1.3562    5.2822   -0.0000 C   0  0  0  0  0  0  0  0  0  0  0  0
   -2.6649    4.5446   -0.0000 C   0  0  0  0  0  0  0  0  0  0  0  0
   -2.6768    3.0575   -0.0000 C   0  0  0  0  0  0  0  0  0  0  0  0
   -3.9855    5.3060   -0.0000 C   0  0  0  0  0  0  0  0  0  0  0  0
   -3.9855    2.3318   -0.0000 C   0  0  0  0  0  0  0  0  0  0  0  0
   -5.2941    4.5684   -0.0000 C   0  0  0  0  0  0  0  0  0  0  0  0
   -5.2822    3.1051   -0.0000 C   0  0  0  0  0  0  0  0  0  0  0  0
   -6.5909    2.3675   -0.0000 C   0  0  0  0  0  0  0  0  0  0  0  0
   -7.8995    3.1289   -0.0000 N   0  0  0  0  0  0  0  0  0  0  0  0
   -7.9114    4.6398   -0.0000 C   0  0  0  0  0  0  0  0  0  0  0  0
   -9.2082    2.3913   -0.0000 C   0  0  0  0  0  0  0  0  0  0  0  0
   -9.2201    5.4012   -0.0000 C   0  0  0  0  0  0  0  0  0  0  0  0
   -6.6147    5.4012   -0.0000 C   0  0  0  0  0  0  0  0  0  0  0  0
   -9.2201    0.9042   -0.0000 C   0  0  0  0  0  0  0  0  0  0  0  0
  -10.5288    4.6636   -0.0000 N   0  0  0  0  0  0  0  0  0  0  0  0
   -9.2320    6.9240   -0.0000 C   0  0  0  0  0  0  0  0  0  0  0  0
   -6.6266    6.9240   -0.0000 C   0  0  0  0  0  0  0  0  0  0  0  0
  -10.5288    0.1785   -0.0000 N   0  0  0  0  0  0  0  0  0  0  0  0
   -7.9352    0.1666   -0.0000 C   0  0  0  0  0  0  0  0  0  0  0  0
  -11.8374    5.4250   -0.0000 C   0  0  0  0  0  0  0  0  0  0  0  0
  -10.5407    7.6735   -0.0000 C   0  0  0  0  0  0  0  0  0  0  0  0
   -7.9471    7.6973   -0.0000 C   0  0  0  0  0  0  0  0  0  0  0  0
  -10.5525   -1.2968   -0.0000 C   0  0  0  0  0  0  0  0  0  0  0  0
   -7.9590   -1.3206   -0.0000 C   0  0  0  0  0  0  0  0  0  0  0  0
  -11.8493    6.9359   -0.0000 C   0  0  0  0  0  0  0  0  0  0  0  0
   -9.2677   -2.0463   -0.0000 C   0  0  0  0  0  0  0  0  0  0  0  0
   -6.6861   -2.0582   -0.0000 C   0  0  0  0  0  0  0  0  0  0  0  0
   -9.2915   -3.5215   -0.0000 C   0  0  0  0  0  0  0  0  0  0  0  0
   -6.6980   -3.5334   -0.0000 C   0  0  0  0  0  0  0  0  0  0  0  0
   -8.0185   -4.2591   -0.0000 C   0  0  0  0  0  0  0  0  0  0  0  0
  1  2  1  0  0  0  0
  1  3  1  0  0  0  0
  2  4  1  0  0  0  0
  3  5  1  0  0  0  0
  4  6  1  0  0  0  0
  6  7  1  0  0  0  0
  7  8  1  0  0  0  0
  8  9  1  0  0  0  0
  9 10  2  0  0  0  0
  9 11  1  0  0  0  0
 10 12  1  0  0  0  0
 11 13  2  0  0  0  0
 12 14  2  0  0  0  0
 14 15  1  0  0  0  0
 15 16  1  0  0  0  0
 17 16  1  6  0  0  0
 16 18  1  0  0  0  0
 17 19  1  0  0  0  0
 17 20  1  0  0  0  0
 21 18  1  1  0  0  0
 19 22  2  0  0  0  0
 19 23  1  0  0  0  0
 20 24  1  0  0  0  0
 21 25  1  0  0  0  0
 21 26  1  0  0  0  0
 22 27  1  0  0  0  0
 23 28  2  0  0  0  0
 23 29  1  0  0  0  0
 25 30  1  0  0  0  0
 26 31  1  0  0  0  0
 27 32  2  0  0  0  0
 30 33  1  0  0  0  0
 31 34  1  0  0  0  0
 33 35  1  0  0  0  0
 34 36  2  0  0  0  0
 35 37  2  0  0  0  0
  5  6  1  0  0  0  0
 13 14  1  0  0  0  0
 24 29  1  0  0  0  0
 28 32  1  0  0  0  0
 31 33  2  0  0  0  0
 36 37  1  0  0  0  0
M  END
>  <MolRegNo>
2229442

>  <m>
=

>  <Value>
442

>  <Unit>
nM

>  <Type>
IC50

>  <pValue>
6.36

>  <Ligand Efficiency>
0

>  <Binding Efficiency>
0

>  <Surface Efficiency>
0

>  <Assay Index>
1125341

>  <Assay Category>


>  <Assay Organism>
Homo sapiens

>  <Target ID>
17045

>  <Target Name>
Cytochrome P450 3A4

>  <Target Organism>
Homo sapiens

>  <Target Description>
Target is a single protein chain

>  <Sequence Accession>
P08684

>  <Reference>
J Med Chem 61 (3), 946-979 (2018)

>  <Pubmed ID>
29350534

>  <DOI>
10.1021/acs.jmedchem.7b01420

$$$$
2201292
Actelion Java MolfileCreator 1.0

 39 44  0  0  0  0  0  0  0  0999 V2000
    0.0000   -0.0000   -0.0000 N   0  0  0  0  0  0  0  0  0  0  0  0
    1.2928    0.7661   -0.0000 C   0  0  0  0  0  0  0  0  0  0  0  0
   -1.3168    0.7661   -0.0000 C   0  0  0  0  0  0  0  0  0  0  0  0
    1.2809    2.2984   -0.0000 C   0  0  0  0  0  0  0  0  0  0  0  0
    2.5857    0.0239   -0.0000 C   0  0  0  0  0  0  0  0  0  0  0  0
   -1.3287    2.2864   -0.0000 C   0  0  0  0  0  0  0  0  0  0  0  0
   -0.0359    3.0525   -0.0000 C   0  0  0  0  0  0  0  0  0  0  0  0
    2.5737    3.0764   -0.0000 C   0  0  0  0  0  0  0  0  0  0  0  0
    2.5737   -1.4724   -0.0000 N   0  0  0  0  0  0  0  0  0  0  0  0
    3.8905    0.7901   -0.0000 C   0  0  0  0  0  0  0  0  0  0  0  0
    3.8785    2.3223   -0.0000 C   0  0  0  0  0  0  0  0  0  0  0  0
    3.8665   -2.2146   -0.0000 C   0  0  0  0  0  0  0  0  0  0  0  0
    1.2569   -2.2146   -0.0000 C   0  0  0  0  0  0  0  0  0  0  0  0
    5.1593   -1.4484   -0.0000 C   0  0  0  0  0  0  0  0  0  0  0  0
    1.2449   -3.7109   -0.0000 C   0  0  0  0  0  0  0  0  0  0  0  0
    6.4402   -2.2026   -0.0000 C   0  0  0  0  0  0  0  0  0  0  0  0
    5.1474    0.0599   -0.0000 C   0  0  0  0  0  0  0  0  0  0  0  0
   -0.0718   -4.4411   -0.0000 N   0  0  0  0  0  0  0  0  0  0  0  0
    2.5378   -4.4531   -0.0000 C   0  0  0  0  0  0  0  0  0  0  0  0
    7.7330   -1.4484   -0.0000 C   0  0  0  0  0  0  0  0  0  0  0  0
    6.4402    0.8260   -0.0000 C   0  0  0  0  0  0  0  0  0  0  0  0
   -0.0958   -5.9255   -0.0000 C   0  0  0  0  0  0  0  0  0  0  0  0
    2.5138   -5.9494   -0.0000 C   0  0  0  0  0  0  0  0  0  0  0  0
    7.7210    0.0718   -0.0000 C   0  0  0  0  0  0  0  0  0  0  0  0
    1.1971   -6.6796   -0.0000 C   0  0  0  0  0  0  0  0  0  0  0  0
    3.7947   -6.6916   -0.0000 C   0  0  0  0  0  0  0  0  0  0  0  0
    9.0139    0.8379   -0.0000 C   0  0  0  0  0  0  0  0  0  0  0  0
    1.1731   -8.1640   -0.0000 C   0  0  0  0  0  0  0  0  0  0  0  0
    3.7827   -8.1759   -0.0000 C   0  0  0  0  0  0  0  0  0  0  0  0
   10.3067    0.0958   -0.0000 N   0  0  0  0  0  0  0  0  0  0  0  0
    2.4540   -8.9061   -0.0000 C   0  0  0  0  0  0  0  0  0  0  0  0
   10.2947   -1.4006   -0.0000 C   0  0  0  0  0  0  0  0  0  0  0  0
    8.9780   -2.1308   -0.0000 C   0  0  0  0  0  0  0  0  0  0  0  0
   11.5876   -2.1308   -0.0000 C   0  0  0  0  0  0  0  0  0  0  0  0
    8.9660   -3.6151   -0.0000 C   0  0  0  0  0  0  0  0  0  0  0  0
   11.5636   -3.6271   -0.0000 C   0  0  0  0  0  0  0  0  0  0  0  0
   10.2468   -4.3573   -0.0000 C   0  0  0  0  0  0  0  0  0  0  0  0
   10.9771   -5.6501   -0.0000 C   0  0  0  0  0  0  0  0  0  0  0  0
    9.4807   -5.6382   -0.0000 C   0  0  0  0  0  0  0  0  0  0  0  0
  1  2  2  0  0  0  0
  1  3  1  0  0  0  0
  2  4  1  0  0  0  0
  2  5  1  0  0  0  0
  3  6  2  0  0  0  0
  4  7  2  0  0  0  0
  4  8  1  0  0  0  0
  5  9  1  6  0  0  0
  5 10  1  0  0  0  0
  8 11  1  0  0  0  0
  9 12  1  0  0  0  0
  9 13  1  0  0  0  0
 12 14  1  0  0  0  0
 15 13  1  1  0  0  0
 14 16  2  0  0  0  0
 14 17  1  0  0  0  0
 15 18  1  0  0  0  0
 15 19  1  0  0  0  0
 16 20  1  0  0  0  0
 17 21  2  0  0  0  0
 18 22  1  0  0  0  0
 19 23  1  0  0  0  0
 20 24  2  0  0  0  0
 22 25  1  0  0  0  0
 23 26  1  0  0  0  0
 24 27  1  0  0  0  0
 25 28  1  0  0  0  0
 26 29  2  0  0  0  0
 27 30  1  0  0  0  0
 28 31  2  0  0  0  0
 30 32  1  0  0  0  0
 32 33  1  0  0  0  0
 32 34  1  0  0  0  0
 33 35  1  0  0  0  0
 34 36  1  0  0  0  0
 35 37  1  0  0  0  0
 37 38  1  0  0  0  0
 37 39  1  0  0  0  0
  6  7  1  0  0  0  0
 10 11  1  0  0  0  0
 21 24  1  0  0  0  0
 23 25  2  0  0  0  0
 29 31  1  0  0  0  0
 36 37  1  0  0  0  0
M  END
>  <MolRegNo>
2201292

>  <m>
=

>  <Value>
334

>  <Unit>
nM

>  <Type>
IC50

>  <pValue>
6.48

>  <Ligand Efficiency>
0

>  <Binding Efficiency>
0

>  <Surface Efficiency>
0

>  <Assay Index>
1125341

>  <Assay Category>


>  <Assay Organism>
Homo sapiens

>  <Target ID>
17045

>  <Target Name>
Cytochrome P450 3A4

>  <Target Organism>
Homo sapiens

>  <Target Description>
Target is a single protein chain

>  <Sequence Accession>
P08684

>  <Reference>
J Med Chem 61 (3), 946-979 (2018)

>  <Pubmed ID>
29350534

>  <DOI>
10.1021/acs.jmedchem.7b01420

$$$$
2212556
Actelion Java MolfileCreator 1.0

 38 43  0  0  0  0  0  0  0  0999 V2000
    0.0000   -0.0000   -0.0000 N   0  0  0  0  0  0  0  0  0  0  0  0
    1.2921    0.7657   -0.0000 C   0  0  0  0  0  0  0  0  0  0  0  0
   -1.3160    0.7657   -0.0000 C   0  0  0  0  0  0  0  0  0  0  0  0
    1.2801    2.2970   -0.0000 C   0  0  0  0  0  0  0  0  0  0  0  0
    2.5841    0.0239   -0.0000 C   0  0  0  0  0  0  0  0  0  0  0  0
   -1.3280    2.2850   -0.0000 C   0  0  0  0  0  0  0  0  0  0  0  0
   -0.0359    3.0507   -0.0000 C   0  0  0  0  0  0  0  0  0  0  0  0
    2.5722    3.0746   -0.0000 C   0  0  0  0  0  0  0  0  0  0  0  0
    2.5722   -1.4715   -0.0000 N   0  0  0  0  0  0  0  0  0  0  0  0
    3.8882    0.7896   -0.0000 C   0  0  0  0  0  0  0  0  0  0  0  0
    3.8762    2.3209   -0.0000 C   0  0  0  0  0  0  0  0  0  0  0  0
    3.8642   -2.2133   -0.0000 C   0  0  0  0  0  0  0  0  0  0  0  0
    1.2562   -2.2133   -0.0000 C   0  0  0  0  0  0  0  0  0  0  0  0
    5.1563   -1.4476   -0.0000 C   0  0  0  0  0  0  0  0  0  0  0  0
    1.2442   -3.7087   -0.0000 C   0  0  0  0  0  0  0  0  0  0  0  0
    6.4364   -2.2013   -0.0000 C   0  0  0  0  0  0  0  0  0  0  0  0
    5.1443    0.0598   -0.0000 C   0  0  0  0  0  0  0  0  0  0  0  0
   -0.0718   -4.4385   -0.0000 N   0  0  0  0  0  0  0  0  0  0  0  0
    2.5363   -4.4504   -0.0000 C   0  0  0  0  0  0  0  0  0  0  0  0
    7.7285   -1.4476   -0.0000 C   0  0  0  0  0  0  0  0  0  0  0  0
    6.4364    0.8255   -0.0000 C   0  0  0  0  0  0  0  0  0  0  0  0
   -0.0957   -5.9220   -0.0000 C   0  0  0  0  0  0  0  0  0  0  0  0
    2.5123   -5.9459   -0.0000 C   0  0  0  0  0  0  0  0  0  0  0  0
    7.7165    0.0718   -0.0000 C   0  0  0  0  0  0  0  0  0  0  0  0
    1.1964   -6.6757   -0.0000 C   0  0  0  0  0  0  0  0  0  0  0  0
    3.7924   -6.6876   -0.0000 C   0  0  0  0  0  0  0  0  0  0  0  0
    9.0086    0.8374   -0.0000 C   0  0  0  0  0  0  0  0  0  0  0  0
    1.1724   -8.1591   -0.0000 C   0  0  0  0  0  0  0  0  0  0  0  0
    3.7805   -8.1711   -0.0000 C   0  0  0  0  0  0  0  0  0  0  0  0
   10.3006    0.0957   -0.0000 N   0  0  0  0  0  0  0  0  0  0  0  0
    2.4525   -8.9009   -0.0000 C   0  0  0  0  0  0  0  0  0  0  0  0
   11.5927    0.8614   -0.0000 C   0  0  0  0  0  0  0  0  0  0  0  0
   12.8848    0.1196   -0.0000 C   0  0  0  0  0  0  0  0  0  0  0  0
   12.8608   -1.3758   -0.0000 N   0  0  0  0  0  0  0  0  0  0  0  0
   14.1649    0.8853   -0.0000 C   0  0  0  0  0  0  0  0  0  0  0  0
   14.1529   -2.1176   -0.0000 C   0  0  0  0  0  0  0  0  0  0  0  0
   15.4569    0.1555   -0.0000 C   0  0  0  0  0  0  0  0  0  0  0  0
   15.4450   -1.3519   -0.0000 C   0  0  0  0  0  0  0  0  0  0  0  0
  1  2  2  0  0  0  0
  1  3  1  0  0  0  0
  2  4  1  0  0  0  0
  2  5  1  0  0  0  0
  3  6  2  0  0  0  0
  4  7  2  0  0  0  0
  4  8  1  0  0  0  0
  5  9  1  6  0  0  0
  5 10  1  0  0  0  0
  8 11  1  0  0  0  0
  9 12  1  0  0  0  0
  9 13  1  0  0  0  0
 12 14  1  0  0  0  0
 15 13  1  1  0  0  0
 14 16  2  0  0  0  0
 14 17  1  0  0  0  0
 15 18  1  0  0  0  0
 15 19  1  0  0  0  0
 16 20  1  0  0  0  0
 17 21  2  0  0  0  0
 18 22  1  0  0  0  0
 19 23  1  0  0  0  0
 20 24  2  0  0  0  0
 22 25  1  0  0  0  0
 23 26  1  0  0  0  0
 24 27  1  0  0  0  0
 25 28  1  0  0  0  0
 26 29  2  0  0  0  0
 27 30  1  0  0  0  0
 28 31  2  0  0  0  0
 30 32  1  0  0  0  0
 32 33  1  0  0  0  0
 33 34  2  0  0  0  0
 33 35  1  0  0  0  0
 34 36  1  0  0  0  0
 35 37  2  0  0  0  0
 36 38  2  0  0  0  0
  6  7  1  0  0  0  0
 10 11  1  0  0  0  0
 21 24  1  0  0  0  0
 23 25  2  0  0  0  0
 29 31  1  0  0  0  0
 37 38  1  0  0  0  0
M  END
>  <MolRegNo>
2212556

>  <m>
=

>  <Value>
109

>  <Unit>
nM

>  <Type>
IC50

>  <pValue>
6.96

>  <Ligand Efficiency>
0

>  <Binding Efficiency>
0

>  <Surface Efficiency>
0

>  <Assay Index>
1125341

>  <Assay Category>


>  <Assay Organism>
Homo sapiens

>  <Target ID>
17045

>  <Target Name>
Cytochrome P450 3A4

>  <Target Organism>
Homo sapiens

>  <Target Description>
Target is a single protein chain

>  <Sequence Accession>
P08684

>  <Reference>
J Med Chem 61 (3), 946-979 (2018)

>  <Pubmed ID>
29350534

>  <DOI>
10.1021/acs.jmedchem.7b01420

$$$$
2239461
Actelion Java MolfileCreator 1.0

 38 43  0  0  0  0  0  0  0  0999 V2000
    0.0000   -0.0000   -0.0000 N   0  0  0  0  0  0  0  0  0  0  0  0
    1.2921    0.7657   -0.0000 C   0  0  0  0  0  0  0  0  0  0  0  0
   -1.3160    0.7657   -0.0000 C   0  0  0  0  0  0  0  0  0  0  0  0
    1.2801    2.2970   -0.0000 C   0  0  0  0  0  0  0  0  0  0  0  0
    2.5841    0.0239   -0.0000 C   0  0  0  0  0  0  0  0  0  0  0  0
   -1.3280    2.2850   -0.0000 C   0  0  0  0  0  0  0  0  0  0  0  0
   -0.0359    3.0507   -0.0000 C   0  0  0  0  0  0  0  0  0  0  0  0
    2.5722    3.0746   -0.0000 C   0  0  0  0  0  0  0  0  0  0  0  0
    2.5722   -1.4715   -0.0000 N   0  0  0  0  0  0  0  0  0  0  0  0
    3.8882    0.7896   -0.0000 C   0  0  0  0  0  0  0  0  0  0  0  0
    3.8762    2.3209   -0.0000 C   0  0  0  0  0  0  0  0  0  0  0  0
    3.8642   -2.2133   -0.0000 C   0  0  0  0  0  0  0  0  0  0  0  0
    1.2562   -2.2133   -0.0000 C   0  0  0  0  0  0  0  0  0  0  0  0
    5.1563   -1.4476   -0.0000 C   0  0  0  0  0  0  0  0  0  0  0  0
    1.2442   -3.7087   -0.0000 C   0  0  0  0  0  0  0  0  0  0  0  0
    6.4364   -2.2013   -0.0000 C   0  0  0  0  0  0  0  0  0  0  0  0
    5.1443    0.0598   -0.0000 C   0  0  0  0  0  0  0  0  0  0  0  0
   -0.0718   -4.4385   -0.0000 N   0  0  0  0  0  0  0  0  0  0  0  0
    2.5363   -4.4504   -0.0000 C   0  0  0  0  0  0  0  0  0  0  0  0
    7.7285   -1.4476   -0.0000 C   0  0  0  0  0  0  0  0  0  0  0  0
    6.4364    0.8255   -0.0000 C   0  0  0  0  0  0  0  0  0  0  0  0
   -0.0957   -5.9220   -0.0000 C   0  0  0  0  0  0  0  0  0  0  0  0
    2.5123   -5.9459   -0.0000 C   0  0  0  0  0  0  0  0  0  0  0  0
    7.7165    0.0718   -0.0000 C   0  0  0  0  0  0  0  0  0  0  0  0
    1.1964   -6.6757   -0.0000 C   0  0  0  0  0  0  0  0  0  0  0  0
    3.7924   -6.6876   -0.0000 C   0  0  0  0  0  0  0  0  0  0  0  0
    9.0086    0.8374   -0.0000 C   0  0  0  0  0  0  0  0  0  0  0  0
    1.1724   -8.1591   -0.0000 C   0  0  0  0  0  0  0  0  0  0  0  0
    3.7805   -8.1711   -0.0000 C   0  0  0  0  0  0  0  0  0  0  0  0
   10.3006    0.0957   -0.0000 N   0  0  0  0  0  0  0  0  0  0  0  0
    2.4525   -8.9009   -0.0000 C   0  0  0  0  0  0  0  0  0  0  0  0
   11.5927    0.8614   -0.0000 C   0  0  0  0  0  0  0  0  0  0  0  0
   12.8848    0.1196   -0.0000 C   0  0  0  0  0  0  0  0  0  0  0  0
   12.8608   -1.3758   -0.0000 C   0  0  0  0  0  0  0  0  0  0  0  0
   14.1649    0.8853   -0.0000 C   0  0  0  0  0  0  0  0  0  0  0  0
   14.1529   -2.1176   -0.0000 N   0  0  0  0  0  0  0  0  0  0  0  0
   15.4569    0.1555   -0.0000 C   0  0  0  0  0  0  0  0  0  0  0  0
   15.4450   -1.3519   -0.0000 C   0  0  0  0  0  0  0  0  0  0  0  0
  1  2  2  0  0  0  0
  1  3  1  0  0  0  0
  2  4  1  0  0  0  0
  2  5  1  0  0  0  0
  3  6  2  0  0  0  0
  4  7  2  0  0  0  0
  4  8  1  0  0  0  0
  5  9  1  6  0  0  0
  5 10  1  0  0  0  0
  8 11  1  0  0  0  0
  9 12  1  0  0  0  0
  9 13  1  0  0  0  0
 12 14  1  0  0  0  0
 15 13  1  1  0  0  0
 14 16  2  0  0  0  0
 14 17  1  0  0  0  0
 15 18  1  0  0  0  0
 15 19  1  0  0  0  0
 16 20  1  0  0  0  0
 17 21  2  0  0  0  0
 18 22  1  0  0  0  0
 19 23  1  0  0  0  0
 20 24  2  0  0  0  0
 22 25  1  0  0  0  0
 23 26  1  0  0  0  0
 24 27  1  0  0  0  0
 25 28  1  0  0  0  0
 26 29  2  0  0  0  0
 27 30  1  0  0  0  0
 28 31  2  0  0  0  0
 30 32  1  0  0  0  0
 32 33  1  0  0  0  0
 33 34  2  0  0  0  0
 33 35  1  0  0  0  0
 34 36  1  0  0  0  0
 35 37  2  0  0  0  0
 36 38  2  0  0  0  0
  6  7  1  0  0  0  0
 10 11  1  0  0  0  0
 21 24  1  0  0  0  0
 23 25  2  0  0  0  0
 29 31  1  0  0  0  0
 37 38  1  0  0  0  0
M  END
>  <MolRegNo>
2239461

>  <m>
=

>  <Value>
58

>  <Unit>
nM

>  <Type>
IC50

>  <pValue>
7.24

>  <Ligand Efficiency>
0

>  <Binding Efficiency>
0

>  <Surface Efficiency>
0

>  <Assay Index>
1125341

>  <Assay Category>


>  <Assay Organism>
Homo sapiens

>  <Target ID>
17045

>  <Target Name>
Cytochrome P450 3A4

>  <Target Organism>
Homo sapiens

>  <Target Description>
Target is a single protein chain

>  <Sequence Accession>
P08684

>  <Reference>
J Med Chem 61 (3), 946-979 (2018)

>  <Pubmed ID>
29350534

>  <DOI>
10.1021/acs.jmedchem.7b01420

$$$$
2223033
Actelion Java MolfileCreator 1.0

 38 43  0  0  0  0  0  0  0  0999 V2000
    0.0000   -0.0000   -0.0000 N   0  0  0  0  0  0  0  0  0  0  0  0
    1.2923    0.7658   -0.0000 C   0  0  0  0  0  0  0  0  0  0  0  0
   -1.3162    0.7658   -0.0000 C   0  0  0  0  0  0  0  0  0  0  0  0
    1.2803    2.2974   -0.0000 C   0  0  0  0  0  0  0  0  0  0  0  0
    2.5846    0.0239   -0.0000 C   0  0  0  0  0  0  0  0  0  0  0  0
   -1.3282    2.2854   -0.0000 C   0  0  0  0  0  0  0  0  0  0  0  0
   -0.0359    3.0512   -0.0000 C   0  0  0  0  0  0  0  0  0  0  0  0
    2.5726    3.0751   -0.0000 C   0  0  0  0  0  0  0  0  0  0  0  0
    2.5726   -1.4718   -0.0000 N   0  0  0  0  0  0  0  0  0  0  0  0
    3.8888    0.7897   -0.0000 C   0  0  0  0  0  0  0  0  0  0  0  0
    3.8768    2.3213   -0.0000 C   0  0  0  0  0  0  0  0  0  0  0  0
    3.8649   -2.2136   -0.0000 C   0  0  0  0  0  0  0  0  0  0  0  0
    1.2564   -2.2136   -0.0000 C   0  0  0  0  0  0  0  0  0  0  0  0
    5.1571   -1.4478   -0.0000 C   0  0  0  0  0  0  0  0  0  0  0  0
    1.2444   -3.7093   -0.0000 C   0  0  0  0  0  0  0  0  0  0  0  0
    6.4375   -2.2017   -0.0000 C   0  0  0  0  0  0  0  0  0  0  0  0
    5.1452    0.0598   -0.0000 C   0  0  0  0  0  0  0  0  0  0  0  0
   -0.0718   -4.4392   -0.0000 N   0  0  0  0  0  0  0  0  0  0  0  0
    2.5367   -4.4512   -0.0000 C   0  0  0  0  0  0  0  0  0  0  0  0
    7.7297   -1.4478   -0.0000 C   0  0  0  0  0  0  0  0  0  0  0  0
    6.4375    0.8256   -0.0000 C   0  0  0  0  0  0  0  0  0  0  0  0
   -0.0957   -5.9229   -0.0000 C   0  0  0  0  0  0  0  0  0  0  0  0
    2.5128   -5.9469   -0.0000 C   0  0  0  0  0  0  0  0  0  0  0  0
    7.7178    0.0718   -0.0000 C   0  0  0  0  0  0  0  0  0  0  0  0
    1.1966   -6.6768   -0.0000 C   0  0  0  0  0  0  0  0  0  0  0  0
    3.7931   -6.6887   -0.0000 C   0  0  0  0  0  0  0  0  0  0  0  0
    9.0100    0.8376   -0.0000 C   0  0  0  0  0  0  0  0  0  0  0  0
    1.1846   -8.1605   -0.0000 C   0  0  0  0  0  0  0  0  0  0  0  0
    3.7811   -8.1725   -0.0000 C   0  0  0  0  0  0  0  0  0  0  0  0
   10.3023    0.0957   -0.0000 N   0  0  0  0  0  0  0  0  0  0  0  0
    2.4649   -8.9024   -0.0000 C   0  0  0  0  0  0  0  0  0  0  0  0
   11.5946    0.8615   -0.0000 C   0  0  0  0  0  0  0  0  0  0  0  0
   12.8869    0.1197   -0.0000 C   0  0  0  0  0  0  0  0  0  0  0  0
   12.8629   -1.3760   -0.0000 C   0  0  0  0  0  0  0  0  0  0  0  0
   14.1672    0.8854   -0.0000 C   0  0  0  0  0  0  0  0  0  0  0  0
   14.1552   -2.1179   -0.0000 C   0  0  0  0  0  0  0  0  0  0  0  0
   15.4595    0.1556   -0.0000 C   0  0  0  0  0  0  0  0  0  0  0  0
   15.4475   -1.3521   -0.0000 N   0  0  0  0  0  0  0  0  0  0  0  0
  1  2  2  0  0  0  0
  1  3  1  0  0  0  0
  2  4  1  0  0  0  0
  2  5  1  0  0  0  0
  3  6  2  0  0  0  0
  4  7  2  0  0  0  0
  4  8  1  0  0  0  0
  5  9  1  6  0  0  0
  5 10  1  0  0  0  0
  8 11  1  0  0  0  0
  9 12  1  0  0  0  0
  9 13  1  0  0  0  0
 12 14  1  0  0  0  0
 15 13  1  1  0  0  0
 14 16  2  0  0  0  0
 14 17  1  0  0  0  0
 15 18  1  0  0  0  0
 15 19  1  0  0  0  0
 16 20  1  0  0  0  0
 17 21  2  0  0  0  0
 18 22  1  0  0  0  0
 19 23  1  0  0  0  0
 20 24  2  0  0  0  0
 22 25  1  0  0  0  0
 23 26  1  0  0  0  0
 24 27  1  0  0  0  0
 25 28  1  0  0  0  0
 26 29  2  0  0  0  0
 27 30  1  0  0  0  0
 28 31  2  0  0  0  0
 30 32  1  0  0  0  0
 32 33  1  0  0  0  0
 33 34  2  0  0  0  0
 33 35  1  0  0  0  0
 34 36  1  0  0  0  0
 35 37  2  0  0  0  0
 36 38  2  0  0  0  0
  6  7  1  0  0  0  0
 10 11  1  0  0  0  0
 21 24  1  0  0  0  0
 23 25  2  0  0  0  0
 29 31  1  0  0  0  0
 37 38  1  0  0  0  0
M  END
>  <MolRegNo>
2223033

>  <m>
=

>  <Value>
59

>  <Unit>
nM

>  <Type>
IC50

>  <pValue>
7.23

>  <Ligand Efficiency>
0

>  <Binding Efficiency>
0

>  <Surface Efficiency>
0

>  <Assay Index>
1125341

>  <Assay Category>


>  <Assay Organism>
Homo sapiens

>  <Target ID>
17045

>  <Target Name>
Cytochrome P450 3A4

>  <Target Organism>
Homo sapiens

>  <Target Description>
Target is a single protein chain

>  <Sequence Accession>
P08684

>  <Reference>
J Med Chem 61 (3), 946-979 (2018)

>  <Pubmed ID>
29350534

>  <DOI>
10.1021/acs.jmedchem.7b01420

$$$$
2234034
Actelion Java MolfileCreator 1.0

 35 39  0  0  0  0  0  0  0  0999 V2000
    0.0000   -0.0000   -0.0000 F   0  0  0  0  0  0  0  0  0  0  0  0
   -0.7496    1.3089   -0.0000 C   0  0  0  0  0  0  0  0  0  0  0  0
   -1.5111    0.0357   -0.0000 F   0  0  0  0  0  0  0  0  0  0  0  0
   -2.0466    2.0704   -0.0000 C   0  0  0  0  0  0  0  0  0  0  0  0
    0.5354    2.0585   -0.0000 C   0  0  0  0  0  0  0  0  0  0  0  0
   -2.0466    3.5696   -0.0000 C   0  0  0  0  0  0  0  0  0  0  0  0
    0.5354    3.5696   -0.0000 C   0  0  0  0  0  0  0  0  0  0  0  0
   -0.7496    4.3192   -0.0000 C   0  0  0  0  0  0  0  0  0  0  0  0
   -0.7615    5.8304   -0.0000 N   0  0  0  0  0  0  0  0  0  0  0  0
   -2.0704    6.5919   -0.0000 C   0  0  0  0  0  0  0  0  0  0  0  0
   -3.3792    5.8542   -0.0000 C   0  0  0  0  0  0  0  0  0  0  0  0
   -4.6881    6.6157   -0.0000 C   0  0  0  0  0  0  0  0  0  0  0  0
   -5.9969    5.8780   -0.0000 C   0  0  0  0  0  0  0  0  0  0  0  0
   -7.3058    6.6395   -0.0000 N   0  0  0  0  0  0  0  0  0  0  0  0
   -7.3177    8.1506   -0.0000 C   0  0  0  0  0  0  0  0  0  0  0  0
   -8.6147    5.9018   -0.0000 C   0  0  0  0  0  0  0  0  0  0  0  0
   -8.6266    8.9121   -0.0000 C   0  0  0  0  0  0  0  0  0  0  0  0
   -6.0207    8.9121   -0.0000 C   0  0  0  0  0  0  0  0  0  0  0  0
   -8.6266    4.4144   -0.0000 C   0  0  0  0  0  0  0  0  0  0  0  0
   -9.9354    8.1744   -0.0000 N   0  0  0  0  0  0  0  0  0  0  0  0
   -8.6385   10.4352   -0.0000 C   0  0  0  0  0  0  0  0  0  0  0  0
   -6.0326   10.4352   -0.0000 C   0  0  0  0  0  0  0  0  0  0  0  0
   -9.9354    3.6886   -0.0000 N   0  0  0  0  0  0  0  0  0  0  0  0
   -7.3415    3.6767   -0.0000 C   0  0  0  0  0  0  0  0  0  0  0  0
  -11.2443    8.9359   -0.0000 C   0  0  0  0  0  0  0  0  0  0  0  0
   -9.9473   11.1848   -0.0000 C   0  0  0  0  0  0  0  0  0  0  0  0
   -7.3534   11.2086   -0.0000 C   0  0  0  0  0  0  0  0  0  0  0  0
   -9.9592    2.2132   -0.0000 C   0  0  0  0  0  0  0  0  0  0  0  0
   -7.3653    2.1894   -0.0000 C   0  0  0  0  0  0  0  0  0  0  0  0
  -11.2562   10.4471   -0.0000 C   0  0  0  0  0  0  0  0  0  0  0  0
   -8.6741    1.4635   -0.0000 C   0  0  0  0  0  0  0  0  0  0  0  0
   -6.0921    1.4516   -0.0000 C   0  0  0  0  0  0  0  0  0  0  0  0
   -8.6979   -0.0119   -0.0000 C   0  0  0  0  0  0  0  0  0  0  0  0
   -6.1040   -0.0238   -0.0000 C   0  0  0  0  0  0  0  0  0  0  0  0
   -7.4248   -0.7496   -0.0000 C   0  0  0  0  0  0  0  0  0  0  0  0
  1  2  1  0  0  0  0
  2  3  1  0  0  0  0
  2  4  1  0  0  0  0
  2  5  1  0  0  0  0
  4  6  1  0  0  0  0
  5  7  1  0  0  0  0
  6  8  1  0  0  0  0
  8  9  1  0  0  0  0
  9 10  1  0  0  0  0
 10 11  1  0  0  0  0
 11 12  2  0  0  0  0
 12 13  1  0  0  0  0
 13 14  1  0  0  0  0
 15 14  1  6  0  0  0
 14 16  1  0  0  0  0
 15 17  1  0  0  0  0
 15 18  1  0  0  0  0
 19 16  1  1  0  0  0
 17 20  2  0  0  0  0
 17 21  1  0  0  0  0
 18 22  1  0  0  0  0
 19 23  1  0  0  0  0
 19 24  1  0  0  0  0
 20 25  1  0  0  0  0
 21 26  2  0  0  0  0
 21 27  1  0  0  0  0
 23 28  1  0  0  0  0
 24 29  1  0  0  0  0
 25 30  2  0  0  0  0
 28 31  1  0  0  0  0
 29 32  1  0  0  0  0
 31 33  1  0  0  0  0
 32 34  2  0  0  0  0
 33 35  2  0  0  0  0
  7  8  1  0  0  0  0
 22 27  1  0  0  0  0
 26 30  1  0  0  0  0
 29 31  2  0  0  0  0
 34 35  1  0  0  0  0
M  END
>  <MolRegNo>
2234034

>  <m>
=

>  <Value>
839

>  <Unit>
nM

>  <Type>
IC50

>  <pValue>
6.08

>  <Ligand Efficiency>
0

>  <Binding Efficiency>
0

>  <Surface Efficiency>
0

>  <Assay Index>
1125341

>  <Assay Category>


>  <Assay Organism>
Homo sapiens

>  <Target ID>
17045

>  <Target Name>
Cytochrome P450 3A4

>  <Target Organism>
Homo sapiens

>  <Target Description>
Target is a single protein chain

>  <Sequence Accession>
P08684

>  <Reference>
J Med Chem 61 (3), 946-979 (2018)

>  <Pubmed ID>
29350534

>  <DOI>
10.1021/acs.jmedchem.7b01420

$$$$
2215116
Actelion Java MolfileCreator 1.0

 33 37  0  0  0  0  0  0  0  0999 V2000
    0.0000   -0.0000   -0.0000 O   0  0  0  0  0  0  0  0  0  0  0  0
   -1.2965    0.7731   -0.0000 C   0  0  0  0  0  0  0  0  0  0  0  0
    1.2846    0.7493   -0.0000 C   0  0  0  0  0  0  0  0  0  0  0  0
   -1.2965    2.2718   -0.0000 C   0  0  0  0  0  0  0  0  0  0  0  0
    1.2846    2.2599   -0.0000 C   0  0  0  0  0  0  0  0  0  0  0  0
    0.0000    3.0212   -0.0000 C   0  0  0  0  0  0  0  0  0  0  0  0
   -0.0119    4.5318   -0.0000 N   0  0  0  0  0  0  0  0  0  0  0  0
   -1.3203    5.2930   -0.0000 C   0  0  0  0  0  0  0  0  0  0  0  0
   -2.6287    4.5555   -0.0000 C   0  0  0  0  0  0  0  0  0  0  0  0
   -3.9370    5.3168   -0.0000 C   0  0  0  0  0  0  0  0  0  0  0  0
   -5.2454    4.5793   -0.0000 C   0  0  0  0  0  0  0  0  0  0  0  0
   -6.5538    5.3406   -0.0000 N   0  0  0  0  0  0  0  0  0  0  0  0
   -6.5657    6.8512   -0.0000 C   0  0  0  0  0  0  0  0  0  0  0  0
   -7.8622    4.6031   -0.0000 C   0  0  0  0  0  0  0  0  0  0  0  0
   -7.8741    7.6124   -0.0000 C   0  0  0  0  0  0  0  0  0  0  0  0
   -5.2692    7.6124   -0.0000 C   0  0  0  0  0  0  0  0  0  0  0  0
   -7.8741    3.1163   -0.0000 C   0  0  0  0  0  0  0  0  0  0  0  0
   -9.1824    6.8749   -0.0000 N   0  0  0  0  0  0  0  0  0  0  0  0
   -7.8860    9.1349   -0.0000 C   0  0  0  0  0  0  0  0  0  0  0  0
   -5.2811    9.1349   -0.0000 C   0  0  0  0  0  0  0  0  0  0  0  0
   -9.1824    2.3908   -0.0000 N   0  0  0  0  0  0  0  0  0  0  0  0
   -6.5895    2.3789   -0.0000 C   0  0  0  0  0  0  0  0  0  0  0  0
  -10.4908    7.6362   -0.0000 C   0  0  0  0  0  0  0  0  0  0  0  0
   -9.1943    9.8842   -0.0000 C   0  0  0  0  0  0  0  0  0  0  0  0
   -6.6014    9.9080   -0.0000 C   0  0  0  0  0  0  0  0  0  0  0  0
   -9.2062    0.9159   -0.0000 C   0  0  0  0  0  0  0  0  0  0  0  0
   -6.6133    0.8921   -0.0000 C   0  0  0  0  0  0  0  0  0  0  0  0
  -10.5027    9.1468   -0.0000 C   0  0  0  0  0  0  0  0  0  0  0  0
   -7.9216    0.1665   -0.0000 C   0  0  0  0  0  0  0  0  0  0  0  0
   -5.3406    0.1546   -0.0000 C   0  0  0  0  0  0  0  0  0  0  0  0
   -7.9454   -1.3084   -0.0000 C   0  0  0  0  0  0  0  0  0  0  0  0
   -5.3525   -1.3203   -0.0000 C   0  0  0  0  0  0  0  0  0  0  0  0
   -6.6727   -2.0458   -0.0000 C   0  0  0  0  0  0  0  0  0  0  0  0
  1  2  1  0  0  0  0
  1  3  1  0  0  0  0
  2  4  1  0  0  0  0
  3  5  1  0  0  0  0
  4  6  1  0  0  0  0
  6  7  1  0  0  0  0
  7  8  1  0  0  0  0
  8  9  1  0  0  0  0
  9 10  2  0  0  0  0
 10 11  1  0  0  0  0
 11 12  1  0  0  0  0
 13 12  1  6  0  0  0
 12 14  1  0  0  0  0
 13 15  1  0  0  0  0
 13 16  1  0  0  0  0
 17 14  1  1  0  0  0
 15 18  2  0  0  0  0
 15 19  1  0  0  0  0
 16 20  1  0  0  0  0
 17 21  1  0  0  0  0
 17 22  1  0  0  0  0
 18 23  1  0  0  0  0
 19 24  2  0  0  0  0
 19 25  1  0  0  0  0
 21 26  1  0  0  0  0
 22 27  1  0  0  0  0
 23 28  2  0  0  0  0
 26 29  1  0  0  0  0
 27 30  1  0  0  0  0
 29 31  1  0  0  0  0
 30 32  2  0  0  0  0
 31 33  2  0  0  0  0
  5  6  1  0  0  0  0
 20 25  1  0  0  0  0
 24 28  1  0  0  0  0
 27 29  2  0  0  0  0
 32 33  1  0  0  0  0
M  END
>  <MolRegNo>
2215116

>  <m>
=

>  <Value>
7730

>  <Unit>
nM

>  <Type>
IC50

>  <pValue>
5.11

>  <Ligand Efficiency>
0

>  <Binding Efficiency>
0

>  <Surface Efficiency>
0

>  <Assay Index>
1125341

>  <Assay Category>


>  <Assay Organism>
Homo sapiens

>  <Target ID>
17045

>  <Target Name>
Cytochrome P450 3A4

>  <Target Organism>
Homo sapiens

>  <Target Description>
Target is a single protein chain

>  <Sequence Accession>
P08684

>  <Reference>
J Med Chem 61 (3), 946-979 (2018)

>  <Pubmed ID>
29350534

>  <DOI>
10.1021/acs.jmedchem.7b01420

$$$$
2238546
Actelion Java MolfileCreator 1.0

 35 39  0  0  0  0  0  0  0  0999 V2000
    0.0000   -0.0000   -0.0000 N   0  0  0  0  0  0  0  0  0  0  0  0
    1.2931    0.7663   -0.0000 C   0  0  0  0  0  0  0  0  0  0  0  0
   -1.3170    0.7663   -0.0000 C   0  0  0  0  0  0  0  0  0  0  0  0
    1.2811    2.2988   -0.0000 C   0  0  0  0  0  0  0  0  0  0  0  0
    2.5861    0.0239   -0.0000 C   0  0  0  0  0  0  0  0  0  0  0  0
   -1.3290    2.2868   -0.0000 C   0  0  0  0  0  0  0  0  0  0  0  0
   -0.0359    3.0530   -0.0000 C   0  0  0  0  0  0  0  0  0  0  0  0
    2.5741    3.0770   -0.0000 C   0  0  0  0  0  0  0  0  0  0  0  0
    2.5741   -1.4726   -0.0000 N   0  0  0  0  0  0  0  0  0  0  0  0
    3.8911    0.7902   -0.0000 C   0  0  0  0  0  0  0  0  0  0  0  0
    3.8792    2.3227   -0.0000 C   0  0  0  0  0  0  0  0  0  0  0  0
    3.8672   -2.2149   -0.0000 C   0  0  0  0  0  0  0  0  0  0  0  0
    1.2571   -2.2149   -0.0000 C   0  0  0  0  0  0  0  0  0  0  0  0
    5.1602   -1.4487   -0.0000 C   0  0  0  0  0  0  0  0  0  0  0  0
    1.2452   -3.7115   -0.0000 C   0  0  0  0  0  0  0  0  0  0  0  0
    6.4533   -2.1910   -0.0000 C   0  0  0  0  0  0  0  0  0  0  0  0
   -0.0718   -4.4419   -0.0000 N   0  0  0  0  0  0  0  0  0  0  0  0
    2.5382   -4.4538   -0.0000 C   0  0  0  0  0  0  0  0  0  0  0  0
    7.7463   -1.4248   -0.0000 C   0  0  0  0  0  0  0  0  0  0  0  0
   -0.0958   -5.9265   -0.0000 C   0  0  0  0  0  0  0  0  0  0  0  0
    2.5143   -5.9504   -0.0000 C   0  0  0  0  0  0  0  0  0  0  0  0
    9.0394   -2.1671   -0.0000 N   0  0  0  0  0  0  0  0  0  0  0  0
    1.1973   -6.6808   -0.0000 C   0  0  0  0  0  0  0  0  0  0  0  0
    3.7953   -6.6927   -0.0000 C   0  0  0  0  0  0  0  0  0  0  0  0
    9.0274   -3.6636   -0.0000 C   0  0  0  0  0  0  0  0  0  0  0  0
    1.1853   -8.1654   -0.0000 C   0  0  0  0  0  0  0  0  0  0  0  0
    3.7834   -8.1773   -0.0000 C   0  0  0  0  0  0  0  0  0  0  0  0
    7.6984   -4.3940   -0.0000 C   0  0  0  0  0  0  0  0  0  0  0  0
   10.3085   -4.3940   -0.0000 C   0  0  0  0  0  0  0  0  0  0  0  0
    2.4664   -8.9077   -0.0000 C   0  0  0  0  0  0  0  0  0  0  0  0
    7.6745   -5.8786   -0.0000 C   0  0  0  0  0  0  0  0  0  0  0  0
   10.2845   -5.8906   -0.0000 C   0  0  0  0  0  0  0  0  0  0  0  0
    8.9556   -6.6209   -0.0000 C   0  0  0  0  0  0  0  0  0  0  0  0
    9.6859   -7.9139   -0.0000 C   0  0  0  0  0  0  0  0  0  0  0  0
    8.1893   -7.9020   -0.0000 C   0  0  0  0  0  0  0  0  0  0  0  0
  1  2  2  0  0  0  0
  1  3  1  0  0  0  0
  2  4  1  0  0  0  0
  2  5  1  0  0  0  0
  3  6  2  0  0  0  0
  4  7  2  0  0  0  0
  4  8  1  0  0  0  0
  5  9  1  6  0  0  0
  5 10  1  0  0  0  0
  8 11  1  0  0  0  0
  9 12  1  0  0  0  0
  9 13  1  0  0  0  0
 12 14  1  0  0  0  0
 15 13  1  1  0  0  0
 14 16  2  0  0  0  0
 15 17  1  0  0  0  0
 15 18  1  0  0  0  0
 16 19  1  0  0  0  0
 17 20  1  0  0  0  0
 18 21  1  0  0  0  0
 19 22  1  0  0  0  0
 20 23  1  0  0  0  0
 21 24  1  0  0  0  0
 22 25  1  0  0  0  0
 23 26  1  0  0  0  0
 24 27  2  0  0  0  0
 25 28  1  0  0  0  0
 25 29  1  0  0  0  0
 26 30  2  0  0  0  0
 28 31  1  0  0  0  0
 29 32  1  0  0  0  0
 31 33  1  0  0  0  0
 33 34  1  0  0  0  0
 33 35  1  0  0  0  0
  6  7  1  0  0  0  0
 10 11  1  0  0  0  0
 21 23  2  0  0  0  0
 27 30  1  0  0  0  0
 32 33  1  0  0  0  0
M  END
>  <MolRegNo>
2238546

>  <m>
=

>  <Value>
990

>  <Unit>
nM

>  <Type>
IC50

>  <pValue>
6

>  <Ligand Efficiency>
0

>  <Binding Efficiency>
0

>  <Surface Efficiency>
0

>  <Assay Index>
1125341

>  <Assay Category>


>  <Assay Organism>
Homo sapiens

>  <Target ID>
17045

>  <Target Name>
Cytochrome P450 3A4

>  <Target Organism>
Homo sapiens

>  <Target Description>
Target is a single protein chain

>  <Sequence Accession>
P08684

>  <Reference>
J Med Chem 61 (3), 946-979 (2018)

>  <Pubmed ID>
29350534

>  <DOI>
10.1021/acs.jmedchem.7b01420

$$$$
2221869
Actelion Java MolfileCreator 1.0

 34 38  0  0  0  0  0  0  0  0999 V2000
    0.0000   -0.0000   -0.0000 N   0  0  0  0  0  0  0  0  0  0  0  0
    1.2926    0.7660   -0.0000 C   0  0  0  0  0  0  0  0  0  0  0  0
   -1.3165    0.7660   -0.0000 C   0  0  0  0  0  0  0  0  0  0  0  0
    1.2806    2.2979   -0.0000 C   0  0  0  0  0  0  0  0  0  0  0  0
    2.5851    0.0239   -0.0000 C   0  0  0  0  0  0  0  0  0  0  0  0
   -1.3285    2.2859   -0.0000 C   0  0  0  0  0  0  0  0  0  0  0  0
   -0.0359    3.0519   -0.0000 C   0  0  0  0  0  0  0  0  0  0  0  0
    2.5732    3.0758   -0.0000 C   0  0  0  0  0  0  0  0  0  0  0  0
    2.5732   -1.4721   -0.0000 N   0  0  0  0  0  0  0  0  0  0  0  0
    3.8897    0.7899   -0.0000 C   0  0  0  0  0  0  0  0  0  0  0  0
    3.8777    2.3218   -0.0000 C   0  0  0  0  0  0  0  0  0  0  0  0
    3.8658   -2.2141   -0.0000 C   0  0  0  0  0  0  0  0  0  0  0  0
    1.2567   -2.2141   -0.0000 C   0  0  0  0  0  0  0  0  0  0  0  0
    5.1583   -1.4482   -0.0000 C   0  0  0  0  0  0  0  0  0  0  0  0
    1.2447   -3.7102   -0.0000 C   0  0  0  0  0  0  0  0  0  0  0  0
    6.4509   -2.1902   -0.0000 C   0  0  0  0  0  0  0  0  0  0  0  0
   -0.0718   -4.4402   -0.0000 N   0  0  0  0  0  0  0  0  0  0  0  0
    2.5373   -4.4522   -0.0000 C   0  0  0  0  0  0  0  0  0  0  0  0
    7.7435   -1.4242   -0.0000 C   0  0  0  0  0  0  0  0  0  0  0  0
   -0.0957   -5.9243   -0.0000 C   0  0  0  0  0  0  0  0  0  0  0  0
    2.5133   -5.9482   -0.0000 C   0  0  0  0  0  0  0  0  0  0  0  0
    9.0360   -2.1663   -0.0000 N   0  0  0  0  0  0  0  0  0  0  0  0
    1.1968   -6.6783   -0.0000 C   0  0  0  0  0  0  0  0  0  0  0  0
    3.7939   -6.6903   -0.0000 C   0  0  0  0  0  0  0  0  0  0  0  0
   10.3286   -1.4003   -0.0000 C   0  0  0  0  0  0  0  0  0  0  0  0
    1.1849   -8.1624   -0.0000 C   0  0  0  0  0  0  0  0  0  0  0  0
    3.7820   -8.1743   -0.0000 C   0  0  0  0  0  0  0  0  0  0  0  0
   11.6212   -2.1423   -0.0000 C   0  0  0  0  0  0  0  0  0  0  0  0
    2.4655   -8.9044   -0.0000 C   0  0  0  0  0  0  0  0  0  0  0  0
   11.5973   -3.6384   -0.0000 N   0  0  0  0  0  0  0  0  0  0  0  0
   12.9018   -1.3764   -0.0000 C   0  0  0  0  0  0  0  0  0  0  0  0
   12.8898   -4.3804   -0.0000 C   0  0  0  0  0  0  0  0  0  0  0  0
   14.1944   -2.1184   -0.0000 C   0  0  0  0  0  0  0  0  0  0  0  0
   14.1824   -3.6144   -0.0000 C   0  0  0  0  0  0  0  0  0  0  0  0
  1  2  2  0  0  0  0
  1  3  1  0  0  0  0
  2  4  1  0  0  0  0
  2  5  1  0  0  0  0
  3  6  2  0  0  0  0
  4  7  2  0  0  0  0
  4  8  1  0  0  0  0
  5  9  1  6  0  0  0
  5 10  1  0  0  0  0
  8 11  1  0  0  0  0
  9 12  1  0  0  0  0
  9 13  1  0  0  0  0
 12 14  1  0  0  0  0
 15 13  1  1  0  0  0
 14 16  2  0  0  0  0
 15 17  1  0  0  0  0
 15 18  1  0  0  0  0
 16 19  1  0  0  0  0
 17 20  1  0  0  0  0
 18 21  1  0  0  0  0
 19 22  1  0  0  0  0
 20 23  1  0  0  0  0
 21 24  1  0  0  0  0
 22 25  1  0  0  0  0
 23 26  1  0  0  0  0
 24 27  2  0  0  0  0
 25 28  1  0  0  0  0
 26 29  2  0  0  0  0
 28 30  2  0  0  0  0
 28 31  1  0  0  0  0
 30 32  1  0  0  0  0
 31 33  2  0  0  0  0
 32 34  2  0  0  0  0
  6  7  1  0  0  0  0
 10 11  1  0  0  0  0
 21 23  2  0  0  0  0
 27 29  1  0  0  0  0
 33 34  1  0  0  0  0
M  END
>  <MolRegNo>
2221869

>  <m>
=

>  <Value>
1560

>  <Unit>
nM

>  <Type>
IC50

>  <pValue>
5.81

>  <Ligand Efficiency>
0

>  <Binding Efficiency>
0

>  <Surface Efficiency>
0

>  <Assay Index>
1125341

>  <Assay Category>


>  <Assay Organism>
Homo sapiens

>  <Target ID>
17045

>  <Target Name>
Cytochrome P450 3A4

>  <Target Organism>
Homo sapiens

>  <Target Description>
Target is a single protein chain

>  <Sequence Accession>
P08684

>  <Reference>
J Med Chem 61 (3), 946-979 (2018)

>  <Pubmed ID>
29350534

>  <DOI>
10.1021/acs.jmedchem.7b01420

$$$$
2206370
Actelion Java MolfileCreator 1.0

 34 38  0  0  0  0  0  0  0  0999 V2000
    0.0000   -0.0000   -0.0000 N   0  0  0  0  0  0  0  0  0  0  0  0
    1.2923    0.7658   -0.0000 C   0  0  0  0  0  0  0  0  0  0  0  0
   -1.3163    0.7658   -0.0000 C   0  0  0  0  0  0  0  0  0  0  0  0
    1.2804    2.2975   -0.0000 C   0  0  0  0  0  0  0  0  0  0  0  0
    2.5847    0.0239   -0.0000 C   0  0  0  0  0  0  0  0  0  0  0  0
   -1.3282    2.2855   -0.0000 C   0  0  0  0  0  0  0  0  0  0  0  0
   -0.0359    3.0513   -0.0000 C   0  0  0  0  0  0  0  0  0  0  0  0
    2.5727    3.0753   -0.0000 C   0  0  0  0  0  0  0  0  0  0  0  0
    2.5727   -1.4718   -0.0000 N   0  0  0  0  0  0  0  0  0  0  0  0
    3.8890    0.7898   -0.0000 C   0  0  0  0  0  0  0  0  0  0  0  0
    3.8770    2.3214   -0.0000 C   0  0  0  0  0  0  0  0  0  0  0  0
    3.8650   -2.2137   -0.0000 C   0  0  0  0  0  0  0  0  0  0  0  0
    1.2564   -2.2137   -0.0000 C   0  0  0  0  0  0  0  0  0  0  0  0
    5.1574   -1.4479   -0.0000 C   0  0  0  0  0  0  0  0  0  0  0  0
    1.2445   -3.7095   -0.0000 C   0  0  0  0  0  0  0  0  0  0  0  0
    6.4497   -2.1898   -0.0000 C   0  0  0  0  0  0  0  0  0  0  0  0
   -0.0718   -4.4394   -0.0000 N   0  0  0  0  0  0  0  0  0  0  0  0
    2.5368   -4.4514   -0.0000 C   0  0  0  0  0  0  0  0  0  0  0  0
    7.7420   -1.4240   -0.0000 C   0  0  0  0  0  0  0  0  0  0  0  0
   -0.0957   -5.9232   -0.0000 C   0  0  0  0  0  0  0  0  0  0  0  0
    2.5129   -5.9471   -0.0000 C   0  0  0  0  0  0  0  0  0  0  0  0
    9.0344   -2.1659   -0.0000 N   0  0  0  0  0  0  0  0  0  0  0  0
    1.1966   -6.6771   -0.0000 C   0  0  0  0  0  0  0  0  0  0  0  0
    3.7932   -6.6890   -0.0000 C   0  0  0  0  0  0  0  0  0  0  0  0
   10.3267   -1.4000   -0.0000 C   0  0  0  0  0  0  0  0  0  0  0  0
    1.1727   -8.1608   -0.0000 C   0  0  0  0  0  0  0  0  0  0  0  0
    3.7813   -8.1728   -0.0000 C   0  0  0  0  0  0  0  0  0  0  0  0
   11.6190   -2.1419   -0.0000 C   0  0  0  0  0  0  0  0  0  0  0  0
    2.4530   -8.9027   -0.0000 C   0  0  0  0  0  0  0  0  0  0  0  0
   11.5951   -3.6377   -0.0000 C   0  0  0  0  0  0  0  0  0  0  0  0
   12.8994   -1.3761   -0.0000 C   0  0  0  0  0  0  0  0  0  0  0  0
   12.8874   -4.3796   -0.0000 N   0  0  0  0  0  0  0  0  0  0  0  0
   14.1917   -2.1180   -0.0000 C   0  0  0  0  0  0  0  0  0  0  0  0
   14.1798   -3.6137   -0.0000 C   0  0  0  0  0  0  0  0  0  0  0  0
  1  2  2  0  0  0  0
  1  3  1  0  0  0  0
  2  4  1  0  0  0  0
  2  5  1  0  0  0  0
  3  6  2  0  0  0  0
  4  7  2  0  0  0  0
  4  8  1  0  0  0  0
  5  9  1  6  0  0  0
  5 10  1  0  0  0  0
  8 11  1  0  0  0  0
  9 12  1  0  0  0  0
  9 13  1  0  0  0  0
 12 14  1  0  0  0  0
 15 13  1  1  0  0  0
 14 16  2  0  0  0  0
 15 17  1  0  0  0  0
 15 18  1  0  0  0  0
 16 19  1  0  0  0  0
 17 20  1  0  0  0  0
 18 21  1  0  0  0  0
 19 22  1  0  0  0  0
 20 23  1  0  0  0  0
 21 24  1  0  0  0  0
 22 25  1  0  0  0  0
 23 26  1  0  0  0  0
 24 27  2  0  0  0  0
 25 28  1  0  0  0  0
 26 29  2  0  0  0  0
 28 30  2  0  0  0  0
 28 31  1  0  0  0  0
 30 32  1  0  0  0  0
 31 33  2  0  0  0  0
 32 34  2  0  0  0  0
  6  7  1  0  0  0  0
 10 11  1  0  0  0  0
 21 23  2  0  0  0  0
 27 29  1  0  0  0  0
 33 34  1  0  0  0  0
M  END
>  <MolRegNo>
2206370

>  <m>
=

>  <Value>
1250

>  <Unit>
nM

>  <Type>
IC50

>  <pValue>
5.9

>  <Ligand Efficiency>
0

>  <Binding Efficiency>
0

>  <Surface Efficiency>
0

>  <Assay Index>
1125341

>  <Assay Category>


>  <Assay Organism>
Homo sapiens

>  <Target ID>
17045

>  <Target Name>
Cytochrome P450 3A4

>  <Target Organism>
Homo sapiens

>  <Target Description>
Target is a single protein chain

>  <Sequence Accession>
P08684

>  <Reference>
J Med Chem 61 (3), 946-979 (2018)

>  <Pubmed ID>
29350534

>  <DOI>
10.1021/acs.jmedchem.7b01420

$$$$
2230683
Actelion Java MolfileCreator 1.0

 34 38  0  0  0  0  0  0  0  0999 V2000
    0.0000   -0.0000   -0.0000 N   0  0  0  0  0  0  0  0  0  0  0  0
    1.2923    0.7658   -0.0000 C   0  0  0  0  0  0  0  0  0  0  0  0
   -1.3163    0.7658   -0.0000 C   0  0  0  0  0  0  0  0  0  0  0  0
    1.2804    2.2975   -0.0000 C   0  0  0  0  0  0  0  0  0  0  0  0
    2.5847    0.0239   -0.0000 C   0  0  0  0  0  0  0  0  0  0  0  0
   -1.3282    2.2855   -0.0000 C   0  0  0  0  0  0  0  0  0  0  0  0
   -0.0359    3.0513   -0.0000 C   0  0  0  0  0  0  0  0  0  0  0  0
    2.5727    3.0753   -0.0000 C   0  0  0  0  0  0  0  0  0  0  0  0
    2.5727   -1.4718   -0.0000 N   0  0  0  0  0  0  0  0  0  0  0  0
    3.8890    0.7898   -0.0000 C   0  0  0  0  0  0  0  0  0  0  0  0
    3.8770    2.3214   -0.0000 C   0  0  0  0  0  0  0  0  0  0  0  0
    3.8650   -2.2137   -0.0000 C   0  0  0  0  0  0  0  0  0  0  0  0
    1.2564   -2.2137   -0.0000 C   0  0  0  0  0  0  0  0  0  0  0  0
    5.1574   -1.4479   -0.0000 C   0  0  0  0  0  0  0  0  0  0  0  0
    1.2445   -3.7095   -0.0000 C   0  0  0  0  0  0  0  0  0  0  0  0
    6.4497   -2.1898   -0.0000 C   0  0  0  0  0  0  0  0  0  0  0  0
   -0.0718   -4.4394   -0.0000 N   0  0  0  0  0  0  0  0  0  0  0  0
    2.5368   -4.4514   -0.0000 C   0  0  0  0  0  0  0  0  0  0  0  0
    7.7420   -1.4240   -0.0000 C   0  0  0  0  0  0  0  0  0  0  0  0
   -0.0957   -5.9232   -0.0000 C   0  0  0  0  0  0  0  0  0  0  0  0
    2.5129   -5.9471   -0.0000 C   0  0  0  0  0  0  0  0  0  0  0  0
    9.0344   -2.1659   -0.0000 N   0  0  0  0  0  0  0  0  0  0  0  0
    1.1966   -6.6771   -0.0000 C   0  0  0  0  0  0  0  0  0  0  0  0
    3.7932   -6.6890   -0.0000 C   0  0  0  0  0  0  0  0  0  0  0  0
   10.3267   -1.4000   -0.0000 C   0  0  0  0  0  0  0  0  0  0  0  0
    1.1727   -8.1608   -0.0000 C   0  0  0  0  0  0  0  0  0  0  0  0
    3.7813   -8.1728   -0.0000 C   0  0  0  0  0  0  0  0  0  0  0  0
   11.6190   -2.1419   -0.0000 C   0  0  0  0  0  0  0  0  0  0  0  0
    2.4530   -8.9027   -0.0000 C   0  0  0  0  0  0  0  0  0  0  0  0
   11.5951   -3.6377   -0.0000 C   0  0  0  0  0  0  0  0  0  0  0  0
   12.8994   -1.3761   -0.0000 C   0  0  0  0  0  0  0  0  0  0  0  0
   12.8874   -4.3796   -0.0000 C   0  0  0  0  0  0  0  0  0  0  0  0
   14.1917   -2.1180   -0.0000 C   0  0  0  0  0  0  0  0  0  0  0  0
   14.1798   -3.6137   -0.0000 N   0  0  0  0  0  0  0  0  0  0  0  0
  1  2  2  0  0  0  0
  1  3  1  0  0  0  0
  2  4  1  0  0  0  0
  2  5  1  0  0  0  0
  3  6  2  0  0  0  0
  4  7  2  0  0  0  0
  4  8  1  0  0  0  0
  5  9  1  6  0  0  0
  5 10  1  0  0  0  0
  8 11  1  0  0  0  0
  9 12  1  0  0  0  0
  9 13  1  0  0  0  0
 12 14  1  0  0  0  0
 15 13  1  1  0  0  0
 14 16  2  0  0  0  0
 15 17  1  0  0  0  0
 15 18  1  0  0  0  0
 16 19  1  0  0  0  0
 17 20  1  0  0  0  0
 18 21  1  0  0  0  0
 19 22  1  0  0  0  0
 20 23  1  0  0  0  0
 21 24  1  0  0  0  0
 22 25  1  0  0  0  0
 23 26  1  0  0  0  0
 24 27  2  0  0  0  0
 25 28  1  0  0  0  0
 26 29  2  0  0  0  0
 28 30  2  0  0  0  0
 28 31  1  0  0  0  0
 30 32  1  0  0  0  0
 31 33  2  0  0  0  0
 32 34  2  0  0  0  0
  6  7  1  0  0  0  0
 10 11  1  0  0  0  0
 21 23  2  0  0  0  0
 27 29  1  0  0  0  0
 33 34  1  0  0  0  0
M  END
>  <MolRegNo>
2230683

>  <m>
=

>  <Value>
350

>  <Unit>
nM

>  <Type>
IC50

>  <pValue>
6.46

>  <Ligand Efficiency>
0

>  <Binding Efficiency>
0

>  <Surface Efficiency>
0

>  <Assay Index>
1125341

>  <Assay Category>


>  <Assay Organism>
Homo sapiens

>  <Target ID>
17045

>  <Target Name>
Cytochrome P450 3A4

>  <Target Organism>
Homo sapiens

>  <Target Description>
Target is a single protein chain

>  <Sequence Accession>
P08684

>  <Reference>
J Med Chem 61 (3), 946-979 (2018)

>  <Pubmed ID>
29350534

>  <DOI>
10.1021/acs.jmedchem.7b01420

$$$$
2234311
Actelion Java MolfileCreator 1.0

 37 41  0  0  0  0  0  0  0  0999 V2000
    0.0000   -0.0000   -0.0000 F   0  0  0  0  0  0  0  0  0  0  0  0
   -0.7506   -1.2868   -0.0000 C   0  0  0  0  0  0  0  0  0  0  0  0
    0.7387   -1.2630   -0.0000 F   0  0  0  0  0  0  0  0  0  0  0  0
   -0.7745   -2.7762   -0.0000 C   0  0  0  0  0  0  0  0  0  0  0  0
   -2.0493   -0.5243   -0.0000 C   0  0  0  0  0  0  0  0  0  0  0  0
   -2.0851   -3.5030   -0.0000 C   0  0  0  0  0  0  0  0  0  0  0  0
   -3.3719   -1.2511   -0.0000 C   0  0  0  0  0  0  0  0  0  0  0  0
   -3.3838   -2.7404   -0.0000 C   0  0  0  0  0  0  0  0  0  0  0  0
   -4.6944   -3.4791   -0.0000 N   0  0  0  0  0  0  0  0  0  0  0  0
   -6.0051   -2.7166   -0.0000 C   0  0  0  0  0  0  0  0  0  0  0  0
   -7.3157   -3.4434   -0.0000 C   0  0  0  0  0  0  0  0  0  0  0  0
   -8.6144   -2.6808   -0.0000 C   0  0  0  0  0  0  0  0  0  0  0  0
   -6.5889   -4.7302   -0.0000 C   0  0  0  0  0  0  0  0  0  0  0  0
   -8.0782   -4.7183   -0.0000 C   0  0  0  0  0  0  0  0  0  0  0  0
   -9.9250   -3.4196   -0.0000 C   0  0  0  0  0  0  0  0  0  0  0  0
  -11.2357   -2.6570   -0.0000 N   0  0  0  0  0  0  0  0  0  0  0  0
  -11.2476   -1.1438   -0.0000 C   0  0  0  0  0  0  0  0  0  0  0  0
  -12.5463   -3.3957   -0.0000 C   0  0  0  0  0  0  0  0  0  0  0  0
  -12.5582   -0.3813   -0.0000 C   0  0  0  0  0  0  0  0  0  0  0  0
   -9.9489   -0.3813   -0.0000 C   0  0  0  0  0  0  0  0  0  0  0  0
  -12.5582   -4.8851   -0.0000 C   0  0  0  0  0  0  0  0  0  0  0  0
  -13.8689   -1.1200   -0.0000 N   0  0  0  0  0  0  0  0  0  0  0  0
  -12.5701    1.1438   -0.0000 C   0  0  0  0  0  0  0  0  0  0  0  0
   -9.9608    1.1438   -0.0000 C   0  0  0  0  0  0  0  0  0  0  0  0
  -13.8689   -5.6119   -0.0000 N   0  0  0  0  0  0  0  0  0  0  0  0
  -11.2714   -5.6238   -0.0000 C   0  0  0  0  0  0  0  0  0  0  0  0
  -15.1795   -0.3574   -0.0000 C   0  0  0  0  0  0  0  0  0  0  0  0
  -13.8808    1.8945   -0.0000 C   0  0  0  0  0  0  0  0  0  0  0  0
  -11.2833    1.9183   -0.0000 C   0  0  0  0  0  0  0  0  0  0  0  0
  -13.8927   -7.0893   -0.0000 C   0  0  0  0  0  0  0  0  0  0  0  0
  -11.2953   -7.1131   -0.0000 C   0  0  0  0  0  0  0  0  0  0  0  0
  -15.1914    1.1557   -0.0000 C   0  0  0  0  0  0  0  0  0  0  0  0
  -12.6059   -7.8400   -0.0000 C   0  0  0  0  0  0  0  0  0  0  0  0
  -10.0204   -7.8519   -0.0000 C   0  0  0  0  0  0  0  0  0  0  0  0
  -12.6297   -9.3174   -0.0000 C   0  0  0  0  0  0  0  0  0  0  0  0
  -10.0323   -9.3293   -0.0000 C   0  0  0  0  0  0  0  0  0  0  0  0
  -11.3548  -10.0561   -0.0000 C   0  0  0  0  0  0  0  0  0  0  0  0
  1  2  1  0  0  0  0
  2  3  1  0  0  0  0
  2  4  1  0  0  0  0
  2  5  1  0  0  0  0
  4  6  1  0  0  0  0
  5  7  1  0  0  0  0
  6  8  1  0  0  0  0
  8  9  1  0  0  0  0
  9 10  1  0  0  0  0
 10 11  1  0  0  0  0
 11 12  1  0  0  0  0
 11 13  1  0  0  0  0
 11 14  1  0  0  0  0
 12 15  1  0  0  0  0
 15 16  1  0  0  0  0
 17 16  1  6  0  0  0
 16 18  1  0  0  0  0
 17 19  1  0  0  0  0
 17 20  1  0  0  0  0
 21 18  1  1  0  0  0
 19 22  2  0  0  0  0
 19 23  1  0  0  0  0
 20 24  1  0  0  0  0
 21 25  1  0  0  0  0
 21 26  1  0  0  0  0
 22 27  1  0  0  0  0
 23 28  2  0  0  0  0
 23 29  1  0  0  0  0
 25 30  1  0  0  0  0
 26 31  1  0  0  0  0
 27 32  2  0  0  0  0
 30 33  1  0  0  0  0
 31 34  1  0  0  0  0
 33 35  1  0  0  0  0
 34 36  2  0  0  0  0
 35 37  2  0  0  0  0
  7  8  1  0  0  0  0
 24 29  1  0  0  0  0
 28 32  1  0  0  0  0
 31 33  2  0  0  0  0
 36 37  1  0  0  0  0
M  END
>  <MolRegNo>
2234311

>  <m>
=

>  <Value>
5580

>  <Unit>
nM

>  <Type>
IC50

>  <pValue>
5.25

>  <Ligand Efficiency>
0

>  <Binding Efficiency>
0

>  <Surface Efficiency>
0

>  <Assay Index>
1125341

>  <Assay Category>


>  <Assay Organism>
Homo sapiens

>  <Target ID>
17045

>  <Target Name>
Cytochrome P450 3A4

>  <Target Organism>
Homo sapiens

>  <Target Description>
Target is a single protein chain

>  <Sequence Accession>
P08684

>  <Reference>
J Med Chem 61 (3), 946-979 (2018)

>  <Pubmed ID>
29350534

>  <DOI>
10.1021/acs.jmedchem.7b01420

$$$$
2205135
Actelion Java MolfileCreator 1.0

 35 39  0  0  0  0  0  0  0  0999 V2000
    0.0000   -0.0000   -0.0000 O   0  0  0  0  0  0  0  0  0  0  0  0
   -0.0238   -1.4881   -0.0000 C   0  0  0  0  0  0  0  0  0  0  0  0
   -1.3095    0.7738   -0.0000 C   0  0  0  0  0  0  0  0  0  0  0  0
   -1.3333   -2.2143   -0.0000 C   0  0  0  0  0  0  0  0  0  0  0  0
   -2.6310    0.0476   -0.0000 C   0  0  0  0  0  0  0  0  0  0  0  0
   -2.6310   -1.4524   -0.0000 C   0  0  0  0  0  0  0  0  0  0  0  0
   -3.9405   -2.1905   -0.0000 N   0  0  0  0  0  0  0  0  0  0  0  0
   -5.2500   -1.4286   -0.0000 C   0  0  0  0  0  0  0  0  0  0  0  0
   -6.5596   -2.1548   -0.0000 C   0  0  0  0  0  0  0  0  0  0  0  0
   -7.8572   -1.3929   -0.0000 C   0  0  0  0  0  0  0  0  0  0  0  0
   -5.8334   -3.4405   -0.0000 C   0  0  0  0  0  0  0  0  0  0  0  0
   -7.3215   -3.4286   -0.0000 C   0  0  0  0  0  0  0  0  0  0  0  0
   -9.1668   -2.1310   -0.0000 C   0  0  0  0  0  0  0  0  0  0  0  0
  -10.4763   -1.3691   -0.0000 N   0  0  0  0  0  0  0  0  0  0  0  0
  -10.4882    0.1429   -0.0000 C   0  0  0  0  0  0  0  0  0  0  0  0
  -11.7858   -2.1072   -0.0000 C   0  0  0  0  0  0  0  0  0  0  0  0
  -11.7977    0.9048   -0.0000 C   0  0  0  0  0  0  0  0  0  0  0  0
   -9.1906    0.9048   -0.0000 C   0  0  0  0  0  0  0  0  0  0  0  0
  -11.7977   -3.5953   -0.0000 C   0  0  0  0  0  0  0  0  0  0  0  0
  -13.1073    0.1667   -0.0000 N   0  0  0  0  0  0  0  0  0  0  0  0
  -11.8096    2.4286   -0.0000 C   0  0  0  0  0  0  0  0  0  0  0  0
   -9.2025    2.4286   -0.0000 C   0  0  0  0  0  0  0  0  0  0  0  0
  -13.1073   -4.3215   -0.0000 N   0  0  0  0  0  0  0  0  0  0  0  0
  -10.5120   -4.3334   -0.0000 C   0  0  0  0  0  0  0  0  0  0  0  0
  -14.4168    0.9286   -0.0000 C   0  0  0  0  0  0  0  0  0  0  0  0
  -13.1192    3.1786   -0.0000 C   0  0  0  0  0  0  0  0  0  0  0  0
  -10.5239    3.2024   -0.0000 C   0  0  0  0  0  0  0  0  0  0  0  0
  -13.1311   -5.7977   -0.0000 C   0  0  0  0  0  0  0  0  0  0  0  0
  -10.5358   -5.8215   -0.0000 C   0  0  0  0  0  0  0  0  0  0  0  0
  -14.4287    2.4405   -0.0000 C   0  0  0  0  0  0  0  0  0  0  0  0
  -11.8453   -6.5477   -0.0000 C   0  0  0  0  0  0  0  0  0  0  0  0
   -9.2620   -6.5596   -0.0000 C   0  0  0  0  0  0  0  0  0  0  0  0
  -11.8692   -8.0239   -0.0000 C   0  0  0  0  0  0  0  0  0  0  0  0
   -9.2739   -8.0358   -0.0000 C   0  0  0  0  0  0  0  0  0  0  0  0
  -10.5953   -8.7620   -0.0000 C   0  0  0  0  0  0  0  0  0  0  0  0
  1  2  1  0  0  0  0
  1  3  1  0  0  0  0
  2  4  1  0  0  0  0
  3  5  1  0  0  0  0
  4  6  1  0  0  0  0
  6  7  1  0  0  0  0
  7  8  1  0  0  0  0
  8  9  1  0  0  0  0
  9 10  1  0  0  0  0
  9 11  1  0  0  0  0
  9 12  1  0  0  0  0
 10 13  1  0  0  0  0
 13 14  1  0  0  0  0
 15 14  1  6  0  0  0
 14 16  1  0  0  0  0
 15 17  1  0  0  0  0
 15 18  1  0  0  0  0
 19 16  1  1  0  0  0
 17 20  2  0  0  0  0
 17 21  1  0  0  0  0
 18 22  1  0  0  0  0
 19 23  1  0  0  0  0
 19 24  1  0  0  0  0
 20 25  1  0  0  0  0
 21 26  2  0  0  0  0
 21 27  1  0  0  0  0
 23 28  1  0  0  0  0
 24 29  1  0  0  0  0
 25 30  2  0  0  0  0
 28 31  1  0  0  0  0
 29 32  1  0  0  0  0
 31 33  1  0  0  0  0
 32 34  2  0  0  0  0
 33 35  2  0  0  0  0
  5  6  1  0  0  0  0
 22 27  1  0  0  0  0
 26 30  1  0  0  0  0
 29 31  2  0  0  0  0
 34 35  1  0  0  0  0
M  END
>  <MolRegNo>
2205135

>  <m>
=

>  <Value>
17700

>  <Unit>
nM

>  <Type>
IC50

>  <pValue>
4.75

>  <Ligand Efficiency>
0

>  <Binding Efficiency>
0

>  <Surface Efficiency>
0

>  <Assay Index>
1125341

>  <Assay Category>


>  <Assay Organism>
Homo sapiens

>  <Target ID>
17045

>  <Target Name>
Cytochrome P450 3A4

>  <Target Organism>
Homo sapiens

>  <Target Description>
Target is a single protein chain

>  <Sequence Accession>
P08684

>  <Reference>
J Med Chem 61 (3), 946-979 (2018)

>  <Pubmed ID>
29350534

>  <DOI>
10.1021/acs.jmedchem.7b01420

$$$$
2226573
Actelion Java MolfileCreator 1.0

 37 41  0  0  0  0  0  0  0  0999 V2000
    0.0000   -0.0000   -0.0000 N   0  0  0  0  0  0  0  0  0  0  0  0
    1.2922    0.7658   -0.0000 C   0  0  0  0  0  0  0  0  0  0  0  0
   -1.3161    0.7658   -0.0000 C   0  0  0  0  0  0  0  0  0  0  0  0
    1.2802    2.2973   -0.0000 C   0  0  0  0  0  0  0  0  0  0  0  0
    2.5844    0.0239   -0.0000 C   0  0  0  0  0  0  0  0  0  0  0  0
   -1.3281    2.2853   -0.0000 C   0  0  0  0  0  0  0  0  0  0  0  0
   -0.0359    3.0510   -0.0000 C   0  0  0  0  0  0  0  0  0  0  0  0
    2.5724    3.0750   -0.0000 C   0  0  0  0  0  0  0  0  0  0  0  0
    2.5724   -1.4717   -0.0000 N   0  0  0  0  0  0  0  0  0  0  0  0
    3.8886    0.7897   -0.0000 C   0  0  0  0  0  0  0  0  0  0  0  0
    3.8766    2.3212   -0.0000 C   0  0  0  0  0  0  0  0  0  0  0  0
    1.2563   -2.2135   -0.0000 C   0  0  0  0  0  0  0  0  0  0  0  0
    3.8646   -2.2135   -0.0000 C   0  0  0  0  0  0  0  0  0  0  0  0
    1.2443   -3.7091   -0.0000 C   0  0  0  0  0  0  0  0  0  0  0  0
    5.1569   -1.4477   -0.0000 C   0  0  0  0  0  0  0  0  0  0  0  0
   -0.0718   -4.4390   -0.0000 N   0  0  0  0  0  0  0  0  0  0  0  0
    2.5366   -4.4509   -0.0000 C   0  0  0  0  0  0  0  0  0  0  0  0
    6.4371   -2.1896   -0.0000 C   0  0  0  0  0  0  0  0  0  0  0  0
   -0.0957   -5.9226   -0.0000 C   0  0  0  0  0  0  0  0  0  0  0  0
    2.5126   -5.9465   -0.0000 C   0  0  0  0  0  0  0  0  0  0  0  0
    7.7293   -1.4358   -0.0000 C   0  0  0  0  0  0  0  0  0  0  0  0
    7.1670   -3.4818   -0.0000 C   0  0  0  0  0  0  0  0  0  0  0  0
    5.6713   -3.4698   -0.0000 C   0  0  0  0  0  0  0  0  0  0  0  0
    1.1965   -6.6764   -0.0000 C   0  0  0  0  0  0  0  0  0  0  0  0
    3.7929   -6.6884   -0.0000 C   0  0  0  0  0  0  0  0  0  0  0  0
    9.0215   -2.1776   -0.0000 N   0  0  0  0  0  0  0  0  0  0  0  0
    1.1726   -8.1600   -0.0000 C   0  0  0  0  0  0  0  0  0  0  0  0
    3.7809   -8.1720   -0.0000 C   0  0  0  0  0  0  0  0  0  0  0  0
   10.3137   -1.4119   -0.0000 C   0  0  0  0  0  0  0  0  0  0  0  0
    2.4528   -8.9019   -0.0000 C   0  0  0  0  0  0  0  0  0  0  0  0
   11.5939   -2.1537   -0.0000 C   0  0  0  0  0  0  0  0  0  0  0  0
   10.3017    0.1077   -0.0000 C   0  0  0  0  0  0  0  0  0  0  0  0
   12.8862   -1.3999   -0.0000 C   0  0  0  0  0  0  0  0  0  0  0  0
   11.6059    0.8615   -0.0000 C   0  0  0  0  0  0  0  0  0  0  0  0
   12.8862    0.1196   -0.0000 C   0  0  0  0  0  0  0  0  0  0  0  0
   13.6160    1.4358   -0.0000 C   0  0  0  0  0  0  0  0  0  0  0  0
   14.3818    0.1436   -0.0000 C   0  0  0  0  0  0  0  0  0  0  0  0
  1  2  2  0  0  0  0
  1  3  1  0  0  0  0
  2  4  1  0  0  0  0
  2  5  1  0  0  0  0
  3  6  2  0  0  0  0
  4  7  2  0  0  0  0
  4  8  1  0  0  0  0
  5  9  1  6  0  0  0
  5 10  1  0  0  0  0
  8 11  1  0  0  0  0
  9 12  1  0  0  0  0
  9 13  1  0  0  0  0
 14 12  1  1  0  0  0
 13 15  1  0  0  0  0
 14 16  1  0  0  0  0
 14 17  1  0  0  0  0
 15 18  1  0  0  0  0
 16 19  1  0  0  0  0
 17 20  1  0  0  0  0
 18 21  1  0  0  0  0
 18 22  1  0  0  0  0
 18 23  1  0  0  0  0
 19 24  1  0  0  0  0
 20 25  1  0  0  0  0
 21 26  1  0  0  0  0
 24 27  1  0  0  0  0
 25 28  2  0  0  0  0
 26 29  1  0  0  0  0
 27 30  2  0  0  0  0
 29 31  1  0  0  0  0
 29 32  1  0  0  0  0
 31 33  1  0  0  0  0
 32 34  1  0  0  0  0
 33 35  1  0  0  0  0
 35 36  1  0  0  0  0
 35 37  1  0  0  0  0
  6  7  1  0  0  0  0
 10 11  1  0  0  0  0
 20 24  2  0  0  0  0
 28 30  1  0  0  0  0
 34 35  1  0  0  0  0
M  END
>  <MolRegNo>
2226573

>  <m>
=

>  <Value>
7830

>  <Unit>
nM

>  <Type>
IC50

>  <pValue>
5.11

>  <Ligand Efficiency>
0

>  <Binding Efficiency>
0

>  <Surface Efficiency>
0

>  <Assay Index>
1125341

>  <Assay Category>


>  <Assay Organism>
Homo sapiens

>  <Target ID>
17045

>  <Target Name>
Cytochrome P450 3A4

>  <Target Organism>
Homo sapiens

>  <Target Description>
Target is a single protein chain

>  <Sequence Accession>
P08684

>  <Reference>
J Med Chem 61 (3), 946-979 (2018)

>  <Pubmed ID>
29350534

>  <DOI>
10.1021/acs.jmedchem.7b01420

$$$$
2259632
Actelion Java MolfileCreator 1.0

 28 30  0  0  0  0  0  0  0  0999 V2000
    0.0000   -0.0000   -0.0000 F   0  0  0  0  0  0  0  0  0  0  0  0
   -0.6276    1.3854   -0.0000 C   0  0  0  0  0  0  0  0  0  0  0  0
    0.2368    2.6050   -0.0000 C   0  0  0  0  0  0  0  0  0  0  0  0
   -2.1313    1.5511   -0.0000 C   0  0  0  0  0  0  0  0  0  0  0  0
    1.7169    2.4629   -0.0000 C   0  0  0  0  0  0  0  0  0  0  0  0
   -0.3907    3.9904   -0.0000 C   0  0  0  0  0  0  0  0  0  0  0  0
   -2.7589    2.9365   -0.0000 C   0  0  0  0  0  0  0  0  0  0  0  0
    2.4629    1.1722   -0.0000 O   0  0  0  0  0  0  0  0  0  0  0  0
    2.7115    3.5878   -0.0000 C   0  0  0  0  0  0  0  0  0  0  0  0
   -1.8945    4.1561   -0.0000 C   0  0  0  0  0  0  0  0  0  0  0  0
    3.9193    1.4919   -0.0000 N   0  0  0  0  0  0  0  0  0  0  0  0
    4.0732    2.9957   -0.0000 C   0  0  0  0  0  0  0  0  0  0  0  0
    5.3639    3.7535   -0.0000 C   0  0  0  0  0  0  0  0  0  0  0  0
    5.3520    5.2692   -0.0000 O   0  0  0  0  0  0  0  0  0  0  0  0
    6.6545    3.0194   -0.0000 N   0  0  0  0  0  0  0  0  0  0  0  0
    7.9452    3.7772   -0.0000 C   0  0  0  0  0  0  0  0  0  0  0  0
    9.2358    3.0431   -0.0000 C   0  0  0  0  0  0  0  0  0  0  0  0
    7.9333    5.2928   -0.0000 C   0  0  0  0  0  0  0  0  0  0  0  0
    9.2240    1.5511   -0.0000 O   0  0  0  0  0  0  0  0  0  0  0  0
   10.5265    3.8009   -0.0000 O   0  0  0  0  0  0  0  0  0  0  0  0
    9.2240    6.0507   -0.0000 N   0  0  0  0  0  0  0  0  0  0  0  0
   11.8171    3.0668   -0.0000 C   0  0  0  0  0  0  0  0  0  0  0  0
   10.5857    5.4586   -0.0000 C   0  0  0  0  0  0  0  0  0  0  0  0
    9.3779    7.5663   -0.0000 C   0  0  0  0  0  0  0  0  0  0  0  0
   13.1078    3.8246   -0.0000 C   0  0  0  0  0  0  0  0  0  0  0  0
   11.8053    1.5748   -0.0000 C   0  0  0  0  0  0  0  0  0  0  0  0
   11.5803    6.5835   -0.0000 N   0  0  0  0  0  0  0  0  0  0  0  0
   10.8343    7.8860   -0.0000 C   0  0  0  0  0  0  0  0  0  0  0  0
  1  2  1  0  0  0  0
  2  3  2  0  0  0  0
  2  4  1  0  0  0  0
  3  5  1  0  0  0  0
  3  6  1  0  0  0  0
  4  7  2  0  0  0  0
  5  8  1  0  0  0  0
  5  9  2  0  0  0  0
  6 10  2  0  0  0  0
  8 11  1  0  0  0  0
  9 12  1  0  0  0  0
 12 13  1  0  0  0  0
 13 14  2  0  0  0  0
 13 15  1  0  0  0  0
 16 15  1  1  0  0  0
 16 17  1  0  0  0  0
 16 18  1  0  0  0  0
 17 19  2  0  0  0  0
 17 20  1  0  0  0  0
 18 21  1  0  0  0  0
 20 22  1  0  0  0  0
 21 23  1  0  0  0  0
 21 24  1  0  0  0  0
 22 25  1  0  0  0  0
 22 26  1  0  0  0  0
 23 27  2  0  0  0  0
 24 28  2  0  0  0  0
  7 10  1  0  0  0  0
 11 12  2  0  0  0  0
 27 28  1  0  0  0  0
M  END
>  <MolRegNo>
2259632

>  <m>
=

>  <Value>
5810

>  <Unit>
nM

>  <Type>
IC50

>  <pValue>
5.24

>  <Ligand Efficiency>
0

>  <Binding Efficiency>
0

>  <Surface Efficiency>
0

>  <Assay Index>
1126833

>  <Assay Category>


>  <Assay Organism>
Homo sapiens

>  <Target ID>
17045

>  <Target Name>
Cytochrome P450 3A4

>  <Target Organism>
Homo sapiens

>  <Target Description>
Target is a single protein chain

>  <Sequence Accession>
P08684

>  <Reference>


>  <Pubmed ID>
28558334

>  <DOI>
10.1016/j.ejmech.2017.05.043

$$$$
2258239
Actelion Java MolfileCreator 1.0

 29 31  0  0  0  0  0  0  0  0999 V2000
    0.0000   -0.0000   -0.0000 F   0  0  0  0  0  0  0  0  0  0  0  0
   -0.6267    1.3835   -0.0000 C   0  0  0  0  0  0  0  0  0  0  0  0
    0.2365    2.6015   -0.0000 C   0  0  0  0  0  0  0  0  0  0  0  0
   -2.1285    1.5491   -0.0000 C   0  0  0  0  0  0  0  0  0  0  0  0
    1.7146    2.4596   -0.0000 C   0  0  0  0  0  0  0  0  0  0  0  0
   -0.3902    3.9850   -0.0000 C   0  0  0  0  0  0  0  0  0  0  0  0
   -2.7552    2.9326   -0.0000 C   0  0  0  0  0  0  0  0  0  0  0  0
    2.4596    1.1707   -0.0000 O   0  0  0  0  0  0  0  0  0  0  0  0
    2.7079    3.5830   -0.0000 C   0  0  0  0  0  0  0  0  0  0  0  0
   -1.8920    4.1506   -0.0000 C   0  0  0  0  0  0  0  0  0  0  0  0
    3.9141    1.4899   -0.0000 N   0  0  0  0  0  0  0  0  0  0  0  0
    4.0678    2.9917   -0.0000 C   0  0  0  0  0  0  0  0  0  0  0  0
    5.3567    3.7603   -0.0000 C   0  0  0  0  0  0  0  0  0  0  0  0
    5.3449    5.2739   -0.0000 O   0  0  0  0  0  0  0  0  0  0  0  0
    6.6456    3.0154   -0.0000 N   0  0  0  0  0  0  0  0  0  0  0  0
    7.9346    3.7840   -0.0000 C   0  0  0  0  0  0  0  0  0  0  0  0
    9.2235    3.0390   -0.0000 C   0  0  0  0  0  0  0  0  0  0  0  0
    7.9227    5.2976   -0.0000 C   0  0  0  0  0  0  0  0  0  0  0  0
    9.2117    1.5491   -0.0000 O   0  0  0  0  0  0  0  0  0  0  0  0
   10.5124    3.8076   -0.0000 O   0  0  0  0  0  0  0  0  0  0  0  0
    9.2117    6.0662   -0.0000 N   0  0  0  0  0  0  0  0  0  0  0  0
   11.8013    3.0627   -0.0000 C   0  0  0  0  0  0  0  0  0  0  0  0
   10.5715    5.4750   -0.0000 C   0  0  0  0  0  0  0  0  0  0  0  0
    9.3654    7.5798   -0.0000 C   0  0  0  0  0  0  0  0  0  0  0  0
   13.0903    3.8313   -0.0000 C   0  0  0  0  0  0  0  0  0  0  0  0
   11.5648    6.5983   -0.0000 N   0  0  0  0  0  0  0  0  0  0  0  0
   10.8199    7.8991   -0.0000 C   0  0  0  0  0  0  0  0  0  0  0  0
   14.3792    3.0863   -0.0000 C   0  0  0  0  0  0  0  0  0  0  0  0
   13.0784    5.3449   -0.0000 C   0  0  0  0  0  0  0  0  0  0  0  0
  1  2  1  0  0  0  0
  2  3  2  0  0  0  0
  2  4  1  0  0  0  0
  3  5  1  0  0  0  0
  3  6  1  0  0  0  0
  4  7  2  0  0  0  0
  5  8  1  0  0  0  0
  5  9  2  0  0  0  0
  6 10  2  0  0  0  0
  8 11  1  0  0  0  0
  9 12  1  0  0  0  0
 12 13  1  0  0  0  0
 13 14  2  0  0  0  0
 13 15  1  0  0  0  0
 16 15  1  1  0  0  0
 16 17  1  0  0  0  0
 16 18  1  0  0  0  0
 17 19  2  0  0  0  0
 17 20  1  0  0  0  0
 18 21  1  0  0  0  0
 20 22  1  0  0  0  0
 21 23  1  0  0  0  0
 21 24  1  0  0  0  0
 22 25  1  0  0  0  0
 23 26  2  0  0  0  0
 24 27  2  0  0  0  0
 25 28  1  0  0  0  0
 25 29  1  0  0  0  0
  7 10  1  0  0  0  0
 11 12  2  0  0  0  0
 26 27  1  0  0  0  0
M  END
>  <MolRegNo>
2258239

>  <m>
=

>  <Value>
8380

>  <Unit>
nM

>  <Type>
IC50

>  <pValue>
5.08

>  <Ligand Efficiency>
0

>  <Binding Efficiency>
0

>  <Surface Efficiency>
0

>  <Assay Index>
1126833

>  <Assay Category>


>  <Assay Organism>
Homo sapiens

>  <Target ID>
17045

>  <Target Name>
Cytochrome P450 3A4

>  <Target Organism>
Homo sapiens

>  <Target Description>
Target is a single protein chain

>  <Sequence Accession>
P08684

>  <Reference>


>  <Pubmed ID>
28558334

>  <DOI>
10.1016/j.ejmech.2017.05.043

$$$$
2258022
Actelion Java MolfileCreator 1.0

 30 32  0  0  0  0  0  0  0  0999 V2000
    0.0000   -0.0000   -0.0000 O   0  0  0  0  0  0  0  0  0  0  0  0
   -0.2378   -1.4746   -0.0000 C   0  0  0  0  0  0  0  0  0  0  0  0
    0.9990   -2.3071   -0.0000 N   0  0  0  0  0  0  0  0  0  0  0  0
   -1.6768   -1.9147   -0.0000 C   0  0  0  0  0  0  0  0  0  0  0  0
    2.2833   -1.5460   -0.0000 C   0  0  0  0  0  0  0  0  0  0  0  0
    1.0941   -3.7817   -0.0000 C   0  0  0  0  0  0  0  0  0  0  0  0
   -2.2357   -3.2942   -0.0000 C   0  0  0  0  0  0  0  0  0  0  0  0
   -2.6282   -0.7373   -0.0000 C   0  0  0  0  0  0  0  0  0  0  0  0
    3.5677   -2.2833   -0.0000 C   0  0  0  0  0  0  0  0  0  0  0  0
    2.2714   -0.0238   -0.0000 C   0  0  0  0  0  0  0  0  0  0  0  0
   -0.0238   -4.7926   -0.0000 C   0  0  0  0  0  0  0  0  0  0  0  0
   -1.5103   -4.5785   -0.0000 O   0  0  0  0  0  0  0  0  0  0  0  0
   -3.7223   -3.5082   -0.0000 N   0  0  0  0  0  0  0  0  0  0  0  0
   -4.1147   -0.9514   -0.0000 N   0  0  0  0  0  0  0  0  0  0  0  0
   -2.0930    0.6779   -0.0000 N   0  0  0  0  0  0  0  0  0  0  0  0
    4.8639   -1.5222   -0.0000 C   0  0  0  0  0  0  0  0  0  0  0  0
    3.5439    0.7373   -0.0000 C   0  0  0  0  0  0  0  0  0  0  0  0
   -4.6737   -2.3309   -0.0000 C   0  0  0  0  0  0  0  0  0  0  0  0
    4.8521   -0.0000   -0.0000 C   0  0  0  0  0  0  0  0  0  0  0  0
    6.1483   -2.2595   -0.0000 C   0  0  0  0  0  0  0  0  0  0  0  0
    3.5320    2.2476   -0.0000 C   0  0  0  0  0  0  0  0  0  0  0  0
    6.1364    0.7730   -0.0000 C   0  0  0  0  0  0  0  0  0  0  0  0
    7.4208    1.5341   -0.0000 C   0  0  0  0  0  0  0  0  0  0  0  0
    8.7052    2.3071   -0.0000 C   0  0  0  0  0  0  0  0  0  0  0  0
   10.0014    1.5579   -0.0000 C   0  0  0  0  0  0  0  0  0  0  0  0
    7.9322    3.6271   -0.0000 C   0  0  0  0  0  0  0  0  0  0  0  0
    9.4425    3.6271   -0.0000 C   0  0  0  0  0  0  0  0  0  0  0  0
   11.2858    2.3309   -0.0000 C   0  0  0  0  0  0  0  0  0  0  0  0
   11.2739    3.8412   -0.0000 O   0  0  0  0  0  0  0  0  0  0  0  0
   12.5820    1.5936   -0.0000 O   0  0  0  0  0  0  0  0  0  0  0  0
  1  2  2  0  0  0  0
  2  3  1  0  0  0  0
  2  4  1  0  0  0  0
  3  5  1  0  0  0  0
  3  6  1  0  0  0  0
  4  7  2  0  0  0  0
  4  8  1  0  0  0  0
  5  9  2  0  0  0  0
  5 10  1  0  0  0  0
  6 11  1  0  0  0  0
  7 12  1  0  0  0  0
  7 13  1  0  0  0  0
  8 14  2  0  0  0  0
  8 15  1  0  0  0  0
  9 16  1  0  0  0  0
 10 17  2  0  0  0  0
 13 18  2  0  0  0  0
 16 19  2  0  0  0  0
 16 20  1  0  0  0  0
 17 21  1  0  0  0  0
 19 22  1  0  0  0  0
 22 23  3  0  0  0  0
 23 24  1  0  0  0  0
 24 25  1  0  0  0  0
 24 26  1  0  0  0  0
 24 27  1  0  0  0  0
 25 28  1  0  0  0  0
 28 29  2  0  0  0  0
 28 30  1  0  0  0  0
 11 12  1  0  0  0  0
 14 18  1  0  0  0  0
 17 19  1  0  0  0  0
M  END
>  <MolRegNo>
2258022

>  <m>
=

>  <Value>
45500

>  <Unit>
nM

>  <Type>
IC50

>  <pValue>
4.34

>  <Ligand Efficiency>
0

>  <Binding Efficiency>
0

>  <Surface Efficiency>
0

>  <Assay Index>
1129572

>  <Assay Category>


>  <Assay Organism>
Homo sapiens

>  <Target ID>
17045

>  <Target Name>
Cytochrome P450 3A4

>  <Target Organism>
Homo sapiens

>  <Target Description>
Target is a single protein chain

>  <Sequence Accession>
P08684

>  <Reference>
Bioorg Med Chem Lett 28 (10), 1686-1692 (2018)

>  <Pubmed ID>
29699923

>  <DOI>
10.1016/j.bmcl.2018.04.051

$$$$
2261412
Actelion Java MolfileCreator 1.0

 30 33  0  0  0  0  0  0  0  0999 V2000
    0.0000   -0.0000   -0.0000 F   0  0  0  0  0  0  0  0  0  0  0  0
   -1.3039   -0.7349   -0.0000 C   0  0  0  0  0  0  0  0  0  0  0  0
   -1.3157   -2.2285   -0.0000 C   0  0  0  0  0  0  0  0  0  0  0  0
   -2.6078    0.0237   -0.0000 C   0  0  0  0  0  0  0  0  0  0  0  0
   -2.6315   -2.9634   -0.0000 C   0  0  0  0  0  0  0  0  0  0  0  0
   -3.9117   -0.7112   -0.0000 C   0  0  0  0  0  0  0  0  0  0  0  0
   -2.6433   -4.4451   -0.0000 C   0  0  0  0  0  0  0  0  0  0  0  0
   -3.9354   -2.2047   -0.0000 C   0  0  0  0  0  0  0  0  0  0  0  0
   -5.2155    0.0474   -0.0000 C   0  0  0  0  0  0  0  0  0  0  0  0
   -3.9472   -5.1800   -0.0000 C   0  0  0  0  0  0  0  0  0  0  0  0
   -1.3632   -5.1681   -0.0000 C   0  0  0  0  0  0  0  0  0  0  0  0
   -6.5194   -0.6875   -0.0000 C   0  0  0  0  0  0  0  0  0  0  0  0
   -3.9591   -6.6617   -0.0000 C   0  0  0  0  0  0  0  0  0  0  0  0
   -1.3750   -6.6498   -0.0000 C   0  0  0  0  0  0  0  0  0  0  0  0
   -7.8233    0.0711   -0.0000 C   0  0  0  0  0  0  0  0  0  0  0  0
   -2.6789   -7.3966   -0.0000 N   0  0  0  0  0  0  0  0  0  0  0  0
   -7.8233    1.5765   -0.0000 C   0  0  0  0  0  0  0  0  0  0  0  0
   -9.1153   -0.6638   -0.0000 C   0  0  0  0  0  0  0  0  0  0  0  0
   -9.1272    2.3351   -0.0000 C   0  0  0  0  0  0  0  0  0  0  0  0
  -10.4192    0.0830   -0.0000 C   0  0  0  0  0  0  0  0  0  0  0  0
  -10.4311    1.6002   -0.0000 C   0  0  0  0  0  0  0  0  0  0  0  0
  -11.7350    2.3588   -0.0000 N   0  0  0  0  0  0  0  0  0  0  0  0
  -11.7468    3.8642   -0.0000 C   0  0  0  0  0  0  0  0  0  0  0  0
  -13.0388    1.6121   -0.0000 C   0  0  0  0  0  0  0  0  0  0  0  0
  -13.0507    4.6229   -0.0000 C   0  0  0  0  0  0  0  0  0  0  0  0
  -14.3427    2.3826   -0.0000 C   0  0  0  0  0  0  0  0  0  0  0  0
  -14.3664    3.8879   -0.0000 N   0  0  0  0  0  0  0  0  0  0  0  0
  -15.6703    4.6584   -0.0000 C   0  0  0  0  0  0  0  0  0  0  0  0
  -15.6703    6.1638   -0.0000 O   0  0  0  0  0  0  0  0  0  0  0  0
  -16.9861    3.9354   -0.0000 C   0  0  0  0  0  0  0  0  0  0  0  0
  1  2  1  0  0  0  0
  2  3  2  0  0  0  0
  2  4  1  0  0  0  0
  3  5  1  0  0  0  0
  4  6  2  0  0  0  0
  5  7  1  0  0  0  0
  5  8  2  0  0  0  0
  6  9  1  0  0  0  0
  7 10  2  0  0  0  0
  7 11  1  0  0  0  0
  9 12  2  0  0  0  0
 10 13  1  0  0  0  0
 11 14  2  0  0  0  0
 12 15  1  0  0  0  0
 13 16  2  0  0  0  0
 15 17  2  0  0  0  0
 15 18  1  0  0  0  0
 17 19  1  0  0  0  0
 18 20  2  0  0  0  0
 19 21  2  0  0  0  0
 21 22  1  0  0  0  0
 22 23  1  0  0  0  0
 22 24  1  0  0  0  0
 23 25  1  0  0  0  0
 24 26  1  0  0  0  0
 25 27  1  0  0  0  0
 27 28  1  0  0  0  0
 28 29  2  0  0  0  0
 28 30  1  0  0  0  0
  6  8  1  0  0  0  0
 14 16  1  0  0  0  0
 20 21  1  0  0  0  0
 26 27  1  0  0  0  0
M  END
>  <MolRegNo>
2261412

>  <m>
=

>  <Value>
695

>  <Unit>
nM

>  <Type>
IC50

>  <pValue>
6.16

>  <Ligand Efficiency>
0

>  <Binding Efficiency>
0

>  <Surface Efficiency>
0

>  <Assay Index>
1131341

>  <Assay Category>


>  <Assay Organism>
Homo sapiens

>  <Target ID>
17045

>  <Target Name>
Cytochrome P450 3A4

>  <Target Organism>
Homo sapiens

>  <Target Description>
Target is a single protein chain

>  <Sequence Accession>
P08684

>  <Reference>
Bioorg Med Chem Lett 28 (13), 2270-2274 (2018)

>  <Pubmed ID>
29803730

>  <DOI>
10.1016/j.bmcl.2018.05.040

$$$$
2257975
Actelion Java MolfileCreator 1.0

 32 35  0  0  0  0  0  0  0  0999 V2000
    0.0000   -0.0000   -0.0000 S   0  0  0  0  0  0  0  0  0  0  0  0
   -0.7771    1.3270   -0.0000 O   0  0  0  0  0  0  0  0  0  0  0  0
    0.7412    1.3270   -0.0000 O   0  0  0  0  0  0  0  0  0  0  0  0
    1.2912   -0.7532   -0.0000 N   0  0  0  0  0  0  0  0  0  0  0  0
   -1.3270   -0.7412   -0.0000 C   0  0  0  0  0  0  0  0  0  0  0  0
    2.5943    0.0120   -0.0000 C   0  0  0  0  0  0  0  0  0  0  0  0
    1.2792   -2.2476   -0.0000 C   0  0  0  0  0  0  0  0  0  0  0  0
   -2.6421    0.0239   -0.0000 C   0  0  0  0  0  0  0  0  0  0  0  0
    3.8855   -0.7293   -0.0000 C   0  0  0  0  0  0  0  0  0  0  0  0
    2.5704   -3.0008   -0.0000 C   0  0  0  0  0  0  0  0  0  0  0  0
    3.8735   -2.2237   -0.0000 N   0  0  0  0  0  0  0  0  0  0  0  0
    5.1647   -2.9649   -0.0000 C   0  0  0  0  0  0  0  0  0  0  0  0
    6.4559   -2.1998   -0.0000 C   0  0  0  0  0  0  0  0  0  0  0  0
    5.1528   -4.4713   -0.0000 C   0  0  0  0  0  0  0  0  0  0  0  0
    7.7471   -2.9410   -0.0000 C   0  0  0  0  0  0  0  0  0  0  0  0
    6.4440   -5.2006   -0.0000 C   0  0  0  0  0  0  0  0  0  0  0  0
    7.7232   -4.4354   -0.0000 C   0  0  0  0  0  0  0  0  0  0  0  0
    9.0144   -5.1767   -0.0000 C   0  0  0  0  0  0  0  0  0  0  0  0
   10.3055   -4.4115   -0.0000 C   0  0  0  0  0  0  0  0  0  0  0  0
   11.5967   -5.1528   -0.0000 C   0  0  0  0  0  0  0  0  0  0  0  0
   12.8879   -4.3876   -0.0000 C   0  0  0  0  0  0  0  0  0  0  0  0
   11.5848   -6.6591   -0.0000 C   0  0  0  0  0  0  0  0  0  0  0  0
   14.1791   -5.1289   -0.0000 C   0  0  0  0  0  0  0  0  0  0  0  0
   12.8759   -7.4004   -0.0000 C   0  0  0  0  0  0  0  0  0  0  0  0
   15.4703   -4.3637   -0.0000 F   0  0  0  0  0  0  0  0  0  0  0  0
   14.1671   -6.6352   -0.0000 C   0  0  0  0  0  0  0  0  0  0  0  0
   12.8640   -8.8948   -0.0000 C   0  0  0  0  0  0  0  0  0  0  0  0
   11.5489   -9.6360   -0.0000 C   0  0  0  0  0  0  0  0  0  0  0  0
   14.1552   -9.6241   -0.0000 C   0  0  0  0  0  0  0  0  0  0  0  0
   11.5369  -11.1305   -0.0000 C   0  0  0  0  0  0  0  0  0  0  0  0
   14.1432  -11.1185   -0.0000 C   0  0  0  0  0  0  0  0  0  0  0  0
   12.8281  -11.8717   -0.0000 N   0  0  0  0  0  0  0  0  0  0  0  0
  1  2  2  0  0  0  0
  1  3  2  0  0  0  0
  1  4  1  0  0  0  0
  1  5  1  0  0  0  0
  4  6  1  0  0  0  0
  4  7  1  0  0  0  0
  5  8  1  0  0  0  0
  6  9  1  0  0  0  0
  7 10  1  0  0  0  0
  9 11  1  0  0  0  0
 11 12  1  0  0  0  0
 12 13  2  0  0  0  0
 12 14  1  0  0  0  0
 13 15  1  0  0  0  0
 14 16  2  0  0  0  0
 15 17  2  0  0  0  0
 17 18  1  0  0  0  0
 18 19  2  0  0  0  0
 19 20  1  0  0  0  0
 20 21  2  0  0  0  0
 20 22  1  0  0  0  0
 21 23  1  0  0  0  0
 22 24  2  0  0  0  0
 23 25  1  0  0  0  0
 23 26  2  0  0  0  0
 24 27  1  0  0  0  0
 27 28  2  0  0  0  0
 27 29  1  0  0  0  0
 28 30  1  0  0  0  0
 29 31  2  0  0  0  0
 30 32  2  0  0  0  0
 10 11  1  0  0  0  0
 16 17  1  0  0  0  0
 24 26  1  0  0  0  0
 31 32  1  0  0  0  0
M  END
>  <MolRegNo>
2257975

>  <m>
=

>  <Value>
243

>  <Unit>
nM

>  <Type>
IC50

>  <pValue>
6.61

>  <Ligand Efficiency>
0

>  <Binding Efficiency>
0

>  <Surface Efficiency>
0

>  <Assay Index>
1131341

>  <Assay Category>


>  <Assay Organism>
Homo sapiens

>  <Target ID>
17045

>  <Target Name>
Cytochrome P450 3A4

>  <Target Organism>
Homo sapiens

>  <Target Description>
Target is a single protein chain

>  <Sequence Accession>
P08684

>  <Reference>
Bioorg Med Chem Lett 28 (13), 2270-2274 (2018)

>  <Pubmed ID>
29803730

>  <DOI>
10.1016/j.bmcl.2018.05.040

$$$$
2260059
Actelion Java MolfileCreator 1.0

 34 37  0  0  0  0  0  0  0  0999 V2000
    0.0000   -0.0000   -0.0000 S   0  0  0  0  0  0  0  0  0  0  0  0
   -0.7773    1.3273   -0.0000 O   0  0  0  0  0  0  0  0  0  0  0  0
    0.7414    1.3273   -0.0000 O   0  0  0  0  0  0  0  0  0  0  0  0
    1.2915   -0.7534   -0.0000 N   0  0  0  0  0  0  0  0  0  0  0  0
   -1.3273   -0.7294   -0.0000 C   0  0  0  0  0  0  0  0  0  0  0  0
    2.5949    0.0120   -0.0000 C   0  0  0  0  0  0  0  0  0  0  0  0
    1.2795   -2.2481   -0.0000 C   0  0  0  0  0  0  0  0  0  0  0  0
   -2.6427   -1.4708   -0.0000 F   0  0  0  0  0  0  0  0  0  0  0  0
   -1.3393   -2.2242   -0.0000 F   0  0  0  0  0  0  0  0  0  0  0  0
   -2.6308    0.0359   -0.0000 F   0  0  0  0  0  0  0  0  0  0  0  0
    3.8863   -0.7294   -0.0000 C   0  0  0  0  0  0  0  0  0  0  0  0
    2.5710   -3.0015   -0.0000 C   0  0  0  0  0  0  0  0  0  0  0  0
    3.8744   -2.2242   -0.0000 N   0  0  0  0  0  0  0  0  0  0  0  0
    5.1658   -2.9656   -0.0000 C   0  0  0  0  0  0  0  0  0  0  0  0
    6.4573   -2.2003   -0.0000 C   0  0  0  0  0  0  0  0  0  0  0  0
    5.1539   -4.4723   -0.0000 C   0  0  0  0  0  0  0  0  0  0  0  0
    7.7488   -2.9417   -0.0000 C   0  0  0  0  0  0  0  0  0  0  0  0
    6.4453   -5.2017   -0.0000 C   0  0  0  0  0  0  0  0  0  0  0  0
    7.7249   -4.4364   -0.0000 C   0  0  0  0  0  0  0  0  0  0  0  0
    9.0163   -5.1778   -0.0000 C   0  0  0  0  0  0  0  0  0  0  0  0
   10.3078   -4.4125   -0.0000 C   0  0  0  0  0  0  0  0  0  0  0  0
   11.5992   -5.1539   -0.0000 C   0  0  0  0  0  0  0  0  0  0  0  0
   12.8907   -4.3886   -0.0000 C   0  0  0  0  0  0  0  0  0  0  0  0
   11.5873   -6.6606   -0.0000 C   0  0  0  0  0  0  0  0  0  0  0  0
   14.1822   -5.1300   -0.0000 C   0  0  0  0  0  0  0  0  0  0  0  0
   12.8787   -7.4020   -0.0000 C   0  0  0  0  0  0  0  0  0  0  0  0
   15.4736   -4.3647   -0.0000 F   0  0  0  0  0  0  0  0  0  0  0  0
   14.1702   -6.6367   -0.0000 C   0  0  0  0  0  0  0  0  0  0  0  0
   12.8668   -8.8967   -0.0000 C   0  0  0  0  0  0  0  0  0  0  0  0
   11.5514   -9.6381   -0.0000 C   0  0  0  0  0  0  0  0  0  0  0  0
   14.1582   -9.6262   -0.0000 C   0  0  0  0  0  0  0  0  0  0  0  0
   11.5394  -11.1329   -0.0000 C   0  0  0  0  0  0  0  0  0  0  0  0
   14.1463  -11.1209   -0.0000 C   0  0  0  0  0  0  0  0  0  0  0  0
   12.8309  -11.8743   -0.0000 N   0  0  0  0  0  0  0  0  0  0  0  0
  1  2  2  0  0  0  0
  1  3  2  0  0  0  0
  1  4  1  0  0  0  0
  1  5  1  0  0  0  0
  4  6  1  0  0  0  0
  4  7  1  0  0  0  0
  5  8  1  0  0  0  0
  5  9  1  0  0  0  0
  5 10  1  0  0  0  0
  6 11  1  0  0  0  0
  7 12  1  0  0  0  0
 11 13  1  0  0  0  0
 13 14  1  0  0  0  0
 14 15  2  0  0  0  0
 14 16  1  0  0  0  0
 15 17  1  0  0  0  0
 16 18  2  0  0  0  0
 17 19  2  0  0  0  0
 19 20  1  0  0  0  0
 20 21  2  0  0  0  0
 21 22  1  0  0  0  0
 22 23  2  0  0  0  0
 22 24  1  0  0  0  0
 23 25  1  0  0  0  0
 24 26  2  0  0  0  0
 25 27  1  0  0  0  0
 25 28  2  0  0  0  0
 26 29  1  0  0  0  0
 29 30  2  0  0  0  0
 29 31  1  0  0  0  0
 30 32  1  0  0  0  0
 31 33  2  0  0  0  0
 32 34  2  0  0  0  0
 12 13  1  0  0  0  0
 18 19  1  0  0  0  0
 26 28  1  0  0  0  0
 33 34  1  0  0  0  0
M  END
>  <MolRegNo>
2260059

>  <m>
=

>  <Value>
9360

>  <Unit>
nM

>  <Type>
IC50

>  <pValue>
5.03

>  <Ligand Efficiency>
0

>  <Binding Efficiency>
0

>  <Surface Efficiency>
0

>  <Assay Index>
1131341

>  <Assay Category>


>  <Assay Organism>
Homo sapiens

>  <Target ID>
17045

>  <Target Name>
Cytochrome P450 3A4

>  <Target Organism>
Homo sapiens

>  <Target Description>
Target is a single protein chain

>  <Sequence Accession>
P08684

>  <Reference>
Bioorg Med Chem Lett 28 (13), 2270-2274 (2018)

>  <Pubmed ID>
29803730

>  <DOI>
10.1016/j.bmcl.2018.05.040

$$$$
2259008
Actelion Java MolfileCreator 1.0

 42 46  0  0  0  0  0  0  0  0999 V2000
    0.0000   -0.0000   -0.0000 O   0  0  0  0  0  0  0  0  0  0  0  0
    1.2926    0.7590   -0.0000 C   0  0  0  0  0  0  0  0  0  0  0  0
    2.5852    0.0237   -0.0000 N   0  0  0  0  0  0  0  0  0  0  0  0
    1.2807    2.2769   -0.0000 N   0  0  0  0  0  0  0  0  0  0  0  0
    3.8778    0.7827   -0.0000 C   0  0  0  0  0  0  0  0  0  0  0  0
    2.5733   -1.4705   -0.0000 C   0  0  0  0  0  0  0  0  0  0  0  0
    2.5733    3.0358   -0.0000 C   0  0  0  0  0  0  0  0  0  0  0  0
   -0.0356    3.0358   -0.0000 C   0  0  0  0  0  0  0  0  0  0  0  0
    5.1704    0.0474   -0.0000 N   0  0  0  0  0  0  0  0  0  0  0  0
    3.8659    2.3006   -0.0000 C   0  0  0  0  0  0  0  0  0  0  0  0
    1.2570   -2.2176   -0.0000 C   0  0  0  0  0  0  0  0  0  0  0  0
    3.8659   -2.2176   -0.0000 C   0  0  0  0  0  0  0  0  0  0  0  0
    2.5615    4.5538   -0.0000 O   0  0  0  0  0  0  0  0  0  0  0  0
   -1.3519    2.2887   -0.0000 C   0  0  0  0  0  0  0  0  0  0  0  0
   -0.0474    4.5538   -0.0000 C   0  0  0  0  0  0  0  0  0  0  0  0
    6.4630    0.8064   -0.0000 C   0  0  0  0  0  0  0  0  0  0  0  0
    5.1586    3.0596   -0.0000 C   0  0  0  0  0  0  0  0  0  0  0  0
    1.2452   -3.7118   -0.0000 C   0  0  0  0  0  0  0  0  0  0  0  0
    3.8541   -3.7118   -0.0000 C   0  0  0  0  0  0  0  0  0  0  0  0
    6.4512    2.3243   -0.0000 N   0  0  0  0  0  0  0  0  0  0  0  0
    7.7556    0.0712   -0.0000 N   0  0  0  0  0  0  0  0  0  0  0  0
   -0.0712   -4.4589   -0.0000 N   0  0  0  0  0  0  0  0  0  0  0  0
    2.5378   -4.4589   -0.0000 C   0  0  0  0  0  0  0  0  0  0  0  0
    7.7438   -1.4230   -0.0000 C   0  0  0  0  0  0  0  0  0  0  0  0
   -0.0830   -5.9531   -0.0000 C   0  0  0  0  0  0  0  0  0  0  0  0
    9.0364   -2.1701   -0.0000 C   0  0  0  0  0  0  0  0  0  0  0  0
    6.4274   -2.1701   -0.0000 C   0  0  0  0  0  0  0  0  0  0  0  0
    1.2096   -6.6883   -0.0000 O   0  0  0  0  0  0  0  0  0  0  0  0
   -1.3993   -6.6883   -0.0000 C   0  0  0  0  0  0  0  0  0  0  0  0
   10.3290   -1.4112   -0.0000 O   0  0  0  0  0  0  0  0  0  0  0  0
    9.0245   -3.6643   -0.0000 C   0  0  0  0  0  0  0  0  0  0  0  0
    6.4156   -3.6643   -0.0000 C   0  0  0  0  0  0  0  0  0  0  0  0
   -1.4112   -8.1825   -0.0000 C   0  0  0  0  0  0  0  0  0  0  0  0
   11.6216   -2.1583   -0.0000 C   0  0  0  0  0  0  0  0  0  0  0  0
    7.7082   -4.4115   -0.0000 C   0  0  0  0  0  0  0  0  0  0  0  0
    7.6963   -5.9057   -0.0000 N   0  0  0  0  0  0  0  0  0  0  0  0
    8.9889   -6.6409   -0.0000 C   0  0  0  0  0  0  0  0  0  0  0  0
    6.3800   -6.6409   -0.0000 C   0  0  0  0  0  0  0  0  0  0  0  0
    8.9771   -8.1351   -0.0000 C   0  0  0  0  0  0  0  0  0  0  0  0
    6.3681   -8.1351   -0.0000 C   0  0  0  0  0  0  0  0  0  0  0  0
    7.6607   -8.8703   -0.0000 N   0  0  0  0  0  0  0  0  0  0  0  0
    7.6489  -10.3645   -0.0000 C   0  0  0  0  0  0  0  0  0  0  0  0
  1  2  2  0  0  0  0
  2  3  1  0  0  0  0
  2  4  1  0  0  0  0
  3  5  1  0  0  0  0
  3  6  1  0  0  0  0
  4  7  1  0  0  0  0
  4  8  1  0  0  0  0
  5  9  2  0  0  0  0
  5 10  1  0  0  0  0
  6 11  2  0  0  0  0
  6 12  1  0  0  0  0
  7 13  2  0  0  0  0
  8 14  1  0  0  0  0
  8 15  1  0  0  0  0
  9 16  1  0  0  0  0
 10 17  2  0  0  0  0
 11 18  1  0  0  0  0
 12 19  2  0  0  0  0
 16 20  2  0  0  0  0
 16 21  1  0  0  0  0
 18 22  1  0  0  0  0
 18 23  2  0  0  0  0
 21 24  1  0  0  0  0
 22 25  1  0  0  0  0
 24 26  2  0  0  0  0
 24 27  1  0  0  0  0
 25 28  2  0  0  0  0
 25 29  1  0  0  0  0
 26 30  1  0  0  0  0
 26 31  1  0  0  0  0
 27 32  2  0  0  0  0
 29 33  2  0  0  0  0
 30 34  1  0  0  0  0
 31 35  2  0  0  0  0
 35 36  1  0  0  0  0
 36 37  1  0  0  0  0
 36 38  1  0  0  0  0
 37 39  1  0  0  0  0
 38 40  1  0  0  0  0
 39 41  1  0  0  0  0
 41 42  1  0  0  0  0
  7 10  1  0  0  0  0
 17 20  1  0  0  0  0
 19 23  1  0  0  0  0
 32 35  1  0  0  0  0
 40 41  1  0  0  0  0
M  END
>  <MolRegNo>
2259008

>  <m>
=

>  <Value>
23900

>  <Unit>
nM

>  <Type>
IC50

>  <pValue>
4.62

>  <Ligand Efficiency>
0

>  <Binding Efficiency>
0

>  <Surface Efficiency>
0

>  <Assay Index>
1132685

>  <Assay Category>


>  <Assay Organism>
Homo sapiens

>  <Target ID>
17045

>  <Target Name>
Cytochrome P450 3A4

>  <Target Organism>
Homo sapiens

>  <Target Description>
Target is a single protein chain

>  <Sequence Accession>
P08684

>  <Reference>
J Med Chem 61 (13), 5609-5622 (2018)

>  <Pubmed ID>
29906114

>  <DOI>
10.1021/acs.jmedchem.8b00346

$$$$
2278471
Actelion Java MolfileCreator 1.0

 34 39  0  0  0  0  0  0  0  0999 V2000
    0.0000   -0.0000   -0.0000 O   0  0  0  0  0  0  0  0  0  0  0  0
    1.2931   -0.7423   -0.0000 C   0  0  0  0  0  0  0  0  0  0  0  0
    2.5861    0.0239   -0.0000 N   0  0  0  0  0  0  0  0  0  0  0  0
    1.2811   -2.2389   -0.0000 C   0  0  0  0  0  0  0  0  0  0  0  0
    2.5742   -2.9812   -0.0000 C   0  0  0  0  0  0  0  0  0  0  0  0
   -0.0359   -2.9812   -0.0000 C   0  0  0  0  0  0  0  0  0  0  0  0
    4.0109   -2.4903   -0.0000 N   0  0  0  0  0  0  0  0  0  0  0  0
    2.5742   -4.4898   -0.0000 C   0  0  0  0  0  0  0  0  0  0  0  0
   -0.0479   -4.4778   -0.0000 C   0  0  0  0  0  0  0  0  0  0  0  0
    4.8969   -3.6996   -0.0000 C   0  0  0  0  0  0  0  0  0  0  0  0
    4.0109   -4.9448   -0.0000 N   0  0  0  0  0  0  0  0  0  0  0  0
    1.2452   -5.2321   -0.0000 C   0  0  0  0  0  0  0  0  0  0  0  0
    6.3935   -3.6756   -0.0000 C   0  0  0  0  0  0  0  0  0  0  0  0
    7.1238   -2.3586   -0.0000 C   0  0  0  0  0  0  0  0  0  0  0  0
    7.1478   -4.9687   -0.0000 C   0  0  0  0  0  0  0  0  0  0  0  0
    8.6204   -2.3347   -0.0000 C   0  0  0  0  0  0  0  0  0  0  0  0
    8.6444   -4.9448   -0.0000 C   0  0  0  0  0  0  0  0  0  0  0  0
    9.3508   -1.0057   -0.0000 N   0  0  0  0  0  0  0  0  0  0  0  0
    9.3747   -3.6278   -0.0000 C   0  0  0  0  0  0  0  0  0  0  0  0
   10.8474   -0.9818   -0.0000 C   0  0  0  0  0  0  0  0  0  0  0  0
   11.6016   -2.2629   -0.0000 C   0  0  0  0  0  0  0  0  0  0  0  0
   11.5657    0.3352   -0.0000 C   0  0  0  0  0  0  0  0  0  0  0  0
   13.0863   -2.2389   -0.0000 C   0  0  0  0  0  0  0  0  0  0  0  0
   10.8474   -3.5559   -0.0000 C   0  0  0  0  0  0  0  0  0  0  0  0
   13.0623    0.3592   -0.0000 C   0  0  0  0  0  0  0  0  0  0  0  0
   10.7875    1.6283   -0.0000 C   0  0  0  0  0  0  0  0  0  0  0  0
   13.8166   -0.9099   -0.0000 N   0  0  0  0  0  0  0  0  0  0  0  0
   13.8286   -3.5080   -0.0000 C   0  0  0  0  0  0  0  0  0  0  0  0
   11.5897   -4.8370   -0.0000 C   0  0  0  0  0  0  0  0  0  0  0  0
   13.7807    1.6762   -0.0000 C   0  0  0  0  0  0  0  0  0  0  0  0
   11.5059    2.9453   -0.0000 C   0  0  0  0  0  0  0  0  0  0  0  0
   13.0863   -4.8011   -0.0000 C   0  0  0  0  0  0  0  0  0  0  0  0
   15.3252   -3.4841   -0.0000 C   0  0  0  0  0  0  0  0  0  0  0  0
   13.0025    2.9812   -0.0000 C   0  0  0  0  0  0  0  0  0  0  0  0
  1  2  2  0  0  0  0
  2  3  1  0  0  0  0
  2  4  1  0  0  0  0
  4  5  2  0  0  0  0
  4  6  1  0  0  0  0
  5  7  1  0  0  0  0
  5  8  1  0  0  0  0
  6  9  2  0  0  0  0
  7 10  2  0  0  0  0
  8 11  1  0  0  0  0
  8 12  2  0  0  0  0
 10 13  1  0  0  0  0
 13 14  2  0  0  0  0
 13 15  1  0  0  0  0
 14 16  1  0  0  0  0
 15 17  2  0  0  0  0
 16 18  1  0  0  0  0
 16 19  2  0  0  0  0
 18 20  1  0  0  0  0
 20 21  1  0  0  0  0
 20 22  2  0  0  0  0
 21 23  1  0  0  0  0
 21 24  2  0  0  0  0
 22 25  1  0  0  0  0
 22 26  1  0  0  0  0
 23 27  1  0  0  0  0
 23 28  2  0  0  0  0
 24 29  1  0  0  0  0
 25 30  1  0  0  0  0
 26 31  2  0  0  0  0
 28 32  1  0  0  0  0
 28 33  1  0  0  0  0
 30 34  2  0  0  0  0
  9 12  1  0  0  0  0
 10 11  1  0  0  0  0
 17 19  1  0  0  0  0
 25 27  2  0  0  0  0
 29 32  2  0  0  0  0
 31 34  1  0  0  0  0
M  END
>  <MolRegNo>
2278471

>  <m>
=

>  <Value>
6800

>  <Unit>
nM

>  <Type>
IC50

>  <pValue>
5.17

>  <Ligand Efficiency>
0

>  <Binding Efficiency>
0

>  <Surface Efficiency>
0

>  <Assay Index>
1134801

>  <Assay Category>


>  <Assay Organism>
Homo sapiens

>  <Target ID>
17045

>  <Target Name>
Cytochrome P450 3A4

>  <Target Organism>
Homo sapiens

>  <Target Description>
Target is a single protein chain

>  <Sequence Accession>
P08684

>  <Reference>


>  <Pubmed ID>
28763648

>  <DOI>
10.1016/j.ejmech.2017.07.050

$$$$
2277962
Actelion Java MolfileCreator 1.0

 37 40  0  0  0  0  0  0  0  0999 V2000
    0.0000   -0.0000   -0.0000 F   0  0  0  0  0  0  0  0  0  0  0  0
   -1.1823   -0.6825   -0.0000 C   0  0  0  0  0  0  0  0  0  0  0  0
    0.2681   -1.2188   -0.0000 F   0  0  0  0  0  0  0  0  0  0  0  0
   -0.9507    0.8776   -0.0000 F   0  0  0  0  0  0  0  0  0  0  0  0
   -2.4864   -1.4260   -0.0000 C   0  0  0  0  0  0  0  0  0  0  0  0
   -3.7906   -0.6704   -0.0000 N   0  0  0  0  0  0  0  0  0  0  0  0
   -2.4864   -2.9130   -0.0000 C   0  0  0  0  0  0  0  0  0  0  0  0
   -5.0947   -1.4139   -0.0000 C   0  0  0  0  0  0  0  0  0  0  0  0
   -3.8150    0.8410   -0.0000 C   0  0  0  0  0  0  0  0  0  0  0  0
   -6.3989   -0.6582   -0.0000 O   0  0  0  0  0  0  0  0  0  0  0  0
   -5.0947   -2.9008   -0.0000 C   0  0  0  0  0  0  0  0  0  0  0  0
   -5.1191    1.5967   -0.0000 C   0  0  0  0  0  0  0  0  0  0  0  0
   -6.3989   -3.6443   -0.0000 N   0  0  0  0  0  0  0  0  0  0  0  0
   -5.1313    3.0959   -0.0000 C   0  0  0  0  0  0  0  0  0  0  0  0
   -6.4111    0.8532   -0.0000 C   0  0  0  0  0  0  0  0  0  0  0  0
   -7.8128   -3.1080   -0.0000 C   0  0  0  0  0  0  0  0  0  0  0  0
   -6.4842   -5.1191   -0.0000 C   0  0  0  0  0  0  0  0  0  0  0  0
   -6.4355    3.8515   -0.0000 C   0  0  0  0  0  0  0  0  0  0  0  0
   -7.7153    1.5967   -0.0000 C   0  0  0  0  0  0  0  0  0  0  0  0
   -8.2150   -1.6576   -0.0000 O   0  0  0  0  0  0  0  0  0  0  0  0
   -8.7635   -4.2659   -0.0000 O   0  0  0  0  0  0  0  0  0  0  0  0
   -5.3263   -6.0454   -0.0000 O   0  0  0  0  0  0  0  0  0  0  0  0
   -7.9346   -5.4970   -0.0000 C   0  0  0  0  0  0  0  0  0  0  0  0
   -7.7396    3.1080   -0.0000 C   0  0  0  0  0  0  0  0  0  0  0  0
   -9.3851   -5.9601   -0.0000 C   0  0  0  0  0  0  0  0  0  0  0  0
   -7.0571   -6.7036   -0.0000 C   0  0  0  0  0  0  0  0  0  0  0  0
   -9.3851   -7.4471   -0.0000 C   0  0  0  0  0  0  0  0  0  0  0  0
  -10.6892   -5.2044   -0.0000 C   0  0  0  0  0  0  0  0  0  0  0  0
   -7.9468   -7.9103   -0.0000 C   0  0  0  0  0  0  0  0  0  0  0  0
  -10.7014   -8.1784   -0.0000 C   0  0  0  0  0  0  0  0  0  0  0  0
  -11.9934   -5.9357   -0.0000 C   0  0  0  0  0  0  0  0  0  0  0  0
  -12.0056   -7.4227   -0.0000 C   0  0  0  0  0  0  0  0  0  0  0  0
  -13.3097   -8.1540   -0.0000 N   0  0  0  0  0  0  0  0  0  0  0  0
  -14.6139   -7.3984   -0.0000 C   0  0  0  0  0  0  0  0  0  0  0  0
  -14.6261   -5.8870   -0.0000 O   0  0  0  0  0  0  0  0  0  0  0  0
  -15.9180   -8.1297   -0.0000 N   0  0  0  0  0  0  0  0  0  0  0  0
  -17.2222   -7.3740   -0.0000 C   0  0  0  0  0  0  0  0  0  0  0  0
  1  2  1  0  0  0  0
  2  3  1  0  0  0  0
  2  4  1  0  0  0  0
  2  5  1  0  0  0  0
  5  6  1  1  0  0  0
  5  7  1  0  0  0  0
  6  8  1  0  0  0  0
  6  9  1  0  0  0  0
  8 10  2  0  0  0  0
  8 11  1  0  0  0  0
  9 12  1  0  0  0  0
 11 13  1  0  0  0  0
 12 14  2  0  0  0  0
 12 15  1  0  0  0  0
 13 16  1  0  0  0  0
 13 17  1  0  0  0  0
 14 18  1  0  0  0  0
 15 19  2  0  0  0  0
 16 20  2  0  0  0  0
 16 21  1  0  0  0  0
 17 22  2  0  0  0  0
 23 17  1  6  0  0  0
 18 24  2  0  0  0  0
 23 25  1  0  0  0  0
 23 26  1  0  0  0  0
 25 27  2  0  0  0  0
 25 28  1  0  0  0  0
 26 29  1  0  0  0  0
 27 30  1  0  0  0  0
 28 31  2  0  0  0  0
 30 32  2  0  0  0  0
 32 33  1  0  0  0  0
 33 34  1  0  0  0  0
 34 35  2  0  0  0  0
 34 36  1  0  0  0  0
 36 37  1  0  0  0  0
 19 24  1  0  0  0  0
 21 23  1  0  0  0  0
 27 29  1  0  0  0  0
 31 32  1  0  0  0  0
M  END
>  <MolRegNo>
2277962

>  <m>
=

>  <Value>
24000

>  <Unit>
nM

>  <Type>
IC50

>  <pValue>
4.62

>  <Ligand Efficiency>
0

>  <Binding Efficiency>
0

>  <Surface Efficiency>
0

>  <Assay Index>
1146419

>  <Assay Category>


>  <Assay Organism>
Homo sapiens

>  <Target ID>
17045

>  <Target Name>
Cytochrome P450 3A4

>  <Target Organism>
Homo sapiens

>  <Target Description>
Target is a single protein chain

>  <Sequence Accession>
P08684

>  <Reference>
ACS Med Chem Lett 9 (1), 28-33 (2018)

>  <Pubmed ID>
29348807

>  <DOI>
10.1021/acsmedchemlett.7b00395

$$$$
2270552
Actelion Java MolfileCreator 1.0

 31 35  0  0  0  0  0  0  0  0999 V2000
    0.0000   -0.0000   -0.0000 N   0  0  0  0  0  0  0  0  0  0  0  0
    1.2971    0.7735   -0.0000 C   0  0  0  0  0  0  0  0  0  0  0  0
   -1.3209    0.7616   -0.0000 C   0  0  0  0  0  0  0  0  0  0  0  0
    1.2733    2.2967   -0.0000 C   0  0  0  0  0  0  0  0  0  0  0  0
    2.5942    0.0357   -0.0000 C   0  0  0  0  0  0  0  0  0  0  0  0
   -1.3328    2.2848   -0.0000 C   0  0  0  0  0  0  0  0  0  0  0  0
   -0.0476    3.0583   -0.0000 C   0  0  0  0  0  0  0  0  0  0  0  0
    2.5585    3.0702   -0.0000 C   0  0  0  0  0  0  0  0  0  0  0  0
    2.5823   -1.4518   -0.0000 N   0  0  0  0  0  0  0  0  0  0  0  0
    3.8913    0.8092   -0.0000 C   0  0  0  0  0  0  0  0  0  0  0  0
    3.8556    2.3324   -0.0000 C   0  0  0  0  0  0  0  0  0  0  0  0
    3.8794   -2.1896   -0.0000 C   0  0  0  0  0  0  0  0  0  0  0  0
    1.2733   -2.2015   -0.0000 C   0  0  0  0  0  0  0  0  0  0  0  0
    5.1646   -1.4161   -0.0000 C   0  0  0  0  0  0  0  0  0  0  0  0
    1.2614   -3.6890   -0.0000 C   0  0  0  0  0  0  0  0  0  0  0  0
    6.4617   -2.1658   -0.0000 C   0  0  0  0  0  0  0  0  0  0  0  0
    5.1527    0.0952   -0.0000 C   0  0  0  0  0  0  0  0  0  0  0  0
   -0.0476   -4.4268   -0.0000 N   0  0  0  0  0  0  0  0  0  0  0  0
    2.5585   -4.4268   -0.0000 C   0  0  0  0  0  0  0  0  0  0  0  0
    7.7469   -1.4042   -0.0000 C   0  0  0  0  0  0  0  0  0  0  0  0
    6.4498   -3.6533   -0.0000 C   0  0  0  0  0  0  0  0  0  0  0  0
    6.4498    0.8568   -0.0000 C   0  0  0  0  0  0  0  0  0  0  0  0
   -0.0595   -5.9143   -0.0000 C   0  0  0  0  0  0  0  0  0  0  0  0
    2.5466   -5.9262   -0.0000 C   0  0  0  0  0  0  0  0  0  0  0  0
    7.7350    0.1190   -0.0000 C   0  0  0  0  0  0  0  0  0  0  0  0
    7.7469   -4.3911   -0.0000 N   0  0  0  0  0  0  0  0  0  0  0  0
    1.2376   -6.6521   -0.0000 C   0  0  0  0  0  0  0  0  0  0  0  0
    3.8318   -6.6640   -0.0000 C   0  0  0  0  0  0  0  0  0  0  0  0
    1.2257   -8.1396   -0.0000 C   0  0  0  0  0  0  0  0  0  0  0  0
    3.8199   -8.1515   -0.0000 C   0  0  0  0  0  0  0  0  0  0  0  0
    2.5109   -8.8774   -0.0000 C   0  0  0  0  0  0  0  0  0  0  0  0
  1  2  2  0  0  0  0
  1  3  1  0  0  0  0
  2  4  1  0  0  0  0
  2  5  1  0  0  0  0
  3  6  2  0  0  0  0
  4  7  2  0  0  0  0
  4  8  1  0  0  0  0
  5  9  1  6  0  0  0
  5 10  1  0  0  0  0
  8 11  1  0  0  0  0
  9 12  1  0  0  0  0
  9 13  1  0  0  0  0
 12 14  1  0  0  0  0
 15 13  1  1  0  0  0
 14 16  2  0  0  0  0
 14 17  1  0  0  0  0
 15 18  1  0  0  0  0
 15 19  1  0  0  0  0
 16 20  1  0  0  0  0
 16 21  1  0  0  0  0
 17 22  1  0  0  0  0
 18 23  1  0  0  0  0
 19 24  1  0  0  0  0
 20 25  1  0  0  0  0
 21 26  1  0  0  0  0
 23 27  1  0  0  0  0
 24 28  1  0  0  0  0
 27 29  1  0  0  0  0
 28 30  2  0  0  0  0
 29 31  2  0  0  0  0
  6  7  1  0  0  0  0
 10 11  1  0  0  0  0
 22 25  1  0  0  0  0
 24 27  2  0  0  0  0
 30 31  1  0  0  0  0
M  END
>  <MolRegNo>
2270552

>  <m>
=

>  <Value>
11000

>  <Unit>
nM

>  <Type>
IC50

>  <pValue>
4.96

>  <Ligand Efficiency>
0

>  <Binding Efficiency>
0

>  <Surface Efficiency>
0

>  <Assay Index>
1146923

>  <Assay Category>


>  <Assay Organism>
Homo sapiens

>  <Target ID>
17045

>  <Target Name>
Cytochrome P450 3A4

>  <Target Organism>
Homo sapiens

>  <Target Description>
Target is a single protein chain

>  <Sequence Accession>
P08684

>  <Reference>
ACS Med Chem Lett 9 (2), 89-93 (2018)

>  <Pubmed ID>
29456793

>  <DOI>
10.1021/acsmedchemlett.7b00406

$$$$
2277758
Actelion Java MolfileCreator 1.0

 29 32  0  0  0  0  0  0  0  0999 V2000
    0.0000   -0.0000   -0.0000 F   0  0  0  0  0  0  0  0  0  0  0  0
   -1.3039   -0.7468   -0.0000 C   0  0  0  0  0  0  0  0  0  0  0  0
   -2.6196    0.0119   -0.0000 C   0  0  0  0  0  0  0  0  0  0  0  0
   -1.3157   -2.2285   -0.0000 C   0  0  0  0  0  0  0  0  0  0  0  0
   -3.9235   -0.7349   -0.0000 C   0  0  0  0  0  0  0  0  0  0  0  0
   -2.6315    1.5172   -0.0000 C   0  0  0  0  0  0  0  0  0  0  0  0
   -0.0237   -2.9634   -0.0000 N   0  0  0  0  0  0  0  0  0  0  0  0
   -5.2392    0.0237   -0.0000 N   0  0  0  0  0  0  0  0  0  0  0  0
   -5.2511    1.5291   -0.0000 C   0  0  0  0  0  0  0  0  0  0  0  0
   -6.5431   -0.7231   -0.0000 C   0  0  0  0  0  0  0  0  0  0  0  0
   -6.5668    2.2877   -0.0000 C   0  0  0  0  0  0  0  0  0  0  0  0
   -3.9591    2.2996   -0.0000 C   0  0  0  0  0  0  0  0  0  0  0  0
   -6.5550   -2.2047   -0.0000 C   0  0  0  0  0  0  0  0  0  0  0  0
   -7.8826    1.5410   -0.0000 N   0  0  0  0  0  0  0  0  0  0  0  0
   -6.5905    3.8050   -0.0000 C   0  0  0  0  0  0  0  0  0  0  0  0
   -3.9828    3.8168   -0.0000 C   0  0  0  0  0  0  0  0  0  0  0  0
   -7.8588   -2.9397   -0.0000 N   0  0  0  0  0  0  0  0  0  0  0  0
   -5.2629   -2.9397   -0.0000 C   0  0  0  0  0  0  0  0  0  0  0  0
   -9.1983    2.2996   -0.0000 C   0  0  0  0  0  0  0  0  0  0  0  0
   -7.9063    4.5636   -0.0000 C   0  0  0  0  0  0  0  0  0  0  0  0
   -5.3104    4.5754   -0.0000 C   0  0  0  0  0  0  0  0  0  0  0  0
   -7.8707   -4.4213   -0.0000 C   0  0  0  0  0  0  0  0  0  0  0  0
   -5.2748   -4.4332   -0.0000 C   0  0  0  0  0  0  0  0  0  0  0  0
   -9.2101    3.8168   -0.0000 C   0  0  0  0  0  0  0  0  0  0  0  0
   -6.5787   -5.1563   -0.0000 C   0  0  0  0  0  0  0  0  0  0  0  0
   -3.9946   -5.1681   -0.0000 C   0  0  0  0  0  0  0  0  0  0  0  0
   -6.5905   -6.6379   -0.0000 C   0  0  0  0  0  0  0  0  0  0  0  0
   -4.0065   -6.6498   -0.0000 C   0  0  0  0  0  0  0  0  0  0  0  0
   -5.3104   -7.3729   -0.0000 C   0  0  0  0  0  0  0  0  0  0  0  0
  1  2  1  0  0  0  0
  2  3  2  0  0  0  0
  2  4  1  0  0  0  0
  3  5  1  0  0  0  0
  3  6  1  0  0  0  0
  4  7  1  0  0  0  0
  5  8  1  0  0  0  0
  9  8  1  6  0  0  0
  8 10  1  0  0  0  0
  9 11  1  0  0  0  0
  9 12  1  0  0  0  0
 13 10  1  1  0  0  0
 11 14  2  0  0  0  0
 11 15  1  0  0  0  0
 12 16  1  0  0  0  0
 13 17  1  0  0  0  0
 13 18  1  0  0  0  0
 14 19  1  0  0  0  0
 15 20  2  0  0  0  0
 15 21  1  0  0  0  0
 17 22  1  0  0  0  0
 18 23  1  0  0  0  0
 19 24  2  0  0  0  0
 22 25  1  0  0  0  0
 23 26  1  0  0  0  0
 25 27  1  0  0  0  0
 26 28  2  0  0  0  0
 27 29  2  0  0  0  0
 16 21  1  0  0  0  0
 20 24  1  0  0  0  0
 23 25  2  0  0  0  0
 28 29  1  0  0  0  0
M  END
>  <MolRegNo>
2277758

>  <m>
=

>  <Value>
13000

>  <Unit>
nM

>  <Type>
IC50

>  <pValue>
4.89

>  <Ligand Efficiency>
0

>  <Binding Efficiency>
0

>  <Surface Efficiency>
0

>  <Assay Index>
1146923

>  <Assay Category>


>  <Assay Organism>
Homo sapiens

>  <Target ID>
17045

>  <Target Name>
Cytochrome P450 3A4

>  <Target Organism>
Homo sapiens

>  <Target Description>
Target is a single protein chain

>  <Sequence Accession>
P08684

>  <Reference>
ACS Med Chem Lett 9 (2), 89-93 (2018)

>  <Pubmed ID>
29456793

>  <DOI>
10.1021/acsmedchemlett.7b00406

$$$$
2272481
Actelion Java MolfileCreator 1.0

 29 32  0  0  0  0  0  0  0  0999 V2000
    0.0000   -0.0000   -0.0000 F   0  0  0  0  0  0  0  0  0  0  0  0
   -0.0118    1.5049   -0.0000 C   0  0  0  0  0  0  0  0  0  0  0  0
   -1.3272    2.2633   -0.0000 C   0  0  0  0  0  0  0  0  0  0  0  0
    1.2679    2.2751   -0.0000 C   0  0  0  0  0  0  0  0  0  0  0  0
   -2.6306    1.5168   -0.0000 C   0  0  0  0  0  0  0  0  0  0  0  0
   -1.3390    3.7682   -0.0000 C   0  0  0  0  0  0  0  0  0  0  0  0
    2.5595    1.5405   -0.0000 N   0  0  0  0  0  0  0  0  0  0  0  0
   -3.9459    2.2751   -0.0000 N   0  0  0  0  0  0  0  0  0  0  0  0
   -3.9578    3.7801   -0.0000 C   0  0  0  0  0  0  0  0  0  0  0  0
   -5.2494    1.5286   -0.0000 C   0  0  0  0  0  0  0  0  0  0  0  0
   -5.2731    4.5384   -0.0000 C   0  0  0  0  0  0  0  0  0  0  0  0
   -2.6662    4.5503   -0.0000 C   0  0  0  0  0  0  0  0  0  0  0  0
   -5.2613    0.0474   -0.0000 C   0  0  0  0  0  0  0  0  0  0  0  0
   -6.5884    3.7919   -0.0000 N   0  0  0  0  0  0  0  0  0  0  0  0
   -5.2968    6.0552   -0.0000 C   0  0  0  0  0  0  0  0  0  0  0  0
   -2.6899    6.0670   -0.0000 C   0  0  0  0  0  0  0  0  0  0  0  0
   -6.5647   -0.6873   -0.0000 N   0  0  0  0  0  0  0  0  0  0  0  0
   -3.9696   -0.6873   -0.0000 C   0  0  0  0  0  0  0  0  0  0  0  0
   -7.9037    4.5503   -0.0000 C   0  0  0  0  0  0  0  0  0  0  0  0
   -6.6121    6.8136   -0.0000 C   0  0  0  0  0  0  0  0  0  0  0  0
   -4.0170    6.8254   -0.0000 C   0  0  0  0  0  0  0  0  0  0  0  0
   -6.5766   -2.1685   -0.0000 C   0  0  0  0  0  0  0  0  0  0  0  0
   -3.9815   -2.1803   -0.0000 C   0  0  0  0  0  0  0  0  0  0  0  0
   -7.9156    6.0670   -0.0000 C   0  0  0  0  0  0  0  0  0  0  0  0
   -5.2850   -2.9032   -0.0000 C   0  0  0  0  0  0  0  0  0  0  0  0
   -2.7017   -2.9150   -0.0000 C   0  0  0  0  0  0  0  0  0  0  0  0
   -5.2968   -4.3844   -0.0000 C   0  0  0  0  0  0  0  0  0  0  0  0
   -2.7136   -4.3962   -0.0000 C   0  0  0  0  0  0  0  0  0  0  0  0
   -4.0170   -5.1191   -0.0000 C   0  0  0  0  0  0  0  0  0  0  0  0
  1  2  1  0  0  0  0
  2  3  2  0  0  0  0
  2  4  1  0  0  0  0
  3  5  1  0  0  0  0
  3  6  1  0  0  0  0
  4  7  1  0  0  0  0
  5  8  1  0  0  0  0
  9  8  1  6  0  0  0
  8 10  1  0  0  0  0
  9 11  1  0  0  0  0
  9 12  1  0  0  0  0
 13 10  1  1  0  0  0
 11 14  2  0  0  0  0
 11 15  1  0  0  0  0
 12 16  1  0  0  0  0
 13 17  1  0  0  0  0
 13 18  1  0  0  0  0
 14 19  1  0  0  0  0
 15 20  2  0  0  0  0
 15 21  1  0  0  0  0
 17 22  1  0  0  0  0
 18 23  1  0  0  0  0
 19 24  2  0  0  0  0
 22 25  1  0  0  0  0
 23 26  1  0  0  0  0
 25 27  1  0  0  0  0
 26 28  2  0  0  0  0
 27 29  2  0  0  0  0
 16 21  1  0  0  0  0
 20 24  1  0  0  0  0
 23 25  2  0  0  0  0
 28 29  1  0  0  0  0
M  END
>  <MolRegNo>
2272481

>  <m>
=

>  <Value>
1800

>  <Unit>
nM

>  <Type>
IC50

>  <pValue>
5.75

>  <Ligand Efficiency>
0

>  <Binding Efficiency>
0

>  <Surface Efficiency>
0

>  <Assay Index>
1146923

>  <Assay Category>


>  <Assay Organism>
Homo sapiens

>  <Target ID>
17045

>  <Target Name>
Cytochrome P450 3A4

>  <Target Organism>
Homo sapiens

>  <Target Description>
Target is a single protein chain

>  <Sequence Accession>
P08684

>  <Reference>
ACS Med Chem Lett 9 (2), 89-93 (2018)

>  <Pubmed ID>
29456793

>  <DOI>
10.1021/acsmedchemlett.7b00406

$$$$
2264559
Actelion Java MolfileCreator 1.0

 29 32  0  0  0  0  0  0  0  0999 V2000
    0.0000   -0.0000   -0.0000 F   0  0  0  0  0  0  0  0  0  0  0  0
   -0.0119   -1.4837   -0.0000 C   0  0  0  0  0  0  0  0  0  0  0  0
    1.2819   -2.2196   -0.0000 C   0  0  0  0  0  0  0  0  0  0  0  0
   -1.3175   -2.2315   -0.0000 C   0  0  0  0  0  0  0  0  0  0  0  0
    1.2700   -3.7033   -0.0000 C   0  0  0  0  0  0  0  0  0  0  0  0
    2.5638   -1.4481   -0.0000 C   0  0  0  0  0  0  0  0  0  0  0  0
   -2.6350   -1.4718   -0.0000 N   0  0  0  0  0  0  0  0  0  0  0  0
    2.5638   -4.4392   -0.0000 N   0  0  0  0  0  0  0  0  0  0  0  0
   -2.6469    0.0356   -0.0000 C   0  0  0  0  0  0  0  0  0  0  0  0
   -3.9406   -2.2196   -0.0000 C   0  0  0  0  0  0  0  0  0  0  0  0
   -3.9644    0.7953   -0.0000 C   0  0  0  0  0  0  0  0  0  0  0  0
   -1.3531    0.8071   -0.0000 C   0  0  0  0  0  0  0  0  0  0  0  0
   -3.9525   -3.7033   -0.0000 C   0  0  0  0  0  0  0  0  0  0  0  0
   -5.2819    0.0475   -0.0000 N   0  0  0  0  0  0  0  0  0  0  0  0
   -3.9881    2.3145   -0.0000 C   0  0  0  0  0  0  0  0  0  0  0  0
   -1.3769    2.3264   -0.0000 C   0  0  0  0  0  0  0  0  0  0  0  0
   -5.2582   -4.4392   -0.0000 N   0  0  0  0  0  0  0  0  0  0  0  0
   -2.6587   -4.4392   -0.0000 C   0  0  0  0  0  0  0  0  0  0  0  0
   -6.5994    0.8071   -0.0000 C   0  0  0  0  0  0  0  0  0  0  0  0
   -5.3056    3.0742   -0.0000 C   0  0  0  0  0  0  0  0  0  0  0  0
   -2.7062    3.0860   -0.0000 C   0  0  0  0  0  0  0  0  0  0  0  0
   -5.2700   -5.9228   -0.0000 C   0  0  0  0  0  0  0  0  0  0  0  0
   -2.6706   -5.9347   -0.0000 C   0  0  0  0  0  0  0  0  0  0  0  0
   -6.6113    2.3264   -0.0000 C   0  0  0  0  0  0  0  0  0  0  0  0
   -3.9763   -6.6587   -0.0000 C   0  0  0  0  0  0  0  0  0  0  0  0
   -1.3887   -6.6706   -0.0000 C   0  0  0  0  0  0  0  0  0  0  0  0
   -3.9881   -8.1424   -0.0000 C   0  0  0  0  0  0  0  0  0  0  0  0
   -1.4006   -8.1543   -0.0000 C   0  0  0  0  0  0  0  0  0  0  0  0
   -2.7062   -8.8783   -0.0000 C   0  0  0  0  0  0  0  0  0  0  0  0
  1  2  1  0  0  0  0
  2  3  2  0  0  0  0
  2  4  1  0  0  0  0
  3  5  1  0  0  0  0
  3  6  1  0  0  0  0
  4  7  1  0  0  0  0
  5  8  1  0  0  0  0
  9  7  1  6  0  0  0
  7 10  1  0  0  0  0
  9 11  1  0  0  0  0
  9 12  1  0  0  0  0
 13 10  1  1  0  0  0
 11 14  2  0  0  0  0
 11 15  1  0  0  0  0
 12 16  1  0  0  0  0
 13 17  1  0  0  0  0
 13 18  1  0  0  0  0
 14 19  1  0  0  0  0
 15 20  2  0  0  0  0
 15 21  1  0  0  0  0
 17 22  1  0  0  0  0
 18 23  1  0  0  0  0
 19 24  2  0  0  0  0
 22 25  1  0  0  0  0
 23 26  1  0  0  0  0
 25 27  1  0  0  0  0
 26 28  2  0  0  0  0
 27 29  2  0  0  0  0
 16 21  1  0  0  0  0
 20 24  1  0  0  0  0
 23 25  2  0  0  0  0
 28 29  1  0  0  0  0
M  END
>  <MolRegNo>
2264559

>  <m>
=

>  <Value>
15000

>  <Unit>
nM

>  <Type>
IC50

>  <pValue>
4.82

>  <Ligand Efficiency>
0

>  <Binding Efficiency>
0

>  <Surface Efficiency>
0

>  <Assay Index>
1146923

>  <Assay Category>


>  <Assay Organism>
Homo sapiens

>  <Target ID>
17045

>  <Target Name>
Cytochrome P450 3A4

>  <Target Organism>
Homo sapiens

>  <Target Description>
Target is a single protein chain

>  <Sequence Accession>
P08684

>  <Reference>
ACS Med Chem Lett 9 (2), 89-93 (2018)

>  <Pubmed ID>
29456793

>  <DOI>
10.1021/acsmedchemlett.7b00406

$$$$
2278531
Actelion Java MolfileCreator 1.0

 29 32  0  0  0  0  0  0  0  0999 V2000
    0.0000   -0.0000   -0.0000 F   0  0  0  0  0  0  0  0  0  0  0  0
   -0.0119   -1.4837   -0.0000 C   0  0  0  0  0  0  0  0  0  0  0  0
    1.2819   -2.2196   -0.0000 C   0  0  0  0  0  0  0  0  0  0  0  0
   -1.3175   -2.2315   -0.0000 C   0  0  0  0  0  0  0  0  0  0  0  0
    2.5638   -1.4481   -0.0000 C   0  0  0  0  0  0  0  0  0  0  0  0
    1.2700   -3.7033   -0.0000 C   0  0  0  0  0  0  0  0  0  0  0  0
   -2.6350   -1.4718   -0.0000 N   0  0  0  0  0  0  0  0  0  0  0  0
    3.8576   -2.1840   -0.0000 N   0  0  0  0  0  0  0  0  0  0  0  0
   -2.6469    0.0356   -0.0000 C   0  0  0  0  0  0  0  0  0  0  0  0
   -3.9406   -2.2196   -0.0000 C   0  0  0  0  0  0  0  0  0  0  0  0
   -3.9644    0.7953   -0.0000 C   0  0  0  0  0  0  0  0  0  0  0  0
   -1.3531    0.8071   -0.0000 C   0  0  0  0  0  0  0  0  0  0  0  0
   -3.9525   -3.7033   -0.0000 C   0  0  0  0  0  0  0  0  0  0  0  0
   -5.2819    0.0475   -0.0000 N   0  0  0  0  0  0  0  0  0  0  0  0
   -3.9881    2.3145   -0.0000 C   0  0  0  0  0  0  0  0  0  0  0  0
   -1.3769    2.3264   -0.0000 C   0  0  0  0  0  0  0  0  0  0  0  0
   -5.2582   -4.4392   -0.0000 N   0  0  0  0  0  0  0  0  0  0  0  0
   -2.6587   -4.4392   -0.0000 C   0  0  0  0  0  0  0  0  0  0  0  0
   -6.5994    0.8071   -0.0000 C   0  0  0  0  0  0  0  0  0  0  0  0
   -5.3056    3.0742   -0.0000 C   0  0  0  0  0  0  0  0  0  0  0  0
   -2.7062    3.0860   -0.0000 C   0  0  0  0  0  0  0  0  0  0  0  0
   -5.2700   -5.9228   -0.0000 C   0  0  0  0  0  0  0  0  0  0  0  0
   -2.6706   -5.9347   -0.0000 C   0  0  0  0  0  0  0  0  0  0  0  0
   -6.6113    2.3264   -0.0000 C   0  0  0  0  0  0  0  0  0  0  0  0
   -3.9763   -6.6587   -0.0000 C   0  0  0  0  0  0  0  0  0  0  0  0
   -1.3887   -6.6706   -0.0000 C   0  0  0  0  0  0  0  0  0  0  0  0
   -3.9881   -8.1424   -0.0000 C   0  0  0  0  0  0  0  0  0  0  0  0
   -1.4006   -8.1543   -0.0000 C   0  0  0  0  0  0  0  0  0  0  0  0
   -2.7062   -8.8783   -0.0000 C   0  0  0  0  0  0  0  0  0  0  0  0
  1  2  1  0  0  0  0
  2  3  2  0  0  0  0
  2  4  1  0  0  0  0
  3  5  1  0  0  0  0
  3  6  1  0  0  0  0
  4  7  1  0  0  0  0
  5  8  1  0  0  0  0
  9  7  1  6  0  0  0
  7 10  1  0  0  0  0
  9 11  1  0  0  0  0
  9 12  1  0  0  0  0
 13 10  1  1  0  0  0
 11 14  2  0  0  0  0
 11 15  1  0  0  0  0
 12 16  1  0  0  0  0
 13 17  1  0  0  0  0
 13 18  1  0  0  0  0
 14 19  1  0  0  0  0
 15 20  2  0  0  0  0
 15 21  1  0  0  0  0
 17 22  1  0  0  0  0
 18 23  1  0  0  0  0
 19 24  2  0  0  0  0
 22 25  1  0  0  0  0
 23 26  1  0  0  0  0
 25 27  1  0  0  0  0
 26 28  2  0  0  0  0
 27 29  2  0  0  0  0
 16 21  1  0  0  0  0
 20 24  1  0  0  0  0
 23 25  2  0  0  0  0
 28 29  1  0  0  0  0
M  END
>  <MolRegNo>
2278531

>  <m>
=

>  <Value>
2400

>  <Unit>
nM

>  <Type>
IC50

>  <pValue>
5.62

>  <Ligand Efficiency>
0

>  <Binding Efficiency>
0

>  <Surface Efficiency>
0

>  <Assay Index>
1146923

>  <Assay Category>


>  <Assay Organism>
Homo sapiens

>  <Target ID>
17045

>  <Target Name>
Cytochrome P450 3A4

>  <Target Organism>
Homo sapiens

>  <Target Description>
Target is a single protein chain

>  <Sequence Accession>
P08684

>  <Reference>
ACS Med Chem Lett 9 (2), 89-93 (2018)

>  <Pubmed ID>
29456793

>  <DOI>
10.1021/acsmedchemlett.7b00406

$$$$
2267905
Actelion Java MolfileCreator 1.0

 35 39  0  0  0  0  0  0  0  0999 V2000
    0.0000   -0.0000   -0.0000 F   0  0  0  0  0  0  0  0  0  0  0  0
   -0.7581   -1.2912   -0.0000 C   0  0  0  0  0  0  0  0  0  0  0  0
    0.7226   -1.2675   -0.0000 F   0  0  0  0  0  0  0  0  0  0  0  0
   -0.7700   -2.7837   -0.0000 C   0  0  0  0  0  0  0  0  0  0  0  0
   -2.0611   -0.5331   -0.0000 C   0  0  0  0  0  0  0  0  0  0  0  0
   -2.0730   -3.5182   -0.0000 C   0  0  0  0  0  0  0  0  0  0  0  0
   -3.3760   -1.2675   -0.0000 C   0  0  0  0  0  0  0  0  0  0  0  0
   -3.3760   -2.7600   -0.0000 C   0  0  0  0  0  0  0  0  0  0  0  0
   -4.6790   -3.5063   -0.0000 N   0  0  0  0  0  0  0  0  0  0  0  0
   -5.9939   -2.7482   -0.0000 C   0  0  0  0  0  0  0  0  0  0  0  0
   -6.0057   -1.2438   -0.0000 C   0  0  0  0  0  0  0  0  0  0  0  0
   -7.3206   -0.4857   -0.0000 C   0  0  0  0  0  0  0  0  0  0  0  0
   -8.6236   -1.2319   -0.0000 C   0  0  0  0  0  0  0  0  0  0  0  0
   -9.9385   -0.4738   -0.0000 N   0  0  0  0  0  0  0  0  0  0  0  0
   -9.9503    1.0306   -0.0000 C   0  0  0  0  0  0  0  0  0  0  0  0
  -11.2415   -1.2201   -0.0000 C   0  0  0  0  0  0  0  0  0  0  0  0
  -11.2652    1.7887   -0.0000 C   0  0  0  0  0  0  0  0  0  0  0  0
   -8.6592    1.8005   -0.0000 C   0  0  0  0  0  0  0  0  0  0  0  0
  -11.2533   -2.7008   -0.0000 C   0  0  0  0  0  0  0  0  0  0  0  0
  -12.5801    1.0424   -0.0000 N   0  0  0  0  0  0  0  0  0  0  0  0
  -11.2889    3.3049   -0.0000 C   0  0  0  0  0  0  0  0  0  0  0  0
   -8.6828    3.3168   -0.0000 C   0  0  0  0  0  0  0  0  0  0  0  0
  -12.5564   -3.4352   -0.0000 N   0  0  0  0  0  0  0  0  0  0  0  0
   -9.9622   -3.4352   -0.0000 C   0  0  0  0  0  0  0  0  0  0  0  0
  -13.8949    1.8005   -0.0000 C   0  0  0  0  0  0  0  0  0  0  0  0
  -12.6037    4.0630   -0.0000 C   0  0  0  0  0  0  0  0  0  0  0  0
  -10.0096    4.0749   -0.0000 C   0  0  0  0  0  0  0  0  0  0  0  0
  -12.5682   -4.9159   -0.0000 C   0  0  0  0  0  0  0  0  0  0  0  0
   -9.9740   -4.9278   -0.0000 C   0  0  0  0  0  0  0  0  0  0  0  0
  -13.9068    3.3168   -0.0000 C   0  0  0  0  0  0  0  0  0  0  0  0
  -11.2770   -5.6504   -0.0000 C   0  0  0  0  0  0  0  0  0  0  0  0
   -8.6947   -5.6622   -0.0000 C   0  0  0  0  0  0  0  0  0  0  0  0
  -11.2889   -7.1311   -0.0000 C   0  0  0  0  0  0  0  0  0  0  0  0
   -8.7065   -7.1429   -0.0000 C   0  0  0  0  0  0  0  0  0  0  0  0
  -10.0096   -7.8655   -0.0000 C   0  0  0  0  0  0  0  0  0  0  0  0
  1  2  1  0  0  0  0
  2  3  1  0  0  0  0
  2  4  1  0  0  0  0
  2  5  1  0  0  0  0
  4  6  1  0  0  0  0
  5  7  1  0  0  0  0
  6  8  1  0  0  0  0
  8  9  1  0  0  0  0
  9 10  1  0  0  0  0
 10 11  1  0  0  0  0
 11 12  2  0  0  0  0
 12 13  1  0  0  0  0
 13 14  1  0  0  0  0
 15 14  1  6  0  0  0
 14 16  1  0  0  0  0
 15 17  1  0  0  0  0
 15 18  1  0  0  0  0
 19 16  1  1  0  0  0
 17 20  2  0  0  0  0
 17 21  1  0  0  0  0
 18 22  1  0  0  0  0
 19 23  1  0  0  0  0
 19 24  1  0  0  0  0
 20 25  1  0  0  0  0
 21 26  2  0  0  0  0
 21 27  1  0  0  0  0
 23 28  1  0  0  0  0
 24 29  1  0  0  0  0
 25 30  2  0  0  0  0
 28 31  1  0  0  0  0
 29 32  1  0  0  0  0
 31 33  1  0  0  0  0
 32 34  2  0  0  0  0
 33 35  2  0  0  0  0
  7  8  1  0  0  0  0
 22 27  1  0  0  0  0
 26 30  1  0  0  0  0
 29 31  2  0  0  0  0
 34 35  1  0  0  0  0
M  END
>  <MolRegNo>
2267905

>  <m>
=

>  <Value>
12000

>  <Unit>
nM

>  <Type>
IC50

>  <pValue>
4.92

>  <Ligand Efficiency>
0

>  <Binding Efficiency>
0

>  <Surface Efficiency>
0

>  <Assay Index>
1146923

>  <Assay Category>


>  <Assay Organism>
Homo sapiens

>  <Target ID>
17045

>  <Target Name>
Cytochrome P450 3A4

>  <Target Organism>
Homo sapiens

>  <Target Description>
Target is a single protein chain

>  <Sequence Accession>
P08684

>  <Reference>
ACS Med Chem Lett 9 (2), 89-93 (2018)

>  <Pubmed ID>
29456793

>  <DOI>
10.1021/acsmedchemlett.7b00406

$$$$
2263432
Actelion Java MolfileCreator 1.0

 30 33  0  0  0  0  0  0  0  0999 V2000
    0.0000   -0.0000   -0.0000 O   0  0  0  0  0  0  0  0  0  0  0  0
   -0.0119   -1.4867   -0.0000 C   0  0  0  0  0  0  0  0  0  0  0  0
   -1.3202   -2.2360   -0.0000 N   0  0  0  0  0  0  0  0  0  0  0  0
    1.2726   -2.2242   -0.0000 N   0  0  0  0  0  0  0  0  0  0  0  0
   -2.6285   -1.4867   -0.0000 C   0  0  0  0  0  0  0  0  0  0  0  0
   -2.6404    0.0357   -0.0000 C   0  0  0  0  0  0  0  0  0  0  0  0
   -3.9488    0.7850   -0.0000 C   0  0  0  0  0  0  0  0  0  0  0  0
   -5.2571    0.0357   -0.0000 C   0  0  0  0  0  0  0  0  0  0  0  0
   -6.5654    0.7969   -0.0000 N   0  0  0  0  0  0  0  0  0  0  0  0
   -6.5773    2.3074   -0.0000 C   0  0  0  0  0  0  0  0  0  0  0  0
   -7.8618    0.0476   -0.0000 C   0  0  0  0  0  0  0  0  0  0  0  0
   -7.8856    3.0686   -0.0000 C   0  0  0  0  0  0  0  0  0  0  0  0
   -5.2809    3.0805   -0.0000 C   0  0  0  0  0  0  0  0  0  0  0  0
   -7.8737   -1.4392   -0.0000 C   0  0  0  0  0  0  0  0  0  0  0  0
   -9.2058    2.3193   -0.0000 N   0  0  0  0  0  0  0  0  0  0  0  0
   -7.9094    4.5910   -0.0000 C   0  0  0  0  0  0  0  0  0  0  0  0
   -5.3047    4.6029   -0.0000 C   0  0  0  0  0  0  0  0  0  0  0  0
   -9.1821   -2.1766   -0.0000 N   0  0  0  0  0  0  0  0  0  0  0  0
   -6.5892   -2.1647   -0.0000 C   0  0  0  0  0  0  0  0  0  0  0  0
  -10.5142    3.0805   -0.0000 C   0  0  0  0  0  0  0  0  0  0  0  0
   -9.2177    5.3403   -0.0000 C   0  0  0  0  0  0  0  0  0  0  0  0
   -6.6368    5.3641   -0.0000 C   0  0  0  0  0  0  0  0  0  0  0  0
   -9.1940   -3.6514   -0.0000 C   0  0  0  0  0  0  0  0  0  0  0  0
   -6.6011   -3.6514   -0.0000 C   0  0  0  0  0  0  0  0  0  0  0  0
  -10.5261    4.6029   -0.0000 C   0  0  0  0  0  0  0  0  0  0  0  0
   -7.9094   -4.3888   -0.0000 C   0  0  0  0  0  0  0  0  0  0  0  0
   -5.3284   -4.3888   -0.0000 C   0  0  0  0  0  0  0  0  0  0  0  0
   -7.9213   -5.8637   -0.0000 C   0  0  0  0  0  0  0  0  0  0  0  0
   -5.3403   -5.8637   -0.0000 C   0  0  0  0  0  0  0  0  0  0  0  0
   -6.6487   -6.6011   -0.0000 C   0  0  0  0  0  0  0  0  0  0  0  0
  1  2  2  0  0  0  0
  2  3  1  0  0  0  0
  2  4  1  0  0  0  0
  3  5  1  0  0  0  0
  5  6  1  0  0  0  0
  6  7  2  0  0  0  0
  7  8  1  0  0  0  0
  8  9  1  0  0  0  0
 10  9  1  6  0  0  0
  9 11  1  0  0  0  0
 10 12  1  0  0  0  0
 10 13  1  0  0  0  0
 14 11  1  1  0  0  0
 12 15  2  0  0  0  0
 12 16  1  0  0  0  0
 13 17  1  0  0  0  0
 14 18  1  0  0  0  0
 14 19  1  0  0  0  0
 15 20  1  0  0  0  0
 16 21  2  0  0  0  0
 16 22  1  0  0  0  0
 18 23  1  0  0  0  0
 19 24  1  0  0  0  0
 20 25  2  0  0  0  0
 23 26  1  0  0  0  0
 24 27  1  0  0  0  0
 26 28  1  0  0  0  0
 27 29  2  0  0  0  0
 28 30  2  0  0  0  0
 17 22  1  0  0  0  0
 21 25  1  0  0  0  0
 24 26  2  0  0  0  0
 29 30  1  0  0  0  0
M  END
>  <MolRegNo>
2263432

>  <m>
=

>  <Value>
19000

>  <Unit>
nM

>  <Type>
IC50

>  <pValue>
4.72

>  <Ligand Efficiency>
0

>  <Binding Efficiency>
0

>  <Surface Efficiency>
0

>  <Assay Index>
1146923

>  <Assay Category>


>  <Assay Organism>
Homo sapiens

>  <Target ID>
17045

>  <Target Name>
Cytochrome P450 3A4

>  <Target Organism>
Homo sapiens

>  <Target Description>
Target is a single protein chain

>  <Sequence Accession>
P08684

>  <Reference>
ACS Med Chem Lett 9 (2), 89-93 (2018)

>  <Pubmed ID>
29456793

>  <DOI>
10.1021/acsmedchemlett.7b00406

$$$$
2274674
Actelion Java MolfileCreator 1.0

 30 34  0  0  1  0  0  0  0  0999 V2000
    0.0000   -0.0000   -0.0000 N   0  0  0  0  0  0  0  0  0  0  0  0
    1.3004    0.7755   -0.0000 C   0  0  0  0  0  0  0  0  0  0  0  0
   -1.3123    0.7635   -0.0000 C   0  0  0  0  0  0  0  0  0  0  0  0
    1.2766    2.3026   -0.0000 C   0  0  0  0  0  0  0  0  0  0  0  0
    2.5889    0.0358   -0.0000 C   0  0  0  0  0  0  0  0  0  0  0  0
   -1.3243    2.2906   -0.0000 C   0  0  0  0  0  0  0  0  0  0  0  0
   -0.0358    3.0542   -0.0000 C   0  0  0  0  0  0  0  0  0  0  0  0
    2.5650    3.0780   -0.0000 C   0  0  0  0  0  0  0  0  0  0  0  0
    2.5770   -1.4555   -0.0000 N   0  0  0  0  0  0  0  0  0  0  0  0
    3.8893    0.8113   -0.0000 C   0  0  0  0  0  0  0  0  0  0  0  0
    3.8654    2.3384   -0.0000 C   0  0  0  0  0  0  0  0  0  0  0  0
    1.2646   -2.2071   -0.0000 C   0  0  0  0  0  0  0  0  0  0  0  0
    3.8654   -2.1952   -0.0000 C   0  0  0  0  0  0  0  0  0  0  0  0
    1.2527   -3.6984   -0.0000 C   0  0  0  0  0  0  0  0  0  0  0  0
    5.1539   -1.4197   -0.0000 C   0  0  0  0  0  0  0  0  0  0  0  0
   -0.0597   -4.4381   -0.0000 N   0  0  0  0  0  0  0  0  0  0  0  0
    2.5531   -4.4262   -0.0000 C   0  0  0  0  0  0  0  0  0  0  0  0
    5.1301    0.0954   -0.0000 C   0  0  0  0  0  0  0  0  0  0  0  0
    6.4424   -2.1594   -0.0000 C   0  0  0  0  0  0  0  0  0  0  0  0
   -0.0716   -5.9175   -0.0000 C   0  0  0  0  0  0  0  0  0  0  0  0
    2.5412   -5.9175   -0.0000 C   0  0  0  0  0  0  0  0  0  0  0  0
    6.4185    0.8590   -0.0000 C   0  0  0  0  0  0  0  0  0  0  0  0
    7.7309   -1.3959   -0.0000 C   0  0  0  0  0  0  0  0  0  0  0  0
    1.2169   -6.6572   -0.0000 C   0  0  0  0  0  0  0  0  0  0  0  0
    3.8177   -6.6572   -0.0000 C   0  0  0  0  0  0  0  0  0  0  0  0
    7.7070    0.1193   -0.0000 C   0  0  0  0  0  0  0  0  0  0  0  0
    1.2050   -8.1365   -0.0000 C   0  0  0  0  0  0  0  0  0  0  0  0
    3.8058   -8.1365   -0.0000 C   0  0  0  0  0  0  0  0  0  0  0  0
    8.9955    0.8828   -0.0000 N   0  0  0  0  0  0  0  0  0  0  0  0
    2.4935   -8.8762   -0.0000 C   0  0  0  0  0  0  0  0  0  0  0  0
  1  2  2  0  0  0  0
  1  3  1  0  0  0  0
  2  4  1  0  0  0  0
  2  5  1  0  0  0  0
  3  6  2  0  0  0  0
  4  7  2  0  0  0  0
  4  8  1  0  0  0  0
  5  9  1  6  0  0  0
  5 10  1  0  0  0  0
  8 11  1  0  0  0  0
  9 12  1  0  0  0  0
  9 13  1  0  0  0  0
 14 12  1  1  0  0  0
 15 13  1  1  0  0  0
 14 16  1  0  0  0  0
 14 17  1  0  0  0  0
 15 18  1  0  0  0  0
 15 19  1  0  0  0  0
 16 20  1  0  0  0  0
 17 21  1  0  0  0  0
 18 22  1  0  0  0  0
 19 23  1  0  0  0  0
 20 24  1  0  0  0  0
 21 25  1  0  0  0  0
 22 26  1  0  0  0  0
 24 27  1  0  0  0  0
 25 28  2  0  0  0  0
 26 29  1  6  0  0  0
 27 30  2  0  0  0  0
  6  7  1  0  0  0  0
 10 11  1  0  0  0  0
 21 24  2  0  0  0  0
 23 26  1  0  0  0  0
 28 30  1  0  0  0  0
M  END
>  <MolRegNo>
2274674

>  <m>
=

>  <Value>
10000

>  <Unit>
nM

>  <Type>
IC50

>  <pValue>
5

>  <Ligand Efficiency>
0

>  <Binding Efficiency>
0

>  <Surface Efficiency>
0

>  <Assay Index>
1146923

>  <Assay Category>


>  <Assay Organism>
Homo sapiens

>  <Target ID>
17045

>  <Target Name>
Cytochrome P450 3A4

>  <Target Organism>
Homo sapiens

>  <Target Description>
Target is a single protein chain

>  <Sequence Accession>
P08684

>  <Reference>
ACS Med Chem Lett 9 (2), 89-93 (2018)

>  <Pubmed ID>
29456793

>  <DOI>
10.1021/acsmedchemlett.7b00406

$$$$
2270252
Actelion Java MolfileCreator 1.0

 31 35  0  0  1  0  0  0  0  0999 V2000
    0.0000   -0.0000   -0.0000 N   0  0  0  0  0  0  0  0  0  0  0  0
    1.3018    0.7763   -0.0000 C   0  0  0  0  0  0  0  0  0  0  0  0
   -1.3137    0.7643   -0.0000 C   0  0  0  0  0  0  0  0  0  0  0  0
    1.2779    2.3049   -0.0000 C   0  0  0  0  0  0  0  0  0  0  0  0
    2.5916    0.0358   -0.0000 C   0  0  0  0  0  0  0  0  0  0  0  0
   -1.3256    2.2930   -0.0000 C   0  0  0  0  0  0  0  0  0  0  0  0
   -0.0358    3.0573   -0.0000 C   0  0  0  0  0  0  0  0  0  0  0  0
    2.5557    3.0812   -0.0000 C   0  0  0  0  0  0  0  0  0  0  0  0
    2.5796   -1.4570   -0.0000 N   0  0  0  0  0  0  0  0  0  0  0  0
    3.8814    0.8121   -0.0000 C   0  0  0  0  0  0  0  0  0  0  0  0
    3.8575    2.3408   -0.0000 C   0  0  0  0  0  0  0  0  0  0  0  0
    1.2779   -2.2094   -0.0000 C   0  0  0  0  0  0  0  0  0  0  0  0
    3.8694   -2.1975   -0.0000 C   0  0  0  0  0  0  0  0  0  0  0  0
    1.2659   -3.7022   -0.0000 C   0  0  0  0  0  0  0  0  0  0  0  0
    5.1592   -1.4212   -0.0000 C   0  0  0  0  0  0  0  0  0  0  0  0
   -0.0478   -4.4427   -0.0000 N   0  0  0  0  0  0  0  0  0  0  0  0
    2.5557   -4.4307   -0.0000 C   0  0  0  0  0  0  0  0  0  0  0  0
    6.4490   -2.1616   -0.0000 C   0  0  0  0  0  0  0  0  0  0  0  0
    5.1354    0.0955   -0.0000 C   0  0  0  0  0  0  0  0  0  0  0  0
   -0.0597   -5.9236   -0.0000 C   0  0  0  0  0  0  0  0  0  0  0  0
    2.5438   -5.9236   -0.0000 C   0  0  0  0  0  0  0  0  0  0  0  0
    7.7389   -1.3973   -0.0000 C   0  0  0  0  0  0  0  0  0  0  0  0
    6.4371    0.8718   -0.0000 C   0  0  0  0  0  0  0  0  0  0  0  0
    1.2301   -6.6640   -0.0000 C   0  0  0  0  0  0  0  0  0  0  0  0
    3.8217   -6.6640   -0.0000 C   0  0  0  0  0  0  0  0  0  0  0  0
    7.7269    0.1194   -0.0000 C   0  0  0  0  0  0  0  0  0  0  0  0
    1.2182   -8.1449   -0.0000 C   0  0  0  0  0  0  0  0  0  0  0  0
    3.8097   -8.1449   -0.0000 C   0  0  0  0  0  0  0  0  0  0  0  0
    9.0167    0.8838   -0.0000 C   0  0  0  0  0  0  0  0  0  0  0  0
    2.4960   -8.8854   -0.0000 C   0  0  0  0  0  0  0  0  0  0  0  0
   10.3065    0.1433   -0.0000 N   0  0  0  0  0  0  0  0  0  0  0  0
  1  2  2  0  0  0  0
  1  3  1  0  0  0  0
  2  4  1  0  0  0  0
  2  5  1  0  0  0  0
  3  6  2  0  0  0  0
  4  7  2  0  0  0  0
  4  8  1  0  0  0  0
  5  9  1  6  0  0  0
  5 10  1  0  0  0  0
  8 11  1  0  0  0  0
  9 12  1  0  0  0  0
  9 13  1  0  0  0  0
 14 12  1  1  0  0  0
 15 13  1  6  0  0  0
 14 16  1  0  0  0  0
 14 17  1  0  0  0  0
 15 18  1  0  0  0  0
 15 19  1  0  0  0  0
 16 20  1  0  0  0  0
 17 21  1  0  0  0  0
 18 22  1  0  0  0  0
 19 23  1  0  0  0  0
 20 24  1  0  0  0  0
 21 25  1  0  0  0  0
 22 26  1  0  0  0  0
 24 27  1  0  0  0  0
 25 28  2  0  0  0  0
 26 29  1  1  0  0  0
 27 30  2  0  0  0  0
 29 31  1  0  0  0  0
  6  7  1  0  0  0  0
 10 11  1  0  0  0  0
 21 24  2  0  0  0  0
 23 26  1  0  0  0  0
 28 30  1  0  0  0  0
M  END
>  <MolRegNo>
2270252

>  <m>
=

>  <Value>
12000

>  <Unit>
nM

>  <Type>
IC50

>  <pValue>
4.92

>  <Ligand Efficiency>
0

>  <Binding Efficiency>
0

>  <Surface Efficiency>
0

>  <Assay Index>
1146923

>  <Assay Category>


>  <Assay Organism>
Homo sapiens

>  <Target ID>
17045

>  <Target Name>
Cytochrome P450 3A4

>  <Target Organism>
Homo sapiens

>  <Target Description>
Target is a single protein chain

>  <Sequence Accession>
P08684

>  <Reference>
ACS Med Chem Lett 9 (2), 89-93 (2018)

>  <Pubmed ID>
29456793

>  <DOI>
10.1021/acsmedchemlett.7b00406

$$$$
2264769
Actelion Java MolfileCreator 1.0

 42 45  0  0  0  0  0  0  0  0999 V2000
    0.0000   -0.0000   -0.0000 Cl  0  0  0  0  0  0  0  0  0  0  0  0
    1.2887    0.7756   -0.0000 C   0  0  0  0  0  0  0  0  0  0  0  0
    2.5774    0.0477   -0.0000 C   0  0  0  0  0  0  0  0  0  0  0  0
    1.2648    2.3030   -0.0000 C   0  0  0  0  0  0  0  0  0  0  0  0
    3.8542    0.8233   -0.0000 C   0  0  0  0  0  0  0  0  0  0  0  0
    2.5535    3.0666   -0.0000 C   0  0  0  0  0  0  0  0  0  0  0  0
    5.1429    0.0835   -0.0000 N   0  0  0  0  0  0  0  0  0  0  0  0
    3.8422    2.3387   -0.0000 C   0  0  0  0  0  0  0  0  0  0  0  0
    5.1309   -1.4080   -0.0000 C   0  0  0  0  0  0  0  0  0  0  0  0
    3.8184   -2.1478   -0.0000 N   0  0  0  0  0  0  0  0  0  0  0  0
    6.4196   -2.1478   -0.0000 C   0  0  0  0  0  0  0  0  0  0  0  0
    3.8064   -3.6513   -0.0000 C   0  0  0  0  0  0  0  0  0  0  0  0
    7.7083   -1.3722   -0.0000 C   0  0  0  0  0  0  0  0  0  0  0  0
    6.4077   -3.6513   -0.0000 C   0  0  0  0  0  0  0  0  0  0  0  0
    2.4939   -4.3911   -0.0000 S   0  0  0  0  0  0  0  0  0  0  0  0
    5.0951   -4.3911   -0.0000 N   0  0  0  0  0  0  0  0  0  0  0  0
    8.9970   -0.6086   -0.0000 N   0  0  0  0  0  0  0  0  0  0  0  0
    7.6964   -4.3911   -0.0000 C   0  0  0  0  0  0  0  0  0  0  0  0
    1.1813   -3.6274   -0.0000 C   0  0  0  0  0  0  0  0  0  0  0  0
    7.6845   -5.8827   -0.0000 C   0  0  0  0  0  0  0  0  0  0  0  0
    8.9851   -3.6274   -0.0000 C   0  0  0  0  0  0  0  0  0  0  0  0
   -0.1313   -4.3673   -0.0000 C   0  0  0  0  0  0  0  0  0  0  0  0
    8.9732   -6.6225   -0.0000 C   0  0  0  0  0  0  0  0  0  0  0  0
   10.2738   -4.3553   -0.0000 C   0  0  0  0  0  0  0  0  0  0  0  0
   -0.1432   -5.8588   -0.0000 O   0  0  0  0  0  0  0  0  0  0  0  0
   -1.4438   -3.6036   -0.0000 N   0  0  0  0  0  0  0  0  0  0  0  0
    8.9612   -8.1140   -0.0000 O   0  0  0  0  0  0  0  0  0  0  0  0
   10.2619   -5.8588   -0.0000 C   0  0  0  0  0  0  0  0  0  0  0  0
   11.5625   -3.5797   -0.0000 O   0  0  0  0  0  0  0  0  0  0  0  0
   -2.7564   -4.3434   -0.0000 C   0  0  0  0  0  0  0  0  0  0  0  0
    7.6487   -8.8538   -0.0000 C   0  0  0  0  0  0  0  0  0  0  0  0
   11.5506   -6.5986   -0.0000 O   0  0  0  0  0  0  0  0  0  0  0  0
   12.8631   -4.3195   -0.0000 C   0  0  0  0  0  0  0  0  0  0  0  0
   -2.7683   -5.8349   -0.0000 O   0  0  0  0  0  0  0  0  0  0  0  0
   -4.0689   -3.5797   -0.0000 N   0  0  0  0  0  0  0  0  0  0  0  0
   11.5386   -8.0902   -0.0000 C   0  0  0  0  0  0  0  0  0  0  0  0
   -5.3815   -4.3195   -0.0000 C   0  0  0  0  0  0  0  0  0  0  0  0
   -6.6941   -3.5559   -0.0000 N   0  0  0  0  0  0  0  0  0  0  0  0
   -5.3815   -5.8111   -0.0000 C   0  0  0  0  0  0  0  0  0  0  0  0
   -8.0066   -4.2957   -0.0000 C   0  0  0  0  0  0  0  0  0  0  0  0
   -6.6941   -6.5509   -0.0000 C   0  0  0  0  0  0  0  0  0  0  0  0
   -8.0186   -5.7872   -0.0000 C   0  0  0  0  0  0  0  0  0  0  0  0
  1  2  1  0  0  0  0
  2  3  2  0  0  0  0
  2  4  1  0  0  0  0
  3  5  1  0  0  0  0
  4  6  2  0  0  0  0
  5  7  1  0  0  0  0
  5  8  2  0  0  0  0
  7  9  1  0  0  0  0
  9 10  2  0  0  0  0
  9 11  1  0  0  0  0
 10 12  1  0  0  0  0
 11 13  1  0  0  0  0
 11 14  2  0  0  0  0
 12 15  1  0  0  0  0
 12 16  2  0  0  0  0
 13 17  3  0  0  0  0
 14 18  1  0  0  0  0
 15 19  1  0  0  0  0
 18 20  2  0  0  0  0
 18 21  1  0  0  0  0
 19 22  1  0  0  0  0
 20 23  1  0  0  0  0
 21 24  2  0  0  0  0
 22 25  2  0  0  0  0
 22 26  1  0  0  0  0
 23 27  1  0  0  0  0
 23 28  2  0  0  0  0
 24 29  1  0  0  0  0
 26 30  1  0  0  0  0
 27 31  1  0  0  0  0
 28 32  1  0  0  0  0
 29 33  1  0  0  0  0
 30 34  2  0  0  0  0
 30 35  1  0  0  0  0
 32 36  1  0  0  0  0
 35 37  1  0  0  0  0
 37 38  2  0  0  0  0
 37 39  1  0  0  0  0
 38 40  1  0  0  0  0
 39 41  2  0  0  0  0
 40 42  2  0  0  0  0
  6  8  1  0  0  0  0
 14 16  1  0  0  0  0
 24 28  1  0  0  0  0
 41 42  1  0  0  0  0
M  END
>  <MolRegNo>
2264769

>  <m>
=

>  <Value>
17243

>  <Unit>
nM

>  <Type>
IC50

>  <pValue>
4.76

>  <Ligand Efficiency>
0

>  <Binding Efficiency>
0

>  <Surface Efficiency>
0

>  <Assay Index>
1147459

>  <Assay Category>


>  <Assay Organism>
Homo sapiens

>  <Target ID>
17045

>  <Target Name>
Cytochrome P450 3A4

>  <Target Organism>
Homo sapiens

>  <Target Description>
Target is a single protein chain

>  <Sequence Accession>
P08684

>  <Reference>
J Med Chem 61 (14), 5988-6001 (2018)

>  <Pubmed ID>
29975529

>  <DOI>
10.1021/acs.jmedchem.8b00335

$$$$
2264644
Actelion Java MolfileCreator 1.0

 30 34  0  0  0  0  0  0  0  0999 V2000
    0.0000   -0.0000   -0.0000 N   0  0  0  0  0  0  0  0  0  0  0  0
    1.2905    0.7647   -0.0000 C   0  0  0  0  0  0  0  0  0  0  0  0
   -1.3144    0.7647   -0.0000 C   0  0  0  0  0  0  0  0  0  0  0  0
    1.2785    2.2942   -0.0000 C   0  0  0  0  0  0  0  0  0  0  0  0
    2.5810    0.0239   -0.0000 C   0  0  0  0  0  0  0  0  0  0  0  0
   -1.3263    2.2823   -0.0000 C   0  0  0  0  0  0  0  0  0  0  0  0
   -0.0358    3.0470   -0.0000 C   0  0  0  0  0  0  0  0  0  0  0  0
    2.5690    3.0709   -0.0000 C   0  0  0  0  0  0  0  0  0  0  0  0
    2.5690   -1.4697   -0.0000 N   0  0  0  0  0  0  0  0  0  0  0  0
    3.8834    0.7886   -0.0000 C   0  0  0  0  0  0  0  0  0  0  0  0
    3.8715    2.3181   -0.0000 C   0  0  0  0  0  0  0  0  0  0  0  0
    1.2546   -2.2106   -0.0000 C   0  0  0  0  0  0  0  0  0  0  0  0
    3.8595   -2.2106   -0.0000 C   0  0  0  0  0  0  0  0  0  0  0  0
    1.2427   -3.7042   -0.0000 C   0  0  0  0  0  0  0  0  0  0  0  0
    5.1500   -1.4458   -0.0000 C   0  0  0  0  0  0  0  0  0  0  0  0
    2.4376   -4.5884   -0.0000 N   0  0  0  0  0  0  0  0  0  0  0  0
    0.0119   -4.5765   -0.0000 N   0  0  0  0  0  0  0  0  0  0  0  0
    6.4405   -2.1867   -0.0000 C   0  0  0  0  0  0  0  0  0  0  0  0
    1.9596   -5.9984   -0.0000 C   0  0  0  0  0  0  0  0  0  0  0  0
    0.4660   -5.9984   -0.0000 C   0  0  0  0  0  0  0  0  0  0  0  0
    7.7310   -1.4219   -0.0000 N   0  0  0  0  0  0  0  0  0  0  0  0
    2.6885   -7.2770   -0.0000 C   0  0  0  0  0  0  0  0  0  0  0  0
   -0.2987   -7.2770   -0.0000 C   0  0  0  0  0  0  0  0  0  0  0  0
    9.0215   -2.1747   -0.0000 C   0  0  0  0  0  0  0  0  0  0  0  0
    7.7191    0.0836   -0.0000 C   0  0  0  0  0  0  0  0  0  0  0  0
    1.9357   -8.5555   -0.0000 C   0  0  0  0  0  0  0  0  0  0  0  0
    0.4302   -8.5675   -0.0000 C   0  0  0  0  0  0  0  0  0  0  0  0
   10.3120   -1.4219   -0.0000 C   0  0  0  0  0  0  0  0  0  0  0  0
    9.0215    0.8364   -0.0000 C   0  0  0  0  0  0  0  0  0  0  0  0
   10.3120    0.0956   -0.0000 N   0  0  0  0  0  0  0  0  0  0  0  0
  1  2  2  0  0  0  0
  1  3  1  0  0  0  0
  2  4  1  0  0  0  0
  2  5  1  0  0  0  0
  3  6  2  0  0  0  0
  4  7  2  0  0  0  0
  4  8  1  0  0  0  0
  5  9  1  6  0  0  0
  5 10  1  0  0  0  0
  8 11  1  0  0  0  0
  9 12  1  0  0  0  0
  9 13  1  0  0  0  0
 12 14  1  0  0  0  0
 13 15  1  0  0  0  0
 14 16  2  0  0  0  0
 14 17  1  0  0  0  0
 15 18  1  0  0  0  0
 16 19  1  0  0  0  0
 17 20  1  0  0  0  0
 18 21  1  0  0  0  0
 19 22  1  0  0  0  0
 20 23  1  0  0  0  0
 21 24  1  0  0  0  0
 21 25  1  0  0  0  0
 22 26  2  0  0  0  0
 23 27  2  0  0  0  0
 24 28  1  0  0  0  0
 25 29  1  0  0  0  0
 28 30  1  0  0  0  0
  6  7  1  0  0  0  0
 10 11  1  0  0  0  0
 19 20  2  0  0  0  0
 26 27  1  0  0  0  0
 29 30  1  0  0  0  0
M  END
>  <MolRegNo>
2264644

>  <m>
=

>  <Value>
12700

>  <Unit>
nM

>  <Type>
IC50

>  <pValue>
4.9

>  <Ligand Efficiency>
0

>  <Binding Efficiency>
0

>  <Surface Efficiency>
0

>  <Assay Index>
1151612

>  <Assay Category>


>  <Assay Organism>
Homo sapiens

>  <Target ID>
17045

>  <Target Name>
Cytochrome P450 3A4

>  <Target Organism>
Homo sapiens

>  <Target Description>
Target is a single protein chain

>  <Sequence Accession>
P08684

>  <Reference>
ACS Med Chem Lett 9 (5), 446-451 (2018)

>  <Pubmed ID>
29795757

>  <DOI>
10.1021/acsmedchemlett.8b00030

$$$$
2275265
Actelion Java MolfileCreator 1.0

 30 34  0  0  0  0  0  0  0  0999 V2000
    0.0000   -0.0000   -0.0000 S   0  0  0  0  0  0  0  0  0  0  0  0
    0.4532   -1.4191   -0.0000 C   0  0  0  0  0  0  0  0  0  0  0  0
    1.2045    0.8944   -0.0000 C   0  0  0  0  0  0  0  0  0  0  0  0
    1.9319   -1.4072   -0.0000 C   0  0  0  0  0  0  0  0  0  0  0  0
   -0.3101   -2.6952   -0.0000 C   0  0  0  0  0  0  0  0  0  0  0  0
    2.3970    0.0119   -0.0000 N   0  0  0  0  0  0  0  0  0  0  0  0
    1.1926    2.4090   -0.0000 C   0  0  0  0  0  0  0  0  0  0  0  0
    2.6594   -2.6832   -0.0000 C   0  0  0  0  0  0  0  0  0  0  0  0
    0.4174   -3.9831   -0.0000 C   0  0  0  0  0  0  0  0  0  0  0  0
    2.4805    3.1722   -0.0000 N   0  0  0  0  0  0  0  0  0  0  0  0
    1.9081   -3.9593   -0.0000 C   0  0  0  0  0  0  0  0  0  0  0  0
    2.4686    4.6867   -0.0000 C   0  0  0  0  0  0  0  0  0  0  0  0
    3.7685    2.4328   -0.0000 C   0  0  0  0  0  0  0  0  0  0  0  0
    1.1568    5.4500   -0.0000 C   0  0  0  0  0  0  0  0  0  0  0  0
    3.7685    5.4500   -0.0000 C   0  0  0  0  0  0  0  0  0  0  0  0
    5.0564    3.1960   -0.0000 C   0  0  0  0  0  0  0  0  0  0  0  0
   -0.1550    4.7106   -0.0000 N   0  0  0  0  0  0  0  0  0  0  0  0
    1.1449    6.9764   -0.0000 C   0  0  0  0  0  0  0  0  0  0  0  0
    3.7565    6.9764   -0.0000 C   0  0  0  0  0  0  0  0  0  0  0  0
    6.3444    2.4567   -0.0000 C   0  0  0  0  0  0  0  0  0  0  0  0
   -1.4668    5.4738   -0.0000 C   0  0  0  0  0  0  0  0  0  0  0  0
   -0.1670    7.7278   -0.0000 C   0  0  0  0  0  0  0  0  0  0  0  0
    2.4328    7.7516   -0.0000 C   0  0  0  0  0  0  0  0  0  0  0  0
    7.6324    3.2199   -0.0000 N   0  0  0  0  0  0  0  0  0  0  0  0
   -1.4788    6.9884   -0.0000 C   0  0  0  0  0  0  0  0  0  0  0  0
    8.9203    2.4686   -0.0000 C   0  0  0  0  0  0  0  0  0  0  0  0
    7.6204    4.7225   -0.0000 C   0  0  0  0  0  0  0  0  0  0  0  0
   10.2083    3.2199   -0.0000 C   0  0  0  0  0  0  0  0  0  0  0  0
    8.9203    5.4738   -0.0000 C   0  0  0  0  0  0  0  0  0  0  0  0
   10.2083    4.7344   -0.0000 N   0  0  0  0  0  0  0  0  0  0  0  0
  1  2  1  0  0  0  0
  1  3  1  0  0  0  0
  2  4  2  0  0  0  0
  2  5  1  0  0  0  0
  3  6  2  0  0  0  0
  3  7  1  0  0  0  0
  4  8  1  0  0  0  0
  5  9  2  0  0  0  0
  7 10  1  0  0  0  0
  8 11  2  0  0  0  0
 12 10  1  6  0  0  0
 10 13  1  0  0  0  0
 12 14  1  0  0  0  0
 12 15  1  0  0  0  0
 13 16  1  0  0  0  0
 14 17  2  0  0  0  0
 14 18  1  0  0  0  0
 15 19  1  0  0  0  0
 16 20  1  0  0  0  0
 17 21  1  0  0  0  0
 18 22  2  0  0  0  0
 18 23  1  0  0  0  0
 20 24  1  0  0  0  0
 21 25  2  0  0  0  0
 24 26  1  0  0  0  0
 24 27  1  0  0  0  0
 26 28  1  0  0  0  0
 27 29  1  0  0  0  0
 28 30  1  0  0  0  0
  4  6  1  0  0  0  0
  9 11  1  0  0  0  0
 19 23  1  0  0  0  0
 22 25  1  0  0  0  0
 29 30  1  0  0  0  0
M  END
>  <MolRegNo>
2275265

>  <m>
=

>  <Value>
9400

>  <Unit>
nM

>  <Type>
IC50

>  <pValue>
5.03

>  <Ligand Efficiency>
0

>  <Binding Efficiency>
0

>  <Surface Efficiency>
0

>  <Assay Index>
1151612

>  <Assay Category>


>  <Assay Organism>
Homo sapiens

>  <Target ID>
17045

>  <Target Name>
Cytochrome P450 3A4

>  <Target Organism>
Homo sapiens

>  <Target Description>
Target is a single protein chain

>  <Sequence Accession>
P08684

>  <Reference>
ACS Med Chem Lett 9 (5), 446-451 (2018)

>  <Pubmed ID>
29795757

>  <DOI>
10.1021/acsmedchemlett.8b00030

$$$$
2274589
Actelion Java MolfileCreator 1.0

 12 10  0  0  0  0  0  0  0  0999 V2000
    0.0000   -0.0000   -0.0000 Cl  0  0  0  0  0  0  0  0  0  0  0  0
   -8.3420   -4.8346   -0.0000 Cl  0  0  0  0  0  0  0  0  0  0  0  0
   -8.5316   -3.5074   -0.0000 N   0  0  0  0  0  0  0  0  0  0  0  0
   -7.2400   -2.7491   -0.0000 C   0  0  0  0  0  0  0  0  0  0  0  0
   -9.8350   -2.7491   -0.0000 C   0  0  0  0  0  0  0  0  0  0  0  0
   -7.2518   -1.2323   -0.0000 C   0  0  0  0  0  0  0  0  0  0  0  0
   -9.8469   -1.2323   -0.0000 C   0  0  0  0  0  0  0  0  0  0  0  0
   -5.9721   -0.4740   -0.0000 C   0  0  0  0  0  0  0  0  0  0  0  0
   -8.5553   -0.4740   -0.0000 C   0  0  0  0  0  0  0  0  0  0  0  0
   -4.6924    0.2962   -0.0000 C   0  0  0  0  0  0  0  0  0  0  0  0
   -3.4126    1.0664   -0.0000 C   0  0  0  0  0  0  0  0  0  0  0  0
   -2.1210    0.3436   -0.0000 N   0  0  0  0  0  0  0  0  0  0  0  0
  3  4  2  0  0  0  0
  3  5  1  0  0  0  0
  4  6  1  0  0  0  0
  5  7  2  0  0  0  0
  6  8  1  0  0  0  0
  6  9  2  0  0  0  0
  8 10  3  0  0  0  0
 10 11  1  0  0  0  0
 11 12  1  0  0  0  0
  7  9  1  0  0  0  0
M  END
>  <MolRegNo>
2274589

>  <m>
=

>  <Value>
4000

>  <Unit>
nM

>  <Type>
IC50

>  <pValue>
5.4

>  <Ligand Efficiency>
0

>  <Binding Efficiency>
0

>  <Surface Efficiency>
0

>  <Assay Index>
1152716

>  <Assay Category>


>  <Assay Organism>
Homo sapiens

>  <Target ID>
17045

>  <Target Name>
Cytochrome P450 3A4

>  <Target Organism>
Homo sapiens

>  <Target Description>
Target is a single protein chain

>  <Sequence Accession>
P08684

>  <Reference>
J Med Chem 61 (16), 7065-7086 (2018)

>  <Pubmed ID>
29995408

>  <DOI>
10.1021/acs.jmedchem.8b00084

$$$$
2276119
Actelion Java MolfileCreator 1.0

 13 11  0  0  0  0  0  0  0  0999 V2000
    0.0000   -0.0000   -0.0000 Cl  0  0  0  0  0  0  0  0  0  0  0  0
   -8.2417   -4.9261   -0.0000 Cl  0  0  0  0  0  0  0  0  0  0  0  0
   -8.2417   -3.6946   -0.0000 N   0  0  0  0  0  0  0  0  0  0  0  0
   -6.9510   -2.9367   -0.0000 C   0  0  0  0  0  0  0  0  0  0  0  0
   -9.5443   -2.9367   -0.0000 C   0  0  0  0  0  0  0  0  0  0  0  0
   -6.9628   -1.4210   -0.0000 C   0  0  0  0  0  0  0  0  0  0  0  0
   -9.5561   -1.4210   -0.0000 C   0  0  0  0  0  0  0  0  0  0  0  0
   -5.6839   -0.6513   -0.0000 C   0  0  0  0  0  0  0  0  0  0  0  0
   -8.2654   -0.6631   -0.0000 C   0  0  0  0  0  0  0  0  0  0  0  0
   -4.4050    0.1184   -0.0000 C   0  0  0  0  0  0  0  0  0  0  0  0
   -8.2772    0.8407   -0.0000 C   0  0  0  0  0  0  0  0  0  0  0  0
   -3.1262    0.8881   -0.0000 C   0  0  0  0  0  0  0  0  0  0  0  0
   -1.8354    0.1658   -0.0000 N   0  0  0  0  0  0  0  0  0  0  0  0
  3  4  2  0  0  0  0
  3  5  1  0  0  0  0
  4  6  1  0  0  0  0
  5  7  2  0  0  0  0
  6  8  1  0  0  0  0
  6  9  2  0  0  0  0
  8 10  3  0  0  0  0
  9 11  1  0  0  0  0
 10 12  1  0  0  0  0
 12 13  1  0  0  0  0
  7  9  1  0  0  0  0
M  END
>  <MolRegNo>
2276119

>  <m>
=

>  <Value>
5600

>  <Unit>
nM

>  <Type>
IC50

>  <pValue>
5.25

>  <Ligand Efficiency>
0

>  <Binding Efficiency>
0

>  <Surface Efficiency>
0

>  <Assay Index>
1152716

>  <Assay Category>


>  <Assay Organism>
Homo sapiens

>  <Target ID>
17045

>  <Target Name>
Cytochrome P450 3A4

>  <Target Organism>
Homo sapiens

>  <Target Description>
Target is a single protein chain

>  <Sequence Accession>
P08684

>  <Reference>
J Med Chem 61 (16), 7065-7086 (2018)

>  <Pubmed ID>
29995408

>  <DOI>
10.1021/acs.jmedchem.8b00084

$$$$
2267144
Actelion Java MolfileCreator 1.0

 18 17  0  0  0  0  0  0  0  0999 V2000
    0.0000   -0.0000   -0.0000 Cl  0  0  0  0  0  0  0  0  0  0  0  0
   -8.4313   -5.0209   -0.0000 Cl  0  0  0  0  0  0  0  0  0  0  0  0
   -8.4313   -3.7894   -0.0000 N   0  0  0  0  0  0  0  0  0  0  0  0
   -7.1406   -3.0315   -0.0000 C   0  0  0  0  0  0  0  0  0  0  0  0
   -9.7339   -3.0315   -0.0000 C   0  0  0  0  0  0  0  0  0  0  0  0
   -7.1524   -1.5157   -0.0000 C   0  0  0  0  0  0  0  0  0  0  0  0
   -9.7457   -1.5157   -0.0000 C   0  0  0  0  0  0  0  0  0  0  0  0
   -5.8735   -0.7579   -0.0000 C   0  0  0  0  0  0  0  0  0  0  0  0
   -8.4550   -0.7579   -0.0000 C   0  0  0  0  0  0  0  0  0  0  0  0
   -4.5946    0.0118   -0.0000 C   0  0  0  0  0  0  0  0  0  0  0  0
   -8.4787    0.7460   -0.0000 C   0  0  0  0  0  0  0  0  0  0  0  0
   -3.3157    0.7816   -0.0000 C   0  0  0  0  0  0  0  0  0  0  0  0
   -7.1998    1.5039   -0.0000 C   0  0  0  0  0  0  0  0  0  0  0  0
   -9.7813    1.4921   -0.0000 C   0  0  0  0  0  0  0  0  0  0  0  0
   -2.0249    0.0592   -0.0000 N   0  0  0  0  0  0  0  0  0  0  0  0
   -7.2116    3.0078   -0.0000 C   0  0  0  0  0  0  0  0  0  0  0  0
   -9.8049    2.9960   -0.0000 C   0  0  0  0  0  0  0  0  0  0  0  0
   -8.5260    3.7657   -0.0000 C   0  0  0  0  0  0  0  0  0  0  0  0
  3  4  2  0  0  0  0
  3  5  1  0  0  0  0
  4  6  1  0  0  0  0
  5  7  2  0  0  0  0
  6  8  1  0  0  0  0
  6  9  2  0  0  0  0
  8 10  3  0  0  0  0
  9 11  1  0  0  0  0
 10 12  1  0  0  0  0
 11 13  2  0  0  0  0
 11 14  1  0  0  0  0
 12 15  1  0  0  0  0
 13 16  1  0  0  0  0
 14 17  2  0  0  0  0
 16 18  2  0  0  0  0
  7  9  1  0  0  0  0
 17 18  1  0  0  0  0
M  END
>  <MolRegNo>
2267144

>  <m>
=

>  <Value>
39000

>  <Unit>
nM

>  <Type>
IC50

>  <pValue>
4.41

>  <Ligand Efficiency>
0

>  <Binding Efficiency>
0

>  <Surface Efficiency>
0

>  <Assay Index>
1152716

>  <Assay Category>


>  <Assay Organism>
Homo sapiens

>  <Target ID>
17045

>  <Target Name>
Cytochrome P450 3A4

>  <Target Organism>
Homo sapiens

>  <Target Description>
Target is a single protein chain

>  <Sequence Accession>
P08684

>  <Reference>
J Med Chem 61 (16), 7065-7086 (2018)

>  <Pubmed ID>
29995408

>  <DOI>
10.1021/acs.jmedchem.8b00084

$$$$
2266725
Actelion Java MolfileCreator 1.0

 17 16  0  0  0  0  0  0  0  0999 V2000
    0.0000   -0.0000   -0.0000 Cl  0  0  0  0  0  0  0  0  0  0  0  0
   -8.5032   -4.9682   -0.0000 Cl  0  0  0  0  0  0  0  0  0  0  0  0
   -9.7452    1.7197   -0.0000 O   0  0  0  0  0  0  0  0  0  0  0  0
   -8.5390    0.8479   -0.0000 C   0  0  0  0  0  0  0  0  0  0  0  0
   -9.2914    3.1648   -0.0000 C   0  0  0  0  0  0  0  0  0  0  0  0
   -8.5390   -0.6449   -0.0000 C   0  0  0  0  0  0  0  0  0  0  0  0
   -7.3328    1.7436   -0.0000 C   0  0  0  0  0  0  0  0  0  0  0  0
   -7.7986    3.1768   -0.0000 C   0  0  0  0  0  0  0  0  0  0  0  0
   -7.2492   -1.3854   -0.0000 C   0  0  0  0  0  0  0  0  0  0  0  0
   -9.8527   -1.3854   -0.0000 C   0  0  0  0  0  0  0  0  0  0  0  0
   -5.9594   -0.6210   -0.0000 C   0  0  0  0  0  0  0  0  0  0  0  0
   -7.2612   -2.8901   -0.0000 C   0  0  0  0  0  0  0  0  0  0  0  0
   -9.8647   -2.8901   -0.0000 C   0  0  0  0  0  0  0  0  0  0  0  0
   -4.6696    0.1553   -0.0000 C   0  0  0  0  0  0  0  0  0  0  0  0
   -8.5868   -3.6306   -0.0000 N   0  0  0  0  0  0  0  0  0  0  0  0
   -3.3798    0.9315   -0.0000 C   0  0  0  0  0  0  0  0  0  0  0  0
   -2.0780    0.2030   -0.0000 N   0  0  0  0  0  0  0  0  0  0  0  0
  3  4  1  0  0  0  0
  3  5  1  0  0  0  0
  4  6  1  0  0  0  0
  4  7  2  0  0  0  0
  5  8  2  0  0  0  0
  6  9  2  0  0  0  0
  6 10  1  0  0  0  0
  9 11  1  0  0  0  0
  9 12  1  0  0  0  0
 10 13  2  0  0  0  0
 11 14  3  0  0  0  0
 12 15  2  0  0  0  0
 14 16  1  0  0  0  0
 16 17  1  0  0  0  0
  7  8  1  0  0  0  0
 13 15  1  0  0  0  0
M  END
>  <MolRegNo>
2266725

>  <m>
=

>  <Value>
11000

>  <Unit>
nM

>  <Type>
IC50

>  <pValue>
4.96

>  <Ligand Efficiency>
0

>  <Binding Efficiency>
0

>  <Surface Efficiency>
0

>  <Assay Index>
1152716

>  <Assay Category>


>  <Assay Organism>
Homo sapiens

>  <Target ID>
17045

>  <Target Name>
Cytochrome P450 3A4

>  <Target Organism>
Homo sapiens

>  <Target Description>
Target is a single protein chain

>  <Sequence Accession>
P08684

>  <Reference>
J Med Chem 61 (16), 7065-7086 (2018)

>  <Pubmed ID>
29995408

>  <DOI>
10.1021/acs.jmedchem.8b00084

$$$$
2277396
Actelion Java MolfileCreator 1.0

 17 16  0  0  0  0  0  0  0  0999 V2000
    0.0000   -0.0000   -0.0000 Cl  0  0  0  0  0  0  0  0  0  0  0  0
   -8.3196   -4.8770   -0.0000 Cl  0  0  0  0  0  0  0  0  0  0  0  0
   -9.0847    3.2514   -0.0000 O   0  0  0  0  0  0  0  0  0  0  0  0
   -9.5628    1.8289   -0.0000 C   0  0  0  0  0  0  0  0  0  0  0  0
   -7.5905    3.2633   -0.0000 C   0  0  0  0  0  0  0  0  0  0  0  0
   -8.3555    0.9563   -0.0000 C   0  0  0  0  0  0  0  0  0  0  0  0
   -7.1362    1.8408   -0.0000 C   0  0  0  0  0  0  0  0  0  0  0  0
   -8.3555   -0.5379   -0.0000 C   0  0  0  0  0  0  0  0  0  0  0  0
   -7.0645   -1.2790   -0.0000 C   0  0  0  0  0  0  0  0  0  0  0  0
   -9.6704   -1.2790   -0.0000 C   0  0  0  0  0  0  0  0  0  0  0  0
   -5.7735   -0.5020   -0.0000 C   0  0  0  0  0  0  0  0  0  0  0  0
   -7.0765   -2.7852   -0.0000 C   0  0  0  0  0  0  0  0  0  0  0  0
   -9.6823   -2.7852   -0.0000 C   0  0  0  0  0  0  0  0  0  0  0  0
   -4.4826    0.2749   -0.0000 C   0  0  0  0  0  0  0  0  0  0  0  0
   -8.4033   -3.5263   -0.0000 N   0  0  0  0  0  0  0  0  0  0  0  0
   -3.1916    1.0519   -0.0000 C   0  0  0  0  0  0  0  0  0  0  0  0
   -1.8887    0.3227   -0.0000 N   0  0  0  0  0  0  0  0  0  0  0  0
  3  4  1  0  0  0  0
  3  5  1  0  0  0  0
  4  6  2  0  0  0  0
  5  7  2  0  0  0  0
  6  8  1  0  0  0  0
  8  9  2  0  0  0  0
  8 10  1  0  0  0  0
  9 11  1  0  0  0  0
  9 12  1  0  0  0  0
 10 13  2  0  0  0  0
 11 14  3  0  0  0  0
 12 15  2  0  0  0  0
 14 16  1  0  0  0  0
 16 17  1  0  0  0  0
  6  7  1  0  0  0  0
 13 15  1  0  0  0  0
M  END
>  <MolRegNo>
2277396

>  <m>
=

>  <Value>
6400

>  <Unit>
nM

>  <Type>
IC50

>  <pValue>
5.19

>  <Ligand Efficiency>
0

>  <Binding Efficiency>
0

>  <Surface Efficiency>
0

>  <Assay Index>
1152716

>  <Assay Category>


>  <Assay Organism>
Homo sapiens

>  <Target ID>
17045

>  <Target Name>
Cytochrome P450 3A4

>  <Target Organism>
Homo sapiens

>  <Target Description>
Target is a single protein chain

>  <Sequence Accession>
P08684

>  <Reference>
J Med Chem 61 (16), 7065-7086 (2018)

>  <Pubmed ID>
29995408

>  <DOI>
10.1021/acs.jmedchem.8b00084

$$$$
2273961
Actelion Java MolfileCreator 1.0

 19 17  0  0  0  0  0  0  0  0999 V2000
    0.0000   -0.0000   -0.0000 Cl  0  0  0  0  0  0  0  0  0  0  0  0
   -8.4313   -4.7367   -0.0000 Cl  0  0  0  0  0  0  0  0  0  0  0  0
   -6.1577    3.5051   -0.0000 Cl  0  0  0  0  0  0  0  0  0  0  0  0
   -8.4313   -3.3157   -0.0000 N   0  0  0  0  0  0  0  0  0  0  0  0
   -7.1406   -2.5578   -0.0000 C   0  0  0  0  0  0  0  0  0  0  0  0
   -9.7339   -2.5578   -0.0000 C   0  0  0  0  0  0  0  0  0  0  0  0
   -7.1524   -1.0421   -0.0000 C   0  0  0  0  0  0  0  0  0  0  0  0
   -9.7457   -1.0421   -0.0000 C   0  0  0  0  0  0  0  0  0  0  0  0
   -5.8735   -0.2842   -0.0000 C   0  0  0  0  0  0  0  0  0  0  0  0
   -8.4550   -0.2842   -0.0000 C   0  0  0  0  0  0  0  0  0  0  0  0
   -4.5946    0.4855   -0.0000 C   0  0  0  0  0  0  0  0  0  0  0  0
   -8.4787    1.2197   -0.0000 C   0  0  0  0  0  0  0  0  0  0  0  0
   -3.3157    1.2552   -0.0000 C   0  0  0  0  0  0  0  0  0  0  0  0
   -7.1998    1.9776   -0.0000 C   0  0  0  0  0  0  0  0  0  0  0  0
   -9.7813    1.9657   -0.0000 C   0  0  0  0  0  0  0  0  0  0  0  0
   -2.0249    0.5329   -0.0000 N   0  0  0  0  0  0  0  0  0  0  0  0
   -7.2116    3.4815   -0.0000 N   0  0  0  0  0  0  0  0  0  0  0  0
   -9.8049    3.4696   -0.0000 C   0  0  0  0  0  0  0  0  0  0  0  0
   -8.5260    4.2393   -0.0000 C   0  0  0  0  0  0  0  0  0  0  0  0
  4  5  2  0  0  0  0
  4  6  1  0  0  0  0
  5  7  1  0  0  0  0
  6  8  2  0  0  0  0
  7  9  1  0  0  0  0
  7 10  2  0  0  0  0
  9 11  3  0  0  0  0
 10 12  1  0  0  0  0
 11 13  1  0  0  0  0
 12 14  2  0  0  0  0
 12 15  1  0  0  0  0
 13 16  1  0  0  0  0
 14 17  1  0  0  0  0
 15 18  2  0  0  0  0
 17 19  2  0  0  0  0
  8 10  1  0  0  0  0
 18 19  1  0  0  0  0
M  END
>  <MolRegNo>
2273961

>  <m>
=

>  <Value>
92000

>  <Unit>
nM

>  <Type>
IC50

>  <pValue>
4.04

>  <Ligand Efficiency>
0

>  <Binding Efficiency>
0

>  <Surface Efficiency>
0

>  <Assay Index>
1152716

>  <Assay Category>


>  <Assay Organism>
Homo sapiens

>  <Target ID>
17045

>  <Target Name>
Cytochrome P450 3A4

>  <Target Organism>
Homo sapiens

>  <Target Description>
Target is a single protein chain

>  <Sequence Accession>
P08684

>  <Reference>
J Med Chem 61 (16), 7065-7086 (2018)

>  <Pubmed ID>
29995408

>  <DOI>
10.1021/acs.jmedchem.8b00084

$$$$
2275448
Actelion Java MolfileCreator 1.0

 16 15  0  0  0  0  0  0  0  0999 V2000
    0.0000   -0.0000   -0.0000 Cl  0  0  0  0  0  0  0  0  0  0  0  0
   -8.0916   -7.2348   -0.0000 Cl  0  0  0  0  0  0  0  0  0  0  0  0
   -5.3309   -1.6183   -0.0000 O   0  0  0  0  0  0  0  0  0  0  0  0
   -5.4975   -3.1057   -0.0000 C   0  0  0  0  0  0  0  0  0  0  0  0
   -3.8792   -1.2851   -0.0000 C   0  0  0  0  0  0  0  0  0  0  0  0
   -6.8065   -3.8554   -0.0000 C   0  0  0  0  0  0  0  0  0  0  0  0
   -4.1410   -3.7007   -0.0000 C   0  0  0  0  0  0  0  0  0  0  0  0
   -3.1414   -2.5703   -0.0000 C   0  0  0  0  0  0  0  0  0  0  0  0
   -3.2842    0.0952   -0.0000 C   0  0  0  0  0  0  0  0  0  0  0  0
   -8.1154   -3.0938   -0.0000 C   0  0  0  0  0  0  0  0  0  0  0  0
   -6.8184   -5.3547   -0.0000 C   0  0  0  0  0  0  0  0  0  0  0  0
   -1.8087    0.2737   -0.0000 N   0  0  0  0  0  0  0  0  0  0  0  0
   -9.4243   -3.8316   -0.0000 C   0  0  0  0  0  0  0  0  0  0  0  0
   -8.1273   -1.5826   -0.0000 C   0  0  0  0  0  0  0  0  0  0  0  0
   -8.1392   -6.0925   -0.0000 N   0  0  0  0  0  0  0  0  0  0  0  0
   -9.4362   -5.3309   -0.0000 C   0  0  0  0  0  0  0  0  0  0  0  0
  3  4  1  0  0  0  0
  3  5  1  0  0  0  0
  4  6  1  0  0  0  0
  4  7  2  0  0  0  0
  5  8  2  0  0  0  0
  5  9  1  0  0  0  0
  6 10  2  0  0  0  0
  6 11  1  0  0  0  0
  9 12  1  0  0  0  0
 10 13  1  0  0  0  0
 10 14  1  0  0  0  0
 11 15  2  0  0  0  0
 13 16  2  0  0  0  0
  7  8  1  0  0  0  0
 15 16  1  0  0  0  0
M  END
>  <MolRegNo>
2275448

>  <m>
=

>  <Value>
29000

>  <Unit>
nM

>  <Type>
IC50

>  <pValue>
4.54

>  <Ligand Efficiency>
0

>  <Binding Efficiency>
0

>  <Surface Efficiency>
0

>  <Assay Index>
1152716

>  <Assay Category>


>  <Assay Organism>
Homo sapiens

>  <Target ID>
17045

>  <Target Name>
Cytochrome P450 3A4

>  <Target Organism>
Homo sapiens

>  <Target Description>
Target is a single protein chain

>  <Sequence Accession>
P08684

>  <Reference>
J Med Chem 61 (16), 7065-7086 (2018)

>  <Pubmed ID>
29995408

>  <DOI>
10.1021/acs.jmedchem.8b00084

$$$$
2276164
Actelion Java MolfileCreator 1.0

 17 16  0  0  0  0  0  0  0  0999 V2000
    0.0000   -0.0000   -0.0000 Cl  0  0  0  0  0  0  0  0  0  0  0  0
   -8.1819   -7.4208   -0.0000 Cl  0  0  0  0  0  0  0  0  0  0  0  0
   -5.4229   -1.6174   -0.0000 O   0  0  0  0  0  0  0  0  0  0  0  0
   -5.5894   -3.1039   -0.0000 C   0  0  0  0  0  0  0  0  0  0  0  0
   -3.9720   -1.2844   -0.0000 C   0  0  0  0  0  0  0  0  0  0  0  0
   -6.8975   -3.8531   -0.0000 C   0  0  0  0  0  0  0  0  0  0  0  0
   -4.2337   -3.6985   -0.0000 C   0  0  0  0  0  0  0  0  0  0  0  0
   -3.2347   -2.5687   -0.0000 C   0  0  0  0  0  0  0  0  0  0  0  0
   -3.3774    0.0951   -0.0000 C   0  0  0  0  0  0  0  0  0  0  0  0
   -8.2057   -3.0920   -0.0000 C   0  0  0  0  0  0  0  0  0  0  0  0
   -6.9094   -5.3515   -0.0000 C   0  0  0  0  0  0  0  0  0  0  0  0
   -1.9028    0.2735   -0.0000 N   0  0  0  0  0  0  0  0  0  0  0  0
   -9.5138   -3.8293   -0.0000 C   0  0  0  0  0  0  0  0  0  0  0  0
   -8.2176   -1.5817   -0.0000 C   0  0  0  0  0  0  0  0  0  0  0  0
   -8.2295   -6.0889   -0.0000 N   0  0  0  0  0  0  0  0  0  0  0  0
   -9.5257   -5.3277   -0.0000 C   0  0  0  0  0  0  0  0  0  0  0  0
   -9.5257   -0.8206   -0.0000 C   0  0  0  0  0  0  0  0  0  0  0  0
  3  4  1  0  0  0  0
  3  5  1  0  0  0  0
  4  6  1  0  0  0  0
  4  7  2  0  0  0  0
  5  8  2  0  0  0  0
  5  9  1  0  0  0  0
  6 10  2  0  0  0  0
  6 11  1  0  0  0  0
  9 12  1  0  0  0  0
 10 13  1  0  0  0  0
 10 14  1  0  0  0  0
 11 15  2  0  0  0  0
 13 16  2  0  0  0  0
 14 17  1  0  0  0  0
  7  8  1  0  0  0  0
 15 16  1  0  0  0  0
M  END
>  <MolRegNo>
2276164

>  <m>
=

>  <Value>
181000

>  <Unit>
nM

>  <Type>
IC50

>  <pValue>
0

>  <Ligand Efficiency>
0

>  <Binding Efficiency>
0

>  <Surface Efficiency>
0

>  <Assay Index>
1152716

>  <Assay Category>


>  <Assay Organism>
Homo sapiens

>  <Target ID>
17045

>  <Target Name>
Cytochrome P450 3A4

>  <Target Organism>
Homo sapiens

>  <Target Description>
Target is a single protein chain

>  <Sequence Accession>
P08684

>  <Reference>
J Med Chem 61 (16), 7065-7086 (2018)

>  <Pubmed ID>
29995408

>  <DOI>
10.1021/acs.jmedchem.8b00084

$$$$
2272752
Actelion Java MolfileCreator 1.0

 18 17  0  0  0  0  0  0  0  0999 V2000
    0.0000   -0.0000   -0.0000 Cl  0  0  0  0  0  0  0  0  0  0  0  0
   -8.0791   -7.5088   -0.0000 Cl  0  0  0  0  0  0  0  0  0  0  0  0
   -5.6078   -1.7109   -0.0000 O   0  0  0  0  0  0  0  0  0  0  0  0
   -5.7742   -3.1960   -0.0000 C   0  0  0  0  0  0  0  0  0  0  0  0
   -4.1584   -1.3782   -0.0000 C   0  0  0  0  0  0  0  0  0  0  0  0
   -7.0811   -3.9445   -0.0000 C   0  0  0  0  0  0  0  0  0  0  0  0
   -4.4197   -3.7900   -0.0000 C   0  0  0  0  0  0  0  0  0  0  0  0
   -3.4098   -2.6613   -0.0000 C   0  0  0  0  0  0  0  0  0  0  0  0
   -3.5643   -0.0000   -0.0000 C   0  0  0  0  0  0  0  0  0  0  0  0
   -8.3880   -3.1841   -0.0000 C   0  0  0  0  0  0  0  0  0  0  0  0
   -7.0930   -5.4415   -0.0000 C   0  0  0  0  0  0  0  0  0  0  0  0
   -2.0911    0.1782   -0.0000 N   0  0  0  0  0  0  0  0  0  0  0  0
   -9.6949   -3.9207   -0.0000 C   0  0  0  0  0  0  0  0  0  0  0  0
   -8.3999   -1.6752   -0.0000 C   0  0  0  0  0  0  0  0  0  0  0  0
   -8.4118   -6.1781   -0.0000 N   0  0  0  0  0  0  0  0  0  0  0  0
   -9.7068   -5.4177   -0.0000 C   0  0  0  0  0  0  0  0  0  0  0  0
   -9.7068   -0.9148   -0.0000 C   0  0  0  0  0  0  0  0  0  0  0  0
   -9.7187    0.5941   -0.0000 C   0  0  0  0  0  0  0  0  0  0  0  0
  3  4  1  0  0  0  0
  3  5  1  0  0  0  0
  4  6  1  0  0  0  0
  4  7  2  0  0  0  0
  5  8  2  0  0  0  0
  5  9  1  0  0  0  0
  6 10  2  0  0  0  0
  6 11  1  0  0  0  0
  9 12  1  0  0  0  0
 10 13  1  0  0  0  0
 10 14  1  0  0  0  0
 11 15  2  0  0  0  0
 13 16  2  0  0  0  0
 14 17  1  0  0  0  0
 17 18  1  0  0  0  0
  7  8  1  0  0  0  0
 15 16  1  0  0  0  0
M  END
>  <MolRegNo>
2272752

>  <m>
=

>  <Value>
4900

>  <Unit>
nM

>  <Type>
IC50

>  <pValue>
5.31

>  <Ligand Efficiency>
0

>  <Binding Efficiency>
0

>  <Surface Efficiency>
0

>  <Assay Index>
1152716

>  <Assay Category>


>  <Assay Organism>
Homo sapiens

>  <Target ID>
17045

>  <Target Name>
Cytochrome P450 3A4

>  <Target Organism>
Homo sapiens

>  <Target Description>
Target is a single protein chain

>  <Sequence Accession>
P08684

>  <Reference>
J Med Chem 61 (16), 7065-7086 (2018)

>  <Pubmed ID>
29995408

>  <DOI>
10.1021/acs.jmedchem.8b00084

$$$$
2262096
Actelion Java MolfileCreator 1.0

 21 21  0  0  0  0  0  0  0  0999 V2000
    0.0000   -0.0000   -0.0000 Cl  0  0  0  0  0  0  0  0  0  0  0  0
   -7.9838   -7.3185   -0.0000 Cl  0  0  0  0  0  0  0  0  0  0  0  0
   -5.3225   -1.8059   -0.0000 O   0  0  0  0  0  0  0  0  0  0  0  0
   -5.4889   -3.2909   -0.0000 C   0  0  0  0  0  0  0  0  0  0  0  0
   -3.8731   -1.4732   -0.0000 C   0  0  0  0  0  0  0  0  0  0  0  0
   -6.7957   -4.0394   -0.0000 C   0  0  0  0  0  0  0  0  0  0  0  0
   -4.1345   -3.8850   -0.0000 C   0  0  0  0  0  0  0  0  0  0  0  0
   -3.1365   -2.7563   -0.0000 C   0  0  0  0  0  0  0  0  0  0  0  0
   -3.2791   -0.0950   -0.0000 C   0  0  0  0  0  0  0  0  0  0  0  0
   -8.1026   -3.2791   -0.0000 C   0  0  0  0  0  0  0  0  0  0  0  0
   -6.8076   -5.5364   -0.0000 C   0  0  0  0  0  0  0  0  0  0  0  0
   -1.8059    0.0832   -0.0000 N   0  0  0  0  0  0  0  0  0  0  0  0
   -8.1264   -1.7702   -0.0000 C   0  0  0  0  0  0  0  0  0  0  0  0
   -9.4095   -4.0157   -0.0000 C   0  0  0  0  0  0  0  0  0  0  0  0
   -8.1264   -6.2730   -0.0000 N   0  0  0  0  0  0  0  0  0  0  0  0
   -6.8433   -1.0099   -0.0000 C   0  0  0  0  0  0  0  0  0  0  0  0
   -9.4333   -1.0217   -0.0000 C   0  0  0  0  0  0  0  0  0  0  0  0
   -9.4214   -5.5126   -0.0000 C   0  0  0  0  0  0  0  0  0  0  0  0
   -6.8552    0.4990   -0.0000 C   0  0  0  0  0  0  0  0  0  0  0  0
   -9.4570    0.4871   -0.0000 C   0  0  0  0  0  0  0  0  0  0  0  0
   -8.1739    1.2594   -0.0000 C   0  0  0  0  0  0  0  0  0  0  0  0
  3  4  1  0  0  0  0
  3  5  1  0  0  0  0
  4  6  1  0  0  0  0
  4  7  2  0  0  0  0
  5  8  2  0  0  0  0
  5  9  1  0  0  0  0
  6 10  2  0  0  0  0
  6 11  1  0  0  0  0
  9 12  1  0  0  0  0
 10 13  1  0  0  0  0
 10 14  1  0  0  0  0
 11 15  2  0  0  0  0
 13 16  2  0  0  0  0
 13 17  1  0  0  0  0
 14 18  2  0  0  0  0
 16 19  1  0  0  0  0
 17 20  2  0  0  0  0
 19 21  2  0  0  0  0
  7  8  1  0  0  0  0
 15 18  1  0  0  0  0
 20 21  1  0  0  0  0
M  END
>  <MolRegNo>
2262096

>  <m>
=

>  <Value>
5200

>  <Unit>
nM

>  <Type>
IC50

>  <pValue>
5.28

>  <Ligand Efficiency>
0

>  <Binding Efficiency>
0

>  <Surface Efficiency>
0

>  <Assay Index>
1152716

>  <Assay Category>


>  <Assay Organism>
Homo sapiens

>  <Target ID>
17045

>  <Target Name>
Cytochrome P450 3A4

>  <Target Organism>
Homo sapiens

>  <Target Description>
Target is a single protein chain

>  <Sequence Accession>
P08684

>  <Reference>
J Med Chem 61 (16), 7065-7086 (2018)

>  <Pubmed ID>
29995408

>  <DOI>
10.1021/acs.jmedchem.8b00084

$$$$
2264431
Actelion Java MolfileCreator 1.0

 20 20  0  0  0  0  0  0  0  0999 V2000
    0.0000   -0.0000   -0.0000 Cl  0  0  0  0  0  0  0  0  0  0  0  0
   -8.1764   -7.7010   -0.0000 Cl  0  0  0  0  0  0  0  0  0  0  0  0
   -5.5143   -1.8064   -0.0000 O   0  0  0  0  0  0  0  0  0  0  0  0
   -5.6807   -3.2919   -0.0000 C   0  0  0  0  0  0  0  0  0  0  0  0
   -4.0644   -1.4737   -0.0000 C   0  0  0  0  0  0  0  0  0  0  0  0
   -6.9880   -4.0407   -0.0000 C   0  0  0  0  0  0  0  0  0  0  0  0
   -4.3259   -3.8862   -0.0000 C   0  0  0  0  0  0  0  0  0  0  0  0
   -3.3276   -2.7572   -0.0000 C   0  0  0  0  0  0  0  0  0  0  0  0
   -3.4702   -0.0951   -0.0000 C   0  0  0  0  0  0  0  0  0  0  0  0
   -8.2952   -3.2801   -0.0000 C   0  0  0  0  0  0  0  0  0  0  0  0
   -6.9998   -5.5381   -0.0000 C   0  0  0  0  0  0  0  0  0  0  0  0
   -1.9966    0.0832   -0.0000 N   0  0  0  0  0  0  0  0  0  0  0  0
   -8.3190   -1.7708   -0.0000 C   0  0  0  0  0  0  0  0  0  0  0  0
   -9.6025   -4.0169   -0.0000 C   0  0  0  0  0  0  0  0  0  0  0  0
   -8.3190   -6.2749   -0.0000 N   0  0  0  0  0  0  0  0  0  0  0  0
   -9.5431   -0.8794   -0.0000 O   0  0  0  0  0  0  0  0  0  0  0  0
   -7.1187   -0.8794   -0.0000 C   0  0  0  0  0  0  0  0  0  0  0  0
   -9.6144   -5.5143   -0.0000 C   0  0  0  0  0  0  0  0  0  0  0  0
   -9.0915    0.5586   -0.0000 C   0  0  0  0  0  0  0  0  0  0  0  0
   -7.5941    0.5586   -0.0000 C   0  0  0  0  0  0  0  0  0  0  0  0
  3  4  1  0  0  0  0
  3  5  1  0  0  0  0
  4  6  1  0  0  0  0
  4  7  2  0  0  0  0
  5  8  2  0  0  0  0
  5  9  1  0  0  0  0
  6 10  2  0  0  0  0
  6 11  1  0  0  0  0
  9 12  1  0  0  0  0
 10 13  1  0  0  0  0
 10 14  1  0  0  0  0
 11 15  2  0  0  0  0
 13 16  1  0  0  0  0
 13 17  2  0  0  0  0
 14 18  2  0  0  0  0
 16 19  1  0  0  0  0
 17 20  1  0  0  0  0
  7  8  1  0  0  0  0
 15 18  1  0  0  0  0
 19 20  2  0  0  0  0
M  END
>  <MolRegNo>
2264431

>  <m>
=

>  <Value>
29000

>  <Unit>
nM

>  <Type>
IC50

>  <pValue>
4.54

>  <Ligand Efficiency>
0

>  <Binding Efficiency>
0

>  <Surface Efficiency>
0

>  <Assay Index>
1152716

>  <Assay Category>


>  <Assay Organism>
Homo sapiens

>  <Target ID>
17045

>  <Target Name>
Cytochrome P450 3A4

>  <Target Organism>
Homo sapiens

>  <Target Description>
Target is a single protein chain

>  <Sequence Accession>
P08684

>  <Reference>
J Med Chem 61 (16), 7065-7086 (2018)

>  <Pubmed ID>
29995408

>  <DOI>
10.1021/acs.jmedchem.8b00084

$$$$
2272355
Actelion Java MolfileCreator 1.0

 20 20  0  0  0  0  0  0  0  0999 V2000
    0.0000   -0.0000   -0.0000 Cl  0  0  0  0  0  0  0  0  0  0  0  0
   -8.2676   -7.6024   -0.0000 Cl  0  0  0  0  0  0  0  0  0  0  0  0
   -5.5118   -1.7105   -0.0000 O   0  0  0  0  0  0  0  0  0  0  0  0
   -5.6781   -3.1954   -0.0000 C   0  0  0  0  0  0  0  0  0  0  0  0
   -4.0625   -1.3779   -0.0000 C   0  0  0  0  0  0  0  0  0  0  0  0
   -6.9847   -3.9438   -0.0000 C   0  0  0  0  0  0  0  0  0  0  0  0
   -4.3239   -3.7893   -0.0000 C   0  0  0  0  0  0  0  0  0  0  0  0
   -3.3142   -2.6609   -0.0000 C   0  0  0  0  0  0  0  0  0  0  0  0
   -3.4686   -0.0000   -0.0000 C   0  0  0  0  0  0  0  0  0  0  0  0
   -8.2914   -3.1835   -0.0000 C   0  0  0  0  0  0  0  0  0  0  0  0
   -6.9966   -5.4405   -0.0000 C   0  0  0  0  0  0  0  0  0  0  0  0
   -1.9956    0.1782   -0.0000 N   0  0  0  0  0  0  0  0  0  0  0  0
   -8.3152   -1.6749   -0.0000 C   0  0  0  0  0  0  0  0  0  0  0  0
   -9.5981   -3.9200   -0.0000 C   0  0  0  0  0  0  0  0  0  0  0  0
   -8.3152   -6.1770   -0.0000 N   0  0  0  0  0  0  0  0  0  0  0  0
   -9.5387   -0.7840   -0.0000 C   0  0  0  0  0  0  0  0  0  0  0  0
   -7.1154   -0.7840   -0.0000 C   0  0  0  0  0  0  0  0  0  0  0  0
   -9.6099   -5.4167   -0.0000 C   0  0  0  0  0  0  0  0  0  0  0  0
   -9.0873    0.6533   -0.0000 O   0  0  0  0  0  0  0  0  0  0  0  0
   -7.5906    0.6533   -0.0000 C   0  0  0  0  0  0  0  0  0  0  0  0
  3  4  1  0  0  0  0
  3  5  1  0  0  0  0
  4  6  1  0  0  0  0
  4  7  2  0  0  0  0
  5  8  2  0  0  0  0
  5  9  1  0  0  0  0
  6 10  2  0  0  0  0
  6 11  1  0  0  0  0
  9 12  1  0  0  0  0
 10 13  1  0  0  0  0
 10 14  1  0  0  0  0
 11 15  2  0  0  0  0
 13 16  2  0  0  0  0
 13 17  1  0  0  0  0
 14 18  2  0  0  0  0
 16 19  1  0  0  0  0
 17 20  2  0  0  0  0
  7  8  1  0  0  0  0
 15 18  1  0  0  0  0
 19 20  1  0  0  0  0
M  END
>  <MolRegNo>
2272355

>  <m>
=

>  <Value>
24000

>  <Unit>
nM

>  <Type>
IC50

>  <pValue>
4.62

>  <Ligand Efficiency>
0

>  <Binding Efficiency>
0

>  <Surface Efficiency>
0

>  <Assay Index>
1152716

>  <Assay Category>


>  <Assay Organism>
Homo sapiens

>  <Target ID>
17045

>  <Target Name>
Cytochrome P450 3A4

>  <Target Organism>
Homo sapiens

>  <Target Description>
Target is a single protein chain

>  <Sequence Accession>
P08684

>  <Reference>
J Med Chem 61 (16), 7065-7086 (2018)

>  <Pubmed ID>
29995408

>  <DOI>
10.1021/acs.jmedchem.8b00084

$$$$
2279537
Actelion Java MolfileCreator 1.0

 22 21  0  0  0  0  0  0  0  0999 V2000
    0.0000   -0.0000   -0.0000 Cl  0  0  0  0  0  0  0  0  0  0  0  0
   -8.3603   -7.6003   -0.0000 Cl  0  0  0  0  0  0  0  0  0  0  0  0
   -8.4553    2.3751   -0.0000 Cl  0  0  0  0  0  0  0  0  0  0  0  0
   -5.6052   -1.8051   -0.0000 O   0  0  0  0  0  0  0  0  0  0  0  0
   -5.7715   -3.2895   -0.0000 C   0  0  0  0  0  0  0  0  0  0  0  0
   -4.1564   -1.4726   -0.0000 C   0  0  0  0  0  0  0  0  0  0  0  0
   -7.0778   -4.0377   -0.0000 C   0  0  0  0  0  0  0  0  0  0  0  0
   -4.4177   -3.8833   -0.0000 C   0  0  0  0  0  0  0  0  0  0  0  0
   -3.4083   -2.7551   -0.0000 C   0  0  0  0  0  0  0  0  0  0  0  0
   -3.5626   -0.0950   -0.0000 C   0  0  0  0  0  0  0  0  0  0  0  0
   -8.3841   -3.2776   -0.0000 C   0  0  0  0  0  0  0  0  0  0  0  0
   -7.0896   -5.5340   -0.0000 C   0  0  0  0  0  0  0  0  0  0  0  0
   -2.0901    0.0831   -0.0000 N   0  0  0  0  0  0  0  0  0  0  0  0
   -8.4078   -1.7694   -0.0000 C   0  0  0  0  0  0  0  0  0  0  0  0
   -9.6904   -4.0139   -0.0000 C   0  0  0  0  0  0  0  0  0  0  0  0
   -8.4078   -6.2702   -0.0000 N   0  0  0  0  0  0  0  0  0  0  0  0
   -7.1253   -1.0094   -0.0000 C   0  0  0  0  0  0  0  0  0  0  0  0
   -9.7141   -1.0213   -0.0000 C   0  0  0  0  0  0  0  0  0  0  0  0
   -9.7022   -5.5102   -0.0000 C   0  0  0  0  0  0  0  0  0  0  0  0
   -7.1371    0.4988   -0.0000 C   0  0  0  0  0  0  0  0  0  0  0  0
   -9.7379    0.4869   -0.0000 C   0  0  0  0  0  0  0  0  0  0  0  0
   -8.4553    1.2588   -0.0000 N   0  0  0  0  0  0  0  0  0  0  0  0
  4  5  1  0  0  0  0
  4  6  1  0  0  0  0
  5  7  1  0  0  0  0
  5  8  2  0  0  0  0
  6  9  2  0  0  0  0
  6 10  1  0  0  0  0
  7 11  2  0  0  0  0
  7 12  1  0  0  0  0
 10 13  1  0  0  0  0
 11 14  1  0  0  0  0
 11 15  1  0  0  0  0
 12 16  2  0  0  0  0
 14 17  2  0  0  0  0
 14 18  1  0  0  0  0
 15 19  2  0  0  0  0
 17 20  1  0  0  0  0
 18 21  2  0  0  0  0
 20 22  2  0  0  0  0
  8  9  1  0  0  0  0
 16 19  1  0  0  0  0
 21 22  1  0  0  0  0
M  END
>  <MolRegNo>
2279537

>  <m>
=

>  <Value>
39000

>  <Unit>
nM

>  <Type>
IC50

>  <pValue>
4.41

>  <Ligand Efficiency>
0

>  <Binding Efficiency>
0

>  <Surface Efficiency>
0

>  <Assay Index>
1152716

>  <Assay Category>


>  <Assay Organism>
Homo sapiens

>  <Target ID>
17045

>  <Target Name>
Cytochrome P450 3A4

>  <Target Organism>
Homo sapiens

>  <Target Description>
Target is a single protein chain

>  <Sequence Accession>
P08684

>  <Reference>
J Med Chem 61 (16), 7065-7086 (2018)

>  <Pubmed ID>
29995408

>  <DOI>
10.1021/acs.jmedchem.8b00084

$$$$
2268926
Actelion Java MolfileCreator 1.0

 22 21  0  0  0  0  0  0  0  0999 V2000
    0.0000   -0.0000   -0.0000 Cl  0  0  0  0  0  0  0  0  0  0  0  0
   -8.4606   -7.8902   -0.0000 Cl  0  0  0  0  0  0  0  0  0  0  0  0
   -5.8939    0.7605   -0.0000 Cl  0  0  0  0  0  0  0  0  0  0  0  0
   -5.8939   -1.7111   -0.0000 O   0  0  0  0  0  0  0  0  0  0  0  0
   -6.0603   -3.1965   -0.0000 C   0  0  0  0  0  0  0  0  0  0  0  0
   -4.4442   -1.3784   -0.0000 C   0  0  0  0  0  0  0  0  0  0  0  0
   -7.3674   -3.9451   -0.0000 C   0  0  0  0  0  0  0  0  0  0  0  0
   -4.7056   -3.7906   -0.0000 C   0  0  0  0  0  0  0  0  0  0  0  0
   -3.7075   -2.6618   -0.0000 C   0  0  0  0  0  0  0  0  0  0  0  0
   -3.8501   -0.0000   -0.0000 C   0  0  0  0  0  0  0  0  0  0  0  0
   -8.6745   -3.1846   -0.0000 C   0  0  0  0  0  0  0  0  0  0  0  0
   -7.3793   -5.4424   -0.0000 C   0  0  0  0  0  0  0  0  0  0  0  0
   -2.3766    0.1782   -0.0000 N   0  0  0  0  0  0  0  0  0  0  0  0
   -8.6983   -1.6755   -0.0000 C   0  0  0  0  0  0  0  0  0  0  0  0
   -9.9816   -3.9213   -0.0000 C   0  0  0  0  0  0  0  0  0  0  0  0
   -8.6983   -6.1791   -0.0000 N   0  0  0  0  0  0  0  0  0  0  0  0
   -7.4149   -0.9150   -0.0000 C   0  0  0  0  0  0  0  0  0  0  0  0
  -10.0054   -0.9269   -0.0000 C   0  0  0  0  0  0  0  0  0  0  0  0
   -9.9935   -5.4067   -0.0000 C   0  0  0  0  0  0  0  0  0  0  0  0
   -7.4268    0.5941   -0.0000 N   0  0  0  0  0  0  0  0  0  0  0  0
  -10.0291    0.5823   -0.0000 C   0  0  0  0  0  0  0  0  0  0  0  0
   -8.7458    1.3546   -0.0000 C   0  0  0  0  0  0  0  0  0  0  0  0
  4  5  1  0  0  0  0
  4  6  1  0  0  0  0
  5  7  1  0  0  0  0
  5  8  2  0  0  0  0
  6  9  2  0  0  0  0
  6 10  1  0  0  0  0
  7 11  2  0  0  0  0
  7 12  1  0  0  0  0
 10 13  1  0  0  0  0
 11 14  1  0  0  0  0
 11 15  1  0  0  0  0
 12 16  2  0  0  0  0
 14 17  2  0  0  0  0
 14 18  1  0  0  0  0
 15 19  2  0  0  0  0
 17 20  1  0  0  0  0
 18 21  2  0  0  0  0
 20 22  2  0  0  0  0
  8  9  1  0  0  0  0
 16 19  1  0  0  0  0
 21 22  1  0  0  0  0
M  END
>  <MolRegNo>
2268926

>  <m>
=

>  <Value>
90000

>  <Unit>
nM

>  <Type>
IC50

>  <pValue>
4.05

>  <Ligand Efficiency>
0

>  <Binding Efficiency>
0

>  <Surface Efficiency>
0

>  <Assay Index>
1152716

>  <Assay Category>


>  <Assay Organism>
Homo sapiens

>  <Target ID>
17045

>  <Target Name>
Cytochrome P450 3A4

>  <Target Organism>
Homo sapiens

>  <Target Description>
Target is a single protein chain

>  <Sequence Accession>
P08684

>  <Reference>
J Med Chem 61 (16), 7065-7086 (2018)

>  <Pubmed ID>
29995408

>  <DOI>
10.1021/acs.jmedchem.8b00084

$$$$
2279131
Actelion Java MolfileCreator 1.0

 16 15  0  0  0  0  0  0  0  0999 V2000
    0.0000   -0.0000   -0.0000 Cl  0  0  0  0  0  0  0  0  0  0  0  0
   -7.9915   -7.5158   -0.0000 Cl  0  0  0  0  0  0  0  0  0  0  0  0
   -5.3277   -1.8076   -0.0000 S   0  0  0  0  0  0  0  0  0  0  0  0
   -5.4941   -3.2941   -0.0000 C   0  0  0  0  0  0  0  0  0  0  0  0
   -3.8768   -1.4746   -0.0000 C   0  0  0  0  0  0  0  0  0  0  0  0
   -6.8023   -4.0433   -0.0000 C   0  0  0  0  0  0  0  0  0  0  0  0
   -4.1384   -3.8887   -0.0000 C   0  0  0  0  0  0  0  0  0  0  0  0
   -3.1276   -2.7590   -0.0000 C   0  0  0  0  0  0  0  0  0  0  0  0
   -3.2822   -0.0951   -0.0000 C   0  0  0  0  0  0  0  0  0  0  0  0
   -8.1104   -3.2822   -0.0000 C   0  0  0  0  0  0  0  0  0  0  0  0
   -6.8142   -5.5417   -0.0000 C   0  0  0  0  0  0  0  0  0  0  0  0
   -1.8076    0.0832   -0.0000 N   0  0  0  0  0  0  0  0  0  0  0  0
   -9.4185   -4.0195   -0.0000 C   0  0  0  0  0  0  0  0  0  0  0  0
   -8.1223   -1.7719   -0.0000 C   0  0  0  0  0  0  0  0  0  0  0  0
   -8.1342   -6.2790   -0.0000 N   0  0  0  0  0  0  0  0  0  0  0  0
   -9.4304   -5.5179   -0.0000 C   0  0  0  0  0  0  0  0  0  0  0  0
  3  4  1  0  0  0  0
  3  5  1  0  0  0  0
  4  6  1  0  0  0  0
  4  7  2  0  0  0  0
  5  8  2  0  0  0  0
  5  9  1  0  0  0  0
  6 10  2  0  0  0  0
  6 11  1  0  0  0  0
  9 12  1  0  0  0  0
 10 13  1  0  0  0  0
 10 14  1  0  0  0  0
 11 15  2  0  0  0  0
 13 16  2  0  0  0  0
  7  8  1  0  0  0  0
 15 16  1  0  0  0  0
M  END
>  <MolRegNo>
2279131

>  <m>
=

>  <Value>
37000

>  <Unit>
nM

>  <Type>
IC50

>  <pValue>
4.43

>  <Ligand Efficiency>
0

>  <Binding Efficiency>
0

>  <Surface Efficiency>
0

>  <Assay Index>
1152716

>  <Assay Category>


>  <Assay Organism>
Homo sapiens

>  <Target ID>
17045

>  <Target Name>
Cytochrome P450 3A4

>  <Target Organism>
Homo sapiens

>  <Target Description>
Target is a single protein chain

>  <Sequence Accession>
P08684

>  <Reference>
J Med Chem 61 (16), 7065-7086 (2018)

>  <Pubmed ID>
29995408

>  <DOI>
10.1021/acs.jmedchem.8b00084

$$$$
2264850
Actelion Java MolfileCreator 1.0

 17 16  0  0  0  0  0  0  0  0999 V2000
    0.0000   -0.0000   -0.0000 Cl  0  0  0  0  0  0  0  0  0  0  0  0
   -8.0868   -7.8013   -0.0000 Cl  0  0  0  0  0  0  0  0  0  0  0  0
   -5.4229   -1.8076   -0.0000 S   0  0  0  0  0  0  0  0  0  0  0  0
   -5.5894   -3.2942   -0.0000 C   0  0  0  0  0  0  0  0  0  0  0  0
   -3.9720   -1.4746   -0.0000 C   0  0  0  0  0  0  0  0  0  0  0  0
   -6.8975   -4.0434   -0.0000 C   0  0  0  0  0  0  0  0  0  0  0  0
   -4.2337   -3.8888   -0.0000 C   0  0  0  0  0  0  0  0  0  0  0  0
   -3.2347   -2.7590   -0.0000 C   0  0  0  0  0  0  0  0  0  0  0  0
   -3.3774   -0.0951   -0.0000 C   0  0  0  0  0  0  0  0  0  0  0  0
   -8.2057   -3.2823   -0.0000 C   0  0  0  0  0  0  0  0  0  0  0  0
   -6.9094   -5.5418   -0.0000 C   0  0  0  0  0  0  0  0  0  0  0  0
   -1.9028    0.0832   -0.0000 N   0  0  0  0  0  0  0  0  0  0  0  0
   -9.5138   -4.0196   -0.0000 C   0  0  0  0  0  0  0  0  0  0  0  0
   -8.2176   -1.7720   -0.0000 C   0  0  0  0  0  0  0  0  0  0  0  0
   -8.2295   -6.2791   -0.0000 N   0  0  0  0  0  0  0  0  0  0  0  0
   -9.5257   -5.5180   -0.0000 C   0  0  0  0  0  0  0  0  0  0  0  0
   -9.5257   -1.0108   -0.0000 C   0  0  0  0  0  0  0  0  0  0  0  0
  3  4  1  0  0  0  0
  3  5  1  0  0  0  0
  4  6  1  0  0  0  0
  4  7  2  0  0  0  0
  5  8  2  0  0  0  0
  5  9  1  0  0  0  0
  6 10  2  0  0  0  0
  6 11  1  0  0  0  0
  9 12  1  0  0  0  0
 10 13  1  0  0  0  0
 10 14  1  0  0  0  0
 11 15  2  0  0  0  0
 13 16  2  0  0  0  0
 14 17  1  0  0  0  0
  7  8  1  0  0  0  0
 15 16  1  0  0  0  0
M  END
>  <MolRegNo>
2264850

>  <m>
=

>  <Value>
13000

>  <Unit>
nM

>  <Type>
IC50

>  <pValue>
4.89

>  <Ligand Efficiency>
0

>  <Binding Efficiency>
0

>  <Surface Efficiency>
0

>  <Assay Index>
1152716

>  <Assay Category>


>  <Assay Organism>
Homo sapiens

>  <Target ID>
17045

>  <Target Name>
Cytochrome P450 3A4

>  <Target Organism>
Homo sapiens

>  <Target Description>
Target is a single protein chain

>  <Sequence Accession>
P08684

>  <Reference>
J Med Chem 61 (16), 7065-7086 (2018)

>  <Pubmed ID>
29995408

>  <DOI>
10.1021/acs.jmedchem.8b00084

$$$$
2268280
Actelion Java MolfileCreator 1.0

 18 17  0  0  0  0  0  0  0  0999 V2000
    0.0000   -0.0000   -0.0000 Cl  0  0  0  0  0  0  0  0  0  0  0  0
   -8.1741   -7.6989   -0.0000 Cl  0  0  0  0  0  0  0  0  0  0  0  0
   -5.5128   -1.7109   -0.0000 S   0  0  0  0  0  0  0  0  0  0  0  0
   -5.6791   -3.1960   -0.0000 C   0  0  0  0  0  0  0  0  0  0  0  0
   -4.0633   -1.3782   -0.0000 C   0  0  0  0  0  0  0  0  0  0  0  0
   -6.9860   -3.9445   -0.0000 C   0  0  0  0  0  0  0  0  0  0  0  0
   -4.3247   -3.7900   -0.0000 C   0  0  0  0  0  0  0  0  0  0  0  0
   -3.3148   -2.6613   -0.0000 C   0  0  0  0  0  0  0  0  0  0  0  0
   -3.4693   -0.0000   -0.0000 C   0  0  0  0  0  0  0  0  0  0  0  0
   -8.2929   -3.1841   -0.0000 C   0  0  0  0  0  0  0  0  0  0  0  0
   -6.9979   -5.4415   -0.0000 C   0  0  0  0  0  0  0  0  0  0  0  0
   -1.9960    0.1782   -0.0000 N   0  0  0  0  0  0  0  0  0  0  0  0
   -9.5999   -3.9207   -0.0000 C   0  0  0  0  0  0  0  0  0  0  0  0
   -8.3048   -1.6752   -0.0000 C   0  0  0  0  0  0  0  0  0  0  0  0
   -8.3167   -6.1781   -0.0000 N   0  0  0  0  0  0  0  0  0  0  0  0
   -9.6117   -5.4177   -0.0000 C   0  0  0  0  0  0  0  0  0  0  0  0
   -9.6117   -0.9148   -0.0000 C   0  0  0  0  0  0  0  0  0  0  0  0
   -9.6236    0.5941   -0.0000 C   0  0  0  0  0  0  0  0  0  0  0  0
  3  4  1  0  0  0  0
  3  5  1  0  0  0  0
  4  6  1  0  0  0  0
  4  7  2  0  0  0  0
  5  8  2  0  0  0  0
  5  9  1  0  0  0  0
  6 10  2  0  0  0  0
  6 11  1  0  0  0  0
  9 12  1  0  0  0  0
 10 13  1  0  0  0  0
 10 14  1  0  0  0  0
 11 15  2  0  0  0  0
 13 16  2  0  0  0  0
 14 17  1  0  0  0  0
 17 18  1  0  0  0  0
  7  8  1  0  0  0  0
 15 16  1  0  0  0  0
M  END
>  <MolRegNo>
2268280

>  <m>
=

>  <Value>
4300

>  <Unit>
nM

>  <Type>
IC50

>  <pValue>
5.37

>  <Ligand Efficiency>
0

>  <Binding Efficiency>
0

>  <Surface Efficiency>
0

>  <Assay Index>
1152716

>  <Assay Category>


>  <Assay Organism>
Homo sapiens

>  <Target ID>
17045

>  <Target Name>
Cytochrome P450 3A4

>  <Target Organism>
Homo sapiens

>  <Target Description>
Target is a single protein chain

>  <Sequence Accession>
P08684

>  <Reference>
J Med Chem 61 (16), 7065-7086 (2018)

>  <Pubmed ID>
29995408

>  <DOI>
10.1021/acs.jmedchem.8b00084

$$$$
2278900
Actelion Java MolfileCreator 1.0

 21 21  0  0  0  0  0  0  0  0999 V2000
    0.0000   -0.0000   -0.0000 Cl  0  0  0  0  0  0  0  0  0  0  0  0
   -8.2690   -7.7937   -0.0000 Cl  0  0  0  0  0  0  0  0  0  0  0  0
   -5.6077   -1.9960   -0.0000 S   0  0  0  0  0  0  0  0  0  0  0  0
   -5.7740   -3.4810   -0.0000 C   0  0  0  0  0  0  0  0  0  0  0  0
   -4.1582   -1.6633   -0.0000 C   0  0  0  0  0  0  0  0  0  0  0  0
   -7.0809   -4.2295   -0.0000 C   0  0  0  0  0  0  0  0  0  0  0  0
   -4.4196   -4.0751   -0.0000 C   0  0  0  0  0  0  0  0  0  0  0  0
   -3.4216   -2.9464   -0.0000 C   0  0  0  0  0  0  0  0  0  0  0  0
   -3.5642   -0.2851   -0.0000 C   0  0  0  0  0  0  0  0  0  0  0  0
   -8.3878   -3.4692   -0.0000 C   0  0  0  0  0  0  0  0  0  0  0  0
   -7.0928   -5.7265   -0.0000 C   0  0  0  0  0  0  0  0  0  0  0  0
   -2.0910   -0.1069   -0.0000 N   0  0  0  0  0  0  0  0  0  0  0  0
   -8.4115   -1.9603   -0.0000 C   0  0  0  0  0  0  0  0  0  0  0  0
   -9.6946   -4.2058   -0.0000 C   0  0  0  0  0  0  0  0  0  0  0  0
   -8.4115   -6.4631   -0.0000 N   0  0  0  0  0  0  0  0  0  0  0  0
   -7.1284   -1.1999   -0.0000 C   0  0  0  0  0  0  0  0  0  0  0  0
   -9.7184   -1.2118   -0.0000 C   0  0  0  0  0  0  0  0  0  0  0  0
   -9.7065   -5.7027   -0.0000 C   0  0  0  0  0  0  0  0  0  0  0  0
   -7.1403    0.3089   -0.0000 C   0  0  0  0  0  0  0  0  0  0  0  0
   -9.7422    0.2970   -0.0000 C   0  0  0  0  0  0  0  0  0  0  0  0
   -8.4590    1.0693   -0.0000 C   0  0  0  0  0  0  0  0  0  0  0  0
  3  4  1  0  0  0  0
  3  5  1  0  0  0  0
  4  6  1  0  0  0  0
  4  7  2  0  0  0  0
  5  8  2  0  0  0  0
  5  9  1  0  0  0  0
  6 10  2  0  0  0  0
  6 11  1  0  0  0  0
  9 12  1  0  0  0  0
 10 13  1  0  0  0  0
 10 14  1  0  0  0  0
 11 15  2  0  0  0  0
 13 16  2  0  0  0  0
 13 17  1  0  0  0  0
 14 18  2  0  0  0  0
 16 19  1  0  0  0  0
 17 20  2  0  0  0  0
 19 21  2  0  0  0  0
  7  8  1  0  0  0  0
 15 18  1  0  0  0  0
 20 21  1  0  0  0  0
M  END
>  <MolRegNo>
2278900

>  <m>
=

>  <Value>
5300

>  <Unit>
nM

>  <Type>
IC50

>  <pValue>
5.28

>  <Ligand Efficiency>
0

>  <Binding Efficiency>
0

>  <Surface Efficiency>
0

>  <Assay Index>
1152716

>  <Assay Category>


>  <Assay Organism>
Homo sapiens

>  <Target ID>
17045

>  <Target Name>
Cytochrome P450 3A4

>  <Target Organism>
Homo sapiens

>  <Target Description>
Target is a single protein chain

>  <Sequence Accession>
P08684

>  <Reference>
J Med Chem 61 (16), 7065-7086 (2018)

>  <Pubmed ID>
29995408

>  <DOI>
10.1021/acs.jmedchem.8b00084

$$$$
2271700
Actelion Java MolfileCreator 1.0

 20 20  0  0  0  0  0  0  0  0999 V2000
    0.0000   -0.0000   -0.0000 Cl  0  0  0  0  0  0  0  0  0  0  0  0
   -8.1764   -7.7010   -0.0000 Cl  0  0  0  0  0  0  0  0  0  0  0  0
   -5.6094   -1.7113   -0.0000 S   0  0  0  0  0  0  0  0  0  0  0  0
   -5.7758   -3.1969   -0.0000 C   0  0  0  0  0  0  0  0  0  0  0  0
   -4.1595   -1.3786   -0.0000 C   0  0  0  0  0  0  0  0  0  0  0  0
   -7.0830   -3.9456   -0.0000 C   0  0  0  0  0  0  0  0  0  0  0  0
   -4.4210   -3.7911   -0.0000 C   0  0  0  0  0  0  0  0  0  0  0  0
   -3.4227   -2.6621   -0.0000 C   0  0  0  0  0  0  0  0  0  0  0  0
   -3.5653   -0.0000   -0.0000 C   0  0  0  0  0  0  0  0  0  0  0  0
   -8.3903   -3.1850   -0.0000 C   0  0  0  0  0  0  0  0  0  0  0  0
   -7.0949   -5.4430   -0.0000 C   0  0  0  0  0  0  0  0  0  0  0  0
   -2.0916    0.1783   -0.0000 N   0  0  0  0  0  0  0  0  0  0  0  0
   -8.4141   -1.6757   -0.0000 C   0  0  0  0  0  0  0  0  0  0  0  0
   -9.6976   -3.9218   -0.0000 C   0  0  0  0  0  0  0  0  0  0  0  0
   -8.4141   -6.1798   -0.0000 N   0  0  0  0  0  0  0  0  0  0  0  0
   -9.6382   -0.7844   -0.0000 O   0  0  0  0  0  0  0  0  0  0  0  0
   -7.2138   -0.7844   -0.0000 C   0  0  0  0  0  0  0  0  0  0  0  0
   -9.7095   -5.4192   -0.0000 C   0  0  0  0  0  0  0  0  0  0  0  0
   -9.1866    0.6536   -0.0000 C   0  0  0  0  0  0  0  0  0  0  0  0
   -7.6891    0.6536   -0.0000 C   0  0  0  0  0  0  0  0  0  0  0  0
  3  4  1  0  0  0  0
  3  5  1  0  0  0  0
  4  6  1  0  0  0  0
  4  7  2  0  0  0  0
  5  8  2  0  0  0  0
  5  9  1  0  0  0  0
  6 10  2  0  0  0  0
  6 11  1  0  0  0  0
  9 12  1  0  0  0  0
 10 13  1  0  0  0  0
 10 14  1  0  0  0  0
 11 15  2  0  0  0  0
 13 16  1  0  0  0  0
 13 17  2  0  0  0  0
 14 18  2  0  0  0  0
 16 19  1  0  0  0  0
 17 20  1  0  0  0  0
  7  8  1  0  0  0  0
 15 18  1  0  0  0  0
 19 20  2  0  0  0  0
M  END
>  <MolRegNo>
2271700

>  <m>
=

>  <Value>
7000

>  <Unit>
nM

>  <Type>
IC50

>  <pValue>
5.16

>  <Ligand Efficiency>
0

>  <Binding Efficiency>
0

>  <Surface Efficiency>
0

>  <Assay Index>
1152716

>  <Assay Category>


>  <Assay Organism>
Homo sapiens

>  <Target ID>
17045

>  <Target Name>
Cytochrome P450 3A4

>  <Target Organism>
Homo sapiens

>  <Target Description>
Target is a single protein chain

>  <Sequence Accession>
P08684

>  <Reference>
J Med Chem 61 (16), 7065-7086 (2018)

>  <Pubmed ID>
29995408

>  <DOI>
10.1021/acs.jmedchem.8b00084

$$$$
2263780
Actelion Java MolfileCreator 1.0

 20 20  0  0  0  0  0  0  0  0999 V2000
    0.0000   -0.0000   -0.0000 Cl  0  0  0  0  0  0  0  0  0  0  0  0
   -8.2715   -7.7010   -0.0000 Cl  0  0  0  0  0  0  0  0  0  0  0  0
   -5.5143   -1.7113   -0.0000 S   0  0  0  0  0  0  0  0  0  0  0  0
   -5.6807   -3.1969   -0.0000 C   0  0  0  0  0  0  0  0  0  0  0  0
   -4.0644   -1.3786   -0.0000 C   0  0  0  0  0  0  0  0  0  0  0  0
   -6.9880   -3.9456   -0.0000 C   0  0  0  0  0  0  0  0  0  0  0  0
   -4.3259   -3.7911   -0.0000 C   0  0  0  0  0  0  0  0  0  0  0  0
   -3.3276   -2.6621   -0.0000 C   0  0  0  0  0  0  0  0  0  0  0  0
   -3.4702   -0.0000   -0.0000 C   0  0  0  0  0  0  0  0  0  0  0  0
   -8.2952   -3.1850   -0.0000 C   0  0  0  0  0  0  0  0  0  0  0  0
   -6.9998   -5.4430   -0.0000 C   0  0  0  0  0  0  0  0  0  0  0  0
   -1.9966    0.1783   -0.0000 N   0  0  0  0  0  0  0  0  0  0  0  0
   -8.3190   -1.6757   -0.0000 C   0  0  0  0  0  0  0  0  0  0  0  0
   -9.6025   -3.9218   -0.0000 C   0  0  0  0  0  0  0  0  0  0  0  0
   -8.3190   -6.1798   -0.0000 N   0  0  0  0  0  0  0  0  0  0  0  0
   -9.5431   -0.7844   -0.0000 C   0  0  0  0  0  0  0  0  0  0  0  0
   -7.1187   -0.7844   -0.0000 C   0  0  0  0  0  0  0  0  0  0  0  0
   -9.6144   -5.4192   -0.0000 C   0  0  0  0  0  0  0  0  0  0  0  0
   -9.0915    0.6536   -0.0000 O   0  0  0  0  0  0  0  0  0  0  0  0
   -7.5941    0.6536   -0.0000 C   0  0  0  0  0  0  0  0  0  0  0  0
  3  4  1  0  0  0  0
  3  5  1  0  0  0  0
  4  6  1  0  0  0  0
  4  7  2  0  0  0  0
  5  8  2  0  0  0  0
  5  9  1  0  0  0  0
  6 10  2  0  0  0  0
  6 11  1  0  0  0  0
  9 12  1  0  0  0  0
 10 13  1  0  0  0  0
 10 14  1  0  0  0  0
 11 15  2  0  0  0  0
 13 16  2  0  0  0  0
 13 17  1  0  0  0  0
 14 18  2  0  0  0  0
 16 19  1  0  0  0  0
 17 20  2  0  0  0  0
  7  8  1  0  0  0  0
 15 18  1  0  0  0  0
 19 20  1  0  0  0  0
M  END
>  <MolRegNo>
2263780

>  <m>
=

>  <Value>
5200

>  <Unit>
nM

>  <Type>
IC50

>  <pValue>
5.28

>  <Ligand Efficiency>
0

>  <Binding Efficiency>
0

>  <Surface Efficiency>
0

>  <Assay Index>
1152716

>  <Assay Category>


>  <Assay Organism>
Homo sapiens

>  <Target ID>
17045

>  <Target Name>
Cytochrome P450 3A4

>  <Target Organism>
Homo sapiens

>  <Target Description>
Target is a single protein chain

>  <Sequence Accession>
P08684

>  <Reference>
J Med Chem 61 (16), 7065-7086 (2018)

>  <Pubmed ID>
29995408

>  <DOI>
10.1021/acs.jmedchem.8b00084

$$$$
2275048
Actelion Java MolfileCreator 1.0

 22 21  0  0  0  0  0  0  0  0999 V2000
    0.0000   -0.0000   -0.0000 Cl  0  0  0  0  0  0  0  0  0  0  0  0
   -8.2690   -7.7937   -0.0000 Cl  0  0  0  0  0  0  0  0  0  0  0  0
   -8.2690    2.3761   -0.0000 Cl  0  0  0  0  0  0  0  0  0  0  0  0
   -5.4176   -1.9009   -0.0000 S   0  0  0  0  0  0  0  0  0  0  0  0
   -5.5839   -3.3860   -0.0000 C   0  0  0  0  0  0  0  0  0  0  0  0
   -3.9681   -1.5682   -0.0000 C   0  0  0  0  0  0  0  0  0  0  0  0
   -6.8908   -4.1345   -0.0000 C   0  0  0  0  0  0  0  0  0  0  0  0
   -4.2295   -3.9800   -0.0000 C   0  0  0  0  0  0  0  0  0  0  0  0
   -3.2315   -2.8514   -0.0000 C   0  0  0  0  0  0  0  0  0  0  0  0
   -3.3741   -0.1901   -0.0000 C   0  0  0  0  0  0  0  0  0  0  0  0
   -8.1977   -3.3741   -0.0000 C   0  0  0  0  0  0  0  0  0  0  0  0
   -6.9027   -5.6314   -0.0000 C   0  0  0  0  0  0  0  0  0  0  0  0
   -1.9009   -0.0119   -0.0000 N   0  0  0  0  0  0  0  0  0  0  0  0
   -8.2214   -1.8653   -0.0000 C   0  0  0  0  0  0  0  0  0  0  0  0
   -9.5045   -4.1107   -0.0000 C   0  0  0  0  0  0  0  0  0  0  0  0
   -8.2214   -6.3680   -0.0000 N   0  0  0  0  0  0  0  0  0  0  0  0
   -6.9383   -1.1049   -0.0000 C   0  0  0  0  0  0  0  0  0  0  0  0
   -9.5283   -1.1168   -0.0000 C   0  0  0  0  0  0  0  0  0  0  0  0
   -9.5164   -5.6077   -0.0000 C   0  0  0  0  0  0  0  0  0  0  0  0
   -6.9502    0.4039   -0.0000 C   0  0  0  0  0  0  0  0  0  0  0  0
   -9.5521    0.3921   -0.0000 C   0  0  0  0  0  0  0  0  0  0  0  0
   -8.2690    1.1643   -0.0000 N   0  0  0  0  0  0  0  0  0  0  0  0
  4  5  1  0  0  0  0
  4  6  1  0  0  0  0
  5  7  1  0  0  0  0
  5  8  2  0  0  0  0
  6  9  2  0  0  0  0
  6 10  1  0  0  0  0
  7 11  2  0  0  0  0
  7 12  1  0  0  0  0
 10 13  1  0  0  0  0
 11 14  1  0  0  0  0
 11 15  1  0  0  0  0
 12 16  2  0  0  0  0
 14 17  2  0  0  0  0
 14 18  1  0  0  0  0
 15 19  2  0  0  0  0
 17 20  1  0  0  0  0
 18 21  2  0  0  0  0
 20 22  2  0  0  0  0
  8  9  1  0  0  0  0
 16 19  1  0  0  0  0
 21 22  1  0  0  0  0
M  END
>  <MolRegNo>
2275048

>  <m>
=

>  <Value>
214000

>  <Unit>
nM

>  <Type>
IC50

>  <pValue>
0

>  <Ligand Efficiency>
0

>  <Binding Efficiency>
0

>  <Surface Efficiency>
0

>  <Assay Index>
1152716

>  <Assay Category>


>  <Assay Organism>
Homo sapiens

>  <Target ID>
17045

>  <Target Name>
Cytochrome P450 3A4

>  <Target Organism>
Homo sapiens

>  <Target Description>
Target is a single protein chain

>  <Sequence Accession>
P08684

>  <Reference>
J Med Chem 61 (16), 7065-7086 (2018)

>  <Pubmed ID>
29995408

>  <DOI>
10.1021/acs.jmedchem.8b00084

$$$$
2267173
Actelion Java MolfileCreator 1.0

 22 21  0  0  0  0  0  0  0  0999 V2000
    0.0000   -0.0000   -0.0000 Cl  0  0  0  0  0  0  0  0  0  0  0  0
   -8.2690   -7.6987   -0.0000 Cl  0  0  0  0  0  0  0  0  0  0  0  0
   -5.7027    0.2851   -0.0000 Cl  0  0  0  0  0  0  0  0  0  0  0  0
   -5.6077   -1.9009   -0.0000 S   0  0  0  0  0  0  0  0  0  0  0  0
   -5.7740   -3.3860   -0.0000 C   0  0  0  0  0  0  0  0  0  0  0  0
   -4.1582   -1.5682   -0.0000 C   0  0  0  0  0  0  0  0  0  0  0  0
   -7.0809   -4.1345   -0.0000 C   0  0  0  0  0  0  0  0  0  0  0  0
   -4.4196   -3.9800   -0.0000 C   0  0  0  0  0  0  0  0  0  0  0  0
   -3.4216   -2.8514   -0.0000 C   0  0  0  0  0  0  0  0  0  0  0  0
   -3.5642   -0.1901   -0.0000 C   0  0  0  0  0  0  0  0  0  0  0  0
   -8.3878   -3.3741   -0.0000 C   0  0  0  0  0  0  0  0  0  0  0  0
   -7.0928   -5.6314   -0.0000 C   0  0  0  0  0  0  0  0  0  0  0  0
   -2.0910   -0.0119   -0.0000 N   0  0  0  0  0  0  0  0  0  0  0  0
   -8.4115   -1.8653   -0.0000 C   0  0  0  0  0  0  0  0  0  0  0  0
   -9.6946   -4.1107   -0.0000 C   0  0  0  0  0  0  0  0  0  0  0  0
   -8.4115   -6.3680   -0.0000 N   0  0  0  0  0  0  0  0  0  0  0  0
   -7.1284   -1.1049   -0.0000 C   0  0  0  0  0  0  0  0  0  0  0  0
   -9.7184   -1.1168   -0.0000 C   0  0  0  0  0  0  0  0  0  0  0  0
   -9.7065   -5.6077   -0.0000 C   0  0  0  0  0  0  0  0  0  0  0  0
   -7.1403    0.4039   -0.0000 N   0  0  0  0  0  0  0  0  0  0  0  0
   -9.7422    0.3921   -0.0000 C   0  0  0  0  0  0  0  0  0  0  0  0
   -8.4590    1.1643   -0.0000 C   0  0  0  0  0  0  0  0  0  0  0  0
  4  5  1  0  0  0  0
  4  6  1  0  0  0  0
  5  7  1  0  0  0  0
  5  8  2  0  0  0  0
  6  9  2  0  0  0  0
  6 10  1  0  0  0  0
  7 11  2  0  0  0  0
  7 12  1  0  0  0  0
 10 13  1  0  0  0  0
 11 14  1  0  0  0  0
 11 15  1  0  0  0  0
 12 16  2  0  0  0  0
 14 17  2  0  0  0  0
 14 18  1  0  0  0  0
 15 19  2  0  0  0  0
 17 20  1  0  0  0  0
 18 21  2  0  0  0  0
 20 22  2  0  0  0  0
  8  9  1  0  0  0  0
 16 19  1  0  0  0  0
 21 22  1  0  0  0  0
M  END
>  <MolRegNo>
2267173

>  <m>
=

>  <Value>
42000

>  <Unit>
nM

>  <Type>
IC50

>  <pValue>
4.38

>  <Ligand Efficiency>
0

>  <Binding Efficiency>
0

>  <Surface Efficiency>
0

>  <Assay Index>
1152716

>  <Assay Category>


>  <Assay Organism>
Homo sapiens

>  <Target ID>
17045

>  <Target Name>
Cytochrome P450 3A4

>  <Target Organism>
Homo sapiens

>  <Target Description>
Target is a single protein chain

>  <Sequence Accession>
P08684

>  <Reference>
J Med Chem 61 (16), 7065-7086 (2018)

>  <Pubmed ID>
29995408

>  <DOI>
10.1021/acs.jmedchem.8b00084

$$$$
2268125
Actelion Java MolfileCreator 1.0

 23 21  0  0  0  0  0  0  0  0999 V2000
    0.0000   -0.0000   -0.0000 Cl  0  0  0  0  0  0  0  0  0  0  0  0
   -8.1703   -7.6003   -0.0000 Cl  0  0  0  0  0  0  0  0  0  0  0  0
  -10.9254    0.7600   -0.0000 Cl  0  0  0  0  0  0  0  0  0  0  0  0
   -5.5102    0.7600   -0.0000 Cl  0  0  0  0  0  0  0  0  0  0  0  0
   -5.5102   -1.6151   -0.0000 S   0  0  0  0  0  0  0  0  0  0  0  0
   -5.6765   -3.0995   -0.0000 C   0  0  0  0  0  0  0  0  0  0  0  0
   -4.0614   -1.2825   -0.0000 C   0  0  0  0  0  0  0  0  0  0  0  0
   -6.9828   -3.8476   -0.0000 C   0  0  0  0  0  0  0  0  0  0  0  0
   -4.3227   -3.6933   -0.0000 C   0  0  0  0  0  0  0  0  0  0  0  0
   -3.3133   -2.5651   -0.0000 C   0  0  0  0  0  0  0  0  0  0  0  0
   -3.4676    0.0950   -0.0000 C   0  0  0  0  0  0  0  0  0  0  0  0
   -8.2891   -3.0876   -0.0000 C   0  0  0  0  0  0  0  0  0  0  0  0
   -6.9946   -5.3440   -0.0000 C   0  0  0  0  0  0  0  0  0  0  0  0
   -1.9951    0.2731   -0.0000 N   0  0  0  0  0  0  0  0  0  0  0  0
   -8.3128   -1.5794   -0.0000 C   0  0  0  0  0  0  0  0  0  0  0  0
   -9.5954   -3.8239   -0.0000 C   0  0  0  0  0  0  0  0  0  0  0  0
   -8.3128   -6.0802   -0.0000 N   0  0  0  0  0  0  0  0  0  0  0  0
   -7.0303   -0.8194   -0.0000 C   0  0  0  0  0  0  0  0  0  0  0  0
   -9.6191   -0.8313   -0.0000 C   0  0  0  0  0  0  0  0  0  0  0  0
   -9.6072   -5.3202   -0.0000 C   0  0  0  0  0  0  0  0  0  0  0  0
   -7.0421    0.6888   -0.0000 N   0  0  0  0  0  0  0  0  0  0  0  0
   -9.6429    0.6769   -0.0000 N   0  0  0  0  0  0  0  0  0  0  0  0
   -8.3603    1.4488   -0.0000 C   0  0  0  0  0  0  0  0  0  0  0  0
  5  6  1  0  0  0  0
  5  7  1  0  0  0  0
  6  8  1  0  0  0  0
  6  9  2  0  0  0  0
  7 10  2  0  0  0  0
  7 11  1  0  0  0  0
  8 12  2  0  0  0  0
  8 13  1  0  0  0  0
 11 14  1  0  0  0  0
 12 15  1  0  0  0  0
 12 16  1  0  0  0  0
 13 17  2  0  0  0  0
 15 18  2  0  0  0  0
 15 19  1  0  0  0  0
 16 20  2  0  0  0  0
 18 21  1  0  0  0  0
 19 22  2  0  0  0  0
 21 23  2  0  0  0  0
  9 10  1  0  0  0  0
 17 20  1  0  0  0  0
 22 23  1  0  0  0  0
M  END
>  <MolRegNo>
2268125

>  <m>
=

>  <Value>
39000

>  <Unit>
nM

>  <Type>
IC50

>  <pValue>
4.41

>  <Ligand Efficiency>
0

>  <Binding Efficiency>
0

>  <Surface Efficiency>
0

>  <Assay Index>
1152716

>  <Assay Category>


>  <Assay Organism>
Homo sapiens

>  <Target ID>
17045

>  <Target Name>
Cytochrome P450 3A4

>  <Target Organism>
Homo sapiens

>  <Target Description>
Target is a single protein chain

>  <Sequence Accession>
P08684

>  <Reference>
J Med Chem 61 (16), 7065-7086 (2018)

>  <Pubmed ID>
29995408

>  <DOI>
10.1021/acs.jmedchem.8b00084

$$$$
1976173
Actelion Java MolfileCreator 1.0

 31 34  0  0  0  0  0  0  0  0999 V2000
    0.0000   -0.0000   -0.0000 Cl  0  0  0  0  0  0  0  0  0  0  0  0
    1.0585    0.6327   -0.0000 C   0  0  0  0  0  0  0  0  0  0  0  0
    2.3846   -0.1338   -0.0000 C   0  0  0  0  0  0  0  0  0  0  0  0
    1.0463    2.1900   -0.0000 C   0  0  0  0  0  0  0  0  0  0  0  0
    3.7108    0.6448   -0.0000 C   0  0  0  0  0  0  0  0  0  0  0  0
    2.3725    2.9686   -0.0000 C   0  0  0  0  0  0  0  0  0  0  0  0
    3.6986    2.2021   -0.0000 C   0  0  0  0  0  0  0  0  0  0  0  0
    5.0248    2.9808   -0.0000 C   0  0  0  0  0  0  0  0  0  0  0  0
    5.0126    4.5381   -0.0000 C   0  0  0  0  0  0  0  0  0  0  0  0
    5.3289    1.5451   -0.0000 C   0  0  0  0  0  0  0  0  0  0  0  0
    6.4239    3.4431   -0.0000 C   0  0  0  0  0  0  0  0  0  0  0  0
    3.6621    5.3168   -0.0000 N   0  0  0  0  0  0  0  0  0  0  0  0
    6.3387    5.3168   -0.0000 C   0  0  0  0  0  0  0  0  0  0  0  0
    6.8132    1.9588   -0.0000 C   0  0  0  0  0  0  0  0  0  0  0  0
    3.6499    6.8741   -0.0000 C   0  0  0  0  0  0  0  0  0  0  0  0
    6.3266    6.8741   -0.0000 C   0  0  0  0  0  0  0  0  0  0  0  0
    7.6649    4.5624   -0.0000 C   0  0  0  0  0  0  0  0  0  0  0  0
    4.9761    7.6527   -0.0000 C   0  0  0  0  0  0  0  0  0  0  0  0
    7.6527    7.6527   -0.0000 C   0  0  0  0  0  0  0  0  0  0  0  0
    8.9910    5.3411   -0.0000 C   0  0  0  0  0  0  0  0  0  0  0  0
    8.9789    6.8984   -0.0000 C   0  0  0  0  0  0  0  0  0  0  0  0
   10.3172    4.5746   -0.0000 O   0  0  0  0  0  0  0  0  0  0  0  0
   10.3050    3.0416   -0.0000 C   0  0  0  0  0  0  0  0  0  0  0  0
   11.6312    2.2751   -0.0000 C   0  0  0  0  0  0  0  0  0  0  0  0
   11.6190    0.7422   -0.0000 N   0  0  0  0  0  0  0  0  0  0  0  0
   12.9451   -0.0243   -0.0000 S   0  0  0  0  0  0  0  0  0  0  0  0
   14.0036    0.6083   -0.0000 O   0  0  0  0  0  0  0  0  0  0  0  0
   14.0036   -0.6327   -0.0000 O   0  0  0  0  0  0  0  0  0  0  0  0
   12.9330   -1.5573   -0.0000 C   0  0  0  0  0  0  0  0  0  0  0  0
   14.2591   -2.3238   -0.0000 C   0  0  0  0  0  0  0  0  0  0  0  0
   14.2469   -3.5526   -0.0000 C   0  0  0  0  0  0  0  0  0  0  0  0
  1  2  1  0  0  0  0
  2  3  2  0  0  0  0
  2  4  1  0  0  0  0
  3  5  1  0  0  0  0
  4  6  2  0  0  0  0
  5  7  2  0  0  0  0
  7  8  1  0  0  0  0
  8  9  1  0  0  0  0
  8 10  1  0  0  0  0
  8 11  1  0  0  0  0
  9 12  1  0  0  0  0
  9 13  1  0  0  0  0
 10 14  1  0  0  0  0
 12 15  1  0  0  0  0
 13 16  2  0  0  0  0
 13 17  1  0  0  0  0
 15 18  1  0  0  0  0
 16 19  1  0  0  0  0
 17 20  2  0  0  0  0
 19 21  2  0  0  0  0
 20 22  1  0  0  0  0
 22 23  1  0  0  0  0
 23 24  1  0  0  0  0
 24 25  1  0  0  0  0
 25 26  1  0  0  0  0
 26 27  2  0  0  0  0
 26 28  2  0  0  0  0
 26 29  1  0  0  0  0
 29 30  1  0  0  0  0
 30 31  1  0  0  0  0
  6  7  1  0  0  0  0
 11 14  1  0  0  0  0
 16 18  1  0  0  0  0
 20 21  1  0  0  0  0
M  END
>  <MolRegNo>
1976173

>  <m>
=

>  <Value>
620

>  <Unit>
nM

>  <Type>
IC50

>  <pValue>
6.21

>  <Ligand Efficiency>
0

>  <Binding Efficiency>
0

>  <Surface Efficiency>
0

>  <Assay Index>
1153498

>  <Assay Category>


>  <Assay Organism>
Homo sapiens

>  <Target ID>
17045

>  <Target Name>
Cytochrome P450 3A4

>  <Target Organism>
Homo sapiens

>  <Target Description>
Target is a single protein chain

>  <Sequence Accession>
P08684

>  <Reference>
J Med Chem 61 (17), 7503-7524 (2018)

>  <Pubmed ID>
30080045

>  <DOI>
10.1021/acs.jmedchem.8b00300

$$$$
2266100
Actelion Java MolfileCreator 1.0

 35 39  0  0  0  0  0  0  0  0999 V2000
    0.0000   -0.0000   -0.0000 O   0  0  0  0  0  0  0  0  0  0  0  0
    1.2852    0.7611   -0.0000 C   0  0  0  0  0  0  0  0  0  0  0  0
    2.5579    0.0374   -0.0000 C   0  0  0  0  0  0  0  0  0  0  0  0
    1.2727    2.2709   -0.0000 C   0  0  0  0  0  0  0  0  0  0  0  0
    3.8307    0.7861   -0.0000 C   0  0  0  0  0  0  0  0  0  0  0  0
    2.5455    3.0446   -0.0000 C   0  0  0  0  0  0  0  0  0  0  0  0
    3.8307    2.2959   -0.0000 C   0  0  0  0  0  0  0  0  0  0  0  0
    5.1034    0.0499   -0.0000 C   0  0  0  0  0  0  0  0  0  0  0  0
    5.1034    3.0570   -0.0000 C   0  0  0  0  0  0  0  0  0  0  0  0
    6.3886    0.7986   -0.0000 C   0  0  0  0  0  0  0  0  0  0  0  0
    5.1034    4.5544   -0.0000 C   0  0  0  0  0  0  0  0  0  0  0  0
    6.3761    2.3084   -0.0000 C   0  0  0  0  0  0  0  0  0  0  0  0
    3.8057    5.3280   -0.0000 C   0  0  0  0  0  0  0  0  0  0  0  0
    6.4011    5.3030   -0.0000 C   0  0  0  0  0  0  0  0  0  0  0  0
    7.6613    3.0570   -0.0000 C   0  0  0  0  0  0  0  0  0  0  0  0
    3.8182    6.8378   -0.0000 C   0  0  0  0  0  0  0  0  0  0  0  0
    2.5080    4.6043   -0.0000 C   0  0  0  0  0  0  0  0  0  0  0  0
    7.6738    4.5544   -0.0000 C   0  0  0  0  0  0  0  0  0  0  0  0
    9.0588    2.5954   -0.0000 C   0  0  0  0  0  0  0  0  0  0  0  0
    2.5205    7.6114   -0.0000 C   0  0  0  0  0  0  0  0  0  0  0  0
    1.2103    5.3654   -0.0000 C   0  0  0  0  0  0  0  0  0  0  0  0
    9.0838    5.0160   -0.0000 C   0  0  0  0  0  0  0  0  0  0  0  0
    7.1373    6.1515   -0.0000 C   0  0  0  0  0  0  0  0  0  0  0  0
    9.9323    3.8057   -0.0000 C   0  0  0  0  0  0  0  0  0  0  0  0
    1.1979    6.8877   -0.0000 C   0  0  0  0  0  0  0  0  0  0  0  0
    8.8218    6.5009   -0.0000 O   0  0  0  0  0  0  0  0  0  0  0  0
   10.1319    6.0891   -0.0000 C   0  0  0  0  0  0  0  0  0  0  0  0
   -0.0998    7.6613   -0.0000 N   0  0  0  0  0  0  0  0  0  0  0  0
   11.1800    7.1747   -0.0000 C   0  0  0  0  0  0  0  0  0  0  0  0
   -0.0998    9.1711   -0.0000 C   0  0  0  0  0  0  0  0  0  0  0  0
   -1.4100    6.9376   -0.0000 C   0  0  0  0  0  0  0  0  0  0  0  0
   12.2157    8.2478   -0.0000 C   0  0  0  0  0  0  0  0  0  0  0  0
   13.2513    9.3333   -0.0000 C   0  0  0  0  0  0  0  0  0  0  0  0
   11.8039    9.7077   -0.0000 C   0  0  0  0  0  0  0  0  0  0  0  0
   13.6506    7.8859   -0.0000 C   0  0  0  0  0  0  0  0  0  0  0  0
  1  2  2  0  0  0  0
  2  3  1  0  0  0  0
  2  4  1  0  0  0  0
  3  5  2  0  0  0  0
  4  6  1  0  0  0  0
  5  7  1  0  0  0  0
  5  8  1  0  0  0  0
  7  9  2  0  0  0  0
  8 10  1  0  0  0  0
  9 11  1  0  0  0  0
  9 12  1  0  0  0  0
 11 13  1  1  0  0  0
 11 14  1  0  0  0  0
 12 15  1  0  0  0  0
 13 16  2  0  0  0  0
 13 17  1  0  0  0  0
 14 18  1  0  0  0  0
 15 19  1  1  0  0  0
 16 20  1  0  0  0  0
 17 21  2  0  0  0  0
 18 22  1  0  0  0  0
 18 23  1  1  0  0  0
 19 24  1  0  0  0  0
 20 25  2  0  0  0  0
 22 26  1  1  0  0  0
 22 27  1  0  0  0  0
 25 28  1  0  0  0  0
 27 29  3  0  0  0  0
 28 30  1  0  0  0  0
 28 31  1  0  0  0  0
 29 32  1  0  0  0  0
 32 33  1  0  0  0  0
 32 34  1  0  0  0  0
 32 35  1  0  0  0  0
  6  7  1  0  0  0  0
 12 10  1  6  0  0  0
 15 18  1  0  0  0  0
 21 25  1  0  0  0  0
 22 24  1  0  0  0  0
M  END
>  <MolRegNo>
2266100

>  <m>
=

>  <Value>
2900

>  <Unit>
nM

>  <Type>
IC50

>  <pValue>
5.54

>  <Ligand Efficiency>
0

>  <Binding Efficiency>
0

>  <Surface Efficiency>
0

>  <Assay Index>
1153635

>  <Assay Category>


>  <Assay Organism>
Homo sapiens

>  <Target ID>
17045

>  <Target Name>
Cytochrome P450 3A4

>  <Target Organism>
Homo sapiens

>  <Target Description>
Target is a single protein chain

>  <Sequence Accession>
P08684

>  <Reference>
J Med Chem 61 (17), 7767-7784 (2018)

>  <Pubmed ID>
30091920

>  <DOI>
10.1021/acs.jmedchem.8b00743

$$$$
2264785
Actelion Java MolfileCreator 1.0

 37 41  0  0  0  0  0  0  0  0999 V2000
    0.0000   -0.0000   -0.0000 O   0  0  0  0  0  0  0  0  0  0  0  0
    1.2853    0.7612   -0.0000 C   0  0  0  0  0  0  0  0  0  0  0  0
    2.5581    0.0374   -0.0000 C   0  0  0  0  0  0  0  0  0  0  0  0
    1.2728    2.2711   -0.0000 C   0  0  0  0  0  0  0  0  0  0  0  0
    3.8309    0.7862   -0.0000 C   0  0  0  0  0  0  0  0  0  0  0  0
    2.5456    3.0448   -0.0000 C   0  0  0  0  0  0  0  0  0  0  0  0
    3.8309    2.2961   -0.0000 C   0  0  0  0  0  0  0  0  0  0  0  0
    5.1037    0.0499   -0.0000 C   0  0  0  0  0  0  0  0  0  0  0  0
    5.1037    3.0573   -0.0000 C   0  0  0  0  0  0  0  0  0  0  0  0
    6.3890    0.7986   -0.0000 C   0  0  0  0  0  0  0  0  0  0  0  0
    5.1037    4.5547   -0.0000 C   0  0  0  0  0  0  0  0  0  0  0  0
    6.3766    2.3085   -0.0000 C   0  0  0  0  0  0  0  0  0  0  0  0
    3.8060    5.3284   -0.0000 C   0  0  0  0  0  0  0  0  0  0  0  0
    6.4015    5.3034   -0.0000 C   0  0  0  0  0  0  0  0  0  0  0  0
    7.6618    3.0573   -0.0000 C   0  0  0  0  0  0  0  0  0  0  0  0
    3.8184    6.8383   -0.0000 C   0  0  0  0  0  0  0  0  0  0  0  0
    2.5082    4.6046   -0.0000 C   0  0  0  0  0  0  0  0  0  0  0  0
    7.6743    4.5547   -0.0000 C   0  0  0  0  0  0  0  0  0  0  0  0
    9.0594    2.5955   -0.0000 C   0  0  0  0  0  0  0  0  0  0  0  0
    2.5207    7.6119   -0.0000 C   0  0  0  0  0  0  0  0  0  0  0  0
    1.2104    5.3658   -0.0000 C   0  0  0  0  0  0  0  0  0  0  0  0
    9.0844    5.0164   -0.0000 C   0  0  0  0  0  0  0  0  0  0  0  0
    7.1377    6.1519   -0.0000 C   0  0  0  0  0  0  0  0  0  0  0  0
    9.9329    3.8060   -0.0000 C   0  0  0  0  0  0  0  0  0  0  0  0
    1.1979    6.8882   -0.0000 C   0  0  0  0  0  0  0  0  0  0  0  0
    8.8224    6.5013   -0.0000 O   0  0  0  0  0  0  0  0  0  0  0  0
   10.1326    6.0895   -0.0000 C   0  0  0  0  0  0  0  0  0  0  0  0
   -0.0998    7.6618   -0.0000 N   0  0  0  0  0  0  0  0  0  0  0  0
   11.1808    7.1752   -0.0000 C   0  0  0  0  0  0  0  0  0  0  0  0
   -1.4101    6.9381   -0.0000 C   0  0  0  0  0  0  0  0  0  0  0  0
   -0.0998    9.1718   -0.0000 C   0  0  0  0  0  0  0  0  0  0  0  0
   12.2165    8.2483   -0.0000 C   0  0  0  0  0  0  0  0  0  0  0  0
   -2.7079    7.7118   -0.0000 C   0  0  0  0  0  0  0  0  0  0  0  0
   -1.4350    5.4531   -0.0000 C   0  0  0  0  0  0  0  0  0  0  0  0
   13.6516    7.8865   -0.0000 C   0  0  0  0  0  0  0  0  0  0  0  0
   11.8047    9.7083   -0.0000 C   0  0  0  0  0  0  0  0  0  0  0  0
   13.2522    9.3340   -0.0000 C   0  0  0  0  0  0  0  0  0  0  0  0
  1  2  2  0  0  0  0
  2  3  1  0  0  0  0
  2  4  1  0  0  0  0
  3  5  2  0  0  0  0
  4  6  1  0  0  0  0
  5  7  1  0  0  0  0
  5  8  1  0  0  0  0
  9  7  1  1  0  0  0
  8 10  1  0  0  0  0
  9 11  1  0  0  0  0
  9 12  1  0  0  0  0
 11 13  1  1  0  0  0
 11 14  1  0  0  0  0
 12 15  1  0  0  0  0
 13 16  2  0  0  0  0
 13 17  1  0  0  0  0
 14 18  1  0  0  0  0
 15 19  1  1  0  0  0
 16 20  1  0  0  0  0
 17 21  2  0  0  0  0
 18 22  1  0  0  0  0
 18 23  1  1  0  0  0
 19 24  1  0  0  0  0
 20 25  2  0  0  0  0
 22 26  1  1  0  0  0
 22 27  1  0  0  0  0
 25 28  1  0  0  0  0
 27 29  3  0  0  0  0
 28 30  1  0  0  0  0
 28 31  1  0  0  0  0
 29 32  1  0  0  0  0
 30 33  1  0  0  0  0
 30 34  1  0  0  0  0
 32 35  1  0  0  0  0
 32 36  1  0  0  0  0
 32 37  1  0  0  0  0
  7  6  1  6  0  0  0
 12 10  1  6  0  0  0
 15 18  1  0  0  0  0
 21 25  1  0  0  0  0
 22 24  1  0  0  0  0
M  END
>  <MolRegNo>
2264785

>  <m>
=

>  <Value>
1600

>  <Unit>
nM

>  <Type>
IC50

>  <pValue>
5.8

>  <Ligand Efficiency>
0

>  <Binding Efficiency>
0

>  <Surface Efficiency>
0

>  <Assay Index>
1153635

>  <Assay Category>


>  <Assay Organism>
Homo sapiens

>  <Target ID>
17045

>  <Target Name>
Cytochrome P450 3A4

>  <Target Organism>
Homo sapiens

>  <Target Description>
Target is a single protein chain

>  <Sequence Accession>
P08684

>  <Reference>
J Med Chem 61 (17), 7767-7784 (2018)

>  <Pubmed ID>
30091920

>  <DOI>
10.1021/acs.jmedchem.8b00743

$$$$
2263618
Actelion Java MolfileCreator 1.0

 34 38  0  0  0  0  0  0  0  0999 V2000
    0.0000   -0.0000   -0.0000 O   0  0  0  0  0  0  0  0  0  0  0  0
    1.4955    0.0119   -0.0000 C   0  0  0  0  0  0  0  0  0  0  0  0
    2.3738    1.2344   -0.0000 N   0  0  0  0  0  0  0  0  0  0  0  0
    2.3619   -1.1988   -0.0000 C   0  0  0  0  0  0  0  0  0  0  0  0
    3.7862    0.7833   -0.0000 C   0  0  0  0  0  0  0  0  0  0  0  0
    3.7862   -0.7240   -0.0000 C   0  0  0  0  0  0  0  0  0  0  0  0
    1.8872   -2.6230   -0.0000 C   0  0  0  0  0  0  0  0  0  0  0  0
    5.0680    1.5548   -0.0000 C   0  0  0  0  0  0  0  0  0  0  0  0
    5.0799   -1.4599   -0.0000 C   0  0  0  0  0  0  0  0  0  0  0  0
    2.8841   -3.7268   -0.0000 C   0  0  0  0  0  0  0  0  0  0  0  0
    0.4035   -2.9197   -0.0000 C   0  0  0  0  0  0  0  0  0  0  0  0
    6.3617    0.8190   -0.0000 C   0  0  0  0  0  0  0  0  0  0  0  0
    6.3736   -0.6884   -0.0000 C   0  0  0  0  0  0  0  0  0  0  0  0
    2.3975   -5.1511   -0.0000 C   0  0  0  0  0  0  0  0  0  0  0  0
    4.3440   -3.4064   -0.0000 C   0  0  0  0  0  0  0  0  0  0  0  0
   -0.2255   -4.2965   -0.0000 N   0  0  0  0  0  0  0  0  0  0  0  0
   -0.7240   -1.9109   -0.0000 N   0  0  0  0  0  0  0  0  0  0  0  0
    7.6673   -1.4243   -0.0000 C   0  0  0  0  0  0  0  0  0  0  0  0
    3.3945   -6.2549   -0.0000 C   0  0  0  0  0  0  0  0  0  0  0  0
    5.3410   -4.5102   -0.0000 C   0  0  0  0  0  0  0  0  0  0  0  0
   -1.7329   -4.1304   -0.0000 C   0  0  0  0  0  0  0  0  0  0  0  0
   -2.0414   -2.6468   -0.0000 C   0  0  0  0  0  0  0  0  0  0  0  0
    8.9610   -0.6528   -0.0000 O   0  0  0  0  0  0  0  0  0  0  0  0
    7.6554   -2.9197   -0.0000 N   0  0  0  0  0  0  0  0  0  0  0  0
    4.8544   -5.9344   -0.0000 C   0  0  0  0  0  0  0  0  0  0  0  0
    8.9491   -3.6556   -0.0000 C   0  0  0  0  0  0  0  0  0  0  0  0
   10.2428   -2.8841   -0.0000 C   0  0  0  0  0  0  0  0  0  0  0  0
    8.9373   -5.1511   -0.0000 C   0  0  0  0  0  0  0  0  0  0  0  0
   11.5366   -3.6200   -0.0000 C   0  0  0  0  0  0  0  0  0  0  0  0
   10.2191   -1.3768   -0.0000 C   0  0  0  0  0  0  0  0  0  0  0  0
   10.2310   -5.8870   -0.0000 O   0  0  0  0  0  0  0  0  0  0  0  0
   12.8303   -2.8604   -0.0000 C   0  0  0  0  0  0  0  0  0  0  0  0
   11.5009   -0.6053   -0.0000 C   0  0  0  0  0  0  0  0  0  0  0  0
   12.8184   -1.3412   -0.0000 C   0  0  0  0  0  0  0  0  0  0  0  0
  1  2  2  0  0  0  0
  2  3  1  0  0  0  0
  2  4  1  0  0  0  0
  3  5  1  0  0  0  0
  4  6  1  0  0  0  0
  4  7  2  0  0  0  0
  5  8  1  0  0  0  0
  6  9  1  0  0  0  0
  7 10  1  0  0  0  0
  7 11  1  0  0  0  0
  8 12  2  0  0  0  0
  9 13  2  0  0  0  0
 10 14  2  0  0  0  0
 10 15  1  0  0  0  0
 11 16  2  0  0  0  0
 11 17  1  0  0  0  0
 13 18  1  0  0  0  0
 14 19  1  0  0  0  0
 15 20  2  0  0  0  0
 16 21  1  0  0  0  0
 17 22  1  0  0  0  0
 18 23  2  0  0  0  0
 18 24  1  0  0  0  0
 19 25  2  0  0  0  0
 26 24  1  6  0  0  0
 26 27  1  0  0  0  0
 26 28  1  0  0  0  0
 27 29  2  0  0  0  0
 27 30  1  0  0  0  0
 28 31  1  0  0  0  0
 29 32  1  0  0  0  0
 30 33  2  0  0  0  0
 32 34  2  0  0  0  0
  5  6  2  0  0  0  0
 12 13  1  0  0  0  0
 20 25  1  0  0  0  0
 21 22  2  0  0  0  0
 33 34  1  0  0  0  0
M  END
>  <MolRegNo>
2263618

>  <m>
=

>  <Value>
3030

>  <Unit>
nM

>  <Type>
IC50

>  <pValue>
5.52

>  <Ligand Efficiency>
0

>  <Binding Efficiency>
0

>  <Surface Efficiency>
0

>  <Assay Index>
1157302

>  <Assay Category>


>  <Assay Organism>
Homo sapiens

>  <Target ID>
17045

>  <Target Name>
Cytochrome P450 3A4

>  <Target Organism>
Homo sapiens

>  <Target Description>
Target is a single protein chain

>  <Sequence Accession>
P08684

>  <Reference>


>  <Pubmed ID>
29886323

>  <DOI>
10.1016/j.ejmech.2018.05.051

$$$$
2279316
Actelion Java MolfileCreator 1.0

 35 40  0  0  0  0  0  0  0  0999 V2000
    0.0000   -0.0000   -0.0000 N   0  0  0  0  0  0  0  0  0  0  0  0
    1.2925    0.7539   -0.0000 C   0  0  0  0  0  0  0  0  0  0  0  0
   -1.3164    0.7659   -0.0000 C   0  0  0  0  0  0  0  0  0  0  0  0
    1.2925    2.2858   -0.0000 C   0  0  0  0  0  0  0  0  0  0  0  0
    2.5730    0.0239   -0.0000 C   0  0  0  0  0  0  0  0  0  0  0  0
   -1.3284    2.2978   -0.0000 C   0  0  0  0  0  0  0  0  0  0  0  0
   -0.0239    3.0637   -0.0000 C   0  0  0  0  0  0  0  0  0  0  0  0
    2.5850    3.0397   -0.0000 C   0  0  0  0  0  0  0  0  0  0  0  0
    2.5610   -1.4720   -0.0000 N   0  0  0  0  0  0  0  0  0  0  0  0
    3.8775    0.7779   -0.0000 C   0  0  0  0  0  0  0  0  0  0  0  0
    3.8775    2.2858   -0.0000 C   0  0  0  0  0  0  0  0  0  0  0  0
    1.2446   -2.2140   -0.0000 C   0  0  0  0  0  0  0  0  0  0  0  0
    3.8535   -2.2140   -0.0000 C   0  0  0  0  0  0  0  0  0  0  0  0
    1.2326   -3.7099   -0.0000 C   0  0  0  0  0  0  0  0  0  0  0  0
    5.1460   -1.4481   -0.0000 C   0  0  0  0  0  0  0  0  0  0  0  0
   -0.0718   -4.4399   -0.0000 N   0  0  0  0  0  0  0  0  0  0  0  0
    2.5132   -4.4519   -0.0000 C   0  0  0  0  0  0  0  0  0  0  0  0
    6.4265   -2.1900   -0.0000 C   0  0  0  0  0  0  0  0  0  0  0  0
    5.1340    0.0718   -0.0000 C   0  0  0  0  0  0  0  0  0  0  0  0
   -0.0838   -5.9239   -0.0000 C   0  0  0  0  0  0  0  0  0  0  0  0
    2.5012   -5.9239   -0.0000 C   0  0  0  0  0  0  0  0  0  0  0  0
    7.7190   -1.4361   -0.0000 C   0  0  0  0  0  0  0  0  0  0  0  0
    6.4385    0.8258   -0.0000 C   0  0  0  0  0  0  0  0  0  0  0  0
    1.1967   -6.6539   -0.0000 C   0  0  0  0  0  0  0  0  0  0  0  0
    3.7937   -6.6539   -0.0000 C   0  0  0  0  0  0  0  0  0  0  0  0
    7.7190    0.0838   -0.0000 C   0  0  0  0  0  0  0  0  0  0  0  0
    1.1848   -8.1498   -0.0000 C   0  0  0  0  0  0  0  0  0  0  0  0
    5.0862   -5.8760   -0.0000 N   0  0  0  0  0  0  0  0  0  0  0  0
    3.7817   -8.1618   -0.0000 C   0  0  0  0  0  0  0  0  0  0  0  0
    2.4773   -8.8918   -0.0000 C   0  0  0  0  0  0  0  0  0  0  0  0
    6.3787   -6.6060   -0.0000 C   0  0  0  0  0  0  0  0  0  0  0  0
    5.0503   -4.3562   -0.0000 C   0  0  0  0  0  0  0  0  0  0  0  0
    7.6592   -5.8401   -0.0000 C   0  0  0  0  0  0  0  0  0  0  0  0
    6.3427   -3.5902   -0.0000 C   0  0  0  0  0  0  0  0  0  0  0  0
    7.6472   -4.3203   -0.0000 N   0  0  0  0  0  0  0  0  0  0  0  0
  1  2  2  0  0  0  0
  1  3  1  0  0  0  0
  2  4  1  0  0  0  0
  2  5  1  0  0  0  0
  3  6  2  0  0  0  0
  4  7  2  0  0  0  0
  4  8  1  0  0  0  0
  5  9  1  6  0  0  0
  5 10  1  0  0  0  0
  8 11  1  0  0  0  0
  9 12  1  0  0  0  0
  9 13  1  0  0  0  0
 14 12  1  1  0  0  0
 13 15  1  0  0  0  0
 14 16  1  0  0  0  0
 14 17  1  0  0  0  0
 15 18  1  0  0  0  0
 15 19  1  0  0  0  0
 16 20  1  0  0  0  0
 17 21  1  0  0  0  0
 18 22  1  0  0  0  0
 19 23  1  0  0  0  0
 20 24  1  0  0  0  0
 21 25  1  0  0  0  0
 22 26  1  0  0  0  0
 24 27  1  0  0  0  0
 25 28  1  0  0  0  0
 25 29  2  0  0  0  0
 27 30  2  0  0  0  0
 28 31  1  0  0  0  0
 28 32  1  0  0  0  0
 31 33  1  0  0  0  0
 32 34  1  0  0  0  0
 33 35  1  0  0  0  0
  6  7  1  0  0  0  0
 10 11  1  0  0  0  0
 21 24  2  0  0  0  0
 23 26  1  0  0  0  0
 29 30  1  0  0  0  0
 34 35  1  0  0  0  0
M  END
>  <MolRegNo>
2279316

>  <m>
=

>  <Value>
1780

>  <Unit>
nM

>  <Type>
IC50

>  <pValue>
5.75

>  <Ligand Efficiency>
0

>  <Binding Efficiency>
0

>  <Surface Efficiency>
0

>  <Assay Index>
1158394

>  <Assay Category>


>  <Assay Organism>
Homo sapiens

>  <Target ID>
17045

>  <Target Name>
Cytochrome P450 3A4

>  <Target Organism>
Homo sapiens

>  <Target Description>
Target is a single protein chain

>  <Sequence Accession>
P08684

>  <Reference>
J Med Chem 61 (16), 7168-7188 (2018)

>  <Pubmed ID>
30052039

>  <DOI>
10.1021/acs.jmedchem.8b00450

$$$$
2271449
Actelion Java MolfileCreator 1.0

 37 42  0  0  0  0  0  0  0  0999 V2000
    0.0000   -0.0000   -0.0000 F   0  0  0  0  0  0  0  0  0  0  0  0
   -0.7517   -1.2886   -0.0000 C   0  0  0  0  0  0  0  0  0  0  0  0
    0.7398   -1.2648   -0.0000 F   0  0  0  0  0  0  0  0  0  0  0  0
   -0.7636   -2.7801   -0.0000 C   0  0  0  0  0  0  0  0  0  0  0  0
   -2.0522   -0.5250   -0.0000 C   0  0  0  0  0  0  0  0  0  0  0  0
   -2.0761   -3.5079   -0.0000 C   0  0  0  0  0  0  0  0  0  0  0  0
   -3.3767   -1.2528   -0.0000 C   0  0  0  0  0  0  0  0  0  0  0  0
   -3.3767   -2.7443   -0.0000 C   0  0  0  0  0  0  0  0  0  0  0  0
   -4.6891   -3.4840   -0.0000 C   0  0  0  0  0  0  0  0  0  0  0  0
   -6.0016   -2.7204   -0.0000 N   0  0  0  0  0  0  0  0  0  0  0  0
   -6.0136   -1.2051   -0.0000 C   0  0  0  0  0  0  0  0  0  0  0  0
   -7.3141   -3.4602   -0.0000 C   0  0  0  0  0  0  0  0  0  0  0  0
   -7.3141   -0.4415   -0.0000 C   0  0  0  0  0  0  0  0  0  0  0  0
   -4.7130   -0.4534   -0.0000 C   0  0  0  0  0  0  0  0  0  0  0  0
   -7.3260   -4.9516   -0.0000 C   0  0  0  0  0  0  0  0  0  0  0  0
   -8.6266   -1.1693   -0.0000 N   0  0  0  0  0  0  0  0  0  0  0  0
   -7.3141    1.0858   -0.0000 C   0  0  0  0  0  0  0  0  0  0  0  0
   -4.7130    1.0500   -0.0000 C   0  0  0  0  0  0  0  0  0  0  0  0
   -8.6266   -5.6795   -0.0000 N   0  0  0  0  0  0  0  0  0  0  0  0
   -6.0494   -5.6914   -0.0000 C   0  0  0  0  0  0  0  0  0  0  0  0
   -9.9391   -0.4057   -0.0000 C   0  0  0  0  0  0  0  0  0  0  0  0
   -8.6266    1.8613   -0.0000 C   0  0  0  0  0  0  0  0  0  0  0  0
   -6.0255    1.8375   -0.0000 C   0  0  0  0  0  0  0  0  0  0  0  0
   -8.6385   -7.1590   -0.0000 C   0  0  0  0  0  0  0  0  0  0  0  0
   -6.0613   -7.1590   -0.0000 C   0  0  0  0  0  0  0  0  0  0  0  0
   -9.9510    1.1216   -0.0000 C   0  0  0  0  0  0  0  0  0  0  0  0
   -7.3618   -7.8868   -0.0000 C   0  0  0  0  0  0  0  0  0  0  0  0
   -4.7727   -7.8868   -0.0000 C   0  0  0  0  0  0  0  0  0  0  0  0
   -7.3738   -9.3783   -0.0000 C   0  0  0  0  0  0  0  0  0  0  0  0
   -3.4840   -7.1113   -0.0000 N   0  0  0  0  0  0  0  0  0  0  0  0
   -4.7846   -9.3902   -0.0000 C   0  0  0  0  0  0  0  0  0  0  0  0
   -6.0852  -10.1181   -0.0000 C   0  0  0  0  0  0  0  0  0  0  0  0
   -2.1954   -7.8391   -0.0000 C   0  0  0  0  0  0  0  0  0  0  0  0
   -3.5198   -5.5960   -0.0000 C   0  0  0  0  0  0  0  0  0  0  0  0
   -0.9187   -7.0755   -0.0000 C   0  0  0  0  0  0  0  0  0  0  0  0
   -2.2312   -4.8323   -0.0000 C   0  0  0  0  0  0  0  0  0  0  0  0
   -0.9307   -5.5602   -0.0000 N   0  0  0  0  0  0  0  0  0  0  0  0
  1  2  1  0  0  0  0
  2  3  1  0  0  0  0
  2  4  1  0  0  0  0
  2  5  1  0  0  0  0
  4  6  1  0  0  0  0
  5  7  1  0  0  0  0
  6  8  1  0  0  0  0
  8  9  1  0  0  0  0
  9 10  1  0  0  0  0
 11 10  1  6  0  0  0
 10 12  1  0  0  0  0
 11 13  1  0  0  0  0
 11 14  1  0  0  0  0
 15 12  1  1  0  0  0
 13 16  2  0  0  0  0
 13 17  1  0  0  0  0
 14 18  1  0  0  0  0
 15 19  1  0  0  0  0
 15 20  1  0  0  0  0
 16 21  1  0  0  0  0
 17 22  2  0  0  0  0
 17 23  1  0  0  0  0
 19 24  1  0  0  0  0
 20 25  1  0  0  0  0
 21 26  2  0  0  0  0
 24 27  1  0  0  0  0
 25 28  1  0  0  0  0
 27 29  1  0  0  0  0
 28 30  1  0  0  0  0
 28 31  2  0  0  0  0
 29 32  2  0  0  0  0
 30 33  1  0  0  0  0
 30 34  1  0  0  0  0
 33 35  1  0  0  0  0
 34 36  1  0  0  0  0
 35 37  1  0  0  0  0
  7  8  1  0  0  0  0
 18 23  1  0  0  0  0
 22 26  1  0  0  0  0
 25 27  2  0  0  0  0
 31 32  1  0  0  0  0
 36 37  1  0  0  0  0
M  END
>  <MolRegNo>
2271449

>  <m>
=

>  <Value>
5620

>  <Unit>
nM

>  <Type>
IC50

>  <pValue>
5.25

>  <Ligand Efficiency>
0

>  <Binding Efficiency>
0

>  <Surface Efficiency>
0

>  <Assay Index>
1158394

>  <Assay Category>


>  <Assay Organism>
Homo sapiens

>  <Target ID>
17045

>  <Target Name>
Cytochrome P450 3A4

>  <Target Organism>
Homo sapiens

>  <Target Description>
Target is a single protein chain

>  <Sequence Accession>
P08684

>  <Reference>
J Med Chem 61 (16), 7168-7188 (2018)

>  <Pubmed ID>
30052039

>  <DOI>
10.1021/acs.jmedchem.8b00450

$$$$
2272535
Actelion Java MolfileCreator 1.0

 27 30  0  0  0  0  0  0  0  0999 V2000
    0.0000   -0.0000   -0.0000 N   0  0  0  0  0  0  0  0  0  0  0  0
    1.2928    0.7541   -0.0000 C   0  0  0  0  0  0  0  0  0  0  0  0
   -1.3167    0.7661   -0.0000 C   0  0  0  0  0  0  0  0  0  0  0  0
    1.2928    2.2863   -0.0000 C   0  0  0  0  0  0  0  0  0  0  0  0
    2.5736    0.0120   -0.0000 C   0  0  0  0  0  0  0  0  0  0  0  0
   -1.3287    2.2983   -0.0000 C   0  0  0  0  0  0  0  0  0  0  0  0
   -0.0239    3.0643   -0.0000 C   0  0  0  0  0  0  0  0  0  0  0  0
    2.5855    3.0404   -0.0000 C   0  0  0  0  0  0  0  0  0  0  0  0
    2.5616   -1.4843   -0.0000 N   0  0  0  0  0  0  0  0  0  0  0  0
    1.2449   -2.2264   -0.0000 C   0  0  0  0  0  0  0  0  0  0  0  0
    3.8544   -2.2264   -0.0000 C   0  0  0  0  0  0  0  0  0  0  0  0
    1.2329   -3.7227   -0.0000 C   0  0  0  0  0  0  0  0  0  0  0  0
   -0.0718   -4.4529   -0.0000 N   0  0  0  0  0  0  0  0  0  0  0  0
    2.5137   -4.4648   -0.0000 C   0  0  0  0  0  0  0  0  0  0  0  0
   -0.0838   -5.9372   -0.0000 C   0  0  0  0  0  0  0  0  0  0  0  0
    2.5018   -5.9372   -0.0000 C   0  0  0  0  0  0  0  0  0  0  0  0
    1.1970   -6.6673   -0.0000 C   0  0  0  0  0  0  0  0  0  0  0  0
    3.7945   -6.6673   -0.0000 C   0  0  0  0  0  0  0  0  0  0  0  0
    1.1850   -8.1636   -0.0000 C   0  0  0  0  0  0  0  0  0  0  0  0
    5.0873   -5.8893   -0.0000 N   0  0  0  0  0  0  0  0  0  0  0  0
    3.7826   -8.1756   -0.0000 C   0  0  0  0  0  0  0  0  0  0  0  0
    2.4778   -8.9058   -0.0000 C   0  0  0  0  0  0  0  0  0  0  0  0
    6.3801   -6.6195   -0.0000 C   0  0  0  0  0  0  0  0  0  0  0  0
    5.0514   -4.3691   -0.0000 C   0  0  0  0  0  0  0  0  0  0  0  0
    7.6609   -5.8534   -0.0000 C   0  0  0  0  0  0  0  0  0  0  0  0
    6.3442   -3.6030   -0.0000 C   0  0  0  0  0  0  0  0  0  0  0  0
    7.6489   -4.3332   -0.0000 N   0  0  0  0  0  0  0  0  0  0  0  0
  1  2  2  0  0  0  0
  1  3  1  0  0  0  0
  2  4  1  0  0  0  0
  2  5  1  0  0  0  0
  3  6  2  0  0  0  0
  4  7  2  0  0  0  0
  4  8  1  0  0  0  0
  5  9  1  0  0  0  0
  9 10  1  0  0  0  0
  9 11  1  0  0  0  0
 12 10  1  1  0  0  0
 12 13  1  0  0  0  0
 12 14  1  0  0  0  0
 13 15  1  0  0  0  0
 14 16  1  0  0  0  0
 15 17  1  0  0  0  0
 16 18  1  0  0  0  0
 17 19  1  0  0  0  0
 18 20  1  0  0  0  0
 18 21  2  0  0  0  0
 19 22  2  0  0  0  0
 20 23  1  0  0  0  0
 20 24  1  0  0  0  0
 23 25  1  0  0  0  0
 24 26  1  0  0  0  0
 25 27  1  0  0  0  0
  6  7  1  0  0  0  0
 16 17  2  0  0  0  0
 21 22  1  0  0  0  0
 26 27  1  0  0  0  0
M  END
>  <MolRegNo>
2272535

>  <m>
=

>  <Value>
1420

>  <Unit>
nM

>  <Type>
IC50

>  <pValue>
5.85

>  <Ligand Efficiency>
0

>  <Binding Efficiency>
0

>  <Surface Efficiency>
0

>  <Assay Index>
1158394

>  <Assay Category>


>  <Assay Organism>
Homo sapiens

>  <Target ID>
17045

>  <Target Name>
Cytochrome P450 3A4

>  <Target Organism>
Homo sapiens

>  <Target Description>
Target is a single protein chain

>  <Sequence Accession>
P08684

>  <Reference>
J Med Chem 61 (16), 7168-7188 (2018)

>  <Pubmed ID>
30052039

>  <DOI>
10.1021/acs.jmedchem.8b00450

$$$$
2270355
Actelion Java MolfileCreator 1.0

 32 37  0  0  0  0  0  0  0  0999 V2000
    0.0000   -0.0000   -0.0000 N   0  0  0  0  0  0  0  0  0  0  0  0
    1.2919    0.7536   -0.0000 C   0  0  0  0  0  0  0  0  0  0  0  0
   -1.3159    0.7656   -0.0000 C   0  0  0  0  0  0  0  0  0  0  0  0
    1.2919    2.2848   -0.0000 C   0  0  0  0  0  0  0  0  0  0  0  0
    2.5719    0.0120   -0.0000 C   0  0  0  0  0  0  0  0  0  0  0  0
   -1.3278    2.2968   -0.0000 C   0  0  0  0  0  0  0  0  0  0  0  0
   -0.0239    3.0624   -0.0000 C   0  0  0  0  0  0  0  0  0  0  0  0
    2.5839    3.0384   -0.0000 C   0  0  0  0  0  0  0  0  0  0  0  0
    2.5600   -1.4833   -0.0000 N   0  0  0  0  0  0  0  0  0  0  0  0
    3.8758    0.7656   -0.0000 C   0  0  0  0  0  0  0  0  0  0  0  0
    3.8758    2.2848   -0.0000 C   0  0  0  0  0  0  0  0  0  0  0  0
    1.2441   -2.2250   -0.0000 C   0  0  0  0  0  0  0  0  0  0  0  0
    3.8519   -2.2250   -0.0000 C   0  0  0  0  0  0  0  0  0  0  0  0
    1.2321   -3.7203   -0.0000 C   0  0  0  0  0  0  0  0  0  0  0  0
   -0.0718   -4.4500   -0.0000 N   0  0  0  0  0  0  0  0  0  0  0  0
    2.5121   -4.4620   -0.0000 C   0  0  0  0  0  0  0  0  0  0  0  0
   -0.0837   -5.9333   -0.0000 C   0  0  0  0  0  0  0  0  0  0  0  0
    2.5001   -5.9333   -0.0000 C   0  0  0  0  0  0  0  0  0  0  0  0
    1.1962   -6.6630   -0.0000 C   0  0  0  0  0  0  0  0  0  0  0  0
    3.7921   -6.6630   -0.0000 C   0  0  0  0  0  0  0  0  0  0  0  0
    1.1843   -8.1583   -0.0000 C   0  0  0  0  0  0  0  0  0  0  0  0
    5.0840   -5.8855   -0.0000 N   0  0  0  0  0  0  0  0  0  0  0  0
    3.7801   -8.1703   -0.0000 C   0  0  0  0  0  0  0  0  0  0  0  0
    2.4762   -8.9000   -0.0000 C   0  0  0  0  0  0  0  0  0  0  0  0
    5.0481   -4.3663   -0.0000 C   0  0  0  0  0  0  0  0  0  0  0  0
    6.3760   -6.6152   -0.0000 C   0  0  0  0  0  0  0  0  0  0  0  0
    6.3401   -3.6007   -0.0000 C   0  0  0  0  0  0  0  0  0  0  0  0
    7.6559   -5.8496   -0.0000 C   0  0  0  0  0  0  0  0  0  0  0  0
    7.6320   -4.3423   -0.0000 N   0  0  0  0  0  0  0  0  0  0  0  0
    8.9239   -3.5768   -0.0000 C   0  0  0  0  0  0  0  0  0  0  0  0
   10.4192   -3.5528   -0.0000 C   0  0  0  0  0  0  0  0  0  0  0  0
    9.6536   -2.2489   -0.0000 C   0  0  0  0  0  0  0  0  0  0  0  0
  1  2  2  0  0  0  0
  1  3  1  0  0  0  0
  2  4  1  0  0  0  0
  2  5  1  0  0  0  0
  3  6  2  0  0  0  0
  4  7  2  0  0  0  0
  4  8  1  0  0  0  0
  5  9  1  6  0  0  0
  5 10  1  0  0  0  0
  8 11  1  0  0  0  0
  9 12  1  0  0  0  0
  9 13  1  0  0  0  0
 14 12  1  1  0  0  0
 14 15  1  0  0  0  0
 14 16  1  0  0  0  0
 15 17  1  0  0  0  0
 16 18  1  0  0  0  0
 17 19  1  0  0  0  0
 18 20  1  0  0  0  0
 19 21  1  0  0  0  0
 20 22  1  0  0  0  0
 20 23  2  0  0  0  0
 21 24  2  0  0  0  0
 22 25  1  0  0  0  0
 22 26  1  0  0  0  0
 25 27  1  0  0  0  0
 26 28  1  0  0  0  0
 27 29  1  0  0  0  0
 29 30  1  0  0  0  0
 30 31  1  0  0  0  0
 30 32  1  0  0  0  0
  6  7  1  0  0  0  0
 10 11  1  0  0  0  0
 18 19  2  0  0  0  0
 23 24  1  0  0  0  0
 28 29  1  0  0  0  0
 31 32  1  0  0  0  0
M  END
>  <MolRegNo>
2270355

>  <m>
=

>  <Value>
4230

>  <Unit>
nM

>  <Type>
IC50

>  <pValue>
5.37

>  <Ligand Efficiency>
0

>  <Binding Efficiency>
0

>  <Surface Efficiency>
0

>  <Assay Index>
1158394

>  <Assay Category>


>  <Assay Organism>
Homo sapiens

>  <Target ID>
17045

>  <Target Name>
Cytochrome P450 3A4

>  <Target Organism>
Homo sapiens

>  <Target Description>
Target is a single protein chain

>  <Sequence Accession>
P08684

>  <Reference>
J Med Chem 61 (16), 7168-7188 (2018)

>  <Pubmed ID>
30052039

>  <DOI>
10.1021/acs.jmedchem.8b00450

$$$$
2264980
Actelion Java MolfileCreator 1.0

 39 44  0  0  0  0  0  0  0  0999 V2000
    0.0000   -0.0000   -0.0000 F   0  0  0  0  0  0  0  0  0  0  0  0
   -0.0119    1.5088   -0.0000 C   0  0  0  0  0  0  0  0  0  0  0  0
    1.2712    2.2692   -0.0000 F   0  0  0  0  0  0  0  0  0  0  0  0
    1.2593    0.7722   -0.0000 F   0  0  0  0  0  0  0  0  0  0  0  0
   -1.3187    2.2692   -0.0000 C   0  0  0  0  0  0  0  0  0  0  0  0
   -2.6256    1.5326   -0.0000 C   0  0  0  0  0  0  0  0  0  0  0  0
   -1.3306    3.7780   -0.0000 C   0  0  0  0  0  0  0  0  0  0  0  0
   -3.9206    2.2930   -0.0000 C   0  0  0  0  0  0  0  0  0  0  0  0
   -2.6494    4.5384   -0.0000 C   0  0  0  0  0  0  0  0  0  0  0  0
   -5.2275    1.5564   -0.0000 N   0  0  0  0  0  0  0  0  0  0  0  0
   -3.9444    3.7899   -0.0000 C   0  0  0  0  0  0  0  0  0  0  0  0
   -6.5343    2.3167   -0.0000 C   0  0  0  0  0  0  0  0  0  0  0  0
   -5.2393    0.0713   -0.0000 C   0  0  0  0  0  0  0  0  0  0  0  0
   -7.8412    1.5801   -0.0000 C   0  0  0  0  0  0  0  0  0  0  0  0
   -6.5343   -0.6653   -0.0000 C   0  0  0  0  0  0  0  0  0  0  0  0
   -7.8293    0.0950   -0.0000 N   0  0  0  0  0  0  0  0  0  0  0  0
   -9.1362   -0.6534   -0.0000 C   0  0  0  0  0  0  0  0  0  0  0  0
  -10.4430    0.0950   -0.0000 C   0  0  0  0  0  0  0  0  0  0  0  0
   -9.1481   -2.1504   -0.0000 C   0  0  0  0  0  0  0  0  0  0  0  0
  -11.7380   -0.6297   -0.0000 C   0  0  0  0  0  0  0  0  0  0  0  0
  -10.4549    1.5801   -0.0000 C   0  0  0  0  0  0  0  0  0  0  0  0
  -10.4549   -2.8870   -0.0000 C   0  0  0  0  0  0  0  0  0  0  0  0
  -11.7499   -2.1147   -0.0000 C   0  0  0  0  0  0  0  0  0  0  0  0
  -13.0330    0.1188   -0.0000 C   0  0  0  0  0  0  0  0  0  0  0  0
  -11.7499    2.3405   -0.0000 C   0  0  0  0  0  0  0  0  0  0  0  0
  -13.0449    1.6158   -0.0000 N   0  0  0  0  0  0  0  0  0  0  0  0
  -11.7618    3.8493   -0.0000 C   0  0  0  0  0  0  0  0  0  0  0  0
  -10.4787    4.6097   -0.0000 N   0  0  0  0  0  0  0  0  0  0  0  0
  -10.4906    6.1185   -0.0000 C   0  0  0  0  0  0  0  0  0  0  0  0
   -9.1956    3.8731   -0.0000 C   0  0  0  0  0  0  0  0  0  0  0  0
  -11.7855    6.8789   -0.0000 C   0  0  0  0  0  0  0  0  0  0  0  0
   -9.1956    6.8670   -0.0000 C   0  0  0  0  0  0  0  0  0  0  0  0
  -13.0924    6.1541   -0.0000 N   0  0  0  0  0  0  0  0  0  0  0  0
  -11.7855    8.3996   -0.0000 C   0  0  0  0  0  0  0  0  0  0  0  0
   -9.1956    8.3639   -0.0000 C   0  0  0  0  0  0  0  0  0  0  0  0
  -14.3993    6.9145   -0.0000 C   0  0  0  0  0  0  0  0  0  0  0  0
  -13.0924    9.1718   -0.0000 C   0  0  0  0  0  0  0  0  0  0  0  0
  -10.5024    9.1481   -0.0000 C   0  0  0  0  0  0  0  0  0  0  0  0
  -14.4112    8.4352   -0.0000 C   0  0  0  0  0  0  0  0  0  0  0  0
  1  2  1  0  0  0  0
  2  3  1  0  0  0  0
  2  4  1  0  0  0  0
  2  5  1  0  0  0  0
  5  6  2  0  0  0  0
  5  7  1  0  0  0  0
  6  8  1  0  0  0  0
  7  9  2  0  0  0  0
  8 10  1  0  0  0  0
  8 11  2  0  0  0  0
 10 12  1  0  0  0  0
 10 13  1  0  0  0  0
 12 14  1  0  0  0  0
 13 15  1  0  0  0  0
 14 16  1  0  0  0  0
 16 17  1  0  0  0  0
 17 18  2  0  0  0  0
 17 19  1  0  0  0  0
 18 20  1  0  0  0  0
 18 21  1  0  0  0  0
 19 22  2  0  0  0  0
 20 23  2  0  0  0  0
 20 24  1  0  0  0  0
 21 25  1  0  0  0  0
 24 26  1  0  0  0  0
 25 27  1  1  0  0  0
 27 28  1  0  0  0  0
 29 28  1  6  0  0  0
 28 30  1  0  0  0  0
 29 31  1  0  0  0  0
 29 32  1  0  0  0  0
 31 33  2  0  0  0  0
 31 34  1  0  0  0  0
 32 35  1  0  0  0  0
 33 36  1  0  0  0  0
 34 37  2  0  0  0  0
 34 38  1  0  0  0  0
 36 39  2  0  0  0  0
  9 11  1  0  0  0  0
 15 16  1  0  0  0  0
 22 23  1  0  0  0  0
 25 26  1  0  0  0  0
 35 38  1  0  0  0  0
 37 39  1  0  0  0  0
M  END
>  <MolRegNo>
2264980

>  <m>
=

>  <Value>
2210

>  <Unit>
nM

>  <Type>
IC50

>  <pValue>
5.66

>  <Ligand Efficiency>
0

>  <Binding Efficiency>
0

>  <Surface Efficiency>
0

>  <Assay Index>
1158394

>  <Assay Category>


>  <Assay Organism>
Homo sapiens

>  <Target ID>
17045

>  <Target Name>
Cytochrome P450 3A4

>  <Target Organism>
Homo sapiens

>  <Target Description>
Target is a single protein chain

>  <Sequence Accession>
P08684

>  <Reference>
J Med Chem 61 (16), 7168-7188 (2018)

>  <Pubmed ID>
30052039

>  <DOI>
10.1021/acs.jmedchem.8b00450

$$$$
2272906
Actelion Java MolfileCreator 1.0

 35 40  0  0  0  0  0  0  0  0999 V2000
    0.0000   -0.0000   -0.0000 N   0  0  0  0  0  0  0  0  0  0  0  0
    0.0000   -1.4755   -0.0000 C   0  0  0  0  0  0  0  0  0  0  0  0
    1.2732    0.7615   -0.0000 C   0  0  0  0  0  0  0  0  0  0  0  0
   -1.3089   -2.2132   -0.0000 N   0  0  0  0  0  0  0  0  0  0  0  0
    1.2732   -2.2132   -0.0000 C   0  0  0  0  0  0  0  0  0  0  0  0
    2.5702    0.0238   -0.0000 C   0  0  0  0  0  0  0  0  0  0  0  0
   -1.3208   -3.7006   -0.0000 C   0  0  0  0  0  0  0  0  0  0  0  0
   -2.6178   -1.4517   -0.0000 C   0  0  0  0  0  0  0  0  0  0  0  0
    2.5583   -1.4517   -0.0000 C   0  0  0  0  0  0  0  0  0  0  0  0
   -2.6178   -4.4383   -0.0000 C   0  0  0  0  0  0  0  0  0  0  0  0
   -3.9266   -2.1894   -0.0000 C   0  0  0  0  0  0  0  0  0  0  0  0
   -3.9266   -3.6887   -0.0000 N   0  0  0  0  0  0  0  0  0  0  0  0
   -5.2355   -4.4383   -0.0000 C   0  0  0  0  0  0  0  0  0  0  0  0
   -6.5563   -3.6887   -0.0000 C   0  0  0  0  0  0  0  0  0  0  0  0
   -5.2474   -5.9376   -0.0000 C   0  0  0  0  0  0  0  0  0  0  0  0
   -7.8533   -4.4145   -0.0000 C   0  0  0  0  0  0  0  0  0  0  0  0
   -6.5682   -2.2013   -0.0000 C   0  0  0  0  0  0  0  0  0  0  0  0
   -6.5563   -6.6753   -0.0000 C   0  0  0  0  0  0  0  0  0  0  0  0
   -7.8652   -5.9019   -0.0000 C   0  0  0  0  0  0  0  0  0  0  0  0
   -9.1503   -3.6649   -0.0000 C   0  0  0  0  0  0  0  0  0  0  0  0
   -7.8652   -1.4398   -0.0000 C   0  0  0  0  0  0  0  0  0  0  0  0
   -9.1622   -2.1656   -0.0000 N   0  0  0  0  0  0  0  0  0  0  0  0
   -7.8771    0.0714   -0.0000 C   0  0  0  0  0  0  0  0  0  0  0  0
   -6.5920    0.8329   -0.0000 N   0  0  0  0  0  0  0  0  0  0  0  0
   -6.6039    2.3441   -0.0000 C   0  0  0  0  0  0  0  0  0  0  0  0
   -5.3069    0.0952   -0.0000 C   0  0  0  0  0  0  0  0  0  0  0  0
   -7.9009    3.1056   -0.0000 C   0  0  0  0  0  0  0  0  0  0  0  0
   -5.3069    3.0937   -0.0000 C   0  0  0  0  0  0  0  0  0  0  0  0
   -9.2098    2.3798   -0.0000 N   0  0  0  0  0  0  0  0  0  0  0  0
   -7.9009    4.6287   -0.0000 C   0  0  0  0  0  0  0  0  0  0  0  0
   -5.3069    4.5930   -0.0000 C   0  0  0  0  0  0  0  0  0  0  0  0
  -10.5187    3.1413   -0.0000 C   0  0  0  0  0  0  0  0  0  0  0  0
   -9.2098    5.4021   -0.0000 C   0  0  0  0  0  0  0  0  0  0  0  0
   -6.6158    5.3783   -0.0000 C   0  0  0  0  0  0  0  0  0  0  0  0
  -10.5306    4.6644   -0.0000 C   0  0  0  0  0  0  0  0  0  0  0  0
  1  2  2  0  0  0  0
  1  3  1  0  0  0  0
  2  4  1  0  0  0  0
  2  5  1  0  0  0  0
  3  6  2  0  0  0  0
  4  7  1  0  0  0  0
  4  8  1  0  0  0  0
  5  9  2  0  0  0  0
  7 10  1  0  0  0  0
  8 11  1  0  0  0  0
 10 12  1  0  0  0  0
 12 13  1  0  0  0  0
 13 14  2  0  0  0  0
 13 15  1  0  0  0  0
 14 16  1  0  0  0  0
 14 17  1  0  0  0  0
 15 18  2  0  0  0  0
 16 19  2  0  0  0  0
 16 20  1  0  0  0  0
 17 21  1  0  0  0  0
 20 22  1  0  0  0  0
 21 23  1  1  0  0  0
 23 24  1  0  0  0  0
 25 24  1  6  0  0  0
 24 26  1  0  0  0  0
 25 27  1  0  0  0  0
 25 28  1  0  0  0  0
 27 29  2  0  0  0  0
 27 30  1  0  0  0  0
 28 31  1  0  0  0  0
 29 32  1  0  0  0  0
 30 33  2  0  0  0  0
 30 34  1  0  0  0  0
 32 35  2  0  0  0  0
  6  9  1  0  0  0  0
 11 12  1  0  0  0  0
 18 19  1  0  0  0  0
 21 22  1  0  0  0  0
 31 34  1  0  0  0  0
 33 35  1  0  0  0  0
M  END
>  <MolRegNo>
2272906

>  <m>
=

>  <Value>
3160

>  <Unit>
nM

>  <Type>
IC50

>  <pValue>
5.5

>  <Ligand Efficiency>
0

>  <Binding Efficiency>
0

>  <Surface Efficiency>
0

>  <Assay Index>
1158394

>  <Assay Category>


>  <Assay Organism>
Homo sapiens

>  <Target ID>
17045

>  <Target Name>
Cytochrome P450 3A4

>  <Target Organism>
Homo sapiens

>  <Target Description>
Target is a single protein chain

>  <Sequence Accession>
P08684

>  <Reference>
J Med Chem 61 (16), 7168-7188 (2018)

>  <Pubmed ID>
30052039

>  <DOI>
10.1021/acs.jmedchem.8b00450

$$$$
2270176
Actelion Java MolfileCreator 1.0

 35 40  0  0  0  0  0  0  0  0999 V2000
    0.0000   -0.0000   -0.0000 N   0  0  0  0  0  0  0  0  0  0  0  0
   -1.2949    0.7603   -0.0000 C   0  0  0  0  0  0  0  0  0  0  0  0
    1.2830    0.7603   -0.0000 C   0  0  0  0  0  0  0  0  0  0  0  0
   -1.3186    2.2571   -0.0000 N   0  0  0  0  0  0  0  0  0  0  0  0
   -2.6016    0.0238   -0.0000 N   0  0  0  0  0  0  0  0  0  0  0  0
    1.2711    2.2690   -0.0000 C   0  0  0  0  0  0  0  0  0  0  0  0
   -0.0475    3.0174   -0.0000 C   0  0  0  0  0  0  0  0  0  0  0  0
   -2.6135   -1.4612   -0.0000 C   0  0  0  0  0  0  0  0  0  0  0  0
   -3.9084    0.7840   -0.0000 C   0  0  0  0  0  0  0  0  0  0  0  0
   -3.9084   -2.1977   -0.0000 C   0  0  0  0  0  0  0  0  0  0  0  0
   -5.2151    0.0475   -0.0000 C   0  0  0  0  0  0  0  0  0  0  0  0
   -5.2151   -1.4493   -0.0000 N   0  0  0  0  0  0  0  0  0  0  0  0
   -6.5218   -2.1977   -0.0000 C   0  0  0  0  0  0  0  0  0  0  0  0
   -7.8286   -1.4493   -0.0000 C   0  0  0  0  0  0  0  0  0  0  0  0
   -6.5337   -3.6945   -0.0000 C   0  0  0  0  0  0  0  0  0  0  0  0
   -9.1234   -2.1739   -0.0000 C   0  0  0  0  0  0  0  0  0  0  0  0
   -7.8405    0.0356   -0.0000 C   0  0  0  0  0  0  0  0  0  0  0  0
   -7.8405   -4.4310   -0.0000 C   0  0  0  0  0  0  0  0  0  0  0  0
   -9.1353   -3.6589   -0.0000 C   0  0  0  0  0  0  0  0  0  0  0  0
  -10.4183   -1.4255   -0.0000 C   0  0  0  0  0  0  0  0  0  0  0  0
   -9.1353    0.7959   -0.0000 C   0  0  0  0  0  0  0  0  0  0  0  0
  -10.4302    0.0713   -0.0000 N   0  0  0  0  0  0  0  0  0  0  0  0
   -9.1472    2.3046   -0.0000 C   0  0  0  0  0  0  0  0  0  0  0  0
   -7.8642    3.0649   -0.0000 N   0  0  0  0  0  0  0  0  0  0  0  0
   -7.8761    4.5736   -0.0000 C   0  0  0  0  0  0  0  0  0  0  0  0
   -6.5812    2.3284   -0.0000 C   0  0  0  0  0  0  0  0  0  0  0  0
   -9.1710    5.3339   -0.0000 C   0  0  0  0  0  0  0  0  0  0  0  0
   -6.5812    5.3220   -0.0000 C   0  0  0  0  0  0  0  0  0  0  0  0
  -10.4777    4.6092   -0.0000 N   0  0  0  0  0  0  0  0  0  0  0  0
   -9.1710    6.8545   -0.0000 C   0  0  0  0  0  0  0  0  0  0  0  0
   -6.5812    6.8188   -0.0000 C   0  0  0  0  0  0  0  0  0  0  0  0
  -11.7845    5.3695   -0.0000 C   0  0  0  0  0  0  0  0  0  0  0  0
  -10.4777    7.6266   -0.0000 C   0  0  0  0  0  0  0  0  0  0  0  0
   -7.8880    7.6029   -0.0000 C   0  0  0  0  0  0  0  0  0  0  0  0
  -11.7963    6.8901   -0.0000 C   0  0  0  0  0  0  0  0  0  0  0  0
  1  2  2  0  0  0  0
  1  3  1  0  0  0  0
  2  4  1  0  0  0  0
  2  5  1  0  0  0  0
  3  6  2  0  0  0  0
  4  7  2  0  0  0  0
  5  8  1  0  0  0  0
  5  9  1  0  0  0  0
  8 10  1  0  0  0  0
  9 11  1  0  0  0  0
 10 12  1  0  0  0  0
 12 13  1  0  0  0  0
 13 14  2  0  0  0  0
 13 15  1  0  0  0  0
 14 16  1  0  0  0  0
 14 17  1  0  0  0  0
 15 18  2  0  0  0  0
 16 19  2  0  0  0  0
 16 20  1  0  0  0  0
 17 21  1  0  0  0  0
 20 22  1  0  0  0  0
 21 23  1  1  0  0  0
 23 24  1  0  0  0  0
 25 24  1  6  0  0  0
 24 26  1  0  0  0  0
 25 27  1  0  0  0  0
 25 28  1  0  0  0  0
 27 29  2  0  0  0  0
 27 30  1  0  0  0  0
 28 31  1  0  0  0  0
 29 32  1  0  0  0  0
 30 33  2  0  0  0  0
 30 34  1  0  0  0  0
 32 35  2  0  0  0  0
  6  7  1  0  0  0  0
 11 12  1  0  0  0  0
 18 19  1  0  0  0  0
 21 22  1  0  0  0  0
 31 34  1  0  0  0  0
 33 35  1  0  0  0  0
M  END
>  <MolRegNo>
2270176

>  <m>
=

>  <Value>
3350

>  <Unit>
nM

>  <Type>
IC50

>  <pValue>
5.47

>  <Ligand Efficiency>
0

>  <Binding Efficiency>
0

>  <Surface Efficiency>
0

>  <Assay Index>
1158394

>  <Assay Category>


>  <Assay Organism>
Homo sapiens

>  <Target ID>
17045

>  <Target Name>
Cytochrome P450 3A4

>  <Target Organism>
Homo sapiens

>  <Target Description>
Target is a single protein chain

>  <Sequence Accession>
P08684

>  <Reference>
J Med Chem 61 (16), 7168-7188 (2018)

>  <Pubmed ID>
30052039

>  <DOI>
10.1021/acs.jmedchem.8b00450

$$$$
2262265
Actelion Java MolfileCreator 1.0

 36 41  0  0  0  0  0  0  0  0999 V2000
    0.0000   -0.0000   -0.0000 N   0  0  0  0  0  0  0  0  0  0  0  0
    1.2934    0.7545   -0.0000 C   0  0  0  0  0  0  0  0  0  0  0  0
   -1.3174    0.7665   -0.0000 C   0  0  0  0  0  0  0  0  0  0  0  0
    1.2934    2.2874   -0.0000 C   0  0  0  0  0  0  0  0  0  0  0  0
    2.5748    0.0120   -0.0000 C   0  0  0  0  0  0  0  0  0  0  0  0
   -1.3293    2.2994   -0.0000 C   0  0  0  0  0  0  0  0  0  0  0  0
   -0.0240    3.0658   -0.0000 C   0  0  0  0  0  0  0  0  0  0  0  0
    2.5868    3.0419   -0.0000 C   0  0  0  0  0  0  0  0  0  0  0  0
    2.5628   -1.4850   -0.0000 N   0  0  0  0  0  0  0  0  0  0  0  0
    3.8802    0.7665   -0.0000 C   0  0  0  0  0  0  0  0  0  0  0  0
    3.8802    2.2874   -0.0000 C   0  0  0  0  0  0  0  0  0  0  0  0
    1.2455   -2.2275   -0.0000 C   0  0  0  0  0  0  0  0  0  0  0  0
    3.8562   -2.2275   -0.0000 C   0  0  0  0  0  0  0  0  0  0  0  0
    1.2335   -3.7245   -0.0000 C   0  0  0  0  0  0  0  0  0  0  0  0
   -0.0719   -4.4550   -0.0000 N   0  0  0  0  0  0  0  0  0  0  0  0
    2.5149   -4.4670   -0.0000 C   0  0  0  0  0  0  0  0  0  0  0  0
   -0.0838   -5.9401   -0.0000 C   0  0  0  0  0  0  0  0  0  0  0  0
    2.5030   -5.9401   -0.0000 C   0  0  0  0  0  0  0  0  0  0  0  0
    1.1976   -6.6706   -0.0000 C   0  0  0  0  0  0  0  0  0  0  0  0
    3.7964   -6.6706   -0.0000 C   0  0  0  0  0  0  0  0  0  0  0  0
    1.1856   -8.1676   -0.0000 C   0  0  0  0  0  0  0  0  0  0  0  0
    5.0898   -5.8922   -0.0000 N   0  0  0  0  0  0  0  0  0  0  0  0
    3.7844   -8.1796   -0.0000 C   0  0  0  0  0  0  0  0  0  0  0  0
    2.4790   -8.9101   -0.0000 C   0  0  0  0  0  0  0  0  0  0  0  0
    5.0538   -4.3712   -0.0000 C   0  0  0  0  0  0  0  0  0  0  0  0
    6.3832   -6.6227   -0.0000 C   0  0  0  0  0  0  0  0  0  0  0  0
    6.3472   -3.6048   -0.0000 C   0  0  0  0  0  0  0  0  0  0  0  0
    7.6646   -5.8562   -0.0000 C   0  0  0  0  0  0  0  0  0  0  0  0
    7.6406   -4.3473   -0.0000 N   0  0  0  0  0  0  0  0  0  0  0  0
    8.9340   -3.5808   -0.0000 C   0  0  0  0  0  0  0  0  0  0  0  0
   10.2274   -4.3233   -0.0000 C   0  0  0  0  0  0  0  0  0  0  0  0
   11.5089   -3.5568   -0.0000 N   0  0  0  0  0  0  0  0  0  0  0  0
   10.2155   -5.8203   -0.0000 C   0  0  0  0  0  0  0  0  0  0  0  0
   12.8023   -4.2874   -0.0000 C   0  0  0  0  0  0  0  0  0  0  0  0
   11.5089   -6.5628   -0.0000 C   0  0  0  0  0  0  0  0  0  0  0  0
   12.8023   -5.7844   -0.0000 C   0  0  0  0  0  0  0  0  0  0  0  0
  1  2  2  0  0  0  0
  1  3  1  0  0  0  0
  2  4  1  0  0  0  0
  2  5  1  0  0  0  0
  3  6  2  0  0  0  0
  4  7  2  0  0  0  0
  4  8  1  0  0  0  0
  5  9  1  6  0  0  0
  5 10  1  0  0  0  0
  8 11  1  0  0  0  0
  9 12  1  0  0  0  0
  9 13  1  0  0  0  0
 14 12  1  1  0  0  0
 14 15  1  0  0  0  0
 14 16  1  0  0  0  0
 15 17  1  0  0  0  0
 16 18  1  0  0  0  0
 17 19  1  0  0  0  0
 18 20  1  0  0  0  0
 19 21  1  0  0  0  0
 20 22  1  0  0  0  0
 20 23  2  0  0  0  0
 21 24  2  0  0  0  0
 22 25  1  0  0  0  0
 22 26  1  0  0  0  0
 25 27  1  0  0  0  0
 26 28  1  0  0  0  0
 27 29  1  0  0  0  0
 29 30  1  0  0  0  0
 30 31  1  0  0  0  0
 31 32  2  0  0  0  0
 31 33  1  0  0  0  0
 32 34  1  0  0  0  0
 33 35  2  0  0  0  0
 34 36  2  0  0  0  0
  6  7  1  0  0  0  0
 10 11  1  0  0  0  0
 18 19  2  0  0  0  0
 23 24  1  0  0  0  0
 28 29  1  0  0  0  0
 35 36  1  0  0  0  0
M  END
>  <MolRegNo>
2262265

>  <m>
=

>  <Value>
6790

>  <Unit>
nM

>  <Type>
IC50

>  <pValue>
5.17

>  <Ligand Efficiency>
0

>  <Binding Efficiency>
0

>  <Surface Efficiency>
0

>  <Assay Index>
1158394

>  <Assay Category>


>  <Assay Organism>
Homo sapiens

>  <Target ID>
17045

>  <Target Name>
Cytochrome P450 3A4

>  <Target Organism>
Homo sapiens

>  <Target Description>
Target is a single protein chain

>  <Sequence Accession>
P08684

>  <Reference>
J Med Chem 61 (16), 7168-7188 (2018)

>  <Pubmed ID>
30052039

>  <DOI>
10.1021/acs.jmedchem.8b00450

$$$$
2278351
Actelion Java MolfileCreator 1.0

 27 29  0  0  0  0  0  0  0  0999 V2000
    0.0000   -0.0000   -0.0000 S   0  0  0  0  0  0  0  0  0  0  0  0
    1.0426   -1.0426   -0.0000 O   0  0  0  0  0  0  0  0  0  0  0  0
   -0.4028   -1.4335   -0.0000 O   0  0  0  0  0  0  0  0  0  0  0  0
   -1.4335    0.4620   -0.0000 C   0  0  0  0  0  0  0  0  0  0  0  0
    0.8648    1.2321   -0.0000 C   0  0  0  0  0  0  0  0  0  0  0  0
   -1.4572    1.9785   -0.0000 C   0  0  0  0  0  0  0  0  0  0  0  0
   -2.7367   -0.2843   -0.0000 C   0  0  0  0  0  0  0  0  0  0  0  0
    2.1443    2.0022   -0.0000 F   0  0  0  0  0  0  0  0  0  0  0  0
    2.1562    0.5094   -0.0000 F   0  0  0  0  0  0  0  0  0  0  0  0
   -0.0355    2.4524   -0.0000 C   0  0  0  0  0  0  0  0  0  0  0  0
   -2.7604    2.7249   -0.0000 C   0  0  0  0  0  0  0  0  0  0  0  0
   -4.0399    0.4739   -0.0000 C   0  0  0  0  0  0  0  0  0  0  0  0
    0.4028    3.8859   -0.0000 O   0  0  0  0  0  0  0  0  0  0  0  0
   -4.0518    1.9785   -0.0000 C   0  0  0  0  0  0  0  0  0  0  0  0
   -2.7841    4.2295   -0.0000 C   0  0  0  0  0  0  0  0  0  0  0  0
   -5.3549    2.7367   -0.0000 O   0  0  0  0  0  0  0  0  0  0  0  0
   -1.5046    4.9995   -0.0000 F   0  0  0  0  0  0  0  0  0  0  0  0
   -4.0991    4.9758   -0.0000 F   0  0  0  0  0  0  0  0  0  0  0  0
   -6.6581    2.0022   -0.0000 C   0  0  0  0  0  0  0  0  0  0  0  0
   -6.6700    0.5094   -0.0000 C   0  0  0  0  0  0  0  0  0  0  0  0
   -7.9613    2.7604   -0.0000 C   0  0  0  0  0  0  0  0  0  0  0  0
   -7.9850   -0.2251   -0.0000 C   0  0  0  0  0  0  0  0  0  0  0  0
   -9.2645    2.0259   -0.0000 C   0  0  0  0  0  0  0  0  0  0  0  0
   -7.9969   -1.7060   -0.0000 F   0  0  0  0  0  0  0  0  0  0  0  0
   -9.2882    0.5331   -0.0000 C   0  0  0  0  0  0  0  0  0  0  0  0
  -10.5677    2.7841   -0.0000 C   0  0  0  0  0  0  0  0  0  0  0  0
  -11.8709    3.5423   -0.0000 N   0  0  0  0  0  0  0  0  0  0  0  0
  1  2  2  0  0  0  0
  1  3  2  0  0  0  0
  1  4  1  0  0  0  0
  1  5  1  0  0  0  0
  4  6  2  0  0  0  0
  4  7  1  0  0  0  0
  5  8  1  0  0  0  0
  5  9  1  0  0  0  0
  5 10  1  0  0  0  0
  6 11  1  0  0  0  0
  7 12  2  0  0  0  0
 10 13  1  1  0  0  0
 11 14  2  0  0  0  0
 11 15  1  0  0  0  0
 14 16  1  0  0  0  0
 15 17  1  0  0  0  0
 15 18  1  0  0  0  0
 16 19  1  0  0  0  0
 19 20  2  0  0  0  0
 19 21  1  0  0  0  0
 20 22  1  0  0  0  0
 21 23  2  0  0  0  0
 22 24  1  0  0  0  0
 22 25  2  0  0  0  0
 23 26  1  0  0  0  0
 26 27  3  0  0  0  0
  6 10  1  0  0  0  0
 12 14  1  0  0  0  0
 23 25  1  0  0  0  0
M  END
>  <MolRegNo>
2278351

>  <m>
=

>  <Value>
13300

>  <Unit>
nM

>  <Type>
IC50

>  <pValue>
4.88

>  <Ligand Efficiency>
0

>  <Binding Efficiency>
0

>  <Surface Efficiency>
0

>  <Assay Index>
1159987

>  <Assay Category>


>  <Assay Organism>
Homo sapiens

>  <Target ID>
17045

>  <Target Name>
Cytochrome P450 3A4

>  <Target Organism>
Homo sapiens

>  <Target Description>
Target is a single protein chain

>  <Sequence Accession>
P08684

>  <Reference>
J Med Chem 61 (21), 9691-9721 (2018)

>  <Pubmed ID>
30289716

>  <DOI>
10.1021/acs.jmedchem.8b01196

$$$$
2293088
Actelion Java MolfileCreator 1.0

 39 42  0  0  0  0  0  0  0  0999 V2000
    0.0000   -0.0000   -0.0000 Cl  0  0  0  0  0  0  0  0  0  0  0  0
    1.2870    0.7578   -0.0000 C   0  0  0  0  0  0  0  0  0  0  0  0
    1.2629    2.2612   -0.0000 C   0  0  0  0  0  0  0  0  0  0  0  0
    2.5619    0.0361   -0.0000 C   0  0  0  0  0  0  0  0  0  0  0  0
   -0.0361    3.0190   -0.0000 C   0  0  0  0  0  0  0  0  0  0  0  0
    2.5499    3.0190   -0.0000 C   0  0  0  0  0  0  0  0  0  0  0  0
    3.8369    0.7938   -0.0000 C   0  0  0  0  0  0  0  0  0  0  0  0
   -1.3471    2.2853   -0.0000 C   0  0  0  0  0  0  0  0  0  0  0  0
   -0.0481    4.5225   -0.0000 C   0  0  0  0  0  0  0  0  0  0  0  0
    3.8249    2.2853   -0.0000 C   0  0  0  0  0  0  0  0  0  0  0  0
    2.5379    4.5345   -0.0000 C   0  0  0  0  0  0  0  0  0  0  0  0
   -2.6461    3.0431   -0.0000 C   0  0  0  0  0  0  0  0  0  0  0  0
   -1.3591    5.2802   -0.0000 C   0  0  0  0  0  0  0  0  0  0  0  0
    2.5259    6.0380   -0.0000 O   0  0  0  0  0  0  0  0  0  0  0  0
    3.8128    5.2923   -0.0000 C   0  0  0  0  0  0  0  0  0  0  0  0
    1.2268    5.2923   -0.0000 C   0  0  0  0  0  0  0  0  0  0  0  0
   -2.6582    4.5465   -0.0000 C   0  0  0  0  0  0  0  0  0  0  0  0
   -3.9572    2.3094   -0.0000 C   0  0  0  0  0  0  0  0  0  0  0  0
    5.0998    4.5586   -0.0000 C   0  0  0  0  0  0  0  0  0  0  0  0
    3.8008    6.7957   -0.0000 C   0  0  0  0  0  0  0  0  0  0  0  0
    1.2148    6.7957   -0.0000 C   0  0  0  0  0  0  0  0  0  0  0  0
   -5.2562    3.0671   -0.0000 C   0  0  0  0  0  0  0  0  0  0  0  0
    6.3868    5.3163   -0.0000 N   0  0  0  0  0  0  0  0  0  0  0  0
    5.0878    7.5535   -0.0000 C   0  0  0  0  0  0  0  0  0  0  0  0
   -0.0962    7.5535   -0.0000 C   0  0  0  0  0  0  0  0  0  0  0  0
    7.6618    4.5826   -0.0000 C   0  0  0  0  0  0  0  0  0  0  0  0
    6.3748    6.8198   -0.0000 C   0  0  0  0  0  0  0  0  0  0  0  0
   -0.1083    9.0570   -0.0000 N   0  0  0  0  0  0  0  0  0  0  0  0
    7.6497    3.0912   -0.0000 O   0  0  0  0  0  0  0  0  0  0  0  0
    8.9487    5.3404   -0.0000 C   0  0  0  0  0  0  0  0  0  0  0  0
   -1.4193    9.8147   -0.0000 C   0  0  0  0  0  0  0  0  0  0  0  0
   10.3801    4.8953   -0.0000 C   0  0  0  0  0  0  0  0  0  0  0  0
    8.9367    6.8799   -0.0000 C   0  0  0  0  0  0  0  0  0  0  0  0
   -1.4313   11.3182   -0.0000 O   0  0  0  0  0  0  0  0  0  0  0  0
   -2.7183    9.0810   -0.0000 O   0  0  0  0  0  0  0  0  0  0  0  0
   11.2821    6.1462   -0.0000 C   0  0  0  0  0  0  0  0  0  0  0  0
   10.4161    7.3490   -0.0000 C   0  0  0  0  0  0  0  0  0  0  0  0
   -4.0293    9.8388   -0.0000 C   0  0  0  0  0  0  0  0  0  0  0  0
   12.7616    6.1583   -0.0000 N   0  0  0  0  0  0  0  0  0  0  0  0
  1  2  1  0  0  0  0
  2  3  2  0  0  0  0
  2  4  1  0  0  0  0
  3  5  1  0  0  0  0
  3  6  1  0  0  0  0
  4  7  2  0  0  0  0
  5  8  2  0  0  0  0
  5  9  1  0  0  0  0
  6 10  2  0  0  0  0
  6 11  1  0  0  0  0
  8 12  1  0  0  0  0
  9 13  2  0  0  0  0
 11 14  1  0  0  0  0
 15 11  1  1  0  0  0
 11 16  1  0  0  0  0
 12 17  2  0  0  0  0
 12 18  1  0  0  0  0
 15 19  1  0  0  0  0
 15 20  1  0  0  0  0
 16 21  1  0  0  0  0
 18 22  1  0  0  0  0
 19 23  1  0  0  0  0
 20 24  1  0  0  0  0
 21 25  1  0  0  0  0
 23 26  1  0  0  0  0
 23 27  1  0  0  0  0
 25 28  1  0  0  0  0
 26 29  2  0  0  0  0
 30 26  1  1  0  0  0
 28 31  1  0  0  0  0
 30 32  1  0  0  0  0
 30 33  1  0  0  0  0
 31 34  2  0  0  0  0
 31 35  1  0  0  0  0
 32 36  1  0  0  0  0
 33 37  1  0  0  0  0
 35 38  1  0  0  0  0
 36 39  1  1  0  0  0
  7 10  1  0  0  0  0
 13 17  1  0  0  0  0
 24 27  1  0  0  0  0
 36 37  1  0  0  0  0
M  END
>  <MolRegNo>
2293088

>  <m>
=

>  <Value>
34

>  <Unit>
nM

>  <Type>
IC50

>  <pValue>
7.47

>  <Ligand Efficiency>
0

>  <Binding Efficiency>
0

>  <Surface Efficiency>
0

>  <Assay Index>
1162297

>  <Assay Category>


>  <Assay Organism>
Homo sapiens

>  <Target ID>
17045

>  <Target Name>
Cytochrome P450 3A4

>  <Target Organism>
Homo sapiens

>  <Target Description>
Target is a single protein chain

>  <Sequence Accession>
P08684

>  <Reference>
Bioorg Med Chem Lett 27 (21), 4838-4843 (2017)

>  <Pubmed ID>
28985999

>  <DOI>
10.1016/j.bmcl.2017.09.046

$$$$
2288177
Actelion Java MolfileCreator 1.0

 40 43  0  0  0  0  0  0  0  0999 V2000
    0.0000   -0.0000   -0.0000 Cl  0  0  0  0  0  0  0  0  0  0  0  0
    1.2860    0.7692   -0.0000 C   0  0  0  0  0  0  0  0  0  0  0  0
    1.2620    2.2715   -0.0000 C   0  0  0  0  0  0  0  0  0  0  0  0
    2.5600    0.0361   -0.0000 C   0  0  0  0  0  0  0  0  0  0  0  0
   -0.0361    3.0287   -0.0000 C   0  0  0  0  0  0  0  0  0  0  0  0
    2.5480    3.0287   -0.0000 C   0  0  0  0  0  0  0  0  0  0  0  0
    3.8460    0.7932   -0.0000 C   0  0  0  0  0  0  0  0  0  0  0  0
   -1.3461    2.2956   -0.0000 C   0  0  0  0  0  0  0  0  0  0  0  0
   -0.0481    4.5431   -0.0000 C   0  0  0  0  0  0  0  0  0  0  0  0
    3.8220    2.2956   -0.0000 C   0  0  0  0  0  0  0  0  0  0  0  0
    2.5360    4.5311   -0.0000 C   0  0  0  0  0  0  0  0  0  0  0  0
   -2.6441    3.0528   -0.0000 C   0  0  0  0  0  0  0  0  0  0  0  0
   -1.3581    5.2882   -0.0000 C   0  0  0  0  0  0  0  0  0  0  0  0
    2.5239    6.0334   -0.0000 O   0  0  0  0  0  0  0  0  0  0  0  0
    3.8099    5.2882   -0.0000 C   0  0  0  0  0  0  0  0  0  0  0  0
    1.2259    5.2882   -0.0000 C   0  0  0  0  0  0  0  0  0  0  0  0
   -2.6561    4.5551   -0.0000 C   0  0  0  0  0  0  0  0  0  0  0  0
   -3.9421    2.3196   -0.0000 C   0  0  0  0  0  0  0  0  0  0  0  0
    5.0959    4.5551   -0.0000 C   0  0  0  0  0  0  0  0  0  0  0  0
    3.7979    6.7906   -0.0000 C   0  0  0  0  0  0  0  0  0  0  0  0
    1.2139    6.7906   -0.0000 C   0  0  0  0  0  0  0  0  0  0  0  0
   -5.2522    3.0768   -0.0000 C   0  0  0  0  0  0  0  0  0  0  0  0
    6.3819    5.3123   -0.0000 N   0  0  0  0  0  0  0  0  0  0  0  0
    5.0839    7.5478   -0.0000 C   0  0  0  0  0  0  0  0  0  0  0  0
   -0.0841    7.5478   -0.0000 C   0  0  0  0  0  0  0  0  0  0  0  0
    7.6680    4.5791   -0.0000 C   0  0  0  0  0  0  0  0  0  0  0  0
    6.3699    6.8146   -0.0000 C   0  0  0  0  0  0  0  0  0  0  0  0
   -0.0961    9.0501   -0.0000 N   0  0  0  0  0  0  0  0  0  0  0  0
    7.6559    3.1008   -0.0000 O   0  0  0  0  0  0  0  0  0  0  0  0
    8.9419    5.3363   -0.0000 C   0  0  0  0  0  0  0  0  0  0  0  0
   -1.4062    9.8073   -0.0000 C   0  0  0  0  0  0  0  0  0  0  0  0
    8.9299    6.8747   -0.0000 C   0  0  0  0  0  0  0  0  0  0  0  0
   10.3842    4.8916   -0.0000 C   0  0  0  0  0  0  0  0  0  0  0  0
   -1.4182   11.3216   -0.0000 O   0  0  0  0  0  0  0  0  0  0  0  0
   -2.7162    9.0741   -0.0000 O   0  0  0  0  0  0  0  0  0  0  0  0
   10.4082    7.3555   -0.0000 C   0  0  0  0  0  0  0  0  0  0  0  0
   11.2736    6.1416   -0.0000 C   0  0  0  0  0  0  0  0  0  0  0  0
   -4.0263    9.8313   -0.0000 C   0  0  0  0  0  0  0  0  0  0  0  0
   10.7808    8.8097   -0.0000 O   0  0  0  0  0  0  0  0  0  0  0  0
   12.7519    6.1536   -0.0000 N   0  0  0  0  0  0  0  0  0  0  0  0
  1  2  1  0  0  0  0
  2  3  2  0  0  0  0
  2  4  1  0  0  0  0
  3  5  1  0  0  0  0
  3  6  1  0  0  0  0
  4  7  2  0  0  0  0
  5  8  2  0  0  0  0
  5  9  1  0  0  0  0
  6 10  2  0  0  0  0
  6 11  1  0  0  0  0
  8 12  1  0  0  0  0
  9 13  2  0  0  0  0
 11 14  1  0  0  0  0
 15 11  1  1  0  0  0
 11 16  1  0  0  0  0
 12 17  2  0  0  0  0
 12 18  1  0  0  0  0
 15 19  1  0  0  0  0
 15 20  1  0  0  0  0
 16 21  1  0  0  0  0
 18 22  1  0  0  0  0
 19 23  1  0  0  0  0
 20 24  1  0  0  0  0
 21 25  1  0  0  0  0
 23 26  1  0  0  0  0
 23 27  1  0  0  0  0
 25 28  1  0  0  0  0
 26 29  2  0  0  0  0
 30 26  1  1  0  0  0
 28 31  1  0  0  0  0
 30 32  1  0  0  0  0
 30 33  1  0  0  0  0
 31 34  2  0  0  0  0
 31 35  1  0  0  0  0
 32 36  1  0  0  0  0
 33 37  1  0  0  0  0
 35 38  1  0  0  0  0
 36 39  1  1  0  0  0
 37 40  1  1  0  0  0
  7 10  1  0  0  0  0
 13 17  1  0  0  0  0
 24 27  1  0  0  0  0
 36 37  1  0  0  0  0
M  END
>  <MolRegNo>
2288177

>  <m>
=

>  <Value>
250

>  <Unit>
nM

>  <Type>
IC50

>  <pValue>
6.6

>  <Ligand Efficiency>
0

>  <Binding Efficiency>
0

>  <Surface Efficiency>
0

>  <Assay Index>
1162297

>  <Assay Category>


>  <Assay Organism>
Homo sapiens

>  <Target ID>
17045

>  <Target Name>
Cytochrome P450 3A4

>  <Target Organism>
Homo sapiens

>  <Target Description>
Target is a single protein chain

>  <Sequence Accession>
P08684

>  <Reference>
Bioorg Med Chem Lett 27 (21), 4838-4843 (2017)

>  <Pubmed ID>
28985999

>  <DOI>
10.1016/j.bmcl.2017.09.046

$$$$
2280575
Actelion Java MolfileCreator 1.0

 37 39  0  0  0  0  0  0  0  0999 V2000
    0.0000   -0.0000   -0.0000 F   0  0  0  0  0  0  0  0  0  0  0  0
    1.2896    0.7690   -0.0000 C   0  0  0  0  0  0  0  0  0  0  0  0
    1.2659    2.2834   -0.0000 C   0  0  0  0  0  0  0  0  0  0  0  0
    2.5673    0.0355   -0.0000 C   0  0  0  0  0  0  0  0  0  0  0  0
   -0.0355    3.0406   -0.0000 C   0  0  0  0  0  0  0  0  0  0  0  0
    2.5673    3.0406   -0.0000 C   0  0  0  0  0  0  0  0  0  0  0  0
    3.8451    0.8045   -0.0000 C   0  0  0  0  0  0  0  0  0  0  0  0
   -1.3487    2.3070   -0.0000 C   0  0  0  0  0  0  0  0  0  0  0  0
   -0.0473    4.5549   -0.0000 C   0  0  0  0  0  0  0  0  0  0  0  0
    3.8451    2.3070   -0.0000 C   0  0  0  0  0  0  0  0  0  0  0  0
    2.5555    4.5549   -0.0000 C   0  0  0  0  0  0  0  0  0  0  0  0
   -2.6501    3.0642   -0.0000 C   0  0  0  0  0  0  0  0  0  0  0  0
   -1.3606    5.3121   -0.0000 C   0  0  0  0  0  0  0  0  0  0  0  0
    2.5437    6.0575   -0.0000 O   0  0  0  0  0  0  0  0  0  0  0  0
    3.8332    5.3121   -0.0000 C   0  0  0  0  0  0  0  0  0  0  0  0
    1.2423    5.3121   -0.0000 C   0  0  0  0  0  0  0  0  0  0  0  0
   -2.6620    4.5668   -0.0000 C   0  0  0  0  0  0  0  0  0  0  0  0
   -3.9634    2.3307   -0.0000 C   0  0  0  0  0  0  0  0  0  0  0  0
    5.1228    4.5668   -0.0000 C   0  0  0  0  0  0  0  0  0  0  0  0
    3.8214    6.8147   -0.0000 C   0  0  0  0  0  0  0  0  0  0  0  0
    1.2304    6.8147   -0.0000 C   0  0  0  0  0  0  0  0  0  0  0  0
   -5.2648    3.0879   -0.0000 C   0  0  0  0  0  0  0  0  0  0  0  0
    6.4124    5.3240   -0.0000 N   0  0  0  0  0  0  0  0  0  0  0  0
    5.1110    7.5718   -0.0000 C   0  0  0  0  0  0  0  0  0  0  0  0
   -0.0828    7.5718   -0.0000 C   0  0  0  0  0  0  0  0  0  0  0  0
    7.6902    4.5786   -0.0000 C   0  0  0  0  0  0  0  0  0  0  0  0
    6.4006    6.8265   -0.0000 C   0  0  0  0  0  0  0  0  0  0  0  0
   -0.0946    9.0744   -0.0000 N   0  0  0  0  0  0  0  0  0  0  0  0
    7.6783    3.0879   -0.0000 O   0  0  0  0  0  0  0  0  0  0  0  0
    8.9797    5.3476   -0.0000 C   0  0  0  0  0  0  0  0  0  0  0  0
   -1.4079    9.8434   -0.0000 C   0  0  0  0  0  0  0  0  0  0  0  0
   10.2693    4.6023   -0.0000 C   0  0  0  0  0  0  0  0  0  0  0  0
   -1.4197   11.3459   -0.0000 O   0  0  0  0  0  0  0  0  0  0  0  0
   -2.7093    9.0980   -0.0000 O   0  0  0  0  0  0  0  0  0  0  0  0
   11.5471    5.3594   -0.0000 C   0  0  0  0  0  0  0  0  0  0  0  0
   -4.0225    9.8671   -0.0000 C   0  0  0  0  0  0  0  0  0  0  0  0
   12.8248    4.6259   -0.0000 N   0  0  0  0  0  0  0  0  0  0  0  0
  1  2  1  0  0  0  0
  2  3  2  0  0  0  0
  2  4  1  0  0  0  0
  3  5  1  0  0  0  0
  3  6  1  0  0  0  0
  4  7  2  0  0  0  0
  5  8  2  0  0  0  0
  5  9  1  0  0  0  0
  6 10  2  0  0  0  0
  6 11  1  0  0  0  0
  8 12  1  0  0  0  0
  9 13  2  0  0  0  0
 11 14  1  0  0  0  0
 15 11  1  1  0  0  0
 11 16  1  0  0  0  0
 12 17  2  0  0  0  0
 12 18  1  0  0  0  0
 15 19  1  0  0  0  0
 15 20  1  0  0  0  0
 16 21  1  0  0  0  0
 18 22  1  0  0  0  0
 19 23  1  0  0  0  0
 20 24  1  0  0  0  0
 21 25  1  0  0  0  0
 23 26  1  0  0  0  0
 23 27  1  0  0  0  0
 25 28  1  0  0  0  0
 26 29  2  0  0  0  0
 26 30  1  0  0  0  0
 28 31  1  0  0  0  0
 30 32  1  0  0  0  0
 31 33  2  0  0  0  0
 31 34  1  0  0  0  0
 32 35  1  0  0  0  0
 34 36  1  0  0  0  0
 35 37  1  0  0  0  0
  7 10  1  0  0  0  0
 13 17  1  0  0  0  0
 24 27  1  0  0  0  0
M  END
>  <MolRegNo>
2280575

>  <m>
=

>  <Value>
240

>  <Unit>
nM

>  <Type>
IC50

>  <pValue>
6.62

>  <Ligand Efficiency>
0

>  <Binding Efficiency>
0

>  <Surface Efficiency>
0

>  <Assay Index>
1162297

>  <Assay Category>


>  <Assay Organism>
Homo sapiens

>  <Target ID>
17045

>  <Target Name>
Cytochrome P450 3A4

>  <Target Organism>
Homo sapiens

>  <Target Description>
Target is a single protein chain

>  <Sequence Accession>
P08684

>  <Reference>
Bioorg Med Chem Lett 27 (21), 4838-4843 (2017)

>  <Pubmed ID>
28985999

>  <DOI>
10.1016/j.bmcl.2017.09.046

$$$$
2294564
Actelion Java MolfileCreator 1.0

 38 40  0  0  0  0  0  0  0  0999 V2000
    0.0000   -0.0000   -0.0000 F   0  0  0  0  0  0  0  0  0  0  0  0
    1.2906    0.7696   -0.0000 C   0  0  0  0  0  0  0  0  0  0  0  0
    1.2669    2.2852   -0.0000 C   0  0  0  0  0  0  0  0  0  0  0  0
    2.5694    0.0355   -0.0000 C   0  0  0  0  0  0  0  0  0  0  0  0
   -0.0355    3.0430   -0.0000 C   0  0  0  0  0  0  0  0  0  0  0  0
    2.5575    3.0430   -0.0000 C   0  0  0  0  0  0  0  0  0  0  0  0
    3.8481    0.8051   -0.0000 C   0  0  0  0  0  0  0  0  0  0  0  0
   -1.3498    2.3089   -0.0000 C   0  0  0  0  0  0  0  0  0  0  0  0
   -0.0474    4.5585   -0.0000 C   0  0  0  0  0  0  0  0  0  0  0  0
    3.8363    2.3089   -0.0000 C   0  0  0  0  0  0  0  0  0  0  0  0
    2.5457    4.5585   -0.0000 C   0  0  0  0  0  0  0  0  0  0  0  0
   -2.6522    3.0667   -0.0000 C   0  0  0  0  0  0  0  0  0  0  0  0
   -1.3616    5.3163   -0.0000 C   0  0  0  0  0  0  0  0  0  0  0  0
    2.5338    6.0623   -0.0000 O   0  0  0  0  0  0  0  0  0  0  0  0
    3.8244    5.3163   -0.0000 C   0  0  0  0  0  0  0  0  0  0  0  0
    1.2314    5.3163   -0.0000 C   0  0  0  0  0  0  0  0  0  0  0  0
   -2.6641    4.5704   -0.0000 C   0  0  0  0  0  0  0  0  0  0  0  0
   -3.9665    2.3326   -0.0000 C   0  0  0  0  0  0  0  0  0  0  0  0
    5.1150    4.5704   -0.0000 C   0  0  0  0  0  0  0  0  0  0  0  0
    3.8126    6.8201   -0.0000 C   0  0  0  0  0  0  0  0  0  0  0  0
    1.2196    6.8201   -0.0000 C   0  0  0  0  0  0  0  0  0  0  0  0
   -5.2690    3.0903   -0.0000 C   0  0  0  0  0  0  0  0  0  0  0  0
    6.4056    5.3282   -0.0000 N   0  0  0  0  0  0  0  0  0  0  0  0
    5.1032    7.5778   -0.0000 C   0  0  0  0  0  0  0  0  0  0  0  0
   -0.0947    7.5778   -0.0000 C   0  0  0  0  0  0  0  0  0  0  0  0
    7.6844    4.5822   -0.0000 C   0  0  0  0  0  0  0  0  0  0  0  0
    6.3938    6.8319   -0.0000 C   0  0  0  0  0  0  0  0  0  0  0  0
   -0.1066    9.0816   -0.0000 N   0  0  0  0  0  0  0  0  0  0  0  0
    7.6726    3.0903   -0.0000 O   0  0  0  0  0  0  0  0  0  0  0  0
    8.9750    5.3518   -0.0000 C   0  0  0  0  0  0  0  0  0  0  0  0
   -1.4208    9.8512   -0.0000 C   0  0  0  0  0  0  0  0  0  0  0  0
   10.2538    4.6177   -0.0000 C   0  0  0  0  0  0  0  0  0  0  0  0
   -1.4327   11.3549   -0.0000 O   0  0  0  0  0  0  0  0  0  0  0  0
   -2.7233    9.1052   -0.0000 O   0  0  0  0  0  0  0  0  0  0  0  0
   10.2419    3.1377   -0.0000 O   0  0  0  0  0  0  0  0  0  0  0  0
   11.5325    5.3755   -0.0000 C   0  0  0  0  0  0  0  0  0  0  0  0
   -4.0376    9.8749   -0.0000 C   0  0  0  0  0  0  0  0  0  0  0  0
   12.8113    4.6414   -0.0000 N   0  0  0  0  0  0  0  0  0  0  0  0
  1  2  1  0  0  0  0
  2  3  2  0  0  0  0
  2  4  1  0  0  0  0
  3  5  1  0  0  0  0
  3  6  1  0  0  0  0
  4  7  2  0  0  0  0
  5  8  2  0  0  0  0
  5  9  1  0  0  0  0
  6 10  2  0  0  0  0
  6 11  1  0  0  0  0
  8 12  1  0  0  0  0
  9 13  2  0  0  0  0
 11 14  1  0  0  0  0
 15 11  1  1  0  0  0
 11 16  1  0  0  0  0
 12 17  2  0  0  0  0
 12 18  1  0  0  0  0
 15 19  1  0  0  0  0
 15 20  1  0  0  0  0
 16 21  1  0  0  0  0
 18 22  1  0  0  0  0
 19 23  1  0  0  0  0
 20 24  1  0  0  0  0
 21 25  1  0  0  0  0
 23 26  1  0  0  0  0
 23 27  1  0  0  0  0
 25 28  1  0  0  0  0
 26 29  2  0  0  0  0
 26 30  1  0  0  0  0
 28 31  1  0  0  0  0
 30 32  1  0  0  0  0
 31 33  2  0  0  0  0
 31 34  1  0  0  0  0
 32 35  1  0  0  0  0
 32 36  1  0  0  0  0
 34 37  1  0  0  0  0
 36 38  1  0  0  0  0
  7 10  1  0  0  0  0
 13 17  1  0  0  0  0
 24 27  1  0  0  0  0
M  END
>  <MolRegNo>
2294564

>  <m>
=

>  <Value>
440

>  <Unit>
nM

>  <Type>
IC50

>  <pValue>
6.36

>  <Ligand Efficiency>
0

>  <Binding Efficiency>
0

>  <Surface Efficiency>
0

>  <Assay Index>
1162297

>  <Assay Category>


>  <Assay Organism>
Homo sapiens

>  <Target ID>
17045

>  <Target Name>
Cytochrome P450 3A4

>  <Target Organism>
Homo sapiens

>  <Target Description>
Target is a single protein chain

>  <Sequence Accession>
P08684

>  <Reference>
Bioorg Med Chem Lett 27 (21), 4838-4843 (2017)

>  <Pubmed ID>
28985999

>  <DOI>
10.1016/j.bmcl.2017.09.046

$$$$
2285799
Actelion Java MolfileCreator 1.0

 38 40  0  0  0  0  0  0  0  0999 V2000
    0.0000   -0.0000   -0.0000 F   0  0  0  0  0  0  0  0  0  0  0  0
    1.2916    0.7584   -0.0000 C   0  0  0  0  0  0  0  0  0  0  0  0
    1.2679    2.2751   -0.0000 C   0  0  0  0  0  0  0  0  0  0  0  0
    2.5714    0.0237   -0.0000 C   0  0  0  0  0  0  0  0  0  0  0  0
   -0.0355    3.0335   -0.0000 C   0  0  0  0  0  0  0  0  0  0  0  0
    2.5595    3.0335   -0.0000 C   0  0  0  0  0  0  0  0  0  0  0  0
    3.8511    0.7939   -0.0000 C   0  0  0  0  0  0  0  0  0  0  0  0
   -1.3509    2.2988   -0.0000 C   0  0  0  0  0  0  0  0  0  0  0  0
   -0.0474    4.5384   -0.0000 C   0  0  0  0  0  0  0  0  0  0  0  0
    3.8393    2.2988   -0.0000 C   0  0  0  0  0  0  0  0  0  0  0  0
    2.5477    4.5503   -0.0000 C   0  0  0  0  0  0  0  0  0  0  0  0
   -2.6543    3.0572   -0.0000 C   0  0  0  0  0  0  0  0  0  0  0  0
   -1.3627    5.2968   -0.0000 C   0  0  0  0  0  0  0  0  0  0  0  0
    2.5358    6.0552   -0.0000 O   0  0  0  0  0  0  0  0  0  0  0  0
    3.8274    5.3086   -0.0000 C   0  0  0  0  0  0  0  0  0  0  0  0
    1.2324    5.3086   -0.0000 C   0  0  0  0  0  0  0  0  0  0  0  0
   -2.6662    4.5621   -0.0000 C   0  0  0  0  0  0  0  0  0  0  0  0
   -3.9696    2.3225   -0.0000 C   0  0  0  0  0  0  0  0  0  0  0  0
    5.1190    4.5740   -0.0000 C   0  0  0  0  0  0  0  0  0  0  0  0
    3.8156    6.8135   -0.0000 C   0  0  0  0  0  0  0  0  0  0  0  0
    1.2205    6.8135   -0.0000 C   0  0  0  0  0  0  0  0  0  0  0  0
   -5.2731    3.0809   -0.0000 C   0  0  0  0  0  0  0  0  0  0  0  0
    6.4106    5.3323   -0.0000 N   0  0  0  0  0  0  0  0  0  0  0  0
    5.1072    7.5719   -0.0000 C   0  0  0  0  0  0  0  0  0  0  0  0
   -0.0948    7.5719   -0.0000 C   0  0  0  0  0  0  0  0  0  0  0  0
    7.6904    4.5858   -0.0000 C   0  0  0  0  0  0  0  0  0  0  0  0
    6.3988    6.8372   -0.0000 C   0  0  0  0  0  0  0  0  0  0  0  0
   -0.1066    9.0768   -0.0000 N   0  0  0  0  0  0  0  0  0  0  0  0
    7.6786    3.0928   -0.0000 O   0  0  0  0  0  0  0  0  0  0  0  0
    8.9820    5.3560   -0.0000 C   0  0  0  0  0  0  0  0  0  0  0  0
   -1.4220    9.8352   -0.0000 C   0  0  0  0  0  0  0  0  0  0  0  0
   10.2618    4.6214   -0.0000 C   0  0  0  0  0  0  0  0  0  0  0  0
   -1.4338   11.3401   -0.0000 O   0  0  0  0  0  0  0  0  0  0  0  0
   -2.7254    9.1005   -0.0000 O   0  0  0  0  0  0  0  0  0  0  0  0
   11.5415    5.3797   -0.0000 C   0  0  0  0  0  0  0  0  0  0  0  0
   -4.0407    9.8589   -0.0000 C   0  0  0  0  0  0  0  0  0  0  0  0
   12.8213    4.6451   -0.0000 N   0  0  0  0  0  0  0  0  0  0  0  0
   14.1011    5.4034   -0.0000 C   0  0  0  0  0  0  0  0  0  0  0  0
  1  2  1  0  0  0  0
  2  3  2  0  0  0  0
  2  4  1  0  0  0  0
  3  5  1  0  0  0  0
  3  6  1  0  0  0  0
  4  7  2  0  0  0  0
  5  8  2  0  0  0  0
  5  9  1  0  0  0  0
  6 10  2  0  0  0  0
  6 11  1  0  0  0  0
  8 12  1  0  0  0  0
  9 13  2  0  0  0  0
 11 14  1  0  0  0  0
 15 11  1  1  0  0  0
 11 16  1  0  0  0  0
 12 17  2  0  0  0  0
 12 18  1  0  0  0  0
 15 19  1  0  0  0  0
 15 20  1  0  0  0  0
 16 21  1  0  0  0  0
 18 22  1  0  0  0  0
 19 23  1  0  0  0  0
 20 24  1  0  0  0  0
 21 25  1  0  0  0  0
 23 26  1  0  0  0  0
 23 27  1  0  0  0  0
 25 28  1  0  0  0  0
 26 29  2  0  0  0  0
 26 30  1  0  0  0  0
 28 31  1  0  0  0  0
 30 32  1  0  0  0  0
 31 33  2  0  0  0  0
 31 34  1  0  0  0  0
 32 35  1  0  0  0  0
 34 36  1  0  0  0  0
 35 37  1  0  0  0  0
 37 38  1  0  0  0  0
  7 10  1  0  0  0  0
 13 17  1  0  0  0  0
 24 27  1  0  0  0  0
M  END
>  <MolRegNo>
2285799

>  <m>
=

>  <Value>
560

>  <Unit>
nM

>  <Type>
IC50

>  <pValue>
6.25

>  <Ligand Efficiency>
0

>  <Binding Efficiency>
0

>  <Surface Efficiency>
0

>  <Assay Index>
1162297

>  <Assay Category>


>  <Assay Organism>
Homo sapiens

>  <Target ID>
17045

>  <Target Name>
Cytochrome P450 3A4

>  <Target Organism>
Homo sapiens

>  <Target Description>
Target is a single protein chain

>  <Sequence Accession>
P08684

>  <Reference>
Bioorg Med Chem Lett 27 (21), 4838-4843 (2017)

>  <Pubmed ID>
28985999

>  <DOI>
10.1016/j.bmcl.2017.09.046

$$$$
2282752
Actelion Java MolfileCreator 1.0

 39 42  0  0  0  0  0  0  0  0999 V2000
    0.0000   -0.0000   -0.0000 F   0  0  0  0  0  0  0  0  0  0  0  0
    1.2870    0.7578   -0.0000 C   0  0  0  0  0  0  0  0  0  0  0  0
    1.2629    2.2612   -0.0000 C   0  0  0  0  0  0  0  0  0  0  0  0
    2.5619    0.0361   -0.0000 C   0  0  0  0  0  0  0  0  0  0  0  0
   -0.0361    3.0190   -0.0000 C   0  0  0  0  0  0  0  0  0  0  0  0
    2.5499    3.0190   -0.0000 C   0  0  0  0  0  0  0  0  0  0  0  0
    3.8369    0.7938   -0.0000 C   0  0  0  0  0  0  0  0  0  0  0  0
   -1.3471    2.2853   -0.0000 C   0  0  0  0  0  0  0  0  0  0  0  0
   -0.0481    4.5225   -0.0000 C   0  0  0  0  0  0  0  0  0  0  0  0
    3.8249    2.2853   -0.0000 C   0  0  0  0  0  0  0  0  0  0  0  0
    2.5379    4.5345   -0.0000 C   0  0  0  0  0  0  0  0  0  0  0  0
   -2.6461    3.0431   -0.0000 C   0  0  0  0  0  0  0  0  0  0  0  0
   -1.3591    5.2802   -0.0000 C   0  0  0  0  0  0  0  0  0  0  0  0
    2.5259    6.0380   -0.0000 O   0  0  0  0  0  0  0  0  0  0  0  0
    3.8128    5.2923   -0.0000 C   0  0  0  0  0  0  0  0  0  0  0  0
    1.2268    5.2923   -0.0000 C   0  0  0  0  0  0  0  0  0  0  0  0
   -2.6582    4.5465   -0.0000 C   0  0  0  0  0  0  0  0  0  0  0  0
   -3.9572    2.3094   -0.0000 C   0  0  0  0  0  0  0  0  0  0  0  0
    5.0998    4.5586   -0.0000 C   0  0  0  0  0  0  0  0  0  0  0  0
    3.8008    6.7957   -0.0000 C   0  0  0  0  0  0  0  0  0  0  0  0
    1.2148    6.7957   -0.0000 C   0  0  0  0  0  0  0  0  0  0  0  0
   -5.2562    3.0671   -0.0000 C   0  0  0  0  0  0  0  0  0  0  0  0
    6.3868    5.3163   -0.0000 N   0  0  0  0  0  0  0  0  0  0  0  0
    5.0878    7.5535   -0.0000 C   0  0  0  0  0  0  0  0  0  0  0  0
   -0.0962    7.5535   -0.0000 C   0  0  0  0  0  0  0  0  0  0  0  0
    7.6618    4.5826   -0.0000 C   0  0  0  0  0  0  0  0  0  0  0  0
    6.3748    6.8198   -0.0000 C   0  0  0  0  0  0  0  0  0  0  0  0
   -0.1083    9.0570   -0.0000 N   0  0  0  0  0  0  0  0  0  0  0  0
    7.6497    3.0912   -0.0000 O   0  0  0  0  0  0  0  0  0  0  0  0
    8.9487    5.3404   -0.0000 C   0  0  0  0  0  0  0  0  0  0  0  0
   -1.4193    9.8147   -0.0000 C   0  0  0  0  0  0  0  0  0  0  0  0
   10.3801    4.8953   -0.0000 C   0  0  0  0  0  0  0  0  0  0  0  0
    8.9367    6.8799   -0.0000 C   0  0  0  0  0  0  0  0  0  0  0  0
   -1.4313   11.3182   -0.0000 O   0  0  0  0  0  0  0  0  0  0  0  0
   -2.7183    9.0810   -0.0000 O   0  0  0  0  0  0  0  0  0  0  0  0
   11.2821    6.1462   -0.0000 C   0  0  0  0  0  0  0  0  0  0  0  0
   10.4161    7.3490   -0.0000 C   0  0  0  0  0  0  0  0  0  0  0  0
   -4.0293    9.8388   -0.0000 C   0  0  0  0  0  0  0  0  0  0  0  0
   12.7616    6.1583   -0.0000 N   0  0  0  0  0  0  0  0  0  0  0  0
  1  2  1  0  0  0  0
  2  3  2  0  0  0  0
  2  4  1  0  0  0  0
  3  5  1  0  0  0  0
  3  6  1  0  0  0  0
  4  7  2  0  0  0  0
  5  8  2  0  0  0  0
  5  9  1  0  0  0  0
  6 10  2  0  0  0  0
  6 11  1  0  0  0  0
  8 12  1  0  0  0  0
  9 13  2  0  0  0  0
 11 14  1  0  0  0  0
 15 11  1  1  0  0  0
 11 16  1  0  0  0  0
 12 17  2  0  0  0  0
 12 18  1  0  0  0  0
 15 19  1  0  0  0  0
 15 20  1  0  0  0  0
 16 21  1  0  0  0  0
 18 22  1  0  0  0  0
 19 23  1  0  0  0  0
 20 24  1  0  0  0  0
 21 25  1  0  0  0  0
 23 26  1  0  0  0  0
 23 27  1  0  0  0  0
 25 28  1  0  0  0  0
 26 29  2  0  0  0  0
 30 26  1  1  0  0  0
 28 31  1  0  0  0  0
 30 32  1  0  0  0  0
 30 33  1  0  0  0  0
 31 34  2  0  0  0  0
 31 35  1  0  0  0  0
 32 36  1  0  0  0  0
 33 37  1  0  0  0  0
 35 38  1  0  0  0  0
 36 39  1  1  0  0  0
  7 10  1  0  0  0  0
 13 17  1  0  0  0  0
 24 27  1  0  0  0  0
 36 37  1  0  0  0  0
M  END
>  <MolRegNo>
2282752

>  <m>
=

>  <Value>
90

>  <Unit>
nM

>  <Type>
IC50

>  <pValue>
7.05

>  <Ligand Efficiency>
0

>  <Binding Efficiency>
0

>  <Surface Efficiency>
0

>  <Assay Index>
1162297

>  <Assay Category>


>  <Assay Organism>
Homo sapiens

>  <Target ID>
17045

>  <Target Name>
Cytochrome P450 3A4

>  <Target Organism>
Homo sapiens

>  <Target Description>
Target is a single protein chain

>  <Sequence Accession>
P08684

>  <Reference>
Bioorg Med Chem Lett 27 (21), 4838-4843 (2017)

>  <Pubmed ID>
28985999

>  <DOI>
10.1016/j.bmcl.2017.09.046

$$$$
2285824
Actelion Java MolfileCreator 1.0

 40 43  0  0  0  0  0  0  0  0999 V2000
    0.0000   -0.0000   -0.0000 Cl  0  0  0  0  0  0  0  0  0  0  0  0
    1.2869    0.7577   -0.0000 C   0  0  0  0  0  0  0  0  0  0  0  0
    1.2629    2.2612   -0.0000 C   0  0  0  0  0  0  0  0  0  0  0  0
    2.5618    0.0361   -0.0000 C   0  0  0  0  0  0  0  0  0  0  0  0
   -0.0361    3.0189   -0.0000 C   0  0  0  0  0  0  0  0  0  0  0  0
    2.5498    3.0189   -0.0000 C   0  0  0  0  0  0  0  0  0  0  0  0
    3.8368    0.7938   -0.0000 C   0  0  0  0  0  0  0  0  0  0  0  0
   -1.3471    2.2852   -0.0000 C   0  0  0  0  0  0  0  0  0  0  0  0
   -0.0481    4.5223   -0.0000 C   0  0  0  0  0  0  0  0  0  0  0  0
    3.8247    2.2852   -0.0000 C   0  0  0  0  0  0  0  0  0  0  0  0
    2.5378    4.5343   -0.0000 C   0  0  0  0  0  0  0  0  0  0  0  0
   -2.6460    3.0429   -0.0000 C   0  0  0  0  0  0  0  0  0  0  0  0
   -1.3591    5.2800   -0.0000 C   0  0  0  0  0  0  0  0  0  0  0  0
    2.5258    6.0378   -0.0000 O   0  0  0  0  0  0  0  0  0  0  0  0
    3.8127    5.2921   -0.0000 C   0  0  0  0  0  0  0  0  0  0  0  0
    1.2268    5.2921   -0.0000 C   0  0  0  0  0  0  0  0  0  0  0  0
   -2.6581    4.5464   -0.0000 C   0  0  0  0  0  0  0  0  0  0  0  0
   -3.9570    2.3093   -0.0000 C   0  0  0  0  0  0  0  0  0  0  0  0
    5.0996    4.5584   -0.0000 C   0  0  0  0  0  0  0  0  0  0  0  0
    3.8007    6.7955   -0.0000 C   0  0  0  0  0  0  0  0  0  0  0  0
    1.2148    6.7955   -0.0000 C   0  0  0  0  0  0  0  0  0  0  0  0
   -5.2560    3.0670   -0.0000 C   0  0  0  0  0  0  0  0  0  0  0  0
    6.3866    5.3161   -0.0000 N   0  0  0  0  0  0  0  0  0  0  0  0
    5.0876    7.5532   -0.0000 C   0  0  0  0  0  0  0  0  0  0  0  0
   -0.0962    7.5532   -0.0000 C   0  0  0  0  0  0  0  0  0  0  0  0
    7.6615    4.5825   -0.0000 C   0  0  0  0  0  0  0  0  0  0  0  0
    6.3745    6.8196   -0.0000 C   0  0  0  0  0  0  0  0  0  0  0  0
   -0.1082    9.0567   -0.0000 N   0  0  0  0  0  0  0  0  0  0  0  0
    7.6494    3.0910   -0.0000 O   0  0  0  0  0  0  0  0  0  0  0  0
    8.9484    5.3402   -0.0000 C   0  0  0  0  0  0  0  0  0  0  0  0
   -1.4192    9.8144   -0.0000 C   0  0  0  0  0  0  0  0  0  0  0  0
   10.3797    4.8952   -0.0000 C   0  0  0  0  0  0  0  0  0  0  0  0
    8.9364    6.8797   -0.0000 C   0  0  0  0  0  0  0  0  0  0  0  0
   -1.4313   11.3178   -0.0000 O   0  0  0  0  0  0  0  0  0  0  0  0
   -2.7182    9.0807   -0.0000 O   0  0  0  0  0  0  0  0  0  0  0  0
   11.2817    6.1460   -0.0000 C   0  0  0  0  0  0  0  0  0  0  0  0
   10.4158    7.3488   -0.0000 C   0  0  0  0  0  0  0  0  0  0  0  0
   -4.0292    9.8384   -0.0000 C   0  0  0  0  0  0  0  0  0  0  0  0
   12.7611    6.1580   -0.0000 N   0  0  0  0  0  0  0  0  0  0  0  0
   13.4948    7.4690   -0.0000 C   0  0  0  0  0  0  0  0  0  0  0  0
  1  2  1  0  0  0  0
  2  3  2  0  0  0  0
  2  4  1  0  0  0  0
  3  5  1  0  0  0  0
  3  6  1  0  0  0  0
  4  7  2  0  0  0  0
  5  8  2  0  0  0  0
  5  9  1  0  0  0  0
  6 10  2  0  0  0  0
  6 11  1  0  0  0  0
  8 12  1  0  0  0  0
  9 13  2  0  0  0  0
 11 14  1  0  0  0  0
 15 11  1  1  0  0  0
 11 16  1  0  0  0  0
 12 17  2  0  0  0  0
 12 18  1  0  0  0  0
 15 19  1  0  0  0  0
 15 20  1  0  0  0  0
 16 21  1  0  0  0  0
 18 22  1  0  0  0  0
 19 23  1  0  0  0  0
 20 24  1  0  0  0  0
 21 25  1  0  0  0  0
 23 26  1  0  0  0  0
 23 27  1  0  0  0  0
 25 28  1  0  0  0  0
 26 29  2  0  0  0  0
 30 26  1  1  0  0  0
 28 31  1  0  0  0  0
 30 32  1  0  0  0  0
 30 33  1  0  0  0  0
 31 34  2  0  0  0  0
 31 35  1  0  0  0  0
 32 36  1  0  0  0  0
 33 37  1  0  0  0  0
 35 38  1  0  0  0  0
 36 39  1  1  0  0  0
 39 40  1  0  0  0  0
  7 10  1  0  0  0  0
 13 17  1  0  0  0  0
 24 27  1  0  0  0  0
 36 37  1  0  0  0  0
M  END
>  <MolRegNo>
2285824

>  <m>
=

>  <Value>
49

>  <Unit>
nM

>  <Type>
IC50

>  <pValue>
7.31

>  <Ligand Efficiency>
0

>  <Binding Efficiency>
0

>  <Surface Efficiency>
0

>  <Assay Index>
1162297

>  <Assay Category>


>  <Assay Organism>
Homo sapiens

>  <Target ID>
17045

>  <Target Name>
Cytochrome P450 3A4

>  <Target Organism>
Homo sapiens

>  <Target Description>
Target is a single protein chain

>  <Sequence Accession>
P08684

>  <Reference>
Bioorg Med Chem Lett 27 (21), 4838-4843 (2017)

>  <Pubmed ID>
28985999

>  <DOI>
10.1016/j.bmcl.2017.09.046

$$$$
2289539
Actelion Java MolfileCreator 1.0

 38 40  0  0  0  0  0  0  0  0999 V2000
    0.0000   -0.0000   -0.0000 Cl  0  0  0  0  0  0  0  0  0  0  0  0
    1.2909    0.7580   -0.0000 C   0  0  0  0  0  0  0  0  0  0  0  0
    1.2672    2.2739   -0.0000 C   0  0  0  0  0  0  0  0  0  0  0  0
    2.5700    0.0237   -0.0000 C   0  0  0  0  0  0  0  0  0  0  0  0
   -0.0355    3.0319   -0.0000 C   0  0  0  0  0  0  0  0  0  0  0  0
    2.5582    3.0319   -0.0000 C   0  0  0  0  0  0  0  0  0  0  0  0
    3.8491    0.7935   -0.0000 C   0  0  0  0  0  0  0  0  0  0  0  0
   -1.3502    2.2976   -0.0000 C   0  0  0  0  0  0  0  0  0  0  0  0
   -0.0474    4.5479   -0.0000 C   0  0  0  0  0  0  0  0  0  0  0  0
    3.8373    2.2976   -0.0000 C   0  0  0  0  0  0  0  0  0  0  0  0
    2.5463    4.5479   -0.0000 C   0  0  0  0  0  0  0  0  0  0  0  0
   -2.6529    3.0556   -0.0000 C   0  0  0  0  0  0  0  0  0  0  0  0
   -1.3620    5.3059   -0.0000 C   0  0  0  0  0  0  0  0  0  0  0  0
    2.5345    6.0520   -0.0000 O   0  0  0  0  0  0  0  0  0  0  0  0
    3.8254    5.3177   -0.0000 C   0  0  0  0  0  0  0  0  0  0  0  0
    1.2317    5.3177   -0.0000 C   0  0  0  0  0  0  0  0  0  0  0  0
   -2.6648    4.5597   -0.0000 C   0  0  0  0  0  0  0  0  0  0  0  0
   -3.9676    2.3213   -0.0000 C   0  0  0  0  0  0  0  0  0  0  0  0
    5.1164    4.5716   -0.0000 C   0  0  0  0  0  0  0  0  0  0  0  0
    3.8136    6.8218   -0.0000 C   0  0  0  0  0  0  0  0  0  0  0  0
    1.2199    6.8218   -0.0000 C   0  0  0  0  0  0  0  0  0  0  0  0
   -5.2703    3.0793   -0.0000 C   0  0  0  0  0  0  0  0  0  0  0  0
    6.4073    5.3414   -0.0000 N   0  0  0  0  0  0  0  0  0  0  0  0
    5.1045    7.5798   -0.0000 C   0  0  0  0  0  0  0  0  0  0  0  0
   -0.0947    7.5798   -0.0000 C   0  0  0  0  0  0  0  0  0  0  0  0
    7.6864    4.5953   -0.0000 C   0  0  0  0  0  0  0  0  0  0  0  0
    6.3955    6.8455   -0.0000 C   0  0  0  0  0  0  0  0  0  0  0  0
   -0.1066    9.0839   -0.0000 N   0  0  0  0  0  0  0  0  0  0  0  0
    7.6746    3.1030   -0.0000 O   0  0  0  0  0  0  0  0  0  0  0  0
    8.9655    5.3532   -0.0000 C   0  0  0  0  0  0  0  0  0  0  0  0
   -1.4212    9.8419   -0.0000 C   0  0  0  0  0  0  0  0  0  0  0  0
   10.2446    4.6189   -0.0000 C   0  0  0  0  0  0  0  0  0  0  0  0
   -1.4331   11.3460   -0.0000 O   0  0  0  0  0  0  0  0  0  0  0  0
   -2.7240    9.0958   -0.0000 O   0  0  0  0  0  0  0  0  0  0  0  0
   11.5237    5.3769   -0.0000 C   0  0  0  0  0  0  0  0  0  0  0  0
   -4.0386    9.8538   -0.0000 C   0  0  0  0  0  0  0  0  0  0  0  0
   12.8028    4.6426   -0.0000 N   0  0  0  0  0  0  0  0  0  0  0  0
   14.0819    5.4006   -0.0000 C   0  0  0  0  0  0  0  0  0  0  0  0
  1  2  1  0  0  0  0
  2  3  2  0  0  0  0
  2  4  1  0  0  0  0
  3  5  1  0  0  0  0
  3  6  1  0  0  0  0
  4  7  2  0  0  0  0
  5  8  2  0  0  0  0
  5  9  1  0  0  0  0
  6 10  2  0  0  0  0
  6 11  1  0  0  0  0
  8 12  1  0  0  0  0
  9 13  2  0  0  0  0
 11 14  1  0  0  0  0
 15 11  1  1  0  0  0
 11 16  1  0  0  0  0
 12 17  2  0  0  0  0
 12 18  1  0  0  0  0
 15 19  1  0  0  0  0
 15 20  1  0  0  0  0
 16 21  1  0  0  0  0
 18 22  1  0  0  0  0
 19 23  1  0  0  0  0
 20 24  1  0  0  0  0
 21 25  1  0  0  0  0
 23 26  1  0  0  0  0
 23 27  1  0  0  0  0
 25 28  1  0  0  0  0
 26 29  2  0  0  0  0
 26 30  1  0  0  0  0
 28 31  1  0  0  0  0
 30 32  1  0  0  0  0
 31 33  2  0  0  0  0
 31 34  1  0  0  0  0
 32 35  1  0  0  0  0
 34 36  1  0  0  0  0
 35 37  1  0  0  0  0
 37 38  1  0  0  0  0
  7 10  1  0  0  0  0
 13 17  1  0  0  0  0
 24 27  1  0  0  0  0
M  END
>  <MolRegNo>
2289539

>  <m>
=

>  <Value>
140

>  <Unit>
nM

>  <Type>
IC50

>  <pValue>
6.85

>  <Ligand Efficiency>
0

>  <Binding Efficiency>
0

>  <Surface Efficiency>
0

>  <Assay Index>
1162297

>  <Assay Category>


>  <Assay Organism>
Homo sapiens

>  <Target ID>
17045

>  <Target Name>
Cytochrome P450 3A4

>  <Target Organism>
Homo sapiens

>  <Target Description>
Target is a single protein chain

>  <Sequence Accession>
P08684

>  <Reference>
Bioorg Med Chem Lett 27 (21), 4838-4843 (2017)

>  <Pubmed ID>
28985999

>  <DOI>
10.1016/j.bmcl.2017.09.046

$$$$
2291010
Actelion Java MolfileCreator 1.0

 39 41  0  0  0  0  0  0  0  0999 V2000
    0.0000   -0.0000   -0.0000 F   0  0  0  0  0  0  0  0  0  0  0  0
    1.2923    0.7588   -0.0000 C   0  0  0  0  0  0  0  0  0  0  0  0
    1.2686    2.2764   -0.0000 C   0  0  0  0  0  0  0  0  0  0  0  0
    2.5728    0.0237   -0.0000 C   0  0  0  0  0  0  0  0  0  0  0  0
   -0.0356    3.0352   -0.0000 C   0  0  0  0  0  0  0  0  0  0  0  0
    2.5610    3.0352   -0.0000 C   0  0  0  0  0  0  0  0  0  0  0  0
    3.8533    0.7944   -0.0000 C   0  0  0  0  0  0  0  0  0  0  0  0
   -1.3516    2.3001   -0.0000 C   0  0  0  0  0  0  0  0  0  0  0  0
   -0.0474    4.5410   -0.0000 C   0  0  0  0  0  0  0  0  0  0  0  0
    3.8415    2.3001   -0.0000 C   0  0  0  0  0  0  0  0  0  0  0  0
    2.5491    4.5528   -0.0000 C   0  0  0  0  0  0  0  0  0  0  0  0
   -2.6558    3.0589   -0.0000 C   0  0  0  0  0  0  0  0  0  0  0  0
   -1.3635    5.2998   -0.0000 C   0  0  0  0  0  0  0  0  0  0  0  0
    2.5373    6.0586   -0.0000 O   0  0  0  0  0  0  0  0  0  0  0  0
    3.8296    5.3117   -0.0000 C   0  0  0  0  0  0  0  0  0  0  0  0
    1.2331    5.3117   -0.0000 C   0  0  0  0  0  0  0  0  0  0  0  0
   -2.6677    4.5647   -0.0000 C   0  0  0  0  0  0  0  0  0  0  0  0
   -3.9719    2.3238   -0.0000 C   0  0  0  0  0  0  0  0  0  0  0  0
    5.1220    4.5766   -0.0000 C   0  0  0  0  0  0  0  0  0  0  0  0
    3.8178    6.8174   -0.0000 C   0  0  0  0  0  0  0  0  0  0  0  0
    1.2212    6.8174   -0.0000 C   0  0  0  0  0  0  0  0  0  0  0  0
   -5.2761    3.0827   -0.0000 C   0  0  0  0  0  0  0  0  0  0  0  0
    6.4143    5.3354   -0.0000 N   0  0  0  0  0  0  0  0  0  0  0  0
    5.1101    7.5762   -0.0000 C   0  0  0  0  0  0  0  0  0  0  0  0
   -0.0949    7.5762   -0.0000 C   0  0  0  0  0  0  0  0  0  0  0  0
    7.6948    4.5884   -0.0000 C   0  0  0  0  0  0  0  0  0  0  0  0
    6.4024    6.8411   -0.0000 C   0  0  0  0  0  0  0  0  0  0  0  0
   -0.1067    9.0820   -0.0000 N   0  0  0  0  0  0  0  0  0  0  0  0
    7.6829    3.0945   -0.0000 O   0  0  0  0  0  0  0  0  0  0  0  0
    8.9753    5.3472   -0.0000 C   0  0  0  0  0  0  0  0  0  0  0  0
   -1.4228    9.8408   -0.0000 C   0  0  0  0  0  0  0  0  0  0  0  0
   10.2558    4.6121   -0.0000 C   0  0  0  0  0  0  0  0  0  0  0  0
   -1.4346   11.3466   -0.0000 O   0  0  0  0  0  0  0  0  0  0  0  0
   -2.7270    9.1057   -0.0000 O   0  0  0  0  0  0  0  0  0  0  0  0
   10.2439    3.1301   -0.0000 O   0  0  0  0  0  0  0  0  0  0  0  0
   11.5363    5.3709   -0.0000 C   0  0  0  0  0  0  0  0  0  0  0  0
   -4.0430    9.8645   -0.0000 C   0  0  0  0  0  0  0  0  0  0  0  0
   12.8167    4.6358   -0.0000 N   0  0  0  0  0  0  0  0  0  0  0  0
   14.0972    5.3947   -0.0000 C   0  0  0  0  0  0  0  0  0  0  0  0
  1  2  1  0  0  0  0
  2  3  2  0  0  0  0
  2  4  1  0  0  0  0
  3  5  1  0  0  0  0
  3  6  1  0  0  0  0
  4  7  2  0  0  0  0
  5  8  2  0  0  0  0
  5  9  1  0  0  0  0
  6 10  2  0  0  0  0
  6 11  1  0  0  0  0
  8 12  1  0  0  0  0
  9 13  2  0  0  0  0
 11 14  1  0  0  0  0
 15 11  1  1  0  0  0
 11 16  1  0  0  0  0
 12 17  2  0  0  0  0
 12 18  1  0  0  0  0
 15 19  1  0  0  0  0
 15 20  1  0  0  0  0
 16 21  1  0  0  0  0
 18 22  1  0  0  0  0
 19 23  1  0  0  0  0
 20 24  1  0  0  0  0
 21 25  1  0  0  0  0
 23 26  1  0  0  0  0
 23 27  1  0  0  0  0
 25 28  1  0  0  0  0
 26 29  2  0  0  0  0
 26 30  1  0  0  0  0
 28 31  1  0  0  0  0
 30 32  1  0  0  0  0
 31 33  2  0  0  0  0
 31 34  1  0  0  0  0
 32 35  1  0  0  0  0
 32 36  1  0  0  0  0
 34 37  1  0  0  0  0
 36 38  1  0  0  0  0
 38 39  1  0  0  0  0
  7 10  1  0  0  0  0
 13 17  1  0  0  0  0
 24 27  1  0  0  0  0
M  END
>  <MolRegNo>
2291010

>  <m>
=

>  <Value>
840

>  <Unit>
nM

>  <Type>
IC50

>  <pValue>
6.08

>  <Ligand Efficiency>
0

>  <Binding Efficiency>
0

>  <Surface Efficiency>
0

>  <Assay Index>
1162297

>  <Assay Category>


>  <Assay Organism>
Homo sapiens

>  <Target ID>
17045

>  <Target Name>
Cytochrome P450 3A4

>  <Target Organism>
Homo sapiens

>  <Target Description>
Target is a single protein chain

>  <Sequence Accession>
P08684

>  <Reference>
Bioorg Med Chem Lett 27 (21), 4838-4843 (2017)

>  <Pubmed ID>
28985999

>  <DOI>
10.1016/j.bmcl.2017.09.046

$$$$
2289146
Actelion Java MolfileCreator 1.0

 40 42  0  0  0  0  0  0  0  0999 V2000
    0.0000   -0.0000   -0.0000 F   0  0  0  0  0  0  0  0  0  0  0  0
    1.2928    0.7591   -0.0000 C   0  0  0  0  0  0  0  0  0  0  0  0
    1.2691    2.2773   -0.0000 C   0  0  0  0  0  0  0  0  0  0  0  0
    2.5738    0.0237   -0.0000 C   0  0  0  0  0  0  0  0  0  0  0  0
   -0.0356    3.0364   -0.0000 C   0  0  0  0  0  0  0  0  0  0  0  0
    2.5619    3.0364   -0.0000 C   0  0  0  0  0  0  0  0  0  0  0  0
    3.8548    0.7947   -0.0000 C   0  0  0  0  0  0  0  0  0  0  0  0
   -1.3521    2.3010   -0.0000 C   0  0  0  0  0  0  0  0  0  0  0  0
   -0.0474    4.5427   -0.0000 C   0  0  0  0  0  0  0  0  0  0  0  0
    3.8429    2.3010   -0.0000 C   0  0  0  0  0  0  0  0  0  0  0  0
    2.5501    4.5545   -0.0000 C   0  0  0  0  0  0  0  0  0  0  0  0
   -2.6568    3.0601   -0.0000 C   0  0  0  0  0  0  0  0  0  0  0  0
   -1.3640    5.3018   -0.0000 C   0  0  0  0  0  0  0  0  0  0  0  0
    2.5382    6.0609   -0.0000 O   0  0  0  0  0  0  0  0  0  0  0  0
    3.8310    5.3136   -0.0000 C   0  0  0  0  0  0  0  0  0  0  0  0
    1.2335    5.3136   -0.0000 C   0  0  0  0  0  0  0  0  0  0  0  0
   -2.6687    4.5664   -0.0000 C   0  0  0  0  0  0  0  0  0  0  0  0
   -3.9734    2.3247   -0.0000 C   0  0  0  0  0  0  0  0  0  0  0  0
    5.1239    4.5783   -0.0000 C   0  0  0  0  0  0  0  0  0  0  0  0
    3.8192    6.8200   -0.0000 C   0  0  0  0  0  0  0  0  0  0  0  0
    1.2217    6.8200   -0.0000 C   0  0  0  0  0  0  0  0  0  0  0  0
   -5.2781    3.0838   -0.0000 C   0  0  0  0  0  0  0  0  0  0  0  0
    6.4167    5.3374   -0.0000 N   0  0  0  0  0  0  0  0  0  0  0  0
    5.1120    7.5791   -0.0000 C   0  0  0  0  0  0  0  0  0  0  0  0
   -0.0949    7.5791   -0.0000 C   0  0  0  0  0  0  0  0  0  0  0  0
    7.6977    4.5901   -0.0000 C   0  0  0  0  0  0  0  0  0  0  0  0
    6.4048    6.8437   -0.0000 C   0  0  0  0  0  0  0  0  0  0  0  0
   -0.1067    9.0854   -0.0000 N   0  0  0  0  0  0  0  0  0  0  0  0
    7.6858    3.0957   -0.0000 O   0  0  0  0  0  0  0  0  0  0  0  0
    8.9786    5.3492   -0.0000 C   0  0  0  0  0  0  0  0  0  0  0  0
   -1.4233    9.8445   -0.0000 C   0  0  0  0  0  0  0  0  0  0  0  0
   10.2596    4.6139   -0.0000 C   0  0  0  0  0  0  0  0  0  0  0  0
   -1.4352   11.3508   -0.0000 O   0  0  0  0  0  0  0  0  0  0  0  0
   -2.7280    9.1091   -0.0000 O   0  0  0  0  0  0  0  0  0  0  0  0
   10.2477    3.1313   -0.0000 O   0  0  0  0  0  0  0  0  0  0  0  0
   11.5406    5.3729   -0.0000 C   0  0  0  0  0  0  0  0  0  0  0  0
   -4.0445    9.8682   -0.0000 C   0  0  0  0  0  0  0  0  0  0  0  0
   11.5287    2.3959   -0.0000 C   0  0  0  0  0  0  0  0  0  0  0  0
   12.8215    4.6376   -0.0000 N   0  0  0  0  0  0  0  0  0  0  0  0
   14.1025    5.3967   -0.0000 C   0  0  0  0  0  0  0  0  0  0  0  0
  1  2  1  0  0  0  0
  2  3  2  0  0  0  0
  2  4  1  0  0  0  0
  3  5  1  0  0  0  0
  3  6  1  0  0  0  0
  4  7  2  0  0  0  0
  5  8  2  0  0  0  0
  5  9  1  0  0  0  0
  6 10  2  0  0  0  0
  6 11  1  0  0  0  0
  8 12  1  0  0  0  0
  9 13  2  0  0  0  0
 11 14  1  0  0  0  0
 15 11  1  1  0  0  0
 11 16  1  0  0  0  0
 12 17  2  0  0  0  0
 12 18  1  0  0  0  0
 15 19  1  0  0  0  0
 15 20  1  0  0  0  0
 16 21  1  0  0  0  0
 18 22  1  0  0  0  0
 19 23  1  0  0  0  0
 20 24  1  0  0  0  0
 21 25  1  0  0  0  0
 23 26  1  0  0  0  0
 23 27  1  0  0  0  0
 25 28  1  0  0  0  0
 26 29  2  0  0  0  0
 26 30  1  0  0  0  0
 28 31  1  0  0  0  0
 30 32  1  0  0  0  0
 31 33  2  0  0  0  0
 31 34  1  0  0  0  0
 32 35  1  0  0  0  0
 32 36  1  0  0  0  0
 34 37  1  0  0  0  0
 35 38  1  0  0  0  0
 36 39  1  0  0  0  0
 39 40  1  0  0  0  0
  7 10  1  0  0  0  0
 13 17  1  0  0  0  0
 24 27  1  0  0  0  0
M  END
>  <MolRegNo>
2289146

>  <m>
=

>  <Value>
480

>  <Unit>
nM

>  <Type>
IC50

>  <pValue>
6.32

>  <Ligand Efficiency>
0

>  <Binding Efficiency>
0

>  <Surface Efficiency>
0

>  <Assay Index>
1162297

>  <Assay Category>


>  <Assay Organism>
Homo sapiens

>  <Target ID>
17045

>  <Target Name>
Cytochrome P450 3A4

>  <Target Organism>
Homo sapiens

>  <Target Description>
Target is a single protein chain

>  <Sequence Accession>
P08684

>  <Reference>
Bioorg Med Chem Lett 27 (21), 4838-4843 (2017)

>  <Pubmed ID>
28985999

>  <DOI>
10.1016/j.bmcl.2017.09.046

$$$$
2296139
Actelion Java MolfileCreator 1.0

 50 55  0  0  0  0  0  0  0  0999 V2000
    0.0000   -0.0000   -0.0000 S   0  0  0  0  0  0  0  0  0  0  0  0
    0.7337    1.2990   -0.0000 O   0  0  0  0  0  0  0  0  0  0  0  0
   -0.7578    1.2990   -0.0000 O   0  0  0  0  0  0  0  0  0  0  0  0
    1.2749   -0.7337   -0.0000 N   0  0  0  0  0  0  0  0  0  0  0  0
   -1.2990   -0.7337   -0.0000 C   0  0  0  0  0  0  0  0  0  0  0  0
    2.5619    0.0241   -0.0000 C   0  0  0  0  0  0  0  0  0  0  0  0
   -1.3110   -2.2011   -0.0000 C   0  0  0  0  0  0  0  0  0  0  0  0
   -2.5980    0.0241   -0.0000 C   0  0  0  0  0  0  0  0  0  0  0  0
    4.0053   -0.4210   -0.0000 S   0  0  0  0  0  0  0  0  0  0  0  0
    2.5499    1.5636   -0.0000 N   0  0  0  0  0  0  0  0  0  0  0  0
   -2.6100   -2.9468   -0.0000 C   0  0  0  0  0  0  0  0  0  0  0  0
   -3.8970   -0.7096   -0.0000 C   0  0  0  0  0  0  0  0  0  0  0  0
    4.9073    0.8299   -0.0000 N   0  0  0  0  0  0  0  0  0  0  0  0
    4.0293    2.0447   -0.0000 C   0  0  0  0  0  0  0  0  0  0  0  0
   -2.6221   -4.4262   -0.0000 C   0  0  0  0  0  0  0  0  0  0  0  0
   -3.9211   -2.1891   -0.0000 C   0  0  0  0  0  0  0  0  0  0  0  0
   -2.6341   -5.9177   -0.0000 N   0  0  0  0  0  0  0  0  0  0  0  0
   -5.2321   -2.9228   -0.0000 O   0  0  0  0  0  0  0  0  0  0  0  0
   -6.5431   -2.1650   -0.0000 C   0  0  0  0  0  0  0  0  0  0  0  0
   -7.8421   -2.8987   -0.0000 C   0  0  0  0  0  0  0  0  0  0  0  0
   -6.5551   -0.6615   -0.0000 C   0  0  0  0  0  0  0  0  0  0  0  0
   -7.8542   -4.3781   -0.0000 C   0  0  0  0  0  0  0  0  0  0  0  0
   -9.1532   -2.1530   -0.0000 C   0  0  0  0  0  0  0  0  0  0  0  0
   -7.8542    0.0962   -0.0000 C   0  0  0  0  0  0  0  0  0  0  0  0
   -9.1652   -5.1238   -0.0000 C   0  0  0  0  0  0  0  0  0  0  0  0
   -6.5672   -5.1238   -0.0000 C   0  0  0  0  0  0  0  0  0  0  0  0
   -9.1652   -0.6375   -0.0000 C   0  0  0  0  0  0  0  0  0  0  0  0
   -9.1652   -6.6153   -0.0000 C   0  0  0  0  0  0  0  0  0  0  0  0
   -6.5792   -6.5912   -0.0000 C   0  0  0  0  0  0  0  0  0  0  0  0
  -10.4762    0.1203   -0.0000 C   0  0  0  0  0  0  0  0  0  0  0  0
   -7.8902   -7.3490   -0.0000 N   0  0  0  0  0  0  0  0  0  0  0  0
  -10.4762   -7.3490   -0.0000 C   0  0  0  0  0  0  0  0  0  0  0  0
  -11.7752   -0.6134   -0.0000 C   0  0  0  0  0  0  0  0  0  0  0  0
  -10.4882    1.6358   -0.0000 C   0  0  0  0  0  0  0  0  0  0  0  0
  -11.7752   -6.5912   -0.0000 N   0  0  0  0  0  0  0  0  0  0  0  0
  -13.0862    0.1443   -0.0000 C   0  0  0  0  0  0  0  0  0  0  0  0
  -11.7872    2.3815   -0.0000 C   0  0  0  0  0  0  0  0  0  0  0  0
  -13.0862   -7.3249   -0.0000 C   0  0  0  0  0  0  0  0  0  0  0  0
  -13.0983    1.6478   -0.0000 C   0  0  0  0  0  0  0  0  0  0  0  0
  -14.3852   -0.5894   -0.0000 C   0  0  0  0  0  0  0  0  0  0  0  0
  -14.3852   -6.5672   -0.0000 C   0  0  0  0  0  0  0  0  0  0  0  0
  -14.3973   -2.0688   -0.0000 F   0  0  0  0  0  0  0  0  0  0  0  0
  -15.6963    0.1684   -0.0000 F   0  0  0  0  0  0  0  0  0  0  0  0
  -15.6963   -1.3231   -0.0000 F   0  0  0  0  0  0  0  0  0  0  0  0
  -15.6963   -7.3009   -0.0000 C   0  0  0  0  0  0  0  0  0  0  0  0
  -15.7083   -8.7803   -0.0000 C   0  0  0  0  0  0  0  0  0  0  0  0
  -16.9953   -6.5431   -0.0000 C   0  0  0  0  0  0  0  0  0  0  0  0
  -17.0193   -9.5140   -0.0000 C   0  0  0  0  0  0  0  0  0  0  0  0
  -18.3063   -7.2768   -0.0000 C   0  0  0  0  0  0  0  0  0  0  0  0
  -18.3183   -8.7562   -0.0000 N   0  0  0  0  0  0  0  0  0  0  0  0
  1  2  2  0  0  0  0
  1  3  2  0  0  0  0
  1  4  1  0  0  0  0
  1  5  1  0  0  0  0
  4  6  1  0  0  0  0
  5  7  2  0  0  0  0
  5  8  1  0  0  0  0
  6  9  1  0  0  0  0
  6 10  2  0  0  0  0
  7 11  1  0  0  0  0
  8 12  2  0  0  0  0
  9 13  1  0  0  0  0
 10 14  1  0  0  0  0
 11 15  1  0  0  0  0
 11 16  2  0  0  0  0
 15 17  3  0  0  0  0
 16 18  1  0  0  0  0
 18 19  1  0  0  0  0
 19 20  2  0  0  0  0
 19 21  1  0  0  0  0
 20 22  1  0  0  0  0
 20 23  1  0  0  0  0
 21 24  2  0  0  0  0
 22 25  2  0  0  0  0
 22 26  1  0  0  0  0
 23 27  2  0  0  0  0
 25 28  1  0  0  0  0
 26 29  2  0  0  0  0
 27 30  1  0  0  0  0
 28 31  2  0  0  0  0
 28 32  1  0  0  0  0
 30 33  2  0  0  0  0
 30 34  1  0  0  0  0
 32 35  1  0  0  0  0
 33 36  1  0  0  0  0
 34 37  2  0  0  0  0
 35 38  1  0  0  0  0
 36 39  2  0  0  0  0
 36 40  1  0  0  0  0
 38 41  1  0  0  0  0
 40 42  1  0  0  0  0
 40 43  1  0  0  0  0
 40 44  1  0  0  0  0
 41 45  1  0  0  0  0
 45 46  1  0  0  0  0
 45 47  1  0  0  0  0
 46 48  1  0  0  0  0
 47 49  1  0  0  0  0
 48 50  1  0  0  0  0
 12 16  1  0  0  0  0
 13 14  2  0  0  0  0
 24 27  1  0  0  0  0
 29 31  1  0  0  0  0
 37 39  1  0  0  0  0
 49 50  1  0  0  0  0
M  END
>  <MolRegNo>
2296139

>  <m>
=

>  <Value>
1150

>  <Unit>
nM

>  <Type>
IC50

>  <pValue>
5.94

>  <Ligand Efficiency>
0

>  <Binding Efficiency>
0

>  <Surface Efficiency>
0

>  <Assay Index>
1162616

>  <Assay Category>


>  <Assay Organism>
Homo sapiens

>  <Target ID>
17045

>  <Target Name>
Cytochrome P450 3A4

>  <Target Organism>
Homo sapiens

>  <Target Description>
Target is a single protein chain

>  <Sequence Accession>
P08684

>  <Reference>
Bioorg Med Chem Lett 27 (21), 4805-4811 (2017)

>  <Pubmed ID>
29029933

>  <DOI>
10.1016/j.bmcl.2017.09.056

$$$$
2282099
Actelion Java MolfileCreator 1.0

 36 38  0  0  0  0  0  0  0  0999 V2000
    0.0000   -0.0000   -0.0000 Cl  0  0  0  0  0  0  0  0  0  0  0  0
    1.2913    0.7582   -0.0000 C   0  0  0  0  0  0  0  0  0  0  0  0
    1.2913    2.2746   -0.0000 C   0  0  0  0  0  0  0  0  0  0  0  0
    2.5826    0.0237   -0.0000 C   0  0  0  0  0  0  0  0  0  0  0  0
   -0.0237    3.0446   -0.0000 O   0  0  0  0  0  0  0  0  0  0  0  0
    2.5708    3.0446   -0.0000 C   0  0  0  0  0  0  0  0  0  0  0  0
    3.8739    0.7819   -0.0000 C   0  0  0  0  0  0  0  0  0  0  0  0
   -1.3387    2.2983   -0.0000 C   0  0  0  0  0  0  0  0  0  0  0  0
    3.8502    2.3101   -0.0000 C   0  0  0  0  0  0  0  0  0  0  0  0
    5.1652    0.0474   -0.0000 S   0  0  0  0  0  0  0  0  0  0  0  0
   -2.6537    3.0683   -0.0000 C   0  0  0  0  0  0  0  0  0  0  0  0
    5.1415    3.0802   -0.0000 F   0  0  0  0  0  0  0  0  0  0  0  0
    5.8879   -1.2321   -0.0000 O   0  0  0  0  0  0  0  0  0  0  0  0
    4.4070   -1.2321   -0.0000 O   0  0  0  0  0  0  0  0  0  0  0  0
    6.4565    0.8056   -0.0000 N   0  0  0  0  0  0  0  0  0  0  0  0
   -2.6655    4.5847   -0.0000 C   0  0  0  0  0  0  0  0  0  0  0  0
   -3.9687    2.3338   -0.0000 C   0  0  0  0  0  0  0  0  0  0  0  0
    7.7597    0.0711   -0.0000 C   0  0  0  0  0  0  0  0  0  0  0  0
   -1.3742    5.3311   -0.0000 C   0  0  0  0  0  0  0  0  0  0  0  0
   -3.9805    5.3548   -0.0000 C   0  0  0  0  0  0  0  0  0  0  0  0
   -3.9805    0.8530   -0.0000 N   0  0  0  0  0  0  0  0  0  0  0  0
   -5.2837    3.0920   -0.0000 C   0  0  0  0  0  0  0  0  0  0  0  0
    7.7360   -1.4216   -0.0000 N   0  0  0  0  0  0  0  0  0  0  0  0
    9.1813    0.5331   -0.0000 C   0  0  0  0  0  0  0  0  0  0  0  0
   -0.0829    4.5847   -0.0000 C   0  0  0  0  0  0  0  0  0  0  0  0
   -1.3861    6.8356   -0.0000 C   0  0  0  0  0  0  0  0  0  0  0  0
   -5.2955    4.6084   -0.0000 C   0  0  0  0  0  0  0  0  0  0  0  0
   -2.7011    0.1185   -0.0000 C   0  0  0  0  0  0  0  0  0  0  0  0
    9.1457   -1.8955   -0.0000 C   0  0  0  0  0  0  0  0  0  0  0  0
   10.0461   -0.6753   -0.0000 S   0  0  0  0  0  0  0  0  0  0  0  0
    1.2084    5.3429   -0.0000 C   0  0  0  0  0  0  0  0  0  0  0  0
   -0.0948    7.6057   -0.0000 C   0  0  0  0  0  0  0  0  0  0  0  0
   -2.7129   -1.3624   -0.0000 C   0  0  0  0  0  0  0  0  0  0  0  0
    1.1965    6.8593   -0.0000 C   0  0  0  0  0  0  0  0  0  0  0  0
    2.4878    7.6294   -0.0000 F   0  0  0  0  0  0  0  0  0  0  0  0
    1.5164   -1.8007   -0.0000 Cl  0  0  0  0  0  0  0  0  0  0  0  0
  1  2  1  0  0  0  0
  2  3  2  0  0  0  0
  2  4  1  0  0  0  0
  3  5  1  0  0  0  0
  3  6  1  0  0  0  0
  4  7  2  0  0  0  0
  5  8  1  0  0  0  0
  6  9  2  0  0  0  0
  7 10  1  0  0  0  0
 11  8  1  6  0  0  0
  9 12  1  0  0  0  0
 10 13  2  0  0  0  0
 10 14  2  0  0  0  0
 10 15  1  0  0  0  0
 11 16  1  0  0  0  0
 11 17  1  0  0  0  0
 15 18  1  0  0  0  0
 16 19  1  0  0  0  0
 16 20  2  0  0  0  0
 17 21  1  1  0  0  0
 17 22  1  0  0  0  0
 18 23  1  0  0  0  0
 18 24  2  0  0  0  0
 19 25  2  0  0  0  0
 19 26  1  0  0  0  0
 20 27  1  0  0  0  0
 21 28  1  0  0  0  0
 23 29  2  0  0  0  0
 24 30  1  0  0  0  0
 25 31  1  0  0  0  0
 26 32  2  0  0  0  0
 28 33  1  0  0  0  0
 31 34  2  0  0  0  0
 34 35  1  0  0  0  0
  7  9  1  0  0  0  0
 22 27  1  0  0  0  0
 29 30  1  0  0  0  0
 32 34  1  0  0  0  0
M  END
>  <MolRegNo>
2282099

>  <m>
=

>  <Value>
43400

>  <Unit>
nM

>  <Type>
IC50

>  <pValue>
4.36

>  <Ligand Efficiency>
0

>  <Binding Efficiency>
0

>  <Surface Efficiency>
0

>  <Assay Index>
1162929

>  <Assay Category>


>  <Assay Organism>
Homo sapiens

>  <Target ID>
17045

>  <Target Name>
Cytochrome P450 3A4

>  <Target Organism>
Homo sapiens

>  <Target Description>
Target is a single protein chain

>  <Sequence Accession>
P08684

>  <Reference>
Bioorg Med Chem Lett 27 (22), 4979-4984 (2017)

>  <Pubmed ID>
29037948

>  <DOI>
10.1016/j.bmcl.2017.10.010

$$$$
2289017
Actelion Java MolfileCreator 1.0

 34 36  0  0  0  0  0  0  0  0999 V2000
    0.0000   -0.0000   -0.0000 Cl  0  0  0  0  0  0  0  0  0  0  0  0
    1.2903    0.7576   -0.0000 C   0  0  0  0  0  0  0  0  0  0  0  0
    1.2903    2.2727   -0.0000 C   0  0  0  0  0  0  0  0  0  0  0  0
    2.5805    0.0237   -0.0000 C   0  0  0  0  0  0  0  0  0  0  0  0
   -0.0237    3.0422   -0.0000 N   0  0  0  0  0  0  0  0  0  0  0  0
    2.5687    3.0422   -0.0000 C   0  0  0  0  0  0  0  0  0  0  0  0
    3.8708    0.7813   -0.0000 C   0  0  0  0  0  0  0  0  0  0  0  0
   -1.3376    2.2964   -0.0000 C   0  0  0  0  0  0  0  0  0  0  0  0
    3.8471    2.3083   -0.0000 C   0  0  0  0  0  0  0  0  0  0  0  0
    5.1610    0.0473   -0.0000 S   0  0  0  0  0  0  0  0  0  0  0  0
   -2.6515    3.0658   -0.0000 C   0  0  0  0  0  0  0  0  0  0  0  0
    5.1374    3.0777   -0.0000 F   0  0  0  0  0  0  0  0  0  0  0  0
    5.8831   -1.2311   -0.0000 O   0  0  0  0  0  0  0  0  0  0  0  0
    4.4034   -1.2311   -0.0000 O   0  0  0  0  0  0  0  0  0  0  0  0
    6.4513    0.8049   -0.0000 N   0  0  0  0  0  0  0  0  0  0  0  0
   -2.6634    4.5810   -0.0000 C   0  0  0  0  0  0  0  0  0  0  0  0
   -3.9655    2.3319   -0.0000 C   0  0  0  0  0  0  0  0  0  0  0  0
    7.7534    0.0710   -0.0000 C   0  0  0  0  0  0  0  0  0  0  0  0
   -1.3731    5.3267   -0.0000 C   0  0  0  0  0  0  0  0  0  0  0  0
   -3.9773    5.3504   -0.0000 C   0  0  0  0  0  0  0  0  0  0  0  0
   -3.9773    0.8523   -0.0000 N   0  0  0  0  0  0  0  0  0  0  0  0
   -5.2794    3.0895   -0.0000 C   0  0  0  0  0  0  0  0  0  0  0  0
    7.7297   -1.4205   -0.0000 N   0  0  0  0  0  0  0  0  0  0  0  0
    9.1738    0.5327   -0.0000 C   0  0  0  0  0  0  0  0  0  0  0  0
   -0.0829    4.5810   -0.0000 C   0  0  0  0  0  0  0  0  0  0  0  0
   -1.3850    6.8301   -0.0000 C   0  0  0  0  0  0  0  0  0  0  0  0
   -5.2912    4.6047   -0.0000 C   0  0  0  0  0  0  0  0  0  0  0  0
    9.1383   -1.8940   -0.0000 C   0  0  0  0  0  0  0  0  0  0  0  0
   10.0380   -0.6747   -0.0000 S   0  0  0  0  0  0  0  0  0  0  0  0
    1.2074    5.3386   -0.0000 C   0  0  0  0  0  0  0  0  0  0  0  0
   -0.0947    7.5995   -0.0000 C   0  0  0  0  0  0  0  0  0  0  0  0
    1.1956    6.8538   -0.0000 C   0  0  0  0  0  0  0  0  0  0  0  0
    2.4858    7.6232   -0.0000 F   0  0  0  0  0  0  0  0  0  0  0  0
    3.9773    5.0190   -0.0000 Cl  0  0  0  0  0  0  0  0  0  0  0  0
  1  2  1  0  0  0  0
  2  3  2  0  0  0  0
  2  4  1  0  0  0  0
  3  5  1  0  0  0  0
  3  6  1  0  0  0  0
  4  7  2  0  0  0  0
  5  8  1  0  0  0  0
  6  9  2  0  0  0  0
  7 10  1  0  0  0  0
 11  8  1  6  0  0  0
  9 12  1  0  0  0  0
 10 13  2  0  0  0  0
 10 14  2  0  0  0  0
 10 15  1  0  0  0  0
 11 16  1  0  0  0  0
 11 17  1  0  0  0  0
 15 18  1  0  0  0  0
 16 19  1  0  0  0  0
 16 20  2  0  0  0  0
 17 21  1  1  0  0  0
 17 22  1  0  0  0  0
 18 23  1  0  0  0  0
 18 24  2  0  0  0  0
 19 25  2  0  0  0  0
 19 26  1  0  0  0  0
 20 27  1  0  0  0  0
 23 28  2  0  0  0  0
 24 29  1  0  0  0  0
 25 30  1  0  0  0  0
 26 31  2  0  0  0  0
 30 32  2  0  0  0  0
 32 33  1  0  0  0  0
  7  9  1  0  0  0  0
 22 27  1  0  0  0  0
 28 29  1  0  0  0  0
 31 32  1  0  0  0  0
M  END
>  <MolRegNo>
2289017

>  <m>
=

>  <Value>
33000

>  <Unit>
nM

>  <Type>
IC50

>  <pValue>
4.48

>  <Ligand Efficiency>
0

>  <Binding Efficiency>
0

>  <Surface Efficiency>
0

>  <Assay Index>
1162929

>  <Assay Category>


>  <Assay Organism>
Homo sapiens

>  <Target ID>
17045

>  <Target Name>
Cytochrome P450 3A4

>  <Target Organism>
Homo sapiens

>  <Target Description>
Target is a single protein chain

>  <Sequence Accession>
P08684

>  <Reference>
Bioorg Med Chem Lett 27 (22), 4979-4984 (2017)

>  <Pubmed ID>
29037948

>  <DOI>
10.1016/j.bmcl.2017.10.010

$$$$
2282415
Actelion Java MolfileCreator 1.0

 34 36  0  0  0  0  0  0  0  0999 V2000
    0.0000   -0.0000   -0.0000 Cl  0  0  0  0  0  0  0  0  0  0  0  0
    1.2903    0.7576   -0.0000 C   0  0  0  0  0  0  0  0  0  0  0  0
    1.2903    2.2727   -0.0000 C   0  0  0  0  0  0  0  0  0  0  0  0
    2.5805    0.0237   -0.0000 C   0  0  0  0  0  0  0  0  0  0  0  0
   -0.0237    3.0422   -0.0000 S   0  0  0  0  0  0  0  0  0  0  0  0
    2.5687    3.0422   -0.0000 C   0  0  0  0  0  0  0  0  0  0  0  0
    3.8708    0.7813   -0.0000 C   0  0  0  0  0  0  0  0  0  0  0  0
   -1.3376    2.2964   -0.0000 C   0  0  0  0  0  0  0  0  0  0  0  0
    3.8471    2.3083   -0.0000 C   0  0  0  0  0  0  0  0  0  0  0  0
    5.1610    0.0473   -0.0000 S   0  0  0  0  0  0  0  0  0  0  0  0
   -2.6515    3.0658   -0.0000 C   0  0  0  0  0  0  0  0  0  0  0  0
    5.1374    3.0777   -0.0000 F   0  0  0  0  0  0  0  0  0  0  0  0
    5.8831   -1.2311   -0.0000 O   0  0  0  0  0  0  0  0  0  0  0  0
    4.4034   -1.2311   -0.0000 O   0  0  0  0  0  0  0  0  0  0  0  0
    6.4513    0.8049   -0.0000 N   0  0  0  0  0  0  0  0  0  0  0  0
   -2.6634    4.5810   -0.0000 C   0  0  0  0  0  0  0  0  0  0  0  0
   -3.9655    2.3319   -0.0000 C   0  0  0  0  0  0  0  0  0  0  0  0
    7.7534    0.0710   -0.0000 C   0  0  0  0  0  0  0  0  0  0  0  0
   -1.3731    5.3267   -0.0000 C   0  0  0  0  0  0  0  0  0  0  0  0
   -3.9773    5.3504   -0.0000 C   0  0  0  0  0  0  0  0  0  0  0  0
   -3.9773    0.8523   -0.0000 N   0  0  0  0  0  0  0  0  0  0  0  0
   -5.2794    3.0895   -0.0000 C   0  0  0  0  0  0  0  0  0  0  0  0
    7.7297   -1.4205   -0.0000 S   0  0  0  0  0  0  0  0  0  0  0  0
    9.1738    0.5327   -0.0000 N   0  0  0  0  0  0  0  0  0  0  0  0
   -0.0829    4.5810   -0.0000 C   0  0  0  0  0  0  0  0  0  0  0  0
   -1.3850    6.8301   -0.0000 C   0  0  0  0  0  0  0  0  0  0  0  0
   -5.2912    4.6047   -0.0000 C   0  0  0  0  0  0  0  0  0  0  0  0
    9.1383   -1.8940   -0.0000 C   0  0  0  0  0  0  0  0  0  0  0  0
   10.0380   -0.6747   -0.0000 C   0  0  0  0  0  0  0  0  0  0  0  0
    1.2074    5.3386   -0.0000 C   0  0  0  0  0  0  0  0  0  0  0  0
   -0.0947    7.5995   -0.0000 C   0  0  0  0  0  0  0  0  0  0  0  0
    1.1956    6.8538   -0.0000 C   0  0  0  0  0  0  0  0  0  0  0  0
    2.4858    7.6232   -0.0000 F   0  0  0  0  0  0  0  0  0  0  0  0
    3.0303    4.3561   -0.0000 Cl  0  0  0  0  0  0  0  0  0  0  0  0
  1  2  1  0  0  0  0
  2  3  2  0  0  0  0
  2  4  1  0  0  0  0
  3  5  1  0  0  0  0
  3  6  1  0  0  0  0
  4  7  2  0  0  0  0
  5  8  1  0  0  0  0
  6  9  2  0  0  0  0
  7 10  1  0  0  0  0
 11  8  1  6  0  0  0
  9 12  1  0  0  0  0
 10 13  2  0  0  0  0
 10 14  2  0  0  0  0
 10 15  1  0  0  0  0
 11 16  1  0  0  0  0
 11 17  1  0  0  0  0
 15 18  1  0  0  0  0
 16 19  1  0  0  0  0
 16 20  2  0  0  0  0
 17 21  1  1  0  0  0
 17 22  1  0  0  0  0
 18 23  1  0  0  0  0
 18 24  2  0  0  0  0
 19 25  2  0  0  0  0
 19 26  1  0  0  0  0
 20 27  1  0  0  0  0
 23 28  1  0  0  0  0
 24 29  1  0  0  0  0
 25 30  1  0  0  0  0
 26 31  2  0  0  0  0
 30 32  2  0  0  0  0
 32 33  1  0  0  0  0
  7  9  1  0  0  0  0
 22 27  1  0  0  0  0
 28 29  2  0  0  0  0
 31 32  1  0  0  0  0
M  END
>  <MolRegNo>
2282415

>  <m>
=

>  <Value>
5100

>  <Unit>
nM

>  <Type>
IC50

>  <pValue>
5.29

>  <Ligand Efficiency>
0

>  <Binding Efficiency>
0

>  <Surface Efficiency>
0

>  <Assay Index>
1162929

>  <Assay Category>


>  <Assay Organism>
Homo sapiens

>  <Target ID>
17045

>  <Target Name>
Cytochrome P450 3A4

>  <Target Organism>
Homo sapiens

>  <Target Description>
Target is a single protein chain

>  <Sequence Accession>
P08684

>  <Reference>
Bioorg Med Chem Lett 27 (22), 4979-4984 (2017)

>  <Pubmed ID>
29037948

>  <DOI>
10.1016/j.bmcl.2017.10.010

$$$$
2295136
Actelion Java MolfileCreator 1.0

 36 38  0  0  0  0  0  0  0  0999 V2000
    0.0000   -0.0000   -0.0000 Cl  0  0  0  0  0  0  0  0  0  0  0  0
    1.2908    0.7579   -0.0000 C   0  0  0  0  0  0  0  0  0  0  0  0
    1.2908    2.2738   -0.0000 C   0  0  0  0  0  0  0  0  0  0  0  0
    2.5817    0.0237   -0.0000 C   0  0  0  0  0  0  0  0  0  0  0  0
   -0.0237    3.0435   -0.0000 O   0  0  0  0  0  0  0  0  0  0  0  0
    2.5698    3.0435   -0.0000 C   0  0  0  0  0  0  0  0  0  0  0  0
    3.8725    0.7816   -0.0000 C   0  0  0  0  0  0  0  0  0  0  0  0
   -1.3382    2.2975   -0.0000 C   0  0  0  0  0  0  0  0  0  0  0  0
    3.8488    2.3093   -0.0000 C   0  0  0  0  0  0  0  0  0  0  0  0
    5.1633    0.0474   -0.0000 S   0  0  0  0  0  0  0  0  0  0  0  0
   -2.6527    3.0672   -0.0000 C   0  0  0  0  0  0  0  0  0  0  0  0
    5.1397    3.0791   -0.0000 F   0  0  0  0  0  0  0  0  0  0  0  0
    5.8857   -1.2316   -0.0000 O   0  0  0  0  0  0  0  0  0  0  0  0
    4.4054   -1.2316   -0.0000 O   0  0  0  0  0  0  0  0  0  0  0  0
    6.4542    0.8053   -0.0000 N   0  0  0  0  0  0  0  0  0  0  0  0
   -2.6646    4.5831   -0.0000 C   0  0  0  0  0  0  0  0  0  0  0  0
   -3.9673    2.3330   -0.0000 C   0  0  0  0  0  0  0  0  0  0  0  0
    7.7569    0.0711   -0.0000 C   0  0  0  0  0  0  0  0  0  0  0  0
   -1.3737    5.3291   -0.0000 C   0  0  0  0  0  0  0  0  0  0  0  0
   -3.9791    5.3528   -0.0000 C   0  0  0  0  0  0  0  0  0  0  0  0
   -3.9791    0.8527   -0.0000 N   0  0  0  0  0  0  0  0  0  0  0  0
   -5.2818    3.0909   -0.0000 C   0  0  0  0  0  0  0  0  0  0  0  0
    7.7332   -1.4211   -0.0000 S   0  0  0  0  0  0  0  0  0  0  0  0
    9.1780    0.5329   -0.0000 N   0  0  0  0  0  0  0  0  0  0  0  0
   -0.0829    4.5831   -0.0000 C   0  0  0  0  0  0  0  0  0  0  0  0
   -1.3856    6.8331   -0.0000 C   0  0  0  0  0  0  0  0  0  0  0  0
   -5.2936    4.6067   -0.0000 C   0  0  0  0  0  0  0  0  0  0  0  0
   -5.2818    0.1184   -0.0000 C   0  0  0  0  0  0  0  0  0  0  0  0
    9.1424   -1.8948   -0.0000 C   0  0  0  0  0  0  0  0  0  0  0  0
   10.0425   -0.6750   -0.0000 C   0  0  0  0  0  0  0  0  0  0  0  0
    1.2079    5.3410   -0.0000 C   0  0  0  0  0  0  0  0  0  0  0  0
   -0.0947    7.6029   -0.0000 C   0  0  0  0  0  0  0  0  0  0  0  0
   -5.2936   -1.3619   -0.0000 C   0  0  0  0  0  0  0  0  0  0  0  0
    1.1961    6.8568   -0.0000 C   0  0  0  0  0  0  0  0  0  0  0  0
    2.4869    7.6266   -0.0000 F   0  0  0  0  0  0  0  0  0  0  0  0
    3.9791    5.0212   -0.0000 Cl  0  0  0  0  0  0  0  0  0  0  0  0
  1  2  1  0  0  0  0
  2  3  2  0  0  0  0
  2  4  1  0  0  0  0
  3  5  1  0  0  0  0
  3  6  1  0  0  0  0
  4  7  2  0  0  0  0
  5  8  1  0  0  0  0
  6  9  2  0  0  0  0
  7 10  1  0  0  0  0
 11  8  1  6  0  0  0
  9 12  1  0  0  0  0
 10 13  2  0  0  0  0
 10 14  2  0  0  0  0
 10 15  1  0  0  0  0
 11 16  1  0  0  0  0
 11 17  1  0  0  0  0
 15 18  1  0  0  0  0
 16 19  1  0  0  0  0
 16 20  2  0  0  0  0
 17 21  1  1  0  0  0
 17 22  1  0  0  0  0
 18 23  1  0  0  0  0
 18 24  2  0  0  0  0
 19 25  2  0  0  0  0
 19 26  1  0  0  0  0
 20 27  1  0  0  0  0
 21 28  1  0  0  0  0
 23 29  1  0  0  0  0
 24 30  1  0  0  0  0
 25 31  1  0  0  0  0
 26 32  2  0  0  0  0
 28 33  1  0  0  0  0
 31 34  2  0  0  0  0
 34 35  1  0  0  0  0
  7  9  1  0  0  0  0
 22 27  1  0  0  0  0
 29 30  2  0  0  0  0
 32 34  1  0  0  0  0
M  END
>  <MolRegNo>
2295136

>  <m>
=

>  <Value>
21600

>  <Unit>
nM

>  <Type>
IC50

>  <pValue>
4.67

>  <Ligand Efficiency>
0

>  <Binding Efficiency>
0

>  <Surface Efficiency>
0

>  <Assay Index>
1162929

>  <Assay Category>


>  <Assay Organism>
Homo sapiens

>  <Target ID>
17045

>  <Target Name>
Cytochrome P450 3A4

>  <Target Organism>
Homo sapiens

>  <Target Description>
Target is a single protein chain

>  <Sequence Accession>
P08684

>  <Reference>
Bioorg Med Chem Lett 27 (22), 4979-4984 (2017)

>  <Pubmed ID>
29037948

>  <DOI>
10.1016/j.bmcl.2017.10.010

$$$$
2290158
Actelion Java MolfileCreator 1.0

 36 38  0  0  0  0  0  0  0  0999 V2000
    0.0000   -0.0000   -0.0000 Cl  0  0  0  0  0  0  0  0  0  0  0  0
    1.2908    0.7579   -0.0000 C   0  0  0  0  0  0  0  0  0  0  0  0
    1.2908    2.2738   -0.0000 C   0  0  0  0  0  0  0  0  0  0  0  0
    2.5817    0.0237   -0.0000 C   0  0  0  0  0  0  0  0  0  0  0  0
   -0.0237    3.0435   -0.0000 N   0  0  0  0  0  0  0  0  0  0  0  0
    2.5698    3.0435   -0.0000 C   0  0  0  0  0  0  0  0  0  0  0  0
    3.8725    0.7816   -0.0000 C   0  0  0  0  0  0  0  0  0  0  0  0
   -1.3382    2.2975   -0.0000 C   0  0  0  0  0  0  0  0  0  0  0  0
    3.8488    2.3093   -0.0000 C   0  0  0  0  0  0  0  0  0  0  0  0
    5.1633    0.0474   -0.0000 S   0  0  0  0  0  0  0  0  0  0  0  0
   -2.6527    3.0672   -0.0000 C   0  0  0  0  0  0  0  0  0  0  0  0
    5.1397    3.0791   -0.0000 F   0  0  0  0  0  0  0  0  0  0  0  0
    5.8857   -1.2316   -0.0000 O   0  0  0  0  0  0  0  0  0  0  0  0
    4.4054   -1.2316   -0.0000 O   0  0  0  0  0  0  0  0  0  0  0  0
    6.4542    0.8053   -0.0000 N   0  0  0  0  0  0  0  0  0  0  0  0
   -2.6646    4.5831   -0.0000 C   0  0  0  0  0  0  0  0  0  0  0  0
   -3.9673    2.3330   -0.0000 C   0  0  0  0  0  0  0  0  0  0  0  0
    7.7569    0.0711   -0.0000 C   0  0  0  0  0  0  0  0  0  0  0  0
   -1.3737    5.3291   -0.0000 C   0  0  0  0  0  0  0  0  0  0  0  0
   -3.9791    5.3528   -0.0000 C   0  0  0  0  0  0  0  0  0  0  0  0
   -3.9791    0.8527   -0.0000 N   0  0  0  0  0  0  0  0  0  0  0  0
   -5.2818    3.0909   -0.0000 C   0  0  0  0  0  0  0  0  0  0  0  0
    7.7332   -1.4211   -0.0000 S   0  0  0  0  0  0  0  0  0  0  0  0
    9.1780    0.5329   -0.0000 N   0  0  0  0  0  0  0  0  0  0  0  0
   -0.0829    4.5831   -0.0000 C   0  0  0  0  0  0  0  0  0  0  0  0
   -1.3856    6.8331   -0.0000 C   0  0  0  0  0  0  0  0  0  0  0  0
   -5.2936    4.6067   -0.0000 C   0  0  0  0  0  0  0  0  0  0  0  0
   -5.2818    0.1184   -0.0000 C   0  0  0  0  0  0  0  0  0  0  0  0
    9.1424   -1.8948   -0.0000 C   0  0  0  0  0  0  0  0  0  0  0  0
   10.0425   -0.6750   -0.0000 C   0  0  0  0  0  0  0  0  0  0  0  0
    1.2079    5.3410   -0.0000 C   0  0  0  0  0  0  0  0  0  0  0  0
   -0.0947    7.6029   -0.0000 C   0  0  0  0  0  0  0  0  0  0  0  0
   -5.2936   -1.3619   -0.0000 C   0  0  0  0  0  0  0  0  0  0  0  0
    1.1961    6.8568   -0.0000 C   0  0  0  0  0  0  0  0  0  0  0  0
    2.4869    7.6266   -0.0000 F   0  0  0  0  0  0  0  0  0  0  0  0
    3.9791    4.4528   -0.0000 Cl  0  0  0  0  0  0  0  0  0  0  0  0
  1  2  1  0  0  0  0
  2  3  2  0  0  0  0
  2  4  1  0  0  0  0
  3  5  1  0  0  0  0
  3  6  1  0  0  0  0
  4  7  2  0  0  0  0
  5  8  1  0  0  0  0
  6  9  2  0  0  0  0
  7 10  1  0  0  0  0
 11  8  1  6  0  0  0
  9 12  1  0  0  0  0
 10 13  2  0  0  0  0
 10 14  2  0  0  0  0
 10 15  1  0  0  0  0
 11 16  1  0  0  0  0
 11 17  1  0  0  0  0
 15 18  1  0  0  0  0
 16 19  1  0  0  0  0
 16 20  2  0  0  0  0
 17 21  1  1  0  0  0
 17 22  1  0  0  0  0
 18 23  1  0  0  0  0
 18 24  2  0  0  0  0
 19 25  2  0  0  0  0
 19 26  1  0  0  0  0
 20 27  1  0  0  0  0
 21 28  1  0  0  0  0
 23 29  1  0  0  0  0
 24 30  1  0  0  0  0
 25 31  1  0  0  0  0
 26 32  2  0  0  0  0
 28 33  1  0  0  0  0
 31 34  2  0  0  0  0
 34 35  1  0  0  0  0
  7  9  1  0  0  0  0
 22 27  1  0  0  0  0
 29 30  2  0  0  0  0
 32 34  1  0  0  0  0
M  END
>  <MolRegNo>
2290158

>  <m>
=

>  <Value>
16500

>  <Unit>
nM

>  <Type>
IC50

>  <pValue>
4.78

>  <Ligand Efficiency>
0

>  <Binding Efficiency>
0

>  <Surface Efficiency>
0

>  <Assay Index>
1162929

>  <Assay Category>


>  <Assay Organism>
Homo sapiens

>  <Target ID>
17045

>  <Target Name>
Cytochrome P450 3A4

>  <Target Organism>
Homo sapiens

>  <Target Description>
Target is a single protein chain

>  <Sequence Accession>
P08684

>  <Reference>
Bioorg Med Chem Lett 27 (22), 4979-4984 (2017)

>  <Pubmed ID>
29037948

>  <DOI>
10.1016/j.bmcl.2017.10.010

$$$$
2284618
Actelion Java MolfileCreator 1.0

 35 38  0  0  0  0  0  0  0  0999 V2000
    0.0000   -0.0000   -0.0000 Br  0  0  0  0  0  0  0  0  0  0  0  0
    1.2916   -0.7465   -0.0000 C   0  0  0  0  0  0  0  0  0  0  0  0
    2.5831    0.0237   -0.0000 C   0  0  0  0  0  0  0  0  0  0  0  0
    1.2797   -2.2276   -0.0000 C   0  0  0  0  0  0  0  0  0  0  0  0
    3.8747   -0.7228   -0.0000 C   0  0  0  0  0  0  0  0  0  0  0  0
    2.5713   -2.9741   -0.0000 C   0  0  0  0  0  0  0  0  0  0  0  0
    3.8628   -2.2039   -0.0000 C   0  0  0  0  0  0  0  0  0  0  0  0
    5.1662    0.0474   -0.0000 C   0  0  0  0  0  0  0  0  0  0  0  0
    5.1544   -2.9504   -0.0000 N   0  0  0  0  0  0  0  0  0  0  0  0
    6.4578   -0.6991   -0.0000 C   0  0  0  0  0  0  0  0  0  0  0  0
    6.4459   -2.1802   -0.0000 C   0  0  0  0  0  0  0  0  0  0  0  0
    7.7493    0.0711   -0.0000 C   0  0  0  0  0  0  0  0  0  0  0  0
    7.7375   -2.9267   -0.0000 O   0  0  0  0  0  0  0  0  0  0  0  0
    7.7375    1.5878   -0.0000 C   0  0  0  0  0  0  0  0  0  0  0  0
    9.0409   -0.6754   -0.0000 C   0  0  0  0  0  0  0  0  0  0  0  0
    7.7256   -4.4197   -0.0000 C   0  0  0  0  0  0  0  0  0  0  0  0
    6.5052    2.4765   -0.0000 S   0  0  0  0  0  0  0  0  0  0  0  0
    8.9461    2.4765   -0.0000 C   0  0  0  0  0  0  0  0  0  0  0  0
    9.0290    0.8413   -0.0000 O   0  0  0  0  0  0  0  0  0  0  0  0
   10.3324    0.0948   -0.0000 C   0  0  0  0  0  0  0  0  0  0  0  0
    9.0290   -2.1565   -0.0000 C   0  0  0  0  0  0  0  0  0  0  0  0
    6.9554    3.9221   -0.0000 C   0  0  0  0  0  0  0  0  0  0  0  0
    8.4721    3.9221   -0.0000 C   0  0  0  0  0  0  0  0  0  0  0  0
   11.6240   -0.6517   -0.0000 C   0  0  0  0  0  0  0  0  0  0  0  0
   10.3206    1.6115   -0.0000 C   0  0  0  0  0  0  0  0  0  0  0  0
   10.3206   -2.9030   -0.0000 C   0  0  0  0  0  0  0  0  0  0  0  0
    6.1971    5.2373   -0.0000 C   0  0  0  0  0  0  0  0  0  0  0  0
    9.3490    5.1544   -0.0000 C   0  0  0  0  0  0  0  0  0  0  0  0
   12.9155    0.1185   -0.0000 C   0  0  0  0  0  0  0  0  0  0  0  0
   11.6121    2.3698   -0.0000 C   0  0  0  0  0  0  0  0  0  0  0  0
   10.3087   -4.3960   -0.0000 N   0  0  0  0  0  0  0  0  0  0  0  0
   14.2071   -0.6280   -0.0000 F   0  0  0  0  0  0  0  0  0  0  0  0
   12.9037    1.6352   -0.0000 C   0  0  0  0  0  0  0  0  0  0  0  0
    8.9935   -5.1307   -0.0000 C   0  0  0  0  0  0  0  0  0  0  0  0
   11.6003   -5.1307   -0.0000 C   0  0  0  0  0  0  0  0  0  0  0  0
  1  2  1  0  0  0  0
  2  3  2  0  0  0  0
  2  4  1  0  0  0  0
  3  5  1  0  0  0  0
  4  6  2  0  0  0  0
  5  7  1  0  0  0  0
  5  8  2  0  0  0  0
  7  9  2  0  0  0  0
  8 10  1  0  0  0  0
  9 11  1  0  0  0  0
 12 10  1  1  0  0  0
 11 13  1  0  0  0  0
 12 14  1  0  0  0  0
 12 15  1  0  0  0  0
 13 16  1  0  0  0  0
 14 17  1  0  0  0  0
 14 18  2  0  0  0  0
 15 19  1  1  0  0  0
 15 20  1  0  0  0  0
 15 21  1  0  0  0  0
 17 22  1  0  0  0  0
 18 23  1  0  0  0  0
 20 24  2  0  0  0  0
 20 25  1  0  0  0  0
 21 26  1  0  0  0  0
 22 27  1  0  0  0  0
 23 28  1  0  0  0  0
 24 29  1  0  0  0  0
 25 30  2  0  0  0  0
 26 31  1  0  0  0  0
 29 32  1  0  0  0  0
 29 33  2  0  0  0  0
 31 34  1  0  0  0  0
 31 35  1  0  0  0  0
  6  7  1  0  0  0  0
 10 11  2  0  0  0  0
 22 23  2  0  0  0  0
 30 33  1  0  0  0  0
M  END
>  <MolRegNo>
2284618

>  <m>
=

>  <Value>
10000

>  <Unit>
nM

>  <Type>
IC50

>  <pValue>
5

>  <Ligand Efficiency>
0

>  <Binding Efficiency>
0

>  <Surface Efficiency>
0

>  <Assay Index>
1164457

>  <Assay Category>


>  <Assay Organism>
Homo sapiens

>  <Target ID>
17045

>  <Target Name>
Cytochrome P450 3A4

>  <Target Organism>
Homo sapiens

>  <Target Description>
Target is a single protein chain

>  <Sequence Accession>
P08684

>  <Reference>
Bioorg Med Chem Lett 27 (23), 5190-5196 (2017)

>  <Pubmed ID>
29107541

>  <DOI>
10.1016/j.bmcl.2017.10.042

$$$$
2290652
Actelion Java MolfileCreator 1.0

 37 40  0  0  0  0  0  0  0  0999 V2000
    0.0000   -0.0000   -0.0000 Br  0  0  0  0  0  0  0  0  0  0  0  0
    1.2912   -0.7345   -0.0000 C   0  0  0  0  0  0  0  0  0  0  0  0
    2.5825    0.0355   -0.0000 C   0  0  0  0  0  0  0  0  0  0  0  0
    1.2794   -2.2152   -0.0000 C   0  0  0  0  0  0  0  0  0  0  0  0
    3.8737   -0.7108   -0.0000 C   0  0  0  0  0  0  0  0  0  0  0  0
    2.5706   -2.9615   -0.0000 C   0  0  0  0  0  0  0  0  0  0  0  0
    3.8618   -2.1915   -0.0000 C   0  0  0  0  0  0  0  0  0  0  0  0
    5.1649    0.0592   -0.0000 C   0  0  0  0  0  0  0  0  0  0  0  0
    5.1531   -2.9378   -0.0000 N   0  0  0  0  0  0  0  0  0  0  0  0
    6.4561   -0.6871   -0.0000 C   0  0  0  0  0  0  0  0  0  0  0  0
    6.4443   -2.1678   -0.0000 C   0  0  0  0  0  0  0  0  0  0  0  0
    7.7474    0.0829   -0.0000 C   0  0  0  0  0  0  0  0  0  0  0  0
    7.7355   -2.9141   -0.0000 O   0  0  0  0  0  0  0  0  0  0  0  0
    7.7355    1.5992   -0.0000 C   0  0  0  0  0  0  0  0  0  0  0  0
    9.0386   -0.6634   -0.0000 C   0  0  0  0  0  0  0  0  0  0  0  0
    7.7237   -4.4068   -0.0000 C   0  0  0  0  0  0  0  0  0  0  0  0
    6.4206    2.3574   -0.0000 C   0  0  0  0  0  0  0  0  0  0  0  0
    9.0268    2.3574   -0.0000 C   0  0  0  0  0  0  0  0  0  0  0  0
    9.0268    0.8529   -0.0000 O   0  0  0  0  0  0  0  0  0  0  0  0
   10.3298    0.1066   -0.0000 C   0  0  0  0  0  0  0  0  0  0  0  0
    9.0268   -2.1442   -0.0000 C   0  0  0  0  0  0  0  0  0  0  0  0
    6.4088    3.8737   -0.0000 N   0  0  0  0  0  0  0  0  0  0  0  0
    9.0149    3.8737   -0.0000 C   0  0  0  0  0  0  0  0  0  0  0  0
   11.6329   -0.6397   -0.0000 C   0  0  0  0  0  0  0  0  0  0  0  0
   10.3180    1.6229   -0.0000 C   0  0  0  0  0  0  0  0  0  0  0  0
   10.3180   -2.8905   -0.0000 C   0  0  0  0  0  0  0  0  0  0  0  0
    7.7000    4.6437   -0.0000 C   0  0  0  0  0  0  0  0  0  0  0  0
   12.9123    0.1303   -0.0000 C   0  0  0  0  0  0  0  0  0  0  0  0
   11.6092    2.3811   -0.0000 C   0  0  0  0  0  0  0  0  0  0  0  0
   10.3061   -4.3831   -0.0000 N   0  0  0  0  0  0  0  0  0  0  0  0
    7.6881    6.1600   -0.0000 S   0  0  0  0  0  0  0  0  0  0  0  0
   14.2035   -0.6042   -0.0000 F   0  0  0  0  0  0  0  0  0  0  0  0
   12.9004    1.6466   -0.0000 C   0  0  0  0  0  0  0  0  0  0  0  0
    8.9912   -5.1175   -0.0000 C   0  0  0  0  0  0  0  0  0  0  0  0
   11.5974   -5.1175   -0.0000 C   0  0  0  0  0  0  0  0  0  0  0  0
    6.3732    6.9181   -0.0000 C   0  0  0  0  0  0  0  0  0  0  0  0
    6.3614    8.4344   -0.0000 C   0  0  0  0  0  0  0  0  0  0  0  0
  1  2  1  0  0  0  0
  2  3  2  0  0  0  0
  2  4  1  0  0  0  0
  3  5  1  0  0  0  0
  4  6  2  0  0  0  0
  5  7  1  0  0  0  0
  5  8  2  0  0  0  0
  7  9  2  0  0  0  0
  8 10  1  0  0  0  0
  9 11  1  0  0  0  0
 12 10  1  1  0  0  0
 11 13  1  0  0  0  0
 12 14  1  0  0  0  0
 12 15  1  0  0  0  0
 13 16  1  0  0  0  0
 14 17  2  0  0  0  0
 14 18  1  0  0  0  0
 15 19  1  1  0  0  0
 15 20  1  0  0  0  0
 15 21  1  0  0  0  0
 17 22  1  0  0  0  0
 18 23  2  0  0  0  0
 20 24  2  0  0  0  0
 20 25  1  0  0  0  0
 21 26  1  0  0  0  0
 22 27  2  0  0  0  0
 24 28  1  0  0  0  0
 25 29  2  0  0  0  0
 26 30  1  0  0  0  0
 27 31  1  0  0  0  0
 28 32  1  0  0  0  0
 28 33  2  0  0  0  0
 30 34  1  0  0  0  0
 30 35  1  0  0  0  0
 31 36  1  0  0  0  0
 36 37  1  0  0  0  0
  6  7  1  0  0  0  0
 10 11  2  0  0  0  0
 23 27  1  0  0  0  0
 29 33  1  0  0  0  0
M  END
>  <MolRegNo>
2290652

>  <m>
=

>  <Value>
10000

>  <Unit>
nM

>  <Type>
IC50

>  <pValue>
5

>  <Ligand Efficiency>
0

>  <Binding Efficiency>
0

>  <Surface Efficiency>
0

>  <Assay Index>
1164457

>  <Assay Category>


>  <Assay Organism>
Homo sapiens

>  <Target ID>
17045

>  <Target Name>
Cytochrome P450 3A4

>  <Target Organism>
Homo sapiens

>  <Target Description>
Target is a single protein chain

>  <Sequence Accession>
P08684

>  <Reference>
Bioorg Med Chem Lett 27 (23), 5190-5196 (2017)

>  <Pubmed ID>
29107541

>  <DOI>
10.1016/j.bmcl.2017.10.042

$$$$
2285082
Actelion Java MolfileCreator 1.0

 35 38  0  0  0  0  0  0  0  0999 V2000
    0.0000   -0.0000   -0.0000 Br  0  0  0  0  0  0  0  0  0  0  0  0
    1.2924   -0.7351   -0.0000 C   0  0  0  0  0  0  0  0  0  0  0  0
    2.5849    0.0356   -0.0000 C   0  0  0  0  0  0  0  0  0  0  0  0
    1.2806   -2.2173   -0.0000 C   0  0  0  0  0  0  0  0  0  0  0  0
    3.8773   -0.7114   -0.0000 C   0  0  0  0  0  0  0  0  0  0  0  0
    2.5730   -2.9643   -0.0000 C   0  0  0  0  0  0  0  0  0  0  0  0
    3.8654   -2.1936   -0.0000 C   0  0  0  0  0  0  0  0  0  0  0  0
    5.1697    0.0593   -0.0000 C   0  0  0  0  0  0  0  0  0  0  0  0
    5.1579   -2.9406   -0.0000 N   0  0  0  0  0  0  0  0  0  0  0  0
    6.4622   -0.6877   -0.0000 C   0  0  0  0  0  0  0  0  0  0  0  0
    6.4503   -2.1699   -0.0000 C   0  0  0  0  0  0  0  0  0  0  0  0
    7.7546    0.0830   -0.0000 C   0  0  0  0  0  0  0  0  0  0  0  0
    7.7428   -2.9169   -0.0000 O   0  0  0  0  0  0  0  0  0  0  0  0
    7.7428    1.6007   -0.0000 C   0  0  0  0  0  0  0  0  0  0  0  0
    9.0470   -0.6640   -0.0000 C   0  0  0  0  0  0  0  0  0  0  0  0
    7.7309   -4.4109   -0.0000 C   0  0  0  0  0  0  0  0  0  0  0  0
    6.4266    2.3596   -0.0000 C   0  0  0  0  0  0  0  0  0  0  0  0
    9.0352    2.3596   -0.0000 C   0  0  0  0  0  0  0  0  0  0  0  0
    9.0352    0.8537   -0.0000 O   0  0  0  0  0  0  0  0  0  0  0  0
   10.3395    0.1067   -0.0000 C   0  0  0  0  0  0  0  0  0  0  0  0
    9.0352   -2.1462   -0.0000 C   0  0  0  0  0  0  0  0  0  0  0  0
    6.4147    3.8773   -0.0000 N   0  0  0  0  0  0  0  0  0  0  0  0
    9.0233    3.8773   -0.0000 C   0  0  0  0  0  0  0  0  0  0  0  0
   11.6438   -0.6403   -0.0000 C   0  0  0  0  0  0  0  0  0  0  0  0
   10.3276    1.6244   -0.0000 C   0  0  0  0  0  0  0  0  0  0  0  0
   10.3276   -2.8932   -0.0000 C   0  0  0  0  0  0  0  0  0  0  0  0
    7.7072    4.6480   -0.0000 C   0  0  0  0  0  0  0  0  0  0  0  0
   10.3158    4.6362   -0.0000 C   0  0  0  0  0  0  0  0  0  0  0  0
   12.9243    0.1304   -0.0000 C   0  0  0  0  0  0  0  0  0  0  0  0
   11.6201    2.3833   -0.0000 C   0  0  0  0  0  0  0  0  0  0  0  0
   10.3158   -4.3872   -0.0000 N   0  0  0  0  0  0  0  0  0  0  0  0
   14.2168   -0.6047   -0.0000 F   0  0  0  0  0  0  0  0  0  0  0  0
   12.9125    1.6482   -0.0000 C   0  0  0  0  0  0  0  0  0  0  0  0
    8.9996   -5.1223   -0.0000 C   0  0  0  0  0  0  0  0  0  0  0  0
   11.6082   -5.1223   -0.0000 C   0  0  0  0  0  0  0  0  0  0  0  0
  1  2  1  0  0  0  0
  2  3  2  0  0  0  0
  2  4  1  0  0  0  0
  3  5  1  0  0  0  0
  4  6  2  0  0  0  0
  5  7  1  0  0  0  0
  5  8  2  0  0  0  0
  7  9  2  0  0  0  0
  8 10  1  0  0  0  0
  9 11  1  0  0  0  0
 12 10  1  1  0  0  0
 11 13  1  0  0  0  0
 12 14  1  0  0  0  0
 12 15  1  0  0  0  0
 13 16  1  0  0  0  0
 14 17  2  0  0  0  0
 14 18  1  0  0  0  0
 15 19  1  1  0  0  0
 15 20  1  0  0  0  0
 15 21  1  0  0  0  0
 17 22  1  0  0  0  0
 18 23  2  0  0  0  0
 20 24  2  0  0  0  0
 20 25  1  0  0  0  0
 21 26  1  0  0  0  0
 22 27  2  0  0  0  0
 23 28  1  0  0  0  0
 24 29  1  0  0  0  0
 25 30  2  0  0  0  0
 26 31  1  0  0  0  0
 29 32  1  0  0  0  0
 29 33  2  0  0  0  0
 31 34  1  0  0  0  0
 31 35  1  0  0  0  0
  6  7  1  0  0  0  0
 10 11  2  0  0  0  0
 23 27  1  0  0  0  0
 30 33  1  0  0  0  0
M  END
>  <MolRegNo>
2285082

>  <m>
=

>  <Value>
4600

>  <Unit>
nM

>  <Type>
IC50

>  <pValue>
5.34

>  <Ligand Efficiency>
0

>  <Binding Efficiency>
0

>  <Surface Efficiency>
0

>  <Assay Index>
1164457

>  <Assay Category>


>  <Assay Organism>
Homo sapiens

>  <Target ID>
17045

>  <Target Name>
Cytochrome P450 3A4

>  <Target Organism>
Homo sapiens

>  <Target Description>
Target is a single protein chain

>  <Sequence Accession>
P08684

>  <Reference>
Bioorg Med Chem Lett 27 (23), 5190-5196 (2017)

>  <Pubmed ID>
29107541

>  <DOI>
10.1016/j.bmcl.2017.10.042

$$$$
2295443
Actelion Java MolfileCreator 1.0

 31 34  0  0  0  0  0  0  0  0999 V2000
    0.0000   -0.0000   -0.0000 F   0  0  0  0  0  0  0  0  0  0  0  0
   -0.0117    1.5032   -0.0000 C   0  0  0  0  0  0  0  0  0  0  0  0
   -1.3153    2.2666   -0.0000 F   0  0  0  0  0  0  0  0  0  0  0  0
   -1.2096    0.6107   -0.0000 F   0  0  0  0  0  0  0  0  0  0  0  0
    1.2683    2.2666   -0.0000 C   0  0  0  0  0  0  0  0  0  0  0  0
    2.5484    1.5267   -0.0000 C   0  0  0  0  0  0  0  0  0  0  0  0
    0.3523    3.4644   -0.0000 C   0  0  0  0  0  0  0  0  0  0  0  0
    2.1609    3.4644   -0.0000 C   0  0  0  0  0  0  0  0  0  0  0  0
    2.5367    0.0470   -0.0000 C   0  0  0  0  0  0  0  0  0  0  0  0
    3.8285    2.2783   -0.0000 C   0  0  0  0  0  0  0  0  0  0  0  0
    3.8168   -0.6929   -0.0000 C   0  0  0  0  0  0  0  0  0  0  0  0
    5.1086    1.5502   -0.0000 C   0  0  0  0  0  0  0  0  0  0  0  0
    5.0968    0.0587   -0.0000 C   0  0  0  0  0  0  0  0  0  0  0  0
    6.3769   -0.6694   -0.0000 C   0  0  0  0  0  0  0  0  0  0  0  0
    7.6570    0.0822   -0.0000 C   0  0  0  0  0  0  0  0  0  0  0  0
    7.6453    1.5854   -0.0000 O   0  0  0  0  0  0  0  0  0  0  0  0
    8.9371   -0.6459   -0.0000 N   0  0  0  0  0  0  0  0  0  0  0  0
   10.2172    0.1057   -0.0000 C   0  0  0  0  0  0  0  0  0  0  0  0
   11.6264   -0.3406   -0.0000 N   0  0  0  0  0  0  0  0  0  0  0  0
   10.2054    1.6089   -0.0000 C   0  0  0  0  0  0  0  0  0  0  0  0
   12.4955    0.8808   -0.0000 N   0  0  0  0  0  0  0  0  0  0  0  0
   11.6147    2.0787   -0.0000 C   0  0  0  0  0  0  0  0  0  0  0  0
   13.9634    1.0452   -0.0000 C   0  0  0  0  0  0  0  0  0  0  0  0
   14.5624    2.4192   -0.0000 C   0  0  0  0  0  0  0  0  0  0  0  0
   16.0304    2.5836   -0.0000 N   0  0  0  0  0  0  0  0  0  0  0  0
   13.6699    3.6406   -0.0000 C   0  0  0  0  0  0  0  0  0  0  0  0
   16.6293    3.9577   -0.0000 C   0  0  0  0  0  0  0  0  0  0  0  0
   14.2688    5.0146   -0.0000 C   0  0  0  0  0  0  0  0  0  0  0  0
   15.7368    5.1790   -0.0000 C   0  0  0  0  0  0  0  0  0  0  0  0
   16.3357    6.5531   -0.0000 C   0  0  0  0  0  0  0  0  0  0  0  0
   16.9346    7.9271   -0.0000 N   0  0  0  0  0  0  0  0  0  0  0  0
  1  2  1  0  0  0  0
  2  3  1  0  0  0  0
  2  4  1  0  0  0  0
  2  5  1  0  0  0  0
  5  6  1  0  0  0  0
  5  7  1  0  0  0  0
  5  8  1  0  0  0  0
  6  9  2  0  0  0  0
  6 10  1  0  0  0  0
  9 11  1  0  0  0  0
 10 12  2  0  0  0  0
 11 13  2  0  0  0  0
 13 14  1  0  0  0  0
 14 15  1  0  0  0  0
 15 16  2  0  0  0  0
 15 17  1  0  0  0  0
 17 18  1  0  0  0  0
 18 19  2  0  0  0  0
 18 20  1  0  0  0  0
 19 21  1  0  0  0  0
 20 22  2  0  0  0  0
 21 23  1  0  0  0  0
 23 24  1  0  0  0  0
 24 25  2  0  0  0  0
 24 26  1  0  0  0  0
 25 27  1  0  0  0  0
 26 28  2  0  0  0  0
 27 29  2  0  0  0  0
 29 30  1  0  0  0  0
 30 31  3  0  0  0  0
  7  8  1  0  0  0  0
 12 13  1  0  0  0  0
 21 22  1  0  0  0  0
 28 29  1  0  0  0  0
M  END
>  <MolRegNo>
2295443

>  <m>
=

>  <Value>
46000

>  <Unit>
nM

>  <Type>
IC50

>  <pValue>
4.34

>  <Ligand Efficiency>
0

>  <Binding Efficiency>
0

>  <Surface Efficiency>
0

>  <Assay Index>
1164569

>  <Assay Category>


>  <Assay Organism>
Homo sapiens

>  <Target ID>
17045

>  <Target Name>
Cytochrome P450 3A4

>  <Target Organism>
Homo sapiens

>  <Target Description>
Target is a single protein chain

>  <Sequence Accession>
P08684

>  <Reference>
J Med Chem 60 (23), 9769-9789 (2017)

>  <Pubmed ID>
29116786

>  <DOI>
10.1021/acs.jmedchem.7b01236

$$$$
2287058
Actelion Java MolfileCreator 1.0

 31 33  0  0  0  0  0  0  0  0999 V2000
    0.0000   -0.0000   -0.0000 F   0  0  0  0  0  0  0  0  0  0  0  0
    1.2956    0.7607   -0.0000 C   0  0  0  0  0  0  0  0  0  0  0  0
    1.2837    2.2703   -0.0000 F   0  0  0  0  0  0  0  0  0  0  0  0
   -0.0238    1.5333   -0.0000 F   0  0  0  0  0  0  0  0  0  0  0  0
    2.5793    0.0119   -0.0000 C   0  0  0  0  0  0  0  0  0  0  0  0
    3.8749    0.7726   -0.0000 O   0  0  0  0  0  0  0  0  0  0  0  0
    5.1586    0.0238   -0.0000 C   0  0  0  0  0  0  0  0  0  0  0  0
    5.1467   -1.4620   -0.0000 C   0  0  0  0  0  0  0  0  0  0  0  0
    6.4542    0.7845   -0.0000 C   0  0  0  0  0  0  0  0  0  0  0  0
    6.4305   -2.1990   -0.0000 C   0  0  0  0  0  0  0  0  0  0  0  0
    3.8274   -2.1990   -0.0000 C   0  0  0  0  0  0  0  0  0  0  0  0
    7.7379    0.0357   -0.0000 C   0  0  0  0  0  0  0  0  0  0  0  0
    7.7142   -1.4501   -0.0000 C   0  0  0  0  0  0  0  0  0  0  0  0
    8.9979   -2.1990   -0.0000 C   0  0  0  0  0  0  0  0  0  0  0  0
   10.2935   -1.4501   -0.0000 C   0  0  0  0  0  0  0  0  0  0  0  0
   10.2935    0.0594   -0.0000 O   0  0  0  0  0  0  0  0  0  0  0  0
   11.5772   -2.1990   -0.0000 N   0  0  0  0  0  0  0  0  0  0  0  0
   12.8728   -1.4501   -0.0000 C   0  0  0  0  0  0  0  0  0  0  0  0
   14.0852   -2.3297   -0.0000 N   0  0  0  0  0  0  0  0  0  0  0  0
   13.3245   -0.0000   -0.0000 C   0  0  0  0  0  0  0  0  0  0  0  0
   15.2976   -1.4263   -0.0000 N   0  0  0  0  0  0  0  0  0  0  0  0
   14.8221    0.0119   -0.0000 C   0  0  0  0  0  0  0  0  0  0  0  0
   16.6051   -2.1633   -0.0000 C   0  0  0  0  0  0  0  0  0  0  0  0
   17.8888   -1.3788   -0.0000 C   0  0  0  0  0  0  0  0  0  0  0  0
   19.1844   -2.1158   -0.0000 N   0  0  0  0  0  0  0  0  0  0  0  0
   17.8531    0.1307   -0.0000 C   0  0  0  0  0  0  0  0  0  0  0  0
   20.4681   -1.3313   -0.0000 C   0  0  0  0  0  0  0  0  0  0  0  0
   19.1250    0.9152   -0.0000 C   0  0  0  0  0  0  0  0  0  0  0  0
   20.4443    0.1902   -0.0000 C   0  0  0  0  0  0  0  0  0  0  0  0
   21.7162    0.9747   -0.0000 C   0  0  0  0  0  0  0  0  0  0  0  0
   22.9999    1.7592   -0.0000 N   0  0  0  0  0  0  0  0  0  0  0  0
  1  2  1  0  0  0  0
  2  3  1  0  0  0  0
  2  4  1  0  0  0  0
  2  5  1  0  0  0  0
  5  6  1  0  0  0  0
  6  7  1  0  0  0  0
  7  8  2  0  0  0  0
  7  9  1  0  0  0  0
  8 10  1  0  0  0  0
  8 11  1  0  0  0  0
  9 12  2  0  0  0  0
 10 13  2  0  0  0  0
 13 14  1  0  0  0  0
 14 15  1  0  0  0  0
 15 16  2  0  0  0  0
 15 17  1  0  0  0  0
 17 18  1  0  0  0  0
 18 19  2  0  0  0  0
 18 20  1  0  0  0  0
 19 21  1  0  0  0  0
 20 22  2  0  0  0  0
 21 23  1  0  0  0  0
 23 24  1  0  0  0  0
 24 25  2  0  0  0  0
 24 26  1  0  0  0  0
 25 27  1  0  0  0  0
 26 28  2  0  0  0  0
 27 29  2  0  0  0  0
 29 30  1  0  0  0  0
 30 31  3  0  0  0  0
 12 13  1  0  0  0  0
 21 22  1  0  0  0  0
 28 29  1  0  0  0  0
M  END
>  <MolRegNo>
2287058

>  <m>
=

>  <Value>
46000

>  <Unit>
nM

>  <Type>
IC50

>  <pValue>
4.34

>  <Ligand Efficiency>
0

>  <Binding Efficiency>
0

>  <Surface Efficiency>
0

>  <Assay Index>
1164569

>  <Assay Category>


>  <Assay Organism>
Homo sapiens

>  <Target ID>
17045

>  <Target Name>
Cytochrome P450 3A4

>  <Target Organism>
Homo sapiens

>  <Target Description>
Target is a single protein chain

>  <Sequence Accession>
P08684

>  <Reference>
J Med Chem 60 (23), 9769-9789 (2017)

>  <Pubmed ID>
29116786

>  <DOI>
10.1021/acs.jmedchem.7b01236

$$$$
2282724
Actelion Java MolfileCreator 1.0

 32 34  0  0  0  0  0  0  0  0999 V2000
    0.0000   -0.0000   -0.0000 F   0  0  0  0  0  0  0  0  0  0  0  0
    1.2853   -0.7497   -0.0000 C   0  0  0  0  0  0  0  0  0  0  0  0
    1.2734   -2.2373   -0.0000 F   0  0  0  0  0  0  0  0  0  0  0  0
   -0.0357   -1.4757   -0.0000 F   0  0  0  0  0  0  0  0  0  0  0  0
    2.5824    0.0119   -0.0000 C   0  0  0  0  0  0  0  0  0  0  0  0
    3.8677   -0.7378   -0.0000 C   0  0  0  0  0  0  0  0  0  0  0  0
    5.1648    0.0238   -0.0000 O   0  0  0  0  0  0  0  0  0  0  0  0
    6.4501   -0.7259   -0.0000 C   0  0  0  0  0  0  0  0  0  0  0  0
    6.4382   -2.2135   -0.0000 C   0  0  0  0  0  0  0  0  0  0  0  0
    7.7472    0.0357   -0.0000 C   0  0  0  0  0  0  0  0  0  0  0  0
    7.7234   -2.9513   -0.0000 C   0  0  0  0  0  0  0  0  0  0  0  0
    5.1172   -2.9513   -0.0000 C   0  0  0  0  0  0  0  0  0  0  0  0
    9.0325   -0.7140   -0.0000 C   0  0  0  0  0  0  0  0  0  0  0  0
    9.0087   -2.2016   -0.0000 C   0  0  0  0  0  0  0  0  0  0  0  0
   10.2939   -2.9513   -0.0000 C   0  0  0  0  0  0  0  0  0  0  0  0
   11.5911   -2.2016   -0.0000 C   0  0  0  0  0  0  0  0  0  0  0  0
   11.5911   -0.6902   -0.0000 O   0  0  0  0  0  0  0  0  0  0  0  0
   12.8763   -2.9513   -0.0000 N   0  0  0  0  0  0  0  0  0  0  0  0
   14.1735   -2.2016   -0.0000 C   0  0  0  0  0  0  0  0  0  0  0  0
   15.3873   -3.0822   -0.0000 N   0  0  0  0  0  0  0  0  0  0  0  0
   14.6257   -0.7497   -0.0000 C   0  0  0  0  0  0  0  0  0  0  0  0
   16.6012   -2.1778   -0.0000 N   0  0  0  0  0  0  0  0  0  0  0  0
   16.1252   -0.7378   -0.0000 C   0  0  0  0  0  0  0  0  0  0  0  0
   17.9102   -2.9156   -0.0000 C   0  0  0  0  0  0  0  0  0  0  0  0
   19.1955   -2.1302   -0.0000 C   0  0  0  0  0  0  0  0  0  0  0  0
   20.4926   -2.8680   -0.0000 N   0  0  0  0  0  0  0  0  0  0  0  0
   19.1598   -0.6188   -0.0000 C   0  0  0  0  0  0  0  0  0  0  0  0
   21.7779   -2.0826   -0.0000 C   0  0  0  0  0  0  0  0  0  0  0  0
   20.4331    0.1666   -0.0000 C   0  0  0  0  0  0  0  0  0  0  0  0
   21.7541   -0.5593   -0.0000 C   0  0  0  0  0  0  0  0  0  0  0  0
   23.0275    0.2261   -0.0000 C   0  0  0  0  0  0  0  0  0  0  0  0
   24.3127    1.0115   -0.0000 N   0  0  0  0  0  0  0  0  0  0  0  0
  1  2  1  0  0  0  0
  2  3  1  0  0  0  0
  2  4  1  0  0  0  0
  2  5  1  0  0  0  0
  5  6  1  0  0  0  0
  6  7  1  0  0  0  0
  7  8  1  0  0  0  0
  8  9  2  0  0  0  0
  8 10  1  0  0  0  0
  9 11  1  0  0  0  0
  9 12  1  0  0  0  0
 10 13  2  0  0  0  0
 11 14  2  0  0  0  0
 14 15  1  0  0  0  0
 15 16  1  0  0  0  0
 16 17  2  0  0  0  0
 16 18  1  0  0  0  0
 18 19  1  0  0  0  0
 19 20  2  0  0  0  0
 19 21  1  0  0  0  0
 20 22  1  0  0  0  0
 21 23  2  0  0  0  0
 22 24  1  0  0  0  0
 24 25  1  0  0  0  0
 25 26  2  0  0  0  0
 25 27  1  0  0  0  0
 26 28  1  0  0  0  0
 27 29  2  0  0  0  0
 28 30  2  0  0  0  0
 30 31  1  0  0  0  0
 31 32  3  0  0  0  0
 13 14  1  0  0  0  0
 22 23  1  0  0  0  0
 29 30  1  0  0  0  0
M  END
>  <MolRegNo>
2282724

>  <m>
=

>  <Value>
23000

>  <Unit>
nM

>  <Type>
IC50

>  <pValue>
4.64

>  <Ligand Efficiency>
0

>  <Binding Efficiency>
0

>  <Surface Efficiency>
0

>  <Assay Index>
1164569

>  <Assay Category>


>  <Assay Organism>
Homo sapiens

>  <Target ID>
17045

>  <Target Name>
Cytochrome P450 3A4

>  <Target Organism>
Homo sapiens

>  <Target Description>
Target is a single protein chain

>  <Sequence Accession>
P08684

>  <Reference>
J Med Chem 60 (23), 9769-9789 (2017)

>  <Pubmed ID>
29116786

>  <DOI>
10.1021/acs.jmedchem.7b01236

$$$$
2290327
Actelion Java MolfileCreator 1.0

 30 32  0  0  0  0  0  0  0  0999 V2000
    0.0000   -0.0000   -0.0000 F   0  0  0  0  0  0  0  0  0  0  0  0
    1.2850   -0.7496   -0.0000 C   0  0  0  0  0  0  0  0  0  0  0  0
    1.2731   -2.2369   -0.0000 F   0  0  0  0  0  0  0  0  0  0  0  0
   -0.0357   -1.4754   -0.0000 F   0  0  0  0  0  0  0  0  0  0  0  0
    2.5820    0.0119   -0.0000 O   0  0  0  0  0  0  0  0  0  0  0  0
    3.8670   -0.7377   -0.0000 C   0  0  0  0  0  0  0  0  0  0  0  0
    3.8551   -2.2250   -0.0000 C   0  0  0  0  0  0  0  0  0  0  0  0
    5.1640    0.0238   -0.0000 C   0  0  0  0  0  0  0  0  0  0  0  0
    5.1402   -2.9627   -0.0000 C   0  0  0  0  0  0  0  0  0  0  0  0
    2.5344   -2.9627   -0.0000 C   0  0  0  0  0  0  0  0  0  0  0  0
    6.4490   -0.7258   -0.0000 C   0  0  0  0  0  0  0  0  0  0  0  0
    6.4252   -2.2131   -0.0000 C   0  0  0  0  0  0  0  0  0  0  0  0
    7.7103   -2.9627   -0.0000 C   0  0  0  0  0  0  0  0  0  0  0  0
    9.0072   -2.2131   -0.0000 C   0  0  0  0  0  0  0  0  0  0  0  0
    9.0072   -0.7020   -0.0000 O   0  0  0  0  0  0  0  0  0  0  0  0
   10.2922   -2.9627   -0.0000 N   0  0  0  0  0  0  0  0  0  0  0  0
   11.5892   -2.2131   -0.0000 C   0  0  0  0  0  0  0  0  0  0  0  0
   12.8028   -3.0936   -0.0000 N   0  0  0  0  0  0  0  0  0  0  0  0
   12.0413   -0.7615   -0.0000 C   0  0  0  0  0  0  0  0  0  0  0  0
   14.0165   -2.1893   -0.0000 N   0  0  0  0  0  0  0  0  0  0  0  0
   13.5406   -0.7496   -0.0000 C   0  0  0  0  0  0  0  0  0  0  0  0
   15.3253   -2.9270   -0.0000 C   0  0  0  0  0  0  0  0  0  0  0  0
   16.6104   -2.1417   -0.0000 C   0  0  0  0  0  0  0  0  0  0  0  0
   17.9073   -2.8794   -0.0000 N   0  0  0  0  0  0  0  0  0  0  0  0
   16.5747   -0.6306   -0.0000 C   0  0  0  0  0  0  0  0  0  0  0  0
   19.1924   -2.0941   -0.0000 C   0  0  0  0  0  0  0  0  0  0  0  0
   17.8478    0.1547   -0.0000 C   0  0  0  0  0  0  0  0  0  0  0  0
   19.1686   -0.5711   -0.0000 C   0  0  0  0  0  0  0  0  0  0  0  0
   20.4417    0.2142   -0.0000 C   0  0  0  0  0  0  0  0  0  0  0  0
   21.7268    0.9995   -0.0000 N   0  0  0  0  0  0  0  0  0  0  0  0
  1  2  1  0  0  0  0
  2  3  1  0  0  0  0
  2  4  1  0  0  0  0
  2  5  1  0  0  0  0
  5  6  1  0  0  0  0
  6  7  2  0  0  0  0
  6  8  1  0  0  0  0
  7  9  1  0  0  0  0
  7 10  1  0  0  0  0
  8 11  2  0  0  0  0
  9 12  2  0  0  0  0
 12 13  1  0  0  0  0
 13 14  1  0  0  0  0
 14 15  2  0  0  0  0
 14 16  1  0  0  0  0
 16 17  1  0  0  0  0
 17 18  2  0  0  0  0
 17 19  1  0  0  0  0
 18 20  1  0  0  0  0
 19 21  2  0  0  0  0
 20 22  1  0  0  0  0
 22 23  1  0  0  0  0
 23 24  2  0  0  0  0
 23 25  1  0  0  0  0
 24 26  1  0  0  0  0
 25 27  2  0  0  0  0
 26 28  2  0  0  0  0
 28 29  1  0  0  0  0
 29 30  3  0  0  0  0
 11 12  1  0  0  0  0
 20 21  1  0  0  0  0
 27 28  1  0  0  0  0
M  END
>  <MolRegNo>
2290327

>  <m>
=

>  <Value>
17000

>  <Unit>
nM

>  <Type>
IC50

>  <pValue>
4.77

>  <Ligand Efficiency>
0

>  <Binding Efficiency>
0

>  <Surface Efficiency>
0

>  <Assay Index>
1164569

>  <Assay Category>


>  <Assay Organism>
Homo sapiens

>  <Target ID>
17045

>  <Target Name>
Cytochrome P450 3A4

>  <Target Organism>
Homo sapiens

>  <Target Description>
Target is a single protein chain

>  <Sequence Accession>
P08684

>  <Reference>
J Med Chem 60 (23), 9769-9789 (2017)

>  <Pubmed ID>
29116786

>  <DOI>
10.1021/acs.jmedchem.7b01236

$$$$
2281269
Actelion Java MolfileCreator 1.0

 24 28  0  0  0  0  0  0  0  0999 V2000
    0.0000   -0.0000   -0.0000 F   0  0  0  0  0  0  0  0  0  0  0  0
   -1.3120   -0.7446   -0.0000 C   0  0  0  0  0  0  0  0  0  0  0  0
   -1.3238   -2.2339   -0.0000 C   0  0  0  0  0  0  0  0  0  0  0  0
   -2.6239    0.0236   -0.0000 C   0  0  0  0  0  0  0  0  0  0  0  0
   -0.0355   -2.9667   -0.0000 C   0  0  0  0  0  0  0  0  0  0  0  0
   -2.6357   -2.9667   -0.0000 C   0  0  0  0  0  0  0  0  0  0  0  0
   -3.9359   -0.7210   -0.0000 C   0  0  0  0  0  0  0  0  0  0  0  0
   -0.0473   -4.4559   -0.0000 C   0  0  0  0  0  0  0  0  0  0  0  0
    1.2529   -2.2102   -0.0000 C   0  0  0  0  0  0  0  0  0  0  0  0
   -3.9477   -2.2102   -0.0000 C   0  0  0  0  0  0  0  0  0  0  0  0
   -5.2478    0.0473   -0.0000 N   0  0  0  0  0  0  0  0  0  0  0  0
    1.2410   -5.1887   -0.0000 C   0  0  0  0  0  0  0  0  0  0  0  0
    2.5412   -2.9430   -0.0000 C   0  0  0  0  0  0  0  0  0  0  0  0
   -5.2596   -2.9430   -0.0000 N   0  0  0  0  0  0  0  0  0  0  0  0
   -6.5598   -0.6973   -0.0000 C   0  0  0  0  0  0  0  0  0  0  0  0
   -5.5788    1.5247   -0.0000 C   0  0  0  0  0  0  0  0  0  0  0  0
    2.5293   -4.4323   -0.0000 N   0  0  0  0  0  0  0  0  0  0  0  0
   -6.5716   -2.1866   -0.0000 C   0  0  0  0  0  0  0  0  0  0  0  0
   -5.2714   -4.4323   -0.0000 C   0  0  0  0  0  0  0  0  0  0  0  0
   -7.6826    0.3191   -0.0000 N   0  0  0  0  0  0  0  0  0  0  0  0
   -7.0916    1.6902   -0.0000 C   0  0  0  0  0  0  0  0  0  0  0  0
   -7.8835   -2.9194   -0.0000 O   0  0  0  0  0  0  0  0  0  0  0  0
   -4.5268   -5.7206   -0.0000 C   0  0  0  0  0  0  0  0  0  0  0  0
   -6.0279   -5.7206   -0.0000 C   0  0  0  0  0  0  0  0  0  0  0  0
  1  2  1  0  0  0  0
  2  3  2  0  0  0  0
  2  4  1  0  0  0  0
  3  5  1  0  0  0  0
  3  6  1  0  0  0  0
  4  7  2  0  0  0  0
  5  8  2  0  0  0  0
  5  9  1  0  0  0  0
  6 10  2  0  0  0  0
  7 11  1  0  0  0  0
  8 12  1  0  0  0  0
  9 13  2  0  0  0  0
 10 14  1  0  0  0  0
 11 15  1  0  0  0  0
 11 16  1  0  0  0  0
 12 17  2  0  0  0  0
 14 18  1  0  0  0  0
 14 19  1  0  0  0  0
 15 20  2  0  0  0  0
 16 21  2  0  0  0  0
 18 22  2  0  0  0  0
 19 23  1  0  0  0  0
 19 24  1  0  0  0  0
  7 10  1  0  0  0  0
 13 17  1  0  0  0  0
 15 18  1  0  0  0  0
 20 21  1  0  0  0  0
 23 24  1  0  0  0  0
M  END
>  <MolRegNo>
2281269

>  <m>
=

>  <Value>
15000

>  <Unit>
nM

>  <Type>
IC50

>  <pValue>
4.82

>  <Ligand Efficiency>
0

>  <Binding Efficiency>
0

>  <Surface Efficiency>
0

>  <Assay Index>
1165873

>  <Assay Category>


>  <Assay Organism>
Homo sapiens

>  <Target ID>
17045

>  <Target Name>
Cytochrome P450 3A4

>  <Target Organism>
Homo sapiens

>  <Target Description>
Target is a single protein chain

>  <Sequence Accession>
P08684

>  <Reference>
J Med Chem 61 (8), 3565-3581 (2018)

>  <Pubmed ID>
29596745

>  <DOI>
10.1021/acs.jmedchem.7b01892

$$$$
2289075
Actelion Java MolfileCreator 1.0

 36 39  0  0  0  0  0  0  0  0999 V2000
    0.0000   -0.0000   -0.0000 F   0  0  0  0  0  0  0  0  0  0  0  0
    1.2892   -0.7401   -0.0000 C   0  0  0  0  0  0  0  0  0  0  0  0
    2.5784    0.0239   -0.0000 C   0  0  0  0  0  0  0  0  0  0  0  0
    1.2773   -2.2442   -0.0000 C   0  0  0  0  0  0  0  0  0  0  0  0
    3.8676   -0.7162   -0.0000 C   0  0  0  0  0  0  0  0  0  0  0  0
    2.5665    1.5399   -0.0000 C   0  0  0  0  0  0  0  0  0  0  0  0
    2.5665   -2.9843   -0.0000 C   0  0  0  0  0  0  0  0  0  0  0  0
    3.8557   -2.2203   -0.0000 C   0  0  0  0  0  0  0  0  0  0  0  0
    2.5426    3.0678   -0.0000 O   0  0  0  0  0  0  0  0  0  0  0  0
    3.8557    2.3158   -0.0000 C   0  0  0  0  0  0  0  0  0  0  0  0
    1.2534    2.3038   -0.0000 C   0  0  0  0  0  0  0  0  0  0  0  0
    2.5545   -4.4764   -0.0000 F   0  0  0  0  0  0  0  0  0  0  0  0
    3.8318    3.8318   -0.0000 F   0  0  0  0  0  0  0  0  0  0  0  0
    5.1449    3.0917   -0.0000 F   0  0  0  0  0  0  0  0  0  0  0  0
    5.1449    1.5757   -0.0000 C   0  0  0  0  0  0  0  0  0  0  0  0
    1.2415    3.8198   -0.0000 N   0  0  0  0  0  0  0  0  0  0  0  0
    5.1329    0.0836   -0.0000 N   0  0  0  0  0  0  0  0  0  0  0  0
    6.4341    2.3516   -0.0000 C   0  0  0  0  0  0  0  0  0  0  0  0
    0.0000    4.7151   -0.0000 N   0  0  0  0  0  0  0  0  0  0  0  0
    2.4352    4.7151   -0.0000 C   0  0  0  0  0  0  0  0  0  0  0  0
    6.4221   -0.6565   -0.0000 C   0  0  0  0  0  0  0  0  0  0  0  0
    7.7233    1.6234   -0.0000 C   0  0  0  0  0  0  0  0  0  0  0  0
    0.4536    6.1595   -0.0000 N   0  0  0  0  0  0  0  0  0  0  0  0
    1.9577    6.1595   -0.0000 N   0  0  0  0  0  0  0  0  0  0  0  0
    7.7113    0.1074   -0.0000 C   0  0  0  0  0  0  0  0  0  0  0  0
    9.0125   -0.6207   -0.0000 N   0  0  0  0  0  0  0  0  0  0  0  0
   10.3733    0.0119   -0.0000 C   0  0  0  0  0  0  0  0  0  0  0  0
    9.1676   -2.1009   -0.0000 C   0  0  0  0  0  0  0  0  0  0  0  0
   10.6717    1.4921   -0.0000 O   0  0  0  0  0  0  0  0  0  0  0  0
   11.3760   -1.0982   -0.0000 N   0  0  0  0  0  0  0  0  0  0  0  0
   10.6239   -2.3993   -0.0000 N   0  0  0  0  0  0  0  0  0  0  0  0
   12.8562   -0.9192   -0.0000 C   0  0  0  0  0  0  0  0  0  0  0  0
   13.7276   -2.1248   -0.0000 C   0  0  0  0  0  0  0  0  0  0  0  0
   15.2078   -1.9457   -0.0000 C   0  0  0  0  0  0  0  0  0  0  0  0
   13.1068   -3.4856   -0.0000 C   0  0  0  0  0  0  0  0  0  0  0  0
   14.4557   -3.4021   -0.0000 C   0  0  0  0  0  0  0  0  0  0  0  0
  1  2  1  0  0  0  0
  2  3  2  0  0  0  0
  2  4  1  0  0  0  0
  3  5  1  0  0  0  0
  3  6  1  0  0  0  0
  4  7  2  0  0  0  0
  5  8  2  0  0  0  0
  6  9  1  0  0  0  0
  6 10  1  0  0  0  0
  6 11  1  0  0  0  0
  7 12  1  0  0  0  0
 10 13  1  0  0  0  0
 10 14  1  0  0  0  0
 10 15  1  0  0  0  0
 11 16  1  0  0  0  0
 15 17  2  0  0  0  0
 15 18  1  0  0  0  0
 16 19  1  0  0  0  0
 16 20  1  0  0  0  0
 17 21  1  0  0  0  0
 18 22  2  0  0  0  0
 19 23  2  0  0  0  0
 20 24  2  0  0  0  0
 21 25  2  0  0  0  0
 25 26  1  0  0  0  0
 26 27  1  0  0  0  0
 26 28  1  0  0  0  0
 27 29  2  0  0  0  0
 27 30  1  0  0  0  0
 28 31  2  0  0  0  0
 30 32  1  0  0  0  0
 32 33  1  0  0  0  0
 33 34  1  0  0  0  0
 33 35  1  0  0  0  0
 33 36  1  0  0  0  0
  7  8  1  0  0  0  0
 22 25  1  0  0  0  0
 23 24  1  0  0  0  0
 30 31  1  0  0  0  0
M  END
>  <MolRegNo>
2289075

>  <m>
=

>  <Value>
50000

>  <Unit>
nM

>  <Type>
IC50

>  <pValue>
4.3

>  <Ligand Efficiency>
0

>  <Binding Efficiency>
0

>  <Surface Efficiency>
0

>  <Assay Index>
1167451

>  <Assay Category>


>  <Assay Organism>
Homo sapiens

>  <Target ID>
17045

>  <Target Name>
Cytochrome P450 3A4

>  <Target Organism>
Homo sapiens

>  <Target Description>
Target is a single protein chain

>  <Sequence Accession>
P08684

>  <Reference>
Bioorg Med Chem Lett 28 (3), 344-350 (2018)

>  <Pubmed ID>
29289430

>  <DOI>
10.1016/j.bmcl.2017.12.040

$$$$
2289779
Actelion Java MolfileCreator 1.0

 37 40  0  0  0  0  0  0  0  0999 V2000
    0.0000   -0.0000   -0.0000 F   0  0  0  0  0  0  0  0  0  0  0  0
    1.2949   -0.7452   -0.0000 C   0  0  0  0  0  0  0  0  0  0  0  0
    2.5898    0.0244   -0.0000 C   0  0  0  0  0  0  0  0  0  0  0  0
    1.2827   -2.2355   -0.0000 C   0  0  0  0  0  0  0  0  0  0  0  0
    3.8725   -0.7085   -0.0000 C   0  0  0  0  0  0  0  0  0  0  0  0
    2.5776    1.5392   -0.0000 C   0  0  0  0  0  0  0  0  0  0  0  0
    2.5776   -2.9807   -0.0000 C   0  0  0  0  0  0  0  0  0  0  0  0
    3.8725   -2.1989   -0.0000 C   0  0  0  0  0  0  0  0  0  0  0  0
    2.5531    3.0540   -0.0000 O   0  0  0  0  0  0  0  0  0  0  0  0
    3.8725    2.3088   -0.0000 C   0  0  0  0  0  0  0  0  0  0  0  0
    1.2582    2.3088   -0.0000 C   0  0  0  0  0  0  0  0  0  0  0  0
    2.5654   -4.4710   -0.0000 F   0  0  0  0  0  0  0  0  0  0  0  0
    3.8480    3.8236   -0.0000 F   0  0  0  0  0  0  0  0  0  0  0  0
    5.1551    3.0784   -0.0000 F   0  0  0  0  0  0  0  0  0  0  0  0
    5.1674    1.5636   -0.0000 C   0  0  0  0  0  0  0  0  0  0  0  0
    1.2460    3.8236   -0.0000 N   0  0  0  0  0  0  0  0  0  0  0  0
    5.1551    0.0611   -0.0000 N   0  0  0  0  0  0  0  0  0  0  0  0
    6.4500    2.3333   -0.0000 C   0  0  0  0  0  0  0  0  0  0  0  0
    2.4554    4.7154   -0.0000 N   0  0  0  0  0  0  0  0  0  0  0  0
    0.0244    4.7154   -0.0000 C   0  0  0  0  0  0  0  0  0  0  0  0
    6.4500   -0.6841   -0.0000 C   0  0  0  0  0  0  0  0  0  0  0  0
    7.7449    1.6003   -0.0000 C   0  0  0  0  0  0  0  0  0  0  0  0
    1.9790    6.1569   -0.0000 N   0  0  0  0  0  0  0  0  0  0  0  0
    0.4764    6.1569   -0.0000 N   0  0  0  0  0  0  0  0  0  0  0  0
    7.7449    0.0855   -0.0000 C   0  0  0  0  0  0  0  0  0  0  0  0
    9.0276   -0.6474   -0.0000 C   0  0  0  0  0  0  0  0  0  0  0  0
    9.0154   -2.1378   -0.0000 C   0  0  0  0  0  0  0  0  0  0  0  0
   10.3103    0.1222   -0.0000 C   0  0  0  0  0  0  0  0  0  0  0  0
   10.3103   -2.8708   -0.0000 C   0  0  0  0  0  0  0  0  0  0  0  0
   11.6052   -0.6108   -0.0000 C   0  0  0  0  0  0  0  0  0  0  0  0
   11.6052   -2.1011   -0.0000 C   0  0  0  0  0  0  0  0  0  0  0  0
   12.9001   -2.8341   -0.0000 O   0  0  0  0  0  0  0  0  0  0  0  0
   14.1950   -2.0645   -0.0000 C   0  0  0  0  0  0  0  0  0  0  0  0
   15.4899   -2.7975   -0.0000 C   0  0  0  0  0  0  0  0  0  0  0  0
   16.6748   -3.4693   -0.0000 F   0  0  0  0  0  0  0  0  0  0  0  0
   15.7342   -4.3367   -0.0000 F   0  0  0  0  0  0  0  0  0  0  0  0
   16.9558   -2.2233   -0.0000 F   0  0  0  0  0  0  0  0  0  0  0  0
  1  2  1  0  0  0  0
  2  3  2  0  0  0  0
  2  4  1  0  0  0  0
  3  5  1  0  0  0  0
  3  6  1  0  0  0  0
  4  7  2  0  0  0  0
  5  8  2  0  0  0  0
  6  9  1  0  0  0  0
  6 10  1  0  0  0  0
  6 11  1  0  0  0  0
  7 12  1  0  0  0  0
 10 13  1  0  0  0  0
 10 14  1  0  0  0  0
 10 15  1  0  0  0  0
 11 16  1  0  0  0  0
 15 17  2  0  0  0  0
 15 18  1  0  0  0  0
 16 19  1  0  0  0  0
 16 20  1  0  0  0  0
 17 21  1  0  0  0  0
 18 22  2  0  0  0  0
 19 23  2  0  0  0  0
 20 24  2  0  0  0  0
 21 25  2  0  0  0  0
 25 26  1  0  0  0  0
 26 27  2  0  0  0  0
 26 28  1  0  0  0  0
 27 29  1  0  0  0  0
 28 30  2  0  0  0  0
 29 31  2  0  0  0  0
 31 32  1  0  0  0  0
 32 33  1  0  0  0  0
 33 34  1  0  0  0  0
 34 35  1  0  0  0  0
 34 36  1  0  0  0  0
 34 37  1  0  0  0  0
  7  8  1  0  0  0  0
 22 25  1  0  0  0  0
 23 24  1  0  0  0  0
 30 31  1  0  0  0  0
M  END
>  <MolRegNo>
2289779

>  <m>
=

>  <Value>
50000

>  <Unit>
nM

>  <Type>
IC50

>  <pValue>
4.3

>  <Ligand Efficiency>
0

>  <Binding Efficiency>
0

>  <Surface Efficiency>
0

>  <Assay Index>
1167451

>  <Assay Category>


>  <Assay Organism>
Homo sapiens

>  <Target ID>
17045

>  <Target Name>
Cytochrome P450 3A4

>  <Target Organism>
Homo sapiens

>  <Target Description>
Target is a single protein chain

>  <Sequence Accession>
P08684

>  <Reference>
Bioorg Med Chem Lett 28 (3), 344-350 (2018)

>  <Pubmed ID>
29289430

>  <DOI>
10.1016/j.bmcl.2017.12.040

$$$$
2284583
Actelion Java MolfileCreator 1.0

 36 40  0  0  0  0  0  0  0  0999 V2000
    0.0000   -0.0000   -0.0000 F   0  0  0  0  0  0  0  0  0  0  0  0
    1.2877   -0.7393   -0.0000 C   0  0  0  0  0  0  0  0  0  0  0  0
    2.5755    0.0238   -0.0000 C   0  0  0  0  0  0  0  0  0  0  0  0
    1.2758   -2.2416   -0.0000 C   0  0  0  0  0  0  0  0  0  0  0  0
    3.8632   -0.7154   -0.0000 C   0  0  0  0  0  0  0  0  0  0  0  0
    2.5636    1.5381   -0.0000 C   0  0  0  0  0  0  0  0  0  0  0  0
    2.5636   -2.9809   -0.0000 C   0  0  0  0  0  0  0  0  0  0  0  0
    3.8513   -2.2178   -0.0000 C   0  0  0  0  0  0  0  0  0  0  0  0
    2.5397    3.0643   -0.0000 O   0  0  0  0  0  0  0  0  0  0  0  0
    3.8513    2.3132   -0.0000 C   0  0  0  0  0  0  0  0  0  0  0  0
    1.2520    2.3012   -0.0000 C   0  0  0  0  0  0  0  0  0  0  0  0
    2.5516   -4.4713   -0.0000 F   0  0  0  0  0  0  0  0  0  0  0  0
    3.8274    3.8274   -0.0000 F   0  0  0  0  0  0  0  0  0  0  0  0
    5.1390    3.0882   -0.0000 F   0  0  0  0  0  0  0  0  0  0  0  0
    5.1510    1.5739   -0.0000 C   0  0  0  0  0  0  0  0  0  0  0  0
    1.2400    3.8155   -0.0000 N   0  0  0  0  0  0  0  0  0  0  0  0
    5.1390    0.0835   -0.0000 N   0  0  0  0  0  0  0  0  0  0  0  0
    6.4387    2.3489   -0.0000 C   0  0  0  0  0  0  0  0  0  0  0  0
    0.0000    4.7098   -0.0000 N   0  0  0  0  0  0  0  0  0  0  0  0
    2.4324    4.7098   -0.0000 C   0  0  0  0  0  0  0  0  0  0  0  0
    6.4268   -0.6558   -0.0000 C   0  0  0  0  0  0  0  0  0  0  0  0
    7.7264    1.6216   -0.0000 C   0  0  0  0  0  0  0  0  0  0  0  0
    0.4531    6.1525   -0.0000 N   0  0  0  0  0  0  0  0  0  0  0  0
    1.9555    6.1525   -0.0000 N   0  0  0  0  0  0  0  0  0  0  0  0
    7.7264    0.1073   -0.0000 C   0  0  0  0  0  0  0  0  0  0  0  0
    9.0261   -0.6200   -0.0000 N   0  0  0  0  0  0  0  0  0  0  0  0
   10.3854    0.0119   -0.0000 C   0  0  0  0  0  0  0  0  0  0  0  0
    9.1811   -2.0985   -0.0000 C   0  0  0  0  0  0  0  0  0  0  0  0
   10.6835    1.4904   -0.0000 O   0  0  0  0  0  0  0  0  0  0  0  0
   11.3869   -1.0970   -0.0000 N   0  0  0  0  0  0  0  0  0  0  0  0
   10.6358   -2.3966   -0.0000 N   0  0  0  0  0  0  0  0  0  0  0  0
   12.8655   -0.9181   -0.0000 C   0  0  0  0  0  0  0  0  0  0  0  0
   13.8670   -2.0270   -0.0000 C   0  0  0  0  0  0  0  0  0  0  0  0
   13.6047    0.3935   -0.0000 C   0  0  0  0  0  0  0  0  0  0  0  0
   15.2263   -1.3950   -0.0000 C   0  0  0  0  0  0  0  0  0  0  0  0
   15.0594    0.0954   -0.0000 C   0  0  0  0  0  0  0  0  0  0  0  0
  1  2  1  0  0  0  0
  2  3  2  0  0  0  0
  2  4  1  0  0  0  0
  3  5  1  0  0  0  0
  3  6  1  0  0  0  0
  4  7  2  0  0  0  0
  5  8  2  0  0  0  0
  6  9  1  0  0  0  0
  6 10  1  0  0  0  0
  6 11  1  0  0  0  0
  7 12  1  0  0  0  0
 10 13  1  0  0  0  0
 10 14  1  0  0  0  0
 10 15  1  0  0  0  0
 11 16  1  0  0  0  0
 15 17  2  0  0  0  0
 15 18  1  0  0  0  0
 16 19  1  0  0  0  0
 16 20  1  0  0  0  0
 17 21  1  0  0  0  0
 18 22  2  0  0  0  0
 19 23  2  0  0  0  0
 20 24  2  0  0  0  0
 21 25  2  0  0  0  0
 25 26  1  0  0  0  0
 26 27  1  0  0  0  0
 26 28  1  0  0  0  0
 27 29  2  0  0  0  0
 27 30  1  0  0  0  0
 28 31  2  0  0  0  0
 30 32  1  0  0  0  0
 32 33  1  0  0  0  0
 32 34  1  0  0  0  0
 33 35  1  0  0  0  0
 34 36  1  0  0  0  0
  7  8  1  0  0  0  0
 22 25  1  0  0  0  0
 23 24  1  0  0  0  0
 30 31  1  0  0  0  0
 35 36  1  0  0  0  0
M  END
>  <MolRegNo>
2284583

>  <m>
=

>  <Value>
50000

>  <Unit>
nM

>  <Type>
IC50

>  <pValue>
4.3

>  <Ligand Efficiency>
0

>  <Binding Efficiency>
0

>  <Surface Efficiency>
0

>  <Assay Index>
1167451

>  <Assay Category>


>  <Assay Organism>
Homo sapiens

>  <Target ID>
17045

>  <Target Name>
Cytochrome P450 3A4

>  <Target Organism>
Homo sapiens

>  <Target Description>
Target is a single protein chain

>  <Sequence Accession>
P08684

>  <Reference>
Bioorg Med Chem Lett 28 (3), 344-350 (2018)

>  <Pubmed ID>
29289430

>  <DOI>
10.1016/j.bmcl.2017.12.040

$$$$
2292669
Actelion Java MolfileCreator 1.0

 37 41  0  0  0  0  0  0  0  0999 V2000
    0.0000   -0.0000   -0.0000 F   0  0  0  0  0  0  0  0  0  0  0  0
    1.2881   -0.7395   -0.0000 C   0  0  0  0  0  0  0  0  0  0  0  0
    2.5762    0.0239   -0.0000 C   0  0  0  0  0  0  0  0  0  0  0  0
    1.2762   -2.2422   -0.0000 C   0  0  0  0  0  0  0  0  0  0  0  0
    3.8643   -0.7156   -0.0000 C   0  0  0  0  0  0  0  0  0  0  0  0
    2.5643    1.5386   -0.0000 C   0  0  0  0  0  0  0  0  0  0  0  0
    2.5643   -2.9817   -0.0000 C   0  0  0  0  0  0  0  0  0  0  0  0
    3.8524   -2.2184   -0.0000 C   0  0  0  0  0  0  0  0  0  0  0  0
    2.5404    3.0652   -0.0000 O   0  0  0  0  0  0  0  0  0  0  0  0
    3.8524    2.3138   -0.0000 C   0  0  0  0  0  0  0  0  0  0  0  0
    1.2523    2.3019   -0.0000 C   0  0  0  0  0  0  0  0  0  0  0  0
    2.5523   -4.4726   -0.0000 F   0  0  0  0  0  0  0  0  0  0  0  0
    3.8285    3.8285   -0.0000 F   0  0  0  0  0  0  0  0  0  0  0  0
    5.1405    3.0890   -0.0000 F   0  0  0  0  0  0  0  0  0  0  0  0
    5.1524    1.5743   -0.0000 C   0  0  0  0  0  0  0  0  0  0  0  0
    1.2404    3.8166   -0.0000 N   0  0  0  0  0  0  0  0  0  0  0  0
    5.1405    0.0835   -0.0000 N   0  0  0  0  0  0  0  0  0  0  0  0
    6.4405    2.3496   -0.0000 C   0  0  0  0  0  0  0  0  0  0  0  0
    0.0000    4.7111   -0.0000 N   0  0  0  0  0  0  0  0  0  0  0  0
    2.4331    4.7111   -0.0000 C   0  0  0  0  0  0  0  0  0  0  0  0
    6.4285   -0.6560   -0.0000 C   0  0  0  0  0  0  0  0  0  0  0  0
    7.7286    1.6220   -0.0000 C   0  0  0  0  0  0  0  0  0  0  0  0
    0.4532    6.1542   -0.0000 N   0  0  0  0  0  0  0  0  0  0  0  0
    1.9560    6.1542   -0.0000 N   0  0  0  0  0  0  0  0  0  0  0  0
    7.7166    0.1073   -0.0000 C   0  0  0  0  0  0  0  0  0  0  0  0
    9.0167   -0.6202   -0.0000 N   0  0  0  0  0  0  0  0  0  0  0  0
   10.3763    0.0119   -0.0000 C   0  0  0  0  0  0  0  0  0  0  0  0
    9.1717   -2.0991   -0.0000 C   0  0  0  0  0  0  0  0  0  0  0  0
   10.6745    1.4909   -0.0000 O   0  0  0  0  0  0  0  0  0  0  0  0
   11.3782   -1.0853   -0.0000 N   0  0  0  0  0  0  0  0  0  0  0  0
   10.6268   -2.3973   -0.0000 N   0  0  0  0  0  0  0  0  0  0  0  0
   12.8571   -0.9184   -0.0000 C   0  0  0  0  0  0  0  0  0  0  0  0
   13.7278   -2.1230   -0.0000 C   0  0  0  0  0  0  0  0  0  0  0  0
   13.4534    0.4651   -0.0000 C   0  0  0  0  0  0  0  0  0  0  0  0
   15.2067   -1.9560   -0.0000 C   0  0  0  0  0  0  0  0  0  0  0  0
   14.9443    0.6321   -0.0000 C   0  0  0  0  0  0  0  0  0  0  0  0
   15.8149   -0.5725   -0.0000 C   0  0  0  0  0  0  0  0  0  0  0  0
  1  2  1  0  0  0  0
  2  3  2  0  0  0  0
  2  4  1  0  0  0  0
  3  5  1  0  0  0  0
  3  6  1  0  0  0  0
  4  7  2  0  0  0  0
  5  8  2  0  0  0  0
  6  9  1  0  0  0  0
  6 10  1  0  0  0  0
  6 11  1  0  0  0  0
  7 12  1  0  0  0  0
 10 13  1  0  0  0  0
 10 14  1  0  0  0  0
 10 15  1  0  0  0  0
 11 16  1  0  0  0  0
 15 17  2  0  0  0  0
 15 18  1  0  0  0  0
 16 19  1  0  0  0  0
 16 20  1  0  0  0  0
 17 21  1  0  0  0  0
 18 22  2  0  0  0  0
 19 23  2  0  0  0  0
 20 24  2  0  0  0  0
 21 25  2  0  0  0  0
 25 26  1  0  0  0  0
 26 27  1  0  0  0  0
 26 28  1  0  0  0  0
 27 29  2  0  0  0  0
 27 30  1  0  0  0  0
 28 31  2  0  0  0  0
 30 32  1  0  0  0  0
 32 33  1  0  0  0  0
 32 34  1  0  0  0  0
 33 35  1  0  0  0  0
 34 36  1  0  0  0  0
 35 37  1  0  0  0  0
  7  8  1  0  0  0  0
 22 25  1  0  0  0  0
 23 24  1  0  0  0  0
 30 31  1  0  0  0  0
 36 37  1  0  0  0  0
M  END
>  <MolRegNo>
2292669

>  <m>
=

>  <Value>
50000

>  <Unit>
nM

>  <Type>
IC50

>  <pValue>
4.3

>  <Ligand Efficiency>
0

>  <Binding Efficiency>
0

>  <Surface Efficiency>
0

>  <Assay Index>
1167451

>  <Assay Category>


>  <Assay Organism>
Homo sapiens

>  <Target ID>
17045

>  <Target Name>
Cytochrome P450 3A4

>  <Target Organism>
Homo sapiens

>  <Target Description>
Target is a single protein chain

>  <Sequence Accession>
P08684

>  <Reference>
Bioorg Med Chem Lett 28 (3), 344-350 (2018)

>  <Pubmed ID>
29289430

>  <DOI>
10.1016/j.bmcl.2017.12.040

$$$$
175008
Actelion Java MolfileCreator 1.0

 30 32  0  0  0  0  0  0  0  0999 V2000
    0.0000   -0.0000   -0.0000 Cl  0  0  0  0  0  0  0  0  0  0  0  0
   -0.0119    1.5080   -0.0000 C   0  0  0  0  0  0  0  0  0  0  0  0
    1.2705    2.2679   -0.0000 C   0  0  0  0  0  0  0  0  0  0  0  0
   -1.3180    2.2679   -0.0000 C   0  0  0  0  0  0  0  0  0  0  0  0
    2.5648    1.5080   -0.0000 O   0  0  0  0  0  0  0  0  0  0  0  0
    1.2587    3.7760   -0.0000 C   0  0  0  0  0  0  0  0  0  0  0  0
   -1.3299    3.7760   -0.0000 C   0  0  0  0  0  0  0  0  0  0  0  0
   -2.6242    1.5318   -0.0000 C   0  0  0  0  0  0  0  0  0  0  0  0
    2.5529    4.5359   -0.0000 C   0  0  0  0  0  0  0  0  0  0  0  0
   -0.0475    4.5359   -0.0000 C   0  0  0  0  0  0  0  0  0  0  0  0
   -2.6360    4.5359   -0.0000 C   0  0  0  0  0  0  0  0  0  0  0  0
   -3.9303    2.2917   -0.0000 C   0  0  0  0  0  0  0  0  0  0  0  0
   -3.7522    0.5225   -0.0000 C   0  0  0  0  0  0  0  0  0  0  0  0
   -1.5674    0.4750   -0.0000 C   0  0  0  0  0  0  0  0  0  0  0  0
    2.5410    6.0439   -0.0000 O   0  0  0  0  0  0  0  0  0  0  0  0
    3.8353    3.7878   -0.0000 N   0  0  0  0  0  0  0  0  0  0  0  0
   -3.9422    3.7997   -0.0000 C   0  0  0  0  0  0  0  0  0  0  0  0
   -3.4791    5.7470   -0.0000 C   0  0  0  0  0  0  0  0  0  0  0  0
   -1.5793    5.5927   -0.0000 C   0  0  0  0  0  0  0  0  0  0  0  0
    5.1177    4.5478   -0.0000 C   0  0  0  0  0  0  0  0  0  0  0  0
    5.1058    6.0676   -0.0000 C   0  0  0  0  0  0  0  0  0  0  0  0
    6.4001    3.8116   -0.0000 C   0  0  0  0  0  0  0  0  0  0  0  0
    6.3882    6.8276   -0.0000 C   0  0  0  0  0  0  0  0  0  0  0  0
    7.6944    4.5715   -0.0000 C   0  0  0  0  0  0  0  0  0  0  0  0
    6.3526    8.3356   -0.0000 F   0  0  0  0  0  0  0  0  0  0  0  0
    7.6825    6.0914   -0.0000 C   0  0  0  0  0  0  0  0  0  0  0  0
    8.9768    3.8234   -0.0000 F   0  0  0  0  0  0  0  0  0  0  0  0
    8.9768    6.8513   -0.0000 C   0  0  0  0  0  0  0  0  0  0  0  0
    8.9649    8.3593   -0.0000 O   0  0  0  0  0  0  0  0  0  0  0  0
   10.2592    6.1151   -0.0000 O   0  0  0  0  0  0  0  0  0  0  0  0
  1  2  1  0  0  0  0
  2  3  2  0  0  0  0
  2  4  1  0  0  0  0
  3  5  1  0  0  0  0
  3  6  1  0  0  0  0
  4  7  2  0  0  0  0
  4  8  1  0  0  0  0
  6  9  1  0  0  0  0
  6 10  2  0  0  0  0
  7 11  1  0  0  0  0
  8 12  1  0  0  0  0
  8 13  1  0  0  0  0
  8 14  1  0  0  0  0
  9 15  2  0  0  0  0
  9 16  1  0  0  0  0
 11 17  1  0  0  0  0
 11 18  1  0  0  0  0
 11 19  1  0  0  0  0
 16 20  1  0  0  0  0
 20 21  2  0  0  0  0
 20 22  1  0  0  0  0
 21 23  1  0  0  0  0
 22 24  2  0  0  0  0
 23 25  1  0  0  0  0
 23 26  2  0  0  0  0
 24 27  1  0  0  0  0
 26 28  1  0  0  0  0
 28 29  2  0  0  0  0
 28 30  1  0  0  0  0
  7 10  1  0  0  0  0
 12 17  1  0  0  0  0
 24 26  1  0  0  0  0
M  END
>  <MolRegNo>
175008

>  <m>
=

>  <Value>
25000

>  <Unit>
nM

>  <Type>
IC50

>  <pValue>
4.6

>  <Ligand Efficiency>
0

>  <Binding Efficiency>
0

>  <Surface Efficiency>
0

>  <Assay Index>
1169559

>  <Assay Category>


>  <Assay Organism>
Homo sapiens

>  <Target ID>
17045

>  <Target Name>
Cytochrome P450 3A4

>  <Target Organism>
Homo sapiens

>  <Target Description>
Target is a single protein chain

>  <Sequence Accession>
P08684

>  <Reference>
Bioorg Med Chem 26 (4), 798-814 (2018)

>  <Pubmed ID>
29288071

>  <DOI>
10.1016/j.bmc.2017.12.015

$$$$
2284514
Actelion Java MolfileCreator 1.0

 24 26  0  0  0  0  0  0  0  0999 V2000
    0.0000   -0.0000   -0.0000 O   0  0  0  0  0  0  0  0  0  0  0  0
    1.2814    0.7594   -0.0000 C   0  0  0  0  0  0  0  0  0  0  0  0
   -0.0119   -1.4832   -0.0000 C   0  0  0  0  0  0  0  0  0  0  0  0
    1.2696    2.2663   -0.0000 C   0  0  0  0  0  0  0  0  0  0  0  0
    2.5629    0.0237   -0.0000 C   0  0  0  0  0  0  0  0  0  0  0  0
   -1.3170   -2.2188   -0.0000 C   0  0  0  0  0  0  0  0  0  0  0  0
   -0.0356    3.0256   -0.0000 C   0  0  0  0  0  0  0  0  0  0  0  0
    2.5629    3.0256   -0.0000 C   0  0  0  0  0  0  0  0  0  0  0  0
    3.8562    0.7950   -0.0000 C   0  0  0  0  0  0  0  0  0  0  0  0
   -2.6222   -1.4476   -0.0000 C   0  0  0  0  0  0  0  0  0  0  0  0
   -1.3170   -3.6901   -0.0000 C   0  0  0  0  0  0  0  0  0  0  0  0
   -0.0475    4.5444   -0.0000 N   0  0  0  0  0  0  0  0  0  0  0  0
   -1.3408    2.2900   -0.0000 N   0  0  0  0  0  0  0  0  0  0  0  0
    2.5510    4.5444   -0.0000 N   0  0  0  0  0  0  0  0  0  0  0  0
    3.8443    2.2900   -0.0000 C   0  0  0  0  0  0  0  0  0  0  0  0
   -3.9274   -2.1832   -0.0000 N   0  0  0  0  0  0  0  0  0  0  0  0
   -2.6222   -4.4257   -0.0000 C   0  0  0  0  0  0  0  0  0  0  0  0
    1.2340    5.3038   -0.0000 C   0  0  0  0  0  0  0  0  0  0  0  0
   -2.6459    3.0494   -0.0000 C   0  0  0  0  0  0  0  0  0  0  0  0
   -3.9393   -3.6664   -0.0000 C   0  0  0  0  0  0  0  0  0  0  0  0
    1.2221    6.8106   -0.0000 N   0  0  0  0  0  0  0  0  0  0  0  0
   -3.9511    2.3137   -0.0000 C   0  0  0  0  0  0  0  0  0  0  0  0
   -5.2563    3.0731   -0.0000 C   0  0  0  0  0  0  0  0  0  0  0  0
   -6.5615    2.3375   -0.0000 C   0  0  0  0  0  0  0  0  0  0  0  0
  1  2  1  0  0  0  0
  1  3  1  0  0  0  0
  2  4  1  0  0  0  0
  2  5  2  0  0  0  0
  3  6  1  0  0  0  0
  4  7  2  0  0  0  0
  4  8  1  0  0  0  0
  5  9  1  0  0  0  0
  6 10  2  0  0  0  0
  6 11  1  0  0  0  0
  7 12  1  0  0  0  0
  7 13  1  0  0  0  0
  8 14  2  0  0  0  0
  8 15  1  0  0  0  0
 10 16  1  0  0  0  0
 11 17  2  0  0  0  0
 12 18  2  0  0  0  0
 13 19  1  0  0  0  0
 16 20  2  0  0  0  0
 18 21  1  0  0  0  0
 19 22  1  0  0  0  0
 22 23  1  0  0  0  0
 23 24  1  0  0  0  0
  9 15  2  0  0  0  0
 14 18  1  0  0  0  0
 17 20  1  0  0  0  0
M  END
>  <MolRegNo>
2284514

>  <m>
=

>  <Value>
6700

>  <Unit>
nM

>  <Type>
IC50

>  <pValue>
5.17

>  <Ligand Efficiency>
0

>  <Binding Efficiency>
0

>  <Surface Efficiency>
0

>  <Assay Index>
1170294

>  <Assay Category>


>  <Assay Organism>
Homo sapiens

>  <Target ID>
17045

>  <Target Name>
Cytochrome P450 3A4

>  <Target Organism>
Homo sapiens

>  <Target Description>
Target is a single protein chain

>  <Sequence Accession>
P08684

>  <Reference>
Bioorg Med Chem Lett 28 (4), 711-719 (2018)

>  <Pubmed ID>
29366653

>  <DOI>
10.1016/j.bmcl.2018.01.014

$$$$
2284012
Actelion Java MolfileCreator 1.0

 28 30  0  0  0  0  0  0  0  0999 V2000
    0.0000   -0.0000   -0.0000 O   0  0  0  0  0  0  0  0  0  0  0  0
    1.2831    0.7604   -0.0000 C   0  0  0  0  0  0  0  0  0  0  0  0
   -0.0119   -1.4851   -0.0000 C   0  0  0  0  0  0  0  0  0  0  0  0
    1.2712    2.2692   -0.0000 C   0  0  0  0  0  0  0  0  0  0  0  0
    2.5662    0.0238   -0.0000 C   0  0  0  0  0  0  0  0  0  0  0  0
   -1.3187   -2.2217   -0.0000 C   0  0  0  0  0  0  0  0  0  0  0  0
   -0.0356    3.0295   -0.0000 C   0  0  0  0  0  0  0  0  0  0  0  0
    2.5662    3.0295   -0.0000 C   0  0  0  0  0  0  0  0  0  0  0  0
    3.8612    0.7960   -0.0000 C   0  0  0  0  0  0  0  0  0  0  0  0
   -2.6256   -1.4494   -0.0000 N   0  0  0  0  0  0  0  0  0  0  0  0
   -1.3187   -3.6948   -0.0000 C   0  0  0  0  0  0  0  0  0  0  0  0
   -0.0475    4.5502   -0.0000 N   0  0  0  0  0  0  0  0  0  0  0  0
   -1.3425    2.2929   -0.0000 N   0  0  0  0  0  0  0  0  0  0  0  0
    2.5543    4.5502   -0.0000 N   0  0  0  0  0  0  0  0  0  0  0  0
    3.8493    2.2929   -0.0000 C   0  0  0  0  0  0  0  0  0  0  0  0
   -3.9324   -2.1860   -0.0000 C   0  0  0  0  0  0  0  0  0  0  0  0
   -0.0356   -4.4314   -0.0000 O   0  0  0  0  0  0  0  0  0  0  0  0
   -2.6256   -4.4314   -0.0000 C   0  0  0  0  0  0  0  0  0  0  0  0
    1.2356    5.3106   -0.0000 C   0  0  0  0  0  0  0  0  0  0  0  0
   -2.6494    3.0533   -0.0000 C   0  0  0  0  0  0  0  0  0  0  0  0
   -3.9443   -3.6711   -0.0000 C   0  0  0  0  0  0  0  0  0  0  0  0
   -0.0475   -5.9165   -0.0000 C   0  0  0  0  0  0  0  0  0  0  0  0
   -2.6375   -5.9165   -0.0000 O   0  0  0  0  0  0  0  0  0  0  0  0
    1.2237    6.8194   -0.0000 N   0  0  0  0  0  0  0  0  0  0  0  0
   -3.9562    2.3167   -0.0000 C   0  0  0  0  0  0  0  0  0  0  0  0
   -3.9443   -6.6531   -0.0000 C   0  0  0  0  0  0  0  0  0  0  0  0
   -5.2631    3.0770   -0.0000 C   0  0  0  0  0  0  0  0  0  0  0  0
   -6.5699    2.3405   -0.0000 C   0  0  0  0  0  0  0  0  0  0  0  0
  1  2  1  0  0  0  0
  1  3  1  0  0  0  0
  2  4  1  0  0  0  0
  2  5  2  0  0  0  0
  3  6  1  0  0  0  0
  4  7  2  0  0  0  0
  4  8  1  0  0  0  0
  5  9  1  0  0  0  0
  6 10  2  0  0  0  0
  6 11  1  0  0  0  0
  7 12  1  0  0  0  0
  7 13  1  0  0  0  0
  8 14  2  0  0  0  0
  8 15  1  0  0  0  0
 10 16  1  0  0  0  0
 11 17  1  0  0  0  0
 11 18  2  0  0  0  0
 12 19  2  0  0  0  0
 13 20  1  0  0  0  0
 16 21  2  0  0  0  0
 17 22  1  0  0  0  0
 18 23  1  0  0  0  0
 19 24  1  0  0  0  0
 20 25  1  0  0  0  0
 23 26  1  0  0  0  0
 25 27  1  0  0  0  0
 27 28  1  0  0  0  0
  9 15  2  0  0  0  0
 14 19  1  0  0  0  0
 18 21  1  0  0  0  0
M  END
>  <MolRegNo>
2284012

>  <m>
=

>  <Value>
9900

>  <Unit>
nM

>  <Type>
IC50

>  <pValue>
5

>  <Ligand Efficiency>
0

>  <Binding Efficiency>
0

>  <Surface Efficiency>
0

>  <Assay Index>
1170294

>  <Assay Category>


>  <Assay Organism>
Homo sapiens

>  <Target ID>
17045

>  <Target Name>
Cytochrome P450 3A4

>  <Target Organism>
Homo sapiens

>  <Target Description>
Target is a single protein chain

>  <Sequence Accession>
P08684

>  <Reference>
Bioorg Med Chem Lett 28 (4), 711-719 (2018)

>  <Pubmed ID>
29366653

>  <DOI>
10.1016/j.bmcl.2018.01.014

$$$$
2296774
Actelion Java MolfileCreator 1.0

 27 29  0  0  0  0  0  0  0  0999 V2000
    0.0000   -0.0000   -0.0000 O   0  0  0  0  0  0  0  0  0  0  0  0
    1.2850   -0.7377   -0.0000 C   0  0  0  0  0  0  0  0  0  0  0  0
    1.2731   -2.2250   -0.0000 N   0  0  0  0  0  0  0  0  0  0  0  0
    2.5701    0.0238   -0.0000 C   0  0  0  0  0  0  0  0  0  0  0  0
   -0.0357   -2.9627   -0.0000 C   0  0  0  0  0  0  0  0  0  0  0  0
    2.5582   -2.9627   -0.0000 C   0  0  0  0  0  0  0  0  0  0  0  0
    2.5582    1.5349   -0.0000 C   0  0  0  0  0  0  0  0  0  0  0  0
    3.8551   -0.7139   -0.0000 C   0  0  0  0  0  0  0  0  0  0  0  0
   -0.0476   -4.4501   -0.0000 C   0  0  0  0  0  0  0  0  0  0  0  0
    1.2493    2.2964   -0.0000 C   0  0  0  0  0  0  0  0  0  0  0  0
    3.8551    2.2964   -0.0000 C   0  0  0  0  0  0  0  0  0  0  0  0
    5.1521    0.0595   -0.0000 C   0  0  0  0  0  0  0  0  0  0  0  0
   -1.3683   -5.1759   -0.0000 C   0  0  0  0  0  0  0  0  0  0  0  0
    1.2374   -5.1759   -0.0000 C   0  0  0  0  0  0  0  0  0  0  0  0
    1.2374    3.8194   -0.0000 N   0  0  0  0  0  0  0  0  0  0  0  0
   -0.0595    1.5587   -0.0000 N   0  0  0  0  0  0  0  0  0  0  0  0
    3.8432    3.8194   -0.0000 N   0  0  0  0  0  0  0  0  0  0  0  0
    5.1402    1.5587   -0.0000 C   0  0  0  0  0  0  0  0  0  0  0  0
   -1.3802   -6.6632   -0.0000 C   0  0  0  0  0  0  0  0  0  0  0  0
    1.2255   -6.6632   -0.0000 C   0  0  0  0  0  0  0  0  0  0  0  0
    2.5225    4.5809   -0.0000 C   0  0  0  0  0  0  0  0  0  0  0  0
   -1.3683    2.3202   -0.0000 C   0  0  0  0  0  0  0  0  0  0  0  0
   -0.0952   -7.4009   -0.0000 C   0  0  0  0  0  0  0  0  0  0  0  0
    2.5106    6.0921   -0.0000 N   0  0  0  0  0  0  0  0  0  0  0  0
   -2.6772    1.5825   -0.0000 C   0  0  0  0  0  0  0  0  0  0  0  0
   -3.9860    2.3440   -0.0000 C   0  0  0  0  0  0  0  0  0  0  0  0
   -5.2948    1.6063   -0.0000 C   0  0  0  0  0  0  0  0  0  0  0  0
  1  2  2  0  0  0  0
  2  3  1  0  0  0  0
  2  4  1  0  0  0  0
  3  5  1  0  0  0  0
  3  6  1  0  0  0  0
  4  7  1  0  0  0  0
  4  8  2  0  0  0  0
  5  9  1  0  0  0  0
  7 10  2  0  0  0  0
  7 11  1  0  0  0  0
  8 12  1  0  0  0  0
  9 13  2  0  0  0  0
  9 14  1  0  0  0  0
 10 15  1  0  0  0  0
 10 16  1  0  0  0  0
 11 17  2  0  0  0  0
 11 18  1  0  0  0  0
 13 19  1  0  0  0  0
 14 20  2  0  0  0  0
 15 21  2  0  0  0  0
 16 22  1  0  0  0  0
 19 23  2  0  0  0  0
 21 24  1  0  0  0  0
 22 25  1  0  0  0  0
 25 26  1  0  0  0  0
 26 27  1  0  0  0  0
 12 18  2  0  0  0  0
 17 21  1  0  0  0  0
 20 23  1  0  0  0  0
M  END
>  <MolRegNo>
2296774

>  <m>
=

>  <Value>
8500

>  <Unit>
nM

>  <Type>
IC50

>  <pValue>
5.07

>  <Ligand Efficiency>
0

>  <Binding Efficiency>
0

>  <Surface Efficiency>
0

>  <Assay Index>
1170294

>  <Assay Category>


>  <Assay Organism>
Homo sapiens

>  <Target ID>
17045

>  <Target Name>
Cytochrome P450 3A4

>  <Target Organism>
Homo sapiens

>  <Target Description>
Target is a single protein chain

>  <Sequence Accession>
P08684

>  <Reference>
Bioorg Med Chem Lett 28 (4), 711-719 (2018)

>  <Pubmed ID>
29366653

>  <DOI>
10.1016/j.bmcl.2018.01.014

$$$$
2282589
Actelion Java MolfileCreator 1.0

 32 36  0  0  0  0  0  0  0  0999 V2000
    0.0000   -0.0000   -0.0000 O   0  0  0  0  0  0  0  0  0  0  0  0
    1.2982   -0.7385   -0.0000 C   0  0  0  0  0  0  0  0  0  0  0  0
    1.2863   -2.2392   -0.0000 N   0  0  0  0  0  0  0  0  0  0  0  0
    2.5965    0.0238   -0.0000 C   0  0  0  0  0  0  0  0  0  0  0  0
   -0.0357   -2.9776   -0.0000 C   0  0  0  0  0  0  0  0  0  0  0  0
    2.5846   -2.9776   -0.0000 C   0  0  0  0  0  0  0  0  0  0  0  0
    2.5846    1.5484   -0.0000 C   0  0  0  0  0  0  0  0  0  0  0  0
    3.8947   -0.7146   -0.0000 C   0  0  0  0  0  0  0  0  0  0  0  0
   -0.0476   -4.4665   -0.0000 C   0  0  0  0  0  0  0  0  0  0  0  0
    2.5608   -4.4784   -0.0000 C   0  0  0  0  0  0  0  0  0  0  0  0
    3.8709    2.3106   -0.0000 C   0  0  0  0  0  0  0  0  0  0  0  0
    5.1930    0.0476   -0.0000 C   0  0  0  0  0  0  0  0  0  0  0  0
    1.2387   -5.2168   -0.0000 N   0  0  0  0  0  0  0  0  0  0  0  0
    5.1692    1.5722   -0.0000 C   0  0  0  0  0  0  0  0  0  0  0  0
    1.2149   -6.7175   -0.0000 C   0  0  0  0  0  0  0  0  0  0  0  0
    6.4555    2.3464   -0.0000 C   0  0  0  0  0  0  0  0  0  0  0  0
    7.7538    1.6079   -0.0000 C   0  0  0  0  0  0  0  0  0  0  0  0
    6.4317    3.8590   -0.0000 C   0  0  0  0  0  0  0  0  0  0  0  0
    9.0401    2.3821   -0.0000 N   0  0  0  0  0  0  0  0  0  0  0  0
    7.7180    4.6332   -0.0000 C   0  0  0  0  0  0  0  0  0  0  0  0
    9.0282    3.8947   -0.0000 C   0  0  0  0  0  0  0  0  0  0  0  0
   10.4575    1.9295   -0.0000 C   0  0  0  0  0  0  0  0  0  0  0  0
   10.4455    4.3712   -0.0000 N   0  0  0  0  0  0  0  0  0  0  0  0
   10.9101    0.5122   -0.0000 C   0  0  0  0  0  0  0  0  0  0  0  0
   11.3269    3.1682   -0.0000 C   0  0  0  0  0  0  0  0  0  0  0  0
    9.8857   -0.5955   -0.0000 C   0  0  0  0  0  0  0  0  0  0  0  0
   12.3631    0.2144   -0.0000 C   0  0  0  0  0  0  0  0  0  0  0  0
   10.3383   -2.0129   -0.0000 C   0  0  0  0  0  0  0  0  0  0  0  0
   12.8277   -1.2030   -0.0000 C   0  0  0  0  0  0  0  0  0  0  0  0
   11.8033   -2.3106   -0.0000 C   0  0  0  0  0  0  0  0  0  0  0  0
   12.2679   -3.7280   -0.0000 C   0  0  0  0  0  0  0  0  0  0  0  0
   12.7324   -5.1454   -0.0000 N   0  0  0  0  0  0  0  0  0  0  0  0
  1  2  2  0  0  0  0
  2  3  1  0  0  0  0
  2  4  1  0  0  0  0
  3  5  1  0  0  0  0
  3  6  1  0  0  0  0
  4  7  2  0  0  0  0
  4  8  1  0  0  0  0
  5  9  1  0  0  0  0
  6 10  1  0  0  0  0
  7 11  1  0  0  0  0
  8 12  2  0  0  0  0
  9 13  1  0  0  0  0
 11 14  2  0  0  0  0
 13 15  1  0  0  0  0
 14 16  1  0  0  0  0
 16 17  2  0  0  0  0
 16 18  1  0  0  0  0
 17 19  1  0  0  0  0
 18 20  2  0  0  0  0
 19 21  1  0  0  0  0
 19 22  1  0  0  0  0
 21 23  2  0  0  0  0
 22 24  1  0  0  0  0
 22 25  2  0  0  0  0
 24 26  2  0  0  0  0
 24 27  1  0  0  0  0
 26 28  1  0  0  0  0
 27 29  2  0  0  0  0
 28 30  2  0  0  0  0
 30 31  1  0  0  0  0
 31 32  3  0  0  0  0
 10 13  1  0  0  0  0
 12 14  1  0  0  0  0
 20 21  1  0  0  0  0
 23 25  1  0  0  0  0
 29 30  1  0  0  0  0
M  END
>  <MolRegNo>
2282589

>  <m>
=

>  <Value>
3900

>  <Unit>
nM

>  <Type>
IC50

>  <pValue>
5.41

>  <Ligand Efficiency>
0

>  <Binding Efficiency>
0

>  <Surface Efficiency>
0

>  <Assay Index>
1172041

>  <Assay Category>


>  <Assay Organism>
Homo sapiens

>  <Target ID>
17045

>  <Target Name>
Cytochrome P450 3A4

>  <Target Organism>
Homo sapiens

>  <Target Description>
Target is a single protein chain

>  <Sequence Accession>
P08684

>  <Reference>
J Med Chem 61 (10), 4348-4369 (2018)

>  <Pubmed ID>
29683667

>  <DOI>
10.1021/acs.jmedchem.7b01714

$$$$
2286923
Actelion Java MolfileCreator 1.0

 31 35  0  0  0  0  0  0  0  0999 V2000
    0.0000   -0.0000   -0.0000 O   0  0  0  0  0  0  0  0  0  0  0  0
    1.2983   -0.7385   -0.0000 C   0  0  0  0  0  0  0  0  0  0  0  0
    1.2864   -2.2392   -0.0000 N   0  0  0  0  0  0  0  0  0  0  0  0
    2.5965    0.0238   -0.0000 C   0  0  0  0  0  0  0  0  0  0  0  0
   -0.0357   -2.9777   -0.0000 C   0  0  0  0  0  0  0  0  0  0  0  0
    2.5846   -2.9777   -0.0000 C   0  0  0  0  0  0  0  0  0  0  0  0
    2.5846    1.5484   -0.0000 C   0  0  0  0  0  0  0  0  0  0  0  0
    3.8948   -0.7146   -0.0000 C   0  0  0  0  0  0  0  0  0  0  0  0
   -0.0476   -4.4665   -0.0000 C   0  0  0  0  0  0  0  0  0  0  0  0
    2.5608   -4.4784   -0.0000 C   0  0  0  0  0  0  0  0  0  0  0  0
    3.8710    2.3107   -0.0000 C   0  0  0  0  0  0  0  0  0  0  0  0
    5.1931    0.0476   -0.0000 C   0  0  0  0  0  0  0  0  0  0  0  0
    1.2387   -5.2169   -0.0000 N   0  0  0  0  0  0  0  0  0  0  0  0
    5.1693    1.5722   -0.0000 C   0  0  0  0  0  0  0  0  0  0  0  0
    6.4556    2.3464   -0.0000 C   0  0  0  0  0  0  0  0  0  0  0  0
    7.7539    1.6080   -0.0000 N   0  0  0  0  0  0  0  0  0  0  0  0
    6.4318    3.8591   -0.0000 C   0  0  0  0  0  0  0  0  0  0  0  0
    9.0403    2.3821   -0.0000 N   0  0  0  0  0  0  0  0  0  0  0  0
    7.7182    4.6333   -0.0000 C   0  0  0  0  0  0  0  0  0  0  0  0
    9.0283    3.8948   -0.0000 C   0  0  0  0  0  0  0  0  0  0  0  0
   10.4576    1.9295   -0.0000 C   0  0  0  0  0  0  0  0  0  0  0  0
   10.4457    4.3712   -0.0000 N   0  0  0  0  0  0  0  0  0  0  0  0
   10.9102    0.5122   -0.0000 C   0  0  0  0  0  0  0  0  0  0  0  0
   11.3271    3.1683   -0.0000 C   0  0  0  0  0  0  0  0  0  0  0  0
    9.8859   -0.5955   -0.0000 C   0  0  0  0  0  0  0  0  0  0  0  0
   12.3634    0.2144   -0.0000 C   0  0  0  0  0  0  0  0  0  0  0  0
   10.3385   -2.0129   -0.0000 C   0  0  0  0  0  0  0  0  0  0  0  0
   12.8279   -1.2030   -0.0000 C   0  0  0  0  0  0  0  0  0  0  0  0
   11.8036   -2.3107   -0.0000 C   0  0  0  0  0  0  0  0  0  0  0  0
   12.2681   -3.7281   -0.0000 C   0  0  0  0  0  0  0  0  0  0  0  0
   12.7326   -5.1454   -0.0000 N   0  0  0  0  0  0  0  0  0  0  0  0
  1  2  2  0  0  0  0
  2  3  1  0  0  0  0
  2  4  1  0  0  0  0
  3  5  1  0  0  0  0
  3  6  1  0  0  0  0
  4  7  2  0  0  0  0
  4  8  1  0  0  0  0
  5  9  1  0  0  0  0
  6 10  1  0  0  0  0
  7 11  1  0  0  0  0
  8 12  2  0  0  0  0
  9 13  1  0  0  0  0
 11 14  2  0  0  0  0
 14 15  1  0  0  0  0
 15 16  2  0  0  0  0
 15 17  1  0  0  0  0
 16 18  1  0  0  0  0
 17 19  2  0  0  0  0
 18 20  1  0  0  0  0
 18 21  1  0  0  0  0
 20 22  2  0  0  0  0
 21 23  1  0  0  0  0
 21 24  2  0  0  0  0
 23 25  2  0  0  0  0
 23 26  1  0  0  0  0
 25 27  1  0  0  0  0
 26 28  2  0  0  0  0
 27 29  2  0  0  0  0
 29 30  1  0  0  0  0
 30 31  3  0  0  0  0
 10 13  1  0  0  0  0
 12 14  1  0  0  0  0
 19 20  1  0  0  0  0
 22 24  1  0  0  0  0
 28 29  1  0  0  0  0
M  END
>  <MolRegNo>
2286923

>  <m>
=

>  <Value>
5600

>  <Unit>
nM

>  <Type>
IC50

>  <pValue>
5.25

>  <Ligand Efficiency>
0

>  <Binding Efficiency>
0

>  <Surface Efficiency>
0

>  <Assay Index>
1172041

>  <Assay Category>


>  <Assay Organism>
Homo sapiens

>  <Target ID>
17045

>  <Target Name>
Cytochrome P450 3A4

>  <Target Organism>
Homo sapiens

>  <Target Description>
Target is a single protein chain

>  <Sequence Accession>
P08684

>  <Reference>
J Med Chem 61 (10), 4348-4369 (2018)

>  <Pubmed ID>
29683667

>  <DOI>
10.1021/acs.jmedchem.7b01714

$$$$
2292135
Actelion Java MolfileCreator 1.0

 29 34  0  0  0  0  0  0  0  0999 V2000
    0.0000   -0.0000   -0.0000 O   0  0  0  0  0  0  0  0  0  0  0  0
    0.4652   -1.4194   -0.0000 C   0  0  0  0  0  0  0  0  0  0  0  0
    0.9900    1.1331   -0.0000 C   0  0  0  0  0  0  0  0  0  0  0  0
   -0.5367   -2.5286   -0.0000 C   0  0  0  0  0  0  0  0  0  0  0  0
    1.9203   -1.7056   -0.0000 C   0  0  0  0  0  0  0  0  0  0  0  0
   -2.0158   -2.2066   -0.0000 N   0  0  0  0  0  0  0  0  0  0  0  0
   -0.0835   -3.9480   -0.0000 C   0  0  0  0  0  0  0  0  0  0  0  0
    2.3855   -3.1250   -0.0000 C   0  0  0  0  0  0  0  0  0  0  0  0
   -3.1369   -3.2085   -0.0000 C   0  0  0  0  0  0  0  0  0  0  0  0
   -2.6479   -0.8230   -0.0000 C   0  0  0  0  0  0  0  0  0  0  0  0
    1.3836   -4.2462   -0.0000 C   0  0  0  0  0  0  0  0  0  0  0  0
    3.7572   -3.7095   -0.0000 C   0  0  0  0  0  0  0  0  0  0  0  0
   -4.4490   -2.4571   -0.0000 C   0  0  0  0  0  0  0  0  0  0  0  0
   -3.1489   -4.6995   -0.0000 C   0  0  0  0  0  0  0  0  0  0  0  0
   -4.1508   -0.9781   -0.0000 N   0  0  0  0  0  0  0  0  0  0  0  0
    2.1350   -5.5344   -0.0000 C   0  0  0  0  0  0  0  0  0  0  0  0
    3.6021   -5.1885   -0.0000 N   0  0  0  0  0  0  0  0  0  0  0  0
   -5.7610   -3.2085   -0.0000 C   0  0  0  0  0  0  0  0  0  0  0  0
   -4.4609   -5.4390   -0.0000 C   0  0  0  0  0  0  0  0  0  0  0  0
   -5.7610   -4.6995   -0.0000 C   0  0  0  0  0  0  0  0  0  0  0  0
   -4.4609   -6.9299   -0.0000 C   0  0  0  0  0  0  0  0  0  0  0  0
   -3.1727   -7.6694   -0.0000 C   0  0  0  0  0  0  0  0  0  0  0  0
   -5.7729   -7.6694   -0.0000 C   0  0  0  0  0  0  0  0  0  0  0  0
   -3.1847   -9.1723   -0.0000 C   0  0  0  0  0  0  0  0  0  0  0  0
   -1.7414   -7.1923   -0.0000 C   0  0  0  0  0  0  0  0  0  0  0  0
   -5.7849   -9.1604   -0.0000 C   0  0  0  0  0  0  0  0  0  0  0  0
   -4.4967   -9.9118   -0.0000 N   0  0  0  0  0  0  0  0  0  0  0  0
   -1.7534   -9.6255   -0.0000 N   0  0  0  0  0  0  0  0  0  0  0  0
   -0.8588   -8.4089   -0.0000 C   0  0  0  0  0  0  0  0  0  0  0  0
  1  2  1  0  0  0  0
  1  3  1  0  0  0  0
  2  4  2  0  0  0  0
  2  5  1  0  0  0  0
  4  6  1  0  0  0  0
  4  7  1  0  0  0  0
  5  8  2  0  0  0  0
  6  9  1  0  0  0  0
  6 10  1  0  0  0  0
  7 11  2  0  0  0  0
  8 12  1  0  0  0  0
  9 13  2  0  0  0  0
  9 14  1  0  0  0  0
 10 15  2  0  0  0  0
 11 16  1  0  0  0  0
 12 17  1  0  0  0  0
 13 18  1  0  0  0  0
 14 19  2  0  0  0  0
 18 20  2  0  0  0  0
 19 21  1  0  0  0  0
 21 22  2  0  0  0  0
 21 23  1  0  0  0  0
 22 24  1  0  0  0  0
 22 25  1  0  0  0  0
 23 26  2  0  0  0  0
 24 27  2  0  0  0  0
 24 28  1  0  0  0  0
 25 29  2  0  0  0  0
  8 11  1  0  0  0  0
 13 15  1  0  0  0  0
 16 17  1  0  0  0  0
 19 20  1  0  0  0  0
 26 27  1  0  0  0  0
 28 29  1  0  0  0  0
M  END
>  <MolRegNo>
2292135

>  <m>
=

>  <Value>
3600

>  <Unit>
nM

>  <Type>
IC50

>  <pValue>
5.44

>  <Ligand Efficiency>
0

>  <Binding Efficiency>
0

>  <Surface Efficiency>
0

>  <Assay Index>
1172096

>  <Assay Category>


>  <Assay Organism>
Homo sapiens

>  <Target ID>
17045

>  <Target Name>
Cytochrome P450 3A4

>  <Target Organism>
Homo sapiens

>  <Target Description>
Target is a single protein chain

>  <Sequence Accession>
P08684

>  <Reference>
J Med Chem 61 (10), 4386-4396 (2018)

>  <Pubmed ID>
29688013

>  <DOI>
10.1021/acs.jmedchem.8b00060

$$$$
2293127
Actelion Java MolfileCreator 1.0

 28 32  0  0  0  0  0  0  0  0999 V2000
    0.0000   -0.0000   -0.0000 O   0  0  0  0  0  0  0  0  0  0  0  0
    1.2780    0.7455   -0.0000 N   0  0  0  0  0  0  0  0  0  0  0  0
    1.2780    2.2484   -0.0000 C   0  0  0  0  0  0  0  0  0  0  0  0
   -0.0237    3.0057   -0.0000 C   0  0  0  0  0  0  0  0  0  0  0  0
    2.5679    2.9939   -0.0000 C   0  0  0  0  0  0  0  0  0  0  0  0
   -0.0237    4.5086   -0.0000 C   0  0  0  0  0  0  0  0  0  0  0  0
   -1.3254    2.2839   -0.0000 C   0  0  0  0  0  0  0  0  0  0  0  0
    2.5561    4.4968   -0.0000 C   0  0  0  0  0  0  0  0  0  0  0  0
    1.2544    5.2659   -0.0000 C   0  0  0  0  0  0  0  0  0  0  0  0
   -1.3254    5.2778   -0.0000 C   0  0  0  0  0  0  0  0  0  0  0  0
   -0.0473    6.0115   -0.0000 C   0  0  0  0  0  0  0  0  0  0  0  0
   -2.6271    3.0294   -0.0000 C   0  0  0  0  0  0  0  0  0  0  0  0
    3.8459    5.2423   -0.0000 C   0  0  0  0  0  0  0  0  0  0  0  0
    1.2544    6.7688   -0.0000 C   0  0  0  0  0  0  0  0  0  0  0  0
   -2.6271    4.5323   -0.0000 C   0  0  0  0  0  0  0  0  0  0  0  0
   -3.9287    2.2957   -0.0000 O   0  0  0  0  0  0  0  0  0  0  0  0
    3.8459    6.7451   -0.0000 C   0  0  0  0  0  0  0  0  0  0  0  0
    5.2423    4.7808   -0.0000 C   0  0  0  0  0  0  0  0  0  0  0  0
    2.5561    7.5143   -0.0000 C   0  0  0  0  0  0  0  0  0  0  0  0
    5.2541    7.1948   -0.0000 C   0  0  0  0  0  0  0  0  0  0  0  0
    3.8222    8.2598   -0.0000 C   0  0  0  0  0  0  0  0  0  0  0  0
    6.1180    5.9878   -0.0000 C   0  0  0  0  0  0  0  0  0  0  0  0
    5.2304    8.7095   -0.0000 C   0  0  0  0  0  0  0  0  0  0  0  0
    6.5203    9.4787   -0.0000 C   0  0  0  0  0  0  0  0  0  0  0  0
    3.9169    9.4550   -0.0000 C   0  0  0  0  0  0  0  0  0  0  0  0
    6.4966   10.9934   -0.0000 N   0  0  0  0  0  0  0  0  0  0  0  0
    3.8932   10.9697   -0.0000 C   0  0  0  0  0  0  0  0  0  0  0  0
    5.1713   11.7507   -0.0000 C   0  0  0  0  0  0  0  0  0  0  0  0
  1  2  1  0  0  0  0
  2  3  2  0  0  0  0
  3  4  1  0  0  0  0
  3  5  1  0  0  0  0
  4  6  1  0  0  0  0
  4  7  1  6  0  0  0
  8  5  1  1  0  0  0
  6  9  1  0  0  0  0
  6 10  1  0  0  0  0
  6 11  1  6  0  0  0
  7 12  1  0  0  0  0
  8 13  1  0  0  0  0
  9 14  1  6  0  0  0
 10 15  1  0  0  0  0
 12 16  1  6  0  0  0
 13 17  1  0  0  0  0
 13 18  1  6  0  0  0
 14 19  1  0  0  0  0
 17 20  1  0  0  0  0
 17 21  1  6  0  0  0
 18 22  1  0  0  0  0
 20 23  1  0  0  0  0
 23 24  2  0  0  0  0
 23 25  1  0  0  0  0
 24 26  1  0  0  0  0
 25 27  2  0  0  0  0
 26 28  2  0  0  0  0
  8  9  1  0  0  0  0
 12 15  1  0  0  0  0
 17 19  1  0  0  0  0
 20 22  2  0  0  0  0
 27 28  1  0  0  0  0
M  END
>  <MolRegNo>
2293127

>  <m>
=

>  <Value>
8570

>  <Unit>
nM

>  <Type>
IC50

>  <pValue>
5.07

>  <Ligand Efficiency>
0

>  <Binding Efficiency>
0

>  <Surface Efficiency>
0

>  <Assay Index>
1172677

>  <Assay Category>


>  <Assay Organism>
Homo sapiens

>  <Target ID>
17045

>  <Target Name>
Cytochrome P450 3A4

>  <Target Organism>
Homo sapiens

>  <Target Description>
Target is a single protein chain

>  <Sequence Accession>
P08684

>  <Reference>
J Med Chem 61 (11), 4946-4960 (2018)

>  <Pubmed ID>
29792703

>  <DOI>
10.1021/acs.jmedchem.8b00419

$$$$
2286706
Actelion Java MolfileCreator 1.0

 35 38  0  0  0  0  0  0  0  0999 V2000
    0.0000   -0.0000   -0.0000 Cl  0  0  0  0  0  0  0  0  0  0  0  0
   -1.3200   -0.7254   -0.0000 C   0  0  0  0  0  0  0  0  0  0  0  0
   -1.3438   -2.2237   -0.0000 C   0  0  0  0  0  0  0  0  0  0  0  0
   -2.6399    0.0476   -0.0000 C   0  0  0  0  0  0  0  0  0  0  0  0
   -2.6637   -2.9491   -0.0000 C   0  0  0  0  0  0  0  0  0  0  0  0
   -3.9599   -0.6897   -0.0000 C   0  0  0  0  0  0  0  0  0  0  0  0
   -3.9718   -2.1643   -0.0000 C   0  0  0  0  0  0  0  0  0  0  0  0
   -5.2918   -2.8897   -0.0000 C   0  0  0  0  0  0  0  0  0  0  0  0
   -6.5999   -2.1286   -0.0000 C   0  0  0  0  0  0  0  0  0  0  0  0
   -6.5523   -3.7102   -0.0000 C   0  0  0  0  0  0  0  0  0  0  0  0
   -4.1264   -3.8053   -0.0000 C   0  0  0  0  0  0  0  0  0  0  0  0
   -6.6118   -0.6184   -0.0000 O   0  0  0  0  0  0  0  0  0  0  0  0
   -7.9080   -2.8659   -0.0000 N   0  0  0  0  0  0  0  0  0  0  0  0
   -6.1599   -5.1372   -0.0000 C   0  0  0  0  0  0  0  0  0  0  0  0
   -4.6615   -5.1967   -0.0000 C   0  0  0  0  0  0  0  0  0  0  0  0
   -9.2160   -2.1048   -0.0000 C   0  0  0  0  0  0  0  0  0  0  0  0
  -10.5241   -2.8421   -0.0000 C   0  0  0  0  0  0  0  0  0  0  0  0
  -10.5241   -4.3167   -0.0000 N   0  0  0  0  0  0  0  0  0  0  0  0
  -11.8322   -2.0810   -0.0000 C   0  0  0  0  0  0  0  0  0  0  0  0
  -11.8322   -5.0540   -0.0000 C   0  0  0  0  0  0  0  0  0  0  0  0
   -9.2398   -5.0421   -0.0000 C   0  0  0  0  0  0  0  0  0  0  0  0
  -13.1403   -2.8183   -0.0000 C   0  0  0  0  0  0  0  0  0  0  0  0
  -11.8441   -6.5404   -0.0000 C   0  0  0  0  0  0  0  0  0  0  0  0
   -9.2517   -6.5404   -0.0000 C   0  0  0  0  0  0  0  0  0  0  0  0
  -14.4484   -2.0573   -0.0000 C   0  0  0  0  0  0  0  0  0  0  0  0
  -13.1522   -4.3167   -0.0000 C   0  0  0  0  0  0  0  0  0  0  0  0
  -10.5598   -7.2777   -0.0000 C   0  0  0  0  0  0  0  0  0  0  0  0
  -15.7565   -2.7945   -0.0000 C   0  0  0  0  0  0  0  0  0  0  0  0
  -14.4722   -5.0540   -0.0000 C   0  0  0  0  0  0  0  0  0  0  0  0
   -9.5133   -8.3242   -0.0000 O   0  0  0  0  0  0  0  0  0  0  0  0
  -11.6300   -8.3361   -0.0000 C   0  0  0  0  0  0  0  0  0  0  0  0
  -15.7683   -4.2929   -0.0000 C   0  0  0  0  0  0  0  0  0  0  0  0
  -13.0927   -7.9436   -0.0000 F   0  0  0  0  0  0  0  0  0  0  0  0
  -11.2495   -9.7749   -0.0000 F   0  0  0  0  0  0  0  0  0  0  0  0
  -12.7003   -9.3825   -0.0000 F   0  0  0  0  0  0  0  0  0  0  0  0
  1  2  1  0  0  0  0
  2  3  2  0  0  0  0
  2  4  1  0  0  0  0
  3  5  1  0  0  0  0
  4  6  2  0  0  0  0
  5  7  2  0  0  0  0
  7  8  1  0  0  0  0
  8  9  1  0  0  0  0
  8 10  1  0  0  0  0
  8 11  1  0  0  0  0
  9 12  2  0  0  0  0
  9 13  1  0  0  0  0
 10 14  1  0  0  0  0
 11 15  1  0  0  0  0
 13 16  1  0  0  0  0
 16 17  1  0  0  0  0
 17 18  1  1  0  0  0
 17 19  1  0  0  0  0
 18 20  1  0  0  0  0
 18 21  1  0  0  0  0
 19 22  1  0  0  0  0
 20 23  1  0  0  0  0
 21 24  1  0  0  0  0
 22 25  2  0  0  0  0
 22 26  1  0  0  0  0
 23 27  1  0  0  0  0
 25 28  1  0  0  0  0
 26 29  2  0  0  0  0
 27 30  1  0  0  0  0
 27 31  1  0  0  0  0
 28 32  2  0  0  0  0
 31 33  1  0  0  0  0
 31 34  1  0  0  0  0
 31 35  1  0  0  0  0
  6  7  1  0  0  0  0
 14 15  1  0  0  0  0
 24 27  1  0  0  0  0
 29 32  1  0  0  0  0
M  END
>  <MolRegNo>
2286706

>  <m>
=

>  <Value>
2164

>  <Unit>
nM

>  <Type>
IC50

>  <pValue>
5.67

>  <Ligand Efficiency>
0

>  <Binding Efficiency>
0

>  <Surface Efficiency>
0

>  <Assay Index>
1172926

>  <Assay Category>


>  <Assay Organism>
Homo sapiens

>  <Target ID>
17045

>  <Target Name>
Cytochrome P450 3A4

>  <Target Organism>
Homo sapiens

>  <Target Description>
Target is a single protein chain

>  <Sequence Accession>
P08684

>  <Reference>
Medchemcomm 7 (11), 2145-2158 (2016)

>  <Pubmed ID>


>  <DOI>
10.1039/C6MD00387G

$$$$
1368743
Actelion Java MolfileCreator 1.0

 23 25  0  0  0  0  0  0  0  0999 V2000
    0.0000   -0.0000   -0.0000 Cl  0  0  0  0  0  0  0  0  0  0  0  0
    1.4538    0.3191   -0.0000 C   0  0  0  0  0  0  0  0  0  0  0  0
    2.4467   -0.7801   -0.0000 C   0  0  0  0  0  0  0  0  0  0  0  0
    1.9030    1.7612   -0.0000 C   0  0  0  0  0  0  0  0  0  0  0  0
    1.9739   -2.1985   -0.0000 O   0  0  0  0  0  0  0  0  0  0  0  0
    3.9006   -0.4610   -0.0000 C   0  0  0  0  0  0  0  0  0  0  0  0
    3.3569    2.0803   -0.0000 C   0  0  0  0  0  0  0  0  0  0  0  0
    2.9668   -3.2978   -0.0000 C   0  0  0  0  0  0  0  0  0  0  0  0
    4.3497    0.9811   -0.0000 C   0  0  0  0  0  0  0  0  0  0  0  0
    3.8060    3.5223   -0.0000 N   0  0  0  0  0  0  0  0  0  0  0  0
    2.9077    4.7516   -0.0000 C   0  0  0  0  0  0  0  0  0  0  0  0
    5.2244    3.9951   -0.0000 C   0  0  0  0  0  0  0  0  0  0  0  0
    1.3947    4.7634   -0.0000 S   0  0  0  0  0  0  0  0  0  0  0  0
    3.7824    5.9809   -0.0000 N   0  0  0  0  0  0  0  0  0  0  0  0
    6.4300    3.1205   -0.0000 O   0  0  0  0  0  0  0  0  0  0  0  0
    5.2126    5.5081   -0.0000 C   0  0  0  0  0  0  0  0  0  0  0  0
    3.3096    7.4229   -0.0000 C   0  0  0  0  0  0  0  0  0  0  0  0
    4.3024    8.5458   -0.0000 C   0  0  0  0  0  0  0  0  0  0  0  0
    5.7563    8.2503   -0.0000 C   0  0  0  0  0  0  0  0  0  0  0  0
    3.8296    9.9878   -0.0000 C   0  0  0  0  0  0  0  0  0  0  0  0
    6.7492    9.3732   -0.0000 C   0  0  0  0  0  0  0  0  0  0  0  0
    4.8225   11.1107   -0.0000 C   0  0  0  0  0  0  0  0  0  0  0  0
    6.2764   10.8152   -0.0000 C   0  0  0  0  0  0  0  0  0  0  0  0
  1  2  1  0  0  0  0
  2  3  2  0  0  0  0
  2  4  1  0  0  0  0
  3  5  1  0  0  0  0
  3  6  1  0  0  0  0
  4  7  2  0  0  0  0
  5  8  1  0  0  0  0
  6  9  2  0  0  0  0
  7 10  1  0  0  0  0
 10 11  1  0  0  0  0
 10 12  1  0  0  0  0
 11 13  2  0  0  0  0
 11 14  1  0  0  0  0
 12 15  2  0  0  0  0
 12 16  1  0  0  0  0
 14 17  1  0  0  0  0
 17 18  1  0  0  0  0
 18 19  2  0  0  0  0
 18 20  1  0  0  0  0
 19 21  1  0  0  0  0
 20 22  2  0  0  0  0
 21 23  2  0  0  0  0
  7  9  1  0  0  0  0
 14 16  1  0  0  0  0
 22 23  1  0  0  0  0
M  END
>  <MolRegNo>
1368743

>  <m>
=

>  <Value>
4015

>  <Unit>
nM

>  <Type>
IC50

>  <pValue>
5.4

>  <Ligand Efficiency>
0

>  <Binding Efficiency>
0

>  <Surface Efficiency>
0

>  <Assay Index>
1176168

>  <Assay Category>


>  <Assay Organism>
Homo sapiens

>  <Target ID>
17045

>  <Target Name>
Cytochrome P450 3A4

>  <Target Organism>
Homo sapiens

>  <Target Description>
Target is a single protein chain

>  <Sequence Accession>
P08684

>  <Reference>
ACS Med Chem Lett 8 (8), 886-891 (2017)

>  <Pubmed ID>
28835807

>  <DOI>
10.1021/acsmedchemlett.7b00230

$$$$
2282612
Actelion Java MolfileCreator 1.0

 25 27  0  0  0  0  0  0  0  0999 V2000
    0.0000   -0.0000   -0.0000 Cl  0  0  0  0  0  0  0  0  0  0  0  0
    0.8662    1.2222   -0.0000 C   0  0  0  0  0  0  0  0  0  0  0  0
    2.3495    1.0798   -0.0000 C   0  0  0  0  0  0  0  0  0  0  0  0
    0.2373    2.5987   -0.0000 C   0  0  0  0  0  0  0  0  0  0  0  0
    2.9547   -0.2729   -0.0000 N   0  0  0  0  0  0  0  0  0  0  0  0
    3.2157    2.3139   -0.0000 C   0  0  0  0  0  0  0  0  0  0  0  0
    1.1036    3.8209   -0.0000 C   0  0  0  0  0  0  0  0  0  0  0  0
    2.0647   -1.4714   -0.0000 C   0  0  0  0  0  0  0  0  0  0  0  0
    4.4379   -0.4153   -0.0000 C   0  0  0  0  0  0  0  0  0  0  0  0
    2.5868    3.6904   -0.0000 C   0  0  0  0  0  0  0  0  0  0  0  0
    0.4865    5.1974   -0.0000 N   0  0  0  0  0  0  0  0  0  0  0  0
   -0.9849    5.5178   -0.0000 C   0  0  0  0  0  0  0  0  0  0  0  0
    1.2222    6.5027   -0.0000 C   0  0  0  0  0  0  0  0  0  0  0  0
   -2.1003    4.5210   -0.0000 S   0  0  0  0  0  0  0  0  0  0  0  0
   -1.1629    7.0129   -0.0000 N   0  0  0  0  0  0  0  0  0  0  0  0
    2.6936    6.6806   -0.0000 O   0  0  0  0  0  0  0  0  0  0  0  0
    0.2017    7.6181   -0.0000 C   0  0  0  0  0  0  0  0  0  0  0  0
   -2.4682    7.7723   -0.0000 C   0  0  0  0  0  0  0  0  0  0  0  0
   -3.7734    7.0366   -0.0000 C   0  0  0  0  0  0  0  0  0  0  0  0
   -3.7853    5.5415   -0.0000 C   0  0  0  0  0  0  0  0  0  0  0  0
   -5.0787    7.7961   -0.0000 C   0  0  0  0  0  0  0  0  0  0  0  0
   -5.1025    4.8058   -0.0000 C   0  0  0  0  0  0  0  0  0  0  0  0
   -6.3840    7.0604   -0.0000 C   0  0  0  0  0  0  0  0  0  0  0  0
   -6.4077    5.5652   -0.0000 C   0  0  0  0  0  0  0  0  0  0  0  0
   -7.7130    4.8295   -0.0000 F   0  0  0  0  0  0  0  0  0  0  0  0
  1  2  1  0  0  0  0
  2  3  2  0  0  0  0
  2  4  1  0  0  0  0
  3  5  1  0  0  0  0
  3  6  1  0  0  0  0
  4  7  2  0  0  0  0
  5  8  1  0  0  0  0
  5  9  1  0  0  0  0
  6 10  2  0  0  0  0
  7 11  1  0  0  0  0
 11 12  1  0  0  0  0
 11 13  1  0  0  0  0
 12 14  2  0  0  0  0
 12 15  1  0  0  0  0
 13 16  2  0  0  0  0
 13 17  1  0  0  0  0
 15 18  1  0  0  0  0
 18 19  1  0  0  0  0
 19 20  2  0  0  0  0
 19 21  1  0  0  0  0
 20 22  1  0  0  0  0
 21 23  2  0  0  0  0
 22 24  2  0  0  0  0
 24 25  1  0  0  0  0
  7 10  1  0  0  0  0
 15 17  1  0  0  0  0
 23 24  1  0  0  0  0
M  END
>  <MolRegNo>
2282612

>  <m>
=

>  <Value>
1279

>  <Unit>
nM

>  <Type>
IC50

>  <pValue>
5.89

>  <Ligand Efficiency>
0

>  <Binding Efficiency>
0

>  <Surface Efficiency>
0

>  <Assay Index>
1176168

>  <Assay Category>


>  <Assay Organism>
Homo sapiens

>  <Target ID>
17045

>  <Target Name>
Cytochrome P450 3A4

>  <Target Organism>
Homo sapiens

>  <Target Description>
Target is a single protein chain

>  <Sequence Accession>
P08684

>  <Reference>
ACS Med Chem Lett 8 (8), 886-891 (2017)

>  <Pubmed ID>
28835807

>  <DOI>
10.1021/acsmedchemlett.7b00230

$$$$
2289037
Actelion Java MolfileCreator 1.0

 27 29  0  0  0  0  0  0  0  0999 V2000
    0.0000   -0.0000   -0.0000 Cl  0  0  0  0  0  0  0  0  0  0  0  0
   -0.0120   -1.4940   -0.0000 C   0  0  0  0  0  0  0  0  0  0  0  0
    1.2789   -2.2350   -0.0000 C   0  0  0  0  0  0  0  0  0  0  0  0
   -1.3267   -2.2350   -0.0000 C   0  0  0  0  0  0  0  0  0  0  0  0
    1.2669   -3.7410   -0.0000 C   0  0  0  0  0  0  0  0  0  0  0  0
    2.5697   -1.4701   -0.0000 C   0  0  0  0  0  0  0  0  0  0  0  0
   -1.3386   -3.7410   -0.0000 C   0  0  0  0  0  0  0  0  0  0  0  0
   -0.0598   -4.4820   -0.0000 C   0  0  0  0  0  0  0  0  0  0  0  0
    3.8605   -2.2111   -0.0000 N   0  0  0  0  0  0  0  0  0  0  0  0
   -2.6533   -4.4820   -0.0000 F   0  0  0  0  0  0  0  0  0  0  0  0
    4.0158   -3.6931   -0.0000 C   0  0  0  0  0  0  0  0  0  0  0  0
    5.2349   -1.5777   -0.0000 C   0  0  0  0  0  0  0  0  0  0  0  0
    2.8924   -4.6971   -0.0000 S   0  0  0  0  0  0  0  0  0  0  0  0
    5.4740   -3.9919   -0.0000 N   0  0  0  0  0  0  0  0  0  0  0  0
    6.2389   -2.6772   -0.0000 C   0  0  0  0  0  0  0  0  0  0  0  0
    6.0716   -5.3545   -0.0000 C   0  0  0  0  0  0  0  0  0  0  0  0
    7.7209   -2.4980   -0.0000 O   0  0  0  0  0  0  0  0  0  0  0  0
    5.1752   -6.5616   -0.0000 C   0  0  0  0  0  0  0  0  0  0  0  0
    7.5536   -5.4859   -0.0000 C   0  0  0  0  0  0  0  0  0  0  0  0
    5.7847   -7.9241   -0.0000 C   0  0  0  0  0  0  0  0  0  0  0  0
    8.1632   -6.8485   -0.0000 C   0  0  0  0  0  0  0  0  0  0  0  0
    4.8883   -9.1313   -0.0000 O   0  0  0  0  0  0  0  0  0  0  0  0
    7.2787   -8.0675   -0.0000 C   0  0  0  0  0  0  0  0  0  0  0  0
    3.3704   -8.9639   -0.0000 C   0  0  0  0  0  0  0  0  0  0  0  0
    7.8883   -9.4301   -0.0000 N   0  0  0  0  0  0  0  0  0  0  0  0
    6.9919  -10.6372   -0.0000 C   0  0  0  0  0  0  0  0  0  0  0  0
    9.3823   -9.5735   -0.0000 C   0  0  0  0  0  0  0  0  0  0  0  0
  1  2  1  0  0  0  0
  2  3  2  0  0  0  0
  2  4  1  0  0  0  0
  3  5  1  0  0  0  0
  3  6  1  0  0  0  0
  4  7  2  0  0  0  0
  5  8  2  0  0  0  0
  6  9  1  0  0  0  0
  7 10  1  0  0  0  0
  9 11  1  0  0  0  0
  9 12  1  0  0  0  0
 11 13  2  0  0  0  0
 11 14  1  0  0  0  0
 12 15  1  0  0  0  0
 14 16  1  0  0  0  0
 15 17  2  0  0  0  0
 16 18  2  0  0  0  0
 16 19  1  0  0  0  0
 18 20  1  0  0  0  0
 19 21  2  0  0  0  0
 20 22  1  0  0  0  0
 20 23  2  0  0  0  0
 22 24  1  0  0  0  0
 23 25  1  0  0  0  0
 25 26  1  0  0  0  0
 25 27  1  0  0  0  0
  7  8  1  0  0  0  0
 14 15  1  0  0  0  0
 21 23  1  0  0  0  0
M  END
>  <MolRegNo>
2289037

>  <m>
=

>  <Value>
7760

>  <Unit>
nM

>  <Type>
IC50

>  <pValue>
5.11

>  <Ligand Efficiency>
0

>  <Binding Efficiency>
0

>  <Surface Efficiency>
0

>  <Assay Index>
1176168

>  <Assay Category>


>  <Assay Organism>
Homo sapiens

>  <Target ID>
17045

>  <Target Name>
Cytochrome P450 3A4

>  <Target Organism>
Homo sapiens

>  <Target Description>
Target is a single protein chain

>  <Sequence Accession>
P08684

>  <Reference>
ACS Med Chem Lett 8 (8), 886-891 (2017)

>  <Pubmed ID>
28835807

>  <DOI>
10.1021/acsmedchemlett.7b00230

$$$$
2283968
Actelion Java MolfileCreator 1.0

 28 31  0  0  0  0  0  0  0  0999 V2000
    0.0000   -0.0000   -0.0000 S   0  0  0  0  0  0  0  0  0  0  0  0
   -0.1777    1.5043   -0.0000 C   0  0  0  0  0  0  0  0  0  0  0  0
    1.4569   -0.2961   -0.0000 C   0  0  0  0  0  0  0  0  0  0  0  0
    1.1845    2.1321   -0.0000 N   0  0  0  0  0  0  0  0  0  0  0  0
   -1.4925    2.2624   -0.0000 N   0  0  0  0  0  0  0  0  0  0  0  0
    2.1913    1.0187   -0.0000 C   0  0  0  0  0  0  0  0  0  0  0  0
   -2.7954    1.5280   -0.0000 C   0  0  0  0  0  0  0  0  0  0  0  0
    3.6719    1.1845   -0.0000 C   0  0  0  0  0  0  0  0  0  0  0  0
   -2.8072    0.0474   -0.0000 O   0  0  0  0  0  0  0  0  0  0  0  0
   -4.1102    2.2861   -0.0000 C   0  0  0  0  0  0  0  0  0  0  0  0
   -5.4131    1.5517   -0.0000 C   0  0  0  0  0  0  0  0  0  0  0  0
   -4.1220    3.7904   -0.0000 C   0  0  0  0  0  0  0  0  0  0  0  0
   -5.4131    0.0592   -0.0000 N   0  0  0  0  0  0  0  0  0  0  0  0
   -6.7160    2.3098   -0.0000 C   0  0  0  0  0  0  0  0  0  0  0  0
   -5.4368    4.5484   -0.0000 C   0  0  0  0  0  0  0  0  0  0  0  0
   -6.7279   -0.6752   -0.0000 C   0  0  0  0  0  0  0  0  0  0  0  0
   -6.7279    3.8022   -0.0000 C   0  0  0  0  0  0  0  0  0  0  0  0
   -8.0190    1.5754   -0.0000 C   0  0  0  0  0  0  0  0  0  0  0  0
   -5.4605    6.0646   -0.0000 C   0  0  0  0  0  0  0  0  0  0  0  0
   -8.0427    0.0829   -0.0000 C   0  0  0  0  0  0  0  0  0  0  0  0
   -6.9648    6.0764   -0.0000 F   0  0  0  0  0  0  0  0  0  0  0  0
   -6.2186    7.3675   -0.0000 F   0  0  0  0  0  0  0  0  0  0  0  0
   -4.1812    6.8227   -0.0000 C   0  0  0  0  0  0  0  0  0  0  0  0
   -2.9020    6.0883   -0.0000 C   0  0  0  0  0  0  0  0  0  0  0  0
   -4.2168    8.3269   -0.0000 C   0  0  0  0  0  0  0  0  0  0  0  0
   -1.6227    6.8582   -0.0000 N   0  0  0  0  0  0  0  0  0  0  0  0
   -2.9375    9.0969   -0.0000 N   0  0  0  0  0  0  0  0  0  0  0  0
   -1.6464    8.3743   -0.0000 C   0  0  0  0  0  0  0  0  0  0  0  0
  1  2  1  0  0  0  0
  1  3  1  0  0  0  0
  2  4  2  0  0  0  0
  2  5  1  0  0  0  0
  3  6  2  0  0  0  0
  5  7  1  0  0  0  0
  6  8  1  0  0  0  0
  7  9  2  0  0  0  0
  7 10  1  0  0  0  0
 10 11  1  0  0  0  0
 10 12  2  0  0  0  0
 11 13  2  0  0  0  0
 11 14  1  0  0  0  0
 12 15  1  0  0  0  0
 13 16  1  0  0  0  0
 14 17  1  0  0  0  0
 14 18  2  0  0  0  0
 15 19  1  0  0  0  0
 16 20  2  0  0  0  0
 19 21  1  0  0  0  0
 19 22  1  0  0  0  0
 19 23  1  0  0  0  0
 23 24  2  0  0  0  0
 23 25  1  0  0  0  0
 24 26  1  0  0  0  0
 25 27  2  0  0  0  0
 26 28  2  0  0  0  0
  4  6  1  0  0  0  0
 15 17  2  0  0  0  0
 18 20  1  0  0  0  0
 27 28  1  0  0  0  0
M  END
>  <MolRegNo>
2283968

>  <m>
=

>  <Value>
5900

>  <Unit>
nM

>  <Type>
IC50

>  <pValue>
5.23

>  <Ligand Efficiency>
0

>  <Binding Efficiency>
0

>  <Surface Efficiency>
0

>  <Assay Index>
1177296

>  <Assay Category>


>  <Assay Organism>
Homo sapiens

>  <Target ID>
17045

>  <Target Name>
Cytochrome P450 3A4

>  <Target Organism>
Homo sapiens

>  <Target Description>
Target is a single protein chain

>  <Sequence Accession>
P08684

>  <Reference>
Bioorg Med Chem Lett 28 (10), 1679-1685 (2018)

>  <Pubmed ID>
29705142

>  <DOI>
10.1016/j.bmcl.2018.04.053

$$$$
2284967
Actelion Java MolfileCreator 1.0

 32 36  0  0  0  0  0  0  0  0999 V2000
    0.0000   -0.0000   -0.0000 S   0  0  0  0  0  0  0  0  0  0  0  0
    0.8676    1.2360   -0.0000 C   0  0  0  0  0  0  0  0  0  0  0  0
   -1.4500    0.4754   -0.0000 C   0  0  0  0  0  0  0  0  0  0  0  0
   -0.0357    2.4602   -0.0000 N   0  0  0  0  0  0  0  0  0  0  0  0
    2.3532    1.2598   -0.0000 C   0  0  0  0  0  0  0  0  0  0  0  0
   -2.7692   -0.2615   -0.0000 N   0  0  0  0  0  0  0  0  0  0  0  0
   -1.4737    1.9967   -0.0000 C   0  0  0  0  0  0  0  0  0  0  0  0
    3.0782    2.5791   -0.0000 C   0  0  0  0  0  0  0  0  0  0  0  0
    3.0901   -0.0238   -0.0000 C   0  0  0  0  0  0  0  0  0  0  0  0
   -4.0766    0.4992   -0.0000 C   0  0  0  0  0  0  0  0  0  0  0  0
   -2.7811    2.7573   -0.0000 C   0  0  0  0  0  0  0  0  0  0  0  0
    4.5639    2.6028   -0.0000 N   0  0  0  0  0  0  0  0  0  0  0  0
    4.5758   -0.0000   -0.0000 C   0  0  0  0  0  0  0  0  0  0  0  0
   -4.0885    2.0086   -0.0000 N   0  0  0  0  0  0  0  0  0  0  0  0
   -5.3839   -0.2377   -0.0000 N   0  0  0  0  0  0  0  0  0  0  0  0
   -2.7930    4.2667   -0.0000 N   0  0  0  0  0  0  0  0  0  0  0  0
    5.3126    1.3192   -0.0000 C   0  0  0  0  0  0  0  0  0  0  0  0
   -1.5094    5.0274   -0.0000 C   0  0  0  0  0  0  0  0  0  0  0  0
   -4.1003    5.0155   -0.0000 C   0  0  0  0  0  0  0  0  0  0  0  0
   -1.5213    6.5368   -0.0000 C   0  0  0  0  0  0  0  0  0  0  0  0
   -4.1122    6.5249   -0.0000 C   0  0  0  0  0  0  0  0  0  0  0  0
   -2.8286    7.2974   -0.0000 N   0  0  0  0  0  0  0  0  0  0  0  0
   -2.8405    8.8068   -0.0000 C   0  0  0  0  0  0  0  0  0  0  0  0
   -4.1479    9.5675   -0.0000 O   0  0  0  0  0  0  0  0  0  0  0  0
   -1.5569    9.5675   -0.0000 N   0  0  0  0  0  0  0  0  0  0  0  0
   -0.2734    8.8306   -0.0000 C   0  0  0  0  0  0  0  0  0  0  0  0
   -0.2971    7.3450   -0.0000 C   0  0  0  0  0  0  0  0  0  0  0  0
    0.9983    9.5912   -0.0000 C   0  0  0  0  0  0  0  0  0  0  0  0
    0.9865    6.6081   -0.0000 C   0  0  0  0  0  0  0  0  0  0  0  0
    2.2819    8.8544   -0.0000 C   0  0  0  0  0  0  0  0  0  0  0  0
    2.2700    7.3687   -0.0000 C   0  0  0  0  0  0  0  0  0  0  0  0
    3.5536    6.6319   -0.0000 C   0  0  0  0  0  0  0  0  0  0  0  0
  1  2  1  0  0  0  0
  1  3  1  0  0  0  0
  2  4  2  0  0  0  0
  2  5  1  0  0  0  0
  3  6  2  0  0  0  0
  3  7  1  0  0  0  0
  5  8  2  0  0  0  0
  5  9  1  0  0  0  0
  6 10  1  0  0  0  0
  7 11  2  0  0  0  0
  8 12  1  0  0  0  0
  9 13  2  0  0  0  0
 10 14  2  0  0  0  0
 10 15  1  0  0  0  0
 11 16  1  0  0  0  0
 12 17  2  0  0  0  0
 16 18  1  0  0  0  0
 16 19  1  0  0  0  0
 18 20  1  0  0  0  0
 19 21  1  0  0  0  0
 20 22  1  0  0  0  0
 22 23  1  0  0  0  0
 23 24  2  0  0  0  0
 23 25  1  0  0  0  0
 25 26  1  0  0  0  0
 26 27  2  0  0  0  0
 26 28  1  0  0  0  0
 27 29  1  0  0  0  0
 28 30  2  0  0  0  0
 29 31  2  0  0  0  0
 31 32  1  0  0  0  0
  4  7  1  0  0  0  0
 11 14  1  0  0  0  0
 13 17  1  0  0  0  0
 21 22  1  0  0  0  0
 30 31  1  0  0  0  0
M  END
>  <MolRegNo>
2284967

>  <m>
=

>  <Value>
900

>  <Unit>
nM

>  <Type>
IC50

>  <pValue>
6.05

>  <Ligand Efficiency>
0

>  <Binding Efficiency>
0

>  <Surface Efficiency>
0

>  <Assay Index>
1178178

>  <Assay Category>


>  <Assay Organism>
Homo sapiens

>  <Target ID>
17045

>  <Target Name>
Cytochrome P450 3A4

>  <Target Organism>
Homo sapiens

>  <Target Description>
Target is a single protein chain

>  <Sequence Accession>
P08684

>  <Reference>
J Med Chem 61 (15), 6705-6723 (2018)

>  <Pubmed ID>
29952567

>  <DOI>
10.1021/acs.jmedchem.8b00521

$$$$
2283567
Actelion Java MolfileCreator 1.0

 33 37  0  0  0  0  0  0  0  0999 V2000
    0.0000   -0.0000   -0.0000 S   0  0  0  0  0  0  0  0  0  0  0  0
    0.8677    1.2362   -0.0000 C   0  0  0  0  0  0  0  0  0  0  0  0
   -1.4502    0.4755   -0.0000 C   0  0  0  0  0  0  0  0  0  0  0  0
   -0.0357    2.4606   -0.0000 N   0  0  0  0  0  0  0  0  0  0  0  0
    2.3536    1.2600   -0.0000 C   0  0  0  0  0  0  0  0  0  0  0  0
   -2.7696   -0.2615   -0.0000 N   0  0  0  0  0  0  0  0  0  0  0  0
   -1.4740    1.9970   -0.0000 C   0  0  0  0  0  0  0  0  0  0  0  0
    3.0787    2.5794   -0.0000 C   0  0  0  0  0  0  0  0  0  0  0  0
    3.0906   -0.0238   -0.0000 C   0  0  0  0  0  0  0  0  0  0  0  0
   -4.0772    0.4992   -0.0000 C   0  0  0  0  0  0  0  0  0  0  0  0
   -2.7815    2.7577   -0.0000 C   0  0  0  0  0  0  0  0  0  0  0  0
    4.5645    2.6032   -0.0000 N   0  0  0  0  0  0  0  0  0  0  0  0
    4.5764   -0.0000   -0.0000 C   0  0  0  0  0  0  0  0  0  0  0  0
   -4.0890    2.0089   -0.0000 N   0  0  0  0  0  0  0  0  0  0  0  0
   -5.3847   -0.2377   -0.0000 N   0  0  0  0  0  0  0  0  0  0  0  0
   -2.7934    4.2674   -0.0000 N   0  0  0  0  0  0  0  0  0  0  0  0
    5.3134    1.3194   -0.0000 C   0  0  0  0  0  0  0  0  0  0  0  0
   -1.5096    5.0281   -0.0000 C   0  0  0  0  0  0  0  0  0  0  0  0
   -4.1009    5.0162   -0.0000 C   0  0  0  0  0  0  0  0  0  0  0  0
   -1.5215    6.5377   -0.0000 C   0  0  0  0  0  0  0  0  0  0  0  0
   -4.1128    6.5258   -0.0000 C   0  0  0  0  0  0  0  0  0  0  0  0
   -2.8291    7.2985   -0.0000 N   0  0  0  0  0  0  0  0  0  0  0  0
   -2.8409    8.8081   -0.0000 C   0  0  0  0  0  0  0  0  0  0  0  0
   -4.1485    9.5689   -0.0000 O   0  0  0  0  0  0  0  0  0  0  0  0
   -1.5572    9.5689   -0.0000 N   0  0  0  0  0  0  0  0  0  0  0  0
   -0.2734    8.8319   -0.0000 C   0  0  0  0  0  0  0  0  0  0  0  0
   -0.2972    7.3460   -0.0000 C   0  0  0  0  0  0  0  0  0  0  0  0
    0.9985    9.5926   -0.0000 C   0  0  0  0  0  0  0  0  0  0  0  0
    0.9866    6.6090   -0.0000 C   0  0  0  0  0  0  0  0  0  0  0  0
    2.2823    8.8556   -0.0000 C   0  0  0  0  0  0  0  0  0  0  0  0
    2.2704    7.3698   -0.0000 C   0  0  0  0  0  0  0  0  0  0  0  0
    3.5541    6.6328   -0.0000 O   0  0  0  0  0  0  0  0  0  0  0  0
    4.8379    7.3936   -0.0000 C   0  0  0  0  0  0  0  0  0  0  0  0
  1  2  1  0  0  0  0
  1  3  1  0  0  0  0
  2  4  2  0  0  0  0
  2  5  1  0  0  0  0
  3  6  2  0  0  0  0
  3  7  1  0  0  0  0
  5  8  2  0  0  0  0
  5  9  1  0  0  0  0
  6 10  1  0  0  0  0
  7 11  2  0  0  0  0
  8 12  1  0  0  0  0
  9 13  2  0  0  0  0
 10 14  2  0  0  0  0
 10 15  1  0  0  0  0
 11 16  1  0  0  0  0
 12 17  2  0  0  0  0
 16 18  1  0  0  0  0
 16 19  1  0  0  0  0
 18 20  1  0  0  0  0
 19 21  1  0  0  0  0
 20 22  1  0  0  0  0
 22 23  1  0  0  0  0
 23 24  2  0  0  0  0
 23 25  1  0  0  0  0
 25 26  1  0  0  0  0
 26 27  2  0  0  0  0
 26 28  1  0  0  0  0
 27 29  1  0  0  0  0
 28 30  2  0  0  0  0
 29 31  2  0  0  0  0
 31 32  1  0  0  0  0
 32 33  1  0  0  0  0
  4  7  1  0  0  0  0
 11 14  1  0  0  0  0
 13 17  1  0  0  0  0
 21 22  1  0  0  0  0
 30 31  1  0  0  0  0
M  END
>  <MolRegNo>
2283567

>  <m>
=

>  <Value>
1600

>  <Unit>
nM

>  <Type>
IC50

>  <pValue>
5.8

>  <Ligand Efficiency>
0

>  <Binding Efficiency>
0

>  <Surface Efficiency>
0

>  <Assay Index>
1178178

>  <Assay Category>


>  <Assay Organism>
Homo sapiens

>  <Target ID>
17045

>  <Target Name>
Cytochrome P450 3A4

>  <Target Organism>
Homo sapiens

>  <Target Description>
Target is a single protein chain

>  <Sequence Accession>
P08684

>  <Reference>
J Med Chem 61 (15), 6705-6723 (2018)

>  <Pubmed ID>
29952567

>  <DOI>
10.1021/acs.jmedchem.8b00521

$$$$
15890
Actelion Java MolfileCreator 1.0

 19 20  0  0  0  0  0  0  0  0999 V2000
    0.0000   -0.0000   -0.0000 O   0  0  0  0  0  0  0  0  0  0  0  0
    1.4585    0.3202   -0.0000 N   0  0  0  0  0  0  0  0  0  0  0  0
    2.4546   -0.7826   -0.0000 O   0  0  0  0  0  0  0  0  0  0  0  0
    1.9091    1.7668   -0.0000 C   0  0  0  0  0  0  0  0  0  0  0  0
    0.8893    2.8933   -0.0000 N   0  0  0  0  0  0  0  0  0  0  0  0
    3.2727    2.3953   -0.0000 N   0  0  0  0  0  0  0  0  0  0  0  0
    1.6245    4.2095   -0.0000 C   0  0  0  0  0  0  0  0  0  0  0  0
    3.1067    3.9012   -0.0000 C   0  0  0  0  0  0  0  0  0  0  0  0
    4.5652    1.6482   -0.0000 C   0  0  0  0  0  0  0  0  0  0  0  0
    5.8577    2.4071   -0.0000 C   0  0  0  0  0  0  0  0  0  0  0  0
    5.8459    3.9249   -0.0000 O   0  0  0  0  0  0  0  0  0  0  0  0
    7.1502    1.6601   -0.0000 N   0  0  0  0  0  0  0  0  0  0  0  0
    8.4427    2.4190   -0.0000 C   0  0  0  0  0  0  0  0  0  0  0  0
    9.7352    1.6719   -0.0000 C   0  0  0  0  0  0  0  0  0  0  0  0
    9.7234    0.1779   -0.0000 C   0  0  0  0  0  0  0  0  0  0  0  0
   11.0277    2.4308   -0.0000 C   0  0  0  0  0  0  0  0  0  0  0  0
   11.0159   -0.5573   -0.0000 C   0  0  0  0  0  0  0  0  0  0  0  0
   12.3202    1.6838   -0.0000 C   0  0  0  0  0  0  0  0  0  0  0  0
   12.3084    0.2016   -0.0000 C   0  0  0  0  0  0  0  0  0  0  0  0
  1  2  2  0  0  0  0
  2  3  1  0  0  0  0
  2  4  1  0  0  0  0
  4  5  2  0  0  0  0
  4  6  1  0  0  0  0
  5  7  1  0  0  0  0
  6  8  1  0  0  0  0
  6  9  1  0  0  0  0
  9 10  1  0  0  0  0
 10 11  2  0  0  0  0
 10 12  1  0  0  0  0
 12 13  1  0  0  0  0
 13 14  1  0  0  0  0
 14 15  2  0  0  0  0
 14 16  1  0  0  0  0
 15 17  1  0  0  0  0
 16 18  2  0  0  0  0
 17 19  2  0  0  0  0
  7  8  2  0  0  0  0
 18 19  1  0  0  0  0
M  CHG  2   2   1   3  -1
M  END
>  <MolRegNo>
15890

>  <m>
=

>  <Value>
98200

>  <Unit>
nM

>  <Type>
IC50

>  <pValue>
4.01

>  <Ligand Efficiency>
0

>  <Binding Efficiency>
0

>  <Surface Efficiency>
0

>  <Assay Index>
1178427

>  <Assay Category>


>  <Assay Organism>
Homo sapiens

>  <Target ID>
17045

>  <Target Name>
Cytochrome P450 3A4

>  <Target Organism>
Homo sapiens

>  <Target Description>
Target is a single protein chain

>  <Sequence Accession>
P08684

>  <Reference>


>  <Pubmed ID>
29407968

>  <DOI>
10.1016/j.ejmech.2018.01.043

$$$$
1951263
Actelion Java MolfileCreator 1.0

 44 50  0  0  0  0  0  0  0  0999 V2000
    0.0000   -0.0000   -0.0000 O   0  0  0  0  0  0  0  0  0  0  0  0
   -1.0569   -0.5937   -0.0000 C   0  0  0  0  0  0  0  0  0  0  0  0
   -1.0569   -2.0900   -0.0000 N   0  0  0  0  0  0  0  0  0  0  0  0
   -2.3750    0.1662   -0.0000 C   0  0  0  0  0  0  0  0  0  0  0  0
    0.2375   -2.8262   -0.0000 C   0  0  0  0  0  0  0  0  0  0  0  0
   -2.5412    1.6625   -0.0000 C   0  0  0  0  0  0  0  0  0  0  0  0
   -3.7406   -0.4512   -0.0000 C   0  0  0  0  0  0  0  0  0  0  0  0
    1.5437   -2.0425   -0.0000 C   0  0  0  0  0  0  0  0  0  0  0  0
    0.2256   -4.3224   -0.0000 C   0  0  0  0  0  0  0  0  0  0  0  0
   -4.0256    1.9831   -0.0000 N   0  0  0  0  0  0  0  0  0  0  0  0
   -4.7737    0.6769   -0.0000 C   0  0  0  0  0  0  0  0  0  0  0  0
    2.8381   -2.8025   -0.0000 C   0  0  0  0  0  0  0  0  0  0  0  0
    1.5318   -5.0824   -0.0000 C   0  0  0  0  0  0  0  0  0  0  0  0
   -4.6668    3.3606   -0.0000 C   0  0  0  0  0  0  0  0  0  0  0  0
    4.2512   -2.3275   -0.0000 C   0  0  0  0  0  0  0  0  0  0  0  0
    2.8262   -4.2987   -0.0000 C   0  0  0  0  0  0  0  0  0  0  0  0
   -6.1749    3.5149   -0.0000 C   0  0  0  0  0  0  0  0  0  0  0  0
    5.1180   -3.5031   -0.0000 N   0  0  0  0  0  0  0  0  0  0  0  0
    4.7024   -0.8787   -0.0000 C   0  0  0  0  0  0  0  0  0  0  0  0
    4.2393   -4.7499   -0.0000 N   0  0  0  0  0  0  0  0  0  0  0  0
   -6.8874    2.5412   -0.0000 O   0  0  0  0  0  0  0  0  0  0  0  0
   -6.8161    4.9043   -0.0000 N   0  0  0  0  0  0  0  0  0  0  0  0
    3.7643    0.3206   -0.0000 C   0  0  0  0  0  0  0  0  0  0  0  0
    6.1868   -0.6531   -0.0000 C   0  0  0  0  0  0  0  0  0  0  0  0
   -8.3242    5.0587   -0.0000 C   0  0  0  0  0  0  0  0  0  0  0  0
   -5.9493    6.1393   -0.0000 C   0  0  0  0  0  0  0  0  0  0  0  0
    4.3106    1.7337   -0.0000 C   0  0  0  0  0  0  0  0  0  0  0  0
    6.7330    0.7600   -0.0000 C   0  0  0  0  0  0  0  0  0  0  0  0
   -8.9536    6.4480   -0.0000 C   0  0  0  0  0  0  0  0  0  0  0  0
   -6.5786    7.5286   -0.0000 C   0  0  0  0  0  0  0  0  0  0  0  0
    5.7949    1.9593   -0.0000 N   0  0  0  0  0  0  0  0  0  0  0  0
   -8.0867    7.6830   -0.0000 N   0  0  0  0  0  0  0  0  0  0  0  0
   -8.7161    9.0723   -0.0000 C   0  0  0  0  0  0  0  0  0  0  0  0
   -7.8492   10.3073   -0.0000 C   0  0  0  0  0  0  0  0  0  0  0  0
  -10.2242    9.2267   -0.0000 C   0  0  0  0  0  0  0  0  0  0  0  0
   -8.4905   11.6967   -0.0000 C   0  0  0  0  0  0  0  0  0  0  0  0
  -10.8654   10.6161   -0.0000 C   0  0  0  0  0  0  0  0  0  0  0  0
   -9.9986   11.8511   -0.0000 C   0  0  0  0  0  0  0  0  0  0  0  0
  -10.6398   13.2404   -0.0000 C   0  0  0  0  0  0  0  0  0  0  0  0
   -9.7730   14.4754   -0.0000 N   0  0  0  0  0  0  0  0  0  0  0  0
  -12.1479   13.3948   -0.0000 N   0  0  0  0  0  0  0  0  0  0  0  0
  -10.4142   15.8529   -0.0000 C   0  0  0  0  0  0  0  0  0  0  0  0
  -12.7892   14.7723   -0.0000 C   0  0  0  0  0  0  0  0  0  0  0  0
  -11.9223   16.0072   -0.0000 C   0  0  0  0  0  0  0  0  0  0  0  0
  1  2  2  0  0  0  0
  2  3  1  0  0  0  0
  4  2  1  1  0  0  0
  3  5  1  0  0  0  0
  4  6  1  0  0  0  0
  4  7  1  0  0  0  0
  5  8  2  0  0  0  0
  5  9  1  0  0  0  0
  6 10  1  0  0  0  0
  7 11  1  0  0  0  0
  8 12  1  0  0  0  0
  9 13  2  0  0  0  0
 10 14  1  0  0  0  0
 12 15  1  0  0  0  0
 12 16  2  0  0  0  0
 14 17  1  0  0  0  0
 15 18  2  0  0  0  0
 15 19  1  0  0  0  0
 16 20  1  0  0  0  0
 17 21  2  0  0  0  0
 17 22  1  0  0  0  0
 19 23  2  0  0  0  0
 19 24  1  0  0  0  0
 22 25  1  0  0  0  0
 22 26  1  0  0  0  0
 23 27  1  0  0  0  0
 24 28  2  0  0  0  0
 25 29  1  0  0  0  0
 26 30  1  0  0  0  0
 27 31  2  0  0  0  0
 29 32  1  0  0  0  0
 32 33  1  0  0  0  0
 33 34  2  0  0  0  0
 33 35  1  0  0  0  0
 34 36  1  0  0  0  0
 35 37  2  0  0  0  0
 36 38  2  0  0  0  0
 38 39  1  0  0  0  0
 39 40  2  0  0  0  0
 39 41  1  0  0  0  0
 40 42  1  0  0  0  0
 41 43  2  0  0  0  0
 42 44  2  0  0  0  0
 10 11  1  0  0  0  0
 13 16  1  0  0  0  0
 18 20  1  0  0  0  0
 28 31  1  0  0  0  0
 30 32  1  0  0  0  0
 37 38  1  0  0  0  0
 43 44  1  0  0  0  0
M  END
>  <MolRegNo>
1951263

>  <m>
=

>  <Value>
7.8e6

>  <Unit>
nM

>  <Type>
IC50

>  <pValue>
0

>  <Ligand Efficiency>
0

>  <Binding Efficiency>
0

>  <Surface Efficiency>
0

>  <Assay Index>
1181981

>  <Assay Category>


>  <Assay Organism>
Homo sapiens

>  <Target ID>
17045

>  <Target Name>
Cytochrome P450 3A4

>  <Target Organism>
Homo sapiens

>  <Target Description>
Target is a single protein chain

>  <Sequence Accession>
P08684

>  <Reference>
ACS Med Chem Lett 9 (7), 761-767 (2018)

>  <Pubmed ID>
30034615

>  <DOI>
10.1021/acsmedchemlett.8b00220

$$$$
1977981
Actelion Java MolfileCreator 1.0

 47 53  0  0  1  0  0  0  0  0999 V2000
    0.0000   -0.0000   -0.0000 S   0  0  0  0  0  0  0  0  0  0  0  0
   -0.0120    1.5331   -0.0000 C   0  0  0  0  0  0  0  0  0  0  0  0
   -1.0660   -0.5989   -0.0000 C   0  0  0  0  0  0  0  0  0  0  0  0
   -1.3415    2.3116   -0.0000 C   0  0  0  0  0  0  0  0  0  0  0  0
    0.0838    3.0183   -0.0000 C   0  0  0  0  0  0  0  0  0  0  0  0
    1.3055    0.8863   -0.0000 C   0  0  0  0  0  0  0  0  0  0  0  0
   -2.4074    1.7127   -0.0000 O   0  0  0  0  0  0  0  0  0  0  0  0
   -1.3534    3.8447   -0.0000 N   0  0  0  0  0  0  0  0  0  0  0  0
    1.5570    3.3417   -0.0000 N   0  0  0  0  0  0  0  0  0  0  0  0
    2.3116    2.0242   -0.0000 C   0  0  0  0  0  0  0  0  0  0  0  0
   -2.6829    4.6232   -0.0000 C   0  0  0  0  0  0  0  0  0  0  0  0
    2.1679    4.7430   -0.0000 C   0  0  0  0  0  0  0  0  0  0  0  0
   -4.0124    3.8806   -0.0000 C   0  0  0  0  0  0  0  0  0  0  0  0
   -2.6949    6.1563   -0.0000 C   0  0  0  0  0  0  0  0  0  0  0  0
    1.2576    5.9886   -0.0000 C   0  0  0  0  0  0  0  0  0  0  0  0
   -5.3419    4.6472   -0.0000 C   0  0  0  0  0  0  0  0  0  0  0  0
   -4.0244    6.9229   -0.0000 C   0  0  0  0  0  0  0  0  0  0  0  0
    0.0359    5.8689   -0.0000 O   0  0  0  0  0  0  0  0  0  0  0  0
    1.8685    7.3900   -0.0000 N   0  0  0  0  0  0  0  0  0  0  0  0
   -6.8031    4.1920   -0.0000 C   0  0  0  0  0  0  0  0  0  0  0  0
   -5.3538    6.1803   -0.0000 C   0  0  0  0  0  0  0  0  0  0  0  0
    3.3656    7.5577   -0.0000 C   0  0  0  0  0  0  0  0  0  0  0  0
    0.9702    8.6356   -0.0000 C   0  0  0  0  0  0  0  0  0  0  0  0
   -7.7134    5.4377   -0.0000 N   0  0  0  0  0  0  0  0  0  0  0  0
   -7.2822    2.7548   -0.0000 C   0  0  0  0  0  0  0  0  0  0  0  0
   -6.8151    6.6594   -0.0000 N   0  0  0  0  0  0  0  0  0  0  0  0
    3.9765    8.9590   -0.0000 C   0  0  0  0  0  0  0  0  0  0  0  0
    1.5810   10.0369   -0.0000 C   0  0  0  0  0  0  0  0  0  0  0  0
   -8.7434    2.3475   -0.0000 C   0  0  0  0  0  0  0  0  0  0  0  0
   -6.1922    1.7247   -0.0000 C   0  0  0  0  0  0  0  0  0  0  0  0
    3.0782   10.2046   -0.0000 C   0  0  0  0  0  0  0  0  0  0  0  0
   -9.1147    0.8863   -0.0000 C   0  0  0  0  0  0  0  0  0  0  0  0
   -6.5635    0.2635   -0.0000 C   0  0  0  0  0  0  0  0  0  0  0  0
    3.6890   11.6060   -0.0000 C   0  0  0  0  0  0  0  0  0  0  0  0
   -8.0248   -0.1557   -0.0000 C   0  0  0  0  0  0  0  0  0  0  0  0
    2.7907   12.8516   -0.0000 C   0  0  0  0  0  0  0  0  0  0  0  0
    5.1862   11.7736   -0.0000 C   0  0  0  0  0  0  0  0  0  0  0  0
   -8.3242   -1.3295   -0.0000 F   0  0  0  0  0  0  0  0  0  0  0  0
    3.4015   14.2529   -0.0000 C   0  0  0  0  0  0  0  0  0  0  0  0
    5.7970   13.1750   -0.0000 C   0  0  0  0  0  0  0  0  0  0  0  0
    4.8987   14.4206   -0.0000 C   0  0  0  0  0  0  0  0  0  0  0  0
    5.5095   15.8220   -0.0000 C   0  0  0  0  0  0  0  0  0  0  0  0
    4.6112   17.0676   -0.0000 N   0  0  0  0  0  0  0  0  0  0  0  0
    7.0067   15.9896   -0.0000 N   0  0  0  0  0  0  0  0  0  0  0  0
    5.2221   18.4689   -0.0000 C   0  0  0  0  0  0  0  0  0  0  0  0
    7.6175   17.3910   -0.0000 C   0  0  0  0  0  0  0  0  0  0  0  0
    6.7192   18.6366   -0.0000 C   0  0  0  0  0  0  0  0  0  0  0  0
  1  2  1  0  0  0  0
  1  3  1  0  0  0  0
  2  4  1  0  0  0  0
  2  5  1  6  0  0  0
  2  6  1  0  0  0  0
  4  7  2  0  0  0  0
  4  8  1  0  0  0  0
  5  9  1  0  0  0  0
  6 10  1  0  0  0  0
  8 11  1  0  0  0  0
  9 12  1  0  0  0  0
 11 13  2  0  0  0  0
 11 14  1  0  0  0  0
 12 15  1  0  0  0  0
 13 16  1  0  0  0  0
 14 17  2  0  0  0  0
 15 18  2  0  0  0  0
 15 19  1  0  0  0  0
 16 20  1  0  0  0  0
 16 21  2  0  0  0  0
 19 22  1  0  0  0  0
 19 23  1  0  0  0  0
 20 24  2  0  0  0  0
 20 25  1  0  0  0  0
 21 26  1  0  0  0  0
 22 27  1  0  0  0  0
 23 28  1  0  0  0  0
 25 29  2  0  0  0  0
 25 30  1  0  0  0  0
 27 31  2  0  0  0  0
 29 32  1  0  0  0  0
 30 33  2  0  0  0  0
 31 34  1  0  0  0  0
 32 35  2  0  0  0  0
 34 36  2  0  0  0  0
 34 37  1  0  0  0  0
 35 38  1  0  0  0  0
 36 39  1  0  0  0  0
 37 40  2  0  0  0  0
 39 41  2  0  0  0  0
 41 42  1  0  0  0  0
 42 43  2  0  0  0  0
 42 44  1  0  0  0  0
 43 45  1  0  0  0  0
 44 46  2  0  0  0  0
 45 47  2  0  0  0  0
  9 10  1  0  0  0  0
 17 21  1  0  0  0  0
 24 26  1  0  0  0  0
 28 31  1  0  0  0  0
 33 35  1  0  0  0  0
 40 41  1  0  0  0  0
 46 47  1  0  0  0  0
M  END
>  <MolRegNo>
1977981

>  <m>
=

>  <Value>
2.0e6

>  <Unit>
nM

>  <Type>
IC50

>  <pValue>
0

>  <Ligand Efficiency>
0

>  <Binding Efficiency>
0

>  <Surface Efficiency>
0

>  <Assay Index>
1181982

>  <Assay Category>


>  <Assay Organism>
Homo sapiens

>  <Target ID>
17045

>  <Target Name>
Cytochrome P450 3A4

>  <Target Organism>
Homo sapiens

>  <Target Description>
Target is a single protein chain

>  <Sequence Accession>
P08684

>  <Reference>
ACS Med Chem Lett 9 (7), 761-767 (2018)

>  <Pubmed ID>
30034615

>  <DOI>
10.1021/acsmedchemlett.8b00220

$$$$
2296852
Actelion Java MolfileCreator 1.0

 49 56  0  0  0  0  0  0  0  0999 V2000
    0.0000   -0.0000   -0.0000 S   0  0  0  0  0  0  0  0  0  0  0  0
    1.2968   -0.7495   -0.0000 C   0  0  0  0  0  0  0  0  0  0  0  0
   -0.0119    1.5229   -0.0000 C   0  0  0  0  0  0  0  0  0  0  0  0
   -0.0238   -1.4753   -0.0000 C   0  0  0  0  0  0  0  0  0  0  0  0
    2.5104   -1.6300   -0.0000 C   0  0  0  0  0  0  0  0  0  0  0  0
    1.7489    0.7020   -0.0000 C   0  0  0  0  0  0  0  0  0  0  0  0
   -0.0476   -2.9744   -0.0000 O   0  0  0  0  0  0  0  0  0  0  0  0
   -1.3325   -0.7020   -0.0000 N   0  0  0  0  0  0  0  0  0  0  0  0
    3.7120   -0.7257   -0.0000 N   0  0  0  0  0  0  0  0  0  0  0  0
    3.2480    0.7138   -0.0000 C   0  0  0  0  0  0  0  0  0  0  0  0
   -2.6531   -1.4396   -0.0000 C   0  0  0  0  0  0  0  0  0  0  0  0
    5.0088   -1.4634   -0.0000 C   0  0  0  0  0  0  0  0  0  0  0  0
   -2.6769   -2.9268   -0.0000 C   0  0  0  0  0  0  0  0  0  0  0  0
   -3.9619   -0.6544   -0.0000 C   0  0  0  0  0  0  0  0  0  0  0  0
    6.3057   -0.6901   -0.0000 C   0  0  0  0  0  0  0  0  0  0  0  0
   -3.9976   -3.6644   -0.0000 C   0  0  0  0  0  0  0  0  0  0  0  0
   -5.2825   -1.3801   -0.0000 C   0  0  0  0  0  0  0  0  0  0  0  0
    6.2938    0.8328   -0.0000 O   0  0  0  0  0  0  0  0  0  0  0  0
    7.6025   -1.4277   -0.0000 N   0  0  0  0  0  0  0  0  0  0  0  0
   -4.3307   -5.1397   -0.0000 C   0  0  0  0  0  0  0  0  0  0  0  0
   -5.3182   -2.8911   -0.0000 C   0  0  0  0  0  0  0  0  0  0  0  0
    8.8874   -0.6544   -0.0000 C   0  0  0  0  0  0  0  0  0  0  0  0
    7.5906   -2.9268   -0.0000 C   0  0  0  0  0  0  0  0  0  0  0  0
   -5.8536   -5.2825   -0.0000 N   0  0  0  0  0  0  0  0  0  0  0  0
   -3.5930   -6.4246   -0.0000 C   0  0  0  0  0  0  0  0  0  0  0  0
   -6.4603   -3.8905   -0.0000 N   0  0  0  0  0  0  0  0  0  0  0  0
   10.1724   -1.4039   -0.0000 C   0  0  0  0  0  0  0  0  0  0  0  0
    8.8755   -3.6644   -0.0000 C   0  0  0  0  0  0  0  0  0  0  0  0
   -4.3664   -7.7096   -0.0000 C   0  0  0  0  0  0  0  0  0  0  0  0
   -2.1178   -6.4128   -0.0000 C   0  0  0  0  0  0  0  0  0  0  0  0
   10.1605   -2.9030   -0.0000 C   0  0  0  0  0  0  0  0  0  0  0  0
   -3.6287   -9.0064   -0.0000 C   0  0  0  0  0  0  0  0  0  0  0  0
   -1.3801   -7.6977   -0.0000 C   0  0  0  0  0  0  0  0  0  0  0  0
   11.4454   -3.6406   -0.0000 C   0  0  0  0  0  0  0  0  0  0  0  0
   -4.1046  -10.4222   -0.0000 O   0  0  0  0  0  0  0  0  0  0  0  0
   -2.1415   -8.9945   -0.0000 C   0  0  0  0  0  0  0  0  0  0  0  0
   11.4335   -5.1278   -0.0000 C   0  0  0  0  0  0  0  0  0  0  0  0
   12.7303   -2.8673   -0.0000 C   0  0  0  0  0  0  0  0  0  0  0  0
   -2.9030  -11.2907   -0.0000 C   0  0  0  0  0  0  0  0  0  0  0  0
   -1.6894  -10.3984   -0.0000 O   0  0  0  0  0  0  0  0  0  0  0  0
   12.7184   -5.8655   -0.0000 C   0  0  0  0  0  0  0  0  0  0  0  0
   14.0153   -3.6049   -0.0000 C   0  0  0  0  0  0  0  0  0  0  0  0
   14.0153   -5.1040   -0.0000 C   0  0  0  0  0  0  0  0  0  0  0  0
   15.3002   -5.8417   -0.0000 C   0  0  0  0  0  0  0  0  0  0  0  0
   15.2883   -7.3408   -0.0000 N   0  0  0  0  0  0  0  0  0  0  0  0
   16.5851   -5.0802   -0.0000 N   0  0  0  0  0  0  0  0  0  0  0  0
   16.5851   -8.0784   -0.0000 C   0  0  0  0  0  0  0  0  0  0  0  0
   17.8819   -5.8179   -0.0000 C   0  0  0  0  0  0  0  0  0  0  0  0
   17.8819   -7.3170   -0.0000 C   0  0  0  0  0  0  0  0  0  0  0  0
  2  1  1  1  0  0  0
  1  3  1  0  0  0  0
  2  4  1  0  0  0  0
  2  5  1  0  0  0  0
  2  6  1  0  0  0  0
  4  7  2  0  0  0  0
  4  8  1  0  0  0  0
  5  9  1  0  0  0  0
  6 10  1  0  0  0  0
  8 11  1  0  0  0  0
  9 12  1  0  0  0  0
 11 13  2  0  0  0  0
 11 14  1  0  0  0  0
 12 15  1  0  0  0  0
 13 16  1  0  0  0  0
 14 17  2  0  0  0  0
 15 18  2  0  0  0  0
 15 19  1  0  0  0  0
 16 20  1  0  0  0  0
 16 21  2  0  0  0  0
 19 22  1  0  0  0  0
 19 23  1  0  0  0  0
 20 24  2  0  0  0  0
 20 25  1  0  0  0  0
 21 26  1  0  0  0  0
 22 27  1  0  0  0  0
 23 28  1  0  0  0  0
 25 29  2  0  0  0  0
 25 30  1  0  0  0  0
 27 31  2  0  0  0  0
 29 32  1  0  0  0  0
 30 33  2  0  0  0  0
 31 34  1  0  0  0  0
 32 35  1  0  0  0  0
 32 36  2  0  0  0  0
 34 37  2  0  0  0  0
 34 38  1  0  0  0  0
 35 39  1  0  0  0  0
 36 40  1  0  0  0  0
 37 41  1  0  0  0  0
 38 42  2  0  0  0  0
 41 43  2  0  0  0  0
 43 44  1  0  0  0  0
 44 45  2  0  0  0  0
 44 46  1  0  0  0  0
 45 47  1  0  0  0  0
 46 48  2  0  0  0  0
 47 49  2  0  0  0  0
  9 10  1  0  0  0  0
 17 21  1  0  0  0  0
 24 26  1  0  0  0  0
 28 31  1  0  0  0  0
 33 36  1  0  0  0  0
 39 40  1  0  0  0  0
 42 43  1  0  0  0  0
 48 49  1  0  0  0  0
M  END
>  <MolRegNo>
2296852

>  <m>
=

>  <Value>
300

>  <Unit>
nM

>  <Type>
IC50

>  <pValue>
6.52

>  <Ligand Efficiency>
0

>  <Binding Efficiency>
0

>  <Surface Efficiency>
0

>  <Assay Index>
1181982

>  <Assay Category>


>  <Assay Organism>
Homo sapiens

>  <Target ID>
17045

>  <Target Name>
Cytochrome P450 3A4

>  <Target Organism>
Homo sapiens

>  <Target Description>
Target is a single protein chain

>  <Sequence Accession>
P08684

>  <Reference>
ACS Med Chem Lett 9 (7), 761-767 (2018)

>  <Pubmed ID>
30034615

>  <DOI>
10.1021/acsmedchemlett.8b00220

$$$$
2292121
Actelion Java MolfileCreator 1.0

 50 56  0  0  0  0  0  0  0  0999 V2000
    0.0000   -0.0000   -0.0000 S   0  0  0  0  0  0  0  0  0  0  0  0
    1.2960   -0.7491   -0.0000 C   0  0  0  0  0  0  0  0  0  0  0  0
   -0.0119    1.5219   -0.0000 C   0  0  0  0  0  0  0  0  0  0  0  0
   -0.0238   -1.4744   -0.0000 C   0  0  0  0  0  0  0  0  0  0  0  0
    2.5088   -1.6289   -0.0000 C   0  0  0  0  0  0  0  0  0  0  0  0
    1.7478    0.7015   -0.0000 C   0  0  0  0  0  0  0  0  0  0  0  0
   -0.0476   -2.9725   -0.0000 O   0  0  0  0  0  0  0  0  0  0  0  0
   -1.3317   -0.7015   -0.0000 N   0  0  0  0  0  0  0  0  0  0  0  0
    3.7097   -0.7253   -0.0000 N   0  0  0  0  0  0  0  0  0  0  0  0
    3.2460    0.7134   -0.0000 C   0  0  0  0  0  0  0  0  0  0  0  0
   -2.6515   -1.4387   -0.0000 C   0  0  0  0  0  0  0  0  0  0  0  0
    5.0057   -1.4625   -0.0000 C   0  0  0  0  0  0  0  0  0  0  0  0
   -2.6752   -2.9249   -0.0000 C   0  0  0  0  0  0  0  0  0  0  0  0
   -3.9594   -0.6539   -0.0000 C   0  0  0  0  0  0  0  0  0  0  0  0
    6.3017   -0.6896   -0.0000 C   0  0  0  0  0  0  0  0  0  0  0  0
   -3.9950   -3.6621   -0.0000 C   0  0  0  0  0  0  0  0  0  0  0  0
   -5.2792   -1.3792   -0.0000 C   0  0  0  0  0  0  0  0  0  0  0  0
    6.2898    0.8323   -0.0000 O   0  0  0  0  0  0  0  0  0  0  0  0
    7.5977   -1.4268   -0.0000 N   0  0  0  0  0  0  0  0  0  0  0  0
   -4.3280   -5.1365   -0.0000 C   0  0  0  0  0  0  0  0  0  0  0  0
   -5.3148   -2.8893   -0.0000 C   0  0  0  0  0  0  0  0  0  0  0  0
    8.8937   -0.6539   -0.0000 C   0  0  0  0  0  0  0  0  0  0  0  0
    7.5858   -2.9249   -0.0000 C   0  0  0  0  0  0  0  0  0  0  0  0
   -5.8499   -5.2792   -0.0000 N   0  0  0  0  0  0  0  0  0  0  0  0
   -3.5908   -6.4206   -0.0000 C   0  0  0  0  0  0  0  0  0  0  0  0
   -6.4563   -3.8880   -0.0000 N   0  0  0  0  0  0  0  0  0  0  0  0
   10.1897   -1.4030   -0.0000 C   0  0  0  0  0  0  0  0  0  0  0  0
    8.8818   -3.6621   -0.0000 C   0  0  0  0  0  0  0  0  0  0  0  0
   -2.1164   -6.4087   -0.0000 C   0  0  0  0  0  0  0  0  0  0  0  0
   -4.3636   -7.7047   -0.0000 C   0  0  0  0  0  0  0  0  0  0  0  0
   10.1778   -2.9012   -0.0000 C   0  0  0  0  0  0  0  0  0  0  0  0
   -1.3792   -7.6928   -0.0000 N   0  0  0  0  0  0  0  0  0  0  0  0
   -3.6264   -8.9888   -0.0000 C   0  0  0  0  0  0  0  0  0  0  0  0
   11.4738   -3.6383   -0.0000 C   0  0  0  0  0  0  0  0  0  0  0  0
   -2.1402   -8.9888   -0.0000 C   0  0  0  0  0  0  0  0  0  0  0  0
   11.4619   -5.1246   -0.0000 C   0  0  0  0  0  0  0  0  0  0  0  0
   12.7580   -2.8655   -0.0000 C   0  0  0  0  0  0  0  0  0  0  0  0
   -1.4030  -10.2848   -0.0000 O   0  0  0  0  0  0  0  0  0  0  0  0
   12.7461   -5.8618   -0.0000 C   0  0  0  0  0  0  0  0  0  0  0  0
   14.0421   -3.6027   -0.0000 C   0  0  0  0  0  0  0  0  0  0  0  0
   -2.1759  -11.5808   -0.0000 C   0  0  0  0  0  0  0  0  0  0  0  0
   14.0421   -5.1008   -0.0000 C   0  0  0  0  0  0  0  0  0  0  0  0
   -1.4387  -12.8769   -0.0000 C   0  0  0  0  0  0  0  0  0  0  0  0
   -3.6978  -11.5690   -0.0000 C   0  0  0  0  0  0  0  0  0  0  0  0
   15.3262   -5.8380   -0.0000 C   0  0  0  0  0  0  0  0  0  0  0  0
   15.4689   -7.3123   -0.0000 N   0  0  0  0  0  0  0  0  0  0  0  0
   16.6816   -5.2078   -0.0000 N   0  0  0  0  0  0  0  0  0  0  0  0
   16.9194   -7.6096   -0.0000 N   0  0  0  0  0  0  0  0  0  0  0  0
   17.6685   -6.3136   -0.0000 C   0  0  0  0  0  0  0  0  0  0  0  0
   17.5139   -8.9769   -0.0000 C   0  0  0  0  0  0  0  0  0  0  0  0
  2  1  1  1  0  0  0
  1  3  1  0  0  0  0
  2  4  1  0  0  0  0
  2  5  1  0  0  0  0
  2  6  1  0  0  0  0
  4  7  2  0  0  0  0
  4  8  1  0  0  0  0
  5  9  1  0  0  0  0
  6 10  1  0  0  0  0
  8 11  1  0  0  0  0
  9 12  1  0  0  0  0
 11 13  2  0  0  0  0
 11 14  1  0  0  0  0
 12 15  1  0  0  0  0
 13 16  1  0  0  0  0
 14 17  2  0  0  0  0
 15 18  2  0  0  0  0
 15 19  1  0  0  0  0
 16 20  1  0  0  0  0
 16 21  2  0  0  0  0
 19 22  1  0  0  0  0
 19 23  1  0  0  0  0
 20 24  2  0  0  0  0
 20 25  1  0  0  0  0
 21 26  1  0  0  0  0
 22 27  1  0  0  0  0
 23 28  1  0  0  0  0
 25 29  2  0  0  0  0
 25 30  1  0  0  0  0
 27 31  2  0  0  0  0
 29 32  1  0  0  0  0
 30 33  2  0  0  0  0
 31 34  1  0  0  0  0
 32 35  2  0  0  0  0
 34 36  2  0  0  0  0
 34 37  1  0  0  0  0
 35 38  1  0  0  0  0
 36 39  1  0  0  0  0
 37 40  2  0  0  0  0
 38 41  1  0  0  0  0
 39 42  2  0  0  0  0
 41 43  1  0  0  0  0
 41 44  1  0  0  0  0
 42 45  1  0  0  0  0
 45 46  2  0  0  0  0
 45 47  1  0  0  0  0
 46 48  1  0  0  0  0
 47 49  2  0  0  0  0
 48 50  1  0  0  0  0
  9 10  1  0  0  0  0
 17 21  1  0  0  0  0
 24 26  1  0  0  0  0
 28 31  1  0  0  0  0
 33 35  1  0  0  0  0
 40 42  1  0  0  0  0
 48 49  1  0  0  0  0
M  END
>  <MolRegNo>
2292121

>  <m>
=

>  <Value>
1700

>  <Unit>
nM

>  <Type>
IC50

>  <pValue>
5.77

>  <Ligand Efficiency>
0

>  <Binding Efficiency>
0

>  <Surface Efficiency>
0

>  <Assay Index>
1181982

>  <Assay Category>


>  <Assay Organism>
Homo sapiens

>  <Target ID>
17045

>  <Target Name>
Cytochrome P450 3A4

>  <Target Organism>
Homo sapiens

>  <Target Description>
Target is a single protein chain

>  <Sequence Accession>
P08684

>  <Reference>
ACS Med Chem Lett 9 (7), 761-767 (2018)

>  <Pubmed ID>
30034615

>  <DOI>
10.1021/acsmedchemlett.8b00220

$$$$
2283875
Actelion Java MolfileCreator 1.0

 27 30  0  0  0  0  0  0  0  0999 V2000
    0.0000   -0.0000   -0.0000 O   0  0  0  0  0  0  0  0  0  0  0  0
    1.0004   -1.0957   -0.0000 C   0  0  0  0  0  0  0  0  0  0  0  0
    0.5359   -2.5129   -0.0000 C   0  0  0  0  0  0  0  0  0  0  0  0
    2.4533   -0.7622   -0.0000 C   0  0  0  0  0  0  0  0  0  0  0  0
   -0.9170   -2.9774   -0.0000 C   0  0  0  0  0  0  0  0  0  0  0  0
    1.4172   -3.7157   -0.0000 C   0  0  0  0  0  0  0  0  0  0  0  0
    3.4537   -1.8579   -0.0000 N   0  0  0  0  0  0  0  0  0  0  0  0
    2.8940    0.6788   -0.0000 C   0  0  0  0  0  0  0  0  0  0  0  0
   -0.9170   -4.4779   -0.0000 C   0  0  0  0  0  0  0  0  0  0  0  0
   -2.2271   -2.2151   -0.0000 C   0  0  0  0  0  0  0  0  0  0  0  0
    0.5240   -4.9305   -0.0000 N   0  0  0  0  0  0  0  0  0  0  0  0
    4.9067   -1.5244   -0.0000 C   0  0  0  0  0  0  0  0  0  0  0  0
    4.3469    1.0004   -0.0000 C   0  0  0  0  0  0  0  0  0  0  0  0
    1.8698    1.7864   -0.0000 C   0  0  0  0  0  0  0  0  0  0  0  0
   -2.2390   -5.2163   -0.0000 C   0  0  0  0  0  0  0  0  0  0  0  0
   -3.5371   -2.9535   -0.0000 C   0  0  0  0  0  0  0  0  0  0  0  0
    5.3473   -0.0834   -0.0000 C   0  0  0  0  0  0  0  0  0  0  0  0
    5.9071   -2.6201   -0.0000 C   0  0  0  0  0  0  0  0  0  0  0  0
    4.7876    2.4414   -0.0000 C   0  0  0  0  0  0  0  0  0  0  0  0
    2.3104    3.2274   -0.0000 C   0  0  0  0  0  0  0  0  0  0  0  0
   -3.5490   -4.4541   -0.0000 C   0  0  0  0  0  0  0  0  0  0  0  0
    6.8003    0.2501   -0.0000 N   0  0  0  0  0  0  0  0  0  0  0  0
    7.3600   -2.2866   -0.0000 C   0  0  0  0  0  0  0  0  0  0  0  0
    3.7634    3.5609   -0.0000 C   0  0  0  0  0  0  0  0  0  0  0  0
    7.8126   -0.8456   -0.0000 C   0  0  0  0  0  0  0  0  0  0  0  0
    8.3604   -3.3823   -0.0000 O   0  0  0  0  0  0  0  0  0  0  0  0
    7.8959   -4.7995   -0.0000 C   0  0  0  0  0  0  0  0  0  0  0  0
  1  2  2  0  0  0  0
  2  3  1  0  0  0  0
  2  4  1  0  0  0  0
  3  5  1  0  0  0  0
  3  6  2  0  0  0  0
  4  7  1  0  0  0  0
  4  8  1  0  0  0  0
  5  9  2  0  0  0  0
  5 10  1  0  0  0  0
  6 11  1  0  0  0  0
  7 12  1  0  0  0  0
  8 13  2  0  0  0  0
  8 14  1  0  0  0  0
  9 15  1  0  0  0  0
 10 16  2  0  0  0  0
 12 17  2  0  0  0  0
 12 18  1  0  0  0  0
 13 19  1  0  0  0  0
 14 20  2  0  0  0  0
 15 21  2  0  0  0  0
 17 22  1  0  0  0  0
 18 23  2  0  0  0  0
 19 24  2  0  0  0  0
 22 25  2  0  0  0  0
 23 26  1  0  0  0  0
 26 27  1  0  0  0  0
  9 11  1  0  0  0  0
 16 21  1  0  0  0  0
 20 24  1  0  0  0  0
 23 25  1  0  0  0  0
M  END
>  <MolRegNo>
2283875

>  <m>
=

>  <Value>
50

>  <Unit>
nM

>  <Type>
IC50

>  <pValue>
7.3

>  <Ligand Efficiency>
0

>  <Binding Efficiency>
0

>  <Surface Efficiency>
0

>  <Assay Index>
1183008

>  <Assay Category>


>  <Assay Organism>
Homo sapiens

>  <Target ID>
17045

>  <Target Name>
Cytochrome P450 3A4

>  <Target Organism>
Homo sapiens

>  <Target Description>
Target is a single protein chain

>  <Sequence Accession>
P08684

>  <Reference>
J Med Chem 61 (18), 8390-8401 (2018)

>  <Pubmed ID>
30149709

>  <DOI>
10.1021/acs.jmedchem.8b00913

$$$$
2301618
Actelion Java MolfileCreator 1.0

 38 42  0  0  0  0  0  0  0  0999 V2000
    0.0000   -0.0000   -0.0000 Br  0  0  0  0  0  0  0  0  0  0  0  0
    1.2966   -0.7375   -0.0000 C   0  0  0  0  0  0  0  0  0  0  0  0
    2.5812    0.0357   -0.0000 C   0  0  0  0  0  0  0  0  0  0  0  0
    1.2847   -2.2363   -0.0000 C   0  0  0  0  0  0  0  0  0  0  0  0
    3.8778   -0.7018   -0.0000 C   0  0  0  0  0  0  0  0  0  0  0  0
    2.5693   -2.9738   -0.0000 C   0  0  0  0  0  0  0  0  0  0  0  0
    3.8659   -2.2006   -0.0000 C   0  0  0  0  0  0  0  0  0  0  0  0
    5.1625    0.0595   -0.0000 C   0  0  0  0  0  0  0  0  0  0  0  0
    5.1625   -2.9381   -0.0000 C   0  0  0  0  0  0  0  0  0  0  0  0
    6.4471   -0.6423   -0.0000 C   0  0  0  0  0  0  0  0  0  0  0  0
    6.4352   -2.1292   -0.0000 C   0  0  0  0  0  0  0  0  0  0  0  0
    7.7437    0.1190   -0.0000 C   0  0  0  0  0  0  0  0  0  0  0  0
    7.7199   -2.8786   -0.0000 O   0  0  0  0  0  0  0  0  0  0  0  0
    7.7437    1.6415   -0.0000 C   0  0  0  0  0  0  0  0  0  0  0  0
    9.0283   -0.6304   -0.0000 C   0  0  0  0  0  0  0  0  0  0  0  0
    7.6961   -4.3774   -0.0000 C   0  0  0  0  0  0  0  0  0  0  0  0
    6.4352    2.4147   -0.0000 C   0  0  0  0  0  0  0  0  0  0  0  0
    9.0521    2.3909   -0.0000 C   0  0  0  0  0  0  0  0  0  0  0  0
    9.0164    0.8921   -0.0000 O   0  0  0  0  0  0  0  0  0  0  0  0
   10.3130    0.1427   -0.0000 C   0  0  0  0  0  0  0  0  0  0  0  0
    9.0164   -2.1173   -0.0000 C   0  0  0  0  0  0  0  0  0  0  0  0
    5.1149    1.6891   -0.0000 O   0  0  0  0  0  0  0  0  0  0  0  0
    6.4352    3.9254   -0.0000 N   0  0  0  0  0  0  0  0  0  0  0  0
    9.0402    3.9135   -0.0000 C   0  0  0  0  0  0  0  0  0  0  0  0
   11.6215   -0.5948   -0.0000 C   0  0  0  0  0  0  0  0  0  0  0  0
   10.3011    1.6653   -0.0000 C   0  0  0  0  0  0  0  0  0  0  0  0
   10.3011   -2.8667   -0.0000 C   0  0  0  0  0  0  0  0  0  0  0  0
    3.8064    2.4623   -0.0000 C   0  0  0  0  0  0  0  0  0  0  0  0
    7.7318    4.6866   -0.0000 C   0  0  0  0  0  0  0  0  0  0  0  0
   11.9426   -2.0459   -0.0000 O   0  0  0  0  0  0  0  0  0  0  0  0
   12.9061    0.1784   -0.0000 C   0  0  0  0  0  0  0  0  0  0  0  0
   11.5977    2.4266   -0.0000 C   0  0  0  0  0  0  0  0  0  0  0  0
   10.2892   -4.3655   -0.0000 N   0  0  0  0  0  0  0  0  0  0  0  0
   13.4295   -2.1768   -0.0000 C   0  0  0  0  0  0  0  0  0  0  0  0
   12.8942    1.6772   -0.0000 C   0  0  0  0  0  0  0  0  0  0  0  0
   14.0243   -0.8089   -0.0000 C   0  0  0  0  0  0  0  0  0  0  0  0
   11.5858   -5.1030   -0.0000 C   0  0  0  0  0  0  0  0  0  0  0  0
    8.9808   -5.1030   -0.0000 C   0  0  0  0  0  0  0  0  0  0  0  0
  1  2  1  0  0  0  0
  2  3  2  0  0  0  0
  2  4  1  0  0  0  0
  3  5  1  0  0  0  0
  4  6  2  0  0  0  0
  5  7  1  0  0  0  0
  5  8  2  0  0  0  0
  7  9  2  0  0  0  0
  8 10  1  0  0  0  0
  9 11  1  0  0  0  0
 12 10  1  1  0  0  0
 11 13  1  0  0  0  0
 12 14  1  0  0  0  0
 12 15  1  0  0  0  0
 13 16  1  0  0  0  0
 14 17  2  0  0  0  0
 14 18  1  0  0  0  0
 15 19  1  1  0  0  0
 15 20  1  0  0  0  0
 15 21  1  0  0  0  0
 17 22  1  0  0  0  0
 17 23  1  0  0  0  0
 18 24  2  0  0  0  0
 20 25  2  0  0  0  0
 20 26  1  0  0  0  0
 21 27  1  0  0  0  0
 22 28  1  0  0  0  0
 23 29  2  0  0  0  0
 25 30  1  0  0  0  0
 25 31  1  0  0  0  0
 26 32  2  0  0  0  0
 27 33  1  0  0  0  0
 30 34  1  0  0  0  0
 31 35  2  0  0  0  0
 31 36  1  0  0  0  0
 33 37  1  0  0  0  0
 33 38  1  0  0  0  0
  6  7  1  0  0  0  0
 10 11  2  0  0  0  0
 24 29  1  0  0  0  0
 32 35  1  0  0  0  0
 34 36  2  0  0  0  0
M  END
>  <MolRegNo>
2301618

>  <m>
=

>  <Value>
7800

>  <Unit>
nM

>  <Type>
IC50

>  <pValue>
5.11

>  <Ligand Efficiency>
0

>  <Binding Efficiency>
0

>  <Surface Efficiency>
0

>  <Assay Index>
1186507

>  <Assay Category>


>  <Assay Organism>
Homo sapiens

>  <Target ID>
17045

>  <Target Name>
Cytochrome P450 3A4

>  <Target Organism>
Homo sapiens

>  <Target Description>
Target is a single protein chain

>  <Sequence Accession>
P08684

>  <Reference>
Bioorg Med Chem 26 (8), 1797-1809 (2018)

>  <Pubmed ID>
29482950

>  <DOI>
10.1016/j.bmc.2018.02.026

$$$$
2298969
Actelion Java MolfileCreator 1.0

 36 40  0  0  0  0  0  0  0  0999 V2000
    0.0000   -0.0000   -0.0000 Br  0  0  0  0  0  0  0  0  0  0  0  0
    1.2973   -0.7379   -0.0000 C   0  0  0  0  0  0  0  0  0  0  0  0
    2.5827    0.0357   -0.0000 C   0  0  0  0  0  0  0  0  0  0  0  0
    1.2854   -2.2375   -0.0000 C   0  0  0  0  0  0  0  0  0  0  0  0
    3.8799   -0.7022   -0.0000 C   0  0  0  0  0  0  0  0  0  0  0  0
    2.5708   -2.9754   -0.0000 C   0  0  0  0  0  0  0  0  0  0  0  0
    3.8680   -2.2018   -0.0000 C   0  0  0  0  0  0  0  0  0  0  0  0
    5.1653    0.0595   -0.0000 C   0  0  0  0  0  0  0  0  0  0  0  0
    5.1653   -2.9397   -0.0000 C   0  0  0  0  0  0  0  0  0  0  0  0
    6.4507   -0.6427   -0.0000 C   0  0  0  0  0  0  0  0  0  0  0  0
    6.4388   -2.1304   -0.0000 C   0  0  0  0  0  0  0  0  0  0  0  0
    7.7480    0.1190   -0.0000 C   0  0  0  0  0  0  0  0  0  0  0  0
    7.7242   -2.8802   -0.0000 O   0  0  0  0  0  0  0  0  0  0  0  0
    7.7480    1.6424   -0.0000 C   0  0  0  0  0  0  0  0  0  0  0  0
    9.0334   -0.6308   -0.0000 C   0  0  0  0  0  0  0  0  0  0  0  0
    7.7004   -4.3798   -0.0000 C   0  0  0  0  0  0  0  0  0  0  0  0
    6.4388    2.4160   -0.0000 C   0  0  0  0  0  0  0  0  0  0  0  0
    9.0572    2.3922   -0.0000 C   0  0  0  0  0  0  0  0  0  0  0  0
    9.0215    0.8926   -0.0000 O   0  0  0  0  0  0  0  0  0  0  0  0
   10.3188    0.1428   -0.0000 C   0  0  0  0  0  0  0  0  0  0  0  0
    9.0215   -2.1185   -0.0000 C   0  0  0  0  0  0  0  0  0  0  0  0
    6.4388    3.9276   -0.0000 C   0  0  0  0  0  0  0  0  0  0  0  0
    9.0453    3.9157   -0.0000 C   0  0  0  0  0  0  0  0  0  0  0  0
   10.3069    1.6662   -0.0000 C   0  0  0  0  0  0  0  0  0  0  0  0
   11.6279   -0.5951   -0.0000 C   0  0  0  0  0  0  0  0  0  0  0  0
   10.3069   -2.8683   -0.0000 C   0  0  0  0  0  0  0  0  0  0  0  0
    7.7361    4.6893   -0.0000 C   0  0  0  0  0  0  0  0  0  0  0  0
   11.6041    2.4279   -0.0000 C   0  0  0  0  0  0  0  0  0  0  0  0
   12.9014    0.1904   -0.0000 C   0  0  0  0  0  0  0  0  0  0  0  0
   10.2950   -4.3679   -0.0000 N   0  0  0  0  0  0  0  0  0  0  0  0
   12.8895    1.6900   -0.0000 C   0  0  0  0  0  0  0  0  0  0  0  0
   11.9017    3.9038   -0.0000 C   0  0  0  0  0  0  0  0  0  0  0  0
   11.5922   -5.1058   -0.0000 C   0  0  0  0  0  0  0  0  0  0  0  0
    8.9858   -5.1058   -0.0000 C   0  0  0  0  0  0  0  0  0  0  0  0
   13.9845    2.7017   -0.0000 O   0  0  0  0  0  0  0  0  0  0  0  0
   13.3775    4.0704   -0.0000 C   0  0  0  0  0  0  0  0  0  0  0  0
  1  2  1  0  0  0  0
  2  3  2  0  0  0  0
  2  4  1  0  0  0  0
  3  5  1  0  0  0  0
  4  6  2  0  0  0  0
  5  7  1  0  0  0  0
  5  8  2  0  0  0  0
  7  9  2  0  0  0  0
  8 10  1  0  0  0  0
  9 11  1  0  0  0  0
 12 10  1  1  0  0  0
 11 13  1  0  0  0  0
 12 14  1  0  0  0  0
 12 15  1  0  0  0  0
 13 16  1  0  0  0  0
 14 17  2  0  0  0  0
 14 18  1  0  0  0  0
 15 19  1  1  0  0  0
 15 20  1  0  0  0  0
 15 21  1  0  0  0  0
 17 22  1  0  0  0  0
 18 23  2  0  0  0  0
 20 24  2  0  0  0  0
 20 25  1  0  0  0  0
 21 26  1  0  0  0  0
 22 27  2  0  0  0  0
 24 28  1  0  0  0  0
 25 29  2  0  0  0  0
 26 30  1  0  0  0  0
 28 31  2  0  0  0  0
 28 32  1  0  0  0  0
 30 33  1  0  0  0  0
 30 34  1  0  0  0  0
 31 35  1  0  0  0  0
 32 36  2  0  0  0  0
  6  7  1  0  0  0  0
 10 11  2  0  0  0  0
 23 27  1  0  0  0  0
 29 31  1  0  0  0  0
 35 36  1  0  0  0  0
M  END
>  <MolRegNo>
2298969

>  <m>
=

>  <Value>
9700

>  <Unit>
nM

>  <Type>
IC50

>  <pValue>
5.01

>  <Ligand Efficiency>
0

>  <Binding Efficiency>
0

>  <Surface Efficiency>
0

>  <Assay Index>
1186507

>  <Assay Category>


>  <Assay Organism>
Homo sapiens

>  <Target ID>
17045

>  <Target Name>
Cytochrome P450 3A4

>  <Target Organism>
Homo sapiens

>  <Target Description>
Target is a single protein chain

>  <Sequence Accession>
P08684

>  <Reference>
Bioorg Med Chem 26 (8), 1797-1809 (2018)

>  <Pubmed ID>
29482950

>  <DOI>
10.1016/j.bmc.2018.02.026

$$$$
2299234
Actelion Java MolfileCreator 1.0

 40 44  0  0  0  0  0  0  0  0999 V2000
    0.0000   -0.0000   -0.0000 Br  0  0  0  0  0  0  0  0  0  0  0  0
    1.2965   -0.7374   -0.0000 C   0  0  0  0  0  0  0  0  0  0  0  0
    2.5810    0.0357   -0.0000 C   0  0  0  0  0  0  0  0  0  0  0  0
    1.2846   -2.2242   -0.0000 C   0  0  0  0  0  0  0  0  0  0  0  0
    3.8775   -0.7017   -0.0000 C   0  0  0  0  0  0  0  0  0  0  0  0
    2.5691   -2.9616   -0.0000 C   0  0  0  0  0  0  0  0  0  0  0  0
    3.8656   -2.2004   -0.0000 C   0  0  0  0  0  0  0  0  0  0  0  0
    5.1620    0.0595   -0.0000 C   0  0  0  0  0  0  0  0  0  0  0  0
    5.1620   -2.9378   -0.0000 C   0  0  0  0  0  0  0  0  0  0  0  0
    6.4466   -0.6423   -0.0000 C   0  0  0  0  0  0  0  0  0  0  0  0
    6.4347   -2.1290   -0.0000 C   0  0  0  0  0  0  0  0  0  0  0  0
    7.7430    0.1189   -0.0000 C   0  0  0  0  0  0  0  0  0  0  0  0
    7.7192   -2.8784   -0.0000 O   0  0  0  0  0  0  0  0  0  0  0  0
    7.7430    1.6414   -0.0000 C   0  0  0  0  0  0  0  0  0  0  0  0
    9.0276   -0.6304   -0.0000 C   0  0  0  0  0  0  0  0  0  0  0  0
    7.6955   -4.3770   -0.0000 C   0  0  0  0  0  0  0  0  0  0  0  0
    6.4347    2.4145   -0.0000 C   0  0  0  0  0  0  0  0  0  0  0  0
    9.0514    2.3907   -0.0000 C   0  0  0  0  0  0  0  0  0  0  0  0
    9.0157    0.8921   -0.0000 O   0  0  0  0  0  0  0  0  0  0  0  0
   10.3121    0.1427   -0.0000 C   0  0  0  0  0  0  0  0  0  0  0  0
    9.0157   -2.1171   -0.0000 C   0  0  0  0  0  0  0  0  0  0  0  0
    5.1144    1.6890   -0.0000 O   0  0  0  0  0  0  0  0  0  0  0  0
    6.4347    3.9250   -0.0000 C   0  0  0  0  0  0  0  0  0  0  0  0
    9.0395    3.9131   -0.0000 C   0  0  0  0  0  0  0  0  0  0  0  0
   10.3003    1.6652   -0.0000 C   0  0  0  0  0  0  0  0  0  0  0  0
   11.6205   -0.5947   -0.0000 C   0  0  0  0  0  0  0  0  0  0  0  0
   10.3003   -2.8665   -0.0000 C   0  0  0  0  0  0  0  0  0  0  0  0
    3.8061    2.4621   -0.0000 C   0  0  0  0  0  0  0  0  0  0  0  0
    5.1263    4.6982   -0.0000 O   0  0  0  0  0  0  0  0  0  0  0  0
    7.7311    4.6863   -0.0000 N   0  0  0  0  0  0  0  0  0  0  0  0
   11.5967    2.4264   -0.0000 C   0  0  0  0  0  0  0  0  0  0  0  0
   12.8932    0.1903   -0.0000 C   0  0  0  0  0  0  0  0  0  0  0  0
   10.2884   -4.3651   -0.0000 N   0  0  0  0  0  0  0  0  0  0  0  0
    5.1263    6.2087   -0.0000 C   0  0  0  0  0  0  0  0  0  0  0  0
   12.8813    1.6890   -0.0000 C   0  0  0  0  0  0  0  0  0  0  0  0
   11.8941    3.9013   -0.0000 C   0  0  0  0  0  0  0  0  0  0  0  0
   11.5848   -5.1026   -0.0000 C   0  0  0  0  0  0  0  0  0  0  0  0
    8.9800   -5.1026   -0.0000 C   0  0  0  0  0  0  0  0  0  0  0  0
   13.9755    2.7000   -0.0000 O   0  0  0  0  0  0  0  0  0  0  0  0
   13.3689    4.0678   -0.0000 C   0  0  0  0  0  0  0  0  0  0  0  0
  1  2  1  0  0  0  0
  2  3  2  0  0  0  0
  2  4  1  0  0  0  0
  3  5  1  0  0  0  0
  4  6  2  0  0  0  0
  5  7  1  0  0  0  0
  5  8  2  0  0  0  0
  7  9  2  0  0  0  0
  8 10  1  0  0  0  0
  9 11  1  0  0  0  0
 12 10  1  1  0  0  0
 11 13  1  0  0  0  0
 12 14  1  0  0  0  0
 12 15  1  0  0  0  0
 13 16  1  0  0  0  0
 14 17  2  0  0  0  0
 14 18  1  0  0  0  0
 15 19  1  1  0  0  0
 15 20  1  0  0  0  0
 15 21  1  0  0  0  0
 17 22  1  0  0  0  0
 17 23  1  0  0  0  0
 18 24  2  0  0  0  0
 20 25  2  0  0  0  0
 20 26  1  0  0  0  0
 21 27  1  0  0  0  0
 22 28  1  0  0  0  0
 23 29  1  0  0  0  0
 23 30  2  0  0  0  0
 25 31  1  0  0  0  0
 26 32  2  0  0  0  0
 27 33  1  0  0  0  0
 29 34  1  0  0  0  0
 31 35  2  0  0  0  0
 31 36  1  0  0  0  0
 33 37  1  0  0  0  0
 33 38  1  0  0  0  0
 35 39  1  0  0  0  0
 36 40  2  0  0  0  0
  6  7  1  0  0  0  0
 10 11  2  0  0  0  0
 24 30  1  0  0  0  0
 32 35  1  0  0  0  0
 39 40  1  0  0  0  0
M  END
>  <MolRegNo>
2299234

>  <m>
=

>  <Value>
6900

>  <Unit>
nM

>  <Type>
IC50

>  <pValue>
5.16

>  <Ligand Efficiency>
0

>  <Binding Efficiency>
0

>  <Surface Efficiency>
0

>  <Assay Index>
1186507

>  <Assay Category>


>  <Assay Organism>
Homo sapiens

>  <Target ID>
17045

>  <Target Name>
Cytochrome P450 3A4

>  <Target Organism>
Homo sapiens

>  <Target Description>
Target is a single protein chain

>  <Sequence Accession>
P08684

>  <Reference>
Bioorg Med Chem 26 (8), 1797-1809 (2018)

>  <Pubmed ID>
29482950

>  <DOI>
10.1016/j.bmc.2018.02.026

$$$$
2300330
Actelion Java MolfileCreator 1.0

 35 39  0  0  0  0  0  0  0  0999 V2000
    0.0000   -0.0000   -0.0000 F   0  0  0  0  0  0  0  0  0  0  0  0
   -1.2740   -0.7904   -0.0000 C   0  0  0  0  0  0  0  0  0  0  0  0
   -2.6188   -0.0944   -0.0000 C   0  0  0  0  0  0  0  0  0  0  0  0
   -1.2150   -2.2767   -0.0000 C   0  0  0  0  0  0  0  0  0  0  0  0
   -3.8810   -0.8847   -0.0000 C   0  0  0  0  0  0  0  0  0  0  0  0
   -2.7014    1.4156   -0.0000 C   0  0  0  0  0  0  0  0  0  0  0  0
   -2.4890   -3.0671   -0.0000 C   0  0  0  0  0  0  0  0  0  0  0  0
   -3.8220   -2.3711   -0.0000 C   0  0  0  0  0  0  0  0  0  0  0  0
   -5.2022   -0.1534   -0.0000 C   0  0  0  0  0  0  0  0  0  0  0  0
   -1.4510    2.2295   -0.0000 N   0  0  0  0  0  0  0  0  0  0  0  0
   -5.2494    1.3566   -0.0000 F   0  0  0  0  0  0  0  0  0  0  0  0
   -6.4880   -0.9201   -0.0000 F   0  0  0  0  0  0  0  0  0  0  0  0
   -6.5116    0.6016   -0.0000 F   0  0  0  0  0  0  0  0  0  0  0  0
   -1.5335    3.7395   -0.0000 C   0  0  0  0  0  0  0  0  0  0  0  0
   -0.2831    4.5534   -0.0000 N   0  0  0  0  0  0  0  0  0  0  0  0
   -2.8665    4.4354   -0.0000 C   0  0  0  0  0  0  0  0  0  0  0  0
   -0.3657    6.0633   -0.0000 C   0  0  0  0  0  0  0  0  0  0  0  0
   -2.9491    5.9454   -0.0000 C   0  0  0  0  0  0  0  0  0  0  0  0
   -4.1405    3.6451   -0.0000 C   0  0  0  0  0  0  0  0  0  0  0  0
    0.8847    6.8773   -0.0000 N   0  0  0  0  0  0  0  0  0  0  0  0
   -1.6987    6.7593   -0.0000 N   0  0  0  0  0  0  0  0  0  0  0  0
   -4.2821    6.6414   -0.0000 C   0  0  0  0  0  0  0  0  0  0  0  0
   -5.4735    4.3411   -0.0000 C   0  0  0  0  0  0  0  0  0  0  0  0
    0.9555    8.3754   -0.0000 C   0  0  0  0  0  0  0  0  0  0  0  0
    2.2649    6.3465   -0.0000 C   0  0  0  0  0  0  0  0  0  0  0  0
   -4.3647    8.1513   -0.0000 C   0  0  0  0  0  0  0  0  0  0  0  0
   -5.5561    5.8510   -0.0000 C   0  0  0  0  0  0  0  0  0  0  0  0
    2.3947    8.7647   -0.0000 C   0  0  0  0  0  0  0  0  0  0  0  0
   -0.2123    9.3427   -0.0000 C   0  0  0  0  0  0  0  0  0  0  0  0
    3.1968    7.5143   -0.0000 C   0  0  0  0  0  0  0  0  0  0  0  0
   -5.7094    8.8473   -0.0000 O   0  0  0  0  0  0  0  0  0  0  0  0
   -3.1142    8.9652   -0.0000 N   0  0  0  0  0  0  0  0  0  0  0  0
    3.3266    9.9326   -0.0000 N   0  0  0  0  0  0  0  0  0  0  0  0
    4.6360    7.9036   -0.0000 C   0  0  0  0  0  0  0  0  0  0  0  0
    4.7068    9.4017   -0.0000 N   0  0  0  0  0  0  0  0  0  0  0  0
  1  2  1  0  0  0  0
  2  3  2  0  0  0  0
  2  4  1  0  0  0  0
  3  5  1  0  0  0  0
  3  6  1  0  0  0  0
  4  7  2  0  0  0  0
  5  8  2  0  0  0  0
  5  9  1  0  0  0  0
  6 10  1  0  0  0  0
  9 11  1  0  0  0  0
  9 12  1  0  0  0  0
  9 13  1  0  0  0  0
 10 14  1  0  0  0  0
 14 15  1  0  0  0  0
 14 16  1  0  0  0  0
 15 17  2  0  0  0  0
 16 18  2  0  0  0  0
 16 19  1  0  0  0  0
 17 20  1  0  0  0  0
 17 21  1  0  0  0  0
 18 22  1  0  0  0  0
 19 23  2  0  0  0  0
 20 24  1  0  0  0  0
 20 25  1  0  0  0  0
 22 26  1  0  0  0  0
 22 27  2  0  0  0  0
 24 28  1  0  0  0  0
 24 29  1  1  0  0  0
 25 30  1  0  0  0  0
 26 31  2  0  0  0  0
 26 32  1  0  0  0  0
 28 33  2  0  0  0  0
 30 34  2  0  0  0  0
 33 35  1  0  0  0  0
  7  8  1  0  0  0  0
 18 21  1  0  0  0  0
 23 27  1  0  0  0  0
 28 30  1  0  0  0  0
 34 35  1  0  0  0  0
M  END
>  <MolRegNo>
2300330

>  <m>
=

>  <Value>
158.49

>  <Unit>
nM

>  <Type>
IC50

>  <pValue>
6.8

>  <Ligand Efficiency>
0

>  <Binding Efficiency>
0

>  <Surface Efficiency>
0

>  <Assay Index>
1187970

>  <Assay Category>


>  <Assay Organism>
Homo sapiens

>  <Target ID>
17045

>  <Target Name>
Cytochrome P450 3A4

>  <Target Organism>
Homo sapiens

>  <Target Description>
Target is a single protein chain

>  <Sequence Accession>
P08684

>  <Reference>
Bioorg Med Chem 26 (8), 2107-2150 (2018)

>  <Pubmed ID>
29576271

>  <DOI>
10.1016/j.bmc.2018.03.021

$$$$
2298734
Actelion Java MolfileCreator 1.0

 35 39  0  0  0  0  0  0  0  0999 V2000
    0.0000   -0.0000   -0.0000 F   0  0  0  0  0  0  0  0  0  0  0  0
   -1.2952   -0.7536   -0.0000 C   0  0  0  0  0  0  0  0  0  0  0  0
   -2.6140   -0.0235   -0.0000 C   0  0  0  0  0  0  0  0  0  0  0  0
   -1.2835   -2.2372   -0.0000 C   0  0  0  0  0  0  0  0  0  0  0  0
   -3.9211   -0.7771   -0.0000 C   0  0  0  0  0  0  0  0  0  0  0  0
   -2.6494    1.4836   -0.0000 C   0  0  0  0  0  0  0  0  0  0  0  0
   -2.5787   -3.0026   -0.0000 C   0  0  0  0  0  0  0  0  0  0  0  0
   -3.9093   -2.2608   -0.0000 C   0  0  0  0  0  0  0  0  0  0  0  0
   -5.2163   -0.0471   -0.0000 C   0  0  0  0  0  0  0  0  0  0  0  0
   -1.3777    2.2726   -0.0000 N   0  0  0  0  0  0  0  0  0  0  0  0
   -5.2634    1.4483   -0.0000 F   0  0  0  0  0  0  0  0  0  0  0  0
   -6.4880   -0.8007   -0.0000 F   0  0  0  0  0  0  0  0  0  0  0  0
   -6.5116    0.7065   -0.0000 F   0  0  0  0  0  0  0  0  0  0  0  0
   -1.4130    3.7798   -0.0000 C   0  0  0  0  0  0  0  0  0  0  0  0
   -0.1413    4.5569   -0.0000 N   0  0  0  0  0  0  0  0  0  0  0  0
   -2.7318    4.5098   -0.0000 C   0  0  0  0  0  0  0  0  0  0  0  0
   -0.1766    6.0641   -0.0000 C   0  0  0  0  0  0  0  0  0  0  0  0
   -2.7671    6.0170   -0.0000 C   0  0  0  0  0  0  0  0  0  0  0  0
   -4.0270    3.7562   -0.0000 C   0  0  0  0  0  0  0  0  0  0  0  0
    1.0951    6.8530   -0.0000 N   0  0  0  0  0  0  0  0  0  0  0  0
   -1.4954    6.8059   -0.0000 N   0  0  0  0  0  0  0  0  0  0  0  0
   -4.0859    6.7588   -0.0000 C   0  0  0  0  0  0  0  0  0  0  0  0
   -5.3576    4.4863   -0.0000 C   0  0  0  0  0  0  0  0  0  0  0  0
    1.2128    8.3602   -0.0000 C   0  0  0  0  0  0  0  0  0  0  0  0
    2.4610    6.2761   -0.0000 C   0  0  0  0  0  0  0  0  0  0  0  0
   -4.1212    8.2660   -0.0000 C   0  0  0  0  0  0  0  0  0  0  0  0
   -5.3929    5.9935   -0.0000 C   0  0  0  0  0  0  0  0  0  0  0  0
    2.6611    8.7017   -0.0000 C   0  0  0  0  0  0  0  0  0  0  0  0
    3.4383    7.4182   -0.0000 C   0  0  0  0  0  0  0  0  0  0  0  0
   -5.4518    8.9961   -0.0000 O   0  0  0  0  0  0  0  0  0  0  0  0
   -2.8495    9.0432   -0.0000 N   0  0  0  0  0  0  0  0  0  0  0  0
    3.6267    9.8439   -0.0000 N   0  0  0  0  0  0  0  0  0  0  0  0
    4.8866    7.7715   -0.0000 C   0  0  0  0  0  0  0  0  0  0  0  0
    4.9926    9.2669   -0.0000 N   0  0  0  0  0  0  0  0  0  0  0  0
    6.0052    6.8059   -0.0000 C   0  0  0  0  0  0  0  0  0  0  0  0
  1  2  1  0  0  0  0
  2  3  2  0  0  0  0
  2  4  1  0  0  0  0
  3  5  1  0  0  0  0
  3  6  1  0  0  0  0
  4  7  2  0  0  0  0
  5  8  2  0  0  0  0
  5  9  1  0  0  0  0
  6 10  1  0  0  0  0
  9 11  1  0  0  0  0
  9 12  1  0  0  0  0
  9 13  1  0  0  0  0
 10 14  1  0  0  0  0
 14 15  1  0  0  0  0
 14 16  1  0  0  0  0
 15 17  2  0  0  0  0
 16 18  2  0  0  0  0
 16 19  1  0  0  0  0
 17 20  1  0  0  0  0
 17 21  1  0  0  0  0
 18 22  1  0  0  0  0
 19 23  2  0  0  0  0
 20 24  1  0  0  0  0
 20 25  1  0  0  0  0
 22 26  1  0  0  0  0
 22 27  2  0  0  0  0
 24 28  1  0  0  0  0
 25 29  1  0  0  0  0
 26 30  2  0  0  0  0
 26 31  1  0  0  0  0
 28 32  1  0  0  0  0
 29 33  1  0  0  0  0
 32 34  1  0  0  0  0
 33 35  1  0  0  0  0
  7  8  1  0  0  0  0
 18 21  1  0  0  0  0
 23 27  1  0  0  0  0
 28 29  2  0  0  0  0
 33 34  2  0  0  0  0
M  END
>  <MolRegNo>
2298734

>  <m>
=

>  <Value>
630.96

>  <Unit>
nM

>  <Type>
IC50

>  <pValue>
6.2

>  <Ligand Efficiency>
0

>  <Binding Efficiency>
0

>  <Surface Efficiency>
0

>  <Assay Index>
1187970

>  <Assay Category>


>  <Assay Organism>
Homo sapiens

>  <Target ID>
17045

>  <Target Name>
Cytochrome P450 3A4

>  <Target Organism>
Homo sapiens

>  <Target Description>
Target is a single protein chain

>  <Sequence Accession>
P08684

>  <Reference>
Bioorg Med Chem 26 (8), 2107-2150 (2018)

>  <Pubmed ID>
29576271

>  <DOI>
10.1016/j.bmc.2018.03.021

$$$$
2299608
Actelion Java MolfileCreator 1.0

 29 32  0  0  0  0  0  0  0  0999 V2000
    0.0000   -0.0000   -0.0000 O   0  0  0  0  0  0  0  0  0  0  0  0
   -0.0125   -1.5590   -0.0000 C   0  0  0  0  0  0  0  0  0  0  0  0
    1.2472   -2.3322   -0.0000 N   0  0  0  0  0  0  0  0  0  0  0  0
   -1.2971   -2.3322   -0.0000 C   0  0  0  0  0  0  0  0  0  0  0  0
    2.4944   -1.5340   -0.0000 C   0  0  0  0  0  0  0  0  0  0  0  0
   -2.7064   -1.7710   -0.0000 N   0  0  0  0  0  0  0  0  0  0  0  0
   -1.4343   -3.8164   -0.0000 C   0  0  0  0  0  0  0  0  0  0  0  0
    3.7540   -2.3073   -0.0000 C   0  0  0  0  0  0  0  0  0  0  0  0
    2.4819    0.0499   -0.0000 C   0  0  0  0  0  0  0  0  0  0  0  0
   -3.6917   -2.8935   -0.0000 O   0  0  0  0  0  0  0  0  0  0  0  0
   -2.8935   -4.1656   -0.0000 C   0  0  0  0  0  0  0  0  0  0  0  0
   -0.4116   -4.8765   -0.0000 C   0  0  0  0  0  0  0  0  0  0  0  0
    3.7416   -3.8788   -0.0000 O   0  0  0  0  0  0  0  0  0  0  0  0
    5.0137   -1.5091   -0.0000 O   0  0  0  0  0  0  0  0  0  0  0  0
    3.7416    0.8606   -0.0000 N   0  0  0  0  0  0  0  0  0  0  0  0
   -3.3051   -5.5749   -0.0000 C   0  0  0  0  0  0  0  0  0  0  0  0
   -0.8481   -6.2983   -0.0000 C   0  0  0  0  0  0  0  0  0  0  0  0
    6.3233   -2.2075   -0.0000 C   0  0  0  0  0  0  0  0  0  0  0  0
    3.8912    2.4445   -0.0000 C   0  0  0  0  0  0  0  0  0  0  0  0
    5.0636    0.2245   -0.0000 C   0  0  0  0  0  0  0  0  0  0  0  0
   -2.2948   -6.6351   -0.0000 C   0  0  0  0  0  0  0  0  0  0  0  0
   -4.7643   -5.9117   -0.0000 C   0  0  0  0  0  0  0  0  0  0  0  0
    7.5829   -1.4093   -0.0000 C   0  0  0  0  0  0  0  0  0  0  0  0
    6.3607   -3.6917   -0.0000 C   0  0  0  0  0  0  0  0  0  0  0  0
    5.3130    2.7812   -0.0000 N   0  0  0  0  0  0  0  0  0  0  0  0
    6.0364    1.4093   -0.0000 C   0  0  0  0  0  0  0  0  0  0  0  0
   -2.7189   -8.0444   -0.0000 C   0  0  0  0  0  0  0  0  0  0  0  0
   -5.2008   -7.3210   -0.0000 C   0  0  0  0  0  0  0  0  0  0  0  0
   -4.1781   -8.3811   -0.0000 C   0  0  0  0  0  0  0  0  0  0  0  0
  1  2  2  0  0  0  0
  2  3  1  0  0  0  0
  2  4  1  0  0  0  0
  5  3  1  1  0  0  0
  4  6  2  0  0  0  0
  4  7  1  0  0  0  0
  5  8  1  0  0  0  0
  5  9  1  0  0  0  0
  6 10  1  0  0  0  0
  7 11  2  0  0  0  0
  7 12  1  0  0  0  0
  8 13  2  0  0  0  0
  8 14  1  0  0  0  0
  9 15  1  0  0  0  0
 11 16  1  0  0  0  0
 12 17  1  0  0  0  0
 14 18  1  0  0  0  0
 15 19  1  0  0  0  0
 15 20  1  0  0  0  0
 16 21  2  0  0  0  0
 16 22  1  0  0  0  0
 18 23  1  0  0  0  0
 18 24  1  0  0  0  0
 19 25  2  0  0  0  0
 20 26  2  0  0  0  0
 21 27  1  0  0  0  0
 22 28  2  0  0  0  0
 27 29  2  0  0  0  0
 10 11  1  0  0  0  0
 17 21  1  0  0  0  0
 25 26  1  0  0  0  0
 28 29  1  0  0  0  0
M  END
>  <MolRegNo>
2299608

>  <m>
=

>  <Value>
7270

>  <Unit>
nM

>  <Type>
IC50

>  <pValue>
5.14

>  <Ligand Efficiency>
0

>  <Binding Efficiency>
0

>  <Surface Efficiency>
0

>  <Assay Index>
1189543

>  <Assay Category>


>  <Assay Organism>
Homo sapiens

>  <Target ID>
17045

>  <Target Name>
Cytochrome P450 3A4

>  <Target Organism>
Homo sapiens

>  <Target Description>
Target is a single protein chain

>  <Sequence Accession>
P08684

>  <Reference>
Bioorg Med Chem 26 (12), 3242-3253 (2018)

>  <Pubmed ID>
29748145

>  <DOI>
10.1016/j.bmc.2018.04.054

$$$$
2300402
Actelion Java MolfileCreator 1.0

 29 32  0  0  0  0  0  0  0  0999 V2000
    0.0000   -0.0000   -0.0000 O   0  0  0  0  0  0  0  0  0  0  0  0
   -0.0119   -1.4953   -0.0000 C   0  0  0  0  0  0  0  0  0  0  0  0
    1.2817   -2.2311   -0.0000 N   0  0  0  0  0  0  0  0  0  0  0  0
   -1.3292   -2.2311   -0.0000 C   0  0  0  0  0  0  0  0  0  0  0  0
    2.5752   -1.4716   -0.0000 C   0  0  0  0  0  0  0  0  0  0  0  0
   -2.7295   -1.6021   -0.0000 N   0  0  0  0  0  0  0  0  0  0  0  0
   -1.5072   -3.7145   -0.0000 C   0  0  0  0  0  0  0  0  0  0  0  0
    3.8688   -2.2074   -0.0000 C   0  0  0  0  0  0  0  0  0  0  0  0
    2.5634    0.0475   -0.0000 C   0  0  0  0  0  0  0  0  0  0  0  0
   -3.7501   -2.7058   -0.0000 O   0  0  0  0  0  0  0  0  0  0  0  0
   -2.9906   -4.0231   -0.0000 C   0  0  0  0  0  0  0  0  0  0  0  0
   -0.5103   -4.8063   -0.0000 C   0  0  0  0  0  0  0  0  0  0  0  0
    3.8569   -3.7027   -0.0000 O   0  0  0  0  0  0  0  0  0  0  0  0
    5.1624   -1.4478   -0.0000 O   0  0  0  0  0  0  0  0  0  0  0  0
    3.8569    0.8070   -0.0000 N   0  0  0  0  0  0  0  0  0  0  0  0
   -3.4534   -5.4353   -0.0000 C   0  0  0  0  0  0  0  0  0  0  0  0
   -0.9731   -6.2186   -0.0000 C   0  0  0  0  0  0  0  0  0  0  0  0
    6.4559   -2.1836   -0.0000 C   0  0  0  0  0  0  0  0  0  0  0  0
    3.9994    2.3142   -0.0000 C   0  0  0  0  0  0  0  0  0  0  0  0
    5.2217    0.2017   -0.0000 C   0  0  0  0  0  0  0  0  0  0  0  0
   -2.4566   -6.5390   -0.0000 C   0  0  0  0  0  0  0  0  0  0  0  0
   -4.9250   -5.7439   -0.0000 C   0  0  0  0  0  0  0  0  0  0  0  0
    7.7495   -1.4241   -0.0000 C   0  0  0  0  0  0  0  0  0  0  0  0
    6.4441   -3.6789   -0.0000 C   0  0  0  0  0  0  0  0  0  0  0  0
    5.4591    2.6346   -0.0000 N   0  0  0  0  0  0  0  0  0  0  0  0
    6.2186    1.3292   -0.0000 C   0  0  0  0  0  0  0  0  0  0  0  0
   -2.9194   -7.9512   -0.0000 C   0  0  0  0  0  0  0  0  0  0  0  0
   -5.3997   -7.1680   -0.0000 C   0  0  0  0  0  0  0  0  0  0  0  0
   -4.3910   -8.2598   -0.0000 C   0  0  0  0  0  0  0  0  0  0  0  0
  1  2  2  0  0  0  0
  2  3  1  0  0  0  0
  2  4  1  0  0  0  0
  5  3  1  1  0  0  0
  4  6  2  0  0  0  0
  4  7  1  0  0  0  0
  5  8  1  0  0  0  0
  5  9  1  0  0  0  0
  6 10  1  0  0  0  0
  7 11  2  0  0  0  0
  7 12  1  0  0  0  0
  8 13  2  0  0  0  0
  8 14  1  0  0  0  0
  9 15  1  0  0  0  0
 11 16  1  0  0  0  0
 12 17  2  0  0  0  0
 14 18  1  0  0  0  0
 15 19  1  0  0  0  0
 15 20  1  0  0  0  0
 16 21  1  0  0  0  0
 16 22  2  0  0  0  0
 18 23  1  0  0  0  0
 18 24  1  0  0  0  0
 19 25  2  0  0  0  0
 20 26  2  0  0  0  0
 21 27  2  0  0  0  0
 22 28  1  0  0  0  0
 27 29  1  0  0  0  0
 10 11  1  0  0  0  0
 17 21  1  0  0  0  0
 25 26  1  0  0  0  0
 28 29  2  0  0  0  0
M  END
>  <MolRegNo>
2300402

>  <m>
=

>  <Value>
14600

>  <Unit>
nM

>  <Type>
IC50

>  <pValue>
4.84

>  <Ligand Efficiency>
0

>  <Binding Efficiency>
0

>  <Surface Efficiency>
0

>  <Assay Index>
1189543

>  <Assay Category>


>  <Assay Organism>
Homo sapiens

>  <Target ID>
17045

>  <Target Name>
Cytochrome P450 3A4

>  <Target Organism>
Homo sapiens

>  <Target Description>
Target is a single protein chain

>  <Sequence Accession>
P08684

>  <Reference>
Bioorg Med Chem 26 (12), 3242-3253 (2018)

>  <Pubmed ID>
29748145

>  <DOI>
10.1016/j.bmc.2018.04.054

$$$$
2297349
Actelion Java MolfileCreator 1.0

 27 29  0  0  0  0  0  0  0  0999 V2000
    0.0000   -0.0000   -0.0000 Cl  0  0  0  0  0  0  0  0  0  0  0  0
   -0.0119   -1.4928   -0.0000 C   0  0  0  0  0  0  0  0  0  0  0  0
    1.2778   -2.2332   -0.0000 C   0  0  0  0  0  0  0  0  0  0  0  0
   -1.3256   -2.2332   -0.0000 C   0  0  0  0  0  0  0  0  0  0  0  0
    2.5675   -1.4689   -0.0000 O   0  0  0  0  0  0  0  0  0  0  0  0
    1.2659   -3.7379   -0.0000 C   0  0  0  0  0  0  0  0  0  0  0  0
   -1.3375   -3.7379   -0.0000 C   0  0  0  0  0  0  0  0  0  0  0  0
    3.8573   -2.2093   -0.0000 C   0  0  0  0  0  0  0  0  0  0  0  0
   -0.0597   -4.4783   -0.0000 C   0  0  0  0  0  0  0  0  0  0  0  0
   -2.6511   -4.4783   -0.0000 O   0  0  0  0  0  0  0  0  0  0  0  0
    3.8453   -3.7020   -0.0000 N   0  0  0  0  0  0  0  0  0  0  0  0
    5.1351   -1.4330   -0.0000 C   0  0  0  0  0  0  0  0  0  0  0  0
   -3.9648   -3.7140   -0.0000 C   0  0  0  0  0  0  0  0  0  0  0  0
    5.1351   -4.4424   -0.0000 C   0  0  0  0  0  0  0  0  0  0  0  0
    6.4248   -2.1615   -0.0000 C   0  0  0  0  0  0  0  0  0  0  0  0
   -5.2784   -4.4544   -0.0000 C   0  0  0  0  0  0  0  0  0  0  0  0
    6.4248   -3.6782   -0.0000 C   0  0  0  0  0  0  0  0  0  0  0  0
   -6.7950   -4.4424   -0.0000 C   0  0  0  0  0  0  0  0  0  0  0  0
   -6.0427   -5.7441   -0.0000 C   0  0  0  0  0  0  0  0  0  0  0  0
    7.7265   -4.4186   -0.0000 C   0  0  0  0  0  0  0  0  0  0  0  0
    9.0162   -3.6423   -0.0000 C   0  0  0  0  0  0  0  0  0  0  0  0
   10.3179   -4.3827   -0.0000 C   0  0  0  0  0  0  0  0  0  0  0  0
   11.6077   -3.6065   -0.0000 N   0  0  0  0  0  0  0  0  0  0  0  0
   10.3179   -5.8755   -0.0000 C   0  0  0  0  0  0  0  0  0  0  0  0
   12.9094   -4.3469   -0.0000 C   0  0  0  0  0  0  0  0  0  0  0  0
   12.9094   -5.8397   -0.0000 O   0  0  0  0  0  0  0  0  0  0  0  0
   14.1991   -3.5707   -0.0000 C   0  0  0  0  0  0  0  0  0  0  0  0
  1  2  1  0  0  0  0
  2  3  2  0  0  0  0
  2  4  1  0  0  0  0
  3  5  1  0  0  0  0
  3  6  1  0  0  0  0
  4  7  2  0  0  0  0
  5  8  1  0  0  0  0
  6  9  2  0  0  0  0
  7 10  1  0  0  0  0
  8 11  2  0  0  0  0
  8 12  1  0  0  0  0
 10 13  1  0  0  0  0
 11 14  1  0  0  0  0
 12 15  2  0  0  0  0
 13 16  1  0  0  0  0
 14 17  2  0  0  0  0
 16 18  1  0  0  0  0
 16 19  1  0  0  0  0
 17 20  1  0  0  0  0
 20 21  2  0  0  0  0
 21 22  1  0  0  0  0
 22 23  1  1  0  0  0
 22 24  1  0  0  0  0
 23 25  1  0  0  0  0
 25 26  2  0  0  0  0
 25 27  1  0  0  0  0
  7  9  1  0  0  0  0
 15 17  1  0  0  0  0
 18 19  1  0  0  0  0
M  END
>  <MolRegNo>
2297349

>  <m>
=

>  <Value>
16000

>  <Unit>
nM

>  <Type>
IC50

>  <pValue>
4.8

>  <Ligand Efficiency>
0

>  <Binding Efficiency>
0

>  <Surface Efficiency>
0

>  <Assay Index>
1189790

>  <Assay Category>


>  <Assay Organism>
Homo sapiens

>  <Target ID>
17045

>  <Target Name>
Cytochrome P450 3A4

>  <Target Organism>
Homo sapiens

>  <Target Description>
Target is a single protein chain

>  <Sequence Accession>
P08684

>  <Reference>
Bioorg Med Chem Lett 28 (14), 2498-2503 (2018)

>  <Pubmed ID>
29903660

>  <DOI>
10.1016/j.bmcl.2018.05.055

$$$$
2299779
Actelion Java MolfileCreator 1.0

 27 29  0  0  0  0  0  0  0  0999 V2000
    0.0000   -0.0000   -0.0000 Cl  0  0  0  0  0  0  0  0  0  0  0  0
   -0.0119   -1.4928   -0.0000 C   0  0  0  0  0  0  0  0  0  0  0  0
    1.2778   -2.2332   -0.0000 C   0  0  0  0  0  0  0  0  0  0  0  0
   -1.3256   -2.2332   -0.0000 C   0  0  0  0  0  0  0  0  0  0  0  0
    2.5675   -1.4689   -0.0000 O   0  0  0  0  0  0  0  0  0  0  0  0
    1.2659   -3.7379   -0.0000 C   0  0  0  0  0  0  0  0  0  0  0  0
   -1.3375   -3.7379   -0.0000 C   0  0  0  0  0  0  0  0  0  0  0  0
    3.8573   -2.2093   -0.0000 C   0  0  0  0  0  0  0  0  0  0  0  0
   -0.0597   -4.4783   -0.0000 C   0  0  0  0  0  0  0  0  0  0  0  0
   -2.6511   -4.4783   -0.0000 O   0  0  0  0  0  0  0  0  0  0  0  0
    3.8453   -3.7020   -0.0000 N   0  0  0  0  0  0  0  0  0  0  0  0
    5.1351   -1.4330   -0.0000 C   0  0  0  0  0  0  0  0  0  0  0  0
   -3.9648   -3.7140   -0.0000 C   0  0  0  0  0  0  0  0  0  0  0  0
    5.1351   -4.4424   -0.0000 N   0  0  0  0  0  0  0  0  0  0  0  0
    6.4248   -2.1615   -0.0000 C   0  0  0  0  0  0  0  0  0  0  0  0
   -5.2784   -4.4544   -0.0000 C   0  0  0  0  0  0  0  0  0  0  0  0
    6.4248   -3.6782   -0.0000 C   0  0  0  0  0  0  0  0  0  0  0  0
   -6.7950   -4.4424   -0.0000 C   0  0  0  0  0  0  0  0  0  0  0  0
   -6.0427   -5.7441   -0.0000 C   0  0  0  0  0  0  0  0  0  0  0  0
    7.7265   -4.4186   -0.0000 C   0  0  0  0  0  0  0  0  0  0  0  0
    9.0162   -3.6423   -0.0000 C   0  0  0  0  0  0  0  0  0  0  0  0
   10.3179   -4.3827   -0.0000 C   0  0  0  0  0  0  0  0  0  0  0  0
   11.6077   -3.6065   -0.0000 N   0  0  0  0  0  0  0  0  0  0  0  0
   10.3179   -5.8755   -0.0000 C   0  0  0  0  0  0  0  0  0  0  0  0
   12.9094   -4.3469   -0.0000 C   0  0  0  0  0  0  0  0  0  0  0  0
   12.9094   -5.8397   -0.0000 O   0  0  0  0  0  0  0  0  0  0  0  0
   14.1991   -3.5707   -0.0000 C   0  0  0  0  0  0  0  0  0  0  0  0
  1  2  1  0  0  0  0
  2  3  2  0  0  0  0
  2  4  1  0  0  0  0
  3  5  1  0  0  0  0
  3  6  1  0  0  0  0
  4  7  2  0  0  0  0
  5  8  1  0  0  0  0
  6  9  2  0  0  0  0
  7 10  1  0  0  0  0
  8 11  2  0  0  0  0
  8 12  1  0  0  0  0
 10 13  1  0  0  0  0
 11 14  1  0  0  0  0
 12 15  2  0  0  0  0
 13 16  1  0  0  0  0
 14 17  2  0  0  0  0
 16 18  1  0  0  0  0
 16 19  1  0  0  0  0
 17 20  1  0  0  0  0
 20 21  2  0  0  0  0
 21 22  1  0  0  0  0
 22 23  1  1  0  0  0
 22 24  1  0  0  0  0
 23 25  1  0  0  0  0
 25 26  2  0  0  0  0
 25 27  1  0  0  0  0
  7  9  1  0  0  0  0
 15 17  1  0  0  0  0
 18 19  1  0  0  0  0
M  END
>  <MolRegNo>
2299779

>  <m>
=

>  <Value>
18000

>  <Unit>
nM

>  <Type>
IC50

>  <pValue>
4.75

>  <Ligand Efficiency>
0

>  <Binding Efficiency>
0

>  <Surface Efficiency>
0

>  <Assay Index>
1189790

>  <Assay Category>


>  <Assay Organism>
Homo sapiens

>  <Target ID>
17045

>  <Target Name>
Cytochrome P450 3A4

>  <Target Organism>
Homo sapiens

>  <Target Description>
Target is a single protein chain

>  <Sequence Accession>
P08684

>  <Reference>
Bioorg Med Chem Lett 28 (14), 2498-2503 (2018)

>  <Pubmed ID>
29903660

>  <DOI>
10.1016/j.bmcl.2018.05.055

$$$$
2298150
Actelion Java MolfileCreator 1.0

 28 30  0  0  0  0  0  0  0  0999 V2000
    0.0000   -0.0000   -0.0000 Cl  0  0  0  0  0  0  0  0  0  0  0  0
   -0.0119   -1.4923   -0.0000 C   0  0  0  0  0  0  0  0  0  0  0  0
    1.2774   -2.2325   -0.0000 C   0  0  0  0  0  0  0  0  0  0  0  0
   -1.3252   -2.2445   -0.0000 C   0  0  0  0  0  0  0  0  0  0  0  0
    2.5668   -1.4685   -0.0000 O   0  0  0  0  0  0  0  0  0  0  0  0
    1.2655   -3.7368   -0.0000 C   0  0  0  0  0  0  0  0  0  0  0  0
   -2.7698   -1.7669   -0.0000 S   0  0  0  0  0  0  0  0  0  0  0  0
   -1.3371   -3.7368   -0.0000 C   0  0  0  0  0  0  0  0  0  0  0  0
    3.8562   -2.2087   -0.0000 C   0  0  0  0  0  0  0  0  0  0  0  0
   -0.0597   -4.4770   -0.0000 C   0  0  0  0  0  0  0  0  0  0  0  0
   -3.6652   -2.9727   -0.0000 C   0  0  0  0  0  0  0  0  0  0  0  0
   -2.7817   -4.1905   -0.0000 N   0  0  0  0  0  0  0  0  0  0  0  0
    3.8443   -3.7010   -0.0000 N   0  0  0  0  0  0  0  0  0  0  0  0
    5.1337   -1.4326   -0.0000 C   0  0  0  0  0  0  0  0  0  0  0  0
   -5.1814   -2.9608   -0.0000 C   0  0  0  0  0  0  0  0  0  0  0  0
    5.1337   -4.4412   -0.0000 C   0  0  0  0  0  0  0  0  0  0  0  0
    6.4230   -2.1609   -0.0000 C   0  0  0  0  0  0  0  0  0  0  0  0
   -5.9455   -1.6475   -0.0000 C   0  0  0  0  0  0  0  0  0  0  0  0
   -5.9455   -4.2502   -0.0000 C   0  0  0  0  0  0  0  0  0  0  0  0
    6.4230   -3.6652   -0.0000 C   0  0  0  0  0  0  0  0  0  0  0  0
    7.7244   -4.4054   -0.0000 C   0  0  0  0  0  0  0  0  0  0  0  0
    9.0137   -3.6294   -0.0000 C   0  0  0  0  0  0  0  0  0  0  0  0
   10.3151   -4.3696   -0.0000 C   0  0  0  0  0  0  0  0  0  0  0  0
   11.6044   -3.5936   -0.0000 N   0  0  0  0  0  0  0  0  0  0  0  0
   10.3151   -5.8619   -0.0000 C   0  0  0  0  0  0  0  0  0  0  0  0
   12.9058   -4.3338   -0.0000 C   0  0  0  0  0  0  0  0  0  0  0  0
   12.9058   -5.8261   -0.0000 O   0  0  0  0  0  0  0  0  0  0  0  0
   14.1951   -3.5577   -0.0000 C   0  0  0  0  0  0  0  0  0  0  0  0
  1  2  1  0  0  0  0
  2  3  2  0  0  0  0
  2  4  1  0  0  0  0
  3  5  1  0  0  0  0
  3  6  1  0  0  0  0
  4  7  1  0  0  0  0
  4  8  2  0  0  0  0
  5  9  1  0  0  0  0
  6 10  2  0  0  0  0
  7 11  1  0  0  0  0
  8 12  1  0  0  0  0
  9 13  2  0  0  0  0
  9 14  1  0  0  0  0
 11 15  1  0  0  0  0
 13 16  1  0  0  0  0
 14 17  2  0  0  0  0
 15 18  1  0  0  0  0
 15 19  1  0  0  0  0
 16 20  2  0  0  0  0
 20 21  1  0  0  0  0
 21 22  2  0  0  0  0
 22 23  1  0  0  0  0
 23 24  1  1  0  0  0
 23 25  1  0  0  0  0
 24 26  1  0  0  0  0
 26 27  2  0  0  0  0
 26 28  1  0  0  0  0
  8 10  1  0  0  0  0
 11 12  2  0  0  0  0
 17 20  1  0  0  0  0
M  END
>  <MolRegNo>
2298150

>  <m>
=

>  <Value>
19000

>  <Unit>
nM

>  <Type>
IC50

>  <pValue>
4.72

>  <Ligand Efficiency>
0

>  <Binding Efficiency>
0

>  <Surface Efficiency>
0

>  <Assay Index>
1189790

>  <Assay Category>


>  <Assay Organism>
Homo sapiens

>  <Target ID>
17045

>  <Target Name>
Cytochrome P450 3A4

>  <Target Organism>
Homo sapiens

>  <Target Description>
Target is a single protein chain

>  <Sequence Accession>
P08684

>  <Reference>
Bioorg Med Chem Lett 28 (14), 2498-2503 (2018)

>  <Pubmed ID>
29903660

>  <DOI>
10.1016/j.bmcl.2018.05.055

$$$$
2299316
Actelion Java MolfileCreator 1.0

 31 33  0  0  0  0  0  0  0  0999 V2000
    0.0000   -0.0000   -0.0000 S   0  0  0  0  0  0  0  0  0  0  0  0
    1.4207   -0.4537   -0.0000 C   0  0  0  0  0  0  0  0  0  0  0  0
   -0.8954   -1.2058   -0.0000 C   0  0  0  0  0  0  0  0  0  0  0  0
    2.7101    0.3223   -0.0000 C   0  0  0  0  0  0  0  0  0  0  0  0
    1.4088   -1.9460   -0.0000 C   0  0  0  0  0  0  0  0  0  0  0  0
   -0.0239   -2.4116   -0.0000 N   0  0  0  0  0  0  0  0  0  0  0  0
   -2.4116   -1.1939   -0.0000 C   0  0  0  0  0  0  0  0  0  0  0  0
    3.9995   -0.4179   -0.0000 C   0  0  0  0  0  0  0  0  0  0  0  0
    2.6981    1.8386   -0.0000 C   0  0  0  0  0  0  0  0  0  0  0  0
    2.6981   -2.6862   -0.0000 C   0  0  0  0  0  0  0  0  0  0  0  0
   -3.1757    0.1194   -0.0000 C   0  0  0  0  0  0  0  0  0  0  0  0
   -3.1757   -2.4833   -0.0000 C   0  0  0  0  0  0  0  0  0  0  0  0
    5.2888    0.3462   -0.0000 O   0  0  0  0  0  0  0  0  0  0  0  0
    3.9875   -1.9221   -0.0000 C   0  0  0  0  0  0  0  0  0  0  0  0
    2.6743    3.2234   -0.0000 F   0  0  0  0  0  0  0  0  0  0  0  0
    3.8920    2.8533   -0.0000 F   0  0  0  0  0  0  0  0  0  0  0  0
    1.4565    2.8414   -0.0000 F   0  0  0  0  0  0  0  0  0  0  0  0
    6.5782   -0.3940   -0.0000 C   0  0  0  0  0  0  0  0  0  0  0  0
    6.5663   -1.8863   -0.0000 N   0  0  0  0  0  0  0  0  0  0  0  0
    7.8557    0.3820   -0.0000 C   0  0  0  0  0  0  0  0  0  0  0  0
    7.8557   -2.6265   -0.0000 C   0  0  0  0  0  0  0  0  0  0  0  0
    9.1450   -0.3462   -0.0000 C   0  0  0  0  0  0  0  0  0  0  0  0
    9.1450   -1.8505   -0.0000 C   0  0  0  0  0  0  0  0  0  0  0  0
   10.4464   -2.5907   -0.0000 C   0  0  0  0  0  0  0  0  0  0  0  0
   11.7357   -1.8147   -0.0000 C   0  0  0  0  0  0  0  0  0  0  0  0
   13.0371   -2.5549   -0.0000 C   0  0  0  0  0  0  0  0  0  0  0  0
   14.3264   -1.7789   -0.0000 N   0  0  0  0  0  0  0  0  0  0  0  0
   13.0371   -4.0472   -0.0000 C   0  0  0  0  0  0  0  0  0  0  0  0
   15.6278   -2.5191   -0.0000 C   0  0  0  0  0  0  0  0  0  0  0  0
   15.6278   -4.0114   -0.0000 O   0  0  0  0  0  0  0  0  0  0  0  0
   16.9171   -1.7431   -0.0000 C   0  0  0  0  0  0  0  0  0  0  0  0
  1  2  1  0  0  0  0
  1  3  1  0  0  0  0
  2  4  2  0  0  0  0
  2  5  1  0  0  0  0
  3  6  2  0  0  0  0
  3  7  1  0  0  0  0
  4  8  1  0  0  0  0
  4  9  1  0  0  0  0
  5 10  2  0  0  0  0
  7 11  1  0  0  0  0
  7 12  1  0  0  0  0
  8 13  1  0  0  0  0
  8 14  2  0  0  0  0
  9 15  1  0  0  0  0
  9 16  1  0  0  0  0
  9 17  1  0  0  0  0
 13 18  1  0  0  0  0
 18 19  2  0  0  0  0
 18 20  1  0  0  0  0
 19 21  1  0  0  0  0
 20 22  2  0  0  0  0
 21 23  2  0  0  0  0
 23 24  1  0  0  0  0
 24 25  2  0  0  0  0
 25 26  1  0  0  0  0
 26 27  1  1  0  0  0
 26 28  1  0  0  0  0
 27 29  1  0  0  0  0
 29 30  2  0  0  0  0
 29 31  1  0  0  0  0
  5  6  1  0  0  0  0
 10 14  1  0  0  0  0
 22 23  1  0  0  0  0
M  END
>  <MolRegNo>
2299316

>  <m>
=

>  <Value>
17000

>  <Unit>
nM

>  <Type>
IC50

>  <pValue>
4.77

>  <Ligand Efficiency>
0

>  <Binding Efficiency>
0

>  <Surface Efficiency>
0

>  <Assay Index>
1189790

>  <Assay Category>


>  <Assay Organism>
Homo sapiens

>  <Target ID>
17045

>  <Target Name>
Cytochrome P450 3A4

>  <Target Organism>
Homo sapiens

>  <Target Description>
Target is a single protein chain

>  <Sequence Accession>
P08684

>  <Reference>
Bioorg Med Chem Lett 28 (14), 2498-2503 (2018)

>  <Pubmed ID>
29903660

>  <DOI>
10.1016/j.bmcl.2018.05.055

$$$$
2304394
Actelion Java MolfileCreator 1.0

 35 40  0  0  0  0  0  0  0  0999 V2000
    0.0000   -0.0000   -0.0000 S   0  0  0  0  0  0  0  0  0  0  0  0
    1.2927    0.7661   -0.0000 O   0  0  0  0  0  0  0  0  0  0  0  0
    1.2927   -0.7301   -0.0000 O   0  0  0  0  0  0  0  0  0  0  0  0
   -0.7541   -1.2927   -0.0000 N   0  0  0  0  0  0  0  0  0  0  0  0
   -0.7780    1.3167   -0.0000 C   0  0  0  0  0  0  0  0  0  0  0  0
   -0.2992   -2.7051   -0.0000 C   0  0  0  0  0  0  0  0  0  0  0  0
   -2.2742   -1.2807   -0.0000 C   0  0  0  0  0  0  0  0  0  0  0  0
    0.0000    2.6094   -0.0000 C   0  0  0  0  0  0  0  0  0  0  0  0
   -2.2862    1.3645   -0.0000 C   0  0  0  0  0  0  0  0  0  0  0  0
   -1.5321   -3.5789   -0.0000 C   0  0  0  0  0  0  0  0  0  0  0  0
    0.9935   -3.4472   -0.0000 C   0  0  0  0  0  0  0  0  0  0  0  0
   -2.7410   -2.6932   -0.0000 C   0  0  0  0  0  0  0  0  0  0  0  0
   -0.7182    3.9500   -0.0000 C   0  0  0  0  0  0  0  0  0  0  0  0
    1.4962    2.5735   -0.0000 C   0  0  0  0  0  0  0  0  0  0  0  0
   -3.0163    2.7051   -0.0000 N   0  0  0  0  0  0  0  0  0  0  0  0
    2.2862   -2.6812   -0.0000 C   0  0  0  0  0  0  0  0  0  0  0  0
   -2.2383    4.0098   -0.0000 C   0  0  0  0  0  0  0  0  0  0  0  0
    0.0598    5.2427   -0.0000 C   0  0  0  0  0  0  0  0  0  0  0  0
    2.2742    3.8662   -0.0000 C   0  0  0  0  0  0  0  0  0  0  0  0
    3.5789   -3.4233   -0.0000 N   0  0  0  0  0  0  0  0  0  0  0  0
    1.5560    5.2068   -0.0000 C   0  0  0  0  0  0  0  0  0  0  0  0
    3.5669   -4.9195   -0.0000 C   0  0  0  0  0  0  0  0  0  0  0  0
    4.8596   -2.6572   -0.0000 C   0  0  0  0  0  0  0  0  0  0  0  0
    4.8477   -5.6496   -0.0000 C   0  0  0  0  0  0  0  0  0  0  0  0
    6.1404   -3.3994   -0.0000 C   0  0  0  0  0  0  0  0  0  0  0  0
    6.1284   -4.8956   -0.0000 N   0  0  0  0  0  0  0  0  0  0  0  0
    7.4211   -5.6377   -0.0000 C   0  0  0  0  0  0  0  0  0  0  0  0
    8.7019   -4.8716   -0.0000 C   0  0  0  0  0  0  0  0  0  0  0  0
    7.3972   -7.1339   -0.0000 C   0  0  0  0  0  0  0  0  0  0  0  0
    9.9946   -5.6018   -0.0000 C   0  0  0  0  0  0  0  0  0  0  0  0
    8.9891   -3.3994   -0.0000 C   0  0  0  0  0  0  0  0  0  0  0  0
    8.6899   -7.8760   -0.0000 C   0  0  0  0  0  0  0  0  0  0  0  0
   11.0838   -4.5843   -0.0000 S   0  0  0  0  0  0  0  0  0  0  0  0
    9.9826   -7.1099   -0.0000 C   0  0  0  0  0  0  0  0  0  0  0  0
   10.4614   -3.2198   -0.0000 C   0  0  0  0  0  0  0  0  0  0  0  0
  1  2  2  0  0  0  0
  1  3  2  0  0  0  0
  1  4  1  0  0  0  0
  1  5  1  0  0  0  0
  4  6  1  0  0  0  0
  4  7  1  0  0  0  0
  5  8  1  0  0  0  0
  5  9  2  0  0  0  0
  6 10  1  0  0  0  0
  6 11  1  1  0  0  0
  7 12  1  0  0  0  0
  8 13  1  0  0  0  0
  8 14  2  0  0  0  0
  9 15  1  0  0  0  0
 11 16  1  0  0  0  0
 13 17  1  0  0  0  0
 13 18  2  0  0  0  0
 14 19  1  0  0  0  0
 16 20  1  0  0  0  0
 18 21  1  0  0  0  0
 20 22  1  0  0  0  0
 20 23  1  0  0  0  0
 22 24  1  0  0  0  0
 23 25  1  0  0  0  0
 24 26  1  0  0  0  0
 26 27  1  0  0  0  0
 27 28  2  0  0  0  0
 27 29  1  0  0  0  0
 28 30  1  0  0  0  0
 28 31  1  0  0  0  0
 29 32  2  0  0  0  0
 30 33  1  0  0  0  0
 30 34  2  0  0  0  0
 31 35  2  0  0  0  0
 10 12  1  0  0  0  0
 15 17  2  0  0  0  0
 19 21  2  0  0  0  0
 25 26  1  0  0  0  0
 32 34  1  0  0  0  0
 33 35  1  0  0  0  0
M  END
>  <MolRegNo>
2304394

>  <m>
=

>  <Value>
10000

>  <Unit>
nM

>  <Type>
IC50

>  <pValue>
5

>  <Ligand Efficiency>
0

>  <Binding Efficiency>
0

>  <Surface Efficiency>
0

>  <Assay Index>
1190166

>  <Assay Category>


>  <Assay Organism>
Homo sapiens

>  <Target ID>
17045

>  <Target Name>
Cytochrome P450 3A4

>  <Target Organism>
Homo sapiens

>  <Target Description>
Target is a single protein chain

>  <Sequence Accession>
P08684

>  <Reference>


>  <Pubmed ID>
29407591

>  <DOI>
10.1016/j.ejmech.2018.01.002

$$$$
2311226
Actelion Java MolfileCreator 1.0

 35 40  0  0  0  0  0  0  0  0999 V2000
    0.0000   -0.0000   -0.0000 S   0  0  0  0  0  0  0  0  0  0  0  0
    1.2887    0.7685   -0.0000 O   0  0  0  0  0  0  0  0  0  0  0  0
    1.2887   -0.7330   -0.0000 O   0  0  0  0  0  0  0  0  0  0  0  0
   -0.7449   -1.3006   -0.0000 N   0  0  0  0  0  0  0  0  0  0  0  0
   -0.7803    1.3242   -0.0000 C   0  0  0  0  0  0  0  0  0  0  0  0
   -0.2838   -2.7194   -0.0000 C   0  0  0  0  0  0  0  0  0  0  0  0
   -2.2582   -1.2887   -0.0000 C   0  0  0  0  0  0  0  0  0  0  0  0
   -0.0118    2.6129   -0.0000 C   0  0  0  0  0  0  0  0  0  0  0  0
   -2.2937    1.3715   -0.0000 C   0  0  0  0  0  0  0  0  0  0  0  0
   -1.5134   -3.5943   -0.0000 C   0  0  0  0  0  0  0  0  0  0  0  0
    1.0050   -3.4524   -0.0000 C   0  0  0  0  0  0  0  0  0  0  0  0
   -2.7312   -2.7075   -0.0000 C   0  0  0  0  0  0  0  0  0  0  0  0
   -0.7330    3.9490   -0.0000 C   0  0  0  0  0  0  0  0  0  0  0  0
    1.4779    2.5775   -0.0000 C   0  0  0  0  0  0  0  0  0  0  0  0
   -3.0268    2.7075   -0.0000 N   0  0  0  0  0  0  0  0  0  0  0  0
    2.2937   -2.6839   -0.0000 C   0  0  0  0  0  0  0  0  0  0  0  0
   -2.2464    4.0081   -0.0000 C   0  0  0  0  0  0  0  0  0  0  0  0
    0.0473    5.2377   -0.0000 C   0  0  0  0  0  0  0  0  0  0  0  0
    2.2582    3.8662   -0.0000 C   0  0  0  0  0  0  0  0  0  0  0  0
    3.5825   -3.4169   -0.0000 N   0  0  0  0  0  0  0  0  0  0  0  0
    1.5370    5.2022   -0.0000 C   0  0  0  0  0  0  0  0  0  0  0  0
    3.5706   -4.9067   -0.0000 C   0  0  0  0  0  0  0  0  0  0  0  0
    4.8712   -2.6484   -0.0000 C   0  0  0  0  0  0  0  0  0  0  0  0
    4.8594   -5.6397   -0.0000 C   0  0  0  0  0  0  0  0  0  0  0  0
    6.1599   -3.3933   -0.0000 C   0  0  0  0  0  0  0  0  0  0  0  0
    6.1481   -4.8830   -0.0000 N   0  0  0  0  0  0  0  0  0  0  0  0
    7.4368   -5.6279   -0.0000 C   0  0  0  0  0  0  0  0  0  0  0  0
    7.8861   -7.0467   -0.0000 N   0  0  0  0  0  0  0  0  0  0  0  0
    8.6310   -4.7293   -0.0000 C   0  0  0  0  0  0  0  0  0  0  0  0
    9.3759   -7.0349   -0.0000 S   0  0  0  0  0  0  0  0  0  0  0  0
    9.8370   -5.6042   -0.0000 C   0  0  0  0  0  0  0  0  0  0  0  0
    8.7729   -3.2278   -0.0000 C   0  0  0  0  0  0  0  0  0  0  0  0
   11.1967   -4.9776   -0.0000 C   0  0  0  0  0  0  0  0  0  0  0  0
   10.1207   -2.6011   -0.0000 C   0  0  0  0  0  0  0  0  0  0  0  0
   11.3385   -3.4760   -0.0000 C   0  0  0  0  0  0  0  0  0  0  0  0
  1  2  2  0  0  0  0
  1  3  2  0  0  0  0
  1  4  1  0  0  0  0
  1  5  1  0  0  0  0
  4  6  1  0  0  0  0
  4  7  1  0  0  0  0
  5  8  1  0  0  0  0
  5  9  2  0  0  0  0
  6 10  1  0  0  0  0
  6 11  1  1  0  0  0
  7 12  1  0  0  0  0
  8 13  1  0  0  0  0
  8 14  2  0  0  0  0
  9 15  1  0  0  0  0
 11 16  1  0  0  0  0
 13 17  1  0  0  0  0
 13 18  2  0  0  0  0
 14 19  1  0  0  0  0
 16 20  1  0  0  0  0
 18 21  1  0  0  0  0
 20 22  1  0  0  0  0
 20 23  1  0  0  0  0
 22 24  1  0  0  0  0
 23 25  1  0  0  0  0
 24 26  1  0  0  0  0
 26 27  1  0  0  0  0
 27 28  2  0  0  0  0
 27 29  1  0  0  0  0
 28 30  1  0  0  0  0
 29 31  2  0  0  0  0
 29 32  1  0  0  0  0
 31 33  1  0  0  0  0
 32 34  2  0  0  0  0
 33 35  2  0  0  0  0
 10 12  1  0  0  0  0
 15 17  2  0  0  0  0
 19 21  2  0  0  0  0
 25 26  1  0  0  0  0
 30 31  1  0  0  0  0
 34 35  1  0  0  0  0
M  END
>  <MolRegNo>
2311226

>  <m>
=

>  <Value>
23000

>  <Unit>
nM

>  <Type>
IC50

>  <pValue>
4.64

>  <Ligand Efficiency>
0

>  <Binding Efficiency>
0

>  <Surface Efficiency>
0

>  <Assay Index>
1190166

>  <Assay Category>


>  <Assay Organism>
Homo sapiens

>  <Target ID>
17045

>  <Target Name>
Cytochrome P450 3A4

>  <Target Organism>
Homo sapiens

>  <Target Description>
Target is a single protein chain

>  <Sequence Accession>
P08684

>  <Reference>


>  <Pubmed ID>
29407591

>  <DOI>
10.1016/j.ejmech.2018.01.002

$$$$
2313454
Actelion Java MolfileCreator 1.0

 27 31  0  0  0  0  0  0  0  0999 V2000
    0.0000   -0.0000   -0.0000 S   0  0  0  0  0  0  0  0  0  0  0  0
    1.4246   -0.4392   -0.0000 C   0  0  0  0  0  0  0  0  0  0  0  0
   -0.8904   -1.2109   -0.0000 C   0  0  0  0  0  0  0  0  0  0  0  0
    1.4246   -1.9351   -0.0000 N   0  0  0  0  0  0  0  0  0  0  0  0
    2.7067    0.3443   -0.0000 N   0  0  0  0  0  0  0  0  0  0  0  0
    0.0000   -2.4099   -0.0000 C   0  0  0  0  0  0  0  0  0  0  0  0
    4.0126   -0.3799   -0.0000 C   0  0  0  0  0  0  0  0  0  0  0  0
   -0.4630   -3.8345   -0.0000 C   0  0  0  0  0  0  0  0  0  0  0  0
    4.0245   -1.8757   -0.0000 O   0  0  0  0  0  0  0  0  0  0  0  0
    5.2947    0.4036   -0.0000 C   0  0  0  0  0  0  0  0  0  0  0  0
   -1.9113   -4.2975   -0.0000 C   0  0  0  0  0  0  0  0  0  0  0  0
    0.4155   -5.0335   -0.0000 C   0  0  0  0  0  0  0  0  0  0  0  0
    6.6006   -0.3205   -0.0000 C   0  0  0  0  0  0  0  0  0  0  0  0
   -1.9113   -5.7933   -0.0000 C   0  0  0  0  0  0  0  0  0  0  0  0
   -3.2291   -3.5377   -0.0000 C   0  0  0  0  0  0  0  0  0  0  0  0
   -0.4749   -6.2444   -0.0000 N   0  0  0  0  0  0  0  0  0  0  0  0
    6.6006   -1.8164   -0.0000 C   0  0  0  0  0  0  0  0  0  0  0  0
    7.8709    0.4630   -0.0000 C   0  0  0  0  0  0  0  0  0  0  0  0
   -3.2291   -6.5412   -0.0000 N   0  0  0  0  0  0  0  0  0  0  0  0
   -4.5349   -4.2738   -0.0000 C   0  0  0  0  0  0  0  0  0  0  0  0
    7.9065   -2.5405   -0.0000 C   0  0  0  0  0  0  0  0  0  0  0  0
    9.1767   -0.2493   -0.0000 C   0  0  0  0  0  0  0  0  0  0  0  0
   -4.5468   -5.7815   -0.0000 C   0  0  0  0  0  0  0  0  0  0  0  0
    8.2270   -4.0007   -0.0000 O   0  0  0  0  0  0  0  0  0  0  0  0
    9.1886   -1.7570   -0.0000 C   0  0  0  0  0  0  0  0  0  0  0  0
    9.7109   -4.1194   -0.0000 C   0  0  0  0  0  0  0  0  0  0  0  0
   10.3045   -2.7305   -0.0000 O   0  0  0  0  0  0  0  0  0  0  0  0
  1  2  1  0  0  0  0
  1  3  1  0  0  0  0
  2  4  2  0  0  0  0
  2  5  1  0  0  0  0
  3  6  2  0  0  0  0
  5  7  1  0  0  0  0
  6  8  1  0  0  0  0
  7  9  2  0  0  0  0
  7 10  1  0  0  0  0
  8 11  1  0  0  0  0
  8 12  2  0  0  0  0
 10 13  1  0  0  0  0
 11 14  2  0  0  0  0
 11 15  1  0  0  0  0
 12 16  1  0  0  0  0
 13 17  2  0  0  0  0
 13 18  1  0  0  0  0
 14 19  1  0  0  0  0
 15 20  2  0  0  0  0
 17 21  1  0  0  0  0
 18 22  2  0  0  0  0
 19 23  2  0  0  0  0
 21 24  1  0  0  0  0
 21 25  2  0  0  0  0
 24 26  1  0  0  0  0
 25 27  1  0  0  0  0
  4  6  1  0  0  0  0
 14 16  1  0  0  0  0
 20 23  1  0  0  0  0
 22 25  1  0  0  0  0
 26 27  1  0  0  0  0
M  END
>  <MolRegNo>
2313454

>  <m>
=

>  <Value>
2000

>  <Unit>
nM

>  <Type>
IC50

>  <pValue>
5.7

>  <Ligand Efficiency>
0

>  <Binding Efficiency>
0

>  <Surface Efficiency>
0

>  <Assay Index>
1195540

>  <Assay Category>


>  <Assay Organism>
Homo sapiens

>  <Target ID>
17045

>  <Target Name>
Cytochrome P450 3A4

>  <Target Organism>
Homo sapiens

>  <Target Description>
Target is a single protein chain

>  <Sequence Accession>
P08684

>  <Reference>
Bioorg Med Chem Lett 28 (15), 2622-2626 (2018)

>  <Pubmed ID>
30082069

>  <DOI>
10.1016/j.bmcl.2018.06.040

$$$$
2303603
Actelion Java MolfileCreator 1.0

 26 29  0  0  0  0  0  0  0  0999 V2000
    0.0000   -0.0000   -0.0000 S   0  0  0  0  0  0  0  0  0  0  0  0
    1.4244   -0.4392   -0.0000 C   0  0  0  0  0  0  0  0  0  0  0  0
   -0.8902   -1.2107   -0.0000 C   0  0  0  0  0  0  0  0  0  0  0  0
    1.4244   -1.9348   -0.0000 N   0  0  0  0  0  0  0  0  0  0  0  0
    2.7063    0.3442   -0.0000 N   0  0  0  0  0  0  0  0  0  0  0  0
    0.0000   -2.4096   -0.0000 C   0  0  0  0  0  0  0  0  0  0  0  0
    4.0120   -0.3798   -0.0000 C   0  0  0  0  0  0  0  0  0  0  0  0
   -0.4629   -3.8340   -0.0000 C   0  0  0  0  0  0  0  0  0  0  0  0
    4.0239   -1.8754   -0.0000 O   0  0  0  0  0  0  0  0  0  0  0  0
    5.2940    0.4036   -0.0000 C   0  0  0  0  0  0  0  0  0  0  0  0
   -1.9110   -4.2969   -0.0000 C   0  0  0  0  0  0  0  0  0  0  0  0
    0.4154   -5.0328   -0.0000 C   0  0  0  0  0  0  0  0  0  0  0  0
    6.5996   -0.3205   -0.0000 C   0  0  0  0  0  0  0  0  0  0  0  0
   -1.9110   -5.7925   -0.0000 C   0  0  0  0  0  0  0  0  0  0  0  0
   -3.2286   -3.5372   -0.0000 C   0  0  0  0  0  0  0  0  0  0  0  0
   -0.4748   -6.2436   -0.0000 N   0  0  0  0  0  0  0  0  0  0  0  0
    6.5996   -1.8161   -0.0000 C   0  0  0  0  0  0  0  0  0  0  0  0
    7.8697    0.4629   -0.0000 C   0  0  0  0  0  0  0  0  0  0  0  0
   -3.2286   -6.5403   -0.0000 N   0  0  0  0  0  0  0  0  0  0  0  0
   -4.5343   -4.2732   -0.0000 C   0  0  0  0  0  0  0  0  0  0  0  0
    7.8935   -2.5402   -0.0000 C   0  0  0  0  0  0  0  0  0  0  0  0
    9.1754   -0.2493   -0.0000 C   0  0  0  0  0  0  0  0  0  0  0  0
   -4.5462   -5.7806   -0.0000 C   0  0  0  0  0  0  0  0  0  0  0  0
    7.8935   -4.0358   -0.0000 C   0  0  0  0  0  0  0  0  0  0  0  0
    9.1754   -1.7567   -0.0000 C   0  0  0  0  0  0  0  0  0  0  0  0
    7.8935   -5.5314   -0.0000 N   0  0  0  0  0  0  0  0  0  0  0  0
  1  2  1  0  0  0  0
  1  3  1  0  0  0  0
  2  4  2  0  0  0  0
  2  5  1  0  0  0  0
  3  6  2  0  0  0  0
  5  7  1  0  0  0  0
  6  8  1  0  0  0  0
  7  9  2  0  0  0  0
  7 10  1  0  0  0  0
  8 11  1  0  0  0  0
  8 12  2  0  0  0  0
 10 13  1  0  0  0  0
 11 14  2  0  0  0  0
 11 15  1  0  0  0  0
 12 16  1  0  0  0  0
 13 17  2  0  0  0  0
 13 18  1  0  0  0  0
 14 19  1  0  0  0  0
 15 20  2  0  0  0  0
 17 21  1  0  0  0  0
 18 22  2  0  0  0  0
 19 23  2  0  0  0  0
 21 24  1  0  0  0  0
 21 25  2  0  0  0  0
 24 26  3  0  0  0  0
  4  6  1  0  0  0  0
 14 16  1  0  0  0  0
 20 23  1  0  0  0  0
 22 25  1  0  0  0  0
M  END
>  <MolRegNo>
2303603

>  <m>
=

>  <Value>
2500

>  <Unit>
nM

>  <Type>
IC50

>  <pValue>
5.6

>  <Ligand Efficiency>
0

>  <Binding Efficiency>
0

>  <Surface Efficiency>
0

>  <Assay Index>
1195540

>  <Assay Category>


>  <Assay Organism>
Homo sapiens

>  <Target ID>
17045

>  <Target Name>
Cytochrome P450 3A4

>  <Target Organism>
Homo sapiens

>  <Target Description>
Target is a single protein chain

>  <Sequence Accession>
P08684

>  <Reference>
Bioorg Med Chem Lett 28 (15), 2622-2626 (2018)

>  <Pubmed ID>
30082069

>  <DOI>
10.1016/j.bmcl.2018.06.040

$$$$
2301826
Actelion Java MolfileCreator 1.0

 28 31  0  0  0  0  0  0  0  0999 V2000
    0.0000   -0.0000   -0.0000 S   0  0  0  0  0  0  0  0  0  0  0  0
   -0.7699   -1.2792   -0.0000 O   0  0  0  0  0  0  0  0  0  0  0  0
   -1.5043    0.0237   -0.0000 O   0  0  0  0  0  0  0  0  0  0  0  0
   -0.0237    1.5043   -0.0000 C   0  0  0  0  0  0  0  0  0  0  0  0
    1.3029   -0.7225   -0.0000 C   0  0  0  0  0  0  0  0  0  0  0  0
   -1.3385    2.2505   -0.0000 C   0  0  0  0  0  0  0  0  0  0  0  0
    1.2555    2.2860   -0.0000 C   0  0  0  0  0  0  0  0  0  0  0  0
   -1.3622    3.7548   -0.0000 C   0  0  0  0  0  0  0  0  0  0  0  0
    1.2200    3.8022   -0.0000 C   0  0  0  0  0  0  0  0  0  0  0  0
   -0.0948    4.5366   -0.0000 C   0  0  0  0  0  0  0  0  0  0  0  0
   -2.6769    4.5010   -0.0000 C   0  0  0  0  0  0  0  0  0  0  0  0
   -3.9798    3.7548   -0.0000 C   0  0  0  0  0  0  0  0  0  0  0  0
   -3.9680    2.2742   -0.0000 O   0  0  0  0  0  0  0  0  0  0  0  0
   -5.2946    4.5010   -0.0000 N   0  0  0  0  0  0  0  0  0  0  0  0
   -6.5975    3.7548   -0.0000 C   0  0  0  0  0  0  0  0  0  0  0  0
   -8.0308    4.2167   -0.0000 S   0  0  0  0  0  0  0  0  0  0  0  0
   -6.5975    2.2742   -0.0000 N   0  0  0  0  0  0  0  0  0  0  0  0
   -8.9191    3.0086   -0.0000 C   0  0  0  0  0  0  0  0  0  0  0  0
   -8.0308    1.8123   -0.0000 C   0  0  0  0  0  0  0  0  0  0  0  0
   -8.4927    0.4027   -0.0000 C   0  0  0  0  0  0  0  0  0  0  0  0
   -9.9259   -0.0592   -0.0000 C   0  0  0  0  0  0  0  0  0  0  0  0
   -7.6162   -0.7936   -0.0000 C   0  0  0  0  0  0  0  0  0  0  0  0
   -9.9259   -1.5517   -0.0000 C   0  0  0  0  0  0  0  0  0  0  0  0
  -11.2407    0.6988   -0.0000 C   0  0  0  0  0  0  0  0  0  0  0  0
   -8.5046   -2.0018   -0.0000 N   0  0  0  0  0  0  0  0  0  0  0  0
  -11.2407   -2.2979   -0.0000 N   0  0  0  0  0  0  0  0  0  0  0  0
  -12.5436   -0.0355   -0.0000 C   0  0  0  0  0  0  0  0  0  0  0  0
  -12.5436   -1.5398   -0.0000 C   0  0  0  0  0  0  0  0  0  0  0  0
  1  2  2  0  0  0  0
  1  3  2  0  0  0  0
  1  4  1  0  0  0  0
  1  5  1  0  0  0  0
  4  6  2  0  0  0  0
  4  7  1  0  0  0  0
  6  8  1  0  0  0  0
  7  9  2  0  0  0  0
  8 10  2  0  0  0  0
  8 11  1  0  0  0  0
 11 12  1  0  0  0  0
 12 13  2  0  0  0  0
 12 14  1  0  0  0  0
 14 15  1  0  0  0  0
 15 16  1  0  0  0  0
 15 17  2  0  0  0  0
 16 18  1  0  0  0  0
 17 19  1  0  0  0  0
 19 20  1  0  0  0  0
 20 21  1  0  0  0  0
 20 22  2  0  0  0  0
 21 23  2  0  0  0  0
 21 24  1  0  0  0  0
 22 25  1  0  0  0  0
 23 26  1  0  0  0  0
 24 27  2  0  0  0  0
 26 28  2  0  0  0  0
  9 10  1  0  0  0  0
 18 19  2  0  0  0  0
 23 25  1  0  0  0  0
 27 28  1  0  0  0  0
M  END
>  <MolRegNo>
2301826

>  <m>
=

>  <Value>
6400

>  <Unit>
nM

>  <Type>
IC50

>  <pValue>
5.19

>  <Ligand Efficiency>
0

>  <Binding Efficiency>
0

>  <Surface Efficiency>
0

>  <Assay Index>
1195540

>  <Assay Category>


>  <Assay Organism>
Homo sapiens

>  <Target ID>
17045

>  <Target Name>
Cytochrome P450 3A4

>  <Target Organism>
Homo sapiens

>  <Target Description>
Target is a single protein chain

>  <Sequence Accession>
P08684

>  <Reference>
Bioorg Med Chem Lett 28 (15), 2622-2626 (2018)

>  <Pubmed ID>
30082069

>  <DOI>
10.1016/j.bmcl.2018.06.040

$$$$
2305029
Actelion Java MolfileCreator 1.0

 30 33  0  0  0  0  0  0  0  0999 V2000
    0.0000   -0.0000   -0.0000 S   0  0  0  0  0  0  0  0  0  0  0  0
   -0.7705   -1.2802   -0.0000 O   0  0  0  0  0  0  0  0  0  0  0  0
   -1.5054    0.0237   -0.0000 O   0  0  0  0  0  0  0  0  0  0  0  0
    1.2920   -0.7231   -0.0000 N   0  0  0  0  0  0  0  0  0  0  0  0
   -0.0237    1.5054   -0.0000 C   0  0  0  0  0  0  0  0  0  0  0  0
    1.2920   -2.2048   -0.0000 C   0  0  0  0  0  0  0  0  0  0  0  0
    2.5722    0.0474   -0.0000 C   0  0  0  0  0  0  0  0  0  0  0  0
   -1.3395    2.2522   -0.0000 C   0  0  0  0  0  0  0  0  0  0  0  0
    1.2565    2.2759   -0.0000 C   0  0  0  0  0  0  0  0  0  0  0  0
   -1.3632    3.7576   -0.0000 C   0  0  0  0  0  0  0  0  0  0  0  0
    1.2209    3.7932   -0.0000 C   0  0  0  0  0  0  0  0  0  0  0  0
   -0.0948    4.5399   -0.0000 C   0  0  0  0  0  0  0  0  0  0  0  0
   -2.6789    4.5044   -0.0000 C   0  0  0  0  0  0  0  0  0  0  0  0
   -3.9828    3.7576   -0.0000 C   0  0  0  0  0  0  0  0  0  0  0  0
   -3.9710    2.2759   -0.0000 O   0  0  0  0  0  0  0  0  0  0  0  0
   -5.2986    4.5044   -0.0000 N   0  0  0  0  0  0  0  0  0  0  0  0
   -6.6025    3.7576   -0.0000 C   0  0  0  0  0  0  0  0  0  0  0  0
   -8.0368    4.2199   -0.0000 S   0  0  0  0  0  0  0  0  0  0  0  0
   -6.6025    2.2759   -0.0000 N   0  0  0  0  0  0  0  0  0  0  0  0
   -8.9258    3.0108   -0.0000 C   0  0  0  0  0  0  0  0  0  0  0  0
   -8.0368    1.8136   -0.0000 C   0  0  0  0  0  0  0  0  0  0  0  0
   -8.4991    0.4030   -0.0000 C   0  0  0  0  0  0  0  0  0  0  0  0
   -9.9334   -0.0593   -0.0000 C   0  0  0  0  0  0  0  0  0  0  0  0
   -7.6219   -0.7942   -0.0000 C   0  0  0  0  0  0  0  0  0  0  0  0
   -9.9334   -1.5528   -0.0000 C   0  0  0  0  0  0  0  0  0  0  0  0
  -11.2491    0.6994   -0.0000 C   0  0  0  0  0  0  0  0  0  0  0  0
   -8.5109   -2.0033   -0.0000 N   0  0  0  0  0  0  0  0  0  0  0  0
  -11.2491   -2.2996   -0.0000 N   0  0  0  0  0  0  0  0  0  0  0  0
  -12.5530   -0.0356   -0.0000 C   0  0  0  0  0  0  0  0  0  0  0  0
  -12.5530   -1.5410   -0.0000 C   0  0  0  0  0  0  0  0  0  0  0  0
  1  2  2  0  0  0  0
  1  3  2  0  0  0  0
  1  4  1  0  0  0  0
  1  5  1  0  0  0  0
  4  6  1  0  0  0  0
  4  7  1  0  0  0  0
  5  8  2  0  0  0  0
  5  9  1  0  0  0  0
  8 10  1  0  0  0  0
  9 11  2  0  0  0  0
 10 12  2  0  0  0  0
 10 13  1  0  0  0  0
 13 14  1  0  0  0  0
 14 15  2  0  0  0  0
 14 16  1  0  0  0  0
 16 17  1  0  0  0  0
 17 18  1  0  0  0  0
 17 19  2  0  0  0  0
 18 20  1  0  0  0  0
 19 21  1  0  0  0  0
 21 22  1  0  0  0  0
 22 23  1  0  0  0  0
 22 24  2  0  0  0  0
 23 25  2  0  0  0  0
 23 26  1  0  0  0  0
 24 27  1  0  0  0  0
 25 28  1  0  0  0  0
 26 29  2  0  0  0  0
 28 30  2  0  0  0  0
 11 12  1  0  0  0  0
 20 21  2  0  0  0  0
 25 27  1  0  0  0  0
 29 30  1  0  0  0  0
M  END
>  <MolRegNo>
2305029

>  <m>
=

>  <Value>
2300

>  <Unit>
nM

>  <Type>
IC50

>  <pValue>
5.64

>  <Ligand Efficiency>
0

>  <Binding Efficiency>
0

>  <Surface Efficiency>
0

>  <Assay Index>
1195540

>  <Assay Category>


>  <Assay Organism>
Homo sapiens

>  <Target ID>
17045

>  <Target Name>
Cytochrome P450 3A4

>  <Target Organism>
Homo sapiens

>  <Target Description>
Target is a single protein chain

>  <Sequence Accession>
P08684

>  <Reference>
Bioorg Med Chem Lett 28 (15), 2622-2626 (2018)

>  <Pubmed ID>
30082069

>  <DOI>
10.1016/j.bmcl.2018.06.040

$$$$
2307694
Actelion Java MolfileCreator 1.0

 30 33  0  0  0  0  0  0  0  0999 V2000
    0.0000   -0.0000   -0.0000 S   0  0  0  0  0  0  0  0  0  0  0  0
   -0.7705   -1.2802   -0.0000 O   0  0  0  0  0  0  0  0  0  0  0  0
   -1.5054    0.0237   -0.0000 O   0  0  0  0  0  0  0  0  0  0  0  0
    1.2921   -0.7231   -0.0000 N   0  0  0  0  0  0  0  0  0  0  0  0
   -0.0237    1.5054   -0.0000 C   0  0  0  0  0  0  0  0  0  0  0  0
    2.5723    0.0474   -0.0000 C   0  0  0  0  0  0  0  0  0  0  0  0
   -1.3395    2.2522   -0.0000 C   0  0  0  0  0  0  0  0  0  0  0  0
    1.2565    2.2878   -0.0000 C   0  0  0  0  0  0  0  0  0  0  0  0
    3.8643   -0.6757   -0.0000 C   0  0  0  0  0  0  0  0  0  0  0  0
   -1.3632    3.7577   -0.0000 C   0  0  0  0  0  0  0  0  0  0  0  0
    1.2209    3.8051   -0.0000 C   0  0  0  0  0  0  0  0  0  0  0  0
   -0.0948    4.5400   -0.0000 C   0  0  0  0  0  0  0  0  0  0  0  0
   -2.6790    4.5045   -0.0000 C   0  0  0  0  0  0  0  0  0  0  0  0
   -3.9829    3.7577   -0.0000 C   0  0  0  0  0  0  0  0  0  0  0  0
   -3.9710    2.2759   -0.0000 O   0  0  0  0  0  0  0  0  0  0  0  0
   -5.2987    4.5045   -0.0000 N   0  0  0  0  0  0  0  0  0  0  0  0
   -6.6026    3.7577   -0.0000 C   0  0  0  0  0  0  0  0  0  0  0  0
   -8.0369    4.2200   -0.0000 S   0  0  0  0  0  0  0  0  0  0  0  0
   -6.6026    2.2759   -0.0000 N   0  0  0  0  0  0  0  0  0  0  0  0
   -8.9259    3.0109   -0.0000 C   0  0  0  0  0  0  0  0  0  0  0  0
   -8.0369    1.8136   -0.0000 C   0  0  0  0  0  0  0  0  0  0  0  0
   -8.4992    0.4030   -0.0000 C   0  0  0  0  0  0  0  0  0  0  0  0
   -9.9335   -0.0593   -0.0000 C   0  0  0  0  0  0  0  0  0  0  0  0
   -7.6220   -0.7942   -0.0000 C   0  0  0  0  0  0  0  0  0  0  0  0
   -9.9335   -1.5529   -0.0000 C   0  0  0  0  0  0  0  0  0  0  0  0
  -11.2493    0.6994   -0.0000 C   0  0  0  0  0  0  0  0  0  0  0  0
   -8.5111   -2.0033   -0.0000 N   0  0  0  0  0  0  0  0  0  0  0  0
  -11.2493   -2.2996   -0.0000 N   0  0  0  0  0  0  0  0  0  0  0  0
  -12.5532   -0.0356   -0.0000 C   0  0  0  0  0  0  0  0  0  0  0  0
  -12.5532   -1.5410   -0.0000 C   0  0  0  0  0  0  0  0  0  0  0  0
  1  2  2  0  0  0  0
  1  3  2  0  0  0  0
  1  4  1  0  0  0  0
  1  5  1  0  0  0  0
  4  6  1  0  0  0  0
  5  7  2  0  0  0  0
  5  8  1  0  0  0  0
  6  9  1  0  0  0  0
  7 10  1  0  0  0  0
  8 11  2  0  0  0  0
 10 12  2  0  0  0  0
 10 13  1  0  0  0  0
 13 14  1  0  0  0  0
 14 15  2  0  0  0  0
 14 16  1  0  0  0  0
 16 17  1  0  0  0  0
 17 18  1  0  0  0  0
 17 19  2  0  0  0  0
 18 20  1  0  0  0  0
 19 21  1  0  0  0  0
 21 22  1  0  0  0  0
 22 23  1  0  0  0  0
 22 24  2  0  0  0  0
 23 25  2  0  0  0  0
 23 26  1  0  0  0  0
 24 27  1  0  0  0  0
 25 28  1  0  0  0  0
 26 29  2  0  0  0  0
 28 30  2  0  0  0  0
 11 12  1  0  0  0  0
 20 21  2  0  0  0  0
 25 27  1  0  0  0  0
 29 30  1  0  0  0  0
M  END
>  <MolRegNo>
2307694

>  <m>
=

>  <Value>
9300

>  <Unit>
nM

>  <Type>
IC50

>  <pValue>
5.03

>  <Ligand Efficiency>
0

>  <Binding Efficiency>
0

>  <Surface Efficiency>
0

>  <Assay Index>
1195540

>  <Assay Category>


>  <Assay Organism>
Homo sapiens

>  <Target ID>
17045

>  <Target Name>
Cytochrome P450 3A4

>  <Target Organism>
Homo sapiens

>  <Target Description>
Target is a single protein chain

>  <Sequence Accession>
P08684

>  <Reference>
Bioorg Med Chem Lett 28 (15), 2622-2626 (2018)

>  <Pubmed ID>
30082069

>  <DOI>
10.1016/j.bmcl.2018.06.040

$$$$
2305176
Actelion Java MolfileCreator 1.0

 31 34  0  0  0  0  0  0  0  0999 V2000
    0.0000   -0.0000   -0.0000 S   0  0  0  0  0  0  0  0  0  0  0  0
   -0.7706   -1.2804   -0.0000 O   0  0  0  0  0  0  0  0  0  0  0  0
   -1.5056    0.0237   -0.0000 O   0  0  0  0  0  0  0  0  0  0  0  0
    1.2922   -0.7232   -0.0000 N   0  0  0  0  0  0  0  0  0  0  0  0
   -0.0237    1.5056   -0.0000 C   0  0  0  0  0  0  0  0  0  0  0  0
    2.5726    0.0474   -0.0000 C   0  0  0  0  0  0  0  0  0  0  0  0
   -1.3396    2.2525   -0.0000 C   0  0  0  0  0  0  0  0  0  0  0  0
    1.2567    2.2762   -0.0000 C   0  0  0  0  0  0  0  0  0  0  0  0
    3.8648   -0.6757   -0.0000 C   0  0  0  0  0  0  0  0  0  0  0  0
   -1.3634    3.7581   -0.0000 C   0  0  0  0  0  0  0  0  0  0  0  0
    1.2211    3.7937   -0.0000 C   0  0  0  0  0  0  0  0  0  0  0  0
    5.1452    0.0948   -0.0000 C   0  0  0  0  0  0  0  0  0  0  0  0
   -0.0948    4.5406   -0.0000 C   0  0  0  0  0  0  0  0  0  0  0  0
   -2.6793    4.5050   -0.0000 C   0  0  0  0  0  0  0  0  0  0  0  0
   -3.9834    3.7581   -0.0000 C   0  0  0  0  0  0  0  0  0  0  0  0
   -3.9715    2.2762   -0.0000 O   0  0  0  0  0  0  0  0  0  0  0  0
   -5.2993    4.5050   -0.0000 N   0  0  0  0  0  0  0  0  0  0  0  0
   -6.6034    3.7581   -0.0000 C   0  0  0  0  0  0  0  0  0  0  0  0
   -8.0379    4.2205   -0.0000 S   0  0  0  0  0  0  0  0  0  0  0  0
   -6.6034    2.2762   -0.0000 N   0  0  0  0  0  0  0  0  0  0  0  0
   -8.9270    3.0112   -0.0000 C   0  0  0  0  0  0  0  0  0  0  0  0
   -8.0379    1.8139   -0.0000 C   0  0  0  0  0  0  0  0  0  0  0  0
   -8.5002    0.4031   -0.0000 C   0  0  0  0  0  0  0  0  0  0  0  0
   -9.9347   -0.0593   -0.0000 C   0  0  0  0  0  0  0  0  0  0  0  0
   -7.6229   -0.7943   -0.0000 C   0  0  0  0  0  0  0  0  0  0  0  0
   -9.9347   -1.5530   -0.0000 C   0  0  0  0  0  0  0  0  0  0  0  0
  -11.2506    0.6995   -0.0000 C   0  0  0  0  0  0  0  0  0  0  0  0
   -8.5121   -2.0035   -0.0000 N   0  0  0  0  0  0  0  0  0  0  0  0
  -11.2506   -2.2999   -0.0000 N   0  0  0  0  0  0  0  0  0  0  0  0
  -12.5547   -0.0356   -0.0000 C   0  0  0  0  0  0  0  0  0  0  0  0
  -12.5547   -1.5412   -0.0000 C   0  0  0  0  0  0  0  0  0  0  0  0
  1  2  2  0  0  0  0
  1  3  2  0  0  0  0
  1  4  1  0  0  0  0
  1  5  1  0  0  0  0
  4  6  1  0  0  0  0
  5  7  2  0  0  0  0
  5  8  1  0  0  0  0
  6  9  1  0  0  0  0
  7 10  1  0  0  0  0
  8 11  2  0  0  0  0
  9 12  1  0  0  0  0
 10 13  2  0  0  0  0
 10 14  1  0  0  0  0
 14 15  1  0  0  0  0
 15 16  2  0  0  0  0
 15 17  1  0  0  0  0
 17 18  1  0  0  0  0
 18 19  1  0  0  0  0
 18 20  2  0  0  0  0
 19 21  1  0  0  0  0
 20 22  1  0  0  0  0
 22 23  1  0  0  0  0
 23 24  1  0  0  0  0
 23 25  2  0  0  0  0
 24 26  2  0  0  0  0
 24 27  1  0  0  0  0
 25 28  1  0  0  0  0
 26 29  1  0  0  0  0
 27 30  2  0  0  0  0
 29 31  2  0  0  0  0
 11 13  1  0  0  0  0
 21 22  2  0  0  0  0
 26 28  1  0  0  0  0
 30 31  1  0  0  0  0
M  END
>  <MolRegNo>
2305176

>  <m>
=

>  <Value>
5700

>  <Unit>
nM

>  <Type>
IC50

>  <pValue>
5.24

>  <Ligand Efficiency>
0

>  <Binding Efficiency>
0

>  <Surface Efficiency>
0

>  <Assay Index>
1195540

>  <Assay Category>


>  <Assay Organism>
Homo sapiens

>  <Target ID>
17045

>  <Target Name>
Cytochrome P450 3A4

>  <Target Organism>
Homo sapiens

>  <Target Description>
Target is a single protein chain

>  <Sequence Accession>
P08684

>  <Reference>
Bioorg Med Chem Lett 28 (15), 2622-2626 (2018)

>  <Pubmed ID>
30082069

>  <DOI>
10.1016/j.bmcl.2018.06.040

$$$$
2313641
Actelion Java MolfileCreator 1.0

 31 34  0  0  0  0  0  0  0  0999 V2000
    0.0000   -0.0000   -0.0000 S   0  0  0  0  0  0  0  0  0  0  0  0
   -0.7703   -1.2798   -0.0000 O   0  0  0  0  0  0  0  0  0  0  0  0
   -1.5050    0.0237   -0.0000 O   0  0  0  0  0  0  0  0  0  0  0  0
    1.3035   -0.7229   -0.0000 N   0  0  0  0  0  0  0  0  0  0  0  0
   -0.0237    1.5050   -0.0000 C   0  0  0  0  0  0  0  0  0  0  0  0
    2.5833    0.0474   -0.0000 C   0  0  0  0  0  0  0  0  0  0  0  0
   -1.3391    2.2515   -0.0000 C   0  0  0  0  0  0  0  0  0  0  0  0
    1.2561    2.2871   -0.0000 C   0  0  0  0  0  0  0  0  0  0  0  0
    3.8750   -0.6755   -0.0000 C   0  0  0  0  0  0  0  0  0  0  0  0
    2.5596    1.5524   -0.0000 C   0  0  0  0  0  0  0  0  0  0  0  0
   -1.3628    3.7565   -0.0000 C   0  0  0  0  0  0  0  0  0  0  0  0
    1.2206    3.8039   -0.0000 C   0  0  0  0  0  0  0  0  0  0  0  0
   -0.0948    4.5386   -0.0000 C   0  0  0  0  0  0  0  0  0  0  0  0
   -2.6781    4.5030   -0.0000 C   0  0  0  0  0  0  0  0  0  0  0  0
   -3.9816    3.7565   -0.0000 C   0  0  0  0  0  0  0  0  0  0  0  0
   -3.9698    2.2752   -0.0000 O   0  0  0  0  0  0  0  0  0  0  0  0
   -5.2970    4.5030   -0.0000 N   0  0  0  0  0  0  0  0  0  0  0  0
   -6.6005    3.7565   -0.0000 C   0  0  0  0  0  0  0  0  0  0  0  0
   -8.0344    4.2186   -0.0000 S   0  0  0  0  0  0  0  0  0  0  0  0
   -6.6005    2.2752   -0.0000 N   0  0  0  0  0  0  0  0  0  0  0  0
   -8.9231    3.0099   -0.0000 C   0  0  0  0  0  0  0  0  0  0  0  0
   -8.0344    1.8131   -0.0000 C   0  0  0  0  0  0  0  0  0  0  0  0
   -8.4965    0.4029   -0.0000 C   0  0  0  0  0  0  0  0  0  0  0  0
   -9.9304   -0.0593   -0.0000 C   0  0  0  0  0  0  0  0  0  0  0  0
   -7.6196   -0.7940   -0.0000 C   0  0  0  0  0  0  0  0  0  0  0  0
   -9.9304   -1.5524   -0.0000 C   0  0  0  0  0  0  0  0  0  0  0  0
  -11.2458    0.6992   -0.0000 C   0  0  0  0  0  0  0  0  0  0  0  0
   -8.5084   -2.0027   -0.0000 N   0  0  0  0  0  0  0  0  0  0  0  0
  -11.2458   -2.2989   -0.0000 N   0  0  0  0  0  0  0  0  0  0  0  0
  -12.5493   -0.0356   -0.0000 C   0  0  0  0  0  0  0  0  0  0  0  0
  -12.5493   -1.5405   -0.0000 C   0  0  0  0  0  0  0  0  0  0  0  0
  1  2  2  0  0  0  0
  1  3  2  0  0  0  0
  1  4  1  0  0  0  0
  1  5  1  0  0  0  0
  4  6  1  0  0  0  0
  5  7  2  0  0  0  0
  5  8  1  0  0  0  0
  6  9  1  0  0  0  0
  6 10  1  0  0  0  0
  7 11  1  0  0  0  0
  8 12  2  0  0  0  0
 11 13  2  0  0  0  0
 11 14  1  0  0  0  0
 14 15  1  0  0  0  0
 15 16  2  0  0  0  0
 15 17  1  0  0  0  0
 17 18  1  0  0  0  0
 18 19  1  0  0  0  0
 18 20  2  0  0  0  0
 19 21  1  0  0  0  0
 20 22  1  0  0  0  0
 22 23  1  0  0  0  0
 23 24  1  0  0  0  0
 23 25  2  0  0  0  0
 24 26  2  0  0  0  0
 24 27  1  0  0  0  0
 25 28  1  0  0  0  0
 26 29  1  0  0  0  0
 27 30  2  0  0  0  0
 29 31  2  0  0  0  0
 12 13  1  0  0  0  0
 21 22  2  0  0  0  0
 26 28  1  0  0  0  0
 30 31  1  0  0  0  0
M  END
>  <MolRegNo>
2313641

>  <m>
=

>  <Value>
2600

>  <Unit>
nM

>  <Type>
IC50

>  <pValue>
5.58

>  <Ligand Efficiency>
0

>  <Binding Efficiency>
0

>  <Surface Efficiency>
0

>  <Assay Index>
1195540

>  <Assay Category>


>  <Assay Organism>
Homo sapiens

>  <Target ID>
17045

>  <Target Name>
Cytochrome P450 3A4

>  <Target Organism>
Homo sapiens

>  <Target Description>
Target is a single protein chain

>  <Sequence Accession>
P08684

>  <Reference>
Bioorg Med Chem Lett 28 (15), 2622-2626 (2018)

>  <Pubmed ID>
30082069

>  <DOI>
10.1016/j.bmcl.2018.06.040

$$$$
2306530
Actelion Java MolfileCreator 1.0

 32 35  0  0  0  0  0  0  0  0999 V2000
    0.0000   -0.0000   -0.0000 S   0  0  0  0  0  0  0  0  0  0  0  0
   -0.7709   -1.2808   -0.0000 O   0  0  0  0  0  0  0  0  0  0  0  0
   -1.5062    0.0237   -0.0000 O   0  0  0  0  0  0  0  0  0  0  0  0
    1.2927   -0.7234   -0.0000 N   0  0  0  0  0  0  0  0  0  0  0  0
   -0.0237    1.5062   -0.0000 C   0  0  0  0  0  0  0  0  0  0  0  0
    2.5735    0.0474   -0.0000 C   0  0  0  0  0  0  0  0  0  0  0  0
   -1.3401    2.2533   -0.0000 C   0  0  0  0  0  0  0  0  0  0  0  0
    1.2571    2.2889   -0.0000 C   0  0  0  0  0  0  0  0  0  0  0  0
    3.8662   -0.6760   -0.0000 C   0  0  0  0  0  0  0  0  0  0  0  0
   -1.3638    3.7595   -0.0000 C   0  0  0  0  0  0  0  0  0  0  0  0
    1.2215    3.8069   -0.0000 C   0  0  0  0  0  0  0  0  0  0  0  0
    5.1470    0.0949   -0.0000 O   0  0  0  0  0  0  0  0  0  0  0  0
   -0.0949    4.5422   -0.0000 C   0  0  0  0  0  0  0  0  0  0  0  0
   -2.6803    4.5066   -0.0000 C   0  0  0  0  0  0  0  0  0  0  0  0
    6.4397   -0.6286   -0.0000 C   0  0  0  0  0  0  0  0  0  0  0  0
   -3.9848    3.7595   -0.0000 C   0  0  0  0  0  0  0  0  0  0  0  0
   -3.9729    2.2770   -0.0000 O   0  0  0  0  0  0  0  0  0  0  0  0
   -5.3012    4.5066   -0.0000 N   0  0  0  0  0  0  0  0  0  0  0  0
   -6.6058    3.7595   -0.0000 C   0  0  0  0  0  0  0  0  0  0  0  0
   -8.0408    4.2220   -0.0000 S   0  0  0  0  0  0  0  0  0  0  0  0
   -6.6058    2.2770   -0.0000 N   0  0  0  0  0  0  0  0  0  0  0  0
   -8.9302    3.0123   -0.0000 C   0  0  0  0  0  0  0  0  0  0  0  0
   -8.0408    1.8145   -0.0000 C   0  0  0  0  0  0  0  0  0  0  0  0
   -8.5033    0.4032   -0.0000 C   0  0  0  0  0  0  0  0  0  0  0  0
   -9.9383   -0.0593   -0.0000 C   0  0  0  0  0  0  0  0  0  0  0  0
   -7.6257   -0.7946   -0.0000 C   0  0  0  0  0  0  0  0  0  0  0  0
   -9.9383   -1.5536   -0.0000 C   0  0  0  0  0  0  0  0  0  0  0  0
  -11.2547    0.6997   -0.0000 C   0  0  0  0  0  0  0  0  0  0  0  0
   -8.5151   -2.0043   -0.0000 N   0  0  0  0  0  0  0  0  0  0  0  0
  -11.2547   -2.3007   -0.0000 N   0  0  0  0  0  0  0  0  0  0  0  0
  -12.5592   -0.0356   -0.0000 C   0  0  0  0  0  0  0  0  0  0  0  0
  -12.5592   -1.5417   -0.0000 C   0  0  0  0  0  0  0  0  0  0  0  0
  1  2  2  0  0  0  0
  1  3  2  0  0  0  0
  1  4  1  0  0  0  0
  1  5  1  0  0  0  0
  4  6  1  0  0  0  0
  5  7  2  0  0  0  0
  5  8  1  0  0  0  0
  6  9  1  0  0  0  0
  7 10  1  0  0  0  0
  8 11  2  0  0  0  0
  9 12  1  0  0  0  0
 10 13  2  0  0  0  0
 10 14  1  0  0  0  0
 12 15  1  0  0  0  0
 14 16  1  0  0  0  0
 16 17  2  0  0  0  0
 16 18  1  0  0  0  0
 18 19  1  0  0  0  0
 19 20  1  0  0  0  0
 19 21  2  0  0  0  0
 20 22  1  0  0  0  0
 21 23  1  0  0  0  0
 23 24  1  0  0  0  0
 24 25  1  0  0  0  0
 24 26  2  0  0  0  0
 25 27  2  0  0  0  0
 25 28  1  0  0  0  0
 26 29  1  0  0  0  0
 27 30  1  0  0  0  0
 28 31  2  0  0  0  0
 30 32  2  0  0  0  0
 11 13  1  0  0  0  0
 22 23  2  0  0  0  0
 27 29  1  0  0  0  0
 31 32  1  0  0  0  0
M  END
>  <MolRegNo>
2306530

>  <m>
=

>  <Value>
3400

>  <Unit>
nM

>  <Type>
IC50

>  <pValue>
5.47

>  <Ligand Efficiency>
0

>  <Binding Efficiency>
0

>  <Surface Efficiency>
0

>  <Assay Index>
1195540

>  <Assay Category>


>  <Assay Organism>
Homo sapiens

>  <Target ID>
17045

>  <Target Name>
Cytochrome P450 3A4

>  <Target Organism>
Homo sapiens

>  <Target Description>
Target is a single protein chain

>  <Sequence Accession>
P08684

>  <Reference>
Bioorg Med Chem Lett 28 (15), 2622-2626 (2018)

>  <Pubmed ID>
30082069

>  <DOI>
10.1016/j.bmcl.2018.06.040

$$$$
2314496
Actelion Java MolfileCreator 1.0

 29 32  0  0  0  0  0  0  0  0999 V2000
    0.0000   -0.0000   -0.0000 S   0  0  0  0  0  0  0  0  0  0  0  0
    0.7346   -1.2796   -0.0000 O   0  0  0  0  0  0  0  0  0  0  0  0
   -0.7583   -1.2796   -0.0000 O   0  0  0  0  0  0  0  0  0  0  0  0
   -1.3152    0.7465   -0.0000 N   0  0  0  0  0  0  0  0  0  0  0  0
    1.2796    0.7702   -0.0000 C   0  0  0  0  0  0  0  0  0  0  0  0
   -1.3389    2.2512   -0.0000 C   0  0  0  0  0  0  0  0  0  0  0  0
   -2.6541    2.9977   -0.0000 C   0  0  0  0  0  0  0  0  0  0  0  0
   -0.0592    3.0214   -0.0000 C   0  0  0  0  0  0  0  0  0  0  0  0
   -2.6778    4.5024   -0.0000 C   0  0  0  0  0  0  0  0  0  0  0  0
   -0.0948    4.5380   -0.0000 C   0  0  0  0  0  0  0  0  0  0  0  0
   -1.4100    5.2844   -0.0000 C   0  0  0  0  0  0  0  0  0  0  0  0
   -3.9929    5.2489   -0.0000 C   0  0  0  0  0  0  0  0  0  0  0  0
   -5.2963    4.4906   -0.0000 C   0  0  0  0  0  0  0  0  0  0  0  0
   -5.2844    3.0095   -0.0000 O   0  0  0  0  0  0  0  0  0  0  0  0
   -6.6114    5.2370   -0.0000 N   0  0  0  0  0  0  0  0  0  0  0  0
   -7.9148    4.4906   -0.0000 C   0  0  0  0  0  0  0  0  0  0  0  0
   -9.3484    4.9527   -0.0000 S   0  0  0  0  0  0  0  0  0  0  0  0
   -7.9148    3.0095   -0.0000 N   0  0  0  0  0  0  0  0  0  0  0  0
  -10.2371    3.7441   -0.0000 C   0  0  0  0  0  0  0  0  0  0  0  0
   -9.3484    2.5474   -0.0000 C   0  0  0  0  0  0  0  0  0  0  0  0
   -9.8105    1.1375   -0.0000 C   0  0  0  0  0  0  0  0  0  0  0  0
  -11.2442    0.6754   -0.0000 C   0  0  0  0  0  0  0  0  0  0  0  0
   -8.9337   -0.0592   -0.0000 C   0  0  0  0  0  0  0  0  0  0  0  0
  -11.2442   -0.8175   -0.0000 C   0  0  0  0  0  0  0  0  0  0  0  0
  -12.5594    1.4337   -0.0000 C   0  0  0  0  0  0  0  0  0  0  0  0
   -9.8224   -1.2678   -0.0000 N   0  0  0  0  0  0  0  0  0  0  0  0
  -12.5594   -1.5640   -0.0000 N   0  0  0  0  0  0  0  0  0  0  0  0
  -13.8627    0.6991   -0.0000 C   0  0  0  0  0  0  0  0  0  0  0  0
  -13.8627   -0.8057   -0.0000 C   0  0  0  0  0  0  0  0  0  0  0  0
  1  2  2  0  0  0  0
  1  3  2  0  0  0  0
  1  4  1  0  0  0  0
  1  5  1  0  0  0  0
  4  6  1  0  0  0  0
  6  7  2  0  0  0  0
  6  8  1  0  0  0  0
  7  9  1  0  0  0  0
  8 10  2  0  0  0  0
  9 11  2  0  0  0  0
  9 12  1  0  0  0  0
 12 13  1  0  0  0  0
 13 14  2  0  0  0  0
 13 15  1  0  0  0  0
 15 16  1  0  0  0  0
 16 17  1  0  0  0  0
 16 18  2  0  0  0  0
 17 19  1  0  0  0  0
 18 20  1  0  0  0  0
 20 21  1  0  0  0  0
 21 22  1  0  0  0  0
 21 23  2  0  0  0  0
 22 24  2  0  0  0  0
 22 25  1  0  0  0  0
 23 26  1  0  0  0  0
 24 27  1  0  0  0  0
 25 28  2  0  0  0  0
 27 29  2  0  0  0  0
 10 11  1  0  0  0  0
 19 20  2  0  0  0  0
 24 26  1  0  0  0  0
 28 29  1  0  0  0  0
M  END
>  <MolRegNo>
2314496

>  <m>
=

>  <Value>
8300

>  <Unit>
nM

>  <Type>
IC50

>  <pValue>
5.08

>  <Ligand Efficiency>
0

>  <Binding Efficiency>
0

>  <Surface Efficiency>
0

>  <Assay Index>
1195540

>  <Assay Category>


>  <Assay Organism>
Homo sapiens

>  <Target ID>
17045

>  <Target Name>
Cytochrome P450 3A4

>  <Target Organism>
Homo sapiens

>  <Target Description>
Target is a single protein chain

>  <Sequence Accession>
P08684

>  <Reference>
Bioorg Med Chem Lett 28 (15), 2622-2626 (2018)

>  <Pubmed ID>
30082069

>  <DOI>
10.1016/j.bmcl.2018.06.040

$$$$
2315118
Actelion Java MolfileCreator 1.0

 30 33  0  0  0  0  0  0  0  0999 V2000
    0.0000   -0.0000   -0.0000 S   0  0  0  0  0  0  0  0  0  0  0  0
    0.7349   -1.2801   -0.0000 O   0  0  0  0  0  0  0  0  0  0  0  0
   -0.7586   -1.2801   -0.0000 O   0  0  0  0  0  0  0  0  0  0  0  0
   -1.3157    0.7468   -0.0000 N   0  0  0  0  0  0  0  0  0  0  0  0
    1.2801    0.7705   -0.0000 C   0  0  0  0  0  0  0  0  0  0  0  0
   -1.3394    2.2521   -0.0000 C   0  0  0  0  0  0  0  0  0  0  0  0
    2.5721    0.0356   -0.0000 C   0  0  0  0  0  0  0  0  0  0  0  0
   -2.6551    2.9989   -0.0000 C   0  0  0  0  0  0  0  0  0  0  0  0
   -0.0593    3.0344   -0.0000 C   0  0  0  0  0  0  0  0  0  0  0  0
   -2.6788    4.5042   -0.0000 C   0  0  0  0  0  0  0  0  0  0  0  0
   -0.0948    4.5516   -0.0000 C   0  0  0  0  0  0  0  0  0  0  0  0
   -1.4105    5.2865   -0.0000 C   0  0  0  0  0  0  0  0  0  0  0  0
   -3.9945    5.2510   -0.0000 C   0  0  0  0  0  0  0  0  0  0  0  0
   -5.2984    4.5042   -0.0000 C   0  0  0  0  0  0  0  0  0  0  0  0
   -5.2865    3.0226   -0.0000 O   0  0  0  0  0  0  0  0  0  0  0  0
   -6.6141    5.2510   -0.0000 N   0  0  0  0  0  0  0  0  0  0  0  0
   -7.9179    4.5042   -0.0000 C   0  0  0  0  0  0  0  0  0  0  0  0
   -9.3522    4.9665   -0.0000 S   0  0  0  0  0  0  0  0  0  0  0  0
   -7.9179    3.0226   -0.0000 N   0  0  0  0  0  0  0  0  0  0  0  0
  -10.2412    3.7575   -0.0000 C   0  0  0  0  0  0  0  0  0  0  0  0
   -9.3522    2.5603   -0.0000 C   0  0  0  0  0  0  0  0  0  0  0  0
   -9.8145    1.1498   -0.0000 C   0  0  0  0  0  0  0  0  0  0  0  0
  -11.2487    0.6875   -0.0000 C   0  0  0  0  0  0  0  0  0  0  0  0
   -8.9373   -0.0474   -0.0000 C   0  0  0  0  0  0  0  0  0  0  0  0
  -11.2487   -0.8060   -0.0000 C   0  0  0  0  0  0  0  0  0  0  0  0
  -12.5644    1.4461   -0.0000 C   0  0  0  0  0  0  0  0  0  0  0  0
   -9.8263   -1.2564   -0.0000 N   0  0  0  0  0  0  0  0  0  0  0  0
  -12.5644   -1.5528   -0.0000 N   0  0  0  0  0  0  0  0  0  0  0  0
  -13.8683    0.7112   -0.0000 C   0  0  0  0  0  0  0  0  0  0  0  0
  -13.8683   -0.7942   -0.0000 C   0  0  0  0  0  0  0  0  0  0  0  0
  1  2  2  0  0  0  0
  1  3  2  0  0  0  0
  1  4  1  0  0  0  0
  1  5  1  0  0  0  0
  4  6  1  0  0  0  0
  5  7  1  0  0  0  0
  6  8  2  0  0  0  0
  6  9  1  0  0  0  0
  8 10  1  0  0  0  0
  9 11  2  0  0  0  0
 10 12  2  0  0  0  0
 10 13  1  0  0  0  0
 13 14  1  0  0  0  0
 14 15  2  0  0  0  0
 14 16  1  0  0  0  0
 16 17  1  0  0  0  0
 17 18  1  0  0  0  0
 17 19  2  0  0  0  0
 18 20  1  0  0  0  0
 19 21  1  0  0  0  0
 21 22  1  0  0  0  0
 22 23  1  0  0  0  0
 22 24  2  0  0  0  0
 23 25  2  0  0  0  0
 23 26  1  0  0  0  0
 24 27  1  0  0  0  0
 25 28  1  0  0  0  0
 26 29  2  0  0  0  0
 28 30  2  0  0  0  0
 11 12  1  0  0  0  0
 20 21  2  0  0  0  0
 25 27  1  0  0  0  0
 29 30  1  0  0  0  0
M  END
>  <MolRegNo>
2315118

>  <m>
=

>  <Value>
5900

>  <Unit>
nM

>  <Type>
IC50

>  <pValue>
5.23

>  <Ligand Efficiency>
0

>  <Binding Efficiency>
0

>  <Surface Efficiency>
0

>  <Assay Index>
1195540

>  <Assay Category>


>  <Assay Organism>
Homo sapiens

>  <Target ID>
17045

>  <Target Name>
Cytochrome P450 3A4

>  <Target Organism>
Homo sapiens

>  <Target Description>
Target is a single protein chain

>  <Sequence Accession>
P08684

>  <Reference>
Bioorg Med Chem Lett 28 (15), 2622-2626 (2018)

>  <Pubmed ID>
30082069

>  <DOI>
10.1016/j.bmcl.2018.06.040

$$$$
2305876
Actelion Java MolfileCreator 1.0

 31 34  0  0  0  0  0  0  0  0999 V2000
    0.0000   -0.0000   -0.0000 S   0  0  0  0  0  0  0  0  0  0  0  0
    0.7350   -1.2803   -0.0000 O   0  0  0  0  0  0  0  0  0  0  0  0
   -0.7587   -1.2803   -0.0000 O   0  0  0  0  0  0  0  0  0  0  0  0
   -1.3159    0.7468   -0.0000 N   0  0  0  0  0  0  0  0  0  0  0  0
    1.2803    0.7705   -0.0000 C   0  0  0  0  0  0  0  0  0  0  0  0
   -1.3396    2.2524   -0.0000 C   0  0  0  0  0  0  0  0  0  0  0  0
    2.5724    0.0356   -0.0000 C   0  0  0  0  0  0  0  0  0  0  0  0
   -2.6554    2.9992   -0.0000 C   0  0  0  0  0  0  0  0  0  0  0  0
   -0.0593    3.0348   -0.0000 C   0  0  0  0  0  0  0  0  0  0  0  0
    3.8527    0.8061   -0.0000 C   0  0  0  0  0  0  0  0  0  0  0  0
   -2.6791    4.5047   -0.0000 C   0  0  0  0  0  0  0  0  0  0  0  0
   -0.0948    4.5522   -0.0000 C   0  0  0  0  0  0  0  0  0  0  0  0
   -1.4107    5.2871   -0.0000 C   0  0  0  0  0  0  0  0  0  0  0  0
   -3.9950    5.2516   -0.0000 C   0  0  0  0  0  0  0  0  0  0  0  0
   -5.2990    4.5047   -0.0000 C   0  0  0  0  0  0  0  0  0  0  0  0
   -5.2871    3.0229   -0.0000 O   0  0  0  0  0  0  0  0  0  0  0  0
   -6.6149    5.2516   -0.0000 N   0  0  0  0  0  0  0  0  0  0  0  0
   -7.9189    4.5047   -0.0000 C   0  0  0  0  0  0  0  0  0  0  0  0
   -9.3533    4.9671   -0.0000 S   0  0  0  0  0  0  0  0  0  0  0  0
   -7.9189    3.0229   -0.0000 N   0  0  0  0  0  0  0  0  0  0  0  0
  -10.2424    3.7579   -0.0000 C   0  0  0  0  0  0  0  0  0  0  0  0
   -9.3533    2.5606   -0.0000 C   0  0  0  0  0  0  0  0  0  0  0  0
   -9.8156    1.1499   -0.0000 C   0  0  0  0  0  0  0  0  0  0  0  0
  -11.2500    0.6876   -0.0000 C   0  0  0  0  0  0  0  0  0  0  0  0
   -8.9384   -0.0474   -0.0000 C   0  0  0  0  0  0  0  0  0  0  0  0
  -11.2500   -0.8061   -0.0000 C   0  0  0  0  0  0  0  0  0  0  0  0
  -12.5659    1.4463   -0.0000 C   0  0  0  0  0  0  0  0  0  0  0  0
   -9.8274   -1.2566   -0.0000 N   0  0  0  0  0  0  0  0  0  0  0  0
  -12.5659   -1.5530   -0.0000 N   0  0  0  0  0  0  0  0  0  0  0  0
  -13.8699    0.7113   -0.0000 C   0  0  0  0  0  0  0  0  0  0  0  0
  -13.8699   -0.7943   -0.0000 C   0  0  0  0  0  0  0  0  0  0  0  0
  1  2  2  0  0  0  0
  1  3  2  0  0  0  0
  1  4  1  0  0  0  0
  1  5  1  0  0  0  0
  4  6  1  0  0  0  0
  5  7  1  0  0  0  0
  6  8  2  0  0  0  0
  6  9  1  0  0  0  0
  7 10  1  0  0  0  0
  8 11  1  0  0  0  0
  9 12  2  0  0  0  0
 11 13  2  0  0  0  0
 11 14  1  0  0  0  0
 14 15  1  0  0  0  0
 15 16  2  0  0  0  0
 15 17  1  0  0  0  0
 17 18  1  0  0  0  0
 18 19  1  0  0  0  0
 18 20  2  0  0  0  0
 19 21  1  0  0  0  0
 20 22  1  0  0  0  0
 22 23  1  0  0  0  0
 23 24  1  0  0  0  0
 23 25  2  0  0  0  0
 24 26  2  0  0  0  0
 24 27  1  0  0  0  0
 25 28  1  0  0  0  0
 26 29  1  0  0  0  0
 27 30  2  0  0  0  0
 29 31  2  0  0  0  0
 12 13  1  0  0  0  0
 21 22  2  0  0  0  0
 26 28  1  0  0  0  0
 30 31  1  0  0  0  0
M  END
>  <MolRegNo>
2305876

>  <m>
=

>  <Value>
3600

>  <Unit>
nM

>  <Type>
IC50

>  <pValue>
5.44

>  <Ligand Efficiency>
0

>  <Binding Efficiency>
0

>  <Surface Efficiency>
0

>  <Assay Index>
1195540

>  <Assay Category>


>  <Assay Organism>
Homo sapiens

>  <Target ID>
17045

>  <Target Name>
Cytochrome P450 3A4

>  <Target Organism>
Homo sapiens

>  <Target Description>
Target is a single protein chain

>  <Sequence Accession>
P08684

>  <Reference>
Bioorg Med Chem Lett 28 (15), 2622-2626 (2018)

>  <Pubmed ID>
30082069

>  <DOI>
10.1016/j.bmcl.2018.06.040

$$$$
2309288
Actelion Java MolfileCreator 1.0

 31 34  0  0  0  0  0  0  0  0999 V2000
    0.0000   -0.0000   -0.0000 S   0  0  0  0  0  0  0  0  0  0  0  0
    0.7348   -1.2800   -0.0000 O   0  0  0  0  0  0  0  0  0  0  0  0
   -0.7585   -1.2800   -0.0000 O   0  0  0  0  0  0  0  0  0  0  0  0
   -1.3156    0.7467   -0.0000 N   0  0  0  0  0  0  0  0  0  0  0  0
    1.2800    0.7704   -0.0000 C   0  0  0  0  0  0  0  0  0  0  0  0
   -1.3393    2.2519   -0.0000 C   0  0  0  0  0  0  0  0  0  0  0  0
    2.5719    0.0356   -0.0000 C   0  0  0  0  0  0  0  0  0  0  0  0
    1.2563    2.2756   -0.0000 C   0  0  0  0  0  0  0  0  0  0  0  0
   -2.6548    2.9986   -0.0000 C   0  0  0  0  0  0  0  0  0  0  0  0
   -0.0593    3.0223   -0.0000 C   0  0  0  0  0  0  0  0  0  0  0  0
   -2.6786    4.5038   -0.0000 C   0  0  0  0  0  0  0  0  0  0  0  0
   -0.0948    4.5393   -0.0000 C   0  0  0  0  0  0  0  0  0  0  0  0
   -1.4104    5.2860   -0.0000 C   0  0  0  0  0  0  0  0  0  0  0  0
   -3.9941    5.2504   -0.0000 C   0  0  0  0  0  0  0  0  0  0  0  0
   -5.2978    4.5038   -0.0000 C   0  0  0  0  0  0  0  0  0  0  0  0
   -5.2860    3.0223   -0.0000 O   0  0  0  0  0  0  0  0  0  0  0  0
   -6.6134    5.2504   -0.0000 N   0  0  0  0  0  0  0  0  0  0  0  0
   -7.9171    4.5038   -0.0000 C   0  0  0  0  0  0  0  0  0  0  0  0
   -9.3512    4.9660   -0.0000 S   0  0  0  0  0  0  0  0  0  0  0  0
   -7.9171    3.0223   -0.0000 N   0  0  0  0  0  0  0  0  0  0  0  0
  -10.2401    3.7571   -0.0000 C   0  0  0  0  0  0  0  0  0  0  0  0
   -9.3512    2.5600   -0.0000 C   0  0  0  0  0  0  0  0  0  0  0  0
   -9.8135    1.1496   -0.0000 C   0  0  0  0  0  0  0  0  0  0  0  0
  -11.2475    0.6874   -0.0000 C   0  0  0  0  0  0  0  0  0  0  0  0
   -8.9364   -0.0474   -0.0000 C   0  0  0  0  0  0  0  0  0  0  0  0
  -11.2475   -0.8059   -0.0000 C   0  0  0  0  0  0  0  0  0  0  0  0
  -12.5631    1.4459   -0.0000 C   0  0  0  0  0  0  0  0  0  0  0  0
   -9.8253   -1.2563   -0.0000 N   0  0  0  0  0  0  0  0  0  0  0  0
  -12.5631   -1.5526   -0.0000 N   0  0  0  0  0  0  0  0  0  0  0  0
  -13.8668    0.7111   -0.0000 C   0  0  0  0  0  0  0  0  0  0  0  0
  -13.8668   -0.7941   -0.0000 C   0  0  0  0  0  0  0  0  0  0  0  0
  1  2  2  0  0  0  0
  1  3  2  0  0  0  0
  1  4  1  0  0  0  0
  1  5  1  0  0  0  0
  4  6  1  0  0  0  0
  5  7  1  0  0  0  0
  5  8  1  0  0  0  0
  6  9  2  0  0  0  0
  6 10  1  0  0  0  0
  9 11  1  0  0  0  0
 10 12  2  0  0  0  0
 11 13  2  0  0  0  0
 11 14  1  0  0  0  0
 14 15  1  0  0  0  0
 15 16  2  0  0  0  0
 15 17  1  0  0  0  0
 17 18  1  0  0  0  0
 18 19  1  0  0  0  0
 18 20  2  0  0  0  0
 19 21  1  0  0  0  0
 20 22  1  0  0  0  0
 22 23  1  0  0  0  0
 23 24  1  0  0  0  0
 23 25  2  0  0  0  0
 24 26  2  0  0  0  0
 24 27  1  0  0  0  0
 25 28  1  0  0  0  0
 26 29  1  0  0  0  0
 27 30  2  0  0  0  0
 29 31  2  0  0  0  0
 12 13  1  0  0  0  0
 21 22  2  0  0  0  0
 26 28  1  0  0  0  0
 30 31  1  0  0  0  0
M  END
>  <MolRegNo>
2309288

>  <m>
=

>  <Value>
4900

>  <Unit>
nM

>  <Type>
IC50

>  <pValue>
5.31

>  <Ligand Efficiency>
0

>  <Binding Efficiency>
0

>  <Surface Efficiency>
0

>  <Assay Index>
1195540

>  <Assay Category>


>  <Assay Organism>
Homo sapiens

>  <Target ID>
17045

>  <Target Name>
Cytochrome P450 3A4

>  <Target Organism>
Homo sapiens

>  <Target Description>
Target is a single protein chain

>  <Sequence Accession>
P08684

>  <Reference>
Bioorg Med Chem Lett 28 (15), 2622-2626 (2018)

>  <Pubmed ID>
30082069

>  <DOI>
10.1016/j.bmcl.2018.06.040

$$$$
2308229
Actelion Java MolfileCreator 1.0

 32 35  0  0  0  0  0  0  0  0999 V2000
    0.0000   -0.0000   -0.0000 S   0  0  0  0  0  0  0  0  0  0  0  0
    0.7352   -1.2806   -0.0000 O   0  0  0  0  0  0  0  0  0  0  0  0
   -0.7589   -1.2806   -0.0000 O   0  0  0  0  0  0  0  0  0  0  0  0
   -1.3162    0.7470   -0.0000 N   0  0  0  0  0  0  0  0  0  0  0  0
    1.2806    0.7707   -0.0000 C   0  0  0  0  0  0  0  0  0  0  0  0
   -1.3399    2.2529   -0.0000 C   0  0  0  0  0  0  0  0  0  0  0  0
    2.5731    0.0356   -0.0000 C   0  0  0  0  0  0  0  0  0  0  0  0
   -2.6561    3.0000   -0.0000 C   0  0  0  0  0  0  0  0  0  0  0  0
   -0.0593    3.0356   -0.0000 C   0  0  0  0  0  0  0  0  0  0  0  0
    3.8537    0.8063   -0.0000 C   0  0  0  0  0  0  0  0  0  0  0  0
   -2.6798    4.5059   -0.0000 C   0  0  0  0  0  0  0  0  0  0  0  0
   -0.0949    4.5533   -0.0000 C   0  0  0  0  0  0  0  0  0  0  0  0
    5.1462    0.0711   -0.0000 C   0  0  0  0  0  0  0  0  0  0  0  0
   -1.4111    5.2885   -0.0000 C   0  0  0  0  0  0  0  0  0  0  0  0
   -3.9960    5.2529   -0.0000 C   0  0  0  0  0  0  0  0  0  0  0  0
   -5.3004    4.5059   -0.0000 C   0  0  0  0  0  0  0  0  0  0  0  0
   -5.2885    3.0237   -0.0000 O   0  0  0  0  0  0  0  0  0  0  0  0
   -6.6166    5.2529   -0.0000 N   0  0  0  0  0  0  0  0  0  0  0  0
   -7.9209    4.5059   -0.0000 C   0  0  0  0  0  0  0  0  0  0  0  0
   -9.3557    4.9683   -0.0000 S   0  0  0  0  0  0  0  0  0  0  0  0
   -7.9209    3.0237   -0.0000 N   0  0  0  0  0  0  0  0  0  0  0  0
  -10.2450    3.7589   -0.0000 C   0  0  0  0  0  0  0  0  0  0  0  0
   -9.3557    2.5612   -0.0000 C   0  0  0  0  0  0  0  0  0  0  0  0
   -9.8181    1.1502   -0.0000 C   0  0  0  0  0  0  0  0  0  0  0  0
  -11.2529    0.6877   -0.0000 C   0  0  0  0  0  0  0  0  0  0  0  0
   -8.9406   -0.0474   -0.0000 C   0  0  0  0  0  0  0  0  0  0  0  0
  -11.2529   -0.8063   -0.0000 C   0  0  0  0  0  0  0  0  0  0  0  0
  -12.5691    1.4466   -0.0000 C   0  0  0  0  0  0  0  0  0  0  0  0
   -9.8300   -1.2569   -0.0000 N   0  0  0  0  0  0  0  0  0  0  0  0
  -12.5691   -1.5533   -0.0000 N   0  0  0  0  0  0  0  0  0  0  0  0
  -13.8734    0.7115   -0.0000 C   0  0  0  0  0  0  0  0  0  0  0  0
  -13.8734   -0.7945   -0.0000 C   0  0  0  0  0  0  0  0  0  0  0  0
  1  2  2  0  0  0  0
  1  3  2  0  0  0  0
  1  4  1  0  0  0  0
  1  5  1  0  0  0  0
  4  6  1  0  0  0  0
  5  7  1  0  0  0  0
  6  8  2  0  0  0  0
  6  9  1  0  0  0  0
  7 10  1  0  0  0  0
  8 11  1  0  0  0  0
  9 12  2  0  0  0  0
 10 13  1  0  0  0  0
 11 14  2  0  0  0  0
 11 15  1  0  0  0  0
 15 16  1  0  0  0  0
 16 17  2  0  0  0  0
 16 18  1  0  0  0  0
 18 19  1  0  0  0  0
 19 20  1  0  0  0  0
 19 21  2  0  0  0  0
 20 22  1  0  0  0  0
 21 23  1  0  0  0  0
 23 24  1  0  0  0  0
 24 25  1  0  0  0  0
 24 26  2  0  0  0  0
 25 27  2  0  0  0  0
 25 28  1  0  0  0  0
 26 29  1  0  0  0  0
 27 30  1  0  0  0  0
 28 31  2  0  0  0  0
 30 32  2  0  0  0  0
 12 14  1  0  0  0  0
 22 23  2  0  0  0  0
 27 29  1  0  0  0  0
 31 32  1  0  0  0  0
M  END
>  <MolRegNo>
2308229

>  <m>
=

>  <Value>
3700

>  <Unit>
nM

>  <Type>
IC50

>  <pValue>
5.43

>  <Ligand Efficiency>
0

>  <Binding Efficiency>
0

>  <Surface Efficiency>
0

>  <Assay Index>
1195540

>  <Assay Category>


>  <Assay Organism>
Homo sapiens

>  <Target ID>
17045

>  <Target Name>
Cytochrome P450 3A4

>  <Target Organism>
Homo sapiens

>  <Target Description>
Target is a single protein chain

>  <Sequence Accession>
P08684

>  <Reference>
Bioorg Med Chem Lett 28 (15), 2622-2626 (2018)

>  <Pubmed ID>
30082069

>  <DOI>
10.1016/j.bmcl.2018.06.040

$$$$
2303267
Actelion Java MolfileCreator 1.0

 33 37  0  0  0  0  0  0  0  0999 V2000
    0.0000   -0.0000   -0.0000 S   0  0  0  0  0  0  0  0  0  0  0  0
    1.4191   -0.4412   -0.0000 C   0  0  0  0  0  0  0  0  0  0  0  0
   -0.8944   -1.2164   -0.0000 C   0  0  0  0  0  0  0  0  0  0  0  0
    1.4191   -1.9319   -0.0000 N   0  0  0  0  0  0  0  0  0  0  0  0
    2.7070    0.3339   -0.0000 N   0  0  0  0  0  0  0  0  0  0  0  0
   -0.0119   -2.4208   -0.0000 C   0  0  0  0  0  0  0  0  0  0  0  0
    4.0068   -0.3935   -0.0000 C   0  0  0  0  0  0  0  0  0  0  0  0
   -0.4770   -3.8399   -0.0000 C   0  0  0  0  0  0  0  0  0  0  0  0
    4.0188   -1.8842   -0.0000 O   0  0  0  0  0  0  0  0  0  0  0  0
    5.2948    0.3935   -0.0000 C   0  0  0  0  0  0  0  0  0  0  0  0
   -1.9199   -4.3050   -0.0000 C   0  0  0  0  0  0  0  0  0  0  0  0
    0.4055   -5.0443   -0.0000 C   0  0  0  0  0  0  0  0  0  0  0  0
    6.5946   -0.3339   -0.0000 C   0  0  0  0  0  0  0  0  0  0  0  0
   -1.9199   -5.8075   -0.0000 C   0  0  0  0  0  0  0  0  0  0  0  0
   -3.2436   -3.5418   -0.0000 C   0  0  0  0  0  0  0  0  0  0  0  0
   -0.4889   -6.2607   -0.0000 N   0  0  0  0  0  0  0  0  0  0  0  0
    7.8706    0.4532   -0.0000 C   0  0  0  0  0  0  0  0  0  0  0  0
    6.5946   -1.8245   -0.0000 C   0  0  0  0  0  0  0  0  0  0  0  0
   -3.2436   -6.5588   -0.0000 N   0  0  0  0  0  0  0  0  0  0  0  0
   -4.5554   -4.2811   -0.0000 C   0  0  0  0  0  0  0  0  0  0  0  0
    9.1704   -0.2624   -0.0000 C   0  0  0  0  0  0  0  0  0  0  0  0
    7.8944   -2.5520   -0.0000 C   0  0  0  0  0  0  0  0  0  0  0  0
   -4.5554   -5.7956   -0.0000 C   0  0  0  0  0  0  0  0  0  0  0  0
   10.4464    0.5247   -0.0000 O   0  0  0  0  0  0  0  0  0  0  0  0
    9.1824   -1.7649   -0.0000 C   0  0  0  0  0  0  0  0  0  0  0  0
   11.7463   -0.1908   -0.0000 C   0  0  0  0  0  0  0  0  0  0  0  0
   13.0223    0.5963   -0.0000 C   0  0  0  0  0  0  0  0  0  0  0  0
   14.3221   -0.1193   -0.0000 N   0  0  0  0  0  0  0  0  0  0  0  0
   14.3221   -1.6218   -0.0000 C   0  0  0  0  0  0  0  0  0  0  0  0
   15.5981    0.6678   -0.0000 C   0  0  0  0  0  0  0  0  0  0  0  0
   15.6219   -2.3373   -0.0000 C   0  0  0  0  0  0  0  0  0  0  0  0
   16.8979   -0.0596   -0.0000 C   0  0  0  0  0  0  0  0  0  0  0  0
   16.9099   -1.5622   -0.0000 N   0  0  0  0  0  0  0  0  0  0  0  0
  1  2  1  0  0  0  0
  1  3  1  0  0  0  0
  2  4  2  0  0  0  0
  2  5  1  0  0  0  0
  3  6  2  0  0  0  0
  5  7  1  0  0  0  0
  6  8  1  0  0  0  0
  7  9  2  0  0  0  0
  7 10  1  0  0  0  0
  8 11  1  0  0  0  0
  8 12  2  0  0  0  0
 10 13  1  0  0  0  0
 11 14  2  0  0  0  0
 11 15  1  0  0  0  0
 12 16  1  0  0  0  0
 13 17  2  0  0  0  0
 13 18  1  0  0  0  0
 14 19  1  0  0  0  0
 15 20  2  0  0  0  0
 17 21  1  0  0  0  0
 18 22  2  0  0  0  0
 19 23  2  0  0  0  0
 21 24  1  0  0  0  0
 21 25  2  0  0  0  0
 24 26  1  0  0  0  0
 26 27  1  0  0  0  0
 27 28  1  0  0  0  0
 28 29  1  0  0  0  0
 28 30  1  0  0  0  0
 29 31  1  0  0  0  0
 30 32  1  0  0  0  0
 31 33  1  0  0  0  0
  4  6  1  0  0  0  0
 14 16  1  0  0  0  0
 20 23  1  0  0  0  0
 22 25  1  0  0  0  0
 32 33  1  0  0  0  0
M  END
>  <MolRegNo>
2303267

>  <m>
=

>  <Value>
14900

>  <Unit>
nM

>  <Type>
IC50

>  <pValue>
4.83

>  <Ligand Efficiency>
0

>  <Binding Efficiency>
0

>  <Surface Efficiency>
0

>  <Assay Index>
1195540

>  <Assay Category>


>  <Assay Organism>
Homo sapiens

>  <Target ID>
17045

>  <Target Name>
Cytochrome P450 3A4

>  <Target Organism>
Homo sapiens

>  <Target Description>
Target is a single protein chain

>  <Sequence Accession>
P08684

>  <Reference>
Bioorg Med Chem Lett 28 (15), 2622-2626 (2018)

>  <Pubmed ID>
30082069

>  <DOI>
10.1016/j.bmcl.2018.06.040

$$$$
2309768
Actelion Java MolfileCreator 1.0

 34 38  0  0  0  0  0  0  0  0999 V2000
    0.0000   -0.0000   -0.0000 S   0  0  0  0  0  0  0  0  0  0  0  0
    1.4195   -0.4414   -0.0000 C   0  0  0  0  0  0  0  0  0  0  0  0
   -0.8946   -1.2167   -0.0000 C   0  0  0  0  0  0  0  0  0  0  0  0
    1.4195   -1.9324   -0.0000 N   0  0  0  0  0  0  0  0  0  0  0  0
    2.7078    0.3340   -0.0000 N   0  0  0  0  0  0  0  0  0  0  0  0
   -0.0119   -2.4215   -0.0000 C   0  0  0  0  0  0  0  0  0  0  0  0
    4.0080   -0.3936   -0.0000 C   0  0  0  0  0  0  0  0  0  0  0  0
   -0.4771   -3.8410   -0.0000 C   0  0  0  0  0  0  0  0  0  0  0  0
    4.0199   -1.8847   -0.0000 O   0  0  0  0  0  0  0  0  0  0  0  0
    5.2963    0.3817   -0.0000 C   0  0  0  0  0  0  0  0  0  0  0  0
   -1.9205   -4.3062   -0.0000 C   0  0  0  0  0  0  0  0  0  0  0  0
    0.4056   -5.0458   -0.0000 C   0  0  0  0  0  0  0  0  0  0  0  0
    6.5965   -0.3459   -0.0000 C   0  0  0  0  0  0  0  0  0  0  0  0
   -1.9205   -5.8092   -0.0000 C   0  0  0  0  0  0  0  0  0  0  0  0
   -3.2446   -3.5428   -0.0000 C   0  0  0  0  0  0  0  0  0  0  0  0
   -0.4891   -6.2625   -0.0000 N   0  0  0  0  0  0  0  0  0  0  0  0
    7.8729    0.4414   -0.0000 C   0  0  0  0  0  0  0  0  0  0  0  0
    6.5965   -1.8370   -0.0000 C   0  0  0  0  0  0  0  0  0  0  0  0
   -3.2446   -6.5607   -0.0000 N   0  0  0  0  0  0  0  0  0  0  0  0
   -4.5567   -4.2824   -0.0000 C   0  0  0  0  0  0  0  0  0  0  0  0
    9.1731   -0.2744   -0.0000 C   0  0  0  0  0  0  0  0  0  0  0  0
    7.8968   -2.5647   -0.0000 C   0  0  0  0  0  0  0  0  0  0  0  0
   -4.5567   -5.7973   -0.0000 C   0  0  0  0  0  0  0  0  0  0  0  0
   10.4495    0.5129   -0.0000 O   0  0  0  0  0  0  0  0  0  0  0  0
    9.1850   -1.7774   -0.0000 C   0  0  0  0  0  0  0  0  0  0  0  0
   11.7497   -0.2028   -0.0000 C   0  0  0  0  0  0  0  0  0  0  0  0
   13.0261    0.5845   -0.0000 C   0  0  0  0  0  0  0  0  0  0  0  0
   14.3263   -0.1312   -0.0000 N   0  0  0  0  0  0  0  0  0  0  0  0
   14.3263   -1.6342   -0.0000 C   0  0  0  0  0  0  0  0  0  0  0  0
   15.6026    0.6561   -0.0000 C   0  0  0  0  0  0  0  0  0  0  0  0
   15.6265   -2.3499   -0.0000 C   0  0  0  0  0  0  0  0  0  0  0  0
   16.9029   -0.0716   -0.0000 C   0  0  0  0  0  0  0  0  0  0  0  0
   16.9148   -1.5746   -0.0000 N   0  0  0  0  0  0  0  0  0  0  0  0
   18.2150   -2.3022   -0.0000 C   0  0  0  0  0  0  0  0  0  0  0  0
  1  2  1  0  0  0  0
  1  3  1  0  0  0  0
  2  4  2  0  0  0  0
  2  5  1  0  0  0  0
  3  6  2  0  0  0  0
  5  7  1  0  0  0  0
  6  8  1  0  0  0  0
  7  9  2  0  0  0  0
  7 10  1  0  0  0  0
  8 11  1  0  0  0  0
  8 12  2  0  0  0  0
 10 13  1  0  0  0  0
 11 14  2  0  0  0  0
 11 15  1  0  0  0  0
 12 16  1  0  0  0  0
 13 17  2  0  0  0  0
 13 18  1  0  0  0  0
 14 19  1  0  0  0  0
 15 20  2  0  0  0  0
 17 21  1  0  0  0  0
 18 22  2  0  0  0  0
 19 23  2  0  0  0  0
 21 24  1  0  0  0  0
 21 25  2  0  0  0  0
 24 26  1  0  0  0  0
 26 27  1  0  0  0  0
 27 28  1  0  0  0  0
 28 29  1  0  0  0  0
 28 30  1  0  0  0  0
 29 31  1  0  0  0  0
 30 32  1  0  0  0  0
 31 33  1  0  0  0  0
 33 34  1  0  0  0  0
  4  6  1  0  0  0  0
 14 16  1  0  0  0  0
 20 23  1  0  0  0  0
 22 25  1  0  0  0  0
 32 33  1  0  0  0  0
M  END
>  <MolRegNo>
2309768

>  <m>
=

>  <Value>
17500

>  <Unit>
nM

>  <Type>
IC50

>  <pValue>
4.76

>  <Ligand Efficiency>
0

>  <Binding Efficiency>
0

>  <Surface Efficiency>
0

>  <Assay Index>
1195540

>  <Assay Category>


>  <Assay Organism>
Homo sapiens

>  <Target ID>
17045

>  <Target Name>
Cytochrome P450 3A4

>  <Target Organism>
Homo sapiens

>  <Target Description>
Target is a single protein chain

>  <Sequence Accession>
P08684

>  <Reference>
Bioorg Med Chem Lett 28 (15), 2622-2626 (2018)

>  <Pubmed ID>
30082069

>  <DOI>
10.1016/j.bmcl.2018.06.040

$$$$
2309813
Actelion Java MolfileCreator 1.0

 34 38  0  0  0  0  0  0  0  0999 V2000
    0.0000   -0.0000   -0.0000 S   0  0  0  0  0  0  0  0  0  0  0  0
    1.4181   -0.4409   -0.0000 C   0  0  0  0  0  0  0  0  0  0  0  0
   -0.8938   -1.2155   -0.0000 C   0  0  0  0  0  0  0  0  0  0  0  0
    1.4181   -1.9305   -0.0000 N   0  0  0  0  0  0  0  0  0  0  0  0
    2.7051    0.3337   -0.0000 N   0  0  0  0  0  0  0  0  0  0  0  0
   -0.0119   -2.4191   -0.0000 C   0  0  0  0  0  0  0  0  0  0  0  0
    4.0041   -0.3933   -0.0000 C   0  0  0  0  0  0  0  0  0  0  0  0
   -0.4767   -3.8372   -0.0000 C   0  0  0  0  0  0  0  0  0  0  0  0
    4.0160   -1.8829   -0.0000 O   0  0  0  0  0  0  0  0  0  0  0  0
    5.2911    0.3813   -0.0000 C   0  0  0  0  0  0  0  0  0  0  0  0
   -1.9186   -4.3020   -0.0000 C   0  0  0  0  0  0  0  0  0  0  0  0
    0.4052   -5.0408   -0.0000 C   0  0  0  0  0  0  0  0  0  0  0  0
    6.5900   -0.3456   -0.0000 C   0  0  0  0  0  0  0  0  0  0  0  0
   -1.9186   -5.8035   -0.0000 C   0  0  0  0  0  0  0  0  0  0  0  0
   -3.2414   -3.5393   -0.0000 C   0  0  0  0  0  0  0  0  0  0  0  0
   -0.4886   -6.2563   -0.0000 N   0  0  0  0  0  0  0  0  0  0  0  0
    7.8651    0.4409   -0.0000 C   0  0  0  0  0  0  0  0  0  0  0  0
    6.5900   -1.8352   -0.0000 C   0  0  0  0  0  0  0  0  0  0  0  0
   -3.2414   -6.5543   -0.0000 N   0  0  0  0  0  0  0  0  0  0  0  0
   -4.5522   -4.2781   -0.0000 C   0  0  0  0  0  0  0  0  0  0  0  0
    9.1640   -0.2741   -0.0000 C   0  0  0  0  0  0  0  0  0  0  0  0
    7.8889   -2.5621   -0.0000 C   0  0  0  0  0  0  0  0  0  0  0  0
   -4.5522   -5.7916   -0.0000 C   0  0  0  0  0  0  0  0  0  0  0  0
   10.4391    0.5124   -0.0000 O   0  0  0  0  0  0  0  0  0  0  0  0
    9.1760   -1.7756   -0.0000 C   0  0  0  0  0  0  0  0  0  0  0  0
   11.7381   -0.2026   -0.0000 C   0  0  0  0  0  0  0  0  0  0  0  0
   13.0132    0.5839   -0.0000 C   0  0  0  0  0  0  0  0  0  0  0  0
   14.3121   -0.1311   -0.0000 C   0  0  0  0  0  0  0  0  0  0  0  0
   15.5872    0.6554   -0.0000 C   0  0  0  0  0  0  0  0  0  0  0  0
   16.8862   -0.0715   -0.0000 C   0  0  0  0  0  0  0  0  0  0  0  0
   15.5396    2.1689   -0.0000 C   0  0  0  0  0  0  0  0  0  0  0  0
   18.1613    0.7031   -0.0000 C   0  0  0  0  0  0  0  0  0  0  0  0
   16.8266    2.9554   -0.0000 C   0  0  0  0  0  0  0  0  0  0  0  0
   18.1374    2.2165   -0.0000 N   0  0  0  0  0  0  0  0  0  0  0  0
  1  2  1  0  0  0  0
  1  3  1  0  0  0  0
  2  4  2  0  0  0  0
  2  5  1  0  0  0  0
  3  6  2  0  0  0  0
  5  7  1  0  0  0  0
  6  8  1  0  0  0  0
  7  9  2  0  0  0  0
  7 10  1  0  0  0  0
  8 11  1  0  0  0  0
  8 12  2  0  0  0  0
 10 13  1  0  0  0  0
 11 14  2  0  0  0  0
 11 15  1  0  0  0  0
 12 16  1  0  0  0  0
 13 17  2  0  0  0  0
 13 18  1  0  0  0  0
 14 19  1  0  0  0  0
 15 20  2  0  0  0  0
 17 21  1  0  0  0  0
 18 22  2  0  0  0  0
 19 23  2  0  0  0  0
 21 24  1  0  0  0  0
 21 25  2  0  0  0  0
 24 26  1  0  0  0  0
 26 27  1  0  0  0  0
 27 28  1  0  0  0  0
 28 29  1  0  0  0  0
 29 30  1  0  0  0  0
 29 31  1  0  0  0  0
 30 32  1  0  0  0  0
 31 33  1  0  0  0  0
 32 34  1  0  0  0  0
  4  6  1  0  0  0  0
 14 16  1  0  0  0  0
 20 23  1  0  0  0  0
 22 25  1  0  0  0  0
 33 34  1  0  0  0  0
M  END
>  <MolRegNo>
2309813

>  <m>
=

>  <Value>
20800

>  <Unit>
nM

>  <Type>
IC50

>  <pValue>
4.68

>  <Ligand Efficiency>
0

>  <Binding Efficiency>
0

>  <Surface Efficiency>
0

>  <Assay Index>
1195540

>  <Assay Category>


>  <Assay Organism>
Homo sapiens

>  <Target ID>
17045

>  <Target Name>
Cytochrome P450 3A4

>  <Target Organism>
Homo sapiens

>  <Target Description>
Target is a single protein chain

>  <Sequence Accession>
P08684

>  <Reference>
Bioorg Med Chem Lett 28 (15), 2622-2626 (2018)

>  <Pubmed ID>
30082069

>  <DOI>
10.1016/j.bmcl.2018.06.040

$$$$
2306762
Actelion Java MolfileCreator 1.0

 34 38  0  0  0  0  0  0  0  0999 V2000
    0.0000   -0.0000   -0.0000 S   0  0  0  0  0  0  0  0  0  0  0  0
    1.4181   -0.4409   -0.0000 C   0  0  0  0  0  0  0  0  0  0  0  0
   -0.8938   -1.2155   -0.0000 C   0  0  0  0  0  0  0  0  0  0  0  0
    1.4181   -1.9305   -0.0000 N   0  0  0  0  0  0  0  0  0  0  0  0
    2.7051    0.3337   -0.0000 N   0  0  0  0  0  0  0  0  0  0  0  0
   -0.0119   -2.4191   -0.0000 C   0  0  0  0  0  0  0  0  0  0  0  0
    4.0041   -0.3933   -0.0000 C   0  0  0  0  0  0  0  0  0  0  0  0
   -0.4767   -3.8372   -0.0000 C   0  0  0  0  0  0  0  0  0  0  0  0
    4.0160   -1.8829   -0.0000 O   0  0  0  0  0  0  0  0  0  0  0  0
    5.2911    0.3813   -0.0000 C   0  0  0  0  0  0  0  0  0  0  0  0
   -1.9186   -4.3020   -0.0000 C   0  0  0  0  0  0  0  0  0  0  0  0
    0.4052   -5.0408   -0.0000 C   0  0  0  0  0  0  0  0  0  0  0  0
    6.5900   -0.3456   -0.0000 C   0  0  0  0  0  0  0  0  0  0  0  0
   -1.9186   -5.8035   -0.0000 C   0  0  0  0  0  0  0  0  0  0  0  0
   -3.2414   -3.5393   -0.0000 C   0  0  0  0  0  0  0  0  0  0  0  0
   -0.4886   -6.2563   -0.0000 N   0  0  0  0  0  0  0  0  0  0  0  0
    7.8651    0.4409   -0.0000 C   0  0  0  0  0  0  0  0  0  0  0  0
    6.5900   -1.8352   -0.0000 C   0  0  0  0  0  0  0  0  0  0  0  0
   -3.2414   -6.5543   -0.0000 N   0  0  0  0  0  0  0  0  0  0  0  0
   -4.5522   -4.2781   -0.0000 C   0  0  0  0  0  0  0  0  0  0  0  0
    9.1640   -0.2741   -0.0000 C   0  0  0  0  0  0  0  0  0  0  0  0
    7.8889   -2.5621   -0.0000 C   0  0  0  0  0  0  0  0  0  0  0  0
   -4.5522   -5.7916   -0.0000 C   0  0  0  0  0  0  0  0  0  0  0  0
   10.4391    0.5124   -0.0000 O   0  0  0  0  0  0  0  0  0  0  0  0
    9.1760   -1.7756   -0.0000 C   0  0  0  0  0  0  0  0  0  0  0  0
   11.7381   -0.2026   -0.0000 C   0  0  0  0  0  0  0  0  0  0  0  0
   13.0132    0.5839   -0.0000 C   0  0  0  0  0  0  0  0  0  0  0  0
   14.3121   -0.1311   -0.0000 C   0  0  0  0  0  0  0  0  0  0  0  0
   15.5872    0.6554   -0.0000 N   0  0  0  0  0  0  0  0  0  0  0  0
   16.8862   -0.0715   -0.0000 C   0  0  0  0  0  0  0  0  0  0  0  0
   15.5396    2.1689   -0.0000 C   0  0  0  0  0  0  0  0  0  0  0  0
   18.1613    0.7031   -0.0000 C   0  0  0  0  0  0  0  0  0  0  0  0
   16.8266    2.9554   -0.0000 C   0  0  0  0  0  0  0  0  0  0  0  0
   18.1374    2.2165   -0.0000 N   0  0  0  0  0  0  0  0  0  0  0  0
  1  2  1  0  0  0  0
  1  3  1  0  0  0  0
  2  4  2  0  0  0  0
  2  5  1  0  0  0  0
  3  6  2  0  0  0  0
  5  7  1  0  0  0  0
  6  8  1  0  0  0  0
  7  9  2  0  0  0  0
  7 10  1  0  0  0  0
  8 11  1  0  0  0  0
  8 12  2  0  0  0  0
 10 13  1  0  0  0  0
 11 14  2  0  0  0  0
 11 15  1  0  0  0  0
 12 16  1  0  0  0  0
 13 17  2  0  0  0  0
 13 18  1  0  0  0  0
 14 19  1  0  0  0  0
 15 20  2  0  0  0  0
 17 21  1  0  0  0  0
 18 22  2  0  0  0  0
 19 23  2  0  0  0  0
 21 24  1  0  0  0  0
 21 25  2  0  0  0  0
 24 26  1  0  0  0  0
 26 27  1  0  0  0  0
 27 28  1  0  0  0  0
 28 29  1  0  0  0  0
 29 30  1  0  0  0  0
 29 31  1  0  0  0  0
 30 32  1  0  0  0  0
 31 33  1  0  0  0  0
 32 34  1  0  0  0  0
  4  6  1  0  0  0  0
 14 16  1  0  0  0  0
 20 23  1  0  0  0  0
 22 25  1  0  0  0  0
 33 34  1  0  0  0  0
M  END
>  <MolRegNo>
2306762

>  <m>
=

>  <Value>
12600

>  <Unit>
nM

>  <Type>
IC50

>  <pValue>
4.9

>  <Ligand Efficiency>
0

>  <Binding Efficiency>
0

>  <Surface Efficiency>
0

>  <Assay Index>
1195540

>  <Assay Category>


>  <Assay Organism>
Homo sapiens

>  <Target ID>
17045

>  <Target Name>
Cytochrome P450 3A4

>  <Target Organism>
Homo sapiens

>  <Target Description>
Target is a single protein chain

>  <Sequence Accession>
P08684

>  <Reference>
Bioorg Med Chem Lett 28 (15), 2622-2626 (2018)

>  <Pubmed ID>
30082069

>  <DOI>
10.1016/j.bmcl.2018.06.040

$$$$
2313096
Actelion Java MolfileCreator 1.0

 35 39  0  0  0  0  0  0  0  0999 V2000
    0.0000   -0.0000   -0.0000 S   0  0  0  0  0  0  0  0  0  0  0  0
    1.4181   -0.4409   -0.0000 C   0  0  0  0  0  0  0  0  0  0  0  0
   -0.8937   -1.2155   -0.0000 C   0  0  0  0  0  0  0  0  0  0  0  0
    1.4181   -1.9305   -0.0000 N   0  0  0  0  0  0  0  0  0  0  0  0
    2.7050    0.3337   -0.0000 N   0  0  0  0  0  0  0  0  0  0  0  0
   -0.0119   -2.4190   -0.0000 C   0  0  0  0  0  0  0  0  0  0  0  0
    4.0039   -0.3932   -0.0000 C   0  0  0  0  0  0  0  0  0  0  0  0
   -0.4767   -3.8371   -0.0000 C   0  0  0  0  0  0  0  0  0  0  0  0
    4.0158   -1.8828   -0.0000 O   0  0  0  0  0  0  0  0  0  0  0  0
    5.2909    0.3813   -0.0000 C   0  0  0  0  0  0  0  0  0  0  0  0
   -1.9185   -4.3018   -0.0000 C   0  0  0  0  0  0  0  0  0  0  0  0
    0.4052   -5.0406   -0.0000 C   0  0  0  0  0  0  0  0  0  0  0  0
    6.5898   -0.3456   -0.0000 C   0  0  0  0  0  0  0  0  0  0  0  0
   -1.9185   -5.8033   -0.0000 C   0  0  0  0  0  0  0  0  0  0  0  0
   -3.2413   -3.5392   -0.0000 C   0  0  0  0  0  0  0  0  0  0  0  0
   -0.4886   -6.2561   -0.0000 N   0  0  0  0  0  0  0  0  0  0  0  0
    7.8648    0.4409   -0.0000 C   0  0  0  0  0  0  0  0  0  0  0  0
    6.5898   -1.8351   -0.0000 C   0  0  0  0  0  0  0  0  0  0  0  0
   -3.2413   -6.5540   -0.0000 N   0  0  0  0  0  0  0  0  0  0  0  0
   -4.5521   -4.2780   -0.0000 C   0  0  0  0  0  0  0  0  0  0  0  0
    9.1637   -0.2741   -0.0000 C   0  0  0  0  0  0  0  0  0  0  0  0
    7.8887   -2.5620   -0.0000 C   0  0  0  0  0  0  0  0  0  0  0  0
   -4.5521   -5.7914   -0.0000 C   0  0  0  0  0  0  0  0  0  0  0  0
   10.4388    0.5124   -0.0000 O   0  0  0  0  0  0  0  0  0  0  0  0
    9.1756   -1.7755   -0.0000 C   0  0  0  0  0  0  0  0  0  0  0  0
   11.7377   -0.2026   -0.0000 C   0  0  0  0  0  0  0  0  0  0  0  0
   13.0127    0.5839   -0.0000 C   0  0  0  0  0  0  0  0  0  0  0  0
   14.3116   -0.1311   -0.0000 C   0  0  0  0  0  0  0  0  0  0  0  0
   15.5867    0.6554   -0.0000 N   0  0  0  0  0  0  0  0  0  0  0  0
   16.8855   -0.0715   -0.0000 C   0  0  0  0  0  0  0  0  0  0  0  0
   15.5390    2.1688   -0.0000 C   0  0  0  0  0  0  0  0  0  0  0  0
   18.1606    0.7031   -0.0000 C   0  0  0  0  0  0  0  0  0  0  0  0
   16.8260    2.9553   -0.0000 C   0  0  0  0  0  0  0  0  0  0  0  0
   18.1368    2.2165   -0.0000 N   0  0  0  0  0  0  0  0  0  0  0  0
   19.4237    2.9910   -0.0000 C   0  0  0  0  0  0  0  0  0  0  0  0
  1  2  1  0  0  0  0
  1  3  1  0  0  0  0
  2  4  2  0  0  0  0
  2  5  1  0  0  0  0
  3  6  2  0  0  0  0
  5  7  1  0  0  0  0
  6  8  1  0  0  0  0
  7  9  2  0  0  0  0
  7 10  1  0  0  0  0
  8 11  1  0  0  0  0
  8 12  2  0  0  0  0
 10 13  1  0  0  0  0
 11 14  2  0  0  0  0
 11 15  1  0  0  0  0
 12 16  1  0  0  0  0
 13 17  2  0  0  0  0
 13 18  1  0  0  0  0
 14 19  1  0  0  0  0
 15 20  2  0  0  0  0
 17 21  1  0  0  0  0
 18 22  2  0  0  0  0
 19 23  2  0  0  0  0
 21 24  1  0  0  0  0
 21 25  2  0  0  0  0
 24 26  1  0  0  0  0
 26 27  1  0  0  0  0
 27 28  1  0  0  0  0
 28 29  1  0  0  0  0
 29 30  1  0  0  0  0
 29 31  1  0  0  0  0
 30 32  1  0  0  0  0
 31 33  1  0  0  0  0
 32 34  1  0  0  0  0
 34 35  1  0  0  0  0
  4  6  1  0  0  0  0
 14 16  1  0  0  0  0
 20 23  1  0  0  0  0
 22 25  1  0  0  0  0
 33 34  1  0  0  0  0
M  END
>  <MolRegNo>
2313096

>  <m>
=

>  <Value>
19600

>  <Unit>
nM

>  <Type>
IC50

>  <pValue>
4.71

>  <Ligand Efficiency>
0

>  <Binding Efficiency>
0

>  <Surface Efficiency>
0

>  <Assay Index>
1195540

>  <Assay Category>


>  <Assay Organism>
Homo sapiens

>  <Target ID>
17045

>  <Target Name>
Cytochrome P450 3A4

>  <Target Organism>
Homo sapiens

>  <Target Description>
Target is a single protein chain

>  <Sequence Accession>
P08684

>  <Reference>
Bioorg Med Chem Lett 28 (15), 2622-2626 (2018)

>  <Pubmed ID>
30082069

>  <DOI>
10.1016/j.bmcl.2018.06.040

$$$$
1214046
Actelion Java MolfileCreator 1.0

 33 37  0  0  0  0  0  0  0  0999 V2000
    0.0000   -0.0000   -0.0000 O   0  0  0  0  0  0  0  0  0  0  0  0
   -0.1367    1.5649   -0.0000 C   0  0  0  0  0  0  0  0  0  0  0  0
   -1.3066    2.2182   -0.0000 N   0  0  0  0  0  0  0  0  0  0  0  0
    1.2914    2.3094   -0.0000 C   0  0  0  0  0  0  0  0  0  0  0  0
   -2.5829    1.5497   -0.0000 C   0  0  0  0  0  0  0  0  0  0  0  0
   -1.3066    3.7224   -0.0000 C   0  0  0  0  0  0  0  0  0  0  0  0
    2.6437    1.5953   -0.0000 C   0  0  0  0  0  0  0  0  0  0  0  0
   -3.9807    2.2638   -0.0000 C   0  0  0  0  0  0  0  0  0  0  0  0
   -2.6285    4.4669   -0.0000 C   0  0  0  0  0  0  0  0  0  0  0  0
   -5.4089    2.2790   -0.0000 N   0  0  0  0  0  0  0  0  0  0  0  0
   -3.9047    3.7528   -0.0000 C   0  0  0  0  0  0  0  0  0  0  0  0
   -6.3053    1.1091   -0.0000 N   0  0  0  0  0  0  0  0  0  0  0  0
   -6.2901    3.5097   -0.0000 C   0  0  0  0  0  0  0  0  0  0  0  0
   -7.7183    1.5953   -0.0000 C   0  0  0  0  0  0  0  0  0  0  0  0
   -6.0014    4.9531   -0.0000 N   0  0  0  0  0  0  0  0  0  0  0  0
   -7.7183    3.0691   -0.0000 C   0  0  0  0  0  0  0  0  0  0  0  0
   -9.0097    0.8964   -0.0000 C   0  0  0  0  0  0  0  0  0  0  0  0
   -7.1257    5.9406   -0.0000 C   0  0  0  0  0  0  0  0  0  0  0  0
   -8.8122    4.0567   -0.0000 C   0  0  0  0  0  0  0  0  0  0  0  0
  -10.3164    1.6105   -0.0000 C   0  0  0  0  0  0  0  0  0  0  0  0
   -9.0401   -0.5774   -0.0000 C   0  0  0  0  0  0  0  0  0  0  0  0
   -8.5387    5.5000   -0.0000 N   0  0  0  0  0  0  0  0  0  0  0  0
  -10.7570    3.6008   -0.0000 N   0  0  0  0  0  0  0  0  0  0  0  0
  -11.5926    0.9116   -0.0000 C   0  0  0  0  0  0  0  0  0  0  0  0
  -10.2708   -1.2762   -0.0000 C   0  0  0  0  0  0  0  0  0  0  0  0
  -11.6078   -0.5318   -0.0000 C   0  0  0  0  0  0  0  0  0  0  0  0
  -12.9296   -1.2762   -0.0000 O   0  0  0  0  0  0  0  0  0  0  0  0
  -14.1907   -0.5014   -0.0000 C   0  0  0  0  0  0  0  0  0  0  0  0
  -15.4669   -1.2003   -0.0000 C   0  0  0  0  0  0  0  0  0  0  0  0
  -14.2211    0.9876   -0.0000 C   0  0  0  0  0  0  0  0  0  0  0  0
  -16.7888   -0.4710   -0.0000 C   0  0  0  0  0  0  0  0  0  0  0  0
  -15.5277    1.7472   -0.0000 C   0  0  0  0  0  0  0  0  0  0  0  0
  -16.8040    1.0180   -0.0000 C   0  0  0  0  0  0  0  0  0  0  0  0
  1  2  2  0  0  0  0
  2  3  1  0  0  0  0
  2  4  1  0  0  0  0
  3  5  1  0  0  0  0
  3  6  1  0  0  0  0
  4  7  2  0  0  0  0
  5  8  1  0  0  0  0
  6  9  1  0  0  0  0
  8 10  1  1  0  0  0
  8 11  1  0  0  0  0
 10 12  1  0  0  0  0
 10 13  1  0  0  0  0
 12 14  2  0  0  0  0
 13 15  2  0  0  0  0
 13 16  1  0  0  0  0
 14 17  1  0  0  0  0
 15 18  1  0  0  0  0
 16 19  2  0  0  0  0
 17 20  2  0  0  0  0
 17 21  1  0  0  0  0
 18 22  2  0  0  0  0
 19 23  1  0  0  0  0
 20 24  1  0  0  0  0
 21 25  2  0  0  0  0
 24 26  2  0  0  0  0
 26 27  1  0  0  0  0
 27 28  1  0  0  0  0
 28 29  2  0  0  0  0
 28 30  1  0  0  0  0
 29 31  1  0  0  0  0
 30 32  2  0  0  0  0
 31 33  2  0  0  0  0
  9 11  1  0  0  0  0
 14 16  1  0  0  0  0
 19 22  1  0  0  0  0
 25 26  1  0  0  0  0
 32 33  1  0  0  0  0
M  END
>  <MolRegNo>
1214046

>  <m>
=

>  <Value>
11000

>  <Unit>
nM

>  <Type>
IC50

>  <pValue>
4.96

>  <Ligand Efficiency>
0

>  <Binding Efficiency>
0

>  <Surface Efficiency>
0

>  <Assay Index>
1196501

>  <Assay Category>


>  <Assay Organism>
Homo sapiens

>  <Target ID>
17045

>  <Target Name>
Cytochrome P450 3A4

>  <Target Organism>
Homo sapiens

>  <Target Description>
Target is a single protein chain

>  <Sequence Accession>
P08684

>  <Reference>
Bioorg Med Chem Lett 28 (17), 2939-2944 (2018)

>  <Pubmed ID>
30122225

>  <DOI>
10.1016/j.bmcl.2018.07.008

$$$$
2312853
Actelion Java MolfileCreator 1.0

 37 41  0  0  1  0  0  0  0  0999 V2000
    0.0000   -0.0000   -0.0000 S   0  0  0  0  0  0  0  0  0  0  0  0
    1.2276   -0.8325   -0.0000 C   0  0  0  0  0  0  0  0  0  0  0  0
   -1.2135   -0.9031   -0.0000 C   0  0  0  0  0  0  0  0  0  0  0  0
    0.7761   -2.2718   -0.0000 C   0  0  0  0  0  0  0  0  0  0  0  0
    2.5117   -0.0706   -0.0000 C   0  0  0  0  0  0  0  0  0  0  0  0
   -0.7196   -2.3141   -0.0000 C   0  0  0  0  0  0  0  0  0  0  0  0
   -2.6669   -0.4656   -0.0000 C   0  0  0  0  0  0  0  0  0  0  0  0
    2.4835    1.4393   -0.0000 N   0  0  0  0  0  0  0  0  0  0  0  0
    3.7957   -0.8043   -0.0000 C   0  0  0  0  0  0  0  0  0  0  0  0
    1.7215    2.7516   -0.0000 C   0  0  0  0  0  0  0  0  0  0  0  0
    5.0798   -0.0423   -0.0000 C   0  0  0  0  0  0  0  0  0  0  0  0
    2.4693    4.0638   -0.0000 O   0  0  0  0  0  0  0  0  0  0  0  0
    0.2117    2.7798   -0.0000 C   0  0  0  0  0  0  0  0  0  0  0  0
    6.3638   -0.7761   -0.0000 N   0  0  0  0  0  0  0  0  0  0  0  0
   -0.5362    4.1062   -0.0000 C   0  0  0  0  0  0  0  0  0  0  0  0
   -0.5644    1.4957   -0.0000 C   0  0  0  0  0  0  0  0  0  0  0  0
    7.3798   -1.5663   -0.0000 C   0  0  0  0  0  0  0  0  0  0  0  0
    6.6037   -2.2577   -0.0000 C   0  0  0  0  0  0  0  0  0  0  0  0
   -2.0460    4.1344   -0.0000 C   0  0  0  0  0  0  0  0  0  0  0  0
   -2.0742    1.5239   -0.0000 C   0  0  0  0  0  0  0  0  0  0  0  0
    9.0872   -1.5239   -0.0000 C   0  0  0  0  0  0  0  0  0  0  0  0
    6.7731   -2.8644   -0.0000 C   0  0  0  0  0  0  0  0  0  0  0  0
    8.3817   -2.2436   -0.0000 C   0  0  0  0  0  0  0  0  0  0  0  0
    5.6301   -3.5559   -0.0000 C   0  0  0  0  0  0  0  0  0  0  0  0
   -2.8362    2.8503   -0.0000 C   0  0  0  0  0  0  0  0  0  0  0  0
    9.3271   -3.0055   -0.0000 C   0  0  0  0  0  0  0  0  0  0  0  0
   -4.1626    3.6264   -0.0000 F   0  0  0  0  0  0  0  0  0  0  0  0
   -4.1626    2.1307   -0.0000 F   0  0  0  0  0  0  0  0  0  0  0  0
   10.6111   -2.2154   -0.0000 N   0  0  0  0  0  0  0  0  0  0  0  0
   11.8387   -3.0479   -0.0000 C   0  0  0  0  0  0  0  0  0  0  0  0
   11.0203   -0.7620   -0.0000 C   0  0  0  0  0  0  0  0  0  0  0  0
   13.0099   -2.1025   -0.0000 N   0  0  0  0  0  0  0  0  0  0  0  0
   11.8811   -4.5436   -0.0000 C   0  0  0  0  0  0  0  0  0  0  0  0
   12.5019   -0.6914   -0.0000 N   0  0  0  0  0  0  0  0  0  0  0  0
   10.0890    0.4374   -0.0000 C   0  0  0  0  0  0  0  0  0  0  0  0
   10.5970   -5.3197   -0.0000 C   0  0  0  0  0  0  0  0  0  0  0  0
   13.1933   -5.2350   -0.0000 C   0  0  0  0  0  0  0  0  0  0  0  0
  1  2  1  0  0  0  0
  1  3  1  0  0  0  0
  2  4  2  0  0  0  0
  2  5  1  0  0  0  0
  3  6  2  0  0  0  0
  3  7  1  0  0  0  0
  5  8  1  1  0  0  0
  5  9  1  0  0  0  0
  8 10  1  0  0  0  0
  9 11  1  0  0  0  0
 10 12  2  0  0  0  0
 10 13  1  0  0  0  0
 11 14  1  0  0  0  0
 13 15  1  0  0  0  0
 13 16  1  0  0  0  0
 17 14  1  6  0  0  0
 18 14  1  1  0  0  0
 15 19  1  0  0  0  0
 16 20  1  0  0  0  0
 17 21  1  0  0  0  0
 17 22  1  0  0  0  0
 18 23  1  0  0  0  0
 18 24  1  0  0  0  0
 19 25  1  0  0  0  0
 21 26  1  0  0  0  0
 25 27  1  0  0  0  0
 25 28  1  0  0  0  0
 26 29  1  6  0  0  0
 29 30  1  0  0  0  0
 29 31  1  0  0  0  0
 30 32  2  0  0  0  0
 30 33  1  0  0  0  0
 31 34  2  0  0  0  0
 31 35  1  0  0  0  0
 33 36  1  0  0  0  0
 33 37  1  0  0  0  0
  4  6  1  0  0  0  0
 20 25  1  0  0  0  0
 22 24  1  0  0  0  0
 23 26  1  0  0  0  0
 32 34  1  0  0  0  0
M  END
>  <MolRegNo>
2312853

>  <m>
=

>  <Value>
10900

>  <Unit>
nM

>  <Type>
IC50

>  <pValue>
4.96

>  <Ligand Efficiency>
0

>  <Binding Efficiency>
0

>  <Surface Efficiency>
0

>  <Assay Index>
1197384

>  <Assay Category>


>  <Assay Organism>
Homo sapiens

>  <Target ID>
17045

>  <Target Name>
Cytochrome P450 3A4

>  <Target Organism>
Homo sapiens

>  <Target Description>
Target is a single protein chain

>  <Sequence Accession>
P08684

>  <Reference>
J Med Chem 61 (21), 9621-9636 (2018)

>  <Pubmed ID>
30234300

>  <DOI>
10.1021/acs.jmedchem.8b01077

$$$$
2306685
Actelion Java MolfileCreator 1.0

 34 38  0  0  1  0  0  0  0  0999 V2000
    0.0000   -0.0000   -0.0000 S   0  0  0  0  0  0  0  0  0  0  0  0
    1.2287   -0.8333   -0.0000 C   0  0  0  0  0  0  0  0  0  0  0  0
   -1.2146   -0.9039   -0.0000 C   0  0  0  0  0  0  0  0  0  0  0  0
    0.7768   -2.2738   -0.0000 C   0  0  0  0  0  0  0  0  0  0  0  0
    2.5139   -0.0706   -0.0000 C   0  0  0  0  0  0  0  0  0  0  0  0
   -0.7203   -2.3162   -0.0000 C   0  0  0  0  0  0  0  0  0  0  0  0
    2.4857    1.4406   -0.0000 N   0  0  0  0  0  0  0  0  0  0  0  0
    3.7992   -0.8050   -0.0000 C   0  0  0  0  0  0  0  0  0  0  0  0
    1.7230    2.7540   -0.0000 C   0  0  0  0  0  0  0  0  0  0  0  0
    5.0844   -0.0424   -0.0000 C   0  0  0  0  0  0  0  0  0  0  0  0
    2.4716    4.0675   -0.0000 O   0  0  0  0  0  0  0  0  0  0  0  0
    0.2118    2.7823   -0.0000 C   0  0  0  0  0  0  0  0  0  0  0  0
    6.3696   -0.7768   -0.0000 N   0  0  0  0  0  0  0  0  0  0  0  0
   -0.5649    1.4971   -0.0000 C   0  0  0  0  0  0  0  0  0  0  0  0
   -0.5367    4.1099   -0.0000 C   0  0  0  0  0  0  0  0  0  0  0  0
    7.3865   -1.5677   -0.0000 C   0  0  0  0  0  0  0  0  0  0  0  0
    6.6097   -2.2597   -0.0000 C   0  0  0  0  0  0  0  0  0  0  0  0
   -2.0902    1.5394   -0.0000 C   0  0  0  0  0  0  0  0  0  0  0  0
   -2.0479    4.1522   -0.0000 C   0  0  0  0  0  0  0  0  0  0  0  0
    9.0954   -1.5253   -0.0000 C   0  0  0  0  0  0  0  0  0  0  0  0
    6.7792   -2.8670   -0.0000 C   0  0  0  0  0  0  0  0  0  0  0  0
    8.3892   -2.2456   -0.0000 C   0  0  0  0  0  0  0  0  0  0  0  0
    5.6352   -3.5591   -0.0000 C   0  0  0  0  0  0  0  0  0  0  0  0
   -2.8388    2.8670   -0.0000 C   0  0  0  0  0  0  0  0  0  0  0  0
    9.3355   -3.0083   -0.0000 C   0  0  0  0  0  0  0  0  0  0  0  0
   10.6207   -2.2173   -0.0000 N   0  0  0  0  0  0  0  0  0  0  0  0
   11.8494   -3.0506   -0.0000 C   0  0  0  0  0  0  0  0  0  0  0  0
   11.0303   -0.7627   -0.0000 C   0  0  0  0  0  0  0  0  0  0  0  0
   13.0216   -2.1185   -0.0000 N   0  0  0  0  0  0  0  0  0  0  0  0
   11.8918   -4.5477   -0.0000 C   0  0  0  0  0  0  0  0  0  0  0  0
   12.5132   -0.6920   -0.0000 N   0  0  0  0  0  0  0  0  0  0  0  0
   10.0981    0.4378   -0.0000 C   0  0  0  0  0  0  0  0  0  0  0  0
   10.6066   -5.3245   -0.0000 C   0  0  0  0  0  0  0  0  0  0  0  0
   13.2052   -5.2397   -0.0000 C   0  0  0  0  0  0  0  0  0  0  0  0
  1  2  1  0  0  0  0
  1  3  1  0  0  0  0
  2  4  2  0  0  0  0
  2  5  1  0  0  0  0
  3  6  2  0  0  0  0
  5  7  1  1  0  0  0
  5  8  1  0  0  0  0
  7  9  1  0  0  0  0
  8 10  1  0  0  0  0
  9 11  2  0  0  0  0
  9 12  1  0  0  0  0
 10 13  1  0  0  0  0
 12 14  1  0  0  0  0
 12 15  1  0  0  0  0
 16 13  1  6  0  0  0
 17 13  1  1  0  0  0
 14 18  1  0  0  0  0
 15 19  1  0  0  0  0
 16 20  1  0  0  0  0
 16 21  1  0  0  0  0
 17 22  1  0  0  0  0
 17 23  1  0  0  0  0
 18 24  1  0  0  0  0
 20 25  1  0  0  0  0
 25 26  1  6  0  0  0
 26 27  1  0  0  0  0
 26 28  1  0  0  0  0
 27 29  2  0  0  0  0
 27 30  1  0  0  0  0
 28 31  2  0  0  0  0
 28 32  1  0  0  0  0
 30 33  1  0  0  0  0
 30 34  1  0  0  0  0
  4  6  1  0  0  0  0
 19 24  1  0  0  0  0
 21 23  1  0  0  0  0
 22 25  1  0  0  0  0
 29 31  1  0  0  0  0
M  END
>  <MolRegNo>
2306685

>  <m>
=

>  <Value>
12300

>  <Unit>
nM

>  <Type>
IC50

>  <pValue>
4.91

>  <Ligand Efficiency>
0

>  <Binding Efficiency>
0

>  <Surface Efficiency>
0

>  <Assay Index>
1197384

>  <Assay Category>


>  <Assay Organism>
Homo sapiens

>  <Target ID>
17045

>  <Target Name>
Cytochrome P450 3A4

>  <Target Organism>
Homo sapiens

>  <Target Description>
Target is a single protein chain

>  <Sequence Accession>
P08684

>  <Reference>
J Med Chem 61 (21), 9621-9636 (2018)

>  <Pubmed ID>
30234300

>  <DOI>
10.1021/acs.jmedchem.8b01077

$$$$
2320437
Actelion Java MolfileCreator 1.0

 36 41  0  0  0  0  0  0  0  0999 V2000
    0.0000   -0.0000   -0.0000 F   0  0  0  0  0  0  0  0  0  0  0  0
    0.0000   -1.4971   -0.0000 C   0  0  0  0  0  0  0  0  0  0  0  0
    1.2951   -0.7366   -0.0000 F   0  0  0  0  0  0  0  0  0  0  0  0
   -1.3070   -0.7248   -0.0000 F   0  0  0  0  0  0  0  0  0  0  0  0
   -0.0238   -2.9822   -0.0000 C   0  0  0  0  0  0  0  0  0  0  0  0
   -1.3426   -3.7189   -0.0000 C   0  0  0  0  0  0  0  0  0  0  0  0
    1.2713   -3.7308   -0.0000 C   0  0  0  0  0  0  0  0  0  0  0  0
   -1.3664   -5.2041   -0.0000 C   0  0  0  0  0  0  0  0  0  0  0  0
    1.2476   -5.2278   -0.0000 C   0  0  0  0  0  0  0  0  0  0  0  0
   -0.0832   -5.9526   -0.0000 C   0  0  0  0  0  0  0  0  0  0  0  0
   -2.6733   -5.9526   -0.0000 C   0  0  0  0  0  0  0  0  0  0  0  0
   -0.1069   -7.4378   -0.0000 O   0  0  0  0  0  0  0  0  0  0  0  0
   -2.6971   -7.4378   -0.0000 C   0  0  0  0  0  0  0  0  0  0  0  0
   -3.9922   -6.6774   -0.0000 C   0  0  0  0  0  0  0  0  0  0  0  0
   -3.9803   -5.1803   -0.0000 C   0  0  0  0  0  0  0  0  0  0  0  0
   -1.4258   -8.1625   -0.0000 C   0  0  0  0  0  0  0  0  0  0  0  0
   -5.2991   -5.9170   -0.0000 N   0  0  0  0  0  0  0  0  0  0  0  0
   -0.6891   -9.4457   -0.0000 C   0  0  0  0  0  0  0  0  0  0  0  0
   -2.1862   -9.4457   -0.0000 C   0  0  0  0  0  0  0  0  0  0  0  0
   -6.6061   -5.1447   -0.0000 C   0  0  0  0  0  0  0  0  0  0  0  0
   -5.3229   -7.4021   -0.0000 C   0  0  0  0  0  0  0  0  0  0  0  0
   -6.6180   -3.6357   -0.0000 O   0  0  0  0  0  0  0  0  0  0  0  0
   -7.9130   -5.8813   -0.0000 C   0  0  0  0  0  0  0  0  0  0  0  0
   -6.6417   -8.1269   -0.0000 C   0  0  0  0  0  0  0  0  0  0  0  0
   -7.9368   -7.3665   -0.0000 N   0  0  0  0  0  0  0  0  0  0  0  0
   -9.2200   -5.1090   -0.0000 C   0  0  0  0  0  0  0  0  0  0  0  0
   -9.2438   -8.1031   -0.0000 C   0  0  0  0  0  0  0  0  0  0  0  0
  -10.5270   -5.8575   -0.0000 C   0  0  0  0  0  0  0  0  0  0  0  0
   -9.2556   -9.5883   -0.0000 O   0  0  0  0  0  0  0  0  0  0  0  0
  -10.5507   -7.3427   -0.0000 C   0  0  0  0  0  0  0  0  0  0  0  0
  -11.7983   -8.1863   -0.0000 N   0  0  0  0  0  0  0  0  0  0  0  0
  -13.0339   -7.2952   -0.0000 C   0  0  0  0  0  0  0  0  0  0  0  0
  -12.2616   -9.6002   -0.0000 C   0  0  0  0  0  0  0  0  0  0  0  0
  -14.2577   -8.1744   -0.0000 N   0  0  0  0  0  0  0  0  0  0  0  0
  -13.7706   -9.6002   -0.0000 C   0  0  0  0  0  0  0  0  0  0  0  0
  -14.6617  -10.8121   -0.0000 C   0  0  0  0  0  0  0  0  0  0  0  0
  1  2  1  0  0  0  0
  2  3  1  0  0  0  0
  2  4  1  0  0  0  0
  2  5  1  0  0  0  0
  5  6  2  0  0  0  0
  5  7  1  0  0  0  0
  6  8  1  0  0  0  0
  7  9  2  0  0  0  0
  8 10  2  0  0  0  0
  8 11  1  0  0  0  0
 10 12  1  0  0  0  0
 11 13  1  0  0  0  0
 11 14  1  6  0  0  0
 11 15  1  0  0  0  0
 12 16  1  0  0  0  0
 15 17  1  0  0  0  0
 16 18  1  0  0  0  0
 16 19  1  0  0  0  0
 17 20  1  0  0  0  0
 17 21  1  0  0  0  0
 20 22  2  0  0  0  0
 20 23  1  0  0  0  0
 21 24  1  0  0  0  0
 23 25  1  0  0  0  0
 23 26  2  0  0  0  0
 25 27  1  0  0  0  0
 26 28  1  0  0  0  0
 27 29  2  0  0  0  0
 27 30  1  0  0  0  0
 30 31  1  0  0  0  0
 31 32  1  0  0  0  0
 31 33  1  0  0  0  0
 32 34  2  0  0  0  0
 33 35  2  0  0  0  0
 35 36  1  0  0  0  0
  9 10  1  0  0  0  0
 13 14  1  6  0  0  0
 13 16  1  0  0  0  0
 24 25  1  0  0  0  0
 28 30  2  0  0  0  0
 34 35  1  0  0  0  0
M  END
>  <MolRegNo>
2320437

>  <m>
=

>  <Value>
16300

>  <Unit>
nM

>  <Type>
IC50

>  <pValue>
4.79

>  <Ligand Efficiency>
0

>  <Binding Efficiency>
0

>  <Surface Efficiency>
0

>  <Assay Index>
1197494

>  <Assay Category>


>  <Assay Organism>
Homo sapiens

>  <Target ID>
17045

>  <Target Name>
Cytochrome P450 3A4

>  <Target Organism>
Homo sapiens

>  <Target Description>
Target is a single protein chain

>  <Sequence Accession>
P08684

>  <Reference>
Medchemcomm 8 (4), 730-743 (2017)

>  <Pubmed ID>
30108792

>  <DOI>
10.1039/C6MD00406G

$$$$
2258687
Actelion Java MolfileCreator 1.0

 33 37  0  0  0  0  0  0  0  0999 V2000
    0.0000   -0.0000   -0.0000 S   0  0  0  0  0  0  0  0  0  0  0  0
   -0.7772    1.3273   -0.0000 O   0  0  0  0  0  0  0  0  0  0  0  0
    0.7414    1.3273   -0.0000 O   0  0  0  0  0  0  0  0  0  0  0  0
    1.2914   -0.7533   -0.0000 N   0  0  0  0  0  0  0  0  0  0  0  0
   -1.3273   -0.7294   -0.0000 C   0  0  0  0  0  0  0  0  0  0  0  0
    2.5948    0.0120   -0.0000 C   0  0  0  0  0  0  0  0  0  0  0  0
    1.2795   -2.2480   -0.0000 C   0  0  0  0  0  0  0  0  0  0  0  0
   -2.1045   -2.0208   -0.0000 C   0  0  0  0  0  0  0  0  0  0  0  0
   -2.8459   -0.7055   -0.0000 C   0  0  0  0  0  0  0  0  0  0  0  0
    3.8862   -0.7294   -0.0000 C   0  0  0  0  0  0  0  0  0  0  0  0
    2.5709   -3.0014   -0.0000 C   0  0  0  0  0  0  0  0  0  0  0  0
    3.8743   -2.2241   -0.0000 N   0  0  0  0  0  0  0  0  0  0  0  0
    5.1657   -2.9655   -0.0000 C   0  0  0  0  0  0  0  0  0  0  0  0
    6.4571   -2.2002   -0.0000 C   0  0  0  0  0  0  0  0  0  0  0  0
    5.1537   -4.4721   -0.0000 C   0  0  0  0  0  0  0  0  0  0  0  0
    7.7485   -2.9416   -0.0000 C   0  0  0  0  0  0  0  0  0  0  0  0
    6.4451   -5.2015   -0.0000 C   0  0  0  0  0  0  0  0  0  0  0  0
    7.7246   -4.4363   -0.0000 C   0  0  0  0  0  0  0  0  0  0  0  0
    9.0160   -5.1776   -0.0000 C   0  0  0  0  0  0  0  0  0  0  0  0
   10.3074   -4.4123   -0.0000 C   0  0  0  0  0  0  0  0  0  0  0  0
   11.5988   -5.1537   -0.0000 C   0  0  0  0  0  0  0  0  0  0  0  0
   12.8903   -4.3884   -0.0000 C   0  0  0  0  0  0  0  0  0  0  0  0
   11.5869   -6.6484   -0.0000 C   0  0  0  0  0  0  0  0  0  0  0  0
   14.1817   -5.1298   -0.0000 C   0  0  0  0  0  0  0  0  0  0  0  0
   12.8783   -7.3898   -0.0000 C   0  0  0  0  0  0  0  0  0  0  0  0
   15.4731   -4.3645   -0.0000 F   0  0  0  0  0  0  0  0  0  0  0  0
   14.1697   -6.6365   -0.0000 C   0  0  0  0  0  0  0  0  0  0  0  0
   12.8663   -8.8845   -0.0000 C   0  0  0  0  0  0  0  0  0  0  0  0
   11.5510   -9.6258   -0.0000 C   0  0  0  0  0  0  0  0  0  0  0  0
   14.1578   -9.6139   -0.0000 C   0  0  0  0  0  0  0  0  0  0  0  0
   11.5391  -11.1205   -0.0000 C   0  0  0  0  0  0  0  0  0  0  0  0
   14.1458  -11.1086   -0.0000 C   0  0  0  0  0  0  0  0  0  0  0  0
   12.8305  -11.8619   -0.0000 N   0  0  0  0  0  0  0  0  0  0  0  0
  1  2  2  0  0  0  0
  1  3  2  0  0  0  0
  1  4  1  0  0  0  0
  1  5  1  0  0  0  0
  4  6  1  0  0  0  0
  4  7  1  0  0  0  0
  5  8  1  0  0  0  0
  5  9  1  0  0  0  0
  6 10  1  0  0  0  0
  7 11  1  0  0  0  0
 10 12  1  0  0  0  0
 12 13  1  0  0  0  0
 13 14  2  0  0  0  0
 13 15  1  0  0  0  0
 14 16  1  0  0  0  0
 15 17  2  0  0  0  0
 16 18  2  0  0  0  0
 18 19  1  0  0  0  0
 19 20  2  0  0  0  0
 20 21  1  0  0  0  0
 21 22  2  0  0  0  0
 21 23  1  0  0  0  0
 22 24  1  0  0  0  0
 23 25  2  0  0  0  0
 24 26  1  0  0  0  0
 24 27  2  0  0  0  0
 25 28  1  0  0  0  0
 28 29  2  0  0  0  0
 28 30  1  0  0  0  0
 29 31  1  0  0  0  0
 30 32  2  0  0  0  0
 31 33  2  0  0  0  0
  8  9  1  0  0  0  0
 11 12  1  0  0  0  0
 17 18  1  0  0  0  0
 25 27  1  0  0  0  0
 32 33  1  0  0  0  0
M  END
>  <MolRegNo>
2258687

>  <m>
=

>  <Value>
636

>  <Unit>
nM

>  <Type>
IC50

>  <pValue>
6.2

>  <Ligand Efficiency>
0

>  <Binding Efficiency>
0

>  <Surface Efficiency>
0

>  <Assay Index>
1202826

>  <Assay Category>


>  <Assay Organism>
Homo sapiens

>  <Target ID>
17045

>  <Target Name>
Cytochrome P450 3A4

>  <Target Organism>
Homo sapiens

>  <Target Description>
Target is a single protein chain

>  <Sequence Accession>
P08684

>  <Reference>


>  <Pubmed ID>


>  <DOI>


$$$$
2327704
Actelion Java MolfileCreator 1.0

 41 45  0  0  0  0  0  0  0  0999 V2000
    0.0000   -0.0000   -0.0000 Cl  0  0  0  0  0  0  0  0  0  0  0  0
    1.2944   -0.7311   -0.0000 C   0  0  0  0  0  0  0  0  0  0  0  0
    2.5887    0.0479   -0.0000 C   0  0  0  0  0  0  0  0  0  0  0  0
    1.2944   -2.2292   -0.0000 C   0  0  0  0  0  0  0  0  0  0  0  0
    3.8831   -0.6951   -0.0000 C   0  0  0  0  0  0  0  0  0  0  0  0
    2.5887   -2.9602   -0.0000 C   0  0  0  0  0  0  0  0  0  0  0  0
    3.8711   -2.1932   -0.0000 C   0  0  0  0  0  0  0  0  0  0  0  0
    5.1774    0.0719   -0.0000 C   0  0  0  0  0  0  0  0  0  0  0  0
    2.5767   -4.4583   -0.0000 C   0  0  0  0  0  0  0  0  0  0  0  0
    6.4718   -0.6711   -0.0000 C   0  0  0  0  0  0  0  0  0  0  0  0
    3.8711   -5.2014   -0.0000 N   0  0  0  0  0  0  0  0  0  0  0  0
    7.7661    0.0959   -0.0000 C   0  0  0  0  0  0  0  0  0  0  0  0
    5.2373   -4.5662   -0.0000 C   0  0  0  0  0  0  0  0  0  0  0  0
    4.0269   -6.6875   -0.0000 C   0  0  0  0  0  0  0  0  0  0  0  0
    9.0605   -0.6472   -0.0000 C   0  0  0  0  0  0  0  0  0  0  0  0
    7.7421    1.6060   -0.0000 C   0  0  0  0  0  0  0  0  0  0  0  0
    6.2321   -5.6688   -0.0000 N   0  0  0  0  0  0  0  0  0  0  0  0
    5.4890   -6.9871   -0.0000 C   0  0  0  0  0  0  0  0  0  0  0  0
   10.3548    0.1198   -0.0000 C   0  0  0  0  0  0  0  0  0  0  0  0
    9.0245    2.3730   -0.0000 C   0  0  0  0  0  0  0  0  0  0  0  0
   10.3428    1.6419   -0.0000 C   0  0  0  0  0  0  0  0  0  0  0  0
   11.6372    2.4089   -0.0000 N   0  0  0  0  0  0  0  0  0  0  0  0
   12.9315    1.6659   -0.0000 C   0  0  0  0  0  0  0  0  0  0  0  0
   11.6132    3.9190   -0.0000 C   0  0  0  0  0  0  0  0  0  0  0  0
   14.2139    2.4329   -0.0000 C   0  0  0  0  0  0  0  0  0  0  0  0
   12.9076    4.6860   -0.0000 C   0  0  0  0  0  0  0  0  0  0  0  0
   14.2019    3.9550   -0.0000 N   0  0  0  0  0  0  0  0  0  0  0  0
   15.4963    4.7220   -0.0000 S   0  0  0  0  0  0  0  0  0  0  0  0
   14.7172    6.0403   -0.0000 O   0  0  0  0  0  0  0  0  0  0  0  0
   16.2393    6.0523   -0.0000 O   0  0  0  0  0  0  0  0  0  0  0  0
   16.7906    3.9789   -0.0000 C   0  0  0  0  0  0  0  0  0  0  0  0
   18.0730    4.7460   -0.0000 C   0  0  0  0  0  0  0  0  0  0  0  0
   16.7786    2.4808   -0.0000 C   0  0  0  0  0  0  0  0  0  0  0  0
   19.3673    4.0029   -0.0000 C   0  0  0  0  0  0  0  0  0  0  0  0
   18.0730    1.7378   -0.0000 C   0  0  0  0  0  0  0  0  0  0  0  0
   20.6617    4.7699   -0.0000 O   0  0  0  0  0  0  0  0  0  0  0  0
   19.3553    2.4928   -0.0000 C   0  0  0  0  0  0  0  0  0  0  0  0
   21.9560    4.0389   -0.0000 C   0  0  0  0  0  0  0  0  0  0  0  0
   23.2504    4.8059   -0.0000 F   0  0  0  0  0  0  0  0  0  0  0  0
   21.9560    2.5408   -0.0000 F   0  0  0  0  0  0  0  0  0  0  0  0
   23.2384    3.2958   -0.0000 F   0  0  0  0  0  0  0  0  0  0  0  0
  1  2  1  0  0  0  0
  2  3  2  0  0  0  0
  2  4  1  0  0  0  0
  3  5  1  0  0  0  0
  4  6  2  0  0  0  0
  5  7  2  0  0  0  0
  5  8  1  0  0  0  0
  6  9  1  0  0  0  0
  8 10  2  0  0  0  0
  9 11  1  0  0  0  0
 10 12  1  0  0  0  0
 11 13  1  0  0  0  0
 11 14  1  0  0  0  0
 12 15  2  0  0  0  0
 12 16  1  0  0  0  0
 13 17  2  0  0  0  0
 14 18  2  0  0  0  0
 15 19  1  0  0  0  0
 16 20  2  0  0  0  0
 19 21  2  0  0  0  0
 21 22  1  0  0  0  0
 22 23  1  0  0  0  0
 22 24  1  0  0  0  0
 23 25  1  0  0  0  0
 24 26  1  0  0  0  0
 25 27  1  0  0  0  0
 27 28  1  0  0  0  0
 28 29  2  0  0  0  0
 28 30  2  0  0  0  0
 28 31  1  0  0  0  0
 31 32  2  0  0  0  0
 31 33  1  0  0  0  0
 32 34  1  0  0  0  0
 33 35  2  0  0  0  0
 34 36  1  0  0  0  0
 34 37  2  0  0  0  0
 36 38  1  0  0  0  0
 38 39  1  0  0  0  0
 38 40  1  0  0  0  0
 38 41  1  0  0  0  0
  6  7  1  0  0  0  0
 17 18  1  0  0  0  0
 20 21  1  0  0  0  0
 26 27  1  0  0  0  0
 35 37  1  0  0  0  0
M  END
>  <MolRegNo>
2327704

>  <m>
=

>  <Value>
873

>  <Unit>
nM

>  <Type>
IC50

>  <pValue>
6.06

>  <Ligand Efficiency>
0

>  <Binding Efficiency>
0

>  <Surface Efficiency>
0

>  <Assay Index>
1202826

>  <Assay Category>


>  <Assay Organism>
Homo sapiens

>  <Target ID>
17045

>  <Target Name>
Cytochrome P450 3A4

>  <Target Organism>
Homo sapiens

>  <Target Description>
Target is a single protein chain

>  <Sequence Accession>
P08684

>  <Reference>


>  <Pubmed ID>


>  <DOI>


$$$$
2330450
Actelion Java MolfileCreator 1.0

 36 39  0  0  0  0  0  0  0  0999 V2000
    0.0000   -0.0000   -0.0000 Cl  0  0  0  0  0  0  0  0  0  0  0  0
    1.2959   -0.7252   -0.0000 C   0  0  0  0  0  0  0  0  0  0  0  0
    2.5918    0.0476   -0.0000 C   0  0  0  0  0  0  0  0  0  0  0  0
    1.2959   -2.2233   -0.0000 C   0  0  0  0  0  0  0  0  0  0  0  0
    3.8878   -0.6896   -0.0000 C   0  0  0  0  0  0  0  0  0  0  0  0
    2.5918   -2.9604   -0.0000 C   0  0  0  0  0  0  0  0  0  0  0  0
    3.8759   -2.1876   -0.0000 C   0  0  0  0  0  0  0  0  0  0  0  0
    5.1718    0.0713   -0.0000 C   0  0  0  0  0  0  0  0  0  0  0  0
    2.5800   -4.4584   -0.0000 C   0  0  0  0  0  0  0  0  0  0  0  0
    6.4677   -0.6658   -0.0000 C   0  0  0  0  0  0  0  0  0  0  0  0
    3.8759   -5.1956   -0.0000 N   0  0  0  0  0  0  0  0  0  0  0  0
    7.7636    0.0951   -0.0000 C   0  0  0  0  0  0  0  0  0  0  0  0
    5.2431   -4.5654   -0.0000 C   0  0  0  0  0  0  0  0  0  0  0  0
    4.0304   -6.6817   -0.0000 C   0  0  0  0  0  0  0  0  0  0  0  0
    9.0596   -0.6539   -0.0000 C   0  0  0  0  0  0  0  0  0  0  0  0
    7.7399    1.6050   -0.0000 C   0  0  0  0  0  0  0  0  0  0  0  0
    6.2418   -5.6711   -0.0000 N   0  0  0  0  0  0  0  0  0  0  0  0
    5.4928   -6.9789   -0.0000 C   0  0  0  0  0  0  0  0  0  0  0  0
   10.3555    0.1070   -0.0000 C   0  0  0  0  0  0  0  0  0  0  0  0
    9.0239    2.3778   -0.0000 C   0  0  0  0  0  0  0  0  0  0  0  0
   10.3436    1.6288   -0.0000 C   0  0  0  0  0  0  0  0  0  0  0  0
   11.6395    2.4016   -0.0000 N   0  0  0  0  0  0  0  0  0  0  0  0
   12.9354    1.6526   -0.0000 C   0  0  0  0  0  0  0  0  0  0  0  0
   11.6157    3.9115   -0.0000 C   0  0  0  0  0  0  0  0  0  0  0  0
   14.2195    2.4254   -0.0000 C   0  0  0  0  0  0  0  0  0  0  0  0
   12.9116    4.6724   -0.0000 C   0  0  0  0  0  0  0  0  0  0  0  0
   14.2076    3.9472   -0.0000 N   0  0  0  0  0  0  0  0  0  0  0  0
   15.4916    4.7081   -0.0000 C   0  0  0  0  0  0  0  0  0  0  0  0
   15.4797    6.2299   -0.0000 O   0  0  0  0  0  0  0  0  0  0  0  0
   16.7875    3.9710   -0.0000 N   0  0  0  0  0  0  0  0  0  0  0  0
   18.0834    4.7319   -0.0000 C   0  0  0  0  0  0  0  0  0  0  0  0
   19.3794    3.9948   -0.0000 C   0  0  0  0  0  0  0  0  0  0  0  0
   19.3675    2.4967   -0.0000 O   0  0  0  0  0  0  0  0  0  0  0  0
   20.6753    4.7557   -0.0000 O   0  0  0  0  0  0  0  0  0  0  0  0
   21.9712    4.0185   -0.0000 C   0  0  0  0  0  0  0  0  0  0  0  0
   23.2671    4.7794   -0.0000 C   0  0  0  0  0  0  0  0  0  0  0  0
  1  2  1  0  0  0  0
  2  3  2  0  0  0  0
  2  4  1  0  0  0  0
  3  5  1  0  0  0  0
  4  6  2  0  0  0  0
  5  7  2  0  0  0  0
  5  8  1  0  0  0  0
  6  9  1  0  0  0  0
  8 10  2  0  0  0  0
  9 11  1  0  0  0  0
 10 12  1  0  0  0  0
 11 13  1  0  0  0  0
 11 14  1  0  0  0  0
 12 15  2  0  0  0  0
 12 16  1  0  0  0  0
 13 17  2  0  0  0  0
 14 18  2  0  0  0  0
 15 19  1  0  0  0  0
 16 20  2  0  0  0  0
 19 21  2  0  0  0  0
 21 22  1  0  0  0  0
 22 23  1  0  0  0  0
 22 24  1  0  0  0  0
 23 25  1  0  0  0  0
 24 26  1  0  0  0  0
 25 27  1  0  0  0  0
 27 28  1  0  0  0  0
 28 29  2  0  0  0  0
 28 30  1  0  0  0  0
 30 31  1  0  0  0  0
 31 32  1  0  0  0  0
 32 33  2  0  0  0  0
 32 34  1  0  0  0  0
 34 35  1  0  0  0  0
 35 36  1  0  0  0  0
  6  7  1  0  0  0  0
 17 18  1  0  0  0  0
 20 21  1  0  0  0  0
 26 27  1  0  0  0  0
M  END
>  <MolRegNo>
2330450

>  <m>
=

>  <Value>
1670

>  <Unit>
nM

>  <Type>
IC50

>  <pValue>
5.78

>  <Ligand Efficiency>
0

>  <Binding Efficiency>
0

>  <Surface Efficiency>
0

>  <Assay Index>
1202826

>  <Assay Category>


>  <Assay Organism>
Homo sapiens

>  <Target ID>
17045

>  <Target Name>
Cytochrome P450 3A4

>  <Target Organism>
Homo sapiens

>  <Target Description>
Target is a single protein chain

>  <Sequence Accession>
P08684

>  <Reference>


>  <Pubmed ID>


>  <DOI>


$$$$
2329378
Actelion Java MolfileCreator 1.0

 37 41  0  0  1  0  0  0  0  0999 V2000
    0.0000   -0.0000   -0.0000 Cl  0  0  0  0  0  0  0  0  0  0  0  0
   -0.0119   -1.4914   -0.0000 C   0  0  0  0  0  0  0  0  0  0  0  0
    1.2766   -2.2311   -0.0000 C   0  0  0  0  0  0  0  0  0  0  0  0
   -1.3243   -2.2311   -0.0000 C   0  0  0  0  0  0  0  0  0  0  0  0
    1.2647   -3.7343   -0.0000 C   0  0  0  0  0  0  0  0  0  0  0  0
    2.5651   -1.4556   -0.0000 C   0  0  0  0  0  0  0  0  0  0  0  0
   -1.3363   -3.7343   -0.0000 C   0  0  0  0  0  0  0  0  0  0  0  0
   -0.0597   -4.4741   -0.0000 C   0  0  0  0  0  0  0  0  0  0  0  0
    3.8537   -2.1953   -0.0000 O   0  0  0  0  0  0  0  0  0  0  0  0
    2.5413    0.0597   -0.0000 O   0  0  0  0  0  0  0  0  0  0  0  0
    2.5413   -2.9469   -0.0000 C   0  0  0  0  0  0  0  0  0  0  0  0
   -2.6486   -4.4741   -0.0000 Cl  0  0  0  0  0  0  0  0  0  0  0  0
    5.1422   -1.4317   -0.0000 C   0  0  0  0  0  0  0  0  0  0  0  0
    3.8417    0.8232   -0.0000 C   0  0  0  0  0  0  0  0  0  0  0  0
    3.8298   -3.6986   -0.0000 N   0  0  0  0  0  0  0  0  0  0  0  0
    5.1303    0.0835   -0.0000 C   0  0  0  0  0  0  0  0  0  0  0  0
    3.9610   -5.1780   -0.0000 C   0  0  0  0  0  0  0  0  0  0  0  0
    5.2018   -3.0662   -0.0000 C   0  0  0  0  0  0  0  0  0  0  0  0
    6.4188    0.8471   -0.0000 O   0  0  0  0  0  0  0  0  0  0  0  0
    5.4166   -5.4882   -0.0000 N   0  0  0  0  0  0  0  0  0  0  0  0
    6.1802   -4.1758   -0.0000 C   0  0  0  0  0  0  0  0  0  0  0  0
    6.4069    2.3623   -0.0000 C   0  0  0  0  0  0  0  0  0  0  0  0
    7.6954    3.1259   -0.0000 C   0  0  0  0  0  0  0  0  0  0  0  0
    8.9839    2.3742   -0.0000 C   0  0  0  0  0  0  0  0  0  0  0  0
    7.6715    4.6292   -0.0000 C   0  0  0  0  0  0  0  0  0  0  0  0
   10.2724    3.1378   -0.0000 C   0  0  0  0  0  0  0  0  0  0  0  0
    8.9601    5.3927   -0.0000 C   0  0  0  0  0  0  0  0  0  0  0  0
   10.2605    4.6530   -0.0000 C   0  0  0  0  0  0  0  0  0  0  0  0
   11.5490    5.4166   -0.0000 N   0  0  0  0  0  0  0  0  0  0  0  0
   12.8376    4.6769   -0.0000 C   0  0  0  0  0  0  0  0  0  0  0  0
   11.5252    6.9318   -0.0000 C   0  0  0  0  0  0  0  0  0  0  0  0
   14.1261    5.4285   -0.0000 C   0  0  0  0  0  0  0  0  0  0  0  0
   12.8256    7.6954   -0.0000 C   0  0  0  0  0  0  0  0  0  0  0  0
   14.1261    6.9437   -0.0000 N   0  0  0  0  0  0  0  0  0  0  0  0
   15.4146    7.7073   -0.0000 C   0  0  0  0  0  0  0  0  0  0  0  0
   15.4027    9.2225   -0.0000 O   0  0  0  0  0  0  0  0  0  0  0  0
   16.7032    6.9557   -0.0000 C   0  0  0  0  0  0  0  0  0  0  0  0
  1  2  1  0  0  0  0
  2  3  2  0  0  0  0
  2  4  1  0  0  0  0
  3  5  1  0  0  0  0
  3  6  1  0  0  0  0
  4  7  2  0  0  0  0
  5  8  2  0  0  0  0
  6  9  1  0  0  0  0
  6 10  1  0  0  0  0
  6 11  1  1  0  0  0
  7 12  1  0  0  0  0
  9 13  1  0  0  0  0
 10 14  1  0  0  0  0
 11 15  1  0  0  0  0
 13 16  1  0  0  0  0
 15 17  1  0  0  0  0
 15 18  1  0  0  0  0
 16 19  1  1  0  0  0
 17 20  2  0  0  0  0
 18 21  2  0  0  0  0
 19 22  1  0  0  0  0
 22 23  1  0  0  0  0
 23 24  2  0  0  0  0
 23 25  1  0  0  0  0
 24 26  1  0  0  0  0
 25 27  2  0  0  0  0
 26 28  2  0  0  0  0
 28 29  1  0  0  0  0
 29 30  1  0  0  0  0
 29 31  1  0  0  0  0
 30 32  1  0  0  0  0
 31 33  1  0  0  0  0
 32 34  1  0  0  0  0
 34 35  1  0  0  0  0
 35 36  2  0  0  0  0
 35 37  1  0  0  0  0
  7  8  1  0  0  0  0
 14 16  1  0  0  0  0
 20 21  1  0  0  0  0
 27 28  1  0  0  0  0
 33 34  1  0  0  0  0
M  END
>  <MolRegNo>
2329378

>  <m>
=

>  <Value>
109

>  <Unit>
nM

>  <Type>
IC50

>  <pValue>
6.96

>  <Ligand Efficiency>
0

>  <Binding Efficiency>
0

>  <Surface Efficiency>
0

>  <Assay Index>
1202840

>  <Assay Category>


>  <Assay Organism>
Homo sapiens

>  <Target ID>
17045

>  <Target Name>
Cytochrome P450 3A4

>  <Target Organism>
Homo sapiens

>  <Target Description>
Target is a single protein chain

>  <Sequence Accession>
P08684

>  <Reference>


>  <Pubmed ID>


>  <DOI>


$$$$
2330463
Actelion Java MolfileCreator 1.0

 44 47  0  0  0  0  0  0  0  0999 V2000
    0.0000   -0.0000   -0.0000 O   0  0  0  0  0  0  0  0  0  0  0  0
    1.2820    0.7834   -0.0000 C   0  0  0  0  0  0  0  0  0  0  0  0
    1.2464    2.3028   -0.0000 N   0  0  0  0  0  0  0  0  0  0  0  0
    2.5877    0.0594   -0.0000 N   0  0  0  0  0  0  0  0  0  0  0  0
    2.5284    3.0863   -0.0000 C   0  0  0  0  0  0  0  0  0  0  0  0
   -0.0831    3.0507   -0.0000 C   0  0  0  0  0  0  0  0  0  0  0  0
    3.8697    0.8428   -0.0000 C   0  0  0  0  0  0  0  0  0  0  0  0
    2.5996   -1.4363   -0.0000 C   0  0  0  0  0  0  0  0  0  0  0  0
    2.4928    4.6057   -0.0000 O   0  0  0  0  0  0  0  0  0  0  0  0
    3.8341    2.3622   -0.0000 C   0  0  0  0  0  0  0  0  0  0  0  0
   -1.4244    2.3622   -0.0000 C   0  0  0  0  0  0  0  0  0  0  0  0
    5.2942    0.4155   -0.0000 N   0  0  0  0  0  0  0  0  0  0  0  0
    1.2583   -2.1248   -0.0000 C   0  0  0  0  0  0  0  0  0  0  0  0
    5.2467    2.8607   -0.0000 N   0  0  0  0  0  0  0  0  0  0  0  0
   -2.7183    3.1694   -0.0000 C   0  0  0  0  0  0  0  0  0  0  0  0
    6.1488    1.6618   -0.0000 C   0  0  0  0  0  0  0  0  0  0  0  0
    1.1870   -3.6204   -0.0000 C   0  0  0  0  0  0  0  0  0  0  0  0
    5.8283    4.2614   -0.0000 C   0  0  0  0  0  0  0  0  0  0  0  0
   -4.0478    2.4809   -0.0000 C   0  0  0  0  0  0  0  0  0  0  0  0
    7.6326    1.8518   -0.0000 N   0  0  0  0  0  0  0  0  0  0  0  0
   -0.1424   -4.3089   -0.0000 C   0  0  0  0  0  0  0  0  0  0  0  0
    7.3121    4.4514   -0.0000 C   0  0  0  0  0  0  0  0  0  0  0  0
    8.2143    3.2525   -0.0000 C   0  0  0  0  0  0  0  0  0  0  0  0
    8.5229    0.6529   -0.0000 C   0  0  0  0  0  0  0  0  0  0  0  0
   10.0067    0.8428   -0.0000 C   0  0  0  0  0  0  0  0  0  0  0  0
   10.8969   -0.3561   -0.0000 C   0  0  0  0  0  0  0  0  0  0  0  0
   12.3807   -0.1662   -0.0000 C   0  0  0  0  0  0  0  0  0  0  0  0
   10.2916   -1.7331   -0.0000 C   0  0  0  0  0  0  0  0  0  0  0  0
   13.2710   -1.3651   -0.0000 C   0  0  0  0  0  0  0  0  0  0  0  0
   11.1818   -2.9320   -0.0000 C   0  0  0  0  0  0  0  0  0  0  0  0
   12.6656   -2.7420   -0.0000 C   0  0  0  0  0  0  0  0  0  0  0  0
   13.5559   -3.9409   -0.0000 O   0  0  0  0  0  0  0  0  0  0  0  0
   15.0397   -3.7510   -0.0000 C   0  0  0  0  0  0  0  0  0  0  0  0
   15.9300   -4.9499   -0.0000 C   0  0  0  0  0  0  0  0  0  0  0  0
   17.4137   -4.7600   -0.0000 O   0  0  0  0  0  0  0  0  0  0  0  0
   15.3246   -6.3269   -0.0000 N   0  0  0  0  0  0  0  0  0  0  0  0
   16.2148   -7.5258   -0.0000 C   0  0  0  0  0  0  0  0  0  0  0  0
   15.6213   -8.8909   -0.0000 C   0  0  0  0  0  0  0  0  0  0  0  0
   16.5116  -10.0779   -0.0000 C   0  0  0  0  0  0  0  0  0  0  0  0
   15.9181  -11.4430   -0.0000 N   0  0  0  0  0  0  0  0  0  0  0  0
   16.8084  -12.6300   -0.0000 C   0  0  0  0  0  0  0  0  0  0  0  0
   14.4224  -11.6092   -0.0000 C   0  0  0  0  0  0  0  0  0  0  0  0
   16.2148  -13.9951   -0.0000 C   0  0  0  0  0  0  0  0  0  0  0  0
   13.8289  -12.9742   -0.0000 C   0  0  0  0  0  0  0  0  0  0  0  0
  1  2  2  0  0  0  0
  2  3  1  0  0  0  0
  2  4  1  0  0  0  0
  3  5  1  0  0  0  0
  3  6  1  0  0  0  0
  4  7  1  0  0  0  0
  4  8  1  0  0  0  0
  5  9  2  0  0  0  0
  5 10  1  0  0  0  0
  6 11  1  0  0  0  0
  7 12  1  0  0  0  0
  8 13  1  0  0  0  0
 10 14  1  0  0  0  0
 11 15  1  0  0  0  0
 12 16  2  0  0  0  0
 13 17  1  0  0  0  0
 14 18  1  0  0  0  0
 15 19  1  0  0  0  0
 16 20  1  0  0  0  0
 17 21  1  0  0  0  0
 18 22  1  0  0  0  0
 20 23  1  0  0  0  0
 20 24  1  0  0  0  0
 24 25  1  0  0  0  0
 25 26  1  0  0  0  0
 26 27  2  0  0  0  0
 26 28  1  0  0  0  0
 27 29  1  0  0  0  0
 28 30  2  0  0  0  0
 29 31  2  0  0  0  0
 31 32  1  0  0  0  0
 32 33  1  0  0  0  0
 33 34  1  0  0  0  0
 34 35  2  0  0  0  0
 34 36  1  0  0  0  0
 36 37  1  0  0  0  0
 37 38  1  0  0  0  0
 38 39  1  0  0  0  0
 39 40  1  0  0  0  0
 40 41  1  0  0  0  0
 40 42  1  0  0  0  0
 41 43  1  0  0  0  0
 42 44  1  0  0  0  0
  7 10  2  0  0  0  0
 14 16  1  0  0  0  0
 22 23  1  0  0  0  0
 30 31  1  0  0  0  0
M  END
>  <MolRegNo>
2330463

>  <m>
=

>  <Value>
230

>  <Unit>
nM

>  <Type>
IC50

>  <pValue>
6.64

>  <Ligand Efficiency>
0

>  <Binding Efficiency>
0

>  <Surface Efficiency>
0

>  <Assay Index>
1204570

>  <Assay Category>


>  <Assay Organism>
Homo sapiens

>  <Target ID>
17045

>  <Target Name>
Cytochrome P450 3A4

>  <Target Organism>
Homo sapiens

>  <Target Description>
Target is a single protein chain

>  <Sequence Accession>
P08684

>  <Reference>
Medchemcomm 9 (6), 951-962 (2018)

>  <Pubmed ID>
30108984

>  <DOI>
10.1039/C8MD00070K

$$$$
200174
Actelion Java MolfileCreator 1.0

 18 20  0  0  0  0  0  0  0  0999 V2000
    0.0000   -0.0000   -0.0000 O   0  0  0  0  0  0  0  0  0  0  0  0
   -0.0119   -1.4868   -0.0000 C   0  0  0  0  0  0  0  0  0  0  0  0
    1.2846    0.7612   -0.0000 C   0  0  0  0  0  0  0  0  0  0  0  0
   -1.3322   -2.2242   -0.0000 N   0  0  0  0  0  0  0  0  0  0  0  0
    1.2727   -2.2242   -0.0000 C   0  0  0  0  0  0  0  0  0  0  0  0
    1.2727    2.2718   -0.0000 C   0  0  0  0  0  0  0  0  0  0  0  0
   -1.3441   -3.7229   -0.0000 C   0  0  0  0  0  0  0  0  0  0  0  0
    2.6881   -1.7485   -0.0000 N   0  0  0  0  0  0  0  0  0  0  0  0
    1.2608   -3.7229   -0.0000 C   0  0  0  0  0  0  0  0  0  0  0  0
   -0.0357    3.0331   -0.0000 C   0  0  0  0  0  0  0  0  0  0  0  0
    2.5573    3.0331   -0.0000 C   0  0  0  0  0  0  0  0  0  0  0  0
   -0.0476   -4.4604   -0.0000 N   0  0  0  0  0  0  0  0  0  0  0  0
   -2.6524   -4.4723   -0.0000 N   0  0  0  0  0  0  0  0  0  0  0  0
    3.5564   -2.9498   -0.0000 N   0  0  0  0  0  0  0  0  0  0  0  0
    2.6762   -4.1749   -0.0000 N   0  0  0  0  0  0  0  0  0  0  0  0
   -0.0476    4.5437   -0.0000 C   0  0  0  0  0  0  0  0  0  0  0  0
    2.5454    4.5437   -0.0000 C   0  0  0  0  0  0  0  0  0  0  0  0
    1.2370    5.3168   -0.0000 C   0  0  0  0  0  0  0  0  0  0  0  0
  1  2  1  0  0  0  0
  1  3  1  0  0  0  0
  2  4  2  0  0  0  0
  2  5  1  0  0  0  0
  3  6  1  0  0  0  0
  4  7  1  0  0  0  0
  5  8  1  0  0  0  0
  5  9  2  0  0  0  0
  6 10  2  0  0  0  0
  6 11  1  0  0  0  0
  7 12  2  0  0  0  0
  7 13  1  0  0  0  0
  8 14  1  0  0  0  0
  9 15  1  0  0  0  0
 10 16  1  0  0  0  0
 11 17  2  0  0  0  0
 16 18  2  0  0  0  0
  9 12  1  0  0  0  0
 14 15  2  0  0  0  0
 17 18  1  0  0  0  0
M  END
>  <MolRegNo>
200174

>  <m>
=

>  <Value>
14000

>  <Unit>
nM

>  <Type>
IC50

>  <pValue>
4.85

>  <Ligand Efficiency>
0

>  <Binding Efficiency>
0

>  <Surface Efficiency>
0

>  <Assay Index>
1208273

>  <Assay Category>


>  <Assay Organism>
Homo sapiens

>  <Target ID>
17045

>  <Target Name>
Cytochrome P450 3A4

>  <Target Organism>
Homo sapiens

>  <Target Description>
Target is a single protein chain

>  <Sequence Accession>
P08684

>  <Reference>
Medchemcomm 8 (11), 2093-2099 (2017)

>  <Pubmed ID>
30108726

>  <DOI>
10.1039/C7MD00268H

$$$$
2333258
Actelion Java MolfileCreator 1.0

 16 17  0  0  0  0  0  0  0  0999 V2000
    0.0000   -0.0000   -0.0000 O   0  0  0  0  0  0  0  0  0  0  0  0
    1.2847    0.7613   -0.0000 C   0  0  0  0  0  0  0  0  0  0  0  0
    2.5693    0.0238   -0.0000 C   0  0  0  0  0  0  0  0  0  0  0  0
    1.2728    2.2839   -0.0000 C   0  0  0  0  0  0  0  0  0  0  0  0
    3.8659    0.7851   -0.0000 C   0  0  0  0  0  0  0  0  0  0  0  0
    2.5575    3.0452   -0.0000 C   0  0  0  0  0  0  0  0  0  0  0  0
    3.8540    2.3077   -0.0000 C   0  0  0  0  0  0  0  0  0  0  0  0
    5.1387    3.0689   -0.0000 C   0  0  0  0  0  0  0  0  0  0  0  0
    5.0078    4.5677   -0.0000 C   0  0  0  0  0  0  0  0  0  0  0  0
    6.3758    2.2363   -0.0000 C   0  0  0  0  0  0  0  0  0  0  0  0
    6.0903    5.6145   -0.0000 C   0  0  0  0  0  0  0  0  0  0  0  0
    7.8032    2.7002   -0.0000 C   0  0  0  0  0  0  0  0  0  0  0  0
    7.5653    5.4123   -0.0000 C   0  0  0  0  0  0  0  0  0  0  0  0
    8.3266    4.1157   -0.0000 C   0  0  0  0  0  0  0  0  0  0  0  0
    8.3861    6.6732   -0.0000 C   0  0  0  0  0  0  0  0  0  0  0  0
    9.8730    6.5780   -0.0000 O   0  0  0  0  0  0  0  0  0  0  0  0
  1  2  1  0  0  0  0
  2  3  2  0  0  0  0
  2  4  1  0  0  0  0
  3  5  1  0  0  0  0
  4  6  2  0  0  0  0
  5  7  2  0  0  0  0
  7  8  1  0  0  0  0
  8  9  1  0  0  0  0
  8 10  1  0  0  0  0
  9 11  1  0  0  0  0
 10 12  1  0  0  0  0
 11 13  1  0  0  0  0
 12 14  1  0  0  0  0
 13 15  1  0  0  0  0
 15 16  1  0  0  0  0
  6  7  1  0  0  0  0
 13 14  1  0  0  0  0
M  END
>  <MolRegNo>
2333258

>  <m>
=

>  <Value>
33000

>  <Unit>
nM

>  <Type>
IC50

>  <pValue>
4.48

>  <Ligand Efficiency>
0

>  <Binding Efficiency>
0

>  <Surface Efficiency>
0

>  <Assay Index>
1208762

>  <Assay Category>


>  <Assay Organism>
Homo sapiens

>  <Target ID>
17045

>  <Target Name>
Cytochrome P450 3A4

>  <Target Organism>
Homo sapiens

>  <Target Description>
Target is a single protein chain

>  <Sequence Accession>
P08684

>  <Reference>


>  <Pubmed ID>
30144697

>  <DOI>
10.1016/j.ejmech.2018.08.006

$$$$
2320547
Actelion Java MolfileCreator 1.0

 46 51  0  0  0  0  0  0  0  0999 V2000
    0.0000   -0.0000   -0.0000 Cl  0  0  0  0  0  0  0  0  0  0  0  0
    0.0000   -1.4761   -0.0000 C   0  0  0  0  0  0  0  0  0  0  0  0
   -1.3092   -2.2334   -0.0000 N   0  0  0  0  0  0  0  0  0  0  0  0
    1.2835   -2.2077   -0.0000 C   0  0  0  0  0  0  0  0  0  0  0  0
   -1.3092   -3.7094   -0.0000 C   0  0  0  0  0  0  0  0  0  0  0  0
    1.2707   -3.6838   -0.0000 C   0  0  0  0  0  0  0  0  0  0  0  0
   -2.6056   -4.4539   -0.0000 O   0  0  0  0  0  0  0  0  0  0  0  0
   -0.0257   -4.4282   -0.0000 C   0  0  0  0  0  0  0  0  0  0  0  0
   -3.9276   -3.7094   -0.0000 C   0  0  0  0  0  0  0  0  0  0  0  0
   -0.0257   -5.9043   -0.0000 C   0  0  0  0  0  0  0  0  0  0  0  0
   -3.9533   -2.2077   -0.0000 C   0  0  0  0  0  0  0  0  0  0  0  0
    1.5916   -5.1213   -0.0000 N   0  0  0  0  0  0  0  0  0  0  0  0
    0.8471   -7.1108   -0.0000 C   0  0  0  0  0  0  0  0  0  0  0  0
   -1.4632   -6.3792   -0.0000 C   0  0  0  0  0  0  0  0  0  0  0  0
    1.5788   -3.6068   -0.0000 C   0  0  0  0  0  0  0  0  0  0  0  0
    2.8623   -5.8530   -0.0000 C   0  0  0  0  0  0  0  0  0  0  0  0
    2.3360   -7.0980   -0.0000 O   0  0  0  0  0  0  0  0  0  0  0  0
   -0.0257   -8.3174   -0.0000 N   0  0  0  0  0  0  0  0  0  0  0  0
   -1.4632   -7.8681   -0.0000 C   0  0  0  0  0  0  0  0  0  0  0  0
   -2.7725   -5.6219   -0.0000 C   0  0  0  0  0  0  0  0  0  0  0  0
    2.8495   -2.8366   -0.0000 C   0  0  0  0  0  0  0  0  0  0  0  0
    4.1458   -5.0957   -0.0000 C   0  0  0  0  0  0  0  0  0  0  0  0
    0.4236   -9.7164   -0.0000 S   0  0  0  0  0  0  0  0  0  0  0  0
   -2.7853   -8.6126   -0.0000 C   0  0  0  0  0  0  0  0  0  0  0  0
   -4.0688   -6.3535   -0.0000 C   0  0  0  0  0  0  0  0  0  0  0  0
    4.1330   -3.5811   -0.0000 N   0  0  0  0  0  0  0  0  0  0  0  0
    1.7071   -8.9463   -0.0000 O   0  0  0  0  0  0  0  0  0  0  0  0
    1.7071  -10.4480   -0.0000 O   0  0  0  0  0  0  0  0  0  0  0  0
   -0.5648  -10.8203   -0.0000 C   0  0  0  0  0  0  0  0  0  0  0  0
   -4.0945   -7.8553   -0.0000 C   0  0  0  0  0  0  0  0  0  0  0  0
   -5.3780   -5.5962   -0.0000 C   0  0  0  0  0  0  0  0  0  0  0  0
    5.4165   -2.8366   -0.0000 C   0  0  0  0  0  0  0  0  0  0  0  0
   -0.1027  -12.2193   -0.0000 N   0  0  0  0  0  0  0  0  0  0  0  0
   -2.0408  -10.5122   -0.0000 C   0  0  0  0  0  0  0  0  0  0  0  0
   -6.6873   -4.8390   -0.0000 N   0  0  0  0  0  0  0  0  0  0  0  0
    5.3909   -1.3349   -0.0000 C   0  0  0  0  0  0  0  0  0  0  0  0
    6.6873   -3.5811   -0.0000 C   0  0  0  0  0  0  0  0  0  0  0  0
   -1.1038  -13.3360   -0.0000 C   0  0  0  0  0  0  0  0  0  0  0  0
   -3.0420  -11.6032   -0.0000 C   0  0  0  0  0  0  0  0  0  0  0  0
    6.6616   -0.5776   -0.0000 C   0  0  0  0  0  0  0  0  0  0  0  0
    7.9708   -2.8238   -0.0000 C   0  0  0  0  0  0  0  0  0  0  0  0
   -2.5799  -13.0151   -0.0000 C   0  0  0  0  0  0  0  0  0  0  0  0
    7.9580   -1.3092   -0.0000 N   0  0  0  0  0  0  0  0  0  0  0  0
    6.6487    0.9370   -0.0000 C   0  0  0  0  0  0  0  0  0  0  0  0
   -3.5811  -14.1318   -0.0000 O   0  0  0  0  0  0  0  0  0  0  0  0
   -5.0572  -13.8109   -0.0000 C   0  0  0  0  0  0  0  0  0  0  0  0
  1  2  1  0  0  0  0
  2  3  2  0  0  0  0
  2  4  1  0  0  0  0
  3  5  1  0  0  0  0
  4  6  2  0  0  0  0
  5  7  1  0  0  0  0
  5  8  2  0  0  0  0
  7  9  1  0  0  0  0
  8 10  1  0  0  0  0
  9 11  1  0  0  0  0
 10 12  1  0  0  0  0
 10 13  1  0  0  0  0
 10 14  1  0  0  0  0
 12 15  1  0  0  0  0
 12 16  1  0  0  0  0
 13 17  2  0  0  0  0
 13 18  1  0  0  0  0
 14 19  2  0  0  0  0
 14 20  1  0  0  0  0
 15 21  1  0  0  0  0
 16 22  1  0  0  0  0
 18 23  1  0  0  0  0
 19 24  1  0  0  0  0
 20 25  2  0  0  0  0
 21 26  1  0  0  0  0
 23 27  2  0  0  0  0
 23 28  2  0  0  0  0
 23 29  1  0  0  0  0
 24 30  2  0  0  0  0
 25 31  1  0  0  0  0
 26 32  1  0  0  0  0
 29 33  2  0  0  0  0
 29 34  1  0  0  0  0
 31 35  3  0  0  0  0
 32 36  2  0  0  0  0
 32 37  1  0  0  0  0
 33 38  1  0  0  0  0
 34 39  2  0  0  0  0
 36 40  1  0  0  0  0
 37 41  2  0  0  0  0
 38 42  2  0  0  0  0
 40 43  2  0  0  0  0
 40 44  1  0  0  0  0
 42 45  1  0  0  0  0
 45 46  1  0  0  0  0
  6  8  1  0  0  0  0
 18 19  1  0  0  0  0
 22 26  1  0  0  0  0
 25 30  1  0  0  0  0
 39 42  1  0  0  0  0
 41 43  1  0  0  0  0
M  END
>  <MolRegNo>
2320547

>  <m>
=

>  <Value>
1200

>  <Unit>
nM

>  <Type>
IC50

>  <pValue>
5.92

>  <Ligand Efficiency>
0

>  <Binding Efficiency>
0

>  <Surface Efficiency>
0

>  <Assay Index>
1211756

>  <Assay Category>


>  <Assay Organism>
Homo sapiens

>  <Target ID>
17045

>  <Target Name>
Cytochrome P450 3A4

>  <Target Organism>
Homo sapiens

>  <Target Description>
Target is a single protein chain

>  <Sequence Accession>
P08684

>  <Reference>
Bioorg Med Chem Lett 28 (19), 3260-3264 (2018)

>  <Pubmed ID>
30098866

>  <DOI>
10.1016/j.bmcl.2018.07.043

$$$$
2320345
Actelion Java MolfileCreator 1.0

 45 50  0  0  0  0  0  0  0  0999 V2000
    0.0000   -0.0000   -0.0000 Cl  0  0  0  0  0  0  0  0  0  0  0  0
    0.0000   -1.4784   -0.0000 C   0  0  0  0  0  0  0  0  0  0  0  0
   -1.3113   -2.2241   -0.0000 N   0  0  0  0  0  0  0  0  0  0  0  0
    1.2856   -2.2112   -0.0000 C   0  0  0  0  0  0  0  0  0  0  0  0
   -1.3113   -3.7026   -0.0000 C   0  0  0  0  0  0  0  0  0  0  0  0
    1.2856   -3.6897   -0.0000 C   0  0  0  0  0  0  0  0  0  0  0  0
   -2.6098   -4.4482   -0.0000 O   0  0  0  0  0  0  0  0  0  0  0  0
   -0.0257   -4.4225   -0.0000 C   0  0  0  0  0  0  0  0  0  0  0  0
   -3.9211   -3.7026   -0.0000 C   0  0  0  0  0  0  0  0  0  0  0  0
   -0.0257   -5.9009   -0.0000 C   0  0  0  0  0  0  0  0  0  0  0  0
   -3.9468   -2.1984   -0.0000 C   0  0  0  0  0  0  0  0  0  0  0  0
    1.5942   -5.1167   -0.0000 N   0  0  0  0  0  0  0  0  0  0  0  0
    0.8485   -7.0966   -0.0000 C   0  0  0  0  0  0  0  0  0  0  0  0
   -1.4527   -6.3638   -0.0000 C   0  0  0  0  0  0  0  0  0  0  0  0
    1.5813   -3.6126   -0.0000 C   0  0  0  0  0  0  0  0  0  0  0  0
    2.8798   -5.8495   -0.0000 C   0  0  0  0  0  0  0  0  0  0  0  0
    2.3270   -7.0708   -0.0000 O   0  0  0  0  0  0  0  0  0  0  0  0
   -0.0386   -8.3050   -0.0000 N   0  0  0  0  0  0  0  0  0  0  0  0
   -1.4527   -7.8551   -0.0000 C   0  0  0  0  0  0  0  0  0  0  0  0
   -2.7641   -5.6053   -0.0000 C   0  0  0  0  0  0  0  0  0  0  0  0
    2.8669   -2.8412   -0.0000 C   0  0  0  0  0  0  0  0  0  0  0  0
    4.1525   -5.0910   -0.0000 C   0  0  0  0  0  0  0  0  0  0  0  0
    0.4114   -9.7063   -0.0000 S   0  0  0  0  0  0  0  0  0  0  0  0
   -2.7641   -8.6007   -0.0000 C   0  0  0  0  0  0  0  0  0  0  0  0
   -4.0625   -6.3380   -0.0000 C   0  0  0  0  0  0  0  0  0  0  0  0
    4.1397   -3.5868   -0.0000 N   0  0  0  0  0  0  0  0  0  0  0  0
    1.6970   -8.9350   -0.0000 O   0  0  0  0  0  0  0  0  0  0  0  0
    1.6970  -10.4391   -0.0000 O   0  0  0  0  0  0  0  0  0  0  0  0
   -0.5914  -10.8120   -0.0000 C   0  0  0  0  0  0  0  0  0  0  0  0
   -4.0754   -7.8422   -0.0000 C   0  0  0  0  0  0  0  0  0  0  0  0
   -5.3738   -5.5795   -0.0000 C   0  0  0  0  0  0  0  0  0  0  0  0
    5.4253   -2.8283   -0.0000 C   0  0  0  0  0  0  0  0  0  0  0  0
   -0.1286  -12.2133   -0.0000 N   0  0  0  0  0  0  0  0  0  0  0  0
   -2.0698  -10.4906   -0.0000 C   0  0  0  0  0  0  0  0  0  0  0  0
   -6.6852   -4.8210   -0.0000 N   0  0  0  0  0  0  0  0  0  0  0  0
    6.6980   -3.5740   -0.0000 C   0  0  0  0  0  0  0  0  0  0  0  0
    5.4124   -1.3242   -0.0000 C   0  0  0  0  0  0  0  0  0  0  0  0
   -1.1313  -13.3189   -0.0000 C   0  0  0  0  0  0  0  0  0  0  0  0
   -3.0726  -11.5962   -0.0000 C   0  0  0  0  0  0  0  0  0  0  0  0
    7.9836   -2.8155   -0.0000 C   0  0  0  0  0  0  0  0  0  0  0  0
    6.6980   -0.5657   -0.0000 C   0  0  0  0  0  0  0  0  0  0  0  0
   -2.6226  -13.0104   -0.0000 C   0  0  0  0  0  0  0  0  0  0  0  0
    7.9708   -1.2985   -0.0000 N   0  0  0  0  0  0  0  0  0  0  0  0
   -3.6254  -14.1160   -0.0000 O   0  0  0  0  0  0  0  0  0  0  0  0
   -5.1039  -13.8074   -0.0000 C   0  0  0  0  0  0  0  0  0  0  0  0
  1  2  1  0  0  0  0
  2  3  2  0  0  0  0
  2  4  1  0  0  0  0
  3  5  1  0  0  0  0
  4  6  2  0  0  0  0
  5  7  1  0  0  0  0
  5  8  2  0  0  0  0
  7  9  1  0  0  0  0
  8 10  1  0  0  0  0
  9 11  1  0  0  0  0
 10 12  1  0  0  0  0
 10 13  1  0  0  0  0
 10 14  1  0  0  0  0
 12 15  1  0  0  0  0
 12 16  1  0  0  0  0
 13 17  2  0  0  0  0
 13 18  1  0  0  0  0
 14 19  2  0  0  0  0
 14 20  1  0  0  0  0
 15 21  1  0  0  0  0
 16 22  1  0  0  0  0
 18 23  1  0  0  0  0
 19 24  1  0  0  0  0
 20 25  2  0  0  0  0
 21 26  1  0  0  0  0
 23 27  2  0  0  0  0
 23 28  2  0  0  0  0
 23 29  1  0  0  0  0
 24 30  2  0  0  0  0
 25 31  1  0  0  0  0
 26 32  1  0  0  0  0
 29 33  2  0  0  0  0
 29 34  1  0  0  0  0
 31 35  3  0  0  0  0
 32 36  2  0  0  0  0
 32 37  1  0  0  0  0
 33 38  1  0  0  0  0
 34 39  2  0  0  0  0
 36 40  1  0  0  0  0
 37 41  2  0  0  0  0
 38 42  2  0  0  0  0
 40 43  2  0  0  0  0
 42 44  1  0  0  0  0
 44 45  1  0  0  0  0
  6  8  1  0  0  0  0
 18 19  1  0  0  0  0
 22 26  1  0  0  0  0
 25 30  1  0  0  0  0
 39 42  1  0  0  0  0
 41 43  1  0  0  0  0
M  END
>  <MolRegNo>
2320345

>  <m>
=

>  <Value>
100

>  <Unit>
nM

>  <Type>
IC50

>  <pValue>
7

>  <Ligand Efficiency>
0

>  <Binding Efficiency>
0

>  <Surface Efficiency>
0

>  <Assay Index>
1211756

>  <Assay Category>


>  <Assay Organism>
Homo sapiens

>  <Target ID>
17045

>  <Target Name>
Cytochrome P450 3A4

>  <Target Organism>
Homo sapiens

>  <Target Description>
Target is a single protein chain

>  <Sequence Accession>
P08684

>  <Reference>
Bioorg Med Chem Lett 28 (19), 3260-3264 (2018)

>  <Pubmed ID>
30098866

>  <DOI>
10.1016/j.bmcl.2018.07.043

$$$$
2332746
Actelion Java MolfileCreator 1.0

 35 39  0  0  0  0  0  0  0  0999 V2000
    0.0000   -0.0000   -0.0000 S   0  0  0  0  0  0  0  0  0  0  0  0
    0.8777    1.2217   -0.0000 C   0  0  0  0  0  0  0  0  0  0  0  0
   -1.4352    0.4863   -0.0000 C   0  0  0  0  0  0  0  0  0  0  0  0
   -0.0119    2.4433   -0.0000 C   0  0  0  0  0  0  0  0  0  0  0  0
    2.3603    1.2217   -0.0000 C   0  0  0  0  0  0  0  0  0  0  0  0
   -1.4352    1.9926   -0.0000 C   0  0  0  0  0  0  0  0  0  0  0  0
    1.5893    2.5263   -0.0000 N   0  0  0  0  0  0  0  0  0  0  0  0
    3.8547    1.2335   -0.0000 C   0  0  0  0  0  0  0  0  0  0  0  0
    1.8740   -0.1898   -0.0000 C   0  0  0  0  0  0  0  0  0  0  0  0
   -2.7517    2.7517   -0.0000 C   0  0  0  0  0  0  0  0  0  0  0  0
    2.3366    3.8429   -0.0000 C   0  0  0  0  0  0  0  0  0  0  0  0
    4.5901    2.5382   -0.0000 C   0  0  0  0  0  0  0  0  0  0  0  0
    4.3055   -0.1779   -0.0000 C   0  0  0  0  0  0  0  0  0  0  0  0
    3.0838   -1.0556   -0.0000 N   0  0  0  0  0  0  0  0  0  0  0  0
   -2.7636    4.2699   -0.0000 C   0  0  0  0  0  0  0  0  0  0  0  0
   -4.0564    2.0045   -0.0000 C   0  0  0  0  0  0  0  0  0  0  0  0
    1.5775    5.1476   -0.0000 N   0  0  0  0  0  0  0  0  0  0  0  0
    3.8310    3.8547   -0.0000 N   0  0  0  0  0  0  0  0  0  0  0  0
    6.0727    2.5501   -0.0000 O   0  0  0  0  0  0  0  0  0  0  0  0
    3.0719   -2.5382   -0.0000 C   0  0  0  0  0  0  0  0  0  0  0  0
   -4.0801    5.0290   -0.0000 C   0  0  0  0  0  0  0  0  0  0  0  0
   -5.3729    2.7517   -0.0000 C   0  0  0  0  0  0  0  0  0  0  0  0
    4.5664    5.1594   -0.0000 C   0  0  0  0  0  0  0  0  0  0  0  0
    4.3529   -3.2736   -0.0000 N   0  0  0  0  0  0  0  0  0  0  0  0
    1.7554   -3.2854   -0.0000 N   0  0  0  0  0  0  0  0  0  0  0  0
   -4.1038    6.5234   -0.0000 C   0  0  0  0  0  0  0  0  0  0  0  0
   -5.3966    4.2817   -0.0000 C   0  0  0  0  0  0  0  0  0  0  0  0
    4.3410   -4.7562   -0.0000 C   0  0  0  0  0  0  0  0  0  0  0  0
    1.7435   -4.7799   -0.0000 C   0  0  0  0  0  0  0  0  0  0  0  0
   -4.1157    8.0297   -0.0000 N   0  0  0  0  0  0  0  0  0  0  0  0
    5.6220   -5.4915   -0.0000 O   0  0  0  0  0  0  0  0  0  0  0  0
    3.0245   -5.5034   -0.0000 C   0  0  0  0  0  0  0  0  0  0  0  0
    0.4388   -5.5152   -0.0000 C   0  0  0  0  0  0  0  0  0  0  0  0
    5.6101   -6.9741   -0.0000 C   0  0  0  0  0  0  0  0  0  0  0  0
    3.0126   -6.9860   -0.0000 F   0  0  0  0  0  0  0  0  0  0  0  0
  1  2  1  0  0  0  0
  1  3  1  0  0  0  0
  2  4  2  0  0  0  0
  5  2  1  1  0  0  0
  3  6  2  0  0  0  0
  5  7  1  0  0  0  0
  5  8  1  0  0  0  0
  5  9  1  0  0  0  0
  6 10  1  0  0  0  0
  7 11  1  0  0  0  0
  8 12  1  0  0  0  0
  8 13  1  6  0  0  0
  9 14  1  0  0  0  0
 10 15  2  0  0  0  0
 10 16  1  0  0  0  0
 11 17  2  0  0  0  0
 11 18  1  0  0  0  0
 12 19  2  0  0  0  0
 14 20  1  0  0  0  0
 15 21  1  0  0  0  0
 16 22  2  0  0  0  0
 18 23  1  0  0  0  0
 20 24  2  0  0  0  0
 20 25  1  0  0  0  0
 21 26  1  0  0  0  0
 21 27  2  0  0  0  0
 24 28  1  0  0  0  0
 25 29  2  0  0  0  0
 26 30  3  0  0  0  0
 28 31  1  0  0  0  0
 28 32  2  0  0  0  0
 29 33  1  0  0  0  0
 31 34  1  0  0  0  0
 32 35  1  0  0  0  0
  4  6  1  0  0  0  0
 12 18  1  0  0  0  0
 13 14  1  0  0  0  0
 22 27  1  0  0  0  0
 29 32  1  0  0  0  0
M  END
>  <MolRegNo>
2332746

>  <m>
=

>  <Value>
11000

>  <Unit>
nM

>  <Type>
IC50

>  <pValue>
4.96

>  <Ligand Efficiency>
0

>  <Binding Efficiency>
0

>  <Surface Efficiency>
0

>  <Assay Index>
1215085

>  <Assay Category>


>  <Assay Organism>
Homo sapiens

>  <Target ID>
17045

>  <Target Name>
Cytochrome P450 3A4

>  <Target Organism>
Homo sapiens

>  <Target Description>
Target is a single protein chain

>  <Sequence Accession>
P08684

>  <Reference>
J Med Chem 61 (23), 10700-10708 (2018)

>  <Pubmed ID>
30388368

>  <DOI>
10.1021/acs.jmedchem.8b01326

$$$$
2317462
Actelion Java MolfileCreator 1.0

 36 40  0  0  0  0  0  0  0  0999 V2000
    0.0000   -0.0000   -0.0000 S   0  0  0  0  0  0  0  0  0  0  0  0
    0.8767    1.2203   -0.0000 C   0  0  0  0  0  0  0  0  0  0  0  0
   -1.4335    0.4857   -0.0000 C   0  0  0  0  0  0  0  0  0  0  0  0
   -0.0118    2.4405   -0.0000 C   0  0  0  0  0  0  0  0  0  0  0  0
    2.3576    1.2203   -0.0000 C   0  0  0  0  0  0  0  0  0  0  0  0
   -1.4335    1.9903   -0.0000 C   0  0  0  0  0  0  0  0  0  0  0  0
    1.5875    2.5235   -0.0000 N   0  0  0  0  0  0  0  0  0  0  0  0
    3.8503    1.2321   -0.0000 C   0  0  0  0  0  0  0  0  0  0  0  0
    1.8719   -0.1896   -0.0000 C   0  0  0  0  0  0  0  0  0  0  0  0
   -2.7485    2.7485   -0.0000 C   0  0  0  0  0  0  0  0  0  0  0  0
    2.3339    3.8385   -0.0000 C   0  0  0  0  0  0  0  0  0  0  0  0
    4.5849    2.5353   -0.0000 C   0  0  0  0  0  0  0  0  0  0  0  0
    4.3005   -0.1777   -0.0000 C   0  0  0  0  0  0  0  0  0  0  0  0
    3.0803   -1.0544   -0.0000 N   0  0  0  0  0  0  0  0  0  0  0  0
   -2.7604    4.2650   -0.0000 C   0  0  0  0  0  0  0  0  0  0  0  0
   -4.0517    2.0022   -0.0000 C   0  0  0  0  0  0  0  0  0  0  0  0
    1.5757    5.1417   -0.0000 N   0  0  0  0  0  0  0  0  0  0  0  0
    3.8266    3.8503   -0.0000 N   0  0  0  0  0  0  0  0  0  0  0  0
    6.0658    2.5471   -0.0000 O   0  0  0  0  0  0  0  0  0  0  0  0
    3.0684   -2.5353   -0.0000 C   0  0  0  0  0  0  0  0  0  0  0  0
   -4.0754    5.0232   -0.0000 C   0  0  0  0  0  0  0  0  0  0  0  0
   -5.3668    2.7485   -0.0000 C   0  0  0  0  0  0  0  0  0  0  0  0
    4.5612    5.1535   -0.0000 C   0  0  0  0  0  0  0  0  0  0  0  0
    1.7534   -3.2817   -0.0000 N   0  0  0  0  0  0  0  0  0  0  0  0
    4.3479   -3.2698   -0.0000 N   0  0  0  0  0  0  0  0  0  0  0  0
   -4.0991    6.5160   -0.0000 C   0  0  0  0  0  0  0  0  0  0  0  0
   -5.3905    4.2768   -0.0000 C   0  0  0  0  0  0  0  0  0  0  0  0
    1.7415   -4.7744   -0.0000 C   0  0  0  0  0  0  0  0  0  0  0  0
    4.3361   -4.7507   -0.0000 C   0  0  0  0  0  0  0  0  0  0  0  0
   -4.1110    8.0205   -0.0000 N   0  0  0  0  0  0  0  0  0  0  0  0
    0.4383   -5.5089   -0.0000 O   0  0  0  0  0  0  0  0  0  0  0  0
    3.0329   -5.5089   -0.0000 C   0  0  0  0  0  0  0  0  0  0  0  0
   -0.8648   -4.7507   -0.0000 C   0  0  0  0  0  0  0  0  0  0  0  0
    3.0210   -6.9898   -0.0000 F   0  0  0  0  0  0  0  0  0  0  0  0
   -2.1680   -5.4852   -0.0000 C   0  0  0  0  0  0  0  0  0  0  0  0
   -3.4712   -4.7270   -0.0000 C   0  0  0  0  0  0  0  0  0  0  0  0
  1  2  1  0  0  0  0
  1  3  1  0  0  0  0
  2  4  2  0  0  0  0
  5  2  1  1  0  0  0
  3  6  2  0  0  0  0
  5  7  1  0  0  0  0
  5  8  1  0  0  0  0
  5  9  1  0  0  0  0
  6 10  1  0  0  0  0
  7 11  1  0  0  0  0
  8 12  1  0  0  0  0
  8 13  1  6  0  0  0
  9 14  1  0  0  0  0
 10 15  2  0  0  0  0
 10 16  1  0  0  0  0
 11 17  2  0  0  0  0
 11 18  1  0  0  0  0
 12 19  2  0  0  0  0
 14 20  1  0  0  0  0
 15 21  1  0  0  0  0
 16 22  2  0  0  0  0
 18 23  1  0  0  0  0
 20 24  2  0  0  0  0
 20 25  1  0  0  0  0
 21 26  1  0  0  0  0
 21 27  2  0  0  0  0
 24 28  1  0  0  0  0
 25 29  2  0  0  0  0
 26 30  3  0  0  0  0
 28 31  1  0  0  0  0
 28 32  2  0  0  0  0
 31 33  1  0  0  0  0
 32 34  1  0  0  0  0
 33 35  1  0  0  0  0
 35 36  1  0  0  0  0
  4  6  1  0  0  0  0
 12 18  1  0  0  0  0
 13 14  1  0  0  0  0
 22 27  1  0  0  0  0
 29 32  1  0  0  0  0
M  END
>  <MolRegNo>
2317462

>  <m>
=

>  <Value>
1200

>  <Unit>
nM

>  <Type>
IC50

>  <pValue>
5.92

>  <Ligand Efficiency>
0

>  <Binding Efficiency>
0

>  <Surface Efficiency>
0

>  <Assay Index>
1215085

>  <Assay Category>


>  <Assay Organism>
Homo sapiens

>  <Target ID>
17045

>  <Target Name>
Cytochrome P450 3A4

>  <Target Organism>
Homo sapiens

>  <Target Description>
Target is a single protein chain

>  <Sequence Accession>
P08684

>  <Reference>
J Med Chem 61 (23), 10700-10708 (2018)

>  <Pubmed ID>
30388368

>  <DOI>
10.1021/acs.jmedchem.8b01326

$$$$
2333684
Actelion Java MolfileCreator 1.0

 35 39  0  0  0  0  0  0  0  0999 V2000
    0.0000   -0.0000   -0.0000 S   0  0  0  0  0  0  0  0  0  0  0  0
    0.8768    1.2204   -0.0000 C   0  0  0  0  0  0  0  0  0  0  0  0
   -1.4337    0.4858   -0.0000 C   0  0  0  0  0  0  0  0  0  0  0  0
   -0.0118    2.4408   -0.0000 C   0  0  0  0  0  0  0  0  0  0  0  0
    2.3579    1.2204   -0.0000 C   0  0  0  0  0  0  0  0  0  0  0  0
   -1.4337    1.9906   -0.0000 C   0  0  0  0  0  0  0  0  0  0  0  0
    1.5877    2.5238   -0.0000 N   0  0  0  0  0  0  0  0  0  0  0  0
    3.8508    1.2323   -0.0000 C   0  0  0  0  0  0  0  0  0  0  0  0
    1.8721   -0.1896   -0.0000 C   0  0  0  0  0  0  0  0  0  0  0  0
   -2.7489    2.7489   -0.0000 C   0  0  0  0  0  0  0  0  0  0  0  0
    2.3342    3.8390   -0.0000 C   0  0  0  0  0  0  0  0  0  0  0  0
    4.5855    2.5356   -0.0000 C   0  0  0  0  0  0  0  0  0  0  0  0
    4.3011   -0.1777   -0.0000 C   0  0  0  0  0  0  0  0  0  0  0  0
    3.0807   -1.0545   -0.0000 N   0  0  0  0  0  0  0  0  0  0  0  0
   -2.7608    4.2656   -0.0000 C   0  0  0  0  0  0  0  0  0  0  0  0
   -4.0523    2.0024   -0.0000 C   0  0  0  0  0  0  0  0  0  0  0  0
    1.5759    5.1424   -0.0000 N   0  0  0  0  0  0  0  0  0  0  0  0
    3.8271    3.8508   -0.0000 N   0  0  0  0  0  0  0  0  0  0  0  0
    6.0666    2.5475   -0.0000 O   0  0  0  0  0  0  0  0  0  0  0  0
    3.0688   -2.5356   -0.0000 C   0  0  0  0  0  0  0  0  0  0  0  0
   -4.0760    5.0239   -0.0000 C   0  0  0  0  0  0  0  0  0  0  0  0
   -5.3675    2.7489   -0.0000 C   0  0  0  0  0  0  0  0  0  0  0  0
    4.5618    5.1542   -0.0000 C   0  0  0  0  0  0  0  0  0  0  0  0
    1.7536   -3.2821   -0.0000 N   0  0  0  0  0  0  0  0  0  0  0  0
    4.3485   -3.2703   -0.0000 N   0  0  0  0  0  0  0  0  0  0  0  0
   -4.0997    6.5168   -0.0000 C   0  0  0  0  0  0  0  0  0  0  0  0
   -5.3912    4.2774   -0.0000 C   0  0  0  0  0  0  0  0  0  0  0  0
    1.7418   -4.7750   -0.0000 C   0  0  0  0  0  0  0  0  0  0  0  0
    4.3366   -4.7514   -0.0000 C   0  0  0  0  0  0  0  0  0  0  0  0
   -4.1115    8.0216   -0.0000 N   0  0  0  0  0  0  0  0  0  0  0  0
    0.4384   -5.5097   -0.0000 O   0  0  0  0  0  0  0  0  0  0  0  0
    3.0333   -5.5097   -0.0000 C   0  0  0  0  0  0  0  0  0  0  0  0
   -0.8650   -4.7514   -0.0000 C   0  0  0  0  0  0  0  0  0  0  0  0
    3.0214   -6.9908   -0.0000 F   0  0  0  0  0  0  0  0  0  0  0  0
   -2.1683   -5.4860   -0.0000 C   0  0  0  0  0  0  0  0  0  0  0  0
  1  2  1  0  0  0  0
  1  3  1  0  0  0  0
  2  4  2  0  0  0  0
  5  2  1  1  0  0  0
  3  6  2  0  0  0  0
  5  7  1  0  0  0  0
  5  8  1  0  0  0  0
  5  9  1  0  0  0  0
  6 10  1  0  0  0  0
  7 11  1  0  0  0  0
  8 12  1  0  0  0  0
  8 13  1  6  0  0  0
  9 14  1  0  0  0  0
 10 15  2  0  0  0  0
 10 16  1  0  0  0  0
 11 17  2  0  0  0  0
 11 18  1  0  0  0  0
 12 19  2  0  0  0  0
 14 20  1  0  0  0  0
 15 21  1  0  0  0  0
 16 22  2  0  0  0  0
 18 23  1  0  0  0  0
 20 24  2  0  0  0  0
 20 25  1  0  0  0  0
 21 26  1  0  0  0  0
 21 27  2  0  0  0  0
 24 28  1  0  0  0  0
 25 29  2  0  0  0  0
 26 30  3  0  0  0  0
 28 31  1  0  0  0  0
 28 32  2  0  0  0  0
 31 33  1  0  0  0  0
 32 34  1  0  0  0  0
 33 35  1  0  0  0  0
  4  6  1  0  0  0  0
 12 18  1  0  0  0  0
 13 14  1  0  0  0  0
 22 27  1  0  0  0  0
 29 32  1  0  0  0  0
M  END
>  <MolRegNo>
2333684

>  <m>
=

>  <Value>
700

>  <Unit>
nM

>  <Type>
IC50

>  <pValue>
6.16

>  <Ligand Efficiency>
0

>  <Binding Efficiency>
0

>  <Surface Efficiency>
0

>  <Assay Index>
1215085

>  <Assay Category>


>  <Assay Organism>
Homo sapiens

>  <Target ID>
17045

>  <Target Name>
Cytochrome P450 3A4

>  <Target Organism>
Homo sapiens

>  <Target Description>
Target is a single protein chain

>  <Sequence Accession>
P08684

>  <Reference>
J Med Chem 61 (23), 10700-10708 (2018)

>  <Pubmed ID>
30388368

>  <DOI>
10.1021/acs.jmedchem.8b01326

$$$$
2318535
Actelion Java MolfileCreator 1.0

 34 38  0  0  0  0  0  0  0  0999 V2000
    0.0000   -0.0000   -0.0000 S   0  0  0  0  0  0  0  0  0  0  0  0
    0.8767    1.2203   -0.0000 C   0  0  0  0  0  0  0  0  0  0  0  0
   -1.4336    0.4858   -0.0000 C   0  0  0  0  0  0  0  0  0  0  0  0
   -0.0118    2.4407   -0.0000 C   0  0  0  0  0  0  0  0  0  0  0  0
    2.3577    1.2203   -0.0000 C   0  0  0  0  0  0  0  0  0  0  0  0
   -1.4336    1.9905   -0.0000 C   0  0  0  0  0  0  0  0  0  0  0  0
    1.5876    2.5236   -0.0000 N   0  0  0  0  0  0  0  0  0  0  0  0
    3.8506    1.2322   -0.0000 C   0  0  0  0  0  0  0  0  0  0  0  0
    1.8720   -0.1896   -0.0000 C   0  0  0  0  0  0  0  0  0  0  0  0
   -2.7487    2.7487   -0.0000 C   0  0  0  0  0  0  0  0  0  0  0  0
    2.3340    3.8387   -0.0000 C   0  0  0  0  0  0  0  0  0  0  0  0
    4.5852    2.5355   -0.0000 C   0  0  0  0  0  0  0  0  0  0  0  0
    4.3008   -0.1777   -0.0000 C   0  0  0  0  0  0  0  0  0  0  0  0
    3.0805   -1.0545   -0.0000 N   0  0  0  0  0  0  0  0  0  0  0  0
   -2.7606    4.2653   -0.0000 C   0  0  0  0  0  0  0  0  0  0  0  0
   -4.0520    2.0023   -0.0000 C   0  0  0  0  0  0  0  0  0  0  0  0
    1.5758    5.1420   -0.0000 N   0  0  0  0  0  0  0  0  0  0  0  0
    3.8269    3.8506   -0.0000 N   0  0  0  0  0  0  0  0  0  0  0  0
    6.0662    2.5473   -0.0000 O   0  0  0  0  0  0  0  0  0  0  0  0
    3.0686   -2.5355   -0.0000 C   0  0  0  0  0  0  0  0  0  0  0  0
   -4.0757    5.0235   -0.0000 C   0  0  0  0  0  0  0  0  0  0  0  0
   -5.3671    2.7487   -0.0000 C   0  0  0  0  0  0  0  0  0  0  0  0
    4.5615    5.1539   -0.0000 C   0  0  0  0  0  0  0  0  0  0  0  0
    1.7535   -3.2819   -0.0000 N   0  0  0  0  0  0  0  0  0  0  0  0
    4.3482   -3.2700   -0.0000 N   0  0  0  0  0  0  0  0  0  0  0  0
   -4.0994    6.5164   -0.0000 C   0  0  0  0  0  0  0  0  0  0  0  0
   -5.3908    4.2771   -0.0000 C   0  0  0  0  0  0  0  0  0  0  0  0
    1.7416   -4.7747   -0.0000 C   0  0  0  0  0  0  0  0  0  0  0  0
    4.3364   -4.7510   -0.0000 C   0  0  0  0  0  0  0  0  0  0  0  0
   -4.1112    8.0211   -0.0000 N   0  0  0  0  0  0  0  0  0  0  0  0
    3.0331   -5.5093   -0.0000 C   0  0  0  0  0  0  0  0  0  0  0  0
    0.4384   -5.5093   -0.0000 C   0  0  0  0  0  0  0  0  0  0  0  0
    3.0212   -6.9903   -0.0000 F   0  0  0  0  0  0  0  0  0  0  0  0
   -0.8649   -4.7510   -0.0000 C   0  0  0  0  0  0  0  0  0  0  0  0
  1  2  1  0  0  0  0
  1  3  1  0  0  0  0
  2  4  2  0  0  0  0
  5  2  1  1  0  0  0
  3  6  2  0  0  0  0
  5  7  1  0  0  0  0
  5  8  1  0  0  0  0
  5  9  1  0  0  0  0
  6 10  1  0  0  0  0
  7 11  1  0  0  0  0
  8 12  1  0  0  0  0
  8 13  1  6  0  0  0
  9 14  1  0  0  0  0
 10 15  2  0  0  0  0
 10 16  1  0  0  0  0
 11 17  2  0  0  0  0
 11 18  1  0  0  0  0
 12 19  2  0  0  0  0
 14 20  1  0  0  0  0
 15 21  1  0  0  0  0
 16 22  2  0  0  0  0
 18 23  1  0  0  0  0
 20 24  2  0  0  0  0
 20 25  1  0  0  0  0
 21 26  1  0  0  0  0
 21 27  2  0  0  0  0
 24 28  1  0  0  0  0
 25 29  2  0  0  0  0
 26 30  3  0  0  0  0
 28 31  2  0  0  0  0
 28 32  1  0  0  0  0
 31 33  1  0  0  0  0
 32 34  1  0  0  0  0
  4  6  1  0  0  0  0
 12 18  1  0  0  0  0
 13 14  1  0  0  0  0
 22 27  1  0  0  0  0
 29 31  1  0  0  0  0
M  END
>  <MolRegNo>
2318535

>  <m>
=

>  <Value>
900

>  <Unit>
nM

>  <Type>
IC50

>  <pValue>
6.05

>  <Ligand Efficiency>
0

>  <Binding Efficiency>
0

>  <Surface Efficiency>
0

>  <Assay Index>
1215085

>  <Assay Category>


>  <Assay Organism>
Homo sapiens

>  <Target ID>
17045

>  <Target Name>
Cytochrome P450 3A4

>  <Target Organism>
Homo sapiens

>  <Target Description>
Target is a single protein chain

>  <Sequence Accession>
P08684

>  <Reference>
J Med Chem 61 (23), 10700-10708 (2018)

>  <Pubmed ID>
30388368

>  <DOI>
10.1021/acs.jmedchem.8b01326

$$$$
2329211
Actelion Java MolfileCreator 1.0

 33 37  0  0  0  0  0  0  0  0999 V2000
    0.0000   -0.0000   -0.0000 S   0  0  0  0  0  0  0  0  0  0  0  0
    0.8769    1.2205   -0.0000 C   0  0  0  0  0  0  0  0  0  0  0  0
   -1.4338    0.4858   -0.0000 C   0  0  0  0  0  0  0  0  0  0  0  0
   -0.0118    2.4410   -0.0000 C   0  0  0  0  0  0  0  0  0  0  0  0
    2.3581    1.2205   -0.0000 C   0  0  0  0  0  0  0  0  0  0  0  0
   -1.4338    1.9907   -0.0000 C   0  0  0  0  0  0  0  0  0  0  0  0
    1.5878    2.5240   -0.0000 N   0  0  0  0  0  0  0  0  0  0  0  0
    3.8511    1.2324   -0.0000 C   0  0  0  0  0  0  0  0  0  0  0  0
    1.8722   -0.1896   -0.0000 C   0  0  0  0  0  0  0  0  0  0  0  0
   -2.7491    2.7491   -0.0000 C   0  0  0  0  0  0  0  0  0  0  0  0
    2.3344    3.8393   -0.0000 C   0  0  0  0  0  0  0  0  0  0  0  0
    4.5858    2.5358   -0.0000 C   0  0  0  0  0  0  0  0  0  0  0  0
    4.3014   -0.1777   -0.0000 C   0  0  0  0  0  0  0  0  0  0  0  0
    3.0809   -1.0546   -0.0000 N   0  0  0  0  0  0  0  0  0  0  0  0
   -2.7610    4.2659   -0.0000 C   0  0  0  0  0  0  0  0  0  0  0  0
   -4.0526    2.0026   -0.0000 C   0  0  0  0  0  0  0  0  0  0  0  0
    1.5760    5.1427   -0.0000 N   0  0  0  0  0  0  0  0  0  0  0  0
    3.8274    3.8511   -0.0000 N   0  0  0  0  0  0  0  0  0  0  0  0
    6.0670    2.5477   -0.0000 O   0  0  0  0  0  0  0  0  0  0  0  0
    3.0691   -2.5358   -0.0000 C   0  0  0  0  0  0  0  0  0  0  0  0
   -4.0763    5.0242   -0.0000 C   0  0  0  0  0  0  0  0  0  0  0  0
   -5.3679    2.7491   -0.0000 C   0  0  0  0  0  0  0  0  0  0  0  0
    4.5621    5.1546   -0.0000 C   0  0  0  0  0  0  0  0  0  0  0  0
    1.7537   -3.2823   -0.0000 N   0  0  0  0  0  0  0  0  0  0  0  0
    4.3488   -3.2705   -0.0000 N   0  0  0  0  0  0  0  0  0  0  0  0
   -4.1000    6.5173   -0.0000 C   0  0  0  0  0  0  0  0  0  0  0  0
   -5.3916    4.2777   -0.0000 C   0  0  0  0  0  0  0  0  0  0  0  0
    1.7419   -4.7754   -0.0000 C   0  0  0  0  0  0  0  0  0  0  0  0
    4.3370   -4.7517   -0.0000 C   0  0  0  0  0  0  0  0  0  0  0  0
   -4.1118    8.0222   -0.0000 N   0  0  0  0  0  0  0  0  0  0  0  0
    3.0335   -5.5101   -0.0000 C   0  0  0  0  0  0  0  0  0  0  0  0
    0.4384   -5.5101   -0.0000 C   0  0  0  0  0  0  0  0  0  0  0  0
    3.0217   -6.9913   -0.0000 F   0  0  0  0  0  0  0  0  0  0  0  0
  1  2  1  0  0  0  0
  1  3  1  0  0  0  0
  2  4  2  0  0  0  0
  5  2  1  1  0  0  0
  3  6  2  0  0  0  0
  5  7  1  0  0  0  0
  5  8  1  0  0  0  0
  5  9  1  0  0  0  0
  6 10  1  0  0  0  0
  7 11  1  0  0  0  0
  8 12  1  0  0  0  0
  8 13  1  6  0  0  0
  9 14  1  0  0  0  0
 10 15  2  0  0  0  0
 10 16  1  0  0  0  0
 11 17  2  0  0  0  0
 11 18  1  0  0  0  0
 12 19  2  0  0  0  0
 14 20  1  0  0  0  0
 15 21  1  0  0  0  0
 16 22  2  0  0  0  0
 18 23  1  0  0  0  0
 20 24  2  0  0  0  0
 20 25  1  0  0  0  0
 21 26  1  0  0  0  0
 21 27  2  0  0  0  0
 24 28  1  0  0  0  0
 25 29  2  0  0  0  0
 26 30  3  0  0  0  0
 28 31  2  0  0  0  0
 28 32  1  0  0  0  0
 31 33  1  0  0  0  0
  4  6  1  0  0  0  0
 12 18  1  0  0  0  0
 13 14  1  0  0  0  0
 22 27  1  0  0  0  0
 29 31  1  0  0  0  0
M  END
>  <MolRegNo>
2329211

>  <m>
=

>  <Value>
600

>  <Unit>
nM

>  <Type>
IC50

>  <pValue>
6.22

>  <Ligand Efficiency>
0

>  <Binding Efficiency>
0

>  <Surface Efficiency>
0

>  <Assay Index>
1215085

>  <Assay Category>


>  <Assay Organism>
Homo sapiens

>  <Target ID>
17045

>  <Target Name>
Cytochrome P450 3A4

>  <Target Organism>
Homo sapiens

>  <Target Description>
Target is a single protein chain

>  <Sequence Accession>
P08684

>  <Reference>
J Med Chem 61 (23), 10700-10708 (2018)

>  <Pubmed ID>
30388368

>  <DOI>
10.1021/acs.jmedchem.8b01326

$$$$
2322424
Actelion Java MolfileCreator 1.0

 25 28  0  0  0  0  0  0  0  0999 V2000
    0.0000   -0.0000   -0.0000 Br  0  0  0  0  0  0  0  0  0  0  0  0
    1.2960   -0.7372   -0.0000 C   0  0  0  0  0  0  0  0  0  0  0  0
    1.2722   -2.2235   -0.0000 C   0  0  0  0  0  0  0  0  0  0  0  0
    2.7110   -0.2735   -0.0000 C   0  0  0  0  0  0  0  0  0  0  0  0
    2.6872   -2.6872   -0.0000 S   0  0  0  0  0  0  0  0  0  0  0  0
    3.5789   -1.4744   -0.0000 C   0  0  0  0  0  0  0  0  0  0  0  0
    5.0652   -1.4744   -0.0000 C   0  0  0  0  0  0  0  0  0  0  0  0
    4.2924   -0.1665   -0.0000 N   0  0  0  0  0  0  0  0  0  0  0  0
    6.5634   -1.4625   -0.0000 C   0  0  0  0  0  0  0  0  0  0  0  0
    4.5777   -2.9012   -0.0000 C   0  0  0  0  0  0  0  0  0  0  0  0
    5.0414    1.1533   -0.0000 C   0  0  0  0  0  0  0  0  0  0  0  0
    7.3006   -0.1546   -0.0000 C   0  0  0  0  0  0  0  0  0  0  0  0
    7.0152   -2.8893   -0.0000 C   0  0  0  0  0  0  0  0  0  0  0  0
    5.7905   -3.7692   -0.0000 N   0  0  0  0  0  0  0  0  0  0  0  0
    4.2805    2.4732   -0.0000 N   0  0  0  0  0  0  0  0  0  0  0  0
    6.5396    1.1652   -0.0000 N   0  0  0  0  0  0  0  0  0  0  0  0
    8.7868   -0.1427   -0.0000 O   0  0  0  0  0  0  0  0  0  0  0  0
    5.7786   -5.2673   -0.0000 C   0  0  0  0  0  0  0  0  0  0  0  0
    7.2768    2.4732   -0.0000 C   0  0  0  0  0  0  0  0  0  0  0  0
    4.4588   -6.0164   -0.0000 N   0  0  0  0  0  0  0  0  0  0  0  0
    7.0747   -6.0045   -0.0000 N   0  0  0  0  0  0  0  0  0  0  0  0
    4.4469   -7.5146   -0.0000 C   0  0  0  0  0  0  0  0  0  0  0  0
    7.0628   -7.5027   -0.0000 C   0  0  0  0  0  0  0  0  0  0  0  0
    5.7430   -8.2518   -0.0000 C   0  0  0  0  0  0  0  0  0  0  0  0
    5.7311   -9.7381   -0.0000 F   0  0  0  0  0  0  0  0  0  0  0  0
  1  2  1  0  0  0  0
  2  3  2  0  0  0  0
  2  4  1  0  0  0  0
  3  5  1  0  0  0  0
  4  6  2  0  0  0  0
  7  6  1  1  0  0  0
  7  8  1  0  0  0  0
  7  9  1  0  0  0  0
  7 10  1  0  0  0  0
  8 11  1  0  0  0  0
  9 12  1  0  0  0  0
  9 13  1  6  0  0  0
 10 14  1  0  0  0  0
 11 15  2  0  0  0  0
 11 16  1  0  0  0  0
 12 17  2  0  0  0  0
 14 18  1  0  0  0  0
 16 19  1  0  0  0  0
 18 20  2  0  0  0  0
 18 21  1  0  0  0  0
 20 22  1  0  0  0  0
 21 23  2  0  0  0  0
 22 24  2  0  0  0  0
 24 25  1  0  0  0  0
  5  6  1  0  0  0  0
 12 16  1  0  0  0  0
 13 14  1  0  0  0  0
 23 24  1  0  0  0  0
M  END
>  <MolRegNo>
2322424

>  <m>
=

>  <Value>
900

>  <Unit>
nM

>  <Type>
IC50

>  <pValue>
6.05

>  <Ligand Efficiency>
0

>  <Binding Efficiency>
0

>  <Surface Efficiency>
0

>  <Assay Index>
1215085

>  <Assay Category>


>  <Assay Organism>
Homo sapiens

>  <Target ID>
17045

>  <Target Name>
Cytochrome P450 3A4

>  <Target Organism>
Homo sapiens

>  <Target Description>
Target is a single protein chain

>  <Sequence Accession>
P08684

>  <Reference>
J Med Chem 61 (23), 10700-10708 (2018)

>  <Pubmed ID>
30388368

>  <DOI>
10.1021/acs.jmedchem.8b01326

$$$$
2319722
Actelion Java MolfileCreator 1.0

 31 35  0  0  0  0  0  0  0  0999 V2000
    0.0000   -0.0000   -0.0000 Cl  0  0  0  0  0  0  0  0  0  0  0  0
   -0.0119   -1.4937   -0.0000 C   0  0  0  0  0  0  0  0  0  0  0  0
    1.2786   -2.2346   -0.0000 C   0  0  0  0  0  0  0  0  0  0  0  0
   -1.3264   -2.2465   -0.0000 C   0  0  0  0  0  0  0  0  0  0  0  0
    1.2667   -3.7402   -0.0000 C   0  0  0  0  0  0  0  0  0  0  0  0
   -1.3264   -3.7522   -0.0000 C   0  0  0  0  0  0  0  0  0  0  0  0
    2.5692   -4.4811   -0.0000 C   0  0  0  0  0  0  0  0  0  0  0  0
   -0.0358   -4.4811   -0.0000 C   0  0  0  0  0  0  0  0  0  0  0  0
    2.5453   -5.9748   -0.0000 C   0  0  0  0  0  0  0  0  0  0  0  0
    3.9912   -4.0151   -0.0000 C   0  0  0  0  0  0  0  0  0  0  0  0
    3.9553   -6.4289   -0.0000 S   0  0  0  0  0  0  0  0  0  0  0  0
    4.8635   -5.2220   -0.0000 C   0  0  0  0  0  0  0  0  0  0  0  0
    6.3572   -5.2220   -0.0000 C   0  0  0  0  0  0  0  0  0  0  0  0
    5.5805   -3.9075   -0.0000 N   0  0  0  0  0  0  0  0  0  0  0  0
    7.8509   -5.2100   -0.0000 C   0  0  0  0  0  0  0  0  0  0  0  0
    5.8792   -6.6440   -0.0000 C   0  0  0  0  0  0  0  0  0  0  0  0
    6.3333   -2.5931   -0.0000 C   0  0  0  0  0  0  0  0  0  0  0  0
    8.5798   -3.8956   -0.0000 C   0  0  0  0  0  0  0  0  0  0  0  0
    8.3050   -6.6320   -0.0000 C   0  0  0  0  0  0  0  0  0  0  0  0
    7.0861   -7.5163   -0.0000 N   0  0  0  0  0  0  0  0  0  0  0  0
    5.5685   -1.2786   -0.0000 N   0  0  0  0  0  0  0  0  0  0  0  0
    7.8270   -2.5811   -0.0000 N   0  0  0  0  0  0  0  0  0  0  0  0
   10.0735   -3.8836   -0.0000 O   0  0  0  0  0  0  0  0  0  0  0  0
    7.0742   -9.0100   -0.0000 C   0  0  0  0  0  0  0  0  0  0  0  0
    8.5679   -1.2667   -0.0000 C   0  0  0  0  0  0  0  0  0  0  0  0
    5.7478   -9.7509   -0.0000 N   0  0  0  0  0  0  0  0  0  0  0  0
    8.3647   -9.7509   -0.0000 N   0  0  0  0  0  0  0  0  0  0  0  0
    5.7358  -11.2446   -0.0000 C   0  0  0  0  0  0  0  0  0  0  0  0
    8.3528  -11.2446   -0.0000 C   0  0  0  0  0  0  0  0  0  0  0  0
    7.0264  -11.9855   -0.0000 C   0  0  0  0  0  0  0  0  0  0  0  0
    7.0144  -13.4792   -0.0000 F   0  0  0  0  0  0  0  0  0  0  0  0
  1  2  1  0  0  0  0
  2  3  2  0  0  0  0
  2  4  1  0  0  0  0
  3  5  1  0  0  0  0
  4  6  2  0  0  0  0
  5  7  1  0  0  0  0
  5  8  2  0  0  0  0
  7  9  2  0  0  0  0
  7 10  1  0  0  0  0
  9 11  1  0  0  0  0
 10 12  2  0  0  0  0
 13 12  1  1  0  0  0
 13 14  1  0  0  0  0
 13 15  1  0  0  0  0
 13 16  1  0  0  0  0
 14 17  1  0  0  0  0
 15 18  1  0  0  0  0
 15 19  1  6  0  0  0
 16 20  1  0  0  0  0
 17 21  2  0  0  0  0
 17 22  1  0  0  0  0
 18 23  2  0  0  0  0
 20 24  1  0  0  0  0
 22 25  1  0  0  0  0
 24 26  2  0  0  0  0
 24 27  1  0  0  0  0
 26 28  1  0  0  0  0
 27 29  2  0  0  0  0
 28 30  2  0  0  0  0
 30 31  1  0  0  0  0
  6  8  1  0  0  0  0
 11 12  1  0  0  0  0
 18 22  1  0  0  0  0
 19 20  1  0  0  0  0
 29 30  1  0  0  0  0
M  END
>  <MolRegNo>
2319722

>  <m>
=

>  <Value>
1200

>  <Unit>
nM

>  <Type>
IC50

>  <pValue>
5.92

>  <Ligand Efficiency>
0

>  <Binding Efficiency>
0

>  <Surface Efficiency>
0

>  <Assay Index>
1215085

>  <Assay Category>


>  <Assay Organism>
Homo sapiens

>  <Target ID>
17045

>  <Target Name>
Cytochrome P450 3A4

>  <Target Organism>
Homo sapiens

>  <Target Description>
Target is a single protein chain

>  <Sequence Accession>
P08684

>  <Reference>
J Med Chem 61 (23), 10700-10708 (2018)

>  <Pubmed ID>
30388368

>  <DOI>
10.1021/acs.jmedchem.8b01326

$$$$
2330795
Actelion Java MolfileCreator 1.0

 32 36  0  0  0  0  0  0  0  0999 V2000
    0.0000   -0.0000   -0.0000 S   0  0  0  0  0  0  0  0  0  0  0  0
    0.8767    1.2202   -0.0000 C   0  0  0  0  0  0  0  0  0  0  0  0
   -1.4335    0.4857   -0.0000 C   0  0  0  0  0  0  0  0  0  0  0  0
   -0.0118    2.4405   -0.0000 C   0  0  0  0  0  0  0  0  0  0  0  0
    2.3575    1.2202   -0.0000 C   0  0  0  0  0  0  0  0  0  0  0  0
   -1.4335    1.9903   -0.0000 C   0  0  0  0  0  0  0  0  0  0  0  0
    1.5875    2.5234   -0.0000 N   0  0  0  0  0  0  0  0  0  0  0  0
    3.8502    1.2321   -0.0000 C   0  0  0  0  0  0  0  0  0  0  0  0
    1.8718   -0.1895   -0.0000 C   0  0  0  0  0  0  0  0  0  0  0  0
   -2.7485    2.7485   -0.0000 C   0  0  0  0  0  0  0  0  0  0  0  0
    2.3338    3.8384   -0.0000 C   0  0  0  0  0  0  0  0  0  0  0  0
    4.5847    2.5352   -0.0000 C   0  0  0  0  0  0  0  0  0  0  0  0
    4.3004   -0.1777   -0.0000 C   0  0  0  0  0  0  0  0  0  0  0  0
    3.0802   -1.0544   -0.0000 N   0  0  0  0  0  0  0  0  0  0  0  0
   -2.7603    4.2649   -0.0000 C   0  0  0  0  0  0  0  0  0  0  0  0
   -4.0516    2.0021   -0.0000 C   0  0  0  0  0  0  0  0  0  0  0  0
    1.5756    5.1415   -0.0000 N   0  0  0  0  0  0  0  0  0  0  0  0
    3.8265    3.8502   -0.0000 N   0  0  0  0  0  0  0  0  0  0  0  0
    6.0656    2.5471   -0.0000 O   0  0  0  0  0  0  0  0  0  0  0  0
    3.0683   -2.5352   -0.0000 C   0  0  0  0  0  0  0  0  0  0  0  0
   -4.0753    5.0231   -0.0000 C   0  0  0  0  0  0  0  0  0  0  0  0
   -5.3666    2.7485   -0.0000 C   0  0  0  0  0  0  0  0  0  0  0  0
    4.5610    5.1534   -0.0000 C   0  0  0  0  0  0  0  0  0  0  0  0
    1.7533   -3.2816   -0.0000 N   0  0  0  0  0  0  0  0  0  0  0  0
    4.3478   -3.2697   -0.0000 N   0  0  0  0  0  0  0  0  0  0  0  0
   -4.0872    6.5276   -0.0000 F   0  0  0  0  0  0  0  0  0  0  0  0
   -5.3903    4.2767   -0.0000 C   0  0  0  0  0  0  0  0  0  0  0  0
   -6.6698    2.0021   -0.0000 F   0  0  0  0  0  0  0  0  0  0  0  0
    1.7415   -4.7743   -0.0000 C   0  0  0  0  0  0  0  0  0  0  0  0
    4.3359   -4.7506   -0.0000 C   0  0  0  0  0  0  0  0  0  0  0  0
    3.0328   -5.5088   -0.0000 C   0  0  0  0  0  0  0  0  0  0  0  0
    3.0209   -6.9896   -0.0000 F   0  0  0  0  0  0  0  0  0  0  0  0
  1  2  1  0  0  0  0
  1  3  1  0  0  0  0
  2  4  2  0  0  0  0
  5  2  1  1  0  0  0
  3  6  2  0  0  0  0
  5  7  1  0  0  0  0
  5  8  1  0  0  0  0
  5  9  1  0  0  0  0
  6 10  1  0  0  0  0
  7 11  1  0  0  0  0
  8 12  1  0  0  0  0
  8 13  1  6  0  0  0
  9 14  1  0  0  0  0
 10 15  2  0  0  0  0
 10 16  1  0  0  0  0
 11 17  2  0  0  0  0
 11 18  1  0  0  0  0
 12 19  2  0  0  0  0
 14 20  1  0  0  0  0
 15 21  1  0  0  0  0
 16 22  2  0  0  0  0
 18 23  1  0  0  0  0
 20 24  2  0  0  0  0
 20 25  1  0  0  0  0
 21 26  1  0  0  0  0
 21 27  2  0  0  0  0
 22 28  1  0  0  0  0
 24 29  1  0  0  0  0
 25 30  2  0  0  0  0
 29 31  2  0  0  0  0
 31 32  1  0  0  0  0
  4  6  1  0  0  0  0
 12 18  1  0  0  0  0
 13 14  1  0  0  0  0
 22 27  1  0  0  0  0
 30 31  1  0  0  0  0
M  END
>  <MolRegNo>
2330795

>  <m>
=

>  <Value>
1000

>  <Unit>
nM

>  <Type>
IC50

>  <pValue>
6

>  <Ligand Efficiency>
0

>  <Binding Efficiency>
0

>  <Surface Efficiency>
0

>  <Assay Index>
1215085

>  <Assay Category>


>  <Assay Organism>
Homo sapiens

>  <Target ID>
17045

>  <Target Name>
Cytochrome P450 3A4

>  <Target Organism>
Homo sapiens

>  <Target Description>
Target is a single protein chain

>  <Sequence Accession>
P08684

>  <Reference>
J Med Chem 61 (23), 10700-10708 (2018)

>  <Pubmed ID>
30388368

>  <DOI>
10.1021/acs.jmedchem.8b01326

$$$$
2317780
Actelion Java MolfileCreator 1.0

 34 38  0  0  0  0  0  0  0  0999 V2000
    0.0000   -0.0000   -0.0000 S   0  0  0  0  0  0  0  0  0  0  0  0
    0.8799    1.2247   -0.0000 C   0  0  0  0  0  0  0  0  0  0  0  0
   -1.4268    0.4756   -0.0000 C   0  0  0  0  0  0  0  0  0  0  0  0
   -0.0119    2.4494   -0.0000 C   0  0  0  0  0  0  0  0  0  0  0  0
    2.3662    1.2247   -0.0000 C   0  0  0  0  0  0  0  0  0  0  0  0
   -1.4268    1.9857   -0.0000 C   0  0  0  0  0  0  0  0  0  0  0  0
    1.5933    2.5326   -0.0000 N   0  0  0  0  0  0  0  0  0  0  0  0
    3.8525    1.2366   -0.0000 C   0  0  0  0  0  0  0  0  0  0  0  0
    1.8906   -0.1902   -0.0000 C   0  0  0  0  0  0  0  0  0  0  0  0
   -2.7467    2.7467   -0.0000 C   0  0  0  0  0  0  0  0  0  0  0  0
    2.3424    3.8406   -0.0000 C   0  0  0  0  0  0  0  0  0  0  0  0
    4.5778    2.5445   -0.0000 C   0  0  0  0  0  0  0  0  0  0  0  0
    4.3043   -0.1784   -0.0000 C   0  0  0  0  0  0  0  0  0  0  0  0
    3.0915   -1.0582   -0.0000 N   0  0  0  0  0  0  0  0  0  0  0  0
   -4.0427    2.0095   -0.0000 C   0  0  0  0  0  0  0  0  0  0  0  0
   -2.7586    4.2567   -0.0000 C   0  0  0  0  0  0  0  0  0  0  0  0
    1.5814    5.1485   -0.0000 N   0  0  0  0  0  0  0  0  0  0  0  0
    3.8287    3.8525   -0.0000 N   0  0  0  0  0  0  0  0  0  0  0  0
    6.0641    2.5564   -0.0000 O   0  0  0  0  0  0  0  0  0  0  0  0
    3.0796   -2.5445   -0.0000 C   0  0  0  0  0  0  0  0  0  0  0  0
   -5.3625    2.7586   -0.0000 C   0  0  0  0  0  0  0  0  0  0  0  0
   -4.0665    5.0177   -0.0000 C   0  0  0  0  0  0  0  0  0  0  0  0
    4.5659    5.1604   -0.0000 C   0  0  0  0  0  0  0  0  0  0  0  0
    1.7598   -3.2817   -0.0000 N   0  0  0  0  0  0  0  0  0  0  0  0
    4.3638   -3.2817   -0.0000 N   0  0  0  0  0  0  0  0  0  0  0  0
   -6.6586    2.0214   -0.0000 O   0  0  0  0  0  0  0  0  0  0  0  0
   -5.3863    4.2805   -0.0000 C   0  0  0  0  0  0  0  0  0  0  0  0
   -4.0903    6.5159   -0.0000 C   0  0  0  0  0  0  0  0  0  0  0  0
    1.7479   -4.7680   -0.0000 C   0  0  0  0  0  0  0  0  0  0  0  0
    4.3519   -4.7680   -0.0000 C   0  0  0  0  0  0  0  0  0  0  0  0
   -7.9665    2.7704   -0.0000 C   0  0  0  0  0  0  0  0  0  0  0  0
   -4.1022    8.0260   -0.0000 N   0  0  0  0  0  0  0  0  0  0  0  0
    3.0320   -5.5052   -0.0000 C   0  0  0  0  0  0  0  0  0  0  0  0
    3.0201   -6.9915   -0.0000 F   0  0  0  0  0  0  0  0  0  0  0  0
  1  2  1  0  0  0  0
  1  3  1  0  0  0  0
  2  4  2  0  0  0  0
  5  2  1  1  0  0  0
  3  6  2  0  0  0  0
  5  7  1  0  0  0  0
  5  8  1  0  0  0  0
  5  9  1  0  0  0  0
  6 10  1  0  0  0  0
  7 11  1  0  0  0  0
  8 12  1  0  0  0  0
  8 13  1  6  0  0  0
  9 14  1  0  0  0  0
 10 15  2  0  0  0  0
 10 16  1  0  0  0  0
 11 17  2  0  0  0  0
 11 18  1  0  0  0  0
 12 19  2  0  0  0  0
 14 20  1  0  0  0  0
 15 21  1  0  0  0  0
 16 22  2  0  0  0  0
 18 23  1  0  0  0  0
 20 24  2  0  0  0  0
 20 25  1  0  0  0  0
 21 26  1  0  0  0  0
 21 27  2  0  0  0  0
 22 28  1  0  0  0  0
 24 29  1  0  0  0  0
 25 30  2  0  0  0  0
 26 31  1  0  0  0  0
 28 32  3  0  0  0  0
 29 33  2  0  0  0  0
 33 34  1  0  0  0  0
  4  6  1  0  0  0  0
 12 18  1  0  0  0  0
 13 14  1  0  0  0  0
 22 27  1  0  0  0  0
 30 33  1  0  0  0  0
M  END
>  <MolRegNo>
2317780

>  <m>
=

>  <Value>
1600

>  <Unit>
nM

>  <Type>
IC50

>  <pValue>
5.8

>  <Ligand Efficiency>
0

>  <Binding Efficiency>
0

>  <Surface Efficiency>
0

>  <Assay Index>
1215085

>  <Assay Category>


>  <Assay Organism>
Homo sapiens

>  <Target ID>
17045

>  <Target Name>
Cytochrome P450 3A4

>  <Target Organism>
Homo sapiens

>  <Target Description>
Target is a single protein chain

>  <Sequence Accession>
P08684

>  <Reference>
J Med Chem 61 (23), 10700-10708 (2018)

>  <Pubmed ID>
30388368

>  <DOI>
10.1021/acs.jmedchem.8b01326

$$$$
2328092
Actelion Java MolfileCreator 1.0

 33 37  0  0  0  0  0  0  0  0999 V2000
    0.0000   -0.0000   -0.0000 S   0  0  0  0  0  0  0  0  0  0  0  0
    0.8797    1.2245   -0.0000 C   0  0  0  0  0  0  0  0  0  0  0  0
   -1.4266    0.4755   -0.0000 C   0  0  0  0  0  0  0  0  0  0  0  0
   -0.0119    2.4489   -0.0000 C   0  0  0  0  0  0  0  0  0  0  0  0
    2.3657    1.2245   -0.0000 C   0  0  0  0  0  0  0  0  0  0  0  0
   -1.4266    1.9853   -0.0000 C   0  0  0  0  0  0  0  0  0  0  0  0
    1.5930    2.5322   -0.0000 N   0  0  0  0  0  0  0  0  0  0  0  0
    3.8517    1.2364   -0.0000 C   0  0  0  0  0  0  0  0  0  0  0  0
    1.8902   -0.1902   -0.0000 C   0  0  0  0  0  0  0  0  0  0  0  0
   -2.7462    2.7462   -0.0000 C   0  0  0  0  0  0  0  0  0  0  0  0
    2.3420    3.8399   -0.0000 C   0  0  0  0  0  0  0  0  0  0  0  0
    4.5769    2.5441   -0.0000 C   0  0  0  0  0  0  0  0  0  0  0  0
    4.3035   -0.1783   -0.0000 C   0  0  0  0  0  0  0  0  0  0  0  0
    3.0909   -1.0580   -0.0000 N   0  0  0  0  0  0  0  0  0  0  0  0
   -4.0420    2.0091   -0.0000 C   0  0  0  0  0  0  0  0  0  0  0  0
   -2.7580    4.2678   -0.0000 C   0  0  0  0  0  0  0  0  0  0  0  0
    1.5811    5.1475   -0.0000 N   0  0  0  0  0  0  0  0  0  0  0  0
    3.8280    3.8517   -0.0000 N   0  0  0  0  0  0  0  0  0  0  0  0
    6.0629    2.5559   -0.0000 O   0  0  0  0  0  0  0  0  0  0  0  0
    3.0790   -2.5441   -0.0000 C   0  0  0  0  0  0  0  0  0  0  0  0
   -5.3615    2.7580   -0.0000 C   0  0  0  0  0  0  0  0  0  0  0  0
   -4.0657    5.0287   -0.0000 C   0  0  0  0  0  0  0  0  0  0  0  0
    4.5650    5.1594   -0.0000 C   0  0  0  0  0  0  0  0  0  0  0  0
    1.7594   -3.2811   -0.0000 N   0  0  0  0  0  0  0  0  0  0  0  0
    4.3629   -3.2811   -0.0000 N   0  0  0  0  0  0  0  0  0  0  0  0
   -6.6573    2.0210   -0.0000 F   0  0  0  0  0  0  0  0  0  0  0  0
   -5.3853    4.2797   -0.0000 C   0  0  0  0  0  0  0  0  0  0  0  0
   -4.0895    6.5266   -0.0000 C   0  0  0  0  0  0  0  0  0  0  0  0
    1.7476   -4.7671   -0.0000 C   0  0  0  0  0  0  0  0  0  0  0  0
    4.3510   -4.7671   -0.0000 C   0  0  0  0  0  0  0  0  0  0  0  0
   -4.1014    8.0364   -0.0000 N   0  0  0  0  0  0  0  0  0  0  0  0
    3.0315   -5.5042   -0.0000 C   0  0  0  0  0  0  0  0  0  0  0  0
    3.0196   -6.9902   -0.0000 F   0  0  0  0  0  0  0  0  0  0  0  0
  1  2  1  0  0  0  0
  1  3  1  0  0  0  0
  2  4  2  0  0  0  0
  5  2  1  1  0  0  0
  3  6  2  0  0  0  0
  5  7  1  0  0  0  0
  5  8  1  0  0  0  0
  5  9  1  0  0  0  0
  6 10  1  0  0  0  0
  7 11  1  0  0  0  0
  8 12  1  0  0  0  0
  8 13  1  6  0  0  0
  9 14  1  0  0  0  0
 10 15  2  0  0  0  0
 10 16  1  0  0  0  0
 11 17  2  0  0  0  0
 11 18  1  0  0  0  0
 12 19  2  0  0  0  0
 14 20  1  0  0  0  0
 15 21  1  0  0  0  0
 16 22  2  0  0  0  0
 18 23  1  0  0  0  0
 20 24  2  0  0  0  0
 20 25  1  0  0  0  0
 21 26  1  0  0  0  0
 21 27  2  0  0  0  0
 22 28  1  0  0  0  0
 24 29  1  0  0  0  0
 25 30  2  0  0  0  0
 28 31  3  0  0  0  0
 29 32  2  0  0  0  0
 32 33  1  0  0  0  0
  4  6  1  0  0  0  0
 12 18  1  0  0  0  0
 13 14  1  0  0  0  0
 22 27  1  0  0  0  0
 30 32  1  0  0  0  0
M  END
>  <MolRegNo>
2328092

>  <m>
=

>  <Value>
1600

>  <Unit>
nM

>  <Type>
IC50

>  <pValue>
5.8

>  <Ligand Efficiency>
0

>  <Binding Efficiency>
0

>  <Surface Efficiency>
0

>  <Assay Index>
1215085

>  <Assay Category>


>  <Assay Organism>
Homo sapiens

>  <Target ID>
17045

>  <Target Name>
Cytochrome P450 3A4

>  <Target Organism>
Homo sapiens

>  <Target Description>
Target is a single protein chain

>  <Sequence Accession>
P08684

>  <Reference>
J Med Chem 61 (23), 10700-10708 (2018)

>  <Pubmed ID>
30388368

>  <DOI>
10.1021/acs.jmedchem.8b01326

$$$$
2334417
Actelion Java MolfileCreator 1.0

 33 37  0  0  0  0  0  0  0  0999 V2000
    0.0000   -0.0000   -0.0000 Cl  0  0  0  0  0  0  0  0  0  0  0  0
    1.2907   -0.7290   -0.0000 C   0  0  0  0  0  0  0  0  0  0  0  0
    2.5813    0.0478   -0.0000 C   0  0  0  0  0  0  0  0  0  0  0  0
    1.2907   -2.2348   -0.0000 C   0  0  0  0  0  0  0  0  0  0  0  0
    2.5574    1.5536   -0.0000 C   0  0  0  0  0  0  0  0  0  0  0  0
    3.8720   -0.6931   -0.0000 C   0  0  0  0  0  0  0  0  0  0  0  0
    2.5933   -2.9638   -0.0000 C   0  0  0  0  0  0  0  0  0  0  0  0
    2.5455    3.0713   -0.0000 N   0  0  0  0  0  0  0  0  0  0  0  0
    3.8601   -2.1989   -0.0000 C   0  0  0  0  0  0  0  0  0  0  0  0
    5.1627   -2.9399   -0.0000 C   0  0  0  0  0  0  0  0  0  0  0  0
    5.1388   -4.4337   -0.0000 C   0  0  0  0  0  0  0  0  0  0  0  0
    6.5848   -2.4738   -0.0000 C   0  0  0  0  0  0  0  0  0  0  0  0
    6.5490   -4.8878   -0.0000 S   0  0  0  0  0  0  0  0  0  0  0  0
    7.4572   -3.6808   -0.0000 C   0  0  0  0  0  0  0  0  0  0  0  0
    8.9511   -3.6808   -0.0000 C   0  0  0  0  0  0  0  0  0  0  0  0
    8.1743   -2.3662   -0.0000 N   0  0  0  0  0  0  0  0  0  0  0  0
   10.4449   -3.6689   -0.0000 C   0  0  0  0  0  0  0  0  0  0  0  0
    8.4730   -5.1029   -0.0000 C   0  0  0  0  0  0  0  0  0  0  0  0
    8.9272   -1.0517   -0.0000 C   0  0  0  0  0  0  0  0  0  0  0  0
   11.1739   -2.3543   -0.0000 C   0  0  0  0  0  0  0  0  0  0  0  0
   10.8990   -5.0910   -0.0000 C   0  0  0  0  0  0  0  0  0  0  0  0
    9.6801   -5.9753   -0.0000 N   0  0  0  0  0  0  0  0  0  0  0  0
    8.1623    0.2629   -0.0000 N   0  0  0  0  0  0  0  0  0  0  0  0
   10.4210   -1.0397   -0.0000 N   0  0  0  0  0  0  0  0  0  0  0  0
   12.6677   -2.3423   -0.0000 O   0  0  0  0  0  0  0  0  0  0  0  0
    9.6681   -7.4692   -0.0000 C   0  0  0  0  0  0  0  0  0  0  0  0
   11.1619    0.2749   -0.0000 C   0  0  0  0  0  0  0  0  0  0  0  0
    8.3416   -8.2101   -0.0000 N   0  0  0  0  0  0  0  0  0  0  0  0
   10.9588   -8.2101   -0.0000 N   0  0  0  0  0  0  0  0  0  0  0  0
    8.3296   -9.7040   -0.0000 C   0  0  0  0  0  0  0  0  0  0  0  0
   10.9468   -9.7040   -0.0000 C   0  0  0  0  0  0  0  0  0  0  0  0
    9.6203  -10.4449   -0.0000 C   0  0  0  0  0  0  0  0  0  0  0  0
    9.6083  -11.9387   -0.0000 F   0  0  0  0  0  0  0  0  0  0  0  0
  1  2  1  0  0  0  0
  2  3  2  0  0  0  0
  2  4  1  0  0  0  0
  3  5  1  0  0  0  0
  3  6  1  0  0  0  0
  4  7  2  0  0  0  0
  5  8  3  0  0  0  0
  6  9  2  0  0  0  0
  9 10  1  0  0  0  0
 10 11  2  0  0  0  0
 10 12  1  0  0  0  0
 11 13  1  0  0  0  0
 12 14  2  0  0  0  0
 15 14  1  1  0  0  0
 15 16  1  0  0  0  0
 15 17  1  0  0  0  0
 15 18  1  0  0  0  0
 16 19  1  0  0  0  0
 17 20  1  0  0  0  0
 17 21  1  6  0  0  0
 18 22  1  0  0  0  0
 19 23  2  0  0  0  0
 19 24  1  0  0  0  0
 20 25  2  0  0  0  0
 22 26  1  0  0  0  0
 24 27  1  0  0  0  0
 26 28  2  0  0  0  0
 26 29  1  0  0  0  0
 28 30  1  0  0  0  0
 29 31  2  0  0  0  0
 30 32  2  0  0  0  0
 32 33  1  0  0  0  0
  7  9  1  0  0  0  0
 13 14  1  0  0  0  0
 20 24  1  0  0  0  0
 21 22  1  0  0  0  0
 31 32  1  0  0  0  0
M  END
>  <MolRegNo>
2334417

>  <m>
=

>  <Value>
5500

>  <Unit>
nM

>  <Type>
IC50

>  <pValue>
5.26

>  <Ligand Efficiency>
0

>  <Binding Efficiency>
0

>  <Surface Efficiency>
0

>  <Assay Index>
1215085

>  <Assay Category>


>  <Assay Organism>
Homo sapiens

>  <Target ID>
17045

>  <Target Name>
Cytochrome P450 3A4

>  <Target Organism>
Homo sapiens

>  <Target Description>
Target is a single protein chain

>  <Sequence Accession>
P08684

>  <Reference>
J Med Chem 61 (23), 10700-10708 (2018)

>  <Pubmed ID>
30388368

>  <DOI>
10.1021/acs.jmedchem.8b01326

$$$$
2326180
Actelion Java MolfileCreator 1.0

 33 37  0  0  0  0  0  0  0  0999 V2000
    0.0000   -0.0000   -0.0000 S   0  0  0  0  0  0  0  0  0  0  0  0
    0.8767    1.2203   -0.0000 C   0  0  0  0  0  0  0  0  0  0  0  0
   -1.4335    0.4857   -0.0000 C   0  0  0  0  0  0  0  0  0  0  0  0
   -0.0118    2.4405   -0.0000 C   0  0  0  0  0  0  0  0  0  0  0  0
    2.3576    1.2203   -0.0000 C   0  0  0  0  0  0  0  0  0  0  0  0
   -1.4335    1.9903   -0.0000 C   0  0  0  0  0  0  0  0  0  0  0  0
    1.5875    2.5234   -0.0000 N   0  0  0  0  0  0  0  0  0  0  0  0
    3.8503    1.2321   -0.0000 C   0  0  0  0  0  0  0  0  0  0  0  0
    1.8718   -0.1896   -0.0000 C   0  0  0  0  0  0  0  0  0  0  0  0
   -2.7485    2.7485   -0.0000 C   0  0  0  0  0  0  0  0  0  0  0  0
    2.3339    3.8385   -0.0000 C   0  0  0  0  0  0  0  0  0  0  0  0
    4.5848    2.5353   -0.0000 C   0  0  0  0  0  0  0  0  0  0  0  0
    4.3005   -0.1777   -0.0000 C   0  0  0  0  0  0  0  0  0  0  0  0
    3.0802   -1.0544   -0.0000 N   0  0  0  0  0  0  0  0  0  0  0  0
   -2.7604    4.2650   -0.0000 C   0  0  0  0  0  0  0  0  0  0  0  0
   -4.0517    2.0022   -0.0000 C   0  0  0  0  0  0  0  0  0  0  0  0
    1.5757    5.1416   -0.0000 N   0  0  0  0  0  0  0  0  0  0  0  0
    3.8266    3.8503   -0.0000 N   0  0  0  0  0  0  0  0  0  0  0  0
    6.0657    2.5471   -0.0000 O   0  0  0  0  0  0  0  0  0  0  0  0
    3.0684   -2.5353   -0.0000 C   0  0  0  0  0  0  0  0  0  0  0  0
   -4.0754    5.0232   -0.0000 C   0  0  0  0  0  0  0  0  0  0  0  0
   -5.3667    2.7485   -0.0000 C   0  0  0  0  0  0  0  0  0  0  0  0
    4.5611    5.1535   -0.0000 C   0  0  0  0  0  0  0  0  0  0  0  0
    1.7534   -3.2816   -0.0000 N   0  0  0  0  0  0  0  0  0  0  0  0
    4.3479   -3.2698   -0.0000 N   0  0  0  0  0  0  0  0  0  0  0  0
   -4.0991    6.5159   -0.0000 C   0  0  0  0  0  0  0  0  0  0  0  0
   -5.3904    4.2768   -0.0000 C   0  0  0  0  0  0  0  0  0  0  0  0
    1.7415   -4.7744   -0.0000 C   0  0  0  0  0  0  0  0  0  0  0  0
    4.3360   -4.7507   -0.0000 C   0  0  0  0  0  0  0  0  0  0  0  0
   -4.1109    8.0205   -0.0000 N   0  0  0  0  0  0  0  0  0  0  0  0
   -6.6936    5.0350   -0.0000 F   0  0  0  0  0  0  0  0  0  0  0  0
    3.0329   -5.5089   -0.0000 C   0  0  0  0  0  0  0  0  0  0  0  0
    3.0210   -6.9898   -0.0000 F   0  0  0  0  0  0  0  0  0  0  0  0
  1  2  1  0  0  0  0
  1  3  1  0  0  0  0
  2  4  2  0  0  0  0
  5  2  1  1  0  0  0
  3  6  2  0  0  0  0
  5  7  1  0  0  0  0
  5  8  1  0  0  0  0
  5  9  1  0  0  0  0
  6 10  1  0  0  0  0
  7 11  1  0  0  0  0
  8 12  1  0  0  0  0
  8 13  1  6  0  0  0
  9 14  1  0  0  0  0
 10 15  2  0  0  0  0
 10 16  1  0  0  0  0
 11 17  2  0  0  0  0
 11 18  1  0  0  0  0
 12 19  2  0  0  0  0
 14 20  1  0  0  0  0
 15 21  1  0  0  0  0
 16 22  2  0  0  0  0
 18 23  1  0  0  0  0
 20 24  2  0  0  0  0
 20 25  1  0  0  0  0
 21 26  1  0  0  0  0
 21 27  2  0  0  0  0
 24 28  1  0  0  0  0
 25 29  2  0  0  0  0
 26 30  3  0  0  0  0
 27 31  1  0  0  0  0
 28 32  2  0  0  0  0
 32 33  1  0  0  0  0
  4  6  1  0  0  0  0
 12 18  1  0  0  0  0
 13 14  1  0  0  0  0
 22 27  1  0  0  0  0
 29 32  1  0  0  0  0
M  END
>  <MolRegNo>
2326180

>  <m>
=

>  <Value>
5700

>  <Unit>
nM

>  <Type>
IC50

>  <pValue>
5.24

>  <Ligand Efficiency>
0

>  <Binding Efficiency>
0

>  <Surface Efficiency>
0

>  <Assay Index>
1215085

>  <Assay Category>


>  <Assay Organism>
Homo sapiens

>  <Target ID>
17045

>  <Target Name>
Cytochrome P450 3A4

>  <Target Organism>
Homo sapiens

>  <Target Description>
Target is a single protein chain

>  <Sequence Accession>
P08684

>  <Reference>
J Med Chem 61 (23), 10700-10708 (2018)

>  <Pubmed ID>
30388368

>  <DOI>
10.1021/acs.jmedchem.8b01326

$$$$
1746533
Actelion Java MolfileCreator 1.0

 32 35  0  0  0  0  0  0  0  0999 V2000
    0.0000   -0.0000   -0.0000 Br  0  0  0  0  0  0  0  0  0  0  0  0
    1.4901    0.0119   -0.0000 C   0  0  0  0  0  0  0  0  0  0  0  0
    2.2412    1.3232   -0.0000 C   0  0  0  0  0  0  0  0  0  0  0  0
    2.2292   -1.2875   -0.0000 C   0  0  0  0  0  0  0  0  0  0  0  0
    3.7313    1.3232   -0.0000 C   0  0  0  0  0  0  0  0  0  0  0  0
    3.7194   -1.2756   -0.0000 C   0  0  0  0  0  0  0  0  0  0  0  0
    4.4585    0.0238   -0.0000 C   0  0  0  0  0  0  0  0  0  0  0  0
    5.9486    0.0238   -0.0000 C   0  0  0  0  0  0  0  0  0  0  0  0
    6.6877    1.3352   -0.0000 C   0  0  0  0  0  0  0  0  0  0  0  0
    8.1898    1.3352   -0.0000 N   0  0  0  0  0  0  0  0  0  0  0  0
    8.9169    0.0358   -0.0000 C   0  0  0  0  0  0  0  0  0  0  0  0
    8.1301   -1.2517   -0.0000 O   0  0  0  0  0  0  0  0  0  0  0  0
   10.4071    0.0238   -0.0000 C   0  0  0  0  0  0  0  0  0  0  0  0
   11.1581    1.3352   -0.0000 C   0  0  0  0  0  0  0  0  0  0  0  0
   11.1343   -1.2756   -0.0000 C   0  0  0  0  0  0  0  0  0  0  0  0
   12.6601    1.3232   -0.0000 C   0  0  0  0  0  0  0  0  0  0  0  0
   12.6363   -1.2875   -0.0000 C   0  0  0  0  0  0  0  0  0  0  0  0
   13.3873    0.0238   -0.0000 C   0  0  0  0  0  0  0  0  0  0  0  0
   13.4231    2.6345   -0.0000 C   0  0  0  0  0  0  0  0  0  0  0  0
   12.9462    4.0889   -0.0000 S   0  0  0  0  0  0  0  0  0  0  0  0
   14.9132    2.6465   -0.0000 N   0  0  0  0  0  0  0  0  0  0  0  0
   14.1622    4.9830   -0.0000 C   0  0  0  0  0  0  0  0  0  0  0  0
   15.7835    1.4424   -0.0000 C   0  0  0  0  0  0  0  0  0  0  0  0
   15.3662    4.0889   -0.0000 C   0  0  0  0  0  0  0  0  0  0  0  0
   17.2736    1.6093   -0.0000 C   0  0  0  0  0  0  0  0  0  0  0  0
   15.1636    0.0715   -0.0000 C   0  0  0  0  0  0  0  0  0  0  0  0
   16.7848    4.5658   -0.0000 O   0  0  0  0  0  0  0  0  0  0  0  0
   17.8816    2.9922   -0.0000 O   0  0  0  0  0  0  0  0  0  0  0  0
   18.1438    0.3934   -0.0000 C   0  0  0  0  0  0  0  0  0  0  0  0
   16.0338   -1.1444   -0.0000 C   0  0  0  0  0  0  0  0  0  0  0  0
   19.3717    3.1591   -0.0000 C   0  0  0  0  0  0  0  0  0  0  0  0
   17.5239   -0.9775   -0.0000 C   0  0  0  0  0  0  0  0  0  0  0  0
  1  2  1  0  0  0  0
  2  3  2  0  0  0  0
  2  4  1  0  0  0  0
  3  5  1  0  0  0  0
  4  6  2  0  0  0  0
  5  7  2  0  0  0  0
  7  8  1  0  0  0  0
  8  9  1  0  0  0  0
  9 10  1  0  0  0  0
 10 11  1  0  0  0  0
 11 12  2  0  0  0  0
 11 13  1  0  0  0  0
 13 14  2  0  0  0  0
 13 15  1  0  0  0  0
 14 16  1  0  0  0  0
 15 17  2  0  0  0  0
 16 18  2  0  0  0  0
 16 19  1  0  0  0  0
 19 20  1  0  0  0  0
 19 21  1  0  0  0  0
 20 22  1  0  0  0  0
 21 23  1  0  0  0  0
 21 24  1  0  0  0  0
 23 25  2  0  0  0  0
 23 26  1  0  0  0  0
 24 27  2  0  0  0  0
 25 28  1  0  0  0  0
 25 29  1  0  0  0  0
 26 30  2  0  0  0  0
 28 31  1  0  0  0  0
 29 32  2  0  0  0  0
  6  7  1  0  0  0  0
 17 18  1  0  0  0  0
 22 24  1  0  0  0  0
 30 32  1  0  0  0  0
M  END
>  <MolRegNo>
1746533

>  <m>
=

>  <Value>
19540

>  <Unit>
nM

>  <Type>
IC50

>  <pValue>
4.71

>  <Ligand Efficiency>
0

>  <Binding Efficiency>
0

>  <Surface Efficiency>
0

>  <Assay Index>
1221758

>  <Assay Category>


>  <Assay Organism>
Homo sapiens

>  <Target ID>
17045

>  <Target Name>
Cytochrome P450 3A4

>  <Target Organism>
Homo sapiens

>  <Target Description>
Target is a single protein chain

>  <Sequence Accession>
P08684

>  <Reference>
J Med Chem 62 (10), 4949-4966 (2019)

>  <Pubmed ID>
31026162

>  <DOI>
10.1021/acs.jmedchem.9b00059

$$$$
2398518
Actelion Java MolfileCreator 1.0

 33 36  0  0  0  0  0  0  0  0999 V2000
    0.0000   -0.0000   -0.0000 O   0  0  0  0  0  0  0  0  0  0  0  0
    1.2914   -0.7414   -0.0000 C   0  0  0  0  0  0  0  0  0  0  0  0
    2.5829    0.0239   -0.0000 N   0  0  0  0  0  0  0  0  0  0  0  0
    1.2795   -2.2361   -0.0000 C   0  0  0  0  0  0  0  0  0  0  0  0
    3.8743   -0.7175   -0.0000 C   0  0  0  0  0  0  0  0  0  0  0  0
    2.5709   -2.9775   -0.0000 C   0  0  0  0  0  0  0  0  0  0  0  0
   -0.0359   -2.9775   -0.0000 C   0  0  0  0  0  0  0  0  0  0  0  0
    5.1658    0.0478   -0.0000 C   0  0  0  0  0  0  0  0  0  0  0  0
    2.5590   -4.4842   -0.0000 C   0  0  0  0  0  0  0  0  0  0  0  0
   -0.0478   -4.4842   -0.0000 C   0  0  0  0  0  0  0  0  0  0  0  0
    6.4572   -0.6936   -0.0000 C   0  0  0  0  0  0  0  0  0  0  0  0
    3.8504   -5.2256   -0.0000 N   0  0  0  0  0  0  0  0  0  0  0  0
    1.2317   -5.2256   -0.0000 C   0  0  0  0  0  0  0  0  0  0  0  0
    7.7367    0.0837   -0.0000 C   0  0  0  0  0  0  0  0  0  0  0  0
    5.2136   -4.5918   -0.0000 N   0  0  0  0  0  0  0  0  0  0  0  0
    3.9939   -6.7083   -0.0000 C   0  0  0  0  0  0  0  0  0  0  0  0
    9.0282   -0.6457   -0.0000 C   0  0  0  0  0  0  0  0  0  0  0  0
    6.2181   -5.7039   -0.0000 C   0  0  0  0  0  0  0  0  0  0  0  0
    5.4528   -7.0073   -0.0000 N   0  0  0  0  0  0  0  0  0  0  0  0
    2.8699   -7.7128   -0.0000 C   0  0  0  0  0  0  0  0  0  0  0  0
    9.0282   -2.1405   -0.0000 C   0  0  0  0  0  0  0  0  0  0  0  0
   10.3077    0.1315   -0.0000 C   0  0  0  0  0  0  0  0  0  0  0  0
    7.7008   -5.5365   -0.0000 C   0  0  0  0  0  0  0  0  0  0  0  0
    1.4230   -7.2345   -0.0000 C   0  0  0  0  0  0  0  0  0  0  0  0
    3.1808   -9.1717   -0.0000 C   0  0  0  0  0  0  0  0  0  0  0  0
   10.3196   -2.8699   -0.0000 C   0  0  0  0  0  0  0  0  0  0  0  0
   11.5991   -0.5979   -0.0000 C   0  0  0  0  0  0  0  0  0  0  0  0
    0.2870   -8.2270   -0.0000 C   0  0  0  0  0  0  0  0  0  0  0  0
    2.0567  -10.1761   -0.0000 C   0  0  0  0  0  0  0  0  0  0  0  0
   11.6111   -2.0926   -0.0000 C   0  0  0  0  0  0  0  0  0  0  0  0
    0.5859   -9.6858   -0.0000 C   0  0  0  0  0  0  0  0  0  0  0  0
   -0.5381  -10.6903   -0.0000 O   0  0  0  0  0  0  0  0  0  0  0  0
   -1.9850  -10.2120   -0.0000 C   0  0  0  0  0  0  0  0  0  0  0  0
  1  2  2  0  0  0  0
  2  3  1  0  0  0  0
  2  4  1  0  0  0  0
  3  5  1  0  0  0  0
  4  6  2  0  0  0  0
  4  7  1  0  0  0  0
  5  8  1  0  0  0  0
  6  9  1  0  0  0  0
  7 10  2  0  0  0  0
  8 11  1  0  0  0  0
  9 12  1  0  0  0  0
  9 13  2  0  0  0  0
 11 14  1  0  0  0  0
 12 15  1  0  0  0  0
 12 16  1  0  0  0  0
 14 17  1  0  0  0  0
 15 18  2  0  0  0  0
 16 19  2  0  0  0  0
 16 20  1  0  0  0  0
 17 21  2  0  0  0  0
 17 22  1  0  0  0  0
 18 23  1  0  0  0  0
 20 24  2  0  0  0  0
 20 25  1  0  0  0  0
 21 26  1  0  0  0  0
 22 27  2  0  0  0  0
 24 28  1  0  0  0  0
 25 29  2  0  0  0  0
 26 30  2  0  0  0  0
 28 31  2  0  0  0  0
 31 32  1  0  0  0  0
 32 33  1  0  0  0  0
 10 13  1  0  0  0  0
 18 19  1  0  0  0  0
 27 30  1  0  0  0  0
 29 31  1  0  0  0  0
M  END
>  <MolRegNo>
2398518

>  <m>
=

>  <Value>
36880

>  <Unit>
nM

>  <Type>
IC50

>  <pValue>
4.43

>  <Ligand Efficiency>
0

>  <Binding Efficiency>
0

>  <Surface Efficiency>
0

>  <Assay Index>
1221758

>  <Assay Category>


>  <Assay Organism>
Homo sapiens

>  <Target ID>
17045

>  <Target Name>
Cytochrome P450 3A4

>  <Target Organism>
Homo sapiens

>  <Target Description>
Target is a single protein chain

>  <Sequence Accession>
P08684

>  <Reference>
J Med Chem 62 (10), 4949-4966 (2019)

>  <Pubmed ID>
31026162

>  <DOI>
10.1021/acs.jmedchem.9b00059

$$$$
2457558
Actelion Java MolfileCreator 1.0

 33 36  0  0  0  0  0  0  0  0999 V2000
    0.0000   -0.0000   -0.0000 O   0  0  0  0  0  0  0  0  0  0  0  0
    1.2904   -0.7408   -0.0000 C   0  0  0  0  0  0  0  0  0  0  0  0
    2.5809    0.0239   -0.0000 N   0  0  0  0  0  0  0  0  0  0  0  0
    1.2785   -2.2344   -0.0000 C   0  0  0  0  0  0  0  0  0  0  0  0
    3.8713   -0.7169   -0.0000 C   0  0  0  0  0  0  0  0  0  0  0  0
    2.5690   -2.9752   -0.0000 C   0  0  0  0  0  0  0  0  0  0  0  0
   -0.0358   -2.9752   -0.0000 C   0  0  0  0  0  0  0  0  0  0  0  0
    5.1618    0.0478   -0.0000 C   0  0  0  0  0  0  0  0  0  0  0  0
    2.5570   -4.4807   -0.0000 C   0  0  0  0  0  0  0  0  0  0  0  0
   -0.0478   -4.4807   -0.0000 C   0  0  0  0  0  0  0  0  0  0  0  0
    6.4522   -0.6930   -0.0000 C   0  0  0  0  0  0  0  0  0  0  0  0
    3.8475   -5.2215   -0.0000 C   0  0  0  0  0  0  0  0  0  0  0  0
    1.2307   -5.2215   -0.0000 C   0  0  0  0  0  0  0  0  0  0  0  0
    7.7427    0.0717   -0.0000 C   0  0  0  0  0  0  0  0  0  0  0  0
    5.2096   -4.5883   -0.0000 N   0  0  0  0  0  0  0  0  0  0  0  0
    3.9908   -6.7032   -0.0000 N   0  0  0  0  0  0  0  0  0  0  0  0
    9.0331   -0.6691   -0.0000 C   0  0  0  0  0  0  0  0  0  0  0  0
    6.2133   -5.6995   -0.0000 C   0  0  0  0  0  0  0  0  0  0  0  0
    5.4486   -7.0019   -0.0000 N   0  0  0  0  0  0  0  0  0  0  0  0
    2.8677   -7.7069   -0.0000 C   0  0  0  0  0  0  0  0  0  0  0  0
    9.0212   -2.1627   -0.0000 C   0  0  0  0  0  0  0  0  0  0  0  0
   10.3117    0.1075   -0.0000 C   0  0  0  0  0  0  0  0  0  0  0  0
    7.6949   -5.5322   -0.0000 C   0  0  0  0  0  0  0  0  0  0  0  0
    1.4219   -7.2289   -0.0000 C   0  0  0  0  0  0  0  0  0  0  0  0
    3.1783   -9.1646   -0.0000 C   0  0  0  0  0  0  0  0  0  0  0  0
   10.3117   -2.9035   -0.0000 C   0  0  0  0  0  0  0  0  0  0  0  0
   11.6021   -0.6213   -0.0000 C   0  0  0  0  0  0  0  0  0  0  0  0
    0.2868   -8.2206   -0.0000 C   0  0  0  0  0  0  0  0  0  0  0  0
    2.0552  -10.1683   -0.0000 C   0  0  0  0  0  0  0  0  0  0  0  0
   11.6021   -2.1388   -0.0000 C   0  0  0  0  0  0  0  0  0  0  0  0
    0.5855   -9.6903   -0.0000 C   0  0  0  0  0  0  0  0  0  0  0  0
   -0.5377  -10.6940   -0.0000 O   0  0  0  0  0  0  0  0  0  0  0  0
   -1.9835  -10.2161   -0.0000 C   0  0  0  0  0  0  0  0  0  0  0  0
  1  2  2  0  0  0  0
  2  3  1  0  0  0  0
  2  4  1  0  0  0  0
  3  5  1  0  0  0  0
  4  6  2  0  0  0  0
  4  7  1  0  0  0  0
  5  8  1  0  0  0  0
  6  9  1  0  0  0  0
  7 10  2  0  0  0  0
  8 11  1  0  0  0  0
  9 12  1  0  0  0  0
  9 13  2  0  0  0  0
 11 14  1  0  0  0  0
 12 15  2  0  0  0  0
 12 16  1  0  0  0  0
 14 17  1  0  0  0  0
 15 18  1  0  0  0  0
 16 19  1  0  0  0  0
 16 20  1  0  0  0  0
 17 21  2  0  0  0  0
 17 22  1  0  0  0  0
 18 23  1  0  0  0  0
 20 24  2  0  0  0  0
 20 25  1  0  0  0  0
 21 26  1  0  0  0  0
 22 27  2  0  0  0  0
 24 28  1  0  0  0  0
 25 29  2  0  0  0  0
 26 30  2  0  0  0  0
 28 31  2  0  0  0  0
 31 32  1  0  0  0  0
 32 33  1  0  0  0  0
 10 13  1  0  0  0  0
 18 19  2  0  0  0  0
 27 30  1  0  0  0  0
 29 31  1  0  0  0  0
M  END
>  <MolRegNo>
2457558

>  <m>
=

>  <Value>
37690

>  <Unit>
nM

>  <Type>
IC50

>  <pValue>
4.42

>  <Ligand Efficiency>
0

>  <Binding Efficiency>
0

>  <Surface Efficiency>
0

>  <Assay Index>
1221758

>  <Assay Category>


>  <Assay Organism>
Homo sapiens

>  <Target ID>
17045

>  <Target Name>
Cytochrome P450 3A4

>  <Target Organism>
Homo sapiens

>  <Target Description>
Target is a single protein chain

>  <Sequence Accession>
P08684

>  <Reference>
J Med Chem 62 (10), 4949-4966 (2019)

>  <Pubmed ID>
31026162

>  <DOI>
10.1021/acs.jmedchem.9b00059

$$$$
2370048
Actelion Java MolfileCreator 1.0

 29 32  0  0  0  0  0  0  0  0999 V2000
    0.0000   -0.0000   -0.0000 F   0  0  0  0  0  0  0  0  0  0  0  0
   -0.0119    1.5115   -0.0000 C   0  0  0  0  0  0  0  0  0  0  0  0
    1.2734    2.2731   -0.0000 F   0  0  0  0  0  0  0  0  0  0  0  0
    1.2734    0.7736   -0.0000 F   0  0  0  0  0  0  0  0  0  0  0  0
   -1.3210    2.2731   -0.0000 C   0  0  0  0  0  0  0  0  0  0  0  0
   -2.6421    1.5353   -0.0000 C   0  0  0  0  0  0  0  0  0  0  0  0
   -1.3329    3.7965   -0.0000 C   0  0  0  0  0  0  0  0  0  0  0  0
   -3.9512    2.2969   -0.0000 C   0  0  0  0  0  0  0  0  0  0  0  0
   -2.6540    0.0476   -0.0000 C   0  0  0  0  0  0  0  0  0  0  0  0
   -2.6421    4.5582   -0.0000 C   0  0  0  0  0  0  0  0  0  0  0  0
   -3.9631    3.8203   -0.0000 C   0  0  0  0  0  0  0  0  0  0  0  0
   -3.9750   -0.6903   -0.0000 C   0  0  0  0  0  0  0  0  0  0  0  0
   -1.3686   -0.6903   -0.0000 C   0  0  0  0  0  0  0  0  0  0  0  0
   -3.9869   -2.1779   -0.0000 C   0  0  0  0  0  0  0  0  0  0  0  0
   -1.3924   -2.1898   -0.0000 C   0  0  0  0  0  0  0  0  0  0  0  0
   -2.7016   -2.9277   -0.0000 N   0  0  0  0  0  0  0  0  0  0  0  0
   -2.7135   -4.4153   -0.0000 C   0  0  0  0  0  0  0  0  0  0  0  0
   -4.0345   -5.1532   -0.0000 O   0  0  0  0  0  0  0  0  0  0  0  0
   -1.4281   -5.1651   -0.0000 C   0  0  0  0  0  0  0  0  0  0  0  0
   -1.2853   -6.6528   -0.0000 N   0  0  0  0  0  0  0  0  0  0  0  0
   -0.0595   -4.5582   -0.0000 N   0  0  0  0  0  0  0  0  0  0  0  0
    0.1666   -6.9622   -0.0000 N   0  0  0  0  0  0  0  0  0  0  0  0
    0.9283   -5.6650   -0.0000 C   0  0  0  0  0  0  0  0  0  0  0  0
    0.3927   -3.1300   -0.0000 C   0  0  0  0  0  0  0  0  0  0  0  0
    2.3802   -5.3555   -0.0000 C   0  0  0  0  0  0  0  0  0  0  0  0
    1.8447   -2.8087   -0.0000 C   0  0  0  0  0  0  0  0  0  0  0  0
    2.8444   -3.9155   -0.0000 C   0  0  0  0  0  0  0  0  0  0  0  0
    2.2969   -1.3805   -0.0000 C   0  0  0  0  0  0  0  0  0  0  0  0
    2.7492    0.0595   -0.0000 N   0  0  0  0  0  0  0  0  0  0  0  0
  1  2  1  0  0  0  0
  2  3  1  0  0  0  0
  2  4  1  0  0  0  0
  2  5  1  0  0  0  0
  5  6  2  0  0  0  0
  5  7  1  0  0  0  0
  6  8  1  0  0  0  0
  6  9  1  0  0  0  0
  7 10  2  0  0  0  0
  8 11  2  0  0  0  0
  9 12  1  0  0  0  0
  9 13  1  0  0  0  0
 12 14  1  0  0  0  0
 13 15  1  0  0  0  0
 14 16  1  0  0  0  0
 16 17  1  0  0  0  0
 17 18  2  0  0  0  0
 17 19  1  0  0  0  0
 19 20  2  0  0  0  0
 19 21  1  0  0  0  0
 20 22  1  0  0  0  0
 21 23  1  0  0  0  0
 21 24  1  0  0  0  0
 23 25  1  0  0  0  0
 24 26  2  0  0  0  0
 25 27  2  0  0  0  0
 26 28  1  0  0  0  0
 28 29  3  0  0  0  0
 10 11  1  0  0  0  0
 15 16  1  0  0  0  0
 22 23  2  0  0  0  0
 26 27  1  0  0  0  0
M  END
>  <MolRegNo>
2370048

>  <m>
=

>  <Value>
50000

>  <Unit>
nM

>  <Type>
IC50

>  <pValue>
4.3

>  <Ligand Efficiency>
0

>  <Binding Efficiency>
0

>  <Surface Efficiency>
0

>  <Assay Index>
1222048

>  <Assay Category>


>  <Assay Organism>
Homo sapiens

>  <Target ID>
17045

>  <Target Name>
Cytochrome P450 3A4

>  <Target Organism>
Homo sapiens

>  <Target Description>
Target is a single protein chain

>  <Sequence Accession>
P08684

>  <Reference>
J Med Chem 62 (11), 5470-5500 (2019)

>  <Pubmed ID>
31079449

>  <DOI>
10.1021/acs.jmedchem.9b00352

$$$$
2164242
Actelion Java MolfileCreator 1.0

 30 33  0  0  0  0  0  0  0  0999 V2000
    0.0000   -0.0000   -0.0000 F   0  0  0  0  0  0  0  0  0  0  0  0
    0.8171    0.9391   -0.0000 C   0  0  0  0  0  0  0  0  0  0  0  0
    0.3171    2.4269   -0.0000 C   0  0  0  0  0  0  0  0  0  0  0  0
    2.3172    0.6342   -0.0000 C   0  0  0  0  0  0  0  0  0  0  0  0
    1.3415    3.5977   -0.0000 C   0  0  0  0  0  0  0  0  0  0  0  0
   -1.2074    2.7562   -0.0000 C   0  0  0  0  0  0  0  0  0  0  0  0
    3.3416    1.8050   -0.0000 C   0  0  0  0  0  0  0  0  0  0  0  0
    2.8416    3.2928   -0.0000 C   0  0  0  0  0  0  0  0  0  0  0  0
    0.8415    5.0856   -0.0000 C   0  0  0  0  0  0  0  0  0  0  0  0
   -1.6098    3.9392   -0.0000 F   0  0  0  0  0  0  0  0  0  0  0  0
   -2.0489    1.8416   -0.0000 F   0  0  0  0  0  0  0  0  0  0  0  0
   -2.4269    3.0245   -0.0000 F   0  0  0  0  0  0  0  0  0  0  0  0
   -0.6830    5.4149   -0.0000 C   0  0  0  0  0  0  0  0  0  0  0  0
    1.8659    6.2564   -0.0000 C   0  0  0  0  0  0  0  0  0  0  0  0
   -1.1830    6.9028   -0.0000 C   0  0  0  0  0  0  0  0  0  0  0  0
    1.3659    7.7443   -0.0000 C   0  0  0  0  0  0  0  0  0  0  0  0
   -0.1585    8.0736   -0.0000 N   0  0  0  0  0  0  0  0  0  0  0  0
   -0.6464    9.5614   -0.0000 C   0  0  0  0  0  0  0  0  0  0  0  0
   -1.8659    9.8297   -0.0000 O   0  0  0  0  0  0  0  0  0  0  0  0
    0.3781   10.7200   -0.0000 C   0  0  0  0  0  0  0  0  0  0  0  0
    1.9025   10.5737   -0.0000 N   0  0  0  0  0  0  0  0  0  0  0  0
    0.0488   12.2445   -0.0000 N   0  0  0  0  0  0  0  0  0  0  0  0
    2.5245   12.0006   -0.0000 N   0  0  0  0  0  0  0  0  0  0  0  0
    1.3781   13.0250   -0.0000 C   0  0  0  0  0  0  0  0  0  0  0  0
   -1.3049   13.0250   -0.0000 C   0  0  0  0  0  0  0  0  0  0  0  0
    1.3659   14.5861   -0.0000 C   0  0  0  0  0  0  0  0  0  0  0  0
   -1.3171   14.5861   -0.0000 C   0  0  0  0  0  0  0  0  0  0  0  0
    0.0122   15.3666   -0.0000 C   0  0  0  0  0  0  0  0  0  0  0  0
   -2.6709   15.3788   -0.0000 C   0  0  0  0  0  0  0  0  0  0  0  0
   -3.7563   16.0130   -0.0000 N   0  0  0  0  0  0  0  0  0  0  0  0
  1  2  1  0  0  0  0
  2  3  2  0  0  0  0
  2  4  1  0  0  0  0
  3  5  1  0  0  0  0
  3  6  1  0  0  0  0
  4  7  2  0  0  0  0
  5  8  2  0  0  0  0
  5  9  1  0  0  0  0
  6 10  1  0  0  0  0
  6 11  1  0  0  0  0
  6 12  1  0  0  0  0
  9 13  1  0  0  0  0
  9 14  1  0  0  0  0
 13 15  1  0  0  0  0
 14 16  1  0  0  0  0
 15 17  1  0  0  0  0
 17 18  1  0  0  0  0
 18 19  2  0  0  0  0
 18 20  1  0  0  0  0
 20 21  2  0  0  0  0
 20 22  1  0  0  0  0
 21 23  1  0  0  0  0
 22 24  1  0  0  0  0
 22 25  1  0  0  0  0
 24 26  1  0  0  0  0
 25 27  2  0  0  0  0
 26 28  2  0  0  0  0
 27 29  1  0  0  0  0
 29 30  3  0  0  0  0
  7  8  1  0  0  0  0
 16 17  1  0  0  0  0
 23 24  2  0  0  0  0
 27 28  1  0  0  0  0
M  END
>  <MolRegNo>
2164242

>  <m>
=

>  <Value>
74000

>  <Unit>
nM

>  <Type>
IC50

>  <pValue>
4.13

>  <Ligand Efficiency>
0

>  <Binding Efficiency>
0

>  <Surface Efficiency>
0

>  <Assay Index>
1222048

>  <Assay Category>


>  <Assay Organism>
Homo sapiens

>  <Target ID>
17045

>  <Target Name>
Cytochrome P450 3A4

>  <Target Organism>
Homo sapiens

>  <Target Description>
Target is a single protein chain

>  <Sequence Accession>
P08684

>  <Reference>
J Med Chem 62 (11), 5470-5500 (2019)

>  <Pubmed ID>
31079449

>  <DOI>
10.1021/acs.jmedchem.9b00352

$$$$
515426
Actelion Java MolfileCreator 1.0

 33 37  0  0  0  0  0  0  0  0999 V2000
    0.0000   -0.0000   -0.0000 Cl  0  0  0  0  0  0  0  0  0  0  0  0
    1.2907    0.7697   -0.0000 C   0  0  0  0  0  0  0  0  0  0  0  0
    2.5815    0.0237   -0.0000 C   0  0  0  0  0  0  0  0  0  0  0  0
    1.2789    2.2854   -0.0000 C   0  0  0  0  0  0  0  0  0  0  0  0
    3.8722    0.7934   -0.0000 C   0  0  0  0  0  0  0  0  0  0  0  0
    2.5696    3.0433   -0.0000 C   0  0  0  0  0  0  0  0  0  0  0  0
    5.1629    0.0474   -0.0000 N   0  0  0  0  0  0  0  0  0  0  0  0
    3.8604    2.3091   -0.0000 C   0  0  0  0  0  0  0  0  0  0  0  0
    6.4537    0.8171   -0.0000 C   0  0  0  0  0  0  0  0  0  0  0  0
    5.1511    3.0670   -0.0000 C   0  0  0  0  0  0  0  0  0  0  0  0
    6.4418    2.3328   -0.0000 C   0  0  0  0  0  0  0  0  0  0  0  0
    7.7444    0.0710   -0.0000 C   0  0  0  0  0  0  0  0  0  0  0  0
    5.1392    4.5827   -0.0000 N   0  0  0  0  0  0  0  0  0  0  0  0
    7.7325    3.0906   -0.0000 C   0  0  0  0  0  0  0  0  0  0  0  0
    9.0351    0.8408   -0.0000 C   0  0  0  0  0  0  0  0  0  0  0  0
    6.4300    5.3405   -0.0000 C   0  0  0  0  0  0  0  0  0  0  0  0
    9.0233    2.3565   -0.0000 C   0  0  0  0  0  0  0  0  0  0  0  0
    6.4181    6.8563   -0.0000 C   0  0  0  0  0  0  0  0  0  0  0  0
    7.7207    4.6064   -0.0000 C   0  0  0  0  0  0  0  0  0  0  0  0
   10.3140    3.1143   -0.0000 O   0  0  0  0  0  0  0  0  0  0  0  0
    7.7089    7.6141   -0.0000 C   0  0  0  0  0  0  0  0  0  0  0  0
    9.0114    5.3642   -0.0000 C   0  0  0  0  0  0  0  0  0  0  0  0
   11.6047    2.3802   -0.0000 C   0  0  0  0  0  0  0  0  0  0  0  0
    8.9996    6.8800   -0.0000 C   0  0  0  0  0  0  0  0  0  0  0  0
    7.6970    9.1298   -0.0000 C   0  0  0  0  0  0  0  0  0  0  0  0
   10.2903    7.6378   -0.0000 O   0  0  0  0  0  0  0  0  0  0  0  0
    8.9877    9.8877   -0.0000 N   0  0  0  0  0  0  0  0  0  0  0  0
    8.9759   11.4034   -0.0000 C   0  0  0  0  0  0  0  0  0  0  0  0
   10.2785    9.1535   -0.0000 C   0  0  0  0  0  0  0  0  0  0  0  0
   10.2666   12.1731   -0.0000 C   0  0  0  0  0  0  0  0  0  0  0  0
   11.5692    9.9114   -0.0000 C   0  0  0  0  0  0  0  0  0  0  0  0
   11.5574   11.4271   -0.0000 N   0  0  0  0  0  0  0  0  0  0  0  0
   12.8481   12.1968   -0.0000 C   0  0  0  0  0  0  0  0  0  0  0  0
  1  2  1  0  0  0  0
  2  3  2  0  0  0  0
  2  4  1  0  0  0  0
  3  5  1  0  0  0  0
  4  6  2  0  0  0  0
  5  7  2  0  0  0  0
  5  8  1  0  0  0  0
  7  9  1  0  0  0  0
  8 10  2  0  0  0  0
  9 11  1  0  0  0  0
  9 12  2  0  0  0  0
 10 13  1  0  0  0  0
 11 14  2  0  0  0  0
 12 15  1  0  0  0  0
 13 16  1  0  0  0  0
 14 17  1  0  0  0  0
 16 18  2  0  0  0  0
 16 19  1  0  0  0  0
 17 20  1  0  0  0  0
 18 21  1  0  0  0  0
 19 22  2  0  0  0  0
 20 23  1  0  0  0  0
 21 24  2  0  0  0  0
 21 25  1  0  0  0  0
 24 26  1  0  0  0  0
 25 27  1  0  0  0  0
 27 28  1  0  0  0  0
 27 29  1  0  0  0  0
 28 30  1  0  0  0  0
 29 31  1  0  0  0  0
 30 32  1  0  0  0  0
 32 33  1  0  0  0  0
  6  8  1  0  0  0  0
 10 11  1  0  0  0  0
 15 17  2  0  0  0  0
 22 24  1  0  0  0  0
 31 32  1  0  0  0  0
M  END
>  <MolRegNo>
515426

>  <m>
=

>  <Value>
1000

>  <Unit>
nM

>  <Type>
IC50

>  <pValue>
6

>  <Ligand Efficiency>
0

>  <Binding Efficiency>
0

>  <Surface Efficiency>
0

>  <Assay Index>
1229716

>  <Assay Category>


>  <Assay Organism>
Homo sapiens

>  <Target ID>
17045

>  <Target Name>
Cytochrome P450 3A4

>  <Target Organism>
Homo sapiens

>  <Target Description>
Target is a single protein chain

>  <Sequence Accession>
P08684

>  <Reference>
J Med Chem 62 (17), 7684-7696 (2019)

>  <Pubmed ID>
31369707

>  <DOI>
10.1021/acs.jmedchem.9b00326

$$$$
2349864
Actelion Java MolfileCreator 1.0

 26 29  0  0  0  0  0  0  0  0999 V2000
    0.0000   -0.0000   -0.0000 F   0  0  0  0  0  0  0  0  0  0  0  0
    0.9990   -1.1060   -0.0000 C   0  0  0  0  0  0  0  0  0  0  0  0
    0.5233   -2.5451   -0.0000 C   0  0  0  0  0  0  0  0  0  0  0  0
    2.4737   -0.7849   -0.0000 C   0  0  0  0  0  0  0  0  0  0  0  0
    1.5223   -3.6511   -0.0000 N   0  0  0  0  0  0  0  0  0  0  0  0
    3.4727   -1.9029   -0.0000 C   0  0  0  0  0  0  0  0  0  0  0  0
    2.9851   -3.3300   -0.0000 C   0  0  0  0  0  0  0  0  0  0  0  0
    4.9712   -1.8910   -0.0000 C   0  0  0  0  0  0  0  0  0  0  0  0
    4.1982   -4.1982   -0.0000 N   0  0  0  0  0  0  0  0  0  0  0  0
    5.4351   -3.3181   -0.0000 C   0  0  0  0  0  0  0  0  0  0  0  0
    6.2676   -1.1179   -0.0000 C   0  0  0  0  0  0  0  0  0  0  0  0
    7.5639   -1.8553   -0.0000 C   0  0  0  0  0  0  0  0  0  0  0  0
    8.8602   -1.0823   -0.0000 N   0  0  0  0  0  0  0  0  0  0  0  0
   10.1565   -1.8196   -0.0000 C   0  0  0  0  0  0  0  0  0  0  0  0
   11.4529   -1.0466   -0.0000 C   0  0  0  0  0  0  0  0  0  0  0  0
   12.6660   -1.9148   -0.0000 O   0  0  0  0  0  0  0  0  0  0  0  0
   11.9167    0.4044   -0.0000 C   0  0  0  0  0  0  0  0  0  0  0  0
   13.8790   -1.0228   -0.0000 C   0  0  0  0  0  0  0  0  0  0  0  0
   13.4152    0.4163   -0.0000 C   0  0  0  0  0  0  0  0  0  0  0  0
   15.1754   -1.7602   -0.0000 C   0  0  0  0  0  0  0  0  0  0  0  0
   15.1516   -3.2587   -0.0000 C   0  0  0  0  0  0  0  0  0  0  0  0
   16.4598   -0.9990   -0.0000 C   0  0  0  0  0  0  0  0  0  0  0  0
   16.4360   -3.9960   -0.0000 C   0  0  0  0  0  0  0  0  0  0  0  0
   17.7442   -1.7364   -0.0000 C   0  0  0  0  0  0  0  0  0  0  0  0
   17.7323   -3.2349   -0.0000 C   0  0  0  0  0  0  0  0  0  0  0  0
   19.0287   -3.9722   -0.0000 O   0  0  0  0  0  0  0  0  0  0  0  0
  1  2  1  0  0  0  0
  2  3  2  0  0  0  0
  2  4  1  0  0  0  0
  3  5  1  0  0  0  0
  4  6  2  0  0  0  0
  5  7  2  0  0  0  0
  6  8  1  0  0  0  0
  7  9  1  0  0  0  0
  8 10  2  0  0  0  0
  8 11  1  0  0  0  0
 11 12  1  0  0  0  0
 12 13  1  0  0  0  0
 13 14  1  0  0  0  0
 14 15  1  0  0  0  0
 15 16  1  0  0  0  0
 15 17  2  0  0  0  0
 16 18  1  0  0  0  0
 17 19  1  0  0  0  0
 18 20  1  0  0  0  0
 20 21  2  0  0  0  0
 20 22  1  0  0  0  0
 21 23  1  0  0  0  0
 22 24  2  0  0  0  0
 23 25  2  0  0  0  0
 25 26  1  0  0  0  0
  6  7  1  0  0  0  0
  9 10  1  0  0  0  0
 18 19  2  0  0  0  0
 24 25  1  0  0  0  0
M  END
>  <MolRegNo>
2349864

>  <m>
=

>  <Value>
7800

>  <Unit>
nM

>  <Type>
IC50

>  <pValue>
5.11

>  <Ligand Efficiency>
0

>  <Binding Efficiency>
0

>  <Surface Efficiency>
0

>  <Assay Index>
1232971

>  <Assay Category>


>  <Assay Organism>
Homo sapiens

>  <Target ID>
17045

>  <Target Name>
Cytochrome P450 3A4

>  <Target Organism>
Homo sapiens

>  <Target Description>
Target is a single protein chain

>  <Sequence Accession>
P08684

>  <Reference>


>  <Pubmed ID>
31734022

>  <DOI>
10.1016/j.ejmech.2019.111857

$$$$
1981461
Actelion Java MolfileCreator 1.0

 32 35  0  0  1  0  0  0  0  0999 V2000
    0.0000   -0.0000   -0.0000 S   0  0  0  0  0  0  0  0  0  0  0  0
   -1.5621   -0.2214   -0.0000 C   0  0  0  0  0  0  0  0  0  0  0  0
    0.6888   -1.3899   -0.0000 C   0  0  0  0  0  0  0  0  0  0  0  0
   -1.8327   -1.7466   -0.0000 N   0  0  0  0  0  0  0  0  0  0  0  0
   -2.6691    0.9102   -0.0000 C   0  0  0  0  0  0  0  0  0  0  0  0
    1.9065   -1.5867   -0.0000 N   0  0  0  0  0  0  0  0  0  0  0  0
   -0.4428   -2.4477   -0.0000 C   0  0  0  0  0  0  0  0  0  0  0  0
   -4.2189    0.6396   -0.0000 C   0  0  0  0  0  0  0  0  0  0  0  0
   -2.1525    2.3985   -0.0000 C   0  0  0  0  0  0  0  0  0  0  0  0
   -0.2214   -3.9852   -0.0000 C   0  0  0  0  0  0  0  0  0  0  0  0
   -4.6494   -0.5289   -0.0000 F   0  0  0  0  0  0  0  0  0  0  0  0
   -5.2398    1.8450   -0.0000 C   0  0  0  0  0  0  0  0  0  0  0  0
   -0.9348    2.6322   -0.0000 F   0  0  0  0  0  0  0  0  0  0  0  0
   -3.1734    3.6039   -0.0000 C   0  0  0  0  0  0  0  0  0  0  0  0
    0.9348   -4.4280   -0.0000 O   0  0  0  0  0  0  0  0  0  0  0  0
   -1.4514   -4.9446   -0.0000 N   0  0  0  0  0  0  0  0  0  0  0  0
   -4.7232    3.3333   -0.0000 C   0  0  0  0  0  0  0  0  0  0  0  0
   -1.2300   -6.4698   -0.0000 C   0  0  0  0  0  0  0  0  0  0  0  0
   -2.3493   -7.5522   -0.0000 C   0  0  0  0  0  0  0  0  0  0  0  0
    0.1353   -7.1832   -0.0000 C   0  0  0  0  0  0  0  0  0  0  0  0
   -3.8868   -7.1955   -0.0000 N   0  0  0  0  0  0  0  0  0  0  0  0
   -1.6851   -8.9298   -0.0000 N   0  0  0  0  0  0  0  0  0  0  0  0
   -0.1476   -8.7084   -0.0000 N   0  0  0  0  0  0  0  0  0  0  0  0
   -4.8708   -8.4009   -0.0000 C   0  0  0  0  0  0  0  0  0  0  0  0
   -4.2435   -5.6580   -0.0000 C   0  0  0  0  0  0  0  0  0  0  0  0
   -2.2878  -10.0245   -0.0000 C   0  0  0  0  0  0  0  0  0  0  0  0
   -6.4452   -8.3886   -0.0000 C   0  0  0  0  0  0  0  0  0  0  0  0
   -5.6580   -4.9692   -0.0000 C   0  0  0  0  0  0  0  0  0  0  0  0
   -7.4292   -7.1586   -0.0000 C   0  0  0  0  0  0  0  0  0  0  0  0
   -7.0725   -5.6334   -0.0000 C   0  0  0  0  0  0  0  0  0  0  0  0
   -8.6592   -7.4292   -0.0000 F   0  0  0  0  0  0  0  0  0  0  0  0
   -8.0565   -4.8462   -0.0000 N   0  0  0  0  0  0  0  0  0  0  0  0
  1  2  1  0  0  0  0
  1  3  1  0  0  0  0
  2  4  2  0  0  0  0
  2  5  1  0  0  0  0
  3  6  1  0  0  0  0
  3  7  2  0  0  0  0
  5  8  2  0  0  0  0
  5  9  1  0  0  0  0
  7 10  1  0  0  0  0
  8 11  1  0  0  0  0
  8 12  1  0  0  0  0
  9 13  1  0  0  0  0
  9 14  2  0  0  0  0
 10 15  2  0  0  0  0
 10 16  1  0  0  0  0
 12 17  2  0  0  0  0
 16 18  1  0  0  0  0
 18 19  2  0  0  0  0
 18 20  1  0  0  0  0
 19 21  1  0  0  0  0
 19 22  1  0  0  0  0
 20 23  2  0  0  0  0
 21 24  1  0  0  0  0
 21 25  1  0  0  0  0
 22 26  1  0  0  0  0
 24 27  1  0  0  0  0
 25 28  1  0  0  0  0
 27 29  1  0  0  0  0
 28 30  1  0  0  0  0
 29 31  1  1  0  0  0
 30 32  1  6  0  0  0
  4  7  1  0  0  0  0
 14 17  1  0  0  0  0
 22 23  1  0  0  0  0
 29 30  1  0  0  0  0
M  END
>  <MolRegNo>
1981461

>  <m>
=

>  <Value>
7500

>  <Unit>
nM

>  <Type>
IC50

>  <pValue>
5.12

>  <Ligand Efficiency>
0

>  <Binding Efficiency>
0

>  <Surface Efficiency>
0

>  <Assay Index>
1233462

>  <Assay Category>


>  <Assay Organism>
Homo sapiens

>  <Target ID>
17045

>  <Target Name>
Cytochrome P450 3A4

>  <Target Organism>
Homo sapiens

>  <Target Description>
Target is a single protein chain

>  <Sequence Accession>
P08684

>  <Reference>
J Med Chem 62 (4), 2140-2153 (2019)

>  <Pubmed ID>
30715878

>  <DOI>
10.1021/acs.jmedchem.8b01857

$$$$
1966839
Actelion Java MolfileCreator 1.0

 33 36  0  0  0  0  0  0  0  0999 V2000
    0.0000   -0.0000   -0.0000 S   0  0  0  0  0  0  0  0  0  0  0  0
   -1.5710   -0.2227   -0.0000 C   0  0  0  0  0  0  0  0  0  0  0  0
    0.6927   -1.3978   -0.0000 C   0  0  0  0  0  0  0  0  0  0  0  0
   -1.8431   -1.7565   -0.0000 N   0  0  0  0  0  0  0  0  0  0  0  0
   -2.6842    0.9030   -0.0000 C   0  0  0  0  0  0  0  0  0  0  0  0
    1.9173   -1.5957   -0.0000 N   0  0  0  0  0  0  0  0  0  0  0  0
   -0.4453   -2.4616   -0.0000 C   0  0  0  0  0  0  0  0  0  0  0  0
   -2.3997    2.4492   -0.0000 C   0  0  0  0  0  0  0  0  0  0  0  0
   -4.1810    0.3958   -0.0000 C   0  0  0  0  0  0  0  0  0  0  0  0
   -0.2227   -4.0078   -0.0000 C   0  0  0  0  0  0  0  0  0  0  0  0
   -1.2246    2.8698   -0.0000 F   0  0  0  0  0  0  0  0  0  0  0  0
   -3.5996    3.4883   -0.0000 C   0  0  0  0  0  0  0  0  0  0  0  0
   -4.4284   -0.8288   -0.0000 F   0  0  0  0  0  0  0  0  0  0  0  0
   -5.3808    1.4349   -0.0000 C   0  0  0  0  0  0  0  0  0  0  0  0
    0.9401   -4.4531   -0.0000 O   0  0  0  0  0  0  0  0  0  0  0  0
   -1.4596   -4.9726   -0.0000 N   0  0  0  0  0  0  0  0  0  0  0  0
   -5.0963    2.9935   -0.0000 C   0  0  0  0  0  0  0  0  0  0  0  0
   -1.2370   -6.5065   -0.0000 C   0  0  0  0  0  0  0  0  0  0  0  0
   -2.3626   -7.5950   -0.0000 C   0  0  0  0  0  0  0  0  0  0  0  0
    0.1361   -7.2239   -0.0000 C   0  0  0  0  0  0  0  0  0  0  0  0
   -3.9088   -7.2363   -0.0000 N   0  0  0  0  0  0  0  0  0  0  0  0
   -1.6947   -8.9804   -0.0000 N   0  0  0  0  0  0  0  0  0  0  0  0
   -0.1484   -8.7578   -0.0000 N   0  0  0  0  0  0  0  0  0  0  0  0
   -4.8984   -8.4485   -0.0000 C   0  0  0  0  0  0  0  0  0  0  0  0
   -4.2676   -5.6901   -0.0000 C   0  0  0  0  0  0  0  0  0  0  0  0
   -2.3008  -10.0813   -0.0000 C   0  0  0  0  0  0  0  0  0  0  0  0
   -6.4817   -8.4362   -0.0000 C   0  0  0  0  0  0  0  0  0  0  0  0
   -5.6901   -4.9974   -0.0000 C   0  0  0  0  0  0  0  0  0  0  0  0
   -7.7434   -8.4856   -0.0000 F   0  0  0  0  0  0  0  0  0  0  0  0
   -5.7519   -9.4381   -0.0000 F   0  0  0  0  0  0  0  0  0  0  0  0
   -7.4713   -7.1992   -0.0000 C   0  0  0  0  0  0  0  0  0  0  0  0
   -7.1126   -5.6653   -0.0000 C   0  0  0  0  0  0  0  0  0  0  0  0
   -8.1022   -4.8737   -0.0000 N   0  0  0  0  0  0  0  0  0  0  0  0
  1  2  1  0  0  0  0
  1  3  1  0  0  0  0
  2  4  2  0  0  0  0
  2  5  1  0  0  0  0
  3  6  1  0  0  0  0
  3  7  2  0  0  0  0
  5  8  2  0  0  0  0
  5  9  1  0  0  0  0
  7 10  1  0  0  0  0
  8 11  1  0  0  0  0
  8 12  1  0  0  0  0
  9 13  1  0  0  0  0
  9 14  2  0  0  0  0
 10 15  2  0  0  0  0
 10 16  1  0  0  0  0
 12 17  2  0  0  0  0
 16 18  1  0  0  0  0
 18 19  2  0  0  0  0
 18 20  1  0  0  0  0
 19 21  1  0  0  0  0
 19 22  1  0  0  0  0
 20 23  2  0  0  0  0
 21 24  1  0  0  0  0
 21 25  1  0  0  0  0
 22 26  1  0  0  0  0
 24 27  1  0  0  0  0
 25 28  1  0  0  0  0
 27 29  1  0  0  0  0
 27 30  1  0  0  0  0
 27 31  1  0  0  0  0
 28 32  1  0  0  0  0
 32 33  1  1  0  0  0
  4  7  1  0  0  0  0
 14 17  1  0  0  0  0
 22 23  1  0  0  0  0
 31 32  1  0  0  0  0
M  END
>  <MolRegNo>
1966839

>  <m>
=

>  <Value>
3800

>  <Unit>
nM

>  <Type>
IC50

>  <pValue>
5.42

>  <Ligand Efficiency>
0

>  <Binding Efficiency>
0

>  <Surface Efficiency>
0

>  <Assay Index>
1233462

>  <Assay Category>


>  <Assay Organism>
Homo sapiens

>  <Target ID>
17045

>  <Target Name>
Cytochrome P450 3A4

>  <Target Organism>
Homo sapiens

>  <Target Description>
Target is a single protein chain

>  <Sequence Accession>
P08684

>  <Reference>
J Med Chem 62 (4), 2140-2153 (2019)

>  <Pubmed ID>
30715878

>  <DOI>
10.1021/acs.jmedchem.8b01857

$$$$
2420938
Actelion Java MolfileCreator 1.0

 28 30  0  0  0  0  0  0  0  0999 V2000
    0.0000   -0.0000   -0.0000 Cl  0  0  0  0  0  0  0  0  0  0  0  0
   -1.3012    0.7570   -0.0000 C   0  0  0  0  0  0  0  0  0  0  0  0
   -2.6141    0.0237   -0.0000 C   0  0  0  0  0  0  0  0  0  0  0  0
   -1.3130    2.2711   -0.0000 C   0  0  0  0  0  0  0  0  0  0  0  0
   -3.9153    0.7807   -0.0000 N   0  0  0  0  0  0  0  0  0  0  0  0
   -2.6141    3.0281   -0.0000 C   0  0  0  0  0  0  0  0  0  0  0  0
   -3.9271    2.2948   -0.0000 C   0  0  0  0  0  0  0  0  0  0  0  0
   -5.2283    3.0518   -0.0000 S   0  0  0  0  0  0  0  0  0  0  0  0
   -5.9971    1.7743   -0.0000 O   0  0  0  0  0  0  0  0  0  0  0  0
   -6.7305    3.0754   -0.0000 O   0  0  0  0  0  0  0  0  0  0  0  0
   -5.2401    4.5540   -0.0000 N   0  0  0  0  0  0  0  0  0  0  0  0
   -4.0336    5.4412   -0.0000 C   0  0  0  0  0  0  0  0  0  0  0  0
   -6.4466    5.4412   -0.0000 C   0  0  0  0  0  0  0  0  0  0  0  0
   -4.5067    6.8724   -0.0000 C   0  0  0  0  0  0  0  0  0  0  0  0
   -5.9971    6.8724   -0.0000 C   0  0  0  0  0  0  0  0  0  0  0  0
   -3.0754    7.2746   -0.0000 O   0  0  0  0  0  0  0  0  0  0  0  0
   -4.1400    8.3274   -0.0000 C   0  0  0  0  0  0  0  0  0  0  0  0
   -6.8961    8.0908   -0.0000 O   0  0  0  0  0  0  0  0  0  0  0  0
   -2.7088    8.7295   -0.0000 N   0  0  0  0  0  0  0  0  0  0  0  0
   -6.2928    9.4629   -0.0000 C   0  0  0  0  0  0  0  0  0  0  0  0
   -7.1800   10.6694   -0.0000 C   0  0  0  0  0  0  0  0  0  0  0  0
   -4.8261    9.6167   -0.0000 C   0  0  0  0  0  0  0  0  0  0  0  0
   -6.5886   12.0416   -0.0000 C   0  0  0  0  0  0  0  0  0  0  0  0
   -4.2347   10.9888   -0.0000 C   0  0  0  0  0  0  0  0  0  0  0  0
   -7.4875   13.2599   -0.0000 F   0  0  0  0  0  0  0  0  0  0  0  0
   -5.1100   12.2190   -0.0000 C   0  0  0  0  0  0  0  0  0  0  0  0
   -4.5185   13.5911   -0.0000 C   0  0  0  0  0  0  0  0  0  0  0  0
   -3.9153   14.9632   -0.0000 N   0  0  0  0  0  0  0  0  0  0  0  0
  1  2  1  0  0  0  0
  2  3  2  0  0  0  0
  2  4  1  0  0  0  0
  3  5  1  0  0  0  0
  4  6  2  0  0  0  0
  5  7  2  0  0  0  0
  7  8  1  0  0  0  0
  8  9  2  0  0  0  0
  8 10  2  0  0  0  0
  8 11  1  0  0  0  0
 11 12  1  0  0  0  0
 11 13  1  0  0  0  0
 12 14  1  0  0  0  0
 13 15  1  0  0  0  0
 14 16  1  1  0  0  0
 14 17  1  0  0  0  0
 15 18  1  6  0  0  0
 17 19  1  0  0  0  0
 18 20  1  0  0  0  0
 20 21  2  0  0  0  0
 20 22  1  0  0  0  0
 21 23  1  0  0  0  0
 22 24  2  0  0  0  0
 23 25  1  0  0  0  0
 23 26  2  0  0  0  0
 26 27  1  0  0  0  0
 27 28  3  0  0  0  0
  6  7  1  0  0  0  0
 14 15  1  0  0  0  0
 24 26  1  0  0  0  0
M  END
>  <MolRegNo>
2420938

>  <m>
=

>  <Value>
12000

>  <Unit>
nM

>  <Type>
IC50

>  <pValue>
4.92

>  <Ligand Efficiency>
0

>  <Binding Efficiency>
0

>  <Surface Efficiency>
0

>  <Assay Index>
1239286

>  <Assay Category>


>  <Assay Organism>
Homo sapiens

>  <Target ID>
17045

>  <Target Name>
Cytochrome P450 3A4

>  <Target Organism>
Homo sapiens

>  <Target Description>
Target is a single protein chain

>  <Sequence Accession>
P08684

>  <Reference>
J Med Chem 62 (20), 9270-9280 (2019)

>  <Pubmed ID>
31532662

>  <DOI>
10.1021/acs.jmedchem.9b01247

$$$$
2388512
Actelion Java MolfileCreator 1.0

 29 31  0  0  0  0  0  0  0  0999 V2000
    0.0000   -0.0000   -0.0000 Cl  0  0  0  0  0  0  0  0  0  0  0  0
    1.2875    0.7560   -0.0000 C   0  0  0  0  0  0  0  0  0  0  0  0
    1.2757    2.2679   -0.0000 C   0  0  0  0  0  0  0  0  0  0  0  0
    2.5750    0.0236   -0.0000 C   0  0  0  0  0  0  0  0  0  0  0  0
   -0.0354    3.0239   -0.0000 S   0  0  0  0  0  0  0  0  0  0  0  0
    2.5514    3.0239   -0.0000 C   0  0  0  0  0  0  0  0  0  0  0  0
    3.8625    0.7796   -0.0000 C   0  0  0  0  0  0  0  0  0  0  0  0
   -0.8032    1.7482   -0.0000 O   0  0  0  0  0  0  0  0  0  0  0  0
   -1.5474    3.0475   -0.0000 O   0  0  0  0  0  0  0  0  0  0  0  0
   -0.0472    4.5358   -0.0000 N   0  0  0  0  0  0  0  0  0  0  0  0
    3.8389    2.2915   -0.0000 C   0  0  0  0  0  0  0  0  0  0  0  0
    5.1500    0.0472   -0.0000 Cl  0  0  0  0  0  0  0  0  0  0  0  0
    1.1576    5.4217   -0.0000 C   0  0  0  0  0  0  0  0  0  0  0  0
   -1.2639    5.4217   -0.0000 C   0  0  0  0  0  0  0  0  0  0  0  0
    0.6851    6.8628   -0.0000 C   0  0  0  0  0  0  0  0  0  0  0  0
   -0.8150    6.8510   -0.0000 C   0  0  0  0  0  0  0  0  0  0  0  0
    2.1262    7.2644   -0.0000 O   0  0  0  0  0  0  0  0  0  0  0  0
    1.0631    8.3275   -0.0000 C   0  0  0  0  0  0  0  0  0  0  0  0
   -1.7009    8.0676   -0.0000 O   0  0  0  0  0  0  0  0  0  0  0  0
    2.4923    8.7291   -0.0000 N   0  0  0  0  0  0  0  0  0  0  0  0
   -1.1103    9.4496   -0.0000 C   0  0  0  0  0  0  0  0  0  0  0  0
   -2.0080   10.6544   -0.0000 C   0  0  0  0  0  0  0  0  0  0  0  0
    0.3662    9.6150   -0.0000 C   0  0  0  0  0  0  0  0  0  0  0  0
   -1.4174   12.0364   -0.0000 C   0  0  0  0  0  0  0  0  0  0  0  0
    0.9568   10.9970   -0.0000 C   0  0  0  0  0  0  0  0  0  0  0  0
   -2.3152   13.2531   -0.0000 F   0  0  0  0  0  0  0  0  0  0  0  0
    0.0709   12.2136   -0.0000 C   0  0  0  0  0  0  0  0  0  0  0  0
    0.6615   13.5956   -0.0000 C   0  0  0  0  0  0  0  0  0  0  0  0
    1.2639   14.9776   -0.0000 N   0  0  0  0  0  0  0  0  0  0  0  0
  1  2  1  0  0  0  0
  2  3  2  0  0  0  0
  2  4  1  0  0  0  0
  3  5  1  0  0  0  0
  3  6  1  0  0  0  0
  4  7  2  0  0  0  0
  5  8  2  0  0  0  0
  5  9  2  0  0  0  0
  5 10  1  0  0  0  0
  6 11  2  0  0  0  0
  7 12  1  0  0  0  0
 10 13  1  0  0  0  0
 10 14  1  0  0  0  0
 13 15  1  0  0  0  0
 14 16  1  0  0  0  0
 15 17  1  1  0  0  0
 15 18  1  0  0  0  0
 16 19  1  6  0  0  0
 18 20  1  0  0  0  0
 19 21  1  0  0  0  0
 21 22  2  0  0  0  0
 21 23  1  0  0  0  0
 22 24  1  0  0  0  0
 23 25  2  0  0  0  0
 24 26  1  0  0  0  0
 24 27  2  0  0  0  0
 27 28  1  0  0  0  0
 28 29  3  0  0  0  0
  7 11  1  0  0  0  0
 15 16  1  0  0  0  0
 25 27  1  0  0  0  0
M  END
>  <MolRegNo>
2388512

>  <m>
=

>  <Value>
1600

>  <Unit>
nM

>  <Type>
IC50

>  <pValue>
5.8

>  <Ligand Efficiency>
0

>  <Binding Efficiency>
0

>  <Surface Efficiency>
0

>  <Assay Index>
1239286

>  <Assay Category>


>  <Assay Organism>
Homo sapiens

>  <Target ID>
17045

>  <Target Name>
Cytochrome P450 3A4

>  <Target Organism>
Homo sapiens

>  <Target Description>
Target is a single protein chain

>  <Sequence Accession>
P08684

>  <Reference>
J Med Chem 62 (20), 9270-9280 (2019)

>  <Pubmed ID>
31532662

>  <DOI>
10.1021/acs.jmedchem.9b01247

$$$$
641189
Actelion Java MolfileCreator 1.0

 32 35  0  0  1  0  0  0  0  0999 V2000
    0.0000   -0.0000   -0.0000 Cl  0  0  0  0  0  0  0  0  0  0  0  0
    0.0000   -1.4864   -0.0000 C   0  0  0  0  0  0  0  0  0  0  0  0
   -1.2962   -2.2356   -0.0000 C   0  0  0  0  0  0  0  0  0  0  0  0
   -2.6161   -1.4864   -0.0000 O   0  0  0  0  0  0  0  0  0  0  0  0
   -1.2962   -3.7339   -0.0000 C   0  0  0  0  0  0  0  0  0  0  0  0
   -0.0119   -2.9491   -0.0000 O   0  0  0  0  0  0  0  0  0  0  0  0
   -2.7350   -4.1739   -0.0000 C   0  0  0  0  0  0  0  0  0  0  0  0
   -0.4400   -4.9350   -0.0000 C   0  0  0  0  0  0  0  0  0  0  0  0
    1.4745   -2.9372   -0.0000 C   0  0  0  0  0  0  0  0  0  0  0  0
   -2.7588   -5.6603   -0.0000 C   0  0  0  0  0  0  0  0  0  0  0  0
   -4.0431   -3.3891   -0.0000 C   0  0  0  0  0  0  0  0  0  0  0  0
   -2.7588   -2.6518   -0.0000 C   0  0  0  0  0  0  0  0  0  0  0  0
   -1.3437   -6.1360   -0.0000 C   0  0  0  0  0  0  0  0  0  0  0  0
    1.0464   -4.9350   -0.0000 C   0  0  0  0  0  0  0  0  0  0  0  0
    2.2118   -4.2334   -0.0000 O   0  0  0  0  0  0  0  0  0  0  0  0
    2.2118   -1.6291   -0.0000 C   0  0  0  0  0  0  0  0  0  0  0  0
   -4.0669   -6.3857   -0.0000 C   0  0  0  0  0  0  0  0  0  0  0  0
   -5.3630   -4.1144   -0.0000 C   0  0  0  0  0  0  0  0  0  0  0  0
    3.6982   -1.6172   -0.0000 C   0  0  0  0  0  0  0  0  0  0  0  0
   -5.3749   -5.6128   -0.0000 C   0  0  0  0  0  0  0  0  0  0  0  0
   -4.0907   -7.8721   -0.0000 C   0  0  0  0  0  0  0  0  0  0  0  0
   -6.6711   -3.3415   -0.0000 O   0  0  0  0  0  0  0  0  0  0  0  0
   -5.3987   -7.0992   -0.0000 F   0  0  0  0  0  0  0  0  0  0  0  0
   -6.6830   -6.3500   -0.0000 C   0  0  0  0  0  0  0  0  0  0  0  0
   -5.3987   -8.5975   -0.0000 C   0  0  0  0  0  0  0  0  0  0  0  0
   -6.6949   -7.8365   -0.0000 C   0  0  0  0  0  0  0  0  0  0  0  0
   -7.9911   -5.5890   -0.0000 C   0  0  0  0  0  0  0  0  0  0  0  0
   -6.7068   -4.8279   -0.0000 C   0  0  0  0  0  0  0  0  0  0  0  0
   -8.0030   -8.5737   -0.0000 C   0  0  0  0  0  0  0  0  0  0  0  0
   -9.2991   -6.3263   -0.0000 C   0  0  0  0  0  0  0  0  0  0  0  0
   -9.3110   -7.8127   -0.0000 C   0  0  0  0  0  0  0  0  0  0  0  0
  -10.6191   -8.5381   -0.0000 O   0  0  0  0  0  0  0  0  0  0  0  0
  1  2  1  0  0  0  0
  2  3  1  0  0  0  0
  3  4  2  0  0  0  0
  3  5  1  0  0  0  0
  5  6  1  6  0  0  0
  5  7  1  0  0  0  0
  5  8  1  0  0  0  0
  6  9  1  0  0  0  0
  7 10  1  0  0  0  0
  7 11  1  0  0  0  0
  7 12  1  1  0  0  0
  8 13  1  0  0  0  0
  8 14  1  1  0  0  0
  9 15  2  0  0  0  0
  9 16  1  0  0  0  0
 10 17  1  0  0  0  0
 11 18  1  0  0  0  0
 16 19  1  0  0  0  0
 17 20  1  0  0  0  0
 17 21  1  6  0  0  0
 18 22  1  1  0  0  0
 20 23  1  6  0  0  0
 20 24  1  0  0  0  0
 21 25  1  0  0  0  0
 24 26  1  0  0  0  0
 24 27  1  0  0  0  0
 24 28  1  1  0  0  0
 26 29  2  0  0  0  0
 27 30  2  0  0  0  0
 29 31  1  0  0  0  0
 31 32  2  0  0  0  0
 10 13  1  1  0  0  0
 18 20  1  0  0  0  0
 25 26  1  0  0  0  0
 30 31  1  0  0  0  0
M  END
>  <MolRegNo>
641189

>  <m>
=

>  <Value>
206

>  <Unit>
nM

>  <Type>
IC50

>  <pValue>
6.69

>  <Ligand Efficiency>
0

>  <Binding Efficiency>
0

>  <Surface Efficiency>
0

>  <Assay Index>
1242004

>  <Assay Category>


>  <Assay Organism>
Homo sapiens

>  <Target ID>
17045

>  <Target Name>
Cytochrome P450 3A4

>  <Target Organism>
Homo sapiens

>  <Target Description>
Target is a single protein chain

>  <Sequence Accession>
P08684

>  <Reference>
J Med Chem 63 (3), 1415-1433 (2020)

>  <Pubmed ID>
31965799

>  <DOI>
10.1021/acs.jmedchem.9b02067

$$$$
1327590
Actelion Java MolfileCreator 1.0

 24 26  0  0  0  0  0  0  0  0999 V2000
    0.0000   -0.0000   -0.0000 O   0  0  0  0  0  0  0  0  0  0  0  0
    1.2915   -0.7346   -0.0000 C   0  0  0  0  0  0  0  0  0  0  0  0
    2.5829    0.0237   -0.0000 N   0  0  0  0  0  0  0  0  0  0  0  0
    1.2796   -2.2275   -0.0000 C   0  0  0  0  0  0  0  0  0  0  0  0
    2.5711    1.5403   -0.0000 C   0  0  0  0  0  0  0  0  0  0  0  0
   -0.0355   -2.9739   -0.0000 C   0  0  0  0  0  0  0  0  0  0  0  0
    2.5711   -2.9739   -0.0000 C   0  0  0  0  0  0  0  0  0  0  0  0
    3.8626    2.2986   -0.0000 C   0  0  0  0  0  0  0  0  0  0  0  0
   -0.0474   -4.4668   -0.0000 C   0  0  0  0  0  0  0  0  0  0  0  0
    2.5592   -4.4668   -0.0000 C   0  0  0  0  0  0  0  0  0  0  0  0
    3.8507    3.8152   -0.0000 C   0  0  0  0  0  0  0  0  0  0  0  0
    5.1540    1.5640   -0.0000 C   0  0  0  0  0  0  0  0  0  0  0  0
    1.2441   -5.2133   -0.0000 C   0  0  0  0  0  0  0  0  0  0  0  0
    5.1422    4.5735   -0.0000 C   0  0  0  0  0  0  0  0  0  0  0  0
    6.4455    2.3223   -0.0000 C   0  0  0  0  0  0  0  0  0  0  0  0
    1.2322   -6.7062   -0.0000 C   0  0  0  0  0  0  0  0  0  0  0  0
    5.1303    6.0901   -0.0000 O   0  0  0  0  0  0  0  0  0  0  0  0
    6.4337    3.8389   -0.0000 C   0  0  0  0  0  0  0  0  0  0  0  0
   -0.0829   -7.4408   -0.0000 C   0  0  0  0  0  0  0  0  0  0  0  0
    2.5237   -7.4408   -0.0000 C   0  0  0  0  0  0  0  0  0  0  0  0
    3.8152    6.8602   -0.0000 C   0  0  0  0  0  0  0  0  0  0  0  0
   -0.0948   -8.9337   -0.0000 C   0  0  0  0  0  0  0  0  0  0  0  0
    2.5119   -8.9337   -0.0000 C   0  0  0  0  0  0  0  0  0  0  0  0
    1.1967   -9.6801   -0.0000 N   0  0  0  0  0  0  0  0  0  0  0  0
  1  2  2  0  0  0  0
  2  3  1  0  0  0  0
  2  4  1  0  0  0  0
  3  5  1  0  0  0  0
  4  6  2  0  0  0  0
  4  7  1  0  0  0  0
  5  8  1  0  0  0  0
  6  9  1  0  0  0  0
  7 10  2  0  0  0  0
  8 11  2  0  0  0  0
  8 12  1  0  0  0  0
  9 13  2  0  0  0  0
 11 14  1  0  0  0  0
 12 15  2  0  0  0  0
 13 16  1  0  0  0  0
 14 17  1  0  0  0  0
 14 18  2  0  0  0  0
 16 19  2  0  0  0  0
 16 20  1  0  0  0  0
 17 21  1  0  0  0  0
 19 22  1  0  0  0  0
 20 23  2  0  0  0  0
 22 24  2  0  0  0  0
 10 13  1  0  0  0  0
 15 18  1  0  0  0  0
 23 24  1  0  0  0  0
M  END
>  <MolRegNo>
1327590

>  <m>
=

>  <Value>
850

>  <Unit>
nM

>  <Type>
IC50

>  <pValue>
6.07

>  <Ligand Efficiency>
0

>  <Binding Efficiency>
0

>  <Surface Efficiency>
0

>  <Assay Index>
1244894

>  <Assay Category>


>  <Assay Organism>
Homo sapiens

>  <Target ID>
17045

>  <Target Name>
Cytochrome P450 3A4

>  <Target Organism>
Homo sapiens

>  <Target Description>
Target is a single protein chain

>  <Sequence Accession>
P08684

>  <Reference>
J Med Chem 61 (24), 11074-11100 (2018)

>  <Pubmed ID>
30384606

>  <DOI>
10.1021/acs.jmedchem.8b01098

$$$$
2361561
Actelion Java MolfileCreator 1.0

 25 27  0  0  0  0  0  0  0  0999 V2000
    0.0000   -0.0000   -0.0000 O   0  0  0  0  0  0  0  0  0  0  0  0
    0.0000   -1.4878   -0.0000 C   0  0  0  0  0  0  0  0  0  0  0  0
    1.2974   -2.2257   -0.0000 N   0  0  0  0  0  0  0  0  0  0  0  0
   -1.3093   -2.2376   -0.0000 C   0  0  0  0  0  0  0  0  0  0  0  0
    2.5828   -1.4521   -0.0000 C   0  0  0  0  0  0  0  0  0  0  0  0
   -1.3212   -3.7254   -0.0000 C   0  0  0  0  0  0  0  0  0  0  0  0
   -2.6304   -1.4759   -0.0000 C   0  0  0  0  0  0  0  0  0  0  0  0
    3.8802   -2.1900   -0.0000 C   0  0  0  0  0  0  0  0  0  0  0  0
   -2.6304   -4.4634   -0.0000 C   0  0  0  0  0  0  0  0  0  0  0  0
   -3.9397   -2.2257   -0.0000 C   0  0  0  0  0  0  0  0  0  0  0  0
    5.1537   -1.4164   -0.0000 C   0  0  0  0  0  0  0  0  0  0  0  0
    3.8683   -3.6778   -0.0000 C   0  0  0  0  0  0  0  0  0  0  0  0
   -3.9516   -3.7016   -0.0000 C   0  0  0  0  0  0  0  0  0  0  0  0
    6.4511   -2.1424   -0.0000 C   0  0  0  0  0  0  0  0  0  0  0  0
    5.1537   -4.4158   -0.0000 C   0  0  0  0  0  0  0  0  0  0  0  0
   -5.2608   -4.4396   -0.0000 C   0  0  0  0  0  0  0  0  0  0  0  0
    7.7365   -1.3688   -0.0000 O   0  0  0  0  0  0  0  0  0  0  0  0
    6.4511   -3.6421   -0.0000 C   0  0  0  0  0  0  0  0  0  0  0  0
   -5.2727   -5.9393   -0.0000 C   0  0  0  0  0  0  0  0  0  0  0  0
   -6.5701   -3.6778   -0.0000 C   0  0  0  0  0  0  0  0  0  0  0  0
    9.0339   -2.0948   -0.0000 C   0  0  0  0  0  0  0  0  0  0  0  0
   -6.5939   -6.6772   -0.0000 C   0  0  0  0  0  0  0  0  0  0  0  0
   -7.8793   -4.4158   -0.0000 C   0  0  0  0  0  0  0  0  0  0  0  0
   10.3193   -1.3212   -0.0000 C   0  0  0  0  0  0  0  0  0  0  0  0
   -7.9031   -5.9154   -0.0000 N   0  0  0  0  0  0  0  0  0  0  0  0
  1  2  2  0  0  0  0
  2  3  1  0  0  0  0
  2  4  1  0  0  0  0
  3  5  1  0  0  0  0
  4  6  2  0  0  0  0
  4  7  1  0  0  0  0
  5  8  1  0  0  0  0
  6  9  1  0  0  0  0
  7 10  2  0  0  0  0
  8 11  2  0  0  0  0
  8 12  1  0  0  0  0
  9 13  2  0  0  0  0
 11 14  1  0  0  0  0
 12 15  2  0  0  0  0
 13 16  1  0  0  0  0
 14 17  1  0  0  0  0
 14 18  2  0  0  0  0
 16 19  2  0  0  0  0
 16 20  1  0  0  0  0
 17 21  1  0  0  0  0
 19 22  1  0  0  0  0
 20 23  2  0  0  0  0
 21 24  1  0  0  0  0
 22 25  2  0  0  0  0
 10 13  1  0  0  0  0
 15 18  1  0  0  0  0
 23 25  1  0  0  0  0
M  END
>  <MolRegNo>
2361561

>  <m>
=

>  <Value>
80

>  <Unit>
nM

>  <Type>
IC50

>  <pValue>
7.1

>  <Ligand Efficiency>
0

>  <Binding Efficiency>
0

>  <Surface Efficiency>
0

>  <Assay Index>
1244894

>  <Assay Category>


>  <Assay Organism>
Homo sapiens

>  <Target ID>
17045

>  <Target Name>
Cytochrome P450 3A4

>  <Target Organism>
Homo sapiens

>  <Target Description>
Target is a single protein chain

>  <Sequence Accession>
P08684

>  <Reference>
J Med Chem 61 (24), 11074-11100 (2018)

>  <Pubmed ID>
30384606

>  <DOI>
10.1021/acs.jmedchem.8b01098

$$$$
2383767
Actelion Java MolfileCreator 1.0

 26 28  0  0  0  0  0  0  0  0999 V2000
    0.0000   -0.0000   -0.0000 O   0  0  0  0  0  0  0  0  0  0  0  0
    0.0000   -1.4886   -0.0000 C   0  0  0  0  0  0  0  0  0  0  0  0
    1.2981   -2.2270   -0.0000 N   0  0  0  0  0  0  0  0  0  0  0  0
   -1.3100   -2.2389   -0.0000 C   0  0  0  0  0  0  0  0  0  0  0  0
    2.5842   -1.4529   -0.0000 C   0  0  0  0  0  0  0  0  0  0  0  0
   -1.3219   -3.7275   -0.0000 C   0  0  0  0  0  0  0  0  0  0  0  0
   -2.6319   -1.4767   -0.0000 C   0  0  0  0  0  0  0  0  0  0  0  0
    3.8823   -2.1913   -0.0000 C   0  0  0  0  0  0  0  0  0  0  0  0
   -2.6319   -4.4659   -0.0000 C   0  0  0  0  0  0  0  0  0  0  0  0
   -3.9300   -2.2270   -0.0000 C   0  0  0  0  0  0  0  0  0  0  0  0
    5.1566   -1.4172   -0.0000 C   0  0  0  0  0  0  0  0  0  0  0  0
    3.8704   -3.6799   -0.0000 C   0  0  0  0  0  0  0  0  0  0  0  0
   -3.9538   -3.7037   -0.0000 C   0  0  0  0  0  0  0  0  0  0  0  0
    6.4547   -2.1436   -0.0000 C   0  0  0  0  0  0  0  0  0  0  0  0
    5.1566   -4.4182   -0.0000 C   0  0  0  0  0  0  0  0  0  0  0  0
   -5.2638   -4.4420   -0.0000 C   0  0  0  0  0  0  0  0  0  0  0  0
    7.7408   -1.3695   -0.0000 O   0  0  0  0  0  0  0  0  0  0  0  0
    6.4547   -3.6441   -0.0000 C   0  0  0  0  0  0  0  0  0  0  0  0
   -5.2757   -5.9426   -0.0000 C   0  0  0  0  0  0  0  0  0  0  0  0
   -6.5738   -3.6799   -0.0000 C   0  0  0  0  0  0  0  0  0  0  0  0
    9.0389   -2.0960   -0.0000 C   0  0  0  0  0  0  0  0  0  0  0  0
   -6.5976   -6.6809   -0.0000 C   0  0  0  0  0  0  0  0  0  0  0  0
   -7.8837   -4.4182   -0.0000 C   0  0  0  0  0  0  0  0  0  0  0  0
   10.3251   -1.3219   -0.0000 C   0  0  0  0  0  0  0  0  0  0  0  0
   -7.9076   -5.9188   -0.0000 N   0  0  0  0  0  0  0  0  0  0  0  0
   11.6232   -2.0483   -0.0000 C   0  0  0  0  0  0  0  0  0  0  0  0
  1  2  2  0  0  0  0
  2  3  1  0  0  0  0
  2  4  1  0  0  0  0
  3  5  1  0  0  0  0
  4  6  2  0  0  0  0
  4  7  1  0  0  0  0
  5  8  1  0  0  0  0
  6  9  1  0  0  0  0
  7 10  2  0  0  0  0
  8 11  2  0  0  0  0
  8 12  1  0  0  0  0
  9 13  2  0  0  0  0
 11 14  1  0  0  0  0
 12 15  2  0  0  0  0
 13 16  1  0  0  0  0
 14 17  1  0  0  0  0
 14 18  2  0  0  0  0
 16 19  2  0  0  0  0
 16 20  1  0  0  0  0
 17 21  1  0  0  0  0
 19 22  1  0  0  0  0
 20 23  2  0  0  0  0
 21 24  1  0  0  0  0
 22 25  2  0  0  0  0
 24 26  1  0  0  0  0
 10 13  1  0  0  0  0
 15 18  1  0  0  0  0
 23 25  1  0  0  0  0
M  END
>  <MolRegNo>
2383767

>  <m>
=

>  <Value>
80

>  <Unit>
nM

>  <Type>
IC50

>  <pValue>
7.1

>  <Ligand Efficiency>
0

>  <Binding Efficiency>
0

>  <Surface Efficiency>
0

>  <Assay Index>
1244894

>  <Assay Category>


>  <Assay Organism>
Homo sapiens

>  <Target ID>
17045

>  <Target Name>
Cytochrome P450 3A4

>  <Target Organism>
Homo sapiens

>  <Target Description>
Target is a single protein chain

>  <Sequence Accession>
P08684

>  <Reference>
J Med Chem 61 (24), 11074-11100 (2018)

>  <Pubmed ID>
30384606

>  <DOI>
10.1021/acs.jmedchem.8b01098

$$$$
2393453
Actelion Java MolfileCreator 1.0

 26 29  0  0  0  0  0  0  0  0999 V2000
    0.0000   -0.0000   -0.0000 O   0  0  0  0  0  0  0  0  0  0  0  0
    0.0000   -1.4903   -0.0000 C   0  0  0  0  0  0  0  0  0  0  0  0
    1.2995   -2.2175   -0.0000 N   0  0  0  0  0  0  0  0  0  0  0  0
   -1.3114   -2.2294   -0.0000 C   0  0  0  0  0  0  0  0  0  0  0  0
    2.5871   -1.4545   -0.0000 C   0  0  0  0  0  0  0  0  0  0  0  0
   -1.3233   -3.7316   -0.0000 C   0  0  0  0  0  0  0  0  0  0  0  0
   -2.6348   -1.4783   -0.0000 C   0  0  0  0  0  0  0  0  0  0  0  0
    3.8866   -2.1817   -0.0000 C   0  0  0  0  0  0  0  0  0  0  0  0
   -2.6348   -4.4708   -0.0000 C   0  0  0  0  0  0  0  0  0  0  0  0
   -3.9462   -2.2294   -0.0000 C   0  0  0  0  0  0  0  0  0  0  0  0
    5.1622   -1.4187   -0.0000 C   0  0  0  0  0  0  0  0  0  0  0  0
    3.8747   -3.6720   -0.0000 C   0  0  0  0  0  0  0  0  0  0  0  0
   -3.9581   -3.7077   -0.0000 C   0  0  0  0  0  0  0  0  0  0  0  0
    5.1384    0.0835   -0.0000 O   0  0  0  0  0  0  0  0  0  0  0  0
    6.4498   -2.1460   -0.0000 C   0  0  0  0  0  0  0  0  0  0  0  0
    5.1622   -4.4111   -0.0000 C   0  0  0  0  0  0  0  0  0  0  0  0
   -5.2576   -4.4469   -0.0000 C   0  0  0  0  0  0  0  0  0  0  0  0
    6.4260    0.8584   -0.0000 C   0  0  0  0  0  0  0  0  0  0  0  0
    7.7255   -1.3830   -0.0000 O   0  0  0  0  0  0  0  0  0  0  0  0
    6.4617   -3.6481   -0.0000 C   0  0  0  0  0  0  0  0  0  0  0  0
   -5.2695   -5.9491   -0.0000 C   0  0  0  0  0  0  0  0  0  0  0  0
   -6.5690   -3.6958   -0.0000 C   0  0  0  0  0  0  0  0  0  0  0  0
    7.7135    0.1192   -0.0000 C   0  0  0  0  0  0  0  0  0  0  0  0
   -6.5929   -6.7002   -0.0000 C   0  0  0  0  0  0  0  0  0  0  0  0
   -7.8805   -4.4350   -0.0000 C   0  0  0  0  0  0  0  0  0  0  0  0
   -7.9043   -5.9372   -0.0000 N   0  0  0  0  0  0  0  0  0  0  0  0
  1  2  2  0  0  0  0
  2  3  1  0  0  0  0
  2  4  1  0  0  0  0
  3  5  1  0  0  0  0
  4  6  2  0  0  0  0
  4  7  1  0  0  0  0
  5  8  1  0  0  0  0
  6  9  1  0  0  0  0
  7 10  2  0  0  0  0
  8 11  2  0  0  0  0
  8 12  1  0  0  0  0
  9 13  2  0  0  0  0
 11 14  1  0  0  0  0
 11 15  1  0  0  0  0
 12 16  2  0  0  0  0
 13 17  1  0  0  0  0
 14 18  1  0  0  0  0
 15 19  1  0  0  0  0
 15 20  2  0  0  0  0
 17 21  2  0  0  0  0
 17 22  1  0  0  0  0
 18 23  1  0  0  0  0
 21 24  1  0  0  0  0
 22 25  2  0  0  0  0
 24 26  2  0  0  0  0
 10 13  1  0  0  0  0
 16 20  1  0  0  0  0
 19 23  1  0  0  0  0
 25 26  1  0  0  0  0
M  END
>  <MolRegNo>
2393453

>  <m>
=

>  <Value>
80

>  <Unit>
nM

>  <Type>
IC50

>  <pValue>
7.1

>  <Ligand Efficiency>
0

>  <Binding Efficiency>
0

>  <Surface Efficiency>
0

>  <Assay Index>
1244894

>  <Assay Category>


>  <Assay Organism>
Homo sapiens

>  <Target ID>
17045

>  <Target Name>
Cytochrome P450 3A4

>  <Target Organism>
Homo sapiens

>  <Target Description>
Target is a single protein chain

>  <Sequence Accession>
P08684

>  <Reference>
J Med Chem 61 (24), 11074-11100 (2018)

>  <Pubmed ID>
30384606

>  <DOI>
10.1021/acs.jmedchem.8b01098

$$$$
2343049
Actelion Java MolfileCreator 1.0

 29 31  0  0  0  0  0  0  0  0999 V2000
    0.0000   -0.0000   -0.0000 O   0  0  0  0  0  0  0  0  0  0  0  0
    0.0000   -1.4883   -0.0000 C   0  0  0  0  0  0  0  0  0  0  0  0
    1.2978   -2.2264   -0.0000 N   0  0  0  0  0  0  0  0  0  0  0  0
   -1.3097   -2.2383   -0.0000 C   0  0  0  0  0  0  0  0  0  0  0  0
    2.5836   -1.4525   -0.0000 C   0  0  0  0  0  0  0  0  0  0  0  0
   -1.3216   -3.7266   -0.0000 C   0  0  0  0  0  0  0  0  0  0  0  0
   -2.6312   -1.4763   -0.0000 C   0  0  0  0  0  0  0  0  0  0  0  0
    3.8814   -2.1907   -0.0000 C   0  0  0  0  0  0  0  0  0  0  0  0
   -2.6312   -4.4648   -0.0000 C   0  0  0  0  0  0  0  0  0  0  0  0
   -3.9409   -2.2264   -0.0000 C   0  0  0  0  0  0  0  0  0  0  0  0
    5.1553   -1.4168   -0.0000 C   0  0  0  0  0  0  0  0  0  0  0  0
    3.8695   -3.6790   -0.0000 C   0  0  0  0  0  0  0  0  0  0  0  0
   -3.9528   -3.7028   -0.0000 C   0  0  0  0  0  0  0  0  0  0  0  0
    6.4531   -2.1431   -0.0000 C   0  0  0  0  0  0  0  0  0  0  0  0
    5.1553   -4.4171   -0.0000 C   0  0  0  0  0  0  0  0  0  0  0  0
   -5.2625   -4.4410   -0.0000 C   0  0  0  0  0  0  0  0  0  0  0  0
    7.7389   -1.3692   -0.0000 O   0  0  0  0  0  0  0  0  0  0  0  0
    6.4531   -3.6432   -0.0000 C   0  0  0  0  0  0  0  0  0  0  0  0
   -5.2744   -5.9411   -0.0000 C   0  0  0  0  0  0  0  0  0  0  0  0
   -6.5721   -3.6790   -0.0000 C   0  0  0  0  0  0  0  0  0  0  0  0
    9.0367   -2.0955   -0.0000 C   0  0  0  0  0  0  0  0  0  0  0  0
   -6.5959   -6.6793   -0.0000 C   0  0  0  0  0  0  0  0  0  0  0  0
   -7.8818   -4.4171   -0.0000 C   0  0  0  0  0  0  0  0  0  0  0  0
   10.3225   -1.3216   -0.0000 C   0  0  0  0  0  0  0  0  0  0  0  0
   -7.9056   -5.9173   -0.0000 N   0  0  0  0  0  0  0  0  0  0  0  0
   11.6203   -2.0478   -0.0000 C   0  0  0  0  0  0  0  0  0  0  0  0
   12.9061   -1.2739   -0.0000 N   0  0  0  0  0  0  0  0  0  0  0  0
   14.2039   -2.0002   -0.0000 C   0  0  0  0  0  0  0  0  0  0  0  0
   12.8823    0.2381   -0.0000 C   0  0  0  0  0  0  0  0  0  0  0  0
  1  2  2  0  0  0  0
  2  3  1  0  0  0  0
  2  4  1  0  0  0  0
  3  5  1  0  0  0  0
  4  6  2  0  0  0  0
  4  7  1  0  0  0  0
  5  8  1  0  0  0  0
  6  9  1  0  0  0  0
  7 10  2  0  0  0  0
  8 11  2  0  0  0  0
  8 12  1  0  0  0  0
  9 13  2  0  0  0  0
 11 14  1  0  0  0  0
 12 15  2  0  0  0  0
 13 16  1  0  0  0  0
 14 17  1  0  0  0  0
 14 18  2  0  0  0  0
 16 19  2  0  0  0  0
 16 20  1  0  0  0  0
 17 21  1  0  0  0  0
 19 22  1  0  0  0  0
 20 23  2  0  0  0  0
 21 24  1  0  0  0  0
 22 25  2  0  0  0  0
 24 26  1  0  0  0  0
 26 27  1  0  0  0  0
 27 28  1  0  0  0  0
 27 29  1  0  0  0  0
 10 13  1  0  0  0  0
 15 18  1  0  0  0  0
 23 25  1  0  0  0  0
M  END
>  <MolRegNo>
2343049

>  <m>
=

>  <Value>
2000

>  <Unit>
nM

>  <Type>
IC50

>  <pValue>
5.7

>  <Ligand Efficiency>
0

>  <Binding Efficiency>
0

>  <Surface Efficiency>
0

>  <Assay Index>
1244894

>  <Assay Category>


>  <Assay Organism>
Homo sapiens

>  <Target ID>
17045

>  <Target Name>
Cytochrome P450 3A4

>  <Target Organism>
Homo sapiens

>  <Target Description>
Target is a single protein chain

>  <Sequence Accession>
P08684

>  <Reference>
J Med Chem 61 (24), 11074-11100 (2018)

>  <Pubmed ID>
30384606

>  <DOI>
10.1021/acs.jmedchem.8b01098

$$$$
2355815
Actelion Java MolfileCreator 1.0

 25 27  0  0  0  0  0  0  0  0999 V2000
    0.0000   -0.0000   -0.0000 O   0  0  0  0  0  0  0  0  0  0  0  0
    0.0000   -1.4877   -0.0000 C   0  0  0  0  0  0  0  0  0  0  0  0
    1.2973   -2.2257   -0.0000 N   0  0  0  0  0  0  0  0  0  0  0  0
   -1.3092   -2.2376   -0.0000 C   0  0  0  0  0  0  0  0  0  0  0  0
    2.5827   -1.4520   -0.0000 C   0  0  0  0  0  0  0  0  0  0  0  0
   -1.3211   -3.7253   -0.0000 C   0  0  0  0  0  0  0  0  0  0  0  0
   -2.6303   -1.4758   -0.0000 C   0  0  0  0  0  0  0  0  0  0  0  0
    3.8800   -2.1900   -0.0000 C   0  0  0  0  0  0  0  0  0  0  0  0
    2.5589    0.0595   -0.0000 C   0  0  0  0  0  0  0  0  0  0  0  0
   -2.6303   -4.4632   -0.0000 C   0  0  0  0  0  0  0  0  0  0  0  0
   -3.9276   -2.2257   -0.0000 C   0  0  0  0  0  0  0  0  0  0  0  0
    5.1535   -1.4163   -0.0000 C   0  0  0  0  0  0  0  0  0  0  0  0
    3.8681   -3.6777   -0.0000 C   0  0  0  0  0  0  0  0  0  0  0  0
   -3.9514   -3.7015   -0.0000 C   0  0  0  0  0  0  0  0  0  0  0  0
    6.4508   -2.1423   -0.0000 C   0  0  0  0  0  0  0  0  0  0  0  0
    5.1535   -4.4156   -0.0000 C   0  0  0  0  0  0  0  0  0  0  0  0
   -5.2607   -4.4394   -0.0000 C   0  0  0  0  0  0  0  0  0  0  0  0
    7.7363   -1.3687   -0.0000 O   0  0  0  0  0  0  0  0  0  0  0  0
    6.4508   -3.6420   -0.0000 C   0  0  0  0  0  0  0  0  0  0  0  0
   -5.2726   -5.9391   -0.0000 C   0  0  0  0  0  0  0  0  0  0  0  0
   -6.5699   -3.6777   -0.0000 C   0  0  0  0  0  0  0  0  0  0  0  0
    9.0336   -2.0947   -0.0000 C   0  0  0  0  0  0  0  0  0  0  0  0
   -6.5937   -6.6770   -0.0000 C   0  0  0  0  0  0  0  0  0  0  0  0
   -7.8791   -4.4156   -0.0000 C   0  0  0  0  0  0  0  0  0  0  0  0
   -7.9029   -5.9153   -0.0000 N   0  0  0  0  0  0  0  0  0  0  0  0
  1  2  2  0  0  0  0
  2  3  1  0  0  0  0
  2  4  1  0  0  0  0
  5  3  1  1  0  0  0
  4  6  2  0  0  0  0
  4  7  1  0  0  0  0
  5  8  1  0  0  0  0
  5  9  1  0  0  0  0
  6 10  1  0  0  0  0
  7 11  2  0  0  0  0
  8 12  2  0  0  0  0
  8 13  1  0  0  0  0
 10 14  2  0  0  0  0
 12 15  1  0  0  0  0
 13 16  2  0  0  0  0
 14 17  1  0  0  0  0
 15 18  1  0  0  0  0
 15 19  2  0  0  0  0
 17 20  2  0  0  0  0
 17 21  1  0  0  0  0
 18 22  1  0  0  0  0
 20 23  1  0  0  0  0
 21 24  2  0  0  0  0
 23 25  2  0  0  0  0
 11 14  1  0  0  0  0
 16 19  1  0  0  0  0
 24 25  1  0  0  0  0
M  END
>  <MolRegNo>
2355815

>  <m>
=

>  <Value>
80

>  <Unit>
nM

>  <Type>
IC50

>  <pValue>
7.1

>  <Ligand Efficiency>
0

>  <Binding Efficiency>
0

>  <Surface Efficiency>
0

>  <Assay Index>
1244894

>  <Assay Category>


>  <Assay Organism>
Homo sapiens

>  <Target ID>
17045

>  <Target Name>
Cytochrome P450 3A4

>  <Target Organism>
Homo sapiens

>  <Target Description>
Target is a single protein chain

>  <Sequence Accession>
P08684

>  <Reference>
J Med Chem 61 (24), 11074-11100 (2018)

>  <Pubmed ID>
30384606

>  <DOI>
10.1021/acs.jmedchem.8b01098

$$$$
2381952
Actelion Java MolfileCreator 1.0

 26 28  0  0  0  0  0  0  0  0999 V2000
    0.0000   -0.0000   -0.0000 O   0  0  0  0  0  0  0  0  0  0  0  0
    0.0000   -1.4876   -0.0000 C   0  0  0  0  0  0  0  0  0  0  0  0
    1.2972   -2.2254   -0.0000 N   0  0  0  0  0  0  0  0  0  0  0  0
   -1.3091   -2.2373   -0.0000 C   0  0  0  0  0  0  0  0  0  0  0  0
    2.5825   -1.4519   -0.0000 C   0  0  0  0  0  0  0  0  0  0  0  0
   -1.3210   -3.7249   -0.0000 C   0  0  0  0  0  0  0  0  0  0  0  0
   -2.6301   -1.4757   -0.0000 C   0  0  0  0  0  0  0  0  0  0  0  0
    3.8796   -2.1897   -0.0000 C   0  0  0  0  0  0  0  0  0  0  0  0
    2.5587    0.0595   -0.0000 C   0  0  0  0  0  0  0  0  0  0  0  0
   -2.6301   -4.4628   -0.0000 C   0  0  0  0  0  0  0  0  0  0  0  0
   -3.9272   -2.2254   -0.0000 C   0  0  0  0  0  0  0  0  0  0  0  0
    5.1530   -1.4162   -0.0000 C   0  0  0  0  0  0  0  0  0  0  0  0
    3.8677   -3.6773   -0.0000 C   0  0  0  0  0  0  0  0  0  0  0  0
   -3.9510   -3.7011   -0.0000 C   0  0  0  0  0  0  0  0  0  0  0  0
    6.4502   -2.1421   -0.0000 C   0  0  0  0  0  0  0  0  0  0  0  0
    5.1530   -4.4152   -0.0000 C   0  0  0  0  0  0  0  0  0  0  0  0
   -5.2601   -4.4390   -0.0000 C   0  0  0  0  0  0  0  0  0  0  0  0
    7.7355   -1.3686   -0.0000 O   0  0  0  0  0  0  0  0  0  0  0  0
    6.4502   -3.6416   -0.0000 C   0  0  0  0  0  0  0  0  0  0  0  0
   -6.5692   -3.6773   -0.0000 C   0  0  0  0  0  0  0  0  0  0  0  0
   -5.2720   -5.9385   -0.0000 C   0  0  0  0  0  0  0  0  0  0  0  0
    9.0326   -2.0945   -0.0000 C   0  0  0  0  0  0  0  0  0  0  0  0
   -7.8783   -4.4152   -0.0000 C   0  0  0  0  0  0  0  0  0  0  0  0
   -6.5930   -6.6763   -0.0000 C   0  0  0  0  0  0  0  0  0  0  0  0
   -7.8902   -5.9147   -0.0000 N   0  0  0  0  0  0  0  0  0  0  0  0
   -9.1874   -3.6535   -0.0000 N   0  0  0  0  0  0  0  0  0  0  0  0
  1  2  2  0  0  0  0
  2  3  1  0  0  0  0
  2  4  1  0  0  0  0
  5  3  1  1  0  0  0
  4  6  2  0  0  0  0
  4  7  1  0  0  0  0
  5  8  1  0  0  0  0
  5  9  1  0  0  0  0
  6 10  1  0  0  0  0
  7 11  2  0  0  0  0
  8 12  2  0  0  0  0
  8 13  1  0  0  0  0
 10 14  2  0  0  0  0
 12 15  1  0  0  0  0
 13 16  2  0  0  0  0
 14 17  1  0  0  0  0
 15 18  1  0  0  0  0
 15 19  2  0  0  0  0
 17 20  2  0  0  0  0
 17 21  1  0  0  0  0
 18 22  1  0  0  0  0
 20 23  1  0  0  0  0
 21 24  2  0  0  0  0
 23 25  2  0  0  0  0
 23 26  1  0  0  0  0
 11 14  1  0  0  0  0
 16 19  1  0  0  0  0
 24 25  1  0  0  0  0
M  END
>  <MolRegNo>
2381952

>  <m>
=

>  <Value>
11900

>  <Unit>
nM

>  <Type>
IC50

>  <pValue>
4.92

>  <Ligand Efficiency>
0

>  <Binding Efficiency>
0

>  <Surface Efficiency>
0

>  <Assay Index>
1244894

>  <Assay Category>


>  <Assay Organism>
Homo sapiens

>  <Target ID>
17045

>  <Target Name>
Cytochrome P450 3A4

>  <Target Organism>
Homo sapiens

>  <Target Description>
Target is a single protein chain

>  <Sequence Accession>
P08684

>  <Reference>
J Med Chem 61 (24), 11074-11100 (2018)

>  <Pubmed ID>
30384606

>  <DOI>
10.1021/acs.jmedchem.8b01098

$$$$
2379867
Actelion Java MolfileCreator 1.0

 26 28  0  0  0  0  0  0  0  0999 V2000
    0.0000   -0.0000   -0.0000 F   0  0  0  0  0  0  0  0  0  0  0  0
   -0.0119   -1.4905   -0.0000 C   0  0  0  0  0  0  0  0  0  0  0  0
    1.2758   -2.2297   -0.0000 C   0  0  0  0  0  0  0  0  0  0  0  0
   -1.3235   -2.2297   -0.0000 C   0  0  0  0  0  0  0  0  0  0  0  0
    2.5636   -1.4666   -0.0000 C   0  0  0  0  0  0  0  0  0  0  0  0
    1.2639   -3.7321   -0.0000 C   0  0  0  0  0  0  0  0  0  0  0  0
   -1.3355   -3.7321   -0.0000 N   0  0  0  0  0  0  0  0  0  0  0  0
    3.8633   -2.2059   -0.0000 C   0  0  0  0  0  0  0  0  0  0  0  0
    2.5398    0.0477   -0.0000 C   0  0  0  0  0  0  0  0  0  0  0  0
   -0.0596   -4.4714   -0.0000 C   0  0  0  0  0  0  0  0  0  0  0  0
    5.1511   -1.4428   -0.0000 C   0  0  0  0  0  0  0  0  0  0  0  0
    3.8156    0.8227   -0.0000 C   0  0  0  0  0  0  0  0  0  0  0  0
    5.1391    0.0715   -0.0000 C   0  0  0  0  0  0  0  0  0  0  0  0
    6.4269    0.8466   -0.0000 C   0  0  0  0  0  0  0  0  0  0  0  0
    6.4030    2.3609   -0.0000 O   0  0  0  0  0  0  0  0  0  0  0  0
    7.7266    0.1073   -0.0000 N   0  0  0  0  0  0  0  0  0  0  0  0
    9.0143    0.8824   -0.0000 C   0  0  0  0  0  0  0  0  0  0  0  0
   10.3140    0.1431   -0.0000 C   0  0  0  0  0  0  0  0  0  0  0  0
    8.9905    2.3967   -0.0000 C   0  0  0  0  0  0  0  0  0  0  0  0
   11.5899    0.9181   -0.0000 C   0  0  0  0  0  0  0  0  0  0  0  0
   10.3021   -1.3474   -0.0000 C   0  0  0  0  0  0  0  0  0  0  0  0
   12.8896    0.1908   -0.0000 C   0  0  0  0  0  0  0  0  0  0  0  0
   11.5899   -2.0867   -0.0000 C   0  0  0  0  0  0  0  0  0  0  0  0
   14.1773    0.9658   -0.0000 O   0  0  0  0  0  0  0  0  0  0  0  0
   12.8896   -1.3116   -0.0000 C   0  0  0  0  0  0  0  0  0  0  0  0
   15.4770    0.2385   -0.0000 C   0  0  0  0  0  0  0  0  0  0  0  0
  1  2  1  0  0  0  0
  2  3  2  0  0  0  0
  2  4  1  0  0  0  0
  3  5  1  0  0  0  0
  3  6  1  0  0  0  0
  4  7  2  0  0  0  0
  5  8  2  0  0  0  0
  5  9  1  0  0  0  0
  6 10  2  0  0  0  0
  8 11  1  0  0  0  0
  9 12  2  0  0  0  0
 11 13  2  0  0  0  0
 13 14  1  0  0  0  0
 14 15  2  0  0  0  0
 14 16  1  0  0  0  0
 17 16  1  1  0  0  0
 17 18  1  0  0  0  0
 17 19  1  0  0  0  0
 18 20  2  0  0  0  0
 18 21  1  0  0  0  0
 20 22  1  0  0  0  0
 21 23  2  0  0  0  0
 22 24  1  0  0  0  0
 22 25  2  0  0  0  0
 24 26  1  0  0  0  0
  7 10  1  0  0  0  0
 12 13  1  0  0  0  0
 23 25  1  0  0  0  0
M  END
>  <MolRegNo>
2379867

>  <m>
=

>  <Value>
6400

>  <Unit>
nM

>  <Type>
IC50

>  <pValue>
5.19

>  <Ligand Efficiency>
0

>  <Binding Efficiency>
0

>  <Surface Efficiency>
0

>  <Assay Index>
1244894

>  <Assay Category>


>  <Assay Organism>
Homo sapiens

>  <Target ID>
17045

>  <Target Name>
Cytochrome P450 3A4

>  <Target Organism>
Homo sapiens

>  <Target Description>
Target is a single protein chain

>  <Sequence Accession>
P08684

>  <Reference>
J Med Chem 61 (24), 11074-11100 (2018)

>  <Pubmed ID>
30384606

>  <DOI>
10.1021/acs.jmedchem.8b01098

$$$$
2367520
Actelion Java MolfileCreator 1.0

 25 27  0  0  0  0  0  0  0  0999 V2000
    0.0000   -0.0000   -0.0000 O   0  0  0  0  0  0  0  0  0  0  0  0
    0.0000   -1.4878   -0.0000 C   0  0  0  0  0  0  0  0  0  0  0  0
    1.2973   -2.2257   -0.0000 N   0  0  0  0  0  0  0  0  0  0  0  0
   -1.3092   -2.2376   -0.0000 C   0  0  0  0  0  0  0  0  0  0  0  0
    2.5827   -1.4520   -0.0000 C   0  0  0  0  0  0  0  0  0  0  0  0
   -1.3211   -3.7253   -0.0000 C   0  0  0  0  0  0  0  0  0  0  0  0
   -2.6303   -1.4758   -0.0000 C   0  0  0  0  0  0  0  0  0  0  0  0
    3.8801   -2.1900   -0.0000 C   0  0  0  0  0  0  0  0  0  0  0  0
    2.5589    0.0595   -0.0000 C   0  0  0  0  0  0  0  0  0  0  0  0
   -2.6303   -4.4633   -0.0000 C   0  0  0  0  0  0  0  0  0  0  0  0
   -3.9396   -2.2257   -0.0000 C   0  0  0  0  0  0  0  0  0  0  0  0
    5.1536   -1.4163   -0.0000 C   0  0  0  0  0  0  0  0  0  0  0  0
    3.8682   -3.6777   -0.0000 C   0  0  0  0  0  0  0  0  0  0  0  0
   -3.9515   -3.7015   -0.0000 C   0  0  0  0  0  0  0  0  0  0  0  0
    6.4509   -2.1424   -0.0000 C   0  0  0  0  0  0  0  0  0  0  0  0
    5.1536   -4.4156   -0.0000 C   0  0  0  0  0  0  0  0  0  0  0  0
   -5.2607   -4.4394   -0.0000 C   0  0  0  0  0  0  0  0  0  0  0  0
    7.7363   -1.3687   -0.0000 O   0  0  0  0  0  0  0  0  0  0  0  0
    6.4509   -3.6420   -0.0000 C   0  0  0  0  0  0  0  0  0  0  0  0
   -6.5699   -3.6777   -0.0000 N   0  0  0  0  0  0  0  0  0  0  0  0
   -5.2726   -5.9391   -0.0000 C   0  0  0  0  0  0  0  0  0  0  0  0
    9.0336   -2.0948   -0.0000 C   0  0  0  0  0  0  0  0  0  0  0  0
   -7.8791   -4.4156   -0.0000 C   0  0  0  0  0  0  0  0  0  0  0  0
   -6.5937   -6.6770   -0.0000 C   0  0  0  0  0  0  0  0  0  0  0  0
   -7.8910   -5.9153   -0.0000 N   0  0  0  0  0  0  0  0  0  0  0  0
  1  2  2  0  0  0  0
  2  3  1  0  0  0  0
  2  4  1  0  0  0  0
  5  3  1  1  0  0  0
  4  6  2  0  0  0  0
  4  7  1  0  0  0  0
  5  8  1  0  0  0  0
  5  9  1  0  0  0  0
  6 10  1  0  0  0  0
  7 11  2  0  0  0  0
  8 12  2  0  0  0  0
  8 13  1  0  0  0  0
 10 14  2  0  0  0  0
 12 15  1  0  0  0  0
 13 16  2  0  0  0  0
 14 17  1  0  0  0  0
 15 18  1  0  0  0  0
 15 19  2  0  0  0  0
 17 20  2  0  0  0  0
 17 21  1  0  0  0  0
 18 22  1  0  0  0  0
 20 23  1  0  0  0  0
 21 24  2  0  0  0  0
 23 25  2  0  0  0  0
 11 14  1  0  0  0  0
 16 19  1  0  0  0  0
 24 25  1  0  0  0  0
M  END
>  <MolRegNo>
2367520

>  <m>
=

>  <Value>
19600

>  <Unit>
nM

>  <Type>
IC50

>  <pValue>
4.71

>  <Ligand Efficiency>
0

>  <Binding Efficiency>
0

>  <Surface Efficiency>
0

>  <Assay Index>
1244894

>  <Assay Category>


>  <Assay Organism>
Homo sapiens

>  <Target ID>
17045

>  <Target Name>
Cytochrome P450 3A4

>  <Target Organism>
Homo sapiens

>  <Target Description>
Target is a single protein chain

>  <Sequence Accession>
P08684

>  <Reference>
J Med Chem 61 (24), 11074-11100 (2018)

>  <Pubmed ID>
30384606

>  <DOI>
10.1021/acs.jmedchem.8b01098

$$$$
2455255
Actelion Java MolfileCreator 1.0

 25 27  0  0  0  0  0  0  0  0999 V2000
    0.0000   -0.0000   -0.0000 O   0  0  0  0  0  0  0  0  0  0  0  0
    0.0000   -1.4878   -0.0000 C   0  0  0  0  0  0  0  0  0  0  0  0
    1.2973   -2.2257   -0.0000 N   0  0  0  0  0  0  0  0  0  0  0  0
   -1.3092   -2.2376   -0.0000 C   0  0  0  0  0  0  0  0  0  0  0  0
    2.5827   -1.4520   -0.0000 C   0  0  0  0  0  0  0  0  0  0  0  0
   -1.3211   -3.7253   -0.0000 C   0  0  0  0  0  0  0  0  0  0  0  0
   -2.6303   -1.4758   -0.0000 C   0  0  0  0  0  0  0  0  0  0  0  0
    3.8801   -2.1900   -0.0000 C   0  0  0  0  0  0  0  0  0  0  0  0
    2.5589    0.0595   -0.0000 C   0  0  0  0  0  0  0  0  0  0  0  0
   -2.6303   -4.4633   -0.0000 C   0  0  0  0  0  0  0  0  0  0  0  0
   -3.9396   -2.2257   -0.0000 C   0  0  0  0  0  0  0  0  0  0  0  0
    5.1536   -1.4163   -0.0000 C   0  0  0  0  0  0  0  0  0  0  0  0
    3.8682   -3.6777   -0.0000 C   0  0  0  0  0  0  0  0  0  0  0  0
   -3.9515   -3.7015   -0.0000 C   0  0  0  0  0  0  0  0  0  0  0  0
    6.4509   -2.1424   -0.0000 C   0  0  0  0  0  0  0  0  0  0  0  0
    5.1536   -4.4156   -0.0000 C   0  0  0  0  0  0  0  0  0  0  0  0
   -5.2607   -4.4394   -0.0000 C   0  0  0  0  0  0  0  0  0  0  0  0
    7.7363   -1.3687   -0.0000 O   0  0  0  0  0  0  0  0  0  0  0  0
    6.4509   -3.6420   -0.0000 C   0  0  0  0  0  0  0  0  0  0  0  0
   -6.5699   -3.6777   -0.0000 C   0  0  0  0  0  0  0  0  0  0  0  0
   -5.2726   -5.9391   -0.0000 C   0  0  0  0  0  0  0  0  0  0  0  0
    9.0336   -2.0948   -0.0000 C   0  0  0  0  0  0  0  0  0  0  0  0
   -7.8791   -4.4156   -0.0000 N   0  0  0  0  0  0  0  0  0  0  0  0
   -6.5937   -6.6770   -0.0000 C   0  0  0  0  0  0  0  0  0  0  0  0
   -7.8910   -5.9153   -0.0000 N   0  0  0  0  0  0  0  0  0  0  0  0
  1  2  2  0  0  0  0
  2  3  1  0  0  0  0
  2  4  1  0  0  0  0
  5  3  1  1  0  0  0
  4  6  2  0  0  0  0
  4  7  1  0  0  0  0
  5  8  1  0  0  0  0
  5  9  1  0  0  0  0
  6 10  1  0  0  0  0
  7 11  2  0  0  0  0
  8 12  2  0  0  0  0
  8 13  1  0  0  0  0
 10 14  2  0  0  0  0
 12 15  1  0  0  0  0
 13 16  2  0  0  0  0
 14 17  1  0  0  0  0
 15 18  1  0  0  0  0
 15 19  2  0  0  0  0
 17 20  2  0  0  0  0
 17 21  1  0  0  0  0
 18 22  1  0  0  0  0
 20 23  1  0  0  0  0
 21 24  2  0  0  0  0
 23 25  2  0  0  0  0
 11 14  1  0  0  0  0
 16 19  1  0  0  0  0
 24 25  1  0  0  0  0
M  END
>  <MolRegNo>
2455255

>  <m>
=

>  <Value>
16700

>  <Unit>
nM

>  <Type>
IC50

>  <pValue>
4.78

>  <Ligand Efficiency>
0

>  <Binding Efficiency>
0

>  <Surface Efficiency>
0

>  <Assay Index>
1244894

>  <Assay Category>


>  <Assay Organism>
Homo sapiens

>  <Target ID>
17045

>  <Target Name>
Cytochrome P450 3A4

>  <Target Organism>
Homo sapiens

>  <Target Description>
Target is a single protein chain

>  <Sequence Accession>
P08684

>  <Reference>
J Med Chem 61 (24), 11074-11100 (2018)

>  <Pubmed ID>
30384606

>  <DOI>
10.1021/acs.jmedchem.8b01098

$$$$
2457386
Actelion Java MolfileCreator 1.0

 24 27  0  0  0  0  0  0  0  0999 V2000
    0.0000   -0.0000   -0.0000 O   0  0  0  0  0  0  0  0  0  0  0  0
   -0.0118   -1.4912   -0.0000 C   0  0  0  0  0  0  0  0  0  0  0  0
   -1.3137    0.7574   -0.0000 C   0  0  0  0  0  0  0  0  0  0  0  0
    1.2782   -2.2249   -0.0000 C   0  0  0  0  0  0  0  0  0  0  0  0
   -1.3137   -2.2249   -0.0000 C   0  0  0  0  0  0  0  0  0  0  0  0
   -1.3255    2.2723   -0.0000 C   0  0  0  0  0  0  0  0  0  0  0  0
    2.6983   -1.7515   -0.0000 N   0  0  0  0  0  0  0  0  0  0  0  0
    1.2663   -3.7161   -0.0000 C   0  0  0  0  0  0  0  0  0  0  0  0
   -1.3255   -3.7161   -0.0000 C   0  0  0  0  0  0  0  0  0  0  0  0
   -0.1302    3.1717   -0.0000 N   0  0  0  0  0  0  0  0  0  0  0  0
   -2.5563    3.1599   -0.0000 C   0  0  0  0  0  0  0  0  0  0  0  0
    3.5741   -2.9587   -0.0000 N   0  0  0  0  0  0  0  0  0  0  0  0
   -0.0473   -4.4617   -0.0000 N   0  0  0  0  0  0  0  0  0  0  0  0
    2.6865   -4.1658   -0.0000 N   0  0  0  0  0  0  0  0  0  0  0  0
   -2.6392   -4.4499   -0.0000 N   0  0  0  0  0  0  0  0  0  0  0  0
   -0.6154    4.6037   -0.0000 N   0  0  0  0  0  0  0  0  0  0  0  0
   -2.1066    4.6037   -0.0000 N   0  0  0  0  0  0  0  0  0  0  0  0
   -3.9883    2.6983   -0.0000 C   0  0  0  0  0  0  0  0  0  0  0  0
    0.2485    5.8345   -0.0000 C   0  0  0  0  0  0  0  0  0  0  0  0
    1.7279    5.6925   -0.0000 C   0  0  0  0  0  0  0  0  0  0  0  0
   -0.3787    7.2074   -0.0000 C   0  0  0  0  0  0  0  0  0  0  0  0
    2.5918    6.9233   -0.0000 C   0  0  0  0  0  0  0  0  0  0  0  0
    0.4852    8.4382   -0.0000 C   0  0  0  0  0  0  0  0  0  0  0  0
    1.9646    8.3080   -0.0000 C   0  0  0  0  0  0  0  0  0  0  0  0
  1  2  1  0  0  0  0
  1  3  1  0  0  0  0
  2  4  2  0  0  0  0
  2  5  1  0  0  0  0
  3  6  1  0  0  0  0
  4  7  1  0  0  0  0
  4  8  1  0  0  0  0
  5  9  2  0  0  0  0
  6 10  2  0  0  0  0
  6 11  1  0  0  0  0
  7 12  2  0  0  0  0
  8 13  2  0  0  0  0
  8 14  1  0  0  0  0
  9 15  1  0  0  0  0
 10 16  1  0  0  0  0
 11 17  2  0  0  0  0
 11 18  1  0  0  0  0
 16 19  1  0  0  0  0
 19 20  2  0  0  0  0
 19 21  1  0  0  0  0
 20 22  1  0  0  0  0
 21 23  2  0  0  0  0
 22 24  2  0  0  0  0
  9 13  1  0  0  0  0
 12 14  1  0  0  0  0
 16 17  1  0  0  0  0
 23 24  1  0  0  0  0
M  END
>  <MolRegNo>
2457386

>  <m>
=

>  <Value>
370

>  <Unit>
nM

>  <Type>
IC50

>  <pValue>
6.43

>  <Ligand Efficiency>
0

>  <Binding Efficiency>
0

>  <Surface Efficiency>
0

>  <Assay Index>
1245964

>  <Assay Category>


>  <Assay Organism>
Homo sapiens

>  <Target ID>
17045

>  <Target Name>
Cytochrome P450 3A4

>  <Target Organism>
Homo sapiens

>  <Target Description>
Target is a single protein chain

>  <Sequence Accession>
P08684

>  <Reference>
ACS Med Chem Lett 9 (12), 1175-1180 (2018)

>  <Pubmed ID>
30613322

>  <DOI>
10.1021/acsmedchemlett.8b00308

$$$$
2373994
Actelion Java MolfileCreator 1.0

 25 28  0  0  0  0  0  0  0  0999 V2000
    0.0000   -0.0000   -0.0000 O   0  0  0  0  0  0  0  0  0  0  0  0
   -0.0118   -1.4903   -0.0000 C   0  0  0  0  0  0  0  0  0  0  0  0
   -1.3129    0.7570   -0.0000 C   0  0  0  0  0  0  0  0  0  0  0  0
    1.2774   -2.2237   -0.0000 C   0  0  0  0  0  0  0  0  0  0  0  0
   -1.3129   -2.2237   -0.0000 C   0  0  0  0  0  0  0  0  0  0  0  0
   -2.6140    0.0118   -0.0000 C   0  0  0  0  0  0  0  0  0  0  0  0
    2.6968   -1.7505   -0.0000 N   0  0  0  0  0  0  0  0  0  0  0  0
    1.2656   -3.7140   -0.0000 C   0  0  0  0  0  0  0  0  0  0  0  0
   -1.3247   -3.7140   -0.0000 C   0  0  0  0  0  0  0  0  0  0  0  0
   -3.9151    0.7688   -0.0000 C   0  0  0  0  0  0  0  0  0  0  0  0
   -2.6140   -1.4667   -0.0000 C   0  0  0  0  0  0  0  0  0  0  0  0
    3.5721   -2.9570   -0.0000 N   0  0  0  0  0  0  0  0  0  0  0  0
   -0.0473   -4.4592   -0.0000 N   0  0  0  0  0  0  0  0  0  0  0  0
    2.6850   -4.1635   -0.0000 N   0  0  0  0  0  0  0  0  0  0  0  0
   -2.6376   -4.4473   -0.0000 N   0  0  0  0  0  0  0  0  0  0  0  0
   -5.2162    0.0237   -0.0000 C   0  0  0  0  0  0  0  0  0  0  0  0
   -3.9269    2.2828   -0.0000 C   0  0  0  0  0  0  0  0  0  0  0  0
   -3.9151   -2.2118   -0.0000 C   0  0  0  0  0  0  0  0  0  0  0  0
   -6.5291    0.7806   -0.0000 C   0  0  0  0  0  0  0  0  0  0  0  0
   -5.2280   -1.4667   -0.0000 C   0  0  0  0  0  0  0  0  0  0  0  0
   -7.9129    0.1774   -0.0000 N   0  0  0  0  0  0  0  0  0  0  0  0
   -6.7065    2.2828   -0.0000 C   0  0  0  0  0  0  0  0  0  0  0  0
   -8.9301    1.3011   -0.0000 N   0  0  0  0  0  0  0  0  0  0  0  0
   -8.1850    2.6022   -0.0000 C   0  0  0  0  0  0  0  0  0  0  0  0
  -10.4323    1.1473   -0.0000 C   0  0  0  0  0  0  0  0  0  0  0  0
  1  2  1  0  0  0  0
  1  3  1  0  0  0  0
  2  4  2  0  0  0  0
  2  5  1  0  0  0  0
  3  6  1  0  0  0  0
  4  7  1  0  0  0  0
  4  8  1  0  0  0  0
  5  9  2  0  0  0  0
  6 10  2  0  0  0  0
  6 11  1  0  0  0  0
  7 12  2  0  0  0  0
  8 13  2  0  0  0  0
  8 14  1  0  0  0  0
  9 15  1  0  0  0  0
 10 16  1  0  0  0  0
 10 17  1  0  0  0  0
 11 18  2  0  0  0  0
 16 19  1  0  0  0  0
 16 20  2  0  0  0  0
 19 21  2  0  0  0  0
 19 22  1  0  0  0  0
 21 23  1  0  0  0  0
 22 24  2  0  0  0  0
 23 25  1  0  0  0  0
  9 13  1  0  0  0  0
 12 14  1  0  0  0  0
 18 20  1  0  0  0  0
 23 24  1  0  0  0  0
M  END
>  <MolRegNo>
2373994

>  <m>
=

>  <Value>
1500

>  <Unit>
nM

>  <Type>
IC50

>  <pValue>
5.82

>  <Ligand Efficiency>
0

>  <Binding Efficiency>
0

>  <Surface Efficiency>
0

>  <Assay Index>
1245964

>  <Assay Category>


>  <Assay Organism>
Homo sapiens

>  <Target ID>
17045

>  <Target Name>
Cytochrome P450 3A4

>  <Target Organism>
Homo sapiens

>  <Target Description>
Target is a single protein chain

>  <Sequence Accession>
P08684

>  <Reference>
ACS Med Chem Lett 9 (12), 1175-1180 (2018)

>  <Pubmed ID>
30613322

>  <DOI>
10.1021/acsmedchemlett.8b00308

$$$$
2453269
Actelion Java MolfileCreator 1.0

 26 29  0  0  0  0  0  0  0  0999 V2000
    0.0000   -0.0000   -0.0000 Cl  0  0  0  0  0  0  0  0  0  0  0  0
    1.2843    0.7730   -0.0000 C   0  0  0  0  0  0  0  0  0  0  0  0
    2.5686    0.0476   -0.0000 C   0  0  0  0  0  0  0  0  0  0  0  0
    1.2605    2.2832   -0.0000 C   0  0  0  0  0  0  0  0  0  0  0  0
    3.8648    0.8086   -0.0000 C   0  0  0  0  0  0  0  0  0  0  0  0
    2.5567   -1.4508   -0.0000 C   0  0  0  0  0  0  0  0  0  0  0  0
    2.5567    3.0561   -0.0000 C   0  0  0  0  0  0  0  0  0  0  0  0
    3.8529    2.3307   -0.0000 C   0  0  0  0  0  0  0  0  0  0  0  0
    3.8529   -2.1881   -0.0000 O   0  0  0  0  0  0  0  0  0  0  0  0
    5.1491    3.1037   -0.0000 C   0  0  0  0  0  0  0  0  0  0  0  0
    3.8410   -3.6864   -0.0000 C   0  0  0  0  0  0  0  0  0  0  0  0
    6.4333    2.3664   -0.0000 C   0  0  0  0  0  0  0  0  0  0  0  0
    5.1253    4.6139   -0.0000 C   0  0  0  0  0  0  0  0  0  0  0  0
    5.1372   -4.4237   -0.0000 C   0  0  0  0  0  0  0  0  0  0  0  0
    2.5329   -4.4237   -0.0000 C   0  0  0  0  0  0  0  0  0  0  0  0
    7.7176    3.1275   -0.0000 C   0  0  0  0  0  0  0  0  0  0  0  0
    6.4096    5.3869   -0.0000 C   0  0  0  0  0  0  0  0  0  0  0  0
    6.5642   -3.9480   -0.0000 N   0  0  0  0  0  0  0  0  0  0  0  0
    5.1253   -5.9220   -0.0000 C   0  0  0  0  0  0  0  0  0  0  0  0
    2.5210   -5.9220   -0.0000 C   0  0  0  0  0  0  0  0  0  0  0  0
    9.0138    2.3902   -0.0000 F   0  0  0  0  0  0  0  0  0  0  0  0
    7.7057    4.6496   -0.0000 C   0  0  0  0  0  0  0  0  0  0  0  0
    7.4441   -5.1609   -0.0000 N   0  0  0  0  0  0  0  0  0  0  0  0
    3.8053   -6.6712   -0.0000 N   0  0  0  0  0  0  0  0  0  0  0  0
    6.5523   -6.3739   -0.0000 N   0  0  0  0  0  0  0  0  0  0  0  0
    1.2010   -6.6593   -0.0000 N   0  0  0  0  0  0  0  0  0  0  0  0
  1  2  1  0  0  0  0
  2  3  2  0  0  0  0
  2  4  1  0  0  0  0
  3  5  1  0  0  0  0
  3  6  1  0  0  0  0
  4  7  2  0  0  0  0
  5  8  2  0  0  0  0
  6  9  1  0  0  0  0
  8 10  1  0  0  0  0
  9 11  1  0  0  0  0
 10 12  2  0  0  0  0
 10 13  1  0  0  0  0
 11 14  2  0  0  0  0
 11 15  1  0  0  0  0
 12 16  1  0  0  0  0
 13 17  2  0  0  0  0
 14 18  1  0  0  0  0
 14 19  1  0  0  0  0
 15 20  2  0  0  0  0
 16 21  1  0  0  0  0
 16 22  2  0  0  0  0
 18 23  2  0  0  0  0
 19 24  2  0  0  0  0
 19 25  1  0  0  0  0
 20 26  1  0  0  0  0
  7  8  1  0  0  0  0
 17 22  1  0  0  0  0
 20 24  1  0  0  0  0
 23 25  1  0  0  0  0
M  END
>  <MolRegNo>
2453269

>  <m>
=

>  <Value>
60

>  <Unit>
nM

>  <Type>
IC50

>  <pValue>
7.22

>  <Ligand Efficiency>
0

>  <Binding Efficiency>
0

>  <Surface Efficiency>
0

>  <Assay Index>
1245964

>  <Assay Category>


>  <Assay Organism>
Homo sapiens

>  <Target ID>
17045

>  <Target Name>
Cytochrome P450 3A4

>  <Target Organism>
Homo sapiens

>  <Target Description>
Target is a single protein chain

>  <Sequence Accession>
P08684

>  <Reference>
ACS Med Chem Lett 9 (12), 1175-1180 (2018)

>  <Pubmed ID>
30613322

>  <DOI>
10.1021/acsmedchemlett.8b00308

$$$$
2371634
Actelion Java MolfileCreator 1.0

 32 35  0  0  0  0  0  0  0  0999 V2000
    0.0000   -0.0000   -0.0000 S   0  0  0  0  0  0  0  0  0  0  0  0
    0.7349    1.3157   -0.0000 O   0  0  0  0  0  0  0  0  0  0  0  0
    1.4935    0.0237   -0.0000 O   0  0  0  0  0  0  0  0  0  0  0  0
   -1.3157    0.7586   -0.0000 C   0  0  0  0  0  0  0  0  0  0  0  0
    0.0000   -1.4935   -0.0000 C   0  0  0  0  0  0  0  0  0  0  0  0
   -1.3276    2.2758   -0.0000 N   0  0  0  0  0  0  0  0  0  0  0  0
   -2.6196    0.0119   -0.0000 C   0  0  0  0  0  0  0  0  0  0  0  0
   -2.6552    3.0345   -0.0000 C   0  0  0  0  0  0  0  0  0  0  0  0
   -3.9235    0.7705   -0.0000 C   0  0  0  0  0  0  0  0  0  0  0  0
   -3.9590    2.2877   -0.0000 C   0  0  0  0  0  0  0  0  0  0  0  0
   -5.2273    0.0237   -0.0000 C   0  0  0  0  0  0  0  0  0  0  0  0
   -5.2392   -1.4698   -0.0000 N   0  0  0  0  0  0  0  0  0  0  0  0
   -6.5431    0.7823   -0.0000 C   0  0  0  0  0  0  0  0  0  0  0  0
   -6.5431   -2.2166   -0.0000 C   0  0  0  0  0  0  0  0  0  0  0  0
   -6.5549    2.2996   -0.0000 C   0  0  0  0  0  0  0  0  0  0  0  0
   -7.8588   -1.4580   -0.0000 O   0  0  0  0  0  0  0  0  0  0  0  0
   -6.5549   -3.7101   -0.0000 C   0  0  0  0  0  0  0  0  0  0  0  0
   -5.2629   -4.4450   -0.0000 C   0  0  0  0  0  0  0  0  0  0  0  0
   -7.8588   -4.4450   -0.0000 C   0  0  0  0  0  0  0  0  0  0  0  0
   -5.2629   -5.9385   -0.0000 C   0  0  0  0  0  0  0  0  0  0  0  0
   -3.8523   -3.9590   -0.0000 C   0  0  0  0  0  0  0  0  0  0  0  0
   -7.8706   -5.9385   -0.0000 N   0  0  0  0  0  0  0  0  0  0  0  0
   -3.8405   -6.3890   -0.0000 N   0  0  0  0  0  0  0  0  0  0  0  0
   -6.5786   -6.6853   -0.0000 C   0  0  0  0  0  0  0  0  0  0  0  0
   -2.9752   -5.1562   -0.0000 N   0  0  0  0  0  0  0  0  0  0  0  0
   -3.3782   -7.7877   -0.0000 C   0  0  0  0  0  0  0  0  0  0  0  0
   -4.3857   -8.9019   -0.0000 C   0  0  0  0  0  0  0  0  0  0  0  0
   -1.9202   -8.0721   -0.0000 C   0  0  0  0  0  0  0  0  0  0  0  0
   -3.9235  -10.3124   -0.0000 C   0  0  0  0  0  0  0  0  0  0  0  0
   -1.4580   -9.4827   -0.0000 C   0  0  0  0  0  0  0  0  0  0  0  0
   -2.4655  -10.6088   -0.0000 C   0  0  0  0  0  0  0  0  0  0  0  0
   -2.0032  -12.0193   -0.0000 F   0  0  0  0  0  0  0  0  0  0  0  0
  1  2  2  0  0  0  0
  1  3  2  0  0  0  0
  1  4  1  0  0  0  0
  1  5  1  0  0  0  0
  4  6  2  0  0  0  0
  4  7  1  0  0  0  0
  6  8  1  0  0  0  0
  7  9  2  0  0  0  0
  8 10  2  0  0  0  0
  9 11  1  0  0  0  0
 11 12  1  1  0  0  0
 11 13  1  0  0  0  0
 12 14  1  0  0  0  0
 13 15  1  0  0  0  0
 14 16  2  0  0  0  0
 14 17  1  0  0  0  0
 17 18  2  0  0  0  0
 17 19  1  0  0  0  0
 18 20  1  0  0  0  0
 18 21  1  0  0  0  0
 19 22  2  0  0  0  0
 20 23  1  0  0  0  0
 20 24  2  0  0  0  0
 21 25  2  0  0  0  0
 23 26  1  0  0  0  0
 26 27  2  0  0  0  0
 26 28  1  0  0  0  0
 27 29  1  0  0  0  0
 28 30  2  0  0  0  0
 29 31  2  0  0  0  0
 31 32  1  0  0  0  0
  9 10  1  0  0  0  0
 22 24  1  0  0  0  0
 23 25  1  0  0  0  0
 30 31  1  0  0  0  0
M  END
>  <MolRegNo>
2371634

>  <m>
=

>  <Value>
17000

>  <Unit>
nM

>  <Type>
IC50

>  <pValue>
4.77

>  <Ligand Efficiency>
0

>  <Binding Efficiency>
0

>  <Surface Efficiency>
0

>  <Assay Index>
1248301

>  <Assay Category>


>  <Assay Organism>
Homo sapiens

>  <Target ID>
17045

>  <Target Name>
Cytochrome P450 3A4

>  <Target Organism>
Homo sapiens

>  <Target Description>
Target is a single protein chain

>  <Sequence Accession>
P08684

>  <Reference>
Bioorg Med Chem Lett 29 (3), 441-448 (2019)

>  <Pubmed ID>
30595446

>  <DOI>
10.1016/j.bmcl.2018.12.024

$$$$
2363522
Actelion Java MolfileCreator 1.0

 32 35  0  0  0  0  0  0  0  0999 V2000
    0.0000   -0.0000   -0.0000 Cl  0  0  0  0  0  0  0  0  0  0  0  0
    0.4506   -1.4110   -0.0000 C   0  0  0  0  0  0  0  0  0  0  0  0
   -0.5573   -2.5137   -0.0000 C   0  0  0  0  0  0  0  0  0  0  0  0
    1.8971   -1.7074   -0.0000 C   0  0  0  0  0  0  0  0  0  0  0  0
   -0.1067   -3.9246   -0.0000 C   0  0  0  0  0  0  0  0  0  0  0  0
   -2.0275   -2.1935   -0.0000 C   0  0  0  0  0  0  0  0  0  0  0  0
    2.3595   -3.1183   -0.0000 C   0  0  0  0  0  0  0  0  0  0  0  0
    1.3398   -4.2210   -0.0000 C   0  0  0  0  0  0  0  0  0  0  0  0
   -1.1145   -5.0273   -0.0000 C   0  0  0  0  0  0  0  0  0  0  0  0
   -3.0354   -3.2962   -0.0000 O   0  0  0  0  0  0  0  0  0  0  0  0
   -2.5018   -0.7588   -0.0000 N   0  0  0  0  0  0  0  0  0  0  0  0
   -2.5848   -4.7072   -0.0000 F   0  0  0  0  0  0  0  0  0  0  0  0
   -0.6640   -6.4383   -0.0000 F   0  0  0  0  0  0  0  0  0  0  0  0
   -1.8852   -6.2960   -0.0000 F   0  0  0  0  0  0  0  0  0  0  0  0
   -1.6244    0.4743   -0.0000 N   0  0  0  0  0  0  0  0  0  0  0  0
   -3.9483   -0.2846   -0.0000 C   0  0  0  0  0  0  0  0  0  0  0  0
   -2.5255    1.7074   -0.0000 C   0  0  0  0  0  0  0  0  0  0  0  0
   -3.9602    1.2331   -0.0000 C   0  0  0  0  0  0  0  0  0  0  0  0
   -5.2526   -1.0197   -0.0000 C   0  0  0  0  0  0  0  0  0  0  0  0
   -2.0631    3.1421   -0.0000 C   0  0  0  0  0  0  0  0  0  0  0  0
   -5.2644    1.9919   -0.0000 C   0  0  0  0  0  0  0  0  0  0  0  0
   -6.5568   -0.2609   -0.0000 N   0  0  0  0  0  0  0  0  0  0  0  0
   -0.6047    3.4622   -0.0000 C   0  0  0  0  0  0  0  0  0  0  0  0
   -3.0709    4.2566   -0.0000 C   0  0  0  0  0  0  0  0  0  0  0  0
   -6.5687    1.2568   -0.0000 C   0  0  0  0  0  0  0  0  0  0  0  0
    0.3794    2.3595   -0.0000 F   0  0  0  0  0  0  0  0  0  0  0  0
   -0.1541    4.8969   -0.0000 C   0  0  0  0  0  0  0  0  0  0  0  0
   -2.6322    5.6913   -0.0000 C   0  0  0  0  0  0  0  0  0  0  0  0
   -1.1620    6.0233   -0.0000 C   0  0  0  0  0  0  0  0  0  0  0  0
   -0.7114    7.4580   -0.0000 C   0  0  0  0  0  0  0  0  0  0  0  0
   -1.7311    8.5844   -0.0000 O   0  0  0  0  0  0  0  0  0  0  0  0
    0.7351    7.7781   -0.0000 O   0  0  0  0  0  0  0  0  0  0  0  0
  1  2  1  0  0  0  0
  2  3  2  0  0  0  0
  2  4  1  0  0  0  0
  3  5  1  0  0  0  0
  3  6  1  0  0  0  0
  4  7  2  0  0  0  0
  5  8  2  0  0  0  0
  5  9  1  0  0  0  0
  6 10  2  0  0  0  0
  6 11  1  0  0  0  0
  9 12  1  0  0  0  0
  9 13  1  0  0  0  0
  9 14  1  0  0  0  0
 11 15  1  0  0  0  0
 11 16  1  0  0  0  0
 15 17  2  0  0  0  0
 16 18  2  0  0  0  0
 16 19  1  0  0  0  0
 17 20  1  0  0  0  0
 18 21  1  0  0  0  0
 19 22  2  0  0  0  0
 20 23  2  0  0  0  0
 20 24  1  0  0  0  0
 21 25  2  0  0  0  0
 23 26  1  0  0  0  0
 23 27  1  0  0  0  0
 24 28  2  0  0  0  0
 27 29  2  0  0  0  0
 29 30  1  0  0  0  0
 30 31  2  0  0  0  0
 30 32  1  0  0  0  0
  7  8  1  0  0  0  0
 17 18  1  0  0  0  0
 22 25  1  0  0  0  0
 28 29  1  0  0  0  0
M  END
>  <MolRegNo>
2363522

>  <m>
=

>  <Value>
4800

>  <Unit>
nM

>  <Type>
IC50

>  <pValue>
5.32

>  <Ligand Efficiency>
0

>  <Binding Efficiency>
0

>  <Surface Efficiency>
0

>  <Assay Index>
1254842

>  <Assay Category>


>  <Assay Organism>
Homo sapiens

>  <Target ID>
17045

>  <Target Name>
Cytochrome P450 3A4

>  <Target Organism>
Homo sapiens

>  <Target Description>
Target is a single protein chain

>  <Sequence Accession>
P08684

>  <Reference>
ACS Med Chem Lett 11 (2), 114-119 (2020)

>  <Pubmed ID>
32071676

>  <DOI>
10.1021/acsmedchemlett.9b00431

$$$$
2370672
Actelion Java MolfileCreator 1.0

 30 32  0  0  0  0  0  0  0  0999 V2000
    0.0000   -0.0000   -0.0000 S   0  0  0  0  0  0  0  0  0  0  0  0
    1.4851    0.0119   -0.0000 O   0  0  0  0  0  0  0  0  0  0  0  0
    0.7366   -1.2832   -0.0000 O   0  0  0  0  0  0  0  0  0  0  0  0
   -1.3069   -0.7366   -0.0000 N   0  0  0  0  0  0  0  0  0  0  0  0
    0.0000    1.5089   -0.0000 C   0  0  0  0  0  0  0  0  0  0  0  0
   -2.6138    0.0238   -0.0000 C   0  0  0  0  0  0  0  0  0  0  0  0
   -1.3069   -2.2218   -0.0000 C   0  0  0  0  0  0  0  0  0  0  0  0
   -1.3069    2.2693   -0.0000 C   0  0  0  0  0  0  0  0  0  0  0  0
    1.2950    2.2812   -0.0000 C   0  0  0  0  0  0  0  0  0  0  0  0
   -3.9207   -0.7010   -0.0000 C   0  0  0  0  0  0  0  0  0  0  0  0
   -2.6257   -2.9584   -0.0000 C   0  0  0  0  0  0  0  0  0  0  0  0
   -2.6138    1.5327   -0.0000 F   0  0  0  0  0  0  0  0  0  0  0  0
   -1.3188    3.7901   -0.0000 C   0  0  0  0  0  0  0  0  0  0  0  0
    1.2832    3.8019   -0.0000 C   0  0  0  0  0  0  0  0  0  0  0  0
   -3.9445   -2.1861   -0.0000 C   0  0  0  0  0  0  0  0  0  0  0  0
   -0.0356    4.5504   -0.0000 C   0  0  0  0  0  0  0  0  0  0  0  0
    2.5663    4.5623   -0.0000 C   0  0  0  0  0  0  0  0  0  0  0  0
   -5.2633   -2.9227   -0.0000 O   0  0  0  0  0  0  0  0  0  0  0  0
   -0.0475    6.0593   -0.0000 N   0  0  0  0  0  0  0  0  0  0  0  0
    2.5544    6.0712   -0.0000 O   0  0  0  0  0  0  0  0  0  0  0  0
    3.8613    3.8376   -0.0000 N   0  0  0  0  0  0  0  0  0  0  0  0
    5.1326    4.5980   -0.0000 C   0  0  0  0  0  0  0  0  0  0  0  0
    6.4158    3.8613   -0.0000 C   0  0  0  0  0  0  0  0  0  0  0  0
    5.1088    6.0950   -0.0000 C   0  0  0  0  0  0  0  0  0  0  0  0
    7.6989    4.6217   -0.0000 C   0  0  0  0  0  0  0  0  0  0  0  0
    6.3920    6.8672   -0.0000 C   0  0  0  0  0  0  0  0  0  0  0  0
    8.9939    3.8970   -0.0000 F   0  0  0  0  0  0  0  0  0  0  0  0
    7.6870    6.1306   -0.0000 C   0  0  0  0  0  0  0  0  0  0  0  0
    6.3682    8.3761   -0.0000 F   0  0  0  0  0  0  0  0  0  0  0  0
    8.9702    6.9029   -0.0000 F   0  0  0  0  0  0  0  0  0  0  0  0
  1  2  2  0  0  0  0
  1  3  2  0  0  0  0
  1  4  1  0  0  0  0
  1  5  1  0  0  0  0
  4  6  1  0  0  0  0
  4  7  1  0  0  0  0
  5  8  2  0  0  0  0
  5  9  1  0  0  0  0
  6 10  1  0  0  0  0
  7 11  1  0  0  0  0
  8 12  1  0  0  0  0
  8 13  1  0  0  0  0
  9 14  2  0  0  0  0
 10 15  1  0  0  0  0
 13 16  2  0  0  0  0
 14 17  1  0  0  0  0
 15 18  1  0  0  0  0
 16 19  1  0  0  0  0
 17 20  2  0  0  0  0
 17 21  1  0  0  0  0
 21 22  1  0  0  0  0
 22 23  2  0  0  0  0
 22 24  1  0  0  0  0
 23 25  1  0  0  0  0
 24 26  2  0  0  0  0
 25 27  1  0  0  0  0
 25 28  2  0  0  0  0
 26 29  1  0  0  0  0
 28 30  1  0  0  0  0
 11 15  1  0  0  0  0
 14 16  1  0  0  0  0
 26 28  1  0  0  0  0
M  END
>  <MolRegNo>
2370672

>  <m>
=

>  <Value>
27840

>  <Unit>
nM

>  <Type>
IC50

>  <pValue>
4.55

>  <Ligand Efficiency>
0

>  <Binding Efficiency>
0

>  <Surface Efficiency>
0

>  <Assay Index>
1254941

>  <Assay Category>


>  <Assay Organism>
Homo sapiens

>  <Target ID>
17045

>  <Target Name>
Cytochrome P450 3A4

>  <Target Organism>
Homo sapiens

>  <Target Description>
Target is a single protein chain

>  <Sequence Accession>
P08684

>  <Reference>
ACS Med Chem Lett 11 (2), 166-171 (2020)

>  <Pubmed ID>
32071684

>  <DOI>
10.1021/acsmedchemlett.9b00550

$$$$
2431007
Actelion Java MolfileCreator 1.0

 33 36  0  0  0  0  0  0  0  0999 V2000
    0.0000   -0.0000   -0.0000 S   0  0  0  0  0  0  0  0  0  0  0  0
   -1.3178    0.7598   -0.0000 C   0  0  0  0  0  0  0  0  0  0  0  0
   -0.0119   -1.4840   -0.0000 C   0  0  0  0  0  0  0  0  0  0  0  0
   -2.6356    0.0237   -0.0000 N   0  0  0  0  0  0  0  0  0  0  0  0
   -1.3297    2.2675   -0.0000 N   0  0  0  0  0  0  0  0  0  0  0  0
   -1.3178   -2.2200   -0.0000 C   0  0  0  0  0  0  0  0  0  0  0  0
   -0.0237   -2.9680   -0.0000 C   0  0  0  0  0  0  0  0  0  0  0  0
    1.2584   -0.7242   -0.0000 C   0  0  0  0  0  0  0  0  0  0  0  0
   -2.6356   -1.4602   -0.0000 C   0  0  0  0  0  0  0  0  0  0  0  0
    2.5406   -1.4484   -0.0000 O   0  0  0  0  0  0  0  0  0  0  0  0
   -3.9415   -2.2082   -0.0000 C   0  0  0  0  0  0  0  0  0  0  0  0
   -3.9415   -0.7004   -0.0000 C   0  0  0  0  0  0  0  0  0  0  0  0
    3.8109   -0.6886   -0.0000 C   0  0  0  0  0  0  0  0  0  0  0  0
   -3.9533   -3.7040   -0.0000 C   0  0  0  0  0  0  0  0  0  0  0  0
   -5.2474   -1.4484   -0.0000 C   0  0  0  0  0  0  0  0  0  0  0  0
   -2.6712   -4.4401   -0.0000 F   0  0  0  0  0  0  0  0  0  0  0  0
   -5.2711   -4.4401   -0.0000 C   0  0  0  0  0  0  0  0  0  0  0  0
   -6.5533   -2.1844   -0.0000 C   0  0  0  0  0  0  0  0  0  0  0  0
   -5.2830   -5.9241   -0.0000 F   0  0  0  0  0  0  0  0  0  0  0  0
   -6.5770   -3.6803   -0.0000 C   0  0  0  0  0  0  0  0  0  0  0  0
   -7.8592   -1.4246   -0.0000 N   0  0  0  0  0  0  0  0  0  0  0  0
   -9.1651   -2.1607   -0.0000 C   0  0  0  0  0  0  0  0  0  0  0  0
   -9.1770   -3.6447   -0.0000 O   0  0  0  0  0  0  0  0  0  0  0  0
  -10.4710   -1.4009   -0.0000 C   0  0  0  0  0  0  0  0  0  0  0  0
  -10.4710    0.1068   -0.0000 N   0  0  0  0  0  0  0  0  0  0  0  0
  -11.7651   -2.1369   -0.0000 C   0  0  0  0  0  0  0  0  0  0  0  0
  -11.7769    0.8666   -0.0000 C   0  0  0  0  0  0  0  0  0  0  0  0
  -13.0710   -1.3771   -0.0000 N   0  0  0  0  0  0  0  0  0  0  0  0
  -13.0828    0.1306   -0.0000 C   0  0  0  0  0  0  0  0  0  0  0  0
  -14.3887    0.8904   -0.0000 O   0  0  0  0  0  0  0  0  0  0  0  0
  -15.6947    0.1543   -0.0000 C   0  0  0  0  0  0  0  0  0  0  0  0
  -17.0006    0.9141   -0.0000 C   0  0  0  0  0  0  0  0  0  0  0  0
  -18.3065    1.6739   -0.0000 C   0  0  0  0  0  0  0  0  0  0  0  0
  1  2  1  0  0  0  0
  3  1  1  1  0  0  0
  2  4  2  0  0  0  0
  2  5  1  0  0  0  0
  3  6  1  0  0  0  0
  3  7  1  0  0  0  0
  3  8  1  0  0  0  0
  4  9  1  0  0  0  0
  8 10  1  0  0  0  0
  9 11  1  0  0  0  0
  9 12  1  6  0  0  0
 10 13  1  0  0  0  0
 11 14  2  0  0  0  0
 11 15  1  0  0  0  0
 14 16  1  0  0  0  0
 14 17  1  0  0  0  0
 15 18  2  0  0  0  0
 17 19  1  0  0  0  0
 17 20  2  0  0  0  0
 18 21  1  0  0  0  0
 21 22  1  0  0  0  0
 22 23  2  0  0  0  0
 22 24  1  0  0  0  0
 24 25  2  0  0  0  0
 24 26  1  0  0  0  0
 25 27  1  0  0  0  0
 26 28  2  0  0  0  0
 27 29  2  0  0  0  0
 29 30  1  0  0  0  0
 30 31  1  0  0  0  0
 31 32  1  0  0  0  0
 32 33  3  0  0  0  0
  6  7  1  1  0  0  0
  6  9  1  0  0  0  0
 18 20  1  0  0  0  0
 28 29  1  0  0  0  0
M  END
>  <MolRegNo>
2431007

>  <m>
=

>  <Value>
27000

>  <Unit>
nM

>  <Type>
IC50

>  <pValue>
4.57

>  <Ligand Efficiency>
0

>  <Binding Efficiency>
0

>  <Surface Efficiency>
0

>  <Assay Index>
1259093

>  <Assay Category>


>  <Assay Organism>
Homo sapiens

>  <Target ID>
17045

>  <Target Name>
Cytochrome P450 3A4

>  <Target Organism>
Homo sapiens

>  <Target Description>
Target is a single protein chain

>  <Sequence Accession>
P08684

>  <Reference>
J Med Chem 63 (5), 2263-2281 (2020)

>  <Pubmed ID>
31589043

>  <DOI>
10.1021/acs.jmedchem.9b01034

$$$$
2410676
Actelion Java MolfileCreator 1.0

 19 22  0  0  0  0  0  0  0  0999 V2000
    0.0000   -0.0000   -0.0000 O   0  0  0  0  0  0  0  0  0  0  0  0
   -1.5087    0.0119   -0.0000 C   0  0  0  0  0  0  0  0  0  0  0  0
    0.7484   -1.2830   -0.0000 C   0  0  0  0  0  0  0  0  0  0  0  0
   -2.2571   -1.2711   -0.0000 C   0  0  0  0  0  0  0  0  0  0  0  0
   -0.0119   -2.5660   -0.0000 C   0  0  0  0  0  0  0  0  0  0  0  0
   -1.5206   -2.5541   -0.0000 C   0  0  0  0  0  0  0  0  0  0  0  0
   -3.7658   -1.2711   -0.0000 C   0  0  0  0  0  0  0  0  0  0  0  0
   -2.2809   -3.8371   -0.0000 O   0  0  0  0  0  0  0  0  0  0  0  0
   -4.3954   -2.6254   -0.0000 N   0  0  0  0  0  0  0  0  0  0  0  0
   -4.8825   -0.2495   -0.0000 C   0  0  0  0  0  0  0  0  0  0  0  0
   -5.8922   -2.4472   -0.0000 C   0  0  0  0  0  0  0  0  0  0  0  0
   -4.0984   -4.0747   -0.0000 C   0  0  0  0  0  0  0  0  0  0  0  0
   -6.1892   -0.9860   -0.0000 C   0  0  0  0  0  0  0  0  0  0  0  0
   -4.8944    1.2711   -0.0000 C   0  0  0  0  0  0  0  0  0  0  0  0
   -6.5218   -3.7896   -0.0000 C   0  0  0  0  0  0  0  0  0  0  0  0
   -5.4052   -4.7993   -0.0000 N   0  0  0  0  0  0  0  0  0  0  0  0
   -7.5078   -0.2257   -0.0000 C   0  0  0  0  0  0  0  0  0  0  0  0
   -6.2011    2.0195   -0.0000 C   0  0  0  0  0  0  0  0  0  0  0  0
   -7.5197    1.2949   -0.0000 C   0  0  0  0  0  0  0  0  0  0  0  0
  1  2  1  0  0  0  0
  1  3  1  0  0  0  0
  4  2  1  1  0  0  0
  3  5  1  0  0  0  0
  4  6  1  0  0  0  0
  4  7  1  0  0  0  0
  6  8  1  6  0  0  0
  7  9  1  1  0  0  0
  7 10  1  0  0  0  0
  9 11  1  0  0  0  0
  9 12  1  0  0  0  0
 10 13  2  0  0  0  0
 10 14  1  0  0  0  0
 11 15  2  0  0  0  0
 12 16  2  0  0  0  0
 13 17  1  0  0  0  0
 14 18  2  0  0  0  0
 17 19  2  0  0  0  0
  5  6  1  0  0  0  0
 11 13  1  0  0  0  0
 15 16  1  0  0  0  0
 18 19  1  0  0  0  0
M  END
>  <MolRegNo>
2410676

>  <m>
=

>  <Value>
650

>  <Unit>
nM

>  <Type>
IC50

>  <pValue>
6.19

>  <Ligand Efficiency>
0

>  <Binding Efficiency>
0

>  <Surface Efficiency>
0

>  <Assay Index>
1261526

>  <Assay Category>


>  <Assay Organism>
Homo sapiens

>  <Target ID>
17045

>  <Target Name>
Cytochrome P450 3A4

>  <Target Organism>
Homo sapiens

>  <Target Description>
Target is a single protein chain

>  <Sequence Accession>
P08684

>  <Reference>
ACS Med Chem Lett 11 (4), 541-549 (2020)

>  <Pubmed ID>
32292562

>  <DOI>
10.1021/acsmedchemlett.0c00004

$$$$
2418496
Actelion Java MolfileCreator 1.0

 19 22  0  0  0  0  0  0  0  0999 V2000
    0.0000   -0.0000   -0.0000 O   0  0  0  0  0  0  0  0  0  0  0  0
   -0.7590   -1.2808   -0.0000 C   0  0  0  0  0  0  0  0  0  0  0  0
   -0.7708    1.3045   -0.0000 C   0  0  0  0  0  0  0  0  0  0  0  0
   -2.2532   -1.2689   -0.0000 C   0  0  0  0  0  0  0  0  0  0  0  0
   -2.2769    1.3163   -0.0000 C   0  0  0  0  0  0  0  0  0  0  0  0
   -3.0122   -2.5615   -0.0000 O   0  0  0  0  0  0  0  0  0  0  0  0
   -3.0122    0.0356   -0.0000 C   0  0  0  0  0  0  0  0  0  0  0  0
   -4.5182    0.0356   -0.0000 C   0  0  0  0  0  0  0  0  0  0  0  0
   -5.1468   -1.3163   -0.0000 N   0  0  0  0  0  0  0  0  0  0  0  0
   -5.6330    1.0554   -0.0000 C   0  0  0  0  0  0  0  0  0  0  0  0
   -6.6410   -1.1385   -0.0000 C   0  0  0  0  0  0  0  0  0  0  0  0
   -4.8503   -2.7631   -0.0000 C   0  0  0  0  0  0  0  0  0  0  0  0
   -6.9375    0.3202   -0.0000 C   0  0  0  0  0  0  0  0  0  0  0  0
   -5.6448    2.5734   -0.0000 C   0  0  0  0  0  0  0  0  0  0  0  0
   -7.2695   -2.4785   -0.0000 C   0  0  0  0  0  0  0  0  0  0  0  0
   -6.1548   -3.4865   -0.0000 N   0  0  0  0  0  0  0  0  0  0  0  0
   -8.2538    1.0792   -0.0000 C   0  0  0  0  0  0  0  0  0  0  0  0
   -6.9612    3.3205   -0.0000 C   0  0  0  0  0  0  0  0  0  0  0  0
   -8.2657    2.5971   -0.0000 C   0  0  0  0  0  0  0  0  0  0  0  0
  1  2  1  0  0  0  0
  1  3  1  0  0  0  0
  2  4  1  0  0  0  0
  3  5  1  0  0  0  0
  4  6  1  6  0  0  0
  4  7  1  0  0  0  0
  7  8  1  0  0  0  0
  8  9  1  1  0  0  0
  8 10  1  0  0  0  0
  9 11  1  0  0  0  0
  9 12  1  0  0  0  0
 10 13  2  0  0  0  0
 10 14  1  0  0  0  0
 11 15  2  0  0  0  0
 12 16  2  0  0  0  0
 13 17  1  0  0  0  0
 14 18  2  0  0  0  0
 17 19  2  0  0  0  0
  7  5  1  1  0  0  0
 11 13  1  0  0  0  0
 15 16  1  0  0  0  0
 18 19  1  0  0  0  0
M  END
>  <MolRegNo>
2418496

>  <m>
=

>  <Value>
600

>  <Unit>
nM

>  <Type>
IC50

>  <pValue>
6.22

>  <Ligand Efficiency>
0

>  <Binding Efficiency>
0

>  <Surface Efficiency>
0

>  <Assay Index>
1261526

>  <Assay Category>


>  <Assay Organism>
Homo sapiens

>  <Target ID>
17045

>  <Target Name>
Cytochrome P450 3A4

>  <Target Organism>
Homo sapiens

>  <Target Description>
Target is a single protein chain

>  <Sequence Accession>
P08684

>  <Reference>
ACS Med Chem Lett 11 (4), 541-549 (2020)

>  <Pubmed ID>
32292562

>  <DOI>
10.1021/acsmedchemlett.0c00004

$$$$
2354194
Actelion Java MolfileCreator 1.0

 23 27  0  0  0  0  0  0  0  0999 V2000
    0.0000   -0.0000   -0.0000 O   0  0  0  0  0  0  0  0  0  0  0  0
    0.7380    1.3093   -0.0000 C   0  0  0  0  0  0  0  0  0  0  0  0
    2.2139    1.3331   -0.0000 C   0  0  0  0  0  0  0  0  0  0  0  0
   -0.0238    2.6186   -0.0000 C   0  0  0  0  0  0  0  0  0  0  0  0
    2.9638    2.6424   -0.0000 C   0  0  0  0  0  0  0  0  0  0  0  0
    2.9519    0.0476   -0.0000 C   0  0  0  0  0  0  0  0  0  0  0  0
   -1.5355    2.6186   -0.0000 C   0  0  0  0  0  0  0  0  0  0  0  0
    0.7023    3.9279   -0.0000 C   0  0  0  0  0  0  0  0  0  0  0  0
    4.4398    2.6543   -0.0000 C   0  0  0  0  0  0  0  0  0  0  0  0
    2.1901    3.9518   -0.0000 C   0  0  0  0  0  0  0  0  0  0  0  0
    4.4398    0.0595   -0.0000 N   0  0  0  0  0  0  0  0  0  0  0  0
   -2.1544    1.2617   -0.0000 N   0  0  0  0  0  0  0  0  0  0  0  0
   -2.6543    3.6423   -0.0000 C   0  0  0  0  0  0  0  0  0  0  0  0
    5.1777    1.3688   -0.0000 C   0  0  0  0  0  0  0  0  0  0  0  0
   -3.6542    1.4402   -0.0000 C   0  0  0  0  0  0  0  0  0  0  0  0
   -1.8688   -0.1904   -0.0000 C   0  0  0  0  0  0  0  0  0  0  0  0
   -3.9637    2.9043   -0.0000 C   0  0  0  0  0  0  0  0  0  0  0  0
   -2.6662    5.1658   -0.0000 C   0  0  0  0  0  0  0  0  0  0  0  0
   -4.2850    0.0952   -0.0000 C   0  0  0  0  0  0  0  0  0  0  0  0
   -3.1781   -0.9165   -0.0000 N   0  0  0  0  0  0  0  0  0  0  0  0
   -5.2730    3.6661   -0.0000 C   0  0  0  0  0  0  0  0  0  0  0  0
   -3.9756    5.9157   -0.0000 C   0  0  0  0  0  0  0  0  0  0  0  0
   -5.2849    5.1897   -0.0000 C   0  0  0  0  0  0  0  0  0  0  0  0
  2  1  1  1  0  0  0
  2  3  1  0  0  0  0
  2  4  1  0  0  0  0
  3  5  2  0  0  0  0
  3  6  1  0  0  0  0
  4  7  1  0  0  0  0
  4  8  1  6  0  0  0
  5  9  1  0  0  0  0
  5 10  1  0  0  0  0
  6 11  2  0  0  0  0
  7 12  1  6  0  0  0
  7 13  1  0  0  0  0
  9 14  2  0  0  0  0
 12 15  1  0  0  0  0
 12 16  1  0  0  0  0
 13 17  2  0  0  0  0
 13 18  1  0  0  0  0
 15 19  2  0  0  0  0
 16 20  2  0  0  0  0
 17 21  1  0  0  0  0
 18 22  2  0  0  0  0
 21 23  2  0  0  0  0
  8 10  1  0  0  0  0
 11 14  1  0  0  0  0
 15 17  1  0  0  0  0
 19 20  1  0  0  0  0
 22 23  1  0  0  0  0
M  END
>  <MolRegNo>
2354194

>  <m>
=

>  <Value>
2400

>  <Unit>
nM

>  <Type>
IC50

>  <pValue>
5.62

>  <Ligand Efficiency>
0

>  <Binding Efficiency>
0

>  <Surface Efficiency>
0

>  <Assay Index>
1261526

>  <Assay Category>


>  <Assay Organism>
Homo sapiens

>  <Target ID>
17045

>  <Target Name>
Cytochrome P450 3A4

>  <Target Organism>
Homo sapiens

>  <Target Description>
Target is a single protein chain

>  <Sequence Accession>
P08684

>  <Reference>
ACS Med Chem Lett 11 (4), 541-549 (2020)

>  <Pubmed ID>
32292562

>  <DOI>
10.1021/acsmedchemlett.0c00004

$$$$
2447827
Actelion Java MolfileCreator 1.0

 23 27  0  0  0  0  0  0  0  0999 V2000
    0.0000   -0.0000   -0.0000 O   0  0  0  0  0  0  0  0  0  0  0  0
    0.7378    1.3209   -0.0000 C   0  0  0  0  0  0  0  0  0  0  0  0
    2.2134    1.3447   -0.0000 C   0  0  0  0  0  0  0  0  0  0  0  0
   -0.0238    2.6299   -0.0000 C   0  0  0  0  0  0  0  0  0  0  0  0
    2.9631    2.6537   -0.0000 C   0  0  0  0  0  0  0  0  0  0  0  0
    2.9512    0.0595   -0.0000 C   0  0  0  0  0  0  0  0  0  0  0  0
   -1.5351    2.6299   -0.0000 C   0  0  0  0  0  0  0  0  0  0  0  0
    0.7021    3.9388   -0.0000 C   0  0  0  0  0  0  0  0  0  0  0  0
    4.4386    2.6656   -0.0000 C   0  0  0  0  0  0  0  0  0  0  0  0
    2.1896    3.9626   -0.0000 C   0  0  0  0  0  0  0  0  0  0  0  0
    4.4386    0.0714   -0.0000 C   0  0  0  0  0  0  0  0  0  0  0  0
   -2.1539    1.2733   -0.0000 N   0  0  0  0  0  0  0  0  0  0  0  0
   -2.6537    3.6532   -0.0000 C   0  0  0  0  0  0  0  0  0  0  0  0
    5.1764    1.3804   -0.0000 C   0  0  0  0  0  0  0  0  0  0  0  0
   -3.6532    1.4518   -0.0000 C   0  0  0  0  0  0  0  0  0  0  0  0
   -1.8683   -0.1785   -0.0000 C   0  0  0  0  0  0  0  0  0  0  0  0
   -3.9626    2.9155   -0.0000 C   0  0  0  0  0  0  0  0  0  0  0  0
   -2.6656    5.1764   -0.0000 C   0  0  0  0  0  0  0  0  0  0  0  0
   -4.2839    0.1071   -0.0000 C   0  0  0  0  0  0  0  0  0  0  0  0
   -3.1773   -0.9044   -0.0000 N   0  0  0  0  0  0  0  0  0  0  0  0
   -5.2716    3.6770   -0.0000 C   0  0  0  0  0  0  0  0  0  0  0  0
   -3.9745    5.9261   -0.0000 C   0  0  0  0  0  0  0  0  0  0  0  0
   -5.2835    5.2002   -0.0000 C   0  0  0  0  0  0  0  0  0  0  0  0
  2  1  1  1  0  0  0
  2  3  1  0  0  0  0
  2  4  1  0  0  0  0
  3  5  2  0  0  0  0
  3  6  1  0  0  0  0
  4  7  1  0  0  0  0
  4  8  1  6  0  0  0
  5  9  1  0  0  0  0
  5 10  1  0  0  0  0
  6 11  2  0  0  0  0
  7 12  1  6  0  0  0
  7 13  1  0  0  0  0
  9 14  2  0  0  0  0
 12 15  1  0  0  0  0
 12 16  1  0  0  0  0
 13 17  2  0  0  0  0
 13 18  1  0  0  0  0
 15 19  2  0  0  0  0
 16 20  2  0  0  0  0
 17 21  1  0  0  0  0
 18 22  2  0  0  0  0
 21 23  2  0  0  0  0
  8 10  1  0  0  0  0
 11 14  1  0  0  0  0
 15 17  1  0  0  0  0
 19 20  1  0  0  0  0
 22 23  1  0  0  0  0
M  END
>  <MolRegNo>
2447827

>  <m>
=

>  <Value>
840

>  <Unit>
nM

>  <Type>
IC50

>  <pValue>
6.08

>  <Ligand Efficiency>
0

>  <Binding Efficiency>
0

>  <Surface Efficiency>
0

>  <Assay Index>
1261526

>  <Assay Category>


>  <Assay Organism>
Homo sapiens

>  <Target ID>
17045

>  <Target Name>
Cytochrome P450 3A4

>  <Target Organism>
Homo sapiens

>  <Target Description>
Target is a single protein chain

>  <Sequence Accession>
P08684

>  <Reference>
ACS Med Chem Lett 11 (4), 541-549 (2020)

>  <Pubmed ID>
32292562

>  <DOI>
10.1021/acsmedchemlett.0c00004

$$$$
2392107
Actelion Java MolfileCreator 1.0

 27 31  0  0  0  0  0  0  0  0999 V2000
    0.0000   -0.0000   -0.0000 S   0  0  0  0  0  0  0  0  0  0  0  0
    1.2805    0.7707   -0.0000 O   0  0  0  0  0  0  0  0  0  0  0  0
    1.2924   -0.7232   -0.0000 O   0  0  0  0  0  0  0  0  0  0  0  0
   -0.7470    1.3042   -0.0000 C   0  0  0  0  0  0  0  0  0  0  0  0
   -0.7470   -1.2924   -0.0000 C   0  0  0  0  0  0  0  0  0  0  0  0
   -2.2527    1.3161   -0.0000 C   0  0  0  0  0  0  0  0  0  0  0  0
   -0.0119    2.6203   -0.0000 C   0  0  0  0  0  0  0  0  0  0  0  0
   -3.0116    2.6203   -0.0000 C   0  0  0  0  0  0  0  0  0  0  0  0
   -0.7707    3.9245   -0.0000 C   0  0  0  0  0  0  0  0  0  0  0  0
   -2.2646    3.9245   -0.0000 C   0  0  0  0  0  0  0  0  0  0  0  0
   -4.5055    2.6203   -0.0000 C   0  0  0  0  0  0  0  0  0  0  0  0
   -3.0353    5.2287   -0.0000 C   0  0  0  0  0  0  0  0  0  0  0  0
   -5.2643    1.3398   -0.0000 O   0  0  0  0  0  0  0  0  0  0  0  0
   -5.2643    3.9245   -0.0000 C   0  0  0  0  0  0  0  0  0  0  0  0
   -4.5410    5.2406   -0.0000 C   0  0  0  0  0  0  0  0  0  0  0  0
   -6.7701    3.9245   -0.0000 C   0  0  0  0  0  0  0  0  0  0  0  0
   -7.3985    2.5729   -0.0000 N   0  0  0  0  0  0  0  0  0  0  0  0
   -7.8846    4.9323   -0.0000 C   0  0  0  0  0  0  0  0  0  0  0  0
   -8.8924    2.7507   -0.0000 C   0  0  0  0  0  0  0  0  0  0  0  0
   -7.1139    1.1264   -0.0000 C   0  0  0  0  0  0  0  0  0  0  0  0
   -9.1888    4.2091   -0.0000 C   0  0  0  0  0  0  0  0  0  0  0  0
   -7.8964    6.4499   -0.0000 C   0  0  0  0  0  0  0  0  0  0  0  0
   -9.5208    1.4109   -0.0000 C   0  0  0  0  0  0  0  0  0  0  0  0
   -8.4181    0.4031   -0.0000 N   0  0  0  0  0  0  0  0  0  0  0  0
  -10.5049    4.9560   -0.0000 C   0  0  0  0  0  0  0  0  0  0  0  0
   -9.2007    7.2088   -0.0000 C   0  0  0  0  0  0  0  0  0  0  0  0
  -10.5167    6.4737   -0.0000 C   0  0  0  0  0  0  0  0  0  0  0  0
  1  2  2  0  0  0  0
  1  3  2  0  0  0  0
  1  4  1  0  0  0  0
  1  5  1  0  0  0  0
  4  6  2  0  0  0  0
  4  7  1  0  0  0  0
  6  8  1  0  0  0  0
  7  9  2  0  0  0  0
  8 10  2  0  0  0  0
  8 11  1  0  0  0  0
 10 12  1  0  0  0  0
 11 13  1  1  0  0  0
 11 14  1  0  0  0  0
 12 15  1  0  0  0  0
 14 16  1  0  0  0  0
 16 17  1  6  0  0  0
 16 18  1  0  0  0  0
 17 19  1  0  0  0  0
 17 20  1  0  0  0  0
 18 21  2  0  0  0  0
 18 22  1  0  0  0  0
 19 23  2  0  0  0  0
 20 24  2  0  0  0  0
 21 25  1  0  0  0  0
 22 26  2  0  0  0  0
 25 27  2  0  0  0  0
  9 10  1  0  0  0  0
 14 15  1  6  0  0  0
 19 21  1  0  0  0  0
 23 24  1  0  0  0  0
 26 27  1  0  0  0  0
M  END
>  <MolRegNo>
2392107

>  <m>
=

>  <Value>
6000

>  <Unit>
nM

>  <Type>
IC50

>  <pValue>
5.22

>  <Ligand Efficiency>
0

>  <Binding Efficiency>
0

>  <Surface Efficiency>
0

>  <Assay Index>
1261526

>  <Assay Category>


>  <Assay Organism>
Homo sapiens

>  <Target ID>
17045

>  <Target Name>
Cytochrome P450 3A4

>  <Target Organism>
Homo sapiens

>  <Target Description>
Target is a single protein chain

>  <Sequence Accession>
P08684

>  <Reference>
ACS Med Chem Lett 11 (4), 541-549 (2020)

>  <Pubmed ID>
32292562

>  <DOI>
10.1021/acsmedchemlett.0c00004

$$$$
2409539
Actelion Java MolfileCreator 1.0

 27 31  0  0  0  0  0  0  0  0999 V2000
    0.0000   -0.0000   -0.0000 S   0  0  0  0  0  0  0  0  0  0  0  0
   -0.0237    1.5048   -0.0000 O   0  0  0  0  0  0  0  0  0  0  0  0
    1.2797    0.7702   -0.0000 O   0  0  0  0  0  0  0  0  0  0  0  0
   -1.5048   -0.0000   -0.0000 C   0  0  0  0  0  0  0  0  0  0  0  0
    0.7465   -1.2915   -0.0000 C   0  0  0  0  0  0  0  0  0  0  0  0
   -2.2631    1.3033   -0.0000 C   0  0  0  0  0  0  0  0  0  0  0  0
   -2.2631   -1.2915   -0.0000 C   0  0  0  0  0  0  0  0  0  0  0  0
   -3.7560    1.3152   -0.0000 C   0  0  0  0  0  0  0  0  0  0  0  0
   -3.7679   -1.2797   -0.0000 C   0  0  0  0  0  0  0  0  0  0  0  0
   -4.5262    0.0355   -0.0000 C   0  0  0  0  0  0  0  0  0  0  0  0
   -4.5262    2.6185   -0.0000 C   0  0  0  0  0  0  0  0  0  0  0  0
   -6.0191    0.0355   -0.0000 C   0  0  0  0  0  0  0  0  0  0  0  0
   -6.0310    2.6304   -0.0000 C   0  0  0  0  0  0  0  0  0  0  0  0
   -6.7774   -1.2441   -0.0000 O   0  0  0  0  0  0  0  0  0  0  0  0
   -6.7774    1.3389   -0.0000 C   0  0  0  0  0  0  0  0  0  0  0  0
   -8.2822    1.3389   -0.0000 C   0  0  0  0  0  0  0  0  0  0  0  0
   -8.9102   -0.0118   -0.0000 N   0  0  0  0  0  0  0  0  0  0  0  0
   -9.3960    2.3579   -0.0000 C   0  0  0  0  0  0  0  0  0  0  0  0
  -10.4031    0.1659   -0.0000 C   0  0  0  0  0  0  0  0  0  0  0  0
   -8.6140   -1.4574   -0.0000 C   0  0  0  0  0  0  0  0  0  0  0  0
  -10.6993    1.6233   -0.0000 C   0  0  0  0  0  0  0  0  0  0  0  0
   -9.4078    3.8745   -0.0000 C   0  0  0  0  0  0  0  0  0  0  0  0
  -11.0311   -1.1730   -0.0000 C   0  0  0  0  0  0  0  0  0  0  0  0
   -9.9173   -2.1801   -0.0000 N   0  0  0  0  0  0  0  0  0  0  0  0
  -12.0145    2.3816   -0.0000 C   0  0  0  0  0  0  0  0  0  0  0  0
  -10.7112    4.6210   -0.0000 C   0  0  0  0  0  0  0  0  0  0  0  0
  -12.0264    3.8982   -0.0000 C   0  0  0  0  0  0  0  0  0  0  0  0
  1  2  2  0  0  0  0
  1  3  2  0  0  0  0
  1  4  1  0  0  0  0
  1  5  1  0  0  0  0
  4  6  2  0  0  0  0
  4  7  1  0  0  0  0
  6  8  1  0  0  0  0
  7  9  2  0  0  0  0
  8 10  2  0  0  0  0
  8 11  1  0  0  0  0
 10 12  1  0  0  0  0
 11 13  1  0  0  0  0
 12 14  1  1  0  0  0
 12 15  1  0  0  0  0
 15 16  1  0  0  0  0
 16 17  1  6  0  0  0
 16 18  1  0  0  0  0
 17 19  1  0  0  0  0
 17 20  1  0  0  0  0
 18 21  2  0  0  0  0
 18 22  1  0  0  0  0
 19 23  2  0  0  0  0
 20 24  2  0  0  0  0
 21 25  1  0  0  0  0
 22 26  2  0  0  0  0
 25 27  2  0  0  0  0
  9 10  1  0  0  0  0
 15 13  1  6  0  0  0
 19 21  1  0  0  0  0
 23 24  1  0  0  0  0
 26 27  1  0  0  0  0
M  END
>  <MolRegNo>
2409539

>  <m>
=

>  <Value>
2800

>  <Unit>
nM

>  <Type>
IC50

>  <pValue>
5.55

>  <Ligand Efficiency>
0

>  <Binding Efficiency>
0

>  <Surface Efficiency>
0

>  <Assay Index>
1261526

>  <Assay Category>


>  <Assay Organism>
Homo sapiens

>  <Target ID>
17045

>  <Target Name>
Cytochrome P450 3A4

>  <Target Organism>
Homo sapiens

>  <Target Description>
Target is a single protein chain

>  <Sequence Accession>
P08684

>  <Reference>
ACS Med Chem Lett 11 (4), 541-549 (2020)

>  <Pubmed ID>
32292562

>  <DOI>
10.1021/acsmedchemlett.0c00004

$$$$
2459646
Actelion Java MolfileCreator 1.0

 27 31  0  0  0  0  0  0  0  0999 V2000
    0.0000   -0.0000   -0.0000 P   0  0  0  0  0  0  0  0  0  0  0  0
    1.2804    0.7706   -0.0000 O   0  0  0  0  0  0  0  0  0  0  0  0
   -0.7588    1.3041   -0.0000 C   0  0  0  0  0  0  0  0  0  0  0  0
    1.2923   -0.7232   -0.0000 C   0  0  0  0  0  0  0  0  0  0  0  0
   -0.7588   -1.2923   -0.0000 C   0  0  0  0  0  0  0  0  0  0  0  0
   -2.2644    1.3160   -0.0000 C   0  0  0  0  0  0  0  0  0  0  0  0
   -0.0237    2.6201   -0.0000 C   0  0  0  0  0  0  0  0  0  0  0  0
   -3.0113    2.6201   -0.0000 C   0  0  0  0  0  0  0  0  0  0  0  0
   -0.7825    3.9242   -0.0000 C   0  0  0  0  0  0  0  0  0  0  0  0
   -2.2763    3.9242   -0.0000 C   0  0  0  0  0  0  0  0  0  0  0  0
   -4.5052    2.6201   -0.0000 C   0  0  0  0  0  0  0  0  0  0  0  0
   -3.0351    5.2284   -0.0000 C   0  0  0  0  0  0  0  0  0  0  0  0
   -5.2639    1.3397   -0.0000 O   0  0  0  0  0  0  0  0  0  0  0  0
   -5.2758    3.9242   -0.0000 C   0  0  0  0  0  0  0  0  0  0  0  0
   -4.5407    5.2402   -0.0000 C   0  0  0  0  0  0  0  0  0  0  0  0
   -6.7814    3.9242   -0.0000 C   0  0  0  0  0  0  0  0  0  0  0  0
   -7.3979    2.5727   -0.0000 N   0  0  0  0  0  0  0  0  0  0  0  0
   -7.8959    4.9320   -0.0000 C   0  0  0  0  0  0  0  0  0  0  0  0
   -8.8918    2.7505   -0.0000 C   0  0  0  0  0  0  0  0  0  0  0  0
   -7.1134    1.1263   -0.0000 C   0  0  0  0  0  0  0  0  0  0  0  0
   -9.2000    4.2088   -0.0000 C   0  0  0  0  0  0  0  0  0  0  0  0
   -7.9077    6.4495   -0.0000 C   0  0  0  0  0  0  0  0  0  0  0  0
   -9.5201    1.4108   -0.0000 C   0  0  0  0  0  0  0  0  0  0  0  0
   -8.4175    0.4031   -0.0000 N   0  0  0  0  0  0  0  0  0  0  0  0
  -10.5160    4.9557   -0.0000 C   0  0  0  0  0  0  0  0  0  0  0  0
   -9.2119    7.2083   -0.0000 C   0  0  0  0  0  0  0  0  0  0  0  0
  -10.5278    6.4732   -0.0000 C   0  0  0  0  0  0  0  0  0  0  0  0
  1  2  2  0  0  0  0
  1  3  1  0  0  0  0
  1  4  1  0  0  0  0
  1  5  1  0  0  0  0
  3  6  2  0  0  0  0
  3  7  1  0  0  0  0
  6  8  1  0  0  0  0
  7  9  2  0  0  0  0
  8 10  2  0  0  0  0
  8 11  1  0  0  0  0
 10 12  1  0  0  0  0
 11 13  1  1  0  0  0
 11 14  1  0  0  0  0
 12 15  1  0  0  0  0
 14 16  1  0  0  0  0
 16 17  1  6  0  0  0
 16 18  1  0  0  0  0
 17 19  1  0  0  0  0
 17 20  1  0  0  0  0
 18 21  2  0  0  0  0
 18 22  1  0  0  0  0
 19 23  2  0  0  0  0
 20 24  2  0  0  0  0
 21 25  1  0  0  0  0
 22 26  2  0  0  0  0
 25 27  2  0  0  0  0
  9 10  1  0  0  0  0
 14 15  1  6  0  0  0
 19 21  1  0  0  0  0
 23 24  1  0  0  0  0
 26 27  1  0  0  0  0
M  END
>  <MolRegNo>
2459646

>  <m>
=

>  <Value>
1600

>  <Unit>
nM

>  <Type>
IC50

>  <pValue>
5.8

>  <Ligand Efficiency>
0

>  <Binding Efficiency>
0

>  <Surface Efficiency>
0

>  <Assay Index>
1261526

>  <Assay Category>


>  <Assay Organism>
Homo sapiens

>  <Target ID>
17045

>  <Target Name>
Cytochrome P450 3A4

>  <Target Organism>
Homo sapiens

>  <Target Description>
Target is a single protein chain

>  <Sequence Accession>
P08684

>  <Reference>
ACS Med Chem Lett 11 (4), 541-549 (2020)

>  <Pubmed ID>
32292562

>  <DOI>
10.1021/acsmedchemlett.0c00004

$$$$
2412255
Actelion Java MolfileCreator 1.0

 25 29  0  0  0  0  0  0  0  0999 V2000
    0.0000   -0.0000   -0.0000 O   0  0  0  0  0  0  0  0  0  0  0  0
    0.7381    1.3096   -0.0000 C   0  0  0  0  0  0  0  0  0  0  0  0
    2.2144    1.3334   -0.0000 C   0  0  0  0  0  0  0  0  0  0  0  0
   -0.0238    2.6192   -0.0000 C   0  0  0  0  0  0  0  0  0  0  0  0
    2.9644    2.6430   -0.0000 C   0  0  0  0  0  0  0  0  0  0  0  0
    2.9525    0.0476   -0.0000 C   0  0  0  0  0  0  0  0  0  0  0  0
   -1.5358    2.6192   -0.0000 C   0  0  0  0  0  0  0  0  0  0  0  0
    0.7024    3.9288   -0.0000 C   0  0  0  0  0  0  0  0  0  0  0  0
    4.4407    2.6549   -0.0000 C   0  0  0  0  0  0  0  0  0  0  0  0
    2.1906    3.9526   -0.0000 C   0  0  0  0  0  0  0  0  0  0  0  0
    4.4407    0.0595   -0.0000 C   0  0  0  0  0  0  0  0  0  0  0  0
   -2.1668    1.2620   -0.0000 N   0  0  0  0  0  0  0  0  0  0  0  0
   -2.6549    3.6311   -0.0000 C   0  0  0  0  0  0  0  0  0  0  0  0
    5.1788    1.3691   -0.0000 C   0  0  0  0  0  0  0  0  0  0  0  0
    5.1788   -1.2262   -0.0000 C   0  0  0  0  0  0  0  0  0  0  0  0
   -3.6668    1.4405   -0.0000 C   0  0  0  0  0  0  0  0  0  0  0  0
   -1.8691   -0.1905   -0.0000 C   0  0  0  0  0  0  0  0  0  0  0  0
   -3.9645    2.9049   -0.0000 C   0  0  0  0  0  0  0  0  0  0  0  0
   -2.6668    5.1550   -0.0000 C   0  0  0  0  0  0  0  0  0  0  0  0
    5.9170   -2.5120   -0.0000 N   0  0  0  0  0  0  0  0  0  0  0  0
   -4.2978    0.0952   -0.0000 C   0  0  0  0  0  0  0  0  0  0  0  0
   -3.1787   -0.9167   -0.0000 N   0  0  0  0  0  0  0  0  0  0  0  0
   -5.2860    3.6549   -0.0000 C   0  0  0  0  0  0  0  0  0  0  0  0
   -3.9764    5.9170   -0.0000 C   0  0  0  0  0  0  0  0  0  0  0  0
   -5.2979    5.1788   -0.0000 C   0  0  0  0  0  0  0  0  0  0  0  0
  2  1  1  1  0  0  0
  2  3  1  0  0  0  0
  2  4  1  0  0  0  0
  3  5  2  0  0  0  0
  3  6  1  0  0  0  0
  4  7  1  0  0  0  0
  4  8  1  6  0  0  0
  5  9  1  0  0  0  0
  5 10  1  0  0  0  0
  6 11  2  0  0  0  0
  7 12  1  6  0  0  0
  7 13  1  0  0  0  0
  9 14  2  0  0  0  0
 11 15  1  0  0  0  0
 12 16  1  0  0  0  0
 12 17  1  0  0  0  0
 13 18  2  0  0  0  0
 13 19  1  0  0  0  0
 15 20  3  0  0  0  0
 16 21  2  0  0  0  0
 17 22  2  0  0  0  0
 18 23  1  0  0  0  0
 19 24  2  0  0  0  0
 23 25  2  0  0  0  0
  8 10  1  0  0  0  0
 11 14  1  0  0  0  0
 16 18  1  0  0  0  0
 21 22  1  0  0  0  0
 24 25  1  0  0  0  0
M  END
>  <MolRegNo>
2412255

>  <m>
=

>  <Value>
3300

>  <Unit>
nM

>  <Type>
IC50

>  <pValue>
5.48

>  <Ligand Efficiency>
0

>  <Binding Efficiency>
0

>  <Surface Efficiency>
0

>  <Assay Index>
1261526

>  <Assay Category>


>  <Assay Organism>
Homo sapiens

>  <Target ID>
17045

>  <Target Name>
Cytochrome P450 3A4

>  <Target Organism>
Homo sapiens

>  <Target Description>
Target is a single protein chain

>  <Sequence Accession>
P08684

>  <Reference>
ACS Med Chem Lett 11 (4), 541-549 (2020)

>  <Pubmed ID>
32292562

>  <DOI>
10.1021/acsmedchemlett.0c00004

$$$$
2415123
Actelion Java MolfileCreator 1.0

 26 30  0  0  0  0  0  0  0  0999 V2000
    0.0000   -0.0000   -0.0000 O   0  0  0  0  0  0  0  0  0  0  0  0
   -1.5048    0.0118   -0.0000 C   0  0  0  0  0  0  0  0  0  0  0  0
   -2.2750   -1.2678   -0.0000 N   0  0  0  0  0  0  0  0  0  0  0  0
   -2.2631    1.3152   -0.0000 C   0  0  0  0  0  0  0  0  0  0  0  0
   -3.7679    1.3271   -0.0000 C   0  0  0  0  0  0  0  0  0  0  0  0
   -1.5285    2.6304   -0.0000 C   0  0  0  0  0  0  0  0  0  0  0  0
   -4.5144    2.6304   -0.0000 C   0  0  0  0  0  0  0  0  0  0  0  0
   -2.2868    3.9338   -0.0000 C   0  0  0  0  0  0  0  0  0  0  0  0
   -3.7798    3.9338   -0.0000 C   0  0  0  0  0  0  0  0  0  0  0  0
   -6.0073    2.6304   -0.0000 C   0  0  0  0  0  0  0  0  0  0  0  0
   -4.5381    5.2371   -0.0000 C   0  0  0  0  0  0  0  0  0  0  0  0
   -6.7656    1.3508   -0.0000 O   0  0  0  0  0  0  0  0  0  0  0  0
   -6.7775    3.9338   -0.0000 C   0  0  0  0  0  0  0  0  0  0  0  0
   -6.0429    5.2490   -0.0000 C   0  0  0  0  0  0  0  0  0  0  0  0
   -8.2823    3.9338   -0.0000 C   0  0  0  0  0  0  0  0  0  0  0  0
   -8.8984    2.5830   -0.0000 N   0  0  0  0  0  0  0  0  0  0  0  0
   -9.3961    4.9409   -0.0000 C   0  0  0  0  0  0  0  0  0  0  0  0
  -10.3914    2.7608   -0.0000 C   0  0  0  0  0  0  0  0  0  0  0  0
   -8.6140    1.1375   -0.0000 C   0  0  0  0  0  0  0  0  0  0  0  0
  -10.6994    4.2182   -0.0000 C   0  0  0  0  0  0  0  0  0  0  0  0
   -9.4079    6.4576   -0.0000 C   0  0  0  0  0  0  0  0  0  0  0  0
  -11.0193    1.4219   -0.0000 C   0  0  0  0  0  0  0  0  0  0  0  0
   -9.9174    0.4147   -0.0000 N   0  0  0  0  0  0  0  0  0  0  0  0
  -12.0146    4.9646   -0.0000 C   0  0  0  0  0  0  0  0  0  0  0  0
  -10.7113    7.2159   -0.0000 C   0  0  0  0  0  0  0  0  0  0  0  0
  -12.0265    6.4813   -0.0000 C   0  0  0  0  0  0  0  0  0  0  0  0
  1  2  2  0  0  0  0
  2  3  1  0  0  0  0
  2  4  1  0  0  0  0
  4  5  2  0  0  0  0
  4  6  1  0  0  0  0
  5  7  1  0  0  0  0
  6  8  2  0  0  0  0
  7  9  2  0  0  0  0
  7 10  1  0  0  0  0
  9 11  1  0  0  0  0
 10 12  1  1  0  0  0
 10 13  1  0  0  0  0
 11 14  1  0  0  0  0
 13 15  1  0  0  0  0
 15 16  1  6  0  0  0
 15 17  1  0  0  0  0
 16 18  1  0  0  0  0
 16 19  1  0  0  0  0
 17 20  2  0  0  0  0
 17 21  1  0  0  0  0
 18 22  2  0  0  0  0
 19 23  2  0  0  0  0
 20 24  1  0  0  0  0
 21 25  2  0  0  0  0
 24 26  2  0  0  0  0
  8  9  1  0  0  0  0
 13 14  1  6  0  0  0
 18 20  1  0  0  0  0
 22 23  1  0  0  0  0
 25 26  1  0  0  0  0
M  END
>  <MolRegNo>
2415123

>  <m>
=

>  <Value>
3600

>  <Unit>
nM

>  <Type>
IC50

>  <pValue>
5.44

>  <Ligand Efficiency>
0

>  <Binding Efficiency>
0

>  <Surface Efficiency>
0

>  <Assay Index>
1261526

>  <Assay Category>


>  <Assay Organism>
Homo sapiens

>  <Target ID>
17045

>  <Target Name>
Cytochrome P450 3A4

>  <Target Organism>
Homo sapiens

>  <Target Description>
Target is a single protein chain

>  <Sequence Accession>
P08684

>  <Reference>
ACS Med Chem Lett 11 (4), 541-549 (2020)

>  <Pubmed ID>
32292562

>  <DOI>
10.1021/acsmedchemlett.0c00004

$$$$
2461220
Actelion Java MolfileCreator 1.0

 22 26  0  0  0  0  0  0  0  0999 V2000
    0.0000   -0.0000   -0.0000 O   0  0  0  0  0  0  0  0  0  0  0  0
   -1.3866   -0.5807   -0.0000 N   0  0  0  0  0  0  0  0  0  0  0  0
   -0.1541    1.4932   -0.0000 N   0  0  0  0  0  0  0  0  0  0  0  0
   -2.3820    0.5451   -0.0000 C   0  0  0  0  0  0  0  0  0  0  0  0
   -1.6236    1.8250   -0.0000 C   0  0  0  0  0  0  0  0  0  0  0  0
   -3.8752    0.5451   -0.0000 C   0  0  0  0  0  0  0  0  0  0  0  0
   -2.3820    3.1286   -0.0000 C   0  0  0  0  0  0  0  0  0  0  0  0
   -4.6337   -0.7466   -0.0000 O   0  0  0  0  0  0  0  0  0  0  0  0
   -4.6456    1.8487   -0.0000 C   0  0  0  0  0  0  0  0  0  0  0  0
   -3.8871    3.1405   -0.0000 C   0  0  0  0  0  0  0  0  0  0  0  0
   -6.1506    1.8487   -0.0000 C   0  0  0  0  0  0  0  0  0  0  0  0
   -6.7669    0.4977   -0.0000 N   0  0  0  0  0  0  0  0  0  0  0  0
   -7.2646    2.8679   -0.0000 C   0  0  0  0  0  0  0  0  0  0  0  0
   -8.2601    0.6755   -0.0000 C   0  0  0  0  0  0  0  0  0  0  0  0
   -6.4824   -0.9481   -0.0000 C   0  0  0  0  0  0  0  0  0  0  0  0
   -8.5682    2.1332   -0.0000 C   0  0  0  0  0  0  0  0  0  0  0  0
   -7.2765    4.3848   -0.0000 C   0  0  0  0  0  0  0  0  0  0  0  0
   -8.8882   -0.6637   -0.0000 C   0  0  0  0  0  0  0  0  0  0  0  0
   -7.7860   -1.6710   -0.0000 N   0  0  0  0  0  0  0  0  0  0  0  0
   -9.8837    2.8916   -0.0000 C   0  0  0  0  0  0  0  0  0  0  0  0
   -8.5801    5.1314   -0.0000 C   0  0  0  0  0  0  0  0  0  0  0  0
   -9.8955    4.4085   -0.0000 C   0  0  0  0  0  0  0  0  0  0  0  0
  1  2  1  0  0  0  0
  1  3  1  0  0  0  0
  2  4  2  0  0  0  0
  3  5  2  0  0  0  0
  4  6  1  0  0  0  0
  5  7  1  0  0  0  0
  6  8  1  1  0  0  0
  6  9  1  0  0  0  0
  7 10  1  0  0  0  0
  9 11  1  0  0  0  0
 11 12  1  6  0  0  0
 11 13  1  0  0  0  0
 12 14  1  0  0  0  0
 12 15  1  0  0  0  0
 13 16  2  0  0  0  0
 13 17  1  0  0  0  0
 14 18  2  0  0  0  0
 15 19  2  0  0  0  0
 16 20  1  0  0  0  0
 17 21  2  0  0  0  0
 20 22  2  0  0  0  0
  4  5  1  0  0  0  0
  9 10  1  6  0  0  0
 14 16  1  0  0  0  0
 18 19  1  0  0  0  0
 21 22  1  0  0  0  0
M  END
>  <MolRegNo>
2461220

>  <m>
=

>  <Value>
8200

>  <Unit>
nM

>  <Type>
IC50

>  <pValue>
5.09

>  <Ligand Efficiency>
0

>  <Binding Efficiency>
0

>  <Surface Efficiency>
0

>  <Assay Index>
1261526

>  <Assay Category>


>  <Assay Organism>
Homo sapiens

>  <Target ID>
17045

>  <Target Name>
Cytochrome P450 3A4

>  <Target Organism>
Homo sapiens

>  <Target Description>
Target is a single protein chain

>  <Sequence Accession>
P08684

>  <Reference>
ACS Med Chem Lett 11 (4), 541-549 (2020)

>  <Pubmed ID>
32292562

>  <DOI>
10.1021/acsmedchemlett.0c00004

$$$$
2347739
Actelion Java MolfileCreator 1.0

 23 27  0  0  0  0  0  0  0  0999 V2000
    0.0000   -0.0000   -0.0000 O   0  0  0  0  0  0  0  0  0  0  0  0
    0.7368    1.3072   -0.0000 C   0  0  0  0  0  0  0  0  0  0  0  0
    2.2104    1.3310   -0.0000 C   0  0  0  0  0  0  0  0  0  0  0  0
   -0.0238    2.6144   -0.0000 C   0  0  0  0  0  0  0  0  0  0  0  0
    2.9591    2.6382   -0.0000 C   0  0  0  0  0  0  0  0  0  0  0  0
    3.1967    0.2258   -0.0000 C   0  0  0  0  0  0  0  0  0  0  0  0
   -1.5330    2.6144   -0.0000 C   0  0  0  0  0  0  0  0  0  0  0  0
    0.7011    3.9216   -0.0000 C   0  0  0  0  0  0  0  0  0  0  0  0
    4.4089    2.3292   -0.0000 N   0  0  0  0  0  0  0  0  0  0  0  0
    2.1866    3.9454   -0.0000 C   0  0  0  0  0  0  0  0  0  0  0  0
    4.5634    0.8319   -0.0000 N   0  0  0  0  0  0  0  0  0  0  0  0
   -2.1628    1.2597   -0.0000 N   0  0  0  0  0  0  0  0  0  0  0  0
   -2.6501    3.6364   -0.0000 C   0  0  0  0  0  0  0  0  0  0  0  0
    5.5141    3.3393   -0.0000 C   0  0  0  0  0  0  0  0  0  0  0  0
   -3.6602    1.4379   -0.0000 C   0  0  0  0  0  0  0  0  0  0  0  0
   -1.8776   -0.1901   -0.0000 C   0  0  0  0  0  0  0  0  0  0  0  0
   -3.9573    2.8996   -0.0000 C   0  0  0  0  0  0  0  0  0  0  0  0
   -2.6620    5.1576   -0.0000 C   0  0  0  0  0  0  0  0  0  0  0  0
   -4.2900    0.0951   -0.0000 C   0  0  0  0  0  0  0  0  0  0  0  0
   -3.1848   -0.9150   -0.0000 N   0  0  0  0  0  0  0  0  0  0  0  0
   -5.2764    3.6602   -0.0000 C   0  0  0  0  0  0  0  0  0  0  0  0
   -3.9692    5.9062   -0.0000 C   0  0  0  0  0  0  0  0  0  0  0  0
   -5.2883    5.1813   -0.0000 C   0  0  0  0  0  0  0  0  0  0  0  0
  2  1  1  1  0  0  0
  2  3  1  0  0  0  0
  2  4  1  0  0  0  0
  3  5  2  0  0  0  0
  3  6  1  0  0  0  0
  4  7  1  0  0  0  0
  4  8  1  6  0  0  0
  5  9  1  0  0  0  0
  5 10  1  0  0  0  0
  6 11  2  0  0  0  0
  7 12  1  6  0  0  0
  7 13  1  0  0  0  0
  9 14  1  0  0  0  0
 12 15  1  0  0  0  0
 12 16  1  0  0  0  0
 13 17  2  0  0  0  0
 13 18  1  0  0  0  0
 15 19  2  0  0  0  0
 16 20  2  0  0  0  0
 17 21  1  0  0  0  0
 18 22  2  0  0  0  0
 21 23  2  0  0  0  0
  8 10  1  0  0  0  0
  9 11  1  0  0  0  0
 15 17  1  0  0  0  0
 19 20  1  0  0  0  0
 22 23  1  0  0  0  0
M  END
>  <MolRegNo>
2347739

>  <m>
=

>  <Value>
3300

>  <Unit>
nM

>  <Type>
IC50

>  <pValue>
5.48

>  <Ligand Efficiency>
0

>  <Binding Efficiency>
0

>  <Surface Efficiency>
0

>  <Assay Index>
1261526

>  <Assay Category>


>  <Assay Organism>
Homo sapiens

>  <Target ID>
17045

>  <Target Name>
Cytochrome P450 3A4

>  <Target Organism>
Homo sapiens

>  <Target Description>
Target is a single protein chain

>  <Sequence Accession>
P08684

>  <Reference>
ACS Med Chem Lett 11 (4), 541-549 (2020)

>  <Pubmed ID>
32292562

>  <DOI>
10.1021/acsmedchemlett.0c00004

$$$$
2366496
Actelion Java MolfileCreator 1.0

 64 68  0  0  0  0  0  0  0  0999 V2000
    0.0000   -0.0000   -0.0000 F   0  0  0  0  0  0  0  0  0  0  0  0
   -1.5091    0.0119   -0.0000 C   0  0  0  0  0  0  0  0  0  0  0  0
   -2.8162   -0.7486   -0.0000 C   0  0  0  0  0  0  0  0  0  0  0  0
   -1.5329    1.5210   -0.0000 C   0  0  0  0  0  0  0  0  0  0  0  0
   -0.7724   -1.2714   -0.0000 C   0  0  0  0  0  0  0  0  0  0  0  0
   -2.8043   -2.2458   -0.0000 O   0  0  0  0  0  0  0  0  0  0  0  0
   -4.1114    0.0119   -0.0000 O   0  0  0  0  0  0  0  0  0  0  0  0
   -2.8399    2.2815   -0.0000 O   0  0  0  0  0  0  0  0  0  0  0  0
   -0.2495    2.2221   -0.0000 C   0  0  0  0  0  0  0  0  0  0  0  0
   -4.1589    1.4972   -0.0000 C   0  0  0  0  0  0  0  0  0  0  0  0
   -0.2614    3.7311   -0.0000 C   0  0  0  0  0  0  0  0  0  0  0  0
    1.0100    1.4616   -0.0000 C   0  0  0  0  0  0  0  0  0  0  0  0
   -5.4541    2.2458   -0.0000 C   0  0  0  0  0  0  0  0  0  0  0  0
   -5.4779    0.7605   -0.0000 C   0  0  0  0  0  0  0  0  0  0  0  0
    1.0338    4.4916   -0.0000 O   0  0  0  0  0  0  0  0  0  0  0  0
   -1.5447    4.5035   -0.0000 C   0  0  0  0  0  0  0  0  0  0  0  0
   -6.8919    1.8180   -0.0000 O   0  0  0  0  0  0  0  0  0  0  0  0
   -5.4660    3.7549   -0.0000 C   0  0  0  0  0  0  0  0  0  0  0  0
   -6.2384    0.9625   -0.0000 C   0  0  0  0  0  0  0  0  0  0  0  0
   -5.5135   -0.7248   -0.0000 C   0  0  0  0  0  0  0  0  0  0  0  0
    2.3290    3.7549   -0.0000 C   0  0  0  0  0  0  0  0  0  0  0  0
   -2.3290    3.2083   -0.0000 O   0  0  0  0  0  0  0  0  0  0  0  0
   -1.5566    6.0126   -0.0000 C   0  0  0  0  0  0  0  0  0  0  0  0
   -2.8637    5.2640   -0.0000 C   0  0  0  0  0  0  0  0  0  0  0  0
   -7.7831    3.0301   -0.0000 C   0  0  0  0  0  0  0  0  0  0  0  0
   -6.9038    4.2540   -0.0000 O   0  0  0  0  0  0  0  0  0  0  0  0
   -4.1946    4.5273   -0.0000 C   0  0  0  0  0  0  0  0  0  0  0  0
    2.3409    2.2696   -0.0000 O   0  0  0  0  0  0  0  0  0  0  0  0
    3.6242    4.5510   -0.0000 C   0  0  0  0  0  0  0  0  0  0  0  0
   -3.8500    3.2321   -0.0000 C   0  0  0  0  0  0  0  0  0  0  0  0
   -2.8756    6.7969   -0.0000 C   0  0  0  0  0  0  0  0  0  0  0  0
   -9.2922    3.0420   -0.0000 O   0  0  0  0  0  0  0  0  0  0  0  0
   -4.2064    6.0364   -0.0000 C   0  0  0  0  0  0  0  0  0  0  0  0
   -3.0538    3.8619   -0.0000 C   0  0  0  0  0  0  0  0  0  0  0  0
    3.6242    1.5329   -0.0000 C   0  0  0  0  0  0  0  0  0  0  0  0
    3.5886    6.0601   -0.0000 O   0  0  0  0  0  0  0  0  0  0  0  0
    4.9194    3.7906   -0.0000 C   0  0  0  0  0  0  0  0  0  0  0  0
   -2.8875    8.3060   -0.0000 C   0  0  0  0  0  0  0  0  0  0  0  0
   -5.5135    6.7850   -0.0000 N   0  0  0  0  0  0  0  0  0  0  0  0
    4.9194    2.3052   -0.0000 C   0  0  0  0  0  0  0  0  0  0  0  0
    3.6123    0.0475   -0.0000 C   0  0  0  0  0  0  0  0  0  0  0  0
    6.2146    4.5748   -0.0000 N   0  0  0  0  0  0  0  0  0  0  0  0
   -5.5373    8.2941   -0.0000 O   0  0  0  0  0  0  0  0  0  0  0  0
    6.2027    6.0839   -0.0000 C   0  0  0  0  0  0  0  0  0  0  0  0
    7.4979    3.8143   -0.0000 C   0  0  0  0  0  0  0  0  0  0  0  0
   -6.8444    9.0427   -0.0000 C   0  0  0  0  0  0  0  0  0  0  0  0
   -6.8682   10.5518   -0.0000 C   0  0  0  0  0  0  0  0  0  0  0  0
   -8.1752   11.3004   -0.0000 C   0  0  0  0  0  0  0  0  0  0  0  0
   -8.1990   12.8095   -0.0000 C   0  0  0  0  0  0  0  0  0  0  0  0
   -9.5061   13.5462   -0.0000 C   0  0  0  0  0  0  0  0  0  0  0  0
   -6.9276   13.5700   -0.0000 C   0  0  0  0  0  0  0  0  0  0  0  0
   -9.5299   15.0434   -0.0000 C   0  0  0  0  0  0  0  0  0  0  0  0
   -6.9513   15.0790   -0.0000 C   0  0  0  0  0  0  0  0  0  0  0  0
  -10.8488   15.7920   -0.0000 C   0  0  0  0  0  0  0  0  0  0  0  0
   -8.2465   15.8158   -0.0000 C   0  0  0  0  0  0  0  0  0  0  0  0
  -12.1440   15.0434   -0.0000 O   0  0  0  0  0  0  0  0  0  0  0  0
  -10.8726   17.3130   -0.0000 C   0  0  0  0  0  0  0  0  0  0  0  0
   -8.2703   17.3249   -0.0000 N   0  0  0  0  0  0  0  0  0  0  0  0
  -12.1797   18.0616   -0.0000 C   0  0  0  0  0  0  0  0  0  0  0  0
   -9.5893   18.0854   -0.0000 C   0  0  0  0  0  0  0  0  0  0  0  0
   -6.9989   18.0972   -0.0000 C   0  0  0  0  0  0  0  0  0  0  0  0
  -12.2035   19.5707   -0.0000 O   0  0  0  0  0  0  0  0  0  0  0  0
  -13.4749   17.3130   -0.0000 N   0  0  0  0  0  0  0  0  0  0  0  0
   -5.7155   17.3724   -0.0000 C   0  0  0  0  0  0  0  0  0  0  0  0
  2  1  1  6  0  0  0
  2  3  1  0  0  0  0
  2  4  1  0  0  0  0
  2  5  1  0  0  0  0
  3  6  2  0  0  0  0
  3  7  1  0  0  0  0
  4  8  2  0  0  0  0
  4  9  1  0  0  0  0
  7 10  1  0  0  0  0
  9 11  1  0  0  0  0
  9 12  1  1  0  0  0
 10 13  1  0  0  0  0
 10 14  1  1  0  0  0
 11 15  1  6  0  0  0
 11 16  1  0  0  0  0
 13 17  1  0  0  0  0
 13 18  1  0  0  0  0
 13 19  1  6  0  0  0
 14 20  1  0  0  0  0
 21 15  1  1  0  0  0
 16 22  1  0  0  0  0
 16 23  1  0  0  0  0
 16 24  1  1  0  0  0
 17 25  1  0  0  0  0
 18 26  1  6  0  0  0
 18 27  1  0  0  0  0
 21 28  1  0  0  0  0
 21 29  1  0  0  0  0
 22 30  1  0  0  0  0
 23 31  1  0  0  0  0
 25 32  2  0  0  0  0
 27 33  1  0  0  0  0
 27 34  1  6  0  0  0
 28 35  1  0  0  0  0
 29 36  1  6  0  0  0
 29 37  1  0  0  0  0
 31 38  1  6  0  0  0
 33 39  2  0  0  0  0
 35 40  1  0  0  0  0
 35 41  1  1  0  0  0
 37 42  1  1  0  0  0
 39 43  1  0  0  0  0
 42 44  1  0  0  0  0
 42 45  1  0  0  0  0
 43 46  1  0  0  0  0
 46 47  1  0  0  0  0
 47 48  2  0  0  0  0
 48 49  1  0  0  0  0
 49 50  2  0  0  0  0
 49 51  1  0  0  0  0
 50 52  1  0  0  0  0
 51 53  2  0  0  0  0
 52 54  1  0  0  0  0
 52 55  2  0  0  0  0
 54 56  2  0  0  0  0
 54 57  1  0  0  0  0
 55 58  1  0  0  0  0
 57 59  1  0  0  0  0
 57 60  2  0  0  0  0
 58 61  1  0  0  0  0
 59 62  2  0  0  0  0
 59 63  1  0  0  0  0
 61 64  1  0  0  0  0
 25 26  1  0  0  0  0
 31 33  1  0  0  0  0
 37 40  1  0  0  0  0
 53 55  1  0  0  0  0
 58 60  1  0  0  0  0
M  END
>  <MolRegNo>
2366496

>  <m>
=

>  <Value>
5140

>  <Unit>
nM

>  <Type>
IC50

>  <pValue>
5.29

>  <Ligand Efficiency>
0

>  <Binding Efficiency>
0

>  <Surface Efficiency>
0

>  <Assay Index>
1262412

>  <Assay Category>


>  <Assay Organism>
Homo sapiens

>  <Target ID>
17045

>  <Target Name>
Cytochrome P450 3A4

>  <Target Organism>
Homo sapiens

>  <Target Description>
Target is a single protein chain

>  <Sequence Accession>
P08684

>  <Reference>


>  <Pubmed ID>
30852383

>  <DOI>
10.1016/j.ejmech.2019.02.073

$$$$
2373833
Actelion Java MolfileCreator 1.0

 65 70  0  0  0  0  0  0  0  0999 V2000
    0.0000   -0.0000   -0.0000 F   0  0  0  0  0  0  0  0  0  0  0  0
   -0.7488    1.3043   -0.0000 C   0  0  0  0  0  0  0  0  0  0  0  0
   -2.0773    2.0773   -0.0000 C   0  0  0  0  0  0  0  0  0  0  0  0
    0.5435    2.0773   -0.0000 C   0  0  0  0  0  0  0  0  0  0  0  0
   -1.5096    0.0242   -0.0000 C   0  0  0  0  0  0  0  0  0  0  0  0
   -3.3937    1.3285   -0.0000 O   0  0  0  0  0  0  0  0  0  0  0  0
   -2.0893    3.5990   -0.0000 O   0  0  0  0  0  0  0  0  0  0  0  0
    1.8478    1.3526   -0.0000 O   0  0  0  0  0  0  0  0  0  0  0  0
    0.5193    3.5990   -0.0000 C   0  0  0  0  0  0  0  0  0  0  0  0
   -3.4057    4.3598   -0.0000 C   0  0  0  0  0  0  0  0  0  0  0  0
    1.8236    4.3840   -0.0000 C   0  0  0  0  0  0  0  0  0  0  0  0
   -0.7971    4.3840   -0.0000 C   0  0  0  0  0  0  0  0  0  0  0  0
   -3.4299    5.9057   -0.0000 C   0  0  0  0  0  0  0  0  0  0  0  0
   -4.7221    3.6110   -0.0000 C   0  0  0  0  0  0  0  0  0  0  0  0
    3.3091    4.3960   -0.0000 O   0  0  0  0  0  0  0  0  0  0  0  0
    1.8116    5.8815   -0.0000 C   0  0  0  0  0  0  0  0  0  0  0  0
   -4.7221    6.4129   -0.0000 O   0  0  0  0  0  0  0  0  0  0  0  0
   -2.1376    6.6545   -0.0000 C   0  0  0  0  0  0  0  0  0  0  0  0
   -4.5410    4.8429   -0.0000 C   0  0  0  0  0  0  0  0  0  0  0  0
   -4.7342    2.1256   -0.0000 C   0  0  0  0  0  0  0  0  0  0  0  0
    4.0700    3.1038   -0.0000 C   0  0  0  0  0  0  0  0  0  0  0  0
    2.5362    7.2100   -0.0000 O   0  0  0  0  0  0  0  0  0  0  0  0
    0.4831    6.6545   -0.0000 C   0  0  0  0  0  0  0  0  0  0  0  0
    3.2970    5.8936   -0.0000 C   0  0  0  0  0  0  0  0  0  0  0  0
   -4.7342    7.7535   -0.0000 C   0  0  0  0  0  0  0  0  0  0  0  0
   -3.2246    7.7414   -0.0000 O   0  0  0  0  0  0  0  0  0  0  0  0
   -2.1497    8.1762   -0.0000 C   0  0  0  0  0  0  0  0  0  0  0  0
    3.3453    1.7633   -0.0000 O   0  0  0  0  0  0  0  0  0  0  0  0
    5.5675    3.1642   -0.0000 C   0  0  0  0  0  0  0  0  0  0  0  0
    4.0217    7.2462   -0.0000 C   0  0  0  0  0  0  0  0  0  0  0  0
    0.4710    8.1762   -0.0000 C   0  0  0  0  0  0  0  0  0  0  0  0
   -5.6641    8.6834   -0.0000 O   0  0  0  0  0  0  0  0  0  0  0  0
   -0.8575    8.9491   -0.0000 C   0  0  0  0  0  0  0  0  0  0  0  0
   -2.9226    9.5167   -0.0000 C   0  0  0  0  0  0  0  0  0  0  0  0
    4.1424    0.4952   -0.0000 C   0  0  0  0  0  0  0  0  0  0  0  0
    6.2680    4.5168   -0.0000 O   0  0  0  0  0  0  0  0  0  0  0  0
    6.3525    1.8961   -0.0000 C   0  0  0  0  0  0  0  0  0  0  0  0
    4.7463    8.5626   -0.0000 C   0  0  0  0  0  0  0  0  0  0  0  0
    1.2198    9.5167   -0.0000 C   0  0  0  0  0  0  0  0  0  0  0  0
   -0.8695   10.4708   -0.0000 N   0  0  0  0  0  0  0  0  0  0  0  0
    5.6400    0.5555   -0.0000 C   0  0  0  0  0  0  0  0  0  0  0  0
    3.4178   -0.8212   -0.0000 C   0  0  0  0  0  0  0  0  0  0  0  0
    7.8501    1.9565   -0.0000 N   0  0  0  0  0  0  0  0  0  0  0  0
    6.2318    8.5989   -0.0000 C   0  0  0  0  0  0  0  0  0  0  0  0
    0.4106   11.2317   -0.0000 O   0  0  0  0  0  0  0  0  0  0  0  0
    8.5506    3.2970   -0.0000 C   0  0  0  0  0  0  0  0  0  0  0  0
    8.6351    0.6884   -0.0000 C   0  0  0  0  0  0  0  0  0  0  0  0
    6.9564    9.9153   -0.0000 C   0  0  0  0  0  0  0  0  0  0  0  0
    0.3985   12.7413   -0.0000 C   0  0  0  0  0  0  0  0  0  0  0  0
    8.4419    9.9394   -0.0000 C   0  0  0  0  0  0  0  0  0  0  0  0
    6.1835   11.1954   -0.0000 C   0  0  0  0  0  0  0  0  0  0  0  0
    9.1544   11.2558   -0.0000 C   0  0  0  0  0  0  0  0  0  0  0  0
    6.8960   12.5118   -0.0000 C   0  0  0  0  0  0  0  0  0  0  0  0
   10.6278   11.2800   -0.0000 C   0  0  0  0  0  0  0  0  0  0  0  0
    8.3815   12.5601   -0.0000 C   0  0  0  0  0  0  0  0  0  0  0  0
   11.3766    9.9998   -0.0000 O   0  0  0  0  0  0  0  0  0  0  0  0
   11.3524   12.5964   -0.0000 C   0  0  0  0  0  0  0  0  0  0  0  0
    9.0940   13.8765   -0.0000 N   0  0  0  0  0  0  0  0  0  0  0  0
   12.8500   12.6205   -0.0000 C   0  0  0  0  0  0  0  0  0  0  0  0
   10.5795   13.8886   -0.0000 C   0  0  0  0  0  0  0  0  0  0  0  0
    8.3211   15.1688   -0.0000 C   0  0  0  0  0  0  0  0  0  0  0  0
   13.5988   11.3404   -0.0000 O   0  0  0  0  0  0  0  0  0  0  0  0
   13.5746   13.9369   -0.0000 N   0  0  0  0  0  0  0  0  0  0  0  0
    8.2849   16.6784   -0.0000 C   0  0  0  0  0  0  0  0  0  0  0  0
    7.0047   15.9176   -0.0000 C   0  0  0  0  0  0  0  0  0  0  0  0
  2  1  1  6  0  0  0
  2  3  1  0  0  0  0
  2  4  1  0  0  0  0
  2  5  1  0  0  0  0
  3  6  2  0  0  0  0
  3  7  1  0  0  0  0
  4  8  2  0  0  0  0
  4  9  1  0  0  0  0
  7 10  1  0  0  0  0
  9 11  1  0  0  0  0
  9 12  1  6  0  0  0
 10 13  1  0  0  0  0
 10 14  1  6  0  0  0
 11 15  1  6  0  0  0
 11 16  1  0  0  0  0
 13 17  1  0  0  0  0
 13 18  1  0  0  0  0
 13 19  1  6  0  0  0
 14 20  1  0  0  0  0
 21 15  1  1  0  0  0
 16 22  1  1  0  0  0
 16 23  1  0  0  0  0
 16 24  1  0  0  0  0
 17 25  1  0  0  0  0
 18 26  1  1  0  0  0
 18 27  1  0  0  0  0
 21 28  1  0  0  0  0
 21 29  1  0  0  0  0
 22 30  1  0  0  0  0
 23 31  1  0  0  0  0
 25 32  2  0  0  0  0
 27 33  1  0  0  0  0
 27 34  1  1  0  0  0
 28 35  1  0  0  0  0
 29 36  1  6  0  0  0
 29 37  1  0  0  0  0
 30 38  1  0  0  0  0
 31 39  1  6  0  0  0
 33 40  2  0  0  0  0
 35 41  1  0  0  0  0
 35 42  1  1  0  0  0
 37 43  1  1  0  0  0
 38 44  2  0  0  0  0
 40 45  1  0  0  0  0
 43 46  1  0  0  0  0
 43 47  1  0  0  0  0
 44 48  1  0  0  0  0
 45 49  1  0  0  0  0
 48 50  2  0  0  0  0
 48 51  1  0  0  0  0
 50 52  1  0  0  0  0
 51 53  2  0  0  0  0
 52 54  1  0  0  0  0
 52 55  2  0  0  0  0
 54 56  2  0  0  0  0
 54 57  1  0  0  0  0
 55 58  1  0  0  0  0
 57 59  1  0  0  0  0
 57 60  2  0  0  0  0
 58 61  1  0  0  0  0
 59 62  2  0  0  0  0
 59 63  1  0  0  0  0
 61 64  1  0  0  0  0
 61 65  1  0  0  0  0
 25 26  1  0  0  0  0
 31 33  1  0  0  0  0
 37 41  1  0  0  0  0
 53 55  1  0  0  0  0
 58 60  1  0  0  0  0
 64 65  1  0  0  0  0
M  END
>  <MolRegNo>
2373833

>  <m>
=

>  <Value>
14900

>  <Unit>
nM

>  <Type>
IC50

>  <pValue>
4.83

>  <Ligand Efficiency>
0

>  <Binding Efficiency>
0

>  <Surface Efficiency>
0

>  <Assay Index>
1262412

>  <Assay Category>


>  <Assay Organism>
Homo sapiens

>  <Target ID>
17045

>  <Target Name>
Cytochrome P450 3A4

>  <Target Organism>
Homo sapiens

>  <Target Description>
Target is a single protein chain

>  <Sequence Accession>
P08684

>  <Reference>


>  <Pubmed ID>
30852383

>  <DOI>
10.1016/j.ejmech.2019.02.073

$$$$
2407538
Actelion Java MolfileCreator 1.0

 64 68  0  0  0  0  0  0  0  0999 V2000
    0.0000   -0.0000   -0.0000 F   0  0  0  0  0  0  0  0  0  0  0  0
   -1.5085    0.0119   -0.0000 C   0  0  0  0  0  0  0  0  0  0  0  0
   -2.8151   -0.7483   -0.0000 C   0  0  0  0  0  0  0  0  0  0  0  0
   -1.5323    1.5204   -0.0000 C   0  0  0  0  0  0  0  0  0  0  0  0
   -0.7721   -1.2710   -0.0000 C   0  0  0  0  0  0  0  0  0  0  0  0
   -2.8032   -2.2450   -0.0000 O   0  0  0  0  0  0  0  0  0  0  0  0
   -4.1098    0.0119   -0.0000 O   0  0  0  0  0  0  0  0  0  0  0  0
   -2.8389    2.2806   -0.0000 O   0  0  0  0  0  0  0  0  0  0  0  0
   -0.2494    2.2212   -0.0000 C   0  0  0  0  0  0  0  0  0  0  0  0
   -4.1574    1.4966   -0.0000 C   0  0  0  0  0  0  0  0  0  0  0  0
   -0.2613    3.7297   -0.0000 C   0  0  0  0  0  0  0  0  0  0  0  0
    1.0096    1.4610   -0.0000 C   0  0  0  0  0  0  0  0  0  0  0  0
   -5.4521    2.2450   -0.0000 C   0  0  0  0  0  0  0  0  0  0  0  0
   -5.4758    0.7602   -0.0000 C   0  0  0  0  0  0  0  0  0  0  0  0
    1.0334    4.4899   -0.0000 O   0  0  0  0  0  0  0  0  0  0  0  0
   -1.5442    4.5018   -0.0000 C   0  0  0  0  0  0  0  0  0  0  0  0
   -6.8893    1.8174   -0.0000 O   0  0  0  0  0  0  0  0  0  0  0  0
   -5.4639    3.7535   -0.0000 C   0  0  0  0  0  0  0  0  0  0  0  0
   -6.2360    0.9621   -0.0000 C   0  0  0  0  0  0  0  0  0  0  0  0
   -5.5115   -0.7246   -0.0000 C   0  0  0  0  0  0  0  0  0  0  0  0
    2.3281    3.7535   -0.0000 C   0  0  0  0  0  0  0  0  0  0  0  0
   -2.3281    3.2071   -0.0000 O   0  0  0  0  0  0  0  0  0  0  0  0
   -1.5560    6.0103   -0.0000 C   0  0  0  0  0  0  0  0  0  0  0  0
   -2.8626    5.2620   -0.0000 C   0  0  0  0  0  0  0  0  0  0  0  0
   -7.7802    3.0289   -0.0000 C   0  0  0  0  0  0  0  0  0  0  0  0
   -6.9012    4.2524   -0.0000 O   0  0  0  0  0  0  0  0  0  0  0  0
   -4.1930    4.5256   -0.0000 C   0  0  0  0  0  0  0  0  0  0  0  0
    2.3400    2.2687   -0.0000 O   0  0  0  0  0  0  0  0  0  0  0  0
    3.6228    4.5493   -0.0000 C   0  0  0  0  0  0  0  0  0  0  0  0
   -3.8485    3.2309   -0.0000 C   0  0  0  0  0  0  0  0  0  0  0  0
   -2.8745    6.7943   -0.0000 C   0  0  0  0  0  0  0  0  0  0  0  0
   -9.2887    3.0408   -0.0000 O   0  0  0  0  0  0  0  0  0  0  0  0
   -4.2049    6.0341   -0.0000 C   0  0  0  0  0  0  0  0  0  0  0  0
   -3.0527    3.8604   -0.0000 C   0  0  0  0  0  0  0  0  0  0  0  0
    3.6228    1.5323   -0.0000 C   0  0  0  0  0  0  0  0  0  0  0  0
    3.5872    6.0579   -0.0000 O   0  0  0  0  0  0  0  0  0  0  0  0
    4.9176    3.7891   -0.0000 C   0  0  0  0  0  0  0  0  0  0  0  0
   -2.8864    8.3028   -0.0000 C   0  0  0  0  0  0  0  0  0  0  0  0
   -5.5115    6.7824   -0.0000 N   0  0  0  0  0  0  0  0  0  0  0  0
    4.9176    2.2925   -0.0000 C   0  0  0  0  0  0  0  0  0  0  0  0
    3.6110    0.0475   -0.0000 C   0  0  0  0  0  0  0  0  0  0  0  0
    6.2123    4.5731   -0.0000 N   0  0  0  0  0  0  0  0  0  0  0  0
   -5.5352    8.2909   -0.0000 O   0  0  0  0  0  0  0  0  0  0  0  0
    6.2004    6.0816   -0.0000 C   0  0  0  0  0  0  0  0  0  0  0  0
    7.4951    3.8129   -0.0000 C   0  0  0  0  0  0  0  0  0  0  0  0
   -6.8418    9.0393   -0.0000 C   0  0  0  0  0  0  0  0  0  0  0  0
   -6.8656   10.5478   -0.0000 C   0  0  0  0  0  0  0  0  0  0  0  0
   -6.8893   12.0563   -0.0000 C   0  0  0  0  0  0  0  0  0  0  0  0
   -6.9131   13.5648   -0.0000 C   0  0  0  0  0  0  0  0  0  0  0  0
   -8.2078   14.3132   -0.0000 C   0  0  0  0  0  0  0  0  0  0  0  0
   -5.6302   14.3250   -0.0000 C   0  0  0  0  0  0  0  0  0  0  0  0
   -8.2316   15.8098   -0.0000 C   0  0  0  0  0  0  0  0  0  0  0  0
   -5.6421   15.8336   -0.0000 C   0  0  0  0  0  0  0  0  0  0  0  0
   -9.5382   16.5700   -0.0000 C   0  0  0  0  0  0  0  0  0  0  0  0
   -6.9368   16.5700   -0.0000 C   0  0  0  0  0  0  0  0  0  0  0  0
  -10.8447   15.8336   -0.0000 O   0  0  0  0  0  0  0  0  0  0  0  0
   -9.5500   18.0904   -0.0000 C   0  0  0  0  0  0  0  0  0  0  0  0
   -6.9487   18.0785   -0.0000 N   0  0  0  0  0  0  0  0  0  0  0  0
  -10.8566   18.8506   -0.0000 C   0  0  0  0  0  0  0  0  0  0  0  0
   -8.2553   18.8506   -0.0000 C   0  0  0  0  0  0  0  0  0  0  0  0
   -5.6659   18.8387   -0.0000 C   0  0  0  0  0  0  0  0  0  0  0  0
  -10.8685   20.3591   -0.0000 O   0  0  0  0  0  0  0  0  0  0  0  0
  -12.1632   18.1142   -0.0000 N   0  0  0  0  0  0  0  0  0  0  0  0
   -4.3830   18.1023   -0.0000 C   0  0  0  0  0  0  0  0  0  0  0  0
  2  1  1  6  0  0  0
  2  3  1  0  0  0  0
  2  4  1  0  0  0  0
  2  5  1  0  0  0  0
  3  6  2  0  0  0  0
  3  7  1  0  0  0  0
  4  8  2  0  0  0  0
  4  9  1  0  0  0  0
  7 10  1  0  0  0  0
  9 11  1  0  0  0  0
  9 12  1  1  0  0  0
 10 13  1  0  0  0  0
 10 14  1  1  0  0  0
 11 15  1  6  0  0  0
 11 16  1  0  0  0  0
 13 17  1  0  0  0  0
 13 18  1  0  0  0  0
 13 19  1  6  0  0  0
 14 20  1  0  0  0  0
 21 15  1  1  0  0  0
 16 22  1  0  0  0  0
 16 23  1  0  0  0  0
 16 24  1  1  0  0  0
 17 25  1  0  0  0  0
 18 26  1  6  0  0  0
 18 27  1  0  0  0  0
 21 28  1  0  0  0  0
 21 29  1  0  0  0  0
 22 30  1  0  0  0  0
 23 31  1  0  0  0  0
 25 32  2  0  0  0  0
 27 33  1  0  0  0  0
 27 34  1  6  0  0  0
 28 35  1  0  0  0  0
 29 36  1  6  0  0  0
 29 37  1  0  0  0  0
 31 38  1  6  0  0  0
 33 39  2  0  0  0  0
 35 40  1  0  0  0  0
 35 41  1  1  0  0  0
 37 42  1  1  0  0  0
 39 43  1  0  0  0  0
 42 44  1  0  0  0  0
 42 45  1  0  0  0  0
 43 46  1  0  0  0  0
 46 47  1  0  0  0  0
 47 48  3  0  0  0  0
 48 49  1  0  0  0  0
 49 50  2  0  0  0  0
 49 51  1  0  0  0  0
 50 52  1  0  0  0  0
 51 53  2  0  0  0  0
 52 54  1  0  0  0  0
 52 55  2  0  0  0  0
 54 56  2  0  0  0  0
 54 57  1  0  0  0  0
 55 58  1  0  0  0  0
 57 59  1  0  0  0  0
 57 60  2  0  0  0  0
 58 61  1  0  0  0  0
 59 62  2  0  0  0  0
 59 63  1  0  0  0  0
 61 64  1  0  0  0  0
 25 26  1  0  0  0  0
 31 33  1  0  0  0  0
 37 40  1  0  0  0  0
 53 55  1  0  0  0  0
 58 60  1  0  0  0  0
M  END
>  <MolRegNo>
2407538

>  <m>
=

>  <Value>
7320

>  <Unit>
nM

>  <Type>
IC50

>  <pValue>
5.13

>  <Ligand Efficiency>
0

>  <Binding Efficiency>
0

>  <Surface Efficiency>
0

>  <Assay Index>
1262412

>  <Assay Category>


>  <Assay Organism>
Homo sapiens

>  <Target ID>
17045

>  <Target Name>
Cytochrome P450 3A4

>  <Target Organism>
Homo sapiens

>  <Target Description>
Target is a single protein chain

>  <Sequence Accession>
P08684

>  <Reference>


>  <Pubmed ID>
30852383

>  <DOI>
10.1016/j.ejmech.2019.02.073

$$$$
171587
Actelion Java MolfileCreator 1.0

 58 62  0  0  1  0  0  0  0  0999 V2000
    0.0000   -0.0000   -0.0000 O   0  0  0  0  0  0  0  0  0  0  0  0
   -0.0433    1.4296   -0.0000 C   0  0  0  0  0  0  0  0  0  0  0  0
   -1.2996    2.1660   -0.0000 O   0  0  0  0  0  0  0  0  0  0  0  0
    1.0830    2.1660   -0.0000 C   0  0  0  0  0  0  0  0  0  0  0  0
   -1.3429    3.5956   -0.0000 C   0  0  0  0  0  0  0  0  0  0  0  0
    1.0397    3.5956   -0.0000 C   0  0  0  0  0  0  0  0  0  0  0  0
    2.2526    1.5162   -0.0000 C   0  0  0  0  0  0  0  0  0  0  0  0
   -2.5992    4.3320   -0.0000 C   0  0  0  0  0  0  0  0  0  0  0  0
   -2.5992    2.9458   -0.0000 C   0  0  0  0  0  0  0  0  0  0  0  0
   -0.2166    4.3320   -0.0000 O   0  0  0  0  0  0  0  0  0  0  0  0
    2.2093    4.3320   -0.0000 C   0  0  0  0  0  0  0  0  0  0  0  0
   -3.9854    3.9421   -0.0000 O   0  0  0  0  0  0  0  0  0  0  0  0
   -2.6425    5.7616   -0.0000 C   0  0  0  0  0  0  0  0  0  0  0  0
   -3.3356    3.1624   -0.0000 C   0  0  0  0  0  0  0  0  0  0  0  0
   -2.6425    1.6028   -0.0000 C   0  0  0  0  0  0  0  0  0  0  0  0
    2.1660    5.7616   -0.0000 C   0  0  0  0  0  0  0  0  0  0  0  0
    3.3790    3.6822   -0.0000 C   0  0  0  0  0  0  0  0  0  0  0  0
   -4.8518    5.1118   -0.0000 C   0  0  0  0  0  0  0  0  0  0  0  0
   -4.0288    6.2381   -0.0000 N   0  0  0  0  0  0  0  0  0  0  0  0
   -1.4729    6.4980   -0.0000 C   0  0  0  0  0  0  0  0  0  0  0  0
    7.6243    3.1624   -0.0000 O   0  0  0  0  0  0  0  0  0  0  0  0
    0.9097    6.4980   -0.0000 C   0  0  0  0  0  0  0  0  0  0  0  0
   -6.2814    5.1551   -0.0000 O   0  0  0  0  0  0  0  0  0  0  0  0
   -4.0721    7.6676   -0.0000 C   0  0  0  0  0  0  0  0  0  0  0  0
   -1.5162    7.9276   -0.0000 C   0  0  0  0  0  0  0  0  0  0  0  0
   -2.7292    7.2344   -0.0000 C   0  0  0  0  0  0  0  0  0  0  0  0
    7.5810    1.3429   -0.0000 C   0  0  0  0  0  0  0  0  0  0  0  0
    0.1733    5.3284   -0.0000 O   0  0  0  0  0  0  0  0  0  0  0  0
    0.8664    7.9276   -0.0000 C   0  0  0  0  0  0  0  0  0  0  0  0
   -0.5198    6.5413   -0.0000 C   0  0  0  0  0  0  0  0  0  0  0  0
   -5.3284    8.4041   -0.0000 C   0  0  0  0  0  0  0  0  0  0  0  0
   -2.7725    8.6640   -0.0000 O   0  0  0  0  0  0  0  0  0  0  0  0
   -0.3899    8.6640   -0.0000 C   0  0  0  0  0  0  0  0  0  0  0  0
    6.8446    2.5992   -0.0000 O   0  0  0  0  0  0  0  0  0  0  0  0
    6.8446    0.1733   -0.0000 C   0  0  0  0  0  0  0  0  0  0  0  0
   -1.2563    5.3717   -0.0000 C   0  0  0  0  0  0  0  0  0  0  0  0
   -6.5846    7.7543   -0.0000 C   0  0  0  0  0  0  0  0  0  0  0  0
   -0.4332   10.0936   -0.0000 C   0  0  0  0  0  0  0  0  0  0  0  0
    5.4150    2.6425   -0.0000 C   0  0  0  0  0  0  0  0  0  0  0  0
    7.4944   -0.9964   -0.0000 O   0  0  0  0  0  0  0  0  0  0  0  0
    5.4150    0.2166   -0.0000 C   0  0  0  0  0  0  0  0  0  0  0  0
   -7.8409    8.4907   -0.0000 C   0  0  0  0  0  0  0  0  0  0  0  0
    4.6786    1.4729   -0.0000 C   0  0  0  0  0  0  0  0  0  0  0  0
    4.6786    3.8988   -0.0000 C   0  0  0  0  0  0  0  0  0  0  0  0
    4.6786   -0.9530   -0.0000 N   0  0  0  0  0  0  0  0  0  0  0  0
   -9.0972    7.8409   -0.0000 N   0  0  0  0  0  0  0  0  0  0  0  0
    3.2490   -0.9097   -0.0000 C   0  0  0  0  0  0  0  0  0  0  0  0
    5.3284   -2.1227   -0.0000 C   0  0  0  0  0  0  0  0  0  0  0  0
   -9.5737    6.5413   -0.0000 C   0  0  0  0  0  0  0  0  0  0  0  0
  -10.2668    8.7073   -0.0000 C   0  0  0  0  0  0  0  0  0  0  0  0
  -11.0033    6.5846   -0.0000 N   0  0  0  0  0  0  0  0  0  0  0  0
  -11.4365    7.9276   -0.0000 C   0  0  0  0  0  0  0  0  0  0  0  0
  -12.6928    8.6640   -0.0000 C   0  0  0  0  0  0  0  0  0  0  0  0
  -12.7361   10.0936   -0.0000 C   0  0  0  0  0  0  0  0  0  0  0  0
  -13.9490    8.0142   -0.0000 C   0  0  0  0  0  0  0  0  0  0  0  0
  -13.9924   10.8300   -0.0000 N   0  0  0  0  0  0  0  0  0  0  0  0
  -15.2053    8.7506   -0.0000 C   0  0  0  0  0  0  0  0  0  0  0  0
  -15.2486   10.1802   -0.0000 C   0  0  0  0  0  0  0  0  0  0  0  0
  1  2  2  0  0  0  0
  2  3  1  0  0  0  0
  2  4  1  0  0  0  0
  3  5  1  0  0  0  0
  4  6  1  0  0  0  0
  4  7  1  1  0  0  0
  5  8  1  0  0  0  0
  5  9  1  1  0  0  0
  6 10  2  0  0  0  0
  6 11  1  0  0  0  0
  8 12  1  0  0  0  0
  8 13  1  0  0  0  0
  8 14  1  6  0  0  0
  9 15  1  0  0  0  0
 11 16  1  0  0  0  0
 11 17  1  1  0  0  0
 12 18  1  0  0  0  0
 13 19  1  6  0  0  0
 13 20  1  0  0  0  0
 16 21  1  6  0  0  0
 16 22  1  0  0  0  0
 18 23  2  0  0  0  0
 19 24  1  0  0  0  0
 20 25  1  0  0  0  0
 20 26  1  6  0  0  0
 27 21  1  1  0  0  0
 22 28  1  6  0  0  0
 22 29  1  0  0  0  0
 22 30  1  0  0  0  0
 24 31  1  0  0  0  0
 25 32  2  0  0  0  0
 25 33  1  0  0  0  0
 27 34  1  0  0  0  0
 27 35  1  0  0  0  0
 28 36  1  0  0  0  0
 31 37  1  0  0  0  0
 33 38  1  6  0  0  0
 34 39  1  0  0  0  0
 35 40  1  6  0  0  0
 35 41  1  0  0  0  0
 37 42  1  0  0  0  0
 39 43  1  0  0  0  0
 39 44  1  1  0  0  0
 41 45  1  1  0  0  0
 42 46  1  0  0  0  0
 45 47  1  0  0  0  0
 45 48  1  0  0  0  0
 46 49  1  0  0  0  0
 46 50  1  0  0  0  0
 49 51  2  0  0  0  0
 50 52  2  0  0  0  0
 52 53  1  0  0  0  0
 53 54  2  0  0  0  0
 53 55  1  0  0  0  0
 54 56  1  0  0  0  0
 55 57  2  0  0  0  0
 56 58  2  0  0  0  0
 18 19  1  0  0  0  0
 29 33  1  0  0  0  0
 41 43  1  0  0  0  0
 51 52  1  0  0  0  0
 57 58  1  0  0  0  0
M  END
>  <MolRegNo>
171587

>  <m>
=

>  <Value>
11800

>  <Unit>
nM

>  <Type>
IC50

>  <pValue>
4.93

>  <Ligand Efficiency>
0

>  <Binding Efficiency>
0

>  <Surface Efficiency>
0

>  <Assay Index>
1262412

>  <Assay Category>


>  <Assay Organism>
Homo sapiens

>  <Target ID>
17045

>  <Target Name>
Cytochrome P450 3A4

>  <Target Organism>
Homo sapiens

>  <Target Description>
Target is a single protein chain

>  <Sequence Accession>
P08684

>  <Reference>


>  <Pubmed ID>
30852383

>  <DOI>
10.1016/j.ejmech.2019.02.073

$$$$
2197775
Actelion Java MolfileCreator 1.0

 55 59  0  0  1  0  0  0  0  0999 V2000
    0.0000   -0.0000   -0.0000 O   0  0  0  0  0  0  0  0  0  0  0  0
    0.7330    1.3123   -0.0000 C   0  0  0  0  0  0  0  0  0  0  0  0
   -0.0355    2.6247   -0.0000 O   0  0  0  0  0  0  0  0  0  0  0  0
    2.2227    1.3242   -0.0000 C   0  0  0  0  0  0  0  0  0  0  0  0
   -1.5488    2.6365   -0.0000 C   0  0  0  0  0  0  0  0  0  0  0  0
    2.9557    2.6365   -0.0000 C   0  0  0  0  0  0  0  0  0  0  0  0
    2.9557    0.0355   -0.0000 C   0  0  0  0  0  0  0  0  0  0  0  0
   -2.3055    3.9488   -0.0000 C   0  0  0  0  0  0  0  0  0  0  0  0
   -2.3055    1.3478   -0.0000 C   0  0  0  0  0  0  0  0  0  0  0  0
    2.1991    3.9488   -0.0000 O   0  0  0  0  0  0  0  0  0  0  0  0
    4.4454    2.6483   -0.0000 C   0  0  0  0  0  0  0  0  0  0  0  0
   -3.7833    4.2681   -0.0000 O   0  0  0  0  0  0  0  0  0  0  0  0
   -1.5724    5.2612   -0.0000 C   0  0  0  0  0  0  0  0  0  0  0  0
   -3.2040    2.7429   -0.0000 C   0  0  0  0  0  0  0  0  0  0  0  0
   -3.8188    1.3596   -0.0000 C   0  0  0  0  0  0  0  0  0  0  0  0
    5.1784    3.9607   -0.0000 C   0  0  0  0  0  0  0  0  0  0  0  0
    5.1784    1.3596   -0.0000 C   0  0  0  0  0  0  0  0  0  0  0  0
   -3.9488    5.7696   -0.0000 C   0  0  0  0  0  0  0  0  0  0  0  0
   -2.5892    6.3843   -0.0000 N   0  0  0  0  0  0  0  0  0  0  0  0
   -0.0828    5.2730   -0.0000 C   0  0  0  0  0  0  0  0  0  0  0  0
    6.6681    3.9725   -0.0000 O   0  0  0  0  0  0  0  0  0  0  0  0
    4.4218    5.2730   -0.0000 C   0  0  0  0  0  0  0  0  0  0  0  0
   -5.2612    6.5262   -0.0000 O   0  0  0  0  0  0  0  0  0  0  0  0
    0.6503    6.5853   -0.0000 C   0  0  0  0  0  0  0  0  0  0  0  0
    0.6503    3.9843   -0.0000 C   0  0  0  0  0  0  0  0  0  0  0  0
    7.4011    2.6838   -0.0000 C   0  0  0  0  0  0  0  0  0  0  0  0
    5.7104    6.0297   -0.0000 O   0  0  0  0  0  0  0  0  0  0  0  0
    2.9084    5.2848   -0.0000 C   0  0  0  0  0  0  0  0  0  0  0  0
    4.3035    6.7863   -0.0000 C   0  0  0  0  0  0  0  0  0  0  0  0
   -0.1064    7.8977   -0.0000 O   0  0  0  0  0  0  0  0  0  0  0  0
    2.1399    6.5972   -0.0000 C   0  0  0  0  0  0  0  0  0  0  0  0
    6.6326    1.3951   -0.0000 O   0  0  0  0  0  0  0  0  0  0  0  0
    8.8908    2.6956   -0.0000 C   0  0  0  0  0  0  0  0  0  0  0  0
    5.6986    7.5430   -0.0000 C   0  0  0  0  0  0  0  0  0  0  0  0
    2.8730    7.9095   -0.0000 C   0  0  0  0  0  0  0  0  0  0  0  0
    7.3775    0.1064   -0.0000 C   0  0  0  0  0  0  0  0  0  0  0  0
    9.6238    4.0080   -0.0000 O   0  0  0  0  0  0  0  0  0  0  0  0
    9.6356    1.4069   -0.0000 C   0  0  0  0  0  0  0  0  0  0  0  0
    6.9873    8.2996   -0.0000 C   0  0  0  0  0  0  0  0  0  0  0  0
    8.8671    0.1182   -0.0000 C   0  0  0  0  0  0  0  0  0  0  0  0
    6.6208   -1.1823   -0.0000 C   0  0  0  0  0  0  0  0  0  0  0  0
   11.1253    1.4187   -0.0000 N   0  0  0  0  0  0  0  0  0  0  0  0
    6.9755    9.8130   -0.0000 C   0  0  0  0  0  0  0  0  0  0  0  0
   11.8702    2.7311   -0.0000 C   0  0  0  0  0  0  0  0  0  0  0  0
   11.8702    0.1301   -0.0000 C   0  0  0  0  0  0  0  0  0  0  0  0
    8.2642   10.5696   -0.0000 C   0  0  0  0  0  0  0  0  0  0  0  0
    8.2524   12.0830   -0.0000 C   0  0  0  0  0  0  0  0  0  0  0  0
    9.5529    9.8366   -0.0000 C   0  0  0  0  0  0  0  0  0  0  0  0
    9.5411   12.8396   -0.0000 N   0  0  0  0  0  0  0  0  0  0  0  0
   10.8416   10.5933   -0.0000 C   0  0  0  0  0  0  0  0  0  0  0  0
   10.8297   12.1066   -0.0000 C   0  0  0  0  0  0  0  0  0  0  0  0
   12.1303    9.8603   -0.0000 C   0  0  0  0  0  0  0  0  0  0  0  0
   12.1184   12.8633   -0.0000 C   0  0  0  0  0  0  0  0  0  0  0  0
   13.4189   10.6169   -0.0000 C   0  0  0  0  0  0  0  0  0  0  0  0
   13.4071   12.1303   -0.0000 C   0  0  0  0  0  0  0  0  0  0  0  0
  1  2  2  0  0  0  0
  2  3  1  0  0  0  0
  2  4  1  0  0  0  0
  3  5  1  0  0  0  0
  4  6  1  0  0  0  0
  4  7  1  1  0  0  0
  5  8  1  0  0  0  0
  5  9  1  6  0  0  0
  6 10  2  0  0  0  0
  6 11  1  0  0  0  0
  8 12  1  0  0  0  0
  8 13  1  0  0  0  0
  8 14  1  6  0  0  0
  9 15  1  0  0  0  0
 11 16  1  0  0  0  0
 11 17  1  1  0  0  0
 12 18  1  0  0  0  0
 13 19  1  6  0  0  0
 13 20  1  0  0  0  0
 16 21  1  6  0  0  0
 16 22  1  0  0  0  0
 18 23  2  0  0  0  0
 20 24  1  0  0  0  0
 20 25  1  6  0  0  0
 26 21  1  1  0  0  0
 22 27  1  1  0  0  0
 22 28  1  0  0  0  0
 22 29  1  0  0  0  0
 24 30  2  0  0  0  0
 24 31  1  0  0  0  0
 26 32  1  0  0  0  0
 26 33  1  0  0  0  0
 27 34  1  0  0  0  0
 31 35  1  6  0  0  0
 32 36  1  0  0  0  0
 33 37  1  6  0  0  0
 33 38  1  0  0  0  0
 34 39  1  0  0  0  0
 36 40  1  0  0  0  0
 36 41  1  1  0  0  0
 38 42  1  1  0  0  0
 39 43  2  3  0  0  0
 42 44  1  0  0  0  0
 42 45  1  0  0  0  0
 43 46  1  0  0  0  0
 46 47  1  0  0  0  0
 46 48  2  0  0  0  0
 47 49  2  0  0  0  0
 48 50  1  0  0  0  0
 49 51  1  0  0  0  0
 50 52  2  0  0  0  0
 51 53  2  0  0  0  0
 52 54  1  0  0  0  0
 53 55  1  0  0  0  0
 18 19  1  0  0  0  0
 28 31  1  0  0  0  0
 38 40  1  0  0  0  0
 50 51  1  0  0  0  0
 54 55  2  0  0  0  0
M  END
>  <MolRegNo>
2197775

>  <m>
=

>  <Value>
2700

>  <Unit>
nM

>  <Type>
IC50

>  <pValue>
5.57

>  <Ligand Efficiency>
0

>  <Binding Efficiency>
0

>  <Surface Efficiency>
0

>  <Assay Index>
1262417

>  <Assay Category>


>  <Assay Organism>
Homo sapiens

>  <Target ID>
17045

>  <Target Name>
Cytochrome P450 3A4

>  <Target Organism>
Homo sapiens

>  <Target Description>
Target is a single protein chain

>  <Sequence Accession>
P08684

>  <Reference>


>  <Pubmed ID>
30852383

>  <DOI>
10.1016/j.ejmech.2019.02.073

$$$$
2381924
Actelion Java MolfileCreator 1.0

 57 60  0  0  0  0  0  0  0  0999 V2000
    0.0000   -0.0000   -0.0000 O   0  0  0  0  0  0  0  0  0  0  0  0
   -0.0358    1.5273   -0.0000 C   0  0  0  0  0  0  0  0  0  0  0  0
   -1.3364    2.2909   -0.0000 O   0  0  0  0  0  0  0  0  0  0  0  0
    1.2528    2.3148   -0.0000 C   0  0  0  0  0  0  0  0  0  0  0  0
   -1.3841    3.7824   -0.0000 C   0  0  0  0  0  0  0  0  0  0  0  0
    1.2290    3.8301   -0.0000 C   0  0  0  0  0  0  0  0  0  0  0  0
    0.1670    3.4006   -0.0000 C   0  0  0  0  0  0  0  0  0  0  0  0
   -2.6727    4.5221   -0.0000 C   0  0  0  0  0  0  0  0  0  0  0  0
   -2.6966    3.0426   -0.0000 C   0  0  0  0  0  0  0  0  0  0  0  0
    2.5057    3.0903   -0.0000 O   0  0  0  0  0  0  0  0  0  0  0  0
    2.5176    4.5341   -0.0000 C   0  0  0  0  0  0  0  0  0  0  0  0
   -4.1165    4.0926   -0.0000 O   0  0  0  0  0  0  0  0  0  0  0  0
   -2.6847    6.0375   -0.0000 C   0  0  0  0  0  0  0  0  0  0  0  0
   -3.4602    3.2335   -0.0000 C   0  0  0  0  0  0  0  0  0  0  0  0
   -2.7324    1.5511   -0.0000 C   0  0  0  0  0  0  0  0  0  0  0  0
    2.4937    1.6108   -0.0000 C   0  0  0  0  0  0  0  0  0  0  0  0
    2.5057    6.0494   -0.0000 C   0  0  0  0  0  0  0  0  0  0  0  0
    3.7824    3.7824   -0.0000 C   0  0  0  0  0  0  0  0  0  0  0  0
   -5.0233    5.3096   -0.0000 C   0  0  0  0  0  0  0  0  0  0  0  0
   -4.1284    6.5506   -0.0000 O   0  0  0  0  0  0  0  0  0  0  0  0
   -1.4199    6.8131   -0.0000 C   0  0  0  0  0  0  0  0  0  0  0  0
    1.1932    0.8830   -0.0000 O   0  0  0  0  0  0  0  0  0  0  0  0
    3.7704    0.8710   -0.0000 N   0  0  0  0  0  0  0  0  0  0  0  0
    3.8182    6.8131   -0.0000 O   0  0  0  0  0  0  0  0  0  0  0  0
    1.2170    6.8250   -0.0000 C   0  0  0  0  0  0  0  0  0  0  0  0
   -6.5386    5.3216   -0.0000 O   0  0  0  0  0  0  0  0  0  0  0  0
   -1.4318    8.3284   -0.0000 C   0  0  0  0  0  0  0  0  0  0  0  0
   -0.3818    6.2045   -0.0000 C   0  0  0  0  0  0  0  0  0  0  0  0
    3.7585   -0.6085   -0.0000 C   0  0  0  0  0  0  0  0  0  0  0  0
    5.1307    6.0733   -0.0000 C   0  0  0  0  0  0  0  0  0  0  0  0
    0.4415    5.5244   -0.0000 O   0  0  0  0  0  0  0  0  0  0  0  0
    1.2051    8.3403   -0.0000 C   0  0  0  0  0  0  0  0  0  0  0  0
   -0.1193    7.5886   -0.0000 C   0  0  0  0  0  0  0  0  0  0  0  0
   -2.7443    9.0801   -0.0000 N   0  0  0  0  0  0  0  0  0  0  0  0
   -0.1432    9.1040   -0.0000 C   0  0  0  0  0  0  0  0  0  0  0  0
    2.4579   -1.3364   -0.0000 C   0  0  0  0  0  0  0  0  0  0  0  0
    5.1426    4.5818   -0.0000 O   0  0  0  0  0  0  0  0  0  0  0  0
    6.4432    6.8727   -0.0000 C   0  0  0  0  0  0  0  0  0  0  0  0
   -1.0858    5.5483   -0.0000 C   0  0  0  0  0  0  0  0  0  0  0  0
   -2.7682   10.5954   -0.0000 O   0  0  0  0  0  0  0  0  0  0  0  0
   -0.1551   10.6193   -0.0000 C   0  0  0  0  0  0  0  0  0  0  0  0
    2.4460   -2.8159   -0.0000 C   0  0  0  0  0  0  0  0  0  0  0  0
    6.4312    3.8420   -0.0000 C   0  0  0  0  0  0  0  0  0  0  0  0
    6.4074    8.3881   -0.0000 O   0  0  0  0  0  0  0  0  0  0  0  0
    7.7557    6.1091   -0.0000 C   0  0  0  0  0  0  0  0  0  0  0  0
   -4.0807   11.3471   -0.0000 C   0  0  0  0  0  0  0  0  0  0  0  0
    1.1455   -3.5437   -0.0000 C   0  0  0  0  0  0  0  0  0  0  0  0
    7.7437    4.6057   -0.0000 C   0  0  0  0  0  0  0  0  0  0  0  0
    6.4193    2.3506   -0.0000 C   0  0  0  0  0  0  0  0  0  0  0  0
    9.0443    6.8966   -0.0000 N   0  0  0  0  0  0  0  0  0  0  0  0
    1.1455   -5.0114   -0.0000 C   0  0  0  0  0  0  0  0  0  0  0  0
   -0.1551   -2.7801   -0.0000 C   0  0  0  0  0  0  0  0  0  0  0  0
    9.0324    8.4119   -0.0000 C   0  0  0  0  0  0  0  0  0  0  0  0
   10.3329    6.1329   -0.0000 C   0  0  0  0  0  0  0  0  0  0  0  0
   -0.1551   -5.7511   -0.0000 N   0  0  0  0  0  0  0  0  0  0  0  0
   -1.4557   -3.5079   -0.0000 C   0  0  0  0  0  0  0  0  0  0  0  0
   -1.4676   -4.9875   -0.0000 C   0  0  0  0  0  0  0  0  0  0  0  0
  1  2  2  0  0  0  0
  2  3  1  0  0  0  0
  2  4  1  0  0  0  0
  3  5  1  0  0  0  0
  4  6  1  0  0  0  0
  4  7  1  6  0  0  0
  5  8  1  0  0  0  0
  5  9  1  6  0  0  0
  6 10  1  6  0  0  0
  6 11  1  0  0  0  0
  8 12  1  0  0  0  0
  8 13  1  0  0  0  0
  8 14  1  1  0  0  0
  9 15  1  0  0  0  0
 10 16  1  0  0  0  0
 11 17  1  0  0  0  0
 11 18  1  6  0  0  0
 12 19  1  0  0  0  0
 13 20  1  1  0  0  0
 13 21  1  0  0  0  0
 16 22  2  0  0  0  0
 16 23  1  0  0  0  0
 17 24  1  1  0  0  0
 17 25  1  0  0  0  0
 19 26  2  0  0  0  0
 21 27  1  0  0  0  0
 21 28  1  1  0  0  0
 23 29  1  0  0  0  0
 30 24  1  6  0  0  0
 25 31  1  0  0  0  0
 25 32  1  0  0  0  0
 25 33  1  6  0  0  0
 27 34  2  0  0  0  0
 27 35  1  0  0  0  0
 29 36  1  0  0  0  0
 30 37  1  0  0  0  0
 30 38  1  0  0  0  0
 31 39  1  0  0  0  0
 34 40  1  0  0  0  0
 35 41  1  1  0  0  0
 36 42  1  0  0  0  0
 37 43  1  0  0  0  0
 38 44  1  1  0  0  0
 38 45  1  0  0  0  0
 40 46  1  0  0  0  0
 42 47  1  0  0  0  0
 43 48  1  0  0  0  0
 43 49  1  6  0  0  0
 45 50  1  6  0  0  0
 47 51  2  0  0  0  0
 47 52  1  0  0  0  0
 50 53  1  0  0  0  0
 50 54  1  0  0  0  0
 51 55  1  0  0  0  0
 52 56  2  0  0  0  0
 55 57  2  0  0  0  0
 19 20  1  0  0  0  0
 32 35  1  0  0  0  0
 45 48  1  0  0  0  0
 56 57  1  0  0  0  0
M  END
>  <MolRegNo>
2381924

>  <m>
=

>  <Value>
2500

>  <Unit>
nM

>  <Type>
IC50

>  <pValue>
5.6

>  <Ligand Efficiency>
0

>  <Binding Efficiency>
0

>  <Surface Efficiency>
0

>  <Assay Index>
1263872

>  <Assay Category>


>  <Assay Organism>
Homo sapiens

>  <Target ID>
17045

>  <Target Name>
Cytochrome P450 3A4

>  <Target Organism>
Homo sapiens

>  <Target Description>
Target is a single protein chain

>  <Sequence Accession>
P08684

>  <Reference>


>  <Pubmed ID>
30925339

>  <DOI>
10.1016/j.ejmech.2019.03.037

$$$$
2440922
Actelion Java MolfileCreator 1.0

 29 32  0  0  0  0  0  0  0  0999 V2000
    0.0000   -0.0000   -0.0000 Cl  0  0  0  0  0  0  0  0  0  0  0  0
    0.9901    1.1197   -0.0000 C   0  0  0  0  0  0  0  0  0  0  0  0
    0.5186    2.5459   -0.0000 C   0  0  0  0  0  0  0  0  0  0  0  0
    2.4399    0.8251   -0.0000 C   0  0  0  0  0  0  0  0  0  0  0  0
    1.4851    3.6775   -0.0000 C   0  0  0  0  0  0  0  0  0  0  0  0
   -0.9547    2.8642   -0.0000 C   0  0  0  0  0  0  0  0  0  0  0  0
    3.4182    1.9566   -0.0000 C   0  0  0  0  0  0  0  0  0  0  0  0
    0.9901    5.1037   -0.0000 Cl  0  0  0  0  0  0  0  0  0  0  0  0
    2.9349    3.3946   -0.0000 C   0  0  0  0  0  0  0  0  0  0  0  0
   -1.9566    1.7562   -0.0000 O   0  0  0  0  0  0  0  0  0  0  0  0
   -1.4380    4.2904   -0.0000 C   0  0  0  0  0  0  0  0  0  0  0  0
   -2.8760    4.7619   -0.0000 C   0  0  0  0  0  0  0  0  0  0  0  0
   -0.5776    5.5162   -0.0000 C   0  0  0  0  0  0  0  0  0  0  0  0
   -2.8996    6.2706   -0.0000 C   0  0  0  0  0  0  0  0  0  0  0  0
   -4.1843    4.0193   -0.0000 C   0  0  0  0  0  0  0  0  0  0  0  0
   -1.4733    6.7303   -0.0000 N   0  0  0  0  0  0  0  0  0  0  0  0
   -4.2079    7.0249   -0.0000 C   0  0  0  0  0  0  0  0  0  0  0  0
   -5.4926    4.7737   -0.0000 C   0  0  0  0  0  0  0  0  0  0  0  0
   -1.0372    8.1682   -0.0000 C   0  0  0  0  0  0  0  0  0  0  0  0
   -5.5044    6.2941   -0.0000 C   0  0  0  0  0  0  0  0  0  0  0  0
    0.4125    8.4865   -0.0000 C   0  0  0  0  0  0  0  0  0  0  0  0
   -2.0509    9.2762   -0.0000 C   0  0  0  0  0  0  0  0  0  0  0  0
    1.4026    7.3903   -0.0000 F   0  0  0  0  0  0  0  0  0  0  0  0
    0.8486    9.9245   -0.0000 C   0  0  0  0  0  0  0  0  0  0  0  0
   -1.6148   10.7142   -0.0000 C   0  0  0  0  0  0  0  0  0  0  0  0
   -0.1650   11.0442   -0.0000 C   0  0  0  0  0  0  0  0  0  0  0  0
    0.2711   12.4822   -0.0000 C   0  0  0  0  0  0  0  0  0  0  0  0
   -0.7426   13.6020   -0.0000 O   0  0  0  0  0  0  0  0  0  0  0  0
    1.7209   12.8122   -0.0000 O   0  0  0  0  0  0  0  0  0  0  0  0
  1  2  1  0  0  0  0
  2  3  2  0  0  0  0
  2  4  1  0  0  0  0
  3  5  1  0  0  0  0
  3  6  1  0  0  0  0
  4  7  2  0  0  0  0
  5  8  1  0  0  0  0
  5  9  2  0  0  0  0
  6 10  2  0  0  0  0
  6 11  1  0  0  0  0
 11 12  1  0  0  0  0
 11 13  2  0  0  0  0
 12 14  2  0  0  0  0
 12 15  1  0  0  0  0
 13 16  1  0  0  0  0
 14 17  1  0  0  0  0
 15 18  2  0  0  0  0
 16 19  1  0  0  0  0
 17 20  2  0  0  0  0
 19 21  2  0  0  0  0
 19 22  1  0  0  0  0
 21 23  1  0  0  0  0
 21 24  1  0  0  0  0
 22 25  2  0  0  0  0
 24 26  2  0  0  0  0
 26 27  1  0  0  0  0
 27 28  2  0  0  0  0
 27 29  1  0  0  0  0
  7  9  1  0  0  0  0
 14 16  1  0  0  0  0
 18 20  1  0  0  0  0
 25 26  1  0  0  0  0
M  END
>  <MolRegNo>
2440922

>  <m>
=

>  <Value>
38000

>  <Unit>
nM

>  <Type>
IC50

>  <pValue>
4.42

>  <Ligand Efficiency>
0

>  <Binding Efficiency>
0

>  <Surface Efficiency>
0

>  <Assay Index>
1265433

>  <Assay Category>


>  <Assay Organism>
Homo sapiens

>  <Target ID>
17045

>  <Target Name>
Cytochrome P450 3A4

>  <Target Organism>
Homo sapiens

>  <Target Description>
Target is a single protein chain

>  <Sequence Accession>
P08684

>  <Reference>
Bioorg Med Chem Lett 29 (16), 2208-2217 (2019)

>  <Pubmed ID>
31272795

>  <DOI>
10.1016/j.bmcl.2019.06.044

$$$$
2391511
Actelion Java MolfileCreator 1.0

 31 34  0  0  0  0  0  0  0  0999 V2000
    0.0000   -0.0000   -0.0000 Cl  0  0  0  0  0  0  0  0  0  0  0  0
    0.4722   -1.4049   -0.0000 C   0  0  0  0  0  0  0  0  0  0  0  0
   -0.5195   -2.5147   -0.0000 C   0  0  0  0  0  0  0  0  0  0  0  0
    1.9244   -1.6883   -0.0000 C   0  0  0  0  0  0  0  0  0  0  0  0
   -0.0708   -3.9197   -0.0000 C   0  0  0  0  0  0  0  0  0  0  0  0
   -1.9953   -2.1960   -0.0000 C   0  0  0  0  0  0  0  0  0  0  0  0
    2.3849   -3.1050   -0.0000 C   0  0  0  0  0  0  0  0  0  0  0  0
    1.3813   -4.2148   -0.0000 C   0  0  0  0  0  0  0  0  0  0  0  0
   -1.0862   -5.0177   -0.0000 C   0  0  0  0  0  0  0  0  0  0  0  0
   -2.9988   -3.3057   -0.0000 O   0  0  0  0  0  0  0  0  0  0  0  0
   -2.4793   -0.7674   -0.0000 C   0  0  0  0  0  0  0  0  0  0  0  0
   -2.5620   -4.6989   -0.0000 F   0  0  0  0  0  0  0  0  0  0  0  0
   -0.6375   -6.4226   -0.0000 F   0  0  0  0  0  0  0  0  0  0  0  0
   -2.1723   -6.0684   -0.0000 F   0  0  0  0  0  0  0  0  0  0  0  0
   -3.9197   -0.2952   -0.0000 C   0  0  0  0  0  0  0  0  0  0  0  0
   -1.6175    0.4604   -0.0000 C   0  0  0  0  0  0  0  0  0  0  0  0
   -3.9433    1.2160   -0.0000 C   0  0  0  0  0  0  0  0  0  0  0  0
   -5.2302   -1.0389   -0.0000 C   0  0  0  0  0  0  0  0  0  0  0  0
   -2.5147    1.6765   -0.0000 N   0  0  0  0  0  0  0  0  0  0  0  0
   -5.2538    1.9716   -0.0000 C   0  0  0  0  0  0  0  0  0  0  0  0
   -6.5407   -0.2833   -0.0000 C   0  0  0  0  0  0  0  0  0  0  0  0
   -2.0779    3.1168   -0.0000 C   0  0  0  0  0  0  0  0  0  0  0  0
   -6.5525    1.2397   -0.0000 C   0  0  0  0  0  0  0  0  0  0  0  0
   -0.6257    3.4356   -0.0000 C   0  0  0  0  0  0  0  0  0  0  0  0
   -3.0932    4.2266   -0.0000 C   0  0  0  0  0  0  0  0  0  0  0  0
   -0.1889    4.8760   -0.0000 C   0  0  0  0  0  0  0  0  0  0  0  0
   -2.6564    5.6670   -0.0000 C   0  0  0  0  0  0  0  0  0  0  0  0
   -1.2042    5.9976   -0.0000 C   0  0  0  0  0  0  0  0  0  0  0  0
   -0.7674    7.4379   -0.0000 C   0  0  0  0  0  0  0  0  0  0  0  0
   -1.7827    8.5595   -0.0000 O   0  0  0  0  0  0  0  0  0  0  0  0
    0.6848    7.7685   -0.0000 O   0  0  0  0  0  0  0  0  0  0  0  0
  1  2  1  0  0  0  0
  2  3  2  0  0  0  0
  2  4  1  0  0  0  0
  3  5  1  0  0  0  0
  3  6  1  0  0  0  0
  4  7  2  0  0  0  0
  5  8  2  0  0  0  0
  5  9  1  0  0  0  0
  6 10  2  0  0  0  0
  6 11  1  0  0  0  0
  9 12  1  0  0  0  0
  9 13  1  0  0  0  0
  9 14  1  0  0  0  0
 11 15  1  0  0  0  0
 11 16  2  0  0  0  0
 15 17  2  0  0  0  0
 15 18  1  0  0  0  0
 16 19  1  0  0  0  0
 17 20  1  0  0  0  0
 18 21  2  0  0  0  0
 19 22  1  0  0  0  0
 20 23  2  0  0  0  0
 22 24  2  0  0  0  0
 22 25  1  0  0  0  0
 24 26  1  0  0  0  0
 25 27  2  0  0  0  0
 26 28  2  0  0  0  0
 28 29  1  0  0  0  0
 29 30  2  0  0  0  0
 29 31  1  0  0  0  0
  7  8  1  0  0  0  0
 17 19  1  0  0  0  0
 21 23  1  0  0  0  0
 27 28  1  0  0  0  0
M  END
>  <MolRegNo>
2391511

>  <m>
=

>  <Value>
37000

>  <Unit>
nM

>  <Type>
IC50

>  <pValue>
4.43

>  <Ligand Efficiency>
0

>  <Binding Efficiency>
0

>  <Surface Efficiency>
0

>  <Assay Index>
1265433

>  <Assay Category>


>  <Assay Organism>
Homo sapiens

>  <Target ID>
17045

>  <Target Name>
Cytochrome P450 3A4

>  <Target Organism>
Homo sapiens

>  <Target Description>
Target is a single protein chain

>  <Sequence Accession>
P08684

>  <Reference>
Bioorg Med Chem Lett 29 (16), 2208-2217 (2019)

>  <Pubmed ID>
31272795

>  <DOI>
10.1016/j.bmcl.2019.06.044

$$$$
2437868
Actelion Java MolfileCreator 1.0

 32 35  0  0  0  0  0  0  0  0999 V2000
    0.0000   -0.0000   -0.0000 Cl  0  0  0  0  0  0  0  0  0  0  0  0
    0.4721   -1.4046   -0.0000 C   0  0  0  0  0  0  0  0  0  0  0  0
   -0.5194   -2.5142   -0.0000 C   0  0  0  0  0  0  0  0  0  0  0  0
    1.9240   -1.6879   -0.0000 C   0  0  0  0  0  0  0  0  0  0  0  0
   -0.0708   -3.9188   -0.0000 C   0  0  0  0  0  0  0  0  0  0  0  0
   -1.9948   -2.1955   -0.0000 C   0  0  0  0  0  0  0  0  0  0  0  0
    2.3843   -3.1044   -0.0000 C   0  0  0  0  0  0  0  0  0  0  0  0
    1.3810   -4.2139   -0.0000 C   0  0  0  0  0  0  0  0  0  0  0  0
   -1.0859   -5.0166   -0.0000 C   0  0  0  0  0  0  0  0  0  0  0  0
   -2.9981   -3.3050   -0.0000 O   0  0  0  0  0  0  0  0  0  0  0  0
   -2.4788   -0.7672   -0.0000 C   0  0  0  0  0  0  0  0  0  0  0  0
   -2.5614   -4.6979   -0.0000 F   0  0  0  0  0  0  0  0  0  0  0  0
   -0.6374   -6.4212   -0.0000 F   0  0  0  0  0  0  0  0  0  0  0  0
   -2.1719   -6.0671   -0.0000 F   0  0  0  0  0  0  0  0  0  0  0  0
   -3.9188   -0.2951   -0.0000 C   0  0  0  0  0  0  0  0  0  0  0  0
   -1.6171    0.4603   -0.0000 C   0  0  0  0  0  0  0  0  0  0  0  0
   -3.9424    1.2158   -0.0000 C   0  0  0  0  0  0  0  0  0  0  0  0
   -5.2290   -1.0387   -0.0000 C   0  0  0  0  0  0  0  0  0  0  0  0
   -2.5142    1.6761   -0.0000 N   0  0  0  0  0  0  0  0  0  0  0  0
   -5.2527    1.9712   -0.0000 C   0  0  0  0  0  0  0  0  0  0  0  0
   -6.5393   -0.2833   -0.0000 C   0  0  0  0  0  0  0  0  0  0  0  0
   -2.0775    3.1162   -0.0000 C   0  0  0  0  0  0  0  0  0  0  0  0
   -5.2645    3.4821   -0.0000 F   0  0  0  0  0  0  0  0  0  0  0  0
   -6.5511    1.2394   -0.0000 C   0  0  0  0  0  0  0  0  0  0  0  0
   -0.6256    3.4349   -0.0000 C   0  0  0  0  0  0  0  0  0  0  0  0
   -3.0926    4.2257   -0.0000 C   0  0  0  0  0  0  0  0  0  0  0  0
   -0.1889    4.8749   -0.0000 C   0  0  0  0  0  0  0  0  0  0  0  0
   -2.6558    5.6658   -0.0000 C   0  0  0  0  0  0  0  0  0  0  0  0
   -1.2040    5.9963   -0.0000 C   0  0  0  0  0  0  0  0  0  0  0  0
   -0.7672    7.4363   -0.0000 C   0  0  0  0  0  0  0  0  0  0  0  0
   -1.7824    8.5577   -0.0000 O   0  0  0  0  0  0  0  0  0  0  0  0
    0.6846    7.7668   -0.0000 O   0  0  0  0  0  0  0  0  0  0  0  0
  1  2  1  0  0  0  0
  2  3  2  0  0  0  0
  2  4  1  0  0  0  0
  3  5  1  0  0  0  0
  3  6  1  0  0  0  0
  4  7  2  0  0  0  0
  5  8  2  0  0  0  0
  5  9  1  0  0  0  0
  6 10  2  0  0  0  0
  6 11  1  0  0  0  0
  9 12  1  0  0  0  0
  9 13  1  0  0  0  0
  9 14  1  0  0  0  0
 11 15  1  0  0  0  0
 11 16  2  0  0  0  0
 15 17  2  0  0  0  0
 15 18  1  0  0  0  0
 16 19  1  0  0  0  0
 17 20  1  0  0  0  0
 18 21  2  0  0  0  0
 19 22  1  0  0  0  0
 20 23  1  0  0  0  0
 20 24  2  0  0  0  0
 22 25  2  0  0  0  0
 22 26  1  0  0  0  0
 25 27  1  0  0  0  0
 26 28  2  0  0  0  0
 27 29  2  0  0  0  0
 29 30  1  0  0  0  0
 30 31  2  0  0  0  0
 30 32  1  0  0  0  0
  7  8  1  0  0  0  0
 17 19  1  0  0  0  0
 21 24  1  0  0  0  0
 28 29  1  0  0  0  0
M  END
>  <MolRegNo>
2437868

>  <m>
=

>  <Value>
16300

>  <Unit>
nM

>  <Type>
IC50

>  <pValue>
4.79

>  <Ligand Efficiency>
0

>  <Binding Efficiency>
0

>  <Surface Efficiency>
0

>  <Assay Index>
1265433

>  <Assay Category>


>  <Assay Organism>
Homo sapiens

>  <Target ID>
17045

>  <Target Name>
Cytochrome P450 3A4

>  <Target Organism>
Homo sapiens

>  <Target Description>
Target is a single protein chain

>  <Sequence Accession>
P08684

>  <Reference>
Bioorg Med Chem Lett 29 (16), 2208-2217 (2019)

>  <Pubmed ID>
31272795

>  <DOI>
10.1016/j.bmcl.2019.06.044

$$$$
2362141
Actelion Java MolfileCreator 1.0

 30 33  0  0  0  0  0  0  0  0999 V2000
    0.0000   -0.0000   -0.0000 Cl  0  0  0  0  0  0  0  0  0  0  0  0
    0.9898    1.1194   -0.0000 C   0  0  0  0  0  0  0  0  0  0  0  0
    0.5184    2.5451   -0.0000 C   0  0  0  0  0  0  0  0  0  0  0  0
    2.4390    0.8248   -0.0000 C   0  0  0  0  0  0  0  0  0  0  0  0
    1.4846    3.6762   -0.0000 C   0  0  0  0  0  0  0  0  0  0  0  0
   -0.9544    2.8632   -0.0000 C   0  0  0  0  0  0  0  0  0  0  0  0
    3.4170    1.9559   -0.0000 C   0  0  0  0  0  0  0  0  0  0  0  0
    0.9898    5.1020   -0.0000 Cl  0  0  0  0  0  0  0  0  0  0  0  0
    2.9339    3.3935   -0.0000 C   0  0  0  0  0  0  0  0  0  0  0  0
   -1.9559    1.7556   -0.0000 O   0  0  0  0  0  0  0  0  0  0  0  0
   -1.4375    4.2889   -0.0000 C   0  0  0  0  0  0  0  0  0  0  0  0
   -2.8750    4.7603   -0.0000 C   0  0  0  0  0  0  0  0  0  0  0  0
   -0.5774    5.5144   -0.0000 C   0  0  0  0  0  0  0  0  0  0  0  0
   -2.8986    6.2685   -0.0000 C   0  0  0  0  0  0  0  0  0  0  0  0
   -4.1829    4.0179   -0.0000 C   0  0  0  0  0  0  0  0  0  0  0  0
   -1.4729    6.7280   -0.0000 N   0  0  0  0  0  0  0  0  0  0  0  0
   -4.2065    7.0226   -0.0000 C   0  0  0  0  0  0  0  0  0  0  0  0
   -5.4908    4.7720   -0.0000 C   0  0  0  0  0  0  0  0  0  0  0  0
   -1.0369    8.1655   -0.0000 C   0  0  0  0  0  0  0  0  0  0  0  0
   -4.2182    8.5308   -0.0000 F   0  0  0  0  0  0  0  0  0  0  0  0
   -5.5026    6.2920   -0.0000 C   0  0  0  0  0  0  0  0  0  0  0  0
    0.4124    8.4836   -0.0000 C   0  0  0  0  0  0  0  0  0  0  0  0
   -2.0502    9.2731   -0.0000 C   0  0  0  0  0  0  0  0  0  0  0  0
    1.4022    7.3878   -0.0000 F   0  0  0  0  0  0  0  0  0  0  0  0
    0.8484    9.9211   -0.0000 C   0  0  0  0  0  0  0  0  0  0  0  0
   -1.6142   10.7106   -0.0000 C   0  0  0  0  0  0  0  0  0  0  0  0
   -0.1650   11.0405   -0.0000 C   0  0  0  0  0  0  0  0  0  0  0  0
    0.2710   12.4780   -0.0000 C   0  0  0  0  0  0  0  0  0  0  0  0
   -0.7541   13.5974   -0.0000 O   0  0  0  0  0  0  0  0  0  0  0  0
    1.7203   12.8079   -0.0000 O   0  0  0  0  0  0  0  0  0  0  0  0
  1  2  1  0  0  0  0
  2  3  2  0  0  0  0
  2  4  1  0  0  0  0
  3  5  1  0  0  0  0
  3  6  1  0  0  0  0
  4  7  2  0  0  0  0
  5  8  1  0  0  0  0
  5  9  2  0  0  0  0
  6 10  2  0  0  0  0
  6 11  1  0  0  0  0
 11 12  1  0  0  0  0
 11 13  2  0  0  0  0
 12 14  2  0  0  0  0
 12 15  1  0  0  0  0
 13 16  1  0  0  0  0
 14 17  1  0  0  0  0
 15 18  2  0  0  0  0
 16 19  1  0  0  0  0
 17 20  1  0  0  0  0
 17 21  2  0  0  0  0
 19 22  2  0  0  0  0
 19 23  1  0  0  0  0
 22 24  1  0  0  0  0
 22 25  1  0  0  0  0
 23 26  2  0  0  0  0
 25 27  2  0  0  0  0
 27 28  1  0  0  0  0
 28 29  2  0  0  0  0
 28 30  1  0  0  0  0
  7  9  1  0  0  0  0
 14 16  1  0  0  0  0
 18 21  1  0  0  0  0
 26 27  1  0  0  0  0
M  END
>  <MolRegNo>
2362141

>  <m>
=

>  <Value>
26000

>  <Unit>
nM

>  <Type>
IC50

>  <pValue>
4.58

>  <Ligand Efficiency>
0

>  <Binding Efficiency>
0

>  <Surface Efficiency>
0

>  <Assay Index>
1265433

>  <Assay Category>


>  <Assay Organism>
Homo sapiens

>  <Target ID>
17045

>  <Target Name>
Cytochrome P450 3A4

>  <Target Organism>
Homo sapiens

>  <Target Description>
Target is a single protein chain

>  <Sequence Accession>
P08684

>  <Reference>
Bioorg Med Chem Lett 29 (16), 2208-2217 (2019)

>  <Pubmed ID>
31272795

>  <DOI>
10.1016/j.bmcl.2019.06.044

$$$$
2448816
Actelion Java MolfileCreator 1.0

 29 32  0  0  0  0  0  0  0  0999 V2000
    0.0000   -0.0000   -0.0000 Cl  0  0  0  0  0  0  0  0  0  0  0  0
    0.9894    1.1190   -0.0000 C   0  0  0  0  0  0  0  0  0  0  0  0
    0.5183    2.5443   -0.0000 C   0  0  0  0  0  0  0  0  0  0  0  0
    2.4383    0.8245   -0.0000 C   0  0  0  0  0  0  0  0  0  0  0  0
    1.4842    3.6751   -0.0000 C   0  0  0  0  0  0  0  0  0  0  0  0
   -0.9541    2.8623   -0.0000 C   0  0  0  0  0  0  0  0  0  0  0  0
    3.4159    1.9553   -0.0000 C   0  0  0  0  0  0  0  0  0  0  0  0
    0.9894    5.1003   -0.0000 Cl  0  0  0  0  0  0  0  0  0  0  0  0
    2.9330    3.3924   -0.0000 C   0  0  0  0  0  0  0  0  0  0  0  0
   -1.9553    1.7551   -0.0000 O   0  0  0  0  0  0  0  0  0  0  0  0
   -1.4370    4.2876   -0.0000 C   0  0  0  0  0  0  0  0  0  0  0  0
   -2.8741    4.7587   -0.0000 C   0  0  0  0  0  0  0  0  0  0  0  0
   -0.5772    5.5126   -0.0000 C   0  0  0  0  0  0  0  0  0  0  0  0
   -2.8976    6.2664   -0.0000 C   0  0  0  0  0  0  0  0  0  0  0  0
   -4.1816    4.0166   -0.0000 C   0  0  0  0  0  0  0  0  0  0  0  0
   -1.4724    6.7258   -0.0000 N   0  0  0  0  0  0  0  0  0  0  0  0
   -4.2051    7.0203   -0.0000 C   0  0  0  0  0  0  0  0  0  0  0  0
   -5.4890    4.7705   -0.0000 C   0  0  0  0  0  0  0  0  0  0  0  0
   -1.0366    8.1629   -0.0000 C   0  0  0  0  0  0  0  0  0  0  0  0
   -4.2169    8.5280   -0.0000 F   0  0  0  0  0  0  0  0  0  0  0  0
   -5.5008    6.2900   -0.0000 C   0  0  0  0  0  0  0  0  0  0  0  0
    0.4123    8.4809   -0.0000 C   0  0  0  0  0  0  0  0  0  0  0  0
   -2.0496    9.2701   -0.0000 C   0  0  0  0  0  0  0  0  0  0  0  0
    0.8481    9.9179   -0.0000 C   0  0  0  0  0  0  0  0  0  0  0  0
   -1.6137   10.7071   -0.0000 C   0  0  0  0  0  0  0  0  0  0  0  0
   -0.1649   11.0370   -0.0000 C   0  0  0  0  0  0  0  0  0  0  0  0
    0.2709   12.4740   -0.0000 C   0  0  0  0  0  0  0  0  0  0  0  0
   -0.7421   13.5930   -0.0000 O   0  0  0  0  0  0  0  0  0  0  0  0
    1.7197   12.8038   -0.0000 O   0  0  0  0  0  0  0  0  0  0  0  0
  1  2  1  0  0  0  0
  2  3  2  0  0  0  0
  2  4  1  0  0  0  0
  3  5  1  0  0  0  0
  3  6  1  0  0  0  0
  4  7  2  0  0  0  0
  5  8  1  0  0  0  0
  5  9  2  0  0  0  0
  6 10  2  0  0  0  0
  6 11  1  0  0  0  0
 11 12  1  0  0  0  0
 11 13  2  0  0  0  0
 12 14  2  0  0  0  0
 12 15  1  0  0  0  0
 13 16  1  0  0  0  0
 14 17  1  0  0  0  0
 15 18  2  0  0  0  0
 16 19  1  0  0  0  0
 17 20  1  0  0  0  0
 17 21  2  0  0  0  0
 19 22  2  0  0  0  0
 19 23  1  0  0  0  0
 22 24  1  0  0  0  0
 23 25  2  0  0  0  0
 24 26  2  0  0  0  0
 26 27  1  0  0  0  0
 27 28  2  0  0  0  0
 27 29  1  0  0  0  0
  7  9  1  0  0  0  0
 14 16  1  0  0  0  0
 18 21  1  0  0  0  0
 25 26  1  0  0  0  0
M  END
>  <MolRegNo>
2448816

>  <m>
=

>  <Value>
46000

>  <Unit>
nM

>  <Type>
IC50

>  <pValue>
4.34

>  <Ligand Efficiency>
0

>  <Binding Efficiency>
0

>  <Surface Efficiency>
0

>  <Assay Index>
1265433

>  <Assay Category>


>  <Assay Organism>
Homo sapiens

>  <Target ID>
17045

>  <Target Name>
Cytochrome P450 3A4

>  <Target Organism>
Homo sapiens

>  <Target Description>
Target is a single protein chain

>  <Sequence Accession>
P08684

>  <Reference>
Bioorg Med Chem Lett 29 (16), 2208-2217 (2019)

>  <Pubmed ID>
31272795

>  <DOI>
10.1016/j.bmcl.2019.06.044

$$$$
2361036
Actelion Java MolfileCreator 1.0

 28 31  0  0  0  0  0  0  0  0999 V2000
    0.0000   -0.0000   -0.0000 Cl  0  0  0  0  0  0  0  0  0  0  0  0
    0.9894    1.1190   -0.0000 C   0  0  0  0  0  0  0  0  0  0  0  0
    0.5183    2.5443   -0.0000 C   0  0  0  0  0  0  0  0  0  0  0  0
    2.4383    0.8245   -0.0000 C   0  0  0  0  0  0  0  0  0  0  0  0
    1.4842    3.6750   -0.0000 C   0  0  0  0  0  0  0  0  0  0  0  0
   -0.9541    2.8623   -0.0000 C   0  0  0  0  0  0  0  0  0  0  0  0
    3.4159    1.9553   -0.0000 C   0  0  0  0  0  0  0  0  0  0  0  0
    0.9894    5.1003   -0.0000 Cl  0  0  0  0  0  0  0  0  0  0  0  0
    2.9330    3.3923   -0.0000 C   0  0  0  0  0  0  0  0  0  0  0  0
   -1.9553    1.7551   -0.0000 O   0  0  0  0  0  0  0  0  0  0  0  0
   -1.4370    4.2876   -0.0000 C   0  0  0  0  0  0  0  0  0  0  0  0
   -2.8741    4.7587   -0.0000 C   0  0  0  0  0  0  0  0  0  0  0  0
   -0.5772    5.5126   -0.0000 C   0  0  0  0  0  0  0  0  0  0  0  0
   -2.8976    6.2664   -0.0000 C   0  0  0  0  0  0  0  0  0  0  0  0
   -4.1815    4.0166   -0.0000 C   0  0  0  0  0  0  0  0  0  0  0  0
   -1.4724    6.7258   -0.0000 N   0  0  0  0  0  0  0  0  0  0  0  0
   -4.2051    7.0203   -0.0000 C   0  0  0  0  0  0  0  0  0  0  0  0
   -5.4890    4.7705   -0.0000 C   0  0  0  0  0  0  0  0  0  0  0  0
   -1.0366    8.1628   -0.0000 C   0  0  0  0  0  0  0  0  0  0  0  0
   -5.5008    6.2900   -0.0000 C   0  0  0  0  0  0  0  0  0  0  0  0
    0.4123    8.4809   -0.0000 C   0  0  0  0  0  0  0  0  0  0  0  0
   -2.0495    9.2701   -0.0000 C   0  0  0  0  0  0  0  0  0  0  0  0
    0.8481    9.9179   -0.0000 C   0  0  0  0  0  0  0  0  0  0  0  0
   -1.6137   10.7071   -0.0000 C   0  0  0  0  0  0  0  0  0  0  0  0
   -0.1649   11.0369   -0.0000 C   0  0  0  0  0  0  0  0  0  0  0  0
    0.2709   12.4739   -0.0000 C   0  0  0  0  0  0  0  0  0  0  0  0
   -0.7539   13.5930   -0.0000 O   0  0  0  0  0  0  0  0  0  0  0  0
    1.7197   12.8038   -0.0000 O   0  0  0  0  0  0  0  0  0  0  0  0
  1  2  1  0  0  0  0
  2  3  2  0  0  0  0
  2  4  1  0  0  0  0
  3  5  1  0  0  0  0
  3  6  1  0  0  0  0
  4  7  2  0  0  0  0
  5  8  1  0  0  0  0
  5  9  2  0  0  0  0
  6 10  2  0  0  0  0
  6 11  1  0  0  0  0
 11 12  1  0  0  0  0
 11 13  2  0  0  0  0
 12 14  2  0  0  0  0
 12 15  1  0  0  0  0
 13 16  1  0  0  0  0
 14 17  1  0  0  0  0
 15 18  2  0  0  0  0
 16 19  1  0  0  0  0
 17 20  2  0  0  0  0
 19 21  2  0  0  0  0
 19 22  1  0  0  0  0
 21 23  1  0  0  0  0
 22 24  2  0  0  0  0
 23 25  2  0  0  0  0
 25 26  1  0  0  0  0
 26 27  2  0  0  0  0
 26 28  1  0  0  0  0
  7  9  1  0  0  0  0
 14 16  1  0  0  0  0
 18 20  1  0  0  0  0
 24 25  1  0  0  0  0
M  END
>  <MolRegNo>
2361036

>  <m>
=

>  <Value>
15500

>  <Unit>
nM

>  <Type>
IC50

>  <pValue>
4.81

>  <Ligand Efficiency>
0

>  <Binding Efficiency>
0

>  <Surface Efficiency>
0

>  <Assay Index>
1265434

>  <Assay Category>


>  <Assay Organism>
Homo sapiens

>  <Target ID>
17045

>  <Target Name>
Cytochrome P450 3A4

>  <Target Organism>
Homo sapiens

>  <Target Description>
Target is a single protein chain

>  <Sequence Accession>
P08684

>  <Reference>
Bioorg Med Chem Lett 29 (16), 2208-2217 (2019)

>  <Pubmed ID>
31272795

>  <DOI>
10.1016/j.bmcl.2019.06.044

$$$$
2353704
Actelion Java MolfileCreator 1.0

 29 32  0  0  0  0  0  0  0  0999 V2000
    0.0000   -0.0000   -0.0000 Cl  0  0  0  0  0  0  0  0  0  0  0  0
    0.9789    1.1204   -0.0000 C   0  0  0  0  0  0  0  0  0  0  0  0
    0.5071    2.5474   -0.0000 C   0  0  0  0  0  0  0  0  0  0  0  0
    2.4294    0.8255   -0.0000 C   0  0  0  0  0  0  0  0  0  0  0  0
    1.4742    3.6795   -0.0000 C   0  0  0  0  0  0  0  0  0  0  0  0
   -0.9671    2.8658   -0.0000 C   0  0  0  0  0  0  0  0  0  0  0  0
    3.4083    1.9577   -0.0000 C   0  0  0  0  0  0  0  0  0  0  0  0
    0.9906    5.1065   -0.0000 Cl  0  0  0  0  0  0  0  0  0  0  0  0
    2.9248    3.3965   -0.0000 C   0  0  0  0  0  0  0  0  0  0  0  0
   -1.9695    1.7572   -0.0000 O   0  0  0  0  0  0  0  0  0  0  0  0
   -1.4506    4.2928   -0.0000 C   0  0  0  0  0  0  0  0  0  0  0  0
   -2.8894    4.7527   -0.0000 C   0  0  0  0  0  0  0  0  0  0  0  0
   -0.5897    5.5193   -0.0000 C   0  0  0  0  0  0  0  0  0  0  0  0
   -4.1984    4.0097   -0.0000 C   0  0  0  0  0  0  0  0  0  0  0  0
   -2.9130    6.2623   -0.0000 C   0  0  0  0  0  0  0  0  0  0  0  0
   -1.4860    6.7340   -0.0000 N   0  0  0  0  0  0  0  0  0  0  0  0
   -4.2102    2.5238   -0.0000 F   0  0  0  0  0  0  0  0  0  0  0  0
   -5.5075    4.7645   -0.0000 C   0  0  0  0  0  0  0  0  0  0  0  0
   -4.2220    7.0171   -0.0000 C   0  0  0  0  0  0  0  0  0  0  0  0
   -1.0496    8.1728   -0.0000 C   0  0  0  0  0  0  0  0  0  0  0  0
   -5.5193    6.2741   -0.0000 C   0  0  0  0  0  0  0  0  0  0  0  0
    0.4010    8.4912   -0.0000 C   0  0  0  0  0  0  0  0  0  0  0  0
   -2.0638    9.2814   -0.0000 C   0  0  0  0  0  0  0  0  0  0  0  0
    0.8373    9.9300   -0.0000 C   0  0  0  0  0  0  0  0  0  0  0  0
   -1.6275   10.7084   -0.0000 C   0  0  0  0  0  0  0  0  0  0  0  0
   -0.1769   11.0504   -0.0000 C   0  0  0  0  0  0  0  0  0  0  0  0
    0.2595   12.4892   -0.0000 C   0  0  0  0  0  0  0  0  0  0  0  0
   -0.7548   13.5978   -0.0000 O   0  0  0  0  0  0  0  0  0  0  0  0
    1.7100   12.8194   -0.0000 O   0  0  0  0  0  0  0  0  0  0  0  0
  1  2  1  0  0  0  0
  2  3  2  0  0  0  0
  2  4  1  0  0  0  0
  3  5  1  0  0  0  0
  3  6  1  0  0  0  0
  4  7  2  0  0  0  0
  5  8  1  0  0  0  0
  5  9  2  0  0  0  0
  6 10  2  0  0  0  0
  6 11  1  0  0  0  0
 11 12  1  0  0  0  0
 11 13  2  0  0  0  0
 12 14  2  0  0  0  0
 12 15  1  0  0  0  0
 13 16  1  0  0  0  0
 14 17  1  0  0  0  0
 14 18  1  0  0  0  0
 15 19  2  0  0  0  0
 16 20  1  0  0  0  0
 18 21  2  0  0  0  0
 20 22  2  0  0  0  0
 20 23  1  0  0  0  0
 22 24  1  0  0  0  0
 23 25  2  0  0  0  0
 24 26  2  0  0  0  0
 26 27  1  0  0  0  0
 27 28  2  0  0  0  0
 27 29  1  0  0  0  0
  7  9  1  0  0  0  0
 15 16  1  0  0  0  0
 19 21  1  0  0  0  0
 25 26  1  0  0  0  0
M  END
>  <MolRegNo>
2353704

>  <m>
=

>  <Value>
49000

>  <Unit>
nM

>  <Type>
IC50

>  <pValue>
4.31

>  <Ligand Efficiency>
0

>  <Binding Efficiency>
0

>  <Surface Efficiency>
0

>  <Assay Index>
1265434

>  <Assay Category>


>  <Assay Organism>
Homo sapiens

>  <Target ID>
17045

>  <Target Name>
Cytochrome P450 3A4

>  <Target Organism>
Homo sapiens

>  <Target Description>
Target is a single protein chain

>  <Sequence Accession>
P08684

>  <Reference>
Bioorg Med Chem Lett 29 (16), 2208-2217 (2019)

>  <Pubmed ID>
31272795

>  <DOI>
10.1016/j.bmcl.2019.06.044

$$$$
2373129
Actelion Java MolfileCreator 1.0

 29 32  0  0  0  0  0  0  0  0999 V2000
    0.0000   -0.0000   -0.0000 Cl  0  0  0  0  0  0  0  0  0  0  0  0
    0.4721   -1.4045   -0.0000 C   0  0  0  0  0  0  0  0  0  0  0  0
   -0.5193   -2.5139   -0.0000 C   0  0  0  0  0  0  0  0  0  0  0  0
    1.9238   -1.6878   -0.0000 C   0  0  0  0  0  0  0  0  0  0  0  0
   -0.0708   -3.9184   -0.0000 C   0  0  0  0  0  0  0  0  0  0  0  0
   -1.9946   -2.1953   -0.0000 C   0  0  0  0  0  0  0  0  0  0  0  0
    2.3841   -3.1040   -0.0000 C   0  0  0  0  0  0  0  0  0  0  0  0
    1.3809   -4.2135   -0.0000 C   0  0  0  0  0  0  0  0  0  0  0  0
   -1.0858   -5.0160   -0.0000 C   0  0  0  0  0  0  0  0  0  0  0  0
   -2.9978   -3.3047   -0.0000 O   0  0  0  0  0  0  0  0  0  0  0  0
   -2.4785   -0.7672   -0.0000 C   0  0  0  0  0  0  0  0  0  0  0  0
   -3.9184   -0.2951   -0.0000 C   0  0  0  0  0  0  0  0  0  0  0  0
   -1.6169    0.4603   -0.0000 C   0  0  0  0  0  0  0  0  0  0  0  0
   -3.9420    1.2157   -0.0000 C   0  0  0  0  0  0  0  0  0  0  0  0
   -5.2285   -1.0386   -0.0000 C   0  0  0  0  0  0  0  0  0  0  0  0
   -2.5139    1.6760   -0.0000 N   0  0  0  0  0  0  0  0  0  0  0  0
   -5.2521    1.9710   -0.0000 C   0  0  0  0  0  0  0  0  0  0  0  0
   -6.5386   -0.2833   -0.0000 C   0  0  0  0  0  0  0  0  0  0  0  0
   -2.0772    3.1159   -0.0000 C   0  0  0  0  0  0  0  0  0  0  0  0
   -5.2639    3.4817   -0.0000 F   0  0  0  0  0  0  0  0  0  0  0  0
   -6.5504    1.2393   -0.0000 C   0  0  0  0  0  0  0  0  0  0  0  0
   -0.6255    3.4345   -0.0000 C   0  0  0  0  0  0  0  0  0  0  0  0
   -3.0922    4.2253   -0.0000 C   0  0  0  0  0  0  0  0  0  0  0  0
   -0.1888    4.8744   -0.0000 C   0  0  0  0  0  0  0  0  0  0  0  0
   -2.6556    5.6652   -0.0000 C   0  0  0  0  0  0  0  0  0  0  0  0
   -1.2039    5.9957   -0.0000 C   0  0  0  0  0  0  0  0  0  0  0  0
   -0.7672    7.4356   -0.0000 C   0  0  0  0  0  0  0  0  0  0  0  0
   -1.7822    8.5568   -0.0000 O   0  0  0  0  0  0  0  0  0  0  0  0
    0.6845    7.7660   -0.0000 O   0  0  0  0  0  0  0  0  0  0  0  0
  1  2  1  0  0  0  0
  2  3  2  0  0  0  0
  2  4  1  0  0  0  0
  3  5  1  0  0  0  0
  3  6  1  0  0  0  0
  4  7  2  0  0  0  0
  5  8  2  0  0  0  0
  5  9  1  0  0  0  0
  6 10  2  0  0  0  0
  6 11  1  0  0  0  0
 11 12  1  0  0  0  0
 11 13  2  0  0  0  0
 12 14  2  0  0  0  0
 12 15  1  0  0  0  0
 13 16  1  0  0  0  0
 14 17  1  0  0  0  0
 15 18  2  0  0  0  0
 16 19  1  0  0  0  0
 17 20  1  0  0  0  0
 17 21  2  0  0  0  0
 19 22  2  0  0  0  0
 19 23  1  0  0  0  0
 22 24  1  0  0  0  0
 23 25  2  0  0  0  0
 24 26  2  0  0  0  0
 26 27  1  0  0  0  0
 27 28  2  0  0  0  0
 27 29  1  0  0  0  0
  7  8  1  0  0  0  0
 14 16  1  0  0  0  0
 18 21  1  0  0  0  0
 25 26  1  0  0  0  0
M  END
>  <MolRegNo>
2373129

>  <m>
=

>  <Value>
27200

>  <Unit>
nM

>  <Type>
IC50

>  <pValue>
4.57

>  <Ligand Efficiency>
0

>  <Binding Efficiency>
0

>  <Surface Efficiency>
0

>  <Assay Index>
1265434

>  <Assay Category>


>  <Assay Organism>
Homo sapiens

>  <Target ID>
17045

>  <Target Name>
Cytochrome P450 3A4

>  <Target Organism>
Homo sapiens

>  <Target Description>
Target is a single protein chain

>  <Sequence Accession>
P08684

>  <Reference>
Bioorg Med Chem Lett 29 (16), 2208-2217 (2019)

>  <Pubmed ID>
31272795

>  <DOI>
10.1016/j.bmcl.2019.06.044

$$$$
2359723
Actelion Java MolfileCreator 1.0

 30 33  0  0  0  0  0  0  0  0999 V2000
    0.0000   -0.0000   -0.0000 Cl  0  0  0  0  0  0  0  0  0  0  0  0
    0.9906    1.1203   -0.0000 C   0  0  0  0  0  0  0  0  0  0  0  0
    0.5189    2.5472   -0.0000 C   0  0  0  0  0  0  0  0  0  0  0  0
    2.4411    0.8255   -0.0000 C   0  0  0  0  0  0  0  0  0  0  0  0
    1.4859    3.6793   -0.0000 C   0  0  0  0  0  0  0  0  0  0  0  0
   -0.9552    2.8656   -0.0000 C   0  0  0  0  0  0  0  0  0  0  0  0
    3.4199    1.9576   -0.0000 C   0  0  0  0  0  0  0  0  0  0  0  0
    1.0024    5.1062   -0.0000 Cl  0  0  0  0  0  0  0  0  0  0  0  0
    2.9364    3.3963   -0.0000 C   0  0  0  0  0  0  0  0  0  0  0  0
   -1.9576    1.7571   -0.0000 O   0  0  0  0  0  0  0  0  0  0  0  0
   -1.4387    4.2925   -0.0000 C   0  0  0  0  0  0  0  0  0  0  0  0
   -2.8774    4.7524   -0.0000 C   0  0  0  0  0  0  0  0  0  0  0  0
   -0.5778    5.5190   -0.0000 C   0  0  0  0  0  0  0  0  0  0  0  0
   -4.1864    4.0095   -0.0000 C   0  0  0  0  0  0  0  0  0  0  0  0
   -2.9010    6.2619   -0.0000 C   0  0  0  0  0  0  0  0  0  0  0  0
   -1.4741    6.7336   -0.0000 N   0  0  0  0  0  0  0  0  0  0  0  0
   -4.1982    2.5236   -0.0000 F   0  0  0  0  0  0  0  0  0  0  0  0
   -5.4954    4.7642   -0.0000 C   0  0  0  0  0  0  0  0  0  0  0  0
   -4.2100    7.0166   -0.0000 C   0  0  0  0  0  0  0  0  0  0  0  0
   -1.0378    8.1723   -0.0000 C   0  0  0  0  0  0  0  0  0  0  0  0
   -5.5072    6.2737   -0.0000 C   0  0  0  0  0  0  0  0  0  0  0  0
    0.4127    8.4907   -0.0000 C   0  0  0  0  0  0  0  0  0  0  0  0
   -2.0519    9.2808   -0.0000 C   0  0  0  0  0  0  0  0  0  0  0  0
    1.4033    7.3940   -0.0000 F   0  0  0  0  0  0  0  0  0  0  0  0
    0.8491    9.9294   -0.0000 C   0  0  0  0  0  0  0  0  0  0  0  0
   -1.6156   10.7195   -0.0000 C   0  0  0  0  0  0  0  0  0  0  0  0
   -0.1651   11.0497   -0.0000 C   0  0  0  0  0  0  0  0  0  0  0  0
    0.2712   12.4884   -0.0000 C   0  0  0  0  0  0  0  0  0  0  0  0
   -0.7429   13.6087   -0.0000 O   0  0  0  0  0  0  0  0  0  0  0  0
    1.7217   12.8186   -0.0000 O   0  0  0  0  0  0  0  0  0  0  0  0
  1  2  1  0  0  0  0
  2  3  2  0  0  0  0
  2  4  1  0  0  0  0
  3  5  1  0  0  0  0
  3  6  1  0  0  0  0
  4  7  2  0  0  0  0
  5  8  1  0  0  0  0
  5  9  2  0  0  0  0
  6 10  2  0  0  0  0
  6 11  1  0  0  0  0
 11 12  1  0  0  0  0
 11 13  2  0  0  0  0
 12 14  2  0  0  0  0
 12 15  1  0  0  0  0
 13 16  1  0  0  0  0
 14 17  1  0  0  0  0
 14 18  1  0  0  0  0
 15 19  2  0  0  0  0
 16 20  1  0  0  0  0
 18 21  2  0  0  0  0
 20 22  2  0  0  0  0
 20 23  1  0  0  0  0
 22 24  1  0  0  0  0
 22 25  1  0  0  0  0
 23 26  2  0  0  0  0
 25 27  2  0  0  0  0
 27 28  1  0  0  0  0
 28 29  2  0  0  0  0
 28 30  1  0  0  0  0
  7  9  1  0  0  0  0
 15 16  1  0  0  0  0
 19 21  1  0  0  0  0
 26 27  1  0  0  0  0
M  END
>  <MolRegNo>
2359723

>  <m>
=

>  <Value>
8340

>  <Unit>
nM

>  <Type>
IC50

>  <pValue>
5.08

>  <Ligand Efficiency>
0

>  <Binding Efficiency>
0

>  <Surface Efficiency>
0

>  <Assay Index>
1265434

>  <Assay Category>


>  <Assay Organism>
Homo sapiens

>  <Target ID>
17045

>  <Target Name>
Cytochrome P450 3A4

>  <Target Organism>
Homo sapiens

>  <Target Description>
Target is a single protein chain

>  <Sequence Accession>
P08684

>  <Reference>
Bioorg Med Chem Lett 29 (16), 2208-2217 (2019)

>  <Pubmed ID>
31272795

>  <DOI>
10.1016/j.bmcl.2019.06.044

$$$$
2447451
Actelion Java MolfileCreator 1.0

 32 35  0  0  0  0  0  0  0  0999 V2000
    0.0000   -0.0000   -0.0000 Cl  0  0  0  0  0  0  0  0  0  0  0  0
    0.4610   -1.4067   -0.0000 C   0  0  0  0  0  0  0  0  0  0  0  0
   -0.5319   -2.5178   -0.0000 C   0  0  0  0  0  0  0  0  0  0  0  0
    1.9149   -1.6904   -0.0000 C   0  0  0  0  0  0  0  0  0  0  0  0
   -0.0827   -3.9245   -0.0000 C   0  0  0  0  0  0  0  0  0  0  0  0
   -2.0095   -2.1986   -0.0000 C   0  0  0  0  0  0  0  0  0  0  0  0
    2.3760   -3.1088   -0.0000 C   0  0  0  0  0  0  0  0  0  0  0  0
    1.3712   -4.2200   -0.0000 C   0  0  0  0  0  0  0  0  0  0  0  0
   -1.0875   -5.0238   -0.0000 C   0  0  0  0  0  0  0  0  0  0  0  0
   -3.0143   -3.3098   -0.0000 O   0  0  0  0  0  0  0  0  0  0  0  0
   -2.4942   -0.7683   -0.0000 C   0  0  0  0  0  0  0  0  0  0  0  0
   -2.5651   -4.7046   -0.0000 F   0  0  0  0  0  0  0  0  0  0  0  0
   -0.6383   -6.4304   -0.0000 F   0  0  0  0  0  0  0  0  0  0  0  0
   -2.1632   -6.0640   -0.0000 F   0  0  0  0  0  0  0  0  0  0  0  0
   -3.9363   -0.2955   -0.0000 C   0  0  0  0  0  0  0  0  0  0  0  0
   -1.6313    0.4610   -0.0000 C   0  0  0  0  0  0  0  0  0  0  0  0
   -5.2484   -1.0402   -0.0000 C   0  0  0  0  0  0  0  0  0  0  0  0
   -3.9599    1.2175   -0.0000 C   0  0  0  0  0  0  0  0  0  0  0  0
   -2.5296    1.6785   -0.0000 N   0  0  0  0  0  0  0  0  0  0  0  0
   -5.2602   -2.5296   -0.0000 F   0  0  0  0  0  0  0  0  0  0  0  0
   -6.5605   -0.2837   -0.0000 C   0  0  0  0  0  0  0  0  0  0  0  0
   -5.2720    1.9741   -0.0000 C   0  0  0  0  0  0  0  0  0  0  0  0
   -2.0923    3.1207   -0.0000 C   0  0  0  0  0  0  0  0  0  0  0  0
   -6.5723    1.2294   -0.0000 C   0  0  0  0  0  0  0  0  0  0  0  0
   -0.6383    3.4398   -0.0000 C   0  0  0  0  0  0  0  0  0  0  0  0
   -3.1088    4.2318   -0.0000 C   0  0  0  0  0  0  0  0  0  0  0  0
   -0.2010    4.8819   -0.0000 C   0  0  0  0  0  0  0  0  0  0  0  0
   -2.6715    5.6621   -0.0000 C   0  0  0  0  0  0  0  0  0  0  0  0
   -1.2175    6.0049   -0.0000 C   0  0  0  0  0  0  0  0  0  0  0  0
   -0.7802    7.4470   -0.0000 C   0  0  0  0  0  0  0  0  0  0  0  0
   -1.7967    8.5582   -0.0000 O   0  0  0  0  0  0  0  0  0  0  0  0
    0.6738    7.7780   -0.0000 O   0  0  0  0  0  0  0  0  0  0  0  0
  1  2  1  0  0  0  0
  2  3  2  0  0  0  0
  2  4  1  0  0  0  0
  3  5  1  0  0  0  0
  3  6  1  0  0  0  0
  4  7  2  0  0  0  0
  5  8  2  0  0  0  0
  5  9  1  0  0  0  0
  6 10  2  0  0  0  0
  6 11  1  0  0  0  0
  9 12  1  0  0  0  0
  9 13  1  0  0  0  0
  9 14  1  0  0  0  0
 11 15  1  0  0  0  0
 11 16  2  0  0  0  0
 15 17  2  0  0  0  0
 15 18  1  0  0  0  0
 16 19  1  0  0  0  0
 17 20  1  0  0  0  0
 17 21  1  0  0  0  0
 18 22  2  0  0  0  0
 19 23  1  0  0  0  0
 21 24  2  0  0  0  0
 23 25  2  0  0  0  0
 23 26  1  0  0  0  0
 25 27  1  0  0  0  0
 26 28  2  0  0  0  0
 27 29  2  0  0  0  0
 29 30  1  0  0  0  0
 30 31  2  0  0  0  0
 30 32  1  0  0  0  0
  7  8  1  0  0  0  0
 18 19  1  0  0  0  0
 22 24  1  0  0  0  0
 28 29  1  0  0  0  0
M  END
>  <MolRegNo>
2447451

>  <m>
=

>  <Value>
16400

>  <Unit>
nM

>  <Type>
IC50

>  <pValue>
4.79

>  <Ligand Efficiency>
0

>  <Binding Efficiency>
0

>  <Surface Efficiency>
0

>  <Assay Index>
1265434

>  <Assay Category>


>  <Assay Organism>
Homo sapiens

>  <Target ID>
17045

>  <Target Name>
Cytochrome P450 3A4

>  <Target Organism>
Homo sapiens

>  <Target Description>
Target is a single protein chain

>  <Sequence Accession>
P08684

>  <Reference>
Bioorg Med Chem Lett 29 (16), 2208-2217 (2019)

>  <Pubmed ID>
31272795

>  <DOI>
10.1016/j.bmcl.2019.06.044

$$$$
2432456
Actelion Java MolfileCreator 1.0

 34 39  0  0  0  0  0  0  0  0999 V2000
    0.0000   -0.0000   -0.0000 O   0  0  0  0  0  0  0  0  0  0  0  0
   -0.3211   -1.4630   -0.0000 C   0  0  0  0  0  0  0  0  0  0  0  0
   -1.7603   -1.9150   -0.0000 N   0  0  0  0  0  0  0  0  0  0  0  0
    0.7850   -2.4621   -0.0000 C   0  0  0  0  0  0  0  0  0  0  0  0
    2.2480   -2.1409   -0.0000 N   0  0  0  0  0  0  0  0  0  0  0  0
    0.6185   -3.9488   -0.0000 C   0  0  0  0  0  0  0  0  0  0  0  0
    2.9854   -3.4374   -0.0000 N   0  0  0  0  0  0  0  0  0  0  0  0
   -0.7018   -4.6863   -0.0000 N   0  0  0  0  0  0  0  0  0  0  0  0
    1.9744   -4.5436   -0.0000 C   0  0  0  0  0  0  0  0  0  0  0  0
    4.4722   -3.5920   -0.0000 C   0  0  0  0  0  0  0  0  0  0  0  0
   -0.7136   -6.1849   -0.0000 C   0  0  0  0  0  0  0  0  0  0  0  0
    0.5709   -6.9343   -0.0000 O   0  0  0  0  0  0  0  0  0  0  0  0
   -2.0339   -6.9343   -0.0000 C   0  0  0  0  0  0  0  0  0  0  0  0
   -2.0458   -8.4329   -0.0000 C   0  0  0  0  0  0  0  0  0  0  0  0
   -3.3541   -6.1612   -0.0000 C   0  0  0  0  0  0  0  0  0  0  0  0
   -0.7493   -9.1704   -0.0000 C   0  0  0  0  0  0  0  0  0  0  0  0
   -3.3660   -9.1704   -0.0000 C   0  0  0  0  0  0  0  0  0  0  0  0
   -4.6744   -6.9105   -0.0000 C   0  0  0  0  0  0  0  0  0  0  0  0
    0.6185   -8.5400   -0.0000 N   0  0  0  0  0  0  0  0  0  0  0  0
   -0.5947  -10.6571   -0.0000 C   0  0  0  0  0  0  0  0  0  0  0  0
   -4.6863   -8.4091   -0.0000 C   0  0  0  0  0  0  0  0  0  0  0  0
   -5.9946   -7.6479   -0.0000 C   0  0  0  0  0  0  0  0  0  0  0  0
    1.6176   -9.6461   -0.0000 O   0  0  0  0  0  0  0  0  0  0  0  0
    0.8683  -10.9664   -0.0000 C   0  0  0  0  0  0  0  0  0  0  0  0
   -1.6176  -11.7633   -0.0000 C   0  0  0  0  0  0  0  0  0  0  0  0
    1.3202  -12.3818   -0.0000 C   0  0  0  0  0  0  0  0  0  0  0  0
   -1.1656  -13.1906   -0.0000 C   0  0  0  0  0  0  0  0  0  0  0  0
    0.3092  -13.4879   -0.0000 C   0  0  0  0  0  0  0  0  0  0  0  0
    0.7612  -14.9033   -0.0000 C   0  0  0  0  0  0  0  0  0  0  0  0
    2.1766  -15.3553   -0.0000 N   0  0  0  0  0  0  0  0  0  0  0  0
   -0.1308  -16.1046   -0.0000 C   0  0  0  0  0  0  0  0  0  0  0  0
    2.1647  -16.8421   -0.0000 N   0  0  0  0  0  0  0  0  0  0  0  0
    0.7374  -17.3060   -0.0000 C   0  0  0  0  0  0  0  0  0  0  0  0
    0.2617  -18.7214   -0.0000 C   0  0  0  0  0  0  0  0  0  0  0  0
  1  2  2  0  0  0  0
  2  3  1  0  0  0  0
  2  4  1  0  0  0  0
  4  5  2  0  0  0  0
  4  6  1  0  0  0  0
  5  7  1  0  0  0  0
  6  8  1  0  0  0  0
  6  9  2  0  0  0  0
  7 10  1  0  0  0  0
  8 11  1  0  0  0  0
 11 12  2  0  0  0  0
 13 11  1  6  0  0  0
 13 14  1  0  0  0  0
 13 15  1  0  0  0  0
 14 16  1  1  0  0  0
 14 17  1  0  0  0  0
 15 18  1  0  0  0  0
 16 19  2  0  0  0  0
 16 20  1  0  0  0  0
 17 21  1  0  0  0  0
 18 22  1  6  0  0  0
 19 23  1  0  0  0  0
 20 24  2  0  0  0  0
 20 25  1  0  0  0  0
 24 26  1  0  0  0  0
 25 27  2  0  0  0  0
 26 28  2  0  0  0  0
 28 29  1  0  0  0  0
 29 30  2  0  0  0  0
 29 31  1  0  0  0  0
 30 32  1  0  0  0  0
 31 33  2  0  0  0  0
 33 34  1  0  0  0  0
  7  9  1  0  0  0  0
 18 21  1  0  0  0  0
 21 22  1  6  0  0  0
 23 24  1  0  0  0  0
 27 28  1  0  0  0  0
 32 33  1  0  0  0  0
M  END
>  <MolRegNo>
2432456

>  <m>
=

>  <Value>
3162.3

>  <Unit>
nM

>  <Type>
IC50

>  <pValue>
5.5

>  <Ligand Efficiency>
0

>  <Binding Efficiency>
0

>  <Surface Efficiency>
0

>  <Assay Index>
1266679

>  <Assay Category>


>  <Assay Organism>
Homo sapiens

>  <Target ID>
17045

>  <Target Name>
Cytochrome P450 3A4

>  <Target Organism>
Homo sapiens

>  <Target Description>
Target is a single protein chain

>  <Sequence Accession>
P08684

>  <Reference>
J Med Chem 62 (9), 4325-4349 (2019)

>  <Pubmed ID>
30929436

>  <DOI>
10.1021/acs.jmedchem.8b02012

$$$$
2377166
Actelion Java MolfileCreator 1.0

 33 37  0  0  0  0  0  0  0  0999 V2000
    0.0000   -0.0000   -0.0000 F   0  0  0  0  0  0  0  0  0  0  0  0
   -0.3211   -1.4629   -0.0000 C   0  0  0  0  0  0  0  0  0  0  0  0
   -1.7603   -1.9149   -0.0000 F   0  0  0  0  0  0  0  0  0  0  0  0
   -1.4035   -0.3806   -0.0000 F   0  0  0  0  0  0  0  0  0  0  0  0
    0.7850   -2.4620   -0.0000 C   0  0  0  0  0  0  0  0  0  0  0  0
    2.2479   -2.1409   -0.0000 N   0  0  0  0  0  0  0  0  0  0  0  0
    0.6185   -3.9488   -0.0000 C   0  0  0  0  0  0  0  0  0  0  0  0
    2.9854   -3.4373   -0.0000 N   0  0  0  0  0  0  0  0  0  0  0  0
   -0.7017   -4.6862   -0.0000 N   0  0  0  0  0  0  0  0  0  0  0  0
    1.9744   -4.5435   -0.0000 C   0  0  0  0  0  0  0  0  0  0  0  0
    4.4721   -3.5920   -0.0000 C   0  0  0  0  0  0  0  0  0  0  0  0
   -0.7136   -6.1848   -0.0000 C   0  0  0  0  0  0  0  0  0  0  0  0
    0.5709   -6.9341   -0.0000 O   0  0  0  0  0  0  0  0  0  0  0  0
   -2.0339   -6.9341   -0.0000 C   0  0  0  0  0  0  0  0  0  0  0  0
   -2.0457   -8.4328   -0.0000 C   0  0  0  0  0  0  0  0  0  0  0  0
   -3.3541   -6.1610   -0.0000 C   0  0  0  0  0  0  0  0  0  0  0  0
   -0.7493   -9.1702   -0.0000 C   0  0  0  0  0  0  0  0  0  0  0  0
   -3.3660   -9.1702   -0.0000 C   0  0  0  0  0  0  0  0  0  0  0  0
   -4.6743   -6.9103   -0.0000 C   0  0  0  0  0  0  0  0  0  0  0  0
    0.5471   -8.4090   -0.0000 O   0  0  0  0  0  0  0  0  0  0  0  0
   -0.7612  -10.6569   -0.0000 C   0  0  0  0  0  0  0  0  0  0  0  0
   -4.6862   -8.4090   -0.0000 C   0  0  0  0  0  0  0  0  0  0  0  0
   -5.9945   -7.6478   -0.0000 C   0  0  0  0  0  0  0  0  0  0  0  0
   -2.0814  -11.3943   -0.0000 C   0  0  0  0  0  0  0  0  0  0  0  0
    0.5233  -11.3943   -0.0000 C   0  0  0  0  0  0  0  0  0  0  0  0
   -2.0933  -12.8811   -0.0000 C   0  0  0  0  0  0  0  0  0  0  0  0
    0.5114  -12.8811   -0.0000 C   0  0  0  0  0  0  0  0  0  0  0  0
   -0.7969  -13.6185   -0.0000 C   0  0  0  0  0  0  0  0  0  0  0  0
   -0.7969  -15.1052   -0.0000 C   0  0  0  0  0  0  0  0  0  0  0  0
    0.4044  -15.9735   -0.0000 N   0  0  0  0  0  0  0  0  0  0  0  0
   -2.0220  -15.9735   -0.0000 C   0  0  0  0  0  0  0  0  0  0  0  0
   -0.0714  -17.3889   -0.0000 N   0  0  0  0  0  0  0  0  0  0  0  0
   -1.5700  -17.3889   -0.0000 C   0  0  0  0  0  0  0  0  0  0  0  0
  1  2  1  0  0  0  0
  2  3  1  0  0  0  0
  2  4  1  0  0  0  0
  2  5  1  0  0  0  0
  5  6  2  0  0  0  0
  5  7  1  0  0  0  0
  6  8  1  0  0  0  0
  7  9  1  0  0  0  0
  7 10  2  0  0  0  0
  8 11  1  0  0  0  0
  9 12  1  0  0  0  0
 12 13  2  0  0  0  0
 14 12  1  6  0  0  0
 14 15  1  0  0  0  0
 14 16  1  0  0  0  0
 15 17  1  1  0  0  0
 15 18  1  0  0  0  0
 16 19  1  0  0  0  0
 17 20  2  0  0  0  0
 17 21  1  0  0  0  0
 18 22  1  0  0  0  0
 19 23  1  6  0  0  0
 21 24  2  0  0  0  0
 21 25  1  0  0  0  0
 24 26  1  0  0  0  0
 25 27  2  0  0  0  0
 26 28  2  0  0  0  0
 28 29  1  0  0  0  0
 29 30  2  0  0  0  0
 29 31  1  0  0  0  0
 30 32  1  0  0  0  0
 31 33  2  0  0  0  0
  8 10  1  0  0  0  0
 19 22  1  0  0  0  0
 22 23  1  6  0  0  0
 27 28  1  0  0  0  0
 32 33  1  0  0  0  0
M  END
>  <MolRegNo>
2377166

>  <m>
=

>  <Value>
3981.1

>  <Unit>
nM

>  <Type>
IC50

>  <pValue>
5.4

>  <Ligand Efficiency>
0

>  <Binding Efficiency>
0

>  <Surface Efficiency>
0

>  <Assay Index>
1266679

>  <Assay Category>


>  <Assay Organism>
Homo sapiens

>  <Target ID>
17045

>  <Target Name>
Cytochrome P450 3A4

>  <Target Organism>
Homo sapiens

>  <Target Description>
Target is a single protein chain

>  <Sequence Accession>
P08684

>  <Reference>
J Med Chem 62 (9), 4325-4349 (2019)

>  <Pubmed ID>
30929436

>  <DOI>
10.1021/acs.jmedchem.8b02012

$$$$
2349908
Actelion Java MolfileCreator 1.0

 33 36  0  0  0  0  0  0  0  0999 V2000
    0.0000   -0.0000   -0.0000 F   0  0  0  0  0  0  0  0  0  0  0  0
   -1.3032   -0.7345   -0.0000 C   0  0  0  0  0  0  0  0  0  0  0  0
   -2.6064    0.0237   -0.0000 C   0  0  0  0  0  0  0  0  0  0  0  0
   -1.3151   -2.2155   -0.0000 C   0  0  0  0  0  0  0  0  0  0  0  0
   -2.6183    1.5283   -0.0000 C   0  0  0  0  0  0  0  0  0  0  0  0
   -3.9215   -0.7108   -0.0000 C   0  0  0  0  0  0  0  0  0  0  0  0
   -2.6301   -2.9619   -0.0000 C   0  0  0  0  0  0  0  0  0  0  0  0
   -1.3269    2.2866   -0.0000 O   0  0  0  0  0  0  0  0  0  0  0  0
   -3.9334    2.2866   -0.0000 C   0  0  0  0  0  0  0  0  0  0  0  0
   -3.9334   -2.1918   -0.0000 C   0  0  0  0  0  0  0  0  0  0  0  0
   -2.6301   -4.4428   -0.0000 C   0  0  0  0  0  0  0  0  0  0  0  0
   -3.9452    3.8030   -0.0000 C   0  0  0  0  0  0  0  0  0  0  0  0
   -5.2484    1.5520   -0.0000 C   0  0  0  0  0  0  0  0  0  0  0  0
   -1.4335   -5.3077   -0.0000 N   0  0  0  0  0  0  0  0  0  0  0  0
   -3.8504   -5.3077   -0.0000 C   0  0  0  0  0  0  0  0  0  0  0  0
   -2.6538    4.5613   -0.0000 C   0  0  0  0  0  0  0  0  0  0  0  0
   -5.2603    4.5731   -0.0000 C   0  0  0  0  0  0  0  0  0  0  0  0
   -6.5635    2.3103   -0.0000 C   0  0  0  0  0  0  0  0  0  0  0  0
   -1.9074   -6.7175   -0.0000 N   0  0  0  0  0  0  0  0  0  0  0  0
   -3.4002   -6.7175   -0.0000 C   0  0  0  0  0  0  0  0  0  0  0  0
   -1.3743    3.8149   -0.0000 O   0  0  0  0  0  0  0  0  0  0  0  0
   -2.6657    6.0778   -0.0000 N   0  0  0  0  0  0  0  0  0  0  0  0
   -6.5754    3.8267   -0.0000 C   0  0  0  0  0  0  0  0  0  0  0  0
   -4.2888   -7.9141   -0.0000 C   0  0  0  0  0  0  0  0  0  0  0  0
   -1.3743    6.8360   -0.0000 C   0  0  0  0  0  0  0  0  0  0  0  0
   -1.2321    8.3406   -0.0000 C   0  0  0  0  0  0  0  0  0  0  0  0
   -0.0237    6.2436   -0.0000 C   0  0  0  0  0  0  0  0  0  0  0  0
    0.2251    8.6605   -0.0000 N   0  0  0  0  0  0  0  0  0  0  0  0
   -2.3576    9.3595   -0.0000 C   0  0  0  0  0  0  0  0  0  0  0  0
    0.9715    7.3691   -0.0000 N   0  0  0  0  0  0  0  0  0  0  0  0
   -2.0615   10.8404   -0.0000 O   0  0  0  0  0  0  0  0  0  0  0  0
   -3.7912    8.9093   -0.0000 N   0  0  0  0  0  0  0  0  0  0  0  0
    2.4524    7.2151   -0.0000 C   0  0  0  0  0  0  0  0  0  0  0  0
  1  2  1  0  0  0  0
  2  3  2  0  0  0  0
  2  4  1  0  0  0  0
  3  5  1  0  0  0  0
  3  6  1  0  0  0  0
  4  7  2  0  0  0  0
  5  8  2  0  0  0  0
  9  5  1  1  0  0  0
  6 10  2  0  0  0  0
  7 11  1  0  0  0  0
  9 12  1  0  0  0  0
  9 13  1  0  0  0  0
 11 14  1  0  0  0  0
 11 15  2  0  0  0  0
 12 16  1  6  0  0  0
 12 17  1  0  0  0  0
 13 18  1  0  0  0  0
 14 19  1  0  0  0  0
 15 20  1  0  0  0  0
 16 21  2  0  0  0  0
 16 22  1  0  0  0  0
 17 23  1  0  0  0  0
 20 24  1  0  0  0  0
 22 25  1  0  0  0  0
 25 26  1  0  0  0  0
 25 27  2  0  0  0  0
 26 28  2  0  0  0  0
 26 29  1  0  0  0  0
 27 30  1  0  0  0  0
 29 31  2  0  0  0  0
 29 32  1  0  0  0  0
 30 33  1  0  0  0  0
  7 10  1  0  0  0  0
 18 23  1  0  0  0  0
 19 20  2  0  0  0  0
 28 30  1  0  0  0  0
M  END
>  <MolRegNo>
2349908

>  <m>
=

>  <Value>
6309.6

>  <Unit>
nM

>  <Type>
IC50

>  <pValue>
5.2

>  <Ligand Efficiency>
0

>  <Binding Efficiency>
0

>  <Surface Efficiency>
0

>  <Assay Index>
1266679

>  <Assay Category>


>  <Assay Organism>
Homo sapiens

>  <Target ID>
17045

>  <Target Name>
Cytochrome P450 3A4

>  <Target Organism>
Homo sapiens

>  <Target Description>
Target is a single protein chain

>  <Sequence Accession>
P08684

>  <Reference>
J Med Chem 62 (9), 4325-4349 (2019)

>  <Pubmed ID>
30929436

>  <DOI>
10.1021/acs.jmedchem.8b02012

$$$$
2370323
Actelion Java MolfileCreator 1.0

 32 35  0  0  0  0  0  0  0  0999 V2000
    0.0000   -0.0000   -0.0000 F   0  0  0  0  0  0  0  0  0  0  0  0
   -0.3213   -1.4637   -0.0000 C   0  0  0  0  0  0  0  0  0  0  0  0
   -1.7612   -1.9159   -0.0000 F   0  0  0  0  0  0  0  0  0  0  0  0
   -1.4042   -0.3808   -0.0000 F   0  0  0  0  0  0  0  0  0  0  0  0
    0.7854   -2.4632   -0.0000 C   0  0  0  0  0  0  0  0  0  0  0  0
    2.2491   -2.1420   -0.0000 N   0  0  0  0  0  0  0  0  0  0  0  0
    0.6188   -3.9507   -0.0000 C   0  0  0  0  0  0  0  0  0  0  0  0
    2.9868   -3.4390   -0.0000 N   0  0  0  0  0  0  0  0  0  0  0  0
   -0.7021   -4.6885   -0.0000 N   0  0  0  0  0  0  0  0  0  0  0  0
    1.9754   -4.5457   -0.0000 C   0  0  0  0  0  0  0  0  0  0  0  0
    4.4743   -3.5937   -0.0000 C   0  0  0  0  0  0  0  0  0  0  0  0
   -0.7140   -6.1879   -0.0000 C   0  0  0  0  0  0  0  0  0  0  0  0
    0.5712   -6.9376   -0.0000 O   0  0  0  0  0  0  0  0  0  0  0  0
   -2.0349   -6.9376   -0.0000 C   0  0  0  0  0  0  0  0  0  0  0  0
   -2.0468   -8.4369   -0.0000 C   0  0  0  0  0  0  0  0  0  0  0  0
   -3.3557   -6.1641   -0.0000 C   0  0  0  0  0  0  0  0  0  0  0  0
   -0.7497   -9.1747   -0.0000 C   0  0  0  0  0  0  0  0  0  0  0  0
   -3.3676   -9.1747   -0.0000 C   0  0  0  0  0  0  0  0  0  0  0  0
   -4.6766   -6.9138   -0.0000 C   0  0  0  0  0  0  0  0  0  0  0  0
    0.5474   -8.4131   -0.0000 O   0  0  0  0  0  0  0  0  0  0  0  0
   -0.7616  -10.6622   -0.0000 C   0  0  0  0  0  0  0  0  0  0  0  0
   -4.6885   -8.4131   -0.0000 C   0  0  0  0  0  0  0  0  0  0  0  0
   -2.0825  -11.4000   -0.0000 C   0  0  0  0  0  0  0  0  0  0  0  0
    0.5236  -11.4000   -0.0000 C   0  0  0  0  0  0  0  0  0  0  0  0
   -2.0944  -12.8874   -0.0000 C   0  0  0  0  0  0  0  0  0  0  0  0
    0.5117  -12.8874   -0.0000 C   0  0  0  0  0  0  0  0  0  0  0  0
   -0.7973  -13.6252   -0.0000 C   0  0  0  0  0  0  0  0  0  0  0  0
   -0.7973  -15.1127   -0.0000 C   0  0  0  0  0  0  0  0  0  0  0  0
    0.4046  -15.9814   -0.0000 N   0  0  0  0  0  0  0  0  0  0  0  0
   -2.0230  -15.9814   -0.0000 C   0  0  0  0  0  0  0  0  0  0  0  0
   -0.0714  -17.3974   -0.0000 N   0  0  0  0  0  0  0  0  0  0  0  0
   -1.5708  -17.3974   -0.0000 C   0  0  0  0  0  0  0  0  0  0  0  0
  1  2  1  0  0  0  0
  2  3  1  0  0  0  0
  2  4  1  0  0  0  0
  2  5  1  0  0  0  0
  5  6  2  0  0  0  0
  5  7  1  0  0  0  0
  6  8  1  0  0  0  0
  7  9  1  0  0  0  0
  7 10  2  0  0  0  0
  8 11  1  0  0  0  0
  9 12  1  0  0  0  0
 12 13  2  0  0  0  0
 14 12  1  6  0  0  0
 14 15  1  0  0  0  0
 14 16  1  0  0  0  0
 15 17  1  1  0  0  0
 15 18  1  0  0  0  0
 16 19  1  0  0  0  0
 17 20  2  0  0  0  0
 17 21  1  0  0  0  0
 18 22  1  0  0  0  0
 21 23  2  0  0  0  0
 21 24  1  0  0  0  0
 23 25  1  0  0  0  0
 24 26  2  0  0  0  0
 25 27  2  0  0  0  0
 27 28  1  0  0  0  0
 28 29  2  0  0  0  0
 28 30  1  0  0  0  0
 29 31  1  0  0  0  0
 30 32  2  0  0  0  0
  8 10  1  0  0  0  0
 19 22  1  0  0  0  0
 26 27  1  0  0  0  0
 31 32  1  0  0  0  0
M  END
>  <MolRegNo>
2370323

>  <m>
=

>  <Value>
19953

>  <Unit>
nM

>  <Type>
IC50

>  <pValue>
4.7

>  <Ligand Efficiency>
0

>  <Binding Efficiency>
0

>  <Surface Efficiency>
0

>  <Assay Index>
1266679

>  <Assay Category>


>  <Assay Organism>
Homo sapiens

>  <Target ID>
17045

>  <Target Name>
Cytochrome P450 3A4

>  <Target Organism>
Homo sapiens

>  <Target Description>
Target is a single protein chain

>  <Sequence Accession>
P08684

>  <Reference>
J Med Chem 62 (9), 4325-4349 (2019)

>  <Pubmed ID>
30929436

>  <DOI>
10.1021/acs.jmedchem.8b02012

$$$$
2379284
Actelion Java MolfileCreator 1.0

 29 32  0  0  0  0  0  0  0  0999 V2000
    0.0000   -0.0000   -0.0000 O   0  0  0  0  0  0  0  0  0  0  0  0
   -1.3070    0.7723   -0.0000 C   0  0  0  0  0  0  0  0  0  0  0  0
   -1.3189    2.2932   -0.0000 N   0  0  0  0  0  0  0  0  0  0  0  0
   -2.6259    0.0356   -0.0000 C   0  0  0  0  0  0  0  0  0  0  0  0
   -0.0238    3.0537   -0.0000 C   0  0  0  0  0  0  0  0  0  0  0  0
   -2.6378   -1.4615   -0.0000 C   0  0  0  0  0  0  0  0  0  0  0  0
   -3.9449    0.8080   -0.0000 C   0  0  0  0  0  0  0  0  0  0  0  0
    0.1188    4.5627   -0.0000 C   0  0  0  0  0  0  0  0  0  0  0  0
    1.3308    2.4596   -0.0000 C   0  0  0  0  0  0  0  0  0  0  0  0
   -1.3427   -2.1982   -0.0000 C   0  0  0  0  0  0  0  0  0  0  0  0
   -3.9567   -2.1982   -0.0000 C   0  0  0  0  0  0  0  0  0  0  0  0
   -5.2638    0.0594   -0.0000 C   0  0  0  0  0  0  0  0  0  0  0  0
    1.5803    4.8835   -0.0000 O   0  0  0  0  0  0  0  0  0  0  0  0
   -1.0100    5.5846   -0.0000 C   0  0  0  0  0  0  0  0  0  0  0  0
    2.3289    3.5884   -0.0000 N   0  0  0  0  0  0  0  0  0  0  0  0
    1.6278    0.9981   -0.0000 C   0  0  0  0  0  0  0  0  0  0  0  0
   -0.0475   -1.4377   -0.0000 O   0  0  0  0  0  0  0  0  0  0  0  0
   -1.3546   -3.6835   -0.0000 C   0  0  0  0  0  0  0  0  0  0  0  0
   -5.2757   -1.4377   -0.0000 C   0  0  0  0  0  0  0  0  0  0  0  0
   -2.6735   -4.4201   -0.0000 C   0  0  0  0  0  0  0  0  0  0  0  0
   -0.0713   -4.4201   -0.0000 C   0  0  0  0  0  0  0  0  0  0  0  0
   -2.6854   -5.9054   -0.0000 C   0  0  0  0  0  0  0  0  0  0  0  0
   -0.0832   -5.9054   -0.0000 C   0  0  0  0  0  0  0  0  0  0  0  0
   -1.4021   -6.6421   -0.0000 C   0  0  0  0  0  0  0  0  0  0  0  0
   -1.4021   -8.1274   -0.0000 C   0  0  0  0  0  0  0  0  0  0  0  0
   -0.2020   -8.9948   -0.0000 N   0  0  0  0  0  0  0  0  0  0  0  0
   -2.6259   -8.9948   -0.0000 C   0  0  0  0  0  0  0  0  0  0  0  0
   -0.6773  -10.4087   -0.0000 N   0  0  0  0  0  0  0  0  0  0  0  0
   -2.1744  -10.4087   -0.0000 C   0  0  0  0  0  0  0  0  0  0  0  0
  1  2  2  0  0  0  0
  2  3  1  0  0  0  0
  4  2  1  6  0  0  0
  3  5  1  0  0  0  0
  4  6  1  0  0  0  0
  4  7  1  0  0  0  0
  5  8  2  0  0  0  0
  5  9  1  0  0  0  0
  6 10  1  1  0  0  0
  6 11  1  0  0  0  0
  7 12  1  0  0  0  0
  8 13  1  0  0  0  0
  8 14  1  0  0  0  0
  9 15  2  0  0  0  0
  9 16  1  0  0  0  0
 10 17  2  0  0  0  0
 10 18  1  0  0  0  0
 11 19  1  0  0  0  0
 18 20  2  0  0  0  0
 18 21  1  0  0  0  0
 20 22  1  0  0  0  0
 21 23  2  0  0  0  0
 22 24  2  0  0  0  0
 24 25  1  0  0  0  0
 25 26  2  0  0  0  0
 25 27  1  0  0  0  0
 26 28  1  0  0  0  0
 27 29  2  0  0  0  0
 12 19  1  0  0  0  0
 13 15  1  0  0  0  0
 23 24  1  0  0  0  0
 28 29  1  0  0  0  0
M  END
>  <MolRegNo>
2379284

>  <m>
=

>  <Value>
3981.1

>  <Unit>
nM

>  <Type>
IC50

>  <pValue>
5.4

>  <Ligand Efficiency>
0

>  <Binding Efficiency>
0

>  <Surface Efficiency>
0

>  <Assay Index>
1266679

>  <Assay Category>


>  <Assay Organism>
Homo sapiens

>  <Target ID>
17045

>  <Target Name>
Cytochrome P450 3A4

>  <Target Organism>
Homo sapiens

>  <Target Description>
Target is a single protein chain

>  <Sequence Accession>
P08684

>  <Reference>
J Med Chem 62 (9), 4325-4349 (2019)

>  <Pubmed ID>
30929436

>  <DOI>
10.1021/acs.jmedchem.8b02012

$$$$
2344310
Actelion Java MolfileCreator 1.0

 36 39  0  0  0  0  0  0  0  0999 V2000
    0.0000   -0.0000   -0.0000 F   0  0  0  0  0  0  0  0  0  0  0  0
   -1.3289   -0.7119   -0.0000 C   0  0  0  0  0  0  0  0  0  0  0  0
   -2.6340    0.0712   -0.0000 C   0  0  0  0  0  0  0  0  0  0  0  0
   -1.3645   -2.2069   -0.0000 C   0  0  0  0  0  0  0  0  0  0  0  0
   -3.9629   -0.6407   -0.0000 C   0  0  0  0  0  0  0  0  0  0  0  0
   -2.6222    1.5899   -0.0000 C   0  0  0  0  0  0  0  0  0  0  0  0
   -2.6933   -2.9188   -0.0000 C   0  0  0  0  0  0  0  0  0  0  0  0
   -3.9985   -2.1357   -0.0000 C   0  0  0  0  0  0  0  0  0  0  0  0
   -1.3526    0.8305   -0.0000 O   0  0  0  0  0  0  0  0  0  0  0  0
   -3.9273    2.3730   -0.0000 C   0  0  0  0  0  0  0  0  0  0  0  0
   -1.3170    2.3374   -0.0000 C   0  0  0  0  0  0  0  0  0  0  0  0
   -2.7289   -4.4138   -0.0000 F   0  0  0  0  0  0  0  0  0  0  0  0
   -5.2562    1.6611   -0.0000 N   0  0  0  0  0  0  0  0  0  0  0  0
   -1.3051    3.8561   -0.0000 N   0  0  0  0  0  0  0  0  0  0  0  0
   -6.6325    2.3018   -0.0000 N   0  0  0  0  0  0  0  0  0  0  0  0
   -5.4460    0.1780   -0.0000 C   0  0  0  0  0  0  0  0  0  0  0  0
    0.0000    4.5917   -0.0000 C   0  0  0  0  0  0  0  0  0  0  0  0
   -7.6648    1.2102   -0.0000 C   0  0  0  0  0  0  0  0  0  0  0  0
   -6.9291   -0.0949   -0.0000 N   0  0  0  0  0  0  0  0  0  0  0  0
    0.0119    6.1105   -0.0000 O   0  0  0  0  0  0  0  0  0  0  0  0
    1.2814    3.8324   -0.0000 C   0  0  0  0  0  0  0  0  0  0  0  0
    1.2340    2.3374   -0.0000 C   0  0  0  0  0  0  0  0  0  0  0  0
    2.5747    4.5799   -0.0000 C   0  0  0  0  0  0  0  0  0  0  0  0
   -0.0949    1.6255   -0.0000 O   0  0  0  0  0  0  0  0  0  0  0  0
    2.5035    1.5780   -0.0000 O   0  0  0  0  0  0  0  0  0  0  0  0
    3.8561    3.8087   -0.0000 C   0  0  0  0  0  0  0  0  0  0  0  0
    3.8087    2.3137   -0.0000 C   0  0  0  0  0  0  0  0  0  0  0  0
    5.1494    4.5443   -0.0000 C   0  0  0  0  0  0  0  0  0  0  0  0
    5.0782    1.5543   -0.0000 C   0  0  0  0  0  0  0  0  0  0  0  0
    6.4189    3.7849   -0.0000 C   0  0  0  0  0  0  0  0  0  0  0  0
    6.3834    2.2899   -0.0000 C   0  0  0  0  0  0  0  0  0  0  0  0
    7.6648    1.5306   -0.0000 N   0  0  0  0  0  0  0  0  0  0  0  0
    7.6292    0.0356   -0.0000 C   0  0  0  0  0  0  0  0  0  0  0  0
    8.9699    2.2662   -0.0000 C   0  0  0  0  0  0  0  0  0  0  0  0
    8.9106   -0.7238   -0.0000 C   0  0  0  0  0  0  0  0  0  0  0  0
   10.2513    1.5069   -0.0000 C   0  0  0  0  0  0  0  0  0  0  0  0
  1  2  1  0  0  0  0
  2  3  2  0  0  0  0
  2  4  1  0  0  0  0
  3  5  1  0  0  0  0
  3  6  1  0  0  0  0
  4  7  2  0  0  0  0
  5  8  2  0  0  0  0
  6  9  1  0  0  0  0
  6 10  1  0  0  0  0
  6 11  1  0  0  0  0
  7 12  1  0  0  0  0
 10 13  1  0  0  0  0
 11 14  1  0  0  0  0
 13 15  1  0  0  0  0
 13 16  1  0  0  0  0
 14 17  1  0  0  0  0
 15 18  2  0  0  0  0
 16 19  2  0  0  0  0
 17 20  2  0  0  0  0
 17 21  1  0  0  0  0
 21 22  1  0  0  0  0
 21 23  2  0  0  0  0
 22 24  2  0  0  0  0
 22 25  1  0  0  0  0
 23 26  1  0  0  0  0
 25 27  1  0  0  0  0
 26 28  1  0  0  0  0
 27 29  1  0  0  0  0
 28 30  2  0  0  0  0
 29 31  2  0  0  0  0
 31 32  1  0  0  0  0
 32 33  1  0  0  0  0
 32 34  1  0  0  0  0
 33 35  1  0  0  0  0
 34 36  1  0  0  0  0
  7  8  1  0  0  0  0
 18 19  1  0  0  0  0
 26 27  2  0  0  0  0
 30 31  1  0  0  0  0
M  END
>  <MolRegNo>
2344310

>  <m>
=

>  <Value>
1022.3

>  <Unit>
nM

>  <Type>
IC50

>  <pValue>
5.99

>  <Ligand Efficiency>
0

>  <Binding Efficiency>
0

>  <Surface Efficiency>
0

>  <Assay Index>
1270100

>  <Assay Category>


>  <Assay Organism>
Homo sapiens

>  <Target ID>
17045

>  <Target Name>
Cytochrome P450 3A4

>  <Target Organism>
Homo sapiens

>  <Target Description>
Target is a single protein chain

>  <Sequence Accession>
P08684

>  <Reference>


>  <Pubmed ID>
31288127

>  <DOI>
10.1016/j.ejmech.2019.07.003

$$$$
2413571
Actelion Java MolfileCreator 1.0

 36 39  0  0  0  0  0  0  0  0999 V2000
    0.0000   -0.0000   -0.0000 F   0  0  0  0  0  0  0  0  0  0  0  0
   -1.3287   -0.7118   -0.0000 C   0  0  0  0  0  0  0  0  0  0  0  0
   -2.6338    0.0712   -0.0000 C   0  0  0  0  0  0  0  0  0  0  0  0
   -1.3643   -2.2067   -0.0000 C   0  0  0  0  0  0  0  0  0  0  0  0
   -3.9625   -0.6406   -0.0000 C   0  0  0  0  0  0  0  0  0  0  0  0
   -2.6219    1.5897   -0.0000 C   0  0  0  0  0  0  0  0  0  0  0  0
   -2.6931   -2.9185   -0.0000 C   0  0  0  0  0  0  0  0  0  0  0  0
   -3.9981   -2.1355   -0.0000 C   0  0  0  0  0  0  0  0  0  0  0  0
   -1.3525    0.8305   -0.0000 O   0  0  0  0  0  0  0  0  0  0  0  0
   -3.9269    2.3728   -0.0000 C   0  0  0  0  0  0  0  0  0  0  0  0
   -1.3169    2.3372   -0.0000 C   0  0  0  0  0  0  0  0  0  0  0  0
   -2.7287   -4.4133   -0.0000 F   0  0  0  0  0  0  0  0  0  0  0  0
   -5.2557    1.6609   -0.0000 N   0  0  0  0  0  0  0  0  0  0  0  0
   -1.3050    3.8557   -0.0000 N   0  0  0  0  0  0  0  0  0  0  0  0
   -6.6319    2.3016   -0.0000 C   0  0  0  0  0  0  0  0  0  0  0  0
   -5.4455    0.1780   -0.0000 C   0  0  0  0  0  0  0  0  0  0  0  0
    0.0000    4.6031   -0.0000 C   0  0  0  0  0  0  0  0  0  0  0  0
   -7.6640    1.2101   -0.0000 N   0  0  0  0  0  0  0  0  0  0  0  0
   -6.9284   -0.0949   -0.0000 C   0  0  0  0  0  0  0  0  0  0  0  0
    0.0119    6.1217   -0.0000 O   0  0  0  0  0  0  0  0  0  0  0  0
    1.2813    3.8439   -0.0000 C   0  0  0  0  0  0  0  0  0  0  0  0
    1.2338    2.3490   -0.0000 C   0  0  0  0  0  0  0  0  0  0  0  0
    2.5744    4.5913   -0.0000 C   0  0  0  0  0  0  0  0  0  0  0  0
   -0.0949    1.6372   -0.0000 O   0  0  0  0  0  0  0  0  0  0  0  0
    2.5033    1.5897   -0.0000 O   0  0  0  0  0  0  0  0  0  0  0  0
    3.8557    3.8201   -0.0000 C   0  0  0  0  0  0  0  0  0  0  0  0
    3.8083    2.3253   -0.0000 C   0  0  0  0  0  0  0  0  0  0  0  0
    5.1489    4.5557   -0.0000 C   0  0  0  0  0  0  0  0  0  0  0  0
    5.0777    1.5660   -0.0000 C   0  0  0  0  0  0  0  0  0  0  0  0
    6.4183    3.7964   -0.0000 C   0  0  0  0  0  0  0  0  0  0  0  0
    6.3827    2.3016   -0.0000 C   0  0  0  0  0  0  0  0  0  0  0  0
    7.6640    1.5423   -0.0000 N   0  0  0  0  0  0  0  0  0  0  0  0
    7.6284    0.0475   -0.0000 C   0  0  0  0  0  0  0  0  0  0  0  0
    8.9690    2.2778   -0.0000 C   0  0  0  0  0  0  0  0  0  0  0  0
    8.9097   -0.7118   -0.0000 C   0  0  0  0  0  0  0  0  0  0  0  0
   10.2503    1.5186   -0.0000 C   0  0  0  0  0  0  0  0  0  0  0  0
  1  2  1  0  0  0  0
  2  3  2  0  0  0  0
  2  4  1  0  0  0  0
  3  5  1  0  0  0  0
  3  6  1  0  0  0  0
  4  7  2  0  0  0  0
  5  8  2  0  0  0  0
  6  9  1  0  0  0  0
  6 10  1  0  0  0  0
  6 11  1  0  0  0  0
  7 12  1  0  0  0  0
 10 13  1  0  0  0  0
 11 14  1  0  0  0  0
 13 15  1  0  0  0  0
 13 16  1  0  0  0  0
 14 17  1  0  0  0  0
 15 18  2  0  0  0  0
 16 19  2  0  0  0  0
 17 20  2  0  0  0  0
 17 21  1  0  0  0  0
 21 22  1  0  0  0  0
 21 23  2  0  0  0  0
 22 24  2  0  0  0  0
 22 25  1  0  0  0  0
 23 26  1  0  0  0  0
 25 27  1  0  0  0  0
 26 28  1  0  0  0  0
 27 29  1  0  0  0  0
 28 30  2  0  0  0  0
 29 31  2  0  0  0  0
 31 32  1  0  0  0  0
 32 33  1  0  0  0  0
 32 34  1  0  0  0  0
 33 35  1  0  0  0  0
 34 36  1  0  0  0  0
  7  8  1  0  0  0  0
 18 19  1  0  0  0  0
 26 27  2  0  0  0  0
 30 31  1  0  0  0  0
M  END
>  <MolRegNo>
2413571

>  <m>
=

>  <Value>
1312.3

>  <Unit>
nM

>  <Type>
IC50

>  <pValue>
5.88

>  <Ligand Efficiency>
0

>  <Binding Efficiency>
0

>  <Surface Efficiency>
0

>  <Assay Index>
1270100

>  <Assay Category>


>  <Assay Organism>
Homo sapiens

>  <Target ID>
17045

>  <Target Name>
Cytochrome P450 3A4

>  <Target Organism>
Homo sapiens

>  <Target Description>
Target is a single protein chain

>  <Sequence Accession>
P08684

>  <Reference>


>  <Pubmed ID>
31288127

>  <DOI>
10.1016/j.ejmech.2019.07.003

$$$$
2348993
Actelion Java MolfileCreator 1.0

 36 39  0  0  0  0  0  0  0  0999 V2000
    0.0000   -0.0000   -0.0000 Cl  0  0  0  0  0  0  0  0  0  0  0  0
   -1.3172   -0.7120   -0.0000 C   0  0  0  0  0  0  0  0  0  0  0  0
   -2.6226    0.0712   -0.0000 C   0  0  0  0  0  0  0  0  0  0  0  0
   -1.3528   -2.2073   -0.0000 C   0  0  0  0  0  0  0  0  0  0  0  0
   -3.9517   -0.6408   -0.0000 C   0  0  0  0  0  0  0  0  0  0  0  0
   -2.6108    1.5902   -0.0000 C   0  0  0  0  0  0  0  0  0  0  0  0
   -2.6820   -2.9193   -0.0000 C   0  0  0  0  0  0  0  0  0  0  0  0
   -3.9873   -2.1361   -0.0000 C   0  0  0  0  0  0  0  0  0  0  0  0
   -1.3410    0.8307   -0.0000 O   0  0  0  0  0  0  0  0  0  0  0  0
   -3.9161    2.3734   -0.0000 C   0  0  0  0  0  0  0  0  0  0  0  0
   -1.3054    2.3378   -0.0000 C   0  0  0  0  0  0  0  0  0  0  0  0
   -2.7176   -4.4146   -0.0000 Cl  0  0  0  0  0  0  0  0  0  0  0  0
   -5.2453    1.6614   -0.0000 N   0  0  0  0  0  0  0  0  0  0  0  0
   -1.2935    3.8568   -0.0000 N   0  0  0  0  0  0  0  0  0  0  0  0
   -6.6218    2.3022   -0.0000 N   0  0  0  0  0  0  0  0  0  0  0  0
   -5.4351    0.1780   -0.0000 C   0  0  0  0  0  0  0  0  0  0  0  0
    0.0119    4.5926   -0.0000 C   0  0  0  0  0  0  0  0  0  0  0  0
   -7.6543    1.2104   -0.0000 C   0  0  0  0  0  0  0  0  0  0  0  0
   -6.9185   -0.0949   -0.0000 N   0  0  0  0  0  0  0  0  0  0  0  0
    0.0237    6.1116   -0.0000 O   0  0  0  0  0  0  0  0  0  0  0  0
    1.2935    3.8331   -0.0000 C   0  0  0  0  0  0  0  0  0  0  0  0
    1.2460    2.3378   -0.0000 C   0  0  0  0  0  0  0  0  0  0  0  0
    2.5870    4.5807   -0.0000 C   0  0  0  0  0  0  0  0  0  0  0  0
   -0.0831    1.6258   -0.0000 O   0  0  0  0  0  0  0  0  0  0  0  0
    2.5158    1.5783   -0.0000 O   0  0  0  0  0  0  0  0  0  0  0  0
    3.8687    3.8093   -0.0000 C   0  0  0  0  0  0  0  0  0  0  0  0
    3.8212    2.3141   -0.0000 C   0  0  0  0  0  0  0  0  0  0  0  0
    5.1622    4.5451   -0.0000 C   0  0  0  0  0  0  0  0  0  0  0  0
    5.0910    1.5546   -0.0000 C   0  0  0  0  0  0  0  0  0  0  0  0
    6.4320    3.7856   -0.0000 C   0  0  0  0  0  0  0  0  0  0  0  0
    6.3964    2.2903   -0.0000 C   0  0  0  0  0  0  0  0  0  0  0  0
    7.6780    1.5309   -0.0000 N   0  0  0  0  0  0  0  0  0  0  0  0
    7.6424    0.0356   -0.0000 C   0  0  0  0  0  0  0  0  0  0  0  0
    8.9834    2.2666   -0.0000 C   0  0  0  0  0  0  0  0  0  0  0  0
    8.9241   -0.7239   -0.0000 C   0  0  0  0  0  0  0  0  0  0  0  0
   10.2650    1.5071   -0.0000 C   0  0  0  0  0  0  0  0  0  0  0  0
  1  2  1  0  0  0  0
  2  3  2  0  0  0  0
  2  4  1  0  0  0  0
  3  5  1  0  0  0  0
  3  6  1  0  0  0  0
  4  7  2  0  0  0  0
  5  8  2  0  0  0  0
  6  9  1  0  0  0  0
  6 10  1  0  0  0  0
  6 11  1  0  0  0  0
  7 12  1  0  0  0  0
 10 13  1  0  0  0  0
 11 14  1  0  0  0  0
 13 15  1  0  0  0  0
 13 16  1  0  0  0  0
 14 17  1  0  0  0  0
 15 18  2  0  0  0  0
 16 19  2  0  0  0  0
 17 20  2  0  0  0  0
 17 21  1  0  0  0  0
 21 22  1  0  0  0  0
 21 23  2  0  0  0  0
 22 24  2  0  0  0  0
 22 25  1  0  0  0  0
 23 26  1  0  0  0  0
 25 27  1  0  0  0  0
 26 28  1  0  0  0  0
 27 29  1  0  0  0  0
 28 30  2  0  0  0  0
 29 31  2  0  0  0  0
 31 32  1  0  0  0  0
 32 33  1  0  0  0  0
 32 34  1  0  0  0  0
 33 35  1  0  0  0  0
 34 36  1  0  0  0  0
  7  8  1  0  0  0  0
 18 19  1  0  0  0  0
 26 27  2  0  0  0  0
 30 31  1  0  0  0  0
M  END
>  <MolRegNo>
2348993

>  <m>
=

>  <Value>
351.2

>  <Unit>
nM

>  <Type>
IC50

>  <pValue>
6.45

>  <Ligand Efficiency>
0

>  <Binding Efficiency>
0

>  <Surface Efficiency>
0

>  <Assay Index>
1270100

>  <Assay Category>


>  <Assay Organism>
Homo sapiens

>  <Target ID>
17045

>  <Target Name>
Cytochrome P450 3A4

>  <Target Organism>
Homo sapiens

>  <Target Description>
Target is a single protein chain

>  <Sequence Accession>
P08684

>  <Reference>


>  <Pubmed ID>
31288127

>  <DOI>
10.1016/j.ejmech.2019.07.003

$$$$
2377704
Actelion Java MolfileCreator 1.0

 36 39  0  0  0  0  0  0  0  0999 V2000
    0.0000   -0.0000   -0.0000 Cl  0  0  0  0  0  0  0  0  0  0  0  0
   -1.3183   -0.7126   -0.0000 C   0  0  0  0  0  0  0  0  0  0  0  0
   -2.6247    0.0713   -0.0000 C   0  0  0  0  0  0  0  0  0  0  0  0
   -1.3539   -2.2090   -0.0000 C   0  0  0  0  0  0  0  0  0  0  0  0
   -3.9548   -0.6413   -0.0000 C   0  0  0  0  0  0  0  0  0  0  0  0
   -2.6128    1.5914   -0.0000 C   0  0  0  0  0  0  0  0  0  0  0  0
   -2.6841   -2.9216   -0.0000 C   0  0  0  0  0  0  0  0  0  0  0  0
   -3.9905   -2.1378   -0.0000 C   0  0  0  0  0  0  0  0  0  0  0  0
   -1.3420    0.8313   -0.0000 O   0  0  0  0  0  0  0  0  0  0  0  0
   -3.9192    2.3753   -0.0000 C   0  0  0  0  0  0  0  0  0  0  0  0
   -1.3183    2.3397   -0.0000 C   0  0  0  0  0  0  0  0  0  0  0  0
   -2.7197   -4.4180   -0.0000 Cl  0  0  0  0  0  0  0  0  0  0  0  0
   -5.2494    1.6627   -0.0000 N   0  0  0  0  0  0  0  0  0  0  0  0
   -1.3064    3.8598   -0.0000 N   0  0  0  0  0  0  0  0  0  0  0  0
   -6.6270    2.3040   -0.0000 C   0  0  0  0  0  0  0  0  0  0  0  0
   -5.4394    0.1781   -0.0000 C   0  0  0  0  0  0  0  0  0  0  0  0
    0.0000    4.5962   -0.0000 C   0  0  0  0  0  0  0  0  0  0  0  0
   -7.6603    1.2114   -0.0000 N   0  0  0  0  0  0  0  0  0  0  0  0
   -6.9239   -0.0950   -0.0000 C   0  0  0  0  0  0  0  0  0  0  0  0
    0.0119    6.1163   -0.0000 O   0  0  0  0  0  0  0  0  0  0  0  0
    1.2827    3.8361   -0.0000 C   0  0  0  0  0  0  0  0  0  0  0  0
    1.2351    2.3515   -0.0000 C   0  0  0  0  0  0  0  0  0  0  0  0
    2.5772    4.5843   -0.0000 C   0  0  0  0  0  0  0  0  0  0  0  0
   -0.0950    1.6389   -0.0000 O   0  0  0  0  0  0  0  0  0  0  0  0
    2.5059    1.5914   -0.0000 O   0  0  0  0  0  0  0  0  0  0  0  0
    3.8598    3.8123   -0.0000 C   0  0  0  0  0  0  0  0  0  0  0  0
    3.8123    2.3278   -0.0000 C   0  0  0  0  0  0  0  0  0  0  0  0
    5.1544    4.5487   -0.0000 C   0  0  0  0  0  0  0  0  0  0  0  0
    5.0831    1.5677   -0.0000 C   0  0  0  0  0  0  0  0  0  0  0  0
    6.4251    3.7886   -0.0000 C   0  0  0  0  0  0  0  0  0  0  0  0
    6.3895    2.3040   -0.0000 C   0  0  0  0  0  0  0  0  0  0  0  0
    7.6722    1.5439   -0.0000 N   0  0  0  0  0  0  0  0  0  0  0  0
    7.6365    0.0475   -0.0000 C   0  0  0  0  0  0  0  0  0  0  0  0
    8.9786    2.2803   -0.0000 C   0  0  0  0  0  0  0  0  0  0  0  0
    8.9192   -0.7126   -0.0000 C   0  0  0  0  0  0  0  0  0  0  0  0
   10.2612    1.5202   -0.0000 C   0  0  0  0  0  0  0  0  0  0  0  0
  1  2  1  0  0  0  0
  2  3  2  0  0  0  0
  2  4  1  0  0  0  0
  3  5  1  0  0  0  0
  3  6  1  0  0  0  0
  4  7  2  0  0  0  0
  5  8  2  0  0  0  0
  6  9  1  0  0  0  0
  6 10  1  0  0  0  0
  6 11  1  0  0  0  0
  7 12  1  0  0  0  0
 10 13  1  0  0  0  0
 11 14  1  0  0  0  0
 13 15  1  0  0  0  0
 13 16  1  0  0  0  0
 14 17  1  0  0  0  0
 15 18  2  0  0  0  0
 16 19  2  0  0  0  0
 17 20  2  0  0  0  0
 17 21  1  0  0  0  0
 21 22  1  0  0  0  0
 21 23  2  0  0  0  0
 22 24  2  0  0  0  0
 22 25  1  0  0  0  0
 23 26  1  0  0  0  0
 25 27  1  0  0  0  0
 26 28  1  0  0  0  0
 27 29  1  0  0  0  0
 28 30  2  0  0  0  0
 29 31  2  0  0  0  0
 31 32  1  0  0  0  0
 32 33  1  0  0  0  0
 32 34  1  0  0  0  0
 33 35  1  0  0  0  0
 34 36  1  0  0  0  0
  7  8  1  0  0  0  0
 18 19  1  0  0  0  0
 26 27  2  0  0  0  0
 30 31  1  0  0  0  0
M  END
>  <MolRegNo>
2377704

>  <m>
=

>  <Value>
127.2

>  <Unit>
nM

>  <Type>
IC50

>  <pValue>
6.9

>  <Ligand Efficiency>
0

>  <Binding Efficiency>
0

>  <Surface Efficiency>
0

>  <Assay Index>
1270100

>  <Assay Category>


>  <Assay Organism>
Homo sapiens

>  <Target ID>
17045

>  <Target Name>
Cytochrome P450 3A4

>  <Target Organism>
Homo sapiens

>  <Target Description>
Target is a single protein chain

>  <Sequence Accession>
P08684

>  <Reference>


>  <Pubmed ID>
31288127

>  <DOI>
10.1016/j.ejmech.2019.07.003

$$$$
2389728
Actelion Java MolfileCreator 1.0

 37 40  0  0  0  0  0  0  0  0999 V2000
    0.0000   -0.0000   -0.0000 F   0  0  0  0  0  0  0  0  0  0  0  0
   -1.3166   -0.7117   -0.0000 C   0  0  0  0  0  0  0  0  0  0  0  0
   -2.6213    0.0712   -0.0000 C   0  0  0  0  0  0  0  0  0  0  0  0
   -1.3522   -2.2062   -0.0000 C   0  0  0  0  0  0  0  0  0  0  0  0
   -3.9497   -0.6405   -0.0000 C   0  0  0  0  0  0  0  0  0  0  0  0
   -2.6094    1.5894   -0.0000 C   0  0  0  0  0  0  0  0  0  0  0  0
   -2.6806   -2.9178   -0.0000 C   0  0  0  0  0  0  0  0  0  0  0  0
   -3.9853   -2.1350   -0.0000 C   0  0  0  0  0  0  0  0  0  0  0  0
   -1.3403    0.8303   -0.0000 O   0  0  0  0  0  0  0  0  0  0  0  0
   -3.9142    2.3722   -0.0000 C   0  0  0  0  0  0  0  0  0  0  0  0
   -1.3047    2.3366   -0.0000 C   0  0  0  0  0  0  0  0  0  0  0  0
   -2.7162   -4.4123   -0.0000 F   0  0  0  0  0  0  0  0  0  0  0  0
   -5.2426    1.6605   -0.0000 N   0  0  0  0  0  0  0  0  0  0  0  0
   -1.2929    3.8548   -0.0000 N   0  0  0  0  0  0  0  0  0  0  0  0
   -6.6185    2.3010   -0.0000 C   0  0  0  0  0  0  0  0  0  0  0  0
   -5.4324    0.1779   -0.0000 C   0  0  0  0  0  0  0  0  0  0  0  0
    0.0119    4.5902   -0.0000 C   0  0  0  0  0  0  0  0  0  0  0  0
   -7.6504    1.2098   -0.0000 N   0  0  0  0  0  0  0  0  0  0  0  0
   -6.9150   -0.0949   -0.0000 C   0  0  0  0  0  0  0  0  0  0  0  0
    0.0237    6.1084   -0.0000 O   0  0  0  0  0  0  0  0  0  0  0  0
    1.2929    3.8311   -0.0000 C   0  0  0  0  0  0  0  0  0  0  0  0
    1.2454    2.3366   -0.0000 C   0  0  0  0  0  0  0  0  0  0  0  0
    2.5857    4.5784   -0.0000 C   0  0  0  0  0  0  0  0  0  0  0  0
   -0.0830    1.6250   -0.0000 O   0  0  0  0  0  0  0  0  0  0  0  0
    2.5145    1.5775   -0.0000 O   0  0  0  0  0  0  0  0  0  0  0  0
    3.8667    3.8074   -0.0000 C   0  0  0  0  0  0  0  0  0  0  0  0
    3.8193    2.3129   -0.0000 C   0  0  0  0  0  0  0  0  0  0  0  0
    5.1596    4.5428   -0.0000 C   0  0  0  0  0  0  0  0  0  0  0  0
    5.0884    1.5538   -0.0000 C   0  0  0  0  0  0  0  0  0  0  0  0
    6.4287    3.7837   -0.0000 C   0  0  0  0  0  0  0  0  0  0  0  0
    6.3931    2.2892   -0.0000 C   0  0  0  0  0  0  0  0  0  0  0  0
    7.6741    1.5301   -0.0000 O   0  0  0  0  0  0  0  0  0  0  0  0
    8.9788    2.2655   -0.0000 C   0  0  0  0  0  0  0  0  0  0  0  0
   10.2598    1.5064   -0.0000 C   0  0  0  0  0  0  0  0  0  0  0  0
    8.9907    3.7837   -0.0000 C   0  0  0  0  0  0  0  0  0  0  0  0
   11.5645    2.2417   -0.0000 C   0  0  0  0  0  0  0  0  0  0  0  0
   10.2954    4.5191   -0.0000 C   0  0  0  0  0  0  0  0  0  0  0  0
  1  2  1  0  0  0  0
  2  3  2  0  0  0  0
  2  4  1  0  0  0  0
  3  5  1  0  0  0  0
  3  6  1  0  0  0  0
  4  7  2  0  0  0  0
  5  8  2  0  0  0  0
  6  9  1  0  0  0  0
  6 10  1  0  0  0  0
  6 11  1  0  0  0  0
  7 12  1  0  0  0  0
 10 13  1  0  0  0  0
 11 14  1  0  0  0  0
 13 15  1  0  0  0  0
 13 16  1  0  0  0  0
 14 17  1  0  0  0  0
 15 18  2  0  0  0  0
 16 19  2  0  0  0  0
 17 20  2  0  0  0  0
 17 21  1  0  0  0  0
 21 22  1  0  0  0  0
 21 23  2  0  0  0  0
 22 24  2  0  0  0  0
 22 25  1  0  0  0  0
 23 26  1  0  0  0  0
 25 27  1  0  0  0  0
 26 28  1  0  0  0  0
 27 29  1  0  0  0  0
 28 30  2  0  0  0  0
 29 31  2  0  0  0  0
 31 32  1  0  0  0  0
 32 33  1  0  0  0  0
 33 34  1  0  0  0  0
 33 35  1  0  0  0  0
 34 36  1  0  0  0  0
 35 37  1  0  0  0  0
  7  8  1  0  0  0  0
 18 19  1  0  0  0  0
 26 27  2  0  0  0  0
 30 31  1  0  0  0  0
M  END
>  <MolRegNo>
2389728

>  <m>
=

>  <Value>
332

>  <Unit>
nM

>  <Type>
IC50

>  <pValue>
6.48

>  <Ligand Efficiency>
0

>  <Binding Efficiency>
0

>  <Surface Efficiency>
0

>  <Assay Index>
1270100

>  <Assay Category>


>  <Assay Organism>
Homo sapiens

>  <Target ID>
17045

>  <Target Name>
Cytochrome P450 3A4

>  <Target Organism>
Homo sapiens

>  <Target Description>
Target is a single protein chain

>  <Sequence Accession>
P08684

>  <Reference>


>  <Pubmed ID>
31288127

>  <DOI>
10.1016/j.ejmech.2019.07.003

$$$$
2452723
Actelion Java MolfileCreator 1.0

 37 40  0  0  0  0  0  0  0  0999 V2000
    0.0000   -0.0000   -0.0000 Cl  0  0  0  0  0  0  0  0  0  0  0  0
   -1.3166   -0.7117   -0.0000 C   0  0  0  0  0  0  0  0  0  0  0  0
   -2.6213    0.0712   -0.0000 C   0  0  0  0  0  0  0  0  0  0  0  0
   -1.3522   -2.2062   -0.0000 C   0  0  0  0  0  0  0  0  0  0  0  0
   -3.9497   -0.6405   -0.0000 C   0  0  0  0  0  0  0  0  0  0  0  0
   -2.6094    1.5894   -0.0000 C   0  0  0  0  0  0  0  0  0  0  0  0
   -2.6806   -2.9178   -0.0000 C   0  0  0  0  0  0  0  0  0  0  0  0
   -3.9853   -2.1350   -0.0000 C   0  0  0  0  0  0  0  0  0  0  0  0
   -1.3403    0.8303   -0.0000 O   0  0  0  0  0  0  0  0  0  0  0  0
   -3.9142    2.3722   -0.0000 C   0  0  0  0  0  0  0  0  0  0  0  0
   -1.3047    2.3366   -0.0000 C   0  0  0  0  0  0  0  0  0  0  0  0
   -2.7162   -4.4123   -0.0000 Cl  0  0  0  0  0  0  0  0  0  0  0  0
   -5.2426    1.6605   -0.0000 N   0  0  0  0  0  0  0  0  0  0  0  0
   -1.2929    3.8548   -0.0000 N   0  0  0  0  0  0  0  0  0  0  0  0
   -6.6185    2.3010   -0.0000 C   0  0  0  0  0  0  0  0  0  0  0  0
   -5.4324    0.1779   -0.0000 C   0  0  0  0  0  0  0  0  0  0  0  0
    0.0119    4.5902   -0.0000 C   0  0  0  0  0  0  0  0  0  0  0  0
   -7.6504    1.2098   -0.0000 N   0  0  0  0  0  0  0  0  0  0  0  0
   -6.9150   -0.0949   -0.0000 C   0  0  0  0  0  0  0  0  0  0  0  0
    0.0237    6.1084   -0.0000 O   0  0  0  0  0  0  0  0  0  0  0  0
    1.2929    3.8311   -0.0000 C   0  0  0  0  0  0  0  0  0  0  0  0
    1.2454    2.3366   -0.0000 C   0  0  0  0  0  0  0  0  0  0  0  0
    2.5857    4.5784   -0.0000 C   0  0  0  0  0  0  0  0  0  0  0  0
   -0.0830    1.6250   -0.0000 O   0  0  0  0  0  0  0  0  0  0  0  0
    2.5145    1.5775   -0.0000 O   0  0  0  0  0  0  0  0  0  0  0  0
    3.8667    3.8074   -0.0000 C   0  0  0  0  0  0  0  0  0  0  0  0
    3.8193    2.3129   -0.0000 C   0  0  0  0  0  0  0  0  0  0  0  0
    5.1596    4.5428   -0.0000 C   0  0  0  0  0  0  0  0  0  0  0  0
    5.0884    1.5538   -0.0000 C   0  0  0  0  0  0  0  0  0  0  0  0
    6.4287    3.7837   -0.0000 C   0  0  0  0  0  0  0  0  0  0  0  0
    6.3931    2.2892   -0.0000 C   0  0  0  0  0  0  0  0  0  0  0  0
    7.6741    1.5301   -0.0000 O   0  0  0  0  0  0  0  0  0  0  0  0
    8.9788    2.2655   -0.0000 C   0  0  0  0  0  0  0  0  0  0  0  0
   10.2598    1.5064   -0.0000 C   0  0  0  0  0  0  0  0  0  0  0  0
    8.9907    3.7837   -0.0000 C   0  0  0  0  0  0  0  0  0  0  0  0
   11.5645    2.2417   -0.0000 C   0  0  0  0  0  0  0  0  0  0  0  0
   10.2954    4.5191   -0.0000 C   0  0  0  0  0  0  0  0  0  0  0  0
  1  2  1  0  0  0  0
  2  3  2  0  0  0  0
  2  4  1  0  0  0  0
  3  5  1  0  0  0  0
  3  6  1  0  0  0  0
  4  7  2  0  0  0  0
  5  8  2  0  0  0  0
  6  9  1  0  0  0  0
  6 10  1  0  0  0  0
  6 11  1  0  0  0  0
  7 12  1  0  0  0  0
 10 13  1  0  0  0  0
 11 14  1  0  0  0  0
 13 15  1  0  0  0  0
 13 16  1  0  0  0  0
 14 17  1  0  0  0  0
 15 18  2  0  0  0  0
 16 19  2  0  0  0  0
 17 20  2  0  0  0  0
 17 21  1  0  0  0  0
 21 22  1  0  0  0  0
 21 23  2  0  0  0  0
 22 24  2  0  0  0  0
 22 25  1  0  0  0  0
 23 26  1  0  0  0  0
 25 27  1  0  0  0  0
 26 28  1  0  0  0  0
 27 29  1  0  0  0  0
 28 30  2  0  0  0  0
 29 31  2  0  0  0  0
 31 32  1  0  0  0  0
 32 33  1  0  0  0  0
 33 34  1  0  0  0  0
 33 35  1  0  0  0  0
 34 36  1  0  0  0  0
 35 37  1  0  0  0  0
  7  8  1  0  0  0  0
 18 19  1  0  0  0  0
 26 27  2  0  0  0  0
 30 31  1  0  0  0  0
M  END
>  <MolRegNo>
2452723

>  <m>
=

>  <Value>
251.5

>  <Unit>
nM

>  <Type>
IC50

>  <pValue>
6.6

>  <Ligand Efficiency>
0

>  <Binding Efficiency>
0

>  <Surface Efficiency>
0

>  <Assay Index>
1270100

>  <Assay Category>


>  <Assay Organism>
Homo sapiens

>  <Target ID>
17045

>  <Target Name>
Cytochrome P450 3A4

>  <Target Organism>
Homo sapiens

>  <Target Description>
Target is a single protein chain

>  <Sequence Accession>
P08684

>  <Reference>


>  <Pubmed ID>
31288127

>  <DOI>
10.1016/j.ejmech.2019.07.003

$$$$
2397163
Actelion Java MolfileCreator 1.0

 40 44  0  0  0  0  0  0  0  0999 V2000
    0.0000   -0.0000   -0.0000 S   0  0  0  0  0  0  0  0  0  0  0  0
    0.7239   -1.2816   -0.0000 O   0  0  0  0  0  0  0  0  0  0  0  0
   -0.7595   -1.2816   -0.0000 O   0  0  0  0  0  0  0  0  0  0  0  0
    1.2816    0.7595   -0.0000 N   0  0  0  0  0  0  0  0  0  0  0  0
   -1.3053    0.7476   -0.0000 C   0  0  0  0  0  0  0  0  0  0  0  0
   -2.6107    0.0119   -0.0000 C   0  0  0  0  0  0  0  0  0  0  0  0
   -1.3291    2.2665   -0.0000 C   0  0  0  0  0  0  0  0  0  0  0  0
   -3.9160    0.7713   -0.0000 C   0  0  0  0  0  0  0  0  0  0  0  0
   -2.6344    3.0260   -0.0000 C   0  0  0  0  0  0  0  0  0  0  0  0
   -3.9279    2.2784   -0.0000 C   0  0  0  0  0  0  0  0  0  0  0  0
   -5.2332    3.0379   -0.0000 C   0  0  0  0  0  0  0  0  0  0  0  0
   -6.5386    2.2903   -0.0000 N   0  0  0  0  0  0  0  0  0  0  0  0
   -7.8439    3.0497   -0.0000 C   0  0  0  0  0  0  0  0  0  0  0  0
   -6.5504    0.8069   -0.0000 C   0  0  0  0  0  0  0  0  0  0  0  0
   -9.1492    2.3021   -0.0000 C   0  0  0  0  0  0  0  0  0  0  0  0
   -7.8558    0.0712   -0.0000 C   0  0  0  0  0  0  0  0  0  0  0  0
   -9.1611    0.8188   -0.0000 C   0  0  0  0  0  0  0  0  0  0  0  0
  -10.4665    0.0831   -0.0000 N   0  0  0  0  0  0  0  0  0  0  0  0
  -11.7718    0.8425   -0.0000 C   0  0  0  0  0  0  0  0  0  0  0  0
  -11.7837    2.3615   -0.0000 N   0  0  0  0  0  0  0  0  0  0  0  0
  -13.0890    0.1068   -0.0000 N   0  0  0  0  0  0  0  0  0  0  0  0
  -13.0890    3.1209   -0.0000 C   0  0  0  0  0  0  0  0  0  0  0  0
  -14.3943    0.8663   -0.0000 C   0  0  0  0  0  0  0  0  0  0  0  0
  -13.1127    4.6280   -0.0000 O   0  0  0  0  0  0  0  0  0  0  0  0
  -14.3943    2.3733   -0.0000 C   0  0  0  0  0  0  0  0  0  0  0  0
  -15.8302    0.4153   -0.0000 S   0  0  0  0  0  0  0  0  0  0  0  0
  -11.8311    5.3875   -0.0000 C   0  0  0  0  0  0  0  0  0  0  0  0
  -15.8302    2.8599   -0.0000 C   0  0  0  0  0  0  0  0  0  0  0  0
  -16.7202    1.6376   -0.0000 C   0  0  0  0  0  0  0  0  0  0  0  0
  -10.5495    4.6518   -0.0000 C   0  0  0  0  0  0  0  0  0  0  0  0
  -11.8549    6.8827   -0.0000 C   0  0  0  0  0  0  0  0  0  0  0  0
   -9.2679    5.4112   -0.0000 C   0  0  0  0  0  0  0  0  0  0  0  0
  -10.5614    3.1684   -0.0000 C   0  0  0  0  0  0  0  0  0  0  0  0
  -10.5733    7.6540   -0.0000 C   0  0  0  0  0  0  0  0  0  0  0  0
  -13.1721    7.6303   -0.0000 C   0  0  0  0  0  0  0  0  0  0  0  0
   -9.2916    6.9183   -0.0000 C   0  0  0  0  0  0  0  0  0  0  0  0
   -8.0100    7.6896   -0.0000 C   0  0  0  0  0  0  0  0  0  0  0  0
   -6.7284    6.9539   -0.0000 C   0  0  0  0  0  0  0  0  0  0  0  0
   -5.4468    7.7252   -0.0000 C   0  0  0  0  0  0  0  0  0  0  0  0
   -4.1771    8.4966   -0.0000 N   0  0  0  0  0  0  0  0  0  0  0  0
  1  2  2  0  0  0  0
  1  3  2  0  0  0  0
  1  4  1  0  0  0  0
  1  5  1  0  0  0  0
  5  6  2  0  0  0  0
  5  7  1  0  0  0  0
  6  8  1  0  0  0  0
  7  9  2  0  0  0  0
  8 10  2  0  0  0  0
 10 11  1  0  0  0  0
 11 12  1  0  0  0  0
 12 13  1  0  0  0  0
 12 14  1  0  0  0  0
 13 15  1  0  0  0  0
 14 16  1  0  0  0  0
 15 17  1  0  0  0  0
 17 18  1  0  0  0  0
 18 19  1  0  0  0  0
 19 20  2  0  0  0  0
 19 21  1  0  0  0  0
 20 22  1  0  0  0  0
 21 23  2  0  0  0  0
 22 24  1  0  0  0  0
 22 25  2  0  0  0  0
 23 26  1  0  0  0  0
 24 27  1  0  0  0  0
 25 28  1  0  0  0  0
 26 29  1  0  0  0  0
 27 30  2  0  0  0  0
 27 31  1  0  0  0  0
 30 32  1  0  0  0  0
 30 33  1  0  0  0  0
 31 34  2  0  0  0  0
 31 35  1  0  0  0  0
 32 36  2  0  0  0  0
 36 37  1  0  0  0  0
 37 38  2  0  0  0  0
 38 39  1  0  0  0  0
 39 40  3  0  0  0  0
  9 10  1  0  0  0  0
 16 17  1  0  0  0  0
 23 25  1  0  0  0  0
 28 29  2  0  0  0  0
 34 36  1  0  0  0  0
M  END
>  <MolRegNo>
2397163

>  <m>
=

>  <Value>
7950

>  <Unit>
nM

>  <Type>
IC50

>  <pValue>
5.1

>  <Ligand Efficiency>
0

>  <Binding Efficiency>
0

>  <Surface Efficiency>
0

>  <Assay Index>
1274746

>  <Assay Category>


>  <Assay Organism>
Homo sapiens

>  <Target ID>
17045

>  <Target Name>
Cytochrome P450 3A4

>  <Target Organism>
Homo sapiens

>  <Target Description>
Target is a single protein chain

>  <Sequence Accession>
P08684

>  <Reference>
J Med Chem 63 (9), 4837-4848 (2020)

>  <Pubmed ID>
32293182

>  <DOI>
10.1021/acs.jmedchem.0c00117

$$$$
2234074
Actelion Java MolfileCreator 1.0

 40 44  0  0  0  0  0  0  0  0999 V2000
    0.0000   -0.0000   -0.0000 S   0  0  0  0  0  0  0  0  0  0  0  0
   -0.7685    1.3124   -0.0000 O   0  0  0  0  0  0  0  0  0  0  0  0
    0.7330    1.3124   -0.0000 O   0  0  0  0  0  0  0  0  0  0  0  0
    1.2887   -0.7330   -0.0000 N   0  0  0  0  0  0  0  0  0  0  0  0
   -1.3005   -0.7330   -0.0000 C   0  0  0  0  0  0  0  0  0  0  0  0
   -1.3124   -2.2109   -0.0000 C   0  0  0  0  0  0  0  0  0  0  0  0
   -2.6129    0.0236   -0.0000 C   0  0  0  0  0  0  0  0  0  0  0  0
   -2.6129   -2.9440   -0.0000 C   0  0  0  0  0  0  0  0  0  0  0  0
   -3.9135   -0.7094   -0.0000 C   0  0  0  0  0  0  0  0  0  0  0  0
   -3.9135   -2.1755   -0.0000 C   0  0  0  0  0  0  0  0  0  0  0  0
   -5.2140   -2.9085   -0.0000 C   0  0  0  0  0  0  0  0  0  0  0  0
   -5.2258   -4.3864   -0.0000 N   0  0  0  0  0  0  0  0  0  0  0  0
   -3.9371   -5.1312   -0.0000 C   0  0  0  0  0  0  0  0  0  0  0  0
   -6.5382   -5.1312   -0.0000 C   0  0  0  0  0  0  0  0  0  0  0  0
   -3.9489   -6.6210   -0.0000 C   0  0  0  0  0  0  0  0  0  0  0  0
   -6.5500   -6.6210   -0.0000 C   0  0  0  0  0  0  0  0  0  0  0  0
   -5.2613   -7.3540   -0.0000 C   0  0  0  0  0  0  0  0  0  0  0  0
   -5.2731   -8.8437   -0.0000 N   0  0  0  0  0  0  0  0  0  0  0  0
   -6.5855   -9.5886   -0.0000 C   0  0  0  0  0  0  0  0  0  0  0  0
   -7.8979   -8.8201   -0.0000 N   0  0  0  0  0  0  0  0  0  0  0  0
   -6.5973  -11.0783   -0.0000 N   0  0  0  0  0  0  0  0  0  0  0  0
   -9.2102   -9.5649   -0.0000 C   0  0  0  0  0  0  0  0  0  0  0  0
   -7.9097  -11.8113   -0.0000 C   0  0  0  0  0  0  0  0  0  0  0  0
  -10.5226   -8.7964   -0.0000 O   0  0  0  0  0  0  0  0  0  0  0  0
   -9.2221  -11.0546   -0.0000 C   0  0  0  0  0  0  0  0  0  0  0  0
   -8.2407  -13.2656   -0.0000 C   0  0  0  0  0  0  0  0  0  0  0  0
  -10.5344   -7.2831   -0.0000 C   0  0  0  0  0  0  0  0  0  0  0  0
  -10.3453  -12.0478   -0.0000 S   0  0  0  0  0  0  0  0  0  0  0  0
   -9.7423  -13.4075   -0.0000 C   0  0  0  0  0  0  0  0  0  0  0  0
   -9.2457   -6.5264   -0.0000 C   0  0  0  0  0  0  0  0  0  0  0  0
  -11.8468   -6.5264   -0.0000 C   0  0  0  0  0  0  0  0  0  0  0  0
   -9.2575   -5.0130   -0.0000 C   0  0  0  0  0  0  0  0  0  0  0  0
   -7.9570   -7.2594   -0.0000 C   0  0  0  0  0  0  0  0  0  0  0  0
  -11.8586   -5.0130   -0.0000 C   0  0  0  0  0  0  0  0  0  0  0  0
  -13.1592   -7.2594   -0.0000 C   0  0  0  0  0  0  0  0  0  0  0  0
  -10.5699   -4.2445   -0.0000 C   0  0  0  0  0  0  0  0  0  0  0  0
  -10.5817   -2.7311   -0.0000 C   0  0  0  0  0  0  0  0  0  0  0  0
  -11.8823   -1.9745   -0.0000 C   0  0  0  0  0  0  0  0  0  0  0  0
  -11.8941   -0.4729   -0.0000 C   0  0  0  0  0  0  0  0  0  0  0  0
  -11.9059    1.0286   -0.0000 N   0  0  0  0  0  0  0  0  0  0  0  0
  1  2  2  0  0  0  0
  1  3  2  0  0  0  0
  1  4  1  0  0  0  0
  1  5  1  0  0  0  0
  5  6  2  0  0  0  0
  5  7  1  0  0  0  0
  6  8  1  0  0  0  0
  7  9  2  0  0  0  0
  8 10  2  0  0  0  0
 10 11  1  0  0  0  0
 11 12  1  0  0  0  0
 12 13  1  0  0  0  0
 12 14  1  0  0  0  0
 13 15  1  0  0  0  0
 14 16  1  0  0  0  0
 15 17  1  0  0  0  0
 17 18  1  0  0  0  0
 18 19  1  0  0  0  0
 19 20  2  0  0  0  0
 19 21  1  0  0  0  0
 20 22  1  0  0  0  0
 21 23  2  0  0  0  0
 22 24  1  0  0  0  0
 22 25  2  0  0  0  0
 23 26  1  0  0  0  0
 24 27  1  0  0  0  0
 25 28  1  0  0  0  0
 26 29  2  0  0  0  0
 27 30  2  0  0  0  0
 27 31  1  0  0  0  0
 30 32  1  0  0  0  0
 30 33  1  0  0  0  0
 31 34  2  0  0  0  0
 31 35  1  0  0  0  0
 32 36  2  0  0  0  0
 36 37  1  0  0  0  0
 37 38  2  0  0  0  0
 38 39  1  0  0  0  0
 39 40  3  0  0  0  0
  9 10  1  0  0  0  0
 16 17  1  0  0  0  0
 23 25  1  0  0  0  0
 28 29  1  0  0  0  0
 34 36  1  0  0  0  0
M  END
>  <MolRegNo>
2234074

>  <m>
=

>  <Value>
5920

>  <Unit>
nM

>  <Type>
IC50

>  <pValue>
5.23

>  <Ligand Efficiency>
0

>  <Binding Efficiency>
0

>  <Surface Efficiency>
0

>  <Assay Index>
1274746

>  <Assay Category>


>  <Assay Organism>
Homo sapiens

>  <Target ID>
17045

>  <Target Name>
Cytochrome P450 3A4

>  <Target Organism>
Homo sapiens

>  <Target Description>
Target is a single protein chain

>  <Sequence Accession>
P08684

>  <Reference>
J Med Chem 63 (9), 4837-4848 (2020)

>  <Pubmed ID>
32293182

>  <DOI>
10.1021/acs.jmedchem.0c00117

$$$$
296388
Actelion Java MolfileCreator 1.0

 28 30  0  0  0  0  0  0  0  0999 V2000
    0.0000   -0.0000   -0.0000 N   0  0  0  0  0  0  0  0  0  0  0  0
   -1.3046   -0.7404   -0.0000 C   0  0  0  0  0  0  0  0  0  0  0  0
   -2.6091   -1.4691   -0.0000 C   0  0  0  0  0  0  0  0  0  0  0  0
   -2.6209   -2.9499   -0.0000 C   0  0  0  0  0  0  0  0  0  0  0  0
   -3.9137   -0.7169   -0.0000 C   0  0  0  0  0  0  0  0  0  0  0  0
   -3.9254   -3.6786   -0.0000 C   0  0  0  0  0  0  0  0  0  0  0  0
   -5.2182   -1.4456   -0.0000 C   0  0  0  0  0  0  0  0  0  0  0  0
   -5.2300   -2.9264   -0.0000 C   0  0  0  0  0  0  0  0  0  0  0  0
   -6.5345   -3.6669   -0.0000 N   0  0  0  0  0  0  0  0  0  0  0  0
   -7.8391   -2.9029   -0.0000 C   0  0  0  0  0  0  0  0  0  0  0  0
   -9.1437   -3.6316   -0.0000 N   0  0  0  0  0  0  0  0  0  0  0  0
   -7.8509   -1.3986   -0.0000 N   0  0  0  0  0  0  0  0  0  0  0  0
  -10.4482   -2.8794   -0.0000 C   0  0  0  0  0  0  0  0  0  0  0  0
   -9.1554   -0.6464   -0.0000 C   0  0  0  0  0  0  0  0  0  0  0  0
  -11.7528   -3.6199   -0.0000 N   0  0  0  0  0  0  0  0  0  0  0  0
  -10.4600   -1.3751   -0.0000 C   0  0  0  0  0  0  0  0  0  0  0  0
  -13.0573   -2.8559   -0.0000 C   0  0  0  0  0  0  0  0  0  0  0  0
  -13.0691   -1.3516   -0.0000 C   0  0  0  0  0  0  0  0  0  0  0  0
  -14.3619   -3.5963   -0.0000 C   0  0  0  0  0  0  0  0  0  0  0  0
  -14.3736   -0.5994   -0.0000 C   0  0  0  0  0  0  0  0  0  0  0  0
  -11.7880   -0.5876   -0.0000 C   0  0  0  0  0  0  0  0  0  0  0  0
  -15.6664   -2.8324   -0.0000 C   0  0  0  0  0  0  0  0  0  0  0  0
  -14.3736   -5.0772   -0.0000 C   0  0  0  0  0  0  0  0  0  0  0  0
  -15.6782   -1.3281   -0.0000 C   0  0  0  0  0  0  0  0  0  0  0  0
  -16.9828   -0.5759   -0.0000 C   0  0  0  0  0  0  0  0  0  0  0  0
  -18.2873   -1.3046   -0.0000 C   0  0  0  0  0  0  0  0  0  0  0  0
  -19.5919   -0.5524   -0.0000 C   0  0  0  0  0  0  0  0  0  0  0  0
  -20.8964    0.2115   -0.0000 N   0  0  0  0  0  0  0  0  0  0  0  0
  1  2  3  0  0  0  0
  2  3  1  0  0  0  0
  3  4  2  0  0  0  0
  3  5  1  0  0  0  0
  4  6  1  0  0  0  0
  5  7  2  0  0  0  0
  6  8  2  0  0  0  0
  8  9  1  0  0  0  0
  9 10  1  0  0  0  0
 10 11  2  0  0  0  0
 10 12  1  0  0  0  0
 11 13  1  0  0  0  0
 12 14  2  0  0  0  0
 13 15  1  0  0  0  0
 13 16  2  0  0  0  0
 15 17  1  0  0  0  0
 17 18  2  0  0  0  0
 17 19  1  0  0  0  0
 18 20  1  0  0  0  0
 18 21  1  0  0  0  0
 19 22  2  0  0  0  0
 19 23  1  0  0  0  0
 20 24  2  0  0  0  0
 24 25  1  0  0  0  0
 25 26  2  0  0  0  0
 26 27  1  0  0  0  0
 27 28  3  0  0  0  0
  7  8  1  0  0  0  0
 14 16  1  0  0  0  0
 22 24  1  0  0  0  0
M  END
>  <MolRegNo>
296388

>  <m>
=

>  <Value>
2170

>  <Unit>
nM

>  <Type>
IC50

>  <pValue>
5.66

>  <Ligand Efficiency>
0

>  <Binding Efficiency>
0

>  <Surface Efficiency>
0

>  <Assay Index>
1274746

>  <Assay Category>


>  <Assay Organism>
Homo sapiens

>  <Target ID>
17045

>  <Target Name>
Cytochrome P450 3A4

>  <Target Organism>
Homo sapiens

>  <Target Description>
Target is a single protein chain

>  <Sequence Accession>
P08684

>  <Reference>
J Med Chem 63 (9), 4837-4848 (2020)

>  <Pubmed ID>
32293182

>  <DOI>
10.1021/acs.jmedchem.0c00117

$$$$
2366865
Actelion Java MolfileCreator 1.0

 31 36  0  0  0  0  0  0  0  0999 V2000
    0.0000   -0.0000   -0.0000 F   0  0  0  0  0  0  0  0  0  0  0  0
   -1.3111   -0.7390   -0.0000 C   0  0  0  0  0  0  0  0  0  0  0  0
   -1.3230   -2.2407   -0.0000 C   0  0  0  0  0  0  0  0  0  0  0  0
   -2.6221    0.0238   -0.0000 C   0  0  0  0  0  0  0  0  0  0  0  0
   -2.6460   -2.9797   -0.0000 C   0  0  0  0  0  0  0  0  0  0  0  0
   -0.2145   -3.2419   -0.0000 C   0  0  0  0  0  0  0  0  0  0  0  0
   -3.9332   -0.7151   -0.0000 C   0  0  0  0  0  0  0  0  0  0  0  0
   -2.3480   -4.4457   -0.0000 C   0  0  0  0  0  0  0  0  0  0  0  0
   -3.9570   -2.2169   -0.0000 C   0  0  0  0  0  0  0  0  0  0  0  0
   -0.8462   -4.6006   -0.0000 N   0  0  0  0  0  0  0  0  0  0  0  0
    1.2395   -2.9201   -0.0000 C   0  0  0  0  0  0  0  0  0  0  0  0
   -2.9678   -5.8163   -0.0000 C   0  0  0  0  0  0  0  0  0  0  0  0
   -0.5363   -6.0666   -0.0000 C   0  0  0  0  0  0  0  0  0  0  0  0
    2.2288   -4.0285   -0.0000 C   0  0  0  0  0  0  0  0  0  0  0  0
    1.6925   -1.4779   -0.0000 C   0  0  0  0  0  0  0  0  0  0  0  0
   -1.8593   -6.8175   -0.0000 N   0  0  0  0  0  0  0  0  0  0  0  0
    3.6829   -3.7067   -0.0000 C   0  0  0  0  0  0  0  0  0  0  0  0
    3.1585   -1.1680   -0.0000 C   0  0  0  0  0  0  0  0  0  0  0  0
    4.1477   -2.2646   -0.0000 N   0  0  0  0  0  0  0  0  0  0  0  0
    5.6018   -1.9428   -0.0000 C   0  0  0  0  0  0  0  0  0  0  0  0
    6.5911   -3.0631   -0.0000 C   0  0  0  0  0  0  0  0  0  0  0  0
    6.0547   -0.5125   -0.0000 C   0  0  0  0  0  0  0  0  0  0  0  0
    8.0451   -2.7532   -0.0000 C   0  0  0  0  0  0  0  0  0  0  0  0
    7.5088   -0.1907   -0.0000 C   0  0  0  0  0  0  0  0  0  0  0  0
    8.5100   -1.3111   -0.0000 C   0  0  0  0  0  0  0  0  0  0  0  0
    9.9641   -0.9893   -0.0000 C   0  0  0  0  0  0  0  0  0  0  0  0
   11.0606   -1.9904   -0.0000 C   0  0  0  0  0  0  0  0  0  0  0  0
   10.5719    0.3933   -0.0000 C   0  0  0  0  0  0  0  0  0  0  0  0
   12.3597   -1.2276   -0.0000 N   0  0  0  0  0  0  0  0  0  0  0  0
   12.0498    0.2384   -0.0000 N   0  0  0  0  0  0  0  0  0  0  0  0
   13.0510    1.3587   -0.0000 C   0  0  0  0  0  0  0  0  0  0  0  0
  1  2  1  0  0  0  0
  2  3  2  0  0  0  0
  2  4  1  0  0  0  0
  3  5  1  0  0  0  0
  3  6  1  0  0  0  0
  4  7  2  0  0  0  0
  5  8  1  0  0  0  0
  5  9  2  0  0  0  0
  6 10  1  0  0  0  0
  6 11  1  0  0  0  0
  8 12  2  0  0  0  0
 10 13  1  0  0  0  0
 11 14  1  0  0  0  0
 11 15  1  0  0  0  0
 12 16  1  0  0  0  0
 14 17  1  0  0  0  0
 15 18  1  0  0  0  0
 17 19  1  0  0  0  0
 19 20  1  0  0  0  0
 20 21  2  0  0  0  0
 20 22  1  0  0  0  0
 21 23  1  0  0  0  0
 22 24  2  0  0  0  0
 23 25  2  0  0  0  0
 25 26  1  0  0  0  0
 26 27  1  0  0  0  0
 26 28  2  0  0  0  0
 27 29  2  0  0  0  0
 28 30  1  0  0  0  0
 30 31  1  0  0  0  0
  7  9  1  0  0  0  0
  8 10  1  0  0  0  0
 13 16  2  0  0  0  0
 18 19  1  0  0  0  0
 24 25  1  0  0  0  0
 29 30  1  0  0  0  0
M  END
>  <MolRegNo>
2366865

>  <m>
=

>  <Value>
8400

>  <Unit>
nM

>  <Type>
IC50

>  <pValue>
5.08

>  <Ligand Efficiency>
0

>  <Binding Efficiency>
0

>  <Surface Efficiency>
0

>  <Assay Index>
1275960

>  <Assay Category>


>  <Assay Organism>
Homo sapiens

>  <Target ID>
17045

>  <Target Name>
Cytochrome P450 3A4

>  <Target Organism>
Homo sapiens

>  <Target Description>
Target is a single protein chain

>  <Sequence Accession>
P08684

>  <Reference>
ACS Med Chem Lett 10 (6), 949-953 (2019)

>  <Pubmed ID>
31223453

>  <DOI>
10.1021/acsmedchemlett.9b00114

$$$$
2378623
Actelion Java MolfileCreator 1.0

 32 37  0  0  0  0  0  0  0  0999 V2000
    0.0000   -0.0000   -0.0000 F   0  0  0  0  0  0  0  0  0  0  0  0
    0.9856   -1.1044   -0.0000 C   0  0  0  0  0  0  0  0  0  0  0  0
    0.5106   -2.5056   -0.0000 C   0  0  0  0  0  0  0  0  0  0  0  0
    2.4343   -0.7837   -0.0000 C   0  0  0  0  0  0  0  0  0  0  0  0
   -0.9619   -2.8025   -0.0000 N   0  0  0  0  0  0  0  0  0  0  0  0
    1.4962   -3.6218   -0.0000 C   0  0  0  0  0  0  0  0  0  0  0  0
    3.4318   -1.8881   -0.0000 C   0  0  0  0  0  0  0  0  0  0  0  0
   -1.4487   -4.2156   -0.0000 C   0  0  0  0  0  0  0  0  0  0  0  0
   -1.9712   -1.6743   -0.0000 C   0  0  0  0  0  0  0  0  0  0  0  0
    2.9450   -3.3131   -0.0000 C   0  0  0  0  0  0  0  0  0  0  0  0
    4.8806   -1.5675   -0.0000 C   0  0  0  0  0  0  0  0  0  0  0  0
   -2.9212   -4.5124   -0.0000 C   0  0  0  0  0  0  0  0  0  0  0  0
   -3.4556   -1.9593   -0.0000 C   0  0  0  0  0  0  0  0  0  0  0  0
    5.9730   -2.5650   -0.0000 C   0  0  0  0  0  0  0  0  0  0  0  0
    5.4862   -0.1900   -0.0000 C   0  0  0  0  0  0  0  0  0  0  0  0
   -3.9306   -3.3843   -0.0000 C   0  0  0  0  0  0  0  0  0  0  0  0
    7.2674   -1.8050   -0.0000 N   0  0  0  0  0  0  0  0  0  0  0  0
    6.9586   -0.3444   -0.0000 N   0  0  0  0  0  0  0  0  0  0  0  0
   -5.4030   -3.6812   -0.0000 C   0  0  0  0  0  0  0  0  0  0  0  0
    7.9561    0.7719   -0.0000 C   0  0  0  0  0  0  0  0  0  0  0  0
   -6.0324   -5.0349   -0.0000 N   0  0  0  0  0  0  0  0  0  0  0  0
   -6.5312   -2.6600   -0.0000 C   0  0  0  0  0  0  0  0  0  0  0  0
   -7.5405   -4.8687   -0.0000 C   0  0  0  0  0  0  0  0  0  0  0  0
   -5.7237   -6.4955   -0.0000 C   0  0  0  0  0  0  0  0  0  0  0  0
   -6.5430   -1.1400   -0.0000 C   0  0  0  0  0  0  0  0  0  0  0  0
   -7.8493   -3.3962   -0.0000 C   0  0  0  0  0  0  0  0  0  0  0  0
   -8.1580   -6.2343   -0.0000 C   0  0  0  0  0  0  0  0  0  0  0  0
   -7.0418   -7.2436   -0.0000 N   0  0  0  0  0  0  0  0  0  0  0  0
   -5.2605   -0.3800   -0.0000 F   0  0  0  0  0  0  0  0  0  0  0  0
   -7.8493   -0.3800   -0.0000 C   0  0  0  0  0  0  0  0  0  0  0  0
   -9.1555   -2.6362   -0.0000 C   0  0  0  0  0  0  0  0  0  0  0  0
   -9.1555   -1.1162   -0.0000 C   0  0  0  0  0  0  0  0  0  0  0  0
  1  2  1  0  0  0  0
  2  3  2  0  0  0  0
  2  4  1  0  0  0  0
  3  5  1  0  0  0  0
  3  6  1  0  0  0  0
  4  7  2  0  0  0  0
  5  8  1  0  0  0  0
  5  9  1  0  0  0  0
  6 10  2  0  0  0  0
  7 11  1  0  0  0  0
  8 12  1  0  0  0  0
  9 13  1  0  0  0  0
 11 14  1  0  0  0  0
 11 15  2  0  0  0  0
 12 16  1  0  0  0  0
 14 17  2  0  0  0  0
 15 18  1  0  0  0  0
 16 19  1  0  0  0  0
 18 20  1  0  0  0  0
 19 21  1  0  0  0  0
 19 22  1  0  0  0  0
 21 23  1  0  0  0  0
 21 24  1  0  0  0  0
 22 25  2  0  0  0  0
 22 26  1  0  0  0  0
 23 27  2  0  0  0  0
 24 28  2  0  0  0  0
 25 29  1  0  0  0  0
 25 30  1  0  0  0  0
 26 31  2  0  0  0  0
 30 32  2  0  0  0  0
  7 10  1  0  0  0  0
 13 16  1  0  0  0  0
 17 18  1  0  0  0  0
 23 26  1  0  0  0  0
 27 28  1  0  0  0  0
 31 32  1  0  0  0  0
M  END
>  <MolRegNo>
2378623

>  <m>
=

>  <Value>
350

>  <Unit>
nM

>  <Type>
IC50

>  <pValue>
6.46

>  <Ligand Efficiency>
0

>  <Binding Efficiency>
0

>  <Surface Efficiency>
0

>  <Assay Index>
1275960

>  <Assay Category>


>  <Assay Organism>
Homo sapiens

>  <Target ID>
17045

>  <Target Name>
Cytochrome P450 3A4

>  <Target Organism>
Homo sapiens

>  <Target Description>
Target is a single protein chain

>  <Sequence Accession>
P08684

>  <Reference>
ACS Med Chem Lett 10 (6), 949-953 (2019)

>  <Pubmed ID>
31223453

>  <DOI>
10.1021/acsmedchemlett.9b00114

$$$$
2352818
Actelion Java MolfileCreator 1.0

 32 37  0  0  0  0  0  0  0  0999 V2000
    0.0000   -0.0000   -0.0000 F   0  0  0  0  0  0  0  0  0  0  0  0
   -0.4747   -1.4123   -0.0000 C   0  0  0  0  0  0  0  0  0  0  0  0
    0.5222   -2.5159   -0.0000 C   0  0  0  0  0  0  0  0  0  0  0  0
   -1.9463   -1.7089   -0.0000 C   0  0  0  0  0  0  0  0  0  0  0  0
    1.9700   -2.1955   -0.0000 C   0  0  0  0  0  0  0  0  0  0  0  0
    0.0356   -3.9282   -0.0000 C   0  0  0  0  0  0  0  0  0  0  0  0
   -2.4210   -3.1093   -0.0000 C   0  0  0  0  0  0  0  0  0  0  0  0
    3.0619   -3.1924   -0.0000 C   0  0  0  0  0  0  0  0  0  0  0  0
    2.5753   -0.8189   -0.0000 C   0  0  0  0  0  0  0  0  0  0  0  0
   -1.4360   -4.2130   -0.0000 C   0  0  0  0  0  0  0  0  0  0  0  0
   -3.8926   -3.4060   -0.0000 N   0  0  0  0  0  0  0  0  0  0  0  0
    4.3554   -2.4329   -0.0000 N   0  0  0  0  0  0  0  0  0  0  0  0
    4.0469   -0.9731   -0.0000 N   0  0  0  0  0  0  0  0  0  0  0  0
   -4.3792   -4.8183   -0.0000 C   0  0  0  0  0  0  0  0  0  0  0  0
   -4.9013   -2.2786   -0.0000 C   0  0  0  0  0  0  0  0  0  0  0  0
    5.0438    0.1424   -0.0000 C   0  0  0  0  0  0  0  0  0  0  0  0
   -5.8508   -5.1150   -0.0000 C   0  0  0  0  0  0  0  0  0  0  0  0
   -6.3848   -2.5634   -0.0000 C   0  0  0  0  0  0  0  0  0  0  0  0
   -6.8595   -3.9875   -0.0000 C   0  0  0  0  0  0  0  0  0  0  0  0
   -8.3311   -4.2842   -0.0000 C   0  0  0  0  0  0  0  0  0  0  0  0
   -8.9601   -5.6371   -0.0000 N   0  0  0  0  0  0  0  0  0  0  0  0
   -9.4585   -3.2636   -0.0000 C   0  0  0  0  0  0  0  0  0  0  0  0
  -10.4673   -5.4710   -0.0000 C   0  0  0  0  0  0  0  0  0  0  0  0
   -8.6515   -7.0969   -0.0000 C   0  0  0  0  0  0  0  0  0  0  0  0
   -9.4704   -1.7445   -0.0000 C   0  0  0  0  0  0  0  0  0  0  0  0
  -10.7758   -3.9994   -0.0000 C   0  0  0  0  0  0  0  0  0  0  0  0
  -11.0844   -6.8358   -0.0000 C   0  0  0  0  0  0  0  0  0  0  0  0
   -9.9688   -7.8445   -0.0000 N   0  0  0  0  0  0  0  0  0  0  0  0
   -8.1887   -0.9731   -0.0000 F   0  0  0  0  0  0  0  0  0  0  0  0
  -10.7758   -0.9850   -0.0000 C   0  0  0  0  0  0  0  0  0  0  0  0
  -12.0813   -3.2399   -0.0000 C   0  0  0  0  0  0  0  0  0  0  0  0
  -12.0813   -1.7208   -0.0000 C   0  0  0  0  0  0  0  0  0  0  0  0
  1  2  1  0  0  0  0
  2  3  2  0  0  0  0
  2  4  1  0  0  0  0
  3  5  1  0  0  0  0
  3  6  1  0  0  0  0
  4  7  2  0  0  0  0
  5  8  1  0  0  0  0
  5  9  2  0  0  0  0
  6 10  2  0  0  0  0
  7 11  1  0  0  0  0
  8 12  2  0  0  0  0
  9 13  1  0  0  0  0
 11 14  1  0  0  0  0
 11 15  1  0  0  0  0
 13 16  1  0  0  0  0
 14 17  1  0  0  0  0
 15 18  1  0  0  0  0
 17 19  1  0  0  0  0
 19 20  1  0  0  0  0
 20 21  1  0  0  0  0
 20 22  1  0  0  0  0
 21 23  1  0  0  0  0
 21 24  1  0  0  0  0
 22 25  2  0  0  0  0
 22 26  1  0  0  0  0
 23 27  2  0  0  0  0
 24 28  2  0  0  0  0
 25 29  1  0  0  0  0
 25 30  1  0  0  0  0
 26 31  2  0  0  0  0
 30 32  2  0  0  0  0
  7 10  1  0  0  0  0
 12 13  1  0  0  0  0
 18 19  1  0  0  0  0
 23 26  1  0  0  0  0
 27 28  1  0  0  0  0
 31 32  1  0  0  0  0
M  END
>  <MolRegNo>
2352818

>  <m>
=

>  <Value>
4570

>  <Unit>
nM

>  <Type>
IC50

>  <pValue>
5.34

>  <Ligand Efficiency>
0

>  <Binding Efficiency>
0

>  <Surface Efficiency>
0

>  <Assay Index>
1275960

>  <Assay Category>


>  <Assay Organism>
Homo sapiens

>  <Target ID>
17045

>  <Target Name>
Cytochrome P450 3A4

>  <Target Organism>
Homo sapiens

>  <Target Description>
Target is a single protein chain

>  <Sequence Accession>
P08684

>  <Reference>
ACS Med Chem Lett 10 (6), 949-953 (2019)

>  <Pubmed ID>
31223453

>  <DOI>
10.1021/acsmedchemlett.9b00114

$$$$
2350310
Actelion Java MolfileCreator 1.0

 32 37  0  0  0  0  0  0  0  0999 V2000
    0.0000   -0.0000   -0.0000 F   0  0  0  0  0  0  0  0  0  0  0  0
   -1.3107   -0.7388   -0.0000 C   0  0  0  0  0  0  0  0  0  0  0  0
   -1.3226   -2.2402   -0.0000 C   0  0  0  0  0  0  0  0  0  0  0  0
   -2.6215    0.0238   -0.0000 C   0  0  0  0  0  0  0  0  0  0  0  0
   -2.6453   -2.9789   -0.0000 C   0  0  0  0  0  0  0  0  0  0  0  0
   -0.2145   -3.2411   -0.0000 C   0  0  0  0  0  0  0  0  0  0  0  0
   -3.9322   -0.7149   -0.0000 C   0  0  0  0  0  0  0  0  0  0  0  0
   -2.3474   -4.4446   -0.0000 C   0  0  0  0  0  0  0  0  0  0  0  0
   -3.9560   -2.2163   -0.0000 C   0  0  0  0  0  0  0  0  0  0  0  0
   -0.8460   -4.5995   -0.0000 N   0  0  0  0  0  0  0  0  0  0  0  0
    1.2392   -2.9193   -0.0000 C   0  0  0  0  0  0  0  0  0  0  0  0
   -2.9670   -5.8149   -0.0000 C   0  0  0  0  0  0  0  0  0  0  0  0
   -0.5362   -6.0651   -0.0000 C   0  0  0  0  0  0  0  0  0  0  0  0
    2.2282   -4.0275   -0.0000 C   0  0  0  0  0  0  0  0  0  0  0  0
    1.6920   -1.4775   -0.0000 C   0  0  0  0  0  0  0  0  0  0  0  0
   -1.8588   -6.8158   -0.0000 N   0  0  0  0  0  0  0  0  0  0  0  0
    3.6820   -3.7058   -0.0000 C   0  0  0  0  0  0  0  0  0  0  0  0
    3.1577   -1.1677   -0.0000 C   0  0  0  0  0  0  0  0  0  0  0  0
    4.1467   -2.2640   -0.0000 N   0  0  0  0  0  0  0  0  0  0  0  0
    5.6004   -1.9423   -0.0000 C   0  0  0  0  0  0  0  0  0  0  0  0
    6.0532   -0.5124   -0.0000 C   0  0  0  0  0  0  0  0  0  0  0  0
    6.5894   -3.0623   -0.0000 C   0  0  0  0  0  0  0  0  0  0  0  0
    7.5069   -0.1907   -0.0000 C   0  0  0  0  0  0  0  0  0  0  0  0
    8.0431   -2.7525   -0.0000 C   0  0  0  0  0  0  0  0  0  0  0  0
    8.5078   -1.2988   -0.0000 C   0  0  0  0  0  0  0  0  0  0  0  0
    7.9597    1.2511   -0.0000 C   0  0  0  0  0  0  0  0  0  0  0  0
    9.9615   -0.9771   -0.0000 C   0  0  0  0  0  0  0  0  0  0  0  0
   11.0578   -1.9780   -0.0000 C   0  0  0  0  0  0  0  0  0  0  0  0
   10.5692    0.4051   -0.0000 C   0  0  0  0  0  0  0  0  0  0  0  0
   12.3566   -1.2154   -0.0000 N   0  0  0  0  0  0  0  0  0  0  0  0
   12.0468    0.2502   -0.0000 N   0  0  0  0  0  0  0  0  0  0  0  0
   13.0477    1.3703   -0.0000 C   0  0  0  0  0  0  0  0  0  0  0  0
  1  2  1  0  0  0  0
  2  3  2  0  0  0  0
  2  4  1  0  0  0  0
  3  5  1  0  0  0  0
  3  6  1  0  0  0  0
  4  7  2  0  0  0  0
  5  8  1  0  0  0  0
  5  9  2  0  0  0  0
  6 10  1  0  0  0  0
  6 11  1  0  0  0  0
  8 12  2  0  0  0  0
 10 13  1  0  0  0  0
 11 14  1  0  0  0  0
 11 15  1  0  0  0  0
 12 16  1  0  0  0  0
 14 17  1  0  0  0  0
 15 18  1  0  0  0  0
 17 19  1  0  0  0  0
 19 20  1  0  0  0  0
 20 21  2  0  0  0  0
 20 22  1  0  0  0  0
 21 23  1  0  0  0  0
 22 24  2  0  0  0  0
 23 25  2  0  0  0  0
 23 26  1  0  0  0  0
 25 27  1  0  0  0  0
 27 28  1  0  0  0  0
 27 29  2  0  0  0  0
 28 30  2  0  0  0  0
 29 31  1  0  0  0  0
 31 32  1  0  0  0  0
  7  9  1  0  0  0  0
  8 10  1  0  0  0  0
 13 16  2  0  0  0  0
 18 19  1  0  0  0  0
 24 25  1  0  0  0  0
 30 31  1  0  0  0  0
M  END
>  <MolRegNo>
2350310

>  <m>
=

>  <Value>
210

>  <Unit>
nM

>  <Type>
IC50

>  <pValue>
6.68

>  <Ligand Efficiency>
0

>  <Binding Efficiency>
0

>  <Surface Efficiency>
0

>  <Assay Index>
1275960

>  <Assay Category>


>  <Assay Organism>
Homo sapiens

>  <Target ID>
17045

>  <Target Name>
Cytochrome P450 3A4

>  <Target Organism>
Homo sapiens

>  <Target Description>
Target is a single protein chain

>  <Sequence Accession>
P08684

>  <Reference>
ACS Med Chem Lett 10 (6), 949-953 (2019)

>  <Pubmed ID>
31223453

>  <DOI>
10.1021/acsmedchemlett.9b00114

$$$$
2197822
Actelion Java MolfileCreator 1.0

 23 26  0  0  1  0  0  0  0  0999 V2000
    0.0000   -0.0000   -0.0000 F   0  0  0  0  0  0  0  0  0  0  0  0
   -1.2641   -0.5768   -0.0000 C   0  0  0  0  0  0  0  0  0  0  0  0
   -2.4423    0.3805   -0.0000 C   0  0  0  0  0  0  0  0  0  0  0  0
   -1.5096   -2.0373   -0.0000 C   0  0  0  0  0  0  0  0  0  0  0  0
   -3.8537   -0.1473   -0.0000 C   0  0  0  0  0  0  0  0  0  0  0  0
   -2.6387    1.9514   -0.0000 C   0  0  0  0  0  0  0  0  0  0  0  0
   -2.9210   -2.5651   -0.0000 C   0  0  0  0  0  0  0  0  0  0  0  0
   -4.8601    0.9818   -0.0000 C   0  0  0  0  0  0  0  0  0  0  0  0
   -4.0992   -1.6078   -0.0000 C   0  0  0  0  0  0  0  0  0  0  0  0
   -4.1115    2.2705   -0.0000 N   0  0  0  0  0  0  0  0  0  0  0  0
   -1.3623    2.7123   -0.0000 C   0  0  0  0  0  0  0  0  0  0  0  0
   -6.3452    1.2273   -0.0000 C   0  0  0  0  0  0  0  0  0  0  0  0
   -5.2529    3.3751   -0.0000 C   0  0  0  0  0  0  0  0  0  0  0  0
   -0.0859    1.9760   -0.0000 C   0  0  0  0  0  0  0  0  0  0  0  0
   -6.5906    2.7123   -0.0000 N   0  0  0  0  0  0  0  0  0  0  0  0
    0.5155    0.6259   -0.0000 O   0  0  0  0  0  0  0  0  0  0  0  0
    1.1905    2.7369   -0.0000 C   0  0  0  0  0  0  0  0  0  0  0  0
    2.4301    1.9391   -0.0000 C   0  0  0  0  0  0  0  0  0  0  0  0
    1.2519    4.2465   -0.0000 C   0  0  0  0  0  0  0  0  0  0  0  0
    3.7433    2.6264   -0.0000 C   0  0  0  0  0  0  0  0  0  0  0  0
    2.5773    4.9338   -0.0000 C   0  0  0  0  0  0  0  0  0  0  0  0
    3.8047    4.1360   -0.0000 C   0  0  0  0  0  0  0  0  0  0  0  0
    5.0933    5.0074   -0.0000 O   0  0  0  0  0  0  0  0  0  0  0  0
  1  2  1  0  0  0  0
  2  3  2  0  0  0  0
  2  4  1  0  0  0  0
  3  5  1  0  0  0  0
  3  6  1  0  0  0  0
  4  7  2  0  0  0  0
  5  8  1  0  0  0  0
  5  9  2  0  0  0  0
  6 10  1  0  0  0  0
  6 11  1  1  0  0  0
  8 12  2  0  0  0  0
 10 13  1  0  0  0  0
 11 14  1  0  0  0  0
 12 15  1  0  0  0  0
 14 16  1  6  0  0  0
 14 17  1  0  0  0  0
 17 18  1  6  0  0  0
 17 19  1  0  0  0  0
 18 20  1  0  0  0  0
 19 21  1  0  0  0  0
 20 22  1  0  0  0  0
 22 23  1  1  0  0  0
  7  9  1  0  0  0  0
  8 10  1  0  0  0  0
 13 15  2  0  0  0  0
 21 22  1  0  0  0  0
M  END
>  <MolRegNo>
2197822

>  <m>
=

>  <Value>
2800

>  <Unit>
nM

>  <Type>
IC50

>  <pValue>
5.55

>  <Ligand Efficiency>
0

>  <Binding Efficiency>
0

>  <Surface Efficiency>
0

>  <Assay Index>
1275962

>  <Assay Category>


>  <Assay Organism>
Homo sapiens

>  <Target ID>
17045

>  <Target Name>
Cytochrome P450 3A4

>  <Target Organism>
Homo sapiens

>  <Target Description>
Target is a single protein chain

>  <Sequence Accession>
P08684

>  <Reference>
ACS Med Chem Lett 10 (6), 949-953 (2019)

>  <Pubmed ID>
31223453

>  <DOI>
10.1021/acsmedchemlett.9b00114

$$$$
2462256
Actelion Java MolfileCreator 1.0

 30 34  0  0  0  0  0  0  0  0999 V2000
    0.0000   -0.0000   -0.0000 Cl  0  0  0  0  0  0  0  0  0  0  0  0
   -0.7575    1.3138   -0.0000 C   0  0  0  0  0  0  0  0  0  0  0  0
   -0.0118    2.6158   -0.0000 C   0  0  0  0  0  0  0  0  0  0  0  0
   -2.2725    1.3256   -0.0000 C   0  0  0  0  0  0  0  0  0  0  0  0
   -0.7693    3.9414   -0.0000 C   0  0  0  0  0  0  0  0  0  0  0  0
    1.4795    2.6158   -0.0000 C   0  0  0  0  0  0  0  0  0  0  0  0
   -3.0300    2.6513   -0.0000 C   0  0  0  0  0  0  0  0  0  0  0  0
   -2.2844    3.9651   -0.0000 C   0  0  0  0  0  0  0  0  0  0  0  0
    2.2134    1.3138   -0.0000 C   0  0  0  0  0  0  0  0  0  0  0  0
    2.4856    3.7284   -0.0000 C   0  0  0  0  0  0  0  0  0  0  0  0
    0.7102    1.3256   -0.0000 C   0  0  0  0  0  0  0  0  0  0  0  0
   -4.5451    2.6750   -0.0000 F   0  0  0  0  0  0  0  0  0  0  0  0
    3.6692    1.6215   -0.0000 C   0  0  0  0  0  0  0  0  0  0  0  0
    3.8467    3.1247   -0.0000 N   0  0  0  0  0  0  0  0  0  0  0  0
    5.1369    3.8822   -0.0000 C   0  0  0  0  0  0  0  0  0  0  0  0
    5.5866    5.3263   -0.0000 N   0  0  0  0  0  0  0  0  0  0  0  0
    6.3442    3.0182   -0.0000 N   0  0  0  0  0  0  0  0  0  0  0  0
    7.0780    5.3381   -0.0000 N   0  0  0  0  0  0  0  0  0  0  0  0
    6.3323    1.5269   -0.0000 C   0  0  0  0  0  0  0  0  0  0  0  0
    7.5514    3.9059   -0.0000 C   0  0  0  0  0  0  0  0  0  0  0  0
    5.0185    0.7930   -0.0000 C   0  0  0  0  0  0  0  0  0  0  0  0
    7.6225    0.7930   -0.0000 C   0  0  0  0  0  0  0  0  0  0  0  0
    8.8297    3.1721   -0.0000 C   0  0  0  0  0  0  0  0  0  0  0  0
    5.0067   -0.6983   -0.0000 N   0  0  0  0  0  0  0  0  0  0  0  0
    7.6106   -0.6983   -0.0000 C   0  0  0  0  0  0  0  0  0  0  0  0
   10.1199    3.9296   -0.0000 O   0  0  0  0  0  0  0  0  0  0  0  0
    6.2968   -1.4440   -0.0000 C   0  0  0  0  0  0  0  0  0  0  0  0
   11.4100    3.1839   -0.0000 C   0  0  0  0  0  0  0  0  0  0  0  0
    6.2850   -2.9354   -0.0000 O   0  0  0  0  0  0  0  0  0  0  0  0
    7.5751   -3.6692   -0.0000 C   0  0  0  0  0  0  0  0  0  0  0  0
  1  2  1  0  0  0  0
  2  3  2  0  0  0  0
  2  4  1  0  0  0  0
  3  5  1  0  0  0  0
  6  3  1  1  0  0  0
  4  7  2  0  0  0  0
  5  8  2  0  0  0  0
  6  9  1  0  0  0  0
  6 10  1  0  0  0  0
  6 11  1  0  0  0  0
  7 12  1  0  0  0  0
  9 13  1  6  0  0  0
 10 14  1  0  0  0  0
 14 15  1  0  0  0  0
 15 16  2  0  0  0  0
 15 17  1  0  0  0  0
 16 18  1  0  0  0  0
 17 19  1  0  0  0  0
 17 20  1  0  0  0  0
 19 21  2  0  0  0  0
 19 22  1  0  0  0  0
 20 23  1  0  0  0  0
 21 24  1  0  0  0  0
 22 25  2  0  0  0  0
 23 26  1  0  0  0  0
 24 27  2  0  0  0  0
 26 28  1  0  0  0  0
 27 29  1  0  0  0  0
 29 30  1  0  0  0  0
  7  8  1  0  0  0  0
  9 11  1  0  0  0  0
 13 14  1  0  0  0  0
 18 20  2  0  0  0  0
 25 27  1  0  0  0  0
M  END
>  <MolRegNo>
2462256

>  <m>
=

>  <Value>
20000

>  <Unit>
nM

>  <Type>
IC50

>  <pValue>
4.7

>  <Ligand Efficiency>
0

>  <Binding Efficiency>
0

>  <Surface Efficiency>
0

>  <Assay Index>
1281216

>  <Assay Category>


>  <Assay Organism>
Homo sapiens

>  <Target ID>
17045

>  <Target Name>
Cytochrome P450 3A4

>  <Target Organism>
Homo sapiens

>  <Target Description>
Target is a single protein chain

>  <Sequence Accession>
P08684

>  <Reference>
ACS Med Chem Lett 10 (6), 996-1001 (2019)

>  <Pubmed ID>
31223461

>  <DOI>
10.1021/acsmedchemlett.9b00186

$$$$
1969534
Actelion Java MolfileCreator 1.0

 21 24  0  0  0  0  0  0  0  0999 V2000
    0.0000   -0.0000   -0.0000 O   0  0  0  0  0  0  0  0  0  0  0  0
   -1.0542   -0.6058   -0.0000 C   0  0  0  0  0  0  0  0  0  0  0  0
   -1.0421   -2.1083   -0.0000 C   0  0  0  0  0  0  0  0  0  0  0  0
   -2.3870    0.1454   -0.0000 C   0  0  0  0  0  0  0  0  0  0  0  0
    0.2666   -2.8354   -0.0000 C   0  0  0  0  0  0  0  0  0  0  0  0
   -2.3507   -2.8717   -0.0000 C   0  0  0  0  0  0  0  0  0  0  0  0
   -2.4234    1.6600   -0.0000 C   0  0  0  0  0  0  0  0  0  0  0  0
    0.2787   -4.3379   -0.0000 C   0  0  0  0  0  0  0  0  0  0  0  0
   -2.3386   -4.3742   -0.0000 C   0  0  0  0  0  0  0  0  0  0  0  0
   -1.2480    2.5809   -0.0000 N   0  0  0  0  0  0  0  0  0  0  0  0
   -3.6714    2.5809   -0.0000 C   0  0  0  0  0  0  0  0  0  0  0  0
   -1.0299   -5.1012   -0.0000 C   0  0  0  0  0  0  0  0  0  0  0  0
   -1.7085    3.9865   -0.0000 C   0  0  0  0  0  0  0  0  0  0  0  0
    0.2787    2.5930   -0.0000 C   0  0  0  0  0  0  0  0  0  0  0  0
   -3.2231    3.9865   -0.0000 C   0  0  0  0  0  0  0  0  0  0  0  0
   -5.1739    2.2416   -0.0000 C   0  0  0  0  0  0  0  0  0  0  0  0
   -0.5089    4.9073   -0.0000 C   0  0  0  0  0  0  0  0  0  0  0  0
    0.7270    3.9986   -0.0000 N   0  0  0  0  0  0  0  0  0  0  0  0
   -4.2652    5.1618   -0.0000 C   0  0  0  0  0  0  0  0  0  0  0  0
   -6.2160    3.6351   -0.0000 C   0  0  0  0  0  0  0  0  0  0  0  0
   -5.7434    4.8225   -0.0000 C   0  0  0  0  0  0  0  0  0  0  0  0
  1  2  1  0  0  0  0
  2  3  1  0  0  0  0
  2  4  1  0  0  0  0
  3  5  1  0  0  0  0
  3  6  1  0  0  0  0
  4  7  1  0  0  0  0
  5  8  1  0  0  0  0
  6  9  1  0  0  0  0
  7 10  1  0  0  0  0
  7 11  1  0  0  0  0
  8 12  1  0  0  0  0
 10 13  1  0  0  0  0
 10 14  1  0  0  0  0
 11 15  2  0  0  0  0
 11 16  1  0  0  0  0
 13 17  2  0  0  0  0
 14 18  2  0  0  0  0
 15 19  1  0  0  0  0
 16 20  2  0  0  0  0
 19 21  2  0  0  0  0
  9 12  1  0  0  0  0
 13 15  1  0  0  0  0
 17 18  1  0  0  0  0
 20 21  1  0  0  0  0
M  END
>  <MolRegNo>
1969534

>  <m>
=

>  <Value>
170

>  <Unit>
nM

>  <Type>
IC50

>  <pValue>
6.77

>  <Ligand Efficiency>
0

>  <Binding Efficiency>
0

>  <Surface Efficiency>
0

>  <Assay Index>
1282337

>  <Assay Category>


>  <Assay Organism>
Homo sapiens

>  <Target ID>
17045

>  <Target Name>
Cytochrome P450 3A4

>  <Target Organism>
Homo sapiens

>  <Target Description>
Target is a single protein chain

>  <Sequence Accession>
P08684

>  <Reference>
J Med Chem 62 (14), 6705-6733 (2019)

>  <Pubmed ID>
31264862

>  <DOI>
10.1021/acs.jmedchem.9b00662

$$$$
2436681
Actelion Java MolfileCreator 1.0

 24 27  0  0  0  0  0  0  0  0999 V2000
    0.0000   -0.0000   -0.0000 O   0  0  0  0  0  0  0  0  0  0  0  0
   -0.0118   -1.4802   -0.0000 C   0  0  0  0  0  0  0  0  0  0  0  0
   -1.3144   -2.2262   -0.0000 N   0  0  0  0  0  0  0  0  0  0  0  0
    1.2789   -2.2144   -0.0000 C   0  0  0  0  0  0  0  0  0  0  0  0
   -1.3263   -3.7183   -0.0000 C   0  0  0  0  0  0  0  0  0  0  0  0
   -2.6289   -1.4684   -0.0000 C   0  0  0  0  0  0  0  0  0  0  0  0
   -2.6289   -4.4643   -0.0000 C   0  0  0  0  0  0  0  0  0  0  0  0
   -3.9433   -2.2144   -0.0000 C   0  0  0  0  0  0  0  0  0  0  0  0
   -3.9433   -3.6946   -0.0000 C   0  0  0  0  0  0  0  0  0  0  0  0
   -5.2577   -4.4406   -0.0000 C   0  0  0  0  0  0  0  0  0  0  0  0
   -6.5722   -3.6828   -0.0000 O   0  0  0  0  0  0  0  0  0  0  0  0
   -5.2577   -5.9327   -0.0000 C   0  0  0  0  0  0  0  0  0  0  0  0
   -6.5603   -6.6787   -0.0000 C   0  0  0  0  0  0  0  0  0  0  0  0
   -7.0577   -8.0879   -0.0000 N   0  0  0  0  0  0  0  0  0  0  0  0
   -7.7800   -5.7788   -0.0000 C   0  0  0  0  0  0  0  0  0  0  0  0
   -8.5616   -8.0642   -0.0000 C   0  0  0  0  0  0  0  0  0  0  0  0
   -6.6195   -9.5089   -0.0000 C   0  0  0  0  0  0  0  0  0  0  0  0
   -9.0115   -6.6195   -0.0000 C   0  0  0  0  0  0  0  0  0  0  0  0
   -7.9340   -4.2867   -0.0000 C   0  0  0  0  0  0  0  0  0  0  0  0
   -9.0471   -9.4734   -0.0000 C   0  0  0  0  0  0  0  0  0  0  0  0
   -7.8629  -10.3615   -0.0000 N   0  0  0  0  0  0  0  0  0  0  0  0
  -10.3733   -5.9919   -0.0000 C   0  0  0  0  0  0  0  0  0  0  0  0
   -9.3076   -3.6472   -0.0000 C   0  0  0  0  0  0  0  0  0  0  0  0
  -10.5273   -4.4999   -0.0000 C   0  0  0  0  0  0  0  0  0  0  0  0
  1  2  2  0  0  0  0
  2  3  1  0  0  0  0
  2  4  1  0  0  0  0
  3  5  1  0  0  0  0
  3  6  1  0  0  0  0
  5  7  1  0  0  0  0
  6  8  1  0  0  0  0
  7  9  1  0  0  0  0
  9 10  1  0  0  0  0
 10 11  1  0  0  0  0
 10 12  1  0  0  0  0
 12 13  1  0  0  0  0
 13 14  1  0  0  0  0
 13 15  1  0  0  0  0
 14 16  1  0  0  0  0
 14 17  1  0  0  0  0
 15 18  2  0  0  0  0
 15 19  1  0  0  0  0
 16 20  2  0  0  0  0
 17 21  2  0  0  0  0
 18 22  1  0  0  0  0
 19 23  2  0  0  0  0
 22 24  2  0  0  0  0
  8  9  1  0  0  0  0
 16 18  1  0  0  0  0
 20 21  1  0  0  0  0
 23 24  1  0  0  0  0
M  END
>  <MolRegNo>
2436681

>  <m>
=

>  <Value>
5000

>  <Unit>
nM

>  <Type>
IC50

>  <pValue>
5.3

>  <Ligand Efficiency>
0

>  <Binding Efficiency>
0

>  <Surface Efficiency>
0

>  <Assay Index>
1282337

>  <Assay Category>


>  <Assay Organism>
Homo sapiens

>  <Target ID>
17045

>  <Target Name>
Cytochrome P450 3A4

>  <Target Organism>
Homo sapiens

>  <Target Description>
Target is a single protein chain

>  <Sequence Accession>
P08684

>  <Reference>
J Med Chem 62 (14), 6705-6733 (2019)

>  <Pubmed ID>
31264862

>  <DOI>
10.1021/acs.jmedchem.9b00662

$$$$
2368271
Actelion Java MolfileCreator 1.0

 29 33  0  0  0  0  0  0  0  0999 V2000
    0.0000   -0.0000   -0.0000 O   0  0  0  0  0  0  0  0  0  0  0  0
   -0.0119   -1.4817   -0.0000 C   0  0  0  0  0  0  0  0  0  0  0  0
   -1.3158   -2.2285   -0.0000 N   0  0  0  0  0  0  0  0  0  0  0  0
    1.2802   -2.2167   -0.0000 C   0  0  0  0  0  0  0  0  0  0  0  0
   -1.3276   -3.7221   -0.0000 C   0  0  0  0  0  0  0  0  0  0  0  0
   -2.6316   -1.4699   -0.0000 C   0  0  0  0  0  0  0  0  0  0  0  0
    1.2684   -3.7103   -0.0000 C   0  0  0  0  0  0  0  0  0  0  0  0
    2.5486   -1.4462   -0.0000 C   0  0  0  0  0  0  0  0  0  0  0  0
   -2.6316   -4.4690   -0.0000 C   0  0  0  0  0  0  0  0  0  0  0  0
   -3.9474   -2.2167   -0.0000 C   0  0  0  0  0  0  0  0  0  0  0  0
    2.5486   -4.4452   -0.0000 C   0  0  0  0  0  0  0  0  0  0  0  0
    3.8407   -2.1811   -0.0000 C   0  0  0  0  0  0  0  0  0  0  0  0
   -3.9474   -3.6984   -0.0000 C   0  0  0  0  0  0  0  0  0  0  0  0
    3.8407   -3.6866   -0.0000 C   0  0  0  0  0  0  0  0  0  0  0  0
   -5.2632   -4.4452   -0.0000 C   0  0  0  0  0  0  0  0  0  0  0  0
   -6.5790   -3.6866   -0.0000 O   0  0  0  0  0  0  0  0  0  0  0  0
   -5.2632   -5.9388   -0.0000 C   0  0  0  0  0  0  0  0  0  0  0  0
   -6.5671   -6.6856   -0.0000 C   0  0  0  0  0  0  0  0  0  0  0  0
   -7.0650   -8.0963   -0.0000 N   0  0  0  0  0  0  0  0  0  0  0  0
   -7.7881   -5.7847   -0.0000 C   0  0  0  0  0  0  0  0  0  0  0  0
   -8.5704   -8.0726   -0.0000 C   0  0  0  0  0  0  0  0  0  0  0  0
   -6.6264   -9.5187   -0.0000 C   0  0  0  0  0  0  0  0  0  0  0  0
   -9.0209   -6.6264   -0.0000 C   0  0  0  0  0  0  0  0  0  0  0  0
   -7.9422   -4.2911   -0.0000 C   0  0  0  0  0  0  0  0  0  0  0  0
   -9.0564   -9.4832   -0.0000 C   0  0  0  0  0  0  0  0  0  0  0  0
   -7.8710  -10.3841   -0.0000 N   0  0  0  0  0  0  0  0  0  0  0  0
  -10.3841   -5.9981   -0.0000 C   0  0  0  0  0  0  0  0  0  0  0  0
   -9.3172   -3.6510   -0.0000 C   0  0  0  0  0  0  0  0  0  0  0  0
  -10.5382   -4.5045   -0.0000 C   0  0  0  0  0  0  0  0  0  0  0  0
  1  2  2  0  0  0  0
  2  3  1  0  0  0  0
  2  4  1  0  0  0  0
  3  5  1  0  0  0  0
  3  6  1  0  0  0  0
  4  7  1  0  0  0  0
  4  8  1  0  0  0  0
  5  9  1  0  0  0  0
  6 10  1  0  0  0  0
  7 11  1  0  0  0  0
  8 12  1  0  0  0  0
  9 13  1  0  0  0  0
 11 14  1  0  0  0  0
 13 15  1  0  0  0  0
 15 16  1  0  0  0  0
 15 17  1  0  0  0  0
 17 18  1  0  0  0  0
 18 19  1  0  0  0  0
 18 20  1  0  0  0  0
 19 21  1  0  0  0  0
 19 22  1  0  0  0  0
 20 23  2  0  0  0  0
 20 24  1  0  0  0  0
 21 25  2  0  0  0  0
 22 26  2  0  0  0  0
 23 27  1  0  0  0  0
 24 28  2  0  0  0  0
 27 29  2  0  0  0  0
 10 13  1  0  0  0  0
 12 14  1  0  0  0  0
 21 23  1  0  0  0  0
 25 26  1  0  0  0  0
 28 29  1  0  0  0  0
M  END
>  <MolRegNo>
2368271

>  <m>
=

>  <Value>
700

>  <Unit>
nM

>  <Type>
IC50

>  <pValue>
6.16

>  <Ligand Efficiency>
0

>  <Binding Efficiency>
0

>  <Surface Efficiency>
0

>  <Assay Index>
1282337

>  <Assay Category>


>  <Assay Organism>
Homo sapiens

>  <Target ID>
17045

>  <Target Name>
Cytochrome P450 3A4

>  <Target Organism>
Homo sapiens

>  <Target Description>
Target is a single protein chain

>  <Sequence Accession>
P08684

>  <Reference>
J Med Chem 62 (14), 6705-6733 (2019)

>  <Pubmed ID>
31264862

>  <DOI>
10.1021/acs.jmedchem.9b00662

$$$$
2407750
Actelion Java MolfileCreator 1.0

 30 34  0  0  0  0  0  0  0  0999 V2000
    0.0000   -0.0000   -0.0000 O   0  0  0  0  0  0  0  0  0  0  0  0
   -0.0119   -1.4820   -0.0000 C   0  0  0  0  0  0  0  0  0  0  0  0
   -1.3160   -2.2289   -0.0000 N   0  0  0  0  0  0  0  0  0  0  0  0
    1.2804   -2.2170   -0.0000 C   0  0  0  0  0  0  0  0  0  0  0  0
   -1.3278   -3.7227   -0.0000 C   0  0  0  0  0  0  0  0  0  0  0  0
   -2.6320   -1.4701   -0.0000 C   0  0  0  0  0  0  0  0  0  0  0  0
    2.5608   -1.4464   -0.0000 C   0  0  0  0  0  0  0  0  0  0  0  0
   -2.6320   -4.4696   -0.0000 C   0  0  0  0  0  0  0  0  0  0  0  0
   -3.9480   -2.2170   -0.0000 C   0  0  0  0  0  0  0  0  0  0  0  0
    3.8413   -2.1933   -0.0000 C   0  0  0  0  0  0  0  0  0  0  0  0
    2.5371    0.0474   -0.0000 C   0  0  0  0  0  0  0  0  0  0  0  0
   -3.9480   -3.6990   -0.0000 C   0  0  0  0  0  0  0  0  0  0  0  0
    5.1217   -1.4345   -0.0000 C   0  0  0  0  0  0  0  0  0  0  0  0
    3.8176    0.8180   -0.0000 C   0  0  0  0  0  0  0  0  0  0  0  0
   -5.2640   -4.4459   -0.0000 C   0  0  0  0  0  0  0  0  0  0  0  0
    5.1098    0.0711   -0.0000 C   0  0  0  0  0  0  0  0  0  0  0  0
   -6.5800   -3.6871   -0.0000 O   0  0  0  0  0  0  0  0  0  0  0  0
   -5.2640   -5.9397   -0.0000 C   0  0  0  0  0  0  0  0  0  0  0  0
   -6.5681   -6.6867   -0.0000 C   0  0  0  0  0  0  0  0  0  0  0  0
   -7.0660   -8.0975   -0.0000 N   0  0  0  0  0  0  0  0  0  0  0  0
   -7.7892   -5.7856   -0.0000 C   0  0  0  0  0  0  0  0  0  0  0  0
   -8.5717   -8.0738   -0.0000 C   0  0  0  0  0  0  0  0  0  0  0  0
   -6.6274   -9.5202   -0.0000 C   0  0  0  0  0  0  0  0  0  0  0  0
   -9.0222   -6.6274   -0.0000 C   0  0  0  0  0  0  0  0  0  0  0  0
   -7.9434   -4.2918   -0.0000 C   0  0  0  0  0  0  0  0  0  0  0  0
   -9.0578   -9.4846   -0.0000 C   0  0  0  0  0  0  0  0  0  0  0  0
   -7.8722  -10.3738   -0.0000 N   0  0  0  0  0  0  0  0  0  0  0  0
  -10.3857   -5.9990   -0.0000 C   0  0  0  0  0  0  0  0  0  0  0  0
   -9.3186   -3.6516   -0.0000 C   0  0  0  0  0  0  0  0  0  0  0  0
  -10.5398   -4.5052   -0.0000 C   0  0  0  0  0  0  0  0  0  0  0  0
  1  2  2  0  0  0  0
  2  3  1  0  0  0  0
  2  4  1  0  0  0  0
  3  5  1  0  0  0  0
  3  6  1  0  0  0  0
  4  7  1  0  0  0  0
  5  8  1  0  0  0  0
  6  9  1  0  0  0  0
  7 10  2  0  0  0  0
  7 11  1  0  0  0  0
  8 12  1  0  0  0  0
 10 13  1  0  0  0  0
 11 14  2  0  0  0  0
 12 15  1  0  0  0  0
 13 16  2  0  0  0  0
 15 17  1  0  0  0  0
 15 18  1  0  0  0  0
 18 19  1  0  0  0  0
 19 20  1  0  0  0  0
 19 21  1  0  0  0  0
 20 22  1  0  0  0  0
 20 23  1  0  0  0  0
 21 24  2  0  0  0  0
 21 25  1  0  0  0  0
 22 26  2  0  0  0  0
 23 27  2  0  0  0  0
 24 28  1  0  0  0  0
 25 29  2  0  0  0  0
 28 30  2  0  0  0  0
  9 12  1  0  0  0  0
 14 16  1  0  0  0  0
 22 24  1  0  0  0  0
 26 27  1  0  0  0  0
 29 30  1  0  0  0  0
M  END
>  <MolRegNo>
2407750

>  <m>
=

>  <Value>
130

>  <Unit>
nM

>  <Type>
IC50

>  <pValue>
6.89

>  <Ligand Efficiency>
0

>  <Binding Efficiency>
0

>  <Surface Efficiency>
0

>  <Assay Index>
1282337

>  <Assay Category>


>  <Assay Organism>
Homo sapiens

>  <Target ID>
17045

>  <Target Name>
Cytochrome P450 3A4

>  <Target Organism>
Homo sapiens

>  <Target Description>
Target is a single protein chain

>  <Sequence Accession>
P08684

>  <Reference>
J Med Chem 62 (14), 6705-6733 (2019)

>  <Pubmed ID>
31264862

>  <DOI>
10.1021/acs.jmedchem.9b00662

$$$$
2412673
Actelion Java MolfileCreator 1.0

 31 35  0  0  0  0  0  0  0  0999 V2000
    0.0000   -0.0000   -0.0000 F   0  0  0  0  0  0  0  0  0  0  0  0
   -1.3021   -0.7457   -0.0000 C   0  0  0  0  0  0  0  0  0  0  0  0
   -1.3139   -2.2253   -0.0000 C   0  0  0  0  0  0  0  0  0  0  0  0
   -2.6160    0.0118   -0.0000 C   0  0  0  0  0  0  0  0  0  0  0  0
   -2.6160   -2.9592   -0.0000 C   0  0  0  0  0  0  0  0  0  0  0  0
   -3.9180   -0.7339   -0.0000 C   0  0  0  0  0  0  0  0  0  0  0  0
   -3.9180   -2.1898   -0.0000 C   0  0  0  0  0  0  0  0  0  0  0  0
   -5.2201   -2.9356   -0.0000 C   0  0  0  0  0  0  0  0  0  0  0  0
   -6.5340   -2.1780   -0.0000 C   0  0  0  0  0  0  0  0  0  0  0  0
   -6.5458   -0.6747   -0.0000 O   0  0  0  0  0  0  0  0  0  0  0  0
   -7.8360   -2.9237   -0.0000 N   0  0  0  0  0  0  0  0  0  0  0  0
   -7.8479   -4.4152   -0.0000 C   0  0  0  0  0  0  0  0  0  0  0  0
   -9.1499   -2.1662   -0.0000 C   0  0  0  0  0  0  0  0  0  0  0  0
   -9.1499   -5.1609   -0.0000 C   0  0  0  0  0  0  0  0  0  0  0  0
  -10.4638   -2.9119   -0.0000 C   0  0  0  0  0  0  0  0  0  0  0  0
  -10.4638   -4.3915   -0.0000 C   0  0  0  0  0  0  0  0  0  0  0  0
  -11.7777   -5.1372   -0.0000 C   0  0  0  0  0  0  0  0  0  0  0  0
  -13.0916   -4.3797   -0.0000 O   0  0  0  0  0  0  0  0  0  0  0  0
  -11.7777   -6.6287   -0.0000 C   0  0  0  0  0  0  0  0  0  0  0  0
  -13.0798   -7.3744   -0.0000 C   0  0  0  0  0  0  0  0  0  0  0  0
  -13.5769   -8.7830   -0.0000 N   0  0  0  0  0  0  0  0  0  0  0  0
  -14.2990   -6.4748   -0.0000 C   0  0  0  0  0  0  0  0  0  0  0  0
  -15.0802   -8.7593   -0.0000 C   0  0  0  0  0  0  0  0  0  0  0  0
  -13.1390  -10.2034   -0.0000 C   0  0  0  0  0  0  0  0  0  0  0  0
  -15.5300   -7.3152   -0.0000 C   0  0  0  0  0  0  0  0  0  0  0  0
  -14.4529   -4.9833   -0.0000 C   0  0  0  0  0  0  0  0  0  0  0  0
  -15.5655  -10.1679   -0.0000 C   0  0  0  0  0  0  0  0  0  0  0  0
  -14.3700  -11.0557   -0.0000 N   0  0  0  0  0  0  0  0  0  0  0  0
  -16.8913   -6.6879   -0.0000 C   0  0  0  0  0  0  0  0  0  0  0  0
  -15.8259   -4.3441   -0.0000 C   0  0  0  0  0  0  0  0  0  0  0  0
  -17.0451   -5.1964   -0.0000 C   0  0  0  0  0  0  0  0  0  0  0  0
  1  2  1  0  0  0  0
  2  3  2  0  0  0  0
  2  4  1  0  0  0  0
  3  5  1  0  0  0  0
  4  6  2  0  0  0  0
  5  7  2  0  0  0  0
  7  8  1  0  0  0  0
  8  9  1  0  0  0  0
  9 10  2  0  0  0  0
  9 11  1  0  0  0  0
 11 12  1  0  0  0  0
 11 13  1  0  0  0  0
 12 14  1  0  0  0  0
 13 15  1  0  0  0  0
 14 16  1  0  0  0  0
 16 17  1  0  0  0  0
 17 18  1  0  0  0  0
 17 19  1  0  0  0  0
 19 20  1  0  0  0  0
 20 21  1  0  0  0  0
 20 22  1  0  0  0  0
 21 23  1  0  0  0  0
 21 24  1  0  0  0  0
 22 25  2  0  0  0  0
 22 26  1  0  0  0  0
 23 27  2  0  0  0  0
 24 28  2  0  0  0  0
 25 29  1  0  0  0  0
 26 30  2  0  0  0  0
 29 31  2  0  0  0  0
  6  7  1  0  0  0  0
 15 16  1  0  0  0  0
 23 25  1  0  0  0  0
 27 28  1  0  0  0  0
 30 31  1  0  0  0  0
M  END
>  <MolRegNo>
2412673

>  <m>
=

>  <Value>
60

>  <Unit>
nM

>  <Type>
IC50

>  <pValue>
7.22

>  <Ligand Efficiency>
0

>  <Binding Efficiency>
0

>  <Surface Efficiency>
0

>  <Assay Index>
1282337

>  <Assay Category>


>  <Assay Organism>
Homo sapiens

>  <Target ID>
17045

>  <Target Name>
Cytochrome P450 3A4

>  <Target Organism>
Homo sapiens

>  <Target Description>
Target is a single protein chain

>  <Sequence Accession>
P08684

>  <Reference>
J Med Chem 62 (14), 6705-6733 (2019)

>  <Pubmed ID>
31264862

>  <DOI>
10.1021/acs.jmedchem.9b00662

$$$$
2429880
Actelion Java MolfileCreator 1.0

 30 34  0  0  0  0  0  0  0  0999 V2000
    0.0000   -0.0000   -0.0000 O   0  0  0  0  0  0  0  0  0  0  0  0
   -0.0119   -1.4816   -0.0000 C   0  0  0  0  0  0  0  0  0  0  0  0
   -1.3156   -2.2283   -0.0000 N   0  0  0  0  0  0  0  0  0  0  0  0
    1.2801   -2.2164   -0.0000 C   0  0  0  0  0  0  0  0  0  0  0  0
   -1.3275   -3.7217   -0.0000 C   0  0  0  0  0  0  0  0  0  0  0  0
   -2.6313   -1.4697   -0.0000 C   0  0  0  0  0  0  0  0  0  0  0  0
    2.5601   -1.4460   -0.0000 C   0  0  0  0  0  0  0  0  0  0  0  0
   -2.6313   -4.4684   -0.0000 C   0  0  0  0  0  0  0  0  0  0  0  0
   -3.9469   -2.2164   -0.0000 C   0  0  0  0  0  0  0  0  0  0  0  0
    3.8402   -2.1927   -0.0000 C   0  0  0  0  0  0  0  0  0  0  0  0
    2.5364    0.0474   -0.0000 C   0  0  0  0  0  0  0  0  0  0  0  0
   -3.9469   -3.6980   -0.0000 C   0  0  0  0  0  0  0  0  0  0  0  0
    5.1203   -1.4342   -0.0000 C   0  0  0  0  0  0  0  0  0  0  0  0
    3.8165    0.8178   -0.0000 C   0  0  0  0  0  0  0  0  0  0  0  0
   -5.2625   -4.4447   -0.0000 C   0  0  0  0  0  0  0  0  0  0  0  0
    5.1084    0.0711   -0.0000 N   0  0  0  0  0  0  0  0  0  0  0  0
   -6.5782   -3.6861   -0.0000 O   0  0  0  0  0  0  0  0  0  0  0  0
   -5.2625   -5.9381   -0.0000 C   0  0  0  0  0  0  0  0  0  0  0  0
   -6.5663   -6.6848   -0.0000 C   0  0  0  0  0  0  0  0  0  0  0  0
   -7.0641   -8.0953   -0.0000 N   0  0  0  0  0  0  0  0  0  0  0  0
   -7.7871   -5.7840   -0.0000 C   0  0  0  0  0  0  0  0  0  0  0  0
   -8.5694   -8.0716   -0.0000 C   0  0  0  0  0  0  0  0  0  0  0  0
   -6.6256   -9.5176   -0.0000 C   0  0  0  0  0  0  0  0  0  0  0  0
   -9.0198   -6.6256   -0.0000 C   0  0  0  0  0  0  0  0  0  0  0  0
   -7.9412   -4.2906   -0.0000 C   0  0  0  0  0  0  0  0  0  0  0  0
   -9.0553   -9.4820   -0.0000 C   0  0  0  0  0  0  0  0  0  0  0  0
   -7.8701  -10.3828   -0.0000 N   0  0  0  0  0  0  0  0  0  0  0  0
  -10.3828   -5.9974   -0.0000 C   0  0  0  0  0  0  0  0  0  0  0  0
   -9.3161   -3.6506   -0.0000 C   0  0  0  0  0  0  0  0  0  0  0  0
  -10.5369   -4.5040   -0.0000 C   0  0  0  0  0  0  0  0  0  0  0  0
  1  2  2  0  0  0  0
  2  3  1  0  0  0  0
  2  4  1  0  0  0  0
  3  5  1  0  0  0  0
  3  6  1  0  0  0  0
  4  7  1  0  0  0  0
  5  8  1  0  0  0  0
  6  9  1  0  0  0  0
  7 10  2  0  0  0  0
  7 11  1  0  0  0  0
  8 12  1  0  0  0  0
 10 13  1  0  0  0  0
 11 14  2  0  0  0  0
 12 15  1  0  0  0  0
 13 16  2  0  0  0  0
 15 17  1  0  0  0  0
 15 18  1  0  0  0  0
 18 19  1  0  0  0  0
 19 20  1  0  0  0  0
 19 21  1  0  0  0  0
 20 22  1  0  0  0  0
 20 23  1  0  0  0  0
 21 24  2  0  0  0  0
 21 25  1  0  0  0  0
 22 26  2  0  0  0  0
 23 27  2  0  0  0  0
 24 28  1  0  0  0  0
 25 29  2  0  0  0  0
 28 30  2  0  0  0  0
  9 12  1  0  0  0  0
 14 16  1  0  0  0  0
 22 24  1  0  0  0  0
 26 27  1  0  0  0  0
 29 30  1  0  0  0  0
M  END
>  <MolRegNo>
2429880

>  <m>
=

>  <Value>
3800

>  <Unit>
nM

>  <Type>
IC50

>  <pValue>
5.42

>  <Ligand Efficiency>
0

>  <Binding Efficiency>
0

>  <Surface Efficiency>
0

>  <Assay Index>
1282337

>  <Assay Category>


>  <Assay Organism>
Homo sapiens

>  <Target ID>
17045

>  <Target Name>
Cytochrome P450 3A4

>  <Target Organism>
Homo sapiens

>  <Target Description>
Target is a single protein chain

>  <Sequence Accession>
P08684

>  <Reference>
J Med Chem 62 (14), 6705-6733 (2019)

>  <Pubmed ID>
31264862

>  <DOI>
10.1021/acs.jmedchem.9b00662

$$$$
2380628
Actelion Java MolfileCreator 1.0

 30 34  0  0  0  0  0  0  0  0999 V2000
    0.0000   -0.0000   -0.0000 O   0  0  0  0  0  0  0  0  0  0  0  0
   -0.0119   -1.4820   -0.0000 C   0  0  0  0  0  0  0  0  0  0  0  0
   -1.3160   -2.2289   -0.0000 N   0  0  0  0  0  0  0  0  0  0  0  0
    1.2804   -2.2170   -0.0000 C   0  0  0  0  0  0  0  0  0  0  0  0
   -1.3278   -3.7227   -0.0000 C   0  0  0  0  0  0  0  0  0  0  0  0
   -2.6320   -1.4701   -0.0000 C   0  0  0  0  0  0  0  0  0  0  0  0
    2.5608   -1.4464   -0.0000 C   0  0  0  0  0  0  0  0  0  0  0  0
   -2.6320   -4.4696   -0.0000 C   0  0  0  0  0  0  0  0  0  0  0  0
   -3.9480   -2.2170   -0.0000 C   0  0  0  0  0  0  0  0  0  0  0  0
    3.8413   -2.1933   -0.0000 C   0  0  0  0  0  0  0  0  0  0  0  0
    2.5371    0.0474   -0.0000 C   0  0  0  0  0  0  0  0  0  0  0  0
   -3.9480   -3.6990   -0.0000 C   0  0  0  0  0  0  0  0  0  0  0  0
    5.1217   -1.4345   -0.0000 N   0  0  0  0  0  0  0  0  0  0  0  0
    3.8176    0.8180   -0.0000 N   0  0  0  0  0  0  0  0  0  0  0  0
   -5.2640   -4.4459   -0.0000 C   0  0  0  0  0  0  0  0  0  0  0  0
    5.1098    0.0711   -0.0000 C   0  0  0  0  0  0  0  0  0  0  0  0
   -6.5800   -3.6871   -0.0000 O   0  0  0  0  0  0  0  0  0  0  0  0
   -5.2640   -5.9397   -0.0000 C   0  0  0  0  0  0  0  0  0  0  0  0
   -6.5681   -6.6867   -0.0000 C   0  0  0  0  0  0  0  0  0  0  0  0
   -7.0660   -8.0975   -0.0000 N   0  0  0  0  0  0  0  0  0  0  0  0
   -7.7892   -5.7856   -0.0000 C   0  0  0  0  0  0  0  0  0  0  0  0
   -8.5717   -8.0738   -0.0000 C   0  0  0  0  0  0  0  0  0  0  0  0
   -6.6274   -9.5202   -0.0000 C   0  0  0  0  0  0  0  0  0  0  0  0
   -9.0222   -6.6274   -0.0000 C   0  0  0  0  0  0  0  0  0  0  0  0
   -7.9434   -4.2918   -0.0000 C   0  0  0  0  0  0  0  0  0  0  0  0
   -9.0578   -9.4846   -0.0000 C   0  0  0  0  0  0  0  0  0  0  0  0
   -7.8722  -10.3738   -0.0000 N   0  0  0  0  0  0  0  0  0  0  0  0
  -10.3857   -5.9990   -0.0000 C   0  0  0  0  0  0  0  0  0  0  0  0
   -9.3186   -3.6516   -0.0000 C   0  0  0  0  0  0  0  0  0  0  0  0
  -10.5398   -4.5052   -0.0000 C   0  0  0  0  0  0  0  0  0  0  0  0
  1  2  2  0  0  0  0
  2  3  1  0  0  0  0
  2  4  1  0  0  0  0
  3  5  1  0  0  0  0
  3  6  1  0  0  0  0
  4  7  1  0  0  0  0
  5  8  1  0  0  0  0
  6  9  1  0  0  0  0
  7 10  2  0  0  0  0
  7 11  1  0  0  0  0
  8 12  1  0  0  0  0
 10 13  1  0  0  0  0
 11 14  2  0  0  0  0
 12 15  1  0  0  0  0
 13 16  2  0  0  0  0
 15 17  1  0  0  0  0
 15 18  1  0  0  0  0
 18 19  1  0  0  0  0
 19 20  1  0  0  0  0
 19 21  1  0  0  0  0
 20 22  1  0  0  0  0
 20 23  1  0  0  0  0
 21 24  2  0  0  0  0
 21 25  1  0  0  0  0
 22 26  2  0  0  0  0
 23 27  2  0  0  0  0
 24 28  1  0  0  0  0
 25 29  2  0  0  0  0
 28 30  2  0  0  0  0
  9 12  1  0  0  0  0
 14 16  1  0  0  0  0
 22 24  1  0  0  0  0
 26 27  1  0  0  0  0
 29 30  1  0  0  0  0
M  END
>  <MolRegNo>
2380628

>  <m>
=

>  <Value>
8600

>  <Unit>
nM

>  <Type>
IC50

>  <pValue>
5.07

>  <Ligand Efficiency>
0

>  <Binding Efficiency>
0

>  <Surface Efficiency>
0

>  <Assay Index>
1282337

>  <Assay Category>


>  <Assay Organism>
Homo sapiens

>  <Target ID>
17045

>  <Target Name>
Cytochrome P450 3A4

>  <Target Organism>
Homo sapiens

>  <Target Description>
Target is a single protein chain

>  <Sequence Accession>
P08684

>  <Reference>
J Med Chem 62 (14), 6705-6733 (2019)

>  <Pubmed ID>
31264862

>  <DOI>
10.1021/acs.jmedchem.9b00662

$$$$
2447871
Actelion Java MolfileCreator 1.0

 30 34  0  0  0  0  0  0  0  0999 V2000
    0.0000   -0.0000   -0.0000 O   0  0  0  0  0  0  0  0  0  0  0  0
   -0.0119   -1.4820   -0.0000 C   0  0  0  0  0  0  0  0  0  0  0  0
   -1.3160   -2.2289   -0.0000 N   0  0  0  0  0  0  0  0  0  0  0  0
    1.2804   -2.2170   -0.0000 N   0  0  0  0  0  0  0  0  0  0  0  0
   -1.3278   -3.7227   -0.0000 C   0  0  0  0  0  0  0  0  0  0  0  0
   -2.6320   -1.4701   -0.0000 C   0  0  0  0  0  0  0  0  0  0  0  0
    2.5608   -1.4464   -0.0000 C   0  0  0  0  0  0  0  0  0  0  0  0
   -2.6320   -4.4696   -0.0000 C   0  0  0  0  0  0  0  0  0  0  0  0
   -3.9480   -2.2170   -0.0000 C   0  0  0  0  0  0  0  0  0  0  0  0
    3.8413   -2.1933   -0.0000 C   0  0  0  0  0  0  0  0  0  0  0  0
    2.5371    0.0474   -0.0000 C   0  0  0  0  0  0  0  0  0  0  0  0
   -3.9480   -3.6990   -0.0000 C   0  0  0  0  0  0  0  0  0  0  0  0
    5.1217   -1.4345   -0.0000 C   0  0  0  0  0  0  0  0  0  0  0  0
    3.8176    0.8180   -0.0000 C   0  0  0  0  0  0  0  0  0  0  0  0
   -5.2640   -4.4459   -0.0000 C   0  0  0  0  0  0  0  0  0  0  0  0
    5.1098    0.0711   -0.0000 C   0  0  0  0  0  0  0  0  0  0  0  0
   -6.5800   -3.6871   -0.0000 O   0  0  0  0  0  0  0  0  0  0  0  0
   -5.2640   -5.9397   -0.0000 C   0  0  0  0  0  0  0  0  0  0  0  0
   -6.5681   -6.6867   -0.0000 C   0  0  0  0  0  0  0  0  0  0  0  0
   -7.0660   -8.0975   -0.0000 N   0  0  0  0  0  0  0  0  0  0  0  0
   -7.7892   -5.7856   -0.0000 C   0  0  0  0  0  0  0  0  0  0  0  0
   -8.5717   -8.0738   -0.0000 C   0  0  0  0  0  0  0  0  0  0  0  0
   -6.6274   -9.5202   -0.0000 C   0  0  0  0  0  0  0  0  0  0  0  0
   -9.0222   -6.6274   -0.0000 C   0  0  0  0  0  0  0  0  0  0  0  0
   -7.9434   -4.2918   -0.0000 C   0  0  0  0  0  0  0  0  0  0  0  0
   -9.0578   -9.4846   -0.0000 C   0  0  0  0  0  0  0  0  0  0  0  0
   -7.8722  -10.3738   -0.0000 N   0  0  0  0  0  0  0  0  0  0  0  0
  -10.3857   -5.9990   -0.0000 C   0  0  0  0  0  0  0  0  0  0  0  0
   -9.3186   -3.6516   -0.0000 C   0  0  0  0  0  0  0  0  0  0  0  0
  -10.5398   -4.5052   -0.0000 C   0  0  0  0  0  0  0  0  0  0  0  0
  1  2  2  0  0  0  0
  2  3  1  0  0  0  0
  2  4  1  0  0  0  0
  3  5  1  0  0  0  0
  3  6  1  0  0  0  0
  4  7  1  0  0  0  0
  5  8  1  0  0  0  0
  6  9  1  0  0  0  0
  7 10  2  0  0  0  0
  7 11  1  0  0  0  0
  8 12  1  0  0  0  0
 10 13  1  0  0  0  0
 11 14  2  0  0  0  0
 12 15  1  0  0  0  0
 13 16  2  0  0  0  0
 15 17  1  0  0  0  0
 15 18  1  0  0  0  0
 18 19  1  0  0  0  0
 19 20  1  0  0  0  0
 19 21  1  0  0  0  0
 20 22  1  0  0  0  0
 20 23  1  0  0  0  0
 21 24  2  0  0  0  0
 21 25  1  0  0  0  0
 22 26  2  0  0  0  0
 23 27  2  0  0  0  0
 24 28  1  0  0  0  0
 25 29  2  0  0  0  0
 28 30  2  0  0  0  0
  9 12  1  0  0  0  0
 14 16  1  0  0  0  0
 22 24  1  0  0  0  0
 26 27  1  0  0  0  0
 29 30  1  0  0  0  0
M  END
>  <MolRegNo>
2447871

>  <m>
=

>  <Value>
510

>  <Unit>
nM

>  <Type>
IC50

>  <pValue>
6.29

>  <Ligand Efficiency>
0

>  <Binding Efficiency>
0

>  <Surface Efficiency>
0

>  <Assay Index>
1282337

>  <Assay Category>


>  <Assay Organism>
Homo sapiens

>  <Target ID>
17045

>  <Target Name>
Cytochrome P450 3A4

>  <Target Organism>
Homo sapiens

>  <Target Description>
Target is a single protein chain

>  <Sequence Accession>
P08684

>  <Reference>
J Med Chem 62 (14), 6705-6733 (2019)

>  <Pubmed ID>
31264862

>  <DOI>
10.1021/acs.jmedchem.9b00662

$$$$
2059218
Actelion Java MolfileCreator 1.0

 22 25  0  0  0  0  0  0  0  0999 V2000
    0.0000   -0.0000   -0.0000 F   0  0  0  0  0  0  0  0  0  0  0  0
    0.4047    1.1652   -0.0000 C   0  0  0  0  0  0  0  0  0  0  0  0
    1.9011    1.5331   -0.0000 C   0  0  0  0  0  0  0  0  0  0  0  0
   -0.6501    2.5757   -0.0000 C   0  0  0  0  0  0  0  0  0  0  0  0
    2.3549    2.9559   -0.0000 C   0  0  0  0  0  0  0  0  0  0  0  0
    3.1399    0.6255   -0.0000 C   0  0  0  0  0  0  0  0  0  0  0  0
   -0.1717    3.7899   -0.0000 C   0  0  0  0  0  0  0  0  0  0  0  0
    3.8758    2.9682   -0.0000 C   0  0  0  0  0  0  0  0  0  0  0  0
    1.3001    4.1456   -0.0000 C   0  0  0  0  0  0  0  0  0  0  0  0
    4.3296    1.5577   -0.0000 N   0  0  0  0  0  0  0  0  0  0  0  0
    3.1521   -0.8831   -0.0000 C   0  0  0  0  0  0  0  0  0  0  0  0
    5.0900    3.9003   -0.0000 C   0  0  0  0  0  0  0  0  0  0  0  0
    5.8750    1.5699   -0.0000 C   0  0  0  0  0  0  0  0  0  0  0  0
    4.4768   -1.6190   -0.0000 C   0  0  0  0  0  0  0  0  0  0  0  0
    6.3288    2.9927   -0.0000 N   0  0  0  0  0  0  0  0  0  0  0  0
    5.5193   -0.9812   -0.0000 O   0  0  0  0  0  0  0  0  0  0  0  0
    4.4890   -3.1399   -0.0000 C   0  0  0  0  0  0  0  0  0  0  0  0
    5.8137   -3.8758   -0.0000 C   0  0  0  0  0  0  0  0  0  0  0  0
    3.1644   -3.9126   -0.0000 C   0  0  0  0  0  0  0  0  0  0  0  0
    5.8259   -5.3967   -0.0000 C   0  0  0  0  0  0  0  0  0  0  0  0
    3.1767   -5.4335   -0.0000 C   0  0  0  0  0  0  0  0  0  0  0  0
    4.5013   -6.1694   -0.0000 C   0  0  0  0  0  0  0  0  0  0  0  0
  1  2  1  0  0  0  0
  2  3  2  0  0  0  0
  2  4  1  0  0  0  0
  3  5  1  0  0  0  0
  3  6  1  0  0  0  0
  4  7  2  0  0  0  0
  5  8  1  0  0  0  0
  5  9  2  0  0  0  0
  6 10  1  0  0  0  0
  6 11  1  0  0  0  0
  8 12  2  0  0  0  0
 10 13  1  0  0  0  0
 11 14  1  0  0  0  0
 12 15  1  0  0  0  0
 14 16  1  0  0  0  0
 14 17  1  0  0  0  0
 17 18  1  0  0  0  0
 17 19  1  0  0  0  0
 18 20  1  0  0  0  0
 19 21  1  0  0  0  0
 20 22  1  0  0  0  0
  7  9  1  0  0  0  0
  8 10  1  0  0  0  0
 13 15  2  0  0  0  0
 21 22  1  0  0  0  0
M  END
>  <MolRegNo>
2059218

>  <m>
=

>  <Value>
2000

>  <Unit>
nM

>  <Type>
IC50

>  <pValue>
5.7

>  <Ligand Efficiency>
0

>  <Binding Efficiency>
0

>  <Surface Efficiency>
0

>  <Assay Index>
1282337

>  <Assay Category>


>  <Assay Organism>
Homo sapiens

>  <Target ID>
17045

>  <Target Name>
Cytochrome P450 3A4

>  <Target Organism>
Homo sapiens

>  <Target Description>
Target is a single protein chain

>  <Sequence Accession>
P08684

>  <Reference>
J Med Chem 62 (14), 6705-6733 (2019)

>  <Pubmed ID>
31264862

>  <DOI>
10.1021/acs.jmedchem.9b00662

$$$$
2422438
Actelion Java MolfileCreator 1.0

 22 25  0  0  0  0  0  0  0  0999 V2000
    0.0000   -0.0000   -0.0000 Cl  0  0  0  0  0  0  0  0  0  0  0  0
   -1.2371   -0.8564   -0.0000 C   0  0  0  0  0  0  0  0  0  0  0  0
   -1.1062   -2.3314   -0.0000 C   0  0  0  0  0  0  0  0  0  0  0  0
   -2.6169   -0.2141   -0.0000 C   0  0  0  0  0  0  0  0  0  0  0  0
   -2.3552   -3.1878   -0.0000 C   0  0  0  0  0  0  0  0  0  0  0  0
    0.0952   -3.2116   -0.0000 C   0  0  0  0  0  0  0  0  0  0  0  0
   -3.8658   -1.0705   -0.0000 C   0  0  0  0  0  0  0  0  0  0  0  0
   -1.9151   -4.6152   -0.0000 C   0  0  0  0  0  0  0  0  0  0  0  0
   -3.7112   -2.5455   -0.0000 C   0  0  0  0  0  0  0  0  0  0  0  0
   -0.3925   -4.6271   -0.0000 N   0  0  0  0  0  0  0  0  0  0  0  0
    1.5820   -3.1878   -0.0000 C   0  0  0  0  0  0  0  0  0  0  0  0
   -2.4147   -6.0307   -0.0000 C   0  0  0  0  0  0  0  0  0  0  0  0
    0.0476   -6.0545   -0.0000 C   0  0  0  0  0  0  0  0  0  0  0  0
    2.3314   -4.4725   -0.0000 C   0  0  0  0  0  0  0  0  0  0  0  0
   -1.2133   -6.9228   -0.0000 N   0  0  0  0  0  0  0  0  0  0  0  0
    1.5701   -5.7690   -0.0000 O   0  0  0  0  0  0  0  0  0  0  0  0
    3.8301   -4.4487   -0.0000 C   0  0  0  0  0  0  0  0  0  0  0  0
    4.5676   -5.7333   -0.0000 C   0  0  0  0  0  0  0  0  0  0  0  0
    4.5557   -3.1283   -0.0000 C   0  0  0  0  0  0  0  0  0  0  0  0
    6.0545   -5.7214   -0.0000 C   0  0  0  0  0  0  0  0  0  0  0  0
    6.0545   -3.1164   -0.0000 C   0  0  0  0  0  0  0  0  0  0  0  0
    6.8038   -4.4130   -0.0000 C   0  0  0  0  0  0  0  0  0  0  0  0
  1  2  1  0  0  0  0
  2  3  2  0  0  0  0
  2  4  1  0  0  0  0
  3  5  1  0  0  0  0
  3  6  1  0  0  0  0
  4  7  2  0  0  0  0
  5  8  1  0  0  0  0
  5  9  2  0  0  0  0
  6 10  1  0  0  0  0
  6 11  1  0  0  0  0
  8 12  2  0  0  0  0
 10 13  1  0  0  0  0
 11 14  1  0  0  0  0
 12 15  1  0  0  0  0
 14 16  1  0  0  0  0
 14 17  1  0  0  0  0
 17 18  1  0  0  0  0
 17 19  1  0  0  0  0
 18 20  1  0  0  0  0
 19 21  1  0  0  0  0
 20 22  1  0  0  0  0
  7  9  1  0  0  0  0
  8 10  1  0  0  0  0
 13 15  2  0  0  0  0
 21 22  1  0  0  0  0
M  END
>  <MolRegNo>
2422438

>  <m>
=

>  <Value>
1700

>  <Unit>
nM

>  <Type>
IC50

>  <pValue>
5.77

>  <Ligand Efficiency>
0

>  <Binding Efficiency>
0

>  <Surface Efficiency>
0

>  <Assay Index>
1282337

>  <Assay Category>


>  <Assay Organism>
Homo sapiens

>  <Target ID>
17045

>  <Target Name>
Cytochrome P450 3A4

>  <Target Organism>
Homo sapiens

>  <Target Description>
Target is a single protein chain

>  <Sequence Accession>
P08684

>  <Reference>
J Med Chem 62 (14), 6705-6733 (2019)

>  <Pubmed ID>
31264862

>  <DOI>
10.1021/acs.jmedchem.9b00662

$$$$
2416480
Actelion Java MolfileCreator 1.0

 22 25  0  0  0  0  0  0  0  0999 V2000
    0.0000   -0.0000   -0.0000 Cl  0  0  0  0  0  0  0  0  0  0  0  0
    0.1311   -1.4893   -0.0000 C   0  0  0  0  0  0  0  0  0  0  0  0
    1.4893   -2.1089   -0.0000 C   0  0  0  0  0  0  0  0  0  0  0  0
   -1.1200   -2.3591   -0.0000 C   0  0  0  0  0  0  0  0  0  0  0  0
    1.6204   -3.5862   -0.0000 C   0  0  0  0  0  0  0  0  0  0  0  0
   -0.9770   -3.8364   -0.0000 C   0  0  0  0  0  0  0  0  0  0  0  0
    0.3693   -4.4322   -0.0000 C   0  0  0  0  0  0  0  0  0  0  0  0
    2.8237   -4.4560   -0.0000 C   0  0  0  0  0  0  0  0  0  0  0  0
    0.8102   -5.8619   -0.0000 C   0  0  0  0  0  0  0  0  0  0  0  0
    2.3352   -5.8738   -0.0000 N   0  0  0  0  0  0  0  0  0  0  0  0
    4.3130   -4.4322   -0.0000 C   0  0  0  0  0  0  0  0  0  0  0  0
    0.3098   -7.2797   -0.0000 C   0  0  0  0  0  0  0  0  0  0  0  0
    2.7761   -7.3035   -0.0000 C   0  0  0  0  0  0  0  0  0  0  0  0
    5.0636   -5.7189   -0.0000 C   0  0  0  0  0  0  0  0  0  0  0  0
    1.5131   -8.1733   -0.0000 N   0  0  0  0  0  0  0  0  0  0  0  0
    4.3011   -7.0176   -0.0000 O   0  0  0  0  0  0  0  0  0  0  0  0
    6.5648   -5.6951   -0.0000 C   0  0  0  0  0  0  0  0  0  0  0  0
    7.3035   -6.9938   -0.0000 C   0  0  0  0  0  0  0  0  0  0  0  0
    7.2916   -4.3726   -0.0000 C   0  0  0  0  0  0  0  0  0  0  0  0
    8.7928   -6.9818   -0.0000 C   0  0  0  0  0  0  0  0  0  0  0  0
    8.7928   -4.3607   -0.0000 C   0  0  0  0  0  0  0  0  0  0  0  0
    9.5434   -5.6593   -0.0000 C   0  0  0  0  0  0  0  0  0  0  0  0
  1  2  1  0  0  0  0
  2  3  2  0  0  0  0
  2  4  1  0  0  0  0
  3  5  1  0  0  0  0
  4  6  2  0  0  0  0
  5  7  2  0  0  0  0
  5  8  1  0  0  0  0
  7  9  1  0  0  0  0
  8 10  1  0  0  0  0
  8 11  1  0  0  0  0
  9 12  2  0  0  0  0
 10 13  1  0  0  0  0
 11 14  1  0  0  0  0
 12 15  1  0  0  0  0
 14 16  1  0  0  0  0
 14 17  1  0  0  0  0
 17 18  1  0  0  0  0
 17 19  1  0  0  0  0
 18 20  1  0  0  0  0
 19 21  1  0  0  0  0
 20 22  1  0  0  0  0
  6  7  1  0  0  0  0
  9 10  1  0  0  0  0
 13 15  2  0  0  0  0
 21 22  1  0  0  0  0
M  END
>  <MolRegNo>
2416480

>  <m>
=

>  <Value>
10

>  <Unit>
nM

>  <Type>
IC50

>  <pValue>
8

>  <Ligand Efficiency>
0

>  <Binding Efficiency>
0

>  <Surface Efficiency>
0

>  <Assay Index>
1282337

>  <Assay Category>


>  <Assay Organism>
Homo sapiens

>  <Target ID>
17045

>  <Target Name>
Cytochrome P450 3A4

>  <Target Organism>
Homo sapiens

>  <Target Description>
Target is a single protein chain

>  <Sequence Accession>
P08684

>  <Reference>
J Med Chem 62 (14), 6705-6733 (2019)

>  <Pubmed ID>
31264862

>  <DOI>
10.1021/acs.jmedchem.9b00662

$$$$
2440720
Actelion Java MolfileCreator 1.0

 23 26  0  0  0  0  0  0  0  0999 V2000
    0.0000   -0.0000   -0.0000 F   0  0  0  0  0  0  0  0  0  0  0  0
   -1.3003   -0.7447   -0.0000 C   0  0  0  0  0  0  0  0  0  0  0  0
   -0.0118   -1.4658   -0.0000 F   0  0  0  0  0  0  0  0  0  0  0  0
   -2.0568   -2.0213   -0.0000 C   0  0  0  0  0  0  0  0  0  0  0  0
   -2.0568    0.5674   -0.0000 C   0  0  0  0  0  0  0  0  0  0  0  0
   -3.5580   -2.0095   -0.0000 C   0  0  0  0  0  0  0  0  0  0  0  0
   -3.5699    0.5792   -0.0000 C   0  0  0  0  0  0  0  0  0  0  0  0
   -4.3146   -0.7092   -0.0000 C   0  0  0  0  0  0  0  0  0  0  0  0
   -5.8276   -0.7092   -0.0000 C   0  0  0  0  0  0  0  0  0  0  0  0
   -6.5841   -1.9859   -0.0000 O   0  0  0  0  0  0  0  0  0  0  0  0
   -6.5841    0.5910   -0.0000 C   0  0  0  0  0  0  0  0  0  0  0  0
   -8.0854    0.5910   -0.0000 C   0  0  0  0  0  0  0  0  0  0  0  0
   -8.5819   -0.8156   -0.0000 N   0  0  0  0  0  0  0  0  0  0  0  0
   -9.3029    1.4894   -0.0000 C   0  0  0  0  0  0  0  0  0  0  0  0
  -10.0949   -0.7920   -0.0000 C   0  0  0  0  0  0  0  0  0  0  0  0
   -8.1327   -2.2341   -0.0000 C   0  0  0  0  0  0  0  0  0  0  0  0
  -10.5441    0.6383   -0.0000 C   0  0  0  0  0  0  0  0  0  0  0  0
   -9.4566    2.9788   -0.0000 C   0  0  0  0  0  0  0  0  0  0  0  0
  -10.5914   -2.1987   -0.0000 C   0  0  0  0  0  0  0  0  0  0  0  0
   -9.3738   -3.0852   -0.0000 N   0  0  0  0  0  0  0  0  0  0  0  0
  -11.9035    1.2766   -0.0000 C   0  0  0  0  0  0  0  0  0  0  0  0
  -10.8278    3.6171   -0.0000 C   0  0  0  0  0  0  0  0  0  0  0  0
  -12.0571    2.7661   -0.0000 C   0  0  0  0  0  0  0  0  0  0  0  0
  1  2  1  0  0  0  0
  2  3  1  0  0  0  0
  2  4  1  0  0  0  0
  2  5  1  0  0  0  0
  4  6  1  0  0  0  0
  5  7  1  0  0  0  0
  6  8  1  0  0  0  0
  8  9  1  0  0  0  0
  9 10  1  0  0  0  0
  9 11  1  0  0  0  0
 11 12  1  0  0  0  0
 12 13  1  0  0  0  0
 12 14  1  0  0  0  0
 13 15  1  0  0  0  0
 13 16  1  0  0  0  0
 14 17  2  0  0  0  0
 14 18  1  0  0  0  0
 15 19  2  0  0  0  0
 16 20  2  0  0  0  0
 17 21  1  0  0  0  0
 18 22  2  0  0  0  0
 21 23  2  0  0  0  0
  7  8  1  0  0  0  0
 15 17  1  0  0  0  0
 19 20  1  0  0  0  0
 22 23  1  0  0  0  0
M  END
>  <MolRegNo>
2440720

>  <m>
=

>  <Value>
1200

>  <Unit>
nM

>  <Type>
IC50

>  <pValue>
5.92

>  <Ligand Efficiency>
0

>  <Binding Efficiency>
0

>  <Surface Efficiency>
0

>  <Assay Index>
1282337

>  <Assay Category>


>  <Assay Organism>
Homo sapiens

>  <Target ID>
17045

>  <Target Name>
Cytochrome P450 3A4

>  <Target Organism>
Homo sapiens

>  <Target Description>
Target is a single protein chain

>  <Sequence Accession>
P08684

>  <Reference>
J Med Chem 62 (14), 6705-6733 (2019)

>  <Pubmed ID>
31264862

>  <DOI>
10.1021/acs.jmedchem.9b00662

$$$$
2447260
Actelion Java MolfileCreator 1.0

 24 27  0  0  0  0  0  0  0  0999 V2000
    0.0000   -0.0000   -0.0000 F   0  0  0  0  0  0  0  0  0  0  0  0
   -1.2379   -0.8570   -0.0000 C   0  0  0  0  0  0  0  0  0  0  0  0
   -1.1070   -2.3330   -0.0000 C   0  0  0  0  0  0  0  0  0  0  0  0
   -2.6186   -0.2143   -0.0000 C   0  0  0  0  0  0  0  0  0  0  0  0
   -2.3568   -3.1900   -0.0000 C   0  0  0  0  0  0  0  0  0  0  0  0
    0.0952   -3.2138   -0.0000 C   0  0  0  0  0  0  0  0  0  0  0  0
   -3.8684   -1.0713   -0.0000 C   0  0  0  0  0  0  0  0  0  0  0  0
   -1.9164   -4.6183   -0.0000 C   0  0  0  0  0  0  0  0  0  0  0  0
   -3.7256   -2.5472   -0.0000 C   0  0  0  0  0  0  0  0  0  0  0  0
   -0.4047   -4.6302   -0.0000 N   0  0  0  0  0  0  0  0  0  0  0  0
    1.5831   -3.1900   -0.0000 C   0  0  0  0  0  0  0  0  0  0  0  0
   -2.4163   -6.0348   -0.0000 C   0  0  0  0  0  0  0  0  0  0  0  0
    0.0476   -6.0586   -0.0000 C   0  0  0  0  0  0  0  0  0  0  0  0
    2.3211   -4.4755   -0.0000 C   0  0  0  0  0  0  0  0  0  0  0  0
   -1.2141   -6.9275   -0.0000 N   0  0  0  0  0  0  0  0  0  0  0  0
    1.5593   -5.7729   -0.0000 O   0  0  0  0  0  0  0  0  0  0  0  0
    3.8208   -4.4517   -0.0000 C   0  0  0  0  0  0  0  0  0  0  0  0
    4.5588   -5.7372   -0.0000 C   0  0  0  0  0  0  0  0  0  0  0  0
    4.5469   -3.1305   -0.0000 C   0  0  0  0  0  0  0  0  0  0  0  0
    6.0467   -5.7253   -0.0000 C   0  0  0  0  0  0  0  0  0  0  0  0
    6.0467   -3.1186   -0.0000 C   0  0  0  0  0  0  0  0  0  0  0  0
    6.7847   -4.4160   -0.0000 C   0  0  0  0  0  0  0  0  0  0  0  0
    8.0702   -3.6423   -0.0000 F   0  0  0  0  0  0  0  0  0  0  0  0
    8.0821   -5.1421   -0.0000 F   0  0  0  0  0  0  0  0  0  0  0  0
  1  2  1  0  0  0  0
  2  3  2  0  0  0  0
  2  4  1  0  0  0  0
  3  5  1  0  0  0  0
  3  6  1  0  0  0  0
  4  7  2  0  0  0  0
  5  8  1  0  0  0  0
  5  9  2  0  0  0  0
  6 10  1  0  0  0  0
  6 11  1  0  0  0  0
  8 12  2  0  0  0  0
 10 13  1  0  0  0  0
 11 14  1  0  0  0  0
 12 15  1  0  0  0  0
 14 16  1  0  0  0  0
 14 17  1  0  0  0  0
 17 18  1  0  0  0  0
 17 19  1  0  0  0  0
 18 20  1  0  0  0  0
 19 21  1  0  0  0  0
 20 22  1  0  0  0  0
 22 23  1  0  0  0  0
 22 24  1  0  0  0  0
  7  9  1  0  0  0  0
  8 10  1  0  0  0  0
 13 15  2  0  0  0  0
 21 22  1  0  0  0  0
M  END
>  <MolRegNo>
2447260

>  <m>
=

>  <Value>
2600

>  <Unit>
nM

>  <Type>
IC50

>  <pValue>
5.58

>  <Ligand Efficiency>
0

>  <Binding Efficiency>
0

>  <Surface Efficiency>
0

>  <Assay Index>
1282337

>  <Assay Category>


>  <Assay Organism>
Homo sapiens

>  <Target ID>
17045

>  <Target Name>
Cytochrome P450 3A4

>  <Target Organism>
Homo sapiens

>  <Target Description>
Target is a single protein chain

>  <Sequence Accession>
P08684

>  <Reference>
J Med Chem 62 (14), 6705-6733 (2019)

>  <Pubmed ID>
31264862

>  <DOI>
10.1021/acs.jmedchem.9b00662

$$$$
2413956
Actelion Java MolfileCreator 1.0

 23 26  0  0  0  0  0  0  0  0999 V2000
    0.0000   -0.0000   -0.0000 F   0  0  0  0  0  0  0  0  0  0  0  0
   -1.2375   -0.8567   -0.0000 C   0  0  0  0  0  0  0  0  0  0  0  0
   -1.1066   -2.3322   -0.0000 C   0  0  0  0  0  0  0  0  0  0  0  0
   -2.6178   -0.2142   -0.0000 C   0  0  0  0  0  0  0  0  0  0  0  0
   -2.3560   -3.1889   -0.0000 C   0  0  0  0  0  0  0  0  0  0  0  0
    0.0952   -3.2127   -0.0000 C   0  0  0  0  0  0  0  0  0  0  0  0
   -3.8672   -1.0709   -0.0000 C   0  0  0  0  0  0  0  0  0  0  0  0
   -1.9157   -4.6168   -0.0000 C   0  0  0  0  0  0  0  0  0  0  0  0
   -3.7244   -2.5464   -0.0000 C   0  0  0  0  0  0  0  0  0  0  0  0
   -0.4046   -4.6287   -0.0000 N   0  0  0  0  0  0  0  0  0  0  0  0
    1.5826   -3.1889   -0.0000 C   0  0  0  0  0  0  0  0  0  0  0  0
   -2.4155   -6.0328   -0.0000 C   0  0  0  0  0  0  0  0  0  0  0  0
    0.0476   -6.0566   -0.0000 C   0  0  0  0  0  0  0  0  0  0  0  0
    2.3203   -4.4740   -0.0000 C   0  0  0  0  0  0  0  0  0  0  0  0
   -1.2137   -6.9252   -0.0000 N   0  0  0  0  0  0  0  0  0  0  0  0
    1.5588   -5.7710   -0.0000 O   0  0  0  0  0  0  0  0  0  0  0  0
    3.8196   -4.4502   -0.0000 C   0  0  0  0  0  0  0  0  0  0  0  0
    4.5573   -5.7353   -0.0000 C   0  0  0  0  0  0  0  0  0  0  0  0
    4.5454   -3.1294   -0.0000 C   0  0  0  0  0  0  0  0  0  0  0  0
    6.0447   -5.7234   -0.0000 C   0  0  0  0  0  0  0  0  0  0  0  0
    6.0447   -3.1176   -0.0000 C   0  0  0  0  0  0  0  0  0  0  0  0
    6.7825   -4.4145   -0.0000 C   0  0  0  0  0  0  0  0  0  0  0  0
    8.2817   -4.4026   -0.0000 O   0  0  0  0  0  0  0  0  0  0  0  0
  1  2  1  0  0  0  0
  2  3  2  0  0  0  0
  2  4  1  0  0  0  0
  3  5  1  0  0  0  0
  3  6  1  0  0  0  0
  4  7  2  0  0  0  0
  5  8  1  0  0  0  0
  5  9  2  0  0  0  0
  6 10  1  0  0  0  0
  6 11  1  0  0  0  0
  8 12  2  0  0  0  0
 10 13  1  0  0  0  0
 11 14  1  0  0  0  0
 12 15  1  0  0  0  0
 14 16  1  0  0  0  0
 14 17  1  0  0  0  0
 17 18  1  0  0  0  0
 17 19  1  0  0  0  0
 18 20  1  0  0  0  0
 19 21  1  0  0  0  0
 20 22  1  0  0  0  0
 22 23  2  0  0  0  0
  7  9  1  0  0  0  0
  8 10  1  0  0  0  0
 13 15  2  0  0  0  0
 21 22  1  0  0  0  0
M  END
>  <MolRegNo>
2413956

>  <m>
=

>  <Value>
10900

>  <Unit>
nM

>  <Type>
IC50

>  <pValue>
4.96

>  <Ligand Efficiency>
0

>  <Binding Efficiency>
0

>  <Surface Efficiency>
0

>  <Assay Index>
1282337

>  <Assay Category>


>  <Assay Organism>
Homo sapiens

>  <Target ID>
17045

>  <Target Name>
Cytochrome P450 3A4

>  <Target Organism>
Homo sapiens

>  <Target Description>
Target is a single protein chain

>  <Sequence Accession>
P08684

>  <Reference>
J Med Chem 62 (14), 6705-6733 (2019)

>  <Pubmed ID>
31264862

>  <DOI>
10.1021/acs.jmedchem.9b00662

$$$$
2357482
Actelion Java MolfileCreator 1.0

 30 34  0  0  1  0  0  0  0  0999 V2000
    0.0000   -0.0000   -0.0000 O   0  0  0  0  0  0  0  0  0  0  0  0
    0.7455   -1.2899   -0.0000 C   0  0  0  0  0  0  0  0  0  0  0  0
   -0.0237   -2.5798   -0.0000 N   0  0  0  0  0  0  0  0  0  0  0  0
    2.2366   -1.2781   -0.0000 C   0  0  0  0  0  0  0  0  0  0  0  0
   -1.5384   -2.5679   -0.0000 C   0  0  0  0  0  0  0  0  0  0  0  0
    2.9703   -2.5679   -0.0000 C   0  0  0  0  0  0  0  0  0  0  0  0
    2.9585    0.0237   -0.0000 C   0  0  0  0  0  0  0  0  0  0  0  0
   -2.2958   -3.8460   -0.0000 C   0  0  0  0  0  0  0  0  0  0  0  0
   -2.2958   -1.2544   -0.0000 C   0  0  0  0  0  0  0  0  0  0  0  0
    4.4495   -2.5561   -0.0000 C   0  0  0  0  0  0  0  0  0  0  0  0
    4.4377    0.0473   -0.0000 C   0  0  0  0  0  0  0  0  0  0  0  0
   -3.7987   -3.8342   -0.0000 C   0  0  0  0  0  0  0  0  0  0  0  0
   -3.8105   -1.2426   -0.0000 C   0  0  0  0  0  0  0  0  0  0  0  0
    5.1951   -1.2426   -0.0000 C   0  0  0  0  0  0  0  0  0  0  0  0
   -4.5560   -2.5324   -0.0000 C   0  0  0  0  0  0  0  0  0  0  0  0
   -6.0708   -2.5324   -0.0000 C   0  0  0  0  0  0  0  0  0  0  0  0
   -6.8281   -3.8105   -0.0000 O   0  0  0  0  0  0  0  0  0  0  0  0
   -6.8281   -1.2307   -0.0000 C   0  0  0  0  0  0  0  0  0  0  0  0
   -8.3310   -1.2307   -0.0000 C   0  0  0  0  0  0  0  0  0  0  0  0
   -8.8281   -2.6390   -0.0000 N   0  0  0  0  0  0  0  0  0  0  0  0
   -9.5499   -0.3313   -0.0000 C   0  0  0  0  0  0  0  0  0  0  0  0
  -10.3428   -2.6153   -0.0000 C   0  0  0  0  0  0  0  0  0  0  0  0
   -8.3784   -4.0590   -0.0000 C   0  0  0  0  0  0  0  0  0  0  0  0
  -10.7925   -1.1834   -0.0000 C   0  0  0  0  0  0  0  0  0  0  0  0
   -9.7038    1.1597   -0.0000 C   0  0  0  0  0  0  0  0  0  0  0  0
  -10.8398   -4.0235   -0.0000 C   0  0  0  0  0  0  0  0  0  0  0  0
   -9.6209   -4.9111   -0.0000 N   0  0  0  0  0  0  0  0  0  0  0  0
  -12.1534   -0.5444   -0.0000 C   0  0  0  0  0  0  0  0  0  0  0  0
  -11.0765    1.7987   -0.0000 C   0  0  0  0  0  0  0  0  0  0  0  0
  -12.3072    0.9467   -0.0000 C   0  0  0  0  0  0  0  0  0  0  0  0
  1  2  2  0  0  0  0
  2  3  1  0  0  0  0
  2  4  1  0  0  0  0
  5  3  1  1  0  0  0
  4  6  2  0  0  0  0
  4  7  1  0  0  0  0
  5  8  1  0  0  0  0
  5  9  1  0  0  0  0
  6 10  1  0  0  0  0
  7 11  2  0  0  0  0
  8 12  1  0  0  0  0
  9 13  1  0  0  0  0
 10 14  2  0  0  0  0
 12 15  1  0  0  0  0
 15 16  1  6  0  0  0
 16 17  1  0  0  0  0
 16 18  1  0  0  0  0
 18 19  1  0  0  0  0
 19 20  1  0  0  0  0
 19 21  1  0  0  0  0
 20 22  1  0  0  0  0
 20 23  1  0  0  0  0
 21 24  2  0  0  0  0
 21 25  1  0  0  0  0
 22 26  2  0  0  0  0
 23 27  2  0  0  0  0
 24 28  1  0  0  0  0
 25 29  2  0  0  0  0
 28 30  2  0  0  0  0
 11 14  1  0  0  0  0
 13 15  1  0  0  0  0
 22 24  1  0  0  0  0
 26 27  1  0  0  0  0
 29 30  1  0  0  0  0
M  END
>  <MolRegNo>
2357482

>  <m>
=

>  <Value>
1200

>  <Unit>
nM

>  <Type>
IC50

>  <pValue>
5.92

>  <Ligand Efficiency>
0

>  <Binding Efficiency>
0

>  <Surface Efficiency>
0

>  <Assay Index>
1282337

>  <Assay Category>


>  <Assay Organism>
Homo sapiens

>  <Target ID>
17045

>  <Target Name>
Cytochrome P450 3A4

>  <Target Organism>
Homo sapiens

>  <Target Description>
Target is a single protein chain

>  <Sequence Accession>
P08684

>  <Reference>
J Med Chem 62 (14), 6705-6733 (2019)

>  <Pubmed ID>
31264862

>  <DOI>
10.1021/acs.jmedchem.9b00662

$$$$
2420706
Actelion Java MolfileCreator 1.0

 30 34  0  0  1  0  0  0  0  0999 V2000
    0.0000   -0.0000   -0.0000 O   0  0  0  0  0  0  0  0  0  0  0  0
    0.7455   -1.2899   -0.0000 C   0  0  0  0  0  0  0  0  0  0  0  0
   -0.0237   -2.5798   -0.0000 N   0  0  0  0  0  0  0  0  0  0  0  0
    2.2366   -1.2781   -0.0000 C   0  0  0  0  0  0  0  0  0  0  0  0
   -1.5384   -2.5679   -0.0000 C   0  0  0  0  0  0  0  0  0  0  0  0
    2.9703   -2.5679   -0.0000 C   0  0  0  0  0  0  0  0  0  0  0  0
    2.9585    0.0237   -0.0000 C   0  0  0  0  0  0  0  0  0  0  0  0
   -2.2958   -3.8460   -0.0000 C   0  0  0  0  0  0  0  0  0  0  0  0
   -2.2958   -1.2544   -0.0000 C   0  0  0  0  0  0  0  0  0  0  0  0
    4.4495   -2.5561   -0.0000 C   0  0  0  0  0  0  0  0  0  0  0  0
    4.4377    0.0473   -0.0000 C   0  0  0  0  0  0  0  0  0  0  0  0
   -3.7987   -3.8342   -0.0000 C   0  0  0  0  0  0  0  0  0  0  0  0
   -3.8105   -1.2426   -0.0000 C   0  0  0  0  0  0  0  0  0  0  0  0
    5.1951   -1.2426   -0.0000 C   0  0  0  0  0  0  0  0  0  0  0  0
   -4.5560   -2.5324   -0.0000 C   0  0  0  0  0  0  0  0  0  0  0  0
   -6.0708   -2.5324   -0.0000 C   0  0  0  0  0  0  0  0  0  0  0  0
   -6.8281   -3.8105   -0.0000 O   0  0  0  0  0  0  0  0  0  0  0  0
   -6.8281   -1.2307   -0.0000 C   0  0  0  0  0  0  0  0  0  0  0  0
   -8.3310   -1.2307   -0.0000 C   0  0  0  0  0  0  0  0  0  0  0  0
   -8.8281   -2.6390   -0.0000 N   0  0  0  0  0  0  0  0  0  0  0  0
   -9.5499   -0.3313   -0.0000 C   0  0  0  0  0  0  0  0  0  0  0  0
  -10.3428   -2.6153   -0.0000 C   0  0  0  0  0  0  0  0  0  0  0  0
   -8.3784   -4.0590   -0.0000 C   0  0  0  0  0  0  0  0  0  0  0  0
  -10.7925   -1.1834   -0.0000 C   0  0  0  0  0  0  0  0  0  0  0  0
   -9.7038    1.1597   -0.0000 C   0  0  0  0  0  0  0  0  0  0  0  0
  -10.8398   -4.0235   -0.0000 C   0  0  0  0  0  0  0  0  0  0  0  0
   -9.6209   -4.9111   -0.0000 N   0  0  0  0  0  0  0  0  0  0  0  0
  -12.1534   -0.5444   -0.0000 C   0  0  0  0  0  0  0  0  0  0  0  0
  -11.0765    1.7987   -0.0000 C   0  0  0  0  0  0  0  0  0  0  0  0
  -12.3072    0.9467   -0.0000 C   0  0  0  0  0  0  0  0  0  0  0  0
  1  2  2  0  0  0  0
  2  3  1  0  0  0  0
  2  4  1  0  0  0  0
  5  3  1  1  0  0  0
  4  6  2  0  0  0  0
  4  7  1  0  0  0  0
  5  8  1  0  0  0  0
  5  9  1  0  0  0  0
  6 10  1  0  0  0  0
  7 11  2  0  0  0  0
  8 12  1  0  0  0  0
  9 13  1  0  0  0  0
 10 14  2  0  0  0  0
 12 15  1  0  0  0  0
 15 16  1  1  0  0  0
 16 17  1  0  0  0  0
 16 18  1  0  0  0  0
 18 19  1  0  0  0  0
 19 20  1  0  0  0  0
 19 21  1  0  0  0  0
 20 22  1  0  0  0  0
 20 23  1  0  0  0  0
 21 24  2  0  0  0  0
 21 25  1  0  0  0  0
 22 26  2  0  0  0  0
 23 27  2  0  0  0  0
 24 28  1  0  0  0  0
 25 29  2  0  0  0  0
 28 30  2  0  0  0  0
 11 14  1  0  0  0  0
 13 15  1  0  0  0  0
 22 24  1  0  0  0  0
 26 27  1  0  0  0  0
 29 30  1  0  0  0  0
M  END
>  <MolRegNo>
2420706

>  <m>
=

>  <Value>
1100

>  <Unit>
nM

>  <Type>
IC50

>  <pValue>
5.96

>  <Ligand Efficiency>
0

>  <Binding Efficiency>
0

>  <Surface Efficiency>
0

>  <Assay Index>
1282337

>  <Assay Category>


>  <Assay Organism>
Homo sapiens

>  <Target ID>
17045

>  <Target Name>
Cytochrome P450 3A4

>  <Target Organism>
Homo sapiens

>  <Target Description>
Target is a single protein chain

>  <Sequence Accession>
P08684

>  <Reference>
J Med Chem 62 (14), 6705-6733 (2019)

>  <Pubmed ID>
31264862

>  <DOI>
10.1021/acs.jmedchem.9b00662

$$$$
2388596
Actelion Java MolfileCreator 1.0

 23 26  0  0  0  0  0  0  0  0999 V2000
    0.0000   -0.0000   -0.0000 F   0  0  0  0  0  0  0  0  0  0  0  0
   -1.2385   -0.8575   -0.0000 C   0  0  0  0  0  0  0  0  0  0  0  0
   -1.1075   -2.3342   -0.0000 C   0  0  0  0  0  0  0  0  0  0  0  0
   -2.6081   -0.2144   -0.0000 C   0  0  0  0  0  0  0  0  0  0  0  0
   -2.3580   -3.1916   -0.0000 C   0  0  0  0  0  0  0  0  0  0  0  0
    0.0834   -3.2154   -0.0000 C   0  0  0  0  0  0  0  0  0  0  0  0
   -3.8585   -1.0718   -0.0000 C   0  0  0  0  0  0  0  0  0  0  0  0
   -1.9174   -4.6207   -0.0000 C   0  0  0  0  0  0  0  0  0  0  0  0
   -3.7275   -2.5485   -0.0000 C   0  0  0  0  0  0  0  0  0  0  0  0
   -0.4049   -4.6326   -0.0000 N   0  0  0  0  0  0  0  0  0  0  0  0
    1.5720   -3.1916   -0.0000 C   0  0  0  0  0  0  0  0  0  0  0  0
   -2.4175   -6.0379   -0.0000 C   0  0  0  0  0  0  0  0  0  0  0  0
    0.0357   -6.0617   -0.0000 C   0  0  0  0  0  0  0  0  0  0  0  0
    2.3223   -4.4778   -0.0000 C   0  0  0  0  0  0  0  0  0  0  0  0
   -1.2147   -6.9311   -0.0000 N   0  0  0  0  0  0  0  0  0  0  0  0
    1.5601   -5.7759   -0.0000 O   0  0  0  0  0  0  0  0  0  0  0  0
    3.8228   -4.4540   -0.0000 C   0  0  0  0  0  0  0  0  0  0  0  0
    4.5612   -5.7402   -0.0000 C   0  0  0  0  0  0  0  0  0  0  0  0
    4.5493   -3.1321   -0.0000 C   0  0  0  0  0  0  0  0  0  0  0  0
    6.0498   -5.7283   -0.0000 C   0  0  0  0  0  0  0  0  0  0  0  0
    6.0498   -3.1202   -0.0000 C   0  0  0  0  0  0  0  0  0  0  0  0
    6.7882   -4.4183   -0.0000 C   0  0  0  0  0  0  0  0  0  0  0  0
    8.2887   -4.4063   -0.0000 O   0  0  0  0  0  0  0  0  0  0  0  0
  1  2  1  0  0  0  0
  2  3  2  0  0  0  0
  2  4  1  0  0  0  0
  3  5  1  0  0  0  0
  3  6  1  0  0  0  0
  4  7  2  0  0  0  0
  5  8  1  0  0  0  0
  5  9  2  0  0  0  0
  6 10  1  0  0  0  0
  6 11  1  0  0  0  0
  8 12  2  0  0  0  0
 10 13  1  0  0  0  0
 11 14  1  0  0  0  0
 12 15  1  0  0  0  0
 14 16  1  0  0  0  0
 14 17  1  0  0  0  0
 17 18  1  0  0  0  0
 17 19  1  0  0  0  0
 18 20  1  0  0  0  0
 19 21  1  0  0  0  0
 20 22  1  0  0  0  0
 22 23  1  0  0  0  0
  7  9  1  0  0  0  0
  8 10  1  0  0  0  0
 13 15  2  0  0  0  0
 21 22  1  0  0  0  0
M  END
>  <MolRegNo>
2388596

>  <m>
=

>  <Value>
3300

>  <Unit>
nM

>  <Type>
IC50

>  <pValue>
5.48

>  <Ligand Efficiency>
0

>  <Binding Efficiency>
0

>  <Surface Efficiency>
0

>  <Assay Index>
1282337

>  <Assay Category>


>  <Assay Organism>
Homo sapiens

>  <Target ID>
17045

>  <Target Name>
Cytochrome P450 3A4

>  <Target Organism>
Homo sapiens

>  <Target Description>
Target is a single protein chain

>  <Sequence Accession>
P08684

>  <Reference>
J Med Chem 62 (14), 6705-6733 (2019)

>  <Pubmed ID>
31264862

>  <DOI>
10.1021/acs.jmedchem.9b00662

$$$$
2400927
Actelion Java MolfileCreator 1.0

 23 26  0  0  1  0  0  0  0  0999 V2000
    0.0000   -0.0000   -0.0000 F   0  0  0  0  0  0  0  0  0  0  0  0
   -1.2372   -0.8565   -0.0000 C   0  0  0  0  0  0  0  0  0  0  0  0
   -1.1063   -2.3316   -0.0000 C   0  0  0  0  0  0  0  0  0  0  0  0
   -2.6171   -0.2141   -0.0000 C   0  0  0  0  0  0  0  0  0  0  0  0
   -2.3554   -3.1881   -0.0000 C   0  0  0  0  0  0  0  0  0  0  0  0
    0.0952   -3.2119   -0.0000 C   0  0  0  0  0  0  0  0  0  0  0  0
   -3.8662   -1.0706   -0.0000 C   0  0  0  0  0  0  0  0  0  0  0  0
   -1.9152   -4.6156   -0.0000 C   0  0  0  0  0  0  0  0  0  0  0  0
   -3.7234   -2.5457   -0.0000 C   0  0  0  0  0  0  0  0  0  0  0  0
   -0.3926   -4.6275   -0.0000 N   0  0  0  0  0  0  0  0  0  0  0  0
    1.5822   -3.1881   -0.0000 C   0  0  0  0  0  0  0  0  0  0  0  0
   -2.4149   -6.0312   -0.0000 C   0  0  0  0  0  0  0  0  0  0  0  0
    0.0476   -6.0550   -0.0000 C   0  0  0  0  0  0  0  0  0  0  0  0
    2.3316   -4.4729   -0.0000 C   0  0  0  0  0  0  0  0  0  0  0  0
   -1.2134   -6.9234   -0.0000 N   0  0  0  0  0  0  0  0  0  0  0  0
    1.5703   -5.7695   -0.0000 O   0  0  0  0  0  0  0  0  0  0  0  0
    3.8305   -4.4491   -0.0000 C   0  0  0  0  0  0  0  0  0  0  0  0
    4.5680   -5.7338   -0.0000 C   0  0  0  0  0  0  0  0  0  0  0  0
    4.5561   -3.1286   -0.0000 C   0  0  0  0  0  0  0  0  0  0  0  0
    6.0550   -5.7219   -0.0000 C   0  0  0  0  0  0  0  0  0  0  0  0
    6.0550   -3.1167   -0.0000 C   0  0  0  0  0  0  0  0  0  0  0  0
    6.8045   -4.4134   -0.0000 C   0  0  0  0  0  0  0  0  0  0  0  0
    8.2914   -4.4015   -0.0000 O   0  0  0  0  0  0  0  0  0  0  0  0
  1  2  1  0  0  0  0
  2  3  2  0  0  0  0
  2  4  1  0  0  0  0
  3  5  1  0  0  0  0
  3  6  1  0  0  0  0
  4  7  2  0  0  0  0
  5  8  1  0  0  0  0
  5  9  2  0  0  0  0
  6 10  1  0  0  0  0
  6 11  1  6  0  0  0
  8 12  2  0  0  0  0
 10 13  1  0  0  0  0
 11 14  1  0  0  0  0
 12 15  1  0  0  0  0
 14 16  1  6  0  0  0
 14 17  1  0  0  0  0
 17 18  1  1  0  0  0
 17 19  1  0  0  0  0
 18 20  1  0  0  0  0
 19 21  1  0  0  0  0
 20 22  1  0  0  0  0
 22 23  1  1  0  0  0
  7  9  1  0  0  0  0
  8 10  1  0  0  0  0
 13 15  2  0  0  0  0
 21 22  1  0  0  0  0
M  END
>  <MolRegNo>
2400927

>  <m>
=

>  <Value>
3100

>  <Unit>
nM

>  <Type>
IC50

>  <pValue>
5.51

>  <Ligand Efficiency>
0

>  <Binding Efficiency>
0

>  <Surface Efficiency>
0

>  <Assay Index>
1282337

>  <Assay Category>


>  <Assay Organism>
Homo sapiens

>  <Target ID>
17045

>  <Target Name>
Cytochrome P450 3A4

>  <Target Organism>
Homo sapiens

>  <Target Description>
Target is a single protein chain

>  <Sequence Accession>
P08684

>  <Reference>
J Med Chem 62 (14), 6705-6733 (2019)

>  <Pubmed ID>
31264862

>  <DOI>
10.1021/acs.jmedchem.9b00662

$$$$
2353581
Actelion Java MolfileCreator 1.0

 23 26  0  0  1  0  0  0  0  0999 V2000
    0.0000   -0.0000   -0.0000 F   0  0  0  0  0  0  0  0  0  0  0  0
   -1.2375   -0.8567   -0.0000 C   0  0  0  0  0  0  0  0  0  0  0  0
   -1.1066   -2.3322   -0.0000 C   0  0  0  0  0  0  0  0  0  0  0  0
   -2.6177   -0.2142   -0.0000 C   0  0  0  0  0  0  0  0  0  0  0  0
   -2.3560   -3.1889   -0.0000 C   0  0  0  0  0  0  0  0  0  0  0  0
    0.0952   -3.2127   -0.0000 C   0  0  0  0  0  0  0  0  0  0  0  0
   -3.8671   -1.0709   -0.0000 C   0  0  0  0  0  0  0  0  0  0  0  0
   -1.9157   -4.6167   -0.0000 C   0  0  0  0  0  0  0  0  0  0  0  0
   -3.7124   -2.5463   -0.0000 C   0  0  0  0  0  0  0  0  0  0  0  0
   -0.3927   -4.6286   -0.0000 N   0  0  0  0  0  0  0  0  0  0  0  0
    1.5825   -3.1889   -0.0000 C   0  0  0  0  0  0  0  0  0  0  0  0
   -2.4155   -6.0327   -0.0000 C   0  0  0  0  0  0  0  0  0  0  0  0
    0.0476   -6.0565   -0.0000 C   0  0  0  0  0  0  0  0  0  0  0  0
    2.3322   -4.4740   -0.0000 C   0  0  0  0  0  0  0  0  0  0  0  0
   -1.2137   -6.9251   -0.0000 N   0  0  0  0  0  0  0  0  0  0  0  0
    1.5706   -5.7709   -0.0000 O   0  0  0  0  0  0  0  0  0  0  0  0
    3.8314   -4.4502   -0.0000 C   0  0  0  0  0  0  0  0  0  0  0  0
    4.5691   -5.7352   -0.0000 C   0  0  0  0  0  0  0  0  0  0  0  0
    4.5573   -3.1294   -0.0000 C   0  0  0  0  0  0  0  0  0  0  0  0
    6.0565   -5.7233   -0.0000 C   0  0  0  0  0  0  0  0  0  0  0  0
    6.0565   -3.1175   -0.0000 C   0  0  0  0  0  0  0  0  0  0  0  0
    6.8061   -4.4145   -0.0000 C   0  0  0  0  0  0  0  0  0  0  0  0
    8.2935   -4.4026   -0.0000 O   0  0  0  0  0  0  0  0  0  0  0  0
  1  2  1  0  0  0  0
  2  3  2  0  0  0  0
  2  4  1  0  0  0  0
  3  5  1  0  0  0  0
  3  6  1  0  0  0  0
  4  7  2  0  0  0  0
  5  8  1  0  0  0  0
  5  9  2  0  0  0  0
  6 10  1  0  0  0  0
  6 11  1  6  0  0  0
  8 12  2  0  0  0  0
 10 13  1  0  0  0  0
 11 14  1  0  0  0  0
 12 15  1  0  0  0  0
 14 16  1  1  0  0  0
 14 17  1  0  0  0  0
 17 18  1  6  0  0  0
 17 19  1  0  0  0  0
 18 20  1  0  0  0  0
 19 21  1  0  0  0  0
 20 22  1  0  0  0  0
 22 23  1  1  0  0  0
  7  9  1  0  0  0  0
  8 10  1  0  0  0  0
 13 15  2  0  0  0  0
 21 22  1  0  0  0  0
M  END
>  <MolRegNo>
2353581

>  <m>
=

>  <Value>
5600

>  <Unit>
nM

>  <Type>
IC50

>  <pValue>
5.25

>  <Ligand Efficiency>
0

>  <Binding Efficiency>
0

>  <Surface Efficiency>
0

>  <Assay Index>
1282337

>  <Assay Category>


>  <Assay Organism>
Homo sapiens

>  <Target ID>
17045

>  <Target Name>
Cytochrome P450 3A4

>  <Target Organism>
Homo sapiens

>  <Target Description>
Target is a single protein chain

>  <Sequence Accession>
P08684

>  <Reference>
J Med Chem 62 (14), 6705-6733 (2019)

>  <Pubmed ID>
31264862

>  <DOI>
10.1021/acs.jmedchem.9b00662

$$$$
2381833
Actelion Java MolfileCreator 1.0

 18 20  0  0  0  0  0  0  0  0999 V2000
    0.0000   -0.0000   -0.0000 O   0  0  0  0  0  0  0  0  0  0  0  0
   -0.0119   -1.4967   -0.0000 C   0  0  0  0  0  0  0  0  0  0  0  0
   -1.3304   -2.2332   -0.0000 N   0  0  0  0  0  0  0  0  0  0  0  0
    1.2829   -2.2332   -0.0000 C   0  0  0  0  0  0  0  0  0  0  0  0
    2.5658   -1.4730   -0.0000 C   0  0  0  0  0  0  0  0  0  0  0  0
    1.2710   -3.7299   -0.0000 C   0  0  0  0  0  0  0  0  0  0  0  0
    3.8606   -2.2094   -0.0000 C   0  0  0  0  0  0  0  0  0  0  0  0
    2.5658   -4.4664   -0.0000 C   0  0  0  0  0  0  0  0  0  0  0  0
    3.8606   -3.7062   -0.0000 C   0  0  0  0  0  0  0  0  0  0  0  0
    5.2741   -1.7224   -0.0000 C   0  0  0  0  0  0  0  0  0  0  0  0
    5.2860   -4.1457   -0.0000 N   0  0  0  0  0  0  0  0  0  0  0  0
    5.7136   -0.2851   -0.0000 C   0  0  0  0  0  0  0  0  0  0  0  0
    6.1532   -2.9222   -0.0000 C   0  0  0  0  0  0  0  0  0  0  0  0
    4.8109    0.9384   -0.0000 N   0  0  0  0  0  0  0  0  0  0  0  0
    7.1272    0.2019   -0.0000 C   0  0  0  0  0  0  0  0  0  0  0  0
    5.6780    2.1738   -0.0000 C   0  0  0  0  0  0  0  0  0  0  0  0
    3.2904    0.9384   -0.0000 C   0  0  0  0  0  0  0  0  0  0  0  0
    7.1035    1.7224   -0.0000 N   0  0  0  0  0  0  0  0  0  0  0  0
  1  2  2  0  0  0  0
  2  3  1  0  0  0  0
  2  4  1  0  0  0  0
  4  5  2  0  0  0  0
  4  6  1  0  0  0  0
  5  7  1  0  0  0  0
  6  8  2  0  0  0  0
  7  9  2  0  0  0  0
  7 10  1  0  0  0  0
  9 11  1  0  0  0  0
 10 12  1  0  0  0  0
 10 13  2  0  0  0  0
 12 14  1  0  0  0  0
 12 15  2  0  0  0  0
 14 16  1  0  0  0  0
 14 17  1  0  0  0  0
 15 18  1  0  0  0  0
  8  9  1  0  0  0  0
 11 13  1  0  0  0  0
 16 18  2  0  0  0  0
M  END
>  <MolRegNo>
2381833

>  <m>
=

>  <Value>
3530

>  <Unit>
nM

>  <Type>
IC50

>  <pValue>
5.45

>  <Ligand Efficiency>
0

>  <Binding Efficiency>
0

>  <Surface Efficiency>
0

>  <Assay Index>
1284109

>  <Assay Category>


>  <Assay Organism>
Homo sapiens

>  <Target ID>
17045

>  <Target Name>
Cytochrome P450 3A4

>  <Target Organism>
Homo sapiens

>  <Target Description>
Target is a single protein chain

>  <Sequence Accession>
P08684

>  <Reference>
Medchemcomm 9 (11), 1882-1890 (2018)

>  <Pubmed ID>
30568756

>  <DOI>
10.1039/C8MD00313K

$$$$
2376856
Actelion Java MolfileCreator 1.0

 19 21  0  0  0  0  0  0  0  0999 V2000
    0.0000   -0.0000   -0.0000 O   0  0  0  0  0  0  0  0  0  0  0  0
   -0.0119   -1.4959   -0.0000 C   0  0  0  0  0  0  0  0  0  0  0  0
   -1.3297   -2.2319   -0.0000 N   0  0  0  0  0  0  0  0  0  0  0  0
    1.2822   -2.2319   -0.0000 C   0  0  0  0  0  0  0  0  0  0  0  0
    2.5644   -1.4721   -0.0000 C   0  0  0  0  0  0  0  0  0  0  0  0
    1.2703   -3.7278   -0.0000 C   0  0  0  0  0  0  0  0  0  0  0  0
    3.8584   -2.2082   -0.0000 C   0  0  0  0  0  0  0  0  0  0  0  0
    2.5644   -4.4639   -0.0000 C   0  0  0  0  0  0  0  0  0  0  0  0
    3.8584   -3.7041   -0.0000 C   0  0  0  0  0  0  0  0  0  0  0  0
    5.2712   -1.7214   -0.0000 C   0  0  0  0  0  0  0  0  0  0  0  0
    5.2830   -4.1433   -0.0000 N   0  0  0  0  0  0  0  0  0  0  0  0
    5.7104   -0.2849   -0.0000 C   0  0  0  0  0  0  0  0  0  0  0  0
    6.1497   -2.9205   -0.0000 C   0  0  0  0  0  0  0  0  0  0  0  0
    4.8082    0.9379   -0.0000 N   0  0  0  0  0  0  0  0  0  0  0  0
    7.1232    0.2018   -0.0000 C   0  0  0  0  0  0  0  0  0  0  0  0
    5.6748    2.1726   -0.0000 C   0  0  0  0  0  0  0  0  0  0  0  0
    3.2885    0.9379   -0.0000 C   0  0  0  0  0  0  0  0  0  0  0  0
    7.0995    1.7214   -0.0000 N   0  0  0  0  0  0  0  0  0  0  0  0
    2.5169    2.2438   -0.0000 C   0  0  0  0  0  0  0  0  0  0  0  0
  1  2  2  0  0  0  0
  2  3  1  0  0  0  0
  2  4  1  0  0  0  0
  4  5  2  0  0  0  0
  4  6  1  0  0  0  0
  5  7  1  0  0  0  0
  6  8  2  0  0  0  0
  7  9  2  0  0  0  0
  7 10  1  0  0  0  0
  9 11  1  0  0  0  0
 10 12  1  0  0  0  0
 10 13  2  0  0  0  0
 12 14  1  0  0  0  0
 12 15  2  0  0  0  0
 14 16  1  0  0  0  0
 14 17  1  0  0  0  0
 15 18  1  0  0  0  0
 17 19  1  0  0  0  0
  8  9  1  0  0  0  0
 11 13  1  0  0  0  0
 16 18  2  0  0  0  0
M  END
>  <MolRegNo>
2376856

>  <m>
=

>  <Value>
310

>  <Unit>
nM

>  <Type>
IC50

>  <pValue>
6.51

>  <Ligand Efficiency>
0

>  <Binding Efficiency>
0

>  <Surface Efficiency>
0

>  <Assay Index>
1284109

>  <Assay Category>


>  <Assay Organism>
Homo sapiens

>  <Target ID>
17045

>  <Target Name>
Cytochrome P450 3A4

>  <Target Organism>
Homo sapiens

>  <Target Description>
Target is a single protein chain

>  <Sequence Accession>
P08684

>  <Reference>
Medchemcomm 9 (11), 1882-1890 (2018)

>  <Pubmed ID>
30568756

>  <DOI>
10.1039/C8MD00313K

$$$$
2388209
Actelion Java MolfileCreator 1.0

 36 39  0  0  1  0  0  0  0  0999 V2000
    0.0000   -0.0000   -0.0000 S   0  0  0  0  0  0  0  0  0  0  0  0
    0.7295   -1.2765   -0.0000 O   0  0  0  0  0  0  0  0  0  0  0  0
   -0.7538   -1.2765   -0.0000 O   0  0  0  0  0  0  0  0  0  0  0  0
   -1.3009    0.7538   -0.0000 N   0  0  0  0  0  0  0  0  0  0  0  0
    1.2887    0.7538   -0.0000 C   0  0  0  0  0  0  0  0  0  0  0  0
   -2.6017    0.0243   -0.0000 C   0  0  0  0  0  0  0  0  0  0  0  0
    2.5652    0.0122   -0.0000 C   0  0  0  0  0  0  0  0  0  0  0  0
   -3.9026    0.7902   -0.0000 C   0  0  0  0  0  0  0  0  0  0  0  0
   -2.6139   -1.4589   -0.0000 C   0  0  0  0  0  0  0  0  0  0  0  0
    3.8418    0.7659   -0.0000 C   0  0  0  0  0  0  0  0  0  0  0  0
   -5.2156    0.0608   -0.0000 C   0  0  0  0  0  0  0  0  0  0  0  0
   -3.9147   -2.1884   -0.0000 C   0  0  0  0  0  0  0  0  0  0  0  0
    5.0089    1.4589   -0.0000 F   0  0  0  0  0  0  0  0  0  0  0  0
    5.2885    0.2310   -0.0000 F   0  0  0  0  0  0  0  0  0  0  0  0
    4.0849    2.3221   -0.0000 F   0  0  0  0  0  0  0  0  0  0  0  0
   -5.2156   -1.4103   -0.0000 C   0  0  0  0  0  0  0  0  0  0  0  0
   -6.5164   -2.1519   -0.0000 N   0  0  0  0  0  0  0  0  0  0  0  0
   -7.8173   -1.3981   -0.0000 C   0  0  0  0  0  0  0  0  0  0  0  0
   -7.8294    0.1216   -0.0000 N   0  0  0  0  0  0  0  0  0  0  0  0
   -9.1303   -2.1397   -0.0000 N   0  0  0  0  0  0  0  0  0  0  0  0
   -9.1303    0.8753   -0.0000 C   0  0  0  0  0  0  0  0  0  0  0  0
  -10.4312   -1.3860   -0.0000 C   0  0  0  0  0  0  0  0  0  0  0  0
   -9.1425    2.3829   -0.0000 O   0  0  0  0  0  0  0  0  0  0  0  0
  -10.4433    0.1459   -0.0000 C   0  0  0  0  0  0  0  0  0  0  0  0
  -11.8657   -1.8479   -0.0000 N   0  0  0  0  0  0  0  0  0  0  0  0
   -7.8659    3.1366   -0.0000 C   0  0  0  0  0  0  0  0  0  0  0  0
  -11.8779    0.6200   -0.0000 C   0  0  0  0  0  0  0  0  0  0  0  0
  -12.7654   -0.6322   -0.0000 N   0  0  0  0  0  0  0  0  0  0  0  0
  -12.3642    2.0425   -0.0000 C   0  0  0  0  0  0  0  0  0  0  0  0
  -13.8353    2.3586   -0.0000 C   0  0  0  0  0  0  0  0  0  0  0  0
  -11.3794    3.1731   -0.0000 C   0  0  0  0  0  0  0  0  0  0  0  0
  -14.8443    1.2522   -0.0000 O   0  0  0  0  0  0  0  0  0  0  0  0
  -14.3216    3.7810   -0.0000 C   0  0  0  0  0  0  0  0  0  0  0  0
  -11.8536    4.5955   -0.0000 C   0  0  0  0  0  0  0  0  0  0  0  0
  -16.3154    1.5683   -0.0000 C   0  0  0  0  0  0  0  0  0  0  0  0
  -13.3368    4.9116   -0.0000 C   0  0  0  0  0  0  0  0  0  0  0  0
  1  2  2  0  0  0  0
  1  3  2  0  0  0  0
  1  4  1  0  0  0  0
  1  5  1  0  0  0  0
  6  4  1  6  0  0  0
  5  7  1  0  0  0  0
  6  8  1  0  0  0  0
  6  9  1  0  0  0  0
  7 10  1  0  0  0  0
  8 11  1  0  0  0  0
  9 12  1  0  0  0  0
 10 13  1  0  0  0  0
 10 14  1  0  0  0  0
 10 15  1  0  0  0  0
 11 16  1  0  0  0  0
 16 17  1  1  0  0  0
 17 18  1  0  0  0  0
 18 19  2  0  0  0  0
 18 20  1  0  0  0  0
 19 21  1  0  0  0  0
 20 22  2  0  0  0  0
 21 23  1  0  0  0  0
 21 24  2  0  0  0  0
 22 25  1  0  0  0  0
 23 26  1  0  0  0  0
 24 27  1  0  0  0  0
 25 28  1  0  0  0  0
 27 29  1  0  0  0  0
 29 30  2  0  0  0  0
 29 31  1  0  0  0  0
 30 32  1  0  0  0  0
 30 33  1  0  0  0  0
 31 34  2  0  0  0  0
 32 35  1  0  0  0  0
 33 36  2  0  0  0  0
 12 16  1  0  0  0  0
 22 24  1  0  0  0  0
 27 28  2  0  0  0  0
 34 36  1  0  0  0  0
M  END
>  <MolRegNo>
2388209

>  <m>
=

>  <Value>
6309.6

>  <Unit>
nM

>  <Type>
IC50

>  <pValue>
5.2

>  <Ligand Efficiency>
0

>  <Binding Efficiency>
0

>  <Surface Efficiency>
0

>  <Assay Index>
1284857

>  <Assay Category>


>  <Assay Organism>
Homo sapiens

>  <Target ID>
17045

>  <Target Name>
Cytochrome P450 3A4

>  <Target Organism>
Homo sapiens

>  <Target Description>
Target is a single protein chain

>  <Sequence Accession>
P08684

>  <Reference>
J Med Chem 62 (3), 1180-1202 (2019)

>  <Pubmed ID>
30570265

>  <DOI>
10.1021/acs.jmedchem.8b01218

$$$$
2355861
Actelion Java MolfileCreator 1.0

 32 35  0  0  0  0  0  0  0  0999 V2000
    0.0000   -0.0000   -0.0000 F   0  0  0  0  0  0  0  0  0  0  0  0
   -1.3135    0.7692   -0.0000 C   0  0  0  0  0  0  0  0  0  0  0  0
   -2.6269    0.0355   -0.0000 C   0  0  0  0  0  0  0  0  0  0  0  0
   -1.3253    2.2838   -0.0000 C   0  0  0  0  0  0  0  0  0  0  0  0
   -3.9404    0.7928   -0.0000 C   0  0  0  0  0  0  0  0  0  0  0  0
   -2.6388   -1.4555   -0.0000 C   0  0  0  0  0  0  0  0  0  0  0  0
   -2.6388    3.0529   -0.0000 C   0  0  0  0  0  0  0  0  0  0  0  0
   -5.2539    0.0473   -0.0000 F   0  0  0  0  0  0  0  0  0  0  0  0
   -3.9523    2.3075   -0.0000 C   0  0  0  0  0  0  0  0  0  0  0  0
   -1.3490   -2.2010   -0.0000 N   0  0  0  0  0  0  0  0  0  0  0  0
   -3.9404   -2.2010   -0.0000 C   0  0  0  0  0  0  0  0  0  0  0  0
   -2.6506    4.5676   -0.0000 C   0  0  0  0  0  0  0  0  0  0  0  0
   -1.3608   -3.6919   -0.0000 C   0  0  0  0  0  0  0  0  0  0  0  0
   -0.0592   -1.4436   -0.0000 C   0  0  0  0  0  0  0  0  0  0  0  0
   -3.9523   -3.6919   -0.0000 C   0  0  0  0  0  0  0  0  0  0  0  0
   -5.2421   -1.4436   -0.0000 C   0  0  0  0  0  0  0  0  0  0  0  0
   -1.3608    5.3367   -0.0000 C   0  0  0  0  0  0  0  0  0  0  0  0
   -2.6743   -4.4256   -0.0000 C   0  0  0  0  0  0  0  0  0  0  0  0
   -0.0710   -4.4374   -0.0000 C   0  0  0  0  0  0  0  0  0  0  0  0
    1.2188   -2.1891   -0.0000 C   0  0  0  0  0  0  0  0  0  0  0  0
   -5.2539   -4.4256   -0.0000 C   0  0  0  0  0  0  0  0  0  0  0  0
   -6.5555   -2.1773   -0.0000 C   0  0  0  0  0  0  0  0  0  0  0  0
   -1.3726    6.8514   -0.0000 C   0  0  0  0  0  0  0  0  0  0  0  0
    2.5086   -1.4318   -0.0000 F   0  0  0  0  0  0  0  0  0  0  0  0
    1.9525   -3.4789   -0.0000 C   0  0  0  0  0  0  0  0  0  0  0  0
    0.4497   -3.4671   -0.0000 C   0  0  0  0  0  0  0  0  0  0  0  0
   -6.5555   -3.6683   -0.0000 C   0  0  0  0  0  0  0  0  0  0  0  0
   -5.5734   -5.8692   -0.0000 C   0  0  0  0  0  0  0  0  0  0  0  0
   -2.6861    7.6087   -0.0000 O   0  0  0  0  0  0  0  0  0  0  0  0
   -0.0828    7.6205   -0.0000 O   0  0  0  0  0  0  0  0  0  0  0  0
   -7.6678   -4.6622   -0.0000 N   0  0  0  0  0  0  0  0  0  0  0  0
   -7.0644   -6.0230   -0.0000 N   0  0  0  0  0  0  0  0  0  0  0  0
  1  2  1  0  0  0  0
  2  3  2  0  0  0  0
  2  4  1  0  0  0  0
  3  5  1  0  0  0  0
  6  3  1  1  0  0  0
  4  7  2  0  0  0  0
  5  8  1  0  0  0  0
  5  9  2  0  0  0  0
  6 10  1  0  0  0  0
  6 11  1  0  0  0  0
  7 12  1  0  0  0  0
 10 13  1  0  0  0  0
 10 14  1  0  0  0  0
 11 15  2  0  0  0  0
 11 16  1  0  0  0  0
 12 17  2  0  0  0  0
 13 18  1  0  0  0  0
 13 19  1  6  0  0  0
 14 20  1  0  0  0  0
 15 21  1  0  0  0  0
 16 22  2  0  0  0  0
 17 23  1  0  0  0  0
 20 24  1  0  0  0  0
 20 25  1  0  0  0  0
 20 26  1  0  0  0  0
 21 27  2  0  0  0  0
 21 28  1  0  0  0  0
 23 29  2  0  0  0  0
 23 30  1  0  0  0  0
 27 31  1  0  0  0  0
 28 32  2  0  0  0  0
  7  9  1  0  0  0  0
 15 18  1  0  0  0  0
 22 27  1  0  0  0  0
 31 32  1  0  0  0  0
M  END
>  <MolRegNo>
2355861

>  <m>
=

>  <Value>
13000

>  <Unit>
nM

>  <Type>
IC50

>  <pValue>
4.89

>  <Ligand Efficiency>
0

>  <Binding Efficiency>
0

>  <Surface Efficiency>
0

>  <Assay Index>
1285340

>  <Assay Category>


>  <Assay Organism>
Homo sapiens

>  <Target ID>
17045

>  <Target Name>
Cytochrome P450 3A4

>  <Target Organism>
Homo sapiens

>  <Target Description>
Target is a single protein chain

>  <Sequence Accession>
P08684

>  <Reference>
J Med Chem 62 (3), 1593-1608 (2019)

>  <Pubmed ID>
30640465

>  <DOI>
10.1021/acs.jmedchem.8b01837

$$$$
2360195
Actelion Java MolfileCreator 1.0

 37 40  0  0  0  0  0  0  0  0999 V2000
    0.0000   -0.0000   -0.0000 S   0  0  0  0  0  0  0  0  0  0  0  0
   -0.7715    1.3175   -0.0000 O   0  0  0  0  0  0  0  0  0  0  0  0
    0.7359    1.3175   -0.0000 O   0  0  0  0  0  0  0  0  0  0  0  0
   -1.3056   -0.7477   -0.0000 N   0  0  0  0  0  0  0  0  0  0  0  0
    1.2819   -0.7359   -0.0000 C   0  0  0  0  0  0  0  0  0  0  0  0
   -1.3175   -2.2314   -0.0000 C   0  0  0  0  0  0  0  0  0  0  0  0
   -2.6231    0.0119   -0.0000 C   0  0  0  0  0  0  0  0  0  0  0  0
   -2.6231   -2.9673   -0.0000 C   0  0  0  0  0  0  0  0  0  0  0  0
   -3.9405   -0.7240   -0.0000 C   0  0  0  0  0  0  0  0  0  0  0  0
   -3.9405   -2.2076   -0.0000 N   0  0  0  0  0  0  0  0  0  0  0  0
   -5.2461   -2.9554   -0.0000 C   0  0  0  0  0  0  0  0  0  0  0  0
   -5.2461   -4.4390   -0.0000 C   0  0  0  0  0  0  0  0  0  0  0  0
   -3.9524   -5.1749   -0.0000 C   0  0  0  0  0  0  0  0  0  0  0  0
   -6.5517   -5.1868   -0.0000 C   0  0  0  0  0  0  0  0  0  0  0  0
   -3.9643   -6.6585   -0.0000 C   0  0  0  0  0  0  0  0  0  0  0  0
   -6.5517   -6.6704   -0.0000 C   0  0  0  0  0  0  0  0  0  0  0  0
   -5.2699   -7.3944   -0.0000 C   0  0  0  0  0  0  0  0  0  0  0  0
   -5.2817   -8.8780   -0.0000 N   0  0  0  0  0  0  0  0  0  0  0  0
   -6.5873   -9.6139   -0.0000 C   0  0  0  0  0  0  0  0  0  0  0  0
   -7.8929   -8.8543   -0.0000 N   0  0  0  0  0  0  0  0  0  0  0  0
   -6.5992  -11.1094   -0.0000 N   0  0  0  0  0  0  0  0  0  0  0  0
   -9.1985   -9.5902   -0.0000 C   0  0  0  0  0  0  0  0  0  0  0  0
   -7.9167  -11.8453   -0.0000 C   0  0  0  0  0  0  0  0  0  0  0  0
  -10.5041   -8.8306   -0.0000 O   0  0  0  0  0  0  0  0  0  0  0  0
   -9.2104  -11.0857   -0.0000 C   0  0  0  0  0  0  0  0  0  0  0  0
  -10.5160   -7.3232   -0.0000 C   0  0  0  0  0  0  0  0  0  0  0  0
   -9.2222   -6.5636   -0.0000 C   0  0  0  0  0  0  0  0  0  0  0  0
  -11.8216   -6.5754   -0.0000 C   0  0  0  0  0  0  0  0  0  0  0  0
   -9.2341   -5.0562   -0.0000 C   0  0  0  0  0  0  0  0  0  0  0  0
   -7.9404   -7.2995   -0.0000 C   0  0  0  0  0  0  0  0  0  0  0  0
  -11.8453   -5.0681   -0.0000 C   0  0  0  0  0  0  0  0  0  0  0  0
  -13.1272   -7.3113   -0.0000 C   0  0  0  0  0  0  0  0  0  0  0  0
  -10.5397   -4.2966   -0.0000 C   0  0  0  0  0  0  0  0  0  0  0  0
  -10.5516   -2.7892   -0.0000 C   0  0  0  0  0  0  0  0  0  0  0  0
   -9.2697   -2.0296   -0.0000 C   0  0  0  0  0  0  0  0  0  0  0  0
   -9.2816   -0.5222   -0.0000 C   0  0  0  0  0  0  0  0  0  0  0  0
   -9.2935    0.9851   -0.0000 N   0  0  0  0  0  0  0  0  0  0  0  0
  1  2  2  0  0  0  0
  1  3  2  0  0  0  0
  1  4  1  0  0  0  0
  1  5  1  0  0  0  0
  4  6  1  0  0  0  0
  4  7  1  0  0  0  0
  6  8  1  0  0  0  0
  7  9  1  0  0  0  0
  8 10  1  0  0  0  0
 10 11  1  0  0  0  0
 11 12  1  0  0  0  0
 12 13  2  0  0  0  0
 12 14  1  0  0  0  0
 13 15  1  0  0  0  0
 14 16  2  0  0  0  0
 15 17  2  0  0  0  0
 17 18  1  0  0  0  0
 18 19  1  0  0  0  0
 19 20  2  0  0  0  0
 19 21  1  0  0  0  0
 20 22  1  0  0  0  0
 21 23  2  0  0  0  0
 22 24  1  0  0  0  0
 22 25  2  0  0  0  0
 24 26  1  0  0  0  0
 26 27  2  0  0  0  0
 26 28  1  0  0  0  0
 27 29  1  0  0  0  0
 27 30  1  0  0  0  0
 28 31  2  0  0  0  0
 28 32  1  0  0  0  0
 29 33  2  0  0  0  0
 33 34  1  0  0  0  0
 34 35  2  0  0  0  0
 35 36  1  0  0  0  0
 36 37  3  0  0  0  0
  9 10  1  0  0  0  0
 16 17  1  0  0  0  0
 23 25  1  0  0  0  0
 31 33  1  0  0  0  0
M  END
>  <MolRegNo>
2360195

>  <m>
=

>  <Value>
20500

>  <Unit>
nM

>  <Type>
IC50

>  <pValue>
4.69

>  <Ligand Efficiency>
0

>  <Binding Efficiency>
0

>  <Surface Efficiency>
0

>  <Assay Index>
1285546

>  <Assay Category>


>  <Assay Organism>
Homo sapiens

>  <Target ID>
17045

>  <Target Name>
Cytochrome P450 3A4

>  <Target Organism>
Homo sapiens

>  <Target Description>
Target is a single protein chain

>  <Sequence Accession>
P08684

>  <Reference>
J Med Chem 62 (4), 2083-2098 (2019)

>  <Pubmed ID>
30721060

>  <DOI>
10.1021/acs.jmedchem.8b01729

$$$$
2463895
Actelion Java MolfileCreator 1.0

 33 36  0  0  1  0  0  0  0  0999 V2000
    0.0000   -0.0000   -0.0000 F   0  0  0  0  0  0  0  0  0  0  0  0
    1.1746   -0.6730   -0.0000 C   0  0  0  0  0  0  0  0  0  0  0  0
    0.9054    0.8932   -0.0000 F   0  0  0  0  0  0  0  0  0  0  0  0
   -0.3059   -1.2236   -0.0000 F   0  0  0  0  0  0  0  0  0  0  0  0
    2.4594   -1.4193   -0.0000 C   0  0  0  0  0  0  0  0  0  0  0  0
    2.4471   -2.9121   -0.0000 C   0  0  0  0  0  0  0  0  0  0  0  0
    3.7441   -0.6485   -0.0000 C   0  0  0  0  0  0  0  0  0  0  0  0
    3.7441   -3.6585   -0.0000 N   0  0  0  0  0  0  0  0  0  0  0  0
    5.0411   -1.3826   -0.0000 C   0  0  0  0  0  0  0  0  0  0  0  0
    5.0411   -2.8876   -0.0000 C   0  0  0  0  0  0  0  0  0  0  0  0
    6.3381   -3.6218   -0.0000 O   0  0  0  0  0  0  0  0  0  0  0  0
    7.6351   -2.8509   -0.0000 C   0  0  0  0  0  0  0  0  0  0  0  0
    8.9198   -3.5851   -0.0000 C   0  0  0  0  0  0  0  0  0  0  0  0
    7.6106   -1.3337   -0.0000 C   0  0  0  0  0  0  0  0  0  0  0  0
   10.2046   -2.8142   -0.0000 C   0  0  0  0  0  0  0  0  0  0  0  0
    8.8954   -0.5628   -0.0000 C   0  0  0  0  0  0  0  0  0  0  0  0
   10.1924   -1.2970   -0.0000 C   0  0  0  0  0  0  0  0  0  0  0  0
   11.5016   -3.5484   -0.0000 C   0  0  0  0  0  0  0  0  0  0  0  0
   12.7986   -2.7775   -0.0000 C   0  0  0  0  0  0  0  0  0  0  0  0
   12.7741   -1.2603   -0.0000 C   0  0  0  0  0  0  0  0  0  0  0  0
   14.0833   -3.5239   -0.0000 C   0  0  0  0  0  0  0  0  0  0  0  0
   14.0711   -0.5017   -0.0000 C   0  0  0  0  0  0  0  0  0  0  0  0
   15.3681   -2.7653   -0.0000 C   0  0  0  0  0  0  0  0  0  0  0  0
   15.3681   -1.2480   -0.0000 C   0  0  0  0  0  0  0  0  0  0  0  0
   16.6651   -0.4894   -0.0000 N   0  0  0  0  0  0  0  0  0  0  0  0
   17.9498   -1.2358   -0.0000 C   0  0  0  0  0  0  0  0  0  0  0  0
   17.9376   -2.7286   -0.0000 O   0  0  0  0  0  0  0  0  0  0  0  0
   19.2468   -0.4772   -0.0000 C   0  0  0  0  0  0  0  0  0  0  0  0
   19.2346    1.0278   -0.0000 C   0  0  0  0  0  0  0  0  0  0  0  0
   20.5315   -1.2236   -0.0000 C   0  0  0  0  0  0  0  0  0  0  0  0
   20.5193    1.7987   -0.0000 N   0  0  0  0  0  0  0  0  0  0  0  0
   21.8285   -0.4650   -0.0000 C   0  0  0  0  0  0  0  0  0  0  0  0
   21.8163    1.0523   -0.0000 C   0  0  0  0  0  0  0  0  0  0  0  0
  1  2  1  0  0  0  0
  2  3  1  0  0  0  0
  2  4  1  0  0  0  0
  2  5  1  0  0  0  0
  5  6  2  0  0  0  0
  5  7  1  0  0  0  0
  6  8  1  0  0  0  0
  7  9  2  0  0  0  0
  8 10  2  0  0  0  0
 10 11  1  0  0  0  0
 11 12  1  0  0  0  0
 12 13  2  0  0  0  0
 12 14  1  0  0  0  0
 13 15  1  0  0  0  0
 14 16  2  0  0  0  0
 15 17  2  0  0  0  0
 15 18  1  0  0  0  0
 18 19  2  0  0  0  0
 19 20  1  0  0  0  0
 19 21  1  0  0  0  0
 20 22  1  0  0  0  0
 21 23  1  0  0  0  0
 22 24  1  0  0  0  0
 24 25  1  6  0  0  0
 25 26  1  0  0  0  0
 26 27  2  0  0  0  0
 26 28  1  0  0  0  0
 28 29  2  0  0  0  0
 28 30  1  0  0  0  0
 29 31  1  0  0  0  0
 30 32  2  0  0  0  0
 31 33  2  0  0  0  0
  9 10  1  0  0  0  0
 16 17  1  0  0  0  0
 23 24  1  0  0  0  0
 32 33  1  0  0  0  0
M  END
>  <MolRegNo>
2463895

>  <m>
=

>  <Value>
0.4

>  <Unit>
nM

>  <Type>
IC50

>  <pValue>
9.4

>  <Ligand Efficiency>
0

>  <Binding Efficiency>
0

>  <Surface Efficiency>
0

>  <Assay Index>
1286851

>  <Assay Category>


>  <Assay Organism>
Homo sapiens

>  <Target ID>
17045

>  <Target Name>
Cytochrome P450 3A4

>  <Target Organism>
Homo sapiens

>  <Target Description>
Target is a single protein chain

>  <Sequence Accession>
P08684

>  <Reference>
Bioorg Med Chem Lett 29 (2), 238-243 (2019)

>  <Pubmed ID>
30503633

>  <DOI>
10.1016/j.bmcl.2018.11.048

$$$$
2355588
Actelion Java MolfileCreator 1.0

 33 36  0  0  0  0  0  0  0  0999 V2000
    0.0000   -0.0000   -0.0000 O   0  0  0  0  0  0  0  0  0  0  0  0
    1.2968   -0.7257   -0.0000 C   0  0  0  0  0  0  0  0  0  0  0  0
    1.2849   -2.2129   -0.0000 N   0  0  0  0  0  0  0  0  0  0  0  0
    2.5817    0.0357   -0.0000 C   0  0  0  0  0  0  0  0  0  0  0  0
   -0.0238   -2.9624   -0.0000 C   0  0  0  0  0  0  0  0  0  0  0  0
    3.8547   -0.7019   -0.0000 C   0  0  0  0  0  0  0  0  0  0  0  0
    2.5579    1.5347   -0.0000 C   0  0  0  0  0  0  0  0  0  0  0  0
   -0.0357   -4.4615   -0.0000 C   0  0  0  0  0  0  0  0  0  0  0  0
   -1.3444   -2.2010   -0.0000 C   0  0  0  0  0  0  0  0  0  0  0  0
    3.8428   -2.1891   -0.0000 O   0  0  0  0  0  0  0  0  0  0  0  0
    5.1396    0.0595   -0.0000 C   0  0  0  0  0  0  0  0  0  0  0  0
    3.8309    2.3081   -0.0000 C   0  0  0  0  0  0  0  0  0  0  0  0
   -1.3563   -5.1991   -0.0000 N   0  0  0  0  0  0  0  0  0  0  0  0
   -2.6531   -2.9386   -0.0000 C   0  0  0  0  0  0  0  0  0  0  0  0
    5.1277   -2.9267   -0.0000 C   0  0  0  0  0  0  0  0  0  0  0  0
    5.1277    1.5704   -0.0000 C   0  0  0  0  0  0  0  0  0  0  0  0
    3.8071    3.8190   -0.0000 N   0  0  0  0  0  0  0  0  0  0  0  0
   -2.6650   -4.4377   -0.0000 N   0  0  0  0  0  0  0  0  0  0  0  0
    6.4126   -2.1653   -0.0000 C   0  0  0  0  0  0  0  0  0  0  0  0
    5.0920    4.5804   -0.0000 C   0  0  0  0  0  0  0  0  0  0  0  0
    2.4984    4.5567   -0.0000 C   0  0  0  0  0  0  0  0  0  0  0  0
    7.6975   -2.9148   -0.0000 C   0  0  0  0  0  0  0  0  0  0  0  0
    6.3888   -0.6543   -0.0000 C   0  0  0  0  0  0  0  0  0  0  0  0
    5.0682    6.0914   -0.0000 C   0  0  0  0  0  0  0  0  0  0  0  0
    2.4865    6.0795   -0.0000 C   0  0  0  0  0  0  0  0  0  0  0  0
    8.9824   -2.1534   -0.0000 C   0  0  0  0  0  0  0  0  0  0  0  0
    7.6737    0.1071   -0.0000 C   0  0  0  0  0  0  0  0  0  0  0  0
    3.7476    6.8528   -0.0000 N   0  0  0  0  0  0  0  0  0  0  0  0
    8.9705   -0.6425   -0.0000 C   0  0  0  0  0  0  0  0  0  0  0  0
    3.7357    8.3638   -0.0000 C   0  0  0  0  0  0  0  0  0  0  0  0
    5.0206    9.1252   -0.0000 C   0  0  0  0  0  0  0  0  0  0  0  0
    5.0087   10.6362   -0.0000 O   0  0  0  0  0  0  0  0  0  0  0  0
    6.2937   11.4095   -0.0000 C   0  0  0  0  0  0  0  0  0  0  0  0
  1  2  2  0  0  0  0
  2  3  1  0  0  0  0
  2  4  1  0  0  0  0
  3  5  1  0  0  0  0
  4  6  2  0  0  0  0
  4  7  1  0  0  0  0
  5  8  2  0  0  0  0
  5  9  1  0  0  0  0
  6 10  1  0  0  0  0
  6 11  1  0  0  0  0
  7 12  2  0  0  0  0
  8 13  1  0  0  0  0
  9 14  2  0  0  0  0
 10 15  1  0  0  0  0
 11 16  2  0  0  0  0
 12 17  1  0  0  0  0
 13 18  2  0  0  0  0
 15 19  1  0  0  0  0
 17 20  1  0  0  0  0
 17 21  1  0  0  0  0
 19 22  2  0  0  0  0
 19 23  1  0  0  0  0
 20 24  1  0  0  0  0
 21 25  1  0  0  0  0
 22 26  1  0  0  0  0
 23 27  2  0  0  0  0
 24 28  1  0  0  0  0
 26 29  2  0  0  0  0
 28 30  1  0  0  0  0
 30 31  1  0  0  0  0
 31 32  1  0  0  0  0
 32 33  1  0  0  0  0
 12 16  1  0  0  0  0
 14 18  1  0  0  0  0
 25 28  1  0  0  0  0
 27 29  1  0  0  0  0
M  END
>  <MolRegNo>
2355588

>  <m>
=

>  <Value>
10000

>  <Unit>
nM

>  <Type>
IC50

>  <pValue>
5

>  <Ligand Efficiency>
0

>  <Binding Efficiency>
0

>  <Surface Efficiency>
0

>  <Assay Index>
1287149

>  <Assay Category>


>  <Assay Organism>
Homo sapiens

>  <Target ID>
17045

>  <Target Name>
Cytochrome P450 3A4

>  <Target Organism>
Homo sapiens

>  <Target Description>
Target is a single protein chain

>  <Sequence Accession>
P08684

>  <Reference>
Bioorg Med Chem Lett 29 (2), 212-215 (2019)

>  <Pubmed ID>
30522952

>  <DOI>
10.1016/j.bmcl.2018.11.054

$$$$
2364656
Actelion Java MolfileCreator 1.0

 29 32  0  0  0  0  0  0  0  0999 V2000
    0.0000   -0.0000   -0.0000 O   0  0  0  0  0  0  0  0  0  0  0  0
    1.2967   -0.7376   -0.0000 C   0  0  0  0  0  0  0  0  0  0  0  0
    1.2848   -2.2247   -0.0000 N   0  0  0  0  0  0  0  0  0  0  0  0
    2.5815    0.0357   -0.0000 C   0  0  0  0  0  0  0  0  0  0  0  0
   -0.0238   -2.9622   -0.0000 C   0  0  0  0  0  0  0  0  0  0  0  0
    3.8545   -0.7138   -0.0000 C   0  0  0  0  0  0  0  0  0  0  0  0
    2.5578    1.5347   -0.0000 C   0  0  0  0  0  0  0  0  0  0  0  0
   -0.0357   -4.4612   -0.0000 C   0  0  0  0  0  0  0  0  0  0  0  0
   -1.3443   -2.2128   -0.0000 C   0  0  0  0  0  0  0  0  0  0  0  0
    3.8426   -2.2009   -0.0000 O   0  0  0  0  0  0  0  0  0  0  0  0
    5.1393    0.0595   -0.0000 C   0  0  0  0  0  0  0  0  0  0  0  0
    3.8307    2.2960   -0.0000 C   0  0  0  0  0  0  0  0  0  0  0  0
   -1.3562   -5.2107   -0.0000 N   0  0  0  0  0  0  0  0  0  0  0  0
   -2.6529   -2.9503   -0.0000 C   0  0  0  0  0  0  0  0  0  0  0  0
    5.1274   -2.9384   -0.0000 C   0  0  0  0  0  0  0  0  0  0  0  0
    5.1274    1.5703   -0.0000 C   0  0  0  0  0  0  0  0  0  0  0  0
    3.8069    3.8069   -0.0000 N   0  0  0  0  0  0  0  0  0  0  0  0
   -2.6648   -4.4493   -0.0000 N   0  0  0  0  0  0  0  0  0  0  0  0
    6.4122   -2.1771   -0.0000 C   0  0  0  0  0  0  0  0  0  0  0  0
    5.0917    4.5802   -0.0000 C   0  0  0  0  0  0  0  0  0  0  0  0
    2.4983    4.5564   -0.0000 C   0  0  0  0  0  0  0  0  0  0  0  0
    7.6971   -2.9146   -0.0000 C   0  0  0  0  0  0  0  0  0  0  0  0
    6.3884   -0.6662   -0.0000 C   0  0  0  0  0  0  0  0  0  0  0  0
    5.0679    6.0910   -0.0000 C   0  0  0  0  0  0  0  0  0  0  0  0
    2.4864    6.0791   -0.0000 C   0  0  0  0  0  0  0  0  0  0  0  0
    8.9819   -2.1533   -0.0000 C   0  0  0  0  0  0  0  0  0  0  0  0
    7.6733    0.1071   -0.0000 C   0  0  0  0  0  0  0  0  0  0  0  0
    3.7474    6.8524   -0.0000 O   0  0  0  0  0  0  0  0  0  0  0  0
    8.9700   -0.6424   -0.0000 C   0  0  0  0  0  0  0  0  0  0  0  0
  1  2  2  0  0  0  0
  2  3  1  0  0  0  0
  2  4  1  0  0  0  0
  3  5  1  0  0  0  0
  4  6  2  0  0  0  0
  4  7  1  0  0  0  0
  5  8  2  0  0  0  0
  5  9  1  0  0  0  0
  6 10  1  0  0  0  0
  6 11  1  0  0  0  0
  7 12  2  0  0  0  0
  8 13  1  0  0  0  0
  9 14  2  0  0  0  0
 10 15  1  0  0  0  0
 11 16  2  0  0  0  0
 12 17  1  0  0  0  0
 13 18  2  0  0  0  0
 15 19  1  0  0  0  0
 17 20  1  0  0  0  0
 17 21  1  0  0  0  0
 19 22  2  0  0  0  0
 19 23  1  0  0  0  0
 20 24  1  0  0  0  0
 21 25  1  0  0  0  0
 22 26  1  0  0  0  0
 23 27  2  0  0  0  0
 24 28  1  0  0  0  0
 26 29  2  0  0  0  0
 12 16  1  0  0  0  0
 14 18  1  0  0  0  0
 25 28  1  0  0  0  0
 27 29  1  0  0  0  0
M  END
>  <MolRegNo>
2364656

>  <m>
=

>  <Value>
6309.6

>  <Unit>
nM

>  <Type>
IC50

>  <pValue>
5.2

>  <Ligand Efficiency>
0

>  <Binding Efficiency>
0

>  <Surface Efficiency>
0

>  <Assay Index>
1287149

>  <Assay Category>


>  <Assay Organism>
Homo sapiens

>  <Target ID>
17045

>  <Target Name>
Cytochrome P450 3A4

>  <Target Organism>
Homo sapiens

>  <Target Description>
Target is a single protein chain

>  <Sequence Accession>
P08684

>  <Reference>
Bioorg Med Chem Lett 29 (2), 212-215 (2019)

>  <Pubmed ID>
30522952

>  <DOI>
10.1016/j.bmcl.2018.11.054

$$$$
2362905
Actelion Java MolfileCreator 1.0

 30 34  0  0  0  0  0  0  0  0999 V2000
    0.0000   -0.0000   -0.0000 Br  0  0  0  0  0  0  0  0  0  0  0  0
    1.2826    0.7720   -0.0000 C   0  0  0  0  0  0  0  0  0  0  0  0
    2.6366    0.1781   -0.0000 N   0  0  0  0  0  0  0  0  0  0  0  0
    1.4133    2.2684   -0.0000 C   0  0  0  0  0  0  0  0  0  0  0  0
    3.6223    1.3064   -0.0000 N   0  0  0  0  0  0  0  0  0  0  0  0
    0.3919    3.3966   -0.0000 C   0  0  0  0  0  0  0  0  0  0  0  0
    2.8622    2.6009   -0.0000 C   0  0  0  0  0  0  0  0  0  0  0  0
    5.1068    1.1639   -0.0000 C   0  0  0  0  0  0  0  0  0  0  0  0
   -1.0807    3.0879   -0.0000 N   0  0  0  0  0  0  0  0  0  0  0  0
    0.8313    4.8337   -0.0000 C   0  0  0  0  0  0  0  0  0  0  0  0
    3.3135    4.0380   -0.0000 C   0  0  0  0  0  0  0  0  0  0  0  0
    5.7125   -0.1900   -0.0000 C   0  0  0  0  0  0  0  0  0  0  0  0
   -2.1021    4.2042   -0.0000 C   0  0  0  0  0  0  0  0  0  0  0  0
    2.2803    5.1662   -0.0000 C   0  0  0  0  0  0  0  0  0  0  0  0
    7.1852   -0.3207   -0.0000 C   0  0  0  0  0  0  0  0  0  0  0  0
    4.8218   -1.3895   -0.0000 C   0  0  0  0  0  0  0  0  0  0  0  0
   -1.6508    5.6413   -0.0000 O   0  0  0  0  0  0  0  0  0  0  0  0
   -3.5748    3.8954   -0.0000 C   0  0  0  0  0  0  0  0  0  0  0  0
    7.7909   -1.6627   -0.0000 N   0  0  0  0  0  0  0  0  0  0  0  0
    5.4275   -2.7434   -0.0000 C   0  0  0  0  0  0  0  0  0  0  0  0
   -4.7030    4.9049   -0.0000 C   0  0  0  0  0  0  0  0  0  0  0  0
   -4.1924    2.5415   -0.0000 C   0  0  0  0  0  0  0  0  0  0  0  0
    6.9002   -2.8741   -0.0000 C   0  0  0  0  0  0  0  0  0  0  0  0
   -4.7149    6.4251   -0.0000 N   0  0  0  0  0  0  0  0  0  0  0  0
   -6.0094    4.1686   -0.0000 C   0  0  0  0  0  0  0  0  0  0  0  0
   -5.6888    2.7078   -0.0000 S   0  0  0  0  0  0  0  0  0  0  0  0
   -6.0213    7.1852   -0.0000 C   0  0  0  0  0  0  0  0  0  0  0  0
   -7.3277    4.9287   -0.0000 C   0  0  0  0  0  0  0  0  0  0  0  0
   -7.3277    6.4489   -0.0000 N   0  0  0  0  0  0  0  0  0  0  0  0
   -8.6341    4.1924   -0.0000 N   0  0  0  0  0  0  0  0  0  0  0  0
  1  2  1  0  0  0  0
  2  3  2  0  0  0  0
  2  4  1  0  0  0  0
  3  5  1  0  0  0  0
  4  6  2  0  0  0  0
  4  7  1  0  0  0  0
  5  8  1  0  0  0  0
  6  9  1  0  0  0  0
  6 10  1  0  0  0  0
  7 11  2  0  0  0  0
  8 12  1  0  0  0  0
  9 13  1  0  0  0  0
 10 14  2  0  0  0  0
 12 15  2  0  0  0  0
 12 16  1  0  0  0  0
 13 17  2  0  0  0  0
 13 18  1  0  0  0  0
 15 19  1  0  0  0  0
 16 20  2  0  0  0  0
 18 21  1  0  0  0  0
 18 22  2  0  0  0  0
 19 23  2  0  0  0  0
 21 24  2  0  0  0  0
 21 25  1  0  0  0  0
 22 26  1  0  0  0  0
 24 27  1  0  0  0  0
 25 28  2  0  0  0  0
 27 29  2  0  0  0  0
 28 30  1  0  0  0  0
  5  7  1  0  0  0  0
 11 14  1  0  0  0  0
 20 23  1  0  0  0  0
 25 26  1  0  0  0  0
 28 29  1  0  0  0  0
M  END
>  <MolRegNo>
2362905

>  <m>
=

>  <Value>
310

>  <Unit>
nM

>  <Type>
IC50

>  <pValue>
6.51

>  <Ligand Efficiency>
0

>  <Binding Efficiency>
0

>  <Surface Efficiency>
0

>  <Assay Index>
1287226

>  <Assay Category>


>  <Assay Organism>
Homo sapiens

>  <Target ID>
17045

>  <Target Name>
Cytochrome P450 3A4

>  <Target Organism>
Homo sapiens

>  <Target Description>
Target is a single protein chain

>  <Sequence Accession>
P08684

>  <Reference>
Bioorg Med Chem Lett 29 (2), 271-275 (2019)

>  <Pubmed ID>
30522957

>  <DOI>
10.1016/j.bmcl.2018.11.037

$$$$
2420473
Actelion Java MolfileCreator 1.0

 29 31  0  0  0  0  0  0  0  0999 V2000
    0.0000   -0.0000   -0.0000 S   0  0  0  0  0  0  0  0  0  0  0  0
   -0.7681    1.3117   -0.0000 O   0  0  0  0  0  0  0  0  0  0  0  0
    0.7327    1.3235   -0.0000 O   0  0  0  0  0  0  0  0  0  0  0  0
   -1.3117   -0.7563   -0.0000 N   0  0  0  0  0  0  0  0  0  0  0  0
    1.2999   -0.7445   -0.0000 C   0  0  0  0  0  0  0  0  0  0  0  0
   -2.6234   -0.0000   -0.0000 C   0  0  0  0  0  0  0  0  0  0  0  0
   -2.6470    1.5126   -0.0000 O   0  0  0  0  0  0  0  0  0  0  0  0
   -3.9351   -0.7563   -0.0000 C   0  0  0  0  0  0  0  0  0  0  0  0
   -3.9351   -2.2334   -0.0000 C   0  0  0  0  0  0  0  0  0  0  0  0
   -5.2467    0.0118   -0.0000 C   0  0  0  0  0  0  0  0  0  0  0  0
   -2.6470   -2.9543   -0.0000 F   0  0  0  0  0  0  0  0  0  0  0  0
   -5.2349   -2.9779   -0.0000 C   0  0  0  0  0  0  0  0  0  0  0  0
   -6.5584   -0.7445   -0.0000 C   0  0  0  0  0  0  0  0  0  0  0  0
   -6.5584   -2.2334   -0.0000 C   0  0  0  0  0  0  0  0  0  0  0  0
   -8.0001   -0.2836   -0.0000 N   0  0  0  0  0  0  0  0  0  0  0  0
   -7.9883   -2.6943   -0.0000 C   0  0  0  0  0  0  0  0  0  0  0  0
   -8.8746   -1.4889   -0.0000 C   0  0  0  0  0  0  0  0  0  0  0  0
   -8.4846    1.1462   -0.0000 C   0  0  0  0  0  0  0  0  0  0  0  0
   -8.4492   -4.1123   -0.0000 C   0  0  0  0  0  0  0  0  0  0  0  0
   -9.9263   -4.4196   -0.0000 C   0  0  0  0  0  0  0  0  0  0  0  0
   -7.4447   -5.1995   -0.0000 C   0  0  0  0  0  0  0  0  0  0  0  0
  -10.3871   -5.8376   -0.0000 N   0  0  0  0  0  0  0  0  0  0  0  0
   -7.9056   -6.6175   -0.0000 C   0  0  0  0  0  0  0  0  0  0  0  0
   -9.3827   -6.9366   -0.0000 C   0  0  0  0  0  0  0  0  0  0  0  0
   -9.8436   -8.3546   -0.0000 O   0  0  0  0  0  0  0  0  0  0  0  0
  -11.3089   -8.6619   -0.0000 C   0  0  0  0  0  0  0  0  0  0  0  0
  -11.7697  -10.0799   -0.0000 C   0  0  0  0  0  0  0  0  0  0  0  0
  -13.2350  -10.3871   -0.0000 C   0  0  0  0  0  0  0  0  0  0  0  0
  -10.7771  -11.1671   -0.0000 C   0  0  0  0  0  0  0  0  0  0  0  0
  1  2  2  0  0  0  0
  1  3  2  0  0  0  0
  1  4  1  0  0  0  0
  1  5  1  0  0  0  0
  4  6  1  0  0  0  0
  6  7  2  0  0  0  0
  6  8  1  0  0  0  0
  8  9  2  0  0  0  0
  8 10  1  0  0  0  0
  9 11  1  0  0  0  0
  9 12  1  0  0  0  0
 10 13  2  0  0  0  0
 12 14  2  0  0  0  0
 13 15  1  0  0  0  0
 14 16  1  0  0  0  0
 15 17  1  0  0  0  0
 15 18  1  0  0  0  0
 16 19  1  0  0  0  0
 19 20  2  0  0  0  0
 19 21  1  0  0  0  0
 20 22  1  0  0  0  0
 21 23  2  0  0  0  0
 22 24  2  0  0  0  0
 24 25  1  0  0  0  0
 25 26  1  0  0  0  0
 26 27  1  0  0  0  0
 27 28  1  0  0  0  0
 27 29  1  0  0  0  0
 13 14  1  0  0  0  0
 16 17  2  0  0  0  0
 23 24  1  0  0  0  0
M  END
>  <MolRegNo>
2420473

>  <m>
=

>  <Value>
15000

>  <Unit>
nM

>  <Type>
IC50

>  <pValue>
4.82

>  <Ligand Efficiency>
0

>  <Binding Efficiency>
0

>  <Surface Efficiency>
0

>  <Assay Index>
1288118

>  <Assay Category>


>  <Assay Organism>
Homo sapiens

>  <Target ID>
17045

>  <Target Name>
Cytochrome P450 3A4

>  <Target Organism>
Homo sapiens

>  <Target Description>
Target is a single protein chain

>  <Sequence Accession>
P08684

>  <Reference>
J Med Chem 62 (2), 831-856 (2019)

>  <Pubmed ID>
30576602

>  <DOI>
10.1021/acs.jmedchem.8b01550

$$$$
2358355
Actelion Java MolfileCreator 1.0

 41 45  0  0  0  0  0  0  0  0999 V2000
    0.0000   -0.0000   -0.0000 Cl  0  0  0  0  0  0  0  0  0  0  0  0
   -1.4769   -0.3072   -0.0000 C   0  0  0  0  0  0  0  0  0  0  0  0
   -2.4930    0.8153   -0.0000 C   0  0  0  0  0  0  0  0  0  0  0  0
   -1.9495   -1.7250   -0.0000 C   0  0  0  0  0  0  0  0  0  0  0  0
   -2.0440    2.2567   -0.0000 O   0  0  0  0  0  0  0  0  0  0  0  0
   -3.9699    0.5081   -0.0000 C   0  0  0  0  0  0  0  0  0  0  0  0
   -3.4382   -2.0204   -0.0000 C   0  0  0  0  0  0  0  0  0  0  0  0
   -0.9570   -2.8239   -0.0000 C   0  0  0  0  0  0  0  0  0  0  0  0
   -0.5908    2.5875   -0.0000 C   0  0  0  0  0  0  0  0  0  0  0  0
   -4.4425   -0.8980   -0.0000 C   0  0  0  0  0  0  0  0  0  0  0  0
   -3.8990   -3.4264   -0.0000 C   0  0  0  0  0  0  0  0  0  0  0  0
   -0.1418    4.0290   -0.0000 C   0  0  0  0  0  0  0  0  0  0  0  0
   -5.3405   -3.8754   -0.0000 C   0  0  0  0  0  0  0  0  0  0  0  0
   -3.0365   -4.6316   -0.0000 C   0  0  0  0  0  0  0  0  0  0  0  0
    1.3115    4.3598   -0.0000 N   0  0  0  0  0  0  0  0  0  0  0  0
   -6.6520   -3.1192   -0.0000 C   0  0  0  0  0  0  0  0  0  0  0  0
   -5.3523   -5.3641   -0.0000 C   0  0  0  0  0  0  0  0  0  0  0  0
   -3.9227   -5.8367   -0.0000 S   0  0  0  0  0  0  0  0  0  0  0  0
   -1.5478   -4.6198   -0.0000 C   0  0  0  0  0  0  0  0  0  0  0  0
    2.3040    3.2492   -0.0000 C   0  0  0  0  0  0  0  0  0  0  0  0
    1.7605    5.7895   -0.0000 C   0  0  0  0  0  0  0  0  0  0  0  0
   -7.9635   -3.8518   -0.0000 N   0  0  0  0  0  0  0  0  0  0  0  0
   -6.6638   -1.6069   -0.0000 N   0  0  0  0  0  0  0  0  0  0  0  0
   -6.6638   -6.1085   -0.0000 N   0  0  0  0  0  0  0  0  0  0  0  0
   -0.8153   -5.9076   -0.0000 C   0  0  0  0  0  0  0  0  0  0  0  0
    3.7454    3.5682   -0.0000 C   0  0  0  0  0  0  0  0  0  0  0  0
    3.2138    6.1085   -0.0000 C   0  0  0  0  0  0  0  0  0  0  0  0
   -7.9753   -5.3405   -0.0000 C   0  0  0  0  0  0  0  0  0  0  0  0
   -7.9753   -0.8507   -0.0000 C   0  0  0  0  0  0  0  0  0  0  0  0
    4.1944    4.9979   -0.0000 N   0  0  0  0  0  0  0  0  0  0  0  0
   -9.2868   -1.5951   -0.0000 C   0  0  0  0  0  0  0  0  0  0  0  0
   -7.9871    0.6617   -0.0000 C   0  0  0  0  0  0  0  0  0  0  0  0
    5.6241    5.3996   -0.0000 C   0  0  0  0  0  0  0  0  0  0  0  0
   -9.2986   -3.0838   -0.0000 O   0  0  0  0  0  0  0  0  0  0  0  0
  -10.5983   -0.8389   -0.0000 O   0  0  0  0  0  0  0  0  0  0  0  0
   -9.2986    1.4178   -0.0000 C   0  0  0  0  0  0  0  0  0  0  0  0
   -9.2986    2.9302   -0.0000 C   0  0  0  0  0  0  0  0  0  0  0  0
  -10.5983    0.6853   -0.0000 C   0  0  0  0  0  0  0  0  0  0  0  0
  -10.6101    3.6864   -0.0000 C   0  0  0  0  0  0  0  0  0  0  0  0
  -11.9098    1.4415   -0.0000 C   0  0  0  0  0  0  0  0  0  0  0  0
  -11.9216    2.9420   -0.0000 C   0  0  0  0  0  0  0  0  0  0  0  0
  1  2  1  0  0  0  0
  2  3  2  0  0  0  0
  2  4  1  0  0  0  0
  3  5  1  0  0  0  0
  3  6  1  0  0  0  0
  4  7  2  0  0  0  0
  4  8  1  0  0  0  0
  5  9  1  0  0  0  0
  6 10  2  0  0  0  0
  7 11  1  0  0  0  0
  9 12  1  0  0  0  0
 11 13  1  0  0  0  0
 11 14  2  0  0  0  0
 12 15  1  0  0  0  0
 13 16  2  0  0  0  0
 13 17  1  0  0  0  0
 14 18  1  0  0  0  0
 14 19  1  0  0  0  0
 15 20  1  0  0  0  0
 15 21  1  0  0  0  0
 16 22  1  0  0  0  0
 16 23  1  0  0  0  0
 17 24  2  0  0  0  0
 19 25  1  0  0  0  0
 20 26  1  0  0  0  0
 21 27  1  0  0  0  0
 22 28  2  0  0  0  0
 29 23  1  6  0  0  0
 26 30  1  0  0  0  0
 29 31  1  0  0  0  0
 29 32  1  0  0  0  0
 30 33  1  0  0  0  0
 31 34  2  0  0  0  0
 31 35  1  0  0  0  0
 32 36  1  0  0  0  0
 36 37  2  0  0  0  0
 36 38  1  0  0  0  0
 37 39  1  0  0  0  0
 38 40  2  0  0  0  0
 39 41  2  0  0  0  0
  7 10  1  0  0  0  0
 17 18  1  0  0  0  0
 24 28  1  0  0  0  0
 27 30  1  0  0  0  0
 40 41  1  0  0  0  0
M  END
>  <MolRegNo>
2358355

>  <m>
=

>  <Value>
5200

>  <Unit>
nM

>  <Type>
IC50

>  <pValue>
5.28

>  <Ligand Efficiency>
0

>  <Binding Efficiency>
0

>  <Surface Efficiency>
0

>  <Assay Index>
1289882

>  <Assay Category>


>  <Assay Organism>
Homo sapiens

>  <Target ID>
17045

>  <Target Name>
Cytochrome P450 3A4

>  <Target Organism>
Homo sapiens

>  <Target Description>
Target is a single protein chain

>  <Sequence Accession>
P08684

>  <Reference>
J Med Chem 62 (15), 6913-6924 (2019)

>  <Pubmed ID>
31339316

>  <DOI>
10.1021/acs.jmedchem.9b00134

$$$$
2361372
Actelion Java MolfileCreator 1.0

 45 49  0  0  0  0  0  0  0  0999 V2000
    0.0000   -0.0000   -0.0000 O   0  0  0  0  0  0  0  0  0  0  0  0
   -0.0119    1.5085   -0.0000 C   0  0  0  0  0  0  0  0  0  0  0  0
    1.2710    2.2806   -0.0000 O   0  0  0  0  0  0  0  0  0  0  0  0
   -1.3185    2.2687   -0.0000 C   0  0  0  0  0  0  0  0  0  0  0  0
    1.2591    3.7891   -0.0000 C   0  0  0  0  0  0  0  0  0  0  0  0
   -2.6132    1.5204   -0.0000 N   0  0  0  0  0  0  0  0  0  0  0  0
   -1.3185    3.7772   -0.0000 C   0  0  0  0  0  0  0  0  0  0  0  0
    2.5419    4.5493   -0.0000 C   0  0  0  0  0  0  0  0  0  0  0  0
   -0.0475    4.5493   -0.0000 C   0  0  0  0  0  0  0  0  0  0  0  0
   -2.6251    0.0356   -0.0000 C   0  0  0  0  0  0  0  0  0  0  0  0
   -3.9316    2.2925   -0.0000 C   0  0  0  0  0  0  0  0  0  0  0  0
   -2.6251    4.5374   -0.0000 C   0  0  0  0  0  0  0  0  0  0  0  0
    3.8129    3.8129   -0.0000 C   0  0  0  0  0  0  0  0  0  0  0  0
    2.5182    6.0578   -0.0000 C   0  0  0  0  0  0  0  0  0  0  0  0
   -0.0594    6.0578   -0.0000 C   0  0  0  0  0  0  0  0  0  0  0  0
   -1.3303   -0.6889   -0.0000 O   0  0  0  0  0  0  0  0  0  0  0  0
   -3.9316   -0.7008   -0.0000 C   0  0  0  0  0  0  0  0  0  0  0  0
   -3.9435    3.8010   -0.0000 C   0  0  0  0  0  0  0  0  0  0  0  0
    5.0957    4.5731   -0.0000 C   0  0  0  0  0  0  0  0  0  0  0  0
    3.7891    6.8299   -0.0000 C   0  0  0  0  0  0  0  0  0  0  0  0
   -1.3660    6.8180   -0.0000 C   0  0  0  0  0  0  0  0  0  0  0  0
   -3.9316   -2.1974   -0.0000 C   0  0  0  0  0  0  0  0  0  0  0  0
   -5.2382    0.0475   -0.0000 C   0  0  0  0  0  0  0  0  0  0  0  0
    6.3785    3.8366   -0.0000 O   0  0  0  0  0  0  0  0  0  0  0  0
    5.0838    6.0816   -0.0000 C   0  0  0  0  0  0  0  0  0  0  0  0
   -2.6844    6.0697   -0.0000 C   0  0  0  0  0  0  0  0  0  0  0  0
   -1.3779    8.3384   -0.0000 C   0  0  0  0  0  0  0  0  0  0  0  0
   -5.2382   -2.9339   -0.0000 C   0  0  0  0  0  0  0  0  0  0  0  0
   -2.6488   -2.9339   -0.0000 C   0  0  0  0  0  0  0  0  0  0  0  0
   -6.5448   -0.6889   -0.0000 C   0  0  0  0  0  0  0  0  0  0  0  0
    7.6614    4.5968   -0.0000 C   0  0  0  0  0  0  0  0  0  0  0  0
   -3.9910    6.8299   -0.0000 C   0  0  0  0  0  0  0  0  0  0  0  0
   -2.6844    9.0867   -0.0000 C   0  0  0  0  0  0  0  0  0  0  0  0
   -6.5567   -2.1737   -0.0000 C   0  0  0  0  0  0  0  0  0  0  0  0
   -5.2501   -4.4068   -0.0000 C   0  0  0  0  0  0  0  0  0  0  0  0
   -2.6607   -4.4186   -0.0000 C   0  0  0  0  0  0  0  0  0  0  0  0
    8.9442    3.8604   -0.0000 C   0  0  0  0  0  0  0  0  0  0  0  0
   -5.2976    6.0935   -0.0000 O   0  0  0  0  0  0  0  0  0  0  0  0
   -4.0029    8.3503   -0.0000 C   0  0  0  0  0  0  0  0  0  0  0  0
   -3.9673   -5.1432   -0.0000 C   0  0  0  0  0  0  0  0  0  0  0  0
    8.9323    2.3756   -0.0000 O   0  0  0  0  0  0  0  0  0  0  0  0
   10.2270    4.6206   -0.0000 O   0  0  0  0  0  0  0  0  0  0  0  0
   -6.6042    6.8537   -0.0000 C   0  0  0  0  0  0  0  0  0  0  0  0
   -5.3095    9.1105   -0.0000 O   0  0  0  0  0  0  0  0  0  0  0  0
   -5.3214   10.6190   -0.0000 C   0  0  0  0  0  0  0  0  0  0  0  0
  1  2  2  0  0  0  0
  2  3  1  0  0  0  0
  4  2  1  1  0  0  0
  5  3  1  6  0  0  0
  4  6  1  0  0  0  0
  4  7  1  0  0  0  0
  5  8  1  0  0  0  0
  5  9  1  0  0  0  0
  6 10  1  0  0  0  0
  6 11  1  0  0  0  0
  7 12  1  0  0  0  0
  8 13  2  0  0  0  0
  8 14  1  0  0  0  0
  9 15  1  0  0  0  0
 10 16  2  0  0  0  0
 17 10  1  1  0  0  0
 11 18  1  0  0  0  0
 13 19  1  0  0  0  0
 14 20  2  0  0  0  0
 15 21  1  0  0  0  0
 17 22  1  0  0  0  0
 17 23  1  0  0  0  0
 19 24  1  0  0  0  0
 19 25  2  0  0  0  0
 21 26  2  0  0  0  0
 21 27  1  0  0  0  0
 22 28  1  0  0  0  0
 22 29  1  6  0  0  0
 23 30  1  0  0  0  0
 24 31  1  0  0  0  0
 26 32  1  0  0  0  0
 27 33  2  0  0  0  0
 28 34  1  1  0  0  0
 28 35  1  0  0  0  0
 29 36  1  0  0  0  0
 31 37  1  0  0  0  0
 32 38  1  0  0  0  0
 32 39  2  0  0  0  0
 35 40  1  0  0  0  0
 37 41  2  0  0  0  0
 37 42  1  0  0  0  0
 38 43  1  0  0  0  0
 39 44  1  0  0  0  0
 44 45  1  0  0  0  0
 12 18  1  0  0  0  0
 20 25  1  0  0  0  0
 30 34  1  0  0  0  0
 33 39  1  0  0  0  0
 36 40  1  0  0  0  0
M  END
>  <MolRegNo>
2361372

>  <m>
=

>  <Value>
8400

>  <Unit>
nM

>  <Type>
IC50

>  <pValue>
5.08

>  <Ligand Efficiency>
0

>  <Binding Efficiency>
0

>  <Surface Efficiency>
0

>  <Assay Index>
1294550

>  <Assay Category>


>  <Assay Organism>
Homo sapiens

>  <Target ID>
17045

>  <Target Name>
Cytochrome P450 3A4

>  <Target Organism>
Homo sapiens

>  <Target Description>
Target is a single protein chain

>  <Sequence Accession>
P08684

>  <Reference>
J Med Chem 63 (1), 231-240 (2020)

>  <Pubmed ID>
31800244

>  <DOI>
10.1021/acs.jmedchem.9b01157

$$$$
2363321
Actelion Java MolfileCreator 1.0

 30 32  0  0  0  0  0  0  0  0999 V2000
    0.0000   -0.0000   -0.0000 Cl  0  0  0  0  0  0  0  0  0  0  0  0
    1.2858    0.7550   -0.0000 C   0  0  0  0  0  0  0  0  0  0  0  0
    1.2858    2.2649   -0.0000 C   0  0  0  0  0  0  0  0  0  0  0  0
    2.5716    0.0236   -0.0000 C   0  0  0  0  0  0  0  0  0  0  0  0
   -0.0236    3.0317   -0.0000 S   0  0  0  0  0  0  0  0  0  0  0  0
    2.5598    3.0199   -0.0000 C   0  0  0  0  0  0  0  0  0  0  0  0
    3.8574    0.7786   -0.0000 C   0  0  0  0  0  0  0  0  0  0  0  0
   -0.7904    1.7459   -0.0000 O   0  0  0  0  0  0  0  0  0  0  0  0
   -1.5335    3.0553   -0.0000 O   0  0  0  0  0  0  0  0  0  0  0  0
   -0.0354    4.5298   -0.0000 N   0  0  0  0  0  0  0  0  0  0  0  0
    3.8456    2.2885   -0.0000 C   0  0  0  0  0  0  0  0  0  0  0  0
    5.1432    0.0472   -0.0000 C   0  0  0  0  0  0  0  0  0  0  0  0
    1.1678    5.4145   -0.0000 C   0  0  0  0  0  0  0  0  0  0  0  0
   -1.2622    5.4145   -0.0000 C   0  0  0  0  0  0  0  0  0  0  0  0
    6.4290   -0.6724   -0.0000 N   0  0  0  0  0  0  0  0  0  0  0  0
    0.6960    6.8537   -0.0000 C   0  0  0  0  0  0  0  0  0  0  0  0
   -0.8140    6.8537   -0.0000 C   0  0  0  0  0  0  0  0  0  0  0  0
    1.5689    8.0805   -0.0000 O   0  0  0  0  0  0  0  0  0  0  0  0
    2.1234    6.4762   -0.0000 C   0  0  0  0  0  0  0  0  0  0  0  0
   -2.1234    7.6087   -0.0000 S   0  0  0  0  0  0  0  0  0  0  0  0
    3.1732    7.5497   -0.0000 N   0  0  0  0  0  0  0  0  0  0  0  0
   -2.8901    8.9181   -0.0000 O   0  0  0  0  0  0  0  0  0  0  0  0
   -1.3920    8.9299   -0.0000 O   0  0  0  0  0  0  0  0  0  0  0  0
   -3.4328    6.8655   -0.0000 C   0  0  0  0  0  0  0  0  0  0  0  0
   -4.7422    7.6323   -0.0000 C   0  0  0  0  0  0  0  0  0  0  0  0
   -3.4328    5.3910   -0.0000 C   0  0  0  0  0  0  0  0  0  0  0  0
   -6.0516    6.9009   -0.0000 C   0  0  0  0  0  0  0  0  0  0  0  0
   -4.7304    4.6478   -0.0000 C   0  0  0  0  0  0  0  0  0  0  0  0
   -6.0634    5.4145   -0.0000 C   0  0  0  0  0  0  0  0  0  0  0  0
   -7.3728    4.6714   -0.0000 Cl  0  0  0  0  0  0  0  0  0  0  0  0
  1  2  1  0  0  0  0
  2  3  2  0  0  0  0
  2  4  1  0  0  0  0
  3  5  1  0  0  0  0
  3  6  1  0  0  0  0
  4  7  2  0  0  0  0
  5  8  2  0  0  0  0
  5  9  2  0  0  0  0
  5 10  1  0  0  0  0
  6 11  2  0  0  0  0
  7 12  1  0  0  0  0
 10 13  1  0  0  0  0
 10 14  1  0  0  0  0
 12 15  3  0  0  0  0
 13 16  1  0  0  0  0
 14 17  1  0  0  0  0
 16 18  1  1  0  0  0
 16 19  1  0  0  0  0
 17 20  1  6  0  0  0
 19 21  1  0  0  0  0
 20 22  2  0  0  0  0
 20 23  2  0  0  0  0
 20 24  1  0  0  0  0
 24 25  2  0  0  0  0
 24 26  1  0  0  0  0
 25 27  1  0  0  0  0
 26 28  2  0  0  0  0
 27 29  2  0  0  0  0
 29 30  1  0  0  0  0
  7 11  1  0  0  0  0
 16 17  1  0  0  0  0
 28 29  1  0  0  0  0
M  END
>  <MolRegNo>
2363321

>  <m>
=

>  <Value>
100

>  <Unit>
nM

>  <Type>
IC50

>  <pValue>
7

>  <Ligand Efficiency>
0

>  <Binding Efficiency>
0

>  <Surface Efficiency>
0

>  <Assay Index>
1299309

>  <Assay Category>


>  <Assay Organism>
Homo sapiens

>  <Target ID>
17045

>  <Target Name>
Cytochrome P450 3A4

>  <Target Organism>
Homo sapiens

>  <Target Description>
Target is a single protein chain

>  <Sequence Accession>
P08684

>  <Reference>
J Med Chem 61 (24), 11209-11220 (2018)

>  <Pubmed ID>
30500190

>  <DOI>
10.1021/acs.jmedchem.8b01344

$$$$
2417965
Actelion Java MolfileCreator 1.0

 30 32  0  0  0  0  0  0  0  0999 V2000
    0.0000   -0.0000   -0.0000 Cl  0  0  0  0  0  0  0  0  0  0  0  0
    1.2858    0.7550   -0.0000 C   0  0  0  0  0  0  0  0  0  0  0  0
    1.2858    2.2649   -0.0000 C   0  0  0  0  0  0  0  0  0  0  0  0
    2.5716    0.0236   -0.0000 C   0  0  0  0  0  0  0  0  0  0  0  0
   -0.0236    3.0317   -0.0000 S   0  0  0  0  0  0  0  0  0  0  0  0
    2.5598    3.0199   -0.0000 C   0  0  0  0  0  0  0  0  0  0  0  0
    3.8574    0.7786   -0.0000 C   0  0  0  0  0  0  0  0  0  0  0  0
   -0.7904    1.7459   -0.0000 O   0  0  0  0  0  0  0  0  0  0  0  0
   -1.5335    3.0553   -0.0000 O   0  0  0  0  0  0  0  0  0  0  0  0
   -0.0354    4.5298   -0.0000 N   0  0  0  0  0  0  0  0  0  0  0  0
    3.8456    2.2885   -0.0000 C   0  0  0  0  0  0  0  0  0  0  0  0
    5.1432    0.0472   -0.0000 C   0  0  0  0  0  0  0  0  0  0  0  0
    1.1678    5.4145   -0.0000 C   0  0  0  0  0  0  0  0  0  0  0  0
   -1.2622    5.4145   -0.0000 C   0  0  0  0  0  0  0  0  0  0  0  0
    6.4290   -0.6724   -0.0000 N   0  0  0  0  0  0  0  0  0  0  0  0
    0.6960    6.8537   -0.0000 C   0  0  0  0  0  0  0  0  0  0  0  0
   -0.8140    6.8537   -0.0000 C   0  0  0  0  0  0  0  0  0  0  0  0
    1.5689    8.0805   -0.0000 O   0  0  0  0  0  0  0  0  0  0  0  0
    2.1234    6.4762   -0.0000 C   0  0  0  0  0  0  0  0  0  0  0  0
   -2.1234    7.6087   -0.0000 S   0  0  0  0  0  0  0  0  0  0  0  0
    3.1732    7.5497   -0.0000 N   0  0  0  0  0  0  0  0  0  0  0  0
   -2.8901    8.9181   -0.0000 O   0  0  0  0  0  0  0  0  0  0  0  0
   -1.3920    8.9299   -0.0000 O   0  0  0  0  0  0  0  0  0  0  0  0
   -3.4328    6.8655   -0.0000 C   0  0  0  0  0  0  0  0  0  0  0  0
   -4.7422    7.6323   -0.0000 N   0  0  0  0  0  0  0  0  0  0  0  0
   -3.4328    5.3910   -0.0000 C   0  0  0  0  0  0  0  0  0  0  0  0
   -6.0516    6.9009   -0.0000 C   0  0  0  0  0  0  0  0  0  0  0  0
   -4.7304    4.6478   -0.0000 C   0  0  0  0  0  0  0  0  0  0  0  0
   -6.0634    5.4145   -0.0000 C   0  0  0  0  0  0  0  0  0  0  0  0
   -7.3728    4.6714   -0.0000 Cl  0  0  0  0  0  0  0  0  0  0  0  0
  1  2  1  0  0  0  0
  2  3  2  0  0  0  0
  2  4  1  0  0  0  0
  3  5  1  0  0  0  0
  3  6  1  0  0  0  0
  4  7  2  0  0  0  0
  5  8  2  0  0  0  0
  5  9  2  0  0  0  0
  5 10  1  0  0  0  0
  6 11  2  0  0  0  0
  7 12  1  0  0  0  0
 10 13  1  0  0  0  0
 10 14  1  0  0  0  0
 12 15  3  0  0  0  0
 13 16  1  0  0  0  0
 14 17  1  0  0  0  0
 16 18  1  1  0  0  0
 16 19  1  0  0  0  0
 17 20  1  6  0  0  0
 19 21  1  0  0  0  0
 20 22  2  0  0  0  0
 20 23  2  0  0  0  0
 20 24  1  0  0  0  0
 24 25  2  0  0  0  0
 24 26  1  0  0  0  0
 25 27  1  0  0  0  0
 26 28  2  0  0  0  0
 27 29  2  0  0  0  0
 29 30  1  0  0  0  0
  7 11  1  0  0  0  0
 16 17  1  0  0  0  0
 28 29  1  0  0  0  0
M  END
>  <MolRegNo>
2417965

>  <m>
=

>  <Value>
300

>  <Unit>
nM

>  <Type>
IC50

>  <pValue>
6.52

>  <Ligand Efficiency>
0

>  <Binding Efficiency>
0

>  <Surface Efficiency>
0

>  <Assay Index>
1299309

>  <Assay Category>


>  <Assay Organism>
Homo sapiens

>  <Target ID>
17045

>  <Target Name>
Cytochrome P450 3A4

>  <Target Organism>
Homo sapiens

>  <Target Description>
Target is a single protein chain

>  <Sequence Accession>
P08684

>  <Reference>
J Med Chem 61 (24), 11209-11220 (2018)

>  <Pubmed ID>
30500190

>  <DOI>
10.1021/acs.jmedchem.8b01344

$$$$
2368484
Actelion Java MolfileCreator 1.0

 30 32  0  0  0  0  0  0  0  0999 V2000
    0.0000   -0.0000   -0.0000 Cl  0  0  0  0  0  0  0  0  0  0  0  0
    1.2858    0.7550   -0.0000 C   0  0  0  0  0  0  0  0  0  0  0  0
    1.2858    2.2649   -0.0000 C   0  0  0  0  0  0  0  0  0  0  0  0
    2.5716    0.0236   -0.0000 C   0  0  0  0  0  0  0  0  0  0  0  0
   -0.0236    3.0317   -0.0000 S   0  0  0  0  0  0  0  0  0  0  0  0
    2.5598    3.0199   -0.0000 C   0  0  0  0  0  0  0  0  0  0  0  0
    3.8574    0.7786   -0.0000 C   0  0  0  0  0  0  0  0  0  0  0  0
   -0.7904    1.7459   -0.0000 O   0  0  0  0  0  0  0  0  0  0  0  0
   -1.5335    3.0553   -0.0000 O   0  0  0  0  0  0  0  0  0  0  0  0
   -0.0354    4.5298   -0.0000 N   0  0  0  0  0  0  0  0  0  0  0  0
    3.8456    2.2885   -0.0000 C   0  0  0  0  0  0  0  0  0  0  0  0
    5.1432    0.0472   -0.0000 C   0  0  0  0  0  0  0  0  0  0  0  0
    1.1678    5.4145   -0.0000 C   0  0  0  0  0  0  0  0  0  0  0  0
   -1.2622    5.4145   -0.0000 C   0  0  0  0  0  0  0  0  0  0  0  0
    6.4290   -0.6724   -0.0000 N   0  0  0  0  0  0  0  0  0  0  0  0
    0.6960    6.8537   -0.0000 C   0  0  0  0  0  0  0  0  0  0  0  0
   -0.8140    6.8537   -0.0000 C   0  0  0  0  0  0  0  0  0  0  0  0
    1.5689    8.0805   -0.0000 O   0  0  0  0  0  0  0  0  0  0  0  0
    2.1234    6.4762   -0.0000 C   0  0  0  0  0  0  0  0  0  0  0  0
   -2.1234    7.6087   -0.0000 S   0  0  0  0  0  0  0  0  0  0  0  0
    3.1732    7.5497   -0.0000 N   0  0  0  0  0  0  0  0  0  0  0  0
   -2.8901    8.9181   -0.0000 O   0  0  0  0  0  0  0  0  0  0  0  0
   -1.3920    8.9299   -0.0000 O   0  0  0  0  0  0  0  0  0  0  0  0
   -3.4328    6.8655   -0.0000 C   0  0  0  0  0  0  0  0  0  0  0  0
   -4.7422    7.6323   -0.0000 N   0  0  0  0  0  0  0  0  0  0  0  0
   -3.4328    5.3910   -0.0000 C   0  0  0  0  0  0  0  0  0  0  0  0
   -6.0516    6.9009   -0.0000 C   0  0  0  0  0  0  0  0  0  0  0  0
   -4.7304    4.6478   -0.0000 C   0  0  0  0  0  0  0  0  0  0  0  0
   -6.0634    5.4145   -0.0000 C   0  0  0  0  0  0  0  0  0  0  0  0
   -7.3728    4.6714   -0.0000 Cl  0  0  0  0  0  0  0  0  0  0  0  0
  1  2  1  0  0  0  0
  2  3  2  0  0  0  0
  2  4  1  0  0  0  0
  3  5  1  0  0  0  0
  3  6  1  0  0  0  0
  4  7  2  0  0  0  0
  5  8  2  0  0  0  0
  5  9  2  0  0  0  0
  5 10  1  0  0  0  0
  6 11  2  0  0  0  0
  7 12  1  0  0  0  0
 10 13  1  0  0  0  0
 10 14  1  0  0  0  0
 12 15  3  0  0  0  0
 13 16  1  0  0  0  0
 14 17  1  0  0  0  0
 16 18  1  1  0  0  0
 16 19  1  0  0  0  0
 17 20  1  1  0  0  0
 19 21  1  0  0  0  0
 20 22  2  0  0  0  0
 20 23  2  0  0  0  0
 20 24  1  0  0  0  0
 24 25  2  0  0  0  0
 24 26  1  0  0  0  0
 25 27  1  0  0  0  0
 26 28  2  0  0  0  0
 27 29  2  0  0  0  0
 29 30  1  0  0  0  0
  7 11  1  0  0  0  0
 16 17  1  0  0  0  0
 28 29  1  0  0  0  0
M  END
>  <MolRegNo>
2368484

>  <m>
=

>  <Value>
4000

>  <Unit>
nM

>  <Type>
IC50

>  <pValue>
5.4

>  <Ligand Efficiency>
0

>  <Binding Efficiency>
0

>  <Surface Efficiency>
0

>  <Assay Index>
1299309

>  <Assay Category>


>  <Assay Organism>
Homo sapiens

>  <Target ID>
17045

>  <Target Name>
Cytochrome P450 3A4

>  <Target Organism>
Homo sapiens

>  <Target Description>
Target is a single protein chain

>  <Sequence Accession>
P08684

>  <Reference>
J Med Chem 61 (24), 11209-11220 (2018)

>  <Pubmed ID>
30500190

>  <DOI>
10.1021/acs.jmedchem.8b01344

$$$$
1563199
Actelion Java MolfileCreator 1.0

 18 20  0  0  0  0  0  0  0  0999 V2000
    0.0000   -0.0000   -0.0000 S   0  0  0  0  0  0  0  0  0  0  0  0
    0.8738    1.2281   -0.0000 C   0  0  0  0  0  0  0  0  0  0  0  0
   -1.4407    0.4723   -0.0000 C   0  0  0  0  0  0  0  0  0  0  0  0
   -0.0236    2.4562   -0.0000 N   0  0  0  0  0  0  0  0  0  0  0  0
    2.3499    1.2399   -0.0000 N   0  0  0  0  0  0  0  0  0  0  0  0
   -1.4525    1.9839   -0.0000 C   0  0  0  0  0  0  0  0  0  0  0  0
   -2.7396   -0.2598   -0.0000 C   0  0  0  0  0  0  0  0  0  0  0  0
   -2.7514    2.7396   -0.0000 C   0  0  0  0  0  0  0  0  0  0  0  0
   -4.0386    0.4960   -0.0000 C   0  0  0  0  0  0  0  0  0  0  0  0
   -4.0504    2.0075   -0.0000 C   0  0  0  0  0  0  0  0  0  0  0  0
   -5.3375   -0.2362   -0.0000 O   0  0  0  0  0  0  0  0  0  0  0  0
   -6.6365    0.5196   -0.0000 C   0  0  0  0  0  0  0  0  0  0  0  0
   -6.6483    2.0193   -0.0000 C   0  0  0  0  0  0  0  0  0  0  0  0
   -5.3729    2.7750   -0.0000 C   0  0  0  0  0  0  0  0  0  0  0  0
   -7.9472    2.7750   -0.0000 C   0  0  0  0  0  0  0  0  0  0  0  0
   -5.3848    4.2747   -0.0000 C   0  0  0  0  0  0  0  0  0  0  0  0
   -7.9590    4.2747   -0.0000 C   0  0  0  0  0  0  0  0  0  0  0  0
   -6.6837    5.0305   -0.0000 C   0  0  0  0  0  0  0  0  0  0  0  0
  1  2  1  0  0  0  0
  1  3  1  0  0  0  0
  2  4  2  0  0  0  0
  2  5  1  0  0  0  0
  3  6  2  0  0  0  0
  3  7  1  0  0  0  0
  6  8  1  0  0  0  0
  7  9  2  0  0  0  0
  8 10  2  0  0  0  0
  9 11  1  0  0  0  0
 11 12  1  0  0  0  0
 12 13  1  0  0  0  0
 13 14  2  0  0  0  0
 13 15  1  0  0  0  0
 14 16  1  0  0  0  0
 15 17  2  0  0  0  0
 16 18  2  0  0  0  0
  4  6  1  0  0  0  0
  9 10  1  0  0  0  0
 17 18  1  0  0  0  0
M  END
>  <MolRegNo>
1563199

>  <m>
=

>  <Value>
10000

>  <Unit>
nM

>  <Type>
IC50

>  <pValue>
5

>  <Ligand Efficiency>
0

>  <Binding Efficiency>
0

>  <Surface Efficiency>
0

>  <Assay Index>
1302610

>  <Assay Category>


>  <Assay Organism>
Homo sapiens

>  <Target ID>
17045

>  <Target Name>
Cytochrome P450 3A4

>  <Target Organism>
Homo sapiens

>  <Target Description>
Target is a single protein chain

>  <Sequence Accession>
P08684

>  <Reference>
J Med Chem 62 (8), 3989-4012 (2019)

>  <Pubmed ID>
30908048

>  <DOI>
10.1021/acs.jmedchem.8b02021

$$$$
2375237
Actelion Java MolfileCreator 1.0

 20 22  0  0  0  0  0  0  0  0999 V2000
    0.0000   -0.0000   -0.0000 S   0  0  0  0  0  0  0  0  0  0  0  0
    0.8603    1.2256   -0.0000 C   0  0  0  0  0  0  0  0  0  0  0  0
   -1.4378    0.4714   -0.0000 C   0  0  0  0  0  0  0  0  0  0  0  0
   -0.0354    2.4395   -0.0000 N   0  0  0  0  0  0  0  0  0  0  0  0
    2.3452    1.2492   -0.0000 N   0  0  0  0  0  0  0  0  0  0  0  0
   -1.4613    1.9799   -0.0000 C   0  0  0  0  0  0  0  0  0  0  0  0
   -2.7459   -0.2711   -0.0000 C   0  0  0  0  0  0  0  0  0  0  0  0
   -2.7695    2.7341   -0.0000 C   0  0  0  0  0  0  0  0  0  0  0  0
   -4.0541    0.4832   -0.0000 C   0  0  0  0  0  0  0  0  0  0  0  0
   -4.0658    2.0035   -0.0000 C   0  0  0  0  0  0  0  0  0  0  0  0
   -5.3622   -0.2475   -0.0000 O   0  0  0  0  0  0  0  0  0  0  0  0
   -5.3740   -1.7324   -0.0000 C   0  0  0  0  0  0  0  0  0  0  0  0
   -6.6821   -2.4631   -0.0000 C   0  0  0  0  0  0  0  0  0  0  0  0
   -7.9785   -1.6970   -0.0000 C   0  0  0  0  0  0  0  0  0  0  0  0
   -6.6939   -3.9362   -0.0000 C   0  0  0  0  0  0  0  0  0  0  0  0
   -9.2866   -2.4277   -0.0000 C   0  0  0  0  0  0  0  0  0  0  0  0
   -7.9903   -4.6787   -0.0000 C   0  0  0  0  0  0  0  0  0  0  0  0
   -9.2984   -3.9126   -0.0000 C   0  0  0  0  0  0  0  0  0  0  0  0
  -10.6065   -4.6551   -0.0000 C   0  0  0  0  0  0  0  0  0  0  0  0
  -11.9147   -5.3858   -0.0000 N   0  0  0  0  0  0  0  0  0  0  0  0
  1  2  1  0  0  0  0
  1  3  1  0  0  0  0
  2  4  2  0  0  0  0
  2  5  1  0  0  0  0
  3  6  2  0  0  0  0
  3  7  1  0  0  0  0
  6  8  1  0  0  0  0
  7  9  2  0  0  0  0
  8 10  2  0  0  0  0
  9 11  1  0  0  0  0
 11 12  1  0  0  0  0
 12 13  1  0  0  0  0
 13 14  2  0  0  0  0
 13 15  1  0  0  0  0
 14 16  1  0  0  0  0
 15 17  2  0  0  0  0
 16 18  2  0  0  0  0
 18 19  1  0  0  0  0
 19 20  3  0  0  0  0
  4  6  1  0  0  0  0
  9 10  1  0  0  0  0
 17 18  1  0  0  0  0
M  END
>  <MolRegNo>
2375237

>  <m>
=

>  <Value>
10000

>  <Unit>
nM

>  <Type>
IC50

>  <pValue>
5

>  <Ligand Efficiency>
0

>  <Binding Efficiency>
0

>  <Surface Efficiency>
0

>  <Assay Index>
1302610

>  <Assay Category>


>  <Assay Organism>
Homo sapiens

>  <Target ID>
17045

>  <Target Name>
Cytochrome P450 3A4

>  <Target Organism>
Homo sapiens

>  <Target Description>
Target is a single protein chain

>  <Sequence Accession>
P08684

>  <Reference>
J Med Chem 62 (8), 3989-4012 (2019)

>  <Pubmed ID>
30908048

>  <DOI>
10.1021/acs.jmedchem.8b02021

$$$$
2410772
Actelion Java MolfileCreator 1.0

 22 24  0  0  0  0  0  0  0  0999 V2000
    0.0000   -0.0000   -0.0000 S   0  0  0  0  0  0  0  0  0  0  0  0
    0.8603    1.2257   -0.0000 C   0  0  0  0  0  0  0  0  0  0  0  0
   -1.4378    0.4714   -0.0000 C   0  0  0  0  0  0  0  0  0  0  0  0
   -0.0354    2.4396   -0.0000 N   0  0  0  0  0  0  0  0  0  0  0  0
    2.3453    1.2492   -0.0000 N   0  0  0  0  0  0  0  0  0  0  0  0
   -1.4614    1.9799   -0.0000 C   0  0  0  0  0  0  0  0  0  0  0  0
   -2.7460   -0.2711   -0.0000 C   0  0  0  0  0  0  0  0  0  0  0  0
   -2.7695    2.7342   -0.0000 C   0  0  0  0  0  0  0  0  0  0  0  0
   -4.0541    0.4832   -0.0000 C   0  0  0  0  0  0  0  0  0  0  0  0
   -4.0659    2.0035   -0.0000 C   0  0  0  0  0  0  0  0  0  0  0  0
   -5.3623   -0.2475   -0.0000 O   0  0  0  0  0  0  0  0  0  0  0  0
   -5.3741   -1.7324   -0.0000 C   0  0  0  0  0  0  0  0  0  0  0  0
   -6.6822   -2.4631   -0.0000 C   0  0  0  0  0  0  0  0  0  0  0  0
   -7.9786   -1.6971   -0.0000 C   0  0  0  0  0  0  0  0  0  0  0  0
   -6.6940   -3.9363   -0.0000 C   0  0  0  0  0  0  0  0  0  0  0  0
   -9.2868   -2.4278   -0.0000 C   0  0  0  0  0  0  0  0  0  0  0  0
   -7.9904   -4.6788   -0.0000 C   0  0  0  0  0  0  0  0  0  0  0  0
   -9.2986   -3.9127   -0.0000 C   0  0  0  0  0  0  0  0  0  0  0  0
  -10.6067   -4.6434   -0.0000 C   0  0  0  0  0  0  0  0  0  0  0  0
  -10.6185   -6.1283   -0.0000 O   0  0  0  0  0  0  0  0  0  0  0  0
  -11.9149   -3.8891   -0.0000 O   0  0  0  0  0  0  0  0  0  0  0  0
  -11.9267   -2.3806   -0.0000 C   0  0  0  0  0  0  0  0  0  0  0  0
  1  2  1  0  0  0  0
  1  3  1  0  0  0  0
  2  4  2  0  0  0  0
  2  5  1  0  0  0  0
  3  6  2  0  0  0  0
  3  7  1  0  0  0  0
  6  8  1  0  0  0  0
  7  9  2  0  0  0  0
  8 10  2  0  0  0  0
  9 11  1  0  0  0  0
 11 12  1  0  0  0  0
 12 13  1  0  0  0  0
 13 14  2  0  0  0  0
 13 15  1  0  0  0  0
 14 16  1  0  0  0  0
 15 17  2  0  0  0  0
 16 18  2  0  0  0  0
 18 19  1  0  0  0  0
 19 20  2  0  0  0  0
 19 21  1  0  0  0  0
 21 22  1  0  0  0  0
  4  6  1  0  0  0  0
  9 10  1  0  0  0  0
 17 18  1  0  0  0  0
M  END
>  <MolRegNo>
2410772

>  <m>
=

>  <Value>
10000

>  <Unit>
nM

>  <Type>
IC50

>  <pValue>
5

>  <Ligand Efficiency>
0

>  <Binding Efficiency>
0

>  <Surface Efficiency>
0

>  <Assay Index>
1302610

>  <Assay Category>


>  <Assay Organism>
Homo sapiens

>  <Target ID>
17045

>  <Target Name>
Cytochrome P450 3A4

>  <Target Organism>
Homo sapiens

>  <Target Description>
Target is a single protein chain

>  <Sequence Accession>
P08684

>  <Reference>
J Med Chem 62 (8), 3989-4012 (2019)

>  <Pubmed ID>
30908048

>  <DOI>
10.1021/acs.jmedchem.8b02021

$$$$
2382817
Actelion Java MolfileCreator 1.0

 18 20  0  0  0  0  0  0  0  0999 V2000
    0.0000   -0.0000   -0.0000 S   0  0  0  0  0  0  0  0  0  0  0  0
    0.8604    1.2257   -0.0000 C   0  0  0  0  0  0  0  0  0  0  0  0
   -1.4379    0.4714   -0.0000 C   0  0  0  0  0  0  0  0  0  0  0  0
   -0.0354    2.4397   -0.0000 N   0  0  0  0  0  0  0  0  0  0  0  0
    2.3454    1.2493   -0.0000 N   0  0  0  0  0  0  0  0  0  0  0  0
   -1.4615    1.9801   -0.0000 C   0  0  0  0  0  0  0  0  0  0  0  0
   -2.7461   -0.2711   -0.0000 C   0  0  0  0  0  0  0  0  0  0  0  0
   -2.7697    2.7344   -0.0000 C   0  0  0  0  0  0  0  0  0  0  0  0
   -4.0544    0.4832   -0.0000 C   0  0  0  0  0  0  0  0  0  0  0  0
   -4.0662    2.0036   -0.0000 C   0  0  0  0  0  0  0  0  0  0  0  0
   -5.3627   -0.2475   -0.0000 S   0  0  0  0  0  0  0  0  0  0  0  0
   -5.3744   -1.7325   -0.0000 C   0  0  0  0  0  0  0  0  0  0  0  0
   -6.6827   -2.4633   -0.0000 C   0  0  0  0  0  0  0  0  0  0  0  0
   -7.9792   -1.6972   -0.0000 C   0  0  0  0  0  0  0  0  0  0  0  0
   -6.6945   -3.9365   -0.0000 C   0  0  0  0  0  0  0  0  0  0  0  0
   -9.2874   -2.4279   -0.0000 C   0  0  0  0  0  0  0  0  0  0  0  0
   -7.9909   -4.6791   -0.0000 C   0  0  0  0  0  0  0  0  0  0  0  0
   -9.2992   -3.9130   -0.0000 C   0  0  0  0  0  0  0  0  0  0  0  0
  1  2  1  0  0  0  0
  1  3  1  0  0  0  0
  2  4  2  0  0  0  0
  2  5  1  0  0  0  0
  3  6  2  0  0  0  0
  3  7  1  0  0  0  0
  6  8  1  0  0  0  0
  7  9  2  0  0  0  0
  8 10  2  0  0  0  0
  9 11  1  0  0  0  0
 11 12  1  0  0  0  0
 12 13  1  0  0  0  0
 13 14  2  0  0  0  0
 13 15  1  0  0  0  0
 14 16  1  0  0  0  0
 15 17  2  0  0  0  0
 16 18  2  0  0  0  0
  4  6  1  0  0  0  0
  9 10  1  0  0  0  0
 17 18  1  0  0  0  0
M  END
>  <MolRegNo>
2382817

>  <m>
=

>  <Value>
10000

>  <Unit>
nM

>  <Type>
IC50

>  <pValue>
5

>  <Ligand Efficiency>
0

>  <Binding Efficiency>
0

>  <Surface Efficiency>
0

>  <Assay Index>
1302610

>  <Assay Category>


>  <Assay Organism>
Homo sapiens

>  <Target ID>
17045

>  <Target Name>
Cytochrome P450 3A4

>  <Target Organism>
Homo sapiens

>  <Target Description>
Target is a single protein chain

>  <Sequence Accession>
P08684

>  <Reference>
J Med Chem 62 (8), 3989-4012 (2019)

>  <Pubmed ID>
30908048

>  <DOI>
10.1021/acs.jmedchem.8b02021

$$$$
2451872
Actelion Java MolfileCreator 1.0

 22 24  0  0  0  0  0  0  0  0999 V2000
    0.0000   -0.0000   -0.0000 Cl  0  0  0  0  0  0  0  0  0  0  0  0
   -0.0118    1.5125   -0.0000 C   0  0  0  0  0  0  0  0  0  0  0  0
   -1.3235    2.2688   -0.0000 C   0  0  0  0  0  0  0  0  0  0  0  0
    1.2644    2.2688   -0.0000 C   0  0  0  0  0  0  0  0  0  0  0  0
   -2.6351    1.5362   -0.0000 Cl  0  0  0  0  0  0  0  0  0  0  0  0
   -1.3353    3.7814   -0.0000 C   0  0  0  0  0  0  0  0  0  0  0  0
    1.2526    3.7695   -0.0000 C   0  0  0  0  0  0  0  0  0  0  0  0
   -0.0473    4.5376   -0.0000 C   0  0  0  0  0  0  0  0  0  0  0  0
    2.5406    4.5258   -0.0000 C   0  0  0  0  0  0  0  0  0  0  0  0
    2.5288    6.0384   -0.0000 S   0  0  0  0  0  0  0  0  0  0  0  0
    1.0162    6.0502   -0.0000 O   0  0  0  0  0  0  0  0  0  0  0  0
    1.7725    7.3500   -0.0000 O   0  0  0  0  0  0  0  0  0  0  0  0
    3.8168    6.7946   -0.0000 C   0  0  0  0  0  0  0  0  0  0  0  0
    5.1048    6.0620   -0.0000 C   0  0  0  0  0  0  0  0  0  0  0  0
    3.8050    8.3072   -0.0000 C   0  0  0  0  0  0  0  0  0  0  0  0
    6.3929    6.8301   -0.0000 C   0  0  0  0  0  0  0  0  0  0  0  0
    5.0812    9.0634   -0.0000 C   0  0  0  0  0  0  0  0  0  0  0  0
    7.8109    6.3810   -0.0000 S   0  0  0  0  0  0  0  0  0  0  0  0
    6.3692    8.3426   -0.0000 C   0  0  0  0  0  0  0  0  0  0  0  0
    8.6735    7.6100   -0.0000 C   0  0  0  0  0  0  0  0  0  0  0  0
    7.7754    8.8271   -0.0000 N   0  0  0  0  0  0  0  0  0  0  0  0
   10.1624    7.6336   -0.0000 N   0  0  0  0  0  0  0  0  0  0  0  0
  1  2  1  0  0  0  0
  2  3  2  0  0  0  0
  2  4  1  0  0  0  0
  3  5  1  0  0  0  0
  3  6  1  0  0  0  0
  4  7  2  0  0  0  0
  6  8  2  0  0  0  0
  7  9  1  0  0  0  0
  9 10  1  0  0  0  0
 10 11  2  0  0  0  0
 10 12  2  0  0  0  0
 10 13  1  0  0  0  0
 13 14  2  0  0  0  0
 13 15  1  0  0  0  0
 14 16  1  0  0  0  0
 15 17  2  0  0  0  0
 16 18  1  0  0  0  0
 16 19  2  0  0  0  0
 18 20  1  0  0  0  0
 19 21  1  0  0  0  0
 20 22  1  0  0  0  0
  7  8  1  0  0  0  0
 17 19  1  0  0  0  0
 20 21  2  0  0  0  0
M  END
>  <MolRegNo>
2451872

>  <m>
=

>  <Value>
10000

>  <Unit>
nM

>  <Type>
IC50

>  <pValue>
5

>  <Ligand Efficiency>
0

>  <Binding Efficiency>
0

>  <Surface Efficiency>
0

>  <Assay Index>
1302610

>  <Assay Category>


>  <Assay Organism>
Homo sapiens

>  <Target ID>
17045

>  <Target Name>
Cytochrome P450 3A4

>  <Target Organism>
Homo sapiens

>  <Target Description>
Target is a single protein chain

>  <Sequence Accession>
P08684

>  <Reference>
J Med Chem 62 (8), 3989-4012 (2019)

>  <Pubmed ID>
30908048

>  <DOI>
10.1021/acs.jmedchem.8b02021

$$$$
2353503
Actelion Java MolfileCreator 1.0

 24 26  0  0  0  0  0  0  0  0999 V2000
    0.0000   -0.0000   -0.0000 S   0  0  0  0  0  0  0  0  0  0  0  0
   -1.5147    0.0118   -0.0000 O   0  0  0  0  0  0  0  0  0  0  0  0
   -0.7573    1.3135   -0.0000 O   0  0  0  0  0  0  0  0  0  0  0  0
    1.2898    0.7573   -0.0000 C   0  0  0  0  0  0  0  0  0  0  0  0
   -0.0118   -1.4910   -0.0000 C   0  0  0  0  0  0  0  0  0  0  0  0
    2.5797    0.0237   -0.0000 C   0  0  0  0  0  0  0  0  0  0  0  0
    1.2780    2.2720   -0.0000 C   0  0  0  0  0  0  0  0  0  0  0  0
   -1.3253   -2.2247   -0.0000 C   0  0  0  0  0  0  0  0  0  0  0  0
    3.8695    0.7928   -0.0000 C   0  0  0  0  0  0  0  0  0  0  0  0
    2.5560    3.0293   -0.0000 C   0  0  0  0  0  0  0  0  0  0  0  0
   -2.6270   -1.4555   -0.0000 C   0  0  0  0  0  0  0  0  0  0  0  0
   -1.3372   -3.7038   -0.0000 C   0  0  0  0  0  0  0  0  0  0  0  0
    5.2895    0.3550   -0.0000 S   0  0  0  0  0  0  0  0  0  0  0  0
    3.8458    2.3075   -0.0000 C   0  0  0  0  0  0  0  0  0  0  0  0
   -3.9405   -2.1892   -0.0000 C   0  0  0  0  0  0  0  0  0  0  0  0
   -2.6388   -4.4375   -0.0000 C   0  0  0  0  0  0  0  0  0  0  0  0
    6.1533    1.5857   -0.0000 C   0  0  0  0  0  0  0  0  0  0  0  0
    5.2540    2.7927   -0.0000 N   0  0  0  0  0  0  0  0  0  0  0  0
   -3.9523   -3.6802   -0.0000 C   0  0  0  0  0  0  0  0  0  0  0  0
    7.6443    1.6093   -0.0000 N   0  0  0  0  0  0  0  0  0  0  0  0
   -5.2658   -4.4138   -0.0000 C   0  0  0  0  0  0  0  0  0  0  0  0
   -5.2777   -5.9048   -0.0000 O   0  0  0  0  0  0  0  0  0  0  0  0
   -6.5793   -3.6565   -0.0000 O   0  0  0  0  0  0  0  0  0  0  0  0
   -6.5912   -2.1418   -0.0000 C   0  0  0  0  0  0  0  0  0  0  0  0
  1  2  2  0  0  0  0
  1  3  2  0  0  0  0
  1  4  1  0  0  0  0
  1  5  1  0  0  0  0
  4  6  2  0  0  0  0
  4  7  1  0  0  0  0
  5  8  1  0  0  0  0
  6  9  1  0  0  0  0
  7 10  2  0  0  0  0
  8 11  2  0  0  0  0
  8 12  1  0  0  0  0
  9 13  1  0  0  0  0
  9 14  2  0  0  0  0
 11 15  1  0  0  0  0
 12 16  2  0  0  0  0
 13 17  1  0  0  0  0
 14 18  1  0  0  0  0
 15 19  2  0  0  0  0
 17 20  1  0  0  0  0
 19 21  1  0  0  0  0
 21 22  2  0  0  0  0
 21 23  1  0  0  0  0
 23 24  1  0  0  0  0
 10 14  1  0  0  0  0
 16 19  1  0  0  0  0
 17 18  2  0  0  0  0
M  END
>  <MolRegNo>
2353503

>  <m>
=

>  <Value>
10000

>  <Unit>
nM

>  <Type>
IC50

>  <pValue>
5

>  <Ligand Efficiency>
0

>  <Binding Efficiency>
0

>  <Surface Efficiency>
0

>  <Assay Index>
1302610

>  <Assay Category>


>  <Assay Organism>
Homo sapiens

>  <Target ID>
17045

>  <Target Name>
Cytochrome P450 3A4

>  <Target Organism>
Homo sapiens

>  <Target Description>
Target is a single protein chain

>  <Sequence Accession>
P08684

>  <Reference>
J Med Chem 62 (8), 3989-4012 (2019)

>  <Pubmed ID>
30908048

>  <DOI>
10.1021/acs.jmedchem.8b02021

$$$$
2367501
Actelion Java MolfileCreator 1.0

 21 23  0  0  0  0  0  0  0  0999 V2000
    0.0000   -0.0000   -0.0000 S   0  0  0  0  0  0  0  0  0  0  0  0
    0.8589    1.2236   -0.0000 C   0  0  0  0  0  0  0  0  0  0  0  0
   -1.4353    0.4706   -0.0000 C   0  0  0  0  0  0  0  0  0  0  0  0
   -0.0353    2.4354   -0.0000 N   0  0  0  0  0  0  0  0  0  0  0  0
    2.3413    1.2471   -0.0000 N   0  0  0  0  0  0  0  0  0  0  0  0
   -1.4589    1.9765   -0.0000 C   0  0  0  0  0  0  0  0  0  0  0  0
   -2.7413   -0.2706   -0.0000 C   0  0  0  0  0  0  0  0  0  0  0  0
   -2.7648    2.7295   -0.0000 C   0  0  0  0  0  0  0  0  0  0  0  0
   -4.0472    0.4824   -0.0000 C   0  0  0  0  0  0  0  0  0  0  0  0
   -4.0590    2.0001   -0.0000 C   0  0  0  0  0  0  0  0  0  0  0  0
   -5.3531   -0.2471   -0.0000 C   0  0  0  0  0  0  0  0  0  0  0  0
   -5.3649   -1.7295   -0.0000 O   0  0  0  0  0  0  0  0  0  0  0  0
   -6.6591    0.5059   -0.0000 N   0  0  0  0  0  0  0  0  0  0  0  0
   -7.9650   -0.2235   -0.0000 C   0  0  0  0  0  0  0  0  0  0  0  0
   -9.2709    0.5294   -0.0000 C   0  0  0  0  0  0  0  0  0  0  0  0
   -9.2709    2.0354   -0.0000 C   0  0  0  0  0  0  0  0  0  0  0  0
  -10.5651   -0.2000   -0.0000 C   0  0  0  0  0  0  0  0  0  0  0  0
   -7.9885    2.7883   -0.0000 N   0  0  0  0  0  0  0  0  0  0  0  0
  -10.5768    2.7883   -0.0000 C   0  0  0  0  0  0  0  0  0  0  0  0
  -11.8710    0.5530   -0.0000 C   0  0  0  0  0  0  0  0  0  0  0  0
  -11.8828    2.0589   -0.0000 C   0  0  0  0  0  0  0  0  0  0  0  0
  1  2  1  0  0  0  0
  1  3  1  0  0  0  0
  2  4  2  0  0  0  0
  2  5  1  0  0  0  0
  3  6  2  0  0  0  0
  3  7  1  0  0  0  0
  6  8  1  0  0  0  0
  7  9  2  0  0  0  0
  8 10  2  0  0  0  0
  9 11  1  0  0  0  0
 11 12  2  0  0  0  0
 11 13  1  0  0  0  0
 13 14  1  0  0  0  0
 14 15  1  0  0  0  0
 15 16  2  0  0  0  0
 15 17  1  0  0  0  0
 16 18  1  0  0  0  0
 16 19  1  0  0  0  0
 17 20  2  0  0  0  0
 19 21  2  0  0  0  0
  4  6  1  0  0  0  0
  9 10  1  0  0  0  0
 20 21  1  0  0  0  0
M  END
>  <MolRegNo>
2367501

>  <m>
=

>  <Value>
10000

>  <Unit>
nM

>  <Type>
IC50

>  <pValue>
5

>  <Ligand Efficiency>
0

>  <Binding Efficiency>
0

>  <Surface Efficiency>
0

>  <Assay Index>
1302610

>  <Assay Category>


>  <Assay Organism>
Homo sapiens

>  <Target ID>
17045

>  <Target Name>
Cytochrome P450 3A4

>  <Target Organism>
Homo sapiens

>  <Target Description>
Target is a single protein chain

>  <Sequence Accession>
P08684

>  <Reference>
J Med Chem 62 (8), 3989-4012 (2019)

>  <Pubmed ID>
30908048

>  <DOI>
10.1021/acs.jmedchem.8b02021

$$$$
2415826
Actelion Java MolfileCreator 1.0

 22 24  0  0  0  0  0  0  0  0999 V2000
    0.0000   -0.0000   -0.0000 S   0  0  0  0  0  0  0  0  0  0  0  0
    0.8579    1.2222   -0.0000 C   0  0  0  0  0  0  0  0  0  0  0  0
   -1.4338    0.4701   -0.0000 C   0  0  0  0  0  0  0  0  0  0  0  0
   -0.0353    2.4327   -0.0000 N   0  0  0  0  0  0  0  0  0  0  0  0
    2.3387    1.2457   -0.0000 N   0  0  0  0  0  0  0  0  0  0  0  0
   -1.4573    1.9744   -0.0000 C   0  0  0  0  0  0  0  0  0  0  0  0
   -2.7383   -0.2703   -0.0000 C   0  0  0  0  0  0  0  0  0  0  0  0
   -2.7618    2.7265   -0.0000 C   0  0  0  0  0  0  0  0  0  0  0  0
   -4.0428    0.4818   -0.0000 C   0  0  0  0  0  0  0  0  0  0  0  0
   -4.0545    1.9979   -0.0000 C   0  0  0  0  0  0  0  0  0  0  0  0
   -5.3472   -0.2468   -0.0000 C   0  0  0  0  0  0  0  0  0  0  0  0
   -5.3590   -1.7276   -0.0000 O   0  0  0  0  0  0  0  0  0  0  0  0
   -6.6517    0.5053   -0.0000 N   0  0  0  0  0  0  0  0  0  0  0  0
   -6.6517    2.0096   -0.0000 C   0  0  0  0  0  0  0  0  0  0  0  0
   -7.9445   -0.2350   -0.0000 C   0  0  0  0  0  0  0  0  0  0  0  0
   -7.9445    2.7618   -0.0000 C   0  0  0  0  0  0  0  0  0  0  0  0
   -9.2490    0.5288   -0.0000 C   0  0  0  0  0  0  0  0  0  0  0  0
   -9.2490    2.0331   -0.0000 C   0  0  0  0  0  0  0  0  0  0  0  0
  -10.5535    2.7970   -0.0000 C   0  0  0  0  0  0  0  0  0  0  0  0
  -10.5535    4.3013   -0.0000 O   0  0  0  0  0  0  0  0  0  0  0  0
  -11.8580    2.0684   -0.0000 O   0  0  0  0  0  0  0  0  0  0  0  0
  -13.1624    2.8323   -0.0000 C   0  0  0  0  0  0  0  0  0  0  0  0
  1  2  1  0  0  0  0
  1  3  1  0  0  0  0
  2  4  2  0  0  0  0
  2  5  1  0  0  0  0
  3  6  2  0  0  0  0
  3  7  1  0  0  0  0
  6  8  1  0  0  0  0
  7  9  2  0  0  0  0
  8 10  2  0  0  0  0
  9 11  1  0  0  0  0
 11 12  2  0  0  0  0
 11 13  1  0  0  0  0
 13 14  1  0  0  0  0
 13 15  1  0  0  0  0
 14 16  1  0  0  0  0
 15 17  1  0  0  0  0
 16 18  1  0  0  0  0
 18 19  1  0  0  0  0
 19 20  2  0  0  0  0
 19 21  1  0  0  0  0
 21 22  1  0  0  0  0
  4  6  1  0  0  0  0
  9 10  1  0  0  0  0
 17 18  1  0  0  0  0
M  END
>  <MolRegNo>
2415826

>  <m>
=

>  <Value>
10000

>  <Unit>
nM

>  <Type>
IC50

>  <pValue>
5

>  <Ligand Efficiency>
0

>  <Binding Efficiency>
0

>  <Surface Efficiency>
0

>  <Assay Index>
1302610

>  <Assay Category>


>  <Assay Organism>
Homo sapiens

>  <Target ID>
17045

>  <Target Name>
Cytochrome P450 3A4

>  <Target Organism>
Homo sapiens

>  <Target Description>
Target is a single protein chain

>  <Sequence Accession>
P08684

>  <Reference>
J Med Chem 62 (8), 3989-4012 (2019)

>  <Pubmed ID>
30908048

>  <DOI>
10.1021/acs.jmedchem.8b02021

$$$$
2359782
Actelion Java MolfileCreator 1.0

 23 25  0  0  0  0  0  0  0  0999 V2000
    0.0000   -0.0000   -0.0000 S   0  0  0  0  0  0  0  0  0  0  0  0
    0.8586    1.2232   -0.0000 C   0  0  0  0  0  0  0  0  0  0  0  0
   -1.4349    0.4705   -0.0000 C   0  0  0  0  0  0  0  0  0  0  0  0
   -0.0353    2.4346   -0.0000 N   0  0  0  0  0  0  0  0  0  0  0  0
    2.3405    1.2467   -0.0000 N   0  0  0  0  0  0  0  0  0  0  0  0
   -1.4584    1.9759   -0.0000 C   0  0  0  0  0  0  0  0  0  0  0  0
   -2.7404   -0.2705   -0.0000 C   0  0  0  0  0  0  0  0  0  0  0  0
   -2.7639    2.7286   -0.0000 C   0  0  0  0  0  0  0  0  0  0  0  0
   -4.0459    0.4822   -0.0000 C   0  0  0  0  0  0  0  0  0  0  0  0
   -4.0577    1.9994   -0.0000 C   0  0  0  0  0  0  0  0  0  0  0  0
   -5.3514   -0.2470   -0.0000 C   0  0  0  0  0  0  0  0  0  0  0  0
   -5.3632   -1.7289   -0.0000 O   0  0  0  0  0  0  0  0  0  0  0  0
   -6.6569    0.5057   -0.0000 N   0  0  0  0  0  0  0  0  0  0  0  0
   -7.9624   -0.2235   -0.0000 C   0  0  0  0  0  0  0  0  0  0  0  0
   -6.6687    2.0112   -0.0000 C   0  0  0  0  0  0  0  0  0  0  0  0
   -9.2679    0.5293   -0.0000 C   0  0  0  0  0  0  0  0  0  0  0  0
   -5.3867    2.7639   -0.0000 C   0  0  0  0  0  0  0  0  0  0  0  0
   -9.2679    2.0347   -0.0000 C   0  0  0  0  0  0  0  0  0  0  0  0
  -10.5617   -0.1999   -0.0000 C   0  0  0  0  0  0  0  0  0  0  0  0
   -5.3985    4.2694   -0.0000 O   0  0  0  0  0  0  0  0  0  0  0  0
  -10.5735    2.7874   -0.0000 C   0  0  0  0  0  0  0  0  0  0  0  0
  -11.8672    0.5528   -0.0000 C   0  0  0  0  0  0  0  0  0  0  0  0
  -11.8790    2.0582   -0.0000 C   0  0  0  0  0  0  0  0  0  0  0  0
  1  2  1  0  0  0  0
  1  3  1  0  0  0  0
  2  4  2  0  0  0  0
  2  5  1  0  0  0  0
  3  6  2  0  0  0  0
  3  7  1  0  0  0  0
  6  8  1  0  0  0  0
  7  9  2  0  0  0  0
  8 10  2  0  0  0  0
  9 11  1  0  0  0  0
 11 12  2  0  0  0  0
 11 13  1  0  0  0  0
 13 14  1  0  0  0  0
 13 15  1  0  0  0  0
 14 16  1  0  0  0  0
 15 17  1  0  0  0  0
 16 18  2  0  0  0  0
 16 19  1  0  0  0  0
 17 20  1  0  0  0  0
 18 21  1  0  0  0  0
 19 22  2  0  0  0  0
 21 23  2  0  0  0  0
  4  6  1  0  0  0  0
  9 10  1  0  0  0  0
 22 23  1  0  0  0  0
M  END
>  <MolRegNo>
2359782

>  <m>
=

>  <Value>
10000

>  <Unit>
nM

>  <Type>
IC50

>  <pValue>
5

>  <Ligand Efficiency>
0

>  <Binding Efficiency>
0

>  <Surface Efficiency>
0

>  <Assay Index>
1302610

>  <Assay Category>


>  <Assay Organism>
Homo sapiens

>  <Target ID>
17045

>  <Target Name>
Cytochrome P450 3A4

>  <Target Organism>
Homo sapiens

>  <Target Description>
Target is a single protein chain

>  <Sequence Accession>
P08684

>  <Reference>
J Med Chem 62 (8), 3989-4012 (2019)

>  <Pubmed ID>
30908048

>  <DOI>
10.1021/acs.jmedchem.8b02021

$$$$
2425887
Actelion Java MolfileCreator 1.0

 36 41  0  0  0  0  0  0  0  0999 V2000
    0.0000   -0.0000   -0.0000 O   0  0  0  0  0  0  0  0  0  0  0  0
   -0.0119   -1.4901   -0.0000 C   0  0  0  0  0  0  0  0  0  0  0  0
    1.2755   -2.2292   -0.0000 N   0  0  0  0  0  0  0  0  0  0  0  0
   -1.3232   -2.2292   -0.0000 N   0  0  0  0  0  0  0  0  0  0  0  0
    2.5629   -1.4662   -0.0000 C   0  0  0  0  0  0  0  0  0  0  0  0
   -2.6345   -1.4662   -0.0000 C   0  0  0  0  0  0  0  0  0  0  0  0
    3.8384   -2.2053   -0.0000 C   0  0  0  0  0  0  0  0  0  0  0  0
    2.5391    0.0358   -0.0000 C   0  0  0  0  0  0  0  0  0  0  0  0
   -3.9457   -2.2053   -0.0000 C   0  0  0  0  0  0  0  0  0  0  0  0
   -2.6464    0.0477   -0.0000 C   0  0  0  0  0  0  0  0  0  0  0  0
    3.8265   -3.6835   -0.0000 N   0  0  0  0  0  0  0  0  0  0  0  0
    5.1259   -1.4424   -0.0000 C   0  0  0  0  0  0  0  0  0  0  0  0
    3.8146    0.7987   -0.0000 C   0  0  0  0  0  0  0  0  0  0  0  0
   -5.2570   -1.4305   -0.0000 C   0  0  0  0  0  0  0  0  0  0  0  0
   -3.9696    0.8106   -0.0000 C   0  0  0  0  0  0  0  0  0  0  0  0
    2.5987   -4.5417   -0.0000 C   0  0  0  0  0  0  0  0  0  0  0  0
    5.0186   -4.5537   -0.0000 C   0  0  0  0  0  0  0  0  0  0  0  0
    5.1139    0.0715   -0.0000 C   0  0  0  0  0  0  0  0  0  0  0  0
   -5.2808    0.0715   -0.0000 C   0  0  0  0  0  0  0  0  0  0  0  0
   -6.5683   -2.1695   -0.0000 C   0  0  0  0  0  0  0  0  0  0  0  0
    3.0398   -5.9603   -0.0000 C   0  0  0  0  0  0  0  0  0  0  0  0
    4.5417   -5.9603   -0.0000 C   0  0  0  0  0  0  0  0  0  0  0  0
   -6.5802   -3.6596   -0.0000 C   0  0  0  0  0  0  0  0  0  0  0  0
   -7.8795   -1.4066   -0.0000 C   0  0  0  0  0  0  0  0  0  0  0  0
   -7.8914   -4.3868   -0.0000 N   0  0  0  0  0  0  0  0  0  0  0  0
   -9.1908   -2.1576   -0.0000 C   0  0  0  0  0  0  0  0  0  0  0  0
   -7.8914   -5.8769   -0.0000 C   0  0  0  0  0  0  0  0  0  0  0  0
   -9.2146   -3.6477   -0.0000 C   0  0  0  0  0  0  0  0  0  0  0  0
   -6.6040   -6.6159   -0.0000 N   0  0  0  0  0  0  0  0  0  0  0  0
   -9.2027   -6.6279   -0.0000 C   0  0  0  0  0  0  0  0  0  0  0  0
   -6.6159   -8.1179   -0.0000 C   0  0  0  0  0  0  0  0  0  0  0  0
   -9.2146   -8.1179   -0.0000 C   0  0  0  0  0  0  0  0  0  0  0  0
  -10.6451   -6.1391   -0.0000 C   0  0  0  0  0  0  0  0  0  0  0  0
   -7.9391   -8.8570   -0.0000 N   0  0  0  0  0  0  0  0  0  0  0  0
  -10.6570   -8.5709   -0.0000 N   0  0  0  0  0  0  0  0  0  0  0  0
  -11.5391   -7.3431   -0.0000 C   0  0  0  0  0  0  0  0  0  0  0  0
  1  2  2  0  0  0  0
  2  3  1  0  0  0  0
  2  4  1  0  0  0  0
  3  5  1  0  0  0  0
  4  6  1  0  0  0  0
  5  7  2  0  0  0  0
  5  8  1  0  0  0  0
  6  9  2  0  0  0  0
  6 10  1  0  0  0  0
  7 11  1  0  0  0  0
  7 12  1  0  0  0  0
  8 13  2  0  0  0  0
  9 14  1  0  0  0  0
 10 15  2  0  0  0  0
 11 16  1  0  0  0  0
 11 17  1  0  0  0  0
 12 18  2  0  0  0  0
 14 19  2  0  0  0  0
 20 14  1  6  0  0  0
 16 21  1  0  0  0  0
 17 22  1  0  0  0  0
 20 23  1  0  0  0  0
 20 24  1  0  0  0  0
 23 25  1  0  0  0  0
 24 26  1  0  0  0  0
 25 27  1  0  0  0  0
 25 28  1  0  0  0  0
 27 29  2  0  0  0  0
 27 30  1  0  0  0  0
 29 31  1  0  0  0  0
 30 32  2  0  0  0  0
 30 33  1  0  0  0  0
 31 34  2  0  0  0  0
 32 35  1  0  0  0  0
 33 36  2  0  0  0  0
 13 18  1  0  0  0  0
 15 19  1  0  0  0  0
 21 22  1  0  0  0  0
 26 28  1  0  0  0  0
 32 34  1  0  0  0  0
 35 36  1  0  0  0  0
M  END
>  <MolRegNo>
2425887

>  <m>
=

>  <Value>
1000

>  <Unit>
nM

>  <Type>
IC50

>  <pValue>
6

>  <Ligand Efficiency>
0.23

>  <Binding Efficiency>
12.46

>  <Surface Efficiency>
6.73

>  <Assay Index>
1303920

>  <Assay Category>


>  <Assay Organism>
Homo sapiens

>  <Target ID>
17045

>  <Target Name>
Cytochrome P450 3A4

>  <Target Organism>
Homo sapiens

>  <Target Description>
Target is a single protein chain

>  <Sequence Accession>
P08684

>  <Reference>
Bioorg Med Chem 27 (13), 2905-2913 (2019)

>  <Pubmed ID>
31138459

>  <DOI>
10.1016/j.bmc.2019.05.021

$$$$
1620512
Actelion Java MolfileCreator 1.0

 39 43  0  0  0  0  0  0  0  0999 V2000
    0.0000   -0.0000   -0.0000 S   0  0  0  0  0  0  0  0  0  0  0  0
    0.7331   -1.2888   -0.0000 O   0  0  0  0  0  0  0  0  0  0  0  0
    1.4898    0.0118   -0.0000 O   0  0  0  0  0  0  0  0  0  0  0  0
   -0.0118    1.5134   -0.0000 N   0  0  0  0  0  0  0  0  0  0  0  0
   -1.3124   -0.7331   -0.0000 C   0  0  0  0  0  0  0  0  0  0  0  0
    1.2770    2.2701   -0.0000 C   0  0  0  0  0  0  0  0  0  0  0  0
   -1.3243    2.2701   -0.0000 C   0  0  0  0  0  0  0  0  0  0  0  0
    1.2651    3.7836   -0.0000 C   0  0  0  0  0  0  0  0  0  0  0  0
    2.5657    1.5371   -0.0000 C   0  0  0  0  0  0  0  0  0  0  0  0
   -2.6367    1.5371   -0.0000 C   0  0  0  0  0  0  0  0  0  0  0  0
    2.5421    4.5403   -0.0000 C   0  0  0  0  0  0  0  0  0  0  0  0
   -0.0473    4.5521   -0.0000 C   0  0  0  0  0  0  0  0  0  0  0  0
    3.8545    2.2938   -0.0000 C   0  0  0  0  0  0  0  0  0  0  0  0
   -3.9491    2.2938   -0.0000 C   0  0  0  0  0  0  0  0  0  0  0  0
   -2.6485    0.0473   -0.0000 C   0  0  0  0  0  0  0  0  0  0  0  0
    3.8309    3.8072   -0.0000 C   0  0  0  0  0  0  0  0  0  0  0  0
   -0.8040    5.8645   -0.0000 C   0  0  0  0  0  0  0  0  0  0  0  0
   -1.5489    4.5639   -0.0000 C   0  0  0  0  0  0  0  0  0  0  0  0
    5.2852    1.8445   -0.0000 O   0  0  0  0  0  0  0  0  0  0  0  0
   -5.2615    1.5607   -0.0000 C   0  0  0  0  0  0  0  0  0  0  0  0
   -3.9491   -0.6858   -0.0000 C   0  0  0  0  0  0  0  0  0  0  0  0
    5.2497    4.2920   -0.0000 C   0  0  0  0  0  0  0  0  0  0  0  0
    6.1483    3.0860   -0.0000 C   0  0  0  0  0  0  0  0  0  0  0  0
   -6.5621    2.3293   -0.0000 F   0  0  0  0  0  0  0  0  0  0  0  0
   -5.2852    0.0709   -0.0000 C   0  0  0  0  0  0  0  0  0  0  0  0
    5.6872    5.7345   -0.0000 C   0  0  0  0  0  0  0  0  0  0  0  0
    7.6263    3.1096   -0.0000 C   0  0  0  0  0  0  0  0  0  0  0  0
   -6.5976   -0.6621   -0.0000 B   0  0  0  0  0  0  0  0  0  0  0  0
    4.6704    6.8577   -0.0000 O   0  0  0  0  0  0  0  0  0  0  0  0
    7.1415    6.0656   -0.0000 N   0  0  0  0  0  0  0  0  0  0  0  0
    8.3712    1.8208   -0.0000 C   0  0  0  0  0  0  0  0  0  0  0  0
    8.3475    4.4221   -0.0000 C   0  0  0  0  0  0  0  0  0  0  0  0
   -6.6331   -2.1519   -0.0000 O   0  0  0  0  0  0  0  0  0  0  0  0
   -7.9100    0.0946   -0.0000 O   0  0  0  0  0  0  0  0  0  0  0  0
    7.5790    7.5080   -0.0000 C   0  0  0  0  0  0  0  0  0  0  0  0
    9.8491    1.8445   -0.0000 C   0  0  0  0  0  0  0  0  0  0  0  0
    9.8255    4.4457   -0.0000 C   0  0  0  0  0  0  0  0  0  0  0  0
   10.5822    3.1569   -0.0000 C   0  0  0  0  0  0  0  0  0  0  0  0
   12.0720    3.1806   -0.0000 F   0  0  0  0  0  0  0  0  0  0  0  0
  1  2  2  0  0  0  0
  1  3  2  0  0  0  0
  1  4  1  0  0  0  0
  1  5  1  0  0  0  0
  4  6  1  0  0  0  0
  4  7  1  0  0  0  0
  6  8  2  0  0  0  0
  6  9  1  0  0  0  0
  7 10  1  0  0  0  0
  8 11  1  0  0  0  0
  8 12  1  0  0  0  0
  9 13  2  0  0  0  0
 10 14  2  0  0  0  0
 10 15  1  0  0  0  0
 11 16  2  0  0  0  0
 12 17  1  0  0  0  0
 12 18  1  0  0  0  0
 13 19  1  0  0  0  0
 14 20  1  0  0  0  0
 15 21  2  0  0  0  0
 16 22  1  0  0  0  0
 19 23  1  0  0  0  0
 20 24  1  0  0  0  0
 20 25  2  0  0  0  0
 22 26  1  0  0  0  0
 23 27  1  0  0  0  0
 25 28  1  0  0  0  0
 26 29  2  0  0  0  0
 26 30  1  0  0  0  0
 27 31  2  0  0  0  0
 27 32  1  0  0  0  0
 28 33  1  0  0  0  0
 28 34  1  0  0  0  0
 30 35  1  0  0  0  0
 31 36  1  0  0  0  0
 32 37  2  0  0  0  0
 36 38  2  0  0  0  0
 38 39  1  0  0  0  0
 13 16  1  0  0  0  0
 17 18  1  0  0  0  0
 21 25  1  0  0  0  0
 22 23  2  0  0  0  0
 37 38  1  0  0  0  0
M  END
>  <MolRegNo>
1620512

>  <m>
=

>  <Value>
7100

>  <Unit>
nM

>  <Type>
IC50

>  <pValue>
5.15

>  <Ligand Efficiency>
0

>  <Binding Efficiency>
0

>  <Surface Efficiency>
0

>  <Assay Index>
1305201

>  <Assay Category>


>  <Assay Organism>
Homo sapiens

>  <Target ID>
17045

>  <Target Name>
Cytochrome P450 3A4

>  <Target Organism>
Homo sapiens

>  <Target Description>
Target is a single protein chain

>  <Sequence Accession>
P08684

>  <Reference>
J Med Chem 62 (7), 3254-3267 (2019)

>  <Pubmed ID>
30763090

>  <DOI>
10.1021/acs.jmedchem.8b01719

$$$$
2358913
Actelion Java MolfileCreator 1.0

 38 43  0  0  0  0  0  0  0  0999 V2000
    0.0000   -0.0000   -0.0000 F   0  0  0  0  0  0  0  0  0  0  0  0
   -1.3073   -0.7368   -0.0000 C   0  0  0  0  0  0  0  0  0  0  0  0
   -1.3191   -2.2342   -0.0000 C   0  0  0  0  0  0  0  0  0  0  0  0
   -2.6145    0.0238   -0.0000 C   0  0  0  0  0  0  0  0  0  0  0  0
   -2.6383   -2.9710   -0.0000 C   0  0  0  0  0  0  0  0  0  0  0  0
   -0.0357   -2.9710   -0.0000 B   0  0  0  0  0  0  0  0  0  0  0  0
   -3.9218   -0.7131   -0.0000 C   0  0  0  0  0  0  0  0  0  0  0  0
   -3.9455   -2.2105   -0.0000 C   0  0  0  0  0  0  0  0  0  0  0  0
   -0.0475   -4.4566   -0.0000 O   0  0  0  0  0  0  0  0  0  0  0  0
    1.2478   -2.2105   -0.0000 O   0  0  0  0  0  0  0  0  0  0  0  0
   -4.9914    0.3565   -0.0000 C   0  0  0  0  0  0  0  0  0  0  0  0
   -6.4650    0.0475   -0.0000 N   0  0  0  0  0  0  0  0  0  0  0  0
   -4.8487    1.8420   -0.0000 N   0  0  0  0  0  0  0  0  0  0  0  0
   -7.2256    1.3548   -0.0000 C   0  0  0  0  0  0  0  0  0  0  0  0
   -6.2273    2.4719   -0.0000 N   0  0  0  0  0  0  0  0  0  0  0  0
   -3.5653    2.6026   -0.0000 C   0  0  0  0  0  0  0  0  0  0  0  0
   -3.5771    4.1238   -0.0000 C   0  0  0  0  0  0  0  0  0  0  0  0
   -2.2818    1.8658   -0.0000 C   0  0  0  0  0  0  0  0  0  0  0  0
   -2.2936    4.8844   -0.0000 C   0  0  0  0  0  0  0  0  0  0  0  0
   -4.8963    4.8963   -0.0000 C   0  0  0  0  0  0  0  0  0  0  0  0
   -0.9983    2.6264   -0.0000 C   0  0  0  0  0  0  0  0  0  0  0  0
   -1.0102    4.1476   -0.0000 C   0  0  0  0  0  0  0  0  0  0  0  0
   -5.6569    6.2035   -0.0000 C   0  0  0  0  0  0  0  0  0  0  0  0
   -6.4056    4.9082   -0.0000 C   0  0  0  0  0  0  0  0  0  0  0  0
    0.4278    2.1748   -0.0000 O   0  0  0  0  0  0  0  0  0  0  0  0
    0.4159    4.6229   -0.0000 C   0  0  0  0  0  0  0  0  0  0  0  0
    1.3073    3.4108   -0.0000 C   0  0  0  0  0  0  0  0  0  0  0  0
    0.8675    6.0609   -0.0000 C   0  0  0  0  0  0  0  0  0  0  0  0
    2.7928    3.4226   -0.0000 C   0  0  0  0  0  0  0  0  0  0  0  0
   -0.1426    7.1899   -0.0000 O   0  0  0  0  0  0  0  0  0  0  0  0
    2.3174    6.3818   -0.0000 N   0  0  0  0  0  0  0  0  0  0  0  0
    3.5296    2.1392   -0.0000 C   0  0  0  0  0  0  0  0  0  0  0  0
    3.5296    4.7299   -0.0000 C   0  0  0  0  0  0  0  0  0  0  0  0
    2.7690    7.8198   -0.0000 C   0  0  0  0  0  0  0  0  0  0  0  0
    5.0151    2.1510   -0.0000 C   0  0  0  0  0  0  0  0  0  0  0  0
    5.0151    4.7537   -0.0000 C   0  0  0  0  0  0  0  0  0  0  0  0
    5.7519    3.4583   -0.0000 C   0  0  0  0  0  0  0  0  0  0  0  0
    7.2375    3.4702   -0.0000 F   0  0  0  0  0  0  0  0  0  0  0  0
  1  2  1  0  0  0  0
  2  3  2  0  0  0  0
  2  4  1  0  0  0  0
  3  5  1  0  0  0  0
  3  6  1  0  0  0  0
  4  7  2  0  0  0  0
  5  8  2  0  0  0  0
  6  9  1  0  0  0  0
  6 10  1  0  0  0  0
  7 11  1  0  0  0  0
 11 12  2  0  0  0  0
 11 13  1  0  0  0  0
 12 14  1  0  0  0  0
 13 15  1  0  0  0  0
 13 16  1  0  0  0  0
 16 17  2  0  0  0  0
 16 18  1  0  0  0  0
 17 19  1  0  0  0  0
 17 20  1  0  0  0  0
 18 21  2  0  0  0  0
 19 22  2  0  0  0  0
 20 23  1  0  0  0  0
 20 24  1  0  0  0  0
 21 25  1  0  0  0  0
 22 26  1  0  0  0  0
 25 27  1  0  0  0  0
 26 28  1  0  0  0  0
 27 29  1  0  0  0  0
 28 30  2  0  0  0  0
 28 31  1  0  0  0  0
 29 32  2  0  0  0  0
 29 33  1  0  0  0  0
 31 34  1  0  0  0  0
 32 35  1  0  0  0  0
 33 36  2  0  0  0  0
 35 37  2  0  0  0  0
 37 38  1  0  0  0  0
  7  8  1  0  0  0  0
 14 15  2  0  0  0  0
 21 22  1  0  0  0  0
 23 24  1  0  0  0  0
 26 27  2  0  0  0  0
 36 37  1  0  0  0  0
M  END
>  <MolRegNo>
2358913

>  <m>
=

>  <Value>
8900

>  <Unit>
nM

>  <Type>
IC50

>  <pValue>
5.05

>  <Ligand Efficiency>
0

>  <Binding Efficiency>
0

>  <Surface Efficiency>
0

>  <Assay Index>
1305201

>  <Assay Category>


>  <Assay Organism>
Homo sapiens

>  <Target ID>
17045

>  <Target Name>
Cytochrome P450 3A4

>  <Target Organism>
Homo sapiens

>  <Target Description>
Target is a single protein chain

>  <Sequence Accession>
P08684

>  <Reference>
J Med Chem 62 (7), 3254-3267 (2019)

>  <Pubmed ID>
30763090

>  <DOI>
10.1021/acs.jmedchem.8b01719

$$$$
2346091
Actelion Java MolfileCreator 1.0

 38 43  0  0  0  0  0  0  0  0999 V2000
    0.0000   -0.0000   -0.0000 F   0  0  0  0  0  0  0  0  0  0  0  0
   -1.3071   -0.7486   -0.0000 C   0  0  0  0  0  0  0  0  0  0  0  0
   -1.3190   -2.2459   -0.0000 C   0  0  0  0  0  0  0  0  0  0  0  0
   -2.6143    0.0119   -0.0000 C   0  0  0  0  0  0  0  0  0  0  0  0
   -2.6380   -2.9827   -0.0000 C   0  0  0  0  0  0  0  0  0  0  0  0
   -0.0356   -2.9827   -0.0000 B   0  0  0  0  0  0  0  0  0  0  0  0
   -3.9214   -0.7249   -0.0000 C   0  0  0  0  0  0  0  0  0  0  0  0
   -3.9452   -2.2221   -0.0000 C   0  0  0  0  0  0  0  0  0  0  0  0
   -0.0475   -4.4680   -0.0000 O   0  0  0  0  0  0  0  0  0  0  0  0
    1.2477   -2.2221   -0.0000 O   0  0  0  0  0  0  0  0  0  0  0  0
   -4.9909    0.3446   -0.0000 C   0  0  0  0  0  0  0  0  0  0  0  0
   -4.8483    1.8300   -0.0000 N   0  0  0  0  0  0  0  0  0  0  0  0
   -6.4644    0.0356   -0.0000 C   0  0  0  0  0  0  0  0  0  0  0  0
   -6.2267    2.4598   -0.0000 N   0  0  0  0  0  0  0  0  0  0  0  0
   -3.5649    2.5905   -0.0000 C   0  0  0  0  0  0  0  0  0  0  0  0
   -7.2249    1.3428   -0.0000 C   0  0  0  0  0  0  0  0  0  0  0  0
   -3.5768    4.1116   -0.0000 C   0  0  0  0  0  0  0  0  0  0  0  0
   -2.2816    1.8538   -0.0000 C   0  0  0  0  0  0  0  0  0  0  0  0
   -2.2934    4.8721   -0.0000 C   0  0  0  0  0  0  0  0  0  0  0  0
   -4.8958    4.8840   -0.0000 C   0  0  0  0  0  0  0  0  0  0  0  0
   -0.9982    2.6143   -0.0000 C   0  0  0  0  0  0  0  0  0  0  0  0
   -1.0101    4.1353   -0.0000 C   0  0  0  0  0  0  0  0  0  0  0  0
   -5.6564    6.1911   -0.0000 C   0  0  0  0  0  0  0  0  0  0  0  0
   -6.4050    4.8958   -0.0000 C   0  0  0  0  0  0  0  0  0  0  0  0
    0.4278    2.1627   -0.0000 O   0  0  0  0  0  0  0  0  0  0  0  0
    0.4159    4.6106   -0.0000 C   0  0  0  0  0  0  0  0  0  0  0  0
    1.3071    3.3986   -0.0000 C   0  0  0  0  0  0  0  0  0  0  0  0
    0.8675    6.0485   -0.0000 C   0  0  0  0  0  0  0  0  0  0  0  0
    2.7925    3.4104   -0.0000 C   0  0  0  0  0  0  0  0  0  0  0  0
   -0.1426    7.1774   -0.0000 O   0  0  0  0  0  0  0  0  0  0  0  0
    2.3172    6.3693   -0.0000 N   0  0  0  0  0  0  0  0  0  0  0  0
    3.5293    2.1271   -0.0000 C   0  0  0  0  0  0  0  0  0  0  0  0
    3.5293    4.7176   -0.0000 C   0  0  0  0  0  0  0  0  0  0  0  0
    2.7688    7.8072   -0.0000 C   0  0  0  0  0  0  0  0  0  0  0  0
    5.0147    2.1390   -0.0000 C   0  0  0  0  0  0  0  0  0  0  0  0
    5.0147    4.7414   -0.0000 C   0  0  0  0  0  0  0  0  0  0  0  0
    5.7514    3.4461   -0.0000 C   0  0  0  0  0  0  0  0  0  0  0  0
    7.2368    3.4580   -0.0000 F   0  0  0  0  0  0  0  0  0  0  0  0
  1  2  1  0  0  0  0
  2  3  2  0  0  0  0
  2  4  1  0  0  0  0
  3  5  1  0  0  0  0
  3  6  1  0  0  0  0
  4  7  2  0  0  0  0
  5  8  2  0  0  0  0
  6  9  1  0  0  0  0
  6 10  1  0  0  0  0
  7 11  1  0  0  0  0
 11 12  1  0  0  0  0
 11 13  2  0  0  0  0
 12 14  1  0  0  0  0
 12 15  1  0  0  0  0
 13 16  1  0  0  0  0
 15 17  2  0  0  0  0
 15 18  1  0  0  0  0
 17 19  1  0  0  0  0
 17 20  1  0  0  0  0
 18 21  2  0  0  0  0
 19 22  2  0  0  0  0
 20 23  1  0  0  0  0
 20 24  1  0  0  0  0
 21 25  1  0  0  0  0
 22 26  1  0  0  0  0
 25 27  1  0  0  0  0
 26 28  1  0  0  0  0
 27 29  1  0  0  0  0
 28 30  2  0  0  0  0
 28 31  1  0  0  0  0
 29 32  2  0  0  0  0
 29 33  1  0  0  0  0
 31 34  1  0  0  0  0
 32 35  1  0  0  0  0
 33 36  2  0  0  0  0
 35 37  2  0  0  0  0
 37 38  1  0  0  0  0
  7  8  1  0  0  0  0
 14 16  2  0  0  0  0
 21 22  1  0  0  0  0
 23 24  1  0  0  0  0
 26 27  2  0  0  0  0
 36 37  1  0  0  0  0
M  END
>  <MolRegNo>
2346091

>  <m>
=

>  <Value>
2000

>  <Unit>
nM

>  <Type>
IC50

>  <pValue>
5.7

>  <Ligand Efficiency>
0

>  <Binding Efficiency>
0

>  <Surface Efficiency>
0

>  <Assay Index>
1305201

>  <Assay Category>


>  <Assay Organism>
Homo sapiens

>  <Target ID>
17045

>  <Target Name>
Cytochrome P450 3A4

>  <Target Organism>
Homo sapiens

>  <Target Description>
Target is a single protein chain

>  <Sequence Accession>
P08684

>  <Reference>
J Med Chem 62 (7), 3254-3267 (2019)

>  <Pubmed ID>
30763090

>  <DOI>
10.1021/acs.jmedchem.8b01719

$$$$
2398878
Actelion Java MolfileCreator 1.0

 38 42  0  0  0  0  0  0  0  0999 V2000
    0.0000   -0.0000   -0.0000 Cl  0  0  0  0  0  0  0  0  0  0  0  0
   -1.3122    0.7566   -0.0000 C   0  0  0  0  0  0  0  0  0  0  0  0
   -2.6244    0.0118   -0.0000 C   0  0  0  0  0  0  0  0  0  0  0  0
   -1.3240    2.2579   -0.0000 C   0  0  0  0  0  0  0  0  0  0  0  0
   -3.9365    0.7802   -0.0000 C   0  0  0  0  0  0  0  0  0  0  0  0
   -2.6362   -1.4777   -0.0000 B   0  0  0  0  0  0  0  0  0  0  0  0
   -2.6244    3.0026   -0.0000 C   0  0  0  0  0  0  0  0  0  0  0  0
   -3.9484    2.2934   -0.0000 C   0  0  0  0  0  0  0  0  0  0  0  0
   -3.9484   -2.2106   -0.0000 O   0  0  0  0  0  0  0  0  0  0  0  0
   -1.3476   -2.2106   -0.0000 O   0  0  0  0  0  0  0  0  0  0  0  0
   -2.6362    4.5158   -0.0000 N   0  0  0  0  0  0  0  0  0  0  0  0
   -3.9484    5.2842   -0.0000 S   0  0  0  0  0  0  0  0  0  0  0  0
   -1.3476    5.2724   -0.0000 C   0  0  0  0  0  0  0  0  0  0  0  0
   -4.7168    6.5964   -0.0000 O   0  0  0  0  0  0  0  0  0  0  0  0
   -3.2154    6.5964   -0.0000 O   0  0  0  0  0  0  0  0  0  0  0  0
   -5.2487    4.5513   -0.0000 C   0  0  0  0  0  0  0  0  0  0  0  0
   -1.3595    6.7855   -0.0000 C   0  0  0  0  0  0  0  0  0  0  0  0
   -0.0591    4.5394   -0.0000 C   0  0  0  0  0  0  0  0  0  0  0  0
   -0.0828    7.5421   -0.0000 C   0  0  0  0  0  0  0  0  0  0  0  0
   -2.6716    7.5539   -0.0000 C   0  0  0  0  0  0  0  0  0  0  0  0
    1.2294    5.2960   -0.0000 C   0  0  0  0  0  0  0  0  0  0  0  0
    1.2058    6.8092   -0.0000 C   0  0  0  0  0  0  0  0  0  0  0  0
   -3.4282    8.8661   -0.0000 C   0  0  0  0  0  0  0  0  0  0  0  0
   -4.1848    7.5657   -0.0000 C   0  0  0  0  0  0  0  0  0  0  0  0
    2.6480    4.8468   -0.0000 O   0  0  0  0  0  0  0  0  0  0  0  0
    2.6244    7.2820   -0.0000 C   0  0  0  0  0  0  0  0  0  0  0  0
    3.5228    6.0762   -0.0000 C   0  0  0  0  0  0  0  0  0  0  0  0
    3.0736    8.7124   -0.0000 C   0  0  0  0  0  0  0  0  0  0  0  0
    5.0005    6.0880   -0.0000 C   0  0  0  0  0  0  0  0  0  0  0  0
    2.0569    9.8354   -0.0000 O   0  0  0  0  0  0  0  0  0  0  0  0
    4.5276    9.0316   -0.0000 N   0  0  0  0  0  0  0  0  0  0  0  0
    5.7334    4.7995   -0.0000 C   0  0  0  0  0  0  0  0  0  0  0  0
    5.7334    7.3884   -0.0000 C   0  0  0  0  0  0  0  0  0  0  0  0
    4.9768   10.4620   -0.0000 C   0  0  0  0  0  0  0  0  0  0  0  0
    7.2229    4.8113   -0.0000 C   0  0  0  0  0  0  0  0  0  0  0  0
    7.2111    7.4120   -0.0000 C   0  0  0  0  0  0  0  0  0  0  0  0
    7.9558    6.1235   -0.0000 C   0  0  0  0  0  0  0  0  0  0  0  0
    9.4453    6.1353   -0.0000 F   0  0  0  0  0  0  0  0  0  0  0  0
  1  2  1  0  0  0  0
  2  3  2  0  0  0  0
  2  4  1  0  0  0  0
  3  5  1  0  0  0  0
  3  6  1  0  0  0  0
  4  7  2  0  0  0  0
  5  8  2  0  0  0  0
  6  9  1  0  0  0  0
  6 10  1  0  0  0  0
  7 11  1  0  0  0  0
 11 12  1  0  0  0  0
 11 13  1  0  0  0  0
 12 14  2  0  0  0  0
 12 15  2  0  0  0  0
 12 16  1  0  0  0  0
 13 17  2  0  0  0  0
 13 18  1  0  0  0  0
 17 19  1  0  0  0  0
 17 20  1  0  0  0  0
 18 21  2  0  0  0  0
 19 22  2  0  0  0  0
 20 23  1  0  0  0  0
 20 24  1  0  0  0  0
 21 25  1  0  0  0  0
 22 26  1  0  0  0  0
 25 27  1  0  0  0  0
 26 28  1  0  0  0  0
 27 29  1  0  0  0  0
 28 30  2  0  0  0  0
 28 31  1  0  0  0  0
 29 32  2  0  0  0  0
 29 33  1  0  0  0  0
 31 34  1  0  0  0  0
 32 35  1  0  0  0  0
 33 36  2  0  0  0  0
 35 37  2  0  0  0  0
 37 38  1  0  0  0  0
  7  8  1  0  0  0  0
 21 22  1  0  0  0  0
 23 24  1  0  0  0  0
 26 27  2  0  0  0  0
 36 37  1  0  0  0  0
M  END
>  <MolRegNo>
2398878

>  <m>
=

>  <Value>
4200

>  <Unit>
nM

>  <Type>
IC50

>  <pValue>
5.38

>  <Ligand Efficiency>
0

>  <Binding Efficiency>
0

>  <Surface Efficiency>
0

>  <Assay Index>
1305201

>  <Assay Category>


>  <Assay Organism>
Homo sapiens

>  <Target ID>
17045

>  <Target Name>
Cytochrome P450 3A4

>  <Target Organism>
Homo sapiens

>  <Target Description>
Target is a single protein chain

>  <Sequence Accession>
P08684

>  <Reference>
J Med Chem 62 (7), 3254-3267 (2019)

>  <Pubmed ID>
30763090

>  <DOI>
10.1021/acs.jmedchem.8b01719

$$$$
2359578
Actelion Java MolfileCreator 1.0

 18 20  0  0  0  0  0  0  0  0999 V2000
    0.0000   -0.0000   -0.0000 I   0  0  0  0  0  0  0  0  0  0  0  0
    1.2929   -0.7354   -0.0000 C   0  0  0  0  0  0  0  0  0  0  0  0
    2.5739    0.0237   -0.0000 C   0  0  0  0  0  0  0  0  0  0  0  0
    1.2810   -2.2299   -0.0000 C   0  0  0  0  0  0  0  0  0  0  0  0
    2.5620    1.5419   -0.0000 F   0  0  0  0  0  0  0  0  0  0  0  0
    3.8667   -0.7117   -0.0000 C   0  0  0  0  0  0  0  0  0  0  0  0
    2.5739   -2.9653   -0.0000 C   0  0  0  0  0  0  0  0  0  0  0  0
    3.8667   -2.2062   -0.0000 C   0  0  0  0  0  0  0  0  0  0  0  0
    5.2782   -0.2254   -0.0000 C   0  0  0  0  0  0  0  0  0  0  0  0
    5.2901   -2.6569   -0.0000 N   0  0  0  0  0  0  0  0  0  0  0  0
    5.7171    1.2098   -0.0000 C   0  0  0  0  0  0  0  0  0  0  0  0
    6.1559   -1.4233   -0.0000 C   0  0  0  0  0  0  0  0  0  0  0  0
    4.8156    2.4315   -0.0000 N   0  0  0  0  0  0  0  0  0  0  0  0
    7.1285    1.6961   -0.0000 C   0  0  0  0  0  0  0  0  0  0  0  0
    5.6815    3.6651   -0.0000 C   0  0  0  0  0  0  0  0  0  0  0  0
    3.2974    2.4315   -0.0000 C   0  0  0  0  0  0  0  0  0  0  0  0
    7.1048    3.2144   -0.0000 N   0  0  0  0  0  0  0  0  0  0  0  0
    2.5264    3.7362   -0.0000 C   0  0  0  0  0  0  0  0  0  0  0  0
  1  2  1  0  0  0  0
  2  3  2  0  0  0  0
  2  4  1  0  0  0  0
  3  5  1  0  0  0  0
  3  6  1  0  0  0  0
  4  7  2  0  0  0  0
  6  8  2  0  0  0  0
  6  9  1  0  0  0  0
  8 10  1  0  0  0  0
  9 11  1  0  0  0  0
  9 12  2  0  0  0  0
 11 13  1  0  0  0  0
 11 14  2  0  0  0  0
 13 15  1  0  0  0  0
 13 16  1  0  0  0  0
 14 17  1  0  0  0  0
 16 18  1  0  0  0  0
  7  8  1  0  0  0  0
 10 12  1  0  0  0  0
 15 17  2  0  0  0  0
M  END
>  <MolRegNo>
2359578

>  <m>
=

>  <Value>
100

>  <Unit>
nM

>  <Type>
IC50

>  <pValue>
7

>  <Ligand Efficiency>
0

>  <Binding Efficiency>
0

>  <Surface Efficiency>
0

>  <Assay Index>
1308166

>  <Assay Category>


>  <Assay Organism>
Homo sapiens

>  <Target ID>
17045

>  <Target Name>
Cytochrome P450 3A4

>  <Target Organism>
Homo sapiens

>  <Target Description>
Target is a single protein chain

>  <Sequence Accession>
P08684

>  <Reference>


>  <Pubmed ID>
30904783

>  <DOI>
10.1016/j.ejmech.2019.03.017

$$$$
2443602
Actelion Java MolfileCreator 1.0

 26 28  0  0  0  0  0  0  0  0999 V2000
    0.0000   -0.0000   -0.0000 Cl  0  0  0  0  0  0  0  0  0  0  0  0
   -1.3048    0.7592   -0.0000 C   0  0  0  0  0  0  0  0  0  0  0  0
   -1.3167    2.2657   -0.0000 C   0  0  0  0  0  0  0  0  0  0  0  0
   -2.6215    0.0119   -0.0000 C   0  0  0  0  0  0  0  0  0  0  0  0
   -2.6215    3.0248   -0.0000 C   0  0  0  0  0  0  0  0  0  0  0  0
   -3.9264    0.7710   -0.0000 C   0  0  0  0  0  0  0  0  0  0  0  0
   -2.6334    4.5313   -0.0000 C   0  0  0  0  0  0  0  0  0  0  0  0
   -3.9382    2.2894   -0.0000 C   0  0  0  0  0  0  0  0  0  0  0  0
   -1.3404    5.2905   -0.0000 N   0  0  0  0  0  0  0  0  0  0  0  0
   -3.9382    5.2905   -0.0000 N   0  0  0  0  0  0  0  0  0  0  0  0
   -1.3523    6.8088   -0.0000 C   0  0  0  0  0  0  0  0  0  0  0  0
   -3.9501    6.8088   -0.0000 C   0  0  0  0  0  0  0  0  0  0  0  0
   -2.6571    7.5680   -0.0000 C   0  0  0  0  0  0  0  0  0  0  0  0
   -0.0712    7.5680   -0.0000 C   0  0  0  0  0  0  0  0  0  0  0  0
   -5.2549    7.5680   -0.0000 C   0  0  0  0  0  0  0  0  0  0  0  0
    1.2099    6.8326   -0.0000 C   0  0  0  0  0  0  0  0  0  0  0  0
   -6.5597    6.8326   -0.0000 C   0  0  0  0  0  0  0  0  0  0  0  0
    1.1981    5.3498   -0.0000 C   0  0  0  0  0  0  0  0  0  0  0  0
    2.4792    7.6036   -0.0000 C   0  0  0  0  0  0  0  0  0  0  0  0
    2.4792    4.6144   -0.0000 C   0  0  0  0  0  0  0  0  0  0  0  0
    3.7603    6.8800   -0.0000 C   0  0  0  0  0  0  0  0  0  0  0  0
    3.7603    5.3735   -0.0000 C   0  0  0  0  0  0  0  0  0  0  0  0
    5.0533    4.6381   -0.0000 C   0  0  0  0  0  0  0  0  0  0  0  0
    6.3344    5.4091   -0.0000 C   0  0  0  0  0  0  0  0  0  0  0  0
    6.3106    6.9156   -0.0000 O   0  0  0  0  0  0  0  0  0  0  0  0
    7.6273    4.6737   -0.0000 N   0  0  0  0  0  0  0  0  0  0  0  0
  1  2  1  0  0  0  0
  2  3  2  0  0  0  0
  2  4  1  0  0  0  0
  3  5  1  0  0  0  0
  4  6  2  0  0  0  0
  5  7  1  0  0  0  0
  5  8  2  0  0  0  0
  7  9  2  0  0  0  0
  7 10  1  0  0  0  0
  9 11  1  0  0  0  0
 10 12  2  0  0  0  0
 11 13  2  0  0  0  0
 11 14  1  0  0  0  0
 12 15  1  0  0  0  0
 14 16  1  0  0  0  0
 15 17  1  0  0  0  0
 16 18  2  0  0  0  0
 16 19  1  0  0  0  0
 18 20  1  0  0  0  0
 19 21  2  0  0  0  0
 20 22  2  0  0  0  0
 22 23  1  0  0  0  0
 23 24  1  0  0  0  0
 24 25  2  0  0  0  0
 24 26  1  0  0  0  0
  6  8  1  0  0  0  0
 12 13  1  0  0  0  0
 21 22  1  0  0  0  0
M  END
>  <MolRegNo>
2443602

>  <m>
=

>  <Value>
5900

>  <Unit>
nM

>  <Type>
IC50

>  <pValue>
5.23

>  <Ligand Efficiency>
0

>  <Binding Efficiency>
0

>  <Surface Efficiency>
0

>  <Assay Index>
1311227

>  <Assay Category>


>  <Assay Organism>
Homo sapiens

>  <Target ID>
17045

>  <Target Name>
Cytochrome P450 3A4

>  <Target Organism>
Homo sapiens

>  <Target Description>
Target is a single protein chain

>  <Sequence Accession>
P08684

>  <Reference>
J Med Chem 62 (10), 4884-4901 (2019)

>  <Pubmed ID>
31013090

>  <DOI>
10.1021/acs.jmedchem.9b00193

$$$$
2412395
Actelion Java MolfileCreator 1.0

 28 30  0  0  0  0  0  0  0  0999 V2000
    0.0000   -0.0000   -0.0000 Cl  0  0  0  0  0  0  0  0  0  0  0  0
   -1.3042    0.7588   -0.0000 C   0  0  0  0  0  0  0  0  0  0  0  0
   -1.3161    2.2646   -0.0000 C   0  0  0  0  0  0  0  0  0  0  0  0
   -2.6203    0.0119   -0.0000 C   0  0  0  0  0  0  0  0  0  0  0  0
   -2.6203    3.0234   -0.0000 C   0  0  0  0  0  0  0  0  0  0  0  0
   -3.9246    0.7707   -0.0000 C   0  0  0  0  0  0  0  0  0  0  0  0
   -2.6322    4.5292   -0.0000 C   0  0  0  0  0  0  0  0  0  0  0  0
   -3.9364    2.2883   -0.0000 C   0  0  0  0  0  0  0  0  0  0  0  0
   -3.9364    5.2881   -0.0000 N   0  0  0  0  0  0  0  0  0  0  0  0
   -1.3398    5.2881   -0.0000 C   0  0  0  0  0  0  0  0  0  0  0  0
   -3.9483    6.8057   -0.0000 C   0  0  0  0  0  0  0  0  0  0  0  0
   -1.3517    6.8057   -0.0000 C   0  0  0  0  0  0  0  0  0  0  0  0
   -2.6677    7.5645   -0.0000 C   0  0  0  0  0  0  0  0  0  0  0  0
   -5.2525    7.5645   -0.0000 C   0  0  0  0  0  0  0  0  0  0  0  0
   -0.0711    7.5645   -0.0000 C   0  0  0  0  0  0  0  0  0  0  0  0
   -5.2644    9.0703   -0.0000 F   0  0  0  0  0  0  0  0  0  0  0  0
   -6.5567    6.8294   -0.0000 F   0  0  0  0  0  0  0  0  0  0  0  0
   -6.5686    8.3234   -0.0000 F   0  0  0  0  0  0  0  0  0  0  0  0
    1.2094    6.8294   -0.0000 C   0  0  0  0  0  0  0  0  0  0  0  0
    1.1975    5.3474   -0.0000 C   0  0  0  0  0  0  0  0  0  0  0  0
    2.4780    7.6001   -0.0000 C   0  0  0  0  0  0  0  0  0  0  0  0
    2.4780    4.6122   -0.0000 C   0  0  0  0  0  0  0  0  0  0  0  0
    3.7586    6.8769   -0.0000 C   0  0  0  0  0  0  0  0  0  0  0  0
    3.7586    5.3829   -0.0000 C   0  0  0  0  0  0  0  0  0  0  0  0
    5.0509    4.6478   -0.0000 C   0  0  0  0  0  0  0  0  0  0  0  0
    6.3315    5.4185   -0.0000 C   0  0  0  0  0  0  0  0  0  0  0  0
    6.3077    6.9243   -0.0000 O   0  0  0  0  0  0  0  0  0  0  0  0
    7.6238    4.6834   -0.0000 O   0  0  0  0  0  0  0  0  0  0  0  0
  1  2  1  0  0  0  0
  2  3  2  0  0  0  0
  2  4  1  0  0  0  0
  3  5  1  0  0  0  0
  4  6  2  0  0  0  0
  5  7  1  0  0  0  0
  5  8  2  0  0  0  0
  7  9  2  0  0  0  0
  7 10  1  0  0  0  0
  9 11  1  0  0  0  0
 10 12  2  0  0  0  0
 11 13  2  0  0  0  0
 11 14  1  0  0  0  0
 12 15  1  0  0  0  0
 14 16  1  0  0  0  0
 14 17  1  0  0  0  0
 14 18  1  0  0  0  0
 15 19  1  0  0  0  0
 19 20  2  0  0  0  0
 19 21  1  0  0  0  0
 20 22  1  0  0  0  0
 21 23  2  0  0  0  0
 22 24  2  0  0  0  0
 24 25  1  0  0  0  0
 25 26  1  0  0  0  0
 26 27  2  0  0  0  0
 26 28  1  0  0  0  0
  6  8  1  0  0  0  0
 12 13  1  0  0  0  0
 23 24  1  0  0  0  0
M  END
>  <MolRegNo>
2412395

>  <m>
=

>  <Value>
15000

>  <Unit>
nM

>  <Type>
IC50

>  <pValue>
4.82

>  <Ligand Efficiency>
0

>  <Binding Efficiency>
0

>  <Surface Efficiency>
0

>  <Assay Index>
1311227

>  <Assay Category>


>  <Assay Organism>
Homo sapiens

>  <Target ID>
17045

>  <Target Name>
Cytochrome P450 3A4

>  <Target Organism>
Homo sapiens

>  <Target Description>
Target is a single protein chain

>  <Sequence Accession>
P08684

>  <Reference>
J Med Chem 62 (10), 4884-4901 (2019)

>  <Pubmed ID>
31013090

>  <DOI>
10.1021/acs.jmedchem.9b00193

$$$$
2463955
Actelion Java MolfileCreator 1.0

 29 31  0  0  0  0  0  0  0  0999 V2000
    0.0000   -0.0000   -0.0000 Cl  0  0  0  0  0  0  0  0  0  0  0  0
   -1.3052    0.7594   -0.0000 C   0  0  0  0  0  0  0  0  0  0  0  0
   -1.3170    2.2662   -0.0000 C   0  0  0  0  0  0  0  0  0  0  0  0
   -2.6222    0.0119   -0.0000 C   0  0  0  0  0  0  0  0  0  0  0  0
   -2.6222    3.0256   -0.0000 C   0  0  0  0  0  0  0  0  0  0  0  0
   -3.9273    0.7712   -0.0000 C   0  0  0  0  0  0  0  0  0  0  0  0
   -2.6341    4.5325   -0.0000 C   0  0  0  0  0  0  0  0  0  0  0  0
   -3.9392    2.2900   -0.0000 C   0  0  0  0  0  0  0  0  0  0  0  0
   -1.3408    5.2918   -0.0000 N   0  0  0  0  0  0  0  0  0  0  0  0
   -3.9392    5.2918   -0.0000 N   0  0  0  0  0  0  0  0  0  0  0  0
   -1.3526    6.8106   -0.0000 C   0  0  0  0  0  0  0  0  0  0  0  0
   -3.9511    6.8106   -0.0000 C   0  0  0  0  0  0  0  0  0  0  0  0
   -2.6578    7.5699   -0.0000 C   0  0  0  0  0  0  0  0  0  0  0  0
   -0.0712    7.5699   -0.0000 C   0  0  0  0  0  0  0  0  0  0  0  0
   -5.2562    7.5699   -0.0000 C   0  0  0  0  0  0  0  0  0  0  0  0
    1.2221    6.8343   -0.0000 C   0  0  0  0  0  0  0  0  0  0  0  0
   -6.5614    6.8343   -0.0000 C   0  0  0  0  0  0  0  0  0  0  0  0
    1.2102    5.3512   -0.0000 C   0  0  0  0  0  0  0  0  0  0  0  0
    2.4917    7.6055   -0.0000 C   0  0  0  0  0  0  0  0  0  0  0  0
    2.4917    4.6155   -0.0000 C   0  0  0  0  0  0  0  0  0  0  0  0
    3.7731    6.8818   -0.0000 C   0  0  0  0  0  0  0  0  0  0  0  0
    3.7731    5.3749   -0.0000 C   0  0  0  0  0  0  0  0  0  0  0  0
    5.0664    4.6393   -0.0000 C   0  0  0  0  0  0  0  0  0  0  0  0
    6.3478    5.4105   -0.0000 C   0  0  0  0  0  0  0  0  0  0  0  0
    6.3241    6.9174   -0.0000 O   0  0  0  0  0  0  0  0  0  0  0  0
    7.6411    4.6748   -0.0000 N   0  0  0  0  0  0  0  0  0  0  0  0
    8.9226    5.4461   -0.0000 C   0  0  0  0  0  0  0  0  0  0  0  0
   10.2158    4.7104   -0.0000 C   0  0  0  0  0  0  0  0  0  0  0  0
   11.4973    5.4817   -0.0000 O   0  0  0  0  0  0  0  0  0  0  0  0
  1  2  1  0  0  0  0
  2  3  2  0  0  0  0
  2  4  1  0  0  0  0
  3  5  1  0  0  0  0
  4  6  2  0  0  0  0
  5  7  1  0  0  0  0
  5  8  2  0  0  0  0
  7  9  2  0  0  0  0
  7 10  1  0  0  0  0
  9 11  1  0  0  0  0
 10 12  2  0  0  0  0
 11 13  2  0  0  0  0
 11 14  1  0  0  0  0
 12 15  1  0  0  0  0
 14 16  1  0  0  0  0
 15 17  1  0  0  0  0
 16 18  2  0  0  0  0
 16 19  1  0  0  0  0
 18 20  1  0  0  0  0
 19 21  2  0  0  0  0
 20 22  2  0  0  0  0
 22 23  1  0  0  0  0
 23 24  1  0  0  0  0
 24 25  2  0  0  0  0
 24 26  1  0  0  0  0
 26 27  1  0  0  0  0
 27 28  1  0  0  0  0
 28 29  1  0  0  0  0
  6  8  1  0  0  0  0
 12 13  1  0  0  0  0
 21 22  1  0  0  0  0
M  END
>  <MolRegNo>
2463955

>  <m>
=

>  <Value>
3100

>  <Unit>
nM

>  <Type>
IC50

>  <pValue>
5.51

>  <Ligand Efficiency>
0

>  <Binding Efficiency>
0

>  <Surface Efficiency>
0

>  <Assay Index>
1311227

>  <Assay Category>


>  <Assay Organism>
Homo sapiens

>  <Target ID>
17045

>  <Target Name>
Cytochrome P450 3A4

>  <Target Organism>
Homo sapiens

>  <Target Description>
Target is a single protein chain

>  <Sequence Accession>
P08684

>  <Reference>
J Med Chem 62 (10), 4884-4901 (2019)

>  <Pubmed ID>
31013090

>  <DOI>
10.1021/acs.jmedchem.9b00193

$$$$
2359720
Actelion Java MolfileCreator 1.0

 34 38  0  0  0  0  0  0  0  0999 V2000
    0.0000   -0.0000   -0.0000 Cl  0  0  0  0  0  0  0  0  0  0  0  0
    1.2861   -0.7502   -0.0000 C   0  0  0  0  0  0  0  0  0  0  0  0
    1.2623   -2.2507   -0.0000 C   0  0  0  0  0  0  0  0  0  0  0  0
    2.5842    0.0119   -0.0000 C   0  0  0  0  0  0  0  0  0  0  0  0
   -0.0595   -2.9891   -0.0000 Cl  0  0  0  0  0  0  0  0  0  0  0  0
    2.5603   -3.0010   -0.0000 C   0  0  0  0  0  0  0  0  0  0  0  0
    3.8703   -0.7502   -0.0000 C   0  0  0  0  0  0  0  0  0  0  0  0
    3.8584   -2.2388   -0.0000 C   0  0  0  0  0  0  0  0  0  0  0  0
    5.1683    0.0119   -0.0000 C   0  0  0  0  0  0  0  0  0  0  0  0
    6.4545   -0.7383   -0.0000 N   0  0  0  0  0  0  0  0  0  0  0  0
    7.7525    0.0119   -0.0000 C   0  0  0  0  0  0  0  0  0  0  0  0
    6.4306   -2.2388   -0.0000 C   0  0  0  0  0  0  0  0  0  0  0  0
    7.7525    1.5362   -0.0000 O   0  0  0  0  0  0  0  0  0  0  0  0
    9.0267   -0.7264   -0.0000 C   0  0  0  0  0  0  0  0  0  0  0  0
    7.7168   -2.9891   -0.0000 C   0  0  0  0  0  0  0  0  0  0  0  0
    9.0148   -2.2269   -0.0000 C   0  0  0  0  0  0  0  0  0  0  0  0
   10.4557   -0.2501   -0.0000 C   0  0  0  0  0  0  0  0  0  0  0  0
    7.7049   -4.4895   -0.0000 C   0  0  0  0  0  0  0  0  0  0  0  0
   10.4438   -2.6794   -0.0000 N   0  0  0  0  0  0  0  0  0  0  0  0
   11.3370   -1.4648   -0.0000 N   0  0  0  0  0  0  0  0  0  0  0  0
    9.0029   -5.2398   -0.0000 O   0  0  0  0  0  0  0  0  0  0  0  0
    6.3830   -5.2279   -0.0000 N   0  0  0  0  0  0  0  0  0  0  0  0
   10.8964   -4.1085   -0.0000 C   0  0  0  0  0  0  0  0  0  0  0  0
    6.3711   -6.7284   -0.0000 C   0  0  0  0  0  0  0  0  0  0  0  0
    9.8722   -5.2041   -0.0000 C   0  0  0  0  0  0  0  0  0  0  0  0
   12.3611   -4.3943   -0.0000 C   0  0  0  0  0  0  0  0  0  0  0  0
    5.0492   -7.4548   -0.0000 C   0  0  0  0  0  0  0  0  0  0  0  0
    7.6572   -7.4667   -0.0000 C   0  0  0  0  0  0  0  0  0  0  0  0
   10.3247   -6.6212   -0.0000 C   0  0  0  0  0  0  0  0  0  0  0  0
   12.8136   -5.8233   -0.0000 C   0  0  0  0  0  0  0  0  0  0  0  0
    5.0254   -8.9553   -0.0000 C   0  0  0  0  0  0  0  0  0  0  0  0
    7.6453   -8.9672   -0.0000 C   0  0  0  0  0  0  0  0  0  0  0  0
   11.7895   -6.9308   -0.0000 N   0  0  0  0  0  0  0  0  0  0  0  0
    6.3235   -9.7055   -0.0000 N   0  0  0  0  0  0  0  0  0  0  0  0
  1  2  1  0  0  0  0
  2  3  2  0  0  0  0
  2  4  1  0  0  0  0
  3  5  1  0  0  0  0
  3  6  1  0  0  0  0
  4  7  2  0  0  0  0
  6  8  2  0  0  0  0
  7  9  1  0  0  0  0
  9 10  1  0  0  0  0
 10 11  1  0  0  0  0
 10 12  1  0  0  0  0
 11 13  2  0  0  0  0
 11 14  1  0  0  0  0
 12 15  2  0  0  0  0
 14 16  2  0  0  0  0
 14 17  1  0  0  0  0
 15 18  1  0  0  0  0
 16 19  1  0  0  0  0
 17 20  2  0  0  0  0
 18 21  2  0  0  0  0
 18 22  1  0  0  0  0
 19 23  1  0  0  0  0
 22 24  1  0  0  0  0
 23 25  1  0  0  0  0
 23 26  1  0  0  0  0
 24 27  2  0  0  0  0
 24 28  1  0  0  0  0
 25 29  1  0  0  0  0
 26 30  1  0  0  0  0
 27 31  1  0  0  0  0
 28 32  2  0  0  0  0
 29 33  1  0  0  0  0
 31 34  2  0  0  0  0
  7  8  1  0  0  0  0
 15 16  1  0  0  0  0
 19 20  1  0  0  0  0
 30 33  1  0  0  0  0
 32 34  1  0  0  0  0
M  END
>  <MolRegNo>
2359720

>  <m>
=

>  <Value>
7000

>  <Unit>
nM

>  <Type>
IC50

>  <pValue>
5.16

>  <Ligand Efficiency>
0

>  <Binding Efficiency>
0

>  <Surface Efficiency>
0

>  <Assay Index>
1315471

>  <Assay Category>


>  <Assay Organism>
Homo sapiens

>  <Target ID>
17045

>  <Target Name>
Cytochrome P450 3A4

>  <Target Organism>
Homo sapiens

>  <Target Description>
Target is a single protein chain

>  <Sequence Accession>
P08684

>  <Reference>
Bioorg Med Chem Lett 29 (8), 1023-1029 (2019)

>  <Pubmed ID>
30773430

>  <DOI>
10.1016/j.bmcl.2019.01.035

$$$$
2411242
Actelion Java MolfileCreator 1.0

 30 32  0  0  0  0  0  0  0  0999 V2000
    0.0000   -0.0000   -0.0000 O   0  0  0  0  0  0  0  0  0  0  0  0
   -0.0119    1.5065   -0.0000 C   0  0  0  0  0  0  0  0  0  0  0  0
    1.2693    2.2657   -0.0000 N   0  0  0  0  0  0  0  0  0  0  0  0
   -1.3167    2.2657   -0.0000 C   0  0  0  0  0  0  0  0  0  0  0  0
    1.2574    3.7723   -0.0000 C   0  0  0  0  0  0  0  0  0  0  0  0
    2.5504    1.5303   -0.0000 C   0  0  0  0  0  0  0  0  0  0  0  0
   -2.6335    1.5303   -0.0000 C   0  0  0  0  0  0  0  0  0  0  0  0
   -1.3286    3.7841   -0.0000 C   0  0  0  0  0  0  0  0  0  0  0  0
    2.5386    4.5196   -0.0000 C   0  0  0  0  0  0  0  0  0  0  0  0
   -0.0475    4.5196   -0.0000 C   0  0  0  0  0  0  0  0  0  0  0  0
    3.8316    2.2895   -0.0000 C   0  0  0  0  0  0  0  0  0  0  0  0
   -2.6453    0.0475   -0.0000 O   0  0  0  0  0  0  0  0  0  0  0  0
   -3.9384    2.2895   -0.0000 C   0  0  0  0  0  0  0  0  0  0  0  0
   -2.6335    4.5433   -0.0000 C   0  0  0  0  0  0  0  0  0  0  0  0
    2.5267    6.0262   -0.0000 C   0  0  0  0  0  0  0  0  0  0  0  0
   -0.0712    6.0262   -0.0000 C   0  0  0  0  0  0  0  0  0  0  0  0
    5.1127    1.5540   -0.0000 C   0  0  0  0  0  0  0  0  0  0  0  0
    3.8079    3.7960   -0.0000 C   0  0  0  0  0  0  0  0  0  0  0  0
   -3.9502    3.8079   -0.0000 C   0  0  0  0  0  0  0  0  0  0  0  0
    1.2218    6.7854   -0.0000 C   0  0  0  0  0  0  0  0  0  0  0  0
    6.3939    2.3132   -0.0000 C   0  0  0  0  0  0  0  0  0  0  0  0
    5.0890    4.5671   -0.0000 C   0  0  0  0  0  0  0  0  0  0  0  0
   -5.2551    4.5671   -0.0000 O   0  0  0  0  0  0  0  0  0  0  0  0
    1.2100    8.2919   -0.0000 C   0  0  0  0  0  0  0  0  0  0  0  0
    6.3820    3.8197   -0.0000 C   0  0  0  0  0  0  0  0  0  0  0  0
   -0.0949    9.0511   -0.0000 O   0  0  0  0  0  0  0  0  0  0  0  0
    2.4911    9.0511   -0.0000 N   0  0  0  0  0  0  0  0  0  0  0  0
    7.6632    4.5789   -0.0000 O   0  0  0  0  0  0  0  0  0  0  0  0
    3.7723    8.3156   -0.0000 C   0  0  0  0  0  0  0  0  0  0  0  0
    2.4793   10.5576   -0.0000 C   0  0  0  0  0  0  0  0  0  0  0  0
  1  2  2  0  0  0  0
  2  3  1  0  0  0  0
  2  4  1  0  0  0  0
  3  5  1  0  0  0  0
  3  6  1  0  0  0  0
  4  7  2  0  0  0  0
  4  8  1  0  0  0  0
  5  9  2  0  0  0  0
  5 10  1  0  0  0  0
  6 11  1  0  0  0  0
  7 12  1  0  0  0  0
  7 13  1  0  0  0  0
  8 14  2  0  0  0  0
  9 15  1  0  0  0  0
 10 16  2  0  0  0  0
 11 17  2  0  0  0  0
 11 18  1  0  0  0  0
 13 19  2  0  0  0  0
 15 20  2  0  0  0  0
 17 21  1  0  0  0  0
 18 22  2  0  0  0  0
 19 23  1  0  0  0  0
 20 24  1  0  0  0  0
 21 25  2  0  0  0  0
 24 26  2  0  0  0  0
 24 27  1  0  0  0  0
 25 28  1  0  0  0  0
 27 29  1  0  0  0  0
 27 30  1  0  0  0  0
 14 19  1  0  0  0  0
 16 20  1  0  0  0  0
 22 25  1  0  0  0  0
M  END
>  <MolRegNo>
2411242

>  <m>
=

>  <Value>
6470

>  <Unit>
nM

>  <Type>
IC50

>  <pValue>
5.19

>  <Ligand Efficiency>
0

>  <Binding Efficiency>
0

>  <Surface Efficiency>
0

>  <Assay Index>
1317101

>  <Assay Category>


>  <Assay Organism>
Homo sapiens

>  <Target ID>
17045

>  <Target Name>
Cytochrome P450 3A4

>  <Target Organism>
Homo sapiens

>  <Target Description>
Target is a single protein chain

>  <Sequence Accession>
P08684

>  <Reference>
J Med Chem 62 (18), 8461-8479 (2019)

>  <Pubmed ID>
31469962

>  <DOI>
10.1021/acs.jmedchem.9b00565

$$$$
2445786
Actelion Java MolfileCreator 1.0

 29 31  0  0  0  0  0  0  0  0999 V2000
    0.0000   -0.0000   -0.0000 Br  0  0  0  0  0  0  0  0  0  0  0  0
   -0.6167   -1.3520   -0.0000 C   0  0  0  0  0  0  0  0  0  0  0  0
   -2.0873   -1.6485   -0.0000 O   0  0  0  0  0  0  0  0  0  0  0  0
    0.1186   -2.6328   -0.0000 C   0  0  0  0  0  0  0  0  0  0  0  0
   -2.2533   -3.1309   -0.0000 C   0  0  0  0  0  0  0  0  0  0  0  0
   -0.8895   -3.7358   -0.0000 C   0  0  0  0  0  0  0  0  0  0  0  0
   -3.5579   -3.8662   -0.0000 C   0  0  0  0  0  0  0  0  0  0  0  0
   -4.8624   -3.1072   -0.0000 N   0  0  0  0  0  0  0  0  0  0  0  0
   -4.8743   -1.6010   -0.0000 C   0  0  0  0  0  0  0  0  0  0  0  0
   -6.1670   -3.8425   -0.0000 C   0  0  0  0  0  0  0  0  0  0  0  0
   -3.5935   -0.8539   -0.0000 C   0  0  0  0  0  0  0  0  0  0  0  0
   -6.1788   -0.8539   -0.0000 C   0  0  0  0  0  0  0  0  0  0  0  0
   -6.1788   -5.3250   -0.0000 O   0  0  0  0  0  0  0  0  0  0  0  0
   -7.4715   -3.0835   -0.0000 C   0  0  0  0  0  0  0  0  0  0  0  0
   -3.6053    0.6523   -0.0000 C   0  0  0  0  0  0  0  0  0  0  0  0
   -6.2026    0.6523   -0.0000 C   0  0  0  0  0  0  0  0  0  0  0  0
   -8.7879   -3.8188   -0.0000 C   0  0  0  0  0  0  0  0  0  0  0  0
   -7.4834   -1.5655   -0.0000 C   0  0  0  0  0  0  0  0  0  0  0  0
   -4.9099    1.4113   -0.0000 C   0  0  0  0  0  0  0  0  0  0  0  0
   -8.7998   -5.3012   -0.0000 O   0  0  0  0  0  0  0  0  0  0  0  0
  -10.0925   -3.0598   -0.0000 C   0  0  0  0  0  0  0  0  0  0  0  0
   -8.7879   -0.8065   -0.0000 C   0  0  0  0  0  0  0  0  0  0  0  0
   -4.9217    2.9175   -0.0000 C   0  0  0  0  0  0  0  0  0  0  0  0
  -10.1044   -1.5417   -0.0000 C   0  0  0  0  0  0  0  0  0  0  0  0
   -6.2263    3.6765   -0.0000 O   0  0  0  0  0  0  0  0  0  0  0  0
   -3.6409    3.6765   -0.0000 N   0  0  0  0  0  0  0  0  0  0  0  0
  -11.4089   -0.7827   -0.0000 O   0  0  0  0  0  0  0  0  0  0  0  0
   -2.3601    2.9412   -0.0000 C   0  0  0  0  0  0  0  0  0  0  0  0
   -3.6528    5.1826   -0.0000 C   0  0  0  0  0  0  0  0  0  0  0  0
  1  2  1  0  0  0  0
  2  3  1  0  0  0  0
  2  4  2  0  0  0  0
  3  5  1  0  0  0  0
  4  6  1  0  0  0  0
  5  7  1  0  0  0  0
  7  8  1  0  0  0  0
  8  9  1  0  0  0  0
  8 10  1  0  0  0  0
  9 11  2  0  0  0  0
  9 12  1  0  0  0  0
 10 13  2  0  0  0  0
 10 14  1  0  0  0  0
 11 15  1  0  0  0  0
 12 16  2  0  0  0  0
 14 17  2  0  0  0  0
 14 18  1  0  0  0  0
 15 19  2  0  0  0  0
 17 20  1  0  0  0  0
 17 21  1  0  0  0  0
 18 22  2  0  0  0  0
 19 23  1  0  0  0  0
 21 24  2  0  0  0  0
 23 25  2  0  0  0  0
 23 26  1  0  0  0  0
 24 27  1  0  0  0  0
 26 28  1  0  0  0  0
 26 29  1  0  0  0  0
  5  6  2  0  0  0  0
 16 19  1  0  0  0  0
 22 24  1  0  0  0  0
M  END
>  <MolRegNo>
2445786

>  <m>
=

>  <Value>
1400

>  <Unit>
nM

>  <Type>
IC50

>  <pValue>
5.85

>  <Ligand Efficiency>
0

>  <Binding Efficiency>
0

>  <Surface Efficiency>
0

>  <Assay Index>
1317101

>  <Assay Category>


>  <Assay Organism>
Homo sapiens

>  <Target ID>
17045

>  <Target Name>
Cytochrome P450 3A4

>  <Target Organism>
Homo sapiens

>  <Target Description>
Target is a single protein chain

>  <Sequence Accession>
P08684

>  <Reference>
J Med Chem 62 (18), 8461-8479 (2019)

>  <Pubmed ID>
31469962

>  <DOI>
10.1021/acs.jmedchem.9b00565

$$$$
2374837
Actelion Java MolfileCreator 1.0

 33 38  0  0  0  0  0  0  0  0999 V2000
    0.0000   -0.0000   -0.0000 Cl  0  0  0  0  0  0  0  0  0  0  0  0
   -0.0120   -1.4939   -0.0000 C   0  0  0  0  0  0  0  0  0  0  0  0
   -1.3266   -2.2349   -0.0000 C   0  0  0  0  0  0  0  0  0  0  0  0
    1.2788   -2.2230   -0.0000 C   0  0  0  0  0  0  0  0  0  0  0  0
   -2.7727   -1.7569   -0.0000 N   0  0  0  0  0  0  0  0  0  0  0  0
   -1.3386   -3.7289   -0.0000 C   0  0  0  0  0  0  0  0  0  0  0  0
    1.2669   -3.7289   -0.0000 C   0  0  0  0  0  0  0  0  0  0  0  0
   -3.6811   -2.9640   -0.0000 N   0  0  0  0  0  0  0  0  0  0  0  0
   -2.7847   -4.1830   -0.0000 N   0  0  0  0  0  0  0  0  0  0  0  0
   -0.0478   -4.4699   -0.0000 C   0  0  0  0  0  0  0  0  0  0  0  0
    2.5696   -4.4699   -0.0000 C   0  0  0  0  0  0  0  0  0  0  0  0
   -3.2628   -5.5933   -0.0000 C   0  0  0  0  0  0  0  0  0  0  0  0
    3.9320   -3.8364   -0.0000 N   0  0  0  0  0  0  0  0  0  0  0  0
    2.7130   -5.9518   -0.0000 C   0  0  0  0  0  0  0  0  0  0  0  0
   -4.7567   -5.8921   -0.0000 C   0  0  0  0  0  0  0  0  0  0  0  0
   -2.2708   -6.7048   -0.0000 C   0  0  0  0  0  0  0  0  0  0  0  0
    4.9360   -4.9479   -0.0000 N   0  0  0  0  0  0  0  0  0  0  0  0
    4.2308   -2.3544   -0.0000 C   0  0  0  0  0  0  0  0  0  0  0  0
    4.1711   -6.2506   -0.0000 C   0  0  0  0  0  0  0  0  0  0  0  0
   -5.2348   -7.3143   -0.0000 C   0  0  0  0  0  0  0  0  0  0  0  0
   -2.7369   -8.1270   -0.0000 C   0  0  0  0  0  0  0  0  0  0  0  0
    5.6411   -1.8764   -0.0000 C   0  0  0  0  0  0  0  0  0  0  0  0
   -6.6211   -7.9119   -0.0000 N   0  0  0  0  0  0  0  0  0  0  0  0
   -4.2428   -8.4139   -0.0000 C   0  0  0  0  0  0  0  0  0  0  0  0
    6.7406   -2.8684   -0.0000 C   0  0  0  0  0  0  0  0  0  0  0  0
    5.9279   -0.4064   -0.0000 C   0  0  0  0  0  0  0  0  0  0  0  0
   -6.4777   -9.3939   -0.0000 N   0  0  0  0  0  0  0  0  0  0  0  0
   -5.0077   -9.7046   -0.0000 C   0  0  0  0  0  0  0  0  0  0  0  0
    8.1509   -2.3903   -0.0000 C   0  0  0  0  0  0  0  0  0  0  0  0
    7.3382    0.0837   -0.0000 C   0  0  0  0  0  0  0  0  0  0  0  0
    8.4497   -0.9083   -0.0000 C   0  0  0  0  0  0  0  0  0  0  0  0
    9.8719   -0.4303   -0.0000 C   0  0  0  0  0  0  0  0  0  0  0  0
   11.2822    0.0478   -0.0000 N   0  0  0  0  0  0  0  0  0  0  0  0
  1  2  1  0  0  0  0
  2  3  2  0  0  0  0
  2  4  1  0  0  0  0
  3  5  1  0  0  0  0
  3  6  1  0  0  0  0
  4  7  2  0  0  0  0
  5  8  2  0  0  0  0
  6  9  1  0  0  0  0
  6 10  2  0  0  0  0
  7 11  1  0  0  0  0
  9 12  1  0  0  0  0
 11 13  1  0  0  0  0
 11 14  2  0  0  0  0
 12 15  2  0  0  0  0
 12 16  1  0  0  0  0
 13 17  1  0  0  0  0
 13 18  1  0  0  0  0
 14 19  1  0  0  0  0
 15 20  1  0  0  0  0
 16 21  2  0  0  0  0
 18 22  1  0  0  0  0
 20 23  1  0  0  0  0
 20 24  2  0  0  0  0
 22 25  2  0  0  0  0
 22 26  1  0  0  0  0
 23 27  1  0  0  0  0
 24 28  1  0  0  0  0
 25 29  1  0  0  0  0
 26 30  2  0  0  0  0
 29 31  2  0  0  0  0
 31 32  1  0  0  0  0
 32 33  3  0  0  0  0
  7 10  1  0  0  0  0
  8  9  1  0  0  0  0
 17 19  2  0  0  0  0
 21 24  1  0  0  0  0
 27 28  2  0  0  0  0
 30 31  1  0  0  0  0
M  END
>  <MolRegNo>
2374837

>  <m>
=

>  <Value>
19700

>  <Unit>
nM

>  <Type>
IC50

>  <pValue>
4.71

>  <Ligand Efficiency>
0

>  <Binding Efficiency>
0

>  <Surface Efficiency>
0

>  <Assay Index>
1319485

>  <Assay Category>


>  <Assay Organism>
Homo sapiens

>  <Target ID>
17045

>  <Target Name>
Cytochrome P450 3A4

>  <Target Organism>
Homo sapiens

>  <Target Description>
Target is a single protein chain

>  <Sequence Accession>
P08684

>  <Reference>
J Med Chem 63 (8), 3935-3955 (2020)

>  <Pubmed ID>
32212732

>  <DOI>
10.1021/acs.jmedchem.9b01713

$$$$
2398037
Actelion Java MolfileCreator 1.0

 33 38  0  0  0  0  0  0  0  0999 V2000
    0.0000   -0.0000   -0.0000 Cl  0  0  0  0  0  0  0  0  0  0  0  0
    1.1083   -0.9772   -0.0000 C   0  0  0  0  0  0  0  0  0  0  0  0
    0.7984   -2.4192   -0.0000 C   0  0  0  0  0  0  0  0  0  0  0  0
    2.5145   -0.4886   -0.0000 C   0  0  0  0  0  0  0  0  0  0  0  0
    1.8948   -3.4083   -0.0000 C   0  0  0  0  0  0  0  0  0  0  0  0
   -0.6316   -2.8720   -0.0000 C   0  0  0  0  0  0  0  0  0  0  0  0
    3.6228   -1.4777   -0.0000 C   0  0  0  0  0  0  0  0  0  0  0  0
    3.3010   -2.9316   -0.0000 C   0  0  0  0  0  0  0  0  0  0  0  0
   -0.9534   -4.3259   -0.0000 N   0  0  0  0  0  0  0  0  0  0  0  0
    5.0290   -1.0010   -0.0000 Cl  0  0  0  0  0  0  0  0  0  0  0  0
    0.0477   -5.4342   -0.0000 N   0  0  0  0  0  0  0  0  0  0  0  0
   -2.3357   -4.9337   -0.0000 C   0  0  0  0  0  0  0  0  0  0  0  0
   -0.7150   -6.7212   -0.0000 C   0  0  0  0  0  0  0  0  0  0  0  0
   -3.6585   -4.1710   -0.0000 C   0  0  0  0  0  0  0  0  0  0  0  0
   -2.1927   -6.4114   -0.0000 C   0  0  0  0  0  0  0  0  0  0  0  0
   -3.6705   -2.6456   -0.0000 C   0  0  0  0  0  0  0  0  0  0  0  0
   -4.9694   -4.9217   -0.0000 C   0  0  0  0  0  0  0  0  0  0  0  0
   -4.9813   -1.8948   -0.0000 N   0  0  0  0  0  0  0  0  0  0  0  0
   -6.2803   -4.1591   -0.0000 C   0  0  0  0  0  0  0  0  0  0  0  0
   -6.2922   -2.6337   -0.0000 C   0  0  0  0  0  0  0  0  0  0  0  0
   -7.7223   -4.6119   -0.0000 N   0  0  0  0  0  0  0  0  0  0  0  0
   -7.7342   -2.1570   -0.0000 C   0  0  0  0  0  0  0  0  0  0  0  0
   -8.6160   -3.3844   -0.0000 N   0  0  0  0  0  0  0  0  0  0  0  0
   -8.1989   -6.0181   -0.0000 C   0  0  0  0  0  0  0  0  0  0  0  0
   -8.2109   -0.7269   -0.0000 N   0  0  0  0  0  0  0  0  0  0  0  0
   -9.6886   -6.3160   -0.0000 C   0  0  0  0  0  0  0  0  0  0  0  0
   -7.2098   -7.1264   -0.0000 C   0  0  0  0  0  0  0  0  0  0  0  0
  -10.1653   -7.7342   -0.0000 C   0  0  0  0  0  0  0  0  0  0  0  0
   -7.6746   -8.5445   -0.0000 C   0  0  0  0  0  0  0  0  0  0  0  0
  -11.5476   -8.3300   -0.0000 N   0  0  0  0  0  0  0  0  0  0  0  0
   -9.1761   -8.8305   -0.0000 C   0  0  0  0  0  0  0  0  0  0  0  0
  -11.4046   -9.8077   -0.0000 N   0  0  0  0  0  0  0  0  0  0  0  0
   -9.9388  -10.1176   -0.0000 C   0  0  0  0  0  0  0  0  0  0  0  0
  1  2  1  0  0  0  0
  2  3  2  0  0  0  0
  2  4  1  0  0  0  0
  3  5  1  0  0  0  0
  3  6  1  0  0  0  0
  4  7  2  0  0  0  0
  5  8  2  0  0  0  0
  6  9  1  0  0  0  0
  7 10  1  0  0  0  0
  9 11  1  0  0  0  0
  9 12  1  0  0  0  0
 11 13  2  0  0  0  0
 12 14  1  0  0  0  0
 12 15  2  0  0  0  0
 14 16  2  0  0  0  0
 14 17  1  0  0  0  0
 16 18  1  0  0  0  0
 17 19  2  0  0  0  0
 18 20  2  0  0  0  0
 19 21  1  0  0  0  0
 20 22  1  0  0  0  0
 21 23  1  0  0  0  0
 21 24  1  0  0  0  0
 22 25  1  0  0  0  0
 24 26  2  0  0  0  0
 24 27  1  0  0  0  0
 26 28  1  0  0  0  0
 27 29  2  0  0  0  0
 28 30  1  0  0  0  0
 28 31  2  0  0  0  0
 30 32  1  0  0  0  0
 31 33  1  0  0  0  0
  7  8  1  0  0  0  0
 13 15  1  0  0  0  0
 19 20  1  0  0  0  0
 22 23  2  0  0  0  0
 29 31  1  0  0  0  0
 32 33  2  0  0  0  0
M  END
>  <MolRegNo>
2398037

>  <m>
=

>  <Value>
4200

>  <Unit>
nM

>  <Type>
IC50

>  <pValue>
5.38

>  <Ligand Efficiency>
0

>  <Binding Efficiency>
0

>  <Surface Efficiency>
0

>  <Assay Index>
1319485

>  <Assay Category>


>  <Assay Organism>
Homo sapiens

>  <Target ID>
17045

>  <Target Name>
Cytochrome P450 3A4

>  <Target Organism>
Homo sapiens

>  <Target Description>
Target is a single protein chain

>  <Sequence Accession>
P08684

>  <Reference>
J Med Chem 63 (8), 3935-3955 (2020)

>  <Pubmed ID>
32212732

>  <DOI>
10.1021/acs.jmedchem.9b01713

$$$$
2361048
Actelion Java MolfileCreator 1.0

 32 37  0  0  0  0  0  0  0  0999 V2000
    0.0000   -0.0000   -0.0000 Cl  0  0  0  0  0  0  0  0  0  0  0  0
   -0.0120   -1.4939   -0.0000 C   0  0  0  0  0  0  0  0  0  0  0  0
   -1.3266   -2.2349   -0.0000 C   0  0  0  0  0  0  0  0  0  0  0  0
    1.2788   -2.2230   -0.0000 C   0  0  0  0  0  0  0  0  0  0  0  0
   -2.7728   -1.7569   -0.0000 N   0  0  0  0  0  0  0  0  0  0  0  0
   -1.3386   -3.7289   -0.0000 C   0  0  0  0  0  0  0  0  0  0  0  0
    1.2669   -3.7289   -0.0000 C   0  0  0  0  0  0  0  0  0  0  0  0
   -3.6811   -2.9640   -0.0000 N   0  0  0  0  0  0  0  0  0  0  0  0
   -2.7847   -4.1831   -0.0000 N   0  0  0  0  0  0  0  0  0  0  0  0
   -0.0478   -4.4699   -0.0000 C   0  0  0  0  0  0  0  0  0  0  0  0
    2.5696   -4.4699   -0.0000 C   0  0  0  0  0  0  0  0  0  0  0  0
   -3.2628   -5.5933   -0.0000 C   0  0  0  0  0  0  0  0  0  0  0  0
    3.9321   -3.8365   -0.0000 N   0  0  0  0  0  0  0  0  0  0  0  0
    2.7130   -5.9519   -0.0000 C   0  0  0  0  0  0  0  0  0  0  0  0
   -4.7567   -5.8921   -0.0000 C   0  0  0  0  0  0  0  0  0  0  0  0
   -2.2708   -6.7048   -0.0000 C   0  0  0  0  0  0  0  0  0  0  0  0
    4.9360   -4.9480   -0.0000 N   0  0  0  0  0  0  0  0  0  0  0  0
    4.2309   -2.3545   -0.0000 C   0  0  0  0  0  0  0  0  0  0  0  0
    4.1711   -6.2507   -0.0000 C   0  0  0  0  0  0  0  0  0  0  0  0
   -5.2348   -7.3144   -0.0000 C   0  0  0  0  0  0  0  0  0  0  0  0
   -2.7369   -8.1271   -0.0000 C   0  0  0  0  0  0  0  0  0  0  0  0
    5.6411   -1.8764   -0.0000 C   0  0  0  0  0  0  0  0  0  0  0  0
   -6.6212   -7.9119   -0.0000 N   0  0  0  0  0  0  0  0  0  0  0  0
   -4.2428   -8.4139   -0.0000 C   0  0  0  0  0  0  0  0  0  0  0  0
    6.7407   -2.8684   -0.0000 N   0  0  0  0  0  0  0  0  0  0  0  0
    5.9280   -0.4064   -0.0000 C   0  0  0  0  0  0  0  0  0  0  0  0
   -6.4778   -9.3939   -0.0000 N   0  0  0  0  0  0  0  0  0  0  0  0
   -5.0077   -9.7047   -0.0000 C   0  0  0  0  0  0  0  0  0  0  0  0
    8.1510   -2.3903   -0.0000 C   0  0  0  0  0  0  0  0  0  0  0  0
    7.3383    0.0837   -0.0000 C   0  0  0  0  0  0  0  0  0  0  0  0
    8.4498   -0.9083   -0.0000 C   0  0  0  0  0  0  0  0  0  0  0  0
    9.8601   -0.4303   -0.0000 Cl  0  0  0  0  0  0  0  0  0  0  0  0
  1  2  1  0  0  0  0
  2  3  2  0  0  0  0
  2  4  1  0  0  0  0
  3  5  1  0  0  0  0
  3  6  1  0  0  0  0
  4  7  2  0  0  0  0
  5  8  2  0  0  0  0
  6  9  1  0  0  0  0
  6 10  2  0  0  0  0
  7 11  1  0  0  0  0
  9 12  1  0  0  0  0
 11 13  1  0  0  0  0
 11 14  2  0  0  0  0
 12 15  2  0  0  0  0
 12 16  1  0  0  0  0
 13 17  1  0  0  0  0
 13 18  1  0  0  0  0
 14 19  1  0  0  0  0
 15 20  1  0  0  0  0
 16 21  2  0  0  0  0
 18 22  1  0  0  0  0
 20 23  1  0  0  0  0
 20 24  2  0  0  0  0
 22 25  2  0  0  0  0
 22 26  1  0  0  0  0
 23 27  1  0  0  0  0
 24 28  1  0  0  0  0
 25 29  1  0  0  0  0
 26 30  2  0  0  0  0
 29 31  2  0  0  0  0
 31 32  1  0  0  0  0
  7 10  1  0  0  0  0
  8  9  1  0  0  0  0
 17 19  2  0  0  0  0
 21 24  1  0  0  0  0
 27 28  2  0  0  0  0
 30 31  1  0  0  0  0
M  END
>  <MolRegNo>
2361048

>  <m>
=

>  <Value>
35500

>  <Unit>
nM

>  <Type>
IC50

>  <pValue>
4.45

>  <Ligand Efficiency>
0

>  <Binding Efficiency>
0

>  <Surface Efficiency>
0

>  <Assay Index>
1319485

>  <Assay Category>


>  <Assay Organism>
Homo sapiens

>  <Target ID>
17045

>  <Target Name>
Cytochrome P450 3A4

>  <Target Organism>
Homo sapiens

>  <Target Description>
Target is a single protein chain

>  <Sequence Accession>
P08684

>  <Reference>
J Med Chem 63 (8), 3935-3955 (2020)

>  <Pubmed ID>
32212732

>  <DOI>
10.1021/acs.jmedchem.9b01713

$$$$
2397573
Actelion Java MolfileCreator 1.0

 33 38  0  0  0  0  0  0  0  0999 V2000
    0.0000   -0.0000   -0.0000 Cl  0  0  0  0  0  0  0  0  0  0  0  0
    1.1085   -0.9774   -0.0000 C   0  0  0  0  0  0  0  0  0  0  0  0
    0.7986   -2.4197   -0.0000 C   0  0  0  0  0  0  0  0  0  0  0  0
    2.5151   -0.4887   -0.0000 C   0  0  0  0  0  0  0  0  0  0  0  0
    1.8952   -3.4091   -0.0000 C   0  0  0  0  0  0  0  0  0  0  0  0
   -0.6317   -2.8727   -0.0000 C   0  0  0  0  0  0  0  0  0  0  0  0
    3.6236   -1.4781   -0.0000 C   0  0  0  0  0  0  0  0  0  0  0  0
    3.3018   -2.9323   -0.0000 C   0  0  0  0  0  0  0  0  0  0  0  0
   -0.9536   -4.3269   -0.0000 N   0  0  0  0  0  0  0  0  0  0  0  0
    5.0301   -1.0013   -0.0000 Cl  0  0  0  0  0  0  0  0  0  0  0  0
    0.0477   -5.4354   -0.0000 N   0  0  0  0  0  0  0  0  0  0  0  0
   -2.3363   -4.9348   -0.0000 C   0  0  0  0  0  0  0  0  0  0  0  0
   -0.7152   -6.7228   -0.0000 C   0  0  0  0  0  0  0  0  0  0  0  0
   -3.6594   -4.1719   -0.0000 C   0  0  0  0  0  0  0  0  0  0  0  0
   -2.1932   -6.4128   -0.0000 C   0  0  0  0  0  0  0  0  0  0  0  0
   -3.6713   -2.6462   -0.0000 N   0  0  0  0  0  0  0  0  0  0  0  0
   -4.9705   -4.9229   -0.0000 C   0  0  0  0  0  0  0  0  0  0  0  0
   -4.9825   -1.8952   -0.0000 C   0  0  0  0  0  0  0  0  0  0  0  0
   -6.2817   -4.1600   -0.0000 C   0  0  0  0  0  0  0  0  0  0  0  0
   -6.2936   -2.6343   -0.0000 C   0  0  0  0  0  0  0  0  0  0  0  0
   -7.7240   -4.6130   -0.0000 N   0  0  0  0  0  0  0  0  0  0  0  0
   -7.7359   -2.1575   -0.0000 N   0  0  0  0  0  0  0  0  0  0  0  0
   -8.6180   -3.3852   -0.0000 N   0  0  0  0  0  0  0  0  0  0  0  0
   -8.2008   -6.0195   -0.0000 C   0  0  0  0  0  0  0  0  0  0  0  0
   -9.6908   -6.3175   -0.0000 C   0  0  0  0  0  0  0  0  0  0  0  0
   -7.2115   -7.1280   -0.0000 C   0  0  0  0  0  0  0  0  0  0  0  0
  -10.1676   -7.7359   -0.0000 C   0  0  0  0  0  0  0  0  0  0  0  0
   -7.6763   -8.5465   -0.0000 C   0  0  0  0  0  0  0  0  0  0  0  0
  -11.5503   -8.3319   -0.0000 N   0  0  0  0  0  0  0  0  0  0  0  0
   -9.1782   -8.8326   -0.0000 C   0  0  0  0  0  0  0  0  0  0  0  0
  -11.4072   -9.8100   -0.0000 C   0  0  0  0  0  0  0  0  0  0  0  0
   -9.9411  -10.1199   -0.0000 N   0  0  0  0  0  0  0  0  0  0  0  0
  -12.5277  -10.7993   -0.0000 O   0  0  0  0  0  0  0  0  0  0  0  0
  1  2  1  0  0  0  0
  2  3  2  0  0  0  0
  2  4  1  0  0  0  0
  3  5  1  0  0  0  0
  3  6  1  0  0  0  0
  4  7  2  0  0  0  0
  5  8  2  0  0  0  0
  6  9  1  0  0  0  0
  7 10  1  0  0  0  0
  9 11  1  0  0  0  0
  9 12  1  0  0  0  0
 11 13  2  0  0  0  0
 12 14  1  0  0  0  0
 12 15  2  0  0  0  0
 14 16  2  0  0  0  0
 14 17  1  0  0  0  0
 16 18  1  0  0  0  0
 17 19  2  0  0  0  0
 18 20  2  0  0  0  0
 19 21  1  0  0  0  0
 20 22  1  0  0  0  0
 21 23  1  0  0  0  0
 21 24  1  0  0  0  0
 24 25  2  0  0  0  0
 24 26  1  0  0  0  0
 25 27  1  0  0  0  0
 26 28  2  0  0  0  0
 27 29  1  0  0  0  0
 27 30  2  0  0  0  0
 29 31  1  0  0  0  0
 30 32  1  0  0  0  0
 31 33  2  0  0  0  0
  7  8  1  0  0  0  0
 13 15  1  0  0  0  0
 19 20  1  0  0  0  0
 22 23  2  0  0  0  0
 28 30  1  0  0  0  0
 31 32  1  0  0  0  0
M  END
>  <MolRegNo>
2397573

>  <m>
=

>  <Value>
4200

>  <Unit>
nM

>  <Type>
IC50

>  <pValue>
5.38

>  <Ligand Efficiency>
0

>  <Binding Efficiency>
0

>  <Surface Efficiency>
0

>  <Assay Index>
1319485

>  <Assay Category>


>  <Assay Organism>
Homo sapiens

>  <Target ID>
17045

>  <Target Name>
Cytochrome P450 3A4

>  <Target Organism>
Homo sapiens

>  <Target Description>
Target is a single protein chain

>  <Sequence Accession>
P08684

>  <Reference>
J Med Chem 63 (8), 3935-3955 (2020)

>  <Pubmed ID>
32212732

>  <DOI>
10.1021/acs.jmedchem.9b01713

$$$$
2441811
Actelion Java MolfileCreator 1.0

 37 42  0  0  0  0  0  0  0  0999 V2000
    0.0000   -0.0000   -0.0000 O   0  0  0  0  0  0  0  0  0  0  0  0
   -0.2005    1.4977   -0.0000 C   0  0  0  0  0  0  0  0  0  0  0  0
   -1.2029   -0.8963   -0.0000 C   0  0  0  0  0  0  0  0  0  0  0  0
    0.9788    2.4176   -0.0000 C   0  0  0  0  0  0  0  0  0  0  0  0
   -1.5921    2.0874   -0.0000 C   0  0  0  0  0  0  0  0  0  0  0  0
    2.3468    1.8515   -0.0000 O   0  0  0  0  0  0  0  0  0  0  0  0
    0.7665    3.9271   -0.0000 C   0  0  0  0  0  0  0  0  0  0  0  0
   -1.7807    3.5851   -0.0000 C   0  0  0  0  0  0  0  0  0  0  0  0
   -0.6250    4.5167   -0.0000 C   0  0  0  0  0  0  0  0  0  0  0  0
   -3.1723    4.1747   -0.0000 C   0  0  0  0  0  0  0  0  0  0  0  0
   -4.3752    3.2784   -0.0000 C   0  0  0  0  0  0  0  0  0  0  0  0
   -5.7668    3.8681   -0.0000 N   0  0  0  0  0  0  0  0  0  0  0  0
   -6.9579    2.9718   -0.0000 C   0  0  0  0  0  0  0  0  0  0  0  0
   -6.7810    1.4977   -0.0000 N   0  0  0  0  0  0  0  0  0  0  0  0
   -8.3494    3.5615   -0.0000 C   0  0  0  0  0  0  0  0  0  0  0  0
   -7.9956    0.5896   -0.0000 C   0  0  0  0  0  0  0  0  0  0  0  0
   -8.8565    4.9884   -0.0000 N   0  0  0  0  0  0  0  0  0  0  0  0
   -9.5523    2.6652   -0.0000 C   0  0  0  0  0  0  0  0  0  0  0  0
   -9.3872    1.1793   -0.0000 N   0  0  0  0  0  0  0  0  0  0  0  0
   -7.8187   -0.8845   -0.0000 C   0  0  0  0  0  0  0  0  0  0  0  0
  -10.3660    4.9766   -0.0000 C   0  0  0  0  0  0  0  0  0  0  0  0
  -10.7906    3.5379   -0.0000 N   0  0  0  0  0  0  0  0  0  0  0  0
   -7.6418   -2.3586   -0.0000 C   0  0  0  0  0  0  0  0  0  0  0  0
  -12.2175    3.0544   -0.0000 C   0  0  0  0  0  0  0  0  0  0  0  0
   -7.4650   -3.8327   -0.0000 C   0  0  0  0  0  0  0  0  0  0  0  0
  -12.6657    1.6392   -0.0000 C   0  0  0  0  0  0  0  0  0  0  0  0
  -13.4676    3.9271   -0.0000 C   0  0  0  0  0  0  0  0  0  0  0  0
   -8.6796   -4.7290   -0.0000 C   0  0  0  0  0  0  0  0  0  0  0  0
   -6.0970   -4.3870   -0.0000 C   0  0  0  0  0  0  0  0  0  0  0  0
  -11.7812    0.4481   -0.0000 O   0  0  0  0  0  0  0  0  0  0  0  0
  -14.1752    1.6274   -0.0000 C   0  0  0  0  0  0  0  0  0  0  0  0
  -14.6705    3.0426   -0.0000 C   0  0  0  0  0  0  0  0  0  0  0  0
  -14.8591    4.5167   -0.0000 C   0  0  0  0  0  0  0  0  0  0  0  0
   -8.5027   -6.2031   -0.0000 C   0  0  0  0  0  0  0  0  0  0  0  0
   -5.9201   -5.8611   -0.0000 C   0  0  0  0  0  0  0  0  0  0  0  0
  -15.0478    0.4128   -0.0000 O   0  0  0  0  0  0  0  0  0  0  0  0
   -7.1347   -6.7692   -0.0000 C   0  0  0  0  0  0  0  0  0  0  0  0
  1  2  1  0  0  0  0
  1  3  1  0  0  0  0
  2  4  2  0  0  0  0
  2  5  1  0  0  0  0
  4  6  1  0  0  0  0
  4  7  1  0  0  0  0
  5  8  2  0  0  0  0
  7  9  2  0  0  0  0
  8 10  1  0  0  0  0
 10 11  1  0  0  0  0
 11 12  1  0  0  0  0
 12 13  1  0  0  0  0
 13 14  2  0  0  0  0
 13 15  1  0  0  0  0
 14 16  1  0  0  0  0
 15 17  1  0  0  0  0
 15 18  2  0  0  0  0
 16 19  2  0  0  0  0
 16 20  1  0  0  0  0
 17 21  2  0  0  0  0
 18 22  1  0  0  0  0
 20 23  3  0  0  0  0
 24 22  1  1  0  0  0
 23 25  1  0  0  0  0
 24 26  1  0  0  0  0
 24 27  1  0  0  0  0
 25 28  2  0  0  0  0
 25 29  1  0  0  0  0
 26 30  1  6  0  0  0
 26 31  1  0  0  0  0
 27 32  1  0  0  0  0
 27 33  1  6  0  0  0
 28 34  1  0  0  0  0
 29 35  2  0  0  0  0
 31 36  1  6  0  0  0
 34 37  2  0  0  0  0
  8  9  1  0  0  0  0
 18 19  1  0  0  0  0
 21 22  1  0  0  0  0
 31 32  1  0  0  0  0
 32 33  1  6  0  0  0
 35 37  1  0  0  0  0
M  END
>  <MolRegNo>
2441811

>  <m>
=

>  <Value>
2230

>  <Unit>
nM

>  <Type>
IC50

>  <pValue>
5.65

>  <Ligand Efficiency>
0

>  <Binding Efficiency>
0

>  <Surface Efficiency>
0

>  <Assay Index>
1319868

>  <Assay Category>


>  <Assay Organism>
Homo sapiens

>  <Target ID>
17045

>  <Target Name>
Cytochrome P450 3A4

>  <Target Organism>
Homo sapiens

>  <Target Description>
Target is a single protein chain

>  <Sequence Accession>
P08684

>  <Reference>
J Med Chem 63 (8), 4334-4348 (2020)

>  <Pubmed ID>
32271569

>  <DOI>
10.1021/acs.jmedchem.0c00235

$$$$
2376640
Actelion Java MolfileCreator 1.0

 32 36  0  0  0  0  0  0  0  0999 V2000
    0.0000   -0.0000   -0.0000 O   0  0  0  0  0  0  0  0  0  0  0  0
   -0.3090   -1.4617   -0.0000 C   0  0  0  0  0  0  0  0  0  0  0  0
   -1.6875   -2.0678   -0.0000 N   0  0  0  0  0  0  0  0  0  0  0  0
    0.6893   -2.5550   -0.0000 C   0  0  0  0  0  0  0  0  0  0  0  0
   -3.0066   -1.3072   -0.0000 C   0  0  0  0  0  0  0  0  0  0  0  0
   -1.5330   -3.5414   -0.0000 C   0  0  0  0  0  0  0  0  0  0  0  0
   -0.0713   -3.8504   -0.0000 C   0  0  0  0  0  0  0  0  0  0  0  0
    2.1629   -2.5313   -0.0000 C   0  0  0  0  0  0  0  0  0  0  0  0
   -4.3138   -2.0559   -0.0000 C   0  0  0  0  0  0  0  0  0  0  0  0
   -3.0304    0.2020   -0.0000 C   0  0  0  0  0  0  0  0  0  0  0  0
    0.6774   -5.1338   -0.0000 C   0  0  0  0  0  0  0  0  0  0  0  0
    2.9115   -3.8028   -0.0000 C   0  0  0  0  0  0  0  0  0  0  0  0
   -4.3257   -3.5414   -0.0000 C   0  0  0  0  0  0  0  0  0  0  0  0
   -5.6330   -1.2953   -0.0000 C   0  0  0  0  0  0  0  0  0  0  0  0
    2.1629   -5.1101   -0.0000 C   0  0  0  0  0  0  0  0  0  0  0  0
   -5.6211   -4.2782   -0.0000 C   0  0  0  0  0  0  0  0  0  0  0  0
   -6.9402   -2.0440   -0.0000 C   0  0  0  0  0  0  0  0  0  0  0  0
   -6.9283   -3.5295   -0.0000 C   0  0  0  0  0  0  0  0  0  0  0  0
   -8.2355   -4.2663   -0.0000 N   0  0  0  0  0  0  0  0  0  0  0  0
   -9.5546   -3.5176   -0.0000 C   0  0  0  0  0  0  0  0  0  0  0  0
   -9.5665   -2.0084   -0.0000 O   0  0  0  0  0  0  0  0  0  0  0  0
  -10.8619   -4.2544   -0.0000 N   0  0  0  0  0  0  0  0  0  0  0  0
  -11.2540   -5.6924   -0.0000 C   0  0  0  0  0  0  0  0  0  0  0  0
  -12.3236   -3.8623   -0.0000 C   0  0  0  0  0  0  0  0  0  0  0  0
  -12.7157   -5.3002   -0.0000 C   0  0  0  0  0  0  0  0  0  0  0  0
  -14.0230   -6.0370   -0.0000 C   0  0  0  0  0  0  0  0  0  0  0  0
  -14.0348   -7.5344   -0.0000 C   0  0  0  0  0  0  0  0  0  0  0  0
  -15.3302   -5.2883   -0.0000 C   0  0  0  0  0  0  0  0  0  0  0  0
  -15.3540   -8.2831   -0.0000 N   0  0  0  0  0  0  0  0  0  0  0  0
  -16.6374   -6.0251   -0.0000 C   0  0  0  0  0  0  0  0  0  0  0  0
  -16.6612   -7.5225   -0.0000 C   0  0  0  0  0  0  0  0  0  0  0  0
  -17.9446   -5.2646   -0.0000 N   0  0  0  0  0  0  0  0  0  0  0  0
  1  2  2  0  0  0  0
  2  3  1  0  0  0  0
  2  4  1  0  0  0  0
  5  3  1  6  0  0  0
  3  6  1  0  0  0  0
  4  7  2  0  0  0  0
  4  8  1  0  0  0  0
  5  9  1  0  0  0  0
  5 10  1  0  0  0  0
  7 11  1  0  0  0  0
  8 12  2  0  0  0  0
  9 13  2  0  0  0  0
  9 14  1  0  0  0  0
 11 15  2  0  0  0  0
 13 16  1  0  0  0  0
 14 17  2  0  0  0  0
 16 18  2  0  0  0  0
 18 19  1  0  0  0  0
 19 20  1  0  0  0  0
 20 21  2  0  0  0  0
 20 22  1  0  0  0  0
 22 23  1  0  0  0  0
 22 24  1  0  0  0  0
 23 25  1  0  0  0  0
 25 26  1  0  0  0  0
 26 27  2  0  0  0  0
 26 28  1  0  0  0  0
 27 29  1  0  0  0  0
 28 30  2  0  0  0  0
 29 31  2  0  0  0  0
 30 32  1  0  0  0  0
  6  7  1  0  0  0  0
 12 15  1  0  0  0  0
 17 18  1  0  0  0  0
 24 25  1  0  0  0  0
 30 31  1  0  0  0  0
M  END
>  <MolRegNo>
2376640

>  <m>
=

>  <Value>
4690

>  <Unit>
nM

>  <Type>
IC50

>  <pValue>
5.33

>  <Ligand Efficiency>
0

>  <Binding Efficiency>
0

>  <Surface Efficiency>
0

>  <Assay Index>
1324518

>  <Assay Category>


>  <Assay Organism>
Homo sapiens

>  <Target ID>
17045

>  <Target Name>
Cytochrome P450 3A4

>  <Target Organism>
Homo sapiens

>  <Target Description>
Target is a single protein chain

>  <Sequence Accession>
P08684

>  <Reference>
ACS Med Chem Lett 10 (11), 1524-1529 (2019)

>  <Pubmed ID>
31749905

>  <DOI>
10.1021/acsmedchemlett.9b00325

$$$$
2355925
Actelion Java MolfileCreator 1.0

 31 34  0  0  0  0  0  0  0  0999 V2000
    0.0000   -0.0000   -0.0000 F   0  0  0  0  0  0  0  0  0  0  0  0
   -1.3031   -0.7463   -0.0000 C   0  0  0  0  0  0  0  0  0  0  0  0
   -2.6180   -0.0000   -0.0000 C   0  0  0  0  0  0  0  0  0  0  0  0
   -1.3031   -2.2389   -0.0000 C   0  0  0  0  0  0  0  0  0  0  0  0
   -3.9093   -0.7463   -0.0000 C   0  0  0  0  0  0  0  0  0  0  0  0
   -2.6062   -2.9853   -0.0000 C   0  0  0  0  0  0  0  0  0  0  0  0
   -5.2242    0.0118   -0.0000 C   0  0  0  0  0  0  0  0  0  0  0  0
   -3.9211   -2.2271   -0.0000 C   0  0  0  0  0  0  0  0  0  0  0  0
   -5.2479    1.5163   -0.0000 O   0  0  0  0  0  0  0  0  0  0  0  0
   -6.5273   -0.7345   -0.0000 N   0  0  0  0  0  0  0  0  0  0  0  0
   -7.8422    0.0237   -0.0000 C   0  0  0  0  0  0  0  0  0  0  0  0
   -9.1453   -0.7226   -0.0000 C   0  0  0  0  0  0  0  0  0  0  0  0
   -7.8659    1.5282   -0.0000 C   0  0  0  0  0  0  0  0  0  0  0  0
   -9.1572   -2.2034   -0.0000 C   0  0  0  0  0  0  0  0  0  0  0  0
  -10.4603    0.0355   -0.0000 C   0  0  0  0  0  0  0  0  0  0  0  0
  -10.4603   -2.9379   -0.0000 C   0  0  0  0  0  0  0  0  0  0  0  0
  -11.7515   -0.7108   -0.0000 C   0  0  0  0  0  0  0  0  0  0  0  0
  -11.7634   -2.1797   -0.0000 C   0  0  0  0  0  0  0  0  0  0  0  0
  -13.0665   -2.9142   -0.0000 N   0  0  0  0  0  0  0  0  0  0  0  0
  -14.3696   -2.1560   -0.0000 C   0  0  0  0  0  0  0  0  0  0  0  0
  -14.3814   -0.6515   -0.0000 O   0  0  0  0  0  0  0  0  0  0  0  0
  -15.6726   -2.8905   -0.0000 N   0  0  0  0  0  0  0  0  0  0  0  0
  -16.0636   -4.3239   -0.0000 C   0  0  0  0  0  0  0  0  0  0  0  0
  -17.1297   -2.4996   -0.0000 C   0  0  0  0  0  0  0  0  0  0  0  0
  -17.5207   -3.9330   -0.0000 C   0  0  0  0  0  0  0  0  0  0  0  0
  -18.8238   -4.6674   -0.0000 C   0  0  0  0  0  0  0  0  0  0  0  0
  -18.8356   -6.1601   -0.0000 C   0  0  0  0  0  0  0  0  0  0  0  0
  -20.1269   -3.9093   -0.0000 C   0  0  0  0  0  0  0  0  0  0  0  0
  -20.1505   -6.8945   -0.0000 N   0  0  0  0  0  0  0  0  0  0  0  0
  -21.4299   -4.6437   -0.0000 C   0  0  0  0  0  0  0  0  0  0  0  0
  -21.4536   -6.1364   -0.0000 C   0  0  0  0  0  0  0  0  0  0  0  0
  1  2  1  0  0  0  0
  2  3  2  0  0  0  0
  2  4  1  0  0  0  0
  3  5  1  0  0  0  0
  4  6  2  0  0  0  0
  5  7  1  0  0  0  0
  5  8  2  0  0  0  0
  7  9  2  0  0  0  0
  7 10  1  0  0  0  0
 11 10  1  6  0  0  0
 11 12  1  0  0  0  0
 11 13  1  0  0  0  0
 12 14  2  0  0  0  0
 12 15  1  0  0  0  0
 14 16  1  0  0  0  0
 15 17  2  0  0  0  0
 16 18  2  0  0  0  0
 18 19  1  0  0  0  0
 19 20  1  0  0  0  0
 20 21  2  0  0  0  0
 20 22  1  0  0  0  0
 22 23  1  0  0  0  0
 22 24  1  0  0  0  0
 23 25  1  0  0  0  0
 25 26  1  0  0  0  0
 26 27  2  0  0  0  0
 26 28  1  0  0  0  0
 27 29  1  0  0  0  0
 28 30  2  0  0  0  0
 29 31  2  0  0  0  0
  6  8  1  0  0  0  0
 17 18  1  0  0  0  0
 24 25  1  0  0  0  0
 30 31  1  0  0  0  0
M  END
>  <MolRegNo>
2355925

>  <m>
=

>  <Value>
3110

>  <Unit>
nM

>  <Type>
IC50

>  <pValue>
5.51

>  <Ligand Efficiency>
0

>  <Binding Efficiency>
0

>  <Surface Efficiency>
0

>  <Assay Index>
1324518

>  <Assay Category>


>  <Assay Organism>
Homo sapiens

>  <Target ID>
17045

>  <Target Name>
Cytochrome P450 3A4

>  <Target Organism>
Homo sapiens

>  <Target Description>
Target is a single protein chain

>  <Sequence Accession>
P08684

>  <Reference>
ACS Med Chem Lett 10 (11), 1524-1529 (2019)

>  <Pubmed ID>
31749905

>  <DOI>
10.1021/acsmedchemlett.9b00325

$$$$
2384505
Actelion Java MolfileCreator 1.0

 31 35  0  0  0  0  0  0  0  0999 V2000
    0.0000   -0.0000   -0.0000 O   0  0  0  0  0  0  0  0  0  0  0  0
   -0.3209   -1.4620   -0.0000 C   0  0  0  0  0  0  0  0  0  0  0  0
   -1.6997   -2.0682   -0.0000 N   0  0  0  0  0  0  0  0  0  0  0  0
    0.6775   -2.5555   -0.0000 C   0  0  0  0  0  0  0  0  0  0  0  0
   -3.0072   -1.3075   -0.0000 C   0  0  0  0  0  0  0  0  0  0  0  0
   -1.5452   -3.5421   -0.0000 C   0  0  0  0  0  0  0  0  0  0  0  0
   -0.0713   -3.8511   -0.0000 C   0  0  0  0  0  0  0  0  0  0  0  0
    2.1514   -2.5318   -0.0000 C   0  0  0  0  0  0  0  0  0  0  0  0
   -4.3147   -2.0563   -0.0000 C   0  0  0  0  0  0  0  0  0  0  0  0
   -3.0310    0.2021   -0.0000 C   0  0  0  0  0  0  0  0  0  0  0  0
    0.6656   -5.1348   -0.0000 C   0  0  0  0  0  0  0  0  0  0  0  0
    2.9002   -3.8036   -0.0000 C   0  0  0  0  0  0  0  0  0  0  0  0
   -4.3266   -3.5421   -0.0000 C   0  0  0  0  0  0  0  0  0  0  0  0
   -5.6340   -1.2956   -0.0000 C   0  0  0  0  0  0  0  0  0  0  0  0
    2.1514   -5.1111   -0.0000 C   0  0  0  0  0  0  0  0  0  0  0  0
   -5.6340   -4.2790   -0.0000 C   0  0  0  0  0  0  0  0  0  0  0  0
   -6.9415   -2.0444   -0.0000 C   0  0  0  0  0  0  0  0  0  0  0  0
   -6.9415   -3.5302   -0.0000 C   0  0  0  0  0  0  0  0  0  0  0  0
   -8.2490   -4.2671   -0.0000 N   0  0  0  0  0  0  0  0  0  0  0  0
   -9.5684   -3.5183   -0.0000 C   0  0  0  0  0  0  0  0  0  0  0  0
   -9.5803   -2.0088   -0.0000 O   0  0  0  0  0  0  0  0  0  0  0  0
  -10.8758   -4.2552   -0.0000 N   0  0  0  0  0  0  0  0  0  0  0  0
  -11.2681   -5.6935   -0.0000 C   0  0  0  0  0  0  0  0  0  0  0  0
  -12.3378   -3.8630   -0.0000 C   0  0  0  0  0  0  0  0  0  0  0  0
  -12.7301   -5.3012   -0.0000 C   0  0  0  0  0  0  0  0  0  0  0  0
  -14.0376   -6.0382   -0.0000 C   0  0  0  0  0  0  0  0  0  0  0  0
  -14.0495   -7.5358   -0.0000 C   0  0  0  0  0  0  0  0  0  0  0  0
  -15.3450   -5.2893   -0.0000 C   0  0  0  0  0  0  0  0  0  0  0  0
  -15.3688   -8.2847   -0.0000 N   0  0  0  0  0  0  0  0  0  0  0  0
  -16.6525   -6.0263   -0.0000 C   0  0  0  0  0  0  0  0  0  0  0  0
  -16.6763   -7.5239   -0.0000 C   0  0  0  0  0  0  0  0  0  0  0  0
  1  2  2  0  0  0  0
  2  3  1  0  0  0  0
  2  4  1  0  0  0  0
  5  3  1  6  0  0  0
  3  6  1  0  0  0  0
  4  7  2  0  0  0  0
  4  8  1  0  0  0  0
  5  9  1  0  0  0  0
  5 10  1  0  0  0  0
  7 11  1  0  0  0  0
  8 12  2  0  0  0  0
  9 13  2  0  0  0  0
  9 14  1  0  0  0  0
 11 15  2  0  0  0  0
 13 16  1  0  0  0  0
 14 17  2  0  0  0  0
 16 18  2  0  0  0  0
 18 19  1  0  0  0  0
 19 20  1  0  0  0  0
 20 21  2  0  0  0  0
 20 22  1  0  0  0  0
 22 23  1  0  0  0  0
 22 24  1  0  0  0  0
 23 25  1  0  0  0  0
 25 26  1  0  0  0  0
 26 27  2  0  0  0  0
 26 28  1  0  0  0  0
 27 29  1  0  0  0  0
 28 30  2  0  0  0  0
 29 31  2  0  0  0  0
  6  7  1  0  0  0  0
 12 15  1  0  0  0  0
 17 18  1  0  0  0  0
 24 25  1  0  0  0  0
 30 31  1  0  0  0  0
M  END
>  <MolRegNo>
2384505

>  <m>
=

>  <Value>
3040

>  <Unit>
nM

>  <Type>
IC50

>  <pValue>
5.52

>  <Ligand Efficiency>
0

>  <Binding Efficiency>
0

>  <Surface Efficiency>
0

>  <Assay Index>
1324518

>  <Assay Category>


>  <Assay Organism>
Homo sapiens

>  <Target ID>
17045

>  <Target Name>
Cytochrome P450 3A4

>  <Target Organism>
Homo sapiens

>  <Target Description>
Target is a single protein chain

>  <Sequence Accession>
P08684

>  <Reference>
ACS Med Chem Lett 10 (11), 1524-1529 (2019)

>  <Pubmed ID>
31749905

>  <DOI>
10.1021/acsmedchemlett.9b00325

$$$$
2456803
Actelion Java MolfileCreator 1.0

 39 44  0  0  0  0  0  0  0  0999 V2000
    0.0000   -0.0000   -0.0000 O   0  0  0  0  0  0  0  0  0  0  0  0
   -0.0119    1.5081   -0.0000 C   0  0  0  0  0  0  0  0  0  0  0  0
   -1.3181    2.2681   -0.0000 N   0  0  0  0  0  0  0  0  0  0  0  0
    1.2825    2.2681   -0.0000 N   0  0  0  0  0  0  0  0  0  0  0  0
   -2.6362    1.5319   -0.0000 C   0  0  0  0  0  0  0  0  0  0  0  0
    2.5650    1.5319   -0.0000 C   0  0  0  0  0  0  0  0  0  0  0  0
   -3.9544    2.2919   -0.0000 C   0  0  0  0  0  0  0  0  0  0  0  0
   -2.6481    0.0356   -0.0000 C   0  0  0  0  0  0  0  0  0  0  0  0
    2.7194    0.0475   -0.0000 N   0  0  0  0  0  0  0  0  0  0  0  0
    3.9306    2.1494   -0.0000 C   0  0  0  0  0  0  0  0  0  0  0  0
   -5.2606    1.5556   -0.0000 C   0  0  0  0  0  0  0  0  0  0  0  0
   -3.9662   -0.7006   -0.0000 C   0  0  0  0  0  0  0  0  0  0  0  0
    4.1800   -0.2494   -0.0000 N   0  0  0  0  0  0  0  0  0  0  0  0
    1.9475   -1.2350   -0.0000 C   0  0  0  0  0  0  0  0  0  0  0  0
    4.9281    1.0450   -0.0000 C   0  0  0  0  0  0  0  0  0  0  0  0
   -5.2725    0.0712   -0.0000 C   0  0  0  0  0  0  0  0  0  0  0  0
   -6.5787    2.3156   -0.0000 C   0  0  0  0  0  0  0  0  0  0  0  0
    0.4275   -1.2112   -0.0000 C   0  0  0  0  0  0  0  0  0  0  0  0
    2.6837   -2.5175   -0.0000 C   0  0  0  0  0  0  0  0  0  0  0  0
    6.4125    1.0569   -0.0000 C   0  0  0  0  0  0  0  0  0  0  0  0
   -6.5787   -0.6650   -0.0000 C   0  0  0  0  0  0  0  0  0  0  0  0
   -0.3325   -2.4937   -0.0000 C   0  0  0  0  0  0  0  0  0  0  0  0
    1.9119   -3.8000   -0.0000 C   0  0  0  0  0  0  0  0  0  0  0  0
    7.1606   -0.2256   -0.0000 C   0  0  0  0  0  0  0  0  0  0  0  0
    7.1487    2.3631   -0.0000 C   0  0  0  0  0  0  0  0  0  0  0  0
    7.8969    1.0687   -0.0000 C   0  0  0  0  0  0  0  0  0  0  0  0
   -7.8850    0.1069   -0.0000 N   0  0  0  0  0  0  0  0  0  0  0  0
   -6.5906   -2.1494   -0.0000 C   0  0  0  0  0  0  0  0  0  0  0  0
    0.3919   -3.7881   -0.0000 C   0  0  0  0  0  0  0  0  0  0  0  0
   -9.1912   -0.6412   -0.0000 C   0  0  0  0  0  0  0  0  0  0  0  0
   -8.2056    1.5912   -0.0000 C   0  0  0  0  0  0  0  0  0  0  0  0
   -7.8969   -2.8737   -0.0000 N   0  0  0  0  0  0  0  0  0  0  0  0
  -10.3194    0.3800   -0.0000 N   0  0  0  0  0  0  0  0  0  0  0  0
   -9.2031   -2.1375   -0.0000 C   0  0  0  0  0  0  0  0  0  0  0  0
   -9.7137    1.7575   -0.0000 C   0  0  0  0  0  0  0  0  0  0  0  0
  -10.5094   -2.8737   -0.0000 N   0  0  0  0  0  0  0  0  0  0  0  0
  -10.5212   -4.3581   -0.0000 C   0  0  0  0  0  0  0  0  0  0  0  0
  -11.2812   -5.6525   -0.0000 C   0  0  0  0  0  0  0  0  0  0  0  0
   -9.7731   -5.6406   -0.0000 C   0  0  0  0  0  0  0  0  0  0  0  0
  1  2  2  0  0  0  0
  2  3  1  0  0  0  0
  2  4  1  0  0  0  0
  3  5  1  0  0  0  0
  4  6  1  0  0  0  0
  5  7  2  0  0  0  0
  5  8  1  0  0  0  0
  6  9  1  0  0  0  0
  6 10  2  0  0  0  0
  7 11  1  0  0  0  0
  8 12  2  0  0  0  0
  9 13  1  0  0  0  0
  9 14  1  0  0  0  0
 10 15  1  0  0  0  0
 11 16  2  0  0  0  0
 11 17  1  0  0  0  0
 14 18  2  0  0  0  0
 14 19  1  0  0  0  0
 15 20  1  0  0  0  0
 16 21  1  0  0  0  0
 18 22  1  0  0  0  0
 19 23  2  0  0  0  0
 20 24  1  0  0  0  0
 20 25  1  0  0  0  0
 20 26  1  0  0  0  0
 21 27  1  0  0  0  0
 21 28  2  0  0  0  0
 22 29  2  0  0  0  0
 27 30  1  0  0  0  0
 27 31  1  0  0  0  0
 28 32  1  0  0  0  0
 30 33  2  0  0  0  0
 30 34  1  0  0  0  0
 31 35  2  0  0  0  0
 34 36  1  0  0  0  0
 36 37  1  0  0  0  0
 37 38  1  0  0  0  0
 37 39  1  0  0  0  0
 12 16  1  0  0  0  0
 13 15  2  0  0  0  0
 23 29  1  0  0  0  0
 32 34  2  0  0  0  0
 33 35  1  0  0  0  0
 38 39  1  0  0  0  0
M  END
>  <MolRegNo>
2456803

>  <m>
=

>  <Value>
3520

>  <Unit>
nM

>  <Type>
IC50

>  <pValue>
5.45

>  <Ligand Efficiency>
0

>  <Binding Efficiency>
0

>  <Surface Efficiency>
0

>  <Assay Index>
1326107

>  <Assay Category>


>  <Assay Organism>
Homo sapiens

>  <Target ID>
17045

>  <Target Name>
Cytochrome P450 3A4

>  <Target Organism>
Homo sapiens

>  <Target Description>
Target is a single protein chain

>  <Sequence Accession>
P08684

>  <Reference>


>  <Pubmed ID>
30576901

>  <DOI>
10.1016/j.ejmech.2018.12.025

$$$$
2375279
Actelion Java MolfileCreator 1.0

 25 28  0  0  0  0  0  0  0  0999 V2000
    0.0000   -0.0000   -0.0000 Cl  0  0  0  0  0  0  0  0  0  0  0  0
    1.2914    0.7582   -0.0000 C   0  0  0  0  0  0  0  0  0  0  0  0
    1.2914    2.2747   -0.0000 C   0  0  0  0  0  0  0  0  0  0  0  0
    2.5828    0.0118   -0.0000 C   0  0  0  0  0  0  0  0  0  0  0  0
    2.5828    3.0330   -0.0000 C   0  0  0  0  0  0  0  0  0  0  0  0
    3.8742    0.7701   -0.0000 C   0  0  0  0  0  0  0  0  0  0  0  0
    3.8623    2.2747   -0.0000 C   0  0  0  0  0  0  0  0  0  0  0  0
    5.1537    3.0330   -0.0000 C   0  0  0  0  0  0  0  0  0  0  0  0
    6.3622    2.1681   -0.0000 N   0  0  0  0  0  0  0  0  0  0  0  0
    5.6039    4.4784   -0.0000 C   0  0  0  0  0  0  0  0  0  0  0  0
    7.5706    3.0567   -0.0000 C   0  0  0  0  0  0  0  0  0  0  0  0
    7.0967    4.4903   -0.0000 C   0  0  0  0  0  0  0  0  0  0  0  0
    7.9616    5.7224   -0.0000 C   0  0  0  0  0  0  0  0  0  0  0  0
    7.2626    7.0730   -0.0000 N   0  0  0  0  0  0  0  0  0  0  0  0
    9.4544    5.7343   -0.0000 C   0  0  0  0  0  0  0  0  0  0  0  0
    5.7579    7.3218   -0.0000 C   0  0  0  0  0  0  0  0  0  0  0  0
    7.9261    8.4237   -0.0000 C   0  0  0  0  0  0  0  0  0  0  0  0
   10.1890    4.4429   -0.0000 C   0  0  0  0  0  0  0  0  0  0  0  0
   10.1771    7.0375   -0.0000 C   0  0  0  0  0  0  0  0  0  0  0  0
    5.5091    8.8146   -0.0000 N   0  0  0  0  0  0  0  0  0  0  0  0
    6.8479    9.4900   -0.0000 C   0  0  0  0  0  0  0  0  0  0  0  0
   11.6699    4.4547   -0.0000 C   0  0  0  0  0  0  0  0  0  0  0  0
   11.6581    7.0612   -0.0000 C   0  0  0  0  0  0  0  0  0  0  0  0
   12.4045    5.7698   -0.0000 C   0  0  0  0  0  0  0  0  0  0  0  0
   13.8973    5.7935   -0.0000 Cl  0  0  0  0  0  0  0  0  0  0  0  0
  1  2  1  0  0  0  0
  2  3  2  0  0  0  0
  2  4  1  0  0  0  0
  3  5  1  0  0  0  0
  4  6  2  0  0  0  0
  5  7  2  0  0  0  0
  7  8  1  0  0  0  0
  8  9  1  0  0  0  0
  8 10  2  0  0  0  0
  9 11  1  0  0  0  0
 10 12  1  0  0  0  0
 12 13  1  0  0  0  0
 13 14  1  0  0  0  0
 13 15  1  0  0  0  0
 14 16  1  0  0  0  0
 14 17  1  0  0  0  0
 15 18  2  0  0  0  0
 15 19  1  0  0  0  0
 16 20  2  0  0  0  0
 17 21  2  0  0  0  0
 18 22  1  0  0  0  0
 19 23  2  0  0  0  0
 22 24  2  0  0  0  0
 24 25  1  0  0  0  0
  6  7  1  0  0  0  0
 11 12  2  0  0  0  0
 20 21  1  0  0  0  0
 23 24  1  0  0  0  0
M  END
>  <MolRegNo>
2375279

>  <m>
=

>  <Value>
1400

>  <Unit>
nM

>  <Type>
IC50

>  <pValue>
5.85

>  <Ligand Efficiency>
0

>  <Binding Efficiency>
0

>  <Surface Efficiency>
0

>  <Assay Index>
1327021

>  <Assay Category>


>  <Assay Organism>
Homo sapiens

>  <Target ID>
17045

>  <Target Name>
Cytochrome P450 3A4

>  <Target Organism>
Homo sapiens

>  <Target Description>
Target is a single protein chain

>  <Sequence Accession>
P08684

>  <Reference>
J Med Chem 62 (3), 1330-1347 (2019)

>  <Pubmed ID>
30615444

>  <DOI>
10.1021/acs.jmedchem.8b01464

$$$$
2439801
Actelion Java MolfileCreator 1.0

 26 29  0  0  0  0  0  0  0  0999 V2000
    0.0000   -0.0000   -0.0000 Cl  0  0  0  0  0  0  0  0  0  0  0  0
    1.2921    0.7587   -0.0000 C   0  0  0  0  0  0  0  0  0  0  0  0
    1.2921    2.2761   -0.0000 C   0  0  0  0  0  0  0  0  0  0  0  0
    2.5843    0.0119   -0.0000 C   0  0  0  0  0  0  0  0  0  0  0  0
    2.5843    3.0229   -0.0000 C   0  0  0  0  0  0  0  0  0  0  0  0
    3.8764    0.7705   -0.0000 C   0  0  0  0  0  0  0  0  0  0  0  0
    3.8645    2.2642   -0.0000 C   0  0  0  0  0  0  0  0  0  0  0  0
    5.1567    3.0229   -0.0000 C   0  0  0  0  0  0  0  0  0  0  0  0
    6.3658    2.1575   -0.0000 N   0  0  0  0  0  0  0  0  0  0  0  0
    5.6071    4.4691   -0.0000 C   0  0  0  0  0  0  0  0  0  0  0  0
    7.5750    3.0466   -0.0000 C   0  0  0  0  0  0  0  0  0  0  0  0
    6.3540    0.6638   -0.0000 C   0  0  0  0  0  0  0  0  0  0  0  0
    7.1008    4.4810   -0.0000 C   0  0  0  0  0  0  0  0  0  0  0  0
    7.9662    5.7138   -0.0000 C   0  0  0  0  0  0  0  0  0  0  0  0
    7.2668    7.0652   -0.0000 N   0  0  0  0  0  0  0  0  0  0  0  0
    9.4598    5.7257   -0.0000 C   0  0  0  0  0  0  0  0  0  0  0  0
    5.7613    7.3142   -0.0000 C   0  0  0  0  0  0  0  0  0  0  0  0
    7.9306    8.4166   -0.0000 C   0  0  0  0  0  0  0  0  0  0  0  0
   10.1948    4.4336   -0.0000 C   0  0  0  0  0  0  0  0  0  0  0  0
   10.1830    7.0297   -0.0000 C   0  0  0  0  0  0  0  0  0  0  0  0
    5.5123    8.8078   -0.0000 N   0  0  0  0  0  0  0  0  0  0  0  0
    6.8519    9.4835   -0.0000 C   0  0  0  0  0  0  0  0  0  0  0  0
   11.6766    4.4454   -0.0000 C   0  0  0  0  0  0  0  0  0  0  0  0
   11.6648    7.0534   -0.0000 C   0  0  0  0  0  0  0  0  0  0  0  0
   12.4116    5.7613   -0.0000 C   0  0  0  0  0  0  0  0  0  0  0  0
   13.9053    5.7850   -0.0000 Cl  0  0  0  0  0  0  0  0  0  0  0  0
  1  2  1  0  0  0  0
  2  3  2  0  0  0  0
  2  4  1  0  0  0  0
  3  5  1  0  0  0  0
  4  6  2  0  0  0  0
  5  7  2  0  0  0  0
  7  8  1  0  0  0  0
  8  9  1  0  0  0  0
  8 10  2  0  0  0  0
  9 11  1  0  0  0  0
  9 12  1  0  0  0  0
 10 13  1  0  0  0  0
 13 14  1  0  0  0  0
 14 15  1  0  0  0  0
 14 16  1  0  0  0  0
 15 17  1  0  0  0  0
 15 18  1  0  0  0  0
 16 19  2  0  0  0  0
 16 20  1  0  0  0  0
 17 21  2  0  0  0  0
 18 22  2  0  0  0  0
 19 23  1  0  0  0  0
 20 24  2  0  0  0  0
 23 25  2  0  0  0  0
 25 26  1  0  0  0  0
  6  7  1  0  0  0  0
 11 13  2  0  0  0  0
 21 22  1  0  0  0  0
 24 25  1  0  0  0  0
M  END
>  <MolRegNo>
2439801

>  <m>
=

>  <Value>
1100

>  <Unit>
nM

>  <Type>
IC50

>  <pValue>
5.96

>  <Ligand Efficiency>
0

>  <Binding Efficiency>
0

>  <Surface Efficiency>
0

>  <Assay Index>
1327021

>  <Assay Category>


>  <Assay Organism>
Homo sapiens

>  <Target ID>
17045

>  <Target Name>
Cytochrome P450 3A4

>  <Target Organism>
Homo sapiens

>  <Target Description>
Target is a single protein chain

>  <Sequence Accession>
P08684

>  <Reference>
J Med Chem 62 (3), 1330-1347 (2019)

>  <Pubmed ID>
30615444

>  <DOI>
10.1021/acs.jmedchem.8b01464

$$$$
2421567
Actelion Java MolfileCreator 1.0

 28 31  0  0  0  0  0  0  0  0999 V2000
    0.0000   -0.0000   -0.0000 Cl  0  0  0  0  0  0  0  0  0  0  0  0
    1.2927    0.7590   -0.0000 C   0  0  0  0  0  0  0  0  0  0  0  0
    1.2927    2.2770   -0.0000 C   0  0  0  0  0  0  0  0  0  0  0  0
    2.5854    0.0119   -0.0000 C   0  0  0  0  0  0  0  0  0  0  0  0
    2.5854    3.0242   -0.0000 C   0  0  0  0  0  0  0  0  0  0  0  0
    3.8780    0.7709   -0.0000 C   0  0  0  0  0  0  0  0  0  0  0  0
    3.8662    2.2652   -0.0000 C   0  0  0  0  0  0  0  0  0  0  0  0
    5.1589    3.0242   -0.0000 C   0  0  0  0  0  0  0  0  0  0  0  0
    6.3685    2.1584   -0.0000 N   0  0  0  0  0  0  0  0  0  0  0  0
    5.6095    4.4710   -0.0000 C   0  0  0  0  0  0  0  0  0  0  0  0
    7.5782    3.0479   -0.0000 C   0  0  0  0  0  0  0  0  0  0  0  0
    6.3567    0.6641   -0.0000 C   0  0  0  0  0  0  0  0  0  0  0  0
    7.1038    4.4829   -0.0000 C   0  0  0  0  0  0  0  0  0  0  0  0
    7.6494   -0.0712   -0.0000 C   0  0  0  0  0  0  0  0  0  0  0  0
    7.9696    5.7163   -0.0000 C   0  0  0  0  0  0  0  0  0  0  0  0
    7.6375   -1.5655   -0.0000 C   0  0  0  0  0  0  0  0  0  0  0  0
    7.2699    7.0682   -0.0000 N   0  0  0  0  0  0  0  0  0  0  0  0
    9.4639    5.7281   -0.0000 C   0  0  0  0  0  0  0  0  0  0  0  0
    5.7637    7.3173   -0.0000 C   0  0  0  0  0  0  0  0  0  0  0  0
    7.9340    8.4202   -0.0000 C   0  0  0  0  0  0  0  0  0  0  0  0
   10.1991    4.4354   -0.0000 C   0  0  0  0  0  0  0  0  0  0  0  0
   10.1873    7.0327   -0.0000 C   0  0  0  0  0  0  0  0  0  0  0  0
    5.5147    8.8116   -0.0000 N   0  0  0  0  0  0  0  0  0  0  0  0
    6.8548    9.4876   -0.0000 C   0  0  0  0  0  0  0  0  0  0  0  0
   11.6816    4.4473   -0.0000 C   0  0  0  0  0  0  0  0  0  0  0  0
   11.6697    7.0564   -0.0000 C   0  0  0  0  0  0  0  0  0  0  0  0
   12.4169    5.7637   -0.0000 C   0  0  0  0  0  0  0  0  0  0  0  0
   13.9112    5.7874   -0.0000 Cl  0  0  0  0  0  0  0  0  0  0  0  0
  1  2  1  0  0  0  0
  2  3  2  0  0  0  0
  2  4  1  0  0  0  0
  3  5  1  0  0  0  0
  4  6  2  0  0  0  0
  5  7  2  0  0  0  0
  7  8  1  0  0  0  0
  8  9  1  0  0  0  0
  8 10  2  0  0  0  0
  9 11  1  0  0  0  0
  9 12  1  0  0  0  0
 10 13  1  0  0  0  0
 12 14  1  0  0  0  0
 13 15  1  0  0  0  0
 14 16  2  0  0  0  0
 15 17  1  0  0  0  0
 15 18  1  0  0  0  0
 17 19  1  0  0  0  0
 17 20  1  0  0  0  0
 18 21  2  0  0  0  0
 18 22  1  0  0  0  0
 19 23  2  0  0  0  0
 20 24  2  0  0  0  0
 21 25  1  0  0  0  0
 22 26  2  0  0  0  0
 25 27  2  0  0  0  0
 27 28  1  0  0  0  0
  6  7  1  0  0  0  0
 11 13  2  0  0  0  0
 23 24  1  0  0  0  0
 26 27  1  0  0  0  0
M  END
>  <MolRegNo>
2421567

>  <m>
=

>  <Value>
900

>  <Unit>
nM

>  <Type>
IC50

>  <pValue>
6.05

>  <Ligand Efficiency>
0

>  <Binding Efficiency>
0

>  <Surface Efficiency>
0

>  <Assay Index>
1327021

>  <Assay Category>


>  <Assay Organism>
Homo sapiens

>  <Target ID>
17045

>  <Target Name>
Cytochrome P450 3A4

>  <Target Organism>
Homo sapiens

>  <Target Description>
Target is a single protein chain

>  <Sequence Accession>
P08684

>  <Reference>
J Med Chem 62 (3), 1330-1347 (2019)

>  <Pubmed ID>
30615444

>  <DOI>
10.1021/acs.jmedchem.8b01464

$$$$
2345735
Actelion Java MolfileCreator 1.0

 26 29  0  0  0  0  0  0  0  0999 V2000
    0.0000   -0.0000   -0.0000 Cl  0  0  0  0  0  0  0  0  0  0  0  0
    0.7318    1.3101   -0.0000 C   0  0  0  0  0  0  0  0  0  0  0  0
   -0.0354    2.6202   -0.0000 C   0  0  0  0  0  0  0  0  0  0  0  0
    2.2189    1.3219   -0.0000 C   0  0  0  0  0  0  0  0  0  0  0  0
    0.6845    3.9302   -0.0000 C   0  0  0  0  0  0  0  0  0  0  0  0
   -1.5461    2.6320   -0.0000 C   0  0  0  0  0  0  0  0  0  0  0  0
    2.9506    2.6320   -0.0000 C   0  0  0  0  0  0  0  0  0  0  0  0
    2.1599    3.9538   -0.0000 C   0  0  0  0  0  0  0  0  0  0  0  0
   -2.2425    3.9775   -0.0000 N   0  0  0  0  0  0  0  0  0  0  0  0
   -2.4431    1.4281   -0.0000 C   0  0  0  0  0  0  0  0  0  0  0  0
    4.4378    2.6556   -0.0000 Cl  0  0  0  0  0  0  0  0  0  0  0  0
   -3.7414    4.2253   -0.0000 C   0  0  0  0  0  0  0  0  0  0  0  0
   -1.5815    5.3229   -0.0000 C   0  0  0  0  0  0  0  0  0  0  0  0
   -1.9828    0.0118   -0.0000 C   0  0  0  0  0  0  0  0  0  0  0  0
   -3.9538    1.4399   -0.0000 C   0  0  0  0  0  0  0  0  0  0  0  0
   -3.9893    5.7124   -0.0000 N   0  0  0  0  0  0  0  0  0  0  0  0
   -2.6556    6.3970   -0.0000 C   0  0  0  0  0  0  0  0  0  0  0  0
   -3.2103   -0.8498   -0.0000 N   0  0  0  0  0  0  0  0  0  0  0  0
   -4.4378    0.0236   -0.0000 C   0  0  0  0  0  0  0  0  0  0  0  0
   -3.2221   -2.3369   -0.0000 C   0  0  0  0  0  0  0  0  0  0  0  0
   -4.5322   -3.0687   -0.0000 C   0  0  0  0  0  0  0  0  0  0  0  0
   -1.9356   -3.0687   -0.0000 C   0  0  0  0  0  0  0  0  0  0  0  0
   -4.5440   -4.5558   -0.0000 C   0  0  0  0  0  0  0  0  0  0  0  0
   -1.9474   -4.5558   -0.0000 C   0  0  0  0  0  0  0  0  0  0  0  0
   -3.2575   -5.2993   -0.0000 C   0  0  0  0  0  0  0  0  0  0  0  0
   -3.2693   -6.7865   -0.0000 Cl  0  0  0  0  0  0  0  0  0  0  0  0
  1  2  1  0  0  0  0
  2  3  2  0  0  0  0
  2  4  1  0  0  0  0
  3  5  1  0  0  0  0
  3  6  1  0  0  0  0
  4  7  2  0  0  0  0
  5  8  2  0  0  0  0
  6  9  1  0  0  0  0
  6 10  1  0  0  0  0
  7 11  1  0  0  0  0
  9 12  1  0  0  0  0
  9 13  1  0  0  0  0
 10 14  2  0  0  0  0
 10 15  1  0  0  0  0
 12 16  2  0  0  0  0
 13 17  2  0  0  0  0
 14 18  1  0  0  0  0
 15 19  2  0  0  0  0
 18 20  1  0  0  0  0
 20 21  2  0  0  0  0
 20 22  1  0  0  0  0
 21 23  1  0  0  0  0
 22 24  2  0  0  0  0
 23 25  2  0  0  0  0
 25 26  1  0  0  0  0
  7  8  1  0  0  0  0
 16 17  1  0  0  0  0
 18 19  1  0  0  0  0
 24 25  1  0  0  0  0
M  END
>  <MolRegNo>
2345735

>  <m>
=

>  <Value>
900

>  <Unit>
nM

>  <Type>
IC50

>  <pValue>
6.05

>  <Ligand Efficiency>
0

>  <Binding Efficiency>
0

>  <Surface Efficiency>
0

>  <Assay Index>
1327021

>  <Assay Category>


>  <Assay Organism>
Homo sapiens

>  <Target ID>
17045

>  <Target Name>
Cytochrome P450 3A4

>  <Target Organism>
Homo sapiens

>  <Target Description>
Target is a single protein chain

>  <Sequence Accession>
P08684

>  <Reference>
J Med Chem 62 (3), 1330-1347 (2019)

>  <Pubmed ID>
30615444

>  <DOI>
10.1021/acs.jmedchem.8b01464

$$$$
149344
Actelion Java MolfileCreator 1.0

 26 29  0  0  0  0  0  0  0  0999 V2000
    0.0000   -0.0000   -0.0000 Cl  0  0  0  0  0  0  0  0  0  0  0  0
   -0.0118   -1.4852   -0.0000 C   0  0  0  0  0  0  0  0  0  0  0  0
   -1.3201   -2.2160   -0.0000 C   0  0  0  0  0  0  0  0  0  0  0  0
    1.2730   -2.2160   -0.0000 C   0  0  0  0  0  0  0  0  0  0  0  0
   -1.3319   -3.7011   -0.0000 C   0  0  0  0  0  0  0  0  0  0  0  0
   -2.6285   -1.4616   -0.0000 C   0  0  0  0  0  0  0  0  0  0  0  0
    1.2730   -3.7011   -0.0000 C   0  0  0  0  0  0  0  0  0  0  0  0
   -0.0471   -4.4437   -0.0000 C   0  0  0  0  0  0  0  0  0  0  0  0
   -2.6403    0.0471   -0.0000 N   0  0  0  0  0  0  0  0  0  0  0  0
   -3.9368   -2.1924   -0.0000 C   0  0  0  0  0  0  0  0  0  0  0  0
    2.5578   -4.4437   -0.0000 Cl  0  0  0  0  0  0  0  0  0  0  0  0
   -1.4380    0.9430   -0.0000 C   0  0  0  0  0  0  0  0  0  0  0  0
   -3.8661    0.9430   -0.0000 C   0  0  0  0  0  0  0  0  0  0  0  0
   -5.3513   -1.6266   -0.0000 C   0  0  0  0  0  0  0  0  0  0  0  0
   -4.0665   -3.6775   -0.0000 C   0  0  0  0  0  0  0  0  0  0  0  0
   -1.9213    2.3692   -0.0000 N   0  0  0  0  0  0  0  0  0  0  0  0
   -3.4182    2.3692   -0.0000 C   0  0  0  0  0  0  0  0  0  0  0  0
   -5.7285   -0.1650   -0.0000 C   0  0  0  0  0  0  0  0  0  0  0  0
   -6.3178   -2.7582   -0.0000 C   0  0  0  0  0  0  0  0  0  0  0  0
   -5.5281   -4.0311   -0.0000 N   0  0  0  0  0  0  0  0  0  0  0  0
   -4.6559    0.8840   -0.0000 C   0  0  0  0  0  0  0  0  0  0  0  0
   -7.1665    0.2475   -0.0000 C   0  0  0  0  0  0  0  0  0  0  0  0
   -5.0330    2.3456   -0.0000 C   0  0  0  0  0  0  0  0  0  0  0  0
   -7.5437    1.7091   -0.0000 C   0  0  0  0  0  0  0  0  0  0  0  0
   -6.4946    2.7699   -0.0000 C   0  0  0  0  0  0  0  0  0  0  0  0
   -6.8718    4.2315   -0.0000 Cl  0  0  0  0  0  0  0  0  0  0  0  0
  1  2  1  0  0  0  0
  2  3  2  0  0  0  0
  2  4  1  0  0  0  0
  3  5  1  0  0  0  0
  3  6  1  0  0  0  0
  4  7  2  0  0  0  0
  5  8  2  0  0  0  0
  6  9  1  0  0  0  0
  6 10  1  0  0  0  0
  7 11  1  0  0  0  0
  9 12  1  0  0  0  0
  9 13  1  0  0  0  0
 10 14  1  0  0  0  0
 10 15  2  0  0  0  0
 12 16  2  0  0  0  0
 13 17  2  0  0  0  0
 14 18  1  0  0  0  0
 14 19  2  0  0  0  0
 15 20  1  0  0  0  0
 18 21  2  0  0  0  0
 18 22  1  0  0  0  0
 21 23  1  0  0  0  0
 22 24  2  0  0  0  0
 23 25  2  0  0  0  0
 25 26  1  0  0  0  0
  7  8  1  0  0  0  0
 16 17  1  0  0  0  0
 19 20  1  0  0  0  0
 24 25  1  0  0  0  0
M  END
>  <MolRegNo>
149344

>  <m>
=

>  <Value>
800

>  <Unit>
nM

>  <Type>
IC50

>  <pValue>
6.1

>  <Ligand Efficiency>
0

>  <Binding Efficiency>
0

>  <Surface Efficiency>
0

>  <Assay Index>
1327021

>  <Assay Category>


>  <Assay Organism>
Homo sapiens

>  <Target ID>
17045

>  <Target Name>
Cytochrome P450 3A4

>  <Target Organism>
Homo sapiens

>  <Target Description>
Target is a single protein chain

>  <Sequence Accession>
P08684

>  <Reference>
J Med Chem 62 (3), 1330-1347 (2019)

>  <Pubmed ID>
30615444

>  <DOI>
10.1021/acs.jmedchem.8b01464

$$$$
2419248
Actelion Java MolfileCreator 1.0

 28 30  0  0  0  0  0  0  0  0999 V2000
    0.0000   -0.0000   -0.0000 O   0  0  0  0  0  0  0  0  0  0  0  0
   -0.0237    1.5072   -0.0000 C   0  0  0  0  0  0  0  0  0  0  0  0
   -1.3410    2.2667   -0.0000 N   0  0  0  0  0  0  0  0  0  0  0  0
    1.2580    2.2786   -0.0000 N   0  0  0  0  0  0  0  0  0  0  0  0
   -1.3648    3.7739   -0.0000 C   0  0  0  0  0  0  0  0  0  0  0  0
   -2.6465    1.5309   -0.0000 C   0  0  0  0  0  0  0  0  0  0  0  0
    2.5515    1.5428   -0.0000 C   0  0  0  0  0  0  0  0  0  0  0  0
    1.2342    3.7858   -0.0000 C   0  0  0  0  0  0  0  0  0  0  0  0
   -2.6821    4.5334   -0.0000 C   0  0  0  0  0  0  0  0  0  0  0  0
   -3.9519    2.2786   -0.0000 C   0  0  0  0  0  0  0  0  0  0  0  0
    3.8332    2.3142   -0.0000 C   0  0  0  0  0  0  0  0  0  0  0  0
    2.5515    0.0593   -0.0000 C   0  0  0  0  0  0  0  0  0  0  0  0
   -3.9756    3.7858   -0.0000 C   0  0  0  0  0  0  0  0  0  0  0  0
    5.1149    1.5784   -0.0000 C   0  0  0  0  0  0  0  0  0  0  0  0
    3.8095    3.8095   -0.0000 C   0  0  0  0  0  0  0  0  0  0  0  0
   -5.2929    4.5334   -0.0000 C   0  0  0  0  0  0  0  0  0  0  0  0
    6.3966    2.3379   -0.0000 C   0  0  0  0  0  0  0  0  0  0  0  0
    5.0793    4.5809   -0.0000 C   0  0  0  0  0  0  0  0  0  0  0  0
   -6.5984    3.7858   -0.0000 C   0  0  0  0  0  0  0  0  0  0  0  0
    6.3729    3.8451   -0.0000 C   0  0  0  0  0  0  0  0  0  0  0  0
   -7.9038    3.0381   -0.0000 C   0  0  0  0  0  0  0  0  0  0  0  0
   -9.2092    2.3023   -0.0000 C   0  0  0  0  0  0  0  0  0  0  0  0
   -9.2211    0.8070   -0.0000 N   0  0  0  0  0  0  0  0  0  0  0  0
  -10.5147    3.0618   -0.0000 C   0  0  0  0  0  0  0  0  0  0  0  0
  -10.5384    0.0712   -0.0000 C   0  0  0  0  0  0  0  0  0  0  0  0
  -11.8201    2.3260   -0.0000 C   0  0  0  0  0  0  0  0  0  0  0  0
  -11.8439    0.8307   -0.0000 C   0  0  0  0  0  0  0  0  0  0  0  0
  -10.5503   -1.4122   -0.0000 C   0  0  0  0  0  0  0  0  0  0  0  0
  1  2  2  0  0  0  0
  2  3  1  0  0  0  0
  2  4  1  0  0  0  0
  3  5  1  0  0  0  0
  3  6  1  0  0  0  0
  4  7  1  0  0  0  0
  4  8  1  0  0  0  0
  5  9  1  0  0  0  0
  6 10  1  0  0  0  0
  7 11  1  0  0  0  0
  7 12  1  0  0  0  0
  9 13  1  0  0  0  0
 11 14  2  0  0  0  0
 11 15  1  0  0  0  0
 13 16  2  0  0  0  0
 14 17  1  0  0  0  0
 15 18  2  0  0  0  0
 16 19  1  0  0  0  0
 17 20  2  0  0  0  0
 19 21  3  0  0  0  0
 21 22  1  0  0  0  0
 22 23  2  0  0  0  0
 22 24  1  0  0  0  0
 23 25  1  0  0  0  0
 24 26  2  0  0  0  0
 25 27  2  0  0  0  0
 25 28  1  0  0  0  0
 10 13  1  0  0  0  0
 18 20  1  0  0  0  0
 26 27  1  0  0  0  0
M  END
>  <MolRegNo>
2419248

>  <m>
=

>  <Value>
4000

>  <Unit>
nM

>  <Type>
IC50

>  <pValue>
5.4

>  <Ligand Efficiency>
0

>  <Binding Efficiency>
0

>  <Surface Efficiency>
0

>  <Assay Index>
1327070

>  <Assay Category>


>  <Assay Organism>
Homo sapiens

>  <Target ID>
17045

>  <Target Name>
Cytochrome P450 3A4

>  <Target Organism>
Homo sapiens

>  <Target Description>
Target is a single protein chain

>  <Sequence Accession>
P08684

>  <Reference>
J Med Chem 62 (3), 1246-1273 (2019)

>  <Pubmed ID>
30624919

>  <DOI>
10.1021/acs.jmedchem.8b01226

$$$$
2358670
Actelion Java MolfileCreator 1.0

 24 25  0  0  0  0  0  0  0  0999 V2000
    0.0000   -0.0000   -0.0000 O   0  0  0  0  0  0  0  0  0  0  0  0
   -0.0237    1.5051   -0.0000 C   0  0  0  0  0  0  0  0  0  0  0  0
   -1.3392    2.2636   -0.0000 N   0  0  0  0  0  0  0  0  0  0  0  0
    1.2562    2.2755   -0.0000 N   0  0  0  0  0  0  0  0  0  0  0  0
   -1.3629    3.7687   -0.0000 C   0  0  0  0  0  0  0  0  0  0  0  0
   -2.6429    1.5288   -0.0000 C   0  0  0  0  0  0  0  0  0  0  0  0
    2.5480    1.5407   -0.0000 C   0  0  0  0  0  0  0  0  0  0  0  0
    1.2325    3.7806   -0.0000 C   0  0  0  0  0  0  0  0  0  0  0  0
   -2.6784    4.5272   -0.0000 C   0  0  0  0  0  0  0  0  0  0  0  0
   -3.9465    2.2755   -0.0000 C   0  0  0  0  0  0  0  0  0  0  0  0
    3.8280    2.3110   -0.0000 C   0  0  0  0  0  0  0  0  0  0  0  0
    2.5480    0.0593   -0.0000 C   0  0  0  0  0  0  0  0  0  0  0  0
    2.5125    4.5509   -0.0000 C   0  0  0  0  0  0  0  0  0  0  0  0
   -3.9702    3.7806   -0.0000 C   0  0  0  0  0  0  0  0  0  0  0  0
   -5.2857    4.5272   -0.0000 C   0  0  0  0  0  0  0  0  0  0  0  0
   -6.5894    3.7806   -0.0000 C   0  0  0  0  0  0  0  0  0  0  0  0
   -7.8930    3.0339   -0.0000 C   0  0  0  0  0  0  0  0  0  0  0  0
   -9.1966    2.2992   -0.0000 C   0  0  0  0  0  0  0  0  0  0  0  0
   -9.2085    0.8059   -0.0000 N   0  0  0  0  0  0  0  0  0  0  0  0
  -10.5003    3.0576   -0.0000 C   0  0  0  0  0  0  0  0  0  0  0  0
  -10.5240    0.0711   -0.0000 C   0  0  0  0  0  0  0  0  0  0  0  0
  -11.8039    2.3229   -0.0000 C   0  0  0  0  0  0  0  0  0  0  0  0
  -11.8277    0.8296   -0.0000 C   0  0  0  0  0  0  0  0  0  0  0  0
  -10.5359   -1.4103   -0.0000 C   0  0  0  0  0  0  0  0  0  0  0  0
  1  2  2  0  0  0  0
  2  3  1  0  0  0  0
  2  4  1  0  0  0  0
  3  5  1  0  0  0  0
  3  6  1  0  0  0  0
  4  7  1  0  0  0  0
  4  8  1  0  0  0  0
  5  9  1  0  0  0  0
  6 10  1  0  0  0  0
  7 11  1  0  0  0  0
  7 12  1  0  0  0  0
  8 13  1  0  0  0  0
  9 14  1  0  0  0  0
 14 15  2  0  0  0  0
 15 16  1  0  0  0  0
 16 17  3  0  0  0  0
 17 18  1  0  0  0  0
 18 19  2  0  0  0  0
 18 20  1  0  0  0  0
 19 21  1  0  0  0  0
 20 22  2  0  0  0  0
 21 23  2  0  0  0  0
 21 24  1  0  0  0  0
 10 14  1  0  0  0  0
 22 23  1  0  0  0  0
M  END
>  <MolRegNo>
2358670

>  <m>
=

>  <Value>
15400

>  <Unit>
nM

>  <Type>
IC50

>  <pValue>
4.81

>  <Ligand Efficiency>
0

>  <Binding Efficiency>
0

>  <Surface Efficiency>
0

>  <Assay Index>
1327070

>  <Assay Category>


>  <Assay Organism>
Homo sapiens

>  <Target ID>
17045

>  <Target Name>
Cytochrome P450 3A4

>  <Target Organism>
Homo sapiens

>  <Target Description>
Target is a single protein chain

>  <Sequence Accession>
P08684

>  <Reference>
J Med Chem 62 (3), 1246-1273 (2019)

>  <Pubmed ID>
30624919

>  <DOI>
10.1021/acs.jmedchem.8b01226

$$$$
2439285
Actelion Java MolfileCreator 1.0

 26 28  0  0  0  0  0  0  0  0999 V2000
    0.0000   -0.0000   -0.0000 O   0  0  0  0  0  0  0  0  0  0  0  0
   -0.0237    1.5077   -0.0000 C   0  0  0  0  0  0  0  0  0  0  0  0
   -1.3415    2.2674   -0.0000 N   0  0  0  0  0  0  0  0  0  0  0  0
    1.2584    2.2793   -0.0000 C   0  0  0  0  0  0  0  0  0  0  0  0
   -1.3652    3.7751   -0.0000 C   0  0  0  0  0  0  0  0  0  0  0  0
   -2.6473    1.5314   -0.0000 C   0  0  0  0  0  0  0  0  0  0  0  0
    2.5405    1.5433   -0.0000 C   0  0  0  0  0  0  0  0  0  0  0  0
    1.2346    3.7751   -0.0000 C   0  0  0  0  0  0  0  0  0  0  0  0
   -2.6829    4.5349   -0.0000 C   0  0  0  0  0  0  0  0  0  0  0  0
   -3.9532    2.2793   -0.0000 C   0  0  0  0  0  0  0  0  0  0  0  0
    2.5286    0.0594   -0.0000 O   0  0  0  0  0  0  0  0  0  0  0  0
    3.8226    2.3031   -0.0000 C   0  0  0  0  0  0  0  0  0  0  0  0
    2.5049    4.5468   -0.0000 C   0  0  0  0  0  0  0  0  0  0  0  0
   -3.9769    3.7870   -0.0000 C   0  0  0  0  0  0  0  0  0  0  0  0
    3.8107   -0.6767   -0.0000 C   0  0  0  0  0  0  0  0  0  0  0  0
    3.7989    3.8107   -0.0000 C   0  0  0  0  0  0  0  0  0  0  0  0
   -5.2947    4.5349   -0.0000 C   0  0  0  0  0  0  0  0  0  0  0  0
   -6.6005    3.7870   -0.0000 C   0  0  0  0  0  0  0  0  0  0  0  0
   -7.9064    3.0391   -0.0000 C   0  0  0  0  0  0  0  0  0  0  0  0
   -9.2122    2.3031   -0.0000 C   0  0  0  0  0  0  0  0  0  0  0  0
   -9.2241    0.8073   -0.0000 N   0  0  0  0  0  0  0  0  0  0  0  0
  -10.5181    3.0628   -0.0000 C   0  0  0  0  0  0  0  0  0  0  0  0
  -10.5418    0.0712   -0.0000 C   0  0  0  0  0  0  0  0  0  0  0  0
  -11.8239    2.3268   -0.0000 C   0  0  0  0  0  0  0  0  0  0  0  0
  -11.8477    0.8310   -0.0000 C   0  0  0  0  0  0  0  0  0  0  0  0
  -10.5537   -1.4127   -0.0000 C   0  0  0  0  0  0  0  0  0  0  0  0
  1  2  2  0  0  0  0
  2  3  1  0  0  0  0
  2  4  1  0  0  0  0
  3  5  1  0  0  0  0
  3  6  1  0  0  0  0
  4  7  2  0  0  0  0
  4  8  1  0  0  0  0
  5  9  1  0  0  0  0
  6 10  1  0  0  0  0
  7 11  1  0  0  0  0
  7 12  1  0  0  0  0
  8 13  2  0  0  0  0
  9 14  1  0  0  0  0
 11 15  1  0  0  0  0
 12 16  2  0  0  0  0
 14 17  2  0  0  0  0
 17 18  1  0  0  0  0
 18 19  3  0  0  0  0
 19 20  1  0  0  0  0
 20 21  2  0  0  0  0
 20 22  1  0  0  0  0
 21 23  1  0  0  0  0
 22 24  2  0  0  0  0
 23 25  2  0  0  0  0
 23 26  1  0  0  0  0
 10 14  1  0  0  0  0
 13 16  1  0  0  0  0
 24 25  1  0  0  0  0
M  END
>  <MolRegNo>
2439285

>  <m>
=

>  <Value>
13800

>  <Unit>
nM

>  <Type>
IC50

>  <pValue>
4.86

>  <Ligand Efficiency>
0

>  <Binding Efficiency>
0

>  <Surface Efficiency>
0

>  <Assay Index>
1327070

>  <Assay Category>


>  <Assay Organism>
Homo sapiens

>  <Target ID>
17045

>  <Target Name>
Cytochrome P450 3A4

>  <Target Organism>
Homo sapiens

>  <Target Description>
Target is a single protein chain

>  <Sequence Accession>
P08684

>  <Reference>
J Med Chem 62 (3), 1246-1273 (2019)

>  <Pubmed ID>
30624919

>  <DOI>
10.1021/acs.jmedchem.8b01226

$$$$
2438351
Actelion Java MolfileCreator 1.0

 26 28  0  0  0  0  0  0  0  0999 V2000
    0.0000   -0.0000   -0.0000 O   0  0  0  0  0  0  0  0  0  0  0  0
   -0.0237    1.5072   -0.0000 C   0  0  0  0  0  0  0  0  0  0  0  0
   -1.3411    2.2668   -0.0000 N   0  0  0  0  0  0  0  0  0  0  0  0
    1.2580    2.2786   -0.0000 C   0  0  0  0  0  0  0  0  0  0  0  0
   -1.3648    3.7740   -0.0000 C   0  0  0  0  0  0  0  0  0  0  0  0
   -2.6465    1.5310   -0.0000 C   0  0  0  0  0  0  0  0  0  0  0  0
    2.5397    1.5428   -0.0000 C   0  0  0  0  0  0  0  0  0  0  0  0
    1.2343    3.7740   -0.0000 C   0  0  0  0  0  0  0  0  0  0  0  0
   -2.6821    4.5335   -0.0000 C   0  0  0  0  0  0  0  0  0  0  0  0
   -3.9520    2.2786   -0.0000 C   0  0  0  0  0  0  0  0  0  0  0  0
    3.8215    2.3024   -0.0000 C   0  0  0  0  0  0  0  0  0  0  0  0
    2.5041    4.5454   -0.0000 C   0  0  0  0  0  0  0  0  0  0  0  0
   -3.9757    3.7859   -0.0000 C   0  0  0  0  0  0  0  0  0  0  0  0
    5.1032    1.5666   -0.0000 O   0  0  0  0  0  0  0  0  0  0  0  0
    3.7977    3.8096   -0.0000 C   0  0  0  0  0  0  0  0  0  0  0  0
   -5.2931    4.5335   -0.0000 C   0  0  0  0  0  0  0  0  0  0  0  0
    6.3849    2.3380   -0.0000 C   0  0  0  0  0  0  0  0  0  0  0  0
   -6.5986    3.7859   -0.0000 C   0  0  0  0  0  0  0  0  0  0  0  0
   -7.9040    3.0382   -0.0000 C   0  0  0  0  0  0  0  0  0  0  0  0
   -9.2095    2.3024   -0.0000 C   0  0  0  0  0  0  0  0  0  0  0  0
   -9.2214    0.8070   -0.0000 N   0  0  0  0  0  0  0  0  0  0  0  0
  -10.5150    3.0619   -0.0000 C   0  0  0  0  0  0  0  0  0  0  0  0
  -10.5387    0.0712   -0.0000 C   0  0  0  0  0  0  0  0  0  0  0  0
  -11.8204    2.3261   -0.0000 C   0  0  0  0  0  0  0  0  0  0  0  0
  -11.8442    0.8308   -0.0000 C   0  0  0  0  0  0  0  0  0  0  0  0
  -10.5506   -1.4123   -0.0000 C   0  0  0  0  0  0  0  0  0  0  0  0
  1  2  2  0  0  0  0
  2  3  1  0  0  0  0
  2  4  1  0  0  0  0
  3  5  1  0  0  0  0
  3  6  1  0  0  0  0
  4  7  2  0  0  0  0
  4  8  1  0  0  0  0
  5  9  1  0  0  0  0
  6 10  1  0  0  0  0
  7 11  1  0  0  0  0
  8 12  2  0  0  0  0
  9 13  1  0  0  0  0
 11 14  1  0  0  0  0
 11 15  2  0  0  0  0
 13 16  2  0  0  0  0
 14 17  1  0  0  0  0
 16 18  1  0  0  0  0
 18 19  3  0  0  0  0
 19 20  1  0  0  0  0
 20 21  2  0  0  0  0
 20 22  1  0  0  0  0
 21 23  1  0  0  0  0
 22 24  2  0  0  0  0
 23 25  2  0  0  0  0
 23 26  1  0  0  0  0
 10 13  1  0  0  0  0
 12 15  1  0  0  0  0
 24 25  1  0  0  0  0
M  END
>  <MolRegNo>
2438351

>  <m>
=

>  <Value>
4600

>  <Unit>
nM

>  <Type>
IC50

>  <pValue>
5.34

>  <Ligand Efficiency>
0

>  <Binding Efficiency>
0

>  <Surface Efficiency>
0

>  <Assay Index>
1327070

>  <Assay Category>


>  <Assay Organism>
Homo sapiens

>  <Target ID>
17045

>  <Target Name>
Cytochrome P450 3A4

>  <Target Organism>
Homo sapiens

>  <Target Description>
Target is a single protein chain

>  <Sequence Accession>
P08684

>  <Reference>
J Med Chem 62 (3), 1246-1273 (2019)

>  <Pubmed ID>
30624919

>  <DOI>
10.1021/acs.jmedchem.8b01226

$$$$
2367582
Actelion Java MolfileCreator 1.0

 25 27  0  0  0  0  0  0  0  0999 V2000
    0.0000   -0.0000   -0.0000 O   0  0  0  0  0  0  0  0  0  0  0  0
   -0.0237    1.5067   -0.0000 C   0  0  0  0  0  0  0  0  0  0  0  0
   -1.3406    2.2660   -0.0000 N   0  0  0  0  0  0  0  0  0  0  0  0
    1.2576    2.2778   -0.0000 C   0  0  0  0  0  0  0  0  0  0  0  0
   -1.3643    3.7727   -0.0000 C   0  0  0  0  0  0  0  0  0  0  0  0
   -2.6456    1.5304   -0.0000 C   0  0  0  0  0  0  0  0  0  0  0  0
    2.5388    1.5423   -0.0000 C   0  0  0  0  0  0  0  0  0  0  0  0
    1.2338    3.7727   -0.0000 C   0  0  0  0  0  0  0  0  0  0  0  0
   -2.6812    4.5319   -0.0000 C   0  0  0  0  0  0  0  0  0  0  0  0
   -3.9506    2.2778   -0.0000 C   0  0  0  0  0  0  0  0  0  0  0  0
    3.8201    2.3016   -0.0000 C   0  0  0  0  0  0  0  0  0  0  0  0
    2.5032    4.5438   -0.0000 C   0  0  0  0  0  0  0  0  0  0  0  0
   -3.9743    3.7845   -0.0000 C   0  0  0  0  0  0  0  0  0  0  0  0
    3.7964    3.8082   -0.0000 C   0  0  0  0  0  0  0  0  0  0  0  0
    5.1133    1.5660   -0.0000 C   0  0  0  0  0  0  0  0  0  0  0  0
   -5.2912    4.5319   -0.0000 C   0  0  0  0  0  0  0  0  0  0  0  0
   -6.5962    3.7845   -0.0000 C   0  0  0  0  0  0  0  0  0  0  0  0
   -7.9012    3.0371   -0.0000 C   0  0  0  0  0  0  0  0  0  0  0  0
   -9.2062    2.3016   -0.0000 C   0  0  0  0  0  0  0  0  0  0  0  0
   -9.2181    0.8067   -0.0000 N   0  0  0  0  0  0  0  0  0  0  0  0
  -10.5112    3.0608   -0.0000 C   0  0  0  0  0  0  0  0  0  0  0  0
  -10.5350    0.0712   -0.0000 C   0  0  0  0  0  0  0  0  0  0  0  0
  -11.8162    2.3253   -0.0000 C   0  0  0  0  0  0  0  0  0  0  0  0
  -11.8400    0.8305   -0.0000 C   0  0  0  0  0  0  0  0  0  0  0  0
  -10.5468   -1.4118   -0.0000 C   0  0  0  0  0  0  0  0  0  0  0  0
  1  2  2  0  0  0  0
  2  3  1  0  0  0  0
  2  4  1  0  0  0  0
  3  5  1  0  0  0  0
  3  6  1  0  0  0  0
  4  7  2  0  0  0  0
  4  8  1  0  0  0  0
  5  9  1  0  0  0  0
  6 10  1  0  0  0  0
  7 11  1  0  0  0  0
  8 12  2  0  0  0  0
  9 13  1  0  0  0  0
 11 14  2  0  0  0  0
 11 15  1  0  0  0  0
 13 16  2  0  0  0  0
 16 17  1  0  0  0  0
 17 18  3  0  0  0  0
 18 19  1  0  0  0  0
 19 20  2  0  0  0  0
 19 21  1  0  0  0  0
 20 22  1  0  0  0  0
 21 23  2  0  0  0  0
 22 24  2  0  0  0  0
 22 25  1  0  0  0  0
 10 13  1  0  0  0  0
 12 14  1  0  0  0  0
 23 24  1  0  0  0  0
M  END
>  <MolRegNo>
2367582

>  <m>
=

>  <Value>
6100

>  <Unit>
nM

>  <Type>
IC50

>  <pValue>
5.21

>  <Ligand Efficiency>
0

>  <Binding Efficiency>
0

>  <Surface Efficiency>
0

>  <Assay Index>
1327070

>  <Assay Category>


>  <Assay Organism>
Homo sapiens

>  <Target ID>
17045

>  <Target Name>
Cytochrome P450 3A4

>  <Target Organism>
Homo sapiens

>  <Target Description>
Target is a single protein chain

>  <Sequence Accession>
P08684

>  <Reference>
J Med Chem 62 (3), 1246-1273 (2019)

>  <Pubmed ID>
30624919

>  <DOI>
10.1021/acs.jmedchem.8b01226

$$$$
2362852
Actelion Java MolfileCreator 1.0

 25 27  0  0  0  0  0  0  0  0999 V2000
    0.0000   -0.0000   -0.0000 Cl  0  0  0  0  0  0  0  0  0  0  0  0
   -0.0119    1.5130   -0.0000 C   0  0  0  0  0  0  0  0  0  0  0  0
    1.2867    2.2755   -0.0000 N   0  0  0  0  0  0  0  0  0  0  0  0
   -1.3224    2.2755   -0.0000 C   0  0  0  0  0  0  0  0  0  0  0  0
    1.2748    3.8004   -0.0000 C   0  0  0  0  0  0  0  0  0  0  0  0
   -1.3343    3.8004   -0.0000 C   0  0  0  0  0  0  0  0  0  0  0  0
    2.5614    4.5629   -0.0000 C   0  0  0  0  0  0  0  0  0  0  0  0
   -0.0357    4.5629   -0.0000 C   0  0  0  0  0  0  0  0  0  0  0  0
    3.8481    5.3373   -0.0000 C   0  0  0  0  0  0  0  0  0  0  0  0
    5.1348    6.1117   -0.0000 C   0  0  0  0  0  0  0  0  0  0  0  0
    6.4334    5.3850   -0.0000 C   0  0  0  0  0  0  0  0  0  0  0  0
    7.7081    6.1593   -0.0000 C   0  0  0  0  0  0  0  0  0  0  0  0
    6.4214    3.8958   -0.0000 C   0  0  0  0  0  0  0  0  0  0  0  0
    9.0067    5.4207   -0.0000 C   0  0  0  0  0  0  0  0  0  0  0  0
    7.7081    3.1690   -0.0000 C   0  0  0  0  0  0  0  0  0  0  0  0
    9.0067    3.9315   -0.0000 N   0  0  0  0  0  0  0  0  0  0  0  0
   10.3053    3.1928   -0.0000 C   0  0  0  0  0  0  0  0  0  0  0  0
   10.3053    1.7036   -0.0000 O   0  0  0  0  0  0  0  0  0  0  0  0
   11.5919    3.9672   -0.0000 C   0  0  0  0  0  0  0  0  0  0  0  0
   12.8786    3.2286   -0.0000 C   0  0  0  0  0  0  0  0  0  0  0  0
   11.5681    5.4683   -0.0000 C   0  0  0  0  0  0  0  0  0  0  0  0
   14.1653    3.9911   -0.0000 C   0  0  0  0  0  0  0  0  0  0  0  0
   12.8429    6.2427   -0.0000 C   0  0  0  0  0  0  0  0  0  0  0  0
   15.4639    3.2524   -0.0000 Cl  0  0  0  0  0  0  0  0  0  0  0  0
   14.1415    5.5041   -0.0000 C   0  0  0  0  0  0  0  0  0  0  0  0
  1  2  1  0  0  0  0
  2  3  2  0  0  0  0
  2  4  1  0  0  0  0
  3  5  1  0  0  0  0
  4  6  2  0  0  0  0
  5  7  1  0  0  0  0
  5  8  2  0  0  0  0
  7  9  3  0  0  0  0
  9 10  1  0  0  0  0
 10 11  2  0  0  0  0
 11 12  1  0  0  0  0
 11 13  1  0  0  0  0
 12 14  1  0  0  0  0
 13 15  1  0  0  0  0
 14 16  1  0  0  0  0
 16 17  1  0  0  0  0
 17 18  2  0  0  0  0
 17 19  1  0  0  0  0
 19 20  2  0  0  0  0
 19 21  1  0  0  0  0
 20 22  1  0  0  0  0
 21 23  2  0  0  0  0
 22 24  1  0  0  0  0
 22 25  2  0  0  0  0
  6  8  1  0  0  0  0
 15 16  1  0  0  0  0
 23 25  1  0  0  0  0
M  END
>  <MolRegNo>
2362852

>  <m>
=

>  <Value>
2300

>  <Unit>
nM

>  <Type>
IC50

>  <pValue>
5.64

>  <Ligand Efficiency>
0

>  <Binding Efficiency>
0

>  <Surface Efficiency>
0

>  <Assay Index>
1327070

>  <Assay Category>


>  <Assay Organism>
Homo sapiens

>  <Target ID>
17045

>  <Target Name>
Cytochrome P450 3A4

>  <Target Organism>
Homo sapiens

>  <Target Description>
Target is a single protein chain

>  <Sequence Accession>
P08684

>  <Reference>
J Med Chem 62 (3), 1246-1273 (2019)

>  <Pubmed ID>
30624919

>  <DOI>
10.1021/acs.jmedchem.8b01226

$$$$
2355797
Actelion Java MolfileCreator 1.0

 24 26  0  0  0  0  0  0  0  0999 V2000
    0.0000   -0.0000   -0.0000 Cl  0  0  0  0  0  0  0  0  0  0  0  0
   -1.4921   -0.1658   -0.0000 C   0  0  0  0  0  0  0  0  0  0  0  0
   -2.3921    1.0421   -0.0000 C   0  0  0  0  0  0  0  0  0  0  0  0
   -2.0961   -1.5276   -0.0000 C   0  0  0  0  0  0  0  0  0  0  0  0
   -3.8842    0.8763   -0.0000 C   0  0  0  0  0  0  0  0  0  0  0  0
   -3.5882   -1.6816   -0.0000 C   0  0  0  0  0  0  0  0  0  0  0  0
   -4.7842    2.0842   -0.0000 C   0  0  0  0  0  0  0  0  0  0  0  0
   -4.5000   -0.4737   -0.0000 C   0  0  0  0  0  0  0  0  0  0  0  0
   -4.2040    3.4698   -0.0000 O   0  0  0  0  0  0  0  0  0  0  0  0
   -6.2764    1.9303   -0.0000 N   0  0  0  0  0  0  0  0  0  0  0  0
   -7.2948    3.0434   -0.0000 C   0  0  0  0  0  0  0  0  0  0  0  0
   -7.0224    0.6395   -0.0000 C   0  0  0  0  0  0  0  0  0  0  0  0
   -8.6685    2.4276   -0.0000 C   0  0  0  0  0  0  0  0  0  0  0  0
   -8.5027    0.9474   -0.0000 C   0  0  0  0  0  0  0  0  0  0  0  0
   -9.9830    3.1737   -0.0000 C   0  0  0  0  0  0  0  0  0  0  0  0
  -11.2856    2.4276   -0.0000 C   0  0  0  0  0  0  0  0  0  0  0  0
  -12.5882    1.6816   -0.0000 C   0  0  0  0  0  0  0  0  0  0  0  0
  -13.8909    0.9474   -0.0000 C   0  0  0  0  0  0  0  0  0  0  0  0
  -13.9027   -0.5447   -0.0000 N   0  0  0  0  0  0  0  0  0  0  0  0
  -15.1935    1.7053   -0.0000 C   0  0  0  0  0  0  0  0  0  0  0  0
  -15.2172   -1.2790   -0.0000 C   0  0  0  0  0  0  0  0  0  0  0  0
  -16.4962    0.9711   -0.0000 C   0  0  0  0  0  0  0  0  0  0  0  0
  -16.5199   -0.5211   -0.0000 C   0  0  0  0  0  0  0  0  0  0  0  0
  -15.2291   -2.7592   -0.0000 C   0  0  0  0  0  0  0  0  0  0  0  0
  1  2  1  0  0  0  0
  2  3  2  0  0  0  0
  2  4  1  0  0  0  0
  3  5  1  0  0  0  0
  4  6  2  0  0  0  0
  5  7  1  0  0  0  0
  5  8  2  0  0  0  0
  7  9  2  0  0  0  0
  7 10  1  0  0  0  0
 10 11  1  0  0  0  0
 10 12  1  0  0  0  0
 11 13  1  0  0  0  0
 12 14  1  0  0  0  0
 13 15  2  0  0  0  0
 15 16  1  0  0  0  0
 16 17  3  0  0  0  0
 17 18  1  0  0  0  0
 18 19  2  0  0  0  0
 18 20  1  0  0  0  0
 19 21  1  0  0  0  0
 20 22  2  0  0  0  0
 21 23  2  0  0  0  0
 21 24  1  0  0  0  0
  6  8  1  0  0  0  0
 13 14  1  0  0  0  0
 22 23  1  0  0  0  0
M  END
>  <MolRegNo>
2355797

>  <m>
=

>  <Value>
12900

>  <Unit>
nM

>  <Type>
IC50

>  <pValue>
4.89

>  <Ligand Efficiency>
0

>  <Binding Efficiency>
0

>  <Surface Efficiency>
0

>  <Assay Index>
1327070

>  <Assay Category>


>  <Assay Organism>
Homo sapiens

>  <Target ID>
17045

>  <Target Name>
Cytochrome P450 3A4

>  <Target Organism>
Homo sapiens

>  <Target Description>
Target is a single protein chain

>  <Sequence Accession>
P08684

>  <Reference>
J Med Chem 62 (3), 1246-1273 (2019)

>  <Pubmed ID>
30624919

>  <DOI>
10.1021/acs.jmedchem.8b01226

$$$$
2360692
Actelion Java MolfileCreator 1.0

 21 22  0  0  0  0  0  0  0  0999 V2000
    0.0000   -0.0000   -0.0000 S   0  0  0  0  0  0  0  0  0  0  0  0
    0.7235    1.3165   -0.0000 O   0  0  0  0  0  0  0  0  0  0  0  0
    1.4826    0.0237   -0.0000 O   0  0  0  0  0  0  0  0  0  0  0  0
   -1.3047    0.7472   -0.0000 N   0  0  0  0  0  0  0  0  0  0  0  0
    0.0000   -1.4826   -0.0000 C   0  0  0  0  0  0  0  0  0  0  0  0
   -1.3284    2.2535   -0.0000 C   0  0  0  0  0  0  0  0  0  0  0  0
   -2.6093    0.0119   -0.0000 C   0  0  0  0  0  0  0  0  0  0  0  0
    1.2928   -2.2179   -0.0000 C   0  0  0  0  0  0  0  0  0  0  0  0
   -2.6449    3.0126   -0.0000 C   0  0  0  0  0  0  0  0  0  0  0  0
   -3.9140    0.7591   -0.0000 C   0  0  0  0  0  0  0  0  0  0  0  0
   -3.9377    2.2654   -0.0000 C   0  0  0  0  0  0  0  0  0  0  0  0
   -5.2543    3.0126   -0.0000 C   0  0  0  0  0  0  0  0  0  0  0  0
   -6.5589    2.2654   -0.0000 C   0  0  0  0  0  0  0  0  0  0  0  0
   -7.8636    1.5182   -0.0000 C   0  0  0  0  0  0  0  0  0  0  0  0
   -9.1683    0.7828   -0.0000 C   0  0  0  0  0  0  0  0  0  0  0  0
   -9.1801   -0.7116   -0.0000 N   0  0  0  0  0  0  0  0  0  0  0  0
  -10.4729    1.5419   -0.0000 C   0  0  0  0  0  0  0  0  0  0  0  0
  -10.4966   -1.4470   -0.0000 C   0  0  0  0  0  0  0  0  0  0  0  0
  -11.7776    0.8065   -0.0000 C   0  0  0  0  0  0  0  0  0  0  0  0
  -11.8013   -0.6879   -0.0000 C   0  0  0  0  0  0  0  0  0  0  0  0
  -10.5085   -2.9296   -0.0000 C   0  0  0  0  0  0  0  0  0  0  0  0
  1  2  2  0  0  0  0
  1  3  2  0  0  0  0
  1  4  1  0  0  0  0
  1  5  1  0  0  0  0
  4  6  1  0  0  0  0
  4  7  1  0  0  0  0
  5  8  1  0  0  0  0
  6  9  1  0  0  0  0
  7 10  1  0  0  0  0
  9 11  1  0  0  0  0
 11 12  2  0  0  0  0
 12 13  1  0  0  0  0
 13 14  3  0  0  0  0
 14 15  1  0  0  0  0
 15 16  2  0  0  0  0
 15 17  1  0  0  0  0
 16 18  1  0  0  0  0
 17 19  2  0  0  0  0
 18 20  2  0  0  0  0
 18 21  1  0  0  0  0
 10 11  1  0  0  0  0
 19 20  1  0  0  0  0
M  END
>  <MolRegNo>
2360692

>  <m>
=

>  <Value>
17200

>  <Unit>
nM

>  <Type>
IC50

>  <pValue>
4.76

>  <Ligand Efficiency>
0

>  <Binding Efficiency>
0

>  <Surface Efficiency>
0

>  <Assay Index>
1327070

>  <Assay Category>


>  <Assay Organism>
Homo sapiens

>  <Target ID>
17045

>  <Target Name>
Cytochrome P450 3A4

>  <Target Organism>
Homo sapiens

>  <Target Description>
Target is a single protein chain

>  <Sequence Accession>
P08684

>  <Reference>
J Med Chem 62 (3), 1246-1273 (2019)

>  <Pubmed ID>
30624919

>  <DOI>
10.1021/acs.jmedchem.8b01226

$$$$
2392279
Actelion Java MolfileCreator 1.0

 26 28  0  0  0  0  0  0  0  0999 V2000
    0.0000   -0.0000   -0.0000 Br  0  0  0  0  0  0  0  0  0  0  0  0
   -1.3135    0.7455   -0.0000 C   0  0  0  0  0  0  0  0  0  0  0  0
   -1.3371    2.2483   -0.0000 C   0  0  0  0  0  0  0  0  0  0  0  0
   -2.6151   -0.0118   -0.0000 C   0  0  0  0  0  0  0  0  0  0  0  0
   -2.6506    2.9819   -0.0000 C   0  0  0  0  0  0  0  0  0  0  0  0
   -3.9286    0.7455   -0.0000 C   0  0  0  0  0  0  0  0  0  0  0  0
   -2.6743    4.4847   -0.0000 S   0  0  0  0  0  0  0  0  0  0  0  0
   -3.9522    2.2483   -0.0000 C   0  0  0  0  0  0  0  0  0  0  0  0
   -1.9524    5.7982   -0.0000 O   0  0  0  0  0  0  0  0  0  0  0  0
   -1.1951    4.5084   -0.0000 O   0  0  0  0  0  0  0  0  0  0  0  0
   -3.9759    5.2302   -0.0000 N   0  0  0  0  0  0  0  0  0  0  0  0
   -3.9995    6.7330   -0.0000 C   0  0  0  0  0  0  0  0  0  0  0  0
   -5.2775    4.4965   -0.0000 C   0  0  0  0  0  0  0  0  0  0  0  0
   -5.3130    7.4903   -0.0000 C   0  0  0  0  0  0  0  0  0  0  0  0
   -6.5791    5.2420   -0.0000 C   0  0  0  0  0  0  0  0  0  0  0  0
   -6.6028    6.7448   -0.0000 C   0  0  0  0  0  0  0  0  0  0  0  0
   -7.9163    7.4903   -0.0000 C   0  0  0  0  0  0  0  0  0  0  0  0
   -9.2179    6.7448   -0.0000 C   0  0  0  0  0  0  0  0  0  0  0  0
  -10.5195    5.9993   -0.0000 C   0  0  0  0  0  0  0  0  0  0  0  0
  -11.8211    5.2657   -0.0000 C   0  0  0  0  0  0  0  0  0  0  0  0
  -11.8330    3.7747   -0.0000 N   0  0  0  0  0  0  0  0  0  0  0  0
  -13.1228    6.0230   -0.0000 C   0  0  0  0  0  0  0  0  0  0  0  0
  -13.1464    3.0411   -0.0000 C   0  0  0  0  0  0  0  0  0  0  0  0
  -14.4244    5.2893   -0.0000 C   0  0  0  0  0  0  0  0  0  0  0  0
  -14.4481    3.7984   -0.0000 C   0  0  0  0  0  0  0  0  0  0  0  0
  -13.1583    1.5620   -0.0000 C   0  0  0  0  0  0  0  0  0  0  0  0
  1  2  1  0  0  0  0
  2  3  2  0  0  0  0
  2  4  1  0  0  0  0
  3  5  1  0  0  0  0
  4  6  2  0  0  0  0
  5  7  1  0  0  0  0
  5  8  2  0  0  0  0
  7  9  2  0  0  0  0
  7 10  2  0  0  0  0
  7 11  1  0  0  0  0
 11 12  1  0  0  0  0
 11 13  1  0  0  0  0
 12 14  1  0  0  0  0
 13 15  1  0  0  0  0
 14 16  1  0  0  0  0
 16 17  2  0  0  0  0
 17 18  1  0  0  0  0
 18 19  3  0  0  0  0
 19 20  1  0  0  0  0
 20 21  2  0  0  0  0
 20 22  1  0  0  0  0
 21 23  1  0  0  0  0
 22 24  2  0  0  0  0
 23 25  2  0  0  0  0
 23 26  1  0  0  0  0
  6  8  1  0  0  0  0
 15 16  1  0  0  0  0
 24 25  1  0  0  0  0
M  END
>  <MolRegNo>
2392279

>  <m>
=

>  <Value>
3300

>  <Unit>
nM

>  <Type>
IC50

>  <pValue>
5.48

>  <Ligand Efficiency>
0

>  <Binding Efficiency>
0

>  <Surface Efficiency>
0

>  <Assay Index>
1327070

>  <Assay Category>


>  <Assay Organism>
Homo sapiens

>  <Target ID>
17045

>  <Target Name>
Cytochrome P450 3A4

>  <Target Organism>
Homo sapiens

>  <Target Description>
Target is a single protein chain

>  <Sequence Accession>
P08684

>  <Reference>
J Med Chem 62 (3), 1246-1273 (2019)

>  <Pubmed ID>
30624919

>  <DOI>
10.1021/acs.jmedchem.8b01226

$$$$
2359531
Actelion Java MolfileCreator 1.0

 26 28  0  0  0  0  0  0  0  0999 V2000
    0.0000   -0.0000   -0.0000 S   0  0  0  0  0  0  0  0  0  0  0  0
    0.7247    1.3187   -0.0000 O   0  0  0  0  0  0  0  0  0  0  0  0
    1.4850    0.0238   -0.0000 O   0  0  0  0  0  0  0  0  0  0  0  0
   -1.3068    0.7485   -0.0000 N   0  0  0  0  0  0  0  0  0  0  0  0
    0.0000   -1.4850   -0.0000 C   0  0  0  0  0  0  0  0  0  0  0  0
   -1.3306    2.2573   -0.0000 C   0  0  0  0  0  0  0  0  0  0  0  0
   -2.6137    0.0119   -0.0000 C   0  0  0  0  0  0  0  0  0  0  0  0
   -1.3068   -2.2216   -0.0000 C   0  0  0  0  0  0  0  0  0  0  0  0
    1.2949   -2.1979   -0.0000 C   0  0  0  0  0  0  0  0  0  0  0  0
   -2.6493    3.0176   -0.0000 C   0  0  0  0  0  0  0  0  0  0  0  0
   -3.9205    0.7603   -0.0000 C   0  0  0  0  0  0  0  0  0  0  0  0
   -1.3068   -3.7066   -0.0000 C   0  0  0  0  0  0  0  0  0  0  0  0
    1.2949   -3.6829   -0.0000 C   0  0  0  0  0  0  0  0  0  0  0  0
   -3.9442    2.2691   -0.0000 C   0  0  0  0  0  0  0  0  0  0  0  0
   -0.0119   -4.4432   -0.0000 C   0  0  0  0  0  0  0  0  0  0  0  0
   -5.2630    3.0176   -0.0000 C   0  0  0  0  0  0  0  0  0  0  0  0
   -0.0119   -5.9283   -0.0000 C   0  0  0  0  0  0  0  0  0  0  0  0
   -6.5698    2.2691   -0.0000 C   0  0  0  0  0  0  0  0  0  0  0  0
   -7.8766    1.5207   -0.0000 C   0  0  0  0  0  0  0  0  0  0  0  0
   -9.1834    0.7841   -0.0000 C   0  0  0  0  0  0  0  0  0  0  0  0
   -9.1953   -0.7128   -0.0000 N   0  0  0  0  0  0  0  0  0  0  0  0
  -10.4903    1.5444   -0.0000 C   0  0  0  0  0  0  0  0  0  0  0  0
  -10.5140   -1.4494   -0.0000 C   0  0  0  0  0  0  0  0  0  0  0  0
  -11.7971    0.8079   -0.0000 C   0  0  0  0  0  0  0  0  0  0  0  0
  -11.8209   -0.6891   -0.0000 C   0  0  0  0  0  0  0  0  0  0  0  0
  -10.5259   -2.9344   -0.0000 C   0  0  0  0  0  0  0  0  0  0  0  0
  1  2  2  0  0  0  0
  1  3  2  0  0  0  0
  1  4  1  0  0  0  0
  1  5  1  0  0  0  0
  4  6  1  0  0  0  0
  4  7  1  0  0  0  0
  5  8  2  0  0  0  0
  5  9  1  0  0  0  0
  6 10  1  0  0  0  0
  7 11  1  0  0  0  0
  8 12  1  0  0  0  0
  9 13  2  0  0  0  0
 10 14  1  0  0  0  0
 12 15  2  0  0  0  0
 14 16  2  0  0  0  0
 15 17  1  0  0  0  0
 16 18  1  0  0  0  0
 18 19  3  0  0  0  0
 19 20  1  0  0  0  0
 20 21  2  0  0  0  0
 20 22  1  0  0  0  0
 21 23  1  0  0  0  0
 22 24  2  0  0  0  0
 23 25  2  0  0  0  0
 23 26  1  0  0  0  0
 11 14  1  0  0  0  0
 13 15  1  0  0  0  0
 24 25  1  0  0  0  0
M  END
>  <MolRegNo>
2359531

>  <m>
=

>  <Value>
1900

>  <Unit>
nM

>  <Type>
IC50

>  <pValue>
5.72

>  <Ligand Efficiency>
0

>  <Binding Efficiency>
0

>  <Surface Efficiency>
0

>  <Assay Index>
1327070

>  <Assay Category>


>  <Assay Organism>
Homo sapiens

>  <Target ID>
17045

>  <Target Name>
Cytochrome P450 3A4

>  <Target Organism>
Homo sapiens

>  <Target Description>
Target is a single protein chain

>  <Sequence Accession>
P08684

>  <Reference>
J Med Chem 62 (3), 1246-1273 (2019)

>  <Pubmed ID>
30624919

>  <DOI>
10.1021/acs.jmedchem.8b01226

$$$$
2462715
Actelion Java MolfileCreator 1.0

 27 29  0  0  0  0  0  0  0  0999 V2000
    0.0000   -0.0000   -0.0000 S   0  0  0  0  0  0  0  0  0  0  0  0
    0.7246    1.3185   -0.0000 O   0  0  0  0  0  0  0  0  0  0  0  0
    1.4848    0.0238   -0.0000 O   0  0  0  0  0  0  0  0  0  0  0  0
   -1.3067    0.7484   -0.0000 N   0  0  0  0  0  0  0  0  0  0  0  0
    0.0000   -1.4848   -0.0000 C   0  0  0  0  0  0  0  0  0  0  0  0
   -1.3304    2.2569   -0.0000 C   0  0  0  0  0  0  0  0  0  0  0  0
   -2.6133    0.0119   -0.0000 C   0  0  0  0  0  0  0  0  0  0  0  0
   -1.3067   -2.2213   -0.0000 C   0  0  0  0  0  0  0  0  0  0  0  0
    1.2948   -2.1975   -0.0000 C   0  0  0  0  0  0  0  0  0  0  0  0
   -2.6489    3.0172   -0.0000 C   0  0  0  0  0  0  0  0  0  0  0  0
   -3.9200    0.7602   -0.0000 C   0  0  0  0  0  0  0  0  0  0  0  0
   -1.3067   -3.7061   -0.0000 C   0  0  0  0  0  0  0  0  0  0  0  0
    1.2948   -3.6824   -0.0000 C   0  0  0  0  0  0  0  0  0  0  0  0
   -3.9437    2.2688   -0.0000 C   0  0  0  0  0  0  0  0  0  0  0  0
   -0.0119   -4.4426   -0.0000 C   0  0  0  0  0  0  0  0  0  0  0  0
   -5.2622    3.0172   -0.0000 C   0  0  0  0  0  0  0  0  0  0  0  0
   -0.0119   -5.9274   -0.0000 O   0  0  0  0  0  0  0  0  0  0  0  0
   -6.5689    2.2688   -0.0000 C   0  0  0  0  0  0  0  0  0  0  0  0
   -1.3185   -6.6758   -0.0000 C   0  0  0  0  0  0  0  0  0  0  0  0
   -7.8755    1.5205   -0.0000 C   0  0  0  0  0  0  0  0  0  0  0  0
   -9.1822    0.7840   -0.0000 C   0  0  0  0  0  0  0  0  0  0  0  0
   -9.1941   -0.7127   -0.0000 N   0  0  0  0  0  0  0  0  0  0  0  0
  -10.4888    1.5442   -0.0000 C   0  0  0  0  0  0  0  0  0  0  0  0
  -10.5126   -1.4492   -0.0000 C   0  0  0  0  0  0  0  0  0  0  0  0
  -11.7955    0.8077   -0.0000 C   0  0  0  0  0  0  0  0  0  0  0  0
  -11.8192   -0.6890   -0.0000 C   0  0  0  0  0  0  0  0  0  0  0  0
  -10.5245   -2.9340   -0.0000 C   0  0  0  0  0  0  0  0  0  0  0  0
  1  2  2  0  0  0  0
  1  3  2  0  0  0  0
  1  4  1  0  0  0  0
  1  5  1  0  0  0  0
  4  6  1  0  0  0  0
  4  7  1  0  0  0  0
  5  8  2  0  0  0  0
  5  9  1  0  0  0  0
  6 10  1  0  0  0  0
  7 11  1  0  0  0  0
  8 12  1  0  0  0  0
  9 13  2  0  0  0  0
 10 14  1  0  0  0  0
 12 15  2  0  0  0  0
 14 16  2  0  0  0  0
 15 17  1  0  0  0  0
 16 18  1  0  0  0  0
 17 19  1  0  0  0  0
 18 20  3  0  0  0  0
 20 21  1  0  0  0  0
 21 22  2  0  0  0  0
 21 23  1  0  0  0  0
 22 24  1  0  0  0  0
 23 25  2  0  0  0  0
 24 26  2  0  0  0  0
 24 27  1  0  0  0  0
 11 14  1  0  0  0  0
 13 15  1  0  0  0  0
 25 26  1  0  0  0  0
M  END
>  <MolRegNo>
2462715

>  <m>
=

>  <Value>
1900

>  <Unit>
nM

>  <Type>
IC50

>  <pValue>
5.72

>  <Ligand Efficiency>
0

>  <Binding Efficiency>
0

>  <Surface Efficiency>
0

>  <Assay Index>
1327070

>  <Assay Category>


>  <Assay Organism>
Homo sapiens

>  <Target ID>
17045

>  <Target Name>
Cytochrome P450 3A4

>  <Target Organism>
Homo sapiens

>  <Target Description>
Target is a single protein chain

>  <Sequence Accession>
P08684

>  <Reference>
J Med Chem 62 (3), 1246-1273 (2019)

>  <Pubmed ID>
30624919

>  <DOI>
10.1021/acs.jmedchem.8b01226

$$$$
2384909
Actelion Java MolfileCreator 1.0

 27 29  0  0  0  0  0  0  0  0999 V2000
    0.0000   -0.0000   -0.0000 S   0  0  0  0  0  0  0  0  0  0  0  0
    0.7249    1.3192   -0.0000 O   0  0  0  0  0  0  0  0  0  0  0  0
    1.4855    0.0238   -0.0000 O   0  0  0  0  0  0  0  0  0  0  0  0
   -1.3073    0.7487   -0.0000 N   0  0  0  0  0  0  0  0  0  0  0  0
    0.0000   -1.4855   -0.0000 C   0  0  0  0  0  0  0  0  0  0  0  0
   -1.3310    2.2580   -0.0000 C   0  0  0  0  0  0  0  0  0  0  0  0
   -2.6146    0.0119   -0.0000 C   0  0  0  0  0  0  0  0  0  0  0  0
   -1.3073   -2.2224   -0.0000 C   0  0  0  0  0  0  0  0  0  0  0  0
    1.2954   -2.1986   -0.0000 C   0  0  0  0  0  0  0  0  0  0  0  0
   -2.6502    3.0186   -0.0000 C   0  0  0  0  0  0  0  0  0  0  0  0
   -3.9218    0.7606   -0.0000 C   0  0  0  0  0  0  0  0  0  0  0  0
   -1.3073   -3.7079   -0.0000 C   0  0  0  0  0  0  0  0  0  0  0  0
    1.2954   -3.6842   -0.0000 C   0  0  0  0  0  0  0  0  0  0  0  0
   -3.9456    2.2699   -0.0000 C   0  0  0  0  0  0  0  0  0  0  0  0
   -0.0119   -4.4448   -0.0000 C   0  0  0  0  0  0  0  0  0  0  0  0
   -5.2648    3.0186   -0.0000 C   0  0  0  0  0  0  0  0  0  0  0  0
   -0.0119   -5.9303   -0.0000 C   0  0  0  0  0  0  0  0  0  0  0  0
   -6.5721    2.2699   -0.0000 C   0  0  0  0  0  0  0  0  0  0  0  0
   -0.0119   -7.4158   -0.0000 N   0  0  0  0  0  0  0  0  0  0  0  0
   -7.8793    1.5212   -0.0000 C   0  0  0  0  0  0  0  0  0  0  0  0
   -9.1866    0.7844   -0.0000 C   0  0  0  0  0  0  0  0  0  0  0  0
   -9.1985   -0.7131   -0.0000 N   0  0  0  0  0  0  0  0  0  0  0  0
  -10.4939    1.5450   -0.0000 C   0  0  0  0  0  0  0  0  0  0  0  0
  -10.5177   -1.4499   -0.0000 C   0  0  0  0  0  0  0  0  0  0  0  0
  -11.8012    0.8081   -0.0000 C   0  0  0  0  0  0  0  0  0  0  0  0
  -11.8249   -0.6893   -0.0000 C   0  0  0  0  0  0  0  0  0  0  0  0
  -10.5295   -2.9354   -0.0000 C   0  0  0  0  0  0  0  0  0  0  0  0
  1  2  2  0  0  0  0
  1  3  2  0  0  0  0
  1  4  1  0  0  0  0
  1  5  1  0  0  0  0
  4  6  1  0  0  0  0
  4  7  1  0  0  0  0
  5  8  2  0  0  0  0
  5  9  1  0  0  0  0
  6 10  1  0  0  0  0
  7 11  1  0  0  0  0
  8 12  1  0  0  0  0
  9 13  2  0  0  0  0
 10 14  1  0  0  0  0
 12 15  2  0  0  0  0
 14 16  2  0  0  0  0
 15 17  1  0  0  0  0
 16 18  1  0  0  0  0
 17 19  3  0  0  0  0
 18 20  3  0  0  0  0
 20 21  1  0  0  0  0
 21 22  2  0  0  0  0
 21 23  1  0  0  0  0
 22 24  1  0  0  0  0
 23 25  2  0  0  0  0
 24 26  2  0  0  0  0
 24 27  1  0  0  0  0
 11 14  1  0  0  0  0
 13 15  1  0  0  0  0
 25 26  1  0  0  0  0
M  END
>  <MolRegNo>
2384909

>  <m>
=

>  <Value>
5000

>  <Unit>
nM

>  <Type>
IC50

>  <pValue>
5.3

>  <Ligand Efficiency>
0

>  <Binding Efficiency>
0

>  <Surface Efficiency>
0

>  <Assay Index>
1327070

>  <Assay Category>


>  <Assay Organism>
Homo sapiens

>  <Target ID>
17045

>  <Target Name>
Cytochrome P450 3A4

>  <Target Organism>
Homo sapiens

>  <Target Description>
Target is a single protein chain

>  <Sequence Accession>
P08684

>  <Reference>
J Med Chem 62 (3), 1246-1273 (2019)

>  <Pubmed ID>
30624919

>  <DOI>
10.1021/acs.jmedchem.8b01226

$$$$
2350487
Actelion Java MolfileCreator 1.0

 24 25  0  0  0  0  0  0  0  0999 V2000
    0.0000   -0.0000   -0.0000 O   0  0  0  0  0  0  0  0  0  0  0  0
   -0.0237    1.5049   -0.0000 C   0  0  0  0  0  0  0  0  0  0  0  0
   -1.3390    2.2633   -0.0000 N   0  0  0  0  0  0  0  0  0  0  0  0
    1.2561    2.2752   -0.0000 N   0  0  0  0  0  0  0  0  0  0  0  0
   -1.3627    3.7683   -0.0000 C   0  0  0  0  0  0  0  0  0  0  0  0
   -2.6425    1.5286   -0.0000 C   0  0  0  0  0  0  0  0  0  0  0  0
    2.5477    1.5405   -0.0000 C   0  0  0  0  0  0  0  0  0  0  0  0
    1.2324    3.7801   -0.0000 C   0  0  0  0  0  0  0  0  0  0  0  0
   -2.6781    4.5266   -0.0000 C   0  0  0  0  0  0  0  0  0  0  0  0
   -3.9460    2.2752   -0.0000 C   0  0  0  0  0  0  0  0  0  0  0  0
    3.8275    2.3107   -0.0000 C   0  0  0  0  0  0  0  0  0  0  0  0
   -3.9697    3.7801   -0.0000 C   0  0  0  0  0  0  0  0  0  0  0  0
    5.1191    1.5760   -0.0000 C   0  0  0  0  0  0  0  0  0  0  0  0
   -5.2850    4.5266   -0.0000 C   0  0  0  0  0  0  0  0  0  0  0  0
    6.3989    2.3463   -0.0000 C   0  0  0  0  0  0  0  0  0  0  0  0
   -6.5885    3.7801   -0.0000 C   0  0  0  0  0  0  0  0  0  0  0  0
   -7.8920    3.0336   -0.0000 C   0  0  0  0  0  0  0  0  0  0  0  0
   -9.1955    2.2989   -0.0000 C   0  0  0  0  0  0  0  0  0  0  0  0
   -9.2073    0.8058   -0.0000 N   0  0  0  0  0  0  0  0  0  0  0  0
  -10.4990    3.0573   -0.0000 C   0  0  0  0  0  0  0  0  0  0  0  0
  -10.5227    0.0711   -0.0000 C   0  0  0  0  0  0  0  0  0  0  0  0
  -11.8025    2.3226   -0.0000 C   0  0  0  0  0  0  0  0  0  0  0  0
  -11.8262    0.8295   -0.0000 C   0  0  0  0  0  0  0  0  0  0  0  0
  -10.5345   -1.4101   -0.0000 C   0  0  0  0  0  0  0  0  0  0  0  0
  1  2  2  0  0  0  0
  2  3  1  0  0  0  0
  2  4  1  0  0  0  0
  3  5  1  0  0  0  0
  3  6  1  0  0  0  0
  4  7  1  0  0  0  0
  4  8  1  0  0  0  0
  5  9  1  0  0  0  0
  6 10  1  0  0  0  0
  7 11  1  0  0  0  0
  9 12  1  0  0  0  0
 11 13  1  0  0  0  0
 12 14  2  0  0  0  0
 13 15  1  0  0  0  0
 14 16  1  0  0  0  0
 16 17  3  0  0  0  0
 17 18  1  0  0  0  0
 18 19  2  0  0  0  0
 18 20  1  0  0  0  0
 19 21  1  0  0  0  0
 20 22  2  0  0  0  0
 21 23  2  0  0  0  0
 21 24  1  0  0  0  0
 10 12  1  0  0  0  0
 22 23  1  0  0  0  0
M  END
>  <MolRegNo>
2350487

>  <m>
=

>  <Value>
13400

>  <Unit>
nM

>  <Type>
IC50

>  <pValue>
4.87

>  <Ligand Efficiency>
0

>  <Binding Efficiency>
0

>  <Surface Efficiency>
0

>  <Assay Index>
1327070

>  <Assay Category>


>  <Assay Organism>
Homo sapiens

>  <Target ID>
17045

>  <Target Name>
Cytochrome P450 3A4

>  <Target Organism>
Homo sapiens

>  <Target Description>
Target is a single protein chain

>  <Sequence Accession>
P08684

>  <Reference>
J Med Chem 62 (3), 1246-1273 (2019)

>  <Pubmed ID>
30624919

>  <DOI>
10.1021/acs.jmedchem.8b01226

$$$$
2379702
Actelion Java MolfileCreator 1.0

 21 22  0  0  0  0  0  0  0  0999 V2000
    0.0000   -0.0000   -0.0000 Cl  0  0  0  0  0  0  0  0  0  0  0  0
   -0.0119    1.5120   -0.0000 C   0  0  0  0  0  0  0  0  0  0  0  0
    1.2858    2.2740   -0.0000 C   0  0  0  0  0  0  0  0  0  0  0  0
   -1.3215    2.2740   -0.0000 C   0  0  0  0  0  0  0  0  0  0  0  0
    1.2739    3.7979   -0.0000 C   0  0  0  0  0  0  0  0  0  0  0  0
   -1.3334    3.7979   -0.0000 C   0  0  0  0  0  0  0  0  0  0  0  0
    2.5597    4.5598   -0.0000 C   0  0  0  0  0  0  0  0  0  0  0  0
   -0.0357    4.5598   -0.0000 C   0  0  0  0  0  0  0  0  0  0  0  0
    3.8455    5.3337   -0.0000 C   0  0  0  0  0  0  0  0  0  0  0  0
    5.1313    6.1075   -0.0000 C   0  0  0  0  0  0  0  0  0  0  0  0
    6.4290    5.3813   -0.0000 C   0  0  0  0  0  0  0  0  0  0  0  0
    7.7029    6.1551   -0.0000 C   0  0  0  0  0  0  0  0  0  0  0  0
    6.4171    3.8931   -0.0000 C   0  0  0  0  0  0  0  0  0  0  0  0
    9.0006    5.4170   -0.0000 C   0  0  0  0  0  0  0  0  0  0  0  0
    7.7029    3.1669   -0.0000 C   0  0  0  0  0  0  0  0  0  0  0  0
    9.0006    3.9288   -0.0000 N   0  0  0  0  0  0  0  0  0  0  0  0
   10.2983    3.1907   -0.0000 C   0  0  0  0  0  0  0  0  0  0  0  0
   10.2983    1.7025   -0.0000 O   0  0  0  0  0  0  0  0  0  0  0  0
   11.5841    3.9645   -0.0000 O   0  0  0  0  0  0  0  0  0  0  0  0
   12.8818    3.2264   -0.0000 C   0  0  0  0  0  0  0  0  0  0  0  0
   14.1676    4.0003   -0.0000 C   0  0  0  0  0  0  0  0  0  0  0  0
  1  2  1  0  0  0  0
  2  3  2  0  0  0  0
  2  4  1  0  0  0  0
  3  5  1  0  0  0  0
  4  6  2  0  0  0  0
  5  7  1  0  0  0  0
  5  8  2  0  0  0  0
  7  9  3  0  0  0  0
  9 10  1  0  0  0  0
 10 11  2  0  0  0  0
 11 12  1  0  0  0  0
 11 13  1  0  0  0  0
 12 14  1  0  0  0  0
 13 15  1  0  0  0  0
 14 16  1  0  0  0  0
 16 17  1  0  0  0  0
 17 18  2  0  0  0  0
 17 19  1  0  0  0  0
 19 20  1  0  0  0  0
 20 21  1  0  0  0  0
  6  8  1  0  0  0  0
 15 16  1  0  0  0  0
M  END
>  <MolRegNo>
2379702

>  <m>
=

>  <Value>
12800

>  <Unit>
nM

>  <Type>
IC50

>  <pValue>
4.89

>  <Ligand Efficiency>
0

>  <Binding Efficiency>
0

>  <Surface Efficiency>
0

>  <Assay Index>
1327070

>  <Assay Category>


>  <Assay Organism>
Homo sapiens

>  <Target ID>
17045

>  <Target Name>
Cytochrome P450 3A4

>  <Target Organism>
Homo sapiens

>  <Target Description>
Target is a single protein chain

>  <Sequence Accession>
P08684

>  <Reference>
J Med Chem 62 (3), 1246-1273 (2019)

>  <Pubmed ID>
30624919

>  <DOI>
10.1021/acs.jmedchem.8b01226

$$$$
2382149
Actelion Java MolfileCreator 1.0

 21 22  0  0  0  0  0  0  0  0999 V2000
    0.0000   -0.0000   -0.0000 F   0  0  0  0  0  0  0  0  0  0  0  0
   -0.0119    1.5120   -0.0000 C   0  0  0  0  0  0  0  0  0  0  0  0
    1.2858    2.2740   -0.0000 C   0  0  0  0  0  0  0  0  0  0  0  0
   -1.3215    2.2740   -0.0000 C   0  0  0  0  0  0  0  0  0  0  0  0
    1.2739    3.7979   -0.0000 C   0  0  0  0  0  0  0  0  0  0  0  0
   -1.3334    3.7979   -0.0000 C   0  0  0  0  0  0  0  0  0  0  0  0
    2.5597    4.5598   -0.0000 C   0  0  0  0  0  0  0  0  0  0  0  0
   -0.0357    4.5598   -0.0000 C   0  0  0  0  0  0  0  0  0  0  0  0
    3.8455    5.3337   -0.0000 C   0  0  0  0  0  0  0  0  0  0  0  0
    5.1313    6.1075   -0.0000 C   0  0  0  0  0  0  0  0  0  0  0  0
    6.4290    5.3813   -0.0000 C   0  0  0  0  0  0  0  0  0  0  0  0
    7.7029    6.1551   -0.0000 C   0  0  0  0  0  0  0  0  0  0  0  0
    6.4171    3.8931   -0.0000 C   0  0  0  0  0  0  0  0  0  0  0  0
    9.0006    5.4170   -0.0000 C   0  0  0  0  0  0  0  0  0  0  0  0
    7.7029    3.1669   -0.0000 C   0  0  0  0  0  0  0  0  0  0  0  0
    9.0006    3.9288   -0.0000 N   0  0  0  0  0  0  0  0  0  0  0  0
   10.2983    3.1907   -0.0000 C   0  0  0  0  0  0  0  0  0  0  0  0
   10.2983    1.7025   -0.0000 O   0  0  0  0  0  0  0  0  0  0  0  0
   11.5841    3.9645   -0.0000 O   0  0  0  0  0  0  0  0  0  0  0  0
   12.8818    3.2264   -0.0000 C   0  0  0  0  0  0  0  0  0  0  0  0
   14.1676    4.0003   -0.0000 C   0  0  0  0  0  0  0  0  0  0  0  0
  1  2  1  0  0  0  0
  2  3  2  0  0  0  0
  2  4  1  0  0  0  0
  3  5  1  0  0  0  0
  4  6  2  0  0  0  0
  5  7  1  0  0  0  0
  5  8  2  0  0  0  0
  7  9  3  0  0  0  0
  9 10  1  0  0  0  0
 10 11  2  0  0  0  0
 11 12  1  0  0  0  0
 11 13  1  0  0  0  0
 12 14  1  0  0  0  0
 13 15  1  0  0  0  0
 14 16  1  0  0  0  0
 16 17  1  0  0  0  0
 17 18  2  0  0  0  0
 17 19  1  0  0  0  0
 19 20  1  0  0  0  0
 20 21  1  0  0  0  0
  6  8  1  0  0  0  0
 15 16  1  0  0  0  0
M  END
>  <MolRegNo>
2382149

>  <m>
=

>  <Value>
4200

>  <Unit>
nM

>  <Type>
IC50

>  <pValue>
5.38

>  <Ligand Efficiency>
0

>  <Binding Efficiency>
0

>  <Surface Efficiency>
0

>  <Assay Index>
1327070

>  <Assay Category>


>  <Assay Organism>
Homo sapiens

>  <Target ID>
17045

>  <Target Name>
Cytochrome P450 3A4

>  <Target Organism>
Homo sapiens

>  <Target Description>
Target is a single protein chain

>  <Sequence Accession>
P08684

>  <Reference>
J Med Chem 62 (3), 1246-1273 (2019)

>  <Pubmed ID>
30624919

>  <DOI>
10.1021/acs.jmedchem.8b01226

$$$$
2353284
Actelion Java MolfileCreator 1.0

 21 22  0  0  0  0  0  0  0  0999 V2000
    0.0000   -0.0000   -0.0000 O   0  0  0  0  0  0  0  0  0  0  0  0
   -0.0237    1.5042   -0.0000 C   0  0  0  0  0  0  0  0  0  0  0  0
    1.2555    2.2741   -0.0000 O   0  0  0  0  0  0  0  0  0  0  0  0
   -1.3384    2.2623   -0.0000 N   0  0  0  0  0  0  0  0  0  0  0  0
    2.5465    1.5398   -0.0000 C   0  0  0  0  0  0  0  0  0  0  0  0
   -1.3621    3.7665   -0.0000 C   0  0  0  0  0  0  0  0  0  0  0  0
   -2.6413    1.5279   -0.0000 C   0  0  0  0  0  0  0  0  0  0  0  0
    3.8257    2.3097   -0.0000 C   0  0  0  0  0  0  0  0  0  0  0  0
   -2.6768    4.5246   -0.0000 C   0  0  0  0  0  0  0  0  0  0  0  0
   -3.9442    2.2741   -0.0000 C   0  0  0  0  0  0  0  0  0  0  0  0
   -3.9679    3.7784   -0.0000 C   0  0  0  0  0  0  0  0  0  0  0  0
   -5.2826    4.5246   -0.0000 C   0  0  0  0  0  0  0  0  0  0  0  0
   -6.5855    3.7784   -0.0000 C   0  0  0  0  0  0  0  0  0  0  0  0
   -7.8884    3.0322   -0.0000 C   0  0  0  0  0  0  0  0  0  0  0  0
   -9.1912    2.2978   -0.0000 C   0  0  0  0  0  0  0  0  0  0  0  0
   -9.2031    0.8054   -0.0000 C   0  0  0  0  0  0  0  0  0  0  0  0
  -10.4941    3.0559   -0.0000 C   0  0  0  0  0  0  0  0  0  0  0  0
  -10.5178    0.0711   -0.0000 C   0  0  0  0  0  0  0  0  0  0  0  0
  -11.7970    2.3215   -0.0000 C   0  0  0  0  0  0  0  0  0  0  0  0
  -11.8207    0.8291   -0.0000 C   0  0  0  0  0  0  0  0  0  0  0  0
  -10.5297   -1.4095   -0.0000 C   0  0  0  0  0  0  0  0  0  0  0  0
  1  2  2  0  0  0  0
  2  3  1  0  0  0  0
  2  4  1  0  0  0  0
  3  5  1  0  0  0  0
  4  6  1  0  0  0  0
  4  7  1  0  0  0  0
  5  8  1  0  0  0  0
  6  9  1  0  0  0  0
  7 10  1  0  0  0  0
  9 11  1  0  0  0  0
 11 12  2  0  0  0  0
 12 13  1  0  0  0  0
 13 14  3  0  0  0  0
 14 15  1  0  0  0  0
 15 16  2  0  0  0  0
 15 17  1  0  0  0  0
 16 18  1  0  0  0  0
 17 19  2  0  0  0  0
 18 20  2  0  0  0  0
 18 21  1  0  0  0  0
 10 11  1  0  0  0  0
 19 20  1  0  0  0  0
M  END
>  <MolRegNo>
2353284

>  <m>
=

>  <Value>
5400

>  <Unit>
nM

>  <Type>
IC50

>  <pValue>
5.27

>  <Ligand Efficiency>
0

>  <Binding Efficiency>
0

>  <Surface Efficiency>
0

>  <Assay Index>
1327070

>  <Assay Category>


>  <Assay Organism>
Homo sapiens

>  <Target ID>
17045

>  <Target Name>
Cytochrome P450 3A4

>  <Target Organism>
Homo sapiens

>  <Target Description>
Target is a single protein chain

>  <Sequence Accession>
P08684

>  <Reference>
J Med Chem 62 (3), 1246-1273 (2019)

>  <Pubmed ID>
30624919

>  <DOI>
10.1021/acs.jmedchem.8b01226

$$$$
2409467
Actelion Java MolfileCreator 1.0

 27 29  0  0  0  0  0  0  0  0999 V2000
    0.0000   -0.0000   -0.0000 O   0  0  0  0  0  0  0  0  0  0  0  0
   -0.0238    1.5085   -0.0000 C   0  0  0  0  0  0  0  0  0  0  0  0
    1.2590    2.2805   -0.0000 O   0  0  0  0  0  0  0  0  0  0  0  0
   -1.3422    2.2686   -0.0000 N   0  0  0  0  0  0  0  0  0  0  0  0
    2.5537    1.5441   -0.0000 C   0  0  0  0  0  0  0  0  0  0  0  0
   -1.3659    3.7771   -0.0000 C   0  0  0  0  0  0  0  0  0  0  0  0
   -2.6487    1.5322   -0.0000 C   0  0  0  0  0  0  0  0  0  0  0  0
    3.8365    2.3161   -0.0000 C   0  0  0  0  0  0  0  0  0  0  0  0
   -2.6843    4.5373   -0.0000 C   0  0  0  0  0  0  0  0  0  0  0  0
   -3.9553    2.2805   -0.0000 C   0  0  0  0  0  0  0  0  0  0  0  0
    5.1311    1.5797   -0.0000 C   0  0  0  0  0  0  0  0  0  0  0  0
   -3.9790    3.7890   -0.0000 C   0  0  0  0  0  0  0  0  0  0  0  0
    5.1193    0.0950   -0.0000 C   0  0  0  0  0  0  0  0  0  0  0  0
    6.4020    2.3518   -0.0000 C   0  0  0  0  0  0  0  0  0  0  0  0
   -5.2974    4.5373   -0.0000 C   0  0  0  0  0  0  0  0  0  0  0  0
    6.4020   -0.6414   -0.0000 C   0  0  0  0  0  0  0  0  0  0  0  0
    7.6848    1.6272   -0.0000 C   0  0  0  0  0  0  0  0  0  0  0  0
   -6.6040    3.7890   -0.0000 C   0  0  0  0  0  0  0  0  0  0  0  0
    7.6848    0.1307   -0.0000 C   0  0  0  0  0  0  0  0  0  0  0  0
   -7.9105    3.0407   -0.0000 C   0  0  0  0  0  0  0  0  0  0  0  0
   -9.2170    2.3043   -0.0000 C   0  0  0  0  0  0  0  0  0  0  0  0
   -9.2289    0.8077   -0.0000 N   0  0  0  0  0  0  0  0  0  0  0  0
  -10.5236    3.0644   -0.0000 C   0  0  0  0  0  0  0  0  0  0  0  0
  -10.5473    0.0713   -0.0000 C   0  0  0  0  0  0  0  0  0  0  0  0
  -11.8301    2.3280   -0.0000 C   0  0  0  0  0  0  0  0  0  0  0  0
  -11.8539    0.8314   -0.0000 C   0  0  0  0  0  0  0  0  0  0  0  0
  -10.5592   -1.4134   -0.0000 C   0  0  0  0  0  0  0  0  0  0  0  0
  1  2  2  0  0  0  0
  2  3  1  0  0  0  0
  2  4  1  0  0  0  0
  3  5  1  0  0  0  0
  4  6  1  0  0  0  0
  4  7  1  0  0  0  0
  5  8  1  0  0  0  0
  6  9  1  0  0  0  0
  7 10  1  0  0  0  0
  8 11  1  0  0  0  0
  9 12  1  0  0  0  0
 11 13  2  0  0  0  0
 11 14  1  0  0  0  0
 12 15  2  0  0  0  0
 13 16  1  0  0  0  0
 14 17  2  0  0  0  0
 15 18  1  0  0  0  0
 16 19  2  0  0  0  0
 18 20  3  0  0  0  0
 20 21  1  0  0  0  0
 21 22  2  0  0  0  0
 21 23  1  0  0  0  0
 22 24  1  0  0  0  0
 23 25  2  0  0  0  0
 24 26  2  0  0  0  0
 24 27  1  0  0  0  0
 10 12  1  0  0  0  0
 17 19  1  0  0  0  0
 25 26  1  0  0  0  0
M  END
>  <MolRegNo>
2409467

>  <m>
=

>  <Value>
3700

>  <Unit>
nM

>  <Type>
IC50

>  <pValue>
5.43

>  <Ligand Efficiency>
0

>  <Binding Efficiency>
0

>  <Surface Efficiency>
0

>  <Assay Index>
1327070

>  <Assay Category>


>  <Assay Organism>
Homo sapiens

>  <Target ID>
17045

>  <Target Name>
Cytochrome P450 3A4

>  <Target Organism>
Homo sapiens

>  <Target Description>
Target is a single protein chain

>  <Sequence Accession>
P08684

>  <Reference>
J Med Chem 62 (3), 1246-1273 (2019)

>  <Pubmed ID>
30624919

>  <DOI>
10.1021/acs.jmedchem.8b01226

$$$$
2418633
Actelion Java MolfileCreator 1.0

 26 28  0  0  0  0  0  0  0  0999 V2000
    0.0000   -0.0000   -0.0000 O   0  0  0  0  0  0  0  0  0  0  0  0
   -0.0237    1.5069   -0.0000 C   0  0  0  0  0  0  0  0  0  0  0  0
    1.2577    2.2781   -0.0000 O   0  0  0  0  0  0  0  0  0  0  0  0
   -1.3407    2.2662   -0.0000 N   0  0  0  0  0  0  0  0  0  0  0  0
    2.5510    1.5424   -0.0000 C   0  0  0  0  0  0  0  0  0  0  0  0
   -1.3645    3.7731   -0.0000 C   0  0  0  0  0  0  0  0  0  0  0  0
   -2.6459    1.5306   -0.0000 C   0  0  0  0  0  0  0  0  0  0  0  0
    3.8324    2.3137   -0.0000 C   0  0  0  0  0  0  0  0  0  0  0  0
   -2.6815    4.5324   -0.0000 C   0  0  0  0  0  0  0  0  0  0  0  0
   -3.9510    2.2781   -0.0000 C   0  0  0  0  0  0  0  0  0  0  0  0
    5.1138    1.5780   -0.0000 C   0  0  0  0  0  0  0  0  0  0  0  0
    3.8087    3.8087   -0.0000 C   0  0  0  0  0  0  0  0  0  0  0  0
   -3.9748    3.7849   -0.0000 C   0  0  0  0  0  0  0  0  0  0  0  0
    6.3952    2.3374   -0.0000 C   0  0  0  0  0  0  0  0  0  0  0  0
    5.0782    4.5799   -0.0000 C   0  0  0  0  0  0  0  0  0  0  0  0
   -5.2918    4.5324   -0.0000 C   0  0  0  0  0  0  0  0  0  0  0  0
    6.3715    3.8443   -0.0000 C   0  0  0  0  0  0  0  0  0  0  0  0
   -6.5969    3.7849   -0.0000 C   0  0  0  0  0  0  0  0  0  0  0  0
   -7.9021    3.0374   -0.0000 C   0  0  0  0  0  0  0  0  0  0  0  0
   -9.2072    2.3018   -0.0000 C   0  0  0  0  0  0  0  0  0  0  0  0
   -9.2191    0.8068   -0.0000 N   0  0  0  0  0  0  0  0  0  0  0  0
  -10.5124    3.0612   -0.0000 C   0  0  0  0  0  0  0  0  0  0  0  0
  -10.5361    0.0712   -0.0000 C   0  0  0  0  0  0  0  0  0  0  0  0
  -11.8175    2.3255   -0.0000 C   0  0  0  0  0  0  0  0  0  0  0  0
  -11.8413    0.8305   -0.0000 C   0  0  0  0  0  0  0  0  0  0  0  0
  -10.5480   -1.4119   -0.0000 C   0  0  0  0  0  0  0  0  0  0  0  0
  1  2  2  0  0  0  0
  2  3  1  0  0  0  0
  2  4  1  0  0  0  0
  3  5  1  0  0  0  0
  4  6  1  0  0  0  0
  4  7  1  0  0  0  0
  5  8  1  0  0  0  0
  6  9  1  0  0  0  0
  7 10  1  0  0  0  0
  8 11  2  0  0  0  0
  8 12  1  0  0  0  0
  9 13  1  0  0  0  0
 11 14  1  0  0  0  0
 12 15  2  0  0  0  0
 13 16  2  0  0  0  0
 14 17  2  0  0  0  0
 16 18  1  0  0  0  0
 18 19  3  0  0  0  0
 19 20  1  0  0  0  0
 20 21  2  0  0  0  0
 20 22  1  0  0  0  0
 21 23  1  0  0  0  0
 22 24  2  0  0  0  0
 23 25  2  0  0  0  0
 23 26  1  0  0  0  0
 10 13  1  0  0  0  0
 15 17  1  0  0  0  0
 24 25  1  0  0  0  0
M  END
>  <MolRegNo>
2418633

>  <m>
=

>  <Value>
7700

>  <Unit>
nM

>  <Type>
IC50

>  <pValue>
5.11

>  <Ligand Efficiency>
0

>  <Binding Efficiency>
0

>  <Surface Efficiency>
0

>  <Assay Index>
1327070

>  <Assay Category>


>  <Assay Organism>
Homo sapiens

>  <Target ID>
17045

>  <Target Name>
Cytochrome P450 3A4

>  <Target Organism>
Homo sapiens

>  <Target Description>
Target is a single protein chain

>  <Sequence Accession>
P08684

>  <Reference>
J Med Chem 62 (3), 1246-1273 (2019)

>  <Pubmed ID>
30624919

>  <DOI>
10.1021/acs.jmedchem.8b01226

$$$$
2410429
Actelion Java MolfileCreator 1.0

 20 21  0  0  0  0  0  0  0  0999 V2000
    0.0000   -0.0000   -0.0000 O   0  0  0  0  0  0  0  0  0  0  0  0
    0.9409    1.1643   -0.0000 C   0  0  0  0  0  0  0  0  0  0  0  0
    2.3992    0.9291   -0.0000 O   0  0  0  0  0  0  0  0  0  0  0  0
    0.4116    2.5757   -0.0000 N   0  0  0  0  0  0  0  0  0  0  0  0
    2.9050   -0.4587   -0.0000 C   0  0  0  0  0  0  0  0  0  0  0  0
   -1.0467    2.9873   -0.0000 C   0  0  0  0  0  0  0  0  0  0  0  0
    1.2349    3.8341   -0.0000 C   0  0  0  0  0  0  0  0  0  0  0  0
    4.3633   -0.6939   -0.0000 C   0  0  0  0  0  0  0  0  0  0  0  0
   -1.1173    4.4927   -0.0000 C   0  0  0  0  0  0  0  0  0  0  0  0
    0.2940    5.0219   -0.0000 C   0  0  0  0  0  0  0  0  0  0  0  0
   -2.3757    5.3277   -0.0000 C   0  0  0  0  0  0  0  0  0  0  0  0
   -3.7282    4.6691   -0.0000 C   0  0  0  0  0  0  0  0  0  0  0  0
   -5.0925    4.0105   -0.0000 C   0  0  0  0  0  0  0  0  0  0  0  0
   -6.4450    3.3519   -0.0000 C   0  0  0  0  0  0  0  0  0  0  0  0
   -6.5391    1.8700   -0.0000 N   0  0  0  0  0  0  0  0  0  0  0  0
   -7.6917    4.1869   -0.0000 C   0  0  0  0  0  0  0  0  0  0  0  0
   -7.8799    1.2114   -0.0000 C   0  0  0  0  0  0  0  0  0  0  0  0
   -9.0442    3.5401   -0.0000 C   0  0  0  0  0  0  0  0  0  0  0  0
   -9.1501    2.0464   -0.0000 C   0  0  0  0  0  0  0  0  0  0  0  0
   -7.9857   -0.2705   -0.0000 C   0  0  0  0  0  0  0  0  0  0  0  0
  1  2  2  0  0  0  0
  2  3  1  0  0  0  0
  2  4  1  0  0  0  0
  3  5  1  0  0  0  0
  4  6  1  0  0  0  0
  4  7  1  0  0  0  0
  5  8  1  0  0  0  0
  6  9  1  0  0  0  0
  7 10  1  0  0  0  0
  9 11  2  0  0  0  0
 11 12  1  0  0  0  0
 12 13  3  0  0  0  0
 13 14  1  0  0  0  0
 14 15  2  0  0  0  0
 14 16  1  0  0  0  0
 15 17  1  0  0  0  0
 16 18  2  0  0  0  0
 17 19  2  0  0  0  0
 17 20  1  0  0  0  0
  9 10  1  0  0  0  0
 18 19  1  0  0  0  0
M  END
>  <MolRegNo>
2410429

>  <m>
=

>  <Value>
9700

>  <Unit>
nM

>  <Type>
IC50

>  <pValue>
5.01

>  <Ligand Efficiency>
0

>  <Binding Efficiency>
0

>  <Surface Efficiency>
0

>  <Assay Index>
1327070

>  <Assay Category>


>  <Assay Organism>
Homo sapiens

>  <Target ID>
17045

>  <Target Name>
Cytochrome P450 3A4

>  <Target Organism>
Homo sapiens

>  <Target Description>
Target is a single protein chain

>  <Sequence Accession>
P08684

>  <Reference>
J Med Chem 62 (3), 1246-1273 (2019)

>  <Pubmed ID>
30624919

>  <DOI>
10.1021/acs.jmedchem.8b01226

$$$$
2421666
Actelion Java MolfileCreator 1.0

 22 24  0  0  0  0  0  0  0  0999 V2000
    0.0000   -0.0000   -0.0000 O   0  0  0  0  0  0  0  0  0  0  0  0
   -0.0118    1.5043   -0.0000 C   0  0  0  0  0  0  0  0  0  0  0  0
    1.2674    2.2623   -0.0000 O   0  0  0  0  0  0  0  0  0  0  0  0
   -1.3147    2.2623   -0.0000 N   0  0  0  0  0  0  0  0  0  0  0  0
    2.5466    1.5279   -0.0000 C   0  0  0  0  0  0  0  0  0  0  0  0
   -2.7716    1.8951   -0.0000 C   0  0  0  0  0  0  0  0  0  0  0  0
   -1.7056    3.7192   -0.0000 C   0  0  0  0  0  0  0  0  0  0  0  0
    3.8258    2.2860   -0.0000 C   0  0  0  0  0  0  0  0  0  0  0  0
   -3.1625    3.3520   -0.0000 C   0  0  0  0  0  0  0  0  0  0  0  0
   -3.5770    4.8089   -0.0000 C   0  0  0  0  0  0  0  0  0  0  0  0
   -4.6194    2.9730   -0.0000 C   0  0  0  0  0  0  0  0  0  0  0  0
   -5.0221    4.4299   -0.0000 C   0  0  0  0  0  0  0  0  0  0  0  0
   -6.3368    5.1761   -0.0000 C   0  0  0  0  0  0  0  0  0  0  0  0
   -7.6397    4.4299   -0.0000 C   0  0  0  0  0  0  0  0  0  0  0  0
   -8.9426    3.6837   -0.0000 C   0  0  0  0  0  0  0  0  0  0  0  0
  -10.2455    2.9493   -0.0000 C   0  0  0  0  0  0  0  0  0  0  0  0
  -10.2574    1.4569   -0.0000 N   0  0  0  0  0  0  0  0  0  0  0  0
  -11.5484    3.7073   -0.0000 C   0  0  0  0  0  0  0  0  0  0  0  0
  -11.5721    0.7225   -0.0000 C   0  0  0  0  0  0  0  0  0  0  0  0
  -12.8513    2.9730   -0.0000 C   0  0  0  0  0  0  0  0  0  0  0  0
  -12.8750    1.4806   -0.0000 C   0  0  0  0  0  0  0  0  0  0  0  0
  -11.5840   -0.7581   -0.0000 C   0  0  0  0  0  0  0  0  0  0  0  0
  1  2  2  0  0  0  0
  2  3  1  0  0  0  0
  2  4  1  0  0  0  0
  3  5  1  0  0  0  0
  4  6  1  0  0  0  0
  4  7  1  0  0  0  0
  5  8  1  0  0  0  0
  6  9  1  0  0  0  0
  9 10  1  0  0  0  0
  9 11  1  0  0  0  0
 10 12  1  0  0  0  0
 12 13  2  0  0  0  0
 13 14  1  0  0  0  0
 14 15  3  0  0  0  0
 15 16  1  0  0  0  0
 16 17  2  0  0  0  0
 16 18  1  0  0  0  0
 17 19  1  0  0  0  0
 18 20  2  0  0  0  0
 19 21  2  0  0  0  0
 19 22  1  0  0  0  0
  7  9  1  0  0  0  0
 11 12  1  0  0  0  0
 20 21  1  0  0  0  0
M  END
>  <MolRegNo>
2421666

>  <m>
=

>  <Value>
17200

>  <Unit>
nM

>  <Type>
IC50

>  <pValue>
4.76

>  <Ligand Efficiency>
0

>  <Binding Efficiency>
0

>  <Surface Efficiency>
0

>  <Assay Index>
1327070

>  <Assay Category>


>  <Assay Organism>
Homo sapiens

>  <Target ID>
17045

>  <Target Name>
Cytochrome P450 3A4

>  <Target Organism>
Homo sapiens

>  <Target Description>
Target is a single protein chain

>  <Sequence Accession>
P08684

>  <Reference>
J Med Chem 62 (3), 1246-1273 (2019)

>  <Pubmed ID>
30624919

>  <DOI>
10.1021/acs.jmedchem.8b01226

$$$$
1954549
Actelion Java MolfileCreator 1.0

 25 27  0  0  0  0  0  0  0  0999 V2000
    0.0000   -0.0000   -0.0000 O   0  0  0  0  0  0  0  0  0  0  0  0
    0.0000   -1.2233   -0.0000 N   0  0  0  0  0  0  0  0  0  0  0  0
    1.0538   -1.8168   -0.0000 O   0  0  0  0  0  0  0  0  0  0  0  0
   -1.3444   -1.9864   -0.0000 C   0  0  0  0  0  0  0  0  0  0  0  0
   -1.3444   -3.5125   -0.0000 C   0  0  0  0  0  0  0  0  0  0  0  0
   -2.6889   -1.2112   -0.0000 C   0  0  0  0  0  0  0  0  0  0  0  0
   -2.6889   -4.2756   -0.0000 N   0  0  0  0  0  0  0  0  0  0  0  0
   -0.0242   -4.2635   -0.0000 N   0  0  0  0  0  0  0  0  0  0  0  0
   -4.0333   -1.9743   -0.0000 C   0  0  0  0  0  0  0  0  0  0  0  0
   -4.0333   -3.5004   -0.0000 C   0  0  0  0  0  0  0  0  0  0  0  0
   -0.0363   -5.7896   -0.0000 C   0  0  0  0  0  0  0  0  0  0  0  0
    1.2960   -3.4762   -0.0000 C   0  0  0  0  0  0  0  0  0  0  0  0
    1.2839   -6.5405   -0.0000 C   0  0  0  0  0  0  0  0  0  0  0  0
    2.6162   -4.2271   -0.0000 C   0  0  0  0  0  0  0  0  0  0  0  0
    2.6041   -5.7532   -0.0000 C   0  0  0  0  0  0  0  0  0  0  0  0
    3.9243   -6.5042   -0.0000 C   0  0  0  0  0  0  0  0  0  0  0  0
    5.2445   -5.7169   -0.0000 C   0  0  0  0  0  0  0  0  0  0  0  0
    6.5648   -4.9296   -0.0000 C   0  0  0  0  0  0  0  0  0  0  0  0
    7.8850   -4.1423   -0.0000 C   0  0  0  0  0  0  0  0  0  0  0  0
    7.8729   -2.5920   -0.0000 N   0  0  0  0  0  0  0  0  0  0  0  0
    9.2052   -4.9054   -0.0000 C   0  0  0  0  0  0  0  0  0  0  0  0
    9.1931   -1.8168   -0.0000 C   0  0  0  0  0  0  0  0  0  0  0  0
   10.5254   -4.1302   -0.0000 C   0  0  0  0  0  0  0  0  0  0  0  0
   10.5133   -2.5799   -0.0000 C   0  0  0  0  0  0  0  0  0  0  0  0
    9.1810   -0.5693   -0.0000 C   0  0  0  0  0  0  0  0  0  0  0  0
  1  2  2  0  0  0  0
  2  3  1  0  0  0  0
  2  4  1  0  0  0  0
  4  5  2  0  0  0  0
  4  6  1  0  0  0  0
  5  7  1  0  0  0  0
  5  8  1  0  0  0  0
  6  9  2  0  0  0  0
  7 10  2  0  0  0  0
  8 11  1  0  0  0  0
  8 12  1  0  0  0  0
 11 13  1  0  0  0  0
 12 14  1  0  0  0  0
 13 15  1  0  0  0  0
 15 16  2  0  0  0  0
 16 17  1  0  0  0  0
 17 18  3  0  0  0  0
 18 19  1  0  0  0  0
 19 20  2  0  0  0  0
 19 21  1  0  0  0  0
 20 22  1  0  0  0  0
 21 23  2  0  0  0  0
 22 24  2  0  0  0  0
 22 25  1  0  0  0  0
  9 10  1  0  0  0  0
 14 15  1  0  0  0  0
 23 24  1  0  0  0  0
M  CHG  2   2   1   3  -1
M  END
>  <MolRegNo>
1954549

>  <m>
=

>  <Value>
4500

>  <Unit>
nM

>  <Type>
IC50

>  <pValue>
5.35

>  <Ligand Efficiency>
0

>  <Binding Efficiency>
0

>  <Surface Efficiency>
0

>  <Assay Index>
1327070

>  <Assay Category>


>  <Assay Organism>
Homo sapiens

>  <Target ID>
17045

>  <Target Name>
Cytochrome P450 3A4

>  <Target Organism>
Homo sapiens

>  <Target Description>
Target is a single protein chain

>  <Sequence Accession>
P08684

>  <Reference>
J Med Chem 62 (3), 1246-1273 (2019)

>  <Pubmed ID>
30624919

>  <DOI>
10.1021/acs.jmedchem.8b01226

$$$$
2146132
Actelion Java MolfileCreator 1.0

 35 39  0  0  0  0  0  0  0  0999 V2000
    0.0000   -0.0000   -0.0000 O   0  0  0  0  0  0  0  0  0  0  0  0
    1.4198    0.4733   -0.0000 C   0  0  0  0  0  0  0  0  0  0  0  0
    1.7985    1.9404   -0.0000 N   0  0  0  0  0  0  0  0  0  0  0  0
    2.4729   -0.5798   -0.0000 C   0  0  0  0  0  0  0  0  0  0  0  0
    3.9400   -0.3313   -0.0000 C   0  0  0  0  0  0  0  0  0  0  0  0
    2.2244   -2.0469   -0.0000 C   0  0  0  0  0  0  0  0  0  0  0  0
    4.6145   -1.6565   -0.0000 N   0  0  0  0  0  0  0  0  0  0  0  0
    4.7446    0.9466   -0.0000 N   0  0  0  0  0  0  0  0  0  0  0  0
    3.5496   -2.7213   -0.0000 N   0  0  0  0  0  0  0  0  0  0  0  0
    0.8874   -2.7332   -0.0000 C   0  0  0  0  0  0  0  0  0  0  0  0
    6.1053   -1.7275   -0.0000 C   0  0  0  0  0  0  0  0  0  0  0  0
    6.2354    0.8756   -0.0000 C   0  0  0  0  0  0  0  0  0  0  0  0
   -0.4259   -1.9759   -0.0000 C   0  0  0  0  0  0  0  0  0  0  0  0
    0.8756   -4.2240   -0.0000 C   0  0  0  0  0  0  0  0  0  0  0  0
    6.7797   -3.0526   -0.0000 C   0  0  0  0  0  0  0  0  0  0  0  0
    6.9099   -0.4496   -0.0000 C   0  0  0  0  0  0  0  0  0  0  0  0
   -1.7393   -2.7095   -0.0000 C   0  0  0  0  0  0  0  0  0  0  0  0
   -0.4378   -4.9694   -0.0000 C   0  0  0  0  0  0  0  0  0  0  0  0
    8.2705   -3.0290   -0.0000 C   0  0  0  0  0  0  0  0  0  0  0  0
    6.0225   -4.3423   -0.0000 C   0  0  0  0  0  0  0  0  0  0  0  0
   -1.7511   -4.2003   -0.0000 C   0  0  0  0  0  0  0  0  0  0  0  0
    9.0159   -4.3187   -0.0000 C   0  0  0  0  0  0  0  0  0  0  0  0
    6.7679   -5.6320   -0.0000 C   0  0  0  0  0  0  0  0  0  0  0  0
   -3.0645   -4.9458   -0.0000 O   0  0  0  0  0  0  0  0  0  0  0  0
    8.2587   -5.6083   -0.0000 N   0  0  0  0  0  0  0  0  0  0  0  0
   -4.3778   -4.1767   -0.0000 C   0  0  0  0  0  0  0  0  0  0  0  0
    9.0751   -6.8507   -0.0000 C   0  0  0  0  0  0  0  0  0  0  0  0
   -4.3896   -2.6622   -0.0000 C   0  0  0  0  0  0  0  0  0  0  0  0
   -5.6912   -4.9221   -0.0000 C   0  0  0  0  0  0  0  0  0  0  0  0
    8.3179   -8.1404   -0.0000 O   0  0  0  0  0  0  0  0  0  0  0  0
   10.5659   -6.9099   -0.0000 C   0  0  0  0  0  0  0  0  0  0  0  0
   -5.7030   -1.9049   -0.0000 C   0  0  0  0  0  0  0  0  0  0  0  0
   -7.0045   -4.1530   -0.0000 C   0  0  0  0  0  0  0  0  0  0  0  0
   11.2403   -8.2350   -0.0000 C   0  0  0  0  0  0  0  0  0  0  0  0
   -7.0163   -2.6385   -0.0000 C   0  0  0  0  0  0  0  0  0  0  0  0
  1  2  2  0  0  0  0
  2  3  1  0  0  0  0
  2  4  1  0  0  0  0
  4  5  2  0  0  0  0
  4  6  1  0  0  0  0
  5  7  1  0  0  0  0
  5  8  1  0  0  0  0
  6  9  2  0  0  0  0
  6 10  1  0  0  0  0
  7 11  1  0  0  0  0
  8 12  1  0  0  0  0
 10 13  2  0  0  0  0
 10 14  1  0  0  0  0
 11 15  1  1  0  0  0
 11 16  1  0  0  0  0
 13 17  1  0  0  0  0
 14 18  2  0  0  0  0
 15 19  1  0  0  0  0
 15 20  1  0  0  0  0
 17 21  2  0  0  0  0
 19 22  1  0  0  0  0
 20 23  1  0  0  0  0
 21 24  1  0  0  0  0
 22 25  1  0  0  0  0
 24 26  1  0  0  0  0
 25 27  1  0  0  0  0
 26 28  2  0  0  0  0
 26 29  1  0  0  0  0
 27 30  2  0  0  0  0
 27 31  1  0  0  0  0
 28 32  1  0  0  0  0
 29 33  2  0  0  0  0
 31 34  2  0  0  0  0
 32 35  2  0  0  0  0
  7  9  1  0  0  0  0
 12 16  1  0  0  0  0
 18 21  1  0  0  0  0
 23 25  1  0  0  0  0
 33 35  1  0  0  0  0
M  END
>  <MolRegNo>
2146132

>  <m>
=

>  <Value>
14300

>  <Unit>
nM

>  <Type>
IC50

>  <pValue>
4.84

>  <Ligand Efficiency>
0

>  <Binding Efficiency>
0

>  <Surface Efficiency>
0

>  <Assay Index>
1328408

>  <Assay Category>


>  <Assay Organism>
Homo sapiens

>  <Target ID>
17045

>  <Target Name>
Cytochrome P450 3A4

>  <Target Organism>
Homo sapiens

>  <Target Description>
Target is a single protein chain

>  <Sequence Accession>
P08684

>  <Reference>
J Med Chem 62 (17), 7923-7940 (2019)

>  <Pubmed ID>
31381333

>  <DOI>
10.1021/acs.jmedchem.9b00687

$$$$
2367037
Actelion Java MolfileCreator 1.0

 33 36  0  0  0  0  0  0  0  0999 V2000
    0.0000   -0.0000   -0.0000 S   0  0  0  0  0  0  0  0  0  0  0  0
   -0.7549    1.3092   -0.0000 O   0  0  0  0  0  0  0  0  0  0  0  0
    0.7431    1.3092   -0.0000 O   0  0  0  0  0  0  0  0  0  0  0  0
    1.2856   -0.7313   -0.0000 N   0  0  0  0  0  0  0  0  0  0  0  0
   -1.2974   -0.7313   -0.0000 C   0  0  0  0  0  0  0  0  0  0  0  0
    2.5713    0.0236   -0.0000 C   0  0  0  0  0  0  0  0  0  0  0  0
   -1.3092   -2.2174   -0.0000 C   0  0  0  0  0  0  0  0  0  0  0  0
   -2.6066    0.0236   -0.0000 C   0  0  0  0  0  0  0  0  0  0  0  0
    2.7128    1.5215   -0.0000 N   0  0  0  0  0  0  0  0  0  0  0  0
    3.9277   -0.5661   -0.0000 C   0  0  0  0  0  0  0  0  0  0  0  0
   -0.0236   -2.9487   -0.0000 F   0  0  0  0  0  0  0  0  0  0  0  0
   -2.6066   -2.9605   -0.0000 C   0  0  0  0  0  0  0  0  0  0  0  0
   -2.6184    1.5333   -0.0000 F   0  0  0  0  0  0  0  0  0  0  0  0
   -3.9041   -0.7077   -0.0000 C   0  0  0  0  0  0  0  0  0  0  0  0
    4.1636    1.8518   -0.0000 C   0  0  0  0  0  0  0  0  0  0  0  0
    4.9184    0.5544   -0.0000 S   0  0  0  0  0  0  0  0  0  0  0  0
   -3.9159   -2.1938   -0.0000 C   0  0  0  0  0  0  0  0  0  0  0  0
   -5.2251   -2.9369   -0.0000 N   0  0  0  0  0  0  0  0  0  0  0  0
   -6.5343   -2.1702   -0.0000 C   0  0  0  0  0  0  0  0  0  0  0  0
   -7.8435   -2.9133   -0.0000 C   0  0  0  0  0  0  0  0  0  0  0  0
   -7.8553   -4.3995   -0.0000 C   0  0  0  0  0  0  0  0  0  0  0  0
   -9.1527   -2.1466   -0.0000 C   0  0  0  0  0  0  0  0  0  0  0  0
   -6.5697   -5.1307   -0.0000 F   0  0  0  0  0  0  0  0  0  0  0  0
   -9.1527   -5.1307   -0.0000 C   0  0  0  0  0  0  0  0  0  0  0  0
  -10.4620   -2.8897   -0.0000 C   0  0  0  0  0  0  0  0  0  0  0  0
   -9.1645   -0.6369   -0.0000 C   0  0  0  0  0  0  0  0  0  0  0  0
  -10.4620   -4.3759   -0.0000 C   0  0  0  0  0  0  0  0  0  0  0  0
  -10.4738    0.1179   -0.0000 N   0  0  0  0  0  0  0  0  0  0  0  0
  -10.8748    1.5805   -0.0000 C   0  0  0  0  0  0  0  0  0  0  0  0
  -11.9481   -0.2595   -0.0000 C   0  0  0  0  0  0  0  0  0  0  0  0
  -12.3491    1.1913   -0.0000 C   0  0  0  0  0  0  0  0  0  0  0  0
  -10.4974    3.0313   -0.0000 C   0  0  0  0  0  0  0  0  0  0  0  0
   -9.4358    1.9697   -0.0000 C   0  0  0  0  0  0  0  0  0  0  0  0
  1  2  2  0  0  0  0
  1  3  2  0  0  0  0
  1  4  1  0  0  0  0
  1  5  1  0  0  0  0
  4  6  1  0  0  0  0
  5  7  2  0  0  0  0
  5  8  1  0  0  0  0
  6  9  1  0  0  0  0
  6 10  2  0  0  0  0
  7 11  1  0  0  0  0
  7 12  1  0  0  0  0
  8 13  1  0  0  0  0
  8 14  2  0  0  0  0
  9 15  2  0  0  0  0
 10 16  1  0  0  0  0
 12 17  2  0  0  0  0
 17 18  1  0  0  0  0
 18 19  1  0  0  0  0
 19 20  1  0  0  0  0
 20 21  2  0  0  0  0
 20 22  1  0  0  0  0
 21 23  1  0  0  0  0
 21 24  1  0  0  0  0
 22 25  2  0  0  0  0
 22 26  1  0  0  0  0
 24 27  2  0  0  0  0
 26 28  1  0  0  0  0
 28 29  1  0  0  0  0
 28 30  1  0  0  0  0
 29 31  1  0  0  0  0
 29 32  1  0  0  0  0
 29 33  1  0  0  0  0
 14 17  1  0  0  0  0
 15 16  1  0  0  0  0
 25 27  1  0  0  0  0
 30 31  1  0  0  0  0
M  END
>  <MolRegNo>
2367037

>  <m>
=

>  <Value>
50000

>  <Unit>
nM

>  <Type>
IC50

>  <pValue>
4.3

>  <Ligand Efficiency>
0

>  <Binding Efficiency>
0

>  <Surface Efficiency>
0

>  <Assay Index>
1329332

>  <Assay Category>


>  <Assay Organism>
Homo sapiens

>  <Target ID>
17045

>  <Target Name>
Cytochrome P450 3A4

>  <Target Organism>
Homo sapiens

>  <Target Description>
Target is a single protein chain

>  <Sequence Accession>
P08684

>  <Reference>
J Med Chem 62 (21), 9618-9641 (2019)

>  <Pubmed ID>
31525968

>  <DOI>
10.1021/acs.jmedchem.9b01032

$$$$
2378834
Actelion Java MolfileCreator 1.0

 33 35  0  0  0  0  0  0  0  0999 V2000
    0.0000   -0.0000   -0.0000 S   0  0  0  0  0  0  0  0  0  0  0  0
   -0.7673    1.3103   -0.0000 O   0  0  0  0  0  0  0  0  0  0  0  0
    0.7319    1.3103   -0.0000 O   0  0  0  0  0  0  0  0  0  0  0  0
    1.2867   -0.7437   -0.0000 N   0  0  0  0  0  0  0  0  0  0  0  0
   -1.3103   -0.7437   -0.0000 C   0  0  0  0  0  0  0  0  0  0  0  0
    2.5735    0.0236   -0.0000 C   0  0  0  0  0  0  0  0  0  0  0  0
   -1.3221   -2.2193   -0.0000 C   0  0  0  0  0  0  0  0  0  0  0  0
   -2.6207    0.0236   -0.0000 C   0  0  0  0  0  0  0  0  0  0  0  0
    2.7151    1.5228   -0.0000 N   0  0  0  0  0  0  0  0  0  0  0  0
    3.9310   -0.5784   -0.0000 C   0  0  0  0  0  0  0  0  0  0  0  0
   -0.0354   -2.9512   -0.0000 F   0  0  0  0  0  0  0  0  0  0  0  0
   -2.6207   -2.9630   -0.0000 C   0  0  0  0  0  0  0  0  0  0  0  0
   -2.6325    1.5346   -0.0000 F   0  0  0  0  0  0  0  0  0  0  0  0
   -3.9192   -0.7083   -0.0000 C   0  0  0  0  0  0  0  0  0  0  0  0
    4.1671    1.8416   -0.0000 C   0  0  0  0  0  0  0  0  0  0  0  0
    4.9226    0.5430   -0.0000 S   0  0  0  0  0  0  0  0  0  0  0  0
   -3.9310   -2.1957   -0.0000 C   0  0  0  0  0  0  0  0  0  0  0  0
   -5.2414   -2.9276   -0.0000 N   0  0  0  0  0  0  0  0  0  0  0  0
   -6.5517   -2.1721   -0.0000 C   0  0  0  0  0  0  0  0  0  0  0  0
   -7.8620   -2.9040   -0.0000 C   0  0  0  0  0  0  0  0  0  0  0  0
   -7.8738   -4.3914   -0.0000 C   0  0  0  0  0  0  0  0  0  0  0  0
   -9.1724   -2.1485   -0.0000 C   0  0  0  0  0  0  0  0  0  0  0  0
   -6.5871   -5.1233   -0.0000 F   0  0  0  0  0  0  0  0  0  0  0  0
   -9.1724   -5.1233   -0.0000 C   0  0  0  0  0  0  0  0  0  0  0  0
  -10.4827   -2.8804   -0.0000 C   0  0  0  0  0  0  0  0  0  0  0  0
   -9.1842   -0.6375   -0.0000 C   0  0  0  0  0  0  0  0  0  0  0  0
  -10.4827   -4.3796   -0.0000 C   0  0  0  0  0  0  0  0  0  0  0  0
  -10.4945    0.1299   -0.0000 N   0  0  0  0  0  0  0  0  0  0  0  0
  -11.8049   -0.6139   -0.0000 C   0  0  0  0  0  0  0  0  0  0  0  0
  -10.5063    1.6291   -0.0000 C   0  0  0  0  0  0  0  0  0  0  0  0
  -11.8167   -2.1013   -0.0000 C   0  0  0  0  0  0  0  0  0  0  0  0
  -13.1152    0.1535   -0.0000 C   0  0  0  0  0  0  0  0  0  0  0  0
  -13.1152   -1.3458   -0.0000 C   0  0  0  0  0  0  0  0  0  0  0  0
  1  2  2  0  0  0  0
  1  3  2  0  0  0  0
  1  4  1  0  0  0  0
  1  5  1  0  0  0  0
  4  6  1  0  0  0  0
  5  7  2  0  0  0  0
  5  8  1  0  0  0  0
  6  9  1  0  0  0  0
  6 10  2  0  0  0  0
  7 11  1  0  0  0  0
  7 12  1  0  0  0  0
  8 13  1  0  0  0  0
  8 14  2  0  0  0  0
  9 15  2  0  0  0  0
 10 16  1  0  0  0  0
 12 17  2  0  0  0  0
 17 18  1  0  0  0  0
 18 19  1  0  0  0  0
 19 20  1  0  0  0  0
 20 21  2  0  0  0  0
 20 22  1  0  0  0  0
 21 23  1  0  0  0  0
 21 24  1  0  0  0  0
 22 25  2  0  0  0  0
 22 26  1  0  0  0  0
 24 27  2  0  0  0  0
 26 28  1  0  0  0  0
 28 29  1  0  0  0  0
 28 30  1  0  0  0  0
 29 31  1  0  0  0  0
 29 32  1  0  0  0  0
 29 33  1  0  0  0  0
 14 17  1  0  0  0  0
 15 16  1  0  0  0  0
 25 27  1  0  0  0  0
M  END
>  <MolRegNo>
2378834

>  <m>
=

>  <Value>
50000

>  <Unit>
nM

>  <Type>
IC50

>  <pValue>
4.3

>  <Ligand Efficiency>
0

>  <Binding Efficiency>
0

>  <Surface Efficiency>
0

>  <Assay Index>
1329332

>  <Assay Category>


>  <Assay Organism>
Homo sapiens

>  <Target ID>
17045

>  <Target Name>
Cytochrome P450 3A4

>  <Target Organism>
Homo sapiens

>  <Target Description>
Target is a single protein chain

>  <Sequence Accession>
P08684

>  <Reference>
J Med Chem 62 (21), 9618-9641 (2019)

>  <Pubmed ID>
31525968

>  <DOI>
10.1021/acs.jmedchem.9b01032

$$$$
2342063
Actelion Java MolfileCreator 1.0

 32 34  0  0  0  0  0  0  0  0999 V2000
    0.0000   -0.0000   -0.0000 S   0  0  0  0  0  0  0  0  0  0  0  0
   -0.7555    1.3103   -0.0000 O   0  0  0  0  0  0  0  0  0  0  0  0
    0.7437    1.3103   -0.0000 O   0  0  0  0  0  0  0  0  0  0  0  0
    1.2867   -0.7437   -0.0000 N   0  0  0  0  0  0  0  0  0  0  0  0
   -1.2985   -0.7437   -0.0000 C   0  0  0  0  0  0  0  0  0  0  0  0
    2.5734    0.0236   -0.0000 C   0  0  0  0  0  0  0  0  0  0  0  0
   -1.3103   -2.2193   -0.0000 C   0  0  0  0  0  0  0  0  0  0  0  0
   -2.6088    0.0236   -0.0000 C   0  0  0  0  0  0  0  0  0  0  0  0
    2.7151    1.5228   -0.0000 N   0  0  0  0  0  0  0  0  0  0  0  0
    3.9310   -0.5784   -0.0000 C   0  0  0  0  0  0  0  0  0  0  0  0
   -0.0236   -2.9512   -0.0000 F   0  0  0  0  0  0  0  0  0  0  0  0
   -2.6088   -2.9630   -0.0000 C   0  0  0  0  0  0  0  0  0  0  0  0
   -2.6207    1.5346   -0.0000 F   0  0  0  0  0  0  0  0  0  0  0  0
   -3.9074   -0.7083   -0.0000 C   0  0  0  0  0  0  0  0  0  0  0  0
    4.1671    1.8415   -0.0000 C   0  0  0  0  0  0  0  0  0  0  0  0
    4.9226    0.5430   -0.0000 S   0  0  0  0  0  0  0  0  0  0  0  0
   -3.9192   -2.1957   -0.0000 C   0  0  0  0  0  0  0  0  0  0  0  0
   -5.2295   -2.9276   -0.0000 N   0  0  0  0  0  0  0  0  0  0  0  0
   -6.5398   -2.1721   -0.0000 C   0  0  0  0  0  0  0  0  0  0  0  0
   -7.8501   -2.9040   -0.0000 C   0  0  0  0  0  0  0  0  0  0  0  0
   -7.8620   -4.3914   -0.0000 C   0  0  0  0  0  0  0  0  0  0  0  0
   -9.1605   -2.1485   -0.0000 C   0  0  0  0  0  0  0  0  0  0  0  0
   -6.5752   -5.1233   -0.0000 F   0  0  0  0  0  0  0  0  0  0  0  0
   -9.1605   -5.1233   -0.0000 C   0  0  0  0  0  0  0  0  0  0  0  0
  -10.4708   -2.8804   -0.0000 C   0  0  0  0  0  0  0  0  0  0  0  0
   -9.1723   -0.6375   -0.0000 C   0  0  0  0  0  0  0  0  0  0  0  0
  -10.4708   -4.3796   -0.0000 C   0  0  0  0  0  0  0  0  0  0  0  0
  -10.4826    0.1299   -0.0000 N   0  0  0  0  0  0  0  0  0  0  0  0
  -11.7929   -0.6138   -0.0000 C   0  0  0  0  0  0  0  0  0  0  0  0
  -10.4944    1.6409   -0.0000 C   0  0  0  0  0  0  0  0  0  0  0  0
  -13.1033    0.1535   -0.0000 C   0  0  0  0  0  0  0  0  0  0  0  0
  -11.8047   -2.1012   -0.0000 C   0  0  0  0  0  0  0  0  0  0  0  0
  1  2  2  0  0  0  0
  1  3  2  0  0  0  0
  1  4  1  0  0  0  0
  1  5  1  0  0  0  0
  4  6  1  0  0  0  0
  5  7  2  0  0  0  0
  5  8  1  0  0  0  0
  6  9  1  0  0  0  0
  6 10  2  0  0  0  0
  7 11  1  0  0  0  0
  7 12  1  0  0  0  0
  8 13  1  0  0  0  0
  8 14  2  0  0  0  0
  9 15  2  0  0  0  0
 10 16  1  0  0  0  0
 12 17  2  0  0  0  0
 17 18  1  0  0  0  0
 18 19  1  0  0  0  0
 19 20  1  0  0  0  0
 20 21  2  0  0  0  0
 20 22  1  0  0  0  0
 21 23  1  0  0  0  0
 21 24  1  0  0  0  0
 22 25  2  0  0  0  0
 22 26  1  0  0  0  0
 24 27  2  0  0  0  0
 26 28  1  0  0  0  0
 28 29  1  0  0  0  0
 28 30  1  0  0  0  0
 29 31  1  0  0  0  0
 29 32  1  0  0  0  0
 14 17  1  0  0  0  0
 15 16  1  0  0  0  0
 25 27  1  0  0  0  0
M  END
>  <MolRegNo>
2342063

>  <m>
=

>  <Value>
38000

>  <Unit>
nM

>  <Type>
IC50

>  <pValue>
4.42

>  <Ligand Efficiency>
0

>  <Binding Efficiency>
0

>  <Surface Efficiency>
0

>  <Assay Index>
1329332

>  <Assay Category>


>  <Assay Organism>
Homo sapiens

>  <Target ID>
17045

>  <Target Name>
Cytochrome P450 3A4

>  <Target Organism>
Homo sapiens

>  <Target Description>
Target is a single protein chain

>  <Sequence Accession>
P08684

>  <Reference>
J Med Chem 62 (21), 9618-9641 (2019)

>  <Pubmed ID>
31525968

>  <DOI>
10.1021/acs.jmedchem.9b01032

$$$$
2370486
Actelion Java MolfileCreator 1.0

 27 27  0  0  0  0  0  0  0  0999 V2000
    0.0000   -0.0000   -0.0000 O   0  0  0  0  0  0  0  0  0  0  0  0
   -0.7564   -1.2883   -0.0000 C   0  0  0  0  0  0  0  0  0  0  0  0
   -2.2693   -1.2765   -0.0000 N   0  0  0  0  0  0  0  0  0  0  0  0
   -0.0236   -2.5766   -0.0000 C   0  0  0  0  0  0  0  0  0  0  0  0
   -3.0375    0.0355   -0.0000 C   0  0  0  0  0  0  0  0  0  0  0  0
   -0.7801   -3.8649   -0.0000 O   0  0  0  0  0  0  0  0  0  0  0  0
    1.4656   -2.5648   -0.0000 N   0  0  0  0  0  0  0  0  0  0  0  0
   -4.5504    0.0473   -0.0000 C   0  0  0  0  0  0  0  0  0  0  0  0
    2.1984   -3.8531   -0.0000 C   0  0  0  0  0  0  0  0  0  0  0  0
   -5.3068    1.3592   -0.0000 C   0  0  0  0  0  0  0  0  0  0  0  0
   -6.8197    1.3710   -0.0000 C   0  0  0  0  0  0  0  0  0  0  0  0
   -7.5761    0.0827   -0.0000 C   0  0  0  0  0  0  0  0  0  0  0  0
   -9.0890    0.0946   -0.0000 C   0  0  0  0  0  0  0  0  0  0  0  0
   -9.8454    1.4065   -0.0000 C   0  0  0  0  0  0  0  0  0  0  0  0
   -9.1126    2.7184   -0.0000 C   0  0  0  0  0  0  0  0  0  0  0  0
   -7.6234    2.7302   -0.0000 C   0  0  0  0  0  0  0  0  0  0  0  0
   -6.8906    4.0422   -0.0000 C   0  0  0  0  0  0  0  0  0  0  0  0
   -5.4014    4.0540   -0.0000 C   0  0  0  0  0  0  0  0  0  0  0  0
   -4.6686    2.7657   -0.0000 C   0  0  0  0  0  0  0  0  0  0  0  0
   -3.1794    2.7775   -0.0000 C   0  0  0  0  0  0  0  0  0  0  0  0
   -2.4348    4.0894   -0.0000 C   0  0  0  0  0  0  0  0  0  0  0  0
   -0.9455    4.1013   -0.0000 C   0  0  0  0  0  0  0  0  0  0  0  0
   -0.2127    5.4132   -0.0000 C   0  0  0  0  0  0  0  0  0  0  0  0
   -0.8392    6.7960   -0.0000 N   0  0  0  0  0  0  0  0  0  0  0  0
    1.2647    5.5905   -0.0000 N   0  0  0  0  0  0  0  0  0  0  0  0
    0.2600    7.8125   -0.0000 N   0  0  0  0  0  0  0  0  0  0  0  0
    1.5601    7.0679   -0.0000 N   0  0  0  0  0  0  0  0  0  0  0  0
  1  2  2  0  0  0  0
  2  3  1  0  0  0  0
  2  4  1  0  0  0  0
  3  5  1  0  0  0  0
  4  6  2  0  0  0  0
  4  7  1  0  0  0  0
  5  8  1  0  0  0  0
  7  9  1  0  0  0  0
  8 10  1  0  0  0  0
 10 11  1  0  0  0  0
 11 12  1  0  0  0  0
 12 13  2  0  0  0  0
 13 14  1  0  0  0  0
 14 15  1  0  0  0  0
 15 16  1  0  0  0  0
 16 17  1  0  0  0  0
 17 18  1  0  0  0  0
 18 19  1  0  0  0  0
 19 20  1  0  0  0  0
 20 21  1  0  0  0  0
 21 22  1  0  0  0  0
 22 23  1  0  0  0  0
 23 24  2  0  0  0  0
 23 25  1  0  0  0  0
 24 26  1  0  0  0  0
 25 27  1  0  0  0  0
 26 27  2  0  0  0  0
M  END
>  <MolRegNo>
2370486

>  <m>
=

>  <Value>
4700

>  <Unit>
nM

>  <Type>
IC50

>  <pValue>
5.33

>  <Ligand Efficiency>
0

>  <Binding Efficiency>
0

>  <Surface Efficiency>
0

>  <Assay Index>
1330377

>  <Assay Category>


>  <Assay Organism>
Homo sapiens

>  <Target ID>
17045

>  <Target Name>
Cytochrome P450 3A4

>  <Target Organism>
Homo sapiens

>  <Target Description>
Target is a single protein chain

>  <Sequence Accession>
P08684

>  <Reference>
J Med Chem 62 (22), 10124-10143 (2019)

>  <Pubmed ID>
31693857

>  <DOI>
10.1021/acs.jmedchem.9b00952

$$$$
2408167
Actelion Java MolfileCreator 1.0

 22 24  0  0  0  0  0  0  0  0999 V2000
    0.0000   -0.0000   -0.0000 S   0  0  0  0  0  0  0  0  0  0  0  0
    0.8557   -1.2123   -0.0000 C   0  0  0  0  0  0  0  0  0  0  0  0
   -1.4499   -0.4397   -0.0000 C   0  0  0  0  0  0  0  0  0  0  0  0
    2.3532   -1.2123   -0.0000 C   0  0  0  0  0  0  0  0  0  0  0  0
   -0.0475   -2.4126   -0.0000 C   0  0  0  0  0  0  0  0  0  0  0  0
   -1.4737   -1.9372   -0.0000 C   0  0  0  0  0  0  0  0  0  0  0  0
    3.0901   -2.5077   -0.0000 N   0  0  0  0  0  0  0  0  0  0  0  0
    3.3515   -0.0832   -0.0000 N   0  0  0  0  0  0  0  0  0  0  0  0
    4.5519   -2.1749   -0.0000 N   0  0  0  0  0  0  0  0  0  0  0  0
    4.7183   -0.6774   -0.0000 C   0  0  0  0  0  0  0  0  0  0  0  0
    3.0306    1.4024   -0.0000 C   0  0  0  0  0  0  0  0  0  0  0  0
    6.0018    0.0832   -0.0000 S   0  0  0  0  0  0  0  0  0  0  0  0
    7.2973   -0.6537   -0.0000 C   0  0  0  0  0  0  0  0  0  0  0  0
    7.2854   -2.1512   -0.0000 C   0  0  0  0  0  0  0  0  0  0  0  0
    8.5808    0.1188   -0.0000 C   0  0  0  0  0  0  0  0  0  0  0  0
    8.5808   -2.8999   -0.0000 C   0  0  0  0  0  0  0  0  0  0  0  0
    9.8763   -0.6061   -0.0000 C   0  0  0  0  0  0  0  0  0  0  0  0
    9.8763   -2.1274   -0.0000 C   0  0  0  0  0  0  0  0  0  0  0  0
   11.1717   -2.8761   -0.0000 C   0  0  0  0  0  0  0  0  0  0  0  0
   11.1598   -4.3736   -0.0000 O   0  0  0  0  0  0  0  0  0  0  0  0
   12.4672   -2.1036   -0.0000 N   0  0  0  0  0  0  0  0  0  0  0  0
   13.7626   -2.8524   -0.0000 O   0  0  0  0  0  0  0  0  0  0  0  0
  1  2  1  0  0  0  0
  1  3  1  0  0  0  0
  2  4  1  0  0  0  0
  2  5  2  0  0  0  0
  3  6  2  0  0  0  0
  4  7  2  0  0  0  0
  4  8  1  0  0  0  0
  7  9  1  0  0  0  0
  8 10  1  0  0  0  0
  8 11  1  0  0  0  0
 10 12  1  0  0  0  0
 12 13  1  0  0  0  0
 13 14  2  0  0  0  0
 13 15  1  0  0  0  0
 14 16  1  0  0  0  0
 15 17  2  0  0  0  0
 16 18  2  0  0  0  0
 18 19  1  0  0  0  0
 19 20  2  0  0  0  0
 19 21  1  0  0  0  0
 21 22  1  0  0  0  0
  5  6  1  0  0  0  0
  9 10  2  0  0  0  0
 17 18  1  0  0  0  0
M  END
>  <MolRegNo>
2408167

>  <m>
=

>  <Value>
26600

>  <Unit>
nM

>  <Type>
IC50

>  <pValue>
4.58

>  <Ligand Efficiency>
0

>  <Binding Efficiency>
0

>  <Surface Efficiency>
0

>  <Assay Index>
1330453

>  <Assay Category>


>  <Assay Organism>
Homo sapiens

>  <Target ID>
17045

>  <Target Name>
Cytochrome P450 3A4

>  <Target Organism>
Homo sapiens

>  <Target Description>
Target is a single protein chain

>  <Sequence Accession>
P08684

>  <Reference>
J Med Chem 62 (23), 10711-10739 (2019)

>  <Pubmed ID>
31710483

>  <DOI>
10.1021/acs.jmedchem.9b01194

$$$$
2355419
Actelion Java MolfileCreator 1.0

 21 23  0  0  0  0  0  0  0  0999 V2000
    0.0000   -0.0000   -0.0000 S   0  0  0  0  0  0  0  0  0  0  0  0
    1.3696   -0.5955   -0.0000 C   0  0  0  0  0  0  0  0  0  0  0  0
    0.1429    1.5125   -0.0000 C   0  0  0  0  0  0  0  0  0  0  0  0
    1.6793   -2.0604   -0.0000 C   0  0  0  0  0  0  0  0  0  0  0  0
    2.3581    0.5359   -0.0000 C   0  0  0  0  0  0  0  0  0  0  0  0
    1.6078    1.8460   -0.0000 C   0  0  0  0  0  0  0  0  0  0  0  0
    0.6669   -3.1680   -0.0000 N   0  0  0  0  0  0  0  0  0  0  0  0
    3.0370   -2.6559   -0.0000 N   0  0  0  0  0  0  0  0  0  0  0  0
    1.4053   -4.4542   -0.0000 N   0  0  0  0  0  0  0  0  0  0  0  0
    2.8702   -4.1446   -0.0000 N   0  0  0  0  0  0  0  0  0  0  0  0
    4.3232   -1.8936   -0.0000 C   0  0  0  0  0  0  0  0  0  0  0  0
    5.6095   -2.6320   -0.0000 C   0  0  0  0  0  0  0  0  0  0  0  0
    5.5976   -4.1327   -0.0000 C   0  0  0  0  0  0  0  0  0  0  0  0
    6.8957   -1.8579   -0.0000 C   0  0  0  0  0  0  0  0  0  0  0  0
    6.8957   -4.8830   -0.0000 C   0  0  0  0  0  0  0  0  0  0  0  0
    8.1939   -2.5844   -0.0000 C   0  0  0  0  0  0  0  0  0  0  0  0
    8.1939   -4.1088   -0.0000 C   0  0  0  0  0  0  0  0  0  0  0  0
    9.4920   -4.8592   -0.0000 C   0  0  0  0  0  0  0  0  0  0  0  0
    9.4801   -6.3598   -0.0000 O   0  0  0  0  0  0  0  0  0  0  0  0
   10.7902   -4.0850   -0.0000 N   0  0  0  0  0  0  0  0  0  0  0  0
   12.0884   -4.8353   -0.0000 O   0  0  0  0  0  0  0  0  0  0  0  0
  1  2  1  0  0  0  0
  1  3  1  0  0  0  0
  2  4  1  0  0  0  0
  2  5  2  0  0  0  0
  3  6  2  0  0  0  0
  4  7  2  0  0  0  0
  4  8  1  0  0  0  0
  7  9  1  0  0  0  0
  8 10  1  0  0  0  0
  8 11  1  0  0  0  0
 11 12  1  0  0  0  0
 12 13  2  0  0  0  0
 12 14  1  0  0  0  0
 13 15  1  0  0  0  0
 14 16  2  0  0  0  0
 15 17  2  0  0  0  0
 17 18  1  0  0  0  0
 18 19  2  0  0  0  0
 18 20  1  0  0  0  0
 20 21  1  0  0  0  0
  5  6  1  0  0  0  0
  9 10  2  0  0  0  0
 16 17  1  0  0  0  0
M  END
>  <MolRegNo>
2355419

>  <m>
=

>  <Value>
47400

>  <Unit>
nM

>  <Type>
IC50

>  <pValue>
4.32

>  <Ligand Efficiency>
0

>  <Binding Efficiency>
0

>  <Surface Efficiency>
0

>  <Assay Index>
1330453

>  <Assay Category>


>  <Assay Organism>
Homo sapiens

>  <Target ID>
17045

>  <Target Name>
Cytochrome P450 3A4

>  <Target Organism>
Homo sapiens

>  <Target Description>
Target is a single protein chain

>  <Sequence Accession>
P08684

>  <Reference>
J Med Chem 62 (23), 10711-10739 (2019)

>  <Pubmed ID>
31710483

>  <DOI>
10.1021/acs.jmedchem.9b01194

$$$$
2350451
Actelion Java MolfileCreator 1.0

 13 14  0  0  0  0  0  0  0  0999 V2000
    0.0000   -0.0000   -0.0000 O   0  0  0  0  0  0  0  0  0  0  0  0
   -0.1666   -1.4879   -0.0000 C   0  0  0  0  0  0  0  0  0  0  0  0
    1.4522    0.3333   -0.0000 C   0  0  0  0  0  0  0  0  0  0  0  0
   -1.4760   -2.2259   -0.0000 C   0  0  0  0  0  0  0  0  0  0  0  0
    1.1903   -2.0831   -0.0000 C   0  0  0  0  0  0  0  0  0  0  0  0
    2.1902   -0.9523   -0.0000 C   0  0  0  0  0  0  0  0  0  0  0  0
    2.0474    1.7141   -0.0000 C   0  0  0  0  0  0  0  0  0  0  0  0
   -1.4879   -3.7257   -0.0000 C   0  0  0  0  0  0  0  0  0  0  0  0
   -2.7854   -1.4641   -0.0000 C   0  0  0  0  0  0  0  0  0  0  0  0
    3.5234    1.8926   -0.0000 N   0  0  0  0  0  0  0  0  0  0  0  0
   -2.8092   -4.4637   -0.0000 N   0  0  0  0  0  0  0  0  0  0  0  0
   -4.0947   -2.2021   -0.0000 C   0  0  0  0  0  0  0  0  0  0  0  0
   -4.1185   -3.7019   -0.0000 C   0  0  0  0  0  0  0  0  0  0  0  0
  1  2  1  0  0  0  0
  1  3  1  0  0  0  0
  2  4  1  1  0  0  0
  2  5  1  0  0  0  0
  3  6  1  0  0  0  0
  3  7  1  6  0  0  0
  4  8  2  0  0  0  0
  4  9  1  0  0  0  0
  7 10  1  0  0  0  0
  8 11  1  0  0  0  0
  9 12  2  0  0  0  0
 11 13  2  0  0  0  0
  5  6  1  0  0  0  0
 12 13  1  0  0  0  0
M  END
>  <MolRegNo>
2350451

>  <m>
=

>  <Value>
64710

>  <Unit>
nM

>  <Type>
IC50

>  <pValue>
4.19

>  <Ligand Efficiency>
0

>  <Binding Efficiency>
0

>  <Surface Efficiency>
0

>  <Assay Index>
1335680

>  <Assay Category>


>  <Assay Organism>
Homo sapiens

>  <Target ID>
17045

>  <Target Name>
Cytochrome P450 3A4

>  <Target Organism>
Homo sapiens

>  <Target Description>
Target is a single protein chain

>  <Sequence Accession>
P08684

>  <Reference>


>  <Pubmed ID>


>  <DOI>


$$$$
115
Actelion Java MolfileCreator 1.0

 12 13  0  0  1  0  0  0  0  0999 V2000
    0.0000   -0.0000   -0.0000 N   0  0  0  0  0  0  0  0  0  0  0  0
    1.2912   -0.7532   -0.0000 C   0  0  0  0  0  0  0  0  0  0  0  0
    0.0000    1.5303   -0.0000 C   0  0  0  0  0  0  0  0  0  0  0  0
    2.6062   -0.0000   -0.0000 C   0  0  0  0  0  0  0  0  0  0  0  0
    1.2912    2.2595   -0.0000 C   0  0  0  0  0  0  0  0  0  0  0  0
    2.5943    1.5064   -0.0000 C   0  0  0  0  0  0  0  0  0  0  0  0
    3.8854   -0.7412   -0.0000 C   0  0  0  0  0  0  0  0  0  0  0  0
    5.0929    0.1196   -0.0000 N   0  0  0  0  0  0  0  0  0  0  0  0
    4.3039   -2.1639   -0.0000 C   0  0  0  0  0  0  0  0  0  0  0  0
    6.3123   -0.7651   -0.0000 C   0  0  0  0  0  0  0  0  0  0  0  0
    5.1049    1.6379   -0.0000 C   0  0  0  0  0  0  0  0  0  0  0  0
    5.7983   -2.1758   -0.0000 C   0  0  0  0  0  0  0  0  0  0  0  0
  1  2  2  0  0  0  0
  1  3  1  0  0  0  0
  2  4  1  0  0  0  0
  3  5  2  0  0  0  0
  4  6  2  0  0  0  0
  7  4  1  1  0  0  0
  7  8  1  0  0  0  0
  7  9  1  0  0  0  0
  8 10  1  0  0  0  0
  8 11  1  0  0  0  0
  9 12  1  0  0  0  0
  5  6  1  0  0  0  0
 10 12  1  0  0  0  0
M  END
>  <MolRegNo>
115

>  <m>
=

>  <Value>
142400

>  <Unit>
nM

>  <Type>
IC50

>  <pValue>
0

>  <Ligand Efficiency>
0

>  <Binding Efficiency>
0

>  <Surface Efficiency>
0

>  <Assay Index>
1335680

>  <Assay Category>


>  <Assay Organism>
Homo sapiens

>  <Target ID>
17045

>  <Target Name>
Cytochrome P450 3A4

>  <Target Organism>
Homo sapiens

>  <Target Description>
Target is a single protein chain

>  <Sequence Accession>
P08684

>  <Reference>


>  <Pubmed ID>


>  <DOI>


$$$$
299476
Actelion Java MolfileCreator 1.0

 13 14  0  0  0  0  0  0  0  0999 V2000
    0.0000   -0.0000   -0.0000 O   0  0  0  0  0  0  0  0  0  0  0  0
   -0.7146    0.9885   -0.0000 C   0  0  0  0  0  0  0  0  0  0  0  0
   -2.2270    0.8456   -0.0000 C   0  0  0  0  0  0  0  0  0  0  0  0
   -3.2512    1.9889   -0.0000 O   0  0  0  0  0  0  0  0  0  0  0  0
   -3.0012   -0.4526   -0.0000 C   0  0  0  0  0  0  0  0  0  0  0  0
   -4.6327    1.3815   -0.0000 C   0  0  0  0  0  0  0  0  0  0  0  0
   -4.4898   -0.1191   -0.0000 C   0  0  0  0  0  0  0  0  0  0  0  0
   -5.9547    2.1556   -0.0000 C   0  0  0  0  0  0  0  0  0  0  0  0
   -7.2766    1.4053   -0.0000 C   0  0  0  0  0  0  0  0  0  0  0  0
   -5.9666    3.6800   -0.0000 C   0  0  0  0  0  0  0  0  0  0  0  0
   -8.5985    2.1675   -0.0000 N   0  0  0  0  0  0  0  0  0  0  0  0
   -7.2885    4.4422   -0.0000 C   0  0  0  0  0  0  0  0  0  0  0  0
   -8.6104    3.6919   -0.0000 C   0  0  0  0  0  0  0  0  0  0  0  0
  1  2  2  0  0  0  0
  2  3  1  0  0  0  0
  3  4  1  0  0  0  0
  3  5  2  0  0  0  0
  4  6  1  0  0  0  0
  5  7  1  0  0  0  0
  6  8  1  0  0  0  0
  8  9  2  0  0  0  0
  8 10  1  0  0  0  0
  9 11  1  0  0  0  0
 10 12  2  0  0  0  0
 11 13  2  0  0  0  0
  6  7  2  0  0  0  0
 12 13  1  0  0  0  0
M  END
>  <MolRegNo>
299476

>  <m>
=

>  <Value>
2200

>  <Unit>
nM

>  <Type>
IC50

>  <pValue>
5.66

>  <Ligand Efficiency>
0

>  <Binding Efficiency>
0

>  <Surface Efficiency>
0

>  <Assay Index>
1335680

>  <Assay Category>


>  <Assay Organism>
Homo sapiens

>  <Target ID>
17045

>  <Target Name>
Cytochrome P450 3A4

>  <Target Organism>
Homo sapiens

>  <Target Description>
Target is a single protein chain

>  <Sequence Accession>
P08684

>  <Reference>


>  <Pubmed ID>


>  <DOI>


$$$$
2373963
Actelion Java MolfileCreator 1.0

 14 15  0  0  0  0  0  0  0  0999 V2000
    0.0000   -0.0000   -0.0000 O   0  0  0  0  0  0  0  0  0  0  0  0
   -0.1666   -1.4877   -0.0000 C   0  0  0  0  0  0  0  0  0  0  0  0
    1.4520    0.3332   -0.0000 C   0  0  0  0  0  0  0  0  0  0  0  0
   -1.4758   -2.2255   -0.0000 C   0  0  0  0  0  0  0  0  0  0  0  0
    1.1901   -2.0827   -0.0000 C   0  0  0  0  0  0  0  0  0  0  0  0
    2.1898   -0.9521   -0.0000 C   0  0  0  0  0  0  0  0  0  0  0  0
    2.0470    1.7138   -0.0000 C   0  0  0  0  0  0  0  0  0  0  0  0
   -1.4877   -3.7251   -0.0000 C   0  0  0  0  0  0  0  0  0  0  0  0
   -2.7849   -1.4639   -0.0000 C   0  0  0  0  0  0  0  0  0  0  0  0
    3.5228    1.8923   -0.0000 N   0  0  0  0  0  0  0  0  0  0  0  0
   -2.8087   -4.4630   -0.0000 N   0  0  0  0  0  0  0  0  0  0  0  0
   -4.0941   -2.2017   -0.0000 C   0  0  0  0  0  0  0  0  0  0  0  0
    4.1179    3.2729   -0.0000 O   0  0  0  0  0  0  0  0  0  0  0  0
   -4.1179   -3.7013   -0.0000 C   0  0  0  0  0  0  0  0  0  0  0  0
  1  2  1  0  0  0  0
  1  3  1  0  0  0  0
  2  4  1  0  0  0  0
  2  5  2  0  0  0  0
  3  6  2  0  0  0  0
  3  7  1  0  0  0  0
  4  8  2  0  0  0  0
  4  9  1  0  0  0  0
  7 10  2  3  0  0  0
  8 11  1  0  0  0  0
  9 12  2  0  0  0  0
 10 13  1  0  0  0  0
 11 14  2  0  0  0  0
  5  6  1  0  0  0  0
 12 14  1  0  0  0  0
M  END
>  <MolRegNo>
2373963

>  <m>
=

>  <Value>
51900

>  <Unit>
nM

>  <Type>
IC50

>  <pValue>
4.29

>  <Ligand Efficiency>
0

>  <Binding Efficiency>
0

>  <Surface Efficiency>
0

>  <Assay Index>
1335680

>  <Assay Category>


>  <Assay Organism>
Homo sapiens

>  <Target ID>
17045

>  <Target Name>
Cytochrome P450 3A4

>  <Target Organism>
Homo sapiens

>  <Target Description>
Target is a single protein chain

>  <Sequence Accession>
P08684

>  <Reference>


>  <Pubmed ID>


>  <DOI>


$$$$
2358951
Actelion Java MolfileCreator 1.0

 26 29  0  0  0  0  0  0  0  0999 V2000
    0.0000   -0.0000   -0.0000 S   0  0  0  0  0  0  0  0  0  0  0  0
    1.4118    0.4864   -0.0000 C   0  0  0  0  0  0  0  0  0  0  0  0
   -0.9016    1.2219   -0.0000 C   0  0  0  0  0  0  0  0  0  0  0  0
    2.7049   -0.2373   -0.0000 N   0  0  0  0  0  0  0  0  0  0  0  0
    1.3880    2.0049   -0.0000 C   0  0  0  0  0  0  0  0  0  0  0  0
   -0.0356    2.4557   -0.0000 C   0  0  0  0  0  0  0  0  0  0  0  0
    3.9980    0.5101   -0.0000 C   0  0  0  0  0  0  0  0  0  0  0  0
    2.6930   -1.7321   -0.0000 C   0  0  0  0  0  0  0  0  0  0  0  0
    2.6811    2.7761   -0.0000 C   0  0  0  0  0  0  0  0  0  0  0  0
   -0.5220    3.8912   -0.0000 C   0  0  0  0  0  0  0  0  0  0  0  0
    5.2911   -0.2254   -0.0000 O   0  0  0  0  0  0  0  0  0  0  0  0
    3.9861    2.0287   -0.0000 N   0  0  0  0  0  0  0  0  0  0  0  0
    3.9861   -2.4795   -0.0000 C   0  0  0  0  0  0  0  0  0  0  0  0
    2.6693    4.2946   -0.0000 O   0  0  0  0  0  0  0  0  0  0  0  0
    5.2793    2.7879   -0.0000 C   0  0  0  0  0  0  0  0  0  0  0  0
    4.1404   -3.9624   -0.0000 O   0  0  0  0  0  0  0  0  0  0  0  0
    5.3623   -1.8507   -0.0000 C   0  0  0  0  0  0  0  0  0  0  0  0
    6.5605    2.0405   -0.0000 C   0  0  0  0  0  0  0  0  0  0  0  0
    5.5996   -4.2590   -0.0000 C   0  0  0  0  0  0  0  0  0  0  0  0
    6.3470   -2.9540   -0.0000 C   0  0  0  0  0  0  0  0  0  0  0  0
    7.8536    2.7998   -0.0000 C   0  0  0  0  0  0  0  0  0  0  0  0
    9.1349    2.0405   -0.0000 C   0  0  0  0  0  0  0  0  0  0  0  0
    7.8418    4.3064   -0.0000 C   0  0  0  0  0  0  0  0  0  0  0  0
   10.4280    2.7998   -0.0000 C   0  0  0  0  0  0  0  0  0  0  0  0
    9.1349    5.0657   -0.0000 C   0  0  0  0  0  0  0  0  0  0  0  0
   10.4161    4.3183   -0.0000 C   0  0  0  0  0  0  0  0  0  0  0  0
  1  2  1  0  0  0  0
  1  3  1  0  0  0  0
  2  4  1  0  0  0  0
  2  5  2  0  0  0  0
  3  6  2  0  0  0  0
  4  7  1  0  0  0  0
  4  8  1  0  0  0  0
  5  9  1  0  0  0  0
  6 10  1  0  0  0  0
  7 11  2  0  0  0  0
  7 12  1  0  0  0  0
  8 13  1  0  0  0  0
  9 14  2  0  0  0  0
 12 15  1  0  0  0  0
 13 16  1  0  0  0  0
 13 17  1  0  0  0  0
 15 18  1  0  0  0  0
 16 19  1  0  0  0  0
 17 20  1  0  0  0  0
 18 21  1  0  0  0  0
 21 22  2  0  0  0  0
 21 23  1  0  0  0  0
 22 24  1  0  0  0  0
 23 25  2  0  0  0  0
 24 26  2  0  0  0  0
  5  6  1  0  0  0  0
  9 12  1  0  0  0  0
 19 20  1  0  0  0  0
 25 26  1  0  0  0  0
M  END
>  <MolRegNo>
2358951

>  <m>
=

>  <Value>
16000

>  <Unit>
nM

>  <Type>
IC50

>  <pValue>
4.8

>  <Ligand Efficiency>
0

>  <Binding Efficiency>
0

>  <Surface Efficiency>
0

>  <Assay Index>
1336144

>  <Assay Category>


>  <Assay Organism>
Homo sapiens

>  <Target ID>
17045

>  <Target Name>
Cytochrome P450 3A4

>  <Target Organism>
Homo sapiens

>  <Target Description>
Target is a single protein chain

>  <Sequence Accession>
P08684

>  <Reference>


>  <Pubmed ID>
30576906

>  <DOI>
10.1016/j.ejmech.2018.11.045

$$$$
2441498
Actelion Java MolfileCreator 1.0

 32 35  0  0  0  0  0  0  0  0999 V2000
    0.0000   -0.0000   -0.0000 Cl  0  0  0  0  0  0  0  0  0  0  0  0
   -1.3066   -0.7483   -0.0000 C   0  0  0  0  0  0  0  0  0  0  0  0
   -1.3185   -2.2331   -0.0000 C   0  0  0  0  0  0  0  0  0  0  0  0
   -2.6250    0.0119   -0.0000 C   0  0  0  0  0  0  0  0  0  0  0  0
   -0.0356   -2.9695   -0.0000 F   0  0  0  0  0  0  0  0  0  0  0  0
   -2.6250   -2.9695   -0.0000 C   0  0  0  0  0  0  0  0  0  0  0  0
   -3.9316   -0.7364   -0.0000 C   0  0  0  0  0  0  0  0  0  0  0  0
   -3.9316   -2.2093   -0.0000 C   0  0  0  0  0  0  0  0  0  0  0  0
   -5.2382   -2.9457   -0.0000 C   0  0  0  0  0  0  0  0  0  0  0  0
   -6.5448   -2.1856   -0.0000 N   0  0  0  0  0  0  0  0  0  0  0  0
   -5.2501   -4.4305   -0.0000 C   0  0  0  0  0  0  0  0  0  0  0  0
   -6.5685   -0.6652   -0.0000 C   0  0  0  0  0  0  0  0  0  0  0  0
   -7.8514   -2.9220   -0.0000 C   0  0  0  0  0  0  0  0  0  0  0  0
   -3.9673   -5.1669   -0.0000 O   0  0  0  0  0  0  0  0  0  0  0  0
   -5.2857    0.1069   -0.0000 O   0  0  0  0  0  0  0  0  0  0  0  0
   -7.8751    0.0831   -0.0000 C   0  0  0  0  0  0  0  0  0  0  0  0
   -9.1579   -2.1618   -0.0000 C   0  0  0  0  0  0  0  0  0  0  0  0
   -9.1817   -0.6533   -0.0000 C   0  0  0  0  0  0  0  0  0  0  0  0
  -10.4883    0.1069   -0.0000 C   0  0  0  0  0  0  0  0  0  0  0  0
  -11.8067   -0.6295   -0.0000 N   0  0  0  0  0  0  0  0  0  0  0  0
  -10.5001    1.6273   -0.0000 C   0  0  0  0  0  0  0  0  0  0  0  0
  -13.1133    0.1307   -0.0000 C   0  0  0  0  0  0  0  0  0  0  0  0
  -11.8067    2.3875   -0.0000 C   0  0  0  0  0  0  0  0  0  0  0  0
  -13.1252    1.6510   -0.0000 N   0  0  0  0  0  0  0  0  0  0  0  0
  -14.4199   -0.6058   -0.0000 N   0  0  0  0  0  0  0  0  0  0  0  0
  -14.4318   -2.0905   -0.0000 C   0  0  0  0  0  0  0  0  0  0  0  0
  -13.1489   -2.8270   -0.0000 C   0  0  0  0  0  0  0  0  0  0  0  0
  -15.7383   -2.8270   -0.0000 C   0  0  0  0  0  0  0  0  0  0  0  0
  -13.1608   -4.3117   -0.0000 C   0  0  0  0  0  0  0  0  0  0  0  0
  -15.7502   -4.3117   -0.0000 C   0  0  0  0  0  0  0  0  0  0  0  0
  -14.4793   -5.0600   -0.0000 N   0  0  0  0  0  0  0  0  0  0  0  0
  -11.8780   -5.0481   -0.0000 C   0  0  0  0  0  0  0  0  0  0  0  0
  1  2  1  0  0  0  0
  2  3  2  0  0  0  0
  2  4  1  0  0  0  0
  3  5  1  0  0  0  0
  3  6  1  0  0  0  0
  4  7  2  0  0  0  0
  6  8  2  0  0  0  0
  8  9  1  0  0  0  0
  9 10  1  6  0  0  0
  9 11  1  0  0  0  0
 10 12  1  0  0  0  0
 10 13  1  0  0  0  0
 11 14  1  0  0  0  0
 12 15  2  0  0  0  0
 12 16  1  0  0  0  0
 13 17  2  0  0  0  0
 16 18  2  0  0  0  0
 18 19  1  0  0  0  0
 19 20  2  0  0  0  0
 19 21  1  0  0  0  0
 20 22  1  0  0  0  0
 21 23  2  0  0  0  0
 22 24  2  0  0  0  0
 22 25  1  0  0  0  0
 25 26  1  0  0  0  0
 26 27  2  0  0  0  0
 26 28  1  0  0  0  0
 27 29  1  0  0  0  0
 28 30  2  0  0  0  0
 29 31  2  0  0  0  0
 29 32  1  0  0  0  0
  7  8  1  0  0  0  0
 17 18  1  0  0  0  0
 23 24  1  0  0  0  0
 30 31  1  0  0  0  0
M  END
>  <MolRegNo>
2441498

>  <m>
=

>  <Value>
340

>  <Unit>
nM

>  <Type>
IC50

>  <pValue>
6.47

>  <Ligand Efficiency>
0

>  <Binding Efficiency>
0

>  <Surface Efficiency>
0

>  <Assay Index>
1338973

>  <Assay Category>


>  <Assay Organism>
Homo sapiens

>  <Target ID>
17045

>  <Target Name>
Cytochrome P450 3A4

>  <Target Organism>
Homo sapiens

>  <Target Description>
Target is a single protein chain

>  <Sequence Accession>
P08684

>  <Reference>
J Med Chem 59 (12), 5650-5660 (2016)

>  <Pubmed ID>
27227380

>  <DOI>
10.1021/acs.jmedchem.6b00389

$$$$
2354855
Actelion Java MolfileCreator 1.0

 30 34  0  0  0  0  0  0  0  0999 V2000
    0.0000   -0.0000   -0.0000 S   0  0  0  0  0  0  0  0  0  0  0  0
   -0.4019   -1.4302   -0.0000 O   0  0  0  0  0  0  0  0  0  0  0  0
   -1.4657   -0.3664   -0.0000 O   0  0  0  0  0  0  0  0  0  0  0  0
   -0.4728    1.4420   -0.0000 N   0  0  0  0  0  0  0  0  0  0  0  0
    1.4893   -0.0000   -0.0000 C   0  0  0  0  0  0  0  0  0  0  0  0
   -1.9148    1.9148   -0.0000 C   0  0  0  0  0  0  0  0  0  0  0  0
    0.3901    2.6595   -0.0000 C   0  0  0  0  0  0  0  0  0  0  0  0
    2.2103   -1.3002   -0.0000 C   0  0  0  0  0  0  0  0  0  0  0  0
    2.2221    1.3002   -0.0000 C   0  0  0  0  0  0  0  0  0  0  0  0
   -1.9266    3.4278   -0.0000 C   0  0  0  0  0  0  0  0  0  0  0  0
   -3.2150    1.1820   -0.0000 C   0  0  0  0  0  0  0  0  0  0  0  0
   -0.4964    3.8769   -0.0000 C   0  0  0  0  0  0  0  0  0  0  0  0
    3.6996   -1.3002   -0.0000 C   0  0  0  0  0  0  0  0  0  0  0  0
    3.7114    1.3002   -0.0000 C   0  0  0  0  0  0  0  0  0  0  0  0
   -3.2268    4.1842   -0.0000 C   0  0  0  0  0  0  0  0  0  0  0  0
   -4.5270    1.9385   -0.0000 C   0  0  0  0  0  0  0  0  0  0  0  0
   -0.0355    5.3189   -0.0000 C   0  0  0  0  0  0  0  0  0  0  0  0
    4.4206   -2.5885   -0.0000 N   0  0  0  0  0  0  0  0  0  0  0  0
    4.4561   -0.0000   -0.0000 C   0  0  0  0  0  0  0  0  0  0  0  0
   -4.5388    3.4514   -0.0000 C   0  0  0  0  0  0  0  0  0  0  0  0
    1.4184    5.6381   -0.0000 C   0  0  0  0  0  0  0  0  0  0  0  0
   -1.0520    6.4536   -0.0000 C   0  0  0  0  0  0  0  0  0  0  0  0
    5.9099   -2.5885   -0.0000 C   0  0  0  0  0  0  0  0  0  0  0  0
    5.9336   -0.0000   -0.0000 C   0  0  0  0  0  0  0  0  0  0  0  0
   -5.8390    4.2197   -0.0000 O   0  0  0  0  0  0  0  0  0  0  0  0
    1.8675    7.0801   -0.0000 C   0  0  0  0  0  0  0  0  0  0  0  0
   -0.6028    7.8957   -0.0000 C   0  0  0  0  0  0  0  0  0  0  0  0
    6.6546   -1.2765   -0.0000 C   0  0  0  0  0  0  0  0  0  0  0  0
   -7.1510    3.4869   -0.0000 C   0  0  0  0  0  0  0  0  0  0  0  0
    0.8628    8.2030   -0.0000 N   0  0  0  0  0  0  0  0  0  0  0  0
  1  2  2  0  0  0  0
  1  3  2  0  0  0  0
  1  4  1  0  0  0  0
  1  5  1  0  0  0  0
  4  6  1  0  0  0  0
  4  7  1  0  0  0  0
  5  8  2  0  0  0  0
  5  9  1  0  0  0  0
  6 10  2  0  0  0  0
  6 11  1  0  0  0  0
  7 12  2  0  0  0  0
  8 13  1  0  0  0  0
  9 14  2  0  0  0  0
 10 15  1  0  0  0  0
 11 16  2  0  0  0  0
 12 17  1  0  0  0  0
 13 18  2  0  0  0  0
 13 19  1  0  0  0  0
 15 20  2  0  0  0  0
 17 21  2  0  0  0  0
 17 22  1  0  0  0  0
 18 23  1  0  0  0  0
 19 24  2  0  0  0  0
 20 25  1  0  0  0  0
 21 26  1  0  0  0  0
 22 27  1  0  0  0  0
 23 28  2  0  0  0  0
 25 29  1  0  0  0  0
 26 30  1  0  0  0  0
 10 12  1  0  0  0  0
 14 19  1  0  0  0  0
 16 20  1  0  0  0  0
 24 28  1  0  0  0  0
 27 30  1  0  0  0  0
M  END
>  <MolRegNo>
2354855

>  <m>
=

>  <Value>
20000

>  <Unit>
nM

>  <Type>
IC50

>  <pValue>
4.7

>  <Ligand Efficiency>
0

>  <Binding Efficiency>
0

>  <Surface Efficiency>
0

>  <Assay Index>
1339439

>  <Assay Category>


>  <Assay Organism>
Homo sapiens

>  <Target ID>
17045

>  <Target Name>
Cytochrome P450 3A4

>  <Target Organism>
Homo sapiens

>  <Target Description>
Target is a single protein chain

>  <Sequence Accession>
P08684

>  <Reference>
ACS Med Chem Lett 7 (6), 618-622 (2016)

>  <Pubmed ID>
27326337

>  <DOI>
10.1021/acsmedchemlett.6b00056

$$$$
2376318
Actelion Java MolfileCreator 1.0

 30 34  0  0  0  0  0  0  0  0999 V2000
    0.0000   -0.0000   -0.0000 S   0  0  0  0  0  0  0  0  0  0  0  0
   -0.4024   -1.4322   -0.0000 O   0  0  0  0  0  0  0  0  0  0  0  0
   -1.4677   -0.3669   -0.0000 O   0  0  0  0  0  0  0  0  0  0  0  0
   -0.4734    1.4440   -0.0000 N   0  0  0  0  0  0  0  0  0  0  0  0
    1.4913   -0.0000   -0.0000 C   0  0  0  0  0  0  0  0  0  0  0  0
   -1.9174    1.9174   -0.0000 C   0  0  0  0  0  0  0  0  0  0  0  0
    0.3906    2.6631   -0.0000 C   0  0  0  0  0  0  0  0  0  0  0  0
    2.2133   -1.2901   -0.0000 C   0  0  0  0  0  0  0  0  0  0  0  0
    2.2252    1.3020   -0.0000 C   0  0  0  0  0  0  0  0  0  0  0  0
   -1.9293    3.4325   -0.0000 C   0  0  0  0  0  0  0  0  0  0  0  0
   -3.2194    1.1836   -0.0000 C   0  0  0  0  0  0  0  0  0  0  0  0
   -0.4971    3.8822   -0.0000 C   0  0  0  0  0  0  0  0  0  0  0  0
    3.6929   -1.2901   -0.0000 C   0  0  0  0  0  0  0  0  0  0  0  0
    1.4440   -2.5566   -0.0000 C   0  0  0  0  0  0  0  0  0  0  0  0
    3.7165    1.3020   -0.0000 N   0  0  0  0  0  0  0  0  0  0  0  0
   -3.2313    4.1900   -0.0000 C   0  0  0  0  0  0  0  0  0  0  0  0
   -4.5332    1.9411   -0.0000 C   0  0  0  0  0  0  0  0  0  0  0  0
   -0.0473    5.3262   -0.0000 C   0  0  0  0  0  0  0  0  0  0  0  0
    4.4504    0.0118   -0.0000 C   0  0  0  0  0  0  0  0  0  0  0  0
    4.4149   -2.5684   -0.0000 C   0  0  0  0  0  0  0  0  0  0  0  0
    2.1660   -3.8467   -0.0000 C   0  0  0  0  0  0  0  0  0  0  0  0
   -4.5451    3.4561   -0.0000 C   0  0  0  0  0  0  0  0  0  0  0  0
    1.4085    5.6458   -0.0000 C   0  0  0  0  0  0  0  0  0  0  0  0
   -1.0652    6.4625   -0.0000 C   0  0  0  0  0  0  0  0  0  0  0  0
    3.6455   -3.8467   -0.0000 C   0  0  0  0  0  0  0  0  0  0  0  0
   -5.8470    4.2255   -0.0000 O   0  0  0  0  0  0  0  0  0  0  0  0
    1.8583    7.0898   -0.0000 C   0  0  0  0  0  0  0  0  0  0  0  0
   -0.6155    7.9065   -0.0000 C   0  0  0  0  0  0  0  0  0  0  0  0
   -7.1608    3.4916   -0.0000 C   0  0  0  0  0  0  0  0  0  0  0  0
    0.8522    8.2143   -0.0000 N   0  0  0  0  0  0  0  0  0  0  0  0
  1  2  2  0  0  0  0
  1  3  2  0  0  0  0
  1  4  1  0  0  0  0
  1  5  1  0  0  0  0
  4  6  1  0  0  0  0
  4  7  1  0  0  0  0
  5  8  1  0  0  0  0
  5  9  2  0  0  0  0
  6 10  2  0  0  0  0
  6 11  1  0  0  0  0
  7 12  2  0  0  0  0
  8 13  1  0  0  0  0
  8 14  2  0  0  0  0
  9 15  1  0  0  0  0
 10 16  1  0  0  0  0
 11 17  2  0  0  0  0
 12 18  1  0  0  0  0
 13 19  1  0  0  0  0
 13 20  2  0  0  0  0
 14 21  1  0  0  0  0
 16 22  2  0  0  0  0
 18 23  2  0  0  0  0
 18 24  1  0  0  0  0
 20 25  1  0  0  0  0
 22 26  1  0  0  0  0
 23 27  1  0  0  0  0
 24 28  1  0  0  0  0
 26 29  1  0  0  0  0
 27 30  1  0  0  0  0
 10 12  1  0  0  0  0
 15 19  2  0  0  0  0
 17 22  1  0  0  0  0
 21 25  2  0  0  0  0
 28 30  1  0  0  0  0
M  END
>  <MolRegNo>
2376318

>  <m>
=

>  <Value>
26000

>  <Unit>
nM

>  <Type>
IC50

>  <pValue>
4.58

>  <Ligand Efficiency>
0

>  <Binding Efficiency>
0

>  <Surface Efficiency>
0

>  <Assay Index>
1339439

>  <Assay Category>


>  <Assay Organism>
Homo sapiens

>  <Target ID>
17045

>  <Target Name>
Cytochrome P450 3A4

>  <Target Organism>
Homo sapiens

>  <Target Description>
Target is a single protein chain

>  <Sequence Accession>
P08684

>  <Reference>
ACS Med Chem Lett 7 (6), 618-622 (2016)

>  <Pubmed ID>
27326337

>  <DOI>
10.1021/acsmedchemlett.6b00056

$$$$
1573206
Actelion Java MolfileCreator 1.0

 28 31  0  0  1  0  0  0  0  0999 V2000
    0.0000   -0.0000   -0.0000 O   0  0  0  0  0  0  0  0  0  0  0  0
    1.0469    0.6257   -0.0000 C   0  0  0  0  0  0  0  0  0  0  0  0
    1.0348    2.1659   -0.0000 N   0  0  0  0  0  0  0  0  0  0  0  0
    2.3584   -0.1324   -0.0000 N   0  0  0  0  0  0  0  0  0  0  0  0
   -0.3008    2.9481   -0.0000 C   0  0  0  0  0  0  0  0  0  0  0  0
    2.3464   -1.6485   -0.0000 C   0  0  0  0  0  0  0  0  0  0  0  0
   -1.6365    2.2020   -0.0000 N   0  0  0  0  0  0  0  0  0  0  0  0
   -0.3129    4.4883   -0.0000 C   0  0  0  0  0  0  0  0  0  0  0  0
    3.6580   -2.4066   -0.0000 C   0  0  0  0  0  0  0  0  0  0  0  0
    1.2755   -2.2501   -0.0000 C   0  0  0  0  0  0  0  0  0  0  0  0
   -2.9721    2.9721   -0.0000 C   0  0  0  0  0  0  0  0  0  0  0  0
   -1.6485    5.2584   -0.0000 C   0  0  0  0  0  0  0  0  0  0  0  0
    4.9696   -1.6365   -0.0000 C   0  0  0  0  0  0  0  0  0  0  0  0
    3.6460   -3.9227   -0.0000 C   0  0  0  0  0  0  0  0  0  0  0  0
   -2.9841    4.5123   -0.0000 C   0  0  0  0  0  0  0  0  0  0  0  0
   -1.9734    6.7625   -0.0000 N   0  0  0  0  0  0  0  0  0  0  0  0
    6.2812   -2.3945   -0.0000 C   0  0  0  0  0  0  0  0  0  0  0  0
    4.9575   -4.6808   -0.0000 C   0  0  0  0  0  0  0  0  0  0  0  0
   -4.1273    5.5471   -0.0000 C   0  0  0  0  0  0  0  0  0  0  0  0
   -3.5016    6.9309   -0.0000 N   0  0  0  0  0  0  0  0  0  0  0  0
    6.2691   -3.9107   -0.0000 C   0  0  0  0  0  0  0  0  0  0  0  0
   -5.6314    5.2463   -0.0000 C   0  0  0  0  0  0  0  0  0  0  0  0
   -6.0044    3.7663   -0.0000 C   0  0  0  0  0  0  0  0  0  0  0  0
   -6.7384    6.3052   -0.0000 C   0  0  0  0  0  0  0  0  0  0  0  0
   -7.4844    3.3451   -0.0000 C   0  0  0  0  0  0  0  0  0  0  0  0
   -8.2184    5.8841   -0.0000 C   0  0  0  0  0  0  0  0  0  0  0  0
   -8.6035    4.4161   -0.0000 N   0  0  0  0  0  0  0  0  0  0  0  0
   -7.7853    2.1659   -0.0000 C   0  0  0  0  0  0  0  0  0  0  0  0
  1  2  2  0  0  0  0
  2  3  1  0  0  0  0
  2  4  1  0  0  0  0
  3  5  1  0  0  0  0
  6  4  1  1  0  0  0
  5  7  2  0  0  0  0
  5  8  1  0  0  0  0
  6  9  1  0  0  0  0
  6 10  1  0  0  0  0
  7 11  1  0  0  0  0
  8 12  2  0  0  0  0
  9 13  2  0  0  0  0
  9 14  1  0  0  0  0
 11 15  2  0  0  0  0
 12 16  1  0  0  0  0
 13 17  1  0  0  0  0
 14 18  2  0  0  0  0
 15 19  1  0  0  0  0
 16 20  1  0  0  0  0
 17 21  2  0  0  0  0
 19 22  1  0  0  0  0
 22 23  2  0  0  0  0
 22 24  1  0  0  0  0
 23 25  1  0  0  0  0
 24 26  2  0  0  0  0
 25 27  2  0  0  0  0
 25 28  1  0  0  0  0
 12 15  1  0  0  0  0
 18 21  1  0  0  0  0
 19 20  2  0  0  0  0
 26 27  1  0  0  0  0
M  END
>  <MolRegNo>
1573206

>  <m>
=

>  <Value>
3900

>  <Unit>
nM

>  <Type>
IC50

>  <pValue>
5.41

>  <Ligand Efficiency>
0

>  <Binding Efficiency>
0

>  <Surface Efficiency>
0

>  <Assay Index>
1339510

>  <Assay Category>


>  <Assay Organism>
Homo sapiens

>  <Target ID>
17045

>  <Target Name>
Cytochrome P450 3A4

>  <Target Organism>
Homo sapiens

>  <Target Description>
Target is a single protein chain

>  <Sequence Accession>
P08684

>  <Reference>
J Med Chem 59 (13), 6501-6511 (2016)

>  <Pubmed ID>
27329786

>  <DOI>
10.1021/acs.jmedchem.6b00708

$$$$
1987522
Actelion Java MolfileCreator 1.0

 27 30  0  0  1  0  0  0  0  0999 V2000
    0.0000   -0.0000   -0.0000 O   0  0  0  0  0  0  0  0  0  0  0  0
    1.0480    0.6264   -0.0000 C   0  0  0  0  0  0  0  0  0  0  0  0
    1.0359    2.1682   -0.0000 N   0  0  0  0  0  0  0  0  0  0  0  0
    2.3609   -0.1325   -0.0000 N   0  0  0  0  0  0  0  0  0  0  0  0
   -0.3011    2.9512   -0.0000 C   0  0  0  0  0  0  0  0  0  0  0  0
    2.3489   -1.6502   -0.0000 C   0  0  0  0  0  0  0  0  0  0  0  0
   -1.6382    2.2043   -0.0000 N   0  0  0  0  0  0  0  0  0  0  0  0
   -0.3132    4.4930   -0.0000 C   0  0  0  0  0  0  0  0  0  0  0  0
    3.6618   -2.4091   -0.0000 C   0  0  0  0  0  0  0  0  0  0  0  0
    1.2768   -2.2525   -0.0000 C   0  0  0  0  0  0  0  0  0  0  0  0
   -2.9752    2.9752   -0.0000 C   0  0  0  0  0  0  0  0  0  0  0  0
   -1.6502    5.2639   -0.0000 C   0  0  0  0  0  0  0  0  0  0  0  0
    4.9748   -1.6382   -0.0000 C   0  0  0  0  0  0  0  0  0  0  0  0
    3.6498   -3.9268   -0.0000 C   0  0  0  0  0  0  0  0  0  0  0  0
   -2.9873    4.5171   -0.0000 C   0  0  0  0  0  0  0  0  0  0  0  0
   -1.9755    6.7696   -0.0000 N   0  0  0  0  0  0  0  0  0  0  0  0
    6.2878   -2.3971   -0.0000 C   0  0  0  0  0  0  0  0  0  0  0  0
    4.9628   -4.6857   -0.0000 C   0  0  0  0  0  0  0  0  0  0  0  0
   -4.1316    5.5530   -0.0000 C   0  0  0  0  0  0  0  0  0  0  0  0
   -3.5053    6.9382   -0.0000 N   0  0  0  0  0  0  0  0  0  0  0  0
    6.2757   -3.9148   -0.0000 C   0  0  0  0  0  0  0  0  0  0  0  0
   -5.6373    5.2519   -0.0000 C   0  0  0  0  0  0  0  0  0  0  0  0
   -6.8419    6.2035   -0.0000 C   0  0  0  0  0  0  0  0  0  0  0  0
   -6.1312    3.8305   -0.0000 C   0  0  0  0  0  0  0  0  0  0  0  0
   -8.1187    5.3482   -0.0000 N   0  0  0  0  0  0  0  0  0  0  0  0
   -7.6730    3.8787   -0.0000 N   0  0  0  0  0  0  0  0  0  0  0  0
   -8.4319    2.9150   -0.0000 C   0  0  0  0  0  0  0  0  0  0  0  0
  1  2  2  0  0  0  0
  2  3  1  0  0  0  0
  2  4  1  0  0  0  0
  3  5  1  0  0  0  0
  6  4  1  1  0  0  0
  5  7  2  0  0  0  0
  5  8  1  0  0  0  0
  6  9  1  0  0  0  0
  6 10  1  0  0  0  0
  7 11  1  0  0  0  0
  8 12  2  0  0  0  0
  9 13  2  0  0  0  0
  9 14  1  0  0  0  0
 11 15  2  0  0  0  0
 12 16  1  0  0  0  0
 13 17  1  0  0  0  0
 14 18  2  0  0  0  0
 15 19  1  0  0  0  0
 16 20  1  0  0  0  0
 17 21  2  0  0  0  0
 19 22  1  0  0  0  0
 22 23  1  0  0  0  0
 22 24  2  0  0  0  0
 23 25  2  0  0  0  0
 24 26  1  0  0  0  0
 26 27  1  0  0  0  0
 12 15  1  0  0  0  0
 18 21  1  0  0  0  0
 19 20  2  0  0  0  0
 25 26  1  0  0  0  0
M  END
>  <MolRegNo>
1987522

>  <m>
=

>  <Value>
380

>  <Unit>
nM

>  <Type>
IC50

>  <pValue>
6.42

>  <Ligand Efficiency>
0

>  <Binding Efficiency>
0

>  <Surface Efficiency>
0

>  <Assay Index>
1339510

>  <Assay Category>


>  <Assay Organism>
Homo sapiens

>  <Target ID>
17045

>  <Target Name>
Cytochrome P450 3A4

>  <Target Organism>
Homo sapiens

>  <Target Description>
Target is a single protein chain

>  <Sequence Accession>
P08684

>  <Reference>
J Med Chem 59 (13), 6501-6511 (2016)

>  <Pubmed ID>
27329786

>  <DOI>
10.1021/acs.jmedchem.6b00708

$$$$
1987524
Actelion Java MolfileCreator 1.0

 29 32  0  0  1  0  0  0  0  0999 V2000
    0.0000   -0.0000   -0.0000 O   0  0  0  0  0  0  0  0  0  0  0  0
    1.0530    0.6293   -0.0000 C   0  0  0  0  0  0  0  0  0  0  0  0
    1.0408    2.1785   -0.0000 N   0  0  0  0  0  0  0  0  0  0  0  0
    2.3722   -0.1331   -0.0000 N   0  0  0  0  0  0  0  0  0  0  0  0
   -0.3026    2.9652   -0.0000 C   0  0  0  0  0  0  0  0  0  0  0  0
    2.3601   -1.6581   -0.0000 C   0  0  0  0  0  0  0  0  0  0  0  0
   -1.6460    2.2148   -0.0000 N   0  0  0  0  0  0  0  0  0  0  0  0
   -0.3147    4.5144   -0.0000 C   0  0  0  0  0  0  0  0  0  0  0  0
    3.6793   -2.4206   -0.0000 C   0  0  0  0  0  0  0  0  0  0  0  0
    1.2829   -2.2632   -0.0000 C   0  0  0  0  0  0  0  0  0  0  0  0
   -2.9894    2.9894   -0.0000 C   0  0  0  0  0  0  0  0  0  0  0  0
   -1.6581    5.2890   -0.0000 C   0  0  0  0  0  0  0  0  0  0  0  0
    4.9985   -1.6460   -0.0000 C   0  0  0  0  0  0  0  0  0  0  0  0
    3.6672   -3.9455   -0.0000 C   0  0  0  0  0  0  0  0  0  0  0  0
   -3.0015    4.5386   -0.0000 C   0  0  0  0  0  0  0  0  0  0  0  0
   -1.9849    6.8018   -0.0000 N   0  0  0  0  0  0  0  0  0  0  0  0
    6.3177   -2.4085   -0.0000 C   0  0  0  0  0  0  0  0  0  0  0  0
    4.9864   -4.7080   -0.0000 C   0  0  0  0  0  0  0  0  0  0  0  0
   -4.1513    5.5794   -0.0000 C   0  0  0  0  0  0  0  0  0  0  0  0
   -3.5219    6.9713   -0.0000 N   0  0  0  0  0  0  0  0  0  0  0  0
    6.3056   -3.9334   -0.0000 C   0  0  0  0  0  0  0  0  0  0  0  0
   -5.6641    5.2769   -0.0000 C   0  0  0  0  0  0  0  0  0  0  0  0
   -6.7776    6.3419   -0.0000 C   0  0  0  0  0  0  0  0  0  0  0  0
   -6.0393    3.7882   -0.0000 C   0  0  0  0  0  0  0  0  0  0  0  0
   -8.2663    5.9183   -0.0000 C   0  0  0  0  0  0  0  0  0  0  0  0
   -7.5280    3.3646   -0.0000 C   0  0  0  0  0  0  0  0  0  0  0  0
   -8.6415    4.4418   -0.0000 N   0  0  0  0  0  0  0  0  0  0  0  0
   -9.1619    6.7776   -0.0000 C   0  0  0  0  0  0  0  0  0  0  0  0
   -7.8306    2.1785   -0.0000 C   0  0  0  0  0  0  0  0  0  0  0  0
  1  2  2  0  0  0  0
  2  3  1  0  0  0  0
  2  4  1  0  0  0  0
  3  5  1  0  0  0  0
  6  4  1  1  0  0  0
  5  7  2  0  0  0  0
  5  8  1  0  0  0  0
  6  9  1  0  0  0  0
  6 10  1  0  0  0  0
  7 11  1  0  0  0  0
  8 12  2  0  0  0  0
  9 13  2  0  0  0  0
  9 14  1  0  0  0  0
 11 15  2  0  0  0  0
 12 16  1  0  0  0  0
 13 17  1  0  0  0  0
 14 18  2  0  0  0  0
 15 19  1  0  0  0  0
 16 20  1  0  0  0  0
 17 21  2  0  0  0  0
 19 22  1  0  0  0  0
 22 23  2  0  0  0  0
 22 24  1  0  0  0  0
 23 25  1  0  0  0  0
 24 26  2  0  0  0  0
 25 27  2  0  0  0  0
 25 28  1  0  0  0  0
 26 29  1  0  0  0  0
 12 15  1  0  0  0  0
 18 21  1  0  0  0  0
 19 20  2  0  0  0  0
 26 27  1  0  0  0  0
M  END
>  <MolRegNo>
1987524

>  <m>
=

>  <Value>
780

>  <Unit>
nM

>  <Type>
IC50

>  <pValue>
6.11

>  <Ligand Efficiency>
0

>  <Binding Efficiency>
0

>  <Surface Efficiency>
0

>  <Assay Index>
1339510

>  <Assay Category>


>  <Assay Organism>
Homo sapiens

>  <Target ID>
17045

>  <Target Name>
Cytochrome P450 3A4

>  <Target Organism>
Homo sapiens

>  <Target Description>
Target is a single protein chain

>  <Sequence Accession>
P08684

>  <Reference>
J Med Chem 59 (13), 6501-6511 (2016)

>  <Pubmed ID>
27329786

>  <DOI>
10.1021/acs.jmedchem.6b00708

$$$$
1996011
Actelion Java MolfileCreator 1.0

 28 31  0  0  1  0  0  0  0  0999 V2000
    0.0000   -0.0000   -0.0000 F   0  0  0  0  0  0  0  0  0  0  0  0
    0.2781    1.2090   -0.0000 C   0  0  0  0  0  0  0  0  0  0  0  0
   -0.8463    2.2849   -0.0000 N   0  0  0  0  0  0  0  0  0  0  0  0
    1.7409    1.6563   -0.0000 C   0  0  0  0  0  0  0  0  0  0  0  0
   -0.4957    3.7840   -0.0000 C   0  0  0  0  0  0  0  0  0  0  0  0
    2.0915    3.1675   -0.0000 C   0  0  0  0  0  0  0  0  0  0  0  0
    0.9672    4.2313   -0.0000 C   0  0  0  0  0  0  0  0  0  0  0  0
    3.5785    3.4939   -0.0000 C   0  0  0  0  0  0  0  0  0  0  0  0
    4.1951    4.9084   -0.0000 N   0  0  0  0  0  0  0  0  0  0  0  0
    4.7028    2.4784   -0.0000 C   0  0  0  0  0  0  0  0  0  0  0  0
    5.7063    4.7633   -0.0000 N   0  0  0  0  0  0  0  0  0  0  0  0
    6.0206    3.2521   -0.0000 C   0  0  0  0  0  0  0  0  0  0  0  0
    4.6907    0.9551   -0.0000 C   0  0  0  0  0  0  0  0  0  0  0  0
    7.3383    2.5025   -0.0000 C   0  0  0  0  0  0  0  0  0  0  0  0
    6.0085    0.2055   -0.0000 N   0  0  0  0  0  0  0  0  0  0  0  0
    7.3263    0.9793   -0.0000 C   0  0  0  0  0  0  0  0  0  0  0  0
    8.6440    0.2176   -0.0000 N   0  0  0  0  0  0  0  0  0  0  0  0
    8.6319   -1.3057   -0.0000 C   0  0  0  0  0  0  0  0  0  0  0  0
    7.5560   -1.9101   -0.0000 O   0  0  0  0  0  0  0  0  0  0  0  0
    9.9497   -2.0673   -0.0000 N   0  0  0  0  0  0  0  0  0  0  0  0
    9.9376   -3.5906   -0.0000 C   0  0  0  0  0  0  0  0  0  0  0  0
   11.2554   -4.3522   -0.0000 C   0  0  0  0  0  0  0  0  0  0  0  0
    8.8616   -4.1951   -0.0000 C   0  0  0  0  0  0  0  0  0  0  0  0
   12.5731   -3.5785   -0.0000 C   0  0  0  0  0  0  0  0  0  0  0  0
   11.2433   -5.8755   -0.0000 C   0  0  0  0  0  0  0  0  0  0  0  0
   13.8909   -4.3401   -0.0000 C   0  0  0  0  0  0  0  0  0  0  0  0
   12.5610   -6.6372   -0.0000 C   0  0  0  0  0  0  0  0  0  0  0  0
   13.8788   -5.8634   -0.0000 C   0  0  0  0  0  0  0  0  0  0  0  0
  1  2  1  0  0  0  0
  2  3  2  0  0  0  0
  2  4  1  0  0  0  0
  3  5  1  0  0  0  0
  4  6  2  0  0  0  0
  5  7  2  0  0  0  0
  6  8  1  0  0  0  0
  8  9  2  0  0  0  0
  8 10  1  0  0  0  0
  9 11  1  0  0  0  0
 10 12  2  0  0  0  0
 10 13  1  0  0  0  0
 12 14  1  0  0  0  0
 13 15  2  0  0  0  0
 14 16  2  0  0  0  0
 16 17  1  0  0  0  0
 17 18  1  0  0  0  0
 18 19  2  0  0  0  0
 18 20  1  0  0  0  0
 21 20  1  1  0  0  0
 21 22  1  0  0  0  0
 21 23  1  0  0  0  0
 22 24  2  0  0  0  0
 22 25  1  0  0  0  0
 24 26  1  0  0  0  0
 25 27  2  0  0  0  0
 26 28  2  0  0  0  0
  6  7  1  0  0  0  0
 11 12  1  0  0  0  0
 15 16  1  0  0  0  0
 27 28  1  0  0  0  0
M  END
>  <MolRegNo>
1996011

>  <m>
=

>  <Value>
29000

>  <Unit>
nM

>  <Type>
IC50

>  <pValue>
4.54

>  <Ligand Efficiency>
0

>  <Binding Efficiency>
0

>  <Surface Efficiency>
0

>  <Assay Index>
1339510

>  <Assay Category>


>  <Assay Organism>
Homo sapiens

>  <Target ID>
17045

>  <Target Name>
Cytochrome P450 3A4

>  <Target Organism>
Homo sapiens

>  <Target Description>
Target is a single protein chain

>  <Sequence Accession>
P08684

>  <Reference>
J Med Chem 59 (13), 6501-6511 (2016)

>  <Pubmed ID>
27329786

>  <DOI>
10.1021/acs.jmedchem.6b00708

$$$$
2362072
Actelion Java MolfileCreator 1.0

 30 32  0  0  0  0  0  0  0  0999 V2000
    0.0000   -0.0000   -0.0000 Cl  0  0  0  0  0  0  0  0  0  0  0  0
   -0.0118    1.5043   -0.0000 C   0  0  0  0  0  0  0  0  0  0  0  0
   -1.3148    2.2623   -0.0000 C   0  0  0  0  0  0  0  0  0  0  0  0
    1.2792    2.2623   -0.0000 C   0  0  0  0  0  0  0  0  0  0  0  0
   -1.3148    3.7784   -0.0000 C   0  0  0  0  0  0  0  0  0  0  0  0
    1.2674    3.7784   -0.0000 C   0  0  0  0  0  0  0  0  0  0  0  0
   -0.0355    4.5365   -0.0000 C   0  0  0  0  0  0  0  0  0  0  0  0
   -2.6177    4.5365   -0.0000 C   0  0  0  0  0  0  0  0  0  0  0  0
   -0.0474    6.0408   -0.0000 C   0  0  0  0  0  0  0  0  0  0  0  0
   -3.9324    3.8021   -0.0000 N   0  0  0  0  0  0  0  0  0  0  0  0
    1.2318    6.7988   -0.0000 N   0  0  0  0  0  0  0  0  0  0  0  0
   -3.9443    2.3216   -0.0000 C   0  0  0  0  0  0  0  0  0  0  0  0
   -2.6650    1.5872   -0.0000 O   0  0  0  0  0  0  0  0  0  0  0  0
   -5.2590    1.5872   -0.0000 C   0  0  0  0  0  0  0  0  0  0  0  0
   -6.5619    2.3452   -0.0000 C   0  0  0  0  0  0  0  0  0  0  0  0
   -6.5738    3.8495   -0.0000 C   0  0  0  0  0  0  0  0  0  0  0  0
   -7.8648    1.6109   -0.0000 C   0  0  0  0  0  0  0  0  0  0  0  0
   -5.2827    4.6076   -0.0000 O   0  0  0  0  0  0  0  0  0  0  0  0
   -7.8767    4.6194   -0.0000 N   0  0  0  0  0  0  0  0  0  0  0  0
   -9.1678    2.3689   -0.0000 C   0  0  0  0  0  0  0  0  0  0  0  0
   -7.8767    0.1303   -0.0000 C   0  0  0  0  0  0  0  0  0  0  0  0
   -7.8885    6.1237   -0.0000 N   0  0  0  0  0  0  0  0  0  0  0  0
   -9.1796    3.8732   -0.0000 C   0  0  0  0  0  0  0  0  0  0  0  0
   -9.1914    6.8817   -0.0000 C   0  0  0  0  0  0  0  0  0  0  0  0
  -10.4944    6.1474   -0.0000 C   0  0  0  0  0  0  0  0  0  0  0  0
  -11.7973    6.9173   -0.0000 C   0  0  0  0  0  0  0  0  0  0  0  0
  -10.5062    4.6668   -0.0000 C   0  0  0  0  0  0  0  0  0  0  0  0
  -13.1002    6.1829   -0.0000 C   0  0  0  0  0  0  0  0  0  0  0  0
  -11.8091    3.9324   -0.0000 C   0  0  0  0  0  0  0  0  0  0  0  0
  -13.1120    4.7023   -0.0000 C   0  0  0  0  0  0  0  0  0  0  0  0
  1  2  1  0  0  0  0
  2  3  2  0  0  0  0
  2  4  1  0  0  0  0
  3  5  1  0  0  0  0
  4  6  2  0  0  0  0
  5  7  2  0  0  0  0
  5  8  1  0  0  0  0
  7  9  1  0  0  0  0
  8 10  1  0  0  0  0
  9 11  1  0  0  0  0
 10 12  1  0  0  0  0
 12 13  2  0  0  0  0
 12 14  1  0  0  0  0
 14 15  1  0  0  0  0
 15 16  1  0  0  0  0
 15 17  2  0  0  0  0
 16 18  2  0  0  0  0
 16 19  1  0  0  0  0
 17 20  1  0  0  0  0
 17 21  1  0  0  0  0
 19 22  1  0  0  0  0
 19 23  1  0  0  0  0
 22 24  1  0  0  0  0
 24 25  1  0  0  0  0
 25 26  2  0  0  0  0
 25 27  1  0  0  0  0
 26 28  1  0  0  0  0
 27 29  2  0  0  0  0
 28 30  2  0  0  0  0
  6  7  1  0  0  0  0
 20 23  1  0  0  0  0
 29 30  1  0  0  0  0
M  END
>  <MolRegNo>
2362072

>  <m>
=

>  <Value>
13000

>  <Unit>
nM

>  <Type>
IC50

>  <pValue>
4.89

>  <Ligand Efficiency>
0

>  <Binding Efficiency>
0

>  <Surface Efficiency>
0

>  <Assay Index>
1339744

>  <Assay Category>


>  <Assay Organism>
Homo sapiens

>  <Target ID>
17045

>  <Target Name>
Cytochrome P450 3A4

>  <Target Organism>
Homo sapiens

>  <Target Description>
Target is a single protein chain

>  <Sequence Accession>
P08684

>  <Reference>
J Med Chem 59 (14), 6658-6670 (2016)

>  <Pubmed ID>
27347787

>  <DOI>
10.1021/acs.jmedchem.5b01871

$$$$
2343715
Actelion Java MolfileCreator 1.0

 31 35  0  0  0  0  0  0  0  0999 V2000
    0.0000   -0.0000   -0.0000 S   0  0  0  0  0  0  0  0  0  0  0  0
    0.9246   -1.1735   -0.0000 C   0  0  0  0  0  0  0  0  0  0  0  0
   -1.4224   -0.5216   -0.0000 C   0  0  0  0  0  0  0  0  0  0  0  0
    0.0830   -2.4182   -0.0000 N   0  0  0  0  0  0  0  0  0  0  0  0
    2.4182   -1.0905   -0.0000 N   0  0  0  0  0  0  0  0  0  0  0  0
   -1.3750   -2.0151   -0.0000 C   0  0  0  0  0  0  0  0  0  0  0  0
   -2.7619    0.1778   -0.0000 C   0  0  0  0  0  0  0  0  0  0  0  0
    3.2124   -2.3470   -0.0000 C   0  0  0  0  0  0  0  0  0  0  0  0
   -2.6434   -2.8093   -0.0000 C   0  0  0  0  0  0  0  0  0  0  0  0
   -4.0421   -0.6164   -0.0000 C   0  0  0  0  0  0  0  0  0  0  0  0
    2.5011   -3.6747   -0.0000 O   0  0  0  0  0  0  0  0  0  0  0  0
    4.7059   -2.2641   -0.0000 N   0  0  0  0  0  0  0  0  0  0  0  0
   -3.9829   -2.1100   -0.0000 C   0  0  0  0  0  0  0  0  0  0  0  0
   -5.3935    0.0830   -0.0000 S   0  0  0  0  0  0  0  0  0  0  0  0
    5.5001   -3.5206   -0.0000 C   0  0  0  0  0  0  0  0  0  0  0  0
   -6.6737   -0.7112   -0.0000 C   0  0  0  0  0  0  0  0  0  0  0  0
    6.9937   -3.4376   -0.0000 C   0  0  0  0  0  0  0  0  0  0  0  0
   -8.0843   -0.1422   -0.0000 N   0  0  0  0  0  0  0  0  0  0  0  0
   -6.7803   -2.1929   -0.0000 N   0  0  0  0  0  0  0  0  0  0  0  0
    7.7879   -4.6941   -0.0000 N   0  0  0  0  0  0  0  0  0  0  0  0
   -9.0563   -1.2921   -0.0000 N   0  0  0  0  0  0  0  0  0  0  0  0
   -5.7372   -3.2479   -0.0000 N   0  0  0  0  0  0  0  0  0  0  0  0
   -8.2502   -2.5604   -0.0000 C   0  0  0  0  0  0  0  0  0  0  0  0
    7.0767   -6.0098   -0.0000 C   0  0  0  0  0  0  0  0  0  0  0  0
    9.2815   -4.5993   -0.0000 C   0  0  0  0  0  0  0  0  0  0  0  0
   -6.1402   -4.6822   -0.0000 C   0  0  0  0  0  0  0  0  0  0  0  0
   -8.6651   -3.9947   -0.0000 C   0  0  0  0  0  0  0  0  0  0  0  0
    7.8709   -7.2663   -0.0000 C   0  0  0  0  0  0  0  0  0  0  0  0
   10.0757   -5.8676   -0.0000 C   0  0  0  0  0  0  0  0  0  0  0  0
   -7.6101   -5.0497   -0.0000 C   0  0  0  0  0  0  0  0  0  0  0  0
    9.3645   -7.1952   -0.0000 O   0  0  0  0  0  0  0  0  0  0  0  0
  1  2  1  0  0  0  0
  1  3  1  0  0  0  0
  2  4  2  0  0  0  0
  2  5  1  0  0  0  0
  3  6  2  0  0  0  0
  3  7  1  0  0  0  0
  5  8  1  0  0  0  0
  6  9  1  0  0  0  0
  7 10  2  0  0  0  0
  8 11  2  0  0  0  0
  8 12  1  0  0  0  0
  9 13  2  0  0  0  0
 10 14  1  0  0  0  0
 12 15  1  0  0  0  0
 14 16  1  0  0  0  0
 15 17  1  0  0  0  0
 16 18  2  0  0  0  0
 16 19  1  0  0  0  0
 17 20  1  0  0  0  0
 18 21  1  0  0  0  0
 19 22  1  0  0  0  0
 19 23  1  0  0  0  0
 20 24  1  0  0  0  0
 20 25  1  0  0  0  0
 22 26  2  0  0  0  0
 23 27  1  0  0  0  0
 24 28  1  0  0  0  0
 25 29  1  0  0  0  0
 26 30  1  0  0  0  0
 28 31  1  0  0  0  0
  4  6  1  0  0  0  0
 10 13  1  0  0  0  0
 21 23  2  0  0  0  0
 27 30  2  0  0  0  0
 29 31  1  0  0  0  0
M  END
>  <MolRegNo>
2343715

>  <m>
=

>  <Value>
34000

>  <Unit>
nM

>  <Type>
IC50

>  <pValue>
4.47

>  <Ligand Efficiency>
0

>  <Binding Efficiency>
0

>  <Surface Efficiency>
0

>  <Assay Index>
1339862

>  <Assay Category>


>  <Assay Organism>
Homo sapiens

>  <Target ID>
17045

>  <Target Name>
Cytochrome P450 3A4

>  <Target Organism>
Homo sapiens

>  <Target Description>
Target is a single protein chain

>  <Sequence Accession>
P08684

>  <Reference>
J Med Chem 59 (15), 7066-7074 (2016)

>  <Pubmed ID>
27355974

>  <DOI>
10.1021/acs.jmedchem.6b00280

$$$$
2369916
Actelion Java MolfileCreator 1.0

 34 38  0  0  0  0  0  0  0  0999 V2000
    0.0000   -0.0000   -0.0000 S   0  0  0  0  0  0  0  0  0  0  0  0
    0.9254   -1.1745   -0.0000 C   0  0  0  0  0  0  0  0  0  0  0  0
   -1.4237   -0.5220   -0.0000 C   0  0  0  0  0  0  0  0  0  0  0  0
    0.0830   -2.4202   -0.0000 N   0  0  0  0  0  0  0  0  0  0  0  0
    2.4202   -1.0915   -0.0000 N   0  0  0  0  0  0  0  0  0  0  0  0
   -1.3762   -2.0169   -0.0000 C   0  0  0  0  0  0  0  0  0  0  0  0
   -2.7643    0.1780   -0.0000 C   0  0  0  0  0  0  0  0  0  0  0  0
    3.2151   -2.3491   -0.0000 C   0  0  0  0  0  0  0  0  0  0  0  0
   -2.6457   -2.8117   -0.0000 C   0  0  0  0  0  0  0  0  0  0  0  0
   -4.0456   -0.6169   -0.0000 C   0  0  0  0  0  0  0  0  0  0  0  0
    2.5033   -3.6778   -0.0000 O   0  0  0  0  0  0  0  0  0  0  0  0
    4.7100   -2.2660   -0.0000 N   0  0  0  0  0  0  0  0  0  0  0  0
   -3.9863   -2.1118   -0.0000 C   0  0  0  0  0  0  0  0  0  0  0  0
   -5.3981    0.0830   -0.0000 S   0  0  0  0  0  0  0  0  0  0  0  0
    5.5049   -3.5236   -0.0000 C   0  0  0  0  0  0  0  0  0  0  0  0
   -6.6794   -0.7118   -0.0000 C   0  0  0  0  0  0  0  0  0  0  0  0
    6.9997   -3.4405   -0.0000 C   0  0  0  0  0  0  0  0  0  0  0  0
   -8.0912   -0.1424   -0.0000 N   0  0  0  0  0  0  0  0  0  0  0  0
   -6.7862   -2.1948   -0.0000 N   0  0  0  0  0  0  0  0  0  0  0  0
    7.7946   -4.6981   -0.0000 N   0  0  0  0  0  0  0  0  0  0  0  0
   -9.0640   -1.2932   -0.0000 N   0  0  0  0  0  0  0  0  0  0  0  0
   -5.7421   -3.2507   -0.0000 N   0  0  0  0  0  0  0  0  0  0  0  0
   -8.2573   -2.5626   -0.0000 C   0  0  0  0  0  0  0  0  0  0  0  0
    7.0828   -6.0150   -0.0000 C   0  0  0  0  0  0  0  0  0  0  0  0
    9.2894   -4.6151   -0.0000 C   0  0  0  0  0  0  0  0  0  0  0  0
   -6.1455   -4.6862   -0.0000 C   0  0  0  0  0  0  0  0  0  0  0  0
   -8.6725   -3.9981   -0.0000 C   0  0  0  0  0  0  0  0  0  0  0  0
    7.8776   -7.2726   -0.0000 C   0  0  0  0  0  0  0  0  0  0  0  0
   10.0843   -5.8845   -0.0000 C   0  0  0  0  0  0  0  0  0  0  0  0
   -5.1015   -5.7421   -0.0000 O   0  0  0  0  0  0  0  0  0  0  0  0
   -7.6166   -5.0540   -0.0000 C   0  0  0  0  0  0  0  0  0  0  0  0
    9.3725   -7.2014   -0.0000 O   0  0  0  0  0  0  0  0  0  0  0  0
   -3.6659   -5.3506   -0.0000 C   0  0  0  0  0  0  0  0  0  0  0  0
   -2.6101   -6.4065   -0.0000 C   0  0  0  0  0  0  0  0  0  0  0  0
  1  2  1  0  0  0  0
  1  3  1  0  0  0  0
  2  4  2  0  0  0  0
  2  5  1  0  0  0  0
  3  6  2  0  0  0  0
  3  7  1  0  0  0  0
  5  8  1  0  0  0  0
  6  9  1  0  0  0  0
  7 10  2  0  0  0  0
  8 11  2  0  0  0  0
  8 12  1  0  0  0  0
  9 13  2  0  0  0  0
 10 14  1  0  0  0  0
 12 15  1  0  0  0  0
 14 16  1  0  0  0  0
 15 17  1  0  0  0  0
 16 18  2  0  0  0  0
 16 19  1  0  0  0  0
 17 20  1  0  0  0  0
 18 21  1  0  0  0  0
 19 22  1  0  0  0  0
 19 23  1  0  0  0  0
 20 24  1  0  0  0  0
 20 25  1  0  0  0  0
 22 26  2  0  0  0  0
 23 27  1  0  0  0  0
 24 28  1  0  0  0  0
 25 29  1  0  0  0  0
 26 30  1  0  0  0  0
 26 31  1  0  0  0  0
 28 32  1  0  0  0  0
 30 33  1  0  0  0  0
 33 34  1  0  0  0  0
  4  6  1  0  0  0  0
 10 13  1  0  0  0  0
 21 23  2  0  0  0  0
 27 31  2  0  0  0  0
 29 32  1  0  0  0  0
M  END
>  <MolRegNo>
2369916

>  <m>
=

>  <Value>
4000

>  <Unit>
nM

>  <Type>
IC50

>  <pValue>
5.4

>  <Ligand Efficiency>
0

>  <Binding Efficiency>
0

>  <Surface Efficiency>
0

>  <Assay Index>
1339862

>  <Assay Category>


>  <Assay Organism>
Homo sapiens

>  <Target ID>
17045

>  <Target Name>
Cytochrome P450 3A4

>  <Target Organism>
Homo sapiens

>  <Target Description>
Target is a single protein chain

>  <Sequence Accession>
P08684

>  <Reference>
J Med Chem 59 (15), 7066-7074 (2016)

>  <Pubmed ID>
27355974

>  <DOI>
10.1021/acs.jmedchem.6b00280

$$$$
2407972
Actelion Java MolfileCreator 1.0

 38 43  0  0  0  0  0  0  0  0999 V2000
    0.0000   -0.0000   -0.0000 S   0  0  0  0  0  0  0  0  0  0  0  0
    0.9255   -1.1747   -0.0000 C   0  0  0  0  0  0  0  0  0  0  0  0
   -1.4239   -0.5221   -0.0000 C   0  0  0  0  0  0  0  0  0  0  0  0
    0.0831   -2.4206   -0.0000 N   0  0  0  0  0  0  0  0  0  0  0  0
    2.4206   -1.0916   -0.0000 N   0  0  0  0  0  0  0  0  0  0  0  0
   -1.3764   -2.0172   -0.0000 C   0  0  0  0  0  0  0  0  0  0  0  0
   -2.7647    0.1780   -0.0000 C   0  0  0  0  0  0  0  0  0  0  0  0
    3.2156   -2.3494   -0.0000 C   0  0  0  0  0  0  0  0  0  0  0  0
   -2.6461   -2.8122   -0.0000 C   0  0  0  0  0  0  0  0  0  0  0  0
   -4.0462   -0.6170   -0.0000 C   0  0  0  0  0  0  0  0  0  0  0  0
    2.5037   -3.6784   -0.0000 O   0  0  0  0  0  0  0  0  0  0  0  0
    4.7107   -2.2664   -0.0000 N   0  0  0  0  0  0  0  0  0  0  0  0
   -3.9869   -2.1121   -0.0000 C   0  0  0  0  0  0  0  0  0  0  0  0
   -5.3989    0.0831   -0.0000 S   0  0  0  0  0  0  0  0  0  0  0  0
    5.5057   -3.5241   -0.0000 C   0  0  0  0  0  0  0  0  0  0  0  0
   -6.6804   -0.7119   -0.0000 C   0  0  0  0  0  0  0  0  0  0  0  0
    7.0008   -3.4411   -0.0000 C   0  0  0  0  0  0  0  0  0  0  0  0
   -8.0924   -0.1424   -0.0000 N   0  0  0  0  0  0  0  0  0  0  0  0
   -6.7872   -2.1952   -0.0000 N   0  0  0  0  0  0  0  0  0  0  0  0
    7.7958   -4.6988   -0.0000 N   0  0  0  0  0  0  0  0  0  0  0  0
   -9.0654   -1.2934   -0.0000 N   0  0  0  0  0  0  0  0  0  0  0  0
   -5.7430   -3.2512   -0.0000 N   0  0  0  0  0  0  0  0  0  0  0  0
   -8.2586   -2.5630   -0.0000 C   0  0  0  0  0  0  0  0  0  0  0  0
    7.0838   -6.0159   -0.0000 C   0  0  0  0  0  0  0  0  0  0  0  0
    9.2909   -4.6158   -0.0000 C   0  0  0  0  0  0  0  0  0  0  0  0
   -6.1465   -4.6870   -0.0000 C   0  0  0  0  0  0  0  0  0  0  0  0
   -8.6739   -3.9988   -0.0000 C   0  0  0  0  0  0  0  0  0  0  0  0
    7.8789   -7.2737   -0.0000 C   0  0  0  0  0  0  0  0  0  0  0  0
   10.0859   -5.8854   -0.0000 C   0  0  0  0  0  0  0  0  0  0  0  0
   -5.1023   -5.7430   -0.0000 C   0  0  0  0  0  0  0  0  0  0  0  0
   -7.6178   -5.0548   -0.0000 C   0  0  0  0  0  0  0  0  0  0  0  0
    9.3739   -7.2025   -0.0000 O   0  0  0  0  0  0  0  0  0  0  0  0
   -5.5176   -7.1906   -0.0000 C   0  0  0  0  0  0  0  0  0  0  0  0
   -3.6665   -5.3515   -0.0000 C   0  0  0  0  0  0  0  0  0  0  0  0
   -4.4734   -8.2467   -0.0000 C   0  0  0  0  0  0  0  0  0  0  0  0
   -2.6223   -6.4075   -0.0000 C   0  0  0  0  0  0  0  0  0  0  0  0
   -4.8887   -9.6943   -0.0000 F   0  0  0  0  0  0  0  0  0  0  0  0
   -3.0258   -7.8551   -0.0000 C   0  0  0  0  0  0  0  0  0  0  0  0
  1  2  1  0  0  0  0
  1  3  1  0  0  0  0
  2  4  2  0  0  0  0
  2  5  1  0  0  0  0
  3  6  2  0  0  0  0
  3  7  1  0  0  0  0
  5  8  1  0  0  0  0
  6  9  1  0  0  0  0
  7 10  2  0  0  0  0
  8 11  2  0  0  0  0
  8 12  1  0  0  0  0
  9 13  2  0  0  0  0
 10 14  1  0  0  0  0
 12 15  1  0  0  0  0
 14 16  1  0  0  0  0
 15 17  1  0  0  0  0
 16 18  2  0  0  0  0
 16 19  1  0  0  0  0
 17 20  1  0  0  0  0
 18 21  1  0  0  0  0
 19 22  1  0  0  0  0
 19 23  1  0  0  0  0
 20 24  1  0  0  0  0
 20 25  1  0  0  0  0
 22 26  2  0  0  0  0
 23 27  1  0  0  0  0
 24 28  1  0  0  0  0
 25 29  1  0  0  0  0
 26 30  1  0  0  0  0
 26 31  1  0  0  0  0
 28 32  1  0  0  0  0
 30 33  2  0  0  0  0
 30 34  1  0  0  0  0
 33 35  1  0  0  0  0
 34 36  2  0  0  0  0
 35 37  1  0  0  0  0
 35 38  2  0  0  0  0
  4  6  1  0  0  0  0
 10 13  1  0  0  0  0
 21 23  2  0  0  0  0
 27 31  2  0  0  0  0
 29 32  1  0  0  0  0
 36 38  1  0  0  0  0
M  END
>  <MolRegNo>
2407972

>  <m>
=

>  <Value>
1800

>  <Unit>
nM

>  <Type>
IC50

>  <pValue>
5.75

>  <Ligand Efficiency>
0

>  <Binding Efficiency>
0

>  <Surface Efficiency>
0

>  <Assay Index>
1339862

>  <Assay Category>


>  <Assay Organism>
Homo sapiens

>  <Target ID>
17045

>  <Target Name>
Cytochrome P450 3A4

>  <Target Organism>
Homo sapiens

>  <Target Description>
Target is a single protein chain

>  <Sequence Accession>
P08684

>  <Reference>
J Med Chem 59 (15), 7066-7074 (2016)

>  <Pubmed ID>
27355974

>  <DOI>
10.1021/acs.jmedchem.6b00280

$$$$
2422140
Actelion Java MolfileCreator 1.0

 38 43  0  0  0  0  0  0  0  0999 V2000
    0.0000   -0.0000   -0.0000 S   0  0  0  0  0  0  0  0  0  0  0  0
    0.9249   -1.1739   -0.0000 C   0  0  0  0  0  0  0  0  0  0  0  0
   -1.4229   -0.5217   -0.0000 C   0  0  0  0  0  0  0  0  0  0  0  0
    0.0830   -2.4189   -0.0000 N   0  0  0  0  0  0  0  0  0  0  0  0
    2.4189   -1.0909   -0.0000 N   0  0  0  0  0  0  0  0  0  0  0  0
   -1.3755   -2.0158   -0.0000 C   0  0  0  0  0  0  0  0  0  0  0  0
   -2.7628    0.1779   -0.0000 C   0  0  0  0  0  0  0  0  0  0  0  0
    3.2134   -2.3478   -0.0000 C   0  0  0  0  0  0  0  0  0  0  0  0
   -2.6442   -2.8102   -0.0000 C   0  0  0  0  0  0  0  0  0  0  0  0
   -4.0434   -0.6166   -0.0000 C   0  0  0  0  0  0  0  0  0  0  0  0
    2.5019   -3.6758   -0.0000 O   0  0  0  0  0  0  0  0  0  0  0  0
    4.7074   -2.2648   -0.0000 N   0  0  0  0  0  0  0  0  0  0  0  0
   -3.9841   -2.1106   -0.0000 C   0  0  0  0  0  0  0  0  0  0  0  0
   -5.3951    0.0830   -0.0000 S   0  0  0  0  0  0  0  0  0  0  0  0
    5.5018   -3.5217   -0.0000 C   0  0  0  0  0  0  0  0  0  0  0  0
   -6.6757   -0.7114   -0.0000 C   0  0  0  0  0  0  0  0  0  0  0  0
    6.9959   -3.4387   -0.0000 C   0  0  0  0  0  0  0  0  0  0  0  0
   -8.0868   -0.1423   -0.0000 N   0  0  0  0  0  0  0  0  0  0  0  0
   -6.7825   -2.1936   -0.0000 N   0  0  0  0  0  0  0  0  0  0  0  0
    7.7903   -4.6955   -0.0000 N   0  0  0  0  0  0  0  0  0  0  0  0
   -9.0591   -1.2925   -0.0000 N   0  0  0  0  0  0  0  0  0  0  0  0
   -5.7390   -3.2489   -0.0000 N   0  0  0  0  0  0  0  0  0  0  0  0
   -8.2528   -2.5612   -0.0000 C   0  0  0  0  0  0  0  0  0  0  0  0
    7.0789   -6.0117   -0.0000 C   0  0  0  0  0  0  0  0  0  0  0  0
    9.2844   -4.6125   -0.0000 C   0  0  0  0  0  0  0  0  0  0  0  0
   -6.1421   -4.6837   -0.0000 C   0  0  0  0  0  0  0  0  0  0  0  0
   -8.6678   -3.9960   -0.0000 C   0  0  0  0  0  0  0  0  0  0  0  0
    7.8733   -7.2686   -0.0000 C   0  0  0  0  0  0  0  0  0  0  0  0
   10.0788   -5.8813   -0.0000 C   0  0  0  0  0  0  0  0  0  0  0  0
   -5.0987   -5.7390   -0.0000 O   0  0  0  0  0  0  0  0  0  0  0  0
   -7.6125   -5.0513   -0.0000 C   0  0  0  0  0  0  0  0  0  0  0  0
    9.3674   -7.1975   -0.0000 O   0  0  0  0  0  0  0  0  0  0  0  0
   -5.5018   -7.1856   -0.0000 C   0  0  0  0  0  0  0  0  0  0  0  0
   -6.9603   -7.5650   -0.0000 C   0  0  0  0  0  0  0  0  0  0  0  0
   -4.4465   -8.2409   -0.0000 C   0  0  0  0  0  0  0  0  0  0  0  0
   -7.3753   -8.9998   -0.0000 C   0  0  0  0  0  0  0  0  0  0  0  0
   -4.8615   -9.6875   -0.0000 C   0  0  0  0  0  0  0  0  0  0  0  0
   -6.3319  -10.0670   -0.0000 C   0  0  0  0  0  0  0  0  0  0  0  0
  1  2  1  0  0  0  0
  1  3  1  0  0  0  0
  2  4  2  0  0  0  0
  2  5  1  0  0  0  0
  3  6  2  0  0  0  0
  3  7  1  0  0  0  0
  5  8  1  0  0  0  0
  6  9  1  0  0  0  0
  7 10  2  0  0  0  0
  8 11  2  0  0  0  0
  8 12  1  0  0  0  0
  9 13  2  0  0  0  0
 10 14  1  0  0  0  0
 12 15  1  0  0  0  0
 14 16  1  0  0  0  0
 15 17  1  0  0  0  0
 16 18  2  0  0  0  0
 16 19  1  0  0  0  0
 17 20  1  0  0  0  0
 18 21  1  0  0  0  0
 19 22  1  0  0  0  0
 19 23  1  0  0  0  0
 20 24  1  0  0  0  0
 20 25  1  0  0  0  0
 22 26  2  0  0  0  0
 23 27  1  0  0  0  0
 24 28  1  0  0  0  0
 25 29  1  0  0  0  0
 26 30  1  0  0  0  0
 26 31  1  0  0  0  0
 28 32  1  0  0  0  0
 30 33  1  0  0  0  0
 33 34  1  0  0  0  0
 33 35  1  0  0  0  0
 34 36  1  0  0  0  0
 35 37  1  0  0  0  0
 36 38  1  0  0  0  0
  4  6  1  0  0  0  0
 10 13  1  0  0  0  0
 21 23  2  0  0  0  0
 27 31  2  0  0  0  0
 29 32  1  0  0  0  0
 37 38  1  0  0  0  0
M  END
>  <MolRegNo>
2422140

>  <m>
=

>  <Value>
2700

>  <Unit>
nM

>  <Type>
IC50

>  <pValue>
5.57

>  <Ligand Efficiency>
0

>  <Binding Efficiency>
0

>  <Surface Efficiency>
0

>  <Assay Index>
1339862

>  <Assay Category>


>  <Assay Organism>
Homo sapiens

>  <Target ID>
17045

>  <Target Name>
Cytochrome P450 3A4

>  <Target Organism>
Homo sapiens

>  <Target Description>
Target is a single protein chain

>  <Sequence Accession>
P08684

>  <Reference>
J Med Chem 59 (15), 7066-7074 (2016)

>  <Pubmed ID>
27355974

>  <DOI>
10.1021/acs.jmedchem.6b00280

$$$$
2373653
Actelion Java MolfileCreator 1.0

 38 43  0  0  0  0  0  0  0  0999 V2000
    0.0000   -0.0000   -0.0000 S   0  0  0  0  0  0  0  0  0  0  0  0
    0.9249   -1.1739   -0.0000 C   0  0  0  0  0  0  0  0  0  0  0  0
   -1.4229   -0.5217   -0.0000 C   0  0  0  0  0  0  0  0  0  0  0  0
    0.0830   -2.4189   -0.0000 N   0  0  0  0  0  0  0  0  0  0  0  0
    2.4189   -1.0909   -0.0000 N   0  0  0  0  0  0  0  0  0  0  0  0
   -1.3755   -2.0158   -0.0000 C   0  0  0  0  0  0  0  0  0  0  0  0
   -2.7628    0.1779   -0.0000 C   0  0  0  0  0  0  0  0  0  0  0  0
    3.2134   -2.3478   -0.0000 C   0  0  0  0  0  0  0  0  0  0  0  0
   -2.6442   -2.8102   -0.0000 C   0  0  0  0  0  0  0  0  0  0  0  0
   -4.0434   -0.6166   -0.0000 C   0  0  0  0  0  0  0  0  0  0  0  0
    2.5019   -3.6758   -0.0000 O   0  0  0  0  0  0  0  0  0  0  0  0
    4.7074   -2.2648   -0.0000 N   0  0  0  0  0  0  0  0  0  0  0  0
   -3.9841   -2.1106   -0.0000 C   0  0  0  0  0  0  0  0  0  0  0  0
   -5.3951    0.0830   -0.0000 S   0  0  0  0  0  0  0  0  0  0  0  0
    5.5018   -3.5217   -0.0000 C   0  0  0  0  0  0  0  0  0  0  0  0
   -6.6757   -0.7114   -0.0000 C   0  0  0  0  0  0  0  0  0  0  0  0
    6.9959   -3.4387   -0.0000 C   0  0  0  0  0  0  0  0  0  0  0  0
   -8.0868   -0.1423   -0.0000 N   0  0  0  0  0  0  0  0  0  0  0  0
   -6.7825   -2.1936   -0.0000 N   0  0  0  0  0  0  0  0  0  0  0  0
    7.7903   -4.6955   -0.0000 N   0  0  0  0  0  0  0  0  0  0  0  0
   -9.0591   -1.2925   -0.0000 N   0  0  0  0  0  0  0  0  0  0  0  0
   -5.7390   -3.2489   -0.0000 N   0  0  0  0  0  0  0  0  0  0  0  0
   -8.2528   -2.5612   -0.0000 C   0  0  0  0  0  0  0  0  0  0  0  0
    7.0789   -6.0117   -0.0000 C   0  0  0  0  0  0  0  0  0  0  0  0
    9.2844   -4.6125   -0.0000 C   0  0  0  0  0  0  0  0  0  0  0  0
   -6.1421   -4.6837   -0.0000 C   0  0  0  0  0  0  0  0  0  0  0  0
   -8.6678   -3.9960   -0.0000 C   0  0  0  0  0  0  0  0  0  0  0  0
    7.8733   -7.2686   -0.0000 C   0  0  0  0  0  0  0  0  0  0  0  0
   10.0788   -5.8813   -0.0000 C   0  0  0  0  0  0  0  0  0  0  0  0
   -5.0987   -5.7390   -0.0000 N   0  0  0  0  0  0  0  0  0  0  0  0
   -7.6125   -5.0513   -0.0000 C   0  0  0  0  0  0  0  0  0  0  0  0
    9.3674   -7.1975   -0.0000 O   0  0  0  0  0  0  0  0  0  0  0  0
   -5.5018   -7.1856   -0.0000 C   0  0  0  0  0  0  0  0  0  0  0  0
   -6.9603   -7.5650   -0.0000 C   0  0  0  0  0  0  0  0  0  0  0  0
   -4.4465   -8.2409   -0.0000 C   0  0  0  0  0  0  0  0  0  0  0  0
   -7.3753   -8.9998   -0.0000 C   0  0  0  0  0  0  0  0  0  0  0  0
   -4.8615   -9.6875   -0.0000 C   0  0  0  0  0  0  0  0  0  0  0  0
   -6.3319  -10.0670   -0.0000 C   0  0  0  0  0  0  0  0  0  0  0  0
  1  2  1  0  0  0  0
  1  3  1  0  0  0  0
  2  4  2  0  0  0  0
  2  5  1  0  0  0  0
  3  6  2  0  0  0  0
  3  7  1  0  0  0  0
  5  8  1  0  0  0  0
  6  9  1  0  0  0  0
  7 10  2  0  0  0  0
  8 11  2  0  0  0  0
  8 12  1  0  0  0  0
  9 13  2  0  0  0  0
 10 14  1  0  0  0  0
 12 15  1  0  0  0  0
 14 16  1  0  0  0  0
 15 17  1  0  0  0  0
 16 18  2  0  0  0  0
 16 19  1  0  0  0  0
 17 20  1  0  0  0  0
 18 21  1  0  0  0  0
 19 22  1  0  0  0  0
 19 23  1  0  0  0  0
 20 24  1  0  0  0  0
 20 25  1  0  0  0  0
 22 26  2  0  0  0  0
 23 27  1  0  0  0  0
 24 28  1  0  0  0  0
 25 29  1  0  0  0  0
 26 30  1  0  0  0  0
 26 31  1  0  0  0  0
 28 32  1  0  0  0  0
 30 33  1  0  0  0  0
 33 34  1  0  0  0  0
 33 35  1  0  0  0  0
 34 36  1  0  0  0  0
 35 37  1  0  0  0  0
 36 38  1  0  0  0  0
  4  6  1  0  0  0  0
 10 13  1  0  0  0  0
 21 23  2  0  0  0  0
 27 31  2  0  0  0  0
 29 32  1  0  0  0  0
 37 38  1  0  0  0  0
M  END
>  <MolRegNo>
2373653

>  <m>
=

>  <Value>
2900

>  <Unit>
nM

>  <Type>
IC50

>  <pValue>
5.54

>  <Ligand Efficiency>
0

>  <Binding Efficiency>
0

>  <Surface Efficiency>
0

>  <Assay Index>
1339862

>  <Assay Category>


>  <Assay Organism>
Homo sapiens

>  <Target ID>
17045

>  <Target Name>
Cytochrome P450 3A4

>  <Target Organism>
Homo sapiens

>  <Target Description>
Target is a single protein chain

>  <Sequence Accession>
P08684

>  <Reference>
J Med Chem 59 (15), 7066-7074 (2016)

>  <Pubmed ID>
27355974

>  <DOI>
10.1021/acs.jmedchem.6b00280

$$$$
2385231
Actelion Java MolfileCreator 1.0

 35 40  0  0  0  0  0  0  0  0999 V2000
    0.0000   -0.0000   -0.0000 S   0  0  0  0  0  0  0  0  0  0  0  0
    0.9246   -1.1735   -0.0000 C   0  0  0  0  0  0  0  0  0  0  0  0
   -1.4224   -0.5216   -0.0000 C   0  0  0  0  0  0  0  0  0  0  0  0
    0.0830   -2.4181   -0.0000 N   0  0  0  0  0  0  0  0  0  0  0  0
    2.4181   -1.0905   -0.0000 N   0  0  0  0  0  0  0  0  0  0  0  0
   -1.3750   -2.0151   -0.0000 C   0  0  0  0  0  0  0  0  0  0  0  0
   -2.7618    0.1778   -0.0000 C   0  0  0  0  0  0  0  0  0  0  0  0
    3.2123   -2.3470   -0.0000 C   0  0  0  0  0  0  0  0  0  0  0  0
   -2.6433   -2.8093   -0.0000 C   0  0  0  0  0  0  0  0  0  0  0  0
   -4.0420   -0.6164   -0.0000 C   0  0  0  0  0  0  0  0  0  0  0  0
    2.5011   -3.6746   -0.0000 O   0  0  0  0  0  0  0  0  0  0  0  0
    4.7058   -2.2640   -0.0000 N   0  0  0  0  0  0  0  0  0  0  0  0
   -3.9828   -2.1099   -0.0000 C   0  0  0  0  0  0  0  0  0  0  0  0
   -5.3933    0.0830   -0.0000 S   0  0  0  0  0  0  0  0  0  0  0  0
    5.5000   -3.5205   -0.0000 C   0  0  0  0  0  0  0  0  0  0  0  0
   -6.6735   -0.7112   -0.0000 C   0  0  0  0  0  0  0  0  0  0  0  0
    6.9935   -3.4375   -0.0000 C   0  0  0  0  0  0  0  0  0  0  0  0
   -8.0840   -0.1422   -0.0000 N   0  0  0  0  0  0  0  0  0  0  0  0
   -6.7802   -2.1929   -0.0000 N   0  0  0  0  0  0  0  0  0  0  0  0
    7.7877   -4.6940   -0.0000 N   0  0  0  0  0  0  0  0  0  0  0  0
   -9.0560   -1.2920   -0.0000 N   0  0  0  0  0  0  0  0  0  0  0  0
   -5.7371   -3.2478   -0.0000 N   0  0  0  0  0  0  0  0  0  0  0  0
   -8.2500   -2.5603   -0.0000 C   0  0  0  0  0  0  0  0  0  0  0  0
    7.0765   -6.0097   -0.0000 C   0  0  0  0  0  0  0  0  0  0  0  0
    9.2812   -4.5991   -0.0000 C   0  0  0  0  0  0  0  0  0  0  0  0
   -6.1401   -4.6821   -0.0000 C   0  0  0  0  0  0  0  0  0  0  0  0
   -8.6649   -3.9946   -0.0000 C   0  0  0  0  0  0  0  0  0  0  0  0
    7.8707   -7.2662   -0.0000 C   0  0  0  0  0  0  0  0  0  0  0  0
   10.0754   -5.8674   -0.0000 C   0  0  0  0  0  0  0  0  0  0  0  0
   -5.0970   -5.7371   -0.0000 N   0  0  0  0  0  0  0  0  0  0  0  0
   -7.6099   -5.0496   -0.0000 C   0  0  0  0  0  0  0  0  0  0  0  0
    9.3642   -7.1950   -0.0000 O   0  0  0  0  0  0  0  0  0  0  0  0
   -5.5118   -7.1832   -0.0000 C   0  0  0  0  0  0  0  0  0  0  0  0
   -6.5905   -8.2381   -0.0000 C   0  0  0  0  0  0  0  0  0  0  0  0
   -5.1325   -8.6293   -0.0000 C   0  0  0  0  0  0  0  0  0  0  0  0
  1  2  1  0  0  0  0
  1  3  1  0  0  0  0
  2  4  2  0  0  0  0
  2  5  1  0  0  0  0
  3  6  2  0  0  0  0
  3  7  1  0  0  0  0
  5  8  1  0  0  0  0
  6  9  1  0  0  0  0
  7 10  2  0  0  0  0
  8 11  2  0  0  0  0
  8 12  1  0  0  0  0
  9 13  2  0  0  0  0
 10 14  1  0  0  0  0
 12 15  1  0  0  0  0
 14 16  1  0  0  0  0
 15 17  1  0  0  0  0
 16 18  2  0  0  0  0
 16 19  1  0  0  0  0
 17 20  1  0  0  0  0
 18 21  1  0  0  0  0
 19 22  1  0  0  0  0
 19 23  1  0  0  0  0
 20 24  1  0  0  0  0
 20 25  1  0  0  0  0
 22 26  2  0  0  0  0
 23 27  1  0  0  0  0
 24 28  1  0  0  0  0
 25 29  1  0  0  0  0
 26 30  1  0  0  0  0
 26 31  1  0  0  0  0
 28 32  1  0  0  0  0
 30 33  1  0  0  0  0
 33 34  1  0  0  0  0
 33 35  1  0  0  0  0
  4  6  1  0  0  0  0
 10 13  1  0  0  0  0
 21 23  2  0  0  0  0
 27 31  2  0  0  0  0
 29 32  1  0  0  0  0
 34 35  1  0  0  0  0
M  END
>  <MolRegNo>
2385231

>  <m>
=

>  <Value>
200

>  <Unit>
nM

>  <Type>
IC50

>  <pValue>
6.7

>  <Ligand Efficiency>
0

>  <Binding Efficiency>
0

>  <Surface Efficiency>
0

>  <Assay Index>
1339862

>  <Assay Category>


>  <Assay Organism>
Homo sapiens

>  <Target ID>
17045

>  <Target Name>
Cytochrome P450 3A4

>  <Target Organism>
Homo sapiens

>  <Target Description>
Target is a single protein chain

>  <Sequence Accession>
P08684

>  <Reference>
J Med Chem 59 (15), 7066-7074 (2016)

>  <Pubmed ID>
27355974

>  <DOI>
10.1021/acs.jmedchem.6b00280

$$$$
2412097
Actelion Java MolfileCreator 1.0

 38 43  0  0  0  0  0  0  0  0999 V2000
    0.0000   -0.0000   -0.0000 S   0  0  0  0  0  0  0  0  0  0  0  0
    0.9248   -1.1738   -0.0000 C   0  0  0  0  0  0  0  0  0  0  0  0
   -1.4228   -0.5217   -0.0000 C   0  0  0  0  0  0  0  0  0  0  0  0
    0.0830   -2.4187   -0.0000 N   0  0  0  0  0  0  0  0  0  0  0  0
    2.4187   -1.0908   -0.0000 N   0  0  0  0  0  0  0  0  0  0  0  0
   -1.3753   -2.0156   -0.0000 C   0  0  0  0  0  0  0  0  0  0  0  0
   -2.7625    0.1778   -0.0000 C   0  0  0  0  0  0  0  0  0  0  0  0
    3.2131   -2.3476   -0.0000 C   0  0  0  0  0  0  0  0  0  0  0  0
   -2.6440   -2.8100   -0.0000 C   0  0  0  0  0  0  0  0  0  0  0  0
   -4.0430   -0.6165   -0.0000 C   0  0  0  0  0  0  0  0  0  0  0  0
    2.5017   -3.6755   -0.0000 O   0  0  0  0  0  0  0  0  0  0  0  0
    4.7070   -2.2646   -0.0000 N   0  0  0  0  0  0  0  0  0  0  0  0
   -3.9838   -2.1104   -0.0000 C   0  0  0  0  0  0  0  0  0  0  0  0
   -5.3947    0.0949   -0.0000 S   0  0  0  0  0  0  0  0  0  0  0  0
    5.5014   -3.5214   -0.0000 C   0  0  0  0  0  0  0  0  0  0  0  0
   -6.6752   -0.6995   -0.0000 C   0  0  0  0  0  0  0  0  0  0  0  0
    6.9953   -3.4384   -0.0000 C   0  0  0  0  0  0  0  0  0  0  0  0
   -8.0861   -0.1304   -0.0000 N   0  0  0  0  0  0  0  0  0  0  0  0
   -6.7819   -2.1816   -0.0000 N   0  0  0  0  0  0  0  0  0  0  0  0
    7.7897   -4.6951   -0.0000 N   0  0  0  0  0  0  0  0  0  0  0  0
   -9.0583   -1.2805   -0.0000 N   0  0  0  0  0  0  0  0  0  0  0  0
   -5.7385   -3.2368   -0.0000 N   0  0  0  0  0  0  0  0  0  0  0  0
   -8.2521   -2.5491   -0.0000 C   0  0  0  0  0  0  0  0  0  0  0  0
    7.0783   -6.0112   -0.0000 C   0  0  0  0  0  0  0  0  0  0  0  0
    9.2836   -4.6121   -0.0000 C   0  0  0  0  0  0  0  0  0  0  0  0
   -6.1416   -4.6714   -0.0000 C   0  0  0  0  0  0  0  0  0  0  0  0
   -8.6670   -3.9838   -0.0000 C   0  0  0  0  0  0  0  0  0  0  0  0
    7.8727   -7.2680   -0.0000 C   0  0  0  0  0  0  0  0  0  0  0  0
   10.0779   -5.8808   -0.0000 C   0  0  0  0  0  0  0  0  0  0  0  0
   -5.0983   -5.7266   -0.0000 O   0  0  0  0  0  0  0  0  0  0  0  0
   -7.6118   -5.0390   -0.0000 C   0  0  0  0  0  0  0  0  0  0  0  0
    9.3666   -7.1968   -0.0000 O   0  0  0  0  0  0  0  0  0  0  0  0
   -5.5014   -7.1731   -0.0000 C   0  0  0  0  0  0  0  0  0  0  0  0
   -6.9716   -7.5407   -0.0000 C   0  0  0  0  0  0  0  0  0  0  0  0
   -4.4462   -8.2165   -0.0000 C   0  0  0  0  0  0  0  0  0  0  0  0
   -7.3865   -8.9753   -0.0000 C   0  0  0  0  0  0  0  0  0  0  0  0
   -4.8493   -9.6511   -0.0000 C   0  0  0  0  0  0  0  0  0  0  0  0
   -6.3432  -10.0305   -0.0000 C   0  0  0  0  0  0  0  0  0  0  0  0
  1  2  1  0  0  0  0
  1  3  1  0  0  0  0
  2  4  2  0  0  0  0
  2  5  1  0  0  0  0
  3  6  2  0  0  0  0
  3  7  1  0  0  0  0
  5  8  1  0  0  0  0
  6  9  1  0  0  0  0
  7 10  2  0  0  0  0
  8 11  2  0  0  0  0
  8 12  1  0  0  0  0
  9 13  2  0  0  0  0
 10 14  1  0  0  0  0
 12 15  1  0  0  0  0
 14 16  1  0  0  0  0
 15 17  1  0  0  0  0
 16 18  2  0  0  0  0
 16 19  1  0  0  0  0
 17 20  1  0  0  0  0
 18 21  1  0  0  0  0
 19 22  1  0  0  0  0
 19 23  1  0  0  0  0
 20 24  1  0  0  0  0
 20 25  1  0  0  0  0
 22 26  2  0  0  0  0
 23 27  1  0  0  0  0
 24 28  1  0  0  0  0
 25 29  1  0  0  0  0
 26 30  1  0  0  0  0
 26 31  1  0  0  0  0
 28 32  1  0  0  0  0
 30 33  1  0  0  0  0
 33 34  2  0  0  0  0
 33 35  1  0  0  0  0
 34 36  1  0  0  0  0
 35 37  2  0  0  0  0
 36 38  2  0  0  0  0
  4  6  1  0  0  0  0
 10 13  1  0  0  0  0
 21 23  2  0  0  0  0
 27 31  2  0  0  0  0
 29 32  1  0  0  0  0
 37 38  1  0  0  0  0
M  END
>  <MolRegNo>
2412097

>  <m>
=

>  <Value>
7900

>  <Unit>
nM

>  <Type>
IC50

>  <pValue>
5.1

>  <Ligand Efficiency>
0

>  <Binding Efficiency>
0

>  <Surface Efficiency>
0

>  <Assay Index>
1339862

>  <Assay Category>


>  <Assay Organism>
Homo sapiens

>  <Target ID>
17045

>  <Target Name>
Cytochrome P450 3A4

>  <Target Organism>
Homo sapiens

>  <Target Description>
Target is a single protein chain

>  <Sequence Accession>
P08684

>  <Reference>
J Med Chem 59 (15), 7066-7074 (2016)

>  <Pubmed ID>
27355974

>  <DOI>
10.1021/acs.jmedchem.6b00280

$$$$
2367823
Actelion Java MolfileCreator 1.0

 37 42  0  0  0  0  0  0  0  0999 V2000
    0.0000   -0.0000   -0.0000 S   0  0  0  0  0  0  0  0  0  0  0  0
    0.9249   -1.1739   -0.0000 C   0  0  0  0  0  0  0  0  0  0  0  0
   -1.4229   -0.5217   -0.0000 C   0  0  0  0  0  0  0  0  0  0  0  0
    0.0830   -2.4189   -0.0000 N   0  0  0  0  0  0  0  0  0  0  0  0
    2.4189   -1.0909   -0.0000 N   0  0  0  0  0  0  0  0  0  0  0  0
   -1.3755   -2.0158   -0.0000 C   0  0  0  0  0  0  0  0  0  0  0  0
   -2.7628    0.1779   -0.0000 C   0  0  0  0  0  0  0  0  0  0  0  0
    3.2134   -2.3478   -0.0000 C   0  0  0  0  0  0  0  0  0  0  0  0
   -2.6442   -2.8102   -0.0000 C   0  0  0  0  0  0  0  0  0  0  0  0
   -4.0434   -0.6166   -0.0000 C   0  0  0  0  0  0  0  0  0  0  0  0
    2.5019   -3.6758   -0.0000 O   0  0  0  0  0  0  0  0  0  0  0  0
    4.7074   -2.2648   -0.0000 N   0  0  0  0  0  0  0  0  0  0  0  0
   -3.9841   -2.1106   -0.0000 C   0  0  0  0  0  0  0  0  0  0  0  0
   -5.3952    0.0830   -0.0000 S   0  0  0  0  0  0  0  0  0  0  0  0
    5.5019   -3.5217   -0.0000 C   0  0  0  0  0  0  0  0  0  0  0  0
   -6.6758   -0.7115   -0.0000 C   0  0  0  0  0  0  0  0  0  0  0  0
    6.9959   -3.4387   -0.0000 C   0  0  0  0  0  0  0  0  0  0  0  0
   -8.0868   -0.1423   -0.0000 N   0  0  0  0  0  0  0  0  0  0  0  0
   -6.7825   -2.1936   -0.0000 N   0  0  0  0  0  0  0  0  0  0  0  0
    7.7904   -4.6956   -0.0000 N   0  0  0  0  0  0  0  0  0  0  0  0
   -9.0591   -1.2925   -0.0000 N   0  0  0  0  0  0  0  0  0  0  0  0
   -5.7390   -3.2490   -0.0000 N   0  0  0  0  0  0  0  0  0  0  0  0
   -8.2528   -2.5612   -0.0000 C   0  0  0  0  0  0  0  0  0  0  0  0
    7.0789   -6.0118   -0.0000 C   0  0  0  0  0  0  0  0  0  0  0  0
    9.2844   -4.6007   -0.0000 C   0  0  0  0  0  0  0  0  0  0  0  0
   -6.1422   -4.6837   -0.0000 C   0  0  0  0  0  0  0  0  0  0  0  0
   -8.6678   -3.9960   -0.0000 C   0  0  0  0  0  0  0  0  0  0  0  0
    7.8734   -7.2687   -0.0000 C   0  0  0  0  0  0  0  0  0  0  0  0
   10.0789   -5.8695   -0.0000 C   0  0  0  0  0  0  0  0  0  0  0  0
   -5.0987   -5.7390   -0.0000 O   0  0  0  0  0  0  0  0  0  0  0  0
   -7.6125   -5.0513   -0.0000 C   0  0  0  0  0  0  0  0  0  0  0  0
    9.3674   -7.1975   -0.0000 O   0  0  0  0  0  0  0  0  0  0  0  0
   -5.5019   -7.1856   -0.0000 C   0  0  0  0  0  0  0  0  0  0  0  0
   -6.9248   -7.7074   -0.0000 C   0  0  0  0  0  0  0  0  0  0  0  0
   -4.5770   -8.3477   -0.0000 C   0  0  0  0  0  0  0  0  0  0  0  0
   -6.8655   -9.2014   -0.0000 C   0  0  0  0  0  0  0  0  0  0  0  0
   -5.4189   -9.5927   -0.0000 C   0  0  0  0  0  0  0  0  0  0  0  0
  1  2  1  0  0  0  0
  1  3  1  0  0  0  0
  2  4  2  0  0  0  0
  2  5  1  0  0  0  0
  3  6  2  0  0  0  0
  3  7  1  0  0  0  0
  5  8  1  0  0  0  0
  6  9  1  0  0  0  0
  7 10  2  0  0  0  0
  8 11  2  0  0  0  0
  8 12  1  0  0  0  0
  9 13  2  0  0  0  0
 10 14  1  0  0  0  0
 12 15  1  0  0  0  0
 14 16  1  0  0  0  0
 15 17  1  0  0  0  0
 16 18  2  0  0  0  0
 16 19  1  0  0  0  0
 17 20  1  0  0  0  0
 18 21  1  0  0  0  0
 19 22  1  0  0  0  0
 19 23  1  0  0  0  0
 20 24  1  0  0  0  0
 20 25  1  0  0  0  0
 22 26  2  0  0  0  0
 23 27  1  0  0  0  0
 24 28  1  0  0  0  0
 25 29  1  0  0  0  0
 26 30  1  0  0  0  0
 26 31  1  0  0  0  0
 28 32  1  0  0  0  0
 30 33  1  0  0  0  0
 33 34  1  0  0  0  0
 33 35  1  0  0  0  0
 34 36  1  0  0  0  0
 35 37  1  0  0  0  0
  4  6  1  0  0  0  0
 10 13  1  0  0  0  0
 21 23  2  0  0  0  0
 27 31  2  0  0  0  0
 29 32  1  0  0  0  0
 36 37  1  0  0  0  0
M  END
>  <MolRegNo>
2367823

>  <m>
=

>  <Value>
31000

>  <Unit>
nM

>  <Type>
IC50

>  <pValue>
4.51

>  <Ligand Efficiency>
0

>  <Binding Efficiency>
0

>  <Surface Efficiency>
0

>  <Assay Index>
1339862

>  <Assay Category>


>  <Assay Organism>
Homo sapiens

>  <Target ID>
17045

>  <Target Name>
Cytochrome P450 3A4

>  <Target Organism>
Homo sapiens

>  <Target Description>
Target is a single protein chain

>  <Sequence Accession>
P08684

>  <Reference>
J Med Chem 59 (15), 7066-7074 (2016)

>  <Pubmed ID>
27355974

>  <DOI>
10.1021/acs.jmedchem.6b00280

$$$$
2358724
Actelion Java MolfileCreator 1.0

 39 44  0  0  0  0  0  0  0  0999 V2000
    0.0000   -0.0000   -0.0000 S   0  0  0  0  0  0  0  0  0  0  0  0
    0.9266   -1.1641   -0.0000 C   0  0  0  0  0  0  0  0  0  0  0  0
   -1.4136   -0.5227   -0.0000 C   0  0  0  0  0  0  0  0  0  0  0  0
    0.0832   -2.4114   -0.0000 N   0  0  0  0  0  0  0  0  0  0  0  0
    2.4233   -1.0929   -0.0000 N   0  0  0  0  0  0  0  0  0  0  0  0
   -1.3661   -2.0075   -0.0000 C   0  0  0  0  0  0  0  0  0  0  0  0
   -2.7559    0.1782   -0.0000 C   0  0  0  0  0  0  0  0  0  0  0  0
    3.2192   -2.3520   -0.0000 C   0  0  0  0  0  0  0  0  0  0  0  0
   -2.6371   -2.8034   -0.0000 C   0  0  0  0  0  0  0  0  0  0  0  0
   -4.0388   -0.6177   -0.0000 C   0  0  0  0  0  0  0  0  0  0  0  0
    2.5064   -3.6706   -0.0000 O   0  0  0  0  0  0  0  0  0  0  0  0
    4.7159   -2.2807   -0.0000 N   0  0  0  0  0  0  0  0  0  0  0  0
   -3.9794   -2.1026   -0.0000 C   0  0  0  0  0  0  0  0  0  0  0  0
   -5.3930    0.0832   -0.0000 S   0  0  0  0  0  0  0  0  0  0  0  0
    5.5118   -3.5399   -0.0000 C   0  0  0  0  0  0  0  0  0  0  0  0
   -6.6759   -0.7127   -0.0000 C   0  0  0  0  0  0  0  0  0  0  0  0
    7.0086   -3.4568   -0.0000 C   0  0  0  0  0  0  0  0  0  0  0  0
   -8.0895   -0.1425   -0.0000 N   0  0  0  0  0  0  0  0  0  0  0  0
   -6.7829   -2.1976   -0.0000 N   0  0  0  0  0  0  0  0  0  0  0  0
    7.8044   -4.7159   -0.0000 N   0  0  0  0  0  0  0  0  0  0  0  0
   -9.0636   -1.2948   -0.0000 N   0  0  0  0  0  0  0  0  0  0  0  0
   -5.7375   -3.2548   -0.0000 N   0  0  0  0  0  0  0  0  0  0  0  0
   -8.2558   -2.5658   -0.0000 C   0  0  0  0  0  0  0  0  0  0  0  0
    7.0917   -6.0345   -0.0000 C   0  0  0  0  0  0  0  0  0  0  0  0
    9.2893   -4.6328   -0.0000 C   0  0  0  0  0  0  0  0  0  0  0  0
   -6.1414   -4.6922   -0.0000 C   0  0  0  0  0  0  0  0  0  0  0  0
   -8.6716   -4.0032   -0.0000 C   0  0  0  0  0  0  0  0  0  0  0  0
    7.8876   -7.2936   -0.0000 C   0  0  0  0  0  0  0  0  0  0  0  0
   10.0852   -5.9038   -0.0000 C   0  0  0  0  0  0  0  0  0  0  0  0
   -5.0960   -5.7494   -0.0000 O   0  0  0  0  0  0  0  0  0  0  0  0
   -7.6144   -5.0604   -0.0000 C   0  0  0  0  0  0  0  0  0  0  0  0
    9.3843   -7.2224   -0.0000 O   0  0  0  0  0  0  0  0  0  0  0  0
   -5.4999   -7.1867   -0.0000 C   0  0  0  0  0  0  0  0  0  0  0  0
   -4.3833   -8.1608   -0.0000 C   0  0  0  0  0  0  0  0  0  0  0  0
   -6.9967   -7.4481   -0.0000 C   0  0  0  0  0  0  0  0  0  0  0  0
   -4.4546   -9.6575   -0.0000 C   0  0  0  0  0  0  0  0  0  0  0  0
   -7.7213   -8.7666   -0.0000 C   0  0  0  0  0  0  0  0  0  0  0  0
   -5.6781  -10.5366   -0.0000 C   0  0  0  0  0  0  0  0  0  0  0  0
   -7.1273  -10.1327   -0.0000 C   0  0  0  0  0  0  0  0  0  0  0  0
  1  2  1  0  0  0  0
  1  3  1  0  0  0  0
  2  4  2  0  0  0  0
  2  5  1  0  0  0  0
  3  6  2  0  0  0  0
  3  7  1  0  0  0  0
  5  8  1  0  0  0  0
  6  9  1  0  0  0  0
  7 10  2  0  0  0  0
  8 11  2  0  0  0  0
  8 12  1  0  0  0  0
  9 13  2  0  0  0  0
 10 14  1  0  0  0  0
 12 15  1  0  0  0  0
 14 16  1  0  0  0  0
 15 17  1  0  0  0  0
 16 18  2  0  0  0  0
 16 19  1  0  0  0  0
 17 20  1  0  0  0  0
 18 21  1  0  0  0  0
 19 22  1  0  0  0  0
 19 23  1  0  0  0  0
 20 24  1  0  0  0  0
 20 25  1  0  0  0  0
 22 26  2  0  0  0  0
 23 27  1  0  0  0  0
 24 28  1  0  0  0  0
 25 29  1  0  0  0  0
 26 30  1  0  0  0  0
 26 31  1  0  0  0  0
 28 32  1  0  0  0  0
 30 33  1  0  0  0  0
 33 34  1  0  0  0  0
 33 35  1  0  0  0  0
 34 36  1  0  0  0  0
 35 37  1  0  0  0  0
 36 38  1  0  0  0  0
 37 39  1  0  0  0  0
  4  6  1  0  0  0  0
 10 13  1  0  0  0  0
 21 23  2  0  0  0  0
 27 31  2  0  0  0  0
 29 32  1  0  0  0  0
 38 39  1  0  0  0  0
M  END
>  <MolRegNo>
2358724

>  <m>
=

>  <Value>
14000

>  <Unit>
nM

>  <Type>
IC50

>  <pValue>
4.85

>  <Ligand Efficiency>
0

>  <Binding Efficiency>
0

>  <Surface Efficiency>
0

>  <Assay Index>
1339862

>  <Assay Category>


>  <Assay Organism>
Homo sapiens

>  <Target ID>
17045

>  <Target Name>
Cytochrome P450 3A4

>  <Target Organism>
Homo sapiens

>  <Target Description>
Target is a single protein chain

>  <Sequence Accession>
P08684

>  <Reference>
J Med Chem 59 (15), 7066-7074 (2016)

>  <Pubmed ID>
27355974

>  <DOI>
10.1021/acs.jmedchem.6b00280

$$$$
2379932
Actelion Java MolfileCreator 1.0

 39 44  0  0  0  0  0  0  0  0999 V2000
    0.0000   -0.0000   -0.0000 S   0  0  0  0  0  0  0  0  0  0  0  0
    0.9251   -1.1741   -0.0000 C   0  0  0  0  0  0  0  0  0  0  0  0
   -1.4232   -0.5218   -0.0000 C   0  0  0  0  0  0  0  0  0  0  0  0
    0.0830   -2.4194   -0.0000 N   0  0  0  0  0  0  0  0  0  0  0  0
    2.4194   -1.0911   -0.0000 N   0  0  0  0  0  0  0  0  0  0  0  0
   -1.3757   -2.0162   -0.0000 C   0  0  0  0  0  0  0  0  0  0  0  0
   -2.7634    0.1779   -0.0000 C   0  0  0  0  0  0  0  0  0  0  0  0
    3.2140   -2.3483   -0.0000 C   0  0  0  0  0  0  0  0  0  0  0  0
   -2.6448   -2.8108   -0.0000 C   0  0  0  0  0  0  0  0  0  0  0  0
   -4.0442   -0.6167   -0.0000 C   0  0  0  0  0  0  0  0  0  0  0  0
    2.5024   -3.6766   -0.0000 O   0  0  0  0  0  0  0  0  0  0  0  0
    4.7084   -2.2652   -0.0000 N   0  0  0  0  0  0  0  0  0  0  0  0
   -3.9849   -2.1111   -0.0000 C   0  0  0  0  0  0  0  0  0  0  0  0
   -5.3963    0.0830   -0.0000 S   0  0  0  0  0  0  0  0  0  0  0  0
    5.5030   -3.5224   -0.0000 C   0  0  0  0  0  0  0  0  0  0  0  0
   -6.6771   -0.7116   -0.0000 C   0  0  0  0  0  0  0  0  0  0  0  0
    6.9973   -3.4394   -0.0000 C   0  0  0  0  0  0  0  0  0  0  0  0
   -8.0884   -0.1423   -0.0000 N   0  0  0  0  0  0  0  0  0  0  0  0
   -6.7839   -2.1941   -0.0000 N   0  0  0  0  0  0  0  0  0  0  0  0
    7.7919   -4.6965   -0.0000 N   0  0  0  0  0  0  0  0  0  0  0  0
   -9.0610   -1.2927   -0.0000 N   0  0  0  0  0  0  0  0  0  0  0  0
   -5.7402   -3.2496   -0.0000 N   0  0  0  0  0  0  0  0  0  0  0  0
   -8.2545   -2.5617   -0.0000 C   0  0  0  0  0  0  0  0  0  0  0  0
    7.0804   -6.0130   -0.0000 C   0  0  0  0  0  0  0  0  0  0  0  0
    9.2863   -4.6135   -0.0000 C   0  0  0  0  0  0  0  0  0  0  0  0
   -6.1434   -4.6847   -0.0000 C   0  0  0  0  0  0  0  0  0  0  0  0
   -8.6696   -3.9968   -0.0000 C   0  0  0  0  0  0  0  0  0  0  0  0
    7.8750   -7.2701   -0.0000 C   0  0  0  0  0  0  0  0  0  0  0  0
   10.0809   -5.8825   -0.0000 C   0  0  0  0  0  0  0  0  0  0  0  0
   -5.0998   -5.7402   -0.0000 O   0  0  0  0  0  0  0  0  0  0  0  0
   -7.6141   -5.0523   -0.0000 C   0  0  0  0  0  0  0  0  0  0  0  0
    9.3693   -7.1990   -0.0000 O   0  0  0  0  0  0  0  0  0  0  0  0
   -5.5030   -7.1871   -0.0000 C   0  0  0  0  0  0  0  0  0  0  0  0
   -4.4475   -8.2308   -0.0000 C   0  0  0  0  0  0  0  0  0  0  0  0
   -6.9736   -7.5548   -0.0000 C   0  0  0  0  0  0  0  0  0  0  0  0
   -4.8507   -9.6658   -0.0000 C   0  0  0  0  0  0  0  0  0  0  0  0
   -7.3887   -8.9898   -0.0000 C   0  0  0  0  0  0  0  0  0  0  0  0
   -3.7952  -10.7213   -0.0000 F   0  0  0  0  0  0  0  0  0  0  0  0
   -6.3213  -10.0453   -0.0000 C   0  0  0  0  0  0  0  0  0  0  0  0
  1  2  1  0  0  0  0
  1  3  1  0  0  0  0
  2  4  2  0  0  0  0
  2  5  1  0  0  0  0
  3  6  2  0  0  0  0
  3  7  1  0  0  0  0
  5  8  1  0  0  0  0
  6  9  1  0  0  0  0
  7 10  2  0  0  0  0
  8 11  2  0  0  0  0
  8 12  1  0  0  0  0
  9 13  2  0  0  0  0
 10 14  1  0  0  0  0
 12 15  1  0  0  0  0
 14 16  1  0  0  0  0
 15 17  1  0  0  0  0
 16 18  2  0  0  0  0
 16 19  1  0  0  0  0
 17 20  1  0  0  0  0
 18 21  1  0  0  0  0
 19 22  1  0  0  0  0
 19 23  1  0  0  0  0
 20 24  1  0  0  0  0
 20 25  1  0  0  0  0
 22 26  2  0  0  0  0
 23 27  1  0  0  0  0
 24 28  1  0  0  0  0
 25 29  1  0  0  0  0
 26 30  1  0  0  0  0
 26 31  1  0  0  0  0
 28 32  1  0  0  0  0
 30 33  1  0  0  0  0
 33 34  2  0  0  0  0
 33 35  1  0  0  0  0
 34 36  1  0  0  0  0
 35 37  2  0  0  0  0
 36 38  1  0  0  0  0
 36 39  2  0  0  0  0
  4  6  1  0  0  0  0
 10 13  1  0  0  0  0
 21 23  2  0  0  0  0
 27 31  2  0  0  0  0
 29 32  1  0  0  0  0
 37 39  1  0  0  0  0
M  END
>  <MolRegNo>
2379932

>  <m>
=

>  <Value>
2000

>  <Unit>
nM

>  <Type>
IC50

>  <pValue>
5.7

>  <Ligand Efficiency>
0

>  <Binding Efficiency>
0

>  <Surface Efficiency>
0

>  <Assay Index>
1339862

>  <Assay Category>


>  <Assay Organism>
Homo sapiens

>  <Target ID>
17045

>  <Target Name>
Cytochrome P450 3A4

>  <Target Organism>
Homo sapiens

>  <Target Description>
Target is a single protein chain

>  <Sequence Accession>
P08684

>  <Reference>
J Med Chem 59 (15), 7066-7074 (2016)

>  <Pubmed ID>
27355974

>  <DOI>
10.1021/acs.jmedchem.6b00280

$$$$
2379725
Actelion Java MolfileCreator 1.0

 36 40  0  0  0  0  0  0  0  0999 V2000
    0.0000   -0.0000   -0.0000 S   0  0  0  0  0  0  0  0  0  0  0  0
    0.9243   -1.1732   -0.0000 C   0  0  0  0  0  0  0  0  0  0  0  0
   -1.4221   -0.5214   -0.0000 C   0  0  0  0  0  0  0  0  0  0  0  0
    0.0830   -2.4175   -0.0000 N   0  0  0  0  0  0  0  0  0  0  0  0
    2.4175   -1.0902   -0.0000 N   0  0  0  0  0  0  0  0  0  0  0  0
   -1.3747   -2.0146   -0.0000 C   0  0  0  0  0  0  0  0  0  0  0  0
   -2.7612    0.1778   -0.0000 C   0  0  0  0  0  0  0  0  0  0  0  0
    3.2115   -2.3464   -0.0000 C   0  0  0  0  0  0  0  0  0  0  0  0
   -2.6427   -2.8086   -0.0000 C   0  0  0  0  0  0  0  0  0  0  0  0
   -4.0410   -0.6162   -0.0000 C   0  0  0  0  0  0  0  0  0  0  0  0
    2.5005   -3.6737   -0.0000 O   0  0  0  0  0  0  0  0  0  0  0  0
    4.7047   -2.2634   -0.0000 N   0  0  0  0  0  0  0  0  0  0  0  0
   -3.9818   -2.1094   -0.0000 C   0  0  0  0  0  0  0  0  0  0  0  0
   -5.3920    0.0830   -0.0000 S   0  0  0  0  0  0  0  0  0  0  0  0
    5.4986   -3.5196   -0.0000 C   0  0  0  0  0  0  0  0  0  0  0  0
   -6.6718   -0.7110   -0.0000 C   0  0  0  0  0  0  0  0  0  0  0  0
    6.9918   -3.4366   -0.0000 C   0  0  0  0  0  0  0  0  0  0  0  0
   -8.0820   -0.1422   -0.0000 N   0  0  0  0  0  0  0  0  0  0  0  0
   -6.7785   -2.1923   -0.0000 N   0  0  0  0  0  0  0  0  0  0  0  0
    7.7858   -4.6928   -0.0000 N   0  0  0  0  0  0  0  0  0  0  0  0
   -9.0538   -1.2917   -0.0000 N   0  0  0  0  0  0  0  0  0  0  0  0
   -5.7356   -3.2470   -0.0000 N   0  0  0  0  0  0  0  0  0  0  0  0
   -8.2480   -2.5597   -0.0000 C   0  0  0  0  0  0  0  0  0  0  0  0
    7.0748   -6.0082   -0.0000 C   0  0  0  0  0  0  0  0  0  0  0  0
    9.2790   -4.5980   -0.0000 C   0  0  0  0  0  0  0  0  0  0  0  0
   -6.1386   -4.6810   -0.0000 C   0  0  0  0  0  0  0  0  0  0  0  0
   -8.6627   -3.9936   -0.0000 C   0  0  0  0  0  0  0  0  0  0  0  0
    7.8687   -7.2644   -0.0000 C   0  0  0  0  0  0  0  0  0  0  0  0
   10.0729   -5.8660   -0.0000 C   0  0  0  0  0  0  0  0  0  0  0  0
   -5.0957   -5.7356   -0.0000 O   0  0  0  0  0  0  0  0  0  0  0  0
   -7.6080   -5.0483   -0.0000 C   0  0  0  0  0  0  0  0  0  0  0  0
    9.3619   -7.1933   -0.0000 O   0  0  0  0  0  0  0  0  0  0  0  0
   -5.4986   -7.1814   -0.0000 C   0  0  0  0  0  0  0  0  0  0  0  0
   -6.9681   -7.5488   -0.0000 C   0  0  0  0  0  0  0  0  0  0  0  0
   -7.3710   -8.9945   -0.0000 C   0  0  0  0  0  0  0  0  0  0  0  0
   -8.8405   -9.3619   -0.0000 C   0  0  0  0  0  0  0  0  0  0  0  0
  1  2  1  0  0  0  0
  1  3  1  0  0  0  0
  2  4  2  0  0  0  0
  2  5  1  0  0  0  0
  3  6  2  0  0  0  0
  3  7  1  0  0  0  0
  5  8  1  0  0  0  0
  6  9  1  0  0  0  0
  7 10  2  0  0  0  0
  8 11  2  0  0  0  0
  8 12  1  0  0  0  0
  9 13  2  0  0  0  0
 10 14  1  0  0  0  0
 12 15  1  0  0  0  0
 14 16  1  0  0  0  0
 15 17  1  0  0  0  0
 16 18  2  0  0  0  0
 16 19  1  0  0  0  0
 17 20  1  0  0  0  0
 18 21  1  0  0  0  0
 19 22  1  0  0  0  0
 19 23  1  0  0  0  0
 20 24  1  0  0  0  0
 20 25  1  0  0  0  0
 22 26  2  0  0  0  0
 23 27  1  0  0  0  0
 24 28  1  0  0  0  0
 25 29  1  0  0  0  0
 26 30  1  0  0  0  0
 26 31  1  0  0  0  0
 28 32  1  0  0  0  0
 30 33  1  0  0  0  0
 33 34  1  0  0  0  0
 34 35  1  0  0  0  0
 35 36  1  0  0  0  0
  4  6  1  0  0  0  0
 10 13  1  0  0  0  0
 21 23  2  0  0  0  0
 27 31  2  0  0  0  0
 29 32  1  0  0  0  0
M  END
>  <MolRegNo>
2379725

>  <m>
=

>  <Value>
8700

>  <Unit>
nM

>  <Type>
IC50

>  <pValue>
5.06

>  <Ligand Efficiency>
0

>  <Binding Efficiency>
0

>  <Surface Efficiency>
0

>  <Assay Index>
1339862

>  <Assay Category>


>  <Assay Organism>
Homo sapiens

>  <Target ID>
17045

>  <Target Name>
Cytochrome P450 3A4

>  <Target Organism>
Homo sapiens

>  <Target Description>
Target is a single protein chain

>  <Sequence Accession>
P08684

>  <Reference>
J Med Chem 59 (15), 7066-7074 (2016)

>  <Pubmed ID>
27355974

>  <DOI>
10.1021/acs.jmedchem.6b00280

$$$$
2007115
Actelion Java MolfileCreator 1.0

 30 33  0  0  1  0  0  0  0  0999 V2000
    0.0000   -0.0000   -0.0000 Cl  0  0  0  0  0  0  0  0  0  0  0  0
   -1.0961    0.6404   -0.0000 C   0  0  0  0  0  0  0  0  0  0  0  0
   -1.1084    2.2168   -0.0000 C   0  0  0  0  0  0  0  0  0  0  0  0
   -2.4631   -0.1232   -0.0000 C   0  0  0  0  0  0  0  0  0  0  0  0
    0.2340    3.0050   -0.0000 C   0  0  0  0  0  0  0  0  0  0  0  0
   -2.4755    3.0174   -0.0000 C   0  0  0  0  0  0  0  0  0  0  0  0
   -3.8302    0.6774   -0.0000 C   0  0  0  0  0  0  0  0  0  0  0  0
   -2.4755   -1.6749   -0.0000 C   0  0  0  0  0  0  0  0  0  0  0  0
    1.3055    2.3893   -0.0000 O   0  0  0  0  0  0  0  0  0  0  0  0
    0.2217    4.5814   -0.0000 N   0  0  0  0  0  0  0  0  0  0  0  0
   -3.8425    2.2538   -0.0000 C   0  0  0  0  0  0  0  0  0  0  0  0
   -3.5716   -2.2907   -0.0000 F   0  0  0  0  0  0  0  0  0  0  0  0
   -1.4040   -2.2907   -0.0000 F   0  0  0  0  0  0  0  0  0  0  0  0
   -2.4878   -2.9188   -0.0000 F   0  0  0  0  0  0  0  0  0  0  0  0
    1.5641    5.3697   -0.0000 C   0  0  0  0  0  0  0  0  0  0  0  0
   -1.1454    5.3697   -0.0000 C   0  0  0  0  0  0  0  0  0  0  0  0
    1.5518    6.9461   -0.0000 C   0  0  0  0  0  0  0  0  0  0  0  0
    2.6356    4.7539   -0.0000 C   0  0  0  0  0  0  0  0  0  0  0  0
   -1.1577    6.9461   -0.0000 C   0  0  0  0  0  0  0  0  0  0  0  0
    0.1847    7.7343   -0.0000 C   0  0  0  0  0  0  0  0  0  0  0  0
   -2.5247    7.7343   -0.0000 N   0  0  0  0  0  0  0  0  0  0  0  0
    0.1724    9.3107   -0.0000 C   0  0  0  0  0  0  0  0  0  0  0  0
   -2.5370    9.3107   -0.0000 C   0  0  0  0  0  0  0  0  0  0  0  0
   -1.1946   10.0989   -0.0000 N   0  0  0  0  0  0  0  0  0  0  0  0
    1.5148   10.1112   -0.0000 C   0  0  0  0  0  0  0  0  0  0  0  0
   -3.6331    9.9511   -0.0000 C   0  0  0  0  0  0  0  0  0  0  0  0
    2.9065    9.4708   -0.0000 N   0  0  0  0  0  0  0  0  0  0  0  0
    1.6503   11.6630   -0.0000 C   0  0  0  0  0  0  0  0  0  0  0  0
    3.9410   10.6408   -0.0000 N   0  0  0  0  0  0  0  0  0  0  0  0
    3.1651   11.9955   -0.0000 C   0  0  0  0  0  0  0  0  0  0  0  0
  1  2  1  0  0  0  0
  2  3  2  0  0  0  0
  2  4  1  0  0  0  0
  3  5  1  0  0  0  0
  3  6  1  0  0  0  0
  4  7  2  0  0  0  0
  4  8  1  0  0  0  0
  5  9  2  0  0  0  0
  5 10  1  0  0  0  0
  6 11  2  0  0  0  0
  8 12  1  0  0  0  0
  8 13  1  0  0  0  0
  8 14  1  0  0  0  0
 10 15  1  0  0  0  0
 10 16  1  0  0  0  0
 15 17  1  0  0  0  0
 15 18  1  1  0  0  0
 16 19  1  0  0  0  0
 17 20  1  0  0  0  0
 19 21  1  0  0  0  0
 20 22  1  0  0  0  0
 21 23  2  0  0  0  0
 22 24  2  0  0  0  0
 22 25  1  0  0  0  0
 23 26  1  0  0  0  0
 25 27  1  0  0  0  0
 25 28  2  0  0  0  0
 27 29  1  0  0  0  0
 28 30  1  0  0  0  0
  7 11  1  0  0  0  0
 19 20  2  0  0  0  0
 23 24  1  0  0  0  0
 29 30  2  0  0  0  0
M  END
>  <MolRegNo>
2007115

>  <m>
=

>  <Value>
3300

>  <Unit>
nM

>  <Type>
IC50

>  <pValue>
5.48

>  <Ligand Efficiency>
0

>  <Binding Efficiency>
0

>  <Surface Efficiency>
0

>  <Assay Index>
1340292

>  <Assay Category>


>  <Assay Organism>
Homo sapiens

>  <Target ID>
17045

>  <Target Name>
Cytochrome P450 3A4

>  <Target Organism>
Homo sapiens

>  <Target Description>
Target is a single protein chain

>  <Sequence Accession>
P08684

>  <Reference>
Bioorg Med Chem Lett 26 (16), 3838-3845 (2016)

>  <Pubmed ID>
27426304

>  <DOI>
10.1016/j.bmcl.2016.06.048

$$$$
2412219
Actelion Java MolfileCreator 1.0

 39 44  0  0  0  0  0  0  0  0999 V2000
    0.0000   -0.0000   -0.0000 F   0  0  0  0  0  0  0  0  0  0  0  0
    1.3125    0.7213   -0.0000 C   0  0  0  0  0  0  0  0  0  0  0  0
    1.3480    2.2348   -0.0000 C   0  0  0  0  0  0  0  0  0  0  0  0
    2.5777   -0.0591   -0.0000 C   0  0  0  0  0  0  0  0  0  0  0  0
    2.6604    2.9560   -0.0000 C   0  0  0  0  0  0  0  0  0  0  0  0
    3.8902    0.6740   -0.0000 C   0  0  0  0  0  0  0  0  0  0  0  0
    2.6959    4.4695   -0.0000 O   0  0  0  0  0  0  0  0  0  0  0  0
    3.9256    2.1993   -0.0000 C   0  0  0  0  0  0  0  0  0  0  0  0
    4.0084    5.1908   -0.0000 C   0  0  0  0  0  0  0  0  0  0  0  0
    5.2618    4.4222   -0.0000 N   0  0  0  0  0  0  0  0  0  0  0  0
    4.0439    6.7043   -0.0000 C   0  0  0  0  0  0  0  0  0  0  0  0
    6.5624    5.1435   -0.0000 C   0  0  0  0  0  0  0  0  0  0  0  0
    5.3564    7.4256   -0.0000 C   0  0  0  0  0  0  0  0  0  0  0  0
    6.5979    6.6570   -0.0000 N   0  0  0  0  0  0  0  0  0  0  0  0
    7.9577    4.6469   -0.0000 C   0  0  0  0  0  0  0  0  0  0  0  0
    5.3918    8.9391   -0.0000 N   0  0  0  0  0  0  0  0  0  0  0  0
    8.0286    7.0945   -0.0000 N   0  0  0  0  0  0  0  0  0  0  0  0
    8.3597    3.2280   -0.0000 C   0  0  0  0  0  0  0  0  0  0  0  0
    8.8681    5.8411   -0.0000 C   0  0  0  0  0  0  0  0  0  0  0  0
    4.1030    9.7431   -0.0000 C   0  0  0  0  0  0  0  0  0  0  0  0
    7.3073    2.1520   -0.0000 C   0  0  0  0  0  0  0  0  0  0  0  0
    9.8022    2.8851   -0.0000 C   0  0  0  0  0  0  0  0  0  0  0  0
    2.7669    9.0455   -0.0000 C   0  0  0  0  0  0  0  0  0  0  0  0
    7.7094    0.7213   -0.0000 C   0  0  0  0  0  0  0  0  0  0  0  0
   10.2161    1.4662   -0.0000 C   0  0  0  0  0  0  0  0  0  0  0  0
    1.4780    9.8495   -0.0000 N   0  0  0  0  0  0  0  0  0  0  0  0
    9.1519    0.3784   -0.0000 C   0  0  0  0  0  0  0  0  0  0  0  0
    6.6570   -0.3547   -0.0000 C   0  0  0  0  0  0  0  0  0  0  0  0
    1.5253   11.3630   -0.0000 C   0  0  0  0  0  0  0  0  0  0  0  0
    0.1537    9.1519   -0.0000 C   0  0  0  0  0  0  0  0  0  0  0  0
    9.5658   -1.0524   -0.0000 C   0  0  0  0  0  0  0  0  0  0  0  0
    0.2483   12.1671   -0.0000 C   0  0  0  0  0  0  0  0  0  0  0  0
   -1.1351    9.9678   -0.0000 C   0  0  0  0  0  0  0  0  0  0  0  0
    8.5134   -2.1284   -0.0000 O   0  0  0  0  0  0  0  0  0  0  0  0
   11.0083   -1.3953   -0.0000 N   0  0  0  0  0  0  0  0  0  0  0  0
   -1.0878   11.4813   -0.0000 O   0  0  0  0  0  0  0  0  0  0  0  0
   12.0370   -0.2956   -0.0000 C   0  0  0  0  0  0  0  0  0  0  0  0
   13.4677    0.1419   -0.0000 C   0  0  0  0  0  0  0  0  0  0  0  0
   12.3799    1.1824   -0.0000 C   0  0  0  0  0  0  0  0  0  0  0  0
  1  2  1  0  0  0  0
  2  3  2  0  0  0  0
  2  4  1  0  0  0  0
  3  5  1  0  0  0  0
  4  6  2  0  0  0  0
  5  7  1  0  0  0  0
  5  8  2  0  0  0  0
  7  9  1  0  0  0  0
  9 10  2  0  0  0  0
  9 11  1  0  0  0  0
 10 12  1  0  0  0  0
 11 13  2  0  0  0  0
 12 14  1  0  0  0  0
 12 15  2  0  0  0  0
 13 16  1  0  0  0  0
 14 17  1  0  0  0  0
 15 18  1  0  0  0  0
 15 19  1  0  0  0  0
 16 20  1  0  0  0  0
 18 21  2  0  0  0  0
 18 22  1  0  0  0  0
 20 23  1  0  0  0  0
 21 24  1  0  0  0  0
 22 25  2  0  0  0  0
 23 26  1  0  0  0  0
 24 27  2  0  0  0  0
 24 28  1  0  0  0  0
 26 29  1  0  0  0  0
 26 30  1  0  0  0  0
 27 31  1  0  0  0  0
 29 32  1  0  0  0  0
 30 33  1  0  0  0  0
 31 34  2  0  0  0  0
 31 35  1  0  0  0  0
 32 36  1  0  0  0  0
 35 37  1  0  0  0  0
 37 38  1  0  0  0  0
 37 39  1  0  0  0  0
  6  8  1  0  0  0  0
 13 14  1  0  0  0  0
 17 19  2  0  0  0  0
 25 27  1  0  0  0  0
 33 36  1  0  0  0  0
 38 39  1  0  0  0  0
M  END
>  <MolRegNo>
2412219

>  <m>
=

>  <Value>
780

>  <Unit>
nM

>  <Type>
IC50

>  <pValue>
6.11

>  <Ligand Efficiency>
0

>  <Binding Efficiency>
0

>  <Surface Efficiency>
0

>  <Assay Index>
1340451

>  <Assay Category>


>  <Assay Organism>
Homo sapiens

>  <Target ID>
17045

>  <Target Name>
Cytochrome P450 3A4

>  <Target Organism>
Homo sapiens

>  <Target Description>
Target is a single protein chain

>  <Sequence Accession>
P08684

>  <Reference>
ACS Med Chem Lett 7 (7), 671-675 (2016)

>  <Pubmed ID>
27437075

>  <DOI>
10.1021/acsmedchemlett.5b00485

$$$$
2412905
Actelion Java MolfileCreator 1.0

 39 44  0  0  0  0  0  0  0  0999 V2000
    0.0000   -0.0000   -0.0000 O   0  0  0  0  0  0  0  0  0  0  0  0
    1.0255    1.0962   -0.0000 C   0  0  0  0  0  0  0  0  0  0  0  0
    2.4636    0.7544   -0.0000 N   0  0  0  0  0  0  0  0  0  0  0  0
    0.5894    2.5461   -0.0000 C   0  0  0  0  0  0  0  0  0  0  0  0
    3.4891    1.8507   -0.0000 C   0  0  0  0  0  0  0  0  0  0  0  0
   -0.8723    2.9115   -0.0000 C   0  0  0  0  0  0  0  0  0  0  0  0
    1.6149    3.6424   -0.0000 C   0  0  0  0  0  0  0  0  0  0  0  0
    4.9154    2.2868   -0.0000 C   0  0  0  0  0  0  0  0  0  0  0  0
    3.8310    3.3241   -0.0000 C   0  0  0  0  0  0  0  0  0  0  0  0
   -1.2966    4.3614   -0.0000 C   0  0  0  0  0  0  0  0  0  0  0  0
   -1.9214    1.8389   -0.0000 C   0  0  0  0  0  0  0  0  0  0  0  0
    1.1788    5.0804   -0.0000 C   0  0  0  0  0  0  0  0  0  0  0  0
   -0.2711    5.4577   -0.0000 C   0  0  0  0  0  0  0  0  0  0  0  0
   -0.6955    6.8957   -0.0000 C   0  0  0  0  0  0  0  0  0  0  0  0
   -2.1100    7.4144   -0.0000 C   0  0  0  0  0  0  0  0  0  0  0  0
    0.2122    8.0863   -0.0000 C   0  0  0  0  0  0  0  0  0  0  0  0
   -3.4302    6.7189   -0.0000 N   0  0  0  0  0  0  0  0  0  0  0  0
   -2.0746    8.9114   -0.0000 N   0  0  0  0  0  0  0  0  0  0  0  0
   -0.6483    9.3358   -0.0000 N   0  0  0  0  0  0  0  0  0  0  0  0
   -4.7032    7.5087   -0.0000 C   0  0  0  0  0  0  0  0  0  0  0  0
   -3.3477    9.7130   -0.0000 C   0  0  0  0  0  0  0  0  0  0  0  0
   -6.0352    6.8132   -0.0000 N   0  0  0  0  0  0  0  0  0  0  0  0
   -4.6679    9.0175   -0.0000 C   0  0  0  0  0  0  0  0  0  0  0  0
   -3.3123   11.2218   -0.0000 N   0  0  0  0  0  0  0  0  0  0  0  0
   -6.0942    5.3280   -0.0000 C   0  0  0  0  0  0  0  0  0  0  0  0
   -4.5972   12.0233   -0.0000 C   0  0  0  0  0  0  0  0  0  0  0  0
   -7.4262    4.6325   -0.0000 C   0  0  0  0  0  0  0  0  0  0  0  0
   -4.8329    4.5618   -0.0000 C   0  0  0  0  0  0  0  0  0  0  0  0
   -5.9292   11.3279   -0.0000 C   0  0  0  0  0  0  0  0  0  0  0  0
   -7.4851    3.1473   -0.0000 O   0  0  0  0  0  0  0  0  0  0  0  0
   -8.8878    5.0333   -0.0000 C   0  0  0  0  0  0  0  0  0  0  0  0
   -7.4498    6.1413   -0.0000 C   0  0  0  0  0  0  0  0  0  0  0  0
   -4.1374    3.2534   -0.0000 C   0  0  0  0  0  0  0  0  0  0  0  0
   -3.3477    4.5264   -0.0000 C   0  0  0  0  0  0  0  0  0  0  0  0
   -7.2022   12.1294   -0.0000 C   0  0  0  0  0  0  0  0  0  0  0  0
   -5.9763    9.8426   -0.0000 C   0  0  0  0  0  0  0  0  0  0  0  0
   -8.5342   11.4457   -0.0000 C   0  0  0  0  0  0  0  0  0  0  0  0
   -7.3083    9.1472   -0.0000 C   0  0  0  0  0  0  0  0  0  0  0  0
   -8.6049    9.9605   -0.0000 O   0  0  0  0  0  0  0  0  0  0  0  0
  1  2  2  0  0  0  0
  2  3  1  0  0  0  0
  2  4  1  0  0  0  0
  3  5  1  0  0  0  0
  4  6  2  0  0  0  0
  4  7  1  0  0  0  0
  5  8  1  0  0  0  0
  5  9  1  0  0  0  0
  6 10  1  0  0  0  0
  6 11  1  0  0  0  0
  7 12  2  0  0  0  0
 10 13  2  0  0  0  0
 13 14  1  0  0  0  0
 14 15  2  0  0  0  0
 14 16  1  0  0  0  0
 15 17  1  0  0  0  0
 15 18  1  0  0  0  0
 16 19  2  0  0  0  0
 17 20  2  0  0  0  0
 18 21  1  0  0  0  0
 20 22  1  0  0  0  0
 20 23  1  0  0  0  0
 21 24  1  0  0  0  0
 25 22  1  1  0  0  0
 24 26  1  0  0  0  0
 25 27  1  0  0  0  0
 25 28  1  0  0  0  0
 26 29  1  0  0  0  0
 27 30  1  0  0  0  0
 27 31  1  0  0  0  0
 27 32  1  0  0  0  0
 28 33  1  0  0  0  0
 28 34  1  0  0  0  0
 29 35  1  0  0  0  0
 29 36  1  0  0  0  0
 35 37  1  0  0  0  0
 36 38  1  0  0  0  0
 37 39  1  0  0  0  0
  8  9  1  0  0  0  0
 12 13  1  0  0  0  0
 18 19  1  0  0  0  0
 21 23  2  0  0  0  0
 33 34  1  0  0  0  0
 38 39  1  0  0  0  0
M  END
>  <MolRegNo>
2412905

>  <m>
=

>  <Value>
3000

>  <Unit>
nM

>  <Type>
IC50

>  <pValue>
5.52

>  <Ligand Efficiency>
0

>  <Binding Efficiency>
0

>  <Surface Efficiency>
0

>  <Assay Index>
1340451

>  <Assay Category>


>  <Assay Organism>
Homo sapiens

>  <Target ID>
17045

>  <Target Name>
Cytochrome P450 3A4

>  <Target Organism>
Homo sapiens

>  <Target Description>
Target is a single protein chain

>  <Sequence Accession>
P08684

>  <Reference>
ACS Med Chem Lett 7 (7), 671-675 (2016)

>  <Pubmed ID>
27437075

>  <DOI>
10.1021/acsmedchemlett.5b00485

$$$$
2351868
Actelion Java MolfileCreator 1.0

 35 40  0  0  0  0  0  0  0  0999 V2000
    0.0000   -0.0000   -0.0000 O   0  0  0  0  0  0  0  0  0  0  0  0
    1.0283    1.0992   -0.0000 C   0  0  0  0  0  0  0  0  0  0  0  0
    2.4702    0.7564   -0.0000 N   0  0  0  0  0  0  0  0  0  0  0  0
    0.5909    2.5529   -0.0000 C   0  0  0  0  0  0  0  0  0  0  0  0
    3.4984    1.8556   -0.0000 C   0  0  0  0  0  0  0  0  0  0  0  0
   -0.8746    2.9193   -0.0000 C   0  0  0  0  0  0  0  0  0  0  0  0
    1.6192    3.6521   -0.0000 C   0  0  0  0  0  0  0  0  0  0  0  0
    4.9167    2.2929   -0.0000 C   0  0  0  0  0  0  0  0  0  0  0  0
    3.8412    3.3330   -0.0000 C   0  0  0  0  0  0  0  0  0  0  0  0
   -1.3001    4.3730   -0.0000 C   0  0  0  0  0  0  0  0  0  0  0  0
   -1.9265    1.8556   -0.0000 C   0  0  0  0  0  0  0  0  0  0  0  0
    1.1819    5.0940   -0.0000 C   0  0  0  0  0  0  0  0  0  0  0  0
   -0.2718    5.4604   -0.0000 C   0  0  0  0  0  0  0  0  0  0  0  0
   -0.6973    6.9023   -0.0000 C   0  0  0  0  0  0  0  0  0  0  0  0
   -2.1156    7.4223   -0.0000 C   0  0  0  0  0  0  0  0  0  0  0  0
    0.2127    8.0960   -0.0000 C   0  0  0  0  0  0  0  0  0  0  0  0
   -3.4393    6.7250   -0.0000 N   0  0  0  0  0  0  0  0  0  0  0  0
   -2.0801    8.9233   -0.0000 N   0  0  0  0  0  0  0  0  0  0  0  0
   -0.6500    9.3488   -0.0000 N   0  0  0  0  0  0  0  0  0  0  0  0
   -4.7158    7.5169   -0.0000 C   0  0  0  0  0  0  0  0  0  0  0  0
   -3.3566    9.7152   -0.0000 C   0  0  0  0  0  0  0  0  0  0  0  0
   -6.0395    6.8195   -0.0000 N   0  0  0  0  0  0  0  0  0  0  0  0
   -4.6803    9.0297   -0.0000 C   0  0  0  0  0  0  0  0  0  0  0  0
   -3.3211   11.2280   -0.0000 N   0  0  0  0  0  0  0  0  0  0  0  0
   -6.0986    5.3304   -0.0000 C   0  0  0  0  0  0  0  0  0  0  0  0
   -4.6094   12.0317   -0.0000 C   0  0  0  0  0  0  0  0  0  0  0  0
   -4.8340    4.5739   -0.0000 C   0  0  0  0  0  0  0  0  0  0  0  0
   -7.4223    4.6449   -0.0000 C   0  0  0  0  0  0  0  0  0  0  0  0
   -5.9449   11.3344   -0.0000 C   0  0  0  0  0  0  0  0  0  0  0  0
   -3.5339    5.3067   -0.0000 O   0  0  0  0  0  0  0  0  0  0  0  0
   -4.8931    3.0848   -0.0000 C   0  0  0  0  0  0  0  0  0  0  0  0
   -7.4814    3.1675   -0.0000 C   0  0  0  0  0  0  0  0  0  0  0  0
   -7.4460   11.3935   -0.0000 C   0  0  0  0  0  0  0  0  0  0  0  0
   -6.7486   10.0698   -0.0000 C   0  0  0  0  0  0  0  0  0  0  0  0
   -6.2286    2.3874   -0.0000 C   0  0  0  0  0  0  0  0  0  0  0  0
  1  2  2  0  0  0  0
  2  3  1  0  0  0  0
  2  4  1  0  0  0  0
  3  5  1  0  0  0  0
  4  6  2  0  0  0  0
  4  7  1  0  0  0  0
  5  8  1  0  0  0  0
  5  9  1  0  0  0  0
  6 10  1  0  0  0  0
  6 11  1  0  0  0  0
  7 12  2  0  0  0  0
 10 13  2  0  0  0  0
 13 14  1  0  0  0  0
 14 15  2  0  0  0  0
 14 16  1  0  0  0  0
 15 17  1  0  0  0  0
 15 18  1  0  0  0  0
 16 19  2  0  0  0  0
 17 20  2  0  0  0  0
 18 21  1  0  0  0  0
 20 22  1  0  0  0  0
 20 23  1  0  0  0  0
 21 24  1  0  0  0  0
 25 22  1  6  0  0  0
 24 26  1  0  0  0  0
 25 27  1  0  0  0  0
 25 28  1  0  0  0  0
 26 29  1  0  0  0  0
 27 30  1  1  0  0  0
 27 31  1  0  0  0  0
 28 32  1  0  0  0  0
 29 33  1  0  0  0  0
 29 34  1  0  0  0  0
 31 35  1  0  0  0  0
  8  9  1  0  0  0  0
 12 13  1  0  0  0  0
 18 19  1  0  0  0  0
 21 23  2  0  0  0  0
 32 35  1  0  0  0  0
 33 34  1  0  0  0  0
M  END
>  <MolRegNo>
2351868

>  <m>
=

>  <Value>
2000

>  <Unit>
nM

>  <Type>
IC50

>  <pValue>
5.7

>  <Ligand Efficiency>
0

>  <Binding Efficiency>
0

>  <Surface Efficiency>
0

>  <Assay Index>
1340451

>  <Assay Category>


>  <Assay Organism>
Homo sapiens

>  <Target ID>
17045

>  <Target Name>
Cytochrome P450 3A4

>  <Target Organism>
Homo sapiens

>  <Target Description>
Target is a single protein chain

>  <Sequence Accession>
P08684

>  <Reference>
ACS Med Chem Lett 7 (7), 671-675 (2016)

>  <Pubmed ID>
27437075

>  <DOI>
10.1021/acsmedchemlett.5b00485

$$$$
2376423
Actelion Java MolfileCreator 1.0

 37 42  0  0  1  0  0  0  0  0999 V2000
    0.0000   -0.0000   -0.0000 O   0  0  0  0  0  0  0  0  0  0  0  0
    0.9892    1.1188   -0.0000 C   0  0  0  0  0  0  0  0  0  0  0  0
    2.4377    0.8243   -0.0000 N   0  0  0  0  0  0  0  0  0  0  0  0
    0.5182    2.5555   -0.0000 C   0  0  0  0  0  0  0  0  0  0  0  0
    3.4269    1.9431   -0.0000 C   0  0  0  0  0  0  0  0  0  0  0  0
   -0.9539    2.8734   -0.0000 C   0  0  0  0  0  0  0  0  0  0  0  0
    1.5074    3.6742   -0.0000 C   0  0  0  0  0  0  0  0  0  0  0  0
    4.8401    2.4142   -0.0000 C   0  0  0  0  0  0  0  0  0  0  0  0
    3.7213    3.4151   -0.0000 C   0  0  0  0  0  0  0  0  0  0  0  0
   -1.4249    4.3102   -0.0000 C   0  0  0  0  0  0  0  0  0  0  0  0
   -1.9667    1.7782   -0.0000 C   0  0  0  0  0  0  0  0  0  0  0  0
    1.0363    5.1109   -0.0000 C   0  0  0  0  0  0  0  0  0  0  0  0
   -0.4357    5.4289   -0.0000 C   0  0  0  0  0  0  0  0  0  0  0  0
   -0.9068    6.8656   -0.0000 C   0  0  0  0  0  0  0  0  0  0  0  0
   -2.3435    7.3367   -0.0000 C   0  0  0  0  0  0  0  0  0  0  0  0
   -0.0353    8.0904   -0.0000 C   0  0  0  0  0  0  0  0  0  0  0  0
   -3.6507    6.5948   -0.0000 N   0  0  0  0  0  0  0  0  0  0  0  0
   -2.3553    8.8441   -0.0000 N   0  0  0  0  0  0  0  0  0  0  0  0
   -0.9303    9.3151   -0.0000 N   0  0  0  0  0  0  0  0  0  0  0  0
   -4.9579    7.3602   -0.0000 C   0  0  0  0  0  0  0  0  0  0  0  0
   -3.6625    9.5977   -0.0000 C   0  0  0  0  0  0  0  0  0  0  0  0
   -6.2650    6.6183   -0.0000 O   0  0  0  0  0  0  0  0  0  0  0  0
   -4.9696    8.8676   -0.0000 C   0  0  0  0  0  0  0  0  0  0  0  0
   -3.6742   11.1051   -0.0000 N   0  0  0  0  0  0  0  0  0  0  0  0
   -6.2768    5.1345   -0.0000 C   0  0  0  0  0  0  0  0  0  0  0  0
   -4.9814   11.8588   -0.0000 C   0  0  0  0  0  0  0  0  0  0  0  0
   -7.5840    4.4044   -0.0000 C   0  0  0  0  0  0  0  0  0  0  0  0
   -4.9932    4.4044   -0.0000 C   0  0  0  0  0  0  0  0  0  0  0  0
   -6.2886   11.1287   -0.0000 C   0  0  0  0  0  0  0  0  0  0  0  0
   -7.5958    2.9205   -0.0000 N   0  0  0  0  0  0  0  0  0  0  0  0
   -5.0050    2.9205   -0.0000 C   0  0  0  0  0  0  0  0  0  0  0  0
   -6.6890    9.6920   -0.0000 C   0  0  0  0  0  0  0  0  0  0  0  0
   -7.7489   11.5291   -0.0000 C   0  0  0  0  0  0  0  0  0  0  0  0
   -6.3121    2.1904   -0.0000 C   0  0  0  0  0  0  0  0  0  0  0  0
   -8.1492   10.0923   -0.0000 C   0  0  0  0  0  0  0  0  0  0  0  0
   -9.6095   10.4927   -0.0000 O   0  0  0  0  0  0  0  0  0  0  0  0
   -8.5496    8.6556   -0.0000 C   0  0  0  0  0  0  0  0  0  0  0  0
  1  2  2  0  0  0  0
  2  3  1  0  0  0  0
  2  4  1  0  0  0  0
  3  5  1  0  0  0  0
  4  6  2  0  0  0  0
  4  7  1  0  0  0  0
  5  8  1  0  0  0  0
  5  9  1  0  0  0  0
  6 10  1  0  0  0  0
  6 11  1  0  0  0  0
  7 12  2  0  0  0  0
 10 13  2  0  0  0  0
 13 14  1  0  0  0  0
 14 15  2  0  0  0  0
 14 16  1  0  0  0  0
 15 17  1  0  0  0  0
 15 18  1  0  0  0  0
 16 19  2  0  0  0  0
 17 20  2  0  0  0  0
 18 21  1  0  0  0  0
 20 22  1  0  0  0  0
 20 23  1  0  0  0  0
 21 24  1  0  0  0  0
 22 25  1  0  0  0  0
 24 26  1  0  0  0  0
 25 27  2  0  0  0  0
 25 28  1  0  0  0  0
 29 26  1  6  0  0  0
 27 30  1  0  0  0  0
 28 31  2  0  0  0  0
 29 32  1  0  0  0  0
 29 33  1  0  0  0  0
 30 34  2  0  0  0  0
 35 32  1  6  0  0  0
 35 36  1  0  0  0  0
 35 37  1  0  0  0  0
  8  9  1  0  0  0  0
 12 13  1  0  0  0  0
 18 19  1  0  0  0  0
 21 23  2  0  0  0  0
 31 34  1  0  0  0  0
 33 35  1  0  0  0  0
M  END
>  <MolRegNo>
2376423

>  <m>
=

>  <Value>
510

>  <Unit>
nM

>  <Type>
IC50

>  <pValue>
6.29

>  <Ligand Efficiency>
0

>  <Binding Efficiency>
0

>  <Surface Efficiency>
0

>  <Assay Index>
1340451

>  <Assay Category>


>  <Assay Organism>
Homo sapiens

>  <Target ID>
17045

>  <Target Name>
Cytochrome P450 3A4

>  <Target Organism>
Homo sapiens

>  <Target Description>
Target is a single protein chain

>  <Sequence Accession>
P08684

>  <Reference>
ACS Med Chem Lett 7 (7), 671-675 (2016)

>  <Pubmed ID>
27437075

>  <DOI>
10.1021/acsmedchemlett.5b00485

$$$$
2407745
Actelion Java MolfileCreator 1.0

 27 30  0  0  0  0  0  0  0  0999 V2000
    0.0000   -0.0000   -0.0000 S   0  0  0  0  0  0  0  0  0  0  0  0
   -1.3758    0.6232   -0.0000 C   0  0  0  0  0  0  0  0  0  0  0  0
    0.9878    1.1289   -0.0000 C   0  0  0  0  0  0  0  0  0  0  0  0
   -1.2229    2.1284   -0.0000 N   0  0  0  0  0  0  0  0  0  0  0  0
   -2.6811   -0.1058   -0.0000 N   0  0  0  0  0  0  0  0  0  0  0  0
    0.2352    2.4341   -0.0000 C   0  0  0  0  0  0  0  0  0  0  0  0
    2.4694    1.1406   -0.0000 C   0  0  0  0  0  0  0  0  0  0  0  0
   -3.9863    0.6467   -0.0000 C   0  0  0  0  0  0  0  0  0  0  0  0
    0.9642    3.7394   -0.0000 C   0  0  0  0  0  0  0  0  0  0  0  0
    3.1985    2.4459   -0.0000 C   0  0  0  0  0  0  0  0  0  0  0  0
   -5.2916   -0.0823   -0.0000 O   0  0  0  0  0  0  0  0  0  0  0  0
   -3.9981    2.1519   -0.0000 C   0  0  0  0  0  0  0  0  0  0  0  0
    2.4459    3.7511   -0.0000 C   0  0  0  0  0  0  0  0  0  0  0  0
    4.6801    2.4576   -0.0000 O   0  0  0  0  0  0  0  0  0  0  0  0
   -5.3033    2.9045   -0.0000 C   0  0  0  0  0  0  0  0  0  0  0  0
    5.4092    3.7629   -0.0000 C   0  0  0  0  0  0  0  0  0  0  0  0
   -5.3151    4.4097   -0.0000 C   0  0  0  0  0  0  0  0  0  0  0  0
   -6.6086    2.1754   -0.0000 C   0  0  0  0  0  0  0  0  0  0  0  0
   -6.6204    5.1622   -0.0000 C   0  0  0  0  0  0  0  0  0  0  0  0
   -7.9139    2.9280   -0.0000 C   0  0  0  0  0  0  0  0  0  0  0  0
   -7.9256    4.4332   -0.0000 C   0  0  0  0  0  0  0  0  0  0  0  0
   -9.2309    5.1858   -0.0000 C   0  0  0  0  0  0  0  0  0  0  0  0
  -10.5361    4.4567   -0.0000 C   0  0  0  0  0  0  0  0  0  0  0  0
   -9.2426    6.6909   -0.0000 C   0  0  0  0  0  0  0  0  0  0  0  0
  -11.8414    5.2093   -0.0000 C   0  0  0  0  0  0  0  0  0  0  0  0
  -10.5479    7.4435   -0.0000 C   0  0  0  0  0  0  0  0  0  0  0  0
  -11.8532    6.7144   -0.0000 N   0  0  0  0  0  0  0  0  0  0  0  0
  1  2  1  0  0  0  0
  1  3  1  0  0  0  0
  2  4  2  0  0  0  0
  2  5  1  0  0  0  0
  3  6  2  0  0  0  0
  3  7  1  0  0  0  0
  5  8  1  0  0  0  0
  6  9  1  0  0  0  0
  7 10  2  0  0  0  0
  8 11  2  0  0  0  0
  8 12  1  0  0  0  0
  9 13  2  0  0  0  0
 10 14  1  0  0  0  0
 12 15  1  0  0  0  0
 14 16  1  0  0  0  0
 15 17  2  0  0  0  0
 15 18  1  0  0  0  0
 17 19  1  0  0  0  0
 18 20  2  0  0  0  0
 19 21  2  0  0  0  0
 21 22  1  0  0  0  0
 22 23  2  0  0  0  0
 22 24  1  0  0  0  0
 23 25  1  0  0  0  0
 24 26  2  0  0  0  0
 25 27  2  0  0  0  0
  4  6  1  0  0  0  0
 10 13  1  0  0  0  0
 20 21  1  0  0  0  0
 26 27  1  0  0  0  0
M  END
>  <MolRegNo>
2407745

>  <m>
=

>  <Value>
800

>  <Unit>
nM

>  <Type>
IC50

>  <pValue>
6.1

>  <Ligand Efficiency>
0

>  <Binding Efficiency>
0

>  <Surface Efficiency>
0

>  <Assay Index>
1340493

>  <Assay Category>


>  <Assay Organism>
Homo sapiens

>  <Target ID>
17045

>  <Target Name>
Cytochrome P450 3A4

>  <Target Organism>
Homo sapiens

>  <Target Description>
Target is a single protein chain

>  <Sequence Accession>
P08684

>  <Reference>
ACS Med Chem Lett 7 (7), 676-680 (2016)

>  <Pubmed ID>
27437076

>  <DOI>
10.1021/acsmedchemlett.6b00038

$$$$
2447264
Actelion Java MolfileCreator 1.0

 23 26  0  0  0  0  0  0  0  0999 V2000
    0.0000   -0.0000   -0.0000 F   0  0  0  0  0  0  0  0  0  0  0  0
   -1.3030    0.7581   -0.0000 C   0  0  0  0  0  0  0  0  0  0  0  0
   -1.3148    2.2624   -0.0000 C   0  0  0  0  0  0  0  0  0  0  0  0
   -2.6059    0.0237   -0.0000 C   0  0  0  0  0  0  0  0  0  0  0  0
   -0.0355    3.0205   -0.0000 C   0  0  0  0  0  0  0  0  0  0  0  0
   -2.6178    3.0205   -0.0000 C   0  0  0  0  0  0  0  0  0  0  0  0
   -3.9208    0.7818   -0.0000 C   0  0  0  0  0  0  0  0  0  0  0  0
    1.2437    2.2861   -0.0000 N   0  0  0  0  0  0  0  0  0  0  0  0
   -0.0474    4.5249   -0.0000 C   0  0  0  0  0  0  0  0  0  0  0  0
   -3.9208    2.2861   -0.0000 C   0  0  0  0  0  0  0  0  0  0  0  0
    2.5230    3.0442   -0.0000 C   0  0  0  0  0  0  0  0  0  0  0  0
    1.2319    5.2829   -0.0000 C   0  0  0  0  0  0  0  0  0  0  0  0
    3.9444    2.5941   -0.0000 N   0  0  0  0  0  0  0  0  0  0  0  0
    2.5112    4.5604   -0.0000 C   0  0  0  0  0  0  0  0  0  0  0  0
    1.2201    6.7873   -0.0000 N   0  0  0  0  0  0  0  0  0  0  0  0
    4.8210    3.8260   -0.0000 C   0  0  0  0  0  0  0  0  0  0  0  0
    3.9326    5.0342   -0.0000 C   0  0  0  0  0  0  0  0  0  0  0  0
   -0.0829    7.5454   -0.0000 C   0  0  0  0  0  0  0  0  0  0  0  0
   -0.0948    9.0497   -0.0000 C   0  0  0  0  0  0  0  0  0  0  0  0
   -1.3740    6.7991   -0.0000 C   0  0  0  0  0  0  0  0  0  0  0  0
   -1.3977    9.8078   -0.0000 C   0  0  0  0  0  0  0  0  0  0  0  0
   -2.6770    7.5454   -0.0000 C   0  0  0  0  0  0  0  0  0  0  0  0
   -2.7007    9.0734   -0.0000 N   0  0  0  0  0  0  0  0  0  0  0  0
  1  2  1  0  0  0  0
  2  3  2  0  0  0  0
  2  4  1  0  0  0  0
  3  5  1  0  0  0  0
  3  6  1  0  0  0  0
  4  7  2  0  0  0  0
  5  8  2  0  0  0  0
  5  9  1  0  0  0  0
  6 10  2  0  0  0  0
  8 11  1  0  0  0  0
  9 12  2  0  0  0  0
 11 13  1  0  0  0  0
 11 14  2  0  0  0  0
 12 15  1  0  0  0  0
 13 16  1  0  0  0  0
 14 17  1  0  0  0  0
 15 18  1  0  0  0  0
 18 19  2  0  0  0  0
 18 20  1  0  0  0  0
 19 21  1  0  0  0  0
 20 22  2  0  0  0  0
 21 23  2  0  0  0  0
  7 10  1  0  0  0  0
 12 14  1  0  0  0  0
 16 17  2  0  0  0  0
 22 23  1  0  0  0  0
M  END
>  <MolRegNo>
2447264

>  <m>
=

>  <Value>
2511.9

>  <Unit>
nM

>  <Type>
IC50

>  <pValue>
5.6

>  <Ligand Efficiency>
0

>  <Binding Efficiency>
0

>  <Surface Efficiency>
0

>  <Assay Index>
1340683

>  <Assay Category>


>  <Assay Organism>
Homo sapiens

>  <Target ID>
17045

>  <Target Name>
Cytochrome P450 3A4

>  <Target Organism>
Homo sapiens

>  <Target Description>
Target is a single protein chain

>  <Sequence Accession>
P08684

>  <Reference>
Bioorg Med Chem Lett 26 (17), 4334-4339 (2016)

>  <Pubmed ID>
27460209

>  <DOI>
10.1016/j.bmcl.2016.07.030

$$$$
2387373
Actelion Java MolfileCreator 1.0

 26 29  0  0  0  0  0  0  0  0999 V2000
    0.0000   -0.0000   -0.0000 Cl  0  0  0  0  0  0  0  0  0  0  0  0
    1.2862   -0.7384   -0.0000 C   0  0  0  0  0  0  0  0  0  0  0  0
    2.5724    0.0238   -0.0000 C   0  0  0  0  0  0  0  0  0  0  0  0
    1.2743   -2.2270   -0.0000 C   0  0  0  0  0  0  0  0  0  0  0  0
    3.8586   -0.7145   -0.0000 C   0  0  0  0  0  0  0  0  0  0  0  0
    2.5724   -2.9654   -0.0000 C   0  0  0  0  0  0  0  0  0  0  0  0
    3.8466   -2.2032   -0.0000 C   0  0  0  0  0  0  0  0  0  0  0  0
    5.1447    0.0476   -0.0000 C   0  0  0  0  0  0  0  0  0  0  0  0
    5.1328   -2.9416   -0.0000 F   0  0  0  0  0  0  0  0  0  0  0  0
    6.4309   -0.6907   -0.0000 N   0  0  0  0  0  0  0  0  0  0  0  0
    5.1328    1.5601   -0.0000 C   0  0  0  0  0  0  0  0  0  0  0  0
    7.7171    0.0715   -0.0000 C   0  0  0  0  0  0  0  0  0  0  0  0
    6.4190    2.3223   -0.0000 C   0  0  0  0  0  0  0  0  0  0  0  0
    7.7052    1.5958   -0.0000 C   0  0  0  0  0  0  0  0  0  0  0  0
    6.4071    3.8347   -0.0000 N   0  0  0  0  0  0  0  0  0  0  0  0
    8.9914    2.3580   -0.0000 C   0  0  0  0  0  0  0  0  0  0  0  0
    7.5980    4.7279   -0.0000 C   0  0  0  0  0  0  0  0  0  0  0  0
    5.1686    4.7160   -0.0000 C   0  0  0  0  0  0  0  0  0  0  0  0
    9.0152    4.2754   -0.0000 O   0  0  0  0  0  0  0  0  0  0  0  0
    7.1217    6.1689   -0.0000 N   0  0  0  0  0  0  0  0  0  0  0  0
    5.6211    6.1570   -0.0000 C   0  0  0  0  0  0  0  0  0  0  0  0
    3.6918    4.4183   -0.0000 C   0  0  0  0  0  0  0  0  0  0  0  0
    7.9910    7.3956   -0.0000 C   0  0  0  0  0  0  0  0  0  0  0  0
    4.6088    7.2884   -0.0000 C   0  0  0  0  0  0  0  0  0  0  0  0
    2.6676    5.5377   -0.0000 C   0  0  0  0  0  0  0  0  0  0  0  0
    3.1202    6.9907   -0.0000 N   0  0  0  0  0  0  0  0  0  0  0  0
  1  2  1  0  0  0  0
  2  3  2  0  0  0  0
  2  4  1  0  0  0  0
  3  5  1  0  0  0  0
  4  6  2  0  0  0  0
  5  7  2  0  0  0  0
  5  8  1  0  0  0  0
  7  9  1  0  0  0  0
  8 10  2  0  0  0  0
  8 11  1  0  0  0  0
 10 12  1  0  0  0  0
 11 13  2  0  0  0  0
 12 14  2  0  0  0  0
 13 15  1  0  0  0  0
 14 16  1  0  0  0  0
 15 17  1  0  0  0  0
 15 18  1  0  0  0  0
 17 19  2  0  0  0  0
 17 20  1  0  0  0  0
 18 21  2  0  0  0  0
 18 22  1  0  0  0  0
 20 23  1  0  0  0  0
 21 24  1  0  0  0  0
 22 25  2  0  0  0  0
 24 26  2  0  0  0  0
  6  7  1  0  0  0  0
 13 14  1  0  0  0  0
 20 21  1  0  0  0  0
 25 26  1  0  0  0  0
M  END
>  <MolRegNo>
2387373

>  <m>
=

>  <Value>
1584.9

>  <Unit>
nM

>  <Type>
IC50

>  <pValue>
5.8

>  <Ligand Efficiency>
0

>  <Binding Efficiency>
0

>  <Surface Efficiency>
0

>  <Assay Index>
1340683

>  <Assay Category>


>  <Assay Organism>
Homo sapiens

>  <Target ID>
17045

>  <Target Name>
Cytochrome P450 3A4

>  <Target Organism>
Homo sapiens

>  <Target Description>
Target is a single protein chain

>  <Sequence Accession>
P08684

>  <Reference>
Bioorg Med Chem Lett 26 (17), 4334-4339 (2016)

>  <Pubmed ID>
27460209

>  <DOI>
10.1016/j.bmcl.2016.07.030

$$$$
2381557
Actelion Java MolfileCreator 1.0

 28 32  0  0  0  0  0  0  0  0999 V2000
    0.0000   -0.0000   -0.0000 Cl  0  0  0  0  0  0  0  0  0  0  0  0
    1.2854   -0.7379   -0.0000 C   0  0  0  0  0  0  0  0  0  0  0  0
    2.5708    0.0238   -0.0000 C   0  0  0  0  0  0  0  0  0  0  0  0
    1.2735   -2.2256   -0.0000 C   0  0  0  0  0  0  0  0  0  0  0  0
    3.8561   -0.7141   -0.0000 C   0  0  0  0  0  0  0  0  0  0  0  0
    2.5708   -2.9635   -0.0000 C   0  0  0  0  0  0  0  0  0  0  0  0
    3.8442   -2.2018   -0.0000 C   0  0  0  0  0  0  0  0  0  0  0  0
    5.1415    0.0476   -0.0000 C   0  0  0  0  0  0  0  0  0  0  0  0
    5.1296   -2.9397   -0.0000 F   0  0  0  0  0  0  0  0  0  0  0  0
    6.4269   -0.6903   -0.0000 N   0  0  0  0  0  0  0  0  0  0  0  0
    5.1296    1.5591   -0.0000 C   0  0  0  0  0  0  0  0  0  0  0  0
    7.7123    0.0714   -0.0000 C   0  0  0  0  0  0  0  0  0  0  0  0
    6.4150    2.3208   -0.0000 C   0  0  0  0  0  0  0  0  0  0  0  0
    9.1405   -0.3809   -0.0000 N   0  0  0  0  0  0  0  0  0  0  0  0
    7.7004    1.5948   -0.0000 C   0  0  0  0  0  0  0  0  0  0  0  0
    6.4031    3.8323   -0.0000 N   0  0  0  0  0  0  0  0  0  0  0  0
   10.0212    0.8569   -0.0000 C   0  0  0  0  0  0  0  0  0  0  0  0
    9.1286    2.0709   -0.0000 C   0  0  0  0  0  0  0  0  0  0  0  0
    7.5933    4.7250   -0.0000 C   0  0  0  0  0  0  0  0  0  0  0  0
    5.1653    4.7131   -0.0000 C   0  0  0  0  0  0  0  0  0  0  0  0
    9.0095    4.2727   -0.0000 O   0  0  0  0  0  0  0  0  0  0  0  0
    7.1172    6.1651   -0.0000 N   0  0  0  0  0  0  0  0  0  0  0  0
    5.6176    6.1532   -0.0000 C   0  0  0  0  0  0  0  0  0  0  0  0
    3.6895    4.4155   -0.0000 C   0  0  0  0  0  0  0  0  0  0  0  0
    7.9860    7.3909   -0.0000 C   0  0  0  0  0  0  0  0  0  0  0  0
    4.6059    7.2838   -0.0000 C   0  0  0  0  0  0  0  0  0  0  0  0
    2.6660    5.5343   -0.0000 C   0  0  0  0  0  0  0  0  0  0  0  0
    3.1301    6.9863   -0.0000 N   0  0  0  0  0  0  0  0  0  0  0  0
  1  2  1  0  0  0  0
  2  3  2  0  0  0  0
  2  4  1  0  0  0  0
  3  5  1  0  0  0  0
  4  6  2  0  0  0  0
  5  7  2  0  0  0  0
  5  8  1  0  0  0  0
  7  9  1  0  0  0  0
  8 10  2  0  0  0  0
  8 11  1  0  0  0  0
 10 12  1  0  0  0  0
 11 13  2  0  0  0  0
 12 14  1  0  0  0  0
 12 15  2  0  0  0  0
 13 16  1  0  0  0  0
 14 17  1  0  0  0  0
 15 18  1  0  0  0  0
 16 19  1  0  0  0  0
 16 20  1  0  0  0  0
 19 21  2  0  0  0  0
 19 22  1  0  0  0  0
 20 23  2  0  0  0  0
 20 24  1  0  0  0  0
 22 25  1  0  0  0  0
 23 26  1  0  0  0  0
 24 27  2  0  0  0  0
 26 28  2  0  0  0  0
  6  7  1  0  0  0  0
 13 15  1  0  0  0  0
 17 18  2  0  0  0  0
 22 23  1  0  0  0  0
 27 28  1  0  0  0  0
M  END
>  <MolRegNo>
2381557

>  <m>
=

>  <Value>
1000

>  <Unit>
nM

>  <Type>
IC50

>  <pValue>
6

>  <Ligand Efficiency>
0

>  <Binding Efficiency>
0

>  <Surface Efficiency>
0

>  <Assay Index>
1340683

>  <Assay Category>


>  <Assay Organism>
Homo sapiens

>  <Target ID>
17045

>  <Target Name>
Cytochrome P450 3A4

>  <Target Organism>
Homo sapiens

>  <Target Description>
Target is a single protein chain

>  <Sequence Accession>
P08684

>  <Reference>
Bioorg Med Chem Lett 26 (17), 4334-4339 (2016)

>  <Pubmed ID>
27460209

>  <DOI>
10.1016/j.bmcl.2016.07.030

$$$$
2384899
Actelion Java MolfileCreator 1.0

 28 32  0  0  0  0  0  0  0  0999 V2000
    0.0000   -0.0000   -0.0000 F   0  0  0  0  0  0  0  0  0  0  0  0
   -1.3037    0.7585   -0.0000 C   0  0  0  0  0  0  0  0  0  0  0  0
   -1.3156    2.2637   -0.0000 C   0  0  0  0  0  0  0  0  0  0  0  0
   -2.6074    0.0237   -0.0000 C   0  0  0  0  0  0  0  0  0  0  0  0
   -0.0356    3.0222   -0.0000 C   0  0  0  0  0  0  0  0  0  0  0  0
   -2.6193    3.0222   -0.0000 C   0  0  0  0  0  0  0  0  0  0  0  0
   -3.9230    0.7822   -0.0000 C   0  0  0  0  0  0  0  0  0  0  0  0
    1.2444    2.2874   -0.0000 N   0  0  0  0  0  0  0  0  0  0  0  0
   -0.0474    4.5274   -0.0000 C   0  0  0  0  0  0  0  0  0  0  0  0
   -3.9230    2.2874   -0.0000 C   0  0  0  0  0  0  0  0  0  0  0  0
   -5.2267    0.0474   -0.0000 F   0  0  0  0  0  0  0  0  0  0  0  0
    2.5245    3.0459   -0.0000 C   0  0  0  0  0  0  0  0  0  0  0  0
    1.2326    5.2859   -0.0000 C   0  0  0  0  0  0  0  0  0  0  0  0
    3.9467    2.5956   -0.0000 N   0  0  0  0  0  0  0  0  0  0  0  0
    2.5126    4.5630   -0.0000 C   0  0  0  0  0  0  0  0  0  0  0  0
    1.2207    6.7911   -0.0000 N   0  0  0  0  0  0  0  0  0  0  0  0
    4.8237    3.8282   -0.0000 C   0  0  0  0  0  0  0  0  0  0  0  0
    3.9348    5.0371   -0.0000 C   0  0  0  0  0  0  0  0  0  0  0  0
    2.4059    7.6800   -0.0000 C   0  0  0  0  0  0  0  0  0  0  0  0
   -0.0119    7.6682   -0.0000 C   0  0  0  0  0  0  0  0  0  0  0  0
    3.8163    7.2297   -0.0000 O   0  0  0  0  0  0  0  0  0  0  0  0
    1.9319    9.1141   -0.0000 N   0  0  0  0  0  0  0  0  0  0  0  0
    0.4385    9.1023   -0.0000 C   0  0  0  0  0  0  0  0  0  0  0  0
   -1.4815    7.3719   -0.0000 C   0  0  0  0  0  0  0  0  0  0  0  0
    2.7970   10.3349   -0.0000 C   0  0  0  0  0  0  0  0  0  0  0  0
   -0.5689   10.2282   -0.0000 C   0  0  0  0  0  0  0  0  0  0  0  0
   -2.5008    8.4860   -0.0000 C   0  0  0  0  0  0  0  0  0  0  0  0
   -2.0504    9.9319   -0.0000 N   0  0  0  0  0  0  0  0  0  0  0  0
  1  2  1  0  0  0  0
  2  3  2  0  0  0  0
  2  4  1  0  0  0  0
  3  5  1  0  0  0  0
  3  6  1  0  0  0  0
  4  7  2  0  0  0  0
  5  8  2  0  0  0  0
  5  9  1  0  0  0  0
  6 10  2  0  0  0  0
  7 11  1  0  0  0  0
  8 12  1  0  0  0  0
  9 13  2  0  0  0  0
 12 14  1  0  0  0  0
 12 15  2  0  0  0  0
 13 16  1  0  0  0  0
 14 17  1  0  0  0  0
 15 18  1  0  0  0  0
 16 19  1  0  0  0  0
 16 20  1  0  0  0  0
 19 21  2  0  0  0  0
 19 22  1  0  0  0  0
 20 23  2  0  0  0  0
 20 24  1  0  0  0  0
 22 25  1  0  0  0  0
 23 26  1  0  0  0  0
 24 27  2  0  0  0  0
 26 28  2  0  0  0  0
  7 10  1  0  0  0  0
 13 15  1  0  0  0  0
 17 18  2  0  0  0  0
 22 23  1  0  0  0  0
 27 28  1  0  0  0  0
M  END
>  <MolRegNo>
2384899

>  <m>
=

>  <Value>
3981.1

>  <Unit>
nM

>  <Type>
IC50

>  <pValue>
5.4

>  <Ligand Efficiency>
0

>  <Binding Efficiency>
0

>  <Surface Efficiency>
0

>  <Assay Index>
1340683

>  <Assay Category>


>  <Assay Organism>
Homo sapiens

>  <Target ID>
17045

>  <Target Name>
Cytochrome P450 3A4

>  <Target Organism>
Homo sapiens

>  <Target Description>
Target is a single protein chain

>  <Sequence Accession>
P08684

>  <Reference>
Bioorg Med Chem Lett 26 (17), 4334-4339 (2016)

>  <Pubmed ID>
27460209

>  <DOI>
10.1016/j.bmcl.2016.07.030

$$$$
2377715
Actelion Java MolfileCreator 1.0

 27 31  0  0  0  0  0  0  0  0999 V2000
    0.0000   -0.0000   -0.0000 Cl  0  0  0  0  0  0  0  0  0  0  0  0
    1.2852   -0.7378   -0.0000 C   0  0  0  0  0  0  0  0  0  0  0  0
    2.5704    0.0238   -0.0000 C   0  0  0  0  0  0  0  0  0  0  0  0
    1.2733   -2.2253   -0.0000 C   0  0  0  0  0  0  0  0  0  0  0  0
    3.8557   -0.7140   -0.0000 C   0  0  0  0  0  0  0  0  0  0  0  0
    2.5704   -2.9632   -0.0000 C   0  0  0  0  0  0  0  0  0  0  0  0
    3.8438   -2.2015   -0.0000 C   0  0  0  0  0  0  0  0  0  0  0  0
    5.1409    0.0476   -0.0000 C   0  0  0  0  0  0  0  0  0  0  0  0
    5.1290   -2.9394   -0.0000 F   0  0  0  0  0  0  0  0  0  0  0  0
    6.4261   -0.6902   -0.0000 N   0  0  0  0  0  0  0  0  0  0  0  0
    5.1290    1.5589   -0.0000 C   0  0  0  0  0  0  0  0  0  0  0  0
    7.7113    0.0714   -0.0000 C   0  0  0  0  0  0  0  0  0  0  0  0
    6.4142    2.3205   -0.0000 C   0  0  0  0  0  0  0  0  0  0  0  0
    9.1394   -0.3808   -0.0000 N   0  0  0  0  0  0  0  0  0  0  0  0
    7.6994    1.5946   -0.0000 C   0  0  0  0  0  0  0  0  0  0  0  0
    6.4023    3.8319   -0.0000 N   0  0  0  0  0  0  0  0  0  0  0  0
   10.0200    0.8568   -0.0000 C   0  0  0  0  0  0  0  0  0  0  0  0
    9.1275    2.0706   -0.0000 C   0  0  0  0  0  0  0  0  0  0  0  0
    7.5923    4.7244   -0.0000 C   0  0  0  0  0  0  0  0  0  0  0  0
    5.1647    4.7125   -0.0000 C   0  0  0  0  0  0  0  0  0  0  0  0
    9.0085    4.2722   -0.0000 O   0  0  0  0  0  0  0  0  0  0  0  0
    7.1163    6.1643   -0.0000 N   0  0  0  0  0  0  0  0  0  0  0  0
    5.6169    6.1524   -0.0000 C   0  0  0  0  0  0  0  0  0  0  0  0
    3.6891    4.4150   -0.0000 C   0  0  0  0  0  0  0  0  0  0  0  0
    4.6054    7.2829   -0.0000 C   0  0  0  0  0  0  0  0  0  0  0  0
    2.6657    5.5336   -0.0000 C   0  0  0  0  0  0  0  0  0  0  0  0
    3.1179    6.9854   -0.0000 N   0  0  0  0  0  0  0  0  0  0  0  0
  1  2  1  0  0  0  0
  2  3  2  0  0  0  0
  2  4  1  0  0  0  0
  3  5  1  0  0  0  0
  4  6  2  0  0  0  0
  5  7  2  0  0  0  0
  5  8  1  0  0  0  0
  7  9  1  0  0  0  0
  8 10  2  0  0  0  0
  8 11  1  0  0  0  0
 10 12  1  0  0  0  0
 11 13  2  0  0  0  0
 12 14  1  0  0  0  0
 12 15  2  0  0  0  0
 13 16  1  0  0  0  0
 14 17  1  0  0  0  0
 15 18  1  0  0  0  0
 16 19  1  0  0  0  0
 16 20  1  0  0  0  0
 19 21  2  0  0  0  0
 19 22  1  0  0  0  0
 20 23  2  0  0  0  0
 20 24  1  0  0  0  0
 23 25  1  0  0  0  0
 24 26  2  0  0  0  0
 25 27  2  0  0  0  0
  6  7  1  0  0  0  0
 13 15  1  0  0  0  0
 17 18  2  0  0  0  0
 22 23  1  0  0  0  0
 26 27  1  0  0  0  0
M  END
>  <MolRegNo>
2377715

>  <m>
=

>  <Value>
3162.3

>  <Unit>
nM

>  <Type>
IC50

>  <pValue>
5.5

>  <Ligand Efficiency>
0

>  <Binding Efficiency>
0

>  <Surface Efficiency>
0

>  <Assay Index>
1340683

>  <Assay Category>


>  <Assay Organism>
Homo sapiens

>  <Target ID>
17045

>  <Target Name>
Cytochrome P450 3A4

>  <Target Organism>
Homo sapiens

>  <Target Description>
Target is a single protein chain

>  <Sequence Accession>
P08684

>  <Reference>
Bioorg Med Chem Lett 26 (17), 4334-4339 (2016)

>  <Pubmed ID>
27460209

>  <DOI>
10.1016/j.bmcl.2016.07.030

$$$$
2384302
Actelion Java MolfileCreator 1.0

 30 34  0  0  0  0  0  0  0  0999 V2000
    0.0000   -0.0000   -0.0000 Cl  0  0  0  0  0  0  0  0  0  0  0  0
    1.2862   -0.7384   -0.0000 C   0  0  0  0  0  0  0  0  0  0  0  0
    2.5724    0.0238   -0.0000 C   0  0  0  0  0  0  0  0  0  0  0  0
    1.2743   -2.2271   -0.0000 C   0  0  0  0  0  0  0  0  0  0  0  0
    3.8587   -0.7146   -0.0000 C   0  0  0  0  0  0  0  0  0  0  0  0
    2.5724   -2.9655   -0.0000 C   0  0  0  0  0  0  0  0  0  0  0  0
    3.8468   -2.2033   -0.0000 C   0  0  0  0  0  0  0  0  0  0  0  0
    5.1449    0.0476   -0.0000 C   0  0  0  0  0  0  0  0  0  0  0  0
    5.1330   -2.9416   -0.0000 F   0  0  0  0  0  0  0  0  0  0  0  0
    6.4311   -0.6908   -0.0000 N   0  0  0  0  0  0  0  0  0  0  0  0
    5.1330    1.5601   -0.0000 C   0  0  0  0  0  0  0  0  0  0  0  0
    7.7173    0.0715   -0.0000 C   0  0  0  0  0  0  0  0  0  0  0  0
    6.4192    2.3224   -0.0000 C   0  0  0  0  0  0  0  0  0  0  0  0
    9.1465   -0.3811   -0.0000 N   0  0  0  0  0  0  0  0  0  0  0  0
    7.7054    1.5959   -0.0000 C   0  0  0  0  0  0  0  0  0  0  0  0
    6.4073    3.8349   -0.0000 N   0  0  0  0  0  0  0  0  0  0  0  0
   10.0278    0.8575   -0.0000 C   0  0  0  0  0  0  0  0  0  0  0  0
    9.1346    2.0723   -0.0000 C   0  0  0  0  0  0  0  0  0  0  0  0
    5.0973    4.5971   -0.0000 C   0  0  0  0  0  0  0  0  0  0  0  0
    5.0854    6.1096   -0.0000 C   0  0  0  0  0  0  0  0  0  0  0  0
    3.7991    3.8468   -0.0000 C   0  0  0  0  0  0  0  0  0  0  0  0
    6.3716    6.8718   -0.0000 C   0  0  0  0  0  0  0  0  0  0  0  0
    3.7753    6.8718   -0.0000 C   0  0  0  0  0  0  0  0  0  0  0  0
    2.4891    4.5971   -0.0000 C   0  0  0  0  0  0  0  0  0  0  0  0
    6.3597    8.3843   -0.0000 O   0  0  0  0  0  0  0  0  0  0  0  0
    7.6578    6.1334   -0.0000 N   0  0  0  0  0  0  0  0  0  0  0  0
    2.4653    6.1334   -0.0000 N   0  0  0  0  0  0  0  0  0  0  0  0
    8.9440    6.8956   -0.0000 C   0  0  0  0  0  0  0  0  0  0  0  0
   10.4327    6.9075   -0.0000 C   0  0  0  0  0  0  0  0  0  0  0  0
    9.6705    8.2056   -0.0000 C   0  0  0  0  0  0  0  0  0  0  0  0
  1  2  1  0  0  0  0
  2  3  2  0  0  0  0
  2  4  1  0  0  0  0
  3  5  1  0  0  0  0
  4  6  2  0  0  0  0
  5  7  2  0  0  0  0
  5  8  1  0  0  0  0
  7  9  1  0  0  0  0
  8 10  2  0  0  0  0
  8 11  1  0  0  0  0
 10 12  1  0  0  0  0
 11 13  2  0  0  0  0
 12 14  1  0  0  0  0
 12 15  2  0  0  0  0
 13 16  1  0  0  0  0
 14 17  1  0  0  0  0
 15 18  1  0  0  0  0
 16 19  1  0  0  0  0
 19 20  2  0  0  0  0
 19 21  1  0  0  0  0
 20 22  1  0  0  0  0
 20 23  1  0  0  0  0
 21 24  2  0  0  0  0
 22 25  2  0  0  0  0
 22 26  1  0  0  0  0
 23 27  2  0  0  0  0
 26 28  1  0  0  0  0
 28 29  1  0  0  0  0
 28 30  1  0  0  0  0
  6  7  1  0  0  0  0
 13 15  1  0  0  0  0
 17 18  2  0  0  0  0
 24 27  1  0  0  0  0
 29 30  1  0  0  0  0
M  END
>  <MolRegNo>
2384302

>  <m>
=

>  <Value>
15849

>  <Unit>
nM

>  <Type>
IC50

>  <pValue>
4.8

>  <Ligand Efficiency>
0

>  <Binding Efficiency>
0

>  <Surface Efficiency>
0

>  <Assay Index>
1340683

>  <Assay Category>


>  <Assay Organism>
Homo sapiens

>  <Target ID>
17045

>  <Target Name>
Cytochrome P450 3A4

>  <Target Organism>
Homo sapiens

>  <Target Description>
Target is a single protein chain

>  <Sequence Accession>
P08684

>  <Reference>
Bioorg Med Chem Lett 26 (17), 4334-4339 (2016)

>  <Pubmed ID>
27460209

>  <DOI>
10.1016/j.bmcl.2016.07.030

$$$$
2442743
Actelion Java MolfileCreator 1.0

 23 26  0  0  0  0  0  0  0  0999 V2000
    0.0000   -0.0000   -0.0000 N   0  0  0  0  0  0  0  0  0  0  0  0
   -0.0119    1.5054   -0.0000 C   0  0  0  0  0  0  0  0  0  0  0  0
   -1.3039   -0.7349   -0.0000 C   0  0  0  0  0  0  0  0  0  0  0  0
    1.2683    2.2640   -0.0000 C   0  0  0  0  0  0  0  0  0  0  0  0
   -1.3157    2.2640   -0.0000 C   0  0  0  0  0  0  0  0  0  0  0  0
   -2.6196    0.0237   -0.0000 C   0  0  0  0  0  0  0  0  0  0  0  0
   -1.3157   -2.2166   -0.0000 C   0  0  0  0  0  0  0  0  0  0  0  0
    2.5485    1.5291   -0.0000 N   0  0  0  0  0  0  0  0  0  0  0  0
    1.2565    3.7694   -0.0000 C   0  0  0  0  0  0  0  0  0  0  0  0
   -2.6196    1.5291   -0.0000 C   0  0  0  0  0  0  0  0  0  0  0  0
    3.8286    2.2877   -0.0000 C   0  0  0  0  0  0  0  0  0  0  0  0
    2.5366    4.5280   -0.0000 C   0  0  0  0  0  0  0  0  0  0  0  0
    5.2510    1.8373   -0.0000 N   0  0  0  0  0  0  0  0  0  0  0  0
    3.8168    3.8049   -0.0000 C   0  0  0  0  0  0  0  0  0  0  0  0
    2.5248    6.0333   -0.0000 N   0  0  0  0  0  0  0  0  0  0  0  0
    6.1282    3.0700   -0.0000 C   0  0  0  0  0  0  0  0  0  0  0  0
    5.2392    4.2790   -0.0000 C   0  0  0  0  0  0  0  0  0  0  0  0
    1.2209    6.7919   -0.0000 C   0  0  0  0  0  0  0  0  0  0  0  0
    1.2090    8.2973   -0.0000 C   0  0  0  0  0  0  0  0  0  0  0  0
   -0.0711    6.0452   -0.0000 C   0  0  0  0  0  0  0  0  0  0  0  0
   -0.0948    9.0559   -0.0000 C   0  0  0  0  0  0  0  0  0  0  0  0
   -1.3750    6.7919   -0.0000 C   0  0  0  0  0  0  0  0  0  0  0  0
   -1.3987    8.3210   -0.0000 N   0  0  0  0  0  0  0  0  0  0  0  0
  1  2  2  0  0  0  0
  1  3  1  0  0  0  0
  2  4  1  0  0  0  0
  2  5  1  0  0  0  0
  3  6  2  0  0  0  0
  3  7  1  0  0  0  0
  4  8  2  0  0  0  0
  4  9  1  0  0  0  0
  5 10  2  0  0  0  0
  8 11  1  0  0  0  0
  9 12  2  0  0  0  0
 11 13  1  0  0  0  0
 11 14  2  0  0  0  0
 12 15  1  0  0  0  0
 13 16  1  0  0  0  0
 14 17  1  0  0  0  0
 15 18  1  0  0  0  0
 18 19  2  0  0  0  0
 18 20  1  0  0  0  0
 19 21  1  0  0  0  0
 20 22  2  0  0  0  0
 21 23  2  0  0  0  0
  6 10  1  0  0  0  0
 12 14  1  0  0  0  0
 16 17  2  0  0  0  0
 22 23  1  0  0  0  0
M  END
>  <MolRegNo>
2442743

>  <m>
=

>  <Value>
25119

>  <Unit>
nM

>  <Type>
IC50

>  <pValue>
4.6

>  <Ligand Efficiency>
0

>  <Binding Efficiency>
0

>  <Surface Efficiency>
0

>  <Assay Index>
1340683

>  <Assay Category>


>  <Assay Organism>
Homo sapiens

>  <Target ID>
17045

>  <Target Name>
Cytochrome P450 3A4

>  <Target Organism>
Homo sapiens

>  <Target Description>
Target is a single protein chain

>  <Sequence Accession>
P08684

>  <Reference>
Bioorg Med Chem Lett 26 (17), 4334-4339 (2016)

>  <Pubmed ID>
27460209

>  <DOI>
10.1016/j.bmcl.2016.07.030

$$$$
2396778
Actelion Java MolfileCreator 1.0

 24 27  0  0  0  0  0  0  0  0999 V2000
    0.0000   -0.0000   -0.0000 F   0  0  0  0  0  0  0  0  0  0  0  0
   -0.0118    1.5049   -0.0000 C   0  0  0  0  0  0  0  0  0  0  0  0
   -1.3271    2.2632   -0.0000 C   0  0  0  0  0  0  0  0  0  0  0  0
    1.2679    2.2632   -0.0000 C   0  0  0  0  0  0  0  0  0  0  0  0
   -2.6306    1.5286   -0.0000 F   0  0  0  0  0  0  0  0  0  0  0  0
   -1.3390    3.7681   -0.0000 C   0  0  0  0  0  0  0  0  0  0  0  0
    1.2560    3.7681   -0.0000 C   0  0  0  0  0  0  0  0  0  0  0  0
   -0.0592    4.5265   -0.0000 C   0  0  0  0  0  0  0  0  0  0  0  0
    2.5358    4.5265   -0.0000 C   0  0  0  0  0  0  0  0  0  0  0  0
    3.8155    3.7918   -0.0000 N   0  0  0  0  0  0  0  0  0  0  0  0
    2.5239    6.0313   -0.0000 C   0  0  0  0  0  0  0  0  0  0  0  0
    5.0952    4.5502   -0.0000 C   0  0  0  0  0  0  0  0  0  0  0  0
    3.8037    6.7897   -0.0000 C   0  0  0  0  0  0  0  0  0  0  0  0
    6.5172    4.0999   -0.0000 N   0  0  0  0  0  0  0  0  0  0  0  0
    5.0834    6.0669   -0.0000 C   0  0  0  0  0  0  0  0  0  0  0  0
    3.7918    8.2946   -0.0000 N   0  0  0  0  0  0  0  0  0  0  0  0
    7.3940    5.3322   -0.0000 C   0  0  0  0  0  0  0  0  0  0  0  0
    6.5053    6.5409   -0.0000 C   0  0  0  0  0  0  0  0  0  0  0  0
    2.4884    9.0529   -0.0000 C   0  0  0  0  0  0  0  0  0  0  0  0
    2.4765   10.5578   -0.0000 C   0  0  0  0  0  0  0  0  0  0  0  0
    1.1968    8.3064   -0.0000 C   0  0  0  0  0  0  0  0  0  0  0  0
    1.1731   11.3162   -0.0000 C   0  0  0  0  0  0  0  0  0  0  0  0
   -0.1066    9.0529   -0.0000 C   0  0  0  0  0  0  0  0  0  0  0  0
   -0.1303   10.5815   -0.0000 N   0  0  0  0  0  0  0  0  0  0  0  0
  1  2  1  0  0  0  0
  2  3  2  0  0  0  0
  2  4  1  0  0  0  0
  3  5  1  0  0  0  0
  3  6  1  0  0  0  0
  4  7  2  0  0  0  0
  6  8  2  0  0  0  0
  7  9  1  0  0  0  0
  9 10  2  0  0  0  0
  9 11  1  0  0  0  0
 10 12  1  0  0  0  0
 11 13  2  0  0  0  0
 12 14  1  0  0  0  0
 12 15  2  0  0  0  0
 13 16  1  0  0  0  0
 14 17  1  0  0  0  0
 15 18  1  0  0  0  0
 16 19  1  0  0  0  0
 19 20  2  0  0  0  0
 19 21  1  0  0  0  0
 20 22  1  0  0  0  0
 21 23  2  0  0  0  0
 22 24  2  0  0  0  0
  7  8  1  0  0  0  0
 13 15  1  0  0  0  0
 17 18  2  0  0  0  0
 23 24  1  0  0  0  0
M  END
>  <MolRegNo>
2396778

>  <m>
=

>  <Value>
1995.3

>  <Unit>
nM

>  <Type>
IC50

>  <pValue>
5.7

>  <Ligand Efficiency>
0

>  <Binding Efficiency>
0

>  <Surface Efficiency>
0

>  <Assay Index>
1340683

>  <Assay Category>


>  <Assay Organism>
Homo sapiens

>  <Target ID>
17045

>  <Target Name>
Cytochrome P450 3A4

>  <Target Organism>
Homo sapiens

>  <Target Description>
Target is a single protein chain

>  <Sequence Accession>
P08684

>  <Reference>
Bioorg Med Chem Lett 26 (17), 4334-4339 (2016)

>  <Pubmed ID>
27460209

>  <DOI>
10.1016/j.bmcl.2016.07.030

$$$$
2353622
Actelion Java MolfileCreator 1.0

 24 27  0  0  0  0  0  0  0  0999 V2000
    0.0000   -0.0000   -0.0000 F   0  0  0  0  0  0  0  0  0  0  0  0
   -1.3031    0.7582   -0.0000 C   0  0  0  0  0  0  0  0  0  0  0  0
   -1.3150    2.2627   -0.0000 C   0  0  0  0  0  0  0  0  0  0  0  0
   -2.6062    0.0237   -0.0000 C   0  0  0  0  0  0  0  0  0  0  0  0
   -0.0355    3.0208   -0.0000 C   0  0  0  0  0  0  0  0  0  0  0  0
   -2.6181    3.0208   -0.0000 C   0  0  0  0  0  0  0  0  0  0  0  0
   -3.9212    0.7819   -0.0000 C   0  0  0  0  0  0  0  0  0  0  0  0
    1.2439    2.2864   -0.0000 N   0  0  0  0  0  0  0  0  0  0  0  0
   -0.0474    4.5253   -0.0000 C   0  0  0  0  0  0  0  0  0  0  0  0
   -3.9212    2.2864   -0.0000 C   0  0  0  0  0  0  0  0  0  0  0  0
   -5.2243    0.0474   -0.0000 F   0  0  0  0  0  0  0  0  0  0  0  0
    2.5233    3.0445   -0.0000 C   0  0  0  0  0  0  0  0  0  0  0  0
    1.2320    5.2835   -0.0000 C   0  0  0  0  0  0  0  0  0  0  0  0
    3.9449    2.5944   -0.0000 N   0  0  0  0  0  0  0  0  0  0  0  0
    2.5114    4.5609   -0.0000 C   0  0  0  0  0  0  0  0  0  0  0  0
    1.2202    6.7880   -0.0000 N   0  0  0  0  0  0  0  0  0  0  0  0
    4.8215    3.8264   -0.0000 C   0  0  0  0  0  0  0  0  0  0  0  0
    3.9330    5.0347   -0.0000 C   0  0  0  0  0  0  0  0  0  0  0  0
   -0.0829    7.5462   -0.0000 C   0  0  0  0  0  0  0  0  0  0  0  0
   -0.0948    9.0507   -0.0000 C   0  0  0  0  0  0  0  0  0  0  0  0
   -1.3742    6.7999   -0.0000 C   0  0  0  0  0  0  0  0  0  0  0  0
   -1.3979    9.8088   -0.0000 C   0  0  0  0  0  0  0  0  0  0  0  0
   -2.6773    7.5462   -0.0000 C   0  0  0  0  0  0  0  0  0  0  0  0
   -2.7010    9.0744   -0.0000 N   0  0  0  0  0  0  0  0  0  0  0  0
  1  2  1  0  0  0  0
  2  3  2  0  0  0  0
  2  4  1  0  0  0  0
  3  5  1  0  0  0  0
  3  6  1  0  0  0  0
  4  7  2  0  0  0  0
  5  8  2  0  0  0  0
  5  9  1  0  0  0  0
  6 10  2  0  0  0  0
  7 11  1  0  0  0  0
  8 12  1  0  0  0  0
  9 13  2  0  0  0  0
 12 14  1  0  0  0  0
 12 15  2  0  0  0  0
 13 16  1  0  0  0  0
 14 17  1  0  0  0  0
 15 18  1  0  0  0  0
 16 19  1  0  0  0  0
 19 20  2  0  0  0  0
 19 21  1  0  0  0  0
 20 22  1  0  0  0  0
 21 23  2  0  0  0  0
 22 24  2  0  0  0  0
  7 10  1  0  0  0  0
 13 15  1  0  0  0  0
 17 18  2  0  0  0  0
 23 24  1  0  0  0  0
M  END
>  <MolRegNo>
2353622

>  <m>
=

>  <Value>
1258.9

>  <Unit>
nM

>  <Type>
IC50

>  <pValue>
5.9

>  <Ligand Efficiency>
0

>  <Binding Efficiency>
0

>  <Surface Efficiency>
0

>  <Assay Index>
1340683

>  <Assay Category>


>  <Assay Organism>
Homo sapiens

>  <Target ID>
17045

>  <Target Name>
Cytochrome P450 3A4

>  <Target Organism>
Homo sapiens

>  <Target Description>
Target is a single protein chain

>  <Sequence Accession>
P08684

>  <Reference>
Bioorg Med Chem Lett 26 (17), 4334-4339 (2016)

>  <Pubmed ID>
27460209

>  <DOI>
10.1016/j.bmcl.2016.07.030

$$$$
2425762
Actelion Java MolfileCreator 1.0

 32 35  0  0  0  0  0  0  0  0999 V2000
    0.0000   -0.0000   -0.0000 F   0  0  0  0  0  0  0  0  0  0  0  0
   -1.3149    0.7581   -0.0000 C   0  0  0  0  0  0  0  0  0  0  0  0
   -2.6179    0.0237   -0.0000 C   0  0  0  0  0  0  0  0  0  0  0  0
   -1.3386    2.2744   -0.0000 C   0  0  0  0  0  0  0  0  0  0  0  0
   -3.9209    0.7818   -0.0000 C   0  0  0  0  0  0  0  0  0  0  0  0
   -2.6534    3.0206   -0.0000 C   0  0  0  0  0  0  0  0  0  0  0  0
   -5.2239    0.0355   -0.0000 C   0  0  0  0  0  0  0  0  0  0  0  0
   -3.9328    2.2981   -0.0000 C   0  0  0  0  0  0  0  0  0  0  0  0
   -6.5270    0.7937   -0.0000 C   0  0  0  0  0  0  0  0  0  0  0  0
   -5.2358   -1.4452   -0.0000 C   0  0  0  0  0  0  0  0  0  0  0  0
   -5.2358    3.0562   -0.0000 N   0  0  0  0  0  0  0  0  0  0  0  0
   -7.8300    0.0592   -0.0000 C   0  0  0  0  0  0  0  0  0  0  0  0
   -6.5388    2.3099   -0.0000 C   0  0  0  0  0  0  0  0  0  0  0  0
   -6.5388   -2.1914   -0.0000 O   0  0  0  0  0  0  0  0  0  0  0  0
   -3.9565   -2.1678   -0.0000 N   0  0  0  0  0  0  0  0  0  0  0  0
   -9.1330    0.8174   -0.0000 C   0  0  0  0  0  0  0  0  0  0  0  0
   -7.8418   -1.4215   -0.0000 C   0  0  0  0  0  0  0  0  0  0  0  0
   -7.8418    3.0680   -0.0000 C   0  0  0  0  0  0  0  0  0  0  0  0
  -10.4360    0.0829   -0.0000 C   0  0  0  0  0  0  0  0  0  0  0  0
   -9.1449   -2.1559   -0.0000 C   0  0  0  0  0  0  0  0  0  0  0  0
   -7.8537    4.5724   -0.0000 N   0  0  0  0  0  0  0  0  0  0  0  0
   -9.1449    2.3336   -0.0000 C   0  0  0  0  0  0  0  0  0  0  0  0
  -10.4479   -1.3978   -0.0000 C   0  0  0  0  0  0  0  0  0  0  0  0
   -9.1567    5.3306   -0.0000 C   0  0  0  0  0  0  0  0  0  0  0  0
  -10.4479    4.5961   -0.0000 N   0  0  0  0  0  0  0  0  0  0  0  0
   -9.1567    6.8350   -0.0000 C   0  0  0  0  0  0  0  0  0  0  0  0
  -11.7509    5.3424   -0.0000 C   0  0  0  0  0  0  0  0  0  0  0  0
   -7.8774    7.5931   -0.0000 C   0  0  0  0  0  0  0  0  0  0  0  0
  -10.4597    7.5931   -0.0000 C   0  0  0  0  0  0  0  0  0  0  0  0
  -11.7628    6.8586   -0.0000 N   0  0  0  0  0  0  0  0  0  0  0  0
   -6.5862    8.3512   -0.0000 N   0  0  0  0  0  0  0  0  0  0  0  0
  -10.4716    9.0975   -0.0000 N   0  0  0  0  0  0  0  0  0  0  0  0
  1  2  1  0  0  0  0
  2  3  2  0  0  0  0
  2  4  1  0  0  0  0
  3  5  1  0  0  0  0
  4  6  2  0  0  0  0
  5  7  2  0  0  0  0
  5  8  1  0  0  0  0
  7  9  1  0  0  0  0
  7 10  1  0  0  0  0
  8 11  2  0  0  0  0
  9 12  1  0  0  0  0
  9 13  2  0  0  0  0
 10 14  2  0  0  0  0
 10 15  1  0  0  0  0
 12 16  2  0  0  0  0
 12 17  1  0  0  0  0
 13 18  1  0  0  0  0
 16 19  1  0  0  0  0
 17 20  2  0  0  0  0
 18 21  1  6  0  0  0
 18 22  1  0  0  0  0
 19 23  2  0  0  0  0
 21 24  1  0  0  0  0
 24 25  2  0  0  0  0
 24 26  1  0  0  0  0
 25 27  1  0  0  0  0
 26 28  1  0  0  0  0
 26 29  2  0  0  0  0
 27 30  2  0  0  0  0
 28 31  3  0  0  0  0
 29 32  1  0  0  0  0
  6  8  1  0  0  0  0
 11 13  1  0  0  0  0
 20 23  1  0  0  0  0
 29 30  1  0  0  0  0
M  END
>  <MolRegNo>
2425762

>  <m>
=

>  <Value>
13000

>  <Unit>
nM

>  <Type>
IC50

>  <pValue>
4.89

>  <Ligand Efficiency>
0

>  <Binding Efficiency>
0

>  <Surface Efficiency>
0

>  <Assay Index>
1341665

>  <Assay Category>


>  <Assay Organism>
Homo sapiens

>  <Target ID>
17045

>  <Target Name>
Cytochrome P450 3A4

>  <Target Organism>
Homo sapiens

>  <Target Description>
Target is a single protein chain

>  <Sequence Accession>
P08684

>  <Reference>
J Med Chem 59 (15), 7252-7267 (2016)

>  <Pubmed ID>
27411843

>  <DOI>
10.1021/acs.jmedchem.6b00827

$$$$
2388012
Actelion Java MolfileCreator 1.0

 33 36  0  0  0  0  0  0  0  0999 V2000
    0.0000   -0.0000   -0.0000 F   0  0  0  0  0  0  0  0  0  0  0  0
   -1.3153    0.7584   -0.0000 C   0  0  0  0  0  0  0  0  0  0  0  0
   -2.6188    0.0237   -0.0000 C   0  0  0  0  0  0  0  0  0  0  0  0
   -1.3390    2.2752   -0.0000 C   0  0  0  0  0  0  0  0  0  0  0  0
   -3.9223    0.7821   -0.0000 C   0  0  0  0  0  0  0  0  0  0  0  0
   -2.6544    3.0217   -0.0000 C   0  0  0  0  0  0  0  0  0  0  0  0
   -5.2258    0.0355   -0.0000 C   0  0  0  0  0  0  0  0  0  0  0  0
   -3.9342    2.2989   -0.0000 C   0  0  0  0  0  0  0  0  0  0  0  0
   -6.5293    0.7939   -0.0000 C   0  0  0  0  0  0  0  0  0  0  0  0
   -5.2376   -1.4457   -0.0000 C   0  0  0  0  0  0  0  0  0  0  0  0
   -5.2376    3.0573   -0.0000 N   0  0  0  0  0  0  0  0  0  0  0  0
   -7.8328    0.0592   -0.0000 C   0  0  0  0  0  0  0  0  0  0  0  0
   -6.5411    2.3107   -0.0000 C   0  0  0  0  0  0  0  0  0  0  0  0
   -6.5411   -2.1922   -0.0000 O   0  0  0  0  0  0  0  0  0  0  0  0
   -3.9579   -2.1685   -0.0000 N   0  0  0  0  0  0  0  0  0  0  0  0
   -9.1362    0.8176   -0.0000 C   0  0  0  0  0  0  0  0  0  0  0  0
   -7.8446   -1.4220   -0.0000 C   0  0  0  0  0  0  0  0  0  0  0  0
   -7.8446    3.0691   -0.0000 C   0  0  0  0  0  0  0  0  0  0  0  0
   -3.9697   -3.6498   -0.0000 C   0  0  0  0  0  0  0  0  0  0  0  0
  -10.4397    0.0829   -0.0000 C   0  0  0  0  0  0  0  0  0  0  0  0
   -9.1481   -2.1567   -0.0000 C   0  0  0  0  0  0  0  0  0  0  0  0
   -7.8565    4.5740   -0.0000 N   0  0  0  0  0  0  0  0  0  0  0  0
   -9.1481    2.3344   -0.0000 C   0  0  0  0  0  0  0  0  0  0  0  0
  -10.4516   -1.3983   -0.0000 C   0  0  0  0  0  0  0  0  0  0  0  0
   -9.1599    5.3324   -0.0000 C   0  0  0  0  0  0  0  0  0  0  0  0
  -10.4516    4.5977   -0.0000 N   0  0  0  0  0  0  0  0  0  0  0  0
   -9.1599    6.8374   -0.0000 C   0  0  0  0  0  0  0  0  0  0  0  0
  -11.7551    5.3561   -0.0000 C   0  0  0  0  0  0  0  0  0  0  0  0
   -7.8802    7.5958   -0.0000 C   0  0  0  0  0  0  0  0  0  0  0  0
  -10.4634    7.5958   -0.0000 C   0  0  0  0  0  0  0  0  0  0  0  0
  -11.7669    6.8729   -0.0000 N   0  0  0  0  0  0  0  0  0  0  0  0
   -6.5885    8.3542   -0.0000 N   0  0  0  0  0  0  0  0  0  0  0  0
  -10.4753    9.1007   -0.0000 N   0  0  0  0  0  0  0  0  0  0  0  0
  1  2  1  0  0  0  0
  2  3  2  0  0  0  0
  2  4  1  0  0  0  0
  3  5  1  0  0  0  0
  4  6  2  0  0  0  0
  5  7  2  0  0  0  0
  5  8  1  0  0  0  0
  7  9  1  0  0  0  0
  7 10  1  0  0  0  0
  8 11  2  0  0  0  0
  9 12  1  0  0  0  0
  9 13  2  0  0  0  0
 10 14  2  0  0  0  0
 10 15  1  0  0  0  0
 12 16  2  0  0  0  0
 12 17  1  0  0  0  0
 13 18  1  0  0  0  0
 15 19  1  0  0  0  0
 16 20  1  0  0  0  0
 17 21  2  0  0  0  0
 18 22  1  6  0  0  0
 18 23  1  0  0  0  0
 20 24  2  0  0  0  0
 22 25  1  0  0  0  0
 25 26  2  0  0  0  0
 25 27  1  0  0  0  0
 26 28  1  0  0  0  0
 27 29  1  0  0  0  0
 27 30  2  0  0  0  0
 28 31  2  0  0  0  0
 29 32  3  0  0  0  0
 30 33  1  0  0  0  0
  6  8  1  0  0  0  0
 11 13  1  0  0  0  0
 21 24  1  0  0  0  0
 30 31  1  0  0  0  0
M  END
>  <MolRegNo>
2388012

>  <m>
=

>  <Value>
14000

>  <Unit>
nM

>  <Type>
IC50

>  <pValue>
4.85

>  <Ligand Efficiency>
0

>  <Binding Efficiency>
0

>  <Surface Efficiency>
0

>  <Assay Index>
1341665

>  <Assay Category>


>  <Assay Organism>
Homo sapiens

>  <Target ID>
17045

>  <Target Name>
Cytochrome P450 3A4

>  <Target Organism>
Homo sapiens

>  <Target Description>
Target is a single protein chain

>  <Sequence Accession>
P08684

>  <Reference>
J Med Chem 59 (15), 7252-7267 (2016)

>  <Pubmed ID>
27411843

>  <DOI>
10.1021/acs.jmedchem.6b00827

$$$$
2440590
Actelion Java MolfileCreator 1.0

 34 37  0  0  0  0  0  0  0  0999 V2000
    0.0000   -0.0000   -0.0000 F   0  0  0  0  0  0  0  0  0  0  0  0
   -1.3155    0.7585   -0.0000 C   0  0  0  0  0  0  0  0  0  0  0  0
   -2.6191    0.0237   -0.0000 C   0  0  0  0  0  0  0  0  0  0  0  0
   -1.3392    2.2754   -0.0000 C   0  0  0  0  0  0  0  0  0  0  0  0
   -3.9228    0.7822   -0.0000 C   0  0  0  0  0  0  0  0  0  0  0  0
   -2.6547    3.0221   -0.0000 C   0  0  0  0  0  0  0  0  0  0  0  0
   -5.2264    0.0356   -0.0000 C   0  0  0  0  0  0  0  0  0  0  0  0
   -3.9346    2.2991   -0.0000 C   0  0  0  0  0  0  0  0  0  0  0  0
   -6.5300    0.7940   -0.0000 C   0  0  0  0  0  0  0  0  0  0  0  0
   -5.2382   -1.4458   -0.0000 C   0  0  0  0  0  0  0  0  0  0  0  0
   -5.2382    3.0576   -0.0000 N   0  0  0  0  0  0  0  0  0  0  0  0
   -7.8336    0.0593   -0.0000 C   0  0  0  0  0  0  0  0  0  0  0  0
   -6.5419    2.3110   -0.0000 C   0  0  0  0  0  0  0  0  0  0  0  0
   -6.5419   -2.1925   -0.0000 O   0  0  0  0  0  0  0  0  0  0  0  0
   -3.9583   -2.1688   -0.0000 N   0  0  0  0  0  0  0  0  0  0  0  0
   -9.1373    0.8177   -0.0000 C   0  0  0  0  0  0  0  0  0  0  0  0
   -7.8455   -1.4221   -0.0000 C   0  0  0  0  0  0  0  0  0  0  0  0
   -7.8455    3.0695   -0.0000 C   0  0  0  0  0  0  0  0  0  0  0  0
   -2.6784   -1.3984   -0.0000 C   0  0  0  0  0  0  0  0  0  0  0  0
   -3.9702   -3.6502   -0.0000 C   0  0  0  0  0  0  0  0  0  0  0  0
  -10.4409    0.0830   -0.0000 C   0  0  0  0  0  0  0  0  0  0  0  0
   -9.1491   -2.1569   -0.0000 C   0  0  0  0  0  0  0  0  0  0  0  0
   -7.8574    4.5746   -0.0000 N   0  0  0  0  0  0  0  0  0  0  0  0
   -9.1491    2.3347   -0.0000 C   0  0  0  0  0  0  0  0  0  0  0  0
  -10.4528   -1.3984   -0.0000 C   0  0  0  0  0  0  0  0  0  0  0  0
   -9.1610    5.3330   -0.0000 C   0  0  0  0  0  0  0  0  0  0  0  0
  -10.4528    4.5983   -0.0000 N   0  0  0  0  0  0  0  0  0  0  0  0
   -9.1610    6.8381   -0.0000 C   0  0  0  0  0  0  0  0  0  0  0  0
  -11.7564    5.3567   -0.0000 C   0  0  0  0  0  0  0  0  0  0  0  0
   -7.8811    7.5966   -0.0000 C   0  0  0  0  0  0  0  0  0  0  0  0
  -10.4646    7.5966   -0.0000 C   0  0  0  0  0  0  0  0  0  0  0  0
  -11.7683    6.8737   -0.0000 N   0  0  0  0  0  0  0  0  0  0  0  0
   -6.5893    8.3551   -0.0000 N   0  0  0  0  0  0  0  0  0  0  0  0
  -10.4765    9.1017   -0.0000 N   0  0  0  0  0  0  0  0  0  0  0  0
  1  2  1  0  0  0  0
  2  3  2  0  0  0  0
  2  4  1  0  0  0  0
  3  5  1  0  0  0  0
  4  6  2  0  0  0  0
  5  7  2  0  0  0  0
  5  8  1  0  0  0  0
  7  9  1  0  0  0  0
  7 10  1  0  0  0  0
  8 11  2  0  0  0  0
  9 12  1  0  0  0  0
  9 13  2  0  0  0  0
 10 14  2  0  0  0  0
 10 15  1  0  0  0  0
 12 16  2  0  0  0  0
 12 17  1  0  0  0  0
 13 18  1  0  0  0  0
 15 19  1  0  0  0  0
 15 20  1  0  0  0  0
 16 21  1  0  0  0  0
 17 22  2  0  0  0  0
 18 23  1  6  0  0  0
 18 24  1  0  0  0  0
 21 25  2  0  0  0  0
 23 26  1  0  0  0  0
 26 27  2  0  0  0  0
 26 28  1  0  0  0  0
 27 29  1  0  0  0  0
 28 30  1  0  0  0  0
 28 31  2  0  0  0  0
 29 32  2  0  0  0  0
 30 33  3  0  0  0  0
 31 34  1  0  0  0  0
  6  8  1  0  0  0  0
 11 13  1  0  0  0  0
 22 25  1  0  0  0  0
 31 32  1  0  0  0  0
M  END
>  <MolRegNo>
2440590

>  <m>
=

>  <Value>
19000

>  <Unit>
nM

>  <Type>
IC50

>  <pValue>
4.72

>  <Ligand Efficiency>
0

>  <Binding Efficiency>
0

>  <Surface Efficiency>
0

>  <Assay Index>
1341665

>  <Assay Category>


>  <Assay Organism>
Homo sapiens

>  <Target ID>
17045

>  <Target Name>
Cytochrome P450 3A4

>  <Target Organism>
Homo sapiens

>  <Target Description>
Target is a single protein chain

>  <Sequence Accession>
P08684

>  <Reference>
J Med Chem 59 (15), 7252-7267 (2016)

>  <Pubmed ID>
27411843

>  <DOI>
10.1021/acs.jmedchem.6b00827

$$$$
2368548
Actelion Java MolfileCreator 1.0

 35 38  0  0  0  0  0  0  0  0999 V2000
    0.0000   -0.0000   -0.0000 F   0  0  0  0  0  0  0  0  0  0  0  0
   -1.3156    0.7586   -0.0000 C   0  0  0  0  0  0  0  0  0  0  0  0
   -2.6194    0.0237   -0.0000 C   0  0  0  0  0  0  0  0  0  0  0  0
   -1.3393    2.2757   -0.0000 C   0  0  0  0  0  0  0  0  0  0  0  0
   -3.9231    0.7823   -0.0000 C   0  0  0  0  0  0  0  0  0  0  0  0
   -2.6549    3.0223   -0.0000 C   0  0  0  0  0  0  0  0  0  0  0  0
   -5.2269    0.0356   -0.0000 C   0  0  0  0  0  0  0  0  0  0  0  0
   -3.9350    2.2994   -0.0000 C   0  0  0  0  0  0  0  0  0  0  0  0
   -6.5306    0.7941   -0.0000 C   0  0  0  0  0  0  0  0  0  0  0  0
   -5.2387   -1.4460   -0.0000 C   0  0  0  0  0  0  0  0  0  0  0  0
   -5.2387    3.0579   -0.0000 N   0  0  0  0  0  0  0  0  0  0  0  0
   -7.8344    0.0593   -0.0000 C   0  0  0  0  0  0  0  0  0  0  0  0
   -6.5425    2.3112   -0.0000 C   0  0  0  0  0  0  0  0  0  0  0  0
   -6.5425   -2.1927   -0.0000 O   0  0  0  0  0  0  0  0  0  0  0  0
   -3.9587   -2.1690   -0.0000 N   0  0  0  0  0  0  0  0  0  0  0  0
   -9.1382    0.8178   -0.0000 C   0  0  0  0  0  0  0  0  0  0  0  0
   -7.8463   -1.4223   -0.0000 C   0  0  0  0  0  0  0  0  0  0  0  0
   -7.8463    3.0698   -0.0000 C   0  0  0  0  0  0  0  0  0  0  0  0
   -3.9587   -3.6505   -0.0000 C   0  0  0  0  0  0  0  0  0  0  0  0
  -10.4419    0.0830   -0.0000 C   0  0  0  0  0  0  0  0  0  0  0  0
   -9.1500   -2.1571   -0.0000 C   0  0  0  0  0  0  0  0  0  0  0  0
   -7.8581    4.5750   -0.0000 N   0  0  0  0  0  0  0  0  0  0  0  0
   -9.1500    2.3349   -0.0000 C   0  0  0  0  0  0  0  0  0  0  0  0
   -2.6668   -4.3854   -0.0000 C   0  0  0  0  0  0  0  0  0  0  0  0
   -5.2624   -4.3972   -0.0000 C   0  0  0  0  0  0  0  0  0  0  0  0
  -10.4538   -1.3986   -0.0000 C   0  0  0  0  0  0  0  0  0  0  0  0
   -9.1619    5.3336   -0.0000 C   0  0  0  0  0  0  0  0  0  0  0  0
  -10.4538    4.5987   -0.0000 N   0  0  0  0  0  0  0  0  0  0  0  0
   -9.1619    6.8388   -0.0000 C   0  0  0  0  0  0  0  0  0  0  0  0
  -11.7575    5.3573   -0.0000 C   0  0  0  0  0  0  0  0  0  0  0  0
   -7.8818    7.5974   -0.0000 C   0  0  0  0  0  0  0  0  0  0  0  0
  -10.4656    7.5974   -0.0000 C   0  0  0  0  0  0  0  0  0  0  0  0
  -11.7694    6.8744   -0.0000 N   0  0  0  0  0  0  0  0  0  0  0  0
   -6.5899    8.3559   -0.0000 N   0  0  0  0  0  0  0  0  0  0  0  0
  -10.4775    9.1026   -0.0000 N   0  0  0  0  0  0  0  0  0  0  0  0
  1  2  1  0  0  0  0
  2  3  2  0  0  0  0
  2  4  1  0  0  0  0
  3  5  1  0  0  0  0
  4  6  2  0  0  0  0
  5  7  2  0  0  0  0
  5  8  1  0  0  0  0
  7  9  1  0  0  0  0
  7 10  1  0  0  0  0
  8 11  2  0  0  0  0
  9 12  1  0  0  0  0
  9 13  2  0  0  0  0
 10 14  2  0  0  0  0
 10 15  1  0  0  0  0
 12 16  2  0  0  0  0
 12 17  1  0  0  0  0
 13 18  1  0  0  0  0
 15 19  1  0  0  0  0
 16 20  1  0  0  0  0
 17 21  2  0  0  0  0
 18 22  1  6  0  0  0
 18 23  1  0  0  0  0
 19 24  1  0  0  0  0
 19 25  1  0  0  0  0
 20 26  2  0  0  0  0
 22 27  1  0  0  0  0
 27 28  2  0  0  0  0
 27 29  1  0  0  0  0
 28 30  1  0  0  0  0
 29 31  1  0  0  0  0
 29 32  2  0  0  0  0
 30 33  2  0  0  0  0
 31 34  3  0  0  0  0
 32 35  1  0  0  0  0
  6  8  1  0  0  0  0
 11 13  1  0  0  0  0
 21 26  1  0  0  0  0
 32 33  1  0  0  0  0
M  END
>  <MolRegNo>
2368548

>  <m>
=

>  <Value>
13000

>  <Unit>
nM

>  <Type>
IC50

>  <pValue>
4.89

>  <Ligand Efficiency>
0

>  <Binding Efficiency>
0

>  <Surface Efficiency>
0

>  <Assay Index>
1341665

>  <Assay Category>


>  <Assay Organism>
Homo sapiens

>  <Target ID>
17045

>  <Target Name>
Cytochrome P450 3A4

>  <Target Organism>
Homo sapiens

>  <Target Description>
Target is a single protein chain

>  <Sequence Accession>
P08684

>  <Reference>
J Med Chem 59 (15), 7252-7267 (2016)

>  <Pubmed ID>
27411843

>  <DOI>
10.1021/acs.jmedchem.6b00827

$$$$
2345339
Actelion Java MolfileCreator 1.0

 30 33  0  0  0  0  0  0  0  0999 V2000
    0.0000   -0.0000   -0.0000 S   0  0  0  0  0  0  0  0  0  0  0  0
    0.7787   -1.2624   -0.0000 C   0  0  0  0  0  0  0  0  0  0  0  0
   -1.4629   -0.3421   -0.0000 C   0  0  0  0  0  0  0  0  0  0  0  0
   -0.2006   -2.3950   -0.0000 N   0  0  0  0  0  0  0  0  0  0  0  0
    2.2534   -1.3568   -0.0000 N   0  0  0  0  0  0  0  0  0  0  0  0
   -1.5927   -1.8169   -0.0000 C   0  0  0  0  0  0  0  0  0  0  0  0
    3.0911   -0.1062   -0.0000 C   0  0  0  0  0  0  0  0  0  0  0  0
   -2.8787   -2.5955   -0.0000 C   0  0  0  0  0  0  0  0  0  0  0  0
    2.5719    1.3214   -0.0000 N   0  0  0  0  0  0  0  0  0  0  0  0
    4.5776   -0.0472   -0.0000 C   0  0  0  0  0  0  0  0  0  0  0  0
   -4.2119   -1.8759   -0.0000 C   0  0  0  0  0  0  0  0  0  0  0  0
   -2.8433   -4.0821   -0.0000 C   0  0  0  0  0  0  0  0  0  0  0  0
    3.7517    2.2416   -0.0000 N   0  0  0  0  0  0  0  0  0  0  0  0
    1.1208    1.7461   -0.0000 C   0  0  0  0  0  0  0  0  0  0  0  0
    4.9905    1.4040   -0.0000 C   0  0  0  0  0  0  0  0  0  0  0  0
   -5.4978   -2.6545   -0.0000 C   0  0  0  0  0  0  0  0  0  0  0  0
   -4.1293   -4.8607   -0.0000 C   0  0  0  0  0  0  0  0  0  0  0  0
    0.6843    3.1854   -0.0000 C   0  0  0  0  0  0  0  0  0  0  0  0
    6.3827    1.9349   -0.0000 C   0  0  0  0  0  0  0  0  0  0  0  0
   -6.8192   -1.9349   -0.0000 F   0  0  0  0  0  0  0  0  0  0  0  0
   -5.4624   -4.1411   -0.0000 C   0  0  0  0  0  0  0  0  0  0  0  0
    5.9815    3.3978   -0.0000 C   0  0  0  0  0  0  0  0  0  0  0  0
    7.4327    3.0085   -0.0000 C   0  0  0  0  0  0  0  0  0  0  0  0
    7.5271    0.9792   -0.0000 C   0  0  0  0  0  0  0  0  0  0  0  0
   -6.7484   -4.9197   -0.0000 N   0  0  0  0  0  0  0  0  0  0  0  0
   -6.8664   -6.4063   -0.0000 C   0  0  0  0  0  0  0  0  0  0  0  0
   -8.1406   -4.3416   -0.0000 C   0  0  0  0  0  0  0  0  0  0  0  0
   -8.3293   -6.7484   -0.0000 N   0  0  0  0  0  0  0  0  0  0  0  0
   -9.1198   -5.4742   -0.0000 C   0  0  0  0  0  0  0  0  0  0  0  0
  -10.6181   -5.3445   -0.0000 C   0  0  0  0  0  0  0  0  0  0  0  0
  1  2  1  0  0  0  0
  1  3  1  0  0  0  0
  2  4  2  0  0  0  0
  2  5  1  0  0  0  0
  3  6  2  0  0  0  0
  5  7  1  0  0  0  0
  6  8  1  0  0  0  0
  7  9  1  0  0  0  0
  7 10  2  0  0  0  0
  8 11  2  0  0  0  0
  8 12  1  0  0  0  0
  9 13  1  0  0  0  0
  9 14  1  0  0  0  0
 10 15  1  0  0  0  0
 11 16  1  0  0  0  0
 12 17  2  0  0  0  0
 14 18  1  0  0  0  0
 15 19  1  0  0  0  0
 16 20  1  0  0  0  0
 16 21  2  0  0  0  0
 19 22  1  0  0  0  0
 19 23  1  0  0  0  0
 19 24  1  0  0  0  0
 21 25  1  0  0  0  0
 25 26  1  0  0  0  0
 25 27  1  0  0  0  0
 26 28  2  0  0  0  0
 27 29  2  0  0  0  0
 29 30  1  0  0  0  0
  4  6  1  0  0  0  0
 13 15  2  0  0  0  0
 17 21  1  0  0  0  0
 28 29  1  0  0  0  0
M  END
>  <MolRegNo>
2345339

>  <m>
=

>  <Value>
16000

>  <Unit>
nM

>  <Type>
IC50

>  <pValue>
4.8

>  <Ligand Efficiency>
0

>  <Binding Efficiency>
0

>  <Surface Efficiency>
0

>  <Assay Index>
1341720

>  <Assay Category>


>  <Assay Organism>
Homo sapiens

>  <Target ID>
17045

>  <Target Name>
Cytochrome P450 3A4

>  <Target Organism>
Homo sapiens

>  <Target Description>
Target is a single protein chain

>  <Sequence Accession>
P08684

>  <Reference>
Bioorg Med Chem Lett 26 (16), 3928-3937 (2016)

>  <Pubmed ID>
27426299

>  <DOI>
10.1016/j.bmcl.2016.07.011

$$$$
2369747
Actelion Java MolfileCreator 1.0

 30 32  0  0  0  0  0  0  0  0999 V2000
    0.0000   -0.0000   -0.0000 Cl  0  0  0  0  0  0  0  0  0  0  0  0
   -1.3108    0.7440   -0.0000 C   0  0  0  0  0  0  0  0  0  0  0  0
   -2.6098   -0.0118   -0.0000 C   0  0  0  0  0  0  0  0  0  0  0  0
   -1.3344    2.2437   -0.0000 C   0  0  0  0  0  0  0  0  0  0  0  0
   -2.6098   -1.4879   -0.0000 O   0  0  0  0  0  0  0  0  0  0  0  0
   -3.9205    0.7440   -0.0000 N   0  0  0  0  0  0  0  0  0  0  0  0
   -2.6452    2.9758   -0.0000 C   0  0  0  0  0  0  0  0  0  0  0  0
   -3.9087   -2.2319   -0.0000 C   0  0  0  0  0  0  0  0  0  0  0  0
   -3.9442    2.2437   -0.0000 C   0  0  0  0  0  0  0  0  0  0  0  0
   -2.6688    4.4756   -0.0000 O   0  0  0  0  0  0  0  0  0  0  0  0
   -5.2195   -1.4879   -0.0000 C   0  0  0  0  0  0  0  0  0  0  0  0
   -3.9796    5.2195   -0.0000 C   0  0  0  0  0  0  0  0  0  0  0  0
   -6.5185   -2.2319   -0.0000 C   0  0  0  0  0  0  0  0  0  0  0  0
   -5.2431    0.0118   -0.0000 C   0  0  0  0  0  0  0  0  0  0  0  0
   -5.2904    4.4874   -0.0000 N   0  0  0  0  0  0  0  0  0  0  0  0
   -4.0032    6.7311   -0.0000 C   0  0  0  0  0  0  0  0  0  0  0  0
   -6.6012    5.2431   -0.0000 C   0  0  0  0  0  0  0  0  0  0  0  0
   -5.3022    7.4868   -0.0000 C   0  0  0  0  0  0  0  0  0  0  0  0
   -2.7279    7.4868   -0.0000 C   0  0  0  0  0  0  0  0  0  0  0  0
   -6.6130    6.7547   -0.0000 C   0  0  0  0  0  0  0  0  0  0  0  0
   -5.3140    8.9747   -0.0000 C   0  0  0  0  0  0  0  0  0  0  0  0
   -2.7397    8.9866   -0.0000 C   0  0  0  0  0  0  0  0  0  0  0  0
   -4.0504    9.7305   -0.0000 C   0  0  0  0  0  0  0  0  0  0  0  0
   -4.0741   11.2302   -0.0000 C   0  0  0  0  0  0  0  0  0  0  0  0
   -5.3848   11.9860   -0.0000 O   0  0  0  0  0  0  0  0  0  0  0  0
   -2.7987   11.9978   -0.0000 N   0  0  0  0  0  0  0  0  0  0  0  0
   -2.8223   13.5094   -0.0000 S   0  0  0  0  0  0  0  0  0  0  0  0
   -4.3220   13.5330   -0.0000 O   0  0  0  0  0  0  0  0  0  0  0  0
   -3.5781   14.8201   -0.0000 O   0  0  0  0  0  0  0  0  0  0  0  0
   -1.5470   14.2651   -0.0000 C   0  0  0  0  0  0  0  0  0  0  0  0
  1  2  1  0  0  0  0
  2  3  2  0  0  0  0
  2  4  1  0  0  0  0
  3  5  1  0  0  0  0
  3  6  1  0  0  0  0
  4  7  2  0  0  0  0
  5  8  1  0  0  0  0
  6  9  2  0  0  0  0
  7 10  1  0  0  0  0
  8 11  1  0  0  0  0
 10 12  1  0  0  0  0
 11 13  1  0  0  0  0
 11 14  1  0  0  0  0
 12 15  2  0  0  0  0
 12 16  1  0  0  0  0
 15 17  1  0  0  0  0
 16 18  1  0  0  0  0
 16 19  2  0  0  0  0
 17 20  2  0  0  0  0
 18 21  2  0  0  0  0
 19 22  1  0  0  0  0
 21 23  1  0  0  0  0
 23 24  1  0  0  0  0
 24 25  2  0  0  0  0
 24 26  1  0  0  0  0
 26 27  1  0  0  0  0
 27 28  2  0  0  0  0
 27 29  2  0  0  0  0
 27 30  1  0  0  0  0
  7  9  1  0  0  0  0
 18 20  1  0  0  0  0
 22 23  2  0  0  0  0
M  END
>  <MolRegNo>
2369747

>  <m>
=

>  <Value>
30700

>  <Unit>
nM

>  <Type>
IC50

>  <pValue>
4.51

>  <Ligand Efficiency>
0

>  <Binding Efficiency>
0

>  <Surface Efficiency>
0

>  <Assay Index>
1341840

>  <Assay Category>


>  <Assay Organism>
Homo sapiens

>  <Target ID>
17045

>  <Target Name>
Cytochrome P450 3A4

>  <Target Organism>
Homo sapiens

>  <Target Description>
Target is a single protein chain

>  <Sequence Accession>
P08684

>  <Reference>
J Med Chem 59 (17), 7818-7839 (2016)

>  <Pubmed ID>
27441383

>  <DOI>
10.1021/acs.jmedchem.6b00425

$$$$
2377772
Actelion Java MolfileCreator 1.0

 27 28  0  0  0  0  0  0  0  0999 V2000
    0.0000   -0.0000   -0.0000 Cl  0  0  0  0  0  0  0  0  0  0  0  0
   -1.3005    0.7566   -0.0000 C   0  0  0  0  0  0  0  0  0  0  0  0
   -2.6128    0.0118   -0.0000 C   0  0  0  0  0  0  0  0  0  0  0  0
   -1.3123    2.2581   -0.0000 C   0  0  0  0  0  0  0  0  0  0  0  0
   -2.6246   -1.4660   -0.0000 O   0  0  0  0  0  0  0  0  0  0  0  0
   -3.9133    0.7685   -0.0000 N   0  0  0  0  0  0  0  0  0  0  0  0
   -2.6128    3.0148   -0.0000 C   0  0  0  0  0  0  0  0  0  0  0  0
   -3.9251   -2.1990   -0.0000 C   0  0  0  0  0  0  0  0  0  0  0  0
   -3.9251    2.2699   -0.0000 C   0  0  0  0  0  0  0  0  0  0  0  0
   -2.6246    4.5162   -0.0000 C   0  0  0  0  0  0  0  0  0  0  0  0
   -5.2256   -1.4424   -0.0000 C   0  0  0  0  0  0  0  0  0  0  0  0
   -3.9251    5.2729   -0.0000 C   0  0  0  0  0  0  0  0  0  0  0  0
   -1.3359    5.2729   -0.0000 C   0  0  0  0  0  0  0  0  0  0  0  0
   -6.5261   -2.1754   -0.0000 C   0  0  0  0  0  0  0  0  0  0  0  0
   -5.2374    0.0591   -0.0000 C   0  0  0  0  0  0  0  0  0  0  0  0
   -5.2256    4.5399   -0.0000 F   0  0  0  0  0  0  0  0  0  0  0  0
   -3.9369    6.7861   -0.0000 C   0  0  0  0  0  0  0  0  0  0  0  0
   -1.3478    6.7861   -0.0000 C   0  0  0  0  0  0  0  0  0  0  0  0
   -2.6601    7.5428   -0.0000 C   0  0  0  0  0  0  0  0  0  0  0  0
   -0.0709    7.5428   -0.0000 F   0  0  0  0  0  0  0  0  0  0  0  0
   -2.6719    9.0443   -0.0000 C   0  0  0  0  0  0  0  0  0  0  0  0
   -3.9724    9.8009   -0.0000 O   0  0  0  0  0  0  0  0  0  0  0  0
   -1.3951    9.8009   -0.0000 N   0  0  0  0  0  0  0  0  0  0  0  0
   -1.4187   11.3024   -0.0000 S   0  0  0  0  0  0  0  0  0  0  0  0
   -2.9202   11.3260   -0.0000 O   0  0  0  0  0  0  0  0  0  0  0  0
   -2.1754   12.6147   -0.0000 O   0  0  0  0  0  0  0  0  0  0  0  0
   -0.1419   12.0590   -0.0000 C   0  0  0  0  0  0  0  0  0  0  0  0
  1  2  1  0  0  0  0
  2  3  2  0  0  0  0
  2  4  1  0  0  0  0
  3  5  1  0  0  0  0
  3  6  1  0  0  0  0
  4  7  2  0  0  0  0
  5  8  1  0  0  0  0
  6  9  2  0  0  0  0
  7 10  1  0  0  0  0
  8 11  1  0  0  0  0
 10 12  2  0  0  0  0
 10 13  1  0  0  0  0
 11 14  1  0  0  0  0
 11 15  1  0  0  0  0
 12 16  1  0  0  0  0
 12 17  1  0  0  0  0
 13 18  2  0  0  0  0
 17 19  2  0  0  0  0
 18 20  1  0  0  0  0
 19 21  1  0  0  0  0
 21 22  2  0  0  0  0
 21 23  1  0  0  0  0
 23 24  1  0  0  0  0
 24 25  2  0  0  0  0
 24 26  2  0  0  0  0
 24 27  1  0  0  0  0
  7  9  1  0  0  0  0
 18 19  1  0  0  0  0
M  END
>  <MolRegNo>
2377772

>  <m>
=

>  <Value>
48600

>  <Unit>
nM

>  <Type>
IC50

>  <pValue>
4.31

>  <Ligand Efficiency>
0

>  <Binding Efficiency>
0

>  <Surface Efficiency>
0

>  <Assay Index>
1341843

>  <Assay Category>


>  <Assay Organism>
Homo sapiens

>  <Target ID>
17045

>  <Target Name>
Cytochrome P450 3A4

>  <Target Organism>
Homo sapiens

>  <Target Description>
Target is a single protein chain

>  <Sequence Accession>
P08684

>  <Reference>
J Med Chem 59 (17), 7818-7839 (2016)

>  <Pubmed ID>
27441383

>  <DOI>
10.1021/acs.jmedchem.6b00425

$$$$
2350929
Actelion Java MolfileCreator 1.0

 29 31  0  0  0  0  0  0  0  0999 V2000
    0.0000   -0.0000   -0.0000 F   0  0  0  0  0  0  0  0  0  0  0  0
   -0.0119    1.5105   -0.0000 C   0  0  0  0  0  0  0  0  0  0  0  0
   -1.3202    2.2716   -0.0000 C   0  0  0  0  0  0  0  0  0  0  0  0
    1.2845    2.2716   -0.0000 C   0  0  0  0  0  0  0  0  0  0  0  0
   -2.6284    1.5343   -0.0000 C   0  0  0  0  0  0  0  0  0  0  0  0
   -1.3321    3.7940   -0.0000 C   0  0  0  0  0  0  0  0  0  0  0  0
    1.2726    3.7940   -0.0000 C   0  0  0  0  0  0  0  0  0  0  0  0
   -3.9367    2.2954   -0.0000 C   0  0  0  0  0  0  0  0  0  0  0  0
   -2.6403    0.0476   -0.0000 C   0  0  0  0  0  0  0  0  0  0  0  0
   -0.0476    4.5552   -0.0000 C   0  0  0  0  0  0  0  0  0  0  0  0
    2.5571    4.5671   -0.0000 C   0  0  0  0  0  0  0  0  0  0  0  0
   -5.2450    1.5580   -0.0000 C   0  0  0  0  0  0  0  0  0  0  0  0
   -3.9486   -0.6898   -0.0000 C   0  0  0  0  0  0  0  0  0  0  0  0
    2.5452    6.0775   -0.0000 O   0  0  0  0  0  0  0  0  0  0  0  0
    3.8416    3.8297   -0.0000 N   0  0  0  0  0  0  0  0  0  0  0  0
   -5.2569    0.0714   -0.0000 C   0  0  0  0  0  0  0  0  0  0  0  0
    5.1261    4.5909   -0.0000 C   0  0  0  0  0  0  0  0  0  0  0  0
    6.4106    3.8535   -0.0000 C   0  0  0  0  0  0  0  0  0  0  0  0
    5.1142    6.1013   -0.0000 C   0  0  0  0  0  0  0  0  0  0  0  0
    6.3987    2.3668   -0.0000 O   0  0  0  0  0  0  0  0  0  0  0  0
    7.6950    4.6265   -0.0000 O   0  0  0  0  0  0  0  0  0  0  0  0
    6.3987    6.8744   -0.0000 N   0  0  0  0  0  0  0  0  0  0  0  0
    8.9795    3.8891   -0.0000 C   0  0  0  0  0  0  0  0  0  0  0  0
    6.5295    8.3730   -0.0000 C   0  0  0  0  0  0  0  0  0  0  0  0
    7.7545    6.2797   -0.0000 C   0  0  0  0  0  0  0  0  0  0  0  0
   10.2640    4.6622   -0.0000 C   0  0  0  0  0  0  0  0  0  0  0  0
    8.9676    2.4025   -0.0000 C   0  0  0  0  0  0  0  0  0  0  0  0
    7.9805    8.7060   -0.0000 N   0  0  0  0  0  0  0  0  0  0  0  0
    8.7417    7.4096   -0.0000 C   0  0  0  0  0  0  0  0  0  0  0  0
  1  2  1  0  0  0  0
  2  3  2  0  0  0  0
  2  4  1  0  0  0  0
  3  5  1  0  0  0  0
  3  6  1  0  0  0  0
  4  7  2  0  0  0  0
  5  8  2  0  0  0  0
  5  9  1  0  0  0  0
  6 10  2  0  0  0  0
  7 11  1  0  0  0  0
  8 12  1  0  0  0  0
  9 13  2  0  0  0  0
 11 14  2  0  0  0  0
 11 15  1  0  0  0  0
 12 16  2  0  0  0  0
 17 15  1  1  0  0  0
 17 18  1  0  0  0  0
 17 19  1  0  0  0  0
 18 20  2  0  0  0  0
 18 21  1  0  0  0  0
 19 22  1  0  0  0  0
 21 23  1  0  0  0  0
 22 24  1  0  0  0  0
 22 25  1  0  0  0  0
 23 26  1  0  0  0  0
 23 27  1  0  0  0  0
 24 28  2  0  0  0  0
 25 29  2  0  0  0  0
  7 10  1  0  0  0  0
 13 16  1  0  0  0  0
 28 29  1  0  0  0  0
M  END
>  <MolRegNo>
2350929

>  <m>
=

>  <Value>
4050

>  <Unit>
nM

>  <Type>
IC50

>  <pValue>
5.39

>  <Ligand Efficiency>
0

>  <Binding Efficiency>
0

>  <Surface Efficiency>
0

>  <Assay Index>
1347375

>  <Assay Category>


>  <Assay Organism>
Homo sapiens

>  <Target ID>
17045

>  <Target Name>
Cytochrome P450 3A4

>  <Target Organism>
Homo sapiens

>  <Target Description>
Target is a single protein chain

>  <Sequence Accession>
P08684

>  <Reference>
Bioorg Med Chem Lett 29 (17), 2448-2451 (2019)

>  <Pubmed ID>
31358467

>  <DOI>
10.1016/j.bmcl.2019.07.037

$$$$
2386087
Actelion Java MolfileCreator 1.0

 29 31  0  0  0  0  0  0  0  0999 V2000
    0.0000   -0.0000   -0.0000 F   0  0  0  0  0  0  0  0  0  0  0  0
   -1.3087    0.7614   -0.0000 C   0  0  0  0  0  0  0  0  0  0  0  0
   -1.3206    2.2842   -0.0000 C   0  0  0  0  0  0  0  0  0  0  0  0
   -2.6292    0.0238   -0.0000 C   0  0  0  0  0  0  0  0  0  0  0  0
   -0.0357    3.0456   -0.0000 C   0  0  0  0  0  0  0  0  0  0  0  0
   -2.6292    3.0456   -0.0000 C   0  0  0  0  0  0  0  0  0  0  0  0
   -3.9379    0.7852   -0.0000 C   0  0  0  0  0  0  0  0  0  0  0  0
   -0.0476    4.5566   -0.0000 O   0  0  0  0  0  0  0  0  0  0  0  0
    1.2492    2.3080   -0.0000 N   0  0  0  0  0  0  0  0  0  0  0  0
   -3.9379    2.3080   -0.0000 C   0  0  0  0  0  0  0  0  0  0  0  0
   -5.2466    0.0476   -0.0000 C   0  0  0  0  0  0  0  0  0  0  0  0
    2.5341    3.0694   -0.0000 C   0  0  0  0  0  0  0  0  0  0  0  0
   -6.5553    0.8090   -0.0000 C   0  0  0  0  0  0  0  0  0  0  0  0
   -5.2585   -1.4395   -0.0000 C   0  0  0  0  0  0  0  0  0  0  0  0
    3.8189    2.3318   -0.0000 C   0  0  0  0  0  0  0  0  0  0  0  0
    2.5222    4.5804   -0.0000 C   0  0  0  0  0  0  0  0  0  0  0  0
   -7.8639    0.0714   -0.0000 C   0  0  0  0  0  0  0  0  0  0  0  0
   -6.5672   -2.1772   -0.0000 C   0  0  0  0  0  0  0  0  0  0  0  0
    3.8071    0.8447   -0.0000 O   0  0  0  0  0  0  0  0  0  0  0  0
    5.1038    3.0932   -0.0000 O   0  0  0  0  0  0  0  0  0  0  0  0
    3.8071    5.3418   -0.0000 N   0  0  0  0  0  0  0  0  0  0  0  0
   -7.8758   -1.4157   -0.0000 C   0  0  0  0  0  0  0  0  0  0  0  0
    6.3887    2.3556   -0.0000 C   0  0  0  0  0  0  0  0  0  0  0  0
    3.9379    6.8408   -0.0000 C   0  0  0  0  0  0  0  0  0  0  0  0
    5.1633    4.7469   -0.0000 C   0  0  0  0  0  0  0  0  0  0  0  0
    7.6736    3.1170   -0.0000 C   0  0  0  0  0  0  0  0  0  0  0  0
    6.3768    0.8685   -0.0000 C   0  0  0  0  0  0  0  0  0  0  0  0
    5.3894    7.1739   -0.0000 N   0  0  0  0  0  0  0  0  0  0  0  0
    6.1508    5.8771   -0.0000 C   0  0  0  0  0  0  0  0  0  0  0  0
  1  2  1  0  0  0  0
  2  3  2  0  0  0  0
  2  4  1  0  0  0  0
  3  5  1  0  0  0  0
  3  6  1  0  0  0  0
  4  7  2  0  0  0  0
  5  8  2  0  0  0  0
  5  9  1  0  0  0  0
  6 10  2  0  0  0  0
  7 11  1  0  0  0  0
 12  9  1  1  0  0  0
 11 13  2  0  0  0  0
 11 14  1  0  0  0  0
 12 15  1  0  0  0  0
 12 16  1  0  0  0  0
 13 17  1  0  0  0  0
 14 18  2  0  0  0  0
 15 19  2  0  0  0  0
 15 20  1  0  0  0  0
 16 21  1  0  0  0  0
 17 22  2  0  0  0  0
 20 23  1  0  0  0  0
 21 24  1  0  0  0  0
 21 25  1  0  0  0  0
 23 26  1  0  0  0  0
 23 27  1  0  0  0  0
 24 28  2  0  0  0  0
 25 29  2  0  0  0  0
  7 10  1  0  0  0  0
 18 22  1  0  0  0  0
 28 29  1  0  0  0  0
M  END
>  <MolRegNo>
2386087

>  <m>
=

>  <Value>
42.9

>  <Unit>
nM

>  <Type>
IC50

>  <pValue>
7.37

>  <Ligand Efficiency>
0

>  <Binding Efficiency>
0

>  <Surface Efficiency>
0

>  <Assay Index>
1347375

>  <Assay Category>


>  <Assay Organism>
Homo sapiens

>  <Target ID>
17045

>  <Target Name>
Cytochrome P450 3A4

>  <Target Organism>
Homo sapiens

>  <Target Description>
Target is a single protein chain

>  <Sequence Accession>
P08684

>  <Reference>
Bioorg Med Chem Lett 29 (17), 2448-2451 (2019)

>  <Pubmed ID>
31358467

>  <DOI>
10.1016/j.bmcl.2019.07.037

$$$$
2394443
Actelion Java MolfileCreator 1.0

 34 38  0  0  0  0  0  0  0  0999 V2000
    0.0000   -0.0000   -0.0000 Cl  0  0  0  0  0  0  0  0  0  0  0  0
   -8.4397    5.4052   -0.0000 N   0  0  0  0  0  0  0  0  0  0  0  0
   -9.7673    6.1164   -0.0000 C   0  0  0  0  0  0  0  0  0  0  0  0
   -7.1833    6.1994   -0.0000 C   0  0  0  0  0  0  0  0  0  0  0  0
  -11.0475    5.3341   -0.0000 C   0  0  0  0  0  0  0  0  0  0  0  0
   -9.8266    7.6337   -0.0000 C   0  0  0  0  0  0  0  0  0  0  0  0
   -5.7490    5.7845   -0.0000 N   0  0  0  0  0  0  0  0  0  0  0  0
   -7.2307    7.7167   -0.0000 C   0  0  0  0  0  0  0  0  0  0  0  0
  -12.3870    6.0572   -0.0000 C   0  0  0  0  0  0  0  0  0  0  0  0
  -11.0120    3.8524   -0.0000 C   0  0  0  0  0  0  0  0  0  0  0  0
   -8.5583    8.4279   -0.0000 C   0  0  0  0  0  0  0  0  0  0  0  0
   -5.2511    4.3858   -0.0000 C   0  0  0  0  0  0  0  0  0  0  0  0
   -4.9074    7.0410   -0.0000 C   0  0  0  0  0  0  0  0  0  0  0  0
   -5.8320    8.2382   -0.0000 N   0  0  0  0  0  0  0  0  0  0  0  0
  -13.6790    5.2748   -0.0000 C   0  0  0  0  0  0  0  0  0  0  0  0
  -12.2921    3.0701   -0.0000 C   0  0  0  0  0  0  0  0  0  0  0  0
   -6.2350    3.2479   -0.0000 C   0  0  0  0  0  0  0  0  0  0  0  0
   -3.7931    4.1250   -0.0000 C   0  0  0  0  0  0  0  0  0  0  0  0
   -3.4138    7.0884   -0.0000 C   0  0  0  0  0  0  0  0  0  0  0  0
  -13.6434    3.7813   -0.0000 C   0  0  0  0  0  0  0  0  0  0  0  0
   -5.7371    1.8492   -0.0000 C   0  0  0  0  0  0  0  0  0  0  0  0
   -3.2953    2.7263   -0.0000 C   0  0  0  0  0  0  0  0  0  0  0  0
   -2.7145    8.4160   -0.0000 C   0  0  0  0  0  0  0  0  0  0  0  0
   -2.6433    5.8201   -0.0000 C   0  0  0  0  0  0  0  0  0  0  0  0
   -4.2673    1.5884   -0.0000 C   0  0  0  0  0  0  0  0  0  0  0  0
   -1.2209    8.4753   -0.0000 N   0  0  0  0  0  0  0  0  0  0  0  0
   -3.5205    9.7081   -0.0000 N   0  0  0  0  0  0  0  0  0  0  0  0
   -1.1498    5.8794   -0.0000 C   0  0  0  0  0  0  0  0  0  0  0  0
   -3.7813    0.1778   -0.0000 C   0  0  0  0  0  0  0  0  0  0  0  0
   -0.4386    7.2070   -0.0000 C   0  0  0  0  0  0  0  0  0  0  0  0
   -2.3114   -0.0711   -0.0000 N   0  0  0  0  0  0  0  0  0  0  0  0
   -5.2985    0.2015   -0.0000 C   0  0  0  0  0  0  0  0  0  0  0  0
   -3.8050   -1.3157   -0.0000 C   0  0  0  0  0  0  0  0  0  0  0  0
   -5.3222   -1.2920   -0.0000 C   0  0  0  0  0  0  0  0  0  0  0  0
  2  3  2  0  0  0  0
  2  4  1  0  0  0  0
  3  5  1  0  0  0  0
  3  6  1  0  0  0  0
  4  7  1  0  0  0  0
  4  8  2  0  0  0  0
  5  9  2  0  0  0  0
  5 10  1  0  0  0  0
  6 11  2  0  0  0  0
  7 12  1  0  0  0  0
  7 13  1  0  0  0  0
  8 14  1  0  0  0  0
  9 15  1  0  0  0  0
 10 16  2  0  0  0  0
 12 17  2  0  0  0  0
 12 18  1  0  0  0  0
 13 19  1  0  0  0  0
 15 20  2  0  0  0  0
 17 21  1  0  0  0  0
 18 22  2  0  0  0  0
 19 23  2  0  0  0  0
 19 24  1  0  0  0  0
 21 25  2  0  0  0  0
 23 26  1  0  0  0  0
 23 27  1  0  0  0  0
 24 28  2  0  0  0  0
 25 29  1  0  0  0  0
 26 30  2  0  0  0  0
 29 31  1  0  0  0  0
 29 32  1  0  0  0  0
 29 33  1  0  0  0  0
 32 34  1  0  0  0  0
  8 11  1  0  0  0  0
 13 14  2  0  0  0  0
 16 20  1  0  0  0  0
 22 25  1  0  0  0  0
 28 30  1  0  0  0  0
 33 34  1  0  0  0  0
M  END
>  <MolRegNo>
2394443

>  <m>
=

>  <Value>
20000

>  <Unit>
nM

>  <Type>
IC50

>  <pValue>
4.7

>  <Ligand Efficiency>
0

>  <Binding Efficiency>
0

>  <Surface Efficiency>
0

>  <Assay Index>
1349036

>  <Assay Category>


>  <Assay Organism>
Homo sapiens

>  <Target ID>
17045

>  <Target Name>
Cytochrome P450 3A4

>  <Target Organism>
Homo sapiens

>  <Target Description>
Target is a single protein chain

>  <Sequence Accession>
P08684

>  <Reference>
J Med Chem 59 (13), 6455-6469 (2016)

>  <Pubmed ID>
27305487

>  <DOI>
10.1021/acs.jmedchem.6b00619

$$$$
2414537
Actelion Java MolfileCreator 1.0

 34 38  0  0  0  0  0  0  0  0999 V2000
    0.0000   -0.0000   -0.0000 Cl  0  0  0  0  0  0  0  0  0  0  0  0
   -8.7242    5.7845   -0.0000 N   0  0  0  0  0  0  0  0  0  0  0  0
  -10.0518    6.4958   -0.0000 C   0  0  0  0  0  0  0  0  0  0  0  0
   -7.4677    6.5787   -0.0000 C   0  0  0  0  0  0  0  0  0  0  0  0
  -11.3320    5.7134   -0.0000 C   0  0  0  0  0  0  0  0  0  0  0  0
  -10.1111    8.0130   -0.0000 C   0  0  0  0  0  0  0  0  0  0  0  0
   -6.0335    6.1639   -0.0000 N   0  0  0  0  0  0  0  0  0  0  0  0
   -7.5152    8.0960   -0.0000 C   0  0  0  0  0  0  0  0  0  0  0  0
  -12.6715    6.4365   -0.0000 C   0  0  0  0  0  0  0  0  0  0  0  0
  -11.2964    4.2317   -0.0000 C   0  0  0  0  0  0  0  0  0  0  0  0
   -8.8428    8.8072   -0.0000 C   0  0  0  0  0  0  0  0  0  0  0  0
   -5.5356    4.7651   -0.0000 C   0  0  0  0  0  0  0  0  0  0  0  0
   -5.1919    7.4203   -0.0000 C   0  0  0  0  0  0  0  0  0  0  0  0
   -6.1164    8.6175   -0.0000 N   0  0  0  0  0  0  0  0  0  0  0  0
  -13.9635    5.6541   -0.0000 N   0  0  0  0  0  0  0  0  0  0  0  0
  -12.5766    3.4494   -0.0000 C   0  0  0  0  0  0  0  0  0  0  0  0
   -6.5195    3.6272   -0.0000 C   0  0  0  0  0  0  0  0  0  0  0  0
   -4.0776    4.5044   -0.0000 C   0  0  0  0  0  0  0  0  0  0  0  0
   -3.6983    7.4677   -0.0000 C   0  0  0  0  0  0  0  0  0  0  0  0
  -13.9279    4.1606   -0.0000 C   0  0  0  0  0  0  0  0  0  0  0  0
   -6.0216    2.2285   -0.0000 C   0  0  0  0  0  0  0  0  0  0  0  0
   -3.5798    3.1056   -0.0000 C   0  0  0  0  0  0  0  0  0  0  0  0
   -2.9990    8.7953   -0.0000 C   0  0  0  0  0  0  0  0  0  0  0  0
   -2.9278    6.1994   -0.0000 C   0  0  0  0  0  0  0  0  0  0  0  0
   -4.5518    1.9677   -0.0000 C   0  0  0  0  0  0  0  0  0  0  0  0
   -1.5054    8.8546   -0.0000 N   0  0  0  0  0  0  0  0  0  0  0  0
   -3.8050   10.0874   -0.0000 N   0  0  0  0  0  0  0  0  0  0  0  0
   -1.4343    6.2587   -0.0000 C   0  0  0  0  0  0  0  0  0  0  0  0
   -4.0658    0.5571   -0.0000 C   0  0  0  0  0  0  0  0  0  0  0  0
   -0.7231    7.5863   -0.0000 C   0  0  0  0  0  0  0  0  0  0  0  0
   -2.5959    0.3082   -0.0000 N   0  0  0  0  0  0  0  0  0  0  0  0
   -5.5830    0.5808   -0.0000 C   0  0  0  0  0  0  0  0  0  0  0  0
   -4.0895   -0.9364   -0.0000 C   0  0  0  0  0  0  0  0  0  0  0  0
   -5.6067   -0.9127   -0.0000 C   0  0  0  0  0  0  0  0  0  0  0  0
  2  3  2  0  0  0  0
  2  4  1  0  0  0  0
  3  5  1  0  0  0  0
  3  6  1  0  0  0  0
  4  7  1  0  0  0  0
  4  8  2  0  0  0  0
  5  9  2  0  0  0  0
  5 10  1  0  0  0  0
  6 11  2  0  0  0  0
  7 12  1  0  0  0  0
  7 13  1  0  0  0  0
  8 14  1  0  0  0  0
  9 15  1  0  0  0  0
 10 16  2  0  0  0  0
 12 17  2  0  0  0  0
 12 18  1  0  0  0  0
 13 19  1  0  0  0  0
 15 20  2  0  0  0  0
 17 21  1  0  0  0  0
 18 22  2  0  0  0  0
 19 23  2  0  0  0  0
 19 24  1  0  0  0  0
 21 25  2  0  0  0  0
 23 26  1  0  0  0  0
 23 27  1  0  0  0  0
 24 28  2  0  0  0  0
 25 29  1  0  0  0  0
 26 30  2  0  0  0  0
 29 31  1  0  0  0  0
 29 32  1  0  0  0  0
 29 33  1  0  0  0  0
 32 34  1  0  0  0  0
  8 11  1  0  0  0  0
 13 14  2  0  0  0  0
 16 20  1  0  0  0  0
 22 25  1  0  0  0  0
 28 30  1  0  0  0  0
 33 34  1  0  0  0  0
M  END
>  <MolRegNo>
2414537

>  <m>
=

>  <Value>
18000

>  <Unit>
nM

>  <Type>
IC50

>  <pValue>
4.75

>  <Ligand Efficiency>
0

>  <Binding Efficiency>
0

>  <Surface Efficiency>
0

>  <Assay Index>
1349036

>  <Assay Category>


>  <Assay Organism>
Homo sapiens

>  <Target ID>
17045

>  <Target Name>
Cytochrome P450 3A4

>  <Target Organism>
Homo sapiens

>  <Target Description>
Target is a single protein chain

>  <Sequence Accession>
P08684

>  <Reference>
J Med Chem 59 (13), 6455-6469 (2016)

>  <Pubmed ID>
27305487

>  <DOI>
10.1021/acs.jmedchem.6b00619

$$$$
535954
Actelion Java MolfileCreator 1.0

 28 32  0  0  0  0  0  0  0  0999 V2000
    0.0000   -0.0000   -0.0000 N   0  0  0  0  0  0  0  0  0  0  0  0
   -1.3128   -0.7451   -0.0000 C   0  0  0  0  0  0  0  0  0  0  0  0
    1.2892   -0.7451   -0.0000 C   0  0  0  0  0  0  0  0  0  0  0  0
   -1.3247   -2.2354   -0.0000 N   0  0  0  0  0  0  0  0  0  0  0  0
   -2.6257    0.0118   -0.0000 C   0  0  0  0  0  0  0  0  0  0  0  0
    2.5784    0.0118   -0.0000 N   0  0  0  0  0  0  0  0  0  0  0  0
    1.2773   -2.2354   -0.0000 C   0  0  0  0  0  0  0  0  0  0  0  0
   -0.0355   -2.9805   -0.0000 C   0  0  0  0  0  0  0  0  0  0  0  0
   -3.9385   -0.7333   -0.0000 C   0  0  0  0  0  0  0  0  0  0  0  0
   -2.6375    1.5257   -0.0000 C   0  0  0  0  0  0  0  0  0  0  0  0
    3.8675   -0.7333   -0.0000 C   0  0  0  0  0  0  0  0  0  0  0  0
    2.5665    1.5257   -0.0000 C   0  0  0  0  0  0  0  0  0  0  0  0
   -0.0473   -4.4707   -0.0000 C   0  0  0  0  0  0  0  0  0  0  0  0
   -5.2513    0.0237   -0.0000 C   0  0  0  0  0  0  0  0  0  0  0  0
   -3.9503    2.2827   -0.0000 C   0  0  0  0  0  0  0  0  0  0  0  0
    5.1567    0.0237   -0.0000 C   0  0  0  0  0  0  0  0  0  0  0  0
    3.8557    2.2827   -0.0000 C   0  0  0  0  0  0  0  0  0  0  0  0
   -1.3601   -5.2158   -0.0000 C   0  0  0  0  0  0  0  0  0  0  0  0
    1.2419   -5.2158   -0.0000 C   0  0  0  0  0  0  0  0  0  0  0  0
   -5.2631    1.5375   -0.0000 N   0  0  0  0  0  0  0  0  0  0  0  0
    5.1449    1.5375   -0.0000 C   0  0  0  0  0  0  0  0  0  0  0  0
    6.4459   -0.7215   -0.0000 C   0  0  0  0  0  0  0  0  0  0  0  0
   -1.3720   -6.7061   -0.0000 N   0  0  0  0  0  0  0  0  0  0  0  0
    1.2300   -6.7061   -0.0000 C   0  0  0  0  0  0  0  0  0  0  0  0
    6.4341    2.2945   -0.0000 C   0  0  0  0  0  0  0  0  0  0  0  0
    7.7351    0.0355   -0.0000 C   0  0  0  0  0  0  0  0  0  0  0  0
   -0.0828   -7.4394   -0.0000 C   0  0  0  0  0  0  0  0  0  0  0  0
    7.7232    1.5494   -0.0000 C   0  0  0  0  0  0  0  0  0  0  0  0
  1  2  2  0  0  0  0
  1  3  1  0  0  0  0
  2  4  1  0  0  0  0
  2  5  1  0  0  0  0
  3  6  1  0  0  0  0
  3  7  2  0  0  0  0
  4  8  2  0  0  0  0
  5  9  2  0  0  0  0
  5 10  1  0  0  0  0
  6 11  1  0  0  0  0
  6 12  1  0  0  0  0
  8 13  1  0  0  0  0
  9 14  1  0  0  0  0
 10 15  2  0  0  0  0
 11 16  1  0  0  0  0
 12 17  1  0  0  0  0
 13 18  2  0  0  0  0
 13 19  1  0  0  0  0
 14 20  2  0  0  0  0
 16 21  2  0  0  0  0
 16 22  1  0  0  0  0
 18 23  1  0  0  0  0
 19 24  2  0  0  0  0
 21 25  1  0  0  0  0
 22 26  2  0  0  0  0
 23 27  2  0  0  0  0
 25 28  2  0  0  0  0
  7  8  1  0  0  0  0
 15 20  1  0  0  0  0
 17 21  1  0  0  0  0
 24 27  1  0  0  0  0
 26 28  1  0  0  0  0
M  END
>  <MolRegNo>
535954

>  <m>
=

>  <Value>
100

>  <Unit>
nM

>  <Type>
IC50

>  <pValue>
7

>  <Ligand Efficiency>
0

>  <Binding Efficiency>
0

>  <Surface Efficiency>
0

>  <Assay Index>
1349105

>  <Assay Category>


>  <Assay Organism>
Homo sapiens

>  <Target ID>
17045

>  <Target Name>
Cytochrome P450 3A4

>  <Target Organism>
Homo sapiens

>  <Target Description>
Target is a single protein chain

>  <Sequence Accession>
P08684

>  <Reference>
J Med Chem 59 (13), 6101-6120 (2016)

>  <Pubmed ID>
27314305

>  <DOI>
10.1021/acs.jmedchem.6b00028

$$$$
2455211
Actelion Java MolfileCreator 1.0

 30 34  0  0  0  0  0  0  0  0999 V2000
    0.0000   -0.0000   -0.0000 O   0  0  0  0  0  0  0  0  0  0  0  0
   -1.3089   -0.6957   -0.0000 C   0  0  0  0  0  0  0  0  0  0  0  0
    0.0118    1.4976   -0.0000 C   0  0  0  0  0  0  0  0  0  0  0  0
   -2.5825    0.0825   -0.0000 C   0  0  0  0  0  0  0  0  0  0  0  0
   -1.2736    2.2759   -0.0000 C   0  0  0  0  0  0  0  0  0  0  0  0
   -2.5707    1.5802   -0.0000 N   0  0  0  0  0  0  0  0  0  0  0  0
   -3.8443    2.3467   -0.0000 C   0  0  0  0  0  0  0  0  0  0  0  0
   -5.1650    1.6391   -0.0000 C   0  0  0  0  0  0  0  0  0  0  0  0
   -3.8325    3.8561   -0.0000 C   0  0  0  0  0  0  0  0  0  0  0  0
   -6.4504    2.4174   -0.0000 C   0  0  0  0  0  0  0  0  0  0  0  0
   -5.1297    4.6344   -0.0000 C   0  0  0  0  0  0  0  0  0  0  0  0
   -6.4386    3.9151   -0.0000 N   0  0  0  0  0  0  0  0  0  0  0  0
   -7.7358    4.6934   -0.0000 C   0  0  0  0  0  0  0  0  0  0  0  0
   -7.7240    6.2028   -0.0000 N   0  0  0  0  0  0  0  0  0  0  0  0
   -9.0565    3.9740   -0.0000 C   0  0  0  0  0  0  0  0  0  0  0  0
   -9.0211    6.9693   -0.0000 C   0  0  0  0  0  0  0  0  0  0  0  0
  -10.3537    4.7523   -0.0000 C   0  0  0  0  0  0  0  0  0  0  0  0
  -10.3419    6.2499   -0.0000 N   0  0  0  0  0  0  0  0  0  0  0  0
   -9.0093    8.4787   -0.0000 C   0  0  0  0  0  0  0  0  0  0  0  0
  -11.6626    4.0330   -0.0000 C   0  0  0  0  0  0  0  0  0  0  0  0
   -7.7122    9.2216   -0.0000 C   0  0  0  0  0  0  0  0  0  0  0  0
  -10.3065    9.2570   -0.0000 C   0  0  0  0  0  0  0  0  0  0  0  0
  -12.9598    4.8113   -0.0000 C   0  0  0  0  0  0  0  0  0  0  0  0
  -11.6980    2.5589   -0.0000 C   0  0  0  0  0  0  0  0  0  0  0  0
   -7.7004   10.7310   -0.0000 C   0  0  0  0  0  0  0  0  0  0  0  0
  -10.2947   10.7546   -0.0000 C   0  0  0  0  0  0  0  0  0  0  0  0
  -14.2805    4.0919   -0.0000 N   0  0  0  0  0  0  0  0  0  0  0  0
  -13.0069    1.8396   -0.0000 C   0  0  0  0  0  0  0  0  0  0  0  0
   -8.9976   11.4975   -0.0000 N   0  0  0  0  0  0  0  0  0  0  0  0
  -14.3159    2.6061   -0.0000 C   0  0  0  0  0  0  0  0  0  0  0  0
  1  2  1  0  0  0  0
  1  3  1  0  0  0  0
  2  4  1  0  0  0  0
  3  5  1  0  0  0  0
  4  6  1  0  0  0  0
  6  7  1  0  0  0  0
  7  8  1  0  0  0  0
  7  9  1  0  0  0  0
  8 10  1  0  0  0  0
  9 11  1  0  0  0  0
 10 12  1  0  0  0  0
 12 13  1  0  0  0  0
 13 14  2  0  0  0  0
 13 15  1  0  0  0  0
 14 16  1  0  0  0  0
 15 17  2  0  0  0  0
 16 18  2  0  0  0  0
 16 19  1  0  0  0  0
 17 20  1  0  0  0  0
 19 21  2  0  0  0  0
 19 22  1  0  0  0  0
 20 23  2  0  0  0  0
 20 24  1  0  0  0  0
 21 25  1  0  0  0  0
 22 26  2  0  0  0  0
 23 27  1  0  0  0  0
 24 28  2  0  0  0  0
 25 29  2  0  0  0  0
 27 30  2  0  0  0  0
  5  6  1  0  0  0  0
 11 12  1  0  0  0  0
 17 18  1  0  0  0  0
 26 29  1  0  0  0  0
 28 30  1  0  0  0  0
M  END
>  <MolRegNo>
2455211

>  <m>
=

>  <Value>
100

>  <Unit>
nM

>  <Type>
IC50

>  <pValue>
7

>  <Ligand Efficiency>
0

>  <Binding Efficiency>
0

>  <Surface Efficiency>
0

>  <Assay Index>
1349105

>  <Assay Category>


>  <Assay Organism>
Homo sapiens

>  <Target ID>
17045

>  <Target Name>
Cytochrome P450 3A4

>  <Target Organism>
Homo sapiens

>  <Target Description>
Target is a single protein chain

>  <Sequence Accession>
P08684

>  <Reference>
J Med Chem 59 (13), 6101-6120 (2016)

>  <Pubmed ID>
27314305

>  <DOI>
10.1021/acs.jmedchem.6b00028

$$$$
2440072
Actelion Java MolfileCreator 1.0

 31 35  0  0  0  0  0  0  0  0999 V2000
    0.0000   -0.0000   -0.0000 O   0  0  0  0  0  0  0  0  0  0  0  0
    1.2714    0.7770   -0.0000 C   0  0  0  0  0  0  0  0  0  0  0  0
   -1.3185    0.7417   -0.0000 C   0  0  0  0  0  0  0  0  0  0  0  0
    1.2361    2.2839   -0.0000 C   0  0  0  0  0  0  0  0  0  0  0  0
   -1.3421    2.2486   -0.0000 C   0  0  0  0  0  0  0  0  0  0  0  0
   -0.0824    3.0256   -0.0000 N   0  0  0  0  0  0  0  0  0  0  0  0
   -0.1177    4.5325   -0.0000 C   0  0  0  0  0  0  0  0  0  0  0  0
   -1.4245    5.2741   -0.0000 C   0  0  0  0  0  0  0  0  0  0  0  0
   -1.4598    6.7693   -0.0000 C   0  0  0  0  0  0  0  0  0  0  0  0
   -2.7195    4.5207   -0.0000 C   0  0  0  0  0  0  0  0  0  0  0  0
   -2.7783    7.5109   -0.0000 C   0  0  0  0  0  0  0  0  0  0  0  0
   -4.0262    5.2624   -0.0000 C   0  0  0  0  0  0  0  0  0  0  0  0
   -4.0733    6.7575   -0.0000 N   0  0  0  0  0  0  0  0  0  0  0  0
   -5.3919    7.4992   -0.0000 C   0  0  0  0  0  0  0  0  0  0  0  0
   -5.4272    8.9943   -0.0000 N   0  0  0  0  0  0  0  0  0  0  0  0
   -6.6869    6.7457   -0.0000 C   0  0  0  0  0  0  0  0  0  0  0  0
   -6.7340    9.7360   -0.0000 C   0  0  0  0  0  0  0  0  0  0  0  0
   -8.0054    7.4874   -0.0000 C   0  0  0  0  0  0  0  0  0  0  0  0
   -8.0289    8.9825   -0.0000 N   0  0  0  0  0  0  0  0  0  0  0  0
   -6.7693   11.2311   -0.0000 C   0  0  0  0  0  0  0  0  0  0  0  0
   -9.3004    6.7340   -0.0000 C   0  0  0  0  0  0  0  0  0  0  0  0
   -5.4978   12.0081   -0.0000 C   0  0  0  0  0  0  0  0  0  0  0  0
   -8.0878   11.9728   -0.0000 C   0  0  0  0  0  0  0  0  0  0  0  0
  -10.6189    7.4756   -0.0000 C   0  0  0  0  0  0  0  0  0  0  0  0
   -9.3004    5.2624   -0.0000 C   0  0  0  0  0  0  0  0  0  0  0  0
   -5.5214   13.5032   -0.0000 C   0  0  0  0  0  0  0  0  0  0  0  0
   -8.1231   13.4797   -0.0000 C   0  0  0  0  0  0  0  0  0  0  0  0
  -11.9139    6.7222   -0.0000 N   0  0  0  0  0  0  0  0  0  0  0  0
  -10.5954    4.5089   -0.0000 C   0  0  0  0  0  0  0  0  0  0  0  0
   -6.8399   14.2449   -0.0000 N   0  0  0  0  0  0  0  0  0  0  0  0
  -11.9021    5.2506   -0.0000 C   0  0  0  0  0  0  0  0  0  0  0  0
  1  2  1  0  0  0  0
  1  3  1  0  0  0  0
  2  4  1  0  0  0  0
  3  5  1  0  0  0  0
  4  6  1  0  0  0  0
  6  7  1  0  0  0  0
  7  8  1  0  0  0  0
  8  9  1  0  0  0  0
  8 10  1  0  0  0  0
  9 11  1  0  0  0  0
 10 12  1  0  0  0  0
 11 13  1  0  0  0  0
 13 14  1  0  0  0  0
 14 15  2  0  0  0  0
 14 16  1  0  0  0  0
 15 17  1  0  0  0  0
 16 18  2  0  0  0  0
 17 19  2  0  0  0  0
 17 20  1  0  0  0  0
 18 21  1  0  0  0  0
 20 22  2  0  0  0  0
 20 23  1  0  0  0  0
 21 24  2  0  0  0  0
 21 25  1  0  0  0  0
 22 26  1  0  0  0  0
 23 27  2  0  0  0  0
 24 28  1  0  0  0  0
 25 29  2  0  0  0  0
 26 30  2  0  0  0  0
 28 31  2  0  0  0  0
  5  6  1  0  0  0  0
 12 13  1  0  0  0  0
 18 19  1  0  0  0  0
 27 30  1  0  0  0  0
 29 31  1  0  0  0  0
M  END
>  <MolRegNo>
2440072

>  <m>
=

>  <Value>
100

>  <Unit>
nM

>  <Type>
IC50

>  <pValue>
7

>  <Ligand Efficiency>
0

>  <Binding Efficiency>
0

>  <Surface Efficiency>
0

>  <Assay Index>
1349105

>  <Assay Category>


>  <Assay Organism>
Homo sapiens

>  <Target ID>
17045

>  <Target Name>
Cytochrome P450 3A4

>  <Target Organism>
Homo sapiens

>  <Target Description>
Target is a single protein chain

>  <Sequence Accession>
P08684

>  <Reference>
J Med Chem 59 (13), 6101-6120 (2016)

>  <Pubmed ID>
27314305

>  <DOI>
10.1021/acs.jmedchem.6b00028

$$$$
2440998
Actelion Java MolfileCreator 1.0

 32 36  0  0  0  0  0  0  0  0999 V2000
    0.0000   -0.0000   -0.0000 O   0  0  0  0  0  0  0  0  0  0  0  0
   -1.3255   -0.7155   -0.0000 C   0  0  0  0  0  0  0  0  0  0  0  0
    0.0235    1.5014   -0.0000 C   0  0  0  0  0  0  0  0  0  0  0  0
   -2.6040    0.0704   -0.0000 C   0  0  0  0  0  0  0  0  0  0  0  0
   -1.2668    2.2756   -0.0000 C   0  0  0  0  0  0  0  0  0  0  0  0
   -2.5923    1.5718   -0.0000 N   0  0  0  0  0  0  0  0  0  0  0  0
   -3.8709    2.3694   -0.0000 C   0  0  0  0  0  0  0  0  0  0  0  0
   -3.8591    3.8709   -0.0000 C   0  0  0  0  0  0  0  0  0  0  0  0
   -5.1963    1.6656   -0.0000 C   0  0  0  0  0  0  0  0  0  0  0  0
   -5.1377    4.6568   -0.0000 C   0  0  0  0  0  0  0  0  0  0  0  0
   -6.4866    2.4516   -0.0000 C   0  0  0  0  0  0  0  0  0  0  0  0
   -6.4632    3.9530   -0.0000 N   0  0  0  0  0  0  0  0  0  0  0  0
   -7.7535    4.7389   -0.0000 C   0  0  0  0  0  0  0  0  0  0  0  0
   -7.7300    6.2403   -0.0000 N   0  0  0  0  0  0  0  0  0  0  0  0
   -9.0672    4.0351   -0.0000 C   0  0  0  0  0  0  0  0  0  0  0  0
   -9.0203    7.0262   -0.0000 C   0  0  0  0  0  0  0  0  0  0  0  0
  -10.3575    4.8210   -0.0000 C   0  0  0  0  0  0  0  0  0  0  0  0
  -10.3341    6.3224   -0.0000 N   0  0  0  0  0  0  0  0  0  0  0  0
   -9.0086    8.5276   -0.0000 C   0  0  0  0  0  0  0  0  0  0  0  0
  -11.6830    4.1172   -0.0000 C   0  0  0  0  0  0  0  0  0  0  0  0
  -10.2871    9.3018   -0.0000 C   0  0  0  0  0  0  0  0  0  0  0  0
   -7.7066    9.2549   -0.0000 C   0  0  0  0  0  0  0  0  0  0  0  0
  -12.9733    4.9031   -0.0000 C   0  0  0  0  0  0  0  0  0  0  0  0
  -11.7299    2.6392   -0.0000 C   0  0  0  0  0  0  0  0  0  0  0  0
  -10.2754   10.8032   -0.0000 C   0  0  0  0  0  0  0  0  0  0  0  0
   -7.6831   10.7563   -0.0000 C   0  0  0  0  0  0  0  0  0  0  0  0
  -14.2870    4.1993   -0.0000 N   0  0  0  0  0  0  0  0  0  0  0  0
  -13.0437    1.9354   -0.0000 C   0  0  0  0  0  0  0  0  0  0  0  0
   -8.9734   11.5422   -0.0000 N   0  0  0  0  0  0  0  0  0  0  0  0
  -11.5657   11.5774   -0.0000 C   0  0  0  0  0  0  0  0  0  0  0  0
   -6.3928   11.4836   -0.0000 C   0  0  0  0  0  0  0  0  0  0  0  0
  -14.3339    2.7213   -0.0000 C   0  0  0  0  0  0  0  0  0  0  0  0
  1  2  1  0  0  0  0
  1  3  1  0  0  0  0
  2  4  1  0  0  0  0
  3  5  1  0  0  0  0
  4  6  1  0  0  0  0
  6  7  1  0  0  0  0
  7  8  1  0  0  0  0
  7  9  1  0  0  0  0
  8 10  1  0  0  0  0
  9 11  1  0  0  0  0
 10 12  1  0  0  0  0
 12 13  1  0  0  0  0
 13 14  2  0  0  0  0
 13 15  1  0  0  0  0
 14 16  1  0  0  0  0
 15 17  2  0  0  0  0
 16 18  2  0  0  0  0
 16 19  1  0  0  0  0
 17 20  1  0  0  0  0
 19 21  2  0  0  0  0
 19 22  1  0  0  0  0
 20 23  2  0  0  0  0
 20 24  1  0  0  0  0
 21 25  1  0  0  0  0
 22 26  2  0  0  0  0
 23 27  1  0  0  0  0
 24 28  2  0  0  0  0
 25 29  2  0  0  0  0
 25 30  1  0  0  0  0
 26 31  1  0  0  0  0
 27 32  2  0  0  0  0
  5  6  1  0  0  0  0
 11 12  1  0  0  0  0
 17 18  1  0  0  0  0
 26 29  1  0  0  0  0
 28 32  1  0  0  0  0
M  END
>  <MolRegNo>
2440998

>  <m>
=

>  <Value>
40000

>  <Unit>
nM

>  <Type>
IC50

>  <pValue>
4.4

>  <Ligand Efficiency>
0

>  <Binding Efficiency>
0

>  <Surface Efficiency>
0

>  <Assay Index>
1349105

>  <Assay Category>


>  <Assay Organism>
Homo sapiens

>  <Target ID>
17045

>  <Target Name>
Cytochrome P450 3A4

>  <Target Organism>
Homo sapiens

>  <Target Description>
Target is a single protein chain

>  <Sequence Accession>
P08684

>  <Reference>
J Med Chem 59 (13), 6101-6120 (2016)

>  <Pubmed ID>
27314305

>  <DOI>
10.1021/acs.jmedchem.6b00028

$$$$
2428358
Actelion Java MolfileCreator 1.0

 32 35  0  0  0  0  0  0  0  0999 V2000
    0.0000   -0.0000   -0.0000 Cl  0  0  0  0  0  0  0  0  0  0  0  0
   -1.4718    0.3257   -0.0000 C   0  0  0  0  0  0  0  0  0  0  0  0
   -1.9423    1.7613   -0.0000 C   0  0  0  0  0  0  0  0  0  0  0  0
   -2.4731   -0.7721   -0.0000 C   0  0  0  0  0  0  0  0  0  0  0  0
   -3.4141    2.0870   -0.0000 C   0  0  0  0  0  0  0  0  0  0  0  0
   -0.9530    2.8833   -0.0000 C   0  0  0  0  0  0  0  0  0  0  0  0
   -3.9449   -0.4464   -0.0000 C   0  0  0  0  0  0  0  0  0  0  0  0
   -4.4274    0.9892   -0.0000 C   0  0  0  0  0  0  0  0  0  0  0  0
   -1.4356    4.3188   -0.0000 N   0  0  0  0  0  0  0  0  0  0  0  0
   -2.8712    4.8014   -0.0000 C   0  0  0  0  0  0  0  0  0  0  0  0
   -0.5670    5.5373   -0.0000 C   0  0  0  0  0  0  0  0  0  0  0  0
   -2.8833    6.3094   -0.0000 C   0  0  0  0  0  0  0  0  0  0  0  0
   -4.1741    4.0655   -0.0000 C   0  0  0  0  0  0  0  0  0  0  0  0
   -1.4597    6.7557   -0.0000 C   0  0  0  0  0  0  0  0  0  0  0  0
    0.9168    5.5494   -0.0000 C   0  0  0  0  0  0  0  0  0  0  0  0
   -4.1861    7.0694   -0.0000 C   0  0  0  0  0  0  0  0  0  0  0  0
   -5.4770    4.8255   -0.0000 C   0  0  0  0  0  0  0  0  0  0  0  0
   -1.0013    8.1913   -0.0000 C   0  0  0  0  0  0  0  0  0  0  0  0
    1.6527    4.2706   -0.0000 O   0  0  0  0  0  0  0  0  0  0  0  0
   -5.4890    6.3335   -0.0000 C   0  0  0  0  0  0  0  0  0  0  0  0
   -2.0147    9.3133   -0.0000 C   0  0  0  0  0  0  0  0  0  0  0  0
    0.4464    8.5171   -0.0000 C   0  0  0  0  0  0  0  0  0  0  0  0
   -6.7919    7.0935   -0.0000 O   0  0  0  0  0  0  0  0  0  0  0  0
   -1.5683   10.7368   -0.0000 N   0  0  0  0  0  0  0  0  0  0  0  0
    0.9048    9.9526   -0.0000 C   0  0  0  0  0  0  0  0  0  0  0  0
   -8.0948    6.3576   -0.0000 C   0  0  0  0  0  0  0  0  0  0  0  0
   -0.1206   11.0625   -0.0000 C   0  0  0  0  0  0  0  0  0  0  0  0
   -9.2771    5.6941   -0.0000 F   0  0  0  0  0  0  0  0  0  0  0  0
   -9.5666    6.9246   -0.0000 F   0  0  0  0  0  0  0  0  0  0  0  0
   -8.3602    4.8376   -0.0000 F   0  0  0  0  0  0  0  0  0  0  0  0
    0.3257   12.4981   -0.0000 O   0  0  0  0  0  0  0  0  0  0  0  0
    1.7734   12.8238   -0.0000 C   0  0  0  0  0  0  0  0  0  0  0  0
  1  2  1  0  0  0  0
  2  3  2  0  0  0  0
  2  4  1  0  0  0  0
  3  5  1  0  0  0  0
  3  6  1  0  0  0  0
  4  7  2  0  0  0  0
  5  8  2  0  0  0  0
  6  9  1  0  0  0  0
  9 10  1  0  0  0  0
  9 11  1  0  0  0  0
 10 12  2  0  0  0  0
 10 13  1  0  0  0  0
 11 14  2  0  0  0  0
 11 15  1  0  0  0  0
 12 16  1  0  0  0  0
 13 17  2  0  0  0  0
 14 18  1  0  0  0  0
 15 19  1  0  0  0  0
 16 20  2  0  0  0  0
 18 21  2  0  0  0  0
 18 22  1  0  0  0  0
 20 23  1  0  0  0  0
 21 24  1  0  0  0  0
 22 25  2  0  0  0  0
 23 26  1  0  0  0  0
 24 27  2  0  0  0  0
 26 28  1  0  0  0  0
 26 29  1  0  0  0  0
 26 30  1  0  0  0  0
 27 31  1  0  0  0  0
 31 32  1  0  0  0  0
  7  8  1  0  0  0  0
 12 14  1  0  0  0  0
 17 20  1  0  0  0  0
 25 27  1  0  0  0  0
M  END
>  <MolRegNo>
2428358

>  <m>
=

>  <Value>
14000

>  <Unit>
nM

>  <Type>
IC50

>  <pValue>
4.85

>  <Ligand Efficiency>
0

>  <Binding Efficiency>
0

>  <Surface Efficiency>
0

>  <Assay Index>
1349912

>  <Assay Category>


>  <Assay Organism>
Homo sapiens

>  <Target ID>
17045

>  <Target Name>
Cytochrome P450 3A4

>  <Target Organism>
Homo sapiens

>  <Target Description>
Target is a single protein chain

>  <Sequence Accession>
P08684

>  <Reference>
J Med Chem 59 (16), 7690-7695 (2016)

>  <Pubmed ID>
27482618

>  <DOI>
10.1021/acs.jmedchem.6b00928

$$$$
2399230
Actelion Java MolfileCreator 1.0

 32 35  0  0  0  0  0  0  0  0999 V2000
    0.0000   -0.0000   -0.0000 Cl  0  0  0  0  0  0  0  0  0  0  0  0
   -1.4826    0.3281   -0.0000 C   0  0  0  0  0  0  0  0  0  0  0  0
   -1.9565    1.7621   -0.0000 C   0  0  0  0  0  0  0  0  0  0  0  0
   -2.4912   -0.7656   -0.0000 C   0  0  0  0  0  0  0  0  0  0  0  0
   -3.4270    2.0902   -0.0000 C   0  0  0  0  0  0  0  0  0  0  0  0
   -0.9722    2.8801   -0.0000 C   0  0  0  0  0  0  0  0  0  0  0  0
   -3.9738   -0.4375   -0.0000 C   0  0  0  0  0  0  0  0  0  0  0  0
   -4.4356    0.9965   -0.0000 C   0  0  0  0  0  0  0  0  0  0  0  0
   -1.4461    4.3141   -0.0000 N   0  0  0  0  0  0  0  0  0  0  0  0
   -2.8801    4.7881   -0.0000 C   0  0  0  0  0  0  0  0  0  0  0  0
   -0.5833    5.5415   -0.0000 C   0  0  0  0  0  0  0  0  0  0  0  0
   -2.8923    6.2950   -0.0000 C   0  0  0  0  0  0  0  0  0  0  0  0
   -4.1804    4.0589   -0.0000 C   0  0  0  0  0  0  0  0  0  0  0  0
   -1.4704    6.7568   -0.0000 C   0  0  0  0  0  0  0  0  0  0  0  0
    0.8993    5.5537   -0.0000 C   0  0  0  0  0  0  0  0  0  0  0  0
   -4.1926    7.0484   -0.0000 C   0  0  0  0  0  0  0  0  0  0  0  0
   -5.4929    4.8124   -0.0000 C   0  0  0  0  0  0  0  0  0  0  0  0
   -1.0208    8.1907   -0.0000 C   0  0  0  0  0  0  0  0  0  0  0  0
    1.6284    4.2655   -0.0000 O   0  0  0  0  0  0  0  0  0  0  0  0
   -5.5051    6.3193   -0.0000 C   0  0  0  0  0  0  0  0  0  0  0  0
    0.4253    8.5189   -0.0000 C   0  0  0  0  0  0  0  0  0  0  0  0
   -2.0295    9.3088   -0.0000 C   0  0  0  0  0  0  0  0  0  0  0  0
   -6.8175    7.0727   -0.0000 O   0  0  0  0  0  0  0  0  0  0  0  0
    0.8750    9.9528   -0.0000 N   0  0  0  0  0  0  0  0  0  0  0  0
   -1.5798   10.7428   -0.0000 N   0  0  0  0  0  0  0  0  0  0  0  0
   -8.1178    6.3436   -0.0000 C   0  0  0  0  0  0  0  0  0  0  0  0
   -0.1337   11.0709   -0.0000 C   0  0  0  0  0  0  0  0  0  0  0  0
   -9.3088    5.6752   -0.0000 F   0  0  0  0  0  0  0  0  0  0  0  0
   -9.5883    6.9026   -0.0000 F   0  0  0  0  0  0  0  0  0  0  0  0
   -8.3852    4.8124   -0.0000 F   0  0  0  0  0  0  0  0  0  0  0  0
    0.3160   12.5049   -0.0000 S   0  0  0  0  0  0  0  0  0  0  0  0
    1.7621   12.8330   -0.0000 C   0  0  0  0  0  0  0  0  0  0  0  0
  1  2  1  0  0  0  0
  2  3  2  0  0  0  0
  2  4  1  0  0  0  0
  3  5  1  0  0  0  0
  3  6  1  0  0  0  0
  4  7  2  0  0  0  0
  5  8  2  0  0  0  0
  6  9  1  0  0  0  0
  9 10  1  0  0  0  0
  9 11  1  0  0  0  0
 10 12  2  0  0  0  0
 10 13  1  0  0  0  0
 11 14  2  0  0  0  0
 11 15  1  0  0  0  0
 12 16  1  0  0  0  0
 13 17  2  0  0  0  0
 14 18  1  0  0  0  0
 15 19  1  0  0  0  0
 16 20  2  0  0  0  0
 18 21  2  0  0  0  0
 18 22  1  0  0  0  0
 20 23  1  0  0  0  0
 21 24  1  0  0  0  0
 22 25  2  0  0  0  0
 23 26  1  0  0  0  0
 24 27  2  0  0  0  0
 26 28  1  0  0  0  0
 26 29  1  0  0  0  0
 26 30  1  0  0  0  0
 27 31  1  0  0  0  0
 31 32  1  0  0  0  0
  7  8  1  0  0  0  0
 12 14  1  0  0  0  0
 17 20  1  0  0  0  0
 25 27  1  0  0  0  0
M  END
>  <MolRegNo>
2399230

>  <m>
=

>  <Value>
17600

>  <Unit>
nM

>  <Type>
IC50

>  <pValue>
4.75

>  <Ligand Efficiency>
0

>  <Binding Efficiency>
0

>  <Surface Efficiency>
0

>  <Assay Index>
1349912

>  <Assay Category>


>  <Assay Organism>
Homo sapiens

>  <Target ID>
17045

>  <Target Name>
Cytochrome P450 3A4

>  <Target Organism>
Homo sapiens

>  <Target Description>
Target is a single protein chain

>  <Sequence Accession>
P08684

>  <Reference>
J Med Chem 59 (16), 7690-7695 (2016)

>  <Pubmed ID>
27482618

>  <DOI>
10.1021/acs.jmedchem.6b00928

$$$$
2433595
Actelion Java MolfileCreator 1.0

 38 42  0  0  0  0  0  0  0  0999 V2000
    0.0000   -0.0000   -0.0000 Br  0  0  0  0  0  0  0  0  0  0  0  0
    1.2899   -0.7405   -0.0000 C   0  0  0  0  0  0  0  0  0  0  0  0
    2.5798    0.0239   -0.0000 C   0  0  0  0  0  0  0  0  0  0  0  0
    1.2780   -2.2335   -0.0000 C   0  0  0  0  0  0  0  0  0  0  0  0
    3.8698   -0.7166   -0.0000 C   0  0  0  0  0  0  0  0  0  0  0  0
    2.5679   -2.9740   -0.0000 C   0  0  0  0  0  0  0  0  0  0  0  0
    3.8578   -2.2096   -0.0000 C   0  0  0  0  0  0  0  0  0  0  0  0
    5.1597    0.0478   -0.0000 C   0  0  0  0  0  0  0  0  0  0  0  0
    5.1478   -2.9501   -0.0000 N   0  0  0  0  0  0  0  0  0  0  0  0
    6.4496   -0.6808   -0.0000 C   0  0  0  0  0  0  0  0  0  0  0  0
    6.4377   -2.1857   -0.0000 C   0  0  0  0  0  0  0  0  0  0  0  0
    7.7395    0.0836   -0.0000 C   0  0  0  0  0  0  0  0  0  0  0  0
    7.7276   -2.9262   -0.0000 O   0  0  0  0  0  0  0  0  0  0  0  0
    7.7276    1.6005   -0.0000 C   0  0  0  0  0  0  0  0  0  0  0  0
    9.0295   -0.6569   -0.0000 C   0  0  0  0  0  0  0  0  0  0  0  0
    7.7276   -4.4192   -0.0000 C   0  0  0  0  0  0  0  0  0  0  0  0
    6.4138    2.3649   -0.0000 C   0  0  0  0  0  0  0  0  0  0  0  0
    9.0295    2.3649   -0.0000 C   0  0  0  0  0  0  0  0  0  0  0  0
    9.3997    0.8241   -0.0000 O   0  0  0  0  0  0  0  0  0  0  0  0
    9.7700   -1.9349   -0.0000 C   0  0  0  0  0  0  0  0  0  0  0  0
   10.3194    0.1075   -0.0000 C   0  0  0  0  0  0  0  0  0  0  0  0
    4.9686    1.9110   -0.0000 O   0  0  0  0  0  0  0  0  0  0  0  0
    6.3899    3.8817   -0.0000 C   0  0  0  0  0  0  0  0  0  0  0  0
    9.0175    3.8937   -0.0000 C   0  0  0  0  0  0  0  0  0  0  0  0
   11.2510   -1.9110   -0.0000 N   0  0  0  0  0  0  0  0  0  0  0  0
    9.0056   -3.2248   -0.0000 C   0  0  0  0  0  0  0  0  0  0  0  0
   11.6093   -0.6330   -0.0000 C   0  0  0  0  0  0  0  0  0  0  0  0
    4.0728    3.1412   -0.0000 C   0  0  0  0  0  0  0  0  0  0  0  0
    4.9447    4.3475   -0.0000 O   0  0  0  0  0  0  0  0  0  0  0  0
    7.6918    4.6581   -0.0000 C   0  0  0  0  0  0  0  0  0  0  0  0
   11.9915   -3.1890   -0.0000 C   0  0  0  0  0  0  0  0  0  0  0  0
    9.7461   -4.5028   -0.0000 C   0  0  0  0  0  0  0  0  0  0  0  0
   12.8992    0.1314   -0.0000 N   0  0  0  0  0  0  0  0  0  0  0  0
   13.4845   -3.1651   -0.0000 O   0  0  0  0  0  0  0  0  0  0  0  0
   11.2391   -4.4908   -0.0000 C   0  0  0  0  0  0  0  0  0  0  0  0
   14.1892   -0.6091   -0.0000 C   0  0  0  0  0  0  0  0  0  0  0  0
   12.8873    1.6482   -0.0000 C   0  0  0  0  0  0  0  0  0  0  0  0
   14.2131   -1.8393   -0.0000 C   0  0  0  0  0  0  0  0  0  0  0  0
  1  2  1  0  0  0  0
  2  3  2  0  0  0  0
  2  4  1  0  0  0  0
  3  5  1  0  0  0  0
  4  6  2  0  0  0  0
  5  7  1  0  0  0  0
  5  8  2  0  0  0  0
  7  9  2  0  0  0  0
  8 10  1  0  0  0  0
  9 11  1  0  0  0  0
 10 12  1  0  0  0  0
 11 13  1  0  0  0  0
 12 14  1  0  0  0  0
 12 15  1  0  0  0  0
 13 16  1  0  0  0  0
 14 17  2  0  0  0  0
 14 18  1  0  0  0  0
 15 19  1  0  0  0  0
 15 20  1  0  0  0  0
 15 21  1  0  0  0  0
 17 22  1  0  0  0  0
 17 23  1  0  0  0  0
 18 24  2  0  0  0  0
 20 25  2  0  0  0  0
 20 26  1  0  0  0  0
 21 27  1  0  0  0  0
 22 28  1  0  0  0  0
 23 29  1  0  0  0  0
 23 30  2  0  0  0  0
 25 31  1  0  0  0  0
 26 32  2  0  0  0  0
 27 33  1  0  0  0  0
 31 34  1  0  0  0  0
 31 35  2  0  0  0  0
 33 36  1  0  0  0  0
 33 37  1  0  0  0  0
 34 38  1  0  0  0  0
  6  7  1  0  0  0  0
 10 11  2  0  0  0  0
 24 30  1  0  0  0  0
 28 29  1  0  0  0  0
 32 35  1  0  0  0  0
M  END
>  <MolRegNo>
2433595

>  <m>
=

>  <Value>
7600

>  <Unit>
nM

>  <Type>
IC50

>  <pValue>
5.12

>  <Ligand Efficiency>
0

>  <Binding Efficiency>
0

>  <Surface Efficiency>
0

>  <Assay Index>
1351966

>  <Assay Category>


>  <Assay Organism>
Homo sapiens

>  <Target ID>
17045

>  <Target Name>
Cytochrome P450 3A4

>  <Target Organism>
Homo sapiens

>  <Target Description>
Target is a single protein chain

>  <Sequence Accession>
P08684

>  <Reference>
Bioorg Med Chem 27 (7), 1283-1291 (2019)

>  <Pubmed ID>
30792104

>  <DOI>
10.1016/j.bmc.2019.02.025

$$$$
2480094
Actelion Java MolfileCreator 1.0

 15 16  0  0  0  0  0  0  0  0999 V2000
    0.0000   -0.0000   -0.0000 Cl  0  0  0  0  0  0  0  0  0  0  0  0
   -3.2085   -3.1142   -0.0000 O   0  0  0  0  0  0  0  0  0  0  0  0
   -1.9228   -3.8573   -0.0000 C   0  0  0  0  0  0  0  0  0  0  0  0
   -4.5297   -3.8455   -0.0000 C   0  0  0  0  0  0  0  0  0  0  0  0
   -1.9346   -5.3436   -0.0000 C   0  0  0  0  0  0  0  0  0  0  0  0
   -0.6370   -3.1024   -0.0000 C   0  0  0  0  0  0  0  0  0  0  0  0
   -5.8509   -3.0788   -0.0000 C   0  0  0  0  0  0  0  0  0  0  0  0
   -0.6488   -6.0868   -0.0000 N   0  0  0  0  0  0  0  0  0  0  0  0
    0.6488   -3.8337   -0.0000 C   0  0  0  0  0  0  0  0  0  0  0  0
   -7.2192   -3.6804   -0.0000 N   0  0  0  0  0  0  0  0  0  0  0  0
   -6.0160   -1.5925   -0.0000 C   0  0  0  0  0  0  0  0  0  0  0  0
    0.6488   -5.3319   -0.0000 C   0  0  0  0  0  0  0  0  0  0  0  0
   -8.2455   -2.5598   -0.0000 C   0  0  0  0  0  0  0  0  0  0  0  0
   -7.5141   -1.2740   -0.0000 C   0  0  0  0  0  0  0  0  0  0  0  0
   -9.0122   -1.2504   -0.0000 C   0  0  0  0  0  0  0  0  0  0  0  0
  2  3  1  0  0  0  0
  2  4  1  0  0  0  0
  3  5  2  0  0  0  0
  3  6  1  0  0  0  0
  7  4  1  6  0  0  0
  5  8  1  0  0  0  0
  6  9  2  0  0  0  0
  7 10  1  0  0  0  0
  7 11  1  0  0  0  0
  8 12  2  0  0  0  0
 13 10  1  6  0  0  0
 14 11  1  6  0  0  0
 13 15  1  0  0  0  0
  9 12  1  0  0  0  0
 13 14  1  0  0  0  0
 14 15  1  0  0  0  0
M  END
>  <MolRegNo>
2480094

>  <m>
=

>  <Value>
31900

>  <Unit>
nM

>  <Type>
IC50

>  <pValue>
4.5

>  <Ligand Efficiency>
0

>  <Binding Efficiency>
0

>  <Surface Efficiency>
0

>  <Assay Index>
1354999

>  <Assay Category>


>  <Assay Organism>
Homo sapiens

>  <Target ID>
17045

>  <Target Name>
Cytochrome P450 3A4

>  <Target Organism>
Homo sapiens

>  <Target Description>
Target is a single protein chain

>  <Sequence Accession>
P08684

>  <Reference>
J Med Chem 63 (6), 2833-2853 (2020)

>  <Pubmed ID>
32026697

>  <DOI>
10.1021/acs.jmedchem.9b00790

$$$$
2472721
Actelion Java MolfileCreator 1.0

 15 16  0  0  0  0  0  0  0  0999 V2000
    0.0000   -0.0000   -0.0000 Cl  0  0  0  0  0  0  0  0  0  0  0  0
   -4.8063   -2.6388   -0.0000 O   0  0  0  0  0  0  0  0  0  0  0  0
   -3.5223   -3.3809   -0.0000 C   0  0  0  0  0  0  0  0  0  0  0  0
   -6.1257   -3.3691   -0.0000 C   0  0  0  0  0  0  0  0  0  0  0  0
   -3.5340   -4.8652   -0.0000 C   0  0  0  0  0  0  0  0  0  0  0  0
   -2.2382   -2.6270   -0.0000 C   0  0  0  0  0  0  0  0  0  0  0  0
   -7.4451   -2.6034   -0.0000 C   0  0  0  0  0  0  0  0  0  0  0  0
   -2.2500   -5.6073   -0.0000 N   0  0  0  0  0  0  0  0  0  0  0  0
   -0.9542   -3.3573   -0.0000 C   0  0  0  0  0  0  0  0  0  0  0  0
   -8.8115   -3.2042   -0.0000 N   0  0  0  0  0  0  0  0  0  0  0  0
   -7.5982   -1.1191   -0.0000 C   0  0  0  0  0  0  0  0  0  0  0  0
   -0.9660   -4.8534   -0.0000 C   0  0  0  0  0  0  0  0  0  0  0  0
   -9.8364   -2.0851   -0.0000 C   0  0  0  0  0  0  0  0  0  0  0  0
   -9.0943   -0.7893   -0.0000 C   0  0  0  0  0  0  0  0  0  0  0  0
   -8.0812    0.3298   -0.0000 C   0  0  0  0  0  0  0  0  0  0  0  0
  2  3  1  0  0  0  0
  2  4  1  0  0  0  0
  3  5  2  0  0  0  0
  3  6  1  0  0  0  0
  7  4  1  6  0  0  0
  5  8  1  0  0  0  0
  6  9  2  0  0  0  0
  7 10  1  0  0  0  0
  7 11  1  0  0  0  0
  8 12  2  0  0  0  0
 10 13  1  0  0  0  0
 11 14  1  0  0  0  0
 11 15  1  1  0  0  0
  9 12  1  0  0  0  0
 14 13  1  1  0  0  0
 14 15  1  0  0  0  0
M  END
>  <MolRegNo>
2472721

>  <m>
=

>  <Value>
21100

>  <Unit>
nM

>  <Type>
IC50

>  <pValue>
4.68

>  <Ligand Efficiency>
0

>  <Binding Efficiency>
0

>  <Surface Efficiency>
0

>  <Assay Index>
1354999

>  <Assay Category>


>  <Assay Organism>
Homo sapiens

>  <Target ID>
17045

>  <Target Name>
Cytochrome P450 3A4

>  <Target Organism>
Homo sapiens

>  <Target Description>
Target is a single protein chain

>  <Sequence Accession>
P08684

>  <Reference>
J Med Chem 63 (6), 2833-2853 (2020)

>  <Pubmed ID>
32026697

>  <DOI>
10.1021/acs.jmedchem.9b00790

$$$$
2484254
Actelion Java MolfileCreator 1.0

 32 35  0  0  0  0  0  0  0  0999 V2000
    0.0000   -0.0000   -0.0000 Cl  0  0  0  0  0  0  0  0  0  0  0  0
   -1.3059   -0.7360   -0.0000 C   0  0  0  0  0  0  0  0  0  0  0  0
   -1.3178   -2.2319   -0.0000 C   0  0  0  0  0  0  0  0  0  0  0  0
   -2.6118    0.0237   -0.0000 C   0  0  0  0  0  0  0  0  0  0  0  0
   -2.6355   -2.9679   -0.0000 N   0  0  0  0  0  0  0  0  0  0  0  0
   -0.0356   -2.9679   -0.0000 N   0  0  0  0  0  0  0  0  0  0  0  0
   -3.9177   -0.7123   -0.0000 N   0  0  0  0  0  0  0  0  0  0  0  0
   -3.9414   -2.2081   -0.0000 C   0  0  0  0  0  0  0  0  0  0  0  0
    1.2465   -2.2081   -0.0000 C   0  0  0  0  0  0  0  0  0  0  0  0
   -5.2473   -2.9442   -0.0000 N   0  0  0  0  0  0  0  0  0  0  0  0
    2.5287   -2.9442   -0.0000 C   0  0  0  0  0  0  0  0  0  0  0  0
    1.2228   -0.7004   -0.0000 C   0  0  0  0  0  0  0  0  0  0  0  0
   -6.5532   -2.1844   -0.0000 C   0  0  0  0  0  0  0  0  0  0  0  0
    3.8108   -2.1844   -0.0000 C   0  0  0  0  0  0  0  0  0  0  0  0
    2.5049    0.0594   -0.0000 C   0  0  0  0  0  0  0  0  0  0  0  0
   -6.5532   -0.6767   -0.0000 N   0  0  0  0  0  0  0  0  0  0  0  0
   -7.8472   -2.9204   -0.0000 C   0  0  0  0  0  0  0  0  0  0  0  0
    5.0930   -2.9204   -0.0000 N   0  0  0  0  0  0  0  0  0  0  0  0
    3.7990   -0.6767   -0.0000 C   0  0  0  0  0  0  0  0  0  0  0  0
   -7.8591    0.0831   -0.0000 C   0  0  0  0  0  0  0  0  0  0  0  0
   -9.1531   -2.1607   -0.0000 C   0  0  0  0  0  0  0  0  0  0  0  0
    6.3751   -2.1607   -0.0000 C   0  0  0  0  0  0  0  0  0  0  0  0
   -9.1650   -0.6529   -0.0000 C   0  0  0  0  0  0  0  0  0  0  0  0
    6.3633   -0.6529   -0.0000 O   0  0  0  0  0  0  0  0  0  0  0  0
    7.6573   -2.8967   -0.0000 C   0  0  0  0  0  0  0  0  0  0  0  0
  -10.4709    0.1068   -0.0000 N   0  0  0  0  0  0  0  0  0  0  0  0
  -11.7768   -0.6292   -0.0000 C   0  0  0  0  0  0  0  0  0  0  0  0
  -10.4828    1.6146   -0.0000 C   0  0  0  0  0  0  0  0  0  0  0  0
  -13.0827    0.1306   -0.0000 C   0  0  0  0  0  0  0  0  0  0  0  0
  -11.7886    2.3743   -0.0000 C   0  0  0  0  0  0  0  0  0  0  0  0
  -13.0945    1.6383   -0.0000 N   0  0  0  0  0  0  0  0  0  0  0  0
  -14.4004    2.3981   -0.0000 C   0  0  0  0  0  0  0  0  0  0  0  0
  1  2  1  0  0  0  0
  2  3  2  0  0  0  0
  2  4  1  0  0  0  0
  3  5  1  0  0  0  0
  3  6  1  0  0  0  0
  4  7  2  0  0  0  0
  5  8  2  0  0  0  0
  6  9  1  0  0  0  0
  8 10  1  0  0  0  0
  9 11  2  0  0  0  0
  9 12  1  0  0  0  0
 10 13  1  0  0  0  0
 11 14  1  0  0  0  0
 12 15  2  0  0  0  0
 13 16  2  0  0  0  0
 13 17  1  0  0  0  0
 14 18  1  0  0  0  0
 14 19  2  0  0  0  0
 16 20  1  0  0  0  0
 17 21  2  0  0  0  0
 18 22  1  0  0  0  0
 20 23  2  0  0  0  0
 22 24  2  0  0  0  0
 22 25  1  0  0  0  0
 23 26  1  0  0  0  0
 26 27  1  0  0  0  0
 26 28  1  0  0  0  0
 27 29  1  0  0  0  0
 28 30  1  0  0  0  0
 29 31  1  0  0  0  0
 31 32  1  0  0  0  0
  7  8  1  0  0  0  0
 15 19  1  0  0  0  0
 21 23  1  0  0  0  0
 30 31  1  0  0  0  0
M  END
>  <MolRegNo>
2484254

>  <m>
=

>  <Value>
31400

>  <Unit>
nM

>  <Type>
IC50

>  <pValue>
4.5

>  <Ligand Efficiency>
0

>  <Binding Efficiency>
0

>  <Surface Efficiency>
0

>  <Assay Index>
1355491

>  <Assay Category>


>  <Assay Organism>
Homo sapiens

>  <Target ID>
17045

>  <Target Name>
Cytochrome P450 3A4

>  <Target Organism>
Homo sapiens

>  <Target Description>
Target is a single protein chain

>  <Sequence Accession>
P08684

>  <Reference>
J Med Chem 63 (6), 3327-3347 (2020)

>  <Pubmed ID>
32129996

>  <DOI>
10.1021/acs.jmedchem.9b02121

$$$$
2478217
Actelion Java MolfileCreator 1.0

 25 27  0  0  0  0  0  0  0  0999 V2000
    0.0000   -0.0000   -0.0000 O   0  0  0  0  0  0  0  0  0  0  0  0
   -0.0118   -1.4810   -0.0000 C   0  0  0  0  0  0  0  0  0  0  0  0
    1.2796   -2.2274   -0.0000 N   0  0  0  0  0  0  0  0  0  0  0  0
   -1.3270   -2.2274   -0.0000 C   0  0  0  0  0  0  0  0  0  0  0  0
    2.5710   -1.4573   -0.0000 C   0  0  0  0  0  0  0  0  0  0  0  0
   -1.4928   -3.7084   -0.0000 C   0  0  0  0  0  0  0  0  0  0  0  0
   -2.7132   -1.6113   -0.0000 C   0  0  0  0  0  0  0  0  0  0  0  0
    3.8743   -2.2037   -0.0000 N   0  0  0  0  0  0  0  0  0  0  0  0
    2.5592    0.0474   -0.0000 C   0  0  0  0  0  0  0  0  0  0  0  0
   -0.4502   -4.7629   -0.0000 O   0  0  0  0  0  0  0  0  0  0  0  0
   -2.9738   -4.0165   -0.0000 N   0  0  0  0  0  0  0  0  0  0  0  0
   -3.7321   -2.7132   -0.0000 N   0  0  0  0  0  0  0  0  0  0  0  0
    5.1657   -1.4336   -0.0000 C   0  0  0  0  0  0  0  0  0  0  0  0
    3.8506    0.8057   -0.0000 C   0  0  0  0  0  0  0  0  0  0  0  0
   -0.8531   -6.2083   -0.0000 C   0  0  0  0  0  0  0  0  0  0  0  0
   -5.2486   -2.7013   -0.0000 C   0  0  0  0  0  0  0  0  0  0  0  0
    6.4571   -2.1682   -0.0000 C   0  0  0  0  0  0  0  0  0  0  0  0
    5.1539    0.0829   -0.0000 C   0  0  0  0  0  0  0  0  0  0  0  0
    6.5993   -3.6492   -0.0000 N   0  0  0  0  0  0  0  0  0  0  0  0
    7.8196   -1.5521   -0.0000 C   0  0  0  0  0  0  0  0  0  0  0  0
    8.0566   -3.9572   -0.0000 C   0  0  0  0  0  0  0  0  0  0  0  0
    5.5211   -4.7036   -0.0000 C   0  0  0  0  0  0  0  0  0  0  0  0
    8.8149   -2.6539   -0.0000 N   0  0  0  0  0  0  0  0  0  0  0  0
    5.9121   -6.1491   -0.0000 C   0  0  0  0  0  0  0  0  0  0  0  0
    4.0638   -4.3008   -0.0000 C   0  0  0  0  0  0  0  0  0  0  0  0
  1  2  2  0  0  0  0
  2  3  1  0  0  0  0
  2  4  1  0  0  0  0
  3  5  1  0  0  0  0
  4  6  1  0  0  0  0
  4  7  2  0  0  0  0
  5  8  2  0  0  0  0
  5  9  1  0  0  0  0
  6 10  1  0  0  0  0
  6 11  2  0  0  0  0
  7 12  1  0  0  0  0
  8 13  1  0  0  0  0
  9 14  2  0  0  0  0
 10 15  1  0  0  0  0
 12 16  1  0  0  0  0
 13 17  1  0  0  0  0
 13 18  2  0  0  0  0
 17 19  1  0  0  0  0
 17 20  2  0  0  0  0
 19 21  1  0  0  0  0
 19 22  1  0  0  0  0
 20 23  1  0  0  0  0
 22 24  1  0  0  0  0
 22 25  1  0  0  0  0
 11 12  1  0  0  0  0
 14 18  1  0  0  0  0
 21 23  2  0  0  0  0
M  END
>  <MolRegNo>
2478217

>  <m>
=

>  <Value>
5900

>  <Unit>
nM

>  <Type>
IC50

>  <pValue>
5.23

>  <Ligand Efficiency>
0

>  <Binding Efficiency>
0

>  <Surface Efficiency>
0

>  <Assay Index>
1355942

>  <Assay Category>


>  <Assay Organism>
Homo sapiens

>  <Target ID>
17045

>  <Target Name>
Cytochrome P450 3A4

>  <Target Organism>
Homo sapiens

>  <Target Description>
Target is a single protein chain

>  <Sequence Accession>
P08684

>  <Reference>
ACS Med Chem Lett 11 (4), 485-490 (2020)

>  <Pubmed ID>
32292554

>  <DOI>
10.1021/acsmedchemlett.9b00611

$$$$
2469232
Actelion Java MolfileCreator 1.0

 30 33  0  0  0  0  0  0  0  0999 V2000
    0.0000   -0.0000   -0.0000 O   0  0  0  0  0  0  0  0  0  0  0  0
   -0.0118   -1.4918   -0.0000 C   0  0  0  0  0  0  0  0  0  0  0  0
    1.2787   -2.2259   -0.0000 N   0  0  0  0  0  0  0  0  0  0  0  0
   -1.3260   -2.2259   -0.0000 C   0  0  0  0  0  0  0  0  0  0  0  0
    2.5692   -1.4681   -0.0000 C   0  0  0  0  0  0  0  0  0  0  0  0
   -1.4918   -3.7058   -0.0000 C   0  0  0  0  0  0  0  0  0  0  0  0
   -2.7113   -1.6102   -0.0000 C   0  0  0  0  0  0  0  0  0  0  0  0
    3.8597   -2.2140   -0.0000 N   0  0  0  0  0  0  0  0  0  0  0  0
    2.5574    0.0474   -0.0000 C   0  0  0  0  0  0  0  0  0  0  0  0
   -0.4381   -4.7596   -0.0000 O   0  0  0  0  0  0  0  0  0  0  0  0
   -2.9718   -4.0137   -0.0000 N   0  0  0  0  0  0  0  0  0  0  0  0
   -3.7295   -2.7113   -0.0000 N   0  0  0  0  0  0  0  0  0  0  0  0
    5.1503   -1.4444   -0.0000 C   0  0  0  0  0  0  0  0  0  0  0  0
    3.8361    0.8051   -0.0000 C   0  0  0  0  0  0  0  0  0  0  0  0
    0.9945   -4.3570   -0.0000 C   0  0  0  0  0  0  0  0  0  0  0  0
   -5.2450   -2.6994   -0.0000 C   0  0  0  0  0  0  0  0  0  0  0  0
    6.4408   -2.1785   -0.0000 C   0  0  0  0  0  0  0  0  0  0  0  0
    5.1384    0.0710   -0.0000 C   0  0  0  0  0  0  0  0  0  0  0  0
   -6.0146   -3.9900   -0.0000 N   0  0  0  0  0  0  0  0  0  0  0  0
   -6.0146   -1.3852   -0.0000 C   0  0  0  0  0  0  0  0  0  0  0  0
    7.8023   -1.5628   -0.0000 N   0  0  0  0  0  0  0  0  0  0  0  0
    6.5829   -3.6703   -0.0000 N   0  0  0  0  0  0  0  0  0  0  0  0
   -7.5182   -3.9781   -0.0000 C   0  0  0  0  0  0  0  0  0  0  0  0
   -7.5300   -1.3852   -0.0000 N   0  0  0  0  0  0  0  0  0  0  0  0
    8.7969   -2.6639   -0.0000 N   0  0  0  0  0  0  0  0  0  0  0  0
    8.0391   -3.9663   -0.0000 C   0  0  0  0  0  0  0  0  0  0  0  0
    5.5173   -4.7122   -0.0000 C   0  0  0  0  0  0  0  0  0  0  0  0
   -8.2759   -2.6639   -0.0000 C   0  0  0  0  0  0  0  0  0  0  0  0
    5.8843   -6.1566   -0.0000 C   0  0  0  0  0  0  0  0  0  0  0  0
    4.0492   -4.3096   -0.0000 C   0  0  0  0  0  0  0  0  0  0  0  0
  1  2  2  0  0  0  0
  2  3  1  0  0  0  0
  2  4  1  0  0  0  0
  3  5  1  0  0  0  0
  4  6  1  0  0  0  0
  4  7  2  0  0  0  0
  5  8  2  0  0  0  0
  5  9  1  0  0  0  0
  6 10  1  0  0  0  0
  6 11  2  0  0  0  0
  7 12  1  0  0  0  0
  8 13  1  0  0  0  0
  9 14  2  0  0  0  0
 10 15  1  0  0  0  0
 12 16  1  0  0  0  0
 13 17  1  0  0  0  0
 13 18  2  0  0  0  0
 16 19  2  0  0  0  0
 16 20  1  0  0  0  0
 17 21  2  0  0  0  0
 17 22  1  0  0  0  0
 19 23  1  0  0  0  0
 20 24  2  0  0  0  0
 21 25  1  0  0  0  0
 22 26  1  0  0  0  0
 22 27  1  0  0  0  0
 23 28  2  0  0  0  0
 27 29  1  0  0  0  0
 27 30  1  0  0  0  0
 11 12  1  0  0  0  0
 14 18  1  0  0  0  0
 24 28  1  0  0  0  0
 25 26  2  0  0  0  0
M  END
>  <MolRegNo>
2469232

>  <m>
=

>  <Value>
8800

>  <Unit>
nM

>  <Type>
IC50

>  <pValue>
5.06

>  <Ligand Efficiency>
0

>  <Binding Efficiency>
0

>  <Surface Efficiency>
0

>  <Assay Index>
1355942

>  <Assay Category>


>  <Assay Organism>
Homo sapiens

>  <Target ID>
17045

>  <Target Name>
Cytochrome P450 3A4

>  <Target Organism>
Homo sapiens

>  <Target Description>
Target is a single protein chain

>  <Sequence Accession>
P08684

>  <Reference>
ACS Med Chem Lett 11 (4), 485-490 (2020)

>  <Pubmed ID>
32292554

>  <DOI>
10.1021/acsmedchemlett.9b00611

$$$$
2476855
Actelion Java MolfileCreator 1.0

 38 43  0  0  0  0  0  0  0  0999 V2000
    0.0000   -0.0000   -0.0000 Cl  0  0  0  0  0  0  0  0  0  0  0  0
   -1.3060    0.7598   -0.0000 C   0  0  0  0  0  0  0  0  0  0  0  0
   -1.3179    2.2677   -0.0000 C   0  0  0  0  0  0  0  0  0  0  0  0
   -2.6120    0.0237   -0.0000 C   0  0  0  0  0  0  0  0  0  0  0  0
   -2.6357    3.0275   -0.0000 C   0  0  0  0  0  0  0  0  0  0  0  0
   -0.0356    3.0394   -0.0000 C   0  0  0  0  0  0  0  0  0  0  0  0
   -3.9180    0.7836   -0.0000 C   0  0  0  0  0  0  0  0  0  0  0  0
   -3.9298    2.2795   -0.0000 C   0  0  0  0  0  0  0  0  0  0  0  0
    1.2585    2.3033   -0.0000 N   0  0  0  0  0  0  0  0  0  0  0  0
   -5.2240    0.0475   -0.0000 N   0  0  0  0  0  0  0  0  0  0  0  0
    2.5407    3.0750   -0.0000 C   0  0  0  0  0  0  0  0  0  0  0  0
    1.2585    0.8192   -0.0000 C   0  0  0  0  0  0  0  0  0  0  0  0
   -5.2358   -1.4366   -0.0000 C   0  0  0  0  0  0  0  0  0  0  0  0
    3.8349    2.3508   -0.0000 C   0  0  0  0  0  0  0  0  0  0  0  0
    2.5526    0.0831   -0.0000 C   0  0  0  0  0  0  0  0  0  0  0  0
   -3.9536   -2.1727   -0.0000 O   0  0  0  0  0  0  0  0  0  0  0  0
   -6.5418   -2.1727   -0.0000 C   0  0  0  0  0  0  0  0  0  0  0  0
    5.2477    2.8257   -0.0000 N   0  0  0  0  0  0  0  0  0  0  0  0
    3.8230    0.8548   -0.0000 C   0  0  0  0  0  0  0  0  0  0  0  0
   -7.8478   -1.4128   -0.0000 C   0  0  0  0  0  0  0  0  0  0  0  0
   -6.5537   -3.6686   -0.0000 C   0  0  0  0  0  0  0  0  0  0  0  0
    6.1144    1.6266   -0.0000 N   0  0  0  0  0  0  0  0  0  0  0  0
    5.2358    0.4037   -0.0000 C   0  0  0  0  0  0  0  0  0  0  0  0
   -9.1538   -2.1489   -0.0000 C   0  0  0  0  0  0  0  0  0  0  0  0
   -7.8716   -4.4048   -0.0000 C   0  0  0  0  0  0  0  0  0  0  0  0
  -10.4598   -1.3891   -0.0000 C   0  0  0  0  0  0  0  0  0  0  0  0
   -9.1657   -3.6449   -0.0000 C   0  0  0  0  0  0  0  0  0  0  0  0
  -11.7777   -0.6293   -0.0000 C   0  0  0  0  0  0  0  0  0  0  0  0
  -10.4717   -4.3810   -0.0000 C   0  0  0  0  0  0  0  0  0  0  0  0
  -13.0837    0.1306   -0.0000 C   0  0  0  0  0  0  0  0  0  0  0  0
  -14.4609   -0.4630   -0.0000 N   0  0  0  0  0  0  0  0  0  0  0  0
  -13.2499    1.6384   -0.0000 C   0  0  0  0  0  0  0  0  0  0  0  0
  -14.9239   -1.8759   -0.0000 N   0  0  0  0  0  0  0  0  0  0  0  0
  -15.4819    0.6649   -0.0000 C   0  0  0  0  0  0  0  0  0  0  0  0
  -14.7221    1.9590   -0.0000 N   0  0  0  0  0  0  0  0  0  0  0  0
  -16.4080   -2.1846   -0.0000 C   0  0  0  0  0  0  0  0  0  0  0  0
  -16.9541    0.3562   -0.0000 C   0  0  0  0  0  0  0  0  0  0  0  0
  -17.4290   -1.0567   -0.0000 C   0  0  0  0  0  0  0  0  0  0  0  0
  1  2  1  0  0  0  0
  2  3  2  0  0  0  0
  2  4  1  0  0  0  0
  3  5  1  0  0  0  0
  3  6  1  0  0  0  0
  4  7  2  0  0  0  0
  5  8  2  0  0  0  0
  6  9  1  0  0  0  0
  7 10  1  0  0  0  0
  9 11  1  0  0  0  0
  9 12  1  0  0  0  0
 10 13  1  0  0  0  0
 11 14  1  0  0  0  0
 12 15  1  0  0  0  0
 13 16  2  0  0  0  0
 13 17  1  0  0  0  0
 14 18  1  0  0  0  0
 14 19  1  0  0  0  0
 17 20  2  0  0  0  0
 17 21  1  0  0  0  0
 18 22  1  0  0  0  0
 19 23  1  0  0  0  0
 20 24  1  0  0  0  0
 21 25  2  0  0  0  0
 24 26  1  0  0  0  0
 24 27  2  0  0  0  0
 26 28  3  0  0  0  0
 27 29  1  0  0  0  0
 28 30  1  0  0  0  0
 30 31  1  0  0  0  0
 30 32  2  0  0  0  0
 31 33  1  0  0  0  0
 31 34  1  0  0  0  0
 32 35  1  0  0  0  0
 33 36  2  0  0  0  0
 34 37  1  0  0  0  0
 36 38  1  0  0  0  0
  7  8  1  0  0  0  0
 15 19  1  0  0  0  0
 22 23  2  0  0  0  0
 25 27  1  0  0  0  0
 34 35  2  0  0  0  0
 37 38  2  0  0  0  0
M  END
>  <MolRegNo>
2476855

>  <m>
=

>  <Value>
5580

>  <Unit>
nM

>  <Type>
IC50

>  <pValue>
5.25

>  <Ligand Efficiency>
0

>  <Binding Efficiency>
0

>  <Surface Efficiency>
0

>  <Assay Index>
1355950

>  <Assay Category>


>  <Assay Organism>
Homo sapiens

>  <Target ID>
17045

>  <Target Name>
Cytochrome P450 3A4

>  <Target Organism>
Homo sapiens

>  <Target Description>
Target is a single protein chain

>  <Sequence Accession>
P08684

>  <Reference>
ACS Med Chem Lett 11 (4), 491-496 (2020)

>  <Pubmed ID>
32292555

>  <DOI>
10.1021/acsmedchemlett.9b00612

$$$$
2474060
Actelion Java MolfileCreator 1.0

 41 46  0  0  0  0  0  0  0  0999 V2000
    0.0000   -0.0000   -0.0000 O   0  0  0  0  0  0  0  0  0  0  0  0
   -1.3061    0.7599   -0.0000 C   0  0  0  0  0  0  0  0  0  0  0  0
   -1.3180    2.2678   -0.0000 N   0  0  0  0  0  0  0  0  0  0  0  0
   -2.6122    0.0237   -0.0000 C   0  0  0  0  0  0  0  0  0  0  0  0
   -0.0356    3.0277   -0.0000 C   0  0  0  0  0  0  0  0  0  0  0  0
   -3.9182    0.7836   -0.0000 C   0  0  0  0  0  0  0  0  0  0  0  0
   -2.6240   -1.4723   -0.0000 C   0  0  0  0  0  0  0  0  0  0  0  0
   -0.0594    4.5238   -0.0000 C   0  0  0  0  0  0  0  0  0  0  0  0
    1.2467    2.2916   -0.0000 C   0  0  0  0  0  0  0  0  0  0  0  0
   -5.2243    0.0475   -0.0000 C   0  0  0  0  0  0  0  0  0  0  0  0
   -3.9420   -2.2085   -0.0000 C   0  0  0  0  0  0  0  0  0  0  0  0
    1.2111    5.2956   -0.0000 C   0  0  0  0  0  0  0  0  0  0  0  0
    2.5290    3.0515   -0.0000 C   0  0  0  0  0  0  0  0  0  0  0  0
   -6.5304    0.8074   -0.0000 C   0  0  0  0  0  0  0  0  0  0  0  0
   -5.2362   -1.4486   -0.0000 C   0  0  0  0  0  0  0  0  0  0  0  0
    2.5053    4.5594   -0.0000 C   0  0  0  0  0  0  0  0  0  0  0  0
    1.1992    6.8035   -0.0000 C   0  0  0  0  0  0  0  0  0  0  0  0
   -7.8483    1.5673   -0.0000 C   0  0  0  0  0  0  0  0  0  0  0  0
   -6.5423   -2.1847   -0.0000 C   0  0  0  0  0  0  0  0  0  0  0  0
    3.7876    5.3312   -0.0000 C   0  0  0  0  0  0  0  0  0  0  0  0
    1.9235    8.1214   -0.0000 C   0  0  0  0  0  0  0  0  0  0  0  0
    0.4274    8.1096   -0.0000 C   0  0  0  0  0  0  0  0  0  0  0  0
   -9.1544    2.3272   -0.0000 C   0  0  0  0  0  0  0  0  0  0  0  0
    5.0818    4.5950   -0.0000 N   0  0  0  0  0  0  0  0  0  0  0  0
  -10.5317    1.7335   -0.0000 N   0  0  0  0  0  0  0  0  0  0  0  0
   -9.3206    3.8351   -0.0000 C   0  0  0  0  0  0  0  0  0  0  0  0
    6.3642    5.3668   -0.0000 C   0  0  0  0  0  0  0  0  0  0  0  0
    5.0818    3.1108   -0.0000 C   0  0  0  0  0  0  0  0  0  0  0  0
  -10.9948    0.3206   -0.0000 N   0  0  0  0  0  0  0  0  0  0  0  0
  -11.5529    2.8615   -0.0000 C   0  0  0  0  0  0  0  0  0  0  0  0
  -10.7930    4.1557   -0.0000 N   0  0  0  0  0  0  0  0  0  0  0  0
    7.6584    4.6306   -0.0000 C   0  0  0  0  0  0  0  0  0  0  0  0
    6.3760    2.3747   -0.0000 C   0  0  0  0  0  0  0  0  0  0  0  0
  -12.4790    0.0119   -0.0000 C   0  0  0  0  0  0  0  0  0  0  0  0
  -13.0252    2.5528   -0.0000 C   0  0  0  0  0  0  0  0  0  0  0  0
    7.6584    3.1465   -0.0000 N   0  0  0  0  0  0  0  0  0  0  0  0
  -13.5001    1.1398   -0.0000 C   0  0  0  0  0  0  0  0  0  0  0  0
    8.9526    2.4103   -0.0000 C   0  0  0  0  0  0  0  0  0  0  0  0
   10.2349    3.1821   -0.0000 C   0  0  0  0  0  0  0  0  0  0  0  0
   11.5291    2.4459   -0.0000 O   0  0  0  0  0  0  0  0  0  0  0  0
   12.8114    3.2177   -0.0000 C   0  0  0  0  0  0  0  0  0  0  0  0
  1  2  2  0  0  0  0
  2  3  1  0  0  0  0
  2  4  1  0  0  0  0
  3  5  1  0  0  0  0
  4  6  2  0  0  0  0
  4  7  1  0  0  0  0
  5  8  2  0  0  0  0
  5  9  1  0  0  0  0
  6 10  1  0  0  0  0
  7 11  2  0  0  0  0
  8 12  1  0  0  0  0
  9 13  2  0  0  0  0
 10 14  1  0  0  0  0
 10 15  2  0  0  0  0
 12 16  2  0  0  0  0
 12 17  1  0  0  0  0
 14 18  3  0  0  0  0
 15 19  1  0  0  0  0
 16 20  1  0  0  0  0
 17 21  1  0  0  0  0
 17 22  1  0  0  0  0
 18 23  1  0  0  0  0
 20 24  1  0  0  0  0
 23 25  1  0  0  0  0
 23 26  2  0  0  0  0
 24 27  1  0  0  0  0
 24 28  1  0  0  0  0
 25 29  1  0  0  0  0
 25 30  1  0  0  0  0
 26 31  1  0  0  0  0
 27 32  1  0  0  0  0
 28 33  1  0  0  0  0
 29 34  2  0  0  0  0
 30 35  1  0  0  0  0
 32 36  1  0  0  0  0
 34 37  1  0  0  0  0
 36 38  1  0  0  0  0
 38 39  1  0  0  0  0
 39 40  1  0  0  0  0
 40 41  1  0  0  0  0
 11 15  1  0  0  0  0
 13 16  1  0  0  0  0
 21 22  1  0  0  0  0
 30 31  2  0  0  0  0
 33 36  1  0  0  0  0
 35 37  2  0  0  0  0
M  END
>  <MolRegNo>
2474060

>  <m>
=

>  <Value>
13500

>  <Unit>
nM

>  <Type>
IC50

>  <pValue>
4.87

>  <Ligand Efficiency>
0

>  <Binding Efficiency>
0

>  <Surface Efficiency>
0

>  <Assay Index>
1355950

>  <Assay Category>


>  <Assay Organism>
Homo sapiens

>  <Target ID>
17045

>  <Target Name>
Cytochrome P450 3A4

>  <Target Organism>
Homo sapiens

>  <Target Description>
Target is a single protein chain

>  <Sequence Accession>
P08684

>  <Reference>
ACS Med Chem Lett 11 (4), 491-496 (2020)

>  <Pubmed ID>
32292555

>  <DOI>
10.1021/acsmedchemlett.9b00612

$$$$
2478695
Actelion Java MolfileCreator 1.0

 38 42  0  0  0  0  0  0  0  0999 V2000
    0.0000   -0.0000   -0.0000 Cl  0  0  0  0  0  0  0  0  0  0  0  0
    0.0000   -1.4872   -0.0000 C   0  0  0  0  0  0  0  0  0  0  0  0
    1.2968   -2.2248   -0.0000 C   0  0  0  0  0  0  0  0  0  0  0  0
   -1.2968   -2.2367   -0.0000 C   0  0  0  0  0  0  0  0  0  0  0  0
    1.2849   -3.7119   -0.0000 C   0  0  0  0  0  0  0  0  0  0  0  0
    2.5817   -1.4515   -0.0000 C   0  0  0  0  0  0  0  0  0  0  0  0
   -1.2968   -3.7119   -0.0000 C   0  0  0  0  0  0  0  0  0  0  0  0
   -0.0238   -4.4496   -0.0000 C   0  0  0  0  0  0  0  0  0  0  0  0
    3.8785   -2.1891   -0.0000 N   0  0  0  0  0  0  0  0  0  0  0  0
   -2.6055   -4.4496   -0.0000 N   0  0  0  0  0  0  0  0  0  0  0  0
    5.1634   -1.4158   -0.0000 C   0  0  0  0  0  0  0  0  0  0  0  0
    3.8785   -3.6762   -0.0000 C   0  0  0  0  0  0  0  0  0  0  0  0
   -2.6174   -5.9367   -0.0000 C   0  0  0  0  0  0  0  0  0  0  0  0
    6.4602   -2.1534   -0.0000 C   0  0  0  0  0  0  0  0  0  0  0  0
    5.1753   -4.4139   -0.0000 C   0  0  0  0  0  0  0  0  0  0  0  0
   -1.3325   -6.6744   -0.0000 O   0  0  0  0  0  0  0  0  0  0  0  0
   -3.9261   -6.6744   -0.0000 C   0  0  0  0  0  0  0  0  0  0  0  0
    6.4602   -3.6406   -0.0000 N   0  0  0  0  0  0  0  0  0  0  0  0
   -5.2348   -5.9129   -0.0000 C   0  0  0  0  0  0  0  0  0  0  0  0
   -3.9380   -8.1734   -0.0000 C   0  0  0  0  0  0  0  0  0  0  0  0
    7.7570   -4.3782   -0.0000 C   0  0  0  0  0  0  0  0  0  0  0  0
   -6.5435   -6.6506   -0.0000 C   0  0  0  0  0  0  0  0  0  0  0  0
   -5.2586   -8.9110   -0.0000 C   0  0  0  0  0  0  0  0  0  0  0  0
    9.0419   -3.6049   -0.0000 C   0  0  0  0  0  0  0  0  0  0  0  0
   -7.8522   -5.8891   -0.0000 C   0  0  0  0  0  0  0  0  0  0  0  0
   -6.5554   -8.1496   -0.0000 C   0  0  0  0  0  0  0  0  0  0  0  0
   10.3387   -4.3425   -0.0000 O   0  0  0  0  0  0  0  0  0  0  0  0
   -9.1728   -5.1277   -0.0000 C   0  0  0  0  0  0  0  0  0  0  0  0
   -7.8641   -8.8872   -0.0000 C   0  0  0  0  0  0  0  0  0  0  0  0
  -10.4815   -4.3663   -0.0000 C   0  0  0  0  0  0  0  0  0  0  0  0
  -11.8616   -4.9612   -0.0000 N   0  0  0  0  0  0  0  0  0  0  0  0
  -10.6480   -2.8553   -0.0000 C   0  0  0  0  0  0  0  0  0  0  0  0
  -12.3255   -6.3769   -0.0000 N   0  0  0  0  0  0  0  0  0  0  0  0
  -12.8847   -3.8309   -0.0000 C   0  0  0  0  0  0  0  0  0  0  0  0
  -12.1233   -2.5341   -0.0000 N   0  0  0  0  0  0  0  0  0  0  0  0
  -13.8127   -6.6863   -0.0000 C   0  0  0  0  0  0  0  0  0  0  0  0
  -14.3600   -4.1402   -0.0000 C   0  0  0  0  0  0  0  0  0  0  0  0
  -14.8359   -5.5560   -0.0000 C   0  0  0  0  0  0  0  0  0  0  0  0
  1  2  1  0  0  0  0
  2  3  2  0  0  0  0
  2  4  1  0  0  0  0
  3  5  1  0  0  0  0
  3  6  1  0  0  0  0
  4  7  2  0  0  0  0
  5  8  2  0  0  0  0
  6  9  1  0  0  0  0
  7 10  1  0  0  0  0
  9 11  1  0  0  0  0
  9 12  1  0  0  0  0
 10 13  1  0  0  0  0
 11 14  1  0  0  0  0
 12 15  1  0  0  0  0
 13 16  2  0  0  0  0
 13 17  1  0  0  0  0
 14 18  1  0  0  0  0
 17 19  2  0  0  0  0
 17 20  1  0  0  0  0
 18 21  1  0  0  0  0
 19 22  1  0  0  0  0
 20 23  2  0  0  0  0
 21 24  1  0  0  0  0
 22 25  1  0  0  0  0
 22 26  2  0  0  0  0
 24 27  1  0  0  0  0
 25 28  3  0  0  0  0
 26 29  1  0  0  0  0
 28 30  1  0  0  0  0
 30 31  1  0  0  0  0
 30 32  2  0  0  0  0
 31 33  1  0  0  0  0
 31 34  1  0  0  0  0
 32 35  1  0  0  0  0
 33 36  2  0  0  0  0
 34 37  1  0  0  0  0
 36 38  1  0  0  0  0
  7  8  1  0  0  0  0
 15 18  1  0  0  0  0
 23 26  1  0  0  0  0
 34 35  2  0  0  0  0
 37 38  2  0  0  0  0
M  END
>  <MolRegNo>
2478695

>  <m>
=

>  <Value>
13400

>  <Unit>
nM

>  <Type>
IC50

>  <pValue>
4.87

>  <Ligand Efficiency>
0

>  <Binding Efficiency>
0

>  <Surface Efficiency>
0

>  <Assay Index>
1355950

>  <Assay Category>


>  <Assay Organism>
Homo sapiens

>  <Target ID>
17045

>  <Target Name>
Cytochrome P450 3A4

>  <Target Organism>
Homo sapiens

>  <Target Description>
Target is a single protein chain

>  <Sequence Accession>
P08684

>  <Reference>
ACS Med Chem Lett 11 (4), 491-496 (2020)

>  <Pubmed ID>
32292555

>  <DOI>
10.1021/acsmedchemlett.9b00612

$$$$
2469031
Actelion Java MolfileCreator 1.0

 40 45  0  0  0  0  0  0  0  0999 V2000
    0.0000   -0.0000   -0.0000 O   0  0  0  0  0  0  0  0  0  0  0  0
   -1.3176    0.7597   -0.0000 C   0  0  0  0  0  0  0  0  0  0  0  0
   -1.3294    2.2672   -0.0000 N   0  0  0  0  0  0  0  0  0  0  0  0
   -2.6233    0.0119   -0.0000 C   0  0  0  0  0  0  0  0  0  0  0  0
   -0.0475    3.0269   -0.0000 C   0  0  0  0  0  0  0  0  0  0  0  0
   -3.9290    0.7716   -0.0000 C   0  0  0  0  0  0  0  0  0  0  0  0
   -2.6351   -1.4838   -0.0000 C   0  0  0  0  0  0  0  0  0  0  0  0
   -0.0712    4.5225   -0.0000 C   0  0  0  0  0  0  0  0  0  0  0  0
    1.2345    2.2909   -0.0000 C   0  0  0  0  0  0  0  0  0  0  0  0
   -5.2347    0.0356   -0.0000 C   0  0  0  0  0  0  0  0  0  0  0  0
   -3.9527   -2.2197   -0.0000 C   0  0  0  0  0  0  0  0  0  0  0  0
    1.1989    5.2940   -0.0000 C   0  0  0  0  0  0  0  0  0  0  0  0
    2.5164    3.0506   -0.0000 C   0  0  0  0  0  0  0  0  0  0  0  0
   -6.5404    0.7953   -0.0000 C   0  0  0  0  0  0  0  0  0  0  0  0
   -5.2465   -1.4600   -0.0000 C   0  0  0  0  0  0  0  0  0  0  0  0
    2.4927    4.5581   -0.0000 C   0  0  0  0  0  0  0  0  0  0  0  0
    1.1870    6.8015   -0.0000 C   0  0  0  0  0  0  0  0  0  0  0  0
   -7.8579    1.5550   -0.0000 C   0  0  0  0  0  0  0  0  0  0  0  0
   -6.5522   -2.1960   -0.0000 C   0  0  0  0  0  0  0  0  0  0  0  0
    3.7747    5.3296   -0.0000 C   0  0  0  0  0  0  0  0  0  0  0  0
    1.9111    8.1191   -0.0000 C   0  0  0  0  0  0  0  0  0  0  0  0
    0.4155    8.1072   -0.0000 C   0  0  0  0  0  0  0  0  0  0  0  0
   -9.1636    2.3147   -0.0000 C   0  0  0  0  0  0  0  0  0  0  0  0
    5.0685    4.5937   -0.0000 N   0  0  0  0  0  0  0  0  0  0  0  0
  -10.5406    1.7212   -0.0000 N   0  0  0  0  0  0  0  0  0  0  0  0
   -9.3298    3.8221   -0.0000 C   0  0  0  0  0  0  0  0  0  0  0  0
    6.3505    5.3652   -0.0000 C   0  0  0  0  0  0  0  0  0  0  0  0
    5.0685    3.1099   -0.0000 C   0  0  0  0  0  0  0  0  0  0  0  0
  -11.0035    0.3086   -0.0000 N   0  0  0  0  0  0  0  0  0  0  0  0
  -11.5614    2.8488   -0.0000 C   0  0  0  0  0  0  0  0  0  0  0  0
  -10.8017    4.1426   -0.0000 N   0  0  0  0  0  0  0  0  0  0  0  0
    7.6443    4.6293   -0.0000 C   0  0  0  0  0  0  0  0  0  0  0  0
    6.3623    2.3740   -0.0000 C   0  0  0  0  0  0  0  0  0  0  0  0
  -12.4872   -0.0000   -0.0000 C   0  0  0  0  0  0  0  0  0  0  0  0
  -13.0333    2.5402   -0.0000 C   0  0  0  0  0  0  0  0  0  0  0  0
    7.6443    3.1456   -0.0000 N   0  0  0  0  0  0  0  0  0  0  0  0
  -13.5081    1.1277   -0.0000 C   0  0  0  0  0  0  0  0  0  0  0  0
    8.9381    2.4096   -0.0000 C   0  0  0  0  0  0  0  0  0  0  0  0
   10.2201    3.1812   -0.0000 C   0  0  0  0  0  0  0  0  0  0  0  0
   11.5139    2.4452   -0.0000 O   0  0  0  0  0  0  0  0  0  0  0  0
  1  2  2  0  0  0  0
  2  3  1  0  0  0  0
  2  4  1  0  0  0  0
  3  5  1  0  0  0  0
  4  6  2  0  0  0  0
  4  7  1  0  0  0  0
  5  8  2  0  0  0  0
  5  9  1  0  0  0  0
  6 10  1  0  0  0  0
  7 11  2  0  0  0  0
  8 12  1  0  0  0  0
  9 13  2  0  0  0  0
 10 14  1  0  0  0  0
 10 15  2  0  0  0  0
 12 16  2  0  0  0  0
 12 17  1  0  0  0  0
 14 18  3  0  0  0  0
 15 19  1  0  0  0  0
 16 20  1  0  0  0  0
 17 21  1  0  0  0  0
 17 22  1  0  0  0  0
 18 23  1  0  0  0  0
 20 24  1  0  0  0  0
 23 25  1  0  0  0  0
 23 26  2  0  0  0  0
 24 27  1  0  0  0  0
 24 28  1  0  0  0  0
 25 29  1  0  0  0  0
 25 30  1  0  0  0  0
 26 31  1  0  0  0  0
 27 32  1  0  0  0  0
 28 33  1  0  0  0  0
 29 34  2  0  0  0  0
 30 35  1  0  0  0  0
 32 36  1  0  0  0  0
 34 37  1  0  0  0  0
 36 38  1  0  0  0  0
 38 39  1  0  0  0  0
 39 40  1  0  0  0  0
 11 15  1  0  0  0  0
 13 16  1  0  0  0  0
 21 22  1  0  0  0  0
 30 31  2  0  0  0  0
 33 36  1  0  0  0  0
 35 37  2  0  0  0  0
M  END
>  <MolRegNo>
2469031

>  <m>
=

>  <Value>
11700

>  <Unit>
nM

>  <Type>
IC50

>  <pValue>
4.93

>  <Ligand Efficiency>
0

>  <Binding Efficiency>
0

>  <Surface Efficiency>
0

>  <Assay Index>
1355950

>  <Assay Category>


>  <Assay Organism>
Homo sapiens

>  <Target ID>
17045

>  <Target Name>
Cytochrome P450 3A4

>  <Target Organism>
Homo sapiens

>  <Target Description>
Target is a single protein chain

>  <Sequence Accession>
P08684

>  <Reference>
ACS Med Chem Lett 11 (4), 491-496 (2020)

>  <Pubmed ID>
32292555

>  <DOI>
10.1021/acsmedchemlett.9b00612

$$$$
2475539
Actelion Java MolfileCreator 1.0

 37 42  0  0  0  0  0  0  0  0999 V2000
    0.0000   -0.0000   -0.0000 Cl  0  0  0  0  0  0  0  0  0  0  0  0
   -1.3070    0.7604   -0.0000 C   0  0  0  0  0  0  0  0  0  0  0  0
   -1.3189    2.2694   -0.0000 C   0  0  0  0  0  0  0  0  0  0  0  0
   -2.6140    0.0238   -0.0000 C   0  0  0  0  0  0  0  0  0  0  0  0
   -2.6377    3.0298   -0.0000 C   0  0  0  0  0  0  0  0  0  0  0  0
   -0.0356    3.0417   -0.0000 C   0  0  0  0  0  0  0  0  0  0  0  0
   -3.9209    0.7842   -0.0000 C   0  0  0  0  0  0  0  0  0  0  0  0
   -3.9328    2.2813   -0.0000 C   0  0  0  0  0  0  0  0  0  0  0  0
    1.2595    2.3050   -0.0000 N   0  0  0  0  0  0  0  0  0  0  0  0
   -5.2279    0.0475   -0.0000 N   0  0  0  0  0  0  0  0  0  0  0  0
    1.4139    0.8317   -0.0000 C   0  0  0  0  0  0  0  0  0  0  0  0
    2.6140    2.9348   -0.0000 C   0  0  0  0  0  0  0  0  0  0  0  0
   -5.2398   -1.4377   -0.0000 C   0  0  0  0  0  0  0  0  0  0  0  0
    2.8754    0.5466   -0.0000 C   0  0  0  0  0  0  0  0  0  0  0  0
    3.6120    1.8417   -0.0000 C   0  0  0  0  0  0  0  0  0  0  0  0
   -3.9566   -2.1743   -0.0000 O   0  0  0  0  0  0  0  0  0  0  0  0
   -6.5468   -2.1743   -0.0000 C   0  0  0  0  0  0  0  0  0  0  0  0
    3.8734   -0.5466   -0.0000 N   0  0  0  0  0  0  0  0  0  0  0  0
    5.0616    1.5565   -0.0000 C   0  0  0  0  0  0  0  0  0  0  0  0
   -7.8538   -1.4139   -0.0000 C   0  0  0  0  0  0  0  0  0  0  0  0
   -6.5587   -3.6714   -0.0000 C   0  0  0  0  0  0  0  0  0  0  0  0
    5.2160    0.0832   -0.0000 N   0  0  0  0  0  0  0  0  0  0  0  0
   -9.1608   -2.1506   -0.0000 C   0  0  0  0  0  0  0  0  0  0  0  0
   -7.8775   -4.4081   -0.0000 C   0  0  0  0  0  0  0  0  0  0  0  0
  -10.4677   -1.3902   -0.0000 C   0  0  0  0  0  0  0  0  0  0  0  0
   -9.1726   -3.6477   -0.0000 C   0  0  0  0  0  0  0  0  0  0  0  0
  -11.7866   -0.6297   -0.0000 C   0  0  0  0  0  0  0  0  0  0  0  0
  -10.4796   -4.3843   -0.0000 C   0  0  0  0  0  0  0  0  0  0  0  0
  -13.0936    0.1307   -0.0000 C   0  0  0  0  0  0  0  0  0  0  0  0
  -14.4719   -0.4634   -0.0000 N   0  0  0  0  0  0  0  0  0  0  0  0
  -13.2599    1.6397   -0.0000 C   0  0  0  0  0  0  0  0  0  0  0  0
  -14.9352   -1.8773   -0.0000 N   0  0  0  0  0  0  0  0  0  0  0  0
  -15.4937    0.6654   -0.0000 C   0  0  0  0  0  0  0  0  0  0  0  0
  -14.7333    1.9605   -0.0000 N   0  0  0  0  0  0  0  0  0  0  0  0
  -16.4204   -2.1862   -0.0000 C   0  0  0  0  0  0  0  0  0  0  0  0
  -16.9670    0.3564   -0.0000 C   0  0  0  0  0  0  0  0  0  0  0  0
  -17.4423   -1.0575   -0.0000 C   0  0  0  0  0  0  0  0  0  0  0  0
  1  2  1  0  0  0  0
  2  3  2  0  0  0  0
  2  4  1  0  0  0  0
  3  5  1  0  0  0  0
  3  6  1  0  0  0  0
  4  7  2  0  0  0  0
  5  8  2  0  0  0  0
  6  9  1  0  0  0  0
  7 10  1  0  0  0  0
  9 11  1  0  0  0  0
  9 12  1  0  0  0  0
 10 13  1  0  0  0  0
 11 14  1  0  0  0  0
 12 15  1  0  0  0  0
 13 16  2  0  0  0  0
 13 17  1  0  0  0  0
 14 18  1  0  0  0  0
 15 19  1  0  0  0  0
 17 20  2  0  0  0  0
 17 21  1  0  0  0  0
 18 22  1  0  0  0  0
 20 23  1  0  0  0  0
 21 24  2  0  0  0  0
 23 25  1  0  0  0  0
 23 26  2  0  0  0  0
 25 27  3  0  0  0  0
 26 28  1  0  0  0  0
 27 29  1  0  0  0  0
 29 30  1  0  0  0  0
 29 31  2  0  0  0  0
 30 32  1  0  0  0  0
 30 33  1  0  0  0  0
 31 34  1  0  0  0  0
 32 35  2  0  0  0  0
 33 36  1  0  0  0  0
 35 37  1  0  0  0  0
  7  8  1  0  0  0  0
 14 15  2  0  0  0  0
 19 22  2  0  0  0  0
 24 26  1  0  0  0  0
 33 34  2  0  0  0  0
 36 37  2  0  0  0  0
M  END
>  <MolRegNo>
2475539

>  <m>
=

>  <Value>
7280

>  <Unit>
nM

>  <Type>
IC50

>  <pValue>
5.14

>  <Ligand Efficiency>
0

>  <Binding Efficiency>
0

>  <Surface Efficiency>
0

>  <Assay Index>
1355950

>  <Assay Category>


>  <Assay Organism>
Homo sapiens

>  <Target ID>
17045

>  <Target Name>
Cytochrome P450 3A4

>  <Target Organism>
Homo sapiens

>  <Target Description>
Target is a single protein chain

>  <Sequence Accession>
P08684

>  <Reference>
ACS Med Chem Lett 11 (4), 491-496 (2020)

>  <Pubmed ID>
32292555

>  <DOI>
10.1021/acsmedchemlett.9b00612

$$$$
2469927
Actelion Java MolfileCreator 1.0

 39 44  0  0  0  0  0  0  0  0999 V2000
    0.0000   -0.0000   -0.0000 Cl  0  0  0  0  0  0  0  0  0  0  0  0
   -1.3076    0.7608   -0.0000 C   0  0  0  0  0  0  0  0  0  0  0  0
   -1.3195    2.2704   -0.0000 C   0  0  0  0  0  0  0  0  0  0  0  0
   -2.6152    0.0238   -0.0000 C   0  0  0  0  0  0  0  0  0  0  0  0
   -2.6389    3.0312   -0.0000 C   0  0  0  0  0  0  0  0  0  0  0  0
   -0.0357    3.0431   -0.0000 C   0  0  0  0  0  0  0  0  0  0  0  0
   -3.9227    0.7845   -0.0000 C   0  0  0  0  0  0  0  0  0  0  0  0
   -3.9346    2.2823   -0.0000 C   0  0  0  0  0  0  0  0  0  0  0  0
    1.2600    2.3061   -0.0000 N   0  0  0  0  0  0  0  0  0  0  0  0
   -5.2303    0.0475   -0.0000 N   0  0  0  0  0  0  0  0  0  0  0  0
    2.6152    2.9361   -0.0000 C   0  0  0  0  0  0  0  0  0  0  0  0
    1.4146    0.8321   -0.0000 C   0  0  0  0  0  0  0  0  0  0  0  0
   -5.2422   -1.4383   -0.0000 C   0  0  0  0  0  0  0  0  0  0  0  0
    3.6137    1.8425   -0.0000 C   0  0  0  0  0  0  0  0  0  0  0  0
    2.8767    0.5468   -0.0000 C   0  0  0  0  0  0  0  0  0  0  0  0
   -3.9584   -2.1753   -0.0000 O   0  0  0  0  0  0  0  0  0  0  0  0
   -6.5498   -2.1753   -0.0000 C   0  0  0  0  0  0  0  0  0  0  0  0
    5.0877    1.8782   -0.0000 C   0  0  0  0  0  0  0  0  0  0  0  0
    3.6256   -0.7251   -0.0000 C   0  0  0  0  0  0  0  0  0  0  0  0
   -7.8574   -1.4146   -0.0000 C   0  0  0  0  0  0  0  0  0  0  0  0
   -6.5617   -3.6731   -0.0000 C   0  0  0  0  0  0  0  0  0  0  0  0
    5.8485    0.6062   -0.0000 C   0  0  0  0  0  0  0  0  0  0  0  0
    5.1115   -0.6895   -0.0000 C   0  0  0  0  0  0  0  0  0  0  0  0
   -9.1650   -2.1516   -0.0000 C   0  0  0  0  0  0  0  0  0  0  0  0
   -7.8811   -4.4101   -0.0000 C   0  0  0  0  0  0  0  0  0  0  0  0
    7.3343    0.6419   -0.0000 O   0  0  0  0  0  0  0  0  0  0  0  0
  -10.4725   -1.3908   -0.0000 C   0  0  0  0  0  0  0  0  0  0  0  0
   -9.1768   -3.6493   -0.0000 C   0  0  0  0  0  0  0  0  0  0  0  0
  -11.7920   -0.6300   -0.0000 C   0  0  0  0  0  0  0  0  0  0  0  0
  -10.4844   -4.3863   -0.0000 C   0  0  0  0  0  0  0  0  0  0  0  0
  -13.0996    0.1308   -0.0000 C   0  0  0  0  0  0  0  0  0  0  0  0
  -14.4785   -0.4636   -0.0000 N   0  0  0  0  0  0  0  0  0  0  0  0
  -13.2660    1.6404   -0.0000 C   0  0  0  0  0  0  0  0  0  0  0  0
  -14.9421   -1.8782   -0.0000 N   0  0  0  0  0  0  0  0  0  0  0  0
  -15.5008    0.6657   -0.0000 C   0  0  0  0  0  0  0  0  0  0  0  0
  -14.7400    1.9614   -0.0000 N   0  0  0  0  0  0  0  0  0  0  0  0
  -16.4280   -2.1872   -0.0000 C   0  0  0  0  0  0  0  0  0  0  0  0
  -16.9748    0.3566   -0.0000 C   0  0  0  0  0  0  0  0  0  0  0  0
  -17.4503   -1.0580   -0.0000 C   0  0  0  0  0  0  0  0  0  0  0  0
  1  2  1  0  0  0  0
  2  3  2  0  0  0  0
  2  4  1  0  0  0  0
  3  5  1  0  0  0  0
  3  6  1  0  0  0  0
  4  7  2  0  0  0  0
  5  8  2  0  0  0  0
  6  9  1  0  0  0  0
  7 10  1  0  0  0  0
  9 11  1  0  0  0  0
  9 12  1  0  0  0  0
 10 13  1  0  0  0  0
 11 14  1  0  0  0  0
 12 15  1  0  0  0  0
 13 16  2  0  0  0  0
 13 17  1  0  0  0  0
 14 18  1  0  0  0  0
 15 19  1  0  0  0  0
 17 20  2  0  0  0  0
 17 21  1  0  0  0  0
 18 22  2  0  0  0  0
 19 23  2  0  0  0  0
 20 24  1  0  0  0  0
 21 25  2  0  0  0  0
 22 26  1  0  0  0  0
 24 27  1  0  0  0  0
 24 28  2  0  0  0  0
 27 29  3  0  0  0  0
 28 30  1  0  0  0  0
 29 31  1  0  0  0  0
 31 32  1  0  0  0  0
 31 33  2  0  0  0  0
 32 34  1  0  0  0  0
 32 35  1  0  0  0  0
 33 36  1  0  0  0  0
 34 37  2  0  0  0  0
 35 38  1  0  0  0  0
 37 39  1  0  0  0  0
  7  8  1  0  0  0  0
 14 15  2  0  0  0  0
 22 23  1  0  0  0  0
 25 28  1  0  0  0  0
 35 36  2  0  0  0  0
 38 39  2  0  0  0  0
M  END
>  <MolRegNo>
2469927

>  <m>
=

>  <Value>
4610

>  <Unit>
nM

>  <Type>
IC50

>  <pValue>
5.34

>  <Ligand Efficiency>
0

>  <Binding Efficiency>
0

>  <Surface Efficiency>
0

>  <Assay Index>
1355950

>  <Assay Category>


>  <Assay Organism>
Homo sapiens

>  <Target ID>
17045

>  <Target Name>
Cytochrome P450 3A4

>  <Target Organism>
Homo sapiens

>  <Target Description>
Target is a single protein chain

>  <Sequence Accession>
P08684

>  <Reference>
ACS Med Chem Lett 11 (4), 491-496 (2020)

>  <Pubmed ID>
32292555

>  <DOI>
10.1021/acsmedchemlett.9b00612

$$$$
426660
Actelion Java MolfileCreator 1.0

 39 43  0  0  0  0  0  0  0  0999 V2000
    0.0000   -0.0000   -0.0000 F   0  0  0  0  0  0  0  0  0  0  0  0
   -1.4960   -0.1414   -0.0000 C   0  0  0  0  0  0  0  0  0  0  0  0
   -1.3546   -1.6138   -0.0000 F   0  0  0  0  0  0  0  0  0  0  0  0
   -1.6609    1.3546   -0.0000 F   0  0  0  0  0  0  0  0  0  0  0  0
   -2.9919   -0.2827   -0.0000 C   0  0  0  0  0  0  0  0  0  0  0  0
   -3.8872    0.9423   -0.0000 C   0  0  0  0  0  0  0  0  0  0  0  0
   -3.6162   -1.6373   -0.0000 C   0  0  0  0  0  0  0  0  0  0  0  0
   -5.3831    0.8010   -0.0000 C   0  0  0  0  0  0  0  0  0  0  0  0
   -5.1122   -1.7787   -0.0000 C   0  0  0  0  0  0  0  0  0  0  0  0
   -6.2784    2.0260   -0.0000 N   0  0  0  0  0  0  0  0  0  0  0  0
   -6.0074   -0.5536   -0.0000 C   0  0  0  0  0  0  0  0  0  0  0  0
   -5.7365   -3.1333   -0.0000 N   0  0  0  0  0  0  0  0  0  0  0  0
   -7.7861    2.0378   -0.0000 C   0  0  0  0  0  0  0  0  0  0  0  0
   -5.8307    3.4631   -0.0000 C   0  0  0  0  0  0  0  0  0  0  0  0
   -7.2325   -3.2746   -0.0000 C   0  0  0  0  0  0  0  0  0  0  0  0
   -8.2573    3.4749   -0.0000 N   0  0  0  0  0  0  0  0  0  0  0  0
   -7.0558    4.3583   -0.0000 C   0  0  0  0  0  0  0  0  0  0  0  0
   -8.1277   -2.0496   -0.0000 O   0  0  0  0  0  0  0  0  0  0  0  0
   -7.8568   -4.6293   -0.0000 C   0  0  0  0  0  0  0  0  0  0  0  0
   -7.0676    5.8661   -0.0000 C   0  0  0  0  0  0  0  0  0  0  0  0
   -9.3527   -4.7706   -0.0000 C   0  0  0  0  0  0  0  0  0  0  0  0
   -6.9851   -5.8307   -0.0000 C   0  0  0  0  0  0  0  0  0  0  0  0
   -9.9770   -6.1252   -0.0000 C   0  0  0  0  0  0  0  0  0  0  0  0
   -7.6094   -7.1854   -0.0000 C   0  0  0  0  0  0  0  0  0  0  0  0
  -11.4730   -6.2666   -0.0000 N   0  0  0  0  0  0  0  0  0  0  0  0
   -9.1054   -7.3267   -0.0000 C   0  0  0  0  0  0  0  0  0  0  0  0
  -12.0973   -7.6212   -0.0000 C   0  0  0  0  0  0  0  0  0  0  0  0
   -9.7297   -8.6813   -0.0000 C   0  0  0  0  0  0  0  0  0  0  0  0
  -13.5933   -7.7625   -0.0000 N   0  0  0  0  0  0  0  0  0  0  0  0
  -11.2256   -8.8227   -0.0000 N   0  0  0  0  0  0  0  0  0  0  0  0
  -14.2176   -9.1172   -0.0000 C   0  0  0  0  0  0  0  0  0  0  0  0
  -11.8499  -10.1773   -0.0000 C   0  0  0  0  0  0  0  0  0  0  0  0
  -15.7135   -9.2585   -0.0000 C   0  0  0  0  0  0  0  0  0  0  0  0
  -13.3459  -10.3186   -0.0000 C   0  0  0  0  0  0  0  0  0  0  0  0
  -16.6088   -8.0335   -0.0000 C   0  0  0  0  0  0  0  0  0  0  0  0
  -16.3378  -10.6131   -0.0000 C   0  0  0  0  0  0  0  0  0  0  0  0
  -18.1047   -8.1748   -0.0000 N   0  0  0  0  0  0  0  0  0  0  0  0
  -17.8338  -10.7545   -0.0000 C   0  0  0  0  0  0  0  0  0  0  0  0
  -18.7290   -9.5294   -0.0000 C   0  0  0  0  0  0  0  0  0  0  0  0
  1  2  1  0  0  0  0
  2  3  1  0  0  0  0
  2  4  1  0  0  0  0
  2  5  1  0  0  0  0
  5  6  2  0  0  0  0
  5  7  1  0  0  0  0
  6  8  1  0  0  0  0
  7  9  2  0  0  0  0
  8 10  1  0  0  0  0
  8 11  2  0  0  0  0
  9 12  1  0  0  0  0
 10 13  1  0  0  0  0
 10 14  1  0  0  0  0
 12 15  1  0  0  0  0
 13 16  2  0  0  0  0
 14 17  2  0  0  0  0
 15 18  2  0  0  0  0
 15 19  1  0  0  0  0
 17 20  1  0  0  0  0
 19 21  2  0  0  0  0
 19 22  1  0  0  0  0
 21 23  1  0  0  0  0
 22 24  2  0  0  0  0
 23 25  1  0  0  0  0
 23 26  2  0  0  0  0
 25 27  1  0  0  0  0
 26 28  1  0  0  0  0
 27 29  2  0  0  0  0
 27 30  1  0  0  0  0
 29 31  1  0  0  0  0
 30 32  2  0  0  0  0
 31 33  1  0  0  0  0
 31 34  2  0  0  0  0
 33 35  2  0  0  0  0
 33 36  1  0  0  0  0
 35 37  1  0  0  0  0
 36 38  2  0  0  0  0
 37 39  2  0  0  0  0
  9 11  1  0  0  0  0
 16 17  1  0  0  0  0
 24 26  1  0  0  0  0
 32 34  1  0  0  0  0
 38 39  1  0  0  0  0
M  END
>  <MolRegNo>
426660

>  <m>
=

>  <Value>
580

>  <Unit>
nM

>  <Type>
IC50

>  <pValue>
6.24

>  <Ligand Efficiency>
0

>  <Binding Efficiency>
0

>  <Surface Efficiency>
0

>  <Assay Index>
1355950

>  <Assay Category>


>  <Assay Organism>
Homo sapiens

>  <Target ID>
17045

>  <Target Name>
Cytochrome P450 3A4

>  <Target Organism>
Homo sapiens

>  <Target Description>
Target is a single protein chain

>  <Sequence Accession>
P08684

>  <Reference>
ACS Med Chem Lett 11 (4), 491-496 (2020)

>  <Pubmed ID>
32292555

>  <DOI>
10.1021/acsmedchemlett.9b00612

$$$$
649637
Actelion Java MolfileCreator 1.0

 39 43  0  0  0  0  0  0  0  0999 V2000
    0.0000   -0.0000   -0.0000 F   0  0  0  0  0  0  0  0  0  0  0  0
   -0.0118   -1.4890   -0.0000 C   0  0  0  0  0  0  0  0  0  0  0  0
    1.2763   -0.7327   -0.0000 F   0  0  0  0  0  0  0  0  0  0  0  0
   -1.0872   -0.4136   -0.0000 F   0  0  0  0  0  0  0  0  0  0  0  0
   -1.3235   -2.2216   -0.0000 C   0  0  0  0  0  0  0  0  0  0  0  0
   -1.3353   -3.7106   -0.0000 C   0  0  0  0  0  0  0  0  0  0  0  0
   -2.6352   -1.4653   -0.0000 C   0  0  0  0  0  0  0  0  0  0  0  0
   -2.6470   -4.4433   -0.0000 C   0  0  0  0  0  0  0  0  0  0  0  0
   -0.0473   -4.4433   -0.0000 C   0  0  0  0  0  0  0  0  0  0  0  0
   -3.9469   -2.1980   -0.0000 C   0  0  0  0  0  0  0  0  0  0  0  0
   -3.9588   -3.6870   -0.0000 C   0  0  0  0  0  0  0  0  0  0  0  0
    1.2408   -3.6870   -0.0000 N   0  0  0  0  0  0  0  0  0  0  0  0
   -5.2586   -1.4417   -0.0000 N   0  0  0  0  0  0  0  0  0  0  0  0
    1.2290   -2.1744   -0.0000 C   0  0  0  0  0  0  0  0  0  0  0  0
    2.5289   -4.4196   -0.0000 C   0  0  0  0  0  0  0  0  0  0  0  0
   -6.5703   -2.1744   -0.0000 C   0  0  0  0  0  0  0  0  0  0  0  0
    2.5171   -1.4181   -0.0000 C   0  0  0  0  0  0  0  0  0  0  0  0
    3.8169   -3.6633   -0.0000 C   0  0  0  0  0  0  0  0  0  0  0  0
   -6.5822   -3.6633   -0.0000 O   0  0  0  0  0  0  0  0  0  0  0  0
   -7.8821   -1.4181   -0.0000 C   0  0  0  0  0  0  0  0  0  0  0  0
    3.8051   -2.1507   -0.0000 N   0  0  0  0  0  0  0  0  0  0  0  0
   -9.1938   -2.1507   -0.0000 C   0  0  0  0  0  0  0  0  0  0  0  0
   -7.8939    0.0945   -0.0000 C   0  0  0  0  0  0  0  0  0  0  0  0
    5.0932   -1.3944   -0.0000 C   0  0  0  0  0  0  0  0  0  0  0  0
  -10.5055   -1.3944   -0.0000 C   0  0  0  0  0  0  0  0  0  0  0  0
   -9.2056    0.8627   -0.0000 C   0  0  0  0  0  0  0  0  0  0  0  0
  -11.8172   -2.1271   -0.0000 C   0  0  0  0  0  0  0  0  0  0  0  0
  -10.5173    0.1182   -0.0000 C   0  0  0  0  0  0  0  0  0  0  0  0
  -13.1289   -2.8598   -0.0000 C   0  0  0  0  0  0  0  0  0  0  0  0
  -11.8290    0.8745   -0.0000 C   0  0  0  0  0  0  0  0  0  0  0  0
  -14.4406   -3.5924   -0.0000 C   0  0  0  0  0  0  0  0  0  0  0  0
  -14.1452   -5.0459   -0.0000 N   0  0  0  0  0  0  0  0  0  0  0  0
  -15.9414   -3.4270   -0.0000 C   0  0  0  0  0  0  0  0  0  0  0  0
  -12.8571   -5.7786   -0.0000 N   0  0  0  0  0  0  0  0  0  0  0  0
  -15.4569   -5.7786   -0.0000 C   0  0  0  0  0  0  0  0  0  0  0  0
  -16.5677   -4.7860   -0.0000 N   0  0  0  0  0  0  0  0  0  0  0  0
  -12.8689   -7.2676   -0.0000 C   0  0  0  0  0  0  0  0  0  0  0  0
  -15.4687   -7.2676   -0.0000 C   0  0  0  0  0  0  0  0  0  0  0  0
  -14.1806   -8.0002   -0.0000 C   0  0  0  0  0  0  0  0  0  0  0  0
  1  2  1  0  0  0  0
  2  3  1  0  0  0  0
  2  4  1  0  0  0  0
  2  5  1  0  0  0  0
  5  6  2  0  0  0  0
  5  7  1  0  0  0  0
  6  8  1  0  0  0  0
  6  9  1  0  0  0  0
  7 10  2  0  0  0  0
  8 11  2  0  0  0  0
  9 12  1  0  0  0  0
 10 13  1  0  0  0  0
 12 14  1  0  0  0  0
 12 15  1  0  0  0  0
 13 16  1  0  0  0  0
 14 17  1  0  0  0  0
 15 18  1  0  0  0  0
 16 19  2  0  0  0  0
 16 20  1  0  0  0  0
 17 21  1  0  0  0  0
 20 22  2  0  0  0  0
 20 23  1  0  0  0  0
 21 24  1  0  0  0  0
 22 25  1  0  0  0  0
 23 26  2  0  0  0  0
 25 27  1  0  0  0  0
 25 28  2  0  0  0  0
 27 29  3  0  0  0  0
 28 30  1  0  0  0  0
 29 31  1  0  0  0  0
 31 32  1  0  0  0  0
 31 33  2  0  0  0  0
 32 34  1  0  0  0  0
 32 35  1  0  0  0  0
 33 36  1  0  0  0  0
 34 37  2  0  0  0  0
 35 38  1  0  0  0  0
 37 39  1  0  0  0  0
 10 11  1  0  0  0  0
 18 21  1  0  0  0  0
 26 28  1  0  0  0  0
 35 36  2  0  0  0  0
 38 39  2  0  0  0  0
M  END
>  <MolRegNo>
649637

>  <m>
=

>  <Value>
11400

>  <Unit>
nM

>  <Type>
IC50

>  <pValue>
4.94

>  <Ligand Efficiency>
0

>  <Binding Efficiency>
0

>  <Surface Efficiency>
0

>  <Assay Index>
1355950

>  <Assay Category>


>  <Assay Organism>
Homo sapiens

>  <Target ID>
17045

>  <Target Name>
Cytochrome P450 3A4

>  <Target Organism>
Homo sapiens

>  <Target Description>
Target is a single protein chain

>  <Sequence Accession>
P08684

>  <Reference>
ACS Med Chem Lett 11 (4), 491-496 (2020)

>  <Pubmed ID>
32292555

>  <DOI>
10.1021/acsmedchemlett.9b00612

$$$$
2476924
Actelion Java MolfileCreator 1.0

 38 41  0  0  0  0  0  0  0  0999 V2000
    0.0000   -0.0000   -0.0000 O   0  0  0  0  0  0  0  0  0  0  0  0
   -0.0119   -1.4896   -0.0000 C   0  0  0  0  0  0  0  0  0  0  0  0
    1.2871   -2.2285   -0.0000 N   0  0  0  0  0  0  0  0  0  0  0  0
   -1.3228   -2.2404   -0.0000 C   0  0  0  0  0  0  0  0  0  0  0  0
    2.5741   -1.4539   -0.0000 O   0  0  0  0  0  0  0  0  0  0  0  0
   -2.6456   -1.4777   -0.0000 C   0  0  0  0  0  0  0  0  0  0  0  0
    3.8731   -2.1928   -0.0000 C   0  0  0  0  0  0  0  0  0  0  0  0
   -3.9446   -2.2285   -0.0000 C   0  0  0  0  0  0  0  0  0  0  0  0
    4.9218   -1.1083   -0.0000 C   0  0  0  0  0  0  0  0  0  0  0  0
    3.4560   -3.6347   -0.0000 C   0  0  0  0  0  0  0  0  0  0  0  0
    5.1601   -2.9316   -0.0000 C   0  0  0  0  0  0  0  0  0  0  0  0
   -5.2674   -1.4658   -0.0000 C   0  0  0  0  0  0  0  0  0  0  0  0
    6.3638   -1.4777   -0.0000 C   0  0  0  0  0  0  0  0  0  0  0  0
    4.5047    0.3456   -0.0000 C   0  0  0  0  0  0  0  0  0  0  0  0
    1.9902   -3.9923   -0.0000 C   0  0  0  0  0  0  0  0  0  0  0  0
    4.4928   -4.6835   -0.0000 C   0  0  0  0  0  0  0  0  0  0  0  0
    5.1363   -4.4094   -0.0000 C   0  0  0  0  0  0  0  0  0  0  0  0
    6.4353   -2.1808   -0.0000 C   0  0  0  0  0  0  0  0  0  0  0  0
   -6.5783   -2.2166   -0.0000 C   0  0  0  0  0  0  0  0  0  0  0  0
    7.4125   -0.4052   -0.0000 C   0  0  0  0  0  0  0  0  0  0  0  0
    5.5415    1.4301   -0.0000 C   0  0  0  0  0  0  0  0  0  0  0  0
    1.5731   -5.4223   -0.0000 C   0  0  0  0  0  0  0  0  0  0  0  0
    4.0876   -6.1135   -0.0000 C   0  0  0  0  0  0  0  0  0  0  0  0
    6.4115   -5.1482   -0.0000 C   0  0  0  0  0  0  0  0  0  0  0  0
    7.7104   -2.9078   -0.0000 C   0  0  0  0  0  0  0  0  0  0  0  0
   -7.9011   -1.4539   -0.0000 C   0  0  0  0  0  0  0  0  0  0  0  0
    7.0073    1.0606   -0.0000 C   0  0  0  0  0  0  0  0  0  0  0  0
    2.6218   -6.4830   -0.0000 C   0  0  0  0  0  0  0  0  0  0  0  0
    7.6866   -4.3855   -0.0000 C   0  0  0  0  0  0  0  0  0  0  0  0
   -9.2120   -2.2047   -0.0000 C   0  0  0  0  0  0  0  0  0  0  0  0
   -9.2239   -3.6943   -0.0000 O   0  0  0  0  0  0  0  0  0  0  0  0
  -10.5348   -1.4420   -0.0000 N   0  0  0  0  0  0  0  0  0  0  0  0
  -11.8457   -2.1928   -0.0000 C   0  0  0  0  0  0  0  0  0  0  0  0
  -13.1566   -1.4301   -0.0000 C   0  0  0  0  0  0  0  0  0  0  0  0
  -11.8576   -3.6943   -0.0000 C   0  0  0  0  0  0  0  0  0  0  0  0
  -14.4556   -2.1689   -0.0000 C   0  0  0  0  0  0  0  0  0  0  0  0
  -13.1804   -4.4332   -0.0000 C   0  0  0  0  0  0  0  0  0  0  0  0
  -14.4675   -3.6705   -0.0000 C   0  0  0  0  0  0  0  0  0  0  0  0
  1  2  2  0  0  0  0
  2  3  1  0  0  0  0
  2  4  1  0  0  0  0
  3  5  1  0  0  0  0
  4  6  1  0  0  0  0
  5  7  1  0  0  0  0
  6  8  1  0  0  0  0
  7  9  1  0  0  0  0
  7 10  1  0  0  0  0
  7 11  1  0  0  0  0
  8 12  1  0  0  0  0
  9 13  2  0  0  0  0
  9 14  1  0  0  0  0
 10 15  2  0  0  0  0
 10 16  1  0  0  0  0
 11 17  2  0  0  0  0
 11 18  1  0  0  0  0
 12 19  1  0  0  0  0
 13 20  1  0  0  0  0
 14 21  2  0  0  0  0
 15 22  1  0  0  0  0
 16 23  2  0  0  0  0
 17 24  1  0  0  0  0
 18 25  2  0  0  0  0
 19 26  1  0  0  0  0
 20 27  2  0  0  0  0
 22 28  2  0  0  0  0
 24 29  2  0  0  0  0
 26 30  1  0  0  0  0
 30 31  2  0  0  0  0
 30 32  1  0  0  0  0
 32 33  1  0  0  0  0
 33 34  2  0  0  0  0
 33 35  1  0  0  0  0
 34 36  1  0  0  0  0
 35 37  2  0  0  0  0
 36 38  2  0  0  0  0
 21 27  1  0  0  0  0
 23 28  1  0  0  0  0
 25 29  1  0  0  0  0
 37 38  1  0  0  0  0
M  END
>  <MolRegNo>
2476924

>  <m>
=

>  <Value>
5560

>  <Unit>
nM

>  <Type>
IC50

>  <pValue>
5.25

>  <Ligand Efficiency>
0

>  <Binding Efficiency>
0

>  <Surface Efficiency>
0

>  <Assay Index>
1356702

>  <Assay Category>


>  <Assay Organism>
Homo sapiens

>  <Target ID>
17045

>  <Target Name>
Cytochrome P450 3A4

>  <Target Organism>
Homo sapiens

>  <Target Description>
Target is a single protein chain

>  <Sequence Accession>
P08684

>  <Reference>
J Med Chem 63 (11), 5734-5751 (2020)

>  <Pubmed ID>
32392053

>  <DOI>
10.1021/acs.jmedchem.9b02016

$$$$
2484361
Actelion Java MolfileCreator 1.0

 28 32  0  0  0  0  0  0  0  0999 V2000
    0.0000   -0.0000   -0.0000 O   0  0  0  0  0  0  0  0  0  0  0  0
   -1.2825   -0.7766   -0.0000 C   0  0  0  0  0  0  0  0  0  0  0  0
   -0.0588    1.5061   -0.0000 C   0  0  0  0  0  0  0  0  0  0  0  0
   -2.6122   -0.0588   -0.0000 C   0  0  0  0  0  0  0  0  0  0  0  0
   -1.3884    2.2239   -0.0000 C   0  0  0  0  0  0  0  0  0  0  0  0
   -2.6710    1.4473   -0.0000 N   0  0  0  0  0  0  0  0  0  0  0  0
   -3.8947   -0.8354   -0.0000 C   0  0  0  0  0  0  0  0  0  0  0  0
   -4.0006    2.1650   -0.0000 C   0  0  0  0  0  0  0  0  0  0  0  0
   -5.2832    1.3884   -0.0000 N   0  0  0  0  0  0  0  0  0  0  0  0
   -4.0594    3.6711   -0.0000 C   0  0  0  0  0  0  0  0  0  0  0  0
   -6.6128    2.1062   -0.0000 C   0  0  0  0  0  0  0  0  0  0  0  0
   -5.3891    4.3889   -0.0000 C   0  0  0  0  0  0  0  0  0  0  0  0
   -7.8953    1.3296   -0.0000 C   0  0  0  0  0  0  0  0  0  0  0  0
   -6.6716    3.6123   -0.0000 C   0  0  0  0  0  0  0  0  0  0  0  0
   -5.4479    5.8950   -0.0000 C   0  0  0  0  0  0  0  0  0  0  0  0
   -9.2249    2.0474   -0.0000 N   0  0  0  0  0  0  0  0  0  0  0  0
   -7.8600   -0.1530   -0.0000 C   0  0  0  0  0  0  0  0  0  0  0  0
   -8.0012    4.3301   -0.0000 C   0  0  0  0  0  0  0  0  0  0  0  0
   -4.2830    6.8246   -0.0000 N   0  0  0  0  0  0  0  0  0  0  0  0
   -6.6951    6.7422   -0.0000 C   0  0  0  0  0  0  0  0  0  0  0  0
   -9.2838    3.5535   -0.0000 C   0  0  0  0  0  0  0  0  0  0  0  0
   -6.6363   -0.9766   -0.0000 N   0  0  0  0  0  0  0  0  0  0  0  0
   -9.0484   -1.0590   -0.0000 C   0  0  0  0  0  0  0  0  0  0  0  0
   -4.8007    8.2365   -0.0000 N   0  0  0  0  0  0  0  0  0  0  0  0
   -2.8593    6.4245   -0.0000 C   0  0  0  0  0  0  0  0  0  0  0  0
   -6.2951    8.1895   -0.0000 C   0  0  0  0  0  0  0  0  0  0  0  0
   -7.0599   -2.4004   -0.0000 N   0  0  0  0  0  0  0  0  0  0  0  0
   -8.5542   -2.4474   -0.0000 C   0  0  0  0  0  0  0  0  0  0  0  0
  1  2  1  0  0  0  0
  1  3  1  0  0  0  0
  2  4  1  0  0  0  0
  3  5  1  0  0  0  0
  4  6  1  0  0  0  0
  4  7  1  6  0  0  0
  6  8  1  0  0  0  0
  8  9  2  0  0  0  0
  8 10  1  0  0  0  0
  9 11  1  0  0  0  0
 10 12  2  0  0  0  0
 11 13  2  0  0  0  0
 11 14  1  0  0  0  0
 12 15  1  0  0  0  0
 13 16  1  0  0  0  0
 13 17  1  0  0  0  0
 14 18  2  0  0  0  0
 15 19  1  0  0  0  0
 15 20  2  0  0  0  0
 16 21  2  0  0  0  0
 17 22  1  0  0  0  0
 17 23  2  0  0  0  0
 19 24  1  0  0  0  0
 19 25  1  0  0  0  0
 20 26  1  0  0  0  0
 22 27  1  0  0  0  0
 23 28  1  0  0  0  0
  5  6  1  0  0  0  0
 12 14  1  0  0  0  0
 18 21  1  0  0  0  0
 24 26  2  0  0  0  0
 27 28  2  0  0  0  0
M  END
>  <MolRegNo>
2484361

>  <m>
=

>  <Value>
7000

>  <Unit>
nM

>  <Type>
IC50

>  <pValue>
5.16

>  <Ligand Efficiency>
0

>  <Binding Efficiency>
0

>  <Surface Efficiency>
0

>  <Assay Index>
1359643

>  <Assay Category>


>  <Assay Organism>
Homo sapiens

>  <Target ID>
17045

>  <Target Name>
Cytochrome P450 3A4

>  <Target Organism>
Homo sapiens

>  <Target Description>
Target is a single protein chain

>  <Sequence Accession>
P08684

>  <Reference>
J Med Chem 63 (13), 7293-7325 (2020)

>  <Pubmed ID>
32502336

>  <DOI>
10.1021/acs.jmedchem.0c00369

$$$$
2483061
Actelion Java MolfileCreator 1.0

 31 34  0  0  0  0  0  0  0  0999 V2000
    0.0000   -0.0000   -0.0000 S   0  0  0  0  0  0  0  0  0  0  0  0
   -0.0947    1.5151   -0.0000 O   0  0  0  0  0  0  0  0  0  0  0  0
   -1.3494    0.6984   -0.0000 O   0  0  0  0  0  0  0  0  0  0  0  0
    1.3257   -0.6747   -0.0000 N   0  0  0  0  0  0  0  0  0  0  0  0
   -1.2784   -0.8049   -0.0000 C   0  0  0  0  0  0  0  0  0  0  0  0
    1.5506   -2.1543   -0.0000 N   0  0  0  0  0  0  0  0  0  0  0  0
    2.6514    0.0237   -0.0000 C   0  0  0  0  0  0  0  0  0  0  0  0
    3.0302   -2.3792   -0.0000 C   0  0  0  0  0  0  0  0  0  0  0  0
    3.7049   -1.0298   -0.0000 C   0  0  0  0  0  0  0  0  0  0  0  0
    4.0837   -3.4326   -0.0000 C   0  0  0  0  0  0  0  0  0  0  0  0
    5.1845   -1.2547   -0.0000 C   0  0  0  0  0  0  0  0  0  0  0  0
    5.4094   -2.7343   -0.0000 N   0  0  0  0  0  0  0  0  0  0  0  0
    6.8889   -2.9592   -0.0000 C   0  0  0  0  0  0  0  0  0  0  0  0
    7.6938   -4.2139   -0.0000 C   0  0  0  0  0  0  0  0  0  0  0  0
    7.5636   -1.6098   -0.0000 C   0  0  0  0  0  0  0  0  0  0  0  0
    9.1853   -4.1192   -0.0000 O   0  0  0  0  0  0  0  0  0  0  0  0
    6.9955   -5.5396   -0.0000 C   0  0  0  0  0  0  0  0  0  0  0  0
    9.0551   -1.5151   -0.0000 C   0  0  0  0  0  0  0  0  0  0  0  0
    9.8600   -2.7698   -0.0000 C   0  0  0  0  0  0  0  0  0  0  0  0
    7.8004   -6.7943   -0.0000 F   0  0  0  0  0  0  0  0  0  0  0  0
    5.4804   -5.6106   -0.0000 F   0  0  0  0  0  0  0  0  0  0  0  0
    6.2971   -6.8653   -0.0000 F   0  0  0  0  0  0  0  0  0  0  0  0
    9.7298   -0.1657   -0.0000 N   0  0  0  0  0  0  0  0  0  0  0  0
   11.3514   -2.6751   -0.0000 C   0  0  0  0  0  0  0  0  0  0  0  0
   12.0261   -1.3257   -0.0000 C   0  0  0  0  0  0  0  0  0  0  0  0
   12.1563   -3.9298   -0.0000 C   0  0  0  0  0  0  0  0  0  0  0  0
   11.1975   -0.0473   -0.0000 F   0  0  0  0  0  0  0  0  0  0  0  0
   13.5175   -1.2310   -0.0000 C   0  0  0  0  0  0  0  0  0  0  0  0
   13.6477   -3.8351   -0.0000 C   0  0  0  0  0  0  0  0  0  0  0  0
   14.3224   -2.4857   -0.0000 C   0  0  0  0  0  0  0  0  0  0  0  0
   14.4526   -5.0898   -0.0000 F   0  0  0  0  0  0  0  0  0  0  0  0
  1  2  2  0  0  0  0
  1  3  2  0  0  0  0
  1  4  1  0  0  0  0
  1  5  1  0  0  0  0
  4  6  1  0  0  0  0
  4  7  1  0  0  0  0
  6  8  2  0  0  0  0
  7  9  2  0  0  0  0
  8 10  1  0  0  0  0
  9 11  1  0  0  0  0
 10 12  1  0  0  0  0
 13 12  1  6  0  0  0
 13 14  1  0  0  0  0
 13 15  1  0  0  0  0
 14 16  1  0  0  0  0
 14 17  1  6  0  0  0
 15 18  1  0  0  0  0
 16 19  1  0  0  0  0
 17 20  1  0  0  0  0
 17 21  1  0  0  0  0
 17 22  1  0  0  0  0
 18 23  1  6  0  0  0
 19 24  1  1  0  0  0
 24 25  2  0  0  0  0
 24 26  1  0  0  0  0
 25 27  1  0  0  0  0
 25 28  1  0  0  0  0
 26 29  2  0  0  0  0
 28 30  2  0  0  0  0
 29 31  1  0  0  0  0
  8  9  1  0  0  0  0
 11 12  1  0  0  0  0
 18 19  1  0  0  0  0
 29 30  1  0  0  0  0
M  END
>  <MolRegNo>
2483061

>  <m>
=

>  <Value>
45800

>  <Unit>
nM

>  <Type>
IC50

>  <pValue>
4.34

>  <Ligand Efficiency>
0

>  <Binding Efficiency>
0

>  <Surface Efficiency>
0

>  <Assay Index>
1363230

>  <Assay Category>


>  <Assay Organism>
Homo sapiens

>  <Target ID>
17045

>  <Target Name>
Cytochrome P450 3A4

>  <Target Organism>
Homo sapiens

>  <Target Description>
Target is a single protein chain

>  <Sequence Accession>
P08684

>  <Reference>
J Med Chem 63 (13), 7108-7126 (2020)

>  <Pubmed ID>
32452679

>  <DOI>
10.1021/acs.jmedchem.0c00374

$$$$
2470637
Actelion Java MolfileCreator 1.0

 49 55  0  0  0  0  0  0  0  0999 V2000
    0.0000   -0.0000   -0.0000 Cl  0  0  0  0  0  0  0  0  0  0  0  0
    1.4988   -0.0119   -0.0000 C   0  0  0  0  0  0  0  0  0  0  0  0
    2.2125   -1.2966   -0.0000 C   0  0  0  0  0  0  0  0  0  0  0  0
    2.2601    1.3085   -0.0000 C   0  0  0  0  0  0  0  0  0  0  0  0
    3.7113   -1.3323   -0.0000 C   0  0  0  0  0  0  0  0  0  0  0  0
    1.4274   -2.5575   -0.0000 C   0  0  0  0  0  0  0  0  0  0  0  0
    3.7589    1.2966   -0.0000 C   0  0  0  0  0  0  0  0  0  0  0  0
    4.4726   -0.0119   -0.0000 C   0  0  0  0  0  0  0  0  0  0  0  0
    2.8787   -2.8668   -0.0000 O   0  0  0  0  0  0  0  0  0  0  0  0
    0.6661   -3.8779   -0.0000 O   0  0  0  0  0  0  0  0  0  0  0  0
   -0.0476   -2.1649   -0.0000 C   0  0  0  0  0  0  0  0  0  0  0  0
    4.5202    2.5813   -0.0000 Cl  0  0  0  0  0  0  0  0  0  0  0  0
    3.0333   -4.3656   -0.0000 C   0  0  0  0  0  0  0  0  0  0  0  0
    1.6534   -4.9841   -0.0000 C   0  0  0  0  0  0  0  0  0  0  0  0
   -1.1182   -3.2236   -0.0000 N   0  0  0  0  0  0  0  0  0  0  0  0
    4.3418   -5.1031   -0.0000 C   0  0  0  0  0  0  0  0  0  0  0  0
   -2.6170   -2.9619   -0.0000 N   0  0  0  0  0  0  0  0  0  0  0  0
   -0.9040   -4.6986   -0.0000 C   0  0  0  0  0  0  0  0  0  0  0  0
    5.6265   -4.3418   -0.0000 O   0  0  0  0  0  0  0  0  0  0  0  0
   -3.3188   -4.2942   -0.0000 C   0  0  0  0  0  0  0  0  0  0  0  0
   -2.2482   -5.3767   -0.0000 N   0  0  0  0  0  0  0  0  0  0  0  0
    6.9231   -5.0793   -0.0000 C   0  0  0  0  0  0  0  0  0  0  0  0
    6.9112   -6.5781   -0.0000 C   0  0  0  0  0  0  0  0  0  0  0  0
    8.2196   -4.3180   -0.0000 C   0  0  0  0  0  0  0  0  0  0  0  0
    8.2078   -7.3156   -0.0000 N   0  0  0  0  0  0  0  0  0  0  0  0
    9.5162   -5.0317   -0.0000 C   0  0  0  0  0  0  0  0  0  0  0  0
    9.5043   -6.5543   -0.0000 C   0  0  0  0  0  0  0  0  0  0  0  0
   10.8128   -7.2918   -0.0000 N   0  0  0  0  0  0  0  0  0  0  0  0
   10.8009   -8.7906   -0.0000 C   0  0  0  0  0  0  0  0  0  0  0  0
   12.0975   -6.5067   -0.0000 C   0  0  0  0  0  0  0  0  0  0  0  0
   12.0737   -9.5281   -0.0000 C   0  0  0  0  0  0  0  0  0  0  0  0
   13.3941   -7.2680   -0.0000 C   0  0  0  0  0  0  0  0  0  0  0  0
   13.3822   -8.7668   -0.0000 N   0  0  0  0  0  0  0  0  0  0  0  0
   14.6788   -9.5043   -0.0000 C   0  0  0  0  0  0  0  0  0  0  0  0
   14.6669  -11.0031   -0.0000 C   0  0  0  0  0  0  0  0  0  0  0  0
   15.9516   -8.7430   -0.0000 C   0  0  0  0  0  0  0  0  0  0  0  0
   15.9397  -11.7407   -0.0000 C   0  0  0  0  0  0  0  0  0  0  0  0
   17.2720   -9.4805   -0.0000 C   0  0  0  0  0  0  0  0  0  0  0  0
   17.2601  -10.9794   -0.0000 C   0  0  0  0  0  0  0  0  0  0  0  0
   18.5448  -11.7050   -0.0000 N   0  0  0  0  0  0  0  0  0  0  0  0
   18.6994  -13.1919   -0.0000 C   0  0  0  0  0  0  0  0  0  0  0  0
   19.9008  -11.0864   -0.0000 C   0  0  0  0  0  0  0  0  0  0  0  0
   17.5693  -14.2030   -0.0000 O   0  0  0  0  0  0  0  0  0  0  0  0
   20.1744  -13.4893   -0.0000 N   0  0  0  0  0  0  0  0  0  0  0  0
   20.9119  -12.1927   -0.0000 N   0  0  0  0  0  0  0  0  0  0  0  0
   20.7692  -14.8572   -0.0000 C   0  0  0  0  0  0  0  0  0  0  0  0
   22.2442  -15.0000   -0.0000 C   0  0  0  0  0  0  0  0  0  0  0  0
   19.8651  -16.0705   -0.0000 C   0  0  0  0  0  0  0  0  0  0  0  0
   23.1244  -13.7747   -0.0000 C   0  0  0  0  0  0  0  0  0  0  0  0
  1  2  1  0  0  0  0
  2  3  2  0  0  0  0
  2  4  1  0  0  0  0
  3  5  1  0  0  0  0
  6  3  1  6  0  0  0
  4  7  2  0  0  0  0
  5  8  2  0  0  0  0
  6  9  1  0  0  0  0
  6 10  1  0  0  0  0
  6 11  1  0  0  0  0
  7 12  1  0  0  0  0
  9 13  1  0  0  0  0
 10 14  1  0  0  0  0
 11 15  1  0  0  0  0
 13 16  1  1  0  0  0
 15 17  1  0  0  0  0
 15 18  1  0  0  0  0
 16 19  1  0  0  0  0
 17 20  2  0  0  0  0
 18 21  2  0  0  0  0
 19 22  1  0  0  0  0
 22 23  2  0  0  0  0
 22 24  1  0  0  0  0
 23 25  1  0  0  0  0
 24 26  2  0  0  0  0
 25 27  2  0  0  0  0
 27 28  1  0  0  0  0
 28 29  1  0  0  0  0
 28 30  1  0  0  0  0
 29 31  1  0  0  0  0
 30 32  1  0  0  0  0
 31 33  1  0  0  0  0
 33 34  1  0  0  0  0
 34 35  2  0  0  0  0
 34 36  1  0  0  0  0
 35 37  1  0  0  0  0
 36 38  2  0  0  0  0
 37 39  2  0  0  0  0
 39 40  1  0  0  0  0
 40 41  1  0  0  0  0
 40 42  1  0  0  0  0
 41 43  2  0  0  0  0
 41 44  1  0  0  0  0
 42 45  2  0  0  0  0
 44 46  1  0  0  0  0
 46 47  1  0  0  0  0
 46 48  1  0  0  0  0
 47 49  1  0  0  0  0
  7  8  1  0  0  0  0
 13 14  1  0  0  0  0
 20 21  1  0  0  0  0
 26 27  1  0  0  0  0
 32 33  1  0  0  0  0
 38 39  1  0  0  0  0
 44 45  1  0  0  0  0
M  END
>  <MolRegNo>
2470637

>  <m>
=

>  <Value>
3400

>  <Unit>
nM

>  <Type>
IC50

>  <pValue>
5.47

>  <Ligand Efficiency>
0

>  <Binding Efficiency>
0

>  <Surface Efficiency>
0

>  <Assay Index>
1365427

>  <Assay Category>


>  <Assay Organism>
Homo sapiens

>  <Target ID>
17045

>  <Target Name>
Cytochrome P450 3A4

>  <Target Organism>
Homo sapiens

>  <Target Description>
Target is a single protein chain

>  <Sequence Accession>
P08684

>  <Reference>
ACS Med Chem Lett 11 (6), 1111-1117 (2020)

>  <Pubmed ID>
32550989

>  <DOI>
10.1021/acsmedchemlett.9b00438

$$$$
2481338
Actelion Java MolfileCreator 1.0

 49 55  0  0  0  0  0  0  0  0999 V2000
    0.0000   -0.0000   -0.0000 Cl  0  0  0  0  0  0  0  0  0  0  0  0
    1.4988   -0.0119   -0.0000 C   0  0  0  0  0  0  0  0  0  0  0  0
    2.2125   -1.2966   -0.0000 C   0  0  0  0  0  0  0  0  0  0  0  0
    2.2601    1.3085   -0.0000 C   0  0  0  0  0  0  0  0  0  0  0  0
    3.7113   -1.3323   -0.0000 C   0  0  0  0  0  0  0  0  0  0  0  0
    1.4274   -2.5575   -0.0000 C   0  0  0  0  0  0  0  0  0  0  0  0
    3.7589    1.2966   -0.0000 C   0  0  0  0  0  0  0  0  0  0  0  0
    4.4726   -0.0119   -0.0000 C   0  0  0  0  0  0  0  0  0  0  0  0
    2.8787   -2.8668   -0.0000 O   0  0  0  0  0  0  0  0  0  0  0  0
    0.6661   -3.8779   -0.0000 O   0  0  0  0  0  0  0  0  0  0  0  0
   -0.0476   -2.1649   -0.0000 C   0  0  0  0  0  0  0  0  0  0  0  0
    4.5202    2.5813   -0.0000 Cl  0  0  0  0  0  0  0  0  0  0  0  0
    3.0333   -4.3656   -0.0000 C   0  0  0  0  0  0  0  0  0  0  0  0
    1.6534   -4.9841   -0.0000 C   0  0  0  0  0  0  0  0  0  0  0  0
   -1.1182   -3.2236   -0.0000 N   0  0  0  0  0  0  0  0  0  0  0  0
    4.3418   -5.1031   -0.0000 C   0  0  0  0  0  0  0  0  0  0  0  0
   -0.9040   -4.6986   -0.0000 C   0  0  0  0  0  0  0  0  0  0  0  0
   -2.6170   -2.9619   -0.0000 C   0  0  0  0  0  0  0  0  0  0  0  0
    5.6265   -4.3418   -0.0000 O   0  0  0  0  0  0  0  0  0  0  0  0
   -2.2482   -5.3767   -0.0000 N   0  0  0  0  0  0  0  0  0  0  0  0
   -3.3188   -4.2942   -0.0000 C   0  0  0  0  0  0  0  0  0  0  0  0
    6.9231   -5.0793   -0.0000 C   0  0  0  0  0  0  0  0  0  0  0  0
    6.9112   -6.5781   -0.0000 C   0  0  0  0  0  0  0  0  0  0  0  0
    8.2196   -4.3180   -0.0000 C   0  0  0  0  0  0  0  0  0  0  0  0
    8.2078   -7.3156   -0.0000 N   0  0  0  0  0  0  0  0  0  0  0  0
    9.5162   -5.0317   -0.0000 C   0  0  0  0  0  0  0  0  0  0  0  0
    9.5043   -6.5543   -0.0000 C   0  0  0  0  0  0  0  0  0  0  0  0
   10.8128   -7.2918   -0.0000 N   0  0  0  0  0  0  0  0  0  0  0  0
   10.8009   -8.7906   -0.0000 C   0  0  0  0  0  0  0  0  0  0  0  0
   12.0975   -6.5067   -0.0000 C   0  0  0  0  0  0  0  0  0  0  0  0
   12.0737   -9.5281   -0.0000 C   0  0  0  0  0  0  0  0  0  0  0  0
   13.3941   -7.2680   -0.0000 C   0  0  0  0  0  0  0  0  0  0  0  0
   13.3822   -8.7668   -0.0000 N   0  0  0  0  0  0  0  0  0  0  0  0
   14.6788   -9.5043   -0.0000 C   0  0  0  0  0  0  0  0  0  0  0  0
   14.6669  -11.0031   -0.0000 C   0  0  0  0  0  0  0  0  0  0  0  0
   15.9516   -8.7430   -0.0000 C   0  0  0  0  0  0  0  0  0  0  0  0
   15.9397  -11.7407   -0.0000 C   0  0  0  0  0  0  0  0  0  0  0  0
   17.2720   -9.4805   -0.0000 C   0  0  0  0  0  0  0  0  0  0  0  0
   17.2601  -10.9794   -0.0000 C   0  0  0  0  0  0  0  0  0  0  0  0
   18.5448  -11.7050   -0.0000 N   0  0  0  0  0  0  0  0  0  0  0  0
   18.6994  -13.1919   -0.0000 C   0  0  0  0  0  0  0  0  0  0  0  0
   19.9008  -11.0864   -0.0000 C   0  0  0  0  0  0  0  0  0  0  0  0
   17.5693  -14.2030   -0.0000 O   0  0  0  0  0  0  0  0  0  0  0  0
   20.1744  -13.4893   -0.0000 N   0  0  0  0  0  0  0  0  0  0  0  0
   20.9119  -12.1927   -0.0000 N   0  0  0  0  0  0  0  0  0  0  0  0
   20.7692  -14.8572   -0.0000 C   0  0  0  0  0  0  0  0  0  0  0  0
   22.2442  -15.0000   -0.0000 C   0  0  0  0  0  0  0  0  0  0  0  0
   19.8651  -16.0705   -0.0000 C   0  0  0  0  0  0  0  0  0  0  0  0
   23.1244  -13.7747   -0.0000 C   0  0  0  0  0  0  0  0  0  0  0  0
  1  2  1  0  0  0  0
  2  3  2  0  0  0  0
  2  4  1  0  0  0  0
  3  5  1  0  0  0  0
  6  3  1  6  0  0  0
  4  7  2  0  0  0  0
  5  8  2  0  0  0  0
  6  9  1  0  0  0  0
  6 10  1  0  0  0  0
  6 11  1  0  0  0  0
  7 12  1  0  0  0  0
  9 13  1  0  0  0  0
 10 14  1  0  0  0  0
 11 15  1  0  0  0  0
 13 16  1  1  0  0  0
 15 17  1  0  0  0  0
 15 18  1  0  0  0  0
 16 19  1  0  0  0  0
 17 20  2  0  0  0  0
 18 21  2  0  0  0  0
 19 22  1  0  0  0  0
 22 23  2  0  0  0  0
 22 24  1  0  0  0  0
 23 25  1  0  0  0  0
 24 26  2  0  0  0  0
 25 27  2  0  0  0  0
 27 28  1  0  0  0  0
 28 29  1  0  0  0  0
 28 30  1  0  0  0  0
 29 31  1  0  0  0  0
 30 32  1  0  0  0  0
 31 33  1  0  0  0  0
 33 34  1  0  0  0  0
 34 35  2  0  0  0  0
 34 36  1  0  0  0  0
 35 37  1  0  0  0  0
 36 38  2  0  0  0  0
 37 39  2  0  0  0  0
 39 40  1  0  0  0  0
 40 41  1  0  0  0  0
 40 42  1  0  0  0  0
 41 43  2  0  0  0  0
 41 44  1  0  0  0  0
 42 45  2  0  0  0  0
 44 46  1  0  0  0  0
 46 47  1  0  0  0  0
 46 48  1  0  0  0  0
 47 49  1  0  0  0  0
  7  8  1  0  0  0  0
 13 14  1  0  0  0  0
 20 21  1  0  0  0  0
 26 27  1  0  0  0  0
 32 33  1  0  0  0  0
 38 39  1  0  0  0  0
 44 45  1  0  0  0  0
M  END
>  <MolRegNo>
2481338

>  <m>
=

>  <Value>
2600

>  <Unit>
nM

>  <Type>
IC50

>  <pValue>
5.58

>  <Ligand Efficiency>
0

>  <Binding Efficiency>
0

>  <Surface Efficiency>
0

>  <Assay Index>
1365427

>  <Assay Category>


>  <Assay Organism>
Homo sapiens

>  <Target ID>
17045

>  <Target Name>
Cytochrome P450 3A4

>  <Target Organism>
Homo sapiens

>  <Target Description>
Target is a single protein chain

>  <Sequence Accession>
P08684

>  <Reference>
ACS Med Chem Lett 11 (6), 1111-1117 (2020)

>  <Pubmed ID>
32550989

>  <DOI>
10.1021/acsmedchemlett.9b00438

$$$$
2470727
Actelion Java MolfileCreator 1.0

 33 38  0  0  0  0  0  0  0  0999 V2000
    0.0000   -0.0000   -0.0000 F   0  0  0  0  0  0  0  0  0  0  0  0
   -0.0120   -1.4940   -0.0000 C   0  0  0  0  0  0  0  0  0  0  0  0
    1.2908   -2.2351   -0.0000 C   0  0  0  0  0  0  0  0  0  0  0  0
   -1.3267   -2.2351   -0.0000 C   0  0  0  0  0  0  0  0  0  0  0  0
    2.5817   -1.4582   -0.0000 N   0  0  0  0  0  0  0  0  0  0  0  0
    1.2789   -3.7410   -0.0000 C   0  0  0  0  0  0  0  0  0  0  0  0
   -1.3386   -3.7410   -0.0000 C   0  0  0  0  0  0  0  0  0  0  0  0
    3.8845   -2.1992   -0.0000 C   0  0  0  0  0  0  0  0  0  0  0  0
   -0.0359   -4.4940   -0.0000 C   0  0  0  0  0  0  0  0  0  0  0  0
    2.5817   -4.4821   -0.0000 C   0  0  0  0  0  0  0  0  0  0  0  0
    3.8845   -3.7052   -0.0000 C   0  0  0  0  0  0  0  0  0  0  0  0
   -0.0478   -5.9880   -0.0000 F   0  0  0  0  0  0  0  0  0  0  0  0
    2.5697   -5.9761   -0.0000 N   0  0  0  0  0  0  0  0  0  0  0  0
    3.7769   -6.8486   -0.0000 C   0  0  0  0  0  0  0  0  0  0  0  0
    1.3386   -6.8605   -0.0000 C   0  0  0  0  0  0  0  0  0  0  0  0
    3.2988   -8.2709   -0.0000 C   0  0  0  0  0  0  0  0  0  0  0  0
    5.2351   -6.5259   -0.0000 C   0  0  0  0  0  0  0  0  0  0  0  0
    1.8048   -8.2829   -0.0000 N   0  0  0  0  0  0  0  0  0  0  0  0
   -0.1793   -6.8366   -0.0000 C   0  0  0  0  0  0  0  0  0  0  0  0
    4.2908   -9.3825   -0.0000 C   0  0  0  0  0  0  0  0  0  0  0  0
    6.2390   -7.6255   -0.0000 C   0  0  0  0  0  0  0  0  0  0  0  0
    3.8247  -10.8048   -0.0000 C   0  0  0  0  0  0  0  0  0  0  0  0
    5.7490   -9.0478   -0.0000 C   0  0  0  0  0  0  0  0  0  0  0  0
    7.6972   -7.2908   -0.0000 C   0  0  0  0  0  0  0  0  0  0  0  0
    4.6972  -12.0119   -0.0000 N   0  0  0  0  0  0  0  0  0  0  0  0
    2.3785  -11.2589   -0.0000 N   0  0  0  0  0  0  0  0  0  0  0  0
    8.6892   -8.3904   -0.0000 C   0  0  0  0  0  0  0  0  0  0  0  0
    8.1275   -5.8566   -0.0000 C   0  0  0  0  0  0  0  0  0  0  0  0
    3.8008  -13.2191   -0.0000 N   0  0  0  0  0  0  0  0  0  0  0  0
    2.3665  -12.7530   -0.0000 C   0  0  0  0  0  0  0  0  0  0  0  0
   10.1474   -8.0558   -0.0000 C   0  0  0  0  0  0  0  0  0  0  0  0
    9.5737   -5.5219   -0.0000 C   0  0  0  0  0  0  0  0  0  0  0  0
   10.5896   -6.6095   -0.0000 N   0  0  0  0  0  0  0  0  0  0  0  0
  1  2  1  0  0  0  0
  2  3  1  0  0  0  0
  2  4  2  0  0  0  0
  3  5  2  0  0  0  0
  3  6  1  0  0  0  0
  4  7  1  0  0  0  0
  5  8  1  0  0  0  0
  6  9  1  0  0  0  0
  6 10  2  0  0  0  0
  8 11  2  0  0  0  0
  9 12  1  0  0  0  0
 10 13  1  0  0  0  0
 13 14  1  0  0  0  0
 13 15  1  0  0  0  0
 14 16  2  0  0  0  0
 14 17  1  0  0  0  0
 15 18  2  0  0  0  0
 15 19  1  0  0  0  0
 16 20  1  0  0  0  0
 17 21  2  0  0  0  0
 20 22  1  0  0  0  0
 20 23  2  0  0  0  0
 21 24  1  0  0  0  0
 22 25  2  0  0  0  0
 22 26  1  0  0  0  0
 24 27  2  0  0  0  0
 24 28  1  0  0  0  0
 25 29  1  0  0  0  0
 26 30  1  0  0  0  0
 27 31  1  0  0  0  0
 28 32  2  0  0  0  0
 31 33  2  0  0  0  0
  7  9  2  0  0  0  0
 10 11  1  0  0  0  0
 16 18  1  0  0  0  0
 21 23  1  0  0  0  0
 29 30  2  0  0  0  0
 32 33  1  0  0  0  0
M  END
>  <MolRegNo>
2470727

>  <m>
=

>  <Value>
1000

>  <Unit>
nM

>  <Type>
IC50

>  <pValue>
6

>  <Ligand Efficiency>
0

>  <Binding Efficiency>
0

>  <Surface Efficiency>
0

>  <Assay Index>
1365670

>  <Assay Category>


>  <Assay Organism>
Homo sapiens

>  <Target ID>
17045

>  <Target Name>
Cytochrome P450 3A4

>  <Target Organism>
Homo sapiens

>  <Target Description>
Target is a single protein chain

>  <Sequence Accession>
P08684

>  <Reference>
ACS Med Chem Lett 11 (6), 1236-1243 (2020)

>  <Pubmed ID>
32551006

>  <DOI>
10.1021/acsmedchemlett.0c00095

$$$$
2473694
Actelion Java MolfileCreator 1.0

 34 39  0  0  0  0  0  0  0  0999 V2000
    0.0000   -0.0000   -0.0000 F   0  0  0  0  0  0  0  0  0  0  0  0
   -0.0120   -1.4948   -0.0000 C   0  0  0  0  0  0  0  0  0  0  0  0
    1.2915   -2.2362   -0.0000 C   0  0  0  0  0  0  0  0  0  0  0  0
   -1.3274   -2.2362   -0.0000 C   0  0  0  0  0  0  0  0  0  0  0  0
    2.5830   -1.4589   -0.0000 N   0  0  0  0  0  0  0  0  0  0  0  0
    1.2796   -3.7430   -0.0000 C   0  0  0  0  0  0  0  0  0  0  0  0
   -1.3394   -3.7430   -0.0000 C   0  0  0  0  0  0  0  0  0  0  0  0
    3.8865   -2.2004   -0.0000 C   0  0  0  0  0  0  0  0  0  0  0  0
   -0.0359   -4.4844   -0.0000 C   0  0  0  0  0  0  0  0  0  0  0  0
    2.5830   -4.4844   -0.0000 C   0  0  0  0  0  0  0  0  0  0  0  0
    3.8865   -3.7071   -0.0000 C   0  0  0  0  0  0  0  0  0  0  0  0
   -0.0478   -5.9792   -0.0000 F   0  0  0  0  0  0  0  0  0  0  0  0
    2.5711   -5.9792   -0.0000 N   0  0  0  0  0  0  0  0  0  0  0  0
    3.7789   -6.8522   -0.0000 C   0  0  0  0  0  0  0  0  0  0  0  0
    1.3394   -6.8642   -0.0000 C   0  0  0  0  0  0  0  0  0  0  0  0
    3.3005   -8.2753   -0.0000 C   0  0  0  0  0  0  0  0  0  0  0  0
    5.2378   -6.5293   -0.0000 C   0  0  0  0  0  0  0  0  0  0  0  0
    1.8057   -8.2872   -0.0000 N   0  0  0  0  0  0  0  0  0  0  0  0
   -0.1794   -6.8403   -0.0000 C   0  0  0  0  0  0  0  0  0  0  0  0
    4.2931   -9.3874   -0.0000 C   0  0  0  0  0  0  0  0  0  0  0  0
    6.2423   -7.6295   -0.0000 C   0  0  0  0  0  0  0  0  0  0  0  0
    3.8267  -10.8105   -0.0000 C   0  0  0  0  0  0  0  0  0  0  0  0
    5.7520   -9.0526   -0.0000 C   0  0  0  0  0  0  0  0  0  0  0  0
    7.7013   -7.2947   -0.0000 C   0  0  0  0  0  0  0  0  0  0  0  0
    4.6997  -12.0183   -0.0000 N   0  0  0  0  0  0  0  0  0  0  0  0
    2.3797  -11.2649   -0.0000 N   0  0  0  0  0  0  0  0  0  0  0  0
    8.6938   -8.3949   -0.0000 C   0  0  0  0  0  0  0  0  0  0  0  0
    8.1318   -5.8597   -0.0000 C   0  0  0  0  0  0  0  0  0  0  0  0
    3.8028  -13.2261   -0.0000 N   0  0  0  0  0  0  0  0  0  0  0  0
    2.3678  -12.7597   -0.0000 C   0  0  0  0  0  0  0  0  0  0  0  0
   10.1528   -8.0600   -0.0000 C   0  0  0  0  0  0  0  0  0  0  0  0
    9.5787   -5.5248   -0.0000 C   0  0  0  0  0  0  0  0  0  0  0  0
   10.5952   -6.6130   -0.0000 N   0  0  0  0  0  0  0  0  0  0  0  0
   11.1453   -9.1602   -0.0000 C   0  0  0  0  0  0  0  0  0  0  0  0
  1  2  1  0  0  0  0
  2  3  1  0  0  0  0
  2  4  2  0  0  0  0
  3  5  2  0  0  0  0
  3  6  1  0  0  0  0
  4  7  1  0  0  0  0
  5  8  1  0  0  0  0
  6  9  1  0  0  0  0
  6 10  2  0  0  0  0
  8 11  2  0  0  0  0
  9 12  1  0  0  0  0
 10 13  1  0  0  0  0
 13 14  1  0  0  0  0
 13 15  1  0  0  0  0
 14 16  2  0  0  0  0
 14 17  1  0  0  0  0
 15 18  2  0  0  0  0
 15 19  1  0  0  0  0
 16 20  1  0  0  0  0
 17 21  2  0  0  0  0
 20 22  1  0  0  0  0
 20 23  2  0  0  0  0
 21 24  1  0  0  0  0
 22 25  2  0  0  0  0
 22 26  1  0  0  0  0
 24 27  2  0  0  0  0
 24 28  1  0  0  0  0
 25 29  1  0  0  0  0
 26 30  1  0  0  0  0
 27 31  1  0  0  0  0
 28 32  2  0  0  0  0
 31 33  2  0  0  0  0
 31 34  1  0  0  0  0
  7  9  2  0  0  0  0
 10 11  1  0  0  0  0
 16 18  1  0  0  0  0
 21 23  1  0  0  0  0
 29 30  2  0  0  0  0
 32 33  1  0  0  0  0
M  END
>  <MolRegNo>
2473694

>  <m>
=

>  <Value>
19000

>  <Unit>
nM

>  <Type>
IC50

>  <pValue>
4.72

>  <Ligand Efficiency>
0

>  <Binding Efficiency>
0

>  <Surface Efficiency>
0

>  <Assay Index>
1365670

>  <Assay Category>


>  <Assay Organism>
Homo sapiens

>  <Target ID>
17045

>  <Target Name>
Cytochrome P450 3A4

>  <Target Organism>
Homo sapiens

>  <Target Description>
Target is a single protein chain

>  <Sequence Accession>
P08684

>  <Reference>
ACS Med Chem Lett 11 (6), 1236-1243 (2020)

>  <Pubmed ID>
32551006

>  <DOI>
10.1021/acsmedchemlett.0c00095

$$$$
2484342
Actelion Java MolfileCreator 1.0

 35 40  0  0  0  0  0  0  0  0999 V2000
    0.0000   -0.0000   -0.0000 F   0  0  0  0  0  0  0  0  0  0  0  0
   -0.0120   -1.4954   -0.0000 C   0  0  0  0  0  0  0  0  0  0  0  0
    1.2921   -2.2372   -0.0000 C   0  0  0  0  0  0  0  0  0  0  0  0
   -1.3280   -2.2372   -0.0000 C   0  0  0  0  0  0  0  0  0  0  0  0
    2.5841   -1.4596   -0.0000 N   0  0  0  0  0  0  0  0  0  0  0  0
    1.2801   -3.7326   -0.0000 C   0  0  0  0  0  0  0  0  0  0  0  0
   -1.3399   -3.7446   -0.0000 C   0  0  0  0  0  0  0  0  0  0  0  0
    3.8881   -2.2013   -0.0000 C   0  0  0  0  0  0  0  0  0  0  0  0
   -0.0359   -4.4744   -0.0000 C   0  0  0  0  0  0  0  0  0  0  0  0
    2.5841   -4.4744   -0.0000 C   0  0  0  0  0  0  0  0  0  0  0  0
    3.8881   -3.7087   -0.0000 C   0  0  0  0  0  0  0  0  0  0  0  0
   -0.0479   -5.9698   -0.0000 F   0  0  0  0  0  0  0  0  0  0  0  0
    2.5722   -5.9698   -0.0000 N   0  0  0  0  0  0  0  0  0  0  0  0
    3.7805   -6.8431   -0.0000 C   0  0  0  0  0  0  0  0  0  0  0  0
    1.3399   -6.8551   -0.0000 C   0  0  0  0  0  0  0  0  0  0  0  0
    3.3019   -8.2668   -0.0000 C   0  0  0  0  0  0  0  0  0  0  0  0
    5.2400   -6.5201   -0.0000 C   0  0  0  0  0  0  0  0  0  0  0  0
    1.8065   -8.2788   -0.0000 N   0  0  0  0  0  0  0  0  0  0  0  0
   -0.1795   -6.8312   -0.0000 C   0  0  0  0  0  0  0  0  0  0  0  0
    4.2949   -9.3794   -0.0000 C   0  0  0  0  0  0  0  0  0  0  0  0
    6.2450   -7.6208   -0.0000 C   0  0  0  0  0  0  0  0  0  0  0  0
    3.8283  -10.8031   -0.0000 C   0  0  0  0  0  0  0  0  0  0  0  0
    5.7545   -9.0444   -0.0000 C   0  0  0  0  0  0  0  0  0  0  0  0
    7.7045   -7.2858   -0.0000 C   0  0  0  0  0  0  0  0  0  0  0  0
    4.7017  -12.0114   -0.0000 N   0  0  0  0  0  0  0  0  0  0  0  0
    2.3807  -11.2577   -0.0000 N   0  0  0  0  0  0  0  0  0  0  0  0
    8.6975   -8.3864   -0.0000 C   0  0  0  0  0  0  0  0  0  0  0  0
    8.1352   -5.8502   -0.0000 C   0  0  0  0  0  0  0  0  0  0  0  0
    3.8044  -13.2197   -0.0000 N   0  0  0  0  0  0  0  0  0  0  0  0
    2.3688  -12.7531   -0.0000 C   0  0  0  0  0  0  0  0  0  0  0  0
   10.1570   -8.0515   -0.0000 C   0  0  0  0  0  0  0  0  0  0  0  0
    9.5828   -5.5152   -0.0000 C   0  0  0  0  0  0  0  0  0  0  0  0
   10.5997   -6.6039   -0.0000 N   0  0  0  0  0  0  0  0  0  0  0  0
   11.1620   -9.1641   -0.0000 C   0  0  0  0  0  0  0  0  0  0  0  0
   12.1549  -10.2647   -0.0000 N   0  0  0  0  0  0  0  0  0  0  0  0
  1  2  1  0  0  0  0
  2  3  1  0  0  0  0
  2  4  2  0  0  0  0
  3  5  2  0  0  0  0
  3  6  1  0  0  0  0
  4  7  1  0  0  0  0
  5  8  1  0  0  0  0
  6  9  1  0  0  0  0
  6 10  2  0  0  0  0
  8 11  2  0  0  0  0
  9 12  1  0  0  0  0
 10 13  1  0  0  0  0
 13 14  1  0  0  0  0
 13 15  1  0  0  0  0
 14 16  2  0  0  0  0
 14 17  1  0  0  0  0
 15 18  2  0  0  0  0
 15 19  1  0  0  0  0
 16 20  1  0  0  0  0
 17 21  2  0  0  0  0
 20 22  1  0  0  0  0
 20 23  2  0  0  0  0
 21 24  1  0  0  0  0
 22 25  2  0  0  0  0
 22 26  1  0  0  0  0
 24 27  2  0  0  0  0
 24 28  1  0  0  0  0
 25 29  1  0  0  0  0
 26 30  1  0  0  0  0
 27 31  1  0  0  0  0
 28 32  2  0  0  0  0
 31 33  2  0  0  0  0
 31 34  1  0  0  0  0
 34 35  3  0  0  0  0
  7  9  2  0  0  0  0
 10 11  1  0  0  0  0
 16 18  1  0  0  0  0
 21 23  1  0  0  0  0
 29 30  2  0  0  0  0
 32 33  1  0  0  0  0
M  END
>  <MolRegNo>
2484342

>  <m>
=

>  <Value>
24000

>  <Unit>
nM

>  <Type>
IC50

>  <pValue>
4.62

>  <Ligand Efficiency>
0

>  <Binding Efficiency>
0

>  <Surface Efficiency>
0

>  <Assay Index>
1365670

>  <Assay Category>


>  <Assay Organism>
Homo sapiens

>  <Target ID>
17045

>  <Target Name>
Cytochrome P450 3A4

>  <Target Organism>
Homo sapiens

>  <Target Description>
Target is a single protein chain

>  <Sequence Accession>
P08684

>  <Reference>
ACS Med Chem Lett 11 (6), 1236-1243 (2020)

>  <Pubmed ID>
32551006

>  <DOI>
10.1021/acsmedchemlett.0c00095

$$$$
2078321
Actelion Java MolfileCreator 1.0

 25 28  0  0  0  0  0  0  0  0999 V2000
    0.0000   -0.0000   -0.0000 O   0  0  0  0  0  0  0  0  0  0  0  0
   -0.0199   -1.2116   -0.0000 C   0  0  0  0  0  0  0  0  0  0  0  0
    1.2911   -1.9664   -0.0000 O   0  0  0  0  0  0  0  0  0  0  0  0
   -1.3705   -1.9664   -0.0000 C   0  0  0  0  0  0  0  0  0  0  0  0
    2.6020   -1.1719   -0.0000 C   0  0  0  0  0  0  0  0  0  0  0  0
   -1.3904   -3.4164   -0.0000 C   0  0  0  0  0  0  0  0  0  0  0  0
   -2.6814   -1.2116   -0.0000 C   0  0  0  0  0  0  0  0  0  0  0  0
    3.6547   -1.7678   -0.0000 C   0  0  0  0  0  0  0  0  0  0  0  0
    2.5821    0.0795   -0.0000 C   0  0  0  0  0  0  0  0  0  0  0  0
   -2.7013   -4.1314   -0.0000 N   0  0  0  0  0  0  0  0  0  0  0  0
   -0.3377   -4.0122   -0.0000 C   0  0  0  0  0  0  0  0  0  0  0  0
   -3.9725   -1.9267   -0.0000 N   0  0  0  0  0  0  0  0  0  0  0  0
   -2.7013    0.3575   -0.0000 C   0  0  0  0  0  0  0  0  0  0  0  0
   -3.9924   -3.3766   -0.0000 C   0  0  0  0  0  0  0  0  0  0  0  0
   -6.5149   -1.9068   -0.0000 C   0  0  0  0  0  0  0  0  0  0  0  0
   -1.4698    1.2712   -0.0000 C   0  0  0  0  0  0  0  0  0  0  0  0
   -3.9725    1.2513   -0.0000 C   0  0  0  0  0  0  0  0  0  0  0  0
   -5.2834   -4.0917   -0.0000 N   0  0  0  0  0  0  0  0  0  0  0  0
   -6.5348   -3.3568   -0.0000 C   0  0  0  0  0  0  0  0  0  0  0  0
   -7.8258   -1.1520   -0.0000 C   0  0  0  0  0  0  0  0  0  0  0  0
   -1.9664    2.7609   -0.0000 O   0  0  0  0  0  0  0  0  0  0  0  0
   -3.5157    2.7410   -0.0000 C   0  0  0  0  0  0  0  0  0  0  0  0
   -7.8457   -4.0718   -0.0000 C   0  0  0  0  0  0  0  0  0  0  0  0
   -9.0970   -1.8671   -0.0000 C   0  0  0  0  0  0  0  0  0  0  0  0
   -9.1169   -3.3170   -0.0000 C   0  0  0  0  0  0  0  0  0  0  0  0
  1  2  2  0  0  0  0
  2  3  1  0  0  0  0
  2  4  1  0  0  0  0
  3  5  1  0  0  0  0
  4  6  2  0  0  0  0
  4  7  1  0  0  0  0
  5  8  1  0  0  0  0
  5  9  1  0  0  0  0
  6 10  1  0  0  0  0
  6 11  1  0  0  0  0
  7 12  1  0  0  0  0
  7 13  1  0  0  0  0
 10 14  1  0  0  0  0
 12 15  1  0  0  0  0
 13 16  2  0  0  0  0
 13 17  1  0  0  0  0
 14 18  2  0  0  0  0
 15 19  2  0  0  0  0
 15 20  1  0  0  0  0
 16 21  1  0  0  0  0
 17 22  2  0  0  0  0
 19 23  1  0  0  0  0
 20 24  2  0  0  0  0
 23 25  2  0  0  0  0
 12 14  1  0  0  0  0
 18 19  1  0  0  0  0
 21 22  1  0  0  0  0
 24 25  1  0  0  0  0
M  END
>  <MolRegNo>
2078321

>  <m>
=

>  <Value>
2680

>  <Unit>
nM

>  <Type>
IC50

>  <pValue>
5.57

>  <Ligand Efficiency>
0

>  <Binding Efficiency>
0

>  <Surface Efficiency>
0

>  <Assay Index>
1366073

>  <Assay Category>


>  <Assay Organism>
Homo sapiens

>  <Target ID>
17045

>  <Target Name>
Cytochrome P450 3A4

>  <Target Organism>
Homo sapiens

>  <Target Description>
Target is a single protein chain

>  <Sequence Accession>
P08684

>  <Reference>
J Med Chem 63 (14), 7721-7739 (2020)

>  <Pubmed ID>
32573250

>  <DOI>
10.1021/acs.jmedchem.0c00564

$$$$
2078319
Actelion Java MolfileCreator 1.0

 25 28  0  0  0  0  0  0  0  0999 V2000
    0.0000   -0.0000   -0.0000 O   0  0  0  0  0  0  0  0  0  0  0  0
   -0.0199   -1.2116   -0.0000 C   0  0  0  0  0  0  0  0  0  0  0  0
    1.2911   -1.9664   -0.0000 O   0  0  0  0  0  0  0  0  0  0  0  0
   -1.3705   -1.9664   -0.0000 C   0  0  0  0  0  0  0  0  0  0  0  0
    2.6020   -1.1719   -0.0000 C   0  0  0  0  0  0  0  0  0  0  0  0
   -1.3904   -3.4164   -0.0000 C   0  0  0  0  0  0  0  0  0  0  0  0
   -2.6814   -1.2116   -0.0000 C   0  0  0  0  0  0  0  0  0  0  0  0
    3.6547   -1.7678   -0.0000 C   0  0  0  0  0  0  0  0  0  0  0  0
    2.5821    0.0795   -0.0000 C   0  0  0  0  0  0  0  0  0  0  0  0
   -2.7013   -4.1314   -0.0000 N   0  0  0  0  0  0  0  0  0  0  0  0
   -0.3377   -4.0122   -0.0000 C   0  0  0  0  0  0  0  0  0  0  0  0
   -3.9725   -1.9267   -0.0000 N   0  0  0  0  0  0  0  0  0  0  0  0
   -2.7013    0.3575   -0.0000 C   0  0  0  0  0  0  0  0  0  0  0  0
   -3.9924   -3.3766   -0.0000 C   0  0  0  0  0  0  0  0  0  0  0  0
   -6.5149   -1.9068   -0.0000 C   0  0  0  0  0  0  0  0  0  0  0  0
   -3.9725    1.2513   -0.0000 O   0  0  0  0  0  0  0  0  0  0  0  0
   -1.4698    1.2712   -0.0000 C   0  0  0  0  0  0  0  0  0  0  0  0
   -5.2834   -4.0917   -0.0000 N   0  0  0  0  0  0  0  0  0  0  0  0
   -6.5348   -3.3568   -0.0000 C   0  0  0  0  0  0  0  0  0  0  0  0
   -7.8258   -1.1520   -0.0000 C   0  0  0  0  0  0  0  0  0  0  0  0
   -3.5157    2.7410   -0.0000 C   0  0  0  0  0  0  0  0  0  0  0  0
   -1.9664    2.7609   -0.0000 C   0  0  0  0  0  0  0  0  0  0  0  0
   -7.8457   -4.0718   -0.0000 C   0  0  0  0  0  0  0  0  0  0  0  0
   -9.0970   -1.8671   -0.0000 C   0  0  0  0  0  0  0  0  0  0  0  0
   -9.1169   -3.3170   -0.0000 C   0  0  0  0  0  0  0  0  0  0  0  0
  1  2  2  0  0  0  0
  2  3  1  0  0  0  0
  2  4  1  0  0  0  0
  3  5  1  0  0  0  0
  4  6  2  0  0  0  0
  4  7  1  0  0  0  0
  5  8  1  0  0  0  0
  5  9  1  0  0  0  0
  6 10  1  0  0  0  0
  6 11  1  0  0  0  0
  7 12  1  0  0  0  0
  7 13  1  0  0  0  0
 10 14  1  0  0  0  0
 12 15  1  0  0  0  0
 13 16  1  0  0  0  0
 13 17  2  0  0  0  0
 14 18  2  0  0  0  0
 15 19  2  0  0  0  0
 15 20  1  0  0  0  0
 16 21  1  0  0  0  0
 17 22  1  0  0  0  0
 19 23  1  0  0  0  0
 20 24  2  0  0  0  0
 23 25  2  0  0  0  0
 12 14  1  0  0  0  0
 18 19  1  0  0  0  0
 21 22  2  0  0  0  0
 24 25  1  0  0  0  0
M  END
>  <MolRegNo>
2078319

>  <m>
=

>  <Value>
2900

>  <Unit>
nM

>  <Type>
IC50

>  <pValue>
5.54

>  <Ligand Efficiency>
0

>  <Binding Efficiency>
0

>  <Surface Efficiency>
0

>  <Assay Index>
1366073

>  <Assay Category>


>  <Assay Organism>
Homo sapiens

>  <Target ID>
17045

>  <Target Name>
Cytochrome P450 3A4

>  <Target Organism>
Homo sapiens

>  <Target Description>
Target is a single protein chain

>  <Sequence Accession>
P08684

>  <Reference>
J Med Chem 63 (14), 7721-7739 (2020)

>  <Pubmed ID>
32573250

>  <DOI>
10.1021/acs.jmedchem.0c00564

$$$$
2473762
Actelion Java MolfileCreator 1.0

 24 27  0  0  0  0  0  0  0  0999 V2000
    0.0000   -0.0000   -0.0000 O   0  0  0  0  0  0  0  0  0  0  0  0
   -0.0118   -1.4834   -0.0000 C   0  0  0  0  0  0  0  0  0  0  0  0
    1.2715   -2.2251   -0.0000 O   0  0  0  0  0  0  0  0  0  0  0  0
   -1.3186   -2.2133   -0.0000 C   0  0  0  0  0  0  0  0  0  0  0  0
    2.5547   -1.4716   -0.0000 C   0  0  0  0  0  0  0  0  0  0  0  0
   -1.3303   -3.6967   -0.0000 C   0  0  0  0  0  0  0  0  0  0  0  0
   -2.6253   -1.4481   -0.0000 C   0  0  0  0  0  0  0  0  0  0  0  0
    3.8379   -2.2133   -0.0000 C   0  0  0  0  0  0  0  0  0  0  0  0
   -2.6371   -4.4266   -0.0000 N   0  0  0  0  0  0  0  0  0  0  0  0
   -0.0471   -4.4383   -0.0000 C   0  0  0  0  0  0  0  0  0  0  0  0
   -3.9321   -2.1780   -0.0000 N   0  0  0  0  0  0  0  0  0  0  0  0
   -2.6371    0.0589   -0.0000 C   0  0  0  0  0  0  0  0  0  0  0  0
   -3.9439   -3.6731   -0.0000 C   0  0  0  0  0  0  0  0  0  0  0  0
   -5.3802   -1.7071   -0.0000 C   0  0  0  0  0  0  0  0  0  0  0  0
   -3.8615    0.9536   -0.0000 C   0  0  0  0  0  0  0  0  0  0  0  0
   -1.4363    0.9418   -0.0000 C   0  0  0  0  0  0  0  0  0  0  0  0
   -5.3802   -4.1205   -0.0000 N   0  0  0  0  0  0  0  0  0  0  0  0
   -6.2749   -2.9079   -0.0000 C   0  0  0  0  0  0  0  0  0  0  0  0
   -6.0041   -0.3296   -0.0000 C   0  0  0  0  0  0  0  0  0  0  0  0
   -3.4023    2.3899   -0.0000 O   0  0  0  0  0  0  0  0  0  0  0  0
   -1.9072    2.3781   -0.0000 N   0  0  0  0  0  0  0  0  0  0  0  0
   -7.7700   -2.7431   -0.0000 C   0  0  0  0  0  0  0  0  0  0  0  0
   -7.4993   -0.1648   -0.0000 C   0  0  0  0  0  0  0  0  0  0  0  0
   -8.3940   -1.3656   -0.0000 C   0  0  0  0  0  0  0  0  0  0  0  0
  1  2  2  0  0  0  0
  2  3  1  0  0  0  0
  2  4  1  0  0  0  0
  3  5  1  0  0  0  0
  4  6  2  0  0  0  0
  4  7  1  0  0  0  0
  5  8  1  0  0  0  0
  6  9  1  0  0  0  0
  6 10  1  0  0  0  0
  7 11  1  0  0  0  0
  7 12  1  0  0  0  0
  9 13  1  0  0  0  0
 11 14  1  0  0  0  0
 12 15  2  0  0  0  0
 12 16  1  0  0  0  0
 13 17  2  0  0  0  0
 14 18  2  0  0  0  0
 14 19  1  0  0  0  0
 15 20  1  0  0  0  0
 16 21  2  0  0  0  0
 18 22  1  0  0  0  0
 19 23  2  0  0  0  0
 22 24  2  0  0  0  0
 11 13  1  0  0  0  0
 17 18  1  0  0  0  0
 20 21  1  0  0  0  0
 23 24  1  0  0  0  0
M  END
>  <MolRegNo>
2473762

>  <m>
=

>  <Value>
4920

>  <Unit>
nM

>  <Type>
IC50

>  <pValue>
5.31

>  <Ligand Efficiency>
0

>  <Binding Efficiency>
0

>  <Surface Efficiency>
0

>  <Assay Index>
1366073

>  <Assay Category>


>  <Assay Organism>
Homo sapiens

>  <Target ID>
17045

>  <Target Name>
Cytochrome P450 3A4

>  <Target Organism>
Homo sapiens

>  <Target Description>
Target is a single protein chain

>  <Sequence Accession>
P08684

>  <Reference>
J Med Chem 63 (14), 7721-7739 (2020)

>  <Pubmed ID>
32573250

>  <DOI>
10.1021/acs.jmedchem.0c00564

$$$$
2468987
Actelion Java MolfileCreator 1.0

 24 27  0  0  0  0  0  0  0  0999 V2000
    0.0000   -0.0000   -0.0000 O   0  0  0  0  0  0  0  0  0  0  0  0
   -0.0118   -1.4834   -0.0000 C   0  0  0  0  0  0  0  0  0  0  0  0
    1.2715   -2.2251   -0.0000 O   0  0  0  0  0  0  0  0  0  0  0  0
   -1.3186   -2.2133   -0.0000 C   0  0  0  0  0  0  0  0  0  0  0  0
    2.5547   -1.4716   -0.0000 C   0  0  0  0  0  0  0  0  0  0  0  0
   -1.3303   -3.6967   -0.0000 C   0  0  0  0  0  0  0  0  0  0  0  0
   -2.6253   -1.4481   -0.0000 C   0  0  0  0  0  0  0  0  0  0  0  0
    3.8379   -2.2133   -0.0000 C   0  0  0  0  0  0  0  0  0  0  0  0
   -2.6371   -4.4266   -0.0000 N   0  0  0  0  0  0  0  0  0  0  0  0
   -0.0471   -4.4383   -0.0000 C   0  0  0  0  0  0  0  0  0  0  0  0
   -3.9321   -2.1780   -0.0000 N   0  0  0  0  0  0  0  0  0  0  0  0
   -2.6371    0.0589   -0.0000 C   0  0  0  0  0  0  0  0  0  0  0  0
   -3.9439   -3.6731   -0.0000 C   0  0  0  0  0  0  0  0  0  0  0  0
   -5.3802   -1.7071   -0.0000 C   0  0  0  0  0  0  0  0  0  0  0  0
   -1.4363    0.9418   -0.0000 N   0  0  0  0  0  0  0  0  0  0  0  0
   -3.8615    0.9536   -0.0000 N   0  0  0  0  0  0  0  0  0  0  0  0
   -5.3802   -4.1205   -0.0000 N   0  0  0  0  0  0  0  0  0  0  0  0
   -6.2749   -2.9079   -0.0000 C   0  0  0  0  0  0  0  0  0  0  0  0
   -6.0041   -0.3296   -0.0000 C   0  0  0  0  0  0  0  0  0  0  0  0
   -1.9072    2.3781   -0.0000 C   0  0  0  0  0  0  0  0  0  0  0  0
   -3.4023    2.3899   -0.0000 C   0  0  0  0  0  0  0  0  0  0  0  0
   -7.7700   -2.7431   -0.0000 C   0  0  0  0  0  0  0  0  0  0  0  0
   -7.4993   -0.1648   -0.0000 C   0  0  0  0  0  0  0  0  0  0  0  0
   -8.3940   -1.3656   -0.0000 C   0  0  0  0  0  0  0  0  0  0  0  0
  1  2  2  0  0  0  0
  2  3  1  0  0  0  0
  2  4  1  0  0  0  0
  3  5  1  0  0  0  0
  4  6  2  0  0  0  0
  4  7  1  0  0  0  0
  5  8  1  0  0  0  0
  6  9  1  0  0  0  0
  6 10  1  0  0  0  0
  7 11  1  0  0  0  0
  7 12  1  0  0  0  0
  9 13  1  0  0  0  0
 11 14  1  0  0  0  0
 12 15  2  0  0  0  0
 12 16  1  0  0  0  0
 13 17  2  0  0  0  0
 14 18  2  0  0  0  0
 14 19  1  0  0  0  0
 15 20  1  0  0  0  0
 16 21  1  0  0  0  0
 18 22  1  0  0  0  0
 19 23  2  0  0  0  0
 22 24  2  0  0  0  0
 11 13  1  0  0  0  0
 17 18  1  0  0  0  0
 20 21  2  0  0  0  0
 23 24  1  0  0  0  0
M  END
>  <MolRegNo>
2468987

>  <m>
=

>  <Value>
4540

>  <Unit>
nM

>  <Type>
IC50

>  <pValue>
5.34

>  <Ligand Efficiency>
0

>  <Binding Efficiency>
0

>  <Surface Efficiency>
0

>  <Assay Index>
1366073

>  <Assay Category>


>  <Assay Organism>
Homo sapiens

>  <Target ID>
17045

>  <Target Name>
Cytochrome P450 3A4

>  <Target Organism>
Homo sapiens

>  <Target Description>
Target is a single protein chain

>  <Sequence Accession>
P08684

>  <Reference>
J Med Chem 63 (14), 7721-7739 (2020)

>  <Pubmed ID>
32573250

>  <DOI>
10.1021/acs.jmedchem.0c00564

$$$$
2473843
Actelion Java MolfileCreator 1.0

 24 27  0  0  0  0  0  0  0  0999 V2000
    0.0000   -0.0000   -0.0000 O   0  0  0  0  0  0  0  0  0  0  0  0
   -0.0118   -1.4834   -0.0000 C   0  0  0  0  0  0  0  0  0  0  0  0
    1.2715   -2.2251   -0.0000 O   0  0  0  0  0  0  0  0  0  0  0  0
   -1.3186   -2.2133   -0.0000 C   0  0  0  0  0  0  0  0  0  0  0  0
    2.5547   -1.4716   -0.0000 C   0  0  0  0  0  0  0  0  0  0  0  0
   -1.3303   -3.6967   -0.0000 C   0  0  0  0  0  0  0  0  0  0  0  0
   -2.6253   -1.4481   -0.0000 C   0  0  0  0  0  0  0  0  0  0  0  0
    3.8379   -2.2133   -0.0000 C   0  0  0  0  0  0  0  0  0  0  0  0
   -2.6371   -4.4266   -0.0000 N   0  0  0  0  0  0  0  0  0  0  0  0
   -0.0471   -4.4383   -0.0000 C   0  0  0  0  0  0  0  0  0  0  0  0
   -3.9321   -2.1780   -0.0000 N   0  0  0  0  0  0  0  0  0  0  0  0
   -2.6371    0.0589   -0.0000 C   0  0  0  0  0  0  0  0  0  0  0  0
   -3.9439   -3.6731   -0.0000 C   0  0  0  0  0  0  0  0  0  0  0  0
   -5.3802   -1.7071   -0.0000 C   0  0  0  0  0  0  0  0  0  0  0  0
   -1.4363    0.9418   -0.0000 N   0  0  0  0  0  0  0  0  0  0  0  0
   -3.8615    0.9536   -0.0000 C   0  0  0  0  0  0  0  0  0  0  0  0
   -5.3802   -4.1205   -0.0000 N   0  0  0  0  0  0  0  0  0  0  0  0
   -6.2749   -2.9079   -0.0000 C   0  0  0  0  0  0  0  0  0  0  0  0
   -6.0041   -0.3296   -0.0000 C   0  0  0  0  0  0  0  0  0  0  0  0
   -1.9072    2.3781   -0.0000 C   0  0  0  0  0  0  0  0  0  0  0  0
   -3.4023    2.3899   -0.0000 O   0  0  0  0  0  0  0  0  0  0  0  0
   -7.7700   -2.7431   -0.0000 C   0  0  0  0  0  0  0  0  0  0  0  0
   -7.4993   -0.1648   -0.0000 C   0  0  0  0  0  0  0  0  0  0  0  0
   -8.3940   -1.3656   -0.0000 C   0  0  0  0  0  0  0  0  0  0  0  0
  1  2  2  0  0  0  0
  2  3  1  0  0  0  0
  2  4  1  0  0  0  0
  3  5  1  0  0  0  0
  4  6  2  0  0  0  0
  4  7  1  0  0  0  0
  5  8  1  0  0  0  0
  6  9  1  0  0  0  0
  6 10  1  0  0  0  0
  7 11  1  0  0  0  0
  7 12  1  0  0  0  0
  9 13  1  0  0  0  0
 11 14  1  0  0  0  0
 12 15  1  0  0  0  0
 12 16  2  0  0  0  0
 13 17  2  0  0  0  0
 14 18  2  0  0  0  0
 14 19  1  0  0  0  0
 15 20  2  0  0  0  0
 16 21  1  0  0  0  0
 18 22  1  0  0  0  0
 19 23  2  0  0  0  0
 22 24  2  0  0  0  0
 11 13  1  0  0  0  0
 17 18  1  0  0  0  0
 20 21  1  0  0  0  0
 23 24  1  0  0  0  0
M  END
>  <MolRegNo>
2473843

>  <m>
=

>  <Value>
6410

>  <Unit>
nM

>  <Type>
IC50

>  <pValue>
5.19

>  <Ligand Efficiency>
0

>  <Binding Efficiency>
0

>  <Surface Efficiency>
0

>  <Assay Index>
1366073

>  <Assay Category>


>  <Assay Organism>
Homo sapiens

>  <Target ID>
17045

>  <Target Name>
Cytochrome P450 3A4

>  <Target Organism>
Homo sapiens

>  <Target Description>
Target is a single protein chain

>  <Sequence Accession>
P08684

>  <Reference>
J Med Chem 63 (14), 7721-7739 (2020)

>  <Pubmed ID>
32573250

>  <DOI>
10.1021/acs.jmedchem.0c00564

$$$$
2482830
Actelion Java MolfileCreator 1.0

 25 28  0  0  0  0  0  0  0  0999 V2000
    0.0000   -0.0000   -0.0000 O   0  0  0  0  0  0  0  0  0  0  0  0
   -0.0118   -1.4831   -0.0000 C   0  0  0  0  0  0  0  0  0  0  0  0
    1.2713   -2.2247   -0.0000 O   0  0  0  0  0  0  0  0  0  0  0  0
   -1.3183   -2.2129   -0.0000 C   0  0  0  0  0  0  0  0  0  0  0  0
    2.5543   -1.4714   -0.0000 C   0  0  0  0  0  0  0  0  0  0  0  0
   -1.3301   -3.6960   -0.0000 C   0  0  0  0  0  0  0  0  0  0  0  0
   -2.6249   -1.4478   -0.0000 C   0  0  0  0  0  0  0  0  0  0  0  0
    3.8373   -2.2129   -0.0000 C   0  0  0  0  0  0  0  0  0  0  0  0
    2.5425    0.0353   -0.0000 C   0  0  0  0  0  0  0  0  0  0  0  0
   -2.6367   -4.4258   -0.0000 N   0  0  0  0  0  0  0  0  0  0  0  0
   -0.0471   -4.4376   -0.0000 C   0  0  0  0  0  0  0  0  0  0  0  0
   -3.9315   -2.1776   -0.0000 N   0  0  0  0  0  0  0  0  0  0  0  0
   -2.6367    0.0589   -0.0000 C   0  0  0  0  0  0  0  0  0  0  0  0
   -3.9432   -3.6725   -0.0000 C   0  0  0  0  0  0  0  0  0  0  0  0
   -5.3793   -1.7068   -0.0000 C   0  0  0  0  0  0  0  0  0  0  0  0
   -1.4360    0.9417   -0.0000 N   0  0  0  0  0  0  0  0  0  0  0  0
   -3.8608    0.9534   -0.0000 C   0  0  0  0  0  0  0  0  0  0  0  0
   -5.3793   -4.1198   -0.0000 N   0  0  0  0  0  0  0  0  0  0  0  0
   -6.2739   -2.9074   -0.0000 C   0  0  0  0  0  0  0  0  0  0  0  0
   -6.0031   -0.3296   -0.0000 C   0  0  0  0  0  0  0  0  0  0  0  0
   -1.9069    2.3777   -0.0000 C   0  0  0  0  0  0  0  0  0  0  0  0
   -3.4018    2.3895   -0.0000 O   0  0  0  0  0  0  0  0  0  0  0  0
   -7.7688   -2.7426   -0.0000 C   0  0  0  0  0  0  0  0  0  0  0  0
   -7.4980   -0.1648   -0.0000 C   0  0  0  0  0  0  0  0  0  0  0  0
   -8.3926   -1.3654   -0.0000 C   0  0  0  0  0  0  0  0  0  0  0  0
  1  2  2  0  0  0  0
  2  3  1  0  0  0  0
  2  4  1  0  0  0  0
  3  5  1  0  0  0  0
  4  6  2  0  0  0  0
  4  7  1  0  0  0  0
  5  8  1  0  0  0  0
  5  9  1  0  0  0  0
  6 10  1  0  0  0  0
  6 11  1  0  0  0  0
  7 12  1  0  0  0  0
  7 13  1  0  0  0  0
 10 14  1  0  0  0  0
 12 15  1  0  0  0  0
 13 16  1  0  0  0  0
 13 17  2  0  0  0  0
 14 18  2  0  0  0  0
 15 19  2  0  0  0  0
 15 20  1  0  0  0  0
 16 21  2  0  0  0  0
 17 22  1  0  0  0  0
 19 23  1  0  0  0  0
 20 24  2  0  0  0  0
 23 25  2  0  0  0  0
 12 14  1  0  0  0  0
 18 19  1  0  0  0  0
 21 22  1  0  0  0  0
 24 25  1  0  0  0  0
M  END
>  <MolRegNo>
2482830

>  <m>
=

>  <Value>
5920

>  <Unit>
nM

>  <Type>
IC50

>  <pValue>
5.23

>  <Ligand Efficiency>
0

>  <Binding Efficiency>
0

>  <Surface Efficiency>
0

>  <Assay Index>
1366073

>  <Assay Category>


>  <Assay Organism>
Homo sapiens

>  <Target ID>
17045

>  <Target Name>
Cytochrome P450 3A4

>  <Target Organism>
Homo sapiens

>  <Target Description>
Target is a single protein chain

>  <Sequence Accession>
P08684

>  <Reference>
J Med Chem 63 (14), 7721-7739 (2020)

>  <Pubmed ID>
32573250

>  <DOI>
10.1021/acs.jmedchem.0c00564

$$$$
1593254
Actelion Java MolfileCreator 1.0

 37 40  0  0  1  0  0  0  0  0999 V2000
    0.0000   -0.0000   -0.0000 O   0  0  0  0  0  0  0  0  0  0  0  0
   -0.5572    1.1392   -0.0000 C   0  0  0  0  0  0  0  0  0  0  0  0
   -2.1422    1.1516   -0.0000 N   0  0  0  0  0  0  0  0  0  0  0  0
    0.4086    2.3774   -0.0000 C   0  0  0  0  0  0  0  0  0  0  0  0
   -3.1328    2.3898   -0.0000 C   0  0  0  0  0  0  0  0  0  0  0  0
   -2.8356   -0.2600   -0.0000 C   0  0  0  0  0  0  0  0  0  0  0  0
    1.9317    2.0307   -0.0000 N   0  0  0  0  0  0  0  0  0  0  0  0
    0.0495    3.9252   -0.0000 C   0  0  0  0  0  0  0  0  0  0  0  0
   -2.7984    3.9376   -0.0000 C   0  0  0  0  0  0  0  0  0  0  0  0
   -4.6434    1.9440   -0.0000 C   0  0  0  0  0  0  0  0  0  0  0  0
   -1.9564   -1.5478   -0.0000 C   0  0  0  0  0  0  0  0  0  0  0  0
    2.3774    0.5448   -0.0000 C   0  0  0  0  0  0  0  0  0  0  0  0
   -1.3745    4.6187   -0.0000 N   0  0  0  0  0  0  0  0  0  0  0  0
    1.0154    4.7177   -0.0000 C   0  0  0  0  0  0  0  0  0  0  0  0
   -3.9624    5.0149   -0.0000 C   0  0  0  0  0  0  0  0  0  0  0  0
   -5.8074    3.0213   -0.0000 C   0  0  0  0  0  0  0  0  0  0  0  0
   -2.6498   -2.9470   -0.0000 C   0  0  0  0  0  0  0  0  0  0  0  0
   -0.4086   -1.4116   -0.0000 C   0  0  0  0  0  0  0  0  0  0  0  0
    1.5107   -0.3591   -0.0000 O   0  0  0  0  0  0  0  0  0  0  0  0
    3.9005    0.2105   -0.0000 C   0  0  0  0  0  0  0  0  0  0  0  0
   -1.3868    6.2036   -0.0000 C   0  0  0  0  0  0  0  0  0  0  0  0
   -5.4730    4.5691   -0.0000 C   0  0  0  0  0  0  0  0  0  0  0  0
   -1.7707   -4.2224   -0.0000 C   0  0  0  0  0  0  0  0  0  0  0  0
   -4.2224   -3.0585   -0.0000 C   0  0  0  0  0  0  0  0  0  0  0  0
    0.4705   -2.6870   -0.0000 C   0  0  0  0  0  0  0  0  0  0  0  0
    0.1238   -0.2600   -0.0000 C   0  0  0  0  0  0  0  0  0  0  0  0
    4.3462   -1.2754   -0.0000 N   0  0  0  0  0  0  0  0  0  0  0  0
    4.7425    1.1392   -0.0000 C   0  0  0  0  0  0  0  0  0  0  0  0
   -0.3096    6.8475   -0.0000 O   0  0  0  0  0  0  0  0  0  0  0  0
   -2.4889    6.8475   -0.0000 C   0  0  0  0  0  0  0  0  0  0  0  0
   -6.6370    5.6464   -0.0000 C   0  0  0  0  0  0  0  0  0  0  0  0
   -0.2229   -4.0862   -0.0000 C   0  0  0  0  0  0  0  0  0  0  0  0
   -2.4641   -5.6216   -0.0000 C   0  0  0  0  0  0  0  0  0  0  0  0
   -4.9158   -4.4577   -0.0000 C   0  0  0  0  0  0  0  0  0  0  0  0
    5.5597   -1.5478   -0.0000 C   0  0  0  0  0  0  0  0  0  0  0  0
   -7.5657    6.5132   -0.0000 N   0  0  0  0  0  0  0  0  0  0  0  0
   -4.0367   -5.7331   -0.0000 C   0  0  0  0  0  0  0  0  0  0  0  0
  1  2  2  0  0  0  0
  2  3  1  0  0  0  0
  2  4  1  0  0  0  0
  3  5  1  0  0  0  0
  3  6  1  0  0  0  0
  4  7  1  6  0  0  0
  4  8  1  0  0  0  0
  5  9  2  0  0  0  0
  5 10  1  0  0  0  0
  6 11  1  0  0  0  0
  7 12  1  0  0  0  0
  8 13  1  0  0  0  0
  8 14  1  1  0  0  0
  9 15  1  0  0  0  0
 10 16  2  0  0  0  0
 11 17  1  0  0  0  0
 11 18  2  0  0  0  0
 12 19  2  0  0  0  0
 12 20  1  0  0  0  0
 13 21  1  0  0  0  0
 15 22  2  0  0  0  0
 17 23  1  0  0  0  0
 17 24  2  0  0  0  0
 18 25  1  0  0  0  0
 18 26  1  0  0  0  0
 20 27  1  6  0  0  0
 20 28  1  0  0  0  0
 21 29  2  0  0  0  0
 21 30  1  0  0  0  0
 22 31  1  0  0  0  0
 23 32  1  0  0  0  0
 23 33  2  0  0  0  0
 24 34  1  0  0  0  0
 27 35  1  0  0  0  0
 31 36  3  0  0  0  0
 33 37  1  0  0  0  0
  9 13  1  0  0  0  0
 16 22  1  0  0  0  0
 25 32  2  0  0  0  0
 34 37  2  0  0  0  0
M  END
>  <MolRegNo>
1593254

>  <m>
=

>  <Value>
16000

>  <Unit>
nM

>  <Type>
IC50

>  <pValue>
4.8

>  <Ligand Efficiency>
0

>  <Binding Efficiency>
0

>  <Surface Efficiency>
0

>  <Assay Index>
1366494

>  <Assay Category>


>  <Assay Organism>
Homo sapiens

>  <Target ID>
17045

>  <Target Name>
Cytochrome P450 3A4

>  <Target Organism>
Homo sapiens

>  <Target Description>
Target is a single protein chain

>  <Sequence Accession>
P08684

>  <Reference>
J Med Chem 63 (15), 7957-7985 (2020)

>  <Pubmed ID>
32142281

>  <DOI>
10.1021/acs.jmedchem.9b01451

$$$$
2470836
Actelion Java MolfileCreator 1.0

 28 30  0  0  0  0  0  0  0  0999 V2000
    0.0000   -0.0000   -0.0000 Cl  0  0  0  0  0  0  0  0  0  0  0  0
   -0.7568   -1.2889   -0.0000 C   0  0  0  0  0  0  0  0  0  0  0  0
   -0.0118   -2.5779   -0.0000 C   0  0  0  0  0  0  0  0  0  0  0  0
   -2.2586   -1.2771   -0.0000 C   0  0  0  0  0  0  0  0  0  0  0  0
    1.4781   -2.5660   -0.0000 S   0  0  0  0  0  0  0  0  0  0  0  0
   -0.7686   -3.8668   -0.0000 C   0  0  0  0  0  0  0  0  0  0  0  0
   -3.0154   -2.5542   -0.0000 C   0  0  0  0  0  0  0  0  0  0  0  0
    2.2113   -1.2535   -0.0000 C   0  0  0  0  0  0  0  0  0  0  0  0
   -2.2822   -3.8550   -0.0000 C   0  0  0  0  0  0  0  0  0  0  0  0
   -4.5290   -2.5424   -0.0000 N   0  0  0  0  0  0  0  0  0  0  0  0
    3.7012   -1.2416   -0.0000 F   0  0  0  0  0  0  0  0  0  0  0  0
    1.4545    0.0591   -0.0000 F   0  0  0  0  0  0  0  0  0  0  0  0
    2.9444    0.0710   -0.0000 F   0  0  0  0  0  0  0  0  0  0  0  0
   -5.2858   -1.2298   -0.0000 C   0  0  0  0  0  0  0  0  0  0  0  0
   -4.5526    0.0828   -0.0000 O   0  0  0  0  0  0  0  0  0  0  0  0
   -6.7994   -1.2180   -0.0000 C   0  0  0  0  0  0  0  0  0  0  0  0
   -7.5562   -2.4951   -0.0000 C   0  0  0  0  0  0  0  0  0  0  0  0
   -7.5562    0.0828   -0.0000 C   0  0  0  0  0  0  0  0  0  0  0  0
   -9.0580   -2.4833   -0.0000 C   0  0  0  0  0  0  0  0  0  0  0  0
   -9.0698    0.0946   -0.0000 C   0  0  0  0  0  0  0  0  0  0  0  0
   -9.8148   -1.1825   -0.0000 C   0  0  0  0  0  0  0  0  0  0  0  0
  -11.3284   -1.1707   -0.0000 C   0  0  0  0  0  0  0  0  0  0  0  0
  -12.0852   -2.4596   -0.0000 N   0  0  0  0  0  0  0  0  0  0  0  0
  -13.5988   -2.4478   -0.0000 C   0  0  0  0  0  0  0  0  0  0  0  0
  -11.3402   -3.7367   -0.0000 C   0  0  0  0  0  0  0  0  0  0  0  0
  -14.3556   -3.7249   -0.0000 C   0  0  0  0  0  0  0  0  0  0  0  0
  -12.1088   -5.0256   -0.0000 C   0  0  0  0  0  0  0  0  0  0  0  0
  -13.6224   -5.0138   -0.0000 C   0  0  0  0  0  0  0  0  0  0  0  0
  1  2  1  0  0  0  0
  2  3  2  0  0  0  0
  2  4  1  0  0  0  0
  3  5  1  0  0  0  0
  3  6  1  0  0  0  0
  4  7  2  0  0  0  0
  5  8  1  0  0  0  0
  6  9  2  0  0  0  0
  7 10  1  0  0  0  0
  8 11  1  0  0  0  0
  8 12  1  0  0  0  0
  8 13  1  0  0  0  0
 10 14  1  0  0  0  0
 14 15  2  0  0  0  0
 14 16  1  0  0  0  0
 16 17  2  0  0  0  0
 16 18  1  0  0  0  0
 17 19  1  0  0  0  0
 18 20  2  0  0  0  0
 19 21  2  0  0  0  0
 21 22  1  0  0  0  0
 22 23  1  0  0  0  0
 23 24  1  0  0  0  0
 23 25  1  0  0  0  0
 24 26  1  0  0  0  0
 25 27  1  0  0  0  0
 26 28  1  0  0  0  0
  7  9  1  0  0  0  0
 20 21  1  0  0  0  0
 27 28  1  0  0  0  0
M  END
>  <MolRegNo>
2470836

>  <m>
=

>  <Value>
15100

>  <Unit>
nM

>  <Type>
IC50

>  <pValue>
4.82

>  <Ligand Efficiency>
0

>  <Binding Efficiency>
0

>  <Surface Efficiency>
0

>  <Assay Index>
1367775

>  <Assay Category>


>  <Assay Organism>
Homo sapiens

>  <Target ID>
17045

>  <Target Name>
Cytochrome P450 3A4

>  <Target Organism>
Homo sapiens

>  <Target Description>
Target is a single protein chain

>  <Sequence Accession>
P08684

>  <Reference>
J Med Chem 63 (13), 7211-7225 (2020)

>  <Pubmed ID>
32490678

>  <DOI>
10.1021/acs.jmedchem.0c00463

$$$$
2477489
Actelion Java MolfileCreator 1.0

 29 32  0  0  0  0  0  0  0  0999 V2000
    0.0000   -0.0000   -0.0000 O   0  0  0  0  0  0  0  0  0  0  0  0
   -0.7602   -1.2947   -0.0000 C   0  0  0  0  0  0  0  0  0  0  0  0
   -0.0238   -2.5893   -0.0000 N   0  0  0  0  0  0  0  0  0  0  0  0
   -2.2805   -1.2828   -0.0000 C   0  0  0  0  0  0  0  0  0  0  0  0
    1.4610   -2.7319   -0.0000 C   0  0  0  0  0  0  0  0  0  0  0  0
   -0.6414   -3.9553   -0.0000 C   0  0  0  0  0  0  0  0  0  0  0  0
   -3.0407   -2.5656   -0.0000 C   0  0  0  0  0  0  0  0  0  0  0  0
   -3.0407    0.0238   -0.0000 C   0  0  0  0  0  0  0  0  0  0  0  0
    1.7579   -4.1928   -0.0000 C   0  0  0  0  0  0  0  0  0  0  0  0
    2.5537   -1.7223   -0.0000 C   0  0  0  0  0  0  0  0  0  0  0  0
    0.4632   -4.9530   -0.0000 C   0  0  0  0  0  0  0  0  0  0  0  0
   -4.5491   -2.5537   -0.0000 C   0  0  0  0  0  0  0  0  0  0  0  0
   -4.5610    0.0356   -0.0000 C   0  0  0  0  0  0  0  0  0  0  0  0
    3.1713   -4.6442   -0.0000 C   0  0  0  0  0  0  0  0  0  0  0  0
    3.9671   -2.1617   -0.0000 C   0  0  0  0  0  0  0  0  0  0  0  0
   -5.3093   -1.2472   -0.0000 C   0  0  0  0  0  0  0  0  0  0  0  0
    4.2760   -3.6227   -0.0000 C   0  0  0  0  0  0  0  0  0  0  0  0
   -6.8297   -1.2353   -0.0000 C   0  0  0  0  0  0  0  0  0  0  0  0
    5.7013   -4.0740   -0.0000 C   0  0  0  0  0  0  0  0  0  0  0  0
   -7.5898   -2.5299   -0.0000 N   0  0  0  0  0  0  0  0  0  0  0  0
   -7.6017    0.0831   -0.0000 C   0  0  0  0  0  0  0  0  0  0  0  0
    6.0101   -5.5350   -0.0000 C   0  0  0  0  0  0  0  0  0  0  0  0
    6.8059   -3.0526   -0.0000 C   0  0  0  0  0  0  0  0  0  0  0  0
    7.1385   -4.4422   -0.0000 C   0  0  0  0  0  0  0  0  0  0  0  0
   -9.1102   -2.5181   -0.0000 C   0  0  0  0  0  0  0  0  0  0  0  0
   -6.8415   -3.8127   -0.0000 C   0  0  0  0  0  0  0  0  0  0  0  0
   -9.8703   -3.8009   -0.0000 C   0  0  0  0  0  0  0  0  0  0  0  0
   -7.6136   -5.1074   -0.0000 C   0  0  0  0  0  0  0  0  0  0  0  0
   -9.1339   -5.0955   -0.0000 C   0  0  0  0  0  0  0  0  0  0  0  0
  1  2  2  0  0  0  0
  2  3  1  0  0  0  0
  2  4  1  0  0  0  0
  3  5  1  0  0  0  0
  3  6  1  0  0  0  0
  4  7  2  0  0  0  0
  4  8  1  0  0  0  0
  5  9  2  0  0  0  0
  5 10  1  0  0  0  0
  6 11  1  0  0  0  0
  7 12  1  0  0  0  0
  8 13  2  0  0  0  0
  9 14  1  0  0  0  0
 10 15  2  0  0  0  0
 12 16  2  0  0  0  0
 14 17  2  0  0  0  0
 16 18  1  0  0  0  0
 17 19  1  0  0  0  0
 18 20  1  0  0  0  0
 18 21  1  0  0  0  0
 19 22  1  0  0  0  0
 19 23  1  0  0  0  0
 19 24  1  0  0  0  0
 20 25  1  0  0  0  0
 20 26  1  0  0  0  0
 25 27  1  0  0  0  0
 26 28  1  0  0  0  0
 27 29  1  0  0  0  0
  9 11  1  0  0  0  0
 13 16  1  0  0  0  0
 15 17  1  0  0  0  0
 28 29  1  0  0  0  0
M  END
>  <MolRegNo>
2477489

>  <m>
=

>  <Value>
24000

>  <Unit>
nM

>  <Type>
IC50

>  <pValue>
4.62

>  <Ligand Efficiency>
0

>  <Binding Efficiency>
0

>  <Surface Efficiency>
0

>  <Assay Index>
1367775

>  <Assay Category>


>  <Assay Organism>
Homo sapiens

>  <Target ID>
17045

>  <Target Name>
Cytochrome P450 3A4

>  <Target Organism>
Homo sapiens

>  <Target Description>
Target is a single protein chain

>  <Sequence Accession>
P08684

>  <Reference>
J Med Chem 63 (13), 7211-7225 (2020)

>  <Pubmed ID>
32490678

>  <DOI>
10.1021/acs.jmedchem.0c00463

$$$$
2469530
Actelion Java MolfileCreator 1.0

 38 41  0  0  0  0  0  0  0  0999 V2000
    0.0000   -0.0000   -0.0000 Cl  0  0  0  0  0  0  0  0  0  0  0  0
   -0.0240   -1.4976   -0.0000 C   0  0  0  0  0  0  0  0  0  0  0  0
    1.2580   -2.2523   -0.0000 C   0  0  0  0  0  0  0  0  0  0  0  0
   -1.3418   -2.2284   -0.0000 C   0  0  0  0  0  0  0  0  0  0  0  0
    2.5519   -1.4976   -0.0000 S   0  0  0  0  0  0  0  0  0  0  0  0
    1.2220   -3.7499   -0.0000 C   0  0  0  0  0  0  0  0  0  0  0  0
   -1.3658   -3.7259   -0.0000 C   0  0  0  0  0  0  0  0  0  0  0  0
    3.9895   -1.8690   -0.0000 O   0  0  0  0  0  0  0  0  0  0  0  0
    2.9352   -2.9352   -0.0000 O   0  0  0  0  0  0  0  0  0  0  0  0
    2.5638    0.0359   -0.0000 N   0  0  0  0  0  0  0  0  0  0  0  0
   -0.0958   -4.4807   -0.0000 C   0  0  0  0  0  0  0  0  0  0  0  0
   -2.6956   -4.4448   -0.0000 F   0  0  0  0  0  0  0  0  0  0  0  0
    3.8817    0.7907   -0.0000 C   0  0  0  0  0  0  0  0  0  0  0  0
    3.8817    2.3122   -0.0000 C   0  0  0  0  0  0  0  0  0  0  0  0
    5.1636    0.0359   -0.0000 C   0  0  0  0  0  0  0  0  0  0  0  0
    2.5758    3.0910   -0.0000 O   0  0  0  0  0  0  0  0  0  0  0  0
    5.1876    3.0550   -0.0000 N   0  0  0  0  0  0  0  0  0  0  0  0
    6.4575    0.7907   -0.0000 C   0  0  0  0  0  0  0  0  0  0  0  0
    2.5758    4.6005   -0.0000 C   0  0  0  0  0  0  0  0  0  0  0  0
    6.4695    2.3003   -0.0000 C   0  0  0  0  0  0  0  0  0  0  0  0
    7.7394    0.0359   -0.0000 C   0  0  0  0  0  0  0  0  0  0  0  0
    9.0453    0.7907   -0.0000 C   0  0  0  0  0  0  0  0  0  0  0  0
    7.7274   -1.4496   -0.0000 C   0  0  0  0  0  0  0  0  0  0  0  0
   10.3272    0.0359   -0.0000 C   0  0  0  0  0  0  0  0  0  0  0  0
    9.0094   -2.2044   -0.0000 C   0  0  0  0  0  0  0  0  0  0  0  0
   11.6331    0.7907   -0.0000 C   0  0  0  0  0  0  0  0  0  0  0  0
   10.3033   -1.4616   -0.0000 C   0  0  0  0  0  0  0  0  0  0  0  0
   11.6451    2.3122   -0.0000 O   0  0  0  0  0  0  0  0  0  0  0  0
   12.9150    0.0359   -0.0000 N   0  0  0  0  0  0  0  0  0  0  0  0
   11.5852   -2.2164   -0.0000 N   0  0  0  0  0  0  0  0  0  0  0  0
   12.8911   -1.4616   -0.0000 C   0  0  0  0  0  0  0  0  0  0  0  0
   14.2089    0.7907   -0.0000 C   0  0  0  0  0  0  0  0  0  0  0  0
   15.4908    0.0359   -0.0000 C   0  0  0  0  0  0  0  0  0  0  0  0
   16.7967    0.7907   -0.0000 C   0  0  0  0  0  0  0  0  0  0  0  0
   15.4669   -1.4616   -0.0000 C   0  0  0  0  0  0  0  0  0  0  0  0
   16.7967    2.3122   -0.0000 O   0  0  0  0  0  0  0  0  0  0  0  0
   18.0786    0.0359   -0.0000 N   0  0  0  0  0  0  0  0  0  0  0  0
   19.3725    0.7907   -0.0000 C   0  0  0  0  0  0  0  0  0  0  0  0
  1  2  1  0  0  0  0
  2  3  2  0  0  0  0
  2  4  1  0  0  0  0
  3  5  1  0  0  0  0
  3  6  1  0  0  0  0
  4  7  2  0  0  0  0
  5  8  2  0  0  0  0
  5  9  2  0  0  0  0
  5 10  1  0  0  0  0
  6 11  2  0  0  0  0
  7 12  1  0  0  0  0
 10 13  1  0  0  0  0
 13 14  2  0  0  0  0
 13 15  1  0  0  0  0
 14 16  1  0  0  0  0
 14 17  1  0  0  0  0
 15 18  2  0  0  0  0
 16 19  1  0  0  0  0
 17 20  2  0  0  0  0
 18 21  1  0  0  0  0
 21 22  2  0  0  0  0
 21 23  1  0  0  0  0
 22 24  1  0  0  0  0
 23 25  2  0  0  0  0
 24 26  1  0  0  0  0
 24 27  2  0  0  0  0
 26 28  2  0  0  0  0
 26 29  1  0  0  0  0
 27 30  1  0  0  0  0
 29 31  1  0  0  0  0
 29 32  1  0  0  0  0
 32 33  1  0  0  0  0
 33 34  1  0  0  0  0
 33 35  1  1  0  0  0
 34 36  2  0  0  0  0
 34 37  1  0  0  0  0
 37 38  1  0  0  0  0
  7 11  1  0  0  0  0
 18 20  1  0  0  0  0
 25 27  1  0  0  0  0
 30 31  2  0  0  0  0
M  END
>  <MolRegNo>
2469530

>  <m>
=

>  <Value>
23300

>  <Unit>
nM

>  <Type>
IC50

>  <pValue>
4.63

>  <Ligand Efficiency>
0

>  <Binding Efficiency>
0

>  <Surface Efficiency>
0

>  <Assay Index>
1368452

>  <Assay Category>


>  <Assay Organism>
Homo sapiens

>  <Target ID>
17045

>  <Target Name>
Cytochrome P450 3A4

>  <Target Organism>
Homo sapiens

>  <Target Description>
Target is a single protein chain

>  <Sequence Accession>
P08684

>  <Reference>
ACS Med Chem Lett 11 (7), 1463-1469 (2020)

>  <Pubmed ID>
32676155

>  <DOI>
10.1021/acsmedchemlett.0c00239

$$$$
2481767
Actelion Java MolfileCreator 1.0

 37 42  0  0  0  0  0  0  0  0999 V2000
    0.0000   -0.0000   -0.0000 F   0  0  0  0  0  0  0  0  0  0  0  0
    1.3068    0.7793   -0.0000 C   0  0  0  0  0  0  0  0  0  0  0  0
    1.2948    2.3139   -0.0000 F   0  0  0  0  0  0  0  0  0  0  0  0
   -0.0240    1.5586   -0.0000 F   0  0  0  0  0  0  0  0  0  0  0  0
    2.6136    0.0240   -0.0000 C   0  0  0  0  0  0  0  0  0  0  0  0
    2.6016   -1.4747   -0.0000 C   0  0  0  0  0  0  0  0  0  0  0  0
    3.9205    0.8033   -0.0000 C   0  0  0  0  0  0  0  0  0  0  0  0
    3.9085   -2.2300   -0.0000 C   0  0  0  0  0  0  0  0  0  0  0  0
    5.2273    0.0599   -0.0000 C   0  0  0  0  0  0  0  0  0  0  0  0
    5.2153   -1.4507   -0.0000 C   0  0  0  0  0  0  0  0  0  0  0  0
    6.5221   -2.2060   -0.0000 C   0  0  0  0  0  0  0  0  0  0  0  0
    7.8169   -1.4267   -0.0000 C   0  0  0  0  0  0  0  0  0  0  0  0
    6.5101   -3.7047   -0.0000 C   0  0  0  0  0  0  0  0  0  0  0  0
    9.1357   -2.1820   -0.0000 C   0  0  0  0  0  0  0  0  0  0  0  0
    7.8169   -4.4600   -0.0000 C   0  0  0  0  0  0  0  0  0  0  0  0
    9.1238   -3.6927   -0.0000 C   0  0  0  0  0  0  0  0  0  0  0  0
   10.4306   -1.4147   -0.0000 C   0  0  0  0  0  0  0  0  0  0  0  0
   10.4426   -4.4480   -0.0000 C   0  0  0  0  0  0  0  0  0  0  0  0
   11.7374   -2.1580   -0.0000 C   0  0  0  0  0  0  0  0  0  0  0  0
   10.4306   -5.9466   -0.0000 C   0  0  0  0  0  0  0  0  0  0  0  0
   11.7374   -3.6567   -0.0000 C   0  0  0  0  0  0  0  0  0  0  0  0
   13.0442   -1.3907   -0.0000 C   0  0  0  0  0  0  0  0  0  0  0  0
   11.7374   -6.7019   -0.0000 C   0  0  0  0  0  0  0  0  0  0  0  0
    9.0878   -6.7019   -0.0000 C   0  0  0  0  0  0  0  0  0  0  0  0
   13.0322    0.1439   -0.0000 O   0  0  0  0  0  0  0  0  0  0  0  0
   14.3630   -2.1341   -0.0000 O   0  0  0  0  0  0  0  0  0  0  0  0
   11.7254   -8.2006   -0.0000 C   0  0  0  0  0  0  0  0  0  0  0  0
    9.0878   -8.2126   -0.0000 C   0  0  0  0  0  0  0  0  0  0  0  0
   10.3946   -8.9559   -0.0000 C   0  0  0  0  0  0  0  0  0  0  0  0
   10.3826  -10.4665   -0.0000 C   0  0  0  0  0  0  0  0  0  0  0  0
   11.6894  -11.2099   -0.0000 C   0  0  0  0  0  0  0  0  0  0  0  0
    9.0518  -11.2099   -0.0000 C   0  0  0  0  0  0  0  0  0  0  0  0
    9.8071  -11.6415   -0.0000 C   0  0  0  0  0  0  0  0  0  0  0  0
   11.6774  -12.7205   -0.0000 C   0  0  0  0  0  0  0  0  0  0  0  0
    9.0398  -12.7205   -0.0000 C   0  0  0  0  0  0  0  0  0  0  0  0
   10.9221  -12.1570   -0.0000 C   0  0  0  0  0  0  0  0  0  0  0  0
   10.3467  -13.4638   -0.0000 N   0  0  0  0  0  0  0  0  0  0  0  0
  1  2  1  0  0  0  0
  2  3  1  0  0  0  0
  2  4  1  0  0  0  0
  2  5  1  0  0  0  0
  5  6  2  0  0  0  0
  5  7  1  0  0  0  0
  6  8  1  0  0  0  0
  7  9  2  0  0  0  0
  8 10  2  0  0  0  0
 10 11  1  0  0  0  0
 11 12  2  0  0  0  0
 11 13  1  0  0  0  0
 12 14  1  0  0  0  0
 13 15  2  0  0  0  0
 14 16  1  0  0  0  0
 14 17  2  0  0  0  0
 16 18  2  0  0  0  0
 17 19  1  0  0  0  0
 18 20  1  0  0  0  0
 18 21  1  0  0  0  0
 19 22  1  0  0  0  0
 20 23  2  0  0  0  0
 20 24  1  0  0  0  0
 22 25  2  0  0  0  0
 22 26  1  0  0  0  0
 23 27  1  0  0  0  0
 24 28  2  0  0  0  0
 27 29  2  0  0  0  0
 29 30  1  0  0  0  0
 30 31  1  0  0  0  0
 30 32  1  0  0  0  0
 30 33  1  0  0  0  0
 31 34  1  0  0  0  0
 32 35  1  0  0  0  0
 33 36  1  0  0  0  0
 34 37  1  0  0  0  0
  9 10  1  0  0  0  0
 15 16  1  0  0  0  0
 19 21  2  0  0  0  0
 28 29  1  0  0  0  0
 35 37  1  0  0  0  0
 36 37  1  0  0  0  0
M  END
>  <MolRegNo>
2481767

>  <m>
=

>  <Value>
30000

>  <Unit>
nM

>  <Type>
IC50

>  <pValue>
4.52

>  <Ligand Efficiency>
0

>  <Binding Efficiency>
0

>  <Surface Efficiency>
0

>  <Assay Index>
1368818

>  <Assay Category>


>  <Assay Organism>
Homo sapiens

>  <Target ID>
17045

>  <Target Name>
Cytochrome P450 3A4

>  <Target Organism>
Homo sapiens

>  <Target Description>
Target is a single protein chain

>  <Sequence Accession>
P08684

>  <Reference>
J Med Chem 63 (17), 9563-9589 (2020)

>  <Pubmed ID>
32787142

>  <DOI>
10.1021/acs.jmedchem.0c00745

$$$$
2472694
Actelion Java MolfileCreator 1.0

 35 38  0  0  0  0  0  0  0  0999 V2000
    0.0000   -0.0000   -0.0000 S   0  0  0  0  0  0  0  0  0  0  0  0
    0.7413    1.3153   -0.0000 O   0  0  0  0  0  0  0  0  0  0  0  0
   -0.7653    1.3153   -0.0000 O   0  0  0  0  0  0  0  0  0  0  0  0
   -1.3153   -0.7413   -0.0000 N   0  0  0  0  0  0  0  0  0  0  0  0
    1.2914   -0.7413   -0.0000 C   0  0  0  0  0  0  0  0  0  0  0  0
    1.2794   -2.2360   -0.0000 C   0  0  0  0  0  0  0  0  0  0  0  0
    2.5827    0.0239   -0.0000 C   0  0  0  0  0  0  0  0  0  0  0  0
    2.5708   -2.9773   -0.0000 C   0  0  0  0  0  0  0  0  0  0  0  0
    3.8861   -0.7174   -0.0000 C   0  0  0  0  0  0  0  0  0  0  0  0
    3.8622   -2.2121   -0.0000 C   0  0  0  0  0  0  0  0  0  0  0  0
    5.1535   -2.9534   -0.0000 C   0  0  0  0  0  0  0  0  0  0  0  0
    6.4449   -2.1882   -0.0000 C   0  0  0  0  0  0  0  0  0  0  0  0
    7.7482   -2.9295   -0.0000 N   0  0  0  0  0  0  0  0  0  0  0  0
    9.0396   -2.1642   -0.0000 C   0  0  0  0  0  0  0  0  0  0  0  0
    9.0277   -0.6457   -0.0000 O   0  0  0  0  0  0  0  0  0  0  0  0
   10.3310   -2.9056   -0.0000 C   0  0  0  0  0  0  0  0  0  0  0  0
   11.6224   -2.1403   -0.0000 C   0  0  0  0  0  0  0  0  0  0  0  0
   10.3190   -4.4122   -0.0000 C   0  0  0  0  0  0  0  0  0  0  0  0
   11.6104   -0.6218   -0.0000 N   0  0  0  0  0  0  0  0  0  0  0  0
   12.9137   -2.8817   -0.0000 C   0  0  0  0  0  0  0  0  0  0  0  0
   11.6224   -5.1416   -0.0000 N   0  0  0  0  0  0  0  0  0  0  0  0
   12.9018    0.1435   -0.0000 C   0  0  0  0  0  0  0  0  0  0  0  0
   12.9018   -4.3763   -0.0000 C   0  0  0  0  0  0  0  0  0  0  0  0
   12.8898    1.6620   -0.0000 C   0  0  0  0  0  0  0  0  0  0  0  0
   14.2051   -0.5979   -0.0000 C   0  0  0  0  0  0  0  0  0  0  0  0
   14.1932   -5.1177   -0.0000 N   0  0  0  0  0  0  0  0  0  0  0  0
   15.4845   -4.3524   -0.0000 C   0  0  0  0  0  0  0  0  0  0  0  0
   16.7879   -5.0938   -0.0000 C   0  0  0  0  0  0  0  0  0  0  0  0
   15.4726   -2.8338   -0.0000 C   0  0  0  0  0  0  0  0  0  0  0  0
   18.0792   -4.3285   -0.0000 C   0  0  0  0  0  0  0  0  0  0  0  0
   16.7639   -2.0805   -0.0000 C   0  0  0  0  0  0  0  0  0  0  0  0
   19.4902   -4.7709   -0.0000 S   0  0  0  0  0  0  0  0  0  0  0  0
   18.0673   -2.8099   -0.0000 C   0  0  0  0  0  0  0  0  0  0  0  0
   20.3511   -3.5513   -0.0000 C   0  0  0  0  0  0  0  0  0  0  0  0
   19.4782   -2.3316   -0.0000 N   0  0  0  0  0  0  0  0  0  0  0  0
  1  2  2  0  0  0  0
  1  3  2  0  0  0  0
  1  4  1  0  0  0  0
  1  5  1  0  0  0  0
  5  6  2  0  0  0  0
  5  7  1  0  0  0  0
  6  8  1  0  0  0  0
  7  9  2  0  0  0  0
  8 10  2  0  0  0  0
 10 11  1  0  0  0  0
 11 12  1  0  0  0  0
 12 13  1  0  0  0  0
 13 14  1  0  0  0  0
 14 15  2  0  0  0  0
 14 16  1  0  0  0  0
 16 17  2  0  0  0  0
 16 18  1  0  0  0  0
 17 19  1  0  0  0  0
 17 20  1  0  0  0  0
 18 21  2  0  0  0  0
 19 22  1  0  0  0  0
 20 23  2  0  0  0  0
 22 24  1  0  0  0  0
 22 25  1  0  0  0  0
 23 26  1  0  0  0  0
 26 27  1  0  0  0  0
 27 28  2  0  0  0  0
 27 29  1  0  0  0  0
 28 30  1  0  0  0  0
 29 31  2  0  0  0  0
 30 32  1  0  0  0  0
 30 33  2  0  0  0  0
 32 34  1  0  0  0  0
 33 35  1  0  0  0  0
  9 10  1  0  0  0  0
 21 23  1  0  0  0  0
 31 33  1  0  0  0  0
 34 35  2  0  0  0  0
M  END
>  <MolRegNo>
2472694

>  <m>
=

>  <Value>
0.9

>  <Unit>
nM

>  <Type>
IC50

>  <pValue>
9.05

>  <Ligand Efficiency>
0

>  <Binding Efficiency>
0

>  <Surface Efficiency>
0

>  <Assay Index>
1371960

>  <Assay Category>


>  <Assay Organism>
Homo sapiens

>  <Target ID>
17045

>  <Target Name>
Cytochrome P450 3A4

>  <Target Organism>
Homo sapiens

>  <Target Description>
Target is a single protein chain

>  <Sequence Accession>
P08684

>  <Reference>
ACS Med Chem Lett 11 (7), 1402-1409 (2020)

>  <Pubmed ID>
32676146

>  <DOI>
10.1021/acsmedchemlett.0c00082

$$$$
2472678
Actelion Java MolfileCreator 1.0

 30 33  0  0  0  0  0  0  0  0999 V2000
    0.0000   -0.0000   -0.0000 F   0  0  0  0  0  0  0  0  0  0  0  0
   -1.3114   -0.7391   -0.0000 C   0  0  0  0  0  0  0  0  0  0  0  0
   -2.6347    0.0238   -0.0000 C   0  0  0  0  0  0  0  0  0  0  0  0
   -1.3233   -2.2293   -0.0000 C   0  0  0  0  0  0  0  0  0  0  0  0
   -2.6585    1.5379   -0.0000 O   0  0  0  0  0  0  0  0  0  0  0  0
   -3.9460   -0.7272   -0.0000 C   0  0  0  0  0  0  0  0  0  0  0  0
   -0.0358   -2.9685   -0.0000 O   0  0  0  0  0  0  0  0  0  0  0  0
   -2.6347   -2.9685   -0.0000 C   0  0  0  0  0  0  0  0  0  0  0  0
   -1.3710    2.3128   -0.0000 C   0  0  0  0  0  0  0  0  0  0  0  0
   -3.9460   -2.2174   -0.0000 C   0  0  0  0  0  0  0  0  0  0  0  0
   -0.0477   -4.4587   -0.0000 C   0  0  0  0  0  0  0  0  0  0  0  0
   -5.2574   -2.9565   -0.0000 C   0  0  0  0  0  0  0  0  0  0  0  0
   -5.2693   -4.4467   -0.0000 C   0  0  0  0  0  0  0  0  0  0  0  0
   -6.5807   -2.1936   -0.0000 C   0  0  0  0  0  0  0  0  0  0  0  0
   -6.5807   -5.1859   -0.0000 C   0  0  0  0  0  0  0  0  0  0  0  0
   -3.9818   -5.1859   -0.0000 C   0  0  0  0  0  0  0  0  0  0  0  0
   -7.8921   -2.9446   -0.0000 N   0  0  0  0  0  0  0  0  0  0  0  0
   -6.5807   -6.6761   -0.0000 C   0  0  0  0  0  0  0  0  0  0  0  0
   -7.8921   -4.4348   -0.0000 C   0  0  0  0  0  0  0  0  0  0  0  0
   -7.8921   -7.4152   -0.0000 C   0  0  0  0  0  0  0  0  0  0  0  0
   -5.2932   -7.4152   -0.0000 C   0  0  0  0  0  0  0  0  0  0  0  0
   -7.9040   -8.9173   -0.0000 C   0  0  0  0  0  0  0  0  0  0  0  0
   -5.3051   -8.9173   -0.0000 C   0  0  0  0  0  0  0  0  0  0  0  0
   -6.6165   -9.6565   -0.0000 C   0  0  0  0  0  0  0  0  0  0  0  0
   -6.6284  -11.1347   -0.0000 N   0  0  0  0  0  0  0  0  0  0  0  0
   -7.9517  -11.8739   -0.0000 C   0  0  0  0  0  0  0  0  0  0  0  0
   -5.3409  -11.8739   -0.0000 C   0  0  0  0  0  0  0  0  0  0  0  0
   -7.9636  -13.3641   -0.0000 C   0  0  0  0  0  0  0  0  0  0  0  0
   -5.3647  -13.3760   -0.0000 C   0  0  0  0  0  0  0  0  0  0  0  0
   -6.6761  -14.1151   -0.0000 N   0  0  0  0  0  0  0  0  0  0  0  0
  1  2  1  0  0  0  0
  2  3  2  0  0  0  0
  2  4  1  0  0  0  0
  3  5  1  0  0  0  0
  3  6  1  0  0  0  0
  4  7  1  0  0  0  0
  4  8  2  0  0  0  0
  5  9  1  0  0  0  0
  6 10  2  0  0  0  0
  7 11  1  0  0  0  0
 10 12  1  0  0  0  0
 12 13  2  0  0  0  0
 12 14  1  0  0  0  0
 13 15  1  0  0  0  0
 13 16  1  0  0  0  0
 14 17  2  0  0  0  0
 15 18  1  0  0  0  0
 15 19  2  0  0  0  0
 18 20  2  0  0  0  0
 18 21  1  0  0  0  0
 20 22  1  0  0  0  0
 21 23  2  0  0  0  0
 22 24  2  0  0  0  0
 24 25  1  0  0  0  0
 25 26  1  0  0  0  0
 25 27  1  0  0  0  0
 26 28  1  0  0  0  0
 27 29  1  0  0  0  0
 28 30  1  0  0  0  0
  8 10  1  0  0  0  0
 17 19  1  0  0  0  0
 23 24  1  0  0  0  0
 29 30  1  0  0  0  0
M  END
>  <MolRegNo>
2472678

>  <m>
=

>  <Value>
14300

>  <Unit>
nM

>  <Type>
IC50

>  <pValue>
4.84

>  <Ligand Efficiency>
0

>  <Binding Efficiency>
0

>  <Surface Efficiency>
0

>  <Assay Index>
1372509

>  <Assay Category>


>  <Assay Organism>
Homo sapiens

>  <Target ID>
17045

>  <Target Name>
Cytochrome P450 3A4

>  <Target Organism>
Homo sapiens

>  <Target Description>
Target is a single protein chain

>  <Sequence Accession>
P08684

>  <Reference>
J Med Chem 63 (17), 10061-10085 (2020)

>  <Pubmed ID>
32787083

>  <DOI>
10.1021/acs.jmedchem.0c01199

$$$$
2479656
Actelion Java MolfileCreator 1.0

 34 38  0  0  0  0  0  0  0  0999 V2000
    0.0000   -0.0000   -0.0000 F   0  0  0  0  0  0  0  0  0  0  0  0
   -1.3071    0.7605   -0.0000 C   0  0  0  0  0  0  0  0  0  0  0  0
   -1.3190    2.2696   -0.0000 C   0  0  0  0  0  0  0  0  0  0  0  0
   -2.6142    0.0238   -0.0000 C   0  0  0  0  0  0  0  0  0  0  0  0
   -2.6380    3.0301   -0.0000 C   0  0  0  0  0  0  0  0  0  0  0  0
   -3.9213    0.7843   -0.0000 C   0  0  0  0  0  0  0  0  0  0  0  0
   -2.6618    4.5392   -0.0000 F   0  0  0  0  0  0  0  0  0  0  0  0
   -3.9451    2.2815   -0.0000 C   0  0  0  0  0  0  0  0  0  0  0  0
   -5.2284    0.0475   -0.0000 C   0  0  0  0  0  0  0  0  0  0  0  0
   -6.5355    0.7961   -0.0000 O   0  0  0  0  0  0  0  0  0  0  0  0
   -5.2403   -1.4259   -0.0000 C   0  0  0  0  0  0  0  0  0  0  0  0
   -7.8427    0.0594   -0.0000 N   0  0  0  0  0  0  0  0  0  0  0  0
   -6.5355   -2.1627   -0.0000 N   0  0  0  0  0  0  0  0  0  0  0  0
   -3.9570   -2.1627   -0.0000 C   0  0  0  0  0  0  0  0  0  0  0  0
   -7.8427   -1.4141   -0.0000 C   0  0  0  0  0  0  0  0  0  0  0  0
   -6.5474   -3.6599   -0.0000 C   0  0  0  0  0  0  0  0  0  0  0  0
   -9.1498   -2.1508   -0.0000 C   0  0  0  0  0  0  0  0  0  0  0  0
   -7.8545   -4.3848   -0.0000 C   0  0  0  0  0  0  0  0  0  0  0  0
  -10.4569   -1.3903   -0.0000 C   0  0  0  0  0  0  0  0  0  0  0  0
   -9.1617   -3.6361   -0.0000 C   0  0  0  0  0  0  0  0  0  0  0  0
  -11.7640   -2.1270   -0.0000 C   0  0  0  0  0  0  0  0  0  0  0  0
  -13.0711   -1.3665   -0.0000 C   0  0  0  0  0  0  0  0  0  0  0  0
  -11.7640   -3.6005   -0.0000 C   0  0  0  0  0  0  0  0  0  0  0  0
  -14.3782   -2.1033   -0.0000 C   0  0  0  0  0  0  0  0  0  0  0  0
  -13.0711   -4.3491   -0.0000 C   0  0  0  0  0  0  0  0  0  0  0  0
  -15.6853   -1.3428   -0.0000 O   0  0  0  0  0  0  0  0  0  0  0  0
  -14.3901   -3.5886   -0.0000 C   0  0  0  0  0  0  0  0  0  0  0  0
  -15.6972    0.1664   -0.0000 C   0  0  0  0  0  0  0  0  0  0  0  0
  -15.6972   -4.3253   -0.0000 N   0  0  0  0  0  0  0  0  0  0  0  0
  -17.0756   -3.7074   -0.0000 C   0  0  0  0  0  0  0  0  0  0  0  0
  -15.8636   -5.7988   -0.0000 C   0  0  0  0  0  0  0  0  0  0  0  0
  -18.0856   -4.8125   -0.0000 N   0  0  0  0  0  0  0  0  0  0  0  0
  -17.3370   -6.1078   -0.0000 C   0  0  0  0  0  0  0  0  0  0  0  0
  -17.9549   -7.4624   -0.0000 C   0  0  0  0  0  0  0  0  0  0  0  0
  1  2  1  0  0  0  0
  2  3  2  0  0  0  0
  2  4  1  0  0  0  0
  3  5  1  0  0  0  0
  4  6  2  0  0  0  0
  5  7  1  0  0  0  0
  5  8  2  0  0  0  0
  9  6  1  6  0  0  0
  9 10  1  0  0  0  0
  9 11  1  0  0  0  0
 10 12  1  0  0  0  0
 11 13  1  0  0  0  0
 11 14  1  6  0  0  0
 12 15  2  0  0  0  0
 13 16  1  0  0  0  0
 15 17  1  0  0  0  0
 16 18  1  0  0  0  0
 17 19  2  0  0  0  0
 17 20  1  0  0  0  0
 19 21  1  0  0  0  0
 21 22  2  0  0  0  0
 21 23  1  0  0  0  0
 22 24  1  0  0  0  0
 23 25  2  0  0  0  0
 24 26  1  0  0  0  0
 24 27  2  0  0  0  0
 26 28  1  0  0  0  0
 27 29  1  0  0  0  0
 29 30  1  0  0  0  0
 29 31  1  0  0  0  0
 30 32  2  0  0  0  0
 31 33  2  0  0  0  0
 33 34  1  0  0  0  0
  6  8  1  0  0  0  0
 13 15  1  0  0  0  0
 18 20  1  0  0  0  0
 25 27  1  0  0  0  0
 32 33  1  0  0  0  0
M  END
>  <MolRegNo>
2479656

>  <m>
=

>  <Value>
16000

>  <Unit>
nM

>  <Type>
IC50

>  <pValue>
4.8

>  <Ligand Efficiency>
0

>  <Binding Efficiency>
0

>  <Surface Efficiency>
0

>  <Assay Index>
1376665

>  <Assay Category>


>  <Assay Organism>
Homo sapiens

>  <Target ID>
17045

>  <Target Name>
Cytochrome P450 3A4

>  <Target Organism>
Homo sapiens

>  <Target Description>
Target is a single protein chain

>  <Sequence Accession>
P08684

>  <Reference>
J Med Chem 63 (15), 8216-8230 (2020)

>  <Pubmed ID>
32786237

>  <DOI>
10.1021/acs.jmedchem.0c00446

$$$$
2471480
Actelion Java MolfileCreator 1.0

 35 39  0  0  0  0  0  0  0  0999 V2000
    0.0000   -0.0000   -0.0000 F   0  0  0  0  0  0  0  0  0  0  0  0
   -1.3086   -0.7495   -0.0000 C   0  0  0  0  0  0  0  0  0  0  0  0
   -1.3205   -2.2366   -0.0000 C   0  0  0  0  0  0  0  0  0  0  0  0
   -2.6292    0.0119   -0.0000 C   0  0  0  0  0  0  0  0  0  0  0  0
   -0.0357   -2.9742   -0.0000 F   0  0  0  0  0  0  0  0  0  0  0  0
   -2.6292   -2.9742   -0.0000 C   0  0  0  0  0  0  0  0  0  0  0  0
   -2.6530    1.5228   -0.0000 F   0  0  0  0  0  0  0  0  0  0  0  0
   -3.9378   -0.7376   -0.0000 C   0  0  0  0  0  0  0  0  0  0  0  0
   -3.9378   -2.2128   -0.0000 C   0  0  0  0  0  0  0  0  0  0  0  0
   -5.2464   -2.9504   -0.0000 C   0  0  0  0  0  0  0  0  0  0  0  0
   -6.5551   -2.2009   -0.0000 O   0  0  0  0  0  0  0  0  0  0  0  0
   -5.2583   -4.4256   -0.0000 C   0  0  0  0  0  0  0  0  0  0  0  0
   -7.8637   -2.9385   -0.0000 N   0  0  0  0  0  0  0  0  0  0  0  0
   -6.5551   -5.1631   -0.0000 N   0  0  0  0  0  0  0  0  0  0  0  0
   -3.9735   -5.1631   -0.0000 C   0  0  0  0  0  0  0  0  0  0  0  0
   -7.8637   -4.4137   -0.0000 C   0  0  0  0  0  0  0  0  0  0  0  0
   -6.5669   -6.6621   -0.0000 C   0  0  0  0  0  0  0  0  0  0  0  0
   -9.1723   -5.1512   -0.0000 C   0  0  0  0  0  0  0  0  0  0  0  0
   -7.8756   -7.3878   -0.0000 C   0  0  0  0  0  0  0  0  0  0  0  0
  -10.4809   -4.3899   -0.0000 C   0  0  0  0  0  0  0  0  0  0  0  0
   -9.1842   -6.6383   -0.0000 C   0  0  0  0  0  0  0  0  0  0  0  0
  -11.7896   -5.1275   -0.0000 C   0  0  0  0  0  0  0  0  0  0  0  0
  -13.0982   -4.3661   -0.0000 C   0  0  0  0  0  0  0  0  0  0  0  0
  -11.7896   -6.6026   -0.0000 C   0  0  0  0  0  0  0  0  0  0  0  0
  -14.4068   -5.1037   -0.0000 C   0  0  0  0  0  0  0  0  0  0  0  0
  -13.0982   -7.3521   -0.0000 C   0  0  0  0  0  0  0  0  0  0  0  0
  -15.7155   -4.3423   -0.0000 O   0  0  0  0  0  0  0  0  0  0  0  0
  -14.4187   -6.5907   -0.0000 C   0  0  0  0  0  0  0  0  0  0  0  0
  -15.7274   -2.8314   -0.0000 C   0  0  0  0  0  0  0  0  0  0  0  0
  -15.7274   -7.3402   -0.0000 N   0  0  0  0  0  0  0  0  0  0  0  0
  -17.1074   -6.7216   -0.0000 C   0  0  0  0  0  0  0  0  0  0  0  0
  -15.8939   -8.8154   -0.0000 C   0  0  0  0  0  0  0  0  0  0  0  0
  -18.1186   -7.8280   -0.0000 N   0  0  0  0  0  0  0  0  0  0  0  0
  -17.3691   -9.1247   -0.0000 C   0  0  0  0  0  0  0  0  0  0  0  0
  -17.9877  -10.4809   -0.0000 C   0  0  0  0  0  0  0  0  0  0  0  0
  1  2  1  0  0  0  0
  2  3  2  0  0  0  0
  2  4  1  0  0  0  0
  3  5  1  0  0  0  0
  3  6  1  0  0  0  0
  4  7  1  0  0  0  0
  4  8  2  0  0  0  0
  6  9  2  0  0  0  0
 10  9  1  6  0  0  0
 10 11  1  0  0  0  0
 10 12  1  0  0  0  0
 11 13  1  0  0  0  0
 12 14  1  0  0  0  0
 12 15  1  6  0  0  0
 13 16  2  0  0  0  0
 14 17  1  0  0  0  0
 16 18  1  0  0  0  0
 17 19  1  0  0  0  0
 18 20  2  0  0  0  0
 18 21  1  0  0  0  0
 20 22  1  0  0  0  0
 22 23  2  0  0  0  0
 22 24  1  0  0  0  0
 23 25  1  0  0  0  0
 24 26  2  0  0  0  0
 25 27  1  0  0  0  0
 25 28  2  0  0  0  0
 27 29  1  0  0  0  0
 28 30  1  0  0  0  0
 30 31  1  0  0  0  0
 30 32  1  0  0  0  0
 31 33  2  0  0  0  0
 32 34  2  0  0  0  0
 34 35  1  0  0  0  0
  8  9  1  0  0  0  0
 14 16  1  0  0  0  0
 19 21  1  0  0  0  0
 26 28  1  0  0  0  0
 33 34  1  0  0  0  0
M  END
>  <MolRegNo>
2471480

>  <m>
=

>  <Value>
29000

>  <Unit>
nM

>  <Type>
IC50

>  <pValue>
4.54

>  <Ligand Efficiency>
0

>  <Binding Efficiency>
0

>  <Surface Efficiency>
0

>  <Assay Index>
1376665

>  <Assay Category>


>  <Assay Organism>
Homo sapiens

>  <Target ID>
17045

>  <Target Name>
Cytochrome P450 3A4

>  <Target Organism>
Homo sapiens

>  <Target Description>
Target is a single protein chain

>  <Sequence Accession>
P08684

>  <Reference>
J Med Chem 63 (15), 8216-8230 (2020)

>  <Pubmed ID>
32786237

>  <DOI>
10.1021/acs.jmedchem.0c00446

$$$$
2471256
Actelion Java MolfileCreator 1.0

 34 38  0  0  0  0  0  0  0  0999 V2000
    0.0000   -0.0000   -0.0000 F   0  0  0  0  0  0  0  0  0  0  0  0
   -1.3088   -0.7428   -0.0000 C   0  0  0  0  0  0  0  0  0  0  0  0
   -1.3206   -2.2285   -0.0000 C   0  0  0  0  0  0  0  0  0  0  0  0
   -2.6294    0.0118   -0.0000 C   0  0  0  0  0  0  0  0  0  0  0  0
   -0.0354   -2.9595   -0.0000 F   0  0  0  0  0  0  0  0  0  0  0  0
   -2.6294   -2.9713   -0.0000 C   0  0  0  0  0  0  0  0  0  0  0  0
   -2.6529    1.5210   -0.0000 F   0  0  0  0  0  0  0  0  0  0  0  0
   -3.9264   -0.7310   -0.0000 C   0  0  0  0  0  0  0  0  0  0  0  0
   -3.9381   -2.2167   -0.0000 C   0  0  0  0  0  0  0  0  0  0  0  0
   -5.2351   -2.9595   -0.0000 C   0  0  0  0  0  0  0  0  0  0  0  0
   -6.5439   -2.2049   -0.0000 O   0  0  0  0  0  0  0  0  0  0  0  0
   -5.2469   -4.4334   -0.0000 C   0  0  0  0  0  0  0  0  0  0  0  0
   -7.8409   -2.9477   -0.0000 N   0  0  0  0  0  0  0  0  0  0  0  0
   -6.5321   -5.1644   -0.0000 N   0  0  0  0  0  0  0  0  0  0  0  0
   -7.8409   -4.4098   -0.0000 C   0  0  0  0  0  0  0  0  0  0  0  0
   -6.3081   -6.6383   -0.0000 C   0  0  0  0  0  0  0  0  0  0  0  0
   -9.2558   -4.9522   -0.0000 C   0  0  0  0  0  0  0  0  0  0  0  0
   -7.3339   -7.7348   -0.0000 C   0  0  0  0  0  0  0  0  0  0  0  0
   -9.7039   -6.3789   -0.0000 C   0  0  0  0  0  0  0  0  0  0  0  0
   -8.8431   -7.6169   -0.0000 C   0  0  0  0  0  0  0  0  0  0  0  0
  -11.1895   -6.6029   -0.0000 C   0  0  0  0  0  0  0  0  0  0  0  0
  -12.1446   -5.4238   -0.0000 C   0  0  0  0  0  0  0  0  0  0  0  0
  -11.7319   -7.9824   -0.0000 C   0  0  0  0  0  0  0  0  0  0  0  0
  -13.6302   -5.6478   -0.0000 C   0  0  0  0  0  0  0  0  0  0  0  0
  -13.2175   -8.2064   -0.0000 C   0  0  0  0  0  0  0  0  0  0  0  0
  -14.5853   -4.4687   -0.0000 O   0  0  0  0  0  0  0  0  0  0  0  0
  -14.1844   -7.0391   -0.0000 C   0  0  0  0  0  0  0  0  0  0  0  0
  -14.0547   -3.0656   -0.0000 C   0  0  0  0  0  0  0  0  0  0  0  0
  -15.6700   -7.2750   -0.0000 N   0  0  0  0  0  0  0  0  0  0  0  0
  -16.7430   -6.2020   -0.0000 C   0  0  0  0  0  0  0  0  0  0  0  0
  -16.3657   -8.5955   -0.0000 C   0  0  0  0  0  0  0  0  0  0  0  0
  -18.0872   -6.8741   -0.0000 N   0  0  0  0  0  0  0  0  0  0  0  0
  -17.8514   -8.3479   -0.0000 C   0  0  0  0  0  0  0  0  0  0  0  0
  -18.9243   -9.3973   -0.0000 C   0  0  0  0  0  0  0  0  0  0  0  0
  1  2  1  0  0  0  0
  2  3  2  0  0  0  0
  2  4  1  0  0  0  0
  3  5  1  0  0  0  0
  3  6  1  0  0  0  0
  4  7  1  0  0  0  0
  4  8  2  0  0  0  0
  6  9  2  0  0  0  0
 10  9  1  6  0  0  0
 10 11  1  0  0  0  0
 10 12  1  0  0  0  0
 11 13  1  0  0  0  0
 12 14  1  0  0  0  0
 13 15  2  0  0  0  0
 14 16  1  0  0  0  0
 15 17  1  0  0  0  0
 16 18  1  0  0  0  0
 17 19  2  0  0  0  0
 18 20  1  0  0  0  0
 19 21  1  0  0  0  0
 21 22  2  0  0  0  0
 21 23  1  0  0  0  0
 22 24  1  0  0  0  0
 23 25  2  0  0  0  0
 24 26  1  0  0  0  0
 24 27  2  0  0  0  0
 26 28  1  0  0  0  0
 27 29  1  0  0  0  0
 29 30  1  0  0  0  0
 29 31  1  0  0  0  0
 30 32  2  0  0  0  0
 31 33  2  0  0  0  0
 33 34  1  0  0  0  0
  8  9  1  0  0  0  0
 14 15  1  0  0  0  0
 19 20  1  0  0  0  0
 25 27  1  0  0  0  0
 32 33  1  0  0  0  0
M  END
>  <MolRegNo>
2471256

>  <m>
=

>  <Value>
34000

>  <Unit>
nM

>  <Type>
IC50

>  <pValue>
4.47

>  <Ligand Efficiency>
0

>  <Binding Efficiency>
0

>  <Surface Efficiency>
0

>  <Assay Index>
1376665

>  <Assay Category>


>  <Assay Organism>
Homo sapiens

>  <Target ID>
17045

>  <Target Name>
Cytochrome P450 3A4

>  <Target Organism>
Homo sapiens

>  <Target Description>
Target is a single protein chain

>  <Sequence Accession>
P08684

>  <Reference>
J Med Chem 63 (15), 8216-8230 (2020)

>  <Pubmed ID>
32786237

>  <DOI>
10.1021/acs.jmedchem.0c00446

$$$$
2479248
Actelion Java MolfileCreator 1.0

 34 38  0  0  0  0  0  0  0  0999 V2000
    0.0000   -0.0000   -0.0000 F   0  0  0  0  0  0  0  0  0  0  0  0
   -1.3121    0.7566   -0.0000 C   0  0  0  0  0  0  0  0  0  0  0  0
   -2.6125    0.0118   -0.0000 C   0  0  0  0  0  0  0  0  0  0  0  0
   -1.3358    2.2697   -0.0000 C   0  0  0  0  0  0  0  0  0  0  0  0
   -2.6243   -1.4658   -0.0000 F   0  0  0  0  0  0  0  0  0  0  0  0
   -3.9128    0.7684   -0.0000 C   0  0  0  0  0  0  0  0  0  0  0  0
   -0.0591    3.0380   -0.0000 F   0  0  0  0  0  0  0  0  0  0  0  0
   -2.6479    3.0144   -0.0000 C   0  0  0  0  0  0  0  0  0  0  0  0
   -3.9246    2.2815   -0.0000 C   0  0  0  0  0  0  0  0  0  0  0  0
   -5.2368    3.0380   -0.0000 C   0  0  0  0  0  0  0  0  0  0  0  0
   -6.5253    2.3051   -0.0000 N   0  0  0  0  0  0  0  0  0  0  0  0
   -5.2486    4.5393   -0.0000 C   0  0  0  0  0  0  0  0  0  0  0  0
   -7.8256    3.0617   -0.0000 C   0  0  0  0  0  0  0  0  0  0  0  0
   -6.3007    0.8275   -0.0000 C   0  0  0  0  0  0  0  0  0  0  0  0
   -6.5489    5.2841   -0.0000 O   0  0  0  0  0  0  0  0  0  0  0  0
   -7.8492    4.5511   -0.0000 N   0  0  0  0  0  0  0  0  0  0  0  0
   -9.2323    2.5179   -0.0000 C   0  0  0  0  0  0  0  0  0  0  0  0
   -7.3173   -0.2719   -0.0000 C   0  0  0  0  0  0  0  0  0  0  0  0
   -9.6815    1.0875   -0.0000 C   0  0  0  0  0  0  0  0  0  0  0  0
   -8.8186   -0.1537   -0.0000 C   0  0  0  0  0  0  0  0  0  0  0  0
  -11.1592    0.8629   -0.0000 C   0  0  0  0  0  0  0  0  0  0  0  0
  -12.1049    2.0451   -0.0000 C   0  0  0  0  0  0  0  0  0  0  0  0
  -11.7029   -0.5201   -0.0000 C   0  0  0  0  0  0  0  0  0  0  0  0
  -13.5943    1.8205   -0.0000 C   0  0  0  0  0  0  0  0  0  0  0  0
  -13.1806   -0.7447   -0.0000 C   0  0  0  0  0  0  0  0  0  0  0  0
  -14.5400    2.9908   -0.0000 O   0  0  0  0  0  0  0  0  0  0  0  0
  -14.1381    0.4374   -0.0000 C   0  0  0  0  0  0  0  0  0  0  0  0
  -14.0199    4.3975   -0.0000 C   0  0  0  0  0  0  0  0  0  0  0  0
  -15.6276    0.2010   -0.0000 N   0  0  0  0  0  0  0  0  0  0  0  0
  -16.6915    1.2649   -0.0000 C   0  0  0  0  0  0  0  0  0  0  0  0
  -16.3132   -1.1230   -0.0000 C   0  0  0  0  0  0  0  0  0  0  0  0
  -18.0391    0.6029   -0.0000 N   0  0  0  0  0  0  0  0  0  0  0  0
  -17.8027   -0.8748   -0.0000 C   0  0  0  0  0  0  0  0  0  0  0  0
  -18.8666   -1.9150   -0.0000 C   0  0  0  0  0  0  0  0  0  0  0  0
  1  2  1  0  0  0  0
  2  3  2  0  0  0  0
  2  4  1  0  0  0  0
  3  5  1  0  0  0  0
  3  6  1  0  0  0  0
  4  7  1  0  0  0  0
  4  8  2  0  0  0  0
  6  9  2  0  0  0  0
 10  9  1  1  0  0  0
 10 11  1  0  0  0  0
 10 12  1  0  0  0  0
 11 13  1  0  0  0  0
 11 14  1  0  0  0  0
 12 15  1  0  0  0  0
 13 16  2  0  0  0  0
 13 17  1  0  0  0  0
 14 18  1  0  0  0  0
 17 19  2  0  0  0  0
 18 20  1  0  0  0  0
 19 21  1  0  0  0  0
 21 22  2  0  0  0  0
 21 23  1  0  0  0  0
 22 24  1  0  0  0  0
 23 25  2  0  0  0  0
 24 26  1  0  0  0  0
 24 27  2  0  0  0  0
 26 28  1  0  0  0  0
 27 29  1  0  0  0  0
 29 30  1  0  0  0  0
 29 31  1  0  0  0  0
 30 32  2  0  0  0  0
 31 33  2  0  0  0  0
 33 34  1  0  0  0  0
  8  9  1  0  0  0  0
 15 16  1  0  0  0  0
 19 20  1  0  0  0  0
 25 27  1  0  0  0  0
 32 33  1  0  0  0  0
M  END
>  <MolRegNo>
2479248

>  <m>
=

>  <Value>
30000

>  <Unit>
nM

>  <Type>
IC50

>  <pValue>
4.52

>  <Ligand Efficiency>
0

>  <Binding Efficiency>
0

>  <Surface Efficiency>
0

>  <Assay Index>
1376665

>  <Assay Category>


>  <Assay Organism>
Homo sapiens

>  <Target ID>
17045

>  <Target Name>
Cytochrome P450 3A4

>  <Target Organism>
Homo sapiens

>  <Target Description>
Target is a single protein chain

>  <Sequence Accession>
P08684

>  <Reference>
J Med Chem 63 (15), 8216-8230 (2020)

>  <Pubmed ID>
32786237

>  <DOI>
10.1021/acs.jmedchem.0c00446

$$$$
2519963
Actelion Java MolfileCreator 1.0

 20 23  0  0  0  0  0  0  0  0999 V2000
    0.0000   -0.0000   -0.0000 N   0  0  0  0  0  0  0  0  0  0  0  0
   -0.0119    1.5170   -0.0000 C   0  0  0  0  0  0  0  0  0  0  0  0
   -1.3155   -0.7348   -0.0000 C   0  0  0  0  0  0  0  0  0  0  0  0
    1.0903    2.5362   -0.0000 C   0  0  0  0  0  0  0  0  0  0  0  0
   -1.3274    2.2755   -0.0000 C   0  0  0  0  0  0  0  0  0  0  0  0
   -2.6192    0.0237   -0.0000 C   0  0  0  0  0  0  0  0  0  0  0  0
    0.4622    3.9229   -0.0000 N   0  0  0  0  0  0  0  0  0  0  0  0
    2.5481    2.2399   -0.0000 N   0  0  0  0  0  0  0  0  0  0  0  0
   -1.0311    3.7569   -0.0000 N   0  0  0  0  0  0  0  0  0  0  0  0
   -2.6310    1.5407   -0.0000 C   0  0  0  0  0  0  0  0  0  0  0  0
    3.5318    3.3658   -0.0000 C   0  0  0  0  0  0  0  0  0  0  0  0
    4.9895    3.0696   -0.0000 C   0  0  0  0  0  0  0  0  0  0  0  0
    3.0459    4.7880   -0.0000 C   0  0  0  0  0  0  0  0  0  0  0  0
    5.9613    4.2073   -0.0000 C   0  0  0  0  0  0  0  0  0  0  0  0
    4.0295    5.9139   -0.0000 C   0  0  0  0  0  0  0  0  0  0  0  0
    5.4873    5.6413   -0.0000 C   0  0  0  0  0  0  0  0  0  0  0  0
    7.4072    3.9110   -0.0000 C   0  0  0  0  0  0  0  0  0  0  0  0
    6.4710    6.7554   -0.0000 C   0  0  0  0  0  0  0  0  0  0  0  0
    8.3909    5.0369   -0.0000 C   0  0  0  0  0  0  0  0  0  0  0  0
    7.9168    6.4710   -0.0000 N   0  0  0  0  0  0  0  0  0  0  0  0
  1  2  2  0  0  0  0
  1  3  1  0  0  0  0
  2  4  1  0  0  0  0
  2  5  1  0  0  0  0
  3  6  2  0  0  0  0
  4  7  2  0  0  0  0
  4  8  1  0  0  0  0
  5  9  1  0  0  0  0
  5 10  2  0  0  0  0
  8 11  1  0  0  0  0
 11 12  2  0  0  0  0
 11 13  1  0  0  0  0
 12 14  1  0  0  0  0
 13 15  2  0  0  0  0
 14 16  1  0  0  0  0
 14 17  2  0  0  0  0
 16 18  2  0  0  0  0
 17 19  1  0  0  0  0
 18 20  1  0  0  0  0
  6 10  1  0  0  0  0
  7  9  1  0  0  0  0
 15 16  1  0  0  0  0
 19 20  2  0  0  0  0
M  END
>  <MolRegNo>
2519963

>  <m>
=

>  <Value>
440

>  <Unit>
nM

>  <Type>
IC50

>  <pValue>
6.36

>  <Ligand Efficiency>
0

>  <Binding Efficiency>
0

>  <Surface Efficiency>
0

>  <Assay Index>
1376868

>  <Assay Category>


>  <Assay Organism>
Homo sapiens

>  <Target ID>
17045

>  <Target Name>
Cytochrome P450 3A4

>  <Target Organism>
Homo sapiens

>  <Target Description>
Target is a single protein chain

>  <Sequence Accession>
P08684

>  <Reference>
Bioorg Med Chem Lett 29 (2.0), 342-346 (2019)

>  <Pubmed ID>
30503632

>  <DOI>
10.1016/j.bmcl.2018.10.050

$$$$
2523859
Actelion Java MolfileCreator 1.0

 25 29  0  0  0  0  0  0  0  0999 V2000
    0.0000   -0.0000   -0.0000 N   0  0  0  0  0  0  0  0  0  0  0  0
   -1.3140    0.7458   -0.0000 C   0  0  0  0  0  0  0  0  0  0  0  0
    0.0000   -1.4916   -0.0000 C   0  0  0  0  0  0  0  0  0  0  0  0
   -1.3377    2.2492   -0.0000 N   0  0  0  0  0  0  0  0  0  0  0  0
   -2.6162    0.0118   -0.0000 C   0  0  0  0  0  0  0  0  0  0  0  0
   -1.3022   -2.2256   -0.0000 C   0  0  0  0  0  0  0  0  0  0  0  0
   -0.1539    3.1371   -0.0000 N   0  0  0  0  0  0  0  0  0  0  0  0
   -2.5689    3.1253   -0.0000 C   0  0  0  0  0  0  0  0  0  0  0  0
   -2.6281   -1.4798   -0.0000 C   0  0  0  0  0  0  0  0  0  0  0  0
   -3.9184    0.7695   -0.0000 C   0  0  0  0  0  0  0  0  0  0  0  0
   -0.6393    4.5695   -0.0000 C   0  0  0  0  0  0  0  0  0  0  0  0
   -2.1309    4.5577   -0.0000 C   0  0  0  0  0  0  0  0  0  0  0  0
   -3.9303   -2.2256   -0.0000 C   0  0  0  0  0  0  0  0  0  0  0  0
   -5.2206    0.0355   -0.0000 C   0  0  0  0  0  0  0  0  0  0  0  0
   -5.2325   -1.4679   -0.0000 C   0  0  0  0  0  0  0  0  0  0  0  0
   -6.5347   -2.2019   -0.0000 N   0  0  0  0  0  0  0  0  0  0  0  0
   -7.8369   -1.4443   -0.0000 C   0  0  0  0  0  0  0  0  0  0  0  0
   -8.0026    0.0474   -0.0000 N   0  0  0  0  0  0  0  0  0  0  0  0
   -9.2219   -2.0480   -0.0000 C   0  0  0  0  0  0  0  0  0  0  0  0
   -9.4705    0.3670   -0.0000 N   0  0  0  0  0  0  0  0  0  0  0  0
   -9.6954   -3.4449   -0.0000 N   0  0  0  0  0  0  0  0  0  0  0  0
  -10.2282   -0.9234   -0.0000 C   0  0  0  0  0  0  0  0  0  0  0  0
  -11.1634   -3.7409   -0.0000 C   0  0  0  0  0  0  0  0  0  0  0  0
  -11.6961   -1.2193   -0.0000 C   0  0  0  0  0  0  0  0  0  0  0  0
  -12.1815   -2.6162   -0.0000 C   0  0  0  0  0  0  0  0  0  0  0  0
  1  2  2  0  0  0  0
  1  3  1  0  0  0  0
  2  4  1  0  0  0  0
  2  5  1  0  0  0  0
  3  6  2  0  0  0  0
  4  7  1  0  0  0  0
  4  8  1  0  0  0  0
  5  9  1  0  0  0  0
  5 10  2  0  0  0  0
  7 11  2  0  0  0  0
  8 12  2  0  0  0  0
  9 13  2  0  0  0  0
 10 14  1  0  0  0  0
 13 15  1  0  0  0  0
 15 16  1  0  0  0  0
 16 17  1  0  0  0  0
 17 18  2  0  0  0  0
 17 19  1  0  0  0  0
 18 20  1  0  0  0  0
 19 21  2  0  0  0  0
 19 22  1  0  0  0  0
 21 23  1  0  0  0  0
 22 24  2  0  0  0  0
 23 25  2  0  0  0  0
  6  9  1  0  0  0  0
 11 12  1  0  0  0  0
 14 15  2  0  0  0  0
 20 22  1  0  0  0  0
 24 25  1  0  0  0  0
M  END
>  <MolRegNo>
2523859

>  <m>
=

>  <Value>
13000

>  <Unit>
nM

>  <Type>
IC50

>  <pValue>
4.89

>  <Ligand Efficiency>
0

>  <Binding Efficiency>
0

>  <Surface Efficiency>
0

>  <Assay Index>
1376868

>  <Assay Category>


>  <Assay Organism>
Homo sapiens

>  <Target ID>
17045

>  <Target Name>
Cytochrome P450 3A4

>  <Target Organism>
Homo sapiens

>  <Target Description>
Target is a single protein chain

>  <Sequence Accession>
P08684

>  <Reference>
Bioorg Med Chem Lett 29 (2.0), 342-346 (2019)

>  <Pubmed ID>
30503632

>  <DOI>
10.1016/j.bmcl.2018.10.050

$$$$
2498025
Actelion Java MolfileCreator 1.0

 28 30  0  0  0  0  0  0  0  0999 V2000
    0.0000   -0.0000   -0.0000 F   0  0  0  0  0  0  0  0  0  0  0  0
   -1.4318   -0.4852   -0.0000 C   0  0  0  0  0  0  0  0  0  0  0  0
   -2.5797    0.5088   -0.0000 F   0  0  0  0  0  0  0  0  0  0  0  0
   -1.0650    0.9822   -0.0000 F   0  0  0  0  0  0  0  0  0  0  0  0
   -1.7158   -1.9525   -0.0000 C   0  0  0  0  0  0  0  0  0  0  0  0
   -0.5917   -2.9228   -0.0000 C   0  0  0  0  0  0  0  0  0  0  0  0
   -3.1477   -2.4495   -0.0000 C   0  0  0  0  0  0  0  0  0  0  0  0
   -0.8875   -4.3902   -0.0000 C   0  0  0  0  0  0  0  0  0  0  0  0
   -3.4317   -3.9050   -0.0000 C   0  0  0  0  0  0  0  0  0  0  0  0
   -2.3193   -4.8753   -0.0000 C   0  0  0  0  0  0  0  0  0  0  0  0
   -2.6152   -6.3427   -0.0000 C   0  0  0  0  0  0  0  0  0  0  0  0
   -3.9760   -6.9698   -0.0000 C   0  0  0  0  0  0  0  0  0  0  0  0
   -1.5975   -7.4313   -0.0000 C   0  0  0  0  0  0  0  0  0  0  0  0
   -5.3013   -6.2362   -0.0000 N   0  0  0  0  0  0  0  0  0  0  0  0
   -3.7985   -8.4490   -0.0000 C   0  0  0  0  0  0  0  0  0  0  0  0
   -2.3312   -8.7330   -0.0000 N   0  0  0  0  0  0  0  0  0  0  0  0
   -6.5912   -7.0053   -0.0000 C   0  0  0  0  0  0  0  0  0  0  0  0
   -6.5675   -8.4963   -0.0000 O   0  0  0  0  0  0  0  0  0  0  0  0
   -7.9165   -6.2717   -0.0000 C   0  0  0  0  0  0  0  0  0  0  0  0
   -9.2063   -7.0408   -0.0000 C   0  0  0  0  0  0  0  0  0  0  0  0
  -10.5317   -6.3072   -0.0000 C   0  0  0  0  0  0  0  0  0  0  0  0
   -9.1827   -8.5200   -0.0000 C   0  0  0  0  0  0  0  0  0  0  0  0
  -11.8215   -7.0763   -0.0000 C   0  0  0  0  0  0  0  0  0  0  0  0
  -10.4725   -9.2892   -0.0000 C   0  0  0  0  0  0  0  0  0  0  0  0
  -11.7978   -8.5673   -0.0000 C   0  0  0  0  0  0  0  0  0  0  0  0
  -13.0877   -9.3365   -0.0000 N   0  0  0  0  0  0  0  0  0  0  0  0
  -14.4130   -8.6028   -0.0000 C   0  0  0  0  0  0  0  0  0  0  0  0
  -13.0640  -10.8275   -0.0000 C   0  0  0  0  0  0  0  0  0  0  0  0
  1  2  1  0  0  0  0
  2  3  1  0  0  0  0
  2  4  1  0  0  0  0
  2  5  1  0  0  0  0
  5  6  2  0  0  0  0
  5  7  1  0  0  0  0
  6  8  1  0  0  0  0
  7  9  2  0  0  0  0
  8 10  2  0  0  0  0
 11 10  1  1  0  0  0
 11 12  1  0  0  0  0
 11 13  1  0  0  0  0
 12 14  1  6  0  0  0
 12 15  1  0  0  0  0
 13 16  1  0  0  0  0
 14 17  1  0  0  0  0
 17 18  2  0  0  0  0
 17 19  1  0  0  0  0
 19 20  1  0  0  0  0
 20 21  2  0  0  0  0
 20 22  1  0  0  0  0
 21 23  1  0  0  0  0
 22 24  2  0  0  0  0
 23 25  2  0  0  0  0
 25 26  1  0  0  0  0
 26 27  1  0  0  0  0
 26 28  1  0  0  0  0
  9 10  1  0  0  0  0
 15 16  1  0  0  0  0
 24 25  1  0  0  0  0
M  END
>  <MolRegNo>
2498025

>  <m>
=

>  <Value>
871

>  <Unit>
nM

>  <Type>
IC50

>  <pValue>
6.06

>  <Ligand Efficiency>
0

>  <Binding Efficiency>
0

>  <Surface Efficiency>
0

>  <Assay Index>
1378887

>  <Assay Category>


>  <Assay Organism>
Homo sapiens

>  <Target ID>
17045

>  <Target Name>
Cytochrome P450 3A4

>  <Target Organism>
Homo sapiens

>  <Target Description>
Target is a single protein chain

>  <Sequence Accession>
P08684

>  <Reference>
ACS Med Chem Lett 10 (6.0), 966-971 (2019)

>  <Pubmed ID>
31223456

>  <DOI>
10.1021/acsmedchemlett.9b00123

$$$$
2503066
Actelion Java MolfileCreator 1.0

 30 32  0  0  0  0  0  0  0  0999 V2000
    0.0000   -0.0000   -0.0000 S   0  0  0  0  0  0  0  0  0  0  0  0
    1.4078    0.5087   -0.0000 F   0  0  0  0  0  0  0  0  0  0  0  0
   -1.1475    0.9937   -0.0000 F   0  0  0  0  0  0  0  0  0  0  0  0
    0.3667    1.4669   -0.0000 F   0  0  0  0  0  0  0  0  0  0  0  0
    1.0410   -1.0410   -0.0000 F   0  0  0  0  0  0  0  0  0  0  0  0
   -1.4669   -0.3667   -0.0000 F   0  0  0  0  0  0  0  0  0  0  0  0
   -0.2839   -1.4669   -0.0000 C   0  0  0  0  0  0  0  0  0  0  0  0
    0.8399   -2.4370   -0.0000 C   0  0  0  0  0  0  0  0  0  0  0  0
   -1.7154   -1.9638   -0.0000 C   0  0  0  0  0  0  0  0  0  0  0  0
    0.5442   -3.9039   -0.0000 C   0  0  0  0  0  0  0  0  0  0  0  0
   -1.9993   -3.4189   -0.0000 C   0  0  0  0  0  0  0  0  0  0  0  0
   -0.8873   -4.3889   -0.0000 C   0  0  0  0  0  0  0  0  0  0  0  0
   -1.1830   -5.8559   -0.0000 C   0  0  0  0  0  0  0  0  0  0  0  0
   -2.5553   -6.4829   -0.0000 C   0  0  0  0  0  0  0  0  0  0  0  0
   -0.1656   -6.9442   -0.0000 C   0  0  0  0  0  0  0  0  0  0  0  0
   -3.8803   -5.7494   -0.0000 N   0  0  0  0  0  0  0  0  0  0  0  0
   -2.3778   -7.9616   -0.0000 C   0  0  0  0  0  0  0  0  0  0  0  0
   -0.8991   -8.2455   -0.0000 N   0  0  0  0  0  0  0  0  0  0  0  0
   -5.1816   -6.5184   -0.0000 C   0  0  0  0  0  0  0  0  0  0  0  0
   -5.1579   -8.0089   -0.0000 O   0  0  0  0  0  0  0  0  0  0  0  0
   -6.5065   -5.7849   -0.0000 C   0  0  0  0  0  0  0  0  0  0  0  0
   -7.8078   -6.5538   -0.0000 C   0  0  0  0  0  0  0  0  0  0  0  0
   -9.1328   -5.8204   -0.0000 C   0  0  0  0  0  0  0  0  0  0  0  0
   -7.7842   -8.0326   -0.0000 C   0  0  0  0  0  0  0  0  0  0  0  0
  -10.4223   -6.5893   -0.0000 C   0  0  0  0  0  0  0  0  0  0  0  0
   -9.0737   -8.8016   -0.0000 C   0  0  0  0  0  0  0  0  0  0  0  0
  -10.3986   -8.0799   -0.0000 C   0  0  0  0  0  0  0  0  0  0  0  0
  -11.6881   -8.8489   -0.0000 N   0  0  0  0  0  0  0  0  0  0  0  0
  -13.0131   -8.1154   -0.0000 C   0  0  0  0  0  0  0  0  0  0  0  0
  -11.6644  -10.3395   -0.0000 C   0  0  0  0  0  0  0  0  0  0  0  0
  1  2  1  0  0  0  0
  1  3  1  0  0  0  0
  1  4  1  0  0  0  0
  1  5  1  0  0  0  0
  1  6  1  0  0  0  0
  1  7  1  0  0  0  0
  7  8  2  0  0  0  0
  7  9  1  0  0  0  0
  8 10  1  0  0  0  0
  9 11  2  0  0  0  0
 10 12  2  0  0  0  0
 13 12  1  1  0  0  0
 13 14  1  0  0  0  0
 13 15  1  0  0  0  0
 14 16  1  6  0  0  0
 14 17  1  0  0  0  0
 15 18  1  0  0  0  0
 16 19  1  0  0  0  0
 19 20  2  0  0  0  0
 19 21  1  0  0  0  0
 21 22  1  0  0  0  0
 22 23  2  0  0  0  0
 22 24  1  0  0  0  0
 23 25  1  0  0  0  0
 24 26  2  0  0  0  0
 25 27  2  0  0  0  0
 27 28  1  0  0  0  0
 28 29  1  0  0  0  0
 28 30  1  0  0  0  0
 11 12  1  0  0  0  0
 17 18  1  0  0  0  0
 26 27  1  0  0  0  0
M  END
>  <MolRegNo>
2503066

>  <m>
=

>  <Value>
159

>  <Unit>
nM

>  <Type>
IC50

>  <pValue>
6.8

>  <Ligand Efficiency>
0

>  <Binding Efficiency>
0

>  <Surface Efficiency>
0

>  <Assay Index>
1378887

>  <Assay Category>


>  <Assay Organism>
Homo sapiens

>  <Target ID>
17045

>  <Target Name>
Cytochrome P450 3A4

>  <Target Organism>
Homo sapiens

>  <Target Description>
Target is a single protein chain

>  <Sequence Accession>
P08684

>  <Reference>
ACS Med Chem Lett 10 (6.0), 966-971 (2019)

>  <Pubmed ID>
31223456

>  <DOI>
10.1021/acsmedchemlett.9b00123

$$$$
2506615
Actelion Java MolfileCreator 1.0

 28 30  0  0  0  0  0  0  0  0999 V2000
    0.0000   -0.0000   -0.0000 F   0  0  0  0  0  0  0  0  0  0  0  0
   -1.4305   -0.4847   -0.0000 C   0  0  0  0  0  0  0  0  0  0  0  0
   -2.5772    0.5084   -0.0000 F   0  0  0  0  0  0  0  0  0  0  0  0
   -1.7142   -1.9507   -0.0000 C   0  0  0  0  0  0  0  0  0  0  0  0
   -1.0640    0.9812   -0.0000 C   0  0  0  0  0  0  0  0  0  0  0  0
   -0.5911   -2.9201   -0.0000 C   0  0  0  0  0  0  0  0  0  0  0  0
   -3.1447   -2.4472   -0.0000 C   0  0  0  0  0  0  0  0  0  0  0  0
   -0.8867   -4.3860   -0.0000 C   0  0  0  0  0  0  0  0  0  0  0  0
   -3.4284   -3.9013   -0.0000 C   0  0  0  0  0  0  0  0  0  0  0  0
   -2.3171   -4.8707   -0.0000 C   0  0  0  0  0  0  0  0  0  0  0  0
   -2.6127   -6.3367   -0.0000 C   0  0  0  0  0  0  0  0  0  0  0  0
   -3.9841   -6.9632   -0.0000 C   0  0  0  0  0  0  0  0  0  0  0  0
   -1.5960   -7.4243   -0.0000 C   0  0  0  0  0  0  0  0  0  0  0  0
   -5.3081   -6.2303   -0.0000 N   0  0  0  0  0  0  0  0  0  0  0  0
   -3.8067   -8.4410   -0.0000 C   0  0  0  0  0  0  0  0  0  0  0  0
   -2.3290   -8.7247   -0.0000 N   0  0  0  0  0  0  0  0  0  0  0  0
   -6.6086   -6.9987   -0.0000 C   0  0  0  0  0  0  0  0  0  0  0  0
   -6.5849   -8.4883   -0.0000 O   0  0  0  0  0  0  0  0  0  0  0  0
   -7.9326   -6.2657   -0.0000 C   0  0  0  0  0  0  0  0  0  0  0  0
   -9.2331   -7.0342   -0.0000 C   0  0  0  0  0  0  0  0  0  0  0  0
  -10.5572   -6.3012   -0.0000 C   0  0  0  0  0  0  0  0  0  0  0  0
   -9.2094   -8.5119   -0.0000 C   0  0  0  0  0  0  0  0  0  0  0  0
  -11.8458   -7.0696   -0.0000 C   0  0  0  0  0  0  0  0  0  0  0  0
  -10.4980   -9.2804   -0.0000 C   0  0  0  0  0  0  0  0  0  0  0  0
  -11.8221   -8.5592   -0.0000 C   0  0  0  0  0  0  0  0  0  0  0  0
  -13.1107   -9.3277   -0.0000 N   0  0  0  0  0  0  0  0  0  0  0  0
  -14.4348   -8.5947   -0.0000 C   0  0  0  0  0  0  0  0  0  0  0  0
  -13.0871  -10.8172   -0.0000 C   0  0  0  0  0  0  0  0  0  0  0  0
  1  2  1  0  0  0  0
  2  3  1  0  0  0  0
  2  4  1  0  0  0  0
  2  5  1  0  0  0  0
  4  6  2  0  0  0  0
  4  7  1  0  0  0  0
  6  8  1  0  0  0  0
  7  9  2  0  0  0  0
  8 10  2  0  0  0  0
 11 10  1  1  0  0  0
 11 12  1  0  0  0  0
 11 13  1  0  0  0  0
 12 14  1  6  0  0  0
 12 15  1  0  0  0  0
 13 16  1  0  0  0  0
 14 17  1  0  0  0  0
 17 18  2  0  0  0  0
 17 19  1  0  0  0  0
 19 20  1  0  0  0  0
 20 21  2  0  0  0  0
 20 22  1  0  0  0  0
 21 23  1  0  0  0  0
 22 24  2  0  0  0  0
 23 25  2  0  0  0  0
 25 26  1  0  0  0  0
 26 27  1  0  0  0  0
 26 28  1  0  0  0  0
  9 10  1  0  0  0  0
 15 16  1  0  0  0  0
 24 25  1  0  0  0  0
M  END
>  <MolRegNo>
2506615

>  <m>
=

>  <Value>
2500

>  <Unit>
nM

>  <Type>
IC50

>  <pValue>
5.6

>  <Ligand Efficiency>
0

>  <Binding Efficiency>
0

>  <Surface Efficiency>
0

>  <Assay Index>
1378887

>  <Assay Category>


>  <Assay Organism>
Homo sapiens

>  <Target ID>
17045

>  <Target Name>
Cytochrome P450 3A4

>  <Target Organism>
Homo sapiens

>  <Target Description>
Target is a single protein chain

>  <Sequence Accession>
P08684

>  <Reference>
ACS Med Chem Lett 10 (6.0), 966-971 (2019)

>  <Pubmed ID>
31223456

>  <DOI>
10.1021/acsmedchemlett.9b00123

$$$$
2509286
Actelion Java MolfileCreator 1.0

 39 43  0  0  0  0  0  0  0  0999 V2000
    0.0000   -0.0000   -0.0000 Cl  0  0  0  0  0  0  0  0  0  0  0  0
   -1.3123    0.7448   -0.0000 C   0  0  0  0  0  0  0  0  0  0  0  0
   -2.6128   -0.0000   -0.0000 C   0  0  0  0  0  0  0  0  0  0  0  0
   -1.3360    2.2463   -0.0000 C   0  0  0  0  0  0  0  0  0  0  0  0
   -3.9251    0.7566   -0.0000 C   0  0  0  0  0  0  0  0  0  0  0  0
   -2.6483    2.9911   -0.0000 C   0  0  0  0  0  0  0  0  0  0  0  0
   -5.2138    0.0118   -0.0000 N   0  0  0  0  0  0  0  0  0  0  0  0
   -3.9488    2.2581   -0.0000 C   0  0  0  0  0  0  0  0  0  0  0  0
   -2.6719    4.4926   -0.0000 C   0  0  0  0  0  0  0  0  0  0  0  0
   -5.2138   -1.4778   -0.0000 C   0  0  0  0  0  0  0  0  0  0  0  0
   -6.5261    0.7566   -0.0000 C   0  0  0  0  0  0  0  0  0  0  0  0
   -6.5143   -2.2108   -0.0000 N   0  0  0  0  0  0  0  0  0  0  0  0
   -7.8266    0.0236   -0.0000 C   0  0  0  0  0  0  0  0  0  0  0  0
   -6.5497    2.2581   -0.0000 C   0  0  0  0  0  0  0  0  0  0  0  0
   -7.8147   -1.4542   -0.0000 C   0  0  0  0  0  0  0  0  0  0  0  0
   -9.1271    0.7803   -0.0000 C   0  0  0  0  0  0  0  0  0  0  0  0
   -5.2729    3.0266   -0.0000 O   0  0  0  0  0  0  0  0  0  0  0  0
   -7.8620    3.0148   -0.0000 N   0  0  0  0  0  0  0  0  0  0  0  0
   -9.1152   -2.1990   -0.0000 C   0  0  0  0  0  0  0  0  0  0  0  0
  -10.4275    0.0473   -0.0000 C   0  0  0  0  0  0  0  0  0  0  0  0
   -7.8857    4.5162   -0.0000 C   0  0  0  0  0  0  0  0  0  0  0  0
   -9.1625    2.2699   -0.0000 C   0  0  0  0  0  0  0  0  0  0  0  0
  -10.4157   -1.4424   -0.0000 C   0  0  0  0  0  0  0  0  0  0  0  0
  -11.7280    0.8039   -0.0000 C   0  0  0  0  0  0  0  0  0  0  0  0
   -9.1980    5.2729   -0.0000 C   0  0  0  0  0  0  0  0  0  0  0  0
  -11.7162   -2.1754   -0.0000 C   0  0  0  0  0  0  0  0  0  0  0  0
  -11.7399    2.3054   -0.0000 C   0  0  0  0  0  0  0  0  0  0  0  0
  -13.0285    0.0709   -0.0000 C   0  0  0  0  0  0  0  0  0  0  0  0
   -9.3753    6.7625   -0.0000 N   0  0  0  0  0  0  0  0  0  0  0  0
  -10.5694    4.6699   -0.0000 C   0  0  0  0  0  0  0  0  0  0  0  0
  -13.0403    3.0621   -0.0000 C   0  0  0  0  0  0  0  0  0  0  0  0
  -14.3290    0.8158   -0.0000 C   0  0  0  0  0  0  0  0  0  0  0  0
  -10.8532    7.0817   -0.0000 C   0  0  0  0  0  0  0  0  0  0  0  0
  -11.5862    5.7813   -0.0000 C   0  0  0  0  0  0  0  0  0  0  0  0
  -13.0522    4.5635   -0.0000 F   0  0  0  0  0  0  0  0  0  0  0  0
  -14.3408    2.3291   -0.0000 C   0  0  0  0  0  0  0  0  0  0  0  0
  -15.6295    0.0709   -0.0000 C   0  0  0  0  0  0  0  0  0  0  0  0
  -15.6413   -1.4069   -0.0000 O   0  0  0  0  0  0  0  0  0  0  0  0
  -16.9418    0.8276   -0.0000 N   0  0  0  0  0  0  0  0  0  0  0  0
  1  2  1  0  0  0  0
  2  3  2  0  0  0  0
  2  4  1  0  0  0  0
  3  5  1  0  0  0  0
  4  6  2  0  0  0  0
  5  7  1  0  0  0  0
  5  8  2  0  0  0  0
  6  9  1  0  0  0  0
  7 10  1  0  0  0  0
  7 11  1  0  0  0  0
 10 12  2  0  0  0  0
 11 13  1  0  0  0  0
 11 14  1  0  0  0  0
 12 15  1  0  0  0  0
 13 16  1  0  0  0  0
 14 17  2  0  0  0  0
 14 18  1  0  0  0  0
 15 19  1  0  0  0  0
 16 20  2  0  0  0  0
 18 21  1  0  0  0  0
 18 22  1  0  0  0  0
 19 23  2  0  0  0  0
 20 24  1  0  0  0  0
 25 21  1  1  0  0  0
 23 26  1  0  0  0  0
 24 27  2  0  0  0  0
 24 28  1  0  0  0  0
 25 29  1  0  0  0  0
 25 30  1  0  0  0  0
 27 31  1  0  0  0  0
 28 32  2  0  0  0  0
 29 33  1  0  0  0  0
 30 34  1  0  0  0  0
 31 35  1  0  0  0  0
 31 36  2  0  0  0  0
 32 37  1  0  0  0  0
 37 38  2  0  0  0  0
 37 39  1  0  0  0  0
  6  8  1  0  0  0  0
 13 15  2  0  0  0  0
 20 23  1  0  0  0  0
 32 36  1  0  0  0  0
 33 34  1  0  0  0  0
M  END
>  <MolRegNo>
2509286

>  <m>
=

>  <Value>
1000

>  <Unit>
nM

>  <Type>
IC50

>  <pValue>
6

>  <Ligand Efficiency>
0

>  <Binding Efficiency>
0

>  <Surface Efficiency>
0

>  <Assay Index>
1380373

>  <Assay Category>


>  <Assay Organism>
Homo sapiens

>  <Target ID>
17045

>  <Target Name>
Cytochrome P450 3A4

>  <Target Organism>
Homo sapiens

>  <Target Description>
Target is a single protein chain

>  <Sequence Accession>
P08684

>  <Reference>
Bioorg Med Chem Lett 30 (17.0), 127391-127391 (2020)

>  <Pubmed ID>
32738999

>  <DOI>
10.1016/j.bmcl.2020.127391

$$$$
2503179
Actelion Java MolfileCreator 1.0

 32 37  0  0  0  0  0  0  0  0999 V2000
    0.0000   -0.0000   -0.0000 O   0  0  0  0  0  0  0  0  0  0  0  0
   -0.4846    1.4302   -0.0000 C   0  0  0  0  0  0  0  0  0  0  0  0
    0.3782    2.6712   -0.0000 N   0  0  0  0  0  0  0  0  0  0  0  0
   -1.9266    1.9029   -0.0000 C   0  0  0  0  0  0  0  0  0  0  0  0
    1.8675    2.6948   -0.0000 C   0  0  0  0  0  0  0  0  0  0  0  0
   -0.5319    3.8886   -0.0000 C   0  0  0  0  0  0  0  0  0  0  0  0
   -3.2385    1.1583   -0.0000 C   0  0  0  0  0  0  0  0  0  0  0  0
   -1.9502    3.4158   -0.0000 C   0  0  0  0  0  0  0  0  0  0  0  0
    2.6121    1.4183   -0.0000 C   0  0  0  0  0  0  0  0  0  0  0  0
    2.5885    4.0068   -0.0000 C   0  0  0  0  0  0  0  0  0  0  0  0
   -4.5505    1.9266   -0.0000 C   0  0  0  0  0  0  0  0  0  0  0  0
   -3.2503   -0.3309   -0.0000 C   0  0  0  0  0  0  0  0  0  0  0  0
   -3.2622    4.1604   -0.0000 C   0  0  0  0  0  0  0  0  0  0  0  0
    2.6121   -0.0709   -0.0000 C   0  0  0  0  0  0  0  0  0  0  0  0
    3.9122    0.6973   -0.0000 C   0  0  0  0  0  0  0  0  0  0  0  0
   -4.5623    3.4395   -0.0000 C   0  0  0  0  0  0  0  0  0  0  0  0
   -5.8624    4.1959   -0.0000 C   0  0  0  0  0  0  0  0  0  0  0  0
   -7.1508    3.4631   -0.0000 N   0  0  0  0  0  0  0  0  0  0  0  0
   -5.8743    5.6970   -0.0000 C   0  0  0  0  0  0  0  0  0  0  0  0
   -8.4509    4.2077   -0.0000 C   0  0  0  0  0  0  0  0  0  0  0  0
   -7.1744    6.4534   -0.0000 C   0  0  0  0  0  0  0  0  0  0  0  0
   -8.4745    5.7088   -0.0000 N   0  0  0  0  0  0  0  0  0  0  0  0
   -9.8810    3.7468   -0.0000 C   0  0  0  0  0  0  0  0  0  0  0  0
   -9.9047    6.1697   -0.0000 N   0  0  0  0  0  0  0  0  0  0  0  0
  -10.7793    4.9523   -0.0000 C   0  0  0  0  0  0  0  0  0  0  0  0
  -10.3420    2.3284   -0.0000 C   0  0  0  0  0  0  0  0  0  0  0  0
  -12.2922    4.9523   -0.0000 N   0  0  0  0  0  0  0  0  0  0  0  0
   -9.4674    1.1347   -0.0000 C   0  0  0  0  0  0  0  0  0  0  0  0
  -11.7721    1.8675   -0.0000 C   0  0  0  0  0  0  0  0  0  0  0  0
  -10.3538   -0.0709   -0.0000 N   0  0  0  0  0  0  0  0  0  0  0  0
  -11.7721    0.3782   -0.0000 N   0  0  0  0  0  0  0  0  0  0  0  0
  -12.9895   -0.4964   -0.0000 C   0  0  0  0  0  0  0  0  0  0  0  0
  1  2  2  0  0  0  0
  2  3  1  0  0  0  0
  2  4  1  0  0  0  0
  5  3  1  1  0  0  0
  3  6  1  0  0  0  0
  4  7  2  0  0  0  0
  4  8  1  0  0  0  0
  5  9  1  0  0  0  0
  5 10  1  0  0  0  0
  7 11  1  0  0  0  0
  7 12  1  0  0  0  0
  8 13  2  0  0  0  0
  9 14  1  0  0  0  0
  9 15  1  0  0  0  0
 11 16  2  0  0  0  0
 16 17  1  0  0  0  0
 17 18  2  0  0  0  0
 17 19  1  0  0  0  0
 18 20  1  0  0  0  0
 19 21  2  0  0  0  0
 20 22  1  0  0  0  0
 20 23  2  0  0  0  0
 22 24  1  0  0  0  0
 23 25  1  0  0  0  0
 23 26  1  0  0  0  0
 25 27  1  0  0  0  0
 26 28  1  0  0  0  0
 26 29  2  0  0  0  0
 28 30  2  0  0  0  0
 29 31  1  0  0  0  0
 31 32  1  0  0  0  0
  6  8  1  0  0  0  0
 13 16  1  0  0  0  0
 14 15  1  0  0  0  0
 21 22  1  0  0  0  0
 24 25  2  0  0  0  0
 30 31  1  0  0  0  0
M  END
>  <MolRegNo>
2503179

>  <m>
=

>  <Value>
450

>  <Unit>
nM

>  <Type>
IC50

>  <pValue>
6.35

>  <Ligand Efficiency>
0

>  <Binding Efficiency>
0

>  <Surface Efficiency>
0

>  <Assay Index>
1381128

>  <Assay Category>


>  <Assay Organism>
Homo sapiens

>  <Target ID>
17045

>  <Target Name>
Cytochrome P450 3A4

>  <Target Organism>
Homo sapiens

>  <Target Description>
Target is a single protein chain

>  <Sequence Accession>
P08684

>  <Reference>
J Med Chem 63 (19.0), 11235-11257 (2020)

>  <Pubmed ID>
32865410

>  <DOI>
10.1021/acs.jmedchem.0c01203

$$$$
2521677
Actelion Java MolfileCreator 1.0

 32 36  0  0  0  0  0  0  0  0999 V2000
    0.0000   -0.0000   -0.0000 F   0  0  0  0  0  0  0  0  0  0  0  0
    1.2773    0.7569   -0.0000 C   0  0  0  0  0  0  0  0  0  0  0  0
    2.5546    0.0237   -0.0000 F   0  0  0  0  0  0  0  0  0  0  0  0
    1.2537   -0.7214   -0.0000 F   0  0  0  0  0  0  0  0  0  0  0  0
    1.2655    2.2708   -0.0000 C   0  0  0  0  0  0  0  0  0  0  0  0
    2.5546    3.0395   -0.0000 C   0  0  0  0  0  0  0  0  0  0  0  0
   -0.0473    3.0277   -0.0000 C   0  0  0  0  0  0  0  0  0  0  0  0
    3.9738    2.6019   -0.0000 C   0  0  0  0  0  0  0  0  0  0  0  0
    2.5310    4.5534   -0.0000 C   0  0  0  0  0  0  0  0  0  0  0  0
   -0.0591    4.5415   -0.0000 C   0  0  0  0  0  0  0  0  0  0  0  0
    4.4351    1.1945   -0.0000 O   0  0  0  0  0  0  0  0  0  0  0  0
    4.8254    3.8319   -0.0000 N   0  0  0  0  0  0  0  0  0  0  0  0
    1.2182    5.3103   -0.0000 C   0  0  0  0  0  0  0  0  0  0  0  0
    3.9384    5.0501   -0.0000 C   0  0  0  0  0  0  0  0  0  0  0  0
   -1.3601    5.2985   -0.0000 C   0  0  0  0  0  0  0  0  0  0  0  0
    6.3156    3.8556   -0.0000 C   0  0  0  0  0  0  0  0  0  0  0  0
   -2.6611    4.5652   -0.0000 N   0  0  0  0  0  0  0  0  0  0  0  0
   -1.3601    6.8005   -0.0000 C   0  0  0  0  0  0  0  0  0  0  0  0
    7.0725    2.5783   -0.0000 C   0  0  0  0  0  0  0  0  0  0  0  0
    7.0489    5.1684   -0.0000 C   0  0  0  0  0  0  0  0  0  0  0  0
   -3.9620    5.3221   -0.0000 C   0  0  0  0  0  0  0  0  0  0  0  0
   -2.6611    7.5574   -0.0000 C   0  0  0  0  0  0  0  0  0  0  0  0
    7.0725    1.0881   -0.0000 C   0  0  0  0  0  0  0  0  0  0  0  0
    8.3616    1.8568   -0.0000 C   0  0  0  0  0  0  0  0  0  0  0  0
   -3.9857    6.8360   -0.0000 N   0  0  0  0  0  0  0  0  0  0  0  0
   -5.3931    4.8609   -0.0000 C   0  0  0  0  0  0  0  0  0  0  0  0
   -5.4286    7.3090   -0.0000 N   0  0  0  0  0  0  0  0  0  0  0  0
   -6.2919    6.0790   -0.0000 C   0  0  0  0  0  0  0  0  0  0  0  0
   -7.7939    6.0790   -0.0000 N   0  0  0  0  0  0  0  0  0  0  0  0
   -8.5627    7.3800   -0.0000 C   0  0  0  0  0  0  0  0  0  0  0  0
   -7.8294    8.6928   -0.0000 O   0  0  0  0  0  0  0  0  0  0  0  0
  -10.0647    7.3800   -0.0000 C   0  0  0  0  0  0  0  0  0  0  0  0
  1  2  1  0  0  0  0
  2  3  1  0  0  0  0
  2  4  1  0  0  0  0
  2  5  1  0  0  0  0
  5  6  2  0  0  0  0
  5  7  1  0  0  0  0
  6  8  1  0  0  0  0
  6  9  1  0  0  0  0
  7 10  2  0  0  0  0
  8 11  2  0  0  0  0
  8 12  1  0  0  0  0
  9 13  2  0  0  0  0
  9 14  1  0  0  0  0
 10 15  1  0  0  0  0
 16 12  1  1  0  0  0
 15 17  2  0  0  0  0
 15 18  1  0  0  0  0
 16 19  1  0  0  0  0
 16 20  1  0  0  0  0
 17 21  1  0  0  0  0
 18 22  2  0  0  0  0
 19 23  1  0  0  0  0
 19 24  1  0  0  0  0
 21 25  1  0  0  0  0
 21 26  2  0  0  0  0
 25 27  1  0  0  0  0
 26 28  1  0  0  0  0
 28 29  1  0  0  0  0
 29 30  1  0  0  0  0
 30 31  2  0  0  0  0
 30 32  1  0  0  0  0
 10 13  1  0  0  0  0
 12 14  1  0  0  0  0
 22 25  1  0  0  0  0
 23 24  1  0  0  0  0
 27 28  2  0  0  0  0
M  END
>  <MolRegNo>
2521677

>  <m>
=

>  <Value>
4600

>  <Unit>
nM

>  <Type>
IC50

>  <pValue>
5.34

>  <Ligand Efficiency>
0

>  <Binding Efficiency>
0

>  <Surface Efficiency>
0

>  <Assay Index>
1381128

>  <Assay Category>


>  <Assay Organism>
Homo sapiens

>  <Target ID>
17045

>  <Target Name>
Cytochrome P450 3A4

>  <Target Organism>
Homo sapiens

>  <Target Description>
Target is a single protein chain

>  <Sequence Accession>
P08684

>  <Reference>
J Med Chem 63 (19.0), 11235-11257 (2020)

>  <Pubmed ID>
32865410

>  <DOI>
10.1021/acs.jmedchem.0c01203

$$$$
2518674
Actelion Java MolfileCreator 1.0

 35 40  0  0  0  0  0  0  0  0999 V2000
    0.0000   -0.0000   -0.0000 F   0  0  0  0  0  0  0  0  0  0  0  0
    1.2794    0.7582   -0.0000 C   0  0  0  0  0  0  0  0  0  0  0  0
    2.5588    0.0237   -0.0000 F   0  0  0  0  0  0  0  0  0  0  0  0
    1.2557   -0.7226   -0.0000 F   0  0  0  0  0  0  0  0  0  0  0  0
    1.2675    2.2745   -0.0000 C   0  0  0  0  0  0  0  0  0  0  0  0
    2.5588    3.0445   -0.0000 C   0  0  0  0  0  0  0  0  0  0  0  0
   -0.0474    3.0326   -0.0000 C   0  0  0  0  0  0  0  0  0  0  0  0
    3.9803    2.6061   -0.0000 C   0  0  0  0  0  0  0  0  0  0  0  0
    2.5351    4.5608   -0.0000 C   0  0  0  0  0  0  0  0  0  0  0  0
   -0.0592    4.5489   -0.0000 C   0  0  0  0  0  0  0  0  0  0  0  0
    4.4423    1.1965   -0.0000 O   0  0  0  0  0  0  0  0  0  0  0  0
    4.8332    3.8500   -0.0000 N   0  0  0  0  0  0  0  0  0  0  0  0
    1.2201    5.3189   -0.0000 C   0  0  0  0  0  0  0  0  0  0  0  0
    3.9566    5.0583   -0.0000 C   0  0  0  0  0  0  0  0  0  0  0  0
   -1.3623    5.3071   -0.0000 C   0  0  0  0  0  0  0  0  0  0  0  0
    6.3258    3.8737   -0.0000 C   0  0  0  0  0  0  0  0  0  0  0  0
   -2.6654    4.5726   -0.0000 N   0  0  0  0  0  0  0  0  0  0  0  0
   -1.3623    6.8115   -0.0000 C   0  0  0  0  0  0  0  0  0  0  0  0
    7.0840    2.5943   -0.0000 C   0  0  0  0  0  0  0  0  0  0  0  0
    7.0603    5.1886   -0.0000 C   0  0  0  0  0  0  0  0  0  0  0  0
   -3.9684    5.3307   -0.0000 C   0  0  0  0  0  0  0  0  0  0  0  0
   -2.6654    7.5697   -0.0000 C   0  0  0  0  0  0  0  0  0  0  0  0
    7.0840    1.1017   -0.0000 C   0  0  0  0  0  0  0  0  0  0  0  0
    8.3752    1.8717   -0.0000 C   0  0  0  0  0  0  0  0  0  0  0  0
   -3.9921    6.8471   -0.0000 N   0  0  0  0  0  0  0  0  0  0  0  0
   -5.4018    4.8688   -0.0000 C   0  0  0  0  0  0  0  0  0  0  0  0
   -5.4374    7.3209   -0.0000 N   0  0  0  0  0  0  0  0  0  0  0  0
   -6.3021    6.0889   -0.0000 C   0  0  0  0  0  0  0  0  0  0  0  0
   -5.8638    3.4591   -0.0000 C   0  0  0  0  0  0  0  0  0  0  0  0
   -7.8066    6.0889   -0.0000 N   0  0  0  0  0  0  0  0  0  0  0  0
   -4.9991    2.2508   -0.0000 C   0  0  0  0  0  0  0  0  0  0  0  0
   -7.2972    2.9971   -0.0000 C   0  0  0  0  0  0  0  0  0  0  0  0
   -5.8875    1.0543   -0.0000 N   0  0  0  0  0  0  0  0  0  0  0  0
   -7.2972    1.5163   -0.0000 N   0  0  0  0  0  0  0  0  0  0  0  0
   -8.5174    0.6397   -0.0000 C   0  0  0  0  0  0  0  0  0  0  0  0
  1  2  1  0  0  0  0
  2  3  1  0  0  0  0
  2  4  1  0  0  0  0
  2  5  1  0  0  0  0
  5  6  2  0  0  0  0
  5  7  1  0  0  0  0
  6  8  1  0  0  0  0
  6  9  1  0  0  0  0
  7 10  2  0  0  0  0
  8 11  2  0  0  0  0
  8 12  1  0  0  0  0
  9 13  2  0  0  0  0
  9 14  1  0  0  0  0
 10 15  1  0  0  0  0
 16 12  1  1  0  0  0
 15 17  2  0  0  0  0
 15 18  1  0  0  0  0
 16 19  1  0  0  0  0
 16 20  1  0  0  0  0
 17 21  1  0  0  0  0
 18 22  2  0  0  0  0
 19 23  1  0  0  0  0
 19 24  1  0  0  0  0
 21 25  1  0  0  0  0
 21 26  2  0  0  0  0
 25 27  1  0  0  0  0
 26 28  1  0  0  0  0
 26 29  1  0  0  0  0
 28 30  1  0  0  0  0
 29 31  1  0  0  0  0
 29 32  2  0  0  0  0
 31 33  2  0  0  0  0
 32 34  1  0  0  0  0
 34 35  1  0  0  0  0
 10 13  1  0  0  0  0
 12 14  1  0  0  0  0
 22 25  1  0  0  0  0
 23 24  1  0  0  0  0
 27 28  2  0  0  0  0
 33 34  1  0  0  0  0
M  END
>  <MolRegNo>
2518674

>  <m>
=

>  <Value>
600

>  <Unit>
nM

>  <Type>
IC50

>  <pValue>
6.22

>  <Ligand Efficiency>
0

>  <Binding Efficiency>
0

>  <Surface Efficiency>
0

>  <Assay Index>
1381128

>  <Assay Category>


>  <Assay Organism>
Homo sapiens

>  <Target ID>
17045

>  <Target Name>
Cytochrome P450 3A4

>  <Target Organism>
Homo sapiens

>  <Target Description>
Target is a single protein chain

>  <Sequence Accession>
P08684

>  <Reference>
J Med Chem 63 (19.0), 11235-11257 (2020)

>  <Pubmed ID>
32865410

>  <DOI>
10.1021/acs.jmedchem.0c01203

$$$$
2497799
Actelion Java MolfileCreator 1.0

 28 32  0  0  0  0  0  0  0  0999 V2000
    0.0000   -0.0000   -0.0000 S   0  0  0  0  0  0  0  0  0  0  0  0
   -1.5069    0.0119   -0.0000 C   0  0  0  0  0  0  0  0  0  0  0  0
    0.7357    1.3171   -0.0000 C   0  0  0  0  0  0  0  0  0  0  0  0
   -1.9815    1.4476   -0.0000 N   0  0  0  0  0  0  0  0  0  0  0  0
   -2.7291   -0.8543   -0.0000 N   0  0  0  0  0  0  0  0  0  0  0  0
    2.2307    1.3289   -0.0000 C   0  0  0  0  0  0  0  0  0  0  0  0
   -0.0237    2.6223   -0.0000 C   0  0  0  0  0  0  0  0  0  0  0  0
   -3.4885    1.4476   -0.0000 C   0  0  0  0  0  0  0  0  0  0  0  0
   -2.7291   -2.3375   -0.0000 C   0  0  0  0  0  0  0  0  0  0  0  0
   -3.9631    0.0356   -0.0000 C   0  0  0  0  0  0  0  0  0  0  0  0
    2.9664    0.0356   -0.0000 O   0  0  0  0  0  0  0  0  0  0  0  0
    2.9664    2.6460   -0.0000 O   0  0  0  0  0  0  0  0  0  0  0  0
   -4.5089    2.5748   -0.0000 C   0  0  0  0  0  0  0  0  0  0  0  0
   -1.4357   -3.0732   -0.0000 C   0  0  0  0  0  0  0  0  0  0  0  0
   -4.0343   -3.0850   -0.0000 C   0  0  0  0  0  0  0  0  0  0  0  0
   -5.4344   -0.2610   -0.0000 C   0  0  0  0  0  0  0  0  0  0  0  0
   -5.9802    2.2782   -0.0000 N   0  0  0  0  0  0  0  0  0  0  0  0
   -1.4476   -4.5682   -0.0000 C   0  0  0  0  0  0  0  0  0  0  0  0
   -0.1543   -2.3019   -0.0000 C   0  0  0  0  0  0  0  0  0  0  0  0
   -4.0461   -4.5801   -0.0000 C   0  0  0  0  0  0  0  0  0  0  0  0
   -6.4430    0.8543   -0.0000 C   0  0  0  0  0  0  0  0  0  0  0  0
   -2.7647   -5.3158   -0.0000 C   0  0  0  0  0  0  0  0  0  0  0  0
   -0.1543   -5.3039   -0.0000 C   0  0  0  0  0  0  0  0  0  0  0  0
    1.1391   -3.0376   -0.0000 C   0  0  0  0  0  0  0  0  0  0  0  0
   -2.7647   -6.8108   -0.0000 C   0  0  0  0  0  0  0  0  0  0  0  0
    1.1391   -4.5445   -0.0000 C   0  0  0  0  0  0  0  0  0  0  0  0
   -3.5241   -8.1042   -0.0000 C   0  0  0  0  0  0  0  0  0  0  0  0
   -2.0171   -8.1042   -0.0000 C   0  0  0  0  0  0  0  0  0  0  0  0
  1  2  1  0  0  0  0
  1  3  1  0  0  0  0
  2  4  2  0  0  0  0
  2  5  1  0  0  0  0
  3  6  1  0  0  0  0
  3  7  1  0  0  0  0
  4  8  1  0  0  0  0
  5  9  1  0  0  0  0
  5 10  1  0  0  0  0
  6 11  2  0  0  0  0
  6 12  1  0  0  0  0
  8 13  1  0  0  0  0
  9 14  1  0  0  0  0
  9 15  2  0  0  0  0
 10 16  1  0  0  0  0
 13 17  2  0  0  0  0
 14 18  1  0  0  0  0
 14 19  2  0  0  0  0
 15 20  1  0  0  0  0
 16 21  2  0  0  0  0
 18 22  1  0  0  0  0
 18 23  2  0  0  0  0
 19 24  1  0  0  0  0
 22 25  1  0  0  0  0
 23 26  1  0  0  0  0
 25 27  1  0  0  0  0
 25 28  1  0  0  0  0
  8 10  2  0  0  0  0
 17 21  1  0  0  0  0
 20 22  2  0  0  0  0
 24 26  2  0  0  0  0
 27 28  1  0  0  0  0
M  END
>  <MolRegNo>
2497799

>  <m>
=

>  <Value>
36500

>  <Unit>
nM

>  <Type>
IC50

>  <pValue>
4.44

>  <Ligand Efficiency>
0

>  <Binding Efficiency>
0

>  <Surface Efficiency>
0

>  <Assay Index>
1381584

>  <Assay Category>


>  <Assay Organism>
Homo sapiens

>  <Target ID>
17045

>  <Target Name>
Cytochrome P450 3A4

>  <Target Organism>
Homo sapiens

>  <Target Description>
Target is a single protein chain

>  <Sequence Accession>
P08684

>  <Reference>
J Med Chem 63 (19.0), 10829-10854 (2020)

>  <Pubmed ID>
32897699

>  <DOI>
10.1021/acs.jmedchem.0c00223

$$$$
2515021
Actelion Java MolfileCreator 1.0

 29 32  0  0  0  0  0  0  0  0999 V2000
    0.0000   -0.0000   -0.0000 Br  0  0  0  0  0  0  0  0  0  0  0  0
    1.2973   -0.7379   -0.0000 C   0  0  0  0  0  0  0  0  0  0  0  0
    2.5827    0.0238   -0.0000 C   0  0  0  0  0  0  0  0  0  0  0  0
    1.2854   -2.2257   -0.0000 C   0  0  0  0  0  0  0  0  0  0  0  0
    3.8800   -0.7141   -0.0000 C   0  0  0  0  0  0  0  0  0  0  0  0
    2.5708   -2.9636   -0.0000 C   0  0  0  0  0  0  0  0  0  0  0  0
    5.1773    0.0476   -0.0000 C   0  0  0  0  0  0  0  0  0  0  0  0
    3.8681   -2.2018   -0.0000 C   0  0  0  0  0  0  0  0  0  0  0  0
    6.4627   -0.6903   -0.0000 C   0  0  0  0  0  0  0  0  0  0  0  0
    5.1654    1.5591   -0.0000 C   0  0  0  0  0  0  0  0  0  0  0  0
    5.1654   -2.9398   -0.0000 N   0  0  0  0  0  0  0  0  0  0  0  0
    6.4508   -2.1780   -0.0000 C   0  0  0  0  0  0  0  0  0  0  0  0
    7.7600    0.0714   -0.0000 C   0  0  0  0  0  0  0  0  0  0  0  0
    3.8443    2.3209   -0.0000 O   0  0  0  0  0  0  0  0  0  0  0  0
    6.4508    2.3209   -0.0000 N   0  0  0  0  0  0  0  0  0  0  0  0
    7.7481   -2.9160   -0.0000 C   0  0  0  0  0  0  0  0  0  0  0  0
    6.4389    3.8443   -0.0000 C   0  0  0  0  0  0  0  0  0  0  0  0
    7.7362   -4.4037   -0.0000 C   0  0  0  0  0  0  0  0  0  0  0  0
    9.0454   -2.1542   -0.0000 C   0  0  0  0  0  0  0  0  0  0  0  0
    7.7362    4.6060   -0.0000 C   0  0  0  0  0  0  0  0  0  0  0  0
    9.0335   -5.1416   -0.0000 C   0  0  0  0  0  0  0  0  0  0  0  0
   10.3308   -2.8922   -0.0000 C   0  0  0  0  0  0  0  0  0  0  0  0
    7.7243    6.1176   -0.0000 C   0  0  0  0  0  0  0  0  0  0  0  0
   10.3189   -4.3799   -0.0000 C   0  0  0  0  0  0  0  0  0  0  0  0
    6.4032    6.8793   -0.0000 N   0  0  0  0  0  0  0  0  0  0  0  0
    9.0216    6.8793   -0.0000 C   0  0  0  0  0  0  0  0  0  0  0  0
    6.3913    8.3908   -0.0000 C   0  0  0  0  0  0  0  0  0  0  0  0
    9.0097    8.3908   -0.0000 C   0  0  0  0  0  0  0  0  0  0  0  0
    7.6886    9.1526   -0.0000 C   0  0  0  0  0  0  0  0  0  0  0  0
  1  2  1  0  0  0  0
  2  3  2  0  0  0  0
  2  4  1  0  0  0  0
  3  5  1  0  0  0  0
  4  6  2  0  0  0  0
  5  7  2  0  0  0  0
  5  8  1  0  0  0  0
  7  9  1  0  0  0  0
  7 10  1  0  0  0  0
  8 11  2  0  0  0  0
  9 12  2  0  0  0  0
  9 13  1  0  0  0  0
 10 14  2  0  0  0  0
 10 15  1  0  0  0  0
 12 16  1  0  0  0  0
 15 17  1  0  0  0  0
 16 18  2  0  0  0  0
 16 19  1  0  0  0  0
 17 20  1  0  0  0  0
 18 21  1  0  0  0  0
 19 22  2  0  0  0  0
 20 23  1  0  0  0  0
 21 24  2  0  0  0  0
 23 25  2  0  0  0  0
 23 26  1  0  0  0  0
 25 27  1  0  0  0  0
 26 28  2  0  0  0  0
 27 29  2  0  0  0  0
  6  8  1  0  0  0  0
 11 12  1  0  0  0  0
 22 24  1  0  0  0  0
 28 29  1  0  0  0  0
M  END
>  <MolRegNo>
2515021

>  <m>
=

>  <Value>
6000

>  <Unit>
nM

>  <Type>
IC50

>  <pValue>
5.22

>  <Ligand Efficiency>
0

>  <Binding Efficiency>
0

>  <Surface Efficiency>
0

>  <Assay Index>
1382452

>  <Assay Category>


>  <Assay Organism>
Homo sapiens

>  <Target ID>
17045

>  <Target Name>
Cytochrome P450 3A4

>  <Target Organism>
Homo sapiens

>  <Target Description>
Target is a single protein chain

>  <Sequence Accession>
P08684

>  <Reference>
J Med Chem 63 (20.0), 11639-11662 (2020)

>  <Pubmed ID>
32969660

>  <DOI>
10.1021/acs.jmedchem.0c00834

$$$$
2518797
Actelion Java MolfileCreator 1.0

 30 33  0  0  0  0  0  0  0  0999 V2000
    0.0000   -0.0000   -0.0000 Br  0  0  0  0  0  0  0  0  0  0  0  0
    1.2969   -0.7377   -0.0000 C   0  0  0  0  0  0  0  0  0  0  0  0
    2.5819    0.0238   -0.0000 C   0  0  0  0  0  0  0  0  0  0  0  0
    1.2850   -2.2250   -0.0000 C   0  0  0  0  0  0  0  0  0  0  0  0
    3.8789   -0.7139   -0.0000 C   0  0  0  0  0  0  0  0  0  0  0  0
    2.5700   -2.9627   -0.0000 C   0  0  0  0  0  0  0  0  0  0  0  0
    5.1758    0.0476   -0.0000 C   0  0  0  0  0  0  0  0  0  0  0  0
    3.8670   -2.2012   -0.0000 C   0  0  0  0  0  0  0  0  0  0  0  0
    6.4608   -0.6901   -0.0000 C   0  0  0  0  0  0  0  0  0  0  0  0
    5.1639    1.5587   -0.0000 C   0  0  0  0  0  0  0  0  0  0  0  0
    5.1639   -2.9389   -0.0000 N   0  0  0  0  0  0  0  0  0  0  0  0
    6.4489   -2.1774   -0.0000 C   0  0  0  0  0  0  0  0  0  0  0  0
    7.7577    0.0714   -0.0000 C   0  0  0  0  0  0  0  0  0  0  0  0
    3.8432    2.3202   -0.0000 O   0  0  0  0  0  0  0  0  0  0  0  0
    6.4489    2.3202   -0.0000 N   0  0  0  0  0  0  0  0  0  0  0  0
    7.7458   -2.9151   -0.0000 C   0  0  0  0  0  0  0  0  0  0  0  0
    6.4370    3.8432   -0.0000 C   0  0  0  0  0  0  0  0  0  0  0  0
    7.7339   -4.4024   -0.0000 C   0  0  0  0  0  0  0  0  0  0  0  0
    9.0428   -2.1536   -0.0000 C   0  0  0  0  0  0  0  0  0  0  0  0
    7.7339    4.6047   -0.0000 C   0  0  0  0  0  0  0  0  0  0  0  0
    5.1282    4.6047   -0.0000 C   0  0  0  0  0  0  0  0  0  0  0  0
    9.0309   -5.1401   -0.0000 C   0  0  0  0  0  0  0  0  0  0  0  0
   10.3278   -2.8913   -0.0000 C   0  0  0  0  0  0  0  0  0  0  0  0
    7.7220    6.1158   -0.0000 C   0  0  0  0  0  0  0  0  0  0  0  0
   10.3159   -4.3786   -0.0000 C   0  0  0  0  0  0  0  0  0  0  0  0
    6.4013    6.8773   -0.0000 N   0  0  0  0  0  0  0  0  0  0  0  0
    9.0190    6.8773   -0.0000 C   0  0  0  0  0  0  0  0  0  0  0  0
    6.3894    8.3883   -0.0000 C   0  0  0  0  0  0  0  0  0  0  0  0
    9.0071    8.3883   -0.0000 C   0  0  0  0  0  0  0  0  0  0  0  0
    7.6863    9.1498   -0.0000 C   0  0  0  0  0  0  0  0  0  0  0  0
  1  2  1  0  0  0  0
  2  3  2  0  0  0  0
  2  4  1  0  0  0  0
  3  5  1  0  0  0  0
  4  6  2  0  0  0  0
  5  7  2  0  0  0  0
  5  8  1  0  0  0  0
  7  9  1  0  0  0  0
  7 10  1  0  0  0  0
  8 11  2  0  0  0  0
  9 12  2  0  0  0  0
  9 13  1  0  0  0  0
 10 14  2  0  0  0  0
 10 15  1  0  0  0  0
 12 16  1  0  0  0  0
 15 17  1  0  0  0  0
 16 18  2  0  0  0  0
 16 19  1  0  0  0  0
 17 20  1  0  0  0  0
 17 21  1  0  0  0  0
 18 22  1  0  0  0  0
 19 23  2  0  0  0  0
 20 24  1  0  0  0  0
 22 25  2  0  0  0  0
 24 26  2  0  0  0  0
 24 27  1  0  0  0  0
 26 28  1  0  0  0  0
 27 29  2  0  0  0  0
 28 30  2  0  0  0  0
  6  8  1  0  0  0  0
 11 12  1  0  0  0  0
 23 25  1  0  0  0  0
 29 30  1  0  0  0  0
M  END
>  <MolRegNo>
2518797

>  <m>
=

>  <Value>
2000

>  <Unit>
nM

>  <Type>
IC50

>  <pValue>
5.7

>  <Ligand Efficiency>
0

>  <Binding Efficiency>
0

>  <Surface Efficiency>
0

>  <Assay Index>
1382452

>  <Assay Category>


>  <Assay Organism>
Homo sapiens

>  <Target ID>
17045

>  <Target Name>
Cytochrome P450 3A4

>  <Target Organism>
Homo sapiens

>  <Target Description>
Target is a single protein chain

>  <Sequence Accession>
P08684

>  <Reference>
J Med Chem 63 (20.0), 11639-11662 (2020)

>  <Pubmed ID>
32969660

>  <DOI>
10.1021/acs.jmedchem.0c00834

$$$$
2509062
Actelion Java MolfileCreator 1.0

 32 35  0  0  0  0  0  0  0  0999 V2000
    0.0000   -0.0000   -0.0000 Br  0  0  0  0  0  0  0  0  0  0  0  0
    1.2972   -0.7379   -0.0000 C   0  0  0  0  0  0  0  0  0  0  0  0
    2.5944    0.0238   -0.0000 C   0  0  0  0  0  0  0  0  0  0  0  0
    1.2853   -2.2255   -0.0000 C   0  0  0  0  0  0  0  0  0  0  0  0
    3.8797   -0.7141   -0.0000 C   0  0  0  0  0  0  0  0  0  0  0  0
    2.5825   -2.9634   -0.0000 C   0  0  0  0  0  0  0  0  0  0  0  0
    5.1770    0.0476   -0.0000 C   0  0  0  0  0  0  0  0  0  0  0  0
    3.8678   -2.2017   -0.0000 C   0  0  0  0  0  0  0  0  0  0  0  0
    6.4623   -0.6903   -0.0000 C   0  0  0  0  0  0  0  0  0  0  0  0
    5.1651    1.5590   -0.0000 C   0  0  0  0  0  0  0  0  0  0  0  0
    5.1651   -2.9396   -0.0000 N   0  0  0  0  0  0  0  0  0  0  0  0
    6.4504   -2.1779   -0.0000 C   0  0  0  0  0  0  0  0  0  0  0  0
    7.7595    0.0714   -0.0000 C   0  0  0  0  0  0  0  0  0  0  0  0
    3.8440    2.3207   -0.0000 O   0  0  0  0  0  0  0  0  0  0  0  0
    6.4504    2.3207   -0.0000 N   0  0  0  0  0  0  0  0  0  0  0  0
    7.7476   -2.9158   -0.0000 C   0  0  0  0  0  0  0  0  0  0  0  0
    6.4385    3.8440   -0.0000 C   0  0  0  0  0  0  0  0  0  0  0  0
    7.7357   -4.4034   -0.0000 C   0  0  0  0  0  0  0  0  0  0  0  0
    9.0448   -2.1541   -0.0000 C   0  0  0  0  0  0  0  0  0  0  0  0
    7.7357    4.6057   -0.0000 C   0  0  0  0  0  0  0  0  0  0  0  0
    9.0329   -5.1413   -0.0000 C   0  0  0  0  0  0  0  0  0  0  0  0
   10.3420   -2.8920   -0.0000 C   0  0  0  0  0  0  0  0  0  0  0  0
    7.7238    6.1171   -0.0000 C   0  0  0  0  0  0  0  0  0  0  0  0
    9.0329    3.8678   -0.0000 C   0  0  0  0  0  0  0  0  0  0  0  0
   10.3301   -4.3796   -0.0000 C   0  0  0  0  0  0  0  0  0  0  0  0
    6.4028    6.8788   -0.0000 C   0  0  0  0  0  0  0  0  0  0  0  0
    9.0210    6.8788   -0.0000 C   0  0  0  0  0  0  0  0  0  0  0  0
    5.0936    6.1409   -0.0000 O   0  0  0  0  0  0  0  0  0  0  0  0
    6.3909    8.3902   -0.0000 C   0  0  0  0  0  0  0  0  0  0  0  0
    9.0091    8.3902   -0.0000 C   0  0  0  0  0  0  0  0  0  0  0  0
    5.0817    4.6533   -0.0000 C   0  0  0  0  0  0  0  0  0  0  0  0
    7.6881    9.1519   -0.0000 C   0  0  0  0  0  0  0  0  0  0  0  0
  1  2  1  0  0  0  0
  2  3  2  0  0  0  0
  2  4  1  0  0  0  0
  3  5  1  0  0  0  0
  4  6  2  0  0  0  0
  5  7  2  0  0  0  0
  5  8  1  0  0  0  0
  7  9  1  0  0  0  0
  7 10  1  0  0  0  0
  8 11  2  0  0  0  0
  9 12  2  0  0  0  0
  9 13  1  0  0  0  0
 10 14  2  0  0  0  0
 10 15  1  0  0  0  0
 12 16  1  0  0  0  0
 15 17  1  0  0  0  0
 16 18  2  0  0  0  0
 16 19  1  0  0  0  0
 17 20  1  0  0  0  0
 18 21  1  0  0  0  0
 19 22  2  0  0  0  0
 20 23  1  0  0  0  0
 20 24  1  0  0  0  0
 21 25  2  0  0  0  0
 23 26  2  0  0  0  0
 23 27  1  0  0  0  0
 26 28  1  0  0  0  0
 26 29  1  0  0  0  0
 27 30  2  0  0  0  0
 28 31  1  0  0  0  0
 29 32  2  0  0  0  0
  6  8  1  0  0  0  0
 11 12  1  0  0  0  0
 22 25  1  0  0  0  0
 30 32  1  0  0  0  0
M  END
>  <MolRegNo>
2509062

>  <m>
=

>  <Value>
700

>  <Unit>
nM

>  <Type>
IC50

>  <pValue>
6.16

>  <Ligand Efficiency>
0

>  <Binding Efficiency>
0

>  <Surface Efficiency>
0

>  <Assay Index>
1382452

>  <Assay Category>


>  <Assay Organism>
Homo sapiens

>  <Target ID>
17045

>  <Target Name>
Cytochrome P450 3A4

>  <Target Organism>
Homo sapiens

>  <Target Description>
Target is a single protein chain

>  <Sequence Accession>
P08684

>  <Reference>
J Med Chem 63 (20.0), 11639-11662 (2020)

>  <Pubmed ID>
32969660

>  <DOI>
10.1021/acs.jmedchem.0c00834

$$$$
2503422
Actelion Java MolfileCreator 1.0

 30 33  0  0  0  0  0  0  0  0999 V2000
    0.0000   -0.0000   -0.0000 Br  0  0  0  0  0  0  0  0  0  0  0  0
    1.2972   -0.7379   -0.0000 C   0  0  0  0  0  0  0  0  0  0  0  0
    2.5945    0.0238   -0.0000 C   0  0  0  0  0  0  0  0  0  0  0  0
    1.2853   -2.2255   -0.0000 C   0  0  0  0  0  0  0  0  0  0  0  0
    3.8798   -0.7141   -0.0000 C   0  0  0  0  0  0  0  0  0  0  0  0
    2.5826   -2.9634   -0.0000 C   0  0  0  0  0  0  0  0  0  0  0  0
    3.8679   -2.2017   -0.0000 C   0  0  0  0  0  0  0  0  0  0  0  0
    5.1770    0.0476   -0.0000 C   0  0  0  0  0  0  0  0  0  0  0  0
    5.1651   -2.9396   -0.0000 N   0  0  0  0  0  0  0  0  0  0  0  0
    6.4623   -0.6903   -0.0000 C   0  0  0  0  0  0  0  0  0  0  0  0
    5.1651    1.5591   -0.0000 C   0  0  0  0  0  0  0  0  0  0  0  0
    6.4504   -2.1779   -0.0000 C   0  0  0  0  0  0  0  0  0  0  0  0
    7.7596    0.0714   -0.0000 C   0  0  0  0  0  0  0  0  0  0  0  0
    6.4504    2.3207   -0.0000 N   0  0  0  0  0  0  0  0  0  0  0  0
    7.7477   -2.9158   -0.0000 C   0  0  0  0  0  0  0  0  0  0  0  0
    6.4385    3.8441   -0.0000 C   0  0  0  0  0  0  0  0  0  0  0  0
    7.7358   -4.4034   -0.0000 C   0  0  0  0  0  0  0  0  0  0  0  0
    9.0449   -2.1541   -0.0000 C   0  0  0  0  0  0  0  0  0  0  0  0
    5.1294    4.6058   -0.0000 C   0  0  0  0  0  0  0  0  0  0  0  0
    7.7358    4.6058   -0.0000 C   0  0  0  0  0  0  0  0  0  0  0  0
    9.0330   -5.1413   -0.0000 C   0  0  0  0  0  0  0  0  0  0  0  0
   10.3421   -2.8920   -0.0000 C   0  0  0  0  0  0  0  0  0  0  0  0
    3.8084    3.8679   -0.0000 F   0  0  0  0  0  0  0  0  0  0  0  0
    5.1175    6.1172   -0.0000 C   0  0  0  0  0  0  0  0  0  0  0  0
    7.7239    6.1172   -0.0000 C   0  0  0  0  0  0  0  0  0  0  0  0
   10.3302   -4.3796   -0.0000 C   0  0  0  0  0  0  0  0  0  0  0  0
    6.4028    6.8789   -0.0000 C   0  0  0  0  0  0  0  0  0  0  0  0
    6.3909    8.3903   -0.0000 C   0  0  0  0  0  0  0  0  0  0  0  0
    5.0818    9.1520   -0.0000 O   0  0  0  0  0  0  0  0  0  0  0  0
    7.6882    9.1520   -0.0000 O   0  0  0  0  0  0  0  0  0  0  0  0
  1  2  1  0  0  0  0
  2  3  2  0  0  0  0
  2  4  1  0  0  0  0
  3  5  1  0  0  0  0
  4  6  2  0  0  0  0
  5  7  1  0  0  0  0
  5  8  2  0  0  0  0
  7  9  2  0  0  0  0
  8 10  1  0  0  0  0
  8 11  1  0  0  0  0
  9 12  1  0  0  0  0
 10 13  1  0  0  0  0
 11 14  1  0  0  0  0
 12 15  1  0  0  0  0
 14 16  1  0  0  0  0
 15 17  2  0  0  0  0
 15 18  1  0  0  0  0
 16 19  2  0  0  0  0
 16 20  1  0  0  0  0
 17 21  1  0  0  0  0
 18 22  2  0  0  0  0
 19 23  1  0  0  0  0
 19 24  1  0  0  0  0
 20 25  2  0  0  0  0
 21 26  2  0  0  0  0
 24 27  2  0  0  0  0
 27 28  1  0  0  0  0
 28 29  2  0  0  0  0
 28 30  1  0  0  0  0
  6  7  1  0  0  0  0
 10 12  2  0  0  0  0
 22 26  1  0  0  0  0
 25 27  1  0  0  0  0
M  END
>  <MolRegNo>
2503422

>  <m>
=

>  <Value>
9000

>  <Unit>
nM

>  <Type>
IC50

>  <pValue>
5.05

>  <Ligand Efficiency>
0

>  <Binding Efficiency>
0

>  <Surface Efficiency>
0

>  <Assay Index>
1382452

>  <Assay Category>


>  <Assay Organism>
Homo sapiens

>  <Target ID>
17045

>  <Target Name>
Cytochrome P450 3A4

>  <Target Organism>
Homo sapiens

>  <Target Description>
Target is a single protein chain

>  <Sequence Accession>
P08684

>  <Reference>
J Med Chem 63 (20.0), 11639-11662 (2020)

>  <Pubmed ID>
32969660

>  <DOI>
10.1021/acs.jmedchem.0c00834

$$$$
2526558
Actelion Java MolfileCreator 1.0

 31 34  0  0  0  0  0  0  0  0999 V2000
    0.0000   -0.0000   -0.0000 Br  0  0  0  0  0  0  0  0  0  0  0  0
    1.2915   -0.7465   -0.0000 C   0  0  0  0  0  0  0  0  0  0  0  0
    2.5830    0.0237   -0.0000 C   0  0  0  0  0  0  0  0  0  0  0  0
    1.2678   -2.2394   -0.0000 C   0  0  0  0  0  0  0  0  0  0  0  0
    3.8745   -0.7228   -0.0000 C   0  0  0  0  0  0  0  0  0  0  0  0
    2.5593   -2.9740   -0.0000 C   0  0  0  0  0  0  0  0  0  0  0  0
    5.1660    0.0355   -0.0000 C   0  0  0  0  0  0  0  0  0  0  0  0
    3.8508   -2.2157   -0.0000 C   0  0  0  0  0  0  0  0  0  0  0  0
    6.4456   -0.7109   -0.0000 C   0  0  0  0  0  0  0  0  0  0  0  0
    5.1541    1.5522   -0.0000 C   0  0  0  0  0  0  0  0  0  0  0  0
    5.1423   -2.9621   -0.0000 C   0  0  0  0  0  0  0  0  0  0  0  0
    6.4219   -2.2038   -0.0000 C   0  0  0  0  0  0  0  0  0  0  0  0
    7.7371    0.0592   -0.0000 C   0  0  0  0  0  0  0  0  0  0  0  0
    6.4456    2.3105   -0.0000 O   0  0  0  0  0  0  0  0  0  0  0  0
    3.8389    2.3223   -0.0000 N   0  0  0  0  0  0  0  0  0  0  0  0
    7.7134   -2.9385   -0.0000 C   0  0  0  0  0  0  0  0  0  0  0  0
    3.8389    3.8389   -0.0000 C   0  0  0  0  0  0  0  0  0  0  0  0
    9.0049   -2.1801   -0.0000 C   0  0  0  0  0  0  0  0  0  0  0  0
    7.7016   -4.4314   -0.0000 C   0  0  0  0  0  0  0  0  0  0  0  0
    5.1304    4.6091   -0.0000 C   0  0  0  0  0  0  0  0  0  0  0  0
    2.5238    4.6091   -0.0000 C   0  0  0  0  0  0  0  0  0  0  0  0
   10.2964   -2.9148   -0.0000 C   0  0  0  0  0  0  0  0  0  0  0  0
    8.9812   -5.1778   -0.0000 C   0  0  0  0  0  0  0  0  0  0  0  0
    6.4101    3.8626   -0.0000 F   0  0  0  0  0  0  0  0  0  0  0  0
    5.1186    6.1257   -0.0000 C   0  0  0  0  0  0  0  0  0  0  0  0
    2.5238    6.1257   -0.0000 C   0  0  0  0  0  0  0  0  0  0  0  0
   10.2727   -4.4077   -0.0000 C   0  0  0  0  0  0  0  0  0  0  0  0
    3.8152    6.8840   -0.0000 C   0  0  0  0  0  0  0  0  0  0  0  0
    3.8034    8.4007   -0.0000 C   0  0  0  0  0  0  0  0  0  0  0  0
    5.0949    9.1708   -0.0000 O   0  0  0  0  0  0  0  0  0  0  0  0
    2.4882    9.1708   -0.0000 O   0  0  0  0  0  0  0  0  0  0  0  0
  1  2  1  0  0  0  0
  2  3  2  0  0  0  0
  2  4  1  0  0  0  0
  3  5  1  0  0  0  0
  4  6  2  0  0  0  0
  5  7  2  0  0  0  0
  5  8  1  0  0  0  0
  7  9  1  0  0  0  0
  7 10  1  0  0  0  0
  8 11  2  0  0  0  0
  9 12  2  0  0  0  0
  9 13  1  0  0  0  0
 10 14  2  0  0  0  0
 10 15  1  0  0  0  0
 12 16  1  0  0  0  0
 15 17  1  0  0  0  0
 16 18  2  0  0  0  0
 16 19  1  0  0  0  0
 17 20  2  0  0  0  0
 17 21  1  0  0  0  0
 18 22  1  0  0  0  0
 19 23  2  0  0  0  0
 20 24  1  0  0  0  0
 20 25  1  0  0  0  0
 21 26  2  0  0  0  0
 22 27  2  0  0  0  0
 25 28  2  0  0  0  0
 28 29  1  0  0  0  0
 29 30  2  0  0  0  0
 29 31  1  0  0  0  0
  6  8  1  0  0  0  0
 11 12  1  0  0  0  0
 23 27  1  0  0  0  0
 26 28  1  0  0  0  0
M  END
>  <MolRegNo>
2526558

>  <m>
=

>  <Value>
19000

>  <Unit>
nM

>  <Type>
IC50

>  <pValue>
4.72

>  <Ligand Efficiency>
0

>  <Binding Efficiency>
0

>  <Surface Efficiency>
0

>  <Assay Index>
1382452

>  <Assay Category>


>  <Assay Organism>
Homo sapiens

>  <Target ID>
17045

>  <Target Name>
Cytochrome P450 3A4

>  <Target Organism>
Homo sapiens

>  <Target Description>
Target is a single protein chain

>  <Sequence Accession>
P08684

>  <Reference>
J Med Chem 63 (20.0), 11639-11662 (2020)

>  <Pubmed ID>
32969660

>  <DOI>
10.1021/acs.jmedchem.0c00834

$$$$
2490393
Actelion Java MolfileCreator 1.0

 33 36  0  0  0  0  0  0  0  0999 V2000
    0.0000   -0.0000   -0.0000 Br  0  0  0  0  0  0  0  0  0  0  0  0
    1.2940   -0.7479   -0.0000 C   0  0  0  0  0  0  0  0  0  0  0  0
    2.5880    0.0237   -0.0000 C   0  0  0  0  0  0  0  0  0  0  0  0
    1.2821   -2.2437   -0.0000 C   0  0  0  0  0  0  0  0  0  0  0  0
    3.8820   -0.7242   -0.0000 C   0  0  0  0  0  0  0  0  0  0  0  0
    2.5761   -2.9798   -0.0000 C   0  0  0  0  0  0  0  0  0  0  0  0
    5.1760    0.0475   -0.0000 C   0  0  0  0  0  0  0  0  0  0  0  0
    3.8702   -2.2200   -0.0000 C   0  0  0  0  0  0  0  0  0  0  0  0
    6.4700   -0.7004   -0.0000 C   0  0  0  0  0  0  0  0  0  0  0  0
    5.1642    1.5671   -0.0000 C   0  0  0  0  0  0  0  0  0  0  0  0
    5.1642   -2.9560   -0.0000 N   0  0  0  0  0  0  0  0  0  0  0  0
    6.4582   -2.1963   -0.0000 C   0  0  0  0  0  0  0  0  0  0  0  0
    7.7641    0.0712   -0.0000 C   0  0  0  0  0  0  0  0  0  0  0  0
    3.8464    2.3268   -0.0000 O   0  0  0  0  0  0  0  0  0  0  0  0
    6.4582    2.3268   -0.0000 N   0  0  0  0  0  0  0  0  0  0  0  0
    7.7522   -2.9323   -0.0000 C   0  0  0  0  0  0  0  0  0  0  0  0
    6.4463    3.8464   -0.0000 C   0  0  0  0  0  0  0  0  0  0  0  0
    7.7403   -4.4281   -0.0000 C   0  0  0  0  0  0  0  0  0  0  0  0
    9.0462   -2.1725   -0.0000 C   0  0  0  0  0  0  0  0  0  0  0  0
    7.7403    4.6062   -0.0000 C   0  0  0  0  0  0  0  0  0  0  0  0
    9.0343   -5.1642   -0.0000 C   0  0  0  0  0  0  0  0  0  0  0  0
   10.3402   -2.9086   -0.0000 C   0  0  0  0  0  0  0  0  0  0  0  0
    9.0343    3.8702   -0.0000 C   0  0  0  0  0  0  0  0  0  0  0  0
    7.7284    6.1258   -0.0000 C   0  0  0  0  0  0  0  0  0  0  0  0
   10.3283   -4.4044   -0.0000 C   0  0  0  0  0  0  0  0  0  0  0  0
    9.0224    2.3743   -0.0000 C   0  0  0  0  0  0  0  0  0  0  0  0
   10.3283    4.6299   -0.0000 C   0  0  0  0  0  0  0  0  0  0  0  0
    9.0224    6.8856   -0.0000 O   0  0  0  0  0  0  0  0  0  0  0  0
    6.4107    6.8856   -0.0000 O   0  0  0  0  0  0  0  0  0  0  0  0
    7.7047    1.6383   -0.0000 Cl  0  0  0  0  0  0  0  0  0  0  0  0
   10.3165    1.6383   -0.0000 C   0  0  0  0  0  0  0  0  0  0  0  0
   11.6223    3.8939   -0.0000 C   0  0  0  0  0  0  0  0  0  0  0  0
   11.6105    2.3981   -0.0000 C   0  0  0  0  0  0  0  0  0  0  0  0
  1  2  1  0  0  0  0
  2  3  2  0  0  0  0
  2  4  1  0  0  0  0
  3  5  1  0  0  0  0
  4  6  2  0  0  0  0
  5  7  2  0  0  0  0
  5  8  1  0  0  0  0
  7  9  1  0  0  0  0
  7 10  1  0  0  0  0
  8 11  2  0  0  0  0
  9 12  2  0  0  0  0
  9 13  1  0  0  0  0
 10 14  2  0  0  0  0
 10 15  1  0  0  0  0
 12 16  1  0  0  0  0
 15 17  1  0  0  0  0
 16 18  2  0  0  0  0
 16 19  1  0  0  0  0
 17 20  1  0  0  0  0
 18 21  1  0  0  0  0
 19 22  2  0  0  0  0
 20 23  1  0  0  0  0
 20 24  1  0  0  0  0
 21 25  2  0  0  0  0
 23 26  2  0  0  0  0
 23 27  1  0  0  0  0
 24 28  2  0  0  0  0
 24 29  1  0  0  0  0
 26 30  1  0  0  0  0
 26 31  1  0  0  0  0
 27 32  2  0  0  0  0
 31 33  2  0  0  0  0
  6  8  1  0  0  0  0
 11 12  1  0  0  0  0
 22 25  1  0  0  0  0
 32 33  1  0  0  0  0
M  END
>  <MolRegNo>
2490393

>  <m>
=

>  <Value>
15000

>  <Unit>
nM

>  <Type>
IC50

>  <pValue>
4.82

>  <Ligand Efficiency>
0

>  <Binding Efficiency>
0

>  <Surface Efficiency>
0

>  <Assay Index>
1382452

>  <Assay Category>


>  <Assay Organism>
Homo sapiens

>  <Target ID>
17045

>  <Target Name>
Cytochrome P450 3A4

>  <Target Organism>
Homo sapiens

>  <Target Description>
Target is a single protein chain

>  <Sequence Accession>
P08684

>  <Reference>
J Med Chem 63 (20.0), 11639-11662 (2020)

>  <Pubmed ID>
32969660

>  <DOI>
10.1021/acs.jmedchem.0c00834

$$$$
2491910
Actelion Java MolfileCreator 1.0

 34 37  0  0  0  0  0  0  0  0999 V2000
    0.0000   -0.0000   -0.0000 Br  0  0  0  0  0  0  0  0  0  0  0  0
    1.2940   -0.7479   -0.0000 C   0  0  0  0  0  0  0  0  0  0  0  0
    2.5881    0.0237   -0.0000 C   0  0  0  0  0  0  0  0  0  0  0  0
    1.2822   -2.2438   -0.0000 C   0  0  0  0  0  0  0  0  0  0  0  0
    3.8821   -0.7242   -0.0000 C   0  0  0  0  0  0  0  0  0  0  0  0
    2.5762   -2.9798   -0.0000 C   0  0  0  0  0  0  0  0  0  0  0  0
    5.1761    0.0475   -0.0000 C   0  0  0  0  0  0  0  0  0  0  0  0
    3.8702   -2.2200   -0.0000 C   0  0  0  0  0  0  0  0  0  0  0  0
    6.4701   -0.7004   -0.0000 C   0  0  0  0  0  0  0  0  0  0  0  0
    5.1642    1.5671   -0.0000 C   0  0  0  0  0  0  0  0  0  0  0  0
    5.1642   -2.9561   -0.0000 N   0  0  0  0  0  0  0  0  0  0  0  0
    6.4583   -2.1963   -0.0000 C   0  0  0  0  0  0  0  0  0  0  0  0
    7.7642    0.0712   -0.0000 C   0  0  0  0  0  0  0  0  0  0  0  0
    3.8465    2.3269   -0.0000 O   0  0  0  0  0  0  0  0  0  0  0  0
    6.4583    2.3269   -0.0000 N   0  0  0  0  0  0  0  0  0  0  0  0
    7.7523   -2.9323   -0.0000 C   0  0  0  0  0  0  0  0  0  0  0  0
    6.4464    3.8465   -0.0000 C   0  0  0  0  0  0  0  0  0  0  0  0
    7.7404   -4.4282   -0.0000 C   0  0  0  0  0  0  0  0  0  0  0  0
    9.0463   -2.1725   -0.0000 C   0  0  0  0  0  0  0  0  0  0  0  0
    7.7404    4.6063   -0.0000 C   0  0  0  0  0  0  0  0  0  0  0  0
    9.0345   -5.1761   -0.0000 C   0  0  0  0  0  0  0  0  0  0  0  0
   10.3404   -2.9086   -0.0000 C   0  0  0  0  0  0  0  0  0  0  0  0
    9.0345    3.8702   -0.0000 C   0  0  0  0  0  0  0  0  0  0  0  0
    7.7286    6.1259   -0.0000 C   0  0  0  0  0  0  0  0  0  0  0  0
   10.3285   -4.4044   -0.0000 C   0  0  0  0  0  0  0  0  0  0  0  0
    9.0226    2.3744   -0.0000 C   0  0  0  0  0  0  0  0  0  0  0  0
   10.3285    4.6300   -0.0000 C   0  0  0  0  0  0  0  0  0  0  0  0
    9.0226    6.8857   -0.0000 C   0  0  0  0  0  0  0  0  0  0  0  0
    7.7048    1.6383   -0.0000 Cl  0  0  0  0  0  0  0  0  0  0  0  0
   10.3166    1.6383   -0.0000 C   0  0  0  0  0  0  0  0  0  0  0  0
   11.6225    3.8940   -0.0000 C   0  0  0  0  0  0  0  0  0  0  0  0
    9.0107    8.4053   -0.0000 O   0  0  0  0  0  0  0  0  0  0  0  0
   10.3166    6.1496   -0.0000 O   0  0  0  0  0  0  0  0  0  0  0  0
   11.6106    2.3981   -0.0000 C   0  0  0  0  0  0  0  0  0  0  0  0
  1  2  1  0  0  0  0
  2  3  2  0  0  0  0
  2  4  1  0  0  0  0
  3  5  1  0  0  0  0
  4  6  2  0  0  0  0
  5  7  2  0  0  0  0
  5  8  1  0  0  0  0
  7  9  1  0  0  0  0
  7 10  1  0  0  0  0
  8 11  2  0  0  0  0
  9 12  2  0  0  0  0
  9 13  1  0  0  0  0
 10 14  2  0  0  0  0
 10 15  1  0  0  0  0
 12 16  1  0  0  0  0
 15 17  1  0  0  0  0
 16 18  2  0  0  0  0
 16 19  1  0  0  0  0
 17 20  1  0  0  0  0
 18 21  1  0  0  0  0
 19 22  2  0  0  0  0
 20 23  1  0  0  0  0
 20 24  1  0  0  0  0
 21 25  2  0  0  0  0
 23 26  2  0  0  0  0
 23 27  1  0  0  0  0
 24 28  1  0  0  0  0
 26 29  1  0  0  0  0
 26 30  1  0  0  0  0
 27 31  2  0  0  0  0
 28 32  2  0  0  0  0
 28 33  1  0  0  0  0
 30 34  2  0  0  0  0
  6  8  1  0  0  0  0
 11 12  1  0  0  0  0
 22 25  1  0  0  0  0
 31 34  1  0  0  0  0
M  END
>  <MolRegNo>
2491910

>  <m>
=

>  <Value>
13000

>  <Unit>
nM

>  <Type>
IC50

>  <pValue>
4.89

>  <Ligand Efficiency>
0

>  <Binding Efficiency>
0

>  <Surface Efficiency>
0

>  <Assay Index>
1382452

>  <Assay Category>


>  <Assay Organism>
Homo sapiens

>  <Target ID>
17045

>  <Target Name>
Cytochrome P450 3A4

>  <Target Organism>
Homo sapiens

>  <Target Description>
Target is a single protein chain

>  <Sequence Accession>
P08684

>  <Reference>
J Med Chem 63 (20.0), 11639-11662 (2020)

>  <Pubmed ID>
32969660

>  <DOI>
10.1021/acs.jmedchem.0c00834

$$$$
2497104
Actelion Java MolfileCreator 1.0

 37 40  0  0  0  0  0  0  0  0999 V2000
    0.0000   -0.0000   -0.0000 Br  0  0  0  0  0  0  0  0  0  0  0  0
    1.2988   -0.7388   -0.0000 C   0  0  0  0  0  0  0  0  0  0  0  0
    2.5976    0.0238   -0.0000 C   0  0  0  0  0  0  0  0  0  0  0  0
    1.2869   -2.2282   -0.0000 C   0  0  0  0  0  0  0  0  0  0  0  0
    3.8845   -0.7149   -0.0000 C   0  0  0  0  0  0  0  0  0  0  0  0
    2.5857   -2.9670   -0.0000 C   0  0  0  0  0  0  0  0  0  0  0  0
    5.1833    0.0477   -0.0000 C   0  0  0  0  0  0  0  0  0  0  0  0
    3.8726   -2.2044   -0.0000 C   0  0  0  0  0  0  0  0  0  0  0  0
    6.4821   -0.6911   -0.0000 C   0  0  0  0  0  0  0  0  0  0  0  0
    5.1714    1.5609   -0.0000 C   0  0  0  0  0  0  0  0  0  0  0  0
    5.1714   -2.9432   -0.0000 N   0  0  0  0  0  0  0  0  0  0  0  0
    6.4702   -2.1806   -0.0000 C   0  0  0  0  0  0  0  0  0  0  0  0
    7.7690    0.0715   -0.0000 C   0  0  0  0  0  0  0  0  0  0  0  0
    3.8487    2.3235   -0.0000 O   0  0  0  0  0  0  0  0  0  0  0  0
    6.4702    2.3235   -0.0000 N   0  0  0  0  0  0  0  0  0  0  0  0
    7.7571   -2.9193   -0.0000 C   0  0  0  0  0  0  0  0  0  0  0  0
    6.4583    3.8487   -0.0000 C   0  0  0  0  0  0  0  0  0  0  0  0
    7.7452   -4.4088   -0.0000 C   0  0  0  0  0  0  0  0  0  0  0  0
    9.0559   -2.1567   -0.0000 C   0  0  0  0  0  0  0  0  0  0  0  0
    7.7452    4.6113   -0.0000 C   0  0  0  0  0  0  0  0  0  0  0  0
    9.0440   -5.1476   -0.0000 C   0  0  0  0  0  0  0  0  0  0  0  0
   10.3428   -2.8955   -0.0000 C   0  0  0  0  0  0  0  0  0  0  0  0
    9.0440    3.8726   -0.0000 C   0  0  0  0  0  0  0  0  0  0  0  0
    7.7332    6.1246   -0.0000 C   0  0  0  0  0  0  0  0  0  0  0  0
   10.3308   -4.3850   -0.0000 C   0  0  0  0  0  0  0  0  0  0  0  0
    9.0320    2.3712   -0.0000 C   0  0  0  0  0  0  0  0  0  0  0  0
   10.3308    4.6352   -0.0000 C   0  0  0  0  0  0  0  0  0  0  0  0
    9.0320    6.8872   -0.0000 C   0  0  0  0  0  0  0  0  0  0  0  0
    7.7094    1.6324   -0.0000 Cl  0  0  0  0  0  0  0  0  0  0  0  0
   10.3189    1.6324   -0.0000 C   0  0  0  0  0  0  0  0  0  0  0  0
   10.3189    6.1485   -0.0000 F   0  0  0  0  0  0  0  0  0  0  0  0
   11.6297    3.8964   -0.0000 C   0  0  0  0  0  0  0  0  0  0  0  0
    9.0201    8.4005   -0.0000 C   0  0  0  0  0  0  0  0  0  0  0  0
   10.3070    0.1430   -0.0000 F   0  0  0  0  0  0  0  0  0  0  0  0
   11.6177    2.3950   -0.0000 C   0  0  0  0  0  0  0  0  0  0  0  0
   10.3070    9.1631   -0.0000 O   0  0  0  0  0  0  0  0  0  0  0  0
    7.6975    9.1631   -0.0000 O   0  0  0  0  0  0  0  0  0  0  0  0
  1  2  1  0  0  0  0
  2  3  2  0  0  0  0
  2  4  1  0  0  0  0
  3  5  1  0  0  0  0
  4  6  2  0  0  0  0
  5  7  2  0  0  0  0
  5  8  1  0  0  0  0
  7  9  1  0  0  0  0
  7 10  1  0  0  0  0
  8 11  2  0  0  0  0
  9 12  2  0  0  0  0
  9 13  1  0  0  0  0
 10 14  2  0  0  0  0
 10 15  1  0  0  0  0
 12 16  1  0  0  0  0
 15 17  1  0  0  0  0
 16 18  2  0  0  0  0
 16 19  1  0  0  0  0
 17 20  1  0  0  0  0
 18 21  1  0  0  0  0
 19 22  2  0  0  0  0
 20 23  1  0  0  0  0
 20 24  1  0  0  0  0
 21 25  2  0  0  0  0
 23 26  2  0  0  0  0
 23 27  1  0  0  0  0
 24 28  1  0  0  0  0
 26 29  1  0  0  0  0
 26 30  1  0  0  0  0
 27 31  1  0  0  0  0
 27 32  2  0  0  0  0
 28 33  1  0  0  0  0
 30 34  1  0  0  0  0
 30 35  2  0  0  0  0
 33 36  2  0  0  0  0
 33 37  1  0  0  0  0
  6  8  1  0  0  0  0
 11 12  1  0  0  0  0
 22 25  1  0  0  0  0
 32 35  1  0  0  0  0
M  END
>  <MolRegNo>
2497104

>  <m>
=

>  <Value>
5000

>  <Unit>
nM

>  <Type>
IC50

>  <pValue>
5.3

>  <Ligand Efficiency>
0

>  <Binding Efficiency>
0

>  <Surface Efficiency>
0

>  <Assay Index>
1382452

>  <Assay Category>


>  <Assay Organism>
Homo sapiens

>  <Target ID>
17045

>  <Target Name>
Cytochrome P450 3A4

>  <Target Organism>
Homo sapiens

>  <Target Description>
Target is a single protein chain

>  <Sequence Accession>
P08684

>  <Reference>
J Med Chem 63 (20.0), 11639-11662 (2020)

>  <Pubmed ID>
32969660

>  <DOI>
10.1021/acs.jmedchem.0c00834

$$$$
2501758
Actelion Java MolfileCreator 1.0

 36 39  0  0  0  0  0  0  0  0999 V2000
    0.0000   -0.0000   -0.0000 Br  0  0  0  0  0  0  0  0  0  0  0  0
    1.2931   -0.7474   -0.0000 C   0  0  0  0  0  0  0  0  0  0  0  0
    2.5861    0.0237   -0.0000 C   0  0  0  0  0  0  0  0  0  0  0  0
    1.2812   -2.2421   -0.0000 C   0  0  0  0  0  0  0  0  0  0  0  0
    3.8792   -0.7236   -0.0000 C   0  0  0  0  0  0  0  0  0  0  0  0
    2.5742   -2.9776   -0.0000 C   0  0  0  0  0  0  0  0  0  0  0  0
    5.1722    0.0475   -0.0000 C   0  0  0  0  0  0  0  0  0  0  0  0
    3.8673   -2.2184   -0.0000 C   0  0  0  0  0  0  0  0  0  0  0  0
    6.4653   -0.6999   -0.0000 C   0  0  0  0  0  0  0  0  0  0  0  0
    5.1603    1.5659   -0.0000 C   0  0  0  0  0  0  0  0  0  0  0  0
    5.1603   -2.9539   -0.0000 N   0  0  0  0  0  0  0  0  0  0  0  0
    6.4534   -2.1946   -0.0000 C   0  0  0  0  0  0  0  0  0  0  0  0
    7.7583    0.0712   -0.0000 C   0  0  0  0  0  0  0  0  0  0  0  0
    3.8436    2.3251   -0.0000 O   0  0  0  0  0  0  0  0  0  0  0  0
    6.4534    2.3251   -0.0000 N   0  0  0  0  0  0  0  0  0  0  0  0
    7.7465   -2.9301   -0.0000 C   0  0  0  0  0  0  0  0  0  0  0  0
    6.4415    3.8436   -0.0000 C   0  0  0  0  0  0  0  0  0  0  0  0
    7.7346   -4.4249   -0.0000 C   0  0  0  0  0  0  0  0  0  0  0  0
    9.0395   -2.1709   -0.0000 C   0  0  0  0  0  0  0  0  0  0  0  0
    7.7346    4.6147   -0.0000 C   0  0  0  0  0  0  0  0  0  0  0  0
    9.0276   -5.1722   -0.0000 C   0  0  0  0  0  0  0  0  0  0  0  0
   10.3326   -2.9064   -0.0000 C   0  0  0  0  0  0  0  0  0  0  0  0
    9.0276    3.8673   -0.0000 C   0  0  0  0  0  0  0  0  0  0  0  0
    7.7227    6.1331   -0.0000 C   0  0  0  0  0  0  0  0  0  0  0  0
   10.3207   -4.4011   -0.0000 C   0  0  0  0  0  0  0  0  0  0  0  0
    9.0158    2.3726   -0.0000 C   0  0  0  0  0  0  0  0  0  0  0  0
   10.3207    4.6384   -0.0000 C   0  0  0  0  0  0  0  0  0  0  0  0
    9.0158    6.8923   -0.0000 C   0  0  0  0  0  0  0  0  0  0  0  0
    7.6990    1.6371   -0.0000 Cl  0  0  0  0  0  0  0  0  0  0  0  0
   10.3088    1.6371   -0.0000 C   0  0  0  0  0  0  0  0  0  0  0  0
   11.6138    3.8910   -0.0000 C   0  0  0  0  0  0  0  0  0  0  0  0
    9.0039    8.4108   -0.0000 C   0  0  0  0  0  0  0  0  0  0  0  0
   11.6019    2.3963   -0.0000 C   0  0  0  0  0  0  0  0  0  0  0  0
   10.2970    9.1700   -0.0000 C   0  0  0  0  0  0  0  0  0  0  0  0
   10.2851   10.6884   -0.0000 O   0  0  0  0  0  0  0  0  0  0  0  0
   11.5900    8.4345   -0.0000 O   0  0  0  0  0  0  0  0  0  0  0  0
  1  2  1  0  0  0  0
  2  3  2  0  0  0  0
  2  4  1  0  0  0  0
  3  5  1  0  0  0  0
  4  6  2  0  0  0  0
  5  7  2  0  0  0  0
  5  8  1  0  0  0  0
  7  9  1  0  0  0  0
  7 10  1  0  0  0  0
  8 11  2  0  0  0  0
  9 12  2  0  0  0  0
  9 13  1  0  0  0  0
 10 14  2  0  0  0  0
 10 15  1  0  0  0  0
 12 16  1  0  0  0  0
 15 17  1  0  0  0  0
 16 18  2  0  0  0  0
 16 19  1  0  0  0  0
 17 20  1  0  0  0  0
 18 21  1  0  0  0  0
 19 22  2  0  0  0  0
 20 23  1  0  0  0  0
 20 24  1  0  0  0  0
 21 25  2  0  0  0  0
 23 26  2  0  0  0  0
 23 27  1  0  0  0  0
 24 28  1  0  0  0  0
 26 29  1  0  0  0  0
 26 30  1  0  0  0  0
 27 31  2  0  0  0  0
 28 32  1  0  0  0  0
 30 33  2  0  0  0  0
 32 34  1  0  0  0  0
 34 35  2  0  0  0  0
 34 36  1  0  0  0  0
  6  8  1  0  0  0  0
 11 12  1  0  0  0  0
 22 25  1  0  0  0  0
 31 33  1  0  0  0  0
M  END
>  <MolRegNo>
2501758

>  <m>
=

>  <Value>
20000

>  <Unit>
nM

>  <Type>
IC50

>  <pValue>
4.7

>  <Ligand Efficiency>
0

>  <Binding Efficiency>
0

>  <Surface Efficiency>
0

>  <Assay Index>
1382452

>  <Assay Category>


>  <Assay Organism>
Homo sapiens

>  <Target ID>
17045

>  <Target Name>
Cytochrome P450 3A4

>  <Target Organism>
Homo sapiens

>  <Target Description>
Target is a single protein chain

>  <Sequence Accession>
P08684

>  <Reference>
J Med Chem 63 (20.0), 11639-11662 (2020)

>  <Pubmed ID>
32969660

>  <DOI>
10.1021/acs.jmedchem.0c00834

$$$$
2516285
Actelion Java MolfileCreator 1.0

 35 38  0  0  0  0  0  0  0  0999 V2000
    0.0000   -0.0000   -0.0000 Br  0  0  0  0  0  0  0  0  0  0  0  0
    1.2982   -0.7384   -0.0000 C   0  0  0  0  0  0  0  0  0  0  0  0
    2.5963    0.0238   -0.0000 C   0  0  0  0  0  0  0  0  0  0  0  0
    1.2863   -2.2271   -0.0000 C   0  0  0  0  0  0  0  0  0  0  0  0
    3.8826   -0.7146   -0.0000 C   0  0  0  0  0  0  0  0  0  0  0  0
    2.5844   -2.9655   -0.0000 C   0  0  0  0  0  0  0  0  0  0  0  0
    5.1807    0.0476   -0.0000 C   0  0  0  0  0  0  0  0  0  0  0  0
    3.8707   -2.2033   -0.0000 C   0  0  0  0  0  0  0  0  0  0  0  0
    6.4789   -0.6908   -0.0000 C   0  0  0  0  0  0  0  0  0  0  0  0
    5.1688    1.5602   -0.0000 C   0  0  0  0  0  0  0  0  0  0  0  0
    5.1688   -2.9417   -0.0000 N   0  0  0  0  0  0  0  0  0  0  0  0
    6.4670   -2.1795   -0.0000 C   0  0  0  0  0  0  0  0  0  0  0  0
    7.7652    0.0715   -0.0000 C   0  0  0  0  0  0  0  0  0  0  0  0
    3.8469    2.3224   -0.0000 O   0  0  0  0  0  0  0  0  0  0  0  0
    6.4670    2.3224   -0.0000 N   0  0  0  0  0  0  0  0  0  0  0  0
    7.7533   -2.9179   -0.0000 N   0  0  0  0  0  0  0  0  0  0  0  0
    6.4551    3.8469   -0.0000 C   0  0  0  0  0  0  0  0  0  0  0  0
    7.7413   -4.4066   -0.0000 C   0  0  0  0  0  0  0  0  0  0  0  0
    9.0514   -2.1557   -0.0000 C   0  0  0  0  0  0  0  0  0  0  0  0
    7.7413    4.6091   -0.0000 C   0  0  0  0  0  0  0  0  0  0  0  0
    9.0395   -5.1450   -0.0000 C   0  0  0  0  0  0  0  0  0  0  0  0
   10.3496   -2.8941   -0.0000 C   0  0  0  0  0  0  0  0  0  0  0  0
    9.0395    3.8707   -0.0000 C   0  0  0  0  0  0  0  0  0  0  0  0
    7.7294    6.1216   -0.0000 C   0  0  0  0  0  0  0  0  0  0  0  0
   10.3377   -4.3828   -0.0000 C   0  0  0  0  0  0  0  0  0  0  0  0
    9.0276    2.3700   -0.0000 C   0  0  0  0  0  0  0  0  0  0  0  0
   10.3377    4.6329   -0.0000 C   0  0  0  0  0  0  0  0  0  0  0  0
    9.0276    6.8838   -0.0000 C   0  0  0  0  0  0  0  0  0  0  0  0
    7.7056    1.6316   -0.0000 Cl  0  0  0  0  0  0  0  0  0  0  0  0
   10.3258    1.6316   -0.0000 C   0  0  0  0  0  0  0  0  0  0  0  0
   11.6239    3.8945   -0.0000 C   0  0  0  0  0  0  0  0  0  0  0  0
    9.0157    8.3964   -0.0000 C   0  0  0  0  0  0  0  0  0  0  0  0
   11.6120    2.3939   -0.0000 C   0  0  0  0  0  0  0  0  0  0  0  0
   10.3139    9.1586   -0.0000 O   0  0  0  0  0  0  0  0  0  0  0  0
    7.6937    9.1586   -0.0000 O   0  0  0  0  0  0  0  0  0  0  0  0
  1  2  1  0  0  0  0
  2  3  2  0  0  0  0
  2  4  1  0  0  0  0
  3  5  1  0  0  0  0
  4  6  2  0  0  0  0
  5  7  2  0  0  0  0
  5  8  1  0  0  0  0
  7  9  1  0  0  0  0
  7 10  1  0  0  0  0
  8 11  2  0  0  0  0
  9 12  2  0  0  0  0
  9 13  1  0  0  0  0
 10 14  2  0  0  0  0
 10 15  1  0  0  0  0
 12 16  1  0  0  0  0
 15 17  1  0  0  0  0
 16 18  1  0  0  0  0
 16 19  1  0  0  0  0
 17 20  1  0  0  0  0
 18 21  1  0  0  0  0
 19 22  1  0  0  0  0
 20 23  1  0  0  0  0
 20 24  1  0  0  0  0
 21 25  1  0  0  0  0
 23 26  2  0  0  0  0
 23 27  1  0  0  0  0
 24 28  1  0  0  0  0
 26 29  1  0  0  0  0
 26 30  1  0  0  0  0
 27 31  2  0  0  0  0
 28 32  1  0  0  0  0
 30 33  2  0  0  0  0
 32 34  2  0  0  0  0
 32 35  1  0  0  0  0
  6  8  1  0  0  0  0
 11 12  1  0  0  0  0
 22 25  1  0  0  0  0
 31 33  1  0  0  0  0
M  END
>  <MolRegNo>
2516285

>  <m>
=

>  <Value>
15000

>  <Unit>
nM

>  <Type>
IC50

>  <pValue>
4.82

>  <Ligand Efficiency>
0

>  <Binding Efficiency>
0

>  <Surface Efficiency>
0

>  <Assay Index>
1382452

>  <Assay Category>


>  <Assay Organism>
Homo sapiens

>  <Target ID>
17045

>  <Target Name>
Cytochrome P450 3A4

>  <Target Organism>
Homo sapiens

>  <Target Description>
Target is a single protein chain

>  <Sequence Accession>
P08684

>  <Reference>
J Med Chem 63 (20.0), 11639-11662 (2020)

>  <Pubmed ID>
32969660

>  <DOI>
10.1021/acs.jmedchem.0c00834

$$$$
2497159
Actelion Java MolfileCreator 1.0

 37 40  0  0  0  0  0  0  0  0999 V2000
    0.0000   -0.0000   -0.0000 Br  0  0  0  0  0  0  0  0  0  0  0  0
    1.2988   -0.7388   -0.0000 C   0  0  0  0  0  0  0  0  0  0  0  0
    2.5976    0.0238   -0.0000 C   0  0  0  0  0  0  0  0  0  0  0  0
    1.2869   -2.2282   -0.0000 C   0  0  0  0  0  0  0  0  0  0  0  0
    3.8845   -0.7149   -0.0000 C   0  0  0  0  0  0  0  0  0  0  0  0
    2.5857   -2.9670   -0.0000 C   0  0  0  0  0  0  0  0  0  0  0  0
    5.1833    0.0477   -0.0000 C   0  0  0  0  0  0  0  0  0  0  0  0
    3.8726   -2.2044   -0.0000 C   0  0  0  0  0  0  0  0  0  0  0  0
    6.4821   -0.6911   -0.0000 C   0  0  0  0  0  0  0  0  0  0  0  0
    5.1714    1.5609   -0.0000 C   0  0  0  0  0  0  0  0  0  0  0  0
    5.1714   -2.9432   -0.0000 N   0  0  0  0  0  0  0  0  0  0  0  0
    6.4702   -2.1806   -0.0000 C   0  0  0  0  0  0  0  0  0  0  0  0
    7.7690    0.0715   -0.0000 C   0  0  0  0  0  0  0  0  0  0  0  0
    3.8487    2.3235   -0.0000 O   0  0  0  0  0  0  0  0  0  0  0  0
    6.4702    2.3235   -0.0000 N   0  0  0  0  0  0  0  0  0  0  0  0
    7.7571   -2.9193   -0.0000 N   0  0  0  0  0  0  0  0  0  0  0  0
    6.4583    3.8487   -0.0000 C   0  0  0  0  0  0  0  0  0  0  0  0
    7.7452   -4.4088   -0.0000 C   0  0  0  0  0  0  0  0  0  0  0  0
    9.0559   -2.1567   -0.0000 C   0  0  0  0  0  0  0  0  0  0  0  0
    7.7452    4.6113   -0.0000 C   0  0  0  0  0  0  0  0  0  0  0  0
    9.0440   -5.1476   -0.0000 C   0  0  0  0  0  0  0  0  0  0  0  0
   10.3428   -2.8955   -0.0000 C   0  0  0  0  0  0  0  0  0  0  0  0
    9.0440    3.8726   -0.0000 C   0  0  0  0  0  0  0  0  0  0  0  0
    7.7332    6.1246   -0.0000 C   0  0  0  0  0  0  0  0  0  0  0  0
   10.3308   -4.3850   -0.0000 C   0  0  0  0  0  0  0  0  0  0  0  0
    9.0320    2.3712   -0.0000 C   0  0  0  0  0  0  0  0  0  0  0  0
   10.3308    4.6352   -0.0000 C   0  0  0  0  0  0  0  0  0  0  0  0
    9.0320    6.8872   -0.0000 C   0  0  0  0  0  0  0  0  0  0  0  0
    7.7094    1.6324   -0.0000 Cl  0  0  0  0  0  0  0  0  0  0  0  0
   10.3189    1.6324   -0.0000 C   0  0  0  0  0  0  0  0  0  0  0  0
   10.3189    6.1485   -0.0000 F   0  0  0  0  0  0  0  0  0  0  0  0
   11.6297    3.8964   -0.0000 C   0  0  0  0  0  0  0  0  0  0  0  0
    9.0201    8.4005   -0.0000 C   0  0  0  0  0  0  0  0  0  0  0  0
   10.3070    0.1430   -0.0000 F   0  0  0  0  0  0  0  0  0  0  0  0
   11.6177    2.3950   -0.0000 C   0  0  0  0  0  0  0  0  0  0  0  0
   10.3070    9.1631   -0.0000 O   0  0  0  0  0  0  0  0  0  0  0  0
    7.6975    9.1631   -0.0000 O   0  0  0  0  0  0  0  0  0  0  0  0
  1  2  1  0  0  0  0
  2  3  2  0  0  0  0
  2  4  1  0  0  0  0
  3  5  1  0  0  0  0
  4  6  2  0  0  0  0
  5  7  2  0  0  0  0
  5  8  1  0  0  0  0
  7  9  1  0  0  0  0
  7 10  1  0  0  0  0
  8 11  2  0  0  0  0
  9 12  2  0  0  0  0
  9 13  1  0  0  0  0
 10 14  2  0  0  0  0
 10 15  1  0  0  0  0
 12 16  1  0  0  0  0
 15 17  1  0  0  0  0
 16 18  1  0  0  0  0
 16 19  1  0  0  0  0
 17 20  1  0  0  0  0
 18 21  1  0  0  0  0
 19 22  1  0  0  0  0
 20 23  1  0  0  0  0
 20 24  1  0  0  0  0
 21 25  1  0  0  0  0
 23 26  2  0  0  0  0
 23 27  1  0  0  0  0
 24 28  1  0  0  0  0
 26 29  1  0  0  0  0
 26 30  1  0  0  0  0
 27 31  1  0  0  0  0
 27 32  2  0  0  0  0
 28 33  1  0  0  0  0
 30 34  1  0  0  0  0
 30 35  2  0  0  0  0
 33 36  2  0  0  0  0
 33 37  1  0  0  0  0
  6  8  1  0  0  0  0
 11 12  1  0  0  0  0
 22 25  1  0  0  0  0
 32 35  1  0  0  0  0
M  END
>  <MolRegNo>
2497159

>  <m>
=

>  <Value>
12000

>  <Unit>
nM

>  <Type>
IC50

>  <pValue>
4.92

>  <Ligand Efficiency>
0

>  <Binding Efficiency>
0

>  <Surface Efficiency>
0

>  <Assay Index>
1382452

>  <Assay Category>


>  <Assay Organism>
Homo sapiens

>  <Target ID>
17045

>  <Target Name>
Cytochrome P450 3A4

>  <Target Organism>
Homo sapiens

>  <Target Description>
Target is a single protein chain

>  <Sequence Accession>
P08684

>  <Reference>
J Med Chem 63 (20.0), 11639-11662 (2020)

>  <Pubmed ID>
32969660

>  <DOI>
10.1021/acs.jmedchem.0c00834

$$$$
2499574
Actelion Java MolfileCreator 1.0

 37 40  0  0  0  0  0  0  0  0999 V2000
    0.0000   -0.0000   -0.0000 Br  0  0  0  0  0  0  0  0  0  0  0  0
    1.2926   -0.7471   -0.0000 C   0  0  0  0  0  0  0  0  0  0  0  0
    2.5852    0.0237   -0.0000 C   0  0  0  0  0  0  0  0  0  0  0  0
    1.2808   -2.2413   -0.0000 C   0  0  0  0  0  0  0  0  0  0  0  0
    3.8779   -0.7234   -0.0000 C   0  0  0  0  0  0  0  0  0  0  0  0
    2.5734   -2.9884   -0.0000 C   0  0  0  0  0  0  0  0  0  0  0  0
    5.1705    0.0474   -0.0000 C   0  0  0  0  0  0  0  0  0  0  0  0
    3.8660   -2.2176   -0.0000 C   0  0  0  0  0  0  0  0  0  0  0  0
    6.4631   -0.6997   -0.0000 C   0  0  0  0  0  0  0  0  0  0  0  0
    5.1586    1.5654   -0.0000 C   0  0  0  0  0  0  0  0  0  0  0  0
    5.1586   -2.9647   -0.0000 N   0  0  0  0  0  0  0  0  0  0  0  0
    6.4513   -2.1939   -0.0000 C   0  0  0  0  0  0  0  0  0  0  0  0
    7.7557    0.0712   -0.0000 C   0  0  0  0  0  0  0  0  0  0  0  0
    3.8423    2.3243   -0.0000 O   0  0  0  0  0  0  0  0  0  0  0  0
    6.4513    2.3243   -0.0000 N   0  0  0  0  0  0  0  0  0  0  0  0
    7.7439   -2.9410   -0.0000 N   0  0  0  0  0  0  0  0  0  0  0  0
    6.4394    3.8423   -0.0000 C   0  0  0  0  0  0  0  0  0  0  0  0
    7.7320   -4.4352   -0.0000 C   0  0  0  0  0  0  0  0  0  0  0  0
    9.0365   -2.1702   -0.0000 C   0  0  0  0  0  0  0  0  0  0  0  0
    7.7320    4.6013   -0.0000 C   0  0  0  0  0  0  0  0  0  0  0  0
    9.0246   -5.1823   -0.0000 C   0  0  0  0  0  0  0  0  0  0  0  0
   10.3291   -2.9173   -0.0000 C   0  0  0  0  0  0  0  0  0  0  0  0
    9.0246    3.8660   -0.0000 C   0  0  0  0  0  0  0  0  0  0  0  0
    7.7202    6.1192   -0.0000 C   0  0  0  0  0  0  0  0  0  0  0  0
   10.3173   -4.4115   -0.0000 C   0  0  0  0  0  0  0  0  0  0  0  0
    9.0128   -6.6766   -0.0000 C   0  0  0  0  0  0  0  0  0  0  0  0
    9.0128    2.3718   -0.0000 C   0  0  0  0  0  0  0  0  0  0  0  0
   10.3173    4.6250   -0.0000 C   0  0  0  0  0  0  0  0  0  0  0  0
    9.0128    6.8782   -0.0000 C   0  0  0  0  0  0  0  0  0  0  0  0
   10.3054   -7.4237   -0.0000 C   0  0  0  0  0  0  0  0  0  0  0  0
    7.6964    1.6365   -0.0000 Cl  0  0  0  0  0  0  0  0  0  0  0  0
   10.3054    1.6365   -0.0000 C   0  0  0  0  0  0  0  0  0  0  0  0
   11.6099    3.8897   -0.0000 C   0  0  0  0  0  0  0  0  0  0  0  0
    9.0009    8.3961   -0.0000 C   0  0  0  0  0  0  0  0  0  0  0  0
   11.5980    2.3955   -0.0000 C   0  0  0  0  0  0  0  0  0  0  0  0
   10.2935    9.1551   -0.0000 O   0  0  0  0  0  0  0  0  0  0  0  0
    7.6846    9.1551   -0.0000 O   0  0  0  0  0  0  0  0  0  0  0  0
  1  2  1  0  0  0  0
  2  3  2  0  0  0  0
  2  4  1  0  0  0  0
  3  5  1  0  0  0  0
  4  6  2  0  0  0  0
  5  7  2  0  0  0  0
  5  8  1  0  0  0  0
  7  9  1  0  0  0  0
  7 10  1  0  0  0  0
  8 11  2  0  0  0  0
  9 12  2  0  0  0  0
  9 13  1  0  0  0  0
 10 14  2  0  0  0  0
 10 15  1  0  0  0  0
 12 16  1  0  0  0  0
 15 17  1  0  0  0  0
 16 18  1  0  0  0  0
 16 19  1  0  0  0  0
 17 20  1  0  0  0  0
 18 21  1  0  0  0  0
 19 22  1  0  0  0  0
 20 23  1  0  0  0  0
 20 24  1  0  0  0  0
 21 25  1  0  0  0  0
 21 26  1  0  0  0  0
 23 27  2  0  0  0  0
 23 28  1  0  0  0  0
 24 29  1  0  0  0  0
 26 30  1  0  0  0  0
 27 31  1  0  0  0  0
 27 32  1  0  0  0  0
 28 33  2  0  0  0  0
 29 34  1  0  0  0  0
 32 35  2  0  0  0  0
 34 36  2  0  0  0  0
 34 37  1  0  0  0  0
  6  8  1  0  0  0  0
 11 12  1  0  0  0  0
 22 25  1  0  0  0  0
 33 35  1  0  0  0  0
M  END
>  <MolRegNo>
2499574

>  <m>
=

>  <Value>
5000

>  <Unit>
nM

>  <Type>
IC50

>  <pValue>
5.3

>  <Ligand Efficiency>
0

>  <Binding Efficiency>
0

>  <Surface Efficiency>
0

>  <Assay Index>
1382452

>  <Assay Category>


>  <Assay Organism>
Homo sapiens

>  <Target ID>
17045

>  <Target Name>
Cytochrome P450 3A4

>  <Target Organism>
Homo sapiens

>  <Target Description>
Target is a single protein chain

>  <Sequence Accession>
P08684

>  <Reference>
J Med Chem 63 (20.0), 11639-11662 (2020)

>  <Pubmed ID>
32969660

>  <DOI>
10.1021/acs.jmedchem.0c00834

$$$$
2521455
Actelion Java MolfileCreator 1.0

 36 39  0  0  0  0  0  0  0  0999 V2000
    0.0000   -0.0000   -0.0000 Br  0  0  0  0  0  0  0  0  0  0  0  0
    1.2962   -0.7373   -0.0000 C   0  0  0  0  0  0  0  0  0  0  0  0
    2.5923    0.0238   -0.0000 C   0  0  0  0  0  0  0  0  0  0  0  0
    1.2843   -2.2356   -0.0000 C   0  0  0  0  0  0  0  0  0  0  0  0
    3.8766   -0.7135   -0.0000 C   0  0  0  0  0  0  0  0  0  0  0  0
    2.5804   -2.9729   -0.0000 C   0  0  0  0  0  0  0  0  0  0  0  0
    5.1728    0.0476   -0.0000 C   0  0  0  0  0  0  0  0  0  0  0  0
    3.8647   -2.2118   -0.0000 C   0  0  0  0  0  0  0  0  0  0  0  0
    6.4689   -0.6897   -0.0000 C   0  0  0  0  0  0  0  0  0  0  0  0
    5.1609    1.5697   -0.0000 C   0  0  0  0  0  0  0  0  0  0  0  0
    5.1609   -2.9491   -0.0000 N   0  0  0  0  0  0  0  0  0  0  0  0
    6.4570   -2.1880   -0.0000 C   0  0  0  0  0  0  0  0  0  0  0  0
    7.7532    0.0713   -0.0000 C   0  0  0  0  0  0  0  0  0  0  0  0
    3.8409    2.3307   -0.0000 O   0  0  0  0  0  0  0  0  0  0  0  0
    6.4570    2.3307   -0.0000 N   0  0  0  0  0  0  0  0  0  0  0  0
    7.7413   -2.9253   -0.0000 N   0  0  0  0  0  0  0  0  0  0  0  0
    6.4452    3.8528   -0.0000 C   0  0  0  0  0  0  0  0  0  0  0  0
    7.6343   -4.3998   -0.0000 C   0  0  0  0  0  0  0  0  0  0  0  0
    8.9780   -2.0691   -0.0000 C   0  0  0  0  0  0  0  0  0  0  0  0
    7.7294    4.6139   -0.0000 C   0  0  0  0  0  0  0  0  0  0  0  0
    8.6926   -5.4582   -0.0000 C   0  0  0  0  0  0  0  0  0  0  0  0
   10.4050   -2.4972   -0.0000 C   0  0  0  0  0  0  0  0  0  0  0  0
    9.0256    3.8766   -0.0000 C   0  0  0  0  0  0  0  0  0  0  0  0
    7.7175    6.1360   -0.0000 C   0  0  0  0  0  0  0  0  0  0  0  0
   10.1910   -5.1966   -0.0000 C   0  0  0  0  0  0  0  0  0  0  0  0
   10.9401   -3.8885   -0.0000 C   0  0  0  0  0  0  0  0  0  0  0  0
    9.0137    2.3783   -0.0000 C   0  0  0  0  0  0  0  0  0  0  0  0
   10.3099    4.6377   -0.0000 C   0  0  0  0  0  0  0  0  0  0  0  0
    9.0137    6.8970   -0.0000 C   0  0  0  0  0  0  0  0  0  0  0  0
    7.6938    1.6410   -0.0000 Cl  0  0  0  0  0  0  0  0  0  0  0  0
   10.2980    1.6410   -0.0000 C   0  0  0  0  0  0  0  0  0  0  0  0
   11.6060    3.9004   -0.0000 C   0  0  0  0  0  0  0  0  0  0  0  0
    9.0018    8.4191   -0.0000 C   0  0  0  0  0  0  0  0  0  0  0  0
   11.5941    2.4021   -0.0000 C   0  0  0  0  0  0  0  0  0  0  0  0
   10.2861    9.1802   -0.0000 O   0  0  0  0  0  0  0  0  0  0  0  0
    7.6819    9.1802   -0.0000 O   0  0  0  0  0  0  0  0  0  0  0  0
  1  2  1  0  0  0  0
  2  3  2  0  0  0  0
  2  4  1  0  0  0  0
  3  5  1  0  0  0  0
  4  6  2  0  0  0  0
  5  7  2  0  0  0  0
  5  8  1  0  0  0  0
  7  9  1  0  0  0  0
  7 10  1  0  0  0  0
  8 11  2  0  0  0  0
  9 12  2  0  0  0  0
  9 13  1  0  0  0  0
 10 14  2  0  0  0  0
 10 15  1  0  0  0  0
 12 16  1  0  0  0  0
 15 17  1  0  0  0  0
 16 18  1  0  0  0  0
 16 19  1  0  0  0  0
 17 20  1  0  0  0  0
 18 21  1  0  0  0  0
 19 22  1  0  0  0  0
 20 23  1  0  0  0  0
 20 24  1  0  0  0  0
 21 25  1  0  0  0  0
 22 26  1  0  0  0  0
 23 27  2  0  0  0  0
 23 28  1  0  0  0  0
 24 29  1  0  0  0  0
 27 30  1  0  0  0  0
 27 31  1  0  0  0  0
 28 32  2  0  0  0  0
 29 33  1  0  0  0  0
 31 34  2  0  0  0  0
 33 35  2  0  0  0  0
 33 36  1  0  0  0  0
  6  8  1  0  0  0  0
 11 12  1  0  0  0  0
 25 26  1  0  0  0  0
 32 34  1  0  0  0  0
M  END
>  <MolRegNo>
2521455

>  <m>
=

>  <Value>
9000

>  <Unit>
nM

>  <Type>
IC50

>  <pValue>
5.05

>  <Ligand Efficiency>
0

>  <Binding Efficiency>
0

>  <Surface Efficiency>
0

>  <Assay Index>
1382452

>  <Assay Category>


>  <Assay Organism>
Homo sapiens

>  <Target ID>
17045

>  <Target Name>
Cytochrome P450 3A4

>  <Target Organism>
Homo sapiens

>  <Target Description>
Target is a single protein chain

>  <Sequence Accession>
P08684

>  <Reference>
J Med Chem 63 (20.0), 11639-11662 (2020)

>  <Pubmed ID>
32969660

>  <DOI>
10.1021/acs.jmedchem.0c00834

$$$$
2138347
Actelion Java MolfileCreator 1.0

 41 46  0  0  0  0  0  0  0  0999 V2000
    0.0000   -0.0000   -0.0000 Cl  0  0  0  0  0  0  0  0  0  0  0  0
   -0.0123   -1.2457   -0.0000 C   0  0  0  0  0  0  0  0  0  0  0  0
   -1.3814   -2.0104   -0.0000 C   0  0  0  0  0  0  0  0  0  0  0  0
    1.3320   -2.0227   -0.0000 C   0  0  0  0  0  0  0  0  0  0  0  0
   -1.3937   -3.5644   -0.0000 N   0  0  0  0  0  0  0  0  0  0  0  0
   -2.7504   -1.2087   -0.0000 C   0  0  0  0  0  0  0  0  0  0  0  0
    1.3197   -3.5767   -0.0000 C   0  0  0  0  0  0  0  0  0  0  0  0
   -2.7627   -4.3291   -0.0000 C   0  0  0  0  0  0  0  0  0  0  0  0
   -0.0493   -4.3414   -0.0000 C   0  0  0  0  0  0  0  0  0  0  0  0
   -4.1194   -1.9734   -0.0000 C   0  0  0  0  0  0  0  0  0  0  0  0
   -2.7750   -5.5748   -0.0000 O   0  0  0  0  0  0  0  0  0  0  0  0
   -4.1317   -3.5274   -0.0000 N   0  0  0  0  0  0  0  0  0  0  0  0
   -5.2171   -1.3320   -0.0000 O   0  0  0  0  0  0  0  0  0  0  0  0
   -5.5008   -4.2921   -0.0000 C   0  0  0  0  0  0  0  0  0  0  0  0
   -6.8698   -3.4904   -0.0000 C   0  0  0  0  0  0  0  0  0  0  0  0
   -5.5131   -5.8461   -0.0000 C   0  0  0  0  0  0  0  0  0  0  0  0
   -8.2388   -4.2551   -0.0000 C   0  0  0  0  0  0  0  0  0  0  0  0
   -6.8821   -2.2200   -0.0000 C   0  0  0  0  0  0  0  0  0  0  0  0
   -6.8821   -6.6108   -0.0000 C   0  0  0  0  0  0  0  0  0  0  0  0
   -9.6078   -3.4534   -0.0000 C   0  0  0  0  0  0  0  0  0  0  0  0
   -8.2511   -5.8091   -0.0000 C   0  0  0  0  0  0  0  0  0  0  0  0
   -9.6202   -1.8747   -0.0000 C   0  0  0  0  0  0  0  0  0  0  0  0
  -10.9769   -4.2181   -0.0000 C   0  0  0  0  0  0  0  0  0  0  0  0
   -8.5471   -1.2334   -0.0000 Cl  0  0  0  0  0  0  0  0  0  0  0  0
  -10.9892   -1.0854   -0.0000 C   0  0  0  0  0  0  0  0  0  0  0  0
  -12.3459   -3.4287   -0.0000 C   0  0  0  0  0  0  0  0  0  0  0  0
  -11.3099   -5.7351   -0.0000 C   0  0  0  0  0  0  0  0  0  0  0  0
  -12.3582   -1.8500   -0.0000 C   0  0  0  0  0  0  0  0  0  0  0  0
  -13.5176   -4.4647   -0.0000 N   0  0  0  0  0  0  0  0  0  0  0  0
  -12.8762   -5.8831   -0.0000 C   0  0  0  0  0  0  0  0  0  0  0  0
  -10.3972   -6.9931   -0.0000 C   0  0  0  0  0  0  0  0  0  0  0  0
  -13.7272   -1.0484   -0.0000 C   0  0  0  0  0  0  0  0  0  0  0  0
  -13.5299   -7.3015   -0.0000 C   0  0  0  0  0  0  0  0  0  0  0  0
  -11.0509   -8.4115   -0.0000 C   0  0  0  0  0  0  0  0  0  0  0  0
  -13.7396    0.2220   -0.0000 O   0  0  0  0  0  0  0  0  0  0  0  0
  -14.8249   -1.6650   -0.0000 N   0  0  0  0  0  0  0  0  0  0  0  0
  -12.6172   -8.5595   -0.0000 C   0  0  0  0  0  0  0  0  0  0  0  0
  -13.2709   -9.9778   -0.0000 C   0  0  0  0  0  0  0  0  0  0  0  0
  -14.5289  -10.1012   -0.0000 O   0  0  0  0  0  0  0  0  0  0  0  0
  -12.5432  -10.9769   -0.0000 C   0  0  0  0  0  0  0  0  0  0  0  0
  -13.7889  -11.1125   -0.0000 C   0  0  0  0  0  0  0  0  0  0  0  0
  1  2  1  0  0  0  0
  2  3  1  0  0  0  0
  2  4  2  0  0  0  0
  3  5  1  0  0  0  0
  3  6  2  0  0  0  0
  4  7  1  0  0  0  0
  5  8  1  0  0  0  0
  5  9  1  0  0  0  0
  6 10  1  0  0  0  0
  8 11  2  0  0  0  0
  8 12  1  0  0  0  0
 10 13  2  0  0  0  0
 12 14  1  0  0  0  0
 14 15  2  0  0  0  0
 14 16  1  0  0  0  0
 15 17  1  0  0  0  0
 15 18  1  0  0  0  0
 16 19  2  0  0  0  0
 17 20  1  0  0  0  0
 17 21  2  0  0  0  0
 20 22  2  0  0  0  0
 20 23  1  0  0  0  0
 22 24  1  0  0  0  0
 22 25  1  0  0  0  0
 23 26  2  0  0  0  0
 23 27  1  0  0  0  0
 25 28  2  0  0  0  0
 26 29  1  0  0  0  0
 27 30  2  0  0  0  0
 27 31  1  0  0  0  0
 28 32  1  0  0  0  0
 30 33  1  0  0  0  0
 31 34  2  0  0  0  0
 32 35  2  0  0  0  0
 32 36  1  0  0  0  0
 33 37  2  0  0  0  0
 37 38  1  0  0  0  0
 38 39  1  0  0  0  0
 38 40  1  0  0  0  0
 38 41  1  0  0  0  0
  7  9  2  0  0  0  0
 10 12  1  0  0  0  0
 19 21  1  0  0  0  0
 26 28  1  0  0  0  0
 29 30  1  0  0  0  0
 34 37  1  0  0  0  0
M  END
>  <MolRegNo>
2138347

>  <m>
=

>  <Value>
11000

>  <Unit>
nM

>  <Type>
IC50

>  <pValue>
4.96

>  <Ligand Efficiency>
0

>  <Binding Efficiency>
0

>  <Surface Efficiency>
0

>  <Assay Index>
1383793

>  <Assay Category>


>  <Assay Organism>
Homo sapiens

>  <Target ID>
17045

>  <Target Name>
Cytochrome P450 3A4

>  <Target Organism>
Homo sapiens

>  <Target Description>
Target is a single protein chain

>  <Sequence Accession>
P08684

>  <Reference>
ACS Med Chem Lett 11 (11.0), 2195-2203 (2020)

>  <Pubmed ID>
33214829

>  <DOI>
10.1021/acsmedchemlett.0c00335

$$$$
2511822
Actelion Java MolfileCreator 1.0

 35 38  0  0  0  0  0  0  0  0999 V2000
    0.0000   -0.0000   -0.0000 F   0  0  0  0  0  0  0  0  0  0  0  0
   -1.3118    0.7632   -0.0000 C   0  0  0  0  0  0  0  0  0  0  0  0
   -1.3237    2.2659   -0.0000 C   0  0  0  0  0  0  0  0  0  0  0  0
   -2.6117    0.0239   -0.0000 C   0  0  0  0  0  0  0  0  0  0  0  0
   -0.0358    3.0291   -0.0000 C   0  0  0  0  0  0  0  0  0  0  0  0
   -2.6356    3.0291   -0.0000 C   0  0  0  0  0  0  0  0  0  0  0  0
   -3.9235    0.7871   -0.0000 N   0  0  0  0  0  0  0  0  0  0  0  0
    1.2522    2.2897   -0.0000 N   0  0  0  0  0  0  0  0  0  0  0  0
   -0.0477    4.5556   -0.0000 C   0  0  0  0  0  0  0  0  0  0  0  0
   -3.9474    2.3016   -0.0000 C   0  0  0  0  0  0  0  0  0  0  0  0
    2.5521    3.0649   -0.0000 C   0  0  0  0  0  0  0  0  0  0  0  0
    1.2403    5.3188   -0.0000 N   0  0  0  0  0  0  0  0  0  0  0  0
   -1.3595    5.3188   -0.0000 C   0  0  0  0  0  0  0  0  0  0  0  0
   -5.2592    3.0649   -0.0000 O   0  0  0  0  0  0  0  0  0  0  0  0
    2.5402    4.5914   -0.0000 C   0  0  0  0  0  0  0  0  0  0  0  0
   -1.3714    6.8334   -0.0000 C   0  0  0  0  0  0  0  0  0  0  0  0
   -5.2711    4.5794   -0.0000 C   0  0  0  0  0  0  0  0  0  0  0  0
    3.8162    5.3546   -0.0000 C   0  0  0  0  0  0  0  0  0  0  0  0
   -2.6833    7.5966   -0.0000 C   0  0  0  0  0  0  0  0  0  0  0  0
   -0.0835    7.5966   -0.0000 C   0  0  0  0  0  0  0  0  0  0  0  0
    5.1042    4.6271   -0.0000 O   0  0  0  0  0  0  0  0  0  0  0  0
    6.3802    5.3904   -0.0000 C   0  0  0  0  0  0  0  0  0  0  0  0
    7.6682    4.6510   -0.0000 C   0  0  0  0  0  0  0  0  0  0  0  0
    6.3564    6.8930   -0.0000 C   0  0  0  0  0  0  0  0  0  0  0  0
    8.9442    5.4142   -0.0000 C   0  0  0  0  0  0  0  0  0  0  0  0
    7.6324    7.6682   -0.0000 C   0  0  0  0  0  0  0  0  0  0  0  0
    8.9204    6.9288   -0.0000 C   0  0  0  0  0  0  0  0  0  0  0  0
   10.2322    4.6868   -0.0000 C   0  0  0  0  0  0  0  0  0  0  0  0
   10.2322    3.1961   -0.0000 C   0  0  0  0  0  0  0  0  0  0  0  0
   11.5082    5.4500   -0.0000 C   0  0  0  0  0  0  0  0  0  0  0  0
    9.4809    1.9081   -0.0000 C   0  0  0  0  0  0  0  0  0  0  0  0
   10.9835    1.9081   -0.0000 C   0  0  0  0  0  0  0  0  0  0  0  0
   12.7962    4.7225   -0.0000 C   0  0  0  0  0  0  0  0  0  0  0  0
   12.7962    3.2318   -0.0000 O   0  0  0  0  0  0  0  0  0  0  0  0
   14.0722    5.4858   -0.0000 O   0  0  0  0  0  0  0  0  0  0  0  0
  1  2  1  0  0  0  0
  2  3  2  0  0  0  0
  2  4  1  0  0  0  0
  3  5  1  0  0  0  0
  3  6  1  0  0  0  0
  4  7  2  0  0  0  0
  5  8  2  0  0  0  0
  5  9  1  0  0  0  0
  6 10  2  0  0  0  0
  8 11  1  0  0  0  0
  9 12  2  0  0  0  0
  9 13  1  0  0  0  0
 10 14  1  0  0  0  0
 11 15  2  0  0  0  0
 13 16  1  0  0  0  0
 14 17  1  0  0  0  0
 15 18  1  0  0  0  0
 16 19  1  0  0  0  0
 16 20  1  0  0  0  0
 18 21  1  0  0  0  0
 21 22  1  0  0  0  0
 22 23  2  0  0  0  0
 22 24  1  0  0  0  0
 23 25  1  0  0  0  0
 24 26  2  0  0  0  0
 25 27  2  0  0  0  0
 25 28  1  0  0  0  0
 28 29  1  0  0  0  0
 28 30  1  1  0  0  0
 29 31  1  0  0  0  0
 29 32  1  0  0  0  0
 30 33  1  0  0  0  0
 33 34  2  0  0  0  0
 33 35  1  0  0  0  0
  7 10  1  0  0  0  0
 12 15  1  0  0  0  0
 26 27  1  0  0  0  0
 31 32  1  0  0  0  0
M  END
>  <MolRegNo>
2511822

>  <m>
=

>  <Value>
8000

>  <Unit>
nM

>  <Type>
IC50

>  <pValue>
5.1

>  <Ligand Efficiency>
0

>  <Binding Efficiency>
0

>  <Surface Efficiency>
0

>  <Assay Index>
1384711

>  <Assay Category>


>  <Assay Organism>
Homo sapiens

>  <Target ID>
17045

>  <Target Name>
Cytochrome P450 3A4

>  <Target Organism>
Homo sapiens

>  <Target Description>
Target is a single protein chain

>  <Sequence Accession>
P08684

>  <Reference>
Bioorg Med Chem Lett 28 (4), 720-726 (2018)

>  <Pubmed ID>
29366647

>  <DOI>
10.1016/j.bmcl.2018.01.013

$$$$
2486625
Actelion Java MolfileCreator 1.0

 34 38  0  0  0  0  0  0  0  0999 V2000
    0.0000   -0.0000   -0.0000 F   0  0  0  0  0  0  0  0  0  0  0  0
   -1.3108   -0.7440   -0.0000 C   0  0  0  0  0  0  0  0  0  0  0  0
   -2.0665    0.5668   -0.0000 F   0  0  0  0  0  0  0  0  0  0  0  0
   -0.5786   -2.0311   -0.0000 F   0  0  0  0  0  0  0  0  0  0  0  0
   -2.6215   -1.4761   -0.0000 C   0  0  0  0  0  0  0  0  0  0  0  0
   -3.9323   -0.7085   -0.0000 N   0  0  0  0  0  0  0  0  0  0  0  0
   -3.9441    0.8030   -0.0000 C   0  0  0  0  0  0  0  0  0  0  0  0
   -5.2431   -1.4407   -0.0000 C   0  0  0  0  0  0  0  0  0  0  0  0
   -2.6570    1.5588   -0.0000 C   0  0  0  0  0  0  0  0  0  0  0  0
   -5.2549    1.5588   -0.0000 C   0  0  0  0  0  0  0  0  0  0  0  0
   -6.5538   -0.6849   -0.0000 C   0  0  0  0  0  0  0  0  0  0  0  0
   -5.2549   -2.9286   -0.0000 C   0  0  0  0  0  0  0  0  0  0  0  0
   -2.6688    3.0703   -0.0000 N   0  0  0  0  0  0  0  0  0  0  0  0
   -1.3698    0.8266   -0.0000 C   0  0  0  0  0  0  0  0  0  0  0  0
   -6.5657    0.8266   -0.0000 C   0  0  0  0  0  0  0  0  0  0  0  0
   -5.2667    3.0703   -0.0000 C   0  0  0  0  0  0  0  0  0  0  0  0
   -1.3816    3.8260   -0.0000 C   0  0  0  0  0  0  0  0  0  0  0  0
   -0.0827    1.5824   -0.0000 C   0  0  0  0  0  0  0  0  0  0  0  0
   -7.8764    1.5824   -0.0000 C   0  0  0  0  0  0  0  0  0  0  0  0
   -6.5775    3.8260   -0.0000 C   0  0  0  0  0  0  0  0  0  0  0  0
   -0.0945    3.0821   -0.0000 C   0  0  0  0  0  0  0  0  0  0  0  0
   -7.8882    3.0939   -0.0000 C   0  0  0  0  0  0  0  0  0  0  0  0
   -9.3171    1.1336   -0.0000 C   0  0  0  0  0  0  0  0  0  0  0  0
    1.1927    3.8378   -0.0000 N   0  0  0  0  0  0  0  0  0  0  0  0
   -9.3289    3.5662   -0.0000 N   0  0  0  0  0  0  0  0  0  0  0  0
  -10.2146    2.3617   -0.0000 N   0  0  0  0  0  0  0  0  0  0  0  0
    2.4798    3.1057   -0.0000 C   0  0  0  0  0  0  0  0  0  0  0  0
    3.9205    3.5072   -0.0000 C   0  0  0  0  0  0  0  0  0  0  0  0
    2.8577    1.6650   -0.0000 C   0  0  0  0  0  0  0  0  0  0  0  0
    4.2984    2.0665   -0.0000 N   0  0  0  0  0  0  0  0  0  0  0  0
    5.5855    1.3344   -0.0000 C   0  0  0  0  0  0  0  0  0  0  0  0
    6.8727    2.0901   -0.0000 C   0  0  0  0  0  0  0  0  0  0  0  0
    8.1598    1.3580   -0.0000 C   0  0  0  0  0  0  0  0  0  0  0  0
    9.4470    2.1138   -0.0000 F   0  0  0  0  0  0  0  0  0  0  0  0
  1  2  1  0  0  0  0
  2  3  1  0  0  0  0
  2  4  1  0  0  0  0
  2  5  1  0  0  0  0
  5  6  1  0  0  0  0
  6  7  1  0  0  0  0
  6  8  1  0  0  0  0
  7  9  1  1  0  0  0
  7 10  1  0  0  0  0
  8 11  1  0  0  0  0
  8 12  1  6  0  0  0
  9 13  2  0  0  0  0
  9 14  1  0  0  0  0
 10 15  2  0  0  0  0
 10 16  1  0  0  0  0
 13 17  1  0  0  0  0
 14 18  2  0  0  0  0
 15 19  1  0  0  0  0
 16 20  2  0  0  0  0
 17 21  2  0  0  0  0
 19 22  2  0  0  0  0
 19 23  1  0  0  0  0
 21 24  1  0  0  0  0
 22 25  1  0  0  0  0
 23 26  2  0  0  0  0
 24 27  1  0  0  0  0
 27 28  1  0  0  0  0
 27 29  1  0  0  0  0
 28 30  1  0  0  0  0
 30 31  1  0  0  0  0
 31 32  1  0  0  0  0
 32 33  1  0  0  0  0
 33 34  1  0  0  0  0
 11 15  1  0  0  0  0
 18 21  1  0  0  0  0
 20 22  1  0  0  0  0
 25 26  1  0  0  0  0
 29 30  1  0  0  0  0
M  END
>  <MolRegNo>
2486625

>  <m>
=

>  <Value>
2200

>  <Unit>
nM

>  <Type>
IC50

>  <pValue>
5.66

>  <Ligand Efficiency>
0

>  <Binding Efficiency>
0

>  <Surface Efficiency>
0

>  <Assay Index>
1386843

>  <Assay Category>


>  <Assay Organism>
Homo sapiens

>  <Target ID>
17045

>  <Target Name>
Cytochrome P450 3A4

>  <Target Organism>
Homo sapiens

>  <Target Description>
Target is a single protein chain

>  <Sequence Accession>
P08684

>  <Reference>
J Med Chem 63 (23), 14530-14559 (2020)

>  <Pubmed ID>
32910656

>  <DOI>
10.1021/acs.jmedchem.0c01163

$$$$
2490220
Actelion Java MolfileCreator 1.0

 36 41  0  0  0  0  0  0  0  0999 V2000
    0.0000   -0.0000   -0.0000 F   0  0  0  0  0  0  0  0  0  0  0  0
   -1.3225   -0.7387   -0.0000 C   0  0  0  0  0  0  0  0  0  0  0  0
   -0.5957   -2.0255   -0.0000 C   0  0  0  0  0  0  0  0  0  0  0  0
   -2.0850   -2.0255   -0.0000 C   0  0  0  0  0  0  0  0  0  0  0  0
   -2.6331    0.0238   -0.0000 C   0  0  0  0  0  0  0  0  0  0  0  0
   -3.9437   -0.7149   -0.0000 N   0  0  0  0  0  0  0  0  0  0  0  0
   -5.2543    0.0477   -0.0000 C   0  0  0  0  0  0  0  0  0  0  0  0
   -3.9675   -2.2161   -0.0000 C   0  0  0  0  0  0  0  0  0  0  0  0
   -5.2662    1.5608   -0.0000 C   0  0  0  0  0  0  0  0  0  0  0  0
   -6.5649   -0.6910   -0.0000 C   0  0  0  0  0  0  0  0  0  0  0  0
   -5.2900   -2.9548   -0.0000 C   0  0  0  0  0  0  0  0  0  0  0  0
   -2.6808   -2.9548   -0.0000 C   0  0  0  0  0  0  0  0  0  0  0  0
   -3.9675    2.3233   -0.0000 C   0  0  0  0  0  0  0  0  0  0  0  0
   -6.5768    2.3233   -0.0000 C   0  0  0  0  0  0  0  0  0  0  0  0
   -6.5768   -2.1684   -0.0000 C   0  0  0  0  0  0  0  0  0  0  0  0
   -7.8636    0.0715   -0.0000 C   0  0  0  0  0  0  0  0  0  0  0  0
   -2.6808    1.5846   -0.0000 O   0  0  0  0  0  0  0  0  0  0  0  0
   -3.9794    3.8484   -0.0000 C   0  0  0  0  0  0  0  0  0  0  0  0
   -6.5887    3.8484   -0.0000 C   0  0  0  0  0  0  0  0  0  0  0  0
   -7.8755   -2.8952   -0.0000 C   0  0  0  0  0  0  0  0  0  0  0  0
   -9.1742   -0.6553   -0.0000 C   0  0  0  0  0  0  0  0  0  0  0  0
   -1.3940    2.3472   -0.0000 C   0  0  0  0  0  0  0  0  0  0  0  0
   -5.2900    4.6109   -0.0000 C   0  0  0  0  0  0  0  0  0  0  0  0
   -9.1742   -2.1446   -0.0000 C   0  0  0  0  0  0  0  0  0  0  0  0
   -8.1972   -4.3369   -0.0000 C   0  0  0  0  0  0  0  0  0  0  0  0
   -5.3020    6.1241   -0.0000 N   0  0  0  0  0  0  0  0  0  0  0  0
  -10.2941   -3.1335   -0.0000 N   0  0  0  0  0  0  0  0  0  0  0  0
   -9.6865   -4.4798   -0.0000 N   0  0  0  0  0  0  0  0  0  0  0  0
   -4.0152    6.8866   -0.0000 C   0  0  0  0  0  0  0  0  0  0  0  0
   -2.5735    6.5172   -0.0000 C   0  0  0  0  0  0  0  0  0  0  0  0
   -3.6458    8.3640   -0.0000 C   0  0  0  0  0  0  0  0  0  0  0  0
   -2.2042    7.9827   -0.0000 N   0  0  0  0  0  0  0  0  0  0  0  0
   -0.9174    8.7452   -0.0000 C   0  0  0  0  0  0  0  0  0  0  0  0
    0.3693    8.0065   -0.0000 C   0  0  0  0  0  0  0  0  0  0  0  0
    1.6561    8.7691   -0.0000 C   0  0  0  0  0  0  0  0  0  0  0  0
    2.9429    8.0304   -0.0000 F   0  0  0  0  0  0  0  0  0  0  0  0
  1  2  1  0  0  0  0
  2  3  1  0  0  0  0
  2  4  1  0  0  0  0
  2  5  1  0  0  0  0
  5  6  1  0  0  0  0
  6  7  1  0  0  0  0
  6  8  1  0  0  0  0
  7  9  1  1  0  0  0
  7 10  1  0  0  0  0
  8 11  1  0  0  0  0
  8 12  1  6  0  0  0
  9 13  2  0  0  0  0
  9 14  1  0  0  0  0
 10 15  2  0  0  0  0
 10 16  1  0  0  0  0
 13 17  1  0  0  0  0
 13 18  1  0  0  0  0
 14 19  2  0  0  0  0
 15 20  1  0  0  0  0
 16 21  2  0  0  0  0
 17 22  1  0  0  0  0
 18 23  2  0  0  0  0
 20 24  2  0  0  0  0
 20 25  1  0  0  0  0
 23 26  1  0  0  0  0
 24 27  1  0  0  0  0
 25 28  2  0  0  0  0
 26 29  1  0  0  0  0
 29 30  1  0  0  0  0
 29 31  1  0  0  0  0
 30 32  1  0  0  0  0
 32 33  1  0  0  0  0
 33 34  1  0  0  0  0
 34 35  1  0  0  0  0
 35 36  1  0  0  0  0
  3  4  1  0  0  0  0
 11 15  1  0  0  0  0
 19 23  1  0  0  0  0
 21 24  1  0  0  0  0
 27 28  1  0  0  0  0
 31 32  1  0  0  0  0
M  END
>  <MolRegNo>
2490220

>  <m>
=

>  <Value>
11000

>  <Unit>
nM

>  <Type>
IC50

>  <pValue>
4.96

>  <Ligand Efficiency>
0

>  <Binding Efficiency>
0

>  <Surface Efficiency>
0

>  <Assay Index>
1386843

>  <Assay Category>


>  <Assay Organism>
Homo sapiens

>  <Target ID>
17045

>  <Target Name>
Cytochrome P450 3A4

>  <Target Organism>
Homo sapiens

>  <Target Description>
Target is a single protein chain

>  <Sequence Accession>
P08684

>  <Reference>
J Med Chem 63 (23), 14530-14559 (2020)

>  <Pubmed ID>
32910656

>  <DOI>
10.1021/acs.jmedchem.0c01163

$$$$
2017755
Actelion Java MolfileCreator 1.0

 32 36  0  0  0  0  0  0  0  0999 V2000
    0.0000   -0.0000   -0.0000 S   0  0  0  0  0  0  0  0  0  0  0  0
   -1.5548   -0.1093   -0.0000 C   0  0  0  0  0  0  0  0  0  0  0  0
    0.5709   -1.4091   -0.0000 C   0  0  0  0  0  0  0  0  0  0  0  0
   -1.9071   -1.5913   -0.0000 C   0  0  0  0  0  0  0  0  0  0  0  0
   -0.6195   -2.3930   -0.0000 C   0  0  0  0  0  0  0  0  0  0  0  0
   -3.3526   -2.1622   -0.0000 C   0  0  0  0  0  0  0  0  0  0  0  0
   -3.5713   -3.6806   -0.0000 C   0  0  0  0  0  0  0  0  0  0  0  0
   -4.5916   -1.2026   -0.0000 C   0  0  0  0  0  0  0  0  0  0  0  0
   -5.0046   -4.2515   -0.0000 C   0  0  0  0  0  0  0  0  0  0  0  0
   -6.0250   -1.7735   -0.0000 C   0  0  0  0  0  0  0  0  0  0  0  0
   -6.2315   -3.3040   -0.0000 C   0  0  0  0  0  0  0  0  0  0  0  0
   -7.7135   -3.7656   -0.0000 N   0  0  0  0  0  0  0  0  0  0  0  0
   -8.9768   -2.8424   -0.0000 C   0  0  0  0  0  0  0  0  0  0  0  0
   -8.1993   -5.2233   -0.0000 C   0  0  0  0  0  0  0  0  0  0  0  0
   -8.9889   -1.5913   -0.0000 O   0  0  0  0  0  0  0  0  0  0  0  0
  -10.2401   -3.7413   -0.0000 C   0  0  0  0  0  0  0  0  0  0  0  0
   -7.3005   -6.4623   -0.0000 C   0  0  0  0  0  0  0  0  0  0  0  0
   -9.7542   -5.2111   -0.0000 C   0  0  0  0  0  0  0  0  0  0  0  0
  -11.7949   -3.7292   -0.0000 N   0  0  0  0  0  0  0  0  0  0  0  0
   -5.7699   -6.4016   -0.0000 C   0  0  0  0  0  0  0  0  0  0  0  0
   -8.0536   -7.8106   -0.0000 C   0  0  0  0  0  0  0  0  0  0  0  0
  -11.0175   -6.1100   -0.0000 C   0  0  0  0  0  0  0  0  0  0  0  0
  -12.2808   -5.1868   -0.0000 N   0  0  0  0  0  0  0  0  0  0  0  0
   -5.0532   -5.0289   -0.0000 O   0  0  0  0  0  0  0  0  0  0  0  0
   -4.9682   -7.7013   -0.0000 C   0  0  0  0  0  0  0  0  0  0  0  0
   -7.2519   -9.1104   -0.0000 C   0  0  0  0  0  0  0  0  0  0  0  0
  -11.0296   -7.6406   -0.0000 C   0  0  0  0  0  0  0  0  0  0  0  0
   -3.8264   -4.9803   -0.0000 C   0  0  0  0  0  0  0  0  0  0  0  0
   -5.7092   -9.0496   -0.0000 C   0  0  0  0  0  0  0  0  0  0  0  0
  -12.1107   -8.2479   -0.0000 C   0  0  0  0  0  0  0  0  0  0  0  0
   -9.9728   -8.2479   -0.0000 C   0  0  0  0  0  0  0  0  0  0  0  0
  -11.0418   -8.8674   -0.0000 C   0  0  0  0  0  0  0  0  0  0  0  0
  1  2  1  0  0  0  0
  1  3  1  0  0  0  0
  2  4  2  0  0  0  0
  3  5  2  0  0  0  0
  4  6  1  0  0  0  0
  6  7  2  0  0  0  0
  6  8  1  0  0  0  0
  7  9  1  0  0  0  0
  8 10  2  0  0  0  0
  9 11  2  0  0  0  0
 11 12  1  0  0  0  0
 12 13  1  0  0  0  0
 12 14  1  0  0  0  0
 13 15  2  0  0  0  0
 13 16  1  0  0  0  0
 14 17  1  0  0  0  0
 14 18  1  0  0  0  0
 16 19  2  0  0  0  0
 17 20  2  0  0  0  0
 17 21  1  0  0  0  0
 18 22  2  0  0  0  0
 19 23  1  0  0  0  0
 20 24  1  0  0  0  0
 20 25  1  0  0  0  0
 21 26  2  0  0  0  0
 22 27  1  0  0  0  0
 24 28  1  0  0  0  0
 25 29  2  0  0  0  0
 27 30  1  0  0  0  0
 27 31  1  0  0  0  0
 27 32  1  0  0  0  0
  4  5  1  0  0  0  0
 10 11  1  0  0  0  0
 16 18  1  0  0  0  0
 22 23  1  0  0  0  0
 26 29  1  0  0  0  0
M  END
>  <MolRegNo>
2017755

>  <m>
=

>  <Value>
10000

>  <Unit>
nM

>  <Type>
IC50

>  <pValue>
5

>  <Ligand Efficiency>
0

>  <Binding Efficiency>
0

>  <Surface Efficiency>
0

>  <Assay Index>
1387805

>  <Assay Category>


>  <Assay Organism>
Homo sapiens

>  <Target ID>
17045

>  <Target Name>
Cytochrome P450 3A4

>  <Target Organism>
Homo sapiens

>  <Target Description>
Target is a single protein chain

>  <Sequence Accession>
P08684

>  <Reference>
Bioorg Med Chem Lett 30 (24), 127636-127636 (2020)

>  <Pubmed ID>
33132115

>  <DOI>
10.1016/j.bmcl.2020.127636

$$$$
2536565
Actelion Java MolfileCreator 1.0

 32 36  0  0  0  0  0  0  0  0999 V2000
    0.0000   -0.0000   -0.0000 S   0  0  0  0  0  0  0  0  0  0  0  0
   -1.4268    0.4717   -0.0000 C   0  0  0  0  0  0  0  0  0  0  0  0
   -0.0118   -1.4740   -0.0000 C   0  0  0  0  0  0  0  0  0  0  0  0
   -2.3113   -0.7193   -0.0000 N   0  0  0  0  0  0  0  0  0  0  0  0
   -1.9103    1.8985   -0.0000 C   0  0  0  0  0  0  0  0  0  0  0  0
   -1.4386   -1.9221   -0.0000 C   0  0  0  0  0  0  0  0  0  0  0  0
   -3.3843    2.2169   -0.0000 C   0  0  0  0  0  0  0  0  0  0  0  0
   -0.9198    3.0306   -0.0000 C   0  0  0  0  0  0  0  0  0  0  0  0
   -3.8678    3.6556   -0.0000 C   0  0  0  0  0  0  0  0  0  0  0  0
   -1.4033    4.4574   -0.0000 C   0  0  0  0  0  0  0  0  0  0  0  0
   -2.8773    4.7876   -0.0000 C   0  0  0  0  0  0  0  0  0  0  0  0
   -3.3490    6.2145   -0.0000 N   0  0  0  0  0  0  0  0  0  0  0  0
   -2.4881    7.4408   -0.0000 C   0  0  0  0  0  0  0  0  0  0  0  0
   -4.7758    6.6861   -0.0000 C   0  0  0  0  0  0  0  0  0  0  0  0
   -1.0023    7.4526   -0.0000 O   0  0  0  0  0  0  0  0  0  0  0  0
   -3.3726    8.6554   -0.0000 C   0  0  0  0  0  0  0  0  0  0  0  0
   -5.9904    5.8135   -0.0000 C   0  0  0  0  0  0  0  0  0  0  0  0
   -4.7876    8.1837   -0.0000 C   0  0  0  0  0  0  0  0  0  0  0  0
   -3.3843   10.1648   -0.0000 N   0  0  0  0  0  0  0  0  0  0  0  0
   -5.8371    4.3395   -0.0000 C   0  0  0  0  0  0  0  0  0  0  0  0
   -7.3701    6.4385   -0.0000 C   0  0  0  0  0  0  0  0  0  0  0  0
   -5.6838    9.4101   -0.0000 C   0  0  0  0  0  0  0  0  0  0  0  0
   -4.8230   10.6365   -0.0000 N   0  0  0  0  0  0  0  0  0  0  0  0
   -4.4810    3.7499   -0.0000 O   0  0  0  0  0  0  0  0  0  0  0  0
   -7.0517    3.4669   -0.0000 C   0  0  0  0  0  0  0  0  0  0  0  0
   -8.5965    5.5659   -0.0000 C   0  0  0  0  0  0  0  0  0  0  0  0
   -7.1932    9.4219   -0.0000 C   0  0  0  0  0  0  0  0  0  0  0  0
   -4.3277    2.2759   -0.0000 C   0  0  0  0  0  0  0  0  0  0  0  0
   -8.4432    4.0801   -0.0000 C   0  0  0  0  0  0  0  0  0  0  0  0
   -7.9479    8.1366   -0.0000 C   0  0  0  0  0  0  0  0  0  0  0  0
   -7.9479   10.7191   -0.0000 C   0  0  0  0  0  0  0  0  0  0  0  0
   -8.7026    9.4455   -0.0000 C   0  0  0  0  0  0  0  0  0  0  0  0
  1  2  1  0  0  0  0
  1  3  1  0  0  0  0
  2  4  2  0  0  0  0
  2  5  1  0  0  0  0
  3  6  2  0  0  0  0
  5  7  2  0  0  0  0
  5  8  1  0  0  0  0
  7  9  1  0  0  0  0
  8 10  2  0  0  0  0
  9 11  2  0  0  0  0
 11 12  1  0  0  0  0
 12 13  1  0  0  0  0
 12 14  1  0  0  0  0
 13 15  2  0  0  0  0
 13 16  1  0  0  0  0
 14 17  1  0  0  0  0
 14 18  1  0  0  0  0
 16 19  1  0  0  0  0
 17 20  2  0  0  0  0
 17 21  1  0  0  0  0
 18 22  1  0  0  0  0
 19 23  1  0  0  0  0
 20 24  1  0  0  0  0
 20 25  1  0  0  0  0
 21 26  2  0  0  0  0
 22 27  1  0  0  0  0
 24 28  1  0  0  0  0
 25 29  2  0  0  0  0
 27 30  1  0  0  0  0
 27 31  1  0  0  0  0
 27 32  1  0  0  0  0
  4  6  1  0  0  0  0
 10 11  1  0  0  0  0
 16 18  2  0  0  0  0
 22 23  2  0  0  0  0
 26 29  1  0  0  0  0
M  END
>  <MolRegNo>
2536565

>  <m>
=

>  <Value>
13000

>  <Unit>
nM

>  <Type>
IC50

>  <pValue>
4.89

>  <Ligand Efficiency>
0

>  <Binding Efficiency>
0

>  <Surface Efficiency>
0

>  <Assay Index>
1387805

>  <Assay Category>


>  <Assay Organism>
Homo sapiens

>  <Target ID>
17045

>  <Target Name>
Cytochrome P450 3A4

>  <Target Organism>
Homo sapiens

>  <Target Description>
Target is a single protein chain

>  <Sequence Accession>
P08684

>  <Reference>
Bioorg Med Chem Lett 30 (24), 127636-127636 (2020)

>  <Pubmed ID>
33132115

>  <DOI>
10.1016/j.bmcl.2020.127636

$$$$
2509978
Actelion Java MolfileCreator 1.0

 33 37  0  0  0  0  0  0  0  0999 V2000
    0.0000   -0.0000   -0.0000 O   0  0  0  0  0  0  0  0  0  0  0  0
   -1.5161    0.0118   -0.0000 C   0  0  0  0  0  0  0  0  0  0  0  0
   -2.4044   -1.1963   -0.0000 N   0  0  0  0  0  0  0  0  0  0  0  0
   -2.4044    1.2318   -0.0000 C   0  0  0  0  0  0  0  0  0  0  0  0
   -1.9543   -2.6058   -0.0000 C   0  0  0  0  0  0  0  0  0  0  0  0
   -3.8376   -0.7225   -0.0000 C   0  0  0  0  0  0  0  0  0  0  0  0
   -2.4163    2.7479   -0.0000 N   0  0  0  0  0  0  0  0  0  0  0  0
   -3.8376    0.7817   -0.0000 C   0  0  0  0  0  0  0  0  0  0  0  0
   -2.9730   -3.7192   -0.0000 C   0  0  0  0  0  0  0  0  0  0  0  0
   -0.4975   -2.9019   -0.0000 C   0  0  0  0  0  0  0  0  0  0  0  0
   -5.0576   -1.5990   -0.0000 C   0  0  0  0  0  0  0  0  0  0  0  0
   -3.8613    3.2217   -0.0000 N   0  0  0  0  0  0  0  0  0  0  0  0
   -4.7378    2.0136   -0.0000 C   0  0  0  0  0  0  0  0  0  0  0  0
   -2.5110   -5.1405   -0.0000 C   0  0  0  0  0  0  0  0  0  0  0  0
   -0.0355   -4.3114   -0.0000 C   0  0  0  0  0  0  0  0  0  0  0  0
   -4.9036   -3.0796   -0.0000 C   0  0  0  0  0  0  0  0  0  0  0  0
   -6.4434   -0.9712   -0.0000 C   0  0  0  0  0  0  0  0  0  0  0  0
   -6.2539    2.0254   -0.0000 C   0  0  0  0  0  0  0  0  0  0  0  0
   -1.0542   -5.4366   -0.0000 C   0  0  0  0  0  0  0  0  0  0  0  0
   -3.5415   -3.6718   -0.0000 O   0  0  0  0  0  0  0  0  0  0  0  0
   -6.1236   -3.9561   -0.0000 C   0  0  0  0  0  0  0  0  0  0  0  0
   -7.6752   -1.8477   -0.0000 C   0  0  0  0  0  0  0  0  0  0  0  0
   -7.0119    0.7344   -0.0000 C   0  0  0  0  0  0  0  0  0  0  0  0
   -7.0238    3.3283   -0.0000 C   0  0  0  0  0  0  0  0  0  0  0  0
   -7.7700    2.0491   -0.0000 C   0  0  0  0  0  0  0  0  0  0  0  0
   -0.5922   -6.8461   -0.0000 C   0  0  0  0  0  0  0  0  0  0  0  0
   -3.3875   -5.1524   -0.0000 C   0  0  0  0  0  0  0  0  0  0  0  0
   -7.5213   -3.3402   -0.0000 C   0  0  0  0  0  0  0  0  0  0  0  0
    0.8173   -7.2962   -0.0000 O   0  0  0  0  0  0  0  0  0  0  0  0
   -1.4806   -8.0424   -0.0000 N   0  0  0  0  0  0  0  0  0  0  0  0
    0.8054   -8.7768   -0.0000 C   0  0  0  0  0  0  0  0  0  0  0  0
   -0.6041   -9.2387   -0.0000 N   0  0  0  0  0  0  0  0  0  0  0  0
    2.0017   -9.6414   -0.0000 C   0  0  0  0  0  0  0  0  0  0  0  0
  1  2  2  0  0  0  0
  2  3  1  0  0  0  0
  2  4  1  0  0  0  0
  3  5  1  0  0  0  0
  3  6  1  0  0  0  0
  4  7  1  0  0  0  0
  4  8  2  0  0  0  0
  5  9  2  0  0  0  0
  5 10  1  0  0  0  0
  6 11  1  0  0  0  0
  7 12  1  0  0  0  0
  8 13  1  0  0  0  0
  9 14  1  0  0  0  0
 10 15  2  0  0  0  0
 11 16  2  0  0  0  0
 11 17  1  0  0  0  0
 13 18  1  0  0  0  0
 14 19  2  0  0  0  0
 16 20  1  0  0  0  0
 16 21  1  0  0  0  0
 17 22  2  0  0  0  0
 18 23  1  0  0  0  0
 18 24  1  0  0  0  0
 18 25  1  0  0  0  0
 19 26  1  0  0  0  0
 20 27  1  0  0  0  0
 21 28  2  0  0  0  0
 26 29  1  0  0  0  0
 26 30  2  0  0  0  0
 29 31  1  0  0  0  0
 30 32  1  0  0  0  0
 31 33  1  0  0  0  0
  6  8  1  0  0  0  0
 12 13  2  0  0  0  0
 15 19  1  0  0  0  0
 22 28  1  0  0  0  0
 31 32  2  0  0  0  0
M  END
>  <MolRegNo>
2509978

>  <m>
=

>  <Value>
8000

>  <Unit>
nM

>  <Type>
IC50

>  <pValue>
5.1

>  <Ligand Efficiency>
0

>  <Binding Efficiency>
0

>  <Surface Efficiency>
0

>  <Assay Index>
1387805

>  <Assay Category>


>  <Assay Organism>
Homo sapiens

>  <Target ID>
17045

>  <Target Name>
Cytochrome P450 3A4

>  <Target Organism>
Homo sapiens

>  <Target Description>
Target is a single protein chain

>  <Sequence Accession>
P08684

>  <Reference>
Bioorg Med Chem Lett 30 (24), 127636-127636 (2020)

>  <Pubmed ID>
33132115

>  <DOI>
10.1016/j.bmcl.2020.127636

$$$$
2492620
Actelion Java MolfileCreator 1.0

 33 37  0  0  0  0  0  0  0  0999 V2000
    0.0000   -0.0000   -0.0000 O   0  0  0  0  0  0  0  0  0  0  0  0
   -1.5161    0.0118   -0.0000 C   0  0  0  0  0  0  0  0  0  0  0  0
   -2.4044   -1.1963   -0.0000 N   0  0  0  0  0  0  0  0  0  0  0  0
   -2.4044    1.2318   -0.0000 C   0  0  0  0  0  0  0  0  0  0  0  0
   -1.9543   -2.6058   -0.0000 C   0  0  0  0  0  0  0  0  0  0  0  0
   -3.8376   -0.7225   -0.0000 C   0  0  0  0  0  0  0  0  0  0  0  0
   -2.4163    2.7479   -0.0000 N   0  0  0  0  0  0  0  0  0  0  0  0
   -3.8376    0.7817   -0.0000 C   0  0  0  0  0  0  0  0  0  0  0  0
   -2.9730   -3.7192   -0.0000 C   0  0  0  0  0  0  0  0  0  0  0  0
   -0.4975   -2.9019   -0.0000 C   0  0  0  0  0  0  0  0  0  0  0  0
   -5.0576   -1.5990   -0.0000 C   0  0  0  0  0  0  0  0  0  0  0  0
   -3.8613    3.2217   -0.0000 N   0  0  0  0  0  0  0  0  0  0  0  0
   -4.7378    2.0136   -0.0000 C   0  0  0  0  0  0  0  0  0  0  0  0
   -2.5110   -5.1405   -0.0000 C   0  0  0  0  0  0  0  0  0  0  0  0
   -0.0355   -4.3114   -0.0000 C   0  0  0  0  0  0  0  0  0  0  0  0
   -4.9036   -3.0796   -0.0000 C   0  0  0  0  0  0  0  0  0  0  0  0
   -6.4434   -0.9712   -0.0000 C   0  0  0  0  0  0  0  0  0  0  0  0
   -6.2539    2.0254   -0.0000 C   0  0  0  0  0  0  0  0  0  0  0  0
   -1.0542   -5.4366   -0.0000 C   0  0  0  0  0  0  0  0  0  0  0  0
   -3.5415   -3.6718   -0.0000 O   0  0  0  0  0  0  0  0  0  0  0  0
   -6.1236   -3.9561   -0.0000 C   0  0  0  0  0  0  0  0  0  0  0  0
   -7.6752   -1.8477   -0.0000 C   0  0  0  0  0  0  0  0  0  0  0  0
   -7.0119    0.7344   -0.0000 C   0  0  0  0  0  0  0  0  0  0  0  0
   -7.0238    3.3283   -0.0000 C   0  0  0  0  0  0  0  0  0  0  0  0
   -7.7700    2.0491   -0.0000 C   0  0  0  0  0  0  0  0  0  0  0  0
   -0.5922   -6.8461   -0.0000 C   0  0  0  0  0  0  0  0  0  0  0  0
   -3.3875   -5.1524   -0.0000 C   0  0  0  0  0  0  0  0  0  0  0  0
   -7.5213   -3.3402   -0.0000 C   0  0  0  0  0  0  0  0  0  0  0  0
   -1.4806   -8.0424   -0.0000 O   0  0  0  0  0  0  0  0  0  0  0  0
    0.8173   -7.2962   -0.0000 N   0  0  0  0  0  0  0  0  0  0  0  0
   -0.6041   -9.2387   -0.0000 N   0  0  0  0  0  0  0  0  0  0  0  0
    0.8054   -8.7768   -0.0000 C   0  0  0  0  0  0  0  0  0  0  0  0
    2.0017   -9.6414   -0.0000 C   0  0  0  0  0  0  0  0  0  0  0  0
  1  2  2  0  0  0  0
  2  3  1  0  0  0  0
  2  4  1  0  0  0  0
  3  5  1  0  0  0  0
  3  6  1  0  0  0  0
  4  7  1  0  0  0  0
  4  8  2  0  0  0  0
  5  9  2  0  0  0  0
  5 10  1  0  0  0  0
  6 11  1  0  0  0  0
  7 12  1  0  0  0  0
  8 13  1  0  0  0  0
  9 14  1  0  0  0  0
 10 15  2  0  0  0  0
 11 16  2  0  0  0  0
 11 17  1  0  0  0  0
 13 18  1  0  0  0  0
 14 19  2  0  0  0  0
 16 20  1  0  0  0  0
 16 21  1  0  0  0  0
 17 22  2  0  0  0  0
 18 23  1  0  0  0  0
 18 24  1  0  0  0  0
 18 25  1  0  0  0  0
 19 26  1  0  0  0  0
 20 27  1  0  0  0  0
 21 28  2  0  0  0  0
 26 29  1  0  0  0  0
 26 30  2  0  0  0  0
 29 31  1  0  0  0  0
 30 32  1  0  0  0  0
 32 33  1  0  0  0  0
  6  8  1  0  0  0  0
 12 13  2  0  0  0  0
 15 19  1  0  0  0  0
 22 28  1  0  0  0  0
 31 32  2  0  0  0  0
M  END
>  <MolRegNo>
2492620

>  <m>
=

>  <Value>
2000

>  <Unit>
nM

>  <Type>
IC50

>  <pValue>
5.7

>  <Ligand Efficiency>
0

>  <Binding Efficiency>
0

>  <Surface Efficiency>
0

>  <Assay Index>
1387805

>  <Assay Category>


>  <Assay Organism>
Homo sapiens

>  <Target ID>
17045

>  <Target Name>
Cytochrome P450 3A4

>  <Target Organism>
Homo sapiens

>  <Target Description>
Target is a single protein chain

>  <Sequence Accession>
P08684

>  <Reference>
Bioorg Med Chem Lett 30 (24), 127636-127636 (2020)

>  <Pubmed ID>
33132115

>  <DOI>
10.1016/j.bmcl.2020.127636

$$$$
2492956
Actelion Java MolfileCreator 1.0

 33 37  0  0  0  0  0  0  0  0999 V2000
    0.0000   -0.0000   -0.0000 O   0  0  0  0  0  0  0  0  0  0  0  0
   -1.5163    0.0118   -0.0000 C   0  0  0  0  0  0  0  0  0  0  0  0
   -2.4047   -1.1964   -0.0000 N   0  0  0  0  0  0  0  0  0  0  0  0
   -2.4047    1.2320   -0.0000 C   0  0  0  0  0  0  0  0  0  0  0  0
   -1.9546   -2.6061   -0.0000 C   0  0  0  0  0  0  0  0  0  0  0  0
   -3.8380   -0.7226   -0.0000 C   0  0  0  0  0  0  0  0  0  0  0  0
   -2.4165    2.7482   -0.0000 N   0  0  0  0  0  0  0  0  0  0  0  0
   -3.8380    0.7818   -0.0000 C   0  0  0  0  0  0  0  0  0  0  0  0
   -2.9733   -3.7196   -0.0000 C   0  0  0  0  0  0  0  0  0  0  0  0
   -0.4975   -2.9022   -0.0000 C   0  0  0  0  0  0  0  0  0  0  0  0
   -5.0582   -1.5992   -0.0000 C   0  0  0  0  0  0  0  0  0  0  0  0
   -3.8617    3.2221   -0.0000 N   0  0  0  0  0  0  0  0  0  0  0  0
   -4.7383    2.0138   -0.0000 C   0  0  0  0  0  0  0  0  0  0  0  0
   -2.5113   -5.1411   -0.0000 C   0  0  0  0  0  0  0  0  0  0  0  0
   -0.0355   -4.3119   -0.0000 C   0  0  0  0  0  0  0  0  0  0  0  0
   -4.9042   -3.0799   -0.0000 C   0  0  0  0  0  0  0  0  0  0  0  0
   -6.4441   -0.9714   -0.0000 C   0  0  0  0  0  0  0  0  0  0  0  0
   -6.2546    2.0256   -0.0000 C   0  0  0  0  0  0  0  0  0  0  0  0
   -1.0543   -5.4372   -0.0000 C   0  0  0  0  0  0  0  0  0  0  0  0
   -3.5419   -3.6722   -0.0000 O   0  0  0  0  0  0  0  0  0  0  0  0
   -6.1243   -3.9565   -0.0000 C   0  0  0  0  0  0  0  0  0  0  0  0
   -7.6761   -1.8479   -0.0000 C   0  0  0  0  0  0  0  0  0  0  0  0
   -7.0127    0.7344   -0.0000 C   0  0  0  0  0  0  0  0  0  0  0  0
   -7.0127    3.3287   -0.0000 C   0  0  0  0  0  0  0  0  0  0  0  0
   -7.7708    2.0493   -0.0000 C   0  0  0  0  0  0  0  0  0  0  0  0
   -0.5923   -6.8469   -0.0000 C   0  0  0  0  0  0  0  0  0  0  0  0
   -3.3879   -5.1529   -0.0000 C   0  0  0  0  0  0  0  0  0  0  0  0
   -7.5221   -3.3405   -0.0000 C   0  0  0  0  0  0  0  0  0  0  0  0
   -1.4807   -8.0433   -0.0000 N   0  0  0  0  0  0  0  0  0  0  0  0
    0.8174   -7.2970   -0.0000 N   0  0  0  0  0  0  0  0  0  0  0  0
   -0.6041   -9.2397   -0.0000 O   0  0  0  0  0  0  0  0  0  0  0  0
    0.8055   -8.7777   -0.0000 C   0  0  0  0  0  0  0  0  0  0  0  0
    2.0019   -9.6425   -0.0000 C   0  0  0  0  0  0  0  0  0  0  0  0
  1  2  2  0  0  0  0
  2  3  1  0  0  0  0
  2  4  1  0  0  0  0
  3  5  1  0  0  0  0
  3  6  1  0  0  0  0
  4  7  1  0  0  0  0
  4  8  2  0  0  0  0
  5  9  2  0  0  0  0
  5 10  1  0  0  0  0
  6 11  1  0  0  0  0
  7 12  1  0  0  0  0
  8 13  1  0  0  0  0
  9 14  1  0  0  0  0
 10 15  2  0  0  0  0
 11 16  2  0  0  0  0
 11 17  1  0  0  0  0
 13 18  1  0  0  0  0
 14 19  2  0  0  0  0
 16 20  1  0  0  0  0
 16 21  1  0  0  0  0
 17 22  2  0  0  0  0
 18 23  1  0  0  0  0
 18 24  1  0  0  0  0
 18 25  1  0  0  0  0
 19 26  1  0  0  0  0
 20 27  1  0  0  0  0
 21 28  2  0  0  0  0
 26 29  2  0  0  0  0
 26 30  1  0  0  0  0
 29 31  1  0  0  0  0
 30 32  2  0  0  0  0
 32 33  1  0  0  0  0
  6  8  1  0  0  0  0
 12 13  2  0  0  0  0
 15 19  1  0  0  0  0
 22 28  1  0  0  0  0
 31 32  1  0  0  0  0
M  END
>  <MolRegNo>
2492956

>  <m>
=

>  <Value>
13000

>  <Unit>
nM

>  <Type>
IC50

>  <pValue>
4.89

>  <Ligand Efficiency>
0

>  <Binding Efficiency>
0

>  <Surface Efficiency>
0

>  <Assay Index>
1387805

>  <Assay Category>


>  <Assay Organism>
Homo sapiens

>  <Target ID>
17045

>  <Target Name>
Cytochrome P450 3A4

>  <Target Organism>
Homo sapiens

>  <Target Description>
Target is a single protein chain

>  <Sequence Accession>
P08684

>  <Reference>
Bioorg Med Chem Lett 30 (24), 127636-127636 (2020)

>  <Pubmed ID>
33132115

>  <DOI>
10.1016/j.bmcl.2020.127636

$$$$
2017758
Actelion Java MolfileCreator 1.0

 32 36  0  0  0  0  0  0  0  0999 V2000
    0.0000   -0.0000   -0.0000 O   0  0  0  0  0  0  0  0  0  0  0  0
   -0.0122   -1.2303   -0.0000 C   0  0  0  0  0  0  0  0  0  0  0  0
    1.2303   -2.1317   -0.0000 N   0  0  0  0  0  0  0  0  0  0  0  0
   -1.2790   -2.1317   -0.0000 C   0  0  0  0  0  0  0  0  0  0  0  0
    2.6921   -1.6445   -0.0000 C   0  0  0  0  0  0  0  0  0  0  0  0
    0.7431   -3.5935   -0.0000 C   0  0  0  0  0  0  0  0  0  0  0  0
   -2.8383   -2.1196   -0.0000 N   0  0  0  0  0  0  0  0  0  0  0  0
   -0.8161   -3.5935   -0.0000 C   0  0  0  0  0  0  0  0  0  0  0  0
    3.8980   -2.5824   -0.0000 C   0  0  0  0  0  0  0  0  0  0  0  0
    2.8870   -0.0975   -0.0000 C   0  0  0  0  0  0  0  0  0  0  0  0
    1.6445   -4.8360   -0.0000 C   0  0  0  0  0  0  0  0  0  0  0  0
   -3.3255   -3.5813   -0.0000 N   0  0  0  0  0  0  0  0  0  0  0  0
   -2.0830   -4.4949   -0.0000 C   0  0  0  0  0  0  0  0  0  0  0  0
    5.3232   -1.9856   -0.0000 C   0  0  0  0  0  0  0  0  0  0  0  0
    4.3122    0.4994   -0.0000 C   0  0  0  0  0  0  0  0  0  0  0  0
    3.1793   -4.7751   -0.0000 C   0  0  0  0  0  0  0  0  0  0  0  0
    0.8892   -6.1881   -0.0000 C   0  0  0  0  0  0  0  0  0  0  0  0
   -2.0952   -6.0298   -0.0000 C   0  0  0  0  0  0  0  0  0  0  0  0
    5.5181   -0.4385   -0.0000 C   0  0  0  0  0  0  0  0  0  0  0  0
    3.8980   -3.3986   -0.0000 O   0  0  0  0  0  0  0  0  0  0  0  0
    3.9833   -6.0785   -0.0000 C   0  0  0  0  0  0  0  0  0  0  0  0
    1.6932   -7.4915   -0.0000 C   0  0  0  0  0  0  0  0  0  0  0  0
   -3.1793   -6.6388   -0.0000 C   0  0  0  0  0  0  0  0  0  0  0  0
   -1.0354   -6.6388   -0.0000 C   0  0  0  0  0  0  0  0  0  0  0  0
   -2.1074   -7.2601   -0.0000 C   0  0  0  0  0  0  0  0  0  0  0  0
    6.9434    0.1584   -0.0000 C   0  0  0  0  0  0  0  0  0  0  0  0
    5.1283   -3.3499   -0.0000 C   0  0  0  0  0  0  0  0  0  0  0  0
    3.2402   -7.4306   -0.0000 C   0  0  0  0  0  0  0  0  0  0  0  0
    8.2346   -0.6456   -0.0000 O   0  0  0  0  0  0  0  0  0  0  0  0
    7.2723    1.6688   -0.0000 N   0  0  0  0  0  0  0  0  0  0  0  0
    9.4040    0.3654   -0.0000 C   0  0  0  0  0  0  0  0  0  0  0  0
    8.8071    1.8028   -0.0000 C   0  0  0  0  0  0  0  0  0  0  0  0
  1  2  2  0  0  0  0
  2  3  1  0  0  0  0
  2  4  1  0  0  0  0
  3  5  1  0  0  0  0
  3  6  1  0  0  0  0
  4  7  2  0  0  0  0
  4  8  1  0  0  0  0
  5  9  2  0  0  0  0
  5 10  1  0  0  0  0
  6 11  1  0  0  0  0
  7 12  1  0  0  0  0
  8 13  2  0  0  0  0
  9 14  1  0  0  0  0
 10 15  2  0  0  0  0
 11 16  2  0  0  0  0
 11 17  1  0  0  0  0
 13 18  1  0  0  0  0
 14 19  2  0  0  0  0
 16 20  1  0  0  0  0
 16 21  1  0  0  0  0
 17 22  2  0  0  0  0
 18 23  1  0  0  0  0
 18 24  1  0  0  0  0
 18 25  1  0  0  0  0
 19 26  1  0  0  0  0
 20 27  1  0  0  0  0
 21 28  2  0  0  0  0
 26 29  1  0  0  0  0
 26 30  2  0  0  0  0
 29 31  1  0  0  0  0
 30 32  1  0  0  0  0
  6  8  1  0  0  0  0
 12 13  1  0  0  0  0
 15 19  1  0  0  0  0
 22 28  1  0  0  0  0
 31 32  2  0  0  0  0
M  END
>  <MolRegNo>
2017758

>  <m>
=

>  <Value>
8000

>  <Unit>
nM

>  <Type>
IC50

>  <pValue>
5.1

>  <Ligand Efficiency>
0

>  <Binding Efficiency>
0

>  <Surface Efficiency>
0

>  <Assay Index>
1387805

>  <Assay Category>


>  <Assay Organism>
Homo sapiens

>  <Target ID>
17045

>  <Target Name>
Cytochrome P450 3A4

>  <Target Organism>
Homo sapiens

>  <Target Description>
Target is a single protein chain

>  <Sequence Accession>
P08684

>  <Reference>
Bioorg Med Chem Lett 30 (24), 127636-127636 (2020)

>  <Pubmed ID>
33132115

>  <DOI>
10.1016/j.bmcl.2020.127636

$$$$
2497855
Actelion Java MolfileCreator 1.0

 33 37  0  0  0  0  0  0  0  0999 V2000
    0.0000   -0.0000   -0.0000 O   0  0  0  0  0  0  0  0  0  0  0  0
   -1.5163    0.0118   -0.0000 C   0  0  0  0  0  0  0  0  0  0  0  0
   -2.4047   -1.1964   -0.0000 N   0  0  0  0  0  0  0  0  0  0  0  0
   -2.4047    1.2320   -0.0000 C   0  0  0  0  0  0  0  0  0  0  0  0
   -1.9546   -2.6061   -0.0000 C   0  0  0  0  0  0  0  0  0  0  0  0
   -3.8380   -0.7226   -0.0000 C   0  0  0  0  0  0  0  0  0  0  0  0
   -2.4165    2.7482   -0.0000 N   0  0  0  0  0  0  0  0  0  0  0  0
   -3.8380    0.7818   -0.0000 C   0  0  0  0  0  0  0  0  0  0  0  0
   -2.9733   -3.7196   -0.0000 C   0  0  0  0  0  0  0  0  0  0  0  0
   -0.4975   -2.9022   -0.0000 C   0  0  0  0  0  0  0  0  0  0  0  0
   -5.0582   -1.5992   -0.0000 C   0  0  0  0  0  0  0  0  0  0  0  0
   -3.8617    3.2221   -0.0000 N   0  0  0  0  0  0  0  0  0  0  0  0
   -4.7383    2.0138   -0.0000 C   0  0  0  0  0  0  0  0  0  0  0  0
   -2.5113   -5.1411   -0.0000 C   0  0  0  0  0  0  0  0  0  0  0  0
   -0.0355   -4.3119   -0.0000 C   0  0  0  0  0  0  0  0  0  0  0  0
   -4.9042   -3.0799   -0.0000 C   0  0  0  0  0  0  0  0  0  0  0  0
   -6.4441   -0.9714   -0.0000 C   0  0  0  0  0  0  0  0  0  0  0  0
   -6.2546    2.0256   -0.0000 C   0  0  0  0  0  0  0  0  0  0  0  0
   -1.0543   -5.4372   -0.0000 C   0  0  0  0  0  0  0  0  0  0  0  0
   -3.5419   -3.6722   -0.0000 O   0  0  0  0  0  0  0  0  0  0  0  0
   -6.1243   -3.9565   -0.0000 C   0  0  0  0  0  0  0  0  0  0  0  0
   -7.6761   -1.8479   -0.0000 C   0  0  0  0  0  0  0  0  0  0  0  0
   -7.0127    0.7344   -0.0000 C   0  0  0  0  0  0  0  0  0  0  0  0
   -7.0127    3.3287   -0.0000 C   0  0  0  0  0  0  0  0  0  0  0  0
   -7.7708    2.0493   -0.0000 C   0  0  0  0  0  0  0  0  0  0  0  0
   -0.5923   -6.8469   -0.0000 C   0  0  0  0  0  0  0  0  0  0  0  0
   -3.3879   -5.1529   -0.0000 C   0  0  0  0  0  0  0  0  0  0  0  0
   -7.5221   -3.3405   -0.0000 C   0  0  0  0  0  0  0  0  0  0  0  0
   -1.4807   -8.0433   -0.0000 O   0  0  0  0  0  0  0  0  0  0  0  0
    0.8174   -7.2970   -0.0000 C   0  0  0  0  0  0  0  0  0  0  0  0
   -0.6041   -9.2397   -0.0000 N   0  0  0  0  0  0  0  0  0  0  0  0
    0.8055   -8.7777   -0.0000 C   0  0  0  0  0  0  0  0  0  0  0  0
    2.0019   -9.6425   -0.0000 C   0  0  0  0  0  0  0  0  0  0  0  0
  1  2  2  0  0  0  0
  2  3  1  0  0  0  0
  2  4  1  0  0  0  0
  3  5  1  0  0  0  0
  3  6  1  0  0  0  0
  4  7  1  0  0  0  0
  4  8  2  0  0  0  0
  5  9  2  0  0  0  0
  5 10  1  0  0  0  0
  6 11  1  0  0  0  0
  7 12  1  0  0  0  0
  8 13  1  0  0  0  0
  9 14  1  0  0  0  0
 10 15  2  0  0  0  0
 11 16  2  0  0  0  0
 11 17  1  0  0  0  0
 13 18  1  0  0  0  0
 14 19  2  0  0  0  0
 16 20  1  0  0  0  0
 16 21  1  0  0  0  0
 17 22  2  0  0  0  0
 18 23  1  0  0  0  0
 18 24  1  0  0  0  0
 18 25  1  0  0  0  0
 19 26  1  0  0  0  0
 20 27  1  0  0  0  0
 21 28  2  0  0  0  0
 26 29  1  0  0  0  0
 26 30  2  0  0  0  0
 29 31  1  0  0  0  0
 30 32  1  0  0  0  0
 32 33  1  0  0  0  0
  6  8  1  0  0  0  0
 12 13  2  0  0  0  0
 15 19  1  0  0  0  0
 22 28  1  0  0  0  0
 31 32  2  0  0  0  0
M  END
>  <MolRegNo>
2497855

>  <m>
=

>  <Value>
2000

>  <Unit>
nM

>  <Type>
IC50

>  <pValue>
5.7

>  <Ligand Efficiency>
0

>  <Binding Efficiency>
0

>  <Surface Efficiency>
0

>  <Assay Index>
1387805

>  <Assay Category>


>  <Assay Organism>
Homo sapiens

>  <Target ID>
17045

>  <Target Name>
Cytochrome P450 3A4

>  <Target Organism>
Homo sapiens

>  <Target Description>
Target is a single protein chain

>  <Sequence Accession>
P08684

>  <Reference>
Bioorg Med Chem Lett 30 (24), 127636-127636 (2020)

>  <Pubmed ID>
33132115

>  <DOI>
10.1016/j.bmcl.2020.127636

$$$$
2013003
Actelion Java MolfileCreator 1.0

 32 35  0  0  0  0  0  0  0  0999 V2000
    0.0000   -0.0000   -0.0000 O   0  0  0  0  0  0  0  0  0  0  0  0
    0.7274    1.0233   -0.0000 C   0  0  0  0  0  0  0  0  0  0  0  0
    2.2809    1.0357   -0.0000 N   0  0  0  0  0  0  0  0  0  0  0  0
    0.2343    2.5275   -0.0000 C   0  0  0  0  0  0  0  0  0  0  0  0
    3.1933   -0.2219   -0.0000 C   0  0  0  0  0  0  0  0  0  0  0  0
    2.7494    2.5398   -0.0000 C   0  0  0  0  0  0  0  0  0  0  0  0
   -1.0480    3.4645   -0.0000 N   0  0  0  0  0  0  0  0  0  0  0  0
    1.4919    3.4645   -0.0000 C   0  0  0  0  0  0  0  0  0  0  0  0
    4.7468   -0.1603   -0.0000 C   0  0  0  0  0  0  0  0  0  0  0  0
    2.4289   -1.5905   -0.0000 C   0  0  0  0  0  0  0  0  0  0  0  0
    4.2290    3.0330   -0.0000 C   0  0  0  0  0  0  0  0  0  0  0  0
   -0.5795    4.9687   -0.0000 N   0  0  0  0  0  0  0  0  0  0  0  0
    0.9987    4.9687   -0.0000 C   0  0  0  0  0  0  0  0  0  0  0  0
    5.5605   -1.4795   -0.0000 C   0  0  0  0  0  0  0  0  0  0  0  0
    3.2426   -2.9097   -0.0000 C   0  0  0  0  0  0  0  0  0  0  0  0
    5.4496    2.0960   -0.0000 C   0  0  0  0  0  0  0  0  0  0  0  0
    4.4262    4.5989   -0.0000 C   0  0  0  0  0  0  0  0  0  0  0  0
    1.9111    6.2510   -0.0000 C   0  0  0  0  0  0  0  0  0  0  0  0
    4.8084   -2.8481   -0.0000 C   0  0  0  0  0  0  0  0  0  0  0  0
    5.2276    0.5548   -0.0000 O   0  0  0  0  0  0  0  0  0  0  0  0
    6.8798    2.7001   -0.0000 C   0  0  0  0  0  0  0  0  0  0  0  0
    5.8564    5.2030   -0.0000 C   0  0  0  0  0  0  0  0  0  0  0  0
    1.3932    7.4099   -0.0000 C   0  0  0  0  0  0  0  0  0  0  0  0
    3.1440    6.1277   -0.0000 C   0  0  0  0  0  0  0  0  0  0  0  0
    2.6385    7.2743   -0.0000 C   0  0  0  0  0  0  0  0  0  0  0  0
    5.6222   -4.1673   -0.0000 C   0  0  0  0  0  0  0  0  0  0  0  0
    6.2017   -0.1973   -0.0000 C   0  0  0  0  0  0  0  0  0  0  0  0
    7.0771    4.2660   -0.0000 C   0  0  0  0  0  0  0  0  0  0  0  0
    6.8675   -4.1180   -0.0000 O   0  0  0  0  0  0  0  0  0  0  0  0
    4.8701   -5.5359   -0.0000 O   0  0  0  0  0  0  0  0  0  0  0  0
    5.6838   -6.8551   -0.0000 C   0  0  0  0  0  0  0  0  0  0  0  0
    5.0797   -7.9401   -0.0000 C   0  0  0  0  0  0  0  0  0  0  0  0
  1  2  2  0  0  0  0
  2  3  1  0  0  0  0
  2  4  1  0  0  0  0
  3  5  1  0  0  0  0
  3  6  1  0  0  0  0
  4  7  2  0  0  0  0
  4  8  1  0  0  0  0
  5  9  2  0  0  0  0
  5 10  1  0  0  0  0
  6 11  1  0  0  0  0
  7 12  1  0  0  0  0
  8 13  2  0  0  0  0
  9 14  1  0  0  0  0
 10 15  2  0  0  0  0
 11 16  2  0  0  0  0
 11 17  1  0  0  0  0
 13 18  1  0  0  0  0
 14 19  2  0  0  0  0
 16 20  1  0  0  0  0
 16 21  1  0  0  0  0
 17 22  2  0  0  0  0
 18 23  1  0  0  0  0
 18 24  1  0  0  0  0
 18 25  1  0  0  0  0
 19 26  1  0  0  0  0
 20 27  1  0  0  0  0
 21 28  2  0  0  0  0
 26 29  2  0  0  0  0
 26 30  1  0  0  0  0
 30 31  1  0  0  0  0
 31 32  1  0  0  0  0
  6  8  1  0  0  0  0
 12 13  1  0  0  0  0
 15 19  1  0  0  0  0
 22 28  1  0  0  0  0
M  END
>  <MolRegNo>
2013003

>  <m>
=

>  <Value>
5000

>  <Unit>
nM

>  <Type>
IC50

>  <pValue>
5.3

>  <Ligand Efficiency>
0

>  <Binding Efficiency>
0

>  <Surface Efficiency>
0

>  <Assay Index>
1387805

>  <Assay Category>


>  <Assay Organism>
Homo sapiens

>  <Target ID>
17045

>  <Target Name>
Cytochrome P450 3A4

>  <Target Organism>
Homo sapiens

>  <Target Description>
Target is a single protein chain

>  <Sequence Accession>
P08684

>  <Reference>
Bioorg Med Chem Lett 30 (24), 127636-127636 (2020)

>  <Pubmed ID>
33132115

>  <DOI>
10.1016/j.bmcl.2020.127636

$$$$
2492953
Actelion Java MolfileCreator 1.0

 28 31  0  0  0  0  0  0  0  0999 V2000
    0.0000   -0.0000   -0.0000 F   0  0  0  0  0  0  0  0  0  0  0  0
   -0.4711    1.4252   -0.0000 C   0  0  0  0  0  0  0  0  0  0  0  0
   -1.9434    1.7432   -0.0000 C   0  0  0  0  0  0  0  0  0  0  0  0
    0.5182    2.5559   -0.0000 C   0  0  0  0  0  0  0  0  0  0  0  0
   -2.4263    3.1802   -0.0000 C   0  0  0  0  0  0  0  0  0  0  0  0
    0.0353    3.9811   -0.0000 C   0  0  0  0  0  0  0  0  0  0  0  0
   -1.4370    4.3109   -0.0000 C   0  0  0  0  0  0  0  0  0  0  0  0
   -1.9081    5.7361   -0.0000 N   0  0  0  0  0  0  0  0  0  0  0  0
   -1.0483    6.9610   -0.0000 C   0  0  0  0  0  0  0  0  0  0  0  0
   -3.3333    6.2072   -0.0000 C   0  0  0  0  0  0  0  0  0  0  0  0
    0.4358    6.9728   -0.0000 O   0  0  0  0  0  0  0  0  0  0  0  0
   -1.9317    8.1742   -0.0000 C   0  0  0  0  0  0  0  0  0  0  0  0
   -4.5464    5.3356   -0.0000 C   0  0  0  0  0  0  0  0  0  0  0  0
   -3.3451    7.7031   -0.0000 C   0  0  0  0  0  0  0  0  0  0  0  0
   -1.9434    9.6818   -0.0000 N   0  0  0  0  0  0  0  0  0  0  0  0
   -4.3933    3.8633   -0.0000 C   0  0  0  0  0  0  0  0  0  0  0  0
   -5.9245    5.9599   -0.0000 C   0  0  0  0  0  0  0  0  0  0  0  0
   -4.2402    8.9280   -0.0000 C   0  0  0  0  0  0  0  0  0  0  0  0
   -3.3804   10.1530   -0.0000 N   0  0  0  0  0  0  0  0  0  0  0  0
   -3.0388    3.2744   -0.0000 O   0  0  0  0  0  0  0  0  0  0  0  0
   -5.6065    2.9917   -0.0000 C   0  0  0  0  0  0  0  0  0  0  0  0
   -7.1495    5.0883   -0.0000 C   0  0  0  0  0  0  0  0  0  0  0  0
   -5.7478    8.9398   -0.0000 C   0  0  0  0  0  0  0  0  0  0  0  0
   -2.8857    1.8021   -0.0000 C   0  0  0  0  0  0  0  0  0  0  0  0
   -6.9963    3.6042   -0.0000 C   0  0  0  0  0  0  0  0  0  0  0  0
   -6.5017    7.6559   -0.0000 C   0  0  0  0  0  0  0  0  0  0  0  0
   -6.5017   10.2354   -0.0000 C   0  0  0  0  0  0  0  0  0  0  0  0
   -7.2555    8.9633   -0.0000 C   0  0  0  0  0  0  0  0  0  0  0  0
  1  2  1  0  0  0  0
  2  3  2  0  0  0  0
  2  4  1  0  0  0  0
  3  5  1  0  0  0  0
  4  6  2  0  0  0  0
  5  7  2  0  0  0  0
  7  8  1  0  0  0  0
  8  9  1  0  0  0  0
  8 10  1  0  0  0  0
  9 11  2  0  0  0  0
  9 12  1  0  0  0  0
 10 13  1  0  0  0  0
 10 14  1  0  0  0  0
 12 15  1  0  0  0  0
 13 16  2  0  0  0  0
 13 17  1  0  0  0  0
 14 18  1  0  0  0  0
 15 19  1  0  0  0  0
 16 20  1  0  0  0  0
 16 21  1  0  0  0  0
 17 22  2  0  0  0  0
 18 23  1  0  0  0  0
 20 24  1  0  0  0  0
 21 25  2  0  0  0  0
 23 26  1  0  0  0  0
 23 27  1  0  0  0  0
 23 28  1  0  0  0  0
  6  7  1  0  0  0  0
 12 14  2  0  0  0  0
 18 19  2  0  0  0  0
 22 25  1  0  0  0  0
M  END
>  <MolRegNo>
2492953

>  <m>
=

>  <Value>
18000

>  <Unit>
nM

>  <Type>
IC50

>  <pValue>
4.75

>  <Ligand Efficiency>
0

>  <Binding Efficiency>
0

>  <Surface Efficiency>
0

>  <Assay Index>
1387805

>  <Assay Category>


>  <Assay Organism>
Homo sapiens

>  <Target ID>
17045

>  <Target Name>
Cytochrome P450 3A4

>  <Target Organism>
Homo sapiens

>  <Target Description>
Target is a single protein chain

>  <Sequence Accession>
P08684

>  <Reference>
Bioorg Med Chem Lett 30 (24), 127636-127636 (2020)

>  <Pubmed ID>
33132115

>  <DOI>
10.1016/j.bmcl.2020.127636

$$$$
2489619
Actelion Java MolfileCreator 1.0

 31 35  0  0  0  0  0  0  0  0999 V2000
    0.0000   -0.0000   -0.0000 O   0  0  0  0  0  0  0  0  0  0  0  0
   -1.5157    0.0118   -0.0000 C   0  0  0  0  0  0  0  0  0  0  0  0
   -2.4038   -1.1960   -0.0000 N   0  0  0  0  0  0  0  0  0  0  0  0
   -2.4038    1.2315   -0.0000 C   0  0  0  0  0  0  0  0  0  0  0  0
   -1.9538   -2.6051   -0.0000 C   0  0  0  0  0  0  0  0  0  0  0  0
   -3.8365   -0.7223   -0.0000 C   0  0  0  0  0  0  0  0  0  0  0  0
   -2.4156    2.7472   -0.0000 N   0  0  0  0  0  0  0  0  0  0  0  0
   -3.8365    0.7815   -0.0000 C   0  0  0  0  0  0  0  0  0  0  0  0
   -2.9721   -3.7181   -0.0000 C   0  0  0  0  0  0  0  0  0  0  0  0
   -0.4973   -2.9011   -0.0000 C   0  0  0  0  0  0  0  0  0  0  0  0
   -5.0562   -1.5986   -0.0000 C   0  0  0  0  0  0  0  0  0  0  0  0
   -3.8602    3.2208   -0.0000 N   0  0  0  0  0  0  0  0  0  0  0  0
   -4.7365    2.0130   -0.0000 C   0  0  0  0  0  0  0  0  0  0  0  0
   -2.5103   -5.1391   -0.0000 C   0  0  0  0  0  0  0  0  0  0  0  0
   -0.0355   -4.3102   -0.0000 C   0  0  0  0  0  0  0  0  0  0  0  0
   -4.9022   -3.0787   -0.0000 C   0  0  0  0  0  0  0  0  0  0  0  0
   -6.4416   -0.9710   -0.0000 C   0  0  0  0  0  0  0  0  0  0  0  0
   -6.2521    2.0248   -0.0000 C   0  0  0  0  0  0  0  0  0  0  0  0
   -1.0539   -5.4351   -0.0000 C   0  0  0  0  0  0  0  0  0  0  0  0
   -3.5405   -3.6708   -0.0000 O   0  0  0  0  0  0  0  0  0  0  0  0
   -6.1219   -3.9549   -0.0000 C   0  0  0  0  0  0  0  0  0  0  0  0
   -7.6731   -1.8472   -0.0000 C   0  0  0  0  0  0  0  0  0  0  0  0
   -7.0218    3.3274   -0.0000 C   0  0  0  0  0  0  0  0  0  0  0  0
   -0.5921   -6.8442   -0.0000 C   0  0  0  0  0  0  0  0  0  0  0  0
   -3.3866   -5.1509   -0.0000 C   0  0  0  0  0  0  0  0  0  0  0  0
   -7.5191   -3.3392   -0.0000 C   0  0  0  0  0  0  0  0  0  0  0  0
   -8.5256    3.3392   -0.0000 O   0  0  0  0  0  0  0  0  0  0  0  0
   -1.4801   -8.0402   -0.0000 N   0  0  0  0  0  0  0  0  0  0  0  0
    0.8170   -7.2942   -0.0000 C   0  0  0  0  0  0  0  0  0  0  0  0
   -0.6039   -9.2361   -0.0000 O   0  0  0  0  0  0  0  0  0  0  0  0
    0.8052   -8.7743   -0.0000 C   0  0  0  0  0  0  0  0  0  0  0  0
  1  2  2  0  0  0  0
  2  3  1  0  0  0  0
  2  4  1  0  0  0  0
  3  5  1  0  0  0  0
  3  6  1  0  0  0  0
  4  7  1  0  0  0  0
  4  8  2  0  0  0  0
  5  9  2  0  0  0  0
  5 10  1  0  0  0  0
  6 11  1  0  0  0  0
  7 12  1  0  0  0  0
  8 13  1  0  0  0  0
  9 14  1  0  0  0  0
 10 15  2  0  0  0  0
 11 16  2  0  0  0  0
 11 17  1  0  0  0  0
 13 18  1  0  0  0  0
 14 19  2  0  0  0  0
 16 20  1  0  0  0  0
 16 21  1  0  0  0  0
 17 22  2  0  0  0  0
 18 23  1  0  0  0  0
 19 24  1  0  0  0  0
 20 25  1  0  0  0  0
 21 26  2  0  0  0  0
 23 27  1  0  0  0  0
 24 28  2  0  0  0  0
 24 29  1  0  0  0  0
 28 30  1  0  0  0  0
 29 31  2  0  0  0  0
  6  8  1  0  0  0  0
 12 13  2  0  0  0  0
 15 19  1  0  0  0  0
 22 26  1  0  0  0  0
 30 31  1  0  0  0  0
M  END
>  <MolRegNo>
2489619

>  <m>
=

>  <Value>
16000

>  <Unit>
nM

>  <Type>
IC50

>  <pValue>
4.8

>  <Ligand Efficiency>
0

>  <Binding Efficiency>
0

>  <Surface Efficiency>
0

>  <Assay Index>
1387805

>  <Assay Category>


>  <Assay Organism>
Homo sapiens

>  <Target ID>
17045

>  <Target Name>
Cytochrome P450 3A4

>  <Target Organism>
Homo sapiens

>  <Target Description>
Target is a single protein chain

>  <Sequence Accession>
P08684

>  <Reference>
Bioorg Med Chem Lett 30 (24), 127636-127636 (2020)

>  <Pubmed ID>
33132115

>  <DOI>
10.1016/j.bmcl.2020.127636

$$$$
2524865
Actelion Java MolfileCreator 1.0

 62 69  0  0  0  0  0  0  0  0999 V2000
    0.0000   -0.0000   -0.0000 Cl  0  0  0  0  0  0  0  0  0  0  0  0
   -1.4767   -0.3096   -0.0000 C   0  0  0  0  0  0  0  0  0  0  0  0
   -2.5009    0.8098   -0.0000 C   0  0  0  0  0  0  0  0  0  0  0  0
   -1.9412   -1.7268   -0.0000 C   0  0  0  0  0  0  0  0  0  0  0  0
   -2.0603    2.2508   -0.0000 O   0  0  0  0  0  0  0  0  0  0  0  0
   -3.9896    0.4883   -0.0000 C   0  0  0  0  0  0  0  0  0  0  0  0
   -3.4179   -2.0365   -0.0000 C   0  0  0  0  0  0  0  0  0  0  0  0
   -0.9408   -2.8225   -0.0000 C   0  0  0  0  0  0  0  0  0  0  0  0
   -0.6074    2.5962   -0.0000 C   0  0  0  0  0  0  0  0  0  0  0  0
   -4.4421   -0.9289   -0.0000 C   0  0  0  0  0  0  0  0  0  0  0  0
   -3.8705   -3.4536   -0.0000 C   0  0  0  0  0  0  0  0  0  0  0  0
    0.4049    1.5005   -0.0000 C   0  0  0  0  0  0  0  0  0  0  0  0
   -2.9892   -4.6446   -0.0000 C   0  0  0  0  0  0  0  0  0  0  0  0
   -5.2996   -3.9181   -0.0000 C   0  0  0  0  0  0  0  0  0  0  0  0
    1.8578    1.8459   -0.0000 N   0  0  0  0  0  0  0  0  0  0  0  0
   -3.8705   -5.8474   -0.0000 S   0  0  0  0  0  0  0  0  0  0  0  0
   -1.5005   -4.6207   -0.0000 C   0  0  0  0  0  0  0  0  0  0  0  0
   -6.6096   -3.1678   -0.0000 C   0  0  0  0  0  0  0  0  0  0  0  0
   -5.2996   -5.3948   -0.0000 C   0  0  0  0  0  0  0  0  0  0  0  0
    2.8701    0.7503   -0.0000 C   0  0  0  0  0  0  0  0  0  0  0  0
    2.2866    3.2869   -0.0000 C   0  0  0  0  0  0  0  0  0  0  0  0
   -0.7503   -5.9069   -0.0000 C   0  0  0  0  0  0  0  0  0  0  0  0
   -0.7741   -3.2988   -0.0000 C   0  0  0  0  0  0  0  0  0  0  0  0
   -6.6215   -1.6554   -0.0000 O   0  0  0  0  0  0  0  0  0  0  0  0
   -7.9196   -3.9062   -0.0000 N   0  0  0  0  0  0  0  0  0  0  0  0
   -6.6215   -6.1451   -0.0000 N   0  0  0  0  0  0  0  0  0  0  0  0
    4.3230    1.0837   -0.0000 C   0  0  0  0  0  0  0  0  0  0  0  0
    3.7514    3.6204   -0.0000 C   0  0  0  0  0  0  0  0  0  0  0  0
    0.7384   -5.8831   -0.0000 C   0  0  0  0  0  0  0  0  0  0  0  0
    0.7145   -3.2631   -0.0000 C   0  0  0  0  0  0  0  0  0  0  0  0
   -7.9315   -0.8932   -0.0000 C   0  0  0  0  0  0  0  0  0  0  0  0
   -7.9315   -5.3948   -0.0000 C   0  0  0  0  0  0  0  0  0  0  0  0
    4.7636    2.5247   -0.0000 N   0  0  0  0  0  0  0  0  0  0  0  0
    1.4648   -4.5612   -0.0000 C   0  0  0  0  0  0  0  0  0  0  0  0
   -9.2415   -1.6315   -0.0000 C   0  0  0  0  0  0  0  0  0  0  0  0
   -7.9434    0.6193   -0.0000 C   0  0  0  0  0  0  0  0  0  0  0  0
    6.2166    2.8582   -0.0000 C   0  0  0  0  0  0  0  0  0  0  0  0
    2.9535   -4.5374   -0.0000 F   0  0  0  0  0  0  0  0  0  0  0  0
   -9.2534   -3.1202   -0.0000 O   0  0  0  0  0  0  0  0  0  0  0  0
  -10.5515   -0.8694   -0.0000 O   0  0  0  0  0  0  0  0  0  0  0  0
   -9.2534    1.3815   -0.0000 C   0  0  0  0  0  0  0  0  0  0  0  0
   -9.2653    2.9058   -0.0000 C   0  0  0  0  0  0  0  0  0  0  0  0
  -10.5753    0.6431   -0.0000 C   0  0  0  0  0  0  0  0  0  0  0  0
   -7.9791    3.6680   -0.0000 O   0  0  0  0  0  0  0  0  0  0  0  0
  -10.5753    3.6680   -0.0000 C   0  0  0  0  0  0  0  0  0  0  0  0
  -11.8853    1.4053   -0.0000 C   0  0  0  0  0  0  0  0  0  0  0  0
   -7.9910    5.1805   -0.0000 C   0  0  0  0  0  0  0  0  0  0  0  0
  -11.8853    2.9296   -0.0000 C   0  0  0  0  0  0  0  0  0  0  0  0
   -6.7048    5.9427   -0.0000 C   0  0  0  0  0  0  0  0  0  0  0  0
   -5.4187    5.2043   -0.0000 N   0  0  0  0  0  0  0  0  0  0  0  0
   -6.7287    7.4432   -0.0000 C   0  0  0  0  0  0  0  0  0  0  0  0
   -4.1325    5.9665   -0.0000 C   0  0  0  0  0  0  0  0  0  0  0  0
   -5.4544    8.2173   -0.0000 C   0  0  0  0  0  0  0  0  0  0  0  0
   -4.1444    7.4789   -0.0000 N   0  0  0  0  0  0  0  0  0  0  0  0
   -2.8463    5.2281   -0.0000 C   0  0  0  0  0  0  0  0  0  0  0  0
   -1.5720    5.9903   -0.0000 C   0  0  0  0  0  0  0  0  0  0  0  0
   -2.8582    3.7395   -0.0000 C   0  0  0  0  0  0  0  0  0  0  0  0
   -1.5958    7.5027   -0.0000 O   0  0  0  0  0  0  0  0  0  0  0  0
   -0.2858    5.2638   -0.0000 C   0  0  0  0  0  0  0  0  0  0  0  0
   -1.5720    3.0011   -0.0000 C   0  0  0  0  0  0  0  0  0  0  0  0
   -0.3096    8.2768   -0.0000 C   0  0  0  0  0  0  0  0  0  0  0  0
   -0.2858    3.7633   -0.0000 C   0  0  0  0  0  0  0  0  0  0  0  0
  1  2  1  0  0  0  0
  2  3  2  0  0  0  0
  2  4  1  0  0  0  0
  3  5  1  0  0  0  0
  3  6  1  0  0  0  0
  4  7  2  0  0  0  0
  4  8  1  0  0  0  0
  5  9  1  0  0  0  0
  6 10  2  0  0  0  0
  7 11  1  0  0  0  0
  9 12  1  0  0  0  0
 11 13  2  0  0  0  0
 11 14  1  0  0  0  0
 12 15  1  0  0  0  0
 13 16  1  0  0  0  0
 13 17  1  0  0  0  0
 14 18  2  0  0  0  0
 14 19  1  0  0  0  0
 15 20  1  0  0  0  0
 15 21  1  0  0  0  0
 17 22  2  0  0  0  0
 17 23  1  0  0  0  0
 18 24  1  0  0  0  0
 18 25  1  0  0  0  0
 19 26  2  0  0  0  0
 20 27  1  0  0  0  0
 21 28  1  0  0  0  0
 22 29  1  0  0  0  0
 23 30  2  0  0  0  0
 31 24  1  6  0  0  0
 25 32  2  0  0  0  0
 27 33  1  0  0  0  0
 29 34  2  0  0  0  0
 31 35  1  0  0  0  0
 31 36  1  0  0  0  0
 33 37  1  0  0  0  0
 34 38  1  0  0  0  0
 35 39  2  0  0  0  0
 35 40  1  0  0  0  0
 36 41  1  0  0  0  0
 41 42  2  0  0  0  0
 41 43  1  0  0  0  0
 42 44  1  0  0  0  0
 42 45  1  0  0  0  0
 43 46  2  0  0  0  0
 44 47  1  0  0  0  0
 45 48  2  0  0  0  0
 47 49  1  0  0  0  0
 49 50  2  0  0  0  0
 49 51  1  0  0  0  0
 50 52  1  0  0  0  0
 51 53  2  0  0  0  0
 52 54  2  0  0  0  0
 52 55  1  0  0  0  0
 55 56  2  0  0  0  0
 55 57  1  0  0  0  0
 56 58  1  0  0  0  0
 56 59  1  0  0  0  0
 57 60  2  0  0  0  0
 58 61  1  0  0  0  0
 59 62  2  0  0  0  0
  7 10  1  0  0  0  0
 16 19  1  0  0  0  0
 26 32  1  0  0  0  0
 28 33  1  0  0  0  0
 30 34  1  0  0  0  0
 46 48  1  0  0  0  0
 53 54  1  0  0  0  0
 60 62  1  0  0  0  0
M  END
>  <MolRegNo>
2524865

>  <m>
=

>  <Value>
1800

>  <Unit>
nM

>  <Type>
IC50

>  <pValue>
5.75

>  <Ligand Efficiency>
0

>  <Binding Efficiency>
0

>  <Surface Efficiency>
0

>  <Assay Index>
1387827

>  <Assay Category>


>  <Assay Organism>
Homo sapiens

>  <Target ID>
17045

>  <Target Name>
Cytochrome P450 3A4

>  <Target Organism>
Homo sapiens

>  <Target Description>
Target is a single protein chain

>  <Sequence Accession>
P08684

>  <Reference>
J Med Chem 63 (22), 13762-13795 (2020)

>  <Pubmed ID>
33146521

>  <DOI>
10.1021/acs.jmedchem.0c01234

$$$$
2515397
Actelion Java MolfileCreator 1.0

 35 39  0  0  0  0  0  0  0  0999 V2000
    0.0000   -0.0000   -0.0000 S   0  0  0  0  0  0  0  0  0  0  0  0
    0.1425   -1.4847   -0.0000 C   0  0  0  0  0  0  0  0  0  0  0  0
   -1.4847    0.3326   -0.0000 C   0  0  0  0  0  0  0  0  0  0  0  0
   -1.2472   -2.0905   -0.0000 N   0  0  0  0  0  0  0  0  0  0  0  0
    1.4372   -2.2211   -0.0000 N   0  0  0  0  0  0  0  0  0  0  0  0
   -2.2449   -0.9621   -0.0000 C   0  0  0  0  0  0  0  0  0  0  0  0
    2.7319   -1.4610   -0.0000 C   0  0  0  0  0  0  0  0  0  0  0  0
   -3.7652   -0.9383   -0.0000 C   0  0  0  0  0  0  0  0  0  0  0  0
    2.7200    0.0594   -0.0000 O   0  0  0  0  0  0  0  0  0  0  0  0
    4.0265   -2.1974   -0.0000 C   0  0  0  0  0  0  0  0  0  0  0  0
   -4.6798   -2.1380   -0.0000 C   0  0  0  0  0  0  0  0  0  0  0  0
   -4.6560    0.3088   -0.0000 C   0  0  0  0  0  0  0  0  0  0  0  0
    5.3212   -1.4372   -0.0000 C   0  0  0  0  0  0  0  0  0  0  0  0
   -4.3947   -3.5871   -0.0000 C   0  0  0  0  0  0  0  0  0  0  0  0
   -6.1170   -1.6391   -0.0000 C   0  0  0  0  0  0  0  0  0  0  0  0
   -6.1051   -0.1307   -0.0000 N   0  0  0  0  0  0  0  0  0  0  0  0
    6.6159   -2.1855   -0.0000 C   0  0  0  0  0  0  0  0  0  0  0  0
    5.3093    0.0713   -0.0000 C   0  0  0  0  0  0  0  0  0  0  0  0
   -2.9813   -4.0503   -0.0000 F   0  0  0  0  0  0  0  0  0  0  0  0
   -5.5350   -4.5729   -0.0000 C   0  0  0  0  0  0  0  0  0  0  0  0
   -7.2572   -2.6131   -0.0000 N   0  0  0  0  0  0  0  0  0  0  0  0
    7.8986   -1.4253   -0.0000 C   0  0  0  0  0  0  0  0  0  0  0  0
    6.5921    0.8433   -0.0000 C   0  0  0  0  0  0  0  0  0  0  0  0
   -6.9841   -4.0740   -0.0000 C   0  0  0  0  0  0  0  0  0  0  0  0
    9.1814   -2.1617   -0.0000 O   0  0  0  0  0  0  0  0  0  0  0  0
    7.8868    0.0950   -0.0000 C   0  0  0  0  0  0  0  0  0  0  0  0
   10.4642   -1.4016   -0.0000 C   0  0  0  0  0  0  0  0  0  0  0  0
   11.7470   -2.1380   -0.0000 C   0  0  0  0  0  0  0  0  0  0  0  0
   13.0298   -1.3778   -0.0000 C   0  0  0  0  0  0  0  0  0  0  0  0
   14.3126   -2.1142   -0.0000 C   0  0  0  0  0  0  0  0  0  0  0  0
   14.2888   -3.6108   -0.0000 C   0  0  0  0  0  0  0  0  0  0  0  0
   15.5954   -1.3541   -0.0000 C   0  0  0  0  0  0  0  0  0  0  0  0
   15.5716   -4.3472   -0.0000 C   0  0  0  0  0  0  0  0  0  0  0  0
   16.8781   -2.1023   -0.0000 C   0  0  0  0  0  0  0  0  0  0  0  0
   16.8663   -3.5871   -0.0000 N   0  0  0  0  0  0  0  0  0  0  0  0
  1  2  1  0  0  0  0
  1  3  1  0  0  0  0
  2  4  2  0  0  0  0
  2  5  1  0  0  0  0
  3  6  2  0  0  0  0
  5  7  1  0  0  0  0
  6  8  1  0  0  0  0
  7  9  2  0  0  0  0
  7 10  1  0  0  0  0
  8 11  1  0  0  0  0
  8 12  2  0  0  0  0
 10 13  1  0  0  0  0
 11 14  2  0  0  0  0
 11 15  1  0  0  0  0
 12 16  1  0  0  0  0
 13 17  2  0  0  0  0
 13 18  1  0  0  0  0
 14 19  1  0  0  0  0
 14 20  1  0  0  0  0
 15 21  2  0  0  0  0
 17 22  1  0  0  0  0
 18 23  2  0  0  0  0
 20 24  2  0  0  0  0
 22 25  1  0  0  0  0
 22 26  2  0  0  0  0
 25 27  1  0  0  0  0
 27 28  1  0  0  0  0
 28 29  1  0  0  0  0
 29 30  1  0  0  0  0
 30 31  1  0  0  0  0
 30 32  1  0  0  0  0
 31 33  1  0  0  0  0
 32 34  1  0  0  0  0
 33 35  1  0  0  0  0
  4  6  1  0  0  0  0
 15 16  1  0  0  0  0
 21 24  1  0  0  0  0
 23 26  1  0  0  0  0
 34 35  1  0  0  0  0
M  END
>  <MolRegNo>
2515397

>  <m>
=

>  <Value>
1.0e5

>  <Unit>
nM

>  <Type>
IC50

>  <pValue>
4

>  <Ligand Efficiency>
0

>  <Binding Efficiency>
0

>  <Surface Efficiency>
0

>  <Assay Index>
1389131

>  <Assay Category>


>  <Assay Organism>
Homo sapiens

>  <Target ID>
17045

>  <Target Name>
Cytochrome P450 3A4

>  <Target Organism>
Homo sapiens

>  <Target Description>
Target is a single protein chain

>  <Sequence Accession>
P08684

>  <Reference>


>  <Pubmed ID>
33259926

>  <DOI>
10.1016/j.bmcl.2020.127721

$$$$
2489818
Actelion Java MolfileCreator 1.0

 35 39  0  0  0  0  0  0  0  0999 V2000
    0.0000   -0.0000   -0.0000 S   0  0  0  0  0  0  0  0  0  0  0  0
    0.1423   -1.4828   -0.0000 C   0  0  0  0  0  0  0  0  0  0  0  0
   -1.4828    0.3321   -0.0000 C   0  0  0  0  0  0  0  0  0  0  0  0
   -1.2456   -2.0878   -0.0000 N   0  0  0  0  0  0  0  0  0  0  0  0
    1.4354   -2.2183   -0.0000 N   0  0  0  0  0  0  0  0  0  0  0  0
   -2.2420   -0.9609   -0.0000 C   0  0  0  0  0  0  0  0  0  0  0  0
    2.7284   -1.4591   -0.0000 C   0  0  0  0  0  0  0  0  0  0  0  0
   -3.7604   -0.9371   -0.0000 C   0  0  0  0  0  0  0  0  0  0  0  0
    2.7165    0.0593   -0.0000 O   0  0  0  0  0  0  0  0  0  0  0  0
    4.0214   -2.1945   -0.0000 C   0  0  0  0  0  0  0  0  0  0  0  0
   -4.6738   -2.1352   -0.0000 C   0  0  0  0  0  0  0  0  0  0  0  0
   -4.6501    0.3084   -0.0000 C   0  0  0  0  0  0  0  0  0  0  0  0
    5.3144   -1.4354   -0.0000 C   0  0  0  0  0  0  0  0  0  0  0  0
   -6.1091   -1.6370   -0.0000 C   0  0  0  0  0  0  0  0  0  0  0  0
   -4.3891   -3.5825   -0.0000 C   0  0  0  0  0  0  0  0  0  0  0  0
   -6.0973   -0.1305   -0.0000 N   0  0  0  0  0  0  0  0  0  0  0  0
    6.6074   -2.1827   -0.0000 C   0  0  0  0  0  0  0  0  0  0  0  0
    5.3025    0.0712   -0.0000 C   0  0  0  0  0  0  0  0  0  0  0  0
   -7.2479   -2.6097   -0.0000 N   0  0  0  0  0  0  0  0  0  0  0  0
   -5.5279   -4.5670   -0.0000 C   0  0  0  0  0  0  0  0  0  0  0  0
    7.8885   -1.4235   -0.0000 C   0  0  0  0  0  0  0  0  0  0  0  0
    6.5836    0.8422   -0.0000 C   0  0  0  0  0  0  0  0  0  0  0  0
   -6.9751   -4.0688   -0.0000 C   0  0  0  0  0  0  0  0  0  0  0  0
   -5.2432   -6.0261   -0.0000 F   0  0  0  0  0  0  0  0  0  0  0  0
    9.1697   -2.1590   -0.0000 O   0  0  0  0  0  0  0  0  0  0  0  0
    7.8767    0.0949   -0.0000 C   0  0  0  0  0  0  0  0  0  0  0  0
   10.4508   -1.3998   -0.0000 C   0  0  0  0  0  0  0  0  0  0  0  0
   11.7319   -2.1352   -0.0000 C   0  0  0  0  0  0  0  0  0  0  0  0
   13.0131   -1.3760   -0.0000 N   0  0  0  0  0  0  0  0  0  0  0  0
   14.2942   -2.1234   -0.0000 C   0  0  0  0  0  0  0  0  0  0  0  0
   12.9894    0.1305   -0.0000 C   0  0  0  0  0  0  0  0  0  0  0  0
   15.5754   -1.3642   -0.0000 C   0  0  0  0  0  0  0  0  0  0  0  0
   14.2824    0.8897   -0.0000 C   0  0  0  0  0  0  0  0  0  0  0  0
   15.5754    0.1423   -0.0000 N   0  0  0  0  0  0  0  0  0  0  0  0
   16.8684    0.9015   -0.0000 C   0  0  0  0  0  0  0  0  0  0  0  0
  1  2  1  0  0  0  0
  1  3  1  0  0  0  0
  2  4  2  0  0  0  0
  2  5  1  0  0  0  0
  3  6  2  0  0  0  0
  5  7  1  0  0  0  0
  6  8  1  0  0  0  0
  7  9  2  0  0  0  0
  7 10  1  0  0  0  0
  8 11  1  0  0  0  0
  8 12  2  0  0  0  0
 10 13  1  0  0  0  0
 11 14  2  0  0  0  0
 11 15  1  0  0  0  0
 12 16  1  0  0  0  0
 13 17  2  0  0  0  0
 13 18  1  0  0  0  0
 14 19  1  0  0  0  0
 15 20  2  0  0  0  0
 17 21  1  0  0  0  0
 18 22  2  0  0  0  0
 19 23  2  0  0  0  0
 20 24  1  0  0  0  0
 21 25  1  0  0  0  0
 21 26  2  0  0  0  0
 25 27  1  0  0  0  0
 27 28  1  0  0  0  0
 28 29  1  0  0  0  0
 29 30  1  0  0  0  0
 29 31  1  0  0  0  0
 30 32  1  0  0  0  0
 31 33  1  0  0  0  0
 32 34  1  0  0  0  0
 34 35  1  0  0  0  0
  4  6  1  0  0  0  0
 14 16  1  0  0  0  0
 20 23  1  0  0  0  0
 22 26  1  0  0  0  0
 33 34  1  0  0  0  0
M  END
>  <MolRegNo>
2489818

>  <m>
=

>  <Value>
27000

>  <Unit>
nM

>  <Type>
IC50

>  <pValue>
4.57

>  <Ligand Efficiency>
0

>  <Binding Efficiency>
0

>  <Surface Efficiency>
0

>  <Assay Index>
1389131

>  <Assay Category>


>  <Assay Organism>
Homo sapiens

>  <Target ID>
17045

>  <Target Name>
Cytochrome P450 3A4

>  <Target Organism>
Homo sapiens

>  <Target Description>
Target is a single protein chain

>  <Sequence Accession>
P08684

>  <Reference>


>  <Pubmed ID>
33259926

>  <DOI>
10.1016/j.bmcl.2020.127721

$$$$
2494000
Actelion Java MolfileCreator 1.0

 30 33  0  0  0  0  0  0  0  0999 V2000
    0.0000   -0.0000   -0.0000 Br  0  0  0  0  0  0  0  0  0  0  0  0
   -0.3077    1.4794   -0.0000 C   0  0  0  0  0  0  0  0  0  0  0  0
   -1.7517    1.9765   -0.0000 C   0  0  0  0  0  0  0  0  0  0  0  0
    0.8048    2.4855   -0.0000 C   0  0  0  0  0  0  0  0  0  0  0  0
   -2.0476    3.4560   -0.0000 N   0  0  0  0  0  0  0  0  0  0  0  0
    0.4971    3.9531   -0.0000 C   0  0  0  0  0  0  0  0  0  0  0  0
   -0.9350    4.4502   -0.0000 C   0  0  0  0  0  0  0  0  0  0  0  0
    1.3848    5.1721   -0.0000 C   0  0  0  0  0  0  0  0  0  0  0  0
   -0.9350    5.9651   -0.0000 N   0  0  0  0  0  0  0  0  0  0  0  0
    2.8760    5.1721   -0.0000 C   0  0  0  0  0  0  0  0  0  0  0  0
    0.4971    6.4149   -0.0000 C   0  0  0  0  0  0  0  0  0  0  0  0
    3.8584    4.0714   -0.0000 N   0  0  0  0  0  0  0  0  0  0  0  0
    3.6099    6.4859   -0.0000 C   0  0  0  0  0  0  0  0  0  0  0  0
    5.2195    4.6987   -0.0000 C   0  0  0  0  0  0  0  0  0  0  0  0
    5.0656    6.1782   -0.0000 S   0  0  0  0  0  0  0  0  0  0  0  0
    6.5096    3.9649   -0.0000 N   0  0  0  0  0  0  0  0  0  0  0  0
    7.7996    4.7224   -0.0000 C   0  0  0  0  0  0  0  0  0  0  0  0
    7.7878    6.2374   -0.0000 O   0  0  0  0  0  0  0  0  0  0  0  0
    9.0897    3.9886   -0.0000 C   0  0  0  0  0  0  0  0  0  0  0  0
   10.3798    4.7461   -0.0000 C   0  0  0  0  0  0  0  0  0  0  0  0
   11.6699    4.0004   -0.0000 C   0  0  0  0  0  0  0  0  0  0  0  0
   10.3680    6.2492   -0.0000 C   0  0  0  0  0  0  0  0  0  0  0  0
   12.9481    4.7579   -0.0000 C   0  0  0  0  0  0  0  0  0  0  0  0
   11.6462    7.0185   -0.0000 C   0  0  0  0  0  0  0  0  0  0  0  0
   14.2382    4.0241   -0.0000 N   0  0  0  0  0  0  0  0  0  0  0  0
   12.9363    6.2729   -0.0000 C   0  0  0  0  0  0  0  0  0  0  0  0
   15.5164    4.7816   -0.0000 S   0  0  0  0  0  0  0  0  0  0  0  0
   14.7471    6.0953   -0.0000 O   0  0  0  0  0  0  0  0  0  0  0  0
   16.2621    6.1072   -0.0000 O   0  0  0  0  0  0  0  0  0  0  0  0
   16.8065    4.0478   -0.0000 C   0  0  0  0  0  0  0  0  0  0  0  0
  1  2  1  0  0  0  0
  2  3  2  0  0  0  0
  2  4  1  0  0  0  0
  3  5  1  0  0  0  0
  4  6  2  0  0  0  0
  5  7  2  0  0  0  0
  6  8  1  0  0  0  0
  7  9  1  0  0  0  0
  8 10  1  0  0  0  0
  8 11  2  0  0  0  0
 10 12  1  0  0  0  0
 10 13  2  0  0  0  0
 12 14  2  0  0  0  0
 13 15  1  0  0  0  0
 14 16  1  0  0  0  0
 16 17  1  0  0  0  0
 17 18  2  0  0  0  0
 17 19  1  0  0  0  0
 19 20  1  0  0  0  0
 20 21  2  0  0  0  0
 20 22  1  0  0  0  0
 21 23  1  0  0  0  0
 22 24  2  0  0  0  0
 23 25  1  0  0  0  0
 23 26  2  0  0  0  0
 25 27  1  0  0  0  0
 27 28  2  0  0  0  0
 27 29  2  0  0  0  0
 27 30  1  0  0  0  0
  6  7  1  0  0  0  0
  9 11  1  0  0  0  0
 14 15  1  0  0  0  0
 24 26  1  0  0  0  0
M  END
>  <MolRegNo>
2494000

>  <m>
=

>  <Value>
35000

>  <Unit>
nM

>  <Type>
IC50

>  <pValue>
4.46

>  <Ligand Efficiency>
0

>  <Binding Efficiency>
0

>  <Surface Efficiency>
0

>  <Assay Index>
1389131

>  <Assay Category>


>  <Assay Organism>
Homo sapiens

>  <Target ID>
17045

>  <Target Name>
Cytochrome P450 3A4

>  <Target Organism>
Homo sapiens

>  <Target Description>
Target is a single protein chain

>  <Sequence Accession>
P08684

>  <Reference>


>  <Pubmed ID>
33259926

>  <DOI>
10.1016/j.bmcl.2020.127721

$$$$
2530266
Actelion Java MolfileCreator 1.0

 30 33  0  0  0  0  0  0  0  0999 V2000
    0.0000   -0.0000   -0.0000 Cl  0  0  0  0  0  0  0  0  0  0  0  0
   -0.3079    1.4805   -0.0000 C   0  0  0  0  0  0  0  0  0  0  0  0
   -1.7410    1.9779   -0.0000 C   0  0  0  0  0  0  0  0  0  0  0  0
    0.8054    2.4872   -0.0000 C   0  0  0  0  0  0  0  0  0  0  0  0
   -2.0371    3.4583   -0.0000 N   0  0  0  0  0  0  0  0  0  0  0  0
    0.4974    3.9558   -0.0000 C   0  0  0  0  0  0  0  0  0  0  0  0
   -0.9238    4.4532   -0.0000 C   0  0  0  0  0  0  0  0  0  0  0  0
    1.3857    5.1757   -0.0000 C   0  0  0  0  0  0  0  0  0  0  0  0
   -0.9238    5.9692   -0.0000 N   0  0  0  0  0  0  0  0  0  0  0  0
    2.8780    5.1757   -0.0000 C   0  0  0  0  0  0  0  0  0  0  0  0
    0.4974    6.4192   -0.0000 C   0  0  0  0  0  0  0  0  0  0  0  0
    3.8610    4.0742   -0.0000 N   0  0  0  0  0  0  0  0  0  0  0  0
    3.6123    6.4903   -0.0000 C   0  0  0  0  0  0  0  0  0  0  0  0
    5.2230    4.7019   -0.0000 C   0  0  0  0  0  0  0  0  0  0  0  0
    5.0691    6.1824   -0.0000 S   0  0  0  0  0  0  0  0  0  0  0  0
    6.5140    3.9676   -0.0000 N   0  0  0  0  0  0  0  0  0  0  0  0
    7.8050    4.7256   -0.0000 C   0  0  0  0  0  0  0  0  0  0  0  0
    7.7931    6.2416   -0.0000 O   0  0  0  0  0  0  0  0  0  0  0  0
    9.0959    3.9913   -0.0000 C   0  0  0  0  0  0  0  0  0  0  0  0
   10.3869    4.7493   -0.0000 C   0  0  0  0  0  0  0  0  0  0  0  0
   11.6778    4.0031   -0.0000 C   0  0  0  0  0  0  0  0  0  0  0  0
   10.3750    6.2534   -0.0000 C   0  0  0  0  0  0  0  0  0  0  0  0
   12.9569    4.7611   -0.0000 C   0  0  0  0  0  0  0  0  0  0  0  0
   11.6541    7.0233   -0.0000 C   0  0  0  0  0  0  0  0  0  0  0  0
   14.2479    4.0268   -0.0000 N   0  0  0  0  0  0  0  0  0  0  0  0
   12.9451    6.2771   -0.0000 C   0  0  0  0  0  0  0  0  0  0  0  0
   15.5270    4.7848   -0.0000 S   0  0  0  0  0  0  0  0  0  0  0  0
   14.7572    6.0995   -0.0000 O   0  0  0  0  0  0  0  0  0  0  0  0
   16.2732    6.1113   -0.0000 O   0  0  0  0  0  0  0  0  0  0  0  0
   16.8180    4.0505   -0.0000 C   0  0  0  0  0  0  0  0  0  0  0  0
  1  2  1  0  0  0  0
  2  3  2  0  0  0  0
  2  4  1  0  0  0  0
  3  5  1  0  0  0  0
  4  6  2  0  0  0  0
  5  7  2  0  0  0  0
  6  8  1  0  0  0  0
  7  9  1  0  0  0  0
  8 10  1  0  0  0  0
  8 11  2  0  0  0  0
 10 12  1  0  0  0  0
 10 13  2  0  0  0  0
 12 14  2  0  0  0  0
 13 15  1  0  0  0  0
 14 16  1  0  0  0  0
 16 17  1  0  0  0  0
 17 18  2  0  0  0  0
 17 19  1  0  0  0  0
 19 20  1  0  0  0  0
 20 21  2  0  0  0  0
 20 22  1  0  0  0  0
 21 23  1  0  0  0  0
 22 24  2  0  0  0  0
 23 25  1  0  0  0  0
 23 26  2  0  0  0  0
 25 27  1  0  0  0  0
 27 28  2  0  0  0  0
 27 29  2  0  0  0  0
 27 30  1  0  0  0  0
  6  7  1  0  0  0  0
  9 11  1  0  0  0  0
 14 15  1  0  0  0  0
 24 26  1  0  0  0  0
M  END
>  <MolRegNo>
2530266

>  <m>
=

>  <Value>
8000

>  <Unit>
nM

>  <Type>
IC50

>  <pValue>
5.1

>  <Ligand Efficiency>
0

>  <Binding Efficiency>
0

>  <Surface Efficiency>
0

>  <Assay Index>
1389131

>  <Assay Category>


>  <Assay Organism>
Homo sapiens

>  <Target ID>
17045

>  <Target Name>
Cytochrome P450 3A4

>  <Target Organism>
Homo sapiens

>  <Target Description>
Target is a single protein chain

>  <Sequence Accession>
P08684

>  <Reference>


>  <Pubmed ID>
33259926

>  <DOI>
10.1016/j.bmcl.2020.127721

$$$$
2515200
Actelion Java MolfileCreator 1.0

 30 33  0  0  0  0  0  0  0  0999 V2000
    0.0000   -0.0000   -0.0000 Cl  0  0  0  0  0  0  0  0  0  0  0  0
   -1.4320    0.4852   -0.0000 C   0  0  0  0  0  0  0  0  0  0  0  0
   -1.7396    1.9527   -0.0000 C   0  0  0  0  0  0  0  0  0  0  0  0
   -2.5680   -0.4970   -0.0000 C   0  0  0  0  0  0  0  0  0  0  0  0
   -3.1716    2.4497   -0.0000 C   0  0  0  0  0  0  0  0  0  0  0  0
   -0.8521    3.1716   -0.0000 C   0  0  0  0  0  0  0  0  0  0  0  0
   -4.0118   -0.0000   -0.0000 C   0  0  0  0  0  0  0  0  0  0  0  0
   -4.3077    1.4793   -0.0000 N   0  0  0  0  0  0  0  0  0  0  0  0
   -3.1716    3.9645   -0.0000 N   0  0  0  0  0  0  0  0  0  0  0  0
    0.6391    3.1716   -0.0000 C   0  0  0  0  0  0  0  0  0  0  0  0
   -1.7396    4.4142   -0.0000 C   0  0  0  0  0  0  0  0  0  0  0  0
    1.6213    2.0710   -0.0000 N   0  0  0  0  0  0  0  0  0  0  0  0
    1.3728    4.4852   -0.0000 C   0  0  0  0  0  0  0  0  0  0  0  0
    2.9822    2.6982   -0.0000 C   0  0  0  0  0  0  0  0  0  0  0  0
    2.8284    4.1775   -0.0000 S   0  0  0  0  0  0  0  0  0  0  0  0
    4.2722    1.9645   -0.0000 N   0  0  0  0  0  0  0  0  0  0  0  0
    5.5621    2.7219   -0.0000 C   0  0  0  0  0  0  0  0  0  0  0  0
    5.5503    4.2367   -0.0000 O   0  0  0  0  0  0  0  0  0  0  0  0
    6.8521    1.9882   -0.0000 C   0  0  0  0  0  0  0  0  0  0  0  0
    8.1420    2.7456   -0.0000 C   0  0  0  0  0  0  0  0  0  0  0  0
    9.4320    2.0000   -0.0000 C   0  0  0  0  0  0  0  0  0  0  0  0
    8.1302    4.2485   -0.0000 C   0  0  0  0  0  0  0  0  0  0  0  0
   10.7101    2.7574   -0.0000 C   0  0  0  0  0  0  0  0  0  0  0  0
    9.4083    5.0178   -0.0000 C   0  0  0  0  0  0  0  0  0  0  0  0
   12.0000    2.0237   -0.0000 N   0  0  0  0  0  0  0  0  0  0  0  0
   10.6982    4.2722   -0.0000 C   0  0  0  0  0  0  0  0  0  0  0  0
   13.2781    2.7811   -0.0000 S   0  0  0  0  0  0  0  0  0  0  0  0
   12.5089    4.0947   -0.0000 O   0  0  0  0  0  0  0  0  0  0  0  0
   14.0237    4.1065   -0.0000 O   0  0  0  0  0  0  0  0  0  0  0  0
   14.5680    2.0473   -0.0000 C   0  0  0  0  0  0  0  0  0  0  0  0
  1  2  1  0  0  0  0
  2  3  2  0  0  0  0
  2  4  1  0  0  0  0
  3  5  1  0  0  0  0
  3  6  1  0  0  0  0
  4  7  2  0  0  0  0
  5  8  2  0  0  0  0
  5  9  1  0  0  0  0
  6 10  1  0  0  0  0
  6 11  2  0  0  0  0
 10 12  1  0  0  0  0
 10 13  2  0  0  0  0
 12 14  2  0  0  0  0
 13 15  1  0  0  0  0
 14 16  1  0  0  0  0
 16 17  1  0  0  0  0
 17 18  2  0  0  0  0
 17 19  1  0  0  0  0
 19 20  1  0  0  0  0
 20 21  2  0  0  0  0
 20 22  1  0  0  0  0
 21 23  1  0  0  0  0
 22 24  2  0  0  0  0
 23 25  1  0  0  0  0
 23 26  2  0  0  0  0
 25 27  1  0  0  0  0
 27 28  2  0  0  0  0
 27 29  2  0  0  0  0
 27 30  1  0  0  0  0
  7  8  1  0  0  0  0
  9 11  1  0  0  0  0
 14 15  1  0  0  0  0
 24 26  1  0  0  0  0
M  END
>  <MolRegNo>
2515200

>  <m>
=

>  <Value>
8000

>  <Unit>
nM

>  <Type>
IC50

>  <pValue>
5.1

>  <Ligand Efficiency>
0

>  <Binding Efficiency>
0

>  <Surface Efficiency>
0

>  <Assay Index>
1389131

>  <Assay Category>


>  <Assay Organism>
Homo sapiens

>  <Target ID>
17045

>  <Target Name>
Cytochrome P450 3A4

>  <Target Organism>
Homo sapiens

>  <Target Description>
Target is a single protein chain

>  <Sequence Accession>
P08684

>  <Reference>


>  <Pubmed ID>
33259926

>  <DOI>
10.1016/j.bmcl.2020.127721

$$$$
2498980
Actelion Java MolfileCreator 1.0

 30 33  0  0  0  0  0  0  0  0999 V2000
    0.0000   -0.0000   -0.0000 S   0  0  0  0  0  0  0  0  0  0  0  0
   -0.7655    1.3073   -0.0000 O   0  0  0  0  0  0  0  0  0  0  0  0
    0.7420    1.3191   -0.0000 O   0  0  0  0  0  0  0  0  0  0  0  0
   -1.2955   -0.7302   -0.0000 N   0  0  0  0  0  0  0  0  0  0  0  0
    1.2837   -0.7302   -0.0000 C   0  0  0  0  0  0  0  0  0  0  0  0
   -2.6028    0.0236   -0.0000 C   0  0  0  0  0  0  0  0  0  0  0  0
   -3.8983   -0.7066   -0.0000 C   0  0  0  0  0  0  0  0  0  0  0  0
   -2.6146    1.5311   -0.0000 C   0  0  0  0  0  0  0  0  0  0  0  0
   -5.2056    0.0589   -0.0000 C   0  0  0  0  0  0  0  0  0  0  0  0
   -3.9218    2.2966   -0.0000 C   0  0  0  0  0  0  0  0  0  0  0  0
   -5.2174    1.5546   -0.0000 C   0  0  0  0  0  0  0  0  0  0  0  0
   -6.5129   -0.6713   -0.0000 C   0  0  0  0  0  0  0  0  0  0  0  0
   -7.8201    0.0824   -0.0000 C   0  0  0  0  0  0  0  0  0  0  0  0
   -7.8319    1.5899   -0.0000 O   0  0  0  0  0  0  0  0  0  0  0  0
   -9.1274   -0.6478   -0.0000 N   0  0  0  0  0  0  0  0  0  0  0  0
  -10.4347    0.1060   -0.0000 C   0  0  0  0  0  0  0  0  0  0  0  0
  -10.5996    1.6017   -0.0000 S   0  0  0  0  0  0  0  0  0  0  0  0
  -11.8127   -0.4946   -0.0000 N   0  0  0  0  0  0  0  0  0  0  0  0
  -12.0718    1.9315   -0.0000 C   0  0  0  0  0  0  0  0  0  0  0  0
  -12.8137    0.6242   -0.0000 C   0  0  0  0  0  0  0  0  0  0  0  0
  -14.3212    0.6478   -0.0000 C   0  0  0  0  0  0  0  0  0  0  0  0
  -15.2281   -0.5418   -0.0000 C   0  0  0  0  0  0  0  0  0  0  0  0
  -15.2045    1.8844   -0.0000 C   0  0  0  0  0  0  0  0  0  0  0  0
  -16.6531   -0.0471   -0.0000 C   0  0  0  0  0  0  0  0  0  0  0  0
  -14.9454   -1.9786   -0.0000 C   0  0  0  0  0  0  0  0  0  0  0  0
  -16.6414    1.4486   -0.0000 N   0  0  0  0  0  0  0  0  0  0  0  0
  -17.7838   -1.0129   -0.0000 N   0  0  0  0  0  0  0  0  0  0  0  0
  -16.0761   -2.9561   -0.0000 C   0  0  0  0  0  0  0  0  0  0  0  0
  -17.5129   -2.4615   -0.0000 C   0  0  0  0  0  0  0  0  0  0  0  0
  -15.7934   -4.4047   -0.0000 O   0  0  0  0  0  0  0  0  0  0  0  0
  1  2  2  0  0  0  0
  1  3  2  0  0  0  0
  1  4  1  0  0  0  0
  1  5  1  0  0  0  0
  4  6  1  0  0  0  0
  6  7  2  0  0  0  0
  6  8  1  0  0  0  0
  7  9  1  0  0  0  0
  8 10  2  0  0  0  0
  9 11  2  0  0  0  0
  9 12  1  0  0  0  0
 12 13  1  0  0  0  0
 13 14  2  0  0  0  0
 13 15  1  0  0  0  0
 15 16  1  0  0  0  0
 16 17  1  0  0  0  0
 16 18  2  0  0  0  0
 17 19  1  0  0  0  0
 18 20  1  0  0  0  0
 20 21  1  0  0  0  0
 21 22  1  0  0  0  0
 21 23  2  0  0  0  0
 22 24  2  0  0  0  0
 22 25  1  0  0  0  0
 23 26  1  0  0  0  0
 24 27  1  0  0  0  0
 25 28  2  0  0  0  0
 27 29  2  0  0  0  0
 28 30  1  0  0  0  0
 10 11  1  0  0  0  0
 19 20  2  0  0  0  0
 24 26  1  0  0  0  0
 28 29  1  0  0  0  0
M  END
>  <MolRegNo>
2498980

>  <m>
=

>  <Value>
5000

>  <Unit>
nM

>  <Type>
IC50

>  <pValue>
5.3

>  <Ligand Efficiency>
0

>  <Binding Efficiency>
0

>  <Surface Efficiency>
0

>  <Assay Index>
1389131

>  <Assay Category>


>  <Assay Organism>
Homo sapiens

>  <Target ID>
17045

>  <Target Name>
Cytochrome P450 3A4

>  <Target Organism>
Homo sapiens

>  <Target Description>
Target is a single protein chain

>  <Sequence Accession>
P08684

>  <Reference>


>  <Pubmed ID>
33259926

>  <DOI>
10.1016/j.bmcl.2020.127721

$$$$
2499382
Actelion Java MolfileCreator 1.0

 30 33  0  0  0  0  0  0  0  0999 V2000
    0.0000   -0.0000   -0.0000 S   0  0  0  0  0  0  0  0  0  0  0  0
   -0.7655    1.3073   -0.0000 O   0  0  0  0  0  0  0  0  0  0  0  0
    0.7420    1.3191   -0.0000 O   0  0  0  0  0  0  0  0  0  0  0  0
   -1.2955   -0.7302   -0.0000 N   0  0  0  0  0  0  0  0  0  0  0  0
    1.2837   -0.7302   -0.0000 C   0  0  0  0  0  0  0  0  0  0  0  0
   -2.6028    0.0236   -0.0000 C   0  0  0  0  0  0  0  0  0  0  0  0
   -3.8983   -0.7066   -0.0000 C   0  0  0  0  0  0  0  0  0  0  0  0
   -2.6146    1.5311   -0.0000 C   0  0  0  0  0  0  0  0  0  0  0  0
   -5.2056    0.0589   -0.0000 C   0  0  0  0  0  0  0  0  0  0  0  0
   -3.9218    2.2966   -0.0000 C   0  0  0  0  0  0  0  0  0  0  0  0
   -5.2174    1.5546   -0.0000 C   0  0  0  0  0  0  0  0  0  0  0  0
   -6.5129   -0.6713   -0.0000 C   0  0  0  0  0  0  0  0  0  0  0  0
   -7.8201    0.0824   -0.0000 C   0  0  0  0  0  0  0  0  0  0  0  0
   -7.8319    1.5899   -0.0000 O   0  0  0  0  0  0  0  0  0  0  0  0
   -9.1274   -0.6478   -0.0000 N   0  0  0  0  0  0  0  0  0  0  0  0
  -10.4347    0.1060   -0.0000 C   0  0  0  0  0  0  0  0  0  0  0  0
  -10.5996    1.6017   -0.0000 S   0  0  0  0  0  0  0  0  0  0  0  0
  -11.8127   -0.4946   -0.0000 N   0  0  0  0  0  0  0  0  0  0  0  0
  -12.0718    1.9315   -0.0000 C   0  0  0  0  0  0  0  0  0  0  0  0
  -12.8137    0.6242   -0.0000 C   0  0  0  0  0  0  0  0  0  0  0  0
  -14.3212    0.6478   -0.0000 C   0  0  0  0  0  0  0  0  0  0  0  0
  -15.2281   -0.5418   -0.0000 C   0  0  0  0  0  0  0  0  0  0  0  0
  -15.2045    1.8844   -0.0000 C   0  0  0  0  0  0  0  0  0  0  0  0
  -16.6531   -0.0471   -0.0000 C   0  0  0  0  0  0  0  0  0  0  0  0
  -14.9454   -1.9786   -0.0000 C   0  0  0  0  0  0  0  0  0  0  0  0
  -16.6414    1.4486   -0.0000 N   0  0  0  0  0  0  0  0  0  0  0  0
  -17.7838   -1.0129   -0.0000 N   0  0  0  0  0  0  0  0  0  0  0  0
  -16.0761   -2.9561   -0.0000 C   0  0  0  0  0  0  0  0  0  0  0  0
  -17.5129   -2.4615   -0.0000 C   0  0  0  0  0  0  0  0  0  0  0  0
  -15.7934   -4.4047   -0.0000 F   0  0  0  0  0  0  0  0  0  0  0  0
  1  2  2  0  0  0  0
  1  3  2  0  0  0  0
  1  4  1  0  0  0  0
  1  5  1  0  0  0  0
  4  6  1  0  0  0  0
  6  7  2  0  0  0  0
  6  8  1  0  0  0  0
  7  9  1  0  0  0  0
  8 10  2  0  0  0  0
  9 11  2  0  0  0  0
  9 12  1  0  0  0  0
 12 13  1  0  0  0  0
 13 14  2  0  0  0  0
 13 15  1  0  0  0  0
 15 16  1  0  0  0  0
 16 17  1  0  0  0  0
 16 18  2  0  0  0  0
 17 19  1  0  0  0  0
 18 20  1  0  0  0  0
 20 21  1  0  0  0  0
 21 22  1  0  0  0  0
 21 23  2  0  0  0  0
 22 24  2  0  0  0  0
 22 25  1  0  0  0  0
 23 26  1  0  0  0  0
 24 27  1  0  0  0  0
 25 28  2  0  0  0  0
 27 29  2  0  0  0  0
 28 30  1  0  0  0  0
 10 11  1  0  0  0  0
 19 20  2  0  0  0  0
 24 26  1  0  0  0  0
 28 29  1  0  0  0  0
M  END
>  <MolRegNo>
2499382

>  <m>
=

>  <Value>
6000

>  <Unit>
nM

>  <Type>
IC50

>  <pValue>
5.22

>  <Ligand Efficiency>
0

>  <Binding Efficiency>
0

>  <Surface Efficiency>
0

>  <Assay Index>
1389131

>  <Assay Category>


>  <Assay Organism>
Homo sapiens

>  <Target ID>
17045

>  <Target Name>
Cytochrome P450 3A4

>  <Target Organism>
Homo sapiens

>  <Target Description>
Target is a single protein chain

>  <Sequence Accession>
P08684

>  <Reference>


>  <Pubmed ID>
33259926

>  <DOI>
10.1016/j.bmcl.2020.127721

$$$$
2504962
Actelion Java MolfileCreator 1.0

 30 33  0  0  0  0  0  0  0  0999 V2000
    0.0000   -0.0000   -0.0000 S   0  0  0  0  0  0  0  0  0  0  0  0
   -0.7655    1.3073   -0.0000 O   0  0  0  0  0  0  0  0  0  0  0  0
    0.7420    1.3191   -0.0000 O   0  0  0  0  0  0  0  0  0  0  0  0
   -1.2955   -0.7302   -0.0000 N   0  0  0  0  0  0  0  0  0  0  0  0
    1.2838   -0.7302   -0.0000 C   0  0  0  0  0  0  0  0  0  0  0  0
   -2.6028    0.0236   -0.0000 C   0  0  0  0  0  0  0  0  0  0  0  0
   -3.8984   -0.7067   -0.0000 C   0  0  0  0  0  0  0  0  0  0  0  0
   -2.6146    1.5311   -0.0000 C   0  0  0  0  0  0  0  0  0  0  0  0
   -5.2057    0.0589   -0.0000 C   0  0  0  0  0  0  0  0  0  0  0  0
   -3.9219    2.2966   -0.0000 C   0  0  0  0  0  0  0  0  0  0  0  0
   -5.2175    1.5546   -0.0000 C   0  0  0  0  0  0  0  0  0  0  0  0
   -6.5130   -0.6713   -0.0000 C   0  0  0  0  0  0  0  0  0  0  0  0
   -7.8203    0.0824   -0.0000 C   0  0  0  0  0  0  0  0  0  0  0  0
   -7.8321    1.5900   -0.0000 O   0  0  0  0  0  0  0  0  0  0  0  0
   -9.1276   -0.6478   -0.0000 N   0  0  0  0  0  0  0  0  0  0  0  0
  -10.4349    0.1060   -0.0000 C   0  0  0  0  0  0  0  0  0  0  0  0
  -10.5998    1.6018   -0.0000 S   0  0  0  0  0  0  0  0  0  0  0  0
  -11.8129   -0.4947   -0.0000 N   0  0  0  0  0  0  0  0  0  0  0  0
  -12.0720    1.9315   -0.0000 C   0  0  0  0  0  0  0  0  0  0  0  0
  -12.8140    0.6242   -0.0000 C   0  0  0  0  0  0  0  0  0  0  0  0
  -14.3215    0.6478   -0.0000 C   0  0  0  0  0  0  0  0  0  0  0  0
  -15.2284   -0.5418   -0.0000 C   0  0  0  0  0  0  0  0  0  0  0  0
  -15.2049    1.8844   -0.0000 C   0  0  0  0  0  0  0  0  0  0  0  0
  -14.9458   -1.9786   -0.0000 C   0  0  0  0  0  0  0  0  0  0  0  0
  -16.6535   -0.0471   -0.0000 C   0  0  0  0  0  0  0  0  0  0  0  0
  -16.6417    1.4486   -0.0000 N   0  0  0  0  0  0  0  0  0  0  0  0
  -13.5442   -2.4380   -0.0000 F   0  0  0  0  0  0  0  0  0  0  0  0
  -16.0764   -2.9562   -0.0000 C   0  0  0  0  0  0  0  0  0  0  0  0
  -17.7842   -1.0129   -0.0000 N   0  0  0  0  0  0  0  0  0  0  0  0
  -17.5133   -2.4615   -0.0000 C   0  0  0  0  0  0  0  0  0  0  0  0
  1  2  2  0  0  0  0
  1  3  2  0  0  0  0
  1  4  1  0  0  0  0
  1  5  1  0  0  0  0
  4  6  1  0  0  0  0
  6  7  2  0  0  0  0
  6  8  1  0  0  0  0
  7  9  1  0  0  0  0
  8 10  2  0  0  0  0
  9 11  2  0  0  0  0
  9 12  1  0  0  0  0
 12 13  1  0  0  0  0
 13 14  2  0  0  0  0
 13 15  1  0  0  0  0
 15 16  1  0  0  0  0
 16 17  1  0  0  0  0
 16 18  2  0  0  0  0
 17 19  1  0  0  0  0
 18 20  1  0  0  0  0
 20 21  1  0  0  0  0
 21 22  1  0  0  0  0
 21 23  2  0  0  0  0
 22 24  2  0  0  0  0
 22 25  1  0  0  0  0
 23 26  1  0  0  0  0
 24 27  1  0  0  0  0
 24 28  1  0  0  0  0
 25 29  2  0  0  0  0
 28 30  2  0  0  0  0
 10 11  1  0  0  0  0
 19 20  2  0  0  0  0
 25 26  1  0  0  0  0
 29 30  1  0  0  0  0
M  END
>  <MolRegNo>
2504962

>  <m>
=

>  <Value>
36000

>  <Unit>
nM

>  <Type>
IC50

>  <pValue>
4.44

>  <Ligand Efficiency>
0

>  <Binding Efficiency>
0

>  <Surface Efficiency>
0

>  <Assay Index>
1389131

>  <Assay Category>


>  <Assay Organism>
Homo sapiens

>  <Target ID>
17045

>  <Target Name>
Cytochrome P450 3A4

>  <Target Organism>
Homo sapiens

>  <Target Description>
Target is a single protein chain

>  <Sequence Accession>
P08684

>  <Reference>


>  <Pubmed ID>
33259926

>  <DOI>
10.1016/j.bmcl.2020.127721

$$$$
2510773
Actelion Java MolfileCreator 1.0

 30 33  0  0  0  0  0  0  0  0999 V2000
    0.0000   -0.0000   -0.0000 S   0  0  0  0  0  0  0  0  0  0  0  0
   -0.7652    1.3067   -0.0000 O   0  0  0  0  0  0  0  0  0  0  0  0
    0.7417    1.3185   -0.0000 O   0  0  0  0  0  0  0  0  0  0  0  0
   -1.2950   -0.7299   -0.0000 N   0  0  0  0  0  0  0  0  0  0  0  0
    1.2832   -0.7299   -0.0000 C   0  0  0  0  0  0  0  0  0  0  0  0
   -2.6017    0.0235   -0.0000 C   0  0  0  0  0  0  0  0  0  0  0  0
   -3.8966   -0.7063   -0.0000 C   0  0  0  0  0  0  0  0  0  0  0  0
   -2.6134    1.5304   -0.0000 C   0  0  0  0  0  0  0  0  0  0  0  0
   -5.2033    0.0589   -0.0000 C   0  0  0  0  0  0  0  0  0  0  0  0
   -3.9202    2.2956   -0.0000 C   0  0  0  0  0  0  0  0  0  0  0  0
   -5.2151    1.5539   -0.0000 C   0  0  0  0  0  0  0  0  0  0  0  0
   -6.5101   -0.6710   -0.0000 C   0  0  0  0  0  0  0  0  0  0  0  0
   -7.8168    0.0824   -0.0000 C   0  0  0  0  0  0  0  0  0  0  0  0
   -7.8286    1.5893   -0.0000 O   0  0  0  0  0  0  0  0  0  0  0  0
   -9.1235   -0.6475   -0.0000 N   0  0  0  0  0  0  0  0  0  0  0  0
  -10.4302    0.1060   -0.0000 C   0  0  0  0  0  0  0  0  0  0  0  0
  -10.5951    1.6010   -0.0000 S   0  0  0  0  0  0  0  0  0  0  0  0
  -11.8076   -0.4944   -0.0000 N   0  0  0  0  0  0  0  0  0  0  0  0
  -12.0666    1.9307   -0.0000 C   0  0  0  0  0  0  0  0  0  0  0  0
  -12.8082    0.6239   -0.0000 C   0  0  0  0  0  0  0  0  0  0  0  0
  -12.6787    3.2962   -0.0000 C   0  0  0  0  0  0  0  0  0  0  0  0
  -14.3151    0.6475   -0.0000 C   0  0  0  0  0  0  0  0  0  0  0  0
  -15.2216   -0.5415   -0.0000 C   0  0  0  0  0  0  0  0  0  0  0  0
  -15.1980    1.8836   -0.0000 C   0  0  0  0  0  0  0  0  0  0  0  0
  -16.6460   -0.0471   -0.0000 C   0  0  0  0  0  0  0  0  0  0  0  0
  -14.9390   -1.9777   -0.0000 C   0  0  0  0  0  0  0  0  0  0  0  0
  -16.6342    1.4480   -0.0000 N   0  0  0  0  0  0  0  0  0  0  0  0
  -17.7761   -1.0124   -0.0000 N   0  0  0  0  0  0  0  0  0  0  0  0
  -16.0692   -2.9548   -0.0000 C   0  0  0  0  0  0  0  0  0  0  0  0
  -17.5054   -2.4604   -0.0000 C   0  0  0  0  0  0  0  0  0  0  0  0
  1  2  2  0  0  0  0
  1  3  2  0  0  0  0
  1  4  1  0  0  0  0
  1  5  1  0  0  0  0
  4  6  1  0  0  0  0
  6  7  2  0  0  0  0
  6  8  1  0  0  0  0
  7  9  1  0  0  0  0
  8 10  2  0  0  0  0
  9 11  2  0  0  0  0
  9 12  1  0  0  0  0
 12 13  1  0  0  0  0
 13 14  2  0  0  0  0
 13 15  1  0  0  0  0
 15 16  1  0  0  0  0
 16 17  1  0  0  0  0
 16 18  2  0  0  0  0
 17 19  1  0  0  0  0
 18 20  1  0  0  0  0
 19 21  1  0  0  0  0
 20 22  1  0  0  0  0
 22 23  1  0  0  0  0
 22 24  2  0  0  0  0
 23 25  2  0  0  0  0
 23 26  1  0  0  0  0
 24 27  1  0  0  0  0
 25 28  1  0  0  0  0
 26 29  2  0  0  0  0
 28 30  2  0  0  0  0
 10 11  1  0  0  0  0
 19 20  2  0  0  0  0
 25 27  1  0  0  0  0
 29 30  1  0  0  0  0
M  END
>  <MolRegNo>
2510773

>  <m>
=

>  <Value>
5000

>  <Unit>
nM

>  <Type>
IC50

>  <pValue>
5.3

>  <Ligand Efficiency>
0

>  <Binding Efficiency>
0

>  <Surface Efficiency>
0

>  <Assay Index>
1389131

>  <Assay Category>


>  <Assay Organism>
Homo sapiens

>  <Target ID>
17045

>  <Target Name>
Cytochrome P450 3A4

>  <Target Organism>
Homo sapiens

>  <Target Description>
Target is a single protein chain

>  <Sequence Accession>
P08684

>  <Reference>


>  <Pubmed ID>
33259926

>  <DOI>
10.1016/j.bmcl.2020.127721

$$$$
2518028
Actelion Java MolfileCreator 1.0

 30 33  0  0  0  0  0  0  0  0999 V2000
    0.0000   -0.0000   -0.0000 S   0  0  0  0  0  0  0  0  0  0  0  0
   -0.7673    1.3104   -0.0000 O   0  0  0  0  0  0  0  0  0  0  0  0
    0.7437    1.3222   -0.0000 O   0  0  0  0  0  0  0  0  0  0  0  0
   -1.2986   -0.7319   -0.0000 N   0  0  0  0  0  0  0  0  0  0  0  0
    1.2868   -0.7319   -0.0000 C   0  0  0  0  0  0  0  0  0  0  0  0
   -2.6090    0.0236   -0.0000 C   0  0  0  0  0  0  0  0  0  0  0  0
   -3.9076   -0.7083   -0.0000 C   0  0  0  0  0  0  0  0  0  0  0  0
   -2.6208    1.5347   -0.0000 C   0  0  0  0  0  0  0  0  0  0  0  0
   -5.2179    0.0590   -0.0000 C   0  0  0  0  0  0  0  0  0  0  0  0
   -3.9312    2.3020   -0.0000 C   0  0  0  0  0  0  0  0  0  0  0  0
   -5.2298    1.5583   -0.0000 C   0  0  0  0  0  0  0  0  0  0  0  0
   -6.5283   -0.6729   -0.0000 C   0  0  0  0  0  0  0  0  0  0  0  0
   -7.8387    0.0826   -0.0000 C   0  0  0  0  0  0  0  0  0  0  0  0
   -7.8505    1.5937   -0.0000 O   0  0  0  0  0  0  0  0  0  0  0  0
   -9.1491   -0.6493   -0.0000 N   0  0  0  0  0  0  0  0  0  0  0  0
  -10.4595    0.1062   -0.0000 C   0  0  0  0  0  0  0  0  0  0  0  0
  -10.4713    1.6173   -0.0000 N   0  0  0  0  0  0  0  0  0  0  0  0
  -11.7581   -0.6375   -0.0000 C   0  0  0  0  0  0  0  0  0  0  0  0
  -11.7817    2.3729   -0.0000 C   0  0  0  0  0  0  0  0  0  0  0  0
  -13.0685    0.1181   -0.0000 C   0  0  0  0  0  0  0  0  0  0  0  0
  -13.0921    1.6291   -0.0000 N   0  0  0  0  0  0  0  0  0  0  0  0
  -14.3671   -0.6257   -0.0000 C   0  0  0  0  0  0  0  0  0  0  0  0
  -14.5323   -2.1013   -0.0000 C   0  0  0  0  0  0  0  0  0  0  0  0
  -15.7483   -0.0236   -0.0000 C   0  0  0  0  0  0  0  0  0  0  0  0
  -15.9962   -2.4083   -0.0000 C   0  0  0  0  0  0  0  0  0  0  0  0
  -13.5407   -3.1874   -0.0000 C   0  0  0  0  0  0  0  0  0  0  0  0
  -16.7517   -1.1215   -0.0000 N   0  0  0  0  0  0  0  0  0  0  0  0
  -16.4566   -3.8131   -0.0000 N   0  0  0  0  0  0  0  0  0  0  0  0
  -14.0011   -4.5923   -0.0000 C   0  0  0  0  0  0  0  0  0  0  0  0
  -15.4649   -4.8992   -0.0000 C   0  0  0  0  0  0  0  0  0  0  0  0
  1  2  2  0  0  0  0
  1  3  2  0  0  0  0
  1  4  1  0  0  0  0
  1  5  1  0  0  0  0
  4  6  1  0  0  0  0
  6  7  2  0  0  0  0
  6  8  1  0  0  0  0
  7  9  1  0  0  0  0
  8 10  2  0  0  0  0
  9 11  2  0  0  0  0
  9 12  1  0  0  0  0
 12 13  1  0  0  0  0
 13 14  2  0  0  0  0
 13 15  1  0  0  0  0
 15 16  1  0  0  0  0
 16 17  2  0  0  0  0
 16 18  1  0  0  0  0
 17 19  1  0  0  0  0
 18 20  2  0  0  0  0
 19 21  2  0  0  0  0
 20 22  1  0  0  0  0
 22 23  1  0  0  0  0
 22 24  2  0  0  0  0
 23 25  2  0  0  0  0
 23 26  1  0  0  0  0
 24 27  1  0  0  0  0
 25 28  1  0  0  0  0
 26 29  2  0  0  0  0
 28 30  2  0  0  0  0
 10 11  1  0  0  0  0
 20 21  1  0  0  0  0
 25 27  1  0  0  0  0
 29 30  1  0  0  0  0
M  END
>  <MolRegNo>
2518028

>  <m>
=

>  <Value>
1.0e5

>  <Unit>
nM

>  <Type>
IC50

>  <pValue>
4

>  <Ligand Efficiency>
0

>  <Binding Efficiency>
0

>  <Surface Efficiency>
0

>  <Assay Index>
1389131

>  <Assay Category>


>  <Assay Organism>
Homo sapiens

>  <Target ID>
17045

>  <Target Name>
Cytochrome P450 3A4

>  <Target Organism>
Homo sapiens

>  <Target Description>
Target is a single protein chain

>  <Sequence Accession>
P08684

>  <Reference>


>  <Pubmed ID>
33259926

>  <DOI>
10.1016/j.bmcl.2020.127721

$$$$
2499508
Actelion Java MolfileCreator 1.0

 30 33  0  0  0  0  0  0  0  0999 V2000
    0.0000   -0.0000   -0.0000 S   0  0  0  0  0  0  0  0  0  0  0  0
   -0.7696    1.3142   -0.0000 O   0  0  0  0  0  0  0  0  0  0  0  0
    0.7341    1.3142   -0.0000 O   0  0  0  0  0  0  0  0  0  0  0  0
   -1.3024   -0.7341   -0.0000 N   0  0  0  0  0  0  0  0  0  0  0  0
    1.2906   -0.7341   -0.0000 C   0  0  0  0  0  0  0  0  0  0  0  0
   -2.6167    0.0237   -0.0000 C   0  0  0  0  0  0  0  0  0  0  0  0
   -3.9191   -0.7104   -0.0000 C   0  0  0  0  0  0  0  0  0  0  0  0
   -2.6285    1.5392   -0.0000 C   0  0  0  0  0  0  0  0  0  0  0  0
   -5.2215    0.0592   -0.0000 C   0  0  0  0  0  0  0  0  0  0  0  0
   -3.9427    2.3088   -0.0000 C   0  0  0  0  0  0  0  0  0  0  0  0
   -5.2333    1.5629   -0.0000 C   0  0  0  0  0  0  0  0  0  0  0  0
   -6.5357   -0.6749   -0.0000 C   0  0  0  0  0  0  0  0  0  0  0  0
   -7.8500    0.0829   -0.0000 C   0  0  0  0  0  0  0  0  0  0  0  0
   -7.8618    1.5866   -0.0000 O   0  0  0  0  0  0  0  0  0  0  0  0
   -9.1642   -0.6512   -0.0000 N   0  0  0  0  0  0  0  0  0  0  0  0
  -10.4785    0.1066   -0.0000 C   0  0  0  0  0  0  0  0  0  0  0  0
  -11.7690   -0.6275   -0.0000 N   0  0  0  0  0  0  0  0  0  0  0  0
  -10.4903    1.6221   -0.0000 N   0  0  0  0  0  0  0  0  0  0  0  0
  -13.0833    0.1184   -0.0000 C   0  0  0  0  0  0  0  0  0  0  0  0
  -11.7927    2.3799   -0.0000 C   0  0  0  0  0  0  0  0  0  0  0  0
  -14.3857   -0.6275   -0.0000 C   0  0  0  0  0  0  0  0  0  0  0  0
  -13.1070    1.6339   -0.0000 C   0  0  0  0  0  0  0  0  0  0  0  0
  -14.5515   -2.1075   -0.0000 C   0  0  0  0  0  0  0  0  0  0  0  0
  -15.7591   -0.0237   -0.0000 C   0  0  0  0  0  0  0  0  0  0  0  0
  -16.0196   -2.4154   -0.0000 C   0  0  0  0  0  0  0  0  0  0  0  0
  -13.5687   -3.1850   -0.0000 C   0  0  0  0  0  0  0  0  0  0  0  0
  -16.7656   -1.1248   -0.0000 N   0  0  0  0  0  0  0  0  0  0  0  0
  -16.4814   -3.8125   -0.0000 N   0  0  0  0  0  0  0  0  0  0  0  0
  -14.0305   -4.5821   -0.0000 C   0  0  0  0  0  0  0  0  0  0  0  0
  -15.4868   -4.9018   -0.0000 C   0  0  0  0  0  0  0  0  0  0  0  0
  1  2  2  0  0  0  0
  1  3  2  0  0  0  0
  1  4  1  0  0  0  0
  1  5  1  0  0  0  0
  4  6  1  0  0  0  0
  6  7  2  0  0  0  0
  6  8  1  0  0  0  0
  7  9  1  0  0  0  0
  8 10  2  0  0  0  0
  9 11  2  0  0  0  0
  9 12  1  0  0  0  0
 12 13  1  0  0  0  0
 13 14  2  0  0  0  0
 13 15  1  0  0  0  0
 15 16  1  0  0  0  0
 16 17  2  0  0  0  0
 16 18  1  0  0  0  0
 17 19  1  0  0  0  0
 18 20  2  0  0  0  0
 19 21  1  0  0  0  0
 19 22  2  0  0  0  0
 21 23  1  0  0  0  0
 21 24  2  0  0  0  0
 23 25  2  0  0  0  0
 23 26  1  0  0  0  0
 24 27  1  0  0  0  0
 25 28  1  0  0  0  0
 26 29  2  0  0  0  0
 28 30  2  0  0  0  0
 10 11  1  0  0  0  0
 20 22  1  0  0  0  0
 25 27  1  0  0  0  0
 29 30  1  0  0  0  0
M  END
>  <MolRegNo>
2499508

>  <m>
=

>  <Value>
48000

>  <Unit>
nM

>  <Type>
IC50

>  <pValue>
4.32

>  <Ligand Efficiency>
0

>  <Binding Efficiency>
0

>  <Surface Efficiency>
0

>  <Assay Index>
1389131

>  <Assay Category>


>  <Assay Organism>
Homo sapiens

>  <Target ID>
17045

>  <Target Name>
Cytochrome P450 3A4

>  <Target Organism>
Homo sapiens

>  <Target Description>
Target is a single protein chain

>  <Sequence Accession>
P08684

>  <Reference>


>  <Pubmed ID>
33259926

>  <DOI>
10.1016/j.bmcl.2020.127721

$$$$
2536835
Actelion Java MolfileCreator 1.0

 29 32  0  0  0  0  0  0  0  0999 V2000
    0.0000   -0.0000   -0.0000 S   0  0  0  0  0  0  0  0  0  0  0  0
   -0.7651    1.3066   -0.0000 O   0  0  0  0  0  0  0  0  0  0  0  0
    0.7416    1.3184   -0.0000 O   0  0  0  0  0  0  0  0  0  0  0  0
   -1.2949   -0.7298   -0.0000 N   0  0  0  0  0  0  0  0  0  0  0  0
    1.2831   -0.7298   -0.0000 C   0  0  0  0  0  0  0  0  0  0  0  0
   -2.6015    0.0235   -0.0000 C   0  0  0  0  0  0  0  0  0  0  0  0
   -3.8963   -0.7063   -0.0000 C   0  0  0  0  0  0  0  0  0  0  0  0
   -2.6133    1.5303   -0.0000 C   0  0  0  0  0  0  0  0  0  0  0  0
   -5.2030    0.0589   -0.0000 C   0  0  0  0  0  0  0  0  0  0  0  0
   -3.9199    2.2954   -0.0000 C   0  0  0  0  0  0  0  0  0  0  0  0
   -5.2147    1.5538   -0.0000 C   0  0  0  0  0  0  0  0  0  0  0  0
   -6.5096   -0.6710   -0.0000 C   0  0  0  0  0  0  0  0  0  0  0  0
   -7.8162    0.0824   -0.0000 C   0  0  0  0  0  0  0  0  0  0  0  0
   -7.8280    1.5891   -0.0000 O   0  0  0  0  0  0  0  0  0  0  0  0
   -9.1229   -0.6474   -0.0000 N   0  0  0  0  0  0  0  0  0  0  0  0
  -10.4295    0.1059   -0.0000 C   0  0  0  0  0  0  0  0  0  0  0  0
  -11.8067   -0.4944   -0.0000 S   0  0  0  0  0  0  0  0  0  0  0  0
  -10.5943    1.6009   -0.0000 N   0  0  0  0  0  0  0  0  0  0  0  0
  -12.8073    0.6239   -0.0000 C   0  0  0  0  0  0  0  0  0  0  0  0
  -12.0657    1.9305   -0.0000 N   0  0  0  0  0  0  0  0  0  0  0  0
  -14.3141    0.6474   -0.0000 C   0  0  0  0  0  0  0  0  0  0  0  0
  -15.2205   -0.5415   -0.0000 C   0  0  0  0  0  0  0  0  0  0  0  0
  -15.1969    1.8834   -0.0000 C   0  0  0  0  0  0  0  0  0  0  0  0
  -16.6448   -0.0471   -0.0000 C   0  0  0  0  0  0  0  0  0  0  0  0
  -14.9379   -1.9776   -0.0000 C   0  0  0  0  0  0  0  0  0  0  0  0
  -16.6330    1.4479   -0.0000 N   0  0  0  0  0  0  0  0  0  0  0  0
  -17.7749   -1.0123   -0.0000 N   0  0  0  0  0  0  0  0  0  0  0  0
  -16.0680   -2.9546   -0.0000 C   0  0  0  0  0  0  0  0  0  0  0  0
  -17.5041   -2.4602   -0.0000 C   0  0  0  0  0  0  0  0  0  0  0  0
  1  2  2  0  0  0  0
  1  3  2  0  0  0  0
  1  4  1  0  0  0  0
  1  5  1  0  0  0  0
  4  6  1  0  0  0  0
  6  7  2  0  0  0  0
  6  8  1  0  0  0  0
  7  9  1  0  0  0  0
  8 10  2  0  0  0  0
  9 11  2  0  0  0  0
  9 12  1  0  0  0  0
 12 13  1  0  0  0  0
 13 14  2  0  0  0  0
 13 15  1  0  0  0  0
 15 16  1  0  0  0  0
 16 17  1  0  0  0  0
 16 18  2  0  0  0  0
 17 19  1  0  0  0  0
 18 20  1  0  0  0  0
 19 21  1  0  0  0  0
 21 22  1  0  0  0  0
 21 23  2  0  0  0  0
 22 24  2  0  0  0  0
 22 25  1  0  0  0  0
 23 26  1  0  0  0  0
 24 27  1  0  0  0  0
 25 28  2  0  0  0  0
 27 29  2  0  0  0  0
 10 11  1  0  0  0  0
 19 20  2  0  0  0  0
 24 26  1  0  0  0  0
 28 29  1  0  0  0  0
M  END
>  <MolRegNo>
2536835

>  <m>
=

>  <Value>
1.0e5

>  <Unit>
nM

>  <Type>
IC50

>  <pValue>
4

>  <Ligand Efficiency>
0

>  <Binding Efficiency>
0

>  <Surface Efficiency>
0

>  <Assay Index>
1389131

>  <Assay Category>


>  <Assay Organism>
Homo sapiens

>  <Target ID>
17045

>  <Target Name>
Cytochrome P450 3A4

>  <Target Organism>
Homo sapiens

>  <Target Description>
Target is a single protein chain

>  <Sequence Accession>
P08684

>  <Reference>


>  <Pubmed ID>
33259926

>  <DOI>
10.1016/j.bmcl.2020.127721

$$$$
2530909
Actelion Java MolfileCreator 1.0

 29 32  0  0  0  0  0  0  0  0999 V2000
    0.0000   -0.0000   -0.0000 S   0  0  0  0  0  0  0  0  0  0  0  0
   -0.7651    1.3066   -0.0000 O   0  0  0  0  0  0  0  0  0  0  0  0
    0.7416    1.3184   -0.0000 O   0  0  0  0  0  0  0  0  0  0  0  0
   -1.2949   -0.7298   -0.0000 N   0  0  0  0  0  0  0  0  0  0  0  0
    1.2831   -0.7298   -0.0000 C   0  0  0  0  0  0  0  0  0  0  0  0
   -2.6015    0.0235   -0.0000 C   0  0  0  0  0  0  0  0  0  0  0  0
   -3.8963   -0.7063   -0.0000 C   0  0  0  0  0  0  0  0  0  0  0  0
   -2.6133    1.5303   -0.0000 C   0  0  0  0  0  0  0  0  0  0  0  0
   -5.2030    0.0589   -0.0000 C   0  0  0  0  0  0  0  0  0  0  0  0
   -3.9199    2.2954   -0.0000 C   0  0  0  0  0  0  0  0  0  0  0  0
   -5.2147    1.5538   -0.0000 C   0  0  0  0  0  0  0  0  0  0  0  0
   -6.5096   -0.6710   -0.0000 C   0  0  0  0  0  0  0  0  0  0  0  0
   -7.8162    0.0824   -0.0000 C   0  0  0  0  0  0  0  0  0  0  0  0
   -7.8280    1.5891   -0.0000 O   0  0  0  0  0  0  0  0  0  0  0  0
   -9.1229   -0.6474   -0.0000 N   0  0  0  0  0  0  0  0  0  0  0  0
  -10.4295    0.1059   -0.0000 C   0  0  0  0  0  0  0  0  0  0  0  0
  -10.5943    1.6009   -0.0000 S   0  0  0  0  0  0  0  0  0  0  0  0
  -11.8067   -0.4944   -0.0000 C   0  0  0  0  0  0  0  0  0  0  0  0
  -12.0657    1.9305   -0.0000 C   0  0  0  0  0  0  0  0  0  0  0  0
  -12.8073    0.6239   -0.0000 C   0  0  0  0  0  0  0  0  0  0  0  0
  -14.3141    0.6474   -0.0000 C   0  0  0  0  0  0  0  0  0  0  0  0
  -15.2205   -0.5415   -0.0000 C   0  0  0  0  0  0  0  0  0  0  0  0
  -15.1969    1.8834   -0.0000 C   0  0  0  0  0  0  0  0  0  0  0  0
  -16.6448   -0.0471   -0.0000 C   0  0  0  0  0  0  0  0  0  0  0  0
  -14.9379   -1.9776   -0.0000 C   0  0  0  0  0  0  0  0  0  0  0  0
  -16.6330    1.4479   -0.0000 N   0  0  0  0  0  0  0  0  0  0  0  0
  -17.7749   -1.0123   -0.0000 N   0  0  0  0  0  0  0  0  0  0  0  0
  -16.0680   -2.9546   -0.0000 C   0  0  0  0  0  0  0  0  0  0  0  0
  -17.5041   -2.4602   -0.0000 C   0  0  0  0  0  0  0  0  0  0  0  0
  1  2  2  0  0  0  0
  1  3  2  0  0  0  0
  1  4  1  0  0  0  0
  1  5  1  0  0  0  0
  4  6  1  0  0  0  0
  6  7  2  0  0  0  0
  6  8  1  0  0  0  0
  7  9  1  0  0  0  0
  8 10  2  0  0  0  0
  9 11  2  0  0  0  0
  9 12  1  0  0  0  0
 12 13  1  0  0  0  0
 13 14  2  0  0  0  0
 13 15  1  0  0  0  0
 15 16  1  0  0  0  0
 16 17  1  0  0  0  0
 16 18  2  0  0  0  0
 17 19  1  0  0  0  0
 18 20  1  0  0  0  0
 20 21  1  0  0  0  0
 21 22  1  0  0  0  0
 21 23  2  0  0  0  0
 22 24  2  0  0  0  0
 22 25  1  0  0  0  0
 23 26  1  0  0  0  0
 24 27  1  0  0  0  0
 25 28  2  0  0  0  0
 27 29  2  0  0  0  0
 10 11  1  0  0  0  0
 19 20  2  0  0  0  0
 24 26  1  0  0  0  0
 28 29  1  0  0  0  0
M  END
>  <MolRegNo>
2530909

>  <m>
=

>  <Value>
5000

>  <Unit>
nM

>  <Type>
IC50

>  <pValue>
5.3

>  <Ligand Efficiency>
0

>  <Binding Efficiency>
0

>  <Surface Efficiency>
0

>  <Assay Index>
1389131

>  <Assay Category>


>  <Assay Organism>
Homo sapiens

>  <Target ID>
17045

>  <Target Name>
Cytochrome P450 3A4

>  <Target Organism>
Homo sapiens

>  <Target Description>
Target is a single protein chain

>  <Sequence Accession>
P08684

>  <Reference>


>  <Pubmed ID>
33259926

>  <DOI>
10.1016/j.bmcl.2020.127721

$$$$
2501395
Actelion Java MolfileCreator 1.0

 29 32  0  0  0  0  0  0  0  0999 V2000
    0.0000   -0.0000   -0.0000 S   0  0  0  0  0  0  0  0  0  0  0  0
   -0.7651    1.3066   -0.0000 O   0  0  0  0  0  0  0  0  0  0  0  0
    0.7416    1.3184   -0.0000 O   0  0  0  0  0  0  0  0  0  0  0  0
   -1.2949   -0.7298   -0.0000 N   0  0  0  0  0  0  0  0  0  0  0  0
    1.2831   -0.7298   -0.0000 C   0  0  0  0  0  0  0  0  0  0  0  0
   -2.6015    0.0235   -0.0000 C   0  0  0  0  0  0  0  0  0  0  0  0
   -3.8963   -0.7063   -0.0000 C   0  0  0  0  0  0  0  0  0  0  0  0
   -2.6133    1.5303   -0.0000 C   0  0  0  0  0  0  0  0  0  0  0  0
   -5.2030    0.0589   -0.0000 C   0  0  0  0  0  0  0  0  0  0  0  0
   -3.9199    2.2954   -0.0000 C   0  0  0  0  0  0  0  0  0  0  0  0
   -5.2147    1.5538   -0.0000 C   0  0  0  0  0  0  0  0  0  0  0  0
   -6.5096   -0.6710   -0.0000 C   0  0  0  0  0  0  0  0  0  0  0  0
   -7.8162    0.0824   -0.0000 C   0  0  0  0  0  0  0  0  0  0  0  0
   -7.8280    1.5891   -0.0000 O   0  0  0  0  0  0  0  0  0  0  0  0
   -9.1229   -0.6474   -0.0000 N   0  0  0  0  0  0  0  0  0  0  0  0
  -10.4295    0.1059   -0.0000 C   0  0  0  0  0  0  0  0  0  0  0  0
  -11.8067   -0.4944   -0.0000 S   0  0  0  0  0  0  0  0  0  0  0  0
  -10.5943    1.6009   -0.0000 C   0  0  0  0  0  0  0  0  0  0  0  0
  -12.8073    0.6239   -0.0000 C   0  0  0  0  0  0  0  0  0  0  0  0
  -12.0657    1.9305   -0.0000 C   0  0  0  0  0  0  0  0  0  0  0  0
  -14.3141    0.6474   -0.0000 C   0  0  0  0  0  0  0  0  0  0  0  0
  -15.2205   -0.5415   -0.0000 C   0  0  0  0  0  0  0  0  0  0  0  0
  -15.1969    1.8834   -0.0000 C   0  0  0  0  0  0  0  0  0  0  0  0
  -16.6448   -0.0471   -0.0000 C   0  0  0  0  0  0  0  0  0  0  0  0
  -14.9379   -1.9776   -0.0000 C   0  0  0  0  0  0  0  0  0  0  0  0
  -16.6330    1.4479   -0.0000 N   0  0  0  0  0  0  0  0  0  0  0  0
  -17.7749   -1.0123   -0.0000 N   0  0  0  0  0  0  0  0  0  0  0  0
  -16.0680   -2.9546   -0.0000 C   0  0  0  0  0  0  0  0  0  0  0  0
  -17.5041   -2.4602   -0.0000 C   0  0  0  0  0  0  0  0  0  0  0  0
  1  2  2  0  0  0  0
  1  3  2  0  0  0  0
  1  4  1  0  0  0  0
  1  5  1  0  0  0  0
  4  6  1  0  0  0  0
  6  7  2  0  0  0  0
  6  8  1  0  0  0  0
  7  9  1  0  0  0  0
  8 10  2  0  0  0  0
  9 11  2  0  0  0  0
  9 12  1  0  0  0  0
 12 13  1  0  0  0  0
 13 14  2  0  0  0  0
 13 15  1  0  0  0  0
 15 16  1  0  0  0  0
 16 17  1  0  0  0  0
 16 18  2  0  0  0  0
 17 19  1  0  0  0  0
 18 20  1  0  0  0  0
 19 21  1  0  0  0  0
 21 22  1  0  0  0  0
 21 23  2  0  0  0  0
 22 24  2  0  0  0  0
 22 25  1  0  0  0  0
 23 26  1  0  0  0  0
 24 27  1  0  0  0  0
 25 28  2  0  0  0  0
 27 29  2  0  0  0  0
 10 11  1  0  0  0  0
 19 20  2  0  0  0  0
 24 26  1  0  0  0  0
 28 29  1  0  0  0  0
M  END
>  <MolRegNo>
2501395

>  <m>
=

>  <Value>
6000

>  <Unit>
nM

>  <Type>
IC50

>  <pValue>
5.22

>  <Ligand Efficiency>
0

>  <Binding Efficiency>
0

>  <Surface Efficiency>
0

>  <Assay Index>
1389131

>  <Assay Category>


>  <Assay Organism>
Homo sapiens

>  <Target ID>
17045

>  <Target Name>
Cytochrome P450 3A4

>  <Target Organism>
Homo sapiens

>  <Target Description>
Target is a single protein chain

>  <Sequence Accession>
P08684

>  <Reference>


>  <Pubmed ID>
33259926

>  <DOI>
10.1016/j.bmcl.2020.127721

$$$$
2501735
Actelion Java MolfileCreator 1.0

 29 32  0  0  0  0  0  0  0  0999 V2000
    0.0000   -0.0000   -0.0000 S   0  0  0  0  0  0  0  0  0  0  0  0
   -0.7651    1.3066   -0.0000 O   0  0  0  0  0  0  0  0  0  0  0  0
    0.7416    1.3184   -0.0000 O   0  0  0  0  0  0  0  0  0  0  0  0
   -1.2949   -0.7298   -0.0000 N   0  0  0  0  0  0  0  0  0  0  0  0
    1.2831   -0.7298   -0.0000 C   0  0  0  0  0  0  0  0  0  0  0  0
   -2.6015    0.0235   -0.0000 C   0  0  0  0  0  0  0  0  0  0  0  0
   -3.8963   -0.7063   -0.0000 C   0  0  0  0  0  0  0  0  0  0  0  0
   -2.6133    1.5303   -0.0000 C   0  0  0  0  0  0  0  0  0  0  0  0
   -5.2030    0.0589   -0.0000 C   0  0  0  0  0  0  0  0  0  0  0  0
   -3.9199    2.2954   -0.0000 C   0  0  0  0  0  0  0  0  0  0  0  0
   -5.2147    1.5538   -0.0000 C   0  0  0  0  0  0  0  0  0  0  0  0
   -6.5096   -0.6710   -0.0000 C   0  0  0  0  0  0  0  0  0  0  0  0
   -7.8162    0.0824   -0.0000 C   0  0  0  0  0  0  0  0  0  0  0  0
   -7.8280    1.5891   -0.0000 O   0  0  0  0  0  0  0  0  0  0  0  0
   -9.1229   -0.6474   -0.0000 N   0  0  0  0  0  0  0  0  0  0  0  0
  -10.4295    0.1059   -0.0000 C   0  0  0  0  0  0  0  0  0  0  0  0
  -11.8067   -0.4944   -0.0000 S   0  0  0  0  0  0  0  0  0  0  0  0
  -10.5943    1.6009   -0.0000 C   0  0  0  0  0  0  0  0  0  0  0  0
  -12.8073    0.6239   -0.0000 C   0  0  0  0  0  0  0  0  0  0  0  0
  -12.0657    1.9305   -0.0000 N   0  0  0  0  0  0  0  0  0  0  0  0
  -14.3141    0.6474   -0.0000 C   0  0  0  0  0  0  0  0  0  0  0  0
  -15.2205   -0.5415   -0.0000 C   0  0  0  0  0  0  0  0  0  0  0  0
  -15.1969    1.8834   -0.0000 C   0  0  0  0  0  0  0  0  0  0  0  0
  -16.6448   -0.0471   -0.0000 C   0  0  0  0  0  0  0  0  0  0  0  0
  -14.9379   -1.9776   -0.0000 C   0  0  0  0  0  0  0  0  0  0  0  0
  -16.6330    1.4479   -0.0000 N   0  0  0  0  0  0  0  0  0  0  0  0
  -17.7749   -1.0123   -0.0000 N   0  0  0  0  0  0  0  0  0  0  0  0
  -16.0680   -2.9546   -0.0000 C   0  0  0  0  0  0  0  0  0  0  0  0
  -17.5041   -2.4602   -0.0000 C   0  0  0  0  0  0  0  0  0  0  0  0
  1  2  2  0  0  0  0
  1  3  2  0  0  0  0
  1  4  1  0  0  0  0
  1  5  1  0  0  0  0
  4  6  1  0  0  0  0
  6  7  2  0  0  0  0
  6  8  1  0  0  0  0
  7  9  1  0  0  0  0
  8 10  2  0  0  0  0
  9 11  2  0  0  0  0
  9 12  1  0  0  0  0
 12 13  1  0  0  0  0
 13 14  2  0  0  0  0
 13 15  1  0  0  0  0
 15 16  1  0  0  0  0
 16 17  1  0  0  0  0
 16 18  2  0  0  0  0
 17 19  1  0  0  0  0
 18 20  1  0  0  0  0
 19 21  1  0  0  0  0
 21 22  1  0  0  0  0
 21 23  2  0  0  0  0
 22 24  2  0  0  0  0
 22 25  1  0  0  0  0
 23 26  1  0  0  0  0
 24 27  1  0  0  0  0
 25 28  2  0  0  0  0
 27 29  2  0  0  0  0
 10 11  1  0  0  0  0
 19 20  2  0  0  0  0
 24 26  1  0  0  0  0
 28 29  1  0  0  0  0
M  END
>  <MolRegNo>
2501735

>  <m>
=

>  <Value>
12000

>  <Unit>
nM

>  <Type>
IC50

>  <pValue>
4.92

>  <Ligand Efficiency>
0

>  <Binding Efficiency>
0

>  <Surface Efficiency>
0

>  <Assay Index>
1389131

>  <Assay Category>


>  <Assay Organism>
Homo sapiens

>  <Target ID>
17045

>  <Target Name>
Cytochrome P450 3A4

>  <Target Organism>
Homo sapiens

>  <Target Description>
Target is a single protein chain

>  <Sequence Accession>
P08684

>  <Reference>


>  <Pubmed ID>
33259926

>  <DOI>
10.1016/j.bmcl.2020.127721

$$$$
1364549
Actelion Java MolfileCreator 1.0

 32 34  0  0  0  0  0  0  0  0999 V2000
    0.0000   -0.0000   -0.0000 S   0  0  0  0  0  0  0  0  0  0  0  0
   -0.7715    1.3176   -0.0000 O   0  0  0  0  0  0  0  0  0  0  0  0
    0.7359    1.3176   -0.0000 O   0  0  0  0  0  0  0  0  0  0  0  0
    1.2820   -0.7597   -0.0000 N   0  0  0  0  0  0  0  0  0  0  0  0
   -1.3176   -0.7241   -0.0000 C   0  0  0  0  0  0  0  0  0  0  0  0
    2.5758   -0.0119   -0.0000 C   0  0  0  0  0  0  0  0  0  0  0  0
   -1.7924   -2.1366   -0.0000 S   0  0  0  0  0  0  0  0  0  0  0  0
   -2.5402    0.1662   -0.0000 C   0  0  0  0  0  0  0  0  0  0  0  0
    2.5877    1.4956   -0.0000 O   0  0  0  0  0  0  0  0  0  0  0  0
    3.8459   -0.7597   -0.0000 O   0  0  0  0  0  0  0  0  0  0  0  0
   -3.2999   -2.1247   -0.0000 C   0  0  0  0  0  0  0  0  0  0  0  0
   -2.5520    1.6737   -0.0000 C   0  0  0  0  0  0  0  0  0  0  0  0
   -3.7628   -0.7003   -0.0000 C   0  0  0  0  0  0  0  0  0  0  0  0
    5.1397   -0.0119   -0.0000 C   0  0  0  0  0  0  0  0  0  0  0  0
   -4.0239   -3.4304   -0.0000 C   0  0  0  0  0  0  0  0  0  0  0  0
   -1.2582    2.4333   -0.0000 C   0  0  0  0  0  0  0  0  0  0  0  0
   -3.8577    2.4333   -0.0000 C   0  0  0  0  0  0  0  0  0  0  0  0
    6.4098   -0.7597   -0.0000 C   0  0  0  0  0  0  0  0  0  0  0  0
   -3.2524   -4.7005   -0.0000 C   0  0  0  0  0  0  0  0  0  0  0  0
   -1.2701    3.9527   -0.0000 C   0  0  0  0  0  0  0  0  0  0  0  0
   -3.8696    3.9408   -0.0000 C   0  0  0  0  0  0  0  0  0  0  0  0
    7.7036   -0.0119   -0.0000 C   0  0  0  0  0  0  0  0  0  0  0  0
   -3.9764   -6.0062   -0.0000 C   0  0  0  0  0  0  0  0  0  0  0  0
   -1.7686   -4.6530   -0.0000 C   0  0  0  0  0  0  0  0  0  0  0  0
   -2.5758    4.7124   -0.0000 C   0  0  0  0  0  0  0  0  0  0  0  0
    0.0119    4.7124   -0.0000 C   0  0  0  0  0  0  0  0  0  0  0  0
    8.9737   -0.7597   -0.0000 C   0  0  0  0  0  0  0  0  0  0  0  0
    0.0000    6.2199   -0.0000 N   0  0  0  0  0  0  0  0  0  0  0  0
   -1.2226    7.1101   -0.0000 C   0  0  0  0  0  0  0  0  0  0  0  0
    1.1989    7.1220   -0.0000 C   0  0  0  0  0  0  0  0  0  0  0  0
   -0.7834    8.5464   -0.0000 N   0  0  0  0  0  0  0  0  0  0  0  0
    0.7241    8.5582   -0.0000 C   0  0  0  0  0  0  0  0  0  0  0  0
  1  2  2  0  0  0  0
  1  3  2  0  0  0  0
  1  4  1  0  0  0  0
  1  5  1  0  0  0  0
  4  6  1  0  0  0  0
  5  7  1  0  0  0  0
  5  8  2  0  0  0  0
  6  9  2  0  0  0  0
  6 10  1  0  0  0  0
  7 11  1  0  0  0  0
  8 12  1  0  0  0  0
  8 13  1  0  0  0  0
 10 14  1  0  0  0  0
 11 15  1  0  0  0  0
 12 16  2  0  0  0  0
 12 17  1  0  0  0  0
 14 18  1  0  0  0  0
 15 19  1  0  0  0  0
 16 20  1  0  0  0  0
 17 21  2  0  0  0  0
 18 22  1  0  0  0  0
 19 23  1  0  0  0  0
 19 24  1  0  0  0  0
 20 25  2  0  0  0  0
 20 26  1  0  0  0  0
 22 27  1  0  0  0  0
 26 28  1  0  0  0  0
 28 29  1  0  0  0  0
 28 30  1  0  0  0  0
 29 31  2  0  0  0  0
 30 32  2  0  0  0  0
 11 13  2  0  0  0  0
 21 25  1  0  0  0  0
 31 32  1  0  0  0  0
M  END
>  <MolRegNo>
1364549

>  <m>
=

>  <Value>
120000

>  <Unit>
nM

>  <Type>
IC50

>  <pValue>
0

>  <Ligand Efficiency>
0

>  <Binding Efficiency>
0

>  <Surface Efficiency>
0

>  <Assay Index>
1389705

>  <Assay Category>


>  <Assay Organism>
Homo sapiens

>  <Target ID>
17045

>  <Target Name>
Cytochrome P450 3A4

>  <Target Organism>
Homo sapiens

>  <Target Description>
Target is a single protein chain

>  <Sequence Accession>
P08684

>  <Reference>


>  <Pubmed ID>
33309749

>  <DOI>
10.1016/j.bmc.2020.115859

$$$$
2525483
Actelion Java MolfileCreator 1.0

 35 37  0  0  0  0  0  0  0  0999 V2000
    0.0000   -0.0000   -0.0000 S   0  0  0  0  0  0  0  0  0  0  0  0
    0.7302    1.3073   -0.0000 O   0  0  0  0  0  0  0  0  0  0  0  0
    1.4840    0.0236   -0.0000 O   0  0  0  0  0  0  0  0  0  0  0  0
    0.0824   -1.4840   -0.0000 N   0  0  0  0  0  0  0  0  0  0  0  0
   -1.4133    0.4711   -0.0000 C   0  0  0  0  0  0  0  0  0  0  0  0
   -1.1895   -2.2966   -0.0000 C   0  0  0  0  0  0  0  0  0  0  0  0
   -2.6382   -0.3887   -0.0000 S   0  0  0  0  0  0  0  0  0  0  0  0
   -1.8844    1.9080   -0.0000 C   0  0  0  0  0  0  0  0  0  0  0  0
   -2.5439   -1.6135   -0.0000 O   0  0  0  0  0  0  0  0  0  0  0  0
   -1.1071   -3.7806   -0.0000 O   0  0  0  0  0  0  0  0  0  0  0  0
   -3.8630    0.5064   -0.0000 C   0  0  0  0  0  0  0  0  0  0  0  0
   -1.0129    3.1328   -0.0000 C   0  0  0  0  0  0  0  0  0  0  0  0
   -3.3919    1.9197   -0.0000 C   0  0  0  0  0  0  0  0  0  0  0  0
   -2.3673   -4.5932   -0.0000 C   0  0  0  0  0  0  0  0  0  0  0  0
   -5.2999    0.0589   -0.0000 C   0  0  0  0  0  0  0  0  0  0  0  0
   -1.6371    4.5108   -0.0000 C   0  0  0  0  0  0  0  0  0  0  0  0
    0.4711    2.9797   -0.0000 C   0  0  0  0  0  0  0  0  0  0  0  0
   -5.5472   -1.4015   -0.0000 C   0  0  0  0  0  0  0  0  0  0  0  0
   -0.7655    5.7356   -0.0000 C   0  0  0  0  0  0  0  0  0  0  0  0
    1.3426    4.2046   -0.0000 C   0  0  0  0  0  0  0  0  0  0  0  0
   -4.3930   -2.3319   -0.0000 C   0  0  0  0  0  0  0  0  0  0  0  0
   -6.9605   -1.9315   -0.0000 C   0  0  0  0  0  0  0  0  0  0  0  0
   -1.5428    7.0429   -0.0000 C   0  0  0  0  0  0  0  0  0  0  0  0
    0.7066    5.5825   -0.0000 C   0  0  0  0  0  0  0  0  0  0  0  0
   -0.8126    8.3502   -0.0000 O   0  0  0  0  0  0  0  0  0  0  0  0
   -3.0504    7.0429   -0.0000 C   0  0  0  0  0  0  0  0  0  0  0  0
   -3.8866    8.3031   -0.0000 N   0  0  0  0  0  0  0  0  0  0  0  0
   -5.3941    8.3856   -0.0000 C   0  0  0  0  0  0  0  0  0  0  0  0
   -3.3801    9.7164   -0.0000 C   0  0  0  0  0  0  0  0  0  0  0  0
   -5.8063    9.8342   -0.0000 N   0  0  0  0  0  0  0  0  0  0  0  0
   -6.3363    7.2314   -0.0000 C   0  0  0  0  0  0  0  0  0  0  0  0
   -4.5579   10.6586   -0.0000 C   0  0  0  0  0  0  0  0  0  0  0  0
   -5.0525    6.4894   -0.0000 C   0  0  0  0  0  0  0  0  0  0  0  0
   -6.3481    5.7474   -0.0000 C   0  0  0  0  0  0  0  0  0  0  0  0
   -7.8202    7.4551   -0.0000 C   0  0  0  0  0  0  0  0  0  0  0  0
  1  2  2  0  0  0  0
  1  3  2  0  0  0  0
  1  4  1  0  0  0  0
  1  5  1  0  0  0  0
  4  6  1  0  0  0  0
  5  7  1  0  0  0  0
  5  8  2  0  0  0  0
  6  9  2  0  0  0  0
  6 10  1  0  0  0  0
  7 11  1  0  0  0  0
  8 12  1  0  0  0  0
  8 13  1  0  0  0  0
 10 14  1  0  0  0  0
 11 15  1  0  0  0  0
 12 16  2  0  0  0  0
 12 17  1  0  0  0  0
 15 18  1  0  0  0  0
 16 19  1  0  0  0  0
 17 20  2  0  0  0  0
 18 21  1  0  0  0  0
 18 22  1  0  0  0  0
 19 23  1  0  0  0  0
 19 24  2  0  0  0  0
 23 25  2  0  0  0  0
 23 26  1  0  0  0  0
 26 27  1  0  0  0  0
 27 28  1  0  0  0  0
 27 29  1  0  0  0  0
 28 30  2  0  0  0  0
 28 31  1  0  0  0  0
 29 32  2  0  0  0  0
 31 33  1  0  0  0  0
 31 34  1  0  0  0  0
 31 35  1  0  0  0  0
 11 13  2  0  0  0  0
 20 24  1  0  0  0  0
 30 32  1  0  0  0  0
M  END
>  <MolRegNo>
2525483

>  <m>
=

>  <Value>
50000

>  <Unit>
nM

>  <Type>
IC50

>  <pValue>
4.3

>  <Ligand Efficiency>
0

>  <Binding Efficiency>
0

>  <Surface Efficiency>
0

>  <Assay Index>
1389705

>  <Assay Category>


>  <Assay Organism>
Homo sapiens

>  <Target ID>
17045

>  <Target Name>
Cytochrome P450 3A4

>  <Target Organism>
Homo sapiens

>  <Target Description>
Target is a single protein chain

>  <Sequence Accession>
P08684

>  <Reference>


>  <Pubmed ID>
33309749

>  <DOI>
10.1016/j.bmc.2020.115859

$$$$
2510712
Actelion Java MolfileCreator 1.0

 30 33  0  0  1  0  0  0  0  0999 V2000
    0.0000   -0.0000   -0.0000 Cl  0  0  0  0  0  0  0  0  0  0  0  0
    1.2962    0.7681   -0.0000 C   0  0  0  0  0  0  0  0  0  0  0  0
    2.5924    0.0240   -0.0000 C   0  0  0  0  0  0  0  0  0  0  0  0
    1.2842    2.3044   -0.0000 C   0  0  0  0  0  0  0  0  0  0  0  0
    3.8886    0.8041   -0.0000 C   0  0  0  0  0  0  0  0  0  0  0  0
    2.5804    3.0725   -0.0000 C   0  0  0  0  0  0  0  0  0  0  0  0
    3.8766    2.3404   -0.0000 C   0  0  0  0  0  0  0  0  0  0  0  0
    5.1728    3.1085   -0.0000 N   0  0  0  0  0  0  0  0  0  0  0  0
    6.4811    2.3764   -0.0000 C   0  0  0  0  0  0  0  0  0  0  0  0
    6.4690    0.8761   -0.0000 O   0  0  0  0  0  0  0  0  0  0  0  0
    7.7773    3.1445   -0.0000 C   0  0  0  0  0  0  0  0  0  0  0  0
    9.0855    2.4124   -0.0000 C   0  0  0  0  0  0  0  0  0  0  0  0
    7.7653    4.6688   -0.0000 C   0  0  0  0  0  0  0  0  0  0  0  0
   10.3697    3.1925   -0.0000 C   0  0  0  0  0  0  0  0  0  0  0  0
    9.0735    0.9121   -0.0000 C   0  0  0  0  0  0  0  0  0  0  0  0
   11.6779    2.4484   -0.0000 C   0  0  0  0  0  0  0  0  0  0  0  0
   10.3577    0.1680   -0.0000 C   0  0  0  0  0  0  0  0  0  0  0  0
   11.6659    0.9482   -0.0000 C   0  0  0  0  0  0  0  0  0  0  0  0
   12.0500   -0.4921   -0.0000 C   0  0  0  0  0  0  0  0  0  0  0  0
   12.9141    1.7763   -0.0000 C   0  0  0  0  0  0  0  0  0  0  0  0
   13.5382   -0.5641   -0.0000 C   0  0  0  0  0  0  0  0  0  0  0  0
   11.2218   -1.7283   -0.0000 C   0  0  0  0  0  0  0  0  0  0  0  0
   14.0663    0.8401   -0.0000 O   0  0  0  0  0  0  0  0  0  0  0  0
   14.1983   -1.8843   -0.0000 C   0  0  0  0  0  0  0  0  0  0  0  0
   11.8819   -3.0605   -0.0000 C   0  0  0  0  0  0  0  0  0  0  0  0
   13.3702   -3.1205   -0.0000 C   0  0  0  0  0  0  0  0  0  0  0  0
   14.0423   -4.4407   -0.0000 C   0  0  0  0  0  0  0  0  0  0  0  0
   15.3265   -3.6726   -0.0000 F   0  0  0  0  0  0  0  0  0  0  0  0
   15.3385   -5.1728   -0.0000 F   0  0  0  0  0  0  0  0  0  0  0  0
   13.2141   -5.7009   -0.0000 F   0  0  0  0  0  0  0  0  0  0  0  0
  1  2  1  0  0  0  0
  2  3  2  0  0  0  0
  2  4  1  0  0  0  0
  3  5  1  0  0  0  0
  4  6  2  0  0  0  0
  5  7  2  0  0  0  0
  7  8  1  0  0  0  0
  8  9  1  0  0  0  0
  9 10  2  0  0  0  0
  9 11  1  0  0  0  0
 11 12  1  0  0  0  0
 11 13  1  1  0  0  0
 12 14  1  1  0  0  0
 12 15  1  0  0  0  0
 14 16  1  0  0  0  0
 15 17  1  0  0  0  0
 16 18  1  0  0  0  0
 18 19  1  0  0  0  0
 18 20  1  1  0  0  0
 19 21  2  0  0  0  0
 19 22  1  0  0  0  0
 20 23  1  0  0  0  0
 21 24  1  0  0  0  0
 22 25  2  0  0  0  0
 24 26  2  0  0  0  0
 26 27  1  0  0  0  0
 27 28  1  0  0  0  0
 27 29  1  0  0  0  0
 27 30  1  0  0  0  0
  6  7  1  0  0  0  0
 17 18  1  0  0  0  0
 21 23  1  0  0  0  0
 25 26  1  0  0  0  0
M  END
>  <MolRegNo>
2510712

>  <m>
=

>  <Value>
3100

>  <Unit>
nM

>  <Type>
IC50

>  <pValue>
5.51

>  <Ligand Efficiency>
0

>  <Binding Efficiency>
0

>  <Surface Efficiency>
0

>  <Assay Index>
1389784

>  <Assay Category>


>  <Assay Organism>
Homo sapiens

>  <Target ID>
17045

>  <Target Name>
Cytochrome P450 3A4

>  <Target Organism>
Homo sapiens

>  <Target Description>
Target is a single protein chain

>  <Sequence Accession>
P08684

>  <Reference>


>  <Pubmed ID>
33316404

>  <DOI>
10.1016/j.bmcl.2020.127738

$$$$
2264764
Actelion Java MolfileCreator 1.0

 29 32  0  0  1  0  0  0  0  0999 V2000
    0.0000   -0.0000   -0.0000 Cl  0  0  0  0  0  0  0  0  0  0  0  0
    1.2942   -0.7362   -0.0000 C   0  0  0  0  0  0  0  0  0  0  0  0
    1.2823   -2.2322   -0.0000 C   0  0  0  0  0  0  0  0  0  0  0  0
    2.5765    0.0237   -0.0000 C   0  0  0  0  0  0  0  0  0  0  0  0
    2.5765   -2.9802   -0.0000 C   0  0  0  0  0  0  0  0  0  0  0  0
    3.8707   -0.7005   -0.0000 C   0  0  0  0  0  0  0  0  0  0  0  0
    3.8707   -2.2085   -0.0000 C   0  0  0  0  0  0  0  0  0  0  0  0
    5.1531   -2.9446   -0.0000 N   0  0  0  0  0  0  0  0  0  0  0  0
    6.4473   -2.1728   -0.0000 C   0  0  0  0  0  0  0  0  0  0  0  0
    6.4354   -0.6530   -0.0000 O   0  0  0  0  0  0  0  0  0  0  0  0
    7.7415   -2.9090   -0.0000 C   0  0  0  0  0  0  0  0  0  0  0  0
    9.0357   -2.1372   -0.0000 C   0  0  0  0  0  0  0  0  0  0  0  0
    7.7296   -4.4050   -0.0000 C   0  0  0  0  0  0  0  0  0  0  0  0
   10.3180   -2.8852   -0.0000 C   0  0  0  0  0  0  0  0  0  0  0  0
    9.0119   -0.6293   -0.0000 C   0  0  0  0  0  0  0  0  0  0  0  0
   11.6003   -2.1253   -0.0000 C   0  0  0  0  0  0  0  0  0  0  0  0
   10.3061    0.1306   -0.0000 C   0  0  0  0  0  0  0  0  0  0  0  0
   11.5884   -0.6055   -0.0000 C   0  0  0  0  0  0  0  0  0  0  0  0
   12.8826    0.1544   -0.0000 C   0  0  0  0  0  0  0  0  0  0  0  0
   12.8708    1.6623   -0.0000 C   0  0  0  0  0  0  0  0  0  0  0  0
   14.1650   -0.5937   -0.0000 C   0  0  0  0  0  0  0  0  0  0  0  0
   14.1531    2.4222   -0.0000 C   0  0  0  0  0  0  0  0  0  0  0  0
   11.5647    2.4222   -0.0000 C   0  0  0  0  0  0  0  0  0  0  0  0
   15.4592    0.1662   -0.0000 C   0  0  0  0  0  0  0  0  0  0  0  0
   15.4592    1.6741   -0.0000 N   0  0  0  0  0  0  0  0  0  0  0  0
   14.1412    3.9301   -0.0000 C   0  0  0  0  0  0  0  0  0  0  0  0
   11.5409    3.9301   -0.0000 C   0  0  0  0  0  0  0  0  0  0  0  0
   12.8351    4.6900   -0.0000 C   0  0  0  0  0  0  0  0  0  0  0  0
   10.2230    4.6781   -0.0000 F   0  0  0  0  0  0  0  0  0  0  0  0
  1  2  1  0  0  0  0
  2  3  2  0  0  0  0
  2  4  1  0  0  0  0
  3  5  1  0  0  0  0
  4  6  2  0  0  0  0
  5  7  2  0  0  0  0
  7  8  1  0  0  0  0
  8  9  1  0  0  0  0
  9 10  2  0  0  0  0
  9 11  1  0  0  0  0
 11 12  1  0  0  0  0
 11 13  1  6  0  0  0
 12 14  1  1  0  0  0
 12 15  1  0  0  0  0
 14 16  1  0  0  0  0
 15 17  1  0  0  0  0
 16 18  1  0  0  0  0
 18 19  1  1  0  0  0
 19 20  1  0  0  0  0
 19 21  2  0  0  0  0
 20 22  1  0  0  0  0
 20 23  2  0  0  0  0
 21 24  1  0  0  0  0
 22 25  1  0  0  0  0
 22 26  2  0  0  0  0
 23 27  1  0  0  0  0
 26 28  1  0  0  0  0
 27 29  1  0  0  0  0
  6  7  1  0  0  0  0
 17 18  1  0  0  0  0
 24 25  2  0  0  0  0
 27 28  2  0  0  0  0
M  END
>  <MolRegNo>
2264764

>  <m>
=

>  <Value>
5100

>  <Unit>
nM

>  <Type>
IC50

>  <pValue>
5.29

>  <Ligand Efficiency>
0

>  <Binding Efficiency>
0

>  <Surface Efficiency>
0

>  <Assay Index>
1390071

>  <Assay Category>


>  <Assay Organism>
Homo sapiens

>  <Target ID>
17045

>  <Target Name>
Cytochrome P450 3A4

>  <Target Organism>
Homo sapiens

>  <Target Description>
Target is a single protein chain

>  <Sequence Accession>
P08684

>  <Reference>


>  <Pubmed ID>
33333163

>  <DOI>
10.1016/j.bmcl.2020.127744

$$$$
2527399
Actelion Java MolfileCreator 1.0

 36 40  0  0  0  0  0  0  0  0999 V2000
    0.0000   -0.0000   -0.0000 S   0  0  0  0  0  0  0  0  0  0  0  0
    0.3678   -1.4238   -0.0000 O   0  0  0  0  0  0  0  0  0  0  0  0
   -1.0679   -1.0441   -0.0000 O   0  0  0  0  0  0  0  0  0  0  0  0
    1.4475    0.3204   -0.0000 N   0  0  0  0  0  0  0  0  0  0  0  0
   -1.0085    1.1153   -0.0000 C   0  0  0  0  0  0  0  0  0  0  0  0
    2.4323   -0.7712   -0.0000 C   0  0  0  0  0  0  0  0  0  0  0  0
   -2.4798    0.8187   -0.0000 C   0  0  0  0  0  0  0  0  0  0  0  0
   -0.5695    2.5510   -0.0000 C   0  0  0  0  0  0  0  0  0  0  0  0
   -3.4883    1.9340   -0.0000 C   0  0  0  0  0  0  0  0  0  0  0  0
   -1.5780    3.6663   -0.0000 C   0  0  0  0  0  0  0  0  0  0  0  0
   -3.0374    3.3578   -0.0000 C   0  0  0  0  0  0  0  0  0  0  0  0
   -4.0460    4.4731   -0.0000 C   0  0  0  0  0  0  0  0  0  0  0  0
   -5.5172    4.1765   -0.0000 N   0  0  0  0  0  0  0  0  0  0  0  0
   -6.5258    5.2918   -0.0000 C   0  0  0  0  0  0  0  0  0  0  0  0
   -6.0749    6.7156   -0.0000 O   0  0  0  0  0  0  0  0  0  0  0  0
   -7.9970    4.9952   -0.0000 N   0  0  0  0  0  0  0  0  0  0  0  0
   -9.1242    6.0037   -0.0000 C   0  0  0  0  0  0  0  0  0  0  0  0
   -8.6140    3.6426   -0.0000 C   0  0  0  0  0  0  0  0  0  0  0  0
  -10.4293    5.2681   -0.0000 C   0  0  0  0  0  0  0  0  0  0  0  0
   -9.1361    7.5224   -0.0000 C   0  0  0  0  0  0  0  0  0  0  0  0
  -10.1208    3.8205   -0.0000 C   0  0  0  0  0  0  0  0  0  0  0  0
  -11.7464    6.0274   -0.0000 N   0  0  0  0  0  0  0  0  0  0  0  0
  -10.4412    8.2818   -0.0000 C   0  0  0  0  0  0  0  0  0  0  0  0
  -11.6277    3.8324   -0.0000 C   0  0  0  0  0  0  0  0  0  0  0  0
   -9.6700    2.4086   -0.0000 C   0  0  0  0  0  0  0  0  0  0  0  0
  -11.7582    7.5461   -0.0000 C   0  0  0  0  0  0  0  0  0  0  0  0
  -12.1023    2.4205   -0.0000 C   0  0  0  0  0  0  0  0  0  0  0  0
  -10.8921    1.5425   -0.0000 C   0  0  0  0  0  0  0  0  0  0  0  0
  -13.0634    8.3055   -0.0000 C   0  0  0  0  0  0  0  0  0  0  0  0
  -13.0752    9.8124   -0.0000 C   0  0  0  0  0  0  0  0  0  0  0  0
  -14.3685    7.5699   -0.0000 C   0  0  0  0  0  0  0  0  0  0  0  0
  -14.3804   10.5717   -0.0000 C   0  0  0  0  0  0  0  0  0  0  0  0
  -11.7938   10.5717   -0.0000 C   0  0  0  0  0  0  0  0  0  0  0  0
  -15.6737    8.3292   -0.0000 C   0  0  0  0  0  0  0  0  0  0  0  0
  -15.6855    9.8361   -0.0000 C   0  0  0  0  0  0  0  0  0  0  0  0
  -16.9907   10.5954   -0.0000 O   0  0  0  0  0  0  0  0  0  0  0  0
  1  2  2  0  0  0  0
  1  3  2  0  0  0  0
  1  4  1  0  0  0  0
  1  5  1  0  0  0  0
  4  6  1  0  0  0  0
  5  7  2  0  0  0  0
  5  8  1  0  0  0  0
  7  9  1  0  0  0  0
  8 10  2  0  0  0  0
  9 11  2  0  0  0  0
 11 12  1  0  0  0  0
 12 13  1  0  0  0  0
 13 14  1  0  0  0  0
 14 15  2  0  0  0  0
 14 16  1  0  0  0  0
 16 17  1  0  0  0  0
 16 18  1  0  0  0  0
 17 19  2  0  0  0  0
 17 20  1  0  0  0  0
 18 21  1  0  0  0  0
 19 22  1  0  0  0  0
 20 23  2  0  0  0  0
 21 24  1  0  0  0  0
 21 25  1  0  0  0  0
 22 26  2  0  0  0  0
 24 27  1  0  0  0  0
 25 28  1  0  0  0  0
 26 29  1  0  0  0  0
 29 30  2  0  0  0  0
 29 31  1  0  0  0  0
 30 32  1  0  0  0  0
 30 33  1  0  0  0  0
 31 34  2  0  0  0  0
 32 35  2  0  0  0  0
 35 36  1  0  0  0  0
 10 11  1  0  0  0  0
 19 21  1  0  0  0  0
 23 26  1  0  0  0  0
 27 28  1  0  0  0  0
 34 35  1  0  0  0  0
M  END
>  <MolRegNo>
2527399

>  <m>
=

>  <Value>
900

>  <Unit>
nM

>  <Type>
IC50

>  <pValue>
6.05

>  <Ligand Efficiency>
0

>  <Binding Efficiency>
0

>  <Surface Efficiency>
0

>  <Assay Index>
1390450

>  <Assay Category>


>  <Assay Organism>
Homo sapiens

>  <Target ID>
17045

>  <Target Name>
Cytochrome P450 3A4

>  <Target Organism>
Homo sapiens

>  <Target Description>
Target is a single protein chain

>  <Sequence Accession>
P08684

>  <Reference>
ACS Med Chem Lett 12 (1), 143-154 (2021)

>  <Pubmed ID>
33488976

>  <DOI>
10.1021/acsmedchemlett.0c00575

$$$$
2168880
Actelion Java MolfileCreator 1.0

 36 41  0  0  0  0  0  0  0  0999 V2000
    0.0000   -0.0000   -0.0000 F   0  0  0  0  0  0  0  0  0  0  0  0
    0.6820    1.0352   -0.0000 C   0  0  0  0  0  0  0  0  0  0  0  0
    1.8999    0.9621   -0.0000 F   0  0  0  0  0  0  0  0  0  0  0  0
    1.2179   -0.0609   -0.0000 F   0  0  0  0  0  0  0  0  0  0  0  0
   -0.0122    2.4358   -0.0000 C   0  0  0  0  0  0  0  0  0  0  0  0
   -1.5467    2.7281   -0.0000 C   0  0  0  0  0  0  0  0  0  0  0  0
    0.6820    3.7999   -0.0000 C   0  0  0  0  0  0  0  0  0  0  0  0
   -1.7660    4.2748   -0.0000 N   0  0  0  0  0  0  0  0  0  0  0  0
   -2.6794    1.6807   -0.0000 C   0  0  0  0  0  0  0  0  0  0  0  0
   -0.3654    4.9447   -0.0000 O   0  0  0  0  0  0  0  0  0  0  0  0
    2.1800    4.1287   -0.0000 C   0  0  0  0  0  0  0  0  0  0  0  0
   -4.2018    2.0217   -0.0000 C   0  0  0  0  0  0  0  0  0  0  0  0
   -2.2166    0.2192   -0.0000 C   0  0  0  0  0  0  0  0  0  0  0  0
    2.8012    5.5536   -0.0000 O   0  0  0  0  0  0  0  0  0  0  0  0
    3.3127    3.1056   -0.0000 C   0  0  0  0  0  0  0  0  0  0  0  0
   -5.2492    0.8891   -0.0000 C   0  0  0  0  0  0  0  0  0  0  0  0
   -3.2640   -0.9134   -0.0000 C   0  0  0  0  0  0  0  0  0  0  0  0
    4.3235    5.4075   -0.0000 N   0  0  0  0  0  0  0  0  0  0  0  0
    4.6402    3.8851   -0.0000 C   0  0  0  0  0  0  0  0  0  0  0  0
    3.3005    1.5711   -0.0000 C   0  0  0  0  0  0  0  0  0  0  0  0
   -4.7864   -0.5724   -0.0000 C   0  0  0  0  0  0  0  0  0  0  0  0
    5.9677    3.1300   -0.0000 C   0  0  0  0  0  0  0  0  0  0  0  0
    4.6280    0.8160   -0.0000 C   0  0  0  0  0  0  0  0  0  0  0  0
    5.9555    1.5955   -0.0000 C   0  0  0  0  0  0  0  0  0  0  0  0
    7.2952    3.9095   -0.0000 C   0  0  0  0  0  0  0  0  0  0  0  0
    7.2830    0.8404   -0.0000 C   0  0  0  0  0  0  0  0  0  0  0  0
    8.6227    3.1544   -0.0000 C   0  0  0  0  0  0  0  0  0  0  0  0
    8.6106    1.6198   -0.0000 C   0  0  0  0  0  0  0  0  0  0  0  0
    9.9381    0.8525   -0.0000 C   0  0  0  0  0  0  0  0  0  0  0  0
    9.9259   -0.6820   -0.0000 N   0  0  0  0  0  0  0  0  0  0  0  0
   10.9976   -1.7172   -0.0000 C   0  0  0  0  0  0  0  0  0  0  0  0
    8.8176   -1.7051   -0.0000 C   0  0  0  0  0  0  0  0  0  0  0  0
    9.8894   -2.7890   -0.0000 C   0  0  0  0  0  0  0  0  0  0  0  0
    9.8650   -4.3114   -0.0000 C   0  0  0  0  0  0  0  0  0  0  0  0
    8.7811   -4.9081   -0.0000 O   0  0  0  0  0  0  0  0  0  0  0  0
   10.9246   -4.9203   -0.0000 O   0  0  0  0  0  0  0  0  0  0  0  0
  1  2  1  0  0  0  0
  2  3  1  0  0  0  0
  2  4  1  0  0  0  0
  2  5  1  0  0  0  0
  5  6  1  0  0  0  0
  5  7  2  0  0  0  0
  6  8  2  0  0  0  0
  6  9  1  0  0  0  0
  7 10  1  0  0  0  0
  7 11  1  0  0  0  0
  9 12  2  0  0  0  0
  9 13  1  0  0  0  0
 11 14  1  0  0  0  0
 11 15  2  0  0  0  0
 12 16  1  0  0  0  0
 13 17  2  0  0  0  0
 14 18  1  0  0  0  0
 15 19  1  0  0  0  0
 15 20  1  0  0  0  0
 16 21  2  0  0  0  0
 19 22  1  0  0  0  0
 20 23  1  0  0  0  0
 22 24  2  0  0  0  0
 22 25  1  0  0  0  0
 24 26  1  0  0  0  0
 25 27  2  0  0  0  0
 26 28  2  0  0  0  0
 28 29  1  0  0  0  0
 29 30  1  0  0  0  0
 30 31  1  0  0  0  0
 30 32  1  0  0  0  0
 31 33  1  0  0  0  0
 33 34  1  0  0  0  0
 34 35  2  0  0  0  0
 34 36  1  0  0  0  0
  8 10  1  0  0  0  0
 17 21  1  0  0  0  0
 18 19  2  0  0  0  0
 23 24  1  0  0  0  0
 27 28  1  0  0  0  0
 32 33  1  0  0  0  0
M  END
>  <MolRegNo>
2168880

>  <m>
=

>  <Value>
14000

>  <Unit>
nM

>  <Type>
IC50

>  <pValue>
4.85

>  <Ligand Efficiency>
0

>  <Binding Efficiency>
0

>  <Surface Efficiency>
0

>  <Assay Index>
1391499

>  <Assay Category>


>  <Assay Organism>
Homo sapiens

>  <Target ID>
17045

>  <Target Name>
Cytochrome P450 3A4

>  <Target Organism>
Homo sapiens

>  <Target Description>
Target is a single protein chain

>  <Sequence Accession>
P08684

>  <Reference>
J Med Chem 59 (21), 9837-9854 (2016)

>  <Pubmed ID>
27726358

>  <DOI>
10.1021/acs.jmedchem.6b01099

$$$$
2494892
Actelion Java MolfileCreator 1.0

 37 42  0  0  0  0  0  0  0  0999 V2000
    0.0000   -0.0000   -0.0000 S   0  0  0  0  0  0  0  0  0  0  0  0
   -0.7758    1.3249   -0.0000 O   0  0  0  0  0  0  0  0  0  0  0  0
    0.7400    1.3249   -0.0000 O   0  0  0  0  0  0  0  0  0  0  0  0
    1.2891   -0.7520   -0.0000 C   0  0  0  0  0  0  0  0  0  0  0  0
   -1.3130   -0.7400   -0.0000 C   0  0  0  0  0  0  0  0  0  0  0  0
    2.5901    0.0119   -0.0000 C   0  0  0  0  0  0  0  0  0  0  0  0
    1.2772   -2.2559   -0.0000 C   0  0  0  0  0  0  0  0  0  0  0  0
    3.8792   -0.7281   -0.0000 C   0  0  0  0  0  0  0  0  0  0  0  0
    2.5662   -2.9959   -0.0000 C   0  0  0  0  0  0  0  0  0  0  0  0
    3.8553   -2.2201   -0.0000 C   0  0  0  0  0  0  0  0  0  0  0  0
    5.1444   -2.9601   -0.0000 N   0  0  0  0  0  0  0  0  0  0  0  0
    5.1325   -4.4521   -0.0000 C   0  0  0  0  0  0  0  0  0  0  0  0
    6.4454   -2.1962   -0.0000 C   0  0  0  0  0  0  0  0  0  0  0  0
    6.4216   -5.2041   -0.0000 C   0  0  0  0  0  0  0  0  0  0  0  0
    7.7345   -2.9363   -0.0000 C   0  0  0  0  0  0  0  0  0  0  0  0
    7.7107   -4.4402   -0.0000 N   0  0  0  0  0  0  0  0  0  0  0  0
    6.4096   -6.6961   -0.0000 C   0  0  0  0  0  0  0  0  0  0  0  0
    8.9998   -5.1922   -0.0000 C   0  0  0  0  0  0  0  0  0  0  0  0
   10.2888   -4.4283   -0.0000 N   0  0  0  0  0  0  0  0  0  0  0  0
    8.9878   -6.6961   -0.0000 C   0  0  0  0  0  0  0  0  0  0  0  0
   11.5779   -5.1683   -0.0000 C   0  0  0  0  0  0  0  0  0  0  0  0
   10.2769   -7.4361   -0.0000 C   0  0  0  0  0  0  0  0  0  0  0  0
   12.8670   -4.3925   -0.0000 C   0  0  0  0  0  0  0  0  0  0  0  0
   11.5660   -6.6722   -0.0000 C   0  0  0  0  0  0  0  0  0  0  0  0
   12.8551   -2.8766   -0.0000 O   0  0  0  0  0  0  0  0  0  0  0  0
   14.1561   -5.1325   -0.0000 N   0  0  0  0  0  0  0  0  0  0  0  0
   15.4452   -4.3566   -0.0000 C   0  0  0  0  0  0  0  0  0  0  0  0
   15.4094   -2.8527   -0.0000 C   0  0  0  0  0  0  0  0  0  0  0  0
   16.8059   -4.8818   -0.0000 C   0  0  0  0  0  0  0  0  0  0  0  0
   16.7582   -2.4708   -0.0000 C   0  0  0  0  0  0  0  0  0  0  0  0
   16.3643   -1.5636   -0.0000 C   0  0  0  0  0  0  0  0  0  0  0  0
   18.0950   -4.3686   -0.0000 C   0  0  0  0  0  0  0  0  0  0  0  0
   17.7847   -3.6405   -0.0000 C   0  0  0  0  0  0  0  0  0  0  0  0
   18.0592   -2.9124   -0.0000 C   0  0  0  0  0  0  0  0  0  0  0  0
   17.7369   -2.0649   -0.0000 C   0  0  0  0  0  0  0  0  0  0  0  0
   19.4915   -3.2824   -0.0000 O   0  0  0  0  0  0  0  0  0  0  0  0
   19.1931   -1.6233   -0.0000 C   0  0  0  0  0  0  0  0  0  0  0  0
  1  2  2  0  0  0  0
  1  3  2  0  0  0  0
  1  4  1  0  0  0  0
  1  5  1  0  0  0  0
  4  6  2  0  0  0  0
  4  7  1  0  0  0  0
  6  8  1  0  0  0  0
  7  9  2  0  0  0  0
  8 10  2  0  0  0  0
 10 11  1  0  0  0  0
 11 12  1  0  0  0  0
 11 13  1  0  0  0  0
 12 14  1  0  0  0  0
 13 15  1  0  0  0  0
 14 16  1  0  0  0  0
 14 17  1  1  0  0  0
 16 18  1  0  0  0  0
 18 19  2  0  0  0  0
 18 20  1  0  0  0  0
 19 21  1  0  0  0  0
 20 22  2  0  0  0  0
 21 23  1  0  0  0  0
 21 24  2  0  0  0  0
 23 25  2  0  0  0  0
 23 26  1  0  0  0  0
 26 27  1  0  0  0  0
 27 28  1  0  0  0  0
 27 29  1  0  0  0  0
 28 30  1  0  0  0  0
 28 31  1  0  0  0  0
 29 32  1  0  0  0  0
 29 33  1  0  0  0  0
 30 34  1  0  0  0  0
 31 35  1  0  0  0  0
 34 36  1  0  0  0  0
 34 37  1  0  0  0  0
  9 10  1  0  0  0  0
 15 16  1  0  0  0  0
 22 24  1  0  0  0  0
 32 34  1  0  0  0  0
 33 35  1  0  0  0  0
 35 37  1  0  0  0  0
M  END
>  <MolRegNo>
2494892

>  <m>
=

>  <Value>
970

>  <Unit>
nM

>  <Type>
IC50

>  <pValue>
6.01

>  <Ligand Efficiency>
0

>  <Binding Efficiency>
0

>  <Surface Efficiency>
0

>  <Assay Index>
1391846

>  <Assay Category>


>  <Assay Organism>
Homo sapiens

>  <Target ID>
17045

>  <Target Name>
Cytochrome P450 3A4

>  <Target Organism>
Homo sapiens

>  <Target Description>
Target is a single protein chain

>  <Sequence Accession>
P08684

>  <Reference>
J Med Chem 59 (22), 10176-10189 (2016)

>  <Pubmed ID>
27798827

>  <DOI>
10.1021/acs.jmedchem.6b01122

$$$$
2494103
Actelion Java MolfileCreator 1.0

 37 42  0  0  0  0  0  0  0  0999 V2000
    0.0000   -0.0000   -0.0000 O   0  0  0  0  0  0  0  0  0  0  0  0
   -0.0119   -1.4835   -0.0000 C   0  0  0  0  0  0  0  0  0  0  0  0
    1.2699   -2.2193   -0.0000 N   0  0  0  0  0  0  0  0  0  0  0  0
   -1.3174   -2.2312   -0.0000 C   0  0  0  0  0  0  0  0  0  0  0  0
    2.5516   -1.4598   -0.0000 C   0  0  0  0  0  0  0  0  0  0  0  0
   -2.6228   -1.4716   -0.0000 N   0  0  0  0  0  0  0  0  0  0  0  0
   -1.3292   -3.7266   -0.0000 C   0  0  0  0  0  0  0  0  0  0  0  0
    2.5160    0.0356   -0.0000 C   0  0  0  0  0  0  0  0  0  0  0  0
    3.9046   -1.9820   -0.0000 C   0  0  0  0  0  0  0  0  0  0  0  0
   -3.9283   -2.2075   -0.0000 C   0  0  0  0  0  0  0  0  0  0  0  0
   -2.6466   -4.4624   -0.0000 C   0  0  0  0  0  0  0  0  0  0  0  0
    3.8571    0.4154   -0.0000 C   0  0  0  0  0  0  0  0  0  0  0  0
    3.4655    1.3174   -0.0000 C   0  0  0  0  0  0  0  0  0  0  0  0
    5.1863   -1.4716   -0.0000 C   0  0  0  0  0  0  0  0  0  0  0  0
    4.8778   -0.7477   -0.0000 C   0  0  0  0  0  0  0  0  0  0  0  0
   -5.2338   -1.4360   -0.0000 N   0  0  0  0  0  0  0  0  0  0  0  0
   -3.9402   -3.7028   -0.0000 C   0  0  0  0  0  0  0  0  0  0  0  0
    5.1507   -0.0237   -0.0000 C   0  0  0  0  0  0  0  0  0  0  0  0
    4.8303    0.8189   -0.0000 C   0  0  0  0  0  0  0  0  0  0  0  0
   -6.5393   -2.1719   -0.0000 C   0  0  0  0  0  0  0  0  0  0  0  0
   -5.2457    0.0712   -0.0000 C   0  0  0  0  0  0  0  0  0  0  0  0
    6.5749   -0.3916   -0.0000 O   0  0  0  0  0  0  0  0  0  0  0  0
    6.2663    1.2580   -0.0000 C   0  0  0  0  0  0  0  0  0  0  0  0
   -7.8448   -1.4004   -0.0000 C   0  0  0  0  0  0  0  0  0  0  0  0
   -6.5512   -3.6554   -0.0000 C   0  0  0  0  0  0  0  0  0  0  0  0
   -6.5512    0.8308   -0.0000 C   0  0  0  0  0  0  0  0  0  0  0  0
   -7.8567    0.1068   -0.0000 N   0  0  0  0  0  0  0  0  0  0  0  0
   -9.1621    0.8664   -0.0000 C   0  0  0  0  0  0  0  0  0  0  0  0
  -10.4676    0.1305   -0.0000 C   0  0  0  0  0  0  0  0  0  0  0  0
   -9.1621    2.3736   -0.0000 C   0  0  0  0  0  0  0  0  0  0  0  0
  -11.7731    0.8901   -0.0000 N   0  0  0  0  0  0  0  0  0  0  0  0
  -10.4676    3.1332   -0.0000 C   0  0  0  0  0  0  0  0  0  0  0  0
  -11.7850    2.4092   -0.0000 C   0  0  0  0  0  0  0  0  0  0  0  0
  -13.0905    3.1806   -0.0000 C   0  0  0  0  0  0  0  0  0  0  0  0
  -14.3960    2.4448   -0.0000 O   0  0  0  0  0  0  0  0  0  0  0  0
  -13.8619    4.4980   -0.0000 C   0  0  0  0  0  0  0  0  0  0  0  0
  -12.3547    4.4980   -0.0000 C   0  0  0  0  0  0  0  0  0  0  0  0
  1  2  2  0  0  0  0
  2  3  1  0  0  0  0
  2  4  1  0  0  0  0
  3  5  1  0  0  0  0
  4  6  2  0  0  0  0
  4  7  1  0  0  0  0
  5  8  1  0  0  0  0
  5  9  1  0  0  0  0
  6 10  1  0  0  0  0
  7 11  2  0  0  0  0
  8 12  1  0  0  0  0
  8 13  1  0  0  0  0
  9 14  1  0  0  0  0
  9 15  1  0  0  0  0
 10 16  1  0  0  0  0
 10 17  2  0  0  0  0
 12 18  1  0  0  0  0
 13 19  1  0  0  0  0
 16 20  1  0  0  0  0
 16 21  1  0  0  0  0
 18 22  1  0  0  0  0
 18 23  1  0  0  0  0
 20 24  1  0  0  0  0
 20 25  1  1  0  0  0
 21 26  1  0  0  0  0
 24 27  1  0  0  0  0
 27 28  1  0  0  0  0
 28 29  2  0  0  0  0
 28 30  1  0  0  0  0
 29 31  1  0  0  0  0
 30 32  2  0  0  0  0
 31 33  2  0  0  0  0
 33 34  1  0  0  0  0
 34 35  1  0  0  0  0
 34 36  1  0  0  0  0
 34 37  1  0  0  0  0
 11 17  1  0  0  0  0
 14 18  1  0  0  0  0
 15 19  1  0  0  0  0
 19 23  1  0  0  0  0
 26 27  1  0  0  0  0
 32 33  1  0  0  0  0
M  END
>  <MolRegNo>
2494103

>  <m>
=

>  <Value>
5400

>  <Unit>
nM

>  <Type>
IC50

>  <pValue>
5.27

>  <Ligand Efficiency>
0

>  <Binding Efficiency>
0

>  <Surface Efficiency>
0

>  <Assay Index>
1391846

>  <Assay Category>


>  <Assay Organism>
Homo sapiens

>  <Target ID>
17045

>  <Target Name>
Cytochrome P450 3A4

>  <Target Organism>
Homo sapiens

>  <Target Description>
Target is a single protein chain

>  <Sequence Accession>
P08684

>  <Reference>
J Med Chem 59 (22), 10176-10189 (2016)

>  <Pubmed ID>
27798827

>  <DOI>
10.1021/acs.jmedchem.6b01122

$$$$
2492085
Actelion Java MolfileCreator 1.0

 31 34  0  0  0  0  0  0  0  0999 V2000
    0.0000   -0.0000   -0.0000 Cl  0  0  0  0  0  0  0  0  0  0  0  0
   -0.0120   -1.4950   -0.0000 C   0  0  0  0  0  0  0  0  0  0  0  0
    1.2917   -2.2365   -0.0000 C   0  0  0  0  0  0  0  0  0  0  0  0
   -1.3276   -2.2485   -0.0000 C   0  0  0  0  0  0  0  0  0  0  0  0
    1.2797   -3.7316   -0.0000 C   0  0  0  0  0  0  0  0  0  0  0  0
   -1.3276   -3.7555   -0.0000 C   0  0  0  0  0  0  0  0  0  0  0  0
    2.5714   -4.4611   -0.0000 C   0  0  0  0  0  0  0  0  0  0  0  0
   -0.0239   -4.4731   -0.0000 C   0  0  0  0  0  0  0  0  0  0  0  0
    2.5714   -5.9561   -0.0000 O   0  0  0  0  0  0  0  0  0  0  0  0
    3.8631   -3.6957   -0.0000 N   0  0  0  0  0  0  0  0  0  0  0  0
    5.1548   -4.4253   -0.0000 C   0  0  0  0  0  0  0  0  0  0  0  0
    3.8512   -2.1767   -0.0000 C   0  0  0  0  0  0  0  0  0  0  0  0
    6.4465   -3.6598   -0.0000 C   0  0  0  0  0  0  0  0  0  0  0  0
    5.1429   -5.9203   -0.0000 C   0  0  0  0  0  0  0  0  0  0  0  0
    5.1429   -1.3993   -0.0000 C   0  0  0  0  0  0  0  0  0  0  0  0
    7.7502   -4.3894   -0.0000 N   0  0  0  0  0  0  0  0  0  0  0  0
    6.4346   -2.1528   -0.0000 C   0  0  0  0  0  0  0  0  0  0  0  0
    6.4346   -6.6618   -0.0000 C   0  0  0  0  0  0  0  0  0  0  0  0
    7.7262   -5.8963   -0.0000 C   0  0  0  0  0  0  0  0  0  0  0  0
    9.0299   -6.6379   -0.0000 C   0  0  0  0  0  0  0  0  0  0  0  0
   10.3336   -5.8724   -0.0000 N   0  0  0  0  0  0  0  0  0  0  0  0
    9.0179   -8.1329   -0.0000 C   0  0  0  0  0  0  0  0  0  0  0  0
   11.6372   -6.6140   -0.0000 C   0  0  0  0  0  0  0  0  0  0  0  0
   11.6253   -8.1090   -0.0000 O   0  0  0  0  0  0  0  0  0  0  0  0
   12.9289   -5.8485   -0.0000 C   0  0  0  0  0  0  0  0  0  0  0  0
   14.2206   -6.6020   -0.0000 C   0  0  0  0  0  0  0  0  0  0  0  0
   12.9169   -4.3415   -0.0000 C   0  0  0  0  0  0  0  0  0  0  0  0
   15.5123   -5.8365   -0.0000 C   0  0  0  0  0  0  0  0  0  0  0  0
   14.2086   -3.5761   -0.0000 C   0  0  0  0  0  0  0  0  0  0  0  0
   15.5003   -4.3176   -0.0000 C   0  0  0  0  0  0  0  0  0  0  0  0
   16.7920   -3.5522   -0.0000 F   0  0  0  0  0  0  0  0  0  0  0  0
  1  2  1  0  0  0  0
  2  3  2  0  0  0  0
  2  4  1  0  0  0  0
  3  5  1  0  0  0  0
  4  6  2  0  0  0  0
  5  7  1  0  0  0  0
  5  8  2  0  0  0  0
  7  9  2  0  0  0  0
  7 10  1  0  0  0  0
 10 11  1  0  0  0  0
 10 12  1  0  0  0  0
 11 13  2  0  0  0  0
 11 14  1  0  0  0  0
 12 15  1  0  0  0  0
 13 16  1  0  0  0  0
 13 17  1  0  0  0  0
 14 18  2  0  0  0  0
 16 19  2  0  0  0  0
 19 20  1  0  0  0  0
 20 21  1  1  0  0  0
 20 22  1  0  0  0  0
 21 23  1  0  0  0  0
 23 24  2  0  0  0  0
 23 25  1  0  0  0  0
 25 26  2  0  0  0  0
 25 27  1  0  0  0  0
 26 28  1  0  0  0  0
 27 29  2  0  0  0  0
 28 30  2  0  0  0  0
 30 31  1  0  0  0  0
  6  8  1  0  0  0  0
 15 17  1  0  0  0  0
 18 19  1  0  0  0  0
 29 30  1  0  0  0  0
M  END
>  <MolRegNo>
2492085

>  <m>
=

>  <Value>
20000

>  <Unit>
nM

>  <Type>
IC50

>  <pValue>
4.7

>  <Ligand Efficiency>
0

>  <Binding Efficiency>
0

>  <Surface Efficiency>
0

>  <Assay Index>
1400035

>  <Assay Category>


>  <Assay Organism>
Homo sapiens

>  <Target ID>
17045

>  <Target Name>
Cytochrome P450 3A4

>  <Target Organism>
Homo sapiens

>  <Target Description>
Target is a single protein chain

>  <Sequence Accession>
P08684

>  <Reference>
ACS Med Chem Lett 12 (3), 389-396 (2021)

>  <Pubmed ID>
33738066

>  <DOI>
10.1021/acsmedchemlett.0c00525

$$$$
2496346
Actelion Java MolfileCreator 1.0

 28 31  0  0  0  0  0  0  0  0999 V2000
    0.0000   -0.0000   -0.0000 F   0  0  0  0  0  0  0  0  0  0  0  0
   -1.3085   -0.7309   -0.0000 C   0  0  0  0  0  0  0  0  0  0  0  0
   -1.3203   -2.2162   -0.0000 C   0  0  0  0  0  0  0  0  0  0  0  0
   -2.6288    0.0236   -0.0000 C   0  0  0  0  0  0  0  0  0  0  0  0
   -2.6288   -2.9588   -0.0000 C   0  0  0  0  0  0  0  0  0  0  0  0
   -3.9255   -0.7073   -0.0000 C   0  0  0  0  0  0  0  0  0  0  0  0
   -3.9372   -2.1926   -0.0000 C   0  0  0  0  0  0  0  0  0  0  0  0
   -5.2339   -2.9352   -0.0000 C   0  0  0  0  0  0  0  0  0  0  0  0
   -5.2457   -4.4206   -0.0000 O   0  0  0  0  0  0  0  0  0  0  0  0
   -6.5424   -2.1690   -0.0000 N   0  0  0  0  0  0  0  0  0  0  0  0
   -7.8509   -2.9117   -0.0000 C   0  0  0  0  0  0  0  0  0  0  0  0
   -9.1594   -2.1454   -0.0000 C   0  0  0  0  0  0  0  0  0  0  0  0
   -7.8627   -4.3970   -0.0000 C   0  0  0  0  0  0  0  0  0  0  0  0
   -9.1594   -0.6366   -0.0000 N   0  0  0  0  0  0  0  0  0  0  0  0
  -10.4561   -2.8881   -0.0000 C   0  0  0  0  0  0  0  0  0  0  0  0
  -10.4679    0.1179   -0.0000 C   0  0  0  0  0  0  0  0  0  0  0  0
  -11.7646   -2.1337   -0.0000 C   0  0  0  0  0  0  0  0  0  0  0  0
  -11.7646   -0.6130   -0.0000 C   0  0  0  0  0  0  0  0  0  0  0  0
  -10.4797    1.6150   -0.0000 C   0  0  0  0  0  0  0  0  0  0  0  0
  -13.0730    0.1297   -0.0000 N   0  0  0  0  0  0  0  0  0  0  0  0
  -11.7764    2.3694   -0.0000 C   0  0  0  0  0  0  0  0  0  0  0  0
  -14.3815   -0.6130   -0.0000 C   0  0  0  0  0  0  0  0  0  0  0  0
  -13.0848    1.6386   -0.0000 C   0  0  0  0  0  0  0  0  0  0  0  0
  -14.3815   -2.0983   -0.0000 O   0  0  0  0  0  0  0  0  0  0  0  0
  -15.6900    0.1415   -0.0000 O   0  0  0  0  0  0  0  0  0  0  0  0
  -16.9867   -0.6012   -0.0000 C   0  0  0  0  0  0  0  0  0  0  0  0
  -18.4838   -0.5894   -0.0000 C   0  0  0  0  0  0  0  0  0  0  0  0
  -17.7294   -1.8743   -0.0000 C   0  0  0  0  0  0  0  0  0  0  0  0
  1  2  1  0  0  0  0
  2  3  2  0  0  0  0
  2  4  1  0  0  0  0
  3  5  1  0  0  0  0
  4  6  2  0  0  0  0
  5  7  2  0  0  0  0
  7  8  1  0  0  0  0
  8  9  2  0  0  0  0
  8 10  1  0  0  0  0
 11 10  1  1  0  0  0
 11 12  1  0  0  0  0
 11 13  1  0  0  0  0
 12 14  2  0  0  0  0
 12 15  1  0  0  0  0
 14 16  1  0  0  0  0
 15 17  2  0  0  0  0
 16 18  2  0  0  0  0
 16 19  1  0  0  0  0
 18 20  1  0  0  0  0
 19 21  1  0  0  0  0
 20 22  1  0  0  0  0
 20 23  1  0  0  0  0
 22 24  2  0  0  0  0
 22 25  1  0  0  0  0
 25 26  1  0  0  0  0
 26 27  1  0  0  0  0
 26 28  1  0  0  0  0
  6  7  1  0  0  0  0
 17 18  1  0  0  0  0
 21 23  1  0  0  0  0
 27 28  1  0  0  0  0
M  END
>  <MolRegNo>
2496346

>  <m>
=

>  <Value>
60000

>  <Unit>
nM

>  <Type>
IC50

>  <pValue>
4.22

>  <Ligand Efficiency>
0

>  <Binding Efficiency>
0

>  <Surface Efficiency>
0

>  <Assay Index>
1400035

>  <Assay Category>


>  <Assay Organism>
Homo sapiens

>  <Target ID>
17045

>  <Target Name>
Cytochrome P450 3A4

>  <Target Organism>
Homo sapiens

>  <Target Description>
Target is a single protein chain

>  <Sequence Accession>
P08684

>  <Reference>
ACS Med Chem Lett 12 (3), 389-396 (2021)

>  <Pubmed ID>
33738066

>  <DOI>
10.1021/acsmedchemlett.0c00525

$$$$
2519986
Actelion Java MolfileCreator 1.0

 32 35  0  0  0  0  0  0  0  0999 V2000
    0.0000   -0.0000   -0.0000 F   0  0  0  0  0  0  0  0  0  0  0  0
   -1.3076   -0.7304   -0.0000 C   0  0  0  0  0  0  0  0  0  0  0  0
   -1.3194   -2.2147   -0.0000 C   0  0  0  0  0  0  0  0  0  0  0  0
   -2.6270    0.0236   -0.0000 C   0  0  0  0  0  0  0  0  0  0  0  0
   -2.6270   -2.9568   -0.0000 C   0  0  0  0  0  0  0  0  0  0  0  0
   -3.9228   -0.7068   -0.0000 C   0  0  0  0  0  0  0  0  0  0  0  0
   -3.9346   -2.1911   -0.0000 C   0  0  0  0  0  0  0  0  0  0  0  0
   -5.2304   -2.9333   -0.0000 C   0  0  0  0  0  0  0  0  0  0  0  0
   -5.2422   -4.4176   -0.0000 O   0  0  0  0  0  0  0  0  0  0  0  0
   -6.5380   -2.1675   -0.0000 N   0  0  0  0  0  0  0  0  0  0  0  0
   -7.8456   -2.9097   -0.0000 C   0  0  0  0  0  0  0  0  0  0  0  0
   -9.1532   -2.1440   -0.0000 C   0  0  0  0  0  0  0  0  0  0  0  0
   -7.8573   -4.3940   -0.0000 C   0  0  0  0  0  0  0  0  0  0  0  0
   -9.1532   -0.6361   -0.0000 N   0  0  0  0  0  0  0  0  0  0  0  0
  -10.4490   -2.8861   -0.0000 C   0  0  0  0  0  0  0  0  0  0  0  0
  -10.4608    0.1178   -0.0000 C   0  0  0  0  0  0  0  0  0  0  0  0
  -11.7566   -2.1322   -0.0000 C   0  0  0  0  0  0  0  0  0  0  0  0
  -11.7566   -0.6126   -0.0000 C   0  0  0  0  0  0  0  0  0  0  0  0
  -10.4725    1.6139   -0.0000 C   0  0  0  0  0  0  0  0  0  0  0  0
  -13.0642    0.1296   -0.0000 N   0  0  0  0  0  0  0  0  0  0  0  0
  -11.7684    2.3678   -0.0000 C   0  0  0  0  0  0  0  0  0  0  0  0
  -14.3718   -0.6126   -0.0000 C   0  0  0  0  0  0  0  0  0  0  0  0
  -13.0759    1.6374   -0.0000 C   0  0  0  0  0  0  0  0  0  0  0  0
  -15.6676    0.1531   -0.0000 N   0  0  0  0  0  0  0  0  0  0  0  0
  -14.3718   -2.0851   -0.0000 C   0  0  0  0  0  0  0  0  0  0  0  0
  -16.9752   -0.5772   -0.0000 C   0  0  0  0  0  0  0  0  0  0  0  0
  -15.6676   -2.8272   -0.0000 C   0  0  0  0  0  0  0  0  0  0  0  0
  -16.9870   -2.0615   -0.0000 N   0  0  0  0  0  0  0  0  0  0  0  0
  -18.2710    0.1767   -0.0000 C   0  0  0  0  0  0  0  0  0  0  0  0
  -18.2828    1.6728   -0.0000 F   0  0  0  0  0  0  0  0  0  0  0  0
  -19.5668   -0.5537   -0.0000 F   0  0  0  0  0  0  0  0  0  0  0  0
  -19.5786    0.9424   -0.0000 F   0  0  0  0  0  0  0  0  0  0  0  0
  1  2  1  0  0  0  0
  2  3  2  0  0  0  0
  2  4  1  0  0  0  0
  3  5  1  0  0  0  0
  4  6  2  0  0  0  0
  5  7  2  0  0  0  0
  7  8  1  0  0  0  0
  8  9  2  0  0  0  0
  8 10  1  0  0  0  0
 11 10  1  1  0  0  0
 11 12  1  0  0  0  0
 11 13  1  0  0  0  0
 12 14  2  0  0  0  0
 12 15  1  0  0  0  0
 14 16  1  0  0  0  0
 15 17  2  0  0  0  0
 16 18  2  0  0  0  0
 16 19  1  0  0  0  0
 18 20  1  0  0  0  0
 19 21  1  0  0  0  0
 20 22  1  0  0  0  0
 20 23  1  0  0  0  0
 22 24  2  0  0  0  0
 22 25  1  0  0  0  0
 24 26  1  0  0  0  0
 25 27  2  0  0  0  0
 26 28  2  0  0  0  0
 26 29  1  0  0  0  0
 29 30  1  0  0  0  0
 29 31  1  0  0  0  0
 29 32  1  0  0  0  0
  6  7  1  0  0  0  0
 17 18  1  0  0  0  0
 21 23  1  0  0  0  0
 27 28  1  0  0  0  0
M  END
>  <MolRegNo>
2519986

>  <m>
=

>  <Value>
43000

>  <Unit>
nM

>  <Type>
IC50

>  <pValue>
4.37

>  <Ligand Efficiency>
0

>  <Binding Efficiency>
0

>  <Surface Efficiency>
0

>  <Assay Index>
1400035

>  <Assay Category>


>  <Assay Organism>
Homo sapiens

>  <Target ID>
17045

>  <Target Name>
Cytochrome P450 3A4

>  <Target Organism>
Homo sapiens

>  <Target Description>
Target is a single protein chain

>  <Sequence Accession>
P08684

>  <Reference>
ACS Med Chem Lett 12 (3), 389-396 (2021)

>  <Pubmed ID>
33738066

>  <DOI>
10.1021/acsmedchemlett.0c00525

$$$$
2511935
Actelion Java MolfileCreator 1.0

 29 33  0  0  0  0  0  0  0  0999 V2000
    0.0000   -0.0000   -0.0000 F   0  0  0  0  0  0  0  0  0  0  0  0
   -0.0119    1.5098   -0.0000 C   0  0  0  0  0  0  0  0  0  0  0  0
   -1.3315    2.2707   -0.0000 C   0  0  0  0  0  0  0  0  0  0  0  0
    1.2721    2.2707   -0.0000 C   0  0  0  0  0  0  0  0  0  0  0  0
   -2.6392    1.5336   -0.0000 N   0  0  0  0  0  0  0  0  0  0  0  0
   -1.3434    3.7924   -0.0000 C   0  0  0  0  0  0  0  0  0  0  0  0
    1.2602    3.7805   -0.0000 C   0  0  0  0  0  0  0  0  0  0  0  0
   -0.0476    4.5533   -0.0000 C   0  0  0  0  0  0  0  0  0  0  0  0
    2.5441    4.5414   -0.0000 C   0  0  0  0  0  0  0  0  0  0  0  0
   -0.0594    6.0631   -0.0000 F   0  0  0  0  0  0  0  0  0  0  0  0
    3.8400    3.7924   -0.0000 C   0  0  0  0  0  0  0  0  0  0  0  0
    2.5322    6.0631   -0.0000 C   0  0  0  0  0  0  0  0  0  0  0  0
    5.1358    4.5652   -0.0000 C   0  0  0  0  0  0  0  0  0  0  0  0
    3.8281    2.3064   -0.0000 C   0  0  0  0  0  0  0  0  0  0  0  0
    3.8162    6.8240   -0.0000 C   0  0  0  0  0  0  0  0  0  0  0  0
    6.4198    3.8281   -0.0000 N   0  0  0  0  0  0  0  0  0  0  0  0
    5.1239    6.0869   -0.0000 C   0  0  0  0  0  0  0  0  0  0  0  0
    7.7156    4.6008   -0.0000 C   0  0  0  0  0  0  0  0  0  0  0  0
    6.4079    2.3420   -0.0000 C   0  0  0  0  0  0  0  0  0  0  0  0
    6.3960    6.8477   -0.0000 C   0  0  0  0  0  0  0  0  0  0  0  0
    9.0114    3.8637   -0.0000 O   0  0  0  0  0  0  0  0  0  0  0  0
    7.6918    6.1225   -0.0000 C   0  0  0  0  0  0  0  0  0  0  0  0
    5.6470    1.0581   -0.0000 C   0  0  0  0  0  0  0  0  0  0  0  0
    7.1449    1.0581   -0.0000 C   0  0  0  0  0  0  0  0  0  0  0  0
    6.6932    8.3219   -0.0000 O   0  0  0  0  0  0  0  0  0  0  0  0
    8.7855    7.1449   -0.0000 N   0  0  0  0  0  0  0  0  0  0  0  0
    8.1673    8.5002   -0.0000 C   0  0  0  0  0  0  0  0  0  0  0  0
    8.9044    9.8080   -0.0000 C   0  0  0  0  0  0  0  0  0  0  0  0
   10.3905    9.8198   -0.0000 N   0  0  0  0  0  0  0  0  0  0  0  0
  1  2  1  0  0  0  0
  2  3  2  0  0  0  0
  2  4  1  0  0  0  0
  3  5  1  0  0  0  0
  3  6  1  0  0  0  0
  4  7  2  0  0  0  0
  6  8  2  0  0  0  0
  7  9  1  0  0  0  0
  8 10  1  0  0  0  0
  9 11  2  0  0  0  0
  9 12  1  0  0  0  0
 11 13  1  0  0  0  0
 11 14  1  0  0  0  0
 12 15  2  0  0  0  0
 13 16  1  0  0  0  0
 13 17  2  0  0  0  0
 16 18  1  0  0  0  0
 16 19  1  0  0  0  0
 17 20  1  0  0  0  0
 18 21  2  0  0  0  0
 18 22  1  0  0  0  0
 19 23  1  0  0  0  0
 19 24  1  0  0  0  0
 20 25  1  0  0  0  0
 22 26  1  0  0  0  0
 25 27  1  0  0  0  0
 27 28  1  0  0  0  0
 28 29  1  0  0  0  0
  7  8  1  0  0  0  0
 15 17  1  0  0  0  0
 20 22  2  0  0  0  0
 23 24  1  0  0  0  0
 26 27  2  0  0  0  0
M  END
>  <MolRegNo>
2511935

>  <m>
=

>  <Value>
12900

>  <Unit>
nM

>  <Type>
IC50

>  <pValue>
4.89

>  <Ligand Efficiency>
0

>  <Binding Efficiency>
0

>  <Surface Efficiency>
0

>  <Assay Index>
1400991

>  <Assay Category>


>  <Assay Organism>
Homo sapiens

>  <Target ID>
17045

>  <Target Name>
Cytochrome P450 3A4

>  <Target Organism>
Homo sapiens

>  <Target Description>
Target is a single protein chain

>  <Sequence Accession>
P08684

>  <Reference>
RSC Med Chem 11 (12), 1366-1378 (2020)

>  <Pubmed ID>
34095844

>  <DOI>
10.1039/d0md00174k

$$$$
2524438
Actelion Java MolfileCreator 1.0

 29 34  0  0  0  0  0  0  0  0999 V2000
    0.0000   -0.0000   -0.0000 O   0  0  0  0  0  0  0  0  0  0  0  0
   -1.3151    0.7583   -0.0000 C   0  0  0  0  0  0  0  0  0  0  0  0
   -2.6302    0.0118   -0.0000 N   0  0  0  0  0  0  0  0  0  0  0  0
   -1.3388    2.2748   -0.0000 C   0  0  0  0  0  0  0  0  0  0  0  0
   -3.9334    0.7701   -0.0000 C   0  0  0  0  0  0  0  0  0  0  0  0
   -2.6420   -1.4691   -0.0000 C   0  0  0  0  0  0  0  0  0  0  0  0
   -0.2488    3.2937   -0.0000 N   0  0  0  0  0  0  0  0  0  0  0  0
   -2.6420    3.0212   -0.0000 C   0  0  0  0  0  0  0  0  0  0  0  0
   -3.9453    2.2866   -0.0000 C   0  0  0  0  0  0  0  0  0  0  0  0
   -5.2485    0.0237   -0.0000 C   0  0  0  0  0  0  0  0  0  0  0  0
   -3.4003   -2.7487   -0.0000 C   0  0  0  0  0  0  0  0  0  0  0  0
   -1.9075   -2.7487   -0.0000 C   0  0  0  0  0  0  0  0  0  0  0  0
   -0.8649    4.6562   -0.0000 C   0  0  0  0  0  0  0  0  0  0  0  0
   -2.3458    4.4903   -0.0000 O   0  0  0  0  0  0  0  0  0  0  0  0
   -5.2604    3.0330   -0.0000 C   0  0  0  0  0  0  0  0  0  0  0  0
   -6.5636    0.7938   -0.0000 C   0  0  0  0  0  0  0  0  0  0  0  0
   -5.2604   -1.4573   -0.0000 C   0  0  0  0  0  0  0  0  0  0  0  0
   -0.1303    5.9594   -0.0000 C   0  0  0  0  0  0  0  0  0  0  0  0
   -6.5636    2.2985   -0.0000 C   0  0  0  0  0  0  0  0  0  0  0  0
   -7.8669    0.0592   -0.0000 C   0  0  0  0  0  0  0  0  0  0  0  0
    1.3506    5.9712   -0.0000 N   0  0  0  0  0  0  0  0  0  0  0  0
   -7.8787   -1.4217   -0.0000 C   0  0  0  0  0  0  0  0  0  0  0  0
   -9.1820    0.8293   -0.0000 C   0  0  0  0  0  0  0  0  0  0  0  0
   -9.1820   -2.1563   -0.0000 N   0  0  0  0  0  0  0  0  0  0  0  0
  -10.4971    0.0829   -0.0000 C   0  0  0  0  0  0  0  0  0  0  0  0
  -10.4971   -1.3980   -0.0000 C   0  0  0  0  0  0  0  0  0  0  0  0
  -11.9307    0.5568   -0.0000 C   0  0  0  0  0  0  0  0  0  0  0  0
  -11.9307   -1.8482   -0.0000 N   0  0  0  0  0  0  0  0  0  0  0  0
  -12.8192   -0.6398   -0.0000 N   0  0  0  0  0  0  0  0  0  0  0  0
  1  2  2  0  0  0  0
  2  3  1  0  0  0  0
  2  4  1  0  0  0  0
  3  5  1  0  0  0  0
  3  6  1  0  0  0  0
  4  7  1  0  0  0  0
  4  8  2  0  0  0  0
  5  9  2  0  0  0  0
  5 10  1  0  0  0  0
  6 11  1  0  0  0  0
  6 12  1  0  0  0  0
  7 13  2  0  0  0  0
  8 14  1  0  0  0  0
  9 15  1  0  0  0  0
 10 16  2  0  0  0  0
 10 17  1  0  0  0  0
 13 18  1  0  0  0  0
 15 19  2  0  0  0  0
 16 20  1  0  0  0  0
 18 21  1  0  0  0  0
 20 22  2  0  0  0  0
 20 23  1  0  0  0  0
 22 24  1  0  0  0  0
 23 25  2  0  0  0  0
 24 26  2  0  0  0  0
 25 27  1  0  0  0  0
 26 28  1  0  0  0  0
 27 29  2  0  0  0  0
  8  9  1  0  0  0  0
 11 12  1  0  0  0  0
 13 14  1  0  0  0  0
 16 19  1  0  0  0  0
 25 26  1  0  0  0  0
 28 29  1  0  0  0  0
M  END
>  <MolRegNo>
2524438

>  <m>
=

>  <Value>
22600

>  <Unit>
nM

>  <Type>
IC50

>  <pValue>
4.65

>  <Ligand Efficiency>
0

>  <Binding Efficiency>
0

>  <Surface Efficiency>
0

>  <Assay Index>
1400991

>  <Assay Category>


>  <Assay Organism>
Homo sapiens

>  <Target ID>
17045

>  <Target Name>
Cytochrome P450 3A4

>  <Target Organism>
Homo sapiens

>  <Target Description>
Target is a single protein chain

>  <Sequence Accession>
P08684

>  <Reference>
RSC Med Chem 11 (12), 1366-1378 (2020)

>  <Pubmed ID>
34095844

>  <DOI>
10.1039/d0md00174k

$$$$
2490798
Actelion Java MolfileCreator 1.0

 29 34  0  0  0  0  0  0  0  0999 V2000
    0.0000   -0.0000   -0.0000 O   0  0  0  0  0  0  0  0  0  0  0  0
   -1.3140    0.7576   -0.0000 C   0  0  0  0  0  0  0  0  0  0  0  0
   -2.6281    0.0118   -0.0000 N   0  0  0  0  0  0  0  0  0  0  0  0
   -1.3377    2.2729   -0.0000 C   0  0  0  0  0  0  0  0  0  0  0  0
   -3.9302    0.7695   -0.0000 C   0  0  0  0  0  0  0  0  0  0  0  0
   -2.6399   -1.4679   -0.0000 C   0  0  0  0  0  0  0  0  0  0  0  0
   -0.2486    3.2910   -0.0000 N   0  0  0  0  0  0  0  0  0  0  0  0
   -2.6399    3.0187   -0.0000 C   0  0  0  0  0  0  0  0  0  0  0  0
   -3.9421    2.2848   -0.0000 C   0  0  0  0  0  0  0  0  0  0  0  0
   -5.2443    0.0237   -0.0000 C   0  0  0  0  0  0  0  0  0  0  0  0
   -3.3975   -2.7464   -0.0000 C   0  0  0  0  0  0  0  0  0  0  0  0
   -1.9059   -2.7464   -0.0000 C   0  0  0  0  0  0  0  0  0  0  0  0
   -0.8642    4.6524   -0.0000 C   0  0  0  0  0  0  0  0  0  0  0  0
   -2.3439    4.4866   -0.0000 O   0  0  0  0  0  0  0  0  0  0  0  0
   -5.2561    3.0306   -0.0000 C   0  0  0  0  0  0  0  0  0  0  0  0
   -6.5583    0.7932   -0.0000 C   0  0  0  0  0  0  0  0  0  0  0  0
   -5.2561   -1.4561   -0.0000 C   0  0  0  0  0  0  0  0  0  0  0  0
   -0.1302    5.9546   -0.0000 C   0  0  0  0  0  0  0  0  0  0  0  0
   -6.5583    2.2966   -0.0000 C   0  0  0  0  0  0  0  0  0  0  0  0
   -7.8605    0.0592   -0.0000 C   0  0  0  0  0  0  0  0  0  0  0  0
    1.3495    5.9664   -0.0000 N   0  0  0  0  0  0  0  0  0  0  0  0
   -9.1745    0.8287   -0.0000 C   0  0  0  0  0  0  0  0  0  0  0  0
   -7.8723   -1.4206   -0.0000 C   0  0  0  0  0  0  0  0  0  0  0  0
  -10.4886    0.0947   -0.0000 C   0  0  0  0  0  0  0  0  0  0  0  0
   -9.1745   -2.1545   -0.0000 C   0  0  0  0  0  0  0  0  0  0  0  0
  -10.5004   -1.3969   -0.0000 C   0  0  0  0  0  0  0  0  0  0  0  0
  -11.9328    0.5682   -0.0000 C   0  0  0  0  0  0  0  0  0  0  0  0
  -11.9446   -1.8467   -0.0000 N   0  0  0  0  0  0  0  0  0  0  0  0
  -12.8207   -0.6393   -0.0000 N   0  0  0  0  0  0  0  0  0  0  0  0
  1  2  2  0  0  0  0
  2  3  1  0  0  0  0
  2  4  1  0  0  0  0
  3  5  1  0  0  0  0
  3  6  1  0  0  0  0
  4  7  1  0  0  0  0
  4  8  2  0  0  0  0
  5  9  2  0  0  0  0
  5 10  1  0  0  0  0
  6 11  1  0  0  0  0
  6 12  1  0  0  0  0
  7 13  2  0  0  0  0
  8 14  1  0  0  0  0
  9 15  1  0  0  0  0
 10 16  2  0  0  0  0
 10 17  1  0  0  0  0
 13 18  1  0  0  0  0
 15 19  2  0  0  0  0
 16 20  1  0  0  0  0
 18 21  1  0  0  0  0
 20 22  2  0  0  0  0
 20 23  1  0  0  0  0
 22 24  1  0  0  0  0
 23 25  2  0  0  0  0
 24 26  2  0  0  0  0
 24 27  1  0  0  0  0
 26 28  1  0  0  0  0
 27 29  2  0  0  0  0
  8  9  1  0  0  0  0
 11 12  1  0  0  0  0
 13 14  1  0  0  0  0
 16 19  1  0  0  0  0
 25 26  1  0  0  0  0
 28 29  1  0  0  0  0
M  END
>  <MolRegNo>
2490798

>  <m>
=

>  <Value>
1300

>  <Unit>
nM

>  <Type>
IC50

>  <pValue>
5.89

>  <Ligand Efficiency>
0

>  <Binding Efficiency>
0

>  <Surface Efficiency>
0

>  <Assay Index>
1400991

>  <Assay Category>


>  <Assay Organism>
Homo sapiens

>  <Target ID>
17045

>  <Target Name>
Cytochrome P450 3A4

>  <Target Organism>
Homo sapiens

>  <Target Description>
Target is a single protein chain

>  <Sequence Accession>
P08684

>  <Reference>
RSC Med Chem 11 (12), 1366-1378 (2020)

>  <Pubmed ID>
34095844

>  <DOI>
10.1039/d0md00174k

$$$$
2522922
Actelion Java MolfileCreator 1.0

 28 32  0  0  0  0  0  0  0  0999 V2000
    0.0000   -0.0000   -0.0000 Cl  0  0  0  0  0  0  0  0  0  0  0  0
   -0.0119    1.5140   -0.0000 C   0  0  0  0  0  0  0  0  0  0  0  0
    1.2756    2.2770   -0.0000 C   0  0  0  0  0  0  0  0  0  0  0  0
   -1.3233    2.2770   -0.0000 C   0  0  0  0  0  0  0  0  0  0  0  0
    2.5631    1.5498   -0.0000 N   0  0  0  0  0  0  0  0  0  0  0  0
    1.2518    3.7910   -0.0000 C   0  0  0  0  0  0  0  0  0  0  0  0
   -2.6347    1.5498   -0.0000 N   0  0  0  0  0  0  0  0  0  0  0  0
   -1.3352    3.7910   -0.0000 C   0  0  0  0  0  0  0  0  0  0  0  0
    3.8507    2.3128   -0.0000 C   0  0  0  0  0  0  0  0  0  0  0  0
    2.5512    0.0596   -0.0000 C   0  0  0  0  0  0  0  0  0  0  0  0
    2.5393    4.5659   -0.0000 C   0  0  0  0  0  0  0  0  0  0  0  0
   -0.0596    4.5421   -0.0000 C   0  0  0  0  0  0  0  0  0  0  0  0
   -4.0056    2.1697   -0.0000 C   0  0  0  0  0  0  0  0  0  0  0  0
   -2.8016    0.0596   -0.0000 C   0  0  0  0  0  0  0  0  0  0  0  0
   -2.6466    4.5540   -0.0000 F   0  0  0  0  0  0  0  0  0  0  0  0
    5.1382    1.5856   -0.0000 O   0  0  0  0  0  0  0  0  0  0  0  0
    3.8268    3.8387   -0.0000 C   0  0  0  0  0  0  0  0  0  0  0  0
    1.8001   -1.2279   -0.0000 C   0  0  0  0  0  0  0  0  0  0  0  0
    3.2903   -1.2279   -0.0000 C   0  0  0  0  0  0  0  0  0  0  0  0
    2.8254    6.0442   -0.0000 O   0  0  0  0  0  0  0  0  0  0  0  0
   -5.0190    1.0729   -0.0000 C   0  0  0  0  0  0  0  0  0  0  0  0
   -4.2798   -0.2384   -0.0000 C   0  0  0  0  0  0  0  0  0  0  0  0
    4.9236    4.8640   -0.0000 N   0  0  0  0  0  0  0  0  0  0  0  0
    4.3037    6.2230   -0.0000 C   0  0  0  0  0  0  0  0  0  0  0  0
   -6.5211    1.2518   -0.0000 C   0  0  0  0  0  0  0  0  0  0  0  0
    5.0309    7.5344   -0.0000 C   0  0  0  0  0  0  0  0  0  0  0  0
   -7.1410    2.6347   -0.0000 N   0  0  0  0  0  0  0  0  0  0  0  0
   -7.4152    0.0596   -0.0000 C   0  0  0  0  0  0  0  0  0  0  0  0
  1  2  1  0  0  0  0
  2  3  2  0  0  0  0
  2  4  1  0  0  0  0
  3  5  1  0  0  0  0
  3  6  1  0  0  0  0
  4  7  1  0  0  0  0
  4  8  2  0  0  0  0
  5  9  1  0  0  0  0
  5 10  1  0  0  0  0
  6 11  1  0  0  0  0
  6 12  2  0  0  0  0
  7 13  1  0  0  0  0
  7 14  1  0  0  0  0
  8 15  1  0  0  0  0
  9 16  2  0  0  0  0
  9 17  1  0  0  0  0
 10 18  1  0  0  0  0
 10 19  1  0  0  0  0
 11 20  1  0  0  0  0
 21 13  1  6  0  0  0
 14 22  1  0  0  0  0
 17 23  1  0  0  0  0
 20 24  1  0  0  0  0
 21 25  1  0  0  0  0
 24 26  1  0  0  0  0
 25 27  1  1  0  0  0
 25 28  1  0  0  0  0
  8 12  1  0  0  0  0
 11 17  2  0  0  0  0
 18 19  1  0  0  0  0
 21 22  1  0  0  0  0
 23 24  2  0  0  0  0
M  END
>  <MolRegNo>
2522922

>  <m>
=

>  <Value>
17500

>  <Unit>
nM

>  <Type>
IC50

>  <pValue>
4.76

>  <Ligand Efficiency>
0

>  <Binding Efficiency>
0

>  <Surface Efficiency>
0

>  <Assay Index>
1401030

>  <Assay Category>


>  <Assay Organism>
Homo sapiens

>  <Target ID>
17045

>  <Target Name>
Cytochrome P450 3A4

>  <Target Organism>
Homo sapiens

>  <Target Description>
Target is a single protein chain

>  <Sequence Accession>
P08684

>  <Reference>
RSC Med Chem 11 (12), 1379-1385 (2020)

>  <Pubmed ID>
34095845

>  <DOI>
10.1039/d0md00175a

$$$$
2287467
Actelion Java MolfileCreator 1.0

 33 37  0  0  0  0  0  0  0  0999 V2000
    0.0000   -0.0000   -0.0000 F   0  0  0  0  0  0  0  0  0  0  0  0
   -0.4844    1.4296   -0.0000 C   0  0  0  0  0  0  0  0  0  0  0  0
   -1.9612    1.7486   -0.0000 C   0  0  0  0  0  0  0  0  0  0  0  0
    0.4962    2.5638   -0.0000 C   0  0  0  0  0  0  0  0  0  0  0  0
   -2.4338    3.1781   -0.0000 C   0  0  0  0  0  0  0  0  0  0  0  0
    0.0118    3.9815   -0.0000 C   0  0  0  0  0  0  0  0  0  0  0  0
   -1.4532    4.2887   -0.0000 C   0  0  0  0  0  0  0  0  0  0  0  0
   -1.9376    5.7183   -0.0000 C   0  0  0  0  0  0  0  0  0  0  0  0
   -3.3672    6.1791   -0.0000 C   0  0  0  0  0  0  0  0  0  0  0  0
   -1.0869    6.9352   -0.0000 C   0  0  0  0  0  0  0  0  0  0  0  0
   -4.6786    5.4347   -0.0000 N   0  0  0  0  0  0  0  0  0  0  0  0
   -3.3908    7.6795   -0.0000 C   0  0  0  0  0  0  0  0  0  0  0  0
   -1.9730    8.1403   -0.0000 C   0  0  0  0  0  0  0  0  0  0  0  0
   -5.9782    6.1909   -0.0000 C   0  0  0  0  0  0  0  0  0  0  0  0
   -4.7022    8.4357   -0.0000 C   0  0  0  0  0  0  0  0  0  0  0  0
   -6.0018    7.6913   -0.0000 N   0  0  0  0  0  0  0  0  0  0  0  0
   -7.2778    5.4584   -0.0000 N   0  0  0  0  0  0  0  0  0  0  0  0
   -4.7259    9.9361   -0.0000 N   0  0  0  0  0  0  0  0  0  0  0  0
   -8.5774    6.2145   -0.0000 C   0  0  0  0  0  0  0  0  0  0  0  0
   -6.0373   10.6923   -0.0000 C   0  0  0  0  0  0  0  0  0  0  0  0
   -8.5893    7.7268   -0.0000 C   0  0  0  0  0  0  0  0  0  0  0  0
   -9.8889    5.4820   -0.0000 C   0  0  0  0  0  0  0  0  0  0  0  0
   -9.8889    8.4829   -0.0000 C   0  0  0  0  0  0  0  0  0  0  0  0
  -11.1885    6.2381   -0.0000 C   0  0  0  0  0  0  0  0  0  0  0  0
   -9.9007    9.9834   -0.0000 O   0  0  0  0  0  0  0  0  0  0  0  0
  -11.1885    7.7504   -0.0000 C   0  0  0  0  0  0  0  0  0  0  0  0
   -8.6247   10.7395   -0.0000 C   0  0  0  0  0  0  0  0  0  0  0  0
  -12.4881    8.5066   -0.0000 N   0  0  0  0  0  0  0  0  0  0  0  0
  -13.8586    7.9158   -0.0000 N   0  0  0  0  0  0  0  0  0  0  0  0
  -12.6535    9.9952   -0.0000 C   0  0  0  0  0  0  0  0  0  0  0  0
  -14.8628    9.0382   -0.0000 C   0  0  0  0  0  0  0  0  0  0  0  0
  -14.1185   10.3142   -0.0000 N   0  0  0  0  0  0  0  0  0  0  0  0
  -16.3515    8.8964   -0.0000 C   0  0  0  0  0  0  0  0  0  0  0  0
  1  2  1  0  0  0  0
  2  3  2  0  0  0  0
  2  4  1  0  0  0  0
  3  5  1  0  0  0  0
  4  6  2  0  0  0  0
  5  7  2  0  0  0  0
  8  7  1  6  0  0  0
  8  9  1  0  0  0  0
  8 10  1  0  0  0  0
  9 11  2  0  0  0  0
  9 12  1  0  0  0  0
 10 13  1  0  0  0  0
 11 14  1  0  0  0  0
 12 15  2  0  0  0  0
 14 16  2  0  0  0  0
 14 17  1  0  0  0  0
 15 18  1  0  0  0  0
 17 19  1  0  0  0  0
 18 20  1  0  0  0  0
 19 21  2  0  0  0  0
 19 22  1  0  0  0  0
 21 23  1  0  0  0  0
 22 24  2  0  0  0  0
 23 25  1  0  0  0  0
 23 26  2  0  0  0  0
 25 27  1  0  0  0  0
 26 28  1  0  0  0  0
 28 29  1  0  0  0  0
 28 30  1  0  0  0  0
 29 31  2  0  0  0  0
 30 32  2  0  0  0  0
 31 33  1  0  0  0  0
  6  7  1  0  0  0  0
 12 13  1  0  0  0  0
 15 16  1  0  0  0  0
 24 26  1  0  0  0  0
 31 32  1  0  0  0  0
M  END
>  <MolRegNo>
2287467

>  <m>
=

>  <Value>
200

>  <Unit>
nM

>  <Type>
IC50

>  <pValue>
6.7

>  <Ligand Efficiency>
0

>  <Binding Efficiency>
0

>  <Surface Efficiency>
0

>  <Assay Index>
1401333

>  <Assay Category>


>  <Assay Organism>
Homo sapiens

>  <Target ID>
17045

>  <Target Name>
Cytochrome P450 3A4

>  <Target Organism>
Homo sapiens

>  <Target Description>
Target is a single protein chain

>  <Sequence Accession>
P08684

>  <Reference>
ACS Med Chem Lett 10 (3), 312-317 (2019)

>  <Pubmed ID>
30891132

>  <DOI>
10.1021/acsmedchemlett.8b00541

$$$$
2501318
Actelion Java MolfileCreator 1.0

 17 19  0  0  0  0  0  0  0  0999 V2000
    0.0000   -0.0000   -0.0000 N   0  0  0  0  0  0  0  0  0  0  0  0
   -1.3061    0.7531   -0.0000 C   0  0  0  0  0  0  0  0  0  0  0  0
    1.2825    0.7648   -0.0000 C   0  0  0  0  0  0  0  0  0  0  0  0
   -2.6121    0.0235   -0.0000 N   0  0  0  0  0  0  0  0  0  0  0  0
   -1.3178    2.2592   -0.0000 C   0  0  0  0  0  0  0  0  0  0  0  0
    2.6945    0.3177   -0.0000 N   0  0  0  0  0  0  0  0  0  0  0  0
    1.2708    2.2709   -0.0000 C   0  0  0  0  0  0  0  0  0  0  0  0
   -0.0471    3.0122   -0.0000 C   0  0  0  0  0  0  0  0  0  0  0  0
    3.5652    1.5414   -0.0000 N   0  0  0  0  0  0  0  0  0  0  0  0
    2.6827    2.7416   -0.0000 N   0  0  0  0  0  0  0  0  0  0  0  0
   -0.0588    4.5183   -0.0000 C   0  0  0  0  0  0  0  0  0  0  0  0
   -1.3649    5.2714   -0.0000 C   0  0  0  0  0  0  0  0  0  0  0  0
   -1.3767    6.7775   -0.0000 C   0  0  0  0  0  0  0  0  0  0  0  0
   -2.6592    4.5301   -0.0000 C   0  0  0  0  0  0  0  0  0  0  0  0
   -2.6827    7.5305   -0.0000 C   0  0  0  0  0  0  0  0  0  0  0  0
   -3.9653    5.2714   -0.0000 C   0  0  0  0  0  0  0  0  0  0  0  0
   -3.9888    6.7892   -0.0000 C   0  0  0  0  0  0  0  0  0  0  0  0
  1  2  2  0  0  0  0
  1  3  1  0  0  0  0
  2  4  1  0  0  0  0
  2  5  1  0  0  0  0
  3  6  1  0  0  0  0
  3  7  2  0  0  0  0
  5  8  2  0  0  0  0
  6  9  1  0  0  0  0
  7 10  1  0  0  0  0
  8 11  1  0  0  0  0
 11 12  1  0  0  0  0
 12 13  2  0  0  0  0
 12 14  1  0  0  0  0
 13 15  1  0  0  0  0
 14 16  2  0  0  0  0
 15 17  2  0  0  0  0
  7  8  1  0  0  0  0
  9 10  2  0  0  0  0
 16 17  1  0  0  0  0
M  END
>  <MolRegNo>
2501318

>  <m>
=

>  <Value>
6600

>  <Unit>
nM

>  <Type>
IC50

>  <pValue>
5.18

>  <Ligand Efficiency>
0

>  <Binding Efficiency>
0

>  <Surface Efficiency>
0

>  <Assay Index>
1403631

>  <Assay Category>


>  <Assay Organism>
Homo sapiens

>  <Target ID>
17045

>  <Target Name>
Cytochrome P450 3A4

>  <Target Organism>
Homo sapiens

>  <Target Description>
Target is a single protein chain

>  <Sequence Accession>
P08684

>  <Reference>
Bioorg Med Chem 28 (22), 115723-115723 (2020)

>  <Pubmed ID>
33007547

>  <DOI>
10.1016/j.bmc.2020.115723

$$$$
2508507
Actelion Java MolfileCreator 1.0

 24 27  0  0  0  0  0  0  0  0999 V2000
    0.0000   -0.0000   -0.0000 N   0  0  0  0  0  0  0  0  0  0  0  0
   -1.3069    0.7535   -0.0000 C   0  0  0  0  0  0  0  0  0  0  0  0
    1.2833    0.7653   -0.0000 C   0  0  0  0  0  0  0  0  0  0  0  0
   -2.6137    0.0235   -0.0000 N   0  0  0  0  0  0  0  0  0  0  0  0
   -1.3186    2.2605   -0.0000 C   0  0  0  0  0  0  0  0  0  0  0  0
    2.6961    0.3179   -0.0000 N   0  0  0  0  0  0  0  0  0  0  0  0
    1.2715    2.2723   -0.0000 C   0  0  0  0  0  0  0  0  0  0  0  0
   -0.0471    3.0140   -0.0000 C   0  0  0  0  0  0  0  0  0  0  0  0
    3.5674    1.5423   -0.0000 N   0  0  0  0  0  0  0  0  0  0  0  0
    2.6843    2.7432   -0.0000 N   0  0  0  0  0  0  0  0  0  0  0  0
   -0.0589    4.5210   -0.0000 C   0  0  0  0  0  0  0  0  0  0  0  0
   -1.3657    5.2745   -0.0000 C   0  0  0  0  0  0  0  0  0  0  0  0
    1.2127    5.2863   -0.0000 C   0  0  0  0  0  0  0  0  0  0  0  0
   -1.3775    6.7815   -0.0000 C   0  0  0  0  0  0  0  0  0  0  0  0
   -2.6608    4.5328   -0.0000 C   0  0  0  0  0  0  0  0  0  0  0  0
    1.2009    6.7933   -0.0000 C   0  0  0  0  0  0  0  0  0  0  0  0
   -2.6843    7.5350   -0.0000 C   0  0  0  0  0  0  0  0  0  0  0  0
   -3.9677    5.2745   -0.0000 C   0  0  0  0  0  0  0  0  0  0  0  0
    2.4842    7.5468   -0.0000 C   0  0  0  0  0  0  0  0  0  0  0  0
   -0.0942    7.5350   -0.0000 C   0  0  0  0  0  0  0  0  0  0  0  0
   -3.9912    6.7933   -0.0000 C   0  0  0  0  0  0  0  0  0  0  0  0
    2.4724    9.0538   -0.0000 C   0  0  0  0  0  0  0  0  0  0  0  0
   -0.1177    9.0302   -0.0000 C   0  0  0  0  0  0  0  0  0  0  0  0
    1.1656    9.8073   -0.0000 C   0  0  0  0  0  0  0  0  0  0  0  0
  1  2  2  0  0  0  0
  1  3  1  0  0  0  0
  2  4  1  0  0  0  0
  2  5  1  0  0  0  0
  3  6  1  0  0  0  0
  3  7  2  0  0  0  0
  5  8  2  0  0  0  0
  6  9  1  0  0  0  0
  7 10  1  0  0  0  0
  8 11  1  0  0  0  0
 11 12  1  0  0  0  0
 11 13  1  6  0  0  0
 12 14  2  0  0  0  0
 12 15  1  0  0  0  0
 13 16  1  0  0  0  0
 14 17  1  0  0  0  0
 15 18  2  0  0  0  0
 16 19  2  0  0  0  0
 16 20  1  0  0  0  0
 17 21  2  0  0  0  0
 19 22  1  0  0  0  0
 20 23  2  0  0  0  0
 22 24  2  0  0  0  0
  7  8  1  0  0  0  0
  9 10  2  0  0  0  0
 18 21  1  0  0  0  0
 23 24  1  0  0  0  0
M  END
>  <MolRegNo>
2508507

>  <m>
=

>  <Value>
3400

>  <Unit>
nM

>  <Type>
IC50

>  <pValue>
5.47

>  <Ligand Efficiency>
0

>  <Binding Efficiency>
0

>  <Surface Efficiency>
0

>  <Assay Index>
1403631

>  <Assay Category>


>  <Assay Organism>
Homo sapiens

>  <Target ID>
17045

>  <Target Name>
Cytochrome P450 3A4

>  <Target Organism>
Homo sapiens

>  <Target Description>
Target is a single protein chain

>  <Sequence Accession>
P08684

>  <Reference>
Bioorg Med Chem 28 (22), 115723-115723 (2020)

>  <Pubmed ID>
33007547

>  <DOI>
10.1016/j.bmc.2020.115723

$$$$
2510404
Actelion Java MolfileCreator 1.0

 26 29  0  0  0  0  0  0  0  0999 V2000
    0.0000   -0.0000   -0.0000 N   0  0  0  0  0  0  0  0  0  0  0  0
   -1.3123    0.7567   -0.0000 C   0  0  0  0  0  0  0  0  0  0  0  0
    1.2887    0.7685   -0.0000 C   0  0  0  0  0  0  0  0  0  0  0  0
   -2.6247    0.0236   -0.0000 N   0  0  0  0  0  0  0  0  0  0  0  0
   -1.3242    2.2700   -0.0000 C   0  0  0  0  0  0  0  0  0  0  0  0
    2.7074    0.3192   -0.0000 N   0  0  0  0  0  0  0  0  0  0  0  0
    1.2769    2.2818   -0.0000 C   0  0  0  0  0  0  0  0  0  0  0  0
   -0.0473    3.0266   -0.0000 C   0  0  0  0  0  0  0  0  0  0  0  0
    3.5823    1.5488   -0.0000 N   0  0  0  0  0  0  0  0  0  0  0  0
    2.6956    2.7547   -0.0000 N   0  0  0  0  0  0  0  0  0  0  0  0
   -0.0591    4.5400   -0.0000 C   0  0  0  0  0  0  0  0  0  0  0  0
   -1.3714    5.2966   -0.0000 C   0  0  0  0  0  0  0  0  0  0  0  0
    1.2178    5.3084   -0.0000 C   0  0  0  0  0  0  0  0  0  0  0  0
   -1.3833    6.8099   -0.0000 C   0  0  0  0  0  0  0  0  0  0  0  0
   -2.6720    4.5518   -0.0000 C   0  0  0  0  0  0  0  0  0  0  0  0
    2.5064    4.5754   -0.0000 C   0  0  0  0  0  0  0  0  0  0  0  0
   -2.6956    7.5666   -0.0000 C   0  0  0  0  0  0  0  0  0  0  0  0
   -3.9843    5.2966   -0.0000 C   0  0  0  0  0  0  0  0  0  0  0  0
    3.7833    5.3439   -0.0000 C   0  0  0  0  0  0  0  0  0  0  0  0
   -4.0079    6.8218   -0.0000 C   0  0  0  0  0  0  0  0  0  0  0  0
    5.0720    4.6109   -0.0000 C   0  0  0  0  0  0  0  0  0  0  0  0
    5.0602    3.1330   -0.0000 C   0  0  0  0  0  0  0  0  0  0  0  0
    6.3489    5.3794   -0.0000 C   0  0  0  0  0  0  0  0  0  0  0  0
    6.3489    2.4000   -0.0000 C   0  0  0  0  0  0  0  0  0  0  0  0
    7.6375    4.6582   -0.0000 C   0  0  0  0  0  0  0  0  0  0  0  0
    7.6375    3.1685   -0.0000 C   0  0  0  0  0  0  0  0  0  0  0  0
  1  2  2  0  0  0  0
  1  3  1  0  0  0  0
  2  4  1  0  0  0  0
  2  5  1  0  0  0  0
  3  6  1  0  0  0  0
  3  7  2  0  0  0  0
  5  8  2  0  0  0  0
  6  9  1  0  0  0  0
  7 10  1  0  0  0  0
  8 11  1  0  0  0  0
 11 12  1  0  0  0  0
 11 13  1  6  0  0  0
 12 14  2  0  0  0  0
 12 15  1  0  0  0  0
 13 16  1  0  0  0  0
 14 17  1  0  0  0  0
 15 18  2  0  0  0  0
 16 19  1  0  0  0  0
 17 20  2  0  0  0  0
 19 21  1  0  0  0  0
 21 22  2  0  0  0  0
 21 23  1  0  0  0  0
 22 24  1  0  0  0  0
 23 25  2  0  0  0  0
 24 26  2  0  0  0  0
  7  8  1  0  0  0  0
  9 10  2  0  0  0  0
 18 20  1  0  0  0  0
 25 26  1  0  0  0  0
M  END
>  <MolRegNo>
2510404

>  <m>
=

>  <Value>
1800

>  <Unit>
nM

>  <Type>
IC50

>  <pValue>
5.75

>  <Ligand Efficiency>
0

>  <Binding Efficiency>
0

>  <Surface Efficiency>
0

>  <Assay Index>
1403631

>  <Assay Category>


>  <Assay Organism>
Homo sapiens

>  <Target ID>
17045

>  <Target Name>
Cytochrome P450 3A4

>  <Target Organism>
Homo sapiens

>  <Target Description>
Target is a single protein chain

>  <Sequence Accession>
P08684

>  <Reference>
Bioorg Med Chem 28 (22), 115723-115723 (2020)

>  <Pubmed ID>
33007547

>  <DOI>
10.1016/j.bmc.2020.115723

$$$$
2529311
Actelion Java MolfileCreator 1.0

 27 30  0  0  0  0  0  0  0  0999 V2000
    0.0000   -0.0000   -0.0000 O   0  0  0  0  0  0  0  0  0  0  0  0
    1.2904   -0.7340   -0.0000 C   0  0  0  0  0  0  0  0  0  0  0  0
   -1.3022   -0.7458   -0.0000 C   0  0  0  0  0  0  0  0  0  0  0  0
    2.5689    0.0355   -0.0000 C   0  0  0  0  0  0  0  0  0  0  0  0
   -2.6163    0.0118   -0.0000 C   0  0  0  0  0  0  0  0  0  0  0  0
    3.8593   -0.6985   -0.0000 C   0  0  0  0  0  0  0  0  0  0  0  0
    2.5453    1.5390   -0.0000 C   0  0  0  0  0  0  0  0  0  0  0  0
   -3.9185   -0.7340   -0.0000 C   0  0  0  0  0  0  0  0  0  0  0  0
    5.1379    0.0710   -0.0000 C   0  0  0  0  0  0  0  0  0  0  0  0
    3.8238    2.3085   -0.0000 C   0  0  0  0  0  0  0  0  0  0  0  0
   -3.9303   -2.2256   -0.0000 C   0  0  0  0  0  0  0  0  0  0  0  0
   -5.2326    0.0237   -0.0000 C   0  0  0  0  0  0  0  0  0  0  0  0
    5.1260    1.5863   -0.0000 C   0  0  0  0  0  0  0  0  0  0  0  0
   -2.6400   -2.9596   -0.0000 C   0  0  0  0  0  0  0  0  0  0  0  0
   -5.2326   -2.9596   -0.0000 C   0  0  0  0  0  0  0  0  0  0  0  0
   -5.2444    1.5390   -0.0000 C   0  0  0  0  0  0  0  0  0  0  0  0
   -6.5348   -0.7221   -0.0000 C   0  0  0  0  0  0  0  0  0  0  0  0
   -1.2194   -2.4861   -0.0000 N   0  0  0  0  0  0  0  0  0  0  0  0
   -2.6518   -4.4512   -0.0000 C   0  0  0  0  0  0  0  0  0  0  0  0
   -5.2444   -4.4512   -0.0000 C   0  0  0  0  0  0  0  0  0  0  0  0
   -6.5585    2.2967   -0.0000 C   0  0  0  0  0  0  0  0  0  0  0  0
   -7.8489    0.0237   -0.0000 C   0  0  0  0  0  0  0  0  0  0  0  0
   -0.3433   -3.6936   -0.0000 N   0  0  0  0  0  0  0  0  0  0  0  0
   -3.9659   -5.1971   -0.0000 N   0  0  0  0  0  0  0  0  0  0  0  0
   -1.2312   -4.9011   -0.0000 N   0  0  0  0  0  0  0  0  0  0  0  0
   -6.5585   -5.1852   -0.0000 N   0  0  0  0  0  0  0  0  0  0  0  0
   -7.8725    1.5508   -0.0000 C   0  0  0  0  0  0  0  0  0  0  0  0
  1  2  1  0  0  0  0
  1  3  1  0  0  0  0
  2  4  1  0  0  0  0
  3  5  1  0  0  0  0
  4  6  2  0  0  0  0
  4  7  1  0  0  0  0
  8  5  1  6  0  0  0
  6  9  1  0  0  0  0
  7 10  2  0  0  0  0
  8 11  1  0  0  0  0
  8 12  1  0  0  0  0
  9 13  2  0  0  0  0
 11 14  2  0  0  0  0
 11 15  1  0  0  0  0
 12 16  2  0  0  0  0
 12 17  1  0  0  0  0
 14 18  1  0  0  0  0
 14 19  1  0  0  0  0
 15 20  2  0  0  0  0
 16 21  1  0  0  0  0
 17 22  2  0  0  0  0
 18 23  2  0  0  0  0
 19 24  2  0  0  0  0
 19 25  1  0  0  0  0
 20 26  1  0  0  0  0
 21 27  2  0  0  0  0
 10 13  1  0  0  0  0
 20 24  1  0  0  0  0
 22 27  1  0  0  0  0
 23 25  1  0  0  0  0
M  END
>  <MolRegNo>
2529311

>  <m>
=

>  <Value>
2600

>  <Unit>
nM

>  <Type>
IC50

>  <pValue>
5.58

>  <Ligand Efficiency>
0

>  <Binding Efficiency>
0

>  <Surface Efficiency>
0

>  <Assay Index>
1403631

>  <Assay Category>


>  <Assay Organism>
Homo sapiens

>  <Target ID>
17045

>  <Target Name>
Cytochrome P450 3A4

>  <Target Organism>
Homo sapiens

>  <Target Description>
Target is a single protein chain

>  <Sequence Accession>
P08684

>  <Reference>
Bioorg Med Chem 28 (22), 115723-115723 (2020)

>  <Pubmed ID>
33007547

>  <DOI>
10.1016/j.bmc.2020.115723

$$$$
2536596
Actelion Java MolfileCreator 1.0

 27 30  0  0  0  0  0  0  0  0999 V2000
    0.0000   -0.0000   -0.0000 N   0  0  0  0  0  0  0  0  0  0  0  0
   -1.3112    0.7560   -0.0000 C   0  0  0  0  0  0  0  0  0  0  0  0
    1.2876    0.7678   -0.0000 C   0  0  0  0  0  0  0  0  0  0  0  0
   -2.6225    0.0236   -0.0000 N   0  0  0  0  0  0  0  0  0  0  0  0
   -1.3230    2.2681   -0.0000 C   0  0  0  0  0  0  0  0  0  0  0  0
    2.7051    0.3189   -0.0000 N   0  0  0  0  0  0  0  0  0  0  0  0
    1.2758    2.2799   -0.0000 C   0  0  0  0  0  0  0  0  0  0  0  0
   -0.0473    3.0241   -0.0000 C   0  0  0  0  0  0  0  0  0  0  0  0
    3.5793    1.5475   -0.0000 N   0  0  0  0  0  0  0  0  0  0  0  0
    2.6933    2.7524   -0.0000 N   0  0  0  0  0  0  0  0  0  0  0  0
   -0.0591    4.5361   -0.0000 C   0  0  0  0  0  0  0  0  0  0  0  0
   -1.3703    5.2922   -0.0000 C   0  0  0  0  0  0  0  0  0  0  0  0
    1.2167    5.3040   -0.0000 C   0  0  0  0  0  0  0  0  0  0  0  0
   -1.3821    6.8042   -0.0000 C   0  0  0  0  0  0  0  0  0  0  0  0
   -2.6697    4.5480   -0.0000 C   0  0  0  0  0  0  0  0  0  0  0  0
    2.5043    4.5716   -0.0000 C   0  0  0  0  0  0  0  0  0  0  0  0
   -2.6933    7.5602   -0.0000 C   0  0  0  0  0  0  0  0  0  0  0  0
   -3.9809    5.2922   -0.0000 C   0  0  0  0  0  0  0  0  0  0  0  0
    3.7801    5.3394   -0.0000 N   0  0  0  0  0  0  0  0  0  0  0  0
   -4.0046    6.8160   -0.0000 C   0  0  0  0  0  0  0  0  0  0  0  0
    5.0677    4.6070   -0.0000 C   0  0  0  0  0  0  0  0  0  0  0  0
    6.3435    5.3749   -0.0000 C   0  0  0  0  0  0  0  0  0  0  0  0
    7.6311    4.6425   -0.0000 C   0  0  0  0  0  0  0  0  0  0  0  0
    6.3199    6.8751   -0.0000 C   0  0  0  0  0  0  0  0  0  0  0  0
    8.9069    5.4103   -0.0000 C   0  0  0  0  0  0  0  0  0  0  0  0
    7.5957    7.6429   -0.0000 C   0  0  0  0  0  0  0  0  0  0  0  0
    8.8951    6.9223   -0.0000 C   0  0  0  0  0  0  0  0  0  0  0  0
  1  2  2  0  0  0  0
  1  3  1  0  0  0  0
  2  4  1  0  0  0  0
  2  5  1  0  0  0  0
  3  6  1  0  0  0  0
  3  7  2  0  0  0  0
  5  8  2  0  0  0  0
  6  9  1  0  0  0  0
  7 10  1  0  0  0  0
  8 11  1  0  0  0  0
 11 12  1  0  0  0  0
 11 13  1  6  0  0  0
 12 14  2  0  0  0  0
 12 15  1  0  0  0  0
 13 16  1  0  0  0  0
 14 17  1  0  0  0  0
 15 18  2  0  0  0  0
 16 19  1  0  0  0  0
 17 20  2  0  0  0  0
 19 21  1  0  0  0  0
 21 22  1  0  0  0  0
 22 23  2  0  0  0  0
 22 24  1  0  0  0  0
 23 25  1  0  0  0  0
 24 26  2  0  0  0  0
 25 27  2  0  0  0  0
  7  8  1  0  0  0  0
  9 10  2  0  0  0  0
 18 20  1  0  0  0  0
 26 27  1  0  0  0  0
M  END
>  <MolRegNo>
2536596

>  <m>
=

>  <Value>
12000

>  <Unit>
nM

>  <Type>
IC50

>  <pValue>
4.92

>  <Ligand Efficiency>
0

>  <Binding Efficiency>
0

>  <Surface Efficiency>
0

>  <Assay Index>
1403631

>  <Assay Category>


>  <Assay Organism>
Homo sapiens

>  <Target ID>
17045

>  <Target Name>
Cytochrome P450 3A4

>  <Target Organism>
Homo sapiens

>  <Target Description>
Target is a single protein chain

>  <Sequence Accession>
P08684

>  <Reference>
Bioorg Med Chem 28 (22), 115723-115723 (2020)

>  <Pubmed ID>
33007547

>  <DOI>
10.1016/j.bmc.2020.115723

$$$$
2352452
Actelion Java MolfileCreator 1.0

 31 35  0  0  0  0  0  0  0  0999 V2000
    0.0000   -0.0000   -0.0000 S   0  0  0  0  0  0  0  0  0  0  0  0
    0.7386   -1.2865   -0.0000 C   0  0  0  0  0  0  0  0  0  0  0  0
   -1.4771   -0.3097   -0.0000 C   0  0  0  0  0  0  0  0  0  0  0  0
   -0.2740   -2.3943   -0.0000 N   0  0  0  0  0  0  0  0  0  0  0  0
    2.2276   -1.4295   -0.0000 N   0  0  0  0  0  0  0  0  0  0  0  0
   -1.6439   -1.7987   -0.0000 C   0  0  0  0  0  0  0  0  0  0  0  0
    2.8351   -2.7875   -0.0000 C   0  0  0  0  0  0  0  0  0  0  0  0
   -2.9542   -2.5492   -0.0000 C   0  0  0  0  0  0  0  0  0  0  0  0
    4.3003   -3.0853   -0.0000 N   0  0  0  0  0  0  0  0  0  0  0  0
    2.0846   -4.0859   -0.0000 C   0  0  0  0  0  0  0  0  0  0  0  0
   -4.2646   -1.7868   -0.0000 N   0  0  0  0  0  0  0  0  0  0  0  0
   -2.9661   -4.0501   -0.0000 C   0  0  0  0  0  0  0  0  0  0  0  0
    4.4552   -4.5624   -0.0000 N   0  0  0  0  0  0  0  0  0  0  0  0
    5.3962   -2.0608   -0.0000 C   0  0  0  0  0  0  0  0  0  0  0  0
    3.0853   -5.1818   -0.0000 C   0  0  0  0  0  0  0  0  0  0  0  0
    0.6194   -4.3837   -0.0000 C   0  0  0  0  0  0  0  0  0  0  0  0
   -5.5749   -2.5254   -0.0000 C   0  0  0  0  0  0  0  0  0  0  0  0
   -4.2884   -4.7887   -0.0000 C   0  0  0  0  0  0  0  0  0  0  0  0
    6.8138   -2.5016   -0.0000 C   0  0  0  0  0  0  0  0  0  0  0  0
    2.6207   -6.5994   -0.0000 C   0  0  0  0  0  0  0  0  0  0  0  0
    0.1429   -5.8012   -0.0000 C   0  0  0  0  0  0  0  0  0  0  0  0
   -6.8972   -1.7630   -0.0000 O   0  0  0  0  0  0  0  0  0  0  0  0
   -5.5868   -4.0263   -0.0000 C   0  0  0  0  0  0  0  0  0  0  0  0
    1.1436   -6.8972   -0.0000 C   0  0  0  0  0  0  0  0  0  0  0  0
   -8.2075   -2.5016   -0.0000 C   0  0  0  0  0  0  0  0  0  0  0  0
   -6.9091   -4.7649   -0.0000 N   0  0  0  0  0  0  0  0  0  0  0  0
   -7.0758   -6.2420   -0.0000 C   0  0  0  0  0  0  0  0  0  0  0  0
   -8.2909   -4.1454   -0.0000 C   0  0  0  0  0  0  0  0  0  0  0  0
   -8.5530   -6.5398   -0.0000 N   0  0  0  0  0  0  0  0  0  0  0  0
   -9.3034   -5.2533   -0.0000 C   0  0  0  0  0  0  0  0  0  0  0  0
  -10.8044   -5.0865   -0.0000 C   0  0  0  0  0  0  0  0  0  0  0  0
  1  2  1  0  0  0  0
  1  3  1  0  0  0  0
  2  4  2  0  0  0  0
  2  5  1  0  0  0  0
  3  6  2  0  0  0  0
  5  7  1  0  0  0  0
  6  8  1  0  0  0  0
  7  9  1  0  0  0  0
  7 10  2  0  0  0  0
  8 11  2  0  0  0  0
  8 12  1  0  0  0  0
  9 13  1  0  0  0  0
  9 14  1  0  0  0  0
 10 15  1  0  0  0  0
 10 16  1  0  0  0  0
 11 17  1  0  0  0  0
 12 18  2  0  0  0  0
 14 19  1  0  0  0  0
 15 20  1  0  0  0  0
 16 21  1  0  0  0  0
 17 22  1  0  0  0  0
 17 23  2  0  0  0  0
 20 24  1  0  0  0  0
 22 25  1  0  0  0  0
 23 26  1  0  0  0  0
 26 27  1  0  0  0  0
 26 28  1  0  0  0  0
 27 29  2  0  0  0  0
 28 30  2  0  0  0  0
 30 31  1  0  0  0  0
  4  6  1  0  0  0  0
 13 15  2  0  0  0  0
 18 23  1  0  0  0  0
 21 24  1  0  0  0  0
 29 30  1  0  0  0  0
M  END
>  <MolRegNo>
2352452

>  <m>
=

>  <Value>
3700

>  <Unit>
nM

>  <Type>
IC50

>  <pValue>
5.43

>  <Ligand Efficiency>
0

>  <Binding Efficiency>
0

>  <Surface Efficiency>
0

>  <Assay Index>
1403667

>  <Assay Category>


>  <Assay Organism>
Homo sapiens

>  <Target ID>
17045

>  <Target Name>
Cytochrome P450 3A4

>  <Target Organism>
Homo sapiens

>  <Target Description>
Target is a single protein chain

>  <Sequence Accession>
P08684

>  <Reference>
Bioorg Med Chem 28 (22), 115734-115734 (2020)

>  <Pubmed ID>
33007551

>  <DOI>
10.1016/j.bmc.2020.115734

$$$$
2502061
Actelion Java MolfileCreator 1.0

 33 37  0  0  0  0  0  0  0  0999 V2000
    0.0000   -0.0000   -0.0000 S   0  0  0  0  0  0  0  0  0  0  0  0
    0.7495   -1.2848   -0.0000 C   0  0  0  0  0  0  0  0  0  0  0  0
   -1.4751   -0.3093   -0.0000 C   0  0  0  0  0  0  0  0  0  0  0  0
   -0.2617   -2.3911   -0.0000 N   0  0  0  0  0  0  0  0  0  0  0  0
    2.2365   -1.2729   -0.0000 N   0  0  0  0  0  0  0  0  0  0  0  0
   -1.6417   -1.7963   -0.0000 C   0  0  0  0  0  0  0  0  0  0  0  0
    2.9741   -2.5577   -0.0000 C   0  0  0  0  0  0  0  0  0  0  0  0
   -2.9503   -2.5339   -0.0000 C   0  0  0  0  0  0  0  0  0  0  0  0
    4.4492   -2.7004   -0.0000 N   0  0  0  0  0  0  0  0  0  0  0  0
    2.3436   -3.9139   -0.0000 C   0  0  0  0  0  0  0  0  0  0  0  0
   -4.2588   -1.7725   -0.0000 N   0  0  0  0  0  0  0  0  0  0  0  0
   -2.9622   -4.0328   -0.0000 C   0  0  0  0  0  0  0  0  0  0  0  0
    4.7466   -4.1518   -0.0000 N   0  0  0  0  0  0  0  0  0  0  0  0
    5.4366   -1.5703   -0.0000 C   0  0  0  0  0  0  0  0  0  0  0  0
    3.4618   -4.9131   -0.0000 C   0  0  0  0  0  0  0  0  0  0  0  0
    0.9041   -4.3659   -0.0000 C   0  0  0  0  0  0  0  0  0  0  0  0
   -5.5674   -2.5101   -0.0000 C   0  0  0  0  0  0  0  0  0  0  0  0
   -4.2826   -4.7704   -0.0000 C   0  0  0  0  0  0  0  0  0  0  0  0
    6.8879   -1.8677   -0.0000 C   0  0  0  0  0  0  0  0  0  0  0  0
    4.9607   -0.1309   -0.0000 C   0  0  0  0  0  0  0  0  0  0  0  0
    6.4834   -0.4877   -0.0000 C   0  0  0  0  0  0  0  0  0  0  0  0
    3.1406   -6.3764   -0.0000 C   0  0  0  0  0  0  0  0  0  0  0  0
    0.5710   -5.8292   -0.0000 C   0  0  0  0  0  0  0  0  0  0  0  0
   -6.8760   -1.7487   -0.0000 O   0  0  0  0  0  0  0  0  0  0  0  0
   -5.5793   -4.0090   -0.0000 C   0  0  0  0  0  0  0  0  0  0  0  0
    1.6893   -6.8284   -0.0000 C   0  0  0  0  0  0  0  0  0  0  0  0
   -6.8879   -0.2379   -0.0000 C   0  0  0  0  0  0  0  0  0  0  0  0
   -6.8879   -4.7466   -0.0000 N   0  0  0  0  0  0  0  0  0  0  0  0
   -7.0545   -6.2217   -0.0000 C   0  0  0  0  0  0  0  0  0  0  0  0
   -8.2679   -4.1280   -0.0000 C   0  0  0  0  0  0  0  0  0  0  0  0
   -8.5296   -6.5191   -0.0000 N   0  0  0  0  0  0  0  0  0  0  0  0
   -9.2791   -5.2343   -0.0000 C   0  0  0  0  0  0  0  0  0  0  0  0
  -10.7780   -5.0678   -0.0000 C   0  0  0  0  0  0  0  0  0  0  0  0
  1  2  1  0  0  0  0
  1  3  1  0  0  0  0
  2  4  2  0  0  0  0
  2  5  1  0  0  0  0
  3  6  2  0  0  0  0
  5  7  1  0  0  0  0
  6  8  1  0  0  0  0
  7  9  1  0  0  0  0
  7 10  2  0  0  0  0
  8 11  2  0  0  0  0
  8 12  1  0  0  0  0
  9 13  1  0  0  0  0
  9 14  1  0  0  0  0
 10 15  1  0  0  0  0
 10 16  1  0  0  0  0
 11 17  1  0  0  0  0
 12 18  2  0  0  0  0
 14 19  1  0  0  0  0
 14 20  1  0  0  0  0
 14 21  1  0  0  0  0
 15 22  1  0  0  0  0
 16 23  1  0  0  0  0
 17 24  1  0  0  0  0
 17 25  2  0  0  0  0
 22 26  1  0  0  0  0
 24 27  1  0  0  0  0
 25 28  1  0  0  0  0
 28 29  1  0  0  0  0
 28 30  1  0  0  0  0
 29 31  2  0  0  0  0
 30 32  2  0  0  0  0
 32 33  1  0  0  0  0
  4  6  1  0  0  0  0
 13 15  2  0  0  0  0
 18 25  1  0  0  0  0
 23 26  1  0  0  0  0
 31 32  1  0  0  0  0
M  END
>  <MolRegNo>
2502061

>  <m>
=

>  <Value>
5300

>  <Unit>
nM

>  <Type>
IC50

>  <pValue>
5.28

>  <Ligand Efficiency>
0

>  <Binding Efficiency>
0

>  <Surface Efficiency>
0

>  <Assay Index>
1403667

>  <Assay Category>


>  <Assay Organism>
Homo sapiens

>  <Target ID>
17045

>  <Target Name>
Cytochrome P450 3A4

>  <Target Organism>
Homo sapiens

>  <Target Description>
Target is a single protein chain

>  <Sequence Accession>
P08684

>  <Reference>
Bioorg Med Chem 28 (22), 115734-115734 (2020)

>  <Pubmed ID>
33007551

>  <DOI>
10.1016/j.bmc.2020.115734

$$$$
2532554
Actelion Java MolfileCreator 1.0

 33 38  0  0  0  0  0  0  0  0999 V2000
    0.0000   -0.0000   -0.0000 S   0  0  0  0  0  0  0  0  0  0  0  0
    0.7379   -1.2854   -0.0000 C   0  0  0  0  0  0  0  0  0  0  0  0
   -1.4758   -0.3094   -0.0000 C   0  0  0  0  0  0  0  0  0  0  0  0
   -0.2737   -2.3922   -0.0000 N   0  0  0  0  0  0  0  0  0  0  0  0
    2.2256   -1.2735   -0.0000 N   0  0  0  0  0  0  0  0  0  0  0  0
   -1.6424   -1.7971   -0.0000 C   0  0  0  0  0  0  0  0  0  0  0  0
    2.9635   -2.5588   -0.0000 C   0  0  0  0  0  0  0  0  0  0  0  0
   -2.9516   -2.5350   -0.0000 C   0  0  0  0  0  0  0  0  0  0  0  0
    4.4393   -2.7016   -0.0000 N   0  0  0  0  0  0  0  0  0  0  0  0
    2.3327   -3.9156   -0.0000 C   0  0  0  0  0  0  0  0  0  0  0  0
   -4.2607   -1.7733   -0.0000 N   0  0  0  0  0  0  0  0  0  0  0  0
   -2.9635   -4.0346   -0.0000 C   0  0  0  0  0  0  0  0  0  0  0  0
    4.7368   -4.1536   -0.0000 N   0  0  0  0  0  0  0  0  0  0  0  0
    5.4271   -1.5710   -0.0000 C   0  0  0  0  0  0  0  0  0  0  0  0
    3.4514   -4.9153   -0.0000 C   0  0  0  0  0  0  0  0  0  0  0  0
    0.8926   -4.3678   -0.0000 C   0  0  0  0  0  0  0  0  0  0  0  0
   -5.5699   -2.5112   -0.0000 C   0  0  0  0  0  0  0  0  0  0  0  0
   -4.2845   -4.7725   -0.0000 C   0  0  0  0  0  0  0  0  0  0  0  0
    6.9148   -1.4877   -0.0000 C   0  0  0  0  0  0  0  0  0  0  0  0
    5.3319   -0.0714   -0.0000 C   0  0  0  0  0  0  0  0  0  0  0  0
    3.1301   -6.3792   -0.0000 C   0  0  0  0  0  0  0  0  0  0  0  0
    0.5594   -5.8317   -0.0000 C   0  0  0  0  0  0  0  0  0  0  0  0
   -6.8791   -1.7495   -0.0000 O   0  0  0  0  0  0  0  0  0  0  0  0
   -5.5818   -4.0108   -0.0000 C   0  0  0  0  0  0  0  0  0  0  0  0
    6.8196    0.0238   -0.0000 C   0  0  0  0  0  0  0  0  0  0  0  0
    1.6781   -6.8315   -0.0000 C   0  0  0  0  0  0  0  0  0  0  0  0
   -6.8910   -0.2380   -0.0000 C   0  0  0  0  0  0  0  0  0  0  0  0
   -6.8910   -4.7487   -0.0000 N   0  0  0  0  0  0  0  0  0  0  0  0
   -7.0576   -6.2245   -0.0000 C   0  0  0  0  0  0  0  0  0  0  0  0
   -8.2715   -4.1298   -0.0000 C   0  0  0  0  0  0  0  0  0  0  0  0
   -8.5334   -6.5220   -0.0000 N   0  0  0  0  0  0  0  0  0  0  0  0
   -9.2832   -5.2367   -0.0000 C   0  0  0  0  0  0  0  0  0  0  0  0
  -10.7827   -5.0700   -0.0000 C   0  0  0  0  0  0  0  0  0  0  0  0
  1  2  1  0  0  0  0
  1  3  1  0  0  0  0
  2  4  2  0  0  0  0
  2  5  1  0  0  0  0
  3  6  2  0  0  0  0
  5  7  1  0  0  0  0
  6  8  1  0  0  0  0
  7  9  1  0  0  0  0
  7 10  2  0  0  0  0
  8 11  2  0  0  0  0
  8 12  1  0  0  0  0
  9 13  1  0  0  0  0
  9 14  1  0  0  0  0
 10 15  1  0  0  0  0
 10 16  1  0  0  0  0
 11 17  1  0  0  0  0
 12 18  2  0  0  0  0
 14 19  1  0  0  0  0
 14 20  1  0  0  0  0
 15 21  1  0  0  0  0
 16 22  1  0  0  0  0
 17 23  1  0  0  0  0
 17 24  2  0  0  0  0
 19 25  1  0  0  0  0
 21 26  1  0  0  0  0
 23 27  1  0  0  0  0
 24 28  1  0  0  0  0
 28 29  1  0  0  0  0
 28 30  1  0  0  0  0
 29 31  2  0  0  0  0
 30 32  2  0  0  0  0
 32 33  1  0  0  0  0
  4  6  1  0  0  0  0
 13 15  2  0  0  0  0
 18 24  1  0  0  0  0
 20 25  1  0  0  0  0
 22 26  1  0  0  0  0
 31 32  1  0  0  0  0
M  END
>  <MolRegNo>
2532554

>  <m>
=

>  <Value>
590

>  <Unit>
nM

>  <Type>
IC50

>  <pValue>
6.23

>  <Ligand Efficiency>
0

>  <Binding Efficiency>
0

>  <Surface Efficiency>
0

>  <Assay Index>
1403667

>  <Assay Category>


>  <Assay Organism>
Homo sapiens

>  <Target ID>
17045

>  <Target Name>
Cytochrome P450 3A4

>  <Target Organism>
Homo sapiens

>  <Target Description>
Target is a single protein chain

>  <Sequence Accession>
P08684

>  <Reference>
Bioorg Med Chem 28 (22), 115734-115734 (2020)

>  <Pubmed ID>
33007551

>  <DOI>
10.1016/j.bmc.2020.115734

$$$$
2498060
Actelion Java MolfileCreator 1.0

 32 36  0  0  0  0  0  0  0  0999 V2000
    0.0000   -0.0000   -0.0000 S   0  0  0  0  0  0  0  0  0  0  0  0
    0.7498   -1.2853   -0.0000 C   0  0  0  0  0  0  0  0  0  0  0  0
   -1.4757   -0.3094   -0.0000 C   0  0  0  0  0  0  0  0  0  0  0  0
   -0.2618   -2.3921   -0.0000 N   0  0  0  0  0  0  0  0  0  0  0  0
    2.2374   -1.2734   -0.0000 N   0  0  0  0  0  0  0  0  0  0  0  0
   -1.6423   -1.7970   -0.0000 C   0  0  0  0  0  0  0  0  0  0  0  0
    2.9752   -2.5587   -0.0000 C   0  0  0  0  0  0  0  0  0  0  0  0
   -2.9514   -2.5349   -0.0000 C   0  0  0  0  0  0  0  0  0  0  0  0
    4.4509   -2.7015   -0.0000 N   0  0  0  0  0  0  0  0  0  0  0  0
    2.3445   -3.9154   -0.0000 C   0  0  0  0  0  0  0  0  0  0  0  0
   -4.2605   -1.7732   -0.0000 N   0  0  0  0  0  0  0  0  0  0  0  0
   -2.9633   -4.0344   -0.0000 C   0  0  0  0  0  0  0  0  0  0  0  0
    4.7485   -4.1534   -0.0000 N   0  0  0  0  0  0  0  0  0  0  0  0
    5.4387   -1.5709   -0.0000 C   0  0  0  0  0  0  0  0  0  0  0  0
    3.4632   -4.9151   -0.0000 C   0  0  0  0  0  0  0  0  0  0  0  0
    0.9045   -4.3676   -0.0000 C   0  0  0  0  0  0  0  0  0  0  0  0
   -5.5696   -2.5111   -0.0000 C   0  0  0  0  0  0  0  0  0  0  0  0
   -4.2843   -4.7723   -0.0000 C   0  0  0  0  0  0  0  0  0  0  0  0
    6.8906   -1.8684   -0.0000 C   0  0  0  0  0  0  0  0  0  0  0  0
    3.1418   -6.3789   -0.0000 C   0  0  0  0  0  0  0  0  0  0  0  0
    0.5712   -5.8314   -0.0000 C   0  0  0  0  0  0  0  0  0  0  0  0
   -6.8787   -1.7494   -0.0000 O   0  0  0  0  0  0  0  0  0  0  0  0
   -5.5815   -4.0106   -0.0000 C   0  0  0  0  0  0  0  0  0  0  0  0
    7.8784   -0.7379   -0.0000 F   0  0  0  0  0  0  0  0  0  0  0  0
    1.6899   -6.8311   -0.0000 C   0  0  0  0  0  0  0  0  0  0  0  0
   -6.8906   -0.2380   -0.0000 C   0  0  0  0  0  0  0  0  0  0  0  0
   -6.8906   -4.7485   -0.0000 N   0  0  0  0  0  0  0  0  0  0  0  0
   -7.0572   -6.2242   -0.0000 C   0  0  0  0  0  0  0  0  0  0  0  0
   -8.2711   -4.1296   -0.0000 C   0  0  0  0  0  0  0  0  0  0  0  0
   -8.5330   -6.5217   -0.0000 N   0  0  0  0  0  0  0  0  0  0  0  0
   -9.2827   -5.2364   -0.0000 C   0  0  0  0  0  0  0  0  0  0  0  0
  -10.7822   -5.0698   -0.0000 C   0  0  0  0  0  0  0  0  0  0  0  0
  1  2  1  0  0  0  0
  1  3  1  0  0  0  0
  2  4  2  0  0  0  0
  2  5  1  0  0  0  0
  3  6  2  0  0  0  0
  5  7  1  0  0  0  0
  6  8  1  0  0  0  0
  7  9  1  0  0  0  0
  7 10  2  0  0  0  0
  8 11  2  0  0  0  0
  8 12  1  0  0  0  0
  9 13  1  0  0  0  0
  9 14  1  0  0  0  0
 10 15  1  0  0  0  0
 10 16  1  0  0  0  0
 11 17  1  0  0  0  0
 12 18  2  0  0  0  0
 14 19  1  0  0  0  0
 15 20  1  0  0  0  0
 16 21  1  0  0  0  0
 17 22  1  0  0  0  0
 17 23  2  0  0  0  0
 19 24  1  0  0  0  0
 20 25  1  0  0  0  0
 22 26  1  0  0  0  0
 23 27  1  0  0  0  0
 27 28  1  0  0  0  0
 27 29  1  0  0  0  0
 28 30  2  0  0  0  0
 29 31  2  0  0  0  0
 31 32  1  0  0  0  0
  4  6  1  0  0  0  0
 13 15  2  0  0  0  0
 18 23  1  0  0  0  0
 21 25  1  0  0  0  0
 30 31  1  0  0  0  0
M  END
>  <MolRegNo>
2498060

>  <m>
=

>  <Value>
1000

>  <Unit>
nM

>  <Type>
IC50

>  <pValue>
6

>  <Ligand Efficiency>
0

>  <Binding Efficiency>
0

>  <Surface Efficiency>
0

>  <Assay Index>
1403667

>  <Assay Category>


>  <Assay Organism>
Homo sapiens

>  <Target ID>
17045

>  <Target Name>
Cytochrome P450 3A4

>  <Target Organism>
Homo sapiens

>  <Target Description>
Target is a single protein chain

>  <Sequence Accession>
P08684

>  <Reference>
Bioorg Med Chem 28 (22), 115734-115734 (2020)

>  <Pubmed ID>
33007551

>  <DOI>
10.1016/j.bmc.2020.115734

$$$$
2488728
Actelion Java MolfileCreator 1.0

 32 36  0  0  0  0  0  0  0  0999 V2000
    0.0000   -0.0000   -0.0000 S   0  0  0  0  0  0  0  0  0  0  0  0
    0.7381   -1.2857   -0.0000 C   0  0  0  0  0  0  0  0  0  0  0  0
   -1.4762   -0.3095   -0.0000 C   0  0  0  0  0  0  0  0  0  0  0  0
   -0.2738   -2.3928   -0.0000 N   0  0  0  0  0  0  0  0  0  0  0  0
    2.2262   -1.2738   -0.0000 N   0  0  0  0  0  0  0  0  0  0  0  0
   -1.6428   -1.7976   -0.0000 C   0  0  0  0  0  0  0  0  0  0  0  0
    2.9643   -2.5595   -0.0000 C   0  0  0  0  0  0  0  0  0  0  0  0
   -2.9524   -2.5357   -0.0000 C   0  0  0  0  0  0  0  0  0  0  0  0
    4.4404   -2.7024   -0.0000 N   0  0  0  0  0  0  0  0  0  0  0  0
    2.3333   -3.9166   -0.0000 C   0  0  0  0  0  0  0  0  0  0  0  0
   -4.2619   -1.7738   -0.0000 N   0  0  0  0  0  0  0  0  0  0  0  0
   -2.9643   -4.0357   -0.0000 C   0  0  0  0  0  0  0  0  0  0  0  0
    4.7380   -4.1547   -0.0000 N   0  0  0  0  0  0  0  0  0  0  0  0
    5.4285   -1.5714   -0.0000 C   0  0  0  0  0  0  0  0  0  0  0  0
    3.4523   -4.9166   -0.0000 C   0  0  0  0  0  0  0  0  0  0  0  0
    0.8928   -4.3690   -0.0000 C   0  0  0  0  0  0  0  0  0  0  0  0
   -5.5714   -2.5119   -0.0000 C   0  0  0  0  0  0  0  0  0  0  0  0
   -4.2857   -4.7738   -0.0000 C   0  0  0  0  0  0  0  0  0  0  0  0
    6.8809   -1.8690   -0.0000 C   0  0  0  0  0  0  0  0  0  0  0  0
    3.1309   -6.3809   -0.0000 C   0  0  0  0  0  0  0  0  0  0  0  0
    0.5595   -5.8333   -0.0000 C   0  0  0  0  0  0  0  0  0  0  0  0
   -6.8809   -1.7500   -0.0000 O   0  0  0  0  0  0  0  0  0  0  0  0
   -5.5833   -4.0119   -0.0000 C   0  0  0  0  0  0  0  0  0  0  0  0
    7.8690   -0.7381   -0.0000 O   0  0  0  0  0  0  0  0  0  0  0  0
    1.6786   -6.8333   -0.0000 C   0  0  0  0  0  0  0  0  0  0  0  0
   -6.8928   -0.2381   -0.0000 C   0  0  0  0  0  0  0  0  0  0  0  0
   -6.8928   -4.7500   -0.0000 N   0  0  0  0  0  0  0  0  0  0  0  0
   -7.0595   -6.2261   -0.0000 C   0  0  0  0  0  0  0  0  0  0  0  0
   -8.2737   -4.1309   -0.0000 C   0  0  0  0  0  0  0  0  0  0  0  0
   -8.5356   -6.5237   -0.0000 N   0  0  0  0  0  0  0  0  0  0  0  0
   -9.2856   -5.2380   -0.0000 C   0  0  0  0  0  0  0  0  0  0  0  0
  -10.7856   -5.0714   -0.0000 C   0  0  0  0  0  0  0  0  0  0  0  0
  1  2  1  0  0  0  0
  1  3  1  0  0  0  0
  2  4  2  0  0  0  0
  2  5  1  0  0  0  0
  3  6  2  0  0  0  0
  5  7  1  0  0  0  0
  6  8  1  0  0  0  0
  7  9  1  0  0  0  0
  7 10  2  0  0  0  0
  8 11  2  0  0  0  0
  8 12  1  0  0  0  0
  9 13  1  0  0  0  0
  9 14  1  0  0  0  0
 10 15  1  0  0  0  0
 10 16  1  0  0  0  0
 11 17  1  0  0  0  0
 12 18  2  0  0  0  0
 14 19  1  0  0  0  0
 15 20  1  0  0  0  0
 16 21  1  0  0  0  0
 17 22  1  0  0  0  0
 17 23  2  0  0  0  0
 19 24  1  0  0  0  0
 20 25  1  0  0  0  0
 22 26  1  0  0  0  0
 23 27  1  0  0  0  0
 27 28  1  0  0  0  0
 27 29  1  0  0  0  0
 28 30  2  0  0  0  0
 29 31  2  0  0  0  0
 31 32  1  0  0  0  0
  4  6  1  0  0  0  0
 13 15  2  0  0  0  0
 18 23  1  0  0  0  0
 21 25  1  0  0  0  0
 30 31  1  0  0  0  0
M  END
>  <MolRegNo>
2488728

>  <m>
=

>  <Value>
30000

>  <Unit>
nM

>  <Type>
IC50

>  <pValue>
4.52

>  <Ligand Efficiency>
0

>  <Binding Efficiency>
0

>  <Surface Efficiency>
0

>  <Assay Index>
1403667

>  <Assay Category>


>  <Assay Organism>
Homo sapiens

>  <Target ID>
17045

>  <Target Name>
Cytochrome P450 3A4

>  <Target Organism>
Homo sapiens

>  <Target Description>
Target is a single protein chain

>  <Sequence Accession>
P08684

>  <Reference>
Bioorg Med Chem 28 (22), 115734-115734 (2020)

>  <Pubmed ID>
33007551

>  <DOI>
10.1016/j.bmc.2020.115734

$$$$
2513704
Actelion Java MolfileCreator 1.0

 33 37  0  0  0  0  0  0  0  0999 V2000
    0.0000   -0.0000   -0.0000 S   0  0  0  0  0  0  0  0  0  0  0  0
    0.7383   -1.2861   -0.0000 C   0  0  0  0  0  0  0  0  0  0  0  0
   -1.4766   -0.3096   -0.0000 C   0  0  0  0  0  0  0  0  0  0  0  0
   -0.2739   -2.3936   -0.0000 N   0  0  0  0  0  0  0  0  0  0  0  0
    2.2269   -1.2742   -0.0000 N   0  0  0  0  0  0  0  0  0  0  0  0
   -1.6434   -1.7982   -0.0000 C   0  0  0  0  0  0  0  0  0  0  0  0
    2.9652   -2.5603   -0.0000 C   0  0  0  0  0  0  0  0  0  0  0  0
   -2.9533   -2.5365   -0.0000 C   0  0  0  0  0  0  0  0  0  0  0  0
    4.4418   -2.7032   -0.0000 N   0  0  0  0  0  0  0  0  0  0  0  0
    2.3340   -3.9179   -0.0000 C   0  0  0  0  0  0  0  0  0  0  0  0
   -4.2632   -1.7743   -0.0000 N   0  0  0  0  0  0  0  0  0  0  0  0
   -2.9652   -4.0369   -0.0000 C   0  0  0  0  0  0  0  0  0  0  0  0
    4.7395   -4.1560   -0.0000 N   0  0  0  0  0  0  0  0  0  0  0  0
    5.4302   -1.5719   -0.0000 C   0  0  0  0  0  0  0  0  0  0  0  0
    3.4534   -4.9182   -0.0000 C   0  0  0  0  0  0  0  0  0  0  0  0
    0.8931   -4.3704   -0.0000 C   0  0  0  0  0  0  0  0  0  0  0  0
   -5.5731   -2.5127   -0.0000 C   0  0  0  0  0  0  0  0  0  0  0  0
   -4.2870   -4.7753   -0.0000 C   0  0  0  0  0  0  0  0  0  0  0  0
    6.8830   -1.8696   -0.0000 C   0  0  0  0  0  0  0  0  0  0  0  0
    3.1319   -6.3829   -0.0000 C   0  0  0  0  0  0  0  0  0  0  0  0
    0.5597   -5.8351   -0.0000 C   0  0  0  0  0  0  0  0  0  0  0  0
   -6.8830   -1.7505   -0.0000 O   0  0  0  0  0  0  0  0  0  0  0  0
   -5.5850   -4.0131   -0.0000 C   0  0  0  0  0  0  0  0  0  0  0  0
    7.8714   -0.7383   -0.0000 C   0  0  0  0  0  0  0  0  0  0  0  0
    1.6791   -6.8354   -0.0000 C   0  0  0  0  0  0  0  0  0  0  0  0
   -6.8950   -0.2382   -0.0000 C   0  0  0  0  0  0  0  0  0  0  0  0
   -6.8950   -4.7514   -0.0000 N   0  0  0  0  0  0  0  0  0  0  0  0
    9.3243   -1.0360   -0.0000 O   0  0  0  0  0  0  0  0  0  0  0  0
   -7.0617   -6.2281   -0.0000 C   0  0  0  0  0  0  0  0  0  0  0  0
   -8.2763   -4.1322   -0.0000 C   0  0  0  0  0  0  0  0  0  0  0  0
   -8.5383   -6.5258   -0.0000 N   0  0  0  0  0  0  0  0  0  0  0  0
   -9.2885   -5.2397   -0.0000 C   0  0  0  0  0  0  0  0  0  0  0  0
  -10.7890   -5.0730   -0.0000 C   0  0  0  0  0  0  0  0  0  0  0  0
  1  2  1  0  0  0  0
  1  3  1  0  0  0  0
  2  4  2  0  0  0  0
  2  5  1  0  0  0  0
  3  6  2  0  0  0  0
  5  7  1  0  0  0  0
  6  8  1  0  0  0  0
  7  9  1  0  0  0  0
  7 10  2  0  0  0  0
  8 11  2  0  0  0  0
  8 12  1  0  0  0  0
  9 13  1  0  0  0  0
  9 14  1  0  0  0  0
 10 15  1  0  0  0  0
 10 16  1  0  0  0  0
 11 17  1  0  0  0  0
 12 18  2  0  0  0  0
 14 19  1  0  0  0  0
 15 20  1  0  0  0  0
 16 21  1  0  0  0  0
 17 22  1  0  0  0  0
 17 23  2  0  0  0  0
 19 24  1  0  0  0  0
 20 25  1  0  0  0  0
 22 26  1  0  0  0  0
 23 27  1  0  0  0  0
 24 28  1  0  0  0  0
 27 29  1  0  0  0  0
 27 30  1  0  0  0  0
 29 31  2  0  0  0  0
 30 32  2  0  0  0  0
 32 33  1  0  0  0  0
  4  6  1  0  0  0  0
 13 15  2  0  0  0  0
 18 23  1  0  0  0  0
 21 25  1  0  0  0  0
 31 32  1  0  0  0  0
M  END
>  <MolRegNo>
2513704

>  <m>
=

>  <Value>
2200

>  <Unit>
nM

>  <Type>
IC50

>  <pValue>
5.66

>  <Ligand Efficiency>
0

>  <Binding Efficiency>
0

>  <Surface Efficiency>
0

>  <Assay Index>
1403667

>  <Assay Category>


>  <Assay Organism>
Homo sapiens

>  <Target ID>
17045

>  <Target Name>
Cytochrome P450 3A4

>  <Target Organism>
Homo sapiens

>  <Target Description>
Target is a single protein chain

>  <Sequence Accession>
P08684

>  <Reference>
Bioorg Med Chem 28 (22), 115734-115734 (2020)

>  <Pubmed ID>
33007551

>  <DOI>
10.1016/j.bmc.2020.115734

$$$$
2507726
Actelion Java MolfileCreator 1.0

 34 38  0  0  0  0  0  0  0  0999 V2000
    0.0000   -0.0000   -0.0000 S   0  0  0  0  0  0  0  0  0  0  0  0
    0.7386   -1.2865   -0.0000 C   0  0  0  0  0  0  0  0  0  0  0  0
   -1.4771   -0.3097   -0.0000 C   0  0  0  0  0  0  0  0  0  0  0  0
   -0.2740   -2.3944   -0.0000 N   0  0  0  0  0  0  0  0  0  0  0  0
    2.2276   -1.2746   -0.0000 N   0  0  0  0  0  0  0  0  0  0  0  0
   -1.6439   -1.7988   -0.0000 C   0  0  0  0  0  0  0  0  0  0  0  0
    2.9662   -2.5612   -0.0000 C   0  0  0  0  0  0  0  0  0  0  0  0
   -2.9543   -2.5374   -0.0000 C   0  0  0  0  0  0  0  0  0  0  0  0
    4.4433   -2.7041   -0.0000 N   0  0  0  0  0  0  0  0  0  0  0  0
    2.3348   -3.9192   -0.0000 C   0  0  0  0  0  0  0  0  0  0  0  0
   -4.2647   -1.7750   -0.0000 N   0  0  0  0  0  0  0  0  0  0  0  0
   -2.9662   -4.0383   -0.0000 C   0  0  0  0  0  0  0  0  0  0  0  0
    4.7412   -4.1574   -0.0000 N   0  0  0  0  0  0  0  0  0  0  0  0
    5.4321   -1.5724   -0.0000 C   0  0  0  0  0  0  0  0  0  0  0  0
    3.4546   -4.9198   -0.0000 C   0  0  0  0  0  0  0  0  0  0  0  0
    0.8934   -4.3719   -0.0000 C   0  0  0  0  0  0  0  0  0  0  0  0
   -5.5750   -2.5135   -0.0000 C   0  0  0  0  0  0  0  0  0  0  0  0
   -4.2885   -4.7769   -0.0000 C   0  0  0  0  0  0  0  0  0  0  0  0
    6.8854   -1.8703   -0.0000 C   0  0  0  0  0  0  0  0  0  0  0  0
    3.1330   -6.3851   -0.0000 C   0  0  0  0  0  0  0  0  0  0  0  0
    0.5599   -5.8371   -0.0000 C   0  0  0  0  0  0  0  0  0  0  0  0
   -6.8854   -1.7511   -0.0000 O   0  0  0  0  0  0  0  0  0  0  0  0
   -5.5869   -4.0145   -0.0000 C   0  0  0  0  0  0  0  0  0  0  0  0
    8.3149   -2.2395   -0.0000 O   0  0  0  0  0  0  0  0  0  0  0  0
    7.3381   -3.2878   -0.0000 C   0  0  0  0  0  0  0  0  0  0  0  0
    7.8741   -0.7386   -0.0000 C   0  0  0  0  0  0  0  0  0  0  0  0
    1.6797   -6.8378   -0.0000 C   0  0  0  0  0  0  0  0  0  0  0  0
   -6.8973   -0.2382   -0.0000 C   0  0  0  0  0  0  0  0  0  0  0  0
   -6.8973   -4.7531   -0.0000 N   0  0  0  0  0  0  0  0  0  0  0  0
   -7.0641   -6.2302   -0.0000 C   0  0  0  0  0  0  0  0  0  0  0  0
   -8.2792   -4.1336   -0.0000 C   0  0  0  0  0  0  0  0  0  0  0  0
   -8.5412   -6.5280   -0.0000 N   0  0  0  0  0  0  0  0  0  0  0  0
   -9.2917   -5.2415   -0.0000 C   0  0  0  0  0  0  0  0  0  0  0  0
  -10.7927   -5.0747   -0.0000 C   0  0  0  0  0  0  0  0  0  0  0  0
  1  2  1  0  0  0  0
  1  3  1  0  0  0  0
  2  4  2  0  0  0  0
  2  5  1  0  0  0  0
  3  6  2  0  0  0  0
  5  7  1  0  0  0  0
  6  8  1  0  0  0  0
  7  9  1  0  0  0  0
  7 10  2  0  0  0  0
  8 11  2  0  0  0  0
  8 12  1  0  0  0  0
  9 13  1  0  0  0  0
  9 14  1  0  0  0  0
 10 15  1  0  0  0  0
 10 16  1  0  0  0  0
 11 17  1  0  0  0  0
 12 18  2  0  0  0  0
 14 19  1  0  0  0  0
 15 20  1  0  0  0  0
 16 21  1  0  0  0  0
 17 22  1  0  0  0  0
 17 23  2  0  0  0  0
 19 24  1  0  0  0  0
 19 25  1  0  0  0  0
 19 26  1  0  0  0  0
 20 27  1  0  0  0  0
 22 28  1  0  0  0  0
 23 29  1  0  0  0  0
 29 30  1  0  0  0  0
 29 31  1  0  0  0  0
 30 32  2  0  0  0  0
 31 33  2  0  0  0  0
 33 34  1  0  0  0  0
  4  6  1  0  0  0  0
 13 15  2  0  0  0  0
 18 23  1  0  0  0  0
 21 27  1  0  0  0  0
 32 33  1  0  0  0  0
M  END
>  <MolRegNo>
2507726

>  <m>
=

>  <Value>
1100

>  <Unit>
nM

>  <Type>
IC50

>  <pValue>
5.96

>  <Ligand Efficiency>
0

>  <Binding Efficiency>
0

>  <Surface Efficiency>
0

>  <Assay Index>
1403667

>  <Assay Category>


>  <Assay Organism>
Homo sapiens

>  <Target ID>
17045

>  <Target Name>
Cytochrome P450 3A4

>  <Target Organism>
Homo sapiens

>  <Target Description>
Target is a single protein chain

>  <Sequence Accession>
P08684

>  <Reference>
Bioorg Med Chem 28 (22), 115734-115734 (2020)

>  <Pubmed ID>
33007551

>  <DOI>
10.1016/j.bmc.2020.115734

$$$$
2531341
Actelion Java MolfileCreator 1.0

 32 35  0  0  0  0  0  0  0  0999 V2000
    0.0000   -0.0000   -0.0000 S   0  0  0  0  0  0  0  0  0  0  0  0
    0.7504   -1.2863   -0.0000 C   0  0  0  0  0  0  0  0  0  0  0  0
   -1.4769   -0.3097   -0.0000 C   0  0  0  0  0  0  0  0  0  0  0  0
   -0.2620   -2.3940   -0.0000 N   0  0  0  0  0  0  0  0  0  0  0  0
    2.2392   -1.2744   -0.0000 N   0  0  0  0  0  0  0  0  0  0  0  0
   -1.6437   -1.7985   -0.0000 C   0  0  0  0  0  0  0  0  0  0  0  0
    2.9776   -2.5608   -0.0000 C   0  0  0  0  0  0  0  0  0  0  0  0
   -2.9538   -2.5370   -0.0000 C   0  0  0  0  0  0  0  0  0  0  0  0
    4.4546   -2.7037   -0.0000 N   0  0  0  0  0  0  0  0  0  0  0  0
    2.3464   -3.9186   -0.0000 C   0  0  0  0  0  0  0  0  0  0  0  0
   -4.2640   -1.7747   -0.0000 N   0  0  0  0  0  0  0  0  0  0  0  0
   -2.9657   -4.0377   -0.0000 C   0  0  0  0  0  0  0  0  0  0  0  0
    4.7523   -4.1568   -0.0000 N   0  0  0  0  0  0  0  0  0  0  0  0
    5.4431   -1.5722   -0.0000 C   0  0  0  0  0  0  0  0  0  0  0  0
    3.4660   -4.9191   -0.0000 C   0  0  0  0  0  0  0  0  0  0  0  0
   -5.5741   -2.5131   -0.0000 C   0  0  0  0  0  0  0  0  0  0  0  0
   -4.2878   -4.7761   -0.0000 C   0  0  0  0  0  0  0  0  0  0  0  0
    6.8962   -1.8700   -0.0000 C   0  0  0  0  0  0  0  0  0  0  0  0
    4.9667   -0.1310   -0.0000 C   0  0  0  0  0  0  0  0  0  0  0  0
    3.2992   -6.4079   -0.0000 C   0  0  0  0  0  0  0  0  0  0  0  0
   -6.8843   -1.7509   -0.0000 O   0  0  0  0  0  0  0  0  0  0  0  0
   -5.5861   -4.0139   -0.0000 C   0  0  0  0  0  0  0  0  0  0  0  0
    1.9176   -7.0153   -0.0000 C   0  0  0  0  0  0  0  0  0  0  0  0
    4.5022   -7.2774   -0.0000 C   0  0  0  0  0  0  0  0  0  0  0  0
    2.8943   -7.8372   -0.0000 C   0  0  0  0  0  0  0  0  0  0  0  0
   -6.8962   -0.2382   -0.0000 C   0  0  0  0  0  0  0  0  0  0  0  0
   -6.8962   -4.7523   -0.0000 N   0  0  0  0  0  0  0  0  0  0  0  0
   -7.0630   -6.2292   -0.0000 C   0  0  0  0  0  0  0  0  0  0  0  0
   -8.2778   -4.1330   -0.0000 C   0  0  0  0  0  0  0  0  0  0  0  0
   -8.5399   -6.5270   -0.0000 N   0  0  0  0  0  0  0  0  0  0  0  0
   -9.2902   -5.2407   -0.0000 C   0  0  0  0  0  0  0  0  0  0  0  0
  -10.7910   -5.0739   -0.0000 C   0  0  0  0  0  0  0  0  0  0  0  0
  1  2  1  0  0  0  0
  1  3  1  0  0  0  0
  2  4  2  0  0  0  0
  2  5  1  0  0  0  0
  3  6  2  0  0  0  0
  5  7  1  0  0  0  0
  6  8  1  0  0  0  0
  7  9  1  0  0  0  0
  7 10  2  0  0  0  0
  8 11  2  0  0  0  0
  8 12  1  0  0  0  0
  9 13  1  0  0  0  0
  9 14  1  0  0  0  0
 10 15  1  0  0  0  0
 11 16  1  0  0  0  0
 12 17  2  0  0  0  0
 14 18  1  0  0  0  0
 14 19  1  0  0  0  0
 15 20  1  0  0  0  0
 16 21  1  0  0  0  0
 16 22  2  0  0  0  0
 20 23  1  0  0  0  0
 20 24  1  0  0  0  0
 20 25  1  0  0  0  0
 21 26  1  0  0  0  0
 22 27  1  0  0  0  0
 27 28  1  0  0  0  0
 27 29  1  0  0  0  0
 28 30  2  0  0  0  0
 29 31  2  0  0  0  0
 31 32  1  0  0  0  0
  4  6  1  0  0  0  0
 13 15  2  0  0  0  0
 17 22  1  0  0  0  0
 30 31  1  0  0  0  0
M  END
>  <MolRegNo>
2531341

>  <m>
=

>  <Value>
2300

>  <Unit>
nM

>  <Type>
IC50

>  <pValue>
5.64

>  <Ligand Efficiency>
0

>  <Binding Efficiency>
0

>  <Surface Efficiency>
0

>  <Assay Index>
1403667

>  <Assay Category>


>  <Assay Organism>
Homo sapiens

>  <Target ID>
17045

>  <Target Name>
Cytochrome P450 3A4

>  <Target Organism>
Homo sapiens

>  <Target Description>
Target is a single protein chain

>  <Sequence Accession>
P08684

>  <Reference>
Bioorg Med Chem 28 (22), 115734-115734 (2020)

>  <Pubmed ID>
33007551

>  <DOI>
10.1016/j.bmc.2020.115734

$$$$
2523331
Actelion Java MolfileCreator 1.0

 32 35  0  0  0  0  0  0  0  0999 V2000
    0.0000   -0.0000   -0.0000 S   0  0  0  0  0  0  0  0  0  0  0  0
    0.7506   -1.2867   -0.0000 C   0  0  0  0  0  0  0  0  0  0  0  0
   -1.4773   -0.3098   -0.0000 C   0  0  0  0  0  0  0  0  0  0  0  0
   -0.2621   -2.3947   -0.0000 N   0  0  0  0  0  0  0  0  0  0  0  0
    2.2398   -1.2748   -0.0000 N   0  0  0  0  0  0  0  0  0  0  0  0
   -1.6441   -1.7990   -0.0000 C   0  0  0  0  0  0  0  0  0  0  0  0
    2.9785   -2.5615   -0.0000 C   0  0  0  0  0  0  0  0  0  0  0  0
   -2.9547   -2.5377   -0.0000 C   0  0  0  0  0  0  0  0  0  0  0  0
    4.4559   -2.7045   -0.0000 N   0  0  0  0  0  0  0  0  0  0  0  0
    2.3471   -3.9197   -0.0000 C   0  0  0  0  0  0  0  0  0  0  0  0
   -4.2652   -1.7752   -0.0000 N   0  0  0  0  0  0  0  0  0  0  0  0
   -2.9666   -4.0389   -0.0000 C   0  0  0  0  0  0  0  0  0  0  0  0
    4.7537   -4.1580   -0.0000 N   0  0  0  0  0  0  0  0  0  0  0  0
    5.4447   -1.5727   -0.0000 C   0  0  0  0  0  0  0  0  0  0  0  0
    3.4670   -4.9205   -0.0000 C   0  0  0  0  0  0  0  0  0  0  0  0
   -5.5758   -2.5139   -0.0000 C   0  0  0  0  0  0  0  0  0  0  0  0
   -4.2891   -4.7775   -0.0000 C   0  0  0  0  0  0  0  0  0  0  0  0
    6.8982   -1.8705   -0.0000 C   0  0  0  0  0  0  0  0  0  0  0  0
    3.3002   -6.4098   -0.0000 C   0  0  0  0  0  0  0  0  0  0  0  0
   -6.8863   -1.7514   -0.0000 O   0  0  0  0  0  0  0  0  0  0  0  0
   -5.5877   -4.0150   -0.0000 C   0  0  0  0  0  0  0  0  0  0  0  0
    7.8871   -0.7387   -0.0000 F   0  0  0  0  0  0  0  0  0  0  0  0
    1.9182   -7.0174   -0.0000 C   0  0  0  0  0  0  0  0  0  0  0  0
    4.5035   -7.2795   -0.0000 C   0  0  0  0  0  0  0  0  0  0  0  0
    2.8951   -7.8394   -0.0000 C   0  0  0  0  0  0  0  0  0  0  0  0
   -6.8982   -0.2383   -0.0000 C   0  0  0  0  0  0  0  0  0  0  0  0
   -6.8982   -4.7537   -0.0000 N   0  0  0  0  0  0  0  0  0  0  0  0
   -7.0650   -6.2311   -0.0000 C   0  0  0  0  0  0  0  0  0  0  0  0
   -8.2803   -4.1342   -0.0000 C   0  0  0  0  0  0  0  0  0  0  0  0
   -8.5424   -6.5289   -0.0000 N   0  0  0  0  0  0  0  0  0  0  0  0
   -9.2930   -5.2422   -0.0000 C   0  0  0  0  0  0  0  0  0  0  0  0
  -10.7941   -5.0754   -0.0000 C   0  0  0  0  0  0  0  0  0  0  0  0
  1  2  1  0  0  0  0
  1  3  1  0  0  0  0
  2  4  2  0  0  0  0
  2  5  1  0  0  0  0
  3  6  2  0  0  0  0
  5  7  1  0  0  0  0
  6  8  1  0  0  0  0
  7  9  1  0  0  0  0
  7 10  2  0  0  0  0
  8 11  2  0  0  0  0
  8 12  1  0  0  0  0
  9 13  1  0  0  0  0
  9 14  1  0  0  0  0
 10 15  1  0  0  0  0
 11 16  1  0  0  0  0
 12 17  2  0  0  0  0
 14 18  1  0  0  0  0
 15 19  1  0  0  0  0
 16 20  1  0  0  0  0
 16 21  2  0  0  0  0
 18 22  1  0  0  0  0
 19 23  1  0  0  0  0
 19 24  1  0  0  0  0
 19 25  1  0  0  0  0
 20 26  1  0  0  0  0
 21 27  1  0  0  0  0
 27 28  1  0  0  0  0
 27 29  1  0  0  0  0
 28 30  2  0  0  0  0
 29 31  2  0  0  0  0
 31 32  1  0  0  0  0
  4  6  1  0  0  0  0
 13 15  2  0  0  0  0
 17 21  1  0  0  0  0
 30 31  1  0  0  0  0
M  END
>  <MolRegNo>
2523331

>  <m>
=

>  <Value>
40

>  <Unit>
nM

>  <Type>
IC50

>  <pValue>
7.4

>  <Ligand Efficiency>
0

>  <Binding Efficiency>
0

>  <Surface Efficiency>
0

>  <Assay Index>
1403667

>  <Assay Category>


>  <Assay Organism>
Homo sapiens

>  <Target ID>
17045

>  <Target Name>
Cytochrome P450 3A4

>  <Target Organism>
Homo sapiens

>  <Target Description>
Target is a single protein chain

>  <Sequence Accession>
P08684

>  <Reference>
Bioorg Med Chem 28 (22), 115734-115734 (2020)

>  <Pubmed ID>
33007551

>  <DOI>
10.1016/j.bmc.2020.115734

$$$$
2499073
Actelion Java MolfileCreator 1.0

 34 37  0  0  0  0  0  0  0  0999 V2000
    0.0000   -0.0000   -0.0000 S   0  0  0  0  0  0  0  0  0  0  0  0
    0.7395   -1.2882   -0.0000 C   0  0  0  0  0  0  0  0  0  0  0  0
   -1.4790   -0.3101   -0.0000 C   0  0  0  0  0  0  0  0  0  0  0  0
   -0.2743   -2.3975   -0.0000 N   0  0  0  0  0  0  0  0  0  0  0  0
    2.2305   -1.2763   -0.0000 N   0  0  0  0  0  0  0  0  0  0  0  0
   -1.6460   -1.8011   -0.0000 C   0  0  0  0  0  0  0  0  0  0  0  0
    2.9700   -2.5645   -0.0000 C   0  0  0  0  0  0  0  0  0  0  0  0
   -2.9581   -2.5406   -0.0000 C   0  0  0  0  0  0  0  0  0  0  0  0
    4.4491   -2.7076   -0.0000 N   0  0  0  0  0  0  0  0  0  0  0  0
    2.3378   -3.9242   -0.0000 C   0  0  0  0  0  0  0  0  0  0  0  0
   -4.2701   -1.7772   -0.0000 N   0  0  0  0  0  0  0  0  0  0  0  0
   -2.9700   -4.0435   -0.0000 C   0  0  0  0  0  0  0  0  0  0  0  0
    4.7473   -4.1628   -0.0000 N   0  0  0  0  0  0  0  0  0  0  0  0
    5.4391   -1.5745   -0.0000 C   0  0  0  0  0  0  0  0  0  0  0  0
    3.4591   -4.9262   -0.0000 C   0  0  0  0  0  0  0  0  0  0  0  0
   -5.5822   -2.5168   -0.0000 C   0  0  0  0  0  0  0  0  0  0  0  0
   -4.2940   -4.7830   -0.0000 C   0  0  0  0  0  0  0  0  0  0  0  0
    6.8943   -1.8727   -0.0000 C   0  0  0  0  0  0  0  0  0  0  0  0
    3.2921   -6.4052   -0.0000 C   0  0  0  0  0  0  0  0  0  0  0  0
   -6.8943   -1.7534   -0.0000 O   0  0  0  0  0  0  0  0  0  0  0  0
   -5.5941   -4.0197   -0.0000 C   0  0  0  0  0  0  0  0  0  0  0  0
    7.8843   -0.7395   -0.0000 F   0  0  0  0  0  0  0  0  0  0  0  0
    7.3475   -3.2921   -0.0000 F   0  0  0  0  0  0  0  0  0  0  0  0
    8.3256   -2.2424   -0.0000 F   0  0  0  0  0  0  0  0  0  0  0  0
    1.9084   -7.0135   -0.0000 C   0  0  0  0  0  0  0  0  0  0  0  0
    4.4968   -7.2759   -0.0000 C   0  0  0  0  0  0  0  0  0  0  0  0
    2.8865   -7.8365   -0.0000 C   0  0  0  0  0  0  0  0  0  0  0  0
   -6.9062   -0.2386   -0.0000 C   0  0  0  0  0  0  0  0  0  0  0  0
   -6.9062   -4.7592   -0.0000 N   0  0  0  0  0  0  0  0  0  0  0  0
   -7.0732   -6.2382   -0.0000 C   0  0  0  0  0  0  0  0  0  0  0  0
   -8.2898   -4.1389   -0.0000 C   0  0  0  0  0  0  0  0  0  0  0  0
   -8.5522   -6.5364   -0.0000 N   0  0  0  0  0  0  0  0  0  0  0  0
   -9.3037   -5.2482   -0.0000 C   0  0  0  0  0  0  0  0  0  0  0  0
  -10.8066   -5.0812   -0.0000 C   0  0  0  0  0  0  0  0  0  0  0  0
  1  2  1  0  0  0  0
  1  3  1  0  0  0  0
  2  4  2  0  0  0  0
  2  5  1  0  0  0  0
  3  6  2  0  0  0  0
  5  7  1  0  0  0  0
  6  8  1  0  0  0  0
  7  9  1  0  0  0  0
  7 10  2  0  0  0  0
  8 11  2  0  0  0  0
  8 12  1  0  0  0  0
  9 13  1  0  0  0  0
  9 14  1  0  0  0  0
 10 15  1  0  0  0  0
 11 16  1  0  0  0  0
 12 17  2  0  0  0  0
 14 18  1  0  0  0  0
 15 19  1  0  0  0  0
 16 20  1  0  0  0  0
 16 21  2  0  0  0  0
 18 22  1  0  0  0  0
 18 23  1  0  0  0  0
 18 24  1  0  0  0  0
 19 25  1  0  0  0  0
 19 26  1  0  0  0  0
 19 27  1  0  0  0  0
 20 28  1  0  0  0  0
 21 29  1  0  0  0  0
 29 30  1  0  0  0  0
 29 31  1  0  0  0  0
 30 32  2  0  0  0  0
 31 33  2  0  0  0  0
 33 34  1  0  0  0  0
  4  6  1  0  0  0  0
 13 15  2  0  0  0  0
 17 21  1  0  0  0  0
 32 33  1  0  0  0  0
M  END
>  <MolRegNo>
2499073

>  <m>
=

>  <Value>
1000

>  <Unit>
nM

>  <Type>
IC50

>  <pValue>
6

>  <Ligand Efficiency>
0

>  <Binding Efficiency>
0

>  <Surface Efficiency>
0

>  <Assay Index>
1403667

>  <Assay Category>


>  <Assay Organism>
Homo sapiens

>  <Target ID>
17045

>  <Target Name>
Cytochrome P450 3A4

>  <Target Organism>
Homo sapiens

>  <Target Description>
Target is a single protein chain

>  <Sequence Accession>
P08684

>  <Reference>
Bioorg Med Chem 28 (22), 115734-115734 (2020)

>  <Pubmed ID>
33007551

>  <DOI>
10.1016/j.bmc.2020.115734

$$$$
2496357
Actelion Java MolfileCreator 1.0

 31 35  0  0  0  0  0  0  0  0999 V2000
    0.0000   -0.0000   -0.0000 S   0  0  0  0  0  0  0  0  0  0  0  0
    0.7397   -1.2885   -0.0000 C   0  0  0  0  0  0  0  0  0  0  0  0
   -1.4794   -0.3102   -0.0000 C   0  0  0  0  0  0  0  0  0  0  0  0
   -0.2744   -2.3981   -0.0000 N   0  0  0  0  0  0  0  0  0  0  0  0
    2.2311   -1.2766   -0.0000 N   0  0  0  0  0  0  0  0  0  0  0  0
   -1.6465   -1.8016   -0.0000 C   0  0  0  0  0  0  0  0  0  0  0  0
    2.9708   -2.5651   -0.0000 C   0  0  0  0  0  0  0  0  0  0  0  0
   -2.9589   -2.5413   -0.0000 C   0  0  0  0  0  0  0  0  0  0  0  0
    4.4502   -2.7202   -0.0000 N   0  0  0  0  0  0  0  0  0  0  0  0
    2.3385   -3.9253   -0.0000 C   0  0  0  0  0  0  0  0  0  0  0  0
   -4.2713   -1.7896   -0.0000 N   0  0  0  0  0  0  0  0  0  0  0  0
   -2.9708   -4.0446   -0.0000 C   0  0  0  0  0  0  0  0  0  0  0  0
    4.7485   -4.1758   -0.0000 N   0  0  0  0  0  0  0  0  0  0  0  0
    5.4405   -1.5868   -0.0000 C   0  0  0  0  0  0  0  0  0  0  0  0
    3.4600   -4.9275   -0.0000 C   0  0  0  0  0  0  0  0  0  0  0  0
   -5.5837   -2.5293   -0.0000 C   0  0  0  0  0  0  0  0  0  0  0  0
   -4.2951   -4.7962   -0.0000 C   0  0  0  0  0  0  0  0  0  0  0  0
    6.8961   -1.8851   -0.0000 C   0  0  0  0  0  0  0  0  0  0  0  0
    3.2929   -6.4069   -0.0000 C   0  0  0  0  0  0  0  0  0  0  0  0
   -6.8961   -1.7658   -0.0000 O   0  0  0  0  0  0  0  0  0  0  0  0
   -5.5956   -4.0326   -0.0000 C   0  0  0  0  0  0  0  0  0  0  0  0
    4.7246   -6.7767   -0.0000 C   0  0  0  0  0  0  0  0  0  0  0  0
    3.6747   -7.8386   -0.0000 C   0  0  0  0  0  0  0  0  0  0  0  0
    1.9209   -7.0034   -0.0000 C   0  0  0  0  0  0  0  0  0  0  0  0
   -6.9080   -0.2505   -0.0000 C   0  0  0  0  0  0  0  0  0  0  0  0
   -6.9080   -4.7724   -0.0000 N   0  0  0  0  0  0  0  0  0  0  0  0
   -7.0750   -6.2518   -0.0000 C   0  0  0  0  0  0  0  0  0  0  0  0
   -8.2920   -4.1519   -0.0000 C   0  0  0  0  0  0  0  0  0  0  0  0
   -8.5544   -6.5501   -0.0000 N   0  0  0  0  0  0  0  0  0  0  0  0
   -9.3061   -5.2496   -0.0000 C   0  0  0  0  0  0  0  0  0  0  0  0
  -10.8094   -5.0826   -0.0000 C   0  0  0  0  0  0  0  0  0  0  0  0
  1  2  1  0  0  0  0
  1  3  1  0  0  0  0
  2  4  2  0  0  0  0
  2  5  1  0  0  0  0
  3  6  2  0  0  0  0
  5  7  1  0  0  0  0
  6  8  1  0  0  0  0
  7  9  1  0  0  0  0
  7 10  2  0  0  0  0
  8 11  2  0  0  0  0
  8 12  1  0  0  0  0
  9 13  1  0  0  0  0
  9 14  1  0  0  0  0
 10 15  1  0  0  0  0
 11 16  1  0  0  0  0
 12 17  2  0  0  0  0
 14 18  1  0  0  0  0
 15 19  1  0  0  0  0
 16 20  1  0  0  0  0
 16 21  2  0  0  0  0
 19 22  1  0  0  0  0
 19 23  1  0  0  0  0
 19 24  1  0  0  0  0
 20 25  1  0  0  0  0
 21 26  1  0  0  0  0
 26 27  1  0  0  0  0
 26 28  1  0  0  0  0
 27 29  2  0  0  0  0
 28 30  2  0  0  0  0
 30 31  1  0  0  0  0
  4  6  1  0  0  0  0
 13 15  2  0  0  0  0
 17 21  1  0  0  0  0
 22 23  1  0  0  0  0
 29 30  1  0  0  0  0
M  END
>  <MolRegNo>
2496357

>  <m>
=

>  <Value>
4100

>  <Unit>
nM

>  <Type>
IC50

>  <pValue>
5.39

>  <Ligand Efficiency>
0

>  <Binding Efficiency>
0

>  <Surface Efficiency>
0

>  <Assay Index>
1403667

>  <Assay Category>


>  <Assay Organism>
Homo sapiens

>  <Target ID>
17045

>  <Target Name>
Cytochrome P450 3A4

>  <Target Organism>
Homo sapiens

>  <Target Description>
Target is a single protein chain

>  <Sequence Accession>
P08684

>  <Reference>
Bioorg Med Chem 28 (22), 115734-115734 (2020)

>  <Pubmed ID>
33007551

>  <DOI>
10.1016/j.bmc.2020.115734

$$$$
2510850
Actelion Java MolfileCreator 1.0

 31 34  0  0  0  0  0  0  0  0999 V2000
    0.0000   -0.0000   -0.0000 S   0  0  0  0  0  0  0  0  0  0  0  0
    0.7392   -1.2877   -0.0000 C   0  0  0  0  0  0  0  0  0  0  0  0
   -1.4785   -0.3100   -0.0000 C   0  0  0  0  0  0  0  0  0  0  0  0
   -0.2742   -2.3966   -0.0000 N   0  0  0  0  0  0  0  0  0  0  0  0
    2.2297   -1.2758   -0.0000 N   0  0  0  0  0  0  0  0  0  0  0  0
   -1.6454   -1.8004   -0.0000 C   0  0  0  0  0  0  0  0  0  0  0  0
    2.9689   -2.5635   -0.0000 C   0  0  0  0  0  0  0  0  0  0  0  0
   -2.9570   -2.5397   -0.0000 C   0  0  0  0  0  0  0  0  0  0  0  0
    4.4474   -2.7185   -0.0000 N   0  0  0  0  0  0  0  0  0  0  0  0
    2.3370   -3.9228   -0.0000 C   0  0  0  0  0  0  0  0  0  0  0  0
   -4.2686   -1.7885   -0.0000 N   0  0  0  0  0  0  0  0  0  0  0  0
   -2.9689   -4.0420   -0.0000 C   0  0  0  0  0  0  0  0  0  0  0  0
    4.7455   -4.1732   -0.0000 N   0  0  0  0  0  0  0  0  0  0  0  0
    5.4371   -1.5858   -0.0000 C   0  0  0  0  0  0  0  0  0  0  0  0
    3.4578   -4.9244   -0.0000 C   0  0  0  0  0  0  0  0  0  0  0  0
   -5.5801   -2.5278   -0.0000 C   0  0  0  0  0  0  0  0  0  0  0  0
   -4.2924   -4.7932   -0.0000 C   0  0  0  0  0  0  0  0  0  0  0  0
    6.8917   -1.8839   -0.0000 C   0  0  0  0  0  0  0  0  0  0  0  0
    3.2909   -6.4029   -0.0000 C   0  0  0  0  0  0  0  0  0  0  0  0
   -6.8917   -1.7647   -0.0000 O   0  0  0  0  0  0  0  0  0  0  0  0
   -5.5921   -4.0301   -0.0000 C   0  0  0  0  0  0  0  0  0  0  0  0
    1.9077   -6.9990   -0.0000 F   0  0  0  0  0  0  0  0  0  0  0  0
    4.4951   -7.2733   -0.0000 F   0  0  0  0  0  0  0  0  0  0  0  0
    2.8855   -7.8337   -0.0000 F   0  0  0  0  0  0  0  0  0  0  0  0
   -6.9036   -0.2504   -0.0000 C   0  0  0  0  0  0  0  0  0  0  0  0
   -6.9036   -4.7694   -0.0000 N   0  0  0  0  0  0  0  0  0  0  0  0
   -7.0706   -6.2479   -0.0000 C   0  0  0  0  0  0  0  0  0  0  0  0
   -8.2867   -4.1493   -0.0000 C   0  0  0  0  0  0  0  0  0  0  0  0
   -8.5491   -6.5459   -0.0000 N   0  0  0  0  0  0  0  0  0  0  0  0
   -9.3002   -5.2463   -0.0000 C   0  0  0  0  0  0  0  0  0  0  0  0
  -10.8026   -5.0794   -0.0000 C   0  0  0  0  0  0  0  0  0  0  0  0
  1  2  1  0  0  0  0
  1  3  1  0  0  0  0
  2  4  2  0  0  0  0
  2  5  1  0  0  0  0
  3  6  2  0  0  0  0
  5  7  1  0  0  0  0
  6  8  1  0  0  0  0
  7  9  1  0  0  0  0
  7 10  2  0  0  0  0
  8 11  2  0  0  0  0
  8 12  1  0  0  0  0
  9 13  1  0  0  0  0
  9 14  1  0  0  0  0
 10 15  1  0  0  0  0
 11 16  1  0  0  0  0
 12 17  2  0  0  0  0
 14 18  1  0  0  0  0
 15 19  1  0  0  0  0
 16 20  1  0  0  0  0
 16 21  2  0  0  0  0
 19 22  1  0  0  0  0
 19 23  1  0  0  0  0
 19 24  1  0  0  0  0
 20 25  1  0  0  0  0
 21 26  1  0  0  0  0
 26 27  1  0  0  0  0
 26 28  1  0  0  0  0
 27 29  2  0  0  0  0
 28 30  2  0  0  0  0
 30 31  1  0  0  0  0
  4  6  1  0  0  0  0
 13 15  2  0  0  0  0
 17 21  1  0  0  0  0
 29 30  1  0  0  0  0
M  END
>  <MolRegNo>
2510850

>  <m>
=

>  <Value>
5300

>  <Unit>
nM

>  <Type>
IC50

>  <pValue>
5.28

>  <Ligand Efficiency>
0

>  <Binding Efficiency>
0

>  <Surface Efficiency>
0

>  <Assay Index>
1403667

>  <Assay Category>


>  <Assay Organism>
Homo sapiens

>  <Target ID>
17045

>  <Target Name>
Cytochrome P450 3A4

>  <Target Organism>
Homo sapiens

>  <Target Description>
Target is a single protein chain

>  <Sequence Accession>
P08684

>  <Reference>
Bioorg Med Chem 28 (22), 115734-115734 (2020)

>  <Pubmed ID>
33007551

>  <DOI>
10.1016/j.bmc.2020.115734

$$$$
2489273
Actelion Java MolfileCreator 1.0

 29 33  0  0  0  0  0  0  0  0999 V2000
    0.0000   -0.0000   -0.0000 S   0  0  0  0  0  0  0  0  0  0  0  0
    0.7369   -1.2836   -0.0000 C   0  0  0  0  0  0  0  0  0  0  0  0
   -1.4738   -0.3090   -0.0000 C   0  0  0  0  0  0  0  0  0  0  0  0
   -0.2734   -2.3890   -0.0000 N   0  0  0  0  0  0  0  0  0  0  0  0
    2.2226   -1.2717   -0.0000 N   0  0  0  0  0  0  0  0  0  0  0  0
   -1.6402   -1.7947   -0.0000 C   0  0  0  0  0  0  0  0  0  0  0  0
    2.9594   -2.5553   -0.0000 C   0  0  0  0  0  0  0  0  0  0  0  0
   -2.9476   -2.5316   -0.0000 C   0  0  0  0  0  0  0  0  0  0  0  0
    4.4332   -2.7099   -0.0000 N   0  0  0  0  0  0  0  0  0  0  0  0
    2.3295   -3.9103   -0.0000 C   0  0  0  0  0  0  0  0  0  0  0  0
   -4.2549   -1.7828   -0.0000 N   0  0  0  0  0  0  0  0  0  0  0  0
   -2.9594   -4.0291   -0.0000 C   0  0  0  0  0  0  0  0  0  0  0  0
    4.7304   -4.1599   -0.0000 N   0  0  0  0  0  0  0  0  0  0  0  0
    5.4197   -1.5807   -0.0000 C   0  0  0  0  0  0  0  0  0  0  0  0
    3.4467   -4.9205   -0.0000 C   0  0  0  0  0  0  0  0  0  0  0  0
    0.9984   -4.6590   -0.0000 C   0  0  0  0  0  0  0  0  0  0  0  0
   -5.5623   -2.5197   -0.0000 C   0  0  0  0  0  0  0  0  0  0  0  0
   -4.2787   -4.7779   -0.0000 C   0  0  0  0  0  0  0  0  0  0  0  0
    2.8168   -6.2992   -0.0000 C   0  0  0  0  0  0  0  0  0  0  0  0
    1.2955   -6.1328   -0.0000 C   0  0  0  0  0  0  0  0  0  0  0  0
   -6.8697   -1.7590   -0.0000 O   0  0  0  0  0  0  0  0  0  0  0  0
   -5.5742   -4.0172   -0.0000 C   0  0  0  0  0  0  0  0  0  0  0  0
   -6.8816   -0.2496   -0.0000 C   0  0  0  0  0  0  0  0  0  0  0  0
   -6.8816   -4.7541   -0.0000 N   0  0  0  0  0  0  0  0  0  0  0  0
   -7.0480   -6.2279   -0.0000 C   0  0  0  0  0  0  0  0  0  0  0  0
   -8.2603   -4.1361   -0.0000 C   0  0  0  0  0  0  0  0  0  0  0  0
   -8.5218   -6.5250   -0.0000 N   0  0  0  0  0  0  0  0  0  0  0  0
   -9.2706   -5.2295   -0.0000 C   0  0  0  0  0  0  0  0  0  0  0  0
  -10.7681   -5.0632   -0.0000 C   0  0  0  0  0  0  0  0  0  0  0  0
  1  2  1  0  0  0  0
  1  3  1  0  0  0  0
  2  4  2  0  0  0  0
  2  5  1  0  0  0  0
  3  6  2  0  0  0  0
  5  7  1  0  0  0  0
  6  8  1  0  0  0  0
  7  9  1  0  0  0  0
  7 10  2  0  0  0  0
  8 11  2  0  0  0  0
  8 12  1  0  0  0  0
  9 13  1  0  0  0  0
  9 14  1  0  0  0  0
 10 15  1  0  0  0  0
 10 16  1  0  0  0  0
 11 17  1  0  0  0  0
 12 18  2  0  0  0  0
 15 19  1  0  0  0  0
 16 20  1  0  0  0  0
 17 21  1  0  0  0  0
 17 22  2  0  0  0  0
 21 23  1  0  0  0  0
 22 24  1  0  0  0  0
 24 25  1  0  0  0  0
 24 26  1  0  0  0  0
 25 27  2  0  0  0  0
 26 28  2  0  0  0  0
 28 29  1  0  0  0  0
  4  6  1  0  0  0  0
 13 15  2  0  0  0  0
 18 22  1  0  0  0  0
 19 20  1  0  0  0  0
 27 28  1  0  0  0  0
M  END
>  <MolRegNo>
2489273

>  <m>
=

>  <Value>
4500

>  <Unit>
nM

>  <Type>
IC50

>  <pValue>
5.35

>  <Ligand Efficiency>
0

>  <Binding Efficiency>
0

>  <Surface Efficiency>
0

>  <Assay Index>
1403667

>  <Assay Category>


>  <Assay Organism>
Homo sapiens

>  <Target ID>
17045

>  <Target Name>
Cytochrome P450 3A4

>  <Target Organism>
Homo sapiens

>  <Target Description>
Target is a single protein chain

>  <Sequence Accession>
P08684

>  <Reference>
Bioorg Med Chem 28 (22), 115734-115734 (2020)

>  <Pubmed ID>
33007551

>  <DOI>
10.1016/j.bmc.2020.115734

$$$$
2505468
Actelion Java MolfileCreator 1.0

 30 34  0  0  0  0  0  0  0  0999 V2000
    0.0000   -0.0000   -0.0000 S   0  0  0  0  0  0  0  0  0  0  0  0
    0.7370   -1.2838   -0.0000 C   0  0  0  0  0  0  0  0  0  0  0  0
   -1.4740   -0.3091   -0.0000 C   0  0  0  0  0  0  0  0  0  0  0  0
   -0.2615   -2.3892   -0.0000 N   0  0  0  0  0  0  0  0  0  0  0  0
    2.2228   -1.2719   -0.0000 N   0  0  0  0  0  0  0  0  0  0  0  0
   -1.6404   -1.7949   -0.0000 C   0  0  0  0  0  0  0  0  0  0  0  0
    2.9717   -2.5557   -0.0000 C   0  0  0  0  0  0  0  0  0  0  0  0
   -2.9479   -2.5319   -0.0000 C   0  0  0  0  0  0  0  0  0  0  0  0
    4.4456   -2.6983   -0.0000 N   0  0  0  0  0  0  0  0  0  0  0  0
    2.3298   -3.9107   -0.0000 C   0  0  0  0  0  0  0  0  0  0  0  0
   -4.2555   -1.7711   -0.0000 N   0  0  0  0  0  0  0  0  0  0  0  0
   -2.9598   -4.0296   -0.0000 C   0  0  0  0  0  0  0  0  0  0  0  0
    4.7428   -4.1485   -0.0000 N   0  0  0  0  0  0  0  0  0  0  0  0
    5.4322   -1.5691   -0.0000 C   0  0  0  0  0  0  0  0  0  0  0  0
    3.4472   -4.9211   -0.0000 C   0  0  0  0  0  0  0  0  0  0  0  0
    0.9985   -4.6477   -0.0000 C   0  0  0  0  0  0  0  0  0  0  0  0
   -5.5630   -2.5081   -0.0000 C   0  0  0  0  0  0  0  0  0  0  0  0
   -4.2792   -4.7666   -0.0000 C   0  0  0  0  0  0  0  0  0  0  0  0
    6.8824   -1.8662   -0.0000 C   0  0  0  0  0  0  0  0  0  0  0  0
    2.8172   -6.3000   -0.0000 C   0  0  0  0  0  0  0  0  0  0  0  0
    1.3075   -6.1217   -0.0000 C   0  0  0  0  0  0  0  0  0  0  0  0
   -6.8705   -1.7474   -0.0000 O   0  0  0  0  0  0  0  0  0  0  0  0
   -5.5749   -4.0058   -0.0000 C   0  0  0  0  0  0  0  0  0  0  0  0
   -6.8824   -0.2377   -0.0000 C   0  0  0  0  0  0  0  0  0  0  0  0
   -6.8824   -4.7428   -0.0000 N   0  0  0  0  0  0  0  0  0  0  0  0
   -7.0488   -6.2168   -0.0000 C   0  0  0  0  0  0  0  0  0  0  0  0
   -8.2613   -4.1247   -0.0000 C   0  0  0  0  0  0  0  0  0  0  0  0
   -8.5228   -6.5139   -0.0000 N   0  0  0  0  0  0  0  0  0  0  0  0
   -9.2717   -5.2302   -0.0000 C   0  0  0  0  0  0  0  0  0  0  0  0
  -10.7694   -5.0638   -0.0000 C   0  0  0  0  0  0  0  0  0  0  0  0
  1  2  1  0  0  0  0
  1  3  1  0  0  0  0
  2  4  2  0  0  0  0
  2  5  1  0  0  0  0
  3  6  2  0  0  0  0
  5  7  1  0  0  0  0
  6  8  1  0  0  0  0
  7  9  1  0  0  0  0
  7 10  2  0  0  0  0
  8 11  2  0  0  0  0
  8 12  1  0  0  0  0
  9 13  1  0  0  0  0
  9 14  1  0  0  0  0
 10 15  1  0  0  0  0
 10 16  1  0  0  0  0
 11 17  1  0  0  0  0
 12 18  2  0  0  0  0
 14 19  1  0  0  0  0
 15 20  1  0  0  0  0
 16 21  1  0  0  0  0
 17 22  1  0  0  0  0
 17 23  2  0  0  0  0
 22 24  1  0  0  0  0
 23 25  1  0  0  0  0
 25 26  1  0  0  0  0
 25 27  1  0  0  0  0
 26 28  2  0  0  0  0
 27 29  2  0  0  0  0
 29 30  1  0  0  0  0
  4  6  1  0  0  0  0
 13 15  2  0  0  0  0
 18 23  1  0  0  0  0
 20 21  1  0  0  0  0
 28 29  1  0  0  0  0
M  END
>  <MolRegNo>
2505468

>  <m>
=

>  <Value>
20000

>  <Unit>
nM

>  <Type>
IC50

>  <pValue>
4.7

>  <Ligand Efficiency>
0

>  <Binding Efficiency>
0

>  <Surface Efficiency>
0

>  <Assay Index>
1403667

>  <Assay Category>


>  <Assay Organism>
Homo sapiens

>  <Target ID>
17045

>  <Target Name>
Cytochrome P450 3A4

>  <Target Organism>
Homo sapiens

>  <Target Description>
Target is a single protein chain

>  <Sequence Accession>
P08684

>  <Reference>
Bioorg Med Chem 28 (22), 115734-115734 (2020)

>  <Pubmed ID>
33007551

>  <DOI>
10.1016/j.bmc.2020.115734

$$$$
2507247
Actelion Java MolfileCreator 1.0

 31 35  0  0  0  0  0  0  0  0999 V2000
    0.0000   -0.0000   -0.0000 S   0  0  0  0  0  0  0  0  0  0  0  0
    0.7371   -1.2840   -0.0000 C   0  0  0  0  0  0  0  0  0  0  0  0
   -1.4742   -0.3091   -0.0000 C   0  0  0  0  0  0  0  0  0  0  0  0
   -0.2615   -2.3896   -0.0000 N   0  0  0  0  0  0  0  0  0  0  0  0
    2.2232   -1.2721   -0.0000 N   0  0  0  0  0  0  0  0  0  0  0  0
   -1.6406   -1.7952   -0.0000 C   0  0  0  0  0  0  0  0  0  0  0  0
    2.9722   -2.5561   -0.0000 C   0  0  0  0  0  0  0  0  0  0  0  0
   -2.9484   -2.5323   -0.0000 C   0  0  0  0  0  0  0  0  0  0  0  0
    4.4463   -2.6987   -0.0000 N   0  0  0  0  0  0  0  0  0  0  0  0
    2.3302   -3.9114   -0.0000 C   0  0  0  0  0  0  0  0  0  0  0  0
   -4.2561   -1.7714   -0.0000 N   0  0  0  0  0  0  0  0  0  0  0  0
   -2.9603   -4.0302   -0.0000 C   0  0  0  0  0  0  0  0  0  0  0  0
    4.7436   -4.1491   -0.0000 N   0  0  0  0  0  0  0  0  0  0  0  0
    5.4331   -1.5693   -0.0000 C   0  0  0  0  0  0  0  0  0  0  0  0
    3.4477   -4.9219   -0.0000 C   0  0  0  0  0  0  0  0  0  0  0  0
    0.9986   -4.6485   -0.0000 C   0  0  0  0  0  0  0  0  0  0  0  0
   -5.5639   -2.5085   -0.0000 C   0  0  0  0  0  0  0  0  0  0  0  0
   -4.2799   -4.7673   -0.0000 C   0  0  0  0  0  0  0  0  0  0  0  0
    6.8835   -1.8665   -0.0000 C   0  0  0  0  0  0  0  0  0  0  0  0
    2.8176   -6.3010   -0.0000 C   0  0  0  0  0  0  0  0  0  0  0  0
    1.3077   -6.1226   -0.0000 C   0  0  0  0  0  0  0  0  0  0  0  0
   -6.8716   -1.7476   -0.0000 O   0  0  0  0  0  0  0  0  0  0  0  0
   -5.5758   -4.0065   -0.0000 C   0  0  0  0  0  0  0  0  0  0  0  0
    7.8584   -0.7371   -0.0000 F   0  0  0  0  0  0  0  0  0  0  0  0
   -6.8835   -0.2378   -0.0000 C   0  0  0  0  0  0  0  0  0  0  0  0
   -6.8835   -4.7436   -0.0000 N   0  0  0  0  0  0  0  0  0  0  0  0
   -7.0500   -6.2178   -0.0000 C   0  0  0  0  0  0  0  0  0  0  0  0
   -8.2626   -4.1254   -0.0000 C   0  0  0  0  0  0  0  0  0  0  0  0
   -8.5241   -6.5150   -0.0000 N   0  0  0  0  0  0  0  0  0  0  0  0
   -9.2731   -5.2310   -0.0000 C   0  0  0  0  0  0  0  0  0  0  0  0
  -10.7711   -5.0646   -0.0000 C   0  0  0  0  0  0  0  0  0  0  0  0
  1  2  1  0  0  0  0
  1  3  1  0  0  0  0
  2  4  2  0  0  0  0
  2  5  1  0  0  0  0
  3  6  2  0  0  0  0
  5  7  1  0  0  0  0
  6  8  1  0  0  0  0
  7  9  1  0  0  0  0
  7 10  2  0  0  0  0
  8 11  2  0  0  0  0
  8 12  1  0  0  0  0
  9 13  1  0  0  0  0
  9 14  1  0  0  0  0
 10 15  1  0  0  0  0
 10 16  1  0  0  0  0
 11 17  1  0  0  0  0
 12 18  2  0  0  0  0
 14 19  1  0  0  0  0
 15 20  1  0  0  0  0
 16 21  1  0  0  0  0
 17 22  1  0  0  0  0
 17 23  2  0  0  0  0
 19 24  1  0  0  0  0
 22 25  1  0  0  0  0
 23 26  1  0  0  0  0
 26 27  1  0  0  0  0
 26 28  1  0  0  0  0
 27 29  2  0  0  0  0
 28 30  2  0  0  0  0
 30 31  1  0  0  0  0
  4  6  1  0  0  0  0
 13 15  2  0  0  0  0
 18 23  1  0  0  0  0
 20 21  1  0  0  0  0
 29 30  1  0  0  0  0
M  END
>  <MolRegNo>
2507247

>  <m>
=

>  <Value>
10500

>  <Unit>
nM

>  <Type>
IC50

>  <pValue>
4.98

>  <Ligand Efficiency>
0

>  <Binding Efficiency>
0

>  <Surface Efficiency>
0

>  <Assay Index>
1403667

>  <Assay Category>


>  <Assay Organism>
Homo sapiens

>  <Target ID>
17045

>  <Target Name>
Cytochrome P450 3A4

>  <Target Organism>
Homo sapiens

>  <Target Description>
Target is a single protein chain

>  <Sequence Accession>
P08684

>  <Reference>
Bioorg Med Chem 28 (22), 115734-115734 (2020)

>  <Pubmed ID>
33007551

>  <DOI>
10.1016/j.bmc.2020.115734

$$$$
2513982
Actelion Java MolfileCreator 1.0

 33 37  0  0  0  0  0  0  0  0999 V2000
    0.0000   -0.0000   -0.0000 S   0  0  0  0  0  0  0  0  0  0  0  0
    0.7376   -1.2848   -0.0000 C   0  0  0  0  0  0  0  0  0  0  0  0
   -1.4752   -0.3093   -0.0000 C   0  0  0  0  0  0  0  0  0  0  0  0
   -0.2617   -2.3912   -0.0000 N   0  0  0  0  0  0  0  0  0  0  0  0
    2.2246   -1.2729   -0.0000 N   0  0  0  0  0  0  0  0  0  0  0  0
   -1.6417   -1.7964   -0.0000 C   0  0  0  0  0  0  0  0  0  0  0  0
    2.9741   -2.5577   -0.0000 C   0  0  0  0  0  0  0  0  0  0  0  0
   -2.9503   -2.5339   -0.0000 C   0  0  0  0  0  0  0  0  0  0  0  0
    4.4493   -2.7005   -0.0000 N   0  0  0  0  0  0  0  0  0  0  0  0
    2.3317   -3.9139   -0.0000 C   0  0  0  0  0  0  0  0  0  0  0  0
   -4.2589   -1.7726   -0.0000 N   0  0  0  0  0  0  0  0  0  0  0  0
   -2.9622   -4.0329   -0.0000 C   0  0  0  0  0  0  0  0  0  0  0  0
    4.7467   -4.1519   -0.0000 N   0  0  0  0  0  0  0  0  0  0  0  0
    5.4367   -1.5703   -0.0000 C   0  0  0  0  0  0  0  0  0  0  0  0
    3.4500   -4.9251   -0.0000 C   0  0  0  0  0  0  0  0  0  0  0  0
    0.9993   -4.6515   -0.0000 C   0  0  0  0  0  0  0  0  0  0  0  0
   -5.5675   -2.5101   -0.0000 C   0  0  0  0  0  0  0  0  0  0  0  0
   -4.2827   -4.7705   -0.0000 C   0  0  0  0  0  0  0  0  0  0  0  0
    6.8880   -1.8677   -0.0000 C   0  0  0  0  0  0  0  0  0  0  0  0
    2.8076   -6.3051   -0.0000 C   0  0  0  0  0  0  0  0  0  0  0  0
    1.3086   -6.1267   -0.0000 C   0  0  0  0  0  0  0  0  0  0  0  0
   -6.8880   -1.7488   -0.0000 O   0  0  0  0  0  0  0  0  0  0  0  0
   -5.5794   -4.0091   -0.0000 C   0  0  0  0  0  0  0  0  0  0  0  0
    7.8754   -0.7495   -0.0000 F   0  0  0  0  0  0  0  0  0  0  0  0
    7.3520   -3.2715   -0.0000 F   0  0  0  0  0  0  0  0  0  0  0  0
    8.3156   -2.2365   -0.0000 F   0  0  0  0  0  0  0  0  0  0  0  0
   -6.8999   -0.2379   -0.0000 C   0  0  0  0  0  0  0  0  0  0  0  0
   -6.8999   -4.7467   -0.0000 N   0  0  0  0  0  0  0  0  0  0  0  0
   -7.0665   -6.2218   -0.0000 C   0  0  0  0  0  0  0  0  0  0  0  0
   -8.2799   -4.1281   -0.0000 C   0  0  0  0  0  0  0  0  0  0  0  0
   -8.5416   -6.5192   -0.0000 N   0  0  0  0  0  0  0  0  0  0  0  0
   -9.2911   -5.2344   -0.0000 C   0  0  0  0  0  0  0  0  0  0  0  0
  -10.7901   -5.0679   -0.0000 C   0  0  0  0  0  0  0  0  0  0  0  0
  1  2  1  0  0  0  0
  1  3  1  0  0  0  0
  2  4  2  0  0  0  0
  2  5  1  0  0  0  0
  3  6  2  0  0  0  0
  5  7  1  0  0  0  0
  6  8  1  0  0  0  0
  7  9  1  0  0  0  0
  7 10  2  0  0  0  0
  8 11  2  0  0  0  0
  8 12  1  0  0  0  0
  9 13  1  0  0  0  0
  9 14  1  0  0  0  0
 10 15  1  0  0  0  0
 10 16  1  0  0  0  0
 11 17  1  0  0  0  0
 12 18  2  0  0  0  0
 14 19  1  0  0  0  0
 15 20  1  0  0  0  0
 16 21  1  0  0  0  0
 17 22  1  0  0  0  0
 17 23  2  0  0  0  0
 19 24  1  0  0  0  0
 19 25  1  0  0  0  0
 19 26  1  0  0  0  0
 22 27  1  0  0  0  0
 23 28  1  0  0  0  0
 28 29  1  0  0  0  0
 28 30  1  0  0  0  0
 29 31  2  0  0  0  0
 30 32  2  0  0  0  0
 32 33  1  0  0  0  0
  4  6  1  0  0  0  0
 13 15  2  0  0  0  0
 18 23  1  0  0  0  0
 20 21  1  0  0  0  0
 31 32  1  0  0  0  0
M  END
>  <MolRegNo>
2513982

>  <m>
=

>  <Value>
1400

>  <Unit>
nM

>  <Type>
IC50

>  <pValue>
5.85

>  <Ligand Efficiency>
0

>  <Binding Efficiency>
0

>  <Surface Efficiency>
0

>  <Assay Index>
1403667

>  <Assay Category>


>  <Assay Organism>
Homo sapiens

>  <Target ID>
17045

>  <Target Name>
Cytochrome P450 3A4

>  <Target Organism>
Homo sapiens

>  <Target Description>
Target is a single protein chain

>  <Sequence Accession>
P08684

>  <Reference>
Bioorg Med Chem 28 (22), 115734-115734 (2020)

>  <Pubmed ID>
33007551

>  <DOI>
10.1016/j.bmc.2020.115734

$$$$
2494930
Actelion Java MolfileCreator 1.0

 32 36  0  0  0  0  0  0  0  0999 V2000
    0.0000   -0.0000   -0.0000 S   0  0  0  0  0  0  0  0  0  0  0  0
    0.7375   -1.2847   -0.0000 C   0  0  0  0  0  0  0  0  0  0  0  0
   -1.4750   -0.3093   -0.0000 C   0  0  0  0  0  0  0  0  0  0  0  0
   -0.2617   -2.3910   -0.0000 N   0  0  0  0  0  0  0  0  0  0  0  0
    2.2245   -1.2728   -0.0000 N   0  0  0  0  0  0  0  0  0  0  0  0
   -1.6416   -1.7962   -0.0000 C   0  0  0  0  0  0  0  0  0  0  0  0
    2.9739   -2.5575   -0.0000 C   0  0  0  0  0  0  0  0  0  0  0  0
   -2.9501   -2.5337   -0.0000 C   0  0  0  0  0  0  0  0  0  0  0  0
    4.4489   -2.7003   -0.0000 N   0  0  0  0  0  0  0  0  0  0  0  0
    2.3315   -3.9136   -0.0000 C   0  0  0  0  0  0  0  0  0  0  0  0
   -4.2586   -1.7724   -0.0000 N   0  0  0  0  0  0  0  0  0  0  0  0
   -2.9620   -4.0326   -0.0000 C   0  0  0  0  0  0  0  0  0  0  0  0
    4.7463   -4.1515   -0.0000 N   0  0  0  0  0  0  0  0  0  0  0  0
    5.4362   -1.5702   -0.0000 C   0  0  0  0  0  0  0  0  0  0  0  0
    3.4497   -4.9247   -0.0000 C   0  0  0  0  0  0  0  0  0  0  0  0
    0.9992   -4.6511   -0.0000 C   0  0  0  0  0  0  0  0  0  0  0  0
   -5.5671   -2.5099   -0.0000 C   0  0  0  0  0  0  0  0  0  0  0  0
   -4.2824   -4.7701   -0.0000 C   0  0  0  0  0  0  0  0  0  0  0  0
    6.8875   -1.8676   -0.0000 C   0  0  0  0  0  0  0  0  0  0  0  0
    2.8192   -6.2927   -0.0000 C   0  0  0  0  0  0  0  0  0  0  0  0
    1.3085   -6.1262   -0.0000 C   0  0  0  0  0  0  0  0  0  0  0  0
   -6.8756   -1.7486   -0.0000 O   0  0  0  0  0  0  0  0  0  0  0  0
   -5.5790   -4.0088   -0.0000 C   0  0  0  0  0  0  0  0  0  0  0  0
    4.2586   -6.6615   -0.0000 C   0  0  0  0  0  0  0  0  0  0  0  0
    3.1999   -7.7321   -0.0000 C   0  0  0  0  0  0  0  0  0  0  0  0
   -6.8875   -0.2379   -0.0000 C   0  0  0  0  0  0  0  0  0  0  0  0
   -6.8875   -4.7463   -0.0000 N   0  0  0  0  0  0  0  0  0  0  0  0
   -7.0540   -6.2213   -0.0000 C   0  0  0  0  0  0  0  0  0  0  0  0
   -8.2674   -4.1277   -0.0000 C   0  0  0  0  0  0  0  0  0  0  0  0
   -8.5291   -6.5187   -0.0000 N   0  0  0  0  0  0  0  0  0  0  0  0
   -9.2785   -5.2340   -0.0000 C   0  0  0  0  0  0  0  0  0  0  0  0
  -10.7773   -5.0675   -0.0000 C   0  0  0  0  0  0  0  0  0  0  0  0
  1  2  1  0  0  0  0
  1  3  1  0  0  0  0
  2  4  2  0  0  0  0
  2  5  1  0  0  0  0
  3  6  2  0  0  0  0
  5  7  1  0  0  0  0
  6  8  1  0  0  0  0
  7  9  1  0  0  0  0
  7 10  2  0  0  0  0
  8 11  2  0  0  0  0
  8 12  1  0  0  0  0
  9 13  1  0  0  0  0
  9 14  1  0  0  0  0
 10 15  1  0  0  0  0
 10 16  1  0  0  0  0
 11 17  1  0  0  0  0
 12 18  2  0  0  0  0
 14 19  1  0  0  0  0
 15 20  1  0  0  0  0
 16 21  1  0  0  0  0
 17 22  1  0  0  0  0
 17 23  2  0  0  0  0
 20 24  1  0  0  0  0
 20 25  1  0  0  0  0
 22 26  1  0  0  0  0
 23 27  1  0  0  0  0
 27 28  1  0  0  0  0
 27 29  1  0  0  0  0
 28 30  2  0  0  0  0
 29 31  2  0  0  0  0
 31 32  1  0  0  0  0
  4  6  1  0  0  0  0
 13 15  2  0  0  0  0
 18 23  1  0  0  0  0
 20 21  1  0  0  0  0
 30 31  1  0  0  0  0
M  END
>  <MolRegNo>
2494930

>  <m>
=

>  <Value>
750

>  <Unit>
nM

>  <Type>
IC50

>  <pValue>
6.12

>  <Ligand Efficiency>
0

>  <Binding Efficiency>
0

>  <Surface Efficiency>
0

>  <Assay Index>
1403667

>  <Assay Category>


>  <Assay Organism>
Homo sapiens

>  <Target ID>
17045

>  <Target Name>
Cytochrome P450 3A4

>  <Target Organism>
Homo sapiens

>  <Target Description>
Target is a single protein chain

>  <Sequence Accession>
P08684

>  <Reference>
Bioorg Med Chem 28 (22), 115734-115734 (2020)

>  <Pubmed ID>
33007551

>  <DOI>
10.1016/j.bmc.2020.115734

$$$$
2534670
Actelion Java MolfileCreator 1.0

 33 37  0  0  0  0  0  0  0  0999 V2000
    0.0000   -0.0000   -0.0000 S   0  0  0  0  0  0  0  0  0  0  0  0
    0.7373   -1.2843   -0.0000 C   0  0  0  0  0  0  0  0  0  0  0  0
   -1.4746   -0.3092   -0.0000 C   0  0  0  0  0  0  0  0  0  0  0  0
   -0.2616   -2.3903   -0.0000 N   0  0  0  0  0  0  0  0  0  0  0  0
    2.2238   -1.2724   -0.0000 N   0  0  0  0  0  0  0  0  0  0  0  0
   -1.6411   -1.7957   -0.0000 C   0  0  0  0  0  0  0  0  0  0  0  0
    2.9730   -2.5567   -0.0000 C   0  0  0  0  0  0  0  0  0  0  0  0
   -2.9492   -2.5330   -0.0000 C   0  0  0  0  0  0  0  0  0  0  0  0
    4.4475   -2.6994   -0.0000 N   0  0  0  0  0  0  0  0  0  0  0  0
    2.3308   -3.9124   -0.0000 C   0  0  0  0  0  0  0  0  0  0  0  0
   -4.2573   -1.7719   -0.0000 N   0  0  0  0  0  0  0  0  0  0  0  0
   -2.9611   -4.0313   -0.0000 C   0  0  0  0  0  0  0  0  0  0  0  0
    4.7448   -4.1502   -0.0000 N   0  0  0  0  0  0  0  0  0  0  0  0
    5.4346   -1.5697   -0.0000 C   0  0  0  0  0  0  0  0  0  0  0  0
    3.4486   -4.9232   -0.0000 C   0  0  0  0  0  0  0  0  0  0  0  0
    0.9989   -4.6497   -0.0000 C   0  0  0  0  0  0  0  0  0  0  0  0
   -5.5654   -2.5092   -0.0000 C   0  0  0  0  0  0  0  0  0  0  0  0
   -4.2811   -4.7686   -0.0000 C   0  0  0  0  0  0  0  0  0  0  0  0
    6.8854   -1.8670   -0.0000 C   0  0  0  0  0  0  0  0  0  0  0  0
    2.8184   -6.2908   -0.0000 C   0  0  0  0  0  0  0  0  0  0  0  0
    1.3081   -6.1243   -0.0000 C   0  0  0  0  0  0  0  0  0  0  0  0
   -0.3805   -4.0194   -0.0000 C   0  0  0  0  0  0  0  0  0  0  0  0
   -6.8735   -1.7481   -0.0000 O   0  0  0  0  0  0  0  0  0  0  0  0
   -5.5773   -4.0075   -0.0000 C   0  0  0  0  0  0  0  0  0  0  0  0
    4.2573   -6.6594   -0.0000 C   0  0  0  0  0  0  0  0  0  0  0  0
    3.1989   -7.7297   -0.0000 C   0  0  0  0  0  0  0  0  0  0  0  0
   -6.8854   -0.2378   -0.0000 C   0  0  0  0  0  0  0  0  0  0  0  0
   -6.8854   -4.7448   -0.0000 N   0  0  0  0  0  0  0  0  0  0  0  0
   -7.0519   -6.2194   -0.0000 C   0  0  0  0  0  0  0  0  0  0  0  0
   -8.2648   -4.1265   -0.0000 C   0  0  0  0  0  0  0  0  0  0  0  0
   -8.5264   -6.5167   -0.0000 N   0  0  0  0  0  0  0  0  0  0  0  0
   -9.2756   -5.2324   -0.0000 C   0  0  0  0  0  0  0  0  0  0  0  0
  -10.7740   -5.0659   -0.0000 C   0  0  0  0  0  0  0  0  0  0  0  0
  1  2  1  0  0  0  0
  1  3  1  0  0  0  0
  2  4  2  0  0  0  0
  2  5  1  0  0  0  0
  3  6  2  0  0  0  0
  5  7  1  0  0  0  0
  6  8  1  0  0  0  0
  7  9  1  0  0  0  0
  7 10  2  0  0  0  0
  8 11  2  0  0  0  0
  8 12  1  0  0  0  0
  9 13  1  0  0  0  0
  9 14  1  0  0  0  0
 10 15  1  0  0  0  0
 10 16  1  0  0  0  0
 11 17  1  0  0  0  0
 12 18  2  0  0  0  0
 14 19  1  0  0  0  0
 15 20  1  0  0  0  0
 16 21  1  0  0  0  0
 16 22  1  0  0  0  0
 17 23  1  0  0  0  0
 17 24  2  0  0  0  0
 20 25  1  0  0  0  0
 20 26  1  0  0  0  0
 23 27  1  0  0  0  0
 24 28  1  0  0  0  0
 28 29  1  0  0  0  0
 28 30  1  0  0  0  0
 29 31  2  0  0  0  0
 30 32  2  0  0  0  0
 32 33  1  0  0  0  0
  4  6  1  0  0  0  0
 13 15  2  0  0  0  0
 18 24  1  0  0  0  0
 20 21  1  0  0  0  0
 31 32  1  0  0  0  0
M  END
>  <MolRegNo>
2534670

>  <m>
=

>  <Value>
1500

>  <Unit>
nM

>  <Type>
IC50

>  <pValue>
5.82

>  <Ligand Efficiency>
0

>  <Binding Efficiency>
0

>  <Surface Efficiency>
0

>  <Assay Index>
1403667

>  <Assay Category>


>  <Assay Organism>
Homo sapiens

>  <Target ID>
17045

>  <Target Name>
Cytochrome P450 3A4

>  <Target Organism>
Homo sapiens

>  <Target Description>
Target is a single protein chain

>  <Sequence Accession>
P08684

>  <Reference>
Bioorg Med Chem 28 (22), 115734-115734 (2020)

>  <Pubmed ID>
33007551

>  <DOI>
10.1016/j.bmc.2020.115734

$$$$
2493313
Actelion Java MolfileCreator 1.0

 32 36  0  0  0  0  0  0  0  0999 V2000
    0.0000   -0.0000   -0.0000 S   0  0  0  0  0  0  0  0  0  0  0  0
    0.7307   -1.2817   -0.0000 C   0  0  0  0  0  0  0  0  0  0  0  0
   -1.4734   -0.2995   -0.0000 C   0  0  0  0  0  0  0  0  0  0  0  0
   -0.2755   -2.3837   -0.0000 N   0  0  0  0  0  0  0  0  0  0  0  0
    2.2160   -1.2697   -0.0000 N   0  0  0  0  0  0  0  0  0  0  0  0
   -1.6411   -1.7848   -0.0000 C   0  0  0  0  0  0  0  0  0  0  0  0
    2.9587   -2.5514   -0.0000 C   0  0  0  0  0  0  0  0  0  0  0  0
   -2.9467   -2.5275   -0.0000 C   0  0  0  0  0  0  0  0  0  0  0  0
    4.4320   -2.6952   -0.0000 N   0  0  0  0  0  0  0  0  0  0  0  0
    2.3238   -3.9050   -0.0000 C   0  0  0  0  0  0  0  0  0  0  0  0
   -4.2643   -1.7728   -0.0000 N   0  0  0  0  0  0  0  0  0  0  0  0
   -2.9587   -4.0248   -0.0000 C   0  0  0  0  0  0  0  0  0  0  0  0
    4.7315   -4.1446   -0.0000 N   0  0  0  0  0  0  0  0  0  0  0  0
    5.4143   -1.5692   -0.0000 C   0  0  0  0  0  0  0  0  0  0  0  0
    3.4378   -4.8992   -0.0000 C   0  0  0  0  0  0  0  0  0  0  0  0
    0.8145   -4.1446   -0.0000 C   0  0  0  0  0  0  0  0  0  0  0  0
   -5.5820   -2.5155   -0.0000 C   0  0  0  0  0  0  0  0  0  0  0  0
   -4.2763   -4.7674   -0.0000 C   0  0  0  0  0  0  0  0  0  0  0  0
    6.8637   -1.8567   -0.0000 C   0  0  0  0  0  0  0  0  0  0  0  0
    3.3420   -6.4085   -0.0000 C   0  0  0  0  0  0  0  0  0  0  0  0
    0.0719   -5.4622   -0.0000 C   0  0  0  0  0  0  0  0  0  0  0  0
   -6.8876   -1.7489   -0.0000 O   0  0  0  0  0  0  0  0  0  0  0  0
   -5.5940   -4.0128   -0.0000 C   0  0  0  0  0  0  0  0  0  0  0  0
    2.0962   -7.2829   -0.0000 C   0  0  0  0  0  0  0  0  0  0  0  0
    0.6468   -6.8517   -0.0000 C   0  0  0  0  0  0  0  0  0  0  0  0
   -6.8996   -0.2396   -0.0000 C   0  0  0  0  0  0  0  0  0  0  0  0
   -6.8996   -4.7435   -0.0000 N   0  0  0  0  0  0  0  0  0  0  0  0
   -7.0673   -6.2168   -0.0000 C   0  0  0  0  0  0  0  0  0  0  0  0
   -8.2771   -4.1206   -0.0000 C   0  0  0  0  0  0  0  0  0  0  0  0
   -8.5407   -6.5163   -0.0000 N   0  0  0  0  0  0  0  0  0  0  0  0
   -9.2833   -5.2226   -0.0000 C   0  0  0  0  0  0  0  0  0  0  0  0
  -10.7807   -5.0549   -0.0000 C   0  0  0  0  0  0  0  0  0  0  0  0
  1  2  1  0  0  0  0
  1  3  1  0  0  0  0
  2  4  2  0  0  0  0
  2  5  1  0  0  0  0
  3  6  2  0  0  0  0
  5  7  1  0  0  0  0
  6  8  1  0  0  0  0
  7  9  1  0  0  0  0
  7 10  2  0  0  0  0
  8 11  2  0  0  0  0
  8 12  1  0  0  0  0
  9 13  1  0  0  0  0
  9 14  1  0  0  0  0
 10 15  1  0  0  0  0
 10 16  1  0  0  0  0
 11 17  1  0  0  0  0
 12 18  2  0  0  0  0
 14 19  1  0  0  0  0
 15 20  1  0  0  0  0
 16 21  1  0  0  0  0
 17 22  1  0  0  0  0
 17 23  2  0  0  0  0
 20 24  1  0  0  0  0
 21 25  1  0  0  0  0
 22 26  1  0  0  0  0
 23 27  1  0  0  0  0
 27 28  1  0  0  0  0
 27 29  1  0  0  0  0
 28 30  2  0  0  0  0
 29 31  2  0  0  0  0
 31 32  1  0  0  0  0
  4  6  1  0  0  0  0
 13 15  2  0  0  0  0
 18 23  1  0  0  0  0
 24 25  1  0  0  0  0
 30 31  1  0  0  0  0
M  END
>  <MolRegNo>
2493313

>  <m>
=

>  <Value>
11000

>  <Unit>
nM

>  <Type>
IC50

>  <pValue>
4.96

>  <Ligand Efficiency>
0

>  <Binding Efficiency>
0

>  <Surface Efficiency>
0

>  <Assay Index>
1403667

>  <Assay Category>


>  <Assay Organism>
Homo sapiens

>  <Target ID>
17045

>  <Target Name>
Cytochrome P450 3A4

>  <Target Organism>
Homo sapiens

>  <Target Description>
Target is a single protein chain

>  <Sequence Accession>
P08684

>  <Reference>
Bioorg Med Chem 28 (22), 115734-115734 (2020)

>  <Pubmed ID>
33007551

>  <DOI>
10.1016/j.bmc.2020.115734

$$$$
2490968
Actelion Java MolfileCreator 1.0

 27 28  0  0  0  0  0  0  0  0999 V2000
    0.0000   -0.0000   -0.0000 Cl  0  0  0  0  0  0  0  0  0  0  0  0
  -10.3055   -8.9819   -0.0000 F   0  0  0  0  0  0  0  0  0  0  0  0
   -9.0409   -8.1664   -0.0000 C   0  0  0  0  0  0  0  0  0  0  0  0
   -7.7291   -8.8519   -0.0000 C   0  0  0  0  0  0  0  0  0  0  0  0
   -9.1119   -6.6537   -0.0000 C   0  0  0  0  0  0  0  0  0  0  0  0
   -7.6819  -10.3410   -0.0000 F   0  0  0  0  0  0  0  0  0  0  0  0
   -6.4646   -8.0364   -0.0000 C   0  0  0  0  0  0  0  0  0  0  0  0
   -7.8473   -5.8382   -0.0000 C   0  0  0  0  0  0  0  0  0  0  0  0
   -6.5355   -6.5237   -0.0000 C   0  0  0  0  0  0  0  0  0  0  0  0
   -7.9182   -4.3255   -0.0000 N   0  0  0  0  0  0  0  0  0  0  0  0
   -6.7482   -3.3800   -0.0000 N   0  0  0  0  0  0  0  0  0  0  0  0
   -9.1828   -3.4746   -0.0000 C   0  0  0  0  0  0  0  0  0  0  0  0
   -7.2800   -1.9500   -0.0000 C   0  0  0  0  0  0  0  0  0  0  0  0
   -8.7809   -2.0091   -0.0000 C   0  0  0  0  0  0  0  0  0  0  0  0
   -6.4528   -0.6855   -0.0000 C   0  0  0  0  0  0  0  0  0  0  0  0
   -4.9637   -0.7682   -0.0000 O   0  0  0  0  0  0  0  0  0  0  0  0
   -4.1364    0.4964   -0.0000 C   0  0  0  0  0  0  0  0  0  0  0  0
   -2.6473    0.4136   -0.0000 C   0  0  0  0  0  0  0  0  0  0  0  0
   -1.9973   -0.9218   -0.0000 N   0  0  0  0  0  0  0  0  0  0  0  0
   -2.8482   -2.1509   -0.0000 C   0  0  0  0  0  0  0  0  0  0  0  0
   -0.5082   -1.0045   -0.0000 C   0  0  0  0  0  0  0  0  0  0  0  0
   -2.1982   -3.4864   -0.0000 C   0  0  0  0  0  0  0  0  0  0  0  0
    0.1418   -2.3518   -0.0000 C   0  0  0  0  0  0  0  0  0  0  0  0
   -0.7091   -3.5809   -0.0000 N   0  0  0  0  0  0  0  0  0  0  0  0
   -0.0591   -4.9164   -0.0000 C   0  0  0  0  0  0  0  0  0  0  0  0
    1.4300   -5.0109   -0.0000 O   0  0  0  0  0  0  0  0  0  0  0  0
   -0.9100   -6.1455   -0.0000 C   0  0  0  0  0  0  0  0  0  0  0  0
  2  3  1  0  0  0  0
  3  4  2  0  0  0  0
  3  5  1  0  0  0  0
  4  6  1  0  0  0  0
  4  7  1  0  0  0  0
  5  8  2  0  0  0  0
  7  9  2  0  0  0  0
  8 10  1  0  0  0  0
 10 11  1  0  0  0  0
 10 12  1  0  0  0  0
 11 13  2  0  0  0  0
 12 14  2  0  0  0  0
 13 15  1  0  0  0  0
 15 16  1  0  0  0  0
 16 17  1  0  0  0  0
 17 18  1  0  0  0  0
 18 19  1  0  0  0  0
 19 20  1  0  0  0  0
 19 21  1  0  0  0  0
 20 22  1  0  0  0  0
 21 23  1  0  0  0  0
 22 24  1  0  0  0  0
 24 25  1  0  0  0  0
 25 26  2  0  0  0  0
 25 27  1  0  0  0  0
  8  9  1  0  0  0  0
 13 14  1  0  0  0  0
 23 24  1  0  0  0  0
M  END
>  <MolRegNo>
2490968

>  <m>
=

>  <Value>
1.0e5

>  <Unit>
nM

>  <Type>
IC50

>  <pValue>
4

>  <Ligand Efficiency>
0

>  <Binding Efficiency>
0

>  <Surface Efficiency>
0

>  <Assay Index>
1406537

>  <Assay Category>


>  <Assay Organism>
Homo sapiens

>  <Target ID>
17045

>  <Target Name>
Cytochrome P450 3A4

>  <Target Organism>
Homo sapiens

>  <Target Description>
Target is a single protein chain

>  <Sequence Accession>
P08684

>  <Reference>
J Med Chem 63 (23), 14979-14988 (2020)

>  <Pubmed ID>
33237785

>  <DOI>
10.1021/acs.jmedchem.0c01575

$$$$
2502056
Actelion Java MolfileCreator 1.0

 45 49  0  0  0  0  0  0  0  0999 V2000
    0.0000   -0.0000   -0.0000 S   0  0  0  0  0  0  0  0  0  0  0  0
   -1.4597    0.4048   -0.0000 O   0  0  0  0  0  0  0  0  0  0  0  0
   -1.0795   -1.0427   -0.0000 O   0  0  0  0  0  0  0  0  0  0  0  0
   -0.0245   -1.4843   -0.0000 C   0  0  0  0  0  0  0  0  0  0  0  0
    1.1163    1.0304   -0.0000 C   0  0  0  0  0  0  0  0  0  0  0  0
   -1.3371   -2.2080   -0.0000 C   0  0  0  0  0  0  0  0  0  0  0  0
    1.2389   -2.2203   -0.0000 C   0  0  0  0  0  0  0  0  0  0  0  0
   -0.1963    1.7787   -0.0000 C   0  0  0  0  0  0  0  0  0  0  0  0
    2.4043    1.7909   -0.0000 C   0  0  0  0  0  0  0  0  0  0  0  0
    1.4229   -0.4416   -0.0000 C   0  0  0  0  0  0  0  0  0  0  0  0
   -1.3616   -3.6800   -0.0000 C   0  0  0  0  0  0  0  0  0  0  0  0
    1.2267   -3.6923   -0.0000 C   0  0  0  0  0  0  0  0  0  0  0  0
   -0.2208    3.2998   -0.0000 C   0  0  0  0  0  0  0  0  0  0  0  0
   -1.5088    1.0427   -0.0000 C   0  0  0  0  0  0  0  0  0  0  0  0
    3.5206    0.7851   -0.0000 N   0  0  0  0  0  0  0  0  0  0  0  0
    2.3920    3.2998   -0.0000 C   0  0  0  0  0  0  0  0  0  0  0  0
    2.9072   -0.5888   -0.0000 C   0  0  0  0  0  0  0  0  0  0  0  0
   -0.0859   -4.4283   -0.0000 C   0  0  0  0  0  0  0  0  0  0  0  0
   -1.5211    4.0480   -0.0000 N   0  0  0  0  0  0  0  0  0  0  0  0
    1.0672    4.0726   -0.0000 C   0  0  0  0  0  0  0  0  0  0  0  0
   -2.8091    1.8032   -0.0000 C   0  0  0  0  0  0  0  0  0  0  0  0
    4.9680    1.1040   -0.0000 C   0  0  0  0  0  0  0  0  0  0  0  0
   -0.1104   -5.9126   -0.0000 F   0  0  0  0  0  0  0  0  0  0  0  0
   -2.8214    3.3120   -0.0000 C   0  0  0  0  0  0  0  0  0  0  0  0
    5.4219    2.5392   -0.0000 O   0  0  0  0  0  0  0  0  0  0  0  0
    5.9494    0.0123   -0.0000 C   0  0  0  0  0  0  0  0  0  0  0  0
   -4.1216    4.0726   -0.0000 C   0  0  0  0  0  0  0  0  0  0  0  0
    7.4214    0.1840   -0.0000 N   0  0  0  0  0  0  0  0  0  0  0  0
    5.6304   -1.4352   -0.0000 C   0  0  0  0  0  0  0  0  0  0  0  0
   -5.2624    4.9312   -0.0000 F   0  0  0  0  0  0  0  0  0  0  0  0
   -4.0358    5.6059   -0.0000 C   0  0  0  0  0  0  0  0  0  0  0  0
   -5.0171    2.8214   -0.0000 C   0  0  0  0  0  0  0  0  0  0  0  0
    8.0102   -1.1653   -0.0000 C   0  0  0  0  0  0  0  0  0  0  0  0
    8.1574    1.4843   -0.0000 C   0  0  0  0  0  0  0  0  0  0  0  0
    6.9062   -2.1712   -0.0000 C   0  0  0  0  0  0  0  0  0  0  0  0
   -2.6128    6.2070   -0.0000 F   0  0  0  0  0  0  0  0  0  0  0  0
   -5.6059    5.8635   -0.0000 F   0  0  0  0  0  0  0  0  0  0  0  0
   -3.7904    7.0289   -0.0000 F   0  0  0  0  0  0  0  0  0  0  0  0
   -5.9984    1.7419   -0.0000 F   0  0  0  0  0  0  0  0  0  0  0  0
   -6.5750    3.0790   -0.0000 F   0  0  0  0  0  0  0  0  0  0  0  0
   -3.8027    1.8032   -0.0000 F   0  0  0  0  0  0  0  0  0  0  0  0
    9.4577   -1.4597   -0.0000 O   0  0  0  0  0  0  0  0  0  0  0  0
    9.6417    1.4965   -0.0000 C   0  0  0  0  0  0  0  0  0  0  0  0
   10.3777    2.7968   -0.0000 C   0  0  0  0  0  0  0  0  0  0  0  0
   11.1014    4.1094   -0.0000 N   0  0  0  0  0  0  0  0  0  0  0  0
  1  2  2  0  0  0  0
  1  3  2  0  0  0  0
  1  4  1  0  0  0  0
  5  1  1  6  0  0  0
  4  6  2  0  0  0  0
  4  7  1  0  0  0  0
  5  8  1  0  0  0  0
  5  9  1  0  0  0  0
  5 10  1  0  0  0  0
  6 11  1  0  0  0  0
  7 12  2  0  0  0  0
  8 13  2  0  0  0  0
  8 14  1  0  0  0  0
  9 15  1  1  0  0  0
  9 16  1  0  0  0  0
 10 17  1  0  0  0  0
 11 18  2  0  0  0  0
 13 19  1  0  0  0  0
 13 20  1  0  0  0  0
 14 21  2  0  0  0  0
 15 22  1  0  0  0  0
 18 23  1  0  0  0  0
 19 24  2  0  0  0  0
 22 25  2  0  0  0  0
 26 22  1  1  0  0  0
 24 27  1  0  0  0  0
 26 28  1  0  0  0  0
 26 29  1  0  0  0  0
 27 30  1  0  0  0  0
 27 31  1  0  0  0  0
 27 32  1  0  0  0  0
 28 33  1  0  0  0  0
 28 34  1  0  0  0  0
 29 35  1  0  0  0  0
 31 36  1  0  0  0  0
 31 37  1  0  0  0  0
 31 38  1  0  0  0  0
 32 39  1  0  0  0  0
 32 40  1  0  0  0  0
 32 41  1  0  0  0  0
 33 42  2  0  0  0  0
 34 43  1  0  0  0  0
 43 44  1  0  0  0  0
 44 45  3  0  0  0  0
 12 18  1  0  0  0  0
 15 17  1  0  0  0  0
 16 20  1  0  0  0  0
 21 24  1  0  0  0  0
 33 35  1  0  0  0  0
M  END
>  <MolRegNo>
2502056

>  <m>
=

>  <Value>
19000

>  <Unit>
nM

>  <Type>
IC50

>  <pValue>
4.72

>  <Ligand Efficiency>
0

>  <Binding Efficiency>
0

>  <Surface Efficiency>
0

>  <Assay Index>
1415347

>  <Assay Category>


>  <Assay Organism>
Homo sapiens

>  <Target ID>
17045

>  <Target Name>
Cytochrome P450 3A4

>  <Target Organism>
Homo sapiens

>  <Target Description>
Target is a single protein chain

>  <Sequence Accession>
P08684

>  <Reference>
ACS Med Chem Lett 12 (5.0), 827-835 (2021)

>  <Pubmed ID>
34055233

>  <DOI>
10.1021/acsmedchemlett.1c00112

$$$$
2495545
Actelion Java MolfileCreator 1.0

 45 49  0  0  0  0  0  0  0  0999 V2000
    0.0000   -0.0000   -0.0000 S   0  0  0  0  0  0  0  0  0  0  0  0
   -1.4577    0.4042   -0.0000 O   0  0  0  0  0  0  0  0  0  0  0  0
   -1.0780   -1.0412   -0.0000 O   0  0  0  0  0  0  0  0  0  0  0  0
   -0.0245   -1.4822   -0.0000 C   0  0  0  0  0  0  0  0  0  0  0  0
    1.1147    1.0290   -0.0000 C   0  0  0  0  0  0  0  0  0  0  0  0
   -1.3352   -2.2049   -0.0000 C   0  0  0  0  0  0  0  0  0  0  0  0
    1.2372   -2.2172   -0.0000 C   0  0  0  0  0  0  0  0  0  0  0  0
   -0.1960    1.7762   -0.0000 C   0  0  0  0  0  0  0  0  0  0  0  0
    2.4009    1.7884   -0.0000 C   0  0  0  0  0  0  0  0  0  0  0  0
    1.4209   -0.4410   -0.0000 C   0  0  0  0  0  0  0  0  0  0  0  0
   -1.3597   -3.6871   -0.0000 C   0  0  0  0  0  0  0  0  0  0  0  0
    1.2250   -3.6871   -0.0000 C   0  0  0  0  0  0  0  0  0  0  0  0
   -0.2205    3.2951   -0.0000 C   0  0  0  0  0  0  0  0  0  0  0  0
   -1.5067    1.0412   -0.0000 C   0  0  0  0  0  0  0  0  0  0  0  0
    3.5156    0.7840   -0.0000 N   0  0  0  0  0  0  0  0  0  0  0  0
    2.3887    3.3074   -0.0000 C   0  0  0  0  0  0  0  0  0  0  0  0
    2.9031   -0.5880   -0.0000 C   0  0  0  0  0  0  0  0  0  0  0  0
   -0.0857   -4.4343   -0.0000 C   0  0  0  0  0  0  0  0  0  0  0  0
   -1.5312    4.0423   -0.0000 C   0  0  0  0  0  0  0  0  0  0  0  0
    1.0657    4.0668   -0.0000 C   0  0  0  0  0  0  0  0  0  0  0  0
   -2.8051    1.8007   -0.0000 N   0  0  0  0  0  0  0  0  0  0  0  0
    4.9610    1.1025   -0.0000 C   0  0  0  0  0  0  0  0  0  0  0  0
   -0.1102   -5.9165   -0.0000 F   0  0  0  0  0  0  0  0  0  0  0  0
   -2.8296    3.3074   -0.0000 C   0  0  0  0  0  0  0  0  0  0  0  0
    5.4143    2.5356   -0.0000 O   0  0  0  0  0  0  0  0  0  0  0  0
    5.9410    0.0122   -0.0000 C   0  0  0  0  0  0  0  0  0  0  0  0
   -4.1403    4.0791   -0.0000 C   0  0  0  0  0  0  0  0  0  0  0  0
    7.4232    0.1837   -0.0000 N   0  0  0  0  0  0  0  0  0  0  0  0
    5.6225   -1.4332   -0.0000 C   0  0  0  0  0  0  0  0  0  0  0  0
   -5.2795    4.9365   -0.0000 F   0  0  0  0  0  0  0  0  0  0  0  0
   -4.0546    5.6103   -0.0000 C   0  0  0  0  0  0  0  0  0  0  0  0
   -5.0345    2.8296   -0.0000 C   0  0  0  0  0  0  0  0  0  0  0  0
    8.0112   -1.1637   -0.0000 C   0  0  0  0  0  0  0  0  0  0  0  0
    8.1582    1.4822   -0.0000 C   0  0  0  0  0  0  0  0  0  0  0  0
    6.8965   -2.1682   -0.0000 C   0  0  0  0  0  0  0  0  0  0  0  0
   -2.6214    6.2105   -0.0000 F   0  0  0  0  0  0  0  0  0  0  0  0
   -5.6225    5.8798   -0.0000 F   0  0  0  0  0  0  0  0  0  0  0  0
   -3.7973    7.0435   -0.0000 F   0  0  0  0  0  0  0  0  0  0  0  0
   -6.6025    3.0869   -0.0000 F   0  0  0  0  0  0  0  0  0  0  0  0
   -3.8341    1.8129   -0.0000 F   0  0  0  0  0  0  0  0  0  0  0  0
   -6.0145    1.7517   -0.0000 F   0  0  0  0  0  0  0  0  0  0  0  0
    9.4566   -1.4577   -0.0000 O   0  0  0  0  0  0  0  0  0  0  0  0
    9.6404    1.4944   -0.0000 C   0  0  0  0  0  0  0  0  0  0  0  0
   10.3753    2.7929   -0.0000 C   0  0  0  0  0  0  0  0  0  0  0  0
   11.0980    4.1036   -0.0000 N   0  0  0  0  0  0  0  0  0  0  0  0
  1  2  2  0  0  0  0
  1  3  2  0  0  0  0
  1  4  1  0  0  0  0
  5  1  1  6  0  0  0
  4  6  2  0  0  0  0
  4  7  1  0  0  0  0
  5  8  1  0  0  0  0
  5  9  1  0  0  0  0
  5 10  1  0  0  0  0
  6 11  1  0  0  0  0
  7 12  2  0  0  0  0
  8 13  2  0  0  0  0
  8 14  1  0  0  0  0
  9 15  1  1  0  0  0
  9 16  1  0  0  0  0
 10 17  1  0  0  0  0
 11 18  2  0  0  0  0
 13 19  1  0  0  0  0
 13 20  1  0  0  0  0
 14 21  2  0  0  0  0
 15 22  1  0  0  0  0
 18 23  1  0  0  0  0
 19 24  2  0  0  0  0
 22 25  2  0  0  0  0
 26 22  1  1  0  0  0
 24 27  1  0  0  0  0
 26 28  1  0  0  0  0
 26 29  1  0  0  0  0
 27 30  1  0  0  0  0
 27 31  1  0  0  0  0
 27 32  1  0  0  0  0
 28 33  1  0  0  0  0
 28 34  1  0  0  0  0
 29 35  1  0  0  0  0
 31 36  1  0  0  0  0
 31 37  1  0  0  0  0
 31 38  1  0  0  0  0
 32 39  1  0  0  0  0
 32 40  1  0  0  0  0
 32 41  1  0  0  0  0
 33 42  2  0  0  0  0
 34 43  1  0  0  0  0
 43 44  1  0  0  0  0
 44 45  3  0  0  0  0
 12 18  1  0  0  0  0
 15 17  1  0  0  0  0
 16 20  1  0  0  0  0
 21 24  1  0  0  0  0
 33 35  1  0  0  0  0
M  END
>  <MolRegNo>
2495545

>  <m>
=

>  <Value>
12000

>  <Unit>
nM

>  <Type>
IC50

>  <pValue>
4.92

>  <Ligand Efficiency>
0

>  <Binding Efficiency>
0

>  <Surface Efficiency>
0

>  <Assay Index>
1415347

>  <Assay Category>


>  <Assay Organism>
Homo sapiens

>  <Target ID>
17045

>  <Target Name>
Cytochrome P450 3A4

>  <Target Organism>
Homo sapiens

>  <Target Description>
Target is a single protein chain

>  <Sequence Accession>
P08684

>  <Reference>
ACS Med Chem Lett 12 (5.0), 827-835 (2021)

>  <Pubmed ID>
34055233

>  <DOI>
10.1021/acsmedchemlett.1c00112

$$$$
2343001
Actelion Java MolfileCreator 1.0

 43 47  0  0  0  0  0  0  0  0999 V2000
    0.0000   -0.0000   -0.0000 S   0  0  0  0  0  0  0  0  0  0  0  0
    1.4234   -0.3677   -0.0000 O   0  0  0  0  0  0  0  0  0  0  0  0
    0.3796   -1.4234   -0.0000 O   0  0  0  0  0  0  0  0  0  0  0  0
   -1.4708   -0.2965   -0.0000 C   0  0  0  0  0  0  0  0  0  0  0  0
    0.4626    1.4353   -0.0000 C   0  0  0  0  0  0  0  0  0  0  0  0
   -2.4672    0.8303   -0.0000 C   0  0  0  0  0  0  0  0  0  0  0  0
   -0.5456    2.5503   -0.0000 C   0  0  0  0  0  0  0  0  0  0  0  0
   -2.0046    2.2537   -0.0000 C   0  0  0  0  0  0  0  0  0  0  0  0
   -3.0129    3.3806   -0.0000 C   0  0  0  0  0  0  0  0  0  0  0  0
   -2.5503    4.8040   -0.0000 O   0  0  0  0  0  0  0  0  0  0  0  0
   -4.4837    3.0959   -0.0000 N   0  0  0  0  0  0  0  0  0  0  0  0
   -5.6106    4.1160   -0.0000 C   0  0  0  0  0  0  0  0  0  0  0  0
   -5.1124    1.7318   -0.0000 C   0  0  0  0  0  0  0  0  0  0  0  0
   -6.9272    3.3806   -0.0000 C   0  0  0  0  0  0  0  0  0  0  0  0
   -5.6224    5.6343   -0.0000 C   0  0  0  0  0  0  0  0  0  0  0  0
   -6.6188    1.9097   -0.0000 C   0  0  0  0  0  0  0  0  0  0  0  0
   -8.0066    2.3368   -0.0000 S   0  0  0  0  0  0  0  0  0  0  0  0
   -8.2320    4.1397   -0.0000 C   0  0  0  0  0  0  0  0  0  0  0  0
   -6.9391    6.4053   -0.0000 C   0  0  0  0  0  0  0  0  0  0  0  0
   -9.0860    1.2929   -0.0000 O   0  0  0  0  0  0  0  0  0  0  0  0
   -9.4656    2.7400   -0.0000 O   0  0  0  0  0  0  0  0  0  0  0  0
   -7.6389    0.9015   -0.0000 C   0  0  0  0  0  0  0  0  0  0  0  0
   -8.2439    5.6580   -0.0000 C   0  0  0  0  0  0  0  0  0  0  0  0
   -9.5368    3.4043   -0.0000 C   0  0  0  0  0  0  0  0  0  0  0  0
   -8.7183   -0.1305   -0.0000 C   0  0  0  0  0  0  0  0  0  0  0  0
   -6.2155    0.5219   -0.0000 C   0  0  0  0  0  0  0  0  0  0  0  0
   -9.5487    6.4053   -0.0000 C   0  0  0  0  0  0  0  0  0  0  0  0
  -10.8416    4.1635   -0.0000 C   0  0  0  0  0  0  0  0  0  0  0  0
   -8.3506   -1.5657   -0.0000 C   0  0  0  0  0  0  0  0  0  0  0  0
   -5.8478   -0.9015   -0.0000 C   0  0  0  0  0  0  0  0  0  0  0  0
  -10.8534    5.6699   -0.0000 C   0  0  0  0  0  0  0  0  0  0  0  0
   -6.9272   -1.9572   -0.0000 C   0  0  0  0  0  0  0  0  0  0  0  0
  -12.1582    6.4290   -0.0000 C   0  0  0  0  0  0  0  0  0  0  0  0
   -6.5595   -3.3924   -0.0000 F   0  0  0  0  0  0  0  0  0  0  0  0
  -13.4630    7.1882   -0.0000 F   0  0  0  0  0  0  0  0  0  0  0  0
  -12.1701    7.9355   -0.0000 C   0  0  0  0  0  0  0  0  0  0  0  0
  -13.4630    5.6936   -0.0000 C   0  0  0  0  0  0  0  0  0  0  0  0
  -10.8890    8.6946   -0.0000 F   0  0  0  0  0  0  0  0  0  0  0  0
  -13.4749    8.6946   -0.0000 F   0  0  0  0  0  0  0  0  0  0  0  0
  -12.1938    9.4419   -0.0000 F   0  0  0  0  0  0  0  0  0  0  0  0
  -14.7678    6.4528   -0.0000 F   0  0  0  0  0  0  0  0  0  0  0  0
  -13.4749    4.2109   -0.0000 F   0  0  0  0  0  0  0  0  0  0  0  0
  -14.7797    4.9700   -0.0000 F   0  0  0  0  0  0  0  0  0  0  0  0
  1  2  2  0  0  0  0
  1  3  2  0  0  0  0
  1  4  1  0  0  0  0
  1  5  1  0  0  0  0
  4  6  1  0  0  0  0
  5  7  1  0  0  0  0
  6  8  1  0  0  0  0
  8  9  1  0  0  0  0
  9 10  2  0  0  0  0
  9 11  1  0  0  0  0
 12 11  1  1  0  0  0
 11 13  1  0  0  0  0
 12 14  1  0  0  0  0
 12 15  1  0  0  0  0
 13 16  1  0  0  0  0
 14 17  1  6  0  0  0
 14 18  1  0  0  0  0
 15 19  1  0  0  0  0
 17 20  2  0  0  0  0
 17 21  2  0  0  0  0
 17 22  1  0  0  0  0
 18 23  2  0  0  0  0
 18 24  1  0  0  0  0
 22 25  2  0  0  0  0
 22 26  1  0  0  0  0
 23 27  1  0  0  0  0
 24 28  2  0  0  0  0
 25 29  1  0  0  0  0
 26 30  2  0  0  0  0
 27 31  2  0  0  0  0
 29 32  2  0  0  0  0
 31 33  1  0  0  0  0
 32 34  1  0  0  0  0
 33 35  1  0  0  0  0
 33 36  1  0  0  0  0
 33 37  1  0  0  0  0
 36 38  1  0  0  0  0
 36 39  1  0  0  0  0
 36 40  1  0  0  0  0
 37 41  1  0  0  0  0
 37 42  1  0  0  0  0
 37 43  1  0  0  0  0
  7  8  1  0  0  0  0
 14 16  1  0  0  0  0
 19 23  1  0  0  0  0
 28 31  1  0  0  0  0
 30 32  1  0  0  0  0
M  END
>  <MolRegNo>
2343001

>  <m>
=

>  <Value>
13000

>  <Unit>
nM

>  <Type>
IC50

>  <pValue>
4.89

>  <Ligand Efficiency>
0

>  <Binding Efficiency>
0

>  <Surface Efficiency>
0

>  <Assay Index>
1415347

>  <Assay Category>


>  <Assay Organism>
Homo sapiens

>  <Target ID>
17045

>  <Target Name>
Cytochrome P450 3A4

>  <Target Organism>
Homo sapiens

>  <Target Description>
Target is a single protein chain

>  <Sequence Accession>
P08684

>  <Reference>
ACS Med Chem Lett 12 (5.0), 827-835 (2021)

>  <Pubmed ID>
34055233

>  <DOI>
10.1021/acsmedchemlett.1c00112

$$$$
2511315
Actelion Java MolfileCreator 1.0

 45 49  0  0  0  0  0  0  0  0999 V2000
    0.0000   -0.0000   -0.0000 S   0  0  0  0  0  0  0  0  0  0  0  0
   -1.4573    0.4041   -0.0000 O   0  0  0  0  0  0  0  0  0  0  0  0
   -1.0777   -1.0410   -0.0000 O   0  0  0  0  0  0  0  0  0  0  0  0
   -0.0245   -1.4818   -0.0000 C   0  0  0  0  0  0  0  0  0  0  0  0
    1.1144    1.0287   -0.0000 C   0  0  0  0  0  0  0  0  0  0  0  0
   -1.3349   -2.2044   -0.0000 C   0  0  0  0  0  0  0  0  0  0  0  0
    1.2369   -2.2166   -0.0000 C   0  0  0  0  0  0  0  0  0  0  0  0
   -0.1959    1.7758   -0.0000 C   0  0  0  0  0  0  0  0  0  0  0  0
    2.4003    1.7880   -0.0000 C   0  0  0  0  0  0  0  0  0  0  0  0
    1.4206   -0.4409   -0.0000 C   0  0  0  0  0  0  0  0  0  0  0  0
   -1.3594   -3.6862   -0.0000 C   0  0  0  0  0  0  0  0  0  0  0  0
    1.2247   -3.6862   -0.0000 C   0  0  0  0  0  0  0  0  0  0  0  0
   -0.2204    3.2943   -0.0000 C   0  0  0  0  0  0  0  0  0  0  0  0
   -1.5063    1.0410   -0.0000 C   0  0  0  0  0  0  0  0  0  0  0  0
    3.5148    0.7838   -0.0000 N   0  0  0  0  0  0  0  0  0  0  0  0
    2.3881    3.3066   -0.0000 C   0  0  0  0  0  0  0  0  0  0  0  0
    2.9024   -0.5878   -0.0000 C   0  0  0  0  0  0  0  0  0  0  0  0
   -0.0857   -4.4333   -0.0000 C   0  0  0  0  0  0  0  0  0  0  0  0
   -1.5308    4.0414   -0.0000 C   0  0  0  0  0  0  0  0  0  0  0  0
    1.0655    4.0659   -0.0000 C   0  0  0  0  0  0  0  0  0  0  0  0
   -2.8045    1.8003   -0.0000 C   0  0  0  0  0  0  0  0  0  0  0  0
    4.9599    1.1022   -0.0000 C   0  0  0  0  0  0  0  0  0  0  0  0
   -0.1102   -5.9151   -0.0000 F   0  0  0  0  0  0  0  0  0  0  0  0
   -2.8290    3.3066   -0.0000 C   0  0  0  0  0  0  0  0  0  0  0  0
    5.4130    2.5350   -0.0000 O   0  0  0  0  0  0  0  0  0  0  0  0
    5.9396   -0.0000   -0.0000 C   0  0  0  0  0  0  0  0  0  0  0  0
   -4.1394    4.0781   -0.0000 C   0  0  0  0  0  0  0  0  0  0  0  0
    7.4214    0.1715   -0.0000 N   0  0  0  0  0  0  0  0  0  0  0  0
    5.6212   -1.4451   -0.0000 C   0  0  0  0  0  0  0  0  0  0  0  0
   -5.2783    4.9354   -0.0000 F   0  0  0  0  0  0  0  0  0  0  0  0
   -4.0536    5.6089   -0.0000 C   0  0  0  0  0  0  0  0  0  0  0  0
   -5.0334    2.8290   -0.0000 C   0  0  0  0  0  0  0  0  0  0  0  0
    8.0093   -1.1757   -0.0000 C   0  0  0  0  0  0  0  0  0  0  0  0
    8.1562    1.4696   -0.0000 C   0  0  0  0  0  0  0  0  0  0  0  0
    6.8948   -2.1799   -0.0000 C   0  0  0  0  0  0  0  0  0  0  0  0
   -2.6208    6.2090   -0.0000 F   0  0  0  0  0  0  0  0  0  0  0  0
   -5.6212    5.8784   -0.0000 F   0  0  0  0  0  0  0  0  0  0  0  0
   -3.7964    7.0418   -0.0000 F   0  0  0  0  0  0  0  0  0  0  0  0
   -6.6009    3.0861   -0.0000 F   0  0  0  0  0  0  0  0  0  0  0  0
   -3.8332    1.8125   -0.0000 F   0  0  0  0  0  0  0  0  0  0  0  0
   -6.0253    1.7513   -0.0000 F   0  0  0  0  0  0  0  0  0  0  0  0
    9.4544   -1.4696   -0.0000 O   0  0  0  0  0  0  0  0  0  0  0  0
    9.6381    1.4818   -0.0000 C   0  0  0  0  0  0  0  0  0  0  0  0
   10.3729    2.7800   -0.0000 C   0  0  0  0  0  0  0  0  0  0  0  0
   11.0954    4.0904   -0.0000 N   0  0  0  0  0  0  0  0  0  0  0  0
  1  2  2  0  0  0  0
  1  3  2  0  0  0  0
  1  4  1  0  0  0  0
  5  1  1  6  0  0  0
  4  6  2  0  0  0  0
  4  7  1  0  0  0  0
  5  8  1  0  0  0  0
  5  9  1  0  0  0  0
  5 10  1  0  0  0  0
  6 11  1  0  0  0  0
  7 12  2  0  0  0  0
  8 13  2  0  0  0  0
  8 14  1  0  0  0  0
  9 15  1  1  0  0  0
  9 16  1  0  0  0  0
 10 17  1  0  0  0  0
 11 18  2  0  0  0  0
 13 19  1  0  0  0  0
 13 20  1  0  0  0  0
 14 21  2  0  0  0  0
 15 22  1  0  0  0  0
 18 23  1  0  0  0  0
 19 24  2  0  0  0  0
 22 25  2  0  0  0  0
 26 22  1  1  0  0  0
 24 27  1  0  0  0  0
 26 28  1  0  0  0  0
 26 29  1  0  0  0  0
 27 30  1  0  0  0  0
 27 31  1  0  0  0  0
 27 32  1  0  0  0  0
 28 33  1  0  0  0  0
 28 34  1  0  0  0  0
 29 35  1  0  0  0  0
 31 36  1  0  0  0  0
 31 37  1  0  0  0  0
 31 38  1  0  0  0  0
 32 39  1  0  0  0  0
 32 40  1  0  0  0  0
 32 41  1  0  0  0  0
 33 42  2  0  0  0  0
 34 43  1  0  0  0  0
 43 44  1  0  0  0  0
 44 45  3  0  0  0  0
 12 18  1  0  0  0  0
 15 17  1  0  0  0  0
 16 20  1  0  0  0  0
 21 24  1  0  0  0  0
 33 35  1  0  0  0  0
M  END
>  <MolRegNo>
2511315

>  <m>
=

>  <Value>
10000

>  <Unit>
nM

>  <Type>
IC50

>  <pValue>
5

>  <Ligand Efficiency>
0

>  <Binding Efficiency>
0

>  <Surface Efficiency>
0

>  <Assay Index>
1415347

>  <Assay Category>


>  <Assay Organism>
Homo sapiens

>  <Target ID>
17045

>  <Target Name>
Cytochrome P450 3A4

>  <Target Organism>
Homo sapiens

>  <Target Description>
Target is a single protein chain

>  <Sequence Accession>
P08684

>  <Reference>
ACS Med Chem Lett 12 (5.0), 827-835 (2021)

>  <Pubmed ID>
34055233

>  <DOI>
10.1021/acsmedchemlett.1c00112

$$$$
2536971
Actelion Java MolfileCreator 1.0

 41 44  0  0  0  0  0  0  0  0999 V2000
    0.0000   -0.0000   -0.0000 S   0  0  0  0  0  0  0  0  0  0  0  0
   -1.4567    0.4040   -0.0000 O   0  0  0  0  0  0  0  0  0  0  0  0
   -1.0772   -1.0405   -0.0000 O   0  0  0  0  0  0  0  0  0  0  0  0
   -0.0245   -1.4812   -0.0000 C   0  0  0  0  0  0  0  0  0  0  0  0
    1.1140    1.0283   -0.0000 C   0  0  0  0  0  0  0  0  0  0  0  0
   -1.3343   -2.2034   -0.0000 C   0  0  0  0  0  0  0  0  0  0  0  0
    1.2364   -2.2157   -0.0000 C   0  0  0  0  0  0  0  0  0  0  0  0
   -0.1959    1.7750   -0.0000 C   0  0  0  0  0  0  0  0  0  0  0  0
    2.3993    1.7872   -0.0000 C   0  0  0  0  0  0  0  0  0  0  0  0
    1.4200   -0.4407   -0.0000 C   0  0  0  0  0  0  0  0  0  0  0  0
   -1.3588   -3.6846   -0.0000 C   0  0  0  0  0  0  0  0  0  0  0  0
    1.2241   -3.6846   -0.0000 C   0  0  0  0  0  0  0  0  0  0  0  0
   -0.2203    3.2929   -0.0000 C   0  0  0  0  0  0  0  0  0  0  0  0
   -1.5057    1.0405   -0.0000 C   0  0  0  0  0  0  0  0  0  0  0  0
    3.5132    0.7834   -0.0000 C   0  0  0  0  0  0  0  0  0  0  0  0
    2.3870    3.3051   -0.0000 C   0  0  0  0  0  0  0  0  0  0  0  0
    2.9012   -0.5876   -0.0000 C   0  0  0  0  0  0  0  0  0  0  0  0
   -0.0857   -4.4313   -0.0000 C   0  0  0  0  0  0  0  0  0  0  0  0
   -1.5302    4.0396   -0.0000 N   0  0  0  0  0  0  0  0  0  0  0  0
    1.0650    4.0641   -0.0000 C   0  0  0  0  0  0  0  0  0  0  0  0
   -2.8032    1.7995   -0.0000 C   0  0  0  0  0  0  0  0  0  0  0  0
    4.9577    1.1017   -0.0000 N   0  0  0  0  0  0  0  0  0  0  0  0
   -0.1102   -5.9125   -0.0000 F   0  0  0  0  0  0  0  0  0  0  0  0
   -2.8277    3.3051   -0.0000 C   0  0  0  0  0  0  0  0  0  0  0  0
    5.9370   -0.0000   -0.0000 C   0  0  0  0  0  0  0  0  0  0  0  0
   -4.1375    4.0763   -0.0000 C   0  0  0  0  0  0  0  0  0  0  0  0
    5.4596   -1.4077   -0.0000 O   0  0  0  0  0  0  0  0  0  0  0  0
    7.3815    0.3183   -0.0000 C   0  0  0  0  0  0  0  0  0  0  0  0
   -5.2760    4.9332   -0.0000 F   0  0  0  0  0  0  0  0  0  0  0  0
   -4.0518    5.6065   -0.0000 C   0  0  0  0  0  0  0  0  0  0  0  0
   -5.0311    2.8277   -0.0000 C   0  0  0  0  0  0  0  0  0  0  0  0
    8.3608   -0.7834   -0.0000 C   0  0  0  0  0  0  0  0  0  0  0  0
   -2.6196    6.2063   -0.0000 F   0  0  0  0  0  0  0  0  0  0  0  0
   -5.6187    5.8758   -0.0000 F   0  0  0  0  0  0  0  0  0  0  0  0
   -3.7948    7.0387   -0.0000 F   0  0  0  0  0  0  0  0  0  0  0  0
   -6.5980    3.0848   -0.0000 F   0  0  0  0  0  0  0  0  0  0  0  0
   -3.8315    1.8117   -0.0000 F   0  0  0  0  0  0  0  0  0  0  0  0
   -6.0227    1.7505   -0.0000 F   0  0  0  0  0  0  0  0  0  0  0  0
    9.8052   -0.4652   -0.0000 O   0  0  0  0  0  0  0  0  0  0  0  0
    7.2468   -1.7627   -0.0000 C   0  0  0  0  0  0  0  0  0  0  0  0
    8.6546   -2.2279   -0.0000 C   0  0  0  0  0  0  0  0  0  0  0  0
  1  2  2  0  0  0  0
  1  3  2  0  0  0  0
  1  4  1  0  0  0  0
  5  1  1  6  0  0  0
  4  6  2  0  0  0  0
  4  7  1  0  0  0  0
  5  8  1  0  0  0  0
  5  9  1  0  0  0  0
  5 10  1  0  0  0  0
  6 11  1  0  0  0  0
  7 12  2  0  0  0  0
  8 13  2  0  0  0  0
  8 14  1  0  0  0  0
  9 15  1  0  0  0  0
  9 16  1  1  0  0  0
 10 17  1  0  0  0  0
 11 18  2  0  0  0  0
 13 19  1  0  0  0  0
 13 20  1  0  0  0  0
 14 21  2  0  0  0  0
 15 22  1  6  0  0  0
 18 23  1  0  0  0  0
 19 24  2  0  0  0  0
 22 25  1  0  0  0  0
 24 26  1  0  0  0  0
 25 27  2  0  0  0  0
 25 28  1  0  0  0  0
 26 29  1  0  0  0  0
 26 30  1  0  0  0  0
 26 31  1  0  0  0  0
 28 32  1  0  0  0  0
 30 33  1  0  0  0  0
 30 34  1  0  0  0  0
 30 35  1  0  0  0  0
 31 36  1  0  0  0  0
 31 37  1  0  0  0  0
 31 38  1  0  0  0  0
 32 39  1  0  0  0  0
 32 40  1  0  0  0  0
 32 41  1  0  0  0  0
 12 18  1  0  0  0  0
 15 17  1  0  0  0  0
 16 20  1  0  0  0  0
 21 24  1  0  0  0  0
M  END
>  <MolRegNo>
2536971

>  <m>
=

>  <Value>
9100

>  <Unit>
nM

>  <Type>
IC50

>  <pValue>
5.04

>  <Ligand Efficiency>
0

>  <Binding Efficiency>
0

>  <Surface Efficiency>
0

>  <Assay Index>
1415347

>  <Assay Category>


>  <Assay Organism>
Homo sapiens

>  <Target ID>
17045

>  <Target Name>
Cytochrome P450 3A4

>  <Target Organism>
Homo sapiens

>  <Target Description>
Target is a single protein chain

>  <Sequence Accession>
P08684

>  <Reference>
ACS Med Chem Lett 12 (5.0), 827-835 (2021)

>  <Pubmed ID>
34055233

>  <DOI>
10.1021/acsmedchemlett.1c00112

$$$$
2521491
Actelion Java MolfileCreator 1.0

 41 44  0  0  0  0  0  0  0  0999 V2000
    0.0000   -0.0000   -0.0000 S   0  0  0  0  0  0  0  0  0  0  0  0
   -1.4567    0.4040   -0.0000 O   0  0  0  0  0  0  0  0  0  0  0  0
   -1.0772   -1.0405   -0.0000 O   0  0  0  0  0  0  0  0  0  0  0  0
   -0.0245   -1.4812   -0.0000 C   0  0  0  0  0  0  0  0  0  0  0  0
    1.1140    1.0283   -0.0000 C   0  0  0  0  0  0  0  0  0  0  0  0
   -1.3343   -2.2035   -0.0000 C   0  0  0  0  0  0  0  0  0  0  0  0
    1.2364   -2.2157   -0.0000 C   0  0  0  0  0  0  0  0  0  0  0  0
   -0.1959    1.7750   -0.0000 C   0  0  0  0  0  0  0  0  0  0  0  0
    2.3993    1.7872   -0.0000 C   0  0  0  0  0  0  0  0  0  0  0  0
    1.4200   -0.4407   -0.0000 C   0  0  0  0  0  0  0  0  0  0  0  0
   -1.3588   -3.6847   -0.0000 C   0  0  0  0  0  0  0  0  0  0  0  0
    1.2241   -3.6847   -0.0000 C   0  0  0  0  0  0  0  0  0  0  0  0
   -0.2203    3.2929   -0.0000 C   0  0  0  0  0  0  0  0  0  0  0  0
   -1.5057    1.0405   -0.0000 C   0  0  0  0  0  0  0  0  0  0  0  0
    3.5133    0.7835   -0.0000 C   0  0  0  0  0  0  0  0  0  0  0  0
    2.3871    3.3052   -0.0000 C   0  0  0  0  0  0  0  0  0  0  0  0
    2.9012   -0.5876   -0.0000 C   0  0  0  0  0  0  0  0  0  0  0  0
   -0.0857   -4.4314   -0.0000 C   0  0  0  0  0  0  0  0  0  0  0  0
   -1.5302    4.0397   -0.0000 C   0  0  0  0  0  0  0  0  0  0  0  0
    1.0650    4.0641   -0.0000 C   0  0  0  0  0  0  0  0  0  0  0  0
   -2.8033    1.7995   -0.0000 C   0  0  0  0  0  0  0  0  0  0  0  0
    4.9578    1.1017   -0.0000 N   0  0  0  0  0  0  0  0  0  0  0  0
   -0.1102   -5.9126   -0.0000 F   0  0  0  0  0  0  0  0  0  0  0  0
   -2.8278    3.3052   -0.0000 C   0  0  0  0  0  0  0  0  0  0  0  0
    5.9371    0.0122   -0.0000 C   0  0  0  0  0  0  0  0  0  0  0  0
   -4.1376    4.0764   -0.0000 C   0  0  0  0  0  0  0  0  0  0  0  0
    5.4597   -1.3955   -0.0000 O   0  0  0  0  0  0  0  0  0  0  0  0
    7.3816    0.3305   -0.0000 C   0  0  0  0  0  0  0  0  0  0  0  0
   -5.2760    4.9333   -0.0000 F   0  0  0  0  0  0  0  0  0  0  0  0
   -4.0519    5.6066   -0.0000 C   0  0  0  0  0  0  0  0  0  0  0  0
   -5.0312    2.8278   -0.0000 C   0  0  0  0  0  0  0  0  0  0  0  0
    8.3731   -0.7712   -0.0000 C   0  0  0  0  0  0  0  0  0  0  0  0
   -2.6197    6.2064   -0.0000 F   0  0  0  0  0  0  0  0  0  0  0  0
   -5.6188    5.8759   -0.0000 F   0  0  0  0  0  0  0  0  0  0  0  0
   -3.7948    7.0388   -0.0000 F   0  0  0  0  0  0  0  0  0  0  0  0
   -6.5981    3.0848   -0.0000 F   0  0  0  0  0  0  0  0  0  0  0  0
   -3.8316    1.8117   -0.0000 F   0  0  0  0  0  0  0  0  0  0  0  0
   -6.0228    1.7505   -0.0000 F   0  0  0  0  0  0  0  0  0  0  0  0
    9.8176   -0.4529   -0.0000 O   0  0  0  0  0  0  0  0  0  0  0  0
    7.2592   -1.7505   -0.0000 C   0  0  0  0  0  0  0  0  0  0  0  0
    8.6669   -2.2157   -0.0000 C   0  0  0  0  0  0  0  0  0  0  0  0
  1  2  2  0  0  0  0
  1  3  2  0  0  0  0
  1  4  1  0  0  0  0
  5  1  1  6  0  0  0
  4  6  2  0  0  0  0
  4  7  1  0  0  0  0
  5  8  1  0  0  0  0
  5  9  1  0  0  0  0
  5 10  1  0  0  0  0
  6 11  1  0  0  0  0
  7 12  2  0  0  0  0
  8 13  2  0  0  0  0
  8 14  1  0  0  0  0
  9 15  1  0  0  0  0
  9 16  1  1  0  0  0
 10 17  1  0  0  0  0
 11 18  2  0  0  0  0
 13 19  1  0  0  0  0
 13 20  1  0  0  0  0
 14 21  2  0  0  0  0
 15 22  1  6  0  0  0
 18 23  1  0  0  0  0
 19 24  2  0  0  0  0
 22 25  1  0  0  0  0
 24 26  1  0  0  0  0
 25 27  2  0  0  0  0
 25 28  1  0  0  0  0
 26 29  1  0  0  0  0
 26 30  1  0  0  0  0
 26 31  1  0  0  0  0
 28 32  1  0  0  0  0
 30 33  1  0  0  0  0
 30 34  1  0  0  0  0
 30 35  1  0  0  0  0
 31 36  1  0  0  0  0
 31 37  1  0  0  0  0
 31 38  1  0  0  0  0
 32 39  1  0  0  0  0
 32 40  1  0  0  0  0
 32 41  1  0  0  0  0
 12 18  1  0  0  0  0
 15 17  1  0  0  0  0
 16 20  1  0  0  0  0
 21 24  1  0  0  0  0
M  END
>  <MolRegNo>
2521491

>  <m>
=

>  <Value>
11000

>  <Unit>
nM

>  <Type>
IC50

>  <pValue>
4.96

>  <Ligand Efficiency>
0

>  <Binding Efficiency>
0

>  <Surface Efficiency>
0

>  <Assay Index>
1415347

>  <Assay Category>


>  <Assay Organism>
Homo sapiens

>  <Target ID>
17045

>  <Target Name>
Cytochrome P450 3A4

>  <Target Organism>
Homo sapiens

>  <Target Description>
Target is a single protein chain

>  <Sequence Accession>
P08684

>  <Reference>
ACS Med Chem Lett 12 (5.0), 827-835 (2021)

>  <Pubmed ID>
34055233

>  <DOI>
10.1021/acsmedchemlett.1c00112

$$$$
2532694
Actelion Java MolfileCreator 1.0

 44 48  0  0  0  0  0  0  0  0999 V2000
    0.0000   -0.0000   -0.0000 S   0  0  0  0  0  0  0  0  0  0  0  0
    1.4039   -0.4517   -0.0000 O   0  0  0  0  0  0  0  0  0  0  0  0
    1.0987    1.0011   -0.0000 O   0  0  0  0  0  0  0  0  0  0  0  0
   -1.0011    1.1231   -0.0000 C   0  0  0  0  0  0  0  0  0  0  0  0
   -0.4761   -1.4039   -0.0000 C   0  0  0  0  0  0  0  0  0  0  0  0
   -2.4782    0.8302   -0.0000 C   0  0  0  0  0  0  0  0  0  0  0  0
   -1.9411   -1.6969   -0.0000 C   0  0  0  0  0  0  0  0  0  0  0  0
   -2.9422   -0.5616   -0.0000 C   0  0  0  0  0  0  0  0  0  0  0  0
   -4.4071   -0.8546   -0.0000 C   0  0  0  0  0  0  0  0  0  0  0  0
   -4.8832   -2.2585   -0.0000 O   0  0  0  0  0  0  0  0  0  0  0  0
   -5.4082    0.2564   -0.0000 N   0  0  0  0  0  0  0  0  0  0  0  0
   -6.8732   -0.0366   -0.0000 C   0  0  0  0  0  0  0  0  0  0  0  0
   -8.0085    0.9889   -0.0000 C   0  0  0  0  0  0  0  0  0  0  0  0
   -7.4958   -1.3917   -0.0000 C   0  0  0  0  0  0  0  0  0  0  0  0
   -9.3148    0.2564   -0.0000 C   0  0  0  0  0  0  0  0  0  0  0  0
   -8.0207    2.5027   -0.0000 C   0  0  0  0  0  0  0  0  0  0  0  0
   -8.9974   -1.2208   -0.0000 C   0  0  0  0  0  0  0  0  0  0  0  0
  -10.4502   -0.7447   -0.0000 S   0  0  0  0  0  0  0  0  0  0  0  0
  -10.6211    1.0011   -0.0000 C   0  0  0  0  0  0  0  0  0  0  0  0
   -9.3392    3.2596   -0.0000 C   0  0  0  0  0  0  0  0  0  0  0  0
  -11.9029   -0.3418   -0.0000 O   0  0  0  0  0  0  0  0  0  0  0  0
  -11.5245   -1.7824   -0.0000 O   0  0  0  0  0  0  0  0  0  0  0  0
  -10.4746   -2.2219   -0.0000 C   0  0  0  0  0  0  0  0  0  0  0  0
  -10.6455    2.5149   -0.0000 C   0  0  0  0  0  0  0  0  0  0  0  0
  -11.9273    0.2686   -0.0000 C   0  0  0  0  0  0  0  0  0  0  0  0
  -11.7808   -2.9422   -0.0000 C   0  0  0  0  0  0  0  0  0  0  0  0
   -9.2171   -2.9544   -0.0000 C   0  0  0  0  0  0  0  0  0  0  0  0
  -11.9518    3.2596   -0.0000 C   0  0  0  0  0  0  0  0  0  0  0  0
  -13.2214    1.0255   -0.0000 C   0  0  0  0  0  0  0  0  0  0  0  0
  -11.8053   -4.4193   -0.0000 C   0  0  0  0  0  0  0  0  0  0  0  0
   -9.2293   -4.4193   -0.0000 C   0  0  0  0  0  0  0  0  0  0  0  0
  -13.2458    2.5271   -0.0000 C   0  0  0  0  0  0  0  0  0  0  0  0
  -10.5356   -5.1640   -0.0000 C   0  0  0  0  0  0  0  0  0  0  0  0
  -14.5521    3.2962   -0.0000 C   0  0  0  0  0  0  0  0  0  0  0  0
  -10.5600   -6.6412   -0.0000 F   0  0  0  0  0  0  0  0  0  0  0  0
  -15.6874    4.1508   -0.0000 F   0  0  0  0  0  0  0  0  0  0  0  0
  -14.4666    4.8222   -0.0000 C   0  0  0  0  0  0  0  0  0  0  0  0
  -15.4433    2.0510   -0.0000 C   0  0  0  0  0  0  0  0  0  0  0  0
  -13.0383    5.4204   -0.0000 F   0  0  0  0  0  0  0  0  0  0  0  0
  -16.0293    5.0908   -0.0000 F   0  0  0  0  0  0  0  0  0  0  0  0
  -14.2103    6.2506   -0.0000 F   0  0  0  0  0  0  0  0  0  0  0  0
  -17.0059    2.3073   -0.0000 F   0  0  0  0  0  0  0  0  0  0  0  0
  -14.2469    1.0377   -0.0000 F   0  0  0  0  0  0  0  0  0  0  0  0
  -16.4199    0.9766   -0.0000 F   0  0  0  0  0  0  0  0  0  0  0  0
  1  2  2  0  0  0  0
  1  3  2  0  0  0  0
  1  4  1  0  0  0  0
  1  5  1  0  0  0  0
  4  6  1  0  0  0  0
  5  7  1  0  0  0  0
  6  8  1  0  0  0  0
  8  9  1  0  0  0  0
  9 10  2  0  0  0  0
  9 11  1  0  0  0  0
 12 11  1  6  0  0  0
 12 13  1  0  0  0  0
 12 14  1  0  0  0  0
 13 15  1  0  0  0  0
 13 16  1  1  0  0  0
 14 17  1  0  0  0  0
 15 18  1  6  0  0  0
 15 19  1  0  0  0  0
 16 20  1  0  0  0  0
 18 21  2  0  0  0  0
 18 22  2  0  0  0  0
 18 23  1  0  0  0  0
 19 24  2  0  0  0  0
 19 25  1  0  0  0  0
 23 26  2  0  0  0  0
 23 27  1  0  0  0  0
 24 28  1  0  0  0  0
 25 29  2  0  0  0  0
 26 30  1  0  0  0  0
 27 31  2  0  0  0  0
 28 32  2  0  0  0  0
 30 33  2  0  0  0  0
 32 34  1  0  0  0  0
 33 35  1  0  0  0  0
 34 36  1  0  0  0  0
 34 37  1  0  0  0  0
 34 38  1  0  0  0  0
 37 39  1  0  0  0  0
 37 40  1  0  0  0  0
 37 41  1  0  0  0  0
 38 42  1  0  0  0  0
 38 43  1  0  0  0  0
 38 44  1  0  0  0  0
  7  8  1  0  0  0  0
 15 17  1  0  0  0  0
 20 24  1  0  0  0  0
 29 32  1  0  0  0  0
 31 33  1  0  0  0  0
M  END
>  <MolRegNo>
2532694

>  <m>
=

>  <Value>
5800

>  <Unit>
nM

>  <Type>
IC50

>  <pValue>
5.24

>  <Ligand Efficiency>
0

>  <Binding Efficiency>
0

>  <Surface Efficiency>
0

>  <Assay Index>
1415347

>  <Assay Category>


>  <Assay Organism>
Homo sapiens

>  <Target ID>
17045

>  <Target Name>
Cytochrome P450 3A4

>  <Target Organism>
Homo sapiens

>  <Target Description>
Target is a single protein chain

>  <Sequence Accession>
P08684

>  <Reference>
ACS Med Chem Lett 12 (5.0), 827-835 (2021)

>  <Pubmed ID>
34055233

>  <DOI>
10.1021/acsmedchemlett.1c00112

$$$$
2534732
Actelion Java MolfileCreator 1.0

 41 45  0  0  0  0  0  0  0  0999 V2000
    0.0000   -0.0000   -0.0000 S   0  0  0  0  0  0  0  0  0  0  0  0
   -1.0855    1.0855   -0.0000 O   0  0  0  0  0  0  0  0  0  0  0  0
    0.3817    1.4792   -0.0000 O   0  0  0  0  0  0  0  0  0  0  0  0
    1.2883   -0.7396   -0.0000 C   0  0  0  0  0  0  0  0  0  0  0  0
   -1.3122   -0.7396   -0.0000 C   0  0  0  0  0  0  0  0  0  0  0  0
    2.5766    0.0239   -0.0000 C   0  0  0  0  0  0  0  0  0  0  0  0
    1.2764   -2.2426   -0.0000 C   0  0  0  0  0  0  0  0  0  0  0  0
   -2.6244    0.0239   -0.0000 C   0  0  0  0  0  0  0  0  0  0  0  0
   -1.3241   -2.2307   -0.0000 C   0  0  0  0  0  0  0  0  0  0  0  0
    2.5647    1.5388   -0.0000 N   0  0  0  0  0  0  0  0  0  0  0  0
    3.8650   -0.7157   -0.0000 C   0  0  0  0  0  0  0  0  0  0  0  0
    2.5647   -2.9822   -0.0000 C   0  0  0  0  0  0  0  0  0  0  0  0
    3.8530    2.3023   -0.0000 C   0  0  0  0  0  0  0  0  0  0  0  0
    3.8530   -2.2188   -0.0000 C   0  0  0  0  0  0  0  0  0  0  0  0
    5.1413    1.5627   -0.0000 N   0  0  0  0  0  0  0  0  0  0  0  0
    3.8292    3.8172   -0.0000 C   0  0  0  0  0  0  0  0  0  0  0  0
    6.4297    2.3261   -0.0000 C   0  0  0  0  0  0  0  0  0  0  0  0
    5.1175    4.5807   -0.0000 C   0  0  0  0  0  0  0  0  0  0  0  0
    2.6959    4.8312   -0.0000 C   0  0  0  0  0  0  0  0  0  0  0  0
    6.4177    3.8411   -0.0000 N   0  0  0  0  0  0  0  0  0  0  0  0
    7.7180    1.5865   -0.0000 N   0  0  0  0  0  0  0  0  0  0  0  0
    4.7835    6.0599   -0.0000 N   0  0  0  0  0  0  0  0  0  0  0  0
    3.2924    6.2149   -0.0000 N   0  0  0  0  0  0  0  0  0  0  0  0
    7.7061    0.0954   -0.0000 C   0  0  0  0  0  0  0  0  0  0  0  0
    8.9944   -0.6322   -0.0000 C   0  0  0  0  0  0  0  0  0  0  0  0
    6.3939   -0.6442   -0.0000 C   0  0  0  0  0  0  0  0  0  0  0  0
   10.2827    0.1431   -0.0000 O   0  0  0  0  0  0  0  0  0  0  0  0
    8.9944   -2.1233   -0.0000 C   0  0  0  0  0  0  0  0  0  0  0  0
    6.3819   -2.1353   -0.0000 C   0  0  0  0  0  0  0  0  0  0  0  0
   11.5829   -0.5845   -0.0000 C   0  0  0  0  0  0  0  0  0  0  0  0
    7.6822   -2.8749   -0.0000 C   0  0  0  0  0  0  0  0  0  0  0  0
    5.0698   -2.8749   -0.0000 C   0  0  0  0  0  0  0  0  0  0  0  0
   12.8713    0.1909   -0.0000 C   0  0  0  0  0  0  0  0  0  0  0  0
   11.5829   -2.0756   -0.0000 C   0  0  0  0  0  0  0  0  0  0  0  0
    7.6822   -4.3660   -0.0000 C   0  0  0  0  0  0  0  0  0  0  0  0
    6.3700   -5.1056   -0.0000 C   0  0  0  0  0  0  0  0  0  0  0  0
    8.9705   -5.0936   -0.0000 C   0  0  0  0  0  0  0  0  0  0  0  0
    6.3581   -6.5967   -0.0000 C   0  0  0  0  0  0  0  0  0  0  0  0
    8.9586   -6.5967   -0.0000 C   0  0  0  0  0  0  0  0  0  0  0  0
    7.6464   -7.3363   -0.0000 N   0  0  0  0  0  0  0  0  0  0  0  0
    7.6345   -8.8274   -0.0000 C   0  0  0  0  0  0  0  0  0  0  0  0
  1  2  2  0  0  0  0
  1  3  2  0  0  0  0
  1  4  1  0  0  0  0
  1  5  1  0  0  0  0
  4  6  2  0  0  0  0
  4  7  1  0  0  0  0
  5  8  1  0  0  0  0
  5  9  1  0  0  0  0
  6 10  1  0  0  0  0
  6 11  1  0  0  0  0
  7 12  2  0  0  0  0
 10 13  1  0  0  0  0
 11 14  2  0  0  0  0
 13 15  2  0  0  0  0
 13 16  1  0  0  0  0
 15 17  1  0  0  0  0
 16 18  2  0  0  0  0
 16 19  1  0  0  0  0
 17 20  2  0  0  0  0
 17 21  1  0  0  0  0
 18 22  1  0  0  0  0
 19 23  2  0  0  0  0
 21 24  1  0  0  0  0
 24 25  2  0  0  0  0
 24 26  1  0  0  0  0
 25 27  1  0  0  0  0
 25 28  1  0  0  0  0
 26 29  2  0  0  0  0
 27 30  1  0  0  0  0
 28 31  2  0  0  0  0
 29 32  1  0  0  0  0
 30 33  1  0  0  0  0
 30 34  1  0  0  0  0
 31 35  1  0  0  0  0
 35 36  1  0  0  0  0
 35 37  1  0  0  0  0
 36 38  1  0  0  0  0
 37 39  1  0  0  0  0
 38 40  1  0  0  0  0
 40 41  1  0  0  0  0
 12 14  1  0  0  0  0
 18 20  1  0  0  0  0
 22 23  1  0  0  0  0
 29 31  1  0  0  0  0
 39 40  1  0  0  0  0
M  END
>  <MolRegNo>
2534732

>  <m>
=

>  <Value>
3300

>  <Unit>
nM

>  <Type>
IC50

>  <pValue>
5.48

>  <Ligand Efficiency>
0

>  <Binding Efficiency>
0

>  <Surface Efficiency>
0

>  <Assay Index>
1416822

>  <Assay Category>


>  <Assay Organism>
Homo sapiens

>  <Target ID>
17045

>  <Target Name>
Cytochrome P450 3A4

>  <Target Organism>
Homo sapiens

>  <Target Description>
Target is a single protein chain

>  <Sequence Accession>
P08684

>  <Reference>
Bioorg Med Chem Lett 26 (3.0), 1090-1096 (2016)

>  <Pubmed ID>
26750252

>  <DOI>
10.1016/j.bmcl.2015.11.049

$$$$
2509593
Actelion Java MolfileCreator 1.0

 41 45  0  0  0  0  0  0  0  0999 V2000
    0.0000   -0.0000   -0.0000 S   0  0  0  0  0  0  0  0  0  0  0  0
   -1.0855    1.0855   -0.0000 O   0  0  0  0  0  0  0  0  0  0  0  0
    0.3817    1.4792   -0.0000 O   0  0  0  0  0  0  0  0  0  0  0  0
    1.2883   -0.7396   -0.0000 C   0  0  0  0  0  0  0  0  0  0  0  0
   -1.3122   -0.7396   -0.0000 C   0  0  0  0  0  0  0  0  0  0  0  0
    2.5766    0.0239   -0.0000 C   0  0  0  0  0  0  0  0  0  0  0  0
    1.2764   -2.2426   -0.0000 C   0  0  0  0  0  0  0  0  0  0  0  0
   -2.6244    0.0239   -0.0000 C   0  0  0  0  0  0  0  0  0  0  0  0
   -1.3241   -2.2307   -0.0000 C   0  0  0  0  0  0  0  0  0  0  0  0
    2.5647    1.5388   -0.0000 N   0  0  0  0  0  0  0  0  0  0  0  0
    3.8650   -0.7157   -0.0000 C   0  0  0  0  0  0  0  0  0  0  0  0
    2.5647   -2.9822   -0.0000 C   0  0  0  0  0  0  0  0  0  0  0  0
    3.8530    2.3023   -0.0000 C   0  0  0  0  0  0  0  0  0  0  0  0
    3.8530   -2.2188   -0.0000 C   0  0  0  0  0  0  0  0  0  0  0  0
    5.1413    1.5627   -0.0000 N   0  0  0  0  0  0  0  0  0  0  0  0
    3.8292    3.8172   -0.0000 C   0  0  0  0  0  0  0  0  0  0  0  0
    6.4297    2.3261   -0.0000 C   0  0  0  0  0  0  0  0  0  0  0  0
    5.1175    4.5807   -0.0000 C   0  0  0  0  0  0  0  0  0  0  0  0
    2.6959    4.8312   -0.0000 C   0  0  0  0  0  0  0  0  0  0  0  0
    6.4177    3.8411   -0.0000 N   0  0  0  0  0  0  0  0  0  0  0  0
    7.7180    1.5865   -0.0000 N   0  0  0  0  0  0  0  0  0  0  0  0
    4.7835    6.0599   -0.0000 N   0  0  0  0  0  0  0  0  0  0  0  0
    3.2924    6.2149   -0.0000 C   0  0  0  0  0  0  0  0  0  0  0  0
    7.7061    0.0954   -0.0000 C   0  0  0  0  0  0  0  0  0  0  0  0
    8.9944   -0.6322   -0.0000 C   0  0  0  0  0  0  0  0  0  0  0  0
    6.3939   -0.6442   -0.0000 C   0  0  0  0  0  0  0  0  0  0  0  0
   10.2827    0.1431   -0.0000 O   0  0  0  0  0  0  0  0  0  0  0  0
    8.9944   -2.1233   -0.0000 C   0  0  0  0  0  0  0  0  0  0  0  0
    6.3819   -2.1353   -0.0000 C   0  0  0  0  0  0  0  0  0  0  0  0
   11.5829   -0.5845   -0.0000 C   0  0  0  0  0  0  0  0  0  0  0  0
    7.6822   -2.8749   -0.0000 C   0  0  0  0  0  0  0  0  0  0  0  0
    5.0698   -2.8749   -0.0000 C   0  0  0  0  0  0  0  0  0  0  0  0
   12.8713    0.1909   -0.0000 C   0  0  0  0  0  0  0  0  0  0  0  0
   11.5829   -2.0756   -0.0000 C   0  0  0  0  0  0  0  0  0  0  0  0
    7.6822   -4.3660   -0.0000 C   0  0  0  0  0  0  0  0  0  0  0  0
    6.3700   -5.1056   -0.0000 C   0  0  0  0  0  0  0  0  0  0  0  0
    8.9705   -5.0936   -0.0000 C   0  0  0  0  0  0  0  0  0  0  0  0
    6.3581   -6.5967   -0.0000 C   0  0  0  0  0  0  0  0  0  0  0  0
    8.9586   -6.5967   -0.0000 C   0  0  0  0  0  0  0  0  0  0  0  0
    7.6464   -7.3363   -0.0000 N   0  0  0  0  0  0  0  0  0  0  0  0
    7.6345   -8.8274   -0.0000 C   0  0  0  0  0  0  0  0  0  0  0  0
  1  2  2  0  0  0  0
  1  3  2  0  0  0  0
  1  4  1  0  0  0  0
  1  5  1  0  0  0  0
  4  6  2  0  0  0  0
  4  7  1  0  0  0  0
  5  8  1  0  0  0  0
  5  9  1  0  0  0  0
  6 10  1  0  0  0  0
  6 11  1  0  0  0  0
  7 12  2  0  0  0  0
 10 13  1  0  0  0  0
 11 14  2  0  0  0  0
 13 15  2  0  0  0  0
 13 16  1  0  0  0  0
 15 17  1  0  0  0  0
 16 18  2  0  0  0  0
 16 19  1  0  0  0  0
 17 20  2  0  0  0  0
 17 21  1  0  0  0  0
 18 22  1  0  0  0  0
 19 23  2  0  0  0  0
 21 24  1  0  0  0  0
 24 25  2  0  0  0  0
 24 26  1  0  0  0  0
 25 27  1  0  0  0  0
 25 28  1  0  0  0  0
 26 29  2  0  0  0  0
 27 30  1  0  0  0  0
 28 31  2  0  0  0  0
 29 32  1  0  0  0  0
 30 33  1  0  0  0  0
 30 34  1  0  0  0  0
 31 35  1  0  0  0  0
 35 36  1  0  0  0  0
 35 37  1  0  0  0  0
 36 38  1  0  0  0  0
 37 39  1  0  0  0  0
 38 40  1  0  0  0  0
 40 41  1  0  0  0  0
 12 14  1  0  0  0  0
 18 20  1  0  0  0  0
 22 23  1  0  0  0  0
 29 31  1  0  0  0  0
 39 40  1  0  0  0  0
M  END
>  <MolRegNo>
2509593

>  <m>
=

>  <Value>
4500

>  <Unit>
nM

>  <Type>
IC50

>  <pValue>
5.35

>  <Ligand Efficiency>
0

>  <Binding Efficiency>
0

>  <Surface Efficiency>
0

>  <Assay Index>
1416822

>  <Assay Category>


>  <Assay Organism>
Homo sapiens

>  <Target ID>
17045

>  <Target Name>
Cytochrome P450 3A4

>  <Target Organism>
Homo sapiens

>  <Target Description>
Target is a single protein chain

>  <Sequence Accession>
P08684

>  <Reference>
Bioorg Med Chem Lett 26 (3.0), 1090-1096 (2016)

>  <Pubmed ID>
26750252

>  <DOI>
10.1016/j.bmcl.2015.11.049

$$$$
2515813
Actelion Java MolfileCreator 1.0

 40 44  0  0  0  0  0  0  0  0999 V2000
    0.0000   -0.0000   -0.0000 S   0  0  0  0  0  0  0  0  0  0  0  0
   -1.0857    1.0857   -0.0000 O   0  0  0  0  0  0  0  0  0  0  0  0
    0.3818    1.4794   -0.0000 O   0  0  0  0  0  0  0  0  0  0  0  0
    1.2886   -0.7397   -0.0000 C   0  0  0  0  0  0  0  0  0  0  0  0
   -1.3124   -0.7397   -0.0000 C   0  0  0  0  0  0  0  0  0  0  0  0
    2.5771    0.0239   -0.0000 C   0  0  0  0  0  0  0  0  0  0  0  0
    1.2766   -2.2430   -0.0000 C   0  0  0  0  0  0  0  0  0  0  0  0
   -2.6248    0.0239   -0.0000 C   0  0  0  0  0  0  0  0  0  0  0  0
   -1.3243   -2.2311   -0.0000 C   0  0  0  0  0  0  0  0  0  0  0  0
    2.5652    1.5391   -0.0000 N   0  0  0  0  0  0  0  0  0  0  0  0
    3.8657   -0.7159   -0.0000 C   0  0  0  0  0  0  0  0  0  0  0  0
    2.5652   -2.9828   -0.0000 C   0  0  0  0  0  0  0  0  0  0  0  0
    3.8537    2.3027   -0.0000 C   0  0  0  0  0  0  0  0  0  0  0  0
    3.8537   -2.2192   -0.0000 C   0  0  0  0  0  0  0  0  0  0  0  0
    5.1423    1.5630   -0.0000 N   0  0  0  0  0  0  0  0  0  0  0  0
    3.8299    3.8179   -0.0000 C   0  0  0  0  0  0  0  0  0  0  0  0
    6.4308    2.3265   -0.0000 C   0  0  0  0  0  0  0  0  0  0  0  0
    5.1184    4.5815   -0.0000 C   0  0  0  0  0  0  0  0  0  0  0  0
    2.7083    4.8321   -0.0000 C   0  0  0  0  0  0  0  0  0  0  0  0
    6.4189    3.8418   -0.0000 N   0  0  0  0  0  0  0  0  0  0  0  0
    7.7194    1.5868   -0.0000 N   0  0  0  0  0  0  0  0  0  0  0  0
    4.7843    6.0610   -0.0000 N   0  0  0  0  0  0  0  0  0  0  0  0
    3.3049    6.2161   -0.0000 C   0  0  0  0  0  0  0  0  0  0  0  0
    7.7074    0.0954   -0.0000 C   0  0  0  0  0  0  0  0  0  0  0  0
    8.9960   -0.6323   -0.0000 C   0  0  0  0  0  0  0  0  0  0  0  0
    6.3950   -0.6443   -0.0000 C   0  0  0  0  0  0  0  0  0  0  0  0
   10.2845    0.1432   -0.0000 O   0  0  0  0  0  0  0  0  0  0  0  0
    8.9960   -2.1237   -0.0000 C   0  0  0  0  0  0  0  0  0  0  0  0
    6.3831   -2.1357   -0.0000 C   0  0  0  0  0  0  0  0  0  0  0  0
   11.5850   -0.5846   -0.0000 C   0  0  0  0  0  0  0  0  0  0  0  0
    7.6836   -2.8754   -0.0000 C   0  0  0  0  0  0  0  0  0  0  0  0
    5.0707   -2.8754   -0.0000 C   0  0  0  0  0  0  0  0  0  0  0  0
   12.8736    0.1909   -0.0000 C   0  0  0  0  0  0  0  0  0  0  0  0
   11.5850   -2.0760   -0.0000 C   0  0  0  0  0  0  0  0  0  0  0  0
    7.6836   -4.3668   -0.0000 C   0  0  0  0  0  0  0  0  0  0  0  0
    6.3712   -5.1065   -0.0000 C   0  0  0  0  0  0  0  0  0  0  0  0
    8.9721   -5.0945   -0.0000 C   0  0  0  0  0  0  0  0  0  0  0  0
    6.3592   -6.5979   -0.0000 C   0  0  0  0  0  0  0  0  0  0  0  0
    8.9602   -6.5979   -0.0000 C   0  0  0  0  0  0  0  0  0  0  0  0
    7.6478   -7.3376   -0.0000 N   0  0  0  0  0  0  0  0  0  0  0  0
  1  2  2  0  0  0  0
  1  3  2  0  0  0  0
  1  4  1  0  0  0  0
  1  5  1  0  0  0  0
  4  6  2  0  0  0  0
  4  7  1  0  0  0  0
  5  8  1  0  0  0  0
  5  9  1  0  0  0  0
  6 10  1  0  0  0  0
  6 11  1  0  0  0  0
  7 12  2  0  0  0  0
 10 13  1  0  0  0  0
 11 14  2  0  0  0  0
 13 15  2  0  0  0  0
 13 16  1  0  0  0  0
 15 17  1  0  0  0  0
 16 18  2  0  0  0  0
 16 19  1  0  0  0  0
 17 20  2  0  0  0  0
 17 21  1  0  0  0  0
 18 22  1  0  0  0  0
 19 23  2  0  0  0  0
 21 24  1  0  0  0  0
 24 25  2  0  0  0  0
 24 26  1  0  0  0  0
 25 27  1  0  0  0  0
 25 28  1  0  0  0  0
 26 29  2  0  0  0  0
 27 30  1  0  0  0  0
 28 31  2  0  0  0  0
 29 32  1  0  0  0  0
 30 33  1  0  0  0  0
 30 34  1  0  0  0  0
 31 35  1  0  0  0  0
 35 36  1  0  0  0  0
 35 37  1  0  0  0  0
 36 38  1  0  0  0  0
 37 39  1  0  0  0  0
 38 40  1  0  0  0  0
 12 14  1  0  0  0  0
 18 20  1  0  0  0  0
 22 23  1  0  0  0  0
 29 31  1  0  0  0  0
 39 40  1  0  0  0  0
M  END
>  <MolRegNo>
2515813

>  <m>
=

>  <Value>
4600

>  <Unit>
nM

>  <Type>
IC50

>  <pValue>
5.34

>  <Ligand Efficiency>
0

>  <Binding Efficiency>
0

>  <Surface Efficiency>
0

>  <Assay Index>
1416822

>  <Assay Category>


>  <Assay Organism>
Homo sapiens

>  <Target ID>
17045

>  <Target Name>
Cytochrome P450 3A4

>  <Target Organism>
Homo sapiens

>  <Target Description>
Target is a single protein chain

>  <Sequence Accession>
P08684

>  <Reference>
Bioorg Med Chem Lett 26 (3.0), 1090-1096 (2016)

>  <Pubmed ID>
26750252

>  <DOI>
10.1016/j.bmcl.2015.11.049

$$$$
2493493
Actelion Java MolfileCreator 1.0

 30 34  0  0  0  0  0  0  0  0999 V2000
    0.0000   -0.0000   -0.0000 Cl  0  0  0  0  0  0  0  0  0  0  0  0
   -1.4930    0.1293   -0.0000 C   0  0  0  0  0  0  0  0  0  0  0  0
   -2.1395    1.4812   -0.0000 C   0  0  0  0  0  0  0  0  0  0  0  0
   -2.3511   -1.0933   -0.0000 C   0  0  0  0  0  0  0  0  0  0  0  0
   -1.3049    2.7155   -0.0000 F   0  0  0  0  0  0  0  0  0  0  0  0
   -3.6325    1.6105   -0.0000 C   0  0  0  0  0  0  0  0  0  0  0  0
   -3.8441   -0.9522   -0.0000 C   0  0  0  0  0  0  0  0  0  0  0  0
   -4.2790    2.9624   -0.0000 O   0  0  0  0  0  0  0  0  0  0  0  0
   -4.4906    0.3997   -0.0000 C   0  0  0  0  0  0  0  0  0  0  0  0
   -5.7720    3.1035   -0.0000 C   0  0  0  0  0  0  0  0  0  0  0  0
   -6.7594    1.9867   -0.0000 N   0  0  0  0  0  0  0  0  0  0  0  0
   -6.5596    4.3966   -0.0000 N   0  0  0  0  0  0  0  0  0  0  0  0
   -8.1583    2.5745   -0.0000 N   0  0  0  0  0  0  0  0  0  0  0  0
   -8.0290    4.0674   -0.0000 C   0  0  0  0  0  0  0  0  0  0  0  0
   -5.9365    5.7720   -0.0000 C   0  0  0  0  0  0  0  0  0  0  0  0
   -9.2281    4.9961   -0.0000 C   0  0  0  0  0  0  0  0  0  0  0  0
   -6.6066    7.1238   -0.0000 C   0  0  0  0  0  0  0  0  0  0  0  0
   -9.2516    6.5008   -0.0000 C   0  0  0  0  0  0  0  0  0  0  0  0
  -10.5329    4.2555   -0.0000 C   0  0  0  0  0  0  0  0  0  0  0  0
   -8.0878    7.4530   -0.0000 O   0  0  0  0  0  0  0  0  0  0  0  0
  -10.5565    7.2532   -0.0000 C   0  0  0  0  0  0  0  0  0  0  0  0
  -11.8378    5.0079   -0.0000 C   0  0  0  0  0  0  0  0  0  0  0  0
  -11.8496    6.5243   -0.0000 C   0  0  0  0  0  0  0  0  0  0  0  0
  -13.1309    4.2790   -0.0000 C   0  0  0  0  0  0  0  0  0  0  0  0
  -14.4358    5.0431   -0.0000 C   0  0  0  0  0  0  0  0  0  0  0  0
  -13.1427    2.8096   -0.0000 C   0  0  0  0  0  0  0  0  0  0  0  0
  -15.7406    4.3143   -0.0000 C   0  0  0  0  0  0  0  0  0  0  0  0
  -14.4358    2.0807   -0.0000 C   0  0  0  0  0  0  0  0  0  0  0  0
  -15.7524    2.8331   -0.0000 N   0  0  0  0  0  0  0  0  0  0  0  0
  -17.0338    5.0666   -0.0000 C   0  0  0  0  0  0  0  0  0  0  0  0
  1  2  1  0  0  0  0
  2  3  2  0  0  0  0
  2  4  1  0  0  0  0
  3  5  1  0  0  0  0
  3  6  1  0  0  0  0
  4  7  2  0  0  0  0
  6  8  1  0  0  0  0
  6  9  2  0  0  0  0
  8 10  1  0  0  0  0
 10 11  2  0  0  0  0
 10 12  1  0  0  0  0
 11 13  1  0  0  0  0
 12 14  1  0  0  0  0
 12 15  1  0  0  0  0
 14 16  1  0  0  0  0
 15 17  1  0  0  0  0
 16 18  2  0  0  0  0
 16 19  1  0  0  0  0
 17 20  1  0  0  0  0
 18 21  1  0  0  0  0
 19 22  2  0  0  0  0
 21 23  2  0  0  0  0
 22 24  1  0  0  0  0
 24 25  2  0  0  0  0
 24 26  1  0  0  0  0
 25 27  1  0  0  0  0
 26 28  2  0  0  0  0
 27 29  2  0  0  0  0
 27 30  1  0  0  0  0
  7  9  1  0  0  0  0
 13 14  2  0  0  0  0
 18 20  1  0  0  0  0
 22 23  1  0  0  0  0
 28 29  1  0  0  0  0
M  END
>  <MolRegNo>
2493493

>  <m>
=

>  <Value>
8390

>  <Unit>
nM

>  <Type>
IC50

>  <pValue>
5.08

>  <Ligand Efficiency>
0

>  <Binding Efficiency>
0

>  <Surface Efficiency>
0

>  <Assay Index>
1417402

>  <Assay Category>


>  <Assay Organism>
Homo sapiens

>  <Target ID>
17045

>  <Target Name>
Cytochrome P450 3A4

>  <Target Organism>
Homo sapiens

>  <Target Description>
Target is a single protein chain

>  <Sequence Accession>
P08684

>  <Reference>
Bioorg Med Chem Lett 26 (12.0), 2947-2951 (2016)

>  <Pubmed ID>
27240550

>  <DOI>
10.1016/j.bmcl.2016.04.018

$$$$
2492200
Actelion Java MolfileCreator 1.0

 29 33  0  0  0  0  0  0  0  0999 V2000
    0.0000   -0.0000   -0.0000 Cl  0  0  0  0  0  0  0  0  0  0  0  0
   -1.4927    0.1293   -0.0000 C   0  0  0  0  0  0  0  0  0  0  0  0
   -2.1391    1.4809   -0.0000 C   0  0  0  0  0  0  0  0  0  0  0  0
   -2.3506   -1.0930   -0.0000 C   0  0  0  0  0  0  0  0  0  0  0  0
   -3.6317    1.6102   -0.0000 C   0  0  0  0  0  0  0  0  0  0  0  0
   -3.8433   -0.9520   -0.0000 C   0  0  0  0  0  0  0  0  0  0  0  0
   -4.4897    0.3996   -0.0000 C   0  0  0  0  0  0  0  0  0  0  0  0
   -4.2781    2.9618   -0.0000 C   0  0  0  0  0  0  0  0  0  0  0  0
   -5.7708    3.1028   -0.0000 C   0  0  0  0  0  0  0  0  0  0  0  0
   -6.7581    1.9863   -0.0000 N   0  0  0  0  0  0  0  0  0  0  0  0
   -6.5583    4.3957   -0.0000 N   0  0  0  0  0  0  0  0  0  0  0  0
   -8.1567    2.5739   -0.0000 N   0  0  0  0  0  0  0  0  0  0  0  0
   -8.0274    4.0666   -0.0000 C   0  0  0  0  0  0  0  0  0  0  0  0
   -5.9353    5.7708   -0.0000 C   0  0  0  0  0  0  0  0  0  0  0  0
   -9.2262    4.9951   -0.0000 C   0  0  0  0  0  0  0  0  0  0  0  0
   -6.6053    7.1224   -0.0000 C   0  0  0  0  0  0  0  0  0  0  0  0
   -9.2497    6.4995   -0.0000 C   0  0  0  0  0  0  0  0  0  0  0  0
  -10.5308    4.2546   -0.0000 C   0  0  0  0  0  0  0  0  0  0  0  0
   -8.0862    7.4515   -0.0000 O   0  0  0  0  0  0  0  0  0  0  0  0
  -10.5543    7.2517   -0.0000 C   0  0  0  0  0  0  0  0  0  0  0  0
  -11.8354    5.0068   -0.0000 C   0  0  0  0  0  0  0  0  0  0  0  0
  -11.8472    6.5230   -0.0000 C   0  0  0  0  0  0  0  0  0  0  0  0
  -13.1283    4.2781   -0.0000 C   0  0  0  0  0  0  0  0  0  0  0  0
  -14.4329    5.0421   -0.0000 C   0  0  0  0  0  0  0  0  0  0  0  0
  -13.1400    2.8090   -0.0000 C   0  0  0  0  0  0  0  0  0  0  0  0
  -15.7375    4.3134   -0.0000 C   0  0  0  0  0  0  0  0  0  0  0  0
  -14.4329    2.0803   -0.0000 C   0  0  0  0  0  0  0  0  0  0  0  0
  -15.7492    2.8325   -0.0000 N   0  0  0  0  0  0  0  0  0  0  0  0
  -17.0303    5.0656   -0.0000 C   0  0  0  0  0  0  0  0  0  0  0  0
  1  2  1  0  0  0  0
  2  3  2  0  0  0  0
  2  4  1  0  0  0  0
  3  5  1  0  0  0  0
  4  6  2  0  0  0  0
  5  7  2  0  0  0  0
  5  8  1  0  0  0  0
  8  9  1  0  0  0  0
  9 10  2  0  0  0  0
  9 11  1  0  0  0  0
 10 12  1  0  0  0  0
 11 13  1  0  0  0  0
 11 14  1  0  0  0  0
 13 15  1  0  0  0  0
 14 16  1  0  0  0  0
 15 17  2  0  0  0  0
 15 18  1  0  0  0  0
 16 19  1  0  0  0  0
 17 20  1  0  0  0  0
 18 21  2  0  0  0  0
 20 22  2  0  0  0  0
 21 23  1  0  0  0  0
 23 24  2  0  0  0  0
 23 25  1  0  0  0  0
 24 26  1  0  0  0  0
 25 27  2  0  0  0  0
 26 28  2  0  0  0  0
 26 29  1  0  0  0  0
  6  7  1  0  0  0  0
 12 13  2  0  0  0  0
 17 19  1  0  0  0  0
 21 22  1  0  0  0  0
 27 28  1  0  0  0  0
M  END
>  <MolRegNo>
2492200

>  <m>
=

>  <Value>
1060

>  <Unit>
nM

>  <Type>
IC50

>  <pValue>
5.97

>  <Ligand Efficiency>
0

>  <Binding Efficiency>
0

>  <Surface Efficiency>
0

>  <Assay Index>
1417402

>  <Assay Category>


>  <Assay Organism>
Homo sapiens

>  <Target ID>
17045

>  <Target Name>
Cytochrome P450 3A4

>  <Target Organism>
Homo sapiens

>  <Target Description>
Target is a single protein chain

>  <Sequence Accession>
P08684

>  <Reference>
Bioorg Med Chem Lett 26 (12.0), 2947-2951 (2016)

>  <Pubmed ID>
27240550

>  <DOI>
10.1016/j.bmcl.2016.04.018

$$$$
2502791
Actelion Java MolfileCreator 1.0

 32 36  0  0  0  0  0  0  0  0999 V2000
    0.0000   -0.0000   -0.0000 F   0  0  0  0  0  0  0  0  0  0  0  0
    0.7294   -1.2824   -0.0000 C   0  0  0  0  0  0  0  0  0  0  0  0
    1.4707    0.0235   -0.0000 F   0  0  0  0  0  0  0  0  0  0  0  0
    2.1177   -1.7765   -0.0000 F   0  0  0  0  0  0  0  0  0  0  0  0
   -0.1294   -2.4942   -0.0000 O   0  0  0  0  0  0  0  0  0  0  0  0
   -1.6236   -2.3648   -0.0000 C   0  0  0  0  0  0  0  0  0  0  0  0
   -2.2707   -1.0118   -0.0000 C   0  0  0  0  0  0  0  0  0  0  0  0
   -2.4825   -3.5884   -0.0000 C   0  0  0  0  0  0  0  0  0  0  0  0
   -3.7649   -0.8824   -0.0000 C   0  0  0  0  0  0  0  0  0  0  0  0
   -3.9766   -3.4472   -0.0000 C   0  0  0  0  0  0  0  0  0  0  0  0
   -4.4120    0.4824   -0.0000 N   0  0  0  0  0  0  0  0  0  0  0  0
   -4.6237   -2.0942   -0.0000 C   0  0  0  0  0  0  0  0  0  0  0  0
   -5.9061    0.6236   -0.0000 C   0  0  0  0  0  0  0  0  0  0  0  0
   -6.8944   -0.4941   -0.0000 N   0  0  0  0  0  0  0  0  0  0  0  0
   -6.6944    1.9177   -0.0000 N   0  0  0  0  0  0  0  0  0  0  0  0
   -8.2945    0.0941   -0.0000 N   0  0  0  0  0  0  0  0  0  0  0  0
   -8.1651    1.5883   -0.0000 C   0  0  0  0  0  0  0  0  0  0  0  0
   -6.0708    3.2943   -0.0000 C   0  0  0  0  0  0  0  0  0  0  0  0
   -9.3651    2.5178   -0.0000 C   0  0  0  0  0  0  0  0  0  0  0  0
   -6.7415    4.6473   -0.0000 C   0  0  0  0  0  0  0  0  0  0  0  0
   -9.3886    4.0237   -0.0000 C   0  0  0  0  0  0  0  0  0  0  0  0
  -10.6710    1.7765   -0.0000 C   0  0  0  0  0  0  0  0  0  0  0  0
   -8.2239    4.9767   -0.0000 O   0  0  0  0  0  0  0  0  0  0  0  0
  -10.6946    4.7767   -0.0000 C   0  0  0  0  0  0  0  0  0  0  0  0
  -11.9770    2.5295   -0.0000 C   0  0  0  0  0  0  0  0  0  0  0  0
  -11.9887    4.0472   -0.0000 C   0  0  0  0  0  0  0  0  0  0  0  0
  -13.2712    1.8001   -0.0000 C   0  0  0  0  0  0  0  0  0  0  0  0
  -14.5771    2.5648   -0.0000 C   0  0  0  0  0  0  0  0  0  0  0  0
  -13.2829    0.3294   -0.0000 C   0  0  0  0  0  0  0  0  0  0  0  0
  -15.8830    1.8354   -0.0000 C   0  0  0  0  0  0  0  0  0  0  0  0
  -14.5771   -0.4000   -0.0000 C   0  0  0  0  0  0  0  0  0  0  0  0
  -15.8948    0.3530   -0.0000 N   0  0  0  0  0  0  0  0  0  0  0  0
  1  2  1  0  0  0  0
  2  3  1  0  0  0  0
  2  4  1  0  0  0  0
  2  5  1  0  0  0  0
  5  6  1  0  0  0  0
  6  7  2  0  0  0  0
  6  8  1  0  0  0  0
  7  9  1  0  0  0  0
  8 10  2  0  0  0  0
  9 11  1  0  0  0  0
  9 12  2  0  0  0  0
 11 13  1  0  0  0  0
 13 14  2  0  0  0  0
 13 15  1  0  0  0  0
 14 16  1  0  0  0  0
 15 17  1  0  0  0  0
 15 18  1  0  0  0  0
 17 19  1  0  0  0  0
 18 20  1  0  0  0  0
 19 21  2  0  0  0  0
 19 22  1  0  0  0  0
 20 23  1  0  0  0  0
 21 24  1  0  0  0  0
 22 25  2  0  0  0  0
 24 26  2  0  0  0  0
 25 27  1  0  0  0  0
 27 28  2  0  0  0  0
 27 29  1  0  0  0  0
 28 30  1  0  0  0  0
 29 31  2  0  0  0  0
 30 32  2  0  0  0  0
 10 12  1  0  0  0  0
 16 17  2  0  0  0  0
 21 23  1  0  0  0  0
 25 26  1  0  0  0  0
 31 32  1  0  0  0  0
M  END
>  <MolRegNo>
2502791

>  <m>
=

>  <Value>
1610

>  <Unit>
nM

>  <Type>
IC50

>  <pValue>
5.79

>  <Ligand Efficiency>
0

>  <Binding Efficiency>
0

>  <Surface Efficiency>
0

>  <Assay Index>
1417402

>  <Assay Category>


>  <Assay Organism>
Homo sapiens

>  <Target ID>
17045

>  <Target Name>
Cytochrome P450 3A4

>  <Target Organism>
Homo sapiens

>  <Target Description>
Target is a single protein chain

>  <Sequence Accession>
P08684

>  <Reference>
Bioorg Med Chem Lett 26 (12.0), 2947-2951 (2016)

>  <Pubmed ID>
27240550

>  <DOI>
10.1016/j.bmcl.2016.04.018

$$$$
2524663
Actelion Java MolfileCreator 1.0

 32 36  0  0  0  0  0  0  0  0999 V2000
    0.0000   -0.0000   -0.0000 F   0  0  0  0  0  0  0  0  0  0  0  0
   -0.3999   -1.4350   -0.0000 C   0  0  0  0  0  0  0  0  0  0  0  0
    1.0351   -1.0351   -0.0000 F   0  0  0  0  0  0  0  0  0  0  0  0
    0.2352   -2.7758   -0.0000 F   0  0  0  0  0  0  0  0  0  0  0  0
   -1.8937   -1.3056   -0.0000 C   0  0  0  0  0  0  0  0  0  0  0  0
   -2.5406    0.0470   -0.0000 C   0  0  0  0  0  0  0  0  0  0  0  0
   -2.7523   -2.5288   -0.0000 C   0  0  0  0  0  0  0  0  0  0  0  0
   -4.0343    0.1764   -0.0000 C   0  0  0  0  0  0  0  0  0  0  0  0
   -4.2461   -2.3877   -0.0000 C   0  0  0  0  0  0  0  0  0  0  0  0
   -4.6813    1.5291   -0.0000 N   0  0  0  0  0  0  0  0  0  0  0  0
   -4.8930   -1.0351   -0.0000 C   0  0  0  0  0  0  0  0  0  0  0  0
   -6.1750    1.6702   -0.0000 C   0  0  0  0  0  0  0  0  0  0  0  0
   -7.1630    0.5528   -0.0000 N   0  0  0  0  0  0  0  0  0  0  0  0
   -6.9631    2.9640   -0.0000 N   0  0  0  0  0  0  0  0  0  0  0  0
   -8.5627    1.1409   -0.0000 N   0  0  0  0  0  0  0  0  0  0  0  0
   -8.4333    2.6347   -0.0000 C   0  0  0  0  0  0  0  0  0  0  0  0
   -6.3397    4.3402   -0.0000 C   0  0  0  0  0  0  0  0  0  0  0  0
   -9.6330    3.5639   -0.0000 C   0  0  0  0  0  0  0  0  0  0  0  0
   -7.0101    5.6928   -0.0000 C   0  0  0  0  0  0  0  0  0  0  0  0
   -9.6566    5.0694   -0.0000 C   0  0  0  0  0  0  0  0  0  0  0  0
  -10.9386    2.8229   -0.0000 C   0  0  0  0  0  0  0  0  0  0  0  0
   -8.4921    6.0221   -0.0000 O   0  0  0  0  0  0  0  0  0  0  0  0
  -10.9621    5.8222   -0.0000 C   0  0  0  0  0  0  0  0  0  0  0  0
  -12.2442    3.5756   -0.0000 C   0  0  0  0  0  0  0  0  0  0  0  0
  -12.2560    5.0929   -0.0000 C   0  0  0  0  0  0  0  0  0  0  0  0
  -13.5380    2.8464   -0.0000 C   0  0  0  0  0  0  0  0  0  0  0  0
  -14.8436    3.6109   -0.0000 C   0  0  0  0  0  0  0  0  0  0  0  0
  -13.5498    1.3761   -0.0000 C   0  0  0  0  0  0  0  0  0  0  0  0
  -16.1492    2.8817   -0.0000 C   0  0  0  0  0  0  0  0  0  0  0  0
  -14.8436    0.6469   -0.0000 C   0  0  0  0  0  0  0  0  0  0  0  0
  -16.1609    1.3997   -0.0000 N   0  0  0  0  0  0  0  0  0  0  0  0
  -17.4430    3.6344   -0.0000 C   0  0  0  0  0  0  0  0  0  0  0  0
  1  2  1  0  0  0  0
  2  3  1  0  0  0  0
  2  4  1  0  0  0  0
  2  5  1  0  0  0  0
  5  6  2  0  0  0  0
  5  7  1  0  0  0  0
  6  8  1  0  0  0  0
  7  9  2  0  0  0  0
  8 10  1  0  0  0  0
  8 11  2  0  0  0  0
 10 12  1  0  0  0  0
 12 13  2  0  0  0  0
 12 14  1  0  0  0  0
 13 15  1  0  0  0  0
 14 16  1  0  0  0  0
 14 17  1  0  0  0  0
 16 18  1  0  0  0  0
 17 19  1  0  0  0  0
 18 20  2  0  0  0  0
 18 21  1  0  0  0  0
 19 22  1  0  0  0  0
 20 23  1  0  0  0  0
 21 24  2  0  0  0  0
 23 25  2  0  0  0  0
 24 26  1  0  0  0  0
 26 27  2  0  0  0  0
 26 28  1  0  0  0  0
 27 29  1  0  0  0  0
 28 30  2  0  0  0  0
 29 31  2  0  0  0  0
 29 32  1  0  0  0  0
  9 11  1  0  0  0  0
 15 16  2  0  0  0  0
 20 22  1  0  0  0  0
 24 25  1  0  0  0  0
 30 31  1  0  0  0  0
M  END
>  <MolRegNo>
2524663

>  <m>
=

>  <Value>
48300

>  <Unit>
nM

>  <Type>
IC50

>  <pValue>
4.32

>  <Ligand Efficiency>
0

>  <Binding Efficiency>
0

>  <Surface Efficiency>
0

>  <Assay Index>
1417402

>  <Assay Category>


>  <Assay Organism>
Homo sapiens

>  <Target ID>
17045

>  <Target Name>
Cytochrome P450 3A4

>  <Target Organism>
Homo sapiens

>  <Target Description>
Target is a single protein chain

>  <Sequence Accession>
P08684

>  <Reference>
Bioorg Med Chem Lett 26 (12.0), 2947-2951 (2016)

>  <Pubmed ID>
27240550

>  <DOI>
10.1016/j.bmcl.2016.04.018

$$$$
2526741
Actelion Java MolfileCreator 1.0

 31 35  0  0  0  0  0  0  0  0999 V2000
    0.0000   -0.0000   -0.0000 F   0  0  0  0  0  0  0  0  0  0  0  0
   -0.3999   -1.4349   -0.0000 C   0  0  0  0  0  0  0  0  0  0  0  0
    1.0350   -1.0350   -0.0000 F   0  0  0  0  0  0  0  0  0  0  0  0
    0.2352   -2.7757   -0.0000 F   0  0  0  0  0  0  0  0  0  0  0  0
   -1.8936   -1.3055   -0.0000 C   0  0  0  0  0  0  0  0  0  0  0  0
   -2.5404    0.0470   -0.0000 C   0  0  0  0  0  0  0  0  0  0  0  0
   -2.7521   -2.5287   -0.0000 C   0  0  0  0  0  0  0  0  0  0  0  0
   -4.0341    0.1764   -0.0000 C   0  0  0  0  0  0  0  0  0  0  0  0
   -4.2458   -2.3875   -0.0000 C   0  0  0  0  0  0  0  0  0  0  0  0
   -4.6810    1.5290   -0.0000 N   0  0  0  0  0  0  0  0  0  0  0  0
   -4.8927   -1.0350   -0.0000 C   0  0  0  0  0  0  0  0  0  0  0  0
   -6.1747    1.6701   -0.0000 C   0  0  0  0  0  0  0  0  0  0  0  0
   -7.1626    0.5528   -0.0000 N   0  0  0  0  0  0  0  0  0  0  0  0
   -6.9627    2.9638   -0.0000 N   0  0  0  0  0  0  0  0  0  0  0  0
   -8.5622    1.1408   -0.0000 N   0  0  0  0  0  0  0  0  0  0  0  0
   -8.4328    2.6345   -0.0000 C   0  0  0  0  0  0  0  0  0  0  0  0
   -6.3393    4.3399   -0.0000 C   0  0  0  0  0  0  0  0  0  0  0  0
   -9.6325    3.5637   -0.0000 C   0  0  0  0  0  0  0  0  0  0  0  0
   -7.0097    5.6924   -0.0000 C   0  0  0  0  0  0  0  0  0  0  0  0
   -9.6560    5.0691   -0.0000 C   0  0  0  0  0  0  0  0  0  0  0  0
  -10.9380    2.8227   -0.0000 C   0  0  0  0  0  0  0  0  0  0  0  0
   -8.4916    6.0218   -0.0000 O   0  0  0  0  0  0  0  0  0  0  0  0
  -10.9615    5.8218   -0.0000 C   0  0  0  0  0  0  0  0  0  0  0  0
  -12.2435    3.5754   -0.0000 C   0  0  0  0  0  0  0  0  0  0  0  0
  -12.2552    5.0926   -0.0000 C   0  0  0  0  0  0  0  0  0  0  0  0
  -13.5372    2.8462   -0.0000 C   0  0  0  0  0  0  0  0  0  0  0  0
  -14.8427    3.6107   -0.0000 C   0  0  0  0  0  0  0  0  0  0  0  0
  -13.5490    1.3761   -0.0000 C   0  0  0  0  0  0  0  0  0  0  0  0
  -16.1482    2.8815   -0.0000 C   0  0  0  0  0  0  0  0  0  0  0  0
  -14.8427    0.6469   -0.0000 C   0  0  0  0  0  0  0  0  0  0  0  0
  -16.1600    1.3996   -0.0000 N   0  0  0  0  0  0  0  0  0  0  0  0
  1  2  1  0  0  0  0
  2  3  1  0  0  0  0
  2  4  1  0  0  0  0
  2  5  1  0  0  0  0
  5  6  2  0  0  0  0
  5  7  1  0  0  0  0
  6  8  1  0  0  0  0
  7  9  2  0  0  0  0
  8 10  1  0  0  0  0
  8 11  2  0  0  0  0
 10 12  1  0  0  0  0
 12 13  2  0  0  0  0
 12 14  1  0  0  0  0
 13 15  1  0  0  0  0
 14 16  1  0  0  0  0
 14 17  1  0  0  0  0
 16 18  1  0  0  0  0
 17 19  1  0  0  0  0
 18 20  2  0  0  0  0
 18 21  1  0  0  0  0
 19 22  1  0  0  0  0
 20 23  1  0  0  0  0
 21 24  2  0  0  0  0
 23 25  2  0  0  0  0
 24 26  1  0  0  0  0
 26 27  2  0  0  0  0
 26 28  1  0  0  0  0
 27 29  1  0  0  0  0
 28 30  2  0  0  0  0
 29 31  2  0  0  0  0
  9 11  1  0  0  0  0
 15 16  2  0  0  0  0
 20 22  1  0  0  0  0
 24 25  1  0  0  0  0
 30 31  1  0  0  0  0
M  END
>  <MolRegNo>
2526741

>  <m>
=

>  <Value>
516

>  <Unit>
nM

>  <Type>
IC50

>  <pValue>
6.29

>  <Ligand Efficiency>
0

>  <Binding Efficiency>
0

>  <Surface Efficiency>
0

>  <Assay Index>
1417402

>  <Assay Category>


>  <Assay Organism>
Homo sapiens

>  <Target ID>
17045

>  <Target Name>
Cytochrome P450 3A4

>  <Target Organism>
Homo sapiens

>  <Target Description>
Target is a single protein chain

>  <Sequence Accession>
P08684

>  <Reference>
Bioorg Med Chem Lett 26 (12.0), 2947-2951 (2016)

>  <Pubmed ID>
27240550

>  <DOI>
10.1016/j.bmcl.2016.04.018

$$$$
2497516
Actelion Java MolfileCreator 1.0

 29 33  0  0  0  0  0  0  0  0999 V2000
    0.0000   -0.0000   -0.0000 Cl  0  0  0  0  0  0  0  0  0  0  0  0
   -1.4920    0.1292   -0.0000 C   0  0  0  0  0  0  0  0  0  0  0  0
   -2.1382    1.4803   -0.0000 C   0  0  0  0  0  0  0  0  0  0  0  0
   -2.3496   -1.0926   -0.0000 C   0  0  0  0  0  0  0  0  0  0  0  0
   -3.6302    1.6095   -0.0000 C   0  0  0  0  0  0  0  0  0  0  0  0
   -3.8417   -0.9516   -0.0000 C   0  0  0  0  0  0  0  0  0  0  0  0
   -4.2764    2.9723   -0.0000 N   0  0  0  0  0  0  0  0  0  0  0  0
   -4.4878    0.3994   -0.0000 C   0  0  0  0  0  0  0  0  0  0  0  0
   -5.7684    3.1133   -0.0000 C   0  0  0  0  0  0  0  0  0  0  0  0
   -6.7552    1.9972   -0.0000 N   0  0  0  0  0  0  0  0  0  0  0  0
   -6.5555    4.4056   -0.0000 N   0  0  0  0  0  0  0  0  0  0  0  0
   -8.1533    2.5846   -0.0000 N   0  0  0  0  0  0  0  0  0  0  0  0
   -8.0240    4.0766   -0.0000 C   0  0  0  0  0  0  0  0  0  0  0  0
   -5.9329    5.7801   -0.0000 C   0  0  0  0  0  0  0  0  0  0  0  0
   -9.2224    5.0047   -0.0000 C   0  0  0  0  0  0  0  0  0  0  0  0
   -6.6025    7.1312   -0.0000 C   0  0  0  0  0  0  0  0  0  0  0  0
   -9.2459    6.5085   -0.0000 C   0  0  0  0  0  0  0  0  0  0  0  0
  -10.5264    4.2646   -0.0000 C   0  0  0  0  0  0  0  0  0  0  0  0
   -8.0828    7.4601   -0.0000 O   0  0  0  0  0  0  0  0  0  0  0  0
  -10.5499    7.2604   -0.0000 C   0  0  0  0  0  0  0  0  0  0  0  0
  -11.8305    5.0165   -0.0000 C   0  0  0  0  0  0  0  0  0  0  0  0
  -11.8422    6.5320   -0.0000 C   0  0  0  0  0  0  0  0  0  0  0  0
  -13.1228    4.2881   -0.0000 C   0  0  0  0  0  0  0  0  0  0  0  0
  -14.4268    5.0517   -0.0000 C   0  0  0  0  0  0  0  0  0  0  0  0
  -13.1345    2.8196   -0.0000 C   0  0  0  0  0  0  0  0  0  0  0  0
  -15.7309    4.3233   -0.0000 C   0  0  0  0  0  0  0  0  0  0  0  0
  -14.4268    2.0912   -0.0000 C   0  0  0  0  0  0  0  0  0  0  0  0
  -15.7426    2.8431   -0.0000 N   0  0  0  0  0  0  0  0  0  0  0  0
  -17.0349    5.0752   -0.0000 C   0  0  0  0  0  0  0  0  0  0  0  0
  1  2  1  0  0  0  0
  2  3  2  0  0  0  0
  2  4  1  0  0  0  0
  3  5  1  0  0  0  0
  4  6  2  0  0  0  0
  5  7  1  0  0  0  0
  5  8  2  0  0  0  0
  7  9  1  0  0  0  0
  9 10  2  0  0  0  0
  9 11  1  0  0  0  0
 10 12  1  0  0  0  0
 11 13  1  0  0  0  0
 11 14  1  0  0  0  0
 13 15  1  0  0  0  0
 14 16  1  0  0  0  0
 15 17  2  0  0  0  0
 15 18  1  0  0  0  0
 16 19  1  0  0  0  0
 17 20  1  0  0  0  0
 18 21  2  0  0  0  0
 20 22  2  0  0  0  0
 21 23  1  0  0  0  0
 23 24  2  0  0  0  0
 23 25  1  0  0  0  0
 24 26  1  0  0  0  0
 25 27  2  0  0  0  0
 26 28  2  0  0  0  0
 26 29  1  0  0  0  0
  6  8  1  0  0  0  0
 12 13  2  0  0  0  0
 17 19  1  0  0  0  0
 21 22  1  0  0  0  0
 27 28  1  0  0  0  0
M  END
>  <MolRegNo>
2497516

>  <m>
=

>  <Value>
11800

>  <Unit>
nM

>  <Type>
IC50

>  <pValue>
4.93

>  <Ligand Efficiency>
0

>  <Binding Efficiency>
0

>  <Surface Efficiency>
0

>  <Assay Index>
1417402

>  <Assay Category>


>  <Assay Organism>
Homo sapiens

>  <Target ID>
17045

>  <Target Name>
Cytochrome P450 3A4

>  <Target Organism>
Homo sapiens

>  <Target Description>
Target is a single protein chain

>  <Sequence Accession>
P08684

>  <Reference>
Bioorg Med Chem Lett 26 (12.0), 2947-2951 (2016)

>  <Pubmed ID>
27240550

>  <DOI>
10.1016/j.bmcl.2016.04.018

$$$$
2503005
Actelion Java MolfileCreator 1.0

 28 31  0  0  0  0  0  0  0  0999 V2000
    0.0000   -0.0000   -0.0000 Cl  0  0  0  0  0  0  0  0  0  0  0  0
   -1.4827   -0.2354   -0.0000 C   0  0  0  0  0  0  0  0  0  0  0  0
   -2.0241   -1.6240   -0.0000 C   0  0  0  0  0  0  0  0  0  0  0  0
   -2.4359    0.9297   -0.0000 C   0  0  0  0  0  0  0  0  0  0  0  0
   -1.0944   -2.7654   -0.0000 Cl  0  0  0  0  0  0  0  0  0  0  0  0
   -3.5068   -1.8475   -0.0000 C   0  0  0  0  0  0  0  0  0  0  0  0
   -3.9069    0.6943   -0.0000 C   0  0  0  0  0  0  0  0  0  0  0  0
   -4.4600   -0.6825   -0.0000 C   0  0  0  0  0  0  0  0  0  0  0  0
   -4.8601    1.8593   -0.0000 N   0  0  0  0  0  0  0  0  0  0  0  0
   -6.3429    1.6357   -0.0000 C   0  0  0  0  0  0  0  0  0  0  0  0
   -6.8842    0.2589   -0.0000 O   0  0  0  0  0  0  0  0  0  0  0  0
   -7.2960    2.8007   -0.0000 N   0  0  0  0  0  0  0  0  0  0  0  0
   -8.7670    2.4595   -0.0000 C   0  0  0  0  0  0  0  0  0  0  0  0
   -6.6724    4.1776   -0.0000 C   0  0  0  0  0  0  0  0  0  0  0  0
   -9.9673    3.4009   -0.0000 C   0  0  0  0  0  0  0  0  0  0  0  0
   -7.3431    5.5309   -0.0000 C   0  0  0  0  0  0  0  0  0  0  0  0
   -9.9909    4.9072   -0.0000 C   0  0  0  0  0  0  0  0  0  0  0  0
  -11.2736    2.6595   -0.0000 C   0  0  0  0  0  0  0  0  0  0  0  0
   -8.8259    5.8604   -0.0000 O   0  0  0  0  0  0  0  0  0  0  0  0
  -11.2971    5.6603   -0.0000 C   0  0  0  0  0  0  0  0  0  0  0  0
  -12.5798    3.4127   -0.0000 C   0  0  0  0  0  0  0  0  0  0  0  0
  -12.5916    4.9307   -0.0000 C   0  0  0  0  0  0  0  0  0  0  0  0
  -13.8743    2.6831   -0.0000 C   0  0  0  0  0  0  0  0  0  0  0  0
  -15.1805    3.4480   -0.0000 C   0  0  0  0  0  0  0  0  0  0  0  0
  -13.8860    1.2121   -0.0000 C   0  0  0  0  0  0  0  0  0  0  0  0
  -16.4867    2.7184   -0.0000 C   0  0  0  0  0  0  0  0  0  0  0  0
  -15.1805    0.4825   -0.0000 C   0  0  0  0  0  0  0  0  0  0  0  0
  -16.4985    1.2356   -0.0000 N   0  0  0  0  0  0  0  0  0  0  0  0
  1  2  1  0  0  0  0
  2  3  2  0  0  0  0
  2  4  1  0  0  0  0
  3  5  1  0  0  0  0
  3  6  1  0  0  0  0
  4  7  2  0  0  0  0
  6  8  2  0  0  0  0
  7  9  1  0  0  0  0
  9 10  1  0  0  0  0
 10 11  2  0  0  0  0
 10 12  1  0  0  0  0
 12 13  1  0  0  0  0
 12 14  1  0  0  0  0
 13 15  1  0  0  0  0
 14 16  1  0  0  0  0
 15 17  2  0  0  0  0
 15 18  1  0  0  0  0
 16 19  1  0  0  0  0
 17 20  1  0  0  0  0
 18 21  2  0  0  0  0
 20 22  2  0  0  0  0
 21 23  1  0  0  0  0
 23 24  2  0  0  0  0
 23 25  1  0  0  0  0
 24 26  1  0  0  0  0
 25 27  2  0  0  0  0
 26 28  2  0  0  0  0
  7  8  1  0  0  0  0
 17 19  1  0  0  0  0
 21 22  1  0  0  0  0
 27 28  1  0  0  0  0
M  END
>  <MolRegNo>
2503005

>  <m>
=

>  <Value>
192000

>  <Unit>
nM

>  <Type>
IC50

>  <pValue>
0

>  <Ligand Efficiency>
0

>  <Binding Efficiency>
0

>  <Surface Efficiency>
0

>  <Assay Index>
1417402

>  <Assay Category>


>  <Assay Organism>
Homo sapiens

>  <Target ID>
17045

>  <Target Name>
Cytochrome P450 3A4

>  <Target Organism>
Homo sapiens

>  <Target Description>
Target is a single protein chain

>  <Sequence Accession>
P08684

>  <Reference>
Bioorg Med Chem Lett 26 (12.0), 2947-2951 (2016)

>  <Pubmed ID>
27240550

>  <DOI>
10.1016/j.bmcl.2016.04.018

$$$$
2524229
Actelion Java MolfileCreator 1.0

 27 30  0  0  0  0  0  0  0  0999 V2000
    0.0000   -0.0000   -0.0000 Cl  0  0  0  0  0  0  0  0  0  0  0  0
   -1.4822   -0.2353   -0.0000 C   0  0  0  0  0  0  0  0  0  0  0  0
   -2.4351    0.9293   -0.0000 C   0  0  0  0  0  0  0  0  0  0  0  0
   -2.0233   -1.6234   -0.0000 C   0  0  0  0  0  0  0  0  0  0  0  0
   -3.9055    0.6941   -0.0000 C   0  0  0  0  0  0  0  0  0  0  0  0
   -3.5056   -1.8469   -0.0000 C   0  0  0  0  0  0  0  0  0  0  0  0
   -4.8584    1.8587   -0.0000 N   0  0  0  0  0  0  0  0  0  0  0  0
   -4.4466   -0.6823   -0.0000 C   0  0  0  0  0  0  0  0  0  0  0  0
   -6.3406    1.6351   -0.0000 C   0  0  0  0  0  0  0  0  0  0  0  0
   -6.8817    0.2588   -0.0000 O   0  0  0  0  0  0  0  0  0  0  0  0
   -7.2934    2.7997   -0.0000 N   0  0  0  0  0  0  0  0  0  0  0  0
   -8.7639    2.4586   -0.0000 C   0  0  0  0  0  0  0  0  0  0  0  0
   -6.6700    4.1761   -0.0000 C   0  0  0  0  0  0  0  0  0  0  0  0
   -9.9638    3.3997   -0.0000 C   0  0  0  0  0  0  0  0  0  0  0  0
   -7.3405    5.5289   -0.0000 C   0  0  0  0  0  0  0  0  0  0  0  0
   -9.9873    4.9054   -0.0000 C   0  0  0  0  0  0  0  0  0  0  0  0
  -11.2695    2.6586   -0.0000 C   0  0  0  0  0  0  0  0  0  0  0  0
   -8.8227    5.8583   -0.0000 O   0  0  0  0  0  0  0  0  0  0  0  0
  -11.2931    5.6583   -0.0000 C   0  0  0  0  0  0  0  0  0  0  0  0
  -12.5753    3.4114   -0.0000 C   0  0  0  0  0  0  0  0  0  0  0  0
  -12.5871    4.9290   -0.0000 C   0  0  0  0  0  0  0  0  0  0  0  0
  -13.8693    2.6821   -0.0000 C   0  0  0  0  0  0  0  0  0  0  0  0
  -15.1751    3.4467   -0.0000 C   0  0  0  0  0  0  0  0  0  0  0  0
  -13.8811    1.2117   -0.0000 C   0  0  0  0  0  0  0  0  0  0  0  0
  -16.4808    2.7174   -0.0000 C   0  0  0  0  0  0  0  0  0  0  0  0
  -15.1751    0.4823   -0.0000 C   0  0  0  0  0  0  0  0  0  0  0  0
  -16.4926    1.2352   -0.0000 N   0  0  0  0  0  0  0  0  0  0  0  0
  1  2  1  0  0  0  0
  2  3  2  0  0  0  0
  2  4  1  0  0  0  0
  3  5  1  0  0  0  0
  4  6  2  0  0  0  0
  5  7  1  0  0  0  0
  5  8  2  0  0  0  0
  7  9  1  0  0  0  0
  9 10  2  0  0  0  0
  9 11  1  0  0  0  0
 11 12  1  0  0  0  0
 11 13  1  0  0  0  0
 12 14  1  0  0  0  0
 13 15  1  0  0  0  0
 14 16  2  0  0  0  0
 14 17  1  0  0  0  0
 15 18  1  0  0  0  0
 16 19  1  0  0  0  0
 17 20  2  0  0  0  0
 19 21  2  0  0  0  0
 20 22  1  0  0  0  0
 22 23  2  0  0  0  0
 22 24  1  0  0  0  0
 23 25  1  0  0  0  0
 24 26  2  0  0  0  0
 25 27  2  0  0  0  0
  6  8  1  0  0  0  0
 16 18  1  0  0  0  0
 20 21  1  0  0  0  0
 26 27  1  0  0  0  0
M  END
>  <MolRegNo>
2524229

>  <m>
=

>  <Value>
325000

>  <Unit>
nM

>  <Type>
IC50

>  <pValue>
0

>  <Ligand Efficiency>
0

>  <Binding Efficiency>
0

>  <Surface Efficiency>
0

>  <Assay Index>
1417402

>  <Assay Category>


>  <Assay Organism>
Homo sapiens

>  <Target ID>
17045

>  <Target Name>
Cytochrome P450 3A4

>  <Target Organism>
Homo sapiens

>  <Target Description>
Target is a single protein chain

>  <Sequence Accession>
P08684

>  <Reference>
Bioorg Med Chem Lett 26 (12.0), 2947-2951 (2016)

>  <Pubmed ID>
27240550

>  <DOI>
10.1016/j.bmcl.2016.04.018

$$$$
2498281
Actelion Java MolfileCreator 1.0

 26 27  0  0  0  0  0  0  0  0999 V2000
    0.0000   -0.0000   -0.0000 O   0  0  0  0  0  0  0  0  0  0  0  0
   -0.0120   -1.4892   -0.0000 C   0  0  0  0  0  0  0  0  0  0  0  0
    1.2730   -2.2217   -0.0000 C   0  0  0  0  0  0  0  0  0  0  0  0
    2.7261   -2.5100   -0.0000 N   0  0  0  0  0  0  0  0  0  0  0  0
    1.2610   -0.7086   -0.0000 C   0  0  0  0  0  0  0  0  0  0  0  0
    0.2642   -3.3266   -0.0000 C   0  0  0  0  0  0  0  0  0  0  0  0
    2.5460    0.0600   -0.0000 O   0  0  0  0  0  0  0  0  0  0  0  0
   -1.1169   -2.7141   -0.0000 C   0  0  0  0  0  0  0  0  0  0  0  0
   -2.4379   -3.4347   -0.0000 C   0  0  0  0  0  0  0  0  0  0  0  0
   -3.7349   -2.7021   -0.0000 C   0  0  0  0  0  0  0  0  0  0  0  0
   -2.4379   -4.9479   -0.0000 C   0  0  0  0  0  0  0  0  0  0  0  0
   -5.0319   -3.4347   -0.0000 C   0  0  0  0  0  0  0  0  0  0  0  0
   -3.7469   -5.6804   -0.0000 C   0  0  0  0  0  0  0  0  0  0  0  0
   -5.0439   -4.9118   -0.0000 C   0  0  0  0  0  0  0  0  0  0  0  0
   -6.3409   -2.6661   -0.0000 C   0  0  0  0  0  0  0  0  0  0  0  0
   -6.3409   -5.6444   -0.0000 C   0  0  0  0  0  0  0  0  0  0  0  0
   -7.6500   -3.4107   -0.0000 C   0  0  0  0  0  0  0  0  0  0  0  0
   -7.6500   -4.8878   -0.0000 C   0  0  0  0  0  0  0  0  0  0  0  0
   -8.9590   -5.6204   -0.0000 C   0  0  0  0  0  0  0  0  0  0  0  0
  -10.2680   -4.8638   -0.0000 C   0  0  0  0  0  0  0  0  0  0  0  0
  -11.5770   -5.5964   -0.0000 C   0  0  0  0  0  0  0  0  0  0  0  0
  -12.8861   -4.8398   -0.0000 C   0  0  0  0  0  0  0  0  0  0  0  0
  -14.1951   -5.5723   -0.0000 C   0  0  0  0  0  0  0  0  0  0  0  0
  -15.5041   -4.8158   -0.0000 C   0  0  0  0  0  0  0  0  0  0  0  0
  -16.8131   -5.5483   -0.0000 C   0  0  0  0  0  0  0  0  0  0  0  0
  -18.1221   -4.7917   -0.0000 C   0  0  0  0  0  0  0  0  0  0  0  0
  1  2  1  0  0  0  0
  2  3  1  0  0  0  0
  3  4  1  0  0  0  0
  3  5  1  0  0  0  0
  3  6  1  0  0  0  0
  5  7  1  0  0  0  0
  6  8  1  0  0  0  0
  8  9  1  0  0  0  0
  9 10  2  0  0  0  0
  9 11  1  0  0  0  0
 10 12  1  0  0  0  0
 11 13  2  0  0  0  0
 12 14  2  0  0  0  0
 12 15  1  0  0  0  0
 14 16  1  0  0  0  0
 15 17  1  0  0  0  0
 16 18  1  0  0  0  0
 18 19  1  0  0  0  0
 19 20  1  0  0  0  0
 20 21  1  0  0  0  0
 21 22  1  0  0  0  0
 22 23  1  0  0  0  0
 23 24  1  0  0  0  0
 24 25  1  0  0  0  0
 25 26  1  0  0  0  0
 13 14  1  0  0  0  0
 17 18  1  0  0  0  0
M  END
>  <MolRegNo>
2498281

>  <m>
=

>  <Value>
10400

>  <Unit>
nM

>  <Type>
IC50

>  <pValue>
4.98

>  <Ligand Efficiency>
0

>  <Binding Efficiency>
0

>  <Surface Efficiency>
0

>  <Assay Index>
1419853

>  <Assay Category>


>  <Assay Organism>
Homo sapiens

>  <Target ID>
17045

>  <Target Name>
Cytochrome P450 3A4

>  <Target Organism>
Homo sapiens

>  <Target Description>
Target is a single protein chain

>  <Sequence Accession>
P08684

>  <Reference>
J Med Chem 59 (24.0), 11138-11147 (2016)

>  <Pubmed ID>
28002964

>  <DOI>
10.1021/acs.jmedchem.6b01433

$$$$
2085515
Actelion Java MolfileCreator 1.0

 24 26  0  0  1  0  0  0  0  0999 V2000
    0.0000   -0.0000   -0.0000 O   0  0  0  0  0  0  0  0  0  0  0  0
   -1.0091    1.1147   -0.0000 C   0  0  0  0  0  0  0  0  0  0  0  0
   -0.5632    2.5463   -0.0000 C   0  0  0  0  0  0  0  0  0  0  0  0
    0.7862    1.9479   -0.0000 N   0  0  0  0  0  0  0  0  0  0  0  0
   -2.0300    2.8631   -0.0000 C   0  0  0  0  0  0  0  0  0  0  0  0
    0.1760    3.8488   -0.0000 C   0  0  0  0  0  0  0  0  0  0  0  0
   -2.1943    4.3533   -0.0000 C   0  0  0  0  0  0  0  0  0  0  0  0
   -0.8331    4.9635   -0.0000 C   0  0  0  0  0  0  0  0  0  0  0  0
   -3.4968    5.1043   -0.0000 C   0  0  0  0  0  0  0  0  0  0  0  0
   -4.7992    4.3768   -0.0000 C   0  0  0  0  0  0  0  0  0  0  0  0
   -3.5085    6.6063   -0.0000 C   0  0  0  0  0  0  0  0  0  0  0  0
   -6.1017    5.1278   -0.0000 C   0  0  0  0  0  0  0  0  0  0  0  0
   -4.8110    7.3690   -0.0000 C   0  0  0  0  0  0  0  0  0  0  0  0
   -6.1134    6.6297   -0.0000 C   0  0  0  0  0  0  0  0  0  0  0  0
   -7.4042    4.4003   -0.0000 C   0  0  0  0  0  0  0  0  0  0  0  0
   -7.4159    7.3925   -0.0000 C   0  0  0  0  0  0  0  0  0  0  0  0
   -8.7067    5.1513   -0.0000 C   0  0  0  0  0  0  0  0  0  0  0  0
   -8.7184    6.6532   -0.0000 C   0  0  0  0  0  0  0  0  0  0  0  0
  -10.0209    7.4159   -0.0000 C   0  0  0  0  0  0  0  0  0  0  0  0
  -11.3234    6.6767   -0.0000 C   0  0  0  0  0  0  0  0  0  0  0  0
  -12.6259    7.4394   -0.0000 C   0  0  0  0  0  0  0  0  0  0  0  0
  -12.6376    8.9414   -0.0000 C   0  0  0  0  0  0  0  0  0  0  0  0
  -13.9401    9.6923   -0.0000 C   0  0  0  0  0  0  0  0  0  0  0  0
  -15.2426    8.9648   -0.0000 C   0  0  0  0  0  0  0  0  0  0  0  0
  1  2  1  0  0  0  0
  2  3  1  0  0  0  0
  3  4  1  1  0  0  0
  3  5  1  0  0  0  0
  3  6  1  0  0  0  0
  5  7  1  0  0  0  0
  6  8  1  0  0  0  0
  7  9  1  1  0  0  0
  9 10  2  0  0  0  0
  9 11  1  0  0  0  0
 10 12  1  0  0  0  0
 11 13  2  0  0  0  0
 12 14  2  0  0  0  0
 12 15  1  0  0  0  0
 14 16  1  0  0  0  0
 15 17  1  0  0  0  0
 16 18  1  0  0  0  0
 18 19  1  1  0  0  0
 19 20  1  0  0  0  0
 20 21  1  0  0  0  0
 21 22  1  0  0  0  0
 22 23  1  0  0  0  0
 23 24  1  0  0  0  0
  7  8  1  0  0  0  0
 13 14  1  0  0  0  0
 17 18  1  0  0  0  0
M  END
>  <MolRegNo>
2085515

>  <m>
=

>  <Value>
19000

>  <Unit>
nM

>  <Type>
IC50

>  <pValue>
4.72

>  <Ligand Efficiency>
0

>  <Binding Efficiency>
0

>  <Surface Efficiency>
0

>  <Assay Index>
1419853

>  <Assay Category>


>  <Assay Organism>
Homo sapiens

>  <Target ID>
17045

>  <Target Name>
Cytochrome P450 3A4

>  <Target Organism>
Homo sapiens

>  <Target Description>
Target is a single protein chain

>  <Sequence Accession>
P08684

>  <Reference>
J Med Chem 59 (24.0), 11138-11147 (2016)

>  <Pubmed ID>
28002964

>  <DOI>
10.1021/acs.jmedchem.6b01433

$$$$
2503035
Actelion Java MolfileCreator 1.0

 30 34  0  0  0  0  0  0  0  0999 V2000
    0.0000   -0.0000   -0.0000 O   0  0  0  0  0  0  0  0  0  0  0  0
    0.0119    1.4965   -0.0000 C   0  0  0  0  0  0  0  0  0  0  0  0
   -1.2827    2.2685   -0.0000 N   0  0  0  0  0  0  0  0  0  0  0  0
    1.2946    2.2329   -0.0000 C   0  0  0  0  0  0  0  0  0  0  0  0
   -2.6011    1.5559   -0.0000 C   0  0  0  0  0  0  0  0  0  0  0  0
   -1.2708    3.7769   -0.0000 C   0  0  0  0  0  0  0  0  0  0  0  0
    2.5654    1.4846   -0.0000 C   0  0  0  0  0  0  0  0  0  0  0  0
   -3.8838    2.3279   -0.0000 C   0  0  0  0  0  0  0  0  0  0  0  0
   -2.5654    4.5489   -0.0000 C   0  0  0  0  0  0  0  0  0  0  0  0
   -3.8719    3.8244   -0.0000 C   0  0  0  0  0  0  0  0  0  0  0  0
   -5.1665    4.5964   -0.0000 C   0  0  0  0  0  0  0  0  0  0  0  0
   -5.1665    6.0929   -0.0000 N   0  0  0  0  0  0  0  0  0  0  0  0
   -6.6155    6.5679   -0.0000 C   0  0  0  0  0  0  0  0  0  0  0  0
   -4.2876    7.3281   -0.0000 C   0  0  0  0  0  0  0  0  0  0  0  0
   -7.9219    5.8316   -0.0000 N   0  0  0  0  0  0  0  0  0  0  0  0
   -6.6273    8.0882   -0.0000 C   0  0  0  0  0  0  0  0  0  0  0  0
   -5.1902    8.5514   -0.0000 C   0  0  0  0  0  0  0  0  0  0  0  0
   -9.2284    6.5917   -0.0000 C   0  0  0  0  0  0  0  0  0  0  0  0
   -7.9338    8.8483   -0.0000 C   0  0  0  0  0  0  0  0  0  0  0  0
   -4.7389    9.9766   -0.0000 C   0  0  0  0  0  0  0  0  0  0  0  0
   -9.1809    8.0526   -0.0000 N   0  0  0  0  0  0  0  0  0  0  0  0
   -7.9932   10.3567   -0.0000 N   0  0  0  0  0  0  0  0  0  0  0  0
   -3.2899   10.2973   -0.0000 C   0  0  0  0  0  0  0  0  0  0  0  0
   -5.7484   11.0931   -0.0000 C   0  0  0  0  0  0  0  0  0  0  0  0
   -2.8386   11.7225   -0.0000 C   0  0  0  0  0  0  0  0  0  0  0  0
   -5.3090   12.5183   -0.0000 C   0  0  0  0  0  0  0  0  0  0  0  0
   -1.4846   12.3401   -0.0000 O   0  0  0  0  0  0  0  0  0  0  0  0
   -3.8481   12.8509   -0.0000 C   0  0  0  0  0  0  0  0  0  0  0  0
   -1.6509   13.8366   -0.0000 C   0  0  0  0  0  0  0  0  0  0  0  0
   -3.1118   14.1573   -0.0000 O   0  0  0  0  0  0  0  0  0  0  0  0
  1  2  2  0  0  0  0
  2  3  1  0  0  0  0
  2  4  1  0  0  0  0
  3  5  1  0  0  0  0
  3  6  1  0  0  0  0
  4  7  2  0  0  0  0
  5  8  1  0  0  0  0
  6  9  1  0  0  0  0
  8 10  1  0  0  0  0
 10 11  1  0  0  0  0
 11 12  1  0  0  0  0
 12 13  1  0  0  0  0
 12 14  1  0  0  0  0
 13 15  2  0  0  0  0
 13 16  1  0  0  0  0
 14 17  2  0  0  0  0
 15 18  1  0  0  0  0
 16 19  2  0  0  0  0
 17 20  1  0  0  0  0
 18 21  2  0  0  0  0
 19 22  1  0  0  0  0
 20 23  2  0  0  0  0
 20 24  1  0  0  0  0
 23 25  1  0  0  0  0
 24 26  2  0  0  0  0
 25 27  1  0  0  0  0
 25 28  2  0  0  0  0
 27 29  1  0  0  0  0
 28 30  1  0  0  0  0
  9 10  1  0  0  0  0
 16 17  1  0  0  0  0
 19 21  1  0  0  0  0
 26 28  1  0  0  0  0
 29 30  1  0  0  0  0
M  END
>  <MolRegNo>
2503035

>  <m>
=

>  <Value>
3190

>  <Unit>
nM

>  <Type>
IC50

>  <pValue>
5.5

>  <Ligand Efficiency>
0

>  <Binding Efficiency>
0

>  <Surface Efficiency>
0

>  <Assay Index>
1420155

>  <Assay Category>


>  <Assay Organism>
Homo sapiens

>  <Target ID>
17045

>  <Target Name>
Cytochrome P450 3A4

>  <Target Organism>
Homo sapiens

>  <Target Description>
Target is a single protein chain

>  <Sequence Accession>
P08684

>  <Reference>


>  <Pubmed ID>
29324347

>  <DOI>
10.1016/j.ejmech.2017.12.079

$$$$
2531169
Actelion Java MolfileCreator 1.0

 29 32  0  0  0  0  0  0  0  0999 V2000
    0.0000   -0.0000   -0.0000 O   0  0  0  0  0  0  0  0  0  0  0  0
   -0.0119   -1.4833   -0.0000 C   0  0  0  0  0  0  0  0  0  0  0  0
    1.2697   -2.2190   -0.0000 N   0  0  0  0  0  0  0  0  0  0  0  0
   -1.3172   -2.2190   -0.0000 C   0  0  0  0  0  0  0  0  0  0  0  0
    1.2578   -3.7023   -0.0000 C   0  0  0  0  0  0  0  0  0  0  0  0
    2.5513   -1.4477   -0.0000 C   0  0  0  0  0  0  0  0  0  0  0  0
   -1.3290   -3.7142   -0.0000 C   0  0  0  0  0  0  0  0  0  0  0  0
   -2.6225   -1.4596   -0.0000 C   0  0  0  0  0  0  0  0  0  0  0  0
    2.5394   -4.4380   -0.0000 C   0  0  0  0  0  0  0  0  0  0  0  0
    3.8447   -2.1834   -0.0000 C   0  0  0  0  0  0  0  0  0  0  0  0
   -2.6462   -4.4499   -0.0000 C   0  0  0  0  0  0  0  0  0  0  0  0
   -3.9278   -2.1953   -0.0000 C   0  0  0  0  0  0  0  0  0  0  0  0
    3.8210   -3.6786   -0.0000 O   0  0  0  0  0  0  0  0  0  0  0  0
   -2.6581   -5.9332   -0.0000 O   0  0  0  0  0  0  0  0  0  0  0  0
   -3.9515   -3.6905   -0.0000 C   0  0  0  0  0  0  0  0  0  0  0  0
   -1.3765   -6.6689   -0.0000 C   0  0  0  0  0  0  0  0  0  0  0  0
   -5.2568   -4.4262   -0.0000 N   0  0  0  0  0  0  0  0  0  0  0  0
   -6.5621   -3.6667   -0.0000 C   0  0  0  0  0  0  0  0  0  0  0  0
   -6.5621   -2.1597   -0.0000 N   0  0  0  0  0  0  0  0  0  0  0  0
   -7.8556   -4.4024   -0.0000 N   0  0  0  0  0  0  0  0  0  0  0  0
   -7.8674   -1.4002   -0.0000 C   0  0  0  0  0  0  0  0  0  0  0  0
   -9.1609   -3.6430   -0.0000 C   0  0  0  0  0  0  0  0  0  0  0  0
   -7.8793    0.1068   -0.0000 O   0  0  0  0  0  0  0  0  0  0  0  0
   -9.1846   -2.1360   -0.0000 C   0  0  0  0  0  0  0  0  0  0  0  0
  -10.6086   -4.1058   -0.0000 N   0  0  0  0  0  0  0  0  0  0  0  0
   -9.1846    0.8662   -0.0000 C   0  0  0  0  0  0  0  0  0  0  0  0
  -10.6323   -1.6613   -0.0000 C   0  0  0  0  0  0  0  0  0  0  0  0
  -11.5104   -2.8717   -0.0000 C   0  0  0  0  0  0  0  0  0  0  0  0
   -9.1965    2.3733   -0.0000 C   0  0  0  0  0  0  0  0  0  0  0  0
  1  2  2  0  0  0  0
  2  3  1  0  0  0  0
  2  4  1  0  0  0  0
  3  5  1  0  0  0  0
  3  6  1  0  0  0  0
  4  7  2  0  0  0  0
  4  8  1  0  0  0  0
  5  9  1  0  0  0  0
  6 10  1  0  0  0  0
  7 11  1  0  0  0  0
  8 12  2  0  0  0  0
  9 13  1  0  0  0  0
 11 14  1  0  0  0  0
 11 15  2  0  0  0  0
 14 16  1  0  0  0  0
 15 17  1  0  0  0  0
 17 18  1  0  0  0  0
 18 19  2  0  0  0  0
 18 20  1  0  0  0  0
 19 21  1  0  0  0  0
 20 22  2  0  0  0  0
 21 23  1  0  0  0  0
 21 24  2  0  0  0  0
 22 25  1  0  0  0  0
 23 26  1  0  0  0  0
 24 27  1  0  0  0  0
 25 28  1  0  0  0  0
 26 29  1  0  0  0  0
 10 13  1  0  0  0  0
 12 15  1  0  0  0  0
 22 24  1  0  0  0  0
 27 28  2  0  0  0  0
M  END
>  <MolRegNo>
2531169

>  <m>
=

>  <Value>
158490

>  <Unit>
nM

>  <Type>
IC50

>  <pValue>
0

>  <Ligand Efficiency>
0

>  <Binding Efficiency>
0

>  <Surface Efficiency>
0

>  <Assay Index>
1421223

>  <Assay Category>


>  <Assay Organism>
Homo sapiens

>  <Target ID>
17045

>  <Target Name>
Cytochrome P450 3A4

>  <Target Organism>
Homo sapiens

>  <Target Description>
Target is a single protein chain

>  <Sequence Accession>
P08684

>  <Reference>
Bioorg Med Chem Lett 28 (9.0), 1615-1620 (2018)

>  <Pubmed ID>
29588215

>  <DOI>
10.1016/j.bmcl.2018.03.045

$$$$
1763582
Actelion Java MolfileCreator 1.0

 35 39  0  0  0  0  0  0  0  0999 V2000
    0.0000   -0.0000   -0.0000 O   0  0  0  0  0  0  0  0  0  0  0  0
    1.4598   -0.2967   -0.0000 C   0  0  0  0  0  0  0  0  0  0  0  0
    1.9108   -1.7209   -0.0000 N   0  0  0  0  0  0  0  0  0  0  0  0
    2.4568    0.8308   -0.0000 C   0  0  0  0  0  0  0  0  0  0  0  0
    0.8901   -2.8247   -0.0000 C   0  0  0  0  0  0  0  0  0  0  0  0
    3.3706   -2.0176   -0.0000 C   0  0  0  0  0  0  0  0  0  0  0  0
    1.9820    2.2787   -0.0000 C   0  0  0  0  0  0  0  0  0  0  0  0
    3.9166    0.5341   -0.0000 C   0  0  0  0  0  0  0  0  0  0  0  0
    1.3411   -4.2489   -0.0000 C   0  0  0  0  0  0  0  0  0  0  0  0
    3.8216   -3.4418   -0.0000 C   0  0  0  0  0  0  0  0  0  0  0  0
    2.9790    3.4062   -0.0000 C   0  0  0  0  0  0  0  0  0  0  0  0
    4.9135    1.6616   -0.0000 C   0  0  0  0  0  0  0  0  0  0  0  0
    2.8009   -4.5456   -0.0000 N   0  0  0  0  0  0  0  0  0  0  0  0
    4.4388    3.1095   -0.0000 C   0  0  0  0  0  0  0  0  0  0  0  0
    3.2519   -5.9698   -0.0000 C   0  0  0  0  0  0  0  0  0  0  0  0
    2.2313   -7.0736   -0.0000 O   0  0  0  0  0  0  0  0  0  0  0  0
    4.7118   -6.2665   -0.0000 C   0  0  0  0  0  0  0  0  0  0  0  0
    5.7087   -5.1390   -0.0000 O   0  0  0  0  0  0  0  0  0  0  0  0
    5.1627   -7.6907   -0.0000 C   0  0  0  0  0  0  0  0  0  0  0  0
    6.5870   -8.1417   -0.0000 C   0  0  0  0  0  0  0  0  0  0  0  0
    4.2608   -8.9013   -0.0000 C   0  0  0  0  0  0  0  0  0  0  0  0
    7.8806   -7.3821   -0.0000 C   0  0  0  0  0  0  0  0  0  0  0  0
    6.5751   -9.6371   -0.0000 C   0  0  0  0  0  0  0  0  0  0  0  0
    5.1390  -10.1119   -0.0000 N   0  0  0  0  0  0  0  0  0  0  0  0
    7.8687   -5.8630   -0.0000 O   0  0  0  0  0  0  0  0  0  0  0  0
    9.1743   -8.1298   -0.0000 C   0  0  0  0  0  0  0  0  0  0  0  0
    7.8687  -10.3730   -0.0000 C   0  0  0  0  0  0  0  0  0  0  0  0
    9.1624   -5.1034   -0.0000 C   0  0  0  0  0  0  0  0  0  0  0  0
    9.1624   -9.6253   -0.0000 N   0  0  0  0  0  0  0  0  0  0  0  0
    7.8569  -11.8684   -0.0000 N   0  0  0  0  0  0  0  0  0  0  0  0
    9.0675  -12.7467   -0.0000 N   0  0  0  0  0  0  0  0  0  0  0  0
    6.6226  -12.7467   -0.0000 C   0  0  0  0  0  0  0  0  0  0  0  0
    8.5927  -14.1709   -0.0000 C   0  0  0  0  0  0  0  0  0  0  0  0
    7.0736  -14.1709   -0.0000 N   0  0  0  0  0  0  0  0  0  0  0  0
    9.4710  -15.3814   -0.0000 C   0  0  0  0  0  0  0  0  0  0  0  0
  1  2  2  0  0  0  0
  2  3  1  0  0  0  0
  2  4  1  0  0  0  0
  3  5  1  0  0  0  0
  3  6  1  0  0  0  0
  4  7  2  0  0  0  0
  4  8  1  0  0  0  0
  5  9  1  0  0  0  0
  6 10  1  0  0  0  0
  7 11  1  0  0  0  0
  8 12  2  0  0  0  0
  9 13  1  0  0  0  0
 11 14  2  0  0  0  0
 13 15  1  0  0  0  0
 15 16  2  0  0  0  0
 15 17  1  0  0  0  0
 17 18  2  0  0  0  0
 17 19  1  0  0  0  0
 19 20  1  0  0  0  0
 19 21  2  0  0  0  0
 20 22  2  0  0  0  0
 20 23  1  0  0  0  0
 21 24  1  0  0  0  0
 22 25  1  0  0  0  0
 22 26  1  0  0  0  0
 23 27  2  0  0  0  0
 25 28  1  0  0  0  0
 26 29  2  0  0  0  0
 27 30  1  0  0  0  0
 30 31  1  0  0  0  0
 30 32  1  0  0  0  0
 31 33  2  0  0  0  0
 32 34  2  0  0  0  0
 33 35  1  0  0  0  0
 10 13  1  0  0  0  0
 12 14  1  0  0  0  0
 23 24  1  0  0  0  0
 27 29  1  0  0  0  0
 33 34  1  0  0  0  0
M  END
>  <MolRegNo>
1763582

>  <m>
=

>  <Value>
25000

>  <Unit>
nM

>  <Type>
IC50

>  <pValue>
4.6

>  <Ligand Efficiency>
0

>  <Binding Efficiency>
0

>  <Surface Efficiency>
0

>  <Assay Index>
1421684

>  <Assay Category>


>  <Assay Organism>
Homo sapiens

>  <Target ID>
17045

>  <Target Name>
Cytochrome P450 3A4

>  <Target Organism>
Homo sapiens

>  <Target Description>
Target is a single protein chain

>  <Sequence Accession>
P08684

>  <Reference>


>  <Pubmed ID>
29860061

>  <DOI>
10.1016/j.ejmech.2018.04.062

$$$$
2526367
Actelion Java MolfileCreator 1.0

 76 81  0  0  0  0  0  0  0  0999 V2000
    0.0000   -0.0000   -0.0000 O   0  0  0  0  0  0  0  0  0  0  0  0
   -1.4000   -0.5294   -0.0000 C   0  0  0  0  0  0  0  0  0  0  0  0
   -1.6471   -2.0000   -0.0000 N   0  0  0  0  0  0  0  0  0  0  0  0
   -2.5765    0.4118   -0.0000 C   0  0  0  0  0  0  0  0  0  0  0  0
   -0.4941   -2.9294   -0.0000 C   0  0  0  0  0  0  0  0  0  0  0  0
   -2.5177    1.9177   -0.0000 N   0  0  0  0  0  0  0  0  0  0  0  0
   -4.0353    0.0353   -0.0000 C   0  0  0  0  0  0  0  0  0  0  0  0
    0.8941   -2.3765   -0.0000 C   0  0  0  0  0  0  0  0  0  0  0  0
   -0.7294   -4.3883   -0.0000 C   0  0  0  0  0  0  0  0  0  0  0  0
   -1.2824    2.7530   -0.0000 C   0  0  0  0  0  0  0  0  0  0  0  0
   -3.9294    2.4588   -0.0000 C   0  0  0  0  0  0  0  0  0  0  0  0
   -4.8706    1.2941   -0.0000 C   0  0  0  0  0  0  0  0  0  0  0  0
    1.1177   -0.8941   -0.0000 O   0  0  0  0  0  0  0  0  0  0  0  0
    2.0471   -3.3059   -0.0000 C   0  0  0  0  0  0  0  0  0  0  0  0
    0.4118   -5.3177   -0.0000 C   0  0  0  0  0  0  0  0  0  0  0  0
    0.0353    2.0941   -0.0000 O   0  0  0  0  0  0  0  0  0  0  0  0
   -1.4471    4.2471   -0.0000 C   0  0  0  0  0  0  0  0  0  0  0  0
    2.5059   -0.3412   -0.0000 C   0  0  0  0  0  0  0  0  0  0  0  0
    1.8000   -4.7647   -0.0000 C   0  0  0  0  0  0  0  0  0  0  0  0
    0.1647   -6.7765   -0.0000 C   0  0  0  0  0  0  0  0  0  0  0  0
   -0.2471    5.1412   -0.0000 N   0  0  0  0  0  0  0  0  0  0  0  0
   -2.8353    4.8706   -0.0000 C   0  0  0  0  0  0  0  0  0  0  0  0
    2.9530   -5.6942   -0.0000 N   0  0  0  0  0  0  0  0  0  0  0  0
   -1.2471   -7.2942   -0.0000 O   0  0  0  0  0  0  0  0  0  0  0  0
    1.3059   -7.7059   -0.0000 N   0  0  0  0  0  0  0  0  0  0  0  0
   -0.4118    6.6354   -0.0000 C   0  0  0  0  0  0  0  0  0  0  0  0
   -3.9177    5.9412   -0.0000 C   0  0  0  0  0  0  0  0  0  0  0  0
   -2.4706    6.3412   -0.0000 C   0  0  0  0  0  0  0  0  0  0  0  0
   -4.0471    4.0000   -0.0000 C   0  0  0  0  0  0  0  0  0  0  0  0
    2.7059   -7.1530   -0.0000 C   0  0  0  0  0  0  0  0  0  0  0  0
   -2.4236   -6.3295   -0.0000 C   0  0  0  0  0  0  0  0  0  0  0  0
   -1.7883    7.2589   -0.0000 O   0  0  0  0  0  0  0  0  0  0  0  0
    0.7882    7.5295   -0.0000 C   0  0  0  0  0  0  0  0  0  0  0  0
   -3.8353   -6.8471   -0.0000 C   0  0  0  0  0  0  0  0  0  0  0  0
    0.6235    9.0236   -0.0000 N   0  0  0  0  0  0  0  0  0  0  0  0
    2.1412    6.9295   -0.0000 C   0  0  0  0  0  0  0  0  0  0  0  0
   -5.2471   -7.3648   -0.0000 C   0  0  0  0  0  0  0  0  0  0  0  0
   -0.7529    9.6471   -0.0000 C   0  0  0  0  0  0  0  0  0  0  0  0
   -6.5883   -7.8707   -0.0000 C   0  0  0  0  0  0  0  0  0  0  0  0
   -8.0354   -8.4236   -0.0000 C   0  0  0  0  0  0  0  0  0  0  0  0
   -9.4354   -8.9765   -0.0000 C   0  0  0  0  0  0  0  0  0  0  0  0
  -10.6354   -8.0471   -0.0000 O   0  0  0  0  0  0  0  0  0  0  0  0
  -12.0354   -8.6001   -0.0000 C   0  0  0  0  0  0  0  0  0  0  0  0
  -12.2472  -10.0707   -0.0000 N   0  0  0  0  0  0  0  0  0  0  0  0
  -13.2236   -7.6824   -0.0000 C   0  0  0  0  0  0  0  0  0  0  0  0
  -13.6472  -10.6236   -0.0000 C   0  0  0  0  0  0  0  0  0  0  0  0
  -14.6237   -8.2236   -0.0000 C   0  0  0  0  0  0  0  0  0  0  0  0
  -13.0236   -6.1883   -0.0000 C   0  0  0  0  0  0  0  0  0  0  0  0
  -14.8354   -9.6942   -0.0000 N   0  0  0  0  0  0  0  0  0  0  0  0
  -15.8119   -7.2942   -0.0000 C   0  0  0  0  0  0  0  0  0  0  0  0
  -14.2119   -5.2589   -0.0000 C   0  0  0  0  0  0  0  0  0  0  0  0
  -15.6237   -5.8118   -0.0000 C   0  0  0  0  0  0  0  0  0  0  0  0
  -14.0119   -3.7647   -0.0000 N   0  0  0  0  0  0  0  0  0  0  0  0
  -16.8119   -4.8824   -0.0000 O   0  0  0  0  0  0  0  0  0  0  0  0
  -15.2001   -2.8353   -0.0000 C   0  0  0  0  0  0  0  0  0  0  0  0
  -18.2119   -5.4353   -0.0000 C   0  0  0  0  0  0  0  0  0  0  0  0
  -16.6001   -3.3883   -0.0000 O   0  0  0  0  0  0  0  0  0  0  0  0
  -15.0001   -1.3412   -0.0000 C   0  0  0  0  0  0  0  0  0  0  0  0
  -16.0943   -0.2941   -0.0000 N   0  0  0  0  0  0  0  0  0  0  0  0
  -13.6942   -0.6235   -0.0000 C   0  0  0  0  0  0  0  0  0  0  0  0
  -17.5766   -0.5412   -0.0000 C   0  0  0  0  0  0  0  0  0  0  0  0
  -15.4472    1.0588   -0.0000 C   0  0  0  0  0  0  0  0  0  0  0  0
  -13.9648    0.8588   -0.0000 C   0  0  0  0  0  0  0  0  0  0  0  0
  -18.0943   -1.9412   -0.0000 O   0  0  0  0  0  0  0  0  0  0  0  0
  -18.5531    0.6118   -0.0000 C   0  0  0  0  0  0  0  0  0  0  0  0
  -20.0355    0.3647   -0.0000 N   0  0  0  0  0  0  0  0  0  0  0  0
  -18.0590    2.0353   -0.0000 C   0  0  0  0  0  0  0  0  0  0  0  0
  -21.0119    1.5177   -0.0000 C   0  0  0  0  0  0  0  0  0  0  0  0
  -18.6707    3.4236   -0.0000 C   0  0  0  0  0  0  0  0  0  0  0  0
  -17.1766    3.2589   -0.0000 C   0  0  0  0  0  0  0  0  0  0  0  0
  -16.6001    2.3059   -0.0000 C   0  0  0  0  0  0  0  0  0  0  0  0
  -20.5178    2.9294   -0.0000 O   0  0  0  0  0  0  0  0  0  0  0  0
  -22.4943    1.2706   -0.0000 C   0  0  0  0  0  0  0  0  0  0  0  0
  -23.4708    2.4236   -0.0000 N   0  0  0  0  0  0  0  0  0  0  0  0
  -23.0120   -0.1294   -0.0000 C   0  0  0  0  0  0  0  0  0  0  0  0
  -22.9767    3.8471   -0.0000 C   0  0  0  0  0  0  0  0  0  0  0  0
  1  2  2  0  0  0  0
  2  3  1  0  0  0  0
  4  2  1  6  0  0  0
  3  5  1  0  0  0  0
  4  6  1  0  0  0  0
  4  7  1  0  0  0  0
  5  8  1  0  0  0  0
  5  9  2  0  0  0  0
  6 10  1  0  0  0  0
  6 11  1  0  0  0  0
  7 12  1  0  0  0  0
  8 13  1  0  0  0  0
  8 14  2  0  0  0  0
  9 15  1  0  0  0  0
 10 16  2  0  0  0  0
 10 17  1  0  0  0  0
 13 18  1  0  0  0  0
 14 19  1  0  0  0  0
 15 20  2  0  0  0  0
 17 21  1  6  0  0  0
 17 22  1  0  0  0  0
 19 23  2  0  0  0  0
 20 24  1  0  0  0  0
 20 25  1  0  0  0  0
 21 26  1  0  0  0  0
 22 27  1  0  0  0  0
 22 28  1  0  0  0  0
 22 29  1  0  0  0  0
 23 30  1  0  0  0  0
 24 31  1  0  0  0  0
 26 32  2  0  0  0  0
 26 33  1  0  0  0  0
 31 34  1  0  0  0  0
 33 35  1  1  0  0  0
 33 36  1  0  0  0  0
 34 37  3  0  0  0  0
 35 38  1  0  0  0  0
 37 39  1  0  0  0  0
 39 40  3  0  0  0  0
 40 41  1  0  0  0  0
 41 42  1  0  0  0  0
 42 43  1  0  0  0  0
 43 44  2  0  0  0  0
 43 45  1  0  0  0  0
 44 46  1  0  0  0  0
 45 47  1  0  0  0  0
 45 48  2  0  0  0  0
 46 49  2  0  0  0  0
 47 50  2  0  0  0  0
 48 51  1  0  0  0  0
 50 52  1  0  0  0  0
 51 53  1  0  0  0  0
 52 54  1  0  0  0  0
 53 55  1  0  0  0  0
 54 56  1  0  0  0  0
 55 57  2  0  0  0  0
 58 55  1  1  0  0  0
 58 59  1  0  0  0  0
 58 60  1  0  0  0  0
 59 61  1  0  0  0  0
 59 62  1  0  0  0  0
 60 63  1  0  0  0  0
 61 64  2  0  0  0  0
 61 65  1  0  0  0  0
 65 66  1  1  0  0  0
 65 67  1  0  0  0  0
 66 68  1  0  0  0  0
 67 69  1  0  0  0  0
 67 70  1  0  0  0  0
 67 71  1  0  0  0  0
 68 72  2  0  0  0  0
 68 73  1  0  0  0  0
 73 74  1  6  0  0  0
 73 75  1  0  0  0  0
 74 76  1  0  0  0  0
 11 12  1  0  0  0  0
 15 19  1  0  0  0  0
 25 30  2  0  0  0  0
 47 49  1  0  0  0  0
 51 52  2  0  0  0  0
 62 63  1  0  0  0  0
M  END
>  <MolRegNo>
2526367

>  <m>
=

>  <Value>
240

>  <Unit>
nM

>  <Type>
IC50

>  <pValue>
6.62

>  <Ligand Efficiency>
0

>  <Binding Efficiency>
0

>  <Surface Efficiency>
0

>  <Assay Index>
1423611

>  <Assay Category>


>  <Assay Organism>
Homo sapiens

>  <Target ID>
17045

>  <Target Name>
Cytochrome P450 3A4

>  <Target Organism>
Homo sapiens

>  <Target Description>
Target is a single protein chain

>  <Sequence Accession>
P08684

>  <Reference>


>  <Pubmed ID>
33166687

>  <DOI>
10.1016/j.bmcl.2020.127676

$$$$
2487644
Actelion Java MolfileCreator 1.0

 74 79  0  0  0  0  0  0  0  0999 V2000
    0.0000   -0.0000   -0.0000 O   0  0  0  0  0  0  0  0  0  0  0  0
   -1.4460   -0.4131   -0.0000 C   0  0  0  0  0  0  0  0  0  0  0  0
   -1.8105   -1.8591   -0.0000 N   0  0  0  0  0  0  0  0  0  0  0  0
   -2.5396    0.6319   -0.0000 C   0  0  0  0  0  0  0  0  0  0  0  0
   -0.7412   -2.8798   -0.0000 C   0  0  0  0  0  0  0  0  0  0  0  0
   -2.3573    2.1265   -0.0000 N   0  0  0  0  0  0  0  0  0  0  0  0
   -4.0221    0.3767   -0.0000 C   0  0  0  0  0  0  0  0  0  0  0  0
    0.6926   -2.4424   -0.0000 C   0  0  0  0  0  0  0  0  0  0  0  0
   -1.1058   -4.3137   -0.0000 C   0  0  0  0  0  0  0  0  0  0  0  0
   -1.0572    2.8555   -0.0000 C   0  0  0  0  0  0  0  0  0  0  0  0
   -3.7183    2.7826   -0.0000 C   0  0  0  0  0  0  0  0  0  0  0  0
   -4.7390    1.7012   -0.0000 C   0  0  0  0  0  0  0  0  0  0  0  0
    1.0329   -0.9721   -0.0000 O   0  0  0  0  0  0  0  0  0  0  0  0
    1.7619   -3.4753   -0.0000 C   0  0  0  0  0  0  0  0  0  0  0  0
   -0.0365   -5.3344   -0.0000 C   0  0  0  0  0  0  0  0  0  0  0  0
    0.2066    2.0779   -0.0000 O   0  0  0  0  0  0  0  0  0  0  0  0
   -1.1058    4.3623   -0.0000 C   0  0  0  0  0  0  0  0  0  0  0  0
    2.4545   -0.5468   -0.0000 C   0  0  0  0  0  0  0  0  0  0  0  0
    1.3852   -4.9212   -0.0000 C   0  0  0  0  0  0  0  0  0  0  0  0
   -0.4010   -6.7682   -0.0000 C   0  0  0  0  0  0  0  0  0  0  0  0
    0.1580    5.1521   -0.0000 N   0  0  0  0  0  0  0  0  0  0  0  0
   -2.4302    5.0914   -0.0000 C   0  0  0  0  0  0  0  0  0  0  0  0
    2.4545   -5.9420   -0.0000 N   0  0  0  0  0  0  0  0  0  0  0  0
   -1.8470   -7.1692   -0.0000 O   0  0  0  0  0  0  0  0  0  0  0  0
    0.6562   -7.7889   -0.0000 N   0  0  0  0  0  0  0  0  0  0  0  0
    0.1094    6.6589   -0.0000 C   0  0  0  0  0  0  0  0  0  0  0  0
   -3.4266    6.2457   -0.0000 C   0  0  0  0  0  0  0  0  0  0  0  0
   -1.9442    6.5252   -0.0000 C   0  0  0  0  0  0  0  0  0  0  0  0
   -3.7183    4.3258   -0.0000 C   0  0  0  0  0  0  0  0  0  0  0  0
    2.0779   -7.3879   -0.0000 C   0  0  0  0  0  0  0  0  0  0  0  0
   -2.9406   -6.1121   -0.0000 C   0  0  0  0  0  0  0  0  0  0  0  0
   -1.2151    7.3879   -0.0000 O   0  0  0  0  0  0  0  0  0  0  0  0
    1.3731    7.4487   -0.0000 C   0  0  0  0  0  0  0  0  0  0  0  0
   -4.3866   -6.5131   -0.0000 C   0  0  0  0  0  0  0  0  0  0  0  0
    1.3245    8.9555   -0.0000 N   0  0  0  0  0  0  0  0  0  0  0  0
    2.6733    6.7439   -0.0000 C   0  0  0  0  0  0  0  0  0  0  0  0
   -5.9420   -6.9505   -0.0000 C   0  0  0  0  0  0  0  0  0  0  0  0
    0.0000    9.6845   -0.0000 C   0  0  0  0  0  0  0  0  0  0  0  0
   -7.2664   -7.3150   -0.0000 C   0  0  0  0  0  0  0  0  0  0  0  0
   -8.4208   -6.3429   -0.0000 O   0  0  0  0  0  0  0  0  0  0  0  0
   -9.8425   -6.8411   -0.0000 C   0  0  0  0  0  0  0  0  0  0  0  0
  -10.1220   -8.2993   -0.0000 N   0  0  0  0  0  0  0  0  0  0  0  0
  -10.9969   -5.8690   -0.0000 C   0  0  0  0  0  0  0  0  0  0  0  0
  -11.5558   -8.7975   -0.0000 C   0  0  0  0  0  0  0  0  0  0  0  0
  -12.4186   -6.3551   -0.0000 C   0  0  0  0  0  0  0  0  0  0  0  0
  -10.7417   -4.3866   -0.0000 C   0  0  0  0  0  0  0  0  0  0  0  0
  -12.7102   -7.8132   -0.0000 N   0  0  0  0  0  0  0  0  0  0  0  0
  -13.5608   -5.3830   -0.0000 C   0  0  0  0  0  0  0  0  0  0  0  0
  -11.8961   -3.4023   -0.0000 C   0  0  0  0  0  0  0  0  0  0  0  0
  -13.3056   -3.9005   -0.0000 C   0  0  0  0  0  0  0  0  0  0  0  0
  -11.6409   -1.9199   -0.0000 N   0  0  0  0  0  0  0  0  0  0  0  0
  -14.4600   -2.9163   -0.0000 O   0  0  0  0  0  0  0  0  0  0  0  0
  -12.7952   -0.9356   -0.0000 C   0  0  0  0  0  0  0  0  0  0  0  0
  -15.8817   -3.4145   -0.0000 C   0  0  0  0  0  0  0  0  0  0  0  0
  -14.2169   -1.4217   -0.0000 O   0  0  0  0  0  0  0  0  0  0  0  0
  -12.5401    0.5468   -0.0000 C   0  0  0  0  0  0  0  0  0  0  0  0
  -13.5851    1.6404   -0.0000 N   0  0  0  0  0  0  0  0  0  0  0  0
  -11.2034    1.2030   -0.0000 C   0  0  0  0  0  0  0  0  0  0  0  0
  -15.0797    1.4581   -0.0000 C   0  0  0  0  0  0  0  0  0  0  0  0
  -12.8803    2.9649   -0.0000 C   0  0  0  0  0  0  0  0  0  0  0  0
  -11.4100    2.6976   -0.0000 C   0  0  0  0  0  0  0  0  0  0  0  0
  -15.6629    0.0851   -0.0000 O   0  0  0  0  0  0  0  0  0  0  0  0
  -16.0032    2.6490   -0.0000 C   0  0  0  0  0  0  0  0  0  0  0  0
  -17.4978    2.4667   -0.0000 N   0  0  0  0  0  0  0  0  0  0  0  0
  -15.4442    4.0464   -0.0000 C   0  0  0  0  0  0  0  0  0  0  0  0
  -18.4213    3.6575   -0.0000 C   0  0  0  0  0  0  0  0  0  0  0  0
  -15.9910    5.4559   -0.0000 C   0  0  0  0  0  0  0  0  0  0  0  0
  -14.5086    5.2250   -0.0000 C   0  0  0  0  0  0  0  0  0  0  0  0
  -13.9739    4.2529   -0.0000 C   0  0  0  0  0  0  0  0  0  0  0  0
  -17.8623    5.0549   -0.0000 O   0  0  0  0  0  0  0  0  0  0  0  0
  -19.9159    3.4753   -0.0000 C   0  0  0  0  0  0  0  0  0  0  0  0
  -20.8394    4.6661   -0.0000 N   0  0  0  0  0  0  0  0  0  0  0  0
  -20.4991    2.1022   -0.0000 C   0  0  0  0  0  0  0  0  0  0  0  0
  -20.2804    6.0635   -0.0000 C   0  0  0  0  0  0  0  0  0  0  0  0
  1  2  2  0  0  0  0
  2  3  1  0  0  0  0
  4  2  1  6  0  0  0
  3  5  1  0  0  0  0
  4  6  1  0  0  0  0
  4  7  1  0  0  0  0
  5  8  1  0  0  0  0
  5  9  2  0  0  0  0
  6 10  1  0  0  0  0
  6 11  1  0  0  0  0
  7 12  1  0  0  0  0
  8 13  1  0  0  0  0
  8 14  2  0  0  0  0
  9 15  1  0  0  0  0
 10 16  2  0  0  0  0
 10 17  1  0  0  0  0
 13 18  1  0  0  0  0
 14 19  1  0  0  0  0
 15 20  2  0  0  0  0
 17 21  1  6  0  0  0
 17 22  1  0  0  0  0
 19 23  2  0  0  0  0
 20 24  1  0  0  0  0
 20 25  1  0  0  0  0
 21 26  1  0  0  0  0
 22 27  1  0  0  0  0
 22 28  1  0  0  0  0
 22 29  1  0  0  0  0
 23 30  1  0  0  0  0
 24 31  1  0  0  0  0
 26 32  2  0  0  0  0
 26 33  1  0  0  0  0
 31 34  1  0  0  0  0
 33 35  1  1  0  0  0
 33 36  1  0  0  0  0
 34 37  3  0  0  0  0
 35 38  1  0  0  0  0
 37 39  1  0  0  0  0
 39 40  1  0  0  0  0
 40 41  1  0  0  0  0
 41 42  2  0  0  0  0
 41 43  1  0  0  0  0
 42 44  1  0  0  0  0
 43 45  1  0  0  0  0
 43 46  2  0  0  0  0
 44 47  2  0  0  0  0
 45 48  2  0  0  0  0
 46 49  1  0  0  0  0
 48 50  1  0  0  0  0
 49 51  1  0  0  0  0
 50 52  1  0  0  0  0
 51 53  1  0  0  0  0
 52 54  1  0  0  0  0
 53 55  2  0  0  0  0
 56 53  1  1  0  0  0
 56 57  1  0  0  0  0
 56 58  1  0  0  0  0
 57 59  1  0  0  0  0
 57 60  1  0  0  0  0
 58 61  1  0  0  0  0
 59 62  2  0  0  0  0
 59 63  1  0  0  0  0
 63 64  1  1  0  0  0
 63 65  1  0  0  0  0
 64 66  1  0  0  0  0
 65 67  1  0  0  0  0
 65 68  1  0  0  0  0
 65 69  1  0  0  0  0
 66 70  2  0  0  0  0
 66 71  1  0  0  0  0
 71 72  1  6  0  0  0
 71 73  1  0  0  0  0
 72 74  1  0  0  0  0
 11 12  1  0  0  0  0
 15 19  1  0  0  0  0
 25 30  2  0  0  0  0
 45 47  1  0  0  0  0
 49 50  2  0  0  0  0
 60 61  1  0  0  0  0
M  END
>  <MolRegNo>
2487644

>  <m>
=

>  <Value>
860

>  <Unit>
nM

>  <Type>
IC50

>  <pValue>
6.07

>  <Ligand Efficiency>
0

>  <Binding Efficiency>
0

>  <Surface Efficiency>
0

>  <Assay Index>
1423611

>  <Assay Category>


>  <Assay Organism>
Homo sapiens

>  <Target ID>
17045

>  <Target Name>
Cytochrome P450 3A4

>  <Target Organism>
Homo sapiens

>  <Target Description>
Target is a single protein chain

>  <Sequence Accession>
P08684

>  <Reference>


>  <Pubmed ID>
33166687

>  <DOI>
10.1016/j.bmcl.2020.127676

$$$$
2532515
Actelion Java MolfileCreator 1.0

 78 83  0  0  0  0  0  0  0  0999 V2000
    0.0000   -0.0000   -0.0000 O   0  0  0  0  0  0  0  0  0  0  0  0
   -1.4467   -0.4117   -0.0000 C   0  0  0  0  0  0  0  0  0  0  0  0
   -1.8113   -1.8466   -0.0000 N   0  0  0  0  0  0  0  0  0  0  0  0
   -2.5405    0.6351   -0.0000 C   0  0  0  0  0  0  0  0  0  0  0  0
   -0.7410   -2.8698   -0.0000 C   0  0  0  0  0  0  0  0  0  0  0  0
   -2.3523    2.1288   -0.0000 N   0  0  0  0  0  0  0  0  0  0  0  0
   -4.0225    0.3764   -0.0000 C   0  0  0  0  0  0  0  0  0  0  0  0
    0.6939   -2.4346   -0.0000 C   0  0  0  0  0  0  0  0  0  0  0  0
   -1.1056   -4.3047   -0.0000 C   0  0  0  0  0  0  0  0  0  0  0  0
   -1.0468    2.8463   -0.0000 C   0  0  0  0  0  0  0  0  0  0  0  0
   -3.7049    2.7875   -0.0000 C   0  0  0  0  0  0  0  0  0  0  0  0
   -4.7399    1.7054   -0.0000 C   0  0  0  0  0  0  0  0  0  0  0  0
    1.0350   -0.9762   -0.0000 O   0  0  0  0  0  0  0  0  0  0  0  0
    1.7642   -3.4579   -0.0000 C   0  0  0  0  0  0  0  0  0  0  0  0
   -0.0470   -5.3280   -0.0000 C   0  0  0  0  0  0  0  0  0  0  0  0
    0.2117    2.0700   -0.0000 O   0  0  0  0  0  0  0  0  0  0  0  0
   -1.0938    4.3518   -0.0000 C   0  0  0  0  0  0  0  0  0  0  0  0
    2.4582   -0.5528   -0.0000 C   0  0  0  0  0  0  0  0  0  0  0  0
    1.3879   -4.8928   -0.0000 C   0  0  0  0  0  0  0  0  0  0  0  0
   -0.4117   -6.7629   -0.0000 C   0  0  0  0  0  0  0  0  0  0  0  0
    0.1764    5.1398   -0.0000 N   0  0  0  0  0  0  0  0  0  0  0  0
   -2.4229    5.0810   -0.0000 C   0  0  0  0  0  0  0  0  0  0  0  0
    2.4582   -5.9161   -0.0000 N   0  0  0  0  0  0  0  0  0  0  0  0
    0.6469   -7.7862   -0.0000 N   0  0  0  0  0  0  0  0  0  0  0  0
   -1.7289   -7.4804   -0.0000 N   0  0  0  0  0  0  0  0  0  0  0  0
    0.1294    6.6453   -0.0000 C   0  0  0  0  0  0  0  0  0  0  0  0
   -3.4109    6.2336   -0.0000 C   0  0  0  0  0  0  0  0  0  0  0  0
   -1.9407    6.5041   -0.0000 C   0  0  0  0  0  0  0  0  0  0  0  0
   -3.7049    4.3165   -0.0000 C   0  0  0  0  0  0  0  0  0  0  0  0
    2.0818   -7.3510   -0.0000 C   0  0  0  0  0  0  0  0  0  0  0  0
   -3.0227   -6.6923   -0.0000 C   0  0  0  0  0  0  0  0  0  0  0  0
   -1.1879    7.3745   -0.0000 O   0  0  0  0  0  0  0  0  0  0  0  0
    1.3996    7.4333   -0.0000 C   0  0  0  0  0  0  0  0  0  0  0  0
   -4.3400   -7.3980   -0.0000 C   0  0  0  0  0  0  0  0  0  0  0  0
    1.3526    8.9388   -0.0000 N   0  0  0  0  0  0  0  0  0  0  0  0
    2.6934    6.7276   -0.0000 C   0  0  0  0  0  0  0  0  0  0  0  0
   -5.6338   -6.6100   -0.0000 O   0  0  0  0  0  0  0  0  0  0  0  0
    0.0353    9.6680   -0.0000 C   0  0  0  0  0  0  0  0  0  0  0  0
   -6.9511   -7.3157   -0.0000 C   0  0  0  0  0  0  0  0  0  0  0  0
   -8.2449   -6.5277   -0.0000 C   0  0  0  0  0  0  0  0  0  0  0  0
   -9.5622   -7.2334   -0.0000 O   0  0  0  0  0  0  0  0  0  0  0  0
  -10.8559   -6.4453   -0.0000 C   0  0  0  0  0  0  0  0  0  0  0  0
  -12.1732   -7.1510   -0.0000 C   0  0  0  0  0  0  0  0  0  0  0  0
  -13.4670   -6.3630   -0.0000 N   0  0  0  0  0  0  0  0  0  0  0  0
  -14.7843   -7.0687   -0.0000 C   0  0  0  0  0  0  0  0  0  0  0  0
  -14.8196   -8.5507   -0.0000 N   0  0  0  0  0  0  0  0  0  0  0  0
  -16.0781   -6.2924   -0.0000 C   0  0  0  0  0  0  0  0  0  0  0  0
  -16.1486   -9.2681   -0.0000 C   0  0  0  0  0  0  0  0  0  0  0  0
  -17.4071   -6.9981   -0.0000 C   0  0  0  0  0  0  0  0  0  0  0  0
  -16.0545   -4.7870   -0.0000 C   0  0  0  0  0  0  0  0  0  0  0  0
  -17.4424   -8.4801   -0.0000 N   0  0  0  0  0  0  0  0  0  0  0  0
  -18.6891   -6.2101   -0.0000 C   0  0  0  0  0  0  0  0  0  0  0  0
  -17.3365   -3.9989   -0.0000 C   0  0  0  0  0  0  0  0  0  0  0  0
  -18.6656   -4.7046   -0.0000 C   0  0  0  0  0  0  0  0  0  0  0  0
  -17.3130   -2.4935   -0.0000 N   0  0  0  0  0  0  0  0  0  0  0  0
  -19.9594   -3.9166   -0.0000 O   0  0  0  0  0  0  0  0  0  0  0  0
  -18.6068   -1.7054   -0.0000 C   0  0  0  0  0  0  0  0  0  0  0  0
  -21.2767   -4.6223   -0.0000 C   0  0  0  0  0  0  0  0  0  0  0  0
  -19.9241   -2.4111   -0.0000 O   0  0  0  0  0  0  0  0  0  0  0  0
  -18.5833   -0.1999   -0.0000 C   0  0  0  0  0  0  0  0  0  0  0  0
  -19.7947    0.7175   -0.0000 N   0  0  0  0  0  0  0  0  0  0  0  0
  -17.3718    0.6586   -0.0000 C   0  0  0  0  0  0  0  0  0  0  0  0
  -21.2414    0.2940   -0.0000 C   0  0  0  0  0  0  0  0  0  0  0  0
  -19.3125    2.1406   -0.0000 C   0  0  0  0  0  0  0  0  0  0  0  0
  -17.8188    2.1053   -0.0000 C   0  0  0  0  0  0  0  0  0  0  0  0
  -21.5942   -1.1526   -0.0000 O   0  0  0  0  0  0  0  0  0  0  0  0
  -22.3470    1.3291   -0.0000 C   0  0  0  0  0  0  0  0  0  0  0  0
  -23.7936    0.9056   -0.0000 N   0  0  0  0  0  0  0  0  0  0  0  0
  -22.0176    2.7993   -0.0000 C   0  0  0  0  0  0  0  0  0  0  0  0
  -24.8992    1.9407   -0.0000 C   0  0  0  0  0  0  0  0  0  0  0  0
  -23.0879    3.8696   -0.0000 C   0  0  0  0  0  0  0  0  0  0  0  0
  -21.6413    4.2694   -0.0000 C   0  0  0  0  0  0  0  0  0  0  0  0
  -20.6063    3.2344   -0.0000 C   0  0  0  0  0  0  0  0  0  0  0  0
  -24.5699    3.4109   -0.0000 O   0  0  0  0  0  0  0  0  0  0  0  0
  -26.3459    1.5172   -0.0000 C   0  0  0  0  0  0  0  0  0  0  0  0
  -27.4515    2.5523   -0.0000 N   0  0  0  0  0  0  0  0  0  0  0  0
  -26.6987    0.0706   -0.0000 C   0  0  0  0  0  0  0  0  0  0  0  0
  -27.1222    4.0225   -0.0000 C   0  0  0  0  0  0  0  0  0  0  0  0
  1  2  2  0  0  0  0
  2  3  1  0  0  0  0
  4  2  1  6  0  0  0
  3  5  1  0  0  0  0
  4  6  1  0  0  0  0
  4  7  1  0  0  0  0
  5  8  1  0  0  0  0
  5  9  2  0  0  0  0
  6 10  1  0  0  0  0
  6 11  1  0  0  0  0
  7 12  1  0  0  0  0
  8 13  1  0  0  0  0
  8 14  2  0  0  0  0
  9 15  1  0  0  0  0
 10 16  2  0  0  0  0
 10 17  1  0  0  0  0
 13 18  1  0  0  0  0
 14 19  1  0  0  0  0
 15 20  2  0  0  0  0
 17 21  1  6  0  0  0
 17 22  1  0  0  0  0
 19 23  2  0  0  0  0
 20 24  1  0  0  0  0
 20 25  1  0  0  0  0
 21 26  1  0  0  0  0
 22 27  1  0  0  0  0
 22 28  1  0  0  0  0
 22 29  1  0  0  0  0
 23 30  1  0  0  0  0
 25 31  1  0  0  0  0
 26 32  2  0  0  0  0
 26 33  1  0  0  0  0
 31 34  1  0  0  0  0
 33 35  1  1  0  0  0
 33 36  1  0  0  0  0
 34 37  1  0  0  0  0
 35 38  1  0  0  0  0
 37 39  1  0  0  0  0
 39 40  1  0  0  0  0
 40 41  1  0  0  0  0
 41 42  1  0  0  0  0
 42 43  1  0  0  0  0
 43 44  1  0  0  0  0
 44 45  1  0  0  0  0
 45 46  2  0  0  0  0
 45 47  1  0  0  0  0
 46 48  1  0  0  0  0
 47 49  1  0  0  0  0
 47 50  2  0  0  0  0
 48 51  2  0  0  0  0
 49 52  2  0  0  0  0
 50 53  1  0  0  0  0
 52 54  1  0  0  0  0
 53 55  1  0  0  0  0
 54 56  1  0  0  0  0
 55 57  1  0  0  0  0
 56 58  1  0  0  0  0
 57 59  2  0  0  0  0
 60 57  1  1  0  0  0
 60 61  1  0  0  0  0
 60 62  1  0  0  0  0
 61 63  1  0  0  0  0
 61 64  1  0  0  0  0
 62 65  1  0  0  0  0
 63 66  2  0  0  0  0
 63 67  1  0  0  0  0
 67 68  1  1  0  0  0
 67 69  1  0  0  0  0
 68 70  1  0  0  0  0
 69 71  1  0  0  0  0
 69 72  1  0  0  0  0
 69 73  1  0  0  0  0
 70 74  2  0  0  0  0
 70 75  1  0  0  0  0
 75 76  1  6  0  0  0
 75 77  1  0  0  0  0
 76 78  1  0  0  0  0
 11 12  1  0  0  0  0
 15 19  1  0  0  0  0
 24 30  2  0  0  0  0
 49 51  1  0  0  0  0
 53 54  2  0  0  0  0
 64 65  1  0  0  0  0
M  END
>  <MolRegNo>
2532515

>  <m>
=

>  <Value>
5650

>  <Unit>
nM

>  <Type>
IC50

>  <pValue>
5.25

>  <Ligand Efficiency>
0

>  <Binding Efficiency>
0

>  <Surface Efficiency>
0

>  <Assay Index>
1423611

>  <Assay Category>


>  <Assay Organism>
Homo sapiens

>  <Target ID>
17045

>  <Target Name>
Cytochrome P450 3A4

>  <Target Organism>
Homo sapiens

>  <Target Description>
Target is a single protein chain

>  <Sequence Accession>
P08684

>  <Reference>


>  <Pubmed ID>
33166687

>  <DOI>
10.1016/j.bmcl.2020.127676

$$$$
2507997
Actelion Java MolfileCreator 1.0

 78 83  0  0  0  0  0  0  0  0999 V2000
    0.0000   -0.0000   -0.0000 O   0  0  0  0  0  0  0  0  0  0  0  0
   -1.4465   -0.4116   -0.0000 C   0  0  0  0  0  0  0  0  0  0  0  0
   -1.8110   -1.8463   -0.0000 N   0  0  0  0  0  0  0  0  0  0  0  0
   -2.5402    0.6350   -0.0000 C   0  0  0  0  0  0  0  0  0  0  0  0
   -0.7409   -2.8694   -0.0000 C   0  0  0  0  0  0  0  0  0  0  0  0
   -2.3520    2.1286   -0.0000 N   0  0  0  0  0  0  0  0  0  0  0  0
   -4.0219    0.3763   -0.0000 C   0  0  0  0  0  0  0  0  0  0  0  0
    0.6938   -2.4343   -0.0000 C   0  0  0  0  0  0  0  0  0  0  0  0
   -1.1054   -4.3042   -0.0000 C   0  0  0  0  0  0  0  0  0  0  0  0
   -1.0466    2.8459   -0.0000 C   0  0  0  0  0  0  0  0  0  0  0  0
   -3.7162    2.7871   -0.0000 C   0  0  0  0  0  0  0  0  0  0  0  0
   -4.7393    1.7052   -0.0000 C   0  0  0  0  0  0  0  0  0  0  0  0
    1.0349   -0.9761   -0.0000 O   0  0  0  0  0  0  0  0  0  0  0  0
    1.7640   -3.4574   -0.0000 C   0  0  0  0  0  0  0  0  0  0  0  0
   -0.0470   -5.3273   -0.0000 C   0  0  0  0  0  0  0  0  0  0  0  0
    0.2117    2.0698   -0.0000 O   0  0  0  0  0  0  0  0  0  0  0  0
   -1.0937    4.3512   -0.0000 C   0  0  0  0  0  0  0  0  0  0  0  0
    2.4578   -0.5527   -0.0000 C   0  0  0  0  0  0  0  0  0  0  0  0
    1.3994   -4.8922   -0.0000 C   0  0  0  0  0  0  0  0  0  0  0  0
   -0.4116   -6.7620   -0.0000 C   0  0  0  0  0  0  0  0  0  0  0  0
    0.1764    5.1391   -0.0000 N   0  0  0  0  0  0  0  0  0  0  0  0
   -2.4226    5.0803   -0.0000 C   0  0  0  0  0  0  0  0  0  0  0  0
    2.4696   -5.9153   -0.0000 N   0  0  0  0  0  0  0  0  0  0  0  0
    0.6468   -7.7851   -0.0000 N   0  0  0  0  0  0  0  0  0  0  0  0
   -1.7287   -7.4794   -0.0000 N   0  0  0  0  0  0  0  0  0  0  0  0
    0.1294    6.6444   -0.0000 C   0  0  0  0  0  0  0  0  0  0  0  0
   -3.4104    6.2328   -0.0000 C   0  0  0  0  0  0  0  0  0  0  0  0
   -1.9404    6.5033   -0.0000 C   0  0  0  0  0  0  0  0  0  0  0  0
   -3.7044    4.3159   -0.0000 C   0  0  0  0  0  0  0  0  0  0  0  0
    2.0933   -7.3500   -0.0000 C   0  0  0  0  0  0  0  0  0  0  0  0
   -3.0223   -6.6915   -0.0000 C   0  0  0  0  0  0  0  0  0  0  0  0
   -1.1878    7.3735   -0.0000 O   0  0  0  0  0  0  0  0  0  0  0  0
    1.3994    7.4323   -0.0000 C   0  0  0  0  0  0  0  0  0  0  0  0
   -4.3395   -7.3971   -0.0000 C   0  0  0  0  0  0  0  0  0  0  0  0
    1.3524    8.9376   -0.0000 N   0  0  0  0  0  0  0  0  0  0  0  0
    2.6930    6.7267   -0.0000 C   0  0  0  0  0  0  0  0  0  0  0  0
   -5.6331   -6.6091   -0.0000 C   0  0  0  0  0  0  0  0  0  0  0  0
    0.0353    9.6667   -0.0000 C   0  0  0  0  0  0  0  0  0  0  0  0
   -6.9502   -7.3147   -0.0000 C   0  0  0  0  0  0  0  0  0  0  0  0
   -8.2438   -6.5268   -0.0000 C   0  0  0  0  0  0  0  0  0  0  0  0
   -9.5609   -7.2324   -0.0000 C   0  0  0  0  0  0  0  0  0  0  0  0
  -10.8545   -6.4445   -0.0000 C   0  0  0  0  0  0  0  0  0  0  0  0
  -12.1716   -7.1501   -0.0000 C   0  0  0  0  0  0  0  0  0  0  0  0
  -13.4652   -6.3622   -0.0000 N   0  0  0  0  0  0  0  0  0  0  0  0
  -14.7824   -7.0678   -0.0000 C   0  0  0  0  0  0  0  0  0  0  0  0
  -14.8176   -8.5495   -0.0000 N   0  0  0  0  0  0  0  0  0  0  0  0
  -16.0760   -6.2916   -0.0000 C   0  0  0  0  0  0  0  0  0  0  0  0
  -16.1465   -9.2669   -0.0000 C   0  0  0  0  0  0  0  0  0  0  0  0
  -17.4048   -6.9972   -0.0000 C   0  0  0  0  0  0  0  0  0  0  0  0
  -16.0524   -4.7863   -0.0000 C   0  0  0  0  0  0  0  0  0  0  0  0
  -17.4401   -8.4790   -0.0000 N   0  0  0  0  0  0  0  0  0  0  0  0
  -18.6867   -6.2093   -0.0000 C   0  0  0  0  0  0  0  0  0  0  0  0
  -17.3343   -3.9984   -0.0000 C   0  0  0  0  0  0  0  0  0  0  0  0
  -18.6632   -4.7040   -0.0000 C   0  0  0  0  0  0  0  0  0  0  0  0
  -17.3108   -2.4931   -0.0000 N   0  0  0  0  0  0  0  0  0  0  0  0
  -19.9568   -3.9161   -0.0000 O   0  0  0  0  0  0  0  0  0  0  0  0
  -18.6044   -1.7052   -0.0000 C   0  0  0  0  0  0  0  0  0  0  0  0
  -21.2739   -4.6217   -0.0000 C   0  0  0  0  0  0  0  0  0  0  0  0
  -19.9215   -2.4108   -0.0000 O   0  0  0  0  0  0  0  0  0  0  0  0
  -18.5808   -0.1999   -0.0000 C   0  0  0  0  0  0  0  0  0  0  0  0
  -19.7921    0.7174   -0.0000 N   0  0  0  0  0  0  0  0  0  0  0  0
  -17.3696    0.6586   -0.0000 C   0  0  0  0  0  0  0  0  0  0  0  0
  -21.2386    0.2940   -0.0000 C   0  0  0  0  0  0  0  0  0  0  0  0
  -19.3100    2.1403   -0.0000 C   0  0  0  0  0  0  0  0  0  0  0  0
  -17.8164    2.1050   -0.0000 C   0  0  0  0  0  0  0  0  0  0  0  0
  -21.5914   -1.1525   -0.0000 O   0  0  0  0  0  0  0  0  0  0  0  0
  -22.3441    1.3289   -0.0000 C   0  0  0  0  0  0  0  0  0  0  0  0
  -23.7905    0.9055   -0.0000 N   0  0  0  0  0  0  0  0  0  0  0  0
  -22.0148    2.7989   -0.0000 C   0  0  0  0  0  0  0  0  0  0  0  0
  -24.8960    1.9404   -0.0000 C   0  0  0  0  0  0  0  0  0  0  0  0
  -23.4613    3.2340   -0.0000 C   0  0  0  0  0  0  0  0  0  0  0  0
  -22.3793    4.2689   -0.0000 C   0  0  0  0  0  0  0  0  0  0  0  0
  -20.6036    3.2340   -0.0000 C   0  0  0  0  0  0  0  0  0  0  0  0
  -24.5667    3.4104   -0.0000 O   0  0  0  0  0  0  0  0  0  0  0  0
  -26.3425    1.5170   -0.0000 C   0  0  0  0  0  0  0  0  0  0  0  0
  -27.4479    2.5519   -0.0000 N   0  0  0  0  0  0  0  0  0  0  0  0
  -26.6953    0.0706   -0.0000 C   0  0  0  0  0  0  0  0  0  0  0  0
  -27.1186    4.0219   -0.0000 C   0  0  0  0  0  0  0  0  0  0  0  0
  1  2  2  0  0  0  0
  2  3  1  0  0  0  0
  4  2  1  6  0  0  0
  3  5  1  0  0  0  0
  4  6  1  0  0  0  0
  4  7  1  0  0  0  0
  5  8  1  0  0  0  0
  5  9  2  0  0  0  0
  6 10  1  0  0  0  0
  6 11  1  0  0  0  0
  7 12  1  0  0  0  0
  8 13  1  0  0  0  0
  8 14  2  0  0  0  0
  9 15  1  0  0  0  0
 10 16  2  0  0  0  0
 10 17  1  0  0  0  0
 13 18  1  0  0  0  0
 14 19  1  0  0  0  0
 15 20  2  0  0  0  0
 17 21  1  6  0  0  0
 17 22  1  0  0  0  0
 19 23  2  0  0  0  0
 20 24  1  0  0  0  0
 20 25  1  0  0  0  0
 21 26  1  0  0  0  0
 22 27  1  0  0  0  0
 22 28  1  0  0  0  0
 22 29  1  0  0  0  0
 23 30  1  0  0  0  0
 25 31  1  0  0  0  0
 26 32  2  0  0  0  0
 26 33  1  0  0  0  0
 31 34  1  0  0  0  0
 33 35  1  1  0  0  0
 33 36  1  0  0  0  0
 34 37  1  0  0  0  0
 35 38  1  0  0  0  0
 37 39  1  0  0  0  0
 39 40  1  0  0  0  0
 40 41  1  0  0  0  0
 41 42  1  0  0  0  0
 42 43  1  0  0  0  0
 43 44  1  0  0  0  0
 44 45  1  0  0  0  0
 45 46  2  0  0  0  0
 45 47  1  0  0  0  0
 46 48  1  0  0  0  0
 47 49  1  0  0  0  0
 47 50  2  0  0  0  0
 48 51  2  0  0  0  0
 49 52  2  0  0  0  0
 50 53  1  0  0  0  0
 52 54  1  0  0  0  0
 53 55  1  0  0  0  0
 54 56  1  0  0  0  0
 55 57  1  0  0  0  0
 56 58  1  0  0  0  0
 57 59  2  0  0  0  0
 60 57  1  1  0  0  0
 60 61  1  0  0  0  0
 60 62  1  0  0  0  0
 61 63  1  0  0  0  0
 61 64  1  0  0  0  0
 62 65  1  0  0  0  0
 63 66  2  0  0  0  0
 63 67  1  0  0  0  0
 67 68  1  1  0  0  0
 67 69  1  0  0  0  0
 68 70  1  0  0  0  0
 69 71  1  0  0  0  0
 69 72  1  0  0  0  0
 69 73  1  0  0  0  0
 70 74  2  0  0  0  0
 70 75  1  0  0  0  0
 75 76  1  6  0  0  0
 75 77  1  0  0  0  0
 76 78  1  0  0  0  0
 11 12  1  0  0  0  0
 15 19  1  0  0  0  0
 24 30  2  0  0  0  0
 49 51  1  0  0  0  0
 53 54  2  0  0  0  0
 64 65  1  0  0  0  0
M  END
>  <MolRegNo>
2507997

>  <m>
=

>  <Value>
430

>  <Unit>
nM

>  <Type>
IC50

>  <pValue>
6.37

>  <Ligand Efficiency>
0

>  <Binding Efficiency>
0

>  <Surface Efficiency>
0

>  <Assay Index>
1423611

>  <Assay Category>


>  <Assay Organism>
Homo sapiens

>  <Target ID>
17045

>  <Target Name>
Cytochrome P450 3A4

>  <Target Organism>
Homo sapiens

>  <Target Description>
Target is a single protein chain

>  <Sequence Accession>
P08684

>  <Reference>


>  <Pubmed ID>
33166687

>  <DOI>
10.1016/j.bmcl.2020.127676

$$$$
2498332
Actelion Java MolfileCreator 1.0

 76 82  0  0  1  0  0  0  0  0999 V2000
    0.0000   -0.0000   -0.0000 O   0  0  0  0  0  0  0  0  0  0  0  0
    0.8292   -1.2319   -0.0000 C   0  0  0  0  0  0  0  0  0  0  0  0
    0.1540   -2.5704   -0.0000 N   0  0  0  0  0  0  0  0  0  0  0  0
    2.3098   -1.1134   -0.0000 C   0  0  0  0  0  0  0  0  0  0  0  0
   -1.3503   -2.6651   -0.0000 C   0  0  0  0  0  0  0  0  0  0  0  0
    3.0916    0.1777   -0.0000 N   0  0  0  0  0  0  0  0  0  0  0  0
    3.2574   -2.2506   -0.0000 C   0  0  0  0  0  0  0  0  0  0  0  0
   -2.2032   -1.4096   -0.0000 C   0  0  0  0  0  0  0  0  0  0  0  0
   -2.0255   -4.0036   -0.0000 C   0  0  0  0  0  0  0  0  0  0  0  0
    2.5111    1.5754   -0.0000 C   0  0  0  0  0  0  0  0  0  0  0  0
    4.5366   -0.1777   -0.0000 C   0  0  0  0  0  0  0  0  0  0  0  0
    4.6432   -1.6701   -0.0000 C   0  0  0  0  0  0  0  0  0  0  0  0
   -1.5635   -0.0474   -0.0000 O   0  0  0  0  0  0  0  0  0  0  0  0
   -3.7075   -1.5043   -0.0000 C   0  0  0  0  0  0  0  0  0  0  0  0
   -3.5298   -4.0984   -0.0000 C   0  0  0  0  0  0  0  0  0  0  0  0
    1.0068    1.7886   -0.0000 O   0  0  0  0  0  0  0  0  0  0  0  0
    3.4232    2.7717   -0.0000 C   0  0  0  0  0  0  0  0  0  0  0  0
   -2.4164    1.2082   -0.0000 C   0  0  0  0  0  0  0  0  0  0  0  0
   -4.3708   -2.8310   -0.0000 C   0  0  0  0  0  0  0  0  0  0  0  0
   -4.1931   -5.4369   -0.0000 C   0  0  0  0  0  0  0  0  0  0  0  0
    2.8428    4.1694   -0.0000 N   0  0  0  0  0  0  0  0  0  0  0  0
    4.9038    2.5704   -0.0000 C   0  0  0  0  0  0  0  0  0  0  0  0
   -5.8870   -2.9257   -0.0000 N   0  0  0  0  0  0  0  0  0  0  0  0
   -5.6975   -5.5316   -0.0000 N   0  0  0  0  0  0  0  0  0  0  0  0
   -3.3166   -6.6332   -0.0000 N   0  0  0  0  0  0  0  0  0  0  0  0
    3.7549    5.3658   -0.0000 C   0  0  0  0  0  0  0  0  0  0  0  0
    5.1881    4.0628   -0.0000 C   0  0  0  0  0  0  0  0  0  0  0  0
    6.3134    3.0679   -0.0000 C   0  0  0  0  0  0  0  0  0  0  0  0
    5.4487    1.1963   -0.0000 C   0  0  0  0  0  0  0  0  0  0  0  0
   -6.5621   -4.2642   -0.0000 C   0  0  0  0  0  0  0  0  0  0  0  0
   -1.8360   -6.4555   -0.0000 C   0  0  0  0  0  0  0  0  0  0  0  0
    5.2355    5.1763   -0.0000 O   0  0  0  0  0  0  0  0  0  0  0  0
    3.1745    6.7635   -0.0000 C   0  0  0  0  0  0  0  0  0  0  0  0
   -1.2437   -5.0697   -0.0000 C   0  0  0  0  0  0  0  0  0  0  0  0
   -0.9594   -7.6637   -0.0000 C   0  0  0  0  0  0  0  0  0  0  0  0
    4.0865    7.9599   -0.0000 N   0  0  0  0  0  0  0  0  0  0  0  0
    1.6701    6.9767   -0.0000 C   0  0  0  0  0  0  0  0  0  0  0  0
    0.2369   -4.8920   -0.0000 C   0  0  0  0  0  0  0  0  0  0  0  0
    0.5212   -7.4861   -0.0000 C   0  0  0  0  0  0  0  0  0  0  0  0
    5.5672    7.7703   -0.0000 C   0  0  0  0  0  0  0  0  0  0  0  0
    1.1253   -6.1002   -0.0000 C   0  0  0  0  0  0  0  0  0  0  0  0
    2.6059   -5.9225   -0.0000 N   0  0  0  0  0  0  0  0  0  0  0  0
    3.4824   -7.1189   -0.0000 C   0  0  0  0  0  0  0  0  0  0  0  0
    2.7480   -8.4218   -0.0000 N   0  0  0  0  0  0  0  0  0  0  0  0
    4.9749   -7.0715   -0.0000 C   0  0  0  0  0  0  0  0  0  0  0  0
    3.5061   -9.7011   -0.0000 C   0  0  0  0  0  0  0  0  0  0  0  0
    5.7448   -8.3507   -0.0000 C   0  0  0  0  0  0  0  0  0  0  0  0
    5.6856   -5.7448   -0.0000 C   0  0  0  0  0  0  0  0  0  0  0  0
    4.9986   -9.6655   -0.0000 N   0  0  0  0  0  0  0  0  0  0  0  0
    7.2373   -8.3034   -0.0000 C   0  0  0  0  0  0  0  0  0  0  0  0
    7.1781   -5.6975   -0.0000 C   0  0  0  0  0  0  0  0  0  0  0  0
    7.9480   -6.9767   -0.0000 C   0  0  0  0  0  0  0  0  0  0  0  0
    7.8888   -4.3708   -0.0000 N   0  0  0  0  0  0  0  0  0  0  0  0
    9.4405   -6.9293   -0.0000 O   0  0  0  0  0  0  0  0  0  0  0  0
    9.3813   -4.3234   -0.0000 C   0  0  0  0  0  0  0  0  0  0  0  0
   10.2104   -8.1968   -0.0000 C   0  0  0  0  0  0  0  0  0  0  0  0
   10.1512   -5.5909   -0.0000 O   0  0  0  0  0  0  0  0  0  0  0  0
   10.0920   -2.9968   -0.0000 C   0  0  0  0  0  0  0  0  0  0  0  0
   11.5607   -2.7954   -0.0000 N   0  0  0  0  0  0  0  0  0  0  0  0
    9.4286   -1.6228   -0.0000 C   0  0  0  0  0  0  0  0  0  0  0  0
   12.5794   -3.8733   -0.0000 C   0  0  0  0  0  0  0  0  0  0  0  0
   11.8213   -1.3030   -0.0000 C   0  0  0  0  0  0  0  0  0  0  0  0
   10.5065   -0.5804   -0.0000 C   0  0  0  0  0  0  0  0  0  0  0  0
   12.1411   -5.2947   -0.0000 O   0  0  0  0  0  0  0  0  0  0  0  0
   14.0008   -3.4469   -0.0000 C   0  0  0  0  0  0  0  0  0  0  0  0
   15.0787   -4.4774   -0.0000 N   0  0  0  0  0  0  0  0  0  0  0  0
   14.3443   -1.9663   -0.0000 C   0  0  0  0  0  0  0  0  0  0  0  0
   16.5120   -4.0510   -0.0000 C   0  0  0  0  0  0  0  0  0  0  0  0
   15.1853   -0.7107   -0.0000 C   0  0  0  0  0  0  0  0  0  0  0  0
   15.8368   -2.0729   -0.0000 C   0  0  0  0  0  0  0  0  0  0  0  0
   13.2427   -0.9239   -0.0000 C   0  0  0  0  0  0  0  0  0  0  0  0
   16.8555   -2.5822   -0.0000 O   0  0  0  0  0  0  0  0  0  0  0  0
   17.5899   -5.0815   -0.0000 C   0  0  0  0  0  0  0  0  0  0  0  0
   19.0231   -4.6551   -0.0000 N   0  0  0  0  0  0  0  0  0  0  0  0
   17.2227   -6.5266   -0.0000 C   0  0  0  0  0  0  0  0  0  0  0  0
   19.3666   -3.1863   -0.0000 C   0  0  0  0  0  0  0  0  0  0  0  0
  1  2  2  0  0  0  0
  2  3  1  0  0  0  0
  4  2  1  1  0  0  0
  3  5  1  0  0  0  0
  4  6  1  0  0  0  0
  4  7  1  0  0  0  0
  5  8  1  0  0  0  0
  5  9  2  0  0  0  0
  6 10  1  0  0  0  0
  6 11  1  0  0  0  0
  7 12  1  0  0  0  0
  8 13  1  0  0  0  0
  8 14  2  0  0  0  0
  9 15  1  0  0  0  0
 10 16  2  0  0  0  0
 10 17  1  0  0  0  0
 13 18  1  0  0  0  0
 14 19  1  0  0  0  0
 15 20  2  0  0  0  0
 17 21  1  1  0  0  0
 17 22  1  0  0  0  0
 19 23  2  0  0  0  0
 20 24  1  0  0  0  0
 20 25  1  0  0  0  0
 21 26  1  0  0  0  0
 22 27  1  0  0  0  0
 22 28  1  0  0  0  0
 22 29  1  0  0  0  0
 23 30  1  0  0  0  0
 31 25  1  1  0  0  0
 26 32  2  0  0  0  0
 26 33  1  0  0  0  0
 31 34  1  0  0  0  0
 31 35  1  0  0  0  0
 33 36  1  6  0  0  0
 33 37  1  0  0  0  0
 34 38  1  0  0  0  0
 35 39  1  0  0  0  0
 36 40  1  0  0  0  0
 38 41  1  0  0  0  0
 41 42  1  1  0  0  0
 42 43  1  0  0  0  0
 43 44  2  0  0  0  0
 43 45  1  0  0  0  0
 44 46  1  0  0  0  0
 45 47  1  0  0  0  0
 45 48  2  0  0  0  0
 46 49  2  0  0  0  0
 47 50  2  0  0  0  0
 48 51  1  0  0  0  0
 50 52  1  0  0  0  0
 51 53  1  0  0  0  0
 52 54  1  0  0  0  0
 53 55  1  0  0  0  0
 54 56  1  0  0  0  0
 55 57  2  0  0  0  0
 58 55  1  6  0  0  0
 58 59  1  0  0  0  0
 58 60  1  0  0  0  0
 59 61  1  0  0  0  0
 59 62  1  0  0  0  0
 60 63  1  0  0  0  0
 61 64  2  0  0  0  0
 61 65  1  0  0  0  0
 65 66  1  6  0  0  0
 65 67  1  0  0  0  0
 66 68  1  0  0  0  0
 67 69  1  0  0  0  0
 67 70  1  0  0  0  0
 67 71  1  0  0  0  0
 68 72  2  0  0  0  0
 68 73  1  0  0  0  0
 73 74  1  1  0  0  0
 73 75  1  0  0  0  0
 74 76  1  0  0  0  0
 11 12  1  0  0  0  0
 15 19  1  0  0  0  0
 24 30  2  0  0  0  0
 39 41  1  0  0  0  0
 47 49  1  0  0  0  0
 51 52  2  0  0  0  0
 62 63  1  0  0  0  0
M  END
>  <MolRegNo>
2498332

>  <m>
=

>  <Value>
5530

>  <Unit>
nM

>  <Type>
IC50

>  <pValue>
5.26

>  <Ligand Efficiency>
0

>  <Binding Efficiency>
0

>  <Surface Efficiency>
0

>  <Assay Index>
1423611

>  <Assay Category>


>  <Assay Organism>
Homo sapiens

>  <Target ID>
17045

>  <Target Name>
Cytochrome P450 3A4

>  <Target Organism>
Homo sapiens

>  <Target Description>
Target is a single protein chain

>  <Sequence Accession>
P08684

>  <Reference>


>  <Pubmed ID>
33166687

>  <DOI>
10.1016/j.bmcl.2020.127676

$$$$
2501093
Actelion Java MolfileCreator 1.0

 76 82  0  0  1  0  0  0  0  0999 V2000
    0.0000   -0.0000   -0.0000 O   0  0  0  0  0  0  0  0  0  0  0  0
    0.8400   -1.2304   -0.0000 C   0  0  0  0  0  0  0  0  0  0  0  0
    0.1775   -2.5673   -0.0000 N   0  0  0  0  0  0  0  0  0  0  0  0
    2.3307   -1.1003   -0.0000 C   0  0  0  0  0  0  0  0  0  0  0  0
   -1.3369   -2.6738   -0.0000 C   0  0  0  0  0  0  0  0  0  0  0  0
    3.0997    0.2011   -0.0000 N   0  0  0  0  0  0  0  0  0  0  0  0
    3.2890   -2.2242   -0.0000 C   0  0  0  0  0  0  0  0  0  0  0  0
   -2.2006   -1.4197   -0.0000 C   0  0  0  0  0  0  0  0  0  0  0  0
   -1.9995   -4.0107   -0.0000 C   0  0  0  0  0  0  0  0  0  0  0  0
    2.5200    1.5972   -0.0000 C   0  0  0  0  0  0  0  0  0  0  0  0
    4.5431   -0.1420   -0.0000 C   0  0  0  0  0  0  0  0  0  0  0  0
    4.6615   -1.6445   -0.0000 C   0  0  0  0  0  0  0  0  0  0  0  0
   -1.5617   -0.0473   -0.0000 O   0  0  0  0  0  0  0  0  0  0  0  0
   -3.7031   -1.5262   -0.0000 C   0  0  0  0  0  0  0  0  0  0  0  0
   -3.5020   -4.1054   -0.0000 C   0  0  0  0  0  0  0  0  0  0  0  0
    1.0175    1.8102   -0.0000 O   0  0  0  0  0  0  0  0  0  0  0  0
    3.4192    2.8040   -0.0000 C   0  0  0  0  0  0  0  0  0  0  0  0
   -2.4254    1.2068   -0.0000 C   0  0  0  0  0  0  0  0  0  0  0  0
   -4.3657   -2.8631   -0.0000 C   0  0  0  0  0  0  0  0  0  0  0  0
   -4.1527   -5.4423   -0.0000 C   0  0  0  0  0  0  0  0  0  0  0  0
    2.8395    4.2000   -0.0000 N   0  0  0  0  0  0  0  0  0  0  0  0
    4.8981    2.6147   -0.0000 C   0  0  0  0  0  0  0  0  0  0  0  0
   -5.8801   -2.9696   -0.0000 N   0  0  0  0  0  0  0  0  0  0  0  0
   -5.6553   -5.5488   -0.0000 N   0  0  0  0  0  0  0  0  0  0  0  0
   -3.2772   -6.6491   -0.0000 N   0  0  0  0  0  0  0  0  0  0  0  0
    3.7386    5.4068   -0.0000 C   0  0  0  0  0  0  0  0  0  0  0  0
    5.1702    4.1054   -0.0000 C   0  0  0  0  0  0  0  0  0  0  0  0
    6.3060    3.1234   -0.0000 C   0  0  0  0  0  0  0  0  0  0  0  0
    5.4541    1.2423   -0.0000 C   0  0  0  0  0  0  0  0  0  0  0  0
   -6.5426   -4.3184   -0.0000 C   0  0  0  0  0  0  0  0  0  0  0  0
   -1.7983   -6.4716   -0.0000 C   0  0  0  0  0  0  0  0  0  0  0  0
    5.2175    5.2175   -0.0000 O   0  0  0  0  0  0  0  0  0  0  0  0
    3.1589    6.8029   -0.0000 C   0  0  0  0  0  0  0  0  0  0  0  0
   -1.2068   -5.0874   -0.0000 C   0  0  0  0  0  0  0  0  0  0  0  0
   -0.9228   -7.6784   -0.0000 C   0  0  0  0  0  0  0  0  0  0  0  0
    4.0581    8.0097   -0.0000 N   0  0  0  0  0  0  0  0  0  0  0  0
    1.6564    7.0158   -0.0000 C   0  0  0  0  0  0  0  0  0  0  0  0
    0.2721   -4.9099   -0.0000 C   0  0  0  0  0  0  0  0  0  0  0  0
    0.5561   -7.5009   -0.0000 C   0  0  0  0  0  0  0  0  0  0  0  0
    5.5370    7.8204   -0.0000 C   0  0  0  0  0  0  0  0  0  0  0  0
    1.1594   -6.1167   -0.0000 C   0  0  0  0  0  0  0  0  0  0  0  0
    2.6383   -5.9392   -0.0000 N   0  0  0  0  0  0  0  0  0  0  0  0
    3.5138   -7.1460   -0.0000 C   0  0  0  0  0  0  0  0  0  0  0  0
    2.6975   -8.4001   -0.0000 N   0  0  0  0  0  0  0  0  0  0  0  0
    5.0046   -7.1933   -0.0000 C   0  0  0  0  0  0  0  0  0  0  0  0
    3.3837   -9.7252   -0.0000 C   0  0  0  0  0  0  0  0  0  0  0  0
    5.6908   -8.5184   -0.0000 C   0  0  0  0  0  0  0  0  0  0  0  0
    5.7854   -5.9156   -0.0000 C   0  0  0  0  0  0  0  0  0  0  0  0
    4.8744   -9.7725   -0.0000 N   0  0  0  0  0  0  0  0  0  0  0  0
    7.1815   -8.5657   -0.0000 C   0  0  0  0  0  0  0  0  0  0  0  0
    7.2761   -5.9510   -0.0000 C   0  0  0  0  0  0  0  0  0  0  0  0
    7.9742   -7.2761   -0.0000 C   0  0  0  0  0  0  0  0  0  0  0  0
    8.0570   -4.6615   -0.0000 N   0  0  0  0  0  0  0  0  0  0  0  0
    9.4649   -7.3235   -0.0000 O   0  0  0  0  0  0  0  0  0  0  0  0
    9.5477   -4.6969   -0.0000 C   0  0  0  0  0  0  0  0  0  0  0  0
   10.1511   -8.6367   -0.0000 C   0  0  0  0  0  0  0  0  0  0  0  0
   10.2457   -6.0102   -0.0000 O   0  0  0  0  0  0  0  0  0  0  0  0
   10.3286   -3.4074   -0.0000 C   0  0  0  0  0  0  0  0  0  0  0  0
   11.8074   -3.2890   -0.0000 N   0  0  0  0  0  0  0  0  0  0  0  0
    9.7488   -1.9995   -0.0000 C   0  0  0  0  0  0  0  0  0  0  0  0
   12.7658   -4.4248   -0.0000 C   0  0  0  0  0  0  0  0  0  0  0  0
   12.1624   -1.8220   -0.0000 C   0  0  0  0  0  0  0  0  0  0  0  0
   10.8846   -1.0175   -0.0000 C   0  0  0  0  0  0  0  0  0  0  0  0
   12.2452   -5.8209   -0.0000 O   0  0  0  0  0  0  0  0  0  0  0  0
   14.2210   -4.0817   -0.0000 C   0  0  0  0  0  0  0  0  0  0  0  0
   15.2385   -5.1702   -0.0000 N   0  0  0  0  0  0  0  0  0  0  0  0
   14.6469   -2.6265   -0.0000 C   0  0  0  0  0  0  0  0  0  0  0  0
   16.6937   -4.8271   -0.0000 C   0  0  0  0  0  0  0  0  0  0  0  0
   15.5579   -1.4197   -0.0000 C   0  0  0  0  0  0  0  0  0  0  0  0
   16.1376   -2.8158   -0.0000 C   0  0  0  0  0  0  0  0  0  0  0  0
   13.6058   -1.5144   -0.0000 C   0  0  0  0  0  0  0  0  0  0  0  0
   17.1196   -3.3837   -0.0000 O   0  0  0  0  0  0  0  0  0  0  0  0
   17.7112   -5.9156   -0.0000 C   0  0  0  0  0  0  0  0  0  0  0  0
   19.1664   -5.5724   -0.0000 N   0  0  0  0  0  0  0  0  0  0  0  0
   17.2616   -7.3353   -0.0000 C   0  0  0  0  0  0  0  0  0  0  0  0
   19.5923   -4.1291   -0.0000 C   0  0  0  0  0  0  0  0  0  0  0  0
  1  2  2  0  0  0  0
  2  3  1  0  0  0  0
  4  2  1  1  0  0  0
  3  5  1  0  0  0  0
  4  6  1  0  0  0  0
  4  7  1  0  0  0  0
  5  8  1  0  0  0  0
  5  9  2  0  0  0  0
  6 10  1  0  0  0  0
  6 11  1  0  0  0  0
  7 12  1  0  0  0  0
  8 13  1  0  0  0  0
  8 14  2  0  0  0  0
  9 15  1  0  0  0  0
 10 16  2  0  0  0  0
 10 17  1  0  0  0  0
 13 18  1  0  0  0  0
 14 19  1  0  0  0  0
 15 20  2  0  0  0  0
 17 21  1  1  0  0  0
 17 22  1  0  0  0  0
 19 23  2  0  0  0  0
 20 24  1  0  0  0  0
 20 25  1  0  0  0  0
 21 26  1  0  0  0  0
 22 27  1  0  0  0  0
 22 28  1  0  0  0  0
 22 29  1  0  0  0  0
 23 30  1  0  0  0  0
 31 25  1  1  0  0  0
 26 32  2  0  0  0  0
 26 33  1  0  0  0  0
 31 34  1  0  0  0  0
 31 35  1  0  0  0  0
 33 36  1  6  0  0  0
 33 37  1  0  0  0  0
 34 38  1  0  0  0  0
 35 39  1  0  0  0  0
 36 40  1  0  0  0  0
 38 41  1  0  0  0  0
 41 42  1  6  0  0  0
 42 43  1  0  0  0  0
 43 44  2  0  0  0  0
 43 45  1  0  0  0  0
 44 46  1  0  0  0  0
 45 47  1  0  0  0  0
 45 48  2  0  0  0  0
 46 49  2  0  0  0  0
 47 50  2  0  0  0  0
 48 51  1  0  0  0  0
 50 52  1  0  0  0  0
 51 53  1  0  0  0  0
 52 54  1  0  0  0  0
 53 55  1  0  0  0  0
 54 56  1  0  0  0  0
 55 57  2  0  0  0  0
 58 55  1  6  0  0  0
 58 59  1  0  0  0  0
 58 60  1  0  0  0  0
 59 61  1  0  0  0  0
 59 62  1  0  0  0  0
 60 63  1  0  0  0  0
 61 64  2  0  0  0  0
 61 65  1  0  0  0  0
 65 66  1  6  0  0  0
 65 67  1  0  0  0  0
 66 68  1  0  0  0  0
 67 69  1  0  0  0  0
 67 70  1  0  0  0  0
 67 71  1  0  0  0  0
 68 72  2  0  0  0  0
 68 73  1  0  0  0  0
 73 74  1  1  0  0  0
 73 75  1  0  0  0  0
 74 76  1  0  0  0  0
 11 12  1  0  0  0  0
 15 19  1  0  0  0  0
 24 30  2  0  0  0  0
 39 41  1  0  0  0  0
 47 49  1  0  0  0  0
 51 52  2  0  0  0  0
 62 63  1  0  0  0  0
M  END
>  <MolRegNo>
2501093

>  <m>
=

>  <Value>
3560

>  <Unit>
nM

>  <Type>
IC50

>  <pValue>
5.45

>  <Ligand Efficiency>
0

>  <Binding Efficiency>
0

>  <Surface Efficiency>
0

>  <Assay Index>
1423611

>  <Assay Category>


>  <Assay Organism>
Homo sapiens

>  <Target ID>
17045

>  <Target Name>
Cytochrome P450 3A4

>  <Target Organism>
Homo sapiens

>  <Target Description>
Target is a single protein chain

>  <Sequence Accession>
P08684

>  <Reference>


>  <Pubmed ID>
33166687

>  <DOI>
10.1016/j.bmcl.2020.127676

$$$$
2505986
Actelion Java MolfileCreator 1.0

 82 90  0  0  1  0  0  0  0  0999 V2000
    0.0000   -0.0000   -0.0000 O   0  0  0  0  0  0  0  0  0  0  0  0
   -1.4971   -0.1415   -0.0000 C   0  0  0  0  0  0  0  0  0  0  0  0
   -2.1218   -1.4971   -0.0000 N   0  0  0  0  0  0  0  0  0  0  0  0
   -2.3812    1.0845   -0.0000 C   0  0  0  0  0  0  0  0  0  0  0  0
   -1.2613   -2.6994   -0.0000 C   0  0  0  0  0  0  0  0  0  0  0  0
   -1.9332    2.5108   -0.0000 N   0  0  0  0  0  0  0  0  0  0  0  0
   -3.8900    1.0963   -0.0000 C   0  0  0  0  0  0  0  0  0  0  0  0
    0.2240   -2.5344   -0.0000 C   0  0  0  0  0  0  0  0  0  0  0  0
   -1.8861   -4.0433   -0.0000 C   0  0  0  0  0  0  0  0  0  0  0  0
   -0.5187    2.9824   -0.0000 C   0  0  0  0  0  0  0  0  0  0  0  0
   -3.1474    3.4067   -0.0000 C   0  0  0  0  0  0  0  0  0  0  0  0
   -4.3615    2.5344   -0.0000 C   0  0  0  0  0  0  0  0  0  0  0  0
    0.8252   -1.1552   -0.0000 O   0  0  0  0  0  0  0  0  0  0  0  0
    1.0845   -3.7368   -0.0000 C   0  0  0  0  0  0  0  0  0  0  0  0
   -1.0256   -5.2456   -0.0000 C   0  0  0  0  0  0  0  0  0  0  0  0
    0.5776    1.9922   -0.0000 O   0  0  0  0  0  0  0  0  0  0  0  0
   -0.2947    4.4676   -0.0000 C   0  0  0  0  0  0  0  0  0  0  0  0
    2.2986   -0.9902   -0.0000 C   0  0  0  0  0  0  0  0  0  0  0  0
    0.4597   -5.0806   -0.0000 C   0  0  0  0  0  0  0  0  0  0  0  0
   -1.6503   -6.5895   -0.0000 C   0  0  0  0  0  0  0  0  0  0  0  0
    1.0963    5.0099   -0.0000 N   0  0  0  0  0  0  0  0  0  0  0  0
   -1.4617    5.4225   -0.0000 C   0  0  0  0  0  0  0  0  0  0  0  0
    1.3203   -6.2830   -0.0000 N   0  0  0  0  0  0  0  0  0  0  0  0
   -0.7898   -7.7918   -0.0000 N   0  0  0  0  0  0  0  0  0  0  0  0
   -3.1474   -6.7427   -0.0000 N   0  0  0  0  0  0  0  0  0  0  0  0
    1.3203    6.4952   -0.0000 C   0  0  0  0  0  0  0  0  0  0  0  0
   -1.2259    6.9195   -0.0000 C   0  0  0  0  0  0  0  0  0  0  0  0
   -2.8763    4.9038   -0.0000 C   0  0  0  0  0  0  0  0  0  0  0  0
    0.6837   -7.6268   -0.0000 C   0  0  0  0  0  0  0  0  0  0  0  0
   -4.0433   -5.5285   -0.0000 C   0  0  0  0  0  0  0  0  0  0  0  0
    0.1532    7.4500   -0.0000 O   0  0  0  0  0  0  0  0  0  0  0  0
    2.7112    7.0374   -0.0000 C   0  0  0  0  0  0  0  0  0  0  0  0
   -2.3930    7.8743   -0.0000 C   0  0  0  0  0  0  0  0  0  0  0  0
   -4.0433    5.8704   -0.0000 C   0  0  0  0  0  0  0  0  0  0  0  0
   -5.5403   -5.6818   -0.0000 C   0  0  0  0  0  0  0  0  0  0  0  0
    2.9352    8.5227   -0.0000 N   0  0  0  0  0  0  0  0  0  0  0  0
    3.8547    6.1062   -0.0000 C   0  0  0  0  0  0  0  0  0  0  0  0
   -3.8075    7.3675   -0.0000 C   0  0  0  0  0  0  0  0  0  0  0  0
   -6.4480   -4.4558   -0.0000 C   0  0  0  0  0  0  0  0  0  0  0  0
   -6.1533   -7.0374   -0.0000 C   0  0  0  0  0  0  0  0  0  0  0  0
    1.7682    9.4775   -0.0000 C   0  0  0  0  0  0  0  0  0  0  0  0
   -7.9451   -4.6091   -0.0000 C   0  0  0  0  0  0  0  0  0  0  0  0
   -7.6504   -7.1906   -0.0000 C   0  0  0  0  0  0  0  0  0  0  0  0
   -8.5581   -5.9647   -0.0000 C   0  0  0  0  0  0  0  0  0  0  0  0
  -10.0551   -6.1179   -0.0000 C   0  0  0  0  0  0  0  0  0  0  0  0
  -10.9510   -4.9038   -0.0000 N   0  0  0  0  0  0  0  0  0  0  0  0
  -12.4481   -5.0570   -0.0000 C   0  0  0  0  0  0  0  0  0  0  0  0
  -13.0610   -6.4126   -0.0000 N   0  0  0  0  0  0  0  0  0  0  0  0
  -13.3440   -3.8429   -0.0000 C   0  0  0  0  0  0  0  0  0  0  0  0
  -14.5699   -6.5659   -0.0000 C   0  0  0  0  0  0  0  0  0  0  0  0
  -14.8410   -3.9843   -0.0000 C   0  0  0  0  0  0  0  0  0  0  0  0
  -12.7428   -2.4755   -0.0000 C   0  0  0  0  0  0  0  0  0  0  0  0
  -15.4658   -5.3399   -0.0000 N   0  0  0  0  0  0  0  0  0  0  0  0
  -15.7251   -2.7702   -0.0000 C   0  0  0  0  0  0  0  0  0  0  0  0
  -13.6269   -1.2495   -0.0000 C   0  0  0  0  0  0  0  0  0  0  0  0
  -15.1357   -1.4028   -0.0000 C   0  0  0  0  0  0  0  0  0  0  0  0
  -13.0257    0.1297   -0.0000 N   0  0  0  0  0  0  0  0  0  0  0  0
  -16.0316   -0.1886   -0.0000 O   0  0  0  0  0  0  0  0  0  0  0  0
  -13.9098    1.3556   -0.0000 C   0  0  0  0  0  0  0  0  0  0  0  0
  -17.5287   -0.3301   -0.0000 C   0  0  0  0  0  0  0  0  0  0  0  0
  -15.4068    1.2142   -0.0000 O   0  0  0  0  0  0  0  0  0  0  0  0
  -13.3086    2.7348   -0.0000 C   0  0  0  0  0  0  0  0  0  0  0  0
  -14.0748    4.0433   -0.0000 N   0  0  0  0  0  0  0  0  0  0  0  0
  -11.8705    3.0531   -0.0000 C   0  0  0  0  0  0  0  0  0  0  0  0
  -15.5719    4.2083   -0.0000 C   0  0  0  0  0  0  0  0  0  0  0  0
  -13.0846    5.1631   -0.0000 C   0  0  0  0  0  0  0  0  0  0  0  0
  -11.7290    4.5501   -0.0000 C   0  0  0  0  0  0  0  0  0  0  0  0
  -16.4560    3.0059   -0.0000 O   0  0  0  0  0  0  0  0  0  0  0  0
  -16.1966    5.5875   -0.0000 C   0  0  0  0  0  0  0  0  0  0  0  0
  -17.6937    5.7525   -0.0000 N   0  0  0  0  0  0  0  0  0  0  0  0
  -15.3243    6.8134   -0.0000 C   0  0  0  0  0  0  0  0  0  0  0  0
  -18.3185    7.1317   -0.0000 C   0  0  0  0  0  0  0  0  0  0  0  0
  -13.8508    6.6602   -0.0000 C   0  0  0  0  0  0  0  0  0  0  0  0
  -15.9491    8.1808   -0.0000 C   0  0  0  0  0  0  0  0  0  0  0  0
  -17.4580    8.3577   -0.0000 O   0  0  0  0  0  0  0  0  0  0  0  0
  -19.8155    7.2967   -0.0000 C   0  0  0  0  0  0  0  0  0  0  0  0
  -12.9785    7.8743   -0.0000 C   0  0  0  0  0  0  0  0  0  0  0  0
  -15.0650    9.4068   -0.0000 C   0  0  0  0  0  0  0  0  0  0  0  0
  -20.4403    8.6759   -0.0000 N   0  0  0  0  0  0  0  0  0  0  0  0
  -20.6996    6.0944   -0.0000 C   0  0  0  0  0  0  0  0  0  0  0  0
  -13.5915    9.2653   -0.0000 C   0  0  0  0  0  0  0  0  0  0  0  0
  -19.5798    9.9019   -0.0000 C   0  0  0  0  0  0  0  0  0  0  0  0
  1  2  2  0  0  0  0
  2  3  1  0  0  0  0
  4  2  1  6  0  0  0
  3  5  1  0  0  0  0
  4  6  1  0  0  0  0
  4  7  1  0  0  0  0
  5  8  1  0  0  0  0
  5  9  2  0  0  0  0
  6 10  1  0  0  0  0
  6 11  1  0  0  0  0
  7 12  1  0  0  0  0
  8 13  1  0  0  0  0
  8 14  2  0  0  0  0
  9 15  1  0  0  0  0
 10 16  2  0  0  0  0
 10 17  1  0  0  0  0
 13 18  1  0  0  0  0
 14 19  1  0  0  0  0
 15 20  2  0  0  0  0
 17 21  1  6  0  0  0
 17 22  1  0  0  0  0
 19 23  2  0  0  0  0
 20 24  1  0  0  0  0
 20 25  1  0  0  0  0
 21 26  1  0  0  0  0
 22 27  1  0  0  0  0
 22 28  1  0  0  0  0
 23 29  1  0  0  0  0
 25 30  1  0  0  0  0
 26 31  2  0  0  0  0
 26 32  1  0  0  0  0
 27 33  1  0  0  0  0
 28 34  1  0  0  0  0
 35 30  1  6  0  0  0
 32 36  1  1  0  0  0
 32 37  1  0  0  0  0
 33 38  1  0  0  0  0
 35 39  1  0  0  0  0
 35 40  1  0  0  0  0
 36 41  1  0  0  0  0
 39 42  1  0  0  0  0
 40 43  1  0  0  0  0
 42 44  1  0  0  0  0
 44 45  1  1  0  0  0
 45 46  1  0  0  0  0
 46 47  1  0  0  0  0
 47 48  2  0  0  0  0
 47 49  1  0  0  0  0
 48 50  1  0  0  0  0
 49 51  1  0  0  0  0
 49 52  2  0  0  0  0
 50 53  2  0  0  0  0
 51 54  2  0  0  0  0
 52 55  1  0  0  0  0
 54 56  1  0  0  0  0
 55 57  1  0  0  0  0
 56 58  1  0  0  0  0
 57 59  1  0  0  0  0
 58 60  1  0  0  0  0
 59 61  2  0  0  0  0
 62 59  1  1  0  0  0
 62 63  1  0  0  0  0
 62 64  1  0  0  0  0
 63 65  1  0  0  0  0
 63 66  1  0  0  0  0
 64 67  1  0  0  0  0
 65 68  2  0  0  0  0
 65 69  1  0  0  0  0
 69 70  1  1  0  0  0
 69 71  1  0  0  0  0
 70 72  1  0  0  0  0
 71 73  1  0  0  0  0
 71 74  1  0  0  0  0
 72 75  2  0  0  0  0
 72 76  1  0  0  0  0
 73 77  1  0  0  0  0
 74 78  1  0  0  0  0
 76 79  1  6  0  0  0
 76 80  1  0  0  0  0
 77 81  1  0  0  0  0
 79 82  1  0  0  0  0
 11 12  1  0  0  0  0
 15 19  1  0  0  0  0
 24 29  2  0  0  0  0
 34 38  1  0  0  0  0
 43 44  1  0  0  0  0
 51 53  1  0  0  0  0
 55 56  2  0  0  0  0
 66 67  1  0  0  0  0
 78 81  1  0  0  0  0
M  END
>  <MolRegNo>
2505986

>  <m>
=

>  <Value>
660

>  <Unit>
nM

>  <Type>
IC50

>  <pValue>
6.18

>  <Ligand Efficiency>
0

>  <Binding Efficiency>
0

>  <Surface Efficiency>
0

>  <Assay Index>
1423611

>  <Assay Category>


>  <Assay Organism>
Homo sapiens

>  <Target ID>
17045

>  <Target Name>
Cytochrome P450 3A4

>  <Target Organism>
Homo sapiens

>  <Target Description>
Target is a single protein chain

>  <Sequence Accession>
P08684

>  <Reference>


>  <Pubmed ID>
33166687

>  <DOI>
10.1016/j.bmcl.2020.127676

$$$$
2524593
Actelion Java MolfileCreator 1.0

 78 84  0  0  1  0  0  0  0  0999 V2000
    0.0000   -0.0000   -0.0000 O   0  0  0  0  0  0  0  0  0  0  0  0
    1.4781    0.1655   -0.0000 C   0  0  0  0  0  0  0  0  0  0  0  0
    2.3413   -1.0406   -0.0000 N   0  0  0  0  0  0  0  0  0  0  0  0
    2.0811    1.5490   -0.0000 C   0  0  0  0  0  0  0  0  0  0  0  0
    1.7146   -2.4004   -0.0000 C   0  0  0  0  0  0  0  0  0  0  0  0
    1.3125    2.8616   -0.0000 N   0  0  0  0  0  0  0  0  0  0  0  0
    3.5237    1.8683   -0.0000 C   0  0  0  0  0  0  0  0  0  0  0  0
    0.2010   -2.5423   -0.0000 C   0  0  0  0  0  0  0  0  0  0  0  0
    2.5778   -3.6065   -0.0000 C   0  0  0  0  0  0  0  0  0  0  0  0
   -0.1892    3.0271   -0.0000 C   0  0  0  0  0  0  0  0  0  0  0  0
    2.3058    3.9849   -0.0000 C   0  0  0  0  0  0  0  0  0  0  0  0
    3.6656    3.3700   -0.0000 C   0  0  0  0  0  0  0  0  0  0  0  0
   -0.6977   -1.3244   -0.0000 O   0  0  0  0  0  0  0  0  0  0  0  0
   -0.4139   -3.8903   -0.0000 C   0  0  0  0  0  0  0  0  0  0  0  0
    1.9511   -4.9545   -0.0000 C   0  0  0  0  0  0  0  0  0  0  0  0
   -1.0760    1.8210   -0.0000 O   0  0  0  0  0  0  0  0  0  0  0  0
   -0.8159    4.4106   -0.0000 C   0  0  0  0  0  0  0  0  0  0  0  0
   -2.1994   -1.4663   -0.0000 C   0  0  0  0  0  0  0  0  0  0  0  0
    0.4493   -5.0846   -0.0000 C   0  0  0  0  0  0  0  0  0  0  0  0
    2.8261   -6.1488   -0.0000 C   0  0  0  0  0  0  0  0  0  0  0  0
   -2.3176    4.5761   -0.0000 N   0  0  0  0  0  0  0  0  0  0  0  0
    0.0591    5.6403   -0.0000 C   0  0  0  0  0  0  0  0  0  0  0  0
   -0.1774   -6.4444   -0.0000 N   0  0  0  0  0  0  0  0  0  0  0  0
    2.2112   -7.5086   -0.0000 N   0  0  0  0  0  0  0  0  0  0  0  0
    4.3042   -5.9714   -0.0000 N   0  0  0  0  0  0  0  0  0  0  0  0
   -2.9443    5.9596   -0.0000 C   0  0  0  0  0  0  0  0  0  0  0  0
   -1.1115    6.5981   -0.0000 C   0  0  0  0  0  0  0  0  0  0  0  0
    0.2838    7.1302   -0.0000 C   0  0  0  0  0  0  0  0  0  0  0  0
    1.5372    5.4984   -0.0000 C   0  0  0  0  0  0  0  0  0  0  0  0
    0.6977   -7.6505   -0.0000 C   0  0  0  0  0  0  0  0  0  0  0  0
    5.1792   -7.1657   -0.0000 C   0  0  0  0  0  0  0  0  0  0  0  0
   -2.0811    7.1894   -0.0000 O   0  0  0  0  0  0  0  0  0  0  0  0
   -4.4461    6.1252   -0.0000 C   0  0  0  0  0  0  0  0  0  0  0  0
    6.6573   -6.9884   -0.0000 C   0  0  0  0  0  0  0  0  0  0  0  0
   -5.0728    7.5086   -0.0000 N   0  0  0  0  0  0  0  0  0  0  0  0
   -5.3329    4.9190   -0.0000 C   0  0  0  0  0  0  0  0  0  0  0  0
    7.2485   -5.6049   -0.0000 C   0  0  0  0  0  0  0  0  0  0  0  0
    7.5323   -8.1945   -0.0000 C   0  0  0  0  0  0  0  0  0  0  0  0
   -4.2096    8.7384   -0.0000 C   0  0  0  0  0  0  0  0  0  0  0  0
    8.7266   -5.4275   -0.0000 C   0  0  0  0  0  0  0  0  0  0  0  0
    9.0104   -8.0171   -0.0000 C   0  0  0  0  0  0  0  0  0  0  0  0
    9.6016   -6.6336   -0.0000 C   0  0  0  0  0  0  0  0  0  0  0  0
   11.0797   -6.4562   -0.0000 C   0  0  0  0  0  0  0  0  0  0  0  0
   11.9547   -7.6505   -0.0000 N   0  0  0  0  0  0  0  0  0  0  0  0
   13.4328   -7.4732   -0.0000 C   0  0  0  0  0  0  0  0  0  0  0  0
   14.2960   -8.6793   -0.0000 N   0  0  0  0  0  0  0  0  0  0  0  0
   14.0358   -6.1015   -0.0000 C   0  0  0  0  0  0  0  0  0  0  0  0
   15.7859   -8.5256   -0.0000 C   0  0  0  0  0  0  0  0  0  0  0  0
   15.5139   -5.9478   -0.0000 C   0  0  0  0  0  0  0  0  0  0  0  0
   13.1490   -4.8717   -0.0000 C   0  0  0  0  0  0  0  0  0  0  0  0
   16.4007   -7.1539   -0.0000 N   0  0  0  0  0  0  0  0  0  0  0  0
   16.1170   -4.5761   -0.0000 C   0  0  0  0  0  0  0  0  0  0  0  0
   13.7520   -3.5001   -0.0000 C   0  0  0  0  0  0  0  0  0  0  0  0
   15.2301   -3.3464   -0.0000 C   0  0  0  0  0  0  0  0  0  0  0  0
   12.8652   -2.2703   -0.0000 N   0  0  0  0  0  0  0  0  0  0  0  0
   15.8332   -1.9629   -0.0000 O   0  0  0  0  0  0  0  0  0  0  0  0
   13.4682   -0.8868   -0.0000 C   0  0  0  0  0  0  0  0  0  0  0  0
   17.3112   -1.7973   -0.0000 C   0  0  0  0  0  0  0  0  0  0  0  0
   14.9463   -0.7213   -0.0000 O   0  0  0  0  0  0  0  0  0  0  0  0
   12.5814    0.3429   -0.0000 C   0  0  0  0  0  0  0  0  0  0  0  0
   13.0307    1.7737   -0.0000 N   0  0  0  0  0  0  0  0  0  0  0  0
   11.0678    0.3547   -0.0000 C   0  0  0  0  0  0  0  0  0  0  0  0
   14.4497    2.2467   -0.0000 C   0  0  0  0  0  0  0  0  0  0  0  0
   11.8128    2.6724   -0.0000 C   0  0  0  0  0  0  0  0  0  0  0  0
   10.5949    1.7973   -0.0000 C   0  0  0  0  0  0  0  0  0  0  0  0
   15.5494    1.2534   -0.0000 O   0  0  0  0  0  0  0  0  0  0  0  0
   14.6744    3.7366   -0.0000 C   0  0  0  0  0  0  0  0  0  0  0  0
   16.0697    4.2805   -0.0000 N   0  0  0  0  0  0  0  0  0  0  0  0
   13.5037    4.6944   -0.0000 C   0  0  0  0  0  0  0  0  0  0  0  0
   16.2943    5.7704   -0.0000 C   0  0  0  0  0  0  0  0  0  0  0  0
   12.7351    6.0069   -0.0000 C   0  0  0  0  0  0  0  0  0  0  0  0
   14.2368    6.0069   -0.0000 C   0  0  0  0  0  0  0  0  0  0  0  0
   12.0966    4.1741   -0.0000 C   0  0  0  0  0  0  0  0  0  0  0  0
   15.1237    6.7282   -0.0000 O   0  0  0  0  0  0  0  0  0  0  0  0
   17.6896    6.3143   -0.0000 C   0  0  0  0  0  0  0  0  0  0  0  0
   17.9143    7.8042   -0.0000 N   0  0  0  0  0  0  0  0  0  0  0  0
   18.8366    5.3802   -0.0000 C   0  0  0  0  0  0  0  0  0  0  0  0
   16.7437    8.7620   -0.0000 C   0  0  0  0  0  0  0  0  0  0  0  0
  1  2  2  0  0  0  0
  2  3  1  0  0  0  0
  4  2  1  1  0  0  0
  3  5  1  0  0  0  0
  4  6  1  0  0  0  0
  4  7  1  0  0  0  0
  5  8  1  0  0  0  0
  5  9  2  0  0  0  0
  6 10  1  0  0  0  0
  6 11  1  0  0  0  0
  7 12  1  0  0  0  0
  8 13  1  0  0  0  0
  8 14  2  0  0  0  0
  9 15  1  0  0  0  0
 10 16  2  0  0  0  0
 10 17  1  0  0  0  0
 13 18  1  0  0  0  0
 14 19  1  0  0  0  0
 15 20  2  0  0  0  0
 17 21  1  1  0  0  0
 17 22  1  0  0  0  0
 19 23  2  0  0  0  0
 20 24  1  0  0  0  0
 20 25  1  0  0  0  0
 21 26  1  0  0  0  0
 22 27  1  0  0  0  0
 22 28  1  0  0  0  0
 22 29  1  0  0  0  0
 23 30  1  0  0  0  0
 25 31  1  0  0  0  0
 26 32  2  0  0  0  0
 26 33  1  0  0  0  0
 34 31  1  1  0  0  0
 33 35  1  6  0  0  0
 33 36  1  0  0  0  0
 34 37  1  0  0  0  0
 34 38  1  0  0  0  0
 35 39  1  0  0  0  0
 37 40  1  0  0  0  0
 38 41  1  0  0  0  0
 40 42  1  0  0  0  0
 42 43  1  6  0  0  0
 43 44  1  0  0  0  0
 44 45  1  0  0  0  0
 45 46  2  0  0  0  0
 45 47  1  0  0  0  0
 46 48  1  0  0  0  0
 47 49  1  0  0  0  0
 47 50  2  0  0  0  0
 48 51  2  0  0  0  0
 49 52  2  0  0  0  0
 50 53  1  0  0  0  0
 52 54  1  0  0  0  0
 53 55  1  0  0  0  0
 54 56  1  0  0  0  0
 55 57  1  0  0  0  0
 56 58  1  0  0  0  0
 57 59  2  0  0  0  0
 60 57  1  6  0  0  0
 60 61  1  0  0  0  0
 60 62  1  0  0  0  0
 61 63  1  0  0  0  0
 61 64  1  0  0  0  0
 62 65  1  0  0  0  0
 63 66  2  0  0  0  0
 63 67  1  0  0  0  0
 67 68  1  6  0  0  0
 67 69  1  0  0  0  0
 68 70  1  0  0  0  0
 69 71  1  0  0  0  0
 69 72  1  0  0  0  0
 69 73  1  0  0  0  0
 70 74  2  0  0  0  0
 70 75  1  0  0  0  0
 75 76  1  1  0  0  0
 75 77  1  0  0  0  0
 76 78  1  0  0  0  0
 11 12  1  0  0  0  0
 15 19  1  0  0  0  0
 24 30  2  0  0  0  0
 41 42  1  0  0  0  0
 49 51  1  0  0  0  0
 53 54  2  0  0  0  0
 64 65  1  0  0  0  0
M  END
>  <MolRegNo>
2524593

>  <m>
=

>  <Value>
460

>  <Unit>
nM

>  <Type>
IC50

>  <pValue>
6.34

>  <Ligand Efficiency>
0

>  <Binding Efficiency>
0

>  <Surface Efficiency>
0

>  <Assay Index>
1423611

>  <Assay Category>


>  <Assay Organism>
Homo sapiens

>  <Target ID>
17045

>  <Target Name>
Cytochrome P450 3A4

>  <Target Organism>
Homo sapiens

>  <Target Description>
Target is a single protein chain

>  <Sequence Accession>
P08684

>  <Reference>


>  <Pubmed ID>
33166687

>  <DOI>
10.1016/j.bmcl.2020.127676

$$$$
2505405
Actelion Java MolfileCreator 1.0

 34 37  0  0  0  0  0  0  0  0999 V2000
    0.0000   -0.0000   -0.0000 F   0  0  0  0  0  0  0  0  0  0  0  0
   -1.3077    0.7540   -0.0000 C   0  0  0  0  0  0  0  0  0  0  0  0
   -2.6154    0.0118   -0.0000 C   0  0  0  0  0  0  0  0  0  0  0  0
   -1.3313    2.2620   -0.0000 C   0  0  0  0  0  0  0  0  0  0  0  0
   -2.6154   -1.4726   -0.0000 C   0  0  0  0  0  0  0  0  0  0  0  0
   -3.9231    0.7540   -0.0000 C   0  0  0  0  0  0  0  0  0  0  0  0
   -2.6507    3.0160   -0.0000 C   0  0  0  0  0  0  0  0  0  0  0  0
   -3.9113   -2.2148   -0.0000 N   0  0  0  0  0  0  0  0  0  0  0  0
   -1.3195   -2.2031   -0.0000 N   0  0  0  0  0  0  0  0  0  0  0  0
   -5.2190   -0.0000   -0.0000 F   0  0  0  0  0  0  0  0  0  0  0  0
   -3.9467    2.2620   -0.0000 C   0  0  0  0  0  0  0  0  0  0  0  0
   -3.9113   -3.6875   -0.0000 C   0  0  0  0  0  0  0  0  0  0  0  0
   -1.3313   -3.6875   -0.0000 C   0  0  0  0  0  0  0  0  0  0  0  0
   -2.6272   -4.4179   -0.0000 C   0  0  0  0  0  0  0  0  0  0  0  0
   -5.2190   -4.4297   -0.0000 C   0  0  0  0  0  0  0  0  0  0  0  0
   -2.6390   -5.9023   -0.0000 N   0  0  0  0  0  0  0  0  0  0  0  0
   -5.2190   -5.9141   -0.0000 O   0  0  0  0  0  0  0  0  0  0  0  0
   -6.5267   -3.6875   -0.0000 N   0  0  0  0  0  0  0  0  0  0  0  0
   -7.8344   -4.4297   -0.0000 C   0  0  0  0  0  0  0  0  0  0  0  0
   -9.1539   -3.6875   -0.0000 C   0  0  0  0  0  0  0  0  0  0  0  0
   -7.8344   -5.9141   -0.0000 C   0  0  0  0  0  0  0  0  0  0  0  0
  -10.4616   -4.4297   -0.0000 C   0  0  0  0  0  0  0  0  0  0  0  0
   -9.1775   -2.1795   -0.0000 C   0  0  0  0  0  0  0  0  0  0  0  0
   -9.1421   -6.6681   -0.0000 N   0  0  0  0  0  0  0  0  0  0  0  0
  -10.4616   -5.9141   -0.0000 C   0  0  0  0  0  0  0  0  0  0  0  0
   -7.8933   -1.4019   -0.0000 C   0  0  0  0  0  0  0  0  0  0  0  0
  -10.4969   -1.4255   -0.0000 C   0  0  0  0  0  0  0  0  0  0  0  0
   -7.9169    0.1060   -0.0000 C   0  0  0  0  0  0  0  0  0  0  0  0
  -10.5205    0.0825   -0.0000 C   0  0  0  0  0  0  0  0  0  0  0  0
   -6.6327    0.8718   -0.0000 O   0  0  0  0  0  0  0  0  0  0  0  0
   -9.2364    0.8482   -0.0000 C   0  0  0  0  0  0  0  0  0  0  0  0
  -11.8282    0.8247   -0.0000 C   0  0  0  0  0  0  0  0  0  0  0  0
  -10.2142    2.0028   -0.0000 O   0  0  0  0  0  0  0  0  0  0  0  0
   -8.2939    2.0146   -0.0000 C   0  0  0  0  0  0  0  0  0  0  0  0
  1  2  1  0  0  0  0
  2  3  2  0  0  0  0
  2  4  1  0  0  0  0
  3  5  1  0  0  0  0
  3  6  1  0  0  0  0
  4  7  2  0  0  0  0
  5  8  2  0  0  0  0
  5  9  1  0  0  0  0
  6 10  1  0  0  0  0
  6 11  2  0  0  0  0
  8 12  1  0  0  0  0
  9 13  2  0  0  0  0
 12 14  2  0  0  0  0
 12 15  1  0  0  0  0
 14 16  1  0  0  0  0
 15 17  2  0  0  0  0
 15 18  1  0  0  0  0
 18 19  1  0  0  0  0
 19 20  2  0  0  0  0
 19 21  1  0  0  0  0
 20 22  1  0  0  0  0
 23 20  1  1  0  0  0
 21 24  2  0  0  0  0
 22 25  2  0  0  0  0
 23 26  1  0  0  0  0
 23 27  1  0  0  0  0
 26 28  1  0  0  0  0
 27 29  1  0  0  0  0
 28 30  1  1  0  0  0
 28 31  1  0  0  0  0
 29 32  1  1  0  0  0
 31 33  1  6  0  0  0
 31 34  1  0  0  0  0
  7 11  1  0  0  0  0
 13 14  1  0  0  0  0
 24 25  1  0  0  0  0
 29 31  1  0  0  0  0
M  END
>  <MolRegNo>
2505405

>  <m>
=

>  <Value>
26000

>  <Unit>
nM

>  <Type>
IC50

>  <pValue>
4.58

>  <Ligand Efficiency>
0

>  <Binding Efficiency>
0

>  <Surface Efficiency>
0

>  <Assay Index>
1423855

>  <Assay Category>


>  <Assay Organism>
Homo sapiens

>  <Target ID>
17045

>  <Target Name>
Cytochrome P450 3A4

>  <Target Organism>
Homo sapiens

>  <Target Description>
Target is a single protein chain

>  <Sequence Accession>
P08684

>  <Reference>
J Med Chem 63 (23.0), 14885-14904 (2020)

>  <Pubmed ID>
33258605

>  <DOI>
10.1021/acs.jmedchem.0c01279

$$$$
2501671
Actelion Java MolfileCreator 1.0

 31 33  0  0  0  0  0  0  0  0999 V2000
    0.0000   -0.0000   -0.0000 S   0  0  0  0  0  0  0  0  0  0  0  0
   -0.7713    1.3171   -0.0000 O   0  0  0  0  0  0  0  0  0  0  0  0
    0.7357    1.3171   -0.0000 O   0  0  0  0  0  0  0  0  0  0  0  0
   -1.3171   -0.7357   -0.0000 N   0  0  0  0  0  0  0  0  0  0  0  0
    1.2933   -0.7357   -0.0000 C   0  0  0  0  0  0  0  0  0  0  0  0
   -2.6342    0.0237   -0.0000 C   0  0  0  0  0  0  0  0  0  0  0  0
   -1.3289   -2.2307   -0.0000 C   0  0  0  0  0  0  0  0  0  0  0  0
    1.2815   -2.2307   -0.0000 C   0  0  0  0  0  0  0  0  0  0  0  0
    2.5748    0.0237   -0.0000 C   0  0  0  0  0  0  0  0  0  0  0  0
   -3.9394   -0.7119   -0.0000 C   0  0  0  0  0  0  0  0  0  0  0  0
   -2.6460   -2.9664   -0.0000 C   0  0  0  0  0  0  0  0  0  0  0  0
   -0.0356   -2.9664   -0.0000 F   0  0  0  0  0  0  0  0  0  0  0  0
    2.5748   -2.9664   -0.0000 C   0  0  0  0  0  0  0  0  0  0  0  0
    3.8682   -0.7119   -0.0000 C   0  0  0  0  0  0  0  0  0  0  0  0
   -3.9631   -2.2070   -0.0000 C   0  0  0  0  0  0  0  0  0  0  0  0
    3.8682   -2.2070   -0.0000 C   0  0  0  0  0  0  0  0  0  0  0  0
    5.1496    0.0593   -0.0000 C   0  0  0  0  0  0  0  0  0  0  0  0
   -5.2802   -2.9427   -0.0000 O   0  0  0  0  0  0  0  0  0  0  0  0
    5.1615   -2.9427   -0.0000 N   0  0  0  0  0  0  0  0  0  0  0  0
    5.1378    1.5781   -0.0000 O   0  0  0  0  0  0  0  0  0  0  0  0
    6.4430   -0.6763   -0.0000 N   0  0  0  0  0  0  0  0  0  0  0  0
    7.7245    0.0949   -0.0000 C   0  0  0  0  0  0  0  0  0  0  0  0
    9.0178   -0.6407   -0.0000 C   0  0  0  0  0  0  0  0  0  0  0  0
    7.7007    1.6018   -0.0000 C   0  0  0  0  0  0  0  0  0  0  0  0
   10.2993    0.1305   -0.0000 C   0  0  0  0  0  0  0  0  0  0  0  0
    8.9822    2.3731   -0.0000 C   0  0  0  0  0  0  0  0  0  0  0  0
   10.2874    1.6493   -0.0000 C   0  0  0  0  0  0  0  0  0  0  0  0
   11.5926   -0.6051   -0.0000 C   0  0  0  0  0  0  0  0  0  0  0  0
   11.5689    2.4206   -0.0000 F   0  0  0  0  0  0  0  0  0  0  0  0
   11.5808   -2.1002   -0.0000 F   0  0  0  0  0  0  0  0  0  0  0  0
   12.8741    0.1661   -0.0000 F   0  0  0  0  0  0  0  0  0  0  0  0
  1  2  2  0  0  0  0
  1  3  2  0  0  0  0
  1  4  1  0  0  0  0
  1  5  1  0  0  0  0
  4  6  1  0  0  0  0
  4  7  1  0  0  0  0
  5  8  2  0  0  0  0
  5  9  1  0  0  0  0
  6 10  1  0  0  0  0
  7 11  1  0  0  0  0
  8 12  1  0  0  0  0
  8 13  1  0  0  0  0
  9 14  2  0  0  0  0
 10 15  1  0  0  0  0
 13 16  2  0  0  0  0
 14 17  1  0  0  0  0
 15 18  1  0  0  0  0
 16 19  1  0  0  0  0
 17 20  2  0  0  0  0
 17 21  1  0  0  0  0
 21 22  1  0  0  0  0
 22 23  2  0  0  0  0
 22 24  1  0  0  0  0
 23 25  1  0  0  0  0
 24 26  2  0  0  0  0
 25 27  2  0  0  0  0
 25 28  1  0  0  0  0
 27 29  1  0  0  0  0
 28 30  1  0  0  0  0
 28 31  1  0  0  0  0
 11 15  1  0  0  0  0
 14 16  1  0  0  0  0
 26 27  1  0  0  0  0
M  END
>  <MolRegNo>
2501671

>  <m>
=

>  <Value>
20800

>  <Unit>
nM

>  <Type>
IC50

>  <pValue>
4.68

>  <Ligand Efficiency>
0

>  <Binding Efficiency>
0

>  <Surface Efficiency>
0

>  <Assay Index>
1425008

>  <Assay Category>


>  <Assay Organism>
Homo sapiens

>  <Target ID>
17045

>  <Target Name>
Cytochrome P450 3A4

>  <Target Organism>
Homo sapiens

>  <Target Description>
Target is a single protein chain

>  <Sequence Accession>
P08684

>  <Reference>
ACS Med Chem Lett 12 (2.0), 242-248 (2021)

>  <Pubmed ID>
33603970

>  <DOI>
10.1021/acsmedchemlett.0c00606

$$$$
2508660
Actelion Java MolfileCreator 1.0

 29 31  0  0  0  0  0  0  0  0999 V2000
    0.0000   -0.0000   -0.0000 S   0  0  0  0  0  0  0  0  0  0  0  0
   -0.7711    1.3168   -0.0000 O   0  0  0  0  0  0  0  0  0  0  0  0
    0.7355    1.3168   -0.0000 O   0  0  0  0  0  0  0  0  0  0  0  0
   -1.3168   -0.7355   -0.0000 N   0  0  0  0  0  0  0  0  0  0  0  0
    1.2931   -0.7355   -0.0000 C   0  0  0  0  0  0  0  0  0  0  0  0
   -2.6336    0.0237   -0.0000 C   0  0  0  0  0  0  0  0  0  0  0  0
   -1.3287   -2.2303   -0.0000 C   0  0  0  0  0  0  0  0  0  0  0  0
    1.2812   -2.2303   -0.0000 C   0  0  0  0  0  0  0  0  0  0  0  0
    2.5743    0.0237   -0.0000 C   0  0  0  0  0  0  0  0  0  0  0  0
   -3.9386   -0.7118   -0.0000 C   0  0  0  0  0  0  0  0  0  0  0  0
   -2.6455   -2.9658   -0.0000 C   0  0  0  0  0  0  0  0  0  0  0  0
   -0.0356   -2.9658   -0.0000 F   0  0  0  0  0  0  0  0  0  0  0  0
    2.5743   -2.9658   -0.0000 C   0  0  0  0  0  0  0  0  0  0  0  0
    3.8674   -0.7118   -0.0000 C   0  0  0  0  0  0  0  0  0  0  0  0
   -3.9623   -2.2066   -0.0000 C   0  0  0  0  0  0  0  0  0  0  0  0
    3.8674   -2.2066   -0.0000 C   0  0  0  0  0  0  0  0  0  0  0  0
    5.1486    0.0593   -0.0000 C   0  0  0  0  0  0  0  0  0  0  0  0
   -5.2791   -2.9421   -0.0000 O   0  0  0  0  0  0  0  0  0  0  0  0
    5.1605   -2.9421   -0.0000 N   0  0  0  0  0  0  0  0  0  0  0  0
    5.1368    1.5778   -0.0000 O   0  0  0  0  0  0  0  0  0  0  0  0
    6.4417   -0.6762   -0.0000 N   0  0  0  0  0  0  0  0  0  0  0  0
    7.7229    0.0949   -0.0000 C   0  0  0  0  0  0  0  0  0  0  0  0
    9.0160   -0.6406   -0.0000 C   0  0  0  0  0  0  0  0  0  0  0  0
    7.6992    1.6015   -0.0000 C   0  0  0  0  0  0  0  0  0  0  0  0
   10.2972    0.1305   -0.0000 C   0  0  0  0  0  0  0  0  0  0  0  0
    8.9804    2.3726   -0.0000 C   0  0  0  0  0  0  0  0  0  0  0  0
   11.5903   -0.6050   -0.0000 F   0  0  0  0  0  0  0  0  0  0  0  0
   10.2854    1.6490   -0.0000 C   0  0  0  0  0  0  0  0  0  0  0  0
   11.5666    2.4201   -0.0000 F   0  0  0  0  0  0  0  0  0  0  0  0
  1  2  2  0  0  0  0
  1  3  2  0  0  0  0
  1  4  1  0  0  0  0
  1  5  1  0  0  0  0
  4  6  1  0  0  0  0
  4  7  1  0  0  0  0
  5  8  2  0  0  0  0
  5  9  1  0  0  0  0
  6 10  1  0  0  0  0
  7 11  1  0  0  0  0
  8 12  1  0  0  0  0
  8 13  1  0  0  0  0
  9 14  2  0  0  0  0
 10 15  1  0  0  0  0
 13 16  2  0  0  0  0
 14 17  1  0  0  0  0
 15 18  1  0  0  0  0
 16 19  1  0  0  0  0
 17 20  2  0  0  0  0
 17 21  1  0  0  0  0
 21 22  1  0  0  0  0
 22 23  2  0  0  0  0
 22 24  1  0  0  0  0
 23 25  1  0  0  0  0
 24 26  2  0  0  0  0
 25 27  1  0  0  0  0
 25 28  2  0  0  0  0
 28 29  1  0  0  0  0
 11 15  1  0  0  0  0
 14 16  1  0  0  0  0
 26 28  1  0  0  0  0
M  END
>  <MolRegNo>
2508660

>  <m>
=

>  <Value>
41000

>  <Unit>
nM

>  <Type>
IC50

>  <pValue>
4.39

>  <Ligand Efficiency>
0

>  <Binding Efficiency>
0

>  <Surface Efficiency>
0

>  <Assay Index>
1425008

>  <Assay Category>


>  <Assay Organism>
Homo sapiens

>  <Target ID>
17045

>  <Target Name>
Cytochrome P450 3A4

>  <Target Organism>
Homo sapiens

>  <Target Description>
Target is a single protein chain

>  <Sequence Accession>
P08684

>  <Reference>
ACS Med Chem Lett 12 (2.0), 242-248 (2021)

>  <Pubmed ID>
33603970

>  <DOI>
10.1021/acsmedchemlett.0c00606

$$$$
2504159
Actelion Java MolfileCreator 1.0

 33 37  0  0  1  0  0  0  0  0999 V2000
    0.0000   -0.0000   -0.0000 Cl  0  0  0  0  0  0  0  0  0  0  0  0
   -1.5116   -0.1547   -0.0000 C   0  0  0  0  0  0  0  0  0  0  0  0
   -2.4043    1.0712   -0.0000 C   0  0  0  0  0  0  0  0  0  0  0  0
   -2.1305   -1.5116   -0.0000 C   0  0  0  0  0  0  0  0  0  0  0  0
   -3.9040    0.9284   -0.0000 N   0  0  0  0  0  0  0  0  0  0  0  0
   -3.6303   -1.6663   -0.0000 C   0  0  0  0  0  0  0  0  0  0  0  0
   -4.5229   -0.4285   -0.0000 C   0  0  0  0  0  0  0  0  0  0  0  0
   -4.5229   -2.8685   -0.0000 N   0  0  0  0  0  0  0  0  0  0  0  0
   -5.9631   -0.8808   -0.0000 N   0  0  0  0  0  0  0  0  0  0  0  0
   -5.9512   -2.4043   -0.0000 C   0  0  0  0  0  0  0  0  0  0  0  0
   -7.2605   -3.1423   -0.0000 C   0  0  0  0  0  0  0  0  0  0  0  0
   -7.2724   -4.6301   -0.0000 C   0  0  0  0  0  0  0  0  0  0  0  0
   -8.5698   -2.3805   -0.0000 C   0  0  0  0  0  0  0  0  0  0  0  0
   -5.9869   -5.3799   -0.0000 C   0  0  0  0  0  0  0  0  0  0  0  0
   -8.5817   -5.3799   -0.0000 C   0  0  0  0  0  0  0  0  0  0  0  0
   -8.5817   -0.8689   -0.0000 C   0  0  0  0  0  0  0  0  0  0  0  0
   -5.9988   -6.8677   -0.0000 C   0  0  0  0  0  0  0  0  0  0  0  0
   -8.5936   -6.8677   -0.0000 C   0  0  0  0  0  0  0  0  0  0  0  0
   -7.3081   -7.6057   -0.0000 C   0  0  0  0  0  0  0  0  0  0  0  0
   -7.3200   -9.1054   -0.0000 C   0  0  0  0  0  0  0  0  0  0  0  0
   -6.0227   -9.8314   -0.0000 C   0  0  0  0  0  0  0  0  0  0  0  0
   -8.6412   -9.8433   -0.0000 C   0  0  0  0  0  0  0  0  0  0  0  0
   -6.0346  -11.3193   -0.0000 C   0  0  0  0  0  0  0  0  0  0  0  0
   -4.7491   -9.0697   -0.0000 C   0  0  0  0  0  0  0  0  0  0  0  0
   -8.6531  -11.3431   -0.0000 C   0  0  0  0  0  0  0  0  0  0  0  0
   -7.3557  -12.0691   -0.0000 N   0  0  0  0  0  0  0  0  0  0  0  0
   -4.7491  -12.0572   -0.0000 C   0  0  0  0  0  0  0  0  0  0  0  0
   -3.4517   -9.7957   -0.0000 C   0  0  0  0  0  0  0  0  0  0  0  0
   -3.4636  -11.2835   -0.0000 C   0  0  0  0  0  0  0  0  0  0  0  0
   -2.1663   -9.0221   -0.0000 C   0  0  0  0  0  0  0  0  0  0  0  0
   -0.8689   -9.7481   -0.0000 F   0  0  0  0  0  0  0  0  0  0  0  0
   -2.1901   -7.5105   -0.0000 F   0  0  0  0  0  0  0  0  0  0  0  0
   -0.8808   -8.2484   -0.0000 F   0  0  0  0  0  0  0  0  0  0  0  0
  1  2  1  0  0  0  0
  2  3  2  0  0  0  0
  2  4  1  0  0  0  0
  3  5  1  0  0  0  0
  4  6  2  0  0  0  0
  5  7  2  0  0  0  0
  6  8  1  0  0  0  0
  7  9  1  0  0  0  0
  8 10  1  0  0  0  0
 10 11  1  0  0  0  0
 12 11  1  6  0  0  0
 11 13  1  0  0  0  0
 12 14  1  0  0  0  0
 12 15  1  0  0  0  0
 13 16  1  0  0  0  0
 14 17  1  0  0  0  0
 15 18  1  0  0  0  0
 17 19  1  0  0  0  0
 19 20  1  6  0  0  0
 20 21  1  0  0  0  0
 20 22  2  0  0  0  0
 21 23  1  0  0  0  0
 21 24  2  0  0  0  0
 22 25  1  0  0  0  0
 23 26  1  0  0  0  0
 23 27  2  0  0  0  0
 24 28  1  0  0  0  0
 27 29  1  0  0  0  0
 28 30  1  0  0  0  0
 30 31  1  0  0  0  0
 30 32  1  0  0  0  0
 30 33  1  0  0  0  0
  6  7  1  0  0  0  0
  9 10  2  0  0  0  0
 18 19  1  0  0  0  0
 25 26  2  0  0  0  0
 28 29  2  0  0  0  0
M  END
>  <MolRegNo>
2504159

>  <m>
=

>  <Value>
1930

>  <Unit>
nM

>  <Type>
IC50

>  <pValue>
5.71

>  <Ligand Efficiency>
0

>  <Binding Efficiency>
0

>  <Surface Efficiency>
0

>  <Assay Index>
1425162

>  <Assay Category>


>  <Assay Organism>
Homo sapiens

>  <Target ID>
17045

>  <Target Name>
Cytochrome P450 3A4

>  <Target Organism>
Homo sapiens

>  <Target Description>
Target is a single protein chain

>  <Sequence Accession>
P08684

>  <Reference>
ACS Med Chem Lett 12 (3.0), 494-501 (2021)

>  <Pubmed ID>
33738077

>  <DOI>
10.1021/acsmedchemlett.1c00014

$$$$
2508234
Actelion Java MolfileCreator 1.0

 26 28  0  0  0  0  0  0  0  0999 V2000
    0.0000   -0.0000   -0.0000 Cl  0  0  0  0  0  0  0  0  0  0  0  0
    0.6180   -1.3549   -0.0000 C   0  0  0  0  0  0  0  0  0  0  0  0
    2.0799   -1.6401   -0.0000 S   0  0  0  0  0  0  0  0  0  0  0  0
   -0.1307   -2.6503   -0.0000 C   0  0  0  0  0  0  0  0  0  0  0  0
    2.2344   -3.1257   -0.0000 C   0  0  0  0  0  0  0  0  0  0  0  0
    0.8795   -3.7556   -0.0000 C   0  0  0  0  0  0  0  0  0  0  0  0
    3.5298   -3.8626   -0.0000 N   0  0  0  0  0  0  0  0  0  0  0  0
    4.8134   -3.0901   -0.0000 C   0  0  0  0  0  0  0  0  0  0  0  0
    4.7896   -1.5688   -0.0000 O   0  0  0  0  0  0  0  0  0  0  0  0
    6.1088   -3.8269   -0.0000 N   0  0  0  0  0  0  0  0  0  0  0  0
    7.4043   -3.0544   -0.0000 C   0  0  0  0  0  0  0  0  0  0  0  0
    7.5350   -1.5331   -0.0000 C   0  0  0  0  0  0  0  0  0  0  0  0
    8.7710   -3.6368   -0.0000 C   0  0  0  0  0  0  0  0  0  0  0  0
    6.3941   -0.5229   -0.0000 O   0  0  0  0  0  0  0  0  0  0  0  0
    8.9968   -1.2004   -0.0000 N   0  0  0  0  0  0  0  0  0  0  0  0
    9.0800   -5.0986   -0.0000 C   0  0  0  0  0  0  0  0  0  0  0  0
    9.7575   -2.4958   -0.0000 C   0  0  0  0  0  0  0  0  0  0  0  0
    7.9629   -6.1088   -0.0000 C   0  0  0  0  0  0  0  0  0  0  0  0
   10.5062   -5.5384   -0.0000 C   0  0  0  0  0  0  0  0  0  0  0  0
    6.5129   -5.6453   -0.0000 F   0  0  0  0  0  0  0  0  0  0  0  0
    8.2719   -7.5707   -0.0000 C   0  0  0  0  0  0  0  0  0  0  0  0
   11.5996   -4.5163   -0.0000 F   0  0  0  0  0  0  0  0  0  0  0  0
   10.8152   -7.0002   -0.0000 C   0  0  0  0  0  0  0  0  0  0  0  0
    9.6981   -8.0104   -0.0000 C   0  0  0  0  0  0  0  0  0  0  0  0
   10.0071   -9.4722   -0.0000 O   0  0  0  0  0  0  0  0  0  0  0  0
   11.4332   -9.9120   -0.0000 C   0  0  0  0  0  0  0  0  0  0  0  0
  1  2  1  0  0  0  0
  2  3  1  0  0  0  0
  2  4  2  0  0  0  0
  3  5  1  0  0  0  0
  4  6  1  0  0  0  0
  5  7  1  0  0  0  0
  7  8  1  0  0  0  0
  8  9  2  0  0  0  0
  8 10  1  0  0  0  0
 11 10  1  6  0  0  0
 11 12  1  0  0  0  0
 11 13  1  0  0  0  0
 12 14  2  0  0  0  0
 12 15  1  0  0  0  0
 13 16  1  1  0  0  0
 13 17  1  0  0  0  0
 16 18  2  0  0  0  0
 16 19  1  0  0  0  0
 18 20  1  0  0  0  0
 18 21  1  0  0  0  0
 19 22  1  0  0  0  0
 19 23  2  0  0  0  0
 21 24  2  0  0  0  0
 24 25  1  0  0  0  0
 25 26  1  0  0  0  0
  5  6  2  0  0  0  0
 15 17  1  0  0  0  0
 23 24  1  0  0  0  0
M  END
>  <MolRegNo>
2508234

>  <m>
=

>  <Value>
5600

>  <Unit>
nM

>  <Type>
IC50

>  <pValue>
5.25

>  <Ligand Efficiency>
0

>  <Binding Efficiency>
0

>  <Surface Efficiency>
0

>  <Assay Index>
1425652

>  <Assay Category>


>  <Assay Organism>
Homo sapiens

>  <Target ID>
17045

>  <Target Name>
Cytochrome P450 3A4

>  <Target Organism>
Homo sapiens

>  <Target Description>
Target is a single protein chain

>  <Sequence Accession>
P08684

>  <Reference>
J Med Chem 63 (17), 9003-9019 (2020)

>  <Pubmed ID>
32407089

>  <DOI>
10.1021/acs.jmedchem.9b02101

$$$$
2507795
Actelion Java MolfileCreator 1.0

 35 39  0  0  0  0  0  0  0  0999 V2000
    0.0000   -0.0000   -0.0000 S   0  0  0  0  0  0  0  0  0  0  0  0
   -1.5193    0.0119   -0.0000 C   0  0  0  0  0  0  0  0  0  0  0  0
    0.7359   -1.2938   -0.0000 C   0  0  0  0  0  0  0  0  0  0  0  0
   -2.2790   -1.2701   -0.0000 N   0  0  0  0  0  0  0  0  0  0  0  0
   -2.2790    1.3294   -0.0000 N   0  0  0  0  0  0  0  0  0  0  0  0
    2.2196   -1.2701   -0.0000 C   0  0  0  0  0  0  0  0  0  0  0  0
   -0.0356   -2.5757   -0.0000 C   0  0  0  0  0  0  0  0  0  0  0  0
    1.4719   -2.5876   -0.0000 C   0  0  0  0  0  0  0  0  0  0  0  0
   -1.5549   -2.5520   -0.0000 C   0  0  0  0  0  0  0  0  0  0  0  0
    2.9556    0.0475   -0.0000 O   0  0  0  0  0  0  0  0  0  0  0  0
    2.9674   -2.5520   -0.0000 N   0  0  0  0  0  0  0  0  0  0  0  0
   -2.8725   -3.2879   -0.0000 C   0  0  0  0  0  0  0  0  0  0  0  0
   -1.5787   -4.0357   -0.0000 C   0  0  0  0  0  0  0  0  0  0  0  0
    4.4512   -2.5283   -0.0000 C   0  0  0  0  0  0  0  0  0  0  0  0
    2.2078   -3.8339   -0.0000 C   0  0  0  0  0  0  0  0  0  0  0  0
   -2.8844   -4.7716   -0.0000 C   0  0  0  0  0  0  0  0  0  0  0  0
   -4.1663   -2.5164   -0.0000 C   0  0  0  0  0  0  0  0  0  0  0  0
    5.1871   -3.8221   -0.0000 C   0  0  0  0  0  0  0  0  0  0  0  0
    2.9437   -5.1159   -0.0000 C   0  0  0  0  0  0  0  0  0  0  0  0
   -1.6024   -5.5076   -0.0000 F   0  0  0  0  0  0  0  0  0  0  0  0
   -4.1900   -5.5076   -0.0000 C   0  0  0  0  0  0  0  0  0  0  0  0
   -5.4838   -3.2523   -0.0000 C   0  0  0  0  0  0  0  0  0  0  0  0
    4.4274   -5.1159   -0.0000 O   0  0  0  0  0  0  0  0  0  0  0  0
   -5.5076   -4.7360   -0.0000 C   0  0  0  0  0  0  0  0  0  0  0  0
   -6.7895   -2.4808   -0.0000 C   0  0  0  0  0  0  0  0  0  0  0  0
   -8.1070   -3.2167   -0.0000 C   0  0  0  0  0  0  0  0  0  0  0  0
   -8.1308   -4.7004   -0.0000 F   0  0  0  0  0  0  0  0  0  0  0  0
   -9.4127   -2.4452   -0.0000 C   0  0  0  0  0  0  0  0  0  0  0  0
   -9.4127   -0.9377   -0.0000 N   0  0  0  0  0  0  0  0  0  0  0  0
  -10.7184   -3.1811   -0.0000 C   0  0  0  0  0  0  0  0  0  0  0  0
  -10.7184   -0.1662   -0.0000 C   0  0  0  0  0  0  0  0  0  0  0  0
  -12.0241   -2.4214   -0.0000 C   0  0  0  0  0  0  0  0  0  0  0  0
  -12.0359   -0.9021   -0.0000 C   0  0  0  0  0  0  0  0  0  0  0  0
  -13.3416   -0.1424   -0.0000 C   0  0  0  0  0  0  0  0  0  0  0  0
  -14.6473    0.6291   -0.0000 N   0  0  0  0  0  0  0  0  0  0  0  0
  1  2  1  0  0  0  0
  1  3  1  0  0  0  0
  2  4  2  0  0  0  0
  2  5  1  0  0  0  0
  3  6  1  0  0  0  0
  3  7  1  0  0  0  0
  3  8  1  1  0  0  0
  4  9  1  0  0  0  0
  6 10  2  0  0  0  0
  6 11  1  0  0  0  0
  9 12  1  0  0  0  0
  9 13  1  6  0  0  0
 11 14  1  0  0  0  0
 11 15  1  0  0  0  0
 12 16  2  0  0  0  0
 12 17  1  0  0  0  0
 14 18  1  0  0  0  0
 15 19  1  0  0  0  0
 16 20  1  0  0  0  0
 16 21  1  0  0  0  0
 17 22  2  0  0  0  0
 18 23  1  0  0  0  0
 21 24  2  0  0  0  0
 22 25  1  0  0  0  0
 25 26  2  0  0  0  0
 26 27  1  0  0  0  0
 26 28  1  0  0  0  0
 28 29  2  0  0  0  0
 28 30  1  0  0  0  0
 29 31  1  0  0  0  0
 30 32  2  0  0  0  0
 31 33  2  0  0  0  0
 33 34  1  0  0  0  0
 34 35  3  0  0  0  0
  7  8  1  1  0  0  0
  7  9  1  0  0  0  0
 19 23  1  0  0  0  0
 22 24  1  0  0  0  0
 32 33  1  0  0  0  0
M  END
>  <MolRegNo>
2507795

>  <m>
=

>  <Value>
5300

>  <Unit>
nM

>  <Type>
IC50

>  <pValue>
5.28

>  <Ligand Efficiency>
0

>  <Binding Efficiency>
0

>  <Surface Efficiency>
0

>  <Assay Index>
1425829

>  <Assay Category>


>  <Assay Organism>
Homo sapiens

>  <Target ID>
17045

>  <Target Name>
Cytochrome P450 3A4

>  <Target Organism>
Homo sapiens

>  <Target Description>
Target is a single protein chain

>  <Sequence Accession>
P08684

>  <Reference>
Bioorg Med Chem Lett 30 (14), 127240-127240 (2020)

>  <Pubmed ID>
32527542

>  <DOI>
10.1016/j.bmcl.2020.127240

$$$$
2528938
Actelion Java MolfileCreator 1.0

 35 38  0  0  0  0  0  0  0  0999 V2000
    0.0000   -0.0000   -0.0000 O   0  0  0  0  0  0  0  0  0  0  0  0
   -0.0119    1.5091   -0.0000 C   0  0  0  0  0  0  0  0  0  0  0  0
   -1.3190    2.2696   -0.0000 N   0  0  0  0  0  0  0  0  0  0  0  0
    1.2715    2.2696   -0.0000 C   0  0  0  0  0  0  0  0  0  0  0  0
   -2.6261    1.5329   -0.0000 C   0  0  0  0  0  0  0  0  0  0  0  0
   -1.3309    3.7787   -0.0000 C   0  0  0  0  0  0  0  0  0  0  0  0
    1.2596    3.7787   -0.0000 N   0  0  0  0  0  0  0  0  0  0  0  0
    2.5548    1.5329   -0.0000 N   0  0  0  0  0  0  0  0  0  0  0  0
   -2.6380    0.0356   -0.0000 C   0  0  0  0  0  0  0  0  0  0  0  0
   -3.9332    2.2934   -0.0000 C   0  0  0  0  0  0  0  0  0  0  0  0
   -0.0475    4.5392   -0.0000 C   0  0  0  0  0  0  0  0  0  0  0  0
    3.8381    2.3053   -0.0000 C   0  0  0  0  0  0  0  0  0  0  0  0
   -3.9570   -0.7011   -0.0000 C   0  0  0  0  0  0  0  0  0  0  0  0
   -1.3546   -0.7011   -0.0000 C   0  0  0  0  0  0  0  0  0  0  0  0
   -5.2403    1.5566   -0.0000 C   0  0  0  0  0  0  0  0  0  0  0  0
    5.1334    1.5685   -0.0000 C   0  0  0  0  0  0  0  0  0  0  0  0
    3.0658    3.6243   -0.0000 C   0  0  0  0  0  0  0  0  0  0  0  0
    4.5749    3.6243   -0.0000 C   0  0  0  0  0  0  0  0  0  0  0  0
   -5.2641    0.0594   -0.0000 C   0  0  0  0  0  0  0  0  0  0  0  0
   -6.5474    2.3171   -0.0000 C   0  0  0  0  0  0  0  0  0  0  0  0
    6.4048    2.3409   -0.0000 C   0  0  0  0  0  0  0  0  0  0  0  0
    5.1215    0.0832   -0.0000 C   0  0  0  0  0  0  0  0  0  0  0  0
   -6.5593    3.8263   -0.0000 O   0  0  0  0  0  0  0  0  0  0  0  0
   -7.8545    1.5804   -0.0000 N   0  0  0  0  0  0  0  0  0  0  0  0
    6.3811    3.8500   -0.0000 O   0  0  0  0  0  0  0  0  0  0  0  0
    7.6882    1.6161   -0.0000 C   0  0  0  0  0  0  0  0  0  0  0  0
    6.4048   -0.6536   -0.0000 C   0  0  0  0  0  0  0  0  0  0  0  0
   -9.1616    2.3409   -0.0000 C   0  0  0  0  0  0  0  0  0  0  0  0
    7.6644    4.6224   -0.0000 C   0  0  0  0  0  0  0  0  0  0  0  0
    7.6882    0.1188   -0.0000 C   0  0  0  0  0  0  0  0  0  0  0  0
   -9.9221    3.6480   -0.0000 C   0  0  0  0  0  0  0  0  0  0  0  0
  -10.6708    2.3528   -0.0000 C   0  0  0  0  0  0  0  0  0  0  0  0
    8.9596    3.8976   -0.0000 C   0  0  0  0  0  0  0  0  0  0  0  0
   10.2430    4.6699   -0.0000 N   0  0  0  0  0  0  0  0  0  0  0  0
   11.5382    3.9451   -0.0000 C   0  0  0  0  0  0  0  0  0  0  0  0
  1  2  2  0  0  0  0
  2  3  1  0  0  0  0
  2  4  1  0  0  0  0
  3  5  1  0  0  0  0
  3  6  1  0  0  0  0
  4  7  2  0  0  0  0
  4  8  1  0  0  0  0
  5  9  2  0  0  0  0
  5 10  1  0  0  0  0
  6 11  2  0  0  0  0
  8 12  1  0  0  0  0
  9 13  1  0  0  0  0
  9 14  1  0  0  0  0
 10 15  2  0  0  0  0
 12 16  1  0  0  0  0
 12 17  1  0  0  0  0
 12 18  1  0  0  0  0
 13 19  2  0  0  0  0
 15 20  1  0  0  0  0
 16 21  2  0  0  0  0
 16 22  1  0  0  0  0
 20 23  2  0  0  0  0
 20 24  1  0  0  0  0
 21 25  1  0  0  0  0
 21 26  1  0  0  0  0
 22 27  2  0  0  0  0
 24 28  1  0  0  0  0
 25 29  1  0  0  0  0
 26 30  2  0  0  0  0
 28 31  1  0  0  0  0
 28 32  1  0  0  0  0
 29 33  1  0  0  0  0
 33 34  1  0  0  0  0
 34 35  1  0  0  0  0
  7 11  1  0  0  0  0
 15 19  1  0  0  0  0
 27 30  1  0  0  0  0
 31 32  1  0  0  0  0
M  END
>  <MolRegNo>
2528938

>  <m>
=

>  <Value>
5011.9

>  <Unit>
nM

>  <Type>
IC50

>  <pValue>
5.3

>  <Ligand Efficiency>
0

>  <Binding Efficiency>
0

>  <Surface Efficiency>
0

>  <Assay Index>
1426900

>  <Assay Category>


>  <Assay Organism>
Homo sapiens

>  <Target ID>
17045

>  <Target Name>
Cytochrome P450 3A4

>  <Target Organism>
Homo sapiens

>  <Target Description>
Target is a single protein chain

>  <Sequence Accession>
P08684

>  <Reference>
Bioorg Med Chem Lett 30 (18), 127412-127412 (2020)

>  <Pubmed ID>
32717614

>  <DOI>
10.1016/j.bmcl.2020.127412

$$$$
2493190
Actelion Java MolfileCreator 1.0

 27 31  0  0  0  0  0  0  0  0999 V2000
    0.0000   -0.0000   -0.0000 O   0  0  0  0  0  0  0  0  0  0  0  0
   -0.6363   -1.3433   -0.0000 C   0  0  0  0  0  0  0  0  0  0  0  0
   -2.1329   -1.4730   -0.0000 N   0  0  0  0  0  0  0  0  0  0  0  0
    0.2239   -2.5571   -0.0000 C   0  0  0  0  0  0  0  0  0  0  0  0
   -2.7692   -2.8281   -0.0000 C   0  0  0  0  0  0  0  0  0  0  0  0
   -3.0166   -0.2475   -0.0000 C   0  0  0  0  0  0  0  0  0  0  0  0
    1.7086   -2.4039   -0.0000 C   0  0  0  0  0  0  0  0  0  0  0  0
   -0.4124   -3.9004   -0.0000 C   0  0  0  0  0  0  0  0  0  0  0  0
   -1.9090   -4.0418   -0.0000 N   0  0  0  0  0  0  0  0  0  0  0  0
   -4.2657   -2.9577   -0.0000 C   0  0  0  0  0  0  0  0  0  0  0  0
   -4.5250   -0.3771   -0.0000 C   0  0  0  0  0  0  0  0  0  0  0  0
    2.3214   -1.0370   -0.0000 O   0  0  0  0  0  0  0  0  0  0  0  0
    2.5689   -3.6176   -0.0000 C   0  0  0  0  0  0  0  0  0  0  0  0
    0.4478   -5.1142   -0.0000 C   0  0  0  0  0  0  0  0  0  0  0  0
   -2.5453   -5.3852   -0.0000 C   0  0  0  0  0  0  0  0  0  0  0  0
   -5.1731   -4.1479   -0.0000 N   0  0  0  0  0  0  0  0  0  0  0  0
   -5.1495   -1.7204   -0.0000 C   0  0  0  0  0  0  0  0  0  0  0  0
    3.8062   -0.8838   -0.0000 C   0  0  0  0  0  0  0  0  0  0  0  0
    1.9325   -4.9727   -0.0000 C   0  0  0  0  0  0  0  0  0  0  0  0
   -6.6107   -3.6648   -0.0000 C   0  0  0  0  0  0  0  0  0  0  0  0
   -6.5989   -2.1564   -0.0000 C   0  0  0  0  0  0  0  0  0  0  0  0
   -7.9305   -4.3836   -0.0000 C   0  0  0  0  0  0  0  0  0  0  0  0
   -7.8951   -1.3787   -0.0000 C   0  0  0  0  0  0  0  0  0  0  0  0
   -9.2267   -3.6058   -0.0000 C   0  0  0  0  0  0  0  0  0  0  0  0
   -9.2149   -2.0975   -0.0000 C   0  0  0  0  0  0  0  0  0  0  0  0
  -10.5465   -4.3246   -0.0000 O   0  0  0  0  0  0  0  0  0  0  0  0
  -11.8427   -3.5469   -0.0000 C   0  0  0  0  0  0  0  0  0  0  0  0
  1  2  2  0  0  0  0
  2  3  1  0  0  0  0
  2  4  1  0  0  0  0
  5  3  1  6  0  0  0
  3  6  1  0  0  0  0
  4  7  2  0  0  0  0
  4  8  1  0  0  0  0
  5  9  1  0  0  0  0
  5 10  1  0  0  0  0
  6 11  1  0  0  0  0
  7 12  1  0  0  0  0
  7 13  1  0  0  0  0
  8 14  2  0  0  0  0
  9 15  1  0  0  0  0
 10 16  1  0  0  0  0
 10 17  2  0  0  0  0
 12 18  1  0  0  0  0
 13 19  2  0  0  0  0
 16 20  1  0  0  0  0
 17 21  1  0  0  0  0
 20 22  1  0  0  0  0
 21 23  1  0  0  0  0
 22 24  2  0  0  0  0
 23 25  2  0  0  0  0
 24 26  1  0  0  0  0
 26 27  1  0  0  0  0
  8  9  1  0  0  0  0
 11 17  1  0  0  0  0
 14 19  1  0  0  0  0
 20 21  2  0  0  0  0
 24 25  1  0  0  0  0
M  END
>  <MolRegNo>
2493190

>  <m>
=

>  <Value>
10000

>  <Unit>
nM

>  <Type>
IC50

>  <pValue>
5

>  <Ligand Efficiency>
0

>  <Binding Efficiency>
0

>  <Surface Efficiency>
0

>  <Assay Index>
1428960

>  <Assay Category>


>  <Assay Organism>
Homo sapiens

>  <Target ID>
17045

>  <Target Name>
Cytochrome P450 3A4

>  <Target Organism>
Homo sapiens

>  <Target Description>
Target is a single protein chain

>  <Sequence Accession>
P08684

>  <Reference>
J Med Chem 63 (17), 9828-9837 (2020)

>  <Pubmed ID>
32794708

>  <DOI>
10.1021/acs.jmedchem.0c00983

$$$$
2536848
Actelion Java MolfileCreator 1.0

 30 33  0  0  1  0  0  0  0  0999 V2000
    0.0000   -0.0000   -0.0000 Cl  0  0  0  0  0  0  0  0  0  0  0  0
   -0.0119    1.5100   -0.0000 C   0  0  0  0  0  0  0  0  0  0  0  0
    1.2722    2.2829   -0.0000 C   0  0  0  0  0  0  0  0  0  0  0  0
   -1.3198    2.2710   -0.0000 C   0  0  0  0  0  0  0  0  0  0  0  0
    2.5564    1.5457   -0.0000 N   0  0  0  0  0  0  0  0  0  0  0  0
    1.2604    3.8048   -0.0000 C   0  0  0  0  0  0  0  0  0  0  0  0
   -1.3317    3.7929   -0.0000 C   0  0  0  0  0  0  0  0  0  0  0  0
   -2.6277    1.5338   -0.0000 C   0  0  0  0  0  0  0  0  0  0  0  0
    2.5445    0.0595   -0.0000 C   0  0  0  0  0  0  0  0  0  0  0  0
    3.8405    2.3067   -0.0000 C   0  0  0  0  0  0  0  0  0  0  0  0
    2.5445    4.5658   -0.0000 C   0  0  0  0  0  0  0  0  0  0  0  0
   -0.0476    4.5658   -0.0000 C   0  0  0  0  0  0  0  0  0  0  0  0
   -2.6396    4.5539   -0.0000 F   0  0  0  0  0  0  0  0  0  0  0  0
   -3.0320    0.0951   -0.0000 C   0  0  0  0  0  0  0  0  0  0  0  0
   -4.0902    1.9381   -0.0000 C   0  0  0  0  0  0  0  0  0  0  0  0
    1.2366   -0.6777   -0.0000 N   0  0  0  0  0  0  0  0  0  0  0  0
    3.8286   -0.6658   -0.0000 C   0  0  0  0  0  0  0  0  0  0  0  0
    3.8167    3.8286   -0.0000 C   0  0  0  0  0  0  0  0  0  0  0  0
    2.5207    6.0758   -0.0000 O   0  0  0  0  0  0  0  0  0  0  0  0
   -4.4945    0.4994   -0.0000 C   0  0  0  0  0  0  0  0  0  0  0  0
    1.2247   -2.1640   -0.0000 C   0  0  0  0  0  0  0  0  0  0  0  0
    5.1127    0.1070   -0.0000 F   0  0  0  0  0  0  0  0  0  0  0  0
    3.8286   -2.1521   -0.0000 C   0  0  0  0  0  0  0  0  0  0  0  0
    5.1009    4.6015   -0.0000 C   0  0  0  0  0  0  0  0  0  0  0  0
   -5.8024   -0.2378   -0.0000 O   0  0  0  0  0  0  0  0  0  0  0  0
   -0.0832   -2.9012   -0.0000 N   0  0  0  0  0  0  0  0  0  0  0  0
    2.5207   -2.9012   -0.0000 C   0  0  0  0  0  0  0  0  0  0  0  0
    5.0771    6.1115   -0.0000 O   0  0  0  0  0  0  0  0  0  0  0  0
    6.3969    3.8762   -0.0000 O   0  0  0  0  0  0  0  0  0  0  0  0
    2.5088   -4.3874   -0.0000 F   0  0  0  0  0  0  0  0  0  0  0  0
  1  2  1  0  0  0  0
  2  3  2  0  0  0  0
  2  4  1  0  0  0  0
  3  5  1  0  0  0  0
  3  6  1  0  0  0  0
  4  7  2  0  0  0  0
  8  4  1  6  0  0  0
  5  9  1  0  0  0  0
  5 10  1  0  0  0  0
  6 11  1  0  0  0  0
  6 12  2  0  0  0  0
  7 13  1  0  0  0  0
  8 14  1  0  0  0  0
  8 15  1  0  0  0  0
  9 16  2  0  0  0  0
  9 17  1  0  0  0  0
 10 18  2  0  0  0  0
 11 19  2  0  0  0  0
 14 20  1  0  0  0  0
 16 21  1  0  0  0  0
 17 22  1  0  0  0  0
 17 23  2  0  0  0  0
 18 24  1  0  0  0  0
 20 25  1  6  0  0  0
 21 26  1  0  0  0  0
 21 27  2  0  0  0  0
 24 28  2  0  0  0  0
 24 29  1  0  0  0  0
 27 30  1  0  0  0  0
  7 12  1  0  0  0  0
 11 18  1  0  0  0  0
 15 20  1  0  0  0  0
 23 27  1  0  0  0  0
M  END
>  <MolRegNo>
2536848

>  <m>
=

>  <Value>
24800

>  <Unit>
nM

>  <Type>
IC50

>  <pValue>
4.61

>  <Ligand Efficiency>
0

>  <Binding Efficiency>
0

>  <Surface Efficiency>
0

>  <Assay Index>
1429071

>  <Assay Category>


>  <Assay Organism>
Homo sapiens

>  <Target ID>
17045

>  <Target Name>
Cytochrome P450 3A4

>  <Target Organism>
Homo sapiens

>  <Target Description>
Target is a single protein chain

>  <Sequence Accession>
P08684

>  <Reference>
Bioorg Med Chem Lett 30 (20), 127428-127428 (2020)

>  <Pubmed ID>
32799032

>  <DOI>
10.1016/j.bmcl.2020.127428

$$$$
2493665
Actelion Java MolfileCreator 1.0

 30 33  0  0  0  0  0  0  0  0999 V2000
    0.0000   -0.0000   -0.0000 Cl  0  0  0  0  0  0  0  0  0  0  0  0
   -0.0119    1.5091   -0.0000 C   0  0  0  0  0  0  0  0  0  0  0  0
    1.2715    2.2697   -0.0000 C   0  0  0  0  0  0  0  0  0  0  0  0
   -1.3190    2.2697   -0.0000 C   0  0  0  0  0  0  0  0  0  0  0  0
    2.5667    1.5329   -0.0000 N   0  0  0  0  0  0  0  0  0  0  0  0
    1.2596    3.7907   -0.0000 C   0  0  0  0  0  0  0  0  0  0  0  0
   -2.6261    1.5329   -0.0000 N   0  0  0  0  0  0  0  0  0  0  0  0
   -1.3309    3.7907   -0.0000 C   0  0  0  0  0  0  0  0  0  0  0  0
    2.5548    0.0475   -0.0000 C   0  0  0  0  0  0  0  0  0  0  0  0
    3.8501    2.2934   -0.0000 C   0  0  0  0  0  0  0  0  0  0  0  0
    2.5430    4.5631   -0.0000 C   0  0  0  0  0  0  0  0  0  0  0  0
   -0.0594    4.5512   -0.0000 C   0  0  0  0  0  0  0  0  0  0  0  0
   -4.0759    1.9369   -0.0000 C   0  0  0  0  0  0  0  0  0  0  0  0
   -3.0183    0.1069   -0.0000 C   0  0  0  0  0  0  0  0  0  0  0  0
   -2.6380    4.5512   -0.0000 F   0  0  0  0  0  0  0  0  0  0  0  0
    1.2358   -0.7011   -0.0000 N   0  0  0  0  0  0  0  0  0  0  0  0
    3.8382   -0.6892   -0.0000 C   0  0  0  0  0  0  0  0  0  0  0  0
    3.8263    3.8144   -0.0000 C   0  0  0  0  0  0  0  0  0  0  0  0
    2.5192    6.0722   -0.0000 O   0  0  0  0  0  0  0  0  0  0  0  0
   -4.4799    0.4991   -0.0000 C   0  0  0  0  0  0  0  0  0  0  0  0
    1.2239   -2.1865   -0.0000 C   0  0  0  0  0  0  0  0  0  0  0  0
    5.1216    0.0832   -0.0000 F   0  0  0  0  0  0  0  0  0  0  0  0
    3.8382   -2.1746   -0.0000 C   0  0  0  0  0  0  0  0  0  0  0  0
    5.1097    4.5868   -0.0000 C   0  0  0  0  0  0  0  0  0  0  0  0
   -5.7870   -0.2377   -0.0000 N   0  0  0  0  0  0  0  0  0  0  0  0
   -0.0832   -2.9232   -0.0000 N   0  0  0  0  0  0  0  0  0  0  0  0
    2.5192   -2.9232   -0.0000 C   0  0  0  0  0  0  0  0  0  0  0  0
    5.0859    6.0960   -0.0000 O   0  0  0  0  0  0  0  0  0  0  0  0
    6.4049    3.8501   -0.0000 O   0  0  0  0  0  0  0  0  0  0  0  0
    2.5073   -4.4086   -0.0000 F   0  0  0  0  0  0  0  0  0  0  0  0
  1  2  1  0  0  0  0
  2  3  2  0  0  0  0
  2  4  1  0  0  0  0
  3  5  1  0  0  0  0
  3  6  1  0  0  0  0
  4  7  1  0  0  0  0
  4  8  2  0  0  0  0
  5  9  1  0  0  0  0
  5 10  1  0  0  0  0
  6 11  1  0  0  0  0
  6 12  2  0  0  0  0
  7 13  1  0  0  0  0
  7 14  1  0  0  0  0
  8 15  1  0  0  0  0
  9 16  2  0  0  0  0
  9 17  1  0  0  0  0
 10 18  2  0  0  0  0
 11 19  2  0  0  0  0
 13 20  1  0  0  0  0
 16 21  1  0  0  0  0
 17 22  1  0  0  0  0
 17 23  2  0  0  0  0
 18 24  1  0  0  0  0
 20 25  1  0  0  0  0
 21 26  1  0  0  0  0
 21 27  2  0  0  0  0
 24 28  2  0  0  0  0
 24 29  1  0  0  0  0
 27 30  1  0  0  0  0
  8 12  1  0  0  0  0
 11 18  1  0  0  0  0
 14 20  1  0  0  0  0
 23 27  1  0  0  0  0
M  END
>  <MolRegNo>
2493665

>  <m>
=

>  <Value>
13600

>  <Unit>
nM

>  <Type>
IC50

>  <pValue>
4.87

>  <Ligand Efficiency>
0

>  <Binding Efficiency>
0

>  <Surface Efficiency>
0

>  <Assay Index>
1429071

>  <Assay Category>


>  <Assay Organism>
Homo sapiens

>  <Target ID>
17045

>  <Target Name>
Cytochrome P450 3A4

>  <Target Organism>
Homo sapiens

>  <Target Description>
Target is a single protein chain

>  <Sequence Accession>
P08684

>  <Reference>
Bioorg Med Chem Lett 30 (20), 127428-127428 (2020)

>  <Pubmed ID>
32799032

>  <DOI>
10.1016/j.bmcl.2020.127428

$$$$
2502171
Actelion Java MolfileCreator 1.0

 34 38  0  0  0  0  0  0  0  0999 V2000
    0.0000   -0.0000   -0.0000 O   0  0  0  0  0  0  0  0  0  0  0  0
   -0.0237    1.5140   -0.0000 C   0  0  0  0  0  0  0  0  0  0  0  0
   -1.3484    2.2711   -0.0000 N   0  0  0  0  0  0  0  0  0  0  0  0
    1.2538    2.2947   -0.0000 C   0  0  0  0  0  0  0  0  0  0  0  0
   -1.3721    3.7851   -0.0000 N   0  0  0  0  0  0  0  0  0  0  0  0
    2.6732    1.8452   -0.0000 N   0  0  0  0  0  0  0  0  0  0  0  0
    1.2302    3.8088   -0.0000 C   0  0  0  0  0  0  0  0  0  0  0  0
   -0.0828    4.5540   -0.0000 C   0  0  0  0  0  0  0  0  0  0  0  0
    3.5249    3.0872   -0.0000 N   0  0  0  0  0  0  0  0  0  0  0  0
    3.1345    0.4377   -0.0000 C   0  0  0  0  0  0  0  0  0  0  0  0
    2.6378    4.3056   -0.0000 C   0  0  0  0  0  0  0  0  0  0  0  0
   -0.1065    6.0680   -0.0000 N   0  0  0  0  0  0  0  0  0  0  0  0
    4.5895    0.1538   -0.0000 C   0  0  0  0  0  0  0  0  0  0  0  0
    2.1291   -0.6742   -0.0000 C   0  0  0  0  0  0  0  0  0  0  0  0
    3.0754    5.7486   -0.0000 C   0  0  0  0  0  0  0  0  0  0  0  0
    5.0508   -1.2656   -0.0000 N   0  0  0  0  0  0  0  0  0  0  0  0
    2.5904   -2.0818   -0.0000 C   0  0  0  0  0  0  0  0  0  0  0  0
    4.5303    6.0798   -0.0000 C   0  0  0  0  0  0  0  0  0  0  0  0
    2.0582    6.8605   -0.0000 C   0  0  0  0  0  0  0  0  0  0  0  0
    6.5057   -1.5614   -0.0000 C   0  0  0  0  0  0  0  0  0  0  0  0
    4.0335   -2.3775   -0.0000 C   0  0  0  0  0  0  0  0  0  0  0  0
    4.9680    7.5229   -0.0000 C   0  0  0  0  0  0  0  0  0  0  0  0
    2.4840    8.3036   -0.0000 C   0  0  0  0  0  0  0  0  0  0  0  0
    6.9670   -2.9808   -0.0000 O   0  0  0  0  0  0  0  0  0  0  0  0
    7.4874   -0.4258   -0.0000 C   0  0  0  0  0  0  0  0  0  0  0  0
    3.9507    8.6466   -0.0000 C   0  0  0  0  0  0  0  0  0  0  0  0
    8.9423   -0.7215   -0.0000 C   0  0  0  0  0  0  0  0  0  0  0  0
    4.3884   10.0897   -0.0000 O   0  0  0  0  0  0  0  0  0  0  0  0
    5.8433   10.4327   -0.0000 C   0  0  0  0  0  0  0  0  0  0  0  0
    6.8487    9.3327   -0.0000 C   0  0  0  0  0  0  0  0  0  0  0  0
    6.2691   11.8758   -0.0000 C   0  0  0  0  0  0  0  0  0  0  0  0
    8.3036    9.6757   -0.0000 C   0  0  0  0  0  0  0  0  0  0  0  0
    7.7240   12.2188   -0.0000 C   0  0  0  0  0  0  0  0  0  0  0  0
    8.7413   11.1188   -0.0000 C   0  0  0  0  0  0  0  0  0  0  0  0
  1  2  2  0  0  0  0
  2  3  1  0  0  0  0
  2  4  1  0  0  0  0
  3  5  1  0  0  0  0
  4  6  1  0  0  0  0
  4  7  2  0  0  0  0
  5  8  2  0  0  0  0
  6  9  1  0  0  0  0
 10  6  1  6  0  0  0
  7 11  1  0  0  0  0
  8 12  1  0  0  0  0
 10 13  1  0  0  0  0
 10 14  1  0  0  0  0
 11 15  1  0  0  0  0
 13 16  1  0  0  0  0
 14 17  1  0  0  0  0
 15 18  2  0  0  0  0
 15 19  1  0  0  0  0
 16 20  1  0  0  0  0
 16 21  1  0  0  0  0
 18 22  1  0  0  0  0
 19 23  2  0  0  0  0
 20 24  2  0  0  0  0
 20 25  1  0  0  0  0
 22 26  2  0  0  0  0
 25 27  2  0  0  0  0
 26 28  1  0  0  0  0
 28 29  1  0  0  0  0
 29 30  2  0  0  0  0
 29 31  1  0  0  0  0
 30 32  1  0  0  0  0
 31 33  2  0  0  0  0
 32 34  2  0  0  0  0
  7  8  1  0  0  0  0
  9 11  2  0  0  0  0
 17 21  1  0  0  0  0
 23 26  1  0  0  0  0
 33 34  1  0  0  0  0
M  END
>  <MolRegNo>
2502171

>  <m>
=

>  <Value>
37300

>  <Unit>
nM

>  <Type>
IC50

>  <pValue>
4.43

>  <Ligand Efficiency>
0

>  <Binding Efficiency>
0

>  <Surface Efficiency>
0

>  <Assay Index>
1430425

>  <Assay Category>


>  <Assay Organism>
Homo sapiens

>  <Target ID>
17045

>  <Target Name>
Cytochrome P450 3A4

>  <Target Organism>
Homo sapiens

>  <Target Description>
Target is a single protein chain

>  <Sequence Accession>
P08684

>  <Reference>
ACS Med Chem Lett 11 (10), 1863-1868 (2020)

>  <Pubmed ID>
33062165

>  <DOI>
10.1021/acsmedchemlett.9b00395

$$$$
2516464
Actelion Java MolfileCreator 1.0

 31 36  0  0  0  0  0  0  0  0999 V2000
    0.0000   -0.0000   -0.0000 O   0  0  0  0  0  0  0  0  0  0  0  0
   -0.4844    1.4295   -0.0000 C   0  0  0  0  0  0  0  0  0  0  0  0
    0.3780    2.6582   -0.0000 N   0  0  0  0  0  0  0  0  0  0  0  0
   -1.9257    1.8902   -0.0000 C   0  0  0  0  0  0  0  0  0  0  0  0
    1.8666    2.6818   -0.0000 C   0  0  0  0  0  0  0  0  0  0  0  0
   -0.5198    3.8750   -0.0000 C   0  0  0  0  0  0  0  0  0  0  0  0
   -3.2370    1.1460   -0.0000 C   0  0  0  0  0  0  0  0  0  0  0  0
   -1.9493    3.4024   -0.0000 C   0  0  0  0  0  0  0  0  0  0  0  0
    2.6109    1.4059   -0.0000 C   0  0  0  0  0  0  0  0  0  0  0  0
    2.5991    3.9931   -0.0000 C   0  0  0  0  0  0  0  0  0  0  0  0
   -4.5484    1.9021   -0.0000 C   0  0  0  0  0  0  0  0  0  0  0  0
   -3.2489   -0.3426   -0.0000 C   0  0  0  0  0  0  0  0  0  0  0  0
   -3.2607    4.1585   -0.0000 C   0  0  0  0  0  0  0  0  0  0  0  0
    2.6109   -0.0827   -0.0000 C   0  0  0  0  0  0  0  0  0  0  0  0
    3.8986    0.6734   -0.0000 C   0  0  0  0  0  0  0  0  0  0  0  0
   -4.5602    3.4143   -0.0000 C   0  0  0  0  0  0  0  0  0  0  0  0
   -5.8598    4.1704   -0.0000 C   0  0  0  0  0  0  0  0  0  0  0  0
   -5.8716    5.6825   -0.0000 C   0  0  0  0  0  0  0  0  0  0  0  0
   -7.1593    3.4379   -0.0000 C   0  0  0  0  0  0  0  0  0  0  0  0
   -7.1829    6.4386   -0.0000 N   0  0  0  0  0  0  0  0  0  0  0  0
   -8.4707    4.1940   -0.0000 C   0  0  0  0  0  0  0  0  0  0  0  0
   -8.4943    5.6944   -0.0000 C   0  0  0  0  0  0  0  0  0  0  0  0
   -9.9002    3.7332   -0.0000 C   0  0  0  0  0  0  0  0  0  0  0  0
   -9.9356    6.1551   -0.0000 N   0  0  0  0  0  0  0  0  0  0  0  0
  -10.3609    2.3274   -0.0000 C   0  0  0  0  0  0  0  0  0  0  0  0
  -10.7980    4.9501   -0.0000 C   0  0  0  0  0  0  0  0  0  0  0  0
  -11.8377    2.0202   -0.0000 C   0  0  0  0  0  0  0  0  0  0  0  0
   -9.3685    1.2405   -0.0000 C   0  0  0  0  0  0  0  0  0  0  0  0
  -12.2984    0.6025   -0.0000 C   0  0  0  0  0  0  0  0  0  0  0  0
   -9.8293   -0.1772   -0.0000 C   0  0  0  0  0  0  0  0  0  0  0  0
  -11.2942   -0.4962   -0.0000 N   0  0  0  0  0  0  0  0  0  0  0  0
  1  2  2  0  0  0  0
  2  3  1  0  0  0  0
  2  4  1  0  0  0  0
  5  3  1  1  0  0  0
  3  6  1  0  0  0  0
  4  7  2  0  0  0  0
  4  8  1  0  0  0  0
  5  9  1  0  0  0  0
  5 10  1  0  0  0  0
  7 11  1  0  0  0  0
  7 12  1  0  0  0  0
  8 13  2  0  0  0  0
  9 14  1  0  0  0  0
  9 15  1  0  0  0  0
 11 16  2  0  0  0  0
 16 17  1  0  0  0  0
 17 18  2  0  0  0  0
 17 19  1  0  0  0  0
 18 20  1  0  0  0  0
 19 21  2  0  0  0  0
 20 22  2  0  0  0  0
 21 23  1  0  0  0  0
 22 24  1  0  0  0  0
 23 25  1  0  0  0  0
 23 26  2  0  0  0  0
 25 27  2  0  0  0  0
 25 28  1  0  0  0  0
 27 29  1  0  0  0  0
 28 30  2  0  0  0  0
 29 31  2  0  0  0  0
  6  8  1  0  0  0  0
 13 16  1  0  0  0  0
 14 15  1  0  0  0  0
 21 22  1  0  0  0  0
 24 26  1  0  0  0  0
 30 31  1  0  0  0  0
M  END
>  <MolRegNo>
2516464

>  <m>
=

>  <Value>
300

>  <Unit>
nM

>  <Type>
IC50

>  <pValue>
6.52

>  <Ligand Efficiency>
0

>  <Binding Efficiency>
0

>  <Surface Efficiency>
0

>  <Assay Index>
1431336

>  <Assay Category>


>  <Assay Organism>
Homo sapiens

>  <Target ID>
17045

>  <Target Name>
Cytochrome P450 3A4

>  <Target Organism>
Homo sapiens

>  <Target Description>
Target is a single protein chain

>  <Sequence Accession>
P08684

>  <Reference>
ACS Med Chem Lett 11 (11), 2244-2252 (2020)

>  <Pubmed ID>
33214836

>  <DOI>
10.1021/acsmedchemlett.0c00387

$$$$
2513940
Actelion Java MolfileCreator 1.0

 27 31  0  0  0  0  0  0  0  0999 V2000
    0.0000   -0.0000   -0.0000 Cl  0  0  0  0  0  0  0  0  0  0  0  0
    1.2864   -0.7385   -0.0000 C   0  0  0  0  0  0  0  0  0  0  0  0
    2.5728    0.0238   -0.0000 C   0  0  0  0  0  0  0  0  0  0  0  0
    1.2745   -2.2392   -0.0000 C   0  0  0  0  0  0  0  0  0  0  0  0
    2.5489    1.5365   -0.0000 N   0  0  0  0  0  0  0  0  0  0  0  0
    3.8591   -0.7147   -0.0000 C   0  0  0  0  0  0  0  0  0  0  0  0
    2.5608   -2.9777   -0.0000 N   0  0  0  0  0  0  0  0  0  0  0  0
    3.8353    2.2988   -0.0000 C   0  0  0  0  0  0  0  0  0  0  0  0
    1.2387    2.2869   -0.0000 C   0  0  0  0  0  0  0  0  0  0  0  0
    5.1455    0.0476   -0.0000 C   0  0  0  0  0  0  0  0  0  0  0  0
    3.8472   -2.2154   -0.0000 C   0  0  0  0  0  0  0  0  0  0  0  0
    3.8115    3.7996   -0.0000 C   0  0  0  0  0  0  0  0  0  0  0  0
    1.2268    3.7996   -0.0000 C   0  0  0  0  0  0  0  0  0  0  0  0
    5.2884    1.5484   -0.0000 O   0  0  0  0  0  0  0  0  0  0  0  0
    6.5153   -0.5479   -0.0000 C   0  0  0  0  0  0  0  0  0  0  0  0
    2.5013    4.5976   -0.0000 C   0  0  0  0  0  0  0  0  0  0  0  0
    6.7416    1.8819   -0.0000 C   0  0  0  0  0  0  0  0  0  0  0  0
    7.4920    0.5836   -0.0000 C   0  0  0  0  0  0  0  0  0  0  0  0
    1.3698    5.6100   -0.0000 C   0  0  0  0  0  0  0  0  0  0  0  0
    3.7877    5.3718   -0.0000 C   0  0  0  0  0  0  0  0  0  0  0  0
    7.4681    3.1802   -0.0000 C   0  0  0  0  0  0  0  0  0  0  0  0
    8.9689    0.5955   -0.0000 C   0  0  0  0  0  0  0  0  0  0  0  0
   -0.1072    5.3004   -0.0000 O   0  0  0  0  0  0  0  0  0  0  0  0
    1.9653    7.0036   -0.0000 N   0  0  0  0  0  0  0  0  0  0  0  0
    3.4542    6.8488   -0.0000 C   0  0  0  0  0  0  0  0  0  0  0  0
    8.9451    3.2040   -0.0000 C   0  0  0  0  0  0  0  0  0  0  0  0
    9.7074    1.9057   -0.0000 C   0  0  0  0  0  0  0  0  0  0  0  0
  1  2  1  0  0  0  0
  2  3  2  0  0  0  0
  2  4  1  0  0  0  0
  3  5  1  0  0  0  0
  3  6  1  0  0  0  0
  4  7  2  0  0  0  0
  5  8  1  0  0  0  0
  5  9  1  0  0  0  0
  6 10  1  0  0  0  0
  6 11  2  0  0  0  0
  8 12  1  0  0  0  0
  9 13  1  0  0  0  0
 10 14  1  0  0  0  0
 10 15  2  0  0  0  0
 12 16  1  0  0  0  0
 14 17  1  0  0  0  0
 15 18  1  0  0  0  0
 16 19  1  0  0  0  0
 16 20  1  0  0  0  0
 17 21  1  0  0  0  0
 18 22  1  0  0  0  0
 19 23  2  0  0  0  0
 19 24  1  0  0  0  0
 20 25  1  0  0  0  0
 21 26  2  0  0  0  0
 22 27  2  0  0  0  0
  7 11  1  0  0  0  0
 13 16  1  0  0  0  0
 17 18  2  0  0  0  0
 24 25  1  0  0  0  0
 26 27  1  0  0  0  0
M  END
>  <MolRegNo>
2513940

>  <m>
=

>  <Value>
4590

>  <Unit>
nM

>  <Type>
IC50

>  <pValue>
5.34

>  <Ligand Efficiency>
0

>  <Binding Efficiency>
0

>  <Surface Efficiency>
0

>  <Assay Index>
1437174

>  <Assay Category>


>  <Assay Organism>
Homo sapiens

>  <Target ID>
17045

>  <Target Name>
Cytochrome P450 3A4

>  <Target Organism>
Homo sapiens

>  <Target Description>
Target is a single protein chain

>  <Sequence Accession>
P08684

>  <Reference>


>  <Pubmed ID>
33571827

>  <DOI>
10.1016/j.ejmech.2021.113248

$$$$
2528177
Actelion Java MolfileCreator 1.0

 27 31  0  0  0  0  0  0  0  0999 V2000
    0.0000   -0.0000   -0.0000 Cl  0  0  0  0  0  0  0  0  0  0  0  0
    1.2864   -0.7385   -0.0000 C   0  0  0  0  0  0  0  0  0  0  0  0
    2.5728    0.0238   -0.0000 C   0  0  0  0  0  0  0  0  0  0  0  0
    1.2745   -2.2392   -0.0000 C   0  0  0  0  0  0  0  0  0  0  0  0
    2.5489    1.5365   -0.0000 N   0  0  0  0  0  0  0  0  0  0  0  0
    3.8591   -0.7147   -0.0000 C   0  0  0  0  0  0  0  0  0  0  0  0
    2.5608   -2.9777   -0.0000 N   0  0  0  0  0  0  0  0  0  0  0  0
    3.8353    2.2988   -0.0000 C   0  0  0  0  0  0  0  0  0  0  0  0
    1.2387    2.2869   -0.0000 C   0  0  0  0  0  0  0  0  0  0  0  0
    5.1455    0.0476   -0.0000 C   0  0  0  0  0  0  0  0  0  0  0  0
    3.8472   -2.2154   -0.0000 C   0  0  0  0  0  0  0  0  0  0  0  0
    3.8115    3.7996   -0.0000 C   0  0  0  0  0  0  0  0  0  0  0  0
    1.2268    3.7996   -0.0000 C   0  0  0  0  0  0  0  0  0  0  0  0
    5.2884    1.5484   -0.0000 S   0  0  0  0  0  0  0  0  0  0  0  0
    6.5153   -0.5479   -0.0000 C   0  0  0  0  0  0  0  0  0  0  0  0
    2.5013    4.5976   -0.0000 C   0  0  0  0  0  0  0  0  0  0  0  0
    6.7416    1.8819   -0.0000 C   0  0  0  0  0  0  0  0  0  0  0  0
    7.4920    0.5836   -0.0000 C   0  0  0  0  0  0  0  0  0  0  0  0
    1.3698    5.6100   -0.0000 C   0  0  0  0  0  0  0  0  0  0  0  0
    3.7877    5.3718   -0.0000 C   0  0  0  0  0  0  0  0  0  0  0  0
    7.4681    3.1802   -0.0000 C   0  0  0  0  0  0  0  0  0  0  0  0
    8.9689    0.5955   -0.0000 C   0  0  0  0  0  0  0  0  0  0  0  0
   -0.1072    5.3004   -0.0000 O   0  0  0  0  0  0  0  0  0  0  0  0
    1.9653    7.0036   -0.0000 N   0  0  0  0  0  0  0  0  0  0  0  0
    3.4542    6.8488   -0.0000 C   0  0  0  0  0  0  0  0  0  0  0  0
    8.9451    3.2040   -0.0000 C   0  0  0  0  0  0  0  0  0  0  0  0
    9.7074    1.9057   -0.0000 C   0  0  0  0  0  0  0  0  0  0  0  0
  1  2  1  0  0  0  0
  2  3  2  0  0  0  0
  2  4  1  0  0  0  0
  3  5  1  0  0  0  0
  3  6  1  0  0  0  0
  4  7  2  0  0  0  0
  5  8  1  0  0  0  0
  5  9  1  0  0  0  0
  6 10  1  0  0  0  0
  6 11  2  0  0  0  0
  8 12  1  0  0  0  0
  9 13  1  0  0  0  0
 10 14  1  0  0  0  0
 10 15  2  0  0  0  0
 12 16  1  0  0  0  0
 14 17  1  0  0  0  0
 15 18  1  0  0  0  0
 16 19  1  0  0  0  0
 16 20  1  0  0  0  0
 17 21  1  0  0  0  0
 18 22  1  0  0  0  0
 19 23  2  0  0  0  0
 19 24  1  0  0  0  0
 20 25  1  0  0  0  0
 21 26  2  0  0  0  0
 22 27  2  0  0  0  0
  7 11  1  0  0  0  0
 13 16  1  0  0  0  0
 17 18  2  0  0  0  0
 24 25  1  0  0  0  0
 26 27  1  0  0  0  0
M  END
>  <MolRegNo>
2528177

>  <m>
=

>  <Value>
2110

>  <Unit>
nM

>  <Type>
IC50

>  <pValue>
5.68

>  <Ligand Efficiency>
0

>  <Binding Efficiency>
0

>  <Surface Efficiency>
0

>  <Assay Index>
1437174

>  <Assay Category>


>  <Assay Organism>
Homo sapiens

>  <Target ID>
17045

>  <Target Name>
Cytochrome P450 3A4

>  <Target Organism>
Homo sapiens

>  <Target Description>
Target is a single protein chain

>  <Sequence Accession>
P08684

>  <Reference>


>  <Pubmed ID>
33571827

>  <DOI>
10.1016/j.ejmech.2021.113248

$$$$
2486008
Actelion Java MolfileCreator 1.0

 28 31  0  0  0  0  0  0  0  0999 V2000
    0.0000   -0.0000   -0.0000 O   0  0  0  0  0  0  0  0  0  0  0  0
    1.2876   -0.7324   -0.0000 C   0  0  0  0  0  0  0  0  0  0  0  0
   -1.3112   -0.7324   -0.0000 C   0  0  0  0  0  0  0  0  0  0  0  0
    1.2758   -2.2208   -0.0000 C   0  0  0  0  0  0  0  0  0  0  0  0
    2.5752    0.0236   -0.0000 C   0  0  0  0  0  0  0  0  0  0  0  0
    2.5634   -2.9532   -0.0000 C   0  0  0  0  0  0  0  0  0  0  0  0
   -0.0354   -2.9532   -0.0000 C   0  0  0  0  0  0  0  0  0  0  0  0
    3.8628   -0.7088   -0.0000 C   0  0  0  0  0  0  0  0  0  0  0  0
    3.8510   -2.1972   -0.0000 C   0  0  0  0  0  0  0  0  0  0  0  0
   -1.3467   -2.1972   -0.0000 C   0  0  0  0  0  0  0  0  0  0  0  0
   -2.6579   -2.9296   -0.0000 C   0  0  0  0  0  0  0  0  0  0  0  0
   -3.9692   -2.1736   -0.0000 C   0  0  0  0  0  0  0  0  0  0  0  0
   -2.6697   -4.4181   -0.0000 C   0  0  0  0  0  0  0  0  0  0  0  0
   -5.2804   -2.9060   -0.0000 C   0  0  0  0  0  0  0  0  0  0  0  0
   -3.9810   -5.1505   -0.0000 C   0  0  0  0  0  0  0  0  0  0  0  0
   -5.2922   -4.3944   -0.0000 C   0  0  0  0  0  0  0  0  0  0  0  0
   -6.5916   -2.1500   -0.0000 C   0  0  0  0  0  0  0  0  0  0  0  0
   -6.6035   -5.1268   -0.0000 C   0  0  0  0  0  0  0  0  0  0  0  0
   -7.9029   -2.8824   -0.0000 C   0  0  0  0  0  0  0  0  0  0  0  0
   -7.9147   -4.3708   -0.0000 C   0  0  0  0  0  0  0  0  0  0  0  0
   -9.2259   -5.1032   -0.0000 C   0  0  0  0  0  0  0  0  0  0  0  0
  -10.6081   -4.4771   -0.0000 C   0  0  0  0  0  0  0  0  0  0  0  0
   -9.3913   -6.5798   -0.0000 C   0  0  0  0  0  0  0  0  0  0  0  0
  -11.6240   -5.5757   -0.0000 C   0  0  0  0  0  0  0  0  0  0  0  0
  -10.8679   -6.8752   -0.0000 C   0  0  0  0  0  0  0  0  0  0  0  0
  -12.6399   -4.4535   -0.0000 N   0  0  0  0  0  0  0  0  0  0  0  0
  -12.9352   -6.3081   -0.0000 C   0  0  0  0  0  0  0  0  0  0  0  0
  -14.2465   -5.5403   -0.0000 O   0  0  0  0  0  0  0  0  0  0  0  0
  1  2  1  0  0  0  0
  1  3  1  0  0  0  0
  2  4  2  0  0  0  0
  2  5  1  0  0  0  0
  4  6  1  0  0  0  0
  4  7  1  0  0  0  0
  5  8  2  0  0  0  0
  6  9  2  0  0  0  0
  7 10  1  0  0  0  0
 11 10  1  1  0  0  0
 11 12  1  0  0  0  0
 11 13  1  0  0  0  0
 12 14  1  0  0  0  0
 13 15  1  0  0  0  0
 14 16  2  0  0  0  0
 14 17  1  0  0  0  0
 16 18  1  0  0  0  0
 17 19  2  0  0  0  0
 18 20  2  0  0  0  0
 21 20  1  6  0  0  0
 21 22  1  0  0  0  0
 21 23  1  0  0  0  0
 22 24  1  0  0  0  0
 23 25  1  0  0  0  0
 24 26  1  6  0  0  0
 24 27  1  0  0  0  0
 27 28  1  0  0  0  0
  8  9  1  0  0  0  0
 15 16  1  0  0  0  0
 19 20  1  0  0  0  0
 24 25  1  0  0  0  0
M  END
>  <MolRegNo>
2486008

>  <m>
=

>  <Value>
5500

>  <Unit>
nM

>  <Type>
IC50

>  <pValue>
5.26

>  <Ligand Efficiency>
0

>  <Binding Efficiency>
0

>  <Surface Efficiency>
0

>  <Assay Index>
1441199

>  <Assay Category>


>  <Assay Organism>
Homo sapiens

>  <Target ID>
17045

>  <Target Name>
Cytochrome P450 3A4

>  <Target Organism>
Homo sapiens

>  <Target Description>
Target is a single protein chain

>  <Sequence Accession>
P08684

>  <Reference>
J Med Chem 62 (5.0), 2265-2285 (2019)

>  <Pubmed ID>
30785748

>  <DOI>
10.1021/acs.jmedchem.8b01695

$$$$
2520649
Actelion Java MolfileCreator 1.0

 46 50  0  0  0  0  0  0  0  0999 V2000
    0.0000   -0.0000   -0.0000 S   0  0  0  0  0  0  0  0  0  0  0  0
   -1.3280   -0.6934   -0.0000 C   0  0  0  0  0  0  0  0  0  0  0  0
    1.2575   -0.7757   -0.0000 C   0  0  0  0  0  0  0  0  0  0  0  0
   -2.5973    0.1058   -0.0000 C   0  0  0  0  0  0  0  0  0  0  0  0
   -1.3750   -2.1625   -0.0000 C   0  0  0  0  0  0  0  0  0  0  0  0
    2.5620   -0.0588   -0.0000 C   0  0  0  0  0  0  0  0  0  0  0  0
   -2.5620    1.6101   -0.0000 N   0  0  0  0  0  0  0  0  0  0  0  0
   -3.9253   -0.5876   -0.0000 C   0  0  0  0  0  0  0  0  0  0  0  0
   -2.6913   -2.8559   -0.0000 C   0  0  0  0  0  0  0  0  0  0  0  0
    2.5973    1.4456   -0.0000 O   0  0  0  0  0  0  0  0  0  0  0  0
    3.8196   -0.8344   -0.0000 O   0  0  0  0  0  0  0  0  0  0  0  0
   -3.8431    2.4093   -0.0000 C   0  0  0  0  0  0  0  0  0  0  0  0
   -3.9841   -2.0684   -0.0000 C   0  0  0  0  0  0  0  0  0  0  0  0
    5.1123   -0.1293   -0.0000 C   0  0  0  0  0  0  0  0  0  0  0  0
   -3.8078    3.9136   -0.0000 O   0  0  0  0  0  0  0  0  0  0  0  0
   -5.1711    1.7159   -0.0000 C   0  0  0  0  0  0  0  0  0  0  0  0
    6.2406   -1.0577   -0.0000 C   0  0  0  0  0  0  0  0  0  0  0  0
    4.9478    1.3515   -0.0000 C   0  0  0  0  0  0  0  0  0  0  0  0
   -6.4521    2.5150   -0.0000 N   0  0  0  0  0  0  0  0  0  0  0  0
    6.9575   -2.3270   -0.0000 C   0  0  0  0  0  0  0  0  0  0  0  0
    7.7096   -0.8932   -0.0000 C   0  0  0  0  0  0  0  0  0  0  0  0
    5.6059   -2.3858   -0.0000 C   0  0  0  0  0  0  0  0  0  0  0  0
    5.8645    2.5150   -0.0000 C   0  0  0  0  0  0  0  0  0  0  0  0
   -6.5814    4.0194   -0.0000 N   0  0  0  0  0  0  0  0  0  0  0  0
   -7.8507    1.9627   -0.0000 C   0  0  0  0  0  0  0  0  0  0  0  0
    8.3678   -0.8932   -0.0000 C   0  0  0  0  0  0  0  0  0  0  0  0
    6.7459   -3.7961   -0.0000 C   0  0  0  0  0  0  0  0  0  0  0  0
    8.5088   -2.1507   -0.0000 C   0  0  0  0  0  0  0  0  0  0  0  0
    8.6616    0.2821   -0.0000 C   0  0  0  0  0  0  0  0  0  0  0  0
    4.5012    3.1262   -0.0000 C   0  0  0  0  0  0  0  0  0  0  0  0
    7.3336    2.6678   -0.0000 C   0  0  0  0  0  0  0  0  0  0  0  0
    5.7000    3.9959   -0.0000 C   0  0  0  0  0  0  0  0  0  0  0  0
   -8.0387    4.3837   -0.0000 N   0  0  0  0  0  0  0  0  0  0  0  0
   -8.8261    3.1144   -0.0000 C   0  0  0  0  0  0  0  0  0  0  0  0
    9.4725   -1.2458   -0.0000 C   0  0  0  0  0  0  0  0  0  0  0  0
    7.9565   -3.5258   -0.0000 O   0  0  0  0  0  0  0  0  0  0  0  0
    9.9544   -1.7629   -0.0000 C   0  0  0  0  0  0  0  0  0  0  0  0
    8.4736    1.7511   -0.0000 C   0  0  0  0  0  0  0  0  0  0  0  0
   10.0484   -0.2586   -0.0000 C   0  0  0  0  0  0  0  0  0  0  0  0
    4.3249    4.6187   -0.0000 C   0  0  0  0  0  0  0  0  0  0  0  0
    7.7449    4.1016   -0.0000 O   0  0  0  0  0  0  0  0  0  0  0  0
  -10.3305    3.0204   -0.0000 C   0  0  0  0  0  0  0  0  0  0  0  0
    9.6488    2.6326   -0.0000 C   0  0  0  0  0  0  0  0  0  0  0  0
  -11.1766    4.2662   -0.0000 N   0  0  0  0  0  0  0  0  0  0  0  0
  -10.5420    5.6177   -0.0000 C   0  0  0  0  0  0  0  0  0  0  0  0
  -12.6810    4.1721   -0.0000 C   0  0  0  0  0  0  0  0  0  0  0  0
  1  2  1  0  0  0  0
  1  3  1  0  0  0  0
  2  4  2  0  0  0  0
  2  5  1  0  0  0  0
  3  6  1  0  0  0  0
  4  7  1  0  0  0  0
  4  8  1  0  0  0  0
  5  9  2  0  0  0  0
  6 10  2  0  0  0  0
  6 11  1  0  0  0  0
  7 12  1  0  0  0  0
  8 13  2  0  0  0  0
 14 11  1  1  0  0  0
 12 15  2  0  0  0  0
 12 16  1  0  0  0  0
 14 17  1  0  0  0  0
 14 18  1  0  0  0  0
 16 19  1  0  0  0  0
 17 20  1  0  0  0  0
 17 21  1  0  0  0  0
 17 22  1  1  0  0  0
 18 23  1  0  0  0  0
 19 24  1  0  0  0  0
 19 25  1  0  0  0  0
 20 26  1  0  0  0  0
 20 27  1  6  0  0  0
 21 28  1  6  0  0  0
 21 29  1  0  0  0  0
 23 30  1  0  0  0  0
 23 31  1  0  0  0  0
 23 32  1  1  0  0  0
 24 33  2  0  0  0  0
 25 34  2  0  0  0  0
 26 35  1  0  0  0  0
 28 36  2  0  0  0  0
 28 37  1  0  0  0  0
 29 38  1  0  0  0  0
 29 39  1  1  0  0  0
 30 40  2  0  0  0  0
 31 41  1  6  0  0  0
 34 42  1  0  0  0  0
 38 43  1  1  0  0  0
 42 44  1  0  0  0  0
 44 45  1  0  0  0  0
 44 46  1  0  0  0  0
  9 13  1  0  0  0  0
 29 35  1  0  0  0  0
 31 38  1  0  0  0  0
 33 34  1  0  0  0  0
 37 39  1  0  0  0  0
M  END
>  <MolRegNo>
2520649

>  <m>
=

>  <Value>
6148

>  <Unit>
nM

>  <Type>
IC50

>  <pValue>
5.21

>  <Ligand Efficiency>
0

>  <Binding Efficiency>
0

>  <Surface Efficiency>
0

>  <Assay Index>
1447062

>  <Assay Category>


>  <Assay Organism>
Homo sapiens

>  <Target ID>
17045

>  <Target Name>
Cytochrome P450 3A4

>  <Target Organism>
Homo sapiens

>  <Target Description>
Target is a single protein chain

>  <Sequence Accession>
P08684

>  <Reference>


>  <Pubmed ID>
32731187

>  <DOI>
10.1016/j.ejmech.2020.112604

$$$$
2524386
Actelion Java MolfileCreator 1.0

 59 64  0  0  0  0  0  0  0  0999 V2000
    0.0000   -0.0000   -0.0000 S   0  0  0  0  0  0  0  0  0  0  0  0
   -1.2828    0.7401   -0.0000 O   0  0  0  0  0  0  0  0  0  0  0  0
   -0.0247    1.4802   -0.0000 O   0  0  0  0  0  0  0  0  0  0  0  0
   -0.6167   -1.3075   -0.0000 N   0  0  0  0  0  0  0  0  0  0  0  0
    1.4062    0.1727   -0.0000 C   0  0  0  0  0  0  0  0  0  0  0  0
   -2.0723   -1.4309   -0.0000 C   0  0  0  0  0  0  0  0  0  0  0  0
    1.3815    1.6529   -0.0000 C   0  0  0  0  0  0  0  0  0  0  0  0
    2.6397    0.9375   -0.0000 C   0  0  0  0  0  0  0  0  0  0  0  0
    2.2203   -0.9868   -0.0000 C   0  0  0  0  0  0  0  0  0  0  0  0
   -2.9604   -0.2467   -0.0000 O   0  0  0  0  0  0  0  0  0  0  0  0
   -2.6890   -2.7384   -0.0000 C   0  0  0  0  0  0  0  0  0  0  0  0
   -4.1445   -2.8617   -0.0000 N   0  0  0  0  0  0  0  0  0  0  0  0
   -2.4670   -4.1445   -0.0000 C   0  0  0  0  0  0  0  0  0  0  0  0
   -1.3568   -3.2071   -0.0000 C   0  0  0  0  0  0  0  0  0  0  0  0
   -4.7613   -4.1692   -0.0000 C   0  0  0  0  0  0  0  0  0  0  0  0
   -2.9851   -5.4767   -0.0000 C   0  0  0  0  0  0  0  0  0  0  0  0
   -3.9225   -5.3040   -0.0000 O   0  0  0  0  0  0  0  0  0  0  0  0
   -6.2168   -4.2926   -0.0000 C   0  0  0  0  0  0  0  0  0  0  0  0
   -2.0723   -6.5622   -0.0000 C   0  0  0  0  0  0  0  0  0  0  0  0
   -6.9569   -5.5261   -0.0000 N   0  0  0  0  0  0  0  0  0  0  0  0
   -7.2036   -3.2071   -0.0000 C   0  0  0  0  0  0  0  0  0  0  0  0
   -0.6661   -6.2908   -0.0000 C   0  0  0  0  0  0  0  0  0  0  0  0
   -6.3895   -6.8336   -0.0000 C   0  0  0  0  0  0  0  0  0  0  0  0
   -8.3878   -5.2054   -0.0000 C   0  0  0  0  0  0  0  0  0  0  0  0
   -8.5605   -3.7745   -0.0000 C   0  0  0  0  0  0  0  0  0  0  0  0
   -2.3190   -9.3992   -0.0000 C   0  0  0  0  0  0  0  0  0  0  0  0
   -4.9833   -6.9569   -0.0000 O   0  0  0  0  0  0  0  0  0  0  0  0
   -7.2530   -7.9931   -0.0000 C   0  0  0  0  0  0  0  0  0  0  0  0
   -9.8433   -3.0344   -0.0000 O   0  0  0  0  0  0  0  0  0  0  0  0
   -4.1445  -10.5341   -0.0000 C   0  0  0  0  0  0  0  0  0  0  0  0
   -8.7085   -7.8204   -0.0000 N   0  0  0  0  0  0  0  0  0  0  0  0
   -6.6856   -9.3006   -0.0000 C   0  0  0  0  0  0  0  0  0  0  0  0
   -9.8680   -1.5542   -0.0000 C   0  0  0  0  0  0  0  0  0  0  0  0
   -5.2794   -9.4486   -0.0000 C   0  0  0  0  0  0  0  0  0  0  0  0
   -4.3172  -11.9402   -0.0000 C   0  0  0  0  0  0  0  0  0  0  0  0
   -9.5719   -8.9799   -0.0000 C   0  0  0  0  0  0  0  0  0  0  0  0
   -7.5490  -10.4600   -0.0000 C   0  0  0  0  0  0  0  0  0  0  0  0
   -8.6345   -0.8141   -0.0000 N   0  0  0  0  0  0  0  0  0  0  0  0
  -11.1508   -0.8141   -0.0000 C   0  0  0  0  0  0  0  0  0  0  0  0
   -9.0045  -10.2874   -0.0000 O   0  0  0  0  0  0  0  0  0  0  0  0
  -11.0275   -8.8072   -0.0000 O   0  0  0  0  0  0  0  0  0  0  0  0
   -6.9816  -11.7676   -0.0000 C   0  0  0  0  0  0  0  0  0  0  0  0
   -8.6591    0.6661   -0.0000 C   0  0  0  0  0  0  0  0  0  0  0  0
  -11.1755    0.6661   -0.0000 C   0  0  0  0  0  0  0  0  0  0  0  0
  -12.4336   -1.5295   -0.0000 C   0  0  0  0  0  0  0  0  0  0  0  0
  -11.6442   -7.4503   -0.0000 C   0  0  0  0  0  0  0  0  0  0  0  0
   -9.9420    1.4062   -0.0000 C   0  0  0  0  0  0  0  0  0  0  0  0
  -12.4583    1.4062   -0.0000 C   0  0  0  0  0  0  0  0  0  0  0  0
  -13.7165   -0.7894   -0.0000 C   0  0  0  0  0  0  0  0  0  0  0  0
  -12.4090   -6.1675   -0.0000 C   0  0  0  0  0  0  0  0  0  0  0  0
  -13.0997   -7.2776   -0.0000 C   0  0  0  0  0  0  0  0  0  0  0  0
  -10.8301   -6.2415   -0.0000 C   0  0  0  0  0  0  0  0  0  0  0  0
  -13.7412    0.7154   -0.0000 C   0  0  0  0  0  0  0  0  0  0  0  0
  -14.9993   -1.4802   -0.0000 F   0  0  0  0  0  0  0  0  0  0  0  0
  -11.7182   -4.8846   -0.0000 F   0  0  0  0  0  0  0  0  0  0  0  0
  -13.8892   -6.1428   -0.0000 F   0  0  0  0  0  0  0  0  0  0  0  0
  -13.1737   -4.8846   -0.0000 F   0  0  0  0  0  0  0  0  0  0  0  0
  -15.0240    1.4555   -0.0000 O   0  0  0  0  0  0  0  0  0  0  0  0
  -15.0487    2.9357   -0.0000 C   0  0  0  0  0  0  0  0  0  0  0  0
  1  2  2  0  0  0  0
  1  3  2  0  0  0  0
  1  4  1  0  0  0  0
  1  5  1  0  0  0  0
  4  6  1  0  0  0  0
  5  7  1  0  0  0  0
  5  8  1  0  0  0  0
  5  9  1  0  0  0  0
  6 10  2  0  0  0  0
 11  6  1  6  0  0  0
 11 12  1  0  0  0  0
 11 13  1  0  0  0  0
 11 14  1  0  0  0  0
 12 15  1  0  0  0  0
 13 16  1  6  0  0  0
 15 17  2  0  0  0  0
 15 18  1  0  0  0  0
 16 19  2  0  0  0  0
 18 20  1  6  0  0  0
 18 21  1  0  0  0  0
 19 22  1  0  0  0  0
 20 23  1  0  0  0  0
 20 24  1  0  0  0  0
 21 25  1  0  0  0  0
 22 26  1  0  0  0  0
 23 27  2  0  0  0  0
 23 28  1  0  0  0  0
 25 29  1  1  0  0  0
 26 30  1  0  0  0  0
 28 31  1  1  0  0  0
 28 32  1  0  0  0  0
 29 33  1  0  0  0  0
 30 34  1  0  0  0  0
 30 35  1  6  0  0  0
 31 36  1  0  0  0  0
 32 37  1  6  0  0  0
 33 38  2  0  0  0  0
 33 39  1  0  0  0  0
 36 40  2  0  0  0  0
 36 41  1  0  0  0  0
 37 42  1  0  0  0  0
 38 43  1  0  0  0  0
 39 44  1  0  0  0  0
 39 45  2  0  0  0  0
 41 46  1  0  0  0  0
 43 47  2  0  0  0  0
 44 48  2  0  0  0  0
 45 49  1  0  0  0  0
 46 50  1  0  0  0  0
 46 51  1  0  0  0  0
 46 52  1  0  0  0  0
 48 53  1  0  0  0  0
 49 54  1  0  0  0  0
 50 55  1  0  0  0  0
 50 56  1  0  0  0  0
 50 57  1  0  0  0  0
 53 58  1  0  0  0  0
 58 59  1  0  0  0  0
  7  8  1  0  0  0  0
 13 14  1  0  0  0  0
 24 25  1  0  0  0  0
 32 34  1  0  0  0  0
 44 47  1  0  0  0  0
 49 53  2  0  0  0  0
M  END
>  <MolRegNo>
2524386

>  <m>
=

>  <Value>
3020

>  <Unit>
nM

>  <Type>
IC50

>  <pValue>
5.52

>  <Ligand Efficiency>
0

>  <Binding Efficiency>
0

>  <Surface Efficiency>
0

>  <Assay Index>
1449195

>  <Assay Category>


>  <Assay Organism>
Homo sapiens

>  <Target ID>
17045

>  <Target Name>
Cytochrome P450 3A4

>  <Target Organism>
Homo sapiens

>  <Target Description>
Target is a single protein chain

>  <Sequence Accession>
P08684

>  <Reference>
J Med Chem 63 (23.0), 14740-14760 (2020)

>  <Pubmed ID>
33226226

>  <DOI>
10.1021/acs.jmedchem.0c01296

$$$$
2537111
Actelion Java MolfileCreator 1.0

 62 67  0  0  0  0  0  0  0  0999 V2000
    0.0000   -0.0000   -0.0000 S   0  0  0  0  0  0  0  0  0  0  0  0
   -1.2841    0.7408   -0.0000 O   0  0  0  0  0  0  0  0  0  0  0  0
   -0.0247    1.4817   -0.0000 O   0  0  0  0  0  0  0  0  0  0  0  0
   -0.6174   -1.3088   -0.0000 N   0  0  0  0  0  0  0  0  0  0  0  0
    1.4076    0.1729   -0.0000 C   0  0  0  0  0  0  0  0  0  0  0  0
   -2.0743   -1.4323   -0.0000 C   0  0  0  0  0  0  0  0  0  0  0  0
    1.3829    1.6545   -0.0000 C   0  0  0  0  0  0  0  0  0  0  0  0
    2.6423    0.9384   -0.0000 C   0  0  0  0  0  0  0  0  0  0  0  0
    2.2225   -0.9878   -0.0000 C   0  0  0  0  0  0  0  0  0  0  0  0
   -2.9633   -0.2469   -0.0000 O   0  0  0  0  0  0  0  0  0  0  0  0
   -2.6917   -2.7411   -0.0000 C   0  0  0  0  0  0  0  0  0  0  0  0
   -4.1487   -2.8646   -0.0000 N   0  0  0  0  0  0  0  0  0  0  0  0
   -2.4695   -4.1487   -0.0000 C   0  0  0  0  0  0  0  0  0  0  0  0
   -1.3582   -3.2103   -0.0000 C   0  0  0  0  0  0  0  0  0  0  0  0
   -4.7660   -4.1734   -0.0000 C   0  0  0  0  0  0  0  0  0  0  0  0
   -2.9880   -5.4822   -0.0000 C   0  0  0  0  0  0  0  0  0  0  0  0
   -3.9264   -5.3093   -0.0000 O   0  0  0  0  0  0  0  0  0  0  0  0
   -6.2230   -4.2968   -0.0000 C   0  0  0  0  0  0  0  0  0  0  0  0
   -2.0743   -6.5687   -0.0000 C   0  0  0  0  0  0  0  0  0  0  0  0
   -6.9639   -5.5316   -0.0000 N   0  0  0  0  0  0  0  0  0  0  0  0
   -7.2108   -3.2103   -0.0000 C   0  0  0  0  0  0  0  0  0  0  0  0
   -0.6668   -6.2971   -0.0000 C   0  0  0  0  0  0  0  0  0  0  0  0
   -6.3959   -6.8404   -0.0000 C   0  0  0  0  0  0  0  0  0  0  0  0
   -8.3961   -5.2105   -0.0000 C   0  0  0  0  0  0  0  0  0  0  0  0
   -8.5690   -3.7783   -0.0000 C   0  0  0  0  0  0  0  0  0  0  0  0
   -2.3213   -9.4086   -0.0000 C   0  0  0  0  0  0  0  0  0  0  0  0
   -4.9883   -6.9639   -0.0000 O   0  0  0  0  0  0  0  0  0  0  0  0
   -7.2602   -8.0010   -0.0000 C   0  0  0  0  0  0  0  0  0  0  0  0
   -9.8531   -3.0374   -0.0000 O   0  0  0  0  0  0  0  0  0  0  0  0
   -4.1487  -10.5446   -0.0000 C   0  0  0  0  0  0  0  0  0  0  0  0
   -8.7172   -7.8282   -0.0000 N   0  0  0  0  0  0  0  0  0  0  0  0
   -6.6922   -9.3098   -0.0000 C   0  0  0  0  0  0  0  0  0  0  0  0
   -9.8778   -1.5558   -0.0000 C   0  0  0  0  0  0  0  0  0  0  0  0
   -5.2846   -9.4580   -0.0000 C   0  0  0  0  0  0  0  0  0  0  0  0
   -4.3215  -11.9521   -0.0000 C   0  0  0  0  0  0  0  0  0  0  0  0
   -9.5815   -8.9888   -0.0000 C   0  0  0  0  0  0  0  0  0  0  0  0
   -7.5565  -10.4705   -0.0000 C   0  0  0  0  0  0  0  0  0  0  0  0
   -8.6431   -0.8149   -0.0000 N   0  0  0  0  0  0  0  0  0  0  0  0
  -11.1619   -0.8149   -0.0000 C   0  0  0  0  0  0  0  0  0  0  0  0
   -9.0135  -10.2976   -0.0000 O   0  0  0  0  0  0  0  0  0  0  0  0
  -11.0385   -8.8159   -0.0000 O   0  0  0  0  0  0  0  0  0  0  0  0
   -6.9885  -11.7793   -0.0000 C   0  0  0  0  0  0  0  0  0  0  0  0
   -8.6678    0.6668   -0.0000 C   0  0  0  0  0  0  0  0  0  0  0  0
  -11.1866    0.6668   -0.0000 C   0  0  0  0  0  0  0  0  0  0  0  0
  -12.4460   -1.5311   -0.0000 C   0  0  0  0  0  0  0  0  0  0  0  0
  -11.6558   -7.4577   -0.0000 C   0  0  0  0  0  0  0  0  0  0  0  0
   -9.9519    1.4076   -0.0000 C   0  0  0  0  0  0  0  0  0  0  0  0
  -12.4707    1.4076   -0.0000 C   0  0  0  0  0  0  0  0  0  0  0  0
  -13.7302   -0.7902   -0.0000 C   0  0  0  0  0  0  0  0  0  0  0  0
  -12.4213   -6.1736   -0.0000 C   0  0  0  0  0  0  0  0  0  0  0  0
  -13.1128   -7.2849   -0.0000 C   0  0  0  0  0  0  0  0  0  0  0  0
  -10.8409   -6.2477   -0.0000 C   0  0  0  0  0  0  0  0  0  0  0  0
  -13.7548    0.7161   -0.0000 C   0  0  0  0  0  0  0  0  0  0  0  0
  -15.0143   -1.4817   -0.0000 F   0  0  0  0  0  0  0  0  0  0  0  0
  -11.7299   -4.8895   -0.0000 F   0  0  0  0  0  0  0  0  0  0  0  0
  -13.9030   -6.1489   -0.0000 F   0  0  0  0  0  0  0  0  0  0  0  0
  -13.1869   -4.8895   -0.0000 F   0  0  0  0  0  0  0  0  0  0  0  0
  -15.0390    1.4570   -0.0000 O   0  0  0  0  0  0  0  0  0  0  0  0
  -15.0637    2.9386   -0.0000 C   0  0  0  0  0  0  0  0  0  0  0  0
  -15.0884    4.4203   -0.0000 H   0  0  0  0  0  0  0  0  0  0  0  0
  -16.3478    3.6795   -0.0000 H   0  0  0  0  0  0  0  0  0  0  0  0
  -13.8289    3.6795   -0.0000 H   0  0  0  0  0  0  0  0  0  0  0  0
  1  2  2  0  0  0  0
  1  3  2  0  0  0  0
  1  4  1  0  0  0  0
  1  5  1  0  0  0  0
  4  6  1  0  0  0  0
  5  7  1  0  0  0  0
  5  8  1  0  0  0  0
  5  9  1  0  0  0  0
  6 10  2  0  0  0  0
 11  6  1  6  0  0  0
 11 12  1  0  0  0  0
 11 13  1  0  0  0  0
 11 14  1  0  0  0  0
 12 15  1  0  0  0  0
 13 16  1  6  0  0  0
 15 17  2  0  0  0  0
 15 18  1  0  0  0  0
 16 19  2  0  0  0  0
 18 20  1  6  0  0  0
 18 21  1  0  0  0  0
 19 22  1  0  0  0  0
 20 23  1  0  0  0  0
 20 24  1  0  0  0  0
 21 25  1  0  0  0  0
 22 26  1  0  0  0  0
 23 27  2  0  0  0  0
 23 28  1  0  0  0  0
 25 29  1  1  0  0  0
 26 30  1  0  0  0  0
 28 31  1  1  0  0  0
 28 32  1  0  0  0  0
 29 33  1  0  0  0  0
 30 34  1  0  0  0  0
 30 35  1  6  0  0  0
 31 36  1  0  0  0  0
 32 37  1  6  0  0  0
 33 38  2  0  0  0  0
 33 39  1  0  0  0  0
 36 40  2  0  0  0  0
 36 41  1  0  0  0  0
 37 42  1  0  0  0  0
 38 43  1  0  0  0  0
 39 44  1  0  0  0  0
 39 45  2  0  0  0  0
 41 46  1  0  0  0  0
 43 47  2  0  0  0  0
 44 48  2  0  0  0  0
 45 49  1  0  0  0  0
 46 50  1  0  0  0  0
 46 51  1  0  0  0  0
 46 52  1  0  0  0  0
 48 53  1  0  0  0  0
 49 54  1  0  0  0  0
 50 55  1  0  0  0  0
 50 56  1  0  0  0  0
 50 57  1  0  0  0  0
 53 58  1  0  0  0  0
 58 59  1  0  0  0  0
 59 60  1  0  0  0  0
 59 61  1  0  0  0  0
 59 62  1  0  0  0  0
  7  8  1  0  0  0  0
 13 14  1  0  0  0  0
 24 25  1  0  0  0  0
 32 34  1  0  0  0  0
 44 47  1  0  0  0  0
 49 53  2  0  0  0  0
M  ISO  3  60   2  61   2  62   2
M  END
>  <MolRegNo>
2537111

>  <m>
=

>  <Value>
16400

>  <Unit>
nM

>  <Type>
IC50

>  <pValue>
4.79

>  <Ligand Efficiency>
0

>  <Binding Efficiency>
0

>  <Surface Efficiency>
0

>  <Assay Index>
1449196

>  <Assay Category>


>  <Assay Organism>
Homo sapiens

>  <Target ID>
17045

>  <Target Name>
Cytochrome P450 3A4

>  <Target Organism>
Homo sapiens

>  <Target Description>
Target is a single protein chain

>  <Sequence Accession>
P08684

>  <Reference>
J Med Chem 63 (23.0), 14740-14760 (2020)

>  <Pubmed ID>
33226226

>  <DOI>
10.1021/acs.jmedchem.0c01296

$$$$
2546066
Actelion Java MolfileCreator 1.0

 36 38  0  0  0  0  0  0  0  0999 V2000
    0.0000   -0.0000   -0.0000 F   0  0  0  0  0  0  0  0  0  0  0  0
   -0.7510   -1.2993   -0.0000 C   0  0  0  0  0  0  0  0  0  0  0  0
    0.7391   -1.2755   -0.0000 F   0  0  0  0  0  0  0  0  0  0  0  0
   -0.7510   -2.7894   -0.0000 F   0  0  0  0  0  0  0  0  0  0  0  0
   -2.0623   -0.5364   -0.0000 C   0  0  0  0  0  0  0  0  0  0  0  0
   -2.0742    0.9894   -0.0000 C   0  0  0  0  0  0  0  0  0  0  0  0
   -3.3855   -1.2755   -0.0000 C   0  0  0  0  0  0  0  0  0  0  0  0
   -3.3855    1.7523   -0.0000 C   0  0  0  0  0  0  0  0  0  0  0  0
   -0.7868    1.7523   -0.0000 C   0  0  0  0  0  0  0  0  0  0  0  0
   -4.6967   -0.5126   -0.0000 C   0  0  0  0  0  0  0  0  0  0  0  0
   -4.6967    1.0133   -0.0000 C   0  0  0  0  0  0  0  0  0  0  0  0
    0.5007    1.0133   -0.0000 N   0  0  0  0  0  0  0  0  0  0  0  0
    1.7881    1.7881   -0.0000 C   0  0  0  0  0  0  0  0  0  0  0  0
    1.7762    3.3020   -0.0000 O   0  0  0  0  0  0  0  0  0  0  0  0
    3.0755    1.0490   -0.0000 C   0  0  0  0  0  0  0  0  0  0  0  0
    3.0636   -0.4411   -0.0000 C   0  0  0  0  0  0  0  0  0  0  0  0
    4.3629    1.8239   -0.0000 C   0  0  0  0  0  0  0  0  0  0  0  0
    4.3510   -1.1801   -0.0000 C   0  0  0  0  0  0  0  0  0  0  0  0
    5.6623    1.0848   -0.0000 C   0  0  0  0  0  0  0  0  0  0  0  0
    5.6384   -0.4172   -0.0000 C   0  0  0  0  0  0  0  0  0  0  0  0
    6.9259   -1.1563   -0.0000 N   0  0  0  0  0  0  0  0  0  0  0  0
    8.2133   -0.3934   -0.0000 C   0  0  0  0  0  0  0  0  0  0  0  0
    9.5007   -1.1325   -0.0000 N   0  0  0  0  0  0  0  0  0  0  0  0
    8.1895    1.1205   -0.0000 N   0  0  0  0  0  0  0  0  0  0  0  0
   10.7882   -0.3695   -0.0000 C   0  0  0  0  0  0  0  0  0  0  0  0
    9.4769    1.8835   -0.0000 C   0  0  0  0  0  0  0  0  0  0  0  0
   10.7762    1.1444   -0.0000 N   0  0  0  0  0  0  0  0  0  0  0  0
   12.0756   -1.1086   -0.0000 N   0  0  0  0  0  0  0  0  0  0  0  0
    9.4650    3.3974   -0.0000 N   0  0  0  0  0  0  0  0  0  0  0  0
   13.3630   -0.3457   -0.0000 C   0  0  0  0  0  0  0  0  0  0  0  0
   12.0637   -2.5987   -0.0000 C   0  0  0  0  0  0  0  0  0  0  0  0
   10.7524    4.1603   -0.0000 C   0  0  0  0  0  0  0  0  0  0  0  0
   14.6504   -1.0848   -0.0000 C   0  0  0  0  0  0  0  0  0  0  0  0
   15.9379   -0.3219   -0.0000 N   0  0  0  0  0  0  0  0  0  0  0  0
   17.2253   -1.0609   -0.0000 C   0  0  0  0  0  0  0  0  0  0  0  0
   15.9259    1.1921   -0.0000 C   0  0  0  0  0  0  0  0  0  0  0  0
  1  2  1  0  0  0  0
  2  3  1  0  0  0  0
  2  4  1  0  0  0  0
  2  5  1  0  0  0  0
  5  6  2  0  0  0  0
  5  7  1  0  0  0  0
  6  8  1  0  0  0  0
  6  9  1  0  0  0  0
  7 10  2  0  0  0  0
  8 11  2  0  0  0  0
  9 12  1  0  0  0  0
 12 13  1  0  0  0  0
 13 14  2  0  0  0  0
 13 15  1  0  0  0  0
 15 16  1  0  0  0  0
 15 17  1  0  0  0  0
 16 18  1  0  0  0  0
 17 19  1  0  0  0  0
 18 20  1  0  0  0  0
 20 21  1  0  0  0  0
 21 22  1  0  0  0  0
 22 23  2  0  0  0  0
 22 24  1  0  0  0  0
 23 25  1  0  0  0  0
 24 26  2  0  0  0  0
 25 27  2  0  0  0  0
 25 28  1  0  0  0  0
 26 29  1  0  0  0  0
 28 30  1  0  0  0  0
 28 31  1  0  0  0  0
 29 32  1  0  0  0  0
 30 33  1  0  0  0  0
 33 34  1  0  0  0  0
 34 35  1  0  0  0  0
 34 36  1  0  0  0  0
 10 11  1  0  0  0  0
 19 20  1  0  0  0  0
 26 27  1  0  0  0  0
M  END
>  <MolRegNo>
2546066

>  <m>
=

>  <Value>
22000

>  <Unit>
nM

>  <Type>
IC50

>  <pValue>
4.66

>  <Ligand Efficiency>
0

>  <Binding Efficiency>
0

>  <Surface Efficiency>
0

>  <Assay Index>
1455134

>  <Assay Category>


>  <Assay Organism>
Homo sapiens

>  <Target ID>
17045

>  <Target Name>
Cytochrome P450 3A4

>  <Target Organism>
Homo sapiens

>  <Target Description>
Target is a single protein chain

>  <Sequence Accession>
P08684

>  <Reference>


>  <Pubmed ID>
34023664

>  <DOI>
10.1016/j.bmc.2021.116216

$$$$
2544320
Actelion Java MolfileCreator 1.0

 36 39  0  0  0  0  0  0  0  0999 V2000
    0.0000   -0.0000   -0.0000 F   0  0  0  0  0  0  0  0  0  0  0  0
   -0.7514   -1.3000   -0.0000 C   0  0  0  0  0  0  0  0  0  0  0  0
    0.7394   -1.2761   -0.0000 F   0  0  0  0  0  0  0  0  0  0  0  0
   -0.7514   -2.7908   -0.0000 F   0  0  0  0  0  0  0  0  0  0  0  0
   -2.0633   -0.5367   -0.0000 C   0  0  0  0  0  0  0  0  0  0  0  0
   -2.0752    0.9899   -0.0000 C   0  0  0  0  0  0  0  0  0  0  0  0
   -3.3871   -1.2761   -0.0000 C   0  0  0  0  0  0  0  0  0  0  0  0
   -3.3871    1.7532   -0.0000 C   0  0  0  0  0  0  0  0  0  0  0  0
   -0.7872    1.7532   -0.0000 C   0  0  0  0  0  0  0  0  0  0  0  0
   -4.6991   -0.5128   -0.0000 C   0  0  0  0  0  0  0  0  0  0  0  0
   -4.6991    1.0138   -0.0000 C   0  0  0  0  0  0  0  0  0  0  0  0
    0.5009    1.0138   -0.0000 N   0  0  0  0  0  0  0  0  0  0  0  0
    1.7890    1.7771   -0.0000 C   0  0  0  0  0  0  0  0  0  0  0  0
    1.7771    3.2917   -0.0000 O   0  0  0  0  0  0  0  0  0  0  0  0
    3.0770    1.0376   -0.0000 C   0  0  0  0  0  0  0  0  0  0  0  0
    3.0651   -0.4532   -0.0000 C   0  0  0  0  0  0  0  0  0  0  0  0
    4.3651    1.8128   -0.0000 C   0  0  0  0  0  0  0  0  0  0  0  0
    4.3532   -1.1927   -0.0000 C   0  0  0  0  0  0  0  0  0  0  0  0
    5.6651    1.0734   -0.0000 C   0  0  0  0  0  0  0  0  0  0  0  0
    5.6413   -0.4294   -0.0000 C   0  0  0  0  0  0  0  0  0  0  0  0
    6.9293   -1.1688   -0.0000 N   0  0  0  0  0  0  0  0  0  0  0  0
    8.2174   -0.4055   -0.0000 C   0  0  0  0  0  0  0  0  0  0  0  0
    9.5055   -1.1449   -0.0000 N   0  0  0  0  0  0  0  0  0  0  0  0
    8.1935    1.1092   -0.0000 N   0  0  0  0  0  0  0  0  0  0  0  0
   10.7935   -0.3816   -0.0000 C   0  0  0  0  0  0  0  0  0  0  0  0
    9.4816    1.8725   -0.0000 C   0  0  0  0  0  0  0  0  0  0  0  0
   10.7816    1.1330   -0.0000 N   0  0  0  0  0  0  0  0  0  0  0  0
   12.0816   -1.1211   -0.0000 N   0  0  0  0  0  0  0  0  0  0  0  0
    9.4697    3.3871   -0.0000 N   0  0  0  0  0  0  0  0  0  0  0  0
   12.0577   -2.6119   -0.0000 C   0  0  0  0  0  0  0  0  0  0  0  0
   13.3697   -0.3578   -0.0000 C   0  0  0  0  0  0  0  0  0  0  0  0
   10.7577    4.1504   -0.0000 C   0  0  0  0  0  0  0  0  0  0  0  0
   13.3458   -3.3514   -0.0000 C   0  0  0  0  0  0  0  0  0  0  0  0
   14.6577   -1.1092   -0.0000 C   0  0  0  0  0  0  0  0  0  0  0  0
   14.6458   -2.6000   -0.0000 N   0  0  0  0  0  0  0  0  0  0  0  0
   15.9339   -3.3514   -0.0000 C   0  0  0  0  0  0  0  0  0  0  0  0
  1  2  1  0  0  0  0
  2  3  1  0  0  0  0
  2  4  1  0  0  0  0
  2  5  1  0  0  0  0
  5  6  2  0  0  0  0
  5  7  1  0  0  0  0
  6  8  1  0  0  0  0
  6  9  1  0  0  0  0
  7 10  2  0  0  0  0
  8 11  2  0  0  0  0
  9 12  1  0  0  0  0
 12 13  1  0  0  0  0
 13 14  2  0  0  0  0
 13 15  1  0  0  0  0
 15 16  1  0  0  0  0
 15 17  1  0  0  0  0
 16 18  1  0  0  0  0
 17 19  1  0  0  0  0
 18 20  1  0  0  0  0
 20 21  1  0  0  0  0
 21 22  1  0  0  0  0
 22 23  2  0  0  0  0
 22 24  1  0  0  0  0
 23 25  1  0  0  0  0
 24 26  2  0  0  0  0
 25 27  2  0  0  0  0
 25 28  1  0  0  0  0
 26 29  1  0  0  0  0
 28 30  1  0  0  0  0
 28 31  1  0  0  0  0
 29 32  1  0  0  0  0
 30 33  1  0  0  0  0
 31 34  1  0  0  0  0
 33 35  1  0  0  0  0
 35 36  1  0  0  0  0
 10 11  1  0  0  0  0
 19 20  1  0  0  0  0
 26 27  1  0  0  0  0
 34 35  1  0  0  0  0
M  END
>  <MolRegNo>
2544320

>  <m>
=

>  <Value>
22000

>  <Unit>
nM

>  <Type>
IC50

>  <pValue>
4.66

>  <Ligand Efficiency>
0

>  <Binding Efficiency>
0

>  <Surface Efficiency>
0

>  <Assay Index>
1455134

>  <Assay Category>


>  <Assay Organism>
Homo sapiens

>  <Target ID>
17045

>  <Target Name>
Cytochrome P450 3A4

>  <Target Organism>
Homo sapiens

>  <Target Description>
Target is a single protein chain

>  <Sequence Accession>
P08684

>  <Reference>


>  <Pubmed ID>
34023664

>  <DOI>
10.1016/j.bmc.2021.116216

$$$$
2566934
Actelion Java MolfileCreator 1.0

 36 39  0  0  0  0  0  0  0  0999 V2000
    0.0000   -0.0000   -0.0000 F   0  0  0  0  0  0  0  0  0  0  0  0
   -0.7514   -1.3000   -0.0000 C   0  0  0  0  0  0  0  0  0  0  0  0
    0.7394   -1.2761   -0.0000 F   0  0  0  0  0  0  0  0  0  0  0  0
   -0.7514   -2.7908   -0.0000 F   0  0  0  0  0  0  0  0  0  0  0  0
   -2.0633   -0.5367   -0.0000 C   0  0  0  0  0  0  0  0  0  0  0  0
   -2.0752    0.9899   -0.0000 C   0  0  0  0  0  0  0  0  0  0  0  0
   -3.3871   -1.2761   -0.0000 C   0  0  0  0  0  0  0  0  0  0  0  0
   -3.3871    1.7532   -0.0000 C   0  0  0  0  0  0  0  0  0  0  0  0
   -0.7872    1.7532   -0.0000 C   0  0  0  0  0  0  0  0  0  0  0  0
   -4.6991   -0.5128   -0.0000 C   0  0  0  0  0  0  0  0  0  0  0  0
   -4.6991    1.0138   -0.0000 C   0  0  0  0  0  0  0  0  0  0  0  0
    0.5009    1.0138   -0.0000 N   0  0  0  0  0  0  0  0  0  0  0  0
    1.7890    1.7771   -0.0000 C   0  0  0  0  0  0  0  0  0  0  0  0
    1.7771    3.2917   -0.0000 O   0  0  0  0  0  0  0  0  0  0  0  0
    3.0770    1.0376   -0.0000 C   0  0  0  0  0  0  0  0  0  0  0  0
    3.0651   -0.4532   -0.0000 C   0  0  0  0  0  0  0  0  0  0  0  0
    4.3651    1.8128   -0.0000 C   0  0  0  0  0  0  0  0  0  0  0  0
    4.3532   -1.1927   -0.0000 C   0  0  0  0  0  0  0  0  0  0  0  0
    5.6651    1.0734   -0.0000 C   0  0  0  0  0  0  0  0  0  0  0  0
    5.6413   -0.4294   -0.0000 C   0  0  0  0  0  0  0  0  0  0  0  0
    6.9293   -1.1688   -0.0000 N   0  0  0  0  0  0  0  0  0  0  0  0
    8.2174   -0.4055   -0.0000 C   0  0  0  0  0  0  0  0  0  0  0  0
    9.5055   -1.1449   -0.0000 N   0  0  0  0  0  0  0  0  0  0  0  0
    8.1935    1.1092   -0.0000 N   0  0  0  0  0  0  0  0  0  0  0  0
   10.7935   -0.3816   -0.0000 C   0  0  0  0  0  0  0  0  0  0  0  0
    9.4816    1.8725   -0.0000 C   0  0  0  0  0  0  0  0  0  0  0  0
   10.7816    1.1330   -0.0000 N   0  0  0  0  0  0  0  0  0  0  0  0
   12.0816   -1.1211   -0.0000 N   0  0  0  0  0  0  0  0  0  0  0  0
    9.4697    3.3871   -0.0000 N   0  0  0  0  0  0  0  0  0  0  0  0
   12.0577   -2.6119   -0.0000 C   0  0  0  0  0  0  0  0  0  0  0  0
   13.3697   -0.3578   -0.0000 C   0  0  0  0  0  0  0  0  0  0  0  0
   10.7577    4.1504   -0.0000 C   0  0  0  0  0  0  0  0  0  0  0  0
   13.3458   -3.3514   -0.0000 C   0  0  0  0  0  0  0  0  0  0  0  0
   14.6577   -1.1092   -0.0000 C   0  0  0  0  0  0  0  0  0  0  0  0
   14.6458   -2.6000   -0.0000 N   0  0  0  0  0  0  0  0  0  0  0  0
   15.9339   -3.3514   -0.0000 C   0  0  0  0  0  0  0  0  0  0  0  0
  1  2  1  0  0  0  0
  2  3  1  0  0  0  0
  2  4  1  0  0  0  0
  2  5  1  0  0  0  0
  5  6  2  0  0  0  0
  5  7  1  0  0  0  0
  6  8  1  0  0  0  0
  6  9  1  0  0  0  0
  7 10  2  0  0  0  0
  8 11  2  0  0  0  0
  9 12  1  0  0  0  0
 12 13  1  0  0  0  0
 13 14  2  0  0  0  0
 13 15  1  0  0  0  0
 15 16  2  0  0  0  0
 15 17  1  0  0  0  0
 16 18  1  0  0  0  0
 17 19  2  0  0  0  0
 18 20  2  0  0  0  0
 20 21  1  0  0  0  0
 21 22  1  0  0  0  0
 22 23  2  0  0  0  0
 22 24  1  0  0  0  0
 23 25  1  0  0  0  0
 24 26  2  0  0  0  0
 25 27  2  0  0  0  0
 25 28  1  0  0  0  0
 26 29  1  0  0  0  0
 28 30  1  0  0  0  0
 28 31  1  0  0  0  0
 29 32  1  0  0  0  0
 30 33  1  0  0  0  0
 31 34  1  0  0  0  0
 33 35  1  0  0  0  0
 35 36  1  0  0  0  0
 10 11  1  0  0  0  0
 19 20  1  0  0  0  0
 26 27  1  0  0  0  0
 34 35  1  0  0  0  0
M  END
>  <MolRegNo>
2566934

>  <m>
=

>  <Value>
19000

>  <Unit>
nM

>  <Type>
IC50

>  <pValue>
4.72

>  <Ligand Efficiency>
0

>  <Binding Efficiency>
0

>  <Surface Efficiency>
0

>  <Assay Index>
1455134

>  <Assay Category>


>  <Assay Organism>
Homo sapiens

>  <Target ID>
17045

>  <Target Name>
Cytochrome P450 3A4

>  <Target Organism>
Homo sapiens

>  <Target Description>
Target is a single protein chain

>  <Sequence Accession>
P08684

>  <Reference>


>  <Pubmed ID>
34023664

>  <DOI>
10.1016/j.bmc.2021.116216

$$$$
2125614
Actelion Java MolfileCreator 1.0

 26 28  0  0  0  0  0  0  0  0999 V2000
    0.0000   -0.0000   -0.0000 S   0  0  0  0  0  0  0  0  0  0  0  0
   -0.7646   -1.2822   -0.0000 C   0  0  0  0  0  0  0  0  0  0  0  0
   -0.7646    1.3058   -0.0000 C   0  0  0  0  0  0  0  0  0  0  0  0
   -2.2704   -1.2705   -0.0000 N   0  0  0  0  0  0  0  0  0  0  0  0
   -0.0353   -2.5645   -0.0000 N   0  0  0  0  0  0  0  0  0  0  0  0
   -2.2704    1.3175   -0.0000 C   0  0  0  0  0  0  0  0  0  0  0  0
   -3.0350    0.0353   -0.0000 C   0  0  0  0  0  0  0  0  0  0  0  0
   -4.3643   -0.6588   -0.0000 C   0  0  0  0  0  0  0  0  0  0  0  0
   -4.3055    0.8588   -0.0000 C   0  0  0  0  0  0  0  0  0  0  0  0
   -4.3761   -2.1410   -0.0000 C   0  0  0  0  0  0  0  0  0  0  0  0
   -5.6701    0.0941   -0.0000 C   0  0  0  0  0  0  0  0  0  0  0  0
   -3.0939   -2.8704   -0.0000 F   0  0  0  0  0  0  0  0  0  0  0  0
   -5.6819   -2.8704   -0.0000 C   0  0  0  0  0  0  0  0  0  0  0  0
   -6.9759   -0.6470   -0.0000 C   0  0  0  0  0  0  0  0  0  0  0  0
   -6.9877   -2.1175   -0.0000 C   0  0  0  0  0  0  0  0  0  0  0  0
   -8.2817    0.1059   -0.0000 N   0  0  0  0  0  0  0  0  0  0  0  0
   -9.5874   -0.6352   -0.0000 C   0  0  0  0  0  0  0  0  0  0  0  0
   -9.5992   -2.1175   -0.0000 O   0  0  0  0  0  0  0  0  0  0  0  0
  -10.8932    0.1176   -0.0000 C   0  0  0  0  0  0  0  0  0  0  0  0
  -10.9050    1.6234   -0.0000 N   0  0  0  0  0  0  0  0  0  0  0  0
  -12.1990   -0.6235   -0.0000 C   0  0  0  0  0  0  0  0  0  0  0  0
  -12.2108    2.3763   -0.0000 C   0  0  0  0  0  0  0  0  0  0  0  0
  -13.5048    0.1294   -0.0000 C   0  0  0  0  0  0  0  0  0  0  0  0
  -13.5165    1.6469   -0.0000 C   0  0  0  0  0  0  0  0  0  0  0  0
  -14.8223    2.3998   -0.0000 C   0  0  0  0  0  0  0  0  0  0  0  0
  -16.1281    3.1527   -0.0000 N   0  0  0  0  0  0  0  0  0  0  0  0
  1  2  1  0  0  0  0
  1  3  1  0  0  0  0
  2  4  2  0  0  0  0
  2  5  1  0  0  0  0
  3  6  2  0  0  0  0
  4  7  1  0  0  0  0
  7  8  1  0  0  0  0
  7  9  1  1  0  0  0
  8 10  2  0  0  0  0
  8 11  1  0  0  0  0
 10 12  1  0  0  0  0
 10 13  1  0  0  0  0
 11 14  2  0  0  0  0
 13 15  2  0  0  0  0
 14 16  1  0  0  0  0
 16 17  1  0  0  0  0
 17 18  2  0  0  0  0
 17 19  1  0  0  0  0
 19 20  2  0  0  0  0
 19 21  1  0  0  0  0
 20 22  1  0  0  0  0
 21 23  2  0  0  0  0
 22 24  2  0  0  0  0
 24 25  1  0  0  0  0
 25 26  3  0  0  0  0
  6  7  1  0  0  0  0
 14 15  1  0  0  0  0
 23 24  1  0  0  0  0
M  END
>  <MolRegNo>
2125614

>  <m>
=

>  <Value>
33000

>  <Unit>
nM

>  <Type>
IC50

>  <pValue>
4.48

>  <Ligand Efficiency>
0

>  <Binding Efficiency>
0

>  <Surface Efficiency>
0

>  <Assay Index>
1457300

>  <Assay Category>


>  <Assay Organism>
Homo sapiens

>  <Target ID>
17045

>  <Target Name>
Cytochrome P450 3A4

>  <Target Organism>
Homo sapiens

>  <Target Description>
Target is a single protein chain

>  <Sequence Accession>
P08684

>  <Reference>
J Med Chem 64 (4.0), 1873-1888 (2021)

>  <Pubmed ID>
33588527

>  <DOI>
10.1021/acs.jmedchem.0c01917

$$$$
2563204
Actelion Java MolfileCreator 1.0

 23 26  0  0  0  0  0  0  0  0999 V2000
    0.0000   -0.0000   -0.0000 F   0  0  0  0  0  0  0  0  0  0  0  0
    0.6076   -1.3583   -0.0000 C   0  0  0  0  0  0  0  0  0  0  0  0
    2.0970   -1.5012   -0.0000 C   0  0  0  0  0  0  0  0  0  0  0  0
   -0.2859   -2.5735   -0.0000 C   0  0  0  0  0  0  0  0  0  0  0  0
    2.7046   -2.8595   -0.0000 C   0  0  0  0  0  0  0  0  0  0  0  0
    0.3217   -3.9318   -0.0000 C   0  0  0  0  0  0  0  0  0  0  0  0
    1.7991   -4.0628   -0.0000 C   0  0  0  0  0  0  0  0  0  0  0  0
    2.4067   -5.4330   -0.0000 N   0  0  0  0  0  0  0  0  0  0  0  0
    3.8722   -5.7309   -0.0000 N   0  0  0  0  0  0  0  0  0  0  0  0
    1.6442   -6.7317   -0.0000 C   0  0  0  0  0  0  0  0  0  0  0  0
    4.0271   -7.2202   -0.0000 C   0  0  0  0  0  0  0  0  0  0  0  0
    2.6450   -7.8397   -0.0000 C   0  0  0  0  0  0  0  0  0  0  0  0
    5.3258   -7.9589   -0.0000 C   0  0  0  0  0  0  0  0  0  0  0  0
    5.3139   -9.4601   -0.0000 C   0  0  0  0  0  0  0  0  0  0  0  0
    6.6126  -10.1988   -0.0000 C   0  0  0  0  0  0  0  0  0  0  0  0
    4.0033  -10.1988   -0.0000 C   0  0  0  0  0  0  0  0  0  0  0  0
    8.0304   -9.7103   -0.0000 N   0  0  0  0  0  0  0  0  0  0  0  0
    6.6126  -11.7001   -0.0000 C   0  0  0  0  0  0  0  0  0  0  0  0
    3.9914  -11.7001   -0.0000 C   0  0  0  0  0  0  0  0  0  0  0  0
    8.9121  -10.9137   -0.0000 N   0  0  0  0  0  0  0  0  0  0  0  0
    5.2900  -12.4507   -0.0000 N   0  0  0  0  0  0  0  0  0  0  0  0
    8.0423  -12.1528   -0.0000 N   0  0  0  0  0  0  0  0  0  0  0  0
    2.6689  -12.4387   -0.0000 N   0  0  0  0  0  0  0  0  0  0  0  0
  1  2  1  0  0  0  0
  2  3  2  0  0  0  0
  2  4  1  0  0  0  0
  3  5  1  0  0  0  0
  4  6  2  0  0  0  0
  5  7  2  0  0  0  0
  7  8  1  0  0  0  0
  8  9  1  0  0  0  0
  8 10  1  0  0  0  0
  9 11  2  0  0  0  0
 10 12  2  0  0  0  0
 11 13  1  0  0  0  0
 13 14  1  0  0  0  0
 14 15  2  0  0  0  0
 14 16  1  0  0  0  0
 15 17  1  0  0  0  0
 15 18  1  0  0  0  0
 16 19  2  0  0  0  0
 17 20  2  0  0  0  0
 18 21  2  0  0  0  0
 18 22  1  0  0  0  0
 19 23  1  0  0  0  0
  6  7  1  0  0  0  0
 11 12  1  0  0  0  0
 19 21  1  0  0  0  0
 20 22  1  0  0  0  0
M  END
>  <MolRegNo>
2563204

>  <m>
=

>  <Value>
110

>  <Unit>
nM

>  <Type>
IC50

>  <pValue>
6.96

>  <Ligand Efficiency>
0

>  <Binding Efficiency>
0

>  <Surface Efficiency>
0

>  <Assay Index>
1457726

>  <Assay Category>


>  <Assay Organism>
Homo sapiens

>  <Target ID>
17045

>  <Target Name>
Cytochrome P450 3A4

>  <Target Organism>
Homo sapiens

>  <Target Description>
Target is a single protein chain

>  <Sequence Accession>
P08684

>  <Reference>


>  <Pubmed ID>
33811992

>  <DOI>
10.1016/j.bmcl.2021.128010

$$$$
2553679
Actelion Java MolfileCreator 1.0

 22 25  0  0  0  0  0  0  0  0999 V2000
    0.0000   -0.0000   -0.0000 N   0  0  0  0  0  0  0  0  0  0  0  0
   -1.3076    0.7539   -0.0000 C   0  0  0  0  0  0  0  0  0  0  0  0
    1.2840    0.7657   -0.0000 C   0  0  0  0  0  0  0  0  0  0  0  0
   -2.6152    0.0236   -0.0000 N   0  0  0  0  0  0  0  0  0  0  0  0
   -1.3194    2.2618   -0.0000 C   0  0  0  0  0  0  0  0  0  0  0  0
    2.6976    0.3298   -0.0000 N   0  0  0  0  0  0  0  0  0  0  0  0
    1.2605    2.2735   -0.0000 C   0  0  0  0  0  0  0  0  0  0  0  0
   -0.0471    3.0157   -0.0000 C   0  0  0  0  0  0  0  0  0  0  0  0
    3.5576    1.5550   -0.0000 N   0  0  0  0  0  0  0  0  0  0  0  0
    2.6623    2.7565   -0.0000 N   0  0  0  0  0  0  0  0  0  0  0  0
   -0.0589    4.5235   -0.0000 C   0  0  0  0  0  0  0  0  0  0  0  0
   -1.3665    5.2775   -0.0000 C   0  0  0  0  0  0  0  0  0  0  0  0
   -1.5432    6.7735   -0.0000 N   0  0  0  0  0  0  0  0  0  0  0  0
   -2.7447    4.6767   -0.0000 C   0  0  0  0  0  0  0  0  0  0  0  0
   -3.0157    7.0916   -0.0000 N   0  0  0  0  0  0  0  0  0  0  0  0
   -3.7578    5.7958   -0.0000 C   0  0  0  0  0  0  0  0  0  0  0  0
   -3.6400    8.4698   -0.0000 C   0  0  0  0  0  0  0  0  0  0  0  0
   -2.7683    9.6832   -0.0000 C   0  0  0  0  0  0  0  0  0  0  0  0
   -5.1243    8.6230   -0.0000 C   0  0  0  0  0  0  0  0  0  0  0  0
   -3.3926   11.0497   -0.0000 C   0  0  0  0  0  0  0  0  0  0  0  0
   -5.7487    9.9895   -0.0000 C   0  0  0  0  0  0  0  0  0  0  0  0
   -4.8887   11.2146   -0.0000 C   0  0  0  0  0  0  0  0  0  0  0  0
  1  2  2  0  0  0  0
  1  3  1  0  0  0  0
  2  4  1  0  0  0  0
  2  5  1  0  0  0  0
  3  6  1  0  0  0  0
  3  7  2  0  0  0  0
  5  8  2  0  0  0  0
  6  9  1  0  0  0  0
  7 10  1  0  0  0  0
  8 11  1  0  0  0  0
 11 12  1  0  0  0  0
 12 13  2  0  0  0  0
 12 14  1  0  0  0  0
 13 15  1  0  0  0  0
 14 16  2  0  0  0  0
 15 17  1  0  0  0  0
 17 18  2  0  0  0  0
 17 19  1  0  0  0  0
 18 20  1  0  0  0  0
 19 21  2  0  0  0  0
 20 22  2  0  0  0  0
  7  8  1  0  0  0  0
  9 10  2  0  0  0  0
 15 16  1  0  0  0  0
 21 22  1  0  0  0  0
M  END
>  <MolRegNo>
2553679

>  <m>
=

>  <Value>
210

>  <Unit>
nM

>  <Type>
IC50

>  <pValue>
6.68

>  <Ligand Efficiency>
0

>  <Binding Efficiency>
0

>  <Surface Efficiency>
0

>  <Assay Index>
1457726

>  <Assay Category>


>  <Assay Organism>
Homo sapiens

>  <Target ID>
17045

>  <Target Name>
Cytochrome P450 3A4

>  <Target Organism>
Homo sapiens

>  <Target Description>
Target is a single protein chain

>  <Sequence Accession>
P08684

>  <Reference>


>  <Pubmed ID>
33811992

>  <DOI>
10.1016/j.bmcl.2021.128010

$$$$
2548801
Actelion Java MolfileCreator 1.0

 22 25  0  0  0  0  0  0  0  0999 V2000
    0.0000   -0.0000   -0.0000 N   0  0  0  0  0  0  0  0  0  0  0  0
   -1.3071    0.7537   -0.0000 C   0  0  0  0  0  0  0  0  0  0  0  0
    1.2836    0.7654   -0.0000 C   0  0  0  0  0  0  0  0  0  0  0  0
   -2.6143    0.0236   -0.0000 N   0  0  0  0  0  0  0  0  0  0  0  0
   -1.3189    2.2610   -0.0000 C   0  0  0  0  0  0  0  0  0  0  0  0
    2.6967    0.3180   -0.0000 N   0  0  0  0  0  0  0  0  0  0  0  0
    1.2600    2.2728   -0.0000 C   0  0  0  0  0  0  0  0  0  0  0  0
   -0.0471    3.0146   -0.0000 C   0  0  0  0  0  0  0  0  0  0  0  0
    3.5563    1.5427   -0.0000 N   0  0  0  0  0  0  0  0  0  0  0  0
    2.6614    2.7556   -0.0000 N   0  0  0  0  0  0  0  0  0  0  0  0
   -0.0589    4.5220   -0.0000 C   0  0  0  0  0  0  0  0  0  0  0  0
   -1.3660    5.2756   -0.0000 C   0  0  0  0  0  0  0  0  0  0  0  0
   -1.5427    6.7712   -0.0000 N   0  0  0  0  0  0  0  0  0  0  0  0
   -2.7438    4.6751   -0.0000 C   0  0  0  0  0  0  0  0  0  0  0  0
   -3.0146    7.0891   -0.0000 N   0  0  0  0  0  0  0  0  0  0  0  0
   -3.7565    5.7938   -0.0000 C   0  0  0  0  0  0  0  0  0  0  0  0
   -3.6388    8.4669   -0.0000 C   0  0  0  0  0  0  0  0  0  0  0  0
   -2.7673    9.6798   -0.0000 N   0  0  0  0  0  0  0  0  0  0  0  0
   -5.1225    8.6200   -0.0000 C   0  0  0  0  0  0  0  0  0  0  0  0
   -3.3915   11.0458   -0.0000 C   0  0  0  0  0  0  0  0  0  0  0  0
   -5.7467    9.9860   -0.0000 C   0  0  0  0  0  0  0  0  0  0  0  0
   -4.8870   11.2107   -0.0000 C   0  0  0  0  0  0  0  0  0  0  0  0
  1  2  2  0  0  0  0
  1  3  1  0  0  0  0
  2  4  1  0  0  0  0
  2  5  1  0  0  0  0
  3  6  1  0  0  0  0
  3  7  2  0  0  0  0
  5  8  2  0  0  0  0
  6  9  1  0  0  0  0
  7 10  1  0  0  0  0
  8 11  1  0  0  0  0
 11 12  1  0  0  0  0
 12 13  2  0  0  0  0
 12 14  1  0  0  0  0
 13 15  1  0  0  0  0
 14 16  2  0  0  0  0
 15 17  1  0  0  0  0
 17 18  2  0  0  0  0
 17 19  1  0  0  0  0
 18 20  1  0  0  0  0
 19 21  2  0  0  0  0
 20 22  2  0  0  0  0
  7  8  1  0  0  0  0
  9 10  2  0  0  0  0
 15 16  1  0  0  0  0
 21 22  1  0  0  0  0
M  END
>  <MolRegNo>
2548801

>  <m>
=

>  <Value>
210

>  <Unit>
nM

>  <Type>
IC50

>  <pValue>
6.68

>  <Ligand Efficiency>
0

>  <Binding Efficiency>
0

>  <Surface Efficiency>
0

>  <Assay Index>
1457726

>  <Assay Category>


>  <Assay Organism>
Homo sapiens

>  <Target ID>
17045

>  <Target Name>
Cytochrome P450 3A4

>  <Target Organism>
Homo sapiens

>  <Target Description>
Target is a single protein chain

>  <Sequence Accession>
P08684

>  <Reference>


>  <Pubmed ID>
33811992

>  <DOI>
10.1016/j.bmcl.2021.128010

$$$$
2549702
Actelion Java MolfileCreator 1.0

 28 32  0  0  0  0  0  0  0  0999 V2000
    0.0000   -0.0000   -0.0000 N   0  0  0  0  0  0  0  0  0  0  0  0
   -1.3087    0.7545   -0.0000 C   0  0  0  0  0  0  0  0  0  0  0  0
    1.2851    0.7663   -0.0000 C   0  0  0  0  0  0  0  0  0  0  0  0
   -2.6173    0.0236   -0.0000 N   0  0  0  0  0  0  0  0  0  0  0  0
   -1.3204    2.2636   -0.0000 C   0  0  0  0  0  0  0  0  0  0  0  0
    2.6998    0.3301   -0.0000 N   0  0  0  0  0  0  0  0  0  0  0  0
    1.2615    2.2754   -0.0000 C   0  0  0  0  0  0  0  0  0  0  0  0
   -0.0472    3.0182   -0.0000 C   0  0  0  0  0  0  0  0  0  0  0  0
    3.5605    1.5562   -0.0000 N   0  0  0  0  0  0  0  0  0  0  0  0
    2.6645    2.7588   -0.0000 N   0  0  0  0  0  0  0  0  0  0  0  0
   -0.0589    4.5273   -0.0000 C   0  0  0  0  0  0  0  0  0  0  0  0
   -1.3676    5.2818   -0.0000 C   0  0  0  0  0  0  0  0  0  0  0  0
   -1.5445    6.7791   -0.0000 N   0  0  0  0  0  0  0  0  0  0  0  0
   -2.7470    4.6805   -0.0000 C   0  0  0  0  0  0  0  0  0  0  0  0
   -3.0182    7.0974   -0.0000 N   0  0  0  0  0  0  0  0  0  0  0  0
   -3.7609    5.8005   -0.0000 C   0  0  0  0  0  0  0  0  0  0  0  0
   -3.6430    8.4768   -0.0000 C   0  0  0  0  0  0  0  0  0  0  0  0
   -2.7706    9.6912   -0.0000 C   0  0  0  0  0  0  0  0  0  0  0  0
   -5.1285    8.6301   -0.0000 C   0  0  0  0  0  0  0  0  0  0  0  0
   -3.3954   11.0588   -0.0000 C   0  0  0  0  0  0  0  0  0  0  0  0
   -5.7534    9.9977   -0.0000 C   0  0  0  0  0  0  0  0  0  0  0  0
   -2.5230   12.2731   -0.0000 C   0  0  0  0  0  0  0  0  0  0  0  0
   -4.8927   11.2238   -0.0000 C   0  0  0  0  0  0  0  0  0  0  0  0
   -1.0493   12.1316   -0.0000 C   0  0  0  0  0  0  0  0  0  0  0  0
   -3.1479   13.6407   -0.0000 C   0  0  0  0  0  0  0  0  0  0  0  0
   -0.1886   13.3578   -0.0000 C   0  0  0  0  0  0  0  0  0  0  0  0
   -2.2872   14.8668   -0.0000 C   0  0  0  0  0  0  0  0  0  0  0  0
   -0.8135   14.7372   -0.0000 C   0  0  0  0  0  0  0  0  0  0  0  0
  1  2  2  0  0  0  0
  1  3  1  0  0  0  0
  2  4  1  0  0  0  0
  2  5  1  0  0  0  0
  3  6  1  0  0  0  0
  3  7  2  0  0  0  0
  5  8  2  0  0  0  0
  6  9  1  0  0  0  0
  7 10  1  0  0  0  0
  8 11  1  0  0  0  0
 11 12  1  0  0  0  0
 12 13  2  0  0  0  0
 12 14  1  0  0  0  0
 13 15  1  0  0  0  0
 14 16  2  0  0  0  0
 15 17  1  0  0  0  0
 17 18  2  0  0  0  0
 17 19  1  0  0  0  0
 18 20  1  0  0  0  0
 19 21  2  0  0  0  0
 20 22  1  0  0  0  0
 20 23  2  0  0  0  0
 22 24  2  0  0  0  0
 22 25  1  0  0  0  0
 24 26  1  0  0  0  0
 25 27  2  0  0  0  0
 26 28  2  0  0  0  0
  7  8  1  0  0  0  0
  9 10  2  0  0  0  0
 15 16  1  0  0  0  0
 21 23  1  0  0  0  0
 27 28  1  0  0  0  0
M  END
>  <MolRegNo>
2549702

>  <m>
=

>  <Value>
7.1

>  <Unit>
nM

>  <Type>
IC50

>  <pValue>
8.15

>  <Ligand Efficiency>
0

>  <Binding Efficiency>
0

>  <Surface Efficiency>
0

>  <Assay Index>
1457726

>  <Assay Category>


>  <Assay Organism>
Homo sapiens

>  <Target ID>
17045

>  <Target Name>
Cytochrome P450 3A4

>  <Target Organism>
Homo sapiens

>  <Target Description>
Target is a single protein chain

>  <Sequence Accession>
P08684

>  <Reference>


>  <Pubmed ID>
33811992

>  <DOI>
10.1016/j.bmcl.2021.128010

$$$$
2539851
Actelion Java MolfileCreator 1.0

 23 26  0  0  0  0  0  0  0  0999 V2000
    0.0000   -0.0000   -0.0000 N   0  0  0  0  0  0  0  0  0  0  0  0
   -1.3085    0.7544   -0.0000 C   0  0  0  0  0  0  0  0  0  0  0  0
    1.2849    0.7662   -0.0000 C   0  0  0  0  0  0  0  0  0  0  0  0
   -2.6169    0.0236   -0.0000 N   0  0  0  0  0  0  0  0  0  0  0  0
   -1.3202    2.2633   -0.0000 C   0  0  0  0  0  0  0  0  0  0  0  0
    2.6994    0.3183   -0.0000 N   0  0  0  0  0  0  0  0  0  0  0  0
    1.2613    2.2751   -0.0000 C   0  0  0  0  0  0  0  0  0  0  0  0
   -0.0472    3.0177   -0.0000 C   0  0  0  0  0  0  0  0  0  0  0  0
    3.5599    1.5442   -0.0000 N   0  0  0  0  0  0  0  0  0  0  0  0
    2.6641    2.7584   -0.0000 N   0  0  0  0  0  0  0  0  0  0  0  0
   -0.0589    4.5266   -0.0000 C   0  0  0  0  0  0  0  0  0  0  0  0
   -1.3674    5.2810   -0.0000 C   0  0  0  0  0  0  0  0  0  0  0  0
   -1.5442    6.7780   -0.0000 N   0  0  0  0  0  0  0  0  0  0  0  0
   -2.7466    4.6798   -0.0000 C   0  0  0  0  0  0  0  0  0  0  0  0
   -3.0177    7.0963   -0.0000 N   0  0  0  0  0  0  0  0  0  0  0  0
   -3.7603    5.7997   -0.0000 C   0  0  0  0  0  0  0  0  0  0  0  0
   -3.6425    8.4755   -0.0000 C   0  0  0  0  0  0  0  0  0  0  0  0
   -2.7819    9.7014   -0.0000 C   0  0  0  0  0  0  0  0  0  0  0  0
   -1.3085    9.5482   -0.0000 C   0  0  0  0  0  0  0  0  0  0  0  0
   -3.4067   11.0571   -0.0000 C   0  0  0  0  0  0  0  0  0  0  0  0
   -0.4479   10.7741   -0.0000 C   0  0  0  0  0  0  0  0  0  0  0  0
   -2.5462   12.2830   -0.0000 C   0  0  0  0  0  0  0  0  0  0  0  0
   -1.0727   12.1533   -0.0000 C   0  0  0  0  0  0  0  0  0  0  0  0
  1  2  2  0  0  0  0
  1  3  1  0  0  0  0
  2  4  1  0  0  0  0
  2  5  1  0  0  0  0
  3  6  1  0  0  0  0
  3  7  2  0  0  0  0
  5  8  2  0  0  0  0
  6  9  1  0  0  0  0
  7 10  1  0  0  0  0
  8 11  1  0  0  0  0
 11 12  1  0  0  0  0
 12 13  2  0  0  0  0
 12 14  1  0  0  0  0
 13 15  1  0  0  0  0
 14 16  2  0  0  0  0
 15 17  1  0  0  0  0
 17 18  1  0  0  0  0
 18 19  2  0  0  0  0
 18 20  1  0  0  0  0
 19 21  1  0  0  0  0
 20 22  2  0  0  0  0
 21 23  2  0  0  0  0
  7  8  1  0  0  0  0
  9 10  2  0  0  0  0
 15 16  1  0  0  0  0
 22 23  1  0  0  0  0
M  END
>  <MolRegNo>
2539851

>  <m>
=

>  <Value>
310

>  <Unit>
nM

>  <Type>
IC50

>  <pValue>
6.51

>  <Ligand Efficiency>
0

>  <Binding Efficiency>
0

>  <Surface Efficiency>
0

>  <Assay Index>
1457726

>  <Assay Category>


>  <Assay Organism>
Homo sapiens

>  <Target ID>
17045

>  <Target Name>
Cytochrome P450 3A4

>  <Target Organism>
Homo sapiens

>  <Target Description>
Target is a single protein chain

>  <Sequence Accession>
P08684

>  <Reference>


>  <Pubmed ID>
33811992

>  <DOI>
10.1016/j.bmcl.2021.128010

$$$$
2547493
Actelion Java MolfileCreator 1.0

 27 31  0  0  0  0  0  0  0  0999 V2000
    0.0000   -0.0000   -0.0000 N   0  0  0  0  0  0  0  0  0  0  0  0
   -1.3097    0.7552   -0.0000 C   0  0  0  0  0  0  0  0  0  0  0  0
    1.2861    0.7670   -0.0000 C   0  0  0  0  0  0  0  0  0  0  0  0
   -2.6194    0.0236   -0.0000 N   0  0  0  0  0  0  0  0  0  0  0  0
   -1.3215    2.2655   -0.0000 C   0  0  0  0  0  0  0  0  0  0  0  0
    2.7020    0.3186   -0.0000 N   0  0  0  0  0  0  0  0  0  0  0  0
    1.2625    2.2773   -0.0000 C   0  0  0  0  0  0  0  0  0  0  0  0
   -0.0472    3.0206   -0.0000 C   0  0  0  0  0  0  0  0  0  0  0  0
    3.5634    1.5457   -0.0000 N   0  0  0  0  0  0  0  0  0  0  0  0
    2.6666    2.7610   -0.0000 N   0  0  0  0  0  0  0  0  0  0  0  0
   -0.0590    4.5309   -0.0000 C   0  0  0  0  0  0  0  0  0  0  0  0
   -1.3687    5.2861   -0.0000 C   0  0  0  0  0  0  0  0  0  0  0  0
   -1.5457    6.7846   -0.0000 N   0  0  0  0  0  0  0  0  0  0  0  0
   -2.7492    4.6843   -0.0000 C   0  0  0  0  0  0  0  0  0  0  0  0
   -3.0206    7.1032   -0.0000 N   0  0  0  0  0  0  0  0  0  0  0  0
   -3.7640    5.8053   -0.0000 C   0  0  0  0  0  0  0  0  0  0  0  0
   -3.6460    8.4837   -0.0000 C   0  0  0  0  0  0  0  0  0  0  0  0
   -2.7846    9.7108   -0.0000 C   0  0  0  0  0  0  0  0  0  0  0  0
   -1.3097    9.5575   -0.0000 C   0  0  0  0  0  0  0  0  0  0  0  0
   -3.4100   11.0678   -0.0000 C   0  0  0  0  0  0  0  0  0  0  0  0
   -0.4484   10.7728   -0.0000 C   0  0  0  0  0  0  0  0  0  0  0  0
   -2.5487   12.2949   -0.0000 C   0  0  0  0  0  0  0  0  0  0  0  0
   -1.0619   12.1533   -0.0000 C   0  0  0  0  0  0  0  0  0  0  0  0
    1.0265   10.6312   -0.0000 C   0  0  0  0  0  0  0  0  0  0  0  0
   -0.2006   13.3686   -0.0000 C   0  0  0  0  0  0  0  0  0  0  0  0
    1.8997   11.8583   -0.0000 C   0  0  0  0  0  0  0  0  0  0  0  0
    1.2743   13.2270   -0.0000 C   0  0  0  0  0  0  0  0  0  0  0  0
  1  2  2  0  0  0  0
  1  3  1  0  0  0  0
  2  4  1  0  0  0  0
  2  5  1  0  0  0  0
  3  6  1  0  0  0  0
  3  7  2  0  0  0  0
  5  8  2  0  0  0  0
  6  9  1  0  0  0  0
  7 10  1  0  0  0  0
  8 11  1  0  0  0  0
 11 12  1  0  0  0  0
 12 13  2  0  0  0  0
 12 14  1  0  0  0  0
 13 15  1  0  0  0  0
 14 16  2  0  0  0  0
 15 17  1  0  0  0  0
 17 18  1  0  0  0  0
 18 19  2  0  0  0  0
 18 20  1  0  0  0  0
 19 21  1  0  0  0  0
 20 22  2  0  0  0  0
 21 23  1  0  0  0  0
 21 24  2  0  0  0  0
 23 25  2  0  0  0  0
 24 26  1  0  0  0  0
 25 27  1  0  0  0  0
  7  8  1  0  0  0  0
  9 10  2  0  0  0  0
 15 16  1  0  0  0  0
 22 23  1  0  0  0  0
 26 27  2  0  0  0  0
M  END
>  <MolRegNo>
2547493

>  <m>
=

>  <Value>
40

>  <Unit>
nM

>  <Type>
IC50

>  <pValue>
7.4

>  <Ligand Efficiency>
0

>  <Binding Efficiency>
0

>  <Surface Efficiency>
0

>  <Assay Index>
1457726

>  <Assay Category>


>  <Assay Organism>
Homo sapiens

>  <Target ID>
17045

>  <Target Name>
Cytochrome P450 3A4

>  <Target Organism>
Homo sapiens

>  <Target Description>
Target is a single protein chain

>  <Sequence Accession>
P08684

>  <Reference>


>  <Pubmed ID>
33811992

>  <DOI>
10.1016/j.bmcl.2021.128010

$$$$
2556786
Actelion Java MolfileCreator 1.0

 29 33  0  0  0  0  0  0  0  0999 V2000
    0.0000   -0.0000   -0.0000 N   0  0  0  0  0  0  0  0  0  0  0  0
   -1.3113    0.7561   -0.0000 C   0  0  0  0  0  0  0  0  0  0  0  0
    1.2877    0.7679   -0.0000 C   0  0  0  0  0  0  0  0  0  0  0  0
   -2.6227    0.0236   -0.0000 N   0  0  0  0  0  0  0  0  0  0  0  0
   -1.3231    2.2682   -0.0000 C   0  0  0  0  0  0  0  0  0  0  0  0
    2.7054    0.3190   -0.0000 N   0  0  0  0  0  0  0  0  0  0  0  0
    1.2641    2.2801   -0.0000 C   0  0  0  0  0  0  0  0  0  0  0  0
   -0.0473    3.0243   -0.0000 C   0  0  0  0  0  0  0  0  0  0  0  0
    3.5678    1.5476   -0.0000 N   0  0  0  0  0  0  0  0  0  0  0  0
    2.6699    2.7644   -0.0000 N   0  0  0  0  0  0  0  0  0  0  0  0
   -0.0591    4.5365   -0.0000 C   0  0  0  0  0  0  0  0  0  0  0  0
   -1.3704    5.2926   -0.0000 C   0  0  0  0  0  0  0  0  0  0  0  0
   -1.5476    6.7929   -0.0000 N   0  0  0  0  0  0  0  0  0  0  0  0
   -2.7526    4.6901   -0.0000 C   0  0  0  0  0  0  0  0  0  0  0  0
   -3.0243    7.1119   -0.0000 N   0  0  0  0  0  0  0  0  0  0  0  0
   -3.7686    5.8124   -0.0000 C   0  0  0  0  0  0  0  0  0  0  0  0
   -3.6505    8.4941   -0.0000 C   0  0  0  0  0  0  0  0  0  0  0  0
   -2.7881    9.7227   -0.0000 C   0  0  0  0  0  0  0  0  0  0  0  0
   -1.3113    9.5692   -0.0000 C   0  0  0  0  0  0  0  0  0  0  0  0
   -3.4142   11.0813   -0.0000 C   0  0  0  0  0  0  0  0  0  0  0  0
   -0.4489   10.7978   -0.0000 C   0  0  0  0  0  0  0  0  0  0  0  0
   -2.5518   12.3100   -0.0000 C   0  0  0  0  0  0  0  0  0  0  0  0
    1.0278   10.6560   -0.0000 C   0  0  0  0  0  0  0  0  0  0  0  0
   -1.0751   12.1800   -0.0000 C   0  0  0  0  0  0  0  0  0  0  0  0
    1.6303    9.2975   -0.0000 C   0  0  0  0  0  0  0  0  0  0  0  0
    1.8902   11.8729   -0.0000 C   0  0  0  0  0  0  0  0  0  0  0  0
    3.1070    9.1557   -0.0000 C   0  0  0  0  0  0  0  0  0  0  0  0
    3.3669   11.7429   -0.0000 C   0  0  0  0  0  0  0  0  0  0  0  0
    3.9694   10.3843   -0.0000 C   0  0  0  0  0  0  0  0  0  0  0  0
  1  2  2  0  0  0  0
  1  3  1  0  0  0  0
  2  4  1  0  0  0  0
  2  5  1  0  0  0  0
  3  6  1  0  0  0  0
  3  7  2  0  0  0  0
  5  8  2  0  0  0  0
  6  9  1  0  0  0  0
  7 10  1  0  0  0  0
  8 11  1  0  0  0  0
 11 12  1  0  0  0  0
 12 13  2  0  0  0  0
 12 14  1  0  0  0  0
 13 15  1  0  0  0  0
 14 16  2  0  0  0  0
 15 17  1  0  0  0  0
 17 18  1  0  0  0  0
 18 19  2  0  0  0  0
 18 20  1  0  0  0  0
 19 21  1  0  0  0  0
 20 22  2  0  0  0  0
 21 23  1  0  0  0  0
 21 24  2  0  0  0  0
 23 25  2  0  0  0  0
 23 26  1  0  0  0  0
 25 27  1  0  0  0  0
 26 28  2  0  0  0  0
 27 29  2  0  0  0  0
  7  8  1  0  0  0  0
  9 10  2  0  0  0  0
 15 16  1  0  0  0  0
 22 24  1  0  0  0  0
 28 29  1  0  0  0  0
M  END
>  <MolRegNo>
2556786

>  <m>
=

>  <Value>
17

>  <Unit>
nM

>  <Type>
IC50

>  <pValue>
7.77

>  <Ligand Efficiency>
0

>  <Binding Efficiency>
0

>  <Surface Efficiency>
0

>  <Assay Index>
1457726

>  <Assay Category>


>  <Assay Organism>
Homo sapiens

>  <Target ID>
17045

>  <Target Name>
Cytochrome P450 3A4

>  <Target Organism>
Homo sapiens

>  <Target Description>
Target is a single protein chain

>  <Sequence Accession>
P08684

>  <Reference>


>  <Pubmed ID>
33811992

>  <DOI>
10.1016/j.bmcl.2021.128010

$$$$
2565358
Actelion Java MolfileCreator 1.0

 27 31  0  0  0  0  0  0  0  0999 V2000
    0.0000   -0.0000   -0.0000 N   0  0  0  0  0  0  0  0  0  0  0  0
   -1.3101    0.7554   -0.0000 C   0  0  0  0  0  0  0  0  0  0  0  0
    1.2865    0.7672   -0.0000 C   0  0  0  0  0  0  0  0  0  0  0  0
   -2.6202    0.0236   -0.0000 N   0  0  0  0  0  0  0  0  0  0  0  0
   -1.3219    2.2661   -0.0000 C   0  0  0  0  0  0  0  0  0  0  0  0
    2.7028    0.3305   -0.0000 N   0  0  0  0  0  0  0  0  0  0  0  0
    1.2629    2.2779   -0.0000 C   0  0  0  0  0  0  0  0  0  0  0  0
   -0.0472    3.0215   -0.0000 C   0  0  0  0  0  0  0  0  0  0  0  0
    3.5644    1.5579   -0.0000 N   0  0  0  0  0  0  0  0  0  0  0  0
    2.6674    2.7618   -0.0000 N   0  0  0  0  0  0  0  0  0  0  0  0
   -0.0590    4.5322   -0.0000 C   0  0  0  0  0  0  0  0  0  0  0  0
   -1.3691    5.2876   -0.0000 C   0  0  0  0  0  0  0  0  0  0  0  0
   -1.5461    6.7865   -0.0000 N   0  0  0  0  0  0  0  0  0  0  0  0
   -2.7500    4.6856   -0.0000 C   0  0  0  0  0  0  0  0  0  0  0  0
   -3.0215    7.1052   -0.0000 N   0  0  0  0  0  0  0  0  0  0  0  0
   -3.7650    5.8069   -0.0000 C   0  0  0  0  0  0  0  0  0  0  0  0
   -3.6470    8.4861   -0.0000 C   0  0  0  0  0  0  0  0  0  0  0  0
   -2.7854    9.7136   -0.0000 C   0  0  0  0  0  0  0  0  0  0  0  0
   -1.3101    9.5601   -0.0000 C   0  0  0  0  0  0  0  0  0  0  0  0
   -3.4110   11.0709   -0.0000 C   0  0  0  0  0  0  0  0  0  0  0  0
   -0.4485   10.7758   -0.0000 C   0  0  0  0  0  0  0  0  0  0  0  0
   -2.5494   12.2983   -0.0000 C   0  0  0  0  0  0  0  0  0  0  0  0
   -1.0622   12.1567   -0.0000 C   0  0  0  0  0  0  0  0  0  0  0  0
    1.0268   10.6342   -0.0000 C   0  0  0  0  0  0  0  0  0  0  0  0
   -0.2006   13.3724   -0.0000 C   0  0  0  0  0  0  0  0  0  0  0  0
    1.9002   11.8616   -0.0000 C   0  0  0  0  0  0  0  0  0  0  0  0
    1.2747   13.2307   -0.0000 N   0  0  0  0  0  0  0  0  0  0  0  0
  1  2  2  0  0  0  0
  1  3  1  0  0  0  0
  2  4  1  0  0  0  0
  2  5  1  0  0  0  0
  3  6  1  0  0  0  0
  3  7  2  0  0  0  0
  5  8  2  0  0  0  0
  6  9  1  0  0  0  0
  7 10  1  0  0  0  0
  8 11  1  0  0  0  0
 11 12  1  0  0  0  0
 12 13  2  0  0  0  0
 12 14  1  0  0  0  0
 13 15  1  0  0  0  0
 14 16  2  0  0  0  0
 15 17  1  0  0  0  0
 17 18  1  0  0  0  0
 18 19  2  0  0  0  0
 18 20  1  0  0  0  0
 19 21  1  0  0  0  0
 20 22  2  0  0  0  0
 21 23  1  0  0  0  0
 21 24  2  0  0  0  0
 23 25  2  0  0  0  0
 24 26  1  0  0  0  0
 25 27  1  0  0  0  0
  7  8  1  0  0  0  0
  9 10  2  0  0  0  0
 15 16  1  0  0  0  0
 22 23  1  0  0  0  0
 26 27  2  0  0  0  0
M  END
>  <MolRegNo>
2565358

>  <m>
=

>  <Value>
210

>  <Unit>
nM

>  <Type>
IC50

>  <pValue>
6.68

>  <Ligand Efficiency>
0

>  <Binding Efficiency>
0

>  <Surface Efficiency>
0

>  <Assay Index>
1457726

>  <Assay Category>


>  <Assay Organism>
Homo sapiens

>  <Target ID>
17045

>  <Target Name>
Cytochrome P450 3A4

>  <Target Organism>
Homo sapiens

>  <Target Description>
Target is a single protein chain

>  <Sequence Accession>
P08684

>  <Reference>


>  <Pubmed ID>
33811992

>  <DOI>
10.1016/j.bmcl.2021.128010

$$$$
2549727
Actelion Java MolfileCreator 1.0

 27 31  0  0  0  0  0  0  0  0999 V2000
    0.0000   -0.0000   -0.0000 N   0  0  0  0  0  0  0  0  0  0  0  0
   -1.3112    0.7560   -0.0000 C   0  0  0  0  0  0  0  0  0  0  0  0
    1.2876    0.7678   -0.0000 C   0  0  0  0  0  0  0  0  0  0  0  0
   -2.6225    0.0236   -0.0000 N   0  0  0  0  0  0  0  0  0  0  0  0
   -1.3231    2.2681   -0.0000 C   0  0  0  0  0  0  0  0  0  0  0  0
    2.7052    0.3308   -0.0000 N   0  0  0  0  0  0  0  0  0  0  0  0
    1.2640    2.2799   -0.0000 C   0  0  0  0  0  0  0  0  0  0  0  0
   -0.0473    3.0241   -0.0000 C   0  0  0  0  0  0  0  0  0  0  0  0
    3.5675    1.5593   -0.0000 N   0  0  0  0  0  0  0  0  0  0  0  0
    2.6697    2.7643   -0.0000 N   0  0  0  0  0  0  0  0  0  0  0  0
   -0.0591    4.5362   -0.0000 C   0  0  0  0  0  0  0  0  0  0  0  0
   -1.3703    5.2922   -0.0000 C   0  0  0  0  0  0  0  0  0  0  0  0
   -1.5475    6.7925   -0.0000 N   0  0  0  0  0  0  0  0  0  0  0  0
   -2.7524    4.6898   -0.0000 C   0  0  0  0  0  0  0  0  0  0  0  0
   -3.0241    7.1114   -0.0000 N   0  0  0  0  0  0  0  0  0  0  0  0
   -3.7684    5.8120   -0.0000 C   0  0  0  0  0  0  0  0  0  0  0  0
   -3.6502    8.4936   -0.0000 C   0  0  0  0  0  0  0  0  0  0  0  0
   -2.7879    9.7221   -0.0000 C   0  0  0  0  0  0  0  0  0  0  0  0
   -1.3112    9.5686   -0.0000 C   0  0  0  0  0  0  0  0  0  0  0  0
   -3.4140   11.0806   -0.0000 C   0  0  0  0  0  0  0  0  0  0  0  0
   -0.4489   10.7971   -0.0000 C   0  0  0  0  0  0  0  0  0  0  0  0
   -2.5516   12.3092   -0.0000 C   0  0  0  0  0  0  0  0  0  0  0  0
   -1.0632   12.1674   -0.0000 C   0  0  0  0  0  0  0  0  0  0  0  0
    1.0159   10.6554   -0.0000 C   0  0  0  0  0  0  0  0  0  0  0  0
   -0.2126   13.3842   -0.0000 C   0  0  0  0  0  0  0  0  0  0  0  0
    1.8783   11.8721   -0.0000 C   0  0  0  0  0  0  0  0  0  0  0  0
    1.2640   13.2424   -0.0000 N   0  0  0  0  0  0  0  0  0  0  0  0
  1  2  2  0  0  0  0
  1  3  1  0  0  0  0
  2  4  1  0  0  0  0
  2  5  1  0  0  0  0
  3  6  1  0  0  0  0
  3  7  2  0  0  0  0
  5  8  2  0  0  0  0
  6  9  1  0  0  0  0
  7 10  1  0  0  0  0
  8 11  1  0  0  0  0
 11 12  1  0  0  0  0
 12 13  2  0  0  0  0
 12 14  1  0  0  0  0
 13 15  1  0  0  0  0
 14 16  2  0  0  0  0
 15 17  1  0  0  0  0
 17 18  1  0  0  0  0
 18 19  2  0  0  0  0
 18 20  1  0  0  0  0
 19 21  1  0  0  0  0
 20 22  2  0  0  0  0
 21 23  2  0  0  0  0
 21 24  1  0  0  0  0
 23 25  1  0  0  0  0
 24 26  1  0  0  0  0
 25 27  1  0  0  0  0
  7  8  1  0  0  0  0
  9 10  2  0  0  0  0
 15 16  1  0  0  0  0
 22 23  1  0  0  0  0
 26 27  1  0  0  0  0
M  END
>  <MolRegNo>
2549727

>  <m>
=

>  <Value>
7000

>  <Unit>
nM

>  <Type>
IC50

>  <pValue>
5.16

>  <Ligand Efficiency>
0

>  <Binding Efficiency>
0

>  <Surface Efficiency>
0

>  <Assay Index>
1457726

>  <Assay Category>


>  <Assay Organism>
Homo sapiens

>  <Target ID>
17045

>  <Target Name>
Cytochrome P450 3A4

>  <Target Organism>
Homo sapiens

>  <Target Description>
Target is a single protein chain

>  <Sequence Accession>
P08684

>  <Reference>


>  <Pubmed ID>
33811992

>  <DOI>
10.1016/j.bmcl.2021.128010

$$$$
2572289
Actelion Java MolfileCreator 1.0

 30 34  0  0  0  0  0  0  0  0999 V2000
    0.0000   -0.0000   -0.0000 N   0  0  0  0  0  0  0  0  0  0  0  0
   -1.3100    0.7553   -0.0000 C   0  0  0  0  0  0  0  0  0  0  0  0
    1.2864    0.7671   -0.0000 C   0  0  0  0  0  0  0  0  0  0  0  0
   -2.6200    0.0236   -0.0000 N   0  0  0  0  0  0  0  0  0  0  0  0
   -1.3218    2.2660   -0.0000 C   0  0  0  0  0  0  0  0  0  0  0  0
    2.7026    0.3305   -0.0000 N   0  0  0  0  0  0  0  0  0  0  0  0
    1.2628    2.2778   -0.0000 C   0  0  0  0  0  0  0  0  0  0  0  0
   -0.0472    3.0213   -0.0000 C   0  0  0  0  0  0  0  0  0  0  0  0
    3.5642    1.5578   -0.0000 N   0  0  0  0  0  0  0  0  0  0  0  0
    2.6672    2.7616   -0.0000 N   0  0  0  0  0  0  0  0  0  0  0  0
   -0.0590    4.5319   -0.0000 C   0  0  0  0  0  0  0  0  0  0  0  0
   -1.3690    5.2872   -0.0000 C   0  0  0  0  0  0  0  0  0  0  0  0
   -1.5460    6.7861   -0.0000 N   0  0  0  0  0  0  0  0  0  0  0  0
   -2.7498    4.6853   -0.0000 C   0  0  0  0  0  0  0  0  0  0  0  0
   -3.0213    7.1047   -0.0000 N   0  0  0  0  0  0  0  0  0  0  0  0
   -3.7648    5.8065   -0.0000 C   0  0  0  0  0  0  0  0  0  0  0  0
   -3.6468    8.4855   -0.0000 C   0  0  0  0  0  0  0  0  0  0  0  0
   -2.7852    9.7129   -0.0000 C   0  0  0  0  0  0  0  0  0  0  0  0
   -1.3100    9.5595   -0.0000 C   0  0  0  0  0  0  0  0  0  0  0  0
   -3.4107   11.0701   -0.0000 C   0  0  0  0  0  0  0  0  0  0  0  0
   -0.4485   10.7869   -0.0000 C   0  0  0  0  0  0  0  0  0  0  0  0
   -2.5492   12.2975   -0.0000 C   0  0  0  0  0  0  0  0  0  0  0  0
   -1.0740   12.1677   -0.0000 C   0  0  0  0  0  0  0  0  0  0  0  0
    1.0268   10.6452   -0.0000 C   0  0  0  0  0  0  0  0  0  0  0  0
    1.8883   11.8726   -0.0000 C   0  0  0  0  0  0  0  0  0  0  0  0
    3.3635   11.7192   -0.0000 C   0  0  0  0  0  0  0  0  0  0  0  0
    1.2628   13.2417   -0.0000 C   0  0  0  0  0  0  0  0  0  0  0  0
    4.2251   12.9466   -0.0000 C   0  0  0  0  0  0  0  0  0  0  0  0
    2.1243   14.4690   -0.0000 C   0  0  0  0  0  0  0  0  0  0  0  0
    3.5996   14.3274   -0.0000 C   0  0  0  0  0  0  0  0  0  0  0  0
  1  2  2  0  0  0  0
  1  3  1  0  0  0  0
  2  4  1  0  0  0  0
  2  5  1  0  0  0  0
  3  6  1  0  0  0  0
  3  7  2  0  0  0  0
  5  8  2  0  0  0  0
  6  9  1  0  0  0  0
  7 10  1  0  0  0  0
  8 11  1  0  0  0  0
 11 12  1  0  0  0  0
 12 13  2  0  0  0  0
 12 14  1  0  0  0  0
 13 15  1  0  0  0  0
 14 16  2  0  0  0  0
 15 17  1  0  0  0  0
 17 18  1  0  0  0  0
 18 19  2  0  0  0  0
 18 20  1  0  0  0  0
 19 21  1  0  0  0  0
 20 22  2  0  0  0  0
 21 23  2  0  0  0  0
 21 24  1  0  0  0  0
 24 25  1  0  0  0  0
 25 26  2  0  0  0  0
 25 27  1  0  0  0  0
 26 28  1  0  0  0  0
 27 29  2  0  0  0  0
 28 30  2  0  0  0  0
  7  8  1  0  0  0  0
  9 10  2  0  0  0  0
 15 16  1  0  0  0  0
 22 23  1  0  0  0  0
 29 30  1  0  0  0  0
M  END
>  <MolRegNo>
2572289

>  <m>
=

>  <Value>
37

>  <Unit>
nM

>  <Type>
IC50

>  <pValue>
7.43

>  <Ligand Efficiency>
0

>  <Binding Efficiency>
0

>  <Surface Efficiency>
0

>  <Assay Index>
1457726

>  <Assay Category>


>  <Assay Organism>
Homo sapiens

>  <Target ID>
17045

>  <Target Name>
Cytochrome P450 3A4

>  <Target Organism>
Homo sapiens

>  <Target Description>
Target is a single protein chain

>  <Sequence Accession>
P08684

>  <Reference>


>  <Pubmed ID>
33811992

>  <DOI>
10.1016/j.bmcl.2021.128010

$$$$
2555824
Actelion Java MolfileCreator 1.0

 30 34  0  0  0  0  0  0  0  0999 V2000
    0.0000   -0.0000   -0.0000 O   0  0  0  0  0  0  0  0  0  0  0  0
   -1.5054    0.1660   -0.0000 C   0  0  0  0  0  0  0  0  0  0  0  0
    0.8653    1.2328   -0.0000 C   0  0  0  0  0  0  0  0  0  0  0  0
   -2.3945   -1.0431   -0.0000 C   0  0  0  0  0  0  0  0  0  0  0  0
   -2.1337    1.5528   -0.0000 C   0  0  0  0  0  0  0  0  0  0  0  0
    2.3471    1.0787   -0.0000 C   0  0  0  0  0  0  0  0  0  0  0  0
    0.2371    2.6078   -0.0000 C   0  0  0  0  0  0  0  0  0  0  0  0
   -3.8999   -0.8653   -0.0000 C   0  0  0  0  0  0  0  0  0  0  0  0
   -3.6510    1.7188   -0.0000 C   0  0  0  0  0  0  0  0  0  0  0  0
    3.2124    2.3115   -0.0000 C   0  0  0  0  0  0  0  0  0  0  0  0
    1.1024    3.8406   -0.0000 C   0  0  0  0  0  0  0  0  0  0  0  0
   -4.5282    0.4979   -0.0000 C   0  0  0  0  0  0  0  0  0  0  0  0
   -4.7889   -2.0744   -0.0000 C   0  0  0  0  0  0  0  0  0  0  0  0
    2.5841    3.6984   -0.0000 C   0  0  0  0  0  0  0  0  0  0  0  0
   -4.1844   -3.4376   -0.0000 N   0  0  0  0  0  0  0  0  0  0  0  0
   -2.7264   -3.7340   -0.0000 N   0  0  0  0  0  0  0  0  0  0  0  0
   -4.9430   -4.7297   -0.0000 C   0  0  0  0  0  0  0  0  0  0  0  0
   -2.5723   -5.2157   -0.0000 C   0  0  0  0  0  0  0  0  0  0  0  0
   -3.9473   -5.8321   -0.0000 C   0  0  0  0  0  0  0  0  0  0  0  0
   -1.2802   -5.9506   -0.0000 C   0  0  0  0  0  0  0  0  0  0  0  0
   -1.2921   -7.4442   -0.0000 C   0  0  0  0  0  0  0  0  0  0  0  0
    0.0000   -8.1791   -0.0000 C   0  0  0  0  0  0  0  0  0  0  0  0
   -2.5960   -8.1791   -0.0000 C   0  0  0  0  0  0  0  0  0  0  0  0
    1.4106   -7.6931   -0.0000 N   0  0  0  0  0  0  0  0  0  0  0  0
    0.0000   -9.6727   -0.0000 C   0  0  0  0  0  0  0  0  0  0  0  0
   -2.6078   -9.6727   -0.0000 C   0  0  0  0  0  0  0  0  0  0  0  0
    2.2878   -8.8904   -0.0000 N   0  0  0  0  0  0  0  0  0  0  0  0
   -1.3158  -10.4195   -0.0000 N   0  0  0  0  0  0  0  0  0  0  0  0
    1.4225  -10.1113   -0.0000 N   0  0  0  0  0  0  0  0  0  0  0  0
   -3.9236  -10.4076   -0.0000 N   0  0  0  0  0  0  0  0  0  0  0  0
  1  2  1  0  0  0  0
  1  3  1  0  0  0  0
  2  4  2  0  0  0  0
  2  5  1  0  0  0  0
  3  6  2  0  0  0  0
  3  7  1  0  0  0  0
  4  8  1  0  0  0  0
  5  9  2  0  0  0  0
  6 10  1  0  0  0  0
  7 11  2  0  0  0  0
  8 12  2  0  0  0  0
  8 13  1  0  0  0  0
 10 14  2  0  0  0  0
 13 15  1  0  0  0  0
 15 16  1  0  0  0  0
 15 17  1  0  0  0  0
 16 18  2  0  0  0  0
 17 19  2  0  0  0  0
 18 20  1  0  0  0  0
 20 21  1  0  0  0  0
 21 22  2  0  0  0  0
 21 23  1  0  0  0  0
 22 24  1  0  0  0  0
 22 25  1  0  0  0  0
 23 26  2  0  0  0  0
 24 27  2  0  0  0  0
 25 28  2  0  0  0  0
 25 29  1  0  0  0  0
 26 30  1  0  0  0  0
  9 12  1  0  0  0  0
 11 14  1  0  0  0  0
 18 19  1  0  0  0  0
 26 28  1  0  0  0  0
 27 29  1  0  0  0  0
M  END
>  <MolRegNo>
2555824

>  <m>
=

>  <Value>
11

>  <Unit>
nM

>  <Type>
IC50

>  <pValue>
7.96

>  <Ligand Efficiency>
0

>  <Binding Efficiency>
0

>  <Surface Efficiency>
0

>  <Assay Index>
1457726

>  <Assay Category>


>  <Assay Organism>
Homo sapiens

>  <Target ID>
17045

>  <Target Name>
Cytochrome P450 3A4

>  <Target Organism>
Homo sapiens

>  <Target Description>
Target is a single protein chain

>  <Sequence Accession>
P08684

>  <Reference>


>  <Pubmed ID>
33811992

>  <DOI>
10.1016/j.bmcl.2021.128010

$$$$
2554200
Actelion Java MolfileCreator 1.0

 33 38  0  0  0  0  0  0  0  0999 V2000
    0.0000   -0.0000   -0.0000 O   0  0  0  0  0  0  0  0  0  0  0  0
    0.8669    1.2350   -0.0000 C   0  0  0  0  0  0  0  0  0  0  0  0
   -1.5082    0.1663   -0.0000 C   0  0  0  0  0  0  0  0  0  0  0  0
    2.3513    1.0925   -0.0000 C   0  0  0  0  0  0  0  0  0  0  0  0
    0.2375    2.6126   -0.0000 C   0  0  0  0  0  0  0  0  0  0  0  0
   -2.3988   -1.0450   -0.0000 C   0  0  0  0  0  0  0  0  0  0  0  0
   -2.1376    1.5557   -0.0000 C   0  0  0  0  0  0  0  0  0  0  0  0
    3.2064    2.3157   -0.0000 C   0  0  0  0  0  0  0  0  0  0  0  0
    3.2301   -0.0950   -0.0000 C   0  0  0  0  0  0  0  0  0  0  0  0
    1.1044    3.8476   -0.0000 C   0  0  0  0  0  0  0  0  0  0  0  0
   -3.9070   -0.8669   -0.0000 C   0  0  0  0  0  0  0  0  0  0  0  0
   -3.6576    1.7219   -0.0000 C   0  0  0  0  0  0  0  0  0  0  0  0
    2.5770    3.7051   -0.0000 C   0  0  0  0  0  0  0  0  0  0  0  0
    4.6195    1.8763   -0.0000 C   0  0  0  0  0  0  0  0  0  0  0  0
    4.6433    0.3919   -0.0000 N   0  0  0  0  0  0  0  0  0  0  0  0
   -4.5364    0.4988   -0.0000 C   0  0  0  0  0  0  0  0  0  0  0  0
   -4.7977   -2.0782   -0.0000 C   0  0  0  0  0  0  0  0  0  0  0  0
   -4.1920   -3.4439   -0.0000 N   0  0  0  0  0  0  0  0  0  0  0  0
   -2.7313   -3.7408   -0.0000 N   0  0  0  0  0  0  0  0  0  0  0  0
   -4.9521   -4.7383   -0.0000 C   0  0  0  0  0  0  0  0  0  0  0  0
   -2.5770   -5.2252   -0.0000 C   0  0  0  0  0  0  0  0  0  0  0  0
   -3.9545   -5.8427   -0.0000 C   0  0  0  0  0  0  0  0  0  0  0  0
   -1.2825   -5.9615   -0.0000 C   0  0  0  0  0  0  0  0  0  0  0  0
   -1.2944   -7.4578   -0.0000 C   0  0  0  0  0  0  0  0  0  0  0  0
    0.0000   -8.1940   -0.0000 C   0  0  0  0  0  0  0  0  0  0  0  0
   -2.6007   -8.1940   -0.0000 C   0  0  0  0  0  0  0  0  0  0  0  0
    1.4132   -7.7072   -0.0000 N   0  0  0  0  0  0  0  0  0  0  0  0
    0.0000   -9.6903   -0.0000 C   0  0  0  0  0  0  0  0  0  0  0  0
   -2.6126   -9.6903   -0.0000 C   0  0  0  0  0  0  0  0  0  0  0  0
    2.2920   -8.9066   -0.0000 N   0  0  0  0  0  0  0  0  0  0  0  0
   -1.3182  -10.4385   -0.0000 N   0  0  0  0  0  0  0  0  0  0  0  0
    1.4251  -10.1297   -0.0000 N   0  0  0  0  0  0  0  0  0  0  0  0
   -3.9308  -10.4266   -0.0000 N   0  0  0  0  0  0  0  0  0  0  0  0
  1  2  1  0  0  0  0
  1  3  1  0  0  0  0
  2  4  2  0  0  0  0
  2  5  1  0  0  0  0
  3  6  2  0  0  0  0
  3  7  1  0  0  0  0
  4  8  1  0  0  0  0
  4  9  1  0  0  0  0
  5 10  2  0  0  0  0
  6 11  1  0  0  0  0
  7 12  2  0  0  0  0
  8 13  2  0  0  0  0
  8 14  1  0  0  0  0
  9 15  1  0  0  0  0
 11 16  2  0  0  0  0
 11 17  1  0  0  0  0
 17 18  1  0  0  0  0
 18 19  1  0  0  0  0
 18 20  1  0  0  0  0
 19 21  2  0  0  0  0
 20 22  2  0  0  0  0
 21 23  1  0  0  0  0
 23 24  1  0  0  0  0
 24 25  2  0  0  0  0
 24 26  1  0  0  0  0
 25 27  1  0  0  0  0
 25 28  1  0  0  0  0
 26 29  2  0  0  0  0
 27 30  2  0  0  0  0
 28 31  2  0  0  0  0
 28 32  1  0  0  0  0
 29 33  1  0  0  0  0
 10 13  1  0  0  0  0
 12 16  1  0  0  0  0
 14 15  1  0  0  0  0
 21 22  1  0  0  0  0
 29 31  1  0  0  0  0
 30 32  1  0  0  0  0
M  END
>  <MolRegNo>
2554200

>  <m>
=

>  <Value>
140

>  <Unit>
nM

>  <Type>
IC50

>  <pValue>
6.85

>  <Ligand Efficiency>
0

>  <Binding Efficiency>
0

>  <Surface Efficiency>
0

>  <Assay Index>
1457726

>  <Assay Category>


>  <Assay Organism>
Homo sapiens

>  <Target ID>
17045

>  <Target Name>
Cytochrome P450 3A4

>  <Target Organism>
Homo sapiens

>  <Target Description>
Target is a single protein chain

>  <Sequence Accession>
P08684

>  <Reference>


>  <Pubmed ID>
33811992

>  <DOI>
10.1016/j.bmcl.2021.128010

$$$$
2571178
Actelion Java MolfileCreator 1.0

 29 33  0  0  0  0  0  0  0  0999 V2000
    0.0000   -0.0000   -0.0000 O   0  0  0  0  0  0  0  0  0  0  0  0
    0.6067   -1.3561   -0.0000 C   0  0  0  0  0  0  0  0  0  0  0  0
    0.8684    1.2371   -0.0000 C   0  0  0  0  0  0  0  0  0  0  0  0
   -0.2855   -2.5694   -0.0000 C   0  0  0  0  0  0  0  0  0  0  0  0
    2.1055   -1.4988   -0.0000 C   0  0  0  0  0  0  0  0  0  0  0  0
    0.3688    2.6765   -0.0000 C   0  0  0  0  0  0  0  0  0  0  0  0
    2.3553    1.2609   -0.0000 C   0  0  0  0  0  0  0  0  0  0  0  0
    0.3212   -3.9136   -0.0000 C   0  0  0  0  0  0  0  0  0  0  0  0
    2.7121   -2.8668   -0.0000 C   0  0  0  0  0  0  0  0  0  0  0  0
    1.5702    3.5805   -0.0000 N   0  0  0  0  0  0  0  0  0  0  0  0
    2.7954    2.7121   -0.0000 C   0  0  0  0  0  0  0  0  0  0  0  0
    1.8081   -4.0682   -0.0000 C   0  0  0  0  0  0  0  0  0  0  0  0
   -0.5710   -5.1269   -0.0000 C   0  0  0  0  0  0  0  0  0  0  0  0
    0.0357   -6.4949   -0.0000 N   0  0  0  0  0  0  0  0  0  0  0  0
    1.4988   -6.7922   -0.0000 N   0  0  0  0  0  0  0  0  0  0  0  0
   -0.7256   -7.7915   -0.0000 C   0  0  0  0  0  0  0  0  0  0  0  0
    1.6535   -8.2792   -0.0000 C   0  0  0  0  0  0  0  0  0  0  0  0
    0.2736   -8.8977   -0.0000 C   0  0  0  0  0  0  0  0  0  0  0  0
    2.9500   -9.0167   -0.0000 C   0  0  0  0  0  0  0  0  0  0  0  0
    2.9382  -10.5155   -0.0000 C   0  0  0  0  0  0  0  0  0  0  0  0
    4.2347  -11.2530   -0.0000 C   0  0  0  0  0  0  0  0  0  0  0  0
    1.6297  -11.2530   -0.0000 C   0  0  0  0  0  0  0  0  0  0  0  0
    5.6503  -10.7653   -0.0000 N   0  0  0  0  0  0  0  0  0  0  0  0
    4.2347  -12.7518   -0.0000 C   0  0  0  0  0  0  0  0  0  0  0  0
    1.6178  -12.7518   -0.0000 C   0  0  0  0  0  0  0  0  0  0  0  0
    6.5306  -11.9667   -0.0000 N   0  0  0  0  0  0  0  0  0  0  0  0
    2.9144  -13.5012   -0.0000 N   0  0  0  0  0  0  0  0  0  0  0  0
    5.6622  -13.1920   -0.0000 N   0  0  0  0  0  0  0  0  0  0  0  0
    0.2974  -13.4893   -0.0000 N   0  0  0  0  0  0  0  0  0  0  0  0
  1  2  1  0  0  0  0
  3  1  1  6  0  0  0
  2  4  2  0  0  0  0
  2  5  1  0  0  0  0
  3  6  1  0  0  0  0
  3  7  1  0  0  0  0
  4  8  1  0  0  0  0
  5  9  2  0  0  0  0
  6 10  1  0  0  0  0
  7 11  1  0  0  0  0
  8 12  2  0  0  0  0
  8 13  1  0  0  0  0
 13 14  1  0  0  0  0
 14 15  1  0  0  0  0
 14 16  1  0  0  0  0
 15 17  2  0  0  0  0
 16 18  2  0  0  0  0
 17 19  1  0  0  0  0
 19 20  1  0  0  0  0
 20 21  2  0  0  0  0
 20 22  1  0  0  0  0
 21 23  1  0  0  0  0
 21 24  1  0  0  0  0
 22 25  2  0  0  0  0
 23 26  2  0  0  0  0
 24 27  2  0  0  0  0
 24 28  1  0  0  0  0
 25 29  1  0  0  0  0
  9 12  1  0  0  0  0
 10 11  1  0  0  0  0
 17 18  1  0  0  0  0
 25 27  1  0  0  0  0
 26 28  1  0  0  0  0
M  END
>  <MolRegNo>
2571178

>  <m>
=

>  <Value>
13000

>  <Unit>
nM

>  <Type>
IC50

>  <pValue>
4.89

>  <Ligand Efficiency>
0

>  <Binding Efficiency>
0

>  <Surface Efficiency>
0

>  <Assay Index>
1457726

>  <Assay Category>


>  <Assay Organism>
Homo sapiens

>  <Target ID>
17045

>  <Target Name>
Cytochrome P450 3A4

>  <Target Organism>
Homo sapiens

>  <Target Description>
Target is a single protein chain

>  <Sequence Accession>
P08684

>  <Reference>


>  <Pubmed ID>
33811992

>  <DOI>
10.1016/j.bmcl.2021.128010

$$$$
2553241
Actelion Java MolfileCreator 1.0

 29 33  0  0  0  0  0  0  0  0999 V2000
    0.0000   -0.0000   -0.0000 N   0  0  0  0  0  0  0  0  0  0  0  0
   -1.3078    0.7541   -0.0000 C   0  0  0  0  0  0  0  0  0  0  0  0
    1.2842    0.7658   -0.0000 C   0  0  0  0  0  0  0  0  0  0  0  0
   -2.6156    0.0236   -0.0000 N   0  0  0  0  0  0  0  0  0  0  0  0
   -1.3196    2.2622   -0.0000 C   0  0  0  0  0  0  0  0  0  0  0  0
    2.6981    0.3181   -0.0000 N   0  0  0  0  0  0  0  0  0  0  0  0
    1.2607    2.2739   -0.0000 C   0  0  0  0  0  0  0  0  0  0  0  0
   -0.0471    3.0162   -0.0000 C   0  0  0  0  0  0  0  0  0  0  0  0
    3.5582    1.5434   -0.0000 N   0  0  0  0  0  0  0  0  0  0  0  0
    2.6627    2.7570   -0.0000 N   0  0  0  0  0  0  0  0  0  0  0  0
   -0.0589    4.5243   -0.0000 C   0  0  0  0  0  0  0  0  0  0  0  0
   -1.3667    5.2784   -0.0000 C   0  0  0  0  0  0  0  0  0  0  0  0
   -1.5434    6.7747   -0.0000 N   0  0  0  0  0  0  0  0  0  0  0  0
   -2.7452    4.6775   -0.0000 C   0  0  0  0  0  0  0  0  0  0  0  0
   -3.0162    7.0928   -0.0000 N   0  0  0  0  0  0  0  0  0  0  0  0
   -3.7585    5.7968   -0.0000 C   0  0  0  0  0  0  0  0  0  0  0  0
   -3.6406    8.4713   -0.0000 C   0  0  0  0  0  0  0  0  0  0  0  0
   -2.7806    9.6966   -0.0000 C   0  0  0  0  0  0  0  0  0  0  0  0
   -3.4050   11.0515   -0.0000 C   0  0  0  0  0  0  0  0  0  0  0  0
   -1.3078    9.5434   -0.0000 C   0  0  0  0  0  0  0  0  0  0  0  0
   -2.5449   12.2769   -0.0000 C   0  0  0  0  0  0  0  0  0  0  0  0
   -0.4477   10.7688   -0.0000 C   0  0  0  0  0  0  0  0  0  0  0  0
   -1.0604   12.1355   -0.0000 C   0  0  0  0  0  0  0  0  0  0  0  0
   -3.1694   13.6436   -0.0000 C   0  0  0  0  0  0  0  0  0  0  0  0
   -2.3093   14.8689   -0.0000 C   0  0  0  0  0  0  0  0  0  0  0  0
   -4.6657   13.7968   -0.0000 C   0  0  0  0  0  0  0  0  0  0  0  0
   -2.9337   16.2356   -0.0000 C   0  0  0  0  0  0  0  0  0  0  0  0
   -5.2901   15.1753   -0.0000 C   0  0  0  0  0  0  0  0  0  0  0  0
   -4.4300   16.4006   -0.0000 N   0  0  0  0  0  0  0  0  0  0  0  0
  1  2  2  0  0  0  0
  1  3  1  0  0  0  0
  2  4  1  0  0  0  0
  2  5  1  0  0  0  0
  3  6  1  0  0  0  0
  3  7  2  0  0  0  0
  5  8  2  0  0  0  0
  6  9  1  0  0  0  0
  7 10  1  0  0  0  0
  8 11  1  0  0  0  0
 11 12  1  0  0  0  0
 12 13  2  0  0  0  0
 12 14  1  0  0  0  0
 13 15  1  0  0  0  0
 14 16  2  0  0  0  0
 15 17  1  0  0  0  0
 17 18  1  0  0  0  0
 18 19  2  0  0  0  0
 18 20  1  0  0  0  0
 19 21  1  0  0  0  0
 20 22  2  0  0  0  0
 21 23  2  0  0  0  0
 21 24  1  0  0  0  0
 24 25  1  0  0  0  0
 24 26  1  0  0  0  0
 25 27  1  0  0  0  0
 26 28  1  0  0  0  0
 27 29  1  0  0  0  0
  7  8  1  0  0  0  0
  9 10  2  0  0  0  0
 15 16  1  0  0  0  0
 22 23  1  0  0  0  0
 28 29  1  0  0  0  0
M  END
>  <MolRegNo>
2553241

>  <m>
=

>  <Value>
3300

>  <Unit>
nM

>  <Type>
IC50

>  <pValue>
5.48

>  <Ligand Efficiency>
0

>  <Binding Efficiency>
0

>  <Surface Efficiency>
0

>  <Assay Index>
1457726

>  <Assay Category>


>  <Assay Organism>
Homo sapiens

>  <Target ID>
17045

>  <Target Name>
Cytochrome P450 3A4

>  <Target Organism>
Homo sapiens

>  <Target Description>
Target is a single protein chain

>  <Sequence Accession>
P08684

>  <Reference>


>  <Pubmed ID>
33811992

>  <DOI>
10.1016/j.bmcl.2021.128010

$$$$
2544164
Actelion Java MolfileCreator 1.0

 28 30  0  0  0  0  0  0  0  0999 V2000
    0.0000   -0.0000   -0.0000 F   0  0  0  0  0  0  0  0  0  0  0  0
   -0.7499    1.3093   -0.0000 C   0  0  0  0  0  0  0  0  0  0  0  0
   -1.5117    0.0238   -0.0000 F   0  0  0  0  0  0  0  0  0  0  0  0
   -2.0592    2.0711   -0.0000 F   0  0  0  0  0  0  0  0  0  0  0  0
    0.5475    2.0711   -0.0000 C   0  0  0  0  0  0  0  0  0  0  0  0
    1.8330    1.3331   -0.0000 N   0  0  0  0  0  0  0  0  0  0  0  0
    0.5356    3.5946   -0.0000 C   0  0  0  0  0  0  0  0  0  0  0  0
    3.1304    2.0949   -0.0000 C   0  0  0  0  0  0  0  0  0  0  0  0
    1.8211    4.3564   -0.0000 C   0  0  0  0  0  0  0  0  0  0  0  0
    3.1185    3.6185   -0.0000 C   0  0  0  0  0  0  0  0  0  0  0  0
    4.4040    4.3802   -0.0000 C   0  0  0  0  0  0  0  0  0  0  0  0
    5.6895    3.6423   -0.0000 C   0  0  0  0  0  0  0  0  0  0  0  0
    7.0465    4.2731   -0.0000 C   0  0  0  0  0  0  0  0  0  0  0  0
    5.8443    2.1663   -0.0000 C   0  0  0  0  0  0  0  0  0  0  0  0
    8.0463    3.1781   -0.0000 C   0  0  0  0  0  0  0  0  0  0  0  0
    7.3440    5.7610   -0.0000 C   0  0  0  0  0  0  0  0  0  0  0  0
    7.2964    1.8687   -0.0000 N   0  0  0  0  0  0  0  0  0  0  0  0
    9.5223    3.3566   -0.0000 C   0  0  0  0  0  0  0  0  0  0  0  0
   10.1174    4.7373   -0.0000 O   0  0  0  0  0  0  0  0  0  0  0  0
   10.4031    2.1544   -0.0000 N   0  0  0  0  0  0  0  0  0  0  0  0
   11.8790    2.3330   -0.0000 C   0  0  0  0  0  0  0  0  0  0  0  0
   12.4741    3.7137   -0.0000 C   0  0  0  0  0  0  0  0  0  0  0  0
   12.7598    1.1308   -0.0000 C   0  0  0  0  0  0  0  0  0  0  0  0
   13.9263    4.0470   -0.0000 C   0  0  0  0  0  0  0  0  0  0  0  0
   11.7005    5.0230   -0.0000 C   0  0  0  0  0  0  0  0  0  0  0  0
   14.0691    5.5586   -0.0000 N   0  0  0  0  0  0  0  0  0  0  0  0
   12.6884    6.1538   -0.0000 N   0  0  0  0  0  0  0  0  0  0  0  0
   12.3551    7.6297   -0.0000 C   0  0  0  0  0  0  0  0  0  0  0  0
  1  2  1  0  0  0  0
  2  3  1  0  0  0  0
  2  4  1  0  0  0  0
  2  5  1  0  0  0  0
  5  6  2  0  0  0  0
  5  7  1  0  0  0  0
  6  8  1  0  0  0  0
  7  9  2  0  0  0  0
  8 10  2  0  0  0  0
 10 11  1  0  0  0  0
 11 12  1  0  0  0  0
 12 13  1  0  0  0  0
 12 14  2  0  0  0  0
 13 15  2  0  0  0  0
 13 16  1  0  0  0  0
 14 17  1  0  0  0  0
 15 18  1  0  0  0  0
 18 19  2  0  0  0  0
 18 20  1  0  0  0  0
 20 21  1  0  0  0  0
 21 22  1  0  0  0  0
 21 23  1  0  0  0  0
 22 24  1  0  0  0  0
 22 25  2  0  0  0  0
 24 26  2  0  0  0  0
 25 27  1  0  0  0  0
 27 28  1  0  0  0  0
  9 10  1  0  0  0  0
 15 17  1  0  0  0  0
 26 27  1  0  0  0  0
M  END
>  <MolRegNo>
2544164

>  <m>
=

>  <Value>
8500

>  <Unit>
nM

>  <Type>
IC50

>  <pValue>
5.07

>  <Ligand Efficiency>
0

>  <Binding Efficiency>
0

>  <Surface Efficiency>
0

>  <Assay Index>
1458085

>  <Assay Category>


>  <Assay Organism>
Homo sapiens

>  <Target ID>
17045

>  <Target Name>
Cytochrome P450 3A4

>  <Target Organism>
Homo sapiens

>  <Target Description>
Target is a single protein chain

>  <Sequence Accession>
P08684

>  <Reference>
J Med Chem 64 (9.0), 6085-6136 (2021)

>  <Pubmed ID>
33876936

>  <DOI>
10.1021/acs.jmedchem.1c00173

$$$$
2545242
Actelion Java MolfileCreator 1.0

 29 32  0  0  0  0  0  0  0  0999 V2000
    0.0000   -0.0000   -0.0000 F   0  0  0  0  0  0  0  0  0  0  0  0
   -1.0753    1.0753   -0.0000 C   0  0  0  0  0  0  0  0  0  0  0  0
   -1.4770   -0.3663   -0.0000 F   0  0  0  0  0  0  0  0  0  0  0  0
   -2.5169    1.5479   -0.0000 F   0  0  0  0  0  0  0  0  0  0  0  0
    0.0354    2.0915   -0.0000 C   0  0  0  0  0  0  0  0  0  0  0  0
    1.4534    1.6425   -0.0000 N   0  0  0  0  0  0  0  0  0  0  0  0
   -0.2836    3.5685   -0.0000 C   0  0  0  0  0  0  0  0  0  0  0  0
    2.5523    2.6587   -0.0000 C   0  0  0  0  0  0  0  0  0  0  0  0
    0.8271    4.5847   -0.0000 C   0  0  0  0  0  0  0  0  0  0  0  0
    2.2333    4.1239   -0.0000 C   0  0  0  0  0  0  0  0  0  0  0  0
    3.3440    5.1401   -0.0000 C   0  0  0  0  0  0  0  0  0  0  0  0
    4.7619    4.6792   -0.0000 C   0  0  0  0  0  0  0  0  0  0  0  0
    2.2687    6.2153   -0.0000 C   0  0  0  0  0  0  0  0  0  0  0  0
    3.7221    6.6171   -0.0000 C   0  0  0  0  0  0  0  0  0  0  0  0
    5.9554    5.5773   -0.0000 C   0  0  0  0  0  0  0  0  0  0  0  0
    5.2110    3.2613   -0.0000 C   0  0  0  0  0  0  0  0  0  0  0  0
    7.1606    4.7029   -0.0000 C   0  0  0  0  0  0  0  0  0  0  0  0
    5.9436    7.0897   -0.0000 C   0  0  0  0  0  0  0  0  0  0  0  0
    6.6998    3.2731   -0.0000 N   0  0  0  0  0  0  0  0  0  0  0  0
    8.5786    5.1755   -0.0000 C   0  0  0  0  0  0  0  0  0  0  0  0
    8.8858    6.6525   -0.0000 O   0  0  0  0  0  0  0  0  0  0  0  0
    9.6775    4.1829   -0.0000 N   0  0  0  0  0  0  0  0  0  0  0  0
   11.1545    4.2657   -0.0000 C   0  0  0  0  0  0  0  0  0  0  0  0
   11.8280    5.6127   -0.0000 C   0  0  0  0  0  0  0  0  0  0  0  0
   11.9580    3.0131   -0.0000 C   0  0  0  0  0  0  0  0  0  0  0  0
   11.1427    6.9716   -0.0000 N   0  0  0  0  0  0  0  0  0  0  0  0
   13.2933    5.8608   -0.0000 C   0  0  0  0  0  0  0  0  0  0  0  0
   12.1943    8.0350   -0.0000 C   0  0  0  0  0  0  0  0  0  0  0  0
   13.5178    7.3497   -0.0000 N   0  0  0  0  0  0  0  0  0  0  0  0
  1  2  1  0  0  0  0
  2  3  1  0  0  0  0
  2  4  1  0  0  0  0
  2  5  1  0  0  0  0
  5  6  2  0  0  0  0
  5  7  1  0  0  0  0
  6  8  1  0  0  0  0
  7  9  2  0  0  0  0
  8 10  2  0  0  0  0
 10 11  1  0  0  0  0
 11 12  1  0  0  0  0
 11 13  1  0  0  0  0
 11 14  1  0  0  0  0
 12 15  1  0  0  0  0
 12 16  2  0  0  0  0
 15 17  2  0  0  0  0
 15 18  1  0  0  0  0
 16 19  1  0  0  0  0
 17 20  1  0  0  0  0
 20 21  2  0  0  0  0
 20 22  1  0  0  0  0
 22 23  1  0  0  0  0
 23 24  1  0  0  0  0
 23 25  1  0  0  0  0
 24 26  1  0  0  0  0
 24 27  2  0  0  0  0
 26 28  2  0  0  0  0
 27 29  1  0  0  0  0
  9 10  1  0  0  0  0
 13 14  1  0  0  0  0
 17 19  1  0  0  0  0
 28 29  1  0  0  0  0
M  END
>  <MolRegNo>
2545242

>  <m>
=

>  <Value>
1700

>  <Unit>
nM

>  <Type>
IC50

>  <pValue>
5.77

>  <Ligand Efficiency>
0

>  <Binding Efficiency>
0

>  <Surface Efficiency>
0

>  <Assay Index>
1458085

>  <Assay Category>


>  <Assay Organism>
Homo sapiens

>  <Target ID>
17045

>  <Target Name>
Cytochrome P450 3A4

>  <Target Organism>
Homo sapiens

>  <Target Description>
Target is a single protein chain

>  <Sequence Accession>
P08684

>  <Reference>
J Med Chem 64 (9.0), 6085-6136 (2021)

>  <Pubmed ID>
33876936

>  <DOI>
10.1021/acs.jmedchem.1c00173

$$$$
2540523
Actelion Java MolfileCreator 1.0

 28 32  0  0  0  0  0  0  0  0999 V2000
    0.0000   -0.0000   -0.0000 O   0  0  0  0  0  0  0  0  0  0  0  0
    0.7913   -1.2519   -0.0000 N   0  0  0  0  0  0  0  0  0  0  0  0
    2.2793   -1.1810   -0.0000 C   0  0  0  0  0  0  0  0  0  0  0  0
    3.0706   -2.4329   -0.0000 N   0  0  0  0  0  0  0  0  0  0  0  0
    2.9643    0.1653   -0.0000 C   0  0  0  0  0  0  0  0  0  0  0  0
    4.4405    0.2362   -0.0000 C   0  0  0  0  0  0  0  0  0  0  0  0
    2.1494    1.4526   -0.0000 C   0  0  0  0  0  0  0  0  0  0  0  0
    5.1255    1.5707   -0.0000 C   0  0  0  0  0  0  0  0  0  0  0  0
    2.8344    2.7753   -0.0000 C   0  0  0  0  0  0  0  0  0  0  0  0
    6.5663    1.9486   -0.0000 N   0  0  0  0  0  0  0  0  0  0  0  0
    4.3106    2.8462   -0.0000 C   0  0  0  0  0  0  0  0  0  0  0  0
    6.6608    3.4485   -0.0000 C   0  0  0  0  0  0  0  0  0  0  0  0
    5.2672    4.0154   -0.0000 N   0  0  0  0  0  0  0  0  0  0  0  0
    7.9245    4.2516   -0.0000 C   0  0  0  0  0  0  0  0  0  0  0  0
    7.8654    5.7633   -0.0000 C   0  0  0  0  0  0  0  0  0  0  0  0
    9.2354    3.5666   -0.0000 C   0  0  0  0  0  0  0  0  0  0  0  0
    9.1291    6.5663   -0.0000 C   0  0  0  0  0  0  0  0  0  0  0  0
   10.4991    4.3815   -0.0000 C   0  0  0  0  0  0  0  0  0  0  0  0
    9.0582    8.0780   -0.0000 C   0  0  0  0  0  0  0  0  0  0  0  0
   10.4400    5.8814   -0.0000 C   0  0  0  0  0  0  0  0  0  0  0  0
   10.2156    9.0228   -0.0000 N   0  0  0  0  0  0  0  0  0  0  0  0
    7.8064    8.9283   -0.0000 C   0  0  0  0  0  0  0  0  0  0  0  0
    9.6960   10.4400   -0.0000 C   0  0  0  0  0  0  0  0  0  0  0  0
    8.1961   10.3810   -0.0000 N   0  0  0  0  0  0  0  0  0  0  0  0
   10.3810   11.7745   -0.0000 C   0  0  0  0  0  0  0  0  0  0  0  0
    7.3812   11.6564   -0.0000 C   0  0  0  0  0  0  0  0  0  0  0  0
    9.5661   13.0618   -0.0000 C   0  0  0  0  0  0  0  0  0  0  0  0
    8.0780   13.0028   -0.0000 C   0  0  0  0  0  0  0  0  0  0  0  0
  1  2  1  0  0  0  0
  2  3  1  0  0  0  0
  3  4  2  0  0  0  0
  3  5  1  0  0  0  0
  5  6  2  0  0  0  0
  5  7  1  0  0  0  0
  6  8  1  0  0  0  0
  7  9  2  0  0  0  0
  8 10  1  0  0  0  0
  8 11  2  0  0  0  0
 10 12  1  0  0  0  0
 11 13  1  0  0  0  0
 12 14  1  0  0  0  0
 14 15  2  0  0  0  0
 14 16  1  0  0  0  0
 15 17  1  0  0  0  0
 16 18  2  0  0  0  0
 17 19  1  0  0  0  0
 17 20  2  0  0  0  0
 19 21  1  0  0  0  0
 19 22  2  0  0  0  0
 21 23  2  0  0  0  0
 22 24  1  0  0  0  0
 23 25  1  0  0  0  0
 24 26  1  0  0  0  0
 25 27  2  0  0  0  0
 26 28  2  0  0  0  0
  9 11  1  0  0  0  0
 12 13  2  0  0  0  0
 18 20  1  0  0  0  0
 23 24  1  0  0  0  0
 27 28  1  0  0  0  0
M  END
>  <MolRegNo>
2540523

>  <m>
=

>  <Value>
233

>  <Unit>
nM

>  <Type>
IC50

>  <pValue>
6.63

>  <Ligand Efficiency>
0

>  <Binding Efficiency>
0

>  <Surface Efficiency>
0

>  <Assay Index>
1458807

>  <Assay Category>


>  <Assay Organism>
Homo sapiens

>  <Target ID>
17045

>  <Target Name>
Cytochrome P450 3A4

>  <Target Organism>
Homo sapiens

>  <Target Description>
Target is a single protein chain

>  <Sequence Accession>
P08684

>  <Reference>


>  <Pubmed ID>
34116381

>  <DOI>
10.1016/j.bmc.2021.116251

$$$$
2550263
Actelion Java MolfileCreator 1.0

 42 46  0  0  0  0  0  0  0  0999 V2000
    0.0000   -0.0000   -0.0000 S   0  0  0  0  0  0  0  0  0  0  0  0
   -1.5266   -0.0361   -0.0000 C   0  0  0  0  0  0  0  0  0  0  0  0
    0.7933   -1.2862   -0.0000 C   0  0  0  0  0  0  0  0  0  0  0  0
   -2.3920   -1.2862   -0.0000 N   0  0  0  0  0  0  0  0  0  0  0  0
   -2.4762    1.1780   -0.0000 N   0  0  0  0  0  0  0  0  0  0  0  0
    2.3079   -1.2261   -0.0000 C   0  0  0  0  0  0  0  0  0  0  0  0
   -3.8705   -0.8534   -0.0000 N   0  0  0  0  0  0  0  0  0  0  0  0
   -3.9186    0.6731   -0.0000 C   0  0  0  0  0  0  0  0  0  0  0  0
    3.0171    0.1322   -0.0000 O   0  0  0  0  0  0  0  0  0  0  0  0
    3.1012   -2.5122   -0.0000 O   0  0  0  0  0  0  0  0  0  0  0  0
   -5.0725   -1.7670   -0.0000 C   0  0  0  0  0  0  0  0  0  0  0  0
   -5.1927    1.5386   -0.0000 N   0  0  0  0  0  0  0  0  0  0  0  0
    4.6158   -2.4521   -0.0000 C   0  0  0  0  0  0  0  0  0  0  0  0
   -6.4789   -1.1900   -0.0000 O   0  0  0  0  0  0  0  0  0  0  0  0
   -4.8802   -3.2455   -0.0000 C   0  0  0  0  0  0  0  0  0  0  0  0
    5.2288   -3.8104   -0.0000 C   0  0  0  0  0  0  0  0  0  0  0  0
    5.1447   -1.0097   -0.0000 C   0  0  0  0  0  0  0  0  0  0  0  0
   -6.0822   -4.1470   -0.0000 C   0  0  0  0  0  0  0  0  0  0  0  0
   -3.5099   -3.7864   -0.0000 C   0  0  0  0  0  0  0  0  0  0  0  0
    4.5437   -4.9764   -0.0000 C   0  0  0  0  0  0  0  0  0  0  0  0
    6.6472   -4.3393   -0.0000 C   0  0  0  0  0  0  0  0  0  0  0  0
    3.8705   -3.7984   -0.0000 C   0  0  0  0  0  0  0  0  0  0  0  0
    6.5030   -0.3726   -0.0000 C   0  0  0  0  0  0  0  0  0  0  0  0
   -5.8899   -5.6255   -0.0000 C   0  0  0  0  0  0  0  0  0  0  0  0
   -3.3176   -5.2528   -0.0000 C   0  0  0  0  0  0  0  0  0  0  0  0
    5.5654   -4.6038   -0.0000 C   0  0  0  0  0  0  0  0  0  0  0  0
    3.1854   -4.9523   -0.0000 C   0  0  0  0  0  0  0  0  0  0  0  0
    6.8155   -5.8298   -0.0000 C   0  0  0  0  0  0  0  0  0  0  0  0
    8.0175   -3.6902   -0.0000 C   0  0  0  0  0  0  0  0  0  0  0  0
    5.7216    0.9616   -0.0000 C   0  0  0  0  0  0  0  0  0  0  0  0
    7.9213   -0.9015   -0.0000 C   0  0  0  0  0  0  0  0  0  0  0  0
    7.2482    0.9616   -0.0000 C   0  0  0  0  0  0  0  0  0  0  0  0
   -4.5076   -6.1784   -0.0000 C   0  0  0  0  0  0  0  0  0  0  0  0
    7.0559   -5.1326   -0.0000 C   0  0  0  0  0  0  0  0  0  0  0  0
    5.6856   -6.8395   -0.0000 O   0  0  0  0  0  0  0  0  0  0  0  0
    8.2940   -6.1063   -0.0000 C   0  0  0  0  0  0  0  0  0  0  0  0
    8.5464   -2.2478   -0.0000 C   0  0  0  0  0  0  0  0  0  0  0  0
    9.0392   -4.7961   -0.0000 C   0  0  0  0  0  0  0  0  0  0  0  0
    6.4789    2.2959   -0.0000 C   0  0  0  0  0  0  0  0  0  0  0  0
    8.9431    0.2164   -0.0000 O   0  0  0  0  0  0  0  0  0  0  0  0
   -4.3153   -7.6569   -0.0000 C   0  0  0  0  0  0  0  0  0  0  0  0
   10.0609   -2.1757   -0.0000 C   0  0  0  0  0  0  0  0  0  0  0  0
  1  2  1  0  0  0  0
  1  3  1  0  0  0  0
  2  4  2  0  0  0  0
  2  5  1  0  0  0  0
  3  6  1  0  0  0  0
  4  7  1  0  0  0  0
  5  8  2  0  0  0  0
  6  9  2  0  0  0  0
  6 10  1  0  0  0  0
  7 11  1  0  0  0  0
  8 12  1  0  0  0  0
 13 10  1  1  0  0  0
 11 14  2  0  0  0  0
 11 15  1  0  0  0  0
 13 16  1  0  0  0  0
 13 17  1  0  0  0  0
 15 18  2  0  0  0  0
 15 19  1  0  0  0  0
 16 20  1  0  0  0  0
 16 21  1  0  0  0  0
 16 22  1  1  0  0  0
 17 23  1  0  0  0  0
 18 24  1  0  0  0  0
 19 25  2  0  0  0  0
 20 26  1  0  0  0  0
 20 27  1  6  0  0  0
 21 28  1  6  0  0  0
 21 29  1  0  0  0  0
 23 30  1  0  0  0  0
 23 31  1  0  0  0  0
 23 32  1  1  0  0  0
 24 33  2  0  0  0  0
 26 34  1  0  0  0  0
 28 35  2  0  0  0  0
 28 36  1  0  0  0  0
 29 37  1  0  0  0  0
 29 38  1  1  0  0  0
 30 39  2  0  0  0  0
 31 40  1  6  0  0  0
 33 41  1  0  0  0  0
 37 42  1  1  0  0  0
  7  8  1  0  0  0  0
 25 33  1  0  0  0  0
 29 34  1  0  0  0  0
 31 37  1  0  0  0  0
 36 38  1  0  0  0  0
M  END
>  <MolRegNo>
2550263

>  <m>
=

>  <Value>
3950

>  <Unit>
nM

>  <Type>
IC50

>  <pValue>
5.4

>  <Ligand Efficiency>
0.18

>  <Binding Efficiency>
9.08

>  <Surface Efficiency>
3.93

>  <Assay Index>
1463805

>  <Assay Category>


>  <Assay Organism>
Homo sapiens

>  <Target ID>
17045

>  <Target Name>
Cytochrome P450 3A4

>  <Target Organism>
Homo sapiens

>  <Target Description>
Target is a single protein chain

>  <Sequence Accession>
P08684

>  <Reference>


>  <Pubmed ID>
33857737

>  <DOI>
10.1016/j.bmc.2021.116138

$$$$
696871
Actelion Java MolfileCreator 1.0

 34 36  0  0  0  0  0  0  0  0999 V2000
    0.0000   -0.0000   -0.0000 S   0  0  0  0  0  0  0  0  0  0  0  0
    1.0478    1.0717   -0.0000 C   0  0  0  0  0  0  0  0  0  0  0  0
   -1.4527    0.3929   -0.0000 C   0  0  0  0  0  0  0  0  0  0  0  0
    2.4767    0.7025   -0.0000 C   0  0  0  0  0  0  0  0  0  0  0  0
   -2.5243   -0.6549   -0.0000 C   0  0  0  0  0  0  0  0  0  0  0  0
    2.8458   -0.7263   -0.0000 O   0  0  0  0  0  0  0  0  0  0  0  0
    3.5245    1.7742   -0.0000 O   0  0  0  0  0  0  0  0  0  0  0  0
   -3.9770   -0.2620   -0.0000 N   0  0  0  0  0  0  0  0  0  0  0  0
    4.8939    1.2145   -0.0000 C   0  0  0  0  0  0  0  0  0  0  0  0
   -4.3700    1.1907   -0.0000 C   0  0  0  0  0  0  0  0  0  0  0  0
   -5.0487   -1.3098   -0.0000 C   0  0  0  0  0  0  0  0  0  0  0  0
    5.9417    2.2862   -0.0000 C   0  0  0  0  0  0  0  0  0  0  0  0
    4.8820   -0.2739   -0.0000 C   0  0  0  0  0  0  0  0  0  0  0  0
   -5.8226    1.5837   -0.0000 C   0  0  0  0  0  0  0  0  0  0  0  0
   -6.5014   -0.9169   -0.0000 C   0  0  0  0  0  0  0  0  0  0  0  0
    5.5488    3.7389   -0.0000 C   0  0  0  0  0  0  0  0  0  0  0  0
    7.4301    2.2981   -0.0000 C   0  0  0  0  0  0  0  0  0  0  0  0
    4.6319    3.0483   -0.0000 C   0  0  0  0  0  0  0  0  0  0  0  0
    5.9298   -1.3217   -0.0000 C   0  0  0  0  0  0  0  0  0  0  0  0
    6.8348    3.0006   -0.0000 C   0  0  0  0  0  0  0  0  0  0  0  0
    4.6319    4.9415   -0.0000 C   0  0  0  0  0  0  0  0  0  0  0  0
    8.0969    3.6436   -0.0000 C   0  0  0  0  0  0  0  0  0  0  0  0
    8.4780    1.2503   -0.0000 C   0  0  0  0  0  0  0  0  0  0  0  0
    4.6200   -2.0600   -0.0000 C   0  0  0  0  0  0  0  0  0  0  0  0
    7.4182   -1.3098   -0.0000 C   0  0  0  0  0  0  0  0  0  0  0  0
    6.2989   -2.7506   -0.0000 C   0  0  0  0  0  0  0  0  0  0  0  0
    8.3351    2.9530   -0.0000 C   0  0  0  0  0  0  0  0  0  0  0  0
    7.4063    4.9891   -0.0000 O   0  0  0  0  0  0  0  0  0  0  0  0
    9.5615    3.4174   -0.0000 C   0  0  0  0  0  0  0  0  0  0  0  0
    8.4661   -0.2381   -0.0000 C   0  0  0  0  0  0  0  0  0  0  0  0
    9.7997    1.9409   -0.0000 C   0  0  0  0  0  0  0  0  0  0  0  0
    4.6081   -3.5484   -0.0000 C   0  0  0  0  0  0  0  0  0  0  0  0
    7.9779   -2.6791   -0.0000 O   0  0  0  0  0  0  0  0  0  0  0  0
    9.8354   -0.7978   -0.0000 C   0  0  0  0  0  0  0  0  0  0  0  0
  1  2  1  0  0  0  0
  1  3  1  0  0  0  0
  2  4  1  0  0  0  0
  3  5  1  0  0  0  0
  4  6  2  0  0  0  0
  4  7  1  0  0  0  0
  5  8  1  0  0  0  0
  9  7  1  6  0  0  0
  8 10  1  0  0  0  0
  8 11  1  0  0  0  0
  9 12  1  0  0  0  0
  9 13  1  0  0  0  0
 10 14  1  0  0  0  0
 11 15  1  0  0  0  0
 12 16  1  0  0  0  0
 12 17  1  0  0  0  0
 12 18  1  6  0  0  0
 13 19  1  0  0  0  0
 16 20  1  0  0  0  0
 16 21  1  1  0  0  0
 17 22  1  1  0  0  0
 17 23  1  0  0  0  0
 19 24  1  0  0  0  0
 19 25  1  0  0  0  0
 19 26  1  6  0  0  0
 20 27  1  0  0  0  0
 22 28  2  0  0  0  0
 22 29  1  0  0  0  0
 23 30  1  0  0  0  0
 23 31  1  6  0  0  0
 24 32  2  0  0  0  0
 25 33  1  1  0  0  0
 30 34  1  6  0  0  0
 23 27  1  0  0  0  0
 25 30  1  0  0  0  0
 29 31  1  0  0  0  0
M  END
>  <MolRegNo>
696871

>  <m>
=

>  <Value>
1600

>  <Unit>
nM

>  <Type>
IC50

>  <pValue>
5.8

>  <Ligand Efficiency>
0.23

>  <Binding Efficiency>
11.74

>  <Surface Efficiency>
8.67

>  <Assay Index>
1463805

>  <Assay Category>


>  <Assay Organism>
Homo sapiens

>  <Target ID>
17045

>  <Target Name>
Cytochrome P450 3A4

>  <Target Organism>
Homo sapiens

>  <Target Description>
Target is a single protein chain

>  <Sequence Accession>
P08684

>  <Reference>


>  <Pubmed ID>
33857737

>  <DOI>
10.1016/j.bmc.2021.116138

$$$$
1376030
Actelion Java MolfileCreator 1.0

 33 36  0  0  1  0  0  0  0  0999 V2000
    0.0000   -0.0000   -0.0000 S   0  0  0  0  0  0  0  0  0  0  0  0
   -1.3517    0.0138   -0.0000 C   0  0  0  0  0  0  0  0  0  0  0  0
    1.0345    0.9242   -0.0000 C   0  0  0  0  0  0  0  0  0  0  0  0
   -2.5518    0.8414   -0.0000 N   0  0  0  0  0  0  0  0  0  0  0  0
   -1.8069   -1.3793   -0.0000 N   0  0  0  0  0  0  0  0  0  0  0  0
    2.0828    0.1931   -0.0000 C   0  0  0  0  0  0  0  0  0  0  0  0
   -3.7104    0.0414   -0.0000 N   0  0  0  0  0  0  0  0  0  0  0  0
   -3.2690   -1.3655   -0.0000 C   0  0  0  0  0  0  0  0  0  0  0  0
    2.0690   -0.9242   -0.0000 O   0  0  0  0  0  0  0  0  0  0  0  0
    3.3932    0.9793   -0.0000 O   0  0  0  0  0  0  0  0  0  0  0  0
   -3.8759   -2.3035   -0.0000 N   0  0  0  0  0  0  0  0  0  0  0  0
    4.8690   -0.0690   -0.0000 C   0  0  0  0  0  0  0  0  0  0  0  0
    6.4415   -0.0552   -0.0000 C   0  0  0  0  0  0  0  0  0  0  0  0
    3.7794   -1.2552   -0.0000 C   0  0  0  0  0  0  0  0  0  0  0  0
    5.0070   -1.1035   -0.0000 C   0  0  0  0  0  0  0  0  0  0  0  0
    7.5449   -1.2414   -0.0000 C   0  0  0  0  0  0  0  0  0  0  0  0
    6.8553    1.2828   -0.0000 C   0  0  0  0  0  0  0  0  0  0  0  0
    3.7656   -2.8276   -0.0000 C   0  0  0  0  0  0  0  0  0  0  0  0
    5.2001   -2.4690   -0.0000 C   0  0  0  0  0  0  0  0  0  0  0  0
    6.4829   -1.3517   -0.0000 C   0  0  0  0  0  0  0  0  0  0  0  0
    9.0208   -0.6897   -0.0000 C   0  0  0  0  0  0  0  0  0  0  0  0
    7.5312   -2.8138   -0.0000 C   0  0  0  0  0  0  0  0  0  0  0  0
    4.9104   -4.0001   -0.0000 C   0  0  0  0  0  0  0  0  0  0  0  0
    2.1380   -2.2345   -0.0000 C   0  0  0  0  0  0  0  0  0  0  0  0
    2.3449   -4.2070   -0.0000 C   0  0  0  0  0  0  0  0  0  0  0  0
    6.4553   -2.2483   -0.0000 C   0  0  0  0  0  0  0  0  0  0  0  0
    9.2139    0.4276   -0.0000 O   0  0  0  0  0  0  0  0  0  0  0  0
   10.0277   -1.9862   -0.0000 C   0  0  0  0  0  0  0  0  0  0  0  0
    6.5242   -3.9863   -0.0000 C   0  0  0  0  0  0  0  0  0  0  0  0
    9.1036   -3.2690   -0.0000 C   0  0  0  0  0  0  0  0  0  0  0  0
    3.7380   -5.2828   -0.0000 O   0  0  0  0  0  0  0  0  0  0  0  0
    1.2690   -2.8000   -0.0000 C   0  0  0  0  0  0  0  0  0  0  0  0
    8.2622   -4.4415   -0.0000 C   0  0  0  0  0  0  0  0  0  0  0  0
  1  2  1  0  0  0  0
  1  3  1  0  0  0  0
  2  4  2  0  0  0  0
  2  5  1  0  0  0  0
  3  6  1  0  0  0  0
  4  7  1  0  0  0  0
  5  8  1  0  0  0  0
  6  9  2  0  0  0  0
  6 10  1  0  0  0  0
  8 11  1  0  0  0  0
 12 10  1  1  0  0  0
 12 13  1  0  0  0  0
 12 14  1  0  0  0  0
 13 15  1  0  0  0  0
 13 16  1  0  0  0  0
 13 17  1  6  0  0  0
 14 18  1  0  0  0  0
 15 19  1  0  0  0  0
 15 20  1  1  0  0  0
 16 21  1  6  0  0  0
 16 22  1  0  0  0  0
 18 23  1  0  0  0  0
 18 24  1  0  0  0  0
 18 25  1  1  0  0  0
 19 26  1  0  0  0  0
 21 27  2  0  0  0  0
 21 28  1  0  0  0  0
 22 29  1  0  0  0  0
 22 30  1  6  0  0  0
 23 31  1  6  0  0  0
 24 32  1  0  0  0  0
 29 33  1  1  0  0  0
  7  8  2  0  0  0  0
 22 26  1  0  0  0  0
 23 29  1  0  0  0  0
 28 30  1  0  0  0  0
M  END
>  <MolRegNo>
1376030

>  <m>
=

>  <Value>
240

>  <Unit>
nM

>  <Type>
IC50

>  <pValue>
6.62

>  <Ligand Efficiency>
0.27

>  <Binding Efficiency>
13.83

>  <Surface Efficiency>
5.05

>  <Assay Index>
1463806

>  <Assay Category>


>  <Assay Organism>
Homo sapiens

>  <Target ID>
17045

>  <Target Name>
Cytochrome P450 3A4

>  <Target Organism>
Homo sapiens

>  <Target Description>
Target is a single protein chain

>  <Sequence Accession>
P08684

>  <Reference>


>  <Pubmed ID>
33857737

>  <DOI>
10.1016/j.bmc.2021.116138

$$$$
2565570
Actelion Java MolfileCreator 1.0

 22 23  0  0  0  0  0  0  0  0999 V2000
    0.0000   -0.0000   -0.0000 O   0  0  0  0  0  0  0  0  0  0  0  0
   -0.0119    1.5080   -0.0000 C   0  0  0  0  0  0  0  0  0  0  0  0
    1.2705    2.2680   -0.0000 N   0  0  0  0  0  0  0  0  0  0  0  0
   -1.3180    2.2680   -0.0000 C   0  0  0  0  0  0  0  0  0  0  0  0
    2.5530    1.5318   -0.0000 C   0  0  0  0  0  0  0  0  0  0  0  0
    1.2587    3.7760   -0.0000 C   0  0  0  0  0  0  0  0  0  0  0  0
   -2.6361    1.5318   -0.0000 C   0  0  0  0  0  0  0  0  0  0  0  0
   -1.3299    3.7879   -0.0000 C   0  0  0  0  0  0  0  0  0  0  0  0
    3.8235    2.3036   -0.0000 C   0  0  0  0  0  0  0  0  0  0  0  0
    2.5292    0.0475   -0.0000 C   0  0  0  0  0  0  0  0  0  0  0  0
    2.5411    4.5359   -0.0000 C   0  0  0  0  0  0  0  0  0  0  0  0
   -2.6479    0.0475   -0.0000 O   0  0  0  0  0  0  0  0  0  0  0  0
   -3.9422    2.2917   -0.0000 C   0  0  0  0  0  0  0  0  0  0  0  0
   -2.6361    4.5478   -0.0000 C   0  0  0  0  0  0  0  0  0  0  0  0
    5.1059    1.5793   -0.0000 N   0  0  0  0  0  0  0  0  0  0  0  0
    3.8116   -0.6887   -0.0000 C   0  0  0  0  0  0  0  0  0  0  0  0
   -3.9541    3.8116   -0.0000 C   0  0  0  0  0  0  0  0  0  0  0  0
   -2.6479    6.0558   -0.0000 C   0  0  0  0  0  0  0  0  0  0  0  0
    5.1059    0.0831   -0.0000 C   0  0  0  0  0  0  0  0  0  0  0  0
   -5.2603    4.5716   -0.0000 O   0  0  0  0  0  0  0  0  0  0  0  0
   -1.3655    6.8158   -0.0000 C   0  0  0  0  0  0  0  0  0  0  0  0
   -3.9541    6.8158   -0.0000 C   0  0  0  0  0  0  0  0  0  0  0  0
  1  2  2  0  0  0  0
  2  3  1  0  0  0  0
  2  4  1  0  0  0  0
  3  5  1  0  0  0  0
  3  6  1  0  0  0  0
  4  7  2  0  0  0  0
  4  8  1  0  0  0  0
  5  9  2  0  0  0  0
  5 10  1  0  0  0  0
  6 11  1  0  0  0  0
  7 12  1  0  0  0  0
  7 13  1  0  0  0  0
  8 14  2  0  0  0  0
  9 15  1  0  0  0  0
 10 16  2  0  0  0  0
 13 17  2  0  0  0  0
 14 18  1  0  0  0  0
 15 19  2  0  0  0  0
 17 20  1  0  0  0  0
 18 21  1  0  0  0  0
 18 22  1  0  0  0  0
 14 17  1  0  0  0  0
 16 19  1  0  0  0  0
M  END
>  <MolRegNo>
2565570

>  <m>
=

>  <Value>
3230

>  <Unit>
nM

>  <Type>
IC50

>  <pValue>
5.49

>  <Ligand Efficiency>
0

>  <Binding Efficiency>
0

>  <Surface Efficiency>
0

>  <Assay Index>
1464070

>  <Assay Category>


>  <Assay Organism>
Homo sapiens

>  <Target ID>
17045

>  <Target Name>
Cytochrome P450 3A4

>  <Target Organism>
Homo sapiens

>  <Target Description>
Target is a single protein chain

>  <Sequence Accession>
P08684

>  <Reference>


>  <Pubmed ID>
33934008

>  <DOI>
10.1016/j.ejmech.2021.113428

$$$$
2543872
Actelion Java MolfileCreator 1.0

 38 43  0  0  0  0  0  0  0  0999 V2000
    0.0000   -0.0000   -0.0000 S   0  0  0  0  0  0  0  0  0  0  0  0
   -1.4794    0.0284   -0.0000 O   0  0  0  0  0  0  0  0  0  0  0  0
   -0.7397    1.2802   -0.0000 O   0  0  0  0  0  0  0  0  0  0  0  0
    1.2233    0.7681   -0.0000 N   0  0  0  0  0  0  0  0  0  0  0  0
   -0.0284   -1.4225   -0.0000 C   0  0  0  0  0  0  0  0  0  0  0  0
    1.1949    2.2475   -0.0000 C   0  0  0  0  0  0  0  0  0  0  0  0
    1.1949   -2.1052   -0.0000 C   0  0  0  0  0  0  0  0  0  0  0  0
   -1.3087   -2.1052   -0.0000 C   0  0  0  0  0  0  0  0  0  0  0  0
   -0.1138    2.9872   -0.0000 C   0  0  0  0  0  0  0  0  0  0  0  0
    2.4182    2.9872   -0.0000 C   0  0  0  0  0  0  0  0  0  0  0  0
    1.1664   -3.5277   -0.0000 C   0  0  0  0  0  0  0  0  0  0  0  0
   -1.3371   -3.5277   -0.0000 C   0  0  0  0  0  0  0  0  0  0  0  0
   -1.3940    2.3044   -0.0000 O   0  0  0  0  0  0  0  0  0  0  0  0
   -0.1422    4.4665   -0.0000 N   0  0  0  0  0  0  0  0  0  0  0  0
    2.3897    4.4665   -0.0000 C   0  0  0  0  0  0  0  0  0  0  0  0
    2.4182   -4.2105   -0.0000 C   0  0  0  0  0  0  0  0  0  0  0  0
   -0.1138   -4.2389   -0.0000 C   0  0  0  0  0  0  0  0  0  0  0  0
   -2.6742    3.0441   -0.0000 C   0  0  0  0  0  0  0  0  0  0  0  0
    1.1095    5.2062   -0.0000 C   0  0  0  0  0  0  0  0  0  0  0  0
    3.6131    5.2062   -0.0000 C   0  0  0  0  0  0  0  0  0  0  0  0
    2.3897   -5.6330   -0.0000 O   0  0  0  0  0  0  0  0  0  0  0  0
    3.6415   -3.4424   -0.0000 N   0  0  0  0  0  0  0  0  0  0  0  0
    4.8364    4.5234   -0.0000 C   0  0  0  0  0  0  0  0  0  0  0  0
    3.5846    6.6856   -0.0000 C   0  0  0  0  0  0  0  0  0  0  0  0
    4.8364    0.1991   -0.0000 C   0  0  0  0  0  0  0  0  0  0  0  0
    6.0597    5.2916   -0.0000 C   0  0  0  0  0  0  0  0  0  0  0  0
    4.8079    7.4253   -0.0000 C   0  0  0  0  0  0  0  0  0  0  0  0
    6.0597    0.9673   -0.0000 C   0  0  0  0  0  0  0  0  0  0  0  0
    6.0313    6.7709   -0.0000 C   0  0  0  0  0  0  0  0  0  0  0  0
    7.2830    4.6088   -0.0000 C   0  0  0  0  0  0  0  0  0  0  0  0
    7.2830    0.2560   -0.0000 C   0  0  0  0  0  0  0  0  0  0  0  0
    6.0313    2.4466   -0.0000 C   0  0  0  0  0  0  0  0  0  0  0  0
    7.2546    7.5391   -0.0000 N   0  0  0  0  0  0  0  0  0  0  0  0
    7.2546    3.1863   -0.0000 C   0  0  0  0  0  0  0  0  0  0  0  0
    8.5063    5.3769   -0.0000 C   0  0  0  0  0  0  0  0  0  0  0  0
    8.5063    1.0242   -0.0000 N   0  0  0  0  0  0  0  0  0  0  0  0
    8.4779    6.8563   -0.0000 C   0  0  0  0  0  0  0  0  0  0  0  0
    8.4779    2.5035   -0.0000 C   0  0  0  0  0  0  0  0  0  0  0  0
  1  2  2  0  0  0  0
  1  3  2  0  0  0  0
  1  4  1  0  0  0  0
  1  5  1  0  0  0  0
  4  6  1  0  0  0  0
  5  7  2  0  0  0  0
  5  8  1  0  0  0  0
  6  9  2  0  0  0  0
  6 10  1  0  0  0  0
  7 11  1  0  0  0  0
  8 12  2  0  0  0  0
  9 13  1  0  0  0  0
  9 14  1  0  0  0  0
 10 15  2  0  0  0  0
 11 16  1  0  0  0  0
 11 17  2  0  0  0  0
 13 18  1  0  0  0  0
 14 19  2  0  0  0  0
 15 20  1  0  0  0  0
 16 21  2  0  0  0  0
 16 22  1  0  0  0  0
 20 23  2  0  0  0  0
 20 24  1  0  0  0  0
 22 25  1  0  0  0  0
 23 26  1  0  0  0  0
 24 27  2  0  0  0  0
 25 28  1  0  0  0  0
 26 29  1  0  0  0  0
 26 30  2  0  0  0  0
 28 31  2  0  0  0  0
 28 32  1  0  0  0  0
 29 33  2  0  0  0  0
 30 34  1  0  0  0  0
 30 35  1  0  0  0  0
 31 36  1  0  0  0  0
 33 37  1  0  0  0  0
 34 38  1  0  0  0  0
 12 17  1  0  0  0  0
 15 19  1  0  0  0  0
 27 29  1  0  0  0  0
 32 34  2  0  0  0  0
 35 37  2  0  0  0  0
 36 38  2  0  0  0  0
M  END
>  <MolRegNo>
2543872

>  <m>
=

>  <Value>
19600

>  <Unit>
nM

>  <Type>
IC50

>  <pValue>
4.71

>  <Ligand Efficiency>
0

>  <Binding Efficiency>
0

>  <Surface Efficiency>
0

>  <Assay Index>
1465328

>  <Assay Category>


>  <Assay Organism>
Homo sapiens

>  <Target ID>
17045

>  <Target Name>
Cytochrome P450 3A4

>  <Target Organism>
Homo sapiens

>  <Target Description>
Target is a single protein chain

>  <Sequence Accession>
P08684

>  <Reference>


>  <Pubmed ID>
33360802

>  <DOI>
10.1016/j.ejmech.2020.113109

$$$$
2569677
Actelion Java MolfileCreator 1.0

 40 45  0  0  0  0  0  0  0  0999 V2000
    0.0000   -0.0000   -0.0000 S   0  0  0  0  0  0  0  0  0  0  0  0
   -1.4780    0.0284   -0.0000 O   0  0  0  0  0  0  0  0  0  0  0  0
   -0.7390    1.2790   -0.0000 O   0  0  0  0  0  0  0  0  0  0  0  0
    1.2222    0.7674   -0.0000 N   0  0  0  0  0  0  0  0  0  0  0  0
   -0.0284   -1.4211   -0.0000 C   0  0  0  0  0  0  0  0  0  0  0  0
    1.1937    2.2454   -0.0000 C   0  0  0  0  0  0  0  0  0  0  0  0
   -1.3074   -2.1033   -0.0000 C   0  0  0  0  0  0  0  0  0  0  0  0
    1.1937   -2.1033   -0.0000 C   0  0  0  0  0  0  0  0  0  0  0  0
   -0.1137    2.9844   -0.0000 C   0  0  0  0  0  0  0  0  0  0  0  0
    2.4159    2.9844   -0.0000 C   0  0  0  0  0  0  0  0  0  0  0  0
   -2.6433   -1.3359   -0.0000 F   0  0  0  0  0  0  0  0  0  0  0  0
   -1.3359   -3.5244   -0.0000 C   0  0  0  0  0  0  0  0  0  0  0  0
    1.1653   -3.5244   -0.0000 C   0  0  0  0  0  0  0  0  0  0  0  0
   -1.3927    2.3022   -0.0000 O   0  0  0  0  0  0  0  0  0  0  0  0
   -0.1421    4.4623   -0.0000 N   0  0  0  0  0  0  0  0  0  0  0  0
    2.3875    4.4623   -0.0000 C   0  0  0  0  0  0  0  0  0  0  0  0
   -0.1137   -4.2349   -0.0000 C   0  0  0  0  0  0  0  0  0  0  0  0
    2.4159   -4.2065   -0.0000 C   0  0  0  0  0  0  0  0  0  0  0  0
   -2.6717    3.0412   -0.0000 C   0  0  0  0  0  0  0  0  0  0  0  0
    1.1085    5.2013   -0.0000 C   0  0  0  0  0  0  0  0  0  0  0  0
    3.6097    5.2013   -0.0000 C   0  0  0  0  0  0  0  0  0  0  0  0
   -0.1421   -5.7129   -0.0000 F   0  0  0  0  0  0  0  0  0  0  0  0
    2.3875   -5.6276   -0.0000 O   0  0  0  0  0  0  0  0  0  0  0  0
    3.6381   -3.4391   -0.0000 N   0  0  0  0  0  0  0  0  0  0  0  0
    4.8318    4.5192   -0.0000 N   0  0  0  0  0  0  0  0  0  0  0  0
    3.5812    6.7077   -0.0000 C   0  0  0  0  0  0  0  0  0  0  0  0
    4.8318    0.1990   -0.0000 C   0  0  0  0  0  0  0  0  0  0  0  0
    6.0540    5.2866   -0.0000 C   0  0  0  0  0  0  0  0  0  0  0  0
    4.8034    7.4467   -0.0000 C   0  0  0  0  0  0  0  0  0  0  0  0
    6.0540    0.9664   -0.0000 C   0  0  0  0  0  0  0  0  0  0  0  0
    6.0256    6.7645   -0.0000 C   0  0  0  0  0  0  0  0  0  0  0  0
    7.2762    4.6044   -0.0000 C   0  0  0  0  0  0  0  0  0  0  0  0
    7.2762    0.2558   -0.0000 C   0  0  0  0  0  0  0  0  0  0  0  0
    6.0256    2.4443   -0.0000 C   0  0  0  0  0  0  0  0  0  0  0  0
    7.2477    7.5320   -0.0000 N   0  0  0  0  0  0  0  0  0  0  0  0
    7.2477    3.1833   -0.0000 C   0  0  0  0  0  0  0  0  0  0  0  0
    8.4983    5.3718   -0.0000 C   0  0  0  0  0  0  0  0  0  0  0  0
    8.4983    1.0232   -0.0000 N   0  0  0  0  0  0  0  0  0  0  0  0
    8.4699    6.8498   -0.0000 C   0  0  0  0  0  0  0  0  0  0  0  0
    8.4699    2.5012   -0.0000 C   0  0  0  0  0  0  0  0  0  0  0  0
  1  2  2  0  0  0  0
  1  3  2  0  0  0  0
  1  4  1  0  0  0  0
  1  5  1  0  0  0  0
  4  6  1  0  0  0  0
  5  7  2  0  0  0  0
  5  8  1  0  0  0  0
  6  9  2  0  0  0  0
  6 10  1  0  0  0  0
  7 11  1  0  0  0  0
  7 12  1  0  0  0  0
  8 13  2  0  0  0  0
  9 14  1  0  0  0  0
  9 15  1  0  0  0  0
 10 16  2  0  0  0  0
 12 17  2  0  0  0  0
 13 18  1  0  0  0  0
 14 19  1  0  0  0  0
 15 20  2  0  0  0  0
 16 21  1  0  0  0  0
 17 22  1  0  0  0  0
 18 23  2  0  0  0  0
 18 24  1  0  0  0  0
 21 25  2  0  0  0  0
 21 26  1  0  0  0  0
 24 27  1  0  0  0  0
 25 28  1  0  0  0  0
 26 29  2  0  0  0  0
 27 30  1  0  0  0  0
 28 31  1  0  0  0  0
 28 32  2  0  0  0  0
 30 33  2  0  0  0  0
 30 34  1  0  0  0  0
 31 35  2  0  0  0  0
 32 36  1  0  0  0  0
 32 37  1  0  0  0  0
 33 38  1  0  0  0  0
 35 39  1  0  0  0  0
 36 40  1  0  0  0  0
 13 17  1  0  0  0  0
 16 20  1  0  0  0  0
 29 31  1  0  0  0  0
 34 36  2  0  0  0  0
 37 39  2  0  0  0  0
 38 40  2  0  0  0  0
M  END
>  <MolRegNo>
2569677

>  <m>
=

>  <Value>
6500

>  <Unit>
nM

>  <Type>
IC50

>  <pValue>
5.19

>  <Ligand Efficiency>
0

>  <Binding Efficiency>
0

>  <Surface Efficiency>
0

>  <Assay Index>
1465328

>  <Assay Category>


>  <Assay Organism>
Homo sapiens

>  <Target ID>
17045

>  <Target Name>
Cytochrome P450 3A4

>  <Target Organism>
Homo sapiens

>  <Target Description>
Target is a single protein chain

>  <Sequence Accession>
P08684

>  <Reference>


>  <Pubmed ID>
33360802

>  <DOI>
10.1016/j.ejmech.2020.113109

$$$$
2509109
Actelion Java MolfileCreator 1.0

 40 43  0  0  0  0  0  0  0  0999 V2000
    0.0000   -0.0000   -0.0000 S   0  0  0  0  0  0  0  0  0  0  0  0
   -1.4582    0.4044   -0.0000 O   0  0  0  0  0  0  0  0  0  0  0  0
   -1.0783   -1.0416   -0.0000 O   0  0  0  0  0  0  0  0  0  0  0  0
   -0.0245   -1.4827   -0.0000 C   0  0  0  0  0  0  0  0  0  0  0  0
    1.1151    1.0293   -0.0000 C   0  0  0  0  0  0  0  0  0  0  0  0
   -1.3357   -2.2057   -0.0000 C   0  0  0  0  0  0  0  0  0  0  0  0
    1.2376   -2.2180   -0.0000 C   0  0  0  0  0  0  0  0  0  0  0  0
   -0.1961    1.7768   -0.0000 C   0  0  0  0  0  0  0  0  0  0  0  0
    2.4018    1.7891   -0.0000 C   0  0  0  0  0  0  0  0  0  0  0  0
    1.4215   -0.4411   -0.0000 C   0  0  0  0  0  0  0  0  0  0  0  0
   -1.3602   -3.6762   -0.0000 C   0  0  0  0  0  0  0  0  0  0  0  0
    1.2254   -3.6884   -0.0000 C   0  0  0  0  0  0  0  0  0  0  0  0
   -0.2206    3.2963   -0.0000 C   0  0  0  0  0  0  0  0  0  0  0  0
   -1.5072    1.0416   -0.0000 C   0  0  0  0  0  0  0  0  0  0  0  0
    3.5169    0.7843   -0.0000 C   0  0  0  0  0  0  0  0  0  0  0  0
    2.3895    3.2963   -0.0000 C   0  0  0  0  0  0  0  0  0  0  0  0
    2.9042   -0.5882   -0.0000 C   0  0  0  0  0  0  0  0  0  0  0  0
   -0.0858   -4.4237   -0.0000 C   0  0  0  0  0  0  0  0  0  0  0  0
   -1.5195    4.0438   -0.0000 C   0  0  0  0  0  0  0  0  0  0  0  0
    1.0538    4.0683   -0.0000 C   0  0  0  0  0  0  0  0  0  0  0  0
   -2.8061    1.8013   -0.0000 C   0  0  0  0  0  0  0  0  0  0  0  0
    4.9628    1.1029   -0.0000 N   0  0  0  0  0  0  0  0  0  0  0  0
   -0.1103   -5.9064   -0.0000 F   0  0  0  0  0  0  0  0  0  0  0  0
   -2.8184    3.3086   -0.0000 C   0  0  0  0  0  0  0  0  0  0  0  0
    5.9432    0.0123   -0.0000 C   0  0  0  0  0  0  0  0  0  0  0  0
   -4.1173    4.0683   -0.0000 C   0  0  0  0  0  0  0  0  0  0  0  0
    5.4652   -1.3969   -0.0000 O   0  0  0  0  0  0  0  0  0  0  0  0
    7.3891    0.3309   -0.0000 C   0  0  0  0  0  0  0  0  0  0  0  0
   -5.2569    4.9261   -0.0000 F   0  0  0  0  0  0  0  0  0  0  0  0
   -4.0193    5.6000   -0.0000 C   0  0  0  0  0  0  0  0  0  0  0  0
   -5.0241    2.8307   -0.0000 C   0  0  0  0  0  0  0  0  0  0  0  0
    7.8303    1.7646   -0.0000 O   0  0  0  0  0  0  0  0  0  0  0  0
    7.6955   -1.1029   -0.0000 C   0  0  0  0  0  0  0  0  0  0  0  0
    8.7983   -0.1103   -0.0000 C   0  0  0  0  0  0  0  0  0  0  0  0
   -3.7620    7.0215   -0.0000 F   0  0  0  0  0  0  0  0  0  0  0  0
   -2.5978    6.2005   -0.0000 F   0  0  0  0  0  0  0  0  0  0  0  0
   -5.5878    5.8696   -0.0000 F   0  0  0  0  0  0  0  0  0  0  0  0
   -6.5926    3.1002   -0.0000 F   0  0  0  0  0  0  0  0  0  0  0  0
   -3.8355    1.8013   -0.0000 F   0  0  0  0  0  0  0  0  0  0  0  0
   -6.0167    1.7646   -0.0000 F   0  0  0  0  0  0  0  0  0  0  0  0
  1  2  2  0  0  0  0
  1  3  2  0  0  0  0
  1  4  1  0  0  0  0
  5  1  1  6  0  0  0
  4  6  2  0  0  0  0
  4  7  1  0  0  0  0
  5  8  1  0  0  0  0
  5  9  1  0  0  0  0
  5 10  1  0  0  0  0
  6 11  1  0  0  0  0
  7 12  2  0  0  0  0
  8 13  2  0  0  0  0
  8 14  1  0  0  0  0
  9 15  1  0  0  0  0
  9 16  1  1  0  0  0
 10 17  1  0  0  0  0
 11 18  2  0  0  0  0
 13 19  1  0  0  0  0
 13 20  1  0  0  0  0
 14 21  2  0  0  0  0
 15 22  1  6  0  0  0
 18 23  1  0  0  0  0
 19 24  2  0  0  0  0
 22 25  1  0  0  0  0
 24 26  1  0  0  0  0
 25 27  2  0  0  0  0
 25 28  1  0  0  0  0
 26 29  1  0  0  0  0
 26 30  1  0  0  0  0
 26 31  1  0  0  0  0
 28 32  1  0  0  0  0
 28 33  1  0  0  0  0
 28 34  1  0  0  0  0
 30 35  1  0  0  0  0
 30 36  1  0  0  0  0
 30 37  1  0  0  0  0
 31 38  1  0  0  0  0
 31 39  1  0  0  0  0
 31 40  1  0  0  0  0
 12 18  1  0  0  0  0
 15 17  1  0  0  0  0
 16 20  1  0  0  0  0
 21 24  1  0  0  0  0
M  END
>  <MolRegNo>
2509109

>  <m>
=

>  <Value>
11000

>  <Unit>
nM

>  <Type>
IC50

>  <pValue>
4.96

>  <Ligand Efficiency>
0

>  <Binding Efficiency>
0

>  <Surface Efficiency>
0

>  <Assay Index>
1465889

>  <Assay Category>


>  <Assay Organism>
Homo sapiens

>  <Target ID>
17045

>  <Target Name>
Cytochrome P450 3A4

>  <Target Organism>
Homo sapiens

>  <Target Description>
Target is a single protein chain

>  <Sequence Accession>
P08684

>  <Reference>
J Med Chem 64 (5.0), 2714-2724 (2021)

>  <Pubmed ID>
33591748

>  <DOI>
10.1021/acs.jmedchem.0c01992

$$$$
2565097
Actelion Java MolfileCreator 1.0

 44 48  0  0  0  0  0  0  0  0999 V2000
    0.0000   -0.0000   -0.0000 S   0  0  0  0  0  0  0  0  0  0  0  0
    1.2797   -0.7347   -0.0000 O   0  0  0  0  0  0  0  0  0  0  0  0
   -0.0118   -1.4812   -0.0000 O   0  0  0  0  0  0  0  0  0  0  0  0
   -1.5049    0.0237   -0.0000 C   0  0  0  0  0  0  0  0  0  0  0  0
    0.7465    1.3034   -0.0000 C   0  0  0  0  0  0  0  0  0  0  0  0
   -2.2514    1.3390   -0.0000 C   0  0  0  0  0  0  0  0  0  0  0  0
   -2.2632   -1.2560   -0.0000 C   0  0  0  0  0  0  0  0  0  0  0  0
   -0.5569    2.0618   -0.0000 C   0  0  0  0  0  0  0  0  0  0  0  0
    2.0381    2.0618   -0.0000 C   0  0  0  0  0  0  0  0  0  0  0  0
    1.0427   -0.1540   -0.0000 C   0  0  0  0  0  0  0  0  0  0  0  0
   -3.7563    1.3627   -0.0000 C   0  0  0  0  0  0  0  0  0  0  0  0
   -3.7681   -1.2442   -0.0000 C   0  0  0  0  0  0  0  0  0  0  0  0
   -0.5688    3.5785   -0.0000 C   0  0  0  0  0  0  0  0  0  0  0  0
   -1.8604    1.3153   -0.0000 C   0  0  0  0  0  0  0  0  0  0  0  0
    3.1401    1.0664   -0.0000 N   0  0  0  0  0  0  0  0  0  0  0  0
    2.0262    3.5785   -0.0000 C   0  0  0  0  0  0  0  0  0  0  0  0
    2.5239   -0.3081   -0.0000 C   0  0  0  0  0  0  0  0  0  0  0  0
   -4.5265    0.0829   -0.0000 C   0  0  0  0  0  0  0  0  0  0  0  0
   -1.8841    4.3369   -0.0000 C   0  0  0  0  0  0  0  0  0  0  0  0
    0.7110    4.3487   -0.0000 C   0  0  0  0  0  0  0  0  0  0  0  0
   -3.1756    2.0736   -0.0000 C   0  0  0  0  0  0  0  0  0  0  0  0
    4.5976    1.3864   -0.0000 N   0  0  0  0  0  0  0  0  0  0  0  0
   -6.0313    0.1066   -0.0000 F   0  0  0  0  0  0  0  0  0  0  0  0
   -3.1875    3.6022   -0.0000 C   0  0  0  0  0  0  0  0  0  0  0  0
    5.5811    0.2844   -0.0000 C   0  0  0  0  0  0  0  0  0  0  0  0
   -4.5028    4.3606   -0.0000 C   0  0  0  0  0  0  0  0  0  0  0  0
    7.0267    0.6043   -0.0000 C   0  0  0  0  0  0  0  0  0  0  0  0
    5.0952   -1.1257   -0.0000 C   0  0  0  0  0  0  0  0  0  0  0  0
   -3.7681    5.6759   -0.0000 F   0  0  0  0  0  0  0  0  0  0  0  0
   -5.2730    5.6759   -0.0000 C   0  0  0  0  0  0  0  0  0  0  0  0
   -5.8181    3.6259   -0.0000 C   0  0  0  0  0  0  0  0  0  0  0  0
    8.0102   -0.5095   -0.0000 C   0  0  0  0  0  0  0  0  0  0  0  0
    7.4888    2.0381   -0.0000 C   0  0  0  0  0  0  0  0  0  0  0  0
    6.0787   -2.2277   -0.0000 C   0  0  0  0  0  0  0  0  0  0  0  0
   -5.6759    7.1452   -0.0000 F   0  0  0  0  0  0  0  0  0  0  0  0
   -4.2184    6.7542   -0.0000 F   0  0  0  0  0  0  0  0  0  0  0  0
   -6.7779    5.6877   -0.0000 F   0  0  0  0  0  0  0  0  0  0  0  0
   -5.0834    2.3462   -0.0000 F   0  0  0  0  0  0  0  0  0  0  0  0
   -6.5764    2.3462   -0.0000 F   0  0  0  0  0  0  0  0  0  0  0  0
   -7.1215    4.3843   -0.0000 F   0  0  0  0  0  0  0  0  0  0  0  0
    7.5244   -1.9196   -0.0000 C   0  0  0  0  0  0  0  0  0  0  0  0
    8.5079   -3.0334   -0.0000 C   0  0  0  0  0  0  0  0  0  0  0  0
    8.0220   -4.4435   -0.0000 O   0  0  0  0  0  0  0  0  0  0  0  0
    9.9653   -2.7254   -0.0000 O   0  0  0  0  0  0  0  0  0  0  0  0
  1  2  2  0  0  0  0
  1  3  2  0  0  0  0
  1  4  1  0  0  0  0
  5  1  1  6  0  0  0
  4  6  2  0  0  0  0
  4  7  1  0  0  0  0
  5  8  1  0  0  0  0
  5  9  1  0  0  0  0
  5 10  1  0  0  0  0
  6 11  1  0  0  0  0
  7 12  2  0  0  0  0
  8 13  2  0  0  0  0
  8 14  1  0  0  0  0
  9 15  1  1  0  0  0
  9 16  1  0  0  0  0
 10 17  1  0  0  0  0
 11 18  2  0  0  0  0
 13 19  1  0  0  0  0
 13 20  1  0  0  0  0
 14 21  2  0  0  0  0
 15 22  1  0  0  0  0
 18 23  1  0  0  0  0
 19 24  2  0  0  0  0
 25 22  1  1  0  0  0
 24 26  1  0  0  0  0
 25 27  1  0  0  0  0
 25 28  1  0  0  0  0
 26 29  1  0  0  0  0
 26 30  1  0  0  0  0
 26 31  1  0  0  0  0
 27 32  1  0  0  0  0
 27 33  1  1  0  0  0
 28 34  1  0  0  0  0
 30 35  1  0  0  0  0
 30 36  1  0  0  0  0
 30 37  1  0  0  0  0
 31 38  1  0  0  0  0
 31 39  1  0  0  0  0
 31 40  1  0  0  0  0
 32 41  1  0  0  0  0
 41 42  1  6  0  0  0
 42 43  2  0  0  0  0
 42 44  1  0  0  0  0
 12 18  1  0  0  0  0
 15 17  1  0  0  0  0
 16 20  1  0  0  0  0
 21 24  1  0  0  0  0
 34 41  1  0  0  0  0
M  END
>  <MolRegNo>
2565097

>  <m>
=

>  <Value>
20000

>  <Unit>
nM

>  <Type>
IC50

>  <pValue>
4.7

>  <Ligand Efficiency>
0

>  <Binding Efficiency>
0

>  <Surface Efficiency>
0

>  <Assay Index>
1465889

>  <Assay Category>


>  <Assay Organism>
Homo sapiens

>  <Target ID>
17045

>  <Target Name>
Cytochrome P450 3A4

>  <Target Organism>
Homo sapiens

>  <Target Description>
Target is a single protein chain

>  <Sequence Accession>
P08684

>  <Reference>
J Med Chem 64 (5.0), 2714-2724 (2021)

>  <Pubmed ID>
33591748

>  <DOI>
10.1021/acs.jmedchem.0c01992

$$$$
2540712
Actelion Java MolfileCreator 1.0

 38 44  0  0  0  0  0  0  0  0999 V2000
    0.0000   -0.0000   -0.0000 Cl  0  0  0  0  0  0  0  0  0  0  0  0
    1.2888   -0.7399   -0.0000 C   0  0  0  0  0  0  0  0  0  0  0  0
    2.5775    0.0239   -0.0000 C   0  0  0  0  0  0  0  0  0  0  0  0
    1.2768   -2.2434   -0.0000 C   0  0  0  0  0  0  0  0  0  0  0  0
    3.8663   -0.7160   -0.0000 C   0  0  0  0  0  0  0  0  0  0  0  0
    2.5656    1.5394   -0.0000 C   0  0  0  0  0  0  0  0  0  0  0  0
    2.5656   -2.9833   -0.0000 C   0  0  0  0  0  0  0  0  0  0  0  0
    5.1551    0.0597   -0.0000 Cl  0  0  0  0  0  0  0  0  0  0  0  0
    3.8544   -2.2196   -0.0000 C   0  0  0  0  0  0  0  0  0  0  0  0
    1.3246    2.4343   -0.0000 N   0  0  0  0  0  0  0  0  0  0  0  0
    3.7589    2.4463   -0.0000 C   0  0  0  0  0  0  0  0  0  0  0  0
    1.7780    3.8783   -0.0000 O   0  0  0  0  0  0  0  0  0  0  0  0
    3.2816    3.8902   -0.0000 C   0  0  0  0  0  0  0  0  0  0  0  0
    5.2506    2.3508   -0.0000 C   0  0  0  0  0  0  0  0  0  0  0  0
    4.1408    5.1193   -0.0000 C   0  0  0  0  0  0  0  0  0  0  0  0
    6.2291    1.2291   -0.0000 C   0  0  0  0  0  0  0  0  0  0  0  0
    6.3723    3.3532   -0.0000 C   0  0  0  0  0  0  0  0  0  0  0  0
    5.5012    5.7517   -0.0000 C   0  0  0  0  0  0  0  0  0  0  0  0
    4.2840    6.6348   -0.0000 C   0  0  0  0  0  0  0  0  0  0  0  0
    7.3508    2.2315   -0.0000 C   0  0  0  0  0  0  0  0  0  0  0  0
    8.3293    1.1098   -0.0000 C   0  0  0  0  0  0  0  0  0  0  0  0
    7.8281    3.6635   -0.0000 C   0  0  0  0  0  0  0  0  0  0  0  0
    9.7851    1.4081   -0.0000 C   0  0  0  0  0  0  0  0  0  0  0  0
    9.2959    3.9618   -0.0000 C   0  0  0  0  0  0  0  0  0  0  0  0
   10.2625    2.8401   -0.0000 N   0  0  0  0  0  0  0  0  0  0  0  0
   11.7302    3.1384   -0.0000 C   0  0  0  0  0  0  0  0  0  0  0  0
   12.3507    4.5226   -0.0000 S   0  0  0  0  0  0  0  0  0  0  0  0
   12.8161    2.1241   -0.0000 N   0  0  0  0  0  0  0  0  0  0  0  0
   13.8304    4.3436   -0.0000 C   0  0  0  0  0  0  0  0  0  0  0  0
   14.1168    2.8639   -0.0000 C   0  0  0  0  0  0  0  0  0  0  0  0
   14.9522    5.3341   -0.0000 C   0  0  0  0  0  0  0  0  0  0  0  0
   15.5249    2.3866   -0.0000 C   0  0  0  0  0  0  0  0  0  0  0  0
   16.3603    4.8568   -0.0000 C   0  0  0  0  0  0  0  0  0  0  0  0
   15.7994    0.9188   -0.0000 F   0  0  0  0  0  0  0  0  0  0  0  0
   16.6467    3.3771   -0.0000 C   0  0  0  0  0  0  0  0  0  0  0  0
   17.4820    5.8591   -0.0000 C   0  0  0  0  0  0  0  0  0  0  0  0
   18.8901    5.3818   -0.0000 O   0  0  0  0  0  0  0  0  0  0  0  0
   17.1836    7.3508   -0.0000 O   0  0  0  0  0  0  0  0  0  0  0  0
  1  2  1  0  0  0  0
  2  3  2  0  0  0  0
  2  4  1  0  0  0  0
  3  5  1  0  0  0  0
  3  6  1  0  0  0  0
  4  7  2  0  0  0  0
  5  8  1  0  0  0  0
  5  9  2  0  0  0  0
  6 10  2  0  0  0  0
  6 11  1  0  0  0  0
 10 12  1  0  0  0  0
 11 13  2  0  0  0  0
 11 14  1  0  0  0  0
 13 15  1  0  0  0  0
 14 16  2  0  0  0  0
 14 17  1  0  0  0  0
 15 18  1  0  0  0  0
 15 19  1  0  0  0  0
 16 20  1  0  0  0  0
 20 21  1  0  0  0  0
 20 22  1  0  0  0  0
 21 23  1  0  0  0  0
 22 24  1  0  0  0  0
 23 25  1  0  0  0  0
 25 26  1  0  0  0  0
 26 27  1  0  0  0  0
 26 28  2  0  0  0  0
 27 29  1  0  0  0  0
 28 30  1  0  0  0  0
 29 31  1  0  0  0  0
 30 32  1  0  0  0  0
 31 33  2  0  0  0  0
 32 34  1  0  0  0  0
 32 35  2  0  0  0  0
 33 36  1  0  0  0  0
 36 37  2  0  0  0  0
 36 38  1  0  0  0  0
  7  9  1  0  0  0  0
 12 13  1  0  0  0  0
 17 20  1  0  0  0  0
 18 19  1  0  0  0  0
 24 25  1  0  0  0  0
 29 30  2  0  0  0  0
 33 35  1  0  0  0  0
M  END
>  <MolRegNo>
2540712

>  <m>
=

>  <Value>
900

>  <Unit>
nM

>  <Type>
IC50

>  <pValue>
6.05

>  <Ligand Efficiency>
0

>  <Binding Efficiency>
0

>  <Surface Efficiency>
0

>  <Assay Index>
1470482

>  <Assay Category>


>  <Assay Organism>
Homo sapiens

>  <Target ID>
17045

>  <Target Name>
Cytochrome P450 3A4

>  <Target Organism>
Homo sapiens

>  <Target Description>
Target is a single protein chain

>  <Sequence Accession>
P08684

>  <Reference>
ACS Med Chem Lett 12 (9.0), 1413-1420 (2021)

>  <Pubmed ID>
34531950

>  <DOI>
10.1021/acsmedchemlett.1c00198

$$$$
2568028
Actelion Java MolfileCreator 1.0

 40 46  0  0  0  0  0  0  0  0999 V2000
    0.0000   -0.0000   -0.0000 S   0  0  0  0  0  0  0  0  0  0  0  0
   -0.6421   -1.3555   -0.0000 C   0  0  0  0  0  0  0  0  0  0  0  0
    1.4743   -0.1783   -0.0000 C   0  0  0  0  0  0  0  0  0  0  0  0
    0.4399   -2.3661   -0.0000 N   0  0  0  0  0  0  0  0  0  0  0  0
   -2.1283   -1.6289   -0.0000 N   0  0  0  0  0  0  0  0  0  0  0  0
    1.7478   -1.6408   -0.0000 C   0  0  0  0  0  0  0  0  0  0  0  0
    2.5920    0.8085   -0.0000 C   0  0  0  0  0  0  0  0  0  0  0  0
   -2.6277   -3.0319   -0.0000 C   0  0  0  0  0  0  0  0  0  0  0  0
   -3.1152   -0.4875   -0.0000 C   0  0  0  0  0  0  0  0  0  0  0  0
    3.1508   -2.1164   -0.0000 C   0  0  0  0  0  0  0  0  0  0  0  0
    3.9950    0.3329   -0.0000 C   0  0  0  0  0  0  0  0  0  0  0  0
   -4.1020   -3.3054   -0.0000 C   0  0  0  0  0  0  0  0  0  0  0  0
   -4.6014   -0.7610   -0.0000 C   0  0  0  0  0  0  0  0  0  0  0  0
    3.4243   -3.5789   -0.0000 F   0  0  0  0  0  0  0  0  0  0  0  0
    4.2685   -1.1295   -0.0000 C   0  0  0  0  0  0  0  0  0  0  0  0
    5.1127    1.3317   -0.0000 C   0  0  0  0  0  0  0  0  0  0  0  0
   -5.1008   -2.1640   -0.0000 C   0  0  0  0  0  0  0  0  0  0  0  0
    6.5157    0.8561   -0.0000 O   0  0  0  0  0  0  0  0  0  0  0  0
    4.8154    2.8179   -0.0000 O   0  0  0  0  0  0  0  0  0  0  0  0
   -6.2422   -3.1389   -0.0000 C   0  0  0  0  0  0  0  0  0  0  0  0
   -6.0995   -1.0225   -0.0000 C   0  0  0  0  0  0  0  0  0  0  0  0
   -7.2410   -1.9975   -0.0000 C   0  0  0  0  0  0  0  0  0  0  0  0
   -8.7510   -1.8786   -0.0000 C   0  0  0  0  0  0  0  0  0  0  0  0
   -9.9637   -2.7585   -0.0000 C   0  0  0  0  0  0  0  0  0  0  0  0
   -9.2266   -0.4399   -0.0000 C   0  0  0  0  0  0  0  0  0  0  0  0
  -11.2003   -1.8667   -0.0000 N   0  0  0  0  0  0  0  0  0  0  0  0
   -9.9756   -4.2447   -0.0000 C   0  0  0  0  0  0  0  0  0  0  0  0
  -10.7366   -0.4280   -0.0000 O   0  0  0  0  0  0  0  0  0  0  0  0
   -8.3705    0.7847   -0.0000 C   0  0  0  0  0  0  0  0  0  0  0  0
  -11.2835   -4.9819   -0.0000 C   0  0  0  0  0  0  0  0  0  0  0  0
   -8.6915   -4.9819   -0.0000 C   0  0  0  0  0  0  0  0  0  0  0  0
   -7.0150    1.4149   -0.0000 C   0  0  0  0  0  0  0  0  0  0  0  0
   -8.2278    2.2948   -0.0000 C   0  0  0  0  0  0  0  0  0  0  0  0
  -11.2954   -6.4800   -0.0000 C   0  0  0  0  0  0  0  0  0  0  0  0
  -12.5914   -4.2209   -0.0000 C   0  0  0  0  0  0  0  0  0  0  0  0
   -8.7034   -6.4800   -0.0000 C   0  0  0  0  0  0  0  0  0  0  0  0
  -10.0113   -7.2172   -0.0000 C   0  0  0  0  0  0  0  0  0  0  0  0
  -12.6033   -2.7109   -0.0000 F   0  0  0  0  0  0  0  0  0  0  0  0
  -13.8993   -4.9581   -0.0000 F   0  0  0  0  0  0  0  0  0  0  0  0
  -13.9112   -3.4600   -0.0000 F   0  0  0  0  0  0  0  0  0  0  0  0
  1  2  1  0  0  0  0
  1  3  1  0  0  0  0
  2  4  2  0  0  0  0
  2  5  1  0  0  0  0
  3  6  2  0  0  0  0
  3  7  1  0  0  0  0
  5  8  1  0  0  0  0
  5  9  1  0  0  0  0
  6 10  1  0  0  0  0
  7 11  2  0  0  0  0
  8 12  1  0  0  0  0
  9 13  1  0  0  0  0
 10 14  1  0  0  0  0
 10 15  2  0  0  0  0
 11 16  1  0  0  0  0
 12 17  1  0  0  0  0
 16 18  2  0  0  0  0
 16 19  1  0  0  0  0
 17 20  1  0  0  0  0
 17 21  1  0  0  0  0
 20 22  2  0  0  0  0
 22 23  1  0  0  0  0
 23 24  1  0  0  0  0
 23 25  2  0  0  0  0
 24 26  2  0  0  0  0
 24 27  1  0  0  0  0
 25 28  1  0  0  0  0
 25 29  1  0  0  0  0
 27 30  2  0  0  0  0
 27 31  1  0  0  0  0
 29 32  1  0  0  0  0
 29 33  1  0  0  0  0
 30 34  1  0  0  0  0
 30 35  1  0  0  0  0
 31 36  2  0  0  0  0
 34 37  2  0  0  0  0
 35 38  1  0  0  0  0
 35 39  1  0  0  0  0
 35 40  1  0  0  0  0
  4  6  1  0  0  0  0
 11 15  1  0  0  0  0
 13 17  1  0  0  0  0
 21 22  1  0  0  0  0
 26 28  1  0  0  0  0
 32 33  1  0  0  0  0
 36 37  1  0  0  0  0
M  END
>  <MolRegNo>
2568028

>  <m>
=

>  <Value>
10800

>  <Unit>
nM

>  <Type>
IC50

>  <pValue>
4.97

>  <Ligand Efficiency>
0

>  <Binding Efficiency>
0

>  <Surface Efficiency>
0

>  <Assay Index>
1470482

>  <Assay Category>


>  <Assay Organism>
Homo sapiens

>  <Target ID>
17045

>  <Target Name>
Cytochrome P450 3A4

>  <Target Organism>
Homo sapiens

>  <Target Description>
Target is a single protein chain

>  <Sequence Accession>
P08684

>  <Reference>
ACS Med Chem Lett 12 (9.0), 1413-1420 (2021)

>  <Pubmed ID>
34531950

>  <DOI>
10.1021/acsmedchemlett.1c00198

$$$$
2545646
Actelion Java MolfileCreator 1.0

 41 47  0  0  0  0  0  0  0  0999 V2000
    0.0000   -0.0000   -0.0000 S   0  0  0  0  0  0  0  0  0  0  0  0
   -0.6423   -1.3560   -0.0000 C   0  0  0  0  0  0  0  0  0  0  0  0
    1.4749   -0.1784   -0.0000 C   0  0  0  0  0  0  0  0  0  0  0  0
    0.4401   -2.3670   -0.0000 N   0  0  0  0  0  0  0  0  0  0  0  0
   -2.1291   -1.6296   -0.0000 N   0  0  0  0  0  0  0  0  0  0  0  0
    1.7485   -1.6415   -0.0000 C   0  0  0  0  0  0  0  0  0  0  0  0
    2.5930    0.8088   -0.0000 C   0  0  0  0  0  0  0  0  0  0  0  0
   -2.6287   -3.0331   -0.0000 C   0  0  0  0  0  0  0  0  0  0  0  0
   -3.1164   -0.4877   -0.0000 C   0  0  0  0  0  0  0  0  0  0  0  0
    3.1521   -2.1172   -0.0000 C   0  0  0  0  0  0  0  0  0  0  0  0
    3.9966    0.3331   -0.0000 C   0  0  0  0  0  0  0  0  0  0  0  0
   -4.1037   -3.3067   -0.0000 C   0  0  0  0  0  0  0  0  0  0  0  0
   -4.6032   -0.7613   -0.0000 C   0  0  0  0  0  0  0  0  0  0  0  0
    3.4257   -3.5803   -0.0000 F   0  0  0  0  0  0  0  0  0  0  0  0
    4.2702   -1.1300   -0.0000 C   0  0  0  0  0  0  0  0  0  0  0  0
    5.1147    1.3322   -0.0000 C   0  0  0  0  0  0  0  0  0  0  0  0
   -5.1028   -2.1648   -0.0000 C   0  0  0  0  0  0  0  0  0  0  0  0
    6.5183    0.8564   -0.0000 O   0  0  0  0  0  0  0  0  0  0  0  0
    4.8173    2.8190   -0.0000 O   0  0  0  0  0  0  0  0  0  0  0  0
   -6.2447   -3.1402   -0.0000 C   0  0  0  0  0  0  0  0  0  0  0  0
   -6.1020   -1.0229   -0.0000 C   0  0  0  0  0  0  0  0  0  0  0  0
   -7.2438   -1.9983   -0.0000 C   0  0  0  0  0  0  0  0  0  0  0  0
   -8.7545   -1.8794   -0.0000 C   0  0  0  0  0  0  0  0  0  0  0  0
   -9.9677   -2.7596   -0.0000 C   0  0  0  0  0  0  0  0  0  0  0  0
   -9.2303   -0.4401   -0.0000 C   0  0  0  0  0  0  0  0  0  0  0  0
  -11.2048   -1.8675   -0.0000 N   0  0  0  0  0  0  0  0  0  0  0  0
   -9.9796   -4.2464   -0.0000 C   0  0  0  0  0  0  0  0  0  0  0  0
  -10.7409   -0.4282   -0.0000 O   0  0  0  0  0  0  0  0  0  0  0  0
   -8.3738    0.7850   -0.0000 C   0  0  0  0  0  0  0  0  0  0  0  0
  -11.2880   -4.9839   -0.0000 C   0  0  0  0  0  0  0  0  0  0  0  0
   -8.6950   -4.9839   -0.0000 C   0  0  0  0  0  0  0  0  0  0  0  0
   -7.0178    1.4155   -0.0000 C   0  0  0  0  0  0  0  0  0  0  0  0
   -8.2311    2.2957   -0.0000 C   0  0  0  0  0  0  0  0  0  0  0  0
  -12.5964   -4.2226   -0.0000 O   0  0  0  0  0  0  0  0  0  0  0  0
  -11.2999   -6.4826   -0.0000 C   0  0  0  0  0  0  0  0  0  0  0  0
   -8.7069   -6.4826   -0.0000 C   0  0  0  0  0  0  0  0  0  0  0  0
  -13.9049   -4.9601   -0.0000 C   0  0  0  0  0  0  0  0  0  0  0  0
  -10.0153   -7.2201   -0.0000 C   0  0  0  0  0  0  0  0  0  0  0  0
  -15.2133   -4.1988   -0.0000 F   0  0  0  0  0  0  0  0  0  0  0  0
  -13.9168   -6.4469   -0.0000 F   0  0  0  0  0  0  0  0  0  0  0  0
  -15.2252   -5.6856   -0.0000 F   0  0  0  0  0  0  0  0  0  0  0  0
  1  2  1  0  0  0  0
  1  3  1  0  0  0  0
  2  4  2  0  0  0  0
  2  5  1  0  0  0  0
  3  6  2  0  0  0  0
  3  7  1  0  0  0  0
  5  8  1  0  0  0  0
  5  9  1  0  0  0  0
  6 10  1  0  0  0  0
  7 11  2  0  0  0  0
  8 12  1  0  0  0  0
  9 13  1  0  0  0  0
 10 14  1  0  0  0  0
 10 15  2  0  0  0  0
 11 16  1  0  0  0  0
 12 17  1  0  0  0  0
 16 18  2  0  0  0  0
 16 19  1  0  0  0  0
 17 20  1  0  0  0  0
 17 21  1  0  0  0  0
 20 22  2  0  0  0  0
 22 23  1  0  0  0  0
 23 24  1  0  0  0  0
 23 25  2  0  0  0  0
 24 26  2  0  0  0  0
 24 27  1  0  0  0  0
 25 28  1  0  0  0  0
 25 29  1  0  0  0  0
 27 30  2  0  0  0  0
 27 31  1  0  0  0  0
 29 32  1  0  0  0  0
 29 33  1  0  0  0  0
 30 34  1  0  0  0  0
 30 35  1  0  0  0  0
 31 36  2  0  0  0  0
 34 37  1  0  0  0  0
 35 38  2  0  0  0  0
 37 39  1  0  0  0  0
 37 40  1  0  0  0  0
 37 41  1  0  0  0  0
  4  6  1  0  0  0  0
 11 15  1  0  0  0  0
 13 17  1  0  0  0  0
 21 22  1  0  0  0  0
 26 28  1  0  0  0  0
 32 33  1  0  0  0  0
 36 38  1  0  0  0  0
M  END
>  <MolRegNo>
2545646

>  <m>
=

>  <Value>
1000

>  <Unit>
nM

>  <Type>
IC50

>  <pValue>
6

>  <Ligand Efficiency>
0

>  <Binding Efficiency>
0

>  <Surface Efficiency>
0

>  <Assay Index>
1470482

>  <Assay Category>


>  <Assay Organism>
Homo sapiens

>  <Target ID>
17045

>  <Target Name>
Cytochrome P450 3A4

>  <Target Organism>
Homo sapiens

>  <Target Description>
Target is a single protein chain

>  <Sequence Accession>
P08684

>  <Reference>
ACS Med Chem Lett 12 (9.0), 1413-1420 (2021)

>  <Pubmed ID>
34531950

>  <DOI>
10.1021/acsmedchemlett.1c00198

$$$$
2563927
Actelion Java MolfileCreator 1.0

 38 44  0  0  0  0  0  0  0  0999 V2000
    0.0000   -0.0000   -0.0000 Cl  0  0  0  0  0  0  0  0  0  0  0  0
    1.2889   -0.7399   -0.0000 C   0  0  0  0  0  0  0  0  0  0  0  0
    2.5778    0.0239   -0.0000 C   0  0  0  0  0  0  0  0  0  0  0  0
    1.2770   -2.2436   -0.0000 C   0  0  0  0  0  0  0  0  0  0  0  0
    3.8667   -0.7161   -0.0000 C   0  0  0  0  0  0  0  0  0  0  0  0
    2.5659    1.5395   -0.0000 C   0  0  0  0  0  0  0  0  0  0  0  0
    2.5659   -2.9835   -0.0000 N   0  0  0  0  0  0  0  0  0  0  0  0
    5.1556    0.0477   -0.0000 Cl  0  0  0  0  0  0  0  0  0  0  0  0
    3.8547   -2.2198   -0.0000 C   0  0  0  0  0  0  0  0  0  0  0  0
    1.3247    2.4346   -0.0000 N   0  0  0  0  0  0  0  0  0  0  0  0
    3.7593    2.4465   -0.0000 C   0  0  0  0  0  0  0  0  0  0  0  0
    1.7782    3.8786   -0.0000 O   0  0  0  0  0  0  0  0  0  0  0  0
    3.2819    3.8905   -0.0000 C   0  0  0  0  0  0  0  0  0  0  0  0
    5.2510    2.3510   -0.0000 C   0  0  0  0  0  0  0  0  0  0  0  0
    4.1412    5.1198   -0.0000 C   0  0  0  0  0  0  0  0  0  0  0  0
    6.2296    1.2292   -0.0000 C   0  0  0  0  0  0  0  0  0  0  0  0
    6.3729    3.3535   -0.0000 C   0  0  0  0  0  0  0  0  0  0  0  0
    5.5017    5.7523   -0.0000 C   0  0  0  0  0  0  0  0  0  0  0  0
    4.2844    6.6354   -0.0000 C   0  0  0  0  0  0  0  0  0  0  0  0
    7.3515    2.2317   -0.0000 C   0  0  0  0  0  0  0  0  0  0  0  0
    8.3301    1.1099   -0.0000 C   0  0  0  0  0  0  0  0  0  0  0  0
    7.8288    3.6638   -0.0000 C   0  0  0  0  0  0  0  0  0  0  0  0
    9.7860    1.4082   -0.0000 C   0  0  0  0  0  0  0  0  0  0  0  0
    9.2967    3.9622   -0.0000 C   0  0  0  0  0  0  0  0  0  0  0  0
   10.2634    2.8403   -0.0000 N   0  0  0  0  0  0  0  0  0  0  0  0
   11.7313    3.1387   -0.0000 C   0  0  0  0  0  0  0  0  0  0  0  0
   12.3519    4.5231   -0.0000 S   0  0  0  0  0  0  0  0  0  0  0  0
   12.8173    2.1243   -0.0000 N   0  0  0  0  0  0  0  0  0  0  0  0
   13.8317    4.3440   -0.0000 C   0  0  0  0  0  0  0  0  0  0  0  0
   14.1182    2.8642   -0.0000 C   0  0  0  0  0  0  0  0  0  0  0  0
   14.9535    5.3346   -0.0000 C   0  0  0  0  0  0  0  0  0  0  0  0
   15.5264    2.3868   -0.0000 C   0  0  0  0  0  0  0  0  0  0  0  0
   16.3618    4.8572   -0.0000 C   0  0  0  0  0  0  0  0  0  0  0  0
   15.8009    0.9189   -0.0000 F   0  0  0  0  0  0  0  0  0  0  0  0
   16.6482    3.3774   -0.0000 C   0  0  0  0  0  0  0  0  0  0  0  0
   17.4836    5.8597   -0.0000 C   0  0  0  0  0  0  0  0  0  0  0  0
   18.8918    5.3823   -0.0000 O   0  0  0  0  0  0  0  0  0  0  0  0
   17.1852    7.3515   -0.0000 O   0  0  0  0  0  0  0  0  0  0  0  0
  1  2  1  0  0  0  0
  2  3  2  0  0  0  0
  2  4  1  0  0  0  0
  3  5  1  0  0  0  0
  3  6  1  0  0  0  0
  4  7  2  0  0  0  0
  5  8  1  0  0  0  0
  5  9  2  0  0  0  0
  6 10  2  0  0  0  0
  6 11  1  0  0  0  0
 10 12  1  0  0  0  0
 11 13  2  0  0  0  0
 11 14  1  0  0  0  0
 13 15  1  0  0  0  0
 14 16  2  0  0  0  0
 14 17  1  0  0  0  0
 15 18  1  0  0  0  0
 15 19  1  0  0  0  0
 16 20  1  0  0  0  0
 20 21  1  0  0  0  0
 20 22  1  0  0  0  0
 21 23  1  0  0  0  0
 22 24  1  0  0  0  0
 23 25  1  0  0  0  0
 25 26  1  0  0  0  0
 26 27  1  0  0  0  0
 26 28  2  0  0  0  0
 27 29  1  0  0  0  0
 28 30  1  0  0  0  0
 29 31  1  0  0  0  0
 30 32  1  0  0  0  0
 31 33  2  0  0  0  0
 32 34  1  0  0  0  0
 32 35  2  0  0  0  0
 33 36  1  0  0  0  0
 36 37  2  0  0  0  0
 36 38  1  0  0  0  0
  7  9  1  0  0  0  0
 12 13  1  0  0  0  0
 17 20  1  0  0  0  0
 18 19  1  0  0  0  0
 24 25  1  0  0  0  0
 29 30  2  0  0  0  0
 33 35  1  0  0  0  0
M  END
>  <MolRegNo>
2563927

>  <m>
=

>  <Value>
1800

>  <Unit>
nM

>  <Type>
IC50

>  <pValue>
5.75

>  <Ligand Efficiency>
0

>  <Binding Efficiency>
0

>  <Surface Efficiency>
0

>  <Assay Index>
1470482

>  <Assay Category>


>  <Assay Organism>
Homo sapiens

>  <Target ID>
17045

>  <Target Name>
Cytochrome P450 3A4

>  <Target Organism>
Homo sapiens

>  <Target Description>
Target is a single protein chain

>  <Sequence Accession>
P08684

>  <Reference>
ACS Med Chem Lett 12 (9.0), 1413-1420 (2021)

>  <Pubmed ID>
34531950

>  <DOI>
10.1021/acsmedchemlett.1c00198

$$$$
2569271
Actelion Java MolfileCreator 1.0

 34 39  0  0  0  0  0  0  0  0999 V2000
    0.0000   -0.0000   -0.0000 Cl  0  0  0  0  0  0  0  0  0  0  0  0
    1.2887   -0.7398   -0.0000 C   0  0  0  0  0  0  0  0  0  0  0  0
    2.5774    0.0239   -0.0000 C   0  0  0  0  0  0  0  0  0  0  0  0
    1.2768   -2.2433   -0.0000 C   0  0  0  0  0  0  0  0  0  0  0  0
    3.8661   -0.7159   -0.0000 C   0  0  0  0  0  0  0  0  0  0  0  0
    2.5655    1.5393   -0.0000 C   0  0  0  0  0  0  0  0  0  0  0  0
    2.5655   -2.9831   -0.0000 C   0  0  0  0  0  0  0  0  0  0  0  0
    5.1548    0.0477   -0.0000 Cl  0  0  0  0  0  0  0  0  0  0  0  0
    3.8541   -2.2194   -0.0000 C   0  0  0  0  0  0  0  0  0  0  0  0
    1.3245    2.4342   -0.0000 N   0  0  0  0  0  0  0  0  0  0  0  0
    3.7587    2.4461   -0.0000 C   0  0  0  0  0  0  0  0  0  0  0  0
    1.7779    3.8780   -0.0000 O   0  0  0  0  0  0  0  0  0  0  0  0
    3.2814    3.8899   -0.0000 C   0  0  0  0  0  0  0  0  0  0  0  0
    5.2502    2.3507   -0.0000 C   0  0  0  0  0  0  0  0  0  0  0  0
    4.1405    5.1190   -0.0000 C   0  0  0  0  0  0  0  0  0  0  0  0
    6.2287    1.2290   -0.0000 C   0  0  0  0  0  0  0  0  0  0  0  0
    6.3719    3.3530   -0.0000 C   0  0  0  0  0  0  0  0  0  0  0  0
    5.5008    5.7514   -0.0000 C   0  0  0  0  0  0  0  0  0  0  0  0
    4.2837    6.6344   -0.0000 C   0  0  0  0  0  0  0  0  0  0  0  0
    7.3503    2.2313   -0.0000 C   0  0  0  0  0  0  0  0  0  0  0  0
    8.3288    1.1097   -0.0000 C   0  0  0  0  0  0  0  0  0  0  0  0
    7.8276    3.6632   -0.0000 C   0  0  0  0  0  0  0  0  0  0  0  0
    9.7845    1.4080   -0.0000 C   0  0  0  0  0  0  0  0  0  0  0  0
    9.2953    3.9615   -0.0000 C   0  0  0  0  0  0  0  0  0  0  0  0
   10.2618    2.8399   -0.0000 N   0  0  0  0  0  0  0  0  0  0  0  0
   11.7295    3.1382   -0.0000 C   0  0  0  0  0  0  0  0  0  0  0  0
   12.2068    4.5701   -0.0000 N   0  0  0  0  0  0  0  0  0  0  0  0
   12.6960    2.0046   -0.0000 C   0  0  0  0  0  0  0  0  0  0  0  0
   13.6625    4.8684   -0.0000 C   0  0  0  0  0  0  0  0  0  0  0  0
   14.1637    2.3029   -0.0000 C   0  0  0  0  0  0  0  0  0  0  0  0
   14.6410    3.7348   -0.0000 C   0  0  0  0  0  0  0  0  0  0  0  0
   16.1087    4.0331   -0.0000 C   0  0  0  0  0  0  0  0  0  0  0  0
   17.0871    2.9115   -0.0000 O   0  0  0  0  0  0  0  0  0  0  0  0
   16.5860    5.4650   -0.0000 O   0  0  0  0  0  0  0  0  0  0  0  0
  1  2  1  0  0  0  0
  2  3  2  0  0  0  0
  2  4  1  0  0  0  0
  3  5  1  0  0  0  0
  3  6  1  0  0  0  0
  4  7  2  0  0  0  0
  5  8  1  0  0  0  0
  5  9  2  0  0  0  0
  6 10  2  0  0  0  0
  6 11  1  0  0  0  0
 10 12  1  0  0  0  0
 11 13  2  0  0  0  0
 11 14  1  0  0  0  0
 13 15  1  0  0  0  0
 14 16  2  0  0  0  0
 14 17  1  0  0  0  0
 15 18  1  0  0  0  0
 15 19  1  0  0  0  0
 16 20  1  0  0  0  0
 20 21  1  0  0  0  0
 20 22  1  0  0  0  0
 21 23  1  0  0  0  0
 22 24  1  0  0  0  0
 23 25  1  0  0  0  0
 25 26  1  0  0  0  0
 26 27  2  0  0  0  0
 26 28  1  0  0  0  0
 27 29  1  0  0  0  0
 28 30  2  0  0  0  0
 29 31  2  0  0  0  0
 31 32  1  0  0  0  0
 32 33  2  0  0  0  0
 32 34  1  0  0  0  0
  7  9  1  0  0  0  0
 12 13  1  0  0  0  0
 17 20  1  0  0  0  0
 18 19  1  0  0  0  0
 24 25  1  0  0  0  0
 30 31  1  0  0  0  0
M  END
>  <MolRegNo>
2569271

>  <m>
=

>  <Value>
1100

>  <Unit>
nM

>  <Type>
IC50

>  <pValue>
5.96

>  <Ligand Efficiency>
0

>  <Binding Efficiency>
0

>  <Surface Efficiency>
0

>  <Assay Index>
1470482

>  <Assay Category>


>  <Assay Organism>
Homo sapiens

>  <Target ID>
17045

>  <Target Name>
Cytochrome P450 3A4

>  <Target Organism>
Homo sapiens

>  <Target Description>
Target is a single protein chain

>  <Sequence Accession>
P08684

>  <Reference>
ACS Med Chem Lett 12 (9.0), 1413-1420 (2021)

>  <Pubmed ID>
34531950

>  <DOI>
10.1021/acsmedchemlett.1c00198

$$$$
2562287
Actelion Java MolfileCreator 1.0

 34 39  0  0  0  0  0  0  0  0999 V2000
    0.0000   -0.0000   -0.0000 Cl  0  0  0  0  0  0  0  0  0  0  0  0
    1.2887   -0.7398   -0.0000 C   0  0  0  0  0  0  0  0  0  0  0  0
    2.5774    0.0239   -0.0000 C   0  0  0  0  0  0  0  0  0  0  0  0
    1.2768   -2.2433   -0.0000 C   0  0  0  0  0  0  0  0  0  0  0  0
    3.8661   -0.7159   -0.0000 C   0  0  0  0  0  0  0  0  0  0  0  0
    2.5655    1.5393   -0.0000 C   0  0  0  0  0  0  0  0  0  0  0  0
    2.5655   -2.9831   -0.0000 C   0  0  0  0  0  0  0  0  0  0  0  0
    5.1548    0.0477   -0.0000 Cl  0  0  0  0  0  0  0  0  0  0  0  0
    3.8541   -2.2194   -0.0000 C   0  0  0  0  0  0  0  0  0  0  0  0
    1.3245    2.4342   -0.0000 N   0  0  0  0  0  0  0  0  0  0  0  0
    3.7587    2.4461   -0.0000 C   0  0  0  0  0  0  0  0  0  0  0  0
    1.7779    3.8780   -0.0000 O   0  0  0  0  0  0  0  0  0  0  0  0
    3.2814    3.8899   -0.0000 C   0  0  0  0  0  0  0  0  0  0  0  0
    5.2502    2.3507   -0.0000 C   0  0  0  0  0  0  0  0  0  0  0  0
    4.1405    5.1190   -0.0000 C   0  0  0  0  0  0  0  0  0  0  0  0
    6.2287    1.2290   -0.0000 C   0  0  0  0  0  0  0  0  0  0  0  0
    6.3719    3.3530   -0.0000 C   0  0  0  0  0  0  0  0  0  0  0  0
    5.5008    5.7514   -0.0000 C   0  0  0  0  0  0  0  0  0  0  0  0
    4.2837    6.6344   -0.0000 C   0  0  0  0  0  0  0  0  0  0  0  0
    7.3503    2.2313   -0.0000 C   0  0  0  0  0  0  0  0  0  0  0  0
    8.3288    1.1097   -0.0000 C   0  0  0  0  0  0  0  0  0  0  0  0
    7.8276    3.6632   -0.0000 C   0  0  0  0  0  0  0  0  0  0  0  0
    9.7845    1.4080   -0.0000 C   0  0  0  0  0  0  0  0  0  0  0  0
    9.2953    3.9615   -0.0000 C   0  0  0  0  0  0  0  0  0  0  0  0
   10.2618    2.8399   -0.0000 N   0  0  0  0  0  0  0  0  0  0  0  0
   11.7295    3.1382   -0.0000 C   0  0  0  0  0  0  0  0  0  0  0  0
   12.2068    4.5701   -0.0000 C   0  0  0  0  0  0  0  0  0  0  0  0
   12.6960    2.0046   -0.0000 C   0  0  0  0  0  0  0  0  0  0  0  0
   13.6625    4.8684   -0.0000 N   0  0  0  0  0  0  0  0  0  0  0  0
   14.1637    2.3029   -0.0000 C   0  0  0  0  0  0  0  0  0  0  0  0
   14.6410    3.7348   -0.0000 C   0  0  0  0  0  0  0  0  0  0  0  0
   16.1087    4.0331   -0.0000 C   0  0  0  0  0  0  0  0  0  0  0  0
   17.0871    2.9115   -0.0000 O   0  0  0  0  0  0  0  0  0  0  0  0
   16.5860    5.4650   -0.0000 O   0  0  0  0  0  0  0  0  0  0  0  0
  1  2  1  0  0  0  0
  2  3  2  0  0  0  0
  2  4  1  0  0  0  0
  3  5  1  0  0  0  0
  3  6  1  0  0  0  0
  4  7  2  0  0  0  0
  5  8  1  0  0  0  0
  5  9  2  0  0  0  0
  6 10  2  0  0  0  0
  6 11  1  0  0  0  0
 10 12  1  0  0  0  0
 11 13  2  0  0  0  0
 11 14  1  0  0  0  0
 13 15  1  0  0  0  0
 14 16  2  0  0  0  0
 14 17  1  0  0  0  0
 15 18  1  0  0  0  0
 15 19  1  0  0  0  0
 16 20  1  0  0  0  0
 20 21  1  0  0  0  0
 20 22  1  0  0  0  0
 21 23  1  0  0  0  0
 22 24  1  0  0  0  0
 23 25  1  0  0  0  0
 25 26  1  0  0  0  0
 26 27  2  0  0  0  0
 26 28  1  0  0  0  0
 27 29  1  0  0  0  0
 28 30  2  0  0  0  0
 29 31  2  0  0  0  0
 31 32  1  0  0  0  0
 32 33  2  0  0  0  0
 32 34  1  0  0  0  0
  7  9  1  0  0  0  0
 12 13  1  0  0  0  0
 17 20  1  0  0  0  0
 18 19  1  0  0  0  0
 24 25  1  0  0  0  0
 30 31  1  0  0  0  0
M  END
>  <MolRegNo>
2562287

>  <m>
=

>  <Value>
6200

>  <Unit>
nM

>  <Type>
IC50

>  <pValue>
5.21

>  <Ligand Efficiency>
0

>  <Binding Efficiency>
0

>  <Surface Efficiency>
0

>  <Assay Index>
1470482

>  <Assay Category>


>  <Assay Organism>
Homo sapiens

>  <Target ID>
17045

>  <Target Name>
Cytochrome P450 3A4

>  <Target Organism>
Homo sapiens

>  <Target Description>
Target is a single protein chain

>  <Sequence Accession>
P08684

>  <Reference>
ACS Med Chem Lett 12 (9.0), 1413-1420 (2021)

>  <Pubmed ID>
34531950

>  <DOI>
10.1021/acsmedchemlett.1c00198

$$$$
2566252
Actelion Java MolfileCreator 1.0

 38 44  0  0  0  0  0  0  0  0999 V2000
    0.0000   -0.0000   -0.0000 Cl  0  0  0  0  0  0  0  0  0  0  0  0
    1.2890   -0.7400   -0.0000 C   0  0  0  0  0  0  0  0  0  0  0  0
    2.5781    0.0239   -0.0000 C   0  0  0  0  0  0  0  0  0  0  0  0
    1.2771   -2.2439   -0.0000 C   0  0  0  0  0  0  0  0  0  0  0  0
    3.8671   -0.7161   -0.0000 C   0  0  0  0  0  0  0  0  0  0  0  0
    2.5661    1.5397   -0.0000 C   0  0  0  0  0  0  0  0  0  0  0  0
    2.5661   -2.9839   -0.0000 C   0  0  0  0  0  0  0  0  0  0  0  0
    5.1561    0.0477   -0.0000 Cl  0  0  0  0  0  0  0  0  0  0  0  0
    3.8552   -2.2200   -0.0000 C   0  0  0  0  0  0  0  0  0  0  0  0
    1.3248    2.4348   -0.0000 N   0  0  0  0  0  0  0  0  0  0  0  0
    3.7597    2.4468   -0.0000 C   0  0  0  0  0  0  0  0  0  0  0  0
    1.7784    3.8790   -0.0000 O   0  0  0  0  0  0  0  0  0  0  0  0
    3.2823    3.8910   -0.0000 C   0  0  0  0  0  0  0  0  0  0  0  0
    5.2516    2.3513   -0.0000 C   0  0  0  0  0  0  0  0  0  0  0  0
    4.1416    5.1203   -0.0000 C   0  0  0  0  0  0  0  0  0  0  0  0
    6.2303    1.2294   -0.0000 C   0  0  0  0  0  0  0  0  0  0  0  0
    6.3736    3.3539   -0.0000 C   0  0  0  0  0  0  0  0  0  0  0  0
    5.5023    5.7529   -0.0000 C   0  0  0  0  0  0  0  0  0  0  0  0
    4.2848    6.6361   -0.0000 C   0  0  0  0  0  0  0  0  0  0  0  0
    7.3523    2.2319   -0.0000 C   0  0  0  0  0  0  0  0  0  0  0  0
    8.3310    1.1100   -0.0000 C   0  0  0  0  0  0  0  0  0  0  0  0
    7.8297    3.6642   -0.0000 C   0  0  0  0  0  0  0  0  0  0  0  0
    9.7871    1.4084   -0.0000 C   0  0  0  0  0  0  0  0  0  0  0  0
    9.2978    3.9626   -0.0000 C   0  0  0  0  0  0  0  0  0  0  0  0
   10.2645    2.8407   -0.0000 N   0  0  0  0  0  0  0  0  0  0  0  0
   11.7326    3.1390   -0.0000 C   0  0  0  0  0  0  0  0  0  0  0  0
   12.6994    2.0052   -0.0000 C   0  0  0  0  0  0  0  0  0  0  0  0
   12.2100    4.5713   -0.0000 C   0  0  0  0  0  0  0  0  0  0  0  0
   14.1675    2.3036   -0.0000 C   0  0  0  0  0  0  0  0  0  0  0  0
   13.6781    4.8697   -0.0000 C   0  0  0  0  0  0  0  0  0  0  0  0
   14.6449    3.7358   -0.0000 C   0  0  0  0  0  0  0  0  0  0  0  0
   15.1462    1.1816   -0.0000 C   0  0  0  0  0  0  0  0  0  0  0  0
   16.1010    4.0342   -0.0000 N   0  0  0  0  0  0  0  0  0  0  0  0
   16.6142    1.4800   -0.0000 C   0  0  0  0  0  0  0  0  0  0  0  0
   17.0797    2.9242   -0.0000 C   0  0  0  0  0  0  0  0  0  0  0  0
   18.5478    3.2345   -0.0000 C   0  0  0  0  0  0  0  0  0  0  0  0
   19.5265    2.1126   -0.0000 O   0  0  0  0  0  0  0  0  0  0  0  0
   19.0133    4.6787   -0.0000 O   0  0  0  0  0  0  0  0  0  0  0  0
  1  2  1  0  0  0  0
  2  3  2  0  0  0  0
  2  4  1  0  0  0  0
  3  5  1  0  0  0  0
  3  6  1  0  0  0  0
  4  7  2  0  0  0  0
  5  8  1  0  0  0  0
  5  9  2  0  0  0  0
  6 10  2  0  0  0  0
  6 11  1  0  0  0  0
 10 12  1  0  0  0  0
 11 13  2  0  0  0  0
 11 14  1  0  0  0  0
 13 15  1  0  0  0  0
 14 16  2  0  0  0  0
 14 17  1  0  0  0  0
 15 18  1  0  0  0  0
 15 19  1  0  0  0  0
 16 20  1  0  0  0  0
 20 21  1  0  0  0  0
 20 22  1  0  0  0  0
 21 23  1  0  0  0  0
 22 24  1  0  0  0  0
 23 25  1  0  0  0  0
 25 26  1  0  0  0  0
 26 27  2  0  0  0  0
 26 28  1  0  0  0  0
 27 29  1  0  0  0  0
 28 30  2  0  0  0  0
 29 31  1  0  0  0  0
 29 32  2  0  0  0  0
 31 33  2  0  0  0  0
 32 34  1  0  0  0  0
 33 35  1  0  0  0  0
 35 36  1  0  0  0  0
 36 37  2  0  0  0  0
 36 38  1  0  0  0  0
  7  9  1  0  0  0  0
 12 13  1  0  0  0  0
 17 20  1  0  0  0  0
 18 19  1  0  0  0  0
 24 25  1  0  0  0  0
 30 31  1  0  0  0  0
 34 35  2  0  0  0  0
M  END
>  <MolRegNo>
2566252

>  <m>
=

>  <Value>
1900

>  <Unit>
nM

>  <Type>
IC50

>  <pValue>
5.72

>  <Ligand Efficiency>
0

>  <Binding Efficiency>
0

>  <Surface Efficiency>
0

>  <Assay Index>
1470482

>  <Assay Category>


>  <Assay Organism>
Homo sapiens

>  <Target ID>
17045

>  <Target Name>
Cytochrome P450 3A4

>  <Target Organism>
Homo sapiens

>  <Target Description>
Target is a single protein chain

>  <Sequence Accession>
P08684

>  <Reference>
ACS Med Chem Lett 12 (9.0), 1413-1420 (2021)

>  <Pubmed ID>
34531950

>  <DOI>
10.1021/acsmedchemlett.1c00198

$$$$
2561867
Actelion Java MolfileCreator 1.0

 39 45  0  0  0  0  0  0  0  0999 V2000
    0.0000   -0.0000   -0.0000 Cl  0  0  0  0  0  0  0  0  0  0  0  0
    1.2893   -0.7401   -0.0000 C   0  0  0  0  0  0  0  0  0  0  0  0
    2.5785    0.0239   -0.0000 C   0  0  0  0  0  0  0  0  0  0  0  0
    1.2773   -2.2443   -0.0000 C   0  0  0  0  0  0  0  0  0  0  0  0
    3.8678   -0.7163   -0.0000 C   0  0  0  0  0  0  0  0  0  0  0  0
    2.5666    1.5400   -0.0000 C   0  0  0  0  0  0  0  0  0  0  0  0
    2.5666   -2.9844   -0.0000 C   0  0  0  0  0  0  0  0  0  0  0  0
    5.1571    0.0478   -0.0000 Cl  0  0  0  0  0  0  0  0  0  0  0  0
    3.8559   -2.2204   -0.0000 C   0  0  0  0  0  0  0  0  0  0  0  0
    1.3251    2.4353   -0.0000 N   0  0  0  0  0  0  0  0  0  0  0  0
    3.7604    2.4472   -0.0000 C   0  0  0  0  0  0  0  0  0  0  0  0
    2.5547   -4.4766   -0.0000 F   0  0  0  0  0  0  0  0  0  0  0  0
    1.7787    3.8797   -0.0000 O   0  0  0  0  0  0  0  0  0  0  0  0
    3.2828    3.8917   -0.0000 C   0  0  0  0  0  0  0  0  0  0  0  0
    5.2526    2.3517   -0.0000 C   0  0  0  0  0  0  0  0  0  0  0  0
    4.1424    5.1212   -0.0000 C   0  0  0  0  0  0  0  0  0  0  0  0
    6.2314    1.2296   -0.0000 C   0  0  0  0  0  0  0  0  0  0  0  0
    6.3747    3.3545   -0.0000 C   0  0  0  0  0  0  0  0  0  0  0  0
    5.5032    5.7539   -0.0000 C   0  0  0  0  0  0  0  0  0  0  0  0
    4.2856    6.6373   -0.0000 C   0  0  0  0  0  0  0  0  0  0  0  0
    7.3536    2.2323   -0.0000 C   0  0  0  0  0  0  0  0  0  0  0  0
    8.3325    1.1102   -0.0000 C   0  0  0  0  0  0  0  0  0  0  0  0
    7.8311    3.6649   -0.0000 C   0  0  0  0  0  0  0  0  0  0  0  0
    9.7889    1.4086   -0.0000 C   0  0  0  0  0  0  0  0  0  0  0  0
    9.2994    3.9633   -0.0000 C   0  0  0  0  0  0  0  0  0  0  0  0
   10.2664    2.8412   -0.0000 N   0  0  0  0  0  0  0  0  0  0  0  0
   11.7347    3.1396   -0.0000 C   0  0  0  0  0  0  0  0  0  0  0  0
   12.7016    2.0055   -0.0000 C   0  0  0  0  0  0  0  0  0  0  0  0
   12.2122    4.5721   -0.0000 C   0  0  0  0  0  0  0  0  0  0  0  0
   14.1700    2.3040   -0.0000 C   0  0  0  0  0  0  0  0  0  0  0  0
   13.6686    4.8706   -0.0000 C   0  0  0  0  0  0  0  0  0  0  0  0
   14.6475    3.7365   -0.0000 C   0  0  0  0  0  0  0  0  0  0  0  0
   15.1488    1.1818   -0.0000 C   0  0  0  0  0  0  0  0  0  0  0  0
   16.1039    4.0349   -0.0000 N   0  0  0  0  0  0  0  0  0  0  0  0
   16.6172    1.4803   -0.0000 C   0  0  0  0  0  0  0  0  0  0  0  0
   17.0827    2.9247   -0.0000 C   0  0  0  0  0  0  0  0  0  0  0  0
   18.5511    3.2351   -0.0000 C   0  0  0  0  0  0  0  0  0  0  0  0
   19.5300    2.1130   -0.0000 O   0  0  0  0  0  0  0  0  0  0  0  0
   19.0166    4.6795   -0.0000 O   0  0  0  0  0  0  0  0  0  0  0  0
  1  2  1  0  0  0  0
  2  3  2  0  0  0  0
  2  4  1  0  0  0  0
  3  5  1  0  0  0  0
  3  6  1  0  0  0  0
  4  7  2  0  0  0  0
  5  8  1  0  0  0  0
  5  9  2  0  0  0  0
  6 10  2  0  0  0  0
  6 11  1  0  0  0  0
  7 12  1  0  0  0  0
 10 13  1  0  0  0  0
 11 14  2  0  0  0  0
 11 15  1  0  0  0  0
 14 16  1  0  0  0  0
 15 17  2  0  0  0  0
 15 18  1  0  0  0  0
 16 19  1  0  0  0  0
 16 20  1  0  0  0  0
 17 21  1  0  0  0  0
 21 22  1  0  0  0  0
 21 23  1  0  0  0  0
 22 24  1  0  0  0  0
 23 25  1  0  0  0  0
 24 26  1  0  0  0  0
 26 27  1  0  0  0  0
 27 28  2  0  0  0  0
 27 29  1  0  0  0  0
 28 30  1  0  0  0  0
 29 31  2  0  0  0  0
 30 32  1  0  0  0  0
 30 33  2  0  0  0  0
 32 34  2  0  0  0  0
 33 35  1  0  0  0  0
 34 36  1  0  0  0  0
 36 37  1  0  0  0  0
 37 38  2  0  0  0  0
 37 39  1  0  0  0  0
  7  9  1  0  0  0  0
 13 14  1  0  0  0  0
 18 21  1  0  0  0  0
 19 20  1  0  0  0  0
 25 26  1  0  0  0  0
 31 32  1  0  0  0  0
 35 36  2  0  0  0  0
M  END
>  <MolRegNo>
2561867

>  <m>
=

>  <Value>
3100

>  <Unit>
nM

>  <Type>
IC50

>  <pValue>
5.51

>  <Ligand Efficiency>
0

>  <Binding Efficiency>
0

>  <Surface Efficiency>
0

>  <Assay Index>
1470482

>  <Assay Category>


>  <Assay Organism>
Homo sapiens

>  <Target ID>
17045

>  <Target Name>
Cytochrome P450 3A4

>  <Target Organism>
Homo sapiens

>  <Target Description>
Target is a single protein chain

>  <Sequence Accession>
P08684

>  <Reference>
ACS Med Chem Lett 12 (9.0), 1413-1420 (2021)

>  <Pubmed ID>
34531950

>  <DOI>
10.1021/acsmedchemlett.1c00198

$$$$
2552386
Actelion Java MolfileCreator 1.0

 38 44  0  0  0  0  0  0  0  0999 V2000
    0.0000   -0.0000   -0.0000 Cl  0  0  0  0  0  0  0  0  0  0  0  0
    1.2891   -0.7400   -0.0000 C   0  0  0  0  0  0  0  0  0  0  0  0
    2.5782    0.0239   -0.0000 C   0  0  0  0  0  0  0  0  0  0  0  0
    1.2772   -2.2440   -0.0000 C   0  0  0  0  0  0  0  0  0  0  0  0
    3.8673   -0.7162   -0.0000 C   0  0  0  0  0  0  0  0  0  0  0  0
    2.5663    1.5398   -0.0000 C   0  0  0  0  0  0  0  0  0  0  0  0
    2.5663   -2.9841   -0.0000 N   0  0  0  0  0  0  0  0  0  0  0  0
    5.1564    0.0477   -0.0000 Cl  0  0  0  0  0  0  0  0  0  0  0  0
    3.8554   -2.2201   -0.0000 C   0  0  0  0  0  0  0  0  0  0  0  0
    1.3249    2.4350   -0.0000 N   0  0  0  0  0  0  0  0  0  0  0  0
    3.7599    2.4469   -0.0000 C   0  0  0  0  0  0  0  0  0  0  0  0
    1.7785    3.8793   -0.0000 O   0  0  0  0  0  0  0  0  0  0  0  0
    3.2825    3.8912   -0.0000 C   0  0  0  0  0  0  0  0  0  0  0  0
    5.2519    2.3514   -0.0000 C   0  0  0  0  0  0  0  0  0  0  0  0
    4.1419    5.1206   -0.0000 C   0  0  0  0  0  0  0  0  0  0  0  0
    6.2307    1.2294   -0.0000 C   0  0  0  0  0  0  0  0  0  0  0  0
    6.3739    3.3541   -0.0000 C   0  0  0  0  0  0  0  0  0  0  0  0
    5.5026    5.7533   -0.0000 C   0  0  0  0  0  0  0  0  0  0  0  0
    4.2851    6.6365   -0.0000 C   0  0  0  0  0  0  0  0  0  0  0  0
    7.3527    2.2321   -0.0000 C   0  0  0  0  0  0  0  0  0  0  0  0
    8.3315    1.1101   -0.0000 C   0  0  0  0  0  0  0  0  0  0  0  0
    7.8302    3.6644   -0.0000 C   0  0  0  0  0  0  0  0  0  0  0  0
    9.7877    1.4085   -0.0000 C   0  0  0  0  0  0  0  0  0  0  0  0
    9.2983    3.9628   -0.0000 C   0  0  0  0  0  0  0  0  0  0  0  0
   10.2652    2.8408   -0.0000 N   0  0  0  0  0  0  0  0  0  0  0  0
   11.7333    3.1392   -0.0000 C   0  0  0  0  0  0  0  0  0  0  0  0
   12.7001    2.0053   -0.0000 C   0  0  0  0  0  0  0  0  0  0  0  0
   12.2108    4.5716   -0.0000 C   0  0  0  0  0  0  0  0  0  0  0  0
   14.1683    2.3037   -0.0000 C   0  0  0  0  0  0  0  0  0  0  0  0
   13.6670    4.8700   -0.0000 C   0  0  0  0  0  0  0  0  0  0  0  0
   14.6457    3.7360   -0.0000 C   0  0  0  0  0  0  0  0  0  0  0  0
   15.1471    1.1817   -0.0000 C   0  0  0  0  0  0  0  0  0  0  0  0
   16.1020    4.0344   -0.0000 N   0  0  0  0  0  0  0  0  0  0  0  0
   16.6152    1.4801   -0.0000 C   0  0  0  0  0  0  0  0  0  0  0  0
   17.0807    2.9244   -0.0000 C   0  0  0  0  0  0  0  0  0  0  0  0
   18.5489    3.2347   -0.0000 C   0  0  0  0  0  0  0  0  0  0  0  0
   19.5277    2.1127   -0.0000 O   0  0  0  0  0  0  0  0  0  0  0  0
   19.0144    4.6790   -0.0000 O   0  0  0  0  0  0  0  0  0  0  0  0
  1  2  1  0  0  0  0
  2  3  2  0  0  0  0
  2  4  1  0  0  0  0
  3  5  1  0  0  0  0
  3  6  1  0  0  0  0
  4  7  2  0  0  0  0
  5  8  1  0  0  0  0
  5  9  2  0  0  0  0
  6 10  2  0  0  0  0
  6 11  1  0  0  0  0
 10 12  1  0  0  0  0
 11 13  2  0  0  0  0
 11 14  1  0  0  0  0
 13 15  1  0  0  0  0
 14 16  2  0  0  0  0
 14 17  1  0  0  0  0
 15 18  1  0  0  0  0
 15 19  1  0  0  0  0
 16 20  1  0  0  0  0
 20 21  1  0  0  0  0
 20 22  1  0  0  0  0
 21 23  1  0  0  0  0
 22 24  1  0  0  0  0
 23 25  1  0  0  0  0
 25 26  1  0  0  0  0
 26 27  2  0  0  0  0
 26 28  1  0  0  0  0
 27 29  1  0  0  0  0
 28 30  2  0  0  0  0
 29 31  1  0  0  0  0
 29 32  2  0  0  0  0
 31 33  2  0  0  0  0
 32 34  1  0  0  0  0
 33 35  1  0  0  0  0
 35 36  1  0  0  0  0
 36 37  2  0  0  0  0
 36 38  1  0  0  0  0
  7  9  1  0  0  0  0
 12 13  1  0  0  0  0
 17 20  1  0  0  0  0
 18 19  1  0  0  0  0
 24 25  1  0  0  0  0
 30 31  1  0  0  0  0
 34 35  2  0  0  0  0
M  END
>  <MolRegNo>
2552386

>  <m>
=

>  <Value>
4700

>  <Unit>
nM

>  <Type>
IC50

>  <pValue>
5.33

>  <Ligand Efficiency>
0

>  <Binding Efficiency>
0

>  <Surface Efficiency>
0

>  <Assay Index>
1470482

>  <Assay Category>


>  <Assay Organism>
Homo sapiens

>  <Target ID>
17045

>  <Target Name>
Cytochrome P450 3A4

>  <Target Organism>
Homo sapiens

>  <Target Description>
Target is a single protein chain

>  <Sequence Accession>
P08684

>  <Reference>
ACS Med Chem Lett 12 (9.0), 1413-1420 (2021)

>  <Pubmed ID>
34531950

>  <DOI>
10.1021/acsmedchemlett.1c00198

$$$$
2486576
Actelion Java MolfileCreator 1.0

 37 41  0  0  0  0  0  0  0  0999 V2000
    0.0000   -0.0000   -0.0000 F   0  0  0  0  0  0  0  0  0  0  0  0
   -0.0943    1.5085   -0.0000 C   0  0  0  0  0  0  0  0  0  0  0  0
   -1.4378    2.2038   -0.0000 C   0  0  0  0  0  0  0  0  0  0  0  0
    1.1549    2.3334   -0.0000 C   0  0  0  0  0  0  0  0  0  0  0  0
   -1.5320    3.7122   -0.0000 C   0  0  0  0  0  0  0  0  0  0  0  0
   -2.7105    1.4024   -0.0000 C   0  0  0  0  0  0  0  0  0  0  0  0
    1.0606    3.8419   -0.0000 C   0  0  0  0  0  0  0  0  0  0  0  0
   -2.8755    4.4075   -0.0000 F   0  0  0  0  0  0  0  0  0  0  0  0
   -0.2828    4.5372   -0.0000 C   0  0  0  0  0  0  0  0  0  0  0  0
   -2.6398   -0.0825   -0.0000 N   0  0  0  0  0  0  0  0  0  0  0  0
   -4.0540    2.0977   -0.0000 C   0  0  0  0  0  0  0  0  0  0  0  0
    2.3098    4.6668   -0.0000 N   0  0  0  0  0  0  0  0  0  0  0  0
   -3.9126   -0.8839   -0.0000 C   0  0  0  0  0  0  0  0  0  0  0  0
   -1.3199   -0.7542   -0.0000 C   0  0  0  0  0  0  0  0  0  0  0  0
   -4.4547    3.5590   -0.0000 N   0  0  0  0  0  0  0  0  0  0  0  0
   -5.3268    1.2963   -0.0000 C   0  0  0  0  0  0  0  0  0  0  0  0
    3.6651    4.0658   -0.0000 C   0  0  0  0  0  0  0  0  0  0  0  0
   -5.2560   -0.1886   -0.0000 C   0  0  0  0  0  0  0  0  0  0  0  0
   -3.9244   -2.3688   -0.0000 C   0  0  0  0  0  0  0  0  0  0  0  0
   -1.3317   -2.2391   -0.0000 C   0  0  0  0  0  0  0  0  0  0  0  0
   -5.9631    3.6533   -0.0000 C   0  0  0  0  0  0  0  0  0  0  0  0
   -6.5052    2.2509   -0.0000 C   0  0  0  0  0  0  0  0  0  0  0  0
    5.0557    4.6197   -0.0000 C   0  0  0  0  0  0  0  0  0  0  0  0
    4.1954    2.6752   -0.0000 C   0  0  0  0  0  0  0  0  0  0  0  0
   -2.8402   -2.2273   -0.0000 F   0  0  0  0  0  0  0  0  0  0  0  0
   -1.3435   -3.7240   -0.0000 F   0  0  0  0  0  0  0  0  0  0  0  0
    0.1532   -2.2273   -0.0000 C   0  0  0  0  0  0  0  0  0  0  0  0
   -6.9177    4.8318   -0.0000 C   0  0  0  0  0  0  0  0  0  0  0  0
   -7.9901    2.0270   -0.0000 C   0  0  0  0  0  0  0  0  0  0  0  0
    5.5860    3.2291   -0.0000 N   0  0  0  0  0  0  0  0  0  0  0  0
    0.9546   -0.9546   -0.0000 O   0  0  0  0  0  0  0  0  0  0  0  0
   -8.4026    4.6079   -0.0000 C   0  0  0  0  0  0  0  0  0  0  0  0
   -8.9447    3.2055   -0.0000 C   0  0  0  0  0  0  0  0  0  0  0  0
    6.8706    2.4984   -0.0000 C   0  0  0  0  0  0  0  0  0  0  0  0
    8.1198    3.3233   -0.0000 C   0  0  0  0  0  0  0  0  0  0  0  0
    9.4397    2.6516   -0.0000 C   0  0  0  0  0  0  0  0  0  0  0  0
   10.6889    3.4765   -0.0000 F   0  0  0  0  0  0  0  0  0  0  0  0
  1  2  1  0  0  0  0
  2  3  2  0  0  0  0
  2  4  1  0  0  0  0
  3  5  1  0  0  0  0
  6  3  1  1  0  0  0
  4  7  2  0  0  0  0
  5  8  1  0  0  0  0
  5  9  2  0  0  0  0
  6 10  1  0  0  0  0
  6 11  1  0  0  0  0
  7 12  1  0  0  0  0
 10 13  1  0  0  0  0
 10 14  1  0  0  0  0
 11 15  1  0  0  0  0
 11 16  2  0  0  0  0
 12 17  1  0  0  0  0
 13 18  1  0  0  0  0
 13 19  1  6  0  0  0
 14 20  1  0  0  0  0
 15 21  1  0  0  0  0
 16 22  1  0  0  0  0
 17 23  1  0  0  0  0
 17 24  1  0  0  0  0
 20 25  1  0  0  0  0
 20 26  1  0  0  0  0
 20 27  1  0  0  0  0
 21 28  1  0  0  0  0
 22 29  1  0  0  0  0
 23 30  1  0  0  0  0
 27 31  1  0  0  0  0
 28 32  2  0  0  0  0
 29 33  2  0  0  0  0
 30 34  1  0  0  0  0
 34 35  1  0  0  0  0
 35 36  1  0  0  0  0
 36 37  1  0  0  0  0
  7  9  1  0  0  0  0
 16 18  1  0  0  0  0
 21 22  2  0  0  0  0
 24 30  1  0  0  0  0
 32 33  1  0  0  0  0
M  END
>  <MolRegNo>
2486576

>  <m>
=

>  <Value>
6500

>  <Unit>
nM

>  <Type>
IC50

>  <pValue>
5.19

>  <Ligand Efficiency>
0

>  <Binding Efficiency>
0

>  <Surface Efficiency>
0

>  <Assay Index>
1472211

>  <Assay Category>


>  <Assay Organism>
Homo sapiens

>  <Target ID>
17045

>  <Target Name>
Cytochrome P450 3A4

>  <Target Organism>
Homo sapiens

>  <Target Description>
Target is a single protein chain

>  <Sequence Accession>
P08684

>  <Reference>
J Med Chem 64 (16.0), 11841-11856 (2021)

>  <Pubmed ID>
34251202

>  <DOI>
10.1021/acs.jmedchem.1c00847

$$$$
2559814
Actelion Java MolfileCreator 1.0

 38 42  0  0  0  0  0  0  0  0999 V2000
    0.0000   -0.0000   -0.0000 F   0  0  0  0  0  0  0  0  0  0  0  0
    1.2790    0.7461   -0.0000 C   0  0  0  0  0  0  0  0  0  0  0  0
    1.2790    2.2620   -0.0000 C   0  0  0  0  0  0  0  0  0  0  0  0
    2.5581   -0.0000   -0.0000 C   0  0  0  0  0  0  0  0  0  0  0  0
    2.5581    3.0199   -0.0000 C   0  0  0  0  0  0  0  0  0  0  0  0
   -0.0237    3.0199   -0.0000 C   0  0  0  0  0  0  0  0  0  0  0  0
    3.8490    0.7579   -0.0000 C   0  0  0  0  0  0  0  0  0  0  0  0
    2.5462    4.5240   -0.0000 F   0  0  0  0  0  0  0  0  0  0  0  0
    3.8371    2.2857   -0.0000 C   0  0  0  0  0  0  0  0  0  0  0  0
   -0.0237    4.5358   -0.0000 N   0  0  0  0  0  0  0  0  0  0  0  0
   -1.3383    2.2857   -0.0000 C   0  0  0  0  0  0  0  0  0  0  0  0
    5.1398    0.0118   -0.0000 N   0  0  0  0  0  0  0  0  0  0  0  0
   -1.3264    5.3056   -0.0000 C   0  0  0  0  0  0  0  0  0  0  0  0
    1.2554    5.2938   -0.0000 C   0  0  0  0  0  0  0  0  0  0  0  0
   -1.6817    0.8290   -0.0000 N   0  0  0  0  0  0  0  0  0  0  0  0
   -2.6410    3.0555   -0.0000 C   0  0  0  0  0  0  0  0  0  0  0  0
    6.4307    0.7698   -0.0000 C   0  0  0  0  0  0  0  0  0  0  0  0
   -2.6410    4.5832   -0.0000 C   0  0  0  0  0  0  0  0  0  0  0  0
   -1.3264    6.8215   -0.0000 C   0  0  0  0  0  0  0  0  0  0  0  0
    1.2554    6.8097   -0.0000 C   0  0  0  0  0  0  0  0  0  0  0  0
   -3.1858    0.6987   -0.0000 C   0  0  0  0  0  0  0  0  0  0  0  0
   -3.7779    2.0725   -0.0000 C   0  0  0  0  0  0  0  0  0  0  0  0
    7.8637    0.3908   -0.0000 C   0  0  0  0  0  0  0  0  0  0  0  0
    6.7978    2.2265   -0.0000 C   0  0  0  0  0  0  0  0  0  0  0  0
    1.9896    8.1243   -0.0000 F   0  0  0  0  0  0  0  0  0  0  0  0
    2.7476    6.8334   -0.0000 F   0  0  0  0  0  0  0  0  0  0  0  0
   -0.0474    7.5676   -0.0000 C   0  0  0  0  0  0  0  0  0  0  0  0
   -4.0740   -0.4974   -0.0000 C   0  0  0  0  0  0  0  0  0  0  0  0
   -5.2820    2.2502   -0.0000 C   0  0  0  0  0  0  0  0  0  0  0  0
    8.2427    1.8475   -0.0000 N   0  0  0  0  0  0  0  0  0  0  0  0
   -0.0592    9.0717   -0.0000 O   0  0  0  0  0  0  0  0  0  0  0  0
   -5.5662   -0.3316   -0.0000 C   0  0  0  0  0  0  0  0  0  0  0  0
   -6.1820    1.0540   -0.0000 C   0  0  0  0  0  0  0  0  0  0  0  0
    9.5217    2.6054   -0.0000 C   0  0  0  0  0  0  0  0  0  0  0  0
   -7.6742    1.2317   -0.0000 F   0  0  0  0  0  0  0  0  0  0  0  0
   10.8008    1.8712   -0.0000 C   0  0  0  0  0  0  0  0  0  0  0  0
   12.0798    2.6291   -0.0000 C   0  0  0  0  0  0  0  0  0  0  0  0
   13.3588    1.8949   -0.0000 F   0  0  0  0  0  0  0  0  0  0  0  0
  1  2  1  0  0  0  0
  2  3  2  0  0  0  0
  2  4  1  0  0  0  0
  3  5  1  0  0  0  0
  6  3  1  6  0  0  0
  4  7  2  0  0  0  0
  5  8  1  0  0  0  0
  5  9  2  0  0  0  0
  6 10  1  0  0  0  0
  6 11  1  0  0  0  0
  7 12  1  0  0  0  0
 10 13  1  0  0  0  0
 10 14  1  0  0  0  0
 11 15  1  0  0  0  0
 11 16  2  0  0  0  0
 12 17  1  0  0  0  0
 13 18  1  0  0  0  0
 13 19  1  1  0  0  0
 14 20  1  0  0  0  0
 15 21  1  0  0  0  0
 16 22  1  0  0  0  0
 17 23  1  0  0  0  0
 17 24  1  0  0  0  0
 20 25  1  0  0  0  0
 20 26  1  0  0  0  0
 20 27  1  0  0  0  0
 21 28  1  0  0  0  0
 22 29  1  0  0  0  0
 23 30  1  0  0  0  0
 27 31  1  0  0  0  0
 28 32  2  0  0  0  0
 29 33  2  0  0  0  0
 30 34  1  0  0  0  0
 33 35  1  0  0  0  0
 34 36  1  0  0  0  0
 36 37  1  0  0  0  0
 37 38  1  0  0  0  0
  7  9  1  0  0  0  0
 16 18  1  0  0  0  0
 21 22  2  0  0  0  0
 24 30  1  0  0  0  0
 32 33  1  0  0  0  0
M  END
>  <MolRegNo>
2559814

>  <m>
=

>  <Value>
2700

>  <Unit>
nM

>  <Type>
IC50

>  <pValue>
5.57

>  <Ligand Efficiency>
0

>  <Binding Efficiency>
0

>  <Surface Efficiency>
0

>  <Assay Index>
1472211

>  <Assay Category>


>  <Assay Organism>
Homo sapiens

>  <Target ID>
17045

>  <Target Name>
Cytochrome P450 3A4

>  <Target Organism>
Homo sapiens

>  <Target Description>
Target is a single protein chain

>  <Sequence Accession>
P08684

>  <Reference>
J Med Chem 64 (16.0), 11841-11856 (2021)

>  <Pubmed ID>
34251202

>  <DOI>
10.1021/acs.jmedchem.1c00847

$$$$
2553005
Actelion Java MolfileCreator 1.0

 32 35  0  0  0  0  0  0  0  0999 V2000
    0.0000   -0.0000   -0.0000 Cl  0  0  0  0  0  0  0  0  0  0  0  0
   -1.3060   -0.7361   -0.0000 C   0  0  0  0  0  0  0  0  0  0  0  0
   -1.3179   -2.2321   -0.0000 C   0  0  0  0  0  0  0  0  0  0  0  0
   -2.6120    0.0237   -0.0000 C   0  0  0  0  0  0  0  0  0  0  0  0
   -2.6358   -2.9682   -0.0000 N   0  0  0  0  0  0  0  0  0  0  0  0
   -0.0356   -2.9682   -0.0000 N   0  0  0  0  0  0  0  0  0  0  0  0
   -3.9180   -0.7124   -0.0000 N   0  0  0  0  0  0  0  0  0  0  0  0
   -3.9418   -2.2083   -0.0000 C   0  0  0  0  0  0  0  0  0  0  0  0
    1.2466   -2.2083   -0.0000 C   0  0  0  0  0  0  0  0  0  0  0  0
   -5.2478   -2.9445   -0.0000 N   0  0  0  0  0  0  0  0  0  0  0  0
    2.5289   -2.9445   -0.0000 C   0  0  0  0  0  0  0  0  0  0  0  0
    1.2229   -0.7005   -0.0000 C   0  0  0  0  0  0  0  0  0  0  0  0
   -6.5538   -2.1846   -0.0000 C   0  0  0  0  0  0  0  0  0  0  0  0
    3.8112   -2.1846   -0.0000 C   0  0  0  0  0  0  0  0  0  0  0  0
    2.5052    0.0594   -0.0000 C   0  0  0  0  0  0  0  0  0  0  0  0
   -6.5538   -0.6768   -0.0000 N   0  0  0  0  0  0  0  0  0  0  0  0
   -7.8479   -2.9207   -0.0000 C   0  0  0  0  0  0  0  0  0  0  0  0
    3.7993   -0.6768   -0.0000 C   0  0  0  0  0  0  0  0  0  0  0  0
    5.0934   -2.9207   -0.0000 C   0  0  0  0  0  0  0  0  0  0  0  0
   -7.8598    0.0831   -0.0000 C   0  0  0  0  0  0  0  0  0  0  0  0
   -9.1540   -2.1609   -0.0000 C   0  0  0  0  0  0  0  0  0  0  0  0
    5.0816   -4.4048   -0.0000 F   0  0  0  0  0  0  0  0  0  0  0  0
    5.8177   -1.6028   -0.0000 F   0  0  0  0  0  0  0  0  0  0  0  0
    6.5776   -2.9088   -0.0000 F   0  0  0  0  0  0  0  0  0  0  0  0
   -9.1658   -0.6530   -0.0000 C   0  0  0  0  0  0  0  0  0  0  0  0
  -10.4837    0.1069   -0.0000 N   0  0  0  0  0  0  0  0  0  0  0  0
  -10.4956    1.6147   -0.0000 C   0  0  0  0  0  0  0  0  0  0  0  0
  -11.7897   -0.6293   -0.0000 C   0  0  0  0  0  0  0  0  0  0  0  0
  -11.8016    2.3746   -0.0000 C   0  0  0  0  0  0  0  0  0  0  0  0
  -13.0957    0.1425   -0.0000 C   0  0  0  0  0  0  0  0  0  0  0  0
  -13.0957    1.6385   -0.0000 N   0  0  0  0  0  0  0  0  0  0  0  0
  -14.4018    2.4102   -0.0000 C   0  0  0  0  0  0  0  0  0  0  0  0
  1  2  1  0  0  0  0
  2  3  2  0  0  0  0
  2  4  1  0  0  0  0
  3  5  1  0  0  0  0
  3  6  1  0  0  0  0
  4  7  2  0  0  0  0
  5  8  2  0  0  0  0
  6  9  1  0  0  0  0
  8 10  1  0  0  0  0
  9 11  2  0  0  0  0
  9 12  1  0  0  0  0
 10 13  1  0  0  0  0
 11 14  1  0  0  0  0
 12 15  2  0  0  0  0
 13 16  2  0  0  0  0
 13 17  1  0  0  0  0
 14 18  2  0  0  0  0
 14 19  1  0  0  0  0
 16 20  1  0  0  0  0
 17 21  2  0  0  0  0
 19 22  1  0  0  0  0
 19 23  1  0  0  0  0
 19 24  1  0  0  0  0
 20 25  2  0  0  0  0
 25 26  1  0  0  0  0
 26 27  1  0  0  0  0
 26 28  1  0  0  0  0
 27 29  1  0  0  0  0
 28 30  1  0  0  0  0
 29 31  1  0  0  0  0
 31 32  1  0  0  0  0
  7  8  1  0  0  0  0
 15 18  1  0  0  0  0
 21 25  1  0  0  0  0
 30 31  1  0  0  0  0
M  END
>  <MolRegNo>
2553005

>  <m>
=

>  <Value>
7130

>  <Unit>
nM

>  <Type>
IC50

>  <pValue>
5.15

>  <Ligand Efficiency>
0

>  <Binding Efficiency>
0

>  <Surface Efficiency>
0

>  <Assay Index>
1474640

>  <Assay Category>


>  <Assay Organism>
Homo sapiens

>  <Target ID>
17045

>  <Target Name>
Cytochrome P450 3A4

>  <Target Organism>
Homo sapiens

>  <Target Description>
Target is a single protein chain

>  <Sequence Accession>
P08684

>  <Reference>
J Med Chem 64 (16.0), 11857-11885 (2021)

>  <Pubmed ID>
34374541

>  <DOI>
10.1021/acs.jmedchem.1c00104

$$$$
2557406
Actelion Java MolfileCreator 1.0

 31 34  0  0  0  0  0  0  0  0999 V2000
    0.0000   -0.0000   -0.0000 Cl  0  0  0  0  0  0  0  0  0  0  0  0
    1.4828   -0.1424   -0.0000 C   0  0  0  0  0  0  0  0  0  0  0  0
    2.3607    1.0914   -0.0000 C   0  0  0  0  0  0  0  0  0  0  0  0
    2.0878   -1.5066   -0.0000 C   0  0  0  0  0  0  0  0  0  0  0  0
    3.8435    0.9490   -0.0000 C   0  0  0  0  0  0  0  0  0  0  0  0
    3.5707   -1.6489   -0.0000 C   0  0  0  0  0  0  0  0  0  0  0  0
    4.4367   -0.4152   -0.0000 C   0  0  0  0  0  0  0  0  0  0  0  0
    5.9195   -0.5575   -0.0000 C   0  0  0  0  0  0  0  0  0  0  0  0
    6.9160    0.5694   -0.0000 S   0  0  0  0  0  0  0  0  0  0  0  0
    6.6550   -1.8506   -0.0000 C   0  0  0  0  0  0  0  0  0  0  0  0
    8.2802   -0.0237   -0.0000 C   0  0  0  0  0  0  0  0  0  0  0  0
    8.1141   -1.5303   -0.0000 C   0  0  0  0  0  0  0  0  0  0  0  0
    9.5732    0.7355   -0.0000 C   0  0  0  0  0  0  0  0  0  0  0  0
    9.5613    2.2539   -0.0000 O   0  0  0  0  0  0  0  0  0  0  0  0
   10.8662   -0.0000   -0.0000 N   0  0  0  0  0  0  0  0  0  0  0  0
   12.1593    0.7592   -0.0000 C   0  0  0  0  0  0  0  0  0  0  0  0
   12.1474    2.2776   -0.0000 C   0  0  0  0  0  0  0  0  0  0  0  0
   13.4523    0.0237   -0.0000 C   0  0  0  0  0  0  0  0  0  0  0  0
   10.8307    3.0369   -0.0000 O   0  0  0  0  0  0  0  0  0  0  0  0
   13.4404    3.0369   -0.0000 C   0  0  0  0  0  0  0  0  0  0  0  0
   13.4404   -1.4710   -0.0000 N   0  0  0  0  0  0  0  0  0  0  0  0
   14.7335    2.2895   -0.0000 C   0  0  0  0  0  0  0  0  0  0  0  0
   13.4286    4.5434   -0.0000 C   0  0  0  0  0  0  0  0  0  0  0  0
   12.2186   -2.3488   -0.0000 C   0  0  0  0  0  0  0  0  0  0  0  0
   14.6623   -2.3488   -0.0000 C   0  0  0  0  0  0  0  0  0  0  0  0
   16.0265    3.0487   -0.0000 C   0  0  0  0  0  0  0  0  0  0  0  0
   14.7098    5.3145   -0.0000 C   0  0  0  0  0  0  0  0  0  0  0  0
   12.6694   -3.7723   -0.0000 N   0  0  0  0  0  0  0  0  0  0  0  0
   14.1878   -3.7723   -0.0000 C   0  0  0  0  0  0  0  0  0  0  0  0
   17.3196    2.3132   -0.0000 F   0  0  0  0  0  0  0  0  0  0  0  0
   16.0147    4.5671   -0.0000 C   0  0  0  0  0  0  0  0  0  0  0  0
  1  2  1  0  0  0  0
  2  3  2  0  0  0  0
  2  4  1  0  0  0  0
  3  5  1  0  0  0  0
  4  6  2  0  0  0  0
  5  7  2  0  0  0  0
  7  8  1  0  0  0  0
  8  9  1  0  0  0  0
  8 10  2  0  0  0  0
  9 11  1  0  0  0  0
 10 12  1  0  0  0  0
 11 13  1  0  0  0  0
 13 14  2  0  0  0  0
 13 15  1  0  0  0  0
 15 16  1  0  0  0  0
 16 17  1  0  0  0  0
 16 18  1  0  0  0  0
 17 19  2  0  0  0  0
 17 20  1  0  0  0  0
 18 21  1  0  0  0  0
 20 22  2  0  0  0  0
 20 23  1  0  0  0  0
 21 24  1  0  0  0  0
 21 25  1  0  0  0  0
 22 26  1  0  0  0  0
 23 27  2  0  0  0  0
 24 28  2  0  0  0  0
 25 29  2  0  0  0  0
 26 30  1  0  0  0  0
 26 31  2  0  0  0  0
  6  7  1  0  0  0  0
 11 12  2  0  0  0  0
 27 31  1  0  0  0  0
 28 29  1  0  0  0  0
M  END
>  <MolRegNo>
2557406

>  <m>
=

>  <Value>
1170

>  <Unit>
nM

>  <Type>
IC50

>  <pValue>
5.93

>  <Ligand Efficiency>
0

>  <Binding Efficiency>
0

>  <Surface Efficiency>
0

>  <Assay Index>
1475026

>  <Assay Category>


>  <Assay Organism>
Homo sapiens

>  <Target ID>
17045

>  <Target Name>
Cytochrome P450 3A4

>  <Target Organism>
Homo sapiens

>  <Target Description>
Target is a single protein chain

>  <Sequence Accession>
P08684

>  <Reference>


>  <Pubmed ID>
34388384

>  <DOI>
10.1016/j.ejmech.2021.113740

$$$$
2572082
Actelion Java MolfileCreator 1.0

 31 34  0  0  0  0  0  0  0  0999 V2000
    0.0000   -0.0000   -0.0000 Cl  0  0  0  0  0  0  0  0  0  0  0  0
    1.4823   -0.1423   -0.0000 C   0  0  0  0  0  0  0  0  0  0  0  0
    2.3599    1.0910   -0.0000 C   0  0  0  0  0  0  0  0  0  0  0  0
    2.0871   -1.5060   -0.0000 C   0  0  0  0  0  0  0  0  0  0  0  0
    3.8422    0.9487   -0.0000 C   0  0  0  0  0  0  0  0  0  0  0  0
    3.5694   -1.6483   -0.0000 C   0  0  0  0  0  0  0  0  0  0  0  0
    4.4351   -0.4150   -0.0000 C   0  0  0  0  0  0  0  0  0  0  0  0
    5.9174   -0.5574   -0.0000 C   0  0  0  0  0  0  0  0  0  0  0  0
    6.9135    0.5692   -0.0000 S   0  0  0  0  0  0  0  0  0  0  0  0
    6.6526   -1.8499   -0.0000 C   0  0  0  0  0  0  0  0  0  0  0  0
    8.2773   -0.0237   -0.0000 C   0  0  0  0  0  0  0  0  0  0  0  0
    8.1112   -1.5298   -0.0000 C   0  0  0  0  0  0  0  0  0  0  0  0
    9.5698    0.7352   -0.0000 C   0  0  0  0  0  0  0  0  0  0  0  0
    9.5580    2.2531   -0.0000 O   0  0  0  0  0  0  0  0  0  0  0  0
   10.8624   -0.0000   -0.0000 N   0  0  0  0  0  0  0  0  0  0  0  0
   12.1550    0.7589   -0.0000 C   0  0  0  0  0  0  0  0  0  0  0  0
   12.1431    2.2768   -0.0000 C   0  0  0  0  0  0  0  0  0  0  0  0
   13.4476    0.0237   -0.0000 C   0  0  0  0  0  0  0  0  0  0  0  0
   10.8269    3.0358   -0.0000 O   0  0  0  0  0  0  0  0  0  0  0  0
   13.4357    3.0358   -0.0000 C   0  0  0  0  0  0  0  0  0  0  0  0
   13.4357   -1.4705   -0.0000 N   0  0  0  0  0  0  0  0  0  0  0  0
   14.7283    2.2887   -0.0000 C   0  0  0  0  0  0  0  0  0  0  0  0
   13.4239    4.5418   -0.0000 C   0  0  0  0  0  0  0  0  0  0  0  0
   12.2143   -2.3480   -0.0000 C   0  0  0  0  0  0  0  0  0  0  0  0
   14.6572   -2.3480   -0.0000 C   0  0  0  0  0  0  0  0  0  0  0  0
   16.0209    3.0476   -0.0000 C   0  0  0  0  0  0  0  0  0  0  0  0
   14.7046    5.3126   -0.0000 C   0  0  0  0  0  0  0  0  0  0  0  0
   12.6649   -3.7710   -0.0000 N   0  0  0  0  0  0  0  0  0  0  0  0
   14.1828   -3.7710   -0.0000 C   0  0  0  0  0  0  0  0  0  0  0  0
   16.0090    4.5655   -0.0000 C   0  0  0  0  0  0  0  0  0  0  0  0
   17.3016    5.3363   -0.0000 C   0  0  0  0  0  0  0  0  0  0  0  0
  1  2  1  0  0  0  0
  2  3  2  0  0  0  0
  2  4  1  0  0  0  0
  3  5  1  0  0  0  0
  4  6  2  0  0  0  0
  5  7  2  0  0  0  0
  7  8  1  0  0  0  0
  8  9  1  0  0  0  0
  8 10  2  0  0  0  0
  9 11  1  0  0  0  0
 10 12  1  0  0  0  0
 11 13  1  0  0  0  0
 13 14  2  0  0  0  0
 13 15  1  0  0  0  0
 15 16  1  0  0  0  0
 16 17  1  0  0  0  0
 16 18  1  0  0  0  0
 17 19  2  0  0  0  0
 17 20  1  0  0  0  0
 18 21  1  0  0  0  0
 20 22  2  0  0  0  0
 20 23  1  0  0  0  0
 21 24  1  0  0  0  0
 21 25  1  0  0  0  0
 22 26  1  0  0  0  0
 23 27  2  0  0  0  0
 24 28  2  0  0  0  0
 25 29  2  0  0  0  0
 26 30  2  0  0  0  0
 30 31  1  0  0  0  0
  6  7  1  0  0  0  0
 11 12  2  0  0  0  0
 27 30  1  0  0  0  0
 28 29  1  0  0  0  0
M  END
>  <MolRegNo>
2572082

>  <m>
=

>  <Value>
1240

>  <Unit>
nM

>  <Type>
IC50

>  <pValue>
5.91

>  <Ligand Efficiency>
0

>  <Binding Efficiency>
0

>  <Surface Efficiency>
0

>  <Assay Index>
1475026

>  <Assay Category>


>  <Assay Organism>
Homo sapiens

>  <Target ID>
17045

>  <Target Name>
Cytochrome P450 3A4

>  <Target Organism>
Homo sapiens

>  <Target Description>
Target is a single protein chain

>  <Sequence Accession>
P08684

>  <Reference>


>  <Pubmed ID>
34388384

>  <DOI>
10.1016/j.ejmech.2021.113740

$$$$
2553973
Actelion Java MolfileCreator 1.0

 32 36  0  0  0  0  0  0  0  0999 V2000
    0.0000   -0.0000   -0.0000 S   0  0  0  0  0  0  0  0  0  0  0  0
    0.3770   -1.4373   -0.0000 O   0  0  0  0  0  0  0  0  0  0  0  0
   -1.0721   -1.0485   -0.0000 O   0  0  0  0  0  0  0  0  0  0  0  0
    1.4491    0.3181   -0.0000 C   0  0  0  0  0  0  0  0  0  0  0  0
   -1.0014    1.1310   -0.0000 C   0  0  0  0  0  0  0  0  0  0  0  0
    1.8967    1.7554   -0.0000 N   0  0  0  0  0  0  0  0  0  0  0  0
    2.4387   -0.7775   -0.0000 N   0  0  0  0  0  0  0  0  0  0  0  0
    3.3576    2.0852   -0.0000 C   0  0  0  0  0  0  0  0  0  0  0  0
    3.8877   -0.4477   -0.0000 C   0  0  0  0  0  0  0  0  0  0  0  0
    3.8053    3.5225   -0.0000 C   0  0  0  0  0  0  0  0  0  0  0  0
    4.3354    0.9896   -0.0000 C   0  0  0  0  0  0  0  0  0  0  0  0
    5.2190    4.0056   -0.0000 N   0  0  0  0  0  0  0  0  0  0  0  0
    2.9099    4.7478   -0.0000 C   0  0  0  0  0  0  0  0  0  0  0  0
    5.2072    5.5135   -0.0000 C   0  0  0  0  0  0  0  0  0  0  0  0
    6.6327    3.5461   -0.0000 C   0  0  0  0  0  0  0  0  0  0  0  0
    3.7817    5.9612   -0.0000 N   0  0  0  0  0  0  0  0  0  0  0  0
    1.4019    4.7595   -0.0000 C   0  0  0  0  0  0  0  0  0  0  0  0
    6.6209    5.9848   -0.0000 S   0  0  0  0  0  0  0  0  0  0  0  0
    7.5045    4.7713   -0.0000 C   0  0  0  0  0  0  0  0  0  0  0  0
    0.6480    6.0672   -0.0000 C   0  0  0  0  0  0  0  0  0  0  0  0
    0.6480    3.4754   -0.0000 C   0  0  0  0  0  0  0  0  0  0  0  0
   -0.8600    6.0790   -0.0000 C   0  0  0  0  0  0  0  0  0  0  0  0
   -0.8600    3.4872   -0.0000 C   0  0  0  0  0  0  0  0  0  0  0  0
   -1.6140    7.3867   -0.0000 O   0  0  0  0  0  0  0  0  0  0  0  0
   -1.6140    4.7949   -0.0000 C   0  0  0  0  0  0  0  0  0  0  0  0
   -0.8718    8.6944   -0.0000 C   0  0  0  0  0  0  0  0  0  0  0  0
   -1.6258   10.0021   -0.0000 C   0  0  0  0  0  0  0  0  0  0  0  0
   -0.8836   11.3098   -0.0000 C   0  0  0  0  0  0  0  0  0  0  0  0
   -3.1338   10.0139   -0.0000 C   0  0  0  0  0  0  0  0  0  0  0  0
   -1.6376   12.6175   -0.0000 C   0  0  0  0  0  0  0  0  0  0  0  0
   -3.8877   11.3216   -0.0000 C   0  0  0  0  0  0  0  0  0  0  0  0
   -3.1455   12.6293   -0.0000 C   0  0  0  0  0  0  0  0  0  0  0  0
  1  2  2  0  0  0  0
  1  3  2  0  0  0  0
  1  4  1  0  0  0  0
  1  5  1  0  0  0  0
  4  6  2  0  0  0  0
  4  7  1  0  0  0  0
  6  8  1  0  0  0  0
  7  9  2  0  0  0  0
  8 10  1  0  0  0  0
  8 11  2  0  0  0  0
 10 12  1  0  0  0  0
 10 13  2  0  0  0  0
 12 14  1  0  0  0  0
 12 15  1  0  0  0  0
 13 16  1  0  0  0  0
 13 17  1  0  0  0  0
 14 18  1  0  0  0  0
 15 19  2  0  0  0  0
 17 20  2  0  0  0  0
 17 21  1  0  0  0  0
 20 22  1  0  0  0  0
 21 23  2  0  0  0  0
 22 24  1  0  0  0  0
 22 25  2  0  0  0  0
 24 26  1  0  0  0  0
 26 27  1  0  0  0  0
 27 28  2  0  0  0  0
 27 29  1  0  0  0  0
 28 30  1  0  0  0  0
 29 31  2  0  0  0  0
 30 32  2  0  0  0  0
  9 11  1  0  0  0  0
 14 16  2  0  0  0  0
 18 19  1  0  0  0  0
 23 25  1  0  0  0  0
 31 32  1  0  0  0  0
M  END
>  <MolRegNo>
2553973

>  <m>
=

>  <Value>
17800

>  <Unit>
nM

>  <Type>
IC50

>  <pValue>
4.75

>  <Ligand Efficiency>
0

>  <Binding Efficiency>
0

>  <Surface Efficiency>
0

>  <Assay Index>
1476991

>  <Assay Category>


>  <Assay Organism>
Homo sapiens

>  <Target ID>
17045

>  <Target Name>
Cytochrome P450 3A4

>  <Target Organism>
Homo sapiens

>  <Target Description>
Target is a single protein chain

>  <Sequence Accession>
P08684

>  <Reference>


>  <Pubmed ID>
34237622

>  <DOI>
10.1016/j.ejmech.2021.113674

$$$$
2559873
Actelion Java MolfileCreator 1.0

 28 32  0  0  0  0  0  0  0  0999 V2000
    0.0000   -0.0000   -0.0000 S   0  0  0  0  0  0  0  0  0  0  0  0
   -1.4384   -0.4598   -0.0000 C   0  0  0  0  0  0  0  0  0  0  0  0
    0.8725   -1.2026   -0.0000 C   0  0  0  0  0  0  0  0  0  0  0  0
   -2.8769    0.0236   -0.0000 N   0  0  0  0  0  0  0  0  0  0  0  0
   -1.4502   -1.9454   -0.0000 N   0  0  0  0  0  0  0  0  0  0  0  0
   -0.0236   -2.4052   -0.0000 C   0  0  0  0  0  0  0  0  0  0  0  0
   -3.7729   -1.1790   -0.0000 C   0  0  0  0  0  0  0  0  0  0  0  0
   -2.8886   -2.4052   -0.0000 C   0  0  0  0  0  0  0  0  0  0  0  0
   -5.2821   -1.1672   -0.0000 C   0  0  0  0  0  0  0  0  0  0  0  0
   -3.3603   -3.8201   -0.0000 C   0  0  0  0  0  0  0  0  0  0  0  0
   -6.0485   -2.4524   -0.0000 C   0  0  0  0  0  0  0  0  0  0  0  0
   -6.0485    0.1415   -0.0000 C   0  0  0  0  0  0  0  0  0  0  0  0
   -2.3699   -4.9166   -0.0000 N   0  0  0  0  0  0  0  0  0  0  0  0
   -4.8459   -4.1148   -0.0000 C   0  0  0  0  0  0  0  0  0  0  0  0
   -7.5576   -2.4406   -0.0000 C   0  0  0  0  0  0  0  0  0  0  0  0
   -7.5576    0.1533   -0.0000 C   0  0  0  0  0  0  0  0  0  0  0  0
   -2.8533   -6.3314   -0.0000 C   0  0  0  0  0  0  0  0  0  0  0  0
   -5.3175   -5.5297   -0.0000 C   0  0  0  0  0  0  0  0  0  0  0  0
   -8.3240   -3.7258   -0.0000 O   0  0  0  0  0  0  0  0  0  0  0  0
   -8.3240   -1.1319   -0.0000 C   0  0  0  0  0  0  0  0  0  0  0  0
   -4.3271   -6.6380   -0.0000 N   0  0  0  0  0  0  0  0  0  0  0  0
   -9.8332   -3.7140   -0.0000 C   0  0  0  0  0  0  0  0  0  0  0  0
  -10.5996   -4.9991   -0.0000 C   0  0  0  0  0  0  0  0  0  0  0  0
  -12.1087   -4.9873   -0.0000 C   0  0  0  0  0  0  0  0  0  0  0  0
   -9.8686   -6.2725   -0.0000 C   0  0  0  0  0  0  0  0  0  0  0  0
  -12.8751   -6.2725   -0.0000 C   0  0  0  0  0  0  0  0  0  0  0  0
  -10.6231   -7.5576   -0.0000 C   0  0  0  0  0  0  0  0  0  0  0  0
  -12.1441   -7.5576   -0.0000 C   0  0  0  0  0  0  0  0  0  0  0  0
  1  2  1  0  0  0  0
  1  3  1  0  0  0  0
  2  4  2  0  0  0  0
  2  5  1  0  0  0  0
  3  6  2  0  0  0  0
  4  7  1  0  0  0  0
  5  8  1  0  0  0  0
  7  9  1  0  0  0  0
  8 10  1  0  0  0  0
  9 11  2  0  0  0  0
  9 12  1  0  0  0  0
 10 13  2  0  0  0  0
 10 14  1  0  0  0  0
 11 15  1  0  0  0  0
 12 16  2  0  0  0  0
 13 17  1  0  0  0  0
 14 18  2  0  0  0  0
 15 19  1  0  0  0  0
 15 20  2  0  0  0  0
 17 21  2  0  0  0  0
 19 22  1  0  0  0  0
 22 23  1  0  0  0  0
 23 24  2  0  0  0  0
 23 25  1  0  0  0  0
 24 26  1  0  0  0  0
 25 27  2  0  0  0  0
 26 28  2  0  0  0  0
  5  6  1  0  0  0  0
  7  8  2  0  0  0  0
 16 20  1  0  0  0  0
 18 21  1  0  0  0  0
 27 28  1  0  0  0  0
M  END
>  <MolRegNo>
2559873

>  <m>
=

>  <Value>
20910

>  <Unit>
nM

>  <Type>
IC50

>  <pValue>
4.68

>  <Ligand Efficiency>
0

>  <Binding Efficiency>
0

>  <Surface Efficiency>
0

>  <Assay Index>
1476991

>  <Assay Category>


>  <Assay Organism>
Homo sapiens

>  <Target ID>
17045

>  <Target Name>
Cytochrome P450 3A4

>  <Target Organism>
Homo sapiens

>  <Target Description>
Target is a single protein chain

>  <Sequence Accession>
P08684

>  <Reference>


>  <Pubmed ID>
34237622

>  <DOI>
10.1016/j.ejmech.2021.113674

$$$$
2541779
Actelion Java MolfileCreator 1.0

 32 35  0  0  0  0  0  0  0  0999 V2000
    0.0000   -0.0000   -0.0000 S   0  0  0  0  0  0  0  0  0  0  0  0
    0.0000    1.5103   -0.0000 C   0  0  0  0  0  0  0  0  0  0  0  0
    1.2862   -0.7434   -0.0000 C   0  0  0  0  0  0  0  0  0  0  0  0
    1.2744    2.2655   -0.0000 C   0  0  0  0  0  0  0  0  0  0  0  0
    2.5723    0.0118   -0.0000 C   0  0  0  0  0  0  0  0  0  0  0  0
    1.2626    3.7759   -0.0000 C   0  0  0  0  0  0  0  0  0  0  0  0
    2.5605    1.5221   -0.0000 C   0  0  0  0  0  0  0  0  0  0  0  0
   -0.0472    4.5310   -0.0000 O   0  0  0  0  0  0  0  0  0  0  0  0
    2.5369    4.5310   -0.0000 N   0  0  0  0  0  0  0  0  0  0  0  0
    3.8467    2.2891   -0.0000 N   0  0  0  0  0  0  0  0  0  0  0  0
   -0.0590    6.0414   -0.0000 C   0  0  0  0  0  0  0  0  0  0  0  0
    3.8231    3.7995   -0.0000 C   0  0  0  0  0  0  0  0  0  0  0  0
   -1.3570    6.7848   -0.0000 C   0  0  0  0  0  0  0  0  0  0  0  0
    1.2272    6.7966   -0.0000 C   0  0  0  0  0  0  0  0  0  0  0  0
    5.0974    4.5664   -0.0000 N   0  0  0  0  0  0  0  0  0  0  0  0
   -1.3806    8.2833   -0.0000 C   0  0  0  0  0  0  0  0  0  0  0  0
   -2.6549    6.0414   -0.0000 C   0  0  0  0  0  0  0  0  0  0  0  0
    1.2154    8.3069   -0.0000 C   0  0  0  0  0  0  0  0  0  0  0  0
    2.5133    6.0650   -0.0000 C   0  0  0  0  0  0  0  0  0  0  0  0
    5.0856    6.0768   -0.0000 C   0  0  0  0  0  0  0  0  0  0  0  0
   -0.0944    9.0503   -0.0000 C   0  0  0  0  0  0  0  0  0  0  0  0
    6.3718    6.8320   -0.0000 C   0  0  0  0  0  0  0  0  0  0  0  0
    3.7759    6.8202   -0.0000 C   0  0  0  0  0  0  0  0  0  0  0  0
   -0.1062   10.5488   -0.0000 C   0  0  0  0  0  0  0  0  0  0  0  0
    6.3600    8.3423   -0.0000 C   0  0  0  0  0  0  0  0  0  0  0  0
    3.7523    8.3187   -0.0000 C   0  0  0  0  0  0  0  0  0  0  0  0
   -1.4159   11.3040   -0.0000 C   0  0  0  0  0  0  0  0  0  0  0  0
    5.0502    9.0975   -0.0000 C   0  0  0  0  0  0  0  0  0  0  0  0
   -1.4277   12.8143   -0.0000 C   0  0  0  0  0  0  0  0  0  0  0  0
    5.0266   10.5960   -0.0000 C   0  0  0  0  0  0  0  0  0  0  0  0
   -1.4277   14.3129   -0.0000 N   0  0  0  0  0  0  0  0  0  0  0  0
    5.0030   12.1064   -0.0000 N   0  0  0  0  0  0  0  0  0  0  0  0
  1  2  1  0  0  0  0
  1  3  1  0  0  0  0
  2  4  1  0  0  0  0
  3  5  1  0  0  0  0
  4  6  2  0  0  0  0
  4  7  1  0  0  0  0
  6  8  1  0  0  0  0
  6  9  1  0  0  0  0
  7 10  2  0  0  0  0
  8 11  1  0  0  0  0
  9 12  2  0  0  0  0
 11 13  2  0  0  0  0
 11 14  1  0  0  0  0
 12 15  1  0  0  0  0
 13 16  1  0  0  0  0
 13 17  1  0  0  0  0
 14 18  2  0  0  0  0
 14 19  1  0  0  0  0
 15 20  1  0  0  0  0
 16 21  2  0  0  0  0
 20 22  2  0  0  0  0
 20 23  1  0  0  0  0
 21 24  1  0  0  0  0
 22 25  1  0  0  0  0
 23 26  2  0  0  0  0
 24 27  2  0  0  0  0
 25 28  2  0  0  0  0
 27 29  1  0  0  0  0
 28 30  1  0  0  0  0
 29 31  3  0  0  0  0
 30 32  3  0  0  0  0
  5  7  1  0  0  0  0
 10 12  1  0  0  0  0
 18 21  1  0  0  0  0
 26 28  1  0  0  0  0
M  END
>  <MolRegNo>
2541779

>  <m>
=

>  <Value>
53900

>  <Unit>
nM

>  <Type>
IC50

>  <pValue>
4.27

>  <Ligand Efficiency>
0

>  <Binding Efficiency>
0

>  <Surface Efficiency>
0

>  <Assay Index>
1477528

>  <Assay Category>


>  <Assay Organism>
Homo sapiens

>  <Target ID>
17045

>  <Target Name>
Cytochrome P450 3A4

>  <Target Organism>
Homo sapiens

>  <Target Description>
Target is a single protein chain

>  <Sequence Accession>
P08684

>  <Reference>
J Med Chem 64 (18.0), 13658-13675 (2021)

>  <Pubmed ID>
34432448

>  <DOI>
10.1021/acs.jmedchem.1c01015

$$$$
72036
Actelion Java MolfileCreator 1.0

 36 40  0  0  0  0  0  0  0  0999 V2000
    0.0000   -0.0000   -0.0000 Cl  0  0  0  0  0  0  0  0  0  0  0  0
    0.4692   -1.1069   -0.0000 C   0  0  0  0  0  0  0  0  0  0  0  0
    1.9733   -1.2754   -0.0000 C   0  0  0  0  0  0  0  0  0  0  0  0
   -0.4572   -2.3102   -0.0000 C   0  0  0  0  0  0  0  0  0  0  0  0
    2.5628   -2.6711   -0.0000 C   0  0  0  0  0  0  0  0  0  0  0  0
    2.8757   -0.0481   -0.0000 C   0  0  0  0  0  0  0  0  0  0  0  0
    0.1324   -3.7059   -0.0000 C   0  0  0  0  0  0  0  0  0  0  0  0
    1.6364   -3.8743   -0.0000 C   0  0  0  0  0  0  0  0  0  0  0  0
    1.3717    0.2888   -0.0000 O   0  0  0  0  0  0  0  0  0  0  0  0
    3.6337    1.2874   -0.0000 O   0  0  0  0  0  0  0  0  0  0  0  0
    4.3676   -0.1684   -0.0000 C   0  0  0  0  0  0  0  0  0  0  0  0
   -0.6136   -4.6684   -0.0000 Cl  0  0  0  0  0  0  0  0  0  0  0  0
    1.2273    1.8048   -0.0000 C   0  0  0  0  0  0  0  0  0  0  0  0
    2.5989    2.4305   -0.0000 C   0  0  0  0  0  0  0  0  0  0  0  0
    5.2580    1.0829   -0.0000 N   0  0  0  0  0  0  0  0  0  0  0  0
   -0.1083    2.5869   -0.0000 C   0  0  0  0  0  0  0  0  0  0  0  0
    4.7406    2.5267   -0.0000 C   0  0  0  0  0  0  0  0  0  0  0  0
    6.7620    1.0949   -0.0000 C   0  0  0  0  0  0  0  0  0  0  0  0
   -0.1203    4.1270   -0.0000 O   0  0  0  0  0  0  0  0  0  0  0  0
    5.9559    3.4532   -0.0000 N   0  0  0  0  0  0  0  0  0  0  0  0
    7.2072    2.5628   -0.0000 C   0  0  0  0  0  0  0  0  0  0  0  0
   -1.4559    4.9091   -0.0000 C   0  0  0  0  0  0  0  0  0  0  0  0
   -1.4679    6.4492   -0.0000 C   0  0  0  0  0  0  0  0  0  0  0  0
   -2.7914    4.1631   -0.0000 C   0  0  0  0  0  0  0  0  0  0  0  0
   -2.8035    7.2313   -0.0000 C   0  0  0  0  0  0  0  0  0  0  0  0
   -4.1270    4.9452   -0.0000 C   0  0  0  0  0  0  0  0  0  0  0  0
   -4.1390    6.4853   -0.0000 C   0  0  0  0  0  0  0  0  0  0  0  0
   -5.4746    7.2553   -0.0000 N   0  0  0  0  0  0  0  0  0  0  0  0
   -5.4866    8.7954   -0.0000 C   0  0  0  0  0  0  0  0  0  0  0  0
   -6.8101    6.5093   -0.0000 C   0  0  0  0  0  0  0  0  0  0  0  0
   -6.8222    9.5655   -0.0000 C   0  0  0  0  0  0  0  0  0  0  0  0
   -8.1457    7.2794   -0.0000 C   0  0  0  0  0  0  0  0  0  0  0  0
   -8.1577    8.8195   -0.0000 N   0  0  0  0  0  0  0  0  0  0  0  0
   -9.4933    9.5895   -0.0000 C   0  0  0  0  0  0  0  0  0  0  0  0
  -10.5641    8.9879   -0.0000 O   0  0  0  0  0  0  0  0  0  0  0  0
   -9.5053   10.8288   -0.0000 C   0  0  0  0  0  0  0  0  0  0  0  0
  1  2  1  0  0  0  0
  2  3  2  0  0  0  0
  2  4  1  0  0  0  0
  3  5  1  0  0  0  0
  3  6  1  0  0  0  0
  4  7  2  0  0  0  0
  5  8  2  0  0  0  0
  6  9  1  0  0  0  0
  6 10  1  0  0  0  0
  6 11  1  1  0  0  0
  7 12  1  0  0  0  0
  9 13  1  0  0  0  0
 10 14  1  0  0  0  0
 11 15  1  0  0  0  0
 13 16  1  1  0  0  0
 15 17  1  0  0  0  0
 15 18  1  0  0  0  0
 16 19  1  0  0  0  0
 17 20  2  0  0  0  0
 18 21  2  0  0  0  0
 19 22  1  0  0  0  0
 22 23  2  0  0  0  0
 22 24  1  0  0  0  0
 23 25  1  0  0  0  0
 24 26  2  0  0  0  0
 25 27  2  0  0  0  0
 27 28  1  0  0  0  0
 28 29  1  0  0  0  0
 28 30  1  0  0  0  0
 29 31  1  0  0  0  0
 30 32  1  0  0  0  0
 31 33  1  0  0  0  0
 33 34  1  0  0  0  0
 34 35  2  0  0  0  0
 34 36  1  0  0  0  0
  7  8  1  0  0  0  0
 13 14  1  0  0  0  0
 20 21  1  0  0  0  0
 26 27  1  0  0  0  0
 32 33  1  0  0  0  0
M  END
>  <MolRegNo>
72036

>  <m>
=

>  <Value>
26.9

>  <Unit>
nM

>  <Type>
IC50

>  <pValue>
7.57

>  <Ligand Efficiency>
0

>  <Binding Efficiency>
0

>  <Surface Efficiency>
0

>  <Assay Index>
1477528

>  <Assay Category>


>  <Assay Organism>
Homo sapiens

>  <Target ID>
17045

>  <Target Name>
Cytochrome P450 3A4

>  <Target Organism>
Homo sapiens

>  <Target Description>
Target is a single protein chain

>  <Sequence Accession>
P08684

>  <Reference>
J Med Chem 64 (18.0), 13658-13675 (2021)

>  <Pubmed ID>
34432448

>  <DOI>
10.1021/acs.jmedchem.1c01015

$$$$
2556452
Actelion Java MolfileCreator 1.0

 45 50  0  0  0  0  0  0  0  0999 V2000
    0.0000   -0.0000   -0.0000 O   0  0  0  0  0  0  0  0  0  0  0  0
   -0.0238   -1.4865   -0.0000 C   0  0  0  0  0  0  0  0  0  0  0  0
   -1.3319   -2.2238   -0.0000 N   0  0  0  0  0  0  0  0  0  0  0  0
    1.2605   -2.2357   -0.0000 C   0  0  0  0  0  0  0  0  0  0  0  0
   -1.3557   -3.7102   -0.0000 C   0  0  0  0  0  0  0  0  0  0  0  0
    1.2605   -3.7221   -0.0000 C   0  0  0  0  0  0  0  0  0  0  0  0
    2.5448   -1.4746   -0.0000 C   0  0  0  0  0  0  0  0  0  0  0  0
   -0.0714   -4.4475   -0.0000 C   0  0  0  0  0  0  0  0  0  0  0  0
   -2.6757   -4.4475   -0.0000 C   0  0  0  0  0  0  0  0  0  0  0  0
    2.5448   -4.4594   -0.0000 C   0  0  0  0  0  0  0  0  0  0  0  0
    3.8292   -2.2119   -0.0000 N   0  0  0  0  0  0  0  0  0  0  0  0
    5.1135   -1.4508   -0.0000 C   0  0  0  0  0  0  0  0  0  0  0  0
    6.3978   -2.1881   -0.0000 O   0  0  0  0  0  0  0  0  0  0  0  0
    5.1016    0.0595   -0.0000 C   0  0  0  0  0  0  0  0  0  0  0  0
    3.7935    0.8205   -0.0000 C   0  0  0  0  0  0  0  0  0  0  0  0
    6.3978    0.8205   -0.0000 C   0  0  0  0  0  0  0  0  0  0  0  0
    3.7816    2.3427   -0.0000 C   0  0  0  0  0  0  0  0  0  0  0  0
    2.4854    0.0832   -0.0000 C   0  0  0  0  0  0  0  0  0  0  0  0
    6.3859    2.3427   -0.0000 C   0  0  0  0  0  0  0  0  0  0  0  0
    2.4735    3.1038   -0.0000 N   0  0  0  0  0  0  0  0  0  0  0  0
    5.0659    3.1038   -0.0000 C   0  0  0  0  0  0  0  0  0  0  0  0
    7.6702    3.1038   -0.0000 C   0  0  0  0  0  0  0  0  0  0  0  0
    2.4616    4.6140   -0.0000 C   0  0  0  0  0  0  0  0  0  0  0  0
    1.1654    2.3665   -0.0000 C   0  0  0  0  0  0  0  0  0  0  0  0
    7.6464    4.6140   -0.0000 C   0  0  0  0  0  0  0  0  0  0  0  0
    8.9664    2.3665   -0.0000 C   0  0  0  0  0  0  0  0  0  0  0  0
    3.7578    5.3751   -0.0000 O   0  0  0  0  0  0  0  0  0  0  0  0
    1.1535    5.3751   -0.0000 C   0  0  0  0  0  0  0  0  0  0  0  0
   -0.1427    3.1275   -0.0000 C   0  0  0  0  0  0  0  0  0  0  0  0
    8.9307    5.3870   -0.0000 N   0  0  0  0  0  0  0  0  0  0  0  0
    6.3264    5.3632   -0.0000 C   0  0  0  0  0  0  0  0  0  0  0  0
   10.2507    3.1275   -0.0000 C   0  0  0  0  0  0  0  0  0  0  0  0
    0.3805    6.6713   -0.0000 C   0  0  0  0  0  0  0  0  0  0  0  0
   -0.3568    5.3751   -0.0000 C   0  0  0  0  0  0  0  0  0  0  0  0
   10.2269    4.6497   -0.0000 C   0  0  0  0  0  0  0  0  0  0  0  0
   11.5112    5.4227   -0.0000 N   0  0  0  0  0  0  0  0  0  0  0  0
   12.8075    4.6735   -0.0000 C   0  0  0  0  0  0  0  0  0  0  0  0
   11.4875    6.9210   -0.0000 C   0  0  0  0  0  0  0  0  0  0  0  0
   14.0918    5.4345   -0.0000 C   0  0  0  0  0  0  0  0  0  0  0  0
   12.7837    7.6821   -0.0000 C   0  0  0  0  0  0  0  0  0  0  0  0
   14.0799    6.9448   -0.0000 N   0  0  0  0  0  0  0  0  0  0  0  0
   15.3642    7.7059   -0.0000 C   0  0  0  0  0  0  0  0  0  0  0  0
   16.6485    6.9686   -0.0000 C   0  0  0  0  0  0  0  0  0  0  0  0
   17.3858    5.6843   -0.0000 C   0  0  0  0  0  0  0  0  0  0  0  0
   18.1350    6.9924   -0.0000 C   0  0  0  0  0  0  0  0  0  0  0  0
  1  2  2  0  0  0  0
  2  3  1  0  0  0  0
  2  4  1  0  0  0  0
  3  5  1  0  0  0  0
  4  6  2  0  0  0  0
  4  7  1  0  0  0  0
  5  8  2  0  0  0  0
  5  9  1  0  0  0  0
  6 10  1  0  0  0  0
  7 11  1  0  0  0  0
 11 12  1  0  0  0  0
 12 13  2  0  0  0  0
 12 14  1  0  0  0  0
 14 15  2  0  0  0  0
 14 16  1  0  0  0  0
 15 17  1  0  0  0  0
 15 18  1  0  0  0  0
 16 19  2  0  0  0  0
 17 20  1  0  0  0  0
 17 21  2  0  0  0  0
 19 22  1  0  0  0  0
 20 23  1  0  0  0  0
 20 24  1  0  0  0  0
 22 25  2  0  0  0  0
 22 26  1  0  0  0  0
 23 27  2  0  0  0  0
 23 28  1  0  0  0  0
 24 29  1  0  0  0  0
 25 30  1  0  0  0  0
 25 31  1  0  0  0  0
 26 32  2  0  0  0  0
 28 33  1  0  0  0  0
 28 34  1  0  0  0  0
 30 35  2  0  0  0  0
 35 36  1  0  0  0  0
 36 37  1  0  0  0  0
 36 38  1  0  0  0  0
 37 39  1  0  0  0  0
 38 40  1  0  0  0  0
 39 41  1  0  0  0  0
 41 42  1  0  0  0  0
 42 43  1  0  0  0  0
 43 44  1  0  0  0  0
 43 45  1  0  0  0  0
  6  8  1  0  0  0  0
 19 21  1  0  0  0  0
 32 35  1  0  0  0  0
 33 34  1  0  0  0  0
 40 41  1  0  0  0  0
 44 45  1  0  0  0  0
M  END
>  <MolRegNo>
2556452

>  <m>
=

>  <Value>
7580

>  <Unit>
nM

>  <Type>
IC50

>  <pValue>
5.12

>  <Ligand Efficiency>
0

>  <Binding Efficiency>
0

>  <Surface Efficiency>
0

>  <Assay Index>
1478381

>  <Assay Category>


>  <Assay Organism>
Homo sapiens

>  <Target ID>
17045

>  <Target Name>
Cytochrome P450 3A4

>  <Target Organism>
Homo sapiens

>  <Target Description>
Target is a single protein chain

>  <Sequence Accession>
P08684

>  <Reference>
J Med Chem 64 (20.0), 15170-15188 (2021)

>  <Pubmed ID>
34664960

>  <DOI>
10.1021/acs.jmedchem.1c01154

$$$$
2551044
Actelion Java MolfileCreator 1.0

 31 35  0  0  0  0  0  0  0  0999 V2000
    0.0000   -0.0000   -0.0000 S   0  0  0  0  0  0  0  0  0  0  0  0
   -1.5059    0.1304   -0.0000 C   0  0  0  0  0  0  0  0  0  0  0  0
    0.3439   -1.4466   -0.0000 C   0  0  0  0  0  0  0  0  0  0  0  0
   -2.0870   -1.2332   -0.0000 N   0  0  0  0  0  0  0  0  0  0  0  0
   -2.1344    1.5059   -0.0000 C   0  0  0  0  0  0  0  0  0  0  0  0
   -0.9368   -2.2174   -0.0000 C   0  0  0  0  0  0  0  0  0  0  0  0
   -1.2688    2.7273   -0.0000 O   0  0  0  0  0  0  0  0  0  0  0  0
   -3.6285    1.6719   -0.0000 N   0  0  0  0  0  0  0  0  0  0  0  0
   -4.6364    0.5692   -0.0000 C   0  0  0  0  0  0  0  0  0  0  0  0
   -4.3874    2.9763   -0.0000 C   0  0  0  0  0  0  0  0  0  0  0  0
   -6.0119    1.1739   -0.0000 C   0  0  0  0  0  0  0  0  0  0  0  0
   -5.8577    2.6799   -0.0000 C   0  0  0  0  0  0  0  0  0  0  0  0
   -7.3162    0.4387   -0.0000 N   0  0  0  0  0  0  0  0  0  0  0  0
   -8.6206    1.1976   -0.0000 C   0  0  0  0  0  0  0  0  0  0  0  0
   -8.6325    2.7154   -0.0000 N   0  0  0  0  0  0  0  0  0  0  0  0
   -9.9368    0.4625   -0.0000 N   0  0  0  0  0  0  0  0  0  0  0  0
   -9.9368    3.4743   -0.0000 C   0  0  0  0  0  0  0  0  0  0  0  0
  -11.2412    1.2213   -0.0000 C   0  0  0  0  0  0  0  0  0  0  0  0
   -9.9487    4.9803   -0.0000 N   0  0  0  0  0  0  0  0  0  0  0  0
  -11.2412    2.7391   -0.0000 C   0  0  0  0  0  0  0  0  0  0  0  0
   -8.7629    5.8815   -0.0000 C   0  0  0  0  0  0  0  0  0  0  0  0
  -11.1819    5.8696   -0.0000 C   0  0  0  0  0  0  0  0  0  0  0  0
   -9.2372    7.3162   -0.0000 N   0  0  0  0  0  0  0  0  0  0  0  0
   -7.3518    5.4427   -0.0000 C   0  0  0  0  0  0  0  0  0  0  0  0
  -10.7313    7.3044   -0.0000 C   0  0  0  0  0  0  0  0  0  0  0  0
   -7.0435    3.9961   -0.0000 C   0  0  0  0  0  0  0  0  0  0  0  0
   -6.2609    6.4625   -0.0000 C   0  0  0  0  0  0  0  0  0  0  0  0
  -11.6206    8.5257   -0.0000 C   0  0  0  0  0  0  0  0  0  0  0  0
   -5.6324    3.5573   -0.0000 C   0  0  0  0  0  0  0  0  0  0  0  0
   -4.8498    6.0237   -0.0000 C   0  0  0  0  0  0  0  0  0  0  0  0
   -4.5415    4.5771   -0.0000 C   0  0  0  0  0  0  0  0  0  0  0  0
  1  2  1  0  0  0  0
  1  3  1  0  0  0  0
  2  4  2  0  0  0  0
  2  5  1  0  0  0  0
  3  6  2  0  0  0  0
  5  7  2  0  0  0  0
  5  8  1  0  0  0  0
  8  9  1  0  0  0  0
  8 10  1  0  0  0  0
  9 11  1  0  0  0  0
 10 12  1  0  0  0  0
 11 13  1  1  0  0  0
 13 14  1  0  0  0  0
 14 15  2  0  0  0  0
 14 16  1  0  0  0  0
 15 17  1  0  0  0  0
 16 18  2  0  0  0  0
 17 19  1  0  0  0  0
 17 20  2  0  0  0  0
 19 21  1  0  0  0  0
 19 22  1  0  0  0  0
 21 23  2  0  0  0  0
 21 24  1  0  0  0  0
 22 25  2  0  0  0  0
 24 26  2  0  0  0  0
 24 27  1  0  0  0  0
 25 28  1  0  0  0  0
 26 29  1  0  0  0  0
 27 30  2  0  0  0  0
 29 31  2  0  0  0  0
  4  6  1  0  0  0  0
 11 12  1  0  0  0  0
 18 20  1  0  0  0  0
 23 25  1  0  0  0  0
 30 31  1  0  0  0  0
M  END
>  <MolRegNo>
2551044

>  <m>
=

>  <Value>
940

>  <Unit>
nM

>  <Type>
IC50

>  <pValue>
6.03

>  <Ligand Efficiency>
0

>  <Binding Efficiency>
0

>  <Surface Efficiency>
0

>  <Assay Index>
1479043

>  <Assay Category>


>  <Assay Organism>
Homo sapiens

>  <Target ID>
17045

>  <Target Name>
Cytochrome P450 3A4

>  <Target Organism>
Homo sapiens

>  <Target Description>
Target is a single protein chain

>  <Sequence Accession>
P08684

>  <Reference>
ACS Med Chem Lett 12 (12.0), 1962-1967 (2021)

>  <Pubmed ID>
34917261

>  <DOI>
10.1021/acsmedchemlett.1c00540

$$$$
2570109
Actelion Java MolfileCreator 1.0

 33 38  0  0  0  0  0  0  0  0999 V2000
    0.0000   -0.0000   -0.0000 S   0  0  0  0  0  0  0  0  0  0  0  0
   -1.5053    0.1304   -0.0000 C   0  0  0  0  0  0  0  0  0  0  0  0
    0.3437   -1.4461   -0.0000 C   0  0  0  0  0  0  0  0  0  0  0  0
   -2.0861   -1.2446   -0.0000 N   0  0  0  0  0  0  0  0  0  0  0  0
   -2.1336    1.5053   -0.0000 C   0  0  0  0  0  0  0  0  0  0  0  0
   -0.9364   -2.2165   -0.0000 C   0  0  0  0  0  0  0  0  0  0  0  0
   -1.2683    2.7262   -0.0000 O   0  0  0  0  0  0  0  0  0  0  0  0
   -3.6270    1.6713   -0.0000 N   0  0  0  0  0  0  0  0  0  0  0  0
   -4.6346    0.5689   -0.0000 C   0  0  0  0  0  0  0  0  0  0  0  0
   -4.3856    2.9751   -0.0000 C   0  0  0  0  0  0  0  0  0  0  0  0
   -6.0095    1.1735   -0.0000 C   0  0  0  0  0  0  0  0  0  0  0  0
   -5.8554    2.6788   -0.0000 C   0  0  0  0  0  0  0  0  0  0  0  0
   -7.3133    0.4386   -0.0000 N   0  0  0  0  0  0  0  0  0  0  0  0
   -8.6172    1.1972   -0.0000 C   0  0  0  0  0  0  0  0  0  0  0  0
   -8.6290    2.7144   -0.0000 N   0  0  0  0  0  0  0  0  0  0  0  0
   -9.9329    0.4623   -0.0000 N   0  0  0  0  0  0  0  0  0  0  0  0
   -9.9329    3.4730   -0.0000 C   0  0  0  0  0  0  0  0  0  0  0  0
  -11.2367    1.2209   -0.0000 C   0  0  0  0  0  0  0  0  0  0  0  0
   -9.9447    4.9783   -0.0000 N   0  0  0  0  0  0  0  0  0  0  0  0
  -11.2367    2.7381   -0.0000 C   0  0  0  0  0  0  0  0  0  0  0  0
   -8.7594    5.8791   -0.0000 C   0  0  0  0  0  0  0  0  0  0  0  0
  -11.1774    5.8673   -0.0000 C   0  0  0  0  0  0  0  0  0  0  0  0
   -9.2335    7.3133   -0.0000 N   0  0  0  0  0  0  0  0  0  0  0  0
   -7.3489    5.4406   -0.0000 C   0  0  0  0  0  0  0  0  0  0  0  0
  -10.7270    7.3015   -0.0000 C   0  0  0  0  0  0  0  0  0  0  0  0
   -7.0407    3.9945   -0.0000 C   0  0  0  0  0  0  0  0  0  0  0  0
   -6.2584    6.4599   -0.0000 C   0  0  0  0  0  0  0  0  0  0  0  0
  -11.6160    8.5224   -0.0000 C   0  0  0  0  0  0  0  0  0  0  0  0
   -5.6302    3.5559   -0.0000 C   0  0  0  0  0  0  0  0  0  0  0  0
   -4.8479    6.0214   -0.0000 C   0  0  0  0  0  0  0  0  0  0  0  0
  -11.7938   10.0158   -0.0000 C   0  0  0  0  0  0  0  0  0  0  0  0
  -13.0028    9.1269   -0.0000 C   0  0  0  0  0  0  0  0  0  0  0  0
   -4.5397    4.5753   -0.0000 C   0  0  0  0  0  0  0  0  0  0  0  0
  1  2  1  0  0  0  0
  1  3  1  0  0  0  0
  2  4  2  0  0  0  0
  2  5  1  0  0  0  0
  3  6  2  0  0  0  0
  5  7  2  0  0  0  0
  5  8  1  0  0  0  0
  8  9  1  0  0  0  0
  8 10  1  0  0  0  0
  9 11  1  0  0  0  0
 10 12  1  0  0  0  0
 11 13  1  1  0  0  0
 13 14  1  0  0  0  0
 14 15  2  0  0  0  0
 14 16  1  0  0  0  0
 15 17  1  0  0  0  0
 16 18  2  0  0  0  0
 17 19  1  0  0  0  0
 17 20  2  0  0  0  0
 19 21  1  0  0  0  0
 19 22  1  0  0  0  0
 21 23  2  0  0  0  0
 21 24  1  0  0  0  0
 22 25  2  0  0  0  0
 24 26  2  0  0  0  0
 24 27  1  0  0  0  0
 25 28  1  0  0  0  0
 26 29  1  0  0  0  0
 27 30  2  0  0  0  0
 28 31  1  0  0  0  0
 28 32  1  0  0  0  0
 29 33  2  0  0  0  0
  4  6  1  0  0  0  0
 11 12  1  0  0  0  0
 18 20  1  0  0  0  0
 23 25  1  0  0  0  0
 30 33  1  0  0  0  0
 31 32  1  0  0  0  0
M  END
>  <MolRegNo>
2570109

>  <m>
=

>  <Value>
290

>  <Unit>
nM

>  <Type>
IC50

>  <pValue>
6.54

>  <Ligand Efficiency>
0

>  <Binding Efficiency>
0

>  <Surface Efficiency>
0

>  <Assay Index>
1479043

>  <Assay Category>


>  <Assay Organism>
Homo sapiens

>  <Target ID>
17045

>  <Target Name>
Cytochrome P450 3A4

>  <Target Organism>
Homo sapiens

>  <Target Description>
Target is a single protein chain

>  <Sequence Accession>
P08684

>  <Reference>
ACS Med Chem Lett 12 (12.0), 1962-1967 (2021)

>  <Pubmed ID>
34917261

>  <DOI>
10.1021/acsmedchemlett.1c00540

$$$$
2568787
Actelion Java MolfileCreator 1.0

 34 39  0  0  0  0  0  0  0  0999 V2000
    0.0000   -0.0000   -0.0000 Cl  0  0  0  0  0  0  0  0  0  0  0  0
   -1.1192   -1.0001   -0.0000 C   0  0  0  0  0  0  0  0  0  0  0  0
   -2.5598   -0.5358   -0.0000 C   0  0  0  0  0  0  0  0  0  0  0  0
   -0.8096   -2.4645   -0.0000 C   0  0  0  0  0  0  0  0  0  0  0  0
   -3.6789   -1.5359   -0.0000 C   0  0  0  0  0  0  0  0  0  0  0  0
   -1.9288   -3.4646   -0.0000 C   0  0  0  0  0  0  0  0  0  0  0  0
   -5.1196   -1.0715   -0.0000 C   0  0  0  0  0  0  0  0  0  0  0  0
   -3.3694   -2.9884   -0.0000 C   0  0  0  0  0  0  0  0  0  0  0  0
   -5.5958    0.3691   -0.0000 N   0  0  0  0  0  0  0  0  0  0  0  0
   -6.3340   -1.9526   -0.0000 N   0  0  0  0  0  0  0  0  0  0  0  0
   -7.1079    0.3810   -0.0000 C   0  0  0  0  0  0  0  0  0  0  0  0
   -6.3459   -3.4408   -0.0000 C   0  0  0  0  0  0  0  0  0  0  0  0
   -7.5722   -1.0596   -0.0000 C   0  0  0  0  0  0  0  0  0  0  0  0
   -8.0008    1.6073   -0.0000 C   0  0  0  0  0  0  0  0  0  0  0  0
   -5.0600   -4.1790   -0.0000 N   0  0  0  0  0  0  0  0  0  0  0  0
   -7.6555   -4.1790   -0.0000 C   0  0  0  0  0  0  0  0  0  0  0  0
   -8.1794    3.1075   -0.0000 C   0  0  0  0  0  0  0  0  0  0  0  0
   -9.3938    2.2145   -0.0000 C   0  0  0  0  0  0  0  0  0  0  0  0
   -5.0719   -5.6791   -0.0000 C   0  0  0  0  0  0  0  0  0  0  0  0
   -7.6674   -5.6791   -0.0000 C   0  0  0  0  0  0  0  0  0  0  0  0
   -6.3935   -6.4173   -0.0000 N   0  0  0  0  0  0  0  0  0  0  0  0
   -3.7861   -6.4173   -0.0000 N   0  0  0  0  0  0  0  0  0  0  0  0
   -2.5002   -5.6553   -0.0000 C   0  0  0  0  0  0  0  0  0  0  0  0
   -1.1430   -6.2387   -0.0000 C   0  0  0  0  0  0  0  0  0  0  0  0
   -2.3574   -4.1433   -0.0000 C   0  0  0  0  0  0  0  0  0  0  0  0
   -0.1548   -5.1077   -0.0000 N   0  0  0  0  0  0  0  0  0  0  0  0
   -0.9049   -3.8218   -0.0000 C   0  0  0  0  0  0  0  0  0  0  0  0
    1.3216   -5.2505   -0.0000 C   0  0  0  0  0  0  0  0  0  0  0  0
    2.1907   -4.0242   -0.0000 O   0  0  0  0  0  0  0  0  0  0  0  0
    1.9288   -6.6078   -0.0000 C   0  0  0  0  0  0  0  0  0  0  0  0
    3.4170   -6.7150   -0.0000 S   0  0  0  0  0  0  0  0  0  0  0  0
    1.3454   -7.9770   -0.0000 N   0  0  0  0  0  0  0  0  0  0  0  0
    3.7623   -8.1675   -0.0000 C   0  0  0  0  0  0  0  0  0  0  0  0
    2.4764   -8.9414   -0.0000 C   0  0  0  0  0  0  0  0  0  0  0  0
  1  2  1  0  0  0  0
  2  3  2  0  0  0  0
  2  4  1  0  0  0  0
  3  5  1  0  0  0  0
  4  6  2  0  0  0  0
  5  7  1  0  0  0  0
  5  8  2  0  0  0  0
  7  9  2  0  0  0  0
  7 10  1  0  0  0  0
  9 11  1  0  0  0  0
 10 12  1  0  0  0  0
 10 13  1  0  0  0  0
 11 14  1  0  0  0  0
 12 15  2  0  0  0  0
 12 16  1  0  0  0  0
 14 17  1  0  0  0  0
 14 18  1  0  0  0  0
 15 19  1  0  0  0  0
 16 20  2  0  0  0  0
 19 21  2  0  0  0  0
 19 22  1  0  0  0  0
 23 22  1  1  0  0  0
 23 24  1  0  0  0  0
 23 25  1  0  0  0  0
 24 26  1  0  0  0  0
 25 27  1  0  0  0  0
 26 28  1  0  0  0  0
 28 29  2  0  0  0  0
 28 30  1  0  0  0  0
 30 31  1  0  0  0  0
 30 32  2  0  0  0  0
 31 33  1  0  0  0  0
 32 34  1  0  0  0  0
  6  8  1  0  0  0  0
 11 13  2  0  0  0  0
 17 18  1  0  0  0  0
 20 21  1  0  0  0  0
 26 27  1  0  0  0  0
 33 34  2  0  0  0  0
M  END
>  <MolRegNo>
2568787

>  <m>
=

>  <Value>
190

>  <Unit>
nM

>  <Type>
IC50

>  <pValue>
6.72

>  <Ligand Efficiency>
0

>  <Binding Efficiency>
0

>  <Surface Efficiency>
0

>  <Assay Index>
1479043

>  <Assay Category>


>  <Assay Organism>
Homo sapiens

>  <Target ID>
17045

>  <Target Name>
Cytochrome P450 3A4

>  <Target Organism>
Homo sapiens

>  <Target Description>
Target is a single protein chain

>  <Sequence Accession>
P08684

>  <Reference>
ACS Med Chem Lett 12 (12.0), 1962-1967 (2021)

>  <Pubmed ID>
34917261

>  <DOI>
10.1021/acsmedchemlett.1c00540

$$$$
2567805
Actelion Java MolfileCreator 1.0

 30 33  0  0  0  0  0  0  0  0999 V2000
    0.0000   -0.0000   -0.0000 F   0  0  0  0  0  0  0  0  0  0  0  0
   -1.3135   -0.7231   -0.0000 C   0  0  0  0  0  0  0  0  0  0  0  0
   -1.3376   -2.2174   -0.0000 C   0  0  0  0  0  0  0  0  0  0  0  0
   -2.6150    0.0603   -0.0000 C   0  0  0  0  0  0  0  0  0  0  0  0
   -0.0603   -2.9645   -0.0000 F   0  0  0  0  0  0  0  0  0  0  0  0
   -2.6512   -2.9284   -0.0000 C   0  0  0  0  0  0  0  0  0  0  0  0
   -3.9286   -0.6748   -0.0000 C   0  0  0  0  0  0  0  0  0  0  0  0
   -3.9527   -2.1571   -0.0000 C   0  0  0  0  0  0  0  0  0  0  0  0
   -5.2301    0.1205   -0.0000 N   0  0  0  0  0  0  0  0  0  0  0  0
   -5.2301    1.6148   -0.0000 C   0  0  0  0  0  0  0  0  0  0  0  0
   -6.5557   -0.6146   -0.0000 C   0  0  0  0  0  0  0  0  0  0  0  0
   -6.5436    2.3861   -0.0000 C   0  0  0  0  0  0  0  0  0  0  0  0
   -3.9406    2.3620   -0.0000 C   0  0  0  0  0  0  0  0  0  0  0  0
   -7.8572    0.1567   -0.0000 C   0  0  0  0  0  0  0  0  0  0  0  0
   -7.8692    1.6389   -0.0000 N   0  0  0  0  0  0  0  0  0  0  0  0
   -9.1346    2.4102   -0.0000 C   0  0  0  0  0  0  0  0  0  0  0  0
   -9.1225    3.9527   -0.0000 O   0  0  0  0  0  0  0  0  0  0  0  0
  -10.4843    1.6871   -0.0000 C   0  0  0  0  0  0  0  0  0  0  0  0
  -11.7737    2.4704   -0.0000 C   0  0  0  0  0  0  0  0  0  0  0  0
  -10.5204    0.2169   -0.0000 C   0  0  0  0  0  0  0  0  0  0  0  0
  -13.1113    1.7474   -0.0000 C   0  0  0  0  0  0  0  0  0  0  0  0
  -13.2680    0.2531   -0.0000 N   0  0  0  0  0  0  0  0  0  0  0  0
  -14.4610    2.3499   -0.0000 C   0  0  0  0  0  0  0  0  0  0  0  0
  -12.3883    0.4700   -0.0000 C   0  0  0  0  0  0  0  0  0  0  0  0
  -14.7382   -0.0482   -0.0000 C   0  0  0  0  0  0  0  0  0  0  0  0
  -14.8226    3.8201   -0.0000 O   0  0  0  0  0  0  0  0  0  0  0  0
  -15.4854    1.2533   -0.0000 N   0  0  0  0  0  0  0  0  0  0  0  0
  -12.4003   -1.0002   -0.0000 C   0  0  0  0  0  0  0  0  0  0  0  0
  -11.1109   -0.2651   -0.0000 C   0  0  0  0  0  0  0  0  0  0  0  0
  -15.3649   -1.4100   -0.0000 O   0  0  0  0  0  0  0  0  0  0  0  0
  1  2  1  0  0  0  0
  2  3  2  0  0  0  0
  2  4  1  0  0  0  0
  3  5  1  0  0  0  0
  3  6  1  0  0  0  0
  4  7  2  0  0  0  0
  6  8  2  0  0  0  0
  7  9  1  0  0  0  0
  9 10  1  0  0  0  0
  9 11  1  0  0  0  0
 10 12  1  0  0  0  0
 10 13  1  6  0  0  0
 11 14  1  0  0  0  0
 12 15  1  0  0  0  0
 15 16  1  0  0  0  0
 16 17  2  0  0  0  0
 16 18  1  0  0  0  0
 18 19  1  0  0  0  0
 18 20  1  1  0  0  0
 21 19  1  1  0  0  0
 21 22  1  0  0  0  0
 21 23  1  0  0  0  0
 21 24  1  0  0  0  0
 22 25  1  0  0  0  0
 23 26  2  0  0  0  0
 23 27  1  0  0  0  0
 24 28  1  0  0  0  0
 24 29  1  0  0  0  0
 25 30  2  0  0  0  0
  7  8  1  0  0  0  0
 14 15  1  0  0  0  0
 25 27  1  0  0  0  0
 28 29  1  0  0  0  0
M  END
>  <MolRegNo>
2567805

>  <m>
=

>  <Value>
7800

>  <Unit>
nM

>  <Type>
IC50

>  <pValue>
5.11

>  <Ligand Efficiency>
0

>  <Binding Efficiency>
0

>  <Surface Efficiency>
0

>  <Assay Index>
1479824

>  <Assay Category>


>  <Assay Organism>
Homo sapiens

>  <Target ID>
17045

>  <Target Name>
Cytochrome P450 3A4

>  <Target Organism>
Homo sapiens

>  <Target Description>
Target is a single protein chain

>  <Sequence Accession>
P08684

>  <Reference>
J Med Chem 64 (6.0), 2937-2952 (2021)

>  <Pubmed ID>
33719441

>  <DOI>
10.1021/acs.jmedchem.0c02008

$$$$
2568626
Actelion Java MolfileCreator 1.0

 24 26  0  0  1  0  0  0  0  0999 V2000
    0.0000   -0.0000   -0.0000 S   0  0  0  0  0  0  0  0  0  0  0  0
   -0.7512    1.2911   -0.0000 C   0  0  0  0  0  0  0  0  0  0  0  0
   -1.5141    2.5822   -0.0000 N   0  0  0  0  0  0  0  0  0  0  0  0
   -3.0165    2.5822   -0.0000 C   0  0  0  0  0  0  0  0  0  0  0  0
   -4.0728    1.5258   -0.0000 C   0  0  0  0  0  0  0  0  0  0  0  0
   -4.0963    3.6385   -0.0000 C   0  0  0  0  0  0  0  0  0  0  0  0
   -5.1409    2.5822   -0.0000 C   0  0  0  0  0  0  0  0  0  0  0  0
   -6.6432    2.5822   -0.0000 O   0  0  0  0  0  0  0  0  0  0  0  0
   -7.4061    3.8733   -0.0000 C   0  0  0  0  0  0  0  0  0  0  0  0
   -8.9085    3.8733   -0.0000 C   0  0  0  0  0  0  0  0  0  0  0  0
   -9.6479    2.5939   -0.0000 N   0  0  0  0  0  0  0  0  0  0  0  0
   -9.6714    5.1761   -0.0000 C   0  0  0  0  0  0  0  0  0  0  0  0
  -11.1503    2.5822   -0.0000 C   0  0  0  0  0  0  0  0  0  0  0  0
  -11.1738    5.1761   -0.0000 C   0  0  0  0  0  0  0  0  0  0  0  0
  -11.9250    3.8850   -0.0000 C   0  0  0  0  0  0  0  0  0  0  0  0
  -13.4273    3.8850   -0.0000 C   0  0  0  0  0  0  0  0  0  0  0  0
  -14.1902    5.1878   -0.0000 C   0  0  0  0  0  0  0  0  0  0  0  0
  -14.1550    2.6057   -0.0000 C   0  0  0  0  0  0  0  0  0  0  0  0
  -15.6926    5.1878   -0.0000 C   0  0  0  0  0  0  0  0  0  0  0  0
  -15.6574    2.5939   -0.0000 C   0  0  0  0  0  0  0  0  0  0  0  0
  -16.4672    6.4789   -0.0000 F   0  0  0  0  0  0  0  0  0  0  0  0
  -16.4320    3.8967   -0.0000 C   0  0  0  0  0  0  0  0  0  0  0  0
  -17.9344    3.8967   -0.0000 O   0  0  0  0  0  0  0  0  0  0  0  0
  -18.7090    5.1878   -0.0000 C   0  0  0  0  0  0  0  0  0  0  0  0
  1  2  2  0  0  0  0
  2  3  2  0  0  0  0
  4  3  1  6  0  0  0
  4  5  1  0  0  0  0
  4  6  1  0  0  0  0
  5  7  1  0  0  0  0
  7  8  1  6  0  0  0
  8  9  1  0  0  0  0
  9 10  1  0  0  0  0
 10 11  2  0  0  0  0
 10 12  1  0  0  0  0
 11 13  1  0  0  0  0
 12 14  2  0  0  0  0
 13 15  2  0  0  0  0
 15 16  1  0  0  0  0
 16 17  2  0  0  0  0
 16 18  1  0  0  0  0
 17 19  1  0  0  0  0
 18 20  2  0  0  0  0
 19 21  1  0  0  0  0
 19 22  2  0  0  0  0
 22 23  1  0  0  0  0
 23 24  1  0  0  0  0
  6  7  1  0  0  0  0
 14 15  1  0  0  0  0
 20 22  1  0  0  0  0
M  END
>  <MolRegNo>
2568626

>  <m>
=

>  <Value>
2600

>  <Unit>
nM

>  <Type>
IC50

>  <pValue>
5.58

>  <Ligand Efficiency>
0

>  <Binding Efficiency>
0

>  <Surface Efficiency>
0

>  <Assay Index>
1480415

>  <Assay Category>


>  <Assay Organism>
Homo sapiens

>  <Target ID>
17045

>  <Target Name>
Cytochrome P450 3A4

>  <Target Organism>
Homo sapiens

>  <Target Description>
Target is a single protein chain

>  <Sequence Accession>
P08684

>  <Reference>
J Med Chem 64 (9.0), 5956-5972 (2021)

>  <Pubmed ID>
33900772

>  <DOI>
10.1021/acs.jmedchem.1c00076

$$$$
2541803
Actelion Java MolfileCreator 1.0

 44 49  0  0  0  0  0  0  0  0999 V2000
    0.0000   -0.0000   -0.0000 Cl  0  0  0  0  0  0  0  0  0  0  0  0
    0.2253   -1.4706   -0.0000 C   0  0  0  0  0  0  0  0  0  0  0  0
   -0.9606   -2.4076   -0.0000 C   0  0  0  0  0  0  0  0  0  0  0  0
    1.6129   -2.0043   -0.0000 C   0  0  0  0  0  0  0  0  0  0  0  0
   -2.4550   -2.1466   -0.0000 N   0  0  0  0  0  0  0  0  0  0  0  0
   -0.7472   -3.8782   -0.0000 C   0  0  0  0  0  0  0  0  0  0  0  0
    1.8264   -3.4749   -0.0000 C   0  0  0  0  0  0  0  0  0  0  0  0
   -3.1666   -3.4749   -0.0000 C   0  0  0  0  0  0  0  0  0  0  0  0
   -2.0992   -4.5423   -0.0000 N   0  0  0  0  0  0  0  0  0  0  0  0
    0.6404   -4.4000   -0.0000 C   0  0  0  0  0  0  0  0  0  0  0  0
    3.2852   -3.7952   -0.0000 C   0  0  0  0  0  0  0  0  0  0  0  0
   -4.6728   -3.7003   -0.0000 O   0  0  0  0  0  0  0  0  0  0  0  0
   -2.8701   -5.8232   -0.0000 C   0  0  0  0  0  0  0  0  0  0  0  0
    0.6286   -5.8944   -0.0000 C   0  0  0  0  0  0  0  0  0  0  0  0
    3.9256   -5.1472   -0.0000 C   0  0  0  0  0  0  0  0  0  0  0  0
    1.8027   -6.8194   -0.0000 N   0  0  0  0  0  0  0  0  0  0  0  0
    3.2733   -6.4755   -0.0000 C   0  0  0  0  0  0  0  0  0  0  0  0
    5.4200   -5.1353   -0.0000 C   0  0  0  0  0  0  0  0  0  0  0  0
    1.4588   -8.2782   -0.0000 C   0  0  0  0  0  0  0  0  0  0  0  0
    4.1984   -7.6378   -0.0000 O   0  0  0  0  0  0  0  0  0  0  0  0
    6.1671   -3.8189   -0.0000 C   0  0  0  0  0  0  0  0  0  0  0  0
    0.0000   -8.7051   -0.0000 C   0  0  0  0  0  0  0  0  0  0  0  0
    5.3962   -2.5024   -0.0000 O   0  0  0  0  0  0  0  0  0  0  0  0
    7.6615   -3.8070   -0.0000 N   0  0  0  0  0  0  0  0  0  0  0  0
   -1.4706   -8.3019   -0.0000 F   0  0  0  0  0  0  0  0  0  0  0  0
   -0.4032   -7.2345   -0.0000 F   0  0  0  0  0  0  0  0  0  0  0  0
   -0.3439  -10.1639   -0.0000 F   0  0  0  0  0  0  0  0  0  0  0  0
    8.3968   -5.0997   -0.0000 C   0  0  0  0  0  0  0  0  0  0  0  0
    8.3968   -2.5024   -0.0000 C   0  0  0  0  0  0  0  0  0  0  0  0
    9.8793   -5.0879   -0.0000 C   0  0  0  0  0  0  0  0  0  0  0  0
    9.8911   -2.5024   -0.0000 C   0  0  0  0  0  0  0  0  0  0  0  0
   10.6264   -3.7833   -0.0000 C   0  0  0  0  0  0  0  0  0  0  0  0
   12.1208   -3.7833   -0.0000 N   0  0  0  0  0  0  0  0  0  0  0  0
   12.7612   -2.4194   -0.0000 C   0  0  0  0  0  0  0  0  0  0  0  0
   12.7612   -5.1353   -0.0000 C   0  0  0  0  0  0  0  0  0  0  0  0
   11.8124   -1.2216   -0.0000 O   0  0  0  0  0  0  0  0  0  0  0  0
   14.2200   -2.0755   -0.0000 N   0  0  0  0  0  0  0  0  0  0  0  0
   14.2200   -5.4555   -0.0000 C   0  0  0  0  0  0  0  0  0  0  0  0
   15.3822   -2.9887   -0.0000 C   0  0  0  0  0  0  0  0  0  0  0  0
   15.3822   -4.4949   -0.0000 C   0  0  0  0  0  0  0  0  0  0  0  0
   16.6750   -2.2297   -0.0000 C   0  0  0  0  0  0  0  0  0  0  0  0
   16.6750   -5.2421   -0.0000 C   0  0  0  0  0  0  0  0  0  0  0  0
   17.9677   -2.9650   -0.0000 C   0  0  0  0  0  0  0  0  0  0  0  0
   17.9677   -4.4830   -0.0000 C   0  0  0  0  0  0  0  0  0  0  0  0
  1  2  1  0  0  0  0
  2  3  2  0  0  0  0
  2  4  1  0  0  0  0
  3  5  1  0  0  0  0
  3  6  1  0  0  0  0
  4  7  2  0  0  0  0
  5  8  1  0  0  0  0
  6  9  1  0  0  0  0
  6 10  2  0  0  0  0
  7 11  1  0  0  0  0
  8 12  2  0  0  0  0
  9 13  1  0  0  0  0
 10 14  1  0  0  0  0
 11 15  1  0  0  0  0
 14 16  1  0  0  0  0
 15 17  1  0  0  0  0
 15 18  1  6  0  0  0
 16 19  1  0  0  0  0
 17 20  2  0  0  0  0
 18 21  1  0  0  0  0
 19 22  1  0  0  0  0
 21 23  2  0  0  0  0
 21 24  1  0  0  0  0
 22 25  1  0  0  0  0
 22 26  1  0  0  0  0
 22 27  1  0  0  0  0
 24 28  1  0  0  0  0
 24 29  1  0  0  0  0
 28 30  1  0  0  0  0
 29 31  1  0  0  0  0
 30 32  1  0  0  0  0
 32 33  1  0  0  0  0
 33 34  1  0  0  0  0
 33 35  1  0  0  0  0
 34 36  2  0  0  0  0
 34 37  1  0  0  0  0
 35 38  1  0  0  0  0
 37 39  1  0  0  0  0
 38 40  1  0  0  0  0
 39 41  1  0  0  0  0
 40 42  1  0  0  0  0
 41 43  2  0  0  0  0
 42 44  2  0  0  0  0
  7 10  1  0  0  0  0
  8  9  1  0  0  0  0
 16 17  1  0  0  0  0
 31 32  1  0  0  0  0
 39 40  2  0  0  0  0
 43 44  1  0  0  0  0
M  END
>  <MolRegNo>
2541803

>  <m>
=

>  <Value>
8100

>  <Unit>
nM

>  <Type>
IC50

>  <pValue>
5.09

>  <Ligand Efficiency>
0

>  <Binding Efficiency>
0

>  <Surface Efficiency>
0

>  <Assay Index>
1480516

>  <Assay Category>


>  <Assay Organism>
Homo sapiens

>  <Target ID>
17045

>  <Target Name>
Cytochrome P450 3A4

>  <Target Organism>
Homo sapiens

>  <Target Description>
Target is a single protein chain

>  <Sequence Accession>
P08684

>  <Reference>


>  <Pubmed ID>
33932522

>  <DOI>
10.1016/j.bmcl.2021.128077

$$$$
2551420
Actelion Java MolfileCreator 1.0

 48 53  0  0  0  0  0  0  0  0999 V2000
    0.0000   -0.0000   -0.0000 Cl  0  0  0  0  0  0  0  0  0  0  0  0
    0.2251   -1.4690   -0.0000 C   0  0  0  0  0  0  0  0  0  0  0  0
   -0.9596   -2.4049   -0.0000 C   0  0  0  0  0  0  0  0  0  0  0  0
    1.6112   -2.0021   -0.0000 C   0  0  0  0  0  0  0  0  0  0  0  0
   -2.4523   -2.1443   -0.0000 N   0  0  0  0  0  0  0  0  0  0  0  0
   -0.7464   -3.8858   -0.0000 C   0  0  0  0  0  0  0  0  0  0  0  0
    1.8244   -3.4712   -0.0000 C   0  0  0  0  0  0  0  0  0  0  0  0
   -3.1631   -3.4712   -0.0000 C   0  0  0  0  0  0  0  0  0  0  0  0
   -2.1088   -4.5492   -0.0000 N   0  0  0  0  0  0  0  0  0  0  0  0
    0.6397   -4.4071   -0.0000 C   0  0  0  0  0  0  0  0  0  0  0  0
    3.2816   -3.7910   -0.0000 C   0  0  0  0  0  0  0  0  0  0  0  0
   -4.6677   -3.6963   -0.0000 O   0  0  0  0  0  0  0  0  0  0  0  0
   -2.3694   -6.0183   -0.0000 C   0  0  0  0  0  0  0  0  0  0  0  0
    0.6279   -5.8998   -0.0000 C   0  0  0  0  0  0  0  0  0  0  0  0
    3.9213   -5.1416   -0.0000 C   0  0  0  0  0  0  0  0  0  0  0  0
   -3.7792   -6.5395   -0.0000 C   0  0  0  0  0  0  0  0  0  0  0  0
    1.8007   -6.8239   -0.0000 N   0  0  0  0  0  0  0  0  0  0  0  0
    3.2698   -6.4684   -0.0000 C   0  0  0  0  0  0  0  0  0  0  0  0
    5.4141   -5.1297   -0.0000 C   0  0  0  0  0  0  0  0  0  0  0  0
   -5.2482   -6.1367   -0.0000 F   0  0  0  0  0  0  0  0  0  0  0  0
   -4.1820   -5.0705   -0.0000 F   0  0  0  0  0  0  0  0  0  0  0  0
   -4.0280   -8.0086   -0.0000 F   0  0  0  0  0  0  0  0  0  0  0  0
    1.4572   -8.2810   -0.0000 C   0  0  0  0  0  0  0  0  0  0  0  0
    4.1938   -7.6294   -0.0000 O   0  0  0  0  0  0  0  0  0  0  0  0
    6.1604   -3.8147   -0.0000 C   0  0  0  0  0  0  0  0  0  0  0  0
    0.0000   -8.7075   -0.0000 C   0  0  0  0  0  0  0  0  0  0  0  0
    5.3904   -2.4997   -0.0000 O   0  0  0  0  0  0  0  0  0  0  0  0
    7.6531   -3.8029   -0.0000 N   0  0  0  0  0  0  0  0  0  0  0  0
   -1.4690   -8.3047   -0.0000 F   0  0  0  0  0  0  0  0  0  0  0  0
   -0.4028   -7.2385   -0.0000 F   0  0  0  0  0  0  0  0  0  0  0  0
   -0.3436  -10.1647   -0.0000 F   0  0  0  0  0  0  0  0  0  0  0  0
    8.3877   -5.0942   -0.0000 C   0  0  0  0  0  0  0  0  0  0  0  0
    8.3877   -2.4997   -0.0000 C   0  0  0  0  0  0  0  0  0  0  0  0
    9.8685   -5.0823   -0.0000 C   0  0  0  0  0  0  0  0  0  0  0  0
    9.8804   -2.4997   -0.0000 C   0  0  0  0  0  0  0  0  0  0  0  0
   10.6149   -3.7792   -0.0000 C   0  0  0  0  0  0  0  0  0  0  0  0
   12.1076   -3.7792   -0.0000 N   0  0  0  0  0  0  0  0  0  0  0  0
   12.7473   -2.4168   -0.0000 C   0  0  0  0  0  0  0  0  0  0  0  0
   12.7473   -5.1297   -0.0000 C   0  0  0  0  0  0  0  0  0  0  0  0
   11.7996   -1.2202   -0.0000 O   0  0  0  0  0  0  0  0  0  0  0  0
   14.2045   -2.0732   -0.0000 N   0  0  0  0  0  0  0  0  0  0  0  0
   14.2045   -5.4496   -0.0000 C   0  0  0  0  0  0  0  0  0  0  0  0
   15.3655   -2.9854   -0.0000 C   0  0  0  0  0  0  0  0  0  0  0  0
   15.3774   -4.4900   -0.0000 C   0  0  0  0  0  0  0  0  0  0  0  0
   16.6568   -2.2272   -0.0000 C   0  0  0  0  0  0  0  0  0  0  0  0
   16.6687   -5.2364   -0.0000 C   0  0  0  0  0  0  0  0  0  0  0  0
   17.9482   -2.9617   -0.0000 C   0  0  0  0  0  0  0  0  0  0  0  0
   17.9600   -4.4782   -0.0000 C   0  0  0  0  0  0  0  0  0  0  0  0
  1  2  1  0  0  0  0
  2  3  2  0  0  0  0
  2  4  1  0  0  0  0
  3  5  1  0  0  0  0
  3  6  1  0  0  0  0
  4  7  2  0  0  0  0
  5  8  1  0  0  0  0
  6  9  1  0  0  0  0
  6 10  2  0  0  0  0
  7 11  1  0  0  0  0
  8 12  2  0  0  0  0
  9 13  1  0  0  0  0
 10 14  1  0  0  0  0
 11 15  1  0  0  0  0
 13 16  1  0  0  0  0
 14 17  1  0  0  0  0
 15 18  1  0  0  0  0
 15 19  1  6  0  0  0
 16 20  1  0  0  0  0
 16 21  1  0  0  0  0
 16 22  1  0  0  0  0
 17 23  1  0  0  0  0
 18 24  2  0  0  0  0
 19 25  1  0  0  0  0
 23 26  1  0  0  0  0
 25 27  2  0  0  0  0
 25 28  1  0  0  0  0
 26 29  1  0  0  0  0
 26 30  1  0  0  0  0
 26 31  1  0  0  0  0
 28 32  1  0  0  0  0
 28 33  1  0  0  0  0
 32 34  1  0  0  0  0
 33 35  1  0  0  0  0
 34 36  1  0  0  0  0
 36 37  1  0  0  0  0
 37 38  1  0  0  0  0
 37 39  1  0  0  0  0
 38 40  2  0  0  0  0
 38 41  1  0  0  0  0
 39 42  1  0  0  0  0
 41 43  1  0  0  0  0
 42 44  1  0  0  0  0
 43 45  1  0  0  0  0
 44 46  1  0  0  0  0
 45 47  2  0  0  0  0
 46 48  2  0  0  0  0
  7 10  1  0  0  0  0
  8  9  1  0  0  0  0
 17 18  1  0  0  0  0
 35 36  1  0  0  0  0
 43 44  2  0  0  0  0
 47 48  1  0  0  0  0
M  END
>  <MolRegNo>
2551420

>  <m>
=

>  <Value>
8400

>  <Unit>
nM

>  <Type>
IC50

>  <pValue>
5.08

>  <Ligand Efficiency>
0

>  <Binding Efficiency>
0

>  <Surface Efficiency>
0

>  <Assay Index>
1480516

>  <Assay Category>


>  <Assay Organism>
Homo sapiens

>  <Target ID>
17045

>  <Target Name>
Cytochrome P450 3A4

>  <Target Organism>
Homo sapiens

>  <Target Description>
Target is a single protein chain

>  <Sequence Accession>
P08684

>  <Reference>


>  <Pubmed ID>
33932522

>  <DOI>
10.1016/j.bmcl.2021.128077

$$$$
2493709
Actelion Java MolfileCreator 1.0

 42 47  0  0  0  0  0  0  0  0999 V2000
    0.0000   -0.0000   -0.0000 Cl  0  0  0  0  0  0  0  0  0  0  0  0
   -0.5252   -1.4046   -0.0000 C   0  0  0  0  0  0  0  0  0  0  0  0
   -2.0520   -1.6611   -0.0000 C   0  0  0  0  0  0  0  0  0  0  0  0
    0.4519   -2.5772   -0.0000 C   0  0  0  0  0  0  0  0  0  0  0  0
   -3.2856   -0.6962   -0.0000 N   0  0  0  0  0  0  0  0  0  0  0  0
   -2.5894   -3.1024   -0.0000 C   0  0  0  0  0  0  0  0  0  0  0  0
   -0.0855   -4.0062   -0.0000 C   0  0  0  0  0  0  0  0  0  0  0  0
   -4.5803   -1.5512   -0.0000 N   0  0  0  0  0  0  0  0  0  0  0  0
   -1.6123   -4.2627   -0.0000 C   0  0  0  0  0  0  0  0  0  0  0  0
   -4.1406   -3.0413   -0.0000 C   0  0  0  0  0  0  0  0  0  0  0  0
    1.0260   -5.0078   -0.0000 C   0  0  0  0  0  0  0  0  0  0  0  0
   -2.3085   -5.5574   -0.0000 C   0  0  0  0  0  0  0  0  0  0  0  0
    0.8916   -6.4979   -0.0000 C   0  0  0  0  0  0  0  0  0  0  0  0
   -1.7833   -6.9132   -0.0000 N   0  0  0  0  0  0  0  0  0  0  0  0
   -0.4153   -7.3529   -0.0000 C   0  0  0  0  0  0  0  0  0  0  0  0
    2.1741   -7.2430   -0.0000 C   0  0  0  0  0  0  0  0  0  0  0  0
   -2.8215   -8.0003   -0.0000 C   0  0  0  0  0  0  0  0  0  0  0  0
   -0.2199   -8.8308   -0.0000 O   0  0  0  0  0  0  0  0  0  0  0  0
    3.4688   -6.4857   -0.0000 C   0  0  0  0  0  0  0  0  0  0  0  0
   -4.2994   -7.6461   -0.0000 C   0  0  0  0  0  0  0  0  0  0  0  0
    3.4688   -4.9712   -0.0000 O   0  0  0  0  0  0  0  0  0  0  0  0
    4.7513   -7.2308   -0.0000 N   0  0  0  0  0  0  0  0  0  0  0  0
   -4.7025   -9.0873   -0.0000 F   0  0  0  0  0  0  0  0  0  0  0  0
   -5.7651   -8.0125   -0.0000 F   0  0  0  0  0  0  0  0  0  0  0  0
   -4.7513   -6.1926   -0.0000 F   0  0  0  0  0  0  0  0  0  0  0  0
    4.7269   -8.7209   -0.0000 C   0  0  0  0  0  0  0  0  0  0  0  0
    6.0460   -6.4735   -0.0000 C   0  0  0  0  0  0  0  0  0  0  0  0
    6.0094   -9.4660   -0.0000 C   0  0  0  0  0  0  0  0  0  0  0  0
    7.3285   -7.2308   -0.0000 C   0  0  0  0  0  0  0  0  0  0  0  0
    7.3163   -8.7209   -0.0000 C   0  0  0  0  0  0  0  0  0  0  0  0
    8.5988   -9.4782   -0.0000 N   0  0  0  0  0  0  0  0  0  0  0  0
    9.8568   -8.6354   -0.0000 C   0  0  0  0  0  0  0  0  0  0  0  0
    8.4644  -11.0172   -0.0000 C   0  0  0  0  0  0  0  0  0  0  0  0
    9.6614   -7.1331   -0.0000 O   0  0  0  0  0  0  0  0  0  0  0  0
   11.2615   -9.1118   -0.0000 N   0  0  0  0  0  0  0  0  0  0  0  0
    9.5393  -11.9943   -0.0000 C   0  0  0  0  0  0  0  0  0  0  0  0
   11.7745  -10.5775   -0.0000 C   0  0  0  0  0  0  0  0  0  0  0  0
   11.0050  -11.8111   -0.0000 C   0  0  0  0  0  0  0  0  0  0  0  0
   13.2035  -10.6141   -0.0000 C   0  0  0  0  0  0  0  0  0  0  0  0
   11.6767  -13.0814   -0.0000 C   0  0  0  0  0  0  0  0  0  0  0  0
   13.8753  -11.8722   -0.0000 C   0  0  0  0  0  0  0  0  0  0  0  0
   13.1180  -13.1180   -0.0000 C   0  0  0  0  0  0  0  0  0  0  0  0
  1  2  1  0  0  0  0
  2  3  2  0  0  0  0
  2  4  1  0  0  0  0
  3  5  1  0  0  0  0
  3  6  1  0  0  0  0
  4  7  2  0  0  0  0
  5  8  1  0  0  0  0
  6  9  2  0  0  0  0
  6 10  1  0  0  0  0
  7 11  1  0  0  0  0
  9 12  1  0  0  0  0
 11 13  1  0  0  0  0
 12 14  1  0  0  0  0
 13 15  1  0  0  0  0
 13 16  1  6  0  0  0
 14 17  1  0  0  0  0
 15 18  2  0  0  0  0
 16 19  1  0  0  0  0
 17 20  1  0  0  0  0
 19 21  2  0  0  0  0
 19 22  1  0  0  0  0
 20 23  1  0  0  0  0
 20 24  1  0  0  0  0
 20 25  1  0  0  0  0
 22 26  1  0  0  0  0
 22 27  1  0  0  0  0
 26 28  1  0  0  0  0
 27 29  1  0  0  0  0
 28 30  1  0  0  0  0
 30 31  1  0  0  0  0
 31 32  1  0  0  0  0
 31 33  1  0  0  0  0
 32 34  2  0  0  0  0
 32 35  1  0  0  0  0
 33 36  1  0  0  0  0
 35 37  1  0  0  0  0
 36 38  1  0  0  0  0
 37 39  1  0  0  0  0
 38 40  1  0  0  0  0
 39 41  2  0  0  0  0
 40 42  2  0  0  0  0
  7  9  1  0  0  0  0
  8 10  2  0  0  0  0
 14 15  1  0  0  0  0
 29 30  1  0  0  0  0
 37 38  2  0  0  0  0
 41 42  1  0  0  0  0
M  END
>  <MolRegNo>
2493709

>  <m>
=

>  <Value>
100

>  <Unit>
nM

>  <Type>
IC50

>  <pValue>
7

>  <Ligand Efficiency>
0

>  <Binding Efficiency>
0

>  <Surface Efficiency>
0

>  <Assay Index>
1480516

>  <Assay Category>


>  <Assay Organism>
Homo sapiens

>  <Target ID>
17045

>  <Target Name>
Cytochrome P450 3A4

>  <Target Organism>
Homo sapiens

>  <Target Description>
Target is a single protein chain

>  <Sequence Accession>
P08684

>  <Reference>


>  <Pubmed ID>
33932522

>  <DOI>
10.1016/j.bmcl.2021.128077

$$$$
2569779
Actelion Java MolfileCreator 1.0

 27 27  0  0  0  0  0  0  0  0999 V2000
    0.0000   -0.0000   -0.0000 Cl  0  0  0  0  0  0  0  0  0  0  0  0
   -3.3967   -0.0000   -0.0000 O   0  0  0  0  0  0  0  0  0  0  0  0
   -3.4085    1.5097   -0.0000 C   0  0  0  0  0  0  0  0  0  0  0  0
   -2.1230    2.2763   -0.0000 O   0  0  0  0  0  0  0  0  0  0  0  0
   -4.7177    2.2763   -0.0000 C   0  0  0  0  0  0  0  0  0  0  0  0
   -0.8492    1.5332   -0.0000 C   0  0  0  0  0  0  0  0  0  0  0  0
   -6.0268    1.5332   -0.0000 N   0  0  0  0  0  0  0  0  0  0  0  0
   -4.7295    3.7859   -0.0000 C   0  0  0  0  0  0  0  0  0  0  0  0
    0.4364    2.2999   -0.0000 C   0  0  0  0  0  0  0  0  0  0  0  0
   -7.3360    2.2999   -0.0000 C   0  0  0  0  0  0  0  0  0  0  0  0
   -3.4439    4.5408   -0.0000 C   0  0  0  0  0  0  0  0  0  0  0  0
   -7.3478    3.8095   -0.0000 O   0  0  0  0  0  0  0  0  0  0  0  0
   -8.6451    1.5568   -0.0000 C   0  0  0  0  0  0  0  0  0  0  0  0
   -3.3024    6.0504   -0.0000 C   0  0  0  0  0  0  0  0  0  0  0  0
   -2.0876    3.9510   -0.0000 C   0  0  0  0  0  0  0  0  0  0  0  0
   -8.6569    0.0708   -0.0000 N   0  0  0  0  0  0  0  0  0  0  0  0
   -9.9543    2.3235   -0.0000 C   0  0  0  0  0  0  0  0  0  0  0  0
   -1.8517    6.3689   -0.0000 C   0  0  0  0  0  0  0  0  0  0  0  0
   -4.3167    7.1709   -0.0000 C   0  0  0  0  0  0  0  0  0  0  0  0
   -1.0969    5.0833   -0.0000 N   0  0  0  0  0  0  0  0  0  0  0  0
  -11.2516    1.5804   -0.0000 C   0  0  0  0  0  0  0  0  0  0  0  0
   -1.4035    7.7959   -0.0000 C   0  0  0  0  0  0  0  0  0  0  0  0
   -3.8803    8.5979   -0.0000 C   0  0  0  0  0  0  0  0  0  0  0  0
    0.3774    4.9300   -0.0000 C   0  0  0  0  0  0  0  0  0  0  0  0
  -12.5608    2.3470   -0.0000 C   0  0  0  0  0  0  0  0  0  0  0  0
  -11.2634    0.0944   -0.0000 C   0  0  0  0  0  0  0  0  0  0  0  0
   -2.4178    8.9164   -0.0000 C   0  0  0  0  0  0  0  0  0  0  0  0
  2  3  2  0  0  0  0
  3  4  1  0  0  0  0
  3  5  1  0  0  0  0
  4  6  1  0  0  0  0
  5  7  1  1  0  0  0
  5  8  1  0  0  0  0
  6  9  1  0  0  0  0
  7 10  1  0  0  0  0
  8 11  1  0  0  0  0
 10 12  2  0  0  0  0
 10 13  1  0  0  0  0
 11 14  1  0  0  0  0
 11 15  2  0  0  0  0
 13 16  1  6  0  0  0
 13 17  1  0  0  0  0
 14 18  2  0  0  0  0
 14 19  1  0  0  0  0
 15 20  1  0  0  0  0
 17 21  1  0  0  0  0
 18 22  1  0  0  0  0
 19 23  2  0  0  0  0
 20 24  1  0  0  0  0
 21 25  1  0  0  0  0
 21 26  1  0  0  0  0
 22 27  2  0  0  0  0
 18 20  1  0  0  0  0
 23 27  1  0  0  0  0
M  END
>  <MolRegNo>
2569779

>  <m>
=

>  <Value>
5000

>  <Unit>
nM

>  <Type>
IC50

>  <pValue>
5.3

>  <Ligand Efficiency>
0

>  <Binding Efficiency>
0

>  <Surface Efficiency>
0

>  <Assay Index>
1481845

>  <Assay Category>


>  <Assay Organism>
Homo sapiens

>  <Target ID>
17045

>  <Target Name>
Cytochrome P450 3A4

>  <Target Organism>
Homo sapiens

>  <Target Description>
Target is a single protein chain

>  <Sequence Accession>
P08684

>  <Reference>


>  <Pubmed ID>
32422549

>  <DOI>
10.1016/j.ejmech.2020.112373

$$$$
2545210
Actelion Java MolfileCreator 1.0

 29 33  0  0  0  0  0  0  0  0999 V2000
    0.0000   -0.0000   -0.0000 F   0  0  0  0  0  0  0  0  0  0  0  0
   -1.3038   -0.7416   -0.0000 C   0  0  0  0  0  0  0  0  0  0  0  0
   -2.6075    0.0120   -0.0000 F   0  0  0  0  0  0  0  0  0  0  0  0
   -1.3157   -2.2248   -0.0000 C   0  0  0  0  0  0  0  0  0  0  0  0
   -2.6314   -2.9663   -0.0000 C   0  0  0  0  0  0  0  0  0  0  0  0
   -0.0239   -2.9663   -0.0000 C   0  0  0  0  0  0  0  0  0  0  0  0
   -2.6434   -4.4615   -0.0000 N   0  0  0  0  0  0  0  0  0  0  0  0
   -0.0359   -4.4615   -0.0000 C   0  0  0  0  0  0  0  0  0  0  0  0
   -1.3636   -5.1911   -0.0000 C   0  0  0  0  0  0  0  0  0  0  0  0
    1.2559   -5.2031   -0.0000 C   0  0  0  0  0  0  0  0  0  0  0  0
    2.5477   -4.4376   -0.0000 C   0  0  0  0  0  0  0  0  0  0  0  0
    1.2440   -6.6982   -0.0000 C   0  0  0  0  0  0  0  0  0  0  0  0
    3.8395   -5.1672   -0.0000 C   0  0  0  0  0  0  0  0  0  0  0  0
    2.5357   -7.4398   -0.0000 C   0  0  0  0  0  0  0  0  0  0  0  0
    5.1193   -4.4017   -0.0000 N   0  0  0  0  0  0  0  0  0  0  0  0
    3.8275   -6.6623   -0.0000 C   0  0  0  0  0  0  0  0  0  0  0  0
    5.4064   -2.9185   -0.0000 C   0  0  0  0  0  0  0  0  0  0  0  0
    6.4111   -5.1193   -0.0000 C   0  0  0  0  0  0  0  0  0  0  0  0
    5.1193   -7.4039   -0.0000 N   0  0  0  0  0  0  0  0  0  0  0  0
    6.8776   -2.7391   -0.0000 N   0  0  0  0  0  0  0  0  0  0  0  0
    4.3778   -1.8061   -0.0000 C   0  0  0  0  0  0  0  0  0  0  0  0
    7.4996   -4.0907   -0.0000 N   0  0  0  0  0  0  0  0  0  0  0  0
    6.4111   -6.6264   -0.0000 C   0  0  0  0  0  0  0  0  0  0  0  0
    2.9424   -2.2367   -0.0000 C   0  0  0  0  0  0  0  0  0  0  0  0
    4.9280   -0.3947   -0.0000 C   0  0  0  0  0  0  0  0  0  0  0  0
    1.6865   -1.3755   -0.0000 C   0  0  0  0  0  0  0  0  0  0  0  0
    4.1625    0.9210   -0.0000 C   0  0  0  0  0  0  0  0  0  0  0  0
    1.5549    0.1316   -0.0000 C   0  0  0  0  0  0  0  0  0  0  0  0
    2.6554    1.1602   -0.0000 O   0  0  0  0  0  0  0  0  0  0  0  0
  1  2  1  0  0  0  0
  2  3  1  0  0  0  0
  2  4  1  0  0  0  0
  4  5  2  0  0  0  0
  4  6  1  0  0  0  0
  5  7  1  0  0  0  0
  6  8  2  0  0  0  0
  7  9  2  0  0  0  0
  8 10  1  0  0  0  0
 10 11  2  0  0  0  0
 10 12  1  0  0  0  0
 11 13  1  0  0  0  0
 12 14  2  0  0  0  0
 13 15  1  0  0  0  0
 13 16  2  0  0  0  0
 15 17  1  0  0  0  0
 15 18  1  0  0  0  0
 16 19  1  0  0  0  0
 17 20  2  0  0  0  0
 17 21  1  0  0  0  0
 18 22  2  0  0  0  0
 18 23  1  0  0  0  0
 21 24  2  0  0  0  0
 21 25  1  0  0  0  0
 24 26  1  0  0  0  0
 25 27  1  0  0  0  0
 26 28  1  0  0  0  0
 27 29  1  0  0  0  0
  8  9  1  0  0  0  0
 14 16  1  0  0  0  0
 19 23  2  0  0  0  0
 20 22  1  0  0  0  0
 28 29  1  0  0  0  0
M  END
>  <MolRegNo>
2545210

>  <m>
=

>  <Value>
15000

>  <Unit>
nM

>  <Type>
IC50

>  <pValue>
4.82

>  <Ligand Efficiency>
0

>  <Binding Efficiency>
0

>  <Surface Efficiency>
0

>  <Assay Index>
1483872

>  <Assay Category>


>  <Assay Organism>
Homo sapiens

>  <Target ID>
17045

>  <Target Name>
Cytochrome P450 3A4

>  <Target Organism>
Homo sapiens

>  <Target Description>
Target is a single protein chain

>  <Sequence Accession>
P08684

>  <Reference>
J Med Chem 64 (17.0), 12723-12737 (2021)

>  <Pubmed ID>
34428039

>  <DOI>
10.1021/acs.jmedchem.1c00762

$$$$
1927218
Actelion Java MolfileCreator 1.0

 25 26  0  0  0  0  0  0  0  0999 V2000
    0.0000   -0.0000   -0.0000 Br  0  0  0  0  0  0  0  0  0  0  0  0
   -1.3056   -0.7410   -0.0000 C   0  0  0  0  0  0  0  0  0  0  0  0
   -1.3174   -2.2231   -0.0000 C   0  0  0  0  0  0  0  0  0  0  0  0
   -2.6113    0.0235   -0.0000 C   0  0  0  0  0  0  0  0  0  0  0  0
   -0.0353   -2.9642   -0.0000 F   0  0  0  0  0  0  0  0  0  0  0  0
   -2.6230   -2.9642   -0.0000 C   0  0  0  0  0  0  0  0  0  0  0  0
   -3.9169   -0.7175   -0.0000 C   0  0  0  0  0  0  0  0  0  0  0  0
   -3.9287   -2.1996   -0.0000 C   0  0  0  0  0  0  0  0  0  0  0  0
   -5.2226    0.0471   -0.0000 N   0  0  0  0  0  0  0  0  0  0  0  0
   -6.5282   -0.6940   -0.0000 C   0  0  0  0  0  0  0  0  0  0  0  0
   -6.5400   -2.1761   -0.0000 N   0  0  0  0  0  0  0  0  0  0  0  0
   -7.8338    0.0706   -0.0000 C   0  0  0  0  0  0  0  0  0  0  0  0
   -5.2578   -2.9171   -0.0000 O   0  0  0  0  0  0  0  0  0  0  0  0
   -7.9985    1.5644   -0.0000 N   0  0  0  0  0  0  0  0  0  0  0  0
   -9.2100   -0.5293   -0.0000 C   0  0  0  0  0  0  0  0  0  0  0  0
   -9.4688    1.8820   -0.0000 O   0  0  0  0  0  0  0  0  0  0  0  0
  -10.2216    0.5881   -0.0000 N   0  0  0  0  0  0  0  0  0  0  0  0
   -9.5276   -1.9761   -0.0000 N   0  0  0  0  0  0  0  0  0  0  0  0
  -10.8333   -2.7171   -0.0000 C   0  0  0  0  0  0  0  0  0  0  0  0
  -12.1389   -1.9526   -0.0000 C   0  0  0  0  0  0  0  0  0  0  0  0
  -13.4445   -2.6936   -0.0000 N   0  0  0  0  0  0  0  0  0  0  0  0
  -14.7502   -1.9291   -0.0000 S   0  0  0  0  0  0  0  0  0  0  0  0
  -15.8206   -0.8587   -0.0000 O   0  0  0  0  0  0  0  0  0  0  0  0
  -13.7033   -0.8587   -0.0000 O   0  0  0  0  0  0  0  0  0  0  0  0
  -16.0558   -2.6701   -0.0000 N   0  0  0  0  0  0  0  0  0  0  0  0
  1  2  1  0  0  0  0
  2  3  2  0  0  0  0
  2  4  1  0  0  0  0
  3  5  1  0  0  0  0
  3  6  1  0  0  0  0
  4  7  2  0  0  0  0
  6  8  2  0  0  0  0
  7  9  1  0  0  0  0
  9 10  1  0  0  0  0
 10 11  2  0  0  0  0
 10 12  1  0  0  0  0
 11 13  1  0  0  0  0
 12 14  2  0  0  0  0
 12 15  1  0  0  0  0
 14 16  1  0  0  0  0
 15 17  2  0  0  0  0
 15 18  1  0  0  0  0
 18 19  1  0  0  0  0
 19 20  1  0  0  0  0
 20 21  1  0  0  0  0
 21 22  1  0  0  0  0
 22 23  2  0  0  0  0
 22 24  2  0  0  0  0
 22 25  1  0  0  0  0
  7  8  1  0  0  0  0
 16 17  1  0  0  0  0
M  END
>  <MolRegNo>
1927218

>  <m>
=

>  <Value>
28000

>  <Unit>
nM

>  <Type>
IC50

>  <pValue>
4.55

>  <Ligand Efficiency>
0

>  <Binding Efficiency>
0

>  <Surface Efficiency>
0

>  <Assay Index>
1487534

>  <Assay Category>


>  <Assay Organism>
Homo sapiens

>  <Target ID>
17045

>  <Target Name>
Cytochrome P450 3A4

>  <Target Organism>
Homo sapiens

>  <Target Description>
Target is a single protein chain

>  <Sequence Accession>
P08684

>  <Reference>
J Med Chem 64 (15.0), 11302-11329 (2021)

>  <Pubmed ID>
34292726

>  <DOI>
10.1021/acs.jmedchem.1c00679

$$$$
2546303
Actelion Java MolfileCreator 1.0

 30 34  0  0  1  0  0  0  0  0999 V2000
    0.0000   -0.0000   -0.0000 Cl  0  0  0  0  0  0  0  0  0  0  0  0
   -0.7840   -1.2591   -0.0000 C   0  0  0  0  0  0  0  0  0  0  0  0
   -0.0832   -2.5658   -0.0000 C   0  0  0  0  0  0  0  0  0  0  0  0
   -2.3045   -1.2235   -0.0000 C   0  0  0  0  0  0  0  0  0  0  0  0
   -0.8672   -3.8250   -0.0000 C   0  0  0  0  0  0  0  0  0  0  0  0
   -3.1004   -2.4827   -0.0000 C   0  0  0  0  0  0  0  0  0  0  0  0
   -2.3876   -3.7656   -0.0000 C   0  0  0  0  0  0  0  0  0  0  0  0
   -3.1835   -5.0366   -0.0000 C   0  0  0  0  0  0  0  0  0  0  0  0
   -2.4827   -6.3433   -0.0000 O   0  0  0  0  0  0  0  0  0  0  0  0
   -4.6802   -4.9891   -0.0000 N   0  0  0  0  0  0  0  0  0  0  0  0
   -5.4048   -3.6587   -0.0000 C   0  0  0  0  0  0  0  0  0  0  0  0
   -6.9134   -3.6111   -0.0000 C   0  0  0  0  0  0  0  0  0  0  0  0
   -4.6327   -2.3758   -0.0000 C   0  0  0  0  0  0  0  0  0  0  0  0
   -8.2557   -4.3120   -0.0000 C   0  0  0  0  0  0  0  0  0  0  0  0
   -8.1963   -2.8034   -0.0000 C   0  0  0  0  0  0  0  0  0  0  0  0
   -5.3573   -1.0453   -0.0000 C   0  0  0  0  0  0  0  0  0  0  0  0
   -9.7050   -4.7040   -0.0000 C   0  0  0  0  0  0  0  0  0  0  0  0
   -9.6099   -2.2807   -0.0000 C   0  0  0  0  0  0  0  0  0  0  0  0
  -10.5602   -3.4448   -0.0000 C   0  0  0  0  0  0  0  0  0  0  0  0
  -12.0569   -3.3736   -0.0000 O   0  0  0  0  0  0  0  0  0  0  0  0
  -12.7697   -2.0431   -0.0000 C   0  0  0  0  0  0  0  0  0  0  0  0
  -11.9857   -0.7602   -0.0000 C   0  0  0  0  0  0  0  0  0  0  0  0
  -14.2664   -1.9838   -0.0000 C   0  0  0  0  0  0  0  0  0  0  0  0
  -12.6865    0.5702   -0.0000 C   0  0  0  0  0  0  0  0  0  0  0  0
  -10.5127   -0.8078   -0.0000 C   0  0  0  0  0  0  0  0  0  0  0  0
  -14.9791   -0.6533   -0.0000 C   0  0  0  0  0  0  0  0  0  0  0  0
  -14.1951    0.6415   -0.0000 N   0  0  0  0  0  0  0  0  0  0  0  0
  -11.9144    1.8293   -0.0000 C   0  0  0  0  0  0  0  0  0  0  0  0
   -9.7406    0.4633   -0.0000 C   0  0  0  0  0  0  0  0  0  0  0  0
  -10.4414    1.7937   -0.0000 C   0  0  0  0  0  0  0  0  0  0  0  0
  1  2  1  0  0  0  0
  2  3  2  0  0  0  0
  2  4  1  0  0  0  0
  3  5  1  0  0  0  0
  4  6  2  0  0  0  0
  5  7  2  0  0  0  0
  7  8  1  0  0  0  0
  8  9  2  0  0  0  0
  8 10  1  0  0  0  0
 10 11  1  0  0  0  0
 12 11  1  6  0  0  0
 11 13  1  0  0  0  0
 12 14  1  0  0  0  0
 12 15  1  0  0  0  0
 13 16  1  0  0  0  0
 14 17  1  1  0  0  0
 15 18  1  1  0  0  0
 17 19  1  0  0  0  0
 19 20  1  1  0  0  0
 20 21  1  0  0  0  0
 21 22  1  0  0  0  0
 21 23  2  0  0  0  0
 22 24  1  0  0  0  0
 22 25  2  0  0  0  0
 23 26  1  0  0  0  0
 24 27  1  0  0  0  0
 24 28  2  0  0  0  0
 25 29  1  0  0  0  0
 28 30  1  0  0  0  0
  6  7  1  0  0  0  0
 14 15  1  0  0  0  0
 18 19  1  0  0  0  0
 26 27  2  0  0  0  0
 29 30  2  0  0  0  0
M  END
>  <MolRegNo>
2546303

>  <m>
=

>  <Value>
1100

>  <Unit>
nM

>  <Type>
IC50

>  <pValue>
5.96

>  <Ligand Efficiency>
0

>  <Binding Efficiency>
0

>  <Surface Efficiency>
0

>  <Assay Index>
1487534

>  <Assay Category>


>  <Assay Organism>
Homo sapiens

>  <Target ID>
17045

>  <Target Name>
Cytochrome P450 3A4

>  <Target Organism>
Homo sapiens

>  <Target Description>
Target is a single protein chain

>  <Sequence Accession>
P08684

>  <Reference>
J Med Chem 64 (15.0), 11302-11329 (2021)

>  <Pubmed ID>
34292726

>  <DOI>
10.1021/acs.jmedchem.1c00679

$$$$
2566293
Actelion Java MolfileCreator 1.0

 30 34  0  0  1  0  0  0  0  0999 V2000
    0.0000   -0.0000   -0.0000 Cl  0  0  0  0  0  0  0  0  0  0  0  0
   -0.7840   -1.2591   -0.0000 C   0  0  0  0  0  0  0  0  0  0  0  0
   -0.0832   -2.5658   -0.0000 C   0  0  0  0  0  0  0  0  0  0  0  0
   -2.3045   -1.2235   -0.0000 C   0  0  0  0  0  0  0  0  0  0  0  0
   -0.8672   -3.8250   -0.0000 C   0  0  0  0  0  0  0  0  0  0  0  0
   -3.1004   -2.4827   -0.0000 C   0  0  0  0  0  0  0  0  0  0  0  0
   -2.3876   -3.7656   -0.0000 C   0  0  0  0  0  0  0  0  0  0  0  0
   -3.1835   -5.0366   -0.0000 C   0  0  0  0  0  0  0  0  0  0  0  0
   -2.4827   -6.3433   -0.0000 O   0  0  0  0  0  0  0  0  0  0  0  0
   -4.6802   -4.9891   -0.0000 N   0  0  0  0  0  0  0  0  0  0  0  0
   -5.4048   -3.6587   -0.0000 C   0  0  0  0  0  0  0  0  0  0  0  0
   -6.9134   -3.6111   -0.0000 C   0  0  0  0  0  0  0  0  0  0  0  0
   -4.6327   -2.3758   -0.0000 C   0  0  0  0  0  0  0  0  0  0  0  0
   -8.2557   -4.3120   -0.0000 C   0  0  0  0  0  0  0  0  0  0  0  0
   -8.1963   -2.8034   -0.0000 C   0  0  0  0  0  0  0  0  0  0  0  0
   -5.3573   -1.0453   -0.0000 C   0  0  0  0  0  0  0  0  0  0  0  0
   -9.7050   -4.7040   -0.0000 C   0  0  0  0  0  0  0  0  0  0  0  0
   -9.6099   -2.2807   -0.0000 C   0  0  0  0  0  0  0  0  0  0  0  0
  -10.5602   -3.4448   -0.0000 C   0  0  0  0  0  0  0  0  0  0  0  0
  -12.0569   -3.3736   -0.0000 O   0  0  0  0  0  0  0  0  0  0  0  0
  -12.7697   -2.0431   -0.0000 C   0  0  0  0  0  0  0  0  0  0  0  0
  -11.9857   -0.7602   -0.0000 C   0  0  0  0  0  0  0  0  0  0  0  0
  -14.2664   -1.9838   -0.0000 C   0  0  0  0  0  0  0  0  0  0  0  0
  -12.6865    0.5702   -0.0000 C   0  0  0  0  0  0  0  0  0  0  0  0
  -10.5127   -0.8078   -0.0000 C   0  0  0  0  0  0  0  0  0  0  0  0
  -14.9791   -0.6533   -0.0000 C   0  0  0  0  0  0  0  0  0  0  0  0
  -14.1951    0.6415   -0.0000 N   0  0  0  0  0  0  0  0  0  0  0  0
  -11.9144    1.8293   -0.0000 C   0  0  0  0  0  0  0  0  0  0  0  0
   -9.7406    0.4633   -0.0000 C   0  0  0  0  0  0  0  0  0  0  0  0
  -10.4414    1.7937   -0.0000 C   0  0  0  0  0  0  0  0  0  0  0  0
  1  2  1  0  0  0  0
  2  3  2  0  0  0  0
  2  4  1  0  0  0  0
  3  5  1  0  0  0  0
  4  6  2  0  0  0  0
  5  7  2  0  0  0  0
  7  8  1  0  0  0  0
  8  9  2  0  0  0  0
  8 10  1  0  0  0  0
 10 11  1  0  0  0  0
 12 11  1  1  0  0  0
 11 13  1  0  0  0  0
 12 14  1  0  0  0  0
 12 15  1  0  0  0  0
 13 16  1  0  0  0  0
 14 17  1  1  0  0  0
 15 18  1  1  0  0  0
 17 19  1  0  0  0  0
 19 20  1  6  0  0  0
 20 21  1  0  0  0  0
 21 22  1  0  0  0  0
 21 23  2  0  0  0  0
 22 24  1  0  0  0  0
 22 25  2  0  0  0  0
 23 26  1  0  0  0  0
 24 27  1  0  0  0  0
 24 28  2  0  0  0  0
 25 29  1  0  0  0  0
 28 30  1  0  0  0  0
  6  7  1  0  0  0  0
 14 15  1  0  0  0  0
 18 19  1  0  0  0  0
 26 27  2  0  0  0  0
 29 30  2  0  0  0  0
M  END
>  <MolRegNo>
2566293

>  <m>
=

>  <Value>
3300

>  <Unit>
nM

>  <Type>
IC50

>  <pValue>
5.48

>  <Ligand Efficiency>
0

>  <Binding Efficiency>
0

>  <Surface Efficiency>
0

>  <Assay Index>
1487534

>  <Assay Category>


>  <Assay Organism>
Homo sapiens

>  <Target ID>
17045

>  <Target Name>
Cytochrome P450 3A4

>  <Target Organism>
Homo sapiens

>  <Target Description>
Target is a single protein chain

>  <Sequence Accession>
P08684

>  <Reference>
J Med Chem 64 (15.0), 11302-11329 (2021)

>  <Pubmed ID>
34292726

>  <DOI>
10.1021/acs.jmedchem.1c00679

$$$$
2540645
Actelion Java MolfileCreator 1.0

 31 35  0  0  1  0  0  0  0  0999 V2000
    0.0000   -0.0000   -0.0000 Cl  0  0  0  0  0  0  0  0  0  0  0  0
   -0.7944   -1.2569   -0.0000 C   0  0  0  0  0  0  0  0  0  0  0  0
   -0.0949   -2.5612   -0.0000 C   0  0  0  0  0  0  0  0  0  0  0  0
   -2.3122   -1.2095   -0.0000 C   0  0  0  0  0  0  0  0  0  0  0  0
   -0.8893   -3.8299   -0.0000 C   0  0  0  0  0  0  0  0  0  0  0  0
   -3.1066   -2.4782   -0.0000 C   0  0  0  0  0  0  0  0  0  0  0  0
   -2.3952   -3.7707   -0.0000 C   0  0  0  0  0  0  0  0  0  0  0  0
   -3.1896   -5.0394   -0.0000 C   0  0  0  0  0  0  0  0  0  0  0  0
   -2.4901   -6.3437   -0.0000 O   0  0  0  0  0  0  0  0  0  0  0  0
   -4.6955   -4.9920   -0.0000 N   0  0  0  0  0  0  0  0  0  0  0  0
   -5.4188   -3.6639   -0.0000 C   0  0  0  0  0  0  0  0  0  0  0  0
   -6.9247   -3.6046   -0.0000 C   0  0  0  0  0  0  0  0  0  0  0  0
   -4.6481   -2.3833   -0.0000 C   0  0  0  0  0  0  0  0  0  0  0  0
   -8.2646   -4.3042   -0.0000 C   0  0  0  0  0  0  0  0  0  0  0  0
   -8.2053   -2.7983   -0.0000 C   0  0  0  0  0  0  0  0  0  0  0  0
   -5.3714   -1.0553   -0.0000 C   0  0  0  0  0  0  0  0  0  0  0  0
   -9.7231   -4.7074   -0.0000 C   0  0  0  0  0  0  0  0  0  0  0  0
   -9.6282   -2.2766   -0.0000 C   0  0  0  0  0  0  0  0  0  0  0  0
  -10.5649   -3.4505   -0.0000 C   0  0  0  0  0  0  0  0  0  0  0  0
  -12.0708   -3.3794   -0.0000 O   0  0  0  0  0  0  0  0  0  0  0  0
  -12.7823   -2.0513   -0.0000 C   0  0  0  0  0  0  0  0  0  0  0  0
  -11.9997   -0.7707   -0.0000 C   0  0  0  0  0  0  0  0  0  0  0  0
  -14.2763   -1.9920   -0.0000 C   0  0  0  0  0  0  0  0  0  0  0  0
  -12.6993    0.5573   -0.0000 C   0  0  0  0  0  0  0  0  0  0  0  0
  -10.5294   -0.8182   -0.0000 C   0  0  0  0  0  0  0  0  0  0  0  0
  -14.9877   -0.6640   -0.0000 C   0  0  0  0  0  0  0  0  0  0  0  0
  -14.2052    0.6284   -0.0000 N   0  0  0  0  0  0  0  0  0  0  0  0
  -11.9285    1.8260   -0.0000 C   0  0  0  0  0  0  0  0  0  0  0  0
   -9.7468    0.4506   -0.0000 C   0  0  0  0  0  0  0  0  0  0  0  0
  -10.4582    1.7905   -0.0000 C   0  0  0  0  0  0  0  0  0  0  0  0
   -8.2646    0.4032   -0.0000 F   0  0  0  0  0  0  0  0  0  0  0  0
  1  2  1  0  0  0  0
  2  3  2  0  0  0  0
  2  4  1  0  0  0  0
  3  5  1  0  0  0  0
  4  6  2  0  0  0  0
  5  7  2  0  0  0  0
  7  8  1  0  0  0  0
  8  9  2  0  0  0  0
  8 10  1  0  0  0  0
 10 11  1  0  0  0  0
 12 11  1  1  0  0  0
 11 13  1  0  0  0  0
 12 14  1  0  0  0  0
 12 15  1  0  0  0  0
 13 16  1  0  0  0  0
 14 17  1  1  0  0  0
 15 18  1  1  0  0  0
 17 19  1  0  0  0  0
 19 20  1  6  0  0  0
 20 21  1  0  0  0  0
 21 22  1  0  0  0  0
 21 23  2  0  0  0  0
 22 24  1  0  0  0  0
 22 25  2  0  0  0  0
 23 26  1  0  0  0  0
 24 27  1  0  0  0  0
 24 28  2  0  0  0  0
 25 29  1  0  0  0  0
 28 30  1  0  0  0  0
 29 31  1  0  0  0  0
  6  7  1  0  0  0  0
 14 15  1  0  0  0  0
 18 19  1  0  0  0  0
 26 27  2  0  0  0  0
 29 30  2  0  0  0  0
M  END
>  <MolRegNo>
2540645

>  <m>
=

>  <Value>
1400

>  <Unit>
nM

>  <Type>
IC50

>  <pValue>
5.85

>  <Ligand Efficiency>
0

>  <Binding Efficiency>
0

>  <Surface Efficiency>
0

>  <Assay Index>
1487534

>  <Assay Category>


>  <Assay Organism>
Homo sapiens

>  <Target ID>
17045

>  <Target Name>
Cytochrome P450 3A4

>  <Target Organism>
Homo sapiens

>  <Target Description>
Target is a single protein chain

>  <Sequence Accession>
P08684

>  <Reference>
J Med Chem 64 (15.0), 11302-11329 (2021)

>  <Pubmed ID>
34292726

>  <DOI>
10.1021/acs.jmedchem.1c00679

$$$$
2546652
Actelion Java MolfileCreator 1.0

 29 33  0  0  1  0  0  0  0  0999 V2000
    0.0000   -0.0000   -0.0000 Cl  0  0  0  0  0  0  0  0  0  0  0  0
   -0.7943   -1.2567   -0.0000 C   0  0  0  0  0  0  0  0  0  0  0  0
   -0.0948   -2.5608   -0.0000 C   0  0  0  0  0  0  0  0  0  0  0  0
   -2.3118   -1.2093   -0.0000 C   0  0  0  0  0  0  0  0  0  0  0  0
   -0.8892   -3.8293   -0.0000 C   0  0  0  0  0  0  0  0  0  0  0  0
   -3.1062   -2.4778   -0.0000 C   0  0  0  0  0  0  0  0  0  0  0  0
   -2.3948   -3.7701   -0.0000 C   0  0  0  0  0  0  0  0  0  0  0  0
   -3.1891   -5.0386   -0.0000 C   0  0  0  0  0  0  0  0  0  0  0  0
   -2.4897   -6.3427   -0.0000 O   0  0  0  0  0  0  0  0  0  0  0  0
   -4.6948   -4.9912   -0.0000 N   0  0  0  0  0  0  0  0  0  0  0  0
   -5.4180   -3.6634   -0.0000 C   0  0  0  0  0  0  0  0  0  0  0  0
   -6.9236   -3.6041   -0.0000 C   0  0  0  0  0  0  0  0  0  0  0  0
   -8.2040   -2.7979   -0.0000 C   0  0  0  0  0  0  0  0  0  0  0  0
   -8.2633   -4.3036   -0.0000 C   0  0  0  0  0  0  0  0  0  0  0  0
   -9.6267   -2.2644   -0.0000 C   0  0  0  0  0  0  0  0  0  0  0  0
   -9.7215   -4.7066   -0.0000 C   0  0  0  0  0  0  0  0  0  0  0  0
  -10.5633   -3.4262   -0.0000 C   0  0  0  0  0  0  0  0  0  0  0  0
  -12.0689   -3.3551   -0.0000 O   0  0  0  0  0  0  0  0  0  0  0  0
  -12.7803   -2.0273   -0.0000 C   0  0  0  0  0  0  0  0  0  0  0  0
  -11.9978   -0.7469   -0.0000 C   0  0  0  0  0  0  0  0  0  0  0  0
  -14.2741   -1.9680   -0.0000 C   0  0  0  0  0  0  0  0  0  0  0  0
  -12.6973    0.5809   -0.0000 C   0  0  0  0  0  0  0  0  0  0  0  0
  -10.5277   -0.7943   -0.0000 C   0  0  0  0  0  0  0  0  0  0  0  0
  -14.9854   -0.6402   -0.0000 C   0  0  0  0  0  0  0  0  0  0  0  0
  -14.2029    0.6521   -0.0000 N   0  0  0  0  0  0  0  0  0  0  0  0
  -11.9267    1.8495   -0.0000 C   0  0  0  0  0  0  0  0  0  0  0  0
   -9.7453    0.4742   -0.0000 C   0  0  0  0  0  0  0  0  0  0  0  0
  -10.4566    1.8139   -0.0000 C   0  0  0  0  0  0  0  0  0  0  0  0
   -8.2633    0.4268   -0.0000 F   0  0  0  0  0  0  0  0  0  0  0  0
  1  2  1  0  0  0  0
  2  3  2  0  0  0  0
  2  4  1  0  0  0  0
  3  5  1  0  0  0  0
  4  6  2  0  0  0  0
  5  7  2  0  0  0  0
  7  8  1  0  0  0  0
  8  9  2  0  0  0  0
  8 10  1  0  0  0  0
 10 11  1  0  0  0  0
 12 11  1  1  0  0  0
 12 13  1  0  0  0  0
 12 14  1  0  0  0  0
 13 15  1  1  0  0  0
 14 16  1  1  0  0  0
 15 17  1  0  0  0  0
 17 18  1  6  0  0  0
 18 19  1  0  0  0  0
 19 20  1  0  0  0  0
 19 21  2  0  0  0  0
 20 22  1  0  0  0  0
 20 23  2  0  0  0  0
 21 24  1  0  0  0  0
 22 25  1  0  0  0  0
 22 26  2  0  0  0  0
 23 27  1  0  0  0  0
 26 28  1  0  0  0  0
 27 29  1  0  0  0  0
  6  7  1  0  0  0  0
 13 14  1  0  0  0  0
 16 17  1  0  0  0  0
 24 25  2  0  0  0  0
 27 28  2  0  0  0  0
M  END
>  <MolRegNo>
2546652

>  <m>
=

>  <Value>
2100

>  <Unit>
nM

>  <Type>
IC50

>  <pValue>
5.68

>  <Ligand Efficiency>
0

>  <Binding Efficiency>
0

>  <Surface Efficiency>
0

>  <Assay Index>
1487534

>  <Assay Category>


>  <Assay Organism>
Homo sapiens

>  <Target ID>
17045

>  <Target Name>
Cytochrome P450 3A4

>  <Target Organism>
Homo sapiens

>  <Target Description>
Target is a single protein chain

>  <Sequence Accession>
P08684

>  <Reference>
J Med Chem 64 (15.0), 11302-11329 (2021)

>  <Pubmed ID>
34292726

>  <DOI>
10.1021/acs.jmedchem.1c00679

$$$$
2566574
Actelion Java MolfileCreator 1.0

 29 33  0  0  1  0  0  0  0  0999 V2000
    0.0000   -0.0000   -0.0000 Cl  0  0  0  0  0  0  0  0  0  0  0  0
   -0.7943   -1.2567   -0.0000 C   0  0  0  0  0  0  0  0  0  0  0  0
   -0.0948   -2.5608   -0.0000 C   0  0  0  0  0  0  0  0  0  0  0  0
   -2.3118   -1.2093   -0.0000 C   0  0  0  0  0  0  0  0  0  0  0  0
   -0.8892   -3.8293   -0.0000 C   0  0  0  0  0  0  0  0  0  0  0  0
   -3.1062   -2.4778   -0.0000 C   0  0  0  0  0  0  0  0  0  0  0  0
   -2.3948   -3.7701   -0.0000 C   0  0  0  0  0  0  0  0  0  0  0  0
   -3.1891   -5.0386   -0.0000 C   0  0  0  0  0  0  0  0  0  0  0  0
   -2.4897   -6.3427   -0.0000 O   0  0  0  0  0  0  0  0  0  0  0  0
   -4.6948   -4.9912   -0.0000 N   0  0  0  0  0  0  0  0  0  0  0  0
   -5.4180   -3.6634   -0.0000 C   0  0  0  0  0  0  0  0  0  0  0  0
   -6.9236   -3.6041   -0.0000 C   0  0  0  0  0  0  0  0  0  0  0  0
   -8.2040   -2.7979   -0.0000 C   0  0  0  0  0  0  0  0  0  0  0  0
   -8.2633   -4.3036   -0.0000 C   0  0  0  0  0  0  0  0  0  0  0  0
   -9.6267   -2.2644   -0.0000 C   0  0  0  0  0  0  0  0  0  0  0  0
   -9.7215   -4.7066   -0.0000 C   0  0  0  0  0  0  0  0  0  0  0  0
  -10.5633   -3.4262   -0.0000 C   0  0  0  0  0  0  0  0  0  0  0  0
  -12.0689   -3.3551   -0.0000 O   0  0  0  0  0  0  0  0  0  0  0  0
  -12.7803   -2.0273   -0.0000 C   0  0  0  0  0  0  0  0  0  0  0  0
  -11.9978   -0.7469   -0.0000 C   0  0  0  0  0  0  0  0  0  0  0  0
  -14.2741   -1.9680   -0.0000 C   0  0  0  0  0  0  0  0  0  0  0  0
  -12.6973    0.5809   -0.0000 C   0  0  0  0  0  0  0  0  0  0  0  0
  -10.5277   -0.7943   -0.0000 C   0  0  0  0  0  0  0  0  0  0  0  0
  -14.9854   -0.6402   -0.0000 C   0  0  0  0  0  0  0  0  0  0  0  0
  -14.2029    0.6521   -0.0000 N   0  0  0  0  0  0  0  0  0  0  0  0
  -11.9267    1.8495   -0.0000 C   0  0  0  0  0  0  0  0  0  0  0  0
   -9.7453    0.4742   -0.0000 C   0  0  0  0  0  0  0  0  0  0  0  0
  -10.4566    1.8139   -0.0000 C   0  0  0  0  0  0  0  0  0  0  0  0
   -8.2633    0.4268   -0.0000 F   0  0  0  0  0  0  0  0  0  0  0  0
  1  2  1  0  0  0  0
  2  3  2  0  0  0  0
  2  4  1  0  0  0  0
  3  5  1  0  0  0  0
  4  6  2  0  0  0  0
  5  7  2  0  0  0  0
  7  8  1  0  0  0  0
  8  9  2  0  0  0  0
  8 10  1  0  0  0  0
 10 11  1  0  0  0  0
 12 11  1  6  0  0  0
 12 13  1  0  0  0  0
 12 14  1  0  0  0  0
 13 15  1  1  0  0  0
 14 16  1  1  0  0  0
 15 17  1  0  0  0  0
 17 18  1  1  0  0  0
 18 19  1  0  0  0  0
 19 20  1  0  0  0  0
 19 21  2  0  0  0  0
 20 22  1  0  0  0  0
 20 23  2  0  0  0  0
 21 24  1  0  0  0  0
 22 25  1  0  0  0  0
 22 26  2  0  0  0  0
 23 27  1  0  0  0  0
 26 28  1  0  0  0  0
 27 29  1  0  0  0  0
  6  7  1  0  0  0  0
 13 14  1  0  0  0  0
 16 17  1  0  0  0  0
 24 25  2  0  0  0  0
 27 28  2  0  0  0  0
M  END
>  <MolRegNo>
2566574

>  <m>
=

>  <Value>
1900

>  <Unit>
nM

>  <Type>
IC50

>  <pValue>
5.72

>  <Ligand Efficiency>
0

>  <Binding Efficiency>
0

>  <Surface Efficiency>
0

>  <Assay Index>
1487534

>  <Assay Category>


>  <Assay Organism>
Homo sapiens

>  <Target ID>
17045

>  <Target Name>
Cytochrome P450 3A4

>  <Target Organism>
Homo sapiens

>  <Target Description>
Target is a single protein chain

>  <Sequence Accession>
P08684

>  <Reference>
J Med Chem 64 (15.0), 11302-11329 (2021)

>  <Pubmed ID>
34292726

>  <DOI>
10.1021/acs.jmedchem.1c00679

$$$$
2567699
Actelion Java MolfileCreator 1.0

 29 33  0  0  1  0  0  0  0  0999 V2000
    0.0000   -0.0000   -0.0000 Cl  0  0  0  0  0  0  0  0  0  0  0  0
   -0.7943   -1.2567   -0.0000 C   0  0  0  0  0  0  0  0  0  0  0  0
   -0.0948   -2.5608   -0.0000 C   0  0  0  0  0  0  0  0  0  0  0  0
   -2.3118   -1.2093   -0.0000 C   0  0  0  0  0  0  0  0  0  0  0  0
   -0.8892   -3.8293   -0.0000 C   0  0  0  0  0  0  0  0  0  0  0  0
   -3.1062   -2.4778   -0.0000 C   0  0  0  0  0  0  0  0  0  0  0  0
   -2.3948   -3.7701   -0.0000 C   0  0  0  0  0  0  0  0  0  0  0  0
   -3.1891   -5.0386   -0.0000 C   0  0  0  0  0  0  0  0  0  0  0  0
   -2.4897   -6.3427   -0.0000 O   0  0  0  0  0  0  0  0  0  0  0  0
   -4.6948   -4.9912   -0.0000 N   0  0  0  0  0  0  0  0  0  0  0  0
   -5.4180   -3.6634   -0.0000 C   0  0  0  0  0  0  0  0  0  0  0  0
   -6.9236   -3.6041   -0.0000 C   0  0  0  0  0  0  0  0  0  0  0  0
   -8.2040   -2.7979   -0.0000 C   0  0  0  0  0  0  0  0  0  0  0  0
   -8.2633   -4.3036   -0.0000 C   0  0  0  0  0  0  0  0  0  0  0  0
   -9.6267   -2.2644   -0.0000 C   0  0  0  0  0  0  0  0  0  0  0  0
   -9.7215   -4.7066   -0.0000 C   0  0  0  0  0  0  0  0  0  0  0  0
  -10.5633   -3.4262   -0.0000 C   0  0  0  0  0  0  0  0  0  0  0  0
  -12.0689   -3.3551   -0.0000 O   0  0  0  0  0  0  0  0  0  0  0  0
  -12.7803   -2.0273   -0.0000 C   0  0  0  0  0  0  0  0  0  0  0  0
  -11.9978   -0.7469   -0.0000 C   0  0  0  0  0  0  0  0  0  0  0  0
  -14.2741   -1.9680   -0.0000 C   0  0  0  0  0  0  0  0  0  0  0  0
  -12.6973    0.5809   -0.0000 C   0  0  0  0  0  0  0  0  0  0  0  0
  -10.5277   -0.7943   -0.0000 C   0  0  0  0  0  0  0  0  0  0  0  0
  -14.9854   -0.6402   -0.0000 C   0  0  0  0  0  0  0  0  0  0  0  0
  -14.2029    0.6521   -0.0000 N   0  0  0  0  0  0  0  0  0  0  0  0
  -11.9267    1.8495   -0.0000 C   0  0  0  0  0  0  0  0  0  0  0  0
   -9.7453    0.4742   -0.0000 C   0  0  0  0  0  0  0  0  0  0  0  0
  -10.4566    1.8139   -0.0000 C   0  0  0  0  0  0  0  0  0  0  0  0
   -8.2633    0.4268   -0.0000 F   0  0  0  0  0  0  0  0  0  0  0  0
  1  2  1  0  0  0  0
  2  3  2  0  0  0  0
  2  4  1  0  0  0  0
  3  5  1  0  0  0  0
  4  6  2  0  0  0  0
  5  7  2  0  0  0  0
  7  8  1  0  0  0  0
  8  9  2  0  0  0  0
  8 10  1  0  0  0  0
 10 11  1  0  0  0  0
 12 11  1  1  0  0  0
 12 13  1  0  0  0  0
 12 14  1  0  0  0  0
 13 15  1  1  0  0  0
 14 16  1  1  0  0  0
 15 17  1  0  0  0  0
 17 18  1  1  0  0  0
 18 19  1  0  0  0  0
 19 20  1  0  0  0  0
 19 21  2  0  0  0  0
 20 22  1  0  0  0  0
 20 23  2  0  0  0  0
 21 24  1  0  0  0  0
 22 25  1  0  0  0  0
 22 26  2  0  0  0  0
 23 27  1  0  0  0  0
 26 28  1  0  0  0  0
 27 29  1  0  0  0  0
  6  7  1  0  0  0  0
 13 14  1  0  0  0  0
 16 17  1  0  0  0  0
 24 25  2  0  0  0  0
 27 28  2  0  0  0  0
M  END
>  <MolRegNo>
2567699

>  <m>
=

>  <Value>
6700

>  <Unit>
nM

>  <Type>
IC50

>  <pValue>
5.17

>  <Ligand Efficiency>
0

>  <Binding Efficiency>
0

>  <Surface Efficiency>
0

>  <Assay Index>
1487534

>  <Assay Category>


>  <Assay Organism>
Homo sapiens

>  <Target ID>
17045

>  <Target Name>
Cytochrome P450 3A4

>  <Target Organism>
Homo sapiens

>  <Target Description>
Target is a single protein chain

>  <Sequence Accession>
P08684

>  <Reference>
J Med Chem 64 (15.0), 11302-11329 (2021)

>  <Pubmed ID>
34292726

>  <DOI>
10.1021/acs.jmedchem.1c00679

$$$$
2561883
Actelion Java MolfileCreator 1.0

 31 35  0  0  1  0  0  0  0  0999 V2000
    0.0000   -0.0000   -0.0000 Cl  0  0  0  0  0  0  0  0  0  0  0  0
   -0.7940   -1.2561   -0.0000 C   0  0  0  0  0  0  0  0  0  0  0  0
   -0.0948   -2.5597   -0.0000 C   0  0  0  0  0  0  0  0  0  0  0  0
   -2.3108   -1.2087   -0.0000 C   0  0  0  0  0  0  0  0  0  0  0  0
   -0.8888   -3.8277   -0.0000 C   0  0  0  0  0  0  0  0  0  0  0  0
   -3.1048   -2.4767   -0.0000 C   0  0  0  0  0  0  0  0  0  0  0  0
   -2.3938   -3.7684   -0.0000 C   0  0  0  0  0  0  0  0  0  0  0  0
   -3.1877   -5.0364   -0.0000 C   0  0  0  0  0  0  0  0  0  0  0  0
   -2.4886   -6.3399   -0.0000 O   0  0  0  0  0  0  0  0  0  0  0  0
   -4.6927   -4.9890   -0.0000 N   0  0  0  0  0  0  0  0  0  0  0  0
   -5.4156   -3.6618   -0.0000 C   0  0  0  0  0  0  0  0  0  0  0  0
   -6.9206   -3.6025   -0.0000 C   0  0  0  0  0  0  0  0  0  0  0  0
   -4.6453   -2.3819   -0.0000 C   0  0  0  0  0  0  0  0  0  0  0  0
   -8.2597   -4.3017   -0.0000 C   0  0  0  0  0  0  0  0  0  0  0  0
   -8.2004   -2.7967   -0.0000 C   0  0  0  0  0  0  0  0  0  0  0  0
   -5.3682   -1.0547   -0.0000 C   0  0  0  0  0  0  0  0  0  0  0  0
   -9.7173   -4.7046   -0.0000 C   0  0  0  0  0  0  0  0  0  0  0  0
   -9.6225   -2.2634   -0.0000 C   0  0  0  0  0  0  0  0  0  0  0  0
  -10.5587   -3.4484   -0.0000 C   0  0  0  0  0  0  0  0  0  0  0  0
  -12.0636   -3.3773   -0.0000 O   0  0  0  0  0  0  0  0  0  0  0  0
  -12.7747   -2.0501   -0.0000 C   0  0  0  0  0  0  0  0  0  0  0  0
  -11.9925   -0.7703   -0.0000 C   0  0  0  0  0  0  0  0  0  0  0  0
  -14.2678   -1.9909   -0.0000 C   0  0  0  0  0  0  0  0  0  0  0  0
  -12.6917    0.5570   -0.0000 C   0  0  0  0  0  0  0  0  0  0  0  0
  -10.5231   -0.8177   -0.0000 C   0  0  0  0  0  0  0  0  0  0  0  0
  -14.9788   -0.6636   -0.0000 C   0  0  0  0  0  0  0  0  0  0  0  0
  -14.1967    0.6281   -0.0000 N   0  0  0  0  0  0  0  0  0  0  0  0
  -11.9214    1.8250   -0.0000 C   0  0  0  0  0  0  0  0  0  0  0  0
   -9.7410    0.4503   -0.0000 C   0  0  0  0  0  0  0  0  0  0  0  0
  -10.4520    1.7894   -0.0000 C   0  0  0  0  0  0  0  0  0  0  0  0
   -9.6699    3.0692   -0.0000 F   0  0  0  0  0  0  0  0  0  0  0  0
  1  2  1  0  0  0  0
  2  3  2  0  0  0  0
  2  4  1  0  0  0  0
  3  5  1  0  0  0  0
  4  6  2  0  0  0  0
  5  7  2  0  0  0  0
  7  8  1  0  0  0  0
  8  9  2  0  0  0  0
  8 10  1  0  0  0  0
 10 11  1  0  0  0  0
 12 11  1  1  0  0  0
 11 13  1  0  0  0  0
 12 14  1  0  0  0  0
 12 15  1  0  0  0  0
 13 16  1  0  0  0  0
 14 17  1  1  0  0  0
 15 18  1  1  0  0  0
 17 19  1  0  0  0  0
 19 20  1  1  0  0  0
 20 21  1  0  0  0  0
 21 22  1  0  0  0  0
 21 23  2  0  0  0  0
 22 24  1  0  0  0  0
 22 25  2  0  0  0  0
 23 26  1  0  0  0  0
 24 27  1  0  0  0  0
 24 28  2  0  0  0  0
 25 29  1  0  0  0  0
 28 30  1  0  0  0  0
 30 31  1  0  0  0  0
  6  7  1  0  0  0  0
 14 15  1  0  0  0  0
 18 19  1  0  0  0  0
 26 27  2  0  0  0  0
 29 30  2  0  0  0  0
M  END
>  <MolRegNo>
2561883

>  <m>
=

>  <Value>
5400

>  <Unit>
nM

>  <Type>
IC50

>  <pValue>
5.27

>  <Ligand Efficiency>
0

>  <Binding Efficiency>
0

>  <Surface Efficiency>
0

>  <Assay Index>
1487534

>  <Assay Category>


>  <Assay Organism>
Homo sapiens

>  <Target ID>
17045

>  <Target Name>
Cytochrome P450 3A4

>  <Target Organism>
Homo sapiens

>  <Target Description>
Target is a single protein chain

>  <Sequence Accession>
P08684

>  <Reference>
J Med Chem 64 (15.0), 11302-11329 (2021)

>  <Pubmed ID>
34292726

>  <DOI>
10.1021/acs.jmedchem.1c00679

$$$$
2567663
Actelion Java MolfileCreator 1.0

 30 34  0  0  1  0  0  0  0  0999 V2000
    0.0000   -0.0000   -0.0000 Cl  0  0  0  0  0  0  0  0  0  0  0  0
   -0.7941   -1.2564   -0.0000 C   0  0  0  0  0  0  0  0  0  0  0  0
   -0.0948   -2.5602   -0.0000 C   0  0  0  0  0  0  0  0  0  0  0  0
   -2.3113   -1.2090   -0.0000 C   0  0  0  0  0  0  0  0  0  0  0  0
   -0.8890   -3.8284   -0.0000 C   0  0  0  0  0  0  0  0  0  0  0  0
   -3.1054   -2.4772   -0.0000 C   0  0  0  0  0  0  0  0  0  0  0  0
   -2.3942   -3.7691   -0.0000 C   0  0  0  0  0  0  0  0  0  0  0  0
   -3.1884   -5.0374   -0.0000 C   0  0  0  0  0  0  0  0  0  0  0  0
   -2.4891   -6.3412   -0.0000 O   0  0  0  0  0  0  0  0  0  0  0  0
   -4.6937   -4.9900   -0.0000 N   0  0  0  0  0  0  0  0  0  0  0  0
   -5.4167   -3.6625   -0.0000 C   0  0  0  0  0  0  0  0  0  0  0  0
   -6.9220   -3.6032   -0.0000 C   0  0  0  0  0  0  0  0  0  0  0  0
   -4.6462   -2.3824   -0.0000 C   0  0  0  0  0  0  0  0  0  0  0  0
   -8.2613   -4.3025   -0.0000 C   0  0  0  0  0  0  0  0  0  0  0  0
   -8.2020   -2.7972   -0.0000 C   0  0  0  0  0  0  0  0  0  0  0  0
   -5.3693   -1.0549   -0.0000 C   0  0  0  0  0  0  0  0  0  0  0  0
   -9.7192   -4.7055   -0.0000 C   0  0  0  0  0  0  0  0  0  0  0  0
   -9.6244   -2.2639   -0.0000 C   0  0  0  0  0  0  0  0  0  0  0  0
  -10.5607   -3.4491   -0.0000 C   0  0  0  0  0  0  0  0  0  0  0  0
  -12.0660   -3.3780   -0.0000 O   0  0  0  0  0  0  0  0  0  0  0  0
  -12.7772   -2.0505   -0.0000 C   0  0  0  0  0  0  0  0  0  0  0  0
  -11.9949   -0.7704   -0.0000 C   0  0  0  0  0  0  0  0  0  0  0  0
  -14.2706   -1.9912   -0.0000 C   0  0  0  0  0  0  0  0  0  0  0  0
  -10.5252   -0.8178   -0.0000 N   0  0  0  0  0  0  0  0  0  0  0  0
  -12.6942    0.5571   -0.0000 C   0  0  0  0  0  0  0  0  0  0  0  0
  -14.9818   -0.6637   -0.0000 C   0  0  0  0  0  0  0  0  0  0  0  0
   -9.7429    0.4504   -0.0000 C   0  0  0  0  0  0  0  0  0  0  0  0
  -14.1995    0.6282   -0.0000 N   0  0  0  0  0  0  0  0  0  0  0  0
  -11.9238    1.8253   -0.0000 C   0  0  0  0  0  0  0  0  0  0  0  0
  -10.4541    1.7779   -0.0000 C   0  0  0  0  0  0  0  0  0  0  0  0
  1  2  1  0  0  0  0
  2  3  2  0  0  0  0
  2  4  1  0  0  0  0
  3  5  1  0  0  0  0
  4  6  2  0  0  0  0
  5  7  2  0  0  0  0
  7  8  1  0  0  0  0
  8  9  2  0  0  0  0
  8 10  1  0  0  0  0
 10 11  1  0  0  0  0
 12 11  1  1  0  0  0
 11 13  1  0  0  0  0
 12 14  1  0  0  0  0
 12 15  1  0  0  0  0
 13 16  1  0  0  0  0
 14 17  1  1  0  0  0
 15 18  1  1  0  0  0
 17 19  1  0  0  0  0
 19 20  1  1  0  0  0
 20 21  1  0  0  0  0
 21 22  1  0  0  0  0
 21 23  2  0  0  0  0
 22 24  2  0  0  0  0
 22 25  1  0  0  0  0
 23 26  1  0  0  0  0
 24 27  1  0  0  0  0
 25 28  1  0  0  0  0
 25 29  2  0  0  0  0
 27 30  2  0  0  0  0
  6  7  1  0  0  0  0
 14 15  1  0  0  0  0
 18 19  1  0  0  0  0
 26 28  2  0  0  0  0
 29 30  1  0  0  0  0
M  END
>  <MolRegNo>
2567663

>  <m>
=

>  <Value>
13000

>  <Unit>
nM

>  <Type>
IC50

>  <pValue>
4.89

>  <Ligand Efficiency>
0

>  <Binding Efficiency>
0

>  <Surface Efficiency>
0

>  <Assay Index>
1487534

>  <Assay Category>


>  <Assay Organism>
Homo sapiens

>  <Target ID>
17045

>  <Target Name>
Cytochrome P450 3A4

>  <Target Organism>
Homo sapiens

>  <Target Description>
Target is a single protein chain

>  <Sequence Accession>
P08684

>  <Reference>
J Med Chem 64 (15.0), 11302-11329 (2021)

>  <Pubmed ID>
34292726

>  <DOI>
10.1021/acs.jmedchem.1c00679

$$$$
2564435
Actelion Java MolfileCreator 1.0

 30 34  0  0  1  0  0  0  0  0999 V2000
    0.0000   -0.0000   -0.0000 Cl  0  0  0  0  0  0  0  0  0  0  0  0
   -0.7940   -1.2561   -0.0000 C   0  0  0  0  0  0  0  0  0  0  0  0
   -0.0948   -2.5597   -0.0000 C   0  0  0  0  0  0  0  0  0  0  0  0
   -2.3108   -1.2087   -0.0000 C   0  0  0  0  0  0  0  0  0  0  0  0
   -0.8888   -3.8277   -0.0000 C   0  0  0  0  0  0  0  0  0  0  0  0
   -3.1048   -2.4767   -0.0000 C   0  0  0  0  0  0  0  0  0  0  0  0
   -2.3938   -3.7684   -0.0000 C   0  0  0  0  0  0  0  0  0  0  0  0
   -3.1877   -5.0364   -0.0000 C   0  0  0  0  0  0  0  0  0  0  0  0
   -2.4886   -6.3399   -0.0000 O   0  0  0  0  0  0  0  0  0  0  0  0
   -4.6927   -4.9890   -0.0000 N   0  0  0  0  0  0  0  0  0  0  0  0
   -5.4156   -3.6617   -0.0000 C   0  0  0  0  0  0  0  0  0  0  0  0
   -6.9206   -3.6025   -0.0000 C   0  0  0  0  0  0  0  0  0  0  0  0
   -4.6453   -2.3819   -0.0000 C   0  0  0  0  0  0  0  0  0  0  0  0
   -8.2597   -4.3017   -0.0000 C   0  0  0  0  0  0  0  0  0  0  0  0
   -8.2004   -2.7967   -0.0000 C   0  0  0  0  0  0  0  0  0  0  0  0
   -5.3682   -1.0547   -0.0000 C   0  0  0  0  0  0  0  0  0  0  0  0
   -9.7173   -4.7046   -0.0000 C   0  0  0  0  0  0  0  0  0  0  0  0
   -9.6225   -2.2634   -0.0000 C   0  0  0  0  0  0  0  0  0  0  0  0
  -10.5586   -3.4484   -0.0000 C   0  0  0  0  0  0  0  0  0  0  0  0
  -12.0636   -3.3773   -0.0000 O   0  0  0  0  0  0  0  0  0  0  0  0
  -12.7746   -2.0501   -0.0000 C   0  0  0  0  0  0  0  0  0  0  0  0
  -11.9925   -0.7703   -0.0000 C   0  0  0  0  0  0  0  0  0  0  0  0
  -14.2678   -1.9909   -0.0000 C   0  0  0  0  0  0  0  0  0  0  0  0
  -12.6917    0.5570   -0.0000 C   0  0  0  0  0  0  0  0  0  0  0  0
  -10.5231   -0.8177   -0.0000 C   0  0  0  0  0  0  0  0  0  0  0  0
  -14.9788   -0.6636   -0.0000 C   0  0  0  0  0  0  0  0  0  0  0  0
  -14.1967    0.6281   -0.0000 N   0  0  0  0  0  0  0  0  0  0  0  0
  -11.9214    1.8249   -0.0000 C   0  0  0  0  0  0  0  0  0  0  0  0
   -9.7410    0.4503   -0.0000 N   0  0  0  0  0  0  0  0  0  0  0  0
  -10.4520    1.7894   -0.0000 C   0  0  0  0  0  0  0  0  0  0  0  0
  1  2  1  0  0  0  0
  2  3  2  0  0  0  0
  2  4  1  0  0  0  0
  3  5  1  0  0  0  0
  4  6  2  0  0  0  0
  5  7  2  0  0  0  0
  7  8  1  0  0  0  0
  8  9  2  0  0  0  0
  8 10  1  0  0  0  0
 10 11  1  0  0  0  0
 12 11  1  1  0  0  0
 11 13  1  0  0  0  0
 12 14  1  0  0  0  0
 12 15  1  0  0  0  0
 13 16  1  0  0  0  0
 14 17  1  1  0  0  0
 15 18  1  1  0  0  0
 17 19  1  0  0  0  0
 19 20  1  1  0  0  0
 20 21  1  0  0  0  0
 21 22  1  0  0  0  0
 21 23  2  0  0  0  0
 22 24  1  0  0  0  0
 22 25  2  0  0  0  0
 23 26  1  0  0  0  0
 24 27  1  0  0  0  0
 24 28  2  0  0  0  0
 25 29  1  0  0  0  0
 28 30  1  0  0  0  0
  6  7  1  0  0  0  0
 14 15  1  0  0  0  0
 18 19  1  0  0  0  0
 26 27  2  0  0  0  0
 29 30  2  0  0  0  0
M  END
>  <MolRegNo>
2564435

>  <m>
=

>  <Value>
18000

>  <Unit>
nM

>  <Type>
IC50

>  <pValue>
4.75

>  <Ligand Efficiency>
0

>  <Binding Efficiency>
0

>  <Surface Efficiency>
0

>  <Assay Index>
1487534

>  <Assay Category>


>  <Assay Organism>
Homo sapiens

>  <Target ID>
17045

>  <Target Name>
Cytochrome P450 3A4

>  <Target Organism>
Homo sapiens

>  <Target Description>
Target is a single protein chain

>  <Sequence Accession>
P08684

>  <Reference>
J Med Chem 64 (15.0), 11302-11329 (2021)

>  <Pubmed ID>
34292726

>  <DOI>
10.1021/acs.jmedchem.1c00679

$$$$
2541826
Actelion Java MolfileCreator 1.0

 27 31  0  0  1  0  0  0  0  0999 V2000
    0.0000   -0.0000   -0.0000 Cl  0  0  0  0  0  0  0  0  0  0  0  0
   -0.7812   -1.2547   -0.0000 C   0  0  0  0  0  0  0  0  0  0  0  0
   -0.0829   -2.5567   -0.0000 C   0  0  0  0  0  0  0  0  0  0  0  0
   -2.2963   -1.2073   -0.0000 C   0  0  0  0  0  0  0  0  0  0  0  0
   -0.8759   -3.8233   -0.0000 C   0  0  0  0  0  0  0  0  0  0  0  0
   -3.0776   -2.4739   -0.0000 C   0  0  0  0  0  0  0  0  0  0  0  0
   -2.3792   -3.7641   -0.0000 C   0  0  0  0  0  0  0  0  0  0  0  0
   -3.1722   -5.0306   -0.0000 C   0  0  0  0  0  0  0  0  0  0  0  0
   -2.4739   -6.3327   -0.0000 O   0  0  0  0  0  0  0  0  0  0  0  0
   -4.6755   -4.9833   -0.0000 N   0  0  0  0  0  0  0  0  0  0  0  0
   -5.3976   -3.6576   -0.0000 C   0  0  0  0  0  0  0  0  0  0  0  0
   -6.9008   -3.5984   -0.0000 C   0  0  0  0  0  0  0  0  0  0  0  0
   -4.6282   -2.3792   -0.0000 C   0  0  0  0  0  0  0  0  0  0  0  0
   -8.2384   -4.2967   -0.0000 C   0  0  0  0  0  0  0  0  0  0  0  0
   -8.1792   -2.7935   -0.0000 C   0  0  0  0  0  0  0  0  0  0  0  0
   -5.3502   -1.0535   -0.0000 C   0  0  0  0  0  0  0  0  0  0  0  0
   -9.6943   -4.6992   -0.0000 C   0  0  0  0  0  0  0  0  0  0  0  0
   -9.5996   -2.2608   -0.0000 C   0  0  0  0  0  0  0  0  0  0  0  0
  -10.5347   -3.4445   -0.0000 C   0  0  0  0  0  0  0  0  0  0  0  0
  -12.0380   -3.4208   -0.0000 N   0  0  0  0  0  0  0  0  0  0  0  0
  -12.9257   -2.2016   -0.0000 N   0  0  0  0  0  0  0  0  0  0  0  0
  -12.9494   -4.6163   -0.0000 C   0  0  0  0  0  0  0  0  0  0  0  0
  -14.3580   -2.6396   -0.0000 C   0  0  0  0  0  0  0  0  0  0  0  0
  -14.3816   -4.1310   -0.0000 N   0  0  0  0  0  0  0  0  0  0  0  0
  -15.5653   -1.7400   -0.0000 C   0  0  0  0  0  0  0  0  0  0  0  0
  -17.0567   -1.5624   -0.0000 C   0  0  0  0  0  0  0  0  0  0  0  0
  -16.1690   -0.3669   -0.0000 C   0  0  0  0  0  0  0  0  0  0  0  0
  1  2  1  0  0  0  0
  2  3  2  0  0  0  0
  2  4  1  0  0  0  0
  3  5  1  0  0  0  0
  4  6  2  0  0  0  0
  5  7  2  0  0  0  0
  7  8  1  0  0  0  0
  8  9  2  0  0  0  0
  8 10  1  0  0  0  0
 10 11  1  0  0  0  0
 12 11  1  6  0  0  0
 11 13  1  0  0  0  0
 12 14  1  0  0  0  0
 12 15  1  0  0  0  0
 13 16  1  0  0  0  0
 14 17  1  1  0  0  0
 15 18  1  1  0  0  0
 17 19  1  0  0  0  0
 19 20  1  6  0  0  0
 20 21  1  0  0  0  0
 20 22  1  0  0  0  0
 21 23  2  0  0  0  0
 22 24  2  0  0  0  0
 23 25  1  0  0  0  0
 25 26  1  0  0  0  0
 25 27  1  0  0  0  0
  6  7  1  0  0  0  0
 14 15  1  0  0  0  0
 18 19  1  0  0  0  0
 23 24  1  0  0  0  0
 26 27  1  0  0  0  0
M  END
>  <MolRegNo>
2541826

>  <m>
=

>  <Value>
31000

>  <Unit>
nM

>  <Type>
IC50

>  <pValue>
4.51

>  <Ligand Efficiency>
0

>  <Binding Efficiency>
0

>  <Surface Efficiency>
0

>  <Assay Index>
1487534

>  <Assay Category>


>  <Assay Organism>
Homo sapiens

>  <Target ID>
17045

>  <Target Name>
Cytochrome P450 3A4

>  <Target Organism>
Homo sapiens

>  <Target Description>
Target is a single protein chain

>  <Sequence Accession>
P08684

>  <Reference>
J Med Chem 64 (15.0), 11302-11329 (2021)

>  <Pubmed ID>
34292726

>  <DOI>
10.1021/acs.jmedchem.1c00679

$$$$
2559884
Actelion Java MolfileCreator 1.0

 29 33  0  0  1  0  0  0  0  0999 V2000
    0.0000   -0.0000   -0.0000 Cl  0  0  0  0  0  0  0  0  0  0  0  0
   -0.7810   -1.2543   -0.0000 C   0  0  0  0  0  0  0  0  0  0  0  0
   -0.0828   -2.5559   -0.0000 C   0  0  0  0  0  0  0  0  0  0  0  0
   -2.2956   -1.2069   -0.0000 C   0  0  0  0  0  0  0  0  0  0  0  0
   -0.8756   -3.8220   -0.0000 C   0  0  0  0  0  0  0  0  0  0  0  0
   -3.0884   -2.4731   -0.0000 C   0  0  0  0  0  0  0  0  0  0  0  0
   -2.3784   -3.7628   -0.0000 C   0  0  0  0  0  0  0  0  0  0  0  0
   -3.1712   -5.0289   -0.0000 C   0  0  0  0  0  0  0  0  0  0  0  0
   -2.4731   -6.3306   -0.0000 O   0  0  0  0  0  0  0  0  0  0  0  0
   -4.6740   -4.9816   -0.0000 N   0  0  0  0  0  0  0  0  0  0  0  0
   -5.3958   -3.6563   -0.0000 C   0  0  0  0  0  0  0  0  0  0  0  0
   -6.8985   -3.5972   -0.0000 C   0  0  0  0  0  0  0  0  0  0  0  0
   -4.6266   -2.3784   -0.0000 C   0  0  0  0  0  0  0  0  0  0  0  0
   -8.2356   -4.2953   -0.0000 C   0  0  0  0  0  0  0  0  0  0  0  0
   -8.1765   -2.7925   -0.0000 C   0  0  0  0  0  0  0  0  0  0  0  0
   -5.3484   -1.0531   -0.0000 C   0  0  0  0  0  0  0  0  0  0  0  0
   -9.6911   -4.6976   -0.0000 C   0  0  0  0  0  0  0  0  0  0  0  0
   -9.5964   -2.2719   -0.0000 C   0  0  0  0  0  0  0  0  0  0  0  0
  -10.5312   -3.4434   -0.0000 C   0  0  0  0  0  0  0  0  0  0  0  0
  -12.0340   -3.4197   -0.0000 N   0  0  0  0  0  0  0  0  0  0  0  0
  -12.9214   -2.2009   -0.0000 C   0  0  0  0  0  0  0  0  0  0  0  0
  -12.9451   -4.6148   -0.0000 C   0  0  0  0  0  0  0  0  0  0  0  0
  -14.3532   -2.6269   -0.0000 C   0  0  0  0  0  0  0  0  0  0  0  0
  -12.6020   -0.7336   -0.0000 C   0  0  0  0  0  0  0  0  0  0  0  0
  -14.3769   -4.1297   -0.0000 N   0  0  0  0  0  0  0  0  0  0  0  0
  -15.4537   -1.6093   -0.0000 C   0  0  0  0  0  0  0  0  0  0  0  0
  -13.7024    0.2840   -0.0000 C   0  0  0  0  0  0  0  0  0  0  0  0
  -15.1460   -0.1538   -0.0000 C   0  0  0  0  0  0  0  0  0  0  0  0
  -16.2583    0.8638   -0.0000 F   0  0  0  0  0  0  0  0  0  0  0  0
  1  2  1  0  0  0  0
  2  3  2  0  0  0  0
  2  4  1  0  0  0  0
  3  5  1  0  0  0  0
  4  6  2  0  0  0  0
  5  7  2  0  0  0  0
  7  8  1  0  0  0  0
  8  9  2  0  0  0  0
  8 10  1  0  0  0  0
 10 11  1  0  0  0  0
 12 11  1  6  0  0  0
 11 13  1  0  0  0  0
 12 14  1  0  0  0  0
 12 15  1  0  0  0  0
 13 16  1  0  0  0  0
 14 17  1  1  0  0  0
 15 18  1  1  0  0  0
 17 19  1  0  0  0  0
 19 20  1  6  0  0  0
 20 21  1  0  0  0  0
 20 22  1  0  0  0  0
 21 23  2  0  0  0  0
 21 24  1  0  0  0  0
 22 25  2  0  0  0  0
 23 26  1  0  0  0  0
 24 27  2  0  0  0  0
 26 28  2  0  0  0  0
 28 29  1  0  0  0  0
  6  7  1  0  0  0  0
 14 15  1  0  0  0  0
 18 19  1  0  0  0  0
 23 25  1  0  0  0  0
 27 28  1  0  0  0  0
M  END
>  <MolRegNo>
2559884

>  <m>
=

>  <Value>
1300

>  <Unit>
nM

>  <Type>
IC50

>  <pValue>
5.89

>  <Ligand Efficiency>
0

>  <Binding Efficiency>
0

>  <Surface Efficiency>
0

>  <Assay Index>
1487534

>  <Assay Category>


>  <Assay Organism>
Homo sapiens

>  <Target ID>
17045

>  <Target Name>
Cytochrome P450 3A4

>  <Target Organism>
Homo sapiens

>  <Target Description>
Target is a single protein chain

>  <Sequence Accession>
P08684

>  <Reference>
J Med Chem 64 (15.0), 11302-11329 (2021)

>  <Pubmed ID>
34292726

>  <DOI>
10.1021/acs.jmedchem.1c00679

$$$$
2539734
Actelion Java MolfileCreator 1.0

 31 35  0  0  0  0  0  0  0  0999 V2000
    0.0000   -0.0000   -0.0000 F   0  0  0  0  0  0  0  0  0  0  0  0
   -0.0834    1.5247   -0.0000 C   0  0  0  0  0  0  0  0  0  0  0  0
    1.1792    2.3585   -0.0000 C   0  0  0  0  0  0  0  0  0  0  0  0
   -1.4413    2.2274   -0.0000 C   0  0  0  0  0  0  0  0  0  0  0  0
    2.5014    1.6795   -0.0000 C   0  0  0  0  0  0  0  0  0  0  0  0
    1.0958    3.8712   -0.0000 C   0  0  0  0  0  0  0  0  0  0  0  0
   -1.5247    3.7402   -0.0000 C   0  0  0  0  0  0  0  0  0  0  0  0
    3.7521    2.5014   -0.0000 C   0  0  0  0  0  0  0  0  0  0  0  0
    2.5610    0.1787   -0.0000 C   0  0  0  0  0  0  0  0  0  0  0  0
   -0.2501    4.5740   -0.0000 C   0  0  0  0  0  0  0  0  0  0  0  0
    5.0743    1.8344   -0.0000 C   0  0  0  0  0  0  0  0  0  0  0  0
    3.8831   -0.4884   -0.0000 C   0  0  0  0  0  0  0  0  0  0  0  0
    5.1338    0.3454   -0.0000 C   0  0  0  0  0  0  0  0  0  0  0  0
    6.4917   -0.2501   -0.0000 C   0  0  0  0  0  0  0  0  0  0  0  0
    7.7781    0.5122   -0.0000 O   0  0  0  0  0  0  0  0  0  0  0  0
    6.7895   -1.7033   -0.0000 N   0  0  0  0  0  0  0  0  0  0  0  0
    8.8859   -0.4765   -0.0000 C   0  0  0  0  0  0  0  0  0  0  0  0
    8.2665   -1.8463   -0.0000 C   0  0  0  0  0  0  0  0  0  0  0  0
    9.6959   -1.4413   -0.0000 C   0  0  0  0  0  0  0  0  0  0  0  0
    9.0050   -3.1446   -0.0000 C   0  0  0  0  0  0  0  0  0  0  0  0
   10.7441   -2.4895   -0.0000 C   0  0  0  0  0  0  0  0  0  0  0  0
   10.0532    0.0119   -0.0000 C   0  0  0  0  0  0  0  0  0  0  0  0
    8.2427   -4.4310   -0.0000 N   0  0  0  0  0  0  0  0  0  0  0  0
   12.1735   -2.0845   -0.0000 C   0  0  0  0  0  0  0  0  0  0  0  0
   11.4826    0.4288   -0.0000 C   0  0  0  0  0  0  0  0  0  0  0  0
    8.8502   -5.8009   -0.0000 N   0  0  0  0  0  0  0  0  0  0  0  0
    6.7299   -4.5740   -0.0000 C   0  0  0  0  0  0  0  0  0  0  0  0
   12.5427   -0.6194   -0.0000 C   0  0  0  0  0  0  0  0  0  0  0  0
    7.7186   -6.8014   -0.0000 C   0  0  0  0  0  0  0  0  0  0  0  0
    6.4083   -6.0391   -0.0000 N   0  0  0  0  0  0  0  0  0  0  0  0
   13.9959   -0.2025   -0.0000 F   0  0  0  0  0  0  0  0  0  0  0  0
  1  2  1  0  0  0  0
  2  3  2  0  0  0  0
  2  4  1  0  0  0  0
  3  5  1  0  0  0  0
  3  6  1  0  0  0  0
  4  7  2  0  0  0  0
  5  8  2  0  0  0  0
  5  9  1  0  0  0  0
  6 10  2  0  0  0  0
  8 11  1  0  0  0  0
  9 12  2  0  0  0  0
 11 13  2  0  0  0  0
 13 14  1  0  0  0  0
 14 15  1  0  0  0  0
 14 16  2  0  0  0  0
 15 17  1  0  0  0  0
 16 18  1  0  0  0  0
 18 19  1  0  0  0  0
 18 20  1  0  0  0  0
 19 21  2  0  0  0  0
 19 22  1  0  0  0  0
 20 23  1  0  0  0  0
 21 24  1  0  0  0  0
 22 25  2  0  0  0  0
 23 26  1  0  0  0  0
 23 27  1  0  0  0  0
 24 28  2  0  0  0  0
 26 29  2  0  0  0  0
 27 30  2  0  0  0  0
 28 31  1  0  0  0  0
  7 10  1  0  0  0  0
 12 13  1  0  0  0  0
 17 18  1  0  0  0  0
 25 28  1  0  0  0  0
 29 30  1  0  0  0  0
M  END
>  <MolRegNo>
2539734

>  <m>
=

>  <Value>
14800

>  <Unit>
nM

>  <Type>
IC50

>  <pValue>
4.83

>  <Ligand Efficiency>
0

>  <Binding Efficiency>
0

>  <Surface Efficiency>
0

>  <Assay Index>
1487851

>  <Assay Category>


>  <Assay Organism>
Homo sapiens

>  <Target ID>
17045

>  <Target Name>
Cytochrome P450 3A4

>  <Target Organism>
Homo sapiens

>  <Target Description>
Target is a single protein chain

>  <Sequence Accession>
P08684

>  <Reference>


>  <Pubmed ID>
34364163

>  <DOI>
10.1016/j.ejmech.2021.113715

$$$$
2570871
Actelion Java MolfileCreator 1.0

 31 35  0  0  0  0  0  0  0  0999 V2000
    0.0000   -0.0000   -0.0000 F   0  0  0  0  0  0  0  0  0  0  0  0
    1.2723    0.8324   -0.0000 C   0  0  0  0  0  0  0  0  0  0  0  0
    2.6041    0.1427   -0.0000 C   0  0  0  0  0  0  0  0  0  0  0  0
    1.1891    2.3544   -0.0000 C   0  0  0  0  0  0  0  0  0  0  0  0
    3.8645    0.9750   -0.0000 C   0  0  0  0  0  0  0  0  0  0  0  0
    2.4495    3.1748   -0.0000 C   0  0  0  0  0  0  0  0  0  0  0  0
    5.1962    0.2973   -0.0000 C   0  0  0  0  0  0  0  0  0  0  0  0
    3.7813    2.4971   -0.0000 C   0  0  0  0  0  0  0  0  0  0  0  0
    6.4448    1.1296   -0.0000 C   0  0  0  0  0  0  0  0  0  0  0  0
    5.2557   -1.2010   -0.0000 C   0  0  0  0  0  0  0  0  0  0  0  0
    7.7765    0.4637   -0.0000 C   0  0  0  0  0  0  0  0  0  0  0  0
    6.5756   -1.8668   -0.0000 C   0  0  0  0  0  0  0  0  0  0  0  0
    7.8360   -1.0345   -0.0000 C   0  0  0  0  0  0  0  0  0  0  0  0
    9.1915   -1.6290   -0.0000 C   0  0  0  0  0  0  0  0  0  0  0  0
   10.4876   -0.8680   -0.0000 O   0  0  0  0  0  0  0  0  0  0  0  0
    9.4888   -3.0916   -0.0000 N   0  0  0  0  0  0  0  0  0  0  0  0
   11.5935   -1.8668   -0.0000 C   0  0  0  0  0  0  0  0  0  0  0  0
   10.9751   -3.2343   -0.0000 C   0  0  0  0  0  0  0  0  0  0  0  0
   12.4139   -2.8300   -0.0000 C   0  0  0  0  0  0  0  0  0  0  0  0
   11.7243   -4.5423   -0.0000 C   0  0  0  0  0  0  0  0  0  0  0  0
   13.4722   -3.8764   -0.0000 C   0  0  0  0  0  0  0  0  0  0  0  0
   12.7706   -1.3793   -0.0000 C   0  0  0  0  0  0  0  0  0  0  0  0
   10.9632   -5.8265   -0.0000 N   0  0  0  0  0  0  0  0  0  0  0  0
   14.8991   -3.4721   -0.0000 C   0  0  0  0  0  0  0  0  0  0  0  0
   14.1975   -0.9631   -0.0000 C   0  0  0  0  0  0  0  0  0  0  0  0
   11.5697   -7.1939   -0.0000 N   0  0  0  0  0  0  0  0  0  0  0  0
    9.4531   -5.9691   -0.0000 C   0  0  0  0  0  0  0  0  0  0  0  0
   15.2677   -2.0095   -0.0000 C   0  0  0  0  0  0  0  0  0  0  0  0
   10.4401   -8.1927   -0.0000 C   0  0  0  0  0  0  0  0  0  0  0  0
    9.1321   -7.4317   -0.0000 N   0  0  0  0  0  0  0  0  0  0  0  0
   16.7184   -1.5934   -0.0000 F   0  0  0  0  0  0  0  0  0  0  0  0
  1  2  1  0  0  0  0
  2  3  2  0  0  0  0
  2  4  1  0  0  0  0
  3  5  1  0  0  0  0
  4  6  2  0  0  0  0
  5  7  1  0  0  0  0
  5  8  2  0  0  0  0
  7  9  2  0  0  0  0
  7 10  1  0  0  0  0
  9 11  1  0  0  0  0
 10 12  2  0  0  0  0
 11 13  2  0  0  0  0
 13 14  1  0  0  0  0
 14 15  1  0  0  0  0
 14 16  2  0  0  0  0
 15 17  1  0  0  0  0
 16 18  1  0  0  0  0
 18 19  1  0  0  0  0
 18 20  1  0  0  0  0
 19 21  2  0  0  0  0
 19 22  1  0  0  0  0
 20 23  1  0  0  0  0
 21 24  1  0  0  0  0
 22 25  2  0  0  0  0
 23 26  1  0  0  0  0
 23 27  1  0  0  0  0
 24 28  2  0  0  0  0
 26 29  2  0  0  0  0
 27 30  2  0  0  0  0
 28 31  1  0  0  0  0
  6  8  1  0  0  0  0
 12 13  1  0  0  0  0
 17 18  1  0  0  0  0
 25 28  1  0  0  0  0
 29 30  1  0  0  0  0
M  END
>  <MolRegNo>
2570871

>  <m>
=

>  <Value>
15200

>  <Unit>
nM

>  <Type>
IC50

>  <pValue>
4.82

>  <Ligand Efficiency>
0

>  <Binding Efficiency>
0

>  <Surface Efficiency>
0

>  <Assay Index>
1487851

>  <Assay Category>


>  <Assay Organism>
Homo sapiens

>  <Target ID>
17045

>  <Target Name>
Cytochrome P450 3A4

>  <Target Organism>
Homo sapiens

>  <Target Description>
Target is a single protein chain

>  <Sequence Accession>
P08684

>  <Reference>


>  <Pubmed ID>
34364163

>  <DOI>
10.1016/j.ejmech.2021.113715

$$$$
2559689
Actelion Java MolfileCreator 1.0

 51 56  0  0  0  0  0  0  0  0999 V2000
    0.0000   -0.0000   -0.0000 F   0  0  0  0  0  0  0  0  0  0  0  0
   -1.3075   -0.7401   -0.0000 C   0  0  0  0  0  0  0  0  0  0  0  0
   -2.0599    0.5797   -0.0000 F   0  0  0  0  0  0  0  0  0  0  0  0
   -2.8247   -0.7154   -0.0000 F   0  0  0  0  0  0  0  0  0  0  0  0
   -1.3075   -2.2203   -0.0000 C   0  0  0  0  0  0  0  0  0  0  0  0
   -0.0247   -2.9480   -0.0000 C   0  0  0  0  0  0  0  0  0  0  0  0
   -2.6150   -2.9603   -0.0000 C   0  0  0  0  0  0  0  0  0  0  0  0
   -0.0247   -4.4282   -0.0000 N   0  0  0  0  0  0  0  0  0  0  0  0
   -2.6273   -4.4528   -0.0000 C   0  0  0  0  0  0  0  0  0  0  0  0
   -1.3445   -5.1806   -0.0000 C   0  0  0  0  0  0  0  0  0  0  0  0
   -3.9348   -5.1806   -0.0000 C   0  0  0  0  0  0  0  0  0  0  0  0
   -1.3568   -6.6731   -0.0000 C   0  0  0  0  0  0  0  0  0  0  0  0
   -5.3286   -4.5515   -0.0000 N   0  0  0  0  0  0  0  0  0  0  0  0
   -4.1075   -6.6608   -0.0000 C   0  0  0  0  0  0  0  0  0  0  0  0
   -0.0617   -7.4008   -0.0000 C   0  0  0  0  0  0  0  0  0  0  0  0
   -2.6643   -7.4132   -0.0000 C   0  0  0  0  0  0  0  0  0  0  0  0
   -6.0934   -3.2440   -0.0000 C   0  0  0  0  0  0  0  0  0  0  0  0
   -6.3401   -5.6616   -0.0000 C   0  0  0  0  0  0  0  0  0  0  0  0
   -5.5876   -6.9568   -0.0000 C   0  0  0  0  0  0  0  0  0  0  0  0
    1.2211   -6.6238   -0.0000 O   0  0  0  0  0  0  0  0  0  0  0  0
   -0.0617   -8.8810   -0.0000 C   0  0  0  0  0  0  0  0  0  0  0  0
   -2.6643   -8.8933   -0.0000 C   0  0  0  0  0  0  0  0  0  0  0  0
   -5.5013   -1.8625   -0.0000 O   0  0  0  0  0  0  0  0  0  0  0  0
   -7.5735   -3.5524   -0.0000 O   0  0  0  0  0  0  0  0  0  0  0  0
   -7.7215   -5.0326   -0.0000 C   0  0  0  0  0  0  0  0  0  0  0  0
    2.5040   -7.3515   -0.0000 C   0  0  0  0  0  0  0  0  0  0  0  0
   -1.3692   -9.6334   -0.0000 C   0  0  0  0  0  0  0  0  0  0  0  0
   -3.9594   -9.6334   -0.0000 C   0  0  0  0  0  0  0  0  0  0  0  0
   -9.0414   -5.7727   -0.0000 C   0  0  0  0  0  0  0  0  0  0  0  0
   -3.9718  -11.1136   -0.0000 C   0  0  0  0  0  0  0  0  0  0  0  0
   -5.2793   -8.8687   -0.0000 C   0  0  0  0  0  0  0  0  0  0  0  0
   -9.0414   -7.2528   -0.0000 C   0  0  0  0  0  0  0  0  0  0  0  0
  -10.3488   -5.0079   -0.0000 C   0  0  0  0  0  0  0  0  0  0  0  0
   -5.2793  -11.8537   -0.0000 C   0  0  0  0  0  0  0  0  0  0  0  0
   -2.6766  -11.8413   -0.0000 C   0  0  0  0  0  0  0  0  0  0  0  0
   -6.5867   -9.6088   -0.0000 C   0  0  0  0  0  0  0  0  0  0  0  0
  -10.3488   -7.9929   -0.0000 C   0  0  0  0  0  0  0  0  0  0  0  0
  -11.6563   -5.7480   -0.0000 C   0  0  0  0  0  0  0  0  0  0  0  0
   -6.5991  -11.1013   -0.0000 C   0  0  0  0  0  0  0  0  0  0  0  0
  -11.6687   -7.2405   -0.0000 C   0  0  0  0  0  0  0  0  0  0  0  0
  -10.3612   -9.4731   -0.0000 C   0  0  0  0  0  0  0  0  0  0  0  0
  -12.9761   -4.9832   -0.0000 C   0  0  0  0  0  0  0  0  0  0  0  0
   -7.9066  -11.8413   -0.0000 C   0  0  0  0  0  0  0  0  0  0  0  0
  -10.2625  -11.0273   -0.0000 F   0  0  0  0  0  0  0  0  0  0  0  0
   -9.0414  -10.0528   -0.0000 F   0  0  0  0  0  0  0  0  0  0  0  0
  -11.6687  -10.2255   -0.0000 F   0  0  0  0  0  0  0  0  0  0  0  0
  -12.9885   -3.4784   -0.0000 F   0  0  0  0  0  0  0  0  0  0  0  0
  -14.4810   -4.9586   -0.0000 F   0  0  0  0  0  0  0  0  0  0  0  0
  -13.7409   -6.2660   -0.0000 F   0  0  0  0  0  0  0  0  0  0  0  0
   -7.9189  -13.3338   -0.0000 O   0  0  0  0  0  0  0  0  0  0  0  0
   -9.2264  -11.0766   -0.0000 O   0  0  0  0  0  0  0  0  0  0  0  0
  1  2  1  0  0  0  0
  2  3  1  0  0  0  0
  2  4  1  0  0  0  0
  2  5  1  0  0  0  0
  5  6  2  0  0  0  0
  5  7  1  0  0  0  0
  6  8  1  0  0  0  0
  7  9  2  0  0  0  0
  8 10  2  0  0  0  0
 11  9  1  6  0  0  0
 10 12  1  0  0  0  0
 11 13  1  0  0  0  0
 11 14  1  0  0  0  0
 12 15  2  0  0  0  0
 12 16  1  0  0  0  0
 13 17  1  0  0  0  0
 18 13  1  1  0  0  0
 14 19  1  0  0  0  0
 15 20  1  0  0  0  0
 15 21  1  0  0  0  0
 16 22  2  0  0  0  0
 17 23  2  0  0  0  0
 17 24  1  0  0  0  0
 18 25  1  0  0  0  0
 20 26  1  0  0  0  0
 21 27  2  0  0  0  0
 22 28  1  0  0  0  0
 25 29  1  1  0  0  0
 28 30  2  0  0  0  0
 28 31  1  0  0  0  0
 29 32  2  0  0  0  0
 29 33  1  0  0  0  0
 30 34  1  0  0  0  0
 30 35  1  0  0  0  0
 31 36  2  0  0  0  0
 32 37  1  0  0  0  0
 33 38  2  0  0  0  0
 34 39  2  0  0  0  0
 37 40  2  0  0  0  0
 37 41  1  0  0  0  0
 38 42  1  0  0  0  0
 39 43  1  0  0  0  0
 41 44  1  0  0  0  0
 41 45  1  0  0  0  0
 41 46  1  0  0  0  0
 42 47  1  0  0  0  0
 42 48  1  0  0  0  0
 42 49  1  0  0  0  0
 43 50  2  0  0  0  0
 43 51  1  0  0  0  0
  9 10  1  0  0  0  0
 18 19  1  0  0  0  0
 22 27  1  0  0  0  0
 24 25  1  0  0  0  0
 36 39  1  0  0  0  0
 38 40  1  0  0  0  0
M  END
>  <MolRegNo>
2559689

>  <m>
=

>  <Value>
9000

>  <Unit>
nM

>  <Type>
IC50

>  <pValue>
5.05

>  <Ligand Efficiency>
0

>  <Binding Efficiency>
0

>  <Surface Efficiency>
0

>  <Assay Index>
1487930

>  <Assay Category>


>  <Assay Organism>
Homo sapiens

>  <Target ID>
17045

>  <Target Name>
Cytochrome P450 3A4

>  <Target Organism>
Homo sapiens

>  <Target Description>
Target is a single protein chain

>  <Sequence Accession>
P08684

>  <Reference>
J Med Chem 64 (18.0), 13215-13258 (2021)

>  <Pubmed ID>
34375108

>  <DOI>
10.1021/acs.jmedchem.1c00959

$$$$
2142691
Actelion Java MolfileCreator 1.0

 48 53  0  0  1  0  0  0  0  0999 V2000
    0.0000   -0.0000   -0.0000 F   0  0  0  0  0  0  0  0  0  0  0  0
    0.6478   -1.0714   -0.0000 C   0  0  0  0  0  0  0  0  0  0  0  0
    1.9061   -1.0216   -0.0000 F   0  0  0  0  0  0  0  0  0  0  0  0
    1.2334    0.0498   -0.0000 F   0  0  0  0  0  0  0  0  0  0  0  0
   -0.1121   -2.4543   -0.0000 C   0  0  0  0  0  0  0  0  0  0  0  0
   -1.7068   -2.4917   -0.0000 C   0  0  0  0  0  0  0  0  0  0  0  0
    0.7101   -3.7873   -0.0000 C   0  0  0  0  0  0  0  0  0  0  0  0
   -2.4667   -3.8745   -0.0000 C   0  0  0  0  0  0  0  0  0  0  0  0
   -0.0623   -5.1702   -0.0000 C   0  0  0  0  0  0  0  0  0  0  0  0
   -1.6445   -5.2076   -0.0000 C   0  0  0  0  0  0  0  0  0  0  0  0
   -4.0614   -3.9119   -0.0000 C   0  0  0  0  0  0  0  0  0  0  0  0
    0.8596   -6.4409   -0.0000 C   0  0  0  0  0  0  0  0  0  0  0  0
   -4.6719   -5.0082   -0.0000 F   0  0  0  0  0  0  0  0  0  0  0  0
   -4.7342   -2.8280   -0.0000 F   0  0  0  0  0  0  0  0  0  0  0  0
   -5.3446   -3.9368   -0.0000 F   0  0  0  0  0  0  0  0  0  0  0  0
    0.3613   -7.9359   -0.0000 O   0  0  0  0  0  0  0  0  0  0  0  0
    2.4294   -6.4285   -0.0000 C   0  0  0  0  0  0  0  0  0  0  0  0
    1.6320   -8.8578   -0.0000 C   0  0  0  0  0  0  0  0  0  0  0  0
    2.9028   -7.9235   -0.0000 N   0  0  0  0  0  0  0  0  0  0  0  0
    3.7001   -5.4816   -0.0000 C   0  0  0  0  0  0  0  0  0  0  0  0
    1.6196  -10.1161   -0.0000 O   0  0  0  0  0  0  0  0  0  0  0  0
    4.4725   -7.9110   -0.0000 C   0  0  0  0  0  0  0  0  0  0  0  0
    4.9709   -6.4036   -0.0000 C   0  0  0  0  0  0  0  0  0  0  0  0
    5.3944   -9.1818   -0.0000 C   0  0  0  0  0  0  0  0  0  0  0  0
    4.8463  -10.6518   -0.0000 C   0  0  0  0  0  0  0  0  0  0  0  0
    6.9393   -8.8828   -0.0000 C   0  0  0  0  0  0  0  0  0  0  0  0
    3.2765  -10.9259   -0.0000 C   0  0  0  0  0  0  0  0  0  0  0  0
    5.8554  -11.8478   -0.0000 C   0  0  0  0  0  0  0  0  0  0  0  0
    7.9484  -10.0788   -0.0000 C   0  0  0  0  0  0  0  0  0  0  0  0
    2.2425   -9.7050   -0.0000 C   0  0  0  0  0  0  0  0  0  0  0  0
    2.7284  -12.4085   -0.0000 C   0  0  0  0  0  0  0  0  0  0  0  0
    7.4002  -11.5488   -0.0000 C   0  0  0  0  0  0  0  0  0  0  0  0
    9.4932   -9.7798   -0.0000 C   0  0  0  0  0  0  0  0  0  0  0  0
    2.7533   -8.1976   -0.0000 O   0  0  0  0  0  0  0  0  0  0  0  0
    0.6727   -9.9791   -0.0000 C   0  0  0  0  0  0  0  0  0  0  0  0
    1.1586  -12.6825   -0.0000 C   0  0  0  0  0  0  0  0  0  0  0  0
   10.3030  -10.7266   -0.0000 F   0  0  0  0  0  0  0  0  0  0  0  0
    9.9043   -8.5713   -0.0000 F   0  0  0  0  0  0  0  0  0  0  0  0
   10.7266   -9.5431   -0.0000 F   0  0  0  0  0  0  0  0  0  0  0  0
    1.9186   -7.2258   -0.0000 C   0  0  0  0  0  0  0  0  0  0  0  0
    0.1246  -11.4616   -0.0000 C   0  0  0  0  0  0  0  0  0  0  0  0
    0.6105  -14.1651   -0.0000 C   0  0  0  0  0  0  0  0  0  0  0  0
    1.2957  -15.5355   -0.0000 C   0  0  0  0  0  0  0  0  0  0  0  0
   -0.8098  -14.7880   -0.0000 C   0  0  0  0  0  0  0  0  0  0  0  0
   -0.1495  -16.2082   -0.0000 C   0  0  0  0  0  0  0  0  0  0  0  0
   -0.6852  -17.6783   -0.0000 C   0  0  0  0  0  0  0  0  0  0  0  0
    0.1246  -18.6251   -0.0000 O   0  0  0  0  0  0  0  0  0  0  0  0
   -1.9435  -17.9026   -0.0000 O   0  0  0  0  0  0  0  0  0  0  0  0
  1  2  1  0  0  0  0
  2  3  1  0  0  0  0
  2  4  1  0  0  0  0
  2  5  1  0  0  0  0
  5  6  2  0  0  0  0
  5  7  1  0  0  0  0
  6  8  1  0  0  0  0
  7  9  2  0  0  0  0
  8 10  2  0  0  0  0
  8 11  1  0  0  0  0
 12  9  1  6  0  0  0
 11 13  1  0  0  0  0
 11 14  1  0  0  0  0
 11 15  1  0  0  0  0
 12 16  1  0  0  0  0
 12 17  1  0  0  0  0
 16 18  1  0  0  0  0
 17 19  1  6  0  0  0
 17 20  1  0  0  0  0
 18 21  2  0  0  0  0
 19 22  1  0  0  0  0
 20 23  1  0  0  0  0
 22 24  1  1  0  0  0
 24 25  2  0  0  0  0
 24 26  1  0  0  0  0
 25 27  1  0  0  0  0
 25 28  1  0  0  0  0
 26 29  2  0  0  0  0
 27 30  2  0  0  0  0
 27 31  1  0  0  0  0
 28 32  2  0  0  0  0
 29 33  1  0  0  0  0
 30 34  1  0  0  0  0
 30 35  1  0  0  0  0
 31 36  2  0  0  0  0
 33 37  1  0  0  0  0
 33 38  1  0  0  0  0
 33 39  1  0  0  0  0
 34 40  1  0  0  0  0
 35 41  2  0  0  0  0
 42 36  1  1  0  0  0
 42 43  1  0  0  0  0
 42 44  1  0  0  0  0
 43 45  1  0  0  0  0
 45 46  1  6  0  0  0
 46 47  2  0  0  0  0
 46 48  1  0  0  0  0
  9 10  1  0  0  0  0
 18 19  1  0  0  0  0
 22 23  1  0  0  0  0
 29 32  1  0  0  0  0
 36 41  1  0  0  0  0
 44 45  1  0  0  0  0
M  END
>  <MolRegNo>
2142691

>  <m>
=

>  <Value>
6000

>  <Unit>
nM

>  <Type>
IC50

>  <pValue>
5.22

>  <Ligand Efficiency>
0

>  <Binding Efficiency>
0

>  <Surface Efficiency>
0

>  <Assay Index>
1487930

>  <Assay Category>


>  <Assay Organism>
Homo sapiens

>  <Target ID>
17045

>  <Target Name>
Cytochrome P450 3A4

>  <Target Organism>
Homo sapiens

>  <Target Description>
Target is a single protein chain

>  <Sequence Accession>
P08684

>  <Reference>
J Med Chem 64 (18.0), 13215-13258 (2021)

>  <Pubmed ID>
34375108

>  <DOI>
10.1021/acs.jmedchem.1c00959

$$$$
2568561
Actelion Java MolfileCreator 1.0

 34 38  0  0  0  0  0  0  0  0999 V2000
    0.0000   -0.0000   -0.0000 O   0  0  0  0  0  0  0  0  0  0  0  0
   -0.7580    1.3146   -0.0000 N   0  0  0  0  0  0  0  0  0  0  0  0
    1.4568    0.3198   -0.0000 C   0  0  0  0  0  0  0  0  0  0  0  0
    0.2369    2.4398   -0.0000 C   0  0  0  0  0  0  0  0  0  0  0  0
    1.5989    1.8239   -0.0000 C   0  0  0  0  0  0  0  0  0  0  0  0
    2.5582   -0.6751   -0.0000 C   0  0  0  0  0  0  0  0  0  0  0  0
   -0.0829    3.9202   -0.0000 C   0  0  0  0  0  0  0  0  0  0  0  0
    2.8898    2.5819   -0.0000 C   0  0  0  0  0  0  0  0  0  0  0  0
    2.8780    4.0979   -0.0000 C   0  0  0  0  0  0  0  0  0  0  0  0
    4.1808    1.8476   -0.0000 C   0  0  0  0  0  0  0  0  0  0  0  0
    1.5633    4.8559   -0.0000 O   0  0  0  0  0  0  0  0  0  0  0  0
    4.1571    4.8559   -0.0000 C   0  0  0  0  0  0  0  0  0  0  0  0
    5.4717    2.6174   -0.0000 C   0  0  0  0  0  0  0  0  0  0  0  0
    1.5515    6.3718   -0.0000 C   0  0  0  0  0  0  0  0  0  0  0  0
    5.4480    4.1216   -0.0000 C   0  0  0  0  0  0  0  0  0  0  0  0
    6.7627    1.8831   -0.0000 N   0  0  0  0  0  0  0  0  0  0  0  0
    6.7271    4.8914   -0.0000 C   0  0  0  0  0  0  0  0  0  0  0  0
    8.0536    2.6530   -0.0000 C   0  0  0  0  0  0  0  0  0  0  0  0
    7.0232    6.3600   -0.0000 N   0  0  0  0  0  0  0  0  0  0  0  0
    8.0062    4.1571   -0.0000 C   0  0  0  0  0  0  0  0  0  0  0  0
    8.4918    6.5376   -0.0000 C   0  0  0  0  0  0  0  0  0  0  0  0
    6.0047    7.4851   -0.0000 C   0  0  0  0  0  0  0  0  0  0  0  0
    9.0958    5.1756   -0.0000 N   0  0  0  0  0  0  0  0  0  0  0  0
    9.2261    7.8523   -0.0000 N   0  0  0  0  0  0  0  0  0  0  0  0
    6.4547    8.9300   -0.0000 C   0  0  0  0  0  0  0  0  0  0  0  0
   10.7184    7.8641   -0.0000 C   0  0  0  0  0  0  0  0  0  0  0  0
    5.4362   10.0433   -0.0000 N   0  0  0  0  0  0  0  0  0  0  0  0
    7.9115    9.2498   -0.0000 C   0  0  0  0  0  0  0  0  0  0  0  0
   11.4527    9.1787   -0.0000 C   0  0  0  0  0  0  0  0  0  0  0  0
    5.8744   11.4764   -0.0000 C   0  0  0  0  0  0  0  0  0  0  0  0
    8.3615   10.6829   -0.0000 C   0  0  0  0  0  0  0  0  0  0  0  0
   12.9450    9.1906   -0.0000 O   0  0  0  0  0  0  0  0  0  0  0  0
    7.3312   11.8080   -0.0000 C   0  0  0  0  0  0  0  0  0  0  0  0
   13.6793   10.5052   -0.0000 C   0  0  0  0  0  0  0  0  0  0  0  0
  1  2  1  0  0  0  0
  1  3  1  0  0  0  0
  2  4  2  0  0  0  0
  3  5  2  0  0  0  0
  3  6  1  0  0  0  0
  4  7  1  0  0  0  0
  5  8  1  0  0  0  0
  8  9  1  0  0  0  0
  8 10  2  0  0  0  0
  9 11  1  0  0  0  0
  9 12  2  0  0  0  0
 10 13  1  0  0  0  0
 11 14  1  0  0  0  0
 12 15  1  0  0  0  0
 13 16  2  0  0  0  0
 15 17  2  0  0  0  0
 16 18  1  0  0  0  0
 17 19  1  0  0  0  0
 17 20  1  0  0  0  0
 19 21  1  0  0  0  0
 19 22  1  0  0  0  0
 20 23  1  0  0  0  0
 21 24  1  0  0  0  0
 22 25  1  0  0  0  0
 24 26  1  0  0  0  0
 25 27  2  0  0  0  0
 25 28  1  0  0  0  0
 26 29  1  0  0  0  0
 27 30  1  0  0  0  0
 28 31  2  0  0  0  0
 29 32  1  0  0  0  0
 30 33  2  0  0  0  0
 32 34  1  0  0  0  0
  4  5  1  0  0  0  0
 13 15  1  0  0  0  0
 18 20  2  0  0  0  0
 21 23  2  0  0  0  0
 31 33  1  0  0  0  0
M  END
>  <MolRegNo>
2568561

>  <m>
=

>  <Value>
15800

>  <Unit>
nM

>  <Type>
IC50

>  <pValue>
4.8

>  <Ligand Efficiency>
0

>  <Binding Efficiency>
0

>  <Surface Efficiency>
0

>  <Assay Index>
1488086

>  <Assay Category>


>  <Assay Organism>
Homo sapiens

>  <Target ID>
17045

>  <Target Name>
Cytochrome P450 3A4

>  <Target Organism>
Homo sapiens

>  <Target Description>
Target is a single protein chain

>  <Sequence Accession>
P08684

>  <Reference>
J Med Chem 64 (16.0), 12200-12227 (2021)

>  <Pubmed ID>
34387088

>  <DOI>
10.1021/acs.jmedchem.1c00855

$$$$
2572210
Actelion Java MolfileCreator 1.0

 33 37  0  0  0  0  0  0  0  0999 V2000
    0.0000   -0.0000   -0.0000 O   0  0  0  0  0  0  0  0  0  0  0  0
    0.7341   -1.2906   -0.0000 C   0  0  0  0  0  0  0  0  0  0  0  0
   -1.5156    0.0118   -0.0000 C   0  0  0  0  0  0  0  0  0  0  0  0
   -0.0237   -2.5694   -0.0000 C   0  0  0  0  0  0  0  0  0  0  0  0
   -2.2852   -1.2788   -0.0000 C   0  0  0  0  0  0  0  0  0  0  0  0
   -1.5274   -2.5694   -0.0000 C   0  0  0  0  0  0  0  0  0  0  0  0
   -2.2852   -3.8600   -0.0000 C   0  0  0  0  0  0  0  0  0  0  0  0
   -1.6814   -5.2098   -0.0000 N   0  0  0  0  0  0  0  0  0  0  0  0
   -3.7771   -4.0139   -0.0000 N   0  0  0  0  0  0  0  0  0  0  0  0
   -2.7944   -6.1926   -0.0000 C   0  0  0  0  0  0  0  0  0  0  0  0
   -4.0968   -5.4585   -0.0000 C   0  0  0  0  0  0  0  0  0  0  0  0
   -4.7954   -2.8891   -0.0000 C   0  0  0  0  0  0  0  0  0  0  0  0
   -2.7944   -7.6845   -0.0000 C   0  0  0  0  0  0  0  0  0  0  0  0
   -5.3993   -6.1926   -0.0000 C   0  0  0  0  0  0  0  0  0  0  0  0
   -4.3455   -1.4564   -0.0000 C   0  0  0  0  0  0  0  0  0  0  0  0
   -6.2755   -3.1969   -0.0000 C   0  0  0  0  0  0  0  0  0  0  0  0
   -4.1087   -8.4304   -0.0000 N   0  0  0  0  0  0  0  0  0  0  0  0
   -5.4111   -7.6845   -0.0000 C   0  0  0  0  0  0  0  0  0  0  0  0
   -6.7136   -5.4348   -0.0000 C   0  0  0  0  0  0  0  0  0  0  0  0
   -5.3637   -0.3315   -0.0000 O   0  0  0  0  0  0  0  0  0  0  0  0
   -6.7136   -8.4304   -0.0000 C   0  0  0  0  0  0  0  0  0  0  0  0
   -8.0160   -6.1689   -0.0000 C   0  0  0  0  0  0  0  0  0  0  0  0
   -4.9138    1.1012   -0.0000 C   0  0  0  0  0  0  0  0  0  0  0  0
   -8.0279   -7.6726   -0.0000 C   0  0  0  0  0  0  0  0  0  0  0  0
   -9.3185   -5.4111   -0.0000 O   0  0  0  0  0  0  0  0  0  0  0  0
   -9.3422   -8.4068   -0.0000 C   0  0  0  0  0  0  0  0  0  0  0  0
   -9.3303   -3.9074   -0.0000 C   0  0  0  0  0  0  0  0  0  0  0  0
   -9.5079   -9.8868   -0.0000 C   0  0  0  0  0  0  0  0  0  0  0  0
  -10.7157   -7.7911   -0.0000 C   0  0  0  0  0  0  0  0  0  0  0  0
  -10.9880  -10.1828   -0.0000 O   0  0  0  0  0  0  0  0  0  0  0  0
   -8.4068  -10.8696   -0.0000 C   0  0  0  0  0  0  0  0  0  0  0  0
  -11.7339   -8.8922   -0.0000 N   0  0  0  0  0  0  0  0  0  0  0  0
  -11.0354   -6.3110   -0.0000 C   0  0  0  0  0  0  0  0  0  0  0  0
  1  2  1  0  0  0  0
  1  3  1  0  0  0  0
  2  4  1  0  0  0  0
  3  5  1  0  0  0  0
  4  6  1  0  0  0  0
  6  7  1  0  0  0  0
  7  8  2  0  0  0  0
  7  9  1  0  0  0  0
  8 10  1  0  0  0  0
  9 11  1  0  0  0  0
 12  9  1  1  0  0  0
 10 13  1  0  0  0  0
 11 14  1  0  0  0  0
 12 15  1  0  0  0  0
 12 16  1  0  0  0  0
 13 17  2  0  0  0  0
 14 18  1  0  0  0  0
 14 19  2  0  0  0  0
 15 20  1  0  0  0  0
 18 21  2  0  0  0  0
 19 22  1  0  0  0  0
 20 23  1  0  0  0  0
 21 24  1  0  0  0  0
 22 25  1  0  0  0  0
 24 26  1  0  0  0  0
 25 27  1  0  0  0  0
 26 28  2  0  0  0  0
 26 29  1  0  0  0  0
 28 30  1  0  0  0  0
 28 31  1  0  0  0  0
 29 32  2  0  0  0  0
 29 33  1  0  0  0  0
  5  6  1  0  0  0  0
 10 11  2  0  0  0  0
 17 18  1  0  0  0  0
 22 24  2  0  0  0  0
 30 32  1  0  0  0  0
M  END
>  <MolRegNo>
2572210

>  <m>
=

>  <Value>
25100

>  <Unit>
nM

>  <Type>
IC50

>  <pValue>
4.6

>  <Ligand Efficiency>
0

>  <Binding Efficiency>
0

>  <Surface Efficiency>
0

>  <Assay Index>
1488086

>  <Assay Category>


>  <Assay Organism>
Homo sapiens

>  <Target ID>
17045

>  <Target Name>
Cytochrome P450 3A4

>  <Target Organism>
Homo sapiens

>  <Target Description>
Target is a single protein chain

>  <Sequence Accession>
P08684

>  <Reference>
J Med Chem 64 (16.0), 12200-12227 (2021)

>  <Pubmed ID>
34387088

>  <DOI>
10.1021/acs.jmedchem.1c00855

$$$$
2568127
Actelion Java MolfileCreator 1.0

 32 36  0  0  0  0  0  0  0  0999 V2000
    0.0000   -0.0000   -0.0000 O   0  0  0  0  0  0  0  0  0  0  0  0
    0.9949   -1.1097   -0.0000 C   0  0  0  0  0  0  0  0  0  0  0  0
   -1.4796   -0.3061   -0.0000 C   0  0  0  0  0  0  0  0  0  0  0  0
    0.5230   -2.5128   -0.0000 C   0  0  0  0  0  0  0  0  0  0  0  0
   -1.9644   -1.7220   -0.0000 C   0  0  0  0  0  0  0  0  0  0  0  0
   -0.9567   -2.8062   -0.0000 C   0  0  0  0  0  0  0  0  0  0  0  0
   -1.4286   -4.2221   -0.0000 C   0  0  0  0  0  0  0  0  0  0  0  0
   -0.4337   -5.3191   -0.0000 N   0  0  0  0  0  0  0  0  0  0  0  0
    1.0332   -5.1405   -0.0000 C   0  0  0  0  0  0  0  0  0  0  0  0
   -0.7526   -6.7604   -0.0000 C   0  0  0  0  0  0  0  0  0  0  0  0
    1.6327   -6.4926   -0.0000 N   0  0  0  0  0  0  0  0  0  0  0  0
    1.7603   -3.8267   -0.0000 N   0  0  0  0  0  0  0  0  0  0  0  0
   -2.0536   -7.5003   -0.0000 C   0  0  0  0  0  0  0  0  0  0  0  0
    0.5230   -7.4875   -0.0000 C   0  0  0  0  0  0  0  0  0  0  0  0
    3.2527   -3.8139   -0.0000 C   0  0  0  0  0  0  0  0  0  0  0  0
    1.5307   -2.1940   -0.0000 C   0  0  0  0  0  0  0  0  0  0  0  0
   -2.0664   -8.9927   -0.0000 C   0  0  0  0  0  0  0  0  0  0  0  0
   -3.3675   -6.7477   -0.0000 C   0  0  0  0  0  0  0  0  0  0  0  0
    0.5230   -8.9799   -0.0000 C   0  0  0  0  0  0  0  0  0  0  0  0
   -0.7781   -9.7325   -0.0000 N   0  0  0  0  0  0  0  0  0  0  0  0
   -3.3802   -9.7325   -0.0000 C   0  0  0  0  0  0  0  0  0  0  0  0
   -4.6685   -7.4875   -0.0000 C   0  0  0  0  0  0  0  0  0  0  0  0
   -4.6940   -8.9672   -0.0000 C   0  0  0  0  0  0  0  0  0  0  0  0
   -5.9824   -6.7222   -0.0000 O   0  0  0  0  0  0  0  0  0  0  0  0
   -6.0079   -9.7070   -0.0000 C   0  0  0  0  0  0  0  0  0  0  0  0
   -5.9951   -5.2043   -0.0000 C   0  0  0  0  0  0  0  0  0  0  0  0
   -6.1737  -11.1866   -0.0000 C   0  0  0  0  0  0  0  0  0  0  0  0
   -7.3855   -9.0947   -0.0000 C   0  0  0  0  0  0  0  0  0  0  0  0
   -7.6533  -11.4800   -0.0000 O   0  0  0  0  0  0  0  0  0  0  0  0
   -5.0767  -12.1816   -0.0000 C   0  0  0  0  0  0  0  0  0  0  0  0
   -8.4059  -10.1917   -0.0000 N   0  0  0  0  0  0  0  0  0  0  0  0
   -7.7044   -7.6151   -0.0000 C   0  0  0  0  0  0  0  0  0  0  0  0
  1  2  1  0  0  0  0
  1  3  1  0  0  0  0
  2  4  1  0  0  0  0
  3  5  1  0  0  0  0
  4  6  1  0  0  0  0
  6  7  1  0  0  0  0
  7  8  1  0  0  0  0
  8  9  1  0  0  0  0
  8 10  1  0  0  0  0
  9 11  2  0  0  0  0
  9 12  1  0  0  0  0
 10 13  1  0  0  0  0
 10 14  2  0  0  0  0
 12 15  1  0  0  0  0
 12 16  1  0  0  0  0
 13 17  1  0  0  0  0
 13 18  2  0  0  0  0
 14 19  1  0  0  0  0
 17 20  1  0  0  0  0
 17 21  2  0  0  0  0
 18 22  1  0  0  0  0
 21 23  1  0  0  0  0
 22 24  1  0  0  0  0
 23 25  1  0  0  0  0
 24 26  1  0  0  0  0
 25 27  2  0  0  0  0
 25 28  1  0  0  0  0
 27 29  1  0  0  0  0
 27 30  1  0  0  0  0
 28 31  2  0  0  0  0
 28 32  1  0  0  0  0
  5  6  1  0  0  0  0
 11 14  1  0  0  0  0
 19 20  2  0  0  0  0
 22 23  2  0  0  0  0
 29 31  1  0  0  0  0
M  END
>  <MolRegNo>
2568127

>  <m>
=

>  <Value>
10000

>  <Unit>
nM

>  <Type>
IC50

>  <pValue>
5

>  <Ligand Efficiency>
0

>  <Binding Efficiency>
0

>  <Surface Efficiency>
0

>  <Assay Index>
1488086

>  <Assay Category>


>  <Assay Organism>
Homo sapiens

>  <Target ID>
17045

>  <Target Name>
Cytochrome P450 3A4

>  <Target Organism>
Homo sapiens

>  <Target Description>
Target is a single protein chain

>  <Sequence Accession>
P08684

>  <Reference>
J Med Chem 64 (16.0), 12200-12227 (2021)

>  <Pubmed ID>
34387088

>  <DOI>
10.1021/acs.jmedchem.1c00855

$$$$
2568572
Actelion Java MolfileCreator 1.0

 35 39  0  0  0  0  0  0  0  0999 V2000
    0.0000   -0.0000   -0.0000 O   0  0  0  0  0  0  0  0  0  0  0  0
   -0.7585    1.3155   -0.0000 N   0  0  0  0  0  0  0  0  0  0  0  0
    1.4577    0.3200   -0.0000 C   0  0  0  0  0  0  0  0  0  0  0  0
    0.2370    2.4413   -0.0000 C   0  0  0  0  0  0  0  0  0  0  0  0
    1.5999    1.8251   -0.0000 C   0  0  0  0  0  0  0  0  0  0  0  0
    2.5599   -0.6755   -0.0000 C   0  0  0  0  0  0  0  0  0  0  0  0
   -0.0830    3.9227   -0.0000 C   0  0  0  0  0  0  0  0  0  0  0  0
    2.8917    2.5836   -0.0000 C   0  0  0  0  0  0  0  0  0  0  0  0
    2.8798    4.1005   -0.0000 C   0  0  0  0  0  0  0  0  0  0  0  0
    4.1835    1.8488   -0.0000 C   0  0  0  0  0  0  0  0  0  0  0  0
    1.5644    4.8590   -0.0000 O   0  0  0  0  0  0  0  0  0  0  0  0
    4.1598    4.8590   -0.0000 C   0  0  0  0  0  0  0  0  0  0  0  0
    5.4753    2.6191   -0.0000 C   0  0  0  0  0  0  0  0  0  0  0  0
    1.5525    6.3759   -0.0000 C   0  0  0  0  0  0  0  0  0  0  0  0
    5.4516    4.1242   -0.0000 C   0  0  0  0  0  0  0  0  0  0  0  0
    6.7670    1.8843   -0.0000 N   0  0  0  0  0  0  0  0  0  0  0  0
    6.7315    4.8945   -0.0000 C   0  0  0  0  0  0  0  0  0  0  0  0
    8.0588    2.6547   -0.0000 C   0  0  0  0  0  0  0  0  0  0  0  0
    7.0278    6.3641   -0.0000 N   0  0  0  0  0  0  0  0  0  0  0  0
    8.0114    4.1598   -0.0000 C   0  0  0  0  0  0  0  0  0  0  0  0
    8.4973    6.5419   -0.0000 C   0  0  0  0  0  0  0  0  0  0  0  0
    6.0086    7.4900   -0.0000 C   0  0  0  0  0  0  0  0  0  0  0  0
    9.1017    5.1790   -0.0000 N   0  0  0  0  0  0  0  0  0  0  0  0
    9.2321    7.8573   -0.0000 N   0  0  0  0  0  0  0  0  0  0  0  0
    6.4589    8.9358   -0.0000 C   0  0  0  0  0  0  0  0  0  0  0  0
    4.5272    7.1818   -0.0000 C   0  0  0  0  0  0  0  0  0  0  0  0
   10.7253    7.8692   -0.0000 C   0  0  0  0  0  0  0  0  0  0  0  0
    5.4397   10.0498   -0.0000 N   0  0  0  0  0  0  0  0  0  0  0  0
    7.9166    9.2558   -0.0000 C   0  0  0  0  0  0  0  0  0  0  0  0
   11.4720    6.5893   -0.0000 C   0  0  0  0  0  0  0  0  0  0  0  0
    5.8782   11.4838   -0.0000 C   0  0  0  0  0  0  0  0  0  0  0  0
    8.3670   10.6898   -0.0000 C   0  0  0  0  0  0  0  0  0  0  0  0
   12.9652    6.6011   -0.0000 O   0  0  0  0  0  0  0  0  0  0  0  0
    7.3359   11.8157   -0.0000 C   0  0  0  0  0  0  0  0  0  0  0  0
   13.7118    5.3212   -0.0000 C   0  0  0  0  0  0  0  0  0  0  0  0
  1  2  1  0  0  0  0
  1  3  1  0  0  0  0
  2  4  2  0  0  0  0
  3  5  2  0  0  0  0
  3  6  1  0  0  0  0
  4  7  1  0  0  0  0
  5  8  1  0  0  0  0
  8  9  1  0  0  0  0
  8 10  2  0  0  0  0
  9 11  1  0  0  0  0
  9 12  2  0  0  0  0
 10 13  1  0  0  0  0
 11 14  1  0  0  0  0
 12 15  1  0  0  0  0
 13 16  2  0  0  0  0
 15 17  2  0  0  0  0
 16 18  1  0  0  0  0
 17 19  1  0  0  0  0
 17 20  1  0  0  0  0
 19 21  1  0  0  0  0
 22 19  1  1  0  0  0
 20 23  1  0  0  0  0
 21 24  1  0  0  0  0
 22 25  1  0  0  0  0
 22 26  1  0  0  0  0
 24 27  1  0  0  0  0
 25 28  2  0  0  0  0
 25 29  1  0  0  0  0
 27 30  1  0  0  0  0
 28 31  1  0  0  0  0
 29 32  2  0  0  0  0
 30 33  1  0  0  0  0
 31 34  2  0  0  0  0
 33 35  1  0  0  0  0
  4  5  1  0  0  0  0
 13 15  1  0  0  0  0
 18 20  2  0  0  0  0
 21 23  2  0  0  0  0
 32 34  1  0  0  0  0
M  END
>  <MolRegNo>
2568572

>  <m>
=

>  <Value>
7900

>  <Unit>
nM

>  <Type>
IC50

>  <pValue>
5.1

>  <Ligand Efficiency>
0

>  <Binding Efficiency>
0

>  <Surface Efficiency>
0

>  <Assay Index>
1488086

>  <Assay Category>


>  <Assay Organism>
Homo sapiens

>  <Target ID>
17045

>  <Target Name>
Cytochrome P450 3A4

>  <Target Organism>
Homo sapiens

>  <Target Description>
Target is a single protein chain

>  <Sequence Accession>
P08684

>  <Reference>
J Med Chem 64 (16.0), 12200-12227 (2021)

>  <Pubmed ID>
34387088

>  <DOI>
10.1021/acs.jmedchem.1c00855

$$$$
1297331
Actelion Java MolfileCreator 1.0

 37 41  0  0  0  0  0  0  0  0999 V2000
    0.0000   -0.0000   -0.0000 O   0  0  0  0  0  0  0  0  0  0  0  0
   -0.5553    1.4178   -0.0000 C   0  0  0  0  0  0  0  0  0  0  0  0
    0.3190    2.6466   -0.0000 N   0  0  0  0  0  0  0  0  0  0  0  0
   -1.9967    1.8904   -0.0000 C   0  0  0  0  0  0  0  0  0  0  0  0
   -0.5789    3.8753   -0.0000 N   0  0  0  0  0  0  0  0  0  0  0  0
    1.8077    2.6584   -0.0000 C   0  0  0  0  0  0  0  0  0  0  0  0
   -2.0086    3.4027   -0.0000 C   0  0  0  0  0  0  0  0  0  0  0  0
   -3.3082    1.1579   -0.0000 C   0  0  0  0  0  0  0  0  0  0  0  0
   -0.1300    5.3168   -0.0000 C   0  0  0  0  0  0  0  0  0  0  0  0
    2.5402    1.3705   -0.0000 C   0  0  0  0  0  0  0  0  0  0  0  0
   -3.3200    4.1589   -0.0000 N   0  0  0  0  0  0  0  0  0  0  0  0
   -4.6197    1.9140   -0.0000 N   0  0  0  0  0  0  0  0  0  0  0  0
    1.3233    5.6358   -0.0000 N   0  0  0  0  0  0  0  0  0  0  0  0
   -1.1461    6.4392   -0.0000 C   0  0  0  0  0  0  0  0  0  0  0  0
    4.0289    1.2997   -0.0000 C   0  0  0  0  0  0  0  0  0  0  0  0
   -4.6315    3.4264   -0.0000 C   0  0  0  0  0  0  0  0  0  0  0  0
    1.7723    7.0772   -0.0000 C   0  0  0  0  0  0  0  0  0  0  0  0
   -0.6971    7.8807   -0.0000 C   0  0  0  0  0  0  0  0  0  0  0  0
   -5.9430    4.1825   -0.0000 N   0  0  0  0  0  0  0  0  0  0  0  0
    0.7562    8.1997   -0.0000 C   0  0  0  0  0  0  0  0  0  0  0  0
    3.2137    7.4789   -0.0000 C   0  0  0  0  0  0  0  0  0  0  0  0
   -7.2545    3.4500   -0.0000 C   0  0  0  0  0  0  0  0  0  0  0  0
    2.8120    8.9440   -0.0000 O   0  0  0  0  0  0  0  0  0  0  0  0
    4.1589    8.6250   -0.0000 C   0  0  0  0  0  0  0  0  0  0  0  0
    4.3007    6.6991   -0.0000 C   0  0  0  0  0  0  0  0  0  0  0  0
   -8.5659    4.2062   -0.0000 C   0  0  0  0  0  0  0  0  0  0  0  0
   -7.2663    1.9613   -0.0000 C   0  0  0  0  0  0  0  0  0  0  0  0
   -9.8774    3.4736   -0.0000 C   0  0  0  0  0  0  0  0  0  0  0  0
   -8.5777    1.2288   -0.0000 C   0  0  0  0  0  0  0  0  0  0  0  0
   -9.8892    1.9849   -0.0000 C   0  0  0  0  0  0  0  0  0  0  0  0
  -11.2007    1.2524   -0.0000 N   0  0  0  0  0  0  0  0  0  0  0  0
  -12.5122    2.0086   -0.0000 C   0  0  0  0  0  0  0  0  0  0  0  0
  -11.2125   -0.2363   -0.0000 C   0  0  0  0  0  0  0  0  0  0  0  0
  -13.8236    1.2760   -0.0000 C   0  0  0  0  0  0  0  0  0  0  0  0
  -12.5240   -0.9688   -0.0000 C   0  0  0  0  0  0  0  0  0  0  0  0
  -13.8355   -0.2127   -0.0000 N   0  0  0  0  0  0  0  0  0  0  0  0
  -15.0997   -1.0161   -0.0000 C   0  0  0  0  0  0  0  0  0  0  0  0
  1  2  2  0  0  0  0
  2  3  1  0  0  0  0
  2  4  1  0  0  0  0
  3  5  1  0  0  0  0
  3  6  1  0  0  0  0
  4  7  2  0  0  0  0
  4  8  1  0  0  0  0
  5  9  1  0  0  0  0
  6 10  1  0  0  0  0
  7 11  1  0  0  0  0
  8 12  2  0  0  0  0
  9 13  2  0  0  0  0
  9 14  1  0  0  0  0
 10 15  2  0  0  0  0
 11 16  2  0  0  0  0
 13 17  1  0  0  0  0
 14 18  2  0  0  0  0
 16 19  1  0  0  0  0
 17 20  2  0  0  0  0
 17 21  1  0  0  0  0
 19 22  1  0  0  0  0
 21 23  1  0  0  0  0
 21 24  1  0  0  0  0
 21 25  1  0  0  0  0
 22 26  2  0  0  0  0
 22 27  1  0  0  0  0
 26 28  1  0  0  0  0
 27 29  2  0  0  0  0
 28 30  2  0  0  0  0
 30 31  1  0  0  0  0
 31 32  1  0  0  0  0
 31 33  1  0  0  0  0
 32 34  1  0  0  0  0
 33 35  1  0  0  0  0
 34 36  1  0  0  0  0
 36 37  1  0  0  0  0
  5  7  1  0  0  0  0
 12 16  1  0  0  0  0
 18 20  1  0  0  0  0
 29 30  1  0  0  0  0
 35 36  1  0  0  0  0
M  END
>  <MolRegNo>
1297331

>  <m>
=

>  <Value>
19000

>  <Unit>
nM

>  <Type>
IC50

>  <pValue>
4.72

>  <Ligand Efficiency>
0

>  <Binding Efficiency>
0

>  <Surface Efficiency>
0

>  <Assay Index>
1488600

>  <Assay Category>


>  <Assay Organism>
Homo sapiens

>  <Target ID>
17045

>  <Target Name>
Cytochrome P450 3A4

>  <Target Organism>
Homo sapiens

>  <Target Description>
Target is a single protein chain

>  <Sequence Accession>
P08684

>  <Reference>
J Med Chem 64 (17.0), 13004-13024 (2021)

>  <Pubmed ID>
34423975

>  <DOI>
10.1021/acs.jmedchem.1c01121

$$$$
2560878
Actelion Java MolfileCreator 1.0

 34 38  0  0  0  0  0  0  0  0999 V2000
    0.0000   -0.0000   -0.0000 Cl  0  0  0  0  0  0  0  0  0  0  0  0
   -0.0237    1.5024   -0.0000 C   0  0  0  0  0  0  0  0  0  0  0  0
   -1.3250    2.2477   -0.0000 C   0  0  0  0  0  0  0  0  0  0  0  0
    1.2421    2.2713   -0.0000 C   0  0  0  0  0  0  0  0  0  0  0  0
   -2.6144    1.5024   -0.0000 N   0  0  0  0  0  0  0  0  0  0  0  0
   -1.3486    3.7383   -0.0000 C   0  0  0  0  0  0  0  0  0  0  0  0
    1.2185    3.7737   -0.0000 C   0  0  0  0  0  0  0  0  0  0  0  0
   -3.9275    2.2477   -0.0000 C   0  0  0  0  0  0  0  0  0  0  0  0
   -2.6144    0.0118   -0.0000 C   0  0  0  0  0  0  0  0  0  0  0  0
   -2.6617    4.4835   -0.0000 Cl  0  0  0  0  0  0  0  0  0  0  0  0
   -0.0828    4.5072   -0.0000 C   0  0  0  0  0  0  0  0  0  0  0  0
   -3.9512    3.7501   -0.0000 O   0  0  0  0  0  0  0  0  0  0  0  0
   -5.2288    1.5024   -0.0000 C   0  0  0  0  0  0  0  0  0  0  0  0
   -3.9157   -0.7335   -0.0000 C   0  0  0  0  0  0  0  0  0  0  0  0
   -5.2407    0.0237   -0.0000 C   0  0  0  0  0  0  0  0  0  0  0  0
   -6.5419    2.2595   -0.0000 C   0  0  0  0  0  0  0  0  0  0  0  0
   -3.9157   -2.2122   -0.0000 C   0  0  0  0  0  0  0  0  0  0  0  0
   -6.5538   -0.7098   -0.0000 N   0  0  0  0  0  0  0  0  0  0  0  0
   -7.8432    1.5142   -0.0000 N   0  0  0  0  0  0  0  0  0  0  0  0
   -7.8551    0.0473   -0.0000 C   0  0  0  0  0  0  0  0  0  0  0  0
   -9.1682   -0.6861   -0.0000 N   0  0  0  0  0  0  0  0  0  0  0  0
  -10.4695    0.0710   -0.0000 C   0  0  0  0  0  0  0  0  0  0  0  0
  -11.7826   -0.6625   -0.0000 C   0  0  0  0  0  0  0  0  0  0  0  0
  -10.4813    1.5852   -0.0000 C   0  0  0  0  0  0  0  0  0  0  0  0
  -13.0839    0.0946   -0.0000 C   0  0  0  0  0  0  0  0  0  0  0  0
  -11.7826    2.3423   -0.0000 C   0  0  0  0  0  0  0  0  0  0  0  0
  -13.0839    1.5970   -0.0000 C   0  0  0  0  0  0  0  0  0  0  0  0
  -14.3852    2.3660   -0.0000 N   0  0  0  0  0  0  0  0  0  0  0  0
  -15.6865    1.6325   -0.0000 C   0  0  0  0  0  0  0  0  0  0  0  0
  -14.3970    3.8684   -0.0000 C   0  0  0  0  0  0  0  0  0  0  0  0
  -16.9878    2.3896   -0.0000 C   0  0  0  0  0  0  0  0  0  0  0  0
  -15.6983    4.6255   -0.0000 C   0  0  0  0  0  0  0  0  0  0  0  0
  -16.9996    3.8920   -0.0000 N   0  0  0  0  0  0  0  0  0  0  0  0
  -18.3127    4.6492   -0.0000 C   0  0  0  0  0  0  0  0  0  0  0  0
  1  2  1  0  0  0  0
  2  3  2  0  0  0  0
  2  4  1  0  0  0  0
  3  5  1  0  0  0  0
  3  6  1  0  0  0  0
  4  7  2  0  0  0  0
  5  8  1  0  0  0  0
  5  9  1  0  0  0  0
  6 10  1  0  0  0  0
  6 11  2  0  0  0  0
  8 12  2  0  0  0  0
  8 13  1  0  0  0  0
  9 14  2  0  0  0  0
 13 15  2  0  0  0  0
 13 16  1  0  0  0  0
 14 17  1  0  0  0  0
 15 18  1  0  0  0  0
 16 19  2  0  0  0  0
 18 20  2  0  0  0  0
 20 21  1  0  0  0  0
 21 22  1  0  0  0  0
 22 23  2  0  0  0  0
 22 24  1  0  0  0  0
 23 25  1  0  0  0  0
 24 26  2  0  0  0  0
 25 27  2  0  0  0  0
 27 28  1  0  0  0  0
 28 29  1  0  0  0  0
 28 30  1  0  0  0  0
 29 31  1  0  0  0  0
 30 32  1  0  0  0  0
 31 33  1  0  0  0  0
 33 34  1  0  0  0  0
  7 11  1  0  0  0  0
 14 15  1  0  0  0  0
 19 20  1  0  0  0  0
 26 27  1  0  0  0  0
 32 33  1  0  0  0  0
M  END
>  <MolRegNo>
2560878

>  <m>
=

>  <Value>
4500

>  <Unit>
nM

>  <Type>
IC50

>  <pValue>
5.35

>  <Ligand Efficiency>
0

>  <Binding Efficiency>
0

>  <Surface Efficiency>
0

>  <Assay Index>
1488600

>  <Assay Category>


>  <Assay Organism>
Homo sapiens

>  <Target ID>
17045

>  <Target Name>
Cytochrome P450 3A4

>  <Target Organism>
Homo sapiens

>  <Target Description>
Target is a single protein chain

>  <Sequence Accession>
P08684

>  <Reference>
J Med Chem 64 (17.0), 13004-13024 (2021)

>  <Pubmed ID>
34423975

>  <DOI>
10.1021/acs.jmedchem.1c01121

$$$$
2565364
Actelion Java MolfileCreator 1.0

 39 44  0  0  0  0  0  0  0  0999 V2000
    0.0000   -0.0000   -0.0000 O   0  0  0  0  0  0  0  0  0  0  0  0
   -0.4751   -1.4133   -0.0000 C   0  0  0  0  0  0  0  0  0  0  0  0
    0.4038   -2.6129   -0.0000 N   0  0  0  0  0  0  0  0  0  0  0  0
   -1.9122   -1.8765   -0.0000 C   0  0  0  0  0  0  0  0  0  0  0  0
   -0.4988   -3.8125   -0.0000 N   0  0  0  0  0  0  0  0  0  0  0  0
    1.8884   -2.6010   -0.0000 C   0  0  0  0  0  0  0  0  0  0  0  0
   -1.9241   -3.3612   -0.0000 C   0  0  0  0  0  0  0  0  0  0  0  0
   -3.2305   -1.1164   -0.0000 C   0  0  0  0  0  0  0  0  0  0  0  0
   -0.0475   -5.2258   -0.0000 C   0  0  0  0  0  0  0  0  0  0  0  0
    2.6248   -1.2827   -0.0000 C   0  0  0  0  0  0  0  0  0  0  0  0
   -3.2424   -4.0975   -0.0000 N   0  0  0  0  0  0  0  0  0  0  0  0
   -4.5370   -1.8647   -0.0000 N   0  0  0  0  0  0  0  0  0  0  0  0
    1.4015   -5.5227   -0.0000 N   0  0  0  0  0  0  0  0  0  0  0  0
   -1.0570   -6.3304   -0.0000 C   0  0  0  0  0  0  0  0  0  0  0  0
    4.1094   -1.2708   -0.0000 C   0  0  0  0  0  0  0  0  0  0  0  0
   -4.5488   -3.3374   -0.0000 C   0  0  0  0  0  0  0  0  0  0  0  0
    1.8647   -6.9361   -0.0000 C   0  0  0  0  0  0  0  0  0  0  0  0
   -0.6057   -7.7437   -0.0000 C   0  0  0  0  0  0  0  0  0  0  0  0
   -5.8672   -4.0738   -0.0000 N   0  0  0  0  0  0  0  0  0  0  0  0
    0.8551   -8.0525   -0.0000 C   0  0  0  0  0  0  0  0  0  0  0  0
    3.2305   -7.5299   -0.0000 C   0  0  0  0  0  0  0  0  0  0  0  0
   -7.1736   -3.3136   -0.0000 C   0  0  0  0  0  0  0  0  0  0  0  0
    1.6034   -9.3471   -0.0000 C   0  0  0  0  0  0  0  0  0  0  0  0
    3.9550   -6.2235   -0.0000 O   0  0  0  0  0  0  0  0  0  0  0  0
    3.0642   -9.0145   -0.0000 C   0  0  0  0  0  0  0  0  0  0  0  0
    4.7151   -7.5062   -0.0000 C   0  0  0  0  0  0  0  0  0  0  0  0
   -8.4920   -4.0500   -0.0000 C   0  0  0  0  0  0  0  0  0  0  0  0
   -7.1855   -1.7934   -0.0000 C   0  0  0  0  0  0  0  0  0  0  0  0
    5.4515   -8.7889   -0.0000 C   0  0  0  0  0  0  0  0  0  0  0  0
   -9.7984   -3.2899   -0.0000 C   0  0  0  0  0  0  0  0  0  0  0  0
   -8.4920   -1.0333   -0.0000 C   0  0  0  0  0  0  0  0  0  0  0  0
   -9.7984   -1.7815   -0.0000 C   0  0  0  0  0  0  0  0  0  0  0  0
  -11.1049   -1.0095   -0.0000 N   0  0  0  0  0  0  0  0  0  0  0  0
  -12.4113   -1.7459   -0.0000 C   0  0  0  0  0  0  0  0  0  0  0  0
  -11.1167    0.4988   -0.0000 C   0  0  0  0  0  0  0  0  0  0  0  0
  -13.7178   -0.9858   -0.0000 C   0  0  0  0  0  0  0  0  0  0  0  0
  -12.4232    1.2589   -0.0000 C   0  0  0  0  0  0  0  0  0  0  0  0
  -13.7297    0.5226   -0.0000 N   0  0  0  0  0  0  0  0  0  0  0  0
  -15.0480    1.2827   -0.0000 C   0  0  0  0  0  0  0  0  0  0  0  0
  1  2  2  0  0  0  0
  2  3  1  0  0  0  0
  2  4  1  0  0  0  0
  3  5  1  0  0  0  0
  3  6  1  0  0  0  0
  4  7  2  0  0  0  0
  4  8  1  0  0  0  0
  5  9  1  0  0  0  0
  6 10  1  0  0  0  0
  7 11  1  0  0  0  0
  8 12  2  0  0  0  0
  9 13  2  0  0  0  0
  9 14  1  0  0  0  0
 10 15  2  0  0  0  0
 11 16  2  0  0  0  0
 13 17  1  0  0  0  0
 14 18  2  0  0  0  0
 16 19  1  0  0  0  0
 17 20  2  0  0  0  0
 17 21  1  0  0  0  0
 19 22  1  0  0  0  0
 20 23  1  0  0  0  0
 21 24  1  0  0  0  0
 21 25  1  0  0  0  0
 21 26  1  0  0  0  0
 22 27  2  0  0  0  0
 22 28  1  0  0  0  0
 26 29  1  0  0  0  0
 27 30  1  0  0  0  0
 28 31  2  0  0  0  0
 30 32  2  0  0  0  0
 32 33  1  0  0  0  0
 33 34  1  0  0  0  0
 33 35  1  0  0  0  0
 34 36  1  0  0  0  0
 35 37  1  0  0  0  0
 36 38  1  0  0  0  0
 38 39  1  0  0  0  0
  5  7  1  0  0  0  0
 12 16  1  0  0  0  0
 18 20  1  0  0  0  0
 23 25  1  0  0  0  0
 31 32  1  0  0  0  0
 37 38  1  0  0  0  0
M  END
>  <MolRegNo>
2565364

>  <m>
=

>  <Value>
7000

>  <Unit>
nM

>  <Type>
IC50

>  <pValue>
5.16

>  <Ligand Efficiency>
0

>  <Binding Efficiency>
0

>  <Surface Efficiency>
0

>  <Assay Index>
1488600

>  <Assay Category>


>  <Assay Organism>
Homo sapiens

>  <Target ID>
17045

>  <Target Name>
Cytochrome P450 3A4

>  <Target Organism>
Homo sapiens

>  <Target Description>
Target is a single protein chain

>  <Sequence Accession>
P08684

>  <Reference>
J Med Chem 64 (17.0), 13004-13024 (2021)

>  <Pubmed ID>
34423975

>  <DOI>
10.1021/acs.jmedchem.1c01121

$$$$
2561336
Actelion Java MolfileCreator 1.0

 29 33  0  0  0  0  0  0  0  0999 V2000
    0.0000   -0.0000   -0.0000 S   0  0  0  0  0  0  0  0  0  0  0  0
   -1.0860   -1.0502   -0.0000 O   0  0  0  0  0  0  0  0  0  0  0  0
   -1.4679    0.4058   -0.0000 O   0  0  0  0  0  0  0  0  0  0  0  0
    0.9905   -1.1218   -0.0000 N   0  0  0  0  0  0  0  0  0  0  0  0
    0.4654    1.4321   -0.0000 C   0  0  0  0  0  0  0  0  0  0  0  0
    0.6564   -2.5897   -0.0000 C   0  0  0  0  0  0  0  0  0  0  0  0
    2.4823   -0.9547   -0.0000 C   0  0  0  0  0  0  0  0  0  0  0  0
    1.9333    1.7424   -0.0000 C   0  0  0  0  0  0  0  0  0  0  0  0
   -0.5370    2.5539   -0.0000 C   0  0  0  0  0  0  0  0  0  0  0  0
   -0.6564   -3.3415   -0.0000 C   0  0  0  0  0  0  0  0  0  0  0  0
    1.9453   -3.3415   -0.0000 C   0  0  0  0  0  0  0  0  0  0  0  0
    3.0790   -2.3271   -0.0000 C   0  0  0  0  0  0  0  0  0  0  0  0
    2.3987    3.1625   -0.0000 C   0  0  0  0  0  0  0  0  0  0  0  0
   -0.0835    3.9740   -0.0000 C   0  0  0  0  0  0  0  0  0  0  0  0
   -0.6683   -4.8452   -0.0000 C   0  0  0  0  0  0  0  0  0  0  0  0
   -1.9691   -2.5897   -0.0000 C   0  0  0  0  0  0  0  0  0  0  0  0
    1.9333   -4.8452   -0.0000 C   0  0  0  0  0  0  0  0  0  0  0  0
    3.8547    3.4728   -0.0000 F   0  0  0  0  0  0  0  0  0  0  0  0
    1.3844    4.2963   -0.0000 C   0  0  0  0  0  0  0  0  0  0  0  0
    0.6206   -5.5851   -0.0000 N   0  0  0  0  0  0  0  0  0  0  0  0
   -1.9811   -5.5851   -0.0000 C   0  0  0  0  0  0  0  0  0  0  0  0
   -3.2699   -3.3296   -0.0000 C   0  0  0  0  0  0  0  0  0  0  0  0
    3.2222   -5.5851   -0.0000 N   0  0  0  0  0  0  0  0  0  0  0  0
   -3.2938   -4.8214   -0.0000 C   0  0  0  0  0  0  0  0  0  0  0  0
    3.2103   -7.0650   -0.0000 C   0  0  0  0  0  0  0  0  0  0  0  0
    4.5111   -4.8214   -0.0000 C   0  0  0  0  0  0  0  0  0  0  0  0
    4.4872   -7.8049   -0.0000 C   0  0  0  0  0  0  0  0  0  0  0  0
    5.8000   -5.5732   -0.0000 C   0  0  0  0  0  0  0  0  0  0  0  0
    5.7761   -7.0530   -0.0000 N   0  0  0  0  0  0  0  0  0  0  0  0
  1  2  2  0  0  0  0
  1  3  2  0  0  0  0
  1  4  1  0  0  0  0
  1  5  1  0  0  0  0
  4  6  1  0  0  0  0
  4  7  1  0  0  0  0
  5  8  2  0  0  0  0
  5  9  1  0  0  0  0
  6 10  1  0  0  0  0
  6 11  2  0  0  0  0
  7 12  2  0  0  0  0
  8 13  1  0  0  0  0
  9 14  2  0  0  0  0
 10 15  1  0  0  0  0
 10 16  2  0  0  0  0
 11 17  1  0  0  0  0
 13 18  1  0  0  0  0
 13 19  2  0  0  0  0
 15 20  1  0  0  0  0
 15 21  2  0  0  0  0
 16 22  1  0  0  0  0
 17 23  1  0  0  0  0
 21 24  1  0  0  0  0
 23 25  1  0  0  0  0
 23 26  1  0  0  0  0
 25 27  1  0  0  0  0
 26 28  1  0  0  0  0
 27 29  1  0  0  0  0
 11 12  1  0  0  0  0
 14 19  1  0  0  0  0
 17 20  2  0  0  0  0
 22 24  2  0  0  0  0
 28 29  1  0  0  0  0
M  END
>  <MolRegNo>
2561336

>  <m>
=

>  <Value>
57000

>  <Unit>
nM

>  <Type>
IC50

>  <pValue>
4.24

>  <Ligand Efficiency>
0

>  <Binding Efficiency>
0

>  <Surface Efficiency>
0

>  <Assay Index>
1488859

>  <Assay Category>


>  <Assay Organism>
Homo sapiens

>  <Target ID>
17045

>  <Target Name>
Cytochrome P450 3A4

>  <Target Organism>
Homo sapiens

>  <Target Description>
Target is a single protein chain

>  <Sequence Accession>
P08684

>  <Reference>
J Med Chem 64 (18.0), 13279-13298 (2021)

>  <Pubmed ID>
34467765

>  <DOI>
10.1021/acs.jmedchem.1c00224

$$$$
2570646
Actelion Java MolfileCreator 1.0

 45 51  0  0  0  0  0  0  0  0999 V2000
    0.0000   -0.0000   -0.0000 Br  0  0  0  0  0  0  0  0  0  0  0  0
   -1.4986    0.1784   -0.0000 C   0  0  0  0  0  0  0  0  0  0  0  0
   -2.4025   -1.0109   -0.0000 C   0  0  0  0  0  0  0  0  0  0  0  0
   -2.1170    1.5580   -0.0000 C   0  0  0  0  0  0  0  0  0  0  0  0
   -3.8891   -0.8563   -0.0000 C   0  0  0  0  0  0  0  0  0  0  0  0
   -1.8078   -2.3668   -0.0000 C   0  0  0  0  0  0  0  0  0  0  0  0
   -3.6156    1.7245   -0.0000 C   0  0  0  0  0  0  0  0  0  0  0  0
   -4.5076    0.5114   -0.0000 C   0  0  0  0  0  0  0  0  0  0  0  0
   -2.6998   -3.5680   -0.0000 N   0  0  0  0  0  0  0  0  0  0  0  0
   -2.2479   -4.9833   -0.0000 C   0  0  0  0  0  0  0  0  0  0  0  0
   -4.1984   -3.5561   -0.0000 C   0  0  0  0  0  0  0  0  0  0  0  0
   -0.8325   -5.4353   -0.0000 C   0  0  0  0  0  0  0  0  0  0  0  0
   -3.4610   -5.8516   -0.0000 C   0  0  0  0  0  0  0  0  0  0  0  0
   -4.6860   -4.9714   -0.0000 C   0  0  0  0  0  0  0  0  0  0  0  0
   -5.2093   -2.4263   -0.0000 C   0  0  0  0  0  0  0  0  0  0  0  0
   -0.5471   -6.8863   -0.0000 C   0  0  0  0  0  0  0  0  0  0  0  0
    0.2498   -4.4243   -0.0000 C   0  0  0  0  0  0  0  0  0  0  0  0
   -3.4729   -7.3382   -0.0000 C   0  0  0  0  0  0  0  0  0  0  0  0
   -6.1608   -5.2688   -0.0000 C   0  0  0  0  0  0  0  0  0  0  0  0
   -6.6960   -2.7236   -0.0000 C   0  0  0  0  0  0  0  0  0  0  0  0
    0.8563   -7.3382   -0.0000 C   0  0  0  0  0  0  0  0  0  0  0  0
    1.6532   -4.8644   -0.0000 C   0  0  0  0  0  0  0  0  0  0  0  0
   -2.1765   -8.0875   -0.0000 N   0  0  0  0  0  0  0  0  0  0  0  0
   -4.7811   -8.0875   -0.0000 C   0  0  0  0  0  0  0  0  0  0  0  0
   -7.1717   -4.1508   -0.0000 C   0  0  0  0  0  0  0  0  0  0  0  0
    1.9624   -6.3273   -0.0000 C   0  0  0  0  0  0  0  0  0  0  0  0
   -2.1884   -9.5861   -0.0000 C   0  0  0  0  0  0  0  0  0  0  0  0
   -4.7930   -9.5861   -0.0000 C   0  0  0  0  0  0  0  0  0  0  0  0
   -6.0894   -7.3382   -0.0000 C   0  0  0  0  0  0  0  0  0  0  0  0
   -3.5086  -10.3235   -0.0000 N   0  0  0  0  0  0  0  0  0  0  0  0
   -6.1013  -10.3235   -0.0000 C   0  0  0  0  0  0  0  0  0  0  0  0
   -7.3977   -8.0756   -0.0000 C   0  0  0  0  0  0  0  0  0  0  0  0
   -7.4096   -9.5623   -0.0000 C   0  0  0  0  0  0  0  0  0  0  0  0
   -8.7060   -7.3144   -0.0000 O   0  0  0  0  0  0  0  0  0  0  0  0
   -8.7179  -10.2997   -0.0000 O   0  0  0  0  0  0  0  0  0  0  0  0
  -10.0142   -8.0518   -0.0000 C   0  0  0  0  0  0  0  0  0  0  0  0
  -10.0261   -9.5385   -0.0000 C   0  0  0  0  0  0  0  0  0  0  0  0
  -11.3225   -7.2907   -0.0000 C   0  0  0  0  0  0  0  0  0  0  0  0
  -12.6308   -8.0280   -0.0000 C   0  0  0  0  0  0  0  0  0  0  0  0
  -13.9391   -7.2669   -0.0000 N   0  0  0  0  0  0  0  0  0  0  0  0
  -13.9510   -5.7564   -0.0000 C   0  0  0  0  0  0  0  0  0  0  0  0
  -15.2354   -8.0043   -0.0000 C   0  0  0  0  0  0  0  0  0  0  0  0
  -15.2473   -4.9952   -0.0000 C   0  0  0  0  0  0  0  0  0  0  0  0
  -16.5437   -7.2312   -0.0000 C   0  0  0  0  0  0  0  0  0  0  0  0
  -16.5556   -5.7207   -0.0000 O   0  0  0  0  0  0  0  0  0  0  0  0
  1  2  1  0  0  0  0
  2  3  2  0  0  0  0
  2  4  1  0  0  0  0
  3  5  1  0  0  0  0
  3  6  1  0  0  0  0
  4  7  2  0  0  0  0
  5  8  2  0  0  0  0
  6  9  1  0  0  0  0
  9 10  1  0  0  0  0
  9 11  1  0  0  0  0
 10 12  1  0  0  0  0
 10 13  2  0  0  0  0
 11 14  2  0  0  0  0
 11 15  1  0  0  0  0
 12 16  2  0  0  0  0
 12 17  1  0  0  0  0
 13 18  1  0  0  0  0
 14 19  1  0  0  0  0
 15 20  2  0  0  0  0
 16 21  1  0  0  0  0
 17 22  2  0  0  0  0
 18 23  2  0  0  0  0
 18 24  1  0  0  0  0
 19 25  2  0  0  0  0
 21 26  2  0  0  0  0
 23 27  1  0  0  0  0
 24 28  1  0  0  0  0
 24 29  2  0  0  0  0
 27 30  2  0  0  0  0
 28 31  2  0  0  0  0
 29 32  1  0  0  0  0
 31 33  1  0  0  0  0
 32 34  1  0  0  0  0
 33 35  1  0  0  0  0
 34 36  1  0  0  0  0
 35 37  1  0  0  0  0
 36 38  1  0  0  0  0
 38 39  1  0  0  0  0
 39 40  1  0  0  0  0
 40 41  1  0  0  0  0
 40 42  1  0  0  0  0
 41 43  1  0  0  0  0
 42 44  1  0  0  0  0
 43 45  1  0  0  0  0
  7  8  1  0  0  0  0
 13 14  1  0  0  0  0
 20 25  1  0  0  0  0
 22 26  1  0  0  0  0
 28 30  1  0  0  0  0
 32 33  2  0  0  0  0
 44 45  1  0  0  0  0
M  END
>  <MolRegNo>
2570646

>  <m>
=

>  <Value>
4100

>  <Unit>
nM

>  <Type>
IC50

>  <pValue>
5.39

>  <Ligand Efficiency>
0

>  <Binding Efficiency>
0

>  <Surface Efficiency>
0

>  <Assay Index>
1489145

>  <Assay Category>


>  <Assay Organism>
Homo sapiens

>  <Target ID>
17045

>  <Target Name>
Cytochrome P450 3A4

>  <Target Organism>
Homo sapiens

>  <Target Description>
Target is a single protein chain

>  <Sequence Accession>
P08684

>  <Reference>
J Med Chem 64 (19.0), 14895-14911 (2021)

>  <Pubmed ID>
34546748

>  <DOI>
10.1021/acs.jmedchem.1c01452

$$$$
2572179
Actelion Java MolfileCreator 1.0

 30 32  0  0  0  0  0  0  0  0999 V2000
    0.0000   -0.0000   -0.0000 O   0  0  0  0  0  0  0  0  0  0  0  0
   -0.0238    1.5083   -0.0000 C   0  0  0  0  0  0  0  0  0  0  0  0
    1.2589    2.2684   -0.0000 N   0  0  0  0  0  0  0  0  0  0  0  0
   -1.3420    2.2684   -0.0000 C   0  0  0  0  0  0  0  0  0  0  0  0
    2.5534    1.5320   -0.0000 O   0  0  0  0  0  0  0  0  0  0  0  0
   -2.6484    1.5202   -0.0000 O   0  0  0  0  0  0  0  0  0  0  0  0
   -1.3658    3.7767   -0.0000 C   0  0  0  0  0  0  0  0  0  0  0  0
   -3.9667    2.2802   -0.0000 C   0  0  0  0  0  0  0  0  0  0  0  0
   -1.5795    5.1662   -0.0000 C   0  0  0  0  0  0  0  0  0  0  0  0
   -0.0950    4.5486   -0.0000 C   0  0  0  0  0  0  0  0  0  0  0  0
   -3.9904    3.7885   -0.0000 C   0  0  0  0  0  0  0  0  0  0  0  0
   -5.2731    1.5320   -0.0000 C   0  0  0  0  0  0  0  0  0  0  0  0
   -2.7078    4.5605   -0.0000 O   0  0  0  0  0  0  0  0  0  0  0  0
   -5.3087    4.5367   -0.0000 C   0  0  0  0  0  0  0  0  0  0  0  0
   -6.5913    2.2921   -0.0000 C   0  0  0  0  0  0  0  0  0  0  0  0
   -2.7315    6.0688   -0.0000 C   0  0  0  0  0  0  0  0  0  0  0  0
   -6.6032    3.8004   -0.0000 C   0  0  0  0  0  0  0  0  0  0  0  0
   -7.8977    1.5439   -0.0000 N   0  0  0  0  0  0  0  0  0  0  0  0
   -7.8977    0.0594   -0.0000 C   0  0  0  0  0  0  0  0  0  0  0  0
   -9.2160    2.3040   -0.0000 C   0  0  0  0  0  0  0  0  0  0  0  0
   -6.6032   -0.6651   -0.0000 N   0  0  0  0  0  0  0  0  0  0  0  0
   -9.2041   -0.6769   -0.0000 C   0  0  0  0  0  0  0  0  0  0  0  0
   -6.6032   -2.1615   -0.0000 C   0  0  0  0  0  0  0  0  0  0  0  0
   -9.2160   -2.1734   -0.0000 C   0  0  0  0  0  0  0  0  0  0  0  0
  -10.5105    0.0831   -0.0000 C   0  0  0  0  0  0  0  0  0  0  0  0
   -7.9096   -2.8978   -0.0000 N   0  0  0  0  0  0  0  0  0  0  0  0
   -5.3087   -2.8978   -0.0000 C   0  0  0  0  0  0  0  0  0  0  0  0
  -10.5224   -2.9216   -0.0000 C   0  0  0  0  0  0  0  0  0  0  0  0
  -11.8169   -0.6532   -0.0000 C   0  0  0  0  0  0  0  0  0  0  0  0
  -11.8288   -2.1615   -0.0000 C   0  0  0  0  0  0  0  0  0  0  0  0
  1  2  2  0  0  0  0
  2  3  1  0  0  0  0
  2  4  1  0  0  0  0
  3  5  1  0  0  0  0
  4  6  1  0  0  0  0
  4  7  1  0  0  0  0
  6  8  1  0  0  0  0
  7  9  1  0  0  0  0
  7 10  1  0  0  0  0
  8 11  2  0  0  0  0
  8 12  1  0  0  0  0
 11 13  1  0  0  0  0
 11 14  1  0  0  0  0
 12 15  2  0  0  0  0
 13 16  1  0  0  0  0
 14 17  2  0  0  0  0
 15 18  1  0  0  0  0
 18 19  1  0  0  0  0
 18 20  1  0  0  0  0
 19 21  2  0  0  0  0
 19 22  1  0  0  0  0
 21 23  1  0  0  0  0
 22 24  1  0  0  0  0
 22 25  2  0  0  0  0
 23 26  2  0  0  0  0
 23 27  1  0  0  0  0
 24 28  2  0  0  0  0
 25 29  1  0  0  0  0
 28 30  1  0  0  0  0
 15 17  1  0  0  0  0
 24 26  1  0  0  0  0
 29 30  2  0  0  0  0
M  END
>  <MolRegNo>
2572179

>  <m>
=

>  <Value>
92790

>  <Unit>
nM

>  <Type>
IC50

>  <pValue>
4.03

>  <Ligand Efficiency>
0

>  <Binding Efficiency>
0

>  <Surface Efficiency>
0

>  <Assay Index>
1489600

>  <Assay Category>


>  <Assay Organism>
Homo sapiens

>  <Target ID>
17045

>  <Target Name>
Cytochrome P450 3A4

>  <Target Organism>
Homo sapiens

>  <Target Description>
Target is a single protein chain

>  <Sequence Accession>
P08684

>  <Reference>
J Med Chem 64 (20.0), 15379-15401 (2021)

>  <Pubmed ID>
34648295

>  <DOI>
10.1021/acs.jmedchem.1c01451

$$$$
2728116
Actelion Java MolfileCreator 1.0

161167  0  0  0  0  0  0  0  0999 V2000
    0.0000   -0.0000   -0.0000 Cl  0  0  0  0  0  0  0  0  0  0  0  0
    1.2889   -0.7399   -0.0000 C   0  0  0  0  0  0  0  0  0  0  0  0
    2.5777    0.0239   -0.0000 C   0  0  0  0  0  0  0  0  0  0  0  0
    1.2769   -2.2316   -0.0000 C   0  0  0  0  0  0  0  0  0  0  0  0
    3.8666   -0.7280   -0.0000 C   0  0  0  0  0  0  0  0  0  0  0  0
    2.5777   -2.9716   -0.0000 C   0  0  0  0  0  0  0  0  0  0  0  0
    3.8547   -2.2078   -0.0000 C   0  0  0  0  0  0  0  0  0  0  0  0
    5.1555    0.0358   -0.0000 C   0  0  0  0  0  0  0  0  0  0  0  0
    6.4443   -0.7041   -0.0000 N   0  0  0  0  0  0  0  0  0  0  0  0
    7.7332    0.0597   -0.0000 C   0  0  0  0  0  0  0  0  0  0  0  0
    6.4324   -2.1958   -0.0000 C   0  0  0  0  0  0  0  0  0  0  0  0
    7.7213    1.5753   -0.0000 O   0  0  0  0  0  0  0  0  0  0  0  0
    9.0221   -0.6802   -0.0000 C   0  0  0  0  0  0  0  0  0  0  0  0
    5.1197   -2.9357   -0.0000 C   0  0  0  0  0  0  0  0  0  0  0  0
   10.3109    0.0835   -0.0000 C   0  0  0  0  0  0  0  0  0  0  0  0
    5.1077   -4.4275   -0.0000 C   0  0  0  0  0  0  0  0  0  0  0  0
   11.5998   -0.6564   -0.0000 C   0  0  0  0  0  0  0  0  0  0  0  0
    3.7950   -5.1674   -0.0000 C   0  0  0  0  0  0  0  0  0  0  0  0
   12.8887    0.1074   -0.0000 C   0  0  0  0  0  0  0  0  0  0  0  0
    3.7831   -6.6591   -0.0000 C   0  0  0  0  0  0  0  0  0  0  0  0
   14.1775   -0.6325   -0.0000 C   0  0  0  0  0  0  0  0  0  0  0  0
    2.4703   -7.3990   -0.0000 N   0  0  0  0  0  0  0  0  0  0  0  0
    5.0719   -7.3990   -0.0000 C   0  0  0  0  0  0  0  0  0  0  0  0
   15.4664    0.1313   -0.0000 N   0  0  0  0  0  0  0  0  0  0  0  0
    1.1576   -6.6353   -0.0000 C   0  0  0  0  0  0  0  0  0  0  0  0
    6.3608   -6.6353   -0.0000 O   0  0  0  0  0  0  0  0  0  0  0  0
    5.0600   -8.8908   -0.0000 O   0  0  0  0  0  0  0  0  0  0  0  0
   16.7553   -0.6086   -0.0000 C   0  0  0  0  0  0  0  0  0  0  0  0
    1.1457   -5.1197   -0.0000 O   0  0  0  0  0  0  0  0  0  0  0  0
   -0.1551   -7.3752   -0.0000 N   0  0  0  0  0  0  0  0  0  0  0  0
   16.7433   -2.1004   -0.0000 O   0  0  0  0  0  0  0  0  0  0  0  0
   18.0441    0.1551   -0.0000 C   0  0  0  0  0  0  0  0  0  0  0  0
   -1.4679   -6.6114   -0.0000 C   0  0  0  0  0  0  0  0  0  0  0  0
   19.3330   -0.5848   -0.0000 C   0  0  0  0  0  0  0  0  0  0  0  0
   -2.7806   -7.3513   -0.0000 C   0  0  0  0  0  0  0  0  0  0  0  0
   -1.4798   -5.0958   -0.0000 C   0  0  0  0  0  0  0  0  0  0  0  0
   20.6219    0.1790   -0.0000 C   0  0  0  0  0  0  0  0  0  0  0  0
   -4.0933   -6.5875   -0.0000 O   0  0  0  0  0  0  0  0  0  0  0  0
   -2.7925   -8.8431   -0.0000 O   0  0  0  0  0  0  0  0  0  0  0  0
   -2.7925   -4.3320   -0.0000 C   0  0  0  0  0  0  0  0  0  0  0  0
   20.6099    1.6946   -0.0000 O   0  0  0  0  0  0  0  0  0  0  0  0
   21.9107   -0.5609   -0.0000 N   0  0  0  0  0  0  0  0  0  0  0  0
   -2.8045   -2.8164   -0.0000 C   0  0  0  0  0  0  0  0  0  0  0  0
   23.1996    0.2029   -0.0000 C   0  0  0  0  0  0  0  0  0  0  0  0
   -1.5156   -2.0526   -0.0000 O   0  0  0  0  0  0  0  0  0  0  0  0
   -4.1172   -2.0526   -0.0000 O   0  0  0  0  0  0  0  0  0  0  0  0
   24.4884   -0.5370   -0.0000 C   0  0  0  0  0  0  0  0  0  0  0  0
   23.1876    1.7185   -0.0000 C   0  0  0  0  0  0  0  0  0  0  0  0
   24.4765   -2.0288   -0.0000 O   0  0  0  0  0  0  0  0  0  0  0  0
   25.7773    0.2267   -0.0000 N   0  0  0  0  0  0  0  0  0  0  0  0
   24.4765    2.4823   -0.0000 C   0  0  0  0  0  0  0  0  0  0  0  0
   27.0662   -0.5132   -0.0000 C   0  0  0  0  0  0  0  0  0  0  0  0
   25.7654    1.7424   -0.0000 C   0  0  0  0  0  0  0  0  0  0  0  0
   24.4646    3.9979   -0.0000 C   0  0  0  0  0  0  0  0  0  0  0  0
   28.3550    0.2506   -0.0000 C   0  0  0  0  0  0  0  0  0  0  0  0
   27.0542   -2.0049   -0.0000 C   0  0  0  0  0  0  0  0  0  0  0  0
   27.0542    2.5061   -0.0000 C   0  0  0  0  0  0  0  0  0  0  0  0
   25.7534    4.7616   -0.0000 C   0  0  0  0  0  0  0  0  0  0  0  0
   28.3431    1.7662   -0.0000 O   0  0  0  0  0  0  0  0  0  0  0  0
   29.6439   -0.4893   -0.0000 N   0  0  0  0  0  0  0  0  0  0  0  0
   28.3431   -2.7448   -0.0000 C   0  0  0  0  0  0  0  0  0  0  0  0
   27.0423    4.0217   -0.0000 C   0  0  0  0  0  0  0  0  0  0  0  0
   30.9328    0.2745   -0.0000 C   0  0  0  0  0  0  0  0  0  0  0  0
   28.3192   -4.2365   -0.0000 C   0  0  0  0  0  0  0  0  0  0  0  0
   29.6200   -1.9810   -0.0000 C   0  0  0  0  0  0  0  0  0  0  0  0
   32.2216   -0.4654   -0.0000 C   0  0  0  0  0  0  0  0  0  0  0  0
   29.6081   -4.9765   -0.0000 C   0  0  0  0  0  0  0  0  0  0  0  0
   30.9089   -2.7209   -0.0000 C   0  0  0  0  0  0  0  0  0  0  0  0
   33.5105    0.2983   -0.0000 C   0  0  0  0  0  0  0  0  0  0  0  0
   30.8970   -4.2127   -0.0000 C   0  0  0  0  0  0  0  0  0  0  0  0
   34.7994   -0.4416   -0.0000 N   0  0  0  0  0  0  0  0  0  0  0  0
   32.1858   -4.9526   -0.0000 O   0  0  0  0  0  0  0  0  0  0  0  0
   34.9426   -1.9214   -0.0000 N   0  0  0  0  0  0  0  0  0  0  0  0
   36.1598    0.1909   -0.0000 C   0  0  0  0  0  0  0  0  0  0  0  0
   36.3985   -2.2197   -0.0000 N   0  0  0  0  0  0  0  0  0  0  0  0
   37.1504   -0.9189   -0.0000 C   0  0  0  0  0  0  0  0  0  0  0  0
   38.6421   -0.7518   -0.0000 C   0  0  0  0  0  0  0  0  0  0  0  0
   39.5133   -1.9572   -0.0000 C   0  0  0  0  0  0  0  0  0  0  0  0
   41.0050   -1.7901   -0.0000 C   0  0  0  0  0  0  0  0  0  0  0  0
   41.8762   -2.9954   -0.0000 C   0  0  0  0  0  0  0  0  0  0  0  0
   41.2556   -4.3559   -0.0000 O   0  0  0  0  0  0  0  0  0  0  0  0
   43.3679   -2.8283   -0.0000 N   0  0  0  0  0  0  0  0  0  0  0  0
   43.9646   -1.4440   -0.0000 C   0  0  0  0  0  0  0  0  0  0  0  0
   45.4564   -1.2769   -0.0000 C   0  0  0  0  0  0  0  0  0  0  0  0
   43.0696   -0.2148   -0.0000 C   0  0  0  0  0  0  0  0  0  0  0  0
   46.3276   -2.4823   -0.0000 O   0  0  0  0  0  0  0  0  0  0  0  0
   46.0531    0.1074   -0.0000 N   0  0  0  0  0  0  0  0  0  0  0  0
   43.6663    1.1695   -0.0000 C   0  0  0  0  0  0  0  0  0  0  0  0
   41.5540   -0.3580   -0.0000 C   0  0  0  0  0  0  0  0  0  0  0  0
   47.5448    0.2745   -0.0000 C   0  0  0  0  0  0  0  0  0  0  0  0
   48.1415    1.6588   -0.0000 C   0  0  0  0  0  0  0  0  0  0  0  0
   48.4160   -0.9308   -0.0000 C   0  0  0  0  0  0  0  0  0  0  0  0
   47.2465    2.8880   -0.0000 O   0  0  0  0  0  0  0  0  0  0  0  0
   49.6333    1.8259   -0.0000 N   0  0  0  0  0  0  0  0  0  0  0  0
   47.7954   -2.2913   -0.0000 C   0  0  0  0  0  0  0  0  0  0  0  0
   50.2300    3.2102   -0.0000 C   0  0  0  0  0  0  0  0  0  0  0  0
   48.6666   -3.4966   -0.0000 C   0  0  0  0  0  0  0  0  0  0  0  0
   51.7098    3.3773   -0.0000 C   0  0  0  0  0  0  0  0  0  0  0  0
   49.3349    4.4275   -0.0000 C   0  0  0  0  0  0  0  0  0  0  0  0
   48.0461   -4.8571   -0.0000 N   0  0  0  0  0  0  0  0  0  0  0  0
   52.3065    4.7616   -0.0000 C   0  0  0  0  0  0  0  0  0  0  0  0
   49.9316    5.8118   -0.0000 C   0  0  0  0  0  0  0  0  0  0  0  0
   48.9172   -6.0624   -0.0000 C   0  0  0  0  0  0  0  0  0  0  0  0
   51.4114    5.9908   -0.0000 C   0  0  0  0  0  0  0  0  0  0  0  0
   50.4090   -5.8954   -0.0000 O   0  0  0  0  0  0  0  0  0  0  0  0
   48.2967   -7.4229   -0.0000 N   0  0  0  0  0  0  0  0  0  0  0  0
   52.0081    7.3752   -0.0000 C   0  0  0  0  0  0  0  0  0  0  0  0
   53.4999    7.5423   -0.0000 O   0  0  0  0  0  0  0  0  0  0  0  0
   54.0966    8.9266   -0.0000 C   0  0  0  0  0  0  0  0  0  0  0  0
   53.2015   10.1558   -0.0000 O   0  0  0  0  0  0  0  0  0  0  0  0
   55.5883    9.0937   -0.0000 N   0  0  0  0  0  0  0  0  0  0  0  0
   56.1850   10.4780   -0.0000 C   0  0  0  0  0  0  0  0  0  0  0  0
   56.4595    7.8883   -0.0000 C   0  0  0  0  0  0  0  0  0  0  0  0
   57.6767   10.6451   -0.0000 C   0  0  0  0  0  0  0  0  0  0  0  0
   55.2900   11.7072   -0.0000 C   0  0  0  0  0  0  0  0  0  0  0  0
   58.2734   12.0294   -0.0000 O   0  0  0  0  0  0  0  0  0  0  0  0
   58.5479    9.4397   -0.0000 N   0  0  0  0  0  0  0  0  0  0  0  0
   55.8866   13.0915   -0.0000 C   0  0  0  0  0  0  0  0  0  0  0  0
   53.7743   11.5640   -0.0000 C   0  0  0  0  0  0  0  0  0  0  0  0
   60.0397    9.6068   -0.0000 C   0  0  0  0  0  0  0  0  0  0  0  0
   60.9108    8.4015   -0.0000 C   0  0  0  0  0  0  0  0  0  0  0  0
   60.6364   10.9912   -0.0000 C   0  0  0  0  0  0  0  0  0  0  0  0
   60.2903    7.0410   -0.0000 O   0  0  0  0  0  0  0  0  0  0  0  0
   62.4026    8.5686   -0.0000 N   0  0  0  0  0  0  0  0  0  0  0  0
   62.1281   11.1582   -0.0000 C   0  0  0  0  0  0  0  0  0  0  0  0
   59.7413   12.2204   -0.0000 C   0  0  0  0  0  0  0  0  0  0  0  0
   63.2738    7.3632   -0.0000 C   0  0  0  0  0  0  0  0  0  0  0  0
   62.9993    9.9529   -0.0000 C   0  0  0  0  0  0  0  0  0  0  0  0
   64.7655    7.5303   -0.0000 C   0  0  0  0  0  0  0  0  0  0  0  0
   62.6532    6.0028   -0.0000 C   0  0  0  0  0  0  0  0  0  0  0  0
   65.6367    6.3250   -0.0000 O   0  0  0  0  0  0  0  0  0  0  0  0
   65.3622    8.9147   -0.0000 C   0  0  0  0  0  0  0  0  0  0  0  0
   61.1376    5.8596   -0.0000 C   0  0  0  0  0  0  0  0  0  0  0  0
   63.5244    4.7974   -0.0000 C   0  0  0  0  0  0  0  0  0  0  0  0
   65.0161    4.9645   -0.0000 C   0  0  0  0  0  0  0  0  0  0  0  0
   66.8539    9.0817   -0.0000 C   0  0  0  0  0  0  0  0  0  0  0  0
   60.5170    4.4991   -0.0000 C   0  0  0  0  0  0  0  0  0  0  0  0
   67.4506   10.4661   -0.0000 O   0  0  0  0  0  0  0  0  0  0  0  0
   67.7251    7.8764   -0.0000 N   0  0  0  0  0  0  0  0  0  0  0  0
   69.2288    7.9003   -0.0000 C   0  0  0  0  0  0  0  0  0  0  0  0
   67.2597    6.4563   -0.0000 C   0  0  0  0  0  0  0  0  0  0  0  0
   70.1000    9.1295   -0.0000 C   0  0  0  0  0  0  0  0  0  0  0  0
   69.6823    6.4801   -0.0000 C   0  0  0  0  0  0  0  0  0  0  0  0
   68.4650    5.5851   -0.0000 C   0  0  0  0  0  0  0  0  0  0  0  0
   69.4675   10.5138   -0.0000 O   0  0  0  0  0  0  0  0  0  0  0  0
   71.5917    8.9863   -0.0000 C   0  0  0  0  0  0  0  0  0  0  0  0
   70.3387   11.7430   -0.0000 C   0  0  0  0  0  0  0  0  0  0  0  0
   72.4629   10.2155   -0.0000 C   0  0  0  0  0  0  0  0  0  0  0  0
   72.2003    7.6258   -0.0000 C   0  0  0  0  0  0  0  0  0  0  0  0
   71.8304   11.5998   -0.0000 O   0  0  0  0  0  0  0  0  0  0  0  0
   73.9546   10.0722   -0.0000 N   0  0  0  0  0  0  0  0  0  0  0  0
   74.8258   11.3014   -0.0000 C   0  0  0  0  0  0  0  0  0  0  0  0
   76.3176   11.1582   -0.0000 C   0  0  0  0  0  0  0  0  0  0  0  0
   74.1933   12.6858   -0.0000 C   0  0  0  0  0  0  0  0  0  0  0  0
   76.9262    9.7978   -0.0000 O   0  0  0  0  0  0  0  0  0  0  0  0
   77.1887   12.3874   -0.0000 C   0  0  0  0  0  0  0  0  0  0  0  0
   78.6805   12.2323   -0.0000 C   0  0  0  0  0  0  0  0  0  0  0  0
   76.5562   13.7598   -0.0000 C   0  0  0  0  0  0  0  0  0  0  0  0
   79.5517   13.4615   -0.0000 C   0  0  0  0  0  0  0  0  0  0  0  0
   77.4155   14.9890   -0.0000 C   0  0  0  0  0  0  0  0  0  0  0  0
   78.9192   14.8458   -0.0000 C   0  0  0  0  0  0  0  0  0  0  0  0
  1  2  1  0  0  0  0
  2  3  2  0  0  0  0
  2  4  1  0  0  0  0
  3  5  1  0  0  0  0
  4  6  2  0  0  0  0
  5  7  2  0  0  0  0
  5  8  1  0  0  0  0
  8  9  1  0  0  0  0
  9 10  1  0  0  0  0
  9 11  1  0  0  0  0
 10 12  2  0  0  0  0
 10 13  1  0  0  0  0
 11 14  1  0  0  0  0
 13 15  1  0  0  0  0
 14 16  1  0  0  0  0
 15 17  1  0  0  0  0
 16 18  1  0  0  0  0
 17 19  1  0  0  0  0
 18 20  1  0  0  0  0
 19 21  1  0  0  0  0
 20 22  1  1  0  0  0
 20 23  1  0  0  0  0
 21 24  1  0  0  0  0
 22 25  1  0  0  0  0
 23 26  2  0  0  0  0
 23 27  1  0  0  0  0
 24 28  1  0  0  0  0
 25 29  2  0  0  0  0
 25 30  1  0  0  0  0
 28 31  2  0  0  0  0
 28 32  1  0  0  0  0
 33 30  1  6  0  0  0
 32 34  1  0  0  0  0
 33 35  1  0  0  0  0
 33 36  1  0  0  0  0
 34 37  1  0  0  0  0
 35 38  2  0  0  0  0
 35 39  1  0  0  0  0
 36 40  1  0  0  0  0
 37 41  2  0  0  0  0
 37 42  1  0  0  0  0
 40 43  1  0  0  0  0
 44 42  1  1  0  0  0
 43 45  2  0  0  0  0
 43 46  1  0  0  0  0
 44 47  1  0  0  0  0
 44 48  1  0  0  0  0
 47 49  2  0  0  0  0
 47 50  1  0  0  0  0
 48 51  1  0  0  0  0
 52 50  1  6  0  0  0
 51 53  2  0  0  0  0
 51 54  1  0  0  0  0
 52 55  1  0  0  0  0
 52 56  1  0  0  0  0
 53 57  1  0  0  0  0
 54 58  2  0  0  0  0
 55 59  2  0  0  0  0
 55 60  1  0  0  0  0
 56 61  1  0  0  0  0
 57 62  2  0  0  0  0
 60 63  1  0  0  0  0
 61 64  2  0  0  0  0
 61 65  1  0  0  0  0
 63 66  1  0  0  0  0
 64 67  1  0  0  0  0
 65 68  2  0  0  0  0
 66 69  1  0  0  0  0
 67 70  2  0  0  0  0
 69 71  1  0  0  0  0
 70 72  1  0  0  0  0
 71 73  1  0  0  0  0
 71 74  1  0  0  0  0
 73 75  2  0  0  0  0
 74 76  2  0  0  0  0
 76 77  1  0  0  0  0
 77 78  1  0  0  0  0
 78 79  1  0  0  0  0
 79 80  1  0  0  0  0
 80 81  2  0  0  0  0
 80 82  1  0  0  0  0
 83 82  1  1  0  0  0
 83 84  1  0  0  0  0
 83 85  1  0  0  0  0
 84 86  2  0  0  0  0
 84 87  1  0  0  0  0
 85 88  1  0  0  0  0
 85 89  1  0  0  0  0
 90 87  1  6  0  0  0
 90 91  1  0  0  0  0
 90 92  1  0  0  0  0
 91 93  2  0  0  0  0
 91 94  1  0  0  0  0
 92 95  1  0  0  0  0
 94 96  1  0  0  0  0
 95 97  1  0  0  0  0
 96 98  2  0  0  0  0
 96 99  1  0  0  0  0
 97100  1  0  0  0  0
 98101  1  0  0  0  0
 99102  2  0  0  0  0
100103  1  0  0  0  0
101104  2  0  0  0  0
103105  2  0  0  0  0
103106  1  0  0  0  0
104107  1  0  0  0  0
107108  1  0  0  0  0
108109  1  0  0  0  0
109110  2  0  0  0  0
109111  1  0  0  0  0
112111  1  1  0  0  0
111113  1  0  0  0  0
112114  1  0  0  0  0
112115  1  0  0  0  0
114116  2  0  0  0  0
114117  1  0  0  0  0
115118  1  0  0  0  0
115119  1  0  0  0  0
120117  1  1  0  0  0
120121  1  0  0  0  0
120122  1  0  0  0  0
121123  2  0  0  0  0
121124  1  0  0  0  0
122125  1  0  0  0  0
122126  1  0  0  0  0
127124  1  6  0  0  0
124128  1  0  0  0  0
127129  1  0  0  0  0
127130  1  0  0  0  0
129131  1  1  0  0  0
129132  1  0  0  0  0
130133  1  0  0  0  0
130134  1  1  0  0  0
131135  1  0  0  0  0
132136  1  0  0  0  0
133137  1  0  0  0  0
136138  2  0  0  0  0
136139  1  0  0  0  0
140139  1  6  0  0  0
139141  1  0  0  0  0
140142  1  0  0  0  0
140143  1  0  0  0  0
141144  1  0  0  0  0
142145  1  6  0  0  0
142146  1  0  0  0  0
145147  1  0  0  0  0
146148  1  0  0  0  0
146149  1  6  0  0  0
148150  2  0  0  0  0
148151  1  0  0  0  0
152151  1  6  0  0  0
152153  1  0  0  0  0
152154  1  0  0  0  0
153155  1  6  0  0  0
153156  1  0  0  0  0
156157  2  0  0  0  0
156158  1  0  0  0  0
157159  1  0  0  0  0
158160  2  0  0  0  0
159161  2  0  0  0  0
  6  7  1  0  0  0  0
 58 62  1  0  0  0  0
 68 70  1  0  0  0  0
 75 76  1  0  0  0  0
102104  1  0  0  0  0
143144  1  0  0  0  0
160161  1  0  0  0  0
M  END
>  <MolRegNo>
2728116

>  <m>
=

>  <Value>
11200

>  <Unit>
nM

>  <Type>
IC50

>  <pValue>
4.95

>  <Ligand Efficiency>
0

>  <Binding Efficiency>
0

>  <Surface Efficiency>
0

>  <Assay Index>
1505461

>  <Assay Category>


>  <Assay Organism>
Homo sapiens

>  <Target ID>
17045

>  <Target Name>
Cytochrome P450 3A4

>  <Target Organism>
Homo sapiens

>  <Target Description>
Target is a single protein chain

>  <Sequence Accession>
P08684

>  <Reference>
J Med Chem 64 (23.0), 17123-17145 (2021)

>  <Pubmed ID>
34797052

>  <DOI>
10.1021/acs.jmedchem.1c01157

$$$$
2729478
Actelion Java MolfileCreator 1.0

 22 24  0  0  0  0  0  0  0  0999 V2000
    0.0000   -0.0000   -0.0000 Cl  0  0  0  0  0  0  0  0  0  0  0  0
    1.2882    0.7564   -0.0000 C   0  0  0  0  0  0  0  0  0  0  0  0
    1.2764    2.2692   -0.0000 C   0  0  0  0  0  0  0  0  0  0  0  0
    2.5765    0.0236   -0.0000 C   0  0  0  0  0  0  0  0  0  0  0  0
    2.5528    3.0256   -0.0000 C   0  0  0  0  0  0  0  0  0  0  0  0
    3.8647    0.7800   -0.0000 C   0  0  0  0  0  0  0  0  0  0  0  0
    2.5292    4.5383   -0.0000 N   0  0  0  0  0  0  0  0  0  0  0  0
    3.8410    2.2928   -0.0000 C   0  0  0  0  0  0  0  0  0  0  0  0
    3.8174    5.3065   -0.0000 C   0  0  0  0  0  0  0  0  0  0  0  0
    1.2173    5.2947   -0.0000 C   0  0  0  0  0  0  0  0  0  0  0  0
    5.1174    3.0610   -0.0000 C   0  0  0  0  0  0  0  0  0  0  0  0
    3.8056    6.8193   -0.0000 O   0  0  0  0  0  0  0  0  0  0  0  0
    5.1056    4.5738   -0.0000 N   0  0  0  0  0  0  0  0  0  0  0  0
    1.2055    6.8075   -0.0000 C   0  0  0  0  0  0  0  0  0  0  0  0
   -0.0827    4.5502   -0.0000 C   0  0  0  0  0  0  0  0  0  0  0  0
    6.4057    2.3283   -0.0000 N   0  0  0  0  0  0  0  0  0  0  0  0
   -0.1064    7.5639   -0.0000 N   0  0  0  0  0  0  0  0  0  0  0  0
   -1.3946    5.2947   -0.0000 C   0  0  0  0  0  0  0  0  0  0  0  0
    7.6939    3.0847   -0.0000 C   0  0  0  0  0  0  0  0  0  0  0  0
    6.3939    0.8391   -0.0000 C   0  0  0  0  0  0  0  0  0  0  0  0
   -1.4182    6.8193   -0.0000 C   0  0  0  0  0  0  0  0  0  0  0  0
    8.9821    2.3519   -0.0000 C   0  0  0  0  0  0  0  0  0  0  0  0
  1  2  1  0  0  0  0
  2  3  2  0  0  0  0
  2  4  1  0  0  0  0
  3  5  1  0  0  0  0
  4  6  2  0  0  0  0
  5  7  1  0  0  0  0
  5  8  2  0  0  0  0
  7  9  1  0  0  0  0
  7 10  1  0  0  0  0
  8 11  1  0  0  0  0
  9 12  2  0  0  0  0
  9 13  1  0  0  0  0
 10 14  2  0  0  0  0
 10 15  1  0  0  0  0
 11 16  1  0  0  0  0
 14 17  1  0  0  0  0
 15 18  2  0  0  0  0
 16 19  1  0  0  0  0
 16 20  1  0  0  0  0
 17 21  2  0  0  0  0
 19 22  1  0  0  0  0
  6  8  1  0  0  0  0
 11 13  2  0  0  0  0
 18 21  1  0  0  0  0
M  END
>  <MolRegNo>
2729478

>  <m>
=

>  <Value>
24000

>  <Unit>
nM

>  <Type>
IC50

>  <pValue>
4.62

>  <Ligand Efficiency>
0

>  <Binding Efficiency>
0

>  <Surface Efficiency>
0

>  <Assay Index>
1505944

>  <Assay Category>


>  <Assay Organism>
Homo sapiens

>  <Target ID>
17045

>  <Target Name>
Cytochrome P450 3A4

>  <Target Organism>
Homo sapiens

>  <Target Description>
Target is a single protein chain

>  <Sequence Accession>
P08684

>  <Reference>
J Med Chem 64 (10.0), 6814-6826 (2021)

>  <Pubmed ID>
33900758

>  <DOI>
10.1021/acs.jmedchem.1c00067

$$$$
2202129
Actelion Java MolfileCreator 1.0

 38 43  0  0  0  0  0  0  0  0999 V2000
    0.0000   -0.0000   -0.0000 O   0  0  0  0  0  0  0  0  0  0  0  0
   -0.0119   -1.4843   -0.0000 C   0  0  0  0  0  0  0  0  0  0  0  0
   -1.3180   -2.2324   -0.0000 N   0  0  0  0  0  0  0  0  0  0  0  0
    1.2824   -2.2205   -0.0000 C   0  0  0  0  0  0  0  0  0  0  0  0
   -2.6361   -1.4724   -0.0000 C   0  0  0  0  0  0  0  0  0  0  0  0
    1.2705   -3.7166   -0.0000 C   0  0  0  0  0  0  0  0  0  0  0  0
    2.5767   -1.4605   -0.0000 C   0  0  0  0  0  0  0  0  0  0  0  0
    2.5530   -4.4410   -0.0000 C   0  0  0  0  0  0  0  0  0  0  0  0
    3.8591   -2.2086   -0.0000 C   0  0  0  0  0  0  0  0  0  0  0  0
    2.5411   -5.9252   -0.0000 O   0  0  0  0  0  0  0  0  0  0  0  0
    3.8235   -3.6810   -0.0000 C   0  0  0  0  0  0  0  0  0  0  0  0
    1.2349   -6.6733   -0.0000 C   0  0  0  0  0  0  0  0  0  0  0  0
    5.1059   -4.4172   -0.0000 N   0  0  0  0  0  0  0  0  0  0  0  0
    6.4002   -3.6573   -0.0000 C   0  0  0  0  0  0  0  0  0  0  0  0
    6.3883   -2.1374   -0.0000 N   0  0  0  0  0  0  0  0  0  0  0  0
    7.6945   -4.3935   -0.0000 N   0  0  0  0  0  0  0  0  0  0  0  0
    7.6707   -1.3655   -0.0000 C   0  0  0  0  0  0  0  0  0  0  0  0
    8.9888   -3.6216   -0.0000 C   0  0  0  0  0  0  0  0  0  0  0  0
    7.6589    0.1425   -0.0000 O   0  0  0  0  0  0  0  0  0  0  0  0
    8.9650   -2.1017   -0.0000 C   0  0  0  0  0  0  0  0  0  0  0  0
   10.4137   -4.0610   -0.0000 N   0  0  0  0  0  0  0  0  0  0  0  0
    6.3408    0.9024   -0.0000 C   0  0  0  0  0  0  0  0  0  0  0  0
   10.3781   -1.6149   -0.0000 C   0  0  0  0  0  0  0  0  0  0  0  0
   11.2686   -2.8261   -0.0000 C   0  0  0  0  0  0  0  0  0  0  0  0
    6.1746    2.4105   -0.0000 C   0  0  0  0  0  0  0  0  0  0  0  0
    4.9634    0.2969   -0.0000 C   0  0  0  0  0  0  0  0  0  0  0  0
   10.8174   -0.1781   -0.0000 C   0  0  0  0  0  0  0  0  0  0  0  0
    4.6903    2.7311   -0.0000 C   0  0  0  0  0  0  0  0  0  0  0  0
    3.9541    1.4249   -0.0000 C   0  0  0  0  0  0  0  0  0  0  0  0
   12.2779    0.1544   -0.0000 C   0  0  0  0  0  0  0  0  0  0  0  0
    9.7962    0.9262   -0.0000 C   0  0  0  0  0  0  0  0  0  0  0  0
   12.7173    1.6030   -0.0000 C   0  0  0  0  0  0  0  0  0  0  0  0
   10.2356    2.3630   -0.0000 C   0  0  0  0  0  0  0  0  0  0  0  0
   14.0709    2.2324   -0.0000 O   0  0  0  0  0  0  0  0  0  0  0  0
   11.6961    2.7192   -0.0000 C   0  0  0  0  0  0  0  0  0  0  0  0
   13.8928    3.7285   -0.0000 C   0  0  0  0  0  0  0  0  0  0  0  0
   12.4204    4.0254   -0.0000 N   0  0  0  0  0  0  0  0  0  0  0  0
   14.9853    4.7497   -0.0000 C   0  0  0  0  0  0  0  0  0  0  0  0
  1  2  2  0  0  0  0
  2  3  1  0  0  0  0
  2  4  1  0  0  0  0
  3  5  1  0  0  0  0
  4  6  2  0  0  0  0
  4  7  1  0  0  0  0
  6  8  1  0  0  0  0
  7  9  2  0  0  0  0
  8 10  1  0  0  0  0
  8 11  2  0  0  0  0
 10 12  1  0  0  0  0
 11 13  1  0  0  0  0
 13 14  1  0  0  0  0
 14 15  2  0  0  0  0
 14 16  1  0  0  0  0
 15 17  1  0  0  0  0
 16 18  2  0  0  0  0
 17 19  1  0  0  0  0
 17 20  2  0  0  0  0
 18 21  1  0  0  0  0
 19 22  1  0  0  0  0
 20 23  1  0  0  0  0
 21 24  1  0  0  0  0
 22 25  1  0  0  0  0
 22 26  1  0  0  0  0
 23 27  1  0  0  0  0
 25 28  1  0  0  0  0
 26 29  1  0  0  0  0
 27 30  2  0  0  0  0
 27 31  1  0  0  0  0
 30 32  1  0  0  0  0
 31 33  2  0  0  0  0
 32 34  1  0  0  0  0
 32 35  2  0  0  0  0
 34 36  1  0  0  0  0
 35 37  1  0  0  0  0
 36 38  1  0  0  0  0
  9 11  1  0  0  0  0
 18 20  1  0  0  0  0
 23 24  2  0  0  0  0
 28 29  1  0  0  0  0
 33 35  1  0  0  0  0
 36 37  2  0  0  0  0
M  END
>  <MolRegNo>
2202129

>  <m>
=

>  <Value>
280

>  <Unit>
nM

>  <Type>
IC50

>  <pValue>
6.55

>  <Ligand Efficiency>
0

>  <Binding Efficiency>
0

>  <Surface Efficiency>
0

>  <Assay Index>
1506866

>  <Assay Category>


>  <Assay Organism>
Homo sapiens

>  <Target ID>
17045

>  <Target Name>
Cytochrome P450 3A4

>  <Target Organism>
Homo sapiens

>  <Target Description>
Target is a single protein chain

>  <Sequence Accession>
P08684

>  <Reference>
J Med Chem 64 (17.0), 12670-12679 (2021)

>  <Pubmed ID>
34459599

>  <DOI>
10.1021/acs.jmedchem.1c00635

$$$$
2725721
Actelion Java MolfileCreator 1.0

 49 55  0  0  0  0  0  0  0  0999 V2000
    0.0000   -0.0000   -0.0000 O   0  0  0  0  0  0  0  0  0  0  0  0
    0.6053   -1.3530   -0.0000 C   0  0  0  0  0  0  0  0  0  0  0  0
    2.0889   -1.4954   -0.0000 N   0  0  0  0  0  0  0  0  0  0  0  0
   -0.2848   -2.5636   -0.0000 C   0  0  0  0  0  0  0  0  0  0  0  0
    2.9553   -0.2730   -0.0000 C   0  0  0  0  0  0  0  0  0  0  0  0
    0.1662   -3.9760   -0.0000 C   0  0  0  0  0  0  0  0  0  0  0  0
   -1.7921   -2.5517   -0.0000 C   0  0  0  0  0  0  0  0  0  0  0  0
    4.4270   -0.4154   -0.0000 C   0  0  0  0  0  0  0  0  0  0  0  0
    2.3262    1.0919   -0.0000 C   0  0  0  0  0  0  0  0  0  0  0  0
   -1.0444   -4.8542   -0.0000 N   0  0  0  0  0  0  0  0  0  0  0  0
   -2.2669   -3.9641   -0.0000 C   0  0  0  0  0  0  0  0  0  0  0  0
    5.2934    0.8071   -0.0000 C   0  0  0  0  0  0  0  0  0  0  0  0
    5.0204   -1.7684   -0.0000 C   0  0  0  0  0  0  0  0  0  0  0  0
    3.1808    2.3144   -0.0000 C   0  0  0  0  0  0  0  0  0  0  0  0
    0.8189    1.2462   -0.0000 C   0  0  0  0  0  0  0  0  0  0  0  0
   -1.0563   -6.3378   -0.0000 C   0  0  0  0  0  0  0  0  0  0  0  0
    4.6643    2.1838   -0.0000 C   0  0  0  0  0  0  0  0  0  0  0  0
    4.1302   -2.9671   -0.0000 C   0  0  0  0  0  0  0  0  0  0  0  0
    0.1899    2.6229   -0.0000 C   0  0  0  0  0  0  0  0  0  0  0  0
   -2.3618   -7.0736   -0.0000 N   0  0  0  0  0  0  0  0  0  0  0  0
    0.2374   -7.0736   -0.0000 C   0  0  0  0  0  0  0  0  0  0  0  0
   -2.3737   -8.5691   -0.0000 C   0  0  0  0  0  0  0  0  0  0  0  0
    0.2374   -8.5691   -0.0000 C   0  0  0  0  0  0  0  0  0  0  0  0
    1.6497   -6.5870   -0.0000 C   0  0  0  0  0  0  0  0  0  0  0  0
   -1.0919   -9.3049   -0.0000 N   0  0  0  0  0  0  0  0  0  0  0  0
   -3.6792   -9.3049   -0.0000 N   0  0  0  0  0  0  0  0  0  0  0  0
    1.6616   -9.0082   -0.0000 N   0  0  0  0  0  0  0  0  0  0  0  0
    2.5280   -7.7858   -0.0000 C   0  0  0  0  0  0  0  0  0  0  0  0
   -4.9848   -8.5453   -0.0000 C   0  0  0  0  0  0  0  0  0  0  0  0
   -6.2785   -9.2812   -0.0000 C   0  0  0  0  0  0  0  0  0  0  0  0
   -4.9848   -7.0380   -0.0000 C   0  0  0  0  0  0  0  0  0  0  0  0
   -6.2903  -10.7648   -0.0000 O   0  0  0  0  0  0  0  0  0  0  0  0
   -7.5840   -8.5216   -0.0000 C   0  0  0  0  0  0  0  0  0  0  0  0
   -6.2903   -6.2785   -0.0000 C   0  0  0  0  0  0  0  0  0  0  0  0
   -7.5959  -11.5125   -0.0000 C   0  0  0  0  0  0  0  0  0  0  0  0
   -7.5959   -7.0024   -0.0000 C   0  0  0  0  0  0  0  0  0  0  0  0
   -8.9133   -6.2428   -0.0000 N   0  0  0  0  0  0  0  0  0  0  0  0
   -8.9251   -4.7355   -0.0000 C   0  0  0  0  0  0  0  0  0  0  0  0
  -10.2188   -6.9787   -0.0000 C   0  0  0  0  0  0  0  0  0  0  0  0
  -10.2307   -3.9760   -0.0000 C   0  0  0  0  0  0  0  0  0  0  0  0
  -11.5362   -6.2072   -0.0000 C   0  0  0  0  0  0  0  0  0  0  0  0
  -11.5481   -4.7118   -0.0000 C   0  0  0  0  0  0  0  0  0  0  0  0
  -12.8536   -3.9522   -0.0000 N   0  0  0  0  0  0  0  0  0  0  0  0
  -12.8655   -2.4568   -0.0000 C   0  0  0  0  0  0  0  0  0  0  0  0
  -14.1592   -4.6999   -0.0000 C   0  0  0  0  0  0  0  0  0  0  0  0
  -14.1592   -1.6972   -0.0000 C   0  0  0  0  0  0  0  0  0  0  0  0
  -15.4647   -3.9285   -0.0000 C   0  0  0  0  0  0  0  0  0  0  0  0
  -15.4647   -2.4212   -0.0000 N   0  0  0  0  0  0  0  0  0  0  0  0
  -16.7702   -1.6497   -0.0000 C   0  0  0  0  0  0  0  0  0  0  0  0
  1  2  2  0  0  0  0
  2  3  1  0  0  0  0
  2  4  1  0  0  0  0
  3  5  1  0  0  0  0
  4  6  2  0  0  0  0
  4  7  1  0  0  0  0
  5  8  2  0  0  0  0
  5  9  1  0  0  0  0
  6 10  1  0  0  0  0
  7 11  2  0  0  0  0
  8 12  1  0  0  0  0
  8 13  1  0  0  0  0
  9 14  2  0  0  0  0
  9 15  1  0  0  0  0
 10 16  1  0  0  0  0
 12 17  2  0  0  0  0
 13 18  1  0  0  0  0
 15 19  1  0  0  0  0
 16 20  2  0  0  0  0
 16 21  1  0  0  0  0
 20 22  1  0  0  0  0
 21 23  2  0  0  0  0
 21 24  1  0  0  0  0
 22 25  2  0  0  0  0
 22 26  1  0  0  0  0
 23 27  1  0  0  0  0
 24 28  2  0  0  0  0
 26 29  1  0  0  0  0
 29 30  2  0  0  0  0
 29 31  1  0  0  0  0
 30 32  1  0  0  0  0
 30 33  1  0  0  0  0
 31 34  2  0  0  0  0
 32 35  1  0  0  0  0
 33 36  2  0  0  0  0
 36 37  1  0  0  0  0
 37 38  1  0  0  0  0
 37 39  1  0  0  0  0
 38 40  1  0  0  0  0
 39 41  1  0  0  0  0
 40 42  1  0  0  0  0
 42 43  1  0  0  0  0
 43 44  1  0  0  0  0
 43 45  1  0  0  0  0
 44 46  1  0  0  0  0
 45 47  1  0  0  0  0
 46 48  1  0  0  0  0
 48 49  1  0  0  0  0
 10 11  1  0  0  0  0
 14 17  1  0  0  0  0
 23 25  1  0  0  0  0
 27 28  1  0  0  0  0
 34 36  1  0  0  0  0
 41 42  1  0  0  0  0
 47 48  1  0  0  0  0
M  END
>  <MolRegNo>
2725721

>  <m>
=

>  <Value>
2000

>  <Unit>
nM

>  <Type>
IC50

>  <pValue>
5.7

>  <Ligand Efficiency>
0

>  <Binding Efficiency>
0

>  <Surface Efficiency>
0

>  <Assay Index>
1506866

>  <Assay Category>


>  <Assay Organism>
Homo sapiens

>  <Target ID>
17045

>  <Target Name>
Cytochrome P450 3A4

>  <Target Organism>
Homo sapiens

>  <Target Description>
Target is a single protein chain

>  <Sequence Accession>
P08684

>  <Reference>
J Med Chem 64 (17.0), 12670-12679 (2021)

>  <Pubmed ID>
34459599

>  <DOI>
10.1021/acs.jmedchem.1c00635

$$$$
2719764
Actelion Java MolfileCreator 1.0

 52 58  0  0  0  0  0  0  0  0999 V2000
    0.0000   -0.0000   -0.0000 O   0  0  0  0  0  0  0  0  0  0  0  0
    0.6051   -1.3527   -0.0000 C   0  0  0  0  0  0  0  0  0  0  0  0
    2.0883   -1.4951   -0.0000 N   0  0  0  0  0  0  0  0  0  0  0  0
   -0.2848   -2.5630   -0.0000 C   0  0  0  0  0  0  0  0  0  0  0  0
    2.9545   -0.2729   -0.0000 C   0  0  0  0  0  0  0  0  0  0  0  0
    0.1661   -3.9749   -0.0000 C   0  0  0  0  0  0  0  0  0  0  0  0
   -1.7917   -2.5511   -0.0000 C   0  0  0  0  0  0  0  0  0  0  0  0
    4.4258   -0.4272   -0.0000 C   0  0  0  0  0  0  0  0  0  0  0  0
    2.3256    1.0916   -0.0000 C   0  0  0  0  0  0  0  0  0  0  0  0
   -1.0442   -4.8530   -0.0000 N   0  0  0  0  0  0  0  0  0  0  0  0
   -2.2663   -3.9631   -0.0000 C   0  0  0  0  0  0  0  0  0  0  0  0
    5.2920    0.7950   -0.0000 C   0  0  0  0  0  0  0  0  0  0  0  0
    5.0191   -1.7798   -0.0000 C   0  0  0  0  0  0  0  0  0  0  0  0
    3.1800    2.3138   -0.0000 C   0  0  0  0  0  0  0  0  0  0  0  0
    0.8187    1.2459   -0.0000 C   0  0  0  0  0  0  0  0  0  0  0  0
   -1.0560   -6.3362   -0.0000 C   0  0  0  0  0  0  0  0  0  0  0  0
    4.6631    2.1714   -0.0000 C   0  0  0  0  0  0  0  0  0  0  0  0
    4.1292   -2.9782   -0.0000 C   0  0  0  0  0  0  0  0  0  0  0  0
    0.1898    2.6223   -0.0000 C   0  0  0  0  0  0  0  0  0  0  0  0
   -2.3612   -7.0718   -0.0000 N   0  0  0  0  0  0  0  0  0  0  0  0
    0.2373   -7.0718   -0.0000 C   0  0  0  0  0  0  0  0  0  0  0  0
   -2.3731   -8.5669   -0.0000 C   0  0  0  0  0  0  0  0  0  0  0  0
    0.2373   -8.5669   -0.0000 C   0  0  0  0  0  0  0  0  0  0  0  0
    1.6493   -6.5854   -0.0000 C   0  0  0  0  0  0  0  0  0  0  0  0
   -1.0916   -9.3026   -0.0000 N   0  0  0  0  0  0  0  0  0  0  0  0
   -3.6783   -9.3026   -0.0000 N   0  0  0  0  0  0  0  0  0  0  0  0
    1.6612   -9.0059   -0.0000 N   0  0  0  0  0  0  0  0  0  0  0  0
    2.5274   -7.7838   -0.0000 C   0  0  0  0  0  0  0  0  0  0  0  0
   -4.9835   -8.5432   -0.0000 C   0  0  0  0  0  0  0  0  0  0  0  0
   -6.2769   -9.2788   -0.0000 C   0  0  0  0  0  0  0  0  0  0  0  0
   -4.9835   -7.0362   -0.0000 C   0  0  0  0  0  0  0  0  0  0  0  0
   -6.2887  -10.7620   -0.0000 O   0  0  0  0  0  0  0  0  0  0  0  0
   -7.5821   -8.5194   -0.0000 C   0  0  0  0  0  0  0  0  0  0  0  0
   -6.2887   -6.2769   -0.0000 C   0  0  0  0  0  0  0  0  0  0  0  0
   -7.5939  -11.5095   -0.0000 C   0  0  0  0  0  0  0  0  0  0  0  0
   -7.5939   -7.0007   -0.0000 C   0  0  0  0  0  0  0  0  0  0  0  0
   -8.9110   -6.2413   -0.0000 N   0  0  0  0  0  0  0  0  0  0  0  0
   -8.9229   -4.7343   -0.0000 C   0  0  0  0  0  0  0  0  0  0  0  0
  -10.2162   -6.9769   -0.0000 C   0  0  0  0  0  0  0  0  0  0  0  0
  -10.2281   -3.9749   -0.0000 C   0  0  0  0  0  0  0  0  0  0  0  0
  -11.5333   -6.2057   -0.0000 C   0  0  0  0  0  0  0  0  0  0  0  0
  -11.5451   -4.7106   -0.0000 C   0  0  0  0  0  0  0  0  0  0  0  0
  -11.5689   -3.1918   -0.0000 O   0  0  0  0  0  0  0  0  0  0  0  0
  -12.8503   -3.9393   -0.0000 C   0  0  0  0  0  0  0  0  0  0  0  0
  -12.8622   -2.4324   -0.0000 O   0  0  0  0  0  0  0  0  0  0  0  0
  -14.1674   -4.6750   -0.0000 N   0  0  0  0  0  0  0  0  0  0  0  0
  -15.4726   -3.9038   -0.0000 C   0  0  0  0  0  0  0  0  0  0  0  0
  -14.1793   -6.1582   -0.0000 C   0  0  0  0  0  0  0  0  0  0  0  0
  -16.7778   -4.6275   -0.0000 C   0  0  0  0  0  0  0  0  0  0  0  0
  -15.4964   -6.8939   -0.0000 C   0  0  0  0  0  0  0  0  0  0  0  0
  -16.8016   -6.1107   -0.0000 N   0  0  0  0  0  0  0  0  0  0  0  0
  -18.1186   -6.8345   -0.0000 C   0  0  0  0  0  0  0  0  0  0  0  0
  1  2  2  0  0  0  0
  2  3  1  0  0  0  0
  2  4  1  0  0  0  0
  3  5  1  0  0  0  0
  4  6  2  0  0  0  0
  4  7  1  0  0  0  0
  5  8  2  0  0  0  0
  5  9  1  0  0  0  0
  6 10  1  0  0  0  0
  7 11  2  0  0  0  0
  8 12  1  0  0  0  0
  8 13  1  0  0  0  0
  9 14  2  0  0  0  0
  9 15  1  0  0  0  0
 10 16  1  0  0  0  0
 12 17  2  0  0  0  0
 13 18  1  0  0  0  0
 15 19  1  0  0  0  0
 16 20  2  0  0  0  0
 16 21  1  0  0  0  0
 20 22  1  0  0  0  0
 21 23  2  0  0  0  0
 21 24  1  0  0  0  0
 22 25  2  0  0  0  0
 22 26  1  0  0  0  0
 23 27  1  0  0  0  0
 24 28  2  0  0  0  0
 26 29  1  0  0  0  0
 29 30  2  0  0  0  0
 29 31  1  0  0  0  0
 30 32  1  0  0  0  0
 30 33  1  0  0  0  0
 31 34  2  0  0  0  0
 32 35  1  0  0  0  0
 33 36  2  0  0  0  0
 36 37  1  0  0  0  0
 37 38  1  0  0  0  0
 37 39  1  0  0  0  0
 38 40  1  0  0  0  0
 39 41  1  0  0  0  0
 40 42  1  0  0  0  0
 42 43  1  0  0  0  0
 42 44  1  0  0  0  0
 44 45  2  0  0  0  0
 44 46  1  0  0  0  0
 46 47  1  0  0  0  0
 46 48  1  0  0  0  0
 47 49  1  0  0  0  0
 48 50  1  0  0  0  0
 49 51  1  0  0  0  0
 51 52  1  0  0  0  0
 10 11  1  0  0  0  0
 14 17  1  0  0  0  0
 23 25  1  0  0  0  0
 27 28  1  0  0  0  0
 34 36  1  0  0  0  0
 41 42  1  0  0  0  0
 50 51  1  0  0  0  0
M  END
>  <MolRegNo>
2719764

>  <m>
=

>  <Value>
1900

>  <Unit>
nM

>  <Type>
IC50

>  <pValue>
5.72

>  <Ligand Efficiency>
0

>  <Binding Efficiency>
0

>  <Surface Efficiency>
0

>  <Assay Index>
1506866

>  <Assay Category>


>  <Assay Organism>
Homo sapiens

>  <Target ID>
17045

>  <Target Name>
Cytochrome P450 3A4

>  <Target Organism>
Homo sapiens

>  <Target Description>
Target is a single protein chain

>  <Sequence Accession>
P08684

>  <Reference>
J Med Chem 64 (17.0), 12670-12679 (2021)

>  <Pubmed ID>
34459599

>  <DOI>
10.1021/acs.jmedchem.1c00635

$$$$
2737466
Actelion Java MolfileCreator 1.0

 51 57  0  0  0  0  0  0  0  0999 V2000
    0.0000   -0.0000   -0.0000 O   0  0  0  0  0  0  0  0  0  0  0  0
    0.6049   -1.3521   -0.0000 C   0  0  0  0  0  0  0  0  0  0  0  0
    2.0875   -1.4944   -0.0000 N   0  0  0  0  0  0  0  0  0  0  0  0
   -0.2847   -2.5619   -0.0000 C   0  0  0  0  0  0  0  0  0  0  0  0
    2.9533   -0.2728   -0.0000 C   0  0  0  0  0  0  0  0  0  0  0  0
    0.1660   -3.9733   -0.0000 C   0  0  0  0  0  0  0  0  0  0  0  0
   -1.7910   -2.5500   -0.0000 C   0  0  0  0  0  0  0  0  0  0  0  0
    4.4240   -0.4151   -0.0000 C   0  0  0  0  0  0  0  0  0  0  0  0
    2.3247    1.0912   -0.0000 C   0  0  0  0  0  0  0  0  0  0  0  0
   -1.0437   -4.8510   -0.0000 N   0  0  0  0  0  0  0  0  0  0  0  0
   -2.2654   -3.9615   -0.0000 C   0  0  0  0  0  0  0  0  0  0  0  0
    5.2899    0.8065   -0.0000 C   0  0  0  0  0  0  0  0  0  0  0  0
    5.0171   -1.7672   -0.0000 C   0  0  0  0  0  0  0  0  0  0  0  0
    3.1787    2.3128   -0.0000 C   0  0  0  0  0  0  0  0  0  0  0  0
    0.8184    1.2454   -0.0000 C   0  0  0  0  0  0  0  0  0  0  0  0
   -1.0556   -6.3336   -0.0000 C   0  0  0  0  0  0  0  0  0  0  0  0
    4.6612    2.1824   -0.0000 C   0  0  0  0  0  0  0  0  0  0  0  0
    4.1275   -2.9652   -0.0000 C   0  0  0  0  0  0  0  0  0  0  0  0
    0.1898    2.6212   -0.0000 C   0  0  0  0  0  0  0  0  0  0  0  0
   -2.3603   -7.0690   -0.0000 N   0  0  0  0  0  0  0  0  0  0  0  0
    0.2372   -7.0690   -0.0000 C   0  0  0  0  0  0  0  0  0  0  0  0
   -2.3721   -8.5634   -0.0000 C   0  0  0  0  0  0  0  0  0  0  0  0
    0.2372   -8.5634   -0.0000 C   0  0  0  0  0  0  0  0  0  0  0  0
    1.6486   -6.5827   -0.0000 C   0  0  0  0  0  0  0  0  0  0  0  0
   -1.0912   -9.2988   -0.0000 N   0  0  0  0  0  0  0  0  0  0  0  0
   -3.6768   -9.2988   -0.0000 N   0  0  0  0  0  0  0  0  0  0  0  0
    1.6605   -9.0022   -0.0000 N   0  0  0  0  0  0  0  0  0  0  0  0
    2.5263   -7.7806   -0.0000 C   0  0  0  0  0  0  0  0  0  0  0  0
   -4.9815   -8.5397   -0.0000 C   0  0  0  0  0  0  0  0  0  0  0  0
   -6.2743   -9.2750   -0.0000 C   0  0  0  0  0  0  0  0  0  0  0  0
   -4.9815   -7.0334   -0.0000 C   0  0  0  0  0  0  0  0  0  0  0  0
   -6.2862  -10.7576   -0.0000 O   0  0  0  0  0  0  0  0  0  0  0  0
   -7.5790   -8.5160   -0.0000 C   0  0  0  0  0  0  0  0  0  0  0  0
   -6.2862   -6.2743   -0.0000 C   0  0  0  0  0  0  0  0  0  0  0  0
   -7.5908  -11.5048   -0.0000 C   0  0  0  0  0  0  0  0  0  0  0  0
   -7.5908   -6.9978   -0.0000 C   0  0  0  0  0  0  0  0  0  0  0  0
   -8.9074   -6.2387   -0.0000 N   0  0  0  0  0  0  0  0  0  0  0  0
   -8.9192   -4.7205   -0.0000 C   0  0  0  0  0  0  0  0  0  0  0  0
  -10.2120   -6.9741   -0.0000 C   0  0  0  0  0  0  0  0  0  0  0  0
  -10.2239   -3.9615   -0.0000 C   0  0  0  0  0  0  0  0  0  0  0  0
  -11.5286   -6.2031   -0.0000 C   0  0  0  0  0  0  0  0  0  0  0  0
  -11.5404   -4.6968   -0.0000 C   0  0  0  0  0  0  0  0  0  0  0  0
  -11.5642   -3.1787   -0.0000 O   0  0  0  0  0  0  0  0  0  0  0  0
  -12.8451   -3.9259   -0.0000 C   0  0  0  0  0  0  0  0  0  0  0  0
  -14.1616   -4.6612   -0.0000 N   0  0  0  0  0  0  0  0  0  0  0  0
  -15.4782   -3.8903   -0.0000 C   0  0  0  0  0  0  0  0  0  0  0  0
  -14.1735   -6.1438   -0.0000 C   0  0  0  0  0  0  0  0  0  0  0  0
  -16.7828   -4.6138   -0.0000 C   0  0  0  0  0  0  0  0  0  0  0  0
  -15.4900   -6.8792   -0.0000 C   0  0  0  0  0  0  0  0  0  0  0  0
  -16.8066   -6.0964   -0.0000 N   0  0  0  0  0  0  0  0  0  0  0  0
  -18.1231   -6.8199   -0.0000 C   0  0  0  0  0  0  0  0  0  0  0  0
  1  2  2  0  0  0  0
  2  3  1  0  0  0  0
  2  4  1  0  0  0  0
  3  5  1  0  0  0  0
  4  6  2  0  0  0  0
  4  7  1  0  0  0  0
  5  8  2  0  0  0  0
  5  9  1  0  0  0  0
  6 10  1  0  0  0  0
  7 11  2  0  0  0  0
  8 12  1  0  0  0  0
  8 13  1  0  0  0  0
  9 14  2  0  0  0  0
  9 15  1  0  0  0  0
 10 16  1  0  0  0  0
 12 17  2  0  0  0  0
 13 18  1  0  0  0  0
 15 19  1  0  0  0  0
 16 20  2  0  0  0  0
 16 21  1  0  0  0  0
 20 22  1  0  0  0  0
 21 23  2  0  0  0  0
 21 24  1  0  0  0  0
 22 25  2  0  0  0  0
 22 26  1  0  0  0  0
 23 27  1  0  0  0  0
 24 28  2  0  0  0  0
 26 29  1  0  0  0  0
 29 30  2  0  0  0  0
 29 31  1  0  0  0  0
 30 32  1  0  0  0  0
 30 33  1  0  0  0  0
 31 34  2  0  0  0  0
 32 35  1  0  0  0  0
 33 36  2  0  0  0  0
 36 37  1  0  0  0  0
 37 38  1  0  0  0  0
 37 39  1  0  0  0  0
 38 40  1  0  0  0  0
 39 41  1  0  0  0  0
 40 42  1  0  0  0  0
 42 43  1  0  0  0  0
 42 44  1  0  0  0  0
 44 45  1  0  0  0  0
 45 46  1  0  0  0  0
 45 47  1  0  0  0  0
 46 48  1  0  0  0  0
 47 49  1  0  0  0  0
 48 50  1  0  0  0  0
 50 51  1  0  0  0  0
 10 11  1  0  0  0  0
 14 17  1  0  0  0  0
 23 25  1  0  0  0  0
 27 28  1  0  0  0  0
 34 36  1  0  0  0  0
 41 42  1  0  0  0  0
 49 50  1  0  0  0  0
M  END
>  <MolRegNo>
2737466

>  <m>
=

>  <Value>
1200

>  <Unit>
nM

>  <Type>
IC50

>  <pValue>
5.92

>  <Ligand Efficiency>
0

>  <Binding Efficiency>
0

>  <Surface Efficiency>
0

>  <Assay Index>
1506866

>  <Assay Category>


>  <Assay Organism>
Homo sapiens

>  <Target ID>
17045

>  <Target Name>
Cytochrome P450 3A4

>  <Target Organism>
Homo sapiens

>  <Target Description>
Target is a single protein chain

>  <Sequence Accession>
P08684

>  <Reference>
J Med Chem 64 (17.0), 12670-12679 (2021)

>  <Pubmed ID>
34459599

>  <DOI>
10.1021/acs.jmedchem.1c00635

$$$$
2717552
Actelion Java MolfileCreator 1.0

 51 57  0  0  0  0  0  0  0  0999 V2000
    0.0000   -0.0000   -0.0000 O   0  0  0  0  0  0  0  0  0  0  0  0
    0.6051   -1.3527   -0.0000 C   0  0  0  0  0  0  0  0  0  0  0  0
    2.0884   -1.4951   -0.0000 N   0  0  0  0  0  0  0  0  0  0  0  0
   -0.2848   -2.5630   -0.0000 C   0  0  0  0  0  0  0  0  0  0  0  0
    2.9545   -0.2729   -0.0000 C   0  0  0  0  0  0  0  0  0  0  0  0
    0.1661   -3.9750   -0.0000 C   0  0  0  0  0  0  0  0  0  0  0  0
   -1.7917   -2.5511   -0.0000 C   0  0  0  0  0  0  0  0  0  0  0  0
    4.4259   -0.4153   -0.0000 C   0  0  0  0  0  0  0  0  0  0  0  0
    2.3257    1.0916   -0.0000 C   0  0  0  0  0  0  0  0  0  0  0  0
   -1.0442   -4.8530   -0.0000 N   0  0  0  0  0  0  0  0  0  0  0  0
   -2.2663   -3.9631   -0.0000 C   0  0  0  0  0  0  0  0  0  0  0  0
    5.2921    0.8069   -0.0000 C   0  0  0  0  0  0  0  0  0  0  0  0
    5.0192   -1.7680   -0.0000 C   0  0  0  0  0  0  0  0  0  0  0  0
    3.1800    2.3138   -0.0000 C   0  0  0  0  0  0  0  0  0  0  0  0
    0.8187    1.2459   -0.0000 C   0  0  0  0  0  0  0  0  0  0  0  0
   -1.0560   -6.3362   -0.0000 C   0  0  0  0  0  0  0  0  0  0  0  0
    4.6632    2.1833   -0.0000 C   0  0  0  0  0  0  0  0  0  0  0  0
    4.1292   -2.9664   -0.0000 C   0  0  0  0  0  0  0  0  0  0  0  0
    0.1899    2.6223   -0.0000 C   0  0  0  0  0  0  0  0  0  0  0  0
   -2.3613   -7.0719   -0.0000 N   0  0  0  0  0  0  0  0  0  0  0  0
    0.2373   -7.0719   -0.0000 C   0  0  0  0  0  0  0  0  0  0  0  0
   -2.3731   -8.5670   -0.0000 C   0  0  0  0  0  0  0  0  0  0  0  0
    0.2373   -8.5670   -0.0000 C   0  0  0  0  0  0  0  0  0  0  0  0
    1.6493   -6.5854   -0.0000 C   0  0  0  0  0  0  0  0  0  0  0  0
   -1.0916   -9.3027   -0.0000 N   0  0  0  0  0  0  0  0  0  0  0  0
   -3.6783   -9.3027   -0.0000 N   0  0  0  0  0  0  0  0  0  0  0  0
    1.6612   -9.0060   -0.0000 N   0  0  0  0  0  0  0  0  0  0  0  0
    2.5274   -7.7839   -0.0000 C   0  0  0  0  0  0  0  0  0  0  0  0
   -4.9836   -8.5433   -0.0000 C   0  0  0  0  0  0  0  0  0  0  0  0
   -6.2769   -9.2789   -0.0000 C   0  0  0  0  0  0  0  0  0  0  0  0
   -4.9836   -7.0363   -0.0000 C   0  0  0  0  0  0  0  0  0  0  0  0
   -6.2888  -10.7621   -0.0000 O   0  0  0  0  0  0  0  0  0  0  0  0
   -7.5821   -8.5195   -0.0000 C   0  0  0  0  0  0  0  0  0  0  0  0
   -6.2888   -6.2769   -0.0000 C   0  0  0  0  0  0  0  0  0  0  0  0
   -7.5940  -11.5097   -0.0000 C   0  0  0  0  0  0  0  0  0  0  0  0
   -7.5940   -7.0007   -0.0000 C   0  0  0  0  0  0  0  0  0  0  0  0
   -8.9111   -6.2413   -0.0000 N   0  0  0  0  0  0  0  0  0  0  0  0
   -8.9230   -4.7344   -0.0000 C   0  0  0  0  0  0  0  0  0  0  0  0
  -10.2163   -6.9770   -0.0000 C   0  0  0  0  0  0  0  0  0  0  0  0
  -10.2282   -3.9750   -0.0000 C   0  0  0  0  0  0  0  0  0  0  0  0
  -11.5334   -6.2057   -0.0000 C   0  0  0  0  0  0  0  0  0  0  0  0
  -11.5453   -4.7107   -0.0000 C   0  0  0  0  0  0  0  0  0  0  0  0
  -12.8505   -3.9394   -0.0000 C   0  0  0  0  0  0  0  0  0  0  0  0
  -12.8623   -2.4325   -0.0000 O   0  0  0  0  0  0  0  0  0  0  0  0
  -14.1676   -4.6751   -0.0000 N   0  0  0  0  0  0  0  0  0  0  0  0
  -15.4846   -3.9038   -0.0000 C   0  0  0  0  0  0  0  0  0  0  0  0
  -14.1794   -6.1583   -0.0000 C   0  0  0  0  0  0  0  0  0  0  0  0
  -16.7899   -4.6276   -0.0000 C   0  0  0  0  0  0  0  0  0  0  0  0
  -15.4965   -6.8939   -0.0000 C   0  0  0  0  0  0  0  0  0  0  0  0
  -16.8136   -6.1108   -0.0000 N   0  0  0  0  0  0  0  0  0  0  0  0
  -18.1307   -6.8346   -0.0000 C   0  0  0  0  0  0  0  0  0  0  0  0
  1  2  2  0  0  0  0
  2  3  1  0  0  0  0
  2  4  1  0  0  0  0
  3  5  1  0  0  0  0
  4  6  2  0  0  0  0
  4  7  1  0  0  0  0
  5  8  2  0  0  0  0
  5  9  1  0  0  0  0
  6 10  1  0  0  0  0
  7 11  2  0  0  0  0
  8 12  1  0  0  0  0
  8 13  1  0  0  0  0
  9 14  2  0  0  0  0
  9 15  1  0  0  0  0
 10 16  1  0  0  0  0
 12 17  2  0  0  0  0
 13 18  1  0  0  0  0
 15 19  1  0  0  0  0
 16 20  2  0  0  0  0
 16 21  1  0  0  0  0
 20 22  1  0  0  0  0
 21 23  2  0  0  0  0
 21 24  1  0  0  0  0
 22 25  2  0  0  0  0
 22 26  1  0  0  0  0
 23 27  1  0  0  0  0
 24 28  2  0  0  0  0
 26 29  1  0  0  0  0
 29 30  2  0  0  0  0
 29 31  1  0  0  0  0
 30 32  1  0  0  0  0
 30 33  1  0  0  0  0
 31 34  2  0  0  0  0
 32 35  1  0  0  0  0
 33 36  2  0  0  0  0
 36 37  1  0  0  0  0
 37 38  1  0  0  0  0
 37 39  1  0  0  0  0
 38 40  1  0  0  0  0
 39 41  1  0  0  0  0
 40 42  1  0  0  0  0
 42 43  1  0  0  0  0
 43 44  2  0  0  0  0
 43 45  1  0  0  0  0
 45 46  1  0  0  0  0
 45 47  1  0  0  0  0
 46 48  1  0  0  0  0
 47 49  1  0  0  0  0
 48 50  1  0  0  0  0
 50 51  1  0  0  0  0
 10 11  1  0  0  0  0
 14 17  1  0  0  0  0
 23 25  1  0  0  0  0
 27 28  1  0  0  0  0
 34 36  1  0  0  0  0
 41 42  1  0  0  0  0
 49 50  1  0  0  0  0
M  END
>  <MolRegNo>
2717552

>  <m>
=

>  <Value>
3100

>  <Unit>
nM

>  <Type>
IC50

>  <pValue>
5.51

>  <Ligand Efficiency>
0

>  <Binding Efficiency>
0

>  <Surface Efficiency>
0

>  <Assay Index>
1506866

>  <Assay Category>


>  <Assay Organism>
Homo sapiens

>  <Target ID>
17045

>  <Target Name>
Cytochrome P450 3A4

>  <Target Organism>
Homo sapiens

>  <Target Description>
Target is a single protein chain

>  <Sequence Accession>
P08684

>  <Reference>
J Med Chem 64 (17.0), 12670-12679 (2021)

>  <Pubmed ID>
34459599

>  <DOI>
10.1021/acs.jmedchem.1c00635

$$$$
2724057
Actelion Java MolfileCreator 1.0

 53 59  0  0  0  0  0  0  0  0999 V2000
    0.0000   -0.0000   -0.0000 O   0  0  0  0  0  0  0  0  0  0  0  0
   -1.5060    0.0119   -0.0000 C   0  0  0  0  0  0  0  0  0  0  0  0
   -2.2649    1.3162   -0.0000 N   0  0  0  0  0  0  0  0  0  0  0  0
   -2.2649   -1.2569   -0.0000 C   0  0  0  0  0  0  0  0  0  0  0  0
   -1.5297    2.6206   -0.0000 C   0  0  0  0  0  0  0  0  0  0  0  0
   -3.7708    1.3281   -0.0000 C   0  0  0  0  0  0  0  0  0  0  0  0
   -3.7708   -1.2451   -0.0000 N   0  0  0  0  0  0  0  0  0  0  0  0
   -1.8024   -2.6680   -0.0000 C   0  0  0  0  0  0  0  0  0  0  0  0
   -2.2886    3.9250   -0.0000 C   0  0  0  0  0  0  0  0  0  0  0  0
   -0.0356    2.6325   -0.0000 C   0  0  0  0  0  0  0  0  0  0  0  0
   -4.5297    0.0474   -0.0000 C   0  0  0  0  0  0  0  0  0  0  0  0
   -4.2451   -2.6562   -0.0000 C   0  0  0  0  0  0  0  0  0  0  0  0
   -3.0119   -3.5455   -0.0000 C   0  0  0  0  0  0  0  0  0  0  0  0
   -1.5534    5.2293   -0.0000 C   0  0  0  0  0  0  0  0  0  0  0  0
   -3.7945    3.9368   -0.0000 C   0  0  0  0  0  0  0  0  0  0  0  0
    0.6996    3.9368   -0.0000 C   0  0  0  0  0  0  0  0  0  0  0  0
    0.6996    1.3399   -0.0000 C   0  0  0  0  0  0  0  0  0  0  0  0
   -3.0238   -5.0277   -0.0000 C   0  0  0  0  0  0  0  0  0  0  0  0
   -0.0593    5.2412   -0.0000 C   0  0  0  0  0  0  0  0  0  0  0  0
   -4.5534    5.2412   -0.0000 C   0  0  0  0  0  0  0  0  0  0  0  0
    2.1819    1.3518   -0.0000 C   0  0  0  0  0  0  0  0  0  0  0  0
   -4.3281   -5.7629   -0.0000 N   0  0  0  0  0  0  0  0  0  0  0  0
   -1.7313   -5.7629   -0.0000 C   0  0  0  0  0  0  0  0  0  0  0  0
   -4.3400   -7.2570   -0.0000 C   0  0  0  0  0  0  0  0  0  0  0  0
   -1.7313   -7.2570   -0.0000 C   0  0  0  0  0  0  0  0  0  0  0  0
   -0.3202   -5.2768   -0.0000 C   0  0  0  0  0  0  0  0  0  0  0  0
   -3.0593   -7.9922   -0.0000 N   0  0  0  0  0  0  0  0  0  0  0  0
   -5.6444   -7.9922   -0.0000 N   0  0  0  0  0  0  0  0  0  0  0  0
   -0.3083   -7.6958   -0.0000 N   0  0  0  0  0  0  0  0  0  0  0  0
    0.5573   -6.4744   -0.0000 C   0  0  0  0  0  0  0  0  0  0  0  0
   -6.9487   -7.2333   -0.0000 C   0  0  0  0  0  0  0  0  0  0  0  0
   -8.2412   -7.9685   -0.0000 C   0  0  0  0  0  0  0  0  0  0  0  0
   -6.9487   -5.7274   -0.0000 C   0  0  0  0  0  0  0  0  0  0  0  0
   -8.2531   -9.4507   -0.0000 O   0  0  0  0  0  0  0  0  0  0  0  0
   -9.5456   -7.2096   -0.0000 C   0  0  0  0  0  0  0  0  0  0  0  0
   -8.2531   -4.9685   -0.0000 C   0  0  0  0  0  0  0  0  0  0  0  0
   -9.5575  -10.1978   -0.0000 C   0  0  0  0  0  0  0  0  0  0  0  0
   -9.5575   -5.6918   -0.0000 C   0  0  0  0  0  0  0  0  0  0  0  0
  -10.8737   -4.9329   -0.0000 N   0  0  0  0  0  0  0  0  0  0  0  0
  -10.8855   -3.4269   -0.0000 C   0  0  0  0  0  0  0  0  0  0  0  0
  -12.1781   -5.6681   -0.0000 C   0  0  0  0  0  0  0  0  0  0  0  0
  -12.1899   -2.6680   -0.0000 C   0  0  0  0  0  0  0  0  0  0  0  0
  -13.4824   -4.8973   -0.0000 C   0  0  0  0  0  0  0  0  0  0  0  0
  -13.5061   -3.4032   -0.0000 C   0  0  0  0  0  0  0  0  0  0  0  0
  -14.8105   -2.6325   -0.0000 C   0  0  0  0  0  0  0  0  0  0  0  0
  -14.8224   -1.1265   -0.0000 O   0  0  0  0  0  0  0  0  0  0  0  0
  -16.1267   -3.3676   -0.0000 N   0  0  0  0  0  0  0  0  0  0  0  0
  -17.4311   -2.5969   -0.0000 C   0  0  0  0  0  0  0  0  0  0  0  0
  -16.1386   -4.8499   -0.0000 C   0  0  0  0  0  0  0  0  0  0  0  0
  -18.7473   -3.3321   -0.0000 C   0  0  0  0  0  0  0  0  0  0  0  0
  -20.0517   -2.5613   -0.0000 N   0  0  0  0  0  0  0  0  0  0  0  0
  -21.3679   -3.2965   -0.0000 C   0  0  0  0  0  0  0  0  0  0  0  0
  -20.0636   -1.0554   -0.0000 C   0  0  0  0  0  0  0  0  0  0  0  0
  1  2  2  0  0  0  0
  2  3  1  0  0  0  0
  2  4  1  0  0  0  0
  3  5  1  0  0  0  0
  3  6  1  0  0  0  0
  4  7  1  0  0  0  0
  4  8  2  0  0  0  0
  5  9  2  0  0  0  0
  5 10  1  0  0  0  0
  6 11  1  0  0  0  0
  7 12  1  0  0  0  0
  8 13  1  0  0  0  0
  9 14  1  0  0  0  0
  9 15  1  0  0  0  0
 10 16  2  0  0  0  0
 10 17  1  0  0  0  0
 13 18  1  0  0  0  0
 14 19  2  0  0  0  0
 15 20  1  0  0  0  0
 17 21  1  0  0  0  0
 18 22  2  0  0  0  0
 18 23  1  0  0  0  0
 22 24  1  0  0  0  0
 23 25  2  0  0  0  0
 23 26  1  0  0  0  0
 24 27  2  0  0  0  0
 24 28  1  0  0  0  0
 25 29  1  0  0  0  0
 26 30  2  0  0  0  0
 28 31  1  0  0  0  0
 31 32  2  0  0  0  0
 31 33  1  0  0  0  0
 32 34  1  0  0  0  0
 32 35  1  0  0  0  0
 33 36  2  0  0  0  0
 34 37  1  0  0  0  0
 35 38  2  0  0  0  0
 38 39  1  0  0  0  0
 39 40  1  0  0  0  0
 39 41  1  0  0  0  0
 40 42  1  0  0  0  0
 41 43  1  0  0  0  0
 42 44  1  0  0  0  0
 44 45  1  0  0  0  0
 45 46  2  0  0  0  0
 45 47  1  0  0  0  0
 47 48  1  0  0  0  0
 47 49  1  0  0  0  0
 48 50  1  0  0  0  0
 50 51  1  0  0  0  0
 51 52  1  0  0  0  0
 51 53  1  0  0  0  0
  7 11  1  0  0  0  0
 12 13  2  0  0  0  0
 16 19  1  0  0  0  0
 25 27  1  0  0  0  0
 29 30  1  0  0  0  0
 36 38  1  0  0  0  0
 43 44  1  0  0  0  0
M  END
>  <MolRegNo>
2724057

>  <m>
=

>  <Value>
3900

>  <Unit>
nM

>  <Type>
IC50

>  <pValue>
5.41

>  <Ligand Efficiency>
0

>  <Binding Efficiency>
0

>  <Surface Efficiency>
0

>  <Assay Index>
1506866

>  <Assay Category>


>  <Assay Organism>
Homo sapiens

>  <Target ID>
17045

>  <Target Name>
Cytochrome P450 3A4

>  <Target Organism>
Homo sapiens

>  <Target Description>
Target is a single protein chain

>  <Sequence Accession>
P08684

>  <Reference>
J Med Chem 64 (17.0), 12670-12679 (2021)

>  <Pubmed ID>
34459599

>  <DOI>
10.1021/acs.jmedchem.1c00635

$$$$
2731602
Actelion Java MolfileCreator 1.0

 37 41  0  0  0  0  0  0  0  0999 V2000
    0.0000   -0.0000   -0.0000 F   0  0  0  0  0  0  0  0  0  0  0  0
   -1.3108    0.7558   -0.0000 C   0  0  0  0  0  0  0  0  0  0  0  0
   -1.3344    2.2555   -0.0000 F   0  0  0  0  0  0  0  0  0  0  0  0
   -0.0354    1.5233   -0.0000 F   0  0  0  0  0  0  0  0  0  0  0  0
   -2.6097    0.0118   -0.0000 C   0  0  0  0  0  0  0  0  0  0  0  0
   -2.6097   -1.4761   -0.0000 N   0  0  0  0  0  0  0  0  0  0  0  0
   -3.9087    0.7558   -0.0000 C   0  0  0  0  0  0  0  0  0  0  0  0
   -3.9087   -2.2082   -0.0000 C   0  0  0  0  0  0  0  0  0  0  0  0
   -5.1958    0.0118   -0.0000 C   0  0  0  0  0  0  0  0  0  0  0  0
   -5.2076   -1.4525   -0.0000 C   0  0  0  0  0  0  0  0  0  0  0  0
   -6.4948    0.7676   -0.0000 C   0  0  0  0  0  0  0  0  0  0  0  0
   -6.5066    2.2673   -0.0000 O   0  0  0  0  0  0  0  0  0  0  0  0
   -7.7937    0.0354   -0.0000 N   0  0  0  0  0  0  0  0  0  0  0  0
   -9.0927    0.7912   -0.0000 C   0  0  0  0  0  0  0  0  0  0  0  0
  -10.4034    0.0590   -0.0000 C   0  0  0  0  0  0  0  0  0  0  0  0
   -9.1045    2.3027   -0.0000 C   0  0  0  0  0  0  0  0  0  0  0  0
  -11.7024    0.8148   -0.0000 C   0  0  0  0  0  0  0  0  0  0  0  0
  -10.4034    3.0584   -0.0000 C   0  0  0  0  0  0  0  0  0  0  0  0
  -13.0013    0.0827   -0.0000 C   0  0  0  0  0  0  0  0  0  0  0  0
  -11.7142    2.3263   -0.0000 C   0  0  0  0  0  0  0  0  0  0  0  0
  -14.3003    0.8384   -0.0000 C   0  0  0  0  0  0  0  0  0  0  0  0
  -13.0131   -1.3934   -0.0000 C   0  0  0  0  0  0  0  0  0  0  0  0
  -13.0131    3.0821   -0.0000 C   0  0  0  0  0  0  0  0  0  0  0  0
  -15.5992    0.1181   -0.0000 C   0  0  0  0  0  0  0  0  0  0  0  0
  -14.3121   -2.1256   -0.0000 C   0  0  0  0  0  0  0  0  0  0  0  0
  -16.7919    1.0746   -0.0000 O   0  0  0  0  0  0  0  0  0  0  0  0
  -15.6110   -1.3698   -0.0000 C   0  0  0  0  0  0  0  0  0  0  0  0
  -18.2680    0.7558   -0.0000 C   0  0  0  0  0  0  0  0  0  0  0  0
  -16.8037   -2.3027   -0.0000 N   0  0  0  0  0  0  0  0  0  0  0  0
  -18.9293   -0.5904   -0.0000 C   0  0  0  0  0  0  0  0  0  0  0  0
  -17.9019    2.2082   -0.0000 C   0  0  0  0  0  0  0  0  0  0  0  0
  -19.7204    0.3661   -0.0000 C   0  0  0  0  0  0  0  0  0  0  0  0
  -18.2798   -1.9602   -0.0000 C   0  0  0  0  0  0  0  0  0  0  0  0
  -18.9647    3.2710   -0.0000 C   0  0  0  0  0  0  0  0  0  0  0  0
  -20.7950    1.4407   -0.0000 C   0  0  0  0  0  0  0  0  0  0  0  0
  -19.2245   -3.1175   -0.0000 O   0  0  0  0  0  0  0  0  0  0  0  0
  -20.4172    2.8931   -0.0000 O   0  0  0  0  0  0  0  0  0  0  0  0
  1  2  1  0  0  0  0
  2  3  1  0  0  0  0
  2  4  1  0  0  0  0
  2  5  1  0  0  0  0
  5  6  2  0  0  0  0
  5  7  1  0  0  0  0
  6  8  1  0  0  0  0
  7  9  2  0  0  0  0
  8 10  2  0  0  0  0
  9 11  1  0  0  0  0
 11 12  2  0  0  0  0
 11 13  1  0  0  0  0
 13 14  1  0  0  0  0
 14 15  2  0  0  0  0
 14 16  1  0  0  0  0
 15 17  1  0  0  0  0
 16 18  2  0  0  0  0
 17 19  1  0  0  0  0
 17 20  2  0  0  0  0
 19 21  2  0  0  0  0
 19 22  1  0  0  0  0
 20 23  1  0  0  0  0
 21 24  1  0  0  0  0
 22 25  2  0  0  0  0
 24 26  1  0  0  0  0
 24 27  2  0  0  0  0
 26 28  1  0  0  0  0
 27 29  1  0  0  0  0
 28 30  1  0  0  0  0
 28 31  1  0  0  0  0
 28 32  1  0  0  0  0
 29 33  1  0  0  0  0
 31 34  1  0  0  0  0
 32 35  1  0  0  0  0
 33 36  2  0  0  0  0
 34 37  1  0  0  0  0
  9 10  1  0  0  0  0
 18 20  1  0  0  0  0
 25 27  1  0  0  0  0
 30 33  1  0  0  0  0
 35 37  1  0  0  0  0
M  END
>  <MolRegNo>
2731602

>  <m>
=

>  <Value>
13200

>  <Unit>
nM

>  <Type>
IC50

>  <pValue>
4.88

>  <Ligand Efficiency>
0

>  <Binding Efficiency>
0

>  <Surface Efficiency>
0

>  <Assay Index>
1510266

>  <Assay Category>


>  <Assay Organism>
Homo sapiens

>  <Target ID>
17045

>  <Target Name>
Cytochrome P450 3A4

>  <Target Organism>
Homo sapiens

>  <Target Description>
Target is a single protein chain

>  <Sequence Accession>
P08684

>  <Reference>


>  <Pubmed ID>
34906761

>  <DOI>
10.1016/j.ejmech.2021.114040

$$$$
2739232
Actelion Java MolfileCreator 1.0

 52 59  0  0  0  0  0  0  0  0999 V2000
    0.0000   -0.0000   -0.0000 O   0  0  0  0  0  0  0  0  0  0  0  0
   -0.0118    1.5154   -0.0000 C   0  0  0  0  0  0  0  0  0  0  0  0
    1.2668    2.2731   -0.0000 C   0  0  0  0  0  0  0  0  0  0  0  0
   -1.3141    2.2849   -0.0000 C   0  0  0  0  0  0  0  0  0  0  0  0
    1.2668    3.7885   -0.0000 C   0  0  0  0  0  0  0  0  0  0  0  0
    2.5572    1.5272   -0.0000 C   0  0  0  0  0  0  0  0  0  0  0  0
   -1.3141    3.8003   -0.0000 C   0  0  0  0  0  0  0  0  0  0  0  0
   -0.0355    4.5580   -0.0000 O   0  0  0  0  0  0  0  0  0  0  0  0
    2.5454    4.5580   -0.0000 C   0  0  0  0  0  0  0  0  0  0  0  0
    3.8477    2.2968   -0.0000 C   0  0  0  0  0  0  0  0  0  0  0  0
   -2.6283    4.5699   -0.0000 C   0  0  0  0  0  0  0  0  0  0  0  0
    3.8358    3.8240   -0.0000 C   0  0  0  0  0  0  0  0  0  0  0  0
   -3.9424    3.8358   -0.0000 O   0  0  0  0  0  0  0  0  0  0  0  0
   -2.6283    6.0852   -0.0000 N   0  0  0  0  0  0  0  0  0  0  0  0
   -3.9424    6.8548   -0.0000 C   0  0  0  0  0  0  0  0  0  0  0  0
   -3.9424    8.3702   -0.0000 C   0  0  0  0  0  0  0  0  0  0  0  0
   -5.2565    6.1208   -0.0000 C   0  0  0  0  0  0  0  0  0  0  0  0
   -2.6519    9.1160   -0.0000 C   0  0  0  0  0  0  0  0  0  0  0  0
   -5.2447    9.1397   -0.0000 C   0  0  0  0  0  0  0  0  0  0  0  0
   -6.5706    6.8903   -0.0000 C   0  0  0  0  0  0  0  0  0  0  0  0
   -2.4980   10.6196   -0.0000 N   0  0  0  0  0  0  0  0  0  0  0  0
   -1.2905    8.5122   -0.0000 N   0  0  0  0  0  0  0  0  0  0  0  0
   -6.5588    8.4057   -0.0000 C   0  0  0  0  0  0  0  0  0  0  0  0
   -7.8848    6.1563   -0.0000 O   0  0  0  0  0  0  0  0  0  0  0  0
   -1.0418   10.9274   -0.0000 N   0  0  0  0  0  0  0  0  0  0  0  0
   -0.2841    9.6369   -0.0000 N   0  0  0  0  0  0  0  0  0  0  0  0
   -7.8729    9.1752   -0.0000 O   0  0  0  0  0  0  0  0  0  0  0  0
   -9.1989    6.9258   -0.0000 C   0  0  0  0  0  0  0  0  0  0  0  0
    1.1957    9.4830   -0.0000 C   0  0  0  0  0  0  0  0  0  0  0  0
   -7.8729   10.6906   -0.0000 C   0  0  0  0  0  0  0  0  0  0  0  0
    1.7877    8.1097   -0.0000 C   0  0  0  0  0  0  0  0  0  0  0  0
    2.0718   10.7025   -0.0000 C   0  0  0  0  0  0  0  0  0  0  0  0
    3.2676    7.9558   -0.0000 C   0  0  0  0  0  0  0  0  0  0  0  0
    3.5517   10.5486   -0.0000 C   0  0  0  0  0  0  0  0  0  0  0  0
    4.1555    9.1752   -0.0000 C   0  0  0  0  0  0  0  0  0  0  0  0
    5.6354    9.0213   -0.0000 C   0  0  0  0  0  0  0  0  0  0  0  0
    6.2273    7.6598   -0.0000 C   0  0  0  0  0  0  0  0  0  0  0  0
    7.7072    7.5059   -0.0000 N   0  0  0  0  0  0  0  0  0  0  0  0
    8.5833    8.7253   -0.0000 C   0  0  0  0  0  0  0  0  0  0  0  0
    8.2873    6.1326   -0.0000 C   0  0  0  0  0  0  0  0  0  0  0  0
   10.0750    8.5596   -0.0000 C   0  0  0  0  0  0  0  0  0  0  0  0
    9.7672    5.9787   -0.0000 C   0  0  0  0  0  0  0  0  0  0  0  0
   10.6551    7.1981   -0.0000 C   0  0  0  0  0  0  0  0  0  0  0  0
   10.9511    9.7672   -0.0000 C   0  0  0  0  0  0  0  0  0  0  0  0
   12.1231    7.0442   -0.0000 C   0  0  0  0  0  0  0  0  0  0  0  0
   12.4191    9.6133   -0.0000 C   0  0  0  0  0  0  0  0  0  0  0  0
   12.9992    8.2636   -0.0000 C   0  0  0  0  0  0  0  0  0  0  0  0
   14.4791    8.1097   -0.0000 N   0  0  0  0  0  0  0  0  0  0  0  0
   15.4736    9.2344   -0.0000 C   0  0  0  0  0  0  0  0  0  0  0  0
   15.2013    6.8193   -0.0000 C   0  0  0  0  0  0  0  0  0  0  0  0
   16.8351    8.6306   -0.0000 N   0  0  0  0  0  0  0  0  0  0  0  0
   16.6575    7.1389   -0.0000 C   0  0  0  0  0  0  0  0  0  0  0  0
  1  2  2  0  0  0  0
  2  3  1  0  0  0  0
  2  4  1  0  0  0  0
  3  5  2  0  0  0  0
  3  6  1  0  0  0  0
  4  7  2  0  0  0  0
  5  8  1  0  0  0  0
  5  9  1  0  0  0  0
  6 10  2  0  0  0  0
  7 11  1  0  0  0  0
  9 12  2  0  0  0  0
 11 13  2  0  0  0  0
 11 14  1  0  0  0  0
 14 15  1  0  0  0  0
 15 16  2  0  0  0  0
 15 17  1  0  0  0  0
 16 18  1  0  0  0  0
 16 19  1  0  0  0  0
 17 20  2  0  0  0  0
 18 21  1  0  0  0  0
 18 22  2  0  0  0  0
 19 23  2  0  0  0  0
 20 24  1  0  0  0  0
 21 25  2  0  0  0  0
 22 26  1  0  0  0  0
 23 27  1  0  0  0  0
 24 28  1  0  0  0  0
 26 29  1  0  0  0  0
 27 30  1  0  0  0  0
 29 31  2  0  0  0  0
 29 32  1  0  0  0  0
 31 33  1  0  0  0  0
 32 34  2  0  0  0  0
 33 35  2  0  0  0  0
 35 36  1  0  0  0  0
 36 37  1  0  0  0  0
 37 38  1  0  0  0  0
 38 39  1  0  0  0  0
 38 40  1  0  0  0  0
 39 41  1  0  0  0  0
 40 42  1  0  0  0  0
 41 43  2  0  0  0  0
 41 44  1  0  0  0  0
 43 45  1  0  0  0  0
 44 46  2  0  0  0  0
 45 47  2  0  0  0  0
 47 48  1  0  0  0  0
 48 49  1  0  0  0  0
 48 50  1  0  0  0  0
 49 51  2  0  0  0  0
 50 52  2  0  0  0  0
  7  8  1  0  0  0  0
 10 12  1  0  0  0  0
 20 23  1  0  0  0  0
 25 26  1  0  0  0  0
 34 35  1  0  0  0  0
 42 43  1  0  0  0  0
 46 47  1  0  0  0  0
 51 52  1  0  0  0  0
M  END
>  <MolRegNo>
2739232

>  <m>
=

>  <Value>
305

>  <Unit>
nM

>  <Type>
IC50

>  <pValue>
6.52

>  <Ligand Efficiency>
0.17

>  <Binding Efficiency>
9.38

>  <Surface Efficiency>
4.57

>  <Assay Index>
1510383

>  <Assay Category>


>  <Assay Organism>
Homo sapiens

>  <Target ID>
17045

>  <Target Name>
Cytochrome P450 3A4

>  <Target Organism>
Homo sapiens

>  <Target Description>
Target is a single protein chain

>  <Sequence Accession>
P08684

>  <Reference>
J Med Chem 65 (1.0), 191-216 (2022)

>  <Pubmed ID>
34928144

>  <DOI>
10.1021/acs.jmedchem.1c01272

$$$$
2724885
Actelion Java MolfileCreator 1.0

 52 59  0  0  0  0  0  0  0  0999 V2000
    0.0000   -0.0000   -0.0000 O   0  0  0  0  0  0  0  0  0  0  0  0
   -0.0118    1.5140   -0.0000 C   0  0  0  0  0  0  0  0  0  0  0  0
    1.2656    2.2710   -0.0000 C   0  0  0  0  0  0  0  0  0  0  0  0
   -1.3129    2.2829   -0.0000 C   0  0  0  0  0  0  0  0  0  0  0  0
    1.2656    3.7851   -0.0000 C   0  0  0  0  0  0  0  0  0  0  0  0
    2.5549    1.5259   -0.0000 C   0  0  0  0  0  0  0  0  0  0  0  0
   -1.3129    3.7969   -0.0000 C   0  0  0  0  0  0  0  0  0  0  0  0
   -0.0355    4.5539   -0.0000 O   0  0  0  0  0  0  0  0  0  0  0  0
    2.5431    4.5539   -0.0000 C   0  0  0  0  0  0  0  0  0  0  0  0
    3.8442    2.2947   -0.0000 C   0  0  0  0  0  0  0  0  0  0  0  0
   -2.6259    4.5657   -0.0000 C   0  0  0  0  0  0  0  0  0  0  0  0
    3.8324    3.8206   -0.0000 C   0  0  0  0  0  0  0  0  0  0  0  0
   -3.9388    3.8324   -0.0000 O   0  0  0  0  0  0  0  0  0  0  0  0
   -2.6259    6.0798   -0.0000 N   0  0  0  0  0  0  0  0  0  0  0  0
   -3.9388    6.8486   -0.0000 C   0  0  0  0  0  0  0  0  0  0  0  0
   -3.9388    8.3627   -0.0000 C   0  0  0  0  0  0  0  0  0  0  0  0
   -5.2518    6.1153   -0.0000 C   0  0  0  0  0  0  0  0  0  0  0  0
   -2.6496    9.1078   -0.0000 C   0  0  0  0  0  0  0  0  0  0  0  0
   -5.2400    9.1315   -0.0000 C   0  0  0  0  0  0  0  0  0  0  0  0
   -6.5647    6.8841   -0.0000 C   0  0  0  0  0  0  0  0  0  0  0  0
   -2.4958   10.6100   -0.0000 N   0  0  0  0  0  0  0  0  0  0  0  0
   -1.2893    8.5046   -0.0000 N   0  0  0  0  0  0  0  0  0  0  0  0
   -6.5529    8.3981   -0.0000 C   0  0  0  0  0  0  0  0  0  0  0  0
   -7.8777    6.1507   -0.0000 O   0  0  0  0  0  0  0  0  0  0  0  0
   -1.0409   10.9176   -0.0000 N   0  0  0  0  0  0  0  0  0  0  0  0
   -0.2839    9.6283   -0.0000 N   0  0  0  0  0  0  0  0  0  0  0  0
   -7.8659    9.1670   -0.0000 O   0  0  0  0  0  0  0  0  0  0  0  0
   -9.1906    6.9196   -0.0000 C   0  0  0  0  0  0  0  0  0  0  0  0
    1.1947    9.4745   -0.0000 C   0  0  0  0  0  0  0  0  0  0  0  0
   -7.8659   10.6810   -0.0000 C   0  0  0  0  0  0  0  0  0  0  0  0
    1.7861    8.1024   -0.0000 C   0  0  0  0  0  0  0  0  0  0  0  0
    2.0700   10.6928   -0.0000 C   0  0  0  0  0  0  0  0  0  0  0  0
    3.2646    7.9487   -0.0000 C   0  0  0  0  0  0  0  0  0  0  0  0
    3.5485   10.5391   -0.0000 C   0  0  0  0  0  0  0  0  0  0  0  0
    4.1518    9.1670   -0.0000 C   0  0  0  0  0  0  0  0  0  0  0  0
    5.6303    9.0132   -0.0000 C   0  0  0  0  0  0  0  0  0  0  0  0
    6.2217    7.6530   -0.0000 C   0  0  0  0  0  0  0  0  0  0  0  0
    7.7003    7.4992   -0.0000 N   0  0  0  0  0  0  0  0  0  0  0  0
    8.5756    8.7175   -0.0000 C   0  0  0  0  0  0  0  0  0  0  0  0
    8.2799    6.1271   -0.0000 C   0  0  0  0  0  0  0  0  0  0  0  0
   10.0659    8.5519   -0.0000 C   0  0  0  0  0  0  0  0  0  0  0  0
    9.7584    5.9733   -0.0000 C   0  0  0  0  0  0  0  0  0  0  0  0
   10.6455    7.1916   -0.0000 C   0  0  0  0  0  0  0  0  0  0  0  0
   10.9412    9.7584   -0.0000 C   0  0  0  0  0  0  0  0  0  0  0  0
   12.1122    7.0379   -0.0000 C   0  0  0  0  0  0  0  0  0  0  0  0
   12.4080    9.6046   -0.0000 C   0  0  0  0  0  0  0  0  0  0  0  0
   12.9875    8.2562   -0.0000 C   0  0  0  0  0  0  0  0  0  0  0  0
   13.2833   10.8230   -0.0000 N   0  0  0  0  0  0  0  0  0  0  0  0
   14.7736   10.8348   -0.0000 C   0  0  0  0  0  0  0  0  0  0  0  0
   12.8101   12.2660   -0.0000 C   0  0  0  0  0  0  0  0  0  0  0  0
   15.2349   12.2778   -0.0000 N   0  0  0  0  0  0  0  0  0  0  0  0
   14.0166   13.1531   -0.0000 C   0  0  0  0  0  0  0  0  0  0  0  0
  1  2  2  0  0  0  0
  2  3  1  0  0  0  0
  2  4  1  0  0  0  0
  3  5  2  0  0  0  0
  3  6  1  0  0  0  0
  4  7  2  0  0  0  0
  5  8  1  0  0  0  0
  5  9  1  0  0  0  0
  6 10  2  0  0  0  0
  7 11  1  0  0  0  0
  9 12  2  0  0  0  0
 11 13  2  0  0  0  0
 11 14  1  0  0  0  0
 14 15  1  0  0  0  0
 15 16  2  0  0  0  0
 15 17  1  0  0  0  0
 16 18  1  0  0  0  0
 16 19  1  0  0  0  0
 17 20  2  0  0  0  0
 18 21  1  0  0  0  0
 18 22  2  0  0  0  0
 19 23  2  0  0  0  0
 20 24  1  0  0  0  0
 21 25  2  0  0  0  0
 22 26  1  0  0  0  0
 23 27  1  0  0  0  0
 24 28  1  0  0  0  0
 26 29  1  0  0  0  0
 27 30  1  0  0  0  0
 29 31  2  0  0  0  0
 29 32  1  0  0  0  0
 31 33  1  0  0  0  0
 32 34  2  0  0  0  0
 33 35  2  0  0  0  0
 35 36  1  0  0  0  0
 36 37  1  0  0  0  0
 37 38  1  0  0  0  0
 38 39  1  0  0  0  0
 38 40  1  0  0  0  0
 39 41  1  0  0  0  0
 40 42  1  0  0  0  0
 41 43  2  0  0  0  0
 41 44  1  0  0  0  0
 43 45  1  0  0  0  0
 44 46  2  0  0  0  0
 45 47  2  0  0  0  0
 46 48  1  0  0  0  0
 48 49  1  0  0  0  0
 48 50  1  0  0  0  0
 49 51  2  0  0  0  0
 50 52  2  0  0  0  0
  7  8  1  0  0  0  0
 10 12  1  0  0  0  0
 20 23  1  0  0  0  0
 25 26  1  0  0  0  0
 34 35  1  0  0  0  0
 42 43  1  0  0  0  0
 46 47  1  0  0  0  0
 51 52  1  0  0  0  0
M  END
>  <MolRegNo>
2724885

>  <m>
=

>  <Value>
397

>  <Unit>
nM

>  <Type>
IC50

>  <pValue>
6.4

>  <Ligand Efficiency>
0.17

>  <Binding Efficiency>
9.21

>  <Surface Efficiency>
4.49

>  <Assay Index>
1510383

>  <Assay Category>


>  <Assay Organism>
Homo sapiens

>  <Target ID>
17045

>  <Target Name>
Cytochrome P450 3A4

>  <Target Organism>
Homo sapiens

>  <Target Description>
Target is a single protein chain

>  <Sequence Accession>
P08684

>  <Reference>
J Med Chem 65 (1.0), 191-216 (2022)

>  <Pubmed ID>
34928144

>  <DOI>
10.1021/acs.jmedchem.1c01272

$$$$
2729200
Actelion Java MolfileCreator 1.0

 46 52  0  0  0  0  0  0  0  0999 V2000
    0.0000   -0.0000   -0.0000 O   0  0  0  0  0  0  0  0  0  0  0  0
   -0.0118    1.5124   -0.0000 C   0  0  0  0  0  0  0  0  0  0  0  0
    1.2643    2.2686   -0.0000 C   0  0  0  0  0  0  0  0  0  0  0  0
   -1.3115    2.2804   -0.0000 C   0  0  0  0  0  0  0  0  0  0  0  0
    1.2643    3.7810   -0.0000 C   0  0  0  0  0  0  0  0  0  0  0  0
    2.5522    1.5242   -0.0000 C   0  0  0  0  0  0  0  0  0  0  0  0
   -1.3115    3.7928   -0.0000 C   0  0  0  0  0  0  0  0  0  0  0  0
   -0.0354    4.5490   -0.0000 O   0  0  0  0  0  0  0  0  0  0  0  0
    2.5404    4.5490   -0.0000 C   0  0  0  0  0  0  0  0  0  0  0  0
    3.8401    2.2922   -0.0000 C   0  0  0  0  0  0  0  0  0  0  0  0
   -2.6231    4.5608   -0.0000 C   0  0  0  0  0  0  0  0  0  0  0  0
    3.8283    3.8164   -0.0000 C   0  0  0  0  0  0  0  0  0  0  0  0
   -3.9346    3.8283   -0.0000 O   0  0  0  0  0  0  0  0  0  0  0  0
   -2.6231    6.0732   -0.0000 N   0  0  0  0  0  0  0  0  0  0  0  0
   -3.9346    6.8412   -0.0000 C   0  0  0  0  0  0  0  0  0  0  0  0
   -3.9346    8.3536   -0.0000 C   0  0  0  0  0  0  0  0  0  0  0  0
   -5.2461    6.1087   -0.0000 C   0  0  0  0  0  0  0  0  0  0  0  0
   -2.6467    9.0980   -0.0000 C   0  0  0  0  0  0  0  0  0  0  0  0
   -5.2343    9.1216   -0.0000 C   0  0  0  0  0  0  0  0  0  0  0  0
   -6.5577    6.8767   -0.0000 C   0  0  0  0  0  0  0  0  0  0  0  0
   -2.4931   10.5986   -0.0000 N   0  0  0  0  0  0  0  0  0  0  0  0
   -1.2879    8.4836   -0.0000 N   0  0  0  0  0  0  0  0  0  0  0  0
   -6.5577    8.3891   -0.0000 C   0  0  0  0  0  0  0  0  0  0  0  0
   -7.8692    6.1441   -0.0000 O   0  0  0  0  0  0  0  0  0  0  0  0
   -1.0398   10.9058   -0.0000 N   0  0  0  0  0  0  0  0  0  0  0  0
   -0.2836    9.6061   -0.0000 N   0  0  0  0  0  0  0  0  0  0  0  0
   -7.8692    9.1571   -0.0000 O   0  0  0  0  0  0  0  0  0  0  0  0
   -9.1807    6.9121   -0.0000 C   0  0  0  0  0  0  0  0  0  0  0  0
    1.1934    9.4525   -0.0000 C   0  0  0  0  0  0  0  0  0  0  0  0
   -7.8692   10.6695   -0.0000 C   0  0  0  0  0  0  0  0  0  0  0  0
    1.7842    8.0819   -0.0000 C   0  0  0  0  0  0  0  0  0  0  0  0
    2.0677   10.6695   -0.0000 C   0  0  0  0  0  0  0  0  0  0  0  0
    3.2611    7.9283   -0.0000 C   0  0  0  0  0  0  0  0  0  0  0  0
    3.5447   10.5159   -0.0000 C   0  0  0  0  0  0  0  0  0  0  0  0
    4.1473    9.1453   -0.0000 C   0  0  0  0  0  0  0  0  0  0  0  0
    5.6242    8.9917   -0.0000 C   0  0  0  0  0  0  0  0  0  0  0  0
    6.2150    7.6329   -0.0000 C   0  0  0  0  0  0  0  0  0  0  0  0
    7.6920    7.4793   -0.0000 N   0  0  0  0  0  0  0  0  0  0  0  0
    8.5663    8.6963   -0.0000 C   0  0  0  0  0  0  0  0  0  0  0  0
    8.2709    6.1087   -0.0000 C   0  0  0  0  0  0  0  0  0  0  0  0
   10.0433    8.5427   -0.0000 C   0  0  0  0  0  0  0  0  0  0  0  0
    9.7479    5.9551   -0.0000 C   0  0  0  0  0  0  0  0  0  0  0  0
   10.6340    7.1839   -0.0000 N   0  0  0  0  0  0  0  0  0  0  0  0
   11.1539    9.5588   -0.0000 C   0  0  0  0  0  0  0  0  0  0  0  0
   12.1110    7.3493   -0.0000 C   0  0  0  0  0  0  0  0  0  0  0  0
   12.4418    8.8144   -0.0000 N   0  0  0  0  0  0  0  0  0  0  0  0
  1  2  2  0  0  0  0
  2  3  1  0  0  0  0
  2  4  1  0  0  0  0
  3  5  2  0  0  0  0
  3  6  1  0  0  0  0
  4  7  2  0  0  0  0
  5  8  1  0  0  0  0
  5  9  1  0  0  0  0
  6 10  2  0  0  0  0
  7 11  1  0  0  0  0
  9 12  2  0  0  0  0
 11 13  2  0  0  0  0
 11 14  1  0  0  0  0
 14 15  1  0  0  0  0
 15 16  2  0  0  0  0
 15 17  1  0  0  0  0
 16 18  1  0  0  0  0
 16 19  1  0  0  0  0
 17 20  2  0  0  0  0
 18 21  1  0  0  0  0
 18 22  2  0  0  0  0
 19 23  2  0  0  0  0
 20 24  1  0  0  0  0
 21 25  2  0  0  0  0
 22 26  1  0  0  0  0
 23 27  1  0  0  0  0
 24 28  1  0  0  0  0
 26 29  1  0  0  0  0
 27 30  1  0  0  0  0
 29 31  2  0  0  0  0
 29 32  1  0  0  0  0
 31 33  1  0  0  0  0
 32 34  2  0  0  0  0
 33 35  2  0  0  0  0
 35 36  1  0  0  0  0
 36 37  1  0  0  0  0
 37 38  1  0  0  0  0
 38 39  1  0  0  0  0
 38 40  1  0  0  0  0
 39 41  1  0  0  0  0
 40 42  1  0  0  0  0
 41 43  1  0  0  0  0
 41 44  2  0  0  0  0
 43 45  1  0  0  0  0
 44 46  1  0  0  0  0
  7  8  1  0  0  0  0
 10 12  1  0  0  0  0
 20 23  1  0  0  0  0
 25 26  1  0  0  0  0
 34 35  1  0  0  0  0
 42 43  1  0  0  0  0
 45 46  2  0  0  0  0
M  END
>  <MolRegNo>
2729200

>  <m>
=

>  <Value>
149

>  <Unit>
nM

>  <Type>
IC50

>  <pValue>
6.83

>  <Ligand Efficiency>
0.2

>  <Binding Efficiency>
11.04

>  <Surface Efficiency>
4.79

>  <Assay Index>
1510383

>  <Assay Category>


>  <Assay Organism>
Homo sapiens

>  <Target ID>
17045

>  <Target Name>
Cytochrome P450 3A4

>  <Target Organism>
Homo sapiens

>  <Target Description>
Target is a single protein chain

>  <Sequence Accession>
P08684

>  <Reference>
J Med Chem 65 (1.0), 191-216 (2022)

>  <Pubmed ID>
34928144

>  <DOI>
10.1021/acs.jmedchem.1c01272

$$$$
2721913
Actelion Java MolfileCreator 1.0

 47 53  0  0  0  0  0  0  0  0999 V2000
    0.0000   -0.0000   -0.0000 O   0  0  0  0  0  0  0  0  0  0  0  0
   -0.0118    1.5134   -0.0000 C   0  0  0  0  0  0  0  0  0  0  0  0
    1.2651    2.2700   -0.0000 C   0  0  0  0  0  0  0  0  0  0  0  0
   -1.3124    2.2819   -0.0000 C   0  0  0  0  0  0  0  0  0  0  0  0
    1.2651    3.7834   -0.0000 C   0  0  0  0  0  0  0  0  0  0  0  0
    2.5538    1.5252   -0.0000 C   0  0  0  0  0  0  0  0  0  0  0  0
   -1.3124    3.7952   -0.0000 C   0  0  0  0  0  0  0  0  0  0  0  0
   -0.0355    4.5519   -0.0000 O   0  0  0  0  0  0  0  0  0  0  0  0
    2.5420    4.5519   -0.0000 C   0  0  0  0  0  0  0  0  0  0  0  0
    3.8425    2.2937   -0.0000 C   0  0  0  0  0  0  0  0  0  0  0  0
   -2.6247    4.5637   -0.0000 C   0  0  0  0  0  0  0  0  0  0  0  0
    3.8307    3.8188   -0.0000 C   0  0  0  0  0  0  0  0  0  0  0  0
   -3.9371    3.8307   -0.0000 O   0  0  0  0  0  0  0  0  0  0  0  0
   -2.6247    6.0771   -0.0000 N   0  0  0  0  0  0  0  0  0  0  0  0
   -3.9371    6.8456   -0.0000 C   0  0  0  0  0  0  0  0  0  0  0  0
   -3.9371    8.3589   -0.0000 C   0  0  0  0  0  0  0  0  0  0  0  0
   -5.2494    6.1125   -0.0000 C   0  0  0  0  0  0  0  0  0  0  0  0
   -2.6484    9.1038   -0.0000 C   0  0  0  0  0  0  0  0  0  0  0  0
   -5.2376    9.1274   -0.0000 C   0  0  0  0  0  0  0  0  0  0  0  0
   -6.5500    6.8810   -0.0000 C   0  0  0  0  0  0  0  0  0  0  0  0
   -2.4947   10.6053   -0.0000 N   0  0  0  0  0  0  0  0  0  0  0  0
   -1.2887    8.5008   -0.0000 N   0  0  0  0  0  0  0  0  0  0  0  0
   -6.5618    8.3944   -0.0000 C   0  0  0  0  0  0  0  0  0  0  0  0
   -7.8623    6.1480   -0.0000 O   0  0  0  0  0  0  0  0  0  0  0  0
   -1.0404   10.9127   -0.0000 N   0  0  0  0  0  0  0  0  0  0  0  0
   -0.2838    9.6240   -0.0000 N   0  0  0  0  0  0  0  0  0  0  0  0
   -7.8742    9.1629   -0.0000 O   0  0  0  0  0  0  0  0  0  0  0  0
   -9.1747    6.9165   -0.0000 C   0  0  0  0  0  0  0  0  0  0  0  0
    1.1941    9.4703   -0.0000 C   0  0  0  0  0  0  0  0  0  0  0  0
   -7.8742   10.6762   -0.0000 C   0  0  0  0  0  0  0  0  0  0  0  0
    1.7853    8.0988   -0.0000 C   0  0  0  0  0  0  0  0  0  0  0  0
    2.0690   10.6880   -0.0000 C   0  0  0  0  0  0  0  0  0  0  0  0
    3.2632    7.9451   -0.0000 C   0  0  0  0  0  0  0  0  0  0  0  0
    3.5469   10.5343   -0.0000 C   0  0  0  0  0  0  0  0  0  0  0  0
    4.1499    9.1629   -0.0000 C   0  0  0  0  0  0  0  0  0  0  0  0
    5.6278    9.0092   -0.0000 C   0  0  0  0  0  0  0  0  0  0  0  0
    6.2189    7.6495   -0.0000 C   0  0  0  0  0  0  0  0  0  0  0  0
    7.6968    7.4958   -0.0000 N   0  0  0  0  0  0  0  0  0  0  0  0
    8.5717    8.7136   -0.0000 C   0  0  0  0  0  0  0  0  0  0  0  0
    8.2761    6.1243   -0.0000 C   0  0  0  0  0  0  0  0  0  0  0  0
   10.0496    8.5599   -0.0000 C   0  0  0  0  0  0  0  0  0  0  0  0
    9.7540    5.9706   -0.0000 C   0  0  0  0  0  0  0  0  0  0  0  0
   10.6408    7.2002   -0.0000 C   0  0  0  0  0  0  0  0  0  0  0  0
   10.9127    9.7777   -0.0000 C   0  0  0  0  0  0  0  0  0  0  0  0
   12.1186    7.0465   -0.0000 C   0  0  0  0  0  0  0  0  0  0  0  0
   12.3906    9.6358   -0.0000 C   0  0  0  0  0  0  0  0  0  0  0  0
   12.9935    8.2643   -0.0000 N   0  0  0  0  0  0  0  0  0  0  0  0
  1  2  2  0  0  0  0
  2  3  1  0  0  0  0
  2  4  1  0  0  0  0
  3  5  2  0  0  0  0
  3  6  1  0  0  0  0
  4  7  2  0  0  0  0
  5  8  1  0  0  0  0
  5  9  1  0  0  0  0
  6 10  2  0  0  0  0
  7 11  1  0  0  0  0
  9 12  2  0  0  0  0
 11 13  2  0  0  0  0
 11 14  1  0  0  0  0
 14 15  1  0  0  0  0
 15 16  2  0  0  0  0
 15 17  1  0  0  0  0
 16 18  1  0  0  0  0
 16 19  1  0  0  0  0
 17 20  2  0  0  0  0
 18 21  1  0  0  0  0
 18 22  2  0  0  0  0
 19 23  2  0  0  0  0
 20 24  1  0  0  0  0
 21 25  2  0  0  0  0
 22 26  1  0  0  0  0
 23 27  1  0  0  0  0
 24 28  1  0  0  0  0
 26 29  1  0  0  0  0
 27 30  1  0  0  0  0
 29 31  2  0  0  0  0
 29 32  1  0  0  0  0
 31 33  1  0  0  0  0
 32 34  2  0  0  0  0
 33 35  2  0  0  0  0
 35 36  1  0  0  0  0
 36 37  1  0  0  0  0
 37 38  1  0  0  0  0
 38 39  1  0  0  0  0
 38 40  1  0  0  0  0
 39 41  1  0  0  0  0
 40 42  1  0  0  0  0
 41 43  2  0  0  0  0
 41 44  1  0  0  0  0
 43 45  1  0  0  0  0
 44 46  2  0  0  0  0
 45 47  2  0  0  0  0
  7  8  1  0  0  0  0
 10 12  1  0  0  0  0
 20 23  1  0  0  0  0
 25 26  1  0  0  0  0
 34 35  1  0  0  0  0
 42 43  1  0  0  0  0
 46 47  1  0  0  0  0
M  END
>  <MolRegNo>
2721913

>  <m>
=

>  <Value>
1074

>  <Unit>
nM

>  <Type>
IC50

>  <pValue>
5.97

>  <Ligand Efficiency>
0.17

>  <Binding Efficiency>
9.48

>  <Surface Efficiency>
4.34

>  <Assay Index>
1510383

>  <Assay Category>


>  <Assay Organism>
Homo sapiens

>  <Target ID>
17045

>  <Target Name>
Cytochrome P450 3A4

>  <Target Organism>
Homo sapiens

>  <Target Description>
Target is a single protein chain

>  <Sequence Accession>
P08684

>  <Reference>
J Med Chem 65 (1.0), 191-216 (2022)

>  <Pubmed ID>
34928144

>  <DOI>
10.1021/acs.jmedchem.1c01272

$$$$
2719565
Actelion Java MolfileCreator 1.0

 47 53  0  0  0  0  0  0  0  0999 V2000
    0.0000   -0.0000   -0.0000 O   0  0  0  0  0  0  0  0  0  0  0  0
   -0.0118    1.5134   -0.0000 C   0  0  0  0  0  0  0  0  0  0  0  0
    1.2651    2.2700   -0.0000 C   0  0  0  0  0  0  0  0  0  0  0  0
   -1.3124    2.2819   -0.0000 C   0  0  0  0  0  0  0  0  0  0  0  0
    1.2651    3.7834   -0.0000 C   0  0  0  0  0  0  0  0  0  0  0  0
    2.5538    1.5252   -0.0000 C   0  0  0  0  0  0  0  0  0  0  0  0
   -1.3124    3.7952   -0.0000 C   0  0  0  0  0  0  0  0  0  0  0  0
   -0.0355    4.5519   -0.0000 O   0  0  0  0  0  0  0  0  0  0  0  0
    2.5420    4.5519   -0.0000 C   0  0  0  0  0  0  0  0  0  0  0  0
    3.8425    2.2937   -0.0000 C   0  0  0  0  0  0  0  0  0  0  0  0
   -2.6247    4.5637   -0.0000 C   0  0  0  0  0  0  0  0  0  0  0  0
    3.8307    3.8188   -0.0000 C   0  0  0  0  0  0  0  0  0  0  0  0
   -3.9371    3.8307   -0.0000 O   0  0  0  0  0  0  0  0  0  0  0  0
   -2.6247    6.0771   -0.0000 N   0  0  0  0  0  0  0  0  0  0  0  0
   -3.9371    6.8456   -0.0000 C   0  0  0  0  0  0  0  0  0  0  0  0
   -3.9371    8.3589   -0.0000 C   0  0  0  0  0  0  0  0  0  0  0  0
   -5.2494    6.1125   -0.0000 C   0  0  0  0  0  0  0  0  0  0  0  0
   -2.6484    9.1038   -0.0000 C   0  0  0  0  0  0  0  0  0  0  0  0
   -5.2376    9.1274   -0.0000 C   0  0  0  0  0  0  0  0  0  0  0  0
   -6.5500    6.8810   -0.0000 C   0  0  0  0  0  0  0  0  0  0  0  0
   -2.4947   10.6053   -0.0000 N   0  0  0  0  0  0  0  0  0  0  0  0
   -1.2887    8.5008   -0.0000 N   0  0  0  0  0  0  0  0  0  0  0  0
   -6.5618    8.3944   -0.0000 C   0  0  0  0  0  0  0  0  0  0  0  0
   -7.8623    6.1480   -0.0000 O   0  0  0  0  0  0  0  0  0  0  0  0
   -1.0404   10.9127   -0.0000 N   0  0  0  0  0  0  0  0  0  0  0  0
   -0.2838    9.6240   -0.0000 N   0  0  0  0  0  0  0  0  0  0  0  0
   -7.8742    9.1629   -0.0000 O   0  0  0  0  0  0  0  0  0  0  0  0
   -9.1747    6.9165   -0.0000 C   0  0  0  0  0  0  0  0  0  0  0  0
    1.1941    9.4703   -0.0000 C   0  0  0  0  0  0  0  0  0  0  0  0
   -7.8742   10.6762   -0.0000 C   0  0  0  0  0  0  0  0  0  0  0  0
    1.7853    8.0988   -0.0000 C   0  0  0  0  0  0  0  0  0  0  0  0
    2.0690   10.6880   -0.0000 C   0  0  0  0  0  0  0  0  0  0  0  0
    3.2632    7.9451   -0.0000 C   0  0  0  0  0  0  0  0  0  0  0  0
    3.5469   10.5343   -0.0000 C   0  0  0  0  0  0  0  0  0  0  0  0
    4.1499    9.1629   -0.0000 C   0  0  0  0  0  0  0  0  0  0  0  0
    5.6278    9.0092   -0.0000 C   0  0  0  0  0  0  0  0  0  0  0  0
    6.2189    7.6495   -0.0000 C   0  0  0  0  0  0  0  0  0  0  0  0
    7.6968    7.4958   -0.0000 N   0  0  0  0  0  0  0  0  0  0  0  0
    8.5717    8.7136   -0.0000 C   0  0  0  0  0  0  0  0  0  0  0  0
    8.2761    6.1243   -0.0000 C   0  0  0  0  0  0  0  0  0  0  0  0
   10.0496    8.5599   -0.0000 C   0  0  0  0  0  0  0  0  0  0  0  0
    9.7540    5.9706   -0.0000 C   0  0  0  0  0  0  0  0  0  0  0  0
   10.6408    7.2002   -0.0000 C   0  0  0  0  0  0  0  0  0  0  0  0
   10.9127    9.7777   -0.0000 C   0  0  0  0  0  0  0  0  0  0  0  0
   12.1186    7.0465   -0.0000 C   0  0  0  0  0  0  0  0  0  0  0  0
   12.3906    9.6358   -0.0000 N   0  0  0  0  0  0  0  0  0  0  0  0
   12.9935    8.2643   -0.0000 C   0  0  0  0  0  0  0  0  0  0  0  0
  1  2  2  0  0  0  0
  2  3  1  0  0  0  0
  2  4  1  0  0  0  0
  3  5  2  0  0  0  0
  3  6  1  0  0  0  0
  4  7  2  0  0  0  0
  5  8  1  0  0  0  0
  5  9  1  0  0  0  0
  6 10  2  0  0  0  0
  7 11  1  0  0  0  0
  9 12  2  0  0  0  0
 11 13  2  0  0  0  0
 11 14  1  0  0  0  0
 14 15  1  0  0  0  0
 15 16  2  0  0  0  0
 15 17  1  0  0  0  0
 16 18  1  0  0  0  0
 16 19  1  0  0  0  0
 17 20  2  0  0  0  0
 18 21  1  0  0  0  0
 18 22  2  0  0  0  0
 19 23  2  0  0  0  0
 20 24  1  0  0  0  0
 21 25  2  0  0  0  0
 22 26  1  0  0  0  0
 23 27  1  0  0  0  0
 24 28  1  0  0  0  0
 26 29  1  0  0  0  0
 27 30  1  0  0  0  0
 29 31  2  0  0  0  0
 29 32  1  0  0  0  0
 31 33  1  0  0  0  0
 32 34  2  0  0  0  0
 33 35  2  0  0  0  0
 35 36  1  0  0  0  0
 36 37  1  0  0  0  0
 37 38  1  0  0  0  0
 38 39  1  0  0  0  0
 38 40  1  0  0  0  0
 39 41  1  0  0  0  0
 40 42  1  0  0  0  0
 41 43  2  0  0  0  0
 41 44  1  0  0  0  0
 43 45  1  0  0  0  0
 44 46  2  0  0  0  0
 45 47  2  0  0  0  0
  7  8  1  0  0  0  0
 10 12  1  0  0  0  0
 20 23  1  0  0  0  0
 25 26  1  0  0  0  0
 34 35  1  0  0  0  0
 42 43  1  0  0  0  0
 46 47  1  0  0  0  0
M  END
>  <MolRegNo>
2719565

>  <m>
=

>  <Value>
1054

>  <Unit>
nM

>  <Type>
IC50

>  <pValue>
5.98

>  <Ligand Efficiency>
0.17

>  <Binding Efficiency>
9.49

>  <Surface Efficiency>
4.35

>  <Assay Index>
1510383

>  <Assay Category>


>  <Assay Organism>
Homo sapiens

>  <Target ID>
17045

>  <Target Name>
Cytochrome P450 3A4

>  <Target Organism>
Homo sapiens

>  <Target Description>
Target is a single protein chain

>  <Sequence Accession>
P08684

>  <Reference>
J Med Chem 65 (1.0), 191-216 (2022)

>  <Pubmed ID>
34928144

>  <DOI>
10.1021/acs.jmedchem.1c01272

$$$$
2721752
Actelion Java MolfileCreator 1.0

 56 63  0  0  0  0  0  0  0  0999 V2000
    0.0000   -0.0000   -0.0000 O   0  0  0  0  0  0  0  0  0  0  0  0
   -0.0118    1.5157   -0.0000 C   0  0  0  0  0  0  0  0  0  0  0  0
    1.2671    2.2736   -0.0000 C   0  0  0  0  0  0  0  0  0  0  0  0
   -1.3144    2.2854   -0.0000 C   0  0  0  0  0  0  0  0  0  0  0  0
    1.2671    3.7893   -0.0000 C   0  0  0  0  0  0  0  0  0  0  0  0
    2.5578    1.5276   -0.0000 C   0  0  0  0  0  0  0  0  0  0  0  0
   -1.3144    3.8012   -0.0000 C   0  0  0  0  0  0  0  0  0  0  0  0
   -0.0355    4.5590   -0.0000 O   0  0  0  0  0  0  0  0  0  0  0  0
    2.5460    4.5590   -0.0000 C   0  0  0  0  0  0  0  0  0  0  0  0
    3.8485    2.2973   -0.0000 C   0  0  0  0  0  0  0  0  0  0  0  0
   -2.6289    4.5709   -0.0000 C   0  0  0  0  0  0  0  0  0  0  0  0
    3.8367    3.8249   -0.0000 C   0  0  0  0  0  0  0  0  0  0  0  0
    5.1393    1.5631   -0.0000 N   0  0  0  0  0  0  0  0  0  0  0  0
   -3.9433    3.8367   -0.0000 O   0  0  0  0  0  0  0  0  0  0  0  0
   -2.6289    6.0866   -0.0000 N   0  0  0  0  0  0  0  0  0  0  0  0
    6.5011    2.1907   -0.0000 C   0  0  0  0  0  0  0  0  0  0  0  0
    5.2932    0.0829   -0.0000 C   0  0  0  0  0  0  0  0  0  0  0  0
   -3.9433    6.8563   -0.0000 C   0  0  0  0  0  0  0  0  0  0  0  0
    7.4958    1.0894   -0.0000 N   0  0  0  0  0  0  0  0  0  0  0  0
    6.7498   -0.2132   -0.0000 C   0  0  0  0  0  0  0  0  0  0  0  0
   -3.9433    8.3721   -0.0000 C   0  0  0  0  0  0  0  0  0  0  0  0
   -5.2577    6.1221   -0.0000 C   0  0  0  0  0  0  0  0  0  0  0  0
   -2.6525    9.1181   -0.0000 C   0  0  0  0  0  0  0  0  0  0  0  0
   -5.2459    9.1418   -0.0000 C   0  0  0  0  0  0  0  0  0  0  0  0
   -6.5721    6.8919   -0.0000 C   0  0  0  0  0  0  0  0  0  0  0  0
   -2.4986   10.6220   -0.0000 N   0  0  0  0  0  0  0  0  0  0  0  0
   -1.2907    8.5023   -0.0000 N   0  0  0  0  0  0  0  0  0  0  0  0
   -6.5721    8.4076   -0.0000 C   0  0  0  0  0  0  0  0  0  0  0  0
   -7.8866    6.1577   -0.0000 O   0  0  0  0  0  0  0  0  0  0  0  0
   -1.0421   10.9299   -0.0000 N   0  0  0  0  0  0  0  0  0  0  0  0
   -0.2842    9.6273   -0.0000 N   0  0  0  0  0  0  0  0  0  0  0  0
   -7.8866    9.1773   -0.0000 O   0  0  0  0  0  0  0  0  0  0  0  0
   -9.2010    6.9274   -0.0000 C   0  0  0  0  0  0  0  0  0  0  0  0
    1.1960    9.4733   -0.0000 C   0  0  0  0  0  0  0  0  0  0  0  0
   -7.8866   10.6930   -0.0000 C   0  0  0  0  0  0  0  0  0  0  0  0
    1.7881    8.0997   -0.0000 C   0  0  0  0  0  0  0  0  0  0  0  0
    2.0723   10.6930   -0.0000 C   0  0  0  0  0  0  0  0  0  0  0  0
    3.2683    7.9458   -0.0000 C   0  0  0  0  0  0  0  0  0  0  0  0
    3.5525   10.5391   -0.0000 C   0  0  0  0  0  0  0  0  0  0  0  0
    4.1564    9.1655   -0.0000 C   0  0  0  0  0  0  0  0  0  0  0  0
    5.6366    9.0115   -0.0000 C   0  0  0  0  0  0  0  0  0  0  0  0
    6.2287    7.6497   -0.0000 C   0  0  0  0  0  0  0  0  0  0  0  0
    7.7089    7.4958   -0.0000 N   0  0  0  0  0  0  0  0  0  0  0  0
    8.5852    8.7155   -0.0000 C   0  0  0  0  0  0  0  0  0  0  0  0
    8.2892    6.1221   -0.0000 C   0  0  0  0  0  0  0  0  0  0  0  0
   10.0773    8.5497   -0.0000 C   0  0  0  0  0  0  0  0  0  0  0  0
    9.7694    5.9682   -0.0000 C   0  0  0  0  0  0  0  0  0  0  0  0
   10.6575    7.1879   -0.0000 C   0  0  0  0  0  0  0  0  0  0  0  0
   10.9535    9.7575   -0.0000 C   0  0  0  0  0  0  0  0  0  0  0  0
   12.1259    7.0340   -0.0000 C   0  0  0  0  0  0  0  0  0  0  0  0
   12.4219    9.6036   -0.0000 C   0  0  0  0  0  0  0  0  0  0  0  0
   13.0022    8.2536   -0.0000 C   0  0  0  0  0  0  0  0  0  0  0  0
   13.2982   10.8233   -0.0000 O   0  0  0  0  0  0  0  0  0  0  0  0
   14.4824    8.0997   -0.0000 O   0  0  0  0  0  0  0  0  0  0  0  0
   14.7784   10.6693   -0.0000 C   0  0  0  0  0  0  0  0  0  0  0  0
   15.0744    6.7379   -0.0000 C   0  0  0  0  0  0  0  0  0  0  0  0
  1  2  2  0  0  0  0
  2  3  1  0  0  0  0
  2  4  1  0  0  0  0
  3  5  2  0  0  0  0
  3  6  1  0  0  0  0
  4  7  2  0  0  0  0
  5  8  1  0  0  0  0
  5  9  1  0  0  0  0
  6 10  2  0  0  0  0
  7 11  1  0  0  0  0
  9 12  2  0  0  0  0
 10 13  1  0  0  0  0
 11 14  2  0  0  0  0
 11 15  1  0  0  0  0
 13 16  1  0  0  0  0
 13 17  1  0  0  0  0
 15 18  1  0  0  0  0
 16 19  2  0  0  0  0
 17 20  2  0  0  0  0
 18 21  2  0  0  0  0
 18 22  1  0  0  0  0
 21 23  1  0  0  0  0
 21 24  1  0  0  0  0
 22 25  2  0  0  0  0
 23 26  1  0  0  0  0
 23 27  2  0  0  0  0
 24 28  2  0  0  0  0
 25 29  1  0  0  0  0
 26 30  2  0  0  0  0
 27 31  1  0  0  0  0
 28 32  1  0  0  0  0
 29 33  1  0  0  0  0
 31 34  1  0  0  0  0
 32 35  1  0  0  0  0
 34 36  2  0  0  0  0
 34 37  1  0  0  0  0
 36 38  1  0  0  0  0
 37 39  2  0  0  0  0
 38 40  2  0  0  0  0
 40 41  1  0  0  0  0
 41 42  1  0  0  0  0
 42 43  1  0  0  0  0
 43 44  1  0  0  0  0
 43 45  1  0  0  0  0
 44 46  1  0  0  0  0
 45 47  1  0  0  0  0
 46 48  2  0  0  0  0
 46 49  1  0  0  0  0
 48 50  1  0  0  0  0
 49 51  2  0  0  0  0
 50 52  2  0  0  0  0
 51 53  1  0  0  0  0
 52 54  1  0  0  0  0
 53 55  1  0  0  0  0
 54 56  1  0  0  0  0
  7  8  1  0  0  0  0
 10 12  1  0  0  0  0
 19 20  1  0  0  0  0
 25 28  1  0  0  0  0
 30 31  1  0  0  0  0
 39 40  1  0  0  0  0
 47 48  1  0  0  0  0
 51 52  1  0  0  0  0
M  END
>  <MolRegNo>
2721752

>  <m>
=

>  <Value>
3341

>  <Unit>
nM

>  <Type>
IC50

>  <pValue>
5.48

>  <Ligand Efficiency>
0.13

>  <Binding Efficiency>
7.26

>  <Surface Efficiency>
3.4

>  <Assay Index>
1510383

>  <Assay Category>


>  <Assay Organism>
Homo sapiens

>  <Target ID>
17045

>  <Target Name>
Cytochrome P450 3A4

>  <Target Organism>
Homo sapiens

>  <Target Description>
Target is a single protein chain

>  <Sequence Accession>
P08684

>  <Reference>
J Med Chem 65 (1.0), 191-216 (2022)

>  <Pubmed ID>
34928144

>  <DOI>
10.1021/acs.jmedchem.1c01272

$$$$
2723517
Actelion Java MolfileCreator 1.0

 51 57  0  0  0  0  0  0  0  0999 V2000
    0.0000   -0.0000   -0.0000 O   0  0  0  0  0  0  0  0  0  0  0  0
    1.2932    0.7593   -0.0000 C   0  0  0  0  0  0  0  0  0  0  0  0
    1.2932    2.2779   -0.0000 N   0  0  0  0  0  0  0  0  0  0  0  0
    2.5863    0.0119   -0.0000 C   0  0  0  0  0  0  0  0  0  0  0  0
   -0.0237    3.0490   -0.0000 C   0  0  0  0  0  0  0  0  0  0  0  0
    2.5626   -1.4830   -0.0000 C   0  0  0  0  0  0  0  0  0  0  0  0
    3.8676    0.7711   -0.0000 C   0  0  0  0  0  0  0  0  0  0  0  0
   -0.0237    4.5676   -0.0000 C   0  0  0  0  0  0  0  0  0  0  0  0
   -1.3406    2.3134   -0.0000 C   0  0  0  0  0  0  0  0  0  0  0  0
    3.8439   -2.2304   -0.0000 C   0  0  0  0  0  0  0  0  0  0  0  0
    5.1608    0.0237   -0.0000 C   0  0  0  0  0  0  0  0  0  0  0  0
    1.2694    5.3150   -0.0000 C   0  0  0  0  0  0  0  0  0  0  0  0
   -1.3287    5.3387   -0.0000 C   0  0  0  0  0  0  0  0  0  0  0  0
   -2.6575    3.0846   -0.0000 C   0  0  0  0  0  0  0  0  0  0  0  0
    5.1489   -1.4711   -0.0000 C   0  0  0  0  0  0  0  0  0  0  0  0
    1.4237    6.8217   -0.0000 N   0  0  0  0  0  0  0  0  0  0  0  0
    2.6338    4.6981   -0.0000 N   0  0  0  0  0  0  0  0  0  0  0  0
   -2.6575    4.6032   -0.0000 C   0  0  0  0  0  0  0  0  0  0  0  0
   -3.9744    2.3490   -0.0000 O   0  0  0  0  0  0  0  0  0  0  0  0
    6.4302   -2.2185   -0.0000 N   0  0  0  0  0  0  0  0  0  0  0  0
    2.8829    7.1302   -0.0000 N   0  0  0  0  0  0  0  0  0  0  0  0
    3.6422    5.8251   -0.0000 N   0  0  0  0  0  0  0  0  0  0  0  0
   -3.9744    5.3743   -0.0000 O   0  0  0  0  0  0  0  0  0  0  0  0
   -5.2913    3.1202   -0.0000 C   0  0  0  0  0  0  0  0  0  0  0  0
    6.5726   -3.6897   -0.0000 C   0  0  0  0  0  0  0  0  0  0  0  0
    7.8064   -1.6016   -0.0000 C   0  0  0  0  0  0  0  0  0  0  0  0
    5.1252    5.6709   -0.0000 C   0  0  0  0  0  0  0  0  0  0  0  0
   -3.9744    6.8929   -0.0000 C   0  0  0  0  0  0  0  0  0  0  0  0
    8.0318   -3.9981   -0.0000 N   0  0  0  0  0  0  0  0  0  0  0  0
    8.7911   -2.7168   -0.0000 C   0  0  0  0  0  0  0  0  0  0  0  0
    5.7184    4.2947   -0.0000 C   0  0  0  0  0  0  0  0  0  0  0  0
    6.0031    6.8929   -0.0000 C   0  0  0  0  0  0  0  0  0  0  0  0
    7.2013    4.1405   -0.0000 C   0  0  0  0  0  0  0  0  0  0  0  0
    7.4861    6.7387   -0.0000 C   0  0  0  0  0  0  0  0  0  0  0  0
    8.0911    5.3625   -0.0000 C   0  0  0  0  0  0  0  0  0  0  0  0
    9.5741    5.2082   -0.0000 C   0  0  0  0  0  0  0  0  0  0  0  0
   10.1673    3.8439   -0.0000 C   0  0  0  0  0  0  0  0  0  0  0  0
   11.6503    3.6897   -0.0000 N   0  0  0  0  0  0  0  0  0  0  0  0
   12.5282    4.9116   -0.0000 C   0  0  0  0  0  0  0  0  0  0  0  0
   12.2316    2.3134   -0.0000 C   0  0  0  0  0  0  0  0  0  0  0  0
   14.0230    4.7455   -0.0000 C   0  0  0  0  0  0  0  0  0  0  0  0
   13.7146    2.1592   -0.0000 C   0  0  0  0  0  0  0  0  0  0  0  0
   14.6044    3.3812   -0.0000 C   0  0  0  0  0  0  0  0  0  0  0  0
   14.9010    5.9556   -0.0000 C   0  0  0  0  0  0  0  0  0  0  0  0
   16.0755    3.2270   -0.0000 C   0  0  0  0  0  0  0  0  0  0  0  0
   16.3721    5.8014   -0.0000 C   0  0  0  0  0  0  0  0  0  0  0  0
   16.9534    4.4489   -0.0000 C   0  0  0  0  0  0  0  0  0  0  0  0
   17.2500    7.0234   -0.0000 O   0  0  0  0  0  0  0  0  0  0  0  0
   18.4364    4.2947   -0.0000 O   0  0  0  0  0  0  0  0  0  0  0  0
   18.7330    6.8692   -0.0000 C   0  0  0  0  0  0  0  0  0  0  0  0
   19.0296    2.9304   -0.0000 C   0  0  0  0  0  0  0  0  0  0  0  0
  1  2  2  0  0  0  0
  2  3  1  0  0  0  0
  2  4  1  0  0  0  0
  3  5  1  0  0  0  0
  4  6  2  0  0  0  0
  4  7  1  0  0  0  0
  5  8  2  0  0  0  0
  5  9  1  0  0  0  0
  6 10  1  0  0  0  0
  7 11  2  0  0  0  0
  8 12  1  0  0  0  0
  8 13  1  0  0  0  0
  9 14  2  0  0  0  0
 10 15  2  0  0  0  0
 12 16  1  0  0  0  0
 12 17  2  0  0  0  0
 13 18  2  0  0  0  0
 14 19  1  0  0  0  0
 15 20  1  0  0  0  0
 16 21  2  0  0  0  0
 17 22  1  0  0  0  0
 18 23  1  0  0  0  0
 19 24  1  0  0  0  0
 20 25  1  0  0  0  0
 20 26  1  0  0  0  0
 22 27  1  0  0  0  0
 23 28  1  0  0  0  0
 25 29  2  0  0  0  0
 26 30  2  0  0  0  0
 27 31  2  0  0  0  0
 27 32  1  0  0  0  0
 31 33  1  0  0  0  0
 32 34  2  0  0  0  0
 33 35  2  0  0  0  0
 35 36  1  0  0  0  0
 36 37  1  0  0  0  0
 37 38  1  0  0  0  0
 38 39  1  0  0  0  0
 38 40  1  0  0  0  0
 39 41  1  0  0  0  0
 40 42  1  0  0  0  0
 41 43  2  0  0  0  0
 41 44  1  0  0  0  0
 43 45  1  0  0  0  0
 44 46  2  0  0  0  0
 45 47  2  0  0  0  0
 46 48  1  0  0  0  0
 47 49  1  0  0  0  0
 48 50  1  0  0  0  0
 49 51  1  0  0  0  0
 11 15  1  0  0  0  0
 14 18  1  0  0  0  0
 21 22  1  0  0  0  0
 29 30  1  0  0  0  0
 34 35  1  0  0  0  0
 42 43  1  0  0  0  0
 46 47  1  0  0  0  0
M  END
>  <MolRegNo>
2723517

>  <m>
=

>  <Value>
516

>  <Unit>
nM

>  <Type>
IC50

>  <pValue>
6.29

>  <Ligand Efficiency>
0.17

>  <Binding Efficiency>
9.15

>  <Surface Efficiency>
4.81

>  <Assay Index>
1510383

>  <Assay Category>


>  <Assay Organism>
Homo sapiens

>  <Target ID>
17045

>  <Target Name>
Cytochrome P450 3A4

>  <Target Organism>
Homo sapiens

>  <Target Description>
Target is a single protein chain

>  <Sequence Accession>
P08684

>  <Reference>
J Med Chem 65 (1.0), 191-216 (2022)

>  <Pubmed ID>
34928144

>  <DOI>
10.1021/acs.jmedchem.1c01272

$$$$
2725996
Actelion Java MolfileCreator 1.0

 54 61  0  0  0  0  0  0  0  0999 V2000
    0.0000   -0.0000   -0.0000 O   0  0  0  0  0  0  0  0  0  0  0  0
   -0.0118    1.5143   -0.0000 C   0  0  0  0  0  0  0  0  0  0  0  0
    1.2659    2.2714   -0.0000 C   0  0  0  0  0  0  0  0  0  0  0  0
   -1.3132    2.2833   -0.0000 C   0  0  0  0  0  0  0  0  0  0  0  0
    1.2659    3.7857   -0.0000 C   0  0  0  0  0  0  0  0  0  0  0  0
    2.5554    1.5261   -0.0000 C   0  0  0  0  0  0  0  0  0  0  0  0
   -1.3132    3.7976   -0.0000 C   0  0  0  0  0  0  0  0  0  0  0  0
   -0.0355    4.5547   -0.0000 O   0  0  0  0  0  0  0  0  0  0  0  0
    2.5435    4.5547   -0.0000 C   0  0  0  0  0  0  0  0  0  0  0  0
    3.8449    2.2951   -0.0000 C   0  0  0  0  0  0  0  0  0  0  0  0
   -2.6264    4.5666   -0.0000 C   0  0  0  0  0  0  0  0  0  0  0  0
    3.8331    3.8212   -0.0000 C   0  0  0  0  0  0  0  0  0  0  0  0
   -3.9395    3.8331   -0.0000 O   0  0  0  0  0  0  0  0  0  0  0  0
   -2.6264    6.0809   -0.0000 N   0  0  0  0  0  0  0  0  0  0  0  0
   -3.9395    6.8498   -0.0000 C   0  0  0  0  0  0  0  0  0  0  0  0
   -3.9395    8.3641   -0.0000 C   0  0  0  0  0  0  0  0  0  0  0  0
   -5.2527    6.1163   -0.0000 C   0  0  0  0  0  0  0  0  0  0  0  0
   -2.6500    9.1094   -0.0000 C   0  0  0  0  0  0  0  0  0  0  0  0
   -5.2409    9.1331   -0.0000 C   0  0  0  0  0  0  0  0  0  0  0  0
   -6.5659    6.8853   -0.0000 C   0  0  0  0  0  0  0  0  0  0  0  0
   -2.4962   10.6119   -0.0000 N   0  0  0  0  0  0  0  0  0  0  0  0
   -1.2895    8.4943   -0.0000 N   0  0  0  0  0  0  0  0  0  0  0  0
   -6.5541    8.3996   -0.0000 C   0  0  0  0  0  0  0  0  0  0  0  0
   -1.0411   10.9195   -0.0000 N   0  0  0  0  0  0  0  0  0  0  0  0
   -0.2839    9.6182   -0.0000 N   0  0  0  0  0  0  0  0  0  0  0  0
   -7.8672    9.1686   -0.0000 O   0  0  0  0  0  0  0  0  0  0  0  0
    1.1949    9.4644   -0.0000 C   0  0  0  0  0  0  0  0  0  0  0  0
   -7.8672   10.6829   -0.0000 C   0  0  0  0  0  0  0  0  0  0  0  0
    1.7864    8.0920   -0.0000 C   0  0  0  0  0  0  0  0  0  0  0  0
    2.0703   10.6829   -0.0000 C   0  0  0  0  0  0  0  0  0  0  0  0
   -6.5659   11.4282   -0.0000 C   0  0  0  0  0  0  0  0  0  0  0  0
   -9.1686   11.4400   -0.0000 C   0  0  0  0  0  0  0  0  0  0  0  0
    3.2652    7.9382   -0.0000 C   0  0  0  0  0  0  0  0  0  0  0  0
    3.5491   10.5291   -0.0000 C   0  0  0  0  0  0  0  0  0  0  0  0
   -6.5659   12.9425   -0.0000 N   0  0  0  0  0  0  0  0  0  0  0  0
   -9.1804   12.9543   -0.0000 C   0  0  0  0  0  0  0  0  0  0  0  0
    4.1525    9.1568   -0.0000 C   0  0  0  0  0  0  0  0  0  0  0  0
   -7.8791   13.7115   -0.0000 C   0  0  0  0  0  0  0  0  0  0  0  0
    5.6313    9.0030   -0.0000 C   0  0  0  0  0  0  0  0  0  0  0  0
    6.2228    7.6425   -0.0000 C   0  0  0  0  0  0  0  0  0  0  0  0
    7.7016    7.4887   -0.0000 N   0  0  0  0  0  0  0  0  0  0  0  0
    8.5771    8.7072   -0.0000 C   0  0  0  0  0  0  0  0  0  0  0  0
    8.2813    6.1163   -0.0000 C   0  0  0  0  0  0  0  0  0  0  0  0
   10.0677    8.5416   -0.0000 C   0  0  0  0  0  0  0  0  0  0  0  0
    9.7601    5.9625   -0.0000 C   0  0  0  0  0  0  0  0  0  0  0  0
   10.6474    7.1811   -0.0000 C   0  0  0  0  0  0  0  0  0  0  0  0
   10.9432    9.7483   -0.0000 C   0  0  0  0  0  0  0  0  0  0  0  0
   12.1144    7.0273   -0.0000 C   0  0  0  0  0  0  0  0  0  0  0  0
   12.4101    9.5945   -0.0000 C   0  0  0  0  0  0  0  0  0  0  0  0
   12.9898    8.2458   -0.0000 C   0  0  0  0  0  0  0  0  0  0  0  0
   13.2856   10.8130   -0.0000 O   0  0  0  0  0  0  0  0  0  0  0  0
   14.4686    8.0920   -0.0000 O   0  0  0  0  0  0  0  0  0  0  0  0
   14.7644   10.6592   -0.0000 C   0  0  0  0  0  0  0  0  0  0  0  0
   15.0602    6.7315   -0.0000 C   0  0  0  0  0  0  0  0  0  0  0  0
  1  2  2  0  0  0  0
  2  3  1  0  0  0  0
  2  4  1  0  0  0  0
  3  5  2  0  0  0  0
  3  6  1  0  0  0  0
  4  7  2  0  0  0  0
  5  8  1  0  0  0  0
  5  9  1  0  0  0  0
  6 10  2  0  0  0  0
  7 11  1  0  0  0  0
  9 12  2  0  0  0  0
 11 13  2  0  0  0  0
 11 14  1  0  0  0  0
 14 15  1  0  0  0  0
 15 16  2  0  0  0  0
 15 17  1  0  0  0  0
 16 18  1  0  0  0  0
 16 19  1  0  0  0  0
 17 20  2  0  0  0  0
 18 21  1  0  0  0  0
 18 22  2  0  0  0  0
 19 23  2  0  0  0  0
 21 24  2  0  0  0  0
 22 25  1  0  0  0  0
 23 26  1  0  0  0  0
 25 27  1  0  0  0  0
 26 28  1  0  0  0  0
 27 29  2  0  0  0  0
 27 30  1  0  0  0  0
 28 31  2  0  0  0  0
 28 32  1  0  0  0  0
 29 33  1  0  0  0  0
 30 34  2  0  0  0  0
 31 35  1  0  0  0  0
 32 36  2  0  0  0  0
 33 37  2  0  0  0  0
 35 38  2  0  0  0  0
 37 39  1  0  0  0  0
 39 40  1  0  0  0  0
 40 41  1  0  0  0  0
 41 42  1  0  0  0  0
 41 43  1  0  0  0  0
 42 44  1  0  0  0  0
 43 45  1  0  0  0  0
 44 46  2  0  0  0  0
 44 47  1  0  0  0  0
 46 48  1  0  0  0  0
 47 49  2  0  0  0  0
 48 50  2  0  0  0  0
 49 51  1  0  0  0  0
 50 52  1  0  0  0  0
 51 53  1  0  0  0  0
 52 54  1  0  0  0  0
  7  8  1  0  0  0  0
 10 12  1  0  0  0  0
 20 23  1  0  0  0  0
 24 25  1  0  0  0  0
 34 37  1  0  0  0  0
 36 38  1  0  0  0  0
 45 46  1  0  0  0  0
 49 50  1  0  0  0  0
M  END
>  <MolRegNo>
2725996

>  <m>
=

>  <Value>
1469

>  <Unit>
nM

>  <Type>
IC50

>  <pValue>
5.83

>  <Ligand Efficiency>
0.15

>  <Binding Efficiency>
8.08

>  <Surface Efficiency>
3.98

>  <Assay Index>
1510383

>  <Assay Category>


>  <Assay Organism>
Homo sapiens

>  <Target ID>
17045

>  <Target Name>
Cytochrome P450 3A4

>  <Target Organism>
Homo sapiens

>  <Target Description>
Target is a single protein chain

>  <Sequence Accession>
P08684

>  <Reference>
J Med Chem 65 (1.0), 191-216 (2022)

>  <Pubmed ID>
34928144

>  <DOI>
10.1021/acs.jmedchem.1c01272

$$$$
2716535
Actelion Java MolfileCreator 1.0

 56 63  0  0  0  0  0  0  0  0999 V2000
    0.0000   -0.0000   -0.0000 O   0  0  0  0  0  0  0  0  0  0  0  0
   -0.0118    1.5138   -0.0000 C   0  0  0  0  0  0  0  0  0  0  0  0
    1.2654    2.2707   -0.0000 C   0  0  0  0  0  0  0  0  0  0  0  0
   -1.3127    2.2825   -0.0000 C   0  0  0  0  0  0  0  0  0  0  0  0
    1.2654    3.7845   -0.0000 C   0  0  0  0  0  0  0  0  0  0  0  0
    2.5545    1.5256   -0.0000 C   0  0  0  0  0  0  0  0  0  0  0  0
   -1.3127    3.7963   -0.0000 C   0  0  0  0  0  0  0  0  0  0  0  0
   -0.0355    4.5532   -0.0000 O   0  0  0  0  0  0  0  0  0  0  0  0
    2.5427    4.5532   -0.0000 C   0  0  0  0  0  0  0  0  0  0  0  0
    3.8436    2.2943   -0.0000 C   0  0  0  0  0  0  0  0  0  0  0  0
   -2.6255    4.5650   -0.0000 C   0  0  0  0  0  0  0  0  0  0  0  0
    3.8318    3.8199   -0.0000 C   0  0  0  0  0  0  0  0  0  0  0  0
   -3.9382    3.8318   -0.0000 O   0  0  0  0  0  0  0  0  0  0  0  0
   -2.6255    6.0788   -0.0000 N   0  0  0  0  0  0  0  0  0  0  0  0
   -3.9382    6.8475   -0.0000 C   0  0  0  0  0  0  0  0  0  0  0  0
   -3.9382    8.3613   -0.0000 C   0  0  0  0  0  0  0  0  0  0  0  0
   -5.2509    6.1143   -0.0000 C   0  0  0  0  0  0  0  0  0  0  0  0
   -2.6491    9.1064   -0.0000 C   0  0  0  0  0  0  0  0  0  0  0  0
   -5.2391    9.1300   -0.0000 C   0  0  0  0  0  0  0  0  0  0  0  0
   -6.5637    6.8830   -0.0000 C   0  0  0  0  0  0  0  0  0  0  0  0
   -2.4954   10.6083   -0.0000 N   0  0  0  0  0  0  0  0  0  0  0  0
   -1.2891    8.4914   -0.0000 N   0  0  0  0  0  0  0  0  0  0  0  0
   -6.5637    8.3968   -0.0000 C   0  0  0  0  0  0  0  0  0  0  0  0
   -1.0407   10.9158   -0.0000 N   0  0  0  0  0  0  0  0  0  0  0  0
   -0.2838    9.6149   -0.0000 N   0  0  0  0  0  0  0  0  0  0  0  0
   -7.8764    9.1655   -0.0000 O   0  0  0  0  0  0  0  0  0  0  0  0
    1.1945    9.4612   -0.0000 C   0  0  0  0  0  0  0  0  0  0  0  0
   -7.8764   10.6793   -0.0000 C   0  0  0  0  0  0  0  0  0  0  0  0
    1.7858    8.0893   -0.0000 C   0  0  0  0  0  0  0  0  0  0  0  0
    2.0696   10.6793   -0.0000 C   0  0  0  0  0  0  0  0  0  0  0  0
   -9.1773   11.4362   -0.0000 C   0  0  0  0  0  0  0  0  0  0  0  0
    3.2641    7.9355   -0.0000 C   0  0  0  0  0  0  0  0  0  0  0  0
    3.5479   10.5255   -0.0000 C   0  0  0  0  0  0  0  0  0  0  0  0
   -9.1891   12.9500   -0.0000 C   0  0  0  0  0  0  0  0  0  0  0  0
    4.1511    9.1537   -0.0000 C   0  0  0  0  0  0  0  0  0  0  0  0
   -7.9001   13.7068   -0.0000 C   0  0  0  0  0  0  0  0  0  0  0  0
  -10.5019   13.7068   -0.0000 C   0  0  0  0  0  0  0  0  0  0  0  0
    5.6294    8.9999   -0.0000 C   0  0  0  0  0  0  0  0  0  0  0  0
   -7.9119   15.2206   -0.0000 N   0  0  0  0  0  0  0  0  0  0  0  0
  -10.5137   15.2206   -0.0000 C   0  0  0  0  0  0  0  0  0  0  0  0
    6.2207    7.6399   -0.0000 C   0  0  0  0  0  0  0  0  0  0  0  0
   -9.2246   15.9894   -0.0000 C   0  0  0  0  0  0  0  0  0  0  0  0
    7.6990    7.4861   -0.0000 N   0  0  0  0  0  0  0  0  0  0  0  0
    8.5742    8.7043   -0.0000 C   0  0  0  0  0  0  0  0  0  0  0  0
    8.2785    6.1143   -0.0000 C   0  0  0  0  0  0  0  0  0  0  0  0
   10.0643    8.5387   -0.0000 C   0  0  0  0  0  0  0  0  0  0  0  0
    9.7568    5.9605   -0.0000 C   0  0  0  0  0  0  0  0  0  0  0  0
   10.6438    7.1787   -0.0000 C   0  0  0  0  0  0  0  0  0  0  0  0
   10.9395    9.7450   -0.0000 C   0  0  0  0  0  0  0  0  0  0  0  0
   12.1103    7.0249   -0.0000 C   0  0  0  0  0  0  0  0  0  0  0  0
   12.4059    9.5912   -0.0000 C   0  0  0  0  0  0  0  0  0  0  0  0
   12.9854    8.2430   -0.0000 C   0  0  0  0  0  0  0  0  0  0  0  0
   13.2811   10.8094   -0.0000 O   0  0  0  0  0  0  0  0  0  0  0  0
   14.4637    8.0893   -0.0000 O   0  0  0  0  0  0  0  0  0  0  0  0
   14.7594   10.6556   -0.0000 C   0  0  0  0  0  0  0  0  0  0  0  0
   15.0551    6.7292   -0.0000 C   0  0  0  0  0  0  0  0  0  0  0  0
  1  2  2  0  0  0  0
  2  3  1  0  0  0  0
  2  4  1  0  0  0  0
  3  5  2  0  0  0  0
  3  6  1  0  0  0  0
  4  7  2  0  0  0  0
  5  8  1  0  0  0  0
  5  9  1  0  0  0  0
  6 10  2  0  0  0  0
  7 11  1  0  0  0  0
  9 12  2  0  0  0  0
 11 13  2  0  0  0  0
 11 14  1  0  0  0  0
 14 15  1  0  0  0  0
 15 16  2  0  0  0  0
 15 17  1  0  0  0  0
 16 18  1  0  0  0  0
 16 19  1  0  0  0  0
 17 20  2  0  0  0  0
 18 21  1  0  0  0  0
 18 22  2  0  0  0  0
 19 23  2  0  0  0  0
 21 24  2  0  0  0  0
 22 25  1  0  0  0  0
 23 26  1  0  0  0  0
 25 27  1  0  0  0  0
 26 28  1  0  0  0  0
 27 29  2  0  0  0  0
 27 30  1  0  0  0  0
 28 31  1  0  0  0  0
 29 32  1  0  0  0  0
 30 33  2  0  0  0  0
 31 34  1  0  0  0  0
 32 35  2  0  0  0  0
 34 36  2  0  0  0  0
 34 37  1  0  0  0  0
 35 38  1  0  0  0  0
 36 39  1  0  0  0  0
 37 40  2  0  0  0  0
 38 41  1  0  0  0  0
 39 42  2  0  0  0  0
 41 43  1  0  0  0  0
 43 44  1  0  0  0  0
 43 45  1  0  0  0  0
 44 46  1  0  0  0  0
 45 47  1  0  0  0  0
 46 48  2  0  0  0  0
 46 49  1  0  0  0  0
 48 50  1  0  0  0  0
 49 51  2  0  0  0  0
 50 52  2  0  0  0  0
 51 53  1  0  0  0  0
 52 54  1  0  0  0  0
 53 55  1  0  0  0  0
 54 56  1  0  0  0  0
  7  8  1  0  0  0  0
 10 12  1  0  0  0  0
 20 23  1  0  0  0  0
 24 25  1  0  0  0  0
 33 35  1  0  0  0  0
 40 42  1  0  0  0  0
 47 48  1  0  0  0  0
 51 52  1  0  0  0  0
M  END
>  <MolRegNo>
2716535

>  <m>
=

>  <Value>
726

>  <Unit>
nM

>  <Type>
IC50

>  <pValue>
6.14

>  <Ligand Efficiency>
0.15

>  <Binding Efficiency>
8.19

>  <Surface Efficiency>
4.18

>  <Assay Index>
1510383

>  <Assay Category>


>  <Assay Organism>
Homo sapiens

>  <Target ID>
17045

>  <Target Name>
Cytochrome P450 3A4

>  <Target Organism>
Homo sapiens

>  <Target Description>
Target is a single protein chain

>  <Sequence Accession>
P08684

>  <Reference>
J Med Chem 65 (1.0), 191-216 (2022)

>  <Pubmed ID>
34928144

>  <DOI>
10.1021/acs.jmedchem.1c01272

$$$$
2727782
Actelion Java MolfileCreator 1.0

 53 60  0  0  0  0  0  0  0  0999 V2000
    0.0000   -0.0000   -0.0000 O   0  0  0  0  0  0  0  0  0  0  0  0
   -0.0118    1.5124   -0.0000 C   0  0  0  0  0  0  0  0  0  0  0  0
    1.2642    2.2685   -0.0000 C   0  0  0  0  0  0  0  0  0  0  0  0
   -1.3115    2.2804   -0.0000 C   0  0  0  0  0  0  0  0  0  0  0  0
    1.2642    3.7809   -0.0000 C   0  0  0  0  0  0  0  0  0  0  0  0
    2.5521    1.5242   -0.0000 C   0  0  0  0  0  0  0  0  0  0  0  0
   -1.3115    3.7927   -0.0000 C   0  0  0  0  0  0  0  0  0  0  0  0
   -0.0354    4.5489   -0.0000 O   0  0  0  0  0  0  0  0  0  0  0  0
    2.5403    4.5489   -0.0000 C   0  0  0  0  0  0  0  0  0  0  0  0
    3.8400    2.2922   -0.0000 C   0  0  0  0  0  0  0  0  0  0  0  0
   -2.6230    4.5607   -0.0000 C   0  0  0  0  0  0  0  0  0  0  0  0
    3.8282    3.8163   -0.0000 C   0  0  0  0  0  0  0  0  0  0  0  0
   -3.9345    3.8282   -0.0000 O   0  0  0  0  0  0  0  0  0  0  0  0
   -2.6230    6.0731   -0.0000 N   0  0  0  0  0  0  0  0  0  0  0  0
   -3.9345    6.8411   -0.0000 C   0  0  0  0  0  0  0  0  0  0  0  0
   -3.9345    8.3534   -0.0000 C   0  0  0  0  0  0  0  0  0  0  0  0
   -5.2460    6.1085   -0.0000 C   0  0  0  0  0  0  0  0  0  0  0  0
   -2.6466    9.0978   -0.0000 C   0  0  0  0  0  0  0  0  0  0  0  0
   -5.2342    9.1214   -0.0000 C   0  0  0  0  0  0  0  0  0  0  0  0
   -6.5575    6.8765   -0.0000 C   0  0  0  0  0  0  0  0  0  0  0  0
   -2.4930   10.5983   -0.0000 N   0  0  0  0  0  0  0  0  0  0  0  0
   -1.2879    8.4834   -0.0000 N   0  0  0  0  0  0  0  0  0  0  0  0
   -6.5575    8.3889   -0.0000 C   0  0  0  0  0  0  0  0  0  0  0  0
   -7.8690    6.1440   -0.0000 O   0  0  0  0  0  0  0  0  0  0  0  0
   -1.0397   10.9055   -0.0000 N   0  0  0  0  0  0  0  0  0  0  0  0
   -0.2836    9.6059   -0.0000 N   0  0  0  0  0  0  0  0  0  0  0  0
   -7.8690    9.1569   -0.0000 O   0  0  0  0  0  0  0  0  0  0  0  0
   -9.1805    6.9120   -0.0000 C   0  0  0  0  0  0  0  0  0  0  0  0
    1.1933    9.4523   -0.0000 C   0  0  0  0  0  0  0  0  0  0  0  0
   -7.8690   10.6692   -0.0000 C   0  0  0  0  0  0  0  0  0  0  0  0
    1.7841    8.0817   -0.0000 C   0  0  0  0  0  0  0  0  0  0  0  0
    2.0677   10.6692   -0.0000 C   0  0  0  0  0  0  0  0  0  0  0  0
   -9.1805   11.4372   -0.0000 C   0  0  0  0  0  0  0  0  0  0  0  0
    3.2610    7.9281   -0.0000 C   0  0  0  0  0  0  0  0  0  0  0  0
    3.5446   10.5156   -0.0000 C   0  0  0  0  0  0  0  0  0  0  0  0
   -9.1805   12.9496   -0.0000 C   0  0  0  0  0  0  0  0  0  0  0  0
  -10.4802   10.7047   -0.0000 C   0  0  0  0  0  0  0  0  0  0  0  0
    4.1472    9.1451   -0.0000 C   0  0  0  0  0  0  0  0  0  0  0  0
  -10.4920   13.7176   -0.0000 C   0  0  0  0  0  0  0  0  0  0  0  0
  -11.7917   11.4609   -0.0000 C   0  0  0  0  0  0  0  0  0  0  0  0
    5.6241    8.9915   -0.0000 C   0  0  0  0  0  0  0  0  0  0  0  0
  -11.8035   12.9850   -0.0000 C   0  0  0  0  0  0  0  0  0  0  0  0
    6.2149    7.6327   -0.0000 C   0  0  0  0  0  0  0  0  0  0  0  0
    7.6918    7.4791   -0.0000 N   0  0  0  0  0  0  0  0  0  0  0  0
    8.5661    8.6961   -0.0000 C   0  0  0  0  0  0  0  0  0  0  0  0
    8.2707    6.1085   -0.0000 C   0  0  0  0  0  0  0  0  0  0  0  0
   10.0548    8.5307   -0.0000 C   0  0  0  0  0  0  0  0  0  0  0  0
    9.7476    5.9549   -0.0000 C   0  0  0  0  0  0  0  0  0  0  0  0
   10.6338    7.1719   -0.0000 C   0  0  0  0  0  0  0  0  0  0  0  0
   10.9292    9.7358   -0.0000 C   0  0  0  0  0  0  0  0  0  0  0  0
   12.0989    7.0183   -0.0000 C   0  0  0  0  0  0  0  0  0  0  0  0
   12.3943    9.5822   -0.0000 C   0  0  0  0  0  0  0  0  0  0  0  0
   12.9732    8.2353   -0.0000 N   0  0  0  0  0  0  0  0  0  0  0  0
  1  2  2  0  0  0  0
  2  3  1  0  0  0  0
  2  4  1  0  0  0  0
  3  5  2  0  0  0  0
  3  6  1  0  0  0  0
  4  7  2  0  0  0  0
  5  8  1  0  0  0  0
  5  9  1  0  0  0  0
  6 10  2  0  0  0  0
  7 11  1  0  0  0  0
  9 12  2  0  0  0  0
 11 13  2  0  0  0  0
 11 14  1  0  0  0  0
 14 15  1  0  0  0  0
 15 16  2  0  0  0  0
 15 17  1  0  0  0  0
 16 18  1  0  0  0  0
 16 19  1  0  0  0  0
 17 20  2  0  0  0  0
 18 21  1  0  0  0  0
 18 22  2  0  0  0  0
 19 23  2  0  0  0  0
 20 24  1  0  0  0  0
 21 25  2  0  0  0  0
 22 26  1  0  0  0  0
 23 27  1  0  0  0  0
 24 28  1  0  0  0  0
 26 29  1  0  0  0  0
 27 30  1  0  0  0  0
 29 31  2  0  0  0  0
 29 32  1  0  0  0  0
 30 33  1  0  0  0  0
 31 34  1  0  0  0  0
 32 35  2  0  0  0  0
 33 36  2  0  0  0  0
 33 37  1  0  0  0  0
 34 38  2  0  0  0  0
 36 39  1  0  0  0  0
 37 40  2  0  0  0  0
 38 41  1  0  0  0  0
 39 42  2  0  0  0  0
 41 43  1  0  0  0  0
 43 44  1  0  0  0  0
 44 45  1  0  0  0  0
 44 46  1  0  0  0  0
 45 47  1  0  0  0  0
 46 48  1  0  0  0  0
 47 49  2  0  0  0  0
 47 50  1  0  0  0  0
 49 51  1  0  0  0  0
 50 52  2  0  0  0  0
 51 53  2  0  0  0  0
  7  8  1  0  0  0  0
 10 12  1  0  0  0  0
 20 23  1  0  0  0  0
 25 26  1  0  0  0  0
 35 38  1  0  0  0  0
 40 42  1  0  0  0  0
 48 49  1  0  0  0  0
 52 53  1  0  0  0  0
M  END
>  <MolRegNo>
2727782

>  <m>
=

>  <Value>
1237

>  <Unit>
nM

>  <Type>
IC50

>  <pValue>
5.91

>  <Ligand Efficiency>
0.15

>  <Binding Efficiency>
8.37

>  <Surface Efficiency>
4.3

>  <Assay Index>
1510383

>  <Assay Category>


>  <Assay Organism>
Homo sapiens

>  <Target ID>
17045

>  <Target Name>
Cytochrome P450 3A4

>  <Target Organism>
Homo sapiens

>  <Target Description>
Target is a single protein chain

>  <Sequence Accession>
P08684

>  <Reference>
J Med Chem 65 (1.0), 191-216 (2022)

>  <Pubmed ID>
34928144

>  <DOI>
10.1021/acs.jmedchem.1c01272

$$$$
2726391
Actelion Java MolfileCreator 1.0

 52 59  0  0  0  0  0  0  0  0999 V2000
    0.0000   -0.0000   -0.0000 O   0  0  0  0  0  0  0  0  0  0  0  0
    1.2910    0.7580   -0.0000 C   0  0  0  0  0  0  0  0  0  0  0  0
    1.2910    2.2741   -0.0000 N   0  0  0  0  0  0  0  0  0  0  0  0
    2.5820    0.0118   -0.0000 C   0  0  0  0  0  0  0  0  0  0  0  0
   -0.0237    3.0440   -0.0000 C   0  0  0  0  0  0  0  0  0  0  0  0
    2.5583   -1.4805   -0.0000 C   0  0  0  0  0  0  0  0  0  0  0  0
    3.8730    0.7699   -0.0000 C   0  0  0  0  0  0  0  0  0  0  0  0
   -0.0237    4.5600   -0.0000 C   0  0  0  0  0  0  0  0  0  0  0  0
   -1.3384    2.3096   -0.0000 C   0  0  0  0  0  0  0  0  0  0  0  0
    3.8375   -2.2267   -0.0000 N   0  0  0  0  0  0  0  0  0  0  0  0
    5.1522    0.0237   -0.0000 C   0  0  0  0  0  0  0  0  0  0  0  0
    1.2673    5.3062   -0.0000 C   0  0  0  0  0  0  0  0  0  0  0  0
   -1.3265    5.3299   -0.0000 C   0  0  0  0  0  0  0  0  0  0  0  0
   -2.6531    3.0795   -0.0000 C   0  0  0  0  0  0  0  0  0  0  0  0
    5.1285   -1.4687   -0.0000 C   0  0  0  0  0  0  0  0  0  0  0  0
    6.4432    0.7817   -0.0000 C   0  0  0  0  0  0  0  0  0  0  0  0
    1.4213    6.8104   -0.0000 N   0  0  0  0  0  0  0  0  0  0  0  0
    2.6294    4.7021   -0.0000 N   0  0  0  0  0  0  0  0  0  0  0  0
   -2.6413    4.5955   -0.0000 C   0  0  0  0  0  0  0  0  0  0  0  0
   -3.9678    2.3451   -0.0000 O   0  0  0  0  0  0  0  0  0  0  0  0
    6.4077   -2.2149   -0.0000 C   0  0  0  0  0  0  0  0  0  0  0  0
    7.7342    0.0474   -0.0000 C   0  0  0  0  0  0  0  0  0  0  0  0
    2.8781    7.1184   -0.0000 N   0  0  0  0  0  0  0  0  0  0  0  0
    3.6362    5.8273   -0.0000 N   0  0  0  0  0  0  0  0  0  0  0  0
   -3.9560    5.3654   -0.0000 O   0  0  0  0  0  0  0  0  0  0  0  0
   -5.2825    3.1150   -0.0000 C   0  0  0  0  0  0  0  0  0  0  0  0
    7.6987   -1.4568   -0.0000 C   0  0  0  0  0  0  0  0  0  0  0  0
    5.1167    5.6734   -0.0000 C   0  0  0  0  0  0  0  0  0  0  0  0
   -3.9560    6.8815   -0.0000 C   0  0  0  0  0  0  0  0  0  0  0  0
    5.7089    4.2994   -0.0000 C   0  0  0  0  0  0  0  0  0  0  0  0
    5.9932    6.8933   -0.0000 C   0  0  0  0  0  0  0  0  0  0  0  0
   -5.2707    7.6513   -0.0000 C   0  0  0  0  0  0  0  0  0  0  0  0
    7.1894    4.1455   -0.0000 C   0  0  0  0  0  0  0  0  0  0  0  0
    7.4737    6.7393   -0.0000 C   0  0  0  0  0  0  0  0  0  0  0  0
   -5.2707    9.1674   -0.0000 C   0  0  0  0  0  0  0  0  0  0  0  0
   -6.5735    6.9170   -0.0000 C   0  0  0  0  0  0  0  0  0  0  0  0
    8.0777    5.3654   -0.0000 C   0  0  0  0  0  0  0  0  0  0  0  0
   -6.5735    9.9373   -0.0000 C   0  0  0  0  0  0  0  0  0  0  0  0
   -7.8882    7.6750   -0.0000 C   0  0  0  0  0  0  0  0  0  0  0  0
    9.5583    5.2114   -0.0000 C   0  0  0  0  0  0  0  0  0  0  0  0
   -7.8882    9.2029   -0.0000 C   0  0  0  0  0  0  0  0  0  0  0  0
   10.1505    3.8494   -0.0000 C   0  0  0  0  0  0  0  0  0  0  0  0
   11.6310    3.6954   -0.0000 N   0  0  0  0  0  0  0  0  0  0  0  0
   12.5075    4.9153   -0.0000 C   0  0  0  0  0  0  0  0  0  0  0  0
   12.2113    2.3215   -0.0000 C   0  0  0  0  0  0  0  0  0  0  0  0
   13.9998    4.7495   -0.0000 C   0  0  0  0  0  0  0  0  0  0  0  0
   13.6919    2.1675   -0.0000 C   0  0  0  0  0  0  0  0  0  0  0  0
   14.5802    3.3874   -0.0000 C   0  0  0  0  0  0  0  0  0  0  0  0
   14.8763    5.9576   -0.0000 C   0  0  0  0  0  0  0  0  0  0  0  0
   16.0489    3.2335   -0.0000 C   0  0  0  0  0  0  0  0  0  0  0  0
   16.3450    5.8036   -0.0000 C   0  0  0  0  0  0  0  0  0  0  0  0
   16.9253    4.4534   -0.0000 N   0  0  0  0  0  0  0  0  0  0  0  0
  1  2  2  0  0  0  0
  2  3  1  0  0  0  0
  2  4  1  0  0  0  0
  3  5  1  0  0  0  0
  4  6  1  0  0  0  0
  4  7  2  0  0  0  0
  5  8  2  0  0  0  0
  5  9  1  0  0  0  0
  6 10  2  0  0  0  0
  7 11  1  0  0  0  0
  8 12  1  0  0  0  0
  8 13  1  0  0  0  0
  9 14  2  0  0  0  0
 10 15  1  0  0  0  0
 11 16  2  0  0  0  0
 12 17  1  0  0  0  0
 12 18  2  0  0  0  0
 13 19  2  0  0  0  0
 14 20  1  0  0  0  0
 15 21  2  0  0  0  0
 16 22  1  0  0  0  0
 17 23  2  0  0  0  0
 18 24  1  0  0  0  0
 19 25  1  0  0  0  0
 20 26  1  0  0  0  0
 21 27  1  0  0  0  0
 24 28  1  0  0  0  0
 25 29  1  0  0  0  0
 28 30  2  0  0  0  0
 28 31  1  0  0  0  0
 29 32  1  0  0  0  0
 30 33  1  0  0  0  0
 31 34  2  0  0  0  0
 32 35  2  0  0  0  0
 32 36  1  0  0  0  0
 33 37  2  0  0  0  0
 35 38  1  0  0  0  0
 36 39  2  0  0  0  0
 37 40  1  0  0  0  0
 38 41  2  0  0  0  0
 40 42  1  0  0  0  0
 42 43  1  0  0  0  0
 43 44  1  0  0  0  0
 43 45  1  0  0  0  0
 44 46  1  0  0  0  0
 45 47  1  0  0  0  0
 46 48  2  0  0  0  0
 46 49  1  0  0  0  0
 48 50  1  0  0  0  0
 49 51  2  0  0  0  0
 50 52  2  0  0  0  0
 11 15  1  0  0  0  0
 14 19  1  0  0  0  0
 22 27  2  0  0  0  0
 23 24  1  0  0  0  0
 34 37  1  0  0  0  0
 39 41  1  0  0  0  0
 47 48  1  0  0  0  0
 51 52  1  0  0  0  0
M  END
>  <MolRegNo>
2726391

>  <m>
=

>  <Value>
851

>  <Unit>
nM

>  <Type>
IC50

>  <pValue>
6.07

>  <Ligand Efficiency>
0.16

>  <Binding Efficiency>
8.81

>  <Surface Efficiency>
5.05

>  <Assay Index>
1510383

>  <Assay Category>


>  <Assay Organism>
Homo sapiens

>  <Target ID>
17045

>  <Target Name>
Cytochrome P450 3A4

>  <Target Organism>
Homo sapiens

>  <Target Description>
Target is a single protein chain

>  <Sequence Accession>
P08684

>  <Reference>
J Med Chem 65 (1.0), 191-216 (2022)

>  <Pubmed ID>
34928144

>  <DOI>
10.1021/acs.jmedchem.1c01272

$$$$
2721267
Actelion Java MolfileCreator 1.0

 52 59  0  0  0  0  0  0  0  0999 V2000
    0.0000   -0.0000   -0.0000 O   0  0  0  0  0  0  0  0  0  0  0  0
   -0.0118    1.5129   -0.0000 C   0  0  0  0  0  0  0  0  0  0  0  0
    1.2647    2.2693   -0.0000 C   0  0  0  0  0  0  0  0  0  0  0  0
   -1.3120    2.2812   -0.0000 C   0  0  0  0  0  0  0  0  0  0  0  0
    1.2647    3.7822   -0.0000 C   0  0  0  0  0  0  0  0  0  0  0  0
    2.5530    1.5247   -0.0000 C   0  0  0  0  0  0  0  0  0  0  0  0
   -1.3120    3.7941   -0.0000 C   0  0  0  0  0  0  0  0  0  0  0  0
   -0.0355    4.5505   -0.0000 O   0  0  0  0  0  0  0  0  0  0  0  0
    2.5412    4.5505   -0.0000 C   0  0  0  0  0  0  0  0  0  0  0  0
    3.8413    2.2930   -0.0000 C   0  0  0  0  0  0  0  0  0  0  0  0
   -2.6239    4.5623   -0.0000 C   0  0  0  0  0  0  0  0  0  0  0  0
    3.8295    3.8177   -0.0000 C   0  0  0  0  0  0  0  0  0  0  0  0
   -3.9359    3.8295   -0.0000 O   0  0  0  0  0  0  0  0  0  0  0  0
   -2.6239    6.0752   -0.0000 N   0  0  0  0  0  0  0  0  0  0  0  0
   -3.9359    6.8435   -0.0000 C   0  0  0  0  0  0  0  0  0  0  0  0
   -3.9359    8.3564   -0.0000 C   0  0  0  0  0  0  0  0  0  0  0  0
   -5.2479    6.1107   -0.0000 C   0  0  0  0  0  0  0  0  0  0  0  0
   -2.6476    9.1010   -0.0000 C   0  0  0  0  0  0  0  0  0  0  0  0
   -5.2360    9.1247   -0.0000 C   0  0  0  0  0  0  0  0  0  0  0  0
   -6.5480    6.8790   -0.0000 C   0  0  0  0  0  0  0  0  0  0  0  0
   -2.4939   10.6021   -0.0000 N   0  0  0  0  0  0  0  0  0  0  0  0
   -1.2883    8.4864   -0.0000 N   0  0  0  0  0  0  0  0  0  0  0  0
   -6.5598    8.3919   -0.0000 C   0  0  0  0  0  0  0  0  0  0  0  0
   -7.8600    6.1461   -0.0000 O   0  0  0  0  0  0  0  0  0  0  0  0
   -1.0401   10.9094   -0.0000 N   0  0  0  0  0  0  0  0  0  0  0  0
   -0.2837    9.6093   -0.0000 N   0  0  0  0  0  0  0  0  0  0  0  0
   -7.8718    9.1601   -0.0000 O   0  0  0  0  0  0  0  0  0  0  0  0
   -9.1719    6.9144   -0.0000 C   0  0  0  0  0  0  0  0  0  0  0  0
    1.1938    9.4556   -0.0000 C   0  0  0  0  0  0  0  0  0  0  0  0
   -7.8718   10.6730   -0.0000 C   0  0  0  0  0  0  0  0  0  0  0  0
    1.7847    8.0845   -0.0000 C   0  0  0  0  0  0  0  0  0  0  0  0
    2.0684   10.6730   -0.0000 C   0  0  0  0  0  0  0  0  0  0  0  0
   -9.1719   11.4295   -0.0000 C   0  0  0  0  0  0  0  0  0  0  0  0
    3.2622    7.9309   -0.0000 C   0  0  0  0  0  0  0  0  0  0  0  0
    3.5459   10.5194   -0.0000 C   0  0  0  0  0  0  0  0  0  0  0  0
   -9.1719   12.9305   -0.0000 C   0  0  0  0  0  0  0  0  0  0  0  0
  -10.4603   10.6967   -0.0000 C   0  0  0  0  0  0  0  0  0  0  0  0
    4.1486    9.1483   -0.0000 C   0  0  0  0  0  0  0  0  0  0  0  0
  -10.4721   13.6870   -0.0000 C   0  0  0  0  0  0  0  0  0  0  0  0
  -11.7604   11.4531   -0.0000 C   0  0  0  0  0  0  0  0  0  0  0  0
    5.6261    8.9946   -0.0000 C   0  0  0  0  0  0  0  0  0  0  0  0
  -11.7722   12.9542   -0.0000 C   0  0  0  0  0  0  0  0  0  0  0  0
    6.2171    7.6354   -0.0000 C   0  0  0  0  0  0  0  0  0  0  0  0
    7.6945    7.4817   -0.0000 N   0  0  0  0  0  0  0  0  0  0  0  0
    8.5691    8.6992   -0.0000 C   0  0  0  0  0  0  0  0  0  0  0  0
    8.2737    6.1107   -0.0000 C   0  0  0  0  0  0  0  0  0  0  0  0
   10.0584    8.5455   -0.0000 C   0  0  0  0  0  0  0  0  0  0  0  0
    9.7511    5.9570   -0.0000 C   0  0  0  0  0  0  0  0  0  0  0  0
   10.6376    7.1744   -0.0000 N   0  0  0  0  0  0  0  0  0  0  0  0
   11.1694    9.5502   -0.0000 C   0  0  0  0  0  0  0  0  0  0  0  0
   12.1150    7.3281   -0.0000 C   0  0  0  0  0  0  0  0  0  0  0  0
   12.4459    8.7937   -0.0000 N   0  0  0  0  0  0  0  0  0  0  0  0
  1  2  2  0  0  0  0
  2  3  1  0  0  0  0
  2  4  1  0  0  0  0
  3  5  2  0  0  0  0
  3  6  1  0  0  0  0
  4  7  2  0  0  0  0
  5  8  1  0  0  0  0
  5  9  1  0  0  0  0
  6 10  2  0  0  0  0
  7 11  1  0  0  0  0
  9 12  2  0  0  0  0
 11 13  2  0  0  0  0
 11 14  1  0  0  0  0
 14 15  1  0  0  0  0
 15 16  2  0  0  0  0
 15 17  1  0  0  0  0
 16 18  1  0  0  0  0
 16 19  1  0  0  0  0
 17 20  2  0  0  0  0
 18 21  1  0  0  0  0
 18 22  2  0  0  0  0
 19 23  2  0  0  0  0
 20 24  1  0  0  0  0
 21 25  2  0  0  0  0
 22 26  1  0  0  0  0
 23 27  1  0  0  0  0
 24 28  1  0  0  0  0
 26 29  1  0  0  0  0
 27 30  1  0  0  0  0
 29 31  2  0  0  0  0
 29 32  1  0  0  0  0
 30 33  1  0  0  0  0
 31 34  1  0  0  0  0
 32 35  2  0  0  0  0
 33 36  2  0  0  0  0
 33 37  1  0  0  0  0
 34 38  2  0  0  0  0
 36 39  1  0  0  0  0
 37 40  2  0  0  0  0
 38 41  1  0  0  0  0
 39 42  2  0  0  0  0
 41 43  1  0  0  0  0
 43 44  1  0  0  0  0
 44 45  1  0  0  0  0
 44 46  1  0  0  0  0
 45 47  1  0  0  0  0
 46 48  1  0  0  0  0
 47 49  1  0  0  0  0
 47 50  2  0  0  0  0
 49 51  1  0  0  0  0
 50 52  1  0  0  0  0
  7  8  1  0  0  0  0
 10 12  1  0  0  0  0
 20 23  1  0  0  0  0
 25 26  1  0  0  0  0
 35 38  1  0  0  0  0
 40 42  1  0  0  0  0
 48 49  1  0  0  0  0
 51 52  2  0  0  0  0
M  END
>  <MolRegNo>
2721267

>  <m>
=

>  <Value>
2037

>  <Unit>
nM

>  <Type>
IC50

>  <pValue>
5.69

>  <Ligand Efficiency>
0.15

>  <Binding Efficiency>
8.19

>  <Surface Efficiency>
4

>  <Assay Index>
1510383

>  <Assay Category>


>  <Assay Organism>
Homo sapiens

>  <Target ID>
17045

>  <Target Name>
Cytochrome P450 3A4

>  <Target Organism>
Homo sapiens

>  <Target Description>
Target is a single protein chain

>  <Sequence Accession>
P08684

>  <Reference>
J Med Chem 65 (1.0), 191-216 (2022)

>  <Pubmed ID>
34928144

>  <DOI>
10.1021/acs.jmedchem.1c01272

$$$$
1423581
Actelion Java MolfileCreator 1.0

 31 34  0  0  0  0  0  0  0  0999 V2000
    0.0000   -0.0000   -0.0000 F   0  0  0  0  0  0  0  0  0  0  0  0
    1.2882    0.7564   -0.0000 C   0  0  0  0  0  0  0  0  0  0  0  0
    1.2764    2.2692   -0.0000 C   0  0  0  0  0  0  0  0  0  0  0  0
    2.5764    0.0236   -0.0000 C   0  0  0  0  0  0  0  0  0  0  0  0
    2.5528    3.0255   -0.0000 C   0  0  0  0  0  0  0  0  0  0  0  0
   -0.0355    3.0374   -0.0000 C   0  0  0  0  0  0  0  0  0  0  0  0
    3.8646    0.7800   -0.0000 C   0  0  0  0  0  0  0  0  0  0  0  0
    3.8410    2.2928   -0.0000 C   0  0  0  0  0  0  0  0  0  0  0  0
   -1.3355    2.2928   -0.0000 N   0  0  0  0  0  0  0  0  0  0  0  0
   -0.0473    4.5501   -0.0000 C   0  0  0  0  0  0  0  0  0  0  0  0
    1.0046    4.1247   -0.0000 C   0  0  0  0  0  0  0  0  0  0  0  0
    5.1174    3.0610   -0.0000 N   0  0  0  0  0  0  0  0  0  0  0  0
   -2.6473    3.0610   -0.0000 C   0  0  0  0  0  0  0  0  0  0  0  0
   -1.3355    5.3065   -0.0000 N   0  0  0  0  0  0  0  0  0  0  0  0
    6.4056    2.3282   -0.0000 C   0  0  0  0  0  0  0  0  0  0  0  0
   -3.9592    2.3282   -0.0000 N   0  0  0  0  0  0  0  0  0  0  0  0
   -2.6592    4.5738   -0.0000 C   0  0  0  0  0  0  0  0  0  0  0  0
   -1.6546    6.7956   -0.0000 C   0  0  0  0  0  0  0  0  0  0  0  0
    6.3938    0.8391   -0.0000 O   0  0  0  0  0  0  0  0  0  0  0  0
    7.6820    3.0964   -0.0000 C   0  0  0  0  0  0  0  0  0  0  0  0
   -3.7819    5.6020   -0.0000 N   0  0  0  0  0  0  0  0  0  0  0  0
   -0.6618    7.9184   -0.0000 C   0  0  0  0  0  0  0  0  0  0  0  0
   -3.1674    6.9729   -0.0000 C   0  0  0  0  0  0  0  0  0  0  0  0
    8.9702    2.3637   -0.0000 N   0  0  0  0  0  0  0  0  0  0  0  0
    7.6584    4.5974   -0.0000 C   0  0  0  0  0  0  0  0  0  0  0  0
    0.3309    9.0411   -0.0000 N   0  0  0  0  0  0  0  0  0  0  0  0
   10.2466    3.1319   -0.0000 C   0  0  0  0  0  0  0  0  0  0  0  0
    8.9348    5.3656   -0.0000 C   0  0  0  0  0  0  0  0  0  0  0  0
   10.2348    4.6447   -0.0000 C   0  0  0  0  0  0  0  0  0  0  0  0
   11.5112    5.4129   -0.0000 C   0  0  0  0  0  0  0  0  0  0  0  0
   12.7876    6.1811   -0.0000 N   0  0  0  0  0  0  0  0  0  0  0  0
  1  2  1  0  0  0  0
  2  3  2  0  0  0  0
  2  4  1  0  0  0  0
  3  5  1  0  0  0  0
  3  6  1  0  0  0  0
  4  7  2  0  0  0  0
  5  8  2  0  0  0  0
  6  9  1  0  0  0  0
  6 10  1  0  0  0  0
  6 11  1  6  0  0  0
  8 12  1  0  0  0  0
  9 13  2  0  0  0  0
 10 14  1  0  0  0  0
 12 15  1  0  0  0  0
 13 16  1  0  0  0  0
 13 17  1  0  0  0  0
 14 18  1  0  0  0  0
 15 19  2  0  0  0  0
 15 20  1  0  0  0  0
 17 21  2  0  0  0  0
 18 22  1  0  0  0  0
 18 23  2  0  0  0  0
 20 24  2  0  0  0  0
 20 25  1  0  0  0  0
 22 26  3  0  0  0  0
 24 27  1  0  0  0  0
 25 28  2  0  0  0  0
 27 29  2  0  0  0  0
 29 30  1  0  0  0  0
 30 31  3  0  0  0  0
  7  8  1  0  0  0  0
 14 17  1  0  0  0  0
 21 23  1  0  0  0  0
 28 29  1  0  0  0  0
M  END
>  <MolRegNo>
1423581

>  <m>
=

>  <Value>
6700

>  <Unit>
nM

>  <Type>
IC50

>  <pValue>
5.17

>  <Ligand Efficiency>
0

>  <Binding Efficiency>
0

>  <Surface Efficiency>
0

>  <Assay Index>
1510947

>  <Assay Category>


>  <Assay Organism>
Homo sapiens

>  <Target ID>
17045

>  <Target Name>
Cytochrome P450 3A4

>  <Target Organism>
Homo sapiens

>  <Target Description>
Target is a single protein chain

>  <Sequence Accession>
P08684

>  <Reference>
ACS Med Chem Lett 13 (1.0), 76-83 (2022)

>  <Pubmed ID>
35059126

>  <DOI>
10.1021/acsmedchemlett.1c00445

$$$$
2732900
Actelion Java MolfileCreator 1.0

 30 33  0  0  0  0  0  0  0  0999 V2000
    0.0000   -0.0000   -0.0000 F   0  0  0  0  0  0  0  0  0  0  0  0
    0.0000   -1.4871   -0.0000 C   0  0  0  0  0  0  0  0  0  0  0  0
   -1.3086   -2.2366   -0.0000 C   0  0  0  0  0  0  0  0  0  0  0  0
    1.2968   -2.2247   -0.0000 C   0  0  0  0  0  0  0  0  0  0  0  0
   -1.3086   -3.7237   -0.0000 C   0  0  0  0  0  0  0  0  0  0  0  0
   -2.6292   -1.4871   -0.0000 C   0  0  0  0  0  0  0  0  0  0  0  0
    1.2849   -3.7118   -0.0000 C   0  0  0  0  0  0  0  0  0  0  0  0
   -0.0238   -4.4494   -0.0000 C   0  0  0  0  0  0  0  0  0  0  0  0
   -3.9378   -2.2366   -0.0000 N   0  0  0  0  0  0  0  0  0  0  0  0
   -2.6530    0.0238   -0.0000 C   0  0  0  0  0  0  0  0  0  0  0  0
   -1.2016   -1.0707   -0.0000 C   0  0  0  0  0  0  0  0  0  0  0  0
   -0.0357   -5.9365   -0.0000 N   0  0  0  0  0  0  0  0  0  0  0  0
   -5.2584   -1.4752   -0.0000 C   0  0  0  0  0  0  0  0  0  0  0  0
   -3.9616    0.7733   -0.0000 N   0  0  0  0  0  0  0  0  0  0  0  0
    1.2492   -6.6741   -0.0000 C   0  0  0  0  0  0  0  0  0  0  0  0
   -6.5670   -2.2128   -0.0000 N   0  0  0  0  0  0  0  0  0  0  0  0
   -5.2822    0.0357   -0.0000 C   0  0  0  0  0  0  0  0  0  0  0  0
   -4.2828    2.2604   -0.0000 C   0  0  0  0  0  0  0  0  0  0  0  0
    2.5340   -5.9127   -0.0000 O   0  0  0  0  0  0  0  0  0  0  0  0
    1.2373   -8.1612   -0.0000 C   0  0  0  0  0  0  0  0  0  0  0  0
   -6.4124    1.0588   -0.0000 N   0  0  0  0  0  0  0  0  0  0  0  0
   -3.2835    3.3787   -0.0000 C   0  0  0  0  0  0  0  0  0  0  0  0
   -5.7937    2.4269   -0.0000 C   0  0  0  0  0  0  0  0  0  0  0  0
    2.5221   -8.8988   -0.0000 N   0  0  0  0  0  0  0  0  0  0  0  0
   -0.0714   -8.8988   -0.0000 C   0  0  0  0  0  0  0  0  0  0  0  0
   -2.2842    4.5089   -0.0000 N   0  0  0  0  0  0  0  0  0  0  0  0
    2.5102  -10.3978   -0.0000 C   0  0  0  0  0  0  0  0  0  0  0  0
   -0.0833  -10.3978   -0.0000 C   0  0  0  0  0  0  0  0  0  0  0  0
    1.1897  -11.1354   -0.0000 C   0  0  0  0  0  0  0  0  0  0  0  0
    1.1778  -12.6225   -0.0000 F   0  0  0  0  0  0  0  0  0  0  0  0
  1  2  1  0  0  0  0
  2  3  2  0  0  0  0
  2  4  1  0  0  0  0
  3  5  1  0  0  0  0
  3  6  1  0  0  0  0
  4  7  2  0  0  0  0
  5  8  2  0  0  0  0
  6  9  1  0  0  0  0
  6 10  1  0  0  0  0
  6 11  1  6  0  0  0
  8 12  1  0  0  0  0
  9 13  2  0  0  0  0
 10 14  1  0  0  0  0
 12 15  1  0  0  0  0
 13 16  1  0  0  0  0
 13 17  1  0  0  0  0
 14 18  1  0  0  0  0
 15 19  2  0  0  0  0
 15 20  1  0  0  0  0
 17 21  2  0  0  0  0
 18 22  1  0  0  0  0
 18 23  2  0  0  0  0
 20 24  2  0  0  0  0
 20 25  1  0  0  0  0
 22 26  3  0  0  0  0
 24 27  1  0  0  0  0
 25 28  2  0  0  0  0
 27 29  2  0  0  0  0
 29 30  1  0  0  0  0
  7  8  1  0  0  0  0
 14 17  1  0  0  0  0
 21 23  1  0  0  0  0
 28 29  1  0  0  0  0
M  END
>  <MolRegNo>
2732900

>  <m>
=

>  <Value>
4400

>  <Unit>
nM

>  <Type>
IC50

>  <pValue>
5.36

>  <Ligand Efficiency>
0

>  <Binding Efficiency>
0

>  <Surface Efficiency>
0

>  <Assay Index>
1510947

>  <Assay Category>


>  <Assay Organism>
Homo sapiens

>  <Target ID>
17045

>  <Target Name>
Cytochrome P450 3A4

>  <Target Organism>
Homo sapiens

>  <Target Description>
Target is a single protein chain

>  <Sequence Accession>
P08684

>  <Reference>
ACS Med Chem Lett 13 (1.0), 76-83 (2022)

>  <Pubmed ID>
35059126

>  <DOI>
10.1021/acsmedchemlett.1c00445

$$$$
2720384
Actelion Java MolfileCreator 1.0

 30 33  0  0  0  0  0  0  0  0999 V2000
    0.0000   -0.0000   -0.0000 Cl  0  0  0  0  0  0  0  0  0  0  0  0
   -0.0118    1.5007   -0.0000 C   0  0  0  0  0  0  0  0  0  0  0  0
    1.2762    2.2570   -0.0000 C   0  0  0  0  0  0  0  0  0  0  0  0
   -1.3116    2.2570   -0.0000 C   0  0  0  0  0  0  0  0  0  0  0  0
    1.2644    3.7695   -0.0000 N   0  0  0  0  0  0  0  0  0  0  0  0
   -1.3235    3.7695   -0.0000 C   0  0  0  0  0  0  0  0  0  0  0  0
   -0.0354    4.5258   -0.0000 C   0  0  0  0  0  0  0  0  0  0  0  0
   -0.0473    6.0265   -0.0000 C   0  0  0  0  0  0  0  0  0  0  0  0
    1.2289    6.7828   -0.0000 O   0  0  0  0  0  0  0  0  0  0  0  0
   -1.3471    6.7828   -0.0000 N   0  0  0  0  0  0  0  0  0  0  0  0
   -1.3589    8.2835   -0.0000 C   0  0  0  0  0  0  0  0  0  0  0  0
   -2.6587    9.0279   -0.0000 C   0  0  0  0  0  0  0  0  0  0  0  0
   -0.0827    9.0397   -0.0000 C   0  0  0  0  0  0  0  0  0  0  0  0
   -2.6824   10.5286   -0.0000 C   0  0  0  0  0  0  0  0  0  0  0  0
   -0.0945   10.5405   -0.0000 C   0  0  0  0  0  0  0  0  0  0  0  0
   -1.4062   11.2967   -0.0000 C   0  0  0  0  0  0  0  0  0  0  0  0
   -3.9940   11.2731   -0.0000 C   0  0  0  0  0  0  0  0  0  0  0  0
   -1.4298   12.7974   -0.0000 F   0  0  0  0  0  0  0  0  0  0  0  0
   -5.2939   10.5286   -0.0000 N   0  0  0  0  0  0  0  0  0  0  0  0
   -4.0177   12.7738   -0.0000 C   0  0  0  0  0  0  0  0  0  0  0  0
   -2.5760   11.6749   -0.0000 C   0  0  0  0  0  0  0  0  0  0  0  0
   -6.6055   11.2849   -0.0000 C   0  0  0  0  0  0  0  0  0  0  0  0
   -5.3175   13.5183   -0.0000 N   0  0  0  0  0  0  0  0  0  0  0  0
   -7.9053   10.5523   -0.0000 N   0  0  0  0  0  0  0  0  0  0  0  0
   -6.6291   12.7856   -0.0000 C   0  0  0  0  0  0  0  0  0  0  0  0
   -5.6365   14.9953   -0.0000 C   0  0  0  0  0  0  0  0  0  0  0  0
   -7.7517   13.8019   -0.0000 N   0  0  0  0  0  0  0  0  0  0  0  0
   -4.6439   16.1061   -0.0000 C   0  0  0  0  0  0  0  0  0  0  0  0
   -7.1373   15.1608   -0.0000 C   0  0  0  0  0  0  0  0  0  0  0  0
   -3.6513   17.2287   -0.0000 N   0  0  0  0  0  0  0  0  0  0  0  0
  1  2  1  0  0  0  0
  2  3  2  0  0  0  0
  2  4  1  0  0  0  0
  3  5  1  0  0  0  0
  4  6  2  0  0  0  0
  5  7  2  0  0  0  0
  7  8  1  0  0  0  0
  8  9  2  0  0  0  0
  8 10  1  0  0  0  0
 10 11  1  0  0  0  0
 11 12  2  0  0  0  0
 11 13  1  0  0  0  0
 12 14  1  0  0  0  0
 13 15  2  0  0  0  0
 14 16  2  0  0  0  0
 14 17  1  0  0  0  0
 16 18  1  0  0  0  0
 17 19  1  0  0  0  0
 17 20  1  0  0  0  0
 17 21  1  6  0  0  0
 19 22  2  0  0  0  0
 20 23  1  0  0  0  0
 22 24  1  0  0  0  0
 22 25  1  0  0  0  0
 23 26  1  0  0  0  0
 25 27  2  0  0  0  0
 26 28  1  0  0  0  0
 26 29  2  0  0  0  0
 28 30  3  0  0  0  0
  6  7  1  0  0  0  0
 15 16  1  0  0  0  0
 23 25  1  0  0  0  0
 27 29  1  0  0  0  0
M  END
>  <MolRegNo>
2720384

>  <m>
=

>  <Value>
900

>  <Unit>
nM

>  <Type>
IC50

>  <pValue>
6.05

>  <Ligand Efficiency>
0

>  <Binding Efficiency>
0

>  <Surface Efficiency>
0

>  <Assay Index>
1510947

>  <Assay Category>


>  <Assay Organism>
Homo sapiens

>  <Target ID>
17045

>  <Target Name>
Cytochrome P450 3A4

>  <Target Organism>
Homo sapiens

>  <Target Description>
Target is a single protein chain

>  <Sequence Accession>
P08684

>  <Reference>
ACS Med Chem Lett 13 (1.0), 76-83 (2022)

>  <Pubmed ID>
35059126

>  <DOI>
10.1021/acsmedchemlett.1c00445

$$$$
2717832
Actelion Java MolfileCreator 1.0

 31 34  0  0  0  0  0  0  0  0999 V2000
    0.0000   -0.0000   -0.0000 F   0  0  0  0  0  0  0  0  0  0  0  0
    0.0000   -1.4871   -0.0000 C   0  0  0  0  0  0  0  0  0  0  0  0
   -1.3087   -2.2366   -0.0000 C   0  0  0  0  0  0  0  0  0  0  0  0
    1.2968   -2.2247   -0.0000 C   0  0  0  0  0  0  0  0  0  0  0  0
   -1.3087   -3.7238   -0.0000 C   0  0  0  0  0  0  0  0  0  0  0  0
   -2.6292   -1.4871   -0.0000 C   0  0  0  0  0  0  0  0  0  0  0  0
    1.2849   -3.7119   -0.0000 C   0  0  0  0  0  0  0  0  0  0  0  0
   -0.0238   -4.4495   -0.0000 C   0  0  0  0  0  0  0  0  0  0  0  0
   -3.9379   -2.2366   -0.0000 N   0  0  0  0  0  0  0  0  0  0  0  0
   -2.6530    0.0238   -0.0000 C   0  0  0  0  0  0  0  0  0  0  0  0
   -1.2016   -1.0826   -0.0000 C   0  0  0  0  0  0  0  0  0  0  0  0
   -0.0357   -5.9366   -0.0000 N   0  0  0  0  0  0  0  0  0  0  0  0
   -5.2585   -1.4752   -0.0000 C   0  0  0  0  0  0  0  0  0  0  0  0
   -3.9617    0.7733   -0.0000 N   0  0  0  0  0  0  0  0  0  0  0  0
    1.2492   -6.6742   -0.0000 C   0  0  0  0  0  0  0  0  0  0  0  0
   -6.5672   -2.2129   -0.0000 N   0  0  0  0  0  0  0  0  0  0  0  0
   -5.2823    0.0357   -0.0000 C   0  0  0  0  0  0  0  0  0  0  0  0
   -4.2829    2.2604   -0.0000 C   0  0  0  0  0  0  0  0  0  0  0  0
    2.5341   -5.9128   -0.0000 O   0  0  0  0  0  0  0  0  0  0  0  0
    1.2373   -8.1614   -0.0000 C   0  0  0  0  0  0  0  0  0  0  0  0
   -6.4125    1.0588   -0.0000 N   0  0  0  0  0  0  0  0  0  0  0  0
   -3.2836    3.3788   -0.0000 C   0  0  0  0  0  0  0  0  0  0  0  0
   -5.7939    2.4270   -0.0000 C   0  0  0  0  0  0  0  0  0  0  0  0
    2.5222   -8.8990   -0.0000 N   0  0  0  0  0  0  0  0  0  0  0  0
   -0.0714   -8.8990   -0.0000 C   0  0  0  0  0  0  0  0  0  0  0  0
   -2.2842    4.5090   -0.0000 N   0  0  0  0  0  0  0  0  0  0  0  0
    2.5103  -10.3980   -0.0000 C   0  0  0  0  0  0  0  0  0  0  0  0
   -0.0833  -10.3980   -0.0000 N   0  0  0  0  0  0  0  0  0  0  0  0
    1.1897  -11.1356   -0.0000 C   0  0  0  0  0  0  0  0  0  0  0  0
    1.1778  -12.6228   -0.0000 O   0  0  0  0  0  0  0  0  0  0  0  0
   -0.1309  -13.3604   -0.0000 C   0  0  0  0  0  0  0  0  0  0  0  0
  1  2  1  0  0  0  0
  2  3  2  0  0  0  0
  2  4  1  0  0  0  0
  3  5  1  0  0  0  0
  3  6  1  0  0  0  0
  4  7  2  0  0  0  0
  5  8  2  0  0  0  0
  6  9  1  0  0  0  0
  6 10  1  0  0  0  0
  6 11  1  6  0  0  0
  8 12  1  0  0  0  0
  9 13  2  0  0  0  0
 10 14  1  0  0  0  0
 12 15  1  0  0  0  0
 13 16  1  0  0  0  0
 13 17  1  0  0  0  0
 14 18  1  0  0  0  0
 15 19  2  0  0  0  0
 15 20  1  0  0  0  0
 17 21  2  0  0  0  0
 18 22  1  0  0  0  0
 18 23  2  0  0  0  0
 20 24  2  0  0  0  0
 20 25  1  0  0  0  0
 22 26  3  0  0  0  0
 24 27  1  0  0  0  0
 25 28  2  0  0  0  0
 27 29  2  0  0  0  0
 29 30  1  0  0  0  0
 30 31  1  0  0  0  0
  7  8  1  0  0  0  0
 14 17  1  0  0  0  0
 21 23  1  0  0  0  0
 28 29  1  0  0  0  0
M  END
>  <MolRegNo>
2717832

>  <m>
=

>  <Value>
3100

>  <Unit>
nM

>  <Type>
IC50

>  <pValue>
5.51

>  <Ligand Efficiency>
0

>  <Binding Efficiency>
0

>  <Surface Efficiency>
0

>  <Assay Index>
1510947

>  <Assay Category>


>  <Assay Organism>
Homo sapiens

>  <Target ID>
17045

>  <Target Name>
Cytochrome P450 3A4

>  <Target Organism>
Homo sapiens

>  <Target Description>
Target is a single protein chain

>  <Sequence Accession>
P08684

>  <Reference>
ACS Med Chem Lett 13 (1.0), 76-83 (2022)

>  <Pubmed ID>
35059126

>  <DOI>
10.1021/acsmedchemlett.1c00445

$$$$
2733390
Actelion Java MolfileCreator 1.0

 23 25  0  0  0  0  0  0  0  0999 V2000
    0.0000   -0.0000   -0.0000 O   0  0  0  0  0  0  0  0  0  0  0  0
   -0.0119    1.5083   -0.0000 C   0  0  0  0  0  0  0  0  0  0  0  0
   -1.3183    2.2684   -0.0000 N   0  0  0  0  0  0  0  0  0  0  0  0
    1.2708    2.2684   -0.0000 C   0  0  0  0  0  0  0  0  0  0  0  0
   -2.6247    1.5320   -0.0000 C   0  0  0  0  0  0  0  0  0  0  0  0
   -1.3301    3.7766   -0.0000 C   0  0  0  0  0  0  0  0  0  0  0  0
    2.5534    1.5320   -0.0000 C   0  0  0  0  0  0  0  0  0  0  0  0
    1.2589    3.7885   -0.0000 C   0  0  0  0  0  0  0  0  0  0  0  0
    2.5415    0.0475   -0.0000 N   0  0  0  0  0  0  0  0  0  0  0  0
    3.8479    2.2921   -0.0000 C   0  0  0  0  0  0  0  0  0  0  0  0
    2.5415    4.5486   -0.0000 C   0  0  0  0  0  0  0  0  0  0  0  0
    3.8360    3.8123   -0.0000 C   0  0  0  0  0  0  0  0  0  0  0  0
    2.5178    6.0569   -0.0000 C   0  0  0  0  0  0  0  0  0  0  0  0
    1.2114    6.8051   -0.0000 C   0  0  0  0  0  0  0  0  0  0  0  0
    3.8004    6.8170   -0.0000 C   0  0  0  0  0  0  0  0  0  0  0  0
    1.1876    8.3134   -0.0000 N   0  0  0  0  0  0  0  0  0  0  0  0
    3.7766    8.3253   -0.0000 C   0  0  0  0  0  0  0  0  0  0  0  0
    2.4821    9.0853   -0.0000 C   0  0  0  0  0  0  0  0  0  0  0  0
    4.8811    9.3466   -0.0000 C   0  0  0  0  0  0  0  0  0  0  0  0
    2.7790   10.5580   -0.0000 N   0  0  0  0  0  0  0  0  0  0  0  0
    4.2517   10.7243   -0.0000 C   0  0  0  0  0  0  0  0  0  0  0  0
    6.3300    9.0497   -0.0000 C   0  0  0  0  0  0  0  0  0  0  0  0
    6.7813    7.6364   -0.0000 C   0  0  0  0  0  0  0  0  0  0  0  0
  1  2  2  0  0  0  0
  2  3  1  0  0  0  0
  2  4  1  0  0  0  0
  3  5  1  0  0  0  0
  3  6  1  0  0  0  0
  4  7  2  0  0  0  0
  4  8  1  0  0  0  0
  7  9  1  0  0  0  0
  7 10  1  0  0  0  0
  8 11  2  0  0  0  0
 10 12  2  0  0  0  0
 11 13  1  0  0  0  0
 13 14  2  0  0  0  0
 13 15  1  0  0  0  0
 14 16  1  0  0  0  0
 15 17  2  0  0  0  0
 16 18  2  0  0  0  0
 17 19  1  0  0  0  0
 18 20  1  0  0  0  0
 19 21  2  0  0  0  0
 19 22  1  0  0  0  0
 22 23  1  0  0  0  0
 11 12  1  0  0  0  0
 17 18  1  0  0  0  0
 20 21  1  0  0  0  0
M  END
>  <MolRegNo>
2733390

>  <m>
=

>  <Value>
500

>  <Unit>
nM

>  <Type>
IC50

>  <pValue>
6.3

>  <Ligand Efficiency>
0

>  <Binding Efficiency>
0

>  <Surface Efficiency>
0

>  <Assay Index>
1511012

>  <Assay Category>


>  <Assay Organism>
Homo sapiens

>  <Target ID>
17045

>  <Target Name>
Cytochrome P450 3A4

>  <Target Organism>
Homo sapiens

>  <Target Description>
Target is a single protein chain

>  <Sequence Accession>
P08684

>  <Reference>
ACS Med Chem Lett 13 (1.0), 84-91 (2022)

>  <Pubmed ID>
35059127

>  <DOI>
10.1021/acsmedchemlett.1c00473

$$$$
2720335
Actelion Java MolfileCreator 1.0

 22 24  0  0  0  0  0  0  0  0999 V2000
    0.0000   -0.0000   -0.0000 O   0  0  0  0  0  0  0  0  0  0  0  0
   -0.0118    1.5119   -0.0000 C   0  0  0  0  0  0  0  0  0  0  0  0
   -1.3229    2.2678   -0.0000 N   0  0  0  0  0  0  0  0  0  0  0  0
    1.2638    2.2678   -0.0000 C   0  0  0  0  0  0  0  0  0  0  0  0
   -2.6339    1.5355   -0.0000 C   0  0  0  0  0  0  0  0  0  0  0  0
   -1.3347    3.7796   -0.0000 C   0  0  0  0  0  0  0  0  0  0  0  0
    1.2520    3.7796   -0.0000 C   0  0  0  0  0  0  0  0  0  0  0  0
    2.5513    1.5355   -0.0000 C   0  0  0  0  0  0  0  0  0  0  0  0
    2.5276    4.5474   -0.0000 C   0  0  0  0  0  0  0  0  0  0  0  0
    3.8387    2.2914   -0.0000 C   0  0  0  0  0  0  0  0  0  0  0  0
    2.5040    6.0474   -0.0000 C   0  0  0  0  0  0  0  0  0  0  0  0
    3.8151    3.8151   -0.0000 C   0  0  0  0  0  0  0  0  0  0  0  0
    1.1929    6.7915   -0.0000 C   0  0  0  0  0  0  0  0  0  0  0  0
    3.7914    6.8033   -0.0000 C   0  0  0  0  0  0  0  0  0  0  0  0
    1.1693    8.2916   -0.0000 N   0  0  0  0  0  0  0  0  0  0  0  0
    3.7678    8.3034   -0.0000 C   0  0  0  0  0  0  0  0  0  0  0  0
    2.4568    9.0711   -0.0000 C   0  0  0  0  0  0  0  0  0  0  0  0
    4.8663    9.3192   -0.0000 C   0  0  0  0  0  0  0  0  0  0  0  0
    2.7520   10.5475   -0.0000 N   0  0  0  0  0  0  0  0  0  0  0  0
    4.2403   10.7011   -0.0000 C   0  0  0  0  0  0  0  0  0  0  0  0
    6.3191    9.0239   -0.0000 C   0  0  0  0  0  0  0  0  0  0  0  0
    6.7679    7.6183   -0.0000 C   0  0  0  0  0  0  0  0  0  0  0  0
  1  2  2  0  0  0  0
  2  3  1  0  0  0  0
  2  4  1  0  0  0  0
  3  5  1  0  0  0  0
  3  6  1  0  0  0  0
  4  7  2  0  0  0  0
  4  8  1  0  0  0  0
  7  9  1  0  0  0  0
  8 10  2  0  0  0  0
  9 11  1  0  0  0  0
  9 12  2  0  0  0  0
 11 13  2  0  0  0  0
 11 14  1  0  0  0  0
 13 15  1  0  0  0  0
 14 16  2  0  0  0  0
 15 17  2  0  0  0  0
 16 18  1  0  0  0  0
 17 19  1  0  0  0  0
 18 20  2  0  0  0  0
 18 21  1  0  0  0  0
 21 22  1  0  0  0  0
 10 12  1  0  0  0  0
 16 17  1  0  0  0  0
 19 20  1  0  0  0  0
M  END
>  <MolRegNo>
2720335

>  <m>
=

>  <Value>
1700

>  <Unit>
nM

>  <Type>
IC50

>  <pValue>
5.77

>  <Ligand Efficiency>
0

>  <Binding Efficiency>
0

>  <Surface Efficiency>
0

>  <Assay Index>
1511012

>  <Assay Category>


>  <Assay Organism>
Homo sapiens

>  <Target ID>
17045

>  <Target Name>
Cytochrome P450 3A4

>  <Target Organism>
Homo sapiens

>  <Target Description>
Target is a single protein chain

>  <Sequence Accession>
P08684

>  <Reference>
ACS Med Chem Lett 13 (1.0), 84-91 (2022)

>  <Pubmed ID>
35059127

>  <DOI>
10.1021/acsmedchemlett.1c00473

$$$$
2718144
Actelion Java MolfileCreator 1.0

 23 25  0  0  0  0  0  0  0  0999 V2000
    0.0000   -0.0000   -0.0000 O   0  0  0  0  0  0  0  0  0  0  0  0
   -0.0118    1.5119   -0.0000 C   0  0  0  0  0  0  0  0  0  0  0  0
   -1.3229    2.2678   -0.0000 N   0  0  0  0  0  0  0  0  0  0  0  0
    1.2638    2.2678   -0.0000 C   0  0  0  0  0  0  0  0  0  0  0  0
   -2.6340    1.5355   -0.0000 C   0  0  0  0  0  0  0  0  0  0  0  0
   -1.3347    3.7797   -0.0000 C   0  0  0  0  0  0  0  0  0  0  0  0
    1.2520    3.7797   -0.0000 N   0  0  0  0  0  0  0  0  0  0  0  0
    2.5513    1.5355   -0.0000 C   0  0  0  0  0  0  0  0  0  0  0  0
    2.5277    4.5474   -0.0000 C   0  0  0  0  0  0  0  0  0  0  0  0
    2.5395    0.0472   -0.0000 N   0  0  0  0  0  0  0  0  0  0  0  0
    3.8387    2.2914   -0.0000 C   0  0  0  0  0  0  0  0  0  0  0  0
    2.5040    6.0475   -0.0000 C   0  0  0  0  0  0  0  0  0  0  0  0
    3.8151    3.8151   -0.0000 C   0  0  0  0  0  0  0  0  0  0  0  0
    1.1930    6.7916   -0.0000 C   0  0  0  0  0  0  0  0  0  0  0  0
    3.7915    6.8034   -0.0000 C   0  0  0  0  0  0  0  0  0  0  0  0
    1.1693    8.2917   -0.0000 N   0  0  0  0  0  0  0  0  0  0  0  0
    3.7679    8.3035   -0.0000 C   0  0  0  0  0  0  0  0  0  0  0  0
    2.4568    9.0712   -0.0000 C   0  0  0  0  0  0  0  0  0  0  0  0
    4.8663    9.3193   -0.0000 C   0  0  0  0  0  0  0  0  0  0  0  0
    2.7521   10.5477   -0.0000 N   0  0  0  0  0  0  0  0  0  0  0  0
    4.2403   10.7012   -0.0000 C   0  0  0  0  0  0  0  0  0  0  0  0
    6.3192    9.0240   -0.0000 C   0  0  0  0  0  0  0  0  0  0  0  0
    6.7680    7.6066   -0.0000 C   0  0  0  0  0  0  0  0  0  0  0  0
  1  2  2  0  0  0  0
  2  3  1  0  0  0  0
  2  4  1  0  0  0  0
  3  5  1  0  0  0  0
  3  6  1  0  0  0  0
  4  7  2  0  0  0  0
  4  8  1  0  0  0  0
  7  9  1  0  0  0  0
  8 10  1  0  0  0  0
  8 11  2  0  0  0  0
  9 12  1  0  0  0  0
  9 13  2  0  0  0  0
 12 14  2  0  0  0  0
 12 15  1  0  0  0  0
 14 16  1  0  0  0  0
 15 17  2  0  0  0  0
 16 18  2  0  0  0  0
 17 19  1  0  0  0  0
 18 20  1  0  0  0  0
 19 21  2  0  0  0  0
 19 22  1  0  0  0  0
 22 23  1  0  0  0  0
 11 13  1  0  0  0  0
 17 18  1  0  0  0  0
 20 21  1  0  0  0  0
M  END
>  <MolRegNo>
2718144

>  <m>
=

>  <Value>
1600

>  <Unit>
nM

>  <Type>
IC50

>  <pValue>
5.8

>  <Ligand Efficiency>
0

>  <Binding Efficiency>
0

>  <Surface Efficiency>
0

>  <Assay Index>
1511012

>  <Assay Category>


>  <Assay Organism>
Homo sapiens

>  <Target ID>
17045

>  <Target Name>
Cytochrome P450 3A4

>  <Target Organism>
Homo sapiens

>  <Target Description>
Target is a single protein chain

>  <Sequence Accession>
P08684

>  <Reference>
ACS Med Chem Lett 13 (1.0), 84-91 (2022)

>  <Pubmed ID>
35059127

>  <DOI>
10.1021/acsmedchemlett.1c00473

$$$$
2737256
Actelion Java MolfileCreator 1.0

 24 26  0  0  0  0  0  0  0  0999 V2000
    0.0000   -0.0000   -0.0000 F   0  0  0  0  0  0  0  0  0  0  0  0
    1.2784   -0.7458   -0.0000 C   0  0  0  0  0  0  0  0  0  0  0  0
    1.2666   -2.2373   -0.0000 C   0  0  0  0  0  0  0  0  0  0  0  0
    2.5569    0.0237   -0.0000 C   0  0  0  0  0  0  0  0  0  0  0  0
    2.5569   -2.9712   -0.0000 C   0  0  0  0  0  0  0  0  0  0  0  0
   -0.0355   -2.9712   -0.0000 C   0  0  0  0  0  0  0  0  0  0  0  0
    2.5332    1.5270   -0.0000 C   0  0  0  0  0  0  0  0  0  0  0  0
    3.8472   -0.7102   -0.0000 C   0  0  0  0  0  0  0  0  0  0  0  0
    2.5451   -4.4627   -0.0000 N   0  0  0  0  0  0  0  0  0  0  0  0
    3.8472   -2.2136   -0.0000 C   0  0  0  0  0  0  0  0  0  0  0  0
   -0.0473   -4.4627   -0.0000 O   0  0  0  0  0  0  0  0  0  0  0  0
   -1.3495   -2.2136   -0.0000 N   0  0  0  0  0  0  0  0  0  0  0  0
    1.2193    2.2728   -0.0000 C   0  0  0  0  0  0  0  0  0  0  0  0
    3.8235    2.2846   -0.0000 C   0  0  0  0  0  0  0  0  0  0  0  0
   -2.6634   -2.9475   -0.0000 C   0  0  0  0  0  0  0  0  0  0  0  0
   -1.3613   -0.6984   -0.0000 C   0  0  0  0  0  0  0  0  0  0  0  0
    1.1956    3.7762   -0.0000 N   0  0  0  0  0  0  0  0  0  0  0  0
    3.7998    3.7880   -0.0000 C   0  0  0  0  0  0  0  0  0  0  0  0
    2.4859    4.5574   -0.0000 C   0  0  0  0  0  0  0  0  0  0  0  0
    4.9007    4.8060   -0.0000 C   0  0  0  0  0  0  0  0  0  0  0  0
    2.7818    6.0371   -0.0000 N   0  0  0  0  0  0  0  0  0  0  0  0
    4.2733    6.1910   -0.0000 C   0  0  0  0  0  0  0  0  0  0  0  0
    6.3567    4.5101   -0.0000 C   0  0  0  0  0  0  0  0  0  0  0  0
    6.8066    3.0896   -0.0000 C   0  0  0  0  0  0  0  0  0  0  0  0
  1  2  1  0  0  0  0
  2  3  2  0  0  0  0
  2  4  1  0  0  0  0
  3  5  1  0  0  0  0
  3  6  1  0  0  0  0
  4  7  1  0  0  0  0
  4  8  2  0  0  0  0
  5  9  1  0  0  0  0
  5 10  2  0  0  0  0
  6 11  2  0  0  0  0
  6 12  1  0  0  0  0
  7 13  2  0  0  0  0
  7 14  1  0  0  0  0
 12 15  1  0  0  0  0
 12 16  1  0  0  0  0
 13 17  1  0  0  0  0
 14 18  2  0  0  0  0
 17 19  2  0  0  0  0
 18 20  1  0  0  0  0
 19 21  1  0  0  0  0
 20 22  2  0  0  0  0
 20 23  1  0  0  0  0
 23 24  1  0  0  0  0
  8 10  1  0  0  0  0
 18 19  1  0  0  0  0
 21 22  1  0  0  0  0
M  END
>  <MolRegNo>
2737256

>  <m>
=

>  <Value>
700

>  <Unit>
nM

>  <Type>
IC50

>  <pValue>
6.16

>  <Ligand Efficiency>
0

>  <Binding Efficiency>
0

>  <Surface Efficiency>
0

>  <Assay Index>
1511012

>  <Assay Category>


>  <Assay Organism>
Homo sapiens

>  <Target ID>
17045

>  <Target Name>
Cytochrome P450 3A4

>  <Target Organism>
Homo sapiens

>  <Target Description>
Target is a single protein chain

>  <Sequence Accession>
P08684

>  <Reference>
ACS Med Chem Lett 13 (1.0), 84-91 (2022)

>  <Pubmed ID>
35059127

>  <DOI>
10.1021/acsmedchemlett.1c00473

$$$$
2730724
Actelion Java MolfileCreator 1.0

 24 26  0  0  0  0  0  0  0  0999 V2000
    0.0000   -0.0000   -0.0000 Cl  0  0  0  0  0  0  0  0  0  0  0  0
   -0.7629   -1.2874   -0.0000 C   0  0  0  0  0  0  0  0  0  0  0  0
   -2.2648   -1.4304   -0.0000 N   0  0  0  0  0  0  0  0  0  0  0  0
   -0.1550   -2.6463   -0.0000 C   0  0  0  0  0  0  0  0  0  0  0  0
   -2.5867   -2.8847   -0.0000 C   0  0  0  0  0  0  0  0  0  0  0  0
   -1.2874   -3.6356   -0.0000 C   0  0  0  0  0  0  0  0  0  0  0  0
    1.2993   -2.9443   -0.0000 C   0  0  0  0  0  0  0  0  0  0  0  0
   -3.9098   -3.6356   -0.0000 N   0  0  0  0  0  0  0  0  0  0  0  0
   -1.2874   -5.1257   -0.0000 C   0  0  0  0  0  0  0  0  0  0  0  0
    1.7523   -4.3628   -0.0000 C   0  0  0  0  0  0  0  0  0  0  0  0
   -3.9098   -5.1257   -0.0000 C   0  0  0  0  0  0  0  0  0  0  0  0
   -2.5986   -5.8766   -0.0000 C   0  0  0  0  0  0  0  0  0  0  0  0
   -2.5986   -7.3666   -0.0000 C   0  0  0  0  0  0  0  0  0  0  0  0
   -3.9098   -8.1057   -0.0000 C   0  0  0  0  0  0  0  0  0  0  0  0
   -1.2993   -8.0938   -0.0000 C   0  0  0  0  0  0  0  0  0  0  0  0
   -3.9217   -9.6076   -0.0000 C   0  0  0  0  0  0  0  0  0  0  0  0
   -1.3112   -9.5957   -0.0000 C   0  0  0  0  0  0  0  0  0  0  0  0
   -2.6344  -10.3467   -0.0000 C   0  0  0  0  0  0  0  0  0  0  0  0
   -5.2329  -10.3467   -0.0000 C   0  0  0  0  0  0  0  0  0  0  0  0
   -2.6463  -11.8367   -0.0000 N   0  0  0  0  0  0  0  0  0  0  0  0
   -5.2449  -11.8367   -0.0000 O   0  0  0  0  0  0  0  0  0  0  0  0
   -6.5442   -9.5838   -0.0000 N   0  0  0  0  0  0  0  0  0  0  0  0
   -7.8554  -10.3228   -0.0000 C   0  0  0  0  0  0  0  0  0  0  0  0
   -6.5561   -8.0699   -0.0000 C   0  0  0  0  0  0  0  0  0  0  0  0
  1  2  1  0  0  0  0
  2  3  1  0  0  0  0
  2  4  2  0  0  0  0
  3  5  1  0  0  0  0
  4  6  1  0  0  0  0
  4  7  1  0  0  0  0
  5  8  1  0  0  0  0
  6  9  1  0  0  0  0
  7 10  1  0  0  0  0
  8 11  2  0  0  0  0
  9 12  2  0  0  0  0
 12 13  1  0  0  0  0
 13 14  2  0  0  0  0
 13 15  1  0  0  0  0
 14 16  1  0  0  0  0
 15 17  2  0  0  0  0
 16 18  2  0  0  0  0
 16 19  1  0  0  0  0
 18 20  1  0  0  0  0
 19 21  2  0  0  0  0
 19 22  1  0  0  0  0
 22 23  1  0  0  0  0
 22 24  1  0  0  0  0
  5  6  2  0  0  0  0
 11 12  1  0  0  0  0
 17 18  1  0  0  0  0
M  END
>  <MolRegNo>
2730724

>  <m>
=

>  <Value>
200

>  <Unit>
nM

>  <Type>
IC50

>  <pValue>
6.7

>  <Ligand Efficiency>
0

>  <Binding Efficiency>
0

>  <Surface Efficiency>
0

>  <Assay Index>
1511012

>  <Assay Category>


>  <Assay Organism>
Homo sapiens

>  <Target ID>
17045

>  <Target Name>
Cytochrome P450 3A4

>  <Target Organism>
Homo sapiens

>  <Target Description>
Target is a single protein chain

>  <Sequence Accession>
P08684

>  <Reference>
ACS Med Chem Lett 13 (1.0), 84-91 (2022)

>  <Pubmed ID>
35059127

>  <DOI>
10.1021/acsmedchemlett.1c00473

$$$$
2714064
Actelion Java MolfileCreator 1.0

 25 28  0  0  0  0  0  0  0  0999 V2000
    0.0000   -0.0000   -0.0000 O   0  0  0  0  0  0  0  0  0  0  0  0
   -0.0119    1.5119   -0.0000 C   0  0  0  0  0  0  0  0  0  0  0  0
   -1.3214    2.2738   -0.0000 N   0  0  0  0  0  0  0  0  0  0  0  0
    1.2738    2.2738   -0.0000 C   0  0  0  0  0  0  0  0  0  0  0  0
   -2.6309    1.5357   -0.0000 C   0  0  0  0  0  0  0  0  0  0  0  0
   -1.3333    3.7856   -0.0000 C   0  0  0  0  0  0  0  0  0  0  0  0
    2.5595    1.5357   -0.0000 C   0  0  0  0  0  0  0  0  0  0  0  0
    1.2619    3.7975   -0.0000 C   0  0  0  0  0  0  0  0  0  0  0  0
    2.5476    0.0476   -0.0000 N   0  0  0  0  0  0  0  0  0  0  0  0
    3.8570    2.2976   -0.0000 C   0  0  0  0  0  0  0  0  0  0  0  0
    2.5476    4.5594   -0.0000 C   0  0  0  0  0  0  0  0  0  0  0  0
    3.8451    3.8213   -0.0000 C   0  0  0  0  0  0  0  0  0  0  0  0
    2.5237    6.0713   -0.0000 C   0  0  0  0  0  0  0  0  0  0  0  0
    1.2143    6.8213   -0.0000 C   0  0  0  0  0  0  0  0  0  0  0  0
    3.8094    6.8332   -0.0000 C   0  0  0  0  0  0  0  0  0  0  0  0
    1.1904    8.3331   -0.0000 N   0  0  0  0  0  0  0  0  0  0  0  0
    3.7856    8.3450   -0.0000 C   0  0  0  0  0  0  0  0  0  0  0  0
    2.4880    9.1069   -0.0000 C   0  0  0  0  0  0  0  0  0  0  0  0
    4.8808    9.3569   -0.0000 C   0  0  0  0  0  0  0  0  0  0  0  0
    2.7856   10.5831   -0.0000 N   0  0  0  0  0  0  0  0  0  0  0  0
    4.2618   10.7497   -0.0000 C   0  0  0  0  0  0  0  0  0  0  0  0
    5.6070    8.0831   -0.0000 C   0  0  0  0  0  0  0  0  0  0  0  0
    5.8689   10.4759   -0.0000 C   0  0  0  0  0  0  0  0  0  0  0  0
    7.0474    8.4045   -0.0000 C   0  0  0  0  0  0  0  0  0  0  0  0
    7.2141    9.8807   -0.0000 C   0  0  0  0  0  0  0  0  0  0  0  0
  1  2  2  0  0  0  0
  2  3  1  0  0  0  0
  2  4  1  0  0  0  0
  3  5  1  0  0  0  0
  3  6  1  0  0  0  0
  4  7  2  0  0  0  0
  4  8  1  0  0  0  0
  7  9  1  0  0  0  0
  7 10  1  0  0  0  0
  8 11  2  0  0  0  0
 10 12  2  0  0  0  0
 11 13  1  0  0  0  0
 13 14  2  0  0  0  0
 13 15  1  0  0  0  0
 14 16  1  0  0  0  0
 15 17  2  0  0  0  0
 16 18  2  0  0  0  0
 17 19  1  0  0  0  0
 18 20  1  0  0  0  0
 19 21  1  0  0  0  0
 19 22  1  0  0  0  0
 19 23  1  0  0  0  0
 22 24  1  0  0  0  0
 23 25  1  0  0  0  0
 11 12  1  0  0  0  0
 17 18  1  0  0  0  0
 20 21  1  0  0  0  0
 24 25  1  0  0  0  0
M  END
>  <MolRegNo>
2714064

>  <m>
=

>  <Value>
9800

>  <Unit>
nM

>  <Type>
IC50

>  <pValue>
5.01

>  <Ligand Efficiency>
0

>  <Binding Efficiency>
0

>  <Surface Efficiency>
0

>  <Assay Index>
1511012

>  <Assay Category>


>  <Assay Organism>
Homo sapiens

>  <Target ID>
17045

>  <Target Name>
Cytochrome P450 3A4

>  <Target Organism>
Homo sapiens

>  <Target Description>
Target is a single protein chain

>  <Sequence Accession>
P08684

>  <Reference>
ACS Med Chem Lett 13 (1.0), 84-91 (2022)

>  <Pubmed ID>
35059127

>  <DOI>
10.1021/acsmedchemlett.1c00473

$$$$
2722949
Actelion Java MolfileCreator 1.0

 25 28  0  0  0  0  0  0  0  0999 V2000
    0.0000   -0.0000   -0.0000 F   0  0  0  0  0  0  0  0  0  0  0  0
    1.2803   -0.7350   -0.0000 C   0  0  0  0  0  0  0  0  0  0  0  0
    1.2684   -2.2286   -0.0000 C   0  0  0  0  0  0  0  0  0  0  0  0
    2.5606    0.0356   -0.0000 C   0  0  0  0  0  0  0  0  0  0  0  0
    2.5606   -2.9636   -0.0000 C   0  0  0  0  0  0  0  0  0  0  0  0
   -0.0474   -2.9636   -0.0000 C   0  0  0  0  0  0  0  0  0  0  0  0
    2.5369    1.5411   -0.0000 C   0  0  0  0  0  0  0  0  0  0  0  0
    3.8527   -0.6994   -0.0000 C   0  0  0  0  0  0  0  0  0  0  0  0
    2.5487   -4.4573   -0.0000 N   0  0  0  0  0  0  0  0  0  0  0  0
    3.8527   -2.2049   -0.0000 C   0  0  0  0  0  0  0  0  0  0  0  0
   -0.0593   -4.4573   -0.0000 O   0  0  0  0  0  0  0  0  0  0  0  0
   -1.3633   -2.2049   -0.0000 N   0  0  0  0  0  0  0  0  0  0  0  0
    3.8290    2.2998   -0.0000 C   0  0  0  0  0  0  0  0  0  0  0  0
    1.2210    2.2879   -0.0000 C   0  0  0  0  0  0  0  0  0  0  0  0
   -2.6791   -2.9399   -0.0000 C   0  0  0  0  0  0  0  0  0  0  0  0
   -1.3751   -0.6876   -0.0000 C   0  0  0  0  0  0  0  0  0  0  0  0
    3.8053    3.8053   -0.0000 C   0  0  0  0  0  0  0  0  0  0  0  0
    5.1093    1.5648   -0.0000 C   0  0  0  0  0  0  0  0  0  0  0  0
    1.1973    3.7934   -0.0000 N   0  0  0  0  0  0  0  0  0  0  0  0
    2.4894    4.5758   -0.0000 C   0  0  0  0  0  0  0  0  0  0  0  0
    4.8959    4.8248   -0.0000 C   0  0  0  0  0  0  0  0  0  0  0  0
    2.7858    6.0577   -0.0000 N   0  0  0  0  0  0  0  0  0  0  0  0
    4.2795    6.1999   -0.0000 C   0  0  0  0  0  0  0  0  0  0  0  0
    6.3303    5.2278   -0.0000 C   0  0  0  0  0  0  0  0  0  0  0  0
    5.9510    3.7816   -0.0000 C   0  0  0  0  0  0  0  0  0  0  0  0
  1  2  1  0  0  0  0
  2  3  2  0  0  0  0
  2  4  1  0  0  0  0
  3  5  1  0  0  0  0
  3  6  1  0  0  0  0
  4  7  1  0  0  0  0
  4  8  2  0  0  0  0
  5  9  1  0  0  0  0
  5 10  2  0  0  0  0
  6 11  2  0  0  0  0
  6 12  1  0  0  0  0
  7 13  2  0  0  0  0
  7 14  1  0  0  0  0
 12 15  1  0  0  0  0
 12 16  1  0  0  0  0
 13 17  1  0  0  0  0
 13 18  1  0  0  0  0
 14 19  2  0  0  0  0
 17 20  2  0  0  0  0
 17 21  1  0  0  0  0
 20 22  1  0  0  0  0
 21 23  1  0  0  0  0
 21 24  1  0  0  0  0
 21 25  1  0  0  0  0
  8 10  1  0  0  0  0
 19 20  1  0  0  0  0
 22 23  1  0  0  0  0
 24 25  1  0  0  0  0
M  END
>  <MolRegNo>
2722949

>  <m>
=

>  <Value>
6500

>  <Unit>
nM

>  <Type>
IC50

>  <pValue>
5.19

>  <Ligand Efficiency>
0

>  <Binding Efficiency>
0

>  <Surface Efficiency>
0

>  <Assay Index>
1511012

>  <Assay Category>


>  <Assay Organism>
Homo sapiens

>  <Target ID>
17045

>  <Target Name>
Cytochrome P450 3A4

>  <Target Organism>
Homo sapiens

>  <Target Description>
Target is a single protein chain

>  <Sequence Accession>
P08684

>  <Reference>
ACS Med Chem Lett 13 (1.0), 84-91 (2022)

>  <Pubmed ID>
35059127

>  <DOI>
10.1021/acsmedchemlett.1c00473

$$$$
2737696
Actelion Java MolfileCreator 1.0

 27 30  0  0  0  0  0  0  0  0999 V2000
    0.0000   -0.0000   -0.0000 Cl  0  0  0  0  0  0  0  0  0  0  0  0
   -1.3104    0.7624   -0.0000 C   0  0  0  0  0  0  0  0  0  0  0  0
   -2.6208    0.0238   -0.0000 C   0  0  0  0  0  0  0  0  0  0  0  0
   -1.3342    2.2753   -0.0000 C   0  0  0  0  0  0  0  0  0  0  0  0
   -2.6208   -1.4653   -0.0000 C   0  0  0  0  0  0  0  0  0  0  0  0
   -3.9312    0.7743   -0.0000 C   0  0  0  0  0  0  0  0  0  0  0  0
   -2.6446    3.0377   -0.0000 C   0  0  0  0  0  0  0  0  0  0  0  0
   -0.2383    3.2879   -0.0000 C   0  0  0  0  0  0  0  0  0  0  0  0
   -3.9312   -2.2038   -0.0000 C   0  0  0  0  0  0  0  0  0  0  0  0
   -1.3342   -2.2038   -0.0000 C   0  0  0  0  0  0  0  0  0  0  0  0
   -3.9550    2.2872   -0.0000 N   0  0  0  0  0  0  0  0  0  0  0  0
   -2.3468    4.5149   -0.0000 N   0  0  0  0  0  0  0  0  0  0  0  0
   -0.8577    4.6817   -0.0000 C   0  0  0  0  0  0  0  0  0  0  0  0
    0.4884    2.0132   -0.0000 C   0  0  0  0  0  0  0  0  0  0  0  0
    0.7505    4.4077   -0.0000 C   0  0  0  0  0  0  0  0  0  0  0  0
   -5.2416   -1.4414   -0.0000 F   0  0  0  0  0  0  0  0  0  0  0  0
   -3.9431   -3.7048   -0.0000 C   0  0  0  0  0  0  0  0  0  0  0  0
   -1.3461   -3.7048   -0.0000 C   0  0  0  0  0  0  0  0  0  0  0  0
    1.9298    2.3349   -0.0000 C   0  0  0  0  0  0  0  0  0  0  0  0
    2.0966    3.8120   -0.0000 C   0  0  0  0  0  0  0  0  0  0  0  0
   -2.6565   -4.4434   -0.0000 C   0  0  0  0  0  0  0  0  0  0  0  0
   -5.2535   -4.4434   -0.0000 C   0  0  0  0  0  0  0  0  0  0  0  0
   -2.6684   -5.9325   -0.0000 N   0  0  0  0  0  0  0  0  0  0  0  0
   -5.2654   -5.9325   -0.0000 O   0  0  0  0  0  0  0  0  0  0  0  0
   -6.5639   -3.6810   -0.0000 N   0  0  0  0  0  0  0  0  0  0  0  0
   -7.8742   -4.4196   -0.0000 C   0  0  0  0  0  0  0  0  0  0  0  0
   -6.5758   -2.1681   -0.0000 C   0  0  0  0  0  0  0  0  0  0  0  0
  1  2  1  0  0  0  0
  2  3  2  0  0  0  0
  2  4  1  0  0  0  0
  3  5  1  0  0  0  0
  3  6  1  0  0  0  0
  4  7  2  0  0  0  0
  4  8  1  0  0  0  0
  5  9  2  0  0  0  0
  5 10  1  0  0  0  0
  6 11  2  0  0  0  0
  7 12  1  0  0  0  0
  8 13  1  0  0  0  0
  8 14  1  0  0  0  0
  8 15  1  0  0  0  0
  9 16  1  0  0  0  0
  9 17  1  0  0  0  0
 10 18  2  0  0  0  0
 14 19  1  0  0  0  0
 15 20  1  0  0  0  0
 17 21  2  0  0  0  0
 17 22  1  0  0  0  0
 21 23  1  0  0  0  0
 22 24  2  0  0  0  0
 22 25  1  0  0  0  0
 25 26  1  0  0  0  0
 25 27  1  0  0  0  0
  7 11  1  0  0  0  0
 12 13  1  0  0  0  0
 18 21  1  0  0  0  0
 19 20  1  0  0  0  0
M  END
>  <MolRegNo>
2737696

>  <m>
=

>  <Value>
800

>  <Unit>
nM

>  <Type>
IC50

>  <pValue>
6.1

>  <Ligand Efficiency>
0

>  <Binding Efficiency>
0

>  <Surface Efficiency>
0

>  <Assay Index>
1511012

>  <Assay Category>


>  <Assay Organism>
Homo sapiens

>  <Target ID>
17045

>  <Target Name>
Cytochrome P450 3A4

>  <Target Organism>
Homo sapiens

>  <Target Description>
Target is a single protein chain

>  <Sequence Accession>
P08684

>  <Reference>
ACS Med Chem Lett 13 (1.0), 84-91 (2022)

>  <Pubmed ID>
35059127

>  <DOI>
10.1021/acsmedchemlett.1c00473

$$$$
2721547
Actelion Java MolfileCreator 1.0

 27 30  0  0  0  0  0  0  0  0999 V2000
    0.0000   -0.0000   -0.0000 F   0  0  0  0  0  0  0  0  0  0  0  0
   -1.4832   -0.1413   -0.0000 C   0  0  0  0  0  0  0  0  0  0  0  0
   -2.4603    1.2478   -0.0000 F   0  0  0  0  0  0  0  0  0  0  0  0
   -2.0954   -1.4832   -0.0000 N   0  0  0  0  0  0  0  0  0  0  0  0
   -1.3655   -2.7546   -0.0000 N   0  0  0  0  0  0  0  0  0  0  0  0
   -3.5551   -1.7775   -0.0000 C   0  0  0  0  0  0  0  0  0  0  0  0
   -2.3661   -3.8494   -0.0000 C   0  0  0  0  0  0  0  0  0  0  0  0
   -3.7199   -3.2490   -0.0000 C   0  0  0  0  0  0  0  0  0  0  0  0
   -5.0148   -3.9789   -0.0000 N   0  0  0  0  0  0  0  0  0  0  0  0
   -6.3097   -3.2255   -0.0000 C   0  0  0  0  0  0  0  0  0  0  0  0
   -6.3214   -1.7187   -0.0000 N   0  0  0  0  0  0  0  0  0  0  0  0
   -7.6163   -3.9553   -0.0000 N   0  0  0  0  0  0  0  0  0  0  0  0
   -7.6163   -0.9653   -0.0000 C   0  0  0  0  0  0  0  0  0  0  0  0
   -8.9112   -3.2019   -0.0000 C   0  0  0  0  0  0  0  0  0  0  0  0
   -7.6281    0.5297   -0.0000 N   0  0  0  0  0  0  0  0  0  0  0  0
   -8.9112   -1.6951   -0.0000 C   0  0  0  0  0  0  0  0  0  0  0  0
   -6.3450    1.2831   -0.0000 C   0  0  0  0  0  0  0  0  0  0  0  0
   -8.9230    1.2714   -0.0000 C   0  0  0  0  0  0  0  0  0  0  0  0
  -10.2061   -0.9417   -0.0000 C   0  0  0  0  0  0  0  0  0  0  0  0
   -6.3568    2.7781   -0.0000 C   0  0  0  0  0  0  0  0  0  0  0  0
   -8.9348    2.7781   -0.0000 C   0  0  0  0  0  0  0  0  0  0  0  0
   -7.6517    3.5786   -0.0000 C   0  0  0  0  0  0  0  0  0  0  0  0
   -8.7700    4.5792   -0.0000 C   0  0  0  0  0  0  0  0  0  0  0  0
   -6.3803    4.3438   -0.0000 C   0  0  0  0  0  0  0  0  0  0  0  0
  -10.2297    4.2732   -0.0000 O   0  0  0  0  0  0  0  0  0  0  0  0
   -8.1814    5.9565   -0.0000 N   0  0  0  0  0  0  0  0  0  0  0  0
   -6.7099    5.8035   -0.0000 C   0  0  0  0  0  0  0  0  0  0  0  0
  1  2  1  0  0  0  0
  2  3  1  0  0  0  0
  2  4  1  0  0  0  0
  4  5  1  0  0  0  0
  4  6  1  0  0  0  0
  5  7  2  0  0  0  0
  6  8  2  0  0  0  0
  8  9  1  0  0  0  0
  9 10  1  0  0  0  0
 10 11  2  0  0  0  0
 10 12  1  0  0  0  0
 11 13  1  0  0  0  0
 12 14  2  0  0  0  0
 13 15  1  0  0  0  0
 13 16  2  0  0  0  0
 15 17  1  0  0  0  0
 15 18  1  0  0  0  0
 16 19  1  0  0  0  0
 17 20  1  0  0  0  0
 18 21  1  0  0  0  0
 20 22  1  0  0  0  0
 22 23  1  0  0  0  0
 22 24  1  0  0  0  0
 23 25  2  0  0  0  0
 23 26  1  0  0  0  0
 24 27  1  0  0  0  0
  7  8  1  0  0  0  0
 14 16  1  0  0  0  0
 21 22  1  0  0  0  0
 26 27  1  0  0  0  0
M  END
>  <MolRegNo>
2721547

>  <m>
=

>  <Value>
5200

>  <Unit>
nM

>  <Type>
IC50

>  <pValue>
5.28

>  <Ligand Efficiency>
0

>  <Binding Efficiency>
0

>  <Surface Efficiency>
0

>  <Assay Index>
1511176

>  <Assay Category>


>  <Assay Organism>
Homo sapiens

>  <Target ID>
17045

>  <Target Name>
Cytochrome P450 3A4

>  <Target Organism>
Homo sapiens

>  <Target Description>
Target is a single protein chain

>  <Sequence Accession>
P08684

>  <Reference>
J Med Chem 65 (4.0), 3151-3172 (2022)

>  <Pubmed ID>
35113547

>  <DOI>
10.1021/acs.jmedchem.1c01137

$$$$
2725312
Actelion Java MolfileCreator 1.0

 36 40  0  0  0  0  0  0  0  0999 V2000
    0.0000   -0.0000   -0.0000 O   0  0  0  0  0  0  0  0  0  0  0  0
   -0.0119    1.5127   -0.0000 C   0  0  0  0  0  0  0  0  0  0  0  0
   -1.3340    2.2750   -0.0000 N   0  0  0  0  0  0  0  0  0  0  0  0
    1.2864    2.2750   -0.0000 C   0  0  0  0  0  0  0  0  0  0  0  0
   -2.6562    1.5365   -0.0000 C   0  0  0  0  0  0  0  0  0  0  0  0
    1.4293    3.7877   -0.0000 N   0  0  0  0  0  0  0  0  0  0  0  0
    2.6562    1.6795   -0.0000 N   0  0  0  0  0  0  0  0  0  0  0  0
   -2.6681    0.0476   -0.0000 C   0  0  0  0  0  0  0  0  0  0  0  0
   -3.4900    2.6443   -0.0000 C   0  0  0  0  0  0  0  0  0  0  0  0
    2.8944    4.1093   -0.0000 O   0  0  0  0  0  0  0  0  0  0  0  0
    3.6567    2.8110   -0.0000 C   0  0  0  0  0  0  0  0  0  0  0  0
   -3.9902   -0.6908   -0.0000 C   0  0  0  0  0  0  0  0  0  0  0  0
   -1.3817   -0.6908   -0.0000 C   0  0  0  0  0  0  0  0  0  0  0  0
   -5.0027    2.5371   -0.0000 C   0  0  0  0  0  0  0  0  0  0  0  0
    5.1456    2.8229   -0.0000 C   0  0  0  0  0  0  0  0  0  0  0  0
   -4.0021   -2.1797   -0.0000 C   0  0  0  0  0  0  0  0  0  0  0  0
   -5.4076   -0.1310   -0.0000 C   0  0  0  0  0  0  0  0  0  0  0  0
   -1.3817   -2.1797   -0.0000 C   0  0  0  0  0  0  0  0  0  0  0  0
   -5.8603    1.2864   -0.0000 C   0  0  0  0  0  0  0  0  0  0  0  0
    5.8841    4.1451   -0.0000 C   0  0  0  0  0  0  0  0  0  0  0  0
    5.8841    1.5246   -0.0000 C   0  0  0  0  0  0  0  0  0  0  0  0
    6.6464    2.8348   -0.0000 C   0  0  0  0  0  0  0  0  0  0  0  0
   -2.7038   -2.9182   -0.0000 C   0  0  0  0  0  0  0  0  0  0  0  0
   -2.7157   -4.4190   -0.0000 C   0  0  0  0  0  0  0  0  0  0  0  0
   -1.4293   -5.1575   -0.0000 N   0  0  0  0  0  0  0  0  0  0  0  0
   -4.0379   -5.1575   -0.0000 C   0  0  0  0  0  0  0  0  0  0  0  0
   -1.4412   -6.6583   -0.0000 C   0  0  0  0  0  0  0  0  0  0  0  0
   -4.0498   -6.6583   -0.0000 C   0  0  0  0  0  0  0  0  0  0  0  0
   -2.7515   -7.3968   -0.0000 N   0  0  0  0  0  0  0  0  0  0  0  0
   -0.1429   -7.3968   -0.0000 N   0  0  0  0  0  0  0  0  0  0  0  0
    1.1435   -6.6345   -0.0000 C   0  0  0  0  0  0  0  0  0  0  0  0
    1.1316   -5.1099   -0.0000 C   0  0  0  0  0  0  0  0  0  0  0  0
    2.5609   -7.0752   -0.0000 C   0  0  0  0  0  0  0  0  0  0  0  0
    2.5847   -4.6453   -0.0000 N   0  0  0  0  0  0  0  0  0  0  0  0
    3.4423   -5.8484   -0.0000 N   0  0  0  0  0  0  0  0  0  0  0  0
    4.9431   -5.8364   -0.0000 C   0  0  0  0  0  0  0  0  0  0  0  0
  1  2  2  0  0  0  0
  2  3  1  0  0  0  0
  2  4  1  0  0  0  0
  5  3  1  6  0  0  0
  4  6  2  0  0  0  0
  4  7  1  0  0  0  0
  5  8  1  0  0  0  0
  5  9  1  0  0  0  0
  6 10  1  0  0  0  0
  7 11  2  0  0  0  0
  8 12  2  0  0  0  0
  8 13  1  0  0  0  0
  9 14  1  0  0  0  0
 11 15  1  0  0  0  0
 12 16  1  0  0  0  0
 12 17  1  0  0  0  0
 13 18  2  0  0  0  0
 14 19  1  0  0  0  0
 15 20  1  0  0  0  0
 15 21  1  0  0  0  0
 15 22  1  0  0  0  0
 16 23  2  0  0  0  0
 23 24  1  0  0  0  0
 24 25  2  0  0  0  0
 24 26  1  0  0  0  0
 25 27  1  0  0  0  0
 26 28  2  0  0  0  0
 27 29  2  0  0  0  0
 27 30  1  0  0  0  0
 30 31  1  0  0  0  0
 31 32  1  0  0  0  0
 31 33  2  0  0  0  0
 32 34  2  0  0  0  0
 33 35  1  0  0  0  0
 35 36  1  0  0  0  0
 10 11  1  0  0  0  0
 17 19  1  0  0  0  0
 18 23  1  0  0  0  0
 28 29  1  0  0  0  0
 34 35  1  0  0  0  0
M  END
>  <MolRegNo>
2725312

>  <m>
=

>  <Value>
3800

>  <Unit>
nM

>  <Type>
IC50

>  <pValue>
5.42

>  <Ligand Efficiency>
0

>  <Binding Efficiency>
0

>  <Surface Efficiency>
0

>  <Assay Index>
1512347

>  <Assay Category>


>  <Assay Organism>
Homo sapiens

>  <Target ID>
17045

>  <Target Name>
Cytochrome P450 3A4

>  <Target Organism>
Homo sapiens

>  <Target Description>
Target is a single protein chain

>  <Sequence Accession>
P08684

>  <Reference>
J Med Chem 65 (2.0), 1206-1224 (2022)

>  <Pubmed ID>
34734694

>  <DOI>
10.1021/acs.jmedchem.1c00926

$$$$
2721268
Actelion Java MolfileCreator 1.0

 36 40  0  0  0  0  0  0  0  0999 V2000
    0.0000   -0.0000   -0.0000 O   0  0  0  0  0  0  0  0  0  0  0  0
   -0.0119    1.5127   -0.0000 C   0  0  0  0  0  0  0  0  0  0  0  0
   -1.3340    2.2750   -0.0000 N   0  0  0  0  0  0  0  0  0  0  0  0
    1.2864    2.2750   -0.0000 C   0  0  0  0  0  0  0  0  0  0  0  0
   -2.6562    1.5365   -0.0000 C   0  0  0  0  0  0  0  0  0  0  0  0
    1.4293    3.7877   -0.0000 O   0  0  0  0  0  0  0  0  0  0  0  0
    2.6562    1.6795   -0.0000 N   0  0  0  0  0  0  0  0  0  0  0  0
   -2.6681    0.0476   -0.0000 C   0  0  0  0  0  0  0  0  0  0  0  0
   -3.4900    2.6443   -0.0000 C   0  0  0  0  0  0  0  0  0  0  0  0
    2.8944    4.1093   -0.0000 N   0  0  0  0  0  0  0  0  0  0  0  0
    3.6567    2.8110   -0.0000 C   0  0  0  0  0  0  0  0  0  0  0  0
   -3.9902   -0.6908   -0.0000 C   0  0  0  0  0  0  0  0  0  0  0  0
   -1.3817   -0.6908   -0.0000 C   0  0  0  0  0  0  0  0  0  0  0  0
   -5.0027    2.5371   -0.0000 C   0  0  0  0  0  0  0  0  0  0  0  0
    5.1456    2.8229   -0.0000 C   0  0  0  0  0  0  0  0  0  0  0  0
   -4.0021   -2.1797   -0.0000 C   0  0  0  0  0  0  0  0  0  0  0  0
   -5.4076   -0.1310   -0.0000 C   0  0  0  0  0  0  0  0  0  0  0  0
   -1.3817   -2.1797   -0.0000 C   0  0  0  0  0  0  0  0  0  0  0  0
   -5.8603    1.2864   -0.0000 C   0  0  0  0  0  0  0  0  0  0  0  0
    5.8841    4.1451   -0.0000 C   0  0  0  0  0  0  0  0  0  0  0  0
    5.8841    1.5246   -0.0000 C   0  0  0  0  0  0  0  0  0  0  0  0
    6.6464    2.8348   -0.0000 C   0  0  0  0  0  0  0  0  0  0  0  0
   -2.7038   -2.9182   -0.0000 C   0  0  0  0  0  0  0  0  0  0  0  0
   -2.7157   -4.4190   -0.0000 C   0  0  0  0  0  0  0  0  0  0  0  0
   -1.4293   -5.1575   -0.0000 N   0  0  0  0  0  0  0  0  0  0  0  0
   -4.0379   -5.1575   -0.0000 C   0  0  0  0  0  0  0  0  0  0  0  0
   -1.4412   -6.6583   -0.0000 C   0  0  0  0  0  0  0  0  0  0  0  0
   -4.0498   -6.6583   -0.0000 C   0  0  0  0  0  0  0  0  0  0  0  0
   -2.7515   -7.3968   -0.0000 N   0  0  0  0  0  0  0  0  0  0  0  0
   -0.1429   -7.3968   -0.0000 N   0  0  0  0  0  0  0  0  0  0  0  0
    1.1435   -6.6345   -0.0000 C   0  0  0  0  0  0  0  0  0  0  0  0
    1.1316   -5.1099   -0.0000 C   0  0  0  0  0  0  0  0  0  0  0  0
    2.5609   -7.0752   -0.0000 C   0  0  0  0  0  0  0  0  0  0  0  0
    2.5847   -4.6453   -0.0000 N   0  0  0  0  0  0  0  0  0  0  0  0
    3.4423   -5.8484   -0.0000 N   0  0  0  0  0  0  0  0  0  0  0  0
    4.9431   -5.8364   -0.0000 C   0  0  0  0  0  0  0  0  0  0  0  0
  1  2  2  0  0  0  0
  2  3  1  0  0  0  0
  2  4  1  0  0  0  0
  5  3  1  6  0  0  0
  4  6  1  0  0  0  0
  4  7  2  0  0  0  0
  5  8  1  0  0  0  0
  5  9  1  0  0  0  0
  6 10  1  0  0  0  0
  7 11  1  0  0  0  0
  8 12  2  0  0  0  0
  8 13  1  0  0  0  0
  9 14  1  0  0  0  0
 11 15  1  0  0  0  0
 12 16  1  0  0  0  0
 12 17  1  0  0  0  0
 13 18  2  0  0  0  0
 14 19  1  0  0  0  0
 15 20  1  0  0  0  0
 15 21  1  0  0  0  0
 15 22  1  0  0  0  0
 16 23  2  0  0  0  0
 23 24  1  0  0  0  0
 24 25  2  0  0  0  0
 24 26  1  0  0  0  0
 25 27  1  0  0  0  0
 26 28  2  0  0  0  0
 27 29  2  0  0  0  0
 27 30  1  0  0  0  0
 30 31  1  0  0  0  0
 31 32  1  0  0  0  0
 31 33  2  0  0  0  0
 32 34  2  0  0  0  0
 33 35  1  0  0  0  0
 35 36  1  0  0  0  0
 10 11  2  0  0  0  0
 17 19  1  0  0  0  0
 18 23  1  0  0  0  0
 28 29  1  0  0  0  0
 34 35  1  0  0  0  0
M  END
>  <MolRegNo>
2721268

>  <m>
=

>  <Value>
2600

>  <Unit>
nM

>  <Type>
IC50

>  <pValue>
5.58

>  <Ligand Efficiency>
0

>  <Binding Efficiency>
0

>  <Surface Efficiency>
0

>  <Assay Index>
1512347

>  <Assay Category>


>  <Assay Organism>
Homo sapiens

>  <Target ID>
17045

>  <Target Name>
Cytochrome P450 3A4

>  <Target Organism>
Homo sapiens

>  <Target Description>
Target is a single protein chain

>  <Sequence Accession>
P08684

>  <Reference>
J Med Chem 65 (2.0), 1206-1224 (2022)

>  <Pubmed ID>
34734694

>  <DOI>
10.1021/acs.jmedchem.1c00926

$$$$
2730382
Actelion Java MolfileCreator 1.0

 36 40  0  0  0  0  0  0  0  0999 V2000
    0.0000   -0.0000   -0.0000 O   0  0  0  0  0  0  0  0  0  0  0  0
   -0.0119    1.5127   -0.0000 C   0  0  0  0  0  0  0  0  0  0  0  0
   -1.3340    2.2750   -0.0000 N   0  0  0  0  0  0  0  0  0  0  0  0
    1.2864    2.2750   -0.0000 C   0  0  0  0  0  0  0  0  0  0  0  0
   -2.6562    1.5365   -0.0000 C   0  0  0  0  0  0  0  0  0  0  0  0
    1.4293    3.7877   -0.0000 N   0  0  0  0  0  0  0  0  0  0  0  0
    2.6562    1.6795   -0.0000 C   0  0  0  0  0  0  0  0  0  0  0  0
   -2.6681    0.0476   -0.0000 C   0  0  0  0  0  0  0  0  0  0  0  0
   -3.4900    2.6443   -0.0000 C   0  0  0  0  0  0  0  0  0  0  0  0
    2.8944    4.1093   -0.0000 N   0  0  0  0  0  0  0  0  0  0  0  0
    3.6567    2.8110   -0.0000 N   0  0  0  0  0  0  0  0  0  0  0  0
   -3.9902   -0.6908   -0.0000 C   0  0  0  0  0  0  0  0  0  0  0  0
   -1.3817   -0.6908   -0.0000 C   0  0  0  0  0  0  0  0  0  0  0  0
   -5.0027    2.5371   -0.0000 C   0  0  0  0  0  0  0  0  0  0  0  0
    5.1456    2.8229   -0.0000 C   0  0  0  0  0  0  0  0  0  0  0  0
   -4.0021   -2.1797   -0.0000 C   0  0  0  0  0  0  0  0  0  0  0  0
   -5.4076   -0.1310   -0.0000 C   0  0  0  0  0  0  0  0  0  0  0  0
   -1.3817   -2.1797   -0.0000 C   0  0  0  0  0  0  0  0  0  0  0  0
   -5.8603    1.2864   -0.0000 C   0  0  0  0  0  0  0  0  0  0  0  0
    5.8841    4.1451   -0.0000 C   0  0  0  0  0  0  0  0  0  0  0  0
    5.8841    1.5246   -0.0000 C   0  0  0  0  0  0  0  0  0  0  0  0
    6.6464    2.8348   -0.0000 C   0  0  0  0  0  0  0  0  0  0  0  0
   -2.7038   -2.9182   -0.0000 C   0  0  0  0  0  0  0  0  0  0  0  0
   -2.7157   -4.4190   -0.0000 C   0  0  0  0  0  0  0  0  0  0  0  0
   -1.4293   -5.1575   -0.0000 N   0  0  0  0  0  0  0  0  0  0  0  0
   -4.0379   -5.1575   -0.0000 C   0  0  0  0  0  0  0  0  0  0  0  0
   -1.4412   -6.6583   -0.0000 C   0  0  0  0  0  0  0  0  0  0  0  0
   -4.0498   -6.6583   -0.0000 C   0  0  0  0  0  0  0  0  0  0  0  0
   -2.7515   -7.3968   -0.0000 N   0  0  0  0  0  0  0  0  0  0  0  0
   -0.1429   -7.3968   -0.0000 N   0  0  0  0  0  0  0  0  0  0  0  0
    1.1435   -6.6345   -0.0000 C   0  0  0  0  0  0  0  0  0  0  0  0
    1.1316   -5.1099   -0.0000 C   0  0  0  0  0  0  0  0  0  0  0  0
    2.5609   -7.0752   -0.0000 C   0  0  0  0  0  0  0  0  0  0  0  0
    2.5847   -4.6453   -0.0000 N   0  0  0  0  0  0  0  0  0  0  0  0
    3.4423   -5.8484   -0.0000 N   0  0  0  0  0  0  0  0  0  0  0  0
    4.9431   -5.8364   -0.0000 C   0  0  0  0  0  0  0  0  0  0  0  0
  1  2  2  0  0  0  0
  2  3  1  0  0  0  0
  2  4  1  0  0  0  0
  5  3  1  6  0  0  0
  4  6  1  0  0  0  0
  4  7  2  0  0  0  0
  5  8  1  0  0  0  0
  5  9  1  0  0  0  0
  6 10  2  0  0  0  0
  7 11  1  0  0  0  0
  8 12  2  0  0  0  0
  8 13  1  0  0  0  0
  9 14  1  0  0  0  0
 11 15  1  0  0  0  0
 12 16  1  0  0  0  0
 12 17  1  0  0  0  0
 13 18  2  0  0  0  0
 14 19  1  0  0  0  0
 15 20  1  0  0  0  0
 15 21  1  0  0  0  0
 15 22  1  0  0  0  0
 16 23  2  0  0  0  0
 23 24  1  0  0  0  0
 24 25  2  0  0  0  0
 24 26  1  0  0  0  0
 25 27  1  0  0  0  0
 26 28  2  0  0  0  0
 27 29  2  0  0  0  0
 27 30  1  0  0  0  0
 30 31  1  0  0  0  0
 31 32  1  0  0  0  0
 31 33  2  0  0  0  0
 32 34  2  0  0  0  0
 33 35  1  0  0  0  0
 35 36  1  0  0  0  0
 10 11  1  0  0  0  0
 17 19  1  0  0  0  0
 18 23  1  0  0  0  0
 28 29  1  0  0  0  0
 34 35  1  0  0  0  0
M  END
>  <MolRegNo>
2730382

>  <m>
=

>  <Value>
6400

>  <Unit>
nM

>  <Type>
IC50

>  <pValue>
5.19

>  <Ligand Efficiency>
0

>  <Binding Efficiency>
0

>  <Surface Efficiency>
0

>  <Assay Index>
1512347

>  <Assay Category>


>  <Assay Organism>
Homo sapiens

>  <Target ID>
17045

>  <Target Name>
Cytochrome P450 3A4

>  <Target Organism>
Homo sapiens

>  <Target Description>
Target is a single protein chain

>  <Sequence Accession>
P08684

>  <Reference>
J Med Chem 65 (2.0), 1206-1224 (2022)

>  <Pubmed ID>
34734694

>  <DOI>
10.1021/acs.jmedchem.1c00926

$$$$
2721378
Actelion Java MolfileCreator 1.0

 28 32  0  0  0  0  0  0  0  0999 V2000
    0.0000   -0.0000   -0.0000 Cl  0  0  0  0  0  0  0  0  0  0  0  0
    0.7339    1.3140   -0.0000 C   0  0  0  0  0  0  0  0  0  0  0  0
    2.2255    1.3258   -0.0000 C   0  0  0  0  0  0  0  0  0  0  0  0
   -0.0237    2.6161   -0.0000 C   0  0  0  0  0  0  0  0  0  0  0  0
    2.9594    2.6398   -0.0000 C   0  0  0  0  0  0  0  0  0  0  0  0
    0.7103    3.9301   -0.0000 C   0  0  0  0  0  0  0  0  0  0  0  0
    4.4154    2.9594   -0.0000 S   0  0  0  0  0  0  0  0  0  0  0  0
    2.2018    3.9537   -0.0000 C   0  0  0  0  0  0  0  0  0  0  0  0
    4.5575    4.4628   -0.0000 C   0  0  0  0  0  0  0  0  0  0  0  0
    3.1961    5.0783   -0.0000 C   0  0  0  0  0  0  0  0  0  0  0  0
    5.8477    5.2204   -0.0000 C   0  0  0  0  0  0  0  0  0  0  0  0
    5.8004    6.7356   -0.0000 O   0  0  0  0  0  0  0  0  0  0  0  0
    7.2801    4.8060   -0.0000 N   0  0  0  0  0  0  0  0  0  0  0  0
    7.2091    7.2446   -0.0000 C   0  0  0  0  0  0  0  0  0  0  0  0
    8.1206    6.0490   -0.0000 C   0  0  0  0  0  0  0  0  0  0  0  0
    9.4109    6.8066   -0.0000 C   0  0  0  0  0  0  0  0  0  0  0  0
    9.4109    5.3032   -0.0000 C   0  0  0  0  0  0  0  0  0  0  0  0
    9.3990    8.3218   -0.0000 C   0  0  0  0  0  0  0  0  0  0  0  0
   10.7011    6.0608   -0.0000 C   0  0  0  0  0  0  0  0  0  0  0  0
    9.3990    3.8117   -0.0000 N   0  0  0  0  0  0  0  0  0  0  0  0
   10.6893    9.0794   -0.0000 C   0  0  0  0  0  0  0  0  0  0  0  0
   11.9914    6.8303   -0.0000 C   0  0  0  0  0  0  0  0  0  0  0  0
   10.6064    2.9357   -0.0000 N   0  0  0  0  0  0  0  0  0  0  0  0
    8.1679    2.9357   -0.0000 C   0  0  0  0  0  0  0  0  0  0  0  0
   11.9796    8.3336   -0.0000 C   0  0  0  0  0  0  0  0  0  0  0  0
   10.1329    1.5152   -0.0000 C   0  0  0  0  0  0  0  0  0  0  0  0
    8.6177    1.5152   -0.0000 N   0  0  0  0  0  0  0  0  0  0  0  0
   13.2699    9.0912   -0.0000 F   0  0  0  0  0  0  0  0  0  0  0  0
  1  2  1  0  0  0  0
  2  3  2  0  0  0  0
  2  4  1  0  0  0  0
  3  5  1  0  0  0  0
  4  6  2  0  0  0  0
  5  7  1  0  0  0  0
  5  8  2  0  0  0  0
  7  9  1  0  0  0  0
  8 10  1  0  0  0  0
  9 11  1  0  0  0  0
 11 12  1  0  0  0  0
 11 13  2  0  0  0  0
 12 14  1  0  0  0  0
 13 15  1  0  0  0  0
 15 16  1  0  0  0  0
 15 17  1  0  0  0  0
 16 18  2  0  0  0  0
 16 19  1  0  0  0  0
 17 20  1  0  0  0  0
 18 21  1  0  0  0  0
 19 22  2  0  0  0  0
 20 23  1  0  0  0  0
 20 24  1  0  0  0  0
 21 25  2  0  0  0  0
 23 26  2  0  0  0  0
 24 27  2  0  0  0  0
 25 28  1  0  0  0  0
  6  8  1  0  0  0  0
  9 10  2  0  0  0  0
 14 15  1  0  0  0  0
 22 25  1  0  0  0  0
 26 27  1  0  0  0  0
M  END
>  <MolRegNo>
2721378

>  <m>
=

>  <Value>
10100

>  <Unit>
nM

>  <Type>
IC50

>  <pValue>
5

>  <Ligand Efficiency>
0

>  <Binding Efficiency>
0

>  <Surface Efficiency>
0

>  <Assay Index>
1512482

>  <Assay Category>


>  <Assay Organism>
Homo sapiens

>  <Target ID>
17045

>  <Target Name>
Cytochrome P450 3A4

>  <Target Organism>
Homo sapiens

>  <Target Description>
Target is a single protein chain

>  <Sequence Accession>
P08684

>  <Reference>


>  <Pubmed ID>
34801270

>  <DOI>
10.1016/j.ejmech.2021.113987

$$$$
2714042
Actelion Java MolfileCreator 1.0

 28 32  0  0  0  0  0  0  0  0999 V2000
    0.0000   -0.0000   -0.0000 Cl  0  0  0  0  0  0  0  0  0  0  0  0
    0.7339    1.3140   -0.0000 C   0  0  0  0  0  0  0  0  0  0  0  0
    2.2255    1.3258   -0.0000 C   0  0  0  0  0  0  0  0  0  0  0  0
   -0.0237    2.6161   -0.0000 C   0  0  0  0  0  0  0  0  0  0  0  0
    2.9594    2.6398   -0.0000 C   0  0  0  0  0  0  0  0  0  0  0  0
    0.7103    3.9301   -0.0000 C   0  0  0  0  0  0  0  0  0  0  0  0
    4.4154    2.9594   -0.0000 S   0  0  0  0  0  0  0  0  0  0  0  0
    2.2018    3.9537   -0.0000 C   0  0  0  0  0  0  0  0  0  0  0  0
    4.5575    4.4628   -0.0000 C   0  0  0  0  0  0  0  0  0  0  0  0
    3.1961    5.0783   -0.0000 C   0  0  0  0  0  0  0  0  0  0  0  0
    5.8477    5.2204   -0.0000 C   0  0  0  0  0  0  0  0  0  0  0  0
    5.8004    6.7356   -0.0000 O   0  0  0  0  0  0  0  0  0  0  0  0
    7.2801    4.8060   -0.0000 N   0  0  0  0  0  0  0  0  0  0  0  0
    7.2091    7.2446   -0.0000 C   0  0  0  0  0  0  0  0  0  0  0  0
    8.1206    6.0490   -0.0000 C   0  0  0  0  0  0  0  0  0  0  0  0
    9.4109    6.8066   -0.0000 C   0  0  0  0  0  0  0  0  0  0  0  0
    9.4109    5.3032   -0.0000 C   0  0  0  0  0  0  0  0  0  0  0  0
    9.3990    8.3218   -0.0000 C   0  0  0  0  0  0  0  0  0  0  0  0
   10.7011    6.0608   -0.0000 C   0  0  0  0  0  0  0  0  0  0  0  0
    9.3990    3.8117   -0.0000 N   0  0  0  0  0  0  0  0  0  0  0  0
   10.6893    9.0794   -0.0000 C   0  0  0  0  0  0  0  0  0  0  0  0
   11.9914    6.8303   -0.0000 C   0  0  0  0  0  0  0  0  0  0  0  0
   10.6064    2.9357   -0.0000 N   0  0  0  0  0  0  0  0  0  0  0  0
    8.1679    2.9357   -0.0000 C   0  0  0  0  0  0  0  0  0  0  0  0
   11.9796    8.3336   -0.0000 C   0  0  0  0  0  0  0  0  0  0  0  0
   10.1329    1.5152   -0.0000 C   0  0  0  0  0  0  0  0  0  0  0  0
    8.6177    1.5152   -0.0000 N   0  0  0  0  0  0  0  0  0  0  0  0
   13.2699    9.0912   -0.0000 Cl  0  0  0  0  0  0  0  0  0  0  0  0
  1  2  1  0  0  0  0
  2  3  2  0  0  0  0
  2  4  1  0  0  0  0
  3  5  1  0  0  0  0
  4  6  2  0  0  0  0
  5  7  1  0  0  0  0
  5  8  2  0  0  0  0
  7  9  1  0  0  0  0
  8 10  1  0  0  0  0
  9 11  1  0  0  0  0
 11 12  1  0  0  0  0
 11 13  2  0  0  0  0
 12 14  1  0  0  0  0
 13 15  1  0  0  0  0
 15 16  1  0  0  0  0
 15 17  1  0  0  0  0
 16 18  2  0  0  0  0
 16 19  1  0  0  0  0
 17 20  1  0  0  0  0
 18 21  1  0  0  0  0
 19 22  2  0  0  0  0
 20 23  1  0  0  0  0
 20 24  1  0  0  0  0
 21 25  2  0  0  0  0
 23 26  2  0  0  0  0
 24 27  2  0  0  0  0
 25 28  1  0  0  0  0
  6  8  1  0  0  0  0
  9 10  2  0  0  0  0
 14 15  1  0  0  0  0
 22 25  1  0  0  0  0
 26 27  1  0  0  0  0
M  END
>  <MolRegNo>
2714042

>  <m>
=

>  <Value>
29100

>  <Unit>
nM

>  <Type>
IC50

>  <pValue>
4.54

>  <Ligand Efficiency>
0

>  <Binding Efficiency>
0

>  <Surface Efficiency>
0

>  <Assay Index>
1512482

>  <Assay Category>


>  <Assay Organism>
Homo sapiens

>  <Target ID>
17045

>  <Target Name>
Cytochrome P450 3A4

>  <Target Organism>
Homo sapiens

>  <Target Description>
Target is a single protein chain

>  <Sequence Accession>
P08684

>  <Reference>


>  <Pubmed ID>
34801270

>  <DOI>
10.1016/j.ejmech.2021.113987

$$$$
2716989
Actelion Java MolfileCreator 1.0

 40 43  0  0  0  0  0  0  0  0999 V2000
    0.0000   -0.0000   -0.0000 P   0  0  0  0  0  0  0  0  0  0  0  0
    0.7310    1.3087   -0.0000 O   0  0  0  0  0  0  0  0  0  0  0  0
    1.4855    0.0118   -0.0000 O   0  0  0  0  0  0  0  0  0  0  0  0
   -0.7546    1.3087   -0.0000 O   0  0  0  0  0  0  0  0  0  0  0  0
   -0.7546   -1.2851   -0.0000 C   0  0  0  0  0  0  0  0  0  0  0  0
    2.2165    1.3205   -0.0000 C   0  0  0  0  0  0  0  0  0  0  0  0
   -0.0236    2.6173   -0.0000 C   0  0  0  0  0  0  0  0  0  0  0  0
   -2.2637   -1.2733   -0.0000 N   0  0  0  0  0  0  0  0  0  0  0  0
    3.7020    1.3323   -0.0000 C   0  0  0  0  0  0  0  0  0  0  0  0
   -0.7781    3.9260   -0.0000 C   0  0  0  0  0  0  0  0  0  0  0  0
   -3.2776   -2.3698   -0.0000 N   0  0  0  0  0  0  0  0  0  0  0  0
   -3.0182    0.0354   -0.0000 C   0  0  0  0  0  0  0  0  0  0  0  0
   -4.6570   -1.7449   -0.0000 C   0  0  0  0  0  0  0  0  0  0  0  0
   -4.4919   -0.2594   -0.0000 C   0  0  0  0  0  0  0  0  0  0  0  0
   -5.9657   -2.4877   -0.0000 N   0  0  0  0  0  0  0  0  0  0  0  0
   -7.2743   -1.7213   -0.0000 C   0  0  0  0  0  0  0  0  0  0  0  0
   -7.2861   -0.2122   -0.0000 O   0  0  0  0  0  0  0  0  0  0  0  0
   -8.5830   -2.4641   -0.0000 C   0  0  0  0  0  0  0  0  0  0  0  0
   -8.5948   -3.9496   -0.0000 C   0  0  0  0  0  0  0  0  0  0  0  0
   -9.8917   -1.7095   -0.0000 C   0  0  0  0  0  0  0  0  0  0  0  0
   -9.8917   -4.6806   -0.0000 C   0  0  0  0  0  0  0  0  0  0  0  0
  -11.2004   -2.4405   -0.0000 C   0  0  0  0  0  0  0  0  0  0  0  0
   -9.9035   -6.1661   -0.0000 O   0  0  0  0  0  0  0  0  0  0  0  0
  -11.2004   -3.9260   -0.0000 C   0  0  0  0  0  0  0  0  0  0  0  0
  -12.5090   -1.6860   -0.0000 O   0  0  0  0  0  0  0  0  0  0  0  0
  -11.2122   -6.8971   -0.0000 C   0  0  0  0  0  0  0  0  0  0  0  0
  -13.8177   -2.4169   -0.0000 C   0  0  0  0  0  0  0  0  0  0  0  0
  -11.2239   -8.3826   -0.0000 N   0  0  0  0  0  0  0  0  0  0  0  0
  -12.5208   -6.1307   -0.0000 C   0  0  0  0  0  0  0  0  0  0  0  0
  -15.1264   -1.6624   -0.0000 C   0  0  0  0  0  0  0  0  0  0  0  0
  -13.8295   -3.9024   -0.0000 C   0  0  0  0  0  0  0  0  0  0  0  0
  -12.5326   -9.1136   -0.0000 C   0  0  0  0  0  0  0  0  0  0  0  0
  -13.8177   -6.8735   -0.0000 N   0  0  0  0  0  0  0  0  0  0  0  0
  -13.8413   -8.3590   -0.0000 C   0  0  0  0  0  0  0  0  0  0  0  0
  -15.1500   -9.0900   -0.0000 C   0  0  0  0  0  0  0  0  0  0  0  0
  -16.4586   -8.3354   -0.0000 O   0  0  0  0  0  0  0  0  0  0  0  0
  -15.1618  -10.5755   -0.0000 N   0  0  0  0  0  0  0  0  0  0  0  0
  -14.1007  -11.6366   -0.0000 C   0  0  0  0  0  0  0  0  0  0  0  0
  -16.2346  -11.6248   -0.0000 C   0  0  0  0  0  0  0  0  0  0  0  0
  -15.1736  -12.6859   -0.0000 C   0  0  0  0  0  0  0  0  0  0  0  0
  1  2  2  0  0  0  0
  1  3  1  0  0  0  0
  1  4  1  0  0  0  0
  1  5  1  0  0  0  0
  3  6  1  0  0  0  0
  4  7  1  0  0  0  0
  5  8  1  0  0  0  0
  6  9  1  0  0  0  0
  7 10  1  0  0  0  0
  8 11  1  0  0  0  0
  8 12  1  0  0  0  0
 11 13  2  0  0  0  0
 12 14  2  0  0  0  0
 13 15  1  0  0  0  0
 15 16  1  0  0  0  0
 16 17  2  0  0  0  0
 16 18  1  0  0  0  0
 18 19  2  0  0  0  0
 18 20  1  0  0  0  0
 19 21  1  0  0  0  0
 20 22  2  0  0  0  0
 21 23  1  0  0  0  0
 21 24  2  0  0  0  0
 22 25  1  0  0  0  0
 23 26  1  0  0  0  0
 25 27  1  0  0  0  0
 26 28  2  0  0  0  0
 26 29  1  0  0  0  0
 27 30  1  0  0  0  0
 27 31  1  0  0  0  0
 28 32  1  0  0  0  0
 29 33  2  0  0  0  0
 32 34  2  0  0  0  0
 34 35  1  0  0  0  0
 35 36  2  0  0  0  0
 35 37  1  0  0  0  0
 37 38  1  0  0  0  0
 37 39  1  0  0  0  0
 38 40  1  0  0  0  0
 13 14  1  0  0  0  0
 22 24  1  0  0  0  0
 33 34  1  0  0  0  0
 39 40  1  0  0  0  0
M  END
>  <MolRegNo>
2716989

>  <m>
=

>  <Value>
30000

>  <Unit>
nM

>  <Type>
IC50

>  <pValue>
4.52

>  <Ligand Efficiency>
0

>  <Binding Efficiency>
0

>  <Surface Efficiency>
0

>  <Assay Index>
1517907

>  <Assay Category>


>  <Assay Organism>
Homo sapiens

>  <Target ID>
17045

>  <Target Name>
Cytochrome P450 3A4

>  <Target Organism>
Homo sapiens

>  <Target Description>
Target is a single protein chain

>  <Sequence Accession>
P08684

>  <Reference>
J Med Chem 65 (5.0), 4291-4317 (2022)

>  <Pubmed ID>
35179904

>  <DOI>
10.1021/acs.jmedchem.1c02110

$$$$
2726025
Actelion Java MolfileCreator 1.0

 27 29  0  0  0  0  0  0  0  0999 V2000
    0.0000   -0.0000   -0.0000 F   0  0  0  0  0  0  0  0  0  0  0  0
    1.2913    0.7582   -0.0000 C   0  0  0  0  0  0  0  0  0  0  0  0
    1.2795    2.2746   -0.0000 F   0  0  0  0  0  0  0  0  0  0  0  0
    2.5826    0.0237   -0.0000 C   0  0  0  0  0  0  0  0  0  0  0  0
    3.8739    0.7819   -0.0000 C   0  0  0  0  0  0  0  0  0  0  0  0
    5.1652    0.0474   -0.0000 C   0  0  0  0  0  0  0  0  0  0  0  0
    6.4565    0.8056   -0.0000 N   0  0  0  0  0  0  0  0  0  0  0  0
    6.4447    2.3220   -0.0000 C   0  0  0  0  0  0  0  0  0  0  0  0
    7.7479    0.0711   -0.0000 C   0  0  0  0  0  0  0  0  0  0  0  0
    7.7360    3.0920   -0.0000 C   0  0  0  0  0  0  0  0  0  0  0  0
    9.0392    0.8293   -0.0000 C   0  0  0  0  0  0  0  0  0  0  0  0
    9.0273    2.3457   -0.0000 C   0  0  0  0  0  0  0  0  0  0  0  0
   10.3186    3.1157   -0.0000 C   0  0  0  0  0  0  0  0  0  0  0  0
   11.6099    2.3694   -0.0000 O   0  0  0  0  0  0  0  0  0  0  0  0
   12.9012    3.1394   -0.0000 C   0  0  0  0  0  0  0  0  0  0  0  0
   14.1925    2.3931   -0.0000 C   0  0  0  0  0  0  0  0  0  0  0  0
   12.8894    4.6558   -0.0000 C   0  0  0  0  0  0  0  0  0  0  0  0
   15.4839    3.1631   -0.0000 C   0  0  0  0  0  0  0  0  0  0  0  0
   14.1807    5.4140   -0.0000 C   0  0  0  0  0  0  0  0  0  0  0  0
   16.7752    2.4168   -0.0000 O   0  0  0  0  0  0  0  0  0  0  0  0
   15.4720    4.6795   -0.0000 C   0  0  0  0  0  0  0  0  0  0  0  0
   18.0665    3.1868   -0.0000 C   0  0  0  0  0  0  0  0  0  0  0  0
   16.7633    5.4377   -0.0000 C   0  0  0  0  0  0  0  0  0  0  0  0
   19.3578    2.4405   -0.0000 O   0  0  0  0  0  0  0  0  0  0  0  0
   18.0546    4.7032   -0.0000 C   0  0  0  0  0  0  0  0  0  0  0  0
   16.7515    6.9541   -0.0000 C   0  0  0  0  0  0  0  0  0  0  0  0
   19.3459    5.4614   -0.0000 C   0  0  0  0  0  0  0  0  0  0  0  0
  1  2  1  0  0  0  0
  2  3  1  0  0  0  0
  2  4  1  0  0  0  0
  4  5  1  0  0  0  0
  5  6  1  0  0  0  0
  6  7  1  0  0  0  0
  7  8  1  0  0  0  0
  7  9  1  0  0  0  0
  8 10  1  0  0  0  0
  9 11  1  0  0  0  0
 10 12  1  0  0  0  0
 12 13  1  0  0  0  0
 13 14  1  0  0  0  0
 14 15  1  0  0  0  0
 15 16  2  0  0  0  0
 15 17  1  0  0  0  0
 16 18  1  0  0  0  0
 17 19  2  0  0  0  0
 18 20  1  0  0  0  0
 18 21  2  0  0  0  0
 20 22  1  0  0  0  0
 21 23  1  0  0  0  0
 22 24  2  0  0  0  0
 22 25  1  0  0  0  0
 23 26  1  0  0  0  0
 25 27  1  0  0  0  0
 11 12  1  0  0  0  0
 19 21  1  0  0  0  0
 23 25  2  0  0  0  0
M  END
>  <MolRegNo>
2726025

>  <m>
=

>  <Value>
800

>  <Unit>
nM

>  <Type>
IC50

>  <pValue>
6.1

>  <Ligand Efficiency>
0

>  <Binding Efficiency>
0

>  <Surface Efficiency>
0

>  <Assay Index>
1518189

>  <Assay Category>


>  <Assay Organism>
Homo sapiens

>  <Target ID>
17045

>  <Target Name>
Cytochrome P450 3A4

>  <Target Organism>
Homo sapiens

>  <Target Description>
Target is a single protein chain

>  <Sequence Accession>
P08684

>  <Reference>
J Med Chem 65 (5.0), 3962-3977 (2022)

>  <Pubmed ID>
35195417

>  <DOI>
10.1021/acs.jmedchem.1c01784

$$$$
2728188
Actelion Java MolfileCreator 1.0

 30 32  0  0  0  0  0  0  0  0999 V2000
    0.0000   -0.0000   -0.0000 F   0  0  0  0  0  0  0  0  0  0  0  0
    1.2931   -0.7474   -0.0000 C   0  0  0  0  0  0  0  0  0  0  0  0
    1.2812   -2.2421   -0.0000 F   0  0  0  0  0  0  0  0  0  0  0  0
    2.5862    0.0119   -0.0000 C   0  0  0  0  0  0  0  0  0  0  0  0
    3.8793   -0.7355   -0.0000 C   0  0  0  0  0  0  0  0  0  0  0  0
    5.1724    0.0237   -0.0000 C   0  0  0  0  0  0  0  0  0  0  0  0
    6.4654   -0.7237   -0.0000 N   0  0  0  0  0  0  0  0  0  0  0  0
    7.7585    0.0356   -0.0000 C   0  0  0  0  0  0  0  0  0  0  0  0
    6.4536   -2.2184   -0.0000 C   0  0  0  0  0  0  0  0  0  0  0  0
    9.0516   -0.7118   -0.0000 C   0  0  0  0  0  0  0  0  0  0  0  0
   10.3447    0.0475   -0.0000 C   0  0  0  0  0  0  0  0  0  0  0  0
    9.0398   -2.2066   -0.0000 C   0  0  0  0  0  0  0  0  0  0  0  0
   11.6378   -0.6999   -0.0000 C   0  0  0  0  0  0  0  0  0  0  0  0
   10.3328   -2.9539   -0.0000 C   0  0  0  0  0  0  0  0  0  0  0  0
   11.6259   -2.1947   -0.0000 C   0  0  0  0  0  0  0  0  0  0  0  0
   12.9309    0.0593   -0.0000 C   0  0  0  0  0  0  0  0  0  0  0  0
   14.2240   -0.6881   -0.0000 O   0  0  0  0  0  0  0  0  0  0  0  0
   15.5171    0.0712   -0.0000 C   0  0  0  0  0  0  0  0  0  0  0  0
   16.8101   -0.6762   -0.0000 C   0  0  0  0  0  0  0  0  0  0  0  0
   15.5052    1.5897   -0.0000 C   0  0  0  0  0  0  0  0  0  0  0  0
   18.1032    0.0830   -0.0000 C   0  0  0  0  0  0  0  0  0  0  0  0
   16.7983    2.3608   -0.0000 C   0  0  0  0  0  0  0  0  0  0  0  0
   19.3963   -0.6643   -0.0000 O   0  0  0  0  0  0  0  0  0  0  0  0
   18.0914    1.6015   -0.0000 C   0  0  0  0  0  0  0  0  0  0  0  0
   20.6894    0.0949   -0.0000 C   0  0  0  0  0  0  0  0  0  0  0  0
   19.3845    2.3726   -0.0000 C   0  0  0  0  0  0  0  0  0  0  0  0
   21.9825   -0.6525   -0.0000 O   0  0  0  0  0  0  0  0  0  0  0  0
   20.6775    1.6134   -0.0000 C   0  0  0  0  0  0  0  0  0  0  0  0
   19.3726    3.8911   -0.0000 C   0  0  0  0  0  0  0  0  0  0  0  0
   21.9706    2.3845   -0.0000 C   0  0  0  0  0  0  0  0  0  0  0  0
  1  2  1  0  0  0  0
  2  3  1  0  0  0  0
  2  4  1  0  0  0  0
  4  5  1  0  0  0  0
  5  6  1  0  0  0  0
  6  7  1  0  0  0  0
  7  8  1  0  0  0  0
  7  9  1  0  0  0  0
  8 10  1  0  0  0  0
 10 11  2  0  0  0  0
 10 12  1  0  0  0  0
 11 13  1  0  0  0  0
 12 14  2  0  0  0  0
 13 15  2  0  0  0  0
 13 16  1  0  0  0  0
 16 17  1  0  0  0  0
 17 18  1  0  0  0  0
 18 19  2  0  0  0  0
 18 20  1  0  0  0  0
 19 21  1  0  0  0  0
 20 22  2  0  0  0  0
 21 23  1  0  0  0  0
 21 24  2  0  0  0  0
 23 25  1  0  0  0  0
 24 26  1  0  0  0  0
 25 27  2  0  0  0  0
 25 28  1  0  0  0  0
 26 29  1  0  0  0  0
 28 30  1  0  0  0  0
 14 15  1  0  0  0  0
 22 24  1  0  0  0  0
 26 28  2  0  0  0  0
M  END
>  <MolRegNo>
2728188

>  <m>
=

>  <Value>
600

>  <Unit>
nM

>  <Type>
IC50

>  <pValue>
6.22

>  <Ligand Efficiency>
0

>  <Binding Efficiency>
0

>  <Surface Efficiency>
0

>  <Assay Index>
1518189

>  <Assay Category>


>  <Assay Organism>
Homo sapiens

>  <Target ID>
17045

>  <Target Name>
Cytochrome P450 3A4

>  <Target Organism>
Homo sapiens

>  <Target Description>
Target is a single protein chain

>  <Sequence Accession>
P08684

>  <Reference>
J Med Chem 65 (5.0), 3962-3977 (2022)

>  <Pubmed ID>
35195417

>  <DOI>
10.1021/acs.jmedchem.1c01784

$$$$
2727275
Actelion Java MolfileCreator 1.0

 30 32  0  0  0  0  0  0  0  0999 V2000
    0.0000   -0.0000   -0.0000 F   0  0  0  0  0  0  0  0  0  0  0  0
    1.2943    0.7600   -0.0000 C   0  0  0  0  0  0  0  0  0  0  0  0
    1.2824    2.2799   -0.0000 F   0  0  0  0  0  0  0  0  0  0  0  0
    2.5886    0.0237   -0.0000 C   0  0  0  0  0  0  0  0  0  0  0  0
    3.8711    0.7837   -0.0000 C   0  0  0  0  0  0  0  0  0  0  0  0
    5.1654    0.0475   -0.0000 C   0  0  0  0  0  0  0  0  0  0  0  0
    6.4597    0.8075   -0.0000 N   0  0  0  0  0  0  0  0  0  0  0  0
    7.7540    0.0712   -0.0000 C   0  0  0  0  0  0  0  0  0  0  0  0
    6.4478    2.3274   -0.0000 C   0  0  0  0  0  0  0  0  0  0  0  0
    9.0483    0.8312   -0.0000 C   0  0  0  0  0  0  0  0  0  0  0  0
   10.3307    0.0950   -0.0000 C   0  0  0  0  0  0  0  0  0  0  0  0
    9.0364    2.3511   -0.0000 C   0  0  0  0  0  0  0  0  0  0  0  0
   11.6250    0.8550   -0.0000 C   0  0  0  0  0  0  0  0  0  0  0  0
   10.3189    3.1111   -0.0000 C   0  0  0  0  0  0  0  0  0  0  0  0
   11.6132    2.3749   -0.0000 C   0  0  0  0  0  0  0  0  0  0  0  0
   12.9075    3.1348   -0.0000 C   0  0  0  0  0  0  0  0  0  0  0  0
   14.2018    2.3986   -0.0000 O   0  0  0  0  0  0  0  0  0  0  0  0
   15.4961    3.1586   -0.0000 C   0  0  0  0  0  0  0  0  0  0  0  0
   16.7785    2.4224   -0.0000 C   0  0  0  0  0  0  0  0  0  0  0  0
   15.4842    4.6785   -0.0000 C   0  0  0  0  0  0  0  0  0  0  0  0
   18.0729    3.1823   -0.0000 C   0  0  0  0  0  0  0  0  0  0  0  0
   16.7667    5.4385   -0.0000 C   0  0  0  0  0  0  0  0  0  0  0  0
   19.3672    2.4461   -0.0000 O   0  0  0  0  0  0  0  0  0  0  0  0
   18.0610    4.7023   -0.0000 C   0  0  0  0  0  0  0  0  0  0  0  0
   20.6615    3.2061   -0.0000 C   0  0  0  0  0  0  0  0  0  0  0  0
   19.3553    5.4622   -0.0000 C   0  0  0  0  0  0  0  0  0  0  0  0
   21.9558    2.4699   -0.0000 O   0  0  0  0  0  0  0  0  0  0  0  0
   20.6496    4.7260   -0.0000 C   0  0  0  0  0  0  0  0  0  0  0  0
   19.3434    6.9822   -0.0000 C   0  0  0  0  0  0  0  0  0  0  0  0
   20.6377    7.7421   -0.0000 O   0  0  0  0  0  0  0  0  0  0  0  0
  1  2  1  0  0  0  0
  2  3  1  0  0  0  0
  2  4  1  0  0  0  0
  4  5  1  0  0  0  0
  5  6  1  0  0  0  0
  6  7  1  0  0  0  0
  7  8  1  0  0  0  0
  7  9  1  0  0  0  0
  8 10  1  0  0  0  0
 10 11  2  0  0  0  0
 10 12  1  0  0  0  0
 11 13  1  0  0  0  0
 12 14  2  0  0  0  0
 13 15  2  0  0  0  0
 15 16  1  0  0  0  0
 16 17  1  0  0  0  0
 17 18  1  0  0  0  0
 18 19  2  0  0  0  0
 18 20  1  0  0  0  0
 19 21  1  0  0  0  0
 20 22  2  0  0  0  0
 21 23  1  0  0  0  0
 21 24  2  0  0  0  0
 23 25  1  0  0  0  0
 24 26  1  0  0  0  0
 25 27  2  0  0  0  0
 25 28  1  0  0  0  0
 26 29  1  0  0  0  0
 29 30  1  0  0  0  0
 14 15  1  0  0  0  0
 22 24  1  0  0  0  0
 26 28  2  0  0  0  0
M  END
>  <MolRegNo>
2727275

>  <m>
=

>  <Value>
10000

>  <Unit>
nM

>  <Type>
IC50

>  <pValue>
5

>  <Ligand Efficiency>
0

>  <Binding Efficiency>
0

>  <Surface Efficiency>
0

>  <Assay Index>
1518189

>  <Assay Category>


>  <Assay Organism>
Homo sapiens

>  <Target ID>
17045

>  <Target Name>
Cytochrome P450 3A4

>  <Target Organism>
Homo sapiens

>  <Target Description>
Target is a single protein chain

>  <Sequence Accession>
P08684

>  <Reference>
J Med Chem 65 (5.0), 3962-3977 (2022)

>  <Pubmed ID>
35195417

>  <DOI>
10.1021/acs.jmedchem.1c01784

$$$$
2734604
Actelion Java MolfileCreator 1.0

 32 35  0  0  0  0  0  0  0  0999 V2000
    0.0000   -0.0000   -0.0000 F   0  0  0  0  0  0  0  0  0  0  0  0
    1.2943    0.7600   -0.0000 C   0  0  0  0  0  0  0  0  0  0  0  0
    2.5886    0.0237   -0.0000 C   0  0  0  0  0  0  0  0  0  0  0  0
    1.2824    2.2799   -0.0000 C   0  0  0  0  0  0  0  0  0  0  0  0
    3.8711    0.7837   -0.0000 C   0  0  0  0  0  0  0  0  0  0  0  0
    2.5768    3.0399   -0.0000 C   0  0  0  0  0  0  0  0  0  0  0  0
    3.8592    2.3037   -0.0000 C   0  0  0  0  0  0  0  0  0  0  0  0
    5.1654    0.0475   -0.0000 C   0  0  0  0  0  0  0  0  0  0  0  0
    6.4597    0.8075   -0.0000 N   0  0  0  0  0  0  0  0  0  0  0  0
    7.7540    0.0712   -0.0000 C   0  0  0  0  0  0  0  0  0  0  0  0
    6.4479    2.3274   -0.0000 C   0  0  0  0  0  0  0  0  0  0  0  0
    9.0484    0.8312   -0.0000 C   0  0  0  0  0  0  0  0  0  0  0  0
    9.0365    2.3511   -0.0000 C   0  0  0  0  0  0  0  0  0  0  0  0
   10.3308    0.0950   -0.0000 C   0  0  0  0  0  0  0  0  0  0  0  0
   10.3189    3.1111   -0.0000 C   0  0  0  0  0  0  0  0  0  0  0  0
   11.6251    0.8550   -0.0000 C   0  0  0  0  0  0  0  0  0  0  0  0
   11.6133    2.3749   -0.0000 C   0  0  0  0  0  0  0  0  0  0  0  0
   12.9076    3.1349   -0.0000 C   0  0  0  0  0  0  0  0  0  0  0  0
   14.2019    2.3986   -0.0000 O   0  0  0  0  0  0  0  0  0  0  0  0
   15.4962    3.1586   -0.0000 C   0  0  0  0  0  0  0  0  0  0  0  0
   16.7787    2.4224   -0.0000 C   0  0  0  0  0  0  0  0  0  0  0  0
   15.4843    4.6786   -0.0000 C   0  0  0  0  0  0  0  0  0  0  0  0
   18.0730    3.1824   -0.0000 C   0  0  0  0  0  0  0  0  0  0  0  0
   16.7668    5.4385   -0.0000 C   0  0  0  0  0  0  0  0  0  0  0  0
   19.3673    2.4461   -0.0000 O   0  0  0  0  0  0  0  0  0  0  0  0
   18.0611    4.7023   -0.0000 C   0  0  0  0  0  0  0  0  0  0  0  0
   20.6616    3.2061   -0.0000 C   0  0  0  0  0  0  0  0  0  0  0  0
   19.3554    5.4623   -0.0000 C   0  0  0  0  0  0  0  0  0  0  0  0
   21.9559    2.4699   -0.0000 O   0  0  0  0  0  0  0  0  0  0  0  0
   20.6497    4.7260   -0.0000 C   0  0  0  0  0  0  0  0  0  0  0  0
   19.3436    6.9822   -0.0000 C   0  0  0  0  0  0  0  0  0  0  0  0
   20.6379    7.7422   -0.0000 O   0  0  0  0  0  0  0  0  0  0  0  0
  1  2  1  0  0  0  0
  2  3  2  0  0  0  0
  2  4  1  0  0  0  0
  3  5  1  0  0  0  0
  4  6  2  0  0  0  0
  5  7  2  0  0  0  0
  5  8  1  0  0  0  0
  8  9  1  0  0  0  0
  9 10  1  0  0  0  0
  9 11  1  0  0  0  0
 10 12  1  0  0  0  0
 12 13  2  0  0  0  0
 12 14  1  0  0  0  0
 13 15  1  0  0  0  0
 14 16  2  0  0  0  0
 15 17  2  0  0  0  0
 17 18  1  0  0  0  0
 18 19  1  0  0  0  0
 19 20  1  0  0  0  0
 20 21  2  0  0  0  0
 20 22  1  0  0  0  0
 21 23  1  0  0  0  0
 22 24  2  0  0  0  0
 23 25  1  0  0  0  0
 23 26  2  0  0  0  0
 25 27  1  0  0  0  0
 26 28  1  0  0  0  0
 27 29  2  0  0  0  0
 27 30  1  0  0  0  0
 28 31  1  0  0  0  0
 31 32  1  0  0  0  0
  6  7  1  0  0  0  0
 16 17  1  0  0  0  0
 24 26  1  0  0  0  0
 28 30  2  0  0  0  0
M  END
>  <MolRegNo>
2734604

>  <m>
=

>  <Value>
3500

>  <Unit>
nM

>  <Type>
IC50

>  <pValue>
5.46

>  <Ligand Efficiency>
0

>  <Binding Efficiency>
0

>  <Surface Efficiency>
0

>  <Assay Index>
1518189

>  <Assay Category>


>  <Assay Organism>
Homo sapiens

>  <Target ID>
17045

>  <Target Name>
Cytochrome P450 3A4

>  <Target Organism>
Homo sapiens

>  <Target Description>
Target is a single protein chain

>  <Sequence Accession>
P08684

>  <Reference>
J Med Chem 65 (5.0), 3962-3977 (2022)

>  <Pubmed ID>
35195417

>  <DOI>
10.1021/acs.jmedchem.1c01784

$$$$
1949993
Actelion Java MolfileCreator 1.0

 31 34  0  0  0  0  0  0  0  0999 V2000
    0.0000   -0.0000   -0.0000 O   0  0  0  0  0  0  0  0  0  0  0  0
    1.0483   -0.6025   -0.0000 C   0  0  0  0  0  0  0  0  0  0  0  0
    2.3737    0.1687   -0.0000 O   0  0  0  0  0  0  0  0  0  0  0  0
    1.0362   -2.1206   -0.0000 C   0  0  0  0  0  0  0  0  0  0  0  0
    3.6870   -0.5784   -0.0000 C   0  0  0  0  0  0  0  0  0  0  0  0
    2.3616   -2.8677   -0.0000 C   0  0  0  0  0  0  0  0  0  0  0  0
    3.6750   -2.0966   -0.0000 C   0  0  0  0  0  0  0  0  0  0  0  0
    5.0004    0.1928   -0.0000 C   0  0  0  0  0  0  0  0  0  0  0  0
    2.3496   -4.3859   -0.0000 C   0  0  0  0  0  0  0  0  0  0  0  0
    4.9883   -2.8436   -0.0000 C   0  0  0  0  0  0  0  0  0  0  0  0
    6.3137   -0.5543   -0.0000 C   0  0  0  0  0  0  0  0  0  0  0  0
    1.2772   -4.9883   -0.0000 O   0  0  0  0  0  0  0  0  0  0  0  0
    6.3017   -2.0725   -0.0000 C   0  0  0  0  0  0  0  0  0  0  0  0
    7.6271    0.2169   -0.0000 O   0  0  0  0  0  0  0  0  0  0  0  0
    8.9405   -0.5422   -0.0000 C   0  0  0  0  0  0  0  0  0  0  0  0
   10.2538    0.2289   -0.0000 C   0  0  0  0  0  0  0  0  0  0  0  0
   11.5672   -0.5181   -0.0000 C   0  0  0  0  0  0  0  0  0  0  0  0
   10.2418    1.7712   -0.0000 C   0  0  0  0  0  0  0  0  0  0  0  0
   12.8805    0.2530   -0.0000 C   0  0  0  0  0  0  0  0  0  0  0  0
   11.5551    2.5424   -0.0000 C   0  0  0  0  0  0  0  0  0  0  0  0
   12.8685    1.7953   -0.0000 C   0  0  0  0  0  0  0  0  0  0  0  0
   14.1818    2.5785   -0.0000 C   0  0  0  0  0  0  0  0  0  0  0  0
   14.1698    4.1208   -0.0000 N   0  0  0  0  0  0  0  0  0  0  0  0
   15.4831    4.9040   -0.0000 C   0  0  0  0  0  0  0  0  0  0  0  0
   13.0974    4.7474   -0.0000 C   0  0  0  0  0  0  0  0  0  0  0  0
   15.4711    6.4463   -0.0000 C   0  0  0  0  0  0  0  0  0  0  0  0
   16.7844    7.2295   -0.0000 C   0  0  0  0  0  0  0  0  0  0  0  0
   14.1336    7.2174   -0.0000 C   0  0  0  0  0  0  0  0  0  0  0  0
   16.7724    8.7718   -0.0000 C   0  0  0  0  0  0  0  0  0  0  0  0
   14.1216    8.7597   -0.0000 C   0  0  0  0  0  0  0  0  0  0  0  0
   15.4349    9.5429   -0.0000 C   0  0  0  0  0  0  0  0  0  0  0  0
  1  2  2  0  0  0  0
  2  3  1  0  0  0  0
  2  4  1  0  0  0  0
  3  5  1  0  0  0  0
  4  6  2  0  0  0  0
  5  7  2  0  0  0  0
  5  8  1  0  0  0  0
  6  9  1  0  0  0  0
  7 10  1  0  0  0  0
  8 11  2  0  0  0  0
  9 12  1  0  0  0  0
 10 13  2  0  0  0  0
 11 14  1  0  0  0  0
 14 15  1  0  0  0  0
 15 16  1  0  0  0  0
 16 17  2  0  0  0  0
 16 18  1  0  0  0  0
 17 19  1  0  0  0  0
 18 20  2  0  0  0  0
 19 21  2  0  0  0  0
 21 22  1  0  0  0  0
 22 23  1  0  0  0  0
 23 24  1  0  0  0  0
 23 25  1  0  0  0  0
 24 26  1  0  0  0  0
 26 27  2  0  0  0  0
 26 28  1  0  0  0  0
 27 29  1  0  0  0  0
 28 30  2  0  0  0  0
 29 31  2  0  0  0  0
  6  7  1  0  0  0  0
 11 13  1  0  0  0  0
 20 21  1  0  0  0  0
 30 31  1  0  0  0  0
M  END
>  <MolRegNo>
1949993

>  <m>
=

>  <Value>
7000

>  <Unit>
nM

>  <Type>
IC50

>  <pValue>
5.16

>  <Ligand Efficiency>
0

>  <Binding Efficiency>
0

>  <Surface Efficiency>
0

>  <Assay Index>
1518189

>  <Assay Category>


>  <Assay Organism>
Homo sapiens

>  <Target ID>
17045

>  <Target Name>
Cytochrome P450 3A4

>  <Target Organism>
Homo sapiens

>  <Target Description>
Target is a single protein chain

>  <Sequence Accession>
P08684

>  <Reference>
J Med Chem 65 (5.0), 3962-3977 (2022)

>  <Pubmed ID>
35195417

>  <DOI>
10.1021/acs.jmedchem.1c01784

$$$$
2135542
Actelion Java MolfileCreator 1.0

 38 43  0  0  0  0  0  0  0  0999 V2000
    0.0000   -0.0000   -0.0000 Cl  0  0  0  0  0  0  0  0  0  0  0  0
   -0.0121   -1.2184   -0.0000 C   0  0  0  0  0  0  0  0  0  0  0  0
    1.3028   -1.9663   -0.0000 C   0  0  0  0  0  0  0  0  0  0  0  0
   -1.3511   -1.9784   -0.0000 C   0  0  0  0  0  0  0  0  0  0  0  0
    2.6177   -1.1822   -0.0000 C   0  0  0  0  0  0  0  0  0  0  0  0
    1.2908   -3.4863   -0.0000 C   0  0  0  0  0  0  0  0  0  0  0  0
   -1.3632   -3.4984   -0.0000 C   0  0  0  0  0  0  0  0  0  0  0  0
    2.6057    0.3619   -0.0000 C   0  0  0  0  0  0  0  0  0  0  0  0
    3.9326   -1.9301   -0.0000 C   0  0  0  0  0  0  0  0  0  0  0  0
   -0.0483   -4.2463   -0.0000 C   0  0  0  0  0  0  0  0  0  0  0  0
   -2.7022   -4.2463   -0.0000 O   0  0  0  0  0  0  0  0  0  0  0  0
    1.5320    0.9892   -0.0000 F   0  0  0  0  0  0  0  0  0  0  0  0
    3.9206    1.1339   -0.0000 C   0  0  0  0  0  0  0  0  0  0  0  0
    5.2475   -1.1581   -0.0000 C   0  0  0  0  0  0  0  0  0  0  0  0
   -4.0412   -3.4622   -0.0000 C   0  0  0  0  0  0  0  0  0  0  0  0
    5.2355    0.3860   -0.0000 C   0  0  0  0  0  0  0  0  0  0  0  0
    6.5624   -1.9060   -0.0000 C   0  0  0  0  0  0  0  0  0  0  0  0
   -5.3802   -4.2101   -0.0000 N   0  0  0  0  0  0  0  0  0  0  0  0
   -4.0533   -1.9181   -0.0000 N   0  0  0  0  0  0  0  0  0  0  0  0
    6.5504    1.1581   -0.0000 N   0  0  0  0  0  0  0  0  0  0  0  0
    6.8640   -3.3898   -0.0000 N   0  0  0  0  0  0  0  0  0  0  0  0
    7.8773   -1.1339   -0.0000 C   0  0  0  0  0  0  0  0  0  0  0  0
   -6.7192   -3.4260   -0.0000 C   0  0  0  0  0  0  0  0  0  0  0  0
   -5.3923   -1.1339   -0.0000 C   0  0  0  0  0  0  0  0  0  0  0  0
    7.8653    0.4102   -0.0000 C   0  0  0  0  0  0  0  0  0  0  0  0
    8.3719   -3.5345   -0.0000 C   0  0  0  0  0  0  0  0  0  0  0  0
    5.8266   -4.5117   -0.0000 C   0  0  0  0  0  0  0  0  0  0  0  0
    8.9992   -2.1473   -0.0000 N   0  0  0  0  0  0  0  0  0  0  0  0
   -6.7313   -1.8819   -0.0000 C   0  0  0  0  0  0  0  0  0  0  0  0
    8.9751   -4.5840   -0.0000 C   0  0  0  0  0  0  0  0  0  0  0  0
    4.3066   -4.2945   -0.0000 C   0  0  0  0  0  0  0  0  0  0  0  0
    6.4056   -5.9110   -0.0000 C   0  0  0  0  0  0  0  0  0  0  0  0
    3.3536   -5.5009   -0.0000 C   0  0  0  0  0  0  0  0  0  0  0  0
    5.4526   -7.1173   -0.0000 C   0  0  0  0  0  0  0  0  0  0  0  0
    3.9206   -6.9002   -0.0000 N   0  0  0  0  0  0  0  0  0  0  0  0
    2.9796   -8.1065   -0.0000 C   0  0  0  0  0  0  0  0  0  0  0  0
    3.5466   -9.5059   -0.0000 C   0  0  0  0  0  0  0  0  0  0  0  0
    4.0050  -10.6277   -0.0000 N   0  0  0  0  0  0  0  0  0  0  0  0
  1  2  1  0  0  0  0
  2  3  2  0  0  0  0
  2  4  1  0  0  0  0
  3  5  1  0  0  0  0
  3  6  1  0  0  0  0
  4  7  2  0  0  0  0
  5  8  1  0  0  0  0
  5  9  2  0  0  0  0
  6 10  2  0  0  0  0
  7 11  1  0  0  0  0
  8 12  1  0  0  0  0
  8 13  2  0  0  0  0
  9 14  1  0  0  0  0
 11 15  1  0  0  0  0
 13 16  1  0  0  0  0
 14 17  2  0  0  0  0
 15 18  2  0  0  0  0
 15 19  1  0  0  0  0
 16 20  2  0  0  0  0
 17 21  1  0  0  0  0
 17 22  1  0  0  0  0
 18 23  1  0  0  0  0
 19 24  2  0  0  0  0
 20 25  1  0  0  0  0
 21 26  1  0  0  0  0
 21 27  1  0  0  0  0
 22 28  1  0  0  0  0
 23 29  2  0  0  0  0
 26 30  1  0  0  0  0
 27 31  1  0  0  0  0
 27 32  1  0  0  0  0
 31 33  1  0  0  0  0
 32 34  1  0  0  0  0
 33 35  1  0  0  0  0
 35 36  1  0  0  0  0
 36 37  1  0  0  0  0
 37 38  3  0  0  0  0
  7 10  1  0  0  0  0
 14 16  1  0  0  0  0
 22 25  2  0  0  0  0
 24 29  1  0  0  0  0
 26 28  2  0  0  0  0
 34 35  1  0  0  0  0
M  END
>  <MolRegNo>
2135542

>  <m>
=

>  <Value>
1600

>  <Unit>
nM

>  <Type>
IC50

>  <pValue>
5.8

>  <Ligand Efficiency>
0

>  <Binding Efficiency>
0

>  <Surface Efficiency>
0

>  <Assay Index>
1518214

>  <Assay Category>


>  <Assay Organism>
Homo sapiens

>  <Target ID>
17045

>  <Target Name>
Cytochrome P450 3A4

>  <Target Organism>
Homo sapiens

>  <Target Description>
Target is a single protein chain

>  <Sequence Accession>
P08684

>  <Reference>
J Med Chem 65 (5.0), 4350-4366 (2022)

>  <Pubmed ID>
35195996

>  <DOI>
10.1021/acs.jmedchem.1c02192

$$$$
2734316
Actelion Java MolfileCreator 1.0

 38 43  0  0  0  0  0  0  0  0999 V2000
    0.0000   -0.0000   -0.0000 Cl  0  0  0  0  0  0  0  0  0  0  0  0
   -0.0119   -1.4858   -0.0000 C   0  0  0  0  0  0  0  0  0  0  0  0
   -1.3194   -2.2227   -0.0000 C   0  0  0  0  0  0  0  0  0  0  0  0
    1.2718   -2.2227   -0.0000 C   0  0  0  0  0  0  0  0  0  0  0  0
   -2.6387   -1.4620   -0.0000 C   0  0  0  0  0  0  0  0  0  0  0  0
   -1.3313   -3.7204   -0.0000 C   0  0  0  0  0  0  0  0  0  0  0  0
    1.2599   -3.7085   -0.0000 C   0  0  0  0  0  0  0  0  0  0  0  0
   -2.6506    0.0594   -0.0000 C   0  0  0  0  0  0  0  0  0  0  0  0
   -3.9581   -2.1989   -0.0000 C   0  0  0  0  0  0  0  0  0  0  0  0
   -0.0357   -4.4573   -0.0000 C   0  0  0  0  0  0  0  0  0  0  0  0
    2.5555   -4.4454   -0.0000 O   0  0  0  0  0  0  0  0  0  0  0  0
   -1.3550    0.8201   -0.0000 F   0  0  0  0  0  0  0  0  0  0  0  0
   -3.9700    0.8201   -0.0000 C   0  0  0  0  0  0  0  0  0  0  0  0
   -5.2656   -1.4382   -0.0000 C   0  0  0  0  0  0  0  0  0  0  0  0
    3.8511   -3.6847   -0.0000 C   0  0  0  0  0  0  0  0  0  0  0  0
   -5.2775    0.0832   -0.0000 C   0  0  0  0  0  0  0  0  0  0  0  0
   -6.5731   -2.1752   -0.0000 C   0  0  0  0  0  0  0  0  0  0  0  0
    3.8392   -2.1752   -0.0000 N   0  0  0  0  0  0  0  0  0  0  0  0
    5.1467   -4.4217   -0.0000 N   0  0  0  0  0  0  0  0  0  0  0  0
   -6.5968    0.8439   -0.0000 N   0  0  0  0  0  0  0  0  0  0  0  0
   -6.8940   -3.6372   -0.0000 N   0  0  0  0  0  0  0  0  0  0  0  0
   -7.8924   -1.4145   -0.0000 C   0  0  0  0  0  0  0  0  0  0  0  0
    5.1229   -1.4145   -0.0000 C   0  0  0  0  0  0  0  0  0  0  0  0
    6.4304   -3.6491   -0.0000 C   0  0  0  0  0  0  0  0  0  0  0  0
   -7.9043    0.0951   -0.0000 C   0  0  0  0  0  0  0  0  0  0  0  0
   -8.4035   -3.7798   -0.0000 C   0  0  0  0  0  0  0  0  0  0  0  0
   -5.8480   -4.6832   -0.0000 C   0  0  0  0  0  0  0  0  0  0  0  0
   -9.0216   -2.4129   -0.0000 N   0  0  0  0  0  0  0  0  0  0  0  0
    6.4185   -2.1514   -0.0000 C   0  0  0  0  0  0  0  0  0  0  0  0
   -4.4098   -4.2790   -0.0000 C   0  0  0  0  0  0  0  0  0  0  0  0
   -6.2521   -6.1214   -0.0000 C   0  0  0  0  0  0  0  0  0  0  0  0
   -5.4676   -3.2212   -0.0000 C   0  0  0  0  0  0  0  0  0  0  0  0
   -3.3638   -5.3250   -0.0000 C   0  0  0  0  0  0  0  0  0  0  0  0
   -5.2061   -7.1674   -0.0000 C   0  0  0  0  0  0  0  0  0  0  0  0
   -3.7679   -6.7632   -0.0000 N   0  0  0  0  0  0  0  0  0  0  0  0
   -2.7219   -7.8092   -0.0000 C   0  0  0  0  0  0  0  0  0  0  0  0
   -1.2837   -7.4051   -0.0000 C   0  0  0  0  0  0  0  0  0  0  0  0
    0.1545   -7.0010   -0.0000 N   0  0  0  0  0  0  0  0  0  0  0  0
  1  2  1  0  0  0  0
  2  3  2  0  0  0  0
  2  4  1  0  0  0  0
  3  5  1  0  0  0  0
  3  6  1  0  0  0  0
  4  7  2  0  0  0  0
  5  8  1  0  0  0  0
  5  9  2  0  0  0  0
  6 10  2  0  0  0  0
  7 11  1  0  0  0  0
  8 12  1  0  0  0  0
  8 13  2  0  0  0  0
  9 14  1  0  0  0  0
 11 15  1  0  0  0  0
 13 16  1  0  0  0  0
 14 17  2  0  0  0  0
 15 18  2  0  0  0  0
 15 19  1  0  0  0  0
 16 20  2  0  0  0  0
 17 21  1  0  0  0  0
 17 22  1  0  0  0  0
 18 23  1  0  0  0  0
 19 24  2  0  0  0  0
 20 25  1  0  0  0  0
 21 26  1  0  0  0  0
 21 27  1  0  0  0  0
 22 28  1  0  0  0  0
 23 29  2  0  0  0  0
 27 30  1  0  0  0  0
 27 31  1  0  0  0  0
 27 32  1  0  0  0  0
 30 33  1  0  0  0  0
 31 34  1  0  0  0  0
 33 35  1  0  0  0  0
 35 36  1  0  0  0  0
 36 37  1  0  0  0  0
 37 38  3  0  0  0  0
  7 10  1  0  0  0  0
 14 16  1  0  0  0  0
 22 25  2  0  0  0  0
 24 29  1  0  0  0  0
 26 28  2  0  0  0  0
 34 35  1  0  0  0  0
M  END
>  <MolRegNo>
2734316

>  <m>
=

>  <Value>
1500

>  <Unit>
nM

>  <Type>
IC50

>  <pValue>
5.82

>  <Ligand Efficiency>
0

>  <Binding Efficiency>
0

>  <Surface Efficiency>
0

>  <Assay Index>
1518214

>  <Assay Category>


>  <Assay Organism>
Homo sapiens

>  <Target ID>
17045

>  <Target Name>
Cytochrome P450 3A4

>  <Target Organism>
Homo sapiens

>  <Target Description>
Target is a single protein chain

>  <Sequence Accession>
P08684

>  <Reference>
J Med Chem 65 (5.0), 4350-4366 (2022)

>  <Pubmed ID>
35195996

>  <DOI>
10.1021/acs.jmedchem.1c02192

$$$$
2721372
Actelion Java MolfileCreator 1.0

 39 44  0  0  1  0  0  0  0  0999 V2000
    0.0000   -0.0000   -0.0000 Cl  0  0  0  0  0  0  0  0  0  0  0  0
   -0.0119   -1.4861   -0.0000 C   0  0  0  0  0  0  0  0  0  0  0  0
   -1.3197   -2.2232   -0.0000 C   0  0  0  0  0  0  0  0  0  0  0  0
    1.2721   -2.2232   -0.0000 C   0  0  0  0  0  0  0  0  0  0  0  0
   -2.6393   -1.4623   -0.0000 C   0  0  0  0  0  0  0  0  0  0  0  0
   -1.3315   -3.7212   -0.0000 C   0  0  0  0  0  0  0  0  0  0  0  0
    1.2602   -3.7093   -0.0000 C   0  0  0  0  0  0  0  0  0  0  0  0
   -2.6512    0.0594   -0.0000 C   0  0  0  0  0  0  0  0  0  0  0  0
   -3.9590   -2.1994   -0.0000 C   0  0  0  0  0  0  0  0  0  0  0  0
   -0.0357   -4.4583   -0.0000 C   0  0  0  0  0  0  0  0  0  0  0  0
    2.5561   -4.4464   -0.0000 O   0  0  0  0  0  0  0  0  0  0  0  0
   -1.3553    0.8203   -0.0000 F   0  0  0  0  0  0  0  0  0  0  0  0
   -3.9708    0.8203   -0.0000 C   0  0  0  0  0  0  0  0  0  0  0  0
   -5.2667   -1.4385   -0.0000 C   0  0  0  0  0  0  0  0  0  0  0  0
    3.8520   -3.6855   -0.0000 C   0  0  0  0  0  0  0  0  0  0  0  0
   -5.2786    0.0832   -0.0000 C   0  0  0  0  0  0  0  0  0  0  0  0
   -6.5745   -2.1756   -0.0000 C   0  0  0  0  0  0  0  0  0  0  0  0
    3.8401   -2.1756   -0.0000 N   0  0  0  0  0  0  0  0  0  0  0  0
    5.1478   -4.4226   -0.0000 N   0  0  0  0  0  0  0  0  0  0  0  0
   -6.5983    0.8441   -0.0000 N   0  0  0  0  0  0  0  0  0  0  0  0
   -6.8955   -3.6380   -0.0000 N   0  0  0  0  0  0  0  0  0  0  0  0
   -7.8941   -1.4148   -0.0000 C   0  0  0  0  0  0  0  0  0  0  0  0
    5.1241   -1.4148   -0.0000 C   0  0  0  0  0  0  0  0  0  0  0  0
    6.4318   -3.6498   -0.0000 C   0  0  0  0  0  0  0  0  0  0  0  0
   -7.9060    0.0951   -0.0000 C   0  0  0  0  0  0  0  0  0  0  0  0
   -8.4054   -3.7806   -0.0000 C   0  0  0  0  0  0  0  0  0  0  0  0
   -5.8493   -4.6842   -0.0000 C   0  0  0  0  0  0  0  0  0  0  0  0
   -9.0236   -2.4134   -0.0000 N   0  0  0  0  0  0  0  0  0  0  0  0
    6.4199   -2.1519   -0.0000 C   0  0  0  0  0  0  0  0  0  0  0  0
   -9.1662   -5.0765   -0.0000 C   0  0  0  0  0  0  0  0  0  0  0  0
   -4.4107   -4.2800   -0.0000 C   0  0  0  0  0  0  0  0  0  0  0  0
   -6.2535   -6.1227   -0.0000 C   0  0  0  0  0  0  0  0  0  0  0  0
   -3.3645   -5.3262   -0.0000 C   0  0  0  0  0  0  0  0  0  0  0  0
   -5.2073   -7.1689   -0.0000 C   0  0  0  0  0  0  0  0  0  0  0  0
   -3.7687   -6.7647   -0.0000 C   0  0  0  0  0  0  0  0  0  0  0  0
   -4.1730   -8.2032   -0.0000 N   0  0  0  0  0  0  0  0  0  0  0  0
   -2.7225   -7.8109   -0.0000 C   0  0  0  0  0  0  0  0  0  0  0  0
   -1.2840   -7.4067   -0.0000 C   0  0  0  0  0  0  0  0  0  0  0  0
    0.1546   -7.0025   -0.0000 N   0  0  0  0  0  0  0  0  0  0  0  0
  1  2  1  0  0  0  0
  2  3  2  0  0  0  0
  2  4  1  0  0  0  0
  3  5  1  0  0  0  0
  3  6  1  0  0  0  0
  4  7  2  0  0  0  0
  5  8  1  0  0  0  0
  5  9  2  0  0  0  0
  6 10  2  0  0  0  0
  7 11  1  0  0  0  0
  8 12  1  0  0  0  0
  8 13  2  0  0  0  0
  9 14  1  0  0  0  0
 11 15  1  0  0  0  0
 13 16  1  0  0  0  0
 14 17  2  0  0  0  0
 15 18  2  0  0  0  0
 15 19  1  0  0  0  0
 16 20  2  0  0  0  0
 17 21  1  0  0  0  0
 17 22  1  0  0  0  0
 18 23  1  0  0  0  0
 19 24  2  0  0  0  0
 20 25  1  0  0  0  0
 21 26  1  0  0  0  0
 27 21  1  1  0  0  0
 22 28  1  0  0  0  0
 23 29  2  0  0  0  0
 26 30  1  0  0  0  0
 27 31  1  0  0  0  0
 27 32  1  0  0  0  0
 31 33  1  0  0  0  0
 32 34  1  0  0  0  0
 33 35  1  0  0  0  0
 35 36  1  6  0  0  0
 35 37  1  0  0  0  0
 37 38  1  0  0  0  0
 38 39  3  0  0  0  0
  7 10  1  0  0  0  0
 14 16  1  0  0  0  0
 22 25  2  0  0  0  0
 24 29  1  0  0  0  0
 26 28  2  0  0  0  0
 34 35  1  0  0  0  0
M  END
>  <MolRegNo>
2721372

>  <m>
=

>  <Value>
1200

>  <Unit>
nM

>  <Type>
IC50

>  <pValue>
5.92

>  <Ligand Efficiency>
0

>  <Binding Efficiency>
0

>  <Surface Efficiency>
0

>  <Assay Index>
1518214

>  <Assay Category>


>  <Assay Organism>
Homo sapiens

>  <Target ID>
17045

>  <Target Name>
Cytochrome P450 3A4

>  <Target Organism>
Homo sapiens

>  <Target Description>
Target is a single protein chain

>  <Sequence Accession>
P08684

>  <Reference>
J Med Chem 65 (5.0), 4350-4366 (2022)

>  <Pubmed ID>
35195996

>  <DOI>
10.1021/acs.jmedchem.1c02192

$$$$
2731335
Actelion Java MolfileCreator 1.0

 39 44  0  0  1  0  0  0  0  0999 V2000
    0.0000   -0.0000   -0.0000 Cl  0  0  0  0  0  0  0  0  0  0  0  0
   -0.0119   -1.4863   -0.0000 C   0  0  0  0  0  0  0  0  0  0  0  0
   -1.3199   -2.2235   -0.0000 C   0  0  0  0  0  0  0  0  0  0  0  0
    1.2723   -2.2235   -0.0000 C   0  0  0  0  0  0  0  0  0  0  0  0
   -2.6397   -1.4625   -0.0000 C   0  0  0  0  0  0  0  0  0  0  0  0
   -1.3317   -3.7218   -0.0000 C   0  0  0  0  0  0  0  0  0  0  0  0
    1.2604   -3.7099   -0.0000 C   0  0  0  0  0  0  0  0  0  0  0  0
   -2.6516    0.0595   -0.0000 C   0  0  0  0  0  0  0  0  0  0  0  0
   -3.9596   -2.1998   -0.0000 C   0  0  0  0  0  0  0  0  0  0  0  0
   -0.0357   -4.4590   -0.0000 C   0  0  0  0  0  0  0  0  0  0  0  0
    2.5565   -4.4471   -0.0000 O   0  0  0  0  0  0  0  0  0  0  0  0
   -1.3555    0.8205   -0.0000 F   0  0  0  0  0  0  0  0  0  0  0  0
   -3.9715    0.8205   -0.0000 C   0  0  0  0  0  0  0  0  0  0  0  0
   -5.2675   -1.4388   -0.0000 C   0  0  0  0  0  0  0  0  0  0  0  0
    3.8407   -3.6861   -0.0000 C   0  0  0  0  0  0  0  0  0  0  0  0
   -5.2794    0.0832   -0.0000 C   0  0  0  0  0  0  0  0  0  0  0  0
   -6.5755   -2.1760   -0.0000 C   0  0  0  0  0  0  0  0  0  0  0  0
    3.8288   -2.1760   -0.0000 N   0  0  0  0  0  0  0  0  0  0  0  0
    5.1367   -4.4233   -0.0000 N   0  0  0  0  0  0  0  0  0  0  0  0
   -6.5993    0.8442   -0.0000 N   0  0  0  0  0  0  0  0  0  0  0  0
   -6.8966   -3.6385   -0.0000 N   0  0  0  0  0  0  0  0  0  0  0  0
   -7.8954   -1.4150   -0.0000 C   0  0  0  0  0  0  0  0  0  0  0  0
    5.1130   -1.4150   -0.0000 C   0  0  0  0  0  0  0  0  0  0  0  0
    6.4209   -3.6504   -0.0000 C   0  0  0  0  0  0  0  0  0  0  0  0
   -7.9073    0.0951   -0.0000 C   0  0  0  0  0  0  0  0  0  0  0  0
   -8.4067   -3.7812   -0.0000 C   0  0  0  0  0  0  0  0  0  0  0  0
   -5.8502   -4.6849   -0.0000 C   0  0  0  0  0  0  0  0  0  0  0  0
   -9.0250   -2.4138   -0.0000 N   0  0  0  0  0  0  0  0  0  0  0  0
    6.4090   -2.1522   -0.0000 C   0  0  0  0  0  0  0  0  0  0  0  0
   -9.1677   -5.0773   -0.0000 C   0  0  0  0  0  0  0  0  0  0  0  0
   -4.4114   -4.2806   -0.0000 C   0  0  0  0  0  0  0  0  0  0  0  0
   -6.2545   -6.1237   -0.0000 C   0  0  0  0  0  0  0  0  0  0  0  0
   -3.3650   -5.3270   -0.0000 C   0  0  0  0  0  0  0  0  0  0  0  0
   -5.2081   -7.1700   -0.0000 C   0  0  0  0  0  0  0  0  0  0  0  0
   -3.7693   -6.7658   -0.0000 C   0  0  0  0  0  0  0  0  0  0  0  0
   -4.1736   -8.2045   -0.0000 N   0  0  0  0  0  0  0  0  0  0  0  0
   -2.7229   -7.8121   -0.0000 C   0  0  0  0  0  0  0  0  0  0  0  0
   -1.2842   -7.4078   -0.0000 C   0  0  0  0  0  0  0  0  0  0  0  0
    0.1546   -7.0036   -0.0000 N   0  0  0  0  0  0  0  0  0  0  0  0
  1  2  1  0  0  0  0
  2  3  2  0  0  0  0
  2  4  1  0  0  0  0
  3  5  1  0  0  0  0
  3  6  1  0  0  0  0
  4  7  2  0  0  0  0
  5  8  1  0  0  0  0
  5  9  2  0  0  0  0
  6 10  2  0  0  0  0
  7 11  1  0  0  0  0
  8 12  1  0  0  0  0
  8 13  2  0  0  0  0
  9 14  1  0  0  0  0
 11 15  1  0  0  0  0
 13 16  1  0  0  0  0
 14 17  2  0  0  0  0
 15 18  2  0  0  0  0
 15 19  1  0  0  0  0
 16 20  2  0  0  0  0
 17 21  1  0  0  0  0
 17 22  1  0  0  0  0
 18 23  1  0  0  0  0
 19 24  2  0  0  0  0
 20 25  1  0  0  0  0
 21 26  1  0  0  0  0
 27 21  1  6  0  0  0
 22 28  1  0  0  0  0
 23 29  2  0  0  0  0
 26 30  1  0  0  0  0
 27 31  1  0  0  0  0
 27 32  1  0  0  0  0
 31 33  1  0  0  0  0
 32 34  1  0  0  0  0
 33 35  1  0  0  0  0
 35 36  1  6  0  0  0
 35 37  1  0  0  0  0
 37 38  1  0  0  0  0
 38 39  3  0  0  0  0
  7 10  1  0  0  0  0
 14 16  1  0  0  0  0
 22 25  2  0  0  0  0
 24 29  1  0  0  0  0
 26 28  2  0  0  0  0
 34 35  1  0  0  0  0
M  END
>  <MolRegNo>
2731335

>  <m>
=

>  <Value>
12100

>  <Unit>
nM

>  <Type>
IC50

>  <pValue>
4.92

>  <Ligand Efficiency>
0

>  <Binding Efficiency>
0

>  <Surface Efficiency>
0

>  <Assay Index>
1518214

>  <Assay Category>


>  <Assay Organism>
Homo sapiens

>  <Target ID>
17045

>  <Target Name>
Cytochrome P450 3A4

>  <Target Organism>
Homo sapiens

>  <Target Description>
Target is a single protein chain

>  <Sequence Accession>
P08684

>  <Reference>
J Med Chem 65 (5.0), 4350-4366 (2022)

>  <Pubmed ID>
35195996

>  <DOI>
10.1021/acs.jmedchem.1c02192

$$$$
2732513
Actelion Java MolfileCreator 1.0

 38 43  0  0  1  0  0  0  0  0999 V2000
    0.0000   -0.0000   -0.0000 Cl  0  0  0  0  0  0  0  0  0  0  0  0
   -0.0119   -1.4862   -0.0000 C   0  0  0  0  0  0  0  0  0  0  0  0
   -1.3197   -2.2233   -0.0000 C   0  0  0  0  0  0  0  0  0  0  0  0
    1.2722   -2.2233   -0.0000 C   0  0  0  0  0  0  0  0  0  0  0  0
   -2.6394   -1.4624   -0.0000 C   0  0  0  0  0  0  0  0  0  0  0  0
   -1.3316   -3.7213   -0.0000 C   0  0  0  0  0  0  0  0  0  0  0  0
    1.2603   -3.7095   -0.0000 C   0  0  0  0  0  0  0  0  0  0  0  0
   -2.6513    0.0594   -0.0000 C   0  0  0  0  0  0  0  0  0  0  0  0
   -3.9591   -2.1995   -0.0000 C   0  0  0  0  0  0  0  0  0  0  0  0
   -0.0357   -4.4585   -0.0000 C   0  0  0  0  0  0  0  0  0  0  0  0
    2.5562   -4.4466   -0.0000 O   0  0  0  0  0  0  0  0  0  0  0  0
   -1.3554    0.8204   -0.0000 F   0  0  0  0  0  0  0  0  0  0  0  0
   -3.9710    0.8204   -0.0000 C   0  0  0  0  0  0  0  0  0  0  0  0
   -5.2669   -1.4386   -0.0000 C   0  0  0  0  0  0  0  0  0  0  0  0
    3.8521   -3.6857   -0.0000 C   0  0  0  0  0  0  0  0  0  0  0  0
   -5.2788    0.0832   -0.0000 C   0  0  0  0  0  0  0  0  0  0  0  0
   -6.5748   -2.1757   -0.0000 C   0  0  0  0  0  0  0  0  0  0  0  0
    3.8402   -2.1757   -0.0000 N   0  0  0  0  0  0  0  0  0  0  0  0
    5.1481   -4.4228   -0.0000 N   0  0  0  0  0  0  0  0  0  0  0  0
   -6.5985    0.8441   -0.0000 N   0  0  0  0  0  0  0  0  0  0  0  0
   -6.8958   -3.6381   -0.0000 N   0  0  0  0  0  0  0  0  0  0  0  0
   -7.8945   -1.4148   -0.0000 C   0  0  0  0  0  0  0  0  0  0  0  0
    5.1243   -1.4148   -0.0000 C   0  0  0  0  0  0  0  0  0  0  0  0
    6.4321   -3.6500   -0.0000 C   0  0  0  0  0  0  0  0  0  0  0  0
   -7.9064    0.0951   -0.0000 C   0  0  0  0  0  0  0  0  0  0  0  0
   -8.4057   -3.7808   -0.0000 C   0  0  0  0  0  0  0  0  0  0  0  0
   -5.8495   -4.6844   -0.0000 C   0  0  0  0  0  0  0  0  0  0  0  0
   -9.0240   -2.4135   -0.0000 N   0  0  0  0  0  0  0  0  0  0  0  0
    6.4202   -2.1520   -0.0000 C   0  0  0  0  0  0  0  0  0  0  0  0
   -4.4109   -4.2801   -0.0000 C   0  0  0  0  0  0  0  0  0  0  0  0
   -6.2538   -6.1230   -0.0000 C   0  0  0  0  0  0  0  0  0  0  0  0
   -3.3647   -5.3264   -0.0000 C   0  0  0  0  0  0  0  0  0  0  0  0
   -5.2075   -7.1692   -0.0000 C   0  0  0  0  0  0  0  0  0  0  0  0
   -3.7689   -6.7650   -0.0000 C   0  0  0  0  0  0  0  0  0  0  0  0
   -4.1731   -8.2036   -0.0000 N   0  0  0  0  0  0  0  0  0  0  0  0
   -2.7226   -7.8112   -0.0000 C   0  0  0  0  0  0  0  0  0  0  0  0
   -1.2840   -7.4070   -0.0000 C   0  0  0  0  0  0  0  0  0  0  0  0
    0.1546   -7.0028   -0.0000 N   0  0  0  0  0  0  0  0  0  0  0  0
  1  2  1  0  0  0  0
  2  3  2  0  0  0  0
  2  4  1  0  0  0  0
  3  5  1  0  0  0  0
  3  6  1  0  0  0  0
  4  7  2  0  0  0  0
  5  8  1  0  0  0  0
  5  9  2  0  0  0  0
  6 10  2  0  0  0  0
  7 11  1  0  0  0  0
  8 12  1  0  0  0  0
  8 13  2  0  0  0  0
  9 14  1  0  0  0  0
 11 15  1  0  0  0  0
 13 16  1  0  0  0  0
 14 17  2  0  0  0  0
 15 18  2  0  0  0  0
 15 19  1  0  0  0  0
 16 20  2  0  0  0  0
 17 21  1  0  0  0  0
 17 22  1  0  0  0  0
 18 23  1  0  0  0  0
 19 24  2  0  0  0  0
 20 25  1  0  0  0  0
 21 26  1  0  0  0  0
 27 21  1  6  0  0  0
 22 28  1  0  0  0  0
 23 29  2  0  0  0  0
 27 30  1  0  0  0  0
 27 31  1  0  0  0  0
 30 32  1  0  0  0  0
 31 33  1  0  0  0  0
 32 34  1  0  0  0  0
 34 35  1  6  0  0  0
 34 36  1  0  0  0  0
 36 37  1  0  0  0  0
 37 38  3  0  0  0  0
  7 10  1  0  0  0  0
 14 16  1  0  0  0  0
 22 25  2  0  0  0  0
 24 29  1  0  0  0  0
 26 28  2  0  0  0  0
 33 34  1  0  0  0  0
M  END
>  <MolRegNo>
2732513

>  <m>
=

>  <Value>
5700

>  <Unit>
nM

>  <Type>
IC50

>  <pValue>
5.24

>  <Ligand Efficiency>
0

>  <Binding Efficiency>
0

>  <Surface Efficiency>
0

>  <Assay Index>
1518214

>  <Assay Category>


>  <Assay Organism>
Homo sapiens

>  <Target ID>
17045

>  <Target Name>
Cytochrome P450 3A4

>  <Target Organism>
Homo sapiens

>  <Target Description>
Target is a single protein chain

>  <Sequence Accession>
P08684

>  <Reference>
J Med Chem 65 (5.0), 4350-4366 (2022)

>  <Pubmed ID>
35195996

>  <DOI>
10.1021/acs.jmedchem.1c02192

$$$$
2146051
Actelion Java MolfileCreator 1.0

 39 44  0  0  0  0  0  0  0  0999 V2000
    0.0000   -0.0000   -0.0000 Cl  0  0  0  0  0  0  0  0  0  0  0  0
   -0.0121   -1.2229   -0.0000 C   0  0  0  0  0  0  0  0  0  0  0  0
    1.3076   -1.9735   -0.0000 C   0  0  0  0  0  0  0  0  0  0  0  0
   -1.3560   -1.9856   -0.0000 C   0  0  0  0  0  0  0  0  0  0  0  0
    2.6273   -1.1865   -0.0000 C   0  0  0  0  0  0  0  0  0  0  0  0
    1.2955   -3.4991   -0.0000 C   0  0  0  0  0  0  0  0  0  0  0  0
   -1.3682   -3.5112   -0.0000 C   0  0  0  0  0  0  0  0  0  0  0  0
    2.6152    0.3632   -0.0000 C   0  0  0  0  0  0  0  0  0  0  0  0
    3.9471   -1.9372   -0.0000 C   0  0  0  0  0  0  0  0  0  0  0  0
   -0.0484   -4.2619   -0.0000 C   0  0  0  0  0  0  0  0  0  0  0  0
   -2.7121   -4.2619   -0.0000 O   0  0  0  0  0  0  0  0  0  0  0  0
    1.5377    0.9928   -0.0000 F   0  0  0  0  0  0  0  0  0  0  0  0
    3.9350    1.1381   -0.0000 C   0  0  0  0  0  0  0  0  0  0  0  0
    5.2668   -1.1623   -0.0000 C   0  0  0  0  0  0  0  0  0  0  0  0
   -4.0560   -3.4749   -0.0000 C   0  0  0  0  0  0  0  0  0  0  0  0
    5.2547    0.3874   -0.0000 C   0  0  0  0  0  0  0  0  0  0  0  0
    6.5865   -1.9130   -0.0000 C   0  0  0  0  0  0  0  0  0  0  0  0
   -5.4000   -4.2255   -0.0000 N   0  0  0  0  0  0  0  0  0  0  0  0
   -4.0681   -1.9251   -0.0000 N   0  0  0  0  0  0  0  0  0  0  0  0
    6.5744    1.1623   -0.0000 N   0  0  0  0  0  0  0  0  0  0  0  0
    6.8892   -3.4022   -0.0000 N   0  0  0  0  0  0  0  0  0  0  0  0
    7.9063   -1.1381   -0.0000 C   0  0  0  0  0  0  0  0  0  0  0  0
   -6.7439   -3.4386   -0.0000 C   0  0  0  0  0  0  0  0  0  0  0  0
   -5.4121   -1.1381   -0.0000 C   0  0  0  0  0  0  0  0  0  0  0  0
    7.8941    0.4117   -0.0000 C   0  0  0  0  0  0  0  0  0  0  0  0
    8.4027   -3.5475   -0.0000 C   0  0  0  0  0  0  0  0  0  0  0  0
    5.8480   -4.5282   -0.0000 C   0  0  0  0  0  0  0  0  0  0  0  0
    9.0323   -2.1552   -0.0000 N   0  0  0  0  0  0  0  0  0  0  0  0
   -6.7560   -1.8888   -0.0000 C   0  0  0  0  0  0  0  0  0  0  0  0
    9.0080   -4.6009   -0.0000 C   0  0  0  0  0  0  0  0  0  0  0  0
    4.3224   -4.3103   -0.0000 C   0  0  0  0  0  0  0  0  0  0  0  0
    6.4291   -5.9327   -0.0000 C   0  0  0  0  0  0  0  0  0  0  0  0
    3.3659   -5.5211   -0.0000 C   0  0  0  0  0  0  0  0  0  0  0  0
    5.4726   -7.1435   -0.0000 C   0  0  0  0  0  0  0  0  0  0  0  0
    3.9350   -6.9255   -0.0000 N   0  0  0  0  0  0  0  0  0  0  0  0
    2.9906   -8.1363   -0.0000 C   0  0  0  0  0  0  0  0  0  0  0  0
    1.7556   -7.9668   -0.0000 O   0  0  0  0  0  0  0  0  0  0  0  0
    3.5596   -9.5408   -0.0000 C   0  0  0  0  0  0  0  0  0  0  0  0
    2.7969  -10.5094   -0.0000 O   0  0  0  0  0  0  0  0  0  0  0  0
  1  2  1  0  0  0  0
  2  3  2  0  0  0  0
  2  4  1  0  0  0  0
  3  5  1  0  0  0  0
  3  6  1  0  0  0  0
  4  7  2  0  0  0  0
  5  8  1  0  0  0  0
  5  9  2  0  0  0  0
  6 10  2  0  0  0  0
  7 11  1  0  0  0  0
  8 12  1  0  0  0  0
  8 13  2  0  0  0  0
  9 14  1  0  0  0  0
 11 15  1  0  0  0  0
 13 16  1  0  0  0  0
 14 17  2  0  0  0  0
 15 18  2  0  0  0  0
 15 19  1  0  0  0  0
 16 20  2  0  0  0  0
 17 21  1  0  0  0  0
 17 22  1  0  0  0  0
 18 23  1  0  0  0  0
 19 24  2  0  0  0  0
 20 25  1  0  0  0  0
 21 26  1  0  0  0  0
 21 27  1  0  0  0  0
 22 28  1  0  0  0  0
 23 29  2  0  0  0  0
 26 30  1  0  0  0  0
 27 31  1  0  0  0  0
 27 32  1  0  0  0  0
 31 33  1  0  0  0  0
 32 34  1  0  0  0  0
 33 35  1  0  0  0  0
 35 36  1  0  0  0  0
 36 37  2  0  0  0  0
 36 38  1  0  0  0  0
 38 39  1  0  0  0  0
  7 10  1  0  0  0  0
 14 16  1  0  0  0  0
 22 25  2  0  0  0  0
 24 29  1  0  0  0  0
 26 28  2  0  0  0  0
 34 35  1  0  0  0  0
M  END
>  <MolRegNo>
2146051

>  <m>
=

>  <Value>
11000

>  <Unit>
nM

>  <Type>
IC50

>  <pValue>
4.96

>  <Ligand Efficiency>
0

>  <Binding Efficiency>
0

>  <Surface Efficiency>
0

>  <Assay Index>
1518214

>  <Assay Category>


>  <Assay Organism>
Homo sapiens

>  <Target ID>
17045

>  <Target Name>
Cytochrome P450 3A4

>  <Target Organism>
Homo sapiens

>  <Target Description>
Target is a single protein chain

>  <Sequence Accession>
P08684

>  <Reference>
J Med Chem 65 (5.0), 4350-4366 (2022)

>  <Pubmed ID>
35195996

>  <DOI>
10.1021/acs.jmedchem.1c02192

$$$$
2113810
Actelion Java MolfileCreator 1.0

 40 45  0  0  1  0  0  0  0  0999 V2000
    0.0000   -0.0000   -0.0000 Cl  0  0  0  0  0  0  0  0  0  0  0  0
   -0.0122   -1.2276   -0.0000 C   0  0  0  0  0  0  0  0  0  0  0  0
    1.3127   -1.9812   -0.0000 C   0  0  0  0  0  0  0  0  0  0  0  0
   -1.3613   -1.9933   -0.0000 C   0  0  0  0  0  0  0  0  0  0  0  0
    2.6375   -1.1911   -0.0000 C   0  0  0  0  0  0  0  0  0  0  0  0
    1.3005   -3.5127   -0.0000 C   0  0  0  0  0  0  0  0  0  0  0  0
   -1.3735   -3.5248   -0.0000 C   0  0  0  0  0  0  0  0  0  0  0  0
    2.6254    0.3646   -0.0000 C   0  0  0  0  0  0  0  0  0  0  0  0
    3.9624   -1.9447   -0.0000 C   0  0  0  0  0  0  0  0  0  0  0  0
   -0.0486   -4.2784   -0.0000 C   0  0  0  0  0  0  0  0  0  0  0  0
   -2.7226   -4.2784   -0.0000 O   0  0  0  0  0  0  0  0  0  0  0  0
    1.5436    0.9967   -0.0000 F   0  0  0  0  0  0  0  0  0  0  0  0
    3.9502    1.1425   -0.0000 C   0  0  0  0  0  0  0  0  0  0  0  0
    5.2872   -1.1668   -0.0000 C   0  0  0  0  0  0  0  0  0  0  0  0
   -4.0718   -3.4883   -0.0000 C   0  0  0  0  0  0  0  0  0  0  0  0
    5.2751    0.3889   -0.0000 C   0  0  0  0  0  0  0  0  0  0  0  0
    6.6120   -1.9204   -0.0000 C   0  0  0  0  0  0  0  0  0  0  0  0
   -5.4209   -4.2419   -0.0000 N   0  0  0  0  0  0  0  0  0  0  0  0
   -4.0839   -1.9326   -0.0000 N   0  0  0  0  0  0  0  0  0  0  0  0
    6.5999    1.1668   -0.0000 N   0  0  0  0  0  0  0  0  0  0  0  0
    6.9159   -3.4154   -0.0000 N   0  0  0  0  0  0  0  0  0  0  0  0
    7.9369   -1.1425   -0.0000 C   0  0  0  0  0  0  0  0  0  0  0  0
   -6.7701   -3.4519   -0.0000 C   0  0  0  0  0  0  0  0  0  0  0  0
   -5.4331   -1.1425   -0.0000 C   0  0  0  0  0  0  0  0  0  0  0  0
    7.9247    0.4133   -0.0000 C   0  0  0  0  0  0  0  0  0  0  0  0
    8.4352   -3.5613   -0.0000 C   0  0  0  0  0  0  0  0  0  0  0  0
    5.8706   -4.5458   -0.0000 C   0  0  0  0  0  0  0  0  0  0  0  0
    9.0673   -2.1635   -0.0000 N   0  0  0  0  0  0  0  0  0  0  0  0
   -6.7822   -1.8961   -0.0000 C   0  0  0  0  0  0  0  0  0  0  0  0
    9.0429   -4.6187   -0.0000 C   0  0  0  0  0  0  0  0  0  0  0  0
    4.3392   -4.3270   -0.0000 C   0  0  0  0  0  0  0  0  0  0  0  0
    6.4540   -5.9557   -0.0000 C   0  0  0  0  0  0  0  0  0  0  0  0
    3.8530   -3.1723   -0.0000 F   0  0  0  0  0  0  0  0  0  0  0  0
    3.3790   -5.5425   -0.0000 C   0  0  0  0  0  0  0  0  0  0  0  0
    5.4938   -7.1712   -0.0000 C   0  0  0  0  0  0  0  0  0  0  0  0
    3.9502   -6.9524   -0.0000 N   0  0  0  0  0  0  0  0  0  0  0  0
    2.9900   -8.1557   -0.0000 C   0  0  0  0  0  0  0  0  0  0  0  0
    3.4397   -9.2860   -0.0000 O   0  0  0  0  0  0  0  0  0  0  0  0
    1.4464   -7.9369   -0.0000 C   0  0  0  0  0  0  0  0  0  0  0  0
    0.6807   -8.8971   -0.0000 O   0  0  0  0  0  0  0  0  0  0  0  0
  1  2  1  0  0  0  0
  2  3  2  0  0  0  0
  2  4  1  0  0  0  0
  3  5  1  0  0  0  0
  3  6  1  0  0  0  0
  4  7  2  0  0  0  0
  5  8  1  0  0  0  0
  5  9  2  0  0  0  0
  6 10  2  0  0  0  0
  7 11  1  0  0  0  0
  8 12  1  0  0  0  0
  8 13  2  0  0  0  0
  9 14  1  0  0  0  0
 11 15  1  0  0  0  0
 13 16  1  0  0  0  0
 14 17  2  0  0  0  0
 15 18  2  0  0  0  0
 15 19  1  0  0  0  0
 16 20  2  0  0  0  0
 17 21  1  0  0  0  0
 17 22  1  0  0  0  0
 18 23  1  0  0  0  0
 19 24  2  0  0  0  0
 20 25  1  0  0  0  0
 21 26  1  0  0  0  0
 27 21  1  1  0  0  0
 22 28  1  0  0  0  0
 23 29  2  0  0  0  0
 26 30  1  0  0  0  0
 27 31  1  0  0  0  0
 27 32  1  0  0  0  0
 31 33  1  6  0  0  0
 31 34  1  0  0  0  0
 32 35  1  0  0  0  0
 34 36  1  0  0  0  0
 36 37  1  0  0  0  0
 37 38  2  0  0  0  0
 37 39  1  0  0  0  0
 39 40  1  0  0  0  0
  7 10  1  0  0  0  0
 14 16  1  0  0  0  0
 22 25  2  0  0  0  0
 24 29  1  0  0  0  0
 26 28  2  0  0  0  0
 35 36  1  0  0  0  0
M  END
>  <MolRegNo>
2113810

>  <m>
=

>  <Value>
7700

>  <Unit>
nM

>  <Type>
IC50

>  <pValue>
5.11

>  <Ligand Efficiency>
0

>  <Binding Efficiency>
0

>  <Surface Efficiency>
0

>  <Assay Index>
1518214

>  <Assay Category>


>  <Assay Organism>
Homo sapiens

>  <Target ID>
17045

>  <Target Name>
Cytochrome P450 3A4

>  <Target Organism>
Homo sapiens

>  <Target Description>
Target is a single protein chain

>  <Sequence Accession>
P08684

>  <Reference>
J Med Chem 65 (5.0), 4350-4366 (2022)

>  <Pubmed ID>
35195996

>  <DOI>
10.1021/acs.jmedchem.1c02192

$$$$
2141449
Actelion Java MolfileCreator 1.0

 41 46  0  0  1  0  0  0  0  0999 V2000
    0.0000   -0.0000   -0.0000 Cl  0  0  0  0  0  0  0  0  0  0  0  0
   -0.0121   -1.2268   -0.0000 C   0  0  0  0  0  0  0  0  0  0  0  0
    1.3119   -1.9799   -0.0000 C   0  0  0  0  0  0  0  0  0  0  0  0
   -1.3604   -1.9921   -0.0000 C   0  0  0  0  0  0  0  0  0  0  0  0
    2.6359   -1.1904   -0.0000 C   0  0  0  0  0  0  0  0  0  0  0  0
    1.2997   -3.5104   -0.0000 C   0  0  0  0  0  0  0  0  0  0  0  0
   -1.3726   -3.5226   -0.0000 C   0  0  0  0  0  0  0  0  0  0  0  0
    2.6237    0.3644   -0.0000 C   0  0  0  0  0  0  0  0  0  0  0  0
    3.9599   -1.9435   -0.0000 C   0  0  0  0  0  0  0  0  0  0  0  0
   -0.0486   -4.2757   -0.0000 C   0  0  0  0  0  0  0  0  0  0  0  0
   -2.7209   -4.2757   -0.0000 O   0  0  0  0  0  0  0  0  0  0  0  0
    1.5426    0.9960   -0.0000 F   0  0  0  0  0  0  0  0  0  0  0  0
    3.9477    1.1418   -0.0000 C   0  0  0  0  0  0  0  0  0  0  0  0
    5.2839   -1.1661   -0.0000 C   0  0  0  0  0  0  0  0  0  0  0  0
   -4.0692   -3.4861   -0.0000 C   0  0  0  0  0  0  0  0  0  0  0  0
    5.2717    0.3887   -0.0000 C   0  0  0  0  0  0  0  0  0  0  0  0
    6.6079   -1.9192   -0.0000 C   0  0  0  0  0  0  0  0  0  0  0  0
   -5.4175   -4.2392   -0.0000 N   0  0  0  0  0  0  0  0  0  0  0  0
   -4.0813   -1.9313   -0.0000 N   0  0  0  0  0  0  0  0  0  0  0  0
    6.5957    1.1661   -0.0000 N   0  0  0  0  0  0  0  0  0  0  0  0
    6.9115   -3.4133   -0.0000 N   0  0  0  0  0  0  0  0  0  0  0  0
    7.9319   -1.1418   -0.0000 C   0  0  0  0  0  0  0  0  0  0  0  0
   -6.7658   -3.4497   -0.0000 C   0  0  0  0  0  0  0  0  0  0  0  0
   -5.4296   -1.1418   -0.0000 C   0  0  0  0  0  0  0  0  0  0  0  0
    7.9197    0.4130   -0.0000 C   0  0  0  0  0  0  0  0  0  0  0  0
    8.4299   -3.5590   -0.0000 C   0  0  0  0  0  0  0  0  0  0  0  0
    5.8669   -4.5429   -0.0000 C   0  0  0  0  0  0  0  0  0  0  0  0
    9.0615   -2.1621   -0.0000 N   0  0  0  0  0  0  0  0  0  0  0  0
   -6.7779   -1.8949   -0.0000 C   0  0  0  0  0  0  0  0  0  0  0  0
    9.0372   -4.6158   -0.0000 C   0  0  0  0  0  0  0  0  0  0  0  0
    6.2192   -6.0248   -0.0000 C   0  0  0  0  0  0  0  0  0  0  0  0
    4.3729   -4.0935   -0.0000 C   0  0  0  0  0  0  0  0  0  0  0  0
    7.3974   -6.3649   -0.0000 F   0  0  0  0  0  0  0  0  0  0  0  0
    5.0895   -7.0816   -0.0000 C   0  0  0  0  0  0  0  0  0  0  0  0
    3.2432   -5.1502   -0.0000 C   0  0  0  0  0  0  0  0  0  0  0  0
    3.5955   -6.6322   -0.0000 N   0  0  0  0  0  0  0  0  0  0  0  0
    2.4658   -7.6889   -0.0000 C   0  0  0  0  0  0  0  0  0  0  0  0
    1.2633   -7.3367   -0.0000 O   0  0  0  0  0  0  0  0  0  0  0  0
    2.8181   -9.1708   -0.0000 C   0  0  0  0  0  0  0  0  0  0  0  0
    1.6884  -10.2276   -0.0000 O   0  0  0  0  0  0  0  0  0  0  0  0
    1.9678  -11.4180   -0.0000 C   0  0  0  0  0  0  0  0  0  0  0  0
  1  2  1  0  0  0  0
  2  3  2  0  0  0  0
  2  4  1  0  0  0  0
  3  5  1  0  0  0  0
  3  6  1  0  0  0  0
  4  7  2  0  0  0  0
  5  8  1  0  0  0  0
  5  9  2  0  0  0  0
  6 10  2  0  0  0  0
  7 11  1  0  0  0  0
  8 12  1  0  0  0  0
  8 13  2  0  0  0  0
  9 14  1  0  0  0  0
 11 15  1  0  0  0  0
 13 16  1  0  0  0  0
 14 17  2  0  0  0  0
 15 18  2  0  0  0  0
 15 19  1  0  0  0  0
 16 20  2  0  0  0  0
 17 21  1  0  0  0  0
 17 22  1  0  0  0  0
 18 23  1  0  0  0  0
 19 24  2  0  0  0  0
 20 25  1  0  0  0  0
 21 26  1  0  0  0  0
 27 21  1  6  0  0  0
 22 28  1  0  0  0  0
 23 29  2  0  0  0  0
 26 30  1  0  0  0  0
 27 31  1  0  0  0  0
 27 32  1  0  0  0  0
 31 33  1  1  0  0  0
 31 34  1  0  0  0  0
 32 35  1  0  0  0  0
 34 36  1  0  0  0  0
 36 37  1  0  0  0  0
 37 38  2  0  0  0  0
 37 39  1  0  0  0  0
 39 40  1  0  0  0  0
 40 41  1  0  0  0  0
  7 10  1  0  0  0  0
 14 16  1  0  0  0  0
 22 25  2  0  0  0  0
 24 29  1  0  0  0  0
 26 28  2  0  0  0  0
 35 36  1  0  0  0  0
M  END
>  <MolRegNo>
2141449

>  <m>
=

>  <Value>
5000

>  <Unit>
nM

>  <Type>
IC50

>  <pValue>
5.3

>  <Ligand Efficiency>
0

>  <Binding Efficiency>
0

>  <Surface Efficiency>
0

>  <Assay Index>
1518214

>  <Assay Category>


>  <Assay Organism>
Homo sapiens

>  <Target ID>
17045

>  <Target Name>
Cytochrome P450 3A4

>  <Target Organism>
Homo sapiens

>  <Target Description>
Target is a single protein chain

>  <Sequence Accession>
P08684

>  <Reference>
J Med Chem 65 (5.0), 4350-4366 (2022)

>  <Pubmed ID>
35195996

>  <DOI>
10.1021/acs.jmedchem.1c02192

$$$$
2160413
Actelion Java MolfileCreator 1.0

 41 46  0  0  1  0  0  0  0  0999 V2000
    0.0000   -0.0000   -0.0000 Cl  0  0  0  0  0  0  0  0  0  0  0  0
   -0.0122   -1.2310   -0.0000 C   0  0  0  0  0  0  0  0  0  0  0  0
   -1.3651   -1.9867   -0.0000 C   0  0  0  0  0  0  0  0  0  0  0  0
    1.3163   -1.9989   -0.0000 C   0  0  0  0  0  0  0  0  0  0  0  0
   -2.7180   -1.1945   -0.0000 C   0  0  0  0  0  0  0  0  0  0  0  0
   -1.3773   -3.5224   -0.0000 C   0  0  0  0  0  0  0  0  0  0  0  0
    1.3042   -3.5346   -0.0000 C   0  0  0  0  0  0  0  0  0  0  0  0
   -4.0709   -1.9501   -0.0000 C   0  0  0  0  0  0  0  0  0  0  0  0
   -2.7302    0.3657   -0.0000 C   0  0  0  0  0  0  0  0  0  0  0  0
   -0.0488   -4.2903   -0.0000 C   0  0  0  0  0  0  0  0  0  0  0  0
    2.6327   -4.2903   -0.0000 O   0  0  0  0  0  0  0  0  0  0  0  0
   -4.0831   -3.1812   -0.0000 F   0  0  0  0  0  0  0  0  0  0  0  0
   -5.4238   -1.1701   -0.0000 C   0  0  0  0  0  0  0  0  0  0  0  0
   -4.0831    1.1457   -0.0000 C   0  0  0  0  0  0  0  0  0  0  0  0
    3.9612   -3.4981   -0.0000 C   0  0  0  0  0  0  0  0  0  0  0  0
   -5.4360    0.3900   -0.0000 C   0  0  0  0  0  0  0  0  0  0  0  0
   -4.0953    2.7058   -0.0000 C   0  0  0  0  0  0  0  0  0  0  0  0
    3.9490   -1.9380   -0.0000 N   0  0  0  0  0  0  0  0  0  0  0  0
    5.2898   -4.2537   -0.0000 N   0  0  0  0  0  0  0  0  0  0  0  0
   -6.7889    1.1701   -0.0000 N   0  0  0  0  0  0  0  0  0  0  0  0
   -2.9618    3.7540   -0.0000 N   0  0  0  0  0  0  0  0  0  0  0  0
   -5.4482    3.4859   -0.0000 C   0  0  0  0  0  0  0  0  0  0  0  0
    5.2776   -1.1457   -0.0000 C   0  0  0  0  0  0  0  0  0  0  0  0
    6.6183   -3.4615   -0.0000 C   0  0  0  0  0  0  0  0  0  0  0  0
   -6.8011    2.7302   -0.0000 C   0  0  0  0  0  0  0  0  0  0  0  0
   -3.6078    5.1801   -0.0000 C   0  0  0  0  0  0  0  0  0  0  0  0
   -1.4626    3.4493   -0.0000 C   0  0  0  0  0  0  0  0  0  0  0  0
   -5.1435    5.0094   -0.0000 N   0  0  0  0  0  0  0  0  0  0  0  0
    6.6061   -1.9014   -0.0000 C   0  0  0  0  0  0  0  0  0  0  0  0
    5.2654    0.1097   -0.0000 C   0  0  0  0  0  0  0  0  0  0  0  0
   -2.9983    6.2648   -0.0000 C   0  0  0  0  0  0  0  0  0  0  0  0
   -0.3657    4.5219   -0.0000 C   0  0  0  0  0  0  0  0  0  0  0  0
   -1.1091    1.9501   -0.0000 C   0  0  0  0  0  0  0  0  0  0  0  0
   -0.6704    5.7407   -0.0000 F   0  0  0  0  0  0  0  0  0  0  0  0
    1.1091    4.0953   -0.0000 C   0  0  0  0  0  0  0  0  0  0  0  0
    0.3657    1.5235   -0.0000 C   0  0  0  0  0  0  0  0  0  0  0  0
    1.4626    2.6083   -0.0000 N   0  0  0  0  0  0  0  0  0  0  0  0
    2.9374    2.1939   -0.0000 C   0  0  0  0  0  0  0  0  0  0  0  0
    3.2177    0.9994   -0.0000 O   0  0  0  0  0  0  0  0  0  0  0  0
    4.0465    3.2787   -0.0000 C   0  0  0  0  0  0  0  0  0  0  0  0
    5.2288    2.9496   -0.0000 O   0  0  0  0  0  0  0  0  0  0  0  0
  1  2  1  0  0  0  0
  2  3  2  0  0  0  0
  2  4  1  0  0  0  0
  3  5  1  0  0  0  0
  3  6  1  0  0  0  0
  4  7  2  0  0  0  0
  5  8  1  0  0  0  0
  5  9  2  0  0  0  0
  6 10  2  0  0  0  0
  7 11  1  0  0  0  0
  8 12  1  0  0  0  0
  8 13  2  0  0  0  0
  9 14  1  0  0  0  0
 11 15  1  0  0  0  0
 13 16  1  0  0  0  0
 14 17  2  0  0  0  0
 15 18  2  0  0  0  0
 15 19  1  0  0  0  0
 16 20  2  0  0  0  0
 17 21  1  0  0  0  0
 17 22  1  0  0  0  0
 18 23  1  0  0  0  0
 19 24  2  0  0  0  0
 20 25  1  0  0  0  0
 21 26  1  0  0  0  0
 27 21  1  6  0  0  0
 22 28  1  0  0  0  0
 23 29  2  0  0  0  0
 23 30  1  0  0  0  0
 26 31  1  0  0  0  0
 27 32  1  0  0  0  0
 27 33  1  0  0  0  0
 32 34  1  1  0  0  0
 32 35  1  0  0  0  0
 33 36  1  0  0  0  0
 35 37  1  0  0  0  0
 37 38  1  0  0  0  0
 38 39  2  0  0  0  0
 38 40  1  0  0  0  0
 40 41  1  0  0  0  0
  7 10  1  0  0  0  0
 14 16  1  0  0  0  0
 22 25  2  0  0  0  0
 24 29  1  0  0  0  0
 26 28  2  0  0  0  0
 36 37  1  0  0  0  0
M  END
>  <MolRegNo>
2160413

>  <m>
=

>  <Value>
2000

>  <Unit>
nM

>  <Type>
IC50

>  <pValue>
5.7

>  <Ligand Efficiency>
0

>  <Binding Efficiency>
0

>  <Surface Efficiency>
0

>  <Assay Index>
1518214

>  <Assay Category>


>  <Assay Organism>
Homo sapiens

>  <Target ID>
17045

>  <Target Name>
Cytochrome P450 3A4

>  <Target Organism>
Homo sapiens

>  <Target Description>
Target is a single protein chain

>  <Sequence Accession>
P08684

>  <Reference>
J Med Chem 65 (5.0), 4350-4366 (2022)

>  <Pubmed ID>
35195996

>  <DOI>
10.1021/acs.jmedchem.1c02192

$$$$
2723519
Actelion Java MolfileCreator 1.0

 20 21  0  0  0  0  0  0  0  0999 V2000
    0.0000   -0.0000   -0.0000 O   0  0  0  0  0  0  0  0  0  0  0  0
   -1.3116    0.7562   -0.0000 C   0  0  0  0  0  0  0  0  0  0  0  0
    1.2879    0.7562   -0.0000 C   0  0  0  0  0  0  0  0  0  0  0  0
   -1.3234    2.2687   -0.0000 C   0  0  0  0  0  0  0  0  0  0  0  0
   -2.6113    0.0236   -0.0000 C   0  0  0  0  0  0  0  0  0  0  0  0
    2.5759    0.0236   -0.0000 C   0  0  0  0  0  0  0  0  0  0  0  0
   -2.6231    3.0249   -0.0000 C   0  0  0  0  0  0  0  0  0  0  0  0
   -3.9229    0.7799   -0.0000 C   0  0  0  0  0  0  0  0  0  0  0  0
    2.5641   -1.4534   -0.0000 N   0  0  0  0  0  0  0  0  0  0  0  0
    3.8638    0.7799   -0.0000 C   0  0  0  0  0  0  0  0  0  0  0  0
   -3.9347    2.2923   -0.0000 C   0  0  0  0  0  0  0  0  0  0  0  0
    5.1518    0.0473   -0.0000 C   0  0  0  0  0  0  0  0  0  0  0  0
   -5.2463    3.0485   -0.0000 C   0  0  0  0  0  0  0  0  0  0  0  0
    6.4397    0.8035   -0.0000 C   0  0  0  0  0  0  0  0  0  0  0  0
    5.1399   -1.4297   -0.0000 C   0  0  0  0  0  0  0  0  0  0  0  0
   -6.5579    2.3159   -0.0000 C   0  0  0  0  0  0  0  0  0  0  0  0
   -5.2581    4.5610   -0.0000 C   0  0  0  0  0  0  0  0  0  0  0  0
   -7.8576    3.0721   -0.0000 C   0  0  0  0  0  0  0  0  0  0  0  0
   -6.5697    5.3172   -0.0000 C   0  0  0  0  0  0  0  0  0  0  0  0
   -7.8694    4.5846   -0.0000 N   0  0  0  0  0  0  0  0  0  0  0  0
  1  2  1  0  0  0  0
  1  3  1  0  0  0  0
  2  4  2  0  0  0  0
  2  5  1  0  0  0  0
  3  6  1  0  0  0  0
  4  7  1  0  0  0  0
  5  8  2  0  0  0  0
  6  9  1  6  0  0  0
  6 10  1  0  0  0  0
  7 11  2  0  0  0  0
 10 12  1  0  0  0  0
 11 13  1  0  0  0  0
 12 14  1  0  0  0  0
 12 15  1  0  0  0  0
 13 16  2  0  0  0  0
 13 17  1  0  0  0  0
 16 18  1  0  0  0  0
 17 19  2  0  0  0  0
 18 20  2  0  0  0  0
  8 11  1  0  0  0  0
 19 20  1  0  0  0  0
M  END
>  <MolRegNo>
2723519

>  <m>
=

>  <Value>
8700

>  <Unit>
nM

>  <Type>
IC50

>  <pValue>
5.06

>  <Ligand Efficiency>
0

>  <Binding Efficiency>
0

>  <Surface Efficiency>
0

>  <Assay Index>
1518607

>  <Assay Category>


>  <Assay Organism>
Homo sapiens

>  <Target ID>
17045

>  <Target Name>
Cytochrome P450 3A4

>  <Target Organism>
Homo sapiens

>  <Target Description>
Target is a single protein chain

>  <Sequence Accession>
P08684

>  <Reference>
J Med Chem 65 (6.0), 4457-4480 (2022)

>  <Pubmed ID>
35257579

>  <DOI>
10.1021/acs.jmedchem.1c02131

$$$$
2729628
Actelion Java MolfileCreator 1.0

 23 24  0  0  0  0  0  0  0  0999 V2000
    0.0000   -0.0000   -0.0000 O   0  0  0  0  0  0  0  0  0  0  0  0
   -1.3125    0.7568   -0.0000 C   0  0  0  0  0  0  0  0  0  0  0  0
    1.2771    0.7568   -0.0000 C   0  0  0  0  0  0  0  0  0  0  0  0
   -1.3244    2.2704   -0.0000 C   0  0  0  0  0  0  0  0  0  0  0  0
   -2.6133    0.0236   -0.0000 C   0  0  0  0  0  0  0  0  0  0  0  0
    2.5660    0.0236   -0.0000 C   0  0  0  0  0  0  0  0  0  0  0  0
   -0.0355    3.0271   -0.0000 C   0  0  0  0  0  0  0  0  0  0  0  0
   -2.6251    3.0271   -0.0000 C   0  0  0  0  0  0  0  0  0  0  0  0
   -3.9258    0.7804   -0.0000 C   0  0  0  0  0  0  0  0  0  0  0  0
    2.5541   -1.4544   -0.0000 N   0  0  0  0  0  0  0  0  0  0  0  0
    3.8549    0.7804   -0.0000 C   0  0  0  0  0  0  0  0  0  0  0  0
    1.2534    3.7839   -0.0000 N   0  0  0  0  0  0  0  0  0  0  0  0
   -3.9376    2.2940   -0.0000 C   0  0  0  0  0  0  0  0  0  0  0  0
    5.1438    0.0473   -0.0000 C   0  0  0  0  0  0  0  0  0  0  0  0
   -5.2502    3.0508   -0.0000 C   0  0  0  0  0  0  0  0  0  0  0  0
    6.4327    0.8041   -0.0000 C   0  0  0  0  0  0  0  0  0  0  0  0
    5.1319   -1.4308   -0.0000 C   0  0  0  0  0  0  0  0  0  0  0  0
   -6.5627    2.3177   -0.0000 C   0  0  0  0  0  0  0  0  0  0  0  0
   -5.2620    4.5644   -0.0000 C   0  0  0  0  0  0  0  0  0  0  0  0
   -7.8635    3.0744   -0.0000 C   0  0  0  0  0  0  0  0  0  0  0  0
   -6.5746    5.3211   -0.0000 C   0  0  0  0  0  0  0  0  0  0  0  0
   -7.8753    4.5762   -0.0000 N   0  0  0  0  0  0  0  0  0  0  0  0
   -9.1760    2.3413   -0.0000 C   0  0  0  0  0  0  0  0  0  0  0  0
  1  2  1  0  0  0  0
  1  3  1  0  0  0  0
  2  4  2  0  0  0  0
  2  5  1  0  0  0  0
  3  6  1  0  0  0  0
  4  7  1  0  0  0  0
  4  8  1  0  0  0  0
  5  9  2  0  0  0  0
  6 10  1  6  0  0  0
  6 11  1  0  0  0  0
  7 12  3  0  0  0  0
  8 13  2  0  0  0  0
 11 14  1  0  0  0  0
 13 15  1  0  0  0  0
 14 16  1  0  0  0  0
 14 17  1  0  0  0  0
 15 18  2  0  0  0  0
 15 19  1  0  0  0  0
 18 20  1  0  0  0  0
 19 21  2  0  0  0  0
 20 22  2  0  0  0  0
 20 23  1  0  0  0  0
  9 13  1  0  0  0  0
 21 22  1  0  0  0  0
M  END
>  <MolRegNo>
2729628

>  <m>
=

>  <Value>
2400

>  <Unit>
nM

>  <Type>
IC50

>  <pValue>
5.62

>  <Ligand Efficiency>
0

>  <Binding Efficiency>
0

>  <Surface Efficiency>
0

>  <Assay Index>
1518607

>  <Assay Category>


>  <Assay Organism>
Homo sapiens

>  <Target ID>
17045

>  <Target Name>
Cytochrome P450 3A4

>  <Target Organism>
Homo sapiens

>  <Target Description>
Target is a single protein chain

>  <Sequence Accession>
P08684

>  <Reference>
J Med Chem 65 (6.0), 4457-4480 (2022)

>  <Pubmed ID>
35257579

>  <DOI>
10.1021/acs.jmedchem.1c02131

$$$$
2733655
Actelion Java MolfileCreator 1.0

 24 25  0  0  0  0  0  0  0  0999 V2000
    0.0000   -0.0000   -0.0000 O   0  0  0  0  0  0  0  0  0  0  0  0
   -1.3018    0.7574   -0.0000 C   0  0  0  0  0  0  0  0  0  0  0  0
    1.2900    0.7574   -0.0000 C   0  0  0  0  0  0  0  0  0  0  0  0
   -1.3137    2.2723   -0.0000 C   0  0  0  0  0  0  0  0  0  0  0  0
   -2.6037    0.0237   -0.0000 C   0  0  0  0  0  0  0  0  0  0  0  0
    2.5800    0.0237   -0.0000 C   0  0  0  0  0  0  0  0  0  0  0  0
   -0.0355    3.0297   -0.0000 C   0  0  0  0  0  0  0  0  0  0  0  0
   -2.6155    3.0297   -0.0000 C   0  0  0  0  0  0  0  0  0  0  0  0
   -3.9173    0.7811   -0.0000 C   0  0  0  0  0  0  0  0  0  0  0  0
    2.5682   -1.4557   -0.0000 N   0  0  0  0  0  0  0  0  0  0  0  0
    3.8700    0.7811   -0.0000 C   0  0  0  0  0  0  0  0  0  0  0  0
    1.2545    3.7872   -0.0000 N   0  0  0  0  0  0  0  0  0  0  0  0
   -3.9292    2.2960   -0.0000 C   0  0  0  0  0  0  0  0  0  0  0  0
    5.1600    0.0473   -0.0000 C   0  0  0  0  0  0  0  0  0  0  0  0
   -5.2429    3.0534   -0.0000 C   0  0  0  0  0  0  0  0  0  0  0  0
    6.4500    0.8048   -0.0000 C   0  0  0  0  0  0  0  0  0  0  0  0
    5.1482   -1.4320   -0.0000 C   0  0  0  0  0  0  0  0  0  0  0  0
   -6.5565    2.3196   -0.0000 C   0  0  0  0  0  0  0  0  0  0  0  0
   -5.2547    4.5683   -0.0000 C   0  0  0  0  0  0  0  0  0  0  0  0
   -7.8584    3.0771   -0.0000 C   0  0  0  0  0  0  0  0  0  0  0  0
   -6.5684    5.3257   -0.0000 C   0  0  0  0  0  0  0  0  0  0  0  0
   -9.1720    2.3433   -0.0000 O   0  0  0  0  0  0  0  0  0  0  0  0
   -7.8702    4.5801   -0.0000 N   0  0  0  0  0  0  0  0  0  0  0  0
   -9.1839    0.8639   -0.0000 C   0  0  0  0  0  0  0  0  0  0  0  0
  1  2  1  0  0  0  0
  1  3  1  0  0  0  0
  2  4  2  0  0  0  0
  2  5  1  0  0  0  0
  3  6  1  0  0  0  0
  4  7  1  0  0  0  0
  4  8  1  0  0  0  0
  5  9  2  0  0  0  0
  6 10  1  6  0  0  0
  6 11  1  0  0  0  0
  7 12  3  0  0  0  0
  8 13  2  0  0  0  0
 11 14  1  0  0  0  0
 13 15  1  0  0  0  0
 14 16  1  0  0  0  0
 14 17  1  0  0  0  0
 15 18  2  0  0  0  0
 15 19  1  0  0  0  0
 18 20  1  0  0  0  0
 19 21  2  0  0  0  0
 20 22  1  0  0  0  0
 20 23  2  0  0  0  0
 22 24  1  0  0  0  0
  9 13  1  0  0  0  0
 21 23  1  0  0  0  0
M  END
>  <MolRegNo>
2733655

>  <m>
=

>  <Value>
540

>  <Unit>
nM

>  <Type>
IC50

>  <pValue>
6.27

>  <Ligand Efficiency>
0

>  <Binding Efficiency>
0

>  <Surface Efficiency>
0

>  <Assay Index>
1518607

>  <Assay Category>


>  <Assay Organism>
Homo sapiens

>  <Target ID>
17045

>  <Target Name>
Cytochrome P450 3A4

>  <Target Organism>
Homo sapiens

>  <Target Description>
Target is a single protein chain

>  <Sequence Accession>
P08684

>  <Reference>
J Med Chem 65 (6.0), 4457-4480 (2022)

>  <Pubmed ID>
35257579

>  <DOI>
10.1021/acs.jmedchem.1c02131

$$$$
2723902
Actelion Java MolfileCreator 1.0

 26 27  0  0  0  0  0  0  0  0999 V2000
    0.0000   -0.0000   -0.0000 F   0  0  0  0  0  0  0  0  0  0  0  0
   -0.0119    1.5160   -0.0000 C   0  0  0  0  0  0  0  0  0  0  0  0
   -1.3250    2.2799   -0.0000 F   0  0  0  0  0  0  0  0  0  0  0  0
   -1.3250    0.7759   -0.0000 F   0  0  0  0  0  0  0  0  0  0  0  0
    1.2772    2.2799   -0.0000 C   0  0  0  0  0  0  0  0  0  0  0  0
    1.2653    3.7959   -0.0000 N   0  0  0  0  0  0  0  0  0  0  0  0
    2.5664    1.5398   -0.0000 C   0  0  0  0  0  0  0  0  0  0  0  0
    2.5545    4.5598   -0.0000 C   0  0  0  0  0  0  0  0  0  0  0  0
    3.8675    2.3038   -0.0000 C   0  0  0  0  0  0  0  0  0  0  0  0
    3.8556    3.8197   -0.0000 C   0  0  0  0  0  0  0  0  0  0  0  0
    5.1686    1.5637   -0.0000 C   0  0  0  0  0  0  0  0  0  0  0  0
    6.4697    2.3277   -0.0000 C   0  0  0  0  0  0  0  0  0  0  0  0
    5.1567    0.0597   -0.0000 C   0  0  0  0  0  0  0  0  0  0  0  0
    7.7589    1.5876   -0.0000 C   0  0  0  0  0  0  0  0  0  0  0  0
    6.4578   -0.6804   -0.0000 C   0  0  0  0  0  0  0  0  0  0  0  0
    9.0480    2.3515   -0.0000 C   0  0  0  0  0  0  0  0  0  0  0  0
    7.7469    0.0955   -0.0000 C   0  0  0  0  0  0  0  0  0  0  0  0
   10.3491    3.1155   -0.0000 N   0  0  0  0  0  0  0  0  0  0  0  0
    9.0361   -0.6446   -0.0000 O   0  0  0  0  0  0  0  0  0  0  0  0
   10.3252    0.1194   -0.0000 C   0  0  0  0  0  0  0  0  0  0  0  0
   11.6144   -0.6207   -0.0000 C   0  0  0  0  0  0  0  0  0  0  0  0
   11.6025   -2.1128   -0.0000 N   0  0  0  0  0  0  0  0  0  0  0  0
   12.9036    0.1432   -0.0000 C   0  0  0  0  0  0  0  0  0  0  0  0
   14.1927   -0.5968   -0.0000 C   0  0  0  0  0  0  0  0  0  0  0  0
   15.4819    0.1671   -0.0000 C   0  0  0  0  0  0  0  0  0  0  0  0
   14.1808   -2.0889   -0.0000 C   0  0  0  0  0  0  0  0  0  0  0  0
  1  2  1  0  0  0  0
  2  3  1  0  0  0  0
  2  4  1  0  0  0  0
  2  5  1  0  0  0  0
  5  6  2  0  0  0  0
  5  7  1  0  0  0  0
  6  8  1  0  0  0  0
  7  9  2  0  0  0  0
  8 10  2  0  0  0  0
  9 11  1  0  0  0  0
 11 12  2  0  0  0  0
 11 13  1  0  0  0  0
 12 14  1  0  0  0  0
 13 15  2  0  0  0  0
 14 16  1  0  0  0  0
 14 17  2  0  0  0  0
 16 18  3  0  0  0  0
 17 19  1  0  0  0  0
 19 20  1  0  0  0  0
 20 21  1  0  0  0  0
 21 22  1  6  0  0  0
 21 23  1  0  0  0  0
 23 24  1  0  0  0  0
 24 25  1  0  0  0  0
 24 26  1  0  0  0  0
  9 10  1  0  0  0  0
 15 17  1  0  0  0  0
M  END
>  <MolRegNo>
2723902

>  <m>
=

>  <Value>
1300

>  <Unit>
nM

>  <Type>
IC50

>  <pValue>
5.89

>  <Ligand Efficiency>
0

>  <Binding Efficiency>
0

>  <Surface Efficiency>
0

>  <Assay Index>
1518607

>  <Assay Category>


>  <Assay Organism>
Homo sapiens

>  <Target ID>
17045

>  <Target Name>
Cytochrome P450 3A4

>  <Target Organism>
Homo sapiens

>  <Target Description>
Target is a single protein chain

>  <Sequence Accession>
P08684

>  <Reference>
J Med Chem 65 (6.0), 4457-4480 (2022)

>  <Pubmed ID>
35257579

>  <DOI>
10.1021/acs.jmedchem.1c02131

$$$$
2719228
Actelion Java MolfileCreator 1.0

 25 26  0  0  0  0  0  0  0  0999 V2000
    0.0000   -0.0000   -0.0000 F   0  0  0  0  0  0  0  0  0  0  0  0
   -1.3104   -0.7437   -0.0000 C   0  0  0  0  0  0  0  0  0  0  0  0
   -0.0236   -1.4875   -0.0000 F   0  0  0  0  0  0  0  0  0  0  0  0
   -1.3222    0.7673   -0.0000 F   0  0  0  0  0  0  0  0  0  0  0  0
   -2.6208   -1.4875   -0.0000 C   0  0  0  0  0  0  0  0  0  0  0  0
   -2.6326   -2.9749   -0.0000 C   0  0  0  0  0  0  0  0  0  0  0  0
   -3.9312   -0.7201   -0.0000 C   0  0  0  0  0  0  0  0  0  0  0  0
   -1.3458   -3.7069   -0.0000 O   0  0  0  0  0  0  0  0  0  0  0  0
   -3.9430   -3.7069   -0.0000 C   0  0  0  0  0  0  0  0  0  0  0  0
   -5.2416   -1.4639   -0.0000 C   0  0  0  0  0  0  0  0  0  0  0  0
   -0.0590   -2.9513   -0.0000 C   0  0  0  0  0  0  0  0  0  0  0  0
   -5.2534   -2.9513   -0.0000 C   0  0  0  0  0  0  0  0  0  0  0  0
   -6.5520   -0.6965   -0.0000 C   0  0  0  0  0  0  0  0  0  0  0  0
    1.2278   -3.6833   -0.0000 C   0  0  0  0  0  0  0  0  0  0  0  0
   -6.5638    0.8146   -0.0000 C   0  0  0  0  0  0  0  0  0  0  0  0
   -7.8624   -1.4403   -0.0000 C   0  0  0  0  0  0  0  0  0  0  0  0
    0.4722   -4.9701   -0.0000 N   0  0  0  0  0  0  0  0  0  0  0  0
    2.5145   -2.9277   -0.0000 C   0  0  0  0  0  0  0  0  0  0  0  0
    1.9715   -4.9701   -0.0000 C   0  0  0  0  0  0  0  0  0  0  0  0
   -7.8742    1.5701   -0.0000 C   0  0  0  0  0  0  0  0  0  0  0  0
   -9.1728   -0.6729   -0.0000 C   0  0  0  0  0  0  0  0  0  0  0  0
    3.8013   -3.6715   -0.0000 C   0  0  0  0  0  0  0  0  0  0  0  0
   -9.1846    0.8382   -0.0000 N   0  0  0  0  0  0  0  0  0  0  0  0
    3.7895   -5.1589   -0.0000 C   0  0  0  0  0  0  0  0  0  0  0  0
    5.0881   -2.9041   -0.0000 C   0  0  0  0  0  0  0  0  0  0  0  0
  1  2  1  0  0  0  0
  2  3  1  0  0  0  0
  2  4  1  0  0  0  0
  2  5  1  0  0  0  0
  5  6  2  0  0  0  0
  5  7  1  0  0  0  0
  6  8  1  0  0  0  0
  6  9  1  0  0  0  0
  7 10  2  0  0  0  0
  8 11  1  0  0  0  0
  9 12  2  0  0  0  0
 10 13  1  0  0  0  0
 11 14  1  0  0  0  0
 13 15  2  0  0  0  0
 13 16  1  0  0  0  0
 14 17  1  6  0  0  0
 14 18  1  0  0  0  0
 14 19  1  0  0  0  0
 15 20  1  0  0  0  0
 16 21  2  0  0  0  0
 18 22  1  0  0  0  0
 20 23  2  0  0  0  0
 22 24  1  0  0  0  0
 22 25  1  0  0  0  0
 10 12  1  0  0  0  0
 21 23  1  0  0  0  0
M  END
>  <MolRegNo>
2719228

>  <m>
=

>  <Value>
630

>  <Unit>
nM

>  <Type>
IC50

>  <pValue>
6.2

>  <Ligand Efficiency>
0

>  <Binding Efficiency>
0

>  <Surface Efficiency>
0

>  <Assay Index>
1518607

>  <Assay Category>


>  <Assay Organism>
Homo sapiens

>  <Target ID>
17045

>  <Target Name>
Cytochrome P450 3A4

>  <Target Organism>
Homo sapiens

>  <Target Description>
Target is a single protein chain

>  <Sequence Accession>
P08684

>  <Reference>
J Med Chem 65 (6.0), 4457-4480 (2022)

>  <Pubmed ID>
35257579

>  <DOI>
10.1021/acs.jmedchem.1c02131

$$$$
2727384
Actelion Java MolfileCreator 1.0

 28 29  0  0  0  0  0  0  0  0999 V2000
    0.0000   -0.0000   -0.0000 F   0  0  0  0  0  0  0  0  0  0  0  0
   -1.3086   -0.7427   -0.0000 C   0  0  0  0  0  0  0  0  0  0  0  0
   -0.0236   -1.4854   -0.0000 F   0  0  0  0  0  0  0  0  0  0  0  0
   -1.3204    0.7663   -0.0000 F   0  0  0  0  0  0  0  0  0  0  0  0
   -2.6172   -1.4854   -0.0000 C   0  0  0  0  0  0  0  0  0  0  0  0
   -2.6290   -2.9708   -0.0000 C   0  0  0  0  0  0  0  0  0  0  0  0
   -3.9258   -0.7191   -0.0000 C   0  0  0  0  0  0  0  0  0  0  0  0
   -1.3440   -3.7136   -0.0000 O   0  0  0  0  0  0  0  0  0  0  0  0
   -3.9375   -3.7136   -0.0000 C   0  0  0  0  0  0  0  0  0  0  0  0
   -5.2343   -1.4618   -0.0000 C   0  0  0  0  0  0  0  0  0  0  0  0
   -0.0589   -2.9473   -0.0000 C   0  0  0  0  0  0  0  0  0  0  0  0
   -5.2461   -2.9473   -0.0000 C   0  0  0  0  0  0  0  0  0  0  0  0
   -6.5429   -0.6956   -0.0000 C   0  0  0  0  0  0  0  0  0  0  0  0
    1.2261   -3.6900   -0.0000 C   0  0  0  0  0  0  0  0  0  0  0  0
   -7.8515   -1.4383   -0.0000 C   0  0  0  0  0  0  0  0  0  0  0  0
   -6.5547    0.8134   -0.0000 C   0  0  0  0  0  0  0  0  0  0  0  0
    0.4598   -4.9750   -0.0000 N   0  0  0  0  0  0  0  0  0  0  0  0
    2.5111   -2.9237   -0.0000 C   0  0  0  0  0  0  0  0  0  0  0  0
    1.9570   -4.9750   -0.0000 C   0  0  0  0  0  0  0  0  0  0  0  0
   -9.1601   -0.6720   -0.0000 C   0  0  0  0  0  0  0  0  0  0  0  0
   -7.8633    1.5797   -0.0000 C   0  0  0  0  0  0  0  0  0  0  0  0
    3.7961   -3.6664   -0.0000 C   0  0  0  0  0  0  0  0  0  0  0  0
   -9.1719    0.8370   -0.0000 N   0  0  0  0  0  0  0  0  0  0  0  0
  -10.4687   -1.4147   -0.0000 C   0  0  0  0  0  0  0  0  0  0  0  0
    3.7843   -5.1518   -0.0000 C   0  0  0  0  0  0  0  0  0  0  0  0
    5.0811   -2.9001   -0.0000 C   0  0  0  0  0  0  0  0  0  0  0  0
  -11.7773   -0.6484   -0.0000 F   0  0  0  0  0  0  0  0  0  0  0  0
  -10.4805   -2.9001   -0.0000 F   0  0  0  0  0  0  0  0  0  0  0  0
  1  2  1  0  0  0  0
  2  3  1  0  0  0  0
  2  4  1  0  0  0  0
  2  5  1  0  0  0  0
  5  6  2  0  0  0  0
  5  7  1  0  0  0  0
  6  8  1  0  0  0  0
  6  9  1  0  0  0  0
  7 10  2  0  0  0  0
  8 11  1  0  0  0  0
  9 12  2  0  0  0  0
 10 13  1  0  0  0  0
 11 14  1  0  0  0  0
 13 15  2  0  0  0  0
 13 16  1  0  0  0  0
 14 17  1  6  0  0  0
 14 18  1  0  0  0  0
 14 19  1  0  0  0  0
 15 20  1  0  0  0  0
 16 21  2  0  0  0  0
 18 22  1  0  0  0  0
 20 23  2  0  0  0  0
 20 24  1  0  0  0  0
 22 25  1  0  0  0  0
 22 26  1  0  0  0  0
 24 27  1  0  0  0  0
 24 28  1  0  0  0  0
 10 12  1  0  0  0  0
 21 23  1  0  0  0  0
M  END
>  <MolRegNo>
2727384

>  <m>
=

>  <Value>
18000

>  <Unit>
nM

>  <Type>
IC50

>  <pValue>
4.75

>  <Ligand Efficiency>
0

>  <Binding Efficiency>
0

>  <Surface Efficiency>
0

>  <Assay Index>
1518607

>  <Assay Category>


>  <Assay Organism>
Homo sapiens

>  <Target ID>
17045

>  <Target Name>
Cytochrome P450 3A4

>  <Target Organism>
Homo sapiens

>  <Target Description>
Target is a single protein chain

>  <Sequence Accession>
P08684

>  <Reference>
J Med Chem 65 (6.0), 4457-4480 (2022)

>  <Pubmed ID>
35257579

>  <DOI>
10.1021/acs.jmedchem.1c02131

$$$$
2732656
Actelion Java MolfileCreator 1.0

 27 28  0  0  0  0  0  0  0  0999 V2000
    0.0000   -0.0000   -0.0000 F   0  0  0  0  0  0  0  0  0  0  0  0
    1.2960   -0.7372   -0.0000 C   0  0  0  0  0  0  0  0  0  0  0  0
    1.2841   -2.2353   -0.0000 F   0  0  0  0  0  0  0  0  0  0  0  0
    2.5920    0.0238   -0.0000 C   0  0  0  0  0  0  0  0  0  0  0  0
    2.5801    1.5457   -0.0000 N   0  0  0  0  0  0  0  0  0  0  0  0
    3.8880   -0.7134   -0.0000 C   0  0  0  0  0  0  0  0  0  0  0  0
    3.8761    2.3185   -0.0000 C   0  0  0  0  0  0  0  0  0  0  0  0
    5.1840    0.0476   -0.0000 C   0  0  0  0  0  0  0  0  0  0  0  0
    5.1721    1.5695   -0.0000 C   0  0  0  0  0  0  0  0  0  0  0  0
    6.4800   -0.6896   -0.0000 C   0  0  0  0  0  0  0  0  0  0  0  0
    7.7760    0.0713   -0.0000 C   0  0  0  0  0  0  0  0  0  0  0  0
    6.4681   -2.1877   -0.0000 C   0  0  0  0  0  0  0  0  0  0  0  0
    9.0719   -0.6658   -0.0000 C   0  0  0  0  0  0  0  0  0  0  0  0
    7.7641   -2.9249   -0.0000 C   0  0  0  0  0  0  0  0  0  0  0  0
    9.0601   -2.1640   -0.0000 C   0  0  0  0  0  0  0  0  0  0  0  0
   10.3679    0.0951   -0.0000 C   0  0  0  0  0  0  0  0  0  0  0  0
   10.3560   -2.9011   -0.0000 O   0  0  0  0  0  0  0  0  0  0  0  0
   11.6639   -0.6421   -0.0000 F   0  0  0  0  0  0  0  0  0  0  0  0
   10.3560    1.6170   -0.0000 F   0  0  0  0  0  0  0  0  0  0  0  0
   11.6520   -2.1402   -0.0000 C   0  0  0  0  0  0  0  0  0  0  0  0
   12.9480   -2.8773   -0.0000 C   0  0  0  0  0  0  0  0  0  0  0  0
   12.1871   -4.1733   -0.0000 N   0  0  0  0  0  0  0  0  0  0  0  0
   14.2440   -2.1164   -0.0000 C   0  0  0  0  0  0  0  0  0  0  0  0
   13.6852   -4.1733   -0.0000 C   0  0  0  0  0  0  0  0  0  0  0  0
   15.5400   -2.8536   -0.0000 C   0  0  0  0  0  0  0  0  0  0  0  0
   15.5281   -4.3517   -0.0000 C   0  0  0  0  0  0  0  0  0  0  0  0
   16.8360   -2.0926   -0.0000 C   0  0  0  0  0  0  0  0  0  0  0  0
  1  2  1  0  0  0  0
  2  3  1  0  0  0  0
  2  4  1  0  0  0  0
  4  5  2  0  0  0  0
  4  6  1  0  0  0  0
  5  7  1  0  0  0  0
  6  8  2  0  0  0  0
  7  9  2  0  0  0  0
  8 10  1  0  0  0  0
 10 11  2  0  0  0  0
 10 12  1  0  0  0  0
 11 13  1  0  0  0  0
 12 14  2  0  0  0  0
 13 15  2  0  0  0  0
 13 16  1  0  0  0  0
 15 17  1  0  0  0  0
 16 18  1  0  0  0  0
 16 19  1  0  0  0  0
 17 20  1  0  0  0  0
 20 21  1  0  0  0  0
 21 22  1  6  0  0  0
 21 23  1  0  0  0  0
 21 24  1  0  0  0  0
 23 25  1  0  0  0  0
 25 26  1  0  0  0  0
 25 27  1  0  0  0  0
  8  9  1  0  0  0  0
 14 15  1  0  0  0  0
M  END
>  <MolRegNo>
2732656

>  <m>
=

>  <Value>
16000

>  <Unit>
nM

>  <Type>
IC50

>  <pValue>
4.8

>  <Ligand Efficiency>
0

>  <Binding Efficiency>
0

>  <Surface Efficiency>
0

>  <Assay Index>
1518607

>  <Assay Category>


>  <Assay Organism>
Homo sapiens

>  <Target ID>
17045

>  <Target Name>
Cytochrome P450 3A4

>  <Target Organism>
Homo sapiens

>  <Target Description>
Target is a single protein chain

>  <Sequence Accession>
P08684

>  <Reference>
J Med Chem 65 (6.0), 4457-4480 (2022)

>  <Pubmed ID>
35257579

>  <DOI>
10.1021/acs.jmedchem.1c02131

$$$$
2730690
Actelion Java MolfileCreator 1.0

 30 35  0  0  0  0  0  0  0  0999 V2000
    0.0000   -0.0000   -0.0000 S   0  0  0  0  0  0  0  0  0  0  0  0
   -0.0118   -1.4887   -0.0000 C   0  0  0  0  0  0  0  0  0  0  0  0
   -1.4414    0.4726   -0.0000 C   0  0  0  0  0  0  0  0  0  0  0  0
   -1.4532   -1.9376   -0.0000 N   0  0  0  0  0  0  0  0  0  0  0  0
    1.2760   -2.2212   -0.0000 C   0  0  0  0  0  0  0  0  0  0  0  0
   -2.3393   -0.7325   -0.0000 C   0  0  0  0  0  0  0  0  0  0  0  0
    2.5638   -1.4650   -0.0000 C   0  0  0  0  0  0  0  0  0  0  0  0
    1.2642   -3.7098   -0.0000 C   0  0  0  0  0  0  0  0  0  0  0  0
   -3.8516   -0.7207   -0.0000 C   0  0  0  0  0  0  0  0  0  0  0  0
    3.8516   -2.1976   -0.0000 C   0  0  0  0  0  0  0  0  0  0  0  0
    2.5520   -4.4542   -0.0000 C   0  0  0  0  0  0  0  0  0  0  0  0
   -4.7495   -1.9258   -0.0000 O   0  0  0  0  0  0  0  0  0  0  0  0
   -4.7495    0.5080   -0.0000 C   0  0  0  0  0  0  0  0  0  0  0  0
    3.8398   -3.6862   -0.0000 N   0  0  0  0  0  0  0  0  0  0  0  0
   -6.1909   -1.4532   -0.0000 C   0  0  0  0  0  0  0  0  0  0  0  0
   -6.1909    0.0591   -0.0000 C   0  0  0  0  0  0  0  0  0  0  0  0
    5.1276   -4.4305   -0.0000 C   0  0  0  0  0  0  0  0  0  0  0  0
   -7.4906   -2.1857   -0.0000 C   0  0  0  0  0  0  0  0  0  0  0  0
   -7.5024    0.8152   -0.0000 C   0  0  0  0  0  0  0  0  0  0  0  0
    6.4154   -3.6626   -0.0000 C   0  0  0  0  0  0  0  0  0  0  0  0
   -8.8020   -1.4296   -0.0000 C   0  0  0  0  0  0  0  0  0  0  0  0
   -8.8138    0.0827   -0.0000 C   0  0  0  0  0  0  0  0  0  0  0  0
    6.5572   -2.1621   -0.0000 N   0  0  0  0  0  0  0  0  0  0  0  0
    7.7741   -4.2651   -0.0000 N   0  0  0  0  0  0  0  0  0  0  0  0
    8.0104   -1.8431   -0.0000 C   0  0  0  0  0  0  0  0  0  0  0  0
    8.7666   -3.1427   -0.0000 C   0  0  0  0  0  0  0  0  0  0  0  0
    8.7429   -0.5317   -0.0000 C   0  0  0  0  0  0  0  0  0  0  0  0
   10.2552   -3.1309   -0.0000 C   0  0  0  0  0  0  0  0  0  0  0  0
   10.2316   -0.5199   -0.0000 N   0  0  0  0  0  0  0  0  0  0  0  0
   10.9878   -1.8195   -0.0000 C   0  0  0  0  0  0  0  0  0  0  0  0
  1  2  1  0  0  0  0
  1  3  1  0  0  0  0
  2  4  2  0  0  0  0
  2  5  1  0  0  0  0
  3  6  2  0  0  0  0
  5  7  1  0  0  0  0
  5  8  1  0  0  0  0
  6  9  1  0  0  0  0
  7 10  1  0  0  0  0
  8 11  1  0  0  0  0
  9 12  1  0  0  0  0
  9 13  2  0  0  0  0
 10 14  1  0  0  0  0
 12 15  1  0  0  0  0
 13 16  1  0  0  0  0
 14 17  1  0  0  0  0
 15 18  1  0  0  0  0
 16 19  1  0  0  0  0
 17 20  1  0  0  0  0
 18 21  2  0  0  0  0
 19 22  2  0  0  0  0
 20 23  2  0  0  0  0
 20 24  1  0  0  0  0
 23 25  1  0  0  0  0
 24 26  1  0  0  0  0
 25 27  1  0  0  0  0
 26 28  1  0  0  0  0
 27 29  2  0  0  0  0
 28 30  2  0  0  0  0
  4  6  1  0  0  0  0
 11 14  1  0  0  0  0
 15 16  2  0  0  0  0
 21 22  1  0  0  0  0
 25 26  2  0  0  0  0
 29 30  1  0  0  0  0
M  END
>  <MolRegNo>
2730690

>  <m>
=

>  <Value>
860

>  <Unit>
nM

>  <Type>
IC50

>  <pValue>
6.07

>  <Ligand Efficiency>
0

>  <Binding Efficiency>
0

>  <Surface Efficiency>
0

>  <Assay Index>
1519161

>  <Assay Category>


>  <Assay Organism>
Homo sapiens

>  <Target ID>
17045

>  <Target Name>
Cytochrome P450 3A4

>  <Target Organism>
Homo sapiens

>  <Target Description>
Target is a single protein chain

>  <Sequence Accession>
P08684

>  <Reference>
ACS Med Chem Lett 13 (3.0), 348-357 (2022)

>  <Pubmed ID>
35300083

>  <DOI>
10.1021/acsmedchemlett.1c00666

$$$$
2724361
Actelion Java MolfileCreator 1.0

 28 32  0  0  0  0  0  0  0  0999 V2000
    0.0000   -0.0000   -0.0000 F   0  0  0  0  0  0  0  0  0  0  0  0
   -1.3143    0.7578   -0.0000 C   0  0  0  0  0  0  0  0  0  0  0  0
   -1.3262    2.2734   -0.0000 C   0  0  0  0  0  0  0  0  0  0  0  0
   -2.6168    0.0237   -0.0000 C   0  0  0  0  0  0  0  0  0  0  0  0
   -0.0355    3.0312   -0.0000 C   0  0  0  0  0  0  0  0  0  0  0  0
   -2.6405    3.0431   -0.0000 C   0  0  0  0  0  0  0  0  0  0  0  0
   -3.9311    0.7815   -0.0000 N   0  0  0  0  0  0  0  0  0  0  0  0
   -2.6286   -1.4683   -0.0000 C   0  0  0  0  0  0  0  0  0  0  0  0
   -0.0474    4.5469   -0.0000 C   0  0  0  0  0  0  0  0  0  0  0  0
    1.2551    2.2971   -0.0000 C   0  0  0  0  0  0  0  0  0  0  0  0
   -3.9430    2.2971   -0.0000 C   0  0  0  0  0  0  0  0  0  0  0  0
    1.2433    5.3047   -0.0000 C   0  0  0  0  0  0  0  0  0  0  0  0
   -1.3617    5.3047   -0.0000 C   0  0  0  0  0  0  0  0  0  0  0  0
    2.5339    3.0549   -0.0000 C   0  0  0  0  0  0  0  0  0  0  0  0
    2.5221    4.5705   -0.0000 C   0  0  0  0  0  0  0  0  0  0  0  0
   -2.1195    6.6190   -0.0000 C   0  0  0  0  0  0  0  0  0  0  0  0
   -2.8773    5.3165   -0.0000 C   0  0  0  0  0  0  0  0  0  0  0  0
    3.9430    2.6050   -0.0000 N   0  0  0  0  0  0  0  0  0  0  0  0
    3.9311    5.0442   -0.0000 C   0  0  0  0  0  0  0  0  0  0  0  0
    4.8073    3.8246   -0.0000 N   0  0  0  0  0  0  0  0  0  0  0  0
    4.3100    6.5006   -0.0000 N   0  0  0  0  0  0  0  0  0  0  0  0
    5.7428    6.9032   -0.0000 C   0  0  0  0  0  0  0  0  0  0  0  0
    6.1217    8.3596   -0.0000 C   0  0  0  0  0  0  0  0  0  0  0  0
    6.7848    5.8612   -0.0000 C   0  0  0  0  0  0  0  0  0  0  0  0
    5.0560    9.4252   -0.0000 F   0  0  0  0  0  0  0  0  0  0  0  0
    7.5544    8.7622   -0.0000 C   0  0  0  0  0  0  0  0  0  0  0  0
    8.2175    6.2638   -0.0000 C   0  0  0  0  0  0  0  0  0  0  0  0
    8.5964    7.7202   -0.0000 N   0  0  0  0  0  0  0  0  0  0  0  0
  1  2  1  0  0  0  0
  2  3  2  0  0  0  0
  2  4  1  0  0  0  0
  3  5  1  0  0  0  0
  3  6  1  0  0  0  0
  4  7  2  0  0  0  0
  4  8  1  0  0  0  0
  5  9  2  0  0  0  0
  5 10  1  0  0  0  0
  6 11  2  0  0  0  0
  9 12  1  0  0  0  0
  9 13  1  0  0  0  0
 10 14  2  0  0  0  0
 12 15  2  0  0  0  0
 13 16  1  0  0  0  0
 13 17  1  0  0  0  0
 14 18  1  0  0  0  0
 15 19  1  0  0  0  0
 18 20  1  0  0  0  0
 19 21  1  0  0  0  0
 22 21  1  6  0  0  0
 22 23  1  0  0  0  0
 22 24  1  0  0  0  0
 23 25  1  1  0  0  0
 23 26  1  0  0  0  0
 24 27  1  0  0  0  0
 26 28  1  0  0  0  0
  7 11  1  0  0  0  0
 14 15  1  0  0  0  0
 16 17  1  0  0  0  0
 19 20  2  0  0  0  0
 27 28  1  0  0  0  0
M  END
>  <MolRegNo>
2724361

>  <m>
=

>  <Value>
4500

>  <Unit>
nM

>  <Type>
IC50

>  <pValue>
5.35

>  <Ligand Efficiency>
0

>  <Binding Efficiency>
0

>  <Surface Efficiency>
0

>  <Assay Index>
1519599

>  <Assay Category>


>  <Assay Organism>
Homo sapiens

>  <Target ID>
17045

>  <Target Name>
Cytochrome P450 3A4

>  <Target Organism>
Homo sapiens

>  <Target Description>
Target is a single protein chain

>  <Sequence Accession>
P08684

>  <Reference>
ACS Med Chem Lett 13 (4.0), 658-664 (2022)

>  <Pubmed ID>
35450354

>  <DOI>
10.1021/acsmedchemlett.1c00696

$$$$
2723599
Actelion Java MolfileCreator 1.0

 35 40  0  0  0  0  0  0  0  0999 V2000
    0.0000   -0.0000   -0.0000 O   0  0  0  0  0  0  0  0  0  0  0  0
    1.4441   -0.3788   -0.0000 C   0  0  0  0  0  0  0  0  0  0  0  0
    1.8229   -1.8229   -0.0000 N   0  0  0  0  0  0  0  0  0  0  0  0
    2.4976    0.6984   -0.0000 C   0  0  0  0  0  0  0  0  0  0  0  0
    0.6392   -2.7344   -0.0000 C   0  0  0  0  0  0  0  0  0  0  0  0
    3.2789   -2.1425   -0.0000 C   0  0  0  0  0  0  0  0  0  0  0  0
    3.9418    0.3196   -0.0000 O   0  0  0  0  0  0  0  0  0  0  0  0
    2.0952    2.1662   -0.0000 C   0  0  0  0  0  0  0  0  0  0  0  0
    0.6274   -4.2259   -0.0000 C   0  0  0  0  0  0  0  0  0  0  0  0
   -0.6747   -1.9768   -0.0000 C   0  0  0  0  0  0  0  0  0  0  0  0
    3.9181   -3.4801   -0.0000 C   0  0  0  0  0  0  0  0  0  0  0  0
    4.9953    1.3968   -0.0000 C   0  0  0  0  0  0  0  0  0  0  0  0
    3.1487    3.2434   -0.0000 C   0  0  0  0  0  0  0  0  0  0  0  0
    1.7874   -5.1492   -0.0000 N   0  0  0  0  0  0  0  0  0  0  0  0
   -0.6747   -4.9598   -0.0000 C   0  0  0  0  0  0  0  0  0  0  0  0
   -1.9886   -2.7107   -0.0000 C   0  0  0  0  0  0  0  0  0  0  0  0
    3.2552   -4.8059   -0.0000 C   0  0  0  0  0  0  0  0  0  0  0  0
    5.3859   -3.3736   -0.0000 C   0  0  0  0  0  0  0  0  0  0  0  0
    4.5928    2.8646   -0.0000 C   0  0  0  0  0  0  0  0  0  0  0  0
   -1.9886   -4.2022   -0.0000 C   0  0  0  0  0  0  0  0  0  0  0  0
   -3.3026   -1.9413   -0.0000 N   0  0  0  0  0  0  0  0  0  0  0  0
    4.0720   -6.0370   -0.0000 N   0  0  0  0  0  0  0  0  0  0  0  0
    6.2027   -4.5928   -0.0000 C   0  0  0  0  0  0  0  0  0  0  0  0
    5.6463    3.9418   -0.0000 O   0  0  0  0  0  0  0  0  0  0  0  0
   -3.3144   -0.4261   -0.0000 C   0  0  0  0  0  0  0  0  0  0  0  0
   -4.6165   -2.6752   -0.0000 C   0  0  0  0  0  0  0  0  0  0  0  0
    5.5398   -5.9186   -0.0000 C   0  0  0  0  0  0  0  0  0  0  0  0
    7.0905    3.5630   -0.0000 C   0  0  0  0  0  0  0  0  0  0  0  0
   -4.6283    0.3314   -0.0000 C   0  0  0  0  0  0  0  0  0  0  0  0
   -4.3087   -1.7164   -0.0000 C   0  0  0  0  0  0  0  0  0  0  0  0
   -5.9304   -1.9058   -0.0000 C   0  0  0  0  0  0  0  0  0  0  0  0
    8.1440    4.6402   -0.0000 C   0  0  0  0  0  0  0  0  0  0  0  0
    7.4693    2.1189   -0.0000 C   0  0  0  0  0  0  0  0  0  0  0  0
   -5.9423   -0.4025   -0.0000 O   0  0  0  0  0  0  0  0  0  0  0  0
   -5.1965   -0.6037   -0.0000 C   0  0  0  0  0  0  0  0  0  0  0  0
  1  2  2  0  0  0  0
  2  3  1  0  0  0  0
  4  2  1  6  0  0  0
  3  5  1  0  0  0  0
  3  6  1  0  0  0  0
  4  7  1  0  0  0  0
  4  8  1  0  0  0  0
  5  9  2  0  0  0  0
  5 10  1  0  0  0  0
  6 11  1  0  0  0  0
  7 12  1  0  0  0  0
  8 13  1  0  0  0  0
  9 14  1  0  0  0  0
  9 15  1  0  0  0  0
 10 16  2  0  0  0  0
 11 17  2  0  0  0  0
 11 18  1  0  0  0  0
 12 19  1  0  0  0  0
 15 20  2  0  0  0  0
 16 21  1  0  0  0  0
 17 22  1  0  0  0  0
 18 23  2  0  0  0  0
 19 24  1  1  0  0  0
 21 25  1  0  0  0  0
 21 26  1  0  0  0  0
 22 27  2  0  0  0  0
 24 28  1  0  0  0  0
 25 29  1  0  0  0  0
 25 30  1  0  0  0  0
 26 31  1  0  0  0  0
 28 32  1  0  0  0  0
 28 33  1  0  0  0  0
 29 34  1  0  0  0  0
 30 35  1  0  0  0  0
 13 19  1  0  0  0  0
 14 17  1  0  0  0  0
 16 20  1  0  0  0  0
 23 27  1  0  0  0  0
 31 34  1  0  0  0  0
 31 35  1  0  0  0  0
M  END
>  <MolRegNo>
2723599

>  <m>
=

>  <Value>
1

>  <Unit>
nM

>  <Type>
IC50

>  <pValue>
9

>  <Ligand Efficiency>
0

>  <Binding Efficiency>
0

>  <Surface Efficiency>
0

>  <Assay Index>
1519657

>  <Assay Category>


>  <Assay Organism>
Homo sapiens

>  <Target ID>
17045

>  <Target Name>
Cytochrome P450 3A4

>  <Target Organism>
Homo sapiens

>  <Target Description>
Target is a single protein chain

>  <Sequence Accession>
P08684

>  <Reference>
ACS Med Chem Lett 13 (4.0), 734-741 (2022)

>  <Pubmed ID>
35450359

>  <DOI>
10.1021/acsmedchemlett.2c00089

$$$$
2715344
Actelion Java MolfileCreator 1.0

 33 37  0  0  0  0  0  0  0  0999 V2000
    0.0000   -0.0000   -0.0000 Cl  0  0  0  0  0  0  0  0  0  0  0  0
   -0.0119   -1.4913   -0.0000 C   0  0  0  0  0  0  0  0  0  0  0  0
    1.2885   -2.2310   -0.0000 C   0  0  0  0  0  0  0  0  0  0  0  0
   -1.3243   -2.2310   -0.0000 C   0  0  0  0  0  0  0  0  0  0  0  0
    1.2766   -3.7342   -0.0000 C   0  0  0  0  0  0  0  0  0  0  0  0
   -1.3362   -3.7223   -0.0000 C   0  0  0  0  0  0  0  0  0  0  0  0
   -0.0477   -4.4739   -0.0000 C   0  0  0  0  0  0  0  0  0  0  0  0
    2.5650   -4.4739   -0.0000 C   0  0  0  0  0  0  0  0  0  0  0  0
    2.5531   -5.9652   -0.0000 N   0  0  0  0  0  0  0  0  0  0  0  0
    3.8535   -3.7104   -0.0000 C   0  0  0  0  0  0  0  0  0  0  0  0
    1.3243   -6.8361   -0.0000 C   0  0  0  0  0  0  0  0  0  0  0  0
    3.7581   -6.8361   -0.0000 C   0  0  0  0  0  0  0  0  0  0  0  0
    3.8416   -2.1952   -0.0000 O   0  0  0  0  0  0  0  0  0  0  0  0
   -0.1432   -6.4305   -0.0000 O   0  0  0  0  0  0  0  0  0  0  0  0
    1.7776   -8.2559   -0.0000 N   0  0  0  0  0  0  0  0  0  0  0  0
    3.2809   -8.2559   -0.0000 C   0  0  0  0  0  0  0  0  0  0  0  0
    1.3004   -9.6756   -0.0000 C   0  0  0  0  0  0  0  0  0  0  0  0
    3.7342   -9.6756   -0.0000 C   0  0  0  0  0  0  0  0  0  0  0  0
    2.5054  -10.5465   -0.0000 C   0  0  0  0  0  0  0  0  0  0  0  0
    2.4935  -12.0378   -0.0000 C   0  0  0  0  0  0  0  0  0  0  0  0
    3.7819  -12.7775   -0.0000 N   0  0  0  0  0  0  0  0  0  0  0  0
    1.1692  -12.7775   -0.0000 C   0  0  0  0  0  0  0  0  0  0  0  0
    3.7700  -14.2688   -0.0000 C   0  0  0  0  0  0  0  0  0  0  0  0
    1.1573  -14.2807   -0.0000 C   0  0  0  0  0  0  0  0  0  0  0  0
   -0.1432  -12.0139   -0.0000 C   0  0  0  0  0  0  0  0  0  0  0  0
    2.4577  -15.0085   -0.0000 N   0  0  0  0  0  0  0  0  0  0  0  0
    5.0704  -15.0085   -0.0000 N   0  0  0  0  0  0  0  0  0  0  0  0
    6.3708  -14.2449   -0.0000 C   0  0  0  0  0  0  0  0  0  0  0  0
    7.7309  -14.8415   -0.0000 N   0  0  0  0  0  0  0  0  0  0  0  0
    6.5140  -12.7298   -0.0000 C   0  0  0  0  0  0  0  0  0  0  0  0
    8.7331  -13.7081   -0.0000 N   0  0  0  0  0  0  0  0  0  0  0  0
    8.1127  -16.2850   -0.0000 C   0  0  0  0  0  0  0  0  0  0  0  0
    7.9815  -12.4076   -0.0000 C   0  0  0  0  0  0  0  0  0  0  0  0
  1  2  1  0  0  0  0
  2  3  2  0  0  0  0
  2  4  1  0  0  0  0
  3  5  1  0  0  0  0
  4  6  2  0  0  0  0
  5  7  2  0  0  0  0
  5  8  1  0  0  0  0
  8  9  1  6  0  0  0
  8 10  1  0  0  0  0
  9 11  1  0  0  0  0
  9 12  1  0  0  0  0
 10 13  1  0  0  0  0
 11 14  2  0  0  0  0
 11 15  1  0  0  0  0
 12 16  1  0  0  0  0
 15 17  1  0  0  0  0
 16 18  2  0  0  0  0
 17 19  2  0  0  0  0
 19 20  1  0  0  0  0
 20 21  2  0  0  0  0
 20 22  1  0  0  0  0
 21 23  1  0  0  0  0
 22 24  2  0  0  0  0
 22 25  1  0  0  0  0
 23 26  2  0  0  0  0
 23 27  1  0  0  0  0
 27 28  1  0  0  0  0
 28 29  1  0  0  0  0
 28 30  2  0  0  0  0
 29 31  1  0  0  0  0
 29 32  1  0  0  0  0
 30 33  1  0  0  0  0
  6  7  1  0  0  0  0
 15 16  1  0  0  0  0
 18 19  1  0  0  0  0
 24 26  1  0  0  0  0
 31 33  2  0  0  0  0
M  END
>  <MolRegNo>
2715344

>  <m>
=

>  <Value>
11500

>  <Unit>
nM

>  <Type>
IC50

>  <pValue>
4.94

>  <Ligand Efficiency>
0

>  <Binding Efficiency>
0

>  <Surface Efficiency>
0

>  <Assay Index>
1519749

>  <Assay Category>


>  <Assay Organism>
Homo sapiens

>  <Target ID>
17045

>  <Target Name>
Cytochrome P450 3A4

>  <Target Organism>
Homo sapiens

>  <Target Description>
Target is a single protein chain

>  <Sequence Accession>
P08684

>  <Reference>
ACS Med Chem Lett 13 (4.0), 701-706 (2022)

>  <Pubmed ID>
35450372

>  <DOI>
10.1021/acsmedchemlett.2c00029

$$$$
2734122
Actelion Java MolfileCreator 1.0

 36 39  0  0  0  0  0  0  0  0999 V2000
    0.0000   -0.0000   -0.0000 S   0  0  0  0  0  0  0  0  0  0  0  0
   -1.2790   -0.7934   -0.0000 C   0  0  0  0  0  0  0  0  0  0  0  0
    1.1724   -0.9356   -0.0000 C   0  0  0  0  0  0  0  0  0  0  0  0
   -0.9000   -2.2382   -0.0000 N   0  0  0  0  0  0  0  0  0  0  0  0
   -2.5935   -0.0237   -0.0000 C   0  0  0  0  0  0  0  0  0  0  0  0
    0.6395   -2.2382   -0.0000 N   0  0  0  0  0  0  0  0  0  0  0  0
    2.6172   -0.5329   -0.0000 C   0  0  0  0  0  0  0  0  0  0  0  0
   -3.9080   -0.7698   -0.0000 N   0  0  0  0  0  0  0  0  0  0  0  0
   -2.6054    1.4922   -0.0000 C   0  0  0  0  0  0  0  0  0  0  0  0
    2.9962    0.9356   -0.0000 O   0  0  0  0  0  0  0  0  0  0  0  0
    3.6712   -1.5869   -0.0000 N   0  0  0  0  0  0  0  0  0  0  0  0
   -5.2107   -0.0000   -0.0000 C   0  0  0  0  0  0  0  0  0  0  0  0
   -3.9199    2.2501   -0.0000 C   0  0  0  0  0  0  0  0  0  0  0  0
    5.1160   -1.1843   -0.0000 C   0  0  0  0  0  0  0  0  0  0  0  0
   -5.2226    1.5040   -0.0000 C   0  0  0  0  0  0  0  0  0  0  0  0
    5.7910    0.1540   -0.0000 C   0  0  0  0  0  0  0  0  0  0  0  0
    6.1700   -2.2382   -0.0000 C   0  0  0  0  0  0  0  0  0  0  0  0
    7.2713   -0.0592   -0.0000 N   0  0  0  0  0  0  0  0  0  0  0  0
    5.0331    1.4685   -0.0000 C   0  0  0  0  0  0  0  0  0  0  0  0
    7.5200   -1.5158   -0.0000 N   0  0  0  0  0  0  0  0  0  0  0  0
    8.8108   -2.2501   -0.0000 C   0  0  0  0  0  0  0  0  0  0  0  0
   10.1017   -1.4803   -0.0000 C   0  0  0  0  0  0  0  0  0  0  0  0
    8.7990   -3.7422   -0.0000 C   0  0  0  0  0  0  0  0  0  0  0  0
   11.3925   -2.2264   -0.0000 C   0  0  0  0  0  0  0  0  0  0  0  0
   10.0898    0.0355   -0.0000 C   0  0  0  0  0  0  0  0  0  0  0  0
   12.6715   -1.4566   -0.0000 C   0  0  0  0  0  0  0  0  0  0  0  0
   11.3807   -3.7186   -0.0000 C   0  0  0  0  0  0  0  0  0  0  0  0
   11.3807    0.7934   -0.0000 C   0  0  0  0  0  0  0  0  0  0  0  0
   12.6597    0.0474   -0.0000 C   0  0  0  0  0  0  0  0  0  0  0  0
   12.6715   -4.4528   -0.0000 F   0  0  0  0  0  0  0  0  0  0  0  0
   10.9780   -5.1633   -0.0000 F   0  0  0  0  0  0  0  0  0  0  0  0
    9.9122   -4.0975   -0.0000 F   0  0  0  0  0  0  0  0  0  0  0  0
   13.9505    0.8053   -0.0000 C   0  0  0  0  0  0  0  0  0  0  0  0
   13.9387    2.3211   -0.0000 F   0  0  0  0  0  0  0  0  0  0  0  0
   15.2413    0.0711   -0.0000 F   0  0  0  0  0  0  0  0  0  0  0  0
   15.2413    1.5632   -0.0000 F   0  0  0  0  0  0  0  0  0  0  0  0
  1  2  1  0  0  0  0
  1  3  1  0  0  0  0
  2  4  2  0  0  0  0
  2  5  1  0  0  0  0
  3  6  2  0  0  0  0
  3  7  1  0  0  0  0
  5  8  2  0  0  0  0
  5  9  1  0  0  0  0
  7 10  2  0  0  0  0
  7 11  1  0  0  0  0
  8 12  1  0  0  0  0
  9 13  2  0  0  0  0
 11 14  1  0  0  0  0
 12 15  2  0  0  0  0
 14 16  1  0  0  0  0
 14 17  2  0  0  0  0
 16 18  2  0  0  0  0
 16 19  1  0  0  0  0
 17 20  1  0  0  0  0
 20 21  1  0  0  0  0
 21 22  1  0  0  0  0
 21 23  1  0  0  0  0
 22 24  2  0  0  0  0
 22 25  1  0  0  0  0
 24 26  1  0  0  0  0
 24 27  1  0  0  0  0
 25 28  2  0  0  0  0
 26 29  2  0  0  0  0
 27 30  1  0  0  0  0
 27 31  1  0  0  0  0
 27 32  1  0  0  0  0
 29 33  1  0  0  0  0
 33 34  1  0  0  0  0
 33 35  1  0  0  0  0
 33 36  1  0  0  0  0
  4  6  1  0  0  0  0
 13 15  1  0  0  0  0
 18 20  1  0  0  0  0
 28 29  1  0  0  0  0
M  END
>  <MolRegNo>
2734122

>  <m>
=

>  <Value>
2400

>  <Unit>
nM

>  <Type>
IC50

>  <pValue>
5.62

>  <Ligand Efficiency>
0

>  <Binding Efficiency>
0

>  <Surface Efficiency>
0

>  <Assay Index>
1519868

>  <Assay Category>


>  <Assay Organism>
Homo sapiens

>  <Target ID>
17045

>  <Target Name>
Cytochrome P450 3A4

>  <Target Organism>
Homo sapiens

>  <Target Description>
Target is a single protein chain

>  <Sequence Accession>
P08684

>  <Reference>


>  <Pubmed ID>


>  <DOI>


$$$$
2730699
Actelion Java MolfileCreator 1.0

 36 39  0  0  0  0  0  0  0  0999 V2000
    0.0000   -0.0000   -0.0000 F   0  0  0  0  0  0  0  0  0  0  0  0
   -1.5081    0.0120   -0.0000 C   0  0  0  0  0  0  0  0  0  0  0  0
   -0.7780   -1.2687   -0.0000 F   0  0  0  0  0  0  0  0  0  0  0  0
   -2.8128   -0.7182   -0.0000 F   0  0  0  0  0  0  0  0  0  0  0  0
   -1.5201    1.5201   -0.0000 C   0  0  0  0  0  0  0  0  0  0  0  0
   -2.8247    2.2742   -0.0000 C   0  0  0  0  0  0  0  0  0  0  0  0
   -0.2394    2.2742   -0.0000 C   0  0  0  0  0  0  0  0  0  0  0  0
   -2.8367    3.7823   -0.0000 C   0  0  0  0  0  0  0  0  0  0  0  0
   -4.1294    1.5440   -0.0000 C   0  0  0  0  0  0  0  0  0  0  0  0
   -0.2514    3.7823   -0.0000 C   0  0  0  0  0  0  0  0  0  0  0  0
   -1.5560    4.5363   -0.0000 C   0  0  0  0  0  0  0  0  0  0  0  0
   -5.4340    2.2981   -0.0000 N   0  0  0  0  0  0  0  0  0  0  0  0
   -4.1413    0.0598   -0.0000 C   0  0  0  0  0  0  0  0  0  0  0  0
    1.0294    4.5363   -0.0000 C   0  0  0  0  0  0  0  0  0  0  0  0
   -5.6854    3.7464   -0.0000 N   0  0  0  0  0  0  0  0  0  0  0  0
   -6.7985    1.6039   -0.0000 C   0  0  0  0  0  0  0  0  0  0  0  0
    0.2753    5.8410   -0.0000 F   0  0  0  0  0  0  0  0  0  0  0  0
    2.0707    5.6016   -0.0000 F   0  0  0  0  0  0  0  0  0  0  0  0
    2.3101    3.8062   -0.0000 F   0  0  0  0  0  0  0  0  0  0  0  0
   -7.1815    3.9857   -0.0000 C   0  0  0  0  0  0  0  0  0  0  0  0
   -7.8638    2.6691   -0.0000 C   0  0  0  0  0  0  0  0  0  0  0  0
   -9.3120    2.2981   -0.0000 N   0  0  0  0  0  0  0  0  0  0  0  0
  -10.3773    3.3633   -0.0000 C   0  0  0  0  0  0  0  0  0  0  0  0
  -10.0063    4.8116   -0.0000 O   0  0  0  0  0  0  0  0  0  0  0  0
  -11.8256    2.9923   -0.0000 C   0  0  0  0  0  0  0  0  0  0  0  0
  -12.3522    1.6398   -0.0000 N   0  0  0  0  0  0  0  0  0  0  0  0
  -13.0105    3.9379   -0.0000 C   0  0  0  0  0  0  0  0  0  0  0  0
  -13.8843    1.6518   -0.0000 O   0  0  0  0  0  0  0  0  0  0  0  0
  -14.2793    3.1599   -0.0000 C   0  0  0  0  0  0  0  0  0  0  0  0
  -13.0225    5.4460   -0.0000 C   0  0  0  0  0  0  0  0  0  0  0  0
  -15.5839    3.9139   -0.0000 C   0  0  0  0  0  0  0  0  0  0  0  0
  -15.5959    5.4221   -0.0000 N   0  0  0  0  0  0  0  0  0  0  0  0
  -16.8886    3.1838   -0.0000 C   0  0  0  0  0  0  0  0  0  0  0  0
  -16.8886    6.1761   -0.0000 C   0  0  0  0  0  0  0  0  0  0  0  0
  -18.1932    3.9379   -0.0000 C   0  0  0  0  0  0  0  0  0  0  0  0
  -18.1932    5.4460   -0.0000 C   0  0  0  0  0  0  0  0  0  0  0  0
  1  2  1  0  0  0  0
  2  3  1  0  0  0  0
  2  4  1  0  0  0  0
  2  5  1  0  0  0  0
  5  6  2  0  0  0  0
  5  7  1  0  0  0  0
  6  8  1  0  0  0  0
  6  9  1  0  0  0  0
  7 10  2  0  0  0  0
  8 11  2  0  0  0  0
  9 12  1  6  0  0  0
  9 13  1  0  0  0  0
 10 14  1  0  0  0  0
 12 15  1  0  0  0  0
 12 16  1  0  0  0  0
 14 17  1  0  0  0  0
 14 18  1  0  0  0  0
 14 19  1  0  0  0  0
 15 20  2  0  0  0  0
 16 21  2  0  0  0  0
 21 22  1  0  0  0  0
 22 23  1  0  0  0  0
 23 24  2  0  0  0  0
 23 25  1  0  0  0  0
 25 26  2  0  0  0  0
 25 27  1  0  0  0  0
 26 28  1  0  0  0  0
 27 29  2  0  0  0  0
 27 30  1  0  0  0  0
 29 31  1  0  0  0  0
 31 32  2  0  0  0  0
 31 33  1  0  0  0  0
 32 34  1  0  0  0  0
 33 35  2  0  0  0  0
 34 36  2  0  0  0  0
 10 11  1  0  0  0  0
 20 21  1  0  0  0  0
 28 29  1  0  0  0  0
 35 36  1  0  0  0  0
M  END
>  <MolRegNo>
2730699

>  <m>
=

>  <Value>
15830

>  <Unit>
nM

>  <Type>
IC50

>  <pValue>
4.8

>  <Ligand Efficiency>
0

>  <Binding Efficiency>
0

>  <Surface Efficiency>
0

>  <Assay Index>
1519868

>  <Assay Category>


>  <Assay Organism>
Homo sapiens

>  <Target ID>
17045

>  <Target Name>
Cytochrome P450 3A4

>  <Target Organism>
Homo sapiens

>  <Target Description>
Target is a single protein chain

>  <Sequence Accession>
P08684

>  <Reference>


>  <Pubmed ID>


>  <DOI>


$$$$
2729513
Actelion Java MolfileCreator 1.0

 26 29  0  0  0  0  0  0  0  0999 V2000
    0.0000   -0.0000   -0.0000 O   0  0  0  0  0  0  0  0  0  0  0  0
   -1.0680   -1.0446   -0.0000 C   0  0  0  0  0  0  0  0  0  0  0  0
   -0.3990    1.4553   -0.0000 C   0  0  0  0  0  0  0  0  0  0  0  0
   -2.5234   -0.6455   -0.0000 C   0  0  0  0  0  0  0  0  0  0  0  0
   -1.8544    1.8544   -0.0000 C   0  0  0  0  0  0  0  0  0  0  0  0
   -2.9224    0.8098   -0.0000 N   0  0  0  0  0  0  0  0  0  0  0  0
   -4.3778    1.2089   -0.0000 C   0  0  0  0  0  0  0  0  0  0  0  0
   -5.4341    0.1643   -0.0000 N   0  0  0  0  0  0  0  0  0  0  0  0
   -4.7768    2.6525   -0.0000 N   0  0  0  0  0  0  0  0  0  0  0  0
   -6.8894    0.5634   -0.0000 C   0  0  0  0  0  0  0  0  0  0  0  0
   -6.2322    3.0515   -0.0000 C   0  0  0  0  0  0  0  0  0  0  0  0
   -7.9575   -0.4812   -0.0000 N   0  0  0  0  0  0  0  0  0  0  0  0
   -7.2885    2.0187   -0.0000 C   0  0  0  0  0  0  0  0  0  0  0  0
   -9.4128   -0.0822   -0.0000 C   0  0  0  0  0  0  0  0  0  0  0  0
   -9.8823    1.3497   -0.0000 O   0  0  0  0  0  0  0  0  0  0  0  0
  -10.6334   -0.9507   -0.0000 C   0  0  0  0  0  0  0  0  0  0  0  0
  -11.3846    1.3615   -0.0000 N   0  0  0  0  0  0  0  0  0  0  0  0
  -11.8540   -0.0587   -0.0000 C   0  0  0  0  0  0  0  0  0  0  0  0
  -13.3094   -0.4343   -0.0000 C   0  0  0  0  0  0  0  0  0  0  0  0
  -13.7084   -1.8661   -0.0000 C   0  0  0  0  0  0  0  0  0  0  0  0
  -14.3774    0.6338   -0.0000 C   0  0  0  0  0  0  0  0  0  0  0  0
  -15.1520   -2.2417   -0.0000 C   0  0  0  0  0  0  0  0  0  0  0  0
  -15.8210    0.2465   -0.0000 C   0  0  0  0  0  0  0  0  0  0  0  0
  -16.2201   -1.1737   -0.0000 C   0  0  0  0  0  0  0  0  0  0  0  0
  -17.6754   -1.5492   -0.0000 O   0  0  0  0  0  0  0  0  0  0  0  0
  -18.0744   -2.9811   -0.0000 C   0  0  0  0  0  0  0  0  0  0  0  0
  1  2  1  0  0  0  0
  1  3  1  0  0  0  0
  2  4  1  0  0  0  0
  3  5  1  0  0  0  0
  4  6  1  0  0  0  0
  6  7  1  0  0  0  0
  7  8  2  0  0  0  0
  7  9  1  0  0  0  0
  8 10  1  0  0  0  0
  9 11  2  0  0  0  0
 10 12  1  0  0  0  0
 10 13  2  0  0  0  0
 12 14  1  0  0  0  0
 14 15  1  0  0  0  0
 14 16  2  0  0  0  0
 15 17  1  0  0  0  0
 16 18  1  0  0  0  0
 18 19  1  0  0  0  0
 19 20  2  0  0  0  0
 19 21  1  0  0  0  0
 20 22  1  0  0  0  0
 21 23  2  0  0  0  0
 22 24  2  0  0  0  0
 24 25  1  0  0  0  0
 25 26  1  0  0  0  0
  5  6  1  0  0  0  0
 11 13  1  0  0  0  0
 17 18  2  0  0  0  0
 23 24  1  0  0  0  0
M  END
>  <MolRegNo>
2729513

>  <m>
=

>  <Value>
8590

>  <Unit>
nM

>  <Type>
IC50

>  <pValue>
5.07

>  <Ligand Efficiency>
0

>  <Binding Efficiency>
0

>  <Surface Efficiency>
0

>  <Assay Index>
1520072

>  <Assay Category>


>  <Assay Organism>
Homo sapiens

>  <Target ID>
17045

>  <Target Name>
Cytochrome P450 3A4

>  <Target Organism>
Homo sapiens

>  <Target Description>
Target is a single protein chain

>  <Sequence Accession>
P08684

>  <Reference>


>  <Pubmed ID>


>  <DOI>


$$$$
2003375
Actelion Java MolfileCreator 1.0

 34 36  0  0  1  0  0  0  0  0999 V2000
    0.0000   -0.0000   -0.0000 Cl  0  0  0  0  0  0  0  0  0  0  0  0
    1.1116    0.6316   -0.0000 C   0  0  0  0  0  0  0  0  0  0  0  0
    1.1368    2.2484   -0.0000 C   0  0  0  0  0  0  0  0  0  0  0  0
    2.4631   -0.1895   -0.0000 C   0  0  0  0  0  0  0  0  0  0  0  0
    2.5263    3.0315   -0.0000 N   0  0  0  0  0  0  0  0  0  0  0  0
   -0.2400    3.0947   -0.0000 C   0  0  0  0  0  0  0  0  0  0  0  0
    3.8526    0.5937   -0.0000 C   0  0  0  0  0  0  0  0  0  0  0  0
    3.8778    2.2105   -0.0000 C   0  0  0  0  0  0  0  0  0  0  0  0
   -1.3768    2.4884   -0.0000 O   0  0  0  0  0  0  0  0  0  0  0  0
   -0.2147    4.7115   -0.0000 N   0  0  0  0  0  0  0  0  0  0  0  0
    5.2167   -0.2274   -0.0000 C   0  0  0  0  0  0  0  0  0  0  0  0
   -1.5915    5.5578   -0.0000 C   0  0  0  0  0  0  0  0  0  0  0  0
    6.3283    0.4042   -0.0000 F   0  0  0  0  0  0  0  0  0  0  0  0
    5.1788   -1.5031   -0.0000 F   0  0  0  0  0  0  0  0  0  0  0  0
    6.3030   -0.8842   -0.0000 F   0  0  0  0  0  0  0  0  0  0  0  0
   -1.5663    7.1746   -0.0000 N   0  0  0  0  0  0  0  0  0  0  0  0
   -3.0063    4.7999   -0.0000 C   0  0  0  0  0  0  0  0  0  0  0  0
   -2.9431    8.0209   -0.0000 C   0  0  0  0  0  0  0  0  0  0  0  0
   -4.3831    5.6462   -0.0000 C   0  0  0  0  0  0  0  0  0  0  0  0
   -4.3578    7.2630   -0.0000 C   0  0  0  0  0  0  0  0  0  0  0  0
   -2.9178    9.6124   -0.0000 C   0  0  0  0  0  0  0  0  0  0  0  0
   -5.4694    7.9451   -0.0000 F   0  0  0  0  0  0  0  0  0  0  0  0
   -4.3199    8.8293   -0.0000 N   0  0  0  0  0  0  0  0  0  0  0  0
   -2.9305   11.2293   -0.0000 C   0  0  0  0  0  0  0  0  0  0  0  0
   -1.8315   10.2945   -0.0000 C   0  0  0  0  0  0  0  0  0  0  0  0
   -5.7220    9.6377   -0.0000 C   0  0  0  0  0  0  0  0  0  0  0  0
   -4.3325   12.0377   -0.0000 O   0  0  0  0  0  0  0  0  0  0  0  0
   -6.8462    9.0061   -0.0000 N   0  0  0  0  0  0  0  0  0  0  0  0
   -5.7346   11.2545   -0.0000 C   0  0  0  0  0  0  0  0  0  0  0  0
   -7.0988   10.4461   -0.0000 C   0  0  0  0  0  0  0  0  0  0  0  0
   -5.7220   12.5556   -0.0000 C   0  0  0  0  0  0  0  0  0  0  0  0
   -7.1114    9.1704   -0.0000 F   0  0  0  0  0  0  0  0  0  0  0  0
   -8.2230    9.8146   -0.0000 F   0  0  0  0  0  0  0  0  0  0  0  0
   -8.2230   11.1029   -0.0000 F   0  0  0  0  0  0  0  0  0  0  0  0
  1  2  1  0  0  0  0
  2  3  2  0  0  0  0
  2  4  1  0  0  0  0
  3  5  1  0  0  0  0
  3  6  1  0  0  0  0
  4  7  2  0  0  0  0
  5  8  2  0  0  0  0
  6  9  2  0  0  0  0
  6 10  1  0  0  0  0
  7 11  1  0  0  0  0
 10 12  1  0  0  0  0
 11 13  1  0  0  0  0
 11 14  1  0  0  0  0
 11 15  1  0  0  0  0
 12 16  2  0  0  0  0
 12 17  1  0  0  0  0
 16 18  1  0  0  0  0
 17 19  2  0  0  0  0
 18 20  2  0  0  0  0
 18 21  1  0  0  0  0
 20 22  1  0  0  0  0
 21 23  1  0  0  0  0
 21 24  1  1  0  0  0
 21 25  1  0  0  0  0
 23 26  2  0  0  0  0
 24 27  1  0  0  0  0
 26 28  1  0  0  0  0
 29 26  1  1  0  0  0
 29 30  1  0  0  0  0
 29 31  1  0  0  0  0
 30 32  1  0  0  0  0
 30 33  1  0  0  0  0
 30 34  1  0  0  0  0
  7  8  1  0  0  0  0
 19 20  1  0  0  0  0
 27 29  1  0  0  0  0
M  END
>  <MolRegNo>
2003375

>  <m>
=

>  <Value>
10900

>  <Unit>
nM

>  <Type>
IC50

>  <pValue>
4.96

>  <Ligand Efficiency>
0

>  <Binding Efficiency>
0

>  <Surface Efficiency>
0

>  <Assay Index>
1522554

>  <Assay Category>


>  <Assay Organism>
Homo sapiens

>  <Target ID>
17045

>  <Target Name>
Cytochrome P450 3A4

>  <Target Organism>
Homo sapiens

>  <Target Description>
Target is a single protein chain

>  <Sequence Accession>
P08684

>  <Reference>
J Med Chem 64 (20.0), 15262-15279 (2021)

>  <Pubmed ID>
34648711

>  <DOI>
10.1021/acs.jmedchem.1c01300

$$$$
1986230
Actelion Java MolfileCreator 1.0

 30 32  0  0  1  0  0  0  0  0999 V2000
    0.0000   -0.0000   -0.0000 Br  0  0  0  0  0  0  0  0  0  0  0  0
   -1.0956    0.6723   -0.0000 C   0  0  0  0  0  0  0  0  0  0  0  0
   -1.0707    2.2659   -0.0000 C   0  0  0  0  0  0  0  0  0  0  0  0
   -2.4900   -0.0747   -0.0000 C   0  0  0  0  0  0  0  0  0  0  0  0
   -2.4278    3.1001   -0.0000 N   0  0  0  0  0  0  0  0  0  0  0  0
   -3.8471    0.7595   -0.0000 C   0  0  0  0  0  0  0  0  0  0  0  0
   -3.8222    2.3531   -0.0000 C   0  0  0  0  0  0  0  0  0  0  0  0
   -5.1792    3.1872   -0.0000 C   0  0  0  0  0  0  0  0  0  0  0  0
   -6.2998    2.5896   -0.0000 O   0  0  0  0  0  0  0  0  0  0  0  0
   -5.1543    4.7808   -0.0000 N   0  0  0  0  0  0  0  0  0  0  0  0
   -6.5114    5.6150   -0.0000 C   0  0  0  0  0  0  0  0  0  0  0  0
   -6.4865    7.2086   -0.0000 C   0  0  0  0  0  0  0  0  0  0  0  0
   -7.9058    4.8680   -0.0000 C   0  0  0  0  0  0  0  0  0  0  0  0
   -7.8436    8.0428   -0.0000 C   0  0  0  0  0  0  0  0  0  0  0  0
   -9.2629    5.7022   -0.0000 C   0  0  0  0  0  0  0  0  0  0  0  0
   -9.2380    7.2958   -0.0000 C   0  0  0  0  0  0  0  0  0  0  0  0
   -7.8187    9.6115   -0.0000 C   0  0  0  0  0  0  0  0  0  0  0  0
  -10.3336    7.9681   -0.0000 F   0  0  0  0  0  0  0  0  0  0  0  0
   -9.2006    8.8396   -0.0000 N   0  0  0  0  0  0  0  0  0  0  0  0
   -7.8311   11.2051   -0.0000 C   0  0  0  0  0  0  0  0  0  0  0  0
   -6.7480   10.2838   -0.0000 C   0  0  0  0  0  0  0  0  0  0  0  0
  -10.5826    9.6364   -0.0000 C   0  0  0  0  0  0  0  0  0  0  0  0
   -9.2131   12.0019   -0.0000 O   0  0  0  0  0  0  0  0  0  0  0  0
  -11.6907    9.0139   -0.0000 N   0  0  0  0  0  0  0  0  0  0  0  0
  -10.5950   11.2300   -0.0000 C   0  0  0  0  0  0  0  0  0  0  0  0
  -11.9397   10.4332   -0.0000 C   0  0  0  0  0  0  0  0  0  0  0  0
  -10.5826   12.5124   -0.0000 C   0  0  0  0  0  0  0  0  0  0  0  0
  -11.9521    9.1757   -0.0000 F   0  0  0  0  0  0  0  0  0  0  0  0
  -13.0477    9.8107   -0.0000 F   0  0  0  0  0  0  0  0  0  0  0  0
  -13.0477   11.0806   -0.0000 F   0  0  0  0  0  0  0  0  0  0  0  0
  1  2  1  0  0  0  0
  2  3  2  0  0  0  0
  2  4  1  0  0  0  0
  3  5  1  0  0  0  0
  4  6  2  0  0  0  0
  5  7  2  0  0  0  0
  7  8  1  0  0  0  0
  8  9  2  0  0  0  0
  8 10  1  0  0  0  0
 10 11  1  0  0  0  0
 11 12  2  0  0  0  0
 11 13  1  0  0  0  0
 12 14  1  0  0  0  0
 13 15  2  0  0  0  0
 14 16  2  0  0  0  0
 14 17  1  0  0  0  0
 16 18  1  0  0  0  0
 17 19  1  0  0  0  0
 17 20  1  1  0  0  0
 17 21  1  0  0  0  0
 19 22  2  0  0  0  0
 20 23  1  0  0  0  0
 22 24  1  0  0  0  0
 25 22  1  1  0  0  0
 25 26  1  0  0  0  0
 25 27  1  0  0  0  0
 26 28  1  0  0  0  0
 26 29  1  0  0  0  0
 26 30  1  0  0  0  0
  6  7  1  0  0  0  0
 15 16  1  0  0  0  0
 23 25  1  0  0  0  0
M  END
>  <MolRegNo>
1986230

>  <m>
=

>  <Value>
17000

>  <Unit>
nM

>  <Type>
IC50

>  <pValue>
4.77

>  <Ligand Efficiency>
0

>  <Binding Efficiency>
0

>  <Surface Efficiency>
0

>  <Assay Index>
1523702

>  <Assay Category>


>  <Assay Organism>
Homo sapiens

>  <Target ID>
17045

>  <Target Name>
Cytochrome P450 3A4

>  <Target Organism>
Homo sapiens

>  <Target Description>
Target is a single protein chain

>  <Sequence Accession>
P08684

>  <Reference>
J Med Chem 64 (8.0), 4677-4696 (2021)

>  <Pubmed ID>
33844524

>  <DOI>
10.1021/acs.jmedchem.0c02143

$$$$
1986233
Actelion Java MolfileCreator 1.0

 30 32  0  0  1  0  0  0  0  0999 V2000
    0.0000   -0.0000   -0.0000 Br  0  0  0  0  0  0  0  0  0  0  0  0
   -1.0956    0.6723   -0.0000 C   0  0  0  0  0  0  0  0  0  0  0  0
   -2.4900   -0.0747   -0.0000 C   0  0  0  0  0  0  0  0  0  0  0  0
   -1.0707    2.2659   -0.0000 C   0  0  0  0  0  0  0  0  0  0  0  0
   -3.8471    0.7595   -0.0000 N   0  0  0  0  0  0  0  0  0  0  0  0
   -2.4278    3.1001   -0.0000 N   0  0  0  0  0  0  0  0  0  0  0  0
   -3.8222    2.3531   -0.0000 C   0  0  0  0  0  0  0  0  0  0  0  0
   -5.1792    3.1872   -0.0000 C   0  0  0  0  0  0  0  0  0  0  0  0
   -6.2998    2.5896   -0.0000 O   0  0  0  0  0  0  0  0  0  0  0  0
   -5.1543    4.7808   -0.0000 N   0  0  0  0  0  0  0  0  0  0  0  0
   -6.5114    5.6150   -0.0000 C   0  0  0  0  0  0  0  0  0  0  0  0
   -6.4865    7.2086   -0.0000 C   0  0  0  0  0  0  0  0  0  0  0  0
   -7.9058    4.8680   -0.0000 C   0  0  0  0  0  0  0  0  0  0  0  0
   -7.8436    8.0428   -0.0000 C   0  0  0  0  0  0  0  0  0  0  0  0
   -9.2629    5.7022   -0.0000 C   0  0  0  0  0  0  0  0  0  0  0  0
   -9.2380    7.2958   -0.0000 C   0  0  0  0  0  0  0  0  0  0  0  0
   -7.8187    9.6115   -0.0000 C   0  0  0  0  0  0  0  0  0  0  0  0
  -10.3336    7.9681   -0.0000 F   0  0  0  0  0  0  0  0  0  0  0  0
   -9.2006    8.8396   -0.0000 N   0  0  0  0  0  0  0  0  0  0  0  0
   -7.8311   11.2051   -0.0000 C   0  0  0  0  0  0  0  0  0  0  0  0
   -6.7480   10.2838   -0.0000 C   0  0  0  0  0  0  0  0  0  0  0  0
  -10.5826    9.6364   -0.0000 C   0  0  0  0  0  0  0  0  0  0  0  0
   -9.2131   12.0019   -0.0000 O   0  0  0  0  0  0  0  0  0  0  0  0
  -11.6907    9.0139   -0.0000 N   0  0  0  0  0  0  0  0  0  0  0  0
  -10.5950   11.2300   -0.0000 C   0  0  0  0  0  0  0  0  0  0  0  0
  -11.9397   10.4332   -0.0000 C   0  0  0  0  0  0  0  0  0  0  0  0
  -10.5826   12.5124   -0.0000 C   0  0  0  0  0  0  0  0  0  0  0  0
  -11.9521    9.1757   -0.0000 F   0  0  0  0  0  0  0  0  0  0  0  0
  -13.0477    9.8107   -0.0000 F   0  0  0  0  0  0  0  0  0  0  0  0
  -13.0477   11.0806   -0.0000 F   0  0  0  0  0  0  0  0  0  0  0  0
  1  2  1  0  0  0  0
  2  3  2  0  0  0  0
  2  4  1  0  0  0  0
  3  5  1  0  0  0  0
  4  6  2  0  0  0  0
  5  7  2  0  0  0  0
  7  8  1  0  0  0  0
  8  9  2  0  0  0  0
  8 10  1  0  0  0  0
 10 11  1  0  0  0  0
 11 12  2  0  0  0  0
 11 13  1  0  0  0  0
 12 14  1  0  0  0  0
 13 15  2  0  0  0  0
 14 16  2  0  0  0  0
 14 17  1  0  0  0  0
 16 18  1  0  0  0  0
 17 19  1  0  0  0  0
 17 20  1  1  0  0  0
 17 21  1  0  0  0  0
 19 22  2  0  0  0  0
 20 23  1  0  0  0  0
 22 24  1  0  0  0  0
 25 22  1  1  0  0  0
 25 26  1  0  0  0  0
 25 27  1  0  0  0  0
 26 28  1  0  0  0  0
 26 29  1  0  0  0  0
 26 30  1  0  0  0  0
  6  7  1  0  0  0  0
 15 16  1  0  0  0  0
 23 25  1  0  0  0  0
M  END
>  <MolRegNo>
1986233

>  <m>
=

>  <Value>
8000

>  <Unit>
nM

>  <Type>
IC50

>  <pValue>
5.1

>  <Ligand Efficiency>
0

>  <Binding Efficiency>
0

>  <Surface Efficiency>
0

>  <Assay Index>
1523702

>  <Assay Category>


>  <Assay Organism>
Homo sapiens

>  <Target ID>
17045

>  <Target Name>
Cytochrome P450 3A4

>  <Target Organism>
Homo sapiens

>  <Target Description>
Target is a single protein chain

>  <Sequence Accession>
P08684

>  <Reference>
J Med Chem 64 (8.0), 4677-4696 (2021)

>  <Pubmed ID>
33844524

>  <DOI>
10.1021/acs.jmedchem.0c02143

$$$$
2717611
Actelion Java MolfileCreator 1.0

 32 34  0  0  0  0  0  0  0  0999 V2000
    0.0000   -0.0000   -0.0000 Cl  0  0  0  0  0  0  0  0  0  0  0  0
   -0.0134    1.4987   -0.0000 C   0  0  0  0  0  0  0  0  0  0  0  0
    1.2712    2.2615   -0.0000 C   0  0  0  0  0  0  0  0  0  0  0  0
   -1.3114    2.2615   -0.0000 C   0  0  0  0  0  0  0  0  0  0  0  0
    1.2579    3.7736   -0.0000 N   0  0  0  0  0  0  0  0  0  0  0  0
    2.5425    1.5389   -0.0000 C   0  0  0  0  0  0  0  0  0  0  0  0
   -1.3248    3.7736   -0.0000 C   0  0  0  0  0  0  0  0  0  0  0  0
   -0.0401    4.5229   -0.0000 C   0  0  0  0  0  0  0  0  0  0  0  0
    2.5291    0.0669   -0.0000 O   0  0  0  0  0  0  0  0  0  0  0  0
    3.8137    2.3016   -0.0000 N   0  0  0  0  0  0  0  0  0  0  0  0
   -2.6228    4.5363   -0.0000 C   0  0  0  0  0  0  0  0  0  0  0  0
    5.0850    1.5790   -0.0000 C   0  0  0  0  0  0  0  0  0  0  0  0
   -4.3356    5.5533   -0.0000 N   0  0  0  0  0  0  0  0  0  0  0  0
    6.3428    2.3418   -0.0000 C   0  0  0  0  0  0  0  0  0  0  0  0
    5.0716    0.1071   -0.0000 C   0  0  0  0  0  0  0  0  0  0  0  0
    7.6141    1.6192   -0.0000 C   0  0  0  0  0  0  0  0  0  0  0  0
    6.3428   -0.6155   -0.0000 C   0  0  0  0  0  0  0  0  0  0  0  0
    7.6141    0.1338   -0.0000 C   0  0  0  0  0  0  0  0  0  0  0  0
    8.8853    2.3819   -0.0000 C   0  0  0  0  0  0  0  0  0  0  0  0
    8.8987   -0.5888   -0.0000 F   0  0  0  0  0  0  0  0  0  0  0  0
   10.1565    1.6459   -0.0000 N   0  0  0  0  0  0  0  0  0  0  0  0
    8.8585    3.8806   -0.0000 C   0  0  0  0  0  0  0  0  0  0  0  0
    7.5739    3.1446   -0.0000 C   0  0  0  0  0  0  0  0  0  0  0  0
   11.4278    2.4087   -0.0000 C   0  0  0  0  0  0  0  0  0  0  0  0
   10.1431    4.6434   -0.0000 O   0  0  0  0  0  0  0  0  0  0  0  0
   12.6990    1.6861   -0.0000 N   0  0  0  0  0  0  0  0  0  0  0  0
   11.4144    3.9074   -0.0000 C   0  0  0  0  0  0  0  0  0  0  0  0
   12.6856    4.6701   -0.0000 C   0  0  0  0  0  0  0  0  0  0  0  0
   11.3876    5.4195   -0.0000 C   0  0  0  0  0  0  0  0  0  0  0  0
   13.9569    3.9475   -0.0000 F   0  0  0  0  0  0  0  0  0  0  0  0
   12.6722    6.1689   -0.0000 F   0  0  0  0  0  0  0  0  0  0  0  0
   13.9569    5.4329   -0.0000 F   0  0  0  0  0  0  0  0  0  0  0  0
  1  2  1  0  0  0  0
  2  3  2  0  0  0  0
  2  4  1  0  0  0  0
  3  5  1  0  0  0  0
  3  6  1  0  0  0  0
  4  7  2  0  0  0  0
  5  8  2  0  0  0  0
  6  9  2  0  0  0  0
  6 10  1  0  0  0  0
  7 11  1  0  0  0  0
 10 12  1  0  0  0  0
 11 13  3  0  0  0  0
 12 14  2  0  0  0  0
 12 15  1  0  0  0  0
 14 16  1  0  0  0  0
 15 17  2  0  0  0  0
 16 18  2  0  0  0  0
 16 19  1  0  0  0  0
 18 20  1  0  0  0  0
 19 21  1  0  0  0  0
 19 22  1  0  0  0  0
 19 23  1  1  0  0  0
 21 24  2  0  0  0  0
 22 25  1  0  0  0  0
 24 26  1  0  0  0  0
 24 27  1  0  0  0  0
 27 28  1  0  0  0  0
 27 29  1  6  0  0  0
 28 30  1  0  0  0  0
 28 31  1  0  0  0  0
 28 32  1  0  0  0  0
  7  8  1  0  0  0  0
 17 18  1  0  0  0  0
 25 27  1  0  0  0  0
M  END
>  <MolRegNo>
2717611

>  <m>
=

>  <Value>
17000

>  <Unit>
nM

>  <Type>
IC50

>  <pValue>
4.77

>  <Ligand Efficiency>
0

>  <Binding Efficiency>
0

>  <Surface Efficiency>
0

>  <Assay Index>
1523702

>  <Assay Category>


>  <Assay Organism>
Homo sapiens

>  <Target ID>
17045

>  <Target Name>
Cytochrome P450 3A4

>  <Target Organism>
Homo sapiens

>  <Target Description>
Target is a single protein chain

>  <Sequence Accession>
P08684

>  <Reference>
J Med Chem 64 (8.0), 4677-4696 (2021)

>  <Pubmed ID>
33844524

>  <DOI>
10.1021/acs.jmedchem.0c02143

$$$$
2735014
Actelion Java MolfileCreator 1.0

 32 34  0  0  0  0  0  0  0  0999 V2000
    0.0000   -0.0000   -0.0000 F   0  0  0  0  0  0  0  0  0  0  0  0
   -1.3047    0.7456   -0.0000 C   0  0  0  0  0  0  0  0  0  0  0  0
   -1.3314    2.2500   -0.0000 C   0  0  0  0  0  0  0  0  0  0  0  0
   -2.5962    0.0133   -0.0000 C   0  0  0  0  0  0  0  0  0  0  0  0
   -2.6228    2.9956   -0.0000 C   0  0  0  0  0  0  0  0  0  0  0  0
   -0.0666    3.0089   -0.0000 C   0  0  0  0  0  0  0  0  0  0  0  0
   -3.8876    0.7589   -0.0000 C   0  0  0  0  0  0  0  0  0  0  0  0
   -3.9009    2.2633   -0.0000 C   0  0  0  0  0  0  0  0  0  0  0  0
    1.1982    2.2766   -0.0000 N   0  0  0  0  0  0  0  0  0  0  0  0
   -0.0932    4.5000   -0.0000 C   0  0  0  0  0  0  0  0  0  0  0  0
   -1.3713    3.7678   -0.0000 C   0  0  0  0  0  0  0  0  0  0  0  0
   -5.1923    3.0089   -0.0000 N   0  0  0  0  0  0  0  0  0  0  0  0
    2.4630    3.0355   -0.0000 C   0  0  0  0  0  0  0  0  0  0  0  0
    1.1849    5.2589   -0.0000 O   0  0  0  0  0  0  0  0  0  0  0  0
   -6.4837    2.2766   -0.0000 C   0  0  0  0  0  0  0  0  0  0  0  0
    3.7278    2.3166   -0.0000 N   0  0  0  0  0  0  0  0  0  0  0  0
    2.4497    4.5266   -0.0000 C   0  0  0  0  0  0  0  0  0  0  0  0
   -6.4971    0.8121   -0.0000 O   0  0  0  0  0  0  0  0  0  0  0  0
   -7.7752    3.0222   -0.0000 C   0  0  0  0  0  0  0  0  0  0  0  0
    3.7145    5.2855   -0.0000 C   0  0  0  0  0  0  0  0  0  0  0  0
    2.4231    6.0311   -0.0000 C   0  0  0  0  0  0  0  0  0  0  0  0
   -7.7885    4.5266   -0.0000 N   0  0  0  0  0  0  0  0  0  0  0  0
   -9.0799    2.2899   -0.0000 C   0  0  0  0  0  0  0  0  0  0  0  0
    4.9793    4.5666   -0.0000 F   0  0  0  0  0  0  0  0  0  0  0  0
    3.7012    6.7766   -0.0000 F   0  0  0  0  0  0  0  0  0  0  0  0
    4.9793    6.0444   -0.0000 F   0  0  0  0  0  0  0  0  0  0  0  0
   -9.0799    5.2722   -0.0000 C   0  0  0  0  0  0  0  0  0  0  0  0
   -9.0932    0.8254   -0.0000 N   0  0  0  0  0  0  0  0  0  0  0  0
  -10.3713    3.0488   -0.0000 C   0  0  0  0  0  0  0  0  0  0  0  0
  -10.3713    4.5400   -0.0000 C   0  0  0  0  0  0  0  0  0  0  0  0
  -11.6627    5.2988   -0.0000 C   0  0  0  0  0  0  0  0  0  0  0  0
  -13.3669    6.3107   -0.0000 N   0  0  0  0  0  0  0  0  0  0  0  0
  1  2  1  0  0  0  0
  2  3  2  0  0  0  0
  2  4  1  0  0  0  0
  3  5  1  0  0  0  0
  3  6  1  0  0  0  0
  4  7  2  0  0  0  0
  5  8  2  0  0  0  0
  6  9  1  0  0  0  0
  6 10  1  0  0  0  0
  6 11  1  1  0  0  0
  8 12  1  0  0  0  0
  9 13  2  0  0  0  0
 10 14  1  0  0  0  0
 12 15  1  0  0  0  0
 13 16  1  0  0  0  0
 13 17  1  0  0  0  0
 15 18  2  0  0  0  0
 15 19  1  0  0  0  0
 17 20  1  0  0  0  0
 17 21  1  6  0  0  0
 19 22  2  0  0  0  0
 19 23  1  0  0  0  0
 20 24  1  0  0  0  0
 20 25  1  0  0  0  0
 20 26  1  0  0  0  0
 22 27  1  0  0  0  0
 23 28  1  0  0  0  0
 23 29  2  0  0  0  0
 27 30  2  0  0  0  0
 30 31  1  0  0  0  0
 31 32  3  0  0  0  0
  7  8  1  0  0  0  0
 14 17  1  0  0  0  0
 29 30  1  0  0  0  0
M  END
>  <MolRegNo>
2735014

>  <m>
=

>  <Value>
7000

>  <Unit>
nM

>  <Type>
IC50

>  <pValue>
5.16

>  <Ligand Efficiency>
0

>  <Binding Efficiency>
0

>  <Surface Efficiency>
0

>  <Assay Index>
1523702

>  <Assay Category>


>  <Assay Organism>
Homo sapiens

>  <Target ID>
17045

>  <Target Name>
Cytochrome P450 3A4

>  <Target Organism>
Homo sapiens

>  <Target Description>
Target is a single protein chain

>  <Sequence Accession>
P08684

>  <Reference>
J Med Chem 64 (8.0), 4677-4696 (2021)

>  <Pubmed ID>
33844524

>  <DOI>
10.1021/acs.jmedchem.0c02143

$$$$
2718900
Actelion Java MolfileCreator 1.0

 34 36  0  0  0  0  0  0  0  0999 V2000
    0.0000   -0.0000   -0.0000 Cl  0  0  0  0  0  0  0  0  0  0  0  0
   -0.0119    1.5115   -0.0000 C   0  0  0  0  0  0  0  0  0  0  0  0
    1.2854    2.2732   -0.0000 C   0  0  0  0  0  0  0  0  0  0  0  0
   -1.3211    2.2732   -0.0000 C   0  0  0  0  0  0  0  0  0  0  0  0
    1.2735    3.7966   -0.0000 N   0  0  0  0  0  0  0  0  0  0  0  0
    2.5707    1.5353   -0.0000 C   0  0  0  0  0  0  0  0  0  0  0  0
   -1.3330    3.7966   -0.0000 C   0  0  0  0  0  0  0  0  0  0  0  0
   -0.0357    4.5583   -0.0000 C   0  0  0  0  0  0  0  0  0  0  0  0
    2.5588    0.0476   -0.0000 O   0  0  0  0  0  0  0  0  0  0  0  0
    3.8561    2.2970   -0.0000 N   0  0  0  0  0  0  0  0  0  0  0  0
   -2.6421    4.5583   -0.0000 O   0  0  0  0  0  0  0  0  0  0  0  0
    5.1415    1.5591   -0.0000 C   0  0  0  0  0  0  0  0  0  0  0  0
   -3.9513    3.8204   -0.0000 C   0  0  0  0  0  0  0  0  0  0  0  0
    6.4149    2.3327   -0.0000 C   0  0  0  0  0  0  0  0  0  0  0  0
    5.1177    0.0714   -0.0000 C   0  0  0  0  0  0  0  0  0  0  0  0
   -5.2605    4.5821   -0.0000 F   0  0  0  0  0  0  0  0  0  0  0  0
   -3.9632    2.3327   -0.0000 F   0  0  0  0  0  0  0  0  0  0  0  0
    7.7003    1.6067   -0.0000 C   0  0  0  0  0  0  0  0  0  0  0  0
    6.4030   -0.6665   -0.0000 C   0  0  0  0  0  0  0  0  0  0  0  0
    7.7003    0.1071   -0.0000 C   0  0  0  0  0  0  0  0  0  0  0  0
    8.9857    2.3803   -0.0000 C   0  0  0  0  0  0  0  0  0  0  0  0
    8.9857   -0.6308   -0.0000 F   0  0  0  0  0  0  0  0  0  0  0  0
   10.2710    1.6424   -0.0000 N   0  0  0  0  0  0  0  0  0  0  0  0
    8.9500    3.8918   -0.0000 C   0  0  0  0  0  0  0  0  0  0  0  0
    7.6646    3.1539   -0.0000 C   0  0  0  0  0  0  0  0  0  0  0  0
   11.5564    2.4041   -0.0000 C   0  0  0  0  0  0  0  0  0  0  0  0
   10.2472    4.6535   -0.0000 O   0  0  0  0  0  0  0  0  0  0  0  0
   12.8418    1.6662   -0.0000 N   0  0  0  0  0  0  0  0  0  0  0  0
   11.5445    3.9156   -0.0000 C   0  0  0  0  0  0  0  0  0  0  0  0
   12.8299    4.6773   -0.0000 C   0  0  0  0  0  0  0  0  0  0  0  0
   11.5207    5.4271   -0.0000 C   0  0  0  0  0  0  0  0  0  0  0  0
   14.1152    3.9394   -0.0000 F   0  0  0  0  0  0  0  0  0  0  0  0
   12.8180    6.1888   -0.0000 F   0  0  0  0  0  0  0  0  0  0  0  0
   14.1152    5.4509   -0.0000 F   0  0  0  0  0  0  0  0  0  0  0  0
  1  2  1  0  0  0  0
  2  3  2  0  0  0  0
  2  4  1  0  0  0  0
  3  5  1  0  0  0  0
  3  6  1  0  0  0  0
  4  7  2  0  0  0  0
  5  8  2  0  0  0  0
  6  9  2  0  0  0  0
  6 10  1  0  0  0  0
  7 11  1  0  0  0  0
 10 12  1  0  0  0  0
 11 13  1  0  0  0  0
 12 14  2  0  0  0  0
 12 15  1  0  0  0  0
 13 16  1  0  0  0  0
 13 17  1  0  0  0  0
 14 18  1  0  0  0  0
 15 19  2  0  0  0  0
 18 20  2  0  0  0  0
 18 21  1  0  0  0  0
 20 22  1  0  0  0  0
 21 23  1  0  0  0  0
 21 24  1  0  0  0  0
 21 25  1  1  0  0  0
 23 26  2  0  0  0  0
 24 27  1  0  0  0  0
 26 28  1  0  0  0  0
 26 29  1  0  0  0  0
 29 30  1  0  0  0  0
 29 31  1  6  0  0  0
 30 32  1  0  0  0  0
 30 33  1  0  0  0  0
 30 34  1  0  0  0  0
  7  8  1  0  0  0  0
 19 20  1  0  0  0  0
 27 29  1  0  0  0  0
M  END
>  <MolRegNo>
2718900

>  <m>
=

>  <Value>
4000

>  <Unit>
nM

>  <Type>
IC50

>  <pValue>
5.4

>  <Ligand Efficiency>
0

>  <Binding Efficiency>
0

>  <Surface Efficiency>
0

>  <Assay Index>
1523702

>  <Assay Category>


>  <Assay Organism>
Homo sapiens

>  <Target ID>
17045

>  <Target Name>
Cytochrome P450 3A4

>  <Target Organism>
Homo sapiens

>  <Target Description>
Target is a single protein chain

>  <Sequence Accession>
P08684

>  <Reference>
J Med Chem 64 (8.0), 4677-4696 (2021)

>  <Pubmed ID>
33844524

>  <DOI>
10.1021/acs.jmedchem.0c02143

$$$$
6012
Actelion Java MolfileCreator 1.0

 19 20  0  0  0  0  0  0  0  0999 V2000
    0.0000   -0.0000   -0.0000 P   0  0  0  0  0  0  0  0  0  0  0  0
   -1.4483   -0.4511   -0.0000 O   0  0  0  0  0  0  0  0  0  0  0  0
   -0.4748    1.4483   -0.0000 O   0  0  0  0  0  0  0  0  0  0  0  0
    1.4245    0.4748   -0.0000 O   0  0  0  0  0  0  0  0  0  0  0  0
    0.4511   -1.4245   -0.0000 C   0  0  0  0  0  0  0  0  0  0  0  0
    1.9113   -1.7213   -0.0000 O   0  0  0  0  0  0  0  0  0  0  0  0
    2.3624   -3.1459   -0.0000 C   0  0  0  0  0  0  0  0  0  0  0  0
    3.8225   -3.4426   -0.0000 C   0  0  0  0  0  0  0  0  0  0  0  0
    1.3414   -4.2499   -0.0000 C   0  0  0  0  0  0  0  0  0  0  0  0
    4.2736   -4.8672   -0.0000 N   0  0  0  0  0  0  0  0  0  0  0  0
    5.6982   -5.3183   -0.0000 C   0  0  0  0  0  0  0  0  0  0  0  0
    3.3714   -6.0780   -0.0000 C   0  0  0  0  0  0  0  0  0  0  0  0
    6.9921   -4.5467   -0.0000 N   0  0  0  0  0  0  0  0  0  0  0  0
    5.6863   -6.8141   -0.0000 C   0  0  0  0  0  0  0  0  0  0  0  0
    4.2499   -7.2889   -0.0000 N   0  0  0  0  0  0  0  0  0  0  0  0
    8.2861   -5.2945   -0.0000 C   0  0  0  0  0  0  0  0  0  0  0  0
    6.9803   -7.5501   -0.0000 C   0  0  0  0  0  0  0  0  0  0  0  0
    8.2742   -6.7903   -0.0000 N   0  0  0  0  0  0  0  0  0  0  0  0
    6.9684   -9.0458   -0.0000 N   0  0  0  0  0  0  0  0  0  0  0  0
  1  2  2  0  0  0  0
  1  3  1  0  0  0  0
  1  4  1  0  0  0  0
  1  5  1  0  0  0  0
  5  6  1  0  0  0  0
  7  6  1  6  0  0  0
  7  8  1  0  0  0  0
  7  9  1  0  0  0  0
  8 10  1  0  0  0  0
 10 11  1  0  0  0  0
 10 12  1  0  0  0  0
 11 13  2  0  0  0  0
 11 14  1  0  0  0  0
 12 15  2  0  0  0  0
 13 16  1  0  0  0  0
 14 17  2  0  0  0  0
 16 18  2  0  0  0  0
 17 19  1  0  0  0  0
 14 15  1  0  0  0  0
 17 18  1  0  0  0  0
M  END
>  <MolRegNo>
6012

>  <m>
=

>  <Value>
45800

>  <Unit>
nM

>  <Type>
IC50

>  <pValue>
4.34

>  <Ligand Efficiency>
0

>  <Binding Efficiency>
0

>  <Surface Efficiency>
0

>  <Assay Index>
1524183

>  <Assay Category>


>  <Assay Organism>
Homo sapiens

>  <Target ID>
17045

>  <Target Name>
Cytochrome P450 3A4

>  <Target Organism>
Homo sapiens

>  <Target Description>
Target is a single protein chain

>  <Sequence Accession>
P08684

>  <Reference>
J Med Chem 64 (17.0), 12917-12937 (2021)

>  <Pubmed ID>
34459598

>  <DOI>
10.1021/acs.jmedchem.1c01083

$$$$
2729759
Actelion Java MolfileCreator 1.0

 40 40  0  0  0  0  0  0  0  0999 V2000
    0.0000   -0.0000   -0.0000 P   0  0  0  0  0  0  0  0  0  0  0  0
   -0.7644    1.3054   -0.0000 O   0  0  0  0  0  0  0  0  0  0  0  0
   -1.2937   -0.7527   -0.0000 O   0  0  0  0  0  0  0  0  0  0  0  0
    0.7292    1.3172   -0.0000 O   0  0  0  0  0  0  0  0  0  0  0  0
    1.2937   -0.7174   -0.0000 C   0  0  0  0  0  0  0  0  0  0  0  0
   -2.6108   -0.0118   -0.0000 C   0  0  0  0  0  0  0  0  0  0  0  0
    2.5638    0.0588   -0.0000 O   0  0  0  0  0  0  0  0  0  0  0  0
   -3.9045   -0.7644   -0.0000 C   0  0  0  0  0  0  0  0  0  0  0  0
    3.8575   -0.6586   -0.0000 C   0  0  0  0  0  0  0  0  0  0  0  0
   -5.2217   -0.0235   -0.0000 C   0  0  0  0  0  0  0  0  0  0  0  0
    5.1276    0.1176   -0.0000 C   0  0  0  0  0  0  0  0  0  0  0  0
    3.8692   -2.1404   -0.0000 C   0  0  0  0  0  0  0  0  0  0  0  0
   -6.5153   -0.7762   -0.0000 O   0  0  0  0  0  0  0  0  0  0  0  0
    5.0923    1.6230   -0.0000 N   0  0  0  0  0  0  0  0  0  0  0  0
   -7.8325   -0.0353   -0.0000 C   0  0  0  0  0  0  0  0  0  0  0  0
    6.2684    2.5285   -0.0000 C   0  0  0  0  0  0  0  0  0  0  0  0
    3.8575    2.4932   -0.0000 C   0  0  0  0  0  0  0  0  0  0  0  0
   -9.1262   -0.7880   -0.0000 C   0  0  0  0  0  0  0  0  0  0  0  0
    7.7267    2.2463   -0.0000 N   0  0  0  0  0  0  0  0  0  0  0  0
    5.7744    3.9633   -0.0000 C   0  0  0  0  0  0  0  0  0  0  0  0
    4.2808    3.9280   -0.0000 N   0  0  0  0  0  0  0  0  0  0  0  0
  -10.4434   -0.0470   -0.0000 C   0  0  0  0  0  0  0  0  0  0  0  0
    8.7028    3.3870   -0.0000 C   0  0  0  0  0  0  0  0  0  0  0  0
    6.7388    5.0923   -0.0000 C   0  0  0  0  0  0  0  0  0  0  0  0
  -11.7370   -0.7997   -0.0000 C   0  0  0  0  0  0  0  0  0  0  0  0
    8.2089    4.8218   -0.0000 N   0  0  0  0  0  0  0  0  0  0  0  0
    6.2448    6.5153   -0.0000 N   0  0  0  0  0  0  0  0  0  0  0  0
  -13.0542   -0.0588   -0.0000 C   0  0  0  0  0  0  0  0  0  0  0  0
  -14.3479   -0.8115   -0.0000 C   0  0  0  0  0  0  0  0  0  0  0  0
  -15.6650   -0.0706   -0.0000 C   0  0  0  0  0  0  0  0  0  0  0  0
  -16.9587   -0.8232   -0.0000 C   0  0  0  0  0  0  0  0  0  0  0  0
  -18.2759   -0.0823   -0.0000 C   0  0  0  0  0  0  0  0  0  0  0  0
  -19.5695   -0.8350   -0.0000 C   0  0  0  0  0  0  0  0  0  0  0  0
  -20.8867   -0.0941   -0.0000 C   0  0  0  0  0  0  0  0  0  0  0  0
  -22.1804   -0.8468   -0.0000 C   0  0  0  0  0  0  0  0  0  0  0  0
  -23.4975   -0.1058   -0.0000 C   0  0  0  0  0  0  0  0  0  0  0  0
  -24.7912   -0.8585   -0.0000 C   0  0  0  0  0  0  0  0  0  0  0  0
  -26.1084   -0.1176   -0.0000 C   0  0  0  0  0  0  0  0  0  0  0  0
  -27.3903   -0.8703   -0.0000 C   0  0  0  0  0  0  0  0  0  0  0  0
   -0.8468    3.6693   -0.0000 N   0  0  0  0  0  0  0  0  0  0  0  0
  1  2  2  0  0  0  0
  1  3  1  0  0  0  0
  1  4  1  0  0  0  0
  1  5  1  0  0  0  0
  3  6  1  0  0  0  0
  5  7  1  0  0  0  0
  6  8  1  0  0  0  0
  9  7  1  6  0  0  0
  8 10  1  0  0  0  0
  9 11  1  0  0  0  0
  9 12  1  0  0  0  0
 10 13  1  0  0  0  0
 11 14  1  0  0  0  0
 13 15  1  0  0  0  0
 14 16  1  0  0  0  0
 14 17  1  0  0  0  0
 15 18  1  0  0  0  0
 16 19  2  0  0  0  0
 16 20  1  0  0  0  0
 17 21  2  0  0  0  0
 18 22  1  0  0  0  0
 19 23  1  0  0  0  0
 20 24  2  0  0  0  0
 22 25  1  0  0  0  0
 23 26  2  0  0  0  0
 24 27  1  0  0  0  0
 25 28  1  0  0  0  0
 28 29  1  0  0  0  0
 29 30  1  0  0  0  0
 30 31  1  0  0  0  0
 31 32  1  0  0  0  0
 32 33  1  0  0  0  0
 33 34  1  0  0  0  0
 34 35  1  0  0  0  0
 35 36  1  0  0  0  0
 36 37  1  0  0  0  0
 37 38  1  0  0  0  0
 38 39  1  0  0  0  0
 20 21  1  0  0  0  0
 24 26  1  0  0  0  0
M  END
>  <MolRegNo>
2729759

>  <m>
=

>  <Value>
53300

>  <Unit>
nM

>  <Type>
IC50

>  <pValue>
4.27

>  <Ligand Efficiency>
0

>  <Binding Efficiency>
0

>  <Surface Efficiency>
0

>  <Assay Index>
1524183

>  <Assay Category>


>  <Assay Organism>
Homo sapiens

>  <Target ID>
17045

>  <Target Name>
Cytochrome P450 3A4

>  <Target Organism>
Homo sapiens

>  <Target Description>
Target is a single protein chain

>  <Sequence Accession>
P08684

>  <Reference>
J Med Chem 64 (17.0), 12917-12937 (2021)

>  <Pubmed ID>
34459598

>  <DOI>
10.1021/acs.jmedchem.1c01083

$$$$
2731405
Actelion Java MolfileCreator 1.0

 40 40  0  0  0  0  0  0  0  0999 V2000
    0.0000   -0.0000   -0.0000 P   0  0  0  0  0  0  0  0  0  0  0  0
   -0.7644    1.3054   -0.0000 O   0  0  0  0  0  0  0  0  0  0  0  0
   -1.2936   -0.7527   -0.0000 O   0  0  0  0  0  0  0  0  0  0  0  0
    0.7291    1.3172   -0.0000 O   0  0  0  0  0  0  0  0  0  0  0  0
    1.2936   -0.7174   -0.0000 C   0  0  0  0  0  0  0  0  0  0  0  0
   -2.6108   -0.0118   -0.0000 C   0  0  0  0  0  0  0  0  0  0  0  0
    2.5638    0.0588   -0.0000 O   0  0  0  0  0  0  0  0  0  0  0  0
   -3.9045   -0.7644   -0.0000 C   0  0  0  0  0  0  0  0  0  0  0  0
    3.8574   -0.6586   -0.0000 C   0  0  0  0  0  0  0  0  0  0  0  0
   -5.2216   -0.0235   -0.0000 C   0  0  0  0  0  0  0  0  0  0  0  0
    5.1276    0.1176   -0.0000 C   0  0  0  0  0  0  0  0  0  0  0  0
    3.8692   -2.1404   -0.0000 C   0  0  0  0  0  0  0  0  0  0  0  0
   -6.5153   -0.7762   -0.0000 C   0  0  0  0  0  0  0  0  0  0  0  0
    5.0923    1.6229   -0.0000 N   0  0  0  0  0  0  0  0  0  0  0  0
   -7.8325   -0.0353   -0.0000 C   0  0  0  0  0  0  0  0  0  0  0  0
    6.2683    2.5285   -0.0000 C   0  0  0  0  0  0  0  0  0  0  0  0
    3.8574    2.4932   -0.0000 C   0  0  0  0  0  0  0  0  0  0  0  0
   -9.1261   -0.7880   -0.0000 C   0  0  0  0  0  0  0  0  0  0  0  0
    7.7266    2.2462   -0.0000 N   0  0  0  0  0  0  0  0  0  0  0  0
    5.7744    3.9633   -0.0000 C   0  0  0  0  0  0  0  0  0  0  0  0
    4.2808    3.9280   -0.0000 N   0  0  0  0  0  0  0  0  0  0  0  0
  -10.4433   -0.0470   -0.0000 C   0  0  0  0  0  0  0  0  0  0  0  0
    8.7027    3.3870   -0.0000 C   0  0  0  0  0  0  0  0  0  0  0  0
    6.7387    5.0923   -0.0000 C   0  0  0  0  0  0  0  0  0  0  0  0
  -11.7369   -0.7997   -0.0000 C   0  0  0  0  0  0  0  0  0  0  0  0
    8.2088    4.8218   -0.0000 N   0  0  0  0  0  0  0  0  0  0  0  0
    6.2448    6.5153   -0.0000 N   0  0  0  0  0  0  0  0  0  0  0  0
  -13.0541   -0.0588   -0.0000 C   0  0  0  0  0  0  0  0  0  0  0  0
  -14.3477   -0.8115   -0.0000 C   0  0  0  0  0  0  0  0  0  0  0  0
  -15.6649   -0.0706   -0.0000 C   0  0  0  0  0  0  0  0  0  0  0  0
  -16.9586   -0.8232   -0.0000 C   0  0  0  0  0  0  0  0  0  0  0  0
  -18.2757   -0.0823   -0.0000 C   0  0  0  0  0  0  0  0  0  0  0  0
  -19.5694   -0.8350   -0.0000 C   0  0  0  0  0  0  0  0  0  0  0  0
  -20.8866   -0.0941   -0.0000 C   0  0  0  0  0  0  0  0  0  0  0  0
  -22.1684   -0.8468   -0.0000 C   0  0  0  0  0  0  0  0  0  0  0  0
  -23.4856   -0.1176   -0.0000 C   0  0  0  0  0  0  0  0  0  0  0  0
  -24.7793   -0.8820   -0.0000 C   0  0  0  0  0  0  0  0  0  0  0  0
  -26.0964   -0.1529   -0.0000 C   0  0  0  0  0  0  0  0  0  0  0  0
  -27.3901   -0.9173   -0.0000 C   0  0  0  0  0  0  0  0  0  0  0  0
    1.9758    1.3172   -0.0000 N   0  0  0  0  0  0  0  0  0  0  0  0
  1  2  2  0  0  0  0
  1  3  1  0  0  0  0
  1  4  1  0  0  0  0
  1  5  1  0  0  0  0
  3  6  1  0  0  0  0
  5  7  1  0  0  0  0
  6  8  1  0  0  0  0
  9  7  1  6  0  0  0
  8 10  1  0  0  0  0
  9 11  1  0  0  0  0
  9 12  1  0  0  0  0
 10 13  1  0  0  0  0
 11 14  1  0  0  0  0
 13 15  1  0  0  0  0
 14 16  1  0  0  0  0
 14 17  1  0  0  0  0
 15 18  1  0  0  0  0
 16 19  2  0  0  0  0
 16 20  1  0  0  0  0
 17 21  2  0  0  0  0
 18 22  1  0  0  0  0
 19 23  1  0  0  0  0
 20 24  2  0  0  0  0
 22 25  1  0  0  0  0
 23 26  2  0  0  0  0
 24 27  1  0  0  0  0
 25 28  1  0  0  0  0
 28 29  1  0  0  0  0
 29 30  1  0  0  0  0
 30 31  1  0  0  0  0
 31 32  1  0  0  0  0
 32 33  1  0  0  0  0
 33 34  1  0  0  0  0
 34 35  1  0  0  0  0
 35 36  1  0  0  0  0
 36 37  1  0  0  0  0
 37 38  1  0  0  0  0
 38 39  1  0  0  0  0
 20 21  1  0  0  0  0
 24 26  1  0  0  0  0
M  END
>  <MolRegNo>
2731405

>  <m>
=

>  <Value>
50000

>  <Unit>
nM

>  <Type>
IC50

>  <pValue>
4.3

>  <Ligand Efficiency>
0

>  <Binding Efficiency>
0

>  <Surface Efficiency>
0

>  <Assay Index>
1524183

>  <Assay Category>


>  <Assay Organism>
Homo sapiens

>  <Target ID>
17045

>  <Target Name>
Cytochrome P450 3A4

>  <Target Organism>
Homo sapiens

>  <Target Description>
Target is a single protein chain

>  <Sequence Accession>
P08684

>  <Reference>
J Med Chem 64 (17.0), 12917-12937 (2021)

>  <Pubmed ID>
34459598

>  <DOI>
10.1021/acs.jmedchem.1c01083

$$$$
2737108
Actelion Java MolfileCreator 1.0

 38 38  0  0  0  0  0  0  0  0999 V2000
    0.0000   -0.0000   -0.0000 P   0  0  0  0  0  0  0  0  0  0  0  0
   -0.7645    1.3056   -0.0000 O   0  0  0  0  0  0  0  0  0  0  0  0
   -1.2938   -0.7528   -0.0000 O   0  0  0  0  0  0  0  0  0  0  0  0
    0.7293    1.3174   -0.0000 O   0  0  0  0  0  0  0  0  0  0  0  0
    1.2938   -0.7175   -0.0000 C   0  0  0  0  0  0  0  0  0  0  0  0
   -2.6112   -0.0118   -0.0000 C   0  0  0  0  0  0  0  0  0  0  0  0
    2.5641    0.0588   -0.0000 O   0  0  0  0  0  0  0  0  0  0  0  0
   -3.9050   -0.7645   -0.0000 C   0  0  0  0  0  0  0  0  0  0  0  0
    3.8580   -0.6587   -0.0000 C   0  0  0  0  0  0  0  0  0  0  0  0
   -5.2224   -0.0235   -0.0000 C   0  0  0  0  0  0  0  0  0  0  0  0
    5.1283    0.1176   -0.0000 C   0  0  0  0  0  0  0  0  0  0  0  0
    3.8697   -2.1407   -0.0000 C   0  0  0  0  0  0  0  0  0  0  0  0
   -6.5162   -0.7763   -0.0000 C   0  0  0  0  0  0  0  0  0  0  0  0
    5.0930    1.6232   -0.0000 N   0  0  0  0  0  0  0  0  0  0  0  0
   -7.8336   -0.0353   -0.0000 C   0  0  0  0  0  0  0  0  0  0  0  0
    6.2692    2.5289   -0.0000 C   0  0  0  0  0  0  0  0  0  0  0  0
    3.8580    2.4936   -0.0000 C   0  0  0  0  0  0  0  0  0  0  0  0
   -9.1274   -0.7881   -0.0000 C   0  0  0  0  0  0  0  0  0  0  0  0
    7.7277    2.2466   -0.0000 N   0  0  0  0  0  0  0  0  0  0  0  0
    5.7752    3.9638   -0.0000 C   0  0  0  0  0  0  0  0  0  0  0  0
    4.2814    3.9286   -0.0000 N   0  0  0  0  0  0  0  0  0  0  0  0
  -10.4448   -0.0470   -0.0000 C   0  0  0  0  0  0  0  0  0  0  0  0
    8.7040    3.3875   -0.0000 C   0  0  0  0  0  0  0  0  0  0  0  0
    6.7397    5.0930   -0.0000 C   0  0  0  0  0  0  0  0  0  0  0  0
  -11.7386   -0.7998   -0.0000 C   0  0  0  0  0  0  0  0  0  0  0  0
    8.2100    4.8225   -0.0000 N   0  0  0  0  0  0  0  0  0  0  0  0
    6.2457    6.5162   -0.0000 N   0  0  0  0  0  0  0  0  0  0  0  0
  -13.0560   -0.0588   -0.0000 C   0  0  0  0  0  0  0  0  0  0  0  0
  -14.3498   -0.8116   -0.0000 C   0  0  0  0  0  0  0  0  0  0  0  0
  -15.6672   -0.0706   -0.0000 C   0  0  0  0  0  0  0  0  0  0  0  0
  -16.9610   -0.8233   -0.0000 C   0  0  0  0  0  0  0  0  0  0  0  0
  -18.2783   -0.0823   -0.0000 C   0  0  0  0  0  0  0  0  0  0  0  0
  -19.5722   -0.8351   -0.0000 C   0  0  0  0  0  0  0  0  0  0  0  0
  -20.8895   -0.0941   -0.0000 C   0  0  0  0  0  0  0  0  0  0  0  0
  -22.1716   -0.8469   -0.0000 C   0  0  0  0  0  0  0  0  0  0  0  0
  -23.4890   -0.1176   -0.0000 C   0  0  0  0  0  0  0  0  0  0  0  0
  -24.7828   -0.8822   -0.0000 C   0  0  0  0  0  0  0  0  0  0  0  0
    1.0351    3.5757   -0.0000 N   0  0  0  0  0  0  0  0  0  0  0  0
  1  2  2  0  0  0  0
  1  3  1  0  0  0  0
  1  4  1  0  0  0  0
  1  5  1  0  0  0  0
  3  6  1  0  0  0  0
  5  7  1  0  0  0  0
  6  8  1  0  0  0  0
  9  7  1  6  0  0  0
  8 10  1  0  0  0  0
  9 11  1  0  0  0  0
  9 12  1  0  0  0  0
 10 13  1  0  0  0  0
 11 14  1  0  0  0  0
 13 15  1  0  0  0  0
 14 16  1  0  0  0  0
 14 17  1  0  0  0  0
 15 18  1  0  0  0  0
 16 19  2  0  0  0  0
 16 20  1  0  0  0  0
 17 21  2  0  0  0  0
 18 22  1  0  0  0  0
 19 23  1  0  0  0  0
 20 24  2  0  0  0  0
 22 25  1  0  0  0  0
 23 26  2  0  0  0  0
 24 27  1  0  0  0  0
 25 28  1  0  0  0  0
 28 29  1  0  0  0  0
 29 30  1  0  0  0  0
 30 31  1  0  0  0  0
 31 32  1  0  0  0  0
 32 33  1  0  0  0  0
 33 34  1  0  0  0  0
 34 35  1  0  0  0  0
 35 36  1  0  0  0  0
 36 37  1  0  0  0  0
 20 21  1  0  0  0  0
 24 26  1  0  0  0  0
M  END
>  <MolRegNo>
2737108

>  <m>
=

>  <Value>
52900

>  <Unit>
nM

>  <Type>
IC50

>  <pValue>
4.28

>  <Ligand Efficiency>
0

>  <Binding Efficiency>
0

>  <Surface Efficiency>
0

>  <Assay Index>
1524183

>  <Assay Category>


>  <Assay Organism>
Homo sapiens

>  <Target ID>
17045

>  <Target Name>
Cytochrome P450 3A4

>  <Target Organism>
Homo sapiens

>  <Target Description>
Target is a single protein chain

>  <Sequence Accession>
P08684

>  <Reference>
J Med Chem 64 (17.0), 12917-12937 (2021)

>  <Pubmed ID>
34459598

>  <DOI>
10.1021/acs.jmedchem.1c01083

$$$$
2733841
Actelion Java MolfileCreator 1.0

 35 35  0  0  0  0  0  0  0  0999 V2000
    0.0000   -0.0000   -0.0000 P   0  0  0  0  0  0  0  0  0  0  0  0
   -0.7645    1.3055   -0.0000 O   0  0  0  0  0  0  0  0  0  0  0  0
   -1.2937   -0.7527   -0.0000 O   0  0  0  0  0  0  0  0  0  0  0  0
    0.7292    1.3172   -0.0000 O   0  0  0  0  0  0  0  0  0  0  0  0
    1.2937   -0.7174   -0.0000 C   0  0  0  0  0  0  0  0  0  0  0  0
   -2.6110   -0.0118   -0.0000 C   0  0  0  0  0  0  0  0  0  0  0  0
    2.5639    0.0588   -0.0000 O   0  0  0  0  0  0  0  0  0  0  0  0
   -3.9047   -0.7645   -0.0000 C   0  0  0  0  0  0  0  0  0  0  0  0
    3.8576   -0.6586   -0.0000 C   0  0  0  0  0  0  0  0  0  0  0  0
   -5.2219   -0.0235   -0.0000 C   0  0  0  0  0  0  0  0  0  0  0  0
    5.1278    0.1176   -0.0000 C   0  0  0  0  0  0  0  0  0  0  0  0
    3.8694   -2.1405   -0.0000 C   0  0  0  0  0  0  0  0  0  0  0  0
   -6.5156   -0.7762   -0.0000 C   0  0  0  0  0  0  0  0  0  0  0  0
    5.0925    1.6230   -0.0000 N   0  0  0  0  0  0  0  0  0  0  0  0
   -7.8329   -0.0353   -0.0000 C   0  0  0  0  0  0  0  0  0  0  0  0
    6.2687    2.5286   -0.0000 C   0  0  0  0  0  0  0  0  0  0  0  0
    3.8576    2.4933   -0.0000 C   0  0  0  0  0  0  0  0  0  0  0  0
   -9.1266   -0.7880   -0.0000 C   0  0  0  0  0  0  0  0  0  0  0  0
    7.7270    2.2464   -0.0000 N   0  0  0  0  0  0  0  0  0  0  0  0
    5.7747    3.9635   -0.0000 C   0  0  0  0  0  0  0  0  0  0  0  0
    4.2810    3.9282   -0.0000 N   0  0  0  0  0  0  0  0  0  0  0  0
  -10.4438   -0.0470   -0.0000 C   0  0  0  0  0  0  0  0  0  0  0  0
    8.7032    3.3872   -0.0000 C   0  0  0  0  0  0  0  0  0  0  0  0
    6.7391    5.0925   -0.0000 C   0  0  0  0  0  0  0  0  0  0  0  0
  -11.7376   -0.7998   -0.0000 C   0  0  0  0  0  0  0  0  0  0  0  0
    8.2092    4.8220   -0.0000 N   0  0  0  0  0  0  0  0  0  0  0  0
    6.2451    6.5156   -0.0000 N   0  0  0  0  0  0  0  0  0  0  0  0
  -13.0548   -0.0588   -0.0000 C   0  0  0  0  0  0  0  0  0  0  0  0
  -14.3485   -0.8115   -0.0000 C   0  0  0  0  0  0  0  0  0  0  0  0
  -15.6658   -0.0706   -0.0000 C   0  0  0  0  0  0  0  0  0  0  0  0
  -16.9595   -0.8233   -0.0000 C   0  0  0  0  0  0  0  0  0  0  0  0
  -18.2767   -0.0823   -0.0000 C   0  0  0  0  0  0  0  0  0  0  0  0
  -19.5704   -0.8350   -0.0000 C   0  0  0  0  0  0  0  0  0  0  0  0
  -20.8877   -0.0941   -0.0000 C   0  0  0  0  0  0  0  0  0  0  0  0
    0.8468    3.2931   -0.0000 N   0  0  0  0  0  0  0  0  0  0  0  0
  1  2  2  0  0  0  0
  1  3  1  0  0  0  0
  1  4  1  0  0  0  0
  1  5  1  0  0  0  0
  3  6  1  0  0  0  0
  5  7  1  0  0  0  0
  6  8  1  0  0  0  0
  9  7  1  6  0  0  0
  8 10  1  0  0  0  0
  9 11  1  0  0  0  0
  9 12  1  0  0  0  0
 10 13  1  0  0  0  0
 11 14  1  0  0  0  0
 13 15  1  0  0  0  0
 14 16  1  0  0  0  0
 14 17  1  0  0  0  0
 15 18  1  0  0  0  0
 16 19  2  0  0  0  0
 16 20  1  0  0  0  0
 17 21  2  0  0  0  0
 18 22  1  0  0  0  0
 19 23  1  0  0  0  0
 20 24  2  0  0  0  0
 22 25  1  0  0  0  0
 23 26  2  0  0  0  0
 24 27  1  0  0  0  0
 25 28  1  0  0  0  0
 28 29  1  0  0  0  0
 29 30  1  0  0  0  0
 30 31  1  0  0  0  0
 31 32  1  0  0  0  0
 32 33  1  0  0  0  0
 33 34  1  0  0  0  0
 20 21  1  0  0  0  0
 24 26  1  0  0  0  0
M  END
>  <MolRegNo>
2733841

>  <m>
=

>  <Value>
54900

>  <Unit>
nM

>  <Type>
IC50

>  <pValue>
4.26

>  <Ligand Efficiency>
0

>  <Binding Efficiency>
0

>  <Surface Efficiency>
0

>  <Assay Index>
1524183

>  <Assay Category>


>  <Assay Organism>
Homo sapiens

>  <Target ID>
17045

>  <Target Name>
Cytochrome P450 3A4

>  <Target Organism>
Homo sapiens

>  <Target Description>
Target is a single protein chain

>  <Sequence Accession>
P08684

>  <Reference>
J Med Chem 64 (17.0), 12917-12937 (2021)

>  <Pubmed ID>
34459598

>  <DOI>
10.1021/acs.jmedchem.1c01083

$$$$
2726952
Actelion Java MolfileCreator 1.0

 40 40  0  0  0  0  0  0  0  0999 V2000
    0.0000   -0.0000   -0.0000 S   0  0  0  0  0  0  0  0  0  0  0  0
    1.2720    0.7773   -0.0000 C   0  0  0  0  0  0  0  0  0  0  0  0
   -1.3191    0.7420   -0.0000 C   0  0  0  0  0  0  0  0  0  0  0  0
    2.5676    0.0589   -0.0000 C   0  0  0  0  0  0  0  0  0  0  0  0
   -2.6147   -0.0118   -0.0000 C   0  0  0  0  0  0  0  0  0  0  0  0
    3.8396    0.8362   -0.0000 C   0  0  0  0  0  0  0  0  0  0  0  0
   -3.9338    0.7302   -0.0000 C   0  0  0  0  0  0  0  0  0  0  0  0
    5.1352    0.1178   -0.0000 O   0  0  0  0  0  0  0  0  0  0  0  0
   -5.2294   -0.0236   -0.0000 C   0  0  0  0  0  0  0  0  0  0  0  0
    6.4072    0.8951   -0.0000 P   0  0  0  0  0  0  0  0  0  0  0  0
   -6.5485    0.7185   -0.0000 C   0  0  0  0  0  0  0  0  0  0  0  0
    5.6416    2.2025   -0.0000 O   0  0  0  0  0  0  0  0  0  0  0  0
    7.1374    2.2142   -0.0000 O   0  0  0  0  0  0  0  0  0  0  0  0
    7.7027    0.1767   -0.0000 C   0  0  0  0  0  0  0  0  0  0  0  0
   -7.8441   -0.0353   -0.0000 C   0  0  0  0  0  0  0  0  0  0  0  0
    8.9748    0.9540   -0.0000 O   0  0  0  0  0  0  0  0  0  0  0  0
   -9.1632    0.7067   -0.0000 C   0  0  0  0  0  0  0  0  0  0  0  0
   10.2703    0.2356   -0.0000 C   0  0  0  0  0  0  0  0  0  0  0  0
  -10.4588   -0.0471   -0.0000 C   0  0  0  0  0  0  0  0  0  0  0  0
   11.5423    1.0129   -0.0000 C   0  0  0  0  0  0  0  0  0  0  0  0
   10.2821   -1.2485   -0.0000 C   0  0  0  0  0  0  0  0  0  0  0  0
  -11.7779    0.6949   -0.0000 C   0  0  0  0  0  0  0  0  0  0  0  0
   11.5070    2.5205   -0.0000 N   0  0  0  0  0  0  0  0  0  0  0  0
  -13.0735   -0.0589   -0.0000 C   0  0  0  0  0  0  0  0  0  0  0  0
   12.6848    3.4274   -0.0000 C   0  0  0  0  0  0  0  0  0  0  0  0
   10.2703    3.3920   -0.0000 C   0  0  0  0  0  0  0  0  0  0  0  0
  -14.3926    0.6831   -0.0000 C   0  0  0  0  0  0  0  0  0  0  0  0
   14.1453    3.1447   -0.0000 N   0  0  0  0  0  0  0  0  0  0  0  0
   12.1901    4.8643   -0.0000 C   0  0  0  0  0  0  0  0  0  0  0  0
   10.6943    4.8289   -0.0000 N   0  0  0  0  0  0  0  0  0  0  0  0
  -15.6882   -0.0707   -0.0000 C   0  0  0  0  0  0  0  0  0  0  0  0
   15.1228    4.2872   -0.0000 C   0  0  0  0  0  0  0  0  0  0  0  0
   13.1559    5.9950   -0.0000 C   0  0  0  0  0  0  0  0  0  0  0  0
  -17.0073    0.6713   -0.0000 C   0  0  0  0  0  0  0  0  0  0  0  0
   14.6282    5.7241   -0.0000 N   0  0  0  0  0  0  0  0  0  0  0  0
   12.6612    7.4201   -0.0000 N   0  0  0  0  0  0  0  0  0  0  0  0
  -18.3029   -0.0824   -0.0000 C   0  0  0  0  0  0  0  0  0  0  0  0
  -19.6220    0.6596   -0.0000 C   0  0  0  0  0  0  0  0  0  0  0  0
  -20.9058   -0.0942   -0.0000 C   0  0  0  0  0  0  0  0  0  0  0  0
    6.8783    4.6169   -0.0000 N   0  0  0  0  0  0  0  0  0  0  0  0
  1  2  1  0  0  0  0
  1  3  1  0  0  0  0
  2  4  1  0  0  0  0
  3  5  1  0  0  0  0
  4  6  1  0  0  0  0
  5  7  1  0  0  0  0
  6  8  1  0  0  0  0
  7  9  1  0  0  0  0
  8 10  1  0  0  0  0
  9 11  1  0  0  0  0
 10 12  2  0  0  0  0
 10 13  1  0  0  0  0
 10 14  1  0  0  0  0
 11 15  1  0  0  0  0
 14 16  1  0  0  0  0
 15 17  1  0  0  0  0
 18 16  1  6  0  0  0
 17 19  1  0  0  0  0
 18 20  1  0  0  0  0
 18 21  1  0  0  0  0
 19 22  1  0  0  0  0
 20 23  1  0  0  0  0
 22 24  1  0  0  0  0
 23 25  1  0  0  0  0
 23 26  1  0  0  0  0
 24 27  1  0  0  0  0
 25 28  2  0  0  0  0
 25 29  1  0  0  0  0
 26 30  2  0  0  0  0
 27 31  1  0  0  0  0
 28 32  1  0  0  0  0
 29 33  2  0  0  0  0
 31 34  1  0  0  0  0
 32 35  2  0  0  0  0
 33 36  1  0  0  0  0
 34 37  1  0  0  0  0
 37 38  1  0  0  0  0
 38 39  1  0  0  0  0
 29 30  1  0  0  0  0
 33 35  1  0  0  0  0
M  END
>  <MolRegNo>
2726952

>  <m>
=

>  <Value>
58000

>  <Unit>
nM

>  <Type>
IC50

>  <pValue>
4.24

>  <Ligand Efficiency>
0

>  <Binding Efficiency>
0

>  <Surface Efficiency>
0

>  <Assay Index>
1524183

>  <Assay Category>


>  <Assay Organism>
Homo sapiens

>  <Target ID>
17045

>  <Target Name>
Cytochrome P450 3A4

>  <Target Organism>
Homo sapiens

>  <Target Description>
Target is a single protein chain

>  <Sequence Accession>
P08684

>  <Reference>
J Med Chem 64 (17.0), 12917-12937 (2021)

>  <Pubmed ID>
34459598

>  <DOI>
10.1021/acs.jmedchem.1c01083

$$$$
2738509
Actelion Java MolfileCreator 1.0

 38 38  0  0  0  0  0  0  0  0999 V2000
    0.0000   -0.0000   -0.0000 P   0  0  0  0  0  0  0  0  0  0  0  0
   -0.7642    1.3050   -0.0000 O   0  0  0  0  0  0  0  0  0  0  0  0
   -1.2933   -0.7525   -0.0000 O   0  0  0  0  0  0  0  0  0  0  0  0
    0.7289    1.3168   -0.0000 O   0  0  0  0  0  0  0  0  0  0  0  0
    1.2933   -0.7172   -0.0000 C   0  0  0  0  0  0  0  0  0  0  0  0
   -2.6101   -0.0118   -0.0000 C   0  0  0  0  0  0  0  0  0  0  0  0
    2.5630    0.0588   -0.0000 O   0  0  0  0  0  0  0  0  0  0  0  0
   -3.9033   -0.7642   -0.0000 C   0  0  0  0  0  0  0  0  0  0  0  0
    3.8563   -0.6584   -0.0000 C   0  0  0  0  0  0  0  0  0  0  0  0
   -5.2201   -0.0235   -0.0000 C   0  0  0  0  0  0  0  0  0  0  0  0
    5.1261    0.1176   -0.0000 C   0  0  0  0  0  0  0  0  0  0  0  0
    3.8681   -2.1398   -0.0000 C   0  0  0  0  0  0  0  0  0  0  0  0
   -6.5134   -0.7760   -0.0000 C   0  0  0  0  0  0  0  0  0  0  0  0
    5.0908    1.6225   -0.0000 N   0  0  0  0  0  0  0  0  0  0  0  0
   -7.8302   -0.0353   -0.0000 C   0  0  0  0  0  0  0  0  0  0  0  0
    6.2665    2.5278   -0.0000 C   0  0  0  0  0  0  0  0  0  0  0  0
    3.8563    2.4925   -0.0000 C   0  0  0  0  0  0  0  0  0  0  0  0
   -9.1235   -0.7877   -0.0000 C   0  0  0  0  0  0  0  0  0  0  0  0
    7.7244    2.2456   -0.0000 N   0  0  0  0  0  0  0  0  0  0  0  0
    5.7727    3.9621   -0.0000 C   0  0  0  0  0  0  0  0  0  0  0  0
    4.2796    3.9269   -0.0000 N   0  0  0  0  0  0  0  0  0  0  0  0
  -10.4403   -0.0470   -0.0000 C   0  0  0  0  0  0  0  0  0  0  0  0
    8.7002    3.3860   -0.0000 C   0  0  0  0  0  0  0  0  0  0  0  0
    6.7368    5.0908   -0.0000 C   0  0  0  0  0  0  0  0  0  0  0  0
  -11.7336   -0.7995   -0.0000 C   0  0  0  0  0  0  0  0  0  0  0  0
    8.2064    4.8204   -0.0000 N   0  0  0  0  0  0  0  0  0  0  0  0
    6.2430    6.5134   -0.0000 N   0  0  0  0  0  0  0  0  0  0  0  0
  -13.0504   -0.0588   -0.0000 C   0  0  0  0  0  0  0  0  0  0  0  0
  -14.3436   -0.8112   -0.0000 C   0  0  0  0  0  0  0  0  0  0  0  0
  -15.6604   -0.0705   -0.0000 C   0  0  0  0  0  0  0  0  0  0  0  0
  -16.9537   -0.8230   -0.0000 C   0  0  0  0  0  0  0  0  0  0  0  0
  -18.2705   -0.0823   -0.0000 C   0  0  0  0  0  0  0  0  0  0  0  0
  -19.5638   -0.8348   -0.0000 C   0  0  0  0  0  0  0  0  0  0  0  0
  -20.8806   -0.0941   -0.0000 C   0  0  0  0  0  0  0  0  0  0  0  0
  -22.1738   -0.8465   -0.0000 C   0  0  0  0  0  0  0  0  0  0  0  0
  -23.4906   -0.1058   -0.0000 C   0  0  0  0  0  0  0  0  0  0  0  0
  -24.8074    0.6349   -0.0000 C   0  0  0  0  0  0  0  0  0  0  0  0
   -0.7525    3.0098   -0.0000 N   0  0  0  0  0  0  0  0  0  0  0  0
  1  2  2  0  0  0  0
  1  3  1  0  0  0  0
  1  4  1  0  0  0  0
  1  5  1  0  0  0  0
  3  6  1  0  0  0  0
  5  7  1  0  0  0  0
  6  8  1  0  0  0  0
  9  7  1  6  0  0  0
  8 10  1  0  0  0  0
  9 11  1  0  0  0  0
  9 12  1  0  0  0  0
 10 13  1  0  0  0  0
 11 14  1  0  0  0  0
 13 15  1  0  0  0  0
 14 16  1  0  0  0  0
 14 17  1  0  0  0  0
 15 18  1  0  0  0  0
 16 19  2  0  0  0  0
 16 20  1  0  0  0  0
 17 21  2  0  0  0  0
 18 22  1  0  0  0  0
 19 23  1  0  0  0  0
 20 24  2  0  0  0  0
 22 25  1  0  0  0  0
 23 26  2  0  0  0  0
 24 27  1  0  0  0  0
 25 28  1  0  0  0  0
 28 29  1  0  0  0  0
 29 30  1  0  0  0  0
 30 31  1  0  0  0  0
 31 32  1  0  0  0  0
 32 33  1  0  0  0  0
 33 34  1  0  0  0  0
 34 35  1  0  0  0  0
 35 36  1  0  0  0  0
 36 37  3  0  0  0  0
 20 21  1  0  0  0  0
 24 26  1  0  0  0  0
M  END
>  <MolRegNo>
2738509

>  <m>
=

>  <Value>
18700

>  <Unit>
nM

>  <Type>
IC50

>  <pValue>
4.73

>  <Ligand Efficiency>
0

>  <Binding Efficiency>
0

>  <Surface Efficiency>
0

>  <Assay Index>
1524183

>  <Assay Category>


>  <Assay Organism>
Homo sapiens

>  <Target ID>
17045

>  <Target Name>
Cytochrome P450 3A4

>  <Target Organism>
Homo sapiens

>  <Target Description>
Target is a single protein chain

>  <Sequence Accession>
P08684

>  <Reference>
J Med Chem 64 (17.0), 12917-12937 (2021)

>  <Pubmed ID>
34459598

>  <DOI>
10.1021/acs.jmedchem.1c01083

$$$$
2739124
Actelion Java MolfileCreator 1.0

 35 35  0  0  0  0  0  0  0  0999 V2000
    0.0000   -0.0000   -0.0000 P   0  0  0  0  0  0  0  0  0  0  0  0
   -0.7647    1.3058   -0.0000 O   0  0  0  0  0  0  0  0  0  0  0  0
   -1.2941   -0.7529   -0.0000 O   0  0  0  0  0  0  0  0  0  0  0  0
    0.7294    1.3176   -0.0000 O   0  0  0  0  0  0  0  0  0  0  0  0
    1.2941   -0.7176   -0.0000 C   0  0  0  0  0  0  0  0  0  0  0  0
   -2.6117   -0.0118   -0.0000 C   0  0  0  0  0  0  0  0  0  0  0  0
    2.5646    0.0588   -0.0000 O   0  0  0  0  0  0  0  0  0  0  0  0
   -3.9058   -0.7647   -0.0000 C   0  0  0  0  0  0  0  0  0  0  0  0
    3.8587   -0.6588   -0.0000 C   0  0  0  0  0  0  0  0  0  0  0  0
   -5.2234   -0.0235   -0.0000 C   0  0  0  0  0  0  0  0  0  0  0  0
    5.1293    0.1176   -0.0000 C   0  0  0  0  0  0  0  0  0  0  0  0
    3.8705   -2.1411   -0.0000 C   0  0  0  0  0  0  0  0  0  0  0  0
   -6.5174   -0.7764   -0.0000 C   0  0  0  0  0  0  0  0  0  0  0  0
    5.0940    1.6235   -0.0000 N   0  0  0  0  0  0  0  0  0  0  0  0
   -7.8351   -0.0353   -0.0000 C   0  0  0  0  0  0  0  0  0  0  0  0
    6.2704    2.5293   -0.0000 C   0  0  0  0  0  0  0  0  0  0  0  0
    3.8587    2.4940   -0.0000 C   0  0  0  0  0  0  0  0  0  0  0  0
   -9.1291   -0.7882   -0.0000 C   0  0  0  0  0  0  0  0  0  0  0  0
    7.7292    2.2470   -0.0000 N   0  0  0  0  0  0  0  0  0  0  0  0
    5.7763    3.9646   -0.0000 C   0  0  0  0  0  0  0  0  0  0  0  0
    4.2822    3.9293   -0.0000 N   0  0  0  0  0  0  0  0  0  0  0  0
  -10.4467   -0.0471   -0.0000 C   0  0  0  0  0  0  0  0  0  0  0  0
    8.7056    3.3881   -0.0000 C   0  0  0  0  0  0  0  0  0  0  0  0
    6.7410    5.0940   -0.0000 C   0  0  0  0  0  0  0  0  0  0  0  0
  -11.7408   -0.8000   -0.0000 C   0  0  0  0  0  0  0  0  0  0  0  0
    8.2115    4.8234   -0.0000 N   0  0  0  0  0  0  0  0  0  0  0  0
    6.2469    6.5174   -0.0000 N   0  0  0  0  0  0  0  0  0  0  0  0
  -13.0584   -0.0588   -0.0000 C   0  0  0  0  0  0  0  0  0  0  0  0
  -14.3525   -0.8117   -0.0000 C   0  0  0  0  0  0  0  0  0  0  0  0
  -15.6701   -0.0706   -0.0000 C   0  0  0  0  0  0  0  0  0  0  0  0
  -16.9642   -0.8235   -0.0000 C   0  0  0  0  0  0  0  0  0  0  0  0
  -18.2818   -0.0824   -0.0000 C   0  0  0  0  0  0  0  0  0  0  0  0
  -19.5759   -0.8353   -0.0000 C   0  0  0  0  0  0  0  0  0  0  0  0
  -20.8699   -1.5882   -0.0000 C   0  0  0  0  0  0  0  0  0  0  0  0
    1.7882    3.1058   -0.0000 N   0  0  0  0  0  0  0  0  0  0  0  0
  1  2  2  0  0  0  0
  1  3  1  0  0  0  0
  1  4  1  0  0  0  0
  1  5  1  0  0  0  0
  3  6  1  0  0  0  0
  5  7  1  0  0  0  0
  6  8  1  0  0  0  0
  9  7  1  6  0  0  0
  8 10  1  0  0  0  0
  9 11  1  0  0  0  0
  9 12  1  0  0  0  0
 10 13  1  0  0  0  0
 11 14  1  0  0  0  0
 13 15  1  0  0  0  0
 14 16  1  0  0  0  0
 14 17  1  0  0  0  0
 15 18  1  0  0  0  0
 16 19  2  0  0  0  0
 16 20  1  0  0  0  0
 17 21  2  0  0  0  0
 18 22  1  0  0  0  0
 19 23  1  0  0  0  0
 20 24  2  0  0  0  0
 22 25  1  0  0  0  0
 23 26  2  0  0  0  0
 24 27  1  0  0  0  0
 25 28  1  0  0  0  0
 28 29  1  0  0  0  0
 29 30  1  0  0  0  0
 30 31  1  0  0  0  0
 31 32  1  0  0  0  0
 32 33  1  0  0  0  0
 33 34  3  0  0  0  0
 20 21  1  0  0  0  0
 24 26  1  0  0  0  0
M  END
>  <MolRegNo>
2739124

>  <m>
=

>  <Value>
54800

>  <Unit>
nM

>  <Type>
IC50

>  <pValue>
4.26

>  <Ligand Efficiency>
0

>  <Binding Efficiency>
0

>  <Surface Efficiency>
0

>  <Assay Index>
1524183

>  <Assay Category>


>  <Assay Organism>
Homo sapiens

>  <Target ID>
17045

>  <Target Name>
Cytochrome P450 3A4

>  <Target Organism>
Homo sapiens

>  <Target Description>
Target is a single protein chain

>  <Sequence Accession>
P08684

>  <Reference>
J Med Chem 64 (17.0), 12917-12937 (2021)

>  <Pubmed ID>
34459598

>  <DOI>
10.1021/acs.jmedchem.1c01083

$$$$
2724544
Actelion Java MolfileCreator 1.0

 42 42  0  0  0  0  0  0  0  0999 V2000
    0.0000   -0.0000   -0.0000 P   0  0  0  0  0  0  0  0  0  0  0  0
   -0.7641    1.3048   -0.0000 O   0  0  0  0  0  0  0  0  0  0  0  0
   -1.2930   -0.7523   -0.0000 O   0  0  0  0  0  0  0  0  0  0  0  0
    0.7288    1.3165   -0.0000 O   0  0  0  0  0  0  0  0  0  0  0  0
    1.2930   -0.7170   -0.0000 C   0  0  0  0  0  0  0  0  0  0  0  0
   -2.6095   -0.0118   -0.0000 C   0  0  0  0  0  0  0  0  0  0  0  0
    2.5625    0.0588   -0.0000 O   0  0  0  0  0  0  0  0  0  0  0  0
   -3.9025   -0.7641   -0.0000 C   0  0  0  0  0  0  0  0  0  0  0  0
    3.8555   -0.6583   -0.0000 C   0  0  0  0  0  0  0  0  0  0  0  0
   -5.2191   -0.0235   -0.0000 C   0  0  0  0  0  0  0  0  0  0  0  0
    5.1250    0.1175   -0.0000 C   0  0  0  0  0  0  0  0  0  0  0  0
    3.8673   -2.1393   -0.0000 C   0  0  0  0  0  0  0  0  0  0  0  0
   -6.5121   -0.7758   -0.0000 C   0  0  0  0  0  0  0  0  0  0  0  0
    5.0898    1.6221   -0.0000 N   0  0  0  0  0  0  0  0  0  0  0  0
   -7.8286   -0.0353   -0.0000 C   0  0  0  0  0  0  0  0  0  0  0  0
    6.2652    2.5272   -0.0000 C   0  0  0  0  0  0  0  0  0  0  0  0
    3.8555    2.4920   -0.0000 C   0  0  0  0  0  0  0  0  0  0  0  0
   -9.1216   -0.7876   -0.0000 C   0  0  0  0  0  0  0  0  0  0  0  0
    7.7228    2.2451   -0.0000 N   0  0  0  0  0  0  0  0  0  0  0  0
    5.7715    3.9613   -0.0000 C   0  0  0  0  0  0  0  0  0  0  0  0
    4.2787    3.9260   -0.0000 N   0  0  0  0  0  0  0  0  0  0  0  0
  -10.4381   -0.0470   -0.0000 C   0  0  0  0  0  0  0  0  0  0  0  0
    8.6984    3.3853   -0.0000 C   0  0  0  0  0  0  0  0  0  0  0  0
    6.7354    5.0898   -0.0000 C   0  0  0  0  0  0  0  0  0  0  0  0
  -11.7311   -0.7993   -0.0000 C   0  0  0  0  0  0  0  0  0  0  0  0
    8.2047    4.8194   -0.0000 N   0  0  0  0  0  0  0  0  0  0  0  0
    6.2417    6.5121   -0.0000 N   0  0  0  0  0  0  0  0  0  0  0  0
  -13.0476   -0.0588   -0.0000 C   0  0  0  0  0  0  0  0  0  0  0  0
  -14.3407   -0.8111   -0.0000 C   0  0  0  0  0  0  0  0  0  0  0  0
  -15.6572   -0.0705   -0.0000 C   0  0  0  0  0  0  0  0  0  0  0  0
  -16.9502   -0.8228   -0.0000 C   0  0  0  0  0  0  0  0  0  0  0  0
  -18.2667   -0.0823   -0.0000 C   0  0  0  0  0  0  0  0  0  0  0  0
  -19.5597   -0.8346   -0.0000 C   0  0  0  0  0  0  0  0  0  0  0  0
  -20.8762   -0.0940   -0.0000 C   0  0  0  0  0  0  0  0  0  0  0  0
  -22.1692   -0.8463   -0.0000 C   0  0  0  0  0  0  0  0  0  0  0  0
  -23.4858   -0.1058   -0.0000 C   0  0  0  0  0  0  0  0  0  0  0  0
  -24.8023    0.6348   -0.0000 C   0  0  0  0  0  0  0  0  0  0  0  0
  -26.1188    1.3753   -0.0000 Si  0  0  0  0  0  0  0  0  0  0  0  0
  -26.8828    0.0940   -0.0000 C   0  0  0  0  0  0  0  0  0  0  0  0
  -27.6234    1.3988   -0.0000 C   0  0  0  0  0  0  0  0  0  0  0  0
  -26.1423    2.8799   -0.0000 C   0  0  0  0  0  0  0  0  0  0  0  0
    1.9748    2.4450   -0.0000 N   0  0  0  0  0  0  0  0  0  0  0  0
  1  2  2  0  0  0  0
  1  3  1  0  0  0  0
  1  4  1  0  0  0  0
  1  5  1  0  0  0  0
  3  6  1  0  0  0  0
  5  7  1  0  0  0  0
  6  8  1  0  0  0  0
  9  7  1  6  0  0  0
  8 10  1  0  0  0  0
  9 11  1  0  0  0  0
  9 12  1  0  0  0  0
 10 13  1  0  0  0  0
 11 14  1  0  0  0  0
 13 15  1  0  0  0  0
 14 16  1  0  0  0  0
 14 17  1  0  0  0  0
 15 18  1  0  0  0  0
 16 19  2  0  0  0  0
 16 20  1  0  0  0  0
 17 21  2  0  0  0  0
 18 22  1  0  0  0  0
 19 23  1  0  0  0  0
 20 24  2  0  0  0  0
 22 25  1  0  0  0  0
 23 26  2  0  0  0  0
 24 27  1  0  0  0  0
 25 28  1  0  0  0  0
 28 29  1  0  0  0  0
 29 30  1  0  0  0  0
 30 31  1  0  0  0  0
 31 32  1  0  0  0  0
 32 33  1  0  0  0  0
 33 34  1  0  0  0  0
 34 35  1  0  0  0  0
 35 36  1  0  0  0  0
 36 37  3  0  0  0  0
 37 38  1  0  0  0  0
 38 39  1  0  0  0  0
 38 40  1  0  0  0  0
 38 41  1  0  0  0  0
 20 21  1  0  0  0  0
 24 26  1  0  0  0  0
M  END
>  <MolRegNo>
2724544

>  <m>
=

>  <Value>
27000

>  <Unit>
nM

>  <Type>
IC50

>  <pValue>
4.57

>  <Ligand Efficiency>
0

>  <Binding Efficiency>
0

>  <Surface Efficiency>
0

>  <Assay Index>
1524183

>  <Assay Category>


>  <Assay Organism>
Homo sapiens

>  <Target ID>
17045

>  <Target Name>
Cytochrome P450 3A4

>  <Target Organism>
Homo sapiens

>  <Target Description>
Target is a single protein chain

>  <Sequence Accession>
P08684

>  <Reference>
J Med Chem 64 (17.0), 12917-12937 (2021)

>  <Pubmed ID>
34459598

>  <DOI>
10.1021/acs.jmedchem.1c01083

$$$$
2717820
Actelion Java MolfileCreator 1.0

 43 43  0  0  0  0  0  0  0  0999 V2000
    0.0000   -0.0000   -0.0000 P   0  0  0  0  0  0  0  0  0  0  0  0
   -0.7650    1.3064   -0.0000 O   0  0  0  0  0  0  0  0  0  0  0  0
   -1.2946   -0.7532   -0.0000 O   0  0  0  0  0  0  0  0  0  0  0  0
    0.7297    1.3182   -0.0000 O   0  0  0  0  0  0  0  0  0  0  0  0
    1.2946   -0.7179   -0.0000 C   0  0  0  0  0  0  0  0  0  0  0  0
   -2.6128   -0.0118   -0.0000 C   0  0  0  0  0  0  0  0  0  0  0  0
    2.5657    0.0588   -0.0000 O   0  0  0  0  0  0  0  0  0  0  0  0
   -3.9074   -0.7650   -0.0000 C   0  0  0  0  0  0  0  0  0  0  0  0
    3.8603   -0.6591   -0.0000 C   0  0  0  0  0  0  0  0  0  0  0  0
   -5.2255   -0.0235   -0.0000 C   0  0  0  0  0  0  0  0  0  0  0  0
    5.1314    0.1177   -0.0000 C   0  0  0  0  0  0  0  0  0  0  0  0
    3.8721   -2.1420   -0.0000 C   0  0  0  0  0  0  0  0  0  0  0  0
   -6.5202   -0.7768   -0.0000 O   0  0  0  0  0  0  0  0  0  0  0  0
    5.0961    1.6242   -0.0000 N   0  0  0  0  0  0  0  0  0  0  0  0
   -7.8383   -0.0353   -0.0000 C   0  0  0  0  0  0  0  0  0  0  0  0
    6.2730    2.5304   -0.0000 C   0  0  0  0  0  0  0  0  0  0  0  0
    3.8603    2.4951   -0.0000 C   0  0  0  0  0  0  0  0  0  0  0  0
   -9.1329   -0.7885   -0.0000 C   0  0  0  0  0  0  0  0  0  0  0  0
    7.7324    2.2479   -0.0000 N   0  0  0  0  0  0  0  0  0  0  0  0
    5.7787    3.9662   -0.0000 C   0  0  0  0  0  0  0  0  0  0  0  0
    4.2840    3.9309   -0.0000 N   0  0  0  0  0  0  0  0  0  0  0  0
  -10.4511   -0.0471   -0.0000 C   0  0  0  0  0  0  0  0  0  0  0  0
    8.7092    3.3895   -0.0000 C   0  0  0  0  0  0  0  0  0  0  0  0
    6.7438    5.0961   -0.0000 C   0  0  0  0  0  0  0  0  0  0  0  0
  -11.7457   -0.8003   -0.0000 C   0  0  0  0  0  0  0  0  0  0  0  0
    8.2149    4.8254   -0.0000 N   0  0  0  0  0  0  0  0  0  0  0  0
    6.2495    6.5202   -0.0000 N   0  0  0  0  0  0  0  0  0  0  0  0
  -13.0638   -0.0588   -0.0000 C   0  0  0  0  0  0  0  0  0  0  0  0
  -14.3585   -0.8121   -0.0000 C   0  0  0  0  0  0  0  0  0  0  0  0
  -15.6766   -0.0706   -0.0000 C   0  0  0  0  0  0  0  0  0  0  0  0
  -16.9712   -0.8238   -0.0000 C   0  0  0  0  0  0  0  0  0  0  0  0
  -18.2894   -0.0824   -0.0000 C   0  0  0  0  0  0  0  0  0  0  0  0
  -19.5840   -0.8356   -0.0000 C   0  0  0  0  0  0  0  0  0  0  0  0
  -20.9021   -0.0942   -0.0000 C   0  0  0  0  0  0  0  0  0  0  0  0
  -22.1968   -0.8474   -0.0000 C   0  0  0  0  0  0  0  0  0  0  0  0
  -23.5149   -0.1059   -0.0000 C   0  0  0  0  0  0  0  0  0  0  0  0
  -24.8095   -0.8592   -0.0000 C   0  0  0  0  0  0  0  0  0  0  0  0
  -26.1041   -1.6124   -0.0000 C   0  0  0  0  0  0  0  0  0  0  0  0
  -27.4105   -2.3538   -0.0000 C   0  0  0  0  0  0  0  0  0  0  0  0
  -26.6808   -3.6367   -0.0000 F   0  0  0  0  0  0  0  0  0  0  0  0
  -28.1755   -3.6249   -0.0000 F   0  0  0  0  0  0  0  0  0  0  0  0
  -28.7169   -1.6242   -0.0000 F   0  0  0  0  0  0  0  0  0  0  0  0
    0.1883    3.5778   -0.0000 N   0  0  0  0  0  0  0  0  0  0  0  0
  1  2  2  0  0  0  0
  1  3  1  0  0  0  0
  1  4  1  0  0  0  0
  1  5  1  0  0  0  0
  3  6  1  0  0  0  0
  5  7  1  0  0  0  0
  6  8  1  0  0  0  0
  9  7  1  6  0  0  0
  8 10  1  0  0  0  0
  9 11  1  0  0  0  0
  9 12  1  0  0  0  0
 10 13  1  0  0  0  0
 11 14  1  0  0  0  0
 13 15  1  0  0  0  0
 14 16  1  0  0  0  0
 14 17  1  0  0  0  0
 15 18  1  0  0  0  0
 16 19  2  0  0  0  0
 16 20  1  0  0  0  0
 17 21  2  0  0  0  0
 18 22  1  0  0  0  0
 19 23  1  0  0  0  0
 20 24  2  0  0  0  0
 22 25  1  0  0  0  0
 23 26  2  0  0  0  0
 24 27  1  0  0  0  0
 25 28  1  0  0  0  0
 28 29  1  0  0  0  0
 29 30  1  0  0  0  0
 30 31  1  0  0  0  0
 31 32  1  0  0  0  0
 32 33  1  0  0  0  0
 33 34  1  0  0  0  0
 34 35  1  0  0  0  0
 35 36  1  0  0  0  0
 36 37  1  0  0  0  0
 37 38  3  0  0  0  0
 38 39  1  0  0  0  0
 39 40  1  0  0  0  0
 39 41  1  0  0  0  0
 39 42  1  0  0  0  0
 20 21  1  0  0  0  0
 24 26  1  0  0  0  0
M  END
>  <MolRegNo>
2717820

>  <m>
=

>  <Value>
12000

>  <Unit>
nM

>  <Type>
IC50

>  <pValue>
4.92

>  <Ligand Efficiency>
0

>  <Binding Efficiency>
0

>  <Surface Efficiency>
0

>  <Assay Index>
1524183

>  <Assay Category>


>  <Assay Organism>
Homo sapiens

>  <Target ID>
17045

>  <Target Name>
Cytochrome P450 3A4

>  <Target Organism>
Homo sapiens

>  <Target Description>
Target is a single protein chain

>  <Sequence Accession>
P08684

>  <Reference>
J Med Chem 64 (17.0), 12917-12937 (2021)

>  <Pubmed ID>
34459598

>  <DOI>
10.1021/acs.jmedchem.1c01083

$$$$
2734333
Actelion Java MolfileCreator 1.0

 24 26  0  0  0  0  0  0  0  0999 V2000
    0.0000   -0.0000   -0.0000 Cl  0  0  0  0  0  0  0  0  0  0  0  0
    1.2863    0.7453   -0.0000 C   0  0  0  0  0  0  0  0  0  0  0  0
    1.2742    2.2840   -0.0000 C   0  0  0  0  0  0  0  0  0  0  0  0
    2.5725   -0.0120   -0.0000 C   0  0  0  0  0  0  0  0  0  0  0  0
    2.5485    3.0654   -0.0000 C   0  0  0  0  0  0  0  0  0  0  0  0
    3.8467    0.7693   -0.0000 C   0  0  0  0  0  0  0  0  0  0  0  0
    3.8227    2.3080   -0.0000 C   0  0  0  0  0  0  0  0  0  0  0  0
    5.0969    3.0894   -0.0000 C   0  0  0  0  0  0  0  0  0  0  0  0
    6.3712    2.3321   -0.0000 N   0  0  0  0  0  0  0  0  0  0  0  0
    5.0849    4.5920   -0.0000 C   0  0  0  0  0  0  0  0  0  0  0  0
    7.6454    3.1135   -0.0000 C   0  0  0  0  0  0  0  0  0  0  0  0
    6.3591    0.8535   -0.0000 C   0  0  0  0  0  0  0  0  0  0  0  0
    6.3712    5.3374   -0.0000 C   0  0  0  0  0  0  0  0  0  0  0  0
    3.7866    5.3374   -0.0000 C   0  0  0  0  0  0  0  0  0  0  0  0
    7.6334    4.6522   -0.0000 O   0  0  0  0  0  0  0  0  0  0  0  0
    8.9196    2.3561   -0.0000 C   0  0  0  0  0  0  0  0  0  0  0  0
    6.3591    6.8400   -0.0000 C   0  0  0  0  0  0  0  0  0  0  0  0
    3.7746    6.8400   -0.0000 C   0  0  0  0  0  0  0  0  0  0  0  0
   10.1939    3.1375   -0.0000 N   0  0  0  0  0  0  0  0  0  0  0  0
    5.0609    7.5973   -0.0000 C   0  0  0  0  0  0  0  0  0  0  0  0
   10.3381    4.6642   -0.0000 C   0  0  0  0  0  0  0  0  0  0  0  0
   11.5402    2.5244   -0.0000 C   0  0  0  0  0  0  0  0  0  0  0  0
   11.7807    4.9887   -0.0000 N   0  0  0  0  0  0  0  0  0  0  0  0
   12.5260    3.6664   -0.0000 C   0  0  0  0  0  0  0  0  0  0  0  0
  1  2  1  0  0  0  0
  2  3  2  0  0  0  0
  2  4  1  0  0  0  0
  3  5  1  0  0  0  0
  4  6  2  0  0  0  0
  5  7  2  0  0  0  0
  7  8  1  0  0  0  0
  8  9  1  0  0  0  0
  8 10  1  0  0  0  0
  9 11  1  0  0  0  0
  9 12  1  0  0  0  0
 10 13  2  0  0  0  0
 10 14  1  0  0  0  0
 11 15  2  0  0  0  0
 11 16  1  0  0  0  0
 13 17  1  0  0  0  0
 14 18  2  0  0  0  0
 16 19  1  0  0  0  0
 17 20  2  0  0  0  0
 19 21  1  0  0  0  0
 19 22  1  0  0  0  0
 21 23  2  0  0  0  0
 22 24  2  0  0  0  0
  6  7  1  0  0  0  0
 18 20  1  0  0  0  0
 23 24  1  0  0  0  0
M  END
>  <MolRegNo>
2734333

>  <m>
=

>  <Value>
180

>  <Unit>
nM

>  <Type>
IC50

>  <pValue>
6.75

>  <Ligand Efficiency>
0

>  <Binding Efficiency>
0

>  <Surface Efficiency>
0

>  <Assay Index>
1524213

>  <Assay Category>


>  <Assay Organism>
Homo sapiens

>  <Target ID>
17045

>  <Target Name>
Cytochrome P450 3A4

>  <Target Organism>
Homo sapiens

>  <Target Description>
Target is a single protein chain

>  <Sequence Accession>
P08684

>  <Reference>
J Med Chem 64 (18.0), 13373-13393 (2021)

>  <Pubmed ID>
34472337

>  <DOI>
10.1021/acs.jmedchem.1c00633

$$$$
2740996
Actelion Java MolfileCreator 1.0

 31 35  0  0  0  0  0  0  0  0999 V2000
    0.0000   -0.0000   -0.0000 Cl  0  0  0  0  0  0  0  0  0  0  0  0
   -1.3121    0.7565   -0.0000 C   0  0  0  0  0  0  0  0  0  0  0  0
   -1.3239    2.2577   -0.0000 C   0  0  0  0  0  0  0  0  0  0  0  0
   -2.6123    0.0118   -0.0000 C   0  0  0  0  0  0  0  0  0  0  0  0
   -2.6360    3.0142   -0.0000 C   0  0  0  0  0  0  0  0  0  0  0  0
   -3.9244    0.7801   -0.0000 C   0  0  0  0  0  0  0  0  0  0  0  0
   -2.6478    4.5154   -0.0000 F   0  0  0  0  0  0  0  0  0  0  0  0
   -3.9362    2.2813   -0.0000 C   0  0  0  0  0  0  0  0  0  0  0  0
   -5.2365    0.0473   -0.0000 N   0  0  0  0  0  0  0  0  0  0  0  0
   -6.5485    0.8038   -0.0000 C   0  0  0  0  0  0  0  0  0  0  0  0
   -7.8606    0.0709   -0.0000 C   0  0  0  0  0  0  0  0  0  0  0  0
   -6.5603    2.3050   -0.0000 C   0  0  0  0  0  0  0  0  0  0  0  0
   -7.8724   -1.4066   -0.0000 O   0  0  0  0  0  0  0  0  0  0  0  0
   -9.1727    0.8274   -0.0000 N   0  0  0  0  0  0  0  0  0  0  0  0
   -7.8724    3.0615   -0.0000 C   0  0  0  0  0  0  0  0  0  0  0  0
  -10.4847    0.0946   -0.0000 C   0  0  0  0  0  0  0  0  0  0  0  0
   -9.1845    2.3286   -0.0000 C   0  0  0  0  0  0  0  0  0  0  0  0
  -10.4965   -1.3830   -0.0000 C   0  0  0  0  0  0  0  0  0  0  0  0
  -11.7968    0.8511   -0.0000 C   0  0  0  0  0  0  0  0  0  0  0  0
  -11.8086   -2.1159   -0.0000 N   0  0  0  0  0  0  0  0  0  0  0  0
  -13.1089    0.1182   -0.0000 C   0  0  0  0  0  0  0  0  0  0  0  0
  -11.8204   -3.5934   -0.0000 C   0  0  0  0  0  0  0  0  0  0  0  0
  -13.1207   -1.3594   -0.0000 C   0  0  0  0  0  0  0  0  0  0  0  0
  -10.5438   -4.3263   -0.0000 N   0  0  0  0  0  0  0  0  0  0  0  0
  -13.1325   -4.3263   -0.0000 C   0  0  0  0  0  0  0  0  0  0  0  0
  -10.5556   -5.8038   -0.0000 C   0  0  0  0  0  0  0  0  0  0  0  0
  -13.1443   -5.8157   -0.0000 C   0  0  0  0  0  0  0  0  0  0  0  0
  -14.5746   -3.8653   -0.0000 C   0  0  0  0  0  0  0  0  0  0  0  0
  -11.8559   -6.5367   -0.0000 N   0  0  0  0  0  0  0  0  0  0  0  0
  -14.6219   -6.2648   -0.0000 N   0  0  0  0  0  0  0  0  0  0  0  0
  -15.4848   -5.0710   -0.0000 C   0  0  0  0  0  0  0  0  0  0  0  0
  1  2  1  0  0  0  0
  2  3  2  0  0  0  0
  2  4  1  0  0  0  0
  3  5  1  0  0  0  0
  4  6  2  0  0  0  0
  5  7  1  0  0  0  0
  5  8  2  0  0  0  0
  6  9  1  0  0  0  0
 10  9  1  6  0  0  0
 10 11  1  0  0  0  0
 10 12  1  0  0  0  0
 11 13  2  0  0  0  0
 11 14  1  0  0  0  0
 12 15  1  0  0  0  0
 16 14  1  6  0  0  0
 14 17  1  0  0  0  0
 16 18  1  0  0  0  0
 16 19  1  0  0  0  0
 18 20  1  0  0  0  0
 19 21  1  0  0  0  0
 20 22  1  0  0  0  0
 20 23  1  0  0  0  0
 22 24  2  0  0  0  0
 22 25  1  0  0  0  0
 24 26  1  0  0  0  0
 25 27  2  0  0  0  0
 25 28  1  0  0  0  0
 26 29  2  0  0  0  0
 27 30  1  0  0  0  0
 28 31  2  0  0  0  0
  6  8  1  0  0  0  0
 15 17  1  0  0  0  0
 21 23  1  0  0  0  0
 27 29  1  0  0  0  0
 30 31  1  0  0  0  0
M  END
>  <MolRegNo>
2740996

>  <m>
=

>  <Value>
1300

>  <Unit>
nM

>  <Type>
IC50

>  <pValue>
5.89

>  <Ligand Efficiency>
0

>  <Binding Efficiency>
0

>  <Surface Efficiency>
0

>  <Assay Index>
1529837

>  <Assay Category>


>  <Assay Organism>
Homo sapiens

>  <Target ID>
17045

>  <Target Name>
Cytochrome P450 3A4

>  <Target Organism>
Homo sapiens

>  <Target Description>
Target is a single protein chain

>  <Sequence Accession>
P08684

>  <Reference>


>  <Pubmed ID>
34314938

>  <DOI>
10.1016/j.bmc.2021.116275

$$$$
2745510
Actelion Java MolfileCreator 1.0

 33 37  0  0  0  0  0  0  0  0999 V2000
    0.0000   -0.0000   -0.0000 F   0  0  0  0  0  0  0  0  0  0  0  0
   -1.0752   -1.0516   -0.0000 C   0  0  0  0  0  0  0  0  0  0  0  0
   -2.5876   -0.7444   -0.0000 C   0  0  0  0  0  0  0  0  0  0  0  0
   -0.6380   -2.4458   -0.0000 C   0  0  0  0  0  0  0  0  0  0  0  0
   -2.9894    0.7208   -0.0000 F   0  0  0  0  0  0  0  0  0  0  0  0
   -3.6038   -1.8314   -0.0000 C   0  0  0  0  0  0  0  0  0  0  0  0
    0.8035   -2.7885   -0.0000 C   0  0  0  0  0  0  0  0  0  0  0  0
   -1.6542   -3.5801   -0.0000 C   0  0  0  0  0  0  0  0  0  0  0  0
   -3.1193   -3.2257   -0.0000 C   0  0  0  0  0  0  0  0  0  0  0  0
    1.9378   -1.7723   -0.0000 N   0  0  0  0  0  0  0  0  0  0  0  0
    1.3942   -4.1237   -0.0000 C   0  0  0  0  0  0  0  0  0  0  0  0
   -4.1946   -4.2773   -0.0000 C   0  0  0  0  0  0  0  0  0  0  0  0
    1.9259   -0.2599   -0.0000 N   0  0  0  0  0  0  0  0  0  0  0  0
    3.2257   -2.5049   -0.0000 C   0  0  0  0  0  0  0  0  0  0  0  0
    2.8830   -3.9582   -0.0000 N   0  0  0  0  0  0  0  0  0  0  0  0
   -5.6597   -3.8755   -0.0000 O   0  0  0  0  0  0  0  0  0  0  0  0
   -3.8165   -5.7188   -0.0000 N   0  0  0  0  0  0  0  0  0  0  0  0
    3.2139    0.4963   -0.0000 C   0  0  0  0  0  0  0  0  0  0  0  0
    4.5136   -1.7487   -0.0000 C   0  0  0  0  0  0  0  0  0  0  0  0
   -2.3749   -6.0969   -0.0000 C   0  0  0  0  0  0  0  0  0  0  0  0
    3.2020    2.0087   -0.0000 O   0  0  0  0  0  0  0  0  0  0  0  0
    4.5018   -0.2363   -0.0000 C   0  0  0  0  0  0  0  0  0  0  0  0
    1.8905    2.7649   -0.0000 C   0  0  0  0  0  0  0  0  0  0  0  0
    5.7897    0.5199   -0.0000 C   0  0  0  0  0  0  0  0  0  0  0  0
    1.5478    4.2300   -0.0000 C   0  0  0  0  0  0  0  0  0  0  0  0
    0.5790    2.0205   -0.0000 C   0  0  0  0  0  0  0  0  0  0  0  0
    7.1248   -0.0709   -0.0000 C   0  0  0  0  0  0  0  0  0  0  0  0
    5.9314    2.0323   -0.0000 C   0  0  0  0  0  0  0  0  0  0  0  0
    0.0354    4.4072   -0.0000 O   0  0  0  0  0  0  0  0  0  0  0  0
   -0.5553    3.0721   -0.0000 C   0  0  0  0  0  0  0  0  0  0  0  0
    8.1173    1.0870   -0.0000 N   0  0  0  0  0  0  0  0  0  0  0  0
    7.3730    2.3986   -0.0000 N   0  0  0  0  0  0  0  0  0  0  0  0
    7.9637    3.7574   -0.0000 C   0  0  0  0  0  0  0  0  0  0  0  0
  1  2  1  0  0  0  0
  2  3  2  0  0  0  0
  2  4  1  0  0  0  0
  3  5  1  0  0  0  0
  3  6  1  0  0  0  0
  4  7  1  0  0  0  0
  4  8  2  0  0  0  0
  6  9  2  0  0  0  0
  7 10  1  0  0  0  0
  7 11  2  0  0  0  0
  9 12  1  0  0  0  0
 10 13  1  0  0  0  0
 10 14  1  0  0  0  0
 11 15  1  0  0  0  0
 12 16  2  0  0  0  0
 12 17  1  0  0  0  0
 13 18  2  0  0  0  0
 14 19  1  0  0  0  0
 17 20  1  0  0  0  0
 18 21  1  0  0  0  0
 18 22  1  0  0  0  0
 23 21  1  1  0  0  0
 22 24  1  0  0  0  0
 23 25  1  0  0  0  0
 23 26  1  0  0  0  0
 24 27  1  0  0  0  0
 24 28  2  0  0  0  0
 25 29  1  0  0  0  0
 26 30  1  0  0  0  0
 27 31  2  0  0  0  0
 28 32  1  0  0  0  0
 32 33  1  0  0  0  0
  8  9  1  0  0  0  0
 14 15  2  0  0  0  0
 19 22  2  0  0  0  0
 29 30  1  0  0  0  0
 31 32  1  0  0  0  0
M  END
>  <MolRegNo>
2745510

>  <m>
=

>  <Value>
3900

>  <Unit>
nM

>  <Type>
IC50

>  <pValue>
5.41

>  <Ligand Efficiency>
0.22

>  <Binding Efficiency>
11.9

>  <Surface Efficiency>
5.66

>  <Assay Index>
1531763

>  <Assay Category>


>  <Assay Organism>
Homo sapiens

>  <Target ID>
17045

>  <Target Name>
Cytochrome P450 3A4

>  <Target Organism>
Homo sapiens

>  <Target Description>
Target is a single protein chain

>  <Sequence Accession>
P08684

>  <Reference>
J Med Chem 65 (22.0), 15433-15442 (2022)

>  <Pubmed ID>
36356320

>  <DOI>
10.1021/acs.jmedchem.2c01366

$$$$
2774258
Actelion Java MolfileCreator 1.0

 33 37  0  0  0  0  0  0  0  0999 V2000
    0.0000   -0.0000   -0.0000 O   0  0  0  0  0  0  0  0  0  0  0  0
    1.4426   -0.3784   -0.0000 C   0  0  0  0  0  0  0  0  0  0  0  0
    1.8210   -1.8210   -0.0000 N   0  0  0  0  0  0  0  0  0  0  0  0
    2.4950    0.6977   -0.0000 C   0  0  0  0  0  0  0  0  0  0  0  0
    3.2636   -2.1994   -0.0000 C   0  0  0  0  0  0  0  0  0  0  0  0
    1.9865    2.1048   -0.0000 C   0  0  0  0  0  0  0  0  0  0  0  0
    3.9376    0.3547   -0.0000 C   0  0  0  0  0  0  0  0  0  0  0  0
    2.9798    3.2163   -0.0000 N   0  0  0  0  0  0  0  0  0  0  0  0
    4.9309    1.5136   -0.0000 C   0  0  0  0  0  0  0  0  0  0  0  0
    4.4697    2.9325   -0.0000 C   0  0  0  0  0  0  0  0  0  0  0  0
    6.3735    1.1706   -0.0000 C   0  0  0  0  0  0  0  0  0  0  0  0
    7.5087    2.1876   -0.0000 C   0  0  0  0  0  0  0  0  0  0  0  0
    6.9647   -0.1655   -0.0000 C   0  0  0  0  0  0  0  0  0  0  0  0
    7.4968    3.7011   -0.0000 N   0  0  0  0  0  0  0  0  0  0  0  0
    8.7976    1.4544   -0.0000 N   0  0  0  0  0  0  0  0  0  0  0  0
    8.4546   -0.0000   -0.0000 N   0  0  0  0  0  0  0  0  0  0  0  0
    8.7857    4.4579   -0.0000 C   0  0  0  0  0  0  0  0  0  0  0  0
   10.0864    2.2112   -0.0000 C   0  0  0  0  0  0  0  0  0  0  0  0
    8.7739    5.9715   -0.0000 O   0  0  0  0  0  0  0  0  0  0  0  0
   10.0746    3.7248   -0.0000 C   0  0  0  0  0  0  0  0  0  0  0  0
    7.4614    6.7282   -0.0000 C   0  0  0  0  0  0  0  0  0  0  0  0
   11.3635    4.4816   -0.0000 C   0  0  0  0  0  0  0  0  0  0  0  0
    7.1185    8.1945   -0.0000 C   0  0  0  0  0  0  0  0  0  0  0  0
    6.1488    5.9833   -0.0000 C   0  0  0  0  0  0  0  0  0  0  0  0
   12.6997    3.8903   -0.0000 C   0  0  0  0  0  0  0  0  0  0  0  0
   11.5054    5.9951   -0.0000 C   0  0  0  0  0  0  0  0  0  0  0  0
    5.6049    8.3719   -0.0000 O   0  0  0  0  0  0  0  0  0  0  0  0
    5.0137    7.0357   -0.0000 C   0  0  0  0  0  0  0  0  0  0  0  0
   13.6930    5.0491   -0.0000 N   0  0  0  0  0  0  0  0  0  0  0  0
   12.9480    6.3617   -0.0000 N   0  0  0  0  0  0  0  0  0  0  0  0
   13.5392    7.7215   -0.0000 C   0  0  0  0  0  0  0  0  0  0  0  0
   12.6406    8.9513   -0.0000 C   0  0  0  0  0  0  0  0  0  0  0  0
   15.0292    7.7333   -0.0000 C   0  0  0  0  0  0  0  0  0  0  0  0
  1  2  2  0  0  0  0
  2  3  1  0  0  0  0
  2  4  1  0  0  0  0
  3  5  1  0  0  0  0
  4  6  2  0  0  0  0
  4  7  1  0  0  0  0
  6  8  1  0  0  0  0
  7  9  2  0  0  0  0
  8 10  2  0  0  0  0
  9 11  1  0  0  0  0
 11 12  2  0  0  0  0
 11 13  1  0  0  0  0
 12 14  1  0  0  0  0
 12 15  1  0  0  0  0
 13 16  2  0  0  0  0
 14 17  2  0  0  0  0
 15 18  1  0  0  0  0
 17 19  1  0  0  0  0
 17 20  1  0  0  0  0
 21 19  1  1  0  0  0
 20 22  1  0  0  0  0
 21 23  1  0  0  0  0
 21 24  1  0  0  0  0
 22 25  1  0  0  0  0
 22 26  2  0  0  0  0
 23 27  1  0  0  0  0
 24 28  1  0  0  0  0
 25 29  2  0  0  0  0
 26 30  1  0  0  0  0
 30 31  1  0  0  0  0
 31 32  1  0  0  0  0
 31 33  1  0  0  0  0
  9 10  1  0  0  0  0
 15 16  1  0  0  0  0
 18 20  2  0  0  0  0
 27 28  1  0  0  0  0
 29 30  1  0  0  0  0
M  END
>  <MolRegNo>
2774258

>  <m>
=

>  <Value>
9000

>  <Unit>
nM

>  <Type>
IC50

>  <pValue>
5.05

>  <Ligand Efficiency>
0.21

>  <Binding Efficiency>
11.28

>  <Surface Efficiency>
4.65

>  <Assay Index>
1531763

>  <Assay Category>


>  <Assay Organism>
Homo sapiens

>  <Target ID>
17045

>  <Target Name>
Cytochrome P450 3A4

>  <Target Organism>
Homo sapiens

>  <Target Description>
Target is a single protein chain

>  <Sequence Accession>
P08684

>  <Reference>
J Med Chem 65 (22.0), 15433-15442 (2022)

>  <Pubmed ID>
36356320

>  <DOI>
10.1021/acs.jmedchem.2c01366

$$$$
2742021
Actelion Java MolfileCreator 1.0

 28 31  0  0  0  0  0  0  0  0999 V2000
    0.0000   -0.0000   -0.0000 I   0  0  0  0  0  0  0  0  0  0  0  0
   -1.3107   -0.7388   -0.0000 C   0  0  0  0  0  0  0  0  0  0  0  0
   -1.3226   -2.2282   -0.0000 C   0  0  0  0  0  0  0  0  0  0  0  0
   -2.6334    0.0238   -0.0000 C   0  0  0  0  0  0  0  0  0  0  0  0
   -2.6334   -2.9789   -0.0000 C   0  0  0  0  0  0  0  0  0  0  0  0
   -3.9441   -0.7149   -0.0000 C   0  0  0  0  0  0  0  0  0  0  0  0
   -3.9560   -2.2163   -0.0000 C   0  0  0  0  0  0  0  0  0  0  0  0
   -5.2667   -2.9551   -0.0000 N   0  0  0  0  0  0  0  0  0  0  0  0
   -5.2786   -4.4445   -0.0000 C   0  0  0  0  0  0  0  0  0  0  0  0
   -6.6013   -5.1833   -0.0000 N   0  0  0  0  0  0  0  0  0  0  0  0
   -3.9917   -5.1833   -0.0000 C   0  0  0  0  0  0  0  0  0  0  0  0
   -6.6132   -6.6847   -0.0000 C   0  0  0  0  0  0  0  0  0  0  0  0
   -2.5380   -4.7186   -0.0000 N   0  0  0  0  0  0  0  0  0  0  0  0
   -4.0037   -6.6847   -0.0000 C   0  0  0  0  0  0  0  0  0  0  0  0
   -5.3144   -7.4235   -0.0000 C   0  0  0  0  0  0  0  0  0  0  0  0
   -7.9358   -7.4354   -0.0000 C   0  0  0  0  0  0  0  0  0  0  0  0
   -1.6920   -5.8983   -0.0000 C   0  0  0  0  0  0  0  0  0  0  0  0
   -2.5857   -7.1256   -0.0000 N   0  0  0  0  0  0  0  0  0  0  0  0
   -5.3263   -8.9129   -0.0000 C   0  0  0  0  0  0  0  0  0  0  0  0
   -7.9477   -8.9248   -0.0000 C   0  0  0  0  0  0  0  0  0  0  0  0
   -0.2026   -5.8863   -0.0000 C   0  0  0  0  0  0  0  0  0  0  0  0
   -6.6251   -9.6636   -0.0000 C   0  0  0  0  0  0  0  0  0  0  0  0
    0.5362   -4.5756   -0.0000 C   0  0  0  0  0  0  0  0  0  0  0  0
    0.5362   -7.1732   -0.0000 C   0  0  0  0  0  0  0  0  0  0  0  0
    2.0257   -4.5637   -0.0000 C   0  0  0  0  0  0  0  0  0  0  0  0
    2.0257   -7.1613   -0.0000 C   0  0  0  0  0  0  0  0  0  0  0  0
    2.7644   -3.2530   -0.0000 C   0  0  0  0  0  0  0  0  0  0  0  0
    2.7644   -8.4482   -0.0000 C   0  0  0  0  0  0  0  0  0  0  0  0
  1  2  1  0  0  0  0
  2  3  2  0  0  0  0
  2  4  1  0  0  0  0
  3  5  1  0  0  0  0
  4  6  2  0  0  0  0
  5  7  2  0  0  0  0
  7  8  1  0  0  0  0
  8  9  1  0  0  0  0
  9 10  2  0  0  0  0
  9 11  1  0  0  0  0
 10 12  1  0  0  0  0
 11 13  1  0  0  0  0
 11 14  2  0  0  0  0
 12 15  1  0  0  0  0
 12 16  2  0  0  0  0
 13 17  2  0  0  0  0
 14 18  1  0  0  0  0
 15 19  2  0  0  0  0
 16 20  1  0  0  0  0
 17 21  1  0  0  0  0
 19 22  1  0  0  0  0
 21 23  1  0  0  0  0
 21 24  1  0  0  0  0
 23 25  1  0  0  0  0
 24 26  1  0  0  0  0
 25 27  1  0  0  0  0
 26 28  1  0  0  0  0
  6  7  1  0  0  0  0
 14 15  1  0  0  0  0
 17 18  1  0  0  0  0
 20 22  2  0  0  0  0
M  END
>  <MolRegNo>
2742021

>  <m>
=

>  <Value>
61600

>  <Unit>
nM

>  <Type>
IC50

>  <pValue>
4.21

>  <Ligand Efficiency>
0

>  <Binding Efficiency>
0

>  <Surface Efficiency>
0

>  <Assay Index>
1531885

>  <Assay Category>


>  <Assay Organism>
Homo sapiens

>  <Target ID>
17045

>  <Target Name>
Cytochrome P450 3A4

>  <Target Organism>
Homo sapiens

>  <Target Description>
Target is a single protein chain

>  <Sequence Accession>
P08684

>  <Reference>
J Med Chem 65 (22.0), 15238-15262 (2022)

>  <Pubmed ID>
36367749

>  <DOI>
10.1021/acs.jmedchem.2c01170

$$$$
2772372
Actelion Java MolfileCreator 1.0

 23 25  0  0  0  0  0  0  0  0999 V2000
    0.0000   -0.0000   -0.0000 O   0  0  0  0  0  0  0  0  0  0  0  0
   -0.0118   -1.4899   -0.0000 C   0  0  0  0  0  0  0  0  0  0  0  0
   -1.3244   -2.2230   -0.0000 N   0  0  0  0  0  0  0  0  0  0  0  0
    1.2771   -2.2230   -0.0000 C   0  0  0  0  0  0  0  0  0  0  0  0
   -2.6369   -1.4663   -0.0000 C   0  0  0  0  0  0  0  0  0  0  0  0
    2.5659   -1.4663   -0.0000 C   0  0  0  0  0  0  0  0  0  0  0  0
   -3.9494   -2.1994   -0.0000 C   0  0  0  0  0  0  0  0  0  0  0  0
    2.5541    0.0473   -0.0000 C   0  0  0  0  0  0  0  0  0  0  0  0
    3.8548   -2.2112   -0.0000 C   0  0  0  0  0  0  0  0  0  0  0  0
   -5.2620   -1.4426   -0.0000 O   0  0  0  0  0  0  0  0  0  0  0  0
   -3.9612   -3.6893   -0.0000 C   0  0  0  0  0  0  0  0  0  0  0  0
    3.8430    0.8041   -0.0000 C   0  0  0  0  0  0  0  0  0  0  0  0
    5.1437   -1.4426   -0.0000 C   0  0  0  0  0  0  0  0  0  0  0  0
   -6.5745   -2.1757   -0.0000 C   0  0  0  0  0  0  0  0  0  0  0  0
   -5.2738   -4.4224   -0.0000 O   0  0  0  0  0  0  0  0  0  0  0  0
    5.1319    0.0591   -0.0000 C   0  0  0  0  0  0  0  0  0  0  0  0
   -6.5863   -3.6656   -0.0000 C   0  0  0  0  0  0  0  0  0  0  0  0
   -7.8870   -1.4190   -0.0000 C   0  0  0  0  0  0  0  0  0  0  0  0
    6.4208    0.8277   -0.0000 C   0  0  0  0  0  0  0  0  0  0  0  0
   -7.8870   -4.3988   -0.0000 C   0  0  0  0  0  0  0  0  0  0  0  0
   -9.1996   -2.1521   -0.0000 C   0  0  0  0  0  0  0  0  0  0  0  0
    7.7096    0.0828   -0.0000 C   0  0  0  0  0  0  0  0  0  0  0  0
   -9.1996   -3.6420   -0.0000 C   0  0  0  0  0  0  0  0  0  0  0  0
  1  2  2  0  0  0  0
  2  3  1  0  0  0  0
  2  4  1  0  0  0  0
  3  5  1  0  0  0  0
  4  6  1  0  0  0  0
  5  7  1  0  0  0  0
  6  8  2  0  0  0  0
  6  9  1  0  0  0  0
  7 10  1  0  0  0  0
  7 11  1  0  0  0  0
  8 12  1  0  0  0  0
  9 13  2  0  0  0  0
 10 14  1  0  0  0  0
 11 15  1  0  0  0  0
 12 16  2  0  0  0  0
 14 17  2  0  0  0  0
 14 18  1  0  0  0  0
 16 19  1  0  0  0  0
 17 20  1  0  0  0  0
 18 21  2  0  0  0  0
 19 22  1  0  0  0  0
 20 23  2  0  0  0  0
 13 16  1  0  0  0  0
 15 17  1  0  0  0  0
 21 23  1  0  0  0  0
M  END
>  <MolRegNo>
2772372

>  <m>
=

>  <Value>
36200

>  <Unit>
nM

>  <Type>
IC50

>  <pValue>
4.44

>  <Ligand Efficiency>
0

>  <Binding Efficiency>
0

>  <Surface Efficiency>
0

>  <Assay Index>
1533525

>  <Assay Category>


>  <Assay Organism>
Homo sapiens

>  <Target ID>
17045

>  <Target Name>
Cytochrome P450 3A4

>  <Target Organism>
Homo sapiens

>  <Target Description>
Target is a single protein chain

>  <Sequence Accession>
P08684

>  <Reference>


>  <Pubmed ID>
35842206

>  <DOI>
10.1016/j.bmcl.2022.128889

$$$$
2130110
Actelion Java MolfileCreator 1.0

 36 40  0  0  0  0  0  0  0  0999 V2000
    0.0000   -0.0000   -0.0000 Cl  0  0  0  0  0  0  0  0  0  0  0  0
   -1.0795    0.6307   -0.0000 C   0  0  0  0  0  0  0  0  0  0  0  0
   -2.4258   -0.1213   -0.0000 C   0  0  0  0  0  0  0  0  0  0  0  0
   -1.0916    2.1832   -0.0000 C   0  0  0  0  0  0  0  0  0  0  0  0
   -3.7721    0.6671   -0.0000 C   0  0  0  0  0  0  0  0  0  0  0  0
   -2.4379   -1.3463   -0.0000 C   0  0  0  0  0  0  0  0  0  0  0  0
   -2.4379    2.9716   -0.0000 C   0  0  0  0  0  0  0  0  0  0  0  0
   -3.7843    2.2196   -0.0000 C   0  0  0  0  0  0  0  0  0  0  0  0
   -5.1306    3.0080   -0.0000 C   0  0  0  0  0  0  0  0  0  0  0  0
   -5.1427    4.5605   -0.0000 C   0  0  0  0  0  0  0  0  0  0  0  0
   -6.4769    2.2560   -0.0000 C   0  0  0  0  0  0  0  0  0  0  0  0
   -6.4890    5.3489   -0.0000 C   0  0  0  0  0  0  0  0  0  0  0  0
   -7.8232    3.0444   -0.0000 C   0  0  0  0  0  0  0  0  0  0  0  0
   -6.5012    6.9014   -0.0000 O   0  0  0  0  0  0  0  0  0  0  0  0
   -7.8354    4.5969   -0.0000 C   0  0  0  0  0  0  0  0  0  0  0  0
   -5.4459    7.5321   -0.0000 C   0  0  0  0  0  0  0  0  0  0  0  0
   -9.1817    5.3732   -0.0000 N   0  0  0  0  0  0  0  0  0  0  0  0
   -9.1938    6.9257   -0.0000 C   0  0  0  0  0  0  0  0  0  0  0  0
  -10.5280    4.6212   -0.0000 C   0  0  0  0  0  0  0  0  0  0  0  0
   -8.1386    7.5564   -0.0000 O   0  0  0  0  0  0  0  0  0  0  0  0
  -10.5401    7.7019   -0.0000 C   0  0  0  0  0  0  0  0  0  0  0  0
  -11.8743    5.3974   -0.0000 C   0  0  0  0  0  0  0  0  0  0  0  0
  -10.5401    3.0929   -0.0000 C   0  0  0  0  0  0  0  0  0  0  0  0
  -11.8865    6.9499   -0.0000 C   0  0  0  0  0  0  0  0  0  0  0  0
  -13.2207    4.6454   -0.0000 C   0  0  0  0  0  0  0  0  0  0  0  0
  -11.8865    2.3409   -0.0000 C   0  0  0  0  0  0  0  0  0  0  0  0
  -13.2328    3.1172   -0.0000 C   0  0  0  0  0  0  0  0  0  0  0  0
  -14.5791    2.3530   -0.0000 S   0  0  0  0  0  0  0  0  0  0  0  0
  -14.5912    1.1280   -0.0000 O   0  0  0  0  0  0  0  0  0  0  0  0
  -15.6586    1.7466   -0.0000 O   0  0  0  0  0  0  0  0  0  0  0  0
  -15.9254    3.1293   -0.0000 N   0  0  0  0  0  0  0  0  0  0  0  0
  -17.2718    2.3652   -0.0000 C   0  0  0  0  0  0  0  0  0  0  0  0
  -17.4173    0.8612   -0.0000 N   0  0  0  0  0  0  0  0  0  0  0  0
  -18.6666    3.0080   -0.0000 C   0  0  0  0  0  0  0  0  0  0  0  0
  -18.9334    0.5458   -0.0000 O   0  0  0  0  0  0  0  0  0  0  0  0
  -19.7097    1.8679   -0.0000 C   0  0  0  0  0  0  0  0  0  0  0  0
  1  2  1  0  0  0  0
  2  3  2  0  0  0  0
  2  4  1  0  0  0  0
  3  5  1  0  0  0  0
  3  6  1  0  0  0  0
  4  7  2  0  0  0  0
  5  8  2  0  0  0  0
  8  9  1  0  0  0  0
  9 10  2  0  0  0  0
  9 11  1  0  0  0  0
 10 12  1  0  0  0  0
 11 13  2  0  0  0  0
 12 14  1  0  0  0  0
 12 15  2  0  0  0  0
 14 16  1  0  0  0  0
 15 17  1  0  0  0  0
 17 18  1  0  0  0  0
 17 19  1  0  0  0  0
 18 20  2  0  0  0  0
 18 21  1  0  0  0  0
 19 22  2  0  0  0  0
 19 23  1  0  0  0  0
 21 24  2  0  0  0  0
 22 25  1  0  0  0  0
 23 26  2  0  0  0  0
 25 27  2  0  0  0  0
 27 28  1  0  0  0  0
 28 29  2  0  0  0  0
 28 30  2  0  0  0  0
 28 31  1  0  0  0  0
 31 32  1  0  0  0  0
 32 33  2  0  0  0  0
 32 34  1  0  0  0  0
 33 35  1  0  0  0  0
 34 36  2  0  0  0  0
  7  8  1  0  0  0  0
 13 15  1  0  0  0  0
 22 24  1  0  0  0  0
 26 27  1  0  0  0  0
 35 36  1  0  0  0  0
M  END
>  <MolRegNo>
2130110

>  <m>
=

>  <Value>
32000

>  <Unit>
nM

>  <Type>
IC50

>  <pValue>
4.5

>  <Ligand Efficiency>
0

>  <Binding Efficiency>
0

>  <Surface Efficiency>
0

>  <Assay Index>
1533581

>  <Assay Category>


>  <Assay Organism>
Homo sapiens

>  <Target ID>
17045

>  <Target Name>
Cytochrome P450 3A4

>  <Target Organism>
Homo sapiens

>  <Target Description>
Target is a single protein chain

>  <Sequence Accession>
P08684

>  <Reference>


>  <Pubmed ID>
35850422

>  <DOI>
10.1016/j.bmcl.2022.128892

$$$$
2749252
Actelion Java MolfileCreator 1.0

 39 42  0  0  0  0  0  0  0  0999 V2000
    0.0000   -0.0000   -0.0000 Cl  0  0  0  0  0  0  0  0  0  0  0  0
   -0.0118    1.5034   -0.0000 C   0  0  0  0  0  0  0  0  0  0  0  0
    1.2666    2.2610   -0.0000 C   0  0  0  0  0  0  0  0  0  0  0  0
   -1.3258    2.2610   -0.0000 C   0  0  0  0  0  0  0  0  0  0  0  0
    2.5569    1.5270   -0.0000 C   0  0  0  0  0  0  0  0  0  0  0  0
    1.2548    3.7643   -0.0000 C   0  0  0  0  0  0  0  0  0  0  0  0
   -1.3376    3.7761   -0.0000 C   0  0  0  0  0  0  0  0  0  0  0  0
    3.8472    2.2846   -0.0000 C   0  0  0  0  0  0  0  0  0  0  0  0
    2.5451    0.0355   -0.0000 C   0  0  0  0  0  0  0  0  0  0  0  0
   -0.0473    4.5219   -0.0000 C   0  0  0  0  0  0  0  0  0  0  0  0
   -2.6398    4.5337   -0.0000 N   0  0  0  0  0  0  0  0  0  0  0  0
    5.1256    1.5507   -0.0000 C   0  0  0  0  0  0  0  0  0  0  0  0
    3.8353   -0.6984   -0.0000 C   0  0  0  0  0  0  0  0  0  0  0  0
   -0.0592    6.0253   -0.0000 O   0  0  0  0  0  0  0  0  0  0  0  0
   -2.6634    6.0371   -0.0000 C   0  0  0  0  0  0  0  0  0  0  0  0
   -3.9419    3.7880   -0.0000 C   0  0  0  0  0  0  0  0  0  0  0  0
    5.1138    0.0710   -0.0000 C   0  0  0  0  0  0  0  0  0  0  0  0
    6.4159    2.3083   -0.0000 C   0  0  0  0  0  0  0  0  0  0  0  0
    1.2193    6.7829   -0.0000 C   0  0  0  0  0  0  0  0  0  0  0  0
   -3.9774    6.7947   -0.0000 N   0  0  0  0  0  0  0  0  0  0  0  0
   -1.3850    6.7947   -0.0000 C   0  0  0  0  0  0  0  0  0  0  0  0
   -3.9537    2.3083   -0.0000 O   0  0  0  0  0  0  0  0  0  0  0  0
   -5.2558    4.5456   -0.0000 N   0  0  0  0  0  0  0  0  0  0  0  0
    6.4041    3.8117   -0.0000 F   0  0  0  0  0  0  0  0  0  0  0  0
    7.7062    1.5744   -0.0000 F   0  0  0  0  0  0  0  0  0  0  0  0
    7.7062    3.0659   -0.0000 F   0  0  0  0  0  0  0  0  0  0  0  0
   -3.9892    8.3099   -0.0000 C   0  0  0  0  0  0  0  0  0  0  0  0
   -1.3968    8.3099   -0.0000 C   0  0  0  0  0  0  0  0  0  0  0  0
   -6.5698    3.8117   -0.0000 C   0  0  0  0  0  0  0  0  0  0  0  0
   -2.6989    9.0675   -0.0000 C   0  0  0  0  0  0  0  0  0  0  0  0
   -2.7108   10.5708   -0.0000 S   0  0  0  0  0  0  0  0  0  0  0  0
   -3.4684   11.8848   -0.0000 O   0  0  0  0  0  0  0  0  0  0  0  0
   -4.2141   10.5827   -0.0000 O   0  0  0  0  0  0  0  0  0  0  0  0
   -1.4205   11.3284   -0.0000 N   0  0  0  0  0  0  0  0  0  0  0  0
   -1.4323   12.8318   -0.0000 C   0  0  0  0  0  0  0  0  0  0  0  0
   -2.7463   13.5894   -0.0000 N   0  0  0  0  0  0  0  0  0  0  0  0
   -0.3433   13.8498   -0.0000 C   0  0  0  0  0  0  0  0  0  0  0  0
   -2.4267   15.0928   -0.0000 O   0  0  0  0  0  0  0  0  0  0  0  0
   -0.9588   15.2348   -0.0000 C   0  0  0  0  0  0  0  0  0  0  0  0
  1  2  1  0  0  0  0
  2  3  2  0  0  0  0
  2  4  1  0  0  0  0
  3  5  1  0  0  0  0
  3  6  1  0  0  0  0
  4  7  2  0  0  0  0
  5  8  2  0  0  0  0
  5  9  1  0  0  0  0
  6 10  2  0  0  0  0
  7 11  1  0  0  0  0
  8 12  1  0  0  0  0
  9 13  2  0  0  0  0
 10 14  1  0  0  0  0
 11 15  1  0  0  0  0
 11 16  1  0  0  0  0
 12 17  2  0  0  0  0
 12 18  1  0  0  0  0
 14 19  1  0  0  0  0
 15 20  2  0  0  0  0
 15 21  1  0  0  0  0
 16 22  2  0  0  0  0
 16 23  1  0  0  0  0
 18 24  1  0  0  0  0
 18 25  1  0  0  0  0
 18 26  1  0  0  0  0
 20 27  1  0  0  0  0
 21 28  2  0  0  0  0
 23 29  1  0  0  0  0
 27 30  2  0  0  0  0
 30 31  1  0  0  0  0
 31 32  2  0  0  0  0
 31 33  2  0  0  0  0
 31 34  1  0  0  0  0
 34 35  1  0  0  0  0
 35 36  2  0  0  0  0
 35 37  1  0  0  0  0
 36 38  1  0  0  0  0
 37 39  2  0  0  0  0
  7 10  1  0  0  0  0
 13 17  1  0  0  0  0
 28 30  1  0  0  0  0
 38 39  1  0  0  0  0
M  END
>  <MolRegNo>
2749252

>  <m>
=

>  <Value>
5000

>  <Unit>
nM

>  <Type>
IC50

>  <pValue>
5.3

>  <Ligand Efficiency>
0

>  <Binding Efficiency>
0

>  <Surface Efficiency>
0

>  <Assay Index>
1533581

>  <Assay Category>


>  <Assay Organism>
Homo sapiens

>  <Target ID>
17045

>  <Target Name>
Cytochrome P450 3A4

>  <Target Organism>
Homo sapiens

>  <Target Description>
Target is a single protein chain

>  <Sequence Accession>
P08684

>  <Reference>


>  <Pubmed ID>
35850422

>  <DOI>
10.1016/j.bmcl.2022.128892

$$$$
2773004
Actelion Java MolfileCreator 1.0

 40 43  0  0  0  0  0  0  0  0999 V2000
    0.0000   -0.0000   -0.0000 Cl  0  0  0  0  0  0  0  0  0  0  0  0
   -0.0119    1.5068   -0.0000 C   0  0  0  0  0  0  0  0  0  0  0  0
    1.2695    2.2661   -0.0000 C   0  0  0  0  0  0  0  0  0  0  0  0
   -1.3288    2.2661   -0.0000 C   0  0  0  0  0  0  0  0  0  0  0  0
    2.5508    1.5305   -0.0000 C   0  0  0  0  0  0  0  0  0  0  0  0
    1.2576    3.7728   -0.0000 C   0  0  0  0  0  0  0  0  0  0  0  0
   -1.3407    3.7847   -0.0000 C   0  0  0  0  0  0  0  0  0  0  0  0
    3.8322    2.2898   -0.0000 C   0  0  0  0  0  0  0  0  0  0  0  0
    2.5390    0.0356   -0.0000 C   0  0  0  0  0  0  0  0  0  0  0  0
   -0.0475    4.5322   -0.0000 C   0  0  0  0  0  0  0  0  0  0  0  0
   -2.6457    4.5440   -0.0000 N   0  0  0  0  0  0  0  0  0  0  0  0
    5.1135    1.5542   -0.0000 C   0  0  0  0  0  0  0  0  0  0  0  0
    3.8322   -0.7000   -0.0000 C   0  0  0  0  0  0  0  0  0  0  0  0
   -0.0593    6.0389   -0.0000 O   0  0  0  0  0  0  0  0  0  0  0  0
   -2.6695    6.0508   -0.0000 C   0  0  0  0  0  0  0  0  0  0  0  0
   -3.9508    3.7966   -0.0000 C   0  0  0  0  0  0  0  0  0  0  0  0
    5.1016    0.0712   -0.0000 C   0  0  0  0  0  0  0  0  0  0  0  0
    6.3948    2.3135   -0.0000 C   0  0  0  0  0  0  0  0  0  0  0  0
    1.2220    6.7982   -0.0000 C   0  0  0  0  0  0  0  0  0  0  0  0
   -3.9864    6.8101   -0.0000 N   0  0  0  0  0  0  0  0  0  0  0  0
   -1.3881    6.8101   -0.0000 C   0  0  0  0  0  0  0  0  0  0  0  0
   -3.9627    2.3135   -0.0000 O   0  0  0  0  0  0  0  0  0  0  0  0
   -5.2559    4.5559   -0.0000 N   0  0  0  0  0  0  0  0  0  0  0  0
    6.3830   -0.6644   -0.0000 F   0  0  0  0  0  0  0  0  0  0  0  0
    6.3830    3.8203   -0.0000 F   0  0  0  0  0  0  0  0  0  0  0  0
    7.6762    1.5779   -0.0000 F   0  0  0  0  0  0  0  0  0  0  0  0
    7.6762    3.0728   -0.0000 F   0  0  0  0  0  0  0  0  0  0  0  0
   -3.9983    8.3287   -0.0000 C   0  0  0  0  0  0  0  0  0  0  0  0
   -1.4000    8.3169   -0.0000 C   0  0  0  0  0  0  0  0  0  0  0  0
   -6.5609    3.8203   -0.0000 C   0  0  0  0  0  0  0  0  0  0  0  0
   -2.7051    9.0880   -0.0000 C   0  0  0  0  0  0  0  0  0  0  0  0
   -2.7169   10.5948   -0.0000 S   0  0  0  0  0  0  0  0  0  0  0  0
   -3.4762   11.9117   -0.0000 O   0  0  0  0  0  0  0  0  0  0  0  0
   -4.2237   10.6067   -0.0000 O   0  0  0  0  0  0  0  0  0  0  0  0
   -1.4356   11.3541   -0.0000 N   0  0  0  0  0  0  0  0  0  0  0  0
   -1.4474   12.8609   -0.0000 C   0  0  0  0  0  0  0  0  0  0  0  0
   -2.7525   13.6202   -0.0000 N   0  0  0  0  0  0  0  0  0  0  0  0
   -0.3559   13.8812   -0.0000 C   0  0  0  0  0  0  0  0  0  0  0  0
   -2.4322   15.1269   -0.0000 O   0  0  0  0  0  0  0  0  0  0  0  0
   -0.9729   15.2693   -0.0000 C   0  0  0  0  0  0  0  0  0  0  0  0
  1  2  1  0  0  0  0
  2  3  2  0  0  0  0
  2  4  1  0  0  0  0
  3  5  1  0  0  0  0
  3  6  1  0  0  0  0
  4  7  2  0  0  0  0
  5  8  2  0  0  0  0
  5  9  1  0  0  0  0
  6 10  2  0  0  0  0
  7 11  1  0  0  0  0
  8 12  1  0  0  0  0
  9 13  2  0  0  0  0
 10 14  1  0  0  0  0
 11 15  1  0  0  0  0
 11 16  1  0  0  0  0
 12 17  2  0  0  0  0
 12 18  1  0  0  0  0
 14 19  1  0  0  0  0
 15 20  2  0  0  0  0
 15 21  1  0  0  0  0
 16 22  2  0  0  0  0
 16 23  1  0  0  0  0
 17 24  1  0  0  0  0
 18 25  1  0  0  0  0
 18 26  1  0  0  0  0
 18 27  1  0  0  0  0
 20 28  1  0  0  0  0
 21 29  2  0  0  0  0
 23 30  1  0  0  0  0
 28 31  2  0  0  0  0
 31 32  1  0  0  0  0
 32 33  2  0  0  0  0
 32 34  2  0  0  0  0
 32 35  1  0  0  0  0
 35 36  1  0  0  0  0
 36 37  2  0  0  0  0
 36 38  1  0  0  0  0
 37 39  1  0  0  0  0
 38 40  2  0  0  0  0
  7 10  1  0  0  0  0
 13 17  1  0  0  0  0
 29 31  1  0  0  0  0
 39 40  1  0  0  0  0
M  END
>  <MolRegNo>
2773004

>  <m>
=

>  <Value>
12000

>  <Unit>
nM

>  <Type>
IC50

>  <pValue>
4.92

>  <Ligand Efficiency>
0

>  <Binding Efficiency>
0

>  <Surface Efficiency>
0

>  <Assay Index>
1533581

>  <Assay Category>


>  <Assay Organism>
Homo sapiens

>  <Target ID>
17045

>  <Target Name>
Cytochrome P450 3A4

>  <Target Organism>
Homo sapiens

>  <Target Description>
Target is a single protein chain

>  <Sequence Accession>
P08684

>  <Reference>


>  <Pubmed ID>
35850422

>  <DOI>
10.1016/j.bmcl.2022.128892

$$$$
2769105
Actelion Java MolfileCreator 1.0

 41 44  0  0  0  0  0  0  0  0999 V2000
    0.0000   -0.0000   -0.0000 Cl  0  0  0  0  0  0  0  0  0  0  0  0
   -0.0119    1.5064   -0.0000 C   0  0  0  0  0  0  0  0  0  0  0  0
    1.2692    2.2656   -0.0000 C   0  0  0  0  0  0  0  0  0  0  0  0
   -1.3285    2.2656   -0.0000 C   0  0  0  0  0  0  0  0  0  0  0  0
    2.5502    1.5301   -0.0000 C   0  0  0  0  0  0  0  0  0  0  0  0
    1.2573    3.7720   -0.0000 C   0  0  0  0  0  0  0  0  0  0  0  0
   -1.3404    3.7838   -0.0000 C   0  0  0  0  0  0  0  0  0  0  0  0
    2.5384    0.0356   -0.0000 C   0  0  0  0  0  0  0  0  0  0  0  0
    3.8431    2.2893   -0.0000 C   0  0  0  0  0  0  0  0  0  0  0  0
   -0.0474    4.5311   -0.0000 C   0  0  0  0  0  0  0  0  0  0  0  0
   -2.6451    4.5430   -0.0000 N   0  0  0  0  0  0  0  0  0  0  0  0
    3.8313   -0.6998   -0.0000 C   0  0  0  0  0  0  0  0  0  0  0  0
    5.1242    1.5539   -0.0000 C   0  0  0  0  0  0  0  0  0  0  0  0
   -0.0593    6.0375   -0.0000 O   0  0  0  0  0  0  0  0  0  0  0  0
   -2.6688    6.0494   -0.0000 C   0  0  0  0  0  0  0  0  0  0  0  0
   -3.9499    3.7957   -0.0000 C   0  0  0  0  0  0  0  0  0  0  0  0
    3.8194   -2.1825   -0.0000 O   0  0  0  0  0  0  0  0  0  0  0  0
    5.1123    0.0593   -0.0000 C   0  0  0  0  0  0  0  0  0  0  0  0
    6.4052    2.3130   -0.0000 C   0  0  0  0  0  0  0  0  0  0  0  0
    1.2217    6.7967   -0.0000 C   0  0  0  0  0  0  0  0  0  0  0  0
   -3.9855    6.8085   -0.0000 N   0  0  0  0  0  0  0  0  0  0  0  0
   -1.3878    6.8085   -0.0000 C   0  0  0  0  0  0  0  0  0  0  0  0
   -3.9618    2.3130   -0.0000 O   0  0  0  0  0  0  0  0  0  0  0  0
   -5.2547    4.5548   -0.0000 N   0  0  0  0  0  0  0  0  0  0  0  0
    5.1005   -2.9179   -0.0000 C   0  0  0  0  0  0  0  0  0  0  0  0
    6.3934    3.8194   -0.0000 F   0  0  0  0  0  0  0  0  0  0  0  0
    7.6863    1.5776   -0.0000 F   0  0  0  0  0  0  0  0  0  0  0  0
    7.6863    3.0721   -0.0000 F   0  0  0  0  0  0  0  0  0  0  0  0
   -3.9973    8.3268   -0.0000 C   0  0  0  0  0  0  0  0  0  0  0  0
   -1.3997    8.3268   -0.0000 C   0  0  0  0  0  0  0  0  0  0  0  0
   -6.5594    3.8194   -0.0000 C   0  0  0  0  0  0  0  0  0  0  0  0
   -2.7044    9.0860   -0.0000 C   0  0  0  0  0  0  0  0  0  0  0  0
   -2.7163   10.5924   -0.0000 S   0  0  0  0  0  0  0  0  0  0  0  0
   -3.4754   11.9090   -0.0000 O   0  0  0  0  0  0  0  0  0  0  0  0
   -4.2227   10.6042   -0.0000 O   0  0  0  0  0  0  0  0  0  0  0  0
   -1.4352   11.3515   -0.0000 N   0  0  0  0  0  0  0  0  0  0  0  0
   -1.4471   12.8579   -0.0000 C   0  0  0  0  0  0  0  0  0  0  0  0
   -2.7519   13.6171   -0.0000 N   0  0  0  0  0  0  0  0  0  0  0  0
   -0.3558   13.8780   -0.0000 C   0  0  0  0  0  0  0  0  0  0  0  0
   -2.4316   15.1235   -0.0000 O   0  0  0  0  0  0  0  0  0  0  0  0
   -0.9726   15.2658   -0.0000 C   0  0  0  0  0  0  0  0  0  0  0  0
  1  2  1  0  0  0  0
  2  3  2  0  0  0  0
  2  4  1  0  0  0  0
  3  5  1  0  0  0  0
  3  6  1  0  0  0  0
  4  7  2  0  0  0  0
  5  8  2  0  0  0  0
  5  9  1  0  0  0  0
  6 10  2  0  0  0  0
  7 11  1  0  0  0  0
  8 12  1  0  0  0  0
  9 13  2  0  0  0  0
 10 14  1  0  0  0  0
 11 15  1  0  0  0  0
 11 16  1  0  0  0  0
 12 17  1  0  0  0  0
 12 18  2  0  0  0  0
 13 19  1  0  0  0  0
 14 20  1  0  0  0  0
 15 21  2  0  0  0  0
 15 22  1  0  0  0  0
 16 23  2  0  0  0  0
 16 24  1  0  0  0  0
 17 25  1  0  0  0  0
 19 26  1  0  0  0  0
 19 27  1  0  0  0  0
 19 28  1  0  0  0  0
 21 29  1  0  0  0  0
 22 30  2  0  0  0  0
 24 31  1  0  0  0  0
 29 32  2  0  0  0  0
 32 33  1  0  0  0  0
 33 34  2  0  0  0  0
 33 35  2  0  0  0  0
 33 36  1  0  0  0  0
 36 37  1  0  0  0  0
 37 38  2  0  0  0  0
 37 39  1  0  0  0  0
 38 40  1  0  0  0  0
 39 41  2  0  0  0  0
  7 10  1  0  0  0  0
 13 18  1  0  0  0  0
 30 32  1  0  0  0  0
 40 41  1  0  0  0  0
M  END
>  <MolRegNo>
2769105

>  <m>
=

>  <Value>
17000

>  <Unit>
nM

>  <Type>
IC50

>  <pValue>
4.77

>  <Ligand Efficiency>
0

>  <Binding Efficiency>
0

>  <Surface Efficiency>
0

>  <Assay Index>
1533581

>  <Assay Category>


>  <Assay Organism>
Homo sapiens

>  <Target ID>
17045

>  <Target Name>
Cytochrome P450 3A4

>  <Target Organism>
Homo sapiens

>  <Target Description>
Target is a single protein chain

>  <Sequence Accession>
P08684

>  <Reference>


>  <Pubmed ID>
35850422

>  <DOI>
10.1016/j.bmcl.2022.128892

$$$$
2742747
Actelion Java MolfileCreator 1.0

 41 44  0  0  0  0  0  0  0  0999 V2000
    0.0000   -0.0000   -0.0000 Cl  0  0  0  0  0  0  0  0  0  0  0  0
   -0.0118    1.5043   -0.0000 C   0  0  0  0  0  0  0  0  0  0  0  0
    1.2674    2.2624   -0.0000 C   0  0  0  0  0  0  0  0  0  0  0  0
   -1.3267    2.2624   -0.0000 C   0  0  0  0  0  0  0  0  0  0  0  0
    2.5467    1.5280   -0.0000 C   0  0  0  0  0  0  0  0  0  0  0  0
    1.2556    3.7668   -0.0000 C   0  0  0  0  0  0  0  0  0  0  0  0
   -1.3385    3.7786   -0.0000 C   0  0  0  0  0  0  0  0  0  0  0  0
    3.8378    2.2861   -0.0000 C   0  0  0  0  0  0  0  0  0  0  0  0
    2.5349    0.0355   -0.0000 C   0  0  0  0  0  0  0  0  0  0  0  0
   -0.0474    4.5248   -0.0000 C   0  0  0  0  0  0  0  0  0  0  0  0
   -2.6533    4.5367   -0.0000 N   0  0  0  0  0  0  0  0  0  0  0  0
    5.1171    1.5517   -0.0000 C   0  0  0  0  0  0  0  0  0  0  0  0
    3.8260   -0.6989   -0.0000 C   0  0  0  0  0  0  0  0  0  0  0  0
   -0.0592    6.0292   -0.0000 O   0  0  0  0  0  0  0  0  0  0  0  0
   -2.6770    6.0410   -0.0000 C   0  0  0  0  0  0  0  0  0  0  0  0
   -3.9563    3.7904   -0.0000 C   0  0  0  0  0  0  0  0  0  0  0  0
    6.4082    2.3098   -0.0000 O   0  0  0  0  0  0  0  0  0  0  0  0
    5.1053    0.0711   -0.0000 C   0  0  0  0  0  0  0  0  0  0  0  0
    1.2200    6.7873   -0.0000 C   0  0  0  0  0  0  0  0  0  0  0  0
   -3.9918    6.7991   -0.0000 N   0  0  0  0  0  0  0  0  0  0  0  0
   -1.3977    6.7991   -0.0000 C   0  0  0  0  0  0  0  0  0  0  0  0
   -3.9681    2.3098   -0.0000 O   0  0  0  0  0  0  0  0  0  0  0  0
   -5.2592    4.5485   -0.0000 N   0  0  0  0  0  0  0  0  0  0  0  0
    6.3964    3.8141   -0.0000 C   0  0  0  0  0  0  0  0  0  0  0  0
   -4.0037    8.3153   -0.0000 C   0  0  0  0  0  0  0  0  0  0  0  0
   -1.4096    8.3153   -0.0000 C   0  0  0  0  0  0  0  0  0  0  0  0
   -6.5741    3.8141   -0.0000 C   0  0  0  0  0  0  0  0  0  0  0  0
    7.6875    4.5722   -0.0000 C   0  0  0  0  0  0  0  0  0  0  0  0
   -2.7125    9.0734   -0.0000 C   0  0  0  0  0  0  0  0  0  0  0  0
    7.6757    6.0766   -0.0000 F   0  0  0  0  0  0  0  0  0  0  0  0
    8.9786    3.8378   -0.0000 F   0  0  0  0  0  0  0  0  0  0  0  0
    8.9786    5.3303   -0.0000 F   0  0  0  0  0  0  0  0  0  0  0  0
   -2.7244   10.5777   -0.0000 S   0  0  0  0  0  0  0  0  0  0  0  0
   -3.4825   11.8925   -0.0000 O   0  0  0  0  0  0  0  0  0  0  0  0
   -4.2287   10.5896   -0.0000 O   0  0  0  0  0  0  0  0  0  0  0  0
   -1.4451   11.3358   -0.0000 N   0  0  0  0  0  0  0  0  0  0  0  0
   -1.4570   12.8401   -0.0000 C   0  0  0  0  0  0  0  0  0  0  0  0
   -2.7599   13.5982   -0.0000 N   0  0  0  0  0  0  0  0  0  0  0  0
   -0.3672   13.8588   -0.0000 C   0  0  0  0  0  0  0  0  0  0  0  0
   -2.4401   15.1026   -0.0000 O   0  0  0  0  0  0  0  0  0  0  0  0
   -0.9831   15.2447   -0.0000 C   0  0  0  0  0  0  0  0  0  0  0  0
  1  2  1  0  0  0  0
  2  3  2  0  0  0  0
  2  4  1  0  0  0  0
  3  5  1  0  0  0  0
  3  6  1  0  0  0  0
  4  7  2  0  0  0  0
  5  8  2  0  0  0  0
  5  9  1  0  0  0  0
  6 10  2  0  0  0  0
  7 11  1  0  0  0  0
  8 12  1  0  0  0  0
  9 13  2  0  0  0  0
 10 14  1  0  0  0  0
 11 15  1  0  0  0  0
 11 16  1  0  0  0  0
 12 17  1  0  0  0  0
 12 18  2  0  0  0  0
 14 19  1  0  0  0  0
 15 20  2  0  0  0  0
 15 21  1  0  0  0  0
 16 22  2  0  0  0  0
 16 23  1  0  0  0  0
 17 24  1  0  0  0  0
 20 25  1  0  0  0  0
 21 26  2  0  0  0  0
 23 27  1  0  0  0  0
 24 28  1  0  0  0  0
 25 29  2  0  0  0  0
 28 30  1  0  0  0  0
 28 31  1  0  0  0  0
 28 32  1  0  0  0  0
 29 33  1  0  0  0  0
 33 34  2  0  0  0  0
 33 35  2  0  0  0  0
 33 36  1  0  0  0  0
 36 37  1  0  0  0  0
 37 38  2  0  0  0  0
 37 39  1  0  0  0  0
 38 40  1  0  0  0  0
 39 41  2  0  0  0  0
  7 10  1  0  0  0  0
 13 18  1  0  0  0  0
 26 29  1  0  0  0  0
 40 41  1  0  0  0  0
M  END
>  <MolRegNo>
2742747

>  <m>
=

>  <Value>
35000

>  <Unit>
nM

>  <Type>
IC50

>  <pValue>
4.46

>  <Ligand Efficiency>
0

>  <Binding Efficiency>
0

>  <Surface Efficiency>
0

>  <Assay Index>
1533581

>  <Assay Category>


>  <Assay Organism>
Homo sapiens

>  <Target ID>
17045

>  <Target Name>
Cytochrome P450 3A4

>  <Target Organism>
Homo sapiens

>  <Target Description>
Target is a single protein chain

>  <Sequence Accession>
P08684

>  <Reference>


>  <Pubmed ID>
35850422

>  <DOI>
10.1016/j.bmcl.2022.128892

$$$$
2775449
Actelion Java MolfileCreator 1.0

 42 45  0  0  0  0  0  0  0  0999 V2000
    0.0000   -0.0000   -0.0000 Cl  0  0  0  0  0  0  0  0  0  0  0  0
   -0.0119    1.5056   -0.0000 C   0  0  0  0  0  0  0  0  0  0  0  0
    1.2685    2.2643   -0.0000 C   0  0  0  0  0  0  0  0  0  0  0  0
   -1.3278    2.2643   -0.0000 C   0  0  0  0  0  0  0  0  0  0  0  0
    2.5488    1.5293   -0.0000 C   0  0  0  0  0  0  0  0  0  0  0  0
    1.2566    3.7699   -0.0000 C   0  0  0  0  0  0  0  0  0  0  0  0
   -1.3396    3.7818   -0.0000 C   0  0  0  0  0  0  0  0  0  0  0  0
    3.8410    2.2880   -0.0000 C   0  0  0  0  0  0  0  0  0  0  0  0
    2.5370    0.0356   -0.0000 C   0  0  0  0  0  0  0  0  0  0  0  0
   -0.0474    4.5286   -0.0000 C   0  0  0  0  0  0  0  0  0  0  0  0
   -2.6437    4.5405   -0.0000 N   0  0  0  0  0  0  0  0  0  0  0  0
    5.1214    1.5530   -0.0000 C   0  0  0  0  0  0  0  0  0  0  0  0
    3.8292   -0.6994   -0.0000 C   0  0  0  0  0  0  0  0  0  0  0  0
   -0.0593    6.0342   -0.0000 O   0  0  0  0  0  0  0  0  0  0  0  0
   -2.6674    6.0461   -0.0000 C   0  0  0  0  0  0  0  0  0  0  0  0
   -3.9477    3.7936   -0.0000 C   0  0  0  0  0  0  0  0  0  0  0  0
    6.4017    2.3117   -0.0000 O   0  0  0  0  0  0  0  0  0  0  0  0
    5.1095    0.0711   -0.0000 C   0  0  0  0  0  0  0  0  0  0  0  0
    1.2211    6.7929   -0.0000 C   0  0  0  0  0  0  0  0  0  0  0  0
   -3.9833    6.8048   -0.0000 N   0  0  0  0  0  0  0  0  0  0  0  0
   -1.3870    6.8048   -0.0000 C   0  0  0  0  0  0  0  0  0  0  0  0
   -3.9596    2.3117   -0.0000 O   0  0  0  0  0  0  0  0  0  0  0  0
   -5.2518    4.5523   -0.0000 N   0  0  0  0  0  0  0  0  0  0  0  0
    6.3899    3.8173   -0.0000 C   0  0  0  0  0  0  0  0  0  0  0  0
    6.3899   -0.6639   -0.0000 F   0  0  0  0  0  0  0  0  0  0  0  0
   -3.9952    8.3223   -0.0000 C   0  0  0  0  0  0  0  0  0  0  0  0
   -1.3989    8.3104   -0.0000 C   0  0  0  0  0  0  0  0  0  0  0  0
   -6.5558    3.8173   -0.0000 C   0  0  0  0  0  0  0  0  0  0  0  0
    7.6702    4.5761   -0.0000 F   0  0  0  0  0  0  0  0  0  0  0  0
    5.0858    4.5761   -0.0000 F   0  0  0  0  0  0  0  0  0  0  0  0
    6.3780    5.3229   -0.0000 F   0  0  0  0  0  0  0  0  0  0  0  0
   -2.7030    9.0810   -0.0000 C   0  0  0  0  0  0  0  0  0  0  0  0
   -2.7148   10.5866   -0.0000 S   0  0  0  0  0  0  0  0  0  0  0  0
   -3.4735   11.9025   -0.0000 O   0  0  0  0  0  0  0  0  0  0  0  0
   -4.2204   10.5984   -0.0000 O   0  0  0  0  0  0  0  0  0  0  0  0
   -1.4345   11.3453   -0.0000 N   0  0  0  0  0  0  0  0  0  0  0  0
   -1.4463   12.8509   -0.0000 C   0  0  0  0  0  0  0  0  0  0  0  0
   -2.7504   13.6096   -0.0000 N   0  0  0  0  0  0  0  0  0  0  0  0
   -0.1541   13.6096   -0.0000 N   0  0  0  0  0  0  0  0  0  0  0  0
   -2.7622   15.1152   -0.0000 C   0  0  0  0  0  0  0  0  0  0  0  0
   -0.1778   15.1152   -0.0000 C   0  0  0  0  0  0  0  0  0  0  0  0
   -1.4700   15.8739   -0.0000 C   0  0  0  0  0  0  0  0  0  0  0  0
  1  2  1  0  0  0  0
  2  3  2  0  0  0  0
  2  4  1  0  0  0  0
  3  5  1  0  0  0  0
  3  6  1  0  0  0  0
  4  7  2  0  0  0  0
  5  8  2  0  0  0  0
  5  9  1  0  0  0  0
  6 10  2  0  0  0  0
  7 11  1  0  0  0  0
  8 12  1  0  0  0  0
  9 13  2  0  0  0  0
 10 14  1  0  0  0  0
 11 15  1  0  0  0  0
 11 16  1  0  0  0  0
 12 17  1  0  0  0  0
 12 18  2  0  0  0  0
 14 19  1  0  0  0  0
 15 20  2  0  0  0  0
 15 21  1  0  0  0  0
 16 22  2  0  0  0  0
 16 23  1  0  0  0  0
 17 24  1  0  0  0  0
 18 25  1  0  0  0  0
 20 26  1  0  0  0  0
 21 27  2  0  0  0  0
 23 28  1  0  0  0  0
 24 29  1  0  0  0  0
 24 30  1  0  0  0  0
 24 31  1  0  0  0  0
 26 32  2  0  0  0  0
 32 33  1  0  0  0  0
 33 34  2  0  0  0  0
 33 35  2  0  0  0  0
 33 36  1  0  0  0  0
 36 37  1  0  0  0  0
 37 38  2  0  0  0  0
 37 39  1  0  0  0  0
 38 40  1  0  0  0  0
 39 41  2  0  0  0  0
 40 42  2  0  0  0  0
  7 10  1  0  0  0  0
 13 18  1  0  0  0  0
 27 32  1  0  0  0  0
 41 42  1  0  0  0  0
M  END
>  <MolRegNo>
2775449

>  <m>
=

>  <Value>
11000

>  <Unit>
nM

>  <Type>
IC50

>  <pValue>
4.96

>  <Ligand Efficiency>
0

>  <Binding Efficiency>
0

>  <Surface Efficiency>
0

>  <Assay Index>
1533581

>  <Assay Category>


>  <Assay Organism>
Homo sapiens

>  <Target ID>
17045

>  <Target Name>
Cytochrome P450 3A4

>  <Target Organism>
Homo sapiens

>  <Target Description>
Target is a single protein chain

>  <Sequence Accession>
P08684

>  <Reference>


>  <Pubmed ID>
35850422

>  <DOI>
10.1016/j.bmcl.2022.128892

$$$$
2752827
Actelion Java MolfileCreator 1.0

 40 43  0  0  0  0  0  0  0  0999 V2000
    0.0000   -0.0000   -0.0000 S   0  0  0  0  0  0  0  0  0  0  0  0
   -0.7620    1.3216   -0.0000 O   0  0  0  0  0  0  0  0  0  0  0  0
   -1.5121    0.0119   -0.0000 O   0  0  0  0  0  0  0  0  0  0  0  0
    1.2859    0.7620   -0.0000 N   0  0  0  0  0  0  0  0  0  0  0  0
   -0.0119   -1.4883   -0.0000 C   0  0  0  0  0  0  0  0  0  0  0  0
    1.2739    2.2741   -0.0000 C   0  0  0  0  0  0  0  0  0  0  0  0
   -1.3335   -2.2264   -0.0000 C   0  0  0  0  0  0  0  0  0  0  0  0
    1.2739   -2.2264   -0.0000 C   0  0  0  0  0  0  0  0  0  0  0  0
   -0.0357    3.0360   -0.0000 N   0  0  0  0  0  0  0  0  0  0  0  0
    2.5717    3.0360   -0.0000 N   0  0  0  0  0  0  0  0  0  0  0  0
   -1.3454   -3.7266   -0.0000 N   0  0  0  0  0  0  0  0  0  0  0  0
    1.2620   -3.7266   -0.0000 C   0  0  0  0  0  0  0  0  0  0  0  0
   -0.0476    4.5481   -0.0000 C   0  0  0  0  0  0  0  0  0  0  0  0
    2.5479    4.5481   -0.0000 C   0  0  0  0  0  0  0  0  0  0  0  0
   -0.0476   -4.4648   -0.0000 C   0  0  0  0  0  0  0  0  0  0  0  0
    1.2501    5.3101   -0.0000 C   0  0  0  0  0  0  0  0  0  0  0  0
   -0.0476   -5.9530   -0.0000 N   0  0  0  0  0  0  0  0  0  0  0  0
    1.2382   -6.6912   -0.0000 C   0  0  0  0  0  0  0  0  0  0  0  0
   -1.3573   -6.7031   -0.0000 C   0  0  0  0  0  0  0  0  0  0  0  0
    2.5360   -5.9292   -0.0000 C   0  0  0  0  0  0  0  0  0  0  0  0
    1.2263   -8.1914   -0.0000 C   0  0  0  0  0  0  0  0  0  0  0  0
   -1.3692   -8.1914   -0.0000 O   0  0  0  0  0  0  0  0  0  0  0  0
   -2.6670   -5.9411   -0.0000 N   0  0  0  0  0  0  0  0  0  0  0  0
    2.5241   -4.4171   -0.0000 O   0  0  0  0  0  0  0  0  0  0  0  0
    3.8218   -6.6674   -0.0000 C   0  0  0  0  0  0  0  0  0  0  0  0
    2.5241   -8.9295   -0.0000 C   0  0  0  0  0  0  0  0  0  0  0  0
   -3.9885   -6.6793   -0.0000 C   0  0  0  0  0  0  0  0  0  0  0  0
    3.8099   -3.6552   -0.0000 C   0  0  0  0  0  0  0  0  0  0  0  0
    3.8099   -8.1556   -0.0000 C   0  0  0  0  0  0  0  0  0  0  0  0
    2.5122  -10.4178   -0.0000 F   0  0  0  0  0  0  0  0  0  0  0  0
    5.0958   -8.8938   -0.0000 C   0  0  0  0  0  0  0  0  0  0  0  0
    6.3935   -8.1318   -0.0000 C   0  0  0  0  0  0  0  0  0  0  0  0
    5.0839  -10.3940   -0.0000 C   0  0  0  0  0  0  0  0  0  0  0  0
    7.6794   -8.8700   -0.0000 C   0  0  0  0  0  0  0  0  0  0  0  0
    6.3816  -11.1321   -0.0000 C   0  0  0  0  0  0  0  0  0  0  0  0
    7.6675  -10.3583   -0.0000 C   0  0  0  0  0  0  0  0  0  0  0  0
    8.9653   -8.1080   -0.0000 C   0  0  0  0  0  0  0  0  0  0  0  0
    8.9533   -6.5959   -0.0000 F   0  0  0  0  0  0  0  0  0  0  0  0
   10.2630   -8.8462   -0.0000 F   0  0  0  0  0  0  0  0  0  0  0  0
   10.2630   -7.3460   -0.0000 F   0  0  0  0  0  0  0  0  0  0  0  0
  1  2  2  0  0  0  0
  1  3  2  0  0  0  0
  1  4  1  0  0  0  0
  1  5  1  0  0  0  0
  4  6  1  0  0  0  0
  5  7  2  0  0  0  0
  5  8  1  0  0  0  0
  6  9  2  0  0  0  0
  6 10  1  0  0  0  0
  7 11  1  0  0  0  0
  8 12  2  0  0  0  0
  9 13  1  0  0  0  0
 10 14  2  0  0  0  0
 11 15  2  0  0  0  0
 13 16  2  0  0  0  0
 15 17  1  0  0  0  0
 17 18  1  0  0  0  0
 17 19  1  0  0  0  0
 18 20  2  0  0  0  0
 18 21  1  0  0  0  0
 19 22  2  0  0  0  0
 19 23  1  0  0  0  0
 20 24  1  0  0  0  0
 20 25  1  0  0  0  0
 21 26  2  0  0  0  0
 23 27  1  0  0  0  0
 24 28  1  0  0  0  0
 25 29  2  0  0  0  0
 26 30  1  0  0  0  0
 29 31  1  0  0  0  0
 31 32  2  0  0  0  0
 31 33  1  0  0  0  0
 32 34  1  0  0  0  0
 33 35  2  0  0  0  0
 34 36  2  0  0  0  0
 34 37  1  0  0  0  0
 37 38  1  0  0  0  0
 37 39  1  0  0  0  0
 37 40  1  0  0  0  0
 12 15  1  0  0  0  0
 14 16  1  0  0  0  0
 26 29  1  0  0  0  0
 35 36  1  0  0  0  0
M  END
>  <MolRegNo>
2752827

>  <m>
=

>  <Value>
9000

>  <Unit>
nM

>  <Type>
IC50

>  <pValue>
5.05

>  <Ligand Efficiency>
0

>  <Binding Efficiency>
0

>  <Surface Efficiency>
0

>  <Assay Index>
1533582

>  <Assay Category>


>  <Assay Organism>
Homo sapiens

>  <Target ID>
17045

>  <Target Name>
Cytochrome P450 3A4

>  <Target Organism>
Homo sapiens

>  <Target Description>
Target is a single protein chain

>  <Sequence Accession>
P08684

>  <Reference>


>  <Pubmed ID>
35850422

>  <DOI>
10.1016/j.bmcl.2022.128892

$$$$
2780336
Actelion Java MolfileCreator 1.0

 40 45  0  0  0  0  0  0  0  0999 V2000
    0.0000   -0.0000   -0.0000 F   0  0  0  0  0  0  0  0  0  0  0  0
    1.3004    0.7635   -0.0000 C   0  0  0  0  0  0  0  0  0  0  0  0
    1.2885    2.2906   -0.0000 C   0  0  0  0  0  0  0  0  0  0  0  0
    2.6008    0.0239   -0.0000 C   0  0  0  0  0  0  0  0  0  0  0  0
    2.5888    3.0541   -0.0000 C   0  0  0  0  0  0  0  0  0  0  0  0
   -0.0358    3.0541   -0.0000 C   0  0  0  0  0  0  0  0  0  0  0  0
    3.8892    0.7874   -0.0000 C   0  0  0  0  0  0  0  0  0  0  0  0
    2.5888   -1.4674   -0.0000 C   0  0  0  0  0  0  0  0  0  0  0  0
    3.8773    2.3144   -0.0000 C   0  0  0  0  0  0  0  0  0  0  0  0
   -1.3600    2.3144   -0.0000 F   0  0  0  0  0  0  0  0  0  0  0  0
   -0.0477    4.5692   -0.0000 F   0  0  0  0  0  0  0  0  0  0  0  0
    3.8892   -2.2071   -0.0000 N   0  0  0  0  0  0  0  0  0  0  0  0
    1.2646   -2.2071   -0.0000 C   0  0  0  0  0  0  0  0  0  0  0  0
    3.8773   -3.6983   -0.0000 C   0  0  0  0  0  0  0  0  0  0  0  0
    2.5530   -4.4499   -0.0000 N   0  0  0  0  0  0  0  0  0  0  0  0
    5.1777   -4.4380   -0.0000 C   0  0  0  0  0  0  0  0  0  0  0  0
    2.5530   -5.9412   -0.0000 C   0  0  0  0  0  0  0  0  0  0  0  0
    5.1657   -5.9293   -0.0000 C   0  0  0  0  0  0  0  0  0  0  0  0
    6.4661   -3.6745   -0.0000 C   0  0  0  0  0  0  0  0  0  0  0  0
    3.8415   -6.6809   -0.0000 N   0  0  0  0  0  0  0  0  0  0  0  0
    1.2288   -6.6809   -0.0000 C   0  0  0  0  0  0  0  0  0  0  0  0
    6.4661   -6.6689   -0.0000 C   0  0  0  0  0  0  0  0  0  0  0  0
    7.7546   -4.4141   -0.0000 C   0  0  0  0  0  0  0  0  0  0  0  0
    7.7546   -5.8935   -0.0000 C   0  0  0  0  0  0  0  0  0  0  0  0
    8.9118   -3.4717   -0.0000 N   0  0  0  0  0  0  0  0  0  0  0  0
    8.9118   -6.8121   -0.0000 O   0  0  0  0  0  0  0  0  0  0  0  0
   10.3553   -3.7938   -0.0000 C   0  0  0  0  0  0  0  0  0  0  0  0
    8.4584   -2.0281   -0.0000 C   0  0  0  0  0  0  0  0  0  0  0  0
   10.3553   -6.4542   -0.0000 C   0  0  0  0  0  0  0  0  0  0  0  0
   10.9996   -5.1180   -0.0000 C   0  0  0  0  0  0  0  0  0  0  0  0
   11.3575   -2.6843   -0.0000 C   0  0  0  0  0  0  0  0  0  0  0  0
    9.4606   -0.9186   -0.0000 C   0  0  0  0  0  0  0  0  0  0  0  0
   10.9041   -1.2407   -0.0000 N   0  0  0  0  0  0  0  0  0  0  0  0
   11.9540   -0.1670   -0.0000 C   0  0  0  0  0  0  0  0  0  0  0  0
   11.5483    1.3004   -0.0000 O   0  0  0  0  0  0  0  0  0  0  0  0
   13.3975   -0.5488   -0.0000 C   0  0  0  0  0  0  0  0  0  0  0  0
   14.4474    0.5249   -0.0000 C   0  0  0  0  0  0  0  0  0  0  0  0
   12.9919   -1.9923   -0.0000 C   0  0  0  0  0  0  0  0  0  0  0  0
   14.4474   -1.6106   -0.0000 C   0  0  0  0  0  0  0  0  0  0  0  0
   15.4972    1.5986   -0.0000 N   0  0  0  0  0  0  0  0  0  0  0  0
  1  2  1  0  0  0  0
  2  3  2  0  0  0  0
  2  4  1  0  0  0  0
  3  5  1  0  0  0  0
  3  6  1  0  0  0  0
  4  7  2  0  0  0  0
  4  8  1  0  0  0  0
  5  9  2  0  0  0  0
  6 10  1  0  0  0  0
  6 11  1  0  0  0  0
  8 12  1  1  0  0  0
  8 13  1  0  0  0  0
 12 14  1  0  0  0  0
 14 15  2  0  0  0  0
 14 16  1  0  0  0  0
 15 17  1  0  0  0  0
 16 18  1  0  0  0  0
 16 19  2  0  0  0  0
 17 20  2  0  0  0  0
 17 21  1  0  0  0  0
 18 22  2  0  0  0  0
 19 23  1  0  0  0  0
 22 24  1  0  0  0  0
 23 25  1  0  0  0  0
 24 26  1  0  0  0  0
 27 25  1  1  0  0  0
 25 28  1  0  0  0  0
 26 29  1  0  0  0  0
 27 30  1  0  0  0  0
 27 31  1  0  0  0  0
 28 32  1  0  0  0  0
 31 33  1  0  0  0  0
 33 34  1  0  0  0  0
 34 35  2  0  0  0  0
 34 36  1  0  0  0  0
 36 37  1  0  0  0  0
 36 38  1  0  0  0  0
 36 39  1  0  0  0  0
 37 40  3  0  0  0  0
  7  9  1  0  0  0  0
 18 20  1  0  0  0  0
 23 24  2  0  0  0  0
 29 30  1  0  0  0  0
 32 33  1  0  0  0  0
 38 39  1  0  0  0  0
M  END
>  <MolRegNo>
2780336

>  <m>
=

>  <Value>
22100

>  <Unit>
nM

>  <Type>
IC50

>  <pValue>
4.66

>  <Ligand Efficiency>
0

>  <Binding Efficiency>
0

>  <Surface Efficiency>
0

>  <Assay Index>
1534911

>  <Assay Category>


>  <Assay Organism>
Homo sapiens

>  <Target ID>
17045

>  <Target Name>
Cytochrome P450 3A4

>  <Target Organism>
Homo sapiens

>  <Target Description>
Target is a single protein chain

>  <Sequence Accession>
P08684

>  <Reference>
J Med Chem 65 (19.0), 13158-13171 (2022)

>  <Pubmed ID>
36173339

>  <DOI>
10.1021/acs.jmedchem.2c00986

$$$$
2774381
Actelion Java MolfileCreator 1.0

 32 35  0  0  0  0  0  0  0  0999 V2000
    0.0000   -0.0000   -0.0000 F   0  0  0  0  0  0  0  0  0  0  0  0
    1.2978    0.7620   -0.0000 C   0  0  0  0  0  0  0  0  0  0  0  0
    1.2859    2.2742   -0.0000 F   0  0  0  0  0  0  0  0  0  0  0  0
   -0.0238    1.5241   -0.0000 F   0  0  0  0  0  0  0  0  0  0  0  0
    2.5957    0.0238   -0.0000 C   0  0  0  0  0  0  0  0  0  0  0  0
    3.8935    0.7858   -0.0000 C   0  0  0  0  0  0  0  0  0  0  0  0
    2.5838   -1.4645   -0.0000 C   0  0  0  0  0  0  0  0  0  0  0  0
    5.1794    0.0476   -0.0000 C   0  0  0  0  0  0  0  0  0  0  0  0
    3.8816   -2.2027   -0.0000 C   0  0  0  0  0  0  0  0  0  0  0  0
    6.4772    0.8097   -0.0000 N   0  0  0  0  0  0  0  0  0  0  0  0
    5.1794   -1.4407   -0.0000 C   0  0  0  0  0  0  0  0  0  0  0  0
    3.8697   -3.6911   -0.0000 C   0  0  0  0  0  0  0  0  0  0  0  0
    5.1675   -4.4293   -0.0000 N   0  0  0  0  0  0  0  0  0  0  0  0
    2.5480   -4.4293   -0.0000 C   0  0  0  0  0  0  0  0  0  0  0  0
    5.1556   -5.9176   -0.0000 C   0  0  0  0  0  0  0  0  0  0  0  0
    3.8340   -6.6558   -0.0000 N   0  0  0  0  0  0  0  0  0  0  0  0
    6.4415   -6.6558   -0.0000 C   0  0  0  0  0  0  0  0  0  0  0  0
    3.8221   -8.1561   -0.0000 C   0  0  0  0  0  0  0  0  0  0  0  0
    6.4296   -8.1442   -0.0000 C   0  0  0  0  0  0  0  0  0  0  0  0
    7.7275   -5.8938   -0.0000 C   0  0  0  0  0  0  0  0  0  0  0  0
    5.1199   -8.8943   -0.0000 N   0  0  0  0  0  0  0  0  0  0  0  0
    2.5004   -8.8943   -0.0000 C   0  0  0  0  0  0  0  0  0  0  0  0
    7.7275   -8.8824   -0.0000 C   0  0  0  0  0  0  0  0  0  0  0  0
    9.0253   -6.6320   -0.0000 C   0  0  0  0  0  0  0  0  0  0  0  0
    9.0134   -8.1085   -0.0000 C   0  0  0  0  0  0  0  0  0  0  0  0
   10.3231   -5.8700   -0.0000 O   0  0  0  0  0  0  0  0  0  0  0  0
   10.3112   -8.8467   -0.0000 O   0  0  0  0  0  0  0  0  0  0  0  0
   10.3112   -4.3579   -0.0000 C   0  0  0  0  0  0  0  0  0  0  0  0
   11.5138   -3.4649   -0.0000 C   0  0  0  0  0  0  0  0  0  0  0  0
    9.0848   -3.4649   -0.0000 C   0  0  0  0  0  0  0  0  0  0  0  0
   11.0375   -2.0241   -0.0000 O   0  0  0  0  0  0  0  0  0  0  0  0
    9.5373   -2.0241   -0.0000 C   0  0  0  0  0  0  0  0  0  0  0  0
  1  2  1  0  0  0  0
  2  3  1  0  0  0  0
  2  4  1  0  0  0  0
  2  5  1  0  0  0  0
  5  6  2  0  0  0  0
  5  7  1  0  0  0  0
  6  8  1  0  0  0  0
  7  9  2  0  0  0  0
  8 10  1  0  0  0  0
  8 11  2  0  0  0  0
  9 12  1  0  0  0  0
 12 13  1  6  0  0  0
 12 14  1  0  0  0  0
 13 15  1  0  0  0  0
 15 16  2  0  0  0  0
 15 17  1  0  0  0  0
 16 18  1  0  0  0  0
 17 19  1  0  0  0  0
 17 20  2  0  0  0  0
 18 21  2  0  0  0  0
 18 22  1  0  0  0  0
 19 23  2  0  0  0  0
 20 24  1  0  0  0  0
 23 25  1  0  0  0  0
 24 26  1  0  0  0  0
 25 27  1  0  0  0  0
 28 26  1  1  0  0  0
 28 29  1  0  0  0  0
 28 30  1  0  0  0  0
 29 31  1  0  0  0  0
 30 32  1  0  0  0  0
  9 11  1  0  0  0  0
 19 21  1  0  0  0  0
 24 25  2  0  0  0  0
 31 32  1  0  0  0  0
M  END
>  <MolRegNo>
2774381

>  <m>
=

>  <Value>
54300

>  <Unit>
nM

>  <Type>
IC50

>  <pValue>
4.26

>  <Ligand Efficiency>
0

>  <Binding Efficiency>
0

>  <Surface Efficiency>
0

>  <Assay Index>
1534911

>  <Assay Category>


>  <Assay Organism>
Homo sapiens

>  <Target ID>
17045

>  <Target Name>
Cytochrome P450 3A4

>  <Target Organism>
Homo sapiens

>  <Target Description>
Target is a single protein chain

>  <Sequence Accession>
P08684

>  <Reference>
J Med Chem 65 (19.0), 13158-13171 (2022)

>  <Pubmed ID>
36173339

>  <DOI>
10.1021/acs.jmedchem.2c00986

$$$$
2746099
Actelion Java MolfileCreator 1.0

 41 45  0  0  0  0  0  0  0  0999 V2000
    0.0000   -0.0000   -0.0000 O   0  0  0  0  0  0  0  0  0  0  0  0
   -0.0119   -1.4840   -0.0000 C   0  0  0  0  0  0  0  0  0  0  0  0
   -1.3297   -2.2201   -0.0000 N   0  0  0  0  0  0  0  0  0  0  0  0
    1.2822   -2.2201   -0.0000 C   0  0  0  0  0  0  0  0  0  0  0  0
   -1.3415   -3.7041   -0.0000 C   0  0  0  0  0  0  0  0  0  0  0  0
   -2.6475   -1.4603   -0.0000 C   0  0  0  0  0  0  0  0  0  0  0  0
    1.2703   -3.7160   -0.0000 C   0  0  0  0  0  0  0  0  0  0  0  0
    2.5762   -1.4603   -0.0000 C   0  0  0  0  0  0  0  0  0  0  0  0
   -2.6593   -4.4402   -0.0000 C   0  0  0  0  0  0  0  0  0  0  0  0
   -3.9653   -2.1963   -0.0000 C   0  0  0  0  0  0  0  0  0  0  0  0
    2.5644   -4.4520   -0.0000 N   0  0  0  0  0  0  0  0  0  0  0  0
    3.8584   -2.1963   -0.0000 C   0  0  0  0  0  0  0  0  0  0  0  0
   -3.9771   -3.6803   -0.0000 C   0  0  0  0  0  0  0  0  0  0  0  0
    3.8465   -3.6922   -0.0000 C   0  0  0  0  0  0  0  0  0  0  0  0
   -5.2949   -4.4164   -0.0000 O   0  0  0  0  0  0  0  0  0  0  0  0
    5.1406   -4.4283   -0.0000 C   0  0  0  0  0  0  0  0  0  0  0  0
   -6.6127   -3.6566   -0.0000 C   0  0  0  0  0  0  0  0  0  0  0  0
    5.1287   -5.9123   -0.0000 O   0  0  0  0  0  0  0  0  0  0  0  0
    6.4347   -3.6685   -0.0000 N   0  0  0  0  0  0  0  0  0  0  0  0
   -7.9305   -4.3927   -0.0000 C   0  0  0  0  0  0  0  0  0  0  0  0
   -6.6246   -2.1370   -0.0000 C   0  0  0  0  0  0  0  0  0  0  0  0
    7.7287   -4.4045   -0.0000 C   0  0  0  0  0  0  0  0  0  0  0  0
   -9.2365   -3.6329   -0.0000 C   0  0  0  0  0  0  0  0  0  0  0  0
   -7.9424   -1.3772   -0.0000 C   0  0  0  0  0  0  0  0  0  0  0  0
    9.0228   -3.6447   -0.0000 C   0  0  0  0  0  0  0  0  0  0  0  0
    7.7168   -5.8885   -0.0000 C   0  0  0  0  0  0  0  0  0  0  0  0
   -9.2483   -2.1132   -0.0000 C   0  0  0  0  0  0  0  0  0  0  0  0
   10.3168   -4.3808   -0.0000 C   0  0  0  0  0  0  0  0  0  0  0  0
    9.0109   -6.6246   -0.0000 C   0  0  0  0  0  0  0  0  0  0  0  0
  -10.5661   -1.3534   -0.0000 C   0  0  0  0  0  0  0  0  0  0  0  0
   10.3050   -5.8648   -0.0000 N   0  0  0  0  0  0  0  0  0  0  0  0
  -11.8839   -0.5936   -0.0000 N   0  0  0  0  0  0  0  0  0  0  0  0
   11.5990   -6.6009   -0.0000 C   0  0  0  0  0  0  0  0  0  0  0  0
   12.8931   -5.8411   -0.0000 C   0  0  0  0  0  0  0  0  0  0  0  0
   12.8812   -4.3333   -0.0000 C   0  0  0  0  0  0  0  0  0  0  0  0
   14.1871   -6.5890   -0.0000 C   0  0  0  0  0  0  0  0  0  0  0  0
   14.1634   -3.5735   -0.0000 C   0  0  0  0  0  0  0  0  0  0  0  0
   15.4693   -5.8173   -0.0000 C   0  0  0  0  0  0  0  0  0  0  0  0
   15.4574   -4.3096   -0.0000 C   0  0  0  0  0  0  0  0  0  0  0  0
   16.7515   -3.5497   -0.0000 C   0  0  0  0  0  0  0  0  0  0  0  0
   18.0455   -2.7899   -0.0000 N   0  0  0  0  0  0  0  0  0  0  0  0
  1  2  2  0  0  0  0
  2  3  1  0  0  0  0
  2  4  1  0  0  0  0
  3  5  1  0  0  0  0
  3  6  1  0  0  0  0
  4  7  2  0  0  0  0
  4  8  1  0  0  0  0
  5  9  1  0  0  0  0
  6 10  1  0  0  0  0
  7 11  1  0  0  0  0
  8 12  2  0  0  0  0
  9 13  1  0  0  0  0
 11 14  2  0  0  0  0
 13 15  1  0  0  0  0
 14 16  1  0  0  0  0
 15 17  1  0  0  0  0
 16 18  2  0  0  0  0
 16 19  1  0  0  0  0
 17 20  2  0  0  0  0
 17 21  1  0  0  0  0
 19 22  1  0  0  0  0
 20 23  1  0  0  0  0
 21 24  2  0  0  0  0
 22 25  1  0  0  0  0
 22 26  1  0  0  0  0
 23 27  2  0  0  0  0
 25 28  1  0  0  0  0
 26 29  1  0  0  0  0
 27 30  1  0  0  0  0
 28 31  1  0  0  0  0
 30 32  3  0  0  0  0
 31 33  1  0  0  0  0
 33 34  1  0  0  0  0
 34 35  2  0  0  0  0
 34 36  1  0  0  0  0
 35 37  1  0  0  0  0
 36 38  2  0  0  0  0
 37 39  2  0  0  0  0
 39 40  1  0  0  0  0
 40 41  3  0  0  0  0
 10 13  1  0  0  0  0
 12 14  1  0  0  0  0
 24 27  1  0  0  0  0
 29 31  1  0  0  0  0
 38 39  1  0  0  0  0
M  END
>  <MolRegNo>
2746099

>  <m>
=

>  <Value>
3500

>  <Unit>
nM

>  <Type>
IC50

>  <pValue>
5.46

>  <Ligand Efficiency>
0

>  <Binding Efficiency>
0

>  <Surface Efficiency>
0

>  <Assay Index>
1538339

>  <Assay Category>


>  <Assay Organism>
Homo sapiens

>  <Target ID>
17045

>  <Target Name>
Cytochrome P450 3A4

>  <Target Organism>
Homo sapiens

>  <Target Description>
Target is a single protein chain

>  <Sequence Accession>
P08684

>  <Reference>


>  <Pubmed ID>
35973281

>  <DOI>
10.1016/j.bmc.2022.116951

$$$$
2754810
Actelion Java MolfileCreator 1.0

 41 45  0  0  0  0  0  0  0  0999 V2000
    0.0000   -0.0000   -0.0000 F   0  0  0  0  0  0  0  0  0  0  0  0
    1.2975   -0.7380   -0.0000 C   0  0  0  0  0  0  0  0  0  0  0  0
    2.5830    0.0238   -0.0000 C   0  0  0  0  0  0  0  0  0  0  0  0
    1.2856   -2.2378   -0.0000 C   0  0  0  0  0  0  0  0  0  0  0  0
    3.8805   -0.7142   -0.0000 C   0  0  0  0  0  0  0  0  0  0  0  0
    2.5711   -2.9758   -0.0000 C   0  0  0  0  0  0  0  0  0  0  0  0
    3.8686   -2.2140   -0.0000 C   0  0  0  0  0  0  0  0  0  0  0  0
    5.1661   -2.9520   -0.0000 C   0  0  0  0  0  0  0  0  0  0  0  0
    5.1542   -4.4519   -0.0000 F   0  0  0  0  0  0  0  0  0  0  0  0
    6.4635   -2.1902   -0.0000 C   0  0  0  0  0  0  0  0  0  0  0  0
    6.4516   -0.6785   -0.0000 C   0  0  0  0  0  0  0  0  0  0  0  0
    7.7610   -2.9282   -0.0000 C   0  0  0  0  0  0  0  0  0  0  0  0
    7.7491    0.0833   -0.0000 C   0  0  0  0  0  0  0  0  0  0  0  0
    9.0585   -2.1664   -0.0000 C   0  0  0  0  0  0  0  0  0  0  0  0
    9.0465   -0.6547   -0.0000 N   0  0  0  0  0  0  0  0  0  0  0  0
   10.3440    0.1071   -0.0000 C   0  0  0  0  0  0  0  0  0  0  0  0
   10.3321    1.6308   -0.0000 O   0  0  0  0  0  0  0  0  0  0  0  0
   11.6415   -0.6309   -0.0000 C   0  0  0  0  0  0  0  0  0  0  0  0
   11.6296   -2.1307   -0.0000 C   0  0  0  0  0  0  0  0  0  0  0  0
   12.9389    0.1309   -0.0000 C   0  0  0  0  0  0  0  0  0  0  0  0
   12.9270   -2.8687   -0.0000 N   0  0  0  0  0  0  0  0  0  0  0  0
   14.2245   -0.6071   -0.0000 C   0  0  0  0  0  0  0  0  0  0  0  0
   14.2126   -2.1069   -0.0000 C   0  0  0  0  0  0  0  0  0  0  0  0
   15.5101   -2.8449   -0.0000 C   0  0  0  0  0  0  0  0  0  0  0  0
   15.4982   -4.3447   -0.0000 O   0  0  0  0  0  0  0  0  0  0  0  0
   16.8075   -2.0831   -0.0000 N   0  0  0  0  0  0  0  0  0  0  0  0
   18.1050   -2.8211   -0.0000 C   0  0  0  0  0  0  0  0  0  0  0  0
   19.4025   -2.0593   -0.0000 C   0  0  0  0  0  0  0  0  0  0  0  0
   18.0931   -4.3209   -0.0000 C   0  0  0  0  0  0  0  0  0  0  0  0
   20.6999   -2.7973   -0.0000 C   0  0  0  0  0  0  0  0  0  0  0  0
   19.3906   -5.0589   -0.0000 C   0  0  0  0  0  0  0  0  0  0  0  0
   20.6880   -4.2971   -0.0000 N   0  0  0  0  0  0  0  0  0  0  0  0
   21.9855   -5.0351   -0.0000 C   0  0  0  0  0  0  0  0  0  0  0  0
   23.2830   -4.2733   -0.0000 C   0  0  0  0  0  0  0  0  0  0  0  0
   23.2711   -2.7497   -0.0000 C   0  0  0  0  0  0  0  0  0  0  0  0
   24.5804   -5.0232   -0.0000 C   0  0  0  0  0  0  0  0  0  0  0  0
   24.5566   -1.9879   -0.0000 C   0  0  0  0  0  0  0  0  0  0  0  0
   25.8660   -4.2495   -0.0000 C   0  0  0  0  0  0  0  0  0  0  0  0
   25.8541   -2.7259   -0.0000 C   0  0  0  0  0  0  0  0  0  0  0  0
   27.1515   -1.9641   -0.0000 C   0  0  0  0  0  0  0  0  0  0  0  0
   28.4490   -1.2022   -0.0000 N   0  0  0  0  0  0  0  0  0  0  0  0
  1  2  1  0  0  0  0
  2  3  2  0  0  0  0
  2  4  1  0  0  0  0
  3  5  1  0  0  0  0
  4  6  2  0  0  0  0
  5  7  2  0  0  0  0
  7  8  1  0  0  0  0
  8  9  1  0  0  0  0
  8 10  1  0  0  0  0
 10 11  1  0  0  0  0
 10 12  1  0  0  0  0
 11 13  1  0  0  0  0
 12 14  1  0  0  0  0
 13 15  1  0  0  0  0
 15 16  1  0  0  0  0
 16 17  2  0  0  0  0
 16 18  1  0  0  0  0
 18 19  2  0  0  0  0
 18 20  1  0  0  0  0
 19 21  1  0  0  0  0
 20 22  2  0  0  0  0
 21 23  2  0  0  0  0
 23 24  1  0  0  0  0
 24 25  2  0  0  0  0
 24 26  1  0  0  0  0
 26 27  1  0  0  0  0
 27 28  1  0  0  0  0
 27 29  1  0  0  0  0
 28 30  1  0  0  0  0
 29 31  1  0  0  0  0
 30 32  1  0  0  0  0
 32 33  1  0  0  0  0
 33 34  1  0  0  0  0
 34 35  2  0  0  0  0
 34 36  1  0  0  0  0
 35 37  1  0  0  0  0
 36 38  2  0  0  0  0
 37 39  2  0  0  0  0
 39 40  1  0  0  0  0
 40 41  3  0  0  0  0
  6  7  1  0  0  0  0
 14 15  1  0  0  0  0
 22 23  1  0  0  0  0
 31 32  1  0  0  0  0
 38 39  1  0  0  0  0
M  END
>  <MolRegNo>
2754810

>  <m>
=

>  <Value>
9800

>  <Unit>
nM

>  <Type>
IC50

>  <pValue>
5.01

>  <Ligand Efficiency>
0

>  <Binding Efficiency>
0

>  <Surface Efficiency>
0

>  <Assay Index>
1538339

>  <Assay Category>


>  <Assay Organism>
Homo sapiens

>  <Target ID>
17045

>  <Target Name>
Cytochrome P450 3A4

>  <Target Organism>
Homo sapiens

>  <Target Description>
Target is a single protein chain

>  <Sequence Accession>
P08684

>  <Reference>


>  <Pubmed ID>
35973281

>  <DOI>
10.1016/j.bmc.2022.116951

$$$$
2750550
Actelion Java MolfileCreator 1.0

 41 45  0  0  0  0  0  0  0  0999 V2000
    0.0000   -0.0000   -0.0000 O   0  0  0  0  0  0  0  0  0  0  0  0
   -0.0119   -1.4843   -0.0000 C   0  0  0  0  0  0  0  0  0  0  0  0
   -1.3299   -2.2205   -0.0000 N   0  0  0  0  0  0  0  0  0  0  0  0
    1.2824   -2.2205   -0.0000 C   0  0  0  0  0  0  0  0  0  0  0  0
   -1.3418   -3.7047   -0.0000 C   0  0  0  0  0  0  0  0  0  0  0  0
   -2.6479   -1.4605   -0.0000 C   0  0  0  0  0  0  0  0  0  0  0  0
    1.2705   -3.7166   -0.0000 C   0  0  0  0  0  0  0  0  0  0  0  0
    2.5767   -1.4605   -0.0000 C   0  0  0  0  0  0  0  0  0  0  0  0
   -2.6598   -4.4409   -0.0000 C   0  0  0  0  0  0  0  0  0  0  0  0
   -3.9660   -2.1967   -0.0000 C   0  0  0  0  0  0  0  0  0  0  0  0
    2.5648   -4.4528   -0.0000 N   0  0  0  0  0  0  0  0  0  0  0  0
    3.8591   -2.1967   -0.0000 C   0  0  0  0  0  0  0  0  0  0  0  0
   -3.9778   -3.6810   -0.0000 C   0  0  0  0  0  0  0  0  0  0  0  0
    3.8472   -3.6929   -0.0000 C   0  0  0  0  0  0  0  0  0  0  0  0
   -5.2959   -4.4172   -0.0000 C   0  0  0  0  0  0  0  0  0  0  0  0
    5.1415   -4.4290   -0.0000 C   0  0  0  0  0  0  0  0  0  0  0  0
   -6.6139   -3.6572   -0.0000 C   0  0  0  0  0  0  0  0  0  0  0  0
    5.1296   -5.9133   -0.0000 O   0  0  0  0  0  0  0  0  0  0  0  0
    6.4358   -3.6691   -0.0000 N   0  0  0  0  0  0  0  0  0  0  0  0
   -7.9319   -4.3934   -0.0000 C   0  0  0  0  0  0  0  0  0  0  0  0
   -6.6258   -2.1373   -0.0000 C   0  0  0  0  0  0  0  0  0  0  0  0
    7.7301   -4.4053   -0.0000 C   0  0  0  0  0  0  0  0  0  0  0  0
   -9.2381   -3.6335   -0.0000 C   0  0  0  0  0  0  0  0  0  0  0  0
   -7.9438   -1.3774   -0.0000 C   0  0  0  0  0  0  0  0  0  0  0  0
    9.0243   -3.6454   -0.0000 C   0  0  0  0  0  0  0  0  0  0  0  0
    7.7182   -5.8896   -0.0000 C   0  0  0  0  0  0  0  0  0  0  0  0
   -9.2499   -2.1136   -0.0000 C   0  0  0  0  0  0  0  0  0  0  0  0
   10.3186   -4.3816   -0.0000 C   0  0  0  0  0  0  0  0  0  0  0  0
    9.0125   -6.6258   -0.0000 C   0  0  0  0  0  0  0  0  0  0  0  0
  -10.5680   -1.3537   -0.0000 O   0  0  0  0  0  0  0  0  0  0  0  0
   10.3067   -5.8658   -0.0000 N   0  0  0  0  0  0  0  0  0  0  0  0
  -11.8860   -2.0898   -0.0000 C   0  0  0  0  0  0  0  0  0  0  0  0
   11.6010   -6.6020   -0.0000 C   0  0  0  0  0  0  0  0  0  0  0  0
   12.8953   -5.8421   -0.0000 C   0  0  0  0  0  0  0  0  0  0  0  0
   12.8834   -4.3341   -0.0000 C   0  0  0  0  0  0  0  0  0  0  0  0
   14.1896   -6.5901   -0.0000 C   0  0  0  0  0  0  0  0  0  0  0  0
   14.1658   -3.5741   -0.0000 C   0  0  0  0  0  0  0  0  0  0  0  0
   15.4720   -5.8183   -0.0000 C   0  0  0  0  0  0  0  0  0  0  0  0
   15.4601   -4.3103   -0.0000 C   0  0  0  0  0  0  0  0  0  0  0  0
   16.7544   -3.5504   -0.0000 C   0  0  0  0  0  0  0  0  0  0  0  0
   18.0487   -2.7904   -0.0000 N   0  0  0  0  0  0  0  0  0  0  0  0
  1  2  2  0  0  0  0
  2  3  1  0  0  0  0
  2  4  1  0  0  0  0
  3  5  1  0  0  0  0
  3  6  1  0  0  0  0
  4  7  2  0  0  0  0
  4  8  1  0  0  0  0
  5  9  1  0  0  0  0
  6 10  1  0  0  0  0
  7 11  1  0  0  0  0
  8 12  2  0  0  0  0
  9 13  1  0  0  0  0
 11 14  2  0  0  0  0
 13 15  1  0  0  0  0
 14 16  1  0  0  0  0
 15 17  1  0  0  0  0
 16 18  2  0  0  0  0
 16 19  1  0  0  0  0
 17 20  2  0  0  0  0
 17 21  1  0  0  0  0
 19 22  1  0  0  0  0
 20 23  1  0  0  0  0
 21 24  2  0  0  0  0
 22 25  1  0  0  0  0
 22 26  1  0  0  0  0
 23 27  2  0  0  0  0
 25 28  1  0  0  0  0
 26 29  1  0  0  0  0
 27 30  1  0  0  0  0
 28 31  1  0  0  0  0
 30 32  1  0  0  0  0
 31 33  1  0  0  0  0
 33 34  1  0  0  0  0
 34 35  2  0  0  0  0
 34 36  1  0  0  0  0
 35 37  1  0  0  0  0
 36 38  2  0  0  0  0
 37 39  2  0  0  0  0
 39 40  1  0  0  0  0
 40 41  3  0  0  0  0
 10 13  1  0  0  0  0
 12 14  1  0  0  0  0
 24 27  1  0  0  0  0
 29 31  1  0  0  0  0
 38 39  1  0  0  0  0
M  END
>  <MolRegNo>
2750550

>  <m>
=

>  <Value>
2000

>  <Unit>
nM

>  <Type>
IC50

>  <pValue>
5.7

>  <Ligand Efficiency>
0

>  <Binding Efficiency>
0

>  <Surface Efficiency>
0

>  <Assay Index>
1538340

>  <Assay Category>


>  <Assay Organism>
Homo sapiens

>  <Target ID>
17045

>  <Target Name>
Cytochrome P450 3A4

>  <Target Organism>
Homo sapiens

>  <Target Description>
Target is a single protein chain

>  <Sequence Accession>
P08684

>  <Reference>


>  <Pubmed ID>
35973281

>  <DOI>
10.1016/j.bmc.2022.116951

$$$$
2772127
Actelion Java MolfileCreator 1.0

 37 40  0  0  0  0  0  0  0  0999 V2000
    0.0000   -0.0000   -0.0000 F   0  0  0  0  0  0  0  0  0  0  0  0
   -0.4027   -1.4330   -0.0000 C   0  0  0  0  0  0  0  0  0  0  0  0
    0.6395   -2.4751   -0.0000 C   0  0  0  0  0  0  0  0  0  0  0  0
   -1.8593   -1.8119   -0.0000 C   0  0  0  0  0  0  0  0  0  0  0  0
    2.0725   -2.0725   -0.0000 O   0  0  0  0  0  0  0  0  0  0  0  0
    0.2369   -3.9081   -0.0000 C   0  0  0  0  0  0  0  0  0  0  0  0
   -2.2619   -3.2567   -0.0000 C   0  0  0  0  0  0  0  0  0  0  0  0
   -2.9251   -0.7461   -0.0000 C   0  0  0  0  0  0  0  0  0  0  0  0
    2.4514   -0.6158   -0.0000 C   0  0  0  0  0  0  0  0  0  0  0  0
   -1.2080   -4.2870   -0.0000 C   0  0  0  0  0  0  0  0  0  0  0  0
   -3.7186   -3.6357   -0.0000 F   0  0  0  0  0  0  0  0  0  0  0  0
   -4.3818   -1.1251   -0.0000 N   0  0  0  0  0  0  0  0  0  0  0  0
   -5.4476   -0.0592   -0.0000 C   0  0  0  0  0  0  0  0  0  0  0  0
   -5.0687    1.3974   -0.0000 O   0  0  0  0  0  0  0  0  0  0  0  0
   -6.9043   -0.4382   -0.0000 C   0  0  0  0  0  0  0  0  0  0  0  0
   -7.5201   -1.7646   -0.0000 C   0  0  0  0  0  0  0  0  0  0  0  0
   -8.0412    0.6158   -0.0000 C   0  0  0  0  0  0  0  0  0  0  0  0
   -9.0241   -1.5869   -0.0000 N   0  0  0  0  0  0  0  0  0  0  0  0
   -6.7858   -3.0436   -0.0000 C   0  0  0  0  0  0  0  0  0  0  0  0
   -9.3439   -0.1184   -0.0000 N   0  0  0  0  0  0  0  0  0  0  0  0
   -7.5438   -4.3344   -0.0000 O   0  0  0  0  0  0  0  0  0  0  0  0
  -10.6584    0.6395   -0.0000 C   0  0  0  0  0  0  0  0  0  0  0  0
   -6.8095   -5.6253   -0.0000 C   0  0  0  0  0  0  0  0  0  0  0  0
  -11.9729   -0.0947   -0.0000 C   0  0  0  0  0  0  0  0  0  0  0  0
  -11.9848   -1.5751   -0.0000 C   0  0  0  0  0  0  0  0  0  0  0  0
  -13.2875    0.6750   -0.0000 C   0  0  0  0  0  0  0  0  0  0  0  0
  -13.2875   -2.3093   -0.0000 C   0  0  0  0  0  0  0  0  0  0  0  0
  -14.5902   -0.0711   -0.0000 C   0  0  0  0  0  0  0  0  0  0  0  0
  -14.5902   -1.5514   -0.0000 C   0  0  0  0  0  0  0  0  0  0  0  0
  -15.9047   -2.2856   -0.0000 C   0  0  0  0  0  0  0  0  0  0  0  0
  -17.2192   -1.5277   -0.0000 N   0  0  0  0  0  0  0  0  0  0  0  0
  -18.5338   -2.2619   -0.0000 C   0  0  0  0  0  0  0  0  0  0  0  0
  -17.2311   -0.0118   -0.0000 C   0  0  0  0  0  0  0  0  0  0  0  0
  -18.5456   -3.7423   -0.0000 O   0  0  0  0  0  0  0  0  0  0  0  0
  -19.8364   -1.5040   -0.0000 C   0  0  0  0  0  0  0  0  0  0  0  0
  -18.5456    0.7461   -0.0000 C   0  0  0  0  0  0  0  0  0  0  0  0
  -19.8483   -0.0000   -0.0000 C   0  0  0  0  0  0  0  0  0  0  0  0
  1  2  1  0  0  0  0
  2  3  2  0  0  0  0
  2  4  1  0  0  0  0
  3  5  1  0  0  0  0
  3  6  1  0  0  0  0
  4  7  2  0  0  0  0
  4  8  1  0  0  0  0
  5  9  1  0  0  0  0
  6 10  2  0  0  0  0
  7 11  1  0  0  0  0
  8 12  1  0  0  0  0
 12 13  1  0  0  0  0
 13 14  2  0  0  0  0
 13 15  1  0  0  0  0
 15 16  1  0  0  0  0
 15 17  2  0  0  0  0
 16 18  2  0  0  0  0
 16 19  1  0  0  0  0
 17 20  1  0  0  0  0
 19 21  1  0  0  0  0
 20 22  1  0  0  0  0
 21 23  1  0  0  0  0
 22 24  1  0  0  0  0
 24 25  2  0  0  0  0
 24 26  1  0  0  0  0
 25 27  1  0  0  0  0
 26 28  2  0  0  0  0
 27 29  2  0  0  0  0
 29 30  1  0  0  0  0
 30 31  1  0  0  0  0
 31 32  1  0  0  0  0
 31 33  1  0  0  0  0
 32 34  2  0  0  0  0
 32 35  1  0  0  0  0
 33 36  2  0  0  0  0
 35 37  2  0  0  0  0
  7 10  1  0  0  0  0
 18 20  1  0  0  0  0
 28 29  1  0  0  0  0
 36 37  1  0  0  0  0
M  END
>  <MolRegNo>
2772127

>  <m>
=

>  <Value>
19000

>  <Unit>
nM

>  <Type>
IC50

>  <pValue>
4.72

>  <Ligand Efficiency>
0

>  <Binding Efficiency>
0

>  <Surface Efficiency>
0

>  <Assay Index>
1540399

>  <Assay Category>


>  <Assay Organism>
Homo sapiens

>  <Target ID>
17045

>  <Target Name>
Cytochrome P450 3A4

>  <Target Organism>
Homo sapiens

>  <Target Description>
Target is a single protein chain

>  <Sequence Accession>
P08684

>  <Reference>
J Med Chem 65 (20.0), 13629-13644 (2022)

>  <Pubmed ID>
36251573

>  <DOI>
10.1021/acs.jmedchem.2c00921

$$$$
2749134
Actelion Java MolfileCreator 1.0

 17 18  0  0  0  0  0  0  0  0999 V2000
    0.0000   -0.0000   -0.0000 Cl  0  0  0  0  0  0  0  0  0  0  0  0
   -0.0119   -1.4828   -0.0000 C   0  0  0  0  0  0  0  0  0  0  0  0
   -1.3286   -2.2182   -0.0000 C   0  0  0  0  0  0  0  0  0  0  0  0
    1.2693   -2.2182   -0.0000 C   0  0  0  0  0  0  0  0  0  0  0  0
   -2.6453   -1.4591   -0.0000 N   0  0  0  0  0  0  0  0  0  0  0  0
   -1.3404   -3.7129   -0.0000 C   0  0  0  0  0  0  0  0  0  0  0  0
    1.2574   -3.7010   -0.0000 C   0  0  0  0  0  0  0  0  0  0  0  0
   -3.9620   -2.1945   -0.0000 C   0  0  0  0  0  0  0  0  0  0  0  0
   -2.6571    0.0474   -0.0000 C   0  0  0  0  0  0  0  0  0  0  0  0
   -0.0474   -4.4484   -0.0000 C   0  0  0  0  0  0  0  0  0  0  0  0
    2.5504   -4.4365   -0.0000 N   0  0  0  0  0  0  0  0  0  0  0  0
   -5.2787   -1.4353   -0.0000 C   0  0  0  0  0  0  0  0  0  0  0  0
   -3.9739    0.8066   -0.0000 C   0  0  0  0  0  0  0  0  0  0  0  0
    3.8434   -3.6773   -0.0000 C   0  0  0  0  0  0  0  0  0  0  0  0
   -5.2906    0.0712   -0.0000 O   0  0  0  0  0  0  0  0  0  0  0  0
    5.1364   -4.4128   -0.0000 N   0  0  0  0  0  0  0  0  0  0  0  0
    6.4293   -3.6536   -0.0000 O   0  0  0  0  0  0  0  0  0  0  0  0
  1  2  1  0  0  0  0
  2  3  2  0  0  0  0
  2  4  1  0  0  0  0
  3  5  1  0  0  0  0
  3  6  1  0  0  0  0
  4  7  2  0  0  0  0
  5  8  1  0  0  0  0
  5  9  1  0  0  0  0
  6 10  2  0  0  0  0
  7 11  1  0  0  0  0
  8 12  1  0  0  0  0
  9 13  1  0  0  0  0
 11 14  1  0  0  0  0
 12 15  1  0  0  0  0
 14 16  2  0  0  0  0
 16 17  1  0  0  0  0
  7 10  1  0  0  0  0
 13 15  1  0  0  0  0
M  END
>  <MolRegNo>
2749134

>  <m>
=

>  <Value>
100

>  <Unit>
nM

>  <Type>
IC50

>  <pValue>
7

>  <Ligand Efficiency>
0

>  <Binding Efficiency>
0

>  <Surface Efficiency>
0

>  <Assay Index>
1542816

>  <Assay Category>


>  <Assay Organism>
Homo sapiens

>  <Target ID>
17045

>  <Target Name>
Cytochrome P450 3A4

>  <Target Organism>
Homo sapiens

>  <Target Description>
Target is a single protein chain

>  <Sequence Accession>
P08684

>  <Reference>


>  <Pubmed ID>
35576701

>  <DOI>
10.1016/j.ejmech.2022.114332

$$$$
2773142
Actelion Java MolfileCreator 1.0

 41 45  0  0  0  0  0  0  0  0999 V2000
    0.0000   -0.0000   -0.0000 F   0  0  0  0  0  0  0  0  0  0  0  0
   -0.0118   -1.4864   -0.0000 C   0  0  0  0  0  0  0  0  0  0  0  0
    1.2741   -2.2178   -0.0000 F   0  0  0  0  0  0  0  0  0  0  0  0
    1.0381   -0.4129   -0.0000 F   0  0  0  0  0  0  0  0  0  0  0  0
   -1.3213   -2.2178   -0.0000 C   0  0  0  0  0  0  0  0  0  0  0  0
   -2.6307   -1.4510   -0.0000 C   0  0  0  0  0  0  0  0  0  0  0  0
   -1.3331   -3.7042   -0.0000 C   0  0  0  0  0  0  0  0  0  0  0  0
   -3.9402   -2.1942   -0.0000 C   0  0  0  0  0  0  0  0  0  0  0  0
   -2.6425   -4.4357   -0.0000 C   0  0  0  0  0  0  0  0  0  0  0  0
   -5.2496   -1.4392   -0.0000 N   0  0  0  0  0  0  0  0  0  0  0  0
   -3.9520   -3.6807   -0.0000 C   0  0  0  0  0  0  0  0  0  0  0  0
   -5.2614    0.0590   -0.0000 C   0  0  0  0  0  0  0  0  0  0  0  0
   -3.9874    0.8140   -0.0000 O   0  0  0  0  0  0  0  0  0  0  0  0
   -6.5709    0.8140   -0.0000 N   0  0  0  0  0  0  0  0  0  0  0  0
   -6.5827    2.3122   -0.0000 C   0  0  0  0  0  0  0  0  0  0  0  0
   -7.8922    3.0672   -0.0000 C   0  0  0  0  0  0  0  0  0  0  0  0
   -7.9040    4.5654   -0.0000 N   0  0  0  0  0  0  0  0  0  0  0  0
   -9.2134    5.3204   -0.0000 C   0  0  0  0  0  0  0  0  0  0  0  0
  -10.5229    4.5772   -0.0000 N   0  0  0  0  0  0  0  0  0  0  0  0
   -9.2252    6.8304   -0.0000 C   0  0  0  0  0  0  0  0  0  0  0  0
  -11.8324    5.3440   -0.0000 C   0  0  0  0  0  0  0  0  0  0  0  0
  -10.5347    7.5854   -0.0000 C   0  0  0  0  0  0  0  0  0  0  0  0
  -11.8442    6.8540   -0.0000 C   0  0  0  0  0  0  0  0  0  0  0  0
  -10.5465    9.0837   -0.0000 C   0  0  0  0  0  0  0  0  0  0  0  0
  -11.7616    9.9684   -0.0000 C   0  0  0  0  0  0  0  0  0  0  0  0
   -9.3550    9.9684   -0.0000 C   0  0  0  0  0  0  0  0  0  0  0  0
  -11.3251   11.3959   -0.0000 N   0  0  0  0  0  0  0  0  0  0  0  0
  -13.1890    9.5201   -0.0000 C   0  0  0  0  0  0  0  0  0  0  0  0
   -9.8269   11.3959   -0.0000 N   0  0  0  0  0  0  0  0  0  0  0  0
  -14.3097   10.5347   -0.0000 C   0  0  0  0  0  0  0  0  0  0  0  0
  -13.5075    8.0691   -0.0000 C   0  0  0  0  0  0  0  0  0  0  0  0
   -8.9657   12.6110   -0.0000 C   0  0  0  0  0  0  0  0  0  0  0  0
  -15.7371   10.0628   -0.0000 C   0  0  0  0  0  0  0  0  0  0  0  0
  -14.9350    7.6208   -0.0000 C   0  0  0  0  0  0  0  0  0  0  0  0
   -9.5909   13.9912   -0.0000 C   0  0  0  0  0  0  0  0  0  0  0  0
   -7.4911   12.4576   -0.0000 C   0  0  0  0  0  0  0  0  0  0  0  0
  -16.8697   11.0656   -0.0000 O   0  0  0  0  0  0  0  0  0  0  0  0
  -16.0557    8.6118   -0.0000 C   0  0  0  0  0  0  0  0  0  0  0  0
   -8.7298   15.2063   -0.0000 C   0  0  0  0  0  0  0  0  0  0  0  0
   -6.6299   13.6845   -0.0000 C   0  0  0  0  0  0  0  0  0  0  0  0
   -7.2551   15.0765   -0.0000 C   0  0  0  0  0  0  0  0  0  0  0  0
  1  2  1  0  0  0  0
  2  3  1  0  0  0  0
  2  4  1  0  0  0  0
  2  5  1  0  0  0  0
  5  6  2  0  0  0  0
  5  7  1  0  0  0  0
  6  8  1  0  0  0  0
  7  9  2  0  0  0  0
  8 10  1  0  0  0  0
  8 11  2  0  0  0  0
 10 12  1  0  0  0  0
 12 13  2  0  0  0  0
 12 14  1  0  0  0  0
 14 15  1  0  0  0  0
 15 16  1  0  0  0  0
 16 17  1  0  0  0  0
 17 18  1  0  0  0  0
 18 19  2  0  0  0  0
 18 20  1  0  0  0  0
 19 21  1  0  0  0  0
 20 22  2  0  0  0  0
 21 23  2  0  0  0  0
 22 24  1  0  0  0  0
 24 25  1  0  0  0  0
 24 26  2  0  0  0  0
 25 27  2  0  0  0  0
 25 28  1  0  0  0  0
 26 29  1  0  0  0  0
 28 30  2  0  0  0  0
 28 31  1  0  0  0  0
 29 32  1  0  0  0  0
 30 33  1  0  0  0  0
 31 34  2  0  0  0  0
 32 35  2  0  0  0  0
 32 36  1  0  0  0  0
 33 37  1  0  0  0  0
 33 38  2  0  0  0  0
 35 39  1  0  0  0  0
 36 40  2  0  0  0  0
 39 41  2  0  0  0  0
  9 11  1  0  0  0  0
 22 23  1  0  0  0  0
 27 29  1  0  0  0  0
 34 38  1  0  0  0  0
 40 41  1  0  0  0  0
M  END
>  <MolRegNo>
2773142

>  <m>
=

>  <Value>
20520

>  <Unit>
nM

>  <Type>
IC50

>  <pValue>
4.69

>  <Ligand Efficiency>
0

>  <Binding Efficiency>
0

>  <Surface Efficiency>
0

>  <Assay Index>
1544432

>  <Assay Category>


>  <Assay Organism>
Homo sapiens

>  <Target ID>
17045

>  <Target Name>
Cytochrome P450 3A4

>  <Target Organism>
Homo sapiens

>  <Target Description>
Target is a single protein chain

>  <Sequence Accession>
P08684

>  <Reference>


>  <Pubmed ID>
35764033

>  <DOI>
10.1016/j.bmc.2022.116894

$$$$
2762699
Actelion Java MolfileCreator 1.0

 39 43  0  0  0  0  0  0  0  0999 V2000
    0.0000   -0.0000   -0.0000 F   0  0  0  0  0  0  0  0  0  0  0  0
    1.2283    0.8622   -0.0000 C   0  0  0  0  0  0  0  0  0  0  0  0
    1.0984    2.3740   -0.0000 C   0  0  0  0  0  0  0  0  0  0  0  0
    2.5748    0.2244   -0.0000 C   0  0  0  0  0  0  0  0  0  0  0  0
    2.3268    3.2362   -0.0000 C   0  0  0  0  0  0  0  0  0  0  0  0
    3.8031    1.0866   -0.0000 C   0  0  0  0  0  0  0  0  0  0  0  0
    3.6732    2.5984   -0.0000 C   0  0  0  0  0  0  0  0  0  0  0  0
    4.9016    3.4606   -0.0000 N   0  0  0  0  0  0  0  0  0  0  0  0
    6.2480    2.8228   -0.0000 C   0  0  0  0  0  0  0  0  0  0  0  0
    6.3543    1.3346   -0.0000 O   0  0  0  0  0  0  0  0  0  0  0  0
    7.4764    3.6850   -0.0000 N   0  0  0  0  0  0  0  0  0  0  0  0
    8.8228    3.0472   -0.0000 C   0  0  0  0  0  0  0  0  0  0  0  0
   10.0512    3.9094   -0.0000 C   0  0  0  0  0  0  0  0  0  0  0  0
   11.3976    3.2716   -0.0000 C   0  0  0  0  0  0  0  0  0  0  0  0
   12.6260    4.1338   -0.0000 N   0  0  0  0  0  0  0  0  0  0  0  0
   13.9724    3.4961   -0.0000 C   0  0  0  0  0  0  0  0  0  0  0  0
   14.0787    2.0079   -0.0000 N   0  0  0  0  0  0  0  0  0  0  0  0
   15.2008    4.3583   -0.0000 C   0  0  0  0  0  0  0  0  0  0  0  0
   15.4252    1.3701   -0.0000 C   0  0  0  0  0  0  0  0  0  0  0  0
   16.5472    3.7205   -0.0000 C   0  0  0  0  0  0  0  0  0  0  0  0
   16.6535    2.2323   -0.0000 C   0  0  0  0  0  0  0  0  0  0  0  0
   17.7756    4.5827   -0.0000 C   0  0  0  0  0  0  0  0  0  0  0  0
   17.8110    6.0945   -0.0000 C   0  0  0  0  0  0  0  0  0  0  0  0
   19.1811    4.0866   -0.0000 C   0  0  0  0  0  0  0  0  0  0  0  0
   19.2401    6.5315   -0.0000 N   0  0  0  0  0  0  0  0  0  0  0  0
   16.6063    7.0275   -0.0000 C   0  0  0  0  0  0  0  0  0  0  0  0
   20.0905    5.2913   -0.0000 N   0  0  0  0  0  0  0  0  0  0  0  0
   16.7952    8.5275   -0.0000 C   0  0  0  0  0  0  0  0  0  0  0  0
   15.2126    6.4724   -0.0000 C   0  0  0  0  0  0  0  0  0  0  0  0
   21.5787    5.2559   -0.0000 C   0  0  0  0  0  0  0  0  0  0  0  0
   15.5905    9.4606   -0.0000 C   0  0  0  0  0  0  0  0  0  0  0  0
   14.0078    7.4055   -0.0000 C   0  0  0  0  0  0  0  0  0  0  0  0
   22.2755    3.9449   -0.0000 C   0  0  0  0  0  0  0  0  0  0  0  0
   22.3582    6.5433   -0.0000 C   0  0  0  0  0  0  0  0  0  0  0  0
   15.7795   10.9606   -0.0000 O   0  0  0  0  0  0  0  0  0  0  0  0
   14.1968    8.9055   -0.0000 C   0  0  0  0  0  0  0  0  0  0  0  0
   23.7637    3.9094   -0.0000 C   0  0  0  0  0  0  0  0  0  0  0  0
   23.8464    6.5079   -0.0000 C   0  0  0  0  0  0  0  0  0  0  0  0
   24.5433    5.1968   -0.0000 C   0  0  0  0  0  0  0  0  0  0  0  0
  1  2  1  0  0  0  0
  2  3  2  0  0  0  0
  2  4  1  0  0  0  0
  3  5  1  0  0  0  0
  4  6  2  0  0  0  0
  5  7  2  0  0  0  0
  7  8  1  0  0  0  0
  8  9  1  0  0  0  0
  9 10  2  0  0  0  0
  9 11  1  0  0  0  0
 11 12  1  0  0  0  0
 12 13  1  0  0  0  0
 13 14  1  0  0  0  0
 14 15  1  0  0  0  0
 15 16  1  0  0  0  0
 16 17  2  0  0  0  0
 16 18  1  0  0  0  0
 17 19  1  0  0  0  0
 18 20  2  0  0  0  0
 19 21  2  0  0  0  0
 20 22  1  0  0  0  0
 22 23  1  0  0  0  0
 22 24  2  0  0  0  0
 23 25  2  0  0  0  0
 23 26  1  0  0  0  0
 24 27  1  0  0  0  0
 26 28  2  0  0  0  0
 26 29  1  0  0  0  0
 27 30  1  0  0  0  0
 28 31  1  0  0  0  0
 29 32  2  0  0  0  0
 30 33  2  0  0  0  0
 30 34  1  0  0  0  0
 31 35  1  0  0  0  0
 31 36  2  0  0  0  0
 33 37  1  0  0  0  0
 34 38  2  0  0  0  0
 37 39  2  0  0  0  0
  6  7  1  0  0  0  0
 20 21  1  0  0  0  0
 25 27  1  0  0  0  0
 32 36  1  0  0  0  0
 38 39  1  0  0  0  0
M  END
>  <MolRegNo>
2762699

>  <m>
=

>  <Value>
18700

>  <Unit>
nM

>  <Type>
IC50

>  <pValue>
4.73

>  <Ligand Efficiency>
0

>  <Binding Efficiency>
0

>  <Surface Efficiency>
0

>  <Assay Index>
1544432

>  <Assay Category>


>  <Assay Organism>
Homo sapiens

>  <Target ID>
17045

>  <Target Name>
Cytochrome P450 3A4

>  <Target Organism>
Homo sapiens

>  <Target Description>
Target is a single protein chain

>  <Sequence Accession>
P08684

>  <Reference>


>  <Pubmed ID>
35764033

>  <DOI>
10.1016/j.bmc.2022.116894

$$$$
2766179
Actelion Java MolfileCreator 1.0

 35 38  0  0  0  0  0  0  0  0999 V2000
    0.0000   -0.0000   -0.0000 F   0  0  0  0  0  0  0  0  0  0  0  0
    1.2873   -0.7941   -0.0000 C   0  0  0  0  0  0  0  0  0  0  0  0
    1.2753   -2.2859   -0.0000 F   0  0  0  0  0  0  0  0  0  0  0  0
   -0.0241   -1.4798   -0.0000 F   0  0  0  0  0  0  0  0  0  0  0  0
    2.6228   -0.0361   -0.0000 C   0  0  0  0  0  0  0  0  0  0  0  0
    2.6108    1.4798   -0.0000 C   0  0  0  0  0  0  0  0  0  0  0  0
    3.8620   -0.8301   -0.0000 C   0  0  0  0  0  0  0  0  0  0  0  0
    1.3475    2.2378   -0.0000 O   0  0  0  0  0  0  0  0  0  0  0  0
    3.9462    2.1897   -0.0000 C   0  0  0  0  0  0  0  0  0  0  0  0
    5.1975   -0.1203   -0.0000 C   0  0  0  0  0  0  0  0  0  0  0  0
    0.6858    3.6093   -0.0000 C   0  0  0  0  0  0  0  0  0  0  0  0
    3.9342    3.7056   -0.0000 O   0  0  0  0  0  0  0  0  0  0  0  0
    5.1854    1.3956   -0.0000 N   0  0  0  0  0  0  0  0  0  0  0  0
    1.4798    4.8846   -0.0000 C   0  0  0  0  0  0  0  0  0  0  0  0
   -0.8422    3.7297   -0.0000 C   0  0  0  0  0  0  0  0  0  0  0  0
    6.5209    2.1054   -0.0000 C   0  0  0  0  0  0  0  0  0  0  0  0
    0.8422    6.2081   -0.0000 C   0  0  0  0  0  0  0  0  0  0  0  0
   -1.5039    5.0892   -0.0000 C   0  0  0  0  0  0  0  0  0  0  0  0
    7.7601    1.3114   -0.0000 C   0  0  0  0  0  0  0  0  0  0  0  0
    1.6723    7.4593   -0.0000 C   0  0  0  0  0  0  0  0  0  0  0  0
   -0.6978    6.3284   -0.0000 C   0  0  0  0  0  0  0  0  0  0  0  0
   -3.0078    5.0892   -0.0000 C   0  0  0  0  0  0  0  0  0  0  0  0
    7.8563   -0.1203   -0.0000 N   0  0  0  0  0  0  0  0  0  0  0  0
    9.1557    1.9250   -0.0000 N   0  0  0  0  0  0  0  0  0  0  0  0
    2.5025    8.7105   -0.0000 N   0  0  0  0  0  0  0  0  0  0  0  0
   -3.7657    6.4006   -0.0000 C   0  0  0  0  0  0  0  0  0  0  0  0
   -3.7537    3.8139   -0.0000 C   0  0  0  0  0  0  0  0  0  0  0  0
    9.2880   -0.5053   -0.0000 N   0  0  0  0  0  0  0  0  0  0  0  0
   10.0941    0.7820   -0.0000 C   0  0  0  0  0  0  0  0  0  0  0  0
    9.4926    3.3807   -0.0000 C   0  0  0  0  0  0  0  0  0  0  0  0
   -5.2696    6.4126   -0.0000 C   0  0  0  0  0  0  0  0  0  0  0  0
   -5.2576    3.8139   -0.0000 C   0  0  0  0  0  0  0  0  0  0  0  0
   11.5740    0.9023   -0.0000 O   0  0  0  0  0  0  0  0  0  0  0  0
   -6.0276    5.1253   -0.0000 C   0  0  0  0  0  0  0  0  0  0  0  0
   -6.0276    7.7120   -0.0000 C   0  0  0  0  0  0  0  0  0  0  0  0
  1  2  1  0  0  0  0
  2  3  1  0  0  0  0
  2  4  1  0  0  0  0
  2  5  1  0  0  0  0
  5  6  2  0  0  0  0
  5  7  1  0  0  0  0
  6  8  1  0  0  0  0
  6  9  1  0  0  0  0
  7 10  2  0  0  0  0
  8 11  1  0  0  0  0
  9 12  2  0  0  0  0
  9 13  1  0  0  0  0
 11 14  2  0  0  0  0
 11 15  1  0  0  0  0
 13 16  1  0  0  0  0
 14 17  1  0  0  0  0
 15 18  2  0  0  0  0
 16 19  1  0  0  0  0
 17 20  1  0  0  0  0
 17 21  2  0  0  0  0
 18 22  1  0  0  0  0
 19 23  2  0  0  0  0
 19 24  1  0  0  0  0
 20 25  3  0  0  0  0
 22 26  2  0  0  0  0
 22 27  1  0  0  0  0
 23 28  1  0  0  0  0
 24 29  1  0  0  0  0
 24 30  1  0  0  0  0
 26 31  1  0  0  0  0
 27 32  2  0  0  0  0
 29 33  2  0  0  0  0
 31 34  2  0  0  0  0
 31 35  1  0  0  0  0
 10 13  1  0  0  0  0
 18 21  1  0  0  0  0
 28 29  1  0  0  0  0
 32 34  1  0  0  0  0
M  END
>  <MolRegNo>
2766179

>  <m>
=

>  <Value>
25300

>  <Unit>
nM

>  <Type>
IC50

>  <pValue>
4.6

>  <Ligand Efficiency>
0

>  <Binding Efficiency>
0

>  <Surface Efficiency>
0

>  <Assay Index>
1545015

>  <Assay Category>


>  <Assay Organism>
Homo sapiens

>  <Target ID>
17045

>  <Target Name>
Cytochrome P450 3A4

>  <Target Organism>
Homo sapiens

>  <Target Description>
Target is a single protein chain

>  <Sequence Accession>
P08684

>  <Reference>


>  <Pubmed ID>
35797898

>  <DOI>
10.1016/j.ejmech.2022.114581

$$$$
2748500
Actelion Java MolfileCreator 1.0

 28 31  0  0  0  0  0  0  0  0999 V2000
    0.0000   -0.0000   -0.0000 F   0  0  0  0  0  0  0  0  0  0  0  0
   -0.7554   -1.2865   -0.0000 C   0  0  0  0  0  0  0  0  0  0  0  0
   -2.2661   -1.2747   -0.0000 C   0  0  0  0  0  0  0  0  0  0  0  0
   -0.0236   -2.5611   -0.0000 C   0  0  0  0  0  0  0  0  0  0  0  0
   -3.0214   -2.5611   -0.0000 C   0  0  0  0  0  0  0  0  0  0  0  0
   -0.7790   -3.8476   -0.0000 C   0  0  0  0  0  0  0  0  0  0  0  0
   -2.2897   -3.8476   -0.0000 C   0  0  0  0  0  0  0  0  0  0  0  0
   -3.0450   -5.1340   -0.0000 C   0  0  0  0  0  0  0  0  0  0  0  0
   -2.3133   -6.4205   -0.0000 N   0  0  0  0  0  0  0  0  0  0  0  0
   -4.5557   -5.1222   -0.0000 C   0  0  0  0  0  0  0  0  0  0  0  0
   -2.9388   -7.7778   -0.0000 N   0  0  0  0  0  0  0  0  0  0  0  0
   -0.8380   -6.5621   -0.0000 C   0  0  0  0  0  0  0  0  0  0  0  0
   -5.4527   -3.8948   -0.0000 O   0  0  0  0  0  0  0  0  0  0  0  0
   -5.4527   -6.3261   -0.0000 C   0  0  0  0  0  0  0  0  0  0  0  0
   -1.8412   -8.7692   -0.0000 C   0  0  0  0  0  0  0  0  0  0  0  0
   -0.5429   -8.0138   -0.0000 N   0  0  0  0  0  0  0  0  0  0  0  0
   -6.8926   -4.3433   -0.0000 C   0  0  0  0  0  0  0  0  0  0  0  0
   -6.8926   -5.8540   -0.0000 C   0  0  0  0  0  0  0  0  0  0  0  0
   -8.2026   -3.5879   -0.0000 C   0  0  0  0  0  0  0  0  0  0  0  0
   -8.1908   -6.5857   -0.0000 C   0  0  0  0  0  0  0  0  0  0  0  0
   -9.5127   -4.3197   -0.0000 C   0  0  0  0  0  0  0  0  0  0  0  0
   -9.5009   -5.8304   -0.0000 C   0  0  0  0  0  0  0  0  0  0  0  0
  -10.8228   -3.5643   -0.0000 O   0  0  0  0  0  0  0  0  0  0  0  0
  -12.1328   -4.2961   -0.0000 C   0  0  0  0  0  0  0  0  0  0  0  0
  -13.4429   -3.5407   -0.0000 C   0  0  0  0  0  0  0  0  0  0  0  0
  -14.7530   -2.7854   -0.0000 C   0  0  0  0  0  0  0  0  0  0  0  0
  -16.0630   -2.0300   -0.0000 C   0  0  0  0  0  0  0  0  0  0  0  0
  -17.3731   -2.7618   -0.0000 C   0  0  0  0  0  0  0  0  0  0  0  0
  1  2  1  0  0  0  0
  2  3  2  0  0  0  0
  2  4  1  0  0  0  0
  3  5  1  0  0  0  0
  4  6  2  0  0  0  0
  5  7  2  0  0  0  0
  7  8  1  0  0  0  0
  8  9  1  0  0  0  0
  8 10  1  0  0  0  0
  9 11  1  0  0  0  0
  9 12  1  0  0  0  0
 10 13  1  0  0  0  0
 10 14  2  0  0  0  0
 11 15  2  0  0  0  0
 12 16  2  0  0  0  0
 13 17  1  0  0  0  0
 14 18  1  0  0  0  0
 17 19  1  0  0  0  0
 18 20  1  0  0  0  0
 19 21  2  0  0  0  0
 20 22  2  0  0  0  0
 21 23  1  0  0  0  0
 23 24  1  0  0  0  0
 24 25  1  0  0  0  0
 25 26  3  0  0  0  0
 26 27  1  0  0  0  0
 27 28  1  0  0  0  0
  6  7  1  0  0  0  0
 15 16  1  0  0  0  0
 17 18  2  0  0  0  0
 21 22  1  0  0  0  0
M  END
>  <MolRegNo>
2748500

>  <m>
=

>  <Value>
21000

>  <Unit>
nM

>  <Type>
IC50

>  <pValue>
4.68

>  <Ligand Efficiency>
0

>  <Binding Efficiency>
0

>  <Surface Efficiency>
0

>  <Assay Index>
1545668

>  <Assay Category>


>  <Assay Organism>
Homo sapiens

>  <Target ID>
17045

>  <Target Name>
Cytochrome P450 3A4

>  <Target Organism>
Homo sapiens

>  <Target Description>
Target is a single protein chain

>  <Sequence Accession>
P08684

>  <Reference>


>  <Pubmed ID>
35834906

>  <DOI>
10.1016/j.ejmech.2022.114569

$$$$
2760502
Actelion Java MolfileCreator 1.0

 30 33  0  0  0  0  0  0  0  0999 V2000
    0.0000   -0.0000   -0.0000 Cl  0  0  0  0  0  0  0  0  0  0  0  0
    1.2999    0.7632   -0.0000 C   0  0  0  0  0  0  0  0  0  0  0  0
    2.5998    0.0239   -0.0000 C   0  0  0  0  0  0  0  0  0  0  0  0
    1.2880    2.2897   -0.0000 C   0  0  0  0  0  0  0  0  0  0  0  0
    3.8877    0.7871   -0.0000 C   0  0  0  0  0  0  0  0  0  0  0  0
    2.5879    3.0530   -0.0000 C   0  0  0  0  0  0  0  0  0  0  0  0
    5.3069    0.3458   -0.0000 N   0  0  0  0  0  0  0  0  0  0  0  0
    3.8758    2.3016   -0.0000 C   0  0  0  0  0  0  0  0  0  0  0  0
    5.6885   -1.0972   -0.0000 S   0  0  0  0  0  0  0  0  0  0  0  0
    6.1894    1.5742   -0.0000 C   0  0  0  0  0  0  0  0  0  0  0  0
    5.3307    2.7667   -0.0000 C   0  0  0  0  0  0  0  0  0  0  0  0
    4.3648   -1.8365   -0.0000 O   0  0  0  0  0  0  0  0  0  0  0  0
    5.6766   -2.5879   -0.0000 O   0  0  0  0  0  0  0  0  0  0  0  0
    7.1315   -1.4788   -0.0000 C   0  0  0  0  0  0  0  0  0  0  0  0
    5.7124    4.2336   -0.0000 C   0  0  0  0  0  0  0  0  0  0  0  0
    7.5131   -2.9337   -0.0000 C   0  0  0  0  0  0  0  0  0  0  0  0
    8.1810   -0.4055   -0.0000 C   0  0  0  0  0  0  0  0  0  0  0  0
    4.6391    5.3069   -0.0000 F   0  0  0  0  0  0  0  0  0  0  0  0
    7.1554    4.6391   -0.0000 F   0  0  0  0  0  0  0  0  0  0  0  0
    8.9561   -3.3034   -0.0000 C   0  0  0  0  0  0  0  0  0  0  0  0
    9.6240   -0.7871   -0.0000 C   0  0  0  0  0  0  0  0  0  0  0  0
    9.3377   -4.7464   -0.0000 N   0  0  0  0  0  0  0  0  0  0  0  0
   10.0056   -2.2301   -0.0000 C   0  0  0  0  0  0  0  0  0  0  0  0
   10.7807   -5.1280   -0.0000 C   0  0  0  0  0  0  0  0  0  0  0  0
    8.2644   -5.7958   -0.0000 C   0  0  0  0  0  0  0  0  0  0  0  0
   11.4486   -2.6117   -0.0000 O   0  0  0  0  0  0  0  0  0  0  0  0
   11.1624   -6.5710   -0.0000 C   0  0  0  0  0  0  0  0  0  0  0  0
    8.6461   -7.2388   -0.0000 C   0  0  0  0  0  0  0  0  0  0  0  0
   12.4980   -1.5384   -0.0000 C   0  0  0  0  0  0  0  0  0  0  0  0
   10.0891   -7.6205   -0.0000 N   0  0  0  0  0  0  0  0  0  0  0  0
  1  2  1  0  0  0  0
  2  3  2  0  0  0  0
  2  4  1  0  0  0  0
  3  5  1  0  0  0  0
  4  6  2  0  0  0  0
  5  7  1  0  0  0  0
  5  8  2  0  0  0  0
  7  9  1  0  0  0  0
  7 10  1  0  0  0  0
  8 11  1  0  0  0  0
  9 12  2  0  0  0  0
  9 13  2  0  0  0  0
  9 14  1  0  0  0  0
 11 15  1  0  0  0  0
 14 16  2  0  0  0  0
 14 17  1  0  0  0  0
 15 18  1  0  0  0  0
 15 19  1  0  0  0  0
 16 20  1  0  0  0  0
 17 21  2  0  0  0  0
 20 22  1  0  0  0  0
 20 23  2  0  0  0  0
 22 24  1  0  0  0  0
 22 25  1  0  0  0  0
 23 26  1  0  0  0  0
 24 27  1  0  0  0  0
 25 28  1  0  0  0  0
 26 29  1  0  0  0  0
 27 30  1  0  0  0  0
  6  8  1  0  0  0  0
 10 11  2  0  0  0  0
 21 23  1  0  0  0  0
 28 30  1  0  0  0  0
M  END
>  <MolRegNo>
2760502

>  <m>
=

>  <Value>
4020

>  <Unit>
nM

>  <Type>
IC50

>  <pValue>
5.4

>  <Ligand Efficiency>
0

>  <Binding Efficiency>
0

>  <Surface Efficiency>
0

>  <Assay Index>
1545714

>  <Assay Category>


>  <Assay Organism>
Homo sapiens

>  <Target ID>
17045

>  <Target Name>
Cytochrome P450 3A4

>  <Target Organism>
Homo sapiens

>  <Target Description>
Target is a single protein chain

>  <Sequence Accession>
P08684

>  <Reference>


>  <Pubmed ID>
35839536

>  <DOI>
10.1016/j.bmc.2022.116917

$$$$
2777765
Actelion Java MolfileCreator 1.0

 27 30  0  0  0  0  0  0  0  0999 V2000
    0.0000   -0.0000   -0.0000 S   0  0  0  0  0  0  0  0  0  0  0  0
    0.8766   -1.2083   -0.0000 C   0  0  0  0  0  0  0  0  0  0  0  0
   -1.4452   -0.4501   -0.0000 C   0  0  0  0  0  0  0  0  0  0  0  0
   -0.0237   -2.4165   -0.0000 N   0  0  0  0  0  0  0  0  0  0  0  0
    2.3691   -1.1964   -0.0000 N   0  0  0  0  0  0  0  0  0  0  0  0
   -1.4570   -1.9427   -0.0000 C   0  0  0  0  0  0  0  0  0  0  0  0
   -2.7601    0.3080   -0.0000 C   0  0  0  0  0  0  0  0  0  0  0  0
    3.1154    0.1185   -0.0000 C   0  0  0  0  0  0  0  0  0  0  0  0
   -2.7601   -2.6771   -0.0000 C   0  0  0  0  0  0  0  0  0  0  0  0
   -4.0749   -0.4264   -0.0000 C   0  0  0  0  0  0  0  0  0  0  0  0
    2.3455    1.4333   -0.0000 O   0  0  0  0  0  0  0  0  0  0  0  0
    4.6080    0.1303   -0.0000 C   0  0  0  0  0  0  0  0  0  0  0  0
   -4.0749   -1.9190   -0.0000 C   0  0  0  0  0  0  0  0  0  0  0  0
   -2.7719   -4.1697   -0.0000 C   0  0  0  0  0  0  0  0  0  0  0  0
    5.3424    1.4452   -0.0000 C   0  0  0  0  0  0  0  0  0  0  0  0
    6.8350    1.4570   -0.0000 N   0  0  0  0  0  0  0  0  0  0  0  0
    7.5694    2.7719   -0.0000 C   0  0  0  0  0  0  0  0  0  0  0  0
    7.5694    0.1658   -0.0000 C   0  0  0  0  0  0  0  0  0  0  0  0
    9.0620    2.7837   -0.0000 C   0  0  0  0  0  0  0  0  0  0  0  0
    9.0620    0.1777   -0.0000 C   0  0  0  0  0  0  0  0  0  0  0  0
    9.7964    1.4926   -0.0000 N   0  0  0  0  0  0  0  0  0  0  0  0
   11.2890    1.5044   -0.0000 C   0  0  0  0  0  0  0  0  0  0  0  0
   12.0353    2.8193   -0.0000 C   0  0  0  0  0  0  0  0  0  0  0  0
   12.0353    0.2132   -0.0000 C   0  0  0  0  0  0  0  0  0  0  0  0
   13.5278    2.8311   -0.0000 C   0  0  0  0  0  0  0  0  0  0  0  0
   13.5278    0.2369   -0.0000 C   0  0  0  0  0  0  0  0  0  0  0  0
   14.2741    1.5399   -0.0000 N   0  0  0  0  0  0  0  0  0  0  0  0
  1  2  1  0  0  0  0
  1  3  1  0  0  0  0
  2  4  2  0  0  0  0
  2  5  1  0  0  0  0
  3  6  2  0  0  0  0
  3  7  1  0  0  0  0
  5  8  1  0  0  0  0
  6  9  1  0  0  0  0
  7 10  2  0  0  0  0
  8 11  2  0  0  0  0
  8 12  1  0  0  0  0
  9 13  2  0  0  0  0
  9 14  1  0  0  0  0
 12 15  1  0  0  0  0
 15 16  1  0  0  0  0
 16 17  1  0  0  0  0
 16 18  1  0  0  0  0
 17 19  1  0  0  0  0
 18 20  1  0  0  0  0
 19 21  1  0  0  0  0
 21 22  1  0  0  0  0
 22 23  2  0  0  0  0
 22 24  1  0  0  0  0
 23 25  1  0  0  0  0
 24 26  2  0  0  0  0
 25 27  2  0  0  0  0
  4  6  1  0  0  0  0
 10 13  1  0  0  0  0
 20 21  1  0  0  0  0
 26 27  1  0  0  0  0
M  END
>  <MolRegNo>
2777765

>  <m>
=

>  <Value>
1140

>  <Unit>
nM

>  <Type>
IC50

>  <pValue>
5.94

>  <Ligand Efficiency>
0

>  <Binding Efficiency>
0

>  <Surface Efficiency>
0

>  <Assay Index>
1547545

>  <Assay Category>


>  <Assay Organism>
Homo sapiens

>  <Target ID>
17045

>  <Target Name>
Cytochrome P450 3A4

>  <Target Organism>
Homo sapiens

>  <Target Description>
Target is a single protein chain

>  <Sequence Accession>
P08684

>  <Reference>
J Med Chem 65 (18.0), 12292-12318 (2022)

>  <Pubmed ID>
36084304

>  <DOI>
10.1021/acs.jmedchem.2c01003

$$$$
2744276
Actelion Java MolfileCreator 1.0

 31 34  0  0  0  0  0  0  0  0999 V2000
    0.0000   -0.0000   -0.0000 F   0  0  0  0  0  0  0  0  0  0  0  0
   -1.3081   -0.7307   -0.0000 C   0  0  0  0  0  0  0  0  0  0  0  0
   -1.3199   -2.2037   -0.0000 F   0  0  0  0  0  0  0  0  0  0  0  0
   -0.0236   -1.4613   -0.0000 F   0  0  0  0  0  0  0  0  0  0  0  0
   -2.6162    0.0236   -0.0000 C   0  0  0  0  0  0  0  0  0  0  0  0
   -2.6280    1.5202   -0.0000 C   0  0  0  0  0  0  0  0  0  0  0  0
   -3.9125   -0.7189   -0.0000 C   0  0  0  0  0  0  0  0  0  0  0  0
   -3.9361    2.2745   -0.0000 C   0  0  0  0  0  0  0  0  0  0  0  0
   -5.2206    0.0354   -0.0000 C   0  0  0  0  0  0  0  0  0  0  0  0
   -3.9479    3.7711   -0.0000 O   0  0  0  0  0  0  0  0  0  0  0  0
   -5.2324    1.5438   -0.0000 C   0  0  0  0  0  0  0  0  0  0  0  0
   -6.5287   -0.6953   -0.0000 N   0  0  0  0  0  0  0  0  0  0  0  0
   -5.2560    4.5253   -0.0000 C   0  0  0  0  0  0  0  0  0  0  0  0
   -7.8368    0.0589   -0.0000 C   0  0  0  0  0  0  0  0  0  0  0  0
   -9.1332   -0.6835   -0.0000 N   0  0  0  0  0  0  0  0  0  0  0  0
   -7.8486    1.5556   -0.0000 N   0  0  0  0  0  0  0  0  0  0  0  0
  -10.4413    0.0707   -0.0000 C   0  0  0  0  0  0  0  0  0  0  0  0
   -9.1567    2.3098   -0.0000 C   0  0  0  0  0  0  0  0  0  0  0  0
  -11.7494   -0.6599   -0.0000 N   0  0  0  0  0  0  0  0  0  0  0  0
  -10.4531    1.5674   -0.0000 C   0  0  0  0  0  0  0  0  0  0  0  0
  -13.0575    0.0943   -0.0000 C   0  0  0  0  0  0  0  0  0  0  0  0
  -11.7612    2.3216   -0.0000 C   0  0  0  0  0  0  0  0  0  0  0  0
  -14.3656   -0.6364   -0.0000 C   0  0  0  0  0  0  0  0  0  0  0  0
  -13.0693    1.6027   -0.0000 C   0  0  0  0  0  0  0  0  0  0  0  0
  -15.6619    0.1178   -0.0000 C   0  0  0  0  0  0  0  0  0  0  0  0
  -14.3774    2.3569   -0.0000 C   0  0  0  0  0  0  0  0  0  0  0  0
  -17.1232   -0.3182   -0.0000 N   0  0  0  0  0  0  0  0  0  0  0  0
  -15.6737    1.6145   -0.0000 C   0  0  0  0  0  0  0  0  0  0  0  0
  -17.9835    0.8721   -0.0000 C   0  0  0  0  0  0  0  0  0  0  0  0
  -17.0996    2.0741   -0.0000 O   0  0  0  0  0  0  0  0  0  0  0  0
  -19.4919    0.8839   -0.0000 O   0  0  0  0  0  0  0  0  0  0  0  0
  1  2  1  0  0  0  0
  2  3  1  0  0  0  0
  2  4  1  0  0  0  0
  2  5  1  0  0  0  0
  5  6  2  0  0  0  0
  5  7  1  0  0  0  0
  6  8  1  0  0  0  0
  7  9  2  0  0  0  0
  8 10  1  0  0  0  0
  8 11  2  0  0  0  0
  9 12  1  0  0  0  0
 10 13  1  0  0  0  0
 12 14  1  0  0  0  0
 14 15  2  0  0  0  0
 14 16  1  0  0  0  0
 15 17  1  0  0  0  0
 16 18  2  0  0  0  0
 17 19  1  0  0  0  0
 17 20  2  0  0  0  0
 19 21  1  0  0  0  0
 20 22  1  0  0  0  0
 21 23  2  0  0  0  0
 21 24  1  0  0  0  0
 23 25  1  0  0  0  0
 24 26  2  0  0  0  0
 25 27  1  0  0  0  0
 25 28  2  0  0  0  0
 27 29  1  0  0  0  0
 28 30  1  0  0  0  0
 29 31  2  0  0  0  0
  9 11  1  0  0  0  0
 18 20  1  0  0  0  0
 26 28  1  0  0  0  0
 29 30  1  0  0  0  0
M  END
>  <MolRegNo>
2744276

>  <m>
=

>  <Value>
7200

>  <Unit>
nM

>  <Type>
IC50

>  <pValue>
5.14

>  <Ligand Efficiency>
0

>  <Binding Efficiency>
0

>  <Surface Efficiency>
0

>  <Assay Index>
1548000

>  <Assay Category>


>  <Assay Organism>
Homo sapiens

>  <Target ID>
17045

>  <Target Name>
Cytochrome P450 3A4

>  <Target Organism>
Homo sapiens

>  <Target Description>
Target is a single protein chain

>  <Sequence Accession>
P08684

>  <Reference>
ACS Med Chem Lett 13 (11.0), 1805-1811 (2022)

>  <Pubmed ID>
36385926

>  <DOI>
10.1021/acsmedchemlett.2c00411

$$$$
2763294
Actelion Java MolfileCreator 1.0

 31 34  0  0  0  0  0  0  0  0999 V2000
    0.0000   -0.0000   -0.0000 F   0  0  0  0  0  0  0  0  0  0  0  0
   -1.3090   -0.7312   -0.0000 C   0  0  0  0  0  0  0  0  0  0  0  0
   -1.3208   -2.2053   -0.0000 F   0  0  0  0  0  0  0  0  0  0  0  0
   -0.0236   -1.4623   -0.0000 F   0  0  0  0  0  0  0  0  0  0  0  0
   -2.6181    0.0236   -0.0000 C   0  0  0  0  0  0  0  0  0  0  0  0
   -2.6299    1.5213   -0.0000 C   0  0  0  0  0  0  0  0  0  0  0  0
   -3.9153   -0.7194   -0.0000 C   0  0  0  0  0  0  0  0  0  0  0  0
   -1.3562    2.2761   -0.0000 O   0  0  0  0  0  0  0  0  0  0  0  0
   -3.9389    2.2761   -0.0000 C   0  0  0  0  0  0  0  0  0  0  0  0
   -5.2244    0.0472   -0.0000 C   0  0  0  0  0  0  0  0  0  0  0  0
   -1.3680    3.7738   -0.0000 C   0  0  0  0  0  0  0  0  0  0  0  0
   -5.2361    1.5449   -0.0000 C   0  0  0  0  0  0  0  0  0  0  0  0
   -6.5334   -0.6840   -0.0000 N   0  0  0  0  0  0  0  0  0  0  0  0
   -7.8424    0.0708   -0.0000 C   0  0  0  0  0  0  0  0  0  0  0  0
   -9.1397   -0.6722   -0.0000 N   0  0  0  0  0  0  0  0  0  0  0  0
   -7.8542    1.5685   -0.0000 N   0  0  0  0  0  0  0  0  0  0  0  0
  -10.4487    0.0943   -0.0000 C   0  0  0  0  0  0  0  0  0  0  0  0
   -9.1633    2.3232   -0.0000 C   0  0  0  0  0  0  0  0  0  0  0  0
  -11.7577   -0.6368   -0.0000 N   0  0  0  0  0  0  0  0  0  0  0  0
  -10.4605    1.5921   -0.0000 C   0  0  0  0  0  0  0  0  0  0  0  0
  -13.0668    0.1179   -0.0000 C   0  0  0  0  0  0  0  0  0  0  0  0
  -11.7695    2.3468   -0.0000 C   0  0  0  0  0  0  0  0  0  0  0  0
  -14.3758   -0.6132   -0.0000 C   0  0  0  0  0  0  0  0  0  0  0  0
  -13.0786    1.6275   -0.0000 C   0  0  0  0  0  0  0  0  0  0  0  0
  -15.6731    0.1415   -0.0000 C   0  0  0  0  0  0  0  0  0  0  0  0
  -14.3876    2.3822   -0.0000 C   0  0  0  0  0  0  0  0  0  0  0  0
  -17.1354   -0.2948   -0.0000 N   0  0  0  0  0  0  0  0  0  0  0  0
  -15.6848    1.6392   -0.0000 C   0  0  0  0  0  0  0  0  0  0  0  0
  -17.9963    0.8963   -0.0000 C   0  0  0  0  0  0  0  0  0  0  0  0
  -17.1118    2.0992   -0.0000 O   0  0  0  0  0  0  0  0  0  0  0  0
  -19.5058    0.9081   -0.0000 O   0  0  0  0  0  0  0  0  0  0  0  0
  1  2  1  0  0  0  0
  2  3  1  0  0  0  0
  2  4  1  0  0  0  0
  2  5  1  0  0  0  0
  5  6  2  0  0  0  0
  5  7  1  0  0  0  0
  6  8  1  0  0  0  0
  6  9  1  0  0  0  0
  7 10  2  0  0  0  0
  8 11  1  0  0  0  0
  9 12  2  0  0  0  0
 10 13  1  0  0  0  0
 13 14  1  0  0  0  0
 14 15  2  0  0  0  0
 14 16  1  0  0  0  0
 15 17  1  0  0  0  0
 16 18  2  0  0  0  0
 17 19  1  0  0  0  0
 17 20  2  0  0  0  0
 19 21  1  0  0  0  0
 20 22  1  0  0  0  0
 21 23  2  0  0  0  0
 21 24  1  0  0  0  0
 23 25  1  0  0  0  0
 24 26  2  0  0  0  0
 25 27  1  0  0  0  0
 25 28  2  0  0  0  0
 27 29  1  0  0  0  0
 28 30  1  0  0  0  0
 29 31  2  0  0  0  0
 10 12  1  0  0  0  0
 18 20  1  0  0  0  0
 26 28  1  0  0  0  0
 29 30  1  0  0  0  0
M  END
>  <MolRegNo>
2763294

>  <m>
=

>  <Value>
4800

>  <Unit>
nM

>  <Type>
IC50

>  <pValue>
5.32

>  <Ligand Efficiency>
0

>  <Binding Efficiency>
0

>  <Surface Efficiency>
0

>  <Assay Index>
1548000

>  <Assay Category>


>  <Assay Organism>
Homo sapiens

>  <Target ID>
17045

>  <Target Name>
Cytochrome P450 3A4

>  <Target Organism>
Homo sapiens

>  <Target Description>
Target is a single protein chain

>  <Sequence Accession>
P08684

>  <Reference>
ACS Med Chem Lett 13 (11.0), 1805-1811 (2022)

>  <Pubmed ID>
36385926

>  <DOI>
10.1021/acsmedchemlett.2c00411

$$$$
2777166
Actelion Java MolfileCreator 1.0

 32 36  0  0  0  0  0  0  0  0999 V2000
    0.0000   -0.0000   -0.0000 O   0  0  0  0  0  0  0  0  0  0  0  0
    1.4950    0.0119   -0.0000 C   0  0  0  0  0  0  0  0  0  0  0  0
    2.3849    1.2458   -0.0000 O   0  0  0  0  0  0  0  0  0  0  0  0
    2.3374   -1.1746   -0.0000 N   0  0  0  0  0  0  0  0  0  0  0  0
    3.8087    0.8068   -0.0000 C   0  0  0  0  0  0  0  0  0  0  0  0
    3.7968   -0.7000   -0.0000 C   0  0  0  0  0  0  0  0  0  0  0  0
    5.0901    1.5662   -0.0000 C   0  0  0  0  0  0  0  0  0  0  0  0
    5.0901   -1.4357   -0.0000 C   0  0  0  0  0  0  0  0  0  0  0  0
    6.3834    0.8306   -0.0000 C   0  0  0  0  0  0  0  0  0  0  0  0
    6.3834   -0.6763   -0.0000 C   0  0  0  0  0  0  0  0  0  0  0  0
    7.6767   -1.4119   -0.0000 N   0  0  0  0  0  0  0  0  0  0  0  0
    8.9700   -0.6526   -0.0000 C   0  0  0  0  0  0  0  0  0  0  0  0
   10.2633   -1.4001   -0.0000 N   0  0  0  0  0  0  0  0  0  0  0  0
    8.9582    0.8662   -0.0000 C   0  0  0  0  0  0  0  0  0  0  0  0
   11.5566   -0.6289   -0.0000 C   0  0  0  0  0  0  0  0  0  0  0  0
   10.2515    1.6255   -0.0000 C   0  0  0  0  0  0  0  0  0  0  0  0
    7.6411    1.6255   -0.0000 C   0  0  0  0  0  0  0  0  0  0  0  0
   11.5448    0.8780   -0.0000 N   0  0  0  0  0  0  0  0  0  0  0  0
   12.8499   -1.3645   -0.0000 N   0  0  0  0  0  0  0  0  0  0  0  0
   14.1432   -0.6051   -0.0000 C   0  0  0  0  0  0  0  0  0  0  0  0
   15.4365   -1.3526   -0.0000 C   0  0  0  0  0  0  0  0  0  0  0  0
   14.1313    0.9136   -0.0000 C   0  0  0  0  0  0  0  0  0  0  0  0
   16.7179   -0.5814   -0.0000 N   0  0  0  0  0  0  0  0  0  0  0  0
   15.4246    1.6730   -0.0000 C   0  0  0  0  0  0  0  0  0  0  0  0
   16.7061    0.9255   -0.0000 C   0  0  0  0  0  0  0  0  0  0  0  0
   17.9994    1.6848   -0.0000 N   0  0  0  0  0  0  0  0  0  0  0  0
   19.2927    0.9492   -0.0000 C   0  0  0  0  0  0  0  0  0  0  0  0
   17.9875    3.2036   -0.0000 C   0  0  0  0  0  0  0  0  0  0  0  0
   20.5860    1.7086   -0.0000 C   0  0  0  0  0  0  0  0  0  0  0  0
   19.2808    3.9629   -0.0000 C   0  0  0  0  0  0  0  0  0  0  0  0
   20.5741    3.2273   -0.0000 N   0  0  0  0  0  0  0  0  0  0  0  0
   21.8674    3.9867   -0.0000 C   0  0  0  0  0  0  0  0  0  0  0  0
  1  2  2  0  0  0  0
  2  3  1  0  0  0  0
  2  4  1  0  0  0  0
  3  5  1  0  0  0  0
  4  6  1  0  0  0  0
  5  7  1  0  0  0  0
  6  8  1  0  0  0  0
  7  9  2  0  0  0  0
  8 10  2  0  0  0  0
 10 11  1  0  0  0  0
 11 12  1  0  0  0  0
 12 13  2  0  0  0  0
 12 14  1  0  0  0  0
 13 15  1  0  0  0  0
 14 16  2  0  0  0  0
 14 17  1  0  0  0  0
 15 18  2  0  0  0  0
 15 19  1  0  0  0  0
 19 20  1  0  0  0  0
 20 21  2  0  0  0  0
 20 22  1  0  0  0  0
 21 23  1  0  0  0  0
 22 24  2  0  0  0  0
 23 25  2  0  0  0  0
 25 26  1  0  0  0  0
 26 27  1  0  0  0  0
 26 28  1  0  0  0  0
 27 29  1  0  0  0  0
 28 30  1  0  0  0  0
 29 31  1  0  0  0  0
 31 32  1  0  0  0  0
  5  6  2  0  0  0  0
  9 10  1  0  0  0  0
 16 18  1  0  0  0  0
 24 25  1  0  0  0  0
 30 31  1  0  0  0  0
M  END
>  <MolRegNo>
2777166

>  <m>
=

>  <Value>
4000

>  <Unit>
nM

>  <Type>
IC50

>  <pValue>
5.4

>  <Ligand Efficiency>
0

>  <Binding Efficiency>
0

>  <Surface Efficiency>
0

>  <Assay Index>
1548001

>  <Assay Category>


>  <Assay Organism>
Homo sapiens

>  <Target ID>
17045

>  <Target Name>
Cytochrome P450 3A4

>  <Target Organism>
Homo sapiens

>  <Target Description>
Target is a single protein chain

>  <Sequence Accession>
P08684

>  <Reference>
ACS Med Chem Lett 13 (11.0), 1805-1811 (2022)

>  <Pubmed ID>
36385926

>  <DOI>
10.1021/acsmedchemlett.2c00411

$$$$
2764120
Actelion Java MolfileCreator 1.0

 31 34  0  0  0  0  0  0  0  0999 V2000
    0.0000   -0.0000   -0.0000 O   0  0  0  0  0  0  0  0  0  0  0  0
    1.4933    0.0119   -0.0000 C   0  0  0  0  0  0  0  0  0  0  0  0
    2.3821    1.2444   -0.0000 O   0  0  0  0  0  0  0  0  0  0  0  0
    2.3347   -1.1733   -0.0000 N   0  0  0  0  0  0  0  0  0  0  0  0
    3.8043    0.8059   -0.0000 C   0  0  0  0  0  0  0  0  0  0  0  0
    3.7924   -0.6992   -0.0000 C   0  0  0  0  0  0  0  0  0  0  0  0
    5.0842    1.5644   -0.0000 C   0  0  0  0  0  0  0  0  0  0  0  0
    5.0842   -1.4340   -0.0000 C   0  0  0  0  0  0  0  0  0  0  0  0
    6.3760    0.8296   -0.0000 C   0  0  0  0  0  0  0  0  0  0  0  0
    6.3760   -0.6755   -0.0000 C   0  0  0  0  0  0  0  0  0  0  0  0
    7.6678   -1.4103   -0.0000 N   0  0  0  0  0  0  0  0  0  0  0  0
    8.9596   -0.6518   -0.0000 C   0  0  0  0  0  0  0  0  0  0  0  0
   10.2514   -1.3985   -0.0000 N   0  0  0  0  0  0  0  0  0  0  0  0
    8.9478    0.8651   -0.0000 C   0  0  0  0  0  0  0  0  0  0  0  0
   11.5432   -0.6281   -0.0000 C   0  0  0  0  0  0  0  0  0  0  0  0
   10.2396    1.6236   -0.0000 C   0  0  0  0  0  0  0  0  0  0  0  0
    7.6323    1.6236   -0.0000 C   0  0  0  0  0  0  0  0  0  0  0  0
   11.5313    0.8770   -0.0000 N   0  0  0  0  0  0  0  0  0  0  0  0
   12.8350   -1.3629   -0.0000 N   0  0  0  0  0  0  0  0  0  0  0  0
   14.1268   -0.6044   -0.0000 C   0  0  0  0  0  0  0  0  0  0  0  0
   14.1149    0.9126   -0.0000 C   0  0  0  0  0  0  0  0  0  0  0  0
   15.4186   -1.3511   -0.0000 C   0  0  0  0  0  0  0  0  0  0  0  0
   15.4067    1.6710   -0.0000 C   0  0  0  0  0  0  0  0  0  0  0  0
   16.7104   -0.5807   -0.0000 C   0  0  0  0  0  0  0  0  0  0  0  0
   15.3949    3.1880   -0.0000 O   0  0  0  0  0  0  0  0  0  0  0  0
   16.6985    0.9363   -0.0000 C   0  0  0  0  0  0  0  0  0  0  0  0
   18.0022   -1.3155   -0.0000 O   0  0  0  0  0  0  0  0  0  0  0  0
   14.0794    3.9465   -0.0000 C   0  0  0  0  0  0  0  0  0  0  0  0
   17.9903    1.6947   -0.0000 O   0  0  0  0  0  0  0  0  0  0  0  0
   19.2940   -0.5570   -0.0000 C   0  0  0  0  0  0  0  0  0  0  0  0
   17.9785    3.2117   -0.0000 C   0  0  0  0  0  0  0  0  0  0  0  0
  1  2  2  0  0  0  0
  2  3  1  0  0  0  0
  2  4  1  0  0  0  0
  3  5  1  0  0  0  0
  4  6  1  0  0  0  0
  5  7  1  0  0  0  0
  6  8  1  0  0  0  0
  7  9  2  0  0  0  0
  8 10  2  0  0  0  0
 10 11  1  0  0  0  0
 11 12  1  0  0  0  0
 12 13  2  0  0  0  0
 12 14  1  0  0  0  0
 13 15  1  0  0  0  0
 14 16  2  0  0  0  0
 14 17  1  0  0  0  0
 15 18  2  0  0  0  0
 15 19  1  0  0  0  0
 19 20  1  0  0  0  0
 20 21  2  0  0  0  0
 20 22  1  0  0  0  0
 21 23  1  0  0  0  0
 22 24  2  0  0  0  0
 23 25  1  0  0  0  0
 23 26  2  0  0  0  0
 24 27  1  0  0  0  0
 25 28  1  0  0  0  0
 26 29  1  0  0  0  0
 27 30  1  0  0  0  0
 29 31  1  0  0  0  0
  5  6  2  0  0  0  0
  9 10  1  0  0  0  0
 16 18  1  0  0  0  0
 24 26  1  0  0  0  0
M  END
>  <MolRegNo>
2764120

>  <m>
=

>  <Value>
1100

>  <Unit>
nM

>  <Type>
IC50

>  <pValue>
5.96

>  <Ligand Efficiency>
0

>  <Binding Efficiency>
0

>  <Surface Efficiency>
0

>  <Assay Index>
1548001

>  <Assay Category>


>  <Assay Organism>
Homo sapiens

>  <Target ID>
17045

>  <Target Name>
Cytochrome P450 3A4

>  <Target Organism>
Homo sapiens

>  <Target Description>
Target is a single protein chain

>  <Sequence Accession>
P08684

>  <Reference>
ACS Med Chem Lett 13 (11.0), 1805-1811 (2022)

>  <Pubmed ID>
36385926

>  <DOI>
10.1021/acsmedchemlett.2c00411

$$$$
2774877
Actelion Java MolfileCreator 1.0

 30 33  0  0  0  0  0  0  0  0999 V2000
    0.0000   -0.0000   -0.0000 F   0  0  0  0  0  0  0  0  0  0  0  0
   -1.2986   -0.7319   -0.0000 C   0  0  0  0  0  0  0  0  0  0  0  0
   -1.3104   -2.2075   -0.0000 C   0  0  0  0  0  0  0  0  0  0  0  0
   -2.6089    0.0236   -0.0000 C   0  0  0  0  0  0  0  0  0  0  0  0
   -2.6089   -2.9513   -0.0000 C   0  0  0  0  0  0  0  0  0  0  0  0
   -0.0236   -2.9395   -0.0000 C   0  0  0  0  0  0  0  0  0  0  0  0
   -3.9075   -0.7083   -0.0000 C   0  0  0  0  0  0  0  0  0  0  0  0
   -3.9193   -2.1839   -0.0000 C   0  0  0  0  0  0  0  0  0  0  0  0
    1.2631   -2.1839   -0.0000 F   0  0  0  0  0  0  0  0  0  0  0  0
   -0.0354   -4.4269   -0.0000 F   0  0  0  0  0  0  0  0  0  0  0  0
    1.2631   -3.6714   -0.0000 F   0  0  0  0  0  0  0  0  0  0  0  0
   -5.2296   -2.9158   -0.0000 N   0  0  0  0  0  0  0  0  0  0  0  0
   -6.5400   -2.1603   -0.0000 C   0  0  0  0  0  0  0  0  0  0  0  0
   -7.8385   -2.9040   -0.0000 N   0  0  0  0  0  0  0  0  0  0  0  0
   -6.5518   -0.6611   -0.0000 N   0  0  0  0  0  0  0  0  0  0  0  0
   -9.1489   -2.1367   -0.0000 C   0  0  0  0  0  0  0  0  0  0  0  0
   -7.8622    0.0944   -0.0000 C   0  0  0  0  0  0  0  0  0  0  0  0
  -10.4593   -2.8686   -0.0000 N   0  0  0  0  0  0  0  0  0  0  0  0
   -9.1607   -0.6375   -0.0000 C   0  0  0  0  0  0  0  0  0  0  0  0
  -11.7696   -2.1131   -0.0000 C   0  0  0  0  0  0  0  0  0  0  0  0
  -10.4711    0.1181   -0.0000 C   0  0  0  0  0  0  0  0  0  0  0  0
  -13.0800   -2.8450   -0.0000 C   0  0  0  0  0  0  0  0  0  0  0  0
  -11.7814   -0.6021   -0.0000 C   0  0  0  0  0  0  0  0  0  0  0  0
  -14.3785   -2.0895   -0.0000 C   0  0  0  0  0  0  0  0  0  0  0  0
  -13.0918    0.1535   -0.0000 C   0  0  0  0  0  0  0  0  0  0  0  0
  -15.8424   -2.5263   -0.0000 N   0  0  0  0  0  0  0  0  0  0  0  0
  -14.3903   -0.5784   -0.0000 C   0  0  0  0  0  0  0  0  0  0  0  0
  -16.7041   -1.3340   -0.0000 C   0  0  0  0  0  0  0  0  0  0  0  0
  -15.8188   -0.1181   -0.0000 O   0  0  0  0  0  0  0  0  0  0  0  0
  -18.2152   -1.3222   -0.0000 O   0  0  0  0  0  0  0  0  0  0  0  0
  1  2  1  0  0  0  0
  2  3  2  0  0  0  0
  2  4  1  0  0  0  0
  3  5  1  0  0  0  0
  3  6  1  0  0  0  0
  4  7  2  0  0  0  0
  5  8  2  0  0  0  0
  6  9  1  0  0  0  0
  6 10  1  0  0  0  0
  6 11  1  0  0  0  0
  8 12  1  0  0  0  0
 12 13  1  0  0  0  0
 13 14  2  0  0  0  0
 13 15  1  0  0  0  0
 14 16  1  0  0  0  0
 15 17  2  0  0  0  0
 16 18  1  0  0  0  0
 16 19  2  0  0  0  0
 18 20  1  0  0  0  0
 19 21  1  0  0  0  0
 20 22  2  0  0  0  0
 20 23  1  0  0  0  0
 22 24  1  0  0  0  0
 23 25  2  0  0  0  0
 24 26  1  0  0  0  0
 24 27  2  0  0  0  0
 26 28  1  0  0  0  0
 27 29  1  0  0  0  0
 28 30  2  0  0  0  0
  7  8  1  0  0  0  0
 17 19  1  0  0  0  0
 25 27  1  0  0  0  0
 28 29  1  0  0  0  0
M  END
>  <MolRegNo>
2774877

>  <m>
=

>  <Value>
700

>  <Unit>
nM

>  <Type>
IC50

>  <pValue>
6.16

>  <Ligand Efficiency>
0

>  <Binding Efficiency>
0

>  <Surface Efficiency>
0

>  <Assay Index>
1548001

>  <Assay Category>


>  <Assay Organism>
Homo sapiens

>  <Target ID>
17045

>  <Target Name>
Cytochrome P450 3A4

>  <Target Organism>
Homo sapiens

>  <Target Description>
Target is a single protein chain

>  <Sequence Accession>
P08684

>  <Reference>
ACS Med Chem Lett 13 (11.0), 1805-1811 (2022)

>  <Pubmed ID>
36385926

>  <DOI>
10.1021/acsmedchemlett.2c00411

$$$$
2780610
Actelion Java MolfileCreator 1.0

 30 33  0  0  0  0  0  0  0  0999 V2000
    0.0000   -0.0000   -0.0000 F   0  0  0  0  0  0  0  0  0  0  0  0
   -1.3075   -0.7303   -0.0000 C   0  0  0  0  0  0  0  0  0  0  0  0
   -1.3193   -2.2028   -0.0000 F   0  0  0  0  0  0  0  0  0  0  0  0
   -2.6150    0.0236   -0.0000 C   0  0  0  0  0  0  0  0  0  0  0  0
   -2.6268    1.5195   -0.0000 C   0  0  0  0  0  0  0  0  0  0  0  0
   -3.9108   -0.7185   -0.0000 C   0  0  0  0  0  0  0  0  0  0  0  0
   -3.9343    2.2734   -0.0000 C   0  0  0  0  0  0  0  0  0  0  0  0
   -5.2183    0.0353   -0.0000 C   0  0  0  0  0  0  0  0  0  0  0  0
   -3.9461    3.7694   -0.0000 O   0  0  0  0  0  0  0  0  0  0  0  0
   -5.2301    1.5431   -0.0000 C   0  0  0  0  0  0  0  0  0  0  0  0
   -6.5258   -0.6950   -0.0000 N   0  0  0  0  0  0  0  0  0  0  0  0
   -5.2536    4.5233   -0.0000 C   0  0  0  0  0  0  0  0  0  0  0  0
   -7.8333    0.0589   -0.0000 C   0  0  0  0  0  0  0  0  0  0  0  0
   -9.1291   -0.6832   -0.0000 N   0  0  0  0  0  0  0  0  0  0  0  0
   -7.8451    1.5549   -0.0000 N   0  0  0  0  0  0  0  0  0  0  0  0
  -10.4366    0.0707   -0.0000 C   0  0  0  0  0  0  0  0  0  0  0  0
   -9.1526    2.3088   -0.0000 C   0  0  0  0  0  0  0  0  0  0  0  0
  -11.7441   -0.6596   -0.0000 N   0  0  0  0  0  0  0  0  0  0  0  0
  -10.4484    1.5667   -0.0000 C   0  0  0  0  0  0  0  0  0  0  0  0
  -13.0516    0.0942   -0.0000 C   0  0  0  0  0  0  0  0  0  0  0  0
  -11.7559    2.3206   -0.0000 C   0  0  0  0  0  0  0  0  0  0  0  0
  -14.3591   -0.6361   -0.0000 C   0  0  0  0  0  0  0  0  0  0  0  0
  -13.0634    1.6020   -0.0000 C   0  0  0  0  0  0  0  0  0  0  0  0
  -15.6549    0.1178   -0.0000 C   0  0  0  0  0  0  0  0  0  0  0  0
  -14.3709    2.3559   -0.0000 C   0  0  0  0  0  0  0  0  0  0  0  0
  -17.1155   -0.3180   -0.0000 N   0  0  0  0  0  0  0  0  0  0  0  0
  -15.6667    1.6138   -0.0000 C   0  0  0  0  0  0  0  0  0  0  0  0
  -17.9754    0.8717   -0.0000 C   0  0  0  0  0  0  0  0  0  0  0  0
  -17.0920    2.0732   -0.0000 O   0  0  0  0  0  0  0  0  0  0  0  0
  -19.4832    0.8835   -0.0000 O   0  0  0  0  0  0  0  0  0  0  0  0
  1  2  1  0  0  0  0
  2  3  1  0  0  0  0
  2  4  1  0  0  0  0
  4  5  2  0  0  0  0
  4  6  1  0  0  0  0
  5  7  1  0  0  0  0
  6  8  2  0  0  0  0
  7  9  1  0  0  0  0
  7 10  2  0  0  0  0
  8 11  1  0  0  0  0
  9 12  1  0  0  0  0
 11 13  1  0  0  0  0
 13 14  2  0  0  0  0
 13 15  1  0  0  0  0
 14 16  1  0  0  0  0
 15 17  2  0  0  0  0
 16 18  1  0  0  0  0
 16 19  2  0  0  0  0
 18 20  1  0  0  0  0
 19 21  1  0  0  0  0
 20 22  2  0  0  0  0
 20 23  1  0  0  0  0
 22 24  1  0  0  0  0
 23 25  2  0  0  0  0
 24 26  1  0  0  0  0
 24 27  2  0  0  0  0
 26 28  1  0  0  0  0
 27 29  1  0  0  0  0
 28 30  2  0  0  0  0
  8 10  1  0  0  0  0
 17 19  1  0  0  0  0
 25 27  1  0  0  0  0
 28 29  1  0  0  0  0
M  END
>  <MolRegNo>
2780610

>  <m>
=

>  <Value>
3000

>  <Unit>
nM

>  <Type>
IC50

>  <pValue>
5.52

>  <Ligand Efficiency>
0

>  <Binding Efficiency>
0

>  <Surface Efficiency>
0

>  <Assay Index>
1548001

>  <Assay Category>


>  <Assay Organism>
Homo sapiens

>  <Target ID>
17045

>  <Target Name>
Cytochrome P450 3A4

>  <Target Organism>
Homo sapiens

>  <Target Description>
Target is a single protein chain

>  <Sequence Accession>
P08684

>  <Reference>
ACS Med Chem Lett 13 (11.0), 1805-1811 (2022)

>  <Pubmed ID>
36385926

>  <DOI>
10.1021/acsmedchemlett.2c00411

$$$$
2741392
Actelion Java MolfileCreator 1.0

 29 32  0  0  0  0  0  0  0  0999 V2000
    0.0000   -0.0000   -0.0000 F   0  0  0  0  0  0  0  0  0  0  0  0
   -1.3074   -0.7302   -0.0000 C   0  0  0  0  0  0  0  0  0  0  0  0
   -2.6147    0.0236   -0.0000 C   0  0  0  0  0  0  0  0  0  0  0  0
   -2.6265    1.5194   -0.0000 C   0  0  0  0  0  0  0  0  0  0  0  0
   -3.9103   -0.7185   -0.0000 C   0  0  0  0  0  0  0  0  0  0  0  0
   -3.9339    2.2732   -0.0000 C   0  0  0  0  0  0  0  0  0  0  0  0
   -5.2177    0.0353   -0.0000 C   0  0  0  0  0  0  0  0  0  0  0  0
   -3.9457    3.7690   -0.0000 O   0  0  0  0  0  0  0  0  0  0  0  0
   -5.2295    1.5429   -0.0000 C   0  0  0  0  0  0  0  0  0  0  0  0
   -6.5133   -0.6949   -0.0000 N   0  0  0  0  0  0  0  0  0  0  0  0
   -5.2530    4.5228   -0.0000 C   0  0  0  0  0  0  0  0  0  0  0  0
   -7.8207    0.0589   -0.0000 C   0  0  0  0  0  0  0  0  0  0  0  0
   -9.1163   -0.6831   -0.0000 N   0  0  0  0  0  0  0  0  0  0  0  0
   -7.8324    1.5547   -0.0000 N   0  0  0  0  0  0  0  0  0  0  0  0
  -10.4236    0.0707   -0.0000 C   0  0  0  0  0  0  0  0  0  0  0  0
   -9.1398    2.3085   -0.0000 C   0  0  0  0  0  0  0  0  0  0  0  0
  -11.7310   -0.6596   -0.0000 N   0  0  0  0  0  0  0  0  0  0  0  0
  -10.4354    1.5665   -0.0000 C   0  0  0  0  0  0  0  0  0  0  0  0
  -13.0384    0.0942   -0.0000 C   0  0  0  0  0  0  0  0  0  0  0  0
  -11.7428    2.3203   -0.0000 C   0  0  0  0  0  0  0  0  0  0  0  0
  -14.3457   -0.6360   -0.0000 C   0  0  0  0  0  0  0  0  0  0  0  0
  -13.0501    1.6018   -0.0000 C   0  0  0  0  0  0  0  0  0  0  0  0
  -15.6413    0.1178   -0.0000 C   0  0  0  0  0  0  0  0  0  0  0  0
  -14.3575    2.3556   -0.0000 C   0  0  0  0  0  0  0  0  0  0  0  0
  -17.1018   -0.3180   -0.0000 N   0  0  0  0  0  0  0  0  0  0  0  0
  -15.6531    1.6136   -0.0000 C   0  0  0  0  0  0  0  0  0  0  0  0
  -17.9616    0.8716   -0.0000 C   0  0  0  0  0  0  0  0  0  0  0  0
  -17.0782    2.0729   -0.0000 O   0  0  0  0  0  0  0  0  0  0  0  0
  -19.4574    0.8834   -0.0000 O   0  0  0  0  0  0  0  0  0  0  0  0
  1  2  1  0  0  0  0
  2  3  1  0  0  0  0
  3  4  2  0  0  0  0
  3  5  1  0  0  0  0
  4  6  1  0  0  0  0
  5  7  2  0  0  0  0
  6  8  1  0  0  0  0
  6  9  2  0  0  0  0
  7 10  1  0  0  0  0
  8 11  1  0  0  0  0
 10 12  1  0  0  0  0
 12 13  2  0  0  0  0
 12 14  1  0  0  0  0
 13 15  1  0  0  0  0
 14 16  2  0  0  0  0
 15 17  1  0  0  0  0
 15 18  2  0  0  0  0
 17 19  1  0  0  0  0
 18 20  1  0  0  0  0
 19 21  2  0  0  0  0
 19 22  1  0  0  0  0
 21 23  1  0  0  0  0
 22 24  2  0  0  0  0
 23 25  1  0  0  0  0
 23 26  2  0  0  0  0
 25 27  1  0  0  0  0
 26 28  1  0  0  0  0
 27 29  2  0  0  0  0
  7  9  1  0  0  0  0
 16 18  1  0  0  0  0
 24 26  1  0  0  0  0
 27 28  1  0  0  0  0
M  END
>  <MolRegNo>
2741392

>  <m>
=

>  <Value>
8000

>  <Unit>
nM

>  <Type>
IC50

>  <pValue>
5.1

>  <Ligand Efficiency>
0

>  <Binding Efficiency>
0

>  <Surface Efficiency>
0

>  <Assay Index>
1548001

>  <Assay Category>


>  <Assay Organism>
Homo sapiens

>  <Target ID>
17045

>  <Target Name>
Cytochrome P450 3A4

>  <Target Organism>
Homo sapiens

>  <Target Description>
Target is a single protein chain

>  <Sequence Accession>
P08684

>  <Reference>
ACS Med Chem Lett 13 (11.0), 1805-1811 (2022)

>  <Pubmed ID>
36385926

>  <DOI>
10.1021/acsmedchemlett.2c00411

$$$$
2758440
Actelion Java MolfileCreator 1.0

 30 33  0  0  0  0  0  0  0  0999 V2000
    0.0000   -0.0000   -0.0000 O   0  0  0  0  0  0  0  0  0  0  0  0
    1.4925    0.0118   -0.0000 C   0  0  0  0  0  0  0  0  0  0  0  0
    2.3809    1.2437   -0.0000 O   0  0  0  0  0  0  0  0  0  0  0  0
    2.3335   -1.1727   -0.0000 N   0  0  0  0  0  0  0  0  0  0  0  0
    3.8023    0.8055   -0.0000 C   0  0  0  0  0  0  0  0  0  0  0  0
    3.7905   -0.6989   -0.0000 C   0  0  0  0  0  0  0  0  0  0  0  0
    5.0816    1.5636   -0.0000 C   0  0  0  0  0  0  0  0  0  0  0  0
    5.0816   -1.4333   -0.0000 C   0  0  0  0  0  0  0  0  0  0  0  0
    6.3727    0.8292   -0.0000 C   0  0  0  0  0  0  0  0  0  0  0  0
    6.3727   -0.6752   -0.0000 C   0  0  0  0  0  0  0  0  0  0  0  0
    7.6638   -1.4096   -0.0000 N   0  0  0  0  0  0  0  0  0  0  0  0
    8.9549   -0.6515   -0.0000 C   0  0  0  0  0  0  0  0  0  0  0  0
   10.2461   -1.3977   -0.0000 N   0  0  0  0  0  0  0  0  0  0  0  0
    8.9431    0.8647   -0.0000 C   0  0  0  0  0  0  0  0  0  0  0  0
   11.5372   -0.6278   -0.0000 C   0  0  0  0  0  0  0  0  0  0  0  0
   10.2342    1.6228   -0.0000 C   0  0  0  0  0  0  0  0  0  0  0  0
    7.6283    1.6228   -0.0000 C   0  0  0  0  0  0  0  0  0  0  0  0
   11.5253    0.8765   -0.0000 N   0  0  0  0  0  0  0  0  0  0  0  0
   12.8283   -1.3740   -0.0000 N   0  0  0  0  0  0  0  0  0  0  0  0
   14.1194   -0.6041   -0.0000 C   0  0  0  0  0  0  0  0  0  0  0  0
   14.1076    0.9121   -0.0000 C   0  0  0  0  0  0  0  0  0  0  0  0
   15.4106   -1.3503   -0.0000 C   0  0  0  0  0  0  0  0  0  0  0  0
   15.3987    1.6702   -0.0000 C   0  0  0  0  0  0  0  0  0  0  0  0
   16.7017   -0.5804   -0.0000 C   0  0  0  0  0  0  0  0  0  0  0  0
   15.3869    3.1863   -0.0000 O   0  0  0  0  0  0  0  0  0  0  0  0
   16.6898    0.9358   -0.0000 C   0  0  0  0  0  0  0  0  0  0  0  0
   17.9928   -1.3267   -0.0000 C   0  0  0  0  0  0  0  0  0  0  0  0
   14.0721    3.9563   -0.0000 C   0  0  0  0  0  0  0  0  0  0  0  0
   17.9810    1.6939   -0.0000 O   0  0  0  0  0  0  0  0  0  0  0  0
   17.9691    3.2100   -0.0000 C   0  0  0  0  0  0  0  0  0  0  0  0
  1  2  2  0  0  0  0
  2  3  1  0  0  0  0
  2  4  1  0  0  0  0
  3  5  1  0  0  0  0
  4  6  1  0  0  0  0
  5  7  1  0  0  0  0
  6  8  1  0  0  0  0
  7  9  2  0  0  0  0
  8 10  2  0  0  0  0
 10 11  1  0  0  0  0
 11 12  1  0  0  0  0
 12 13  2  0  0  0  0
 12 14  1  0  0  0  0
 13 15  1  0  0  0  0
 14 16  2  0  0  0  0
 14 17  1  0  0  0  0
 15 18  2  0  0  0  0
 15 19  1  0  0  0  0
 19 20  1  0  0  0  0
 20 21  2  0  0  0  0
 20 22  1  0  0  0  0
 21 23  1  0  0  0  0
 22 24  2  0  0  0  0
 23 25  1  0  0  0  0
 23 26  2  0  0  0  0
 24 27  1  0  0  0  0
 25 28  1  0  0  0  0
 26 29  1  0  0  0  0
 29 30  1  0  0  0  0
  5  6  2  0  0  0  0
  9 10  1  0  0  0  0
 16 18  1  0  0  0  0
 24 26  1  0  0  0  0
M  END
>  <MolRegNo>
2758440

>  <m>
=

>  <Value>
2700

>  <Unit>
nM

>  <Type>
IC50

>  <pValue>
5.57

>  <Ligand Efficiency>
0

>  <Binding Efficiency>
0

>  <Surface Efficiency>
0

>  <Assay Index>
1548001

>  <Assay Category>


>  <Assay Organism>
Homo sapiens

>  <Target ID>
17045

>  <Target Name>
Cytochrome P450 3A4

>  <Target Organism>
Homo sapiens

>  <Target Description>
Target is a single protein chain

>  <Sequence Accession>
P08684

>  <Reference>
ACS Med Chem Lett 13 (11.0), 1805-1811 (2022)

>  <Pubmed ID>
36385926

>  <DOI>
10.1021/acsmedchemlett.2c00411

$$$$
2759564
Actelion Java MolfileCreator 1.0

 29 32  0  0  0  0  0  0  0  0999 V2000
    0.0000   -0.0000   -0.0000 O   0  0  0  0  0  0  0  0  0  0  0  0
    1.4927    0.0118   -0.0000 C   0  0  0  0  0  0  0  0  0  0  0  0
    2.3813    1.2439   -0.0000 O   0  0  0  0  0  0  0  0  0  0  0  0
    2.3339   -1.1729   -0.0000 N   0  0  0  0  0  0  0  0  0  0  0  0
    3.8029    0.8056   -0.0000 C   0  0  0  0  0  0  0  0  0  0  0  0
    3.7911   -0.7108   -0.0000 C   0  0  0  0  0  0  0  0  0  0  0  0
    5.0824    1.5638   -0.0000 C   0  0  0  0  0  0  0  0  0  0  0  0
    5.0824   -1.4454   -0.0000 C   0  0  0  0  0  0  0  0  0  0  0  0
    6.3738    0.8293   -0.0000 C   0  0  0  0  0  0  0  0  0  0  0  0
    6.3738   -0.6871   -0.0000 C   0  0  0  0  0  0  0  0  0  0  0  0
    7.6651   -1.4335   -0.0000 N   0  0  0  0  0  0  0  0  0  0  0  0
    8.9564   -0.6634   -0.0000 C   0  0  0  0  0  0  0  0  0  0  0  0
   10.2478   -1.4098   -0.0000 N   0  0  0  0  0  0  0  0  0  0  0  0
    8.9446    0.8530   -0.0000 C   0  0  0  0  0  0  0  0  0  0  0  0
   11.5391   -0.6397   -0.0000 C   0  0  0  0  0  0  0  0  0  0  0  0
   10.2359    1.6112   -0.0000 C   0  0  0  0  0  0  0  0  0  0  0  0
    7.6296    1.6112   -0.0000 C   0  0  0  0  0  0  0  0  0  0  0  0
   11.5273    0.8648   -0.0000 N   0  0  0  0  0  0  0  0  0  0  0  0
   12.8305   -1.3743   -0.0000 N   0  0  0  0  0  0  0  0  0  0  0  0
   14.1218   -0.6161   -0.0000 C   0  0  0  0  0  0  0  0  0  0  0  0
   14.1099    0.9004   -0.0000 C   0  0  0  0  0  0  0  0  0  0  0  0
   15.4131   -1.3624   -0.0000 C   0  0  0  0  0  0  0  0  0  0  0  0
   15.4013    1.6586   -0.0000 C   0  0  0  0  0  0  0  0  0  0  0  0
   16.7045   -0.5924   -0.0000 C   0  0  0  0  0  0  0  0  0  0  0  0
   15.3894    3.1750   -0.0000 O   0  0  0  0  0  0  0  0  0  0  0  0
   16.6926    0.9241   -0.0000 C   0  0  0  0  0  0  0  0  0  0  0  0
   17.9958   -1.3269   -0.0000 C   0  0  0  0  0  0  0  0  0  0  0  0
   14.0744    3.9333   -0.0000 C   0  0  0  0  0  0  0  0  0  0  0  0
   17.9840    1.6823   -0.0000 C   0  0  0  0  0  0  0  0  0  0  0  0
  1  2  2  0  0  0  0
  2  3  1  0  0  0  0
  2  4  1  0  0  0  0
  3  5  1  0  0  0  0
  4  6  1  0  0  0  0
  5  7  1  0  0  0  0
  6  8  1  0  0  0  0
  7  9  2  0  0  0  0
  8 10  2  0  0  0  0
 10 11  1  0  0  0  0
 11 12  1  0  0  0  0
 12 13  2  0  0  0  0
 12 14  1  0  0  0  0
 13 15  1  0  0  0  0
 14 16  2  0  0  0  0
 14 17  1  0  0  0  0
 15 18  2  0  0  0  0
 15 19  1  0  0  0  0
 19 20  1  0  0  0  0
 20 21  2  0  0  0  0
 20 22  1  0  0  0  0
 21 23  1  0  0  0  0
 22 24  2  0  0  0  0
 23 25  1  0  0  0  0
 23 26  2  0  0  0  0
 24 27  1  0  0  0  0
 25 28  1  0  0  0  0
 26 29  1  0  0  0  0
  5  6  2  0  0  0  0
  9 10  1  0  0  0  0
 16 18  1  0  0  0  0
 24 26  1  0  0  0  0
M  END
>  <MolRegNo>
2759564

>  <m>
=

>  <Value>
2900

>  <Unit>
nM

>  <Type>
IC50

>  <pValue>
5.54

>  <Ligand Efficiency>
0

>  <Binding Efficiency>
0

>  <Surface Efficiency>
0

>  <Assay Index>
1548001

>  <Assay Category>


>  <Assay Organism>
Homo sapiens

>  <Target ID>
17045

>  <Target Name>
Cytochrome P450 3A4

>  <Target Organism>
Homo sapiens

>  <Target Description>
Target is a single protein chain

>  <Sequence Accession>
P08684

>  <Reference>
ACS Med Chem Lett 13 (11.0), 1805-1811 (2022)

>  <Pubmed ID>
36385926

>  <DOI>
10.1021/acsmedchemlett.2c00411

$$$$
84575
Actelion Java MolfileCreator 1.0

 31 34  0  0  1  0  0  0  0  0999 V2000
    0.0000   -0.0000   -0.0000 S   0  0  0  0  0  0  0  0  0  0  0  0
   -1.2461   -0.6859   -0.0000 C   0  0  0  0  0  0  0  0  0  0  0  0
    1.2575   -0.6859   -0.0000 C   0  0  0  0  0  0  0  0  0  0  0  0
   -1.2575   -2.1149   -0.0000 N   0  0  0  0  0  0  0  0  0  0  0  0
   -2.5035    0.0457   -0.0000 C   0  0  0  0  0  0  0  0  0  0  0  0
    1.2461   -2.1149   -0.0000 C   0  0  0  0  0  0  0  0  0  0  0  0
   -3.7610   -0.6630   -0.0000 C   0  0  0  0  0  0  0  0  0  0  0  0
   -2.5150    1.4976   -0.0000 C   0  0  0  0  0  0  0  0  0  0  0  0
    2.4921   -2.8236   -0.0000 C   0  0  0  0  0  0  0  0  0  0  0  0
   -3.7725    0.8002   -0.0000 O   0  0  0  0  0  0  0  0  0  0  0  0
   -3.7725   -2.0920   -0.0000 C   0  0  0  0  0  0  0  0  0  0  0  0
   -5.0185    0.0686   -0.0000 C   0  0  0  0  0  0  0  0  0  0  0  0
    3.7153   -2.0920   -0.0000 C   0  0  0  0  0  0  0  0  0  0  0  0
    2.4693   -4.2526   -0.0000 C   0  0  0  0  0  0  0  0  0  0  0  0
   -5.0300   -2.8008   -0.0000 C   0  0  0  0  0  0  0  0  0  0  0  0
   -2.5378   -2.8008   -0.0000 C   0  0  0  0  0  0  0  0  0  0  0  0
   -5.0528    1.5319   -0.0000 N   0  0  0  0  0  0  0  0  0  0  0  0
    4.9499   -2.8008   -0.0000 C   0  0  0  0  0  0  0  0  0  0  0  0
    3.7039   -4.9614   -0.0000 C   0  0  0  0  0  0  0  0  0  0  0  0
   -6.2875   -2.0691   -0.0000 F   0  0  0  0  0  0  0  0  0  0  0  0
   -5.0528   -4.2297   -0.0000 C   0  0  0  0  0  0  0  0  0  0  0  0
   -2.5493   -4.2297   -0.0000 C   0  0  0  0  0  0  0  0  0  0  0  0
   -6.2989    2.2521   -0.0000 N   0  0  0  0  0  0  0  0  0  0  0  0
   -3.7953    2.2521   -0.0000 C   0  0  0  0  0  0  0  0  0  0  0  0
    4.9385   -4.2297   -0.0000 C   0  0  0  0  0  0  0  0  0  0  0  0
   -3.7953   -4.9385   -0.0000 C   0  0  0  0  0  0  0  0  0  0  0  0
   -6.3103    3.7039   -0.0000 C   0  0  0  0  0  0  0  0  0  0  0  0
   -3.8068    3.7039   -0.0000 N   0  0  0  0  0  0  0  0  0  0  0  0
    6.1731   -4.9385   -0.0000 C   0  0  0  0  0  0  0  0  0  0  0  0
   -3.8068   -6.3675   -0.0000 F   0  0  0  0  0  0  0  0  0  0  0  0
    7.4078   -5.6358   -0.0000 N   0  0  0  0  0  0  0  0  0  0  0  0
  1  2  1  0  0  0  0
  1  3  1  0  0  0  0
  2  4  2  0  0  0  0
  2  5  1  0  0  0  0
  3  6  2  0  0  0  0
  5  7  1  0  0  0  0
  5  8  1  1  0  0  0
  6  9  1  0  0  0  0
  7 10  1  6  0  0  0
  7 11  1  0  0  0  0
  7 12  1  0  0  0  0
  9 13  2  0  0  0  0
  9 14  1  0  0  0  0
 11 15  2  0  0  0  0
 11 16  1  0  0  0  0
 12 17  1  0  0  0  0
 13 18  1  0  0  0  0
 14 19  2  0  0  0  0
 15 20  1  0  0  0  0
 15 21  1  0  0  0  0
 16 22  2  0  0  0  0
 17 23  1  0  0  0  0
 17 24  1  0  0  0  0
 18 25  2  0  0  0  0
 21 26  2  0  0  0  0
 23 27  2  0  0  0  0
 24 28  2  0  0  0  0
 25 29  1  0  0  0  0
 26 30  1  0  0  0  0
 29 31  3  0  0  0  0
  4  6  1  0  0  0  0
 19 25  1  0  0  0  0
 22 26  1  0  0  0  0
 27 28  1  0  0  0  0
M  END
>  <MolRegNo>
84575

>  <m>
=

>  <Value>
1010

>  <Unit>
nM

>  <Type>
IC50

>  <pValue>
6

>  <Ligand Efficiency>
0

>  <Binding Efficiency>
0

>  <Surface Efficiency>
0

>  <Assay Index>
1554975

>  <Assay Category>


>  <Assay Organism>
Homo sapiens

>  <Target ID>
17045

>  <Target Name>
Cytochrome P450 3A4

>  <Target Organism>
Homo sapiens

>  <Target Description>
Target is a single protein chain

>  <Sequence Accession>
P08684

>  <Reference>


>  <Pubmed ID>
35134679

>  <DOI>
10.1016/j.ejmech.2022.114161

$$$$
2189539
Actelion Java MolfileCreator 1.0

 41 46  0  0  1  0  0  0  0  0999 V2000
    0.0000   -0.0000   -0.0000 S   0  0  0  0  0  0  0  0  0  0  0  0
   -0.2200    1.5519   -0.0000 C   0  0  0  0  0  0  0  0  0  0  0  0
   -1.4175   -0.6599   -0.0000 C   0  0  0  0  0  0  0  0  0  0  0  0
    0.8921    2.6395   -0.0000 N   0  0  0  0  0  0  0  0  0  0  0  0
   -1.7475    1.8208   -0.0000 C   0  0  0  0  0  0  0  0  0  0  0  0
   -2.4929    0.4766   -0.0000 N   0  0  0  0  0  0  0  0  0  0  0  0
   -1.7108   -2.1752   -0.0000 C   0  0  0  0  0  0  0  0  0  0  0  0
    0.6232    4.1793   -0.0000 C   0  0  0  0  0  0  0  0  0  0  0  0
    2.3340    2.1018   -0.0000 C   0  0  0  0  0  0  0  0  0  0  0  0
   -2.5418    3.1772   -0.0000 C   0  0  0  0  0  0  0  0  0  0  0  0
   -0.7821   -2.9695   -0.0000 F   0  0  0  0  0  0  0  0  0  0  0  0
   -2.8962   -2.5784   -0.0000 F   0  0  0  0  0  0  0  0  0  0  0  0
   -1.9552   -3.3850   -0.0000 F   0  0  0  0  0  0  0  0  0  0  0  0
    1.8086    5.1691   -0.0000 C   0  0  0  0  0  0  0  0  0  0  0  0
    3.5194    3.0917   -0.0000 C   0  0  0  0  0  0  0  0  0  0  0  0
   -1.9185    4.6070   -0.0000 N   0  0  0  0  0  0  0  0  0  0  0  0
   -4.0937    3.3483   -0.0000 N   0  0  0  0  0  0  0  0  0  0  0  0
    3.2505    4.6314   -0.0000 N   0  0  0  0  0  0  0  0  0  0  0  0
    1.6008    6.4033   -0.0000 C   0  0  0  0  0  0  0  0  0  0  0  0
   -3.0795    5.6579   -0.0000 C   0  0  0  0  0  0  0  0  0  0  0  0
   -4.4237    4.8758   -0.0000 C   0  0  0  0  0  0  0  0  0  0  0  0
    4.4359    5.6212   -0.0000 C   0  0  0  0  0  0  0  0  0  0  0  0
   -3.0917    7.2220   -0.0000 C   0  0  0  0  0  0  0  0  0  0  0  0
   -5.7801    5.6579   -0.0000 C   0  0  0  0  0  0  0  0  0  0  0  0
    4.2281    6.8554   -0.0000 O   0  0  0  0  0  0  0  0  0  0  0  0
    5.8778    5.0835   -0.0000 C   0  0  0  0  0  0  0  0  0  0  0  0
   -4.4481    8.0041   -0.0000 C   0  0  0  0  0  0  0  0  0  0  0  0
   -5.7923    7.2220   -0.0000 C   0  0  0  0  0  0  0  0  0  0  0  0
    7.0632    6.0734   -0.0000 N   0  0  0  0  0  0  0  0  0  0  0  0
   -7.1487    8.0163   -0.0000 C   0  0  0  0  0  0  0  0  0  0  0  0
    6.9410    7.6253   -0.0000 N   0  0  0  0  0  0  0  0  0  0  0  0
    8.5296    5.6823   -0.0000 C   0  0  0  0  0  0  0  0  0  0  0  0
   -7.3076    9.5561   -0.0000 N   0  0  0  0  0  0  0  0  0  0  0  0
   -8.5540    7.3809   -0.0000 N   0  0  0  0  0  0  0  0  0  0  0  0
    8.3707    8.1996   -0.0000 C   0  0  0  0  0  0  0  0  0  0  0  0
    9.3606    7.0021   -0.0000 N   0  0  0  0  0  0  0  0  0  0  0  0
    8.9573    4.5336   -0.0000 C   0  0  0  0  0  0  0  0  0  0  0  0
   -8.8351    9.8860   -0.0000 O   0  0  0  0  0  0  0  0  0  0  0  0
   -9.6050    8.5418   -0.0000 C   0  0  0  0  0  0  0  0  0  0  0  0
    8.6762    9.4094   -0.0000 C   0  0  0  0  0  0  0  0  0  0  0  0
  -10.8514    8.4196   -0.0000 C   0  0  0  0  0  0  0  0  0  0  0  0
  1  2  1  0  0  0  0
  1  3  1  0  0  0  0
  2  4  1  0  0  0  0
  2  5  2  0  0  0  0
  3  6  2  0  0  0  0
  3  7  1  0  0  0  0
  4  8  1  0  0  0  0
  4  9  1  0  0  0  0
  5 10  1  0  0  0  0
  7 11  1  0  0  0  0
  7 12  1  0  0  0  0
  7 13  1  0  0  0  0
  8 14  1  0  0  0  0
  9 15  1  0  0  0  0
 10 16  2  0  0  0  0
 10 17  1  0  0  0  0
 14 18  1  0  0  0  0
 14 19  1  1  0  0  0
 16 20  1  0  0  0  0
 17 21  1  0  0  0  0
 18 22  1  0  0  0  0
 20 23  1  0  0  0  0
 21 24  1  0  0  0  0
 22 25  2  0  0  0  0
 22 26  1  0  0  0  0
 23 27  2  0  0  0  0
 24 28  2  0  0  0  0
 26 29  1  0  0  0  0
 28 30  1  0  0  0  0
 29 31  1  0  0  0  0
 29 32  1  0  0  0  0
 30 33  2  0  0  0  0
 30 34  1  0  0  0  0
 31 35  2  0  0  0  0
 32 36  2  0  0  0  0
 32 37  1  0  0  0  0
 33 38  1  0  0  0  0
 34 39  2  0  0  0  0
 35 40  1  0  0  0  0
 39 41  1  0  0  0  0
  5  6  1  0  0  0  0
 15 18  1  0  0  0  0
 20 21  2  0  0  0  0
 27 28  1  0  0  0  0
 35 36  1  0  0  0  0
 38 39  1  0  0  0  0
M  END
>  <MolRegNo>
2189539

>  <m>
=

>  <Value>
19000

>  <Unit>
nM

>  <Type>
IC50

>  <pValue>
4.72

>  <Ligand Efficiency>
0

>  <Binding Efficiency>
0

>  <Surface Efficiency>
0

>  <Assay Index>
1557027

>  <Assay Category>


>  <Assay Organism>
Homo sapiens

>  <Target ID>
17045

>  <Target Name>
Cytochrome P450 3A4

>  <Target Organism>
Homo sapiens

>  <Target Description>
Target is a single protein chain

>  <Sequence Accession>
P08684

>  <Reference>
J Med Chem 65 (17.0), 11533-11549 (2022)

>  <Pubmed ID>
35969159

>  <DOI>
10.1021/acs.jmedchem.2c00676

$$$$
2743687
Actelion Java MolfileCreator 1.0

 21 23  0  0  0  0  0  0  0  0999 V2000
    0.0000   -0.0000   -0.0000 Cl  0  0  0  0  0  0  0  0  0  0  0  0
    1.2885    0.7565   -0.0000 C   0  0  0  0  0  0  0  0  0  0  0  0
    2.5769    0.0236   -0.0000 C   0  0  0  0  0  0  0  0  0  0  0  0
    1.2766    2.2578   -0.0000 C   0  0  0  0  0  0  0  0  0  0  0  0
    3.8654    0.7802   -0.0000 C   0  0  0  0  0  0  0  0  0  0  0  0
    2.5533    3.0261   -0.0000 C   0  0  0  0  0  0  0  0  0  0  0  0
    3.8536    2.2932   -0.0000 C   0  0  0  0  0  0  0  0  0  0  0  0
    5.1539    0.0473   -0.0000 C   0  0  0  0  0  0  0  0  0  0  0  0
    5.1420    3.0498   -0.0000 C   0  0  0  0  0  0  0  0  0  0  0  0
    6.4423    0.8038   -0.0000 N   0  0  0  0  0  0  0  0  0  0  0  0
    5.1302    4.5628   -0.0000 N   0  0  0  0  0  0  0  0  0  0  0  0
    3.8181    5.3194   -0.0000 C   0  0  0  0  0  0  0  0  0  0  0  0
    6.4187    5.3194   -0.0000 C   0  0  0  0  0  0  0  0  0  0  0  0
    2.5060    4.5865   -0.0000 S   0  0  0  0  0  0  0  0  0  0  0  0
    3.8063    6.8324   -0.0000 N   0  0  0  0  0  0  0  0  0  0  0  0
    6.4069    6.8324   -0.0000 C   0  0  0  0  0  0  0  0  0  0  0  0
    7.8372    4.8820   -0.0000 C   0  0  0  0  0  0  0  0  0  0  0  0
    5.0948    7.5889   -0.0000 C   0  0  0  0  0  0  0  0  0  0  0  0
    7.8608    7.2934   -0.0000 N   0  0  0  0  0  0  0  0  0  0  0  0
    8.7237    6.1113   -0.0000 C   0  0  0  0  0  0  0  0  0  0  0  0
    5.0829    9.1020   -0.0000 O   0  0  0  0  0  0  0  0  0  0  0  0
  1  2  1  0  0  0  0
  2  3  2  0  0  0  0
  2  4  1  0  0  0  0
  3  5  1  0  0  0  0
  4  6  2  0  0  0  0
  5  7  2  0  0  0  0
  5  8  1  0  0  0  0
  7  9  1  0  0  0  0
  8 10  1  0  0  0  0
  9 11  1  0  0  0  0
 11 12  1  0  0  0  0
 11 13  1  0  0  0  0
 12 14  2  0  0  0  0
 12 15  1  0  0  0  0
 13 16  2  0  0  0  0
 13 17  1  0  0  0  0
 15 18  1  0  0  0  0
 16 19  1  0  0  0  0
 17 20  2  0  0  0  0
 18 21  2  0  0  0  0
  6  7  1  0  0  0  0
 16 18  1  0  0  0  0
 19 20  1  0  0  0  0
M  END
>  <MolRegNo>
2743687

>  <m>
=

>  <Value>
19000

>  <Unit>
nM

>  <Type>
IC50

>  <pValue>
4.72

>  <Ligand Efficiency>
0

>  <Binding Efficiency>
0

>  <Surface Efficiency>
0

>  <Assay Index>
1557462

>  <Assay Category>


>  <Assay Organism>
Homo sapiens

>  <Target ID>
17045

>  <Target Name>
Cytochrome P450 3A4

>  <Target Organism>
Homo sapiens

>  <Target Description>
Target is a single protein chain

>  <Sequence Accession>
P08684

>  <Reference>
J Med Chem 65 (17.0), 11485-11496 (2022)

>  <Pubmed ID>
36005476

>  <DOI>
10.1021/acs.jmedchem.1c02141

$$$$
2739649
Actelion Java MolfileCreator 1.0

 22 24  0  0  0  0  0  0  0  0999 V2000
    0.0000   -0.0000   -0.0000 Cl  0  0  0  0  0  0  0  0  0  0  0  0
   -1.3061    0.7531   -0.0000 C   0  0  0  0  0  0  0  0  0  0  0  0
   -1.3179    2.2592   -0.0000 C   0  0  0  0  0  0  0  0  0  0  0  0
   -2.6122    0.0235   -0.0000 C   0  0  0  0  0  0  0  0  0  0  0  0
   -2.6240    3.0241   -0.0000 C   0  0  0  0  0  0  0  0  0  0  0  0
   -3.9183    0.7766   -0.0000 C   0  0  0  0  0  0  0  0  0  0  0  0
   -3.9301    2.2828   -0.0000 C   0  0  0  0  0  0  0  0  0  0  0  0
   -2.6358    4.5302   -0.0000 C   0  0  0  0  0  0  0  0  0  0  0  0
   -5.2362    3.0358   -0.0000 C   0  0  0  0  0  0  0  0  0  0  0  0
   -1.3532    5.2833   -0.0000 N   0  0  0  0  0  0  0  0  0  0  0  0
   -3.9419    5.2833   -0.0000 C   0  0  0  0  0  0  0  0  0  0  0  0
   -6.5423    2.2945   -0.0000 N   0  0  0  0  0  0  0  0  0  0  0  0
   -6.5541    0.8119   -0.0000 C   0  0  0  0  0  0  0  0  0  0  0  0
   -7.8484    3.0476   -0.0000 C   0  0  0  0  0  0  0  0  0  0  0  0
   -5.2715    0.0824   -0.0000 S   0  0  0  0  0  0  0  0  0  0  0  0
   -7.8602    0.0824   -0.0000 N   0  0  0  0  0  0  0  0  0  0  0  0
   -9.1545    2.3063   -0.0000 C   0  0  0  0  0  0  0  0  0  0  0  0
   -8.1661    4.5184   -0.0000 C   0  0  0  0  0  0  0  0  0  0  0  0
   -9.1663    0.8354   -0.0000 C   0  0  0  0  0  0  0  0  0  0  0  0
  -10.2724    3.3182   -0.0000 N   0  0  0  0  0  0  0  0  0  0  0  0
   -9.6605    4.6832   -0.0000 C   0  0  0  0  0  0  0  0  0  0  0  0
  -10.4724    0.1059   -0.0000 O   0  0  0  0  0  0  0  0  0  0  0  0
  1  2  1  0  0  0  0
  2  3  2  0  0  0  0
  2  4  1  0  0  0  0
  3  5  1  0  0  0  0
  4  6  2  0  0  0  0
  5  7  2  0  0  0  0
  5  8  1  0  0  0  0
  7  9  1  0  0  0  0
  8 10  1  6  0  0  0
  8 11  1  0  0  0  0
  9 12  1  0  0  0  0
 12 13  1  0  0  0  0
 12 14  1  0  0  0  0
 13 15  2  0  0  0  0
 13 16  1  0  0  0  0
 14 17  2  0  0  0  0
 14 18  1  0  0  0  0
 16 19  1  0  0  0  0
 17 20  1  0  0  0  0
 18 21  2  0  0  0  0
 19 22  2  0  0  0  0
  6  7  1  0  0  0  0
 17 19  1  0  0  0  0
 20 21  1  0  0  0  0
M  END
>  <MolRegNo>
2739649

>  <m>
=

>  <Value>
6000

>  <Unit>
nM

>  <Type>
IC50

>  <pValue>
5.22

>  <Ligand Efficiency>
0

>  <Binding Efficiency>
0

>  <Surface Efficiency>
0

>  <Assay Index>
1557462

>  <Assay Category>


>  <Assay Organism>
Homo sapiens

>  <Target ID>
17045

>  <Target Name>
Cytochrome P450 3A4

>  <Target Organism>
Homo sapiens

>  <Target Description>
Target is a single protein chain

>  <Sequence Accession>
P08684

>  <Reference>
J Med Chem 65 (17.0), 11485-11496 (2022)

>  <Pubmed ID>
36005476

>  <DOI>
10.1021/acs.jmedchem.1c02141

$$$$
2752581
Actelion Java MolfileCreator 1.0

 22 24  0  0  0  0  0  0  0  0999 V2000
    0.0000   -0.0000   -0.0000 Cl  0  0  0  0  0  0  0  0  0  0  0  0
    1.2886    0.7566   -0.0000 C   0  0  0  0  0  0  0  0  0  0  0  0
    2.5772    0.0236   -0.0000 C   0  0  0  0  0  0  0  0  0  0  0  0
    1.2768    2.2580   -0.0000 C   0  0  0  0  0  0  0  0  0  0  0  0
    3.8658    0.7803   -0.0000 C   0  0  0  0  0  0  0  0  0  0  0  0
    2.5654    3.0264   -0.0000 C   0  0  0  0  0  0  0  0  0  0  0  0
    3.8540    2.2935   -0.0000 C   0  0  0  0  0  0  0  0  0  0  0  0
    5.1544    0.0473   -0.0000 C   0  0  0  0  0  0  0  0  0  0  0  0
    5.1426    3.0501   -0.0000 C   0  0  0  0  0  0  0  0  0  0  0  0
    6.4430    0.8039   -0.0000 N   0  0  0  0  0  0  0  0  0  0  0  0
    5.1426   -1.4423   -0.0000 C   0  0  0  0  0  0  0  0  0  0  0  0
    5.1308    4.5633   -0.0000 N   0  0  0  0  0  0  0  0  0  0  0  0
    3.8185    5.3199   -0.0000 C   0  0  0  0  0  0  0  0  0  0  0  0
    6.4194    5.3199   -0.0000 C   0  0  0  0  0  0  0  0  0  0  0  0
    2.5063    4.5869   -0.0000 S   0  0  0  0  0  0  0  0  0  0  0  0
    3.8067    6.8331   -0.0000 N   0  0  0  0  0  0  0  0  0  0  0  0
    7.8262    4.8825   -0.0000 N   0  0  0  0  0  0  0  0  0  0  0  0
    6.4075    6.8331   -0.0000 C   0  0  0  0  0  0  0  0  0  0  0  0
    5.0953    7.6016   -0.0000 C   0  0  0  0  0  0  0  0  0  0  0  0
    8.7128    6.1120   -0.0000 C   0  0  0  0  0  0  0  0  0  0  0  0
    7.8616    7.3060   -0.0000 N   0  0  0  0  0  0  0  0  0  0  0  0
    5.0835    9.1148   -0.0000 O   0  0  0  0  0  0  0  0  0  0  0  0
  1  2  1  0  0  0  0
  2  3  2  0  0  0  0
  2  4  1  0  0  0  0
  3  5  1  0  0  0  0
  4  6  2  0  0  0  0
  5  7  2  0  0  0  0
  5  8  1  0  0  0  0
  7  9  1  0  0  0  0
  8 10  1  1  0  0  0
  8 11  1  0  0  0  0
  9 12  1  0  0  0  0
 12 13  1  0  0  0  0
 12 14  1  0  0  0  0
 13 15  2  0  0  0  0
 13 16  1  0  0  0  0
 14 17  1  0  0  0  0
 14 18  2  0  0  0  0
 16 19  1  0  0  0  0
 17 20  2  0  0  0  0
 18 21  1  0  0  0  0
 19 22  2  0  0  0  0
  6  7  1  0  0  0  0
 18 19  1  0  0  0  0
 20 21  1  0  0  0  0
M  END
>  <MolRegNo>
2752581

>  <m>
=

>  <Value>
8800

>  <Unit>
nM

>  <Type>
IC50

>  <pValue>
5.06

>  <Ligand Efficiency>
0

>  <Binding Efficiency>
0

>  <Surface Efficiency>
0

>  <Assay Index>
1557462

>  <Assay Category>


>  <Assay Organism>
Homo sapiens

>  <Target ID>
17045

>  <Target Name>
Cytochrome P450 3A4

>  <Target Organism>
Homo sapiens

>  <Target Description>
Target is a single protein chain

>  <Sequence Accession>
P08684

>  <Reference>
J Med Chem 65 (17.0), 11485-11496 (2022)

>  <Pubmed ID>
36005476

>  <DOI>
10.1021/acs.jmedchem.1c02141

$$$$
2745118
Actelion Java MolfileCreator 1.0

 31 35  0  0  0  0  0  0  0  0999 V2000
    0.0000   -0.0000   -0.0000 F   0  0  0  0  0  0  0  0  0  0  0  0
   -1.3115    0.7680   -0.0000 C   0  0  0  0  0  0  0  0  0  0  0  0
   -1.3233    2.2803   -0.0000 C   0  0  0  0  0  0  0  0  0  0  0  0
   -2.6229    0.0236   -0.0000 C   0  0  0  0  0  0  0  0  0  0  0  0
   -0.0354    3.0483   -0.0000 C   0  0  0  0  0  0  0  0  0  0  0  0
   -2.6348    3.0483   -0.0000 C   0  0  0  0  0  0  0  0  0  0  0  0
   -3.9344    0.7916   -0.0000 C   0  0  0  0  0  0  0  0  0  0  0  0
    1.2524    2.3039   -0.0000 N   0  0  0  0  0  0  0  0  0  0  0  0
   -0.0473    4.5606   -0.0000 C   0  0  0  0  0  0  0  0  0  0  0  0
   -3.9462    2.3039   -0.0000 C   0  0  0  0  0  0  0  0  0  0  0  0
    2.5402    3.0719   -0.0000 N   0  0  0  0  0  0  0  0  0  0  0  0
    1.2406    5.3286   -0.0000 C   0  0  0  0  0  0  0  0  0  0  0  0
   -5.2577    3.0719   -0.0000 F   0  0  0  0  0  0  0  0  0  0  0  0
    2.5284    4.5842   -0.0000 C   0  0  0  0  0  0  0  0  0  0  0  0
    3.8163    5.3522   -0.0000 N   0  0  0  0  0  0  0  0  0  0  0  0
    5.1041    4.6079   -0.0000 C   0  0  0  0  0  0  0  0  0  0  0  0
    6.3920    5.3759   -0.0000 C   0  0  0  0  0  0  0  0  0  0  0  0
    7.8807    5.3877   -0.0000 C   0  0  0  0  0  0  0  0  0  0  0  0
    7.1245    6.6873   -0.0000 C   0  0  0  0  0  0  0  0  0  0  0  0
    9.1685    6.1557   -0.0000 C   0  0  0  0  0  0  0  0  0  0  0  0
    7.8688    3.8990   -0.0000 C   0  0  0  0  0  0  0  0  0  0  0  0
   10.4563    5.4113   -0.0000 C   0  0  0  0  0  0  0  0  0  0  0  0
    9.1567    3.1664   -0.0000 C   0  0  0  0  0  0  0  0  0  0  0  0
   10.4445    3.9226   -0.0000 N   0  0  0  0  0  0  0  0  0  0  0  0
   11.7324    3.1901   -0.0000 C   0  0  0  0  0  0  0  0  0  0  0  0
   13.0202    3.9462   -0.0000 C   0  0  0  0  0  0  0  0  0  0  0  0
   13.0084    5.4586   -0.0000 C   0  0  0  0  0  0  0  0  0  0  0  0
   14.3080    3.2137   -0.0000 C   0  0  0  0  0  0  0  0  0  0  0  0
   14.2962    6.2265   -0.0000 C   0  0  0  0  0  0  0  0  0  0  0  0
   15.5959    3.9699   -0.0000 C   0  0  0  0  0  0  0  0  0  0  0  0
   15.5841    5.4822   -0.0000 O   0  0  0  0  0  0  0  0  0  0  0  0
  1  2  1  0  0  0  0
  2  3  2  0  0  0  0
  2  4  1  0  0  0  0
  3  5  1  0  0  0  0
  3  6  1  0  0  0  0
  4  7  2  0  0  0  0
  5  8  2  0  0  0  0
  5  9  1  0  0  0  0
  6 10  2  0  0  0  0
  8 11  1  0  0  0  0
  9 12  2  0  0  0  0
 10 13  1  0  0  0  0
 11 14  2  0  0  0  0
 14 15  1  0  0  0  0
 15 16  1  0  0  0  0
 17 16  1  1  0  0  0
 17 18  1  0  0  0  0
 17 19  1  0  0  0  0
 18 20  1  0  0  0  0
 18 21  1  0  0  0  0
 20 22  1  0  0  0  0
 21 23  1  0  0  0  0
 22 24  1  0  0  0  0
 24 25  1  0  0  0  0
 25 26  1  0  0  0  0
 26 27  1  0  0  0  0
 26 28  1  0  0  0  0
 27 29  1  0  0  0  0
 28 30  1  0  0  0  0
 29 31  1  0  0  0  0
  7 10  1  0  0  0  0
 12 14  1  0  0  0  0
 18 19  1  0  0  0  0
 23 24  1  0  0  0  0
 30 31  1  0  0  0  0
M  END
>  <MolRegNo>
2745118

>  <m>
=

>  <Value>
17000

>  <Unit>
nM

>  <Type>
IC50

>  <pValue>
4.77

>  <Ligand Efficiency>
0

>  <Binding Efficiency>
0

>  <Surface Efficiency>
0

>  <Assay Index>
1559960

>  <Assay Category>


>  <Assay Organism>
Homo sapiens

>  <Target ID>
17045

>  <Target Name>
Cytochrome P450 3A4

>  <Target Organism>
Homo sapiens

>  <Target Description>
Target is a single protein chain

>  <Sequence Accession>
P08684

>  <Reference>


>  <Pubmed ID>
34838649

>  <DOI>
10.1016/j.bmcl.2021.128479

$$$$
2779880
Actelion Java MolfileCreator 1.0

 34 38  0  0  0  0  0  0  0  0999 V2000
    0.0000   -0.0000   -0.0000 F   0  0  0  0  0  0  0  0  0  0  0  0
   -1.3120    0.7683   -0.0000 C   0  0  0  0  0  0  0  0  0  0  0  0
   -2.6241    0.0236   -0.0000 C   0  0  0  0  0  0  0  0  0  0  0  0
   -1.3239    2.2813   -0.0000 C   0  0  0  0  0  0  0  0  0  0  0  0
   -2.6359   -1.4657   -0.0000 F   0  0  0  0  0  0  0  0  0  0  0  0
   -3.9361    0.7919   -0.0000 C   0  0  0  0  0  0  0  0  0  0  0  0
   -0.0355    3.0496   -0.0000 C   0  0  0  0  0  0  0  0  0  0  0  0
   -2.6359    3.0496   -0.0000 C   0  0  0  0  0  0  0  0  0  0  0  0
   -3.9479    2.3049   -0.0000 C   0  0  0  0  0  0  0  0  0  0  0  0
    1.2529    2.3049   -0.0000 N   0  0  0  0  0  0  0  0  0  0  0  0
   -0.0473    4.5626   -0.0000 C   0  0  0  0  0  0  0  0  0  0  0  0
   -5.2600    3.0732   -0.0000 F   0  0  0  0  0  0  0  0  0  0  0  0
    2.5413    3.0732   -0.0000 N   0  0  0  0  0  0  0  0  0  0  0  0
    1.2411    5.3309   -0.0000 C   0  0  0  0  0  0  0  0  0  0  0  0
    2.5295    4.5862   -0.0000 C   0  0  0  0  0  0  0  0  0  0  0  0
    3.8179    5.3545   -0.0000 N   0  0  0  0  0  0  0  0  0  0  0  0
    5.1063    4.6098   -0.0000 C   0  0  0  0  0  0  0  0  0  0  0  0
    6.3947    5.3782   -0.0000 C   0  0  0  0  0  0  0  0  0  0  0  0
    7.8840    5.3900   -0.0000 C   0  0  0  0  0  0  0  0  0  0  0  0
    7.1275    6.6902   -0.0000 C   0  0  0  0  0  0  0  0  0  0  0  0
    9.1724    6.1583   -0.0000 C   0  0  0  0  0  0  0  0  0  0  0  0
    7.8722    3.9006   -0.0000 C   0  0  0  0  0  0  0  0  0  0  0  0
   10.4608    5.4136   -0.0000 C   0  0  0  0  0  0  0  0  0  0  0  0
    9.1606    3.1678   -0.0000 C   0  0  0  0  0  0  0  0  0  0  0  0
   10.4490    3.9243   -0.0000 N   0  0  0  0  0  0  0  0  0  0  0  0
   11.7374    3.1914   -0.0000 C   0  0  0  0  0  0  0  0  0  0  0  0
   13.0258    3.9479   -0.0000 C   0  0  0  0  0  0  0  0  0  0  0  0
   10.9691    1.9030   -0.0000 H   0  0  0  0  0  0  0  0  0  0  0  0
   12.4820    1.9030   -0.0000 H   0  0  0  0  0  0  0  0  0  0  0  0
   13.0139    5.4609   -0.0000 C   0  0  0  0  0  0  0  0  0  0  0  0
   14.3142    3.2151   -0.0000 C   0  0  0  0  0  0  0  0  0  0  0  0
   14.3023    6.2292   -0.0000 C   0  0  0  0  0  0  0  0  0  0  0  0
   15.6026    3.9716   -0.0000 C   0  0  0  0  0  0  0  0  0  0  0  0
   15.5907    5.4845   -0.0000 O   0  0  0  0  0  0  0  0  0  0  0  0
  1  2  1  0  0  0  0
  2  3  2  0  0  0  0
  2  4  1  0  0  0  0
  3  5  1  0  0  0  0
  3  6  1  0  0  0  0
  4  7  1  0  0  0  0
  4  8  2  0  0  0  0
  6  9  2  0  0  0  0
  7 10  2  0  0  0  0
  7 11  1  0  0  0  0
  9 12  1  0  0  0  0
 10 13  1  0  0  0  0
 11 14  2  0  0  0  0
 13 15  2  0  0  0  0
 15 16  1  0  0  0  0
 16 17  1  0  0  0  0
 18 17  1  1  0  0  0
 18 19  1  0  0  0  0
 18 20  1  0  0  0  0
 19 21  1  0  0  0  0
 19 22  1  0  0  0  0
 21 23  1  0  0  0  0
 22 24  1  0  0  0  0
 23 25  1  0  0  0  0
 25 26  1  0  0  0  0
 26 27  1  0  0  0  0
 26 28  1  0  0  0  0
 26 29  1  0  0  0  0
 27 30  1  0  0  0  0
 27 31  1  0  0  0  0
 30 32  1  0  0  0  0
 31 33  1  0  0  0  0
 32 34  1  0  0  0  0
  8  9  1  0  0  0  0
 14 15  1  0  0  0  0
 19 20  1  0  0  0  0
 24 25  1  0  0  0  0
 33 34  1  0  0  0  0
M  ISO  2  28   2  29   2
M  END
>  <MolRegNo>
2779880

>  <m>
=

>  <Value>
27600

>  <Unit>
nM

>  <Type>
IC50

>  <pValue>
4.56

>  <Ligand Efficiency>
0

>  <Binding Efficiency>
0

>  <Surface Efficiency>
0

>  <Assay Index>
1559960

>  <Assay Category>


>  <Assay Organism>
Homo sapiens

>  <Target ID>
17045

>  <Target Name>
Cytochrome P450 3A4

>  <Target Organism>
Homo sapiens

>  <Target Description>
Target is a single protein chain

>  <Sequence Accession>
P08684

>  <Reference>


>  <Pubmed ID>
34838649

>  <DOI>
10.1016/j.bmcl.2021.128479

$$$$
2085856
Actelion Java MolfileCreator 1.0

 49 53  0  0  0  0  0  0  0  0999 V2000
   11.4673    3.9954   -0.0000 S   0  0  0  0  0  0  0  0  0  0  0  0
   10.7173    2.6963   -0.0000 C   0  0  0  0  0  0  0  0  0  0  0  0
   10.4636    5.1101   -0.0000 C   0  0  0  0  0  0  0  0  0  0  0  0
    9.2501    3.0082   -0.0000 C   0  0  0  0  0  0  0  0  0  0  0  0
   11.3274    1.3260   -0.0000 C   0  0  0  0  0  0  0  0  0  0  0  0
    9.0933    4.5000   -0.0000 C   0  0  0  0  0  0  0  0  0  0  0  0
    9.9571    0.7159   -0.0000 F   0  0  0  0  0  0  0  0  0  0  0  0
   11.9375   -0.0443   -0.0000 F   0  0  0  0  0  0  0  0  0  0  0  0
   12.6977    1.9361   -0.0000 F   0  0  0  0  0  0  0  0  0  0  0  0
    7.7942    5.2500   -0.0000 O   0  0  0  0  0  0  0  0  0  0  0  0
    7.7942    6.7500   -0.0000 C   0  0  0  0  0  0  0  0  0  0  0  0
    6.4952    6.0000   -0.0000 C   0  0  0  0  0  0  0  0  0  0  0  0
    9.0933    7.5000   -0.0000 C   0  0  0  0  0  0  0  0  0  0  0  0
    6.4952    7.5000   -0.0000 C   0  0  0  0  0  0  0  0  0  0  0  0
    5.1962    6.7500   -0.0000 O   0  0  0  0  0  0  0  0  0  0  0  0
    6.4952    4.5000   -0.0000 N   0  0  0  0  0  0  0  0  0  0  0  0
    9.0933    9.0000   -0.0000 N   0  0  0  0  0  0  0  0  0  0  0  0
   10.3923    6.7500   -0.0000 C   0  0  0  0  0  0  0  0  0  0  0  0
    6.4952    9.0000   -0.0000 C   0  0  0  0  0  0  0  0  0  0  0  0
    5.1962    3.7500   -0.0000 C   0  0  0  0  0  0  0  0  0  0  0  0
    7.7942    3.7500   -0.0000 C   0  0  0  0  0  0  0  0  0  0  0  0
   10.3923    9.7500   -0.0000 C   0  0  0  0  0  0  0  0  0  0  0  0
    7.7942    9.7500   -0.0000 C   0  0  0  0  0  0  0  0  0  0  0  0
   11.6913    7.5000   -0.0000 C   0  0  0  0  0  0  0  0  0  0  0  0
    5.1962    2.2500   -0.0000 C   0  0  0  0  0  0  0  0  0  0  0  0
    7.7942    2.2500   -0.0000 C   0  0  0  0  0  0  0  0  0  0  0  0
   11.6913    9.0000   -0.0000 O   0  0  0  0  0  0  0  0  0  0  0  0
   10.3923   11.2500   -0.0000 C   0  0  0  0  0  0  0  0  0  0  0  0
   12.9904    6.7500   -0.0000 C   0  0  0  0  0  0  0  0  0  0  0  0
    6.4952    1.5000   -0.0000 N   0  0  0  0  0  0  0  0  0  0  0  0
   11.6913   12.0000   -0.0000 C   0  0  0  0  0  0  0  0  0  0  0  0
    9.0933   12.0000   -0.0000 C   0  0  0  0  0  0  0  0  0  0  0  0
    6.4952   -0.0000   -0.0000 C   0  0  0  0  0  0  0  0  0  0  0  0
   11.6913   13.5000   -0.0000 C   0  0  0  0  0  0  0  0  0  0  0  0
   12.9904   11.2500   -0.0000 C   0  0  0  0  0  0  0  0  0  0  0  0
    9.0933   13.5000   -0.0000 N   0  0  0  0  0  0  0  0  0  0  0  0
    5.1962   -0.7500   -0.0000 C   0  0  0  0  0  0  0  0  0  0  0  0
    7.7942   -0.7500   -0.0000 C   0  0  0  0  0  0  0  0  0  0  0  0
   10.3923   14.2500   -0.0000 C   0  0  0  0  0  0  0  0  0  0  0  0
   13.7404   12.5490   -0.0000 F   0  0  0  0  0  0  0  0  0  0  0  0
   14.2894   10.5000   -0.0000 F   0  0  0  0  0  0  0  0  0  0  0  0
   12.2404    9.9510   -0.0000 F   0  0  0  0  0  0  0  0  0  0  0  0
    3.8971   -0.0000   -0.0000 O   0  0  0  0  0  0  0  0  0  0  0  0
    5.1962   -2.2500   -0.0000 C   0  0  0  0  0  0  0  0  0  0  0  0
    7.7942   -2.2500   -0.0000 C   0  0  0  0  0  0  0  0  0  0  0  0
    2.5981   -0.7500   -0.0000 C   0  0  0  0  0  0  0  0  0  0  0  0
    6.4952   -3.0000   -0.0000 C   0  0  0  0  0  0  0  0  0  0  0  0
    1.2990   -0.0000   -0.0000 C   0  0  0  0  0  0  0  0  0  0  0  0
    0.0000   -0.7500   -0.0000 O   0  0  0  0  0  0  0  0  0  0  0  0
  1  2  1  0  0  0  0
  1  3  1  0  0  0  0
  2  4  2  0  0  0  0
  2  5  1  0  0  0  0
  3  6  2  0  0  0  0
  5  7  1  0  0  0  0
  5  8  1  0  0  0  0
  5  9  1  0  0  0  0
  6 10  1  0  0  0  0
 10 11  1  0  0  0  0
 11 12  1  6  0  0  0
 11 13  1  0  0  0  0
 11 14  1  0  0  0  0
 12 15  2  0  0  0  0
 12 16  1  0  0  0  0
 13 17  1  0  0  0  0
 13 18  1  1  0  0  0
 14 19  1  0  0  0  0
 16 20  1  0  0  0  0
 16 21  1  0  0  0  0
 17 22  1  0  0  0  0
 17 23  1  0  0  0  0
 18 24  1  0  0  0  0
 20 25  1  0  0  0  0
 21 26  1  0  0  0  0
 22 27  2  0  0  0  0
 22 28  1  0  0  0  0
 24 29  1  0  0  0  0
 25 30  1  0  0  0  0
 28 31  2  0  0  0  0
 28 32  1  0  0  0  0
 30 33  1  0  0  0  0
 31 34  1  0  0  0  0
 31 35  1  0  0  0  0
 32 36  2  0  0  0  0
 33 37  2  0  0  0  0
 33 38  1  0  0  0  0
 34 39  2  0  0  0  0
 35 40  1  0  0  0  0
 35 41  1  0  0  0  0
 35 42  1  0  0  0  0
 37 43  1  0  0  0  0
 37 44  1  0  0  0  0
 38 45  2  0  0  0  0
 43 46  1  0  0  0  0
 44 47  2  0  0  0  0
 46 48  1  0  0  0  0
 48 49  1  0  0  0  0
  4  6  1  0  0  0  0
 19 23  1  0  0  0  0
 26 30  1  0  0  0  0
 36 39  1  0  0  0  0
 45 47  1  0  0  0  0
M  END
>  <MolRegNo>
2085856

>  <m>
=

>  <Value>
6600

>  <Unit>
nM

>  <Type>
IC50

>  <pValue>
5.18

>  <Ligand Efficiency>
0

>  <Binding Efficiency>
0

>  <Surface Efficiency>
0

>  <Assay Index>
1561885

>  <Assay Category>


>  <Assay Organism>
Homo sapiens

>  <Target ID>
17045

>  <Target Name>
Cytochrome P450 3A4

>  <Target Organism>
Homo sapiens

>  <Target Description>
Target is a single protein chain

>  <Sequence Accession>
P08684

>  <Reference>


>  <Pubmed ID>
35158044

>  <DOI>
10.1016/j.bmcl.2022.128625

$$$$
2749164
Actelion Java MolfileCreator 1.0

 53 57  0  0  0  0  0  0  0  0999 V2000
    0.0000   -0.0000   -0.0000 S   0  0  0  0  0  0  0  0  0  0  0  0
   -0.0118    1.5132   -0.0000 C   0  0  0  0  0  0  0  0  0  0  0  0
    1.4068   -0.4492   -0.0000 C   0  0  0  0  0  0  0  0  0  0  0  0
    1.4068    1.9861   -0.0000 C   0  0  0  0  0  0  0  0  0  0  0  0
   -1.3240    2.2698   -0.0000 C   0  0  0  0  0  0  0  0  0  0  0  0
    2.2816    0.7802   -0.0000 C   0  0  0  0  0  0  0  0  0  0  0  0
   -2.6363    1.5368   -0.0000 F   0  0  0  0  0  0  0  0  0  0  0  0
   -1.3359    3.7830   -0.0000 F   0  0  0  0  0  0  0  0  0  0  0  0
   -2.6363    3.0264   -0.0000 F   0  0  0  0  0  0  0  0  0  0  0  0
    3.7711    0.7921   -0.0000 O   0  0  0  0  0  0  0  0  0  0  0  0
    4.5041   -0.4965   -0.0000 C   0  0  0  0  0  0  0  0  0  0  0  0
    5.2489    0.8157   -0.0000 C   0  0  0  0  0  0  0  0  0  0  0  0
    5.7927   -1.2295   -0.0000 C   0  0  0  0  0  0  0  0  0  0  0  0
    3.1919   -1.2295   -0.0000 C   0  0  0  0  0  0  0  0  0  0  0  0
    6.7384    0.8275   -0.0000 O   0  0  0  0  0  0  0  0  0  0  0  0
    4.4923    2.1279   -0.0000 N   0  0  0  0  0  0  0  0  0  0  0  0
    5.7808   -2.7190   -0.0000 N   0  0  0  0  0  0  0  0  0  0  0  0
    7.0812   -0.4729   -0.0000 C   0  0  0  0  0  0  0  0  0  0  0  0
    3.1801   -2.7190   -0.0000 C   0  0  0  0  0  0  0  0  0  0  0  0
    2.9791    2.1397   -0.0000 C   0  0  0  0  0  0  0  0  0  0  0  0
    5.2252    3.4401   -0.0000 C   0  0  0  0  0  0  0  0  0  0  0  0
    7.0694   -3.4520   -0.0000 C   0  0  0  0  0  0  0  0  0  0  0  0
    4.4686   -3.4638   -0.0000 C   0  0  0  0  0  0  0  0  0  0  0  0
    8.3698   -1.2058   -0.0000 C   0  0  0  0  0  0  0  0  0  0  0  0
    2.2225    3.4520   -0.0000 C   0  0  0  0  0  0  0  0  0  0  0  0
    4.4686    4.7523   -0.0000 C   0  0  0  0  0  0  0  0  0  0  0  0
    8.3580   -2.6954   -0.0000 O   0  0  0  0  0  0  0  0  0  0  0  0
    7.0576   -4.9415   -0.0000 C   0  0  0  0  0  0  0  0  0  0  0  0
    9.6584   -0.4492   -0.0000 C   0  0  0  0  0  0  0  0  0  0  0  0
    2.9554    4.7642   -0.0000 N   0  0  0  0  0  0  0  0  0  0  0  0
    5.7454   -5.6863   -0.0000 C   0  0  0  0  0  0  0  0  0  0  0  0
    8.3462   -5.6863   -0.0000 C   0  0  0  0  0  0  0  0  0  0  0  0
    2.1988    6.0764   -0.0000 C   0  0  0  0  0  0  0  0  0  0  0  0
    4.4332   -4.9297   -0.0000 O   0  0  0  0  0  0  0  0  0  0  0  0
    5.7336   -7.1758   -0.0000 N   0  0  0  0  0  0  0  0  0  0  0  0
    8.3343   -7.1758   -0.0000 C   0  0  0  0  0  0  0  0  0  0  0  0
    9.6347   -4.9297   -0.0000 C   0  0  0  0  0  0  0  0  0  0  0  0
    2.9436    7.3886   -0.0000 C   0  0  0  0  0  0  0  0  0  0  0  0
    0.6857    6.0882   -0.0000 C   0  0  0  0  0  0  0  0  0  0  0  0
    3.1209   -5.6626   -0.0000 C   0  0  0  0  0  0  0  0  0  0  0  0
    7.0221   -7.9088   -0.0000 C   0  0  0  0  0  0  0  0  0  0  0  0
    9.6229   -3.4165   -0.0000 F   0  0  0  0  0  0  0  0  0  0  0  0
   10.9233   -5.6626   -0.0000 F   0  0  0  0  0  0  0  0  0  0  0  0
   10.9233   -4.1731   -0.0000 F   0  0  0  0  0  0  0  0  0  0  0  0
    4.4332    7.4004   -0.0000 O   0  0  0  0  0  0  0  0  0  0  0  0
    2.1752    8.7008   -0.0000 C   0  0  0  0  0  0  0  0  0  0  0  0
   -0.0709    7.4004   -0.0000 C   0  0  0  0  0  0  0  0  0  0  0  0
    3.1091   -7.1522   -0.0000 C   0  0  0  0  0  0  0  0  0  0  0  0
    5.1661    8.7126   -0.0000 C   0  0  0  0  0  0  0  0  0  0  0  0
    0.6738    8.7126   -0.0000 C   0  0  0  0  0  0  0  0  0  0  0  0
    1.7969   -7.8851   -0.0000 C   0  0  0  0  0  0  0  0  0  0  0  0
    6.6557    8.7245   -0.0000 C   0  0  0  0  0  0  0  0  0  0  0  0
    7.3886   10.0367   -0.0000 O   0  0  0  0  0  0  0  0  0  0  0  0
  1  2  1  0  0  0  0
  1  3  1  0  0  0  0
  2  4  2  0  0  0  0
  2  5  1  0  0  0  0
  3  6  2  0  0  0  0
  5  7  1  0  0  0  0
  5  8  1  0  0  0  0
  5  9  1  0  0  0  0
  6 10  1  0  0  0  0
 11 10  1  6  0  0  0
 11 12  1  0  0  0  0
 11 13  1  0  0  0  0
 11 14  1  0  0  0  0
 12 15  2  0  0  0  0
 12 16  1  0  0  0  0
 13 17  1  0  0  0  0
 13 18  1  1  0  0  0
 14 19  1  0  0  0  0
 16 20  1  0  0  0  0
 16 21  1  0  0  0  0
 17 22  1  0  0  0  0
 17 23  1  0  0  0  0
 18 24  1  0  0  0  0
 20 25  1  0  0  0  0
 21 26  1  0  0  0  0
 22 27  2  0  0  0  0
 22 28  1  0  0  0  0
 24 29  1  0  0  0  0
 25 30  1  0  0  0  0
 28 31  2  0  0  0  0
 28 32  1  0  0  0  0
 30 33  1  0  0  0  0
 31 34  1  0  0  0  0
 31 35  1  0  0  0  0
 32 36  2  0  0  0  0
 32 37  1  0  0  0  0
 33 38  2  0  0  0  0
 33 39  1  0  0  0  0
 34 40  1  0  0  0  0
 35 41  2  0  0  0  0
 37 42  1  0  0  0  0
 37 43  1  0  0  0  0
 37 44  1  0  0  0  0
 38 45  1  0  0  0  0
 38 46  1  0  0  0  0
 39 47  2  0  0  0  0
 40 48  1  0  0  0  0
 45 49  1  0  0  0  0
 46 50  2  0  0  0  0
 48 51  2  0  0  0  0
 49 52  1  0  0  0  0
 52 53  1  0  0  0  0
  4  6  1  0  0  0  0
 19 23  1  0  0  0  0
 26 30  1  0  0  0  0
 36 41  1  0  0  0  0
 47 50  1  0  0  0  0
M  END
>  <MolRegNo>
2749164

>  <m>
=

>  <Value>
50000

>  <Unit>
nM

>  <Type>
IC50

>  <pValue>
4.3

>  <Ligand Efficiency>
0

>  <Binding Efficiency>
0

>  <Surface Efficiency>
0

>  <Assay Index>
1561885

>  <Assay Category>


>  <Assay Organism>
Homo sapiens

>  <Target ID>
17045

>  <Target Name>
Cytochrome P450 3A4

>  <Target Organism>
Homo sapiens

>  <Target Description>
Target is a single protein chain

>  <Sequence Accession>
P08684

>  <Reference>


>  <Pubmed ID>
35158044

>  <DOI>
10.1016/j.bmcl.2022.128625

$$$$
2762665
Actelion Java MolfileCreator 1.0

 46 50  0  0  0  0  0  0  0  0999 V2000
    0.0000   -0.0000   -0.0000 S   0  0  0  0  0  0  0  0  0  0  0  0
   -0.0118    1.5128   -0.0000 C   0  0  0  0  0  0  0  0  0  0  0  0
    1.4065   -0.4491   -0.0000 C   0  0  0  0  0  0  0  0  0  0  0  0
    1.4065    1.9856   -0.0000 C   0  0  0  0  0  0  0  0  0  0  0  0
   -1.3237    2.2693   -0.0000 C   0  0  0  0  0  0  0  0  0  0  0  0
    2.2811    0.7801   -0.0000 C   0  0  0  0  0  0  0  0  0  0  0  0
   -2.6356    1.5365   -0.0000 F   0  0  0  0  0  0  0  0  0  0  0  0
   -1.3355    3.7821   -0.0000 F   0  0  0  0  0  0  0  0  0  0  0  0
   -2.6356    3.0257   -0.0000 F   0  0  0  0  0  0  0  0  0  0  0  0
    3.7703    0.7919   -0.0000 O   0  0  0  0  0  0  0  0  0  0  0  0
    4.5030   -0.4964   -0.0000 C   0  0  0  0  0  0  0  0  0  0  0  0
    5.2476    0.8155   -0.0000 C   0  0  0  0  0  0  0  0  0  0  0  0
    5.7913   -1.2410   -0.0000 C   0  0  0  0  0  0  0  0  0  0  0  0
    3.1911   -1.2410   -0.0000 C   0  0  0  0  0  0  0  0  0  0  0  0
    6.7368    0.8273   -0.0000 O   0  0  0  0  0  0  0  0  0  0  0  0
    4.4912    2.1274   -0.0000 N   0  0  0  0  0  0  0  0  0  0  0  0
    5.7795   -2.7302   -0.0000 N   0  0  0  0  0  0  0  0  0  0  0  0
    7.0796   -0.4846   -0.0000 C   0  0  0  0  0  0  0  0  0  0  0  0
    3.1793   -2.7302   -0.0000 C   0  0  0  0  0  0  0  0  0  0  0  0
    2.9784    2.1392   -0.0000 C   0  0  0  0  0  0  0  0  0  0  0  0
    5.2240    3.4393   -0.0000 C   0  0  0  0  0  0  0  0  0  0  0  0
    7.0678   -3.4630   -0.0000 C   0  0  0  0  0  0  0  0  0  0  0  0
    4.4676   -3.4748   -0.0000 C   0  0  0  0  0  0  0  0  0  0  0  0
    8.3679   -1.2174   -0.0000 C   0  0  0  0  0  0  0  0  0  0  0  0
    2.2220    3.4512   -0.0000 C   0  0  0  0  0  0  0  0  0  0  0  0
    4.4676    4.7512   -0.0000 C   0  0  0  0  0  0  0  0  0  0  0  0
    8.3561   -2.7066   -0.0000 O   0  0  0  0  0  0  0  0  0  0  0  0
    7.0560   -4.9522   -0.0000 C   0  0  0  0  0  0  0  0  0  0  0  0
    9.6561   -0.4609   -0.0000 C   0  0  0  0  0  0  0  0  0  0  0  0
    2.9548    4.7631   -0.0000 N   0  0  0  0  0  0  0  0  0  0  0  0
    8.3442   -5.6968   -0.0000 C   0  0  0  0  0  0  0  0  0  0  0  0
    5.7440   -5.6968   -0.0000 C   0  0  0  0  0  0  0  0  0  0  0  0
    2.1983    6.0750   -0.0000 C   0  0  0  0  0  0  0  0  0  0  0  0
    8.3324   -7.1860   -0.0000 C   0  0  0  0  0  0  0  0  0  0  0  0
    9.6325   -4.9285   -0.0000 C   0  0  0  0  0  0  0  0  0  0  0  0
    5.7322   -7.1860   -0.0000 N   0  0  0  0  0  0  0  0  0  0  0  0
    2.9429    7.3869   -0.0000 C   0  0  0  0  0  0  0  0  0  0  0  0
    0.6855    6.0868   -0.0000 C   0  0  0  0  0  0  0  0  0  0  0  0
    7.0205   -7.9187   -0.0000 C   0  0  0  0  0  0  0  0  0  0  0  0
    4.4321    7.3987   -0.0000 O   0  0  0  0  0  0  0  0  0  0  0  0
    2.1747    8.6988   -0.0000 C   0  0  0  0  0  0  0  0  0  0  0  0
   -0.0709    7.3987   -0.0000 C   0  0  0  0  0  0  0  0  0  0  0  0
    5.1649    8.7106   -0.0000 C   0  0  0  0  0  0  0  0  0  0  0  0
    0.6737    8.7106   -0.0000 C   0  0  0  0  0  0  0  0  0  0  0  0
    6.6541    8.7224   -0.0000 C   0  0  0  0  0  0  0  0  0  0  0  0
    7.3869   10.0344   -0.0000 O   0  0  0  0  0  0  0  0  0  0  0  0
  1  2  1  0  0  0  0
  1  3  1  0  0  0  0
  2  4  2  0  0  0  0
  2  5  1  0  0  0  0
  3  6  2  0  0  0  0
  5  7  1  0  0  0  0
  5  8  1  0  0  0  0
  5  9  1  0  0  0  0
  6 10  1  0  0  0  0
 11 10  1  6  0  0  0
 11 12  1  0  0  0  0
 11 13  1  0  0  0  0
 11 14  1  0  0  0  0
 12 15  2  0  0  0  0
 12 16  1  0  0  0  0
 13 17  1  0  0  0  0
 13 18  1  1  0  0  0
 14 19  1  0  0  0  0
 16 20  1  0  0  0  0
 16 21  1  0  0  0  0
 17 22  1  0  0  0  0
 17 23  1  0  0  0  0
 18 24  1  0  0  0  0
 20 25  1  0  0  0  0
 21 26  1  0  0  0  0
 22 27  2  0  0  0  0
 22 28  1  0  0  0  0
 24 29  1  0  0  0  0
 25 30  1  0  0  0  0
 28 31  2  0  0  0  0
 28 32  1  0  0  0  0
 30 33  1  0  0  0  0
 31 34  1  0  0  0  0
 31 35  1  0  0  0  0
 32 36  2  0  0  0  0
 33 37  2  0  0  0  0
 33 38  1  0  0  0  0
 34 39  2  0  0  0  0
 37 40  1  0  0  0  0
 37 41  1  0  0  0  0
 38 42  2  0  0  0  0
 40 43  1  0  0  0  0
 41 44  2  0  0  0  0
 43 45  1  0  0  0  0
 45 46  1  0  0  0  0
  4  6  1  0  0  0  0
 19 23  1  0  0  0  0
 26 30  1  0  0  0  0
 36 39  1  0  0  0  0
 42 44  1  0  0  0  0
M  END
>  <MolRegNo>
2762665

>  <m>
=

>  <Value>
6900

>  <Unit>
nM

>  <Type>
IC50

>  <pValue>
5.16

>  <Ligand Efficiency>
0

>  <Binding Efficiency>
0

>  <Surface Efficiency>
0

>  <Assay Index>
1561885

>  <Assay Category>


>  <Assay Organism>
Homo sapiens

>  <Target ID>
17045

>  <Target Name>
Cytochrome P450 3A4

>  <Target Organism>
Homo sapiens

>  <Target Description>
Target is a single protein chain

>  <Sequence Accession>
P08684

>  <Reference>


>  <Pubmed ID>
35158044

>  <DOI>
10.1016/j.bmcl.2022.128625

$$$$
2774920
Actelion Java MolfileCreator 1.0

 49 53  0  0  0  0  0  0  0  0999 V2000
    0.0000   -0.0000   -0.0000 S   0  0  0  0  0  0  0  0  0  0  0  0
   -0.0118    1.5132   -0.0000 C   0  0  0  0  0  0  0  0  0  0  0  0
    1.4068   -0.4492   -0.0000 C   0  0  0  0  0  0  0  0  0  0  0  0
    1.4068    1.9860   -0.0000 C   0  0  0  0  0  0  0  0  0  0  0  0
   -1.3240    2.2697   -0.0000 C   0  0  0  0  0  0  0  0  0  0  0  0
    2.2816    0.7802   -0.0000 C   0  0  0  0  0  0  0  0  0  0  0  0
   -2.6362    1.5368   -0.0000 F   0  0  0  0  0  0  0  0  0  0  0  0
   -1.3358    3.7829   -0.0000 F   0  0  0  0  0  0  0  0  0  0  0  0
   -2.6362    3.0263   -0.0000 F   0  0  0  0  0  0  0  0  0  0  0  0
    3.7711    0.7920   -0.0000 O   0  0  0  0  0  0  0  0  0  0  0  0
    4.5040   -0.4965   -0.0000 C   0  0  0  0  0  0  0  0  0  0  0  0
    5.2488    0.8157   -0.0000 C   0  0  0  0  0  0  0  0  0  0  0  0
    5.7926   -1.2413   -0.0000 C   0  0  0  0  0  0  0  0  0  0  0  0
    3.1918   -1.2413   -0.0000 C   0  0  0  0  0  0  0  0  0  0  0  0
    6.7383    0.8275   -0.0000 O   0  0  0  0  0  0  0  0  0  0  0  0
    4.4922    2.1279   -0.0000 N   0  0  0  0  0  0  0  0  0  0  0  0
    5.7807   -2.7308   -0.0000 N   0  0  0  0  0  0  0  0  0  0  0  0
    7.0811   -0.4847   -0.0000 C   0  0  0  0  0  0  0  0  0  0  0  0
    3.1800   -2.7308   -0.0000 C   0  0  0  0  0  0  0  0  0  0  0  0
    2.9790    2.1397   -0.0000 C   0  0  0  0  0  0  0  0  0  0  0  0
    5.2251    3.4401   -0.0000 C   0  0  0  0  0  0  0  0  0  0  0  0
    7.0693   -3.4637   -0.0000 C   0  0  0  0  0  0  0  0  0  0  0  0
    4.4686   -3.4755   -0.0000 C   0  0  0  0  0  0  0  0  0  0  0  0
    8.3697   -1.2176   -0.0000 C   0  0  0  0  0  0  0  0  0  0  0  0
    2.2225    3.4519   -0.0000 C   0  0  0  0  0  0  0  0  0  0  0  0
    4.4686    4.7523   -0.0000 C   0  0  0  0  0  0  0  0  0  0  0  0
    8.3579   -2.7071   -0.0000 O   0  0  0  0  0  0  0  0  0  0  0  0
    7.0575   -4.9532   -0.0000 C   0  0  0  0  0  0  0  0  0  0  0  0
    9.6582   -0.4610   -0.0000 C   0  0  0  0  0  0  0  0  0  0  0  0
    2.9554    4.7641   -0.0000 N   0  0  0  0  0  0  0  0  0  0  0  0
    5.7453   -5.6980   -0.0000 N   0  0  0  0  0  0  0  0  0  0  0  0
    8.3460   -5.6980   -0.0000 C   0  0  0  0  0  0  0  0  0  0  0  0
    2.1988    6.0763   -0.0000 C   0  0  0  0  0  0  0  0  0  0  0  0
    5.7335   -7.1875   -0.0000 C   0  0  0  0  0  0  0  0  0  0  0  0
    8.3342   -7.1875   -0.0000 C   0  0  0  0  0  0  0  0  0  0  0  0
    9.6346   -4.9414   -0.0000 C   0  0  0  0  0  0  0  0  0  0  0  0
    2.9436    7.3885   -0.0000 C   0  0  0  0  0  0  0  0  0  0  0  0
    0.6857    6.0881   -0.0000 C   0  0  0  0  0  0  0  0  0  0  0  0
    7.0220   -7.9205   -0.0000 C   0  0  0  0  0  0  0  0  0  0  0  0
    9.6228   -3.4283   -0.0000 F   0  0  0  0  0  0  0  0  0  0  0  0
   10.9231   -5.6744   -0.0000 F   0  0  0  0  0  0  0  0  0  0  0  0
   10.9231   -4.1848   -0.0000 F   0  0  0  0  0  0  0  0  0  0  0  0
    4.4331    7.4003   -0.0000 O   0  0  0  0  0  0  0  0  0  0  0  0
    2.1752    8.7007   -0.0000 C   0  0  0  0  0  0  0  0  0  0  0  0
   -0.0709    7.4003   -0.0000 C   0  0  0  0  0  0  0  0  0  0  0  0
    5.1660    8.7125   -0.0000 C   0  0  0  0  0  0  0  0  0  0  0  0
    0.6738    8.7125   -0.0000 C   0  0  0  0  0  0  0  0  0  0  0  0
    6.6555    8.7243   -0.0000 C   0  0  0  0  0  0  0  0  0  0  0  0
    7.3885   10.0365   -0.0000 O   0  0  0  0  0  0  0  0  0  0  0  0
  1  2  1  0  0  0  0
  1  3  1  0  0  0  0
  2  4  2  0  0  0  0
  2  5  1  0  0  0  0
  3  6  2  0  0  0  0
  5  7  1  0  0  0  0
  5  8  1  0  0  0  0
  5  9  1  0  0  0  0
  6 10  1  0  0  0  0
 11 10  1  6  0  0  0
 11 12  1  0  0  0  0
 11 13  1  0  0  0  0
 11 14  1  0  0  0  0
 12 15  2  0  0  0  0
 12 16  1  0  0  0  0
 13 17  1  0  0  0  0
 13 18  1  1  0  0  0
 14 19  1  0  0  0  0
 16 20  1  0  0  0  0
 16 21  1  0  0  0  0
 17 22  1  0  0  0  0
 17 23  1  0  0  0  0
 18 24  1  0  0  0  0
 20 25  1  0  0  0  0
 21 26  1  0  0  0  0
 22 27  2  0  0  0  0
 22 28  1  0  0  0  0
 24 29  1  0  0  0  0
 25 30  1  0  0  0  0
 28 31  2  0  0  0  0
 28 32  1  0  0  0  0
 30 33  1  0  0  0  0
 31 34  1  0  0  0  0
 32 35  2  0  0  0  0
 32 36  1  0  0  0  0
 33 37  2  0  0  0  0
 33 38  1  0  0  0  0
 34 39  2  0  0  0  0
 36 40  1  0  0  0  0
 36 41  1  0  0  0  0
 36 42  1  0  0  0  0
 37 43  1  0  0  0  0
 37 44  1  0  0  0  0
 38 45  2  0  0  0  0
 43 46  1  0  0  0  0
 44 47  2  0  0  0  0
 46 48  1  0  0  0  0
 48 49  1  0  0  0  0
  4  6  1  0  0  0  0
 19 23  1  0  0  0  0
 26 30  1  0  0  0  0
 35 39  1  0  0  0  0
 45 47  1  0  0  0  0
M  END
>  <MolRegNo>
2774920

>  <m>
=

>  <Value>
35100

>  <Unit>
nM

>  <Type>
IC50

>  <pValue>
4.46

>  <Ligand Efficiency>
0

>  <Binding Efficiency>
0

>  <Surface Efficiency>
0

>  <Assay Index>
1561885

>  <Assay Category>


>  <Assay Organism>
Homo sapiens

>  <Target ID>
17045

>  <Target Name>
Cytochrome P450 3A4

>  <Target Organism>
Homo sapiens

>  <Target Description>
Target is a single protein chain

>  <Sequence Accession>
P08684

>  <Reference>


>  <Pubmed ID>
35158044

>  <DOI>
10.1016/j.bmcl.2022.128625

$$$$
2752757
Actelion Java MolfileCreator 1.0

 50 54  0  0  0  0  0  0  0  0999 V2000
    0.0000   -0.0000   -0.0000 S   0  0  0  0  0  0  0  0  0  0  0  0
   -0.0118    1.5133   -0.0000 C   0  0  0  0  0  0  0  0  0  0  0  0
    1.4069   -0.4493   -0.0000 C   0  0  0  0  0  0  0  0  0  0  0  0
    1.4069    1.9862   -0.0000 C   0  0  0  0  0  0  0  0  0  0  0  0
   -1.3242    2.2700   -0.0000 C   0  0  0  0  0  0  0  0  0  0  0  0
    2.2818    0.7803   -0.0000 C   0  0  0  0  0  0  0  0  0  0  0  0
   -2.6365    1.5370   -0.0000 F   0  0  0  0  0  0  0  0  0  0  0  0
   -1.3360    3.7833   -0.0000 F   0  0  0  0  0  0  0  0  0  0  0  0
   -2.6365    3.0266   -0.0000 F   0  0  0  0  0  0  0  0  0  0  0  0
    3.7715    0.7921   -0.0000 O   0  0  0  0  0  0  0  0  0  0  0  0
    4.5045   -0.4966   -0.0000 C   0  0  0  0  0  0  0  0  0  0  0  0
    5.2493    0.8158   -0.0000 C   0  0  0  0  0  0  0  0  0  0  0  0
    5.7932   -1.2296   -0.0000 C   0  0  0  0  0  0  0  0  0  0  0  0
    3.1922   -1.2296   -0.0000 C   0  0  0  0  0  0  0  0  0  0  0  0
    6.7390    0.8276   -0.0000 O   0  0  0  0  0  0  0  0  0  0  0  0
    4.4927    2.1281   -0.0000 N   0  0  0  0  0  0  0  0  0  0  0  0
    5.7814   -2.7193   -0.0000 N   0  0  0  0  0  0  0  0  0  0  0  0
    7.0819   -0.4729   -0.0000 C   0  0  0  0  0  0  0  0  0  0  0  0
    3.1803   -2.7193   -0.0000 C   0  0  0  0  0  0  0  0  0  0  0  0
    2.9794    2.1399   -0.0000 C   0  0  0  0  0  0  0  0  0  0  0  0
    5.2257    3.4404   -0.0000 C   0  0  0  0  0  0  0  0  0  0  0  0
    7.0701   -3.4523   -0.0000 C   0  0  0  0  0  0  0  0  0  0  0  0
    4.4690   -3.4523   -0.0000 C   0  0  0  0  0  0  0  0  0  0  0  0
    8.3706   -1.2059   -0.0000 C   0  0  0  0  0  0  0  0  0  0  0  0
    2.2227    3.4523   -0.0000 C   0  0  0  0  0  0  0  0  0  0  0  0
    4.4690    4.7528   -0.0000 C   0  0  0  0  0  0  0  0  0  0  0  0
    8.3587   -2.6956   -0.0000 O   0  0  0  0  0  0  0  0  0  0  0  0
    7.0582   -4.9419   -0.0000 C   0  0  0  0  0  0  0  0  0  0  0  0
    9.6593   -0.4493   -0.0000 C   0  0  0  0  0  0  0  0  0  0  0  0
    2.9557    4.7646   -0.0000 N   0  0  0  0  0  0  0  0  0  0  0  0
    8.3469   -5.6868   -0.0000 C   0  0  0  0  0  0  0  0  0  0  0  0
    5.7459   -5.6868   -0.0000 C   0  0  0  0  0  0  0  0  0  0  0  0
    2.1990    6.0769   -0.0000 C   0  0  0  0  0  0  0  0  0  0  0  0
    8.3351   -7.1765   -0.0000 C   0  0  0  0  0  0  0  0  0  0  0  0
    9.6356   -4.9301   -0.0000 C   0  0  0  0  0  0  0  0  0  0  0  0
    5.7341   -7.1765   -0.0000 C   0  0  0  0  0  0  0  0  0  0  0  0
    2.9439    7.3893   -0.0000 C   0  0  0  0  0  0  0  0  0  0  0  0
    0.6857    6.0888   -0.0000 C   0  0  0  0  0  0  0  0  0  0  0  0
    7.0228   -7.9213   -0.0000 C   0  0  0  0  0  0  0  0  0  0  0  0
    9.6238   -3.4168   -0.0000 F   0  0  0  0  0  0  0  0  0  0  0  0
   10.9243   -5.6631   -0.0000 F   0  0  0  0  0  0  0  0  0  0  0  0
   10.9243   -4.1735   -0.0000 F   0  0  0  0  0  0  0  0  0  0  0  0
    4.4217   -7.9095   -0.0000 F   0  0  0  0  0  0  0  0  0  0  0  0
    4.4336    7.4011   -0.0000 O   0  0  0  0  0  0  0  0  0  0  0  0
    2.1754    8.7016   -0.0000 C   0  0  0  0  0  0  0  0  0  0  0  0
   -0.0709    7.4011   -0.0000 C   0  0  0  0  0  0  0  0  0  0  0  0
    5.1666    8.7134   -0.0000 C   0  0  0  0  0  0  0  0  0  0  0  0
    0.6739    8.7134   -0.0000 C   0  0  0  0  0  0  0  0  0  0  0  0
    6.6563    8.7253   -0.0000 C   0  0  0  0  0  0  0  0  0  0  0  0
    7.3893   10.0376   -0.0000 O   0  0  0  0  0  0  0  0  0  0  0  0
  1  2  1  0  0  0  0
  1  3  1  0  0  0  0
  2  4  2  0  0  0  0
  2  5  1  0  0  0  0
  3  6  2  0  0  0  0
  5  7  1  0  0  0  0
  5  8  1  0  0  0  0
  5  9  1  0  0  0  0
  6 10  1  0  0  0  0
 11 10  1  6  0  0  0
 11 12  1  0  0  0  0
 11 13  1  0  0  0  0
 11 14  1  0  0  0  0
 12 15  2  0  0  0  0
 12 16  1  0  0  0  0
 13 17  1  0  0  0  0
 13 18  1  1  0  0  0
 14 19  1  0  0  0  0
 16 20  1  0  0  0  0
 16 21  1  0  0  0  0
 17 22  1  0  0  0  0
 17 23  1  0  0  0  0
 18 24  1  0  0  0  0
 20 25  1  0  0  0  0
 21 26  1  0  0  0  0
 22 27  2  0  0  0  0
 22 28  1  0  0  0  0
 24 29  1  0  0  0  0
 25 30  1  0  0  0  0
 28 31  2  0  0  0  0
 28 32  1  0  0  0  0
 30 33  1  0  0  0  0
 31 34  1  0  0  0  0
 31 35  1  0  0  0  0
 32 36  2  0  0  0  0
 33 37  2  0  0  0  0
 33 38  1  0  0  0  0
 34 39  2  0  0  0  0
 35 40  1  0  0  0  0
 35 41  1  0  0  0  0
 35 42  1  0  0  0  0
 36 43  1  0  0  0  0
 37 44  1  0  0  0  0
 37 45  1  0  0  0  0
 38 46  2  0  0  0  0
 44 47  1  0  0  0  0
 45 48  2  0  0  0  0
 47 49  1  0  0  0  0
 49 50  1  0  0  0  0
  4  6  1  0  0  0  0
 19 23  1  0  0  0  0
 26 30  1  0  0  0  0
 36 39  1  0  0  0  0
 46 48  1  0  0  0  0
M  END
>  <MolRegNo>
2752757

>  <m>
=

>  <Value>
50000

>  <Unit>
nM

>  <Type>
IC50

>  <pValue>
4.3

>  <Ligand Efficiency>
0

>  <Binding Efficiency>
0

>  <Surface Efficiency>
0

>  <Assay Index>
1561885

>  <Assay Category>


>  <Assay Organism>
Homo sapiens

>  <Target ID>
17045

>  <Target Name>
Cytochrome P450 3A4

>  <Target Organism>
Homo sapiens

>  <Target Description>
Target is a single protein chain

>  <Sequence Accession>
P08684

>  <Reference>


>  <Pubmed ID>
35158044

>  <DOI>
10.1016/j.bmcl.2022.128625

$$$$
2762720
Actelion Java MolfileCreator 1.0

 50 54  0  0  0  0  0  0  0  0999 V2000
    0.0000   -0.0000   -0.0000 S   0  0  0  0  0  0  0  0  0  0  0  0
   -0.0118    1.5131   -0.0000 C   0  0  0  0  0  0  0  0  0  0  0  0
    1.4067   -0.4492   -0.0000 C   0  0  0  0  0  0  0  0  0  0  0  0
    1.4067    1.9860   -0.0000 C   0  0  0  0  0  0  0  0  0  0  0  0
   -1.3240    2.2697   -0.0000 C   0  0  0  0  0  0  0  0  0  0  0  0
    2.2815    0.7802   -0.0000 C   0  0  0  0  0  0  0  0  0  0  0  0
   -2.6361    1.5367   -0.0000 F   0  0  0  0  0  0  0  0  0  0  0  0
   -1.3358    3.7828   -0.0000 F   0  0  0  0  0  0  0  0  0  0  0  0
   -2.6361    3.0262   -0.0000 F   0  0  0  0  0  0  0  0  0  0  0  0
    3.7709    0.7920   -0.0000 O   0  0  0  0  0  0  0  0  0  0  0  0
    4.5039   -0.4965   -0.0000 C   0  0  0  0  0  0  0  0  0  0  0  0
    5.2486    0.8157   -0.0000 C   0  0  0  0  0  0  0  0  0  0  0  0
    5.7924   -1.2412   -0.0000 C   0  0  0  0  0  0  0  0  0  0  0  0
    3.1917   -1.2412   -0.0000 C   0  0  0  0  0  0  0  0  0  0  0  0
    6.7380    0.8275   -0.0000 O   0  0  0  0  0  0  0  0  0  0  0  0
    4.4920    2.1278   -0.0000 N   0  0  0  0  0  0  0  0  0  0  0  0
    5.7805   -2.7307   -0.0000 N   0  0  0  0  0  0  0  0  0  0  0  0
    7.0809   -0.4847   -0.0000 C   0  0  0  0  0  0  0  0  0  0  0  0
    3.1799   -2.7307   -0.0000 C   0  0  0  0  0  0  0  0  0  0  0  0
    2.9789    2.1396   -0.0000 C   0  0  0  0  0  0  0  0  0  0  0  0
    5.2249    3.4399   -0.0000 C   0  0  0  0  0  0  0  0  0  0  0  0
    7.0690   -3.4636   -0.0000 C   0  0  0  0  0  0  0  0  0  0  0  0
    4.4684   -3.4636   -0.0000 C   0  0  0  0  0  0  0  0  0  0  0  0
    8.3694   -1.2176   -0.0000 C   0  0  0  0  0  0  0  0  0  0  0  0
    2.2224    3.4518   -0.0000 C   0  0  0  0  0  0  0  0  0  0  0  0
    4.4684    4.7521   -0.0000 C   0  0  0  0  0  0  0  0  0  0  0  0
    8.3575   -2.7070   -0.0000 O   0  0  0  0  0  0  0  0  0  0  0  0
    7.0572   -4.9531   -0.0000 C   0  0  0  0  0  0  0  0  0  0  0  0
    9.6579   -0.4610   -0.0000 C   0  0  0  0  0  0  0  0  0  0  0  0
    2.9553    4.7639   -0.0000 N   0  0  0  0  0  0  0  0  0  0  0  0
    5.7451   -5.6978   -0.0000 C   0  0  0  0  0  0  0  0  0  0  0  0
    8.3457   -5.6978   -0.0000 C   0  0  0  0  0  0  0  0  0  0  0  0
    2.1987    6.0761   -0.0000 C   0  0  0  0  0  0  0  0  0  0  0  0
    4.4329   -4.9412   -0.0000 F   0  0  0  0  0  0  0  0  0  0  0  0
    5.7332   -7.1872   -0.0000 C   0  0  0  0  0  0  0  0  0  0  0  0
    8.3339   -7.1872   -0.0000 C   0  0  0  0  0  0  0  0  0  0  0  0
    9.6342   -4.9412   -0.0000 C   0  0  0  0  0  0  0  0  0  0  0  0
    2.9435    7.3882   -0.0000 C   0  0  0  0  0  0  0  0  0  0  0  0
    0.6856    6.0879   -0.0000 C   0  0  0  0  0  0  0  0  0  0  0  0
    7.0218   -7.9202   -0.0000 C   0  0  0  0  0  0  0  0  0  0  0  0
    9.6224   -3.4281   -0.0000 F   0  0  0  0  0  0  0  0  0  0  0  0
   10.9227   -5.6741   -0.0000 F   0  0  0  0  0  0  0  0  0  0  0  0
   10.9227   -4.1847   -0.0000 F   0  0  0  0  0  0  0  0  0  0  0  0
    4.4329    7.4000   -0.0000 O   0  0  0  0  0  0  0  0  0  0  0  0
    2.1751    8.7004   -0.0000 C   0  0  0  0  0  0  0  0  0  0  0  0
   -0.0709    7.4000   -0.0000 C   0  0  0  0  0  0  0  0  0  0  0  0
    5.1658    8.7122   -0.0000 C   0  0  0  0  0  0  0  0  0  0  0  0
    0.6738    8.7122   -0.0000 C   0  0  0  0  0  0  0  0  0  0  0  0
    6.6553    8.7240   -0.0000 C   0  0  0  0  0  0  0  0  0  0  0  0
    7.3882   10.0361   -0.0000 O   0  0  0  0  0  0  0  0  0  0  0  0
  1  2  1  0  0  0  0
  1  3  1  0  0  0  0
  2  4  2  0  0  0  0
  2  5  1  0  0  0  0
  3  6  2  0  0  0  0
  5  7  1  0  0  0  0
  5  8  1  0  0  0  0
  5  9  1  0  0  0  0
  6 10  1  0  0  0  0
 11 10  1  6  0  0  0
 11 12  1  0  0  0  0
 11 13  1  0  0  0  0
 11 14  1  0  0  0  0
 12 15  2  0  0  0  0
 12 16  1  0  0  0  0
 13 17  1  0  0  0  0
 13 18  1  1  0  0  0
 14 19  1  0  0  0  0
 16 20  1  0  0  0  0
 16 21  1  0  0  0  0
 17 22  1  0  0  0  0
 17 23  1  0  0  0  0
 18 24  1  0  0  0  0
 20 25  1  0  0  0  0
 21 26  1  0  0  0  0
 22 27  2  0  0  0  0
 22 28  1  0  0  0  0
 24 29  1  0  0  0  0
 25 30  1  0  0  0  0
 28 31  2  0  0  0  0
 28 32  1  0  0  0  0
 30 33  1  0  0  0  0
 31 34  1  0  0  0  0
 31 35  1  0  0  0  0
 32 36  2  0  0  0  0
 32 37  1  0  0  0  0
 33 38  2  0  0  0  0
 33 39  1  0  0  0  0
 35 40  2  0  0  0  0
 37 41  1  0  0  0  0
 37 42  1  0  0  0  0
 37 43  1  0  0  0  0
 38 44  1  0  0  0  0
 38 45  1  0  0  0  0
 39 46  2  0  0  0  0
 44 47  1  0  0  0  0
 45 48  2  0  0  0  0
 47 49  1  0  0  0  0
 49 50  1  0  0  0  0
  4  6  1  0  0  0  0
 19 23  1  0  0  0  0
 26 30  1  0  0  0  0
 36 40  1  0  0  0  0
 46 48  1  0  0  0  0
M  END
>  <MolRegNo>
2762720

>  <m>
=

>  <Value>
50000

>  <Unit>
nM

>  <Type>
IC50

>  <pValue>
4.3

>  <Ligand Efficiency>
0

>  <Binding Efficiency>
0

>  <Surface Efficiency>
0

>  <Assay Index>
1561885

>  <Assay Category>


>  <Assay Organism>
Homo sapiens

>  <Target ID>
17045

>  <Target Name>
Cytochrome P450 3A4

>  <Target Organism>
Homo sapiens

>  <Target Description>
Target is a single protein chain

>  <Sequence Accession>
P08684

>  <Reference>


>  <Pubmed ID>
35158044

>  <DOI>
10.1016/j.bmcl.2022.128625

$$$$
2750465
Actelion Java MolfileCreator 1.0

 50 54  0  0  0  0  0  0  0  0999 V2000
    0.0000   -0.0000   -0.0000 S   0  0  0  0  0  0  0  0  0  0  0  0
   -0.0118    1.5128   -0.0000 C   0  0  0  0  0  0  0  0  0  0  0  0
    1.4064   -0.4491   -0.0000 C   0  0  0  0  0  0  0  0  0  0  0  0
    1.4064    1.9855   -0.0000 C   0  0  0  0  0  0  0  0  0  0  0  0
   -1.3237    2.2692   -0.0000 C   0  0  0  0  0  0  0  0  0  0  0  0
    2.2810    0.7800   -0.0000 C   0  0  0  0  0  0  0  0  0  0  0  0
   -2.6355    1.5246   -0.0000 F   0  0  0  0  0  0  0  0  0  0  0  0
   -1.3355    3.7819   -0.0000 F   0  0  0  0  0  0  0  0  0  0  0  0
   -2.6355    3.0256   -0.0000 F   0  0  0  0  0  0  0  0  0  0  0  0
    3.7701    0.7918   -0.0000 O   0  0  0  0  0  0  0  0  0  0  0  0
    4.5029   -0.4964   -0.0000 C   0  0  0  0  0  0  0  0  0  0  0  0
    5.2475    0.8155   -0.0000 C   0  0  0  0  0  0  0  0  0  0  0  0
    5.7911   -1.2410   -0.0000 C   0  0  0  0  0  0  0  0  0  0  0  0
    3.1910   -1.2410   -0.0000 C   0  0  0  0  0  0  0  0  0  0  0  0
    6.7366    0.8273   -0.0000 O   0  0  0  0  0  0  0  0  0  0  0  0
    4.4911    2.1273   -0.0000 N   0  0  0  0  0  0  0  0  0  0  0  0
    5.7793   -2.7301   -0.0000 N   0  0  0  0  0  0  0  0  0  0  0  0
    7.0793   -0.4846   -0.0000 C   0  0  0  0  0  0  0  0  0  0  0  0
    3.1792   -2.7301   -0.0000 C   0  0  0  0  0  0  0  0  0  0  0  0
    2.9783    2.1392   -0.0000 C   0  0  0  0  0  0  0  0  0  0  0  0
    5.2238    3.4392   -0.0000 C   0  0  0  0  0  0  0  0  0  0  0  0
    7.0675   -3.4628   -0.0000 C   0  0  0  0  0  0  0  0  0  0  0  0
    4.4674   -3.4747   -0.0000 C   0  0  0  0  0  0  0  0  0  0  0  0
    8.3676   -1.2173   -0.0000 C   0  0  0  0  0  0  0  0  0  0  0  0
    2.2219    3.4510   -0.0000 C   0  0  0  0  0  0  0  0  0  0  0  0
    4.4674    4.7511   -0.0000 C   0  0  0  0  0  0  0  0  0  0  0  0
    8.3557   -2.7065   -0.0000 O   0  0  0  0  0  0  0  0  0  0  0  0
    7.0557   -4.9520   -0.0000 C   0  0  0  0  0  0  0  0  0  0  0  0
    9.6558   -0.4609   -0.0000 C   0  0  0  0  0  0  0  0  0  0  0  0
    2.9546    4.7629   -0.0000 N   0  0  0  0  0  0  0  0  0  0  0  0
    5.7438   -5.6966   -0.0000 N   0  0  0  0  0  0  0  0  0  0  0  0
    8.3439   -5.6966   -0.0000 C   0  0  0  0  0  0  0  0  0  0  0  0
    2.1983    6.0748   -0.0000 C   0  0  0  0  0  0  0  0  0  0  0  0
    4.4320   -4.9402   -0.0000 O   0  0  0  0  0  0  0  0  0  0  0  0
    5.7320   -7.1857   -0.0000 C   0  0  0  0  0  0  0  0  0  0  0  0
    8.3321   -7.1857   -0.0000 C   0  0  0  0  0  0  0  0  0  0  0  0
    9.6321   -4.9402   -0.0000 C   0  0  0  0  0  0  0  0  0  0  0  0
    2.9428    7.3866   -0.0000 C   0  0  0  0  0  0  0  0  0  0  0  0
    0.6855    6.0866   -0.0000 C   0  0  0  0  0  0  0  0  0  0  0  0
    7.0202   -7.9184   -0.0000 C   0  0  0  0  0  0  0  0  0  0  0  0
    9.6203   -3.4274   -0.0000 F   0  0  0  0  0  0  0  0  0  0  0  0
   10.9204   -5.6729   -0.0000 F   0  0  0  0  0  0  0  0  0  0  0  0
   10.9204   -4.1838   -0.0000 F   0  0  0  0  0  0  0  0  0  0  0  0
    4.4320    7.3984   -0.0000 O   0  0  0  0  0  0  0  0  0  0  0  0
    2.1746    8.6985   -0.0000 C   0  0  0  0  0  0  0  0  0  0  0  0
   -0.0709    7.3984   -0.0000 C   0  0  0  0  0  0  0  0  0  0  0  0
    5.1647    8.7103   -0.0000 C   0  0  0  0  0  0  0  0  0  0  0  0
    0.6737    8.7103   -0.0000 C   0  0  0  0  0  0  0  0  0  0  0  0
    6.6539    8.7221   -0.0000 C   0  0  0  0  0  0  0  0  0  0  0  0
    7.3866   10.0340   -0.0000 O   0  0  0  0  0  0  0  0  0  0  0  0
  1  2  1  0  0  0  0
  1  3  1  0  0  0  0
  2  4  2  0  0  0  0
  2  5  1  0  0  0  0
  3  6  2  0  0  0  0
  5  7  1  0  0  0  0
  5  8  1  0  0  0  0
  5  9  1  0  0  0  0
  6 10  1  0  0  0  0
 11 10  1  6  0  0  0
 11 12  1  0  0  0  0
 11 13  1  0  0  0  0
 11 14  1  0  0  0  0
 12 15  2  0  0  0  0
 12 16  1  0  0  0  0
 13 17  1  0  0  0  0
 13 18  1  1  0  0  0
 14 19  1  0  0  0  0
 16 20  1  0  0  0  0
 16 21  1  0  0  0  0
 17 22  1  0  0  0  0
 17 23  1  0  0  0  0
 18 24  1  0  0  0  0
 20 25  1  0  0  0  0
 21 26  1  0  0  0  0
 22 27  2  0  0  0  0
 22 28  1  0  0  0  0
 24 29  1  0  0  0  0
 25 30  1  0  0  0  0
 28 31  2  0  0  0  0
 28 32  1  0  0  0  0
 30 33  1  0  0  0  0
 31 34  1  0  0  0  0
 31 35  1  0  0  0  0
 32 36  2  0  0  0  0
 32 37  1  0  0  0  0
 33 38  2  0  0  0  0
 33 39  1  0  0  0  0
 35 40  2  0  0  0  0
 37 41  1  0  0  0  0
 37 42  1  0  0  0  0
 37 43  1  0  0  0  0
 38 44  1  0  0  0  0
 38 45  1  0  0  0  0
 39 46  2  0  0  0  0
 44 47  1  0  0  0  0
 45 48  2  0  0  0  0
 47 49  1  0  0  0  0
 49 50  1  0  0  0  0
  4  6  1  0  0  0  0
 19 23  1  0  0  0  0
 26 30  1  0  0  0  0
 36 40  1  0  0  0  0
 46 48  1  0  0  0  0
M  CHG  2  31   1  34  -1
M  END
>  <MolRegNo>
2750465

>  <m>
=

>  <Value>
50000

>  <Unit>
nM

>  <Type>
IC50

>  <pValue>
4.3

>  <Ligand Efficiency>
0

>  <Binding Efficiency>
0

>  <Surface Efficiency>
0

>  <Assay Index>
1561885

>  <Assay Category>


>  <Assay Organism>
Homo sapiens

>  <Target ID>
17045

>  <Target Name>
Cytochrome P450 3A4

>  <Target Organism>
Homo sapiens

>  <Target Description>
Target is a single protein chain

>  <Sequence Accession>
P08684

>  <Reference>


>  <Pubmed ID>
35158044

>  <DOI>
10.1016/j.bmcl.2022.128625

$$$$
2774915
Actelion Java MolfileCreator 1.0

 50 54  0  0  0  0  0  0  0  0999 V2000
    0.0000   -0.0000   -0.0000 S   0  0  0  0  0  0  0  0  0  0  0  0
   -0.0118    1.5131   -0.0000 C   0  0  0  0  0  0  0  0  0  0  0  0
    1.4067   -0.4492   -0.0000 C   0  0  0  0  0  0  0  0  0  0  0  0
    1.4067    1.9860   -0.0000 C   0  0  0  0  0  0  0  0  0  0  0  0
   -1.3240    2.2697   -0.0000 C   0  0  0  0  0  0  0  0  0  0  0  0
    2.2815    0.7802   -0.0000 C   0  0  0  0  0  0  0  0  0  0  0  0
   -2.6361    1.5367   -0.0000 F   0  0  0  0  0  0  0  0  0  0  0  0
   -1.3358    3.7828   -0.0000 F   0  0  0  0  0  0  0  0  0  0  0  0
   -2.6361    3.0262   -0.0000 F   0  0  0  0  0  0  0  0  0  0  0  0
    3.7709    0.7920   -0.0000 O   0  0  0  0  0  0  0  0  0  0  0  0
    4.5039   -0.4965   -0.0000 C   0  0  0  0  0  0  0  0  0  0  0  0
    5.2486    0.8157   -0.0000 C   0  0  0  0  0  0  0  0  0  0  0  0
    5.7924   -1.2412   -0.0000 C   0  0  0  0  0  0  0  0  0  0  0  0
    3.1917   -1.2412   -0.0000 C   0  0  0  0  0  0  0  0  0  0  0  0
    6.7380    0.8275   -0.0000 O   0  0  0  0  0  0  0  0  0  0  0  0
    4.4920    2.1278   -0.0000 N   0  0  0  0  0  0  0  0  0  0  0  0
    5.7805   -2.7307   -0.0000 N   0  0  0  0  0  0  0  0  0  0  0  0
    7.0809   -0.4847   -0.0000 C   0  0  0  0  0  0  0  0  0  0  0  0
    3.1799   -2.7307   -0.0000 C   0  0  0  0  0  0  0  0  0  0  0  0
    2.9789    2.1396   -0.0000 C   0  0  0  0  0  0  0  0  0  0  0  0
    5.2249    3.4399   -0.0000 C   0  0  0  0  0  0  0  0  0  0  0  0
    7.0690   -3.4636   -0.0000 C   0  0  0  0  0  0  0  0  0  0  0  0
    4.4684   -3.4636   -0.0000 C   0  0  0  0  0  0  0  0  0  0  0  0
    8.3694   -1.2176   -0.0000 C   0  0  0  0  0  0  0  0  0  0  0  0
    2.2224    3.4518   -0.0000 C   0  0  0  0  0  0  0  0  0  0  0  0
    4.4684    4.7521   -0.0000 C   0  0  0  0  0  0  0  0  0  0  0  0
    8.3575   -2.7070   -0.0000 O   0  0  0  0  0  0  0  0  0  0  0  0
    7.0572   -4.9531   -0.0000 C   0  0  0  0  0  0  0  0  0  0  0  0
    9.6579   -0.4610   -0.0000 C   0  0  0  0  0  0  0  0  0  0  0  0
    2.9553    4.7639   -0.0000 N   0  0  0  0  0  0  0  0  0  0  0  0
    5.7451   -5.6978   -0.0000 C   0  0  0  0  0  0  0  0  0  0  0  0
    8.3457   -5.6978   -0.0000 C   0  0  0  0  0  0  0  0  0  0  0  0
    2.1987    6.0761   -0.0000 C   0  0  0  0  0  0  0  0  0  0  0  0
    4.4329   -4.9412   -0.0000 O   0  0  0  0  0  0  0  0  0  0  0  0
    5.7332   -7.1872   -0.0000 N   0  0  0  0  0  0  0  0  0  0  0  0
    8.3339   -7.1872   -0.0000 C   0  0  0  0  0  0  0  0  0  0  0  0
    9.6342   -4.9412   -0.0000 C   0  0  0  0  0  0  0  0  0  0  0  0
    2.9435    7.3882   -0.0000 C   0  0  0  0  0  0  0  0  0  0  0  0
    0.6856    6.0879   -0.0000 C   0  0  0  0  0  0  0  0  0  0  0  0
    7.0218   -7.9202   -0.0000 C   0  0  0  0  0  0  0  0  0  0  0  0
    9.6224   -3.4281   -0.0000 F   0  0  0  0  0  0  0  0  0  0  0  0
   10.9227   -5.6741   -0.0000 F   0  0  0  0  0  0  0  0  0  0  0  0
   10.9227   -4.1847   -0.0000 F   0  0  0  0  0  0  0  0  0  0  0  0
    4.4329    7.4000   -0.0000 O   0  0  0  0  0  0  0  0  0  0  0  0
    2.1751    8.7004   -0.0000 C   0  0  0  0  0  0  0  0  0  0  0  0
   -0.0709    7.4000   -0.0000 C   0  0  0  0  0  0  0  0  0  0  0  0
    5.1658    8.7122   -0.0000 C   0  0  0  0  0  0  0  0  0  0  0  0
    0.6738    8.7122   -0.0000 C   0  0  0  0  0  0  0  0  0  0  0  0
    6.6553    8.7240   -0.0000 C   0  0  0  0  0  0  0  0  0  0  0  0
    7.3882   10.0361   -0.0000 O   0  0  0  0  0  0  0  0  0  0  0  0
  1  2  1  0  0  0  0
  1  3  1  0  0  0  0
  2  4  2  0  0  0  0
  2  5  1  0  0  0  0
  3  6  2  0  0  0  0
  5  7  1  0  0  0  0
  5  8  1  0  0  0  0
  5  9  1  0  0  0  0
  6 10  1  0  0  0  0
 11 10  1  6  0  0  0
 11 12  1  0  0  0  0
 11 13  1  0  0  0  0
 11 14  1  0  0  0  0
 12 15  2  0  0  0  0
 12 16  1  0  0  0  0
 13 17  1  0  0  0  0
 13 18  1  1  0  0  0
 14 19  1  0  0  0  0
 16 20  1  0  0  0  0
 16 21  1  0  0  0  0
 17 22  1  0  0  0  0
 17 23  1  0  0  0  0
 18 24  1  0  0  0  0
 20 25  1  0  0  0  0
 21 26  1  0  0  0  0
 22 27  2  0  0  0  0
 22 28  1  0  0  0  0
 24 29  1  0  0  0  0
 25 30  1  0  0  0  0
 28 31  2  0  0  0  0
 28 32  1  0  0  0  0
 30 33  1  0  0  0  0
 31 34  1  0  0  0  0
 31 35  1  0  0  0  0
 32 36  2  0  0  0  0
 32 37  1  0  0  0  0
 33 38  2  0  0  0  0
 33 39  1  0  0  0  0
 35 40  2  0  0  0  0
 37 41  1  0  0  0  0
 37 42  1  0  0  0  0
 37 43  1  0  0  0  0
 38 44  1  0  0  0  0
 38 45  1  0  0  0  0
 39 46  2  0  0  0  0
 44 47  1  0  0  0  0
 45 48  2  0  0  0  0
 47 49  1  0  0  0  0
 49 50  1  0  0  0  0
  4  6  1  0  0  0  0
 19 23  1  0  0  0  0
 26 30  1  0  0  0  0
 36 40  1  0  0  0  0
 46 48  1  0  0  0  0
M  END
>  <MolRegNo>
2774915

>  <m>
=

>  <Value>
30000

>  <Unit>
nM

>  <Type>
IC50

>  <pValue>
4.52

>  <Ligand Efficiency>
0

>  <Binding Efficiency>
0

>  <Surface Efficiency>
0

>  <Assay Index>
1561885

>  <Assay Category>


>  <Assay Organism>
Homo sapiens

>  <Target ID>
17045

>  <Target Name>
Cytochrome P450 3A4

>  <Target Organism>
Homo sapiens

>  <Target Description>
Target is a single protein chain

>  <Sequence Accession>
P08684

>  <Reference>


>  <Pubmed ID>
35158044

>  <DOI>
10.1016/j.bmcl.2022.128625

$$$$
2754749
Actelion Java MolfileCreator 1.0

 53 57  0  0  0  0  0  0  0  0999 V2000
    0.0000   -0.0000   -0.0000 S   0  0  0  0  0  0  0  0  0  0  0  0
   -0.0118    1.5132   -0.0000 C   0  0  0  0  0  0  0  0  0  0  0  0
    1.4068   -0.4492   -0.0000 C   0  0  0  0  0  0  0  0  0  0  0  0
    1.4068    1.9861   -0.0000 C   0  0  0  0  0  0  0  0  0  0  0  0
   -1.3240    2.2698   -0.0000 C   0  0  0  0  0  0  0  0  0  0  0  0
    2.2816    0.7802   -0.0000 C   0  0  0  0  0  0  0  0  0  0  0  0
   -2.6363    1.5368   -0.0000 F   0  0  0  0  0  0  0  0  0  0  0  0
   -1.3359    3.7830   -0.0000 F   0  0  0  0  0  0  0  0  0  0  0  0
   -2.6363    3.0264   -0.0000 F   0  0  0  0  0  0  0  0  0  0  0  0
    3.7711    0.7921   -0.0000 O   0  0  0  0  0  0  0  0  0  0  0  0
    4.5041   -0.4965   -0.0000 C   0  0  0  0  0  0  0  0  0  0  0  0
    5.2489    0.8157   -0.0000 C   0  0  0  0  0  0  0  0  0  0  0  0
    5.7927   -1.2413   -0.0000 C   0  0  0  0  0  0  0  0  0  0  0  0
    3.1919   -1.2413   -0.0000 C   0  0  0  0  0  0  0  0  0  0  0  0
    6.7384    0.8275   -0.0000 O   0  0  0  0  0  0  0  0  0  0  0  0
    4.4923    2.1279   -0.0000 N   0  0  0  0  0  0  0  0  0  0  0  0
    5.7808   -2.7308   -0.0000 N   0  0  0  0  0  0  0  0  0  0  0  0
    7.0812   -0.4847   -0.0000 C   0  0  0  0  0  0  0  0  0  0  0  0
    3.1801   -2.7308   -0.0000 C   0  0  0  0  0  0  0  0  0  0  0  0
    2.9791    2.1397   -0.0000 C   0  0  0  0  0  0  0  0  0  0  0  0
    5.2252    3.4401   -0.0000 C   0  0  0  0  0  0  0  0  0  0  0  0
    7.0694   -3.4638   -0.0000 C   0  0  0  0  0  0  0  0  0  0  0  0
    4.4686   -3.4638   -0.0000 C   0  0  0  0  0  0  0  0  0  0  0  0
    8.3698   -1.2176   -0.0000 C   0  0  0  0  0  0  0  0  0  0  0  0
    2.2225    3.4520   -0.0000 C   0  0  0  0  0  0  0  0  0  0  0  0
    4.4686    4.7524   -0.0000 C   0  0  0  0  0  0  0  0  0  0  0  0
    8.3580   -2.7072   -0.0000 O   0  0  0  0  0  0  0  0  0  0  0  0
    7.0576   -4.9533   -0.0000 C   0  0  0  0  0  0  0  0  0  0  0  0
    9.6584   -0.4610   -0.0000 C   0  0  0  0  0  0  0  0  0  0  0  0
    2.9554    4.7642   -0.0000 N   0  0  0  0  0  0  0  0  0  0  0  0
    5.7454   -5.6981   -0.0000 C   0  0  0  0  0  0  0  0  0  0  0  0
    8.3462   -5.6863   -0.0000 C   0  0  0  0  0  0  0  0  0  0  0  0
    2.1989    6.0764   -0.0000 C   0  0  0  0  0  0  0  0  0  0  0  0
    4.4332   -4.9415   -0.0000 O   0  0  0  0  0  0  0  0  0  0  0  0
    5.7336   -7.1876   -0.0000 N   0  0  0  0  0  0  0  0  0  0  0  0
    8.3344   -7.1758   -0.0000 C   0  0  0  0  0  0  0  0  0  0  0  0
    9.6347   -4.9297   -0.0000 C   0  0  0  0  0  0  0  0  0  0  0  0
    2.9436    7.3886   -0.0000 C   0  0  0  0  0  0  0  0  0  0  0  0
    0.6857    6.0882   -0.0000 C   0  0  0  0  0  0  0  0  0  0  0  0
    3.1209   -5.6745   -0.0000 C   0  0  0  0  0  0  0  0  0  0  0  0
    7.0221   -7.9206   -0.0000 C   0  0  0  0  0  0  0  0  0  0  0  0
    9.6229   -3.4165   -0.0000 F   0  0  0  0  0  0  0  0  0  0  0  0
   10.9233   -5.6626   -0.0000 F   0  0  0  0  0  0  0  0  0  0  0  0
   10.9233   -4.1731   -0.0000 F   0  0  0  0  0  0  0  0  0  0  0  0
    4.4332    7.4004   -0.0000 O   0  0  0  0  0  0  0  0  0  0  0  0
    2.1752    8.7008   -0.0000 C   0  0  0  0  0  0  0  0  0  0  0  0
   -0.0709    7.4004   -0.0000 C   0  0  0  0  0  0  0  0  0  0  0  0
    3.1091   -7.1640   -0.0000 C   0  0  0  0  0  0  0  0  0  0  0  0
    5.1661    8.7126   -0.0000 C   0  0  0  0  0  0  0  0  0  0  0  0
    0.6738    8.7126   -0.0000 C   0  0  0  0  0  0  0  0  0  0  0  0
    1.7969   -7.8969   -0.0000 O   0  0  0  0  0  0  0  0  0  0  0  0
    6.6557    8.7245   -0.0000 C   0  0  0  0  0  0  0  0  0  0  0  0
    7.3886   10.0367   -0.0000 O   0  0  0  0  0  0  0  0  0  0  0  0
  1  2  1  0  0  0  0
  1  3  1  0  0  0  0
  2  4  2  0  0  0  0
  2  5  1  0  0  0  0
  3  6  2  0  0  0  0
  5  7  1  0  0  0  0
  5  8  1  0  0  0  0
  5  9  1  0  0  0  0
  6 10  1  0  0  0  0
 11 10  1  6  0  0  0
 11 12  1  0  0  0  0
 11 13  1  0  0  0  0
 11 14  1  0  0  0  0
 12 15  2  0  0  0  0
 12 16  1  0  0  0  0
 13 17  1  0  0  0  0
 13 18  1  1  0  0  0
 14 19  1  0  0  0  0
 16 20  1  0  0  0  0
 16 21  1  0  0  0  0
 17 22  1  0  0  0  0
 17 23  1  0  0  0  0
 18 24  1  0  0  0  0
 20 25  1  0  0  0  0
 21 26  1  0  0  0  0
 22 27  2  0  0  0  0
 22 28  1  0  0  0  0
 24 29  1  0  0  0  0
 25 30  1  0  0  0  0
 28 31  2  0  0  0  0
 28 32  1  0  0  0  0
 30 33  1  0  0  0  0
 31 34  1  0  0  0  0
 31 35  1  0  0  0  0
 32 36  2  0  0  0  0
 32 37  1  0  0  0  0
 33 38  2  0  0  0  0
 33 39  1  0  0  0  0
 34 40  1  0  0  0  0
 35 41  2  0  0  0  0
 37 42  1  0  0  0  0
 37 43  1  0  0  0  0
 37 44  1  0  0  0  0
 38 45  1  0  0  0  0
 38 46  1  0  0  0  0
 39 47  2  0  0  0  0
 40 48  1  0  0  0  0
 45 49  1  0  0  0  0
 46 50  2  0  0  0  0
 48 51  1  0  0  0  0
 49 52  1  0  0  0  0
 52 53  1  0  0  0  0
  4  6  1  0  0  0  0
 19 23  1  0  0  0  0
 26 30  1  0  0  0  0
 36 41  1  0  0  0  0
 47 50  1  0  0  0  0
M  END
>  <MolRegNo>
2754749

>  <m>
=

>  <Value>
50000

>  <Unit>
nM

>  <Type>
IC50

>  <pValue>
4.3

>  <Ligand Efficiency>
0

>  <Binding Efficiency>
0

>  <Surface Efficiency>
0

>  <Assay Index>
1561885

>  <Assay Category>


>  <Assay Organism>
Homo sapiens

>  <Target ID>
17045

>  <Target Name>
Cytochrome P450 3A4

>  <Target Organism>
Homo sapiens

>  <Target Description>
Target is a single protein chain

>  <Sequence Accession>
P08684

>  <Reference>


>  <Pubmed ID>
35158044

>  <DOI>
10.1016/j.bmcl.2022.128625

$$$$
2761006
Actelion Java MolfileCreator 1.0

 55 59  0  0  0  0  0  0  0  0999 V2000
    0.0000   -0.0000   -0.0000 S   0  0  0  0  0  0  0  0  0  0  0  0
   -0.0118    1.5127   -0.0000 C   0  0  0  0  0  0  0  0  0  0  0  0
    1.4063   -0.4491   -0.0000 C   0  0  0  0  0  0  0  0  0  0  0  0
    1.4063    1.9854   -0.0000 C   0  0  0  0  0  0  0  0  0  0  0  0
   -1.3236    2.2691   -0.0000 C   0  0  0  0  0  0  0  0  0  0  0  0
    2.2809    0.7800   -0.0000 C   0  0  0  0  0  0  0  0  0  0  0  0
   -2.6354    1.5363   -0.0000 F   0  0  0  0  0  0  0  0  0  0  0  0
   -1.3354    3.7818   -0.0000 F   0  0  0  0  0  0  0  0  0  0  0  0
   -2.6354    3.0254   -0.0000 F   0  0  0  0  0  0  0  0  0  0  0  0
    3.7700    0.7918   -0.0000 O   0  0  0  0  0  0  0  0  0  0  0  0
    4.5027   -0.4964   -0.0000 C   0  0  0  0  0  0  0  0  0  0  0  0
    5.2472    0.8154   -0.0000 C   0  0  0  0  0  0  0  0  0  0  0  0
    5.7908   -1.2409   -0.0000 C   0  0  0  0  0  0  0  0  0  0  0  0
    3.1909   -1.2409   -0.0000 C   0  0  0  0  0  0  0  0  0  0  0  0
    6.7363    0.8273   -0.0000 O   0  0  0  0  0  0  0  0  0  0  0  0
    4.4909    2.1272   -0.0000 N   0  0  0  0  0  0  0  0  0  0  0  0
    5.7790   -2.7300   -0.0000 N   0  0  0  0  0  0  0  0  0  0  0  0
    7.0790   -0.4845   -0.0000 C   0  0  0  0  0  0  0  0  0  0  0  0
    3.1791   -2.7300   -0.0000 C   0  0  0  0  0  0  0  0  0  0  0  0
    2.9781    2.1391   -0.0000 C   0  0  0  0  0  0  0  0  0  0  0  0
    5.2236    3.4391   -0.0000 C   0  0  0  0  0  0  0  0  0  0  0  0
    7.0672   -3.4627   -0.0000 C   0  0  0  0  0  0  0  0  0  0  0  0
    4.4672   -3.4745   -0.0000 C   0  0  0  0  0  0  0  0  0  0  0  0
    8.3672   -1.2173   -0.0000 C   0  0  0  0  0  0  0  0  0  0  0  0
    2.2218    3.4509   -0.0000 C   0  0  0  0  0  0  0  0  0  0  0  0
    4.4672    4.7509   -0.0000 C   0  0  0  0  0  0  0  0  0  0  0  0
    8.3554   -2.7063   -0.0000 O   0  0  0  0  0  0  0  0  0  0  0  0
    7.0554   -4.9518   -0.0000 C   0  0  0  0  0  0  0  0  0  0  0  0
    9.6553   -0.4609   -0.0000 C   0  0  0  0  0  0  0  0  0  0  0  0
    2.9545    4.7627   -0.0000 N   0  0  0  0  0  0  0  0  0  0  0  0
    5.7436   -5.6963   -0.0000 C   0  0  0  0  0  0  0  0  0  0  0  0
    8.3435   -5.6963   -0.0000 C   0  0  0  0  0  0  0  0  0  0  0  0
    2.1982    6.0745   -0.0000 C   0  0  0  0  0  0  0  0  0  0  0  0
    4.4318   -4.9399   -0.0000 O   0  0  0  0  0  0  0  0  0  0  0  0
    5.7318   -7.1854   -0.0000 N   0  0  0  0  0  0  0  0  0  0  0  0
    8.3317   -7.1854   -0.0000 C   0  0  0  0  0  0  0  0  0  0  0  0
    9.6317   -4.9281   -0.0000 C   0  0  0  0  0  0  0  0  0  0  0  0
    2.9427    7.3863   -0.0000 C   0  0  0  0  0  0  0  0  0  0  0  0
    0.6854    6.0863   -0.0000 C   0  0  0  0  0  0  0  0  0  0  0  0
    3.1200   -5.6727   -0.0000 C   0  0  0  0  0  0  0  0  0  0  0  0
    7.0199   -7.9181   -0.0000 C   0  0  0  0  0  0  0  0  0  0  0  0
    9.6199   -3.4154   -0.0000 F   0  0  0  0  0  0  0  0  0  0  0  0
   10.9199   -5.6727   -0.0000 F   0  0  0  0  0  0  0  0  0  0  0  0
   10.9199   -4.1718   -0.0000 F   0  0  0  0  0  0  0  0  0  0  0  0
    4.4318    7.3981   -0.0000 O   0  0  0  0  0  0  0  0  0  0  0  0
    2.1745    8.6981   -0.0000 C   0  0  0  0  0  0  0  0  0  0  0  0
   -0.0709    7.3981   -0.0000 C   0  0  0  0  0  0  0  0  0  0  0  0
    3.1081   -7.1617   -0.0000 C   0  0  0  0  0  0  0  0  0  0  0  0
    5.1645    8.7099   -0.0000 C   0  0  0  0  0  0  0  0  0  0  0  0
    0.6736    8.7099   -0.0000 C   0  0  0  0  0  0  0  0  0  0  0  0
    1.7963   -7.8945   -0.0000 N   0  0  0  0  0  0  0  0  0  0  0  0
    6.6536    8.7217   -0.0000 C   0  0  0  0  0  0  0  0  0  0  0  0
    1.7845   -9.3835   -0.0000 C   0  0  0  0  0  0  0  0  0  0  0  0
    0.4845   -7.1381   -0.0000 C   0  0  0  0  0  0  0  0  0  0  0  0
    7.3863   10.0335   -0.0000 O   0  0  0  0  0  0  0  0  0  0  0  0
  1  2  1  0  0  0  0
  1  3  1  0  0  0  0
  2  4  2  0  0  0  0
  2  5  1  0  0  0  0
  3  6  2  0  0  0  0
  5  7  1  0  0  0  0
  5  8  1  0  0  0  0
  5  9  1  0  0  0  0
  6 10  1  0  0  0  0
 11 10  1  6  0  0  0
 11 12  1  0  0  0  0
 11 13  1  0  0  0  0
 11 14  1  0  0  0  0
 12 15  2  0  0  0  0
 12 16  1  0  0  0  0
 13 17  1  0  0  0  0
 13 18  1  1  0  0  0
 14 19  1  0  0  0  0
 16 20  1  0  0  0  0
 16 21  1  0  0  0  0
 17 22  1  0  0  0  0
 17 23  1  0  0  0  0
 18 24  1  0  0  0  0
 20 25  1  0  0  0  0
 21 26  1  0  0  0  0
 22 27  2  0  0  0  0
 22 28  1  0  0  0  0
 24 29  1  0  0  0  0
 25 30  1  0  0  0  0
 28 31  2  0  0  0  0
 28 32  1  0  0  0  0
 30 33  1  0  0  0  0
 31 34  1  0  0  0  0
 31 35  1  0  0  0  0
 32 36  2  0  0  0  0
 32 37  1  0  0  0  0
 33 38  2  0  0  0  0
 33 39  1  0  0  0  0
 34 40  1  0  0  0  0
 35 41  2  0  0  0  0
 37 42  1  0  0  0  0
 37 43  1  0  0  0  0
 37 44  1  0  0  0  0
 38 45  1  0  0  0  0
 38 46  1  0  0  0  0
 39 47  2  0  0  0  0
 40 48  1  0  0  0  0
 45 49  1  0  0  0  0
 46 50  2  0  0  0  0
 48 51  1  0  0  0  0
 49 52  1  0  0  0  0
 51 53  1  0  0  0  0
 51 54  1  0  0  0  0
 52 55  1  0  0  0  0
  4  6  1  0  0  0  0
 19 23  1  0  0  0  0
 26 30  1  0  0  0  0
 36 41  1  0  0  0  0
 47 50  1  0  0  0  0
M  END
>  <MolRegNo>
2761006

>  <m>
=

>  <Value>
20000

>  <Unit>
nM

>  <Type>
IC50

>  <pValue>
4.7

>  <Ligand Efficiency>
0

>  <Binding Efficiency>
0

>  <Surface Efficiency>
0

>  <Assay Index>
1561885

>  <Assay Category>


>  <Assay Organism>
Homo sapiens

>  <Target ID>
17045

>  <Target Name>
Cytochrome P450 3A4

>  <Target Organism>
Homo sapiens

>  <Target Description>
Target is a single protein chain

>  <Sequence Accession>
P08684

>  <Reference>


>  <Pubmed ID>
35158044

>  <DOI>
10.1016/j.bmcl.2022.128625

$$$$
2778430
Actelion Java MolfileCreator 1.0

 54 58  0  0  0  0  0  0  0  0999 V2000
    0.0000   -0.0000   -0.0000 S   0  0  0  0  0  0  0  0  0  0  0  0
   -0.0118    1.5135   -0.0000 C   0  0  0  0  0  0  0  0  0  0  0  0
    1.4071   -0.4493   -0.0000 C   0  0  0  0  0  0  0  0  0  0  0  0
    1.4071    1.9865   -0.0000 C   0  0  0  0  0  0  0  0  0  0  0  0
   -1.3243    2.2702   -0.0000 C   0  0  0  0  0  0  0  0  0  0  0  0
    2.2821    0.7804   -0.0000 C   0  0  0  0  0  0  0  0  0  0  0  0
   -2.6368    1.5371   -0.0000 F   0  0  0  0  0  0  0  0  0  0  0  0
   -1.3361    3.7837   -0.0000 F   0  0  0  0  0  0  0  0  0  0  0  0
   -2.6368    3.0270   -0.0000 F   0  0  0  0  0  0  0  0  0  0  0  0
    3.7719    0.7922   -0.0000 O   0  0  0  0  0  0  0  0  0  0  0  0
    4.5050   -0.4966   -0.0000 C   0  0  0  0  0  0  0  0  0  0  0  0
    5.2499    0.8159   -0.0000 C   0  0  0  0  0  0  0  0  0  0  0  0
    5.7938   -1.2297   -0.0000 C   0  0  0  0  0  0  0  0  0  0  0  0
    3.1925   -1.2297   -0.0000 C   0  0  0  0  0  0  0  0  0  0  0  0
    6.7398    0.8277   -0.0000 O   0  0  0  0  0  0  0  0  0  0  0  0
    4.4932    2.1283   -0.0000 N   0  0  0  0  0  0  0  0  0  0  0  0
    5.7820   -2.7196   -0.0000 N   0  0  0  0  0  0  0  0  0  0  0  0
    7.0827   -0.4730   -0.0000 C   0  0  0  0  0  0  0  0  0  0  0  0
    3.1807   -2.7196   -0.0000 C   0  0  0  0  0  0  0  0  0  0  0  0
    2.9797    2.1402   -0.0000 C   0  0  0  0  0  0  0  0  0  0  0  0
    5.2263    3.4408   -0.0000 C   0  0  0  0  0  0  0  0  0  0  0  0
    7.0708   -3.4527   -0.0000 C   0  0  0  0  0  0  0  0  0  0  0  0
    4.4695   -3.4645   -0.0000 C   0  0  0  0  0  0  0  0  0  0  0  0
    8.3715   -1.2061   -0.0000 C   0  0  0  0  0  0  0  0  0  0  0  0
    2.2229    3.4527   -0.0000 C   0  0  0  0  0  0  0  0  0  0  0  0
    4.4695    4.7533   -0.0000 C   0  0  0  0  0  0  0  0  0  0  0  0
    8.3597   -2.6959   -0.0000 O   0  0  0  0  0  0  0  0  0  0  0  0
    7.0590   -4.9425   -0.0000 C   0  0  0  0  0  0  0  0  0  0  0  0
    9.6603   -0.4493   -0.0000 C   0  0  0  0  0  0  0  0  0  0  0  0
    2.9560    4.7651   -0.0000 N   0  0  0  0  0  0  0  0  0  0  0  0
    5.7465   -5.6874   -0.0000 C   0  0  0  0  0  0  0  0  0  0  0  0
    8.3479   -5.6874   -0.0000 C   0  0  0  0  0  0  0  0  0  0  0  0
    2.1993    6.0776   -0.0000 C   0  0  0  0  0  0  0  0  0  0  0  0
    4.4341   -4.9307   -0.0000 O   0  0  0  0  0  0  0  0  0  0  0  0
    5.7347   -7.1773   -0.0000 N   0  0  0  0  0  0  0  0  0  0  0  0
    8.3360   -7.1773   -0.0000 C   0  0  0  0  0  0  0  0  0  0  0  0
    9.6367   -4.9307   -0.0000 C   0  0  0  0  0  0  0  0  0  0  0  0
    2.9442    7.3901   -0.0000 C   0  0  0  0  0  0  0  0  0  0  0  0
    0.6858    6.0894   -0.0000 C   0  0  0  0  0  0  0  0  0  0  0  0
    3.1216   -5.6638   -0.0000 C   0  0  0  0  0  0  0  0  0  0  0  0
    7.0235   -7.9104   -0.0000 C   0  0  0  0  0  0  0  0  0  0  0  0
    9.6249   -3.4172   -0.0000 F   0  0  0  0  0  0  0  0  0  0  0  0
   10.9255   -5.6638   -0.0000 F   0  0  0  0  0  0  0  0  0  0  0  0
   10.9255   -4.1739   -0.0000 F   0  0  0  0  0  0  0  0  0  0  0  0
    4.4341    7.4019   -0.0000 O   0  0  0  0  0  0  0  0  0  0  0  0
    2.1756    8.7026   -0.0000 C   0  0  0  0  0  0  0  0  0  0  0  0
   -0.0709    7.4019   -0.0000 C   0  0  0  0  0  0  0  0  0  0  0  0
    3.1098   -7.1536   -0.0000 C   0  0  0  0  0  0  0  0  0  0  0  0
    5.1672    8.7144   -0.0000 C   0  0  0  0  0  0  0  0  0  0  0  0
    0.6740    8.7144   -0.0000 C   0  0  0  0  0  0  0  0  0  0  0  0
    4.3986   -7.8867   -0.0000 O   0  0  0  0  0  0  0  0  0  0  0  0
    1.7973   -7.8867   -0.0000 O   0  0  0  0  0  0  0  0  0  0  0  0
    6.6570    8.7262   -0.0000 C   0  0  0  0  0  0  0  0  0  0  0  0
    7.3901   10.0387   -0.0000 O   0  0  0  0  0  0  0  0  0  0  0  0
  1  2  1  0  0  0  0
  1  3  1  0  0  0  0
  2  4  2  0  0  0  0
  2  5  1  0  0  0  0
  3  6  2  0  0  0  0
  5  7  1  0  0  0  0
  5  8  1  0  0  0  0
  5  9  1  0  0  0  0
  6 10  1  0  0  0  0
 11 10  1  6  0  0  0
 11 12  1  0  0  0  0
 11 13  1  0  0  0  0
 11 14  1  0  0  0  0
 12 15  2  0  0  0  0
 12 16  1  0  0  0  0
 13 17  1  0  0  0  0
 13 18  1  1  0  0  0
 14 19  1  0  0  0  0
 16 20  1  0  0  0  0
 16 21  1  0  0  0  0
 17 22  1  0  0  0  0
 17 23  1  0  0  0  0
 18 24  1  0  0  0  0
 20 25  1  0  0  0  0
 21 26  1  0  0  0  0
 22 27  2  0  0  0  0
 22 28  1  0  0  0  0
 24 29  1  0  0  0  0
 25 30  1  0  0  0  0
 28 31  2  0  0  0  0
 28 32  1  0  0  0  0
 30 33  1  0  0  0  0
 31 34  1  0  0  0  0
 31 35  1  0  0  0  0
 32 36  2  0  0  0  0
 32 37  1  0  0  0  0
 33 38  2  0  0  0  0
 33 39  1  0  0  0  0
 34 40  1  0  0  0  0
 35 41  2  0  0  0  0
 37 42  1  0  0  0  0
 37 43  1  0  0  0  0
 37 44  1  0  0  0  0
 38 45  1  0  0  0  0
 38 46  1  0  0  0  0
 39 47  2  0  0  0  0
 40 48  1  0  0  0  0
 45 49  1  0  0  0  0
 46 50  2  0  0  0  0
 48 51  2  0  0  0  0
 48 52  1  0  0  0  0
 49 53  1  0  0  0  0
 53 54  1  0  0  0  0
  4  6  1  0  0  0  0
 19 23  1  0  0  0  0
 26 30  1  0  0  0  0
 36 41  1  0  0  0  0
 47 50  1  0  0  0  0
M  END
>  <MolRegNo>
2778430

>  <m>
=

>  <Value>
20000

>  <Unit>
nM

>  <Type>
IC50

>  <pValue>
4.7

>  <Ligand Efficiency>
0

>  <Binding Efficiency>
0

>  <Surface Efficiency>
0

>  <Assay Index>
1561885

>  <Assay Category>


>  <Assay Organism>
Homo sapiens

>  <Target ID>
17045

>  <Target Name>
Cytochrome P450 3A4

>  <Target Organism>
Homo sapiens

>  <Target Description>
Target is a single protein chain

>  <Sequence Accession>
P08684

>  <Reference>


>  <Pubmed ID>
35158044

>  <DOI>
10.1016/j.bmcl.2022.128625

$$$$
2762977
Actelion Java MolfileCreator 1.0

 47 51  0  0  0  0  0  0  0  0999 V2000
    0.0000   -0.0000   -0.0000 S   0  0  0  0  0  0  0  0  0  0  0  0
   -0.0118    1.5130   -0.0000 C   0  0  0  0  0  0  0  0  0  0  0  0
    1.4066   -0.4492   -0.0000 C   0  0  0  0  0  0  0  0  0  0  0  0
    1.4066    1.9858   -0.0000 C   0  0  0  0  0  0  0  0  0  0  0  0
   -1.3239    2.2695   -0.0000 C   0  0  0  0  0  0  0  0  0  0  0  0
    2.2813    0.7801   -0.0000 C   0  0  0  0  0  0  0  0  0  0  0  0
   -2.6360    1.5367   -0.0000 F   0  0  0  0  0  0  0  0  0  0  0  0
   -1.3357    3.7825   -0.0000 F   0  0  0  0  0  0  0  0  0  0  0  0
   -2.6360    3.0260   -0.0000 F   0  0  0  0  0  0  0  0  0  0  0  0
    3.7707    0.7920   -0.0000 O   0  0  0  0  0  0  0  0  0  0  0  0
    4.5036   -0.4965   -0.0000 C   0  0  0  0  0  0  0  0  0  0  0  0
    5.2483    0.8156   -0.0000 C   0  0  0  0  0  0  0  0  0  0  0  0
    5.7920   -1.2293   -0.0000 C   0  0  0  0  0  0  0  0  0  0  0  0
    3.1915   -1.2293   -0.0000 C   0  0  0  0  0  0  0  0  0  0  0  0
    6.7376    0.8274   -0.0000 O   0  0  0  0  0  0  0  0  0  0  0  0
    4.4918    2.1277   -0.0000 N   0  0  0  0  0  0  0  0  0  0  0  0
    5.7802   -2.7187   -0.0000 N   0  0  0  0  0  0  0  0  0  0  0  0
    7.0804   -0.4728   -0.0000 C   0  0  0  0  0  0  0  0  0  0  0  0
    3.1797   -2.7187   -0.0000 C   0  0  0  0  0  0  0  0  0  0  0  0
    2.9787    2.1395   -0.0000 C   0  0  0  0  0  0  0  0  0  0  0  0
    5.2246    3.4397   -0.0000 C   0  0  0  0  0  0  0  0  0  0  0  0
    7.0686   -3.4516   -0.0000 C   0  0  0  0  0  0  0  0  0  0  0  0
    4.4681   -3.4634   -0.0000 C   0  0  0  0  0  0  0  0  0  0  0  0
    8.3689   -1.2057   -0.0000 C   0  0  0  0  0  0  0  0  0  0  0  0
    2.2222    3.4516   -0.0000 C   0  0  0  0  0  0  0  0  0  0  0  0
    4.4681    4.7518   -0.0000 C   0  0  0  0  0  0  0  0  0  0  0  0
    8.3570   -2.6951   -0.0000 O   0  0  0  0  0  0  0  0  0  0  0  0
    7.0568   -4.9409   -0.0000 C   0  0  0  0  0  0  0  0  0  0  0  0
    9.6573   -0.4492   -0.0000 C   0  0  0  0  0  0  0  0  0  0  0  0
    2.9551    4.7636   -0.0000 N   0  0  0  0  0  0  0  0  0  0  0  0
    8.3452   -5.6856   -0.0000 C   0  0  0  0  0  0  0  0  0  0  0  0
    5.7447   -5.6856   -0.0000 C   0  0  0  0  0  0  0  0  0  0  0  0
    2.1986    6.0757   -0.0000 C   0  0  0  0  0  0  0  0  0  0  0  0
    8.3334   -7.1750   -0.0000 C   0  0  0  0  0  0  0  0  0  0  0  0
    9.6336   -4.9291   -0.0000 C   0  0  0  0  0  0  0  0  0  0  0  0
    5.7329   -7.1750   -0.0000 N   0  0  0  0  0  0  0  0  0  0  0  0
    2.9433    7.3878   -0.0000 C   0  0  0  0  0  0  0  0  0  0  0  0
    0.6856    6.0875   -0.0000 C   0  0  0  0  0  0  0  0  0  0  0  0
    7.0213   -7.9197   -0.0000 C   0  0  0  0  0  0  0  0  0  0  0  0
    9.6218   -3.4161   -0.0000 F   0  0  0  0  0  0  0  0  0  0  0  0
   10.9221   -5.6620   -0.0000 F   0  0  0  0  0  0  0  0  0  0  0  0
   10.9221   -4.1726   -0.0000 F   0  0  0  0  0  0  0  0  0  0  0  0
    4.4327    7.3996   -0.0000 O   0  0  0  0  0  0  0  0  0  0  0  0
    2.1750    8.6998   -0.0000 C   0  0  0  0  0  0  0  0  0  0  0  0
   -0.0709    7.3996   -0.0000 C   0  0  0  0  0  0  0  0  0  0  0  0
    5.1655    8.7117   -0.0000 C   0  0  0  0  0  0  0  0  0  0  0  0
    0.6738    8.7117   -0.0000 C   0  0  0  0  0  0  0  0  0  0  0  0
  1  2  1  0  0  0  0
  1  3  1  0  0  0  0
  2  4  2  0  0  0  0
  2  5  1  0  0  0  0
  3  6  2  0  0  0  0
  5  7  1  0  0  0  0
  5  8  1  0  0  0  0
  5  9  1  0  0  0  0
  6 10  1  0  0  0  0
 11 10  1  6  0  0  0
 11 12  1  0  0  0  0
 11 13  1  0  0  0  0
 11 14  1  0  0  0  0
 12 15  2  0  0  0  0
 12 16  1  0  0  0  0
 13 17  1  0  0  0  0
 13 18  1  1  0  0  0
 14 19  1  0  0  0  0
 16 20  1  0  0  0  0
 16 21  1  0  0  0  0
 17 22  1  0  0  0  0
 17 23  1  0  0  0  0
 18 24  1  0  0  0  0
 20 25  1  0  0  0  0
 21 26  1  0  0  0  0
 22 27  2  0  0  0  0
 22 28  1  0  0  0  0
 24 29  1  0  0  0  0
 25 30  1  0  0  0  0
 28 31  2  0  0  0  0
 28 32  1  0  0  0  0
 30 33  1  0  0  0  0
 31 34  1  0  0  0  0
 31 35  1  0  0  0  0
 32 36  2  0  0  0  0
 33 37  2  0  0  0  0
 33 38  1  0  0  0  0
 34 39  2  0  0  0  0
 35 40  1  0  0  0  0
 35 41  1  0  0  0  0
 35 42  1  0  0  0  0
 37 43  1  0  0  0  0
 37 44  1  0  0  0  0
 38 45  2  0  0  0  0
 43 46  1  0  0  0  0
 44 47  2  0  0  0  0
  4  6  1  0  0  0  0
 19 23  1  0  0  0  0
 26 30  1  0  0  0  0
 36 39  1  0  0  0  0
 45 47  1  0  0  0  0
M  END
>  <MolRegNo>
2762977

>  <m>
=

>  <Value>
10000

>  <Unit>
nM

>  <Type>
IC50

>  <pValue>
5

>  <Ligand Efficiency>
0

>  <Binding Efficiency>
0

>  <Surface Efficiency>
0

>  <Assay Index>
1561885

>  <Assay Category>


>  <Assay Organism>
Homo sapiens

>  <Target ID>
17045

>  <Target Name>
Cytochrome P450 3A4

>  <Target Organism>
Homo sapiens

>  <Target Description>
Target is a single protein chain

>  <Sequence Accession>
P08684

>  <Reference>


>  <Pubmed ID>
35158044

>  <DOI>
10.1016/j.bmcl.2022.128625

$$$$
2775308
Actelion Java MolfileCreator 1.0

 48 52  0  0  0  0  0  0  0  0999 V2000
    0.0000   -0.0000   -0.0000 S   0  0  0  0  0  0  0  0  0  0  0  0
   -0.0118    1.5128   -0.0000 C   0  0  0  0  0  0  0  0  0  0  0  0
    1.4183   -0.4491   -0.0000 C   0  0  0  0  0  0  0  0  0  0  0  0
    1.4064    1.9856   -0.0000 C   0  0  0  0  0  0  0  0  0  0  0  0
   -1.3237    2.2692   -0.0000 C   0  0  0  0  0  0  0  0  0  0  0  0
    2.2928    0.7800   -0.0000 C   0  0  0  0  0  0  0  0  0  0  0  0
   -2.6356    1.5364   -0.0000 F   0  0  0  0  0  0  0  0  0  0  0  0
   -1.3355    3.7820   -0.0000 F   0  0  0  0  0  0  0  0  0  0  0  0
   -2.6356    3.0256   -0.0000 F   0  0  0  0  0  0  0  0  0  0  0  0
    3.7820    0.7919   -0.0000 O   0  0  0  0  0  0  0  0  0  0  0  0
    4.5148   -0.4964   -0.0000 C   0  0  0  0  0  0  0  0  0  0  0  0
    5.2594    0.8155   -0.0000 C   0  0  0  0  0  0  0  0  0  0  0  0
    5.8030   -1.2292   -0.0000 C   0  0  0  0  0  0  0  0  0  0  0  0
    3.2029   -1.2292   -0.0000 C   0  0  0  0  0  0  0  0  0  0  0  0
    6.7485    0.8273   -0.0000 O   0  0  0  0  0  0  0  0  0  0  0  0
    4.5030    2.1274   -0.0000 N   0  0  0  0  0  0  0  0  0  0  0  0
    5.7912   -2.7183   -0.0000 N   0  0  0  0  0  0  0  0  0  0  0  0
    7.0913   -0.4728   -0.0000 C   0  0  0  0  0  0  0  0  0  0  0  0
    3.1911   -2.7183   -0.0000 C   0  0  0  0  0  0  0  0  0  0  0  0
    2.9902    2.1392   -0.0000 C   0  0  0  0  0  0  0  0  0  0  0  0
    5.2357    3.4393   -0.0000 C   0  0  0  0  0  0  0  0  0  0  0  0
    7.0795   -3.4511   -0.0000 C   0  0  0  0  0  0  0  0  0  0  0  0
    4.4793   -3.4629   -0.0000 C   0  0  0  0  0  0  0  0  0  0  0  0
    8.3795   -1.2055   -0.0000 C   0  0  0  0  0  0  0  0  0  0  0  0
    2.2338    3.4511   -0.0000 C   0  0  0  0  0  0  0  0  0  0  0  0
    4.4793    4.7512   -0.0000 C   0  0  0  0  0  0  0  0  0  0  0  0
    8.3677   -2.6947   -0.0000 O   0  0  0  0  0  0  0  0  0  0  0  0
    7.0676   -4.9403   -0.0000 C   0  0  0  0  0  0  0  0  0  0  0  0
    9.6678   -0.4491   -0.0000 C   0  0  0  0  0  0  0  0  0  0  0  0
    2.9665    4.7630   -0.0000 N   0  0  0  0  0  0  0  0  0  0  0  0
    5.7558   -5.6848   -0.0000 C   0  0  0  0  0  0  0  0  0  0  0  0
    8.3559   -5.6848   -0.0000 C   0  0  0  0  0  0  0  0  0  0  0  0
    2.2101    6.0749   -0.0000 C   0  0  0  0  0  0  0  0  0  0  0  0
    4.4439   -4.9284   -0.0000 O   0  0  0  0  0  0  0  0  0  0  0  0
    5.7558   -7.1740   -0.0000 N   0  0  0  0  0  0  0  0  0  0  0  0
    8.3441   -7.1740   -0.0000 C   0  0  0  0  0  0  0  0  0  0  0  0
    9.6441   -4.9284   -0.0000 C   0  0  0  0  0  0  0  0  0  0  0  0
    2.9547    7.3867   -0.0000 C   0  0  0  0  0  0  0  0  0  0  0  0
    0.6973    6.0867   -0.0000 C   0  0  0  0  0  0  0  0  0  0  0  0
    7.0440   -7.9068   -0.0000 C   0  0  0  0  0  0  0  0  0  0  0  0
    9.6323   -3.4156   -0.0000 F   0  0  0  0  0  0  0  0  0  0  0  0
   10.9324   -5.6612   -0.0000 F   0  0  0  0  0  0  0  0  0  0  0  0
   10.9324   -4.1720   -0.0000 F   0  0  0  0  0  0  0  0  0  0  0  0
    4.4439    7.3986   -0.0000 O   0  0  0  0  0  0  0  0  0  0  0  0
    2.1865    8.6986   -0.0000 C   0  0  0  0  0  0  0  0  0  0  0  0
   -0.0591    7.3986   -0.0000 C   0  0  0  0  0  0  0  0  0  0  0  0
    5.1766    8.7105   -0.0000 C   0  0  0  0  0  0  0  0  0  0  0  0
    0.6855    8.7105   -0.0000 C   0  0  0  0  0  0  0  0  0  0  0  0
  1  2  1  0  0  0  0
  1  3  1  0  0  0  0
  2  4  2  0  0  0  0
  2  5  1  0  0  0  0
  3  6  2  0  0  0  0
  5  7  1  0  0  0  0
  5  8  1  0  0  0  0
  5  9  1  0  0  0  0
  6 10  1  0  0  0  0
 11 10  1  6  0  0  0
 11 12  1  0  0  0  0
 11 13  1  0  0  0  0
 11 14  1  0  0  0  0
 12 15  2  0  0  0  0
 12 16  1  0  0  0  0
 13 17  1  0  0  0  0
 13 18  1  1  0  0  0
 14 19  1  0  0  0  0
 16 20  1  0  0  0  0
 16 21  1  0  0  0  0
 17 22  1  0  0  0  0
 17 23  1  0  0  0  0
 18 24  1  0  0  0  0
 20 25  1  0  0  0  0
 21 26  1  0  0  0  0
 22 27  2  0  0  0  0
 22 28  1  0  0  0  0
 24 29  1  0  0  0  0
 25 30  1  0  0  0  0
 28 31  2  0  0  0  0
 28 32  1  0  0  0  0
 30 33  1  0  0  0  0
 31 34  1  0  0  0  0
 31 35  1  0  0  0  0
 32 36  2  0  0  0  0
 32 37  1  0  0  0  0
 33 38  2  0  0  0  0
 33 39  1  0  0  0  0
 35 40  2  0  0  0  0
 37 41  1  0  0  0  0
 37 42  1  0  0  0  0
 37 43  1  0  0  0  0
 38 44  1  0  0  0  0
 38 45  1  0  0  0  0
 39 46  2  0  0  0  0
 44 47  1  0  0  0  0
 45 48  2  0  0  0  0
  4  6  1  0  0  0  0
 19 23  1  0  0  0  0
 26 30  1  0  0  0  0
 36 40  1  0  0  0  0
 46 48  1  0  0  0  0
M  END
>  <MolRegNo>
2775308

>  <m>
=

>  <Value>
20000

>  <Unit>
nM

>  <Type>
IC50

>  <pValue>
4.7

>  <Ligand Efficiency>
0

>  <Binding Efficiency>
0

>  <Surface Efficiency>
0

>  <Assay Index>
1561885

>  <Assay Category>


>  <Assay Organism>
Homo sapiens

>  <Target ID>
17045

>  <Target Name>
Cytochrome P450 3A4

>  <Target Organism>
Homo sapiens

>  <Target Description>
Target is a single protein chain

>  <Sequence Accession>
P08684

>  <Reference>


>  <Pubmed ID>
35158044

>  <DOI>
10.1016/j.bmcl.2022.128625

$$$$
2085912
Actelion Java MolfileCreator 1.0

 52 56  0  0  0  0  0  0  0  0999 V2000
    0.0000   -0.0000   -0.0000 S   0  0  0  0  0  0  0  0  0  0  0  0
    1.1493    0.9170   -0.0000 C   0  0  0  0  0  0  0  0  0  0  0  0
   -1.2715    0.7580   -0.0000 C   0  0  0  0  0  0  0  0  0  0  0  0
    0.5502    2.2863   -0.0000 C   0  0  0  0  0  0  0  0  0  0  0  0
    2.5553    0.5624   -0.0000 C   0  0  0  0  0  0  0  0  0  0  0  0
   -0.9047    2.2374   -0.0000 C   0  0  0  0  0  0  0  0  0  0  0  0
    2.1763   -0.8558   -0.0000 F   0  0  0  0  0  0  0  0  0  0  0  0
    3.5945   -0.4646   -0.0000 F   0  0  0  0  0  0  0  0  0  0  0  0
    3.5823    1.6261   -0.0000 F   0  0  0  0  0  0  0  0  0  0  0  0
   -1.8584    3.3867   -0.0000 O   0  0  0  0  0  0  0  0  0  0  0  0
   -3.3500    3.1422   -0.0000 C   0  0  0  0  0  0  0  0  0  0  0  0
   -3.3255    4.6827   -0.0000 C   0  0  0  0  0  0  0  0  0  0  0  0
   -4.8294    3.4356   -0.0000 C   0  0  0  0  0  0  0  0  0  0  0  0
   -2.8243    1.7606   -0.0000 C   0  0  0  0  0  0  0  0  0  0  0  0
   -4.5849    5.4896   -0.0000 O   0  0  0  0  0  0  0  0  0  0  0  0
   -2.0662    5.3918   -0.0000 N   0  0  0  0  0  0  0  0  0  0  0  0
   -5.7708    2.2863   -0.0000 N   0  0  0  0  0  0  0  0  0  0  0  0
   -5.3673    4.7927   -0.0000 C   0  0  0  0  0  0  0  0  0  0  0  0
   -3.8024    0.6480   -0.0000 C   0  0  0  0  0  0  0  0  0  0  0  0
   -2.0173    6.8956   -0.0000 C   0  0  0  0  0  0  0  0  0  0  0  0
   -0.7947    4.6582   -0.0000 C   0  0  0  0  0  0  0  0  0  0  0  0
   -7.2257    2.5553   -0.0000 C   0  0  0  0  0  0  0  0  0  0  0  0
   -5.2940    0.8803   -0.0000 C   0  0  0  0  0  0  0  0  0  0  0  0
   -6.8467    5.0250   -0.0000 C   0  0  0  0  0  0  0  0  0  0  0  0
   -0.7458    7.6414   -0.0000 C   0  0  0  0  0  0  0  0  0  0  0  0
    0.5013    5.3551   -0.0000 C   0  0  0  0  0  0  0  0  0  0  0  0
   -7.7392    3.9613   -0.0000 O   0  0  0  0  0  0  0  0  0  0  0  0
   -8.1794    1.4427   -0.0000 C   0  0  0  0  0  0  0  0  0  0  0  0
   -7.3969    6.4188   -0.0000 C   0  0  0  0  0  0  0  0  0  0  0  0
    0.5013    6.8589   -0.0000 N   0  0  0  0  0  0  0  0  0  0  0  0
   -9.7077    1.7606   -0.0000 C   0  0  0  0  0  0  0  0  0  0  0  0
   -7.6414    0.0122   -0.0000 C   0  0  0  0  0  0  0  0  0  0  0  0
    1.7973    7.5925   -0.0000 C   0  0  0  0  0  0  0  0  0  0  0  0
  -10.7102    0.5624   -0.0000 C   0  0  0  0  0  0  0  0  0  0  0  0
  -10.2089    3.1544   -0.0000 C   0  0  0  0  0  0  0  0  0  0  0  0
   -8.6807   -1.1493   -0.0000 N   0  0  0  0  0  0  0  0  0  0  0  0
    1.7728    9.1575   -0.0000 C   0  0  0  0  0  0  0  0  0  0  0  0
    3.1055    6.7856   -0.0000 C   0  0  0  0  0  0  0  0  0  0  0  0
  -10.2334   -0.8925   -0.0000 C   0  0  0  0  0  0  0  0  0  0  0  0
  -11.6150    2.6776   -0.0000 F   0  0  0  0  0  0  0  0  0  0  0  0
  -11.3460    4.1325   -0.0000 F   0  0  0  0  0  0  0  0  0  0  0  0
   -9.2553    4.2914   -0.0000 F   0  0  0  0  0  0  0  0  0  0  0  0
    0.5013    9.9155   -0.0000 O   0  0  0  0  0  0  0  0  0  0  0  0
    3.1299    9.9033   -0.0000 C   0  0  0  0  0  0  0  0  0  0  0  0
    4.4381    7.5803   -0.0000 C   0  0  0  0  0  0  0  0  0  0  0  0
   -0.7947    9.1942   -0.0000 C   0  0  0  0  0  0  0  0  0  0  0  0
    4.4626    9.1452   -0.0000 C   0  0  0  0  0  0  0  0  0  0  0  0
   -2.0907    9.9522   -0.0000 C   0  0  0  0  0  0  0  0  0  0  0  0
   -3.3867    9.2186   -0.0000 C   0  0  0  0  0  0  0  0  0  0  0  0
   -4.6827    9.9766   -0.0000 C   0  0  0  0  0  0  0  0  0  0  0  0
   -4.6949   11.4682   -0.0000 O   0  0  0  0  0  0  0  0  0  0  0  0
   -5.9786    9.2431   -0.0000 O   0  0  0  0  0  0  0  0  0  0  0  0
  1  2  1  0  0  0  0
  1  3  1  0  0  0  0
  2  4  2  0  0  0  0
  2  5  1  0  0  0  0
  3  6  2  0  0  0  0
  5  7  1  0  0  0  0
  5  8  1  0  0  0  0
  5  9  1  0  0  0  0
  6 10  1  0  0  0  0
 11 10  1  1  0  0  0
 11 12  1  0  0  0  0
 11 13  1  0  0  0  0
 11 14  1  0  0  0  0
 12 15  2  0  0  0  0
 12 16  1  0  0  0  0
 13 17  1  0  0  0  0
 13 18  1  6  0  0  0
 14 19  1  0  0  0  0
 16 20  1  0  0  0  0
 16 21  1  0  0  0  0
 17 22  1  0  0  0  0
 17 23  1  0  0  0  0
 18 24  1  0  0  0  0
 20 25  1  0  0  0  0
 21 26  1  0  0  0  0
 22 27  2  0  0  0  0
 22 28  1  0  0  0  0
 24 29  1  0  0  0  0
 25 30  1  0  0  0  0
 28 31  2  0  0  0  0
 28 32  1  0  0  0  0
 30 33  1  0  0  0  0
 31 34  1  0  0  0  0
 31 35  1  0  0  0  0
 32 36  2  0  0  0  0
 33 37  2  0  0  0  0
 33 38  1  0  0  0  0
 34 39  2  0  0  0  0
 35 40  1  0  0  0  0
 35 41  1  0  0  0  0
 35 42  1  0  0  0  0
 37 43  1  0  0  0  0
 37 44  1  0  0  0  0
 38 45  2  0  0  0  0
 43 46  1  0  0  0  0
 44 47  2  0  0  0  0
 46 48  1  0  0  0  0
 48 49  1  0  0  0  0
 49 50  1  0  0  0  0
 50 51  2  0  0  0  0
 50 52  1  0  0  0  0
  4  6  1  0  0  0  0
 19 23  1  0  0  0  0
 26 30  1  0  0  0  0
 36 39  1  0  0  0  0
 45 47  1  0  0  0  0
M  END
>  <MolRegNo>
2085912

>  <m>
=

>  <Value>
20000

>  <Unit>
nM

>  <Type>
IC50

>  <pValue>
4.7

>  <Ligand Efficiency>
0

>  <Binding Efficiency>
0

>  <Surface Efficiency>
0

>  <Assay Index>
1561885

>  <Assay Category>


>  <Assay Organism>
Homo sapiens

>  <Target ID>
17045

>  <Target Name>
Cytochrome P450 3A4

>  <Target Organism>
Homo sapiens

>  <Target Description>
Target is a single protein chain

>  <Sequence Accession>
P08684

>  <Reference>


>  <Pubmed ID>
35158044

>  <DOI>
10.1016/j.bmcl.2022.128625

$$$$
2751051
Actelion Java MolfileCreator 1.0

 53 57  0  0  0  0  0  0  0  0999 V2000
    0.0000   -0.0000   -0.0000 S   0  0  0  0  0  0  0  0  0  0  0  0
   -0.0118    1.5132   -0.0000 C   0  0  0  0  0  0  0  0  0  0  0  0
    1.4186   -0.4492   -0.0000 C   0  0  0  0  0  0  0  0  0  0  0  0
    1.4068    1.9861   -0.0000 C   0  0  0  0  0  0  0  0  0  0  0  0
   -1.3241    2.2698   -0.0000 C   0  0  0  0  0  0  0  0  0  0  0  0
    2.2935    0.7802   -0.0000 C   0  0  0  0  0  0  0  0  0  0  0  0
   -2.6363    1.5368   -0.0000 F   0  0  0  0  0  0  0  0  0  0  0  0
   -1.3359    3.7830   -0.0000 F   0  0  0  0  0  0  0  0  0  0  0  0
   -2.6363    3.0264   -0.0000 F   0  0  0  0  0  0  0  0  0  0  0  0
    3.7830    0.7921   -0.0000 O   0  0  0  0  0  0  0  0  0  0  0  0
    4.5160   -0.4965   -0.0000 C   0  0  0  0  0  0  0  0  0  0  0  0
    5.2607    0.8157   -0.0000 C   0  0  0  0  0  0  0  0  0  0  0  0
    5.8046   -1.2413   -0.0000 C   0  0  0  0  0  0  0  0  0  0  0  0
    3.2037   -1.2413   -0.0000 C   0  0  0  0  0  0  0  0  0  0  0  0
    6.7503    0.8275   -0.0000 O   0  0  0  0  0  0  0  0  0  0  0  0
    4.5041    2.1279   -0.0000 N   0  0  0  0  0  0  0  0  0  0  0  0
    5.7927   -2.7309   -0.0000 N   0  0  0  0  0  0  0  0  0  0  0  0
    7.0931   -0.4847   -0.0000 C   0  0  0  0  0  0  0  0  0  0  0  0
    3.1919   -2.7309   -0.0000 C   0  0  0  0  0  0  0  0  0  0  0  0
    2.9909    2.1398   -0.0000 C   0  0  0  0  0  0  0  0  0  0  0  0
    5.2371    3.4402   -0.0000 C   0  0  0  0  0  0  0  0  0  0  0  0
    7.0813   -3.4638   -0.0000 C   0  0  0  0  0  0  0  0  0  0  0  0
    4.4805   -3.4756   -0.0000 C   0  0  0  0  0  0  0  0  0  0  0  0
    8.3817   -1.2177   -0.0000 C   0  0  0  0  0  0  0  0  0  0  0  0
    2.2343    3.4520   -0.0000 C   0  0  0  0  0  0  0  0  0  0  0  0
    4.4805    4.7524   -0.0000 C   0  0  0  0  0  0  0  0  0  0  0  0
    8.3699   -2.7072   -0.0000 O   0  0  0  0  0  0  0  0  0  0  0  0
    7.0695   -4.9534   -0.0000 C   0  0  0  0  0  0  0  0  0  0  0  0
    9.6703   -0.4611   -0.0000 C   0  0  0  0  0  0  0  0  0  0  0  0
    2.9673    4.7642   -0.0000 N   0  0  0  0  0  0  0  0  0  0  0  0
    5.7573   -5.6982   -0.0000 C   0  0  0  0  0  0  0  0  0  0  0  0
    8.3581   -5.6982   -0.0000 C   0  0  0  0  0  0  0  0  0  0  0  0
    2.2107    6.0765   -0.0000 C   0  0  0  0  0  0  0  0  0  0  0  0
    4.4450   -4.9416   -0.0000 O   0  0  0  0  0  0  0  0  0  0  0  0
    5.7573   -7.1877   -0.0000 N   0  0  0  0  0  0  0  0  0  0  0  0
    8.3463   -7.1877   -0.0000 C   0  0  0  0  0  0  0  0  0  0  0  0
    9.6467   -4.9416   -0.0000 C   0  0  0  0  0  0  0  0  0  0  0  0
    2.9555    7.3887   -0.0000 C   0  0  0  0  0  0  0  0  0  0  0  0
    0.6975    6.0883   -0.0000 C   0  0  0  0  0  0  0  0  0  0  0  0
    7.0459   -7.9207   -0.0000 C   0  0  0  0  0  0  0  0  0  0  0  0
    9.6349   -3.4284   -0.0000 F   0  0  0  0  0  0  0  0  0  0  0  0
   10.9353   -5.6745   -0.0000 F   0  0  0  0  0  0  0  0  0  0  0  0
   10.9353   -4.1850   -0.0000 F   0  0  0  0  0  0  0  0  0  0  0  0
    4.4450    7.4005   -0.0000 O   0  0  0  0  0  0  0  0  0  0  0  0
    2.1871    8.7009   -0.0000 C   0  0  0  0  0  0  0  0  0  0  0  0
   -0.0591    7.4005   -0.0000 C   0  0  0  0  0  0  0  0  0  0  0  0
    5.1780    8.7127   -0.0000 C   0  0  0  0  0  0  0  0  0  0  0  0
    0.6857    8.7127   -0.0000 C   0  0  0  0  0  0  0  0  0  0  0  0
    6.6676    8.7246   -0.0000 C   0  0  0  0  0  0  0  0  0  0  0  0
    7.4005   10.0368   -0.0000 C   0  0  0  0  0  0  0  0  0  0  0  0
    8.8901   10.0486   -0.0000 C   0  0  0  0  0  0  0  0  0  0  0  0
    9.6230   11.3609   -0.0000 O   0  0  0  0  0  0  0  0  0  0  0  0
    9.6230    8.7600   -0.0000 O   0  0  0  0  0  0  0  0  0  0  0  0
  1  2  1  0  0  0  0
  1  3  1  0  0  0  0
  2  4  2  0  0  0  0
  2  5  1  0  0  0  0
  3  6  2  0  0  0  0
  5  7  1  0  0  0  0
  5  8  1  0  0  0  0
  5  9  1  0  0  0  0
  6 10  1  0  0  0  0
 11 10  1  6  0  0  0
 11 12  1  0  0  0  0
 11 13  1  0  0  0  0
 11 14  1  0  0  0  0
 12 15  2  0  0  0  0
 12 16  1  0  0  0  0
 13 17  1  0  0  0  0
 13 18  1  1  0  0  0
 14 19  1  0  0  0  0
 16 20  1  0  0  0  0
 16 21  1  0  0  0  0
 17 22  1  0  0  0  0
 17 23  1  0  0  0  0
 18 24  1  0  0  0  0
 20 25  1  0  0  0  0
 21 26  1  0  0  0  0
 22 27  2  0  0  0  0
 22 28  1  0  0  0  0
 24 29  1  0  0  0  0
 25 30  1  0  0  0  0
 28 31  2  0  0  0  0
 28 32  1  0  0  0  0
 30 33  1  0  0  0  0
 31 34  1  0  0  0  0
 31 35  1  0  0  0  0
 32 36  2  0  0  0  0
 32 37  1  0  0  0  0
 33 38  2  0  0  0  0
 33 39  1  0  0  0  0
 35 40  2  0  0  0  0
 37 41  1  0  0  0  0
 37 42  1  0  0  0  0
 37 43  1  0  0  0  0
 38 44  1  0  0  0  0
 38 45  1  0  0  0  0
 39 46  2  0  0  0  0
 44 47  1  0  0  0  0
 45 48  2  0  0  0  0
 47 49  1  0  0  0  0
 49 50  1  0  0  0  0
 50 51  1  0  0  0  0
 51 52  2  0  0  0  0
 51 53  1  0  0  0  0
  4  6  1  0  0  0  0
 19 23  1  0  0  0  0
 26 30  1  0  0  0  0
 36 40  1  0  0  0  0
 46 48  1  0  0  0  0
M  END
>  <MolRegNo>
2751051

>  <m>
=

>  <Value>
50000

>  <Unit>
nM

>  <Type>
IC50

>  <pValue>
4.3

>  <Ligand Efficiency>
0

>  <Binding Efficiency>
0

>  <Surface Efficiency>
0

>  <Assay Index>
1561885

>  <Assay Category>


>  <Assay Organism>
Homo sapiens

>  <Target ID>
17045

>  <Target Name>
Cytochrome P450 3A4

>  <Target Organism>
Homo sapiens

>  <Target Description>
Target is a single protein chain

>  <Sequence Accession>
P08684

>  <Reference>


>  <Pubmed ID>
35158044

>  <DOI>
10.1016/j.bmcl.2022.128625

$$$$
2752453
Actelion Java MolfileCreator 1.0

 27 30  0  0  0  0  0  0  0  0999 V2000
    0.0000   -0.0000   -0.0000 Br  0  0  0  0  0  0  0  0  0  0  0  0
    1.0816    0.6464   -0.0000 C   0  0  0  0  0  0  0  0  0  0  0  0
    2.4366   -0.1367   -0.0000 C   0  0  0  0  0  0  0  0  0  0  0  0
    1.0691    2.2377   -0.0000 C   0  0  0  0  0  0  0  0  0  0  0  0
    2.4242   -1.7031   -0.0000 N   0  0  0  0  0  0  0  0  0  0  0  0
    3.7916    0.6713   -0.0000 C   0  0  0  0  0  0  0  0  0  0  0  0
    2.4242    3.0458   -0.0000 C   0  0  0  0  0  0  0  0  0  0  0  0
    3.7792   -2.4863   -0.0000 C   0  0  0  0  0  0  0  0  0  0  0  0
    5.1467   -0.1119   -0.0000 N   0  0  0  0  0  0  0  0  0  0  0  0
    3.7792    2.2626   -0.0000 C   0  0  0  0  0  0  0  0  0  0  0  0
    5.1343   -1.6783   -0.0000 C   0  0  0  0  0  0  0  0  0  0  0  0
    4.0900   -4.0154   -0.0000 C   0  0  0  0  0  0  0  0  0  0  0  0
    6.2904   -2.7225   -0.0000 N   0  0  0  0  0  0  0  0  0  0  0  0
    5.6440   -4.1646   -0.0000 C   0  0  0  0  0  0  0  0  0  0  0  0
    3.0209   -5.1716   -0.0000 C   0  0  0  0  0  0  0  0  0  0  0  0
    7.8195   -2.3869   -0.0000 C   0  0  0  0  0  0  0  0  0  0  0  0
    6.2655   -5.2462   -0.0000 N   0  0  0  0  0  0  0  0  0  0  0  0
    3.4063   -6.3650   -0.0000 O   0  0  0  0  0  0  0  0  0  0  0  0
    1.7777   -4.8981   -0.0000 N   0  0  0  0  0  0  0  0  0  0  0  0
    8.1800   -0.8329   -0.0000 C   0  0  0  0  0  0  0  0  0  0  0  0
    8.9383   -3.4560   -0.0000 C   0  0  0  0  0  0  0  0  0  0  0  0
    9.6842   -0.3729   -0.0000 C   0  0  0  0  0  0  0  0  0  0  0  0
    7.2476    0.0497   -0.0000 C   0  0  0  0  0  0  0  0  0  0  0  0
   10.4426   -2.9960   -0.0000 C   0  0  0  0  0  0  0  0  0  0  0  0
    8.6276   -4.6743   -0.0000 C   0  0  0  0  0  0  0  0  0  0  0  0
    9.9702    0.8702   -0.0000 O   0  0  0  0  0  0  0  0  0  0  0  0
   10.8155   -1.4545   -0.0000 C   0  0  0  0  0  0  0  0  0  0  0  0
  1  2  1  0  0  0  0
  2  3  1  0  0  0  0
  2  4  2  0  0  0  0
  3  5  2  0  0  0  0
  3  6  1  0  0  0  0
  4  7  1  0  0  0  0
  5  8  1  0  0  0  0
  6  9  2  0  0  0  0
  6 10  1  0  0  0  0
  8 11  2  0  0  0  0
  8 12  1  0  0  0  0
 11 13  1  0  0  0  0
 12 14  2  0  0  0  0
 12 15  1  0  0  0  0
 13 16  1  0  0  0  0
 14 17  1  0  0  0  0
 15 18  2  0  0  0  0
 15 19  1  0  0  0  0
 16 20  2  0  0  0  0
 16 21  1  0  0  0  0
 20 22  1  0  0  0  0
 20 23  1  0  0  0  0
 21 24  2  0  0  0  0
 21 25  1  0  0  0  0
 22 26  1  0  0  0  0
 22 27  2  0  0  0  0
  7 10  2  0  0  0  0
  9 11  1  0  0  0  0
 13 14  1  0  0  0  0
 24 27  1  0  0  0  0
M  END
>  <MolRegNo>
2752453

>  <m>
=

>  <Value>
9000

>  <Unit>
nM

>  <Type>
IC50

>  <pValue>
5.05

>  <Ligand Efficiency>
0

>  <Binding Efficiency>
0

>  <Surface Efficiency>
0

>  <Assay Index>
1568168

>  <Assay Category>


>  <Assay Organism>
Homo sapiens

>  <Target ID>
17045

>  <Target Name>
Cytochrome P450 3A4

>  <Target Organism>
Homo sapiens

>  <Target Description>
Target is a single protein chain

>  <Sequence Accession>
P08684

>  <Reference>
J Med Chem 65 (15.0), 10251-10284 (2022)

>  <Pubmed ID>
35880755

>  <DOI>
10.1021/acs.jmedchem.2c00552

$$$$
2773034
Actelion Java MolfileCreator 1.0

 25 28  0  0  0  0  0  0  0  0999 V2000
    0.0000   -0.0000   -0.0000 O   0  0  0  0  0  0  0  0  0  0  0  0
   -0.4085    1.2130   -0.0000 C   0  0  0  0  0  0  0  0  0  0  0  0
   -1.6463    1.4854   -0.0000 N   0  0  0  0  0  0  0  0  0  0  0  0
    0.6313    2.3889   -0.0000 C   0  0  0  0  0  0  0  0  0  0  0  0
    2.1785    2.2404   -0.0000 C   0  0  0  0  0  0  0  0  0  0  0  0
    0.2971    3.9362   -0.0000 C   0  0  0  0  0  0  0  0  0  0  0  0
    2.8098    3.6886   -0.0000 N   0  0  0  0  0  0  0  0  0  0  0  0
    2.7974    1.1635   -0.0000 N   0  0  0  0  0  0  0  0  0  0  0  0
   -1.0769    4.7284   -0.0000 N   0  0  0  0  0  0  0  0  0  0  0  0
    1.6463    4.7284   -0.0000 C   0  0  0  0  0  0  0  0  0  0  0  0
    4.3323    4.0228   -0.0000 C   0  0  0  0  0  0  0  0  0  0  0  0
   -1.0893    6.3128   -0.0000 C   0  0  0  0  0  0  0  0  0  0  0  0
    1.6339    6.3128   -0.0000 N   0  0  0  0  0  0  0  0  0  0  0  0
    4.6912    5.5701   -0.0000 C   0  0  0  0  0  0  0  0  0  0  0  0
    5.4463    2.9583   -0.0000 C   0  0  0  0  0  0  0  0  0  0  0  0
    0.2599    7.1173   -0.0000 C   0  0  0  0  0  0  0  0  0  0  0  0
   -2.4632    7.1173   -0.0000 C   0  0  0  0  0  0  0  0  0  0  0  0
    6.1890    6.0281   -0.0000 C   0  0  0  0  0  0  0  0  0  0  0  0
    3.7629    6.4489   -0.0000 C   0  0  0  0  0  0  0  0  0  0  0  0
    6.9440    3.4163   -0.0000 C   0  0  0  0  0  0  0  0  0  0  0  0
    5.1369    1.7453   -0.0000 C   0  0  0  0  0  0  0  0  0  0  0  0
   -3.9609    7.1297   -0.0000 C   0  0  0  0  0  0  0  0  0  0  0  0
   -3.1811    8.4418   -0.0000 C   0  0  0  0  0  0  0  0  0  0  0  0
    6.4737    7.2659   -0.0000 O   0  0  0  0  0  0  0  0  0  0  0  0
    7.3154    4.9512   -0.0000 C   0  0  0  0  0  0  0  0  0  0  0  0
  1  2  2  0  0  0  0
  2  3  1  0  0  0  0
  2  4  1  0  0  0  0
  4  5  2  0  0  0  0
  4  6  1  0  0  0  0
  5  7  1  0  0  0  0
  5  8  1  0  0  0  0
  6  9  2  0  0  0  0
  6 10  1  0  0  0  0
  7 11  1  0  0  0  0
  9 12  1  0  0  0  0
 10 13  2  0  0  0  0
 11 14  2  0  0  0  0
 11 15  1  0  0  0  0
 12 16  2  0  0  0  0
 12 17  1  0  0  0  0
 14 18  1  0  0  0  0
 14 19  1  0  0  0  0
 15 20  2  0  0  0  0
 15 21  1  0  0  0  0
 17 22  1  0  0  0  0
 17 23  1  0  0  0  0
 18 24  1  0  0  0  0
 18 25  2  0  0  0  0
  7 10  1  0  0  0  0
 13 16  1  0  0  0  0
 20 25  1  0  0  0  0
 22 23  1  0  0  0  0
M  END
>  <MolRegNo>
2773034

>  <m>
=

>  <Value>
13000

>  <Unit>
nM

>  <Type>
IC50

>  <pValue>
4.89

>  <Ligand Efficiency>
0

>  <Binding Efficiency>
0

>  <Surface Efficiency>
0

>  <Assay Index>
1568168

>  <Assay Category>


>  <Assay Organism>
Homo sapiens

>  <Target ID>
17045

>  <Target Name>
Cytochrome P450 3A4

>  <Target Organism>
Homo sapiens

>  <Target Description>
Target is a single protein chain

>  <Sequence Accession>
P08684

>  <Reference>
J Med Chem 65 (15.0), 10251-10284 (2022)

>  <Pubmed ID>
35880755

>  <DOI>
10.1021/acs.jmedchem.2c00552

$$$$
2775751
Actelion Java MolfileCreator 1.0

 27 30  0  0  0  0  0  0  0  0999 V2000
    0.0000   -0.0000   -0.0000 S   0  0  0  0  0  0  0  0  0  0  0  0
    1.3964    0.6673   -0.0000 C   0  0  0  0  0  0  0  0  0  0  0  0
   -1.0627    1.1739   -0.0000 C   0  0  0  0  0  0  0  0  0  0  0  0
    1.2357    2.2243   -0.0000 N   0  0  0  0  0  0  0  0  0  0  0  0
    2.7433   -0.1112   -0.0000 C   0  0  0  0  0  0  0  0  0  0  0  0
   -0.2966    2.5456   -0.0000 C   0  0  0  0  0  0  0  0  0  0  0  0
    2.7309   -1.6682   -0.0000 N   0  0  0  0  0  0  0  0  0  0  0  0
    4.0902    0.6920   -0.0000 C   0  0  0  0  0  0  0  0  0  0  0  0
    4.0779   -2.4344   -0.0000 C   0  0  0  0  0  0  0  0  0  0  0  0
    5.4372   -0.0865   -0.0000 N   0  0  0  0  0  0  0  0  0  0  0  0
    5.4248   -1.6435   -0.0000 C   0  0  0  0  0  0  0  0  0  0  0  0
    4.3868   -3.9543   -0.0000 C   0  0  0  0  0  0  0  0  0  0  0  0
    6.5740   -2.6815   -0.0000 N   0  0  0  0  0  0  0  0  0  0  0  0
    5.9315   -4.1026   -0.0000 C   0  0  0  0  0  0  0  0  0  0  0  0
    3.3241   -5.1035   -0.0000 C   0  0  0  0  0  0  0  0  0  0  0  0
    8.0940   -2.3479   -0.0000 C   0  0  0  0  0  0  0  0  0  0  0  0
    6.5493   -5.1777   -0.0000 N   0  0  0  0  0  0  0  0  0  0  0  0
    3.7072   -6.2898   -0.0000 O   0  0  0  0  0  0  0  0  0  0  0  0
    2.0884   -4.8317   -0.0000 N   0  0  0  0  0  0  0  0  0  0  0  0
    8.4523   -0.8032   -0.0000 C   0  0  0  0  0  0  0  0  0  0  0  0
    9.2061   -3.4106   -0.0000 C   0  0  0  0  0  0  0  0  0  0  0  0
    9.9476   -0.3460   -0.0000 C   0  0  0  0  0  0  0  0  0  0  0  0
    7.5255    0.0741   -0.0000 C   0  0  0  0  0  0  0  0  0  0  0  0
   10.7013   -2.9534   -0.0000 C   0  0  0  0  0  0  0  0  0  0  0  0
    8.8972   -4.6216   -0.0000 C   0  0  0  0  0  0  0  0  0  0  0  0
   10.2318    0.8897   -0.0000 O   0  0  0  0  0  0  0  0  0  0  0  0
   11.0721   -1.4211   -0.0000 C   0  0  0  0  0  0  0  0  0  0  0  0
  1  2  1  0  0  0  0
  1  3  1  0  0  0  0
  2  4  2  0  0  0  0
  2  5  1  0  0  0  0
  3  6  2  0  0  0  0
  5  7  2  0  0  0  0
  5  8  1  0  0  0  0
  7  9  1  0  0  0  0
  8 10  2  0  0  0  0
  9 11  2  0  0  0  0
  9 12  1  0  0  0  0
 11 13  1  0  0  0  0
 12 14  2  0  0  0  0
 12 15  1  0  0  0  0
 13 16  1  0  0  0  0
 14 17  1  0  0  0  0
 15 18  2  0  0  0  0
 15 19  1  0  0  0  0
 16 20  2  0  0  0  0
 16 21  1  0  0  0  0
 20 22  1  0  0  0  0
 20 23  1  0  0  0  0
 21 24  2  0  0  0  0
 21 25  1  0  0  0  0
 22 26  1  0  0  0  0
 22 27  2  0  0  0  0
  4  6  1  0  0  0  0
 10 11  1  0  0  0  0
 13 14  1  0  0  0  0
 24 27  1  0  0  0  0
M  END
>  <MolRegNo>
2775751

>  <m>
=

>  <Value>
23000

>  <Unit>
nM

>  <Type>
IC50

>  <pValue>
4.64

>  <Ligand Efficiency>
0

>  <Binding Efficiency>
0

>  <Surface Efficiency>
0

>  <Assay Index>
1568168

>  <Assay Category>


>  <Assay Organism>
Homo sapiens

>  <Target ID>
17045

>  <Target Name>
Cytochrome P450 3A4

>  <Target Organism>
Homo sapiens

>  <Target Description>
Target is a single protein chain

>  <Sequence Accession>
P08684

>  <Reference>
J Med Chem 65 (15.0), 10251-10284 (2022)

>  <Pubmed ID>
35880755

>  <DOI>
10.1021/acs.jmedchem.2c00552

$$$$
2762605
Actelion Java MolfileCreator 1.0

 34 36  0  0  0  0  0  0  0  0999 V2000
    0.0000   -0.0000   -0.0000 S   0  0  0  0  0  0  0  0  0  0  0  0
    0.1520    1.4964   -0.0000 C   0  0  0  0  0  0  0  0  0  0  0  0
   -1.4380   -0.3040   -0.0000 C   0  0  0  0  0  0  0  0  0  0  0  0
    1.4613    2.2446   -0.0000 C   0  0  0  0  0  0  0  0  0  0  0  0
   -1.2392    2.0926   -0.0000 C   0  0  0  0  0  0  0  0  0  0  0  0
   -2.2446    0.9820   -0.0000 C   0  0  0  0  0  0  0  0  0  0  0  0
    1.4497    3.7410   -0.0000 C   0  0  0  0  0  0  0  0  0  0  0  0
    2.7239    1.5198   -0.0000 C   0  0  0  0  0  0  0  0  0  0  0  0
    2.7122    4.5477   -0.0000 C   0  0  0  0  0  0  0  0  0  0  0  0
    4.0333    2.2680   -0.0000 C   0  0  0  0  0  0  0  0  0  0  0  0
    2.7006    6.0441   -0.0000 O   0  0  0  0  0  0  0  0  0  0  0  0
    4.0216    3.7644   -0.0000 C   0  0  0  0  0  0  0  0  0  0  0  0
    1.4029    6.7923   -0.0000 C   0  0  0  0  0  0  0  0  0  0  0  0
    5.2842    4.5711   -0.0000 C   0  0  0  0  0  0  0  0  0  0  0  0
    6.5936    3.7878   -0.0000 N   0  0  0  0  0  0  0  0  0  0  0  0
    7.9029    4.5945   -0.0000 C   0  0  0  0  0  0  0  0  0  0  0  0
    9.1655    3.8112   -0.0000 C   0  0  0  0  0  0  0  0  0  0  0  0
    7.8912    6.0909   -0.0000 C   0  0  0  0  0  0  0  0  0  0  0  0
    9.1538    2.3381   -0.0000 N   0  0  0  0  0  0  0  0  0  0  0  0
   10.4749    4.6178   -0.0000 C   0  0  0  0  0  0  0  0  0  0  0  0
    9.1538    6.8391   -0.0000 C   0  0  0  0  0  0  0  0  0  0  0  0
   10.4632    1.6133   -0.0000 C   0  0  0  0  0  0  0  0  0  0  0  0
   11.7375    3.8346   -0.0000 O   0  0  0  0  0  0  0  0  0  0  0  0
   10.4632    6.1143   -0.0000 C   0  0  0  0  0  0  0  0  0  0  0  0
    9.1422    8.3355   -0.0000 C   0  0  0  0  0  0  0  0  0  0  0  0
   11.7258    2.3615   -0.0000 O   0  0  0  0  0  0  0  0  0  0  0  0
   10.4515    0.1403   -0.0000 C   0  0  0  0  0  0  0  0  0  0  0  0
   13.0469    4.6412   -0.0000 C   0  0  0  0  0  0  0  0  0  0  0  0
   10.4515    9.1422   -0.0000 O   0  0  0  0  0  0  0  0  0  0  0  0
    7.8562    9.1422   -0.0000 O   0  0  0  0  0  0  0  0  0  0  0  0
   14.3095    3.8579   -0.0000 C   0  0  0  0  0  0  0  0  0  0  0  0
   13.0352    6.1376   -0.0000 C   0  0  0  0  0  0  0  0  0  0  0  0
   14.2978    2.3849   -0.0000 C   0  0  0  0  0  0  0  0  0  0  0  0
   11.7024    6.8858   -0.0000 C   0  0  0  0  0  0  0  0  0  0  0  0
  1  2  1  0  0  0  0
  1  3  1  0  0  0  0
  2  4  1  0  0  0  0
  2  5  2  0  0  0  0
  3  6  2  0  0  0  0
  4  7  2  0  0  0  0
  4  8  1  0  0  0  0
  7  9  1  0  0  0  0
  8 10  2  0  0  0  0
  9 11  1  0  0  0  0
  9 12  2  0  0  0  0
 11 13  1  0  0  0  0
 12 14  1  0  0  0  0
 14 15  1  0  0  0  0
 16 15  1  1  0  0  0
 16 17  1  0  0  0  0
 16 18  1  0  0  0  0
 17 19  1  6  0  0  0
 17 20  1  0  0  0  0
 18 21  1  0  0  0  0
 19 22  1  0  0  0  0
 20 23  1  1  0  0  0
 20 24  1  0  0  0  0
 21 25  1  0  0  0  0
 22 26  2  0  0  0  0
 22 27  1  0  0  0  0
 23 28  1  0  0  0  0
 25 29  2  0  0  0  0
 25 30  1  0  0  0  0
 28 31  1  0  0  0  0
 28 32  1  0  0  0  0
 31 33  1  0  0  0  0
 32 34  1  0  0  0  0
  5  6  1  0  0  0  0
 10 12  1  0  0  0  0
 21 24  2  0  0  0  0
M  END
>  <MolRegNo>
2762605

>  <m>
=

>  <Value>
87600

>  <Unit>
nM

>  <Type>
IC50

>  <pValue>
4.06

>  <Ligand Efficiency>
0

>  <Binding Efficiency>
0

>  <Surface Efficiency>
0

>  <Assay Index>
1568900

>  <Assay Category>


>  <Assay Organism>
Homo sapiens

>  <Target ID>
17045

>  <Target Name>
Cytochrome P450 3A4

>  <Target Organism>
Homo sapiens

>  <Target Description>
Target is a single protein chain

>  <Sequence Accession>
P08684

>  <Reference>
J Med Chem 65 (17.0), 11550-11573 (2022)

>  <Pubmed ID>
35939763

>  <DOI>
10.1021/acs.jmedchem.1c01970

$$$$
2768582
Actelion Java MolfileCreator 1.0

 33 35  0  0  0  0  0  0  0  0999 V2000
    0.0000   -0.0000   -0.0000 Cl  0  0  0  0  0  0  0  0  0  0  0  0
   -0.0117   -1.4753   -0.0000 C   0  0  0  0  0  0  0  0  0  0  0  0
    1.2997   -2.2598   -0.0000 C   0  0  0  0  0  0  0  0  0  0  0  0
   -1.2997   -2.2598   -0.0000 C   0  0  0  0  0  0  0  0  0  0  0  0
    1.2879   -3.7350   -0.0000 C   0  0  0  0  0  0  0  0  0  0  0  0
    2.5642   -1.4519   -0.0000 C   0  0  0  0  0  0  0  0  0  0  0  0
   -1.3114   -3.7350   -0.0000 C   0  0  0  0  0  0  0  0  0  0  0  0
   -0.0468   -4.4610   -0.0000 C   0  0  0  0  0  0  0  0  0  0  0  0
    3.8755   -2.2363   -0.0000 N   0  0  0  0  0  0  0  0  0  0  0  0
   -2.6461   -4.4610   -0.0000 C   0  0  0  0  0  0  0  0  0  0  0  0
    5.1869   -1.4284   -0.0000 C   0  0  0  0  0  0  0  0  0  0  0  0
   -2.8218   -5.9363   -0.0000 C   0  0  0  0  0  0  0  0  0  0  0  0
   -4.0395   -3.8638   -0.0000 C   0  0  0  0  0  0  0  0  0  0  0  0
    6.4514   -2.2129   -0.0000 C   0  0  0  0  0  0  0  0  0  0  0  0
    5.1752    0.0703   -0.0000 C   0  0  0  0  0  0  0  0  0  0  0  0
   -4.2619   -6.2407   -0.0000 S   0  0  0  0  0  0  0  0  0  0  0  0
   -5.0581   -4.9644   -0.0000 C   0  0  0  0  0  0  0  0  0  0  0  0
    6.4397   -3.6882   -0.0000 N   0  0  0  0  0  0  0  0  0  0  0  0
    7.7628   -1.4050   -0.0000 C   0  0  0  0  0  0  0  0  0  0  0  0
    6.4397    0.8196   -0.0000 C   0  0  0  0  0  0  0  0  0  0  0  0
    7.7511   -4.4141   -0.0000 C   0  0  0  0  0  0  0  0  0  0  0  0
    9.0273   -2.1895   -0.0000 O   0  0  0  0  0  0  0  0  0  0  0  0
    7.7511    0.0937   -0.0000 C   0  0  0  0  0  0  0  0  0  0  0  0
    6.4280    2.3183   -0.0000 C   0  0  0  0  0  0  0  0  0  0  0  0
    9.0156   -3.6648   -0.0000 O   0  0  0  0  0  0  0  0  0  0  0  0
    7.7394   -5.8894   -0.0000 C   0  0  0  0  0  0  0  0  0  0  0  0
   10.3387   -1.3816   -0.0000 C   0  0  0  0  0  0  0  0  0  0  0  0
    7.7394    3.1262   -0.0000 O   0  0  0  0  0  0  0  0  0  0  0  0
    5.1401    3.1262   -0.0000 O   0  0  0  0  0  0  0  0  0  0  0  0
   11.6032   -2.1661   -0.0000 C   0  0  0  0  0  0  0  0  0  0  0  0
   10.3270    0.1171   -0.0000 C   0  0  0  0  0  0  0  0  0  0  0  0
   11.5915   -3.6414   -0.0000 C   0  0  0  0  0  0  0  0  0  0  0  0
    8.9922    0.8664   -0.0000 C   0  0  0  0  0  0  0  0  0  0  0  0
  1  2  1  0  0  0  0
  2  3  2  0  0  0  0
  2  4  1  0  0  0  0
  3  5  1  0  0  0  0
  3  6  1  0  0  0  0
  4  7  2  0  0  0  0
  5  8  2  0  0  0  0
  6  9  1  0  0  0  0
  7 10  1  0  0  0  0
 11  9  1  1  0  0  0
 10 12  2  0  0  0  0
 10 13  1  0  0  0  0
 11 14  1  0  0  0  0
 11 15  1  0  0  0  0
 12 16  1  0  0  0  0
 13 17  2  0  0  0  0
 14 18  1  6  0  0  0
 14 19  1  0  0  0  0
 15 20  1  0  0  0  0
 18 21  1  0  0  0  0
 19 22  1  1  0  0  0
 19 23  1  0  0  0  0
 20 24  1  0  0  0  0
 21 25  2  0  0  0  0
 21 26  1  0  0  0  0
 22 27  1  0  0  0  0
 24 28  2  0  0  0  0
 24 29  1  0  0  0  0
 27 30  1  0  0  0  0
 27 31  1  0  0  0  0
 30 32  1  0  0  0  0
 31 33  1  0  0  0  0
  7  8  1  0  0  0  0
 16 17  1  0  0  0  0
 20 23  2  0  0  0  0
M  END
>  <MolRegNo>
2768582

>  <m>
=

>  <Value>
72500

>  <Unit>
nM

>  <Type>
IC50

>  <pValue>
4.14

>  <Ligand Efficiency>
0

>  <Binding Efficiency>
0

>  <Surface Efficiency>
0

>  <Assay Index>
1568900

>  <Assay Category>


>  <Assay Organism>
Homo sapiens

>  <Target ID>
17045

>  <Target Name>
Cytochrome P450 3A4

>  <Target Organism>
Homo sapiens

>  <Target Description>
Target is a single protein chain

>  <Sequence Accession>
P08684

>  <Reference>
J Med Chem 65 (17.0), 11550-11573 (2022)

>  <Pubmed ID>
35939763

>  <DOI>
10.1021/acs.jmedchem.1c01970

$$$$
2748195
Actelion Java MolfileCreator 1.0

 25 27  0  0  0  0  0  0  0  0999 V2000
    0.0000   -0.0000   -0.0000 S   0  0  0  0  0  0  0  0  0  0  0  0
    1.5061   -0.3061   -0.0000 N   0  0  0  0  0  0  0  0  0  0  0  0
   -0.7837   -1.3347   -0.0000 C   0  0  0  0  0  0  0  0  0  0  0  0
    1.6408   -1.8245   -0.0000 C   0  0  0  0  0  0  0  0  0  0  0  0
    0.2449   -2.4735   -0.0000 N   0  0  0  0  0  0  0  0  0  0  0  0
   -2.3388   -1.4939   -0.0000 N   0  0  0  0  0  0  0  0  0  0  0  0
    2.9755   -2.5837   -0.0000 C   0  0  0  0  0  0  0  0  0  0  0  0
   -2.9755   -2.9021   -0.0000 C   0  0  0  0  0  0  0  0  0  0  0  0
    2.9633   -4.1266   -0.0000 N   0  0  0  0  0  0  0  0  0  0  0  0
    4.3103   -1.8000   -0.0000 C   0  0  0  0  0  0  0  0  0  0  0  0
   -2.0694   -4.1388   -0.0000 N   0  0  0  0  0  0  0  0  0  0  0  0
   -4.5307   -3.0613   -0.0000 C   0  0  0  0  0  0  0  0  0  0  0  0
    4.2980   -4.8858   -0.0000 C   0  0  0  0  0  0  0  0  0  0  0  0
    5.6450   -2.5592   -0.0000 C   0  0  0  0  0  0  0  0  0  0  0  0
   -2.7062   -5.5470   -0.0000 C   0  0  0  0  0  0  0  0  0  0  0  0
   -5.4613   -1.8000   -0.0000 N   0  0  0  0  0  0  0  0  0  0  0  0
   -5.1674   -4.4694   -0.0000 C   0  0  0  0  0  0  0  0  0  0  0  0
    5.6327   -4.1021   -0.0000 C   0  0  0  0  0  0  0  0  0  0  0  0
   -4.2613   -5.7062   -0.0000 C   0  0  0  0  0  0  0  0  0  0  0  0
   -4.9715   -0.6490   -0.0000 C   0  0  0  0  0  0  0  0  0  0  0  0
   -6.7103   -1.9225   -0.0000 C   0  0  0  0  0  0  0  0  0  0  0  0
    6.9674   -4.8735   -0.0000 O   0  0  0  0  0  0  0  0  0  0  0  0
    6.9552   -6.4164   -0.0000 C   0  0  0  0  0  0  0  0  0  0  0  0
    5.8654   -7.0287   -0.0000 C   0  0  0  0  0  0  0  0  0  0  0  0
    8.0205   -7.0287   -0.0000 C   0  0  0  0  0  0  0  0  0  0  0  0
  1  2  1  0  0  0  0
  1  3  1  0  0  0  0
  2  4  2  0  0  0  0
  3  5  2  0  0  0  0
  3  6  1  0  0  0  0
  4  7  1  0  0  0  0
  6  8  1  0  0  0  0
  7  9  2  0  0  0  0
  7 10  1  0  0  0  0
  8 11  2  0  0  0  0
  8 12  1  0  0  0  0
  9 13  1  0  0  0  0
 10 14  2  0  0  0  0
 11 15  1  0  0  0  0
 12 16  1  0  0  0  0
 12 17  2  0  0  0  0
 13 18  2  0  0  0  0
 15 19  2  0  0  0  0
 16 20  1  0  0  0  0
 16 21  1  0  0  0  0
 18 22  1  0  0  0  0
 22 23  1  0  0  0  0
 23 24  1  0  0  0  0
 23 25  1  0  0  0  0
  4  5  1  0  0  0  0
 14 18  1  0  0  0  0
 17 19  1  0  0  0  0
M  END
>  <MolRegNo>
2748195

>  <m>
=

>  <Value>
22000

>  <Unit>
nM

>  <Type>
IC50

>  <pValue>
4.66

>  <Ligand Efficiency>
0

>  <Binding Efficiency>
0

>  <Surface Efficiency>
0

>  <Assay Index>
1569316

>  <Assay Category>


>  <Assay Organism>
Homo sapiens

>  <Target ID>
17045

>  <Target Name>
Cytochrome P450 3A4

>  <Target Organism>
Homo sapiens

>  <Target Description>
Target is a single protein chain

>  <Sequence Accession>
P08684

>  <Reference>
J Med Chem 65 (16.0), 11388-11403 (2022)

>  <Pubmed ID>
35972896

>  <DOI>
10.1021/acs.jmedchem.2c00960

$$$$
2755984
Actelion Java MolfileCreator 1.0

 28 31  0  0  1  0  0  0  0  0999 V2000
    0.0000   -0.0000   -0.0000 Cl  0  0  0  0  0  0  0  0  0  0  0  0
   -0.4023   -1.4317   -0.0000 C   0  0  0  0  0  0  0  0  0  0  0  0
    0.4615   -2.6267   -0.0000 N   0  0  0  0  0  0  0  0  0  0  0  0
   -1.8340   -1.8813   -0.0000 N   0  0  0  0  0  0  0  0  0  0  0  0
   -0.4260   -3.8218   -0.0000 N   0  0  0  0  0  0  0  0  0  0  0  0
   -3.1355   -1.1240   -0.0000 N   0  0  0  0  0  0  0  0  0  0  0  0
   -1.8458   -3.3603   -0.0000 C   0  0  0  0  0  0  0  0  0  0  0  0
   -4.4489   -1.8576   -0.0000 C   0  0  0  0  0  0  0  0  0  0  0  0
   -3.1473   -4.0939   -0.0000 C   0  0  0  0  0  0  0  0  0  0  0  0
   -5.7622   -1.1004   -0.0000 N   0  0  0  0  0  0  0  0  0  0  0  0
   -4.4607   -3.3485   -0.0000 C   0  0  0  0  0  0  0  0  0  0  0  0
   -7.0756   -1.8340   -0.0000 C   0  0  0  0  0  0  0  0  0  0  0  0
   -8.3890   -1.0767   -0.0000 C   0  0  0  0  0  0  0  0  0  0  0  0
   -7.0874   -3.3130   -0.0000 C   0  0  0  0  0  0  0  0  0  0  0  0
   -9.7023   -1.8103   -0.0000 C   0  0  0  0  0  0  0  0  0  0  0  0
   -8.4008   -4.0466   -0.0000 C   0  0  0  0  0  0  0  0  0  0  0  0
   -9.7141   -3.2893   -0.0000 C   0  0  0  0  0  0  0  0  0  0  0  0
  -11.0275   -4.0229   -0.0000 N   0  0  0  0  0  0  0  0  0  0  0  0
  -12.3409   -3.2657   -0.0000 C   0  0  0  0  0  0  0  0  0  0  0  0
  -12.3527   -1.7630   -0.0000 N   0  0  0  0  0  0  0  0  0  0  0  0
  -13.6424   -3.9992   -0.0000 C   0  0  0  0  0  0  0  0  0  0  0  0
  -13.6542   -1.0057   -0.0000 C   0  0  0  0  0  0  0  0  0  0  0  0
  -14.9558   -3.2420   -0.0000 C   0  0  0  0  0  0  0  0  0  0  0  0
  -14.9558   -1.7393   -0.0000 N   0  0  0  0  0  0  0  0  0  0  0  0
  -13.6661    0.4969   -0.0000 C   0  0  0  0  0  0  0  0  0  0  0  0
  -14.9794    1.2542   -0.0000 F   0  0  0  0  0  0  0  0  0  0  0  0
  -12.3764    1.2542   -0.0000 F   0  0  0  0  0  0  0  0  0  0  0  0
  -13.6779    1.9996   -0.0000 F   0  0  0  0  0  0  0  0  0  0  0  0
  1  2  1  0  0  0  0
  2  3  2  0  0  0  0
  2  4  1  0  0  0  0
  3  5  1  0  0  0  0
  4  6  1  0  0  0  0
  4  7  1  0  0  0  0
  6  8  2  0  0  0  0
  7  9  1  0  0  0  0
  8 10  1  0  0  0  0
  8 11  1  0  0  0  0
 12 10  1  6  0  0  0
 12 13  1  0  0  0  0
 12 14  1  0  0  0  0
 13 15  1  0  0  0  0
 14 16  1  0  0  0  0
 15 17  1  0  0  0  0
 17 18  1  6  0  0  0
 18 19  1  0  0  0  0
 19 20  2  0  0  0  0
 19 21  1  0  0  0  0
 20 22  1  0  0  0  0
 21 23  2  0  0  0  0
 22 24  2  0  0  0  0
 22 25  1  0  0  0  0
 25 26  1  0  0  0  0
 25 27  1  0  0  0  0
 25 28  1  0  0  0  0
  5  7  2  0  0  0  0
  9 11  2  0  0  0  0
 16 17  1  0  0  0  0
 23 24  1  0  0  0  0
M  END
>  <MolRegNo>
2755984

>  <m>
=

>  <Value>
18000

>  <Unit>
nM

>  <Type>
IC50

>  <pValue>
4.75

>  <Ligand Efficiency>
0

>  <Binding Efficiency>
0

>  <Surface Efficiency>
0

>  <Assay Index>
1570835

>  <Assay Category>


>  <Assay Organism>
Homo sapiens

>  <Target ID>
17045

>  <Target Name>
Cytochrome P450 3A4

>  <Target Organism>
Homo sapiens

>  <Target Description>
Target is a single protein chain

>  <Sequence Accession>
P08684

>  <Reference>


>  <Pubmed ID>
34742013

>  <DOI>
10.1016/j.ejmech.2021.113925

$$$$
2774168
Actelion Java MolfileCreator 1.0

 33 36  0  0  0  0  0  0  0  0999 V2000
    0.0000   -0.0000   -0.0000 Cl  0  0  0  0  0  0  0  0  0  0  0  0
    0.7298    1.3066   -0.0000 C   0  0  0  0  0  0  0  0  0  0  0  0
   -0.0353    2.6132   -0.0000 C   0  0  0  0  0  0  0  0  0  0  0  0
    2.2130    1.3184   -0.0000 C   0  0  0  0  0  0  0  0  0  0  0  0
   -1.5420    2.6250   -0.0000 C   0  0  0  0  0  0  0  0  0  0  0  0
    0.6945    3.9198   -0.0000 C   0  0  0  0  0  0  0  0  0  0  0  0
    2.9428    2.6250   -0.0000 C   0  0  0  0  0  0  0  0  0  0  0  0
   -2.3072    3.9316   -0.0000 C   0  0  0  0  0  0  0  0  0  0  0  0
   -2.2954    1.3419   -0.0000 C   0  0  0  0  0  0  0  0  0  0  0  0
    2.1777    3.9316   -0.0000 C   0  0  0  0  0  0  0  0  0  0  0  0
    4.4260    2.6368   -0.0000 F   0  0  0  0  0  0  0  0  0  0  0  0
   -1.5773    5.2382   -0.0000 C   0  0  0  0  0  0  0  0  0  0  0  0
   -3.8139    3.9434   -0.0000 C   0  0  0  0  0  0  0  0  0  0  0  0
   -1.5538    0.0589   -0.0000 C   0  0  0  0  0  0  0  0  0  0  0  0
   -0.0942    5.2500   -0.0000 C   0  0  0  0  0  0  0  0  0  0  0  0
   -2.3425    6.5448   -0.0000 C   0  0  0  0  0  0  0  0  0  0  0  0
   -4.7085    5.1676   -0.0000 N   0  0  0  0  0  0  0  0  0  0  0  0
   -4.7085    2.7427   -0.0000 C   0  0  0  0  0  0  0  0  0  0  0  0
    0.6356    6.5566   -0.0000 C   0  0  0  0  0  0  0  0  0  0  0  0
   -1.6127    7.8514   -0.0000 C   0  0  0  0  0  0  0  0  0  0  0  0
   -6.1446    4.7203   -0.0000 C   0  0  0  0  0  0  0  0  0  0  0  0
   -4.2612    1.3301   -0.0000 Cl  0  0  0  0  0  0  0  0  0  0  0  0
   -6.1446    3.2135   -0.0000 C   0  0  0  0  0  0  0  0  0  0  0  0
   -0.1295    7.8632   -0.0000 C   0  0  0  0  0  0  0  0  0  0  0  0
   -7.4512    5.4736   -0.0000 C   0  0  0  0  0  0  0  0  0  0  0  0
   -7.4512    2.4720   -0.0000 C   0  0  0  0  0  0  0  0  0  0  0  0
    0.6003    9.1698   -0.0000 C   0  0  0  0  0  0  0  0  0  0  0  0
   -8.7578    4.7320   -0.0000 C   0  0  0  0  0  0  0  0  0  0  0  0
   -8.7578    3.2253   -0.0000 C   0  0  0  0  0  0  0  0  0  0  0  0
   -0.1648   10.4764   -0.0000 C   0  0  0  0  0  0  0  0  0  0  0  0
    0.5650   11.7830   -0.0000 C   0  0  0  0  0  0  0  0  0  0  0  0
   -0.2001   13.0896   -0.0000 O   0  0  0  0  0  0  0  0  0  0  0  0
    2.0482   11.7948   -0.0000 O   0  0  0  0  0  0  0  0  0  0  0  0
  1  2  1  0  0  0  0
  2  3  2  0  0  0  0
  2  4  1  0  0  0  0
  3  5  1  0  0  0  0
  3  6  1  0  0  0  0
  4  7  2  0  0  0  0
  5  8  2  0  0  0  0
  5  9  1  0  0  0  0
  6 10  2  0  0  0  0
  7 11  1  0  0  0  0
  8 12  1  0  0  0  0
  8 13  1  0  0  0  0
  9 14  1  0  0  0  0
 12 15  2  0  0  0  0
 12 16  1  0  0  0  0
 13 17  1  0  0  0  0
 13 18  2  0  0  0  0
 15 19  1  0  0  0  0
 16 20  2  0  0  0  0
 17 21  1  0  0  0  0
 18 22  1  0  0  0  0
 18 23  1  0  0  0  0
 19 24  2  0  0  0  0
 21 25  1  0  0  0  0
 23 26  1  0  0  0  0
 24 27  1  0  0  0  0
 25 28  2  0  0  0  0
 26 29  2  0  0  0  0
 27 30  2  0  0  0  0
 30 31  1  0  0  0  0
 31 32  2  0  0  0  0
 31 33  1  0  0  0  0
  7 10  1  0  0  0  0
 20 24  1  0  0  0  0
 21 23  2  0  0  0  0
 28 29  1  0  0  0  0
M  END
>  <MolRegNo>
2774168

>  <m>
=

>  <Value>
7000

>  <Unit>
nM

>  <Type>
IC50

>  <pValue>
5.16

>  <Ligand Efficiency>
0

>  <Binding Efficiency>
0

>  <Surface Efficiency>
0

>  <Assay Index>
1573961

>  <Assay Category>


>  <Assay Organism>
Homo sapiens

>  <Target ID>
17045

>  <Target Name>
Cytochrome P450 3A4

>  <Target Organism>
Homo sapiens

>  <Target Description>
Target is a single protein chain

>  <Sequence Accession>
P08684

>  <Reference>


>  <Pubmed ID>
35436589

>  <DOI>
10.1016/j.bmcl.2022.128734

$$$$
2777011
Actelion Java MolfileCreator 1.0

 83 84  0  0  0  0  0  0  0  0999 V2000
    0.0000   -0.0000   -0.0000 O   0  0  0  0  0  0  0  0  0  0  0  0
   -0.0301    1.5346   -0.0000 C   0  0  0  0  0  0  0  0  0  0  0  0
   -1.3842    2.3169   -0.0000 O   0  0  0  0  0  0  0  0  0  0  0  0
    1.2638    2.3169   -0.0000 C   0  0  0  0  0  0  0  0  0  0  0  0
   -2.7382    1.5948   -0.0000 C   0  0  0  0  0  0  0  0  0  0  0  0
    2.5577    1.5948   -0.0000 C   0  0  0  0  0  0  0  0  0  0  0  0
   -2.7683    0.1204   -0.0000 C   0  0  0  0  0  0  0  0  0  0  0  0
   -4.0923    2.3771   -0.0000 C   0  0  0  0  0  0  0  0  0  0  0  0
    2.5276    0.1204   -0.0000 O   0  0  0  0  0  0  0  0  0  0  0  0
    3.8516    2.3771   -0.0000 C   0  0  0  0  0  0  0  0  0  0  0  0
   -4.1224   -0.6018   -0.0000 C   0  0  0  0  0  0  0  0  0  0  0  0
   -1.4744   -0.6018   -0.0000 C   0  0  0  0  0  0  0  0  0  0  0  0
    5.1454    1.6550   -0.0000 C   0  0  0  0  0  0  0  0  0  0  0  0
   -5.4764    0.1805   -0.0000 O   0  0  0  0  0  0  0  0  0  0  0  0
   -4.1525   -2.0762   -0.0000 C   0  0  0  0  0  0  0  0  0  0  0  0
    5.1153    0.1805   -0.0000 O   0  0  0  0  0  0  0  0  0  0  0  0
    6.4393    2.4373   -0.0000 C   0  0  0  0  0  0  0  0  0  0  0  0
   -2.8586   -2.7984   -0.0000 C   0  0  0  0  0  0  0  0  0  0  0  0
   -5.5065   -2.7984   -0.0000 C   0  0  0  0  0  0  0  0  0  0  0  0
    7.7332    1.7151   -0.0000 C   0  0  0  0  0  0  0  0  0  0  0  0
   -1.5647   -2.0160   -0.0000 C   0  0  0  0  0  0  0  0  0  0  0  0
    9.0271    2.4975   -0.0000 C   0  0  0  0  0  0  0  0  0  0  0  0
   -0.2708   -2.7382   -0.0000 C   0  0  0  0  0  0  0  0  0  0  0  0
    8.9970    4.0321   -0.0000 O   0  0  0  0  0  0  0  0  0  0  0  0
   10.3210    1.7753   -0.0000 C   0  0  0  0  0  0  0  0  0  0  0  0
    1.0231   -1.9559   -0.0000 C   0  0  0  0  0  0  0  0  0  0  0  0
   10.2909    0.3009   -0.0000 O   0  0  0  0  0  0  0  0  0  0  0  0
   11.6148    2.5577   -0.0000 C   0  0  0  0  0  0  0  0  0  0  0  0
    2.3169   -2.6780   -0.0000 C   0  0  0  0  0  0  0  0  0  0  0  0
   12.9087    1.8355   -0.0000 C   0  0  0  0  0  0  0  0  0  0  0  0
    3.6108   -1.8957   -0.0000 C   0  0  0  0  0  0  0  0  0  0  0  0
   12.8786    0.3611   -0.0000 O   0  0  0  0  0  0  0  0  0  0  0  0
   14.2026    2.6179   -0.0000 C   0  0  0  0  0  0  0  0  0  0  0  0
    4.9047   -2.6179   -0.0000 C   0  0  0  0  0  0  0  0  0  0  0  0
   15.4965    1.8957   -0.0000 C   0  0  0  0  0  0  0  0  0  0  0  0
    6.1986   -1.8355   -0.0000 C   0  0  0  0  0  0  0  0  0  0  0  0
   15.4664    0.4213   -0.0000 O   0  0  0  0  0  0  0  0  0  0  0  0
   15.4664    3.4303   -0.0000 O   0  0  0  0  0  0  0  0  0  0  0  0
   16.7904    2.6780   -0.0000 C   0  0  0  0  0  0  0  0  0  0  0  0
    7.4925   -2.5577   -0.0000 C   0  0  0  0  0  0  0  0  0  0  0  0
   16.7603   -0.3009   -0.0000 C   0  0  0  0  0  0  0  0  0  0  0  0
   18.0842    1.9559   -0.0000 C   0  0  0  0  0  0  0  0  0  0  0  0
    8.7863   -1.7753   -0.0000 C   0  0  0  0  0  0  0  0  0  0  0  0
   18.0541    0.4814   -0.0000 C   0  0  0  0  0  0  0  0  0  0  0  0
   16.7302   -1.7753   -0.0000 C   0  0  0  0  0  0  0  0  0  0  0  0
   19.3781    2.7382   -0.0000 O   0  0  0  0  0  0  0  0  0  0  0  0
   10.0802   -2.4975   -0.0000 C   0  0  0  0  0  0  0  0  0  0  0  0
   19.3480   -0.2407   -0.0000 C   0  0  0  0  0  0  0  0  0  0  0  0
   15.3761   -2.4975   -0.0000 C   0  0  0  0  0  0  0  0  0  0  0  0
   11.3741   -1.7151   -0.0000 C   0  0  0  0  0  0  0  0  0  0  0  0
   19.3179   -1.7151   -0.0000 O   0  0  0  0  0  0  0  0  0  0  0  0
   20.6419    0.5416   -0.0000 N   0  0  0  0  0  0  0  0  0  0  0  0
   15.3460   -3.9719   -0.0000 O   0  0  0  0  0  0  0  0  0  0  0  0
   14.0220   -1.7151   -0.0000 C   0  0  0  0  0  0  0  0  0  0  0  0
   12.6680   -2.4373   -0.0000 C   0  0  0  0  0  0  0  0  0  0  0  0
   21.9358   -0.1805   -0.0000 C   0  0  0  0  0  0  0  0  0  0  0  0
   16.6399   -4.6941   -0.0000 C   0  0  0  0  0  0  0  0  0  0  0  0
   23.2297    0.6018   -0.0000 C   0  0  0  0  0  0  0  0  0  0  0  0
   16.6098   -6.1685   -0.0000 O   0  0  0  0  0  0  0  0  0  0  0  0
   17.9338   -3.9117   -0.0000 C   0  0  0  0  0  0  0  0  0  0  0  0
   24.5235   -0.1204   -0.0000 N   0  0  0  0  0  0  0  0  0  0  0  0
   17.9037   -6.8907   -0.0000 C   0  0  0  0  0  0  0  0  0  0  0  0
   17.9037   -2.3771   -0.0000 O   0  0  0  0  0  0  0  0  0  0  0  0
   19.2277   -4.6339   -0.0000 C   0  0  0  0  0  0  0  0  0  0  0  0
   19.1976   -6.1083   -0.0000 C   0  0  0  0  0  0  0  0  0  0  0  0
   17.8736   -8.3651   -0.0000 C   0  0  0  0  0  0  0  0  0  0  0  0
   20.5215   -3.8516   -0.0000 N   0  0  0  0  0  0  0  0  0  0  0  0
   20.4914   -6.8305   -0.0000 O   0  0  0  0  0  0  0  0  0  0  0  0
   21.8154   -4.5737   -0.0000 C   0  0  0  0  0  0  0  0  0  0  0  0
   21.7853   -6.0481   -0.0000 O   0  0  0  0  0  0  0  0  0  0  0  0
   23.1093   -3.7914   -0.0000 C   0  0  0  0  0  0  0  0  0  0  0  0
   24.4032   -4.5135   -0.0000 N   0  0  0  0  0  0  0  0  0  0  0  0
   25.6971   -3.7312   -0.0000 C   0  0  0  0  0  0  0  0  0  0  0  0
   30.3310    0.7222   -0.0000 O   0  0  0  0  0  0  0  0  0  0  0  0
   30.3009   -0.7523   -0.0000 C   0  0  0  0  0  0  0  0  0  0  0  0
   31.5947   -1.4744   -0.0000 O   0  0  0  0  0  0  0  0  0  0  0  0
   28.9468   -1.4744   -0.0000 C   0  0  0  0  0  0  0  0  0  0  0  0
   27.5927   -0.6921   -0.0000 N   0  0  0  0  0  0  0  0  0  0  0  0
   28.9167   -2.9488   -0.0000 C   0  0  0  0  0  0  0  0  0  0  0  0
   30.2106   -3.6710   -0.0000 C   0  0  0  0  0  0  0  0  0  0  0  0
   30.1805   -5.1454   -0.0000 C   0  0  0  0  0  0  0  0  0  0  0  0
   28.8264   -5.8676   -0.0000 O   0  0  0  0  0  0  0  0  0  0  0  0
   31.4744   -5.8676   -0.0000 O   0  0  0  0  0  0  0  0  0  0  0  0
  1  2  2  0  0  0  0
  2  3  1  0  0  0  0
  2  4  1  0  0  0  0
  3  5  1  0  0  0  0
  4  6  1  0  0  0  0
  5  7  1  0  0  0  0
  5  8  1  6  0  0  0
  6  9  1  1  0  0  0
  6 10  1  0  0  0  0
  7 11  1  0  0  0  0
  7 12  1  6  0  0  0
 10 13  1  0  0  0  0
 11 14  1  1  0  0  0
 11 15  1  0  0  0  0
 13 16  1  1  0  0  0
 13 17  1  0  0  0  0
 15 18  1  0  0  0  0
 15 19  1  6  0  0  0
 17 20  1  0  0  0  0
 18 21  2  0  0  0  0
 20 22  1  0  0  0  0
 21 23  1  0  0  0  0
 22 24  1  1  0  0  0
 22 25  1  0  0  0  0
 23 26  2  0  0  0  0
 25 27  1  1  0  0  0
 25 28  1  0  0  0  0
 26 29  1  0  0  0  0
 28 30  1  0  0  0  0
 29 31  2  0  0  0  0
 30 32  1  1  0  0  0
 30 33  1  0  0  0  0
 31 34  1  0  0  0  0
 33 35  1  0  0  0  0
 34 36  2  0  0  0  0
 35 37  1  0  0  0  0
 35 38  1  1  0  0  0
 35 39  1  0  0  0  0
 36 40  1  0  0  0  0
 41 37  1  6  0  0  0
 39 42  1  0  0  0  0
 40 43  2  0  0  0  0
 41 44  1  0  0  0  0
 41 45  1  0  0  0  0
 42 46  1  6  0  0  0
 43 47  1  0  0  0  0
 44 48  1  1  0  0  0
 45 49  1  0  0  0  0
 47 50  2  0  0  0  0
 48 51  2  0  0  0  0
 48 52  1  0  0  0  0
 49 53  1  1  0  0  0
 49 54  1  0  0  0  0
 50 55  1  0  0  0  0
 52 56  1  0  0  0  0
 57 53  1  1  0  0  0
 56 58  1  0  0  0  0
 57 59  1  0  0  0  0
 57 60  1  0  0  0  0
 58 61  1  0  0  0  0
 59 62  1  0  0  0  0
 60 63  1  1  0  0  0
 60 64  1  0  0  0  0
 62 65  1  0  0  0  0
 62 66  1  1  0  0  0
 64 67  1  1  0  0  0
 65 68  1  6  0  0  0
 67 69  1  0  0  0  0
 69 70  2  0  0  0  0
 69 71  1  0  0  0  0
 71 72  1  0  0  0  0
 72 73  1  0  0  0  0
 74 75  2  0  0  0  0
 75 76  1  0  0  0  0
 75 77  1  0  0  0  0
 77 78  1  0  0  0  0
 77 79  1  0  0  0  0
 79 80  1  0  0  0  0
 80 81  1  0  0  0  0
 81 82  2  0  0  0  0
 81 83  1  0  0  0  0
 42 44  1  0  0  0  0
 54 55  2  0  0  0  0
 64 65  1  0  0  0  0
M  END
>  <MolRegNo>
2777011

>  <m>
=

>  <Value>
36900

>  <Unit>
nM

>  <Type>
IC50

>  <pValue>
4.43

>  <Ligand Efficiency>
0

>  <Binding Efficiency>
0

>  <Surface Efficiency>
0

>  <Assay Index>
1575601

>  <Assay Category>


>  <Assay Organism>
Homo sapiens

>  <Target ID>
17045

>  <Target Name>
Cytochrome P450 3A4

>  <Target Organism>
Homo sapiens

>  <Target Description>
Target is a single protein chain

>  <Sequence Accession>
P08684

>  <Reference>
J Med Chem 65 (13.0), 8897-8913 (2022)

>  <Pubmed ID>
35786969

>  <DOI>
10.1021/acs.jmedchem.1c02227

$$$$
2780602
Actelion Java MolfileCreator 1.0

 31 34  0  0  0  0  0  0  0  0999 V2000
    0.0000   -0.0000   -0.0000 F   0  0  0  0  0  0  0  0  0  0  0  0
   -0.0118   -1.4806   -0.0000 C   0  0  0  0  0  0  0  0  0  0  0  0
    1.2792   -2.2150   -0.0000 F   0  0  0  0  0  0  0  0  0  0  0  0
    1.2792   -0.7225   -0.0000 F   0  0  0  0  0  0  0  0  0  0  0  0
   -1.3266   -2.2150   -0.0000 C   0  0  0  0  0  0  0  0  0  0  0  0
   -2.6295   -1.4569   -0.0000 C   0  0  0  0  0  0  0  0  0  0  0  0
   -1.3384   -3.6955   -0.0000 C   0  0  0  0  0  0  0  0  0  0  0  0
   -3.9443   -2.1913   -0.0000 C   0  0  0  0  0  0  0  0  0  0  0  0
   -2.6414    0.0474   -0.0000 C   0  0  0  0  0  0  0  0  0  0  0  0
   -2.6414   -4.4299   -0.0000 C   0  0  0  0  0  0  0  0  0  0  0  0
   -3.9561   -3.6837   -0.0000 C   0  0  0  0  0  0  0  0  0  0  0  0
   -5.2590   -1.4332   -0.0000 C   0  0  0  0  0  0  0  0  0  0  0  0
   -6.5738   -2.1676   -0.0000 N   0  0  0  0  0  0  0  0  0  0  0  0
   -5.2709    0.0711   -0.0000 C   0  0  0  0  0  0  0  0  0  0  0  0
   -6.5856   -3.6482   -0.0000 C   0  0  0  0  0  0  0  0  0  0  0  0
   -5.2946   -4.3825   -0.0000 N   0  0  0  0  0  0  0  0  0  0  0  0
   -7.8886   -4.3825   -0.0000 C   0  0  0  0  0  0  0  0  0  0  0  0
   -5.3064   -5.8631   -0.0000 N   0  0  0  0  0  0  0  0  0  0  0  0
   -7.9004   -5.8631   -0.0000 C   0  0  0  0  0  0  0  0  0  0  0  0
   -9.2033   -3.6245   -0.0000 C   0  0  0  0  0  0  0  0  0  0  0  0
   -6.6093   -6.6093   -0.0000 C   0  0  0  0  0  0  0  0  0  0  0  0
   -9.2152   -6.6093   -0.0000 C   0  0  0  0  0  0  0  0  0  0  0  0
  -10.5181   -4.3588   -0.0000 C   0  0  0  0  0  0  0  0  0  0  0  0
   -6.6212   -8.0899   -0.0000 C   0  0  0  0  0  0  0  0  0  0  0  0
  -10.5181   -5.8513   -0.0000 N   0  0  0  0  0  0  0  0  0  0  0  0
  -11.8328   -3.6008   -0.0000 N   0  0  0  0  0  0  0  0  0  0  0  0
  -13.1476   -4.3352   -0.0000 C   0  0  0  0  0  0  0  0  0  0  0  0
  -11.8447   -2.0965   -0.0000 C   0  0  0  0  0  0  0  0  0  0  0  0
  -14.4624   -3.5771   -0.0000 C   0  0  0  0  0  0  0  0  0  0  0  0
  -13.1594   -1.3384   -0.0000 C   0  0  0  0  0  0  0  0  0  0  0  0
  -14.4742   -2.0728   -0.0000 O   0  0  0  0  0  0  0  0  0  0  0  0
  1  2  1  0  0  0  0
  2  3  1  0  0  0  0
  2  4  1  0  0  0  0
  2  5  1  0  0  0  0
  5  6  2  0  0  0  0
  5  7  1  0  0  0  0
  6  8  1  0  0  0  0
  6  9  1  0  0  0  0
  7 10  2  0  0  0  0
  8 11  2  0  0  0  0
  8 12  1  0  0  0  0
 12 13  1  1  0  0  0
 12 14  1  0  0  0  0
 13 15  1  0  0  0  0
 15 16  2  0  0  0  0
 15 17  1  0  0  0  0
 16 18  1  0  0  0  0
 17 19  1  0  0  0  0
 17 20  2  0  0  0  0
 18 21  2  0  0  0  0
 19 22  2  0  0  0  0
 20 23  1  0  0  0  0
 21 24  1  0  0  0  0
 22 25  1  0  0  0  0
 23 26  1  0  0  0  0
 26 27  1  0  0  0  0
 26 28  1  0  0  0  0
 27 29  1  0  0  0  0
 28 30  1  0  0  0  0
 29 31  1  0  0  0  0
 10 11  1  0  0  0  0
 19 21  1  0  0  0  0
 23 25  2  0  0  0  0
 30 31  1  0  0  0  0
M  END
>  <MolRegNo>
2780602

>  <m>
=

>  <Value>
640

>  <Unit>
nM

>  <Type>
IC50

>  <pValue>
6.19

>  <Ligand Efficiency>
0.27

>  <Binding Efficiency>
14.36

>  <Surface Efficiency>
9.81

>  <Assay Index>
1575827

>  <Assay Category>


>  <Assay Organism>
Homo sapiens

>  <Target ID>
17045

>  <Target Name>
Cytochrome P450 3A4

>  <Target Organism>
Homo sapiens

>  <Target Description>
Target is a single protein chain

>  <Sequence Accession>
P08684

>  <Reference>
J Med Chem 65 (14.0), 9678-9690 (2022)

>  <Pubmed ID>
35833726

>  <DOI>
10.1021/acs.jmedchem.2c00741

$$$$
675138
Actelion Java MolfileCreator 1.0

 37 41  0  0  1  0  0  0  0  0999 V2000
    0.0000   -0.0000   -0.0000 F   0  0  0  0  0  0  0  0  0  0  0  0
    0.7509   -1.3035   -0.0000 C   0  0  0  0  0  0  0  0  0  0  0  0
   -0.7651   -1.2752   -0.0000 F   0  0  0  0  0  0  0  0  0  0  0  0
    2.0403   -0.5809   -0.0000 C   0  0  0  0  0  0  0  0  0  0  0  0
    0.6943   -2.7912   -0.0000 C   0  0  0  0  0  0  0  0  0  0  0  0
    3.3013   -1.3319   -0.0000 C   0  0  0  0  0  0  0  0  0  0  0  0
    1.9553   -3.5563   -0.0000 C   0  0  0  0  0  0  0  0  0  0  0  0
    3.2446   -2.8196   -0.0000 C   0  0  0  0  0  0  0  0  0  0  0  0
    4.5056   -3.5847   -0.0000 C   0  0  0  0  0  0  0  0  0  0  0  0
    4.4631   -5.0582   -0.0000 O   0  0  0  0  0  0  0  0  0  0  0  0
    5.8092   -2.8479   -0.0000 N   0  0  0  0  0  0  0  0  0  0  0  0
    7.0843   -3.5847   -0.0000 C   0  0  0  0  0  0  0  0  0  0  0  0
    7.0418   -5.0582   -0.0000 C   0  0  0  0  0  0  0  0  0  0  0  0
    8.3737   -2.8479   -0.0000 C   0  0  0  0  0  0  0  0  0  0  0  0
    5.7100   -5.7666   -0.0000 C   0  0  0  0  0  0  0  0  0  0  0  0
    8.3028   -5.8233   -0.0000 C   0  0  0  0  0  0  0  0  0  0  0  0
    9.6347   -3.5847   -0.0000 C   0  0  0  0  0  0  0  0  0  0  0  0
    5.6675   -7.2402   -0.0000 C   0  0  0  0  0  0  0  0  0  0  0  0
    8.2462   -7.3110   -0.0000 C   0  0  0  0  0  0  0  0  0  0  0  0
   11.2783   -2.7629   -0.0000 N   0  0  0  0  0  0  0  0  0  0  0  0
    6.9426   -7.9911   -0.0000 C   0  0  0  0  0  0  0  0  0  0  0  0
   12.0009   -4.2648   -0.0000 C   0  0  0  0  0  0  0  0  0  0  0  0
   11.2358   -0.9493   -0.0000 C   0  0  0  0  0  0  0  0  0  0  0  0
   13.2477   -3.6413   -0.0000 C   0  0  0  0  0  0  0  0  0  0  0  0
   10.7257   -3.6413   -0.0000 C   0  0  0  0  0  0  0  0  0  0  0  0
   12.8226   -0.9351   -0.0000 C   0  0  0  0  0  0  0  0  0  0  0  0
   10.3431   -2.1678   -0.0000 C   0  0  0  0  0  0  0  0  0  0  0  0
   13.6444   -2.1395   -0.0000 C   0  0  0  0  0  0  0  0  0  0  0  0
   14.9054   -1.3744   -0.0000 N   0  0  0  0  0  0  0  0  0  0  0  0
   16.0531   -2.1961   -0.0000 C   0  0  0  0  0  0  0  0  0  0  0  0
   15.3305    0.0142   -0.0000 C   0  0  0  0  0  0  0  0  0  0  0  0
   17.2008   -1.3460   -0.0000 N   0  0  0  0  0  0  0  0  0  0  0  0
   16.0389   -3.6839   -0.0000 C   0  0  0  0  0  0  0  0  0  0  0  0
   16.7615    0.0283   -0.0000 N   0  0  0  0  0  0  0  0  0  0  0  0
   14.4379    1.2185   -0.0000 C   0  0  0  0  0  0  0  0  0  0  0  0
   17.3141   -4.4206   -0.0000 C   0  0  0  0  0  0  0  0  0  0  0  0
   14.7354   -4.4206   -0.0000 C   0  0  0  0  0  0  0  0  0  0  0  0
  1  2  1  0  0  0  0
  2  3  1  0  0  0  0
  2  4  1  0  0  0  0
  2  5  1  0  0  0  0
  4  6  1  0  0  0  0
  5  7  1  0  0  0  0
  6  8  1  0  0  0  0
  8  9  1  0  0  0  0
  9 10  2  0  0  0  0
  9 11  1  0  0  0  0
 12 11  1  1  0  0  0
 12 13  1  0  0  0  0
 12 14  1  0  0  0  0
 13 15  2  0  0  0  0
 13 16  1  0  0  0  0
 14 17  1  0  0  0  0
 15 18  1  0  0  0  0
 16 19  2  0  0  0  0
 17 20  1  0  0  0  0
 18 21  2  0  0  0  0
 22 20  1  1  0  0  0
 23 20  1  1  0  0  0
 22 24  1  0  0  0  0
 22 25  1  0  0  0  0
 23 26  1  0  0  0  0
 23 27  1  0  0  0  0
 24 28  1  0  0  0  0
 28 29  1  1  0  0  0
 29 30  1  0  0  0  0
 29 31  1  0  0  0  0
 30 32  2  0  0  0  0
 30 33  1  0  0  0  0
 31 34  2  0  0  0  0
 31 35  1  0  0  0  0
 33 36  1  0  0  0  0
 33 37  1  0  0  0  0
  7  8  1  0  0  0  0
 19 21  1  0  0  0  0
 25 27  1  0  0  0  0
 26 28  1  0  0  0  0
 32 34  1  0  0  0  0
M  END
>  <MolRegNo>
675138

>  <m>
=

>  <Value>
3100

>  <Unit>
nM

>  <Type>
IC50

>  <pValue>
5.51

>  <Ligand Efficiency>
0

>  <Binding Efficiency>
0

>  <Surface Efficiency>
0

>  <Assay Index>
1580241

>  <Assay Category>


>  <Assay Organism>
Homo sapiens

>  <Target ID>
17045

>  <Target Name>
Cytochrome P450 3A4

>  <Target Organism>
Homo sapiens

>  <Target Description>
Target is a single protein chain

>  <Sequence Accession>
P08684

>  <Reference>
J Med Chem 65 (24.0), 16526-16540 (2022)

>  <Pubmed ID>
36472561

>  <DOI>
10.1021/acs.jmedchem.2c01383

$$$$
2758504
Actelion Java MolfileCreator 1.0

 31 34  0  0  0  0  0  0  0  0999 V2000
    0.0000   -0.0000   -0.0000 Cl  0  0  0  0  0  0  0  0  0  0  0  0
   -0.7588    1.3042   -0.0000 C   0  0  0  0  0  0  0  0  0  0  0  0
   -2.2527    1.3161   -0.0000 C   0  0  0  0  0  0  0  0  0  0  0  0
   -0.0237    2.6084   -0.0000 C   0  0  0  0  0  0  0  0  0  0  0  0
   -3.0115    2.6084   -0.0000 C   0  0  0  0  0  0  0  0  0  0  0  0
   -0.7825    3.9126   -0.0000 C   0  0  0  0  0  0  0  0  0  0  0  0
   -4.5173    2.6203   -0.0000 F   0  0  0  0  0  0  0  0  0  0  0  0
   -2.2764    3.9126   -0.0000 C   0  0  0  0  0  0  0  0  0  0  0  0
   -3.0352    5.2168   -0.0000 N   0  0  0  0  0  0  0  0  0  0  0  0
   -2.3120    6.5329   -0.0000 N   0  0  0  0  0  0  0  0  0  0  0  0
   -4.5054    5.5251   -0.0000 C   0  0  0  0  0  0  0  0  0  0  0  0
   -3.3316    7.6355   -0.0000 N   0  0  0  0  0  0  0  0  0  0  0  0
   -4.6951    7.0071   -0.0000 C   0  0  0  0  0  0  0  0  0  0  0  0
   -5.9993    7.7541   -0.0000 C   0  0  0  0  0  0  0  0  0  0  0  0
   -7.2917    7.0071   -0.0000 C   0  0  0  0  0  0  0  0  0  0  0  0
   -6.0112    9.2598   -0.0000 C   0  0  0  0  0  0  0  0  0  0  0  0
   -7.3035    8.5129   -0.0000 O   0  0  0  0  0  0  0  0  0  0  0  0
   -7.3035    5.5132   -0.0000 C   0  0  0  0  0  0  0  0  0  0  0  0
   -8.6196    7.7541   -0.0000 C   0  0  0  0  0  0  0  0  0  0  0  0
   -8.6077    4.7663   -0.0000 C   0  0  0  0  0  0  0  0  0  0  0  0
   -5.9993    4.7663   -0.0000 C   0  0  0  0  0  0  0  0  0  0  0  0
   -8.6314    9.2598   -0.0000 N   0  0  0  0  0  0  0  0  0  0  0  0
   -9.9119    5.5251   -0.0000 F   0  0  0  0  0  0  0  0  0  0  0  0
   -8.6196    3.2724   -0.0000 C   0  0  0  0  0  0  0  0  0  0  0  0
   -6.0112    3.2724   -0.0000 C   0  0  0  0  0  0  0  0  0  0  0  0
   -9.8645   10.1372   -0.0000 N   0  0  0  0  0  0  0  0  0  0  0  0
   -7.4577   10.1609   -0.0000 C   0  0  0  0  0  0  0  0  0  0  0  0
   -7.3272    2.5373   -0.0000 C   0  0  0  0  0  0  0  0  0  0  0  0
   -9.4377   11.5718   -0.0000 C   0  0  0  0  0  0  0  0  0  0  0  0
   -7.9438   11.5718   -0.0000 N   0  0  0  0  0  0  0  0  0  0  0  0
   -7.3391    1.0552   -0.0000 F   0  0  0  0  0  0  0  0  0  0  0  0
  1  2  1  0  0  0  0
  2  3  2  0  0  0  0
  2  4  1  0  0  0  0
  3  5  1  0  0  0  0
  4  6  2  0  0  0  0
  5  7  1  0  0  0  0
  5  8  2  0  0  0  0
  8  9  1  0  0  0  0
  9 10  1  0  0  0  0
  9 11  1  0  0  0  0
 10 12  2  0  0  0  0
 11 13  2  0  0  0  0
 13 14  1  0  0  0  0
 14 15  1  0  0  0  0
 14 16  1  6  0  0  0
 15 17  1  1  0  0  0
 15 18  1  0  0  0  0
 15 19  1  0  0  0  0
 18 20  2  0  0  0  0
 18 21  1  0  0  0  0
 19 22  1  0  0  0  0
 20 23  1  0  0  0  0
 20 24  1  0  0  0  0
 21 25  2  0  0  0  0
 22 26  1  0  0  0  0
 22 27  1  0  0  0  0
 24 28  2  0  0  0  0
 26 29  2  0  0  0  0
 27 30  2  0  0  0  0
 28 31  1  0  0  0  0
  6  8  1  0  0  0  0
 12 13  1  0  0  0  0
 25 28  1  0  0  0  0
 29 30  1  0  0  0  0
M  END
>  <MolRegNo>
2758504

>  <m>
=

>  <Value>
339

>  <Unit>
nM

>  <Type>
IC50

>  <pValue>
6.47

>  <Ligand Efficiency>
0

>  <Binding Efficiency>
0

>  <Surface Efficiency>
0

>  <Assay Index>
1580678

>  <Assay Category>


>  <Assay Organism>
Homo sapiens

>  <Target ID>
17045

>  <Target Name>
Cytochrome P450 3A4

>  <Target Organism>
Homo sapiens

>  <Target Description>
Target is a single protein chain

>  <Sequence Accession>
P08684

>  <Reference>
J Med Chem 65 (24.0), 16665-16678 (2022)

>  <Pubmed ID>
36512715

>  <DOI>
10.1021/acs.jmedchem.2c01497

$$$$
2754585
Actelion Java MolfileCreator 1.0

 33 35  0  0  0  0  0  0  0  0999 V2000
    0.0000   -0.0000   -0.0000 F   0  0  0  0  0  0  0  0  0  0  0  0
   -1.3121   -0.7329   -0.0000 C   0  0  0  0  0  0  0  0  0  0  0  0
   -1.3239   -2.2222   -0.0000 F   0  0  0  0  0  0  0  0  0  0  0  0
   -0.0236   -1.4657   -0.0000 F   0  0  0  0  0  0  0  0  0  0  0  0
   -2.6241    0.0236   -0.0000 C   0  0  0  0  0  0  0  0  0  0  0  0
   -3.9362   -0.7210   -0.0000 N   0  0  0  0  0  0  0  0  0  0  0  0
   -2.6359    1.5248   -0.0000 C   0  0  0  0  0  0  0  0  0  0  0  0
   -5.2482    0.0473   -0.0000 C   0  0  0  0  0  0  0  0  0  0  0  0
   -3.9480    2.2813   -0.0000 C   0  0  0  0  0  0  0  0  0  0  0  0
   -5.2600    1.5603   -0.0000 C   0  0  0  0  0  0  0  0  0  0  0  0
   -6.5484   -0.6856   -0.0000 C   0  0  0  0  0  0  0  0  0  0  0  0
   -3.9598    3.7943   -0.0000 C   0  0  0  0  0  0  0  0  0  0  0  0
   -6.5721    2.3168   -0.0000 C   0  0  0  0  0  0  0  0  0  0  0  0
   -7.8605    0.0709   -0.0000 C   0  0  0  0  0  0  0  0  0  0  0  0
   -6.5603   -2.1749   -0.0000 C   0  0  0  0  0  0  0  0  0  0  0  0
   -5.2718    4.5508   -0.0000 O   0  0  0  0  0  0  0  0  0  0  0  0
   -2.6714    4.5508   -0.0000 C   0  0  0  0  0  0  0  0  0  0  0  0
   -7.8841    1.5839   -0.0000 C   0  0  0  0  0  0  0  0  0  0  0  0
   -5.2718   -2.9078   -0.0000 F   0  0  0  0  0  0  0  0  0  0  0  0
   -7.8723   -2.9078   -0.0000 F   0  0  0  0  0  0  0  0  0  0  0  0
   -6.5721   -3.6643   -0.0000 F   0  0  0  0  0  0  0  0  0  0  0  0
   -1.3830    3.8179   -0.0000 N   0  0  0  0  0  0  0  0  0  0  0  0
   -0.0946    4.5744   -0.0000 C   0  0  0  0  0  0  0  0  0  0  0  0
    1.1938    3.8416   -0.0000 C   0  0  0  0  0  0  0  0  0  0  0  0
   -0.1064    6.0874   -0.0000 C   0  0  0  0  0  0  0  0  0  0  0  0
    2.4823    4.5981   -0.0000 O   0  0  0  0  0  0  0  0  0  0  0  0
    1.1820    6.8558   -0.0000 C   0  0  0  0  0  0  0  0  0  0  0  0
    3.7707    3.8652   -0.0000 C   0  0  0  0  0  0  0  0  0  0  0  0
    2.4704    6.1111   -0.0000 C   0  0  0  0  0  0  0  0  0  0  0  0
    1.1702    8.3688   -0.0000 C   0  0  0  0  0  0  0  0  0  0  0  0
    3.7588    6.8794   -0.0000 C   0  0  0  0  0  0  0  0  0  0  0  0
    2.4586    9.1253   -0.0000 C   0  0  0  0  0  0  0  0  0  0  0  0
    3.7470    8.3806   -0.0000 C   0  0  0  0  0  0  0  0  0  0  0  0
  1  2  1  0  0  0  0
  2  3  1  0  0  0  0
  2  4  1  0  0  0  0
  2  5  1  0  0  0  0
  5  6  2  0  0  0  0
  5  7  1  0  0  0  0
  6  8  1  0  0  0  0
  7  9  2  0  0  0  0
  8 10  1  0  0  0  0
  8 11  2  0  0  0  0
  9 12  1  0  0  0  0
 10 13  2  0  0  0  0
 11 14  1  0  0  0  0
 11 15  1  0  0  0  0
 12 16  1  1  0  0  0
 12 17  1  0  0  0  0
 13 18  1  0  0  0  0
 15 19  1  0  0  0  0
 15 20  1  0  0  0  0
 15 21  1  0  0  0  0
 17 22  1  0  0  0  0
 23 22  1  6  0  0  0
 23 24  1  0  0  0  0
 23 25  1  0  0  0  0
 24 26  1  0  0  0  0
 25 27  1  0  0  0  0
 26 28  1  0  0  0  0
 27 29  2  0  0  0  0
 27 30  1  0  0  0  0
 29 31  1  0  0  0  0
 30 32  2  0  0  0  0
 31 33  2  0  0  0  0
  9 10  1  0  0  0  0
 14 18  2  0  0  0  0
 32 33  1  0  0  0  0
M  END
>  <MolRegNo>
2754585

>  <m>
=

>  <Value>
5900

>  <Unit>
nM

>  <Type>
IC50

>  <pValue>
5.23

>  <Ligand Efficiency>
0

>  <Binding Efficiency>
0

>  <Surface Efficiency>
0

>  <Assay Index>
1581463

>  <Assay Category>


>  <Assay Organism>
Homo sapiens

>  <Target ID>
17045

>  <Target Name>
Cytochrome P450 3A4

>  <Target Organism>
Homo sapiens

>  <Target Description>
Target is a single protein chain

>  <Sequence Accession>
P08684

>  <Reference>


>  <Pubmed ID>
34782182

>  <DOI>
10.1016/j.ejmech.2021.113981

$$$$
2751561
Actelion Java MolfileCreator 1.0

 42 47  0  0  0  0  0  0  0  0999 V2000
    0.0000   -0.0000   -0.0000 Cl  0  0  0  0  0  0  0  0  0  0  0  0
   -0.7651    1.3270   -0.0000 C   0  0  0  0  0  0  0  0  0  0  0  0
   -0.3108    2.7736   -0.0000 S   0  0  0  0  0  0  0  0  0  0  0  0
   -2.2834    1.3390   -0.0000 C   0  0  0  0  0  0  0  0  0  0  0  0
   -1.5422    3.6703   -0.0000 C   0  0  0  0  0  0  0  0  0  0  0  0
   -2.7617    2.7856   -0.0000 C   0  0  0  0  0  0  0  0  0  0  0  0
   -1.5542    5.1886   -0.0000 C   0  0  0  0  0  0  0  0  0  0  0  0
   -1.5661    6.7069   -0.0000 C   0  0  0  0  0  0  0  0  0  0  0  0
   -1.5781    8.2252   -0.0000 C   0  0  0  0  0  0  0  0  0  0  0  0
   -0.3347    9.0621   -0.0000 N   0  0  0  0  0  0  0  0  0  0  0  0
   -2.9410    8.9186   -0.0000 N   0  0  0  0  0  0  0  0  0  0  0  0
   -0.4304   10.5804   -0.0000 C   0  0  0  0  0  0  0  0  0  0  0  0
   -3.0366   10.4489   -0.0000 C   0  0  0  0  0  0  0  0  0  0  0  0
    0.8727   11.3455   -0.0000 N   0  0  0  0  0  0  0  0  0  0  0  0
   -1.7813   11.2738   -0.0000 C   0  0  0  0  0  0  0  0  0  0  0  0
   -4.2202   11.4172   -0.0000 N   0  0  0  0  0  0  0  0  0  0  0  0
    2.1758   10.6043   -0.0000 C   0  0  0  0  0  0  0  0  0  0  0  0
   -2.1878   12.7443   -0.0000 N   0  0  0  0  0  0  0  0  0  0  0  0
   -3.6942   12.8399   -0.0000 C   0  0  0  0  0  0  0  0  0  0  0  0
   -5.6907   11.0347   -0.0000 C   0  0  0  0  0  0  0  0  0  0  0  0
    3.4790   11.3694   -0.0000 C   0  0  0  0  0  0  0  0  0  0  0  0
   -6.1689    9.6120   -0.0000 C   0  0  0  0  0  0  0  0  0  0  0  0
   -6.9221   11.9313   -0.0000 C   0  0  0  0  0  0  0  0  0  0  0  0
    4.7821   10.6282   -0.0000 C   0  0  0  0  0  0  0  0  0  0  0  0
   -5.4277    8.3089   -0.0000 O   0  0  0  0  0  0  0  0  0  0  0  0
   -7.6872    9.6240   -0.0000 C   0  0  0  0  0  0  0  0  0  0  0  0
   -8.1535   11.0586   -0.0000 C   0  0  0  0  0  0  0  0  0  0  0  0
   -6.7786   10.9032   -0.0000 C   0  0  0  0  0  0  0  0  0  0  0  0
    6.0852   11.3933   -0.0000 C   0  0  0  0  0  0  0  0  0  0  0  0
    4.7701    9.1218   -0.0000 C   0  0  0  0  0  0  0  0  0  0  0  0
   -8.4523    8.3208   -0.0000 O   0  0  0  0  0  0  0  0  0  0  0  0
   -9.6479   11.3814   -0.0000 C   0  0  0  0  0  0  0  0  0  0  0  0
    7.3764   10.6521   -0.0000 C   0  0  0  0  0  0  0  0  0  0  0  0
    6.0733    8.3806   -0.0000 C   0  0  0  0  0  0  0  0  0  0  0  0
  -10.0543   12.8519   -0.0000 O   0  0  0  0  0  0  0  0  0  0  0  0
  -10.6760   10.2695   -0.0000 N   0  0  0  0  0  0  0  0  0  0  0  0
    8.6795   11.4172   -0.0000 O   0  0  0  0  0  0  0  0  0  0  0  0
    7.3644    9.1577   -0.0000 C   0  0  0  0  0  0  0  0  0  0  0  0
  -12.1704   10.5923   -0.0000 C   0  0  0  0  0  0  0  0  0  0  0  0
    9.9826   10.6760   -0.0000 C   0  0  0  0  0  0  0  0  0  0  0  0
    8.6675    8.4165   -0.0000 O   0  0  0  0  0  0  0  0  0  0  0  0
    8.6556    6.9221   -0.0000 C   0  0  0  0  0  0  0  0  0  0  0  0
  1  2  1  0  0  0  0
  2  3  1  0  0  0  0
  2  4  2  0  0  0  0
  3  5  1  0  0  0  0
  4  6  1  0  0  0  0
  5  7  1  0  0  0  0
  7  8  3  0  0  0  0
  8  9  1  0  0  0  0
  9 10  2  0  0  0  0
  9 11  1  0  0  0  0
 10 12  1  0  0  0  0
 11 13  2  0  0  0  0
 12 14  1  0  0  0  0
 12 15  2  0  0  0  0
 13 16  1  0  0  0  0
 14 17  1  0  0  0  0
 15 18  1  0  0  0  0
 16 19  1  0  0  0  0
 20 16  1  1  0  0  0
 17 21  1  0  0  0  0
 20 22  1  0  0  0  0
 20 23  1  0  0  0  0
 21 24  1  0  0  0  0
 22 25  1  6  0  0  0
 22 26  1  0  0  0  0
 23 27  1  0  0  0  0
 23 28  1  6  0  0  0
 24 29  2  0  0  0  0
 24 30  1  0  0  0  0
 26 31  1  6  0  0  0
 27 32  1  6  0  0  0
 29 33  1  0  0  0  0
 30 34  2  0  0  0  0
 32 35  2  0  0  0  0
 32 36  1  0  0  0  0
 33 37  1  0  0  0  0
 33 38  2  0  0  0  0
 36 39  1  0  0  0  0
 37 40  1  0  0  0  0
 38 41  1  0  0  0  0
 41 42  1  0  0  0  0
  5  6  2  0  0  0  0
 13 15  1  0  0  0  0
 18 19  2  0  0  0  0
 26 27  1  0  0  0  0
 27 28  1  0  0  0  0
 34 38  1  0  0  0  0
M  END
>  <MolRegNo>
2751561

>  <m>
=

>  <Value>
780

>  <Unit>
nM

>  <Type>
IC50

>  <pValue>
6.11

>  <Ligand Efficiency>
0

>  <Binding Efficiency>
0

>  <Surface Efficiency>
0

>  <Assay Index>
1581830

>  <Assay Category>


>  <Assay Organism>
Homo sapiens

>  <Target ID>
17045

>  <Target Name>
Cytochrome P450 3A4

>  <Target Organism>
Homo sapiens

>  <Target Description>
Target is a single protein chain

>  <Sequence Accession>
P08684

>  <Reference>


>  <Pubmed ID>
34844790

>  <DOI>
10.1016/j.ejmech.2021.113983

$$$$
2773580
Actelion Java MolfileCreator 1.0

 38 42  0  0  0  0  0  0  0  0999 V2000
    0.0000   -0.0000   -0.0000 O   0  0  0  0  0  0  0  0  0  0  0  0
    0.3853   -1.4570   -0.0000 C   0  0  0  0  0  0  0  0  0  0  0  0
   -0.6502   -2.5769   -0.0000 N   0  0  0  0  0  0  0  0  0  0  0  0
    1.8664   -1.7581   -0.0000 C   0  0  0  0  0  0  0  0  0  0  0  0
   -2.1554   -2.2518   -0.0000 C   0  0  0  0  0  0  0  0  0  0  0  0
    2.3240   -3.1910   -0.0000 C   0  0  0  0  0  0  0  0  0  0  0  0
    3.0827   -0.8550   -0.0000 C   0  0  0  0  0  0  0  0  0  0  0  0
    3.2392   -1.9026   -0.0000 C   0  0  0  0  0  0  0  0  0  0  0  0
    1.5534   -4.5036   -0.0000 O   0  0  0  0  0  0  0  0  0  0  0  0
    3.8292   -3.1790   -0.0000 C   0  0  0  0  0  0  0  0  0  0  0  0
    4.2989   -1.7340   -0.0000 C   0  0  0  0  0  0  0  0  0  0  0  0
    4.5758   -4.4915   -0.0000 O   0  0  0  0  0  0  0  0  0  0  0  0
    5.7559   -1.3246   -0.0000 N   0  0  0  0  0  0  0  0  0  0  0  0
    6.9239   -2.2759   -0.0000 C   0  0  0  0  0  0  0  0  0  0  0  0
    6.2857    0.1084   -0.0000 C   0  0  0  0  0  0  0  0  0  0  0  0
    6.9962   -3.7931   -0.0000 N   0  0  0  0  0  0  0  0  0  0  0  0
    8.1883   -1.4330   -0.0000 C   0  0  0  0  0  0  0  0  0  0  0  0
    7.7909    0.0361   -0.0000 N   0  0  0  0  0  0  0  0  0  0  0  0
    8.3448   -4.4674   -0.0000 C   0  0  0  0  0  0  0  0  0  0  0  0
    9.5249   -2.1073   -0.0000 C   0  0  0  0  0  0  0  0  0  0  0  0
    8.3328   -5.9726   -0.0000 O   0  0  0  0  0  0  0  0  0  0  0  0
    9.5972   -3.6245   -0.0000 N   0  0  0  0  0  0  0  0  0  0  0  0
   10.8374   -1.3366   -0.0000 N   0  0  0  0  0  0  0  0  0  0  0  0
    9.6453   -6.7192   -0.0000 C   0  0  0  0  0  0  0  0  0  0  0  0
   12.1500   -2.0832   -0.0000 C   0  0  0  0  0  0  0  0  0  0  0  0
    9.6333   -8.2244   -0.0000 C   0  0  0  0  0  0  0  0  0  0  0  0
   13.4625   -1.3125   -0.0000 C   0  0  0  0  0  0  0  0  0  0  0  0
   10.9458   -8.9710   -0.0000 C   0  0  0  0  0  0  0  0  0  0  0  0
    8.2967   -8.9710   -0.0000 C   0  0  0  0  0  0  0  0  0  0  0  0
   14.7751   -2.0591   -0.0000 C   0  0  0  0  0  0  0  0  0  0  0  0
   16.0876   -1.2885   -0.0000 C   0  0  0  0  0  0  0  0  0  0  0  0
   14.7630   -3.5764   -0.0000 C   0  0  0  0  0  0  0  0  0  0  0  0
   17.3881   -2.0350   -0.0000 C   0  0  0  0  0  0  0  0  0  0  0  0
   16.0755   -4.3229   -0.0000 C   0  0  0  0  0  0  0  0  0  0  0  0
   18.7006   -1.2644   -0.0000 O   0  0  0  0  0  0  0  0  0  0  0  0
   17.3760   -3.5402   -0.0000 C   0  0  0  0  0  0  0  0  0  0  0  0
   18.6886   -4.2868   -0.0000 O   0  0  0  0  0  0  0  0  0  0  0  0
   20.0011   -3.5161   -0.0000 C   0  0  0  0  0  0  0  0  0  0  0  0
  1  2  2  0  0  0  0
  2  3  1  0  0  0  0
  4  2  1  6  0  0  0
  3  5  1  0  0  0  0
  4  6  1  0  0  0  0
  4  7  1  0  0  0  0
  4  8  1  0  0  0  0
  6  9  1  6  0  0  0
  6 10  1  0  0  0  0
  7 11  1  0  0  0  0
 10 12  1  6  0  0  0
 11 13  1  1  0  0  0
 13 14  1  0  0  0  0
 13 15  1  0  0  0  0
 14 16  2  0  0  0  0
 14 17  1  0  0  0  0
 15 18  2  0  0  0  0
 16 19  1  0  0  0  0
 17 20  2  0  0  0  0
 19 21  1  0  0  0  0
 19 22  2  0  0  0  0
 20 23  1  0  0  0  0
 21 24  1  0  0  0  0
 23 25  1  0  0  0  0
 24 26  1  0  0  0  0
 25 27  1  0  0  0  0
 26 28  1  0  0  0  0
 26 29  1  0  0  0  0
 27 30  1  0  0  0  0
 30 31  2  0  0  0  0
 30 32  1  0  0  0  0
 31 33  1  0  0  0  0
 32 34  2  0  0  0  0
 33 35  1  0  0  0  0
 33 36  2  0  0  0  0
 36 37  1  0  0  0  0
 37 38  1  0  0  0  0
  7  8  1  6  0  0  0
 10 11  1  0  0  0  0
 17 18  1  0  0  0  0
 20 22  1  0  0  0  0
 34 36  1  0  0  0  0
M  END
>  <MolRegNo>
2773580

>  <m>
=

>  <Value>
830

>  <Unit>
nM

>  <Type>
IC50

>  <pValue>
6.08

>  <Ligand Efficiency>
0

>  <Binding Efficiency>
0

>  <Surface Efficiency>
0

>  <Assay Index>
1581830

>  <Assay Category>


>  <Assay Organism>
Homo sapiens

>  <Target ID>
17045

>  <Target Name>
Cytochrome P450 3A4

>  <Target Organism>
Homo sapiens

>  <Target Description>
Target is a single protein chain

>  <Sequence Accession>
P08684

>  <Reference>


>  <Pubmed ID>
34844790

>  <DOI>
10.1016/j.ejmech.2021.113983

$$$$
2779290
Actelion Java MolfileCreator 1.0

 31 35  0  0  0  0  0  0  0  0999 V2000
    0.0000   -0.0000   -0.0000 S   0  0  0  0  0  0  0  0  0  0  0  0
    1.2433    0.8288   -0.0000 C   0  0  0  0  0  0  0  0  0  0  0  0
    0.3789   -1.4446   -0.0000 C   0  0  0  0  0  0  0  0  0  0  0  0
    2.4037   -0.1066   -0.0000 C   0  0  0  0  0  0  0  0  0  0  0  0
    1.8708   -1.5156   -0.0000 C   0  0  0  0  0  0  0  0  0  0  0  0
    3.8482    0.2960   -0.0000 C   0  0  0  0  0  0  0  0  0  0  0  0
    4.9021   -0.7578   -0.0000 C   0  0  0  0  0  0  0  0  0  0  0  0
    4.2153    1.7524   -0.0000 C   0  0  0  0  0  0  0  0  0  0  0  0
    6.3348   -0.3552   -0.0000 C   0  0  0  0  0  0  0  0  0  0  0  0
    5.6480    2.1668   -0.0000 C   0  0  0  0  0  0  0  0  0  0  0  0
    6.7137    1.1130   -0.0000 C   0  0  0  0  0  0  0  0  0  0  0  0
    8.1582    1.5156   -0.0000 C   0  0  0  0  0  0  0  0  0  0  0  0
    8.5964    2.9483   -0.0000 O   0  0  0  0  0  0  0  0  0  0  0  0
    9.3660    0.6276   -0.0000 N   0  0  0  0  0  0  0  0  0  0  0  0
   10.0883    2.9602   -0.0000 C   0  0  0  0  0  0  0  0  0  0  0  0
   10.5501    1.4919   -0.0000 C   0  0  0  0  0  0  0  0  0  0  0  0
   11.8407    0.7460   -0.0000 C   0  0  0  0  0  0  0  0  0  0  0  0
   11.8407    2.2497   -0.0000 C   0  0  0  0  0  0  0  0  0  0  0  0
   11.8289   -0.7460   -0.0000 N   0  0  0  0  0  0  0  0  0  0  0  0
   11.8289    3.7653   -0.0000 C   0  0  0  0  0  0  0  0  0  0  0  0
   10.7158   -1.7406   -0.0000 C   0  0  0  0  0  0  0  0  0  0  0  0
   13.1195   -1.4919   -0.0000 C   0  0  0  0  0  0  0  0  0  0  0  0
   10.5145    4.5350   -0.0000 C   0  0  0  0  0  0  0  0  0  0  0  0
   13.1313    4.5350   -0.0000 C   0  0  0  0  0  0  0  0  0  0  0  0
   11.3079   -3.1141   -0.0000 N   0  0  0  0  0  0  0  0  0  0  0  0
   12.7643   -2.9720   -0.0000 C   0  0  0  0  0  0  0  0  0  0  0  0
    9.2002    3.8009   -0.0000 F   0  0  0  0  0  0  0  0  0  0  0  0
   10.5027    6.0506   -0.0000 C   0  0  0  0  0  0  0  0  0  0  0  0
   14.4220    3.8009   -0.0000 F   0  0  0  0  0  0  0  0  0  0  0  0
   13.1195    6.0506   -0.0000 C   0  0  0  0  0  0  0  0  0  0  0  0
   11.7933    6.8084   -0.0000 C   0  0  0  0  0  0  0  0  0  0  0  0
  1  2  1  0  0  0  0
  1  3  1  0  0  0  0
  2  4  2  0  0  0  0
  3  5  2  0  0  0  0
  4  6  1  0  0  0  0
  6  7  2  0  0  0  0
  6  8  1  0  0  0  0
  7  9  1  0  0  0  0
  8 10  2  0  0  0  0
  9 11  2  0  0  0  0
 11 12  1  0  0  0  0
 12 13  1  0  0  0  0
 12 14  2  0  0  0  0
 13 15  1  0  0  0  0
 14 16  1  0  0  0  0
 16 17  1  0  0  0  0
 16 18  1  0  0  0  0
 17 19  1  0  0  0  0
 18 20  1  0  0  0  0
 19 21  1  0  0  0  0
 19 22  1  0  0  0  0
 20 23  2  0  0  0  0
 20 24  1  0  0  0  0
 21 25  2  0  0  0  0
 22 26  2  0  0  0  0
 23 27  1  0  0  0  0
 23 28  1  0  0  0  0
 24 29  1  0  0  0  0
 24 30  2  0  0  0  0
 28 31  2  0  0  0  0
  4  5  1  0  0  0  0
 10 11  1  0  0  0  0
 15 16  1  0  0  0  0
 25 26  1  0  0  0  0
 30 31  1  0  0  0  0
M  END
>  <MolRegNo>
2779290

>  <m>
=

>  <Value>
180

>  <Unit>
nM

>  <Type>
IC50

>  <pValue>
6.75

>  <Ligand Efficiency>
0

>  <Binding Efficiency>
0

>  <Surface Efficiency>
0

>  <Assay Index>
1586842

>  <Assay Category>


>  <Assay Organism>
Homo sapiens

>  <Target ID>
17045

>  <Target Name>
Cytochrome P450 3A4

>  <Target Organism>
Homo sapiens

>  <Target Description>
Target is a single protein chain

>  <Sequence Accession>
P08684

>  <Reference>


>  <Pubmed ID>
35255313

>  <DOI>
10.1016/j.ejmech.2022.114195

$$$$
2771944
Actelion Java MolfileCreator 1.0

 31 35  0  0  0  0  0  0  0  0999 V2000
    0.0000   -0.0000   -0.0000 S   0  0  0  0  0  0  0  0  0  0  0  0
    1.2433    0.8288   -0.0000 C   0  0  0  0  0  0  0  0  0  0  0  0
    0.3789   -1.4446   -0.0000 C   0  0  0  0  0  0  0  0  0  0  0  0
    2.4037   -0.1066   -0.0000 C   0  0  0  0  0  0  0  0  0  0  0  0
    1.8708   -1.5156   -0.0000 C   0  0  0  0  0  0  0  0  0  0  0  0
    3.8482    0.2960   -0.0000 C   0  0  0  0  0  0  0  0  0  0  0  0
    4.9021   -0.7578   -0.0000 C   0  0  0  0  0  0  0  0  0  0  0  0
    4.2153    1.7524   -0.0000 C   0  0  0  0  0  0  0  0  0  0  0  0
    6.3348   -0.3552   -0.0000 C   0  0  0  0  0  0  0  0  0  0  0  0
    5.6480    2.1668   -0.0000 C   0  0  0  0  0  0  0  0  0  0  0  0
    6.7137    1.1130   -0.0000 C   0  0  0  0  0  0  0  0  0  0  0  0
    8.1582    1.5156   -0.0000 C   0  0  0  0  0  0  0  0  0  0  0  0
    8.5964    2.9483   -0.0000 O   0  0  0  0  0  0  0  0  0  0  0  0
    9.3660    0.6276   -0.0000 N   0  0  0  0  0  0  0  0  0  0  0  0
   10.0883    2.9602   -0.0000 C   0  0  0  0  0  0  0  0  0  0  0  0
   10.5501    1.4919   -0.0000 C   0  0  0  0  0  0  0  0  0  0  0  0
   11.8407    0.7460   -0.0000 C   0  0  0  0  0  0  0  0  0  0  0  0
   11.8407    2.2497   -0.0000 C   0  0  0  0  0  0  0  0  0  0  0  0
   11.8289   -0.7460   -0.0000 N   0  0  0  0  0  0  0  0  0  0  0  0
   11.8289    3.7653   -0.0000 C   0  0  0  0  0  0  0  0  0  0  0  0
   13.1195   -1.4919   -0.0000 N   0  0  0  0  0  0  0  0  0  0  0  0
   10.7158   -1.7406   -0.0000 C   0  0  0  0  0  0  0  0  0  0  0  0
   10.5145    4.5350   -0.0000 C   0  0  0  0  0  0  0  0  0  0  0  0
   13.1313    4.5350   -0.0000 C   0  0  0  0  0  0  0  0  0  0  0  0
   12.7643   -2.9720   -0.0000 C   0  0  0  0  0  0  0  0  0  0  0  0
   11.3079   -3.1141   -0.0000 N   0  0  0  0  0  0  0  0  0  0  0  0
    9.2002    3.8009   -0.0000 F   0  0  0  0  0  0  0  0  0  0  0  0
   10.5027    6.0506   -0.0000 C   0  0  0  0  0  0  0  0  0  0  0  0
   14.4220    3.8009   -0.0000 F   0  0  0  0  0  0  0  0  0  0  0  0
   13.1195    6.0506   -0.0000 C   0  0  0  0  0  0  0  0  0  0  0  0
   11.7933    6.8084   -0.0000 C   0  0  0  0  0  0  0  0  0  0  0  0
  1  2  1  0  0  0  0
  1  3  1  0  0  0  0
  2  4  2  0  0  0  0
  3  5  2  0  0  0  0
  4  6  1  0  0  0  0
  6  7  2  0  0  0  0
  6  8  1  0  0  0  0
  7  9  1  0  0  0  0
  8 10  2  0  0  0  0
  9 11  2  0  0  0  0
 11 12  1  0  0  0  0
 12 13  1  0  0  0  0
 12 14  2  0  0  0  0
 13 15  1  0  0  0  0
 14 16  1  0  0  0  0
 16 17  1  0  0  0  0
 16 18  1  0  0  0  0
 17 19  1  0  0  0  0
 18 20  1  0  0  0  0
 19 21  1  0  0  0  0
 19 22  1  0  0  0  0
 20 23  2  0  0  0  0
 20 24  1  0  0  0  0
 21 25  2  0  0  0  0
 22 26  2  0  0  0  0
 23 27  1  0  0  0  0
 23 28  1  0  0  0  0
 24 29  1  0  0  0  0
 24 30  2  0  0  0  0
 28 31  2  0  0  0  0
  4  5  1  0  0  0  0
 10 11  1  0  0  0  0
 15 16  1  0  0  0  0
 25 26  1  0  0  0  0
 30 31  1  0  0  0  0
M  END
>  <MolRegNo>
2771944

>  <m>
=

>  <Value>
1810

>  <Unit>
nM

>  <Type>
IC50

>  <pValue>
5.74

>  <Ligand Efficiency>
0

>  <Binding Efficiency>
0

>  <Surface Efficiency>
0

>  <Assay Index>
1586842

>  <Assay Category>


>  <Assay Organism>
Homo sapiens

>  <Target ID>
17045

>  <Target Name>
Cytochrome P450 3A4

>  <Target Organism>
Homo sapiens

>  <Target Description>
Target is a single protein chain

>  <Sequence Accession>
P08684

>  <Reference>


>  <Pubmed ID>
35255313

>  <DOI>
10.1016/j.ejmech.2022.114195

$$$$
2405079
Actelion Java MolfileCreator 1.0

 26 27  0  0  0  0  0  0  0  0999 V2000
    0.0000   -0.0000   -0.0000 O   0  0  0  0  0  0  0  0  0  0  0  0
   -0.0119   -1.4930   -0.0000 C   0  0  0  0  0  0  0  0  0  0  0  0
    1.2780   -2.2335   -0.0000 N   0  0  0  0  0  0  0  0  0  0  0  0
   -1.3258   -2.2335   -0.0000 C   0  0  0  0  0  0  0  0  0  0  0  0
    2.5679   -1.4691   -0.0000 C   0  0  0  0  0  0  0  0  0  0  0  0
    2.5560    0.0597   -0.0000 N   0  0  0  0  0  0  0  0  0  0  0  0
    3.8579   -2.2096   -0.0000 C   0  0  0  0  0  0  0  0  0  0  0  0
    3.8459    0.8241   -0.0000 C   0  0  0  0  0  0  0  0  0  0  0  0
    5.1598   -1.4452   -0.0000 C   0  0  0  0  0  0  0  0  0  0  0  0
    5.1478    0.0836   -0.0000 C   0  0  0  0  0  0  0  0  0  0  0  0
    6.4497   -2.1857   -0.0000 C   0  0  0  0  0  0  0  0  0  0  0  0
    7.7397   -1.4213   -0.0000 C   0  0  0  0  0  0  0  0  0  0  0  0
    6.4378   -3.6907   -0.0000 C   0  0  0  0  0  0  0  0  0  0  0  0
    9.0296   -2.1499   -0.0000 C   0  0  0  0  0  0  0  0  0  0  0  0
    7.7277   -4.4312   -0.0000 C   0  0  0  0  0  0  0  0  0  0  0  0
   10.3076   -1.3736   -0.0000 C   0  0  0  0  0  0  0  0  0  0  0  0
    9.0296   -3.6548   -0.0000 C   0  0  0  0  0  0  0  0  0  0  0  0
   11.5976   -0.5972   -0.0000 N   0  0  0  0  0  0  0  0  0  0  0  0
   10.3315   -4.3954   -0.0000 O   0  0  0  0  0  0  0  0  0  0  0  0
   11.6215   -3.6310   -0.0000 C   0  0  0  0  0  0  0  0  0  0  0  0
   12.9233   -4.3715   -0.0000 C   0  0  0  0  0  0  0  0  0  0  0  0
   12.9114   -5.8645   -0.0000 N   0  0  0  0  0  0  0  0  0  0  0  0
   14.2133   -3.6071   -0.0000 C   0  0  0  0  0  0  0  0  0  0  0  0
   15.5152   -4.3476   -0.0000 C   0  0  0  0  0  0  0  0  0  0  0  0
   15.5032   -5.8406   -0.0000 C   0  0  0  0  0  0  0  0  0  0  0  0
   16.8051   -3.5832   -0.0000 C   0  0  0  0  0  0  0  0  0  0  0  0
  1  2  2  0  0  0  0
  2  3  1  0  0  0  0
  2  4  1  0  0  0  0
  3  5  1  0  0  0  0
  5  6  2  0  0  0  0
  5  7  1  0  0  0  0
  6  8  1  0  0  0  0
  7  9  2  0  0  0  0
  8 10  2  0  0  0  0
  9 11  1  0  0  0  0
 11 12  2  0  0  0  0
 11 13  1  0  0  0  0
 12 14  1  0  0  0  0
 13 15  2  0  0  0  0
 14 16  1  0  0  0  0
 14 17  2  0  0  0  0
 16 18  3  0  0  0  0
 17 19  1  0  0  0  0
 19 20  1  0  0  0  0
 20 21  1  0  0  0  0
 21 22  1  6  0  0  0
 21 23  1  0  0  0  0
 23 24  1  0  0  0  0
 24 25  1  0  0  0  0
 24 26  1  0  0  0  0
  9 10  1  0  0  0  0
 15 17  1  0  0  0  0
M  END
>  <MolRegNo>
2405079

>  <m>
=

>  <Value>
2600

>  <Unit>
nM

>  <Type>
IC50

>  <pValue>
5.58

>  <Ligand Efficiency>
0

>  <Binding Efficiency>
0

>  <Surface Efficiency>
0

>  <Assay Index>
1587013

>  <Assay Category>


>  <Assay Organism>
Homo sapiens

>  <Target ID>
17045

>  <Target Name>
Cytochrome P450 3A4

>  <Target Organism>
Homo sapiens

>  <Target Description>
Target is a single protein chain

>  <Sequence Accession>
P08684

>  <Reference>
J Med Chem 65 (6.0), 4534-4564 (2022)

>  <Pubmed ID>
35261239

>  <DOI>
10.1021/acs.jmedchem.1c02132

$$$$
2213656
Actelion Java MolfileCreator 1.0

 26 27  0  0  0  0  0  0  0  0999 V2000
    0.0000   -0.0000   -0.0000 O   0  0  0  0  0  0  0  0  0  0  0  0
   -0.0119   -1.4927   -0.0000 C   0  0  0  0  0  0  0  0  0  0  0  0
    1.2777   -2.2330   -0.0000 N   0  0  0  0  0  0  0  0  0  0  0  0
   -1.3255   -2.2330   -0.0000 C   0  0  0  0  0  0  0  0  0  0  0  0
    2.5674   -1.4688   -0.0000 C   0  0  0  0  0  0  0  0  0  0  0  0
    2.5555    0.0597   -0.0000 N   0  0  0  0  0  0  0  0  0  0  0  0
    3.8571   -2.2092   -0.0000 C   0  0  0  0  0  0  0  0  0  0  0  0
    3.8451    0.8240   -0.0000 C   0  0  0  0  0  0  0  0  0  0  0  0
    5.1587   -1.4449   -0.0000 C   0  0  0  0  0  0  0  0  0  0  0  0
    5.1467    0.0836   -0.0000 C   0  0  0  0  0  0  0  0  0  0  0  0
    6.4484   -2.1853   -0.0000 C   0  0  0  0  0  0  0  0  0  0  0  0
    7.7380   -1.4210   -0.0000 C   0  0  0  0  0  0  0  0  0  0  0  0
    6.4364   -3.6899   -0.0000 C   0  0  0  0  0  0  0  0  0  0  0  0
    9.0277   -2.1495   -0.0000 C   0  0  0  0  0  0  0  0  0  0  0  0
    7.7261   -4.4303   -0.0000 C   0  0  0  0  0  0  0  0  0  0  0  0
   10.3174   -1.3733   -0.0000 O   0  0  0  0  0  0  0  0  0  0  0  0
    9.0277   -3.6541   -0.0000 C   0  0  0  0  0  0  0  0  0  0  0  0
   11.6190   -2.1136   -0.0000 C   0  0  0  0  0  0  0  0  0  0  0  0
   10.3293   -4.3944   -0.0000 O   0  0  0  0  0  0  0  0  0  0  0  0
   11.6190   -3.6302   -0.0000 C   0  0  0  0  0  0  0  0  0  0  0  0
   12.9206   -4.3706   -0.0000 C   0  0  0  0  0  0  0  0  0  0  0  0
   12.9087   -5.8632   -0.0000 N   0  0  0  0  0  0  0  0  0  0  0  0
   14.2103   -3.6063   -0.0000 C   0  0  0  0  0  0  0  0  0  0  0  0
   15.5119   -4.3467   -0.0000 C   0  0  0  0  0  0  0  0  0  0  0  0
   16.8016   -3.5705   -0.0000 C   0  0  0  0  0  0  0  0  0  0  0  0
   15.5000   -5.8394   -0.0000 C   0  0  0  0  0  0  0  0  0  0  0  0
  1  2  2  0  0  0  0
  2  3  1  0  0  0  0
  2  4  1  0  0  0  0
  3  5  1  0  0  0  0
  5  6  2  0  0  0  0
  5  7  1  0  0  0  0
  6  8  1  0  0  0  0
  7  9  2  0  0  0  0
  8 10  2  0  0  0  0
  9 11  1  0  0  0  0
 11 12  2  0  0  0  0
 11 13  1  0  0  0  0
 12 14  1  0  0  0  0
 13 15  2  0  0  0  0
 14 16  1  0  0  0  0
 14 17  2  0  0  0  0
 16 18  1  0  0  0  0
 17 19  1  0  0  0  0
 19 20  1  0  0  0  0
 20 21  1  0  0  0  0
 21 22  1  6  0  0  0
 21 23  1  0  0  0  0
 23 24  1  0  0  0  0
 24 25  1  0  0  0  0
 24 26  1  0  0  0  0
  9 10  1  0  0  0  0
 15 17  1  0  0  0  0
M  END
>  <MolRegNo>
2213656

>  <m>
=

>  <Value>
6900

>  <Unit>
nM

>  <Type>
IC50

>  <pValue>
5.16

>  <Ligand Efficiency>
0

>  <Binding Efficiency>
0

>  <Surface Efficiency>
0

>  <Assay Index>
1587013

>  <Assay Category>


>  <Assay Organism>
Homo sapiens

>  <Target ID>
17045

>  <Target Name>
Cytochrome P450 3A4

>  <Target Organism>
Homo sapiens

>  <Target Description>
Target is a single protein chain

>  <Sequence Accession>
P08684

>  <Reference>
J Med Chem 65 (6.0), 4534-4564 (2022)

>  <Pubmed ID>
35261239

>  <DOI>
10.1021/acs.jmedchem.1c02132

$$$$
2769809
Actelion Java MolfileCreator 1.0

 25 26  0  0  0  0  0  0  0  0999 V2000
    0.0000   -0.0000   -0.0000 F   0  0  0  0  0  0  0  0  0  0  0  0
   -1.3141   -0.7340   -0.0000 C   0  0  0  0  0  0  0  0  0  0  0  0
   -1.3260   -2.2257   -0.0000 C   0  0  0  0  0  0  0  0  0  0  0  0
   -2.6164    0.0237   -0.0000 C   0  0  0  0  0  0  0  0  0  0  0  0
   -0.0355   -2.9597   -0.0000 O   0  0  0  0  0  0  0  0  0  0  0  0
   -2.6282   -2.9597   -0.0000 C   0  0  0  0  0  0  0  0  0  0  0  0
   -3.9305   -0.7103   -0.0000 C   0  0  0  0  0  0  0  0  0  0  0  0
    1.2549   -2.2020   -0.0000 C   0  0  0  0  0  0  0  0  0  0  0  0
   -3.9423   -2.2020   -0.0000 C   0  0  0  0  0  0  0  0  0  0  0  0
   -5.2446    0.0474   -0.0000 C   0  0  0  0  0  0  0  0  0  0  0  0
    2.5454   -2.9360   -0.0000 C   0  0  0  0  0  0  0  0  0  0  0  0
   -6.5469   -0.6867   -0.0000 C   0  0  0  0  0  0  0  0  0  0  0  0
   -5.2565    1.5509   -0.0000 C   0  0  0  0  0  0  0  0  0  0  0  0
    2.5335   -4.4159   -0.0000 N   0  0  0  0  0  0  0  0  0  0  0  0
    3.8358   -2.1784   -0.0000 C   0  0  0  0  0  0  0  0  0  0  0  0
   -7.8610    0.0710   -0.0000 C   0  0  0  0  0  0  0  0  0  0  0  0
   -6.5587    2.3086   -0.0000 C   0  0  0  0  0  0  0  0  0  0  0  0
    5.1262   -2.9124   -0.0000 C   0  0  0  0  0  0  0  0  0  0  0  0
   -7.8729    1.5864   -0.0000 N   0  0  0  0  0  0  0  0  0  0  0  0
   -9.1751   -0.6630   -0.0000 N   0  0  0  0  0  0  0  0  0  0  0  0
    6.4167   -2.1547   -0.0000 C   0  0  0  0  0  0  0  0  0  0  0  0
    5.1144   -4.3922   -0.0000 C   0  0  0  0  0  0  0  0  0  0  0  0
  -10.4892    0.0947   -0.0000 C   0  0  0  0  0  0  0  0  0  0  0  0
  -10.5011    1.5982   -0.0000 O   0  0  0  0  0  0  0  0  0  0  0  0
  -11.8034   -0.6393   -0.0000 C   0  0  0  0  0  0  0  0  0  0  0  0
  1  2  1  0  0  0  0
  2  3  2  0  0  0  0
  2  4  1  0  0  0  0
  3  5  1  0  0  0  0
  3  6  1  0  0  0  0
  4  7  2  0  0  0  0
  5  8  1  0  0  0  0
  6  9  2  0  0  0  0
  7 10  1  0  0  0  0
  8 11  1  0  0  0  0
 10 12  2  0  0  0  0
 10 13  1  0  0  0  0
 11 14  1  6  0  0  0
 11 15  1  0  0  0  0
 12 16  1  0  0  0  0
 13 17  2  0  0  0  0
 15 18  1  0  0  0  0
 16 19  2  0  0  0  0
 16 20  1  0  0  0  0
 18 21  1  0  0  0  0
 18 22  1  0  0  0  0
 20 23  1  0  0  0  0
 23 24  2  0  0  0  0
 23 25  1  0  0  0  0
  7  9  1  0  0  0  0
 17 19  1  0  0  0  0
M  END
>  <MolRegNo>
2769809

>  <m>
=

>  <Value>
8900

>  <Unit>
nM

>  <Type>
IC50

>  <pValue>
5.05

>  <Ligand Efficiency>
0

>  <Binding Efficiency>
0

>  <Surface Efficiency>
0

>  <Assay Index>
1587013

>  <Assay Category>


>  <Assay Organism>
Homo sapiens

>  <Target ID>
17045

>  <Target Name>
Cytochrome P450 3A4

>  <Target Organism>
Homo sapiens

>  <Target Description>
Target is a single protein chain

>  <Sequence Accession>
P08684

>  <Reference>
J Med Chem 65 (6.0), 4534-4564 (2022)

>  <Pubmed ID>
35261239

>  <DOI>
10.1021/acs.jmedchem.1c02132

$$$$
2756847
Actelion Java MolfileCreator 1.0

 28 29  0  0  0  0  0  0  0  0999 V2000
    0.0000   -0.0000   -0.0000 F   0  0  0  0  0  0  0  0  0  0  0  0
   -0.0119   -1.4813   -0.0000 C   0  0  0  0  0  0  0  0  0  0  0  0
    0.7229   -2.7731   -0.0000 F   0  0  0  0  0  0  0  0  0  0  0  0
    1.4813   -1.4695   -0.0000 F   0  0  0  0  0  0  0  0  0  0  0  0
   -1.3273   -2.2161   -0.0000 C   0  0  0  0  0  0  0  0  0  0  0  0
   -1.3391   -3.7093   -0.0000 C   0  0  0  0  0  0  0  0  0  0  0  0
   -2.6309   -1.4576   -0.0000 C   0  0  0  0  0  0  0  0  0  0  0  0
   -0.0474   -4.4440   -0.0000 O   0  0  0  0  0  0  0  0  0  0  0  0
   -2.6427   -4.4440   -0.0000 C   0  0  0  0  0  0  0  0  0  0  0  0
   -3.9463   -2.1924   -0.0000 C   0  0  0  0  0  0  0  0  0  0  0  0
    1.2443   -3.6856   -0.0000 C   0  0  0  0  0  0  0  0  0  0  0  0
   -3.9582   -3.6856   -0.0000 C   0  0  0  0  0  0  0  0  0  0  0  0
   -5.2618   -1.4339   -0.0000 C   0  0  0  0  0  0  0  0  0  0  0  0
    2.5361   -4.4203   -0.0000 C   0  0  0  0  0  0  0  0  0  0  0  0
   -6.5653   -2.1687   -0.0000 C   0  0  0  0  0  0  0  0  0  0  0  0
   -5.2736    0.0711   -0.0000 C   0  0  0  0  0  0  0  0  0  0  0  0
    2.5242   -5.9017   -0.0000 N   0  0  0  0  0  0  0  0  0  0  0  0
    3.8278   -3.6619   -0.0000 C   0  0  0  0  0  0  0  0  0  0  0  0
   -7.8808   -1.4102   -0.0000 C   0  0  0  0  0  0  0  0  0  0  0  0
   -6.5772    0.8296   -0.0000 C   0  0  0  0  0  0  0  0  0  0  0  0
    5.1195   -4.3966   -0.0000 C   0  0  0  0  0  0  0  0  0  0  0  0
   -7.8926    0.1067   -0.0000 N   0  0  0  0  0  0  0  0  0  0  0  0
   -9.1962   -2.1450   -0.0000 N   0  0  0  0  0  0  0  0  0  0  0  0
    6.4113   -3.6382   -0.0000 C   0  0  0  0  0  0  0  0  0  0  0  0
    5.1077   -5.8780   -0.0000 C   0  0  0  0  0  0  0  0  0  0  0  0
  -10.5117   -1.3865   -0.0000 C   0  0  0  0  0  0  0  0  0  0  0  0
  -10.5235    0.1185   -0.0000 O   0  0  0  0  0  0  0  0  0  0  0  0
  -11.8271   -2.1213   -0.0000 C   0  0  0  0  0  0  0  0  0  0  0  0
  1  2  1  0  0  0  0
  2  3  1  0  0  0  0
  2  4  1  0  0  0  0
  2  5  1  0  0  0  0
  5  6  2  0  0  0  0
  5  7  1  0  0  0  0
  6  8  1  0  0  0  0
  6  9  1  0  0  0  0
  7 10  2  0  0  0  0
  8 11  1  0  0  0  0
  9 12  2  0  0  0  0
 10 13  1  0  0  0  0
 11 14  1  0  0  0  0
 13 15  2  0  0  0  0
 13 16  1  0  0  0  0
 14 17  1  6  0  0  0
 14 18  1  0  0  0  0
 15 19  1  0  0  0  0
 16 20  2  0  0  0  0
 18 21  1  0  0  0  0
 19 22  2  0  0  0  0
 19 23  1  0  0  0  0
 21 24  1  0  0  0  0
 21 25  1  0  0  0  0
 23 26  1  0  0  0  0
 26 27  2  0  0  0  0
 26 28  1  0  0  0  0
 10 12  1  0  0  0  0
 20 22  1  0  0  0  0
M  END
>  <MolRegNo>
2756847

>  <m>
=

>  <Value>
330

>  <Unit>
nM

>  <Type>
IC50

>  <pValue>
6.48

>  <Ligand Efficiency>
0

>  <Binding Efficiency>
0

>  <Surface Efficiency>
0

>  <Assay Index>
1587013

>  <Assay Category>


>  <Assay Organism>
Homo sapiens

>  <Target ID>
17045

>  <Target Name>
Cytochrome P450 3A4

>  <Target Organism>
Homo sapiens

>  <Target Description>
Target is a single protein chain

>  <Sequence Accession>
P08684

>  <Reference>
J Med Chem 65 (6.0), 4534-4564 (2022)

>  <Pubmed ID>
35261239

>  <DOI>
10.1021/acs.jmedchem.1c02132

$$$$
2750403
Actelion Java MolfileCreator 1.0

 29 30  0  0  0  0  0  0  0  0999 V2000
    0.0000   -0.0000   -0.0000 F   0  0  0  0  0  0  0  0  0  0  0  0
   -1.3121   -0.7329   -0.0000 C   0  0  0  0  0  0  0  0  0  0  0  0
   -2.0686    0.5792   -0.0000 F   0  0  0  0  0  0  0  0  0  0  0  0
   -2.8132   -0.7210   -0.0000 F   0  0  0  0  0  0  0  0  0  0  0  0
   -1.3239   -2.2222   -0.0000 O   0  0  0  0  0  0  0  0  0  0  0  0
   -2.6359   -2.9551   -0.0000 C   0  0  0  0  0  0  0  0  0  0  0  0
   -2.6478   -4.4445   -0.0000 C   0  0  0  0  0  0  0  0  0  0  0  0
   -3.9362   -2.1986   -0.0000 C   0  0  0  0  0  0  0  0  0  0  0  0
   -1.3593   -5.1773   -0.0000 O   0  0  0  0  0  0  0  0  0  0  0  0
   -3.9480   -5.1773   -0.0000 C   0  0  0  0  0  0  0  0  0  0  0  0
   -5.2482   -2.9314   -0.0000 C   0  0  0  0  0  0  0  0  0  0  0  0
   -0.0709   -4.4208   -0.0000 C   0  0  0  0  0  0  0  0  0  0  0  0
   -5.2601   -4.4208   -0.0000 C   0  0  0  0  0  0  0  0  0  0  0  0
   -6.5603   -2.1749   -0.0000 C   0  0  0  0  0  0  0  0  0  0  0  0
    1.2175   -5.1537   -0.0000 C   0  0  0  0  0  0  0  0  0  0  0  0
   -7.8605   -2.9078   -0.0000 C   0  0  0  0  0  0  0  0  0  0  0  0
   -6.5721   -0.6619   -0.0000 C   0  0  0  0  0  0  0  0  0  0  0  0
    1.2057   -6.6430   -0.0000 N   0  0  0  0  0  0  0  0  0  0  0  0
    2.5059   -4.3972   -0.0000 C   0  0  0  0  0  0  0  0  0  0  0  0
   -9.1726   -2.1513   -0.0000 C   0  0  0  0  0  0  0  0  0  0  0  0
   -7.8724    0.0946   -0.0000 C   0  0  0  0  0  0  0  0  0  0  0  0
    3.7943   -5.1300   -0.0000 C   0  0  0  0  0  0  0  0  0  0  0  0
   -9.1844   -0.6383   -0.0000 N   0  0  0  0  0  0  0  0  0  0  0  0
  -10.4846   -2.8842   -0.0000 N   0  0  0  0  0  0  0  0  0  0  0  0
    5.0827   -4.3735   -0.0000 C   0  0  0  0  0  0  0  0  0  0  0  0
    3.7825   -6.6194   -0.0000 C   0  0  0  0  0  0  0  0  0  0  0  0
  -11.7967   -2.1277   -0.0000 C   0  0  0  0  0  0  0  0  0  0  0  0
  -11.8085   -0.6147   -0.0000 O   0  0  0  0  0  0  0  0  0  0  0  0
  -13.1088   -2.8605   -0.0000 C   0  0  0  0  0  0  0  0  0  0  0  0
  1  2  1  0  0  0  0
  2  3  1  0  0  0  0
  2  4  1  0  0  0  0
  2  5  1  0  0  0  0
  5  6  1  0  0  0  0
  6  7  2  0  0  0  0
  6  8  1  0  0  0  0
  7  9  1  0  0  0  0
  7 10  1  0  0  0  0
  8 11  2  0  0  0  0
  9 12  1  0  0  0  0
 10 13  2  0  0  0  0
 11 14  1  0  0  0  0
 12 15  1  0  0  0  0
 14 16  2  0  0  0  0
 14 17  1  0  0  0  0
 15 18  1  6  0  0  0
 15 19  1  0  0  0  0
 16 20  1  0  0  0  0
 17 21  2  0  0  0  0
 19 22  1  0  0  0  0
 20 23  2  0  0  0  0
 20 24  1  0  0  0  0
 22 25  1  0  0  0  0
 22 26  1  0  0  0  0
 24 27  1  0  0  0  0
 27 28  2  0  0  0  0
 27 29  1  0  0  0  0
 11 13  1  0  0  0  0
 21 23  1  0  0  0  0
M  END
>  <MolRegNo>
2750403

>  <m>
=

>  <Value>
230

>  <Unit>
nM

>  <Type>
IC50

>  <pValue>
6.64

>  <Ligand Efficiency>
0

>  <Binding Efficiency>
0

>  <Surface Efficiency>
0

>  <Assay Index>
1587013

>  <Assay Category>


>  <Assay Organism>
Homo sapiens

>  <Target ID>
17045

>  <Target Name>
Cytochrome P450 3A4

>  <Target Organism>
Homo sapiens

>  <Target Description>
Target is a single protein chain

>  <Sequence Accession>
P08684

>  <Reference>
J Med Chem 65 (6.0), 4534-4564 (2022)

>  <Pubmed ID>
35261239

>  <DOI>
10.1021/acs.jmedchem.1c02132

$$$$
2202299
Actelion Java MolfileCreator 1.0

 25 26  0  0  0  0  0  0  0  0999 V2000
    0.0000   -0.0000   -0.0000 O   0  0  0  0  0  0  0  0  0  0  0  0
   -0.0119   -1.4928   -0.0000 C   0  0  0  0  0  0  0  0  0  0  0  0
    1.2778   -2.2332   -0.0000 N   0  0  0  0  0  0  0  0  0  0  0  0
   -1.3256   -2.2332   -0.0000 C   0  0  0  0  0  0  0  0  0  0  0  0
    2.5676   -1.4689   -0.0000 C   0  0  0  0  0  0  0  0  0  0  0  0
    2.5557    0.0597   -0.0000 N   0  0  0  0  0  0  0  0  0  0  0  0
    3.8574   -2.2094   -0.0000 C   0  0  0  0  0  0  0  0  0  0  0  0
    3.8455    0.8240   -0.0000 C   0  0  0  0  0  0  0  0  0  0  0  0
    5.1592   -1.4450   -0.0000 C   0  0  0  0  0  0  0  0  0  0  0  0
    5.1472    0.0836   -0.0000 C   0  0  0  0  0  0  0  0  0  0  0  0
    6.4490   -2.1855   -0.0000 C   0  0  0  0  0  0  0  0  0  0  0  0
    7.7387   -1.4212   -0.0000 C   0  0  0  0  0  0  0  0  0  0  0  0
    6.4370   -3.6902   -0.0000 C   0  0  0  0  0  0  0  0  0  0  0  0
    9.0285   -2.1497   -0.0000 C   0  0  0  0  0  0  0  0  0  0  0  0
    7.7268   -4.4307   -0.0000 C   0  0  0  0  0  0  0  0  0  0  0  0
    9.0285   -3.6544   -0.0000 C   0  0  0  0  0  0  0  0  0  0  0  0
   10.3183   -1.3734   -0.0000 C   0  0  0  0  0  0  0  0  0  0  0  0
   10.3303   -4.3948   -0.0000 O   0  0  0  0  0  0  0  0  0  0  0  0
   11.6201   -3.6305   -0.0000 C   0  0  0  0  0  0  0  0  0  0  0  0
   12.9218   -4.3710   -0.0000 C   0  0  0  0  0  0  0  0  0  0  0  0
   12.9099   -5.8638   -0.0000 N   0  0  0  0  0  0  0  0  0  0  0  0
   14.2116   -3.6066   -0.0000 C   0  0  0  0  0  0  0  0  0  0  0  0
   15.5133   -4.3471   -0.0000 C   0  0  0  0  0  0  0  0  0  0  0  0
   16.8031   -3.5828   -0.0000 C   0  0  0  0  0  0  0  0  0  0  0  0
   15.5014   -5.8399   -0.0000 C   0  0  0  0  0  0  0  0  0  0  0  0
  1  2  2  0  0  0  0
  2  3  1  0  0  0  0
  2  4  1  0  0  0  0
  3  5  1  0  0  0  0
  5  6  2  0  0  0  0
  5  7  1  0  0  0  0
  6  8  1  0  0  0  0
  7  9  2  0  0  0  0
  8 10  2  0  0  0  0
  9 11  1  0  0  0  0
 11 12  2  0  0  0  0
 11 13  1  0  0  0  0
 12 14  1  0  0  0  0
 13 15  2  0  0  0  0
 14 16  2  0  0  0  0
 14 17  1  0  0  0  0
 16 18  1  0  0  0  0
 18 19  1  0  0  0  0
 19 20  1  0  0  0  0
 20 21  1  6  0  0  0
 20 22  1  0  0  0  0
 22 23  1  0  0  0  0
 23 24  1  0  0  0  0
 23 25  1  0  0  0  0
  9 10  1  0  0  0  0
 15 16  1  0  0  0  0
M  END
>  <MolRegNo>
2202299

>  <m>
=

>  <Value>
3900

>  <Unit>
nM

>  <Type>
IC50

>  <pValue>
5.41

>  <Ligand Efficiency>
0

>  <Binding Efficiency>
0

>  <Surface Efficiency>
0

>  <Assay Index>
1587013

>  <Assay Category>


>  <Assay Organism>
Homo sapiens

>  <Target ID>
17045

>  <Target Name>
Cytochrome P450 3A4

>  <Target Organism>
Homo sapiens

>  <Target Description>
Target is a single protein chain

>  <Sequence Accession>
P08684

>  <Reference>
J Med Chem 65 (6.0), 4534-4564 (2022)

>  <Pubmed ID>
35261239

>  <DOI>
10.1021/acs.jmedchem.1c02132

$$$$
2758014
Actelion Java MolfileCreator 1.0

 25 26  0  0  0  0  0  0  0  0999 V2000
    0.0000   -0.0000   -0.0000 Cl  0  0  0  0  0  0  0  0  0  0  0  0
   -1.3141   -0.7340   -0.0000 C   0  0  0  0  0  0  0  0  0  0  0  0
   -1.3260   -2.2257   -0.0000 C   0  0  0  0  0  0  0  0  0  0  0  0
   -2.6164    0.0237   -0.0000 C   0  0  0  0  0  0  0  0  0  0  0  0
   -0.0355   -2.9597   -0.0000 O   0  0  0  0  0  0  0  0  0  0  0  0
   -2.6282   -2.9597   -0.0000 C   0  0  0  0  0  0  0  0  0  0  0  0
   -3.9305   -0.7103   -0.0000 C   0  0  0  0  0  0  0  0  0  0  0  0
    1.2549   -2.2020   -0.0000 C   0  0  0  0  0  0  0  0  0  0  0  0
   -3.9423   -2.2020   -0.0000 C   0  0  0  0  0  0  0  0  0  0  0  0
   -5.2446    0.0474   -0.0000 C   0  0  0  0  0  0  0  0  0  0  0  0
    2.5454   -2.9360   -0.0000 C   0  0  0  0  0  0  0  0  0  0  0  0
   -6.5469   -0.6867   -0.0000 C   0  0  0  0  0  0  0  0  0  0  0  0
   -5.2565    1.5509   -0.0000 C   0  0  0  0  0  0  0  0  0  0  0  0
    2.5335   -4.4159   -0.0000 N   0  0  0  0  0  0  0  0  0  0  0  0
    3.8358   -2.1784   -0.0000 C   0  0  0  0  0  0  0  0  0  0  0  0
   -7.8610    0.0710   -0.0000 C   0  0  0  0  0  0  0  0  0  0  0  0
   -6.5587    2.3086   -0.0000 C   0  0  0  0  0  0  0  0  0  0  0  0
    5.1262   -2.9124   -0.0000 C   0  0  0  0  0  0  0  0  0  0  0  0
   -7.8729    1.5864   -0.0000 N   0  0  0  0  0  0  0  0  0  0  0  0
   -9.1751   -0.6630   -0.0000 N   0  0  0  0  0  0  0  0  0  0  0  0
    6.4167   -2.1547   -0.0000 C   0  0  0  0  0  0  0  0  0  0  0  0
    5.1144   -4.3922   -0.0000 C   0  0  0  0  0  0  0  0  0  0  0  0
  -10.4892    0.0947   -0.0000 C   0  0  0  0  0  0  0  0  0  0  0  0
  -10.5011    1.5982   -0.0000 O   0  0  0  0  0  0  0  0  0  0  0  0
  -11.8034   -0.6393   -0.0000 C   0  0  0  0  0  0  0  0  0  0  0  0
  1  2  1  0  0  0  0
  2  3  2  0  0  0  0
  2  4  1  0  0  0  0
  3  5  1  0  0  0  0
  3  6  1  0  0  0  0
  4  7  2  0  0  0  0
  5  8  1  0  0  0  0
  6  9  2  0  0  0  0
  7 10  1  0  0  0  0
  8 11  1  0  0  0  0
 10 12  2  0  0  0  0
 10 13  1  0  0  0  0
 11 14  1  6  0  0  0
 11 15  1  0  0  0  0
 12 16  1  0  0  0  0
 13 17  2  0  0  0  0
 15 18  1  0  0  0  0
 16 19  2  0  0  0  0
 16 20  1  0  0  0  0
 18 21  1  0  0  0  0
 18 22  1  0  0  0  0
 20 23  1  0  0  0  0
 23 24  2  0  0  0  0
 23 25  1  0  0  0  0
  7  9  1  0  0  0  0
 17 19  1  0  0  0  0
M  END
>  <MolRegNo>
2758014

>  <m>
=

>  <Value>
2600

>  <Unit>
nM

>  <Type>
IC50

>  <pValue>
5.58

>  <Ligand Efficiency>
0

>  <Binding Efficiency>
0

>  <Surface Efficiency>
0

>  <Assay Index>
1587013

>  <Assay Category>


>  <Assay Organism>
Homo sapiens

>  <Target ID>
17045

>  <Target Name>
Cytochrome P450 3A4

>  <Target Organism>
Homo sapiens

>  <Target Description>
Target is a single protein chain

>  <Sequence Accession>
P08684

>  <Reference>
J Med Chem 65 (6.0), 4534-4564 (2022)

>  <Pubmed ID>
35261239

>  <DOI>
10.1021/acs.jmedchem.1c02132

$$$$
2766178
Actelion Java MolfileCreator 1.0

 26 27  0  0  0  0  0  0  0  0999 V2000
    0.0000   -0.0000   -0.0000 F   0  0  0  0  0  0  0  0  0  0  0  0
   -1.3130   -0.7334   -0.0000 C   0  0  0  0  0  0  0  0  0  0  0  0
   -1.3249   -2.2239   -0.0000 C   0  0  0  0  0  0  0  0  0  0  0  0
   -2.6143    0.0237   -0.0000 C   0  0  0  0  0  0  0  0  0  0  0  0
   -0.0355   -2.9573   -0.0000 O   0  0  0  0  0  0  0  0  0  0  0  0
   -2.6261   -2.9573   -0.0000 C   0  0  0  0  0  0  0  0  0  0  0  0
   -3.9273   -0.7098   -0.0000 C   0  0  0  0  0  0  0  0  0  0  0  0
    1.2539   -2.2002   -0.0000 C   0  0  0  0  0  0  0  0  0  0  0  0
   -2.6379   -4.4478   -0.0000 F   0  0  0  0  0  0  0  0  0  0  0  0
   -3.9391   -2.2002   -0.0000 C   0  0  0  0  0  0  0  0  0  0  0  0
   -5.2404    0.0473   -0.0000 C   0  0  0  0  0  0  0  0  0  0  0  0
    2.5433   -2.9337   -0.0000 C   0  0  0  0  0  0  0  0  0  0  0  0
   -6.5416   -0.6861   -0.0000 C   0  0  0  0  0  0  0  0  0  0  0  0
   -5.2522    1.5615   -0.0000 C   0  0  0  0  0  0  0  0  0  0  0  0
    2.5315   -4.4241   -0.0000 N   0  0  0  0  0  0  0  0  0  0  0  0
    3.8327   -2.1766   -0.0000 C   0  0  0  0  0  0  0  0  0  0  0  0
   -7.8546    0.0710   -0.0000 C   0  0  0  0  0  0  0  0  0  0  0  0
   -6.5534    2.3185   -0.0000 C   0  0  0  0  0  0  0  0  0  0  0  0
    5.1221   -2.9100   -0.0000 C   0  0  0  0  0  0  0  0  0  0  0  0
   -7.8664    1.5851   -0.0000 N   0  0  0  0  0  0  0  0  0  0  0  0
   -9.1677   -0.6624   -0.0000 N   0  0  0  0  0  0  0  0  0  0  0  0
    6.4114   -2.1529   -0.0000 C   0  0  0  0  0  0  0  0  0  0  0  0
    5.1102   -4.4005   -0.0000 C   0  0  0  0  0  0  0  0  0  0  0  0
  -10.4807    0.0946   -0.0000 C   0  0  0  0  0  0  0  0  0  0  0  0
  -10.4925    1.5969   -0.0000 O   0  0  0  0  0  0  0  0  0  0  0  0
  -11.7938   -0.6388   -0.0000 C   0  0  0  0  0  0  0  0  0  0  0  0
  1  2  1  0  0  0  0
  2  3  2  0  0  0  0
  2  4  1  0  0  0  0
  3  5  1  0  0  0  0
  3  6  1  0  0  0  0
  4  7  2  0  0  0  0
  5  8  1  0  0  0  0
  6  9  1  0  0  0  0
  6 10  2  0  0  0  0
  7 11  1  0  0  0  0
  8 12  1  0  0  0  0
 11 13  2  0  0  0  0
 11 14  1  0  0  0  0
 12 15  1  6  0  0  0
 12 16  1  0  0  0  0
 13 17  1  0  0  0  0
 14 18  2  0  0  0  0
 16 19  1  0  0  0  0
 17 20  2  0  0  0  0
 17 21  1  0  0  0  0
 19 22  1  0  0  0  0
 19 23  1  0  0  0  0
 21 24  1  0  0  0  0
 24 25  2  0  0  0  0
 24 26  1  0  0  0  0
  7 10  1  0  0  0  0
 18 20  1  0  0  0  0
M  END
>  <MolRegNo>
2766178

>  <m>
=

>  <Value>
1300

>  <Unit>
nM

>  <Type>
IC50

>  <pValue>
5.89

>  <Ligand Efficiency>
0

>  <Binding Efficiency>
0

>  <Surface Efficiency>
0

>  <Assay Index>
1587013

>  <Assay Category>


>  <Assay Organism>
Homo sapiens

>  <Target ID>
17045

>  <Target Name>
Cytochrome P450 3A4

>  <Target Organism>
Homo sapiens

>  <Target Description>
Target is a single protein chain

>  <Sequence Accession>
P08684

>  <Reference>
J Med Chem 65 (6.0), 4534-4564 (2022)

>  <Pubmed ID>
35261239

>  <DOI>
10.1021/acs.jmedchem.1c02132

$$$$
2762673
Actelion Java MolfileCreator 1.0

 26 27  0  0  0  0  0  0  0  0999 V2000
    0.0000   -0.0000   -0.0000 Cl  0  0  0  0  0  0  0  0  0  0  0  0
   -0.0118    1.5033   -0.0000 C   0  0  0  0  0  0  0  0  0  0  0  0
    1.2665    2.2608   -0.0000 C   0  0  0  0  0  0  0  0  0  0  0  0
   -1.3257    2.2608   -0.0000 C   0  0  0  0  0  0  0  0  0  0  0  0
    2.5568    1.5270   -0.0000 O   0  0  0  0  0  0  0  0  0  0  0  0
    1.2547    3.7641   -0.0000 C   0  0  0  0  0  0  0  0  0  0  0  0
   -1.3376    3.7760   -0.0000 C   0  0  0  0  0  0  0  0  0  0  0  0
    3.8470    2.2845   -0.0000 C   0  0  0  0  0  0  0  0  0  0  0  0
    2.5449    4.5217   -0.0000 F   0  0  0  0  0  0  0  0  0  0  0  0
   -0.0473    4.5217   -0.0000 C   0  0  0  0  0  0  0  0  0  0  0  0
   -2.6515    4.5335   -0.0000 C   0  0  0  0  0  0  0  0  0  0  0  0
    5.1372    1.5506   -0.0000 C   0  0  0  0  0  0  0  0  0  0  0  0
   -3.9535    3.7996   -0.0000 C   0  0  0  0  0  0  0  0  0  0  0  0
   -2.6633    6.0368   -0.0000 C   0  0  0  0  0  0  0  0  0  0  0  0
    5.1254    0.0710   -0.0000 N   0  0  0  0  0  0  0  0  0  0  0  0
    6.4274    2.3082   -0.0000 C   0  0  0  0  0  0  0  0  0  0  0  0
   -5.2674    4.5572   -0.0000 C   0  0  0  0  0  0  0  0  0  0  0  0
   -3.9653    6.7944   -0.0000 C   0  0  0  0  0  0  0  0  0  0  0  0
    7.7176    1.5743   -0.0000 C   0  0  0  0  0  0  0  0  0  0  0  0
   -5.2792    6.0723   -0.0000 N   0  0  0  0  0  0  0  0  0  0  0  0
   -6.5813    3.8233   -0.0000 N   0  0  0  0  0  0  0  0  0  0  0  0
    9.0078    2.3319   -0.0000 C   0  0  0  0  0  0  0  0  0  0  0  0
    7.7058    0.0947   -0.0000 C   0  0  0  0  0  0  0  0  0  0  0  0
   -7.8952    4.5809   -0.0000 C   0  0  0  0  0  0  0  0  0  0  0  0
   -7.9070    6.0841   -0.0000 O   0  0  0  0  0  0  0  0  0  0  0  0
   -9.2091    3.8470   -0.0000 C   0  0  0  0  0  0  0  0  0  0  0  0
  1  2  1  0  0  0  0
  2  3  2  0  0  0  0
  2  4  1  0  0  0  0
  3  5  1  0  0  0  0
  3  6  1  0  0  0  0
  4  7  2  0  0  0  0
  5  8  1  0  0  0  0
  6  9  1  0  0  0  0
  6 10  2  0  0  0  0
  7 11  1  0  0  0  0
  8 12  1  0  0  0  0
 11 13  2  0  0  0  0
 11 14  1  0  0  0  0
 12 15  1  6  0  0  0
 12 16  1  0  0  0  0
 13 17  1  0  0  0  0
 14 18  2  0  0  0  0
 16 19  1  0  0  0  0
 17 20  2  0  0  0  0
 17 21  1  0  0  0  0
 19 22  1  0  0  0  0
 19 23  1  0  0  0  0
 21 24  1  0  0  0  0
 24 25  2  0  0  0  0
 24 26  1  0  0  0  0
  7 10  1  0  0  0  0
 18 20  1  0  0  0  0
M  END
>  <MolRegNo>
2762673

>  <m>
=

>  <Value>
800

>  <Unit>
nM

>  <Type>
IC50

>  <pValue>
6.1

>  <Ligand Efficiency>
0

>  <Binding Efficiency>
0

>  <Surface Efficiency>
0

>  <Assay Index>
1587013

>  <Assay Category>


>  <Assay Organism>
Homo sapiens

>  <Target ID>
17045

>  <Target Name>
Cytochrome P450 3A4

>  <Target Organism>
Homo sapiens

>  <Target Description>
Target is a single protein chain

>  <Sequence Accession>
P08684

>  <Reference>
J Med Chem 65 (6.0), 4534-4564 (2022)

>  <Pubmed ID>
35261239

>  <DOI>
10.1021/acs.jmedchem.1c02132

$$$$
2743887
Actelion Java MolfileCreator 1.0

 29 30  0  0  0  0  0  0  0  0999 V2000
    0.0000   -0.0000   -0.0000 F   0  0  0  0  0  0  0  0  0  0  0  0
   -1.3136   -0.7337   -0.0000 C   0  0  0  0  0  0  0  0  0  0  0  0
   -1.3254   -2.2248   -0.0000 C   0  0  0  0  0  0  0  0  0  0  0  0
   -2.6153    0.0237   -0.0000 C   0  0  0  0  0  0  0  0  0  0  0  0
   -0.0355   -2.9585   -0.0000 O   0  0  0  0  0  0  0  0  0  0  0  0
   -2.6271   -2.9585   -0.0000 C   0  0  0  0  0  0  0  0  0  0  0  0
   -3.9288   -0.7100   -0.0000 C   0  0  0  0  0  0  0  0  0  0  0  0
    1.2544   -2.2011   -0.0000 C   0  0  0  0  0  0  0  0  0  0  0  0
   -3.9407   -2.2011   -0.0000 C   0  0  0  0  0  0  0  0  0  0  0  0
   -2.6389   -4.4377   -0.0000 C   0  0  0  0  0  0  0  0  0  0  0  0
   -5.2424    0.0473   -0.0000 C   0  0  0  0  0  0  0  0  0  0  0  0
    2.5443   -2.9348   -0.0000 C   0  0  0  0  0  0  0  0  0  0  0  0
   -1.3491   -5.1714   -0.0000 F   0  0  0  0  0  0  0  0  0  0  0  0
   -4.1537   -4.4258   -0.0000 F   0  0  0  0  0  0  0  0  0  0  0  0
   -3.3963   -5.7157   -0.0000 F   0  0  0  0  0  0  0  0  0  0  0  0
   -6.5441   -0.6864   -0.0000 C   0  0  0  0  0  0  0  0  0  0  0  0
   -5.2542    1.5621   -0.0000 C   0  0  0  0  0  0  0  0  0  0  0  0
    2.5324   -4.4258   -0.0000 N   0  0  0  0  0  0  0  0  0  0  0  0
    3.8342   -2.1774   -0.0000 C   0  0  0  0  0  0  0  0  0  0  0  0
   -7.8577    0.0710   -0.0000 C   0  0  0  0  0  0  0  0  0  0  0  0
   -6.5559    2.3194   -0.0000 C   0  0  0  0  0  0  0  0  0  0  0  0
    5.1240   -2.9111   -0.0000 C   0  0  0  0  0  0  0  0  0  0  0  0
   -7.8695    1.5857   -0.0000 N   0  0  0  0  0  0  0  0  0  0  0  0
   -9.1712   -0.6627   -0.0000 N   0  0  0  0  0  0  0  0  0  0  0  0
    6.4139   -2.1538   -0.0000 C   0  0  0  0  0  0  0  0  0  0  0  0
    5.1122   -4.4022   -0.0000 C   0  0  0  0  0  0  0  0  0  0  0  0
  -10.4848    0.0947   -0.0000 C   0  0  0  0  0  0  0  0  0  0  0  0
  -10.4966    1.6094   -0.0000 O   0  0  0  0  0  0  0  0  0  0  0  0
  -11.7983   -0.6390   -0.0000 C   0  0  0  0  0  0  0  0  0  0  0  0
  1  2  1  0  0  0  0
  2  3  2  0  0  0  0
  2  4  1  0  0  0  0
  3  5  1  0  0  0  0
  3  6  1  0  0  0  0
  4  7  2  0  0  0  0
  5  8  1  0  0  0  0
  6  9  2  0  0  0  0
  6 10  1  0  0  0  0
  7 11  1  0  0  0  0
  8 12  1  0  0  0  0
 10 13  1  0  0  0  0
 10 14  1  0  0  0  0
 10 15  1  0  0  0  0
 11 16  2  0  0  0  0
 11 17  1  0  0  0  0
 12 18  1  6  0  0  0
 12 19  1  0  0  0  0
 16 20  1  0  0  0  0
 17 21  2  0  0  0  0
 19 22  1  0  0  0  0
 20 23  2  0  0  0  0
 20 24  1  0  0  0  0
 22 25  1  0  0  0  0
 22 26  1  0  0  0  0
 24 27  1  0  0  0  0
 27 28  2  0  0  0  0
 27 29  1  0  0  0  0
  7  9  1  0  0  0  0
 21 23  1  0  0  0  0
M  END
>  <MolRegNo>
2743887

>  <m>
=

>  <Value>
470

>  <Unit>
nM

>  <Type>
IC50

>  <pValue>
6.33

>  <Ligand Efficiency>
0

>  <Binding Efficiency>
0

>  <Surface Efficiency>
0

>  <Assay Index>
1587013

>  <Assay Category>


>  <Assay Organism>
Homo sapiens

>  <Target ID>
17045

>  <Target Name>
Cytochrome P450 3A4

>  <Target Organism>
Homo sapiens

>  <Target Description>
Target is a single protein chain

>  <Sequence Accession>
P08684

>  <Reference>
J Med Chem 65 (6.0), 4534-4564 (2022)

>  <Pubmed ID>
35261239

>  <DOI>
10.1021/acs.jmedchem.1c02132

$$$$
2760681
Actelion Java MolfileCreator 1.0

 26 27  0  0  0  0  0  0  0  0999 V2000
    0.0000   -0.0000   -0.0000 F   0  0  0  0  0  0  0  0  0  0  0  0
   -1.3139   -0.7339   -0.0000 C   0  0  0  0  0  0  0  0  0  0  0  0
   -1.3258   -2.2254   -0.0000 C   0  0  0  0  0  0  0  0  0  0  0  0
   -2.6161    0.0237   -0.0000 C   0  0  0  0  0  0  0  0  0  0  0  0
   -0.0355   -2.9593   -0.0000 O   0  0  0  0  0  0  0  0  0  0  0  0
   -2.6279   -2.9593   -0.0000 C   0  0  0  0  0  0  0  0  0  0  0  0
   -3.9300   -0.7102   -0.0000 C   0  0  0  0  0  0  0  0  0  0  0  0
    1.2548   -2.2017   -0.0000 C   0  0  0  0  0  0  0  0  0  0  0  0
   -3.9418   -2.2017   -0.0000 C   0  0  0  0  0  0  0  0  0  0  0  0
   -5.2439    0.0473   -0.0000 C   0  0  0  0  0  0  0  0  0  0  0  0
    2.5450   -2.9357   -0.0000 C   0  0  0  0  0  0  0  0  0  0  0  0
   -5.2558   -2.9357   -0.0000 F   0  0  0  0  0  0  0  0  0  0  0  0
   -6.5461   -0.6866   -0.0000 C   0  0  0  0  0  0  0  0  0  0  0  0
   -5.2558    1.5507   -0.0000 C   0  0  0  0  0  0  0  0  0  0  0  0
    2.5332   -4.4153   -0.0000 N   0  0  0  0  0  0  0  0  0  0  0  0
    3.8353   -2.1781   -0.0000 C   0  0  0  0  0  0  0  0  0  0  0  0
   -7.8600    0.0710   -0.0000 C   0  0  0  0  0  0  0  0  0  0  0  0
   -6.5579    2.3083   -0.0000 C   0  0  0  0  0  0  0  0  0  0  0  0
    5.1256   -2.9120   -0.0000 C   0  0  0  0  0  0  0  0  0  0  0  0
   -7.8718    1.5862   -0.0000 N   0  0  0  0  0  0  0  0  0  0  0  0
   -9.1739   -0.6629   -0.0000 N   0  0  0  0  0  0  0  0  0  0  0  0
    6.4158   -2.1544   -0.0000 C   0  0  0  0  0  0  0  0  0  0  0  0
    5.1137   -4.3917   -0.0000 C   0  0  0  0  0  0  0  0  0  0  0  0
  -10.4879    0.0947   -0.0000 C   0  0  0  0  0  0  0  0  0  0  0  0
  -10.4997    1.5980   -0.0000 O   0  0  0  0  0  0  0  0  0  0  0  0
  -11.8018   -0.6392   -0.0000 C   0  0  0  0  0  0  0  0  0  0  0  0
  1  2  1  0  0  0  0
  2  3  2  0  0  0  0
  2  4  1  0  0  0  0
  3  5  1  0  0  0  0
  3  6  1  0  0  0  0
  4  7  2  0  0  0  0
  5  8  1  0  0  0  0
  6  9  2  0  0  0  0
  7 10  1  0  0  0  0
  8 11  1  0  0  0  0
  9 12  1  0  0  0  0
 10 13  2  0  0  0  0
 10 14  1  0  0  0  0
 11 15  1  6  0  0  0
 11 16  1  0  0  0  0
 13 17  1  0  0  0  0
 14 18  2  0  0  0  0
 16 19  1  0  0  0  0
 17 20  2  0  0  0  0
 17 21  1  0  0  0  0
 19 22  1  0  0  0  0
 19 23  1  0  0  0  0
 21 24  1  0  0  0  0
 24 25  2  0  0  0  0
 24 26  1  0  0  0  0
  7  9  1  0  0  0  0
 18 20  1  0  0  0  0
M  END
>  <MolRegNo>
2760681

>  <m>
=

>  <Value>
7000

>  <Unit>
nM

>  <Type>
IC50

>  <pValue>
5.16

>  <Ligand Efficiency>
0

>  <Binding Efficiency>
0

>  <Surface Efficiency>
0

>  <Assay Index>
1587013

>  <Assay Category>


>  <Assay Organism>
Homo sapiens

>  <Target ID>
17045

>  <Target Name>
Cytochrome P450 3A4

>  <Target Organism>
Homo sapiens

>  <Target Description>
Target is a single protein chain

>  <Sequence Accession>
P08684

>  <Reference>
J Med Chem 65 (6.0), 4534-4564 (2022)

>  <Pubmed ID>
35261239

>  <DOI>
10.1021/acs.jmedchem.1c02132

$$$$
2776550
Actelion Java MolfileCreator 1.0

 26 27  0  0  0  0  0  0  0  0999 V2000
    0.0000   -0.0000   -0.0000 F   0  0  0  0  0  0  0  0  0  0  0  0
   -1.3136   -0.7337   -0.0000 C   0  0  0  0  0  0  0  0  0  0  0  0
   -1.3254   -2.2248   -0.0000 C   0  0  0  0  0  0  0  0  0  0  0  0
   -2.6153    0.0237   -0.0000 C   0  0  0  0  0  0  0  0  0  0  0  0
   -0.0355   -2.9585   -0.0000 O   0  0  0  0  0  0  0  0  0  0  0  0
   -2.6271   -2.9585   -0.0000 C   0  0  0  0  0  0  0  0  0  0  0  0
   -3.9289   -0.7100   -0.0000 C   0  0  0  0  0  0  0  0  0  0  0  0
    1.2544   -2.2011   -0.0000 C   0  0  0  0  0  0  0  0  0  0  0  0
   -3.9407   -2.2011   -0.0000 C   0  0  0  0  0  0  0  0  0  0  0  0
   -5.2424    0.0473   -0.0000 C   0  0  0  0  0  0  0  0  0  0  0  0
    2.5443   -2.9348   -0.0000 C   0  0  0  0  0  0  0  0  0  0  0  0
   -6.5442   -0.6864   -0.0000 C   0  0  0  0  0  0  0  0  0  0  0  0
   -5.2543    1.5502   -0.0000 C   0  0  0  0  0  0  0  0  0  0  0  0
    2.5325   -4.4141   -0.0000 N   0  0  0  0  0  0  0  0  0  0  0  0
    3.8342   -2.1774   -0.0000 C   0  0  0  0  0  0  0  0  0  0  0  0
   -7.8577    0.0710   -0.0000 C   0  0  0  0  0  0  0  0  0  0  0  0
   -6.5560    2.3076   -0.0000 C   0  0  0  0  0  0  0  0  0  0  0  0
    5.1241   -2.9111   -0.0000 C   0  0  0  0  0  0  0  0  0  0  0  0
   -7.8696    1.5857   -0.0000 N   0  0  0  0  0  0  0  0  0  0  0  0
   -9.1713   -0.6627   -0.0000 N   0  0  0  0  0  0  0  0  0  0  0  0
    6.4140   -2.1538   -0.0000 C   0  0  0  0  0  0  0  0  0  0  0  0
    5.1123   -4.3904   -0.0000 C   0  0  0  0  0  0  0  0  0  0  0  0
  -10.4849    0.0947   -0.0000 C   0  0  0  0  0  0  0  0  0  0  0  0
  -10.4967    1.5976   -0.0000 O   0  0  0  0  0  0  0  0  0  0  0  0
  -11.7984   -0.6390   -0.0000 O   0  0  0  0  0  0  0  0  0  0  0  0
  -13.1120    0.1183   -0.0000 C   0  0  0  0  0  0  0  0  0  0  0  0
  1  2  1  0  0  0  0
  2  3  2  0  0  0  0
  2  4  1  0  0  0  0
  3  5  1  0  0  0  0
  3  6  1  0  0  0  0
  4  7  2  0  0  0  0
  5  8  1  0  0  0  0
  6  9  2  0  0  0  0
  7 10  1  0  0  0  0
  8 11  1  0  0  0  0
 10 12  2  0  0  0  0
 10 13  1  0  0  0  0
 11 14  1  6  0  0  0
 11 15  1  0  0  0  0
 12 16  1  0  0  0  0
 13 17  2  0  0  0  0
 15 18  1  0  0  0  0
 16 19  2  0  0  0  0
 16 20  1  0  0  0  0
 18 21  1  0  0  0  0
 18 22  1  0  0  0  0
 20 23  1  0  0  0  0
 23 24  2  0  0  0  0
 23 25  1  0  0  0  0
 25 26  1  0  0  0  0
  7  9  1  0  0  0  0
 17 19  1  0  0  0  0
M  END
>  <MolRegNo>
2776550

>  <m>
=

>  <Value>
2100

>  <Unit>
nM

>  <Type>
IC50

>  <pValue>
5.68

>  <Ligand Efficiency>
0

>  <Binding Efficiency>
0

>  <Surface Efficiency>
0

>  <Assay Index>
1587013

>  <Assay Category>


>  <Assay Organism>
Homo sapiens

>  <Target ID>
17045

>  <Target Name>
Cytochrome P450 3A4

>  <Target Organism>
Homo sapiens

>  <Target Description>
Target is a single protein chain

>  <Sequence Accession>
P08684

>  <Reference>
J Med Chem 65 (6.0), 4534-4564 (2022)

>  <Pubmed ID>
35261239

>  <DOI>
10.1021/acs.jmedchem.1c02132

$$$$
2750474
Actelion Java MolfileCreator 1.0

 30 32  0  0  0  0  0  0  0  0999 V2000
    0.0000   -0.0000   -0.0000 O   0  0  0  0  0  0  0  0  0  0  0  0
   -0.0119   -1.4884   -0.0000 C   0  0  0  0  0  0  0  0  0  0  0  0
   -1.3336   -2.2266   -0.0000 O   0  0  0  0  0  0  0  0  0  0  0  0
    1.2860   -2.2266   -0.0000 N   0  0  0  0  0  0  0  0  0  0  0  0
   -2.6553   -1.4646   -0.0000 C   0  0  0  0  0  0  0  0  0  0  0  0
    2.5838   -1.4646   -0.0000 C   0  0  0  0  0  0  0  0  0  0  0  0
    2.5719    0.0595   -0.0000 N   0  0  0  0  0  0  0  0  0  0  0  0
    3.8817   -2.2028   -0.0000 C   0  0  0  0  0  0  0  0  0  0  0  0
    3.8698    0.8216   -0.0000 C   0  0  0  0  0  0  0  0  0  0  0  0
    5.1677   -1.4408   -0.0000 C   0  0  0  0  0  0  0  0  0  0  0  0
    5.1557    0.0833   -0.0000 C   0  0  0  0  0  0  0  0  0  0  0  0
    6.4655   -2.1790   -0.0000 C   0  0  0  0  0  0  0  0  0  0  0  0
    7.7634   -1.4169   -0.0000 C   0  0  0  0  0  0  0  0  0  0  0  0
    6.4536   -3.6793   -0.0000 C   0  0  0  0  0  0  0  0  0  0  0  0
    9.0493   -2.1552   -0.0000 C   0  0  0  0  0  0  0  0  0  0  0  0
    7.7515   -4.4175   -0.0000 C   0  0  0  0  0  0  0  0  0  0  0  0
    9.0374   -3.6436   -0.0000 C   0  0  0  0  0  0  0  0  0  0  0  0
   10.3472   -1.3931   -0.0000 C   0  0  0  0  0  0  0  0  0  0  0  0
   10.3353   -4.3818   -0.0000 O   0  0  0  0  0  0  0  0  0  0  0  0
   11.7046   -1.9885   -0.0000 O   0  0  0  0  0  0  0  0  0  0  0  0
   10.4901    0.1191   -0.0000 C   0  0  0  0  0  0  0  0  0  0  0  0
   11.6332   -3.6197   -0.0000 C   0  0  0  0  0  0  0  0  0  0  0  0
   12.7048   -0.8573   -0.0000 N   0  0  0  0  0  0  0  0  0  0  0  0
   11.9547    0.4406   -0.0000 C   0  0  0  0  0  0  0  0  0  0  0  0
   12.9310   -4.3580   -0.0000 C   0  0  0  0  0  0  0  0  0  0  0  0
   12.9191   -5.8464   -0.0000 N   0  0  0  0  0  0  0  0  0  0  0  0
   14.2289   -3.5959   -0.0000 C   0  0  0  0  0  0  0  0  0  0  0  0
   15.5268   -4.3342   -0.0000 C   0  0  0  0  0  0  0  0  0  0  0  0
   16.8246   -3.5721   -0.0000 C   0  0  0  0  0  0  0  0  0  0  0  0
   15.5149   -5.8225   -0.0000 C   0  0  0  0  0  0  0  0  0  0  0  0
  1  2  2  0  0  0  0
  2  3  1  0  0  0  0
  2  4  1  0  0  0  0
  3  5  1  0  0  0  0
  4  6  1  0  0  0  0
  6  7  2  0  0  0  0
  6  8  1  0  0  0  0
  7  9  1  0  0  0  0
  8 10  2  0  0  0  0
  9 11  2  0  0  0  0
 10 12  1  0  0  0  0
 12 13  2  0  0  0  0
 12 14  1  0  0  0  0
 13 15  1  0  0  0  0
 14 16  2  0  0  0  0
 15 17  2  0  0  0  0
 15 18  1  0  0  0  0
 17 19  1  0  0  0  0
 18 20  1  0  0  0  0
 18 21  2  0  0  0  0
 19 22  1  0  0  0  0
 20 23  1  0  0  0  0
 21 24  1  0  0  0  0
 22 25  1  0  0  0  0
 25 26  1  6  0  0  0
 25 27  1  0  0  0  0
 27 28  1  0  0  0  0
 28 29  1  0  0  0  0
 28 30  1  0  0  0  0
 10 11  1  0  0  0  0
 16 17  1  0  0  0  0
 23 24  2  0  0  0  0
M  END
>  <MolRegNo>
2750474

>  <m>
=

>  <Value>
180

>  <Unit>
nM

>  <Type>
IC50

>  <pValue>
6.75

>  <Ligand Efficiency>
0

>  <Binding Efficiency>
0

>  <Surface Efficiency>
0

>  <Assay Index>
1587013

>  <Assay Category>


>  <Assay Organism>
Homo sapiens

>  <Target ID>
17045

>  <Target Name>
Cytochrome P450 3A4

>  <Target Organism>
Homo sapiens

>  <Target Description>
Target is a single protein chain

>  <Sequence Accession>
P08684

>  <Reference>
J Med Chem 65 (6.0), 4534-4564 (2022)

>  <Pubmed ID>
35261239

>  <DOI>
10.1021/acs.jmedchem.1c02132

$$$$
2754247
Actelion Java MolfileCreator 1.0

 29 30  0  0  0  0  0  0  0  0999 V2000
    0.0000   -0.0000   -0.0000 F   0  0  0  0  0  0  0  0  0  0  0  0
   -1.3129    0.7570   -0.0000 C   0  0  0  0  0  0  0  0  0  0  0  0
   -0.5796    2.0700   -0.0000 F   0  0  0  0  0  0  0  0  0  0  0  0
   -2.0700    2.0700   -0.0000 F   0  0  0  0  0  0  0  0  0  0  0  0
   -2.6259    0.0237   -0.0000 C   0  0  0  0  0  0  0  0  0  0  0  0
   -2.6377   -1.4667   -0.0000 C   0  0  0  0  0  0  0  0  0  0  0  0
   -3.9270    0.7807   -0.0000 C   0  0  0  0  0  0  0  0  0  0  0  0
   -1.3484   -2.2001   -0.0000 O   0  0  0  0  0  0  0  0  0  0  0  0
   -3.9388   -2.2001   -0.0000 C   0  0  0  0  0  0  0  0  0  0  0  0
   -5.2399    0.0473   -0.0000 C   0  0  0  0  0  0  0  0  0  0  0  0
   -0.0591   -1.4431   -0.0000 C   0  0  0  0  0  0  0  0  0  0  0  0
   -5.2518   -1.4431   -0.0000 C   0  0  0  0  0  0  0  0  0  0  0  0
   -6.5529    0.8043   -0.0000 C   0  0  0  0  0  0  0  0  0  0  0  0
    1.2301   -2.1764   -0.0000 C   0  0  0  0  0  0  0  0  0  0  0  0
   -7.8540    0.0710   -0.0000 C   0  0  0  0  0  0  0  0  0  0  0  0
   -6.5647    2.3065   -0.0000 C   0  0  0  0  0  0  0  0  0  0  0  0
    0.4731   -3.4657   -0.0000 N   0  0  0  0  0  0  0  0  0  0  0  0
    2.5194   -1.4194   -0.0000 C   0  0  0  0  0  0  0  0  0  0  0  0
    1.9635   -3.4657   -0.0000 C   0  0  0  0  0  0  0  0  0  0  0  0
   -9.1670    0.8280   -0.0000 C   0  0  0  0  0  0  0  0  0  0  0  0
   -7.8658    3.0635   -0.0000 C   0  0  0  0  0  0  0  0  0  0  0  0
    3.8087   -2.1528   -0.0000 C   0  0  0  0  0  0  0  0  0  0  0  0
   -9.1788    2.3420   -0.0000 N   0  0  0  0  0  0  0  0  0  0  0  0
  -10.4799    0.0946   -0.0000 N   0  0  0  0  0  0  0  0  0  0  0  0
    5.0980   -1.3957   -0.0000 C   0  0  0  0  0  0  0  0  0  0  0  0
    3.7969   -3.6313   -0.0000 C   0  0  0  0  0  0  0  0  0  0  0  0
  -11.7928    0.8516   -0.0000 C   0  0  0  0  0  0  0  0  0  0  0  0
  -11.8047    2.3538   -0.0000 O   0  0  0  0  0  0  0  0  0  0  0  0
  -13.1058    0.1183   -0.0000 C   0  0  0  0  0  0  0  0  0  0  0  0
  1  2  1  0  0  0  0
  2  3  1  0  0  0  0
  2  4  1  0  0  0  0
  2  5  1  0  0  0  0
  5  6  2  0  0  0  0
  5  7  1  0  0  0  0
  6  8  1  0  0  0  0
  6  9  1  0  0  0  0
  7 10  2  0  0  0  0
  8 11  1  0  0  0  0
  9 12  2  0  0  0  0
 10 13  1  0  0  0  0
 11 14  1  0  0  0  0
 13 15  2  0  0  0  0
 13 16  1  0  0  0  0
 14 17  1  6  0  0  0
 14 18  1  0  0  0  0
 14 19  1  0  0  0  0
 15 20  1  0  0  0  0
 16 21  2  0  0  0  0
 18 22  1  0  0  0  0
 20 23  2  0  0  0  0
 20 24  1  0  0  0  0
 22 25  1  0  0  0  0
 22 26  1  0  0  0  0
 24 27  1  0  0  0  0
 27 28  2  0  0  0  0
 27 29  1  0  0  0  0
 10 12  1  0  0  0  0
 21 23  1  0  0  0  0
M  END
>  <MolRegNo>
2754247

>  <m>
=

>  <Value>
14000

>  <Unit>
nM

>  <Type>
IC50

>  <pValue>
4.85

>  <Ligand Efficiency>
0

>  <Binding Efficiency>
0

>  <Surface Efficiency>
0

>  <Assay Index>
1587013

>  <Assay Category>


>  <Assay Organism>
Homo sapiens

>  <Target ID>
17045

>  <Target Name>
Cytochrome P450 3A4

>  <Target Organism>
Homo sapiens

>  <Target Description>
Target is a single protein chain

>  <Sequence Accession>
P08684

>  <Reference>
J Med Chem 65 (6.0), 4534-4564 (2022)

>  <Pubmed ID>
35261239

>  <DOI>
10.1021/acs.jmedchem.1c02132

$$$$
2748805
Actelion Java MolfileCreator 1.0

 30 31  0  0  0  0  0  0  0  0999 V2000
    0.0000   -0.0000   -0.0000 F   0  0  0  0  0  0  0  0  0  0  0  0
   -1.3139   -0.7339   -0.0000 C   0  0  0  0  0  0  0  0  0  0  0  0
   -1.7163    0.7221   -0.0000 F   0  0  0  0  0  0  0  0  0  0  0  0
   -2.7698   -0.3314   -0.0000 F   0  0  0  0  0  0  0  0  0  0  0  0
   -1.3257   -2.2135   -0.0000 O   0  0  0  0  0  0  0  0  0  0  0  0
   -2.6396   -2.9474   -0.0000 C   0  0  0  0  0  0  0  0  0  0  0  0
   -2.6515   -4.4388   -0.0000 C   0  0  0  0  0  0  0  0  0  0  0  0
   -3.9417   -2.1898   -0.0000 C   0  0  0  0  0  0  0  0  0  0  0  0
   -1.3612   -5.1727   -0.0000 O   0  0  0  0  0  0  0  0  0  0  0  0
   -3.9535   -5.1727   -0.0000 C   0  0  0  0  0  0  0  0  0  0  0  0
   -5.2556   -2.9237   -0.0000 C   0  0  0  0  0  0  0  0  0  0  0  0
   -0.0710   -4.4152   -0.0000 C   0  0  0  0  0  0  0  0  0  0  0  0
   -5.2674   -4.4152   -0.0000 C   0  0  0  0  0  0  0  0  0  0  0  0
   -6.5695   -2.1662   -0.0000 C   0  0  0  0  0  0  0  0  0  0  0  0
    1.2192   -5.1490   -0.0000 C   0  0  0  0  0  0  0  0  0  0  0  0
   -7.8715   -2.9000   -0.0000 C   0  0  0  0  0  0  0  0  0  0  0  0
   -6.5813   -0.6629   -0.0000 C   0  0  0  0  0  0  0  0  0  0  0  0
    0.4616   -6.4393   -0.0000 N   0  0  0  0  0  0  0  0  0  0  0  0
    2.5094   -4.3915   -0.0000 C   0  0  0  0  0  0  0  0  0  0  0  0
    1.9531   -6.4393   -0.0000 C   0  0  0  0  0  0  0  0  0  0  0  0
   -9.1854   -2.1425   -0.0000 C   0  0  0  0  0  0  0  0  0  0  0  0
   -7.8834    0.0947   -0.0000 C   0  0  0  0  0  0  0  0  0  0  0  0
    3.7996   -5.1254   -0.0000 C   0  0  0  0  0  0  0  0  0  0  0  0
   -9.1973   -0.6274   -0.0000 N   0  0  0  0  0  0  0  0  0  0  0  0
  -10.4993   -2.8764   -0.0000 N   0  0  0  0  0  0  0  0  0  0  0  0
    5.0899   -4.3678   -0.0000 C   0  0  0  0  0  0  0  0  0  0  0  0
    3.7878   -6.6050   -0.0000 C   0  0  0  0  0  0  0  0  0  0  0  0
  -11.8132   -2.1188   -0.0000 C   0  0  0  0  0  0  0  0  0  0  0  0
  -11.8250   -0.6155   -0.0000 O   0  0  0  0  0  0  0  0  0  0  0  0
  -13.1271   -2.8527   -0.0000 C   0  0  0  0  0  0  0  0  0  0  0  0
  1  2  1  0  0  0  0
  2  3  1  0  0  0  0
  2  4  1  0  0  0  0
  2  5  1  0  0  0  0
  5  6  1  0  0  0  0
  6  7  2  0  0  0  0
  6  8  1  0  0  0  0
  7  9  1  0  0  0  0
  7 10  1  0  0  0  0
  8 11  2  0  0  0  0
  9 12  1  0  0  0  0
 10 13  2  0  0  0  0
 11 14  1  0  0  0  0
 12 15  1  0  0  0  0
 14 16  2  0  0  0  0
 14 17  1  0  0  0  0
 15 18  1  6  0  0  0
 15 19  1  0  0  0  0
 15 20  1  0  0  0  0
 16 21  1  0  0  0  0
 17 22  2  0  0  0  0
 19 23  1  0  0  0  0
 21 24  2  0  0  0  0
 21 25  1  0  0  0  0
 23 26  1  0  0  0  0
 23 27  1  0  0  0  0
 25 28  1  0  0  0  0
 28 29  2  0  0  0  0
 28 30  1  0  0  0  0
 11 13  1  0  0  0  0
 22 24  1  0  0  0  0
M  END
>  <MolRegNo>
2748805

>  <m>
=

>  <Value>
9500

>  <Unit>
nM

>  <Type>
IC50

>  <pValue>
5.02

>  <Ligand Efficiency>
0

>  <Binding Efficiency>
0

>  <Surface Efficiency>
0

>  <Assay Index>
1587013

>  <Assay Category>


>  <Assay Organism>
Homo sapiens

>  <Target ID>
17045

>  <Target Name>
Cytochrome P450 3A4

>  <Target Organism>
Homo sapiens

>  <Target Description>
Target is a single protein chain

>  <Sequence Accession>
P08684

>  <Reference>
J Med Chem 65 (6.0), 4534-4564 (2022)

>  <Pubmed ID>
35261239

>  <DOI>
10.1021/acs.jmedchem.1c02132

$$$$
2749492
Actelion Java MolfileCreator 1.0

 30 31  0  0  0  0  0  0  0  0999 V2000
    0.0000   -0.0000   -0.0000 F   0  0  0  0  0  0  0  0  0  0  0  0
   -0.0118   -1.4807   -0.0000 C   0  0  0  0  0  0  0  0  0  0  0  0
    0.7226   -2.7718   -0.0000 F   0  0  0  0  0  0  0  0  0  0  0  0
    1.4807   -1.4688   -0.0000 F   0  0  0  0  0  0  0  0  0  0  0  0
   -1.3267   -2.2151   -0.0000 C   0  0  0  0  0  0  0  0  0  0  0  0
   -1.3385   -3.7076   -0.0000 C   0  0  0  0  0  0  0  0  0  0  0  0
   -2.6297   -1.4570   -0.0000 C   0  0  0  0  0  0  0  0  0  0  0  0
   -0.0474   -4.4420   -0.0000 O   0  0  0  0  0  0  0  0  0  0  0  0
   -2.6415   -4.4420   -0.0000 C   0  0  0  0  0  0  0  0  0  0  0  0
   -3.9445   -2.1914   -0.0000 C   0  0  0  0  0  0  0  0  0  0  0  0
    1.2438   -3.6839   -0.0000 C   0  0  0  0  0  0  0  0  0  0  0  0
   -3.9564   -3.6839   -0.0000 C   0  0  0  0  0  0  0  0  0  0  0  0
   -5.2594   -1.4333   -0.0000 C   0  0  0  0  0  0  0  0  0  0  0  0
    2.5349   -4.4183   -0.0000 C   0  0  0  0  0  0  0  0  0  0  0  0
   -6.5624   -2.1677   -0.0000 C   0  0  0  0  0  0  0  0  0  0  0  0
   -5.2712    0.0711   -0.0000 C   0  0  0  0  0  0  0  0  0  0  0  0
    1.7768   -5.7095   -0.0000 N   0  0  0  0  0  0  0  0  0  0  0  0
    3.8261   -3.6602   -0.0000 C   0  0  0  0  0  0  0  0  0  0  0  0
    3.2693   -5.7095   -0.0000 C   0  0  0  0  0  0  0  0  0  0  0  0
   -7.8772   -1.4096   -0.0000 C   0  0  0  0  0  0  0  0  0  0  0  0
   -6.5742    0.8292   -0.0000 C   0  0  0  0  0  0  0  0  0  0  0  0
    5.1172   -4.3947   -0.0000 C   0  0  0  0  0  0  0  0  0  0  0  0
   -7.8891    0.1066   -0.0000 N   0  0  0  0  0  0  0  0  0  0  0  0
   -9.1921   -2.1440   -0.0000 N   0  0  0  0  0  0  0  0  0  0  0  0
    6.4084   -3.6365   -0.0000 C   0  0  0  0  0  0  0  0  0  0  0  0
    5.1054   -5.8753   -0.0000 C   0  0  0  0  0  0  0  0  0  0  0  0
  -10.5069   -1.3859   -0.0000 C   0  0  0  0  0  0  0  0  0  0  0  0
  -10.5187    0.1185   -0.0000 O   0  0  0  0  0  0  0  0  0  0  0  0
  -11.8217   -2.1203   -0.0000 O   0  0  0  0  0  0  0  0  0  0  0  0
  -13.1366   -1.3622   -0.0000 C   0  0  0  0  0  0  0  0  0  0  0  0
  1  2  1  0  0  0  0
  2  3  1  0  0  0  0
  2  4  1  0  0  0  0
  2  5  1  0  0  0  0
  5  6  2  0  0  0  0
  5  7  1  0  0  0  0
  6  8  1  0  0  0  0
  6  9  1  0  0  0  0
  7 10  2  0  0  0  0
  8 11  1  0  0  0  0
  9 12  2  0  0  0  0
 10 13  1  0  0  0  0
 11 14  1  0  0  0  0
 13 15  2  0  0  0  0
 13 16  1  0  0  0  0
 14 17  1  6  0  0  0
 14 18  1  0  0  0  0
 14 19  1  0  0  0  0
 15 20  1  0  0  0  0
 16 21  2  0  0  0  0
 18 22  1  0  0  0  0
 20 23  2  0  0  0  0
 20 24  1  0  0  0  0
 22 25  1  0  0  0  0
 22 26  1  0  0  0  0
 24 27  1  0  0  0  0
 27 28  2  0  0  0  0
 27 29  1  0  0  0  0
 29 30  1  0  0  0  0
 10 12  1  0  0  0  0
 21 23  1  0  0  0  0
M  END
>  <MolRegNo>
2749492

>  <m>
=

>  <Value>
6900

>  <Unit>
nM

>  <Type>
IC50

>  <pValue>
5.16

>  <Ligand Efficiency>
0

>  <Binding Efficiency>
0

>  <Surface Efficiency>
0

>  <Assay Index>
1587013

>  <Assay Category>


>  <Assay Organism>
Homo sapiens

>  <Target ID>
17045

>  <Target Name>
Cytochrome P450 3A4

>  <Target Organism>
Homo sapiens

>  <Target Description>
Target is a single protein chain

>  <Sequence Accession>
P08684

>  <Reference>
J Med Chem 65 (6.0), 4534-4564 (2022)

>  <Pubmed ID>
35261239

>  <DOI>
10.1021/acs.jmedchem.1c02132

$$$$
2746198
Actelion Java MolfileCreator 1.0

 28 29  0  0  0  0  0  0  0  0999 V2000
    0.0000   -0.0000   -0.0000 O   0  0  0  0  0  0  0  0  0  0  0  0
   -0.0119   -1.4882   -0.0000 C   0  0  0  0  0  0  0  0  0  0  0  0
   -1.3334   -2.2263   -0.0000 O   0  0  0  0  0  0  0  0  0  0  0  0
    1.2858   -2.2263   -0.0000 N   0  0  0  0  0  0  0  0  0  0  0  0
   -2.6549   -1.4644   -0.0000 C   0  0  0  0  0  0  0  0  0  0  0  0
    2.5835   -1.4644   -0.0000 C   0  0  0  0  0  0  0  0  0  0  0  0
    2.5716    0.0595   -0.0000 N   0  0  0  0  0  0  0  0  0  0  0  0
    3.8812   -2.2025   -0.0000 C   0  0  0  0  0  0  0  0  0  0  0  0
    3.8693    0.8215   -0.0000 C   0  0  0  0  0  0  0  0  0  0  0  0
    5.1670   -1.4406   -0.0000 C   0  0  0  0  0  0  0  0  0  0  0  0
    5.1551    0.0833   -0.0000 C   0  0  0  0  0  0  0  0  0  0  0  0
    6.4647   -2.1787   -0.0000 C   0  0  0  0  0  0  0  0  0  0  0  0
    7.7625   -1.4168   -0.0000 C   0  0  0  0  0  0  0  0  0  0  0  0
    6.4528   -3.6788   -0.0000 C   0  0  0  0  0  0  0  0  0  0  0  0
    9.0483   -2.1549   -0.0000 C   0  0  0  0  0  0  0  0  0  0  0  0
    7.7505   -4.4170   -0.0000 C   0  0  0  0  0  0  0  0  0  0  0  0
   10.3460   -1.3930   -0.0000 C   0  0  0  0  0  0  0  0  0  0  0  0
    9.0363   -3.6431   -0.0000 C   0  0  0  0  0  0  0  0  0  0  0  0
   11.6437   -0.6310   -0.0000 N   0  0  0  0  0  0  0  0  0  0  0  0
   10.3341   -4.3813   -0.0000 O   0  0  0  0  0  0  0  0  0  0  0  0
   11.6318   -3.6193   -0.0000 C   0  0  0  0  0  0  0  0  0  0  0  0
   12.9295   -4.3574   -0.0000 C   0  0  0  0  0  0  0  0  0  0  0  0
   12.1675   -5.6552   -0.0000 N   0  0  0  0  0  0  0  0  0  0  0  0
   14.2272   -3.5955   -0.0000 C   0  0  0  0  0  0  0  0  0  0  0  0
   13.6676   -5.6552   -0.0000 C   0  0  0  0  0  0  0  0  0  0  0  0
   15.5249   -4.3336   -0.0000 C   0  0  0  0  0  0  0  0  0  0  0  0
   16.8226   -3.5717   -0.0000 C   0  0  0  0  0  0  0  0  0  0  0  0
   15.5130   -5.8218   -0.0000 C   0  0  0  0  0  0  0  0  0  0  0  0
  1  2  2  0  0  0  0
  2  3  1  0  0  0  0
  2  4  1  0  0  0  0
  3  5  1  0  0  0  0
  4  6  1  0  0  0  0
  6  7  2  0  0  0  0
  6  8  1  0  0  0  0
  7  9  1  0  0  0  0
  8 10  2  0  0  0  0
  9 11  2  0  0  0  0
 10 12  1  0  0  0  0
 12 13  2  0  0  0  0
 12 14  1  0  0  0  0
 13 15  1  0  0  0  0
 14 16  2  0  0  0  0
 15 17  1  0  0  0  0
 15 18  2  0  0  0  0
 17 19  3  0  0  0  0
 18 20  1  0  0  0  0
 20 21  1  0  0  0  0
 21 22  1  0  0  0  0
 22 23  1  6  0  0  0
 22 24  1  0  0  0  0
 22 25  1  0  0  0  0
 24 26  1  0  0  0  0
 26 27  1  0  0  0  0
 26 28  1  0  0  0  0
 10 11  1  0  0  0  0
 16 18  1  0  0  0  0
M  END
>  <MolRegNo>
2746198

>  <m>
=

>  <Value>
13000

>  <Unit>
nM

>  <Type>
IC50

>  <pValue>
4.89

>  <Ligand Efficiency>
0

>  <Binding Efficiency>
0

>  <Surface Efficiency>
0

>  <Assay Index>
1587013

>  <Assay Category>


>  <Assay Organism>
Homo sapiens

>  <Target ID>
17045

>  <Target Name>
Cytochrome P450 3A4

>  <Target Organism>
Homo sapiens

>  <Target Description>
Target is a single protein chain

>  <Sequence Accession>
P08684

>  <Reference>
J Med Chem 65 (6.0), 4534-4564 (2022)

>  <Pubmed ID>
35261239

>  <DOI>
10.1021/acs.jmedchem.1c02132

$$$$
2774127
Actelion Java MolfileCreator 1.0

 31 32  0  0  0  0  0  0  0  0999 V2000
    0.0000   -0.0000   -0.0000 F   0  0  0  0  0  0  0  0  0  0  0  0
   -1.3135   -0.7336   -0.0000 C   0  0  0  0  0  0  0  0  0  0  0  0
   -2.0708    0.5798   -0.0000 F   0  0  0  0  0  0  0  0  0  0  0  0
   -2.8163   -0.7218   -0.0000 F   0  0  0  0  0  0  0  0  0  0  0  0
   -1.3253   -2.2128   -0.0000 O   0  0  0  0  0  0  0  0  0  0  0  0
   -2.6388   -2.9464   -0.0000 C   0  0  0  0  0  0  0  0  0  0  0  0
   -2.6506   -4.4374   -0.0000 C   0  0  0  0  0  0  0  0  0  0  0  0
   -3.9404   -2.1891   -0.0000 C   0  0  0  0  0  0  0  0  0  0  0  0
   -1.3608   -5.1710   -0.0000 O   0  0  0  0  0  0  0  0  0  0  0  0
   -3.9522   -5.1710   -0.0000 C   0  0  0  0  0  0  0  0  0  0  0  0
   -5.2539   -2.9228   -0.0000 C   0  0  0  0  0  0  0  0  0  0  0  0
   -0.0710   -4.4137   -0.0000 C   0  0  0  0  0  0  0  0  0  0  0  0
   -5.2657   -4.4137   -0.0000 C   0  0  0  0  0  0  0  0  0  0  0  0
   -6.5673   -2.1654   -0.0000 C   0  0  0  0  0  0  0  0  0  0  0  0
    1.2188   -5.1474   -0.0000 C   0  0  0  0  0  0  0  0  0  0  0  0
   -7.8690   -2.8991   -0.0000 C   0  0  0  0  0  0  0  0  0  0  0  0
   -6.5792   -0.6627   -0.0000 C   0  0  0  0  0  0  0  0  0  0  0  0
    0.4615   -6.4372   -0.0000 N   0  0  0  0  0  0  0  0  0  0  0  0
    2.5086   -4.3901   -0.0000 C   0  0  0  0  0  0  0  0  0  0  0  0
    1.9525   -6.4372   -0.0000 C   0  0  0  0  0  0  0  0  0  0  0  0
   -9.1824   -2.1418   -0.0000 C   0  0  0  0  0  0  0  0  0  0  0  0
   -7.8808    0.0947   -0.0000 C   0  0  0  0  0  0  0  0  0  0  0  0
    3.7984   -5.1237   -0.0000 C   0  0  0  0  0  0  0  0  0  0  0  0
   -9.1943   -0.6272   -0.0000 N   0  0  0  0  0  0  0  0  0  0  0  0
  -10.4959   -2.8754   -0.0000 N   0  0  0  0  0  0  0  0  0  0  0  0
    5.0882   -4.3664   -0.0000 C   0  0  0  0  0  0  0  0  0  0  0  0
    3.7866   -6.6028   -0.0000 C   0  0  0  0  0  0  0  0  0  0  0  0
  -11.8094   -2.1181   -0.0000 C   0  0  0  0  0  0  0  0  0  0  0  0
  -11.8212   -0.6153   -0.0000 O   0  0  0  0  0  0  0  0  0  0  0  0
  -13.1229   -2.8518   -0.0000 O   0  0  0  0  0  0  0  0  0  0  0  0
  -14.4363   -2.0945   -0.0000 C   0  0  0  0  0  0  0  0  0  0  0  0
  1  2  1  0  0  0  0
  2  3  1  0  0  0  0
  2  4  1  0  0  0  0
  2  5  1  0  0  0  0
  5  6  1  0  0  0  0
  6  7  2  0  0  0  0
  6  8  1  0  0  0  0
  7  9  1  0  0  0  0
  7 10  1  0  0  0  0
  8 11  2  0  0  0  0
  9 12  1  0  0  0  0
 10 13  2  0  0  0  0
 11 14  1  0  0  0  0
 12 15  1  0  0  0  0
 14 16  2  0  0  0  0
 14 17  1  0  0  0  0
 15 18  1  6  0  0  0
 15 19  1  0  0  0  0
 15 20  1  0  0  0  0
 16 21  1  0  0  0  0
 17 22  2  0  0  0  0
 19 23  1  0  0  0  0
 21 24  2  0  0  0  0
 21 25  1  0  0  0  0
 23 26  1  0  0  0  0
 23 27  1  0  0  0  0
 25 28  1  0  0  0  0
 28 29  2  0  0  0  0
 28 30  1  0  0  0  0
 30 31  1  0  0  0  0
 11 13  1  0  0  0  0
 22 24  1  0  0  0  0
M  END
>  <MolRegNo>
2774127

>  <m>
=

>  <Value>
7800

>  <Unit>
nM

>  <Type>
IC50

>  <pValue>
5.11

>  <Ligand Efficiency>
0

>  <Binding Efficiency>
0

>  <Surface Efficiency>
0

>  <Assay Index>
1587013

>  <Assay Category>


>  <Assay Organism>
Homo sapiens

>  <Target ID>
17045

>  <Target Name>
Cytochrome P450 3A4

>  <Target Organism>
Homo sapiens

>  <Target Description>
Target is a single protein chain

>  <Sequence Accession>
P08684

>  <Reference>
J Med Chem 65 (6.0), 4534-4564 (2022)

>  <Pubmed ID>
35261239

>  <DOI>
10.1021/acs.jmedchem.1c02132

$$$$
2759009
Actelion Java MolfileCreator 1.0

 27 28  0  0  0  0  0  0  0  0999 V2000
    0.0000   -0.0000   -0.0000 Cl  0  0  0  0  0  0  0  0  0  0  0  0
   -1.3132   -0.7335   -0.0000 C   0  0  0  0  0  0  0  0  0  0  0  0
   -1.3250   -2.2241   -0.0000 C   0  0  0  0  0  0  0  0  0  0  0  0
   -2.6145    0.0237   -0.0000 C   0  0  0  0  0  0  0  0  0  0  0  0
   -0.0355   -2.9576   -0.0000 O   0  0  0  0  0  0  0  0  0  0  0  0
   -2.6264   -2.9576   -0.0000 C   0  0  0  0  0  0  0  0  0  0  0  0
   -3.9277   -0.7098   -0.0000 C   0  0  0  0  0  0  0  0  0  0  0  0
    1.2540   -2.2005   -0.0000 C   0  0  0  0  0  0  0  0  0  0  0  0
   -3.9395   -2.2005   -0.0000 C   0  0  0  0  0  0  0  0  0  0  0  0
   -5.2409    0.0473   -0.0000 C   0  0  0  0  0  0  0  0  0  0  0  0
    2.5436   -2.9340   -0.0000 C   0  0  0  0  0  0  0  0  0  0  0  0
   -6.5422   -0.6862   -0.0000 C   0  0  0  0  0  0  0  0  0  0  0  0
   -5.2527    1.5498   -0.0000 C   0  0  0  0  0  0  0  0  0  0  0  0
    1.7864   -4.2235   -0.0000 N   0  0  0  0  0  0  0  0  0  0  0  0
    3.8331   -2.1768   -0.0000 C   0  0  0  0  0  0  0  0  0  0  0  0
    3.2770   -4.2235   -0.0000 C   0  0  0  0  0  0  0  0  0  0  0  0
   -7.8554    0.0710   -0.0000 C   0  0  0  0  0  0  0  0  0  0  0  0
   -6.5541    2.3069   -0.0000 C   0  0  0  0  0  0  0  0  0  0  0  0
    5.1226   -2.9103   -0.0000 C   0  0  0  0  0  0  0  0  0  0  0  0
   -7.8673    1.5853   -0.0000 N   0  0  0  0  0  0  0  0  0  0  0  0
   -9.1686   -0.6625   -0.0000 N   0  0  0  0  0  0  0  0  0  0  0  0
    6.4121   -2.1531   -0.0000 C   0  0  0  0  0  0  0  0  0  0  0  0
    5.1108   -4.4009   -0.0000 C   0  0  0  0  0  0  0  0  0  0  0  0
  -10.4818    0.0946   -0.0000 C   0  0  0  0  0  0  0  0  0  0  0  0
  -10.4936    1.5971   -0.0000 O   0  0  0  0  0  0  0  0  0  0  0  0
  -11.7950   -0.6388   -0.0000 O   0  0  0  0  0  0  0  0  0  0  0  0
  -13.1082    0.1183   -0.0000 C   0  0  0  0  0  0  0  0  0  0  0  0
  1  2  1  0  0  0  0
  2  3  2  0  0  0  0
  2  4  1  0  0  0  0
  3  5  1  0  0  0  0
  3  6  1  0  0  0  0
  4  7  2  0  0  0  0
  5  8  1  0  0  0  0
  6  9  2  0  0  0  0
  7 10  1  0  0  0  0
  8 11  1  0  0  0  0
 10 12  2  0  0  0  0
 10 13  1  0  0  0  0
 11 14  1  6  0  0  0
 11 15  1  0  0  0  0
 11 16  1  0  0  0  0
 12 17  1  0  0  0  0
 13 18  2  0  0  0  0
 15 19  1  0  0  0  0
 17 20  2  0  0  0  0
 17 21  1  0  0  0  0
 19 22  1  0  0  0  0
 19 23  1  0  0  0  0
 21 24  1  0  0  0  0
 24 25  2  0  0  0  0
 24 26  1  0  0  0  0
 26 27  1  0  0  0  0
  7  9  1  0  0  0  0
 18 20  1  0  0  0  0
M  END
>  <MolRegNo>
2759009

>  <m>
=

>  <Value>
740

>  <Unit>
nM

>  <Type>
IC50

>  <pValue>
6.13

>  <Ligand Efficiency>
0

>  <Binding Efficiency>
0

>  <Surface Efficiency>
0

>  <Assay Index>
1587013

>  <Assay Category>


>  <Assay Organism>
Homo sapiens

>  <Target ID>
17045

>  <Target Name>
Cytochrome P450 3A4

>  <Target Organism>
Homo sapiens

>  <Target Description>
Target is a single protein chain

>  <Sequence Accession>
P08684

>  <Reference>
J Med Chem 65 (6.0), 4534-4564 (2022)

>  <Pubmed ID>
35261239

>  <DOI>
10.1021/acs.jmedchem.1c02132

$$$$
2224014
Actelion Java MolfileCreator 1.0

 29 31  0  0  0  0  0  0  0  0999 V2000
    0.0000   -0.0000   -0.0000 O   0  0  0  0  0  0  0  0  0  0  0  0
   -0.0119   -1.4922   -0.0000 C   0  0  0  0  0  0  0  0  0  0  0  0
   -1.3251   -2.2324   -0.0000 O   0  0  0  0  0  0  0  0  0  0  0  0
    1.2773   -2.2324   -0.0000 N   0  0  0  0  0  0  0  0  0  0  0  0
   -2.6383   -1.4684   -0.0000 C   0  0  0  0  0  0  0  0  0  0  0  0
    2.5666   -1.4684   -0.0000 C   0  0  0  0  0  0  0  0  0  0  0  0
    2.5547    0.0597   -0.0000 N   0  0  0  0  0  0  0  0  0  0  0  0
    3.8559   -2.2085   -0.0000 C   0  0  0  0  0  0  0  0  0  0  0  0
    3.8440    0.8237   -0.0000 C   0  0  0  0  0  0  0  0  0  0  0  0
    5.1571   -1.4445   -0.0000 C   0  0  0  0  0  0  0  0  0  0  0  0
    5.1452    0.0836   -0.0000 C   0  0  0  0  0  0  0  0  0  0  0  0
    6.4464   -2.1846   -0.0000 C   0  0  0  0  0  0  0  0  0  0  0  0
    7.7357   -1.4206   -0.0000 C   0  0  0  0  0  0  0  0  0  0  0  0
    6.4345   -3.6888   -0.0000 C   0  0  0  0  0  0  0  0  0  0  0  0
    9.0250   -2.1488   -0.0000 C   0  0  0  0  0  0  0  0  0  0  0  0
    7.7238   -4.4289   -0.0000 C   0  0  0  0  0  0  0  0  0  0  0  0
    9.0250   -3.6530   -0.0000 C   0  0  0  0  0  0  0  0  0  0  0  0
   10.3143   -1.3729   -0.0000 C   0  0  0  0  0  0  0  0  0  0  0  0
   10.3262   -4.3931   -0.0000 O   0  0  0  0  0  0  0  0  0  0  0  0
   11.8065   -1.3490   -0.0000 C   0  0  0  0  0  0  0  0  0  0  0  0
   11.0425   -0.0478   -0.0000 C   0  0  0  0  0  0  0  0  0  0  0  0
   11.6155   -3.6291   -0.0000 C   0  0  0  0  0  0  0  0  0  0  0  0
   12.9048   -4.3692   -0.0000 C   0  0  0  0  0  0  0  0  0  0  0  0
   12.1408   -5.6585   -0.0000 N   0  0  0  0  0  0  0  0  0  0  0  0
   14.1941   -3.6052   -0.0000 C   0  0  0  0  0  0  0  0  0  0  0  0
   13.6449   -5.6585   -0.0000 C   0  0  0  0  0  0  0  0  0  0  0  0
   15.4953   -4.3454   -0.0000 C   0  0  0  0  0  0  0  0  0  0  0  0
   16.7846   -3.5813   -0.0000 C   0  0  0  0  0  0  0  0  0  0  0  0
   15.4834   -5.8376   -0.0000 C   0  0  0  0  0  0  0  0  0  0  0  0
  1  2  2  0  0  0  0
  2  3  1  0  0  0  0
  2  4  1  0  0  0  0
  3  5  1  0  0  0  0
  4  6  1  0  0  0  0
  6  7  2  0  0  0  0
  6  8  1  0  0  0  0
  7  9  1  0  0  0  0
  8 10  2  0  0  0  0
  9 11  2  0  0  0  0
 10 12  1  0  0  0  0
 12 13  2  0  0  0  0
 12 14  1  0  0  0  0
 13 15  1  0  0  0  0
 14 16  2  0  0  0  0
 15 17  2  0  0  0  0
 15 18  1  0  0  0  0
 17 19  1  0  0  0  0
 18 20  1  0  0  0  0
 18 21  1  0  0  0  0
 19 22  1  0  0  0  0
 22 23  1  0  0  0  0
 23 24  1  6  0  0  0
 23 25  1  0  0  0  0
 23 26  1  0  0  0  0
 25 27  1  0  0  0  0
 27 28  1  0  0  0  0
 27 29  1  0  0  0  0
 10 11  1  0  0  0  0
 16 17  1  0  0  0  0
 20 21  1  0  0  0  0
M  END
>  <MolRegNo>
2224014

>  <m>
=

>  <Value>
16300

>  <Unit>
nM

>  <Type>
IC50

>  <pValue>
4.79

>  <Ligand Efficiency>
0

>  <Binding Efficiency>
0

>  <Surface Efficiency>
0

>  <Assay Index>
1587013

>  <Assay Category>


>  <Assay Organism>
Homo sapiens

>  <Target ID>
17045

>  <Target Name>
Cytochrome P450 3A4

>  <Target Organism>
Homo sapiens

>  <Target Description>
Target is a single protein chain

>  <Sequence Accession>
P08684

>  <Reference>
J Med Chem 65 (6.0), 4534-4564 (2022)

>  <Pubmed ID>
35261239

>  <DOI>
10.1021/acs.jmedchem.1c02132

$$$$
2756231
Actelion Java MolfileCreator 1.0

 28 29  0  0  0  0  0  0  0  0999 V2000
    0.0000   -0.0000   -0.0000 O   0  0  0  0  0  0  0  0  0  0  0  0
   -0.0119   -1.4880   -0.0000 C   0  0  0  0  0  0  0  0  0  0  0  0
   -1.3332   -2.2261   -0.0000 O   0  0  0  0  0  0  0  0  0  0  0  0
    1.2856   -2.2261   -0.0000 N   0  0  0  0  0  0  0  0  0  0  0  0
   -2.6546   -1.4642   -0.0000 C   0  0  0  0  0  0  0  0  0  0  0  0
    2.5832   -1.4642   -0.0000 C   0  0  0  0  0  0  0  0  0  0  0  0
    2.5713    0.0595   -0.0000 N   0  0  0  0  0  0  0  0  0  0  0  0
    3.8807   -2.2022   -0.0000 C   0  0  0  0  0  0  0  0  0  0  0  0
    3.8688    0.8214   -0.0000 C   0  0  0  0  0  0  0  0  0  0  0  0
    5.1663   -1.4404   -0.0000 C   0  0  0  0  0  0  0  0  0  0  0  0
    5.1544    0.0833   -0.0000 C   0  0  0  0  0  0  0  0  0  0  0  0
    6.4639   -2.1784   -0.0000 C   0  0  0  0  0  0  0  0  0  0  0  0
    6.4520   -3.6783   -0.0000 C   0  0  0  0  0  0  0  0  0  0  0  0
    7.7614   -1.4166   -0.0000 C   0  0  0  0  0  0  0  0  0  0  0  0
    7.7495   -4.4164   -0.0000 N   0  0  0  0  0  0  0  0  0  0  0  0
    9.0470   -2.1546   -0.0000 C   0  0  0  0  0  0  0  0  0  0  0  0
    9.0351   -3.6545   -0.0000 C   0  0  0  0  0  0  0  0  0  0  0  0
   10.3446   -1.3928   -0.0000 C   0  0  0  0  0  0  0  0  0  0  0  0
   10.3327   -4.3926   -0.0000 O   0  0  0  0  0  0  0  0  0  0  0  0
   11.6421   -0.6309   -0.0000 N   0  0  0  0  0  0  0  0  0  0  0  0
   11.6302   -3.6307   -0.0000 C   0  0  0  0  0  0  0  0  0  0  0  0
   12.9278   -4.3688   -0.0000 C   0  0  0  0  0  0  0  0  0  0  0  0
   12.1659   -5.6663   -0.0000 N   0  0  0  0  0  0  0  0  0  0  0  0
   14.2253   -3.6069   -0.0000 C   0  0  0  0  0  0  0  0  0  0  0  0
   13.6658   -5.6663   -0.0000 C   0  0  0  0  0  0  0  0  0  0  0  0
   15.5228   -4.3450   -0.0000 C   0  0  0  0  0  0  0  0  0  0  0  0
   16.8204   -3.5831   -0.0000 C   0  0  0  0  0  0  0  0  0  0  0  0
   15.5109   -5.8330   -0.0000 C   0  0  0  0  0  0  0  0  0  0  0  0
  1  2  2  0  0  0  0
  2  3  1  0  0  0  0
  2  4  1  0  0  0  0
  3  5  1  0  0  0  0
  4  6  1  0  0  0  0
  6  7  2  0  0  0  0
  6  8  1  0  0  0  0
  7  9  1  0  0  0  0
  8 10  2  0  0  0  0
  9 11  2  0  0  0  0
 10 12  1  0  0  0  0
 12 13  2  0  0  0  0
 12 14  1  0  0  0  0
 13 15  1  0  0  0  0
 14 16  2  0  0  0  0
 15 17  2  0  0  0  0
 16 18  1  0  0  0  0
 17 19  1  0  0  0  0
 18 20  3  0  0  0  0
 19 21  1  0  0  0  0
 21 22  1  0  0  0  0
 22 23  1  6  0  0  0
 22 24  1  0  0  0  0
 22 25  1  0  0  0  0
 24 26  1  0  0  0  0
 26 27  1  0  0  0  0
 26 28  1  0  0  0  0
 10 11  1  0  0  0  0
 16 17  1  0  0  0  0
M  END
>  <MolRegNo>
2756231

>  <m>
=

>  <Value>
2200

>  <Unit>
nM

>  <Type>
IC50

>  <pValue>
5.66

>  <Ligand Efficiency>
0

>  <Binding Efficiency>
0

>  <Surface Efficiency>
0

>  <Assay Index>
1587013

>  <Assay Category>


>  <Assay Organism>
Homo sapiens

>  <Target ID>
17045

>  <Target Name>
Cytochrome P450 3A4

>  <Target Organism>
Homo sapiens

>  <Target Description>
Target is a single protein chain

>  <Sequence Accession>
P08684

>  <Reference>
J Med Chem 65 (6.0), 4534-4564 (2022)

>  <Pubmed ID>
35261239

>  <DOI>
10.1021/acs.jmedchem.1c02132

$$$$
2766884
Actelion Java MolfileCreator 1.0

 27 28  0  0  0  0  0  0  0  0999 V2000
    0.0000   -0.0000   -0.0000 O   0  0  0  0  0  0  0  0  0  0  0  0
   -0.0119   -1.4890   -0.0000 C   0  0  0  0  0  0  0  0  0  0  0  0
   -1.3341   -2.2275   -0.0000 O   0  0  0  0  0  0  0  0  0  0  0  0
    1.2865   -2.2275   -0.0000 N   0  0  0  0  0  0  0  0  0  0  0  0
   -2.6563   -1.4651   -0.0000 C   0  0  0  0  0  0  0  0  0  0  0  0
    2.5848   -1.4651   -0.0000 C   0  0  0  0  0  0  0  0  0  0  0  0
    2.5729    0.0596   -0.0000 N   0  0  0  0  0  0  0  0  0  0  0  0
    3.8832   -2.2037   -0.0000 C   0  0  0  0  0  0  0  0  0  0  0  0
    3.8713    0.8219   -0.0000 C   0  0  0  0  0  0  0  0  0  0  0  0
    5.1697   -1.4413   -0.0000 C   0  0  0  0  0  0  0  0  0  0  0  0
    5.1578    0.0834   -0.0000 C   0  0  0  0  0  0  0  0  0  0  0  0
    6.4680   -2.1798   -0.0000 C   0  0  0  0  0  0  0  0  0  0  0  0
    7.7664   -1.4175   -0.0000 N   0  0  0  0  0  0  0  0  0  0  0  0
    6.4561   -3.6807   -0.0000 C   0  0  0  0  0  0  0  0  0  0  0  0
    9.0529   -2.1560   -0.0000 C   0  0  0  0  0  0  0  0  0  0  0  0
    7.7545   -4.4192   -0.0000 C   0  0  0  0  0  0  0  0  0  0  0  0
    9.0410   -3.6450   -0.0000 C   0  0  0  0  0  0  0  0  0  0  0  0
    7.7426   -5.9082   -0.0000 C   0  0  0  0  0  0  0  0  0  0  0  0
   10.3394   -4.3835   -0.0000 O   0  0  0  0  0  0  0  0  0  0  0  0
   11.6377   -3.6212   -0.0000 C   0  0  0  0  0  0  0  0  0  0  0  0
   12.9361   -4.3597   -0.0000 C   0  0  0  0  0  0  0  0  0  0  0  0
   12.1738   -5.6581   -0.0000 N   0  0  0  0  0  0  0  0  0  0  0  0
   14.2345   -3.5973   -0.0000 C   0  0  0  0  0  0  0  0  0  0  0  0
   13.6746   -5.6581   -0.0000 C   0  0  0  0  0  0  0  0  0  0  0  0
   15.5328   -4.3359   -0.0000 C   0  0  0  0  0  0  0  0  0  0  0  0
   16.8312   -3.5735   -0.0000 C   0  0  0  0  0  0  0  0  0  0  0  0
   15.5209   -5.8248   -0.0000 C   0  0  0  0  0  0  0  0  0  0  0  0
  1  2  2  0  0  0  0
  2  3  1  0  0  0  0
  2  4  1  0  0  0  0
  3  5  1  0  0  0  0
  4  6  1  0  0  0  0
  6  7  2  0  0  0  0
  6  8  1  0  0  0  0
  7  9  1  0  0  0  0
  8 10  2  0  0  0  0
  9 11  2  0  0  0  0
 10 12  1  0  0  0  0
 12 13  2  0  0  0  0
 12 14  1  0  0  0  0
 13 15  1  0  0  0  0
 14 16  2  0  0  0  0
 15 17  2  0  0  0  0
 16 18  1  0  0  0  0
 17 19  1  0  0  0  0
 19 20  1  0  0  0  0
 20 21  1  0  0  0  0
 21 22  1  6  0  0  0
 21 23  1  0  0  0  0
 21 24  1  0  0  0  0
 23 25  1  0  0  0  0
 25 26  1  0  0  0  0
 25 27  1  0  0  0  0
 10 11  1  0  0  0  0
 16 17  1  0  0  0  0
M  END
>  <MolRegNo>
2766884

>  <m>
=

>  <Value>
13000

>  <Unit>
nM

>  <Type>
IC50

>  <pValue>
4.89

>  <Ligand Efficiency>
0

>  <Binding Efficiency>
0

>  <Surface Efficiency>
0

>  <Assay Index>
1587013

>  <Assay Category>


>  <Assay Organism>
Homo sapiens

>  <Target ID>
17045

>  <Target Name>
Cytochrome P450 3A4

>  <Target Organism>
Homo sapiens

>  <Target Description>
Target is a single protein chain

>  <Sequence Accession>
P08684

>  <Reference>
J Med Chem 65 (6.0), 4534-4564 (2022)

>  <Pubmed ID>
35261239

>  <DOI>
10.1021/acs.jmedchem.1c02132

$$$$
2749476
Actelion Java MolfileCreator 1.0

 30 31  0  0  0  0  0  0  0  0999 V2000
    0.0000   -0.0000   -0.0000 F   0  0  0  0  0  0  0  0  0  0  0  0
   -1.3131    0.7571   -0.0000 C   0  0  0  0  0  0  0  0  0  0  0  0
   -2.8273    0.7689   -0.0000 F   0  0  0  0  0  0  0  0  0  0  0  0
   -2.0702   -0.5205   -0.0000 F   0  0  0  0  0  0  0  0  0  0  0  0
   -1.3249    2.2594   -0.0000 C   0  0  0  0  0  0  0  0  0  0  0  0
   -0.0473    3.0165   -0.0000 C   0  0  0  0  0  0  0  0  0  0  0  0
   -2.6380    3.0165   -0.0000 C   0  0  0  0  0  0  0  0  0  0  0  0
    1.2303    2.2831   -0.0000 O   0  0  0  0  0  0  0  0  0  0  0  0
   -0.0591    4.5189   -0.0000 C   0  0  0  0  0  0  0  0  0  0  0  0
   -2.6498    4.5307   -0.0000 C   0  0  0  0  0  0  0  0  0  0  0  0
    2.5197    3.0402   -0.0000 C   0  0  0  0  0  0  0  0  0  0  0  0
   -1.3604    5.2760   -0.0000 N   0  0  0  0  0  0  0  0  0  0  0  0
   -3.9629    5.2878   -0.0000 C   0  0  0  0  0  0  0  0  0  0  0  0
    3.8091    2.3068   -0.0000 C   0  0  0  0  0  0  0  0  0  0  0  0
   -5.2641    4.5544   -0.0000 C   0  0  0  0  0  0  0  0  0  0  0  0
   -3.9747    6.7901   -0.0000 C   0  0  0  0  0  0  0  0  0  0  0  0
    3.0520    1.0173   -0.0000 N   0  0  0  0  0  0  0  0  0  0  0  0
    5.0985    3.0638   -0.0000 C   0  0  0  0  0  0  0  0  0  0  0  0
    4.5425    1.0173   -0.0000 C   0  0  0  0  0  0  0  0  0  0  0  0
   -6.5772    5.3115   -0.0000 C   0  0  0  0  0  0  0  0  0  0  0  0
   -5.2760    7.5472   -0.0000 C   0  0  0  0  0  0  0  0  0  0  0  0
    6.3879    2.3304   -0.0000 C   0  0  0  0  0  0  0  0  0  0  0  0
   -6.5890    6.8256   -0.0000 N   0  0  0  0  0  0  0  0  0  0  0  0
   -7.8903    4.5780   -0.0000 N   0  0  0  0  0  0  0  0  0  0  0  0
    7.6774    3.0875   -0.0000 C   0  0  0  0  0  0  0  0  0  0  0  0
    6.3761    0.8517   -0.0000 C   0  0  0  0  0  0  0  0  0  0  0  0
   -9.2034    5.3351   -0.0000 C   0  0  0  0  0  0  0  0  0  0  0  0
   -9.2152    6.8375   -0.0000 O   0  0  0  0  0  0  0  0  0  0  0  0
  -10.5164    4.6017   -0.0000 O   0  0  0  0  0  0  0  0  0  0  0  0
  -11.8295    5.3588   -0.0000 C   0  0  0  0  0  0  0  0  0  0  0  0
  1  2  1  0  0  0  0
  2  3  1  0  0  0  0
  2  4  1  0  0  0  0
  2  5  1  0  0  0  0
  5  6  2  0  0  0  0
  5  7  1  0  0  0  0
  6  8  1  0  0  0  0
  6  9  1  0  0  0  0
  7 10  2  0  0  0  0
  8 11  1  0  0  0  0
  9 12  2  0  0  0  0
 10 13  1  0  0  0  0
 11 14  1  0  0  0  0
 13 15  2  0  0  0  0
 13 16  1  0  0  0  0
 14 17  1  6  0  0  0
 14 18  1  0  0  0  0
 14 19  1  0  0  0  0
 15 20  1  0  0  0  0
 16 21  2  0  0  0  0
 18 22  1  0  0  0  0
 20 23  2  0  0  0  0
 20 24  1  0  0  0  0
 22 25  1  0  0  0  0
 22 26  1  0  0  0  0
 24 27  1  0  0  0  0
 27 28  2  0  0  0  0
 27 29  1  0  0  0  0
 29 30  1  0  0  0  0
 10 12  1  0  0  0  0
 21 23  1  0  0  0  0
M  END
>  <MolRegNo>
2749476

>  <m>
=

>  <Value>
5300

>  <Unit>
nM

>  <Type>
IC50

>  <pValue>
5.28

>  <Ligand Efficiency>
0

>  <Binding Efficiency>
0

>  <Surface Efficiency>
0

>  <Assay Index>
1587013

>  <Assay Category>


>  <Assay Organism>
Homo sapiens

>  <Target ID>
17045

>  <Target Name>
Cytochrome P450 3A4

>  <Target Organism>
Homo sapiens

>  <Target Description>
Target is a single protein chain

>  <Sequence Accession>
P08684

>  <Reference>
J Med Chem 65 (6.0), 4534-4564 (2022)

>  <Pubmed ID>
35261239

>  <DOI>
10.1021/acs.jmedchem.1c02132

$$$$
2772997
Actelion Java MolfileCreator 1.0

 64 69  0  0  0  0  0  0  0  0999 V2000
    0.0000   -0.0000   -0.0000 O   0  0  0  0  0  0  0  0  0  0  0  0
   -0.0119   -1.4959   -0.0000 C   0  0  0  0  0  0  0  0  0  0  0  0
   -1.3297   -2.2320   -0.0000 O   0  0  0  0  0  0  0  0  0  0  0  0
    1.2822   -2.2320   -0.0000 N   0  0  0  0  0  0  0  0  0  0  0  0
   -1.3416   -3.7279   -0.0000 C   0  0  0  0  0  0  0  0  0  0  0  0
    2.5763   -1.4722   -0.0000 C   0  0  0  0  0  0  0  0  0  0  0  0
   -2.6594   -4.4758   -0.0000 C   0  0  0  0  0  0  0  0  0  0  0  0
   -0.0475   -4.4640   -0.0000 C   0  0  0  0  0  0  0  0  0  0  0  0
   -1.3653   -5.2119   -0.0000 C   0  0  0  0  0  0  0  0  0  0  0  0
    3.8704   -2.2082   -0.0000 C   0  0  0  0  0  0  0  0  0  0  0  0
    5.1644   -1.4484   -0.0000 C   0  0  0  0  0  0  0  0  0  0  0  0
    6.4466   -2.1845   -0.0000 O   0  0  0  0  0  0  0  0  0  0  0  0
    6.4348   -3.6804   -0.0000 C   0  0  0  0  0  0  0  0  0  0  0  0
    7.7289   -4.4165   -0.0000 C   0  0  0  0  0  0  0  0  0  0  0  0
    5.1288   -4.4284   -0.0000 C   0  0  0  0  0  0  0  0  0  0  0  0
    9.1417   -3.9297   -0.0000 N   0  0  0  0  0  0  0  0  0  0  0  0
    7.7289   -5.9124   -0.0000 C   0  0  0  0  0  0  0  0  0  0  0  0
    5.1170   -5.9243   -0.0000 C   0  0  0  0  0  0  0  0  0  0  0  0
   10.0202   -5.1288   -0.0000 C   0  0  0  0  0  0  0  0  0  0  0  0
    9.5928   -2.4813   -0.0000 C   0  0  0  0  0  0  0  0  0  0  0  0
    9.1535   -6.3517   -0.0000 N   0  0  0  0  0  0  0  0  0  0  0  0
    6.4110   -6.6603   -0.0000 C   0  0  0  0  0  0  0  0  0  0  0  0
    3.7991   -6.6603   -0.0000 C   0  0  0  0  0  0  0  0  0  0  0  0
   11.5161   -5.1051   -0.0000 N   0  0  0  0  0  0  0  0  0  0  0  0
   11.0531   -2.1370   -0.0000 C   0  0  0  0  0  0  0  0  0  0  0  0
    3.7873   -8.1563   -0.0000 O   0  0  0  0  0  0  0  0  0  0  0  0
    2.4813   -5.9005   -0.0000 N   0  0  0  0  0  0  0  0  0  0  0  0
   12.2641   -6.3873   -0.0000 C   0  0  0  0  0  0  0  0  0  0  0  0
   11.4924   -0.6886   -0.0000 C   0  0  0  0  0  0  0  0  0  0  0  0
   11.5161   -7.6814   -0.0000 O   0  0  0  0  0  0  0  0  0  0  0  0
   13.7600   -6.3635   -0.0000 C   0  0  0  0  0  0  0  0  0  0  0  0
   12.9527   -0.3562   -0.0000 C   0  0  0  0  0  0  0  0  0  0  0  0
   14.6266   -5.1288   -0.0000 N   0  0  0  0  0  0  0  0  0  0  0  0
   14.6385   -7.5626   -0.0000 C   0  0  0  0  0  0  0  0  0  0  0  0
   13.3919    1.0922   -0.0000 N   0  0  0  0  0  0  0  0  0  0  0  0
   16.0513   -5.5800   -0.0000 N   0  0  0  0  0  0  0  0  0  0  0  0
   14.1399   -3.6923   -0.0000 C   0  0  0  0  0  0  0  0  0  0  0  0
   16.0513   -7.0759   -0.0000 C   0  0  0  0  0  0  0  0  0  0  0  0
   12.4896    2.3032   -0.0000 C   0  0  0  0  0  0  0  0  0  0  0  0
   14.8047    1.5671   -0.0000 C   0  0  0  0  0  0  0  0  0  0  0  0
   15.1253   -2.5644   -0.0000 C   0  0  0  0  0  0  0  0  0  0  0  0
   17.2623   -7.9307   -0.0000 C   0  0  0  0  0  0  0  0  0  0  0  0
   13.3444    3.5261   -0.0000 N   0  0  0  0  0  0  0  0  0  0  0  0
   10.9700    2.3032   -0.0000 N   0  0  0  0  0  0  0  0  0  0  0  0
   16.0869    0.8429   -0.0000 C   0  0  0  0  0  0  0  0  0  0  0  0
   14.7929    3.0749   -0.0000 C   0  0  0  0  0  0  0  0  0  0  0  0
   10.1864    3.6092   -0.0000 C   0  0  0  0  0  0  0  0  0  0  0  0
   16.0751   -0.6530   -0.0000 O   0  0  0  0  0  0  0  0  0  0  0  0
   17.3691    1.6028   -0.0000 C   0  0  0  0  0  0  0  0  0  0  0  0
   16.0751    3.8466   -0.0000 C   0  0  0  0  0  0  0  0  0  0  0  0
   10.9225    4.9270   -0.0000 O   0  0  0  0  0  0  0  0  0  0  0  0
    8.6668    3.6092   -0.0000 C   0  0  0  0  0  0  0  0  0  0  0  0
   17.3691   -1.3891   -0.0000 C   0  0  0  0  0  0  0  0  0  0  0  0
   17.3454    3.1224   -0.0000 C   0  0  0  0  0  0  0  0  0  0  0  0
    7.7763    2.3982   -0.0000 N   0  0  0  0  0  0  0  0  0  0  0  0
    7.7645    4.8320   -0.0000 C   0  0  0  0  0  0  0  0  0  0  0  0
   18.6276    3.8941   -0.0000 C   0  0  0  0  0  0  0  0  0  0  0  0
    6.3398    2.8612   -0.0000 N   0  0  0  0  0  0  0  0  0  0  0  0
    8.2512    0.9854   -0.0000 C   0  0  0  0  0  0  0  0  0  0  0  0
    6.3279    4.3690   -0.0000 C   0  0  0  0  0  0  0  0  0  0  0  0
   18.6039    5.4138   -0.0000 O   0  0  0  0  0  0  0  0  0  0  0  0
   19.9217    3.1580   -0.0000 N   0  0  0  0  0  0  0  0  0  0  0  0
    7.2421   -0.1306   -0.0000 C   0  0  0  0  0  0  0  0  0  0  0  0
    5.0932    5.2475   -0.0000 C   0  0  0  0  0  0  0  0  0  0  0  0
  1  2  2  0  0  0  0
  2  3  1  0  0  0  0
  2  4  1  0  0  0  0
  3  5  1  0  0  0  0
  4  6  1  0  0  0  0
  5  7  1  0  0  0  0
  5  8  1  0  0  0  0
  5  9  1  0  0  0  0
  6 10  1  0  0  0  0
 10 11  1  0  0  0  0
 11 12  1  0  0  0  0
 12 13  1  0  0  0  0
 13 14  2  0  0  0  0
 13 15  1  0  0  0  0
 14 16  1  0  0  0  0
 14 17  1  0  0  0  0
 15 18  2  0  0  0  0
 16 19  1  0  0  0  0
 16 20  1  0  0  0  0
 17 21  1  0  0  0  0
 17 22  2  0  0  0  0
 18 23  1  0  0  0  0
 19 24  1  0  0  0  0
 20 25  1  0  0  0  0
 23 26  2  0  0  0  0
 23 27  1  0  0  0  0
 24 28  1  0  0  0  0
 25 29  2  0  0  0  0
 28 30  2  0  0  0  0
 28 31  1  0  0  0  0
 29 32  1  0  0  0  0
 31 33  1  0  0  0  0
 31 34  2  0  0  0  0
 32 35  1  0  0  0  0
 33 36  1  0  0  0  0
 33 37  1  0  0  0  0
 34 38  1  0  0  0  0
 35 39  1  0  0  0  0
 35 40  1  0  0  0  0
 37 41  1  0  0  0  0
 38 42  1  0  0  0  0
 39 43  2  0  0  0  0
 39 44  1  0  0  0  0
 40 45  2  0  0  0  0
 40 46  1  0  0  0  0
 44 47  1  0  0  0  0
 45 48  1  0  0  0  0
 45 49  1  0  0  0  0
 46 50  2  0  0  0  0
 47 51  2  0  0  0  0
 47 52  1  0  0  0  0
 48 53  1  0  0  0  0
 49 54  2  0  0  0  0
 52 55  1  0  0  0  0
 52 56  2  0  0  0  0
 54 57  1  0  0  0  0
 55 58  1  0  0  0  0
 55 59  1  0  0  0  0
 56 60  1  0  0  0  0
 57 61  2  0  0  0  0
 57 62  1  0  0  0  0
 59 63  1  0  0  0  0
 60 64  1  0  0  0  0
 18 22  1  0  0  0  0
 19 21  2  0  0  0  0
 36 38  2  0  0  0  0
 43 46  1  0  0  0  0
 50 54  1  0  0  0  0
 58 60  2  0  0  0  0
M  END
>  <MolRegNo>
2772997

>  <m>
=

>  <Value>
4200

>  <Unit>
nM

>  <Type>
IC50

>  <pValue>
5.38

>  <Ligand Efficiency>
0

>  <Binding Efficiency>
0

>  <Surface Efficiency>
0

>  <Assay Index>
1588110

>  <Assay Category>


>  <Assay Organism>
Homo sapiens

>  <Target ID>
17045

>  <Target Name>
Cytochrome P450 3A4

>  <Target Organism>
Homo sapiens

>  <Target Description>
Target is a single protein chain

>  <Sequence Accession>
P08684

>  <Reference>
J Med Chem 65 (7.0), 5407-5432 (2022)

>  <Pubmed ID>
35315650

>  <DOI>
10.1021/acs.jmedchem.1c01795

$$$$
2746065
Actelion Java MolfileCreator 1.0

 30 31  0  0  0  0  0  0  0  0999 V2000
    0.0000   -0.0000   -0.0000 O   0  0  0  0  0  0  0  0  0  0  0  0
    1.2853    0.7736   -0.0000 C   0  0  0  0  0  0  0  0  0  0  0  0
    1.2734    2.2850   -0.0000 O   0  0  0  0  0  0  0  0  0  0  0  0
    2.5707    0.0357   -0.0000 C   0  0  0  0  0  0  0  0  0  0  0  0
    2.5588    3.0467   -0.0000 C   0  0  0  0  0  0  0  0  0  0  0  0
    2.5588   -1.4520   -0.0000 N   0  0  0  0  0  0  0  0  0  0  0  0
    3.8560    0.8093   -0.0000 C   0  0  0  0  0  0  0  0  0  0  0  0
    2.5469    4.5582   -0.0000 C   0  0  0  0  0  0  0  0  0  0  0  0
    3.8441    2.3088   -0.0000 C   0  0  0  0  0  0  0  0  0  0  0  0
    3.8322    3.8203   -0.0000 C   0  0  0  0  0  0  0  0  0  0  0  0
    1.2496   -2.1898   -0.0000 C   0  0  0  0  0  0  0  0  0  0  0  0
    5.1533    0.0714   -0.0000 C   0  0  0  0  0  0  0  0  0  0  0  0
   -0.0595   -1.4401   -0.0000 N   0  0  0  0  0  0  0  0  0  0  0  0
    1.2377   -3.6894   -0.0000 N   0  0  0  0  0  0  0  0  0  0  0  0
    6.4386    0.8450   -0.0000 C   0  0  0  0  0  0  0  0  0  0  0  0
    5.1414   -1.4163   -0.0000 C   0  0  0  0  0  0  0  0  0  0  0  0
   -1.3567   -2.1779   -0.0000 C   0  0  0  0  0  0  0  0  0  0  0  0
   -0.0833   -4.4273   -0.0000 C   0  0  0  0  0  0  0  0  0  0  0  0
   -1.3805   -3.6656   -0.0000 N   0  0  0  0  0  0  0  0  0  0  0  0
   -2.6659   -1.4163   -0.0000 N   0  0  0  0  0  0  0  0  0  0  0  0
   -3.9750   -2.1541   -0.0000 C   0  0  0  0  0  0  0  0  0  0  0  0
   -5.2842   -1.3925   -0.0000 C   0  0  0  0  0  0  0  0  0  0  0  0
   -3.9750   -3.6299   -0.0000 C   0  0  0  0  0  0  0  0  0  0  0  0
   -6.5933   -2.1303   -0.0000 C   0  0  0  0  0  0  0  0  0  0  0  0
   -5.2723   -4.3678   -0.0000 C   0  0  0  0  0  0  0  0  0  0  0  0
   -6.6052   -3.6180   -0.0000 C   0  0  0  0  0  0  0  0  0  0  0  0
   -7.9144   -4.3559   -0.0000 N   0  0  0  0  0  0  0  0  0  0  0  0
   -9.2235   -3.5942   -0.0000 C   0  0  0  0  0  0  0  0  0  0  0  0
   -9.2354   -2.0827   -0.0000 O   0  0  0  0  0  0  0  0  0  0  0  0
  -10.5326   -4.3321   -0.0000 C   0  0  0  0  0  0  0  0  0  0  0  0
  1  2  2  0  0  0  0
  2  3  1  0  0  0  0
  2  4  1  0  0  0  0
  3  5  1  0  0  0  0
  4  6  1  6  0  0  0
  4  7  1  0  0  0  0
  5  8  1  0  0  0  0
  5  9  1  0  0  0  0
  5 10  1  0  0  0  0
  6 11  1  0  0  0  0
  7 12  1  0  0  0  0
 11 13  2  0  0  0  0
 11 14  1  0  0  0  0
 12 15  1  0  0  0  0
 12 16  1  0  0  0  0
 13 17  1  0  0  0  0
 14 18  2  0  0  0  0
 17 19  2  0  0  0  0
 17 20  1  0  0  0  0
 20 21  1  0  0  0  0
 21 22  2  0  0  0  0
 21 23  1  0  0  0  0
 22 24  1  0  0  0  0
 23 25  2  0  0  0  0
 24 26  2  0  0  0  0
 26 27  1  0  0  0  0
 27 28  1  0  0  0  0
 28 29  2  0  0  0  0
 28 30  1  0  0  0  0
 18 19  1  0  0  0  0
 25 26  1  0  0  0  0
M  END
>  <MolRegNo>
2746065

>  <m>
=

>  <Value>
29900

>  <Unit>
nM

>  <Type>
IC50

>  <pValue>
4.52

>  <Ligand Efficiency>
0

>  <Binding Efficiency>
0

>  <Surface Efficiency>
0

>  <Assay Index>
1588350

>  <Assay Category>


>  <Assay Organism>
Homo sapiens

>  <Target ID>
17045

>  <Target Name>
Cytochrome P450 3A4

>  <Target Organism>
Homo sapiens

>  <Target Description>
Target is a single protein chain

>  <Sequence Accession>
P08684

>  <Reference>
J Med Chem 65 (7.0), 5495-5513 (2022)

>  <Pubmed ID>
35333039

>  <DOI>
10.1021/acs.jmedchem.1c01974

$$$$
2764721
Actelion Java MolfileCreator 1.0

 33 35  0  0  0  0  0  0  0  0999 V2000
    0.0000   -0.0000   -0.0000 O   0  0  0  0  0  0  0  0  0  0  0  0
   -0.0119   -1.4782   -0.0000 C   0  0  0  0  0  0  0  0  0  0  0  0
    1.2756   -2.2173   -0.0000 O   0  0  0  0  0  0  0  0  0  0  0  0
   -1.3352   -2.2173   -0.0000 C   0  0  0  0  0  0  0  0  0  0  0  0
    2.5630   -1.4544   -0.0000 C   0  0  0  0  0  0  0  0  0  0  0  0
   -2.6465   -1.4544   -0.0000 N   0  0  0  0  0  0  0  0  0  0  0  0
   -1.3471   -3.7075   -0.0000 C   0  0  0  0  0  0  0  0  0  0  0  0
    3.8505   -2.1816   -0.0000 C   0  0  0  0  0  0  0  0  0  0  0  0
    2.5392    0.0596   -0.0000 C   0  0  0  0  0  0  0  0  0  0  0  0
    3.8386   -0.6795   -0.0000 C   0  0  0  0  0  0  0  0  0  0  0  0
   -3.9578   -2.1935   -0.0000 C   0  0  0  0  0  0  0  0  0  0  0  0
   -0.0596   -4.4466   -0.0000 C   0  0  0  0  0  0  0  0  0  0  0  0
   -5.2691   -1.4305   -0.0000 N   0  0  0  0  0  0  0  0  0  0  0  0
   -3.9697   -3.6955   -0.0000 N   0  0  0  0  0  0  0  0  0  0  0  0
   -0.0715   -5.9248   -0.0000 C   0  0  0  0  0  0  0  0  0  0  0  0
    1.2160   -3.6836   -0.0000 C   0  0  0  0  0  0  0  0  0  0  0  0
   -6.5805   -2.1696   -0.0000 C   0  0  0  0  0  0  0  0  0  0  0  0
   -5.2930   -4.4347   -0.0000 C   0  0  0  0  0  0  0  0  0  0  0  0
    1.2160   -6.6639   -0.0000 C   0  0  0  0  0  0  0  0  0  0  0  0
    2.5034   -4.4108   -0.0000 C   0  0  0  0  0  0  0  0  0  0  0  0
   -6.6043   -3.6717   -0.0000 N   0  0  0  0  0  0  0  0  0  0  0  0
   -7.8918   -1.4067   -0.0000 N   0  0  0  0  0  0  0  0  0  0  0  0
    2.5034   -5.9009   -0.0000 C   0  0  0  0  0  0  0  0  0  0  0  0
   -9.1912   -2.1458   -0.0000 C   0  0  0  0  0  0  0  0  0  0  0  0
  -10.5025   -1.3709   -0.0000 C   0  0  0  0  0  0  0  0  0  0  0  0
   -9.2031   -3.6240   -0.0000 C   0  0  0  0  0  0  0  0  0  0  0  0
  -11.8138   -2.1100   -0.0000 C   0  0  0  0  0  0  0  0  0  0  0  0
  -10.5144   -4.3631   -0.0000 C   0  0  0  0  0  0  0  0  0  0  0  0
  -11.8257   -3.6002   -0.0000 C   0  0  0  0  0  0  0  0  0  0  0  0
  -13.1251   -4.3393   -0.0000 N   0  0  0  0  0  0  0  0  0  0  0  0
  -14.4365   -3.5763   -0.0000 C   0  0  0  0  0  0  0  0  0  0  0  0
  -14.4484   -2.0624   -0.0000 O   0  0  0  0  0  0  0  0  0  0  0  0
  -15.7478   -4.3274   -0.0000 C   0  0  0  0  0  0  0  0  0  0  0  0
  1  2  2  0  0  0  0
  2  3  1  0  0  0  0
  2  4  1  0  0  0  0
  3  5  1  0  0  0  0
  4  6  1  6  0  0  0
  4  7  1  0  0  0  0
  5  8  1  0  0  0  0
  5  9  1  0  0  0  0
  5 10  1  0  0  0  0
  6 11  1  0  0  0  0
  7 12  1  0  0  0  0
 11 13  2  0  0  0  0
 11 14  1  0  0  0  0
 12 15  2  0  0  0  0
 12 16  1  0  0  0  0
 13 17  1  0  0  0  0
 14 18  2  0  0  0  0
 15 19  1  0  0  0  0
 16 20  2  0  0  0  0
 17 21  2  0  0  0  0
 17 22  1  0  0  0  0
 19 23  2  0  0  0  0
 22 24  1  0  0  0  0
 24 25  2  0  0  0  0
 24 26  1  0  0  0  0
 25 27  1  0  0  0  0
 26 28  2  0  0  0  0
 27 29  2  0  0  0  0
 29 30  1  0  0  0  0
 30 31  1  0  0  0  0
 31 32  2  0  0  0  0
 31 33  1  0  0  0  0
 18 21  1  0  0  0  0
 20 23  1  0  0  0  0
 28 29  1  0  0  0  0
M  END
>  <MolRegNo>
2764721

>  <m>
=

>  <Value>
19800

>  <Unit>
nM

>  <Type>
IC50

>  <pValue>
4.7

>  <Ligand Efficiency>
0

>  <Binding Efficiency>
0

>  <Surface Efficiency>
0

>  <Assay Index>
1588350

>  <Assay Category>


>  <Assay Organism>
Homo sapiens

>  <Target ID>
17045

>  <Target Name>
Cytochrome P450 3A4

>  <Target Organism>
Homo sapiens

>  <Target Description>
Target is a single protein chain

>  <Sequence Accession>
P08684

>  <Reference>
J Med Chem 65 (7.0), 5495-5513 (2022)

>  <Pubmed ID>
35333039

>  <DOI>
10.1021/acs.jmedchem.1c01974

$$$$
2776558
Actelion Java MolfileCreator 1.0

 26 30  0  0  0  0  0  0  0  0999 V2000
    0.0000   -0.0000   -0.0000 O   0  0  0  0  0  0  0  0  0  0  0  0
   -1.4218    0.4700   -0.0000 C   0  0  0  0  0  0  0  0  0  0  0  0
    0.8578    1.2103   -0.0000 C   0  0  0  0  0  0  0  0  0  0  0  0
   -1.4336    1.9741   -0.0000 C   0  0  0  0  0  0  0  0  0  0  0  0
   -2.7262   -0.2585   -0.0000 C   0  0  0  0  0  0  0  0  0  0  0  0
   -0.0235    2.4207   -0.0000 C   0  0  0  0  0  0  0  0  0  0  0  0
   -2.7379    2.7379   -0.0000 C   0  0  0  0  0  0  0  0  0  0  0  0
   -4.0305    0.4935   -0.0000 C   0  0  0  0  0  0  0  0  0  0  0  0
   -4.0423    1.9976   -0.0000 C   0  0  0  0  0  0  0  0  0  0  0  0
   -2.7497    4.2420   -0.0000 C   0  0  0  0  0  0  0  0  0  0  0  0
   -4.0540    4.9941   -0.0000 N   0  0  0  0  0  0  0  0  0  0  0  0
   -4.0658    6.4982   -0.0000 C   0  0  0  0  0  0  0  0  0  0  0  0
   -2.7849    7.2502   -0.0000 N   0  0  0  0  0  0  0  0  0  0  0  0
   -5.3701    7.2502   -0.0000 N   0  0  0  0  0  0  0  0  0  0  0  0
   -2.7967    8.7543   -0.0000 C   0  0  0  0  0  0  0  0  0  0  0  0
   -5.3818    8.7543   -0.0000 C   0  0  0  0  0  0  0  0  0  0  0  0
   -6.8037    6.8037   -0.0000 C   0  0  0  0  0  0  0  0  0  0  0  0
   -4.1010    9.5181   -0.0000 C   0  0  0  0  0  0  0  0  0  0  0  0
   -6.8154    9.2243   -0.0000 N   0  0  0  0  0  0  0  0  0  0  0  0
   -7.6967    8.0258   -0.0000 N   0  0  0  0  0  0  0  0  0  0  0  0
   -4.1128   11.0222   -0.0000 C   0  0  0  0  0  0  0  0  0  0  0  0
   -5.4171   11.7860   -0.0000 C   0  0  0  0  0  0  0  0  0  0  0  0
   -2.8319   11.7860   -0.0000 C   0  0  0  0  0  0  0  0  0  0  0  0
   -5.4288   13.2901   -0.0000 N   0  0  0  0  0  0  0  0  0  0  0  0
   -2.8554   13.2901   -0.0000 C   0  0  0  0  0  0  0  0  0  0  0  0
   -4.1480   14.0421   -0.0000 C   0  0  0  0  0  0  0  0  0  0  0  0
  1  2  1  0  0  0  0
  1  3  1  0  0  0  0
  2  4  2  0  0  0  0
  2  5  1  0  0  0  0
  3  6  1  0  0  0  0
  4  7  1  0  0  0  0
  5  8  2  0  0  0  0
  7  9  2  0  0  0  0
  7 10  1  0  0  0  0
 10 11  1  0  0  0  0
 11 12  1  0  0  0  0
 12 13  2  0  0  0  0
 12 14  1  0  0  0  0
 13 15  1  0  0  0  0
 14 16  1  0  0  0  0
 14 17  1  0  0  0  0
 15 18  2  0  0  0  0
 16 19  2  0  0  0  0
 17 20  2  0  0  0  0
 18 21  1  0  0  0  0
 21 22  2  0  0  0  0
 21 23  1  0  0  0  0
 22 24  1  0  0  0  0
 23 25  2  0  0  0  0
 24 26  2  0  0  0  0
  4  6  1  0  0  0  0
  8  9  1  0  0  0  0
 16 18  1  0  0  0  0
 19 20  1  0  0  0  0
 25 26  1  0  0  0  0
M  END
>  <MolRegNo>
2776558

>  <m>
=

>  <Value>
29000

>  <Unit>
nM

>  <Type>
IC50

>  <pValue>
4.54

>  <Ligand Efficiency>
0

>  <Binding Efficiency>
0

>  <Surface Efficiency>
0

>  <Assay Index>
1589107

>  <Assay Category>


>  <Assay Organism>
Homo sapiens

>  <Target ID>
17045

>  <Target Name>
Cytochrome P450 3A4

>  <Target Organism>
Homo sapiens

>  <Target Description>
Target is a single protein chain

>  <Sequence Accession>
P08684

>  <Reference>
J Med Chem 65 (7.0), 5317-5333 (2022)

>  <Pubmed ID>
35352560

>  <DOI>
10.1021/acs.jmedchem.1c02148

$$$$
2763866
Actelion Java MolfileCreator 1.0

 26 30  0  0  0  0  0  0  0  0999 V2000
    0.0000   -0.0000   -0.0000 O   0  0  0  0  0  0  0  0  0  0  0  0
   -1.4218    0.4700   -0.0000 C   0  0  0  0  0  0  0  0  0  0  0  0
    0.8578    1.2103   -0.0000 C   0  0  0  0  0  0  0  0  0  0  0  0
   -1.4336    1.9741   -0.0000 C   0  0  0  0  0  0  0  0  0  0  0  0
   -2.7262   -0.2585   -0.0000 C   0  0  0  0  0  0  0  0  0  0  0  0
   -0.0235    2.4207   -0.0000 C   0  0  0  0  0  0  0  0  0  0  0  0
   -2.7379    2.7379   -0.0000 C   0  0  0  0  0  0  0  0  0  0  0  0
   -4.0305    0.4935   -0.0000 C   0  0  0  0  0  0  0  0  0  0  0  0
   -4.0423    1.9976   -0.0000 C   0  0  0  0  0  0  0  0  0  0  0  0
   -2.7497    4.2420   -0.0000 C   0  0  0  0  0  0  0  0  0  0  0  0
   -4.0540    4.9941   -0.0000 N   0  0  0  0  0  0  0  0  0  0  0  0
   -4.0658    6.4982   -0.0000 C   0  0  0  0  0  0  0  0  0  0  0  0
   -2.7849    7.2502   -0.0000 N   0  0  0  0  0  0  0  0  0  0  0  0
   -5.3701    7.2502   -0.0000 N   0  0  0  0  0  0  0  0  0  0  0  0
   -2.7967    8.7543   -0.0000 C   0  0  0  0  0  0  0  0  0  0  0  0
   -5.3818    8.7543   -0.0000 C   0  0  0  0  0  0  0  0  0  0  0  0
   -6.8037    6.8037   -0.0000 C   0  0  0  0  0  0  0  0  0  0  0  0
   -4.1010    9.5181   -0.0000 C   0  0  0  0  0  0  0  0  0  0  0  0
   -6.8154    9.2243   -0.0000 N   0  0  0  0  0  0  0  0  0  0  0  0
   -7.6967    8.0258   -0.0000 N   0  0  0  0  0  0  0  0  0  0  0  0
   -4.1128   11.0222   -0.0000 C   0  0  0  0  0  0  0  0  0  0  0  0
   -5.4171   11.7860   -0.0000 C   0  0  0  0  0  0  0  0  0  0  0  0
   -2.8319   11.7860   -0.0000 C   0  0  0  0  0  0  0  0  0  0  0  0
   -5.4288   13.2901   -0.0000 C   0  0  0  0  0  0  0  0  0  0  0  0
   -2.8554   13.2901   -0.0000 C   0  0  0  0  0  0  0  0  0  0  0  0
   -4.1480   14.0421   -0.0000 N   0  0  0  0  0  0  0  0  0  0  0  0
  1  2  1  0  0  0  0
  1  3  1  0  0  0  0
  2  4  2  0  0  0  0
  2  5  1  0  0  0  0
  3  6  1  0  0  0  0
  4  7  1  0  0  0  0
  5  8  2  0  0  0  0
  7  9  2  0  0  0  0
  7 10  1  0  0  0  0
 10 11  1  0  0  0  0
 11 12  1  0  0  0  0
 12 13  2  0  0  0  0
 12 14  1  0  0  0  0
 13 15  1  0  0  0  0
 14 16  1  0  0  0  0
 14 17  1  0  0  0  0
 15 18  2  0  0  0  0
 16 19  2  0  0  0  0
 17 20  2  0  0  0  0
 18 21  1  0  0  0  0
 21 22  2  0  0  0  0
 21 23  1  0  0  0  0
 22 24  1  0  0  0  0
 23 25  2  0  0  0  0
 24 26  2  0  0  0  0
  4  6  1  0  0  0  0
  8  9  1  0  0  0  0
 16 18  1  0  0  0  0
 19 20  1  0  0  0  0
 25 26  1  0  0  0  0
M  END
>  <MolRegNo>
2763866

>  <m>
=

>  <Value>
160

>  <Unit>
nM

>  <Type>
IC50

>  <pValue>
6.8

>  <Ligand Efficiency>
0

>  <Binding Efficiency>
0

>  <Surface Efficiency>
0

>  <Assay Index>
1589107

>  <Assay Category>


>  <Assay Organism>
Homo sapiens

>  <Target ID>
17045

>  <Target Name>
Cytochrome P450 3A4

>  <Target Organism>
Homo sapiens

>  <Target Description>
Target is a single protein chain

>  <Sequence Accession>
P08684

>  <Reference>
J Med Chem 65 (7.0), 5317-5333 (2022)

>  <Pubmed ID>
35352560

>  <DOI>
10.1021/acs.jmedchem.1c02148

$$$$
2775252
Actelion Java MolfileCreator 1.0

 27 30  0  0  0  0  0  0  0  0999 V2000
    0.0000   -0.0000   -0.0000 S   0  0  0  0  0  0  0  0  0  0  0  0
   -0.7611    1.3200   -0.0000 O   0  0  0  0  0  0  0  0  0  0  0  0
   -1.5222    0.0119   -0.0000 O   0  0  0  0  0  0  0  0  0  0  0  0
   -0.0119   -1.4865   -0.0000 N   0  0  0  0  0  0  0  0  0  0  0  0
    1.2962    0.7611   -0.0000 C   0  0  0  0  0  0  0  0  0  0  0  0
   -1.3319   -2.2238   -0.0000 C   0  0  0  0  0  0  0  0  0  0  0  0
    1.2843   -2.2238   -0.0000 C   0  0  0  0  0  0  0  0  0  0  0  0
    2.5925    0.0238   -0.0000 C   0  0  0  0  0  0  0  0  0  0  0  0
    1.2843    2.2833   -0.0000 C   0  0  0  0  0  0  0  0  0  0  0  0
   -1.3438   -3.7222   -0.0000 C   0  0  0  0  0  0  0  0  0  0  0  0
    1.2725   -3.7222   -0.0000 C   0  0  0  0  0  0  0  0  0  0  0  0
    3.8768    0.7849   -0.0000 C   0  0  0  0  0  0  0  0  0  0  0  0
    2.5806    3.0444   -0.0000 C   0  0  0  0  0  0  0  0  0  0  0  0
   -2.6638   -4.4595   -0.0000 F   0  0  0  0  0  0  0  0  0  0  0  0
   -0.0476   -4.4595   -0.0000 C   0  0  0  0  0  0  0  0  0  0  0  0
    3.8649    2.2952   -0.0000 C   0  0  0  0  0  0  0  0  0  0  0  0
    5.2920    0.3330   -0.0000 C   0  0  0  0  0  0  0  0  0  0  0  0
   -0.0595   -5.9579   -0.0000 C   0  0  0  0  0  0  0  0  0  0  0  0
    5.2801    2.7709   -0.0000 O   0  0  0  0  0  0  0  0  0  0  0  0
    6.1601    1.5579   -0.0000 C   0  0  0  0  0  0  0  0  0  0  0  0
   -1.3795   -6.6952   -0.0000 S   0  0  0  0  0  0  0  0  0  0  0  0
   -1.3914   -8.1936   -0.0000 C   0  0  0  0  0  0  0  0  0  0  0  0
   -2.6163   -9.0618   -0.0000 N   0  0  0  0  0  0  0  0  0  0  0  0
   -0.1903   -9.0618   -0.0000 N   0  0  0  0  0  0  0  0  0  0  0  0
   -2.1644  -10.4769   -0.0000 C   0  0  0  0  0  0  0  0  0  0  0  0
   -0.6660  -10.4769   -0.0000 C   0  0  0  0  0  0  0  0  0  0  0  0
    1.2487   -8.6574   -0.0000 C   0  0  0  0  0  0  0  0  0  0  0  0
  1  2  2  0  0  0  0
  1  3  2  0  0  0  0
  1  4  1  0  0  0  0
  1  5  1  0  0  0  0
  4  6  1  0  0  0  0
  4  7  1  0  0  0  0
  5  8  2  0  0  0  0
  5  9  1  0  0  0  0
  6 10  1  0  0  0  0
  7 11  1  0  0  0  0
  8 12  1  0  0  0  0
  9 13  2  0  0  0  0
 10 14  1  1  0  0  0
 10 15  1  0  0  0  0
 12 16  2  0  0  0  0
 12 17  1  0  0  0  0
 15 18  1  6  0  0  0
 16 19  1  0  0  0  0
 17 20  1  0  0  0  0
 18 21  1  0  0  0  0
 21 22  1  0  0  0  0
 22 23  2  0  0  0  0
 22 24  1  0  0  0  0
 23 25  1  0  0  0  0
 24 26  1  0  0  0  0
 24 27  1  0  0  0  0
 11 15  1  0  0  0  0
 13 16  1  0  0  0  0
 19 20  1  0  0  0  0
 25 26  2  0  0  0  0
M  END
>  <MolRegNo>
2775252

>  <m>
=

>  <Value>
8100

>  <Unit>
nM

>  <Type>
IC50

>  <pValue>
5.09

>  <Ligand Efficiency>
0

>  <Binding Efficiency>
0

>  <Surface Efficiency>
0

>  <Assay Index>
1590401

>  <Assay Category>


>  <Assay Organism>
Homo sapiens

>  <Target ID>
17045

>  <Target Name>
Cytochrome P450 3A4

>  <Target Organism>
Homo sapiens

>  <Target Description>
Target is a single protein chain

>  <Sequence Accession>
P08684

>  <Reference>
J Med Chem 65 (8.0), 6273-6286 (2022)

>  <Pubmed ID>
35417155

>  <DOI>
10.1021/acs.jmedchem.2c00192

$$$$
2778136
Actelion Java MolfileCreator 1.0

 33 36  0  0  0  0  0  0  0  0999 V2000
    0.0000   -0.0000   -0.0000 Cl  0  0  0  0  0  0  0  0  0  0  0  0
    1.2835    0.7606   -0.0000 C   0  0  0  0  0  0  0  0  0  0  0  0
    2.5789    0.0238   -0.0000 C   0  0  0  0  0  0  0  0  0  0  0  0
    1.2716    2.2818   -0.0000 C   0  0  0  0  0  0  0  0  0  0  0  0
    3.8624    0.7844   -0.0000 C   0  0  0  0  0  0  0  0  0  0  0  0
    2.5670    3.0424   -0.0000 C   0  0  0  0  0  0  0  0  0  0  0  0
    3.8506    2.3056   -0.0000 C   0  0  0  0  0  0  0  0  0  0  0  0
    5.1341    3.0662   -0.0000 C   0  0  0  0  0  0  0  0  0  0  0  0
    6.4176    2.3293   -0.0000 C   0  0  0  0  0  0  0  0  0  0  0  0
    5.1222    4.5755   -0.0000 C   0  0  0  0  0  0  0  0  0  0  0  0
    7.7011    3.0900   -0.0000 O   0  0  0  0  0  0  0  0  0  0  0  0
    6.4057    0.8438   -0.0000 N   0  0  0  0  0  0  0  0  0  0  0  0
    3.8149    5.3361   -0.0000 N   0  0  0  0  0  0  0  0  0  0  0  0
    5.0865    0.1070   -0.0000 C   0  0  0  0  0  0  0  0  0  0  0  0
    7.7011    0.1070   -0.0000 C   0  0  0  0  0  0  0  0  0  0  0  0
    3.8030    6.8454   -0.0000 C   0  0  0  0  0  0  0  0  0  0  0  0
    5.0747   -1.3905   -0.0000 C   0  0  0  0  0  0  0  0  0  0  0  0
    7.6892   -1.3905   -0.0000 C   0  0  0  0  0  0  0  0  0  0  0  0
    2.4957    7.6060   -0.0000 C   0  0  0  0  0  0  0  0  0  0  0  0
    5.0865    7.6060   -0.0000 C   0  0  0  0  0  0  0  0  0  0  0  0
    6.3701   -2.1392   -0.0000 N   0  0  0  0  0  0  0  0  0  0  0  0
    6.3582   -3.6248   -0.0000 C   0  0  0  0  0  0  0  0  0  0  0  0
    5.0390   -4.3616   -0.0000 N   0  0  0  0  0  0  0  0  0  0  0  0
    7.6536   -4.3616   -0.0000 C   0  0  0  0  0  0  0  0  0  0  0  0
    5.0271   -5.8590   -0.0000 C   0  0  0  0  0  0  0  0  0  0  0  0
    7.6417   -5.8590   -0.0000 C   0  0  0  0  0  0  0  0  0  0  0  0
    8.9490   -3.6010   -0.0000 C   0  0  0  0  0  0  0  0  0  0  0  0
    6.3225   -6.6077   -0.0000 N   0  0  0  0  0  0  0  0  0  0  0  0
    8.9371   -6.6077   -0.0000 N   0  0  0  0  0  0  0  0  0  0  0  0
   10.2444   -4.3497   -0.0000 C   0  0  0  0  0  0  0  0  0  0  0  0
    8.9371   -2.0798   -0.0000 C   0  0  0  0  0  0  0  0  0  0  0  0
   10.2325   -5.8471   -0.0000 C   0  0  0  0  0  0  0  0  0  0  0  0
   11.5279   -6.5959   -0.0000 O   0  0  0  0  0  0  0  0  0  0  0  0
  1  2  1  0  0  0  0
  2  3  2  0  0  0  0
  2  4  1  0  0  0  0
  3  5  1  0  0  0  0
  4  6  2  0  0  0  0
  5  7  2  0  0  0  0
  7  8  1  0  0  0  0
  8  9  1  0  0  0  0
  8 10  1  6  0  0  0
  9 11  2  0  0  0  0
  9 12  1  0  0  0  0
 10 13  1  0  0  0  0
 12 14  1  0  0  0  0
 12 15  1  0  0  0  0
 13 16  1  0  0  0  0
 14 17  1  0  0  0  0
 15 18  1  0  0  0  0
 16 19  1  0  0  0  0
 16 20  1  0  0  0  0
 17 21  1  0  0  0  0
 21 22  1  0  0  0  0
 22 23  2  0  0  0  0
 22 24  1  0  0  0  0
 23 25  1  0  0  0  0
 24 26  2  0  0  0  0
 24 27  1  0  0  0  0
 25 28  2  0  0  0  0
 26 29  1  0  0  0  0
 27 30  1  0  0  0  0
 27 31  1  1  0  0  0
 29 32  1  0  0  0  0
 32 33  2  0  0  0  0
  6  7  1  0  0  0  0
 18 21  1  0  0  0  0
 26 28  1  0  0  0  0
 30 32  1  0  0  0  0
M  END
>  <MolRegNo>
2778136

>  <m>
=

>  <Value>
39200

>  <Unit>
nM

>  <Type>
IC50

>  <pValue>
4.41

>  <Ligand Efficiency>
0

>  <Binding Efficiency>
0

>  <Surface Efficiency>
0

>  <Assay Index>
1594556

>  <Assay Category>


>  <Assay Organism>
Homo sapiens

>  <Target ID>
17045

>  <Target Name>
Cytochrome P450 3A4

>  <Target Organism>
Homo sapiens

>  <Target Description>
Target is a single protein chain

>  <Sequence Accession>
P08684

>  <Reference>
J Med Chem 65 (12.0), 8144-8168 (2022)

>  <Pubmed ID>
35679512

>  <DOI>
10.1021/acs.jmedchem.2c00527

$$$$
2740658
Actelion Java MolfileCreator 1.0

 34 38  0  0  0  0  0  0  0  0999 V2000
    0.0000   -0.0000   -0.0000 Cl  0  0  0  0  0  0  0  0  0  0  0  0
    1.2853    0.7616   -0.0000 C   0  0  0  0  0  0  0  0  0  0  0  0
    2.5825    0.0357   -0.0000 C   0  0  0  0  0  0  0  0  0  0  0  0
    1.2734    2.2849   -0.0000 C   0  0  0  0  0  0  0  0  0  0  0  0
    3.8677    0.7973   -0.0000 C   0  0  0  0  0  0  0  0  0  0  0  0
    2.5706    3.0466   -0.0000 C   0  0  0  0  0  0  0  0  0  0  0  0
    3.8558    2.3206   -0.0000 C   0  0  0  0  0  0  0  0  0  0  0  0
    5.1411    3.0823   -0.0000 C   0  0  0  0  0  0  0  0  0  0  0  0
    6.4264    2.3444   -0.0000 C   0  0  0  0  0  0  0  0  0  0  0  0
    5.1292    4.5937   -0.0000 C   0  0  0  0  0  0  0  0  0  0  0  0
    7.7117    3.1061   -0.0000 O   0  0  0  0  0  0  0  0  0  0  0  0
    6.4145    0.8569   -0.0000 N   0  0  0  0  0  0  0  0  0  0  0  0
    6.4145    5.3553   -0.0000 N   0  0  0  0  0  0  0  0  0  0  0  0
    7.7117    0.1190   -0.0000 C   0  0  0  0  0  0  0  0  0  0  0  0
    5.0935    0.1190   -0.0000 C   0  0  0  0  0  0  0  0  0  0  0  0
    6.4026    6.8667   -0.0000 C   0  0  0  0  0  0  0  0  0  0  0  0
    7.6998   -1.3805   -0.0000 C   0  0  0  0  0  0  0  0  0  0  0  0
    9.0088   -0.6188   -0.0000 C   0  0  0  0  0  0  0  0  0  0  0  0
    5.0816   -1.3805   -0.0000 C   0  0  0  0  0  0  0  0  0  0  0  0
    7.6879    7.6284   -0.0000 C   0  0  0  0  0  0  0  0  0  0  0  0
    5.0935    7.6284   -0.0000 C   0  0  0  0  0  0  0  0  0  0  0  0
    6.3788   -2.1302   -0.0000 N   0  0  0  0  0  0  0  0  0  0  0  0
    6.3669   -3.6178   -0.0000 C   0  0  0  0  0  0  0  0  0  0  0  0
    5.0459   -4.3676   -0.0000 N   0  0  0  0  0  0  0  0  0  0  0  0
    7.6641   -4.3676   -0.0000 C   0  0  0  0  0  0  0  0  0  0  0  0
    5.0340   -5.8670   -0.0000 C   0  0  0  0  0  0  0  0  0  0  0  0
    7.6522   -5.8670   -0.0000 C   0  0  0  0  0  0  0  0  0  0  0  0
    8.9493   -3.5940   -0.0000 C   0  0  0  0  0  0  0  0  0  0  0  0
    6.3312   -6.6049   -0.0000 N   0  0  0  0  0  0  0  0  0  0  0  0
    8.9374   -6.6049   -0.0000 N   0  0  0  0  0  0  0  0  0  0  0  0
   10.2465   -4.3438   -0.0000 C   0  0  0  0  0  0  0  0  0  0  0  0
    8.9374   -2.0826   -0.0000 C   0  0  0  0  0  0  0  0  0  0  0  0
   10.2346   -5.8432   -0.0000 C   0  0  0  0  0  0  0  0  0  0  0  0
   11.5199   -6.5811   -0.0000 O   0  0  0  0  0  0  0  0  0  0  0  0
  1  2  1  0  0  0  0
  2  3  2  0  0  0  0
  2  4  1  0  0  0  0
  3  5  1  0  0  0  0
  4  6  2  0  0  0  0
  5  7  2  0  0  0  0
  7  8  1  0  0  0  0
  8  9  1  0  0  0  0
  8 10  1  6  0  0  0
  9 11  2  0  0  0  0
  9 12  1  0  0  0  0
 10 13  1  0  0  0  0
 12 14  1  0  0  0  0
 12 15  1  0  0  0  0
 13 16  1  0  0  0  0
 14 17  1  0  0  0  0
 14 18  1  1  0  0  0
 15 19  1  0  0  0  0
 16 20  1  0  0  0  0
 16 21  1  0  0  0  0
 17 22  1  0  0  0  0
 22 23  1  0  0  0  0
 23 24  2  0  0  0  0
 23 25  1  0  0  0  0
 24 26  1  0  0  0  0
 25 27  2  0  0  0  0
 25 28  1  0  0  0  0
 26 29  2  0  0  0  0
 27 30  1  0  0  0  0
 28 31  1  0  0  0  0
 28 32  1  1  0  0  0
 30 33  1  0  0  0  0
 33 34  2  0  0  0  0
  6  7  1  0  0  0  0
 17 18  1  1  0  0  0
 19 22  1  0  0  0  0
 27 29  1  0  0  0  0
 31 33  1  0  0  0  0
M  END
>  <MolRegNo>
2740658

>  <m>
=

>  <Value>
15200

>  <Unit>
nM

>  <Type>
IC50

>  <pValue>
4.82

>  <Ligand Efficiency>
0

>  <Binding Efficiency>
0

>  <Surface Efficiency>
0

>  <Assay Index>
1594556

>  <Assay Category>


>  <Assay Organism>
Homo sapiens

>  <Target ID>
17045

>  <Target Name>
Cytochrome P450 3A4

>  <Target Organism>
Homo sapiens

>  <Target Description>
Target is a single protein chain

>  <Sequence Accession>
P08684

>  <Reference>
J Med Chem 65 (12.0), 8144-8168 (2022)

>  <Pubmed ID>
35679512

>  <DOI>
10.1021/acs.jmedchem.2c00527

$$$$
2753677
Actelion Java MolfileCreator 1.0

 34 39  0  0  0  0  0  0  0  0999 V2000
    0.0000   -0.0000   -0.0000 Cl  0  0  0  0  0  0  0  0  0  0  0  0
    1.2849    0.7614   -0.0000 C   0  0  0  0  0  0  0  0  0  0  0  0
    2.5816    0.0357   -0.0000 C   0  0  0  0  0  0  0  0  0  0  0  0
    1.2730    2.2842   -0.0000 C   0  0  0  0  0  0  0  0  0  0  0  0
    3.8665    0.7971   -0.0000 C   0  0  0  0  0  0  0  0  0  0  0  0
    2.5697    3.0456   -0.0000 C   0  0  0  0  0  0  0  0  0  0  0  0
    3.8546    2.3199   -0.0000 C   0  0  0  0  0  0  0  0  0  0  0  0
    5.1395    3.0813   -0.0000 C   0  0  0  0  0  0  0  0  0  0  0  0
    6.4243    2.3437   -0.0000 C   0  0  0  0  0  0  0  0  0  0  0  0
    5.1276    4.5922   -0.0000 C   0  0  0  0  0  0  0  0  0  0  0  0
    7.7092    3.1051   -0.0000 O   0  0  0  0  0  0  0  0  0  0  0  0
    6.4124    0.8566   -0.0000 N   0  0  0  0  0  0  0  0  0  0  0  0
    6.4124    5.3536   -0.0000 N   0  0  0  0  0  0  0  0  0  0  0  0
    7.7092    0.1190   -0.0000 C   0  0  0  0  0  0  0  0  0  0  0  0
    5.0919    0.1190   -0.0000 C   0  0  0  0  0  0  0  0  0  0  0  0
    6.4005    6.8645   -0.0000 C   0  0  0  0  0  0  0  0  0  0  0  0
    7.6973   -1.3800   -0.0000 C   0  0  0  0  0  0  0  0  0  0  0  0
    9.0060   -0.6186   -0.0000 C   0  0  0  0  0  0  0  0  0  0  0  0
    5.0800   -1.3800   -0.0000 C   0  0  0  0  0  0  0  0  0  0  0  0
    5.6391    8.1732   -0.0000 C   0  0  0  0  0  0  0  0  0  0  0  0
    7.1382    8.1851   -0.0000 C   0  0  0  0  0  0  0  0  0  0  0  0
    6.3767   -2.1295   -0.0000 N   0  0  0  0  0  0  0  0  0  0  0  0
    6.3649   -3.6167   -0.0000 C   0  0  0  0  0  0  0  0  0  0  0  0
    5.0443   -4.3662   -0.0000 N   0  0  0  0  0  0  0  0  0  0  0  0
    7.6616   -4.3662   -0.0000 C   0  0  0  0  0  0  0  0  0  0  0  0
    5.0324   -5.8652   -0.0000 C   0  0  0  0  0  0  0  0  0  0  0  0
    7.6497   -5.8652   -0.0000 C   0  0  0  0  0  0  0  0  0  0  0  0
    8.9465   -3.5929   -0.0000 C   0  0  0  0  0  0  0  0  0  0  0  0
    6.3292   -6.6028   -0.0000 N   0  0  0  0  0  0  0  0  0  0  0  0
    8.9346   -6.6028   -0.0000 N   0  0  0  0  0  0  0  0  0  0  0  0
   10.2432   -4.3424   -0.0000 C   0  0  0  0  0  0  0  0  0  0  0  0
    8.9346   -2.0820   -0.0000 C   0  0  0  0  0  0  0  0  0  0  0  0
   10.2313   -5.8414   -0.0000 C   0  0  0  0  0  0  0  0  0  0  0  0
   11.5162   -6.5790   -0.0000 O   0  0  0  0  0  0  0  0  0  0  0  0
  1  2  1  0  0  0  0
  2  3  2  0  0  0  0
  2  4  1  0  0  0  0
  3  5  1  0  0  0  0
  4  6  2  0  0  0  0
  5  7  2  0  0  0  0
  7  8  1  0  0  0  0
  8  9  1  0  0  0  0
  8 10  1  6  0  0  0
  9 11  2  0  0  0  0
  9 12  1  0  0  0  0
 10 13  1  0  0  0  0
 12 14  1  0  0  0  0
 12 15  1  0  0  0  0
 13 16  1  0  0  0  0
 14 17  1  0  0  0  0
 14 18  1  1  0  0  0
 15 19  1  0  0  0  0
 16 20  1  0  0  0  0
 16 21  1  0  0  0  0
 17 22  1  0  0  0  0
 22 23  1  0  0  0  0
 23 24  2  0  0  0  0
 23 25  1  0  0  0  0
 24 26  1  0  0  0  0
 25 27  2  0  0  0  0
 25 28  1  0  0  0  0
 26 29  2  0  0  0  0
 27 30  1  0  0  0  0
 28 31  1  0  0  0  0
 28 32  1  1  0  0  0
 30 33  1  0  0  0  0
 33 34  2  0  0  0  0
  6  7  1  0  0  0  0
 17 18  1  1  0  0  0
 19 22  1  0  0  0  0
 20 21  1  0  0  0  0
 27 29  1  0  0  0  0
 31 33  1  0  0  0  0
M  END
>  <MolRegNo>
2753677

>  <m>
=

>  <Value>
1090

>  <Unit>
nM

>  <Type>
IC50

>  <pValue>
5.96

>  <Ligand Efficiency>
0

>  <Binding Efficiency>
0

>  <Surface Efficiency>
0

>  <Assay Index>
1594556

>  <Assay Category>


>  <Assay Organism>
Homo sapiens

>  <Target ID>
17045

>  <Target Name>
Cytochrome P450 3A4

>  <Target Organism>
Homo sapiens

>  <Target Description>
Target is a single protein chain

>  <Sequence Accession>
P08684

>  <Reference>
J Med Chem 65 (12.0), 8144-8168 (2022)

>  <Pubmed ID>
35679512

>  <DOI>
10.1021/acs.jmedchem.2c00527

$$$$
2770430
Actelion Java MolfileCreator 1.0

 37 43  0  0  0  0  0  0  0  0999 V2000
    0.0000   -0.0000   -0.0000 Cl  0  0  0  0  0  0  0  0  0  0  0  0
    1.2843    0.7610   -0.0000 C   0  0  0  0  0  0  0  0  0  0  0  0
    2.5804    0.0357   -0.0000 C   0  0  0  0  0  0  0  0  0  0  0  0
    1.2724    2.2831   -0.0000 C   0  0  0  0  0  0  0  0  0  0  0  0
    3.8647    0.7967   -0.0000 C   0  0  0  0  0  0  0  0  0  0  0  0
    2.5685    3.0442   -0.0000 C   0  0  0  0  0  0  0  0  0  0  0  0
    3.8528    2.3188   -0.0000 C   0  0  0  0  0  0  0  0  0  0  0  0
    5.1370    3.0798   -0.0000 C   0  0  0  0  0  0  0  0  0  0  0  0
    6.4213    2.3426   -0.0000 C   0  0  0  0  0  0  0  0  0  0  0  0
    5.1251    4.5900   -0.0000 C   0  0  0  0  0  0  0  0  0  0  0  0
    7.7056    3.1036   -0.0000 O   0  0  0  0  0  0  0  0  0  0  0  0
    6.4094    0.8562   -0.0000 N   0  0  0  0  0  0  0  0  0  0  0  0
    6.4094    5.3511   -0.0000 N   0  0  0  0  0  0  0  0  0  0  0  0
    7.7056    0.1189   -0.0000 C   0  0  0  0  0  0  0  0  0  0  0  0
    5.0895    0.1189   -0.0000 C   0  0  0  0  0  0  0  0  0  0  0  0
    6.3975    6.8613   -0.0000 C   0  0  0  0  0  0  0  0  0  0  0  0
    7.6937   -1.3794   -0.0000 C   0  0  0  0  0  0  0  0  0  0  0  0
    9.0017   -0.6183   -0.0000 C   0  0  0  0  0  0  0  0  0  0  0  0
    5.0776   -1.3794   -0.0000 C   0  0  0  0  0  0  0  0  0  0  0  0
    5.6365    8.1693   -0.0000 C   0  0  0  0  0  0  0  0  0  0  0  0
    7.1348    8.1812   -0.0000 C   0  0  0  0  0  0  0  0  0  0  0  0
    6.3737   -2.1285   -0.0000 N   0  0  0  0  0  0  0  0  0  0  0  0
    5.1608    9.6082   -0.0000 C   0  0  0  0  0  0  0  0  0  0  0  0
    7.5866    9.6201   -0.0000 C   0  0  0  0  0  0  0  0  0  0  0  0
    6.3618   -3.6150   -0.0000 C   0  0  0  0  0  0  0  0  0  0  0  0
    6.3618   10.5000   -0.0000 O   0  0  0  0  0  0  0  0  0  0  0  0
    5.0419   -4.3641   -0.0000 N   0  0  0  0  0  0  0  0  0  0  0  0
    7.6580   -4.3641   -0.0000 C   0  0  0  0  0  0  0  0  0  0  0  0
    5.0300   -5.8624   -0.0000 C   0  0  0  0  0  0  0  0  0  0  0  0
    7.6461   -5.8624   -0.0000 C   0  0  0  0  0  0  0  0  0  0  0  0
    8.9423   -3.5912   -0.0000 C   0  0  0  0  0  0  0  0  0  0  0  0
    6.3262   -6.5997   -0.0000 N   0  0  0  0  0  0  0  0  0  0  0  0
    8.9304   -6.5997   -0.0000 N   0  0  0  0  0  0  0  0  0  0  0  0
   10.2384   -4.3403   -0.0000 C   0  0  0  0  0  0  0  0  0  0  0  0
    8.9304   -2.0810   -0.0000 C   0  0  0  0  0  0  0  0  0  0  0  0
   10.2265   -5.8386   -0.0000 C   0  0  0  0  0  0  0  0  0  0  0  0
   11.5108   -6.5759   -0.0000 O   0  0  0  0  0  0  0  0  0  0  0  0
  1  2  1  0  0  0  0
  2  3  2  0  0  0  0
  2  4  1  0  0  0  0
  3  5  1  0  0  0  0
  4  6  2  0  0  0  0
  5  7  2  0  0  0  0
  7  8  1  0  0  0  0
  8  9  1  0  0  0  0
  8 10  1  6  0  0  0
  9 11  2  0  0  0  0
  9 12  1  0  0  0  0
 10 13  1  0  0  0  0
 12 14  1  0  0  0  0
 12 15  1  0  0  0  0
 13 16  1  0  0  0  0
 14 17  1  0  0  0  0
 14 18  1  1  0  0  0
 15 19  1  0  0  0  0
 16 20  1  0  0  0  0
 16 21  1  0  0  0  0
 17 22  1  0  0  0  0
 20 23  1  0  0  0  0
 21 24  1  0  0  0  0
 22 25  1  0  0  0  0
 23 26  1  0  0  0  0
 25 27  2  0  0  0  0
 25 28  1  0  0  0  0
 27 29  1  0  0  0  0
 28 30  2  0  0  0  0
 28 31  1  0  0  0  0
 29 32  2  0  0  0  0
 30 33  1  0  0  0  0
 31 34  1  0  0  0  0
 31 35  1  1  0  0  0
 33 36  1  0  0  0  0
 36 37  2  0  0  0  0
  6  7  1  0  0  0  0
 17 18  1  1  0  0  0
 19 22  1  0  0  0  0
 20 21  1  0  0  0  0
 24 26  1  0  0  0  0
 30 32  1  0  0  0  0
 34 36  1  0  0  0  0
M  END
>  <MolRegNo>
2770430

>  <m>
=

>  <Value>
4330

>  <Unit>
nM

>  <Type>
IC50

>  <pValue>
5.36

>  <Ligand Efficiency>
0

>  <Binding Efficiency>
0

>  <Surface Efficiency>
0

>  <Assay Index>
1594556

>  <Assay Category>


>  <Assay Organism>
Homo sapiens

>  <Target ID>
17045

>  <Target Name>
Cytochrome P450 3A4

>  <Target Organism>
Homo sapiens

>  <Target Description>
Target is a single protein chain

>  <Sequence Accession>
P08684

>  <Reference>
J Med Chem 65 (12.0), 8144-8168 (2022)

>  <Pubmed ID>
35679512

>  <DOI>
10.1021/acs.jmedchem.2c00527

$$$$
2764556
Actelion Java MolfileCreator 1.0

 39 44  0  0  0  0  0  0  0  0999 V2000
    0.0000   -0.0000   -0.0000 Cl  0  0  0  0  0  0  0  0  0  0  0  0
    1.2846    0.7612   -0.0000 C   0  0  0  0  0  0  0  0  0  0  0  0
    2.5810    0.0357   -0.0000 C   0  0  0  0  0  0  0  0  0  0  0  0
    1.2727    2.2837   -0.0000 C   0  0  0  0  0  0  0  0  0  0  0  0
    3.8656    0.7969   -0.0000 C   0  0  0  0  0  0  0  0  0  0  0  0
    2.5691    3.0449   -0.0000 C   0  0  0  0  0  0  0  0  0  0  0  0
    3.8537    2.3193   -0.0000 C   0  0  0  0  0  0  0  0  0  0  0  0
    5.1382    3.0806   -0.0000 C   0  0  0  0  0  0  0  0  0  0  0  0
    6.4228    2.3431   -0.0000 C   0  0  0  0  0  0  0  0  0  0  0  0
    5.1264    4.5911   -0.0000 C   0  0  0  0  0  0  0  0  0  0  0  0
    7.7074    3.1044   -0.0000 O   0  0  0  0  0  0  0  0  0  0  0  0
    6.4109    0.8564   -0.0000 N   0  0  0  0  0  0  0  0  0  0  0  0
    6.4109    5.3523   -0.0000 N   0  0  0  0  0  0  0  0  0  0  0  0
    7.7074    0.1189   -0.0000 C   0  0  0  0  0  0  0  0  0  0  0  0
    5.1026    0.1189   -0.0000 C   0  0  0  0  0  0  0  0  0  0  0  0
    6.3990    6.8629   -0.0000 C   0  0  0  0  0  0  0  0  0  0  0  0
    7.6955   -1.3797   -0.0000 C   0  0  0  0  0  0  0  0  0  0  0  0
    9.0038   -0.6185   -0.0000 C   0  0  0  0  0  0  0  0  0  0  0  0
    5.0907   -1.3797   -0.0000 C   0  0  0  0  0  0  0  0  0  0  0  0
    5.0907    7.6241   -0.0000 C   0  0  0  0  0  0  0  0  0  0  0  0
    7.6836    7.6241   -0.0000 C   0  0  0  0  0  0  0  0  0  0  0  0
    6.3752   -2.1290   -0.0000 N   0  0  0  0  0  0  0  0  0  0  0  0
    5.0788    9.1347   -0.0000 C   0  0  0  0  0  0  0  0  0  0  0  0
    7.6717    9.1347   -0.0000 C   0  0  0  0  0  0  0  0  0  0  0  0
    6.3633   -3.6158   -0.0000 C   0  0  0  0  0  0  0  0  0  0  0  0
    6.3633    9.8959   -0.0000 C   0  0  0  0  0  0  0  0  0  0  0  0
    5.0431   -4.3651   -0.0000 N   0  0  0  0  0  0  0  0  0  0  0  0
    7.6598   -4.3651   -0.0000 C   0  0  0  0  0  0  0  0  0  0  0  0
    6.3514   11.4064   -0.0000 O   0  0  0  0  0  0  0  0  0  0  0  0
    5.0312   -5.8638   -0.0000 C   0  0  0  0  0  0  0  0  0  0  0  0
    7.6479   -5.8638   -0.0000 C   0  0  0  0  0  0  0  0  0  0  0  0
    8.9444   -3.5920   -0.0000 C   0  0  0  0  0  0  0  0  0  0  0  0
    5.0431   12.1677   -0.0000 C   0  0  0  0  0  0  0  0  0  0  0  0
    6.3277   -6.6012   -0.0000 N   0  0  0  0  0  0  0  0  0  0  0  0
    8.9325   -6.6012   -0.0000 N   0  0  0  0  0  0  0  0  0  0  0  0
   10.2408   -4.3413   -0.0000 C   0  0  0  0  0  0  0  0  0  0  0  0
    8.9325   -2.0815   -0.0000 C   0  0  0  0  0  0  0  0  0  0  0  0
   10.2289   -5.8400   -0.0000 C   0  0  0  0  0  0  0  0  0  0  0  0
   11.5135   -6.5774   -0.0000 O   0  0  0  0  0  0  0  0  0  0  0  0
  1  2  1  0  0  0  0
  2  3  2  0  0  0  0
  2  4  1  0  0  0  0
  3  5  1  0  0  0  0
  4  6  2  0  0  0  0
  5  7  2  0  0  0  0
  7  8  1  0  0  0  0
  8  9  1  0  0  0  0
  8 10  1  6  0  0  0
  9 11  2  0  0  0  0
  9 12  1  0  0  0  0
 10 13  1  0  0  0  0
 12 14  1  0  0  0  0
 12 15  1  0  0  0  0
 13 16  1  0  0  0  0
 14 17  1  0  0  0  0
 14 18  1  1  0  0  0
 15 19  1  0  0  0  0
 16 20  1  0  0  0  0
 16 21  1  0  0  0  0
 17 22  1  0  0  0  0
 20 23  1  0  0  0  0
 21 24  1  0  0  0  0
 22 25  1  0  0  0  0
 23 26  1  0  0  0  0
 25 27  2  0  0  0  0
 25 28  1  0  0  0  0
 26 29  1  0  0  0  0
 27 30  1  0  0  0  0
 28 31  2  0  0  0  0
 28 32  1  0  0  0  0
 29 33  1  0  0  0  0
 30 34  2  0  0  0  0
 31 35  1  0  0  0  0
 32 36  1  0  0  0  0
 32 37  1  1  0  0  0
 35 38  1  0  0  0  0
 38 39  2  0  0  0  0
  6  7  1  0  0  0  0
 17 18  1  1  0  0  0
 19 22  1  0  0  0  0
 24 26  1  0  0  0  0
 31 34  1  0  0  0  0
 36 38  1  0  0  0  0
M  END
>  <MolRegNo>
2764556

>  <m>
=

>  <Value>
1810

>  <Unit>
nM

>  <Type>
IC50

>  <pValue>
5.74

>  <Ligand Efficiency>
0

>  <Binding Efficiency>
0

>  <Surface Efficiency>
0

>  <Assay Index>
1594556

>  <Assay Category>


>  <Assay Organism>
Homo sapiens

>  <Target ID>
17045

>  <Target Name>
Cytochrome P450 3A4

>  <Target Organism>
Homo sapiens

>  <Target Description>
Target is a single protein chain

>  <Sequence Accession>
P08684

>  <Reference>
J Med Chem 65 (12.0), 8144-8168 (2022)

>  <Pubmed ID>
35679512

>  <DOI>
10.1021/acs.jmedchem.2c00527

$$$$
2758739
Actelion Java MolfileCreator 1.0

 31 35  0  0  0  0  0  0  0  0999 V2000
    0.0000   -0.0000   -0.0000 Cl  0  0  0  0  0  0  0  0  0  0  0  0
    1.2863    0.7622   -0.0000 C   0  0  0  0  0  0  0  0  0  0  0  0
    2.5845    0.0357   -0.0000 C   0  0  0  0  0  0  0  0  0  0  0  0
    1.2744    2.2867   -0.0000 C   0  0  0  0  0  0  0  0  0  0  0  0
    3.8707    0.7980   -0.0000 C   0  0  0  0  0  0  0  0  0  0  0  0
    2.5725    3.0489   -0.0000 C   0  0  0  0  0  0  0  0  0  0  0  0
    3.8588    2.3224   -0.0000 C   0  0  0  0  0  0  0  0  0  0  0  0
    5.1451    3.0847   -0.0000 C   0  0  0  0  0  0  0  0  0  0  0  0
    6.4314    2.3463   -0.0000 C   0  0  0  0  0  0  0  0  0  0  0  0
    5.1332    4.5972   -0.0000 C   0  0  0  0  0  0  0  0  0  0  0  0
    7.7176    3.1085   -0.0000 O   0  0  0  0  0  0  0  0  0  0  0  0
    6.4194    0.8575   -0.0000 N   0  0  0  0  0  0  0  0  0  0  0  0
    6.4194    5.3595   -0.0000 N   0  0  0  0  0  0  0  0  0  0  0  0
    7.7176    0.1191   -0.0000 C   0  0  0  0  0  0  0  0  0  0  0  0
    5.1094    0.1191   -0.0000 C   0  0  0  0  0  0  0  0  0  0  0  0
    7.7057   -1.3816   -0.0000 C   0  0  0  0  0  0  0  0  0  0  0  0
    9.0158   -0.6193   -0.0000 C   0  0  0  0  0  0  0  0  0  0  0  0
    5.0974   -1.3816   -0.0000 C   0  0  0  0  0  0  0  0  0  0  0  0
    6.3837   -2.1319   -0.0000 N   0  0  0  0  0  0  0  0  0  0  0  0
    6.3718   -3.6206   -0.0000 C   0  0  0  0  0  0  0  0  0  0  0  0
    5.0498   -4.3709   -0.0000 N   0  0  0  0  0  0  0  0  0  0  0  0
    7.6700   -4.3709   -0.0000 C   0  0  0  0  0  0  0  0  0  0  0  0
    5.0379   -5.8716   -0.0000 C   0  0  0  0  0  0  0  0  0  0  0  0
    7.6581   -5.8716   -0.0000 C   0  0  0  0  0  0  0  0  0  0  0  0
    8.9563   -3.5968   -0.0000 C   0  0  0  0  0  0  0  0  0  0  0  0
    6.3361   -6.6100   -0.0000 N   0  0  0  0  0  0  0  0  0  0  0  0
    8.9443   -6.6100   -0.0000 N   0  0  0  0  0  0  0  0  0  0  0  0
   10.2544   -4.3471   -0.0000 C   0  0  0  0  0  0  0  0  0  0  0  0
    8.9443   -2.0842   -0.0000 C   0  0  0  0  0  0  0  0  0  0  0  0
   10.2425   -5.8478   -0.0000 C   0  0  0  0  0  0  0  0  0  0  0  0
   11.5288   -6.5862   -0.0000 O   0  0  0  0  0  0  0  0  0  0  0  0
  1  2  1  0  0  0  0
  2  3  2  0  0  0  0
  2  4  1  0  0  0  0
  3  5  1  0  0  0  0
  4  6  2  0  0  0  0
  5  7  2  0  0  0  0
  7  8  1  0  0  0  0
  8  9  1  0  0  0  0
  8 10  1  6  0  0  0
  9 11  2  0  0  0  0
  9 12  1  0  0  0  0
 10 13  1  0  0  0  0
 12 14  1  0  0  0  0
 12 15  1  0  0  0  0
 14 16  1  0  0  0  0
 14 17  1  1  0  0  0
 15 18  1  0  0  0  0
 16 19  1  0  0  0  0
 19 20  1  0  0  0  0
 20 21  2  0  0  0  0
 20 22  1  0  0  0  0
 21 23  1  0  0  0  0
 22 24  2  0  0  0  0
 22 25  1  0  0  0  0
 23 26  2  0  0  0  0
 24 27  1  0  0  0  0
 25 28  1  0  0  0  0
 25 29  1  1  0  0  0
 27 30  1  0  0  0  0
 30 31  2  0  0  0  0
  6  7  1  0  0  0  0
 16 17  1  1  0  0  0
 18 19  1  0  0  0  0
 24 26  1  0  0  0  0
 28 30  1  0  0  0  0
M  END
>  <MolRegNo>
2758739

>  <m>
=

>  <Value>
10080

>  <Unit>
nM

>  <Type>
IC50

>  <pValue>
5

>  <Ligand Efficiency>
0

>  <Binding Efficiency>
0

>  <Surface Efficiency>
0

>  <Assay Index>
1594556

>  <Assay Category>


>  <Assay Organism>
Homo sapiens

>  <Target ID>
17045

>  <Target Name>
Cytochrome P450 3A4

>  <Target Organism>
Homo sapiens

>  <Target Description>
Target is a single protein chain

>  <Sequence Accession>
P08684

>  <Reference>
J Med Chem 65 (12.0), 8144-8168 (2022)

>  <Pubmed ID>
35679512

>  <DOI>
10.1021/acs.jmedchem.2c00527

$$$$
2782787
Actelion Java MolfileCreator 1.0

 42 46  0  0  0  0  0  0  0  0999 V2000
    0.0000   -0.0000   -0.0000 Br  0  0  0  0  0  0  0  0  0  0  0  0
    1.2958    0.7609   -0.0000 C   0  0  0  0  0  0  0  0  0  0  0  0
    1.2839    2.2826   -0.0000 C   0  0  0  0  0  0  0  0  0  0  0  0
    2.5917    0.0238   -0.0000 C   0  0  0  0  0  0  0  0  0  0  0  0
    2.5798    3.0434   -0.0000 N   0  0  0  0  0  0  0  0  0  0  0  0
   -0.0357    3.0434   -0.0000 C   0  0  0  0  0  0  0  0  0  0  0  0
    3.8756    0.7846   -0.0000 C   0  0  0  0  0  0  0  0  0  0  0  0
    3.8637    2.3064   -0.0000 C   0  0  0  0  0  0  0  0  0  0  0  0
   -1.3553    2.3064   -0.0000 O   0  0  0  0  0  0  0  0  0  0  0  0
    5.2903    0.3448   -0.0000 N   0  0  0  0  0  0  0  0  0  0  0  0
    5.3141    2.7700   -0.0000 C   0  0  0  0  0  0  0  0  0  0  0  0
    6.1701    1.5693   -0.0000 C   0  0  0  0  0  0  0  0  0  0  0  0
    5.6708   -1.0937   -0.0000 C   0  0  0  0  0  0  0  0  0  0  0  0
    5.6946    4.2323   -0.0000 C   0  0  0  0  0  0  0  0  0  0  0  0
    7.1093   -1.4742   -0.0000 C   0  0  0  0  0  0  0  0  0  0  0  0
    7.1331    4.6365   -0.0000 O   0  0  0  0  0  0  0  0  0  0  0  0
    4.6246    5.3022   -0.0000 N   0  0  0  0  0  0  0  0  0  0  0  0
    7.4897   -2.9127   -0.0000 N   0  0  0  0  0  0  0  0  0  0  0  0
    5.0050    6.7645   -0.0000 C   0  0  0  0  0  0  0  0  0  0  0  0
    6.4197   -3.9588   -0.0000 C   0  0  0  0  0  0  0  0  0  0  0  0
    8.9282   -3.2931   -0.0000 C   0  0  0  0  0  0  0  0  0  0  0  0
    3.9351    7.8345   -0.0000 N   0  0  0  0  0  0  0  0  0  0  0  0
    6.4554    7.1687   -0.0000 C   0  0  0  0  0  0  0  0  0  0  0  0
    6.8002   -5.3973   -0.0000 C   0  0  0  0  0  0  0  0  0  0  0  0
    9.3086   -4.7316   -0.0000 C   0  0  0  0  0  0  0  0  0  0  0  0
    4.3155    9.2967   -0.0000 C   0  0  0  0  0  0  0  0  0  0  0  0
    6.8240    8.6310   -0.0000 C   0  0  0  0  0  0  0  0  0  0  0  0
    8.2387   -5.7778   -0.0000 O   0  0  0  0  0  0  0  0  0  0  0  0
    5.7540    9.7010   -0.0000 C   0  0  0  0  0  0  0  0  0  0  0  0
    8.2625    9.0352   -0.0000 O   0  0  0  0  0  0  0  0  0  0  0  0
    6.1344   11.1632   -0.0000 C   0  0  0  0  0  0  0  0  0  0  0  0
    9.3086    7.9890   -0.0000 C   0  0  0  0  0  0  0  0  0  0  0  0
    6.5149   12.6255   -0.0000 N   0  0  0  0  0  0  0  0  0  0  0  0
   10.7471    8.3932   -0.0000 C   0  0  0  0  0  0  0  0  0  0  0  0
    8.9044    6.5505   -0.0000 C   0  0  0  0  0  0  0  0  0  0  0  0
   11.8052    7.3352   -0.0000 C   0  0  0  0  0  0  0  0  0  0  0  0
   11.1276    9.8555   -0.0000 C   0  0  0  0  0  0  0  0  0  0  0  0
   11.4010    5.8967   -0.0000 Cl  0  0  0  0  0  0  0  0  0  0  0  0
   13.2437    7.7394   -0.0000 C   0  0  0  0  0  0  0  0  0  0  0  0
   10.0576   10.9255   -0.0000 Cl  0  0  0  0  0  0  0  0  0  0  0  0
   12.5661   10.2597   -0.0000 C   0  0  0  0  0  0  0  0  0  0  0  0
   13.6122    9.2016   -0.0000 N   0  0  0  0  0  0  0  0  0  0  0  0
  1  2  1  0  0  0  0
  2  3  2  0  0  0  0
  2  4  1  0  0  0  0
  3  5  1  0  0  0  0
  3  6  1  0  0  0  0
  4  7  2  0  0  0  0
  5  8  2  0  0  0  0
  6  9  2  0  0  0  0
  7 10  1  0  0  0  0
  8 11  1  0  0  0  0
 10 12  1  0  0  0  0
 10 13  1  0  0  0  0
 11 14  1  0  0  0  0
 13 15  1  0  0  0  0
 14 16  2  0  0  0  0
 14 17  1  0  0  0  0
 15 18  1  0  0  0  0
 17 19  1  0  0  0  0
 18 20  1  0  0  0  0
 18 21  1  0  0  0  0
 19 22  2  0  0  0  0
 19 23  1  0  0  0  0
 20 24  1  0  0  0  0
 21 25  1  0  0  0  0
 22 26  1  0  0  0  0
 23 27  2  0  0  0  0
 24 28  1  0  0  0  0
 26 29  2  0  0  0  0
 27 30  1  0  0  0  0
 29 31  1  0  0  0  0
 32 30  1  6  0  0  0
 31 33  3  0  0  0  0
 32 34  1  0  0  0  0
 32 35  1  0  0  0  0
 34 36  2  0  0  0  0
 34 37  1  0  0  0  0
 36 38  1  0  0  0  0
 36 39  1  0  0  0  0
 37 40  1  0  0  0  0
 37 41  2  0  0  0  0
 39 42  2  0  0  0  0
  7  8  1  0  0  0  0
 11 12  2  0  0  0  0
 25 28  1  0  0  0  0
 27 29  1  0  0  0  0
 41 42  1  0  0  0  0
M  END
>  <MolRegNo>
2782787

>  <m>
=

>  <Value>
2710

>  <Unit>
nM

>  <Type>
IC50

>  <pValue>
5.57

>  <Ligand Efficiency>
0

>  <Binding Efficiency>
0

>  <Surface Efficiency>
0

>  <Assay Index>
1600689

>  <Assay Category>


>  <Assay Organism>
Homo sapiens

>  <Target ID>
17045

>  <Target Name>
Cytochrome P450 3A4

>  <Target Organism>
Homo sapiens

>  <Target Description>
Target is a single protein chain

>  <Sequence Accession>
P08684

>  <Reference>
J Med Chem 65 (21.0), 14809-14831 (2022)

>  <Pubmed ID>
36278929

>  <DOI>
10.1021/acs.jmedchem.2c01319

$$$$
2787612
Actelion Java MolfileCreator 1.0

 33 37  0  0  0  0  0  0  0  0999 V2000
    0.0000   -0.0000   -0.0000 S   0  0  0  0  0  0  0  0  0  0  0  0
    0.4882    1.4527   -0.0000 C   0  0  0  0  0  0  0  0  0  0  0  0
   -1.5242    0.0119   -0.0000 C   0  0  0  0  0  0  0  0  0  0  0  0
   -0.7145    2.3577   -0.0000 N   0  0  0  0  0  0  0  0  0  0  0  0
    1.9290    1.8576   -0.0000 N   0  0  0  0  0  0  0  0  0  0  0  0
   -1.9886    1.4765   -0.0000 C   0  0  0  0  0  0  0  0  0  0  0  0
   -2.7149   -0.8216   -0.0000 C   0  0  0  0  0  0  0  0  0  0  0  0
    2.9769    0.8097   -0.0000 C   0  0  0  0  0  0  0  0  0  0  0  0
   -3.4889    1.4884   -0.0000 S   0  0  0  0  0  0  0  0  0  0  0  0
   -3.9295    0.0834   -0.0000 C   0  0  0  0  0  0  0  0  0  0  0  0
    4.4058    1.2146   -0.0000 C   0  0  0  0  0  0  0  0  0  0  0  0
   -5.3941   -0.2977   -0.0000 C   0  0  0  0  0  0  0  0  0  0  0  0
    5.4537    0.1786   -0.0000 N   0  0  0  0  0  0  0  0  0  0  0  0
   -6.4658    0.7740   -0.0000 O   0  0  0  0  0  0  0  0  0  0  0  0
   -5.7990   -1.7266   -0.0000 N   0  0  0  0  0  0  0  0  0  0  0  0
    6.8826    0.5835   -0.0000 C   0  0  0  0  0  0  0  0  0  0  0  0
    5.0607   -1.2622   -0.0000 C   0  0  0  0  0  0  0  0  0  0  0  0
   -7.2636   -2.1076   -0.0000 C   0  0  0  0  0  0  0  0  0  0  0  0
    7.9304   -0.4525   -0.0000 C   0  0  0  0  0  0  0  0  0  0  0  0
    6.1086   -2.2982   -0.0000 C   0  0  0  0  0  0  0  0  0  0  0  0
   -8.3353   -1.0360   -0.0000 C   0  0  0  0  0  0  0  0  0  0  0  0
   -7.6685   -3.5484   -0.0000 C   0  0  0  0  0  0  0  0  0  0  0  0
    7.5375   -1.8933   -0.0000 O   0  0  0  0  0  0  0  0  0  0  0  0
   -9.7880   -1.4170   -0.0000 C   0  0  0  0  0  0  0  0  0  0  0  0
   -9.1212   -3.9176   -0.0000 C   0  0  0  0  0  0  0  0  0  0  0  0
  -10.1810   -2.8459   -0.0000 C   0  0  0  0  0  0  0  0  0  0  0  0
  -11.6456   -3.2269   -0.0000 C   0  0  0  0  0  0  0  0  0  0  0  0
  -12.0504   -4.6678   -0.0000 N   0  0  0  0  0  0  0  0  0  0  0  0
  -12.7173   -2.1553   -0.0000 C   0  0  0  0  0  0  0  0  0  0  0  0
  -13.5032   -5.0369   -0.0000 C   0  0  0  0  0  0  0  0  0  0  0  0
  -14.1700   -2.5363   -0.0000 C   0  0  0  0  0  0  0  0  0  0  0  0
  -14.5748   -3.9652   -0.0000 C   0  0  0  0  0  0  0  0  0  0  0  0
  -16.0395   -4.3463   -0.0000 F   0  0  0  0  0  0  0  0  0  0  0  0
  1  2  1  0  0  0  0
  1  3  1  0  0  0  0
  2  4  2  0  0  0  0
  2  5  1  0  0  0  0
  3  6  2  0  0  0  0
  3  7  1  0  0  0  0
  5  8  1  0  0  0  0
  6  9  1  0  0  0  0
  7 10  2  0  0  0  0
  8 11  1  0  0  0  0
 10 12  1  0  0  0  0
 11 13  1  0  0  0  0
 12 14  2  0  0  0  0
 12 15  1  0  0  0  0
 13 16  1  0  0  0  0
 13 17  1  0  0  0  0
 15 18  1  0  0  0  0
 16 19  1  0  0  0  0
 17 20  1  0  0  0  0
 18 21  2  0  0  0  0
 18 22  1  0  0  0  0
 19 23  1  0  0  0  0
 21 24  1  0  0  0  0
 22 25  2  0  0  0  0
 24 26  2  0  0  0  0
 26 27  1  0  0  0  0
 27 28  2  0  0  0  0
 27 29  1  0  0  0  0
 28 30  1  0  0  0  0
 29 31  2  0  0  0  0
 30 32  2  0  0  0  0
 32 33  1  0  0  0  0
  4  6  1  0  0  0  0
  9 10  1  0  0  0  0
 20 23  1  0  0  0  0
 25 26  1  0  0  0  0
 31 32  1  0  0  0  0
M  END
>  <MolRegNo>
2787612

>  <m>
=

>  <Value>
6950

>  <Unit>
nM

>  <Type>
IC50

>  <pValue>
5.16

>  <Ligand Efficiency>
0

>  <Binding Efficiency>
0

>  <Surface Efficiency>
0

>  <Assay Index>
1601653

>  <Assay Category>


>  <Assay Organism>
Homo sapiens

>  <Target ID>
17045

>  <Target Name>
Cytochrome P450 3A4

>  <Target Organism>
Homo sapiens

>  <Target Description>
Target is a single protein chain

>  <Sequence Accession>
P08684

>  <Reference>
Bioorg Med Chem 28 (23.0), 115797-115797 (2020)

>  <Pubmed ID>
33075682

>  <DOI>
10.1016/j.bmc.2020.115797

$$$$
2795873
Actelion Java MolfileCreator 1.0

 27 30  0  0  0  0  0  0  0  0999 V2000
    0.0000   -0.0000   -0.0000 O   0  0  0  0  0  0  0  0  0  0  0  0
    0.9956   -1.1023   -0.0000 C   0  0  0  0  0  0  0  0  0  0  0  0
    2.4534   -0.7704   -0.0000 N   0  0  0  0  0  0  0  0  0  0  0  0
    0.5334   -2.5245   -0.0000 C   0  0  0  0  0  0  0  0  0  0  0  0
    2.8919    0.6756   -0.0000 C   0  0  0  0  0  0  0  0  0  0  0  0
    1.4104   -3.7216   -0.0000 N   0  0  0  0  0  0  0  0  0  0  0  0
   -0.9126   -2.9868   -0.0000 C   0  0  0  0  0  0  0  0  0  0  0  0
    4.3498    1.0074   -0.0000 C   0  0  0  0  0  0  0  0  0  0  0  0
    0.5215   -4.9305   -0.0000 N   0  0  0  0  0  0  0  0  0  0  0  0
   -0.9126   -4.4801   -0.0000 C   0  0  0  0  0  0  0  0  0  0  0  0
   -2.2282   -2.2282   -0.0000 C   0  0  0  0  0  0  0  0  0  0  0  0
    5.8432    1.0904   -0.0000 C   0  0  0  0  0  0  0  0  0  0  0  0
    5.0253    2.3586   -0.0000 C   0  0  0  0  0  0  0  0  0  0  0  0
    0.9837   -6.3409   -0.0000 C   0  0  0  0  0  0  0  0  0  0  0  0
   -2.2282   -5.2268   -0.0000 C   0  0  0  0  0  0  0  0  0  0  0  0
   -3.5320   -2.9631   -0.0000 C   0  0  0  0  0  0  0  0  0  0  0  0
    7.2891    1.4815   -0.0000 C   0  0  0  0  0  0  0  0  0  0  0  0
    5.9735    3.5320   -0.0000 C   0  0  0  0  0  0  0  0  0  0  0  0
   -0.0237   -7.4551   -0.0000 C   0  0  0  0  0  0  0  0  0  0  0  0
    2.4416   -6.6372   -0.0000 C   0  0  0  0  0  0  0  0  0  0  0  0
   -3.5438   -4.4683   -0.0000 C   0  0  0  0  0  0  0  0  0  0  0  0
    7.3721    2.9986   -0.0000 N   0  0  0  0  0  0  0  0  0  0  0  0
    8.6284    3.8164   -0.0000 C   0  0  0  0  0  0  0  0  0  0  0  0
    9.9440    3.1408   -0.0000 C   0  0  0  0  0  0  0  0  0  0  0  0
   11.2004    3.9586   -0.0000 C   0  0  0  0  0  0  0  0  0  0  0  0
   12.5160    3.2831   -0.0000 O   0  0  0  0  0  0  0  0  0  0  0  0
   13.7723    4.1009   -0.0000 C   0  0  0  0  0  0  0  0  0  0  0  0
  1  2  2  0  0  0  0
  2  3  1  0  0  0  0
  2  4  1  0  0  0  0
  3  5  1  0  0  0  0
  4  6  2  0  0  0  0
  4  7  1  0  0  0  0
  5  8  1  0  0  0  0
  6  9  1  0  0  0  0
  7 10  2  0  0  0  0
  7 11  1  0  0  0  0
  8 12  1  0  0  0  0
  8 13  1  0  0  0  0
  9 14  1  0  0  0  0
 10 15  1  0  0  0  0
 11 16  2  0  0  0  0
 12 17  1  0  0  0  0
 13 18  1  0  0  0  0
 14 19  1  0  0  0  0
 14 20  1  0  0  0  0
 15 21  2  0  0  0  0
 17 22  1  0  0  0  0
 22 23  1  0  0  0  0
 23 24  1  0  0  0  0
 24 25  1  0  0  0  0
 25 26  1  0  0  0  0
 26 27  1  0  0  0  0
  9 10  1  0  0  0  0
 12 13  1  0  0  0  0
 16 21  1  0  0  0  0
 18 22  1  0  0  0  0
M  END
>  <MolRegNo>
2795873

>  <m>
=

>  <Value>
36400

>  <Unit>
nM

>  <Type>
IC50

>  <pValue>
4.44

>  <Ligand Efficiency>
0

>  <Binding Efficiency>
0

>  <Surface Efficiency>
0

>  <Assay Index>
1602004

>  <Assay Category>


>  <Assay Organism>
Homo sapiens

>  <Target ID>
17045

>  <Target Name>
Cytochrome P450 3A4

>  <Target Organism>
Homo sapiens

>  <Target Description>
Target is a single protein chain

>  <Sequence Accession>
P08684

>  <Reference>
J Med Chem 64 (15.0), 10641-10665 (2021)

>  <Pubmed ID>
34251799

>  <DOI>
10.1021/acs.jmedchem.1c00703

$$$$
2790782
Actelion Java MolfileCreator 1.0

 34 37  0  0  0  0  0  0  0  0999 V2000
    0.0000   -0.0000   -0.0000 O   0  0  0  0  0  0  0  0  0  0  0  0
    0.9945   -1.1010   -0.0000 C   0  0  0  0  0  0  0  0  0  0  0  0
    2.4507   -0.7695   -0.0000 N   0  0  0  0  0  0  0  0  0  0  0  0
    0.5328   -2.5217   -0.0000 C   0  0  0  0  0  0  0  0  0  0  0  0
    2.8887    0.6748   -0.0000 C   0  0  0  0  0  0  0  0  0  0  0  0
    1.4088   -3.7174   -0.0000 N   0  0  0  0  0  0  0  0  0  0  0  0
   -0.9116   -2.9834   -0.0000 C   0  0  0  0  0  0  0  0  0  0  0  0
    4.2502    1.2904   -0.0000 C   0  0  0  0  0  0  0  0  0  0  0  0
    0.5209   -4.9250   -0.0000 N   0  0  0  0  0  0  0  0  0  0  0  0
   -0.9116   -4.4751   -0.0000 C   0  0  0  0  0  0  0  0  0  0  0  0
   -2.2257   -2.2257   -0.0000 C   0  0  0  0  0  0  0  0  0  0  0  0
    5.1263    2.5217   -0.0000 C   0  0  0  0  0  0  0  0  0  0  0  0
    5.7300    1.1365   -0.0000 C   0  0  0  0  0  0  0  0  0  0  0  0
    0.9826   -6.3338   -0.0000 C   0  0  0  0  0  0  0  0  0  0  0  0
   -2.2257   -5.2210   -0.0000 C   0  0  0  0  0  0  0  0  0  0  0  0
   -3.5280   -2.9597   -0.0000 C   0  0  0  0  0  0  0  0  0  0  0  0
    6.2391    3.5280   -0.0000 C   0  0  0  0  0  0  0  0  0  0  0  0
    7.2217    1.2904   -0.0000 C   0  0  0  0  0  0  0  0  0  0  0  0
   -0.0237   -7.4467   -0.0000 C   0  0  0  0  0  0  0  0  0  0  0  0
    2.4388   -6.6298   -0.0000 C   0  0  0  0  0  0  0  0  0  0  0  0
   -3.5398   -4.4633   -0.0000 C   0  0  0  0  0  0  0  0  0  0  0  0
    7.5296    2.7703   -0.0000 N   0  0  0  0  0  0  0  0  0  0  0  0
    8.8910    3.3859   -0.0000 C   0  0  0  0  0  0  0  0  0  0  0  0
   10.0749    2.4980   -0.0000 C   0  0  0  0  0  0  0  0  0  0  0  0
    9.0331    4.8895   -0.0000 C   0  0  0  0  0  0  0  0  0  0  0  0
   11.4364    3.1018   -0.0000 C   0  0  0  0  0  0  0  0  0  0  0  0
   10.4064    5.4933   -0.0000 C   0  0  0  0  0  0  0  0  0  0  0  0
   11.6021    4.6053   -0.0000 O   0  0  0  0  0  0  0  0  0  0  0  0
    8.1452   -2.1784   -0.0000 O   0  0  0  0  0  0  0  0  0  0  0  0
    6.6298   -2.1665   -0.0000 C   0  0  0  0  0  0  0  0  0  0  0  0
    5.8721   -0.8524   -0.0000 O   0  0  0  0  0  0  0  0  0  0  0  0
    5.8721   -3.4570   -0.0000 C   0  0  0  0  0  0  0  0  0  0  0  0
    4.3567   -3.4451   -0.0000 O   0  0  0  0  0  0  0  0  0  0  0  0
    6.6061   -4.7474   -0.0000 O   0  0  0  0  0  0  0  0  0  0  0  0
  1  2  2  0  0  0  0
  2  3  1  0  0  0  0
  2  4  1  0  0  0  0
  3  5  1  0  0  0  0
  4  6  2  0  0  0  0
  4  7  1  0  0  0  0
  5  8  1  0  0  0  0
  6  9  1  0  0  0  0
  7 10  2  0  0  0  0
  7 11  1  0  0  0  0
  8 12  1  0  0  0  0
  8 13  1  0  0  0  0
  9 14  1  0  0  0  0
 10 15  1  0  0  0  0
 11 16  2  0  0  0  0
 12 17  1  0  0  0  0
 13 18  1  0  0  0  0
 14 19  1  0  0  0  0
 14 20  1  0  0  0  0
 15 21  2  0  0  0  0
 17 22  1  0  0  0  0
 22 23  1  0  0  0  0
 23 24  1  0  0  0  0
 23 25  1  0  0  0  0
 24 26  1  0  0  0  0
 25 27  1  0  0  0  0
 26 28  1  0  0  0  0
 29 30  2  0  0  0  0
 30 31  1  0  0  0  0
 30 32  1  0  0  0  0
 32 33  2  0  0  0  0
 32 34  1  0  0  0  0
  9 10  1  0  0  0  0
 12 13  1  0  0  0  0
 16 21  1  0  0  0  0
 18 22  1  0  0  0  0
 27 28  1  0  0  0  0
M  END
>  <MolRegNo>
2790782

>  <m>
=

>  <Value>
20400

>  <Unit>
nM

>  <Type>
IC50

>  <pValue>
4.69

>  <Ligand Efficiency>
0

>  <Binding Efficiency>
0

>  <Surface Efficiency>
0

>  <Assay Index>
1602004

>  <Assay Category>


>  <Assay Organism>
Homo sapiens

>  <Target ID>
17045

>  <Target Name>
Cytochrome P450 3A4

>  <Target Organism>
Homo sapiens

>  <Target Description>
Target is a single protein chain

>  <Sequence Accession>
P08684

>  <Reference>
J Med Chem 64 (15.0), 10641-10665 (2021)

>  <Pubmed ID>
34251799

>  <DOI>
10.1021/acs.jmedchem.1c00703

$$$$
2809449
Actelion Java MolfileCreator 1.0

 34 37  0  0  0  0  0  0  0  0999 V2000
    0.0000   -0.0000   -0.0000 O   0  0  0  0  0  0  0  0  0  0  0  0
    0.9941   -1.1007   -0.0000 C   0  0  0  0  0  0  0  0  0  0  0  0
    2.4498   -0.7693   -0.0000 N   0  0  0  0  0  0  0  0  0  0  0  0
    0.5326   -2.5208   -0.0000 C   0  0  0  0  0  0  0  0  0  0  0  0
    2.8877    0.6746   -0.0000 C   0  0  0  0  0  0  0  0  0  0  0  0
    1.4084   -3.7162   -0.0000 N   0  0  0  0  0  0  0  0  0  0  0  0
   -0.8995   -2.9824   -0.0000 C   0  0  0  0  0  0  0  0  0  0  0  0
    2.5445    2.1540   -0.0000 C   0  0  0  0  0  0  0  0  0  0  0  0
    3.9765    1.6924   -0.0000 C   0  0  0  0  0  0  0  0  0  0  0  0
    0.5207   -4.9233   -0.0000 N   0  0  0  0  0  0  0  0  0  0  0  0
   -0.8995   -4.4736   -0.0000 C   0  0  0  0  0  0  0  0  0  0  0  0
   -2.2131   -2.2250   -0.0000 C   0  0  0  0  0  0  0  0  0  0  0  0
    2.5208    3.6688   -0.0000 C   0  0  0  0  0  0  0  0  0  0  0  0
    4.8405    2.9232   -0.0000 C   0  0  0  0  0  0  0  0  0  0  0  0
    0.9823   -6.3317   -0.0000 C   0  0  0  0  0  0  0  0  0  0  0  0
   -2.2131   -5.2192   -0.0000 C   0  0  0  0  0  0  0  0  0  0  0  0
   -3.5150   -2.9587   -0.0000 C   0  0  0  0  0  0  0  0  0  0  0  0
    3.9292    4.1541   -0.0000 N   0  0  0  0  0  0  0  0  0  0  0  0
   -0.0237   -7.4442   -0.0000 C   0  0  0  0  0  0  0  0  0  0  0  0
    2.4380   -6.6276   -0.0000 C   0  0  0  0  0  0  0  0  0  0  0  0
   -3.5268   -4.4618   -0.0000 C   0  0  0  0  0  0  0  0  0  0  0  0
    4.3671    5.5979   -0.0000 C   0  0  0  0  0  0  0  0  0  0  0  0
    5.8228    5.9293   -0.0000 C   0  0  0  0  0  0  0  0  0  0  0  0
    6.8169    4.8287   -0.0000 C   0  0  0  0  0  0  0  0  0  0  0  0
    6.2489    7.3732   -0.0000 C   0  0  0  0  0  0  0  0  0  0  0  0
    8.2608    5.1600   -0.0000 C   0  0  0  0  0  0  0  0  0  0  0  0
    7.7046    7.7046   -0.0000 C   0  0  0  0  0  0  0  0  0  0  0  0
    8.7105    6.6039   -0.0000 O   0  0  0  0  0  0  0  0  0  0  0  0
    7.7637   -0.3787   -0.0000 O   0  0  0  0  0  0  0  0  0  0  0  0
    6.2489   -0.3669   -0.0000 C   0  0  0  0  0  0  0  0  0  0  0  0
    5.4914    0.9468   -0.0000 O   0  0  0  0  0  0  0  0  0  0  0  0
    5.4914   -1.6569   -0.0000 C   0  0  0  0  0  0  0  0  0  0  0  0
    3.9765   -1.6451   -0.0000 O   0  0  0  0  0  0  0  0  0  0  0  0
    6.2252   -2.9469   -0.0000 O   0  0  0  0  0  0  0  0  0  0  0  0
  1  2  2  0  0  0  0
  2  3  1  0  0  0  0
  2  4  1  0  0  0  0
  3  5  1  0  0  0  0
  4  6  2  0  0  0  0
  4  7  1  0  0  0  0
  5  8  1  0  0  0  0
  5  9  1  0  0  0  0
  6 10  1  0  0  0  0
  7 11  2  0  0  0  0
  7 12  1  0  0  0  0
  8 13  1  0  0  0  0
  9 14  1  0  0  0  0
 10 15  1  0  0  0  0
 11 16  1  0  0  0  0
 12 17  2  0  0  0  0
 13 18  1  0  0  0  0
 15 19  1  0  0  0  0
 15 20  1  0  0  0  0
 16 21  2  0  0  0  0
 18 22  1  0  0  0  0
 22 23  1  0  0  0  0
 23 24  1  0  0  0  0
 23 25  1  0  0  0  0
 24 26  1  0  0  0  0
 25 27  1  0  0  0  0
 26 28  1  0  0  0  0
 29 30  2  0  0  0  0
 30 31  1  0  0  0  0
 30 32  1  0  0  0  0
 32 33  2  0  0  0  0
 32 34  1  0  0  0  0
  8  9  1  0  0  0  0
 10 11  1  0  0  0  0
 14 18  1  0  0  0  0
 17 21  1  0  0  0  0
 27 28  1  0  0  0  0
M  END
>  <MolRegNo>
2809449

>  <m>
=

>  <Value>
9100

>  <Unit>
nM

>  <Type>
IC50

>  <pValue>
5.04

>  <Ligand Efficiency>
0

>  <Binding Efficiency>
0

>  <Surface Efficiency>
0

>  <Assay Index>
1602004

>  <Assay Category>


>  <Assay Organism>
Homo sapiens

>  <Target ID>
17045

>  <Target Name>
Cytochrome P450 3A4

>  <Target Organism>
Homo sapiens

>  <Target Description>
Target is a single protein chain

>  <Sequence Accession>
P08684

>  <Reference>
J Med Chem 64 (15.0), 10641-10665 (2021)

>  <Pubmed ID>
34251799

>  <DOI>
10.1021/acs.jmedchem.1c00703

$$$$
2793906
Actelion Java MolfileCreator 1.0

 41 44  0  0  0  0  0  0  0  0999 V2000
    0.0000   -0.0000   -0.0000 O   0  0  0  0  0  0  0  0  0  0  0  0
    1.0105   -1.1188   -0.0000 C   0  0  0  0  0  0  0  0  0  0  0  0
    2.4901   -0.7819   -0.0000 N   0  0  0  0  0  0  0  0  0  0  0  0
    0.5413   -2.5623   -0.0000 C   0  0  0  0  0  0  0  0  0  0  0  0
    2.9352    0.6857   -0.0000 C   0  0  0  0  0  0  0  0  0  0  0  0
    1.4315   -3.7773   -0.0000 N   0  0  0  0  0  0  0  0  0  0  0  0
   -0.9143   -3.0315   -0.0000 C   0  0  0  0  0  0  0  0  0  0  0  0
    1.9007    1.8165   -0.0000 C   0  0  0  0  0  0  0  0  0  0  0  0
    4.4149    1.0225   -0.0000 C   0  0  0  0  0  0  0  0  0  0  0  0
    0.5293   -5.0044   -0.0000 N   0  0  0  0  0  0  0  0  0  0  0  0
   -0.9143   -4.5472   -0.0000 C   0  0  0  0  0  0  0  0  0  0  0  0
   -2.2496   -2.2616   -0.0000 C   0  0  0  0  0  0  0  0  0  0  0  0
    2.3578    3.2841   -0.0000 C   0  0  0  0  0  0  0  0  0  0  0  0
    4.8720    2.4781   -0.0000 C   0  0  0  0  0  0  0  0  0  0  0  0
    0.9985   -6.4359   -0.0000 C   0  0  0  0  0  0  0  0  0  0  0  0
   -2.2496   -5.3051   -0.0000 C   0  0  0  0  0  0  0  0  0  0  0  0
   -3.5728   -3.0074   -0.0000 C   0  0  0  0  0  0  0  0  0  0  0  0
    3.8375    3.6209   -0.0000 N   0  0  0  0  0  0  0  0  0  0  0  0
    2.7668    2.2014   -0.0000 C   0  0  0  0  0  0  0  0  0  0  0  0
    4.0420    1.8526   -0.0000 C   0  0  0  0  0  0  0  0  0  0  0  0
   -0.0241   -7.5667   -0.0000 C   0  0  0  0  0  0  0  0  0  0  0  0
    2.4781   -6.7366   -0.0000 C   0  0  0  0  0  0  0  0  0  0  0  0
   -3.5848   -4.5352   -0.0000 C   0  0  0  0  0  0  0  0  0  0  0  0
    4.2946    5.0886   -0.0000 C   0  0  0  0  0  0  0  0  0  0  0  0
    5.7743    5.4134   -0.0000 C   0  0  0  0  0  0  0  0  0  0  0  0
    4.4269    6.1833   -0.0000 O   0  0  0  0  0  0  0  0  0  0  0  0
    6.7847    4.2826   -0.0000 C   0  0  0  0  0  0  0  0  0  0  0  0
    6.2314    6.8690   -0.0000 C   0  0  0  0  0  0  0  0  0  0  0  0
    8.2644    4.6074   -0.0000 C   0  0  0  0  0  0  0  0  0  0  0  0
    7.7231    7.1938   -0.0000 C   0  0  0  0  0  0  0  0  0  0  0  0
    8.7336    6.0630   -0.0000 O   0  0  0  0  0  0  0  0  0  0  0  0
    6.4479    0.4812   -0.0000 O   0  0  0  0  0  0  0  0  0  0  0  0
    6.4359   -1.0346   -0.0000 C   0  0  0  0  0  0  0  0  0  0  0  0
    5.1006   -1.7924   -0.0000 O   0  0  0  0  0  0  0  0  0  0  0  0
    7.7471   -1.7924   -0.0000 C   0  0  0  0  0  0  0  0  0  0  0  0
    7.7351   -3.3082   -0.0000 O   0  0  0  0  0  0  0  0  0  0  0  0
    9.0584   -1.0105   -0.0000 C   0  0  0  0  0  0  0  0  0  0  0  0
    9.0463    0.5293   -0.0000 O   0  0  0  0  0  0  0  0  0  0  0  0
   10.3696   -1.7684   -0.0000 C   0  0  0  0  0  0  0  0  0  0  0  0
   10.3576   -3.2841   -0.0000 O   0  0  0  0  0  0  0  0  0  0  0  0
   11.6808   -0.9864   -0.0000 O   0  0  0  0  0  0  0  0  0  0  0  0
  1  2  2  0  0  0  0
  2  3  1  0  0  0  0
  2  4  1  0  0  0  0
  3  5  1  0  0  0  0
  4  6  2  0  0  0  0
  4  7  1  0  0  0  0
  5  8  1  0  0  0  0
  5  9  1  0  0  0  0
  6 10  1  0  0  0  0
  7 11  2  0  0  0  0
  7 12  1  0  0  0  0
  8 13  1  0  0  0  0
  9 14  1  0  0  0  0
 10 15  1  0  0  0  0
 11 16  1  0  0  0  0
 12 17  2  0  0  0  0
 13 18  1  0  0  0  0
 13 19  1  0  0  0  0
 14 20  1  0  0  0  0
 15 21  1  0  0  0  0
 15 22  1  0  0  0  0
 16 23  2  0  0  0  0
 18 24  1  0  0  0  0
 24 25  1  0  0  0  0
 25 26  1  0  0  0  0
 25 27  1  0  0  0  0
 25 28  1  0  0  0  0
 27 29  1  0  0  0  0
 28 30  1  0  0  0  0
 29 31  1  0  0  0  0
 32 33  2  0  0  0  0
 33 34  1  0  0  0  0
 33 35  1  0  0  0  0
 35 36  1  0  0  0  0
 35 37  1  0  0  0  0
 37 38  1  0  0  0  0
 37 39  1  0  0  0  0
 39 40  2  0  0  0  0
 39 41  1  0  0  0  0
 10 11  1  0  0  0  0
 14 18  1  0  0  0  0
 17 23  1  0  0  0  0
 19 20  1  0  0  0  0
 30 31  1  0  0  0  0
M  END
>  <MolRegNo>
2793906

>  <m>
=

>  <Value>
26700

>  <Unit>
nM

>  <Type>
IC50

>  <pValue>
4.57

>  <Ligand Efficiency>
0

>  <Binding Efficiency>
0

>  <Surface Efficiency>
0

>  <Assay Index>
1602004

>  <Assay Category>


>  <Assay Organism>
Homo sapiens

>  <Target ID>
17045

>  <Target Name>
Cytochrome P450 3A4

>  <Target Organism>
Homo sapiens

>  <Target Description>
Target is a single protein chain

>  <Sequence Accession>
P08684

>  <Reference>
J Med Chem 64 (15.0), 10641-10665 (2021)

>  <Pubmed ID>
34251799

>  <DOI>
10.1021/acs.jmedchem.1c00703

$$$$
2806344
Actelion Java MolfileCreator 1.0

 37 40  0  0  0  0  0  0  0  0999 V2000
    0.0000   -0.0000   -0.0000 O   0  0  0  0  0  0  0  0  0  0  0  0
   -1.3132   -0.7335   -0.0000 C   0  0  0  0  0  0  0  0  0  0  0  0
   -2.6263    0.0237   -0.0000 O   0  0  0  0  0  0  0  0  0  0  0  0
   -1.3250   -2.2241   -0.0000 C   0  0  0  0  0  0  0  0  0  0  0  0
   -0.0355   -2.9576   -0.0000 O   0  0  0  0  0  0  0  0  0  0  0  0
   -2.6382   -2.9576   -0.0000 O   0  0  0  0  0  0  0  0  0  0  0  0
   -9.1804   -1.5143   -0.0000 O   0  0  0  0  0  0  0  0  0  0  0  0
  -10.6119   -1.9757   -0.0000 C   0  0  0  0  0  0  0  0  0  0  0  0
   -9.2040   -0.0000   -0.0000 C   0  0  0  0  0  0  0  0  0  0  0  0
  -11.5228   -0.7571   -0.0000 N   0  0  0  0  0  0  0  0  0  0  0  0
  -11.0732   -3.3953   -0.0000 C   0  0  0  0  0  0  0  0  0  0  0  0
  -10.6473    0.4614   -0.0000 N   0  0  0  0  0  0  0  0  0  0  0  0
   -8.0092    0.8991   -0.0000 C   0  0  0  0  0  0  0  0  0  0  0  0
  -10.1978   -4.5902   -0.0000 N   0  0  0  0  0  0  0  0  0  0  0  0
  -12.5165   -3.8567   -0.0000 C   0  0  0  0  0  0  0  0  0  0  0  0
   -6.6487    0.2958   -0.0000 C   0  0  0  0  0  0  0  0  0  0  0  0
   -8.1866    2.4016   -0.0000 C   0  0  0  0  0  0  0  0  0  0  0  0
  -11.0851   -5.7969   -0.0000 N   0  0  0  0  0  0  0  0  0  0  0  0
  -12.5165   -5.3473   -0.0000 C   0  0  0  0  0  0  0  0  0  0  0  0
  -13.8297   -3.0996   -0.0000 C   0  0  0  0  0  0  0  0  0  0  0  0
   -5.4538    1.1830   -0.0000 C   0  0  0  0  0  0  0  0  0  0  0  0
   -6.9799    3.2888   -0.0000 C   0  0  0  0  0  0  0  0  0  0  0  0
  -10.6237   -7.2047   -0.0000 C   0  0  0  0  0  0  0  0  0  0  0  0
  -13.8297   -6.0926   -0.0000 C   0  0  0  0  0  0  0  0  0  0  0  0
  -15.1311   -3.8330   -0.0000 C   0  0  0  0  0  0  0  0  0  0  0  0
   -5.6194    2.6855   -0.0000 N   0  0  0  0  0  0  0  0  0  0  0  0
  -11.6293   -8.3168   -0.0000 C   0  0  0  0  0  0  0  0  0  0  0  0
   -9.1685   -7.5005   -0.0000 C   0  0  0  0  0  0  0  0  0  0  0  0
  -15.1429   -5.3355   -0.0000 C   0  0  0  0  0  0  0  0  0  0  0  0
   -4.4127    3.5728   -0.0000 C   0  0  0  0  0  0  0  0  0  0  0  0
   -4.5784    5.0752   -0.0000 C   0  0  0  0  0  0  0  0  0  0  0  0
   -3.3717    5.9625   -0.0000 C   0  0  0  0  0  0  0  0  0  0  0  0
   -2.0230    5.3592   -0.0000 C   0  0  0  0  0  0  0  0  0  0  0  0
   -3.5373    7.4650   -0.0000 C   0  0  0  0  0  0  0  0  0  0  0  0
   -0.8163    6.2464   -0.0000 C   0  0  0  0  0  0  0  0  0  0  0  0
   -2.3424    8.3523   -0.0000 C   0  0  0  0  0  0  0  0  0  0  0  0
   -0.9819    7.7489   -0.0000 C   0  0  0  0  0  0  0  0  0  0  0  0
  1  2  2  0  0  0  0
  2  3  1  0  0  0  0
  2  4  1  0  0  0  0
  4  5  2  0  0  0  0
  4  6  1  0  0  0  0
  7  8  1  0  0  0  0
  7  9  1  0  0  0  0
  8 10  2  0  0  0  0
  8 11  1  0  0  0  0
  9 12  2  0  0  0  0
  9 13  1  0  0  0  0
 11 14  2  0  0  0  0
 11 15  1  0  0  0  0
 13 16  1  0  0  0  0
 13 17  1  0  0  0  0
 14 18  1  0  0  0  0
 15 19  2  0  0  0  0
 15 20  1  0  0  0  0
 16 21  1  0  0  0  0
 17 22  1  0  0  0  0
 18 23  1  0  0  0  0
 19 24  1  0  0  0  0
 20 25  2  0  0  0  0
 21 26  1  0  0  0  0
 23 27  1  0  0  0  0
 23 28  1  0  0  0  0
 24 29  2  0  0  0  0
 26 30  1  0  0  0  0
 30 31  1  0  0  0  0
 31 32  1  0  0  0  0
 32 33  2  0  0  0  0
 32 34  1  0  0  0  0
 33 35  1  0  0  0  0
 34 36  2  0  0  0  0
 35 37  2  0  0  0  0
 10 12  1  0  0  0  0
 18 19  1  0  0  0  0
 22 26  1  0  0  0  0
 25 29  1  0  0  0  0
 36 37  1  0  0  0  0
M  END
>  <MolRegNo>
2806344

>  <m>
=

>  <Value>
11200

>  <Unit>
nM

>  <Type>
IC50

>  <pValue>
4.95

>  <Ligand Efficiency>
0

>  <Binding Efficiency>
0

>  <Surface Efficiency>
0

>  <Assay Index>
1602004

>  <Assay Category>


>  <Assay Organism>
Homo sapiens

>  <Target ID>
17045

>  <Target Name>
Cytochrome P450 3A4

>  <Target Organism>
Homo sapiens

>  <Target Description>
Target is a single protein chain

>  <Sequence Accession>
P08684

>  <Reference>
J Med Chem 64 (15.0), 10641-10665 (2021)

>  <Pubmed ID>
34251799

>  <DOI>
10.1021/acs.jmedchem.1c00703

$$$$
2799000
Actelion Java MolfileCreator 1.0

 34 36  0  0  0  0  0  0  0  0999 V2000
    0.0000   -0.0000   -0.0000 O   0  0  0  0  0  0  0  0  0  0  0  0
   -1.3131   -0.7334   -0.0000 C   0  0  0  0  0  0  0  0  0  0  0  0
   -2.6262    0.0237   -0.0000 O   0  0  0  0  0  0  0  0  0  0  0  0
   -1.3249   -2.2240   -0.0000 C   0  0  0  0  0  0  0  0  0  0  0  0
   -0.0355   -2.9574   -0.0000 O   0  0  0  0  0  0  0  0  0  0  0  0
   -2.6380   -2.9574   -0.0000 O   0  0  0  0  0  0  0  0  0  0  0  0
  -11.0727   -0.6625   -0.0000 O   0  0  0  0  0  0  0  0  0  0  0  0
  -12.5041   -1.1238   -0.0000 C   0  0  0  0  0  0  0  0  0  0  0  0
  -11.0964    0.8517   -0.0000 C   0  0  0  0  0  0  0  0  0  0  0  0
  -13.4032    0.0946   -0.0000 N   0  0  0  0  0  0  0  0  0  0  0  0
  -12.9655   -2.5434   -0.0000 C   0  0  0  0  0  0  0  0  0  0  0  0
  -12.5396    1.3131   -0.0000 N   0  0  0  0  0  0  0  0  0  0  0  0
   -9.9015    1.7508   -0.0000 C   0  0  0  0  0  0  0  0  0  0  0  0
  -12.0901   -3.7382   -0.0000 N   0  0  0  0  0  0  0  0  0  0  0  0
  -14.4087   -3.0048   -0.0000 C   0  0  0  0  0  0  0  0  0  0  0  0
   -8.6121    1.0174   -0.0000 C   0  0  0  0  0  0  0  0  0  0  0  0
   -9.9370    3.2532   -0.0000 C   0  0  0  0  0  0  0  0  0  0  0  0
  -12.9773   -4.9449   -0.0000 N   0  0  0  0  0  0  0  0  0  0  0  0
  -14.4087   -4.4953   -0.0000 C   0  0  0  0  0  0  0  0  0  0  0  0
  -15.7218   -2.2477   -0.0000 C   0  0  0  0  0  0  0  0  0  0  0  0
   -7.3345    1.7863   -0.0000 C   0  0  0  0  0  0  0  0  0  0  0  0
   -8.6476    4.0340   -0.0000 C   0  0  0  0  0  0  0  0  0  0  0  0
  -12.5159   -6.3526   -0.0000 C   0  0  0  0  0  0  0  0  0  0  0  0
  -15.7218   -5.2406   -0.0000 C   0  0  0  0  0  0  0  0  0  0  0  0
  -17.0231   -2.9811   -0.0000 C   0  0  0  0  0  0  0  0  0  0  0  0
   -7.3581    3.3005   -0.0000 N   0  0  0  0  0  0  0  0  0  0  0  0
  -13.5215   -7.4646   -0.0000 C   0  0  0  0  0  0  0  0  0  0  0  0
  -11.0609   -6.6483   -0.0000 C   0  0  0  0  0  0  0  0  0  0  0  0
  -17.0349   -4.4835   -0.0000 C   0  0  0  0  0  0  0  0  0  0  0  0
   -6.0805    4.0695   -0.0000 C   0  0  0  0  0  0  0  0  0  0  0  0
   -6.1042    5.5837   -0.0000 C   0  0  0  0  0  0  0  0  0  0  0  0
   -4.8266    6.3526   -0.0000 C   0  0  0  0  0  0  0  0  0  0  0  0
   -4.8502    7.8668   -0.0000 O   0  0  0  0  0  0  0  0  0  0  0  0
   -3.5726    8.6358   -0.0000 C   0  0  0  0  0  0  0  0  0  0  0  0
  1  2  2  0  0  0  0
  2  3  1  0  0  0  0
  2  4  1  0  0  0  0
  4  5  2  0  0  0  0
  4  6  1  0  0  0  0
  7  8  1  0  0  0  0
  7  9  1  0  0  0  0
  8 10  2  0  0  0  0
  8 11  1  0  0  0  0
  9 12  2  0  0  0  0
  9 13  1  0  0  0  0
 11 14  2  0  0  0  0
 11 15  1  0  0  0  0
 13 16  1  0  0  0  0
 13 17  1  0  0  0  0
 14 18  1  0  0  0  0
 15 19  2  0  0  0  0
 15 20  1  0  0  0  0
 16 21  1  0  0  0  0
 17 22  1  0  0  0  0
 18 23  1  0  0  0  0
 19 24  1  0  0  0  0
 20 25  2  0  0  0  0
 21 26  1  0  0  0  0
 23 27  1  0  0  0  0
 23 28  1  0  0  0  0
 24 29  2  0  0  0  0
 26 30  1  0  0  0  0
 30 31  1  0  0  0  0
 31 32  1  0  0  0  0
 32 33  1  0  0  0  0
 33 34  1  0  0  0  0
 10 12  1  0  0  0  0
 18 19  1  0  0  0  0
 22 26  1  0  0  0  0
 25 29  1  0  0  0  0
M  END
>  <MolRegNo>
2799000

>  <m>
=

>  <Value>
9100

>  <Unit>
nM

>  <Type>
IC50

>  <pValue>
5.04

>  <Ligand Efficiency>
0

>  <Binding Efficiency>
0

>  <Surface Efficiency>
0

>  <Assay Index>
1602004

>  <Assay Category>


>  <Assay Organism>
Homo sapiens

>  <Target ID>
17045

>  <Target Name>
Cytochrome P450 3A4

>  <Target Organism>
Homo sapiens

>  <Target Description>
Target is a single protein chain

>  <Sequence Accession>
P08684

>  <Reference>
J Med Chem 64 (15.0), 10641-10665 (2021)

>  <Pubmed ID>
34251799

>  <DOI>
10.1021/acs.jmedchem.1c00703

$$$$
2809731
Actelion Java MolfileCreator 1.0

 23 26  0  0  0  0  0  0  0  0999 V2000
    0.0000   -0.0000   -0.0000 F   0  0  0  0  0  0  0  0  0  0  0  0
   -1.4579   -0.3762   -0.0000 C   0  0  0  0  0  0  0  0  0  0  0  0
   -2.5278    0.6937   -0.0000 C   0  0  0  0  0  0  0  0  0  0  0  0
   -1.8459   -1.7988   -0.0000 C   0  0  0  0  0  0  0  0  0  0  0  0
   -3.9739    0.3174   -0.0000 C   0  0  0  0  0  0  0  0  0  0  0  0
   -3.2920   -2.1868   -0.0000 C   0  0  0  0  0  0  0  0  0  0  0  0
   -4.3736   -1.1169   -0.0000 C   0  0  0  0  0  0  0  0  0  0  0  0
   -5.8315   -1.4931   -0.0000 N   0  0  0  0  0  0  0  0  0  0  0  0
   -6.4429   -2.8099   -0.0000 N   0  0  0  0  0  0  0  0  0  0  0  0
   -6.9602   -0.4468   -0.0000 C   0  0  0  0  0  0  0  0  0  0  0  0
   -7.9478   -2.6336   -0.0000 C   0  0  0  0  0  0  0  0  0  0  0  0
   -6.9719    1.0581   -0.0000 N   0  0  0  0  0  0  0  0  0  0  0  0
   -8.2652   -1.1757   -0.0000 C   0  0  0  0  0  0  0  0  0  0  0  0
   -8.2770    1.8223   -0.0000 C   0  0  0  0  0  0  0  0  0  0  0  0
   -9.5702   -0.4115   -0.0000 C   0  0  0  0  0  0  0  0  0  0  0  0
   -9.5820    1.0934   -0.0000 C   0  0  0  0  0  0  0  0  0  0  0  0
  -10.8753   -1.1404   -0.0000 C   0  0  0  0  0  0  0  0  0  0  0  0
  -12.1803   -0.3762   -0.0000 C   0  0  0  0  0  0  0  0  0  0  0  0
  -10.8870   -2.6218   -0.0000 C   0  0  0  0  0  0  0  0  0  0  0  0
  -13.4853   -1.1052   -0.0000 N   0  0  0  0  0  0  0  0  0  0  0  0
  -12.1921    1.1287   -0.0000 N   0  0  0  0  0  0  0  0  0  0  0  0
  -12.1921   -3.3508   -0.0000 N   0  0  0  0  0  0  0  0  0  0  0  0
  -13.4971   -2.5866   -0.0000 C   0  0  0  0  0  0  0  0  0  0  0  0
  1  2  1  0  0  0  0
  2  3  2  0  0  0  0
  2  4  1  0  0  0  0
  3  5  1  0  0  0  0
  4  6  2  0  0  0  0
  5  7  2  0  0  0  0
  7  8  1  0  0  0  0
  8  9  1  0  0  0  0
  8 10  1  0  0  0  0
  9 11  2  0  0  0  0
 10 12  2  0  0  0  0
 10 13  1  0  0  0  0
 12 14  1  0  0  0  0
 13 15  2  0  0  0  0
 14 16  2  0  0  0  0
 15 17  1  0  0  0  0
 17 18  2  0  0  0  0
 17 19  1  0  0  0  0
 18 20  1  0  0  0  0
 18 21  1  0  0  0  0
 19 22  2  0  0  0  0
 20 23  2  0  0  0  0
  6  7  1  0  0  0  0
 11 13  1  0  0  0  0
 15 16  1  0  0  0  0
 22 23  1  0  0  0  0
M  END
>  <MolRegNo>
2809731

>  <m>
=

>  <Value>
36000

>  <Unit>
nM

>  <Type>
IC50

>  <pValue>
4.44

>  <Ligand Efficiency>
0

>  <Binding Efficiency>
0

>  <Surface Efficiency>
0

>  <Assay Index>
1602812

>  <Assay Category>


>  <Assay Organism>
Homo sapiens

>  <Target ID>
17045

>  <Target Name>
Cytochrome P450 3A4

>  <Target Organism>
Homo sapiens

>  <Target Description>
Target is a single protein chain

>  <Sequence Accession>
P08684

>  <Reference>


>  <Pubmed ID>
36031020

>  <DOI>
10.1016/j.bmcl.2022.128951

$$$$
2796307
Actelion Java MolfileCreator 1.0

 35 39  0  0  0  0  0  0  0  0999 V2000
    0.0000   -0.0000   -0.0000 F   0  0  0  0  0  0  0  0  0  0  0  0
    1.2952    0.7605   -0.0000 C   0  0  0  0  0  0  0  0  0  0  0  0
    1.2833    2.2695   -0.0000 C   0  0  0  0  0  0  0  0  0  0  0  0
    2.5784    0.0238   -0.0000 C   0  0  0  0  0  0  0  0  0  0  0  0
    2.5665    3.0299   -0.0000 C   0  0  0  0  0  0  0  0  0  0  0  0
    3.8736    0.7842   -0.0000 C   0  0  0  0  0  0  0  0  0  0  0  0
    2.5547    4.5390   -0.0000 C   0  0  0  0  0  0  0  0  0  0  0  0
    3.8617    2.2933   -0.0000 C   0  0  0  0  0  0  0  0  0  0  0  0
    5.1687    0.0475   -0.0000 C   0  0  0  0  0  0  0  0  0  0  0  0
    2.5428    6.0480   -0.0000 N   0  0  0  0  0  0  0  0  0  0  0  0
    5.1569    3.0537   -0.0000 O   0  0  0  0  0  0  0  0  0  0  0  0
    6.4639    0.8199   -0.0000 C   0  0  0  0  0  0  0  0  0  0  0  0
    5.1569   -1.4377   -0.0000 C   0  0  0  0  0  0  0  0  0  0  0  0
    7.7590    0.0713   -0.0000 C   0  0  0  0  0  0  0  0  0  0  0  0
    6.4520   -2.1744   -0.0000 C   0  0  0  0  0  0  0  0  0  0  0  0
    9.0542    0.8318   -0.0000 C   0  0  0  0  0  0  0  0  0  0  0  0
    7.7472   -1.4259   -0.0000 C   0  0  0  0  0  0  0  0  0  0  0  0
    9.0423    2.3408   -0.0000 N   0  0  0  0  0  0  0  0  0  0  0  0
   10.3375    0.0951   -0.0000 C   0  0  0  0  0  0  0  0  0  0  0  0
    9.0423   -2.1626   -0.0000 N   0  0  0  0  0  0  0  0  0  0  0  0
    7.7234    3.1012   -0.0000 C   0  0  0  0  0  0  0  0  0  0  0  0
   10.3375    3.1012   -0.0000 C   0  0  0  0  0  0  0  0  0  0  0  0
   11.6326    0.8555   -0.0000 C   0  0  0  0  0  0  0  0  0  0  0  0
   10.3256   -1.3902   -0.0000 C   0  0  0  0  0  0  0  0  0  0  0  0
    7.7115    4.6103   -0.0000 C   0  0  0  0  0  0  0  0  0  0  0  0
   10.3256    4.6103   -0.0000 C   0  0  0  0  0  0  0  0  0  0  0  0
   11.6207    2.3645   -0.0000 C   0  0  0  0  0  0  0  0  0  0  0  0
   12.9278    0.1069   -0.0000 C   0  0  0  0  0  0  0  0  0  0  0  0
    9.0067    5.3707   -0.0000 C   0  0  0  0  0  0  0  0  0  0  0  0
   12.9040    3.1250   -0.0000 C   0  0  0  0  0  0  0  0  0  0  0  0
   14.2110    0.8793   -0.0000 C   0  0  0  0  0  0  0  0  0  0  0  0
    8.9948    6.8798   -0.0000 N   0  0  0  0  0  0  0  0  0  0  0  0
   12.8921    4.6340   -0.0000 F   0  0  0  0  0  0  0  0  0  0  0  0
   14.1992    2.3883   -0.0000 C   0  0  0  0  0  0  0  0  0  0  0  0
   15.5062    0.1426   -0.0000 F   0  0  0  0  0  0  0  0  0  0  0  0
  1  2  1  0  0  0  0
  2  3  2  0  0  0  0
  2  4  1  0  0  0  0
  3  5  1  0  0  0  0
  4  6  2  0  0  0  0
  5  7  1  0  0  0  0
  5  8  2  0  0  0  0
  6  9  1  0  0  0  0
  7 10  3  0  0  0  0
  8 11  1  0  0  0  0
  9 12  2  0  0  0  0
  9 13  1  0  0  0  0
 12 14  1  0  0  0  0
 13 15  2  0  0  0  0
 14 16  2  0  0  0  0
 14 17  1  0  0  0  0
 16 18  1  0  0  0  0
 16 19  1  0  0  0  0
 17 20  2  0  0  0  0
 18 21  1  0  0  0  0
 18 22  1  0  0  0  0
 19 23  1  0  0  0  0
 19 24  2  0  0  0  0
 21 25  1  0  0  0  0
 22 26  1  0  0  0  0
 23 27  2  0  0  0  0
 23 28  1  0  0  0  0
 25 29  1  0  0  0  0
 27 30  1  0  0  0  0
 28 31  2  0  0  0  0
 29 32  1  0  0  0  0
 30 33  1  0  0  0  0
 30 34  2  0  0  0  0
 31 35  1  0  0  0  0
  6  8  1  0  0  0  0
 15 17  1  0  0  0  0
 20 24  1  0  0  0  0
 26 29  1  0  0  0  0
 31 34  1  0  0  0  0
M  END
>  <MolRegNo>
2796307

>  <m>
=

>  <Value>
10000

>  <Unit>
nM

>  <Type>
IC50

>  <pValue>
5

>  <Ligand Efficiency>
0

>  <Binding Efficiency>
0

>  <Surface Efficiency>
0

>  <Assay Index>
1603837

>  <Assay Category>


>  <Assay Organism>
Homo sapiens

>  <Target ID>
17045

>  <Target Name>
Cytochrome P450 3A4

>  <Target Organism>
Homo sapiens

>  <Target Description>
Target is a single protein chain

>  <Sequence Accession>
P08684

>  <Reference>
ACS Med Chem Lett 14 (1.0), 66-74 (2023)

>  <Pubmed ID>
36655128

>  <DOI>
10.1021/acsmedchemlett.2c00431

$$$$
2803524
Actelion Java MolfileCreator 1.0

 29 32  0  0  0  0  0  0  0  0999 V2000
    0.0000   -0.0000   -0.0000 Br  0  0  0  0  0  0  0  0  0  0  0  0
   -0.7563   -1.2882   -0.0000 C   0  0  0  0  0  0  0  0  0  0  0  0
   -2.2690   -1.2763   -0.0000 C   0  0  0  0  0  0  0  0  0  0  0  0
   -0.0236   -2.5645   -0.0000 C   0  0  0  0  0  0  0  0  0  0  0  0
   -3.0254   -2.5645   -0.0000 C   0  0  0  0  0  0  0  0  0  0  0  0
   -0.7800   -3.8527   -0.0000 C   0  0  0  0  0  0  0  0  0  0  0  0
   -2.2927   -3.8527   -0.0000 C   0  0  0  0  0  0  0  0  0  0  0  0
   -3.0490   -5.1408   -0.0000 C   0  0  0  0  0  0  0  0  0  0  0  0
   -1.5600   -5.1290   -0.0000 O   0  0  0  0  0  0  0  0  0  0  0  0
   -2.3163   -6.4290   -0.0000 C   0  0  0  0  0  0  0  0  0  0  0  0
   -4.5617   -5.1290   -0.0000 C   0  0  0  0  0  0  0  0  0  0  0  0
   -0.8273   -6.4172   -0.0000 C   0  0  0  0  0  0  0  0  0  0  0  0
   -3.0845   -7.7171   -0.0000 C   0  0  0  0  0  0  0  0  0  0  0  0
   -5.4599   -6.3344   -0.0000 O   0  0  0  0  0  0  0  0  0  0  0  0
   -5.4599   -3.8999   -0.0000 C   0  0  0  0  0  0  0  0  0  0  0  0
   -0.0945   -7.7053   -0.0000 N   0  0  0  0  0  0  0  0  0  0  0  0
   -2.3400   -9.0053   -0.0000 C   0  0  0  0  0  0  0  0  0  0  0  0
   -6.9017   -5.8617   -0.0000 C   0  0  0  0  0  0  0  0  0  0  0  0
   -6.9017   -4.3490   -0.0000 C   0  0  0  0  0  0  0  0  0  0  0  0
   -0.8627   -8.9935   -0.0000 C   0  0  0  0  0  0  0  0  0  0  0  0
   -8.2017   -6.5944   -0.0000 C   0  0  0  0  0  0  0  0  0  0  0  0
   -8.2135   -3.5927   -0.0000 C   0  0  0  0  0  0  0  0  0  0  0  0
   -9.5135   -5.8381   -0.0000 C   0  0  0  0  0  0  0  0  0  0  0  0
   -9.5253   -4.3254   -0.0000 C   0  0  0  0  0  0  0  0  0  0  0  0
  -10.8253   -6.5708   -0.0000 O   0  0  0  0  0  0  0  0  0  0  0  0
  -12.1370   -5.8144   -0.0000 C   0  0  0  0  0  0  0  0  0  0  0  0
  -13.4488   -6.5471   -0.0000 C   0  0  0  0  0  0  0  0  0  0  0  0
  -14.7606   -7.2799   -0.0000 C   0  0  0  0  0  0  0  0  0  0  0  0
  -16.0724   -8.0126   -0.0000 C   0  0  0  0  0  0  0  0  0  0  0  0
  1  2  1  0  0  0  0
  2  3  2  0  0  0  0
  2  4  1  0  0  0  0
  3  5  1  0  0  0  0
  4  6  2  0  0  0  0
  5  7  2  0  0  0  0
  7  8  1  0  0  0  0
  8  9  1  0  0  0  0
  8 10  1  0  0  0  0
  8 11  1  0  0  0  0
 10 12  2  0  0  0  0
 10 13  1  0  0  0  0
 11 14  1  0  0  0  0
 11 15  2  0  0  0  0
 12 16  1  0  0  0  0
 13 17  2  0  0  0  0
 14 18  1  0  0  0  0
 15 19  1  0  0  0  0
 16 20  2  0  0  0  0
 18 21  1  0  0  0  0
 19 22  1  0  0  0  0
 21 23  2  0  0  0  0
 22 24  2  0  0  0  0
 23 25  1  0  0  0  0
 25 26  1  0  0  0  0
 26 27  1  0  0  0  0
 27 28  3  0  0  0  0
 28 29  1  0  0  0  0
  6  7  1  0  0  0  0
 17 20  1  0  0  0  0
 18 19  2  0  0  0  0
 23 24  1  0  0  0  0
M  END
>  <MolRegNo>
2803524

>  <m>
=

>  <Value>
3380

>  <Unit>
nM

>  <Type>
IC50

>  <pValue>
5.47

>  <Ligand Efficiency>
0

>  <Binding Efficiency>
0

>  <Surface Efficiency>
0

>  <Assay Index>
1610904

>  <Assay Category>


>  <Assay Organism>
Homo sapiens

>  <Target ID>
17045

>  <Target Name>
Cytochrome P450 3A4

>  <Target Organism>
Homo sapiens

>  <Target Description>
Target is a single protein chain

>  <Sequence Accession>
P08684

>  <Reference>
RSC Med Chem 14 (2.0), 356-366 (2023)

>  <Pubmed ID>
36846364

>  <DOI>
10.1039/d2md00352j

$$$$
2789760
Actelion Java MolfileCreator 1.0

 37 40  0  0  0  0  0  0  0  0999 V2000
    0.0000   -0.0000   -0.0000 S   0  0  0  0  0  0  0  0  0  0  0  0
    0.7232   -1.2804   -0.0000 O   0  0  0  0  0  0  0  0  0  0  0  0
   -0.7587   -1.2804   -0.0000 O   0  0  0  0  0  0  0  0  0  0  0  0
   -1.3041    0.7587   -0.0000 N   0  0  0  0  0  0  0  0  0  0  0  0
    1.2922    0.7469   -0.0000 C   0  0  0  0  0  0  0  0  0  0  0  0
   -2.6082    0.0237   -0.0000 C   0  0  0  0  0  0  0  0  0  0  0  0
    2.5726    0.0119   -0.0000 C   0  0  0  0  0  0  0  0  0  0  0  0
   -2.6200   -1.4582   -0.0000 O   0  0  0  0  0  0  0  0  0  0  0  0
   -3.9122    0.7824   -0.0000 C   0  0  0  0  0  0  0  0  0  0  0  0
    2.5489   -1.4701   -0.0000 C   0  0  0  0  0  0  0  0  0  0  0  0
    3.8411    0.7706   -0.0000 C   0  0  0  0  0  0  0  0  0  0  0  0
   -5.2282    0.0474   -0.0000 C   0  0  0  0  0  0  0  0  0  0  0  0
   -3.9241    2.2881   -0.0000 C   0  0  0  0  0  0  0  0  0  0  0  0
    3.8292   -2.2051   -0.0000 C   0  0  0  0  0  0  0  0  0  0  0  0
    5.1215    0.0356   -0.0000 C   0  0  0  0  0  0  0  0  0  0  0  0
   -6.5322    0.8062   -0.0000 C   0  0  0  0  0  0  0  0  0  0  0  0
   -5.2282    3.0587   -0.0000 C   0  0  0  0  0  0  0  0  0  0  0  0
    5.1215   -1.4463   -0.0000 C   0  0  0  0  0  0  0  0  0  0  0  0
   -6.5441    2.3118   -0.0000 N   0  0  0  0  0  0  0  0  0  0  0  0
   -7.8482    3.0705   -0.0000 C   0  0  0  0  0  0  0  0  0  0  0  0
   -9.1641    2.3355   -0.0000 N   0  0  0  0  0  0  0  0  0  0  0  0
   -7.8600    4.5880   -0.0000 C   0  0  0  0  0  0  0  0  0  0  0  0
  -10.4682    3.0942   -0.0000 C   0  0  0  0  0  0  0  0  0  0  0  0
   -6.5797    5.3586   -0.0000 C   0  0  0  0  0  0  0  0  0  0  0  0
   -9.1641    5.3467   -0.0000 C   0  0  0  0  0  0  0  0  0  0  0  0
  -10.4682    4.6117   -0.0000 C   0  0  0  0  0  0  0  0  0  0  0  0
  -11.7723    2.3592   -0.0000 C   0  0  0  0  0  0  0  0  0  0  0  0
   -5.2993    6.1173   -0.0000 N   0  0  0  0  0  0  0  0  0  0  0  0
  -11.7723    5.3704   -0.0000 C   0  0  0  0  0  0  0  0  0  0  0  0
  -13.0764    3.1298   -0.0000 C   0  0  0  0  0  0  0  0  0  0  0  0
  -13.0882    4.6473   -0.0000 C   0  0  0  0  0  0  0  0  0  0  0  0
  -14.3923    2.4066   -0.0000 C   0  0  0  0  0  0  0  0  0  0  0  0
  -14.3923    5.4179   -0.0000 C   0  0  0  0  0  0  0  0  0  0  0  0
  -14.3923    6.9235   -0.0000 O   0  0  0  0  0  0  0  0  0  0  0  0
  -15.7082    4.6947   -0.0000 O   0  0  0  0  0  0  0  0  0  0  0  0
  -17.0123    5.4653   -0.0000 C   0  0  0  0  0  0  0  0  0  0  0  0
  -18.3282    4.7421   -0.0000 C   0  0  0  0  0  0  0  0  0  0  0  0
  1  2  2  0  0  0  0
  1  3  2  0  0  0  0
  1  4  1  0  0  0  0
  1  5  1  0  0  0  0
  4  6  1  0  0  0  0
  5  7  1  0  0  0  0
  6  8  2  0  0  0  0
  6  9  1  0  0  0  0
  7 10  2  0  0  0  0
  7 11  1  0  0  0  0
  9 12  1  0  0  0  0
  9 13  1  0  0  0  0
 10 14  1  0  0  0  0
 11 15  2  0  0  0  0
 12 16  1  0  0  0  0
 13 17  1  0  0  0  0
 14 18  2  0  0  0  0
 16 19  1  0  0  0  0
 19 20  1  0  0  0  0
 20 21  2  0  0  0  0
 20 22  1  0  0  0  0
 21 23  1  0  0  0  0
 22 24  1  0  0  0  0
 22 25  2  0  0  0  0
 23 26  2  0  0  0  0
 23 27  1  0  0  0  0
 24 28  3  0  0  0  0
 26 29  1  0  0  0  0
 27 30  1  0  0  0  0
 29 31  1  0  0  0  0
 30 32  1  0  0  0  0
 31 33  1  0  0  0  0
 33 34  2  0  0  0  0
 33 35  1  0  0  0  0
 35 36  1  0  0  0  0
 36 37  1  0  0  0  0
 15 18  1  0  0  0  0
 17 19  1  0  0  0  0
 25 26  1  0  0  0  0
 30 31  2  0  0  0  0
M  END
>  <MolRegNo>
2789760

>  <m>
=

>  <Value>
4280

>  <Unit>
nM

>  <Type>
IC50

>  <pValue>
5.37

>  <Ligand Efficiency>
0

>  <Binding Efficiency>
0

>  <Surface Efficiency>
0

>  <Assay Index>
1611258

>  <Assay Category>


>  <Assay Organism>
Homo sapiens

>  <Target ID>
17045

>  <Target Name>
Cytochrome P450 3A4

>  <Target Organism>
Homo sapiens

>  <Target Description>
Target is a single protein chain

>  <Sequence Accession>
P08684

>  <Reference>
J Med Chem 62 (6.0), 3088-3106 (2019)

>  <Pubmed ID>
30843696

>  <DOI>
10.1021/acs.jmedchem.8b01971

$$$$
2795045
Actelion Java MolfileCreator 1.0

 31 34  0  0  0  0  0  0  0  0999 V2000
    0.0000   -0.0000   -0.0000 S   0  0  0  0  0  0  0  0  0  0  0  0
    0.7231   -1.2803   -0.0000 O   0  0  0  0  0  0  0  0  0  0  0  0
   -0.7587   -1.2803   -0.0000 O   0  0  0  0  0  0  0  0  0  0  0  0
   -1.3040    0.7587   -0.0000 N   0  0  0  0  0  0  0  0  0  0  0  0
    1.2922    0.7468   -0.0000 C   0  0  0  0  0  0  0  0  0  0  0  0
   -2.6080    0.0237   -0.0000 C   0  0  0  0  0  0  0  0  0  0  0  0
    2.5725    0.0119   -0.0000 C   0  0  0  0  0  0  0  0  0  0  0  0
   -2.6199   -1.4581   -0.0000 O   0  0  0  0  0  0  0  0  0  0  0  0
   -3.9120    0.7824   -0.0000 C   0  0  0  0  0  0  0  0  0  0  0  0
    2.5488   -1.4700   -0.0000 C   0  0  0  0  0  0  0  0  0  0  0  0
    3.8409    0.7706   -0.0000 C   0  0  0  0  0  0  0  0  0  0  0  0
   -5.2279    0.0474   -0.0000 C   0  0  0  0  0  0  0  0  0  0  0  0
   -3.9239    2.2879   -0.0000 C   0  0  0  0  0  0  0  0  0  0  0  0
    3.8291   -2.2050   -0.0000 C   0  0  0  0  0  0  0  0  0  0  0  0
    5.1212    0.0356   -0.0000 C   0  0  0  0  0  0  0  0  0  0  0  0
   -6.5319    0.8061   -0.0000 C   0  0  0  0  0  0  0  0  0  0  0  0
   -5.2279    3.0585   -0.0000 C   0  0  0  0  0  0  0  0  0  0  0  0
    5.1212   -1.4463   -0.0000 C   0  0  0  0  0  0  0  0  0  0  0  0
   -6.5438    2.3117   -0.0000 N   0  0  0  0  0  0  0  0  0  0  0  0
   -7.8478    3.0704   -0.0000 C   0  0  0  0  0  0  0  0  0  0  0  0
   -9.1636    2.3354   -0.0000 N   0  0  0  0  0  0  0  0  0  0  0  0
   -7.8596    4.5878   -0.0000 C   0  0  0  0  0  0  0  0  0  0  0  0
  -10.4795    3.0941   -0.0000 C   0  0  0  0  0  0  0  0  0  0  0  0
   -6.5793    5.3583   -0.0000 C   0  0  0  0  0  0  0  0  0  0  0  0
   -9.1636    5.3464   -0.0000 C   0  0  0  0  0  0  0  0  0  0  0  0
  -10.4795    4.6115   -0.0000 C   0  0  0  0  0  0  0  0  0  0  0  0
  -11.9258    2.6554   -0.0000 C   0  0  0  0  0  0  0  0  0  0  0  0
   -5.2990    6.1170   -0.0000 N   0  0  0  0  0  0  0  0  0  0  0  0
  -11.9139    5.0975   -0.0000 C   0  0  0  0  0  0  0  0  0  0  0  0
  -12.8149    3.8883   -0.0000 O   0  0  0  0  0  0  0  0  0  0  0  0
  -12.3763    6.5319   -0.0000 O   0  0  0  0  0  0  0  0  0  0  0  0
  1  2  2  0  0  0  0
  1  3  2  0  0  0  0
  1  4  1  0  0  0  0
  1  5  1  0  0  0  0
  4  6  1  0  0  0  0
  5  7  1  0  0  0  0
  6  8  2  0  0  0  0
  6  9  1  0  0  0  0
  7 10  2  0  0  0  0
  7 11  1  0  0  0  0
  9 12  1  0  0  0  0
  9 13  1  0  0  0  0
 10 14  1  0  0  0  0
 11 15  2  0  0  0  0
 12 16  1  0  0  0  0
 13 17  1  0  0  0  0
 14 18  2  0  0  0  0
 16 19  1  0  0  0  0
 19 20  1  0  0  0  0
 20 21  2  0  0  0  0
 20 22  1  0  0  0  0
 21 23  1  0  0  0  0
 22 24  1  0  0  0  0
 22 25  2  0  0  0  0
 23 26  2  0  0  0  0
 23 27  1  0  0  0  0
 24 28  3  0  0  0  0
 26 29  1  0  0  0  0
 27 30  1  0  0  0  0
 29 31  2  0  0  0  0
 15 18  1  0  0  0  0
 17 19  1  0  0  0  0
 25 26  1  0  0  0  0
 29 30  1  0  0  0  0
M  END
>  <MolRegNo>
2795045

>  <m>
=

>  <Value>
8010

>  <Unit>
nM

>  <Type>
IC50

>  <pValue>
5.1

>  <Ligand Efficiency>
0

>  <Binding Efficiency>
0

>  <Surface Efficiency>
0

>  <Assay Index>
1611258

>  <Assay Category>


>  <Assay Organism>
Homo sapiens

>  <Target ID>
17045

>  <Target Name>
Cytochrome P450 3A4

>  <Target Organism>
Homo sapiens

>  <Target Description>
Target is a single protein chain

>  <Sequence Accession>
P08684

>  <Reference>
J Med Chem 62 (6.0), 3088-3106 (2019)

>  <Pubmed ID>
30843696

>  <DOI>
10.1021/acs.jmedchem.8b01971

$$$$
2796129
Actelion Java MolfileCreator 1.0

 30 33  0  0  0  0  0  0  0  0999 V2000
    0.0000   -0.0000   -0.0000 Cl  0  0  0  0  0  0  0  0  0  0  0  0
    0.9307    1.1782   -0.0000 C   0  0  0  0  0  0  0  0  0  0  0  0
    0.5302    2.6273   -0.0000 S   0  0  0  0  0  0  0  0  0  0  0  0
    2.4152    1.1192   -0.0000 C   0  0  0  0  0  0  0  0  0  0  0  0
    1.7672    3.4520   -0.0000 C   0  0  0  0  0  0  0  0  0  0  0  0
    2.9336    2.5213   -0.0000 C   0  0  0  0  0  0  0  0  0  0  0  0
    1.8261    4.9600   -0.0000 S   0  0  0  0  0  0  0  0  0  0  0  0
    2.6037    6.2325   -0.0000 O   0  0  0  0  0  0  0  0  0  0  0  0
    3.3106    4.9129   -0.0000 O   0  0  0  0  0  0  0  0  0  0  0  0
    0.5537    5.7730   -0.0000 N   0  0  0  0  0  0  0  0  0  0  0  0
    0.6009    7.2810   -0.0000 C   0  0  0  0  0  0  0  0  0  0  0  0
    1.9086    7.9879   -0.0000 O   0  0  0  0  0  0  0  0  0  0  0  0
   -0.6715    8.0939   -0.0000 C   0  0  0  0  0  0  0  0  0  0  0  0
   -1.9793    7.3635   -0.0000 C   0  0  0  0  0  0  0  0  0  0  0  0
   -0.6715    9.5902   -0.0000 C   0  0  0  0  0  0  0  0  0  0  0  0
   -3.2753    8.1293   -0.0000 C   0  0  0  0  0  0  0  0  0  0  0  0
   -1.9675   10.3560   -0.0000 C   0  0  0  0  0  0  0  0  0  0  0  0
   -3.2753    9.6255   -0.0000 N   0  0  0  0  0  0  0  0  0  0  0  0
   -4.5712   10.3913   -0.0000 C   0  0  0  0  0  0  0  0  0  0  0  0
   -5.8672    9.6609   -0.0000 N   0  0  0  0  0  0  0  0  0  0  0  0
   -4.5830   11.8994   -0.0000 C   0  0  0  0  0  0  0  0  0  0  0  0
   -7.1750   10.4149   -0.0000 C   0  0  0  0  0  0  0  0  0  0  0  0
   -3.3106   12.6534   -0.0000 C   0  0  0  0  0  0  0  0  0  0  0  0
   -5.8908   12.6652   -0.0000 C   0  0  0  0  0  0  0  0  0  0  0  0
   -7.1868   11.9229   -0.0000 C   0  0  0  0  0  0  0  0  0  0  0  0
   -8.6123    9.9672   -0.0000 C   0  0  0  0  0  0  0  0  0  0  0  0
   -2.0264   13.4074   -0.0000 N   0  0  0  0  0  0  0  0  0  0  0  0
   -8.6241   12.3942   -0.0000 C   0  0  0  0  0  0  0  0  0  0  0  0
   -9.5077   11.1925   -0.0000 O   0  0  0  0  0  0  0  0  0  0  0  0
   -9.0954   13.8316   -0.0000 O   0  0  0  0  0  0  0  0  0  0  0  0
  1  2  1  0  0  0  0
  2  3  1  0  0  0  0
  2  4  2  0  0  0  0
  3  5  1  0  0  0  0
  4  6  1  0  0  0  0
  5  7  1  0  0  0  0
  7  8  2  0  0  0  0
  7  9  2  0  0  0  0
  7 10  1  0  0  0  0
 10 11  1  0  0  0  0
 11 12  2  0  0  0  0
 11 13  1  0  0  0  0
 13 14  1  0  0  0  0
 13 15  1  0  0  0  0
 14 16  1  0  0  0  0
 15 17  1  0  0  0  0
 16 18  1  0  0  0  0
 18 19  1  0  0  0  0
 19 20  2  0  0  0  0
 19 21  1  0  0  0  0
 20 22  1  0  0  0  0
 21 23  1  0  0  0  0
 21 24  2  0  0  0  0
 22 25  2  0  0  0  0
 22 26  1  0  0  0  0
 23 27  3  0  0  0  0
 25 28  1  0  0  0  0
 26 29  1  0  0  0  0
 28 30  2  0  0  0  0
  5  6  2  0  0  0  0
 17 18  1  0  0  0  0
 24 25  1  0  0  0  0
 28 29  1  0  0  0  0
M  END
>  <MolRegNo>
2796129

>  <m>
=

>  <Value>
50000

>  <Unit>
nM

>  <Type>
IC50

>  <pValue>
4.3

>  <Ligand Efficiency>
0

>  <Binding Efficiency>
0

>  <Surface Efficiency>
0

>  <Assay Index>
1611258

>  <Assay Category>


>  <Assay Organism>
Homo sapiens

>  <Target ID>
17045

>  <Target Name>
Cytochrome P450 3A4

>  <Target Organism>
Homo sapiens

>  <Target Description>
Target is a single protein chain

>  <Sequence Accession>
P08684

>  <Reference>
J Med Chem 62 (6.0), 3088-3106 (2019)

>  <Pubmed ID>
30843696

>  <DOI>
10.1021/acs.jmedchem.8b01971

$$$$
2809860
Actelion Java MolfileCreator 1.0

 31 34  0  0  0  0  0  0  0  0999 V2000
    0.0000   -0.0000   -0.0000 Cl  0  0  0  0  0  0  0  0  0  0  0  0
    0.2235    1.4824   -0.0000 C   0  0  0  0  0  0  0  0  0  0  0  0
   -0.8471    2.5531   -0.0000 S   0  0  0  0  0  0  0  0  0  0  0  0
    1.5413    2.1766   -0.0000 C   0  0  0  0  0  0  0  0  0  0  0  0
   -0.1882    3.8943   -0.0000 C   0  0  0  0  0  0  0  0  0  0  0  0
    1.2942    3.6590   -0.0000 C   0  0  0  0  0  0  0  0  0  0  0  0
   -0.8824    5.2356   -0.0000 S   0  0  0  0  0  0  0  0  0  0  0  0
   -0.8353    6.7416   -0.0000 O   0  0  0  0  0  0  0  0  0  0  0  0
    0.4236    5.9415   -0.0000 O   0  0  0  0  0  0  0  0  0  0  0  0
   -2.3884    5.3062   -0.0000 N   0  0  0  0  0  0  0  0  0  0  0  0
   -3.0825    6.6474   -0.0000 C   0  0  0  0  0  0  0  0  0  0  0  0
   -2.2942    7.9181   -0.0000 O   0  0  0  0  0  0  0  0  0  0  0  0
   -4.5885    6.7298   -0.0000 C   0  0  0  0  0  0  0  0  0  0  0  0
   -5.8944    6.0003   -0.0000 C   0  0  0  0  0  0  0  0  0  0  0  0
   -4.5885    8.2240   -0.0000 C   0  0  0  0  0  0  0  0  0  0  0  0
   -4.2120    5.3062   -0.0000 C   0  0  0  0  0  0  0  0  0  0  0  0
   -7.1886    6.7651   -0.0000 C   0  0  0  0  0  0  0  0  0  0  0  0
   -5.8827    8.9887   -0.0000 C   0  0  0  0  0  0  0  0  0  0  0  0
   -7.1886    8.2593   -0.0000 N   0  0  0  0  0  0  0  0  0  0  0  0
   -8.4828    9.0240   -0.0000 C   0  0  0  0  0  0  0  0  0  0  0  0
   -9.7770    8.2946   -0.0000 N   0  0  0  0  0  0  0  0  0  0  0  0
   -8.4946   10.5300   -0.0000 C   0  0  0  0  0  0  0  0  0  0  0  0
  -11.0830    9.0476   -0.0000 C   0  0  0  0  0  0  0  0  0  0  0  0
   -7.2122   11.2830   -0.0000 C   0  0  0  0  0  0  0  0  0  0  0  0
   -9.8005   11.2948   -0.0000 C   0  0  0  0  0  0  0  0  0  0  0  0
  -11.0947   10.5535   -0.0000 C   0  0  0  0  0  0  0  0  0  0  0  0
  -12.5183    8.6005   -0.0000 C   0  0  0  0  0  0  0  0  0  0  0  0
   -5.9297   12.0360   -0.0000 N   0  0  0  0  0  0  0  0  0  0  0  0
  -12.5301   11.0241   -0.0000 C   0  0  0  0  0  0  0  0  0  0  0  0
  -13.4125    9.8241   -0.0000 O   0  0  0  0  0  0  0  0  0  0  0  0
  -13.0007   12.4595   -0.0000 O   0  0  0  0  0  0  0  0  0  0  0  0
  1  2  1  0  0  0  0
  2  3  1  0  0  0  0
  2  4  2  0  0  0  0
  3  5  1  0  0  0  0
  4  6  1  0  0  0  0
  5  7  1  0  0  0  0
  7  8  2  0  0  0  0
  7  9  2  0  0  0  0
  7 10  1  0  0  0  0
 10 11  1  0  0  0  0
 11 12  2  0  0  0  0
 11 13  1  0  0  0  0
 13 14  1  0  0  0  0
 13 15  1  0  0  0  0
 13 16  1  0  0  0  0
 14 17  1  0  0  0  0
 15 18  1  0  0  0  0
 17 19  1  0  0  0  0
 19 20  1  0  0  0  0
 20 21  2  0  0  0  0
 20 22  1  0  0  0  0
 21 23  1  0  0  0  0
 22 24  1  0  0  0  0
 22 25  2  0  0  0  0
 23 26  2  0  0  0  0
 23 27  1  0  0  0  0
 24 28  3  0  0  0  0
 26 29  1  0  0  0  0
 27 30  1  0  0  0  0
 29 31  2  0  0  0  0
  5  6  2  0  0  0  0
 18 19  1  0  0  0  0
 25 26  1  0  0  0  0
 29 30  1  0  0  0  0
M  END
>  <MolRegNo>
2809860

>  <m>
=

>  <Value>
50000

>  <Unit>
nM

>  <Type>
IC50

>  <pValue>
4.3

>  <Ligand Efficiency>
0

>  <Binding Efficiency>
0

>  <Surface Efficiency>
0

>  <Assay Index>
1611258

>  <Assay Category>


>  <Assay Organism>
Homo sapiens

>  <Target ID>
17045

>  <Target Name>
Cytochrome P450 3A4

>  <Target Organism>
Homo sapiens

>  <Target Description>
Target is a single protein chain

>  <Sequence Accession>
P08684

>  <Reference>
J Med Chem 62 (6.0), 3088-3106 (2019)

>  <Pubmed ID>
30843696

>  <DOI>
10.1021/acs.jmedchem.8b01971

$$$$
2807817
Actelion Java MolfileCreator 1.0

 33 36  0  0  0  0  0  0  0  0999 V2000
    0.0000   -0.0000   -0.0000 S   0  0  0  0  0  0  0  0  0  0  0  0
    1.2411    0.8392   -0.0000 O   0  0  0  0  0  0  0  0  0  0  0  0
    1.3239   -0.6619   -0.0000 O   0  0  0  0  0  0  0  0  0  0  0  0
   -0.8274    1.2648   -0.0000 N   0  0  0  0  0  0  0  0  0  0  0  0
   -0.6856   -1.3239   -0.0000 C   0  0  0  0  0  0  0  0  0  0  0  0
   -0.1655    2.6123   -0.0000 C   0  0  0  0  0  0  0  0  0  0  0  0
    0.1182   -2.5650   -0.0000 C   0  0  0  0  0  0  0  0  0  0  0  0
    1.3239    2.7069   -0.0000 O   0  0  0  0  0  0  0  0  0  0  0  0
   -0.9929    3.8771   -0.0000 C   0  0  0  0  0  0  0  0  0  0  0  0
   -0.5792   -3.8771   -0.0000 C   0  0  0  0  0  0  0  0  0  0  0  0
    1.5958   -2.4586   -0.0000 C   0  0  0  0  0  0  0  0  0  0  0  0
   -2.3050    3.1442   -0.0000 C   0  0  0  0  0  0  0  0  0  0  0  0
   -0.9929    5.3783   -0.0000 C   0  0  0  0  0  0  0  0  0  0  0  0
    0.4965    3.9717   -0.0000 C   0  0  0  0  0  0  0  0  0  0  0  0
    0.2246   -5.1182   -0.0000 C   0  0  0  0  0  0  0  0  0  0  0  0
    2.4114   -3.6998   -0.0000 C   0  0  0  0  0  0  0  0  0  0  0  0
   -3.6052    3.9126   -0.0000 C   0  0  0  0  0  0  0  0  0  0  0  0
   -2.2932    6.1466   -0.0000 C   0  0  0  0  0  0  0  0  0  0  0  0
    1.7140   -5.0237   -0.0000 C   0  0  0  0  0  0  0  0  0  0  0  0
   -3.6052    5.4137   -0.0000 N   0  0  0  0  0  0  0  0  0  0  0  0
    2.5177   -6.2648   -0.0000 C   0  0  0  0  0  0  0  0  0  0  0  0
   -4.9055    6.1702   -0.0000 C   0  0  0  0  0  0  0  0  0  0  0  0
   -6.2175    5.4374   -0.0000 N   0  0  0  0  0  0  0  0  0  0  0  0
   -4.9173    7.6833   -0.0000 C   0  0  0  0  0  0  0  0  0  0  0  0
   -7.5296    6.1939   -0.0000 C   0  0  0  0  0  0  0  0  0  0  0  0
   -3.6289    8.4398   -0.0000 C   0  0  0  0  0  0  0  0  0  0  0  0
   -6.2293    8.4516   -0.0000 C   0  0  0  0  0  0  0  0  0  0  0  0
   -7.5414    7.7069   -0.0000 C   0  0  0  0  0  0  0  0  0  0  0  0
   -8.9717    5.7447   -0.0000 C   0  0  0  0  0  0  0  0  0  0  0  0
   -2.3404    9.1963   -0.0000 N   0  0  0  0  0  0  0  0  0  0  0  0
   -8.9835    8.1797   -0.0000 C   0  0  0  0  0  0  0  0  0  0  0  0
   -9.8582    6.9740   -0.0000 O   0  0  0  0  0  0  0  0  0  0  0  0
   -9.4563    9.6218   -0.0000 O   0  0  0  0  0  0  0  0  0  0  0  0
  1  2  2  0  0  0  0
  1  3  2  0  0  0  0
  1  4  1  0  0  0  0
  1  5  1  0  0  0  0
  4  6  1  0  0  0  0
  5  7  1  0  0  0  0
  6  8  2  0  0  0  0
  6  9  1  0  0  0  0
  7 10  2  0  0  0  0
  7 11  1  0  0  0  0
  9 12  1  0  0  0  0
  9 13  1  0  0  0  0
  9 14  1  0  0  0  0
 10 15  1  0  0  0  0
 11 16  2  0  0  0  0
 12 17  1  0  0  0  0
 13 18  1  0  0  0  0
 15 19  2  0  0  0  0
 17 20  1  0  0  0  0
 19 21  1  0  0  0  0
 20 22  1  0  0  0  0
 22 23  2  0  0  0  0
 22 24  1  0  0  0  0
 23 25  1  0  0  0  0
 24 26  1  0  0  0  0
 24 27  2  0  0  0  0
 25 28  2  0  0  0  0
 25 29  1  0  0  0  0
 26 30  3  0  0  0  0
 28 31  1  0  0  0  0
 29 32  1  0  0  0  0
 31 33  2  0  0  0  0
 16 19  1  0  0  0  0
 18 20  1  0  0  0  0
 27 28  1  0  0  0  0
 31 32  1  0  0  0  0
M  END
>  <MolRegNo>
2807817

>  <m>
=

>  <Value>
1640

>  <Unit>
nM

>  <Type>
IC50

>  <pValue>
5.79

>  <Ligand Efficiency>
0

>  <Binding Efficiency>
0

>  <Surface Efficiency>
0

>  <Assay Index>
1611258

>  <Assay Category>


>  <Assay Organism>
Homo sapiens

>  <Target ID>
17045

>  <Target Name>
Cytochrome P450 3A4

>  <Target Organism>
Homo sapiens

>  <Target Description>
Target is a single protein chain

>  <Sequence Accession>
P08684

>  <Reference>
J Med Chem 62 (6.0), 3088-3106 (2019)

>  <Pubmed ID>
30843696

>  <DOI>
10.1021/acs.jmedchem.8b01971

$$$$
2390434
Actelion Java MolfileCreator 1.0

 33 36  0  0  0  0  0  0  0  0999 V2000
    0.0000   -0.0000   -0.0000 F   0  0  0  0  0  0  0  0  0  0  0  0
   -0.0119   -1.4925   -0.0000 C   0  0  0  0  0  0  0  0  0  0  0  0
   -1.3253   -2.2328   -0.0000 F   0  0  0  0  0  0  0  0  0  0  0  0
   -1.3373   -0.7283   -0.0000 F   0  0  0  0  0  0  0  0  0  0  0  0
    1.2776   -2.2328   -0.0000 C   0  0  0  0  0  0  0  0  0  0  0  0
    2.5671   -1.4686   -0.0000 C   0  0  0  0  0  0  0  0  0  0  0  0
    1.2656   -3.7372   -0.0000 C   0  0  0  0  0  0  0  0  0  0  0  0
    3.8566   -2.2089   -0.0000 C   0  0  0  0  0  0  0  0  0  0  0  0
    2.5552   -4.4775   -0.0000 C   0  0  0  0  0  0  0  0  0  0  0  0
    5.1461   -1.4447   -0.0000 N   0  0  0  0  0  0  0  0  0  0  0  0
    3.8447   -3.7133   -0.0000 C   0  0  0  0  0  0  0  0  0  0  0  0
    2.5432   -5.9700   -0.0000 C   0  0  0  0  0  0  0  0  0  0  0  0
    3.8327   -6.7103   -0.0000 N   0  0  0  0  0  0  0  0  0  0  0  0
    1.2298   -6.7103   -0.0000 C   0  0  0  0  0  0  0  0  0  0  0  0
    3.8208   -8.2028   -0.0000 C   0  0  0  0  0  0  0  0  0  0  0  0
    2.5074   -8.9311   -0.0000 N   0  0  0  0  0  0  0  0  0  0  0  0
    5.1103   -8.9311   -0.0000 C   0  0  0  0  0  0  0  0  0  0  0  0
    2.4955  -10.4236   -0.0000 C   0  0  0  0  0  0  0  0  0  0  0  0
    5.0984  -10.4236   -0.0000 C   0  0  0  0  0  0  0  0  0  0  0  0
    6.3879   -8.1669   -0.0000 C   0  0  0  0  0  0  0  0  0  0  0  0
    3.7850  -11.1639   -0.0000 N   0  0  0  0  0  0  0  0  0  0  0  0
    1.1821  -11.1639   -0.0000 C   0  0  0  0  0  0  0  0  0  0  0  0
    6.3879  -11.1639   -0.0000 C   0  0  0  0  0  0  0  0  0  0  0  0
    7.6774   -8.8953   -0.0000 C   0  0  0  0  0  0  0  0  0  0  0  0
    7.6774  -10.3997   -0.0000 C   0  0  0  0  0  0  0  0  0  0  0  0
    8.9669   -8.1192   -0.0000 O   0  0  0  0  0  0  0  0  0  0  0  0
    8.9669  -11.1400   -0.0000 O   0  0  0  0  0  0  0  0  0  0  0  0
    8.9430   -6.6028   -0.0000 C   0  0  0  0  0  0  0  0  0  0  0  0
    8.9550  -12.6325   -0.0000 C   0  0  0  0  0  0  0  0  0  0  0  0
   10.1490   -5.6954   -0.0000 C   0  0  0  0  0  0  0  0  0  0  0  0
    7.7013   -5.7073   -0.0000 C   0  0  0  0  0  0  0  0  0  0  0  0
    9.6594   -4.2506   -0.0000 O   0  0  0  0  0  0  0  0  0  0  0  0
    8.1431   -4.2626   -0.0000 C   0  0  0  0  0  0  0  0  0  0  0  0
  1  2  1  0  0  0  0
  2  3  1  0  0  0  0
  2  4  1  0  0  0  0
  2  5  1  0  0  0  0
  5  6  2  0  0  0  0
  5  7  1  0  0  0  0
  6  8  1  0  0  0  0
  7  9  2  0  0  0  0
  8 10  1  0  0  0  0
  8 11  2  0  0  0  0
  9 12  1  0  0  0  0
 12 13  1  6  0  0  0
 12 14  1  0  0  0  0
 13 15  1  0  0  0  0
 15 16  2  0  0  0  0
 15 17  1  0  0  0  0
 16 18  1  0  0  0  0
 17 19  1  0  0  0  0
 17 20  2  0  0  0  0
 18 21  2  0  0  0  0
 18 22  1  0  0  0  0
 19 23  2  0  0  0  0
 20 24  1  0  0  0  0
 23 25  1  0  0  0  0
 24 26  1  0  0  0  0
 25 27  1  0  0  0  0
 28 26  1  1  0  0  0
 27 29  1  0  0  0  0
 28 30  1  0  0  0  0
 28 31  1  0  0  0  0
 30 32  1  0  0  0  0
 31 33  1  0  0  0  0
  9 11  1  0  0  0  0
 19 21  1  0  0  0  0
 24 25  2  0  0  0  0
 32 33  1  0  0  0  0
M  END
>  <MolRegNo>
2390434

>  <m>
=

>  <Value>
24000

>  <Unit>
nM

>  <Type>
IC50

>  <pValue>
4.62

>  <Ligand Efficiency>
0

>  <Binding Efficiency>
0

>  <Surface Efficiency>
0

>  <Assay Index>
1615925

>  <Assay Category>


>  <Assay Organism>
Homo sapiens

>  <Target ID>
17045

>  <Target Name>
Cytochrome P450 3A4

>  <Target Organism>
Homo sapiens

>  <Target Description>
Target is a single protein chain

>  <Sequence Accession>
P08684

>  <Reference>
J Med Chem 65 (23.0), 15856-15877 (2022)

>  <Pubmed ID>
36384290

>  <DOI>
10.1021/acs.jmedchem.2c01517

$$$$
2794333
Actelion Java MolfileCreator 1.0

 39 44  0  0  0  0  0  0  0  0999 V2000
    0.0000   -0.0000   -0.0000 F   0  0  0  0  0  0  0  0  0  0  0  0
    1.2992    0.7628   -0.0000 C   0  0  0  0  0  0  0  0  0  0  0  0
    1.2872    2.2765   -0.0000 C   0  0  0  0  0  0  0  0  0  0  0  0
    2.5983    0.0238   -0.0000 C   0  0  0  0  0  0  0  0  0  0  0  0
    2.5864    3.0393   -0.0000 C   0  0  0  0  0  0  0  0  0  0  0  0
   -0.0358    3.0393   -0.0000 C   0  0  0  0  0  0  0  0  0  0  0  0
    3.8975    0.7986   -0.0000 C   0  0  0  0  0  0  0  0  0  0  0  0
    2.5864   -1.4660   -0.0000 C   0  0  0  0  0  0  0  0  0  0  0  0
    3.8736    2.3003   -0.0000 C   0  0  0  0  0  0  0  0  0  0  0  0
   -1.3587    2.3003   -0.0000 F   0  0  0  0  0  0  0  0  0  0  0  0
   -0.0477    4.5530   -0.0000 F   0  0  0  0  0  0  0  0  0  0  0  0
    3.8855   -2.2050   -0.0000 N   0  0  0  0  0  0  0  0  0  0  0  0
    1.2634   -2.2050   -0.0000 C   0  0  0  0  0  0  0  0  0  0  0  0
    3.8736   -3.6948   -0.0000 C   0  0  0  0  0  0  0  0  0  0  0  0
    2.5506   -4.4338   -0.0000 N   0  0  0  0  0  0  0  0  0  0  0  0
    5.1609   -4.4338   -0.0000 C   0  0  0  0  0  0  0  0  0  0  0  0
    2.5387   -5.9356   -0.0000 C   0  0  0  0  0  0  0  0  0  0  0  0
    5.1489   -5.9237   -0.0000 C   0  0  0  0  0  0  0  0  0  0  0  0
    6.4481   -3.6710   -0.0000 C   0  0  0  0  0  0  0  0  0  0  0  0
    3.8379   -6.6746   -0.0000 N   0  0  0  0  0  0  0  0  0  0  0  0
    1.2157   -6.6746   -0.0000 C   0  0  0  0  0  0  0  0  0  0  0  0
    6.4481   -6.6626   -0.0000 C   0  0  0  0  0  0  0  0  0  0  0  0
    7.7473   -4.4100   -0.0000 C   0  0  0  0  0  0  0  0  0  0  0  0
    7.7353   -5.8879   -0.0000 C   0  0  0  0  0  0  0  0  0  0  0  0
    9.0345   -3.6472   -0.0000 N   0  0  0  0  0  0  0  0  0  0  0  0
    9.0226   -6.6269   -0.0000 O   0  0  0  0  0  0  0  0  0  0  0  0
   10.3217   -4.3861   -0.0000 C   0  0  0  0  0  0  0  0  0  0  0  0
    9.0226   -2.1335   -0.0000 C   0  0  0  0  0  0  0  0  0  0  0  0
   10.3098   -5.8641   -0.0000 C   0  0  0  0  0  0  0  0  0  0  0  0
   11.6090   -3.6233   -0.0000 C   0  0  0  0  0  0  0  0  0  0  0  0
   10.3098   -1.3707   -0.0000 C   0  0  0  0  0  0  0  0  0  0  0  0
   11.5970   -2.1096   -0.0000 N   0  0  0  0  0  0  0  0  0  0  0  0
   12.8962   -1.3468   -0.0000 C   0  0  0  0  0  0  0  0  0  0  0  0
   12.8843    0.1669   -0.0000 O   0  0  0  0  0  0  0  0  0  0  0  0
   14.1954   -2.0858   -0.0000 C   0  0  0  0  0  0  0  0  0  0  0  0
   15.5660   -1.4660   -0.0000 C   0  0  0  0  0  0  0  0  0  0  0  0
   14.3384   -3.5757   -0.0000 C   0  0  0  0  0  0  0  0  0  0  0  0
   16.5672   -2.5745   -0.0000 O   0  0  0  0  0  0  0  0  0  0  0  0
   15.8044   -3.8736   -0.0000 C   0  0  0  0  0  0  0  0  0  0  0  0
  1  2  1  0  0  0  0
  2  3  2  0  0  0  0
  2  4  1  0  0  0  0
  3  5  1  0  0  0  0
  3  6  1  0  0  0  0
  4  7  2  0  0  0  0
  4  8  1  0  0  0  0
  5  9  2  0  0  0  0
  6 10  1  0  0  0  0
  6 11  1  0  0  0  0
  8 12  1  1  0  0  0
  8 13  1  0  0  0  0
 12 14  1  0  0  0  0
 14 15  2  0  0  0  0
 14 16  1  0  0  0  0
 15 17  1  0  0  0  0
 16 18  1  0  0  0  0
 16 19  2  0  0  0  0
 17 20  2  0  0  0  0
 17 21  1  0  0  0  0
 18 22  2  0  0  0  0
 19 23  1  0  0  0  0
 22 24  1  0  0  0  0
 23 25  1  0  0  0  0
 24 26  1  0  0  0  0
 27 25  1  1  0  0  0
 25 28  1  0  0  0  0
 26 29  1  0  0  0  0
 27 30  1  0  0  0  0
 28 31  1  0  0  0  0
 30 32  1  0  0  0  0
 32 33  1  0  0  0  0
 33 34  2  0  0  0  0
 35 33  1  1  0  0  0
 35 36  1  0  0  0  0
 35 37  1  0  0  0  0
 36 38  1  0  0  0  0
 37 39  1  0  0  0  0
  7  9  1  0  0  0  0
 18 20  1  0  0  0  0
 23 24  2  0  0  0  0
 27 29  1  0  0  0  0
 31 32  1  0  0  0  0
 38 39  1  0  0  0  0
M  END
>  <MolRegNo>
2794333

>  <m>
=

>  <Value>
79000

>  <Unit>
nM

>  <Type>
IC50

>  <pValue>
4.1

>  <Ligand Efficiency>
0

>  <Binding Efficiency>
0

>  <Surface Efficiency>
0

>  <Assay Index>
1615925

>  <Assay Category>


>  <Assay Organism>
Homo sapiens

>  <Target ID>
17045

>  <Target Name>
Cytochrome P450 3A4

>  <Target Organism>
Homo sapiens

>  <Target Description>
Target is a single protein chain

>  <Sequence Accession>
P08684

>  <Reference>
J Med Chem 65 (23.0), 15856-15877 (2022)

>  <Pubmed ID>
36384290

>  <DOI>
10.1021/acs.jmedchem.2c01517

$$$$
2722312
Actelion Java MolfileCreator 1.0

 38 44  0  0  0  0  0  0  0  0999 V2000
    0.0000   -0.0000   -0.0000 Cl  0  0  0  0  0  0  0  0  0  0  0  0
    1.3734   -0.5802   -0.0000 C   0  0  0  0  0  0  0  0  0  0  0  0
    1.5392   -2.0602   -0.0000 C   0  0  0  0  0  0  0  0  0  0  0  0
    2.5574    0.3315   -0.0000 C   0  0  0  0  0  0  0  0  0  0  0  0
    0.3315   -2.9482   -0.0000 C   0  0  0  0  0  0  0  0  0  0  0  0
    2.9126   -2.6403   -0.0000 C   0  0  0  0  0  0  0  0  0  0  0  0
    3.9309   -0.2486   -0.0000 C   0  0  0  0  0  0  0  0  0  0  0  0
    2.3680    1.8352   -0.0000 C   0  0  0  0  0  0  0  0  0  0  0  0
    0.3434   -4.4400   -0.0000 C   0  0  0  0  0  0  0  0  0  0  0  0
   -1.1130   -2.4982   -0.0000 C   0  0  0  0  0  0  0  0  0  0  0  0
    4.0966   -1.7286   -0.0000 C   0  0  0  0  0  0  0  0  0  0  0  0
    3.3862   -4.0493   -0.0000 C   0  0  0  0  0  0  0  0  0  0  0  0
   -1.0893   -4.9136   -0.0000 N   0  0  0  0  0  0  0  0  0  0  0  0
    1.5629   -5.2925   -0.0000 C   0  0  0  0  0  0  0  0  0  0  0  0
   -1.9891   -3.7177   -0.0000 N   0  0  0  0  0  0  0  0  0  0  0  0
   -1.6102   -1.0656   -0.0000 C   0  0  0  0  0  0  0  0  0  0  0  0
    5.3161   -2.5811   -0.0000 N   0  0  0  0  0  0  0  0  0  0  0  0
    4.8781   -4.0137   -0.0000 N   0  0  0  0  0  0  0  0  0  0  0  0
    1.4208   -6.7843   -0.0000 C   0  0  0  0  0  0  0  0  0  0  0  0
    2.9126   -4.6413   -0.0000 C   0  0  0  0  0  0  0  0  0  0  0  0
   -3.5046   -3.7296   -0.0000 C   0  0  0  0  0  0  0  0  0  0  0  0
    2.6403   -7.6368   -0.0000 C   0  0  0  0  0  0  0  0  0  0  0  0
    4.1321   -5.4937   -0.0000 C   0  0  0  0  0  0  0  0  0  0  0  0
   -4.5584   -4.7952   -0.0000 C   0  0  0  0  0  0  0  0  0  0  0  0
   -4.5939   -2.6758   -0.0000 C   0  0  0  0  0  0  0  0  0  0  0  0
    3.9901   -6.9856   -0.0000 C   0  0  0  0  0  0  0  0  0  0  0  0
    2.8061   -9.1168   -0.0000 C   0  0  0  0  0  0  0  0  0  0  0  0
   -5.6477   -3.7414   -0.0000 C   0  0  0  0  0  0  0  0  0  0  0  0
    5.0083   -8.0749   -0.0000 N   0  0  0  0  0  0  0  0  0  0  0  0
    4.2742   -9.3891   -0.0000 N   0  0  0  0  0  0  0  0  0  0  0  0
   -6.7014   -4.8070   -0.0000 C   0  0  0  0  0  0  0  0  0  0  0  0
   -6.7369   -2.6877   -0.0000 C   0  0  0  0  0  0  0  0  0  0  0  0
    6.4883   -7.8854   -0.0000 C   0  0  0  0  0  0  0  0  0  0  0  0
   -7.7907   -3.7533   -0.0000 N   0  0  0  0  0  0  0  0  0  0  0  0
   -9.3062   -3.7651   -0.0000 C   0  0  0  0  0  0  0  0  0  0  0  0
  -10.0521   -5.0675   -0.0000 O   0  0  0  0  0  0  0  0  0  0  0  0
  -10.0876   -2.4627   -0.0000 C   0  0  0  0  0  0  0  0  0  0  0  0
  -11.6032   -2.4746   -0.0000 C   0  0  0  0  0  0  0  0  0  0  0  0
  1  2  1  0  0  0  0
  2  3  2  0  0  0  0
  2  4  1  0  0  0  0
  3  5  1  0  0  0  0
  3  6  1  0  0  0  0
  4  7  2  0  0  0  0
  4  8  1  0  0  0  0
  5  9  1  0  0  0  0
  5 10  2  0  0  0  0
  6 11  2  0  0  0  0
  6 12  1  0  0  0  0
  9 13  2  0  0  0  0
  9 14  1  0  0  0  0
 10 15  1  0  0  0  0
 10 16  1  0  0  0  0
 11 17  1  0  0  0  0
 12 18  2  0  0  0  0
 14 19  2  0  0  0  0
 14 20  1  0  0  0  0
 15 21  1  0  0  0  0
 19 22  1  0  0  0  0
 20 23  2  0  0  0  0
 21 24  1  0  0  0  0
 21 25  1  0  0  0  0
 22 26  2  0  0  0  0
 22 27  1  0  0  0  0
 24 28  1  0  0  0  0
 26 29  1  0  0  0  0
 27 30  2  0  0  0  0
 28 31  1  0  0  0  0
 28 32  1  0  0  0  0
 29 33  1  0  0  0  0
 31 34  1  0  0  0  0
 34 35  1  0  0  0  0
 35 36  2  0  0  0  0
 35 37  1  0  0  0  0
 37 38  2  0  0  0  0
  7 11  1  0  0  0  0
 13 15  1  0  0  0  0
 17 18  1  0  0  0  0
 23 26  1  0  0  0  0
 25 28  1  0  0  0  0
 29 30  1  0  0  0  0
 32 34  1  0  0  0  0
M  END
>  <MolRegNo>
2722312

>  <m>
=

>  <Value>
6230

>  <Unit>
nM

>  <Type>
IC50

>  <pValue>
5.21

>  <Ligand Efficiency>
0

>  <Binding Efficiency>
0

>  <Surface Efficiency>
0

>  <Assay Index>
1616234

>  <Assay Category>


>  <Assay Organism>
Homo sapiens

>  <Target ID>
17045

>  <Target Name>
Cytochrome P450 3A4

>  <Target Organism>
Homo sapiens

>  <Target Description>
Target is a single protein chain

>  <Sequence Accession>
P08684

>  <Reference>
J Med Chem 65 (24.0), 16173-16203 (2022)

>  <Pubmed ID>
36399068

>  <DOI>
10.1021/acs.jmedchem.2c01438

$$$$
2793881
Actelion Java MolfileCreator 1.0

 29 32  0  0  0  0  0  0  0  0999 V2000
    0.0000   -0.0000   -0.0000 Cl  0  0  0  0  0  0  0  0  0  0  0  0
   -0.0118   -1.4905   -0.0000 C   0  0  0  0  0  0  0  0  0  0  0  0
    1.2775   -2.2239   -0.0000 C   0  0  0  0  0  0  0  0  0  0  0  0
   -1.3249   -2.2239   -0.0000 C   0  0  0  0  0  0  0  0  0  0  0  0
    1.2657   -3.7143   -0.0000 C   0  0  0  0  0  0  0  0  0  0  0  0
   -1.3367   -3.7143   -0.0000 C   0  0  0  0  0  0  0  0  0  0  0  0
    2.5551   -4.4477   -0.0000 Cl  0  0  0  0  0  0  0  0  0  0  0  0
   -0.0473   -4.4477   -0.0000 C   0  0  0  0  0  0  0  0  0  0  0  0
   -2.6497   -4.4477   -0.0000 N   0  0  0  0  0  0  0  0  0  0  0  0
   -3.9627   -3.6907   -0.0000 C   0  0  0  0  0  0  0  0  0  0  0  0
   -5.2758   -4.4241   -0.0000 C   0  0  0  0  0  0  0  0  0  0  0  0
   -5.2876   -5.9145   -0.0000 O   0  0  0  0  0  0  0  0  0  0  0  0
   -6.5888   -3.6670   -0.0000 N   0  0  0  0  0  0  0  0  0  0  0  0
   -7.9018   -4.4004   -0.0000 C   0  0  0  0  0  0  0  0  0  0  0  0
   -6.6006   -2.1529   -0.0000 C   0  0  0  0  0  0  0  0  0  0  0  0
   -9.2148   -3.6433   -0.0000 C   0  0  0  0  0  0  0  0  0  0  0  0
   -7.9136   -5.8909   -0.0000 C   0  0  0  0  0  0  0  0  0  0  0  0
   -7.9136   -1.3958   -0.0000 C   0  0  0  0  0  0  0  0  0  0  0  0
  -10.5279   -4.3768   -0.0000 N   0  0  0  0  0  0  0  0  0  0  0  0
   -9.2267   -2.1292   -0.0000 C   0  0  0  0  0  0  0  0  0  0  0  0
  -10.5397   -5.8672   -0.0000 C   0  0  0  0  0  0  0  0  0  0  0  0
   -9.2503   -6.6006   -0.0000 N   0  0  0  0  0  0  0  0  0  0  0  0
  -11.8527   -6.6006   -0.0000 C   0  0  0  0  0  0  0  0  0  0  0  0
   -9.2622   -8.0911   -0.0000 C   0  0  0  0  0  0  0  0  0  0  0  0
  -11.8645   -8.0911   -0.0000 C   0  0  0  0  0  0  0  0  0  0  0  0
  -13.2959   -6.1275   -0.0000 C   0  0  0  0  0  0  0  0  0  0  0  0
  -10.5752   -8.8245   -0.0000 N   0  0  0  0  0  0  0  0  0  0  0  0
  -13.3077   -8.5406   -0.0000 N   0  0  0  0  0  0  0  0  0  0  0  0
  -14.1949   -7.3340   -0.0000 C   0  0  0  0  0  0  0  0  0  0  0  0
  1  2  1  0  0  0  0
  2  3  2  0  0  0  0
  2  4  1  0  0  0  0
  3  5  1  0  0  0  0
  4  6  2  0  0  0  0
  5  7  1  0  0  0  0
  5  8  2  0  0  0  0
  6  9  1  0  0  0  0
  9 10  1  0  0  0  0
 10 11  1  0  0  0  0
 11 12  2  0  0  0  0
 11 13  1  0  0  0  0
 13 14  1  0  0  0  0
 13 15  1  0  0  0  0
 14 16  1  0  0  0  0
 14 17  1  1  0  0  0
 15 18  1  0  0  0  0
 16 19  1  1  0  0  0
 16 20  1  0  0  0  0
 19 21  1  0  0  0  0
 21 22  2  0  0  0  0
 21 23  1  0  0  0  0
 22 24  1  0  0  0  0
 23 25  2  0  0  0  0
 23 26  1  0  0  0  0
 24 27  2  0  0  0  0
 25 28  1  0  0  0  0
 26 29  2  0  0  0  0
  6  8  1  0  0  0  0
 18 20  1  0  0  0  0
 25 27  1  0  0  0  0
 28 29  1  0  0  0  0
M  END
>  <MolRegNo>
2793881

>  <m>
=

>  <Value>
1590

>  <Unit>
nM

>  <Type>
IC50

>  <pValue>
5.8

>  <Ligand Efficiency>
0

>  <Binding Efficiency>
0

>  <Surface Efficiency>
0

>  <Assay Index>
1618123

>  <Assay Category>


>  <Assay Organism>
Homo sapiens

>  <Target ID>
17045

>  <Target Name>
Cytochrome P450 3A4

>  <Target Organism>
Homo sapiens

>  <Target Description>
Target is a single protein chain

>  <Sequence Accession>
P08684

>  <Reference>


>  <Pubmed ID>
36538993

>  <DOI>
10.1016/j.bmcl.2022.129108

$$$$
2809707
Actelion Java MolfileCreator 1.0

 33 36  0  0  0  0  0  0  0  0999 V2000
    0.0000   -0.0000   -0.0000 Cl  0  0  0  0  0  0  0  0  0  0  0  0
   -1.3002   -0.7446   -0.0000 C   0  0  0  0  0  0  0  0  0  0  0  0
   -2.6003   -0.0000   -0.0000 C   0  0  0  0  0  0  0  0  0  0  0  0
   -1.3002   -2.2339   -0.0000 C   0  0  0  0  0  0  0  0  0  0  0  0
   -2.6240    1.5011   -0.0000 F   0  0  0  0  0  0  0  0  0  0  0  0
   -3.9005   -0.7328   -0.0000 C   0  0  0  0  0  0  0  0  0  0  0  0
   -2.6003   -2.9667   -0.0000 C   0  0  0  0  0  0  0  0  0  0  0  0
   -5.2006    0.0236   -0.0000 C   0  0  0  0  0  0  0  0  0  0  0  0
   -3.9123   -2.2103   -0.0000 C   0  0  0  0  0  0  0  0  0  0  0  0
   -6.5008   -0.7092   -0.0000 C   0  0  0  0  0  0  0  0  0  0  0  0
   -5.2243    1.5366   -0.0000 C   0  0  0  0  0  0  0  0  0  0  0  0
   -7.8010    0.0473   -0.0000 C   0  0  0  0  0  0  0  0  0  0  0  0
   -6.5245    2.2812   -0.0000 C   0  0  0  0  0  0  0  0  0  0  0  0
   -7.8128    1.5484   -0.0000 C   0  0  0  0  0  0  0  0  0  0  0  0
   -9.1130    2.3048   -0.0000 C   0  0  0  0  0  0  0  0  0  0  0  0
  -10.4249    1.5720   -0.0000 N   0  0  0  0  0  0  0  0  0  0  0  0
   -9.1248    3.8177   -0.0000 C   0  0  0  0  0  0  0  0  0  0  0  0
  -11.7251    2.3285   -0.0000 C   0  0  0  0  0  0  0  0  0  0  0  0
   -7.8483    4.5860   -0.0000 C   0  0  0  0  0  0  0  0  0  0  0  0
  -10.4249    4.5742   -0.0000 C   0  0  0  0  0  0  0  0  0  0  0  0
  -11.7369    3.8296   -0.0000 C   0  0  0  0  0  0  0  0  0  0  0  0
  -13.0253    1.5957   -0.0000 C   0  0  0  0  0  0  0  0  0  0  0  0
   -6.5717    5.3425   -0.0000 N   0  0  0  0  0  0  0  0  0  0  0  0
  -10.4486    6.0753   -0.0000 N   0  0  0  0  0  0  0  0  0  0  0  0
  -13.0371    4.5860   -0.0000 C   0  0  0  0  0  0  0  0  0  0  0  0
  -14.3254    2.3521   -0.0000 N   0  0  0  0  0  0  0  0  0  0  0  0
  -11.7606    6.8318   -0.0000 C   0  0  0  0  0  0  0  0  0  0  0  0
  -14.3372    3.8532   -0.0000 C   0  0  0  0  0  0  0  0  0  0  0  0
  -11.7842    8.3329   -0.0000 C   0  0  0  0  0  0  0  0  0  0  0  0
  -13.0607    6.0871   -0.0000 C   0  0  0  0  0  0  0  0  0  0  0  0
  -13.0962    9.0893   -0.0000 O   0  0  0  0  0  0  0  0  0  0  0  0
  -10.5077    9.1011   -0.0000 N   0  0  0  0  0  0  0  0  0  0  0  0
  -14.3727    6.8436   -0.0000 C   0  0  0  0  0  0  0  0  0  0  0  0
  1  2  1  0  0  0  0
  2  3  2  0  0  0  0
  2  4  1  0  0  0  0
  3  5  1  0  0  0  0
  3  6  1  0  0  0  0
  4  7  2  0  0  0  0
  6  8  1  0  0  0  0
  6  9  2  0  0  0  0
  8 10  2  0  0  0  0
  8 11  1  0  0  0  0
 10 12  1  0  0  0  0
 11 13  2  0  0  0  0
 12 14  2  0  0  0  0
 14 15  1  0  0  0  0
 15 16  2  0  0  0  0
 15 17  1  0  0  0  0
 16 18  1  0  0  0  0
 17 19  1  0  0  0  0
 17 20  2  0  0  0  0
 18 21  1  0  0  0  0
 18 22  2  0  0  0  0
 19 23  3  0  0  0  0
 20 24  1  0  0  0  0
 21 25  2  0  0  0  0
 22 26  1  0  0  0  0
 27 24  1  1  0  0  0
 25 28  1  0  0  0  0
 27 29  1  0  0  0  0
 27 30  1  0  0  0  0
 29 31  2  0  0  0  0
 29 32  1  0  0  0  0
 30 33  1  0  0  0  0
  7  9  1  0  0  0  0
 13 14  1  0  0  0  0
 20 21  1  0  0  0  0
 26 28  2  0  0  0  0
M  END
>  <MolRegNo>
2809707

>  <m>
=

>  <Value>
10000

>  <Unit>
nM

>  <Type>
IC50

>  <pValue>
5

>  <Ligand Efficiency>
0

>  <Binding Efficiency>
0

>  <Surface Efficiency>
0

>  <Assay Index>
1620667

>  <Assay Category>


>  <Assay Organism>
Homo sapiens

>  <Target ID>
17045

>  <Target Name>
Cytochrome P450 3A4

>  <Target Organism>
Homo sapiens

>  <Target Description>
Target is a single protein chain

>  <Sequence Accession>
P08684

>  <Reference>
J Med Chem 64 (21.0), 15883-15911 (2021)

>  <Pubmed ID>
34699202

>  <DOI>
10.1021/acs.jmedchem.1c01245

$$$$
2801310
Actelion Java MolfileCreator 1.0

 33 36  0  0  0  0  0  0  0  0999 V2000
    0.0000   -0.0000   -0.0000 O   0  0  0  0  0  0  0  0  0  0  0  0
   -0.0119    1.5064   -0.0000 C   0  0  0  0  0  0  0  0  0  0  0  0
    1.2810    2.2655   -0.0000 N   0  0  0  0  0  0  0  0  0  0  0  0
   -1.3285    2.2655   -0.0000 C   0  0  0  0  0  0  0  0  0  0  0  0
    2.5739    1.5301   -0.0000 C   0  0  0  0  0  0  0  0  0  0  0  0
   -2.6332    1.5301   -0.0000 C   0  0  0  0  0  0  0  0  0  0  0  0
   -1.3403    3.7838   -0.0000 C   0  0  0  0  0  0  0  0  0  0  0  0
    3.8668    2.2893   -0.0000 C   0  0  0  0  0  0  0  0  0  0  0  0
   -3.9499    2.2893   -0.0000 C   0  0  0  0  0  0  0  0  0  0  0  0
   -2.6451    4.5429   -0.0000 C   0  0  0  0  0  0  0  0  0  0  0  0
    5.1597    1.5538   -0.0000 C   0  0  0  0  0  0  0  0  0  0  0  0
   -3.9617    3.8075   -0.0000 C   0  0  0  0  0  0  0  0  0  0  0  0
    6.4526    2.3130   -0.0000 C   0  0  0  0  0  0  0  0  0  0  0  0
   -5.2783    4.5667   -0.0000 B   0  0  0  0  0  0  0  0  0  0  0  0
    7.7455    1.5776   -0.0000 N   0  0  0  0  0  0  0  0  0  0  0  0
   -5.2902    6.0731   -0.0000 N   0  0  0  0  0  0  0  0  0  0  0  0
   -6.5831    3.8312   -0.0000 C   0  0  0  0  0  0  0  0  0  0  0  0
    7.7337    0.0949   -0.0000 C   0  0  0  0  0  0  0  0  0  0  0  0
    9.0384    2.3367   -0.0000 C   0  0  0  0  0  0  0  0  0  0  0  0
   -6.5950    6.8322   -0.0000 C   0  0  0  0  0  0  0  0  0  0  0  0
   -7.8997    4.5904   -0.0000 C   0  0  0  0  0  0  0  0  0  0  0  0
    9.0265   -0.6405   -0.0000 C   0  0  0  0  0  0  0  0  0  0  0  0
   10.3313    1.6013   -0.0000 C   0  0  0  0  0  0  0  0  0  0  0  0
   -7.9116    6.0968   -0.0000 C   0  0  0  0  0  0  0  0  0  0  0  0
   10.3194    0.1186   -0.0000 N   0  0  0  0  0  0  0  0  0  0  0  0
   11.6123   -0.6168   -0.0000 C   0  0  0  0  0  0  0  0  0  0  0  0
   12.9052    0.1423   -0.0000 C   0  0  0  0  0  0  0  0  0  0  0  0
   11.6005   -2.1113   -0.0000 C   0  0  0  0  0  0  0  0  0  0  0  0
   12.8934    1.6487   -0.0000 O   0  0  0  0  0  0  0  0  0  0  0  0
   14.1863   -0.5931   -0.0000 C   0  0  0  0  0  0  0  0  0  0  0  0
   12.8934   -2.8467   -0.0000 C   0  0  0  0  0  0  0  0  0  0  0  0
   14.1863    2.4079   -0.0000 C   0  0  0  0  0  0  0  0  0  0  0  0
   14.1744   -2.0876   -0.0000 C   0  0  0  0  0  0  0  0  0  0  0  0
  1  2  2  0  0  0  0
  2  3  1  0  0  0  0
  2  4  1  0  0  0  0
  3  5  1  0  0  0  0
  4  6  2  0  0  0  0
  4  7  1  0  0  0  0
  5  8  1  0  0  0  0
  6  9  1  0  0  0  0
  7 10  2  0  0  0  0
  8 11  1  0  0  0  0
  9 12  2  0  0  0  0
 11 13  1  0  0  0  0
 12 14  1  0  0  0  0
 13 15  1  0  0  0  0
 14 16  1  0  0  0  0
 14 17  1  0  0  0  0
 15 18  1  0  0  0  0
 15 19  1  0  0  0  0
 16 20  1  0  0  0  0
 17 21  2  0  0  0  0
 18 22  1  0  0  0  0
 19 23  1  0  0  0  0
 20 24  2  0  0  0  0
 22 25  1  0  0  0  0
 25 26  1  0  0  0  0
 26 27  2  0  0  0  0
 26 28  1  0  0  0  0
 27 29  1  0  0  0  0
 27 30  1  0  0  0  0
 28 31  2  0  0  0  0
 29 32  1  0  0  0  0
 30 33  2  0  0  0  0
 10 12  1  0  0  0  0
 21 24  1  0  0  0  0
 23 25  1  0  0  0  0
 31 33  1  0  0  0  0
M  END
>  <MolRegNo>
2801310

>  <m>
=

>  <Value>
11000

>  <Unit>
nM

>  <Type>
IC50

>  <pValue>
4.96

>  <Ligand Efficiency>
0

>  <Binding Efficiency>
0

>  <Surface Efficiency>
0

>  <Assay Index>
1624847

>  <Assay Category>


>  <Assay Organism>
Homo sapiens

>  <Target ID>
17045

>  <Target Name>
Cytochrome P450 3A4

>  <Target Organism>
Homo sapiens

>  <Target Description>
Target is a single protein chain

>  <Sequence Accession>
P08684

>  <Reference>
J Med Chem 64 (19.0), 14046-14128 (2021)

>  <Pubmed ID>
34591488

>  <DOI>
10.1021/acs.jmedchem.1c01215

$$$$
2798804
Actelion Java MolfileCreator 1.0

 35 37  0  0  0  0  0  0  0  0999 V2000
    0.0000   -0.0000   -0.0000 S   0  0  0  0  0  0  0  0  0  0  0  0
    1.2013    0.8951   -0.0000 C   0  0  0  0  0  0  0  0  0  0  0  0
   -1.2248    0.8951   -0.0000 C   0  0  0  0  0  0  0  0  0  0  0  0
    0.7184    2.3319   -0.0000 N   0  0  0  0  0  0  0  0  0  0  0  0
    2.6146    0.4475   -0.0000 N   0  0  0  0  0  0  0  0  0  0  0  0
   -0.7773    2.3319   -0.0000 N   0  0  0  0  0  0  0  0  0  0  0  0
   -2.6617    0.4475   -0.0000 C   0  0  0  0  0  0  0  0  0  0  0  0
    3.7098    1.4604   -0.0000 C   0  0  0  0  0  0  0  0  0  0  0  0
   -3.7805    1.4604   -0.0000 C   0  0  0  0  0  0  0  0  0  0  0  0
    3.3801    2.9325   -0.0000 O   0  0  0  0  0  0  0  0  0  0  0  0
    5.1231    1.0128   -0.0000 C   0  0  0  0  0  0  0  0  0  0  0  0
   -5.2173    1.0011   -0.0000 C   0  0  0  0  0  0  0  0  0  0  0  0
   -3.4743    2.9443   -0.0000 C   0  0  0  0  0  0  0  0  0  0  0  0
    5.4293   -0.4358   -0.0000 N   0  0  0  0  0  0  0  0  0  0  0  0
    6.1713    2.0846   -0.0000 C   0  0  0  0  0  0  0  0  0  0  0  0
   -6.3362    2.0139   -0.0000 C   0  0  0  0  0  0  0  0  0  0  0  0
   -4.6167    3.9572   -0.0000 C   0  0  0  0  0  0  0  0  0  0  0  0
    6.8426   -0.8833   -0.0000 C   0  0  0  0  0  0  0  0  0  0  0  0
    5.9240    3.5685   -0.0000 C   0  0  0  0  0  0  0  0  0  0  0  0
   -6.0417    3.4861   -0.0000 C   0  0  0  0  0  0  0  0  0  0  0  0
    7.9379    0.1296   -0.0000 O   0  0  0  0  0  0  0  0  0  0  0  0
    7.1488   -2.3319   -0.0000 C   0  0  0  0  0  0  0  0  0  0  0  0
    7.0781    4.5225   -0.0000 C   0  0  0  0  0  0  0  0  0  0  0  0
    4.4636    3.9689   -0.0000 C   0  0  0  0  0  0  0  0  0  0  0  0
   -7.1135    4.5578   -0.0000 C   0  0  0  0  0  0  0  0  0  0  0  0
    5.6884   -1.9315   -0.0000 C   0  0  0  0  0  0  0  0  0  0  0  0
    8.5621   -2.7794   -0.0000 C   0  0  0  0  0  0  0  0  0  0  0  0
    6.0300   -3.3212   -0.0000 C   0  0  0  0  0  0  0  0  0  0  0  0
   -8.1852    5.6295   -0.0000 N   0  0  0  0  0  0  0  0  0  0  0  0
    4.9229   -3.2152   -0.0000 F   0  0  0  0  0  0  0  0  0  0  0  0
    4.6167   -0.8597   -0.0000 F   0  0  0  0  0  0  0  0  0  0  0  0
    4.1809   -1.9197   -0.0000 F   0  0  0  0  0  0  0  0  0  0  0  0
    8.8683   -4.2280   -0.0000 C   0  0  0  0  0  0  0  0  0  0  0  0
    6.3362   -4.7698   -0.0000 C   0  0  0  0  0  0  0  0  0  0  0  0
    7.7495   -5.2173   -0.0000 C   0  0  0  0  0  0  0  0  0  0  0  0
  1  2  1  0  0  0  0
  1  3  1  0  0  0  0
  2  4  2  0  0  0  0
  2  5  1  0  0  0  0
  3  6  2  0  0  0  0
  3  7  1  0  0  0  0
  5  8  1  0  0  0  0
  7  9  1  0  0  0  0
  8 10  2  0  0  0  0
  8 11  1  0  0  0  0
  9 12  2  0  0  0  0
  9 13  1  0  0  0  0
 11 14  1  6  0  0  0
 11 15  1  0  0  0  0
 12 16  1  0  0  0  0
 13 17  2  0  0  0  0
 14 18  1  0  0  0  0
 15 19  1  0  0  0  0
 16 20  2  0  0  0  0
 18 21  2  0  0  0  0
 18 22  1  0  0  0  0
 19 23  1  0  0  0  0
 19 24  1  0  0  0  0
 20 25  1  0  0  0  0
 22 26  1  0  0  0  0
 22 27  1  0  0  0  0
 22 28  1  0  0  0  0
 25 29  3  0  0  0  0
 26 30  1  0  0  0  0
 26 31  1  0  0  0  0
 26 32  1  0  0  0  0
 27 33  1  0  0  0  0
 28 34  1  0  0  0  0
 33 35  1  0  0  0  0
  4  6  1  0  0  0  0
 17 20  1  0  0  0  0
 34 35  1  0  0  0  0
M  END
>  <MolRegNo>
2798804

>  <m>
=

>  <Value>
400

>  <Unit>
nM

>  <Type>
IC50

>  <pValue>
6.4

>  <Ligand Efficiency>
0

>  <Binding Efficiency>
0

>  <Surface Efficiency>
0

>  <Assay Index>
1628642

>  <Assay Category>


>  <Assay Organism>
Homo sapiens

>  <Target ID>
17045

>  <Target Name>
Cytochrome P450 3A4

>  <Target Organism>
Homo sapiens

>  <Target Description>
Target is a single protein chain

>  <Sequence Accession>
P08684

>  <Reference>
J Med Chem 66 (5), 3431-3447 (2023)

>  <Pubmed ID>
36802665

>  <DOI>
10.1021/acs.jmedchem.2c01933

$$$$
2796076
Actelion Java MolfileCreator 1.0

 33 36  0  0  0  0  0  0  0  0999 V2000
    0.0000   -0.0000   -0.0000 O   0  0  0  0  0  0  0  0  0  0  0  0
    0.9768    1.1436   -0.0000 C   0  0  0  0  0  0  0  0  0  0  0  0
    2.4063    0.8577   -0.0000 N   0  0  0  0  0  0  0  0  0  0  0  0
    0.5122    2.5969   -0.0000 C   0  0  0  0  0  0  0  0  0  0  0  0
   -0.9411    3.0615   -0.0000 C   0  0  0  0  0  0  0  0  0  0  0  0
    1.4057    3.8239   -0.0000 C   0  0  0  0  0  0  0  0  0  0  0  0
   -0.9530    4.5863   -0.0000 N   0  0  0  0  0  0  0  0  0  0  0  0
   -2.2396    2.3229   -0.0000 N   0  0  0  0  0  0  0  0  0  0  0  0
    0.4884    5.0509   -0.0000 N   0  0  0  0  0  0  0  0  0  0  0  0
    2.8352    3.8358   -0.0000 C   0  0  0  0  0  0  0  0  0  0  0  0
   -2.2515    5.3487   -0.0000 C   0  0  0  0  0  0  0  0  0  0  0  0
   -3.5380    3.0853   -0.0000 C   0  0  0  0  0  0  0  0  0  0  0  0
    3.5738    2.5612   -0.0000 C   0  0  0  0  0  0  0  0  0  0  0  0
    3.5738    5.1343   -0.0000 C   0  0  0  0  0  0  0  0  0  0  0  0
   -2.2634    6.8021   -0.0000 C   0  0  0  0  0  0  0  0  0  0  0  0
   -3.5499    4.6101   -0.0000 C   0  0  0  0  0  0  0  0  0  0  0  0
    5.0747    2.5731   -0.0000 C   0  0  0  0  0  0  0  0  0  0  0  0
    5.0747    5.1462   -0.0000 C   0  0  0  0  0  0  0  0  0  0  0  0
   -0.9887    7.5645   -0.0000 C   0  0  0  0  0  0  0  0  0  0  0  0
   -3.5618    7.5645   -0.0000 C   0  0  0  0  0  0  0  0  0  0  0  0
    5.8133    1.2985   -0.0000 O   0  0  0  0  0  0  0  0  0  0  0  0
    5.8133    3.8716   -0.0000 C   0  0  0  0  0  0  0  0  0  0  0  0
    5.8133    6.4447   -0.0000 O   0  0  0  0  0  0  0  0  0  0  0  0
   -1.0007    9.0893   -0.0000 C   0  0  0  0  0  0  0  0  0  0  0  0
   -3.5738    9.0893   -0.0000 C   0  0  0  0  0  0  0  0  0  0  0  0
    7.3143    1.3104   -0.0000 C   0  0  0  0  0  0  0  0  0  0  0  0
    7.3143    3.8835   -0.0000 C   0  0  0  0  0  0  0  0  0  0  0  0
    7.3143    6.4566   -0.0000 C   0  0  0  0  0  0  0  0  0  0  0  0
   -2.2991    9.8636   -0.0000 N   0  0  0  0  0  0  0  0  0  0  0  0
   -2.3110   11.3884   -0.0000 C   0  0  0  0  0  0  0  0  0  0  0  0
   -1.0364   12.1508   -0.0000 O   0  0  0  0  0  0  0  0  0  0  0  0
   -3.6095   12.1508   -0.0000 C   0  0  0  0  0  0  0  0  0  0  0  0
   -3.6214   13.6756   -0.0000 C   0  0  0  0  0  0  0  0  0  0  0  0
  1  2  2  0  0  0  0
  2  3  1  0  0  0  0
  2  4  1  0  0  0  0
  4  5  2  0  0  0  0
  4  6  1  0  0  0  0
  5  7  1  0  0  0  0
  5  8  1  0  0  0  0
  6  9  2  0  0  0  0
  6 10  1  0  0  0  0
  7 11  1  0  0  0  0
  8 12  1  0  0  0  0
 10 13  2  0  0  0  0
 10 14  1  0  0  0  0
 11 15  1  1  0  0  0
 11 16  1  0  0  0  0
 13 17  1  0  0  0  0
 14 18  2  0  0  0  0
 15 19  1  0  0  0  0
 15 20  1  0  0  0  0
 17 21  1  0  0  0  0
 17 22  2  0  0  0  0
 18 23  1  0  0  0  0
 19 24  1  0  0  0  0
 20 25  1  0  0  0  0
 21 26  1  0  0  0  0
 22 27  1  0  0  0  0
 23 28  1  0  0  0  0
 24 29  1  0  0  0  0
 29 30  1  0  0  0  0
 30 31  2  0  0  0  0
 30 32  1  0  0  0  0
 32 33  2  0  0  0  0
  7  9  1  0  0  0  0
 12 16  1  0  0  0  0
 18 22  1  0  0  0  0
 25 29  1  0  0  0  0
M  END
>  <MolRegNo>
2796076

>  <m>
=

>  <Value>
15900

>  <Unit>
nM

>  <Type>
IC50

>  <pValue>
4.8

>  <Ligand Efficiency>
0

>  <Binding Efficiency>
0

>  <Surface Efficiency>
0

>  <Assay Index>
1629395

>  <Assay Category>


>  <Assay Organism>
Homo sapiens

>  <Target ID>
17045

>  <Target Name>
Cytochrome P450 3A4

>  <Target Organism>
Homo sapiens

>  <Target Description>
Target is a single protein chain

>  <Sequence Accession>
P08684

>  <Reference>
J Med Chem 66 (6), 4025-4044 (2023)

>  <Pubmed ID>
36912866

>  <DOI>
10.1021/acs.jmedchem.2c01938

$$$$
2795678
Actelion Java MolfileCreator 1.0

 31 35  0  0  0  0  0  0  0  0999 V2000
    0.0000   -0.0000   -0.0000 Cl  0  0  0  0  0  0  0  0  0  0  0  0
   -1.4548    0.3989   -0.0000 C   0  0  0  0  0  0  0  0  0  0  0  0
   -1.8537    1.8537   -0.0000 C   0  0  0  0  0  0  0  0  0  0  0  0
   -2.5108   -0.6453   -0.0000 C   0  0  0  0  0  0  0  0  0  0  0  0
   -3.2968    2.2526   -0.0000 C   0  0  0  0  0  0  0  0  0  0  0  0
   -3.9656   -0.2581   -0.0000 C   0  0  0  0  0  0  0  0  0  0  0  0
   -3.6957    3.7075   -0.0000 F   0  0  0  0  0  0  0  0  0  0  0  0
   -4.3645    1.2084   -0.0000 C   0  0  0  0  0  0  0  0  0  0  0  0
   -5.8193    1.6074   -0.0000 C   0  0  0  0  0  0  0  0  0  0  0  0
   -6.8870    0.5632   -0.0000 N   0  0  0  0  0  0  0  0  0  0  0  0
   -8.3418    0.9621   -0.0000 C   0  0  0  0  0  0  0  0  0  0  0  0
   -8.8111    2.3934   -0.0000 N   0  0  0  0  0  0  0  0  0  0  0  0
   -9.5620    0.0939   -0.0000 N   0  0  0  0  0  0  0  0  0  0  0  0
  -10.3129    2.4052   -0.0000 C   0  0  0  0  0  0  0  0  0  0  0  0
  -10.7822    0.9855   -0.0000 C   0  0  0  0  0  0  0  0  0  0  0  0
  -11.0638    3.7075   -0.0000 C   0  0  0  0  0  0  0  0  0  0  0  0
  -12.2370    0.6101   -0.0000 C   0  0  0  0  0  0  0  0  0  0  0  0
  -12.5655    3.7192   -0.0000 C   0  0  0  0  0  0  0  0  0  0  0  0
  -10.3246    5.0098   -0.0000 C   0  0  0  0  0  0  0  0  0  0  0  0
  -12.6359   -0.8213   -0.0000 N   0  0  0  0  0  0  0  0  0  0  0  0
  -13.3047    1.6777   -0.0000 C   0  0  0  0  0  0  0  0  0  0  0  0
  -13.3164    5.0215   -0.0000 C   0  0  0  0  0  0  0  0  0  0  0  0
  -11.0872    6.3121   -0.0000 C   0  0  0  0  0  0  0  0  0  0  0  0
  -14.0790   -1.1967   -0.0000 C   0  0  0  0  0  0  0  0  0  0  0  0
  -14.7478    1.2906   -0.0000 C   0  0  0  0  0  0  0  0  0  0  0  0
  -12.5773    6.3238   -0.0000 C   0  0  0  0  0  0  0  0  0  0  0  0
  -14.7830    5.3383   -0.0000 C   0  0  0  0  0  0  0  0  0  0  0  0
  -15.1467   -0.1291   -0.0000 C   0  0  0  0  0  0  0  0  0  0  0  0
  -14.4779   -2.6281   -0.0000 C   0  0  0  0  0  0  0  0  0  0  0  0
  -13.5862    7.4384   -0.0000 N   0  0  0  0  0  0  0  0  0  0  0  0
  -14.9472    6.8283   -0.0000 N   0  0  0  0  0  0  0  0  0  0  0  0
  1  2  1  0  0  0  0
  2  3  2  0  0  0  0
  2  4  1  0  0  0  0
  3  5  1  0  0  0  0
  4  6  2  0  0  0  0
  5  7  1  0  0  0  0
  5  8  2  0  0  0  0
  8  9  1  0  0  0  0
  9 10  1  0  0  0  0
 10 11  1  0  0  0  0
 11 12  2  0  0  0  0
 11 13  1  0  0  0  0
 12 14  1  0  0  0  0
 13 15  1  0  0  0  0
 14 16  1  0  0  0  0
 15 17  1  0  0  0  0
 16 18  2  0  0  0  0
 16 19  1  0  0  0  0
 17 20  2  0  0  0  0
 17 21  1  0  0  0  0
 18 22  1  0  0  0  0
 19 23  2  0  0  0  0
 20 24  1  0  0  0  0
 21 25  2  0  0  0  0
 22 26  2  0  0  0  0
 22 27  1  0  0  0  0
 24 28  2  0  0  0  0
 24 29  1  0  0  0  0
 26 30  1  0  0  0  0
 27 31  2  0  0  0  0
  6  8  1  0  0  0  0
 14 15  2  0  0  0  0
 23 26  1  0  0  0  0
 25 28  1  0  0  0  0
 30 31  1  0  0  0  0
M  END
>  <MolRegNo>
2795678

>  <m>
=

>  <Value>
8700

>  <Unit>
nM

>  <Type>
IC50

>  <pValue>
5.06

>  <Ligand Efficiency>
0

>  <Binding Efficiency>
0

>  <Surface Efficiency>
0

>  <Assay Index>
1632579

>  <Assay Category>


>  <Assay Organism>
Homo sapiens

>  <Target ID>
17045

>  <Target Name>
Cytochrome P450 3A4

>  <Target Organism>
Homo sapiens

>  <Target Description>
Target is a single protein chain

>  <Sequence Accession>
P08684

>  <Reference>


>  <Pubmed ID>
36858078

>  <DOI>
10.1016/j.bmcl.2023.129205

$$$$
2798361
Actelion Java MolfileCreator 1.0

 31 35  0  0  0  0  0  0  0  0999 V2000
    0.0000   -0.0000   -0.0000 Cl  0  0  0  0  0  0  0  0  0  0  0  0
   -1.0692   -1.0457   -0.0000 C   0  0  0  0  0  0  0  0  0  0  0  0
   -2.5143   -0.6462   -0.0000 C   0  0  0  0  0  0  0  0  0  0  0  0
   -0.6932   -2.4791   -0.0000 C   0  0  0  0  0  0  0  0  0  0  0  0
   -2.9138    0.8107   -0.0000 F   0  0  0  0  0  0  0  0  0  0  0  0
   -3.5835   -1.6919   -0.0000 C   0  0  0  0  0  0  0  0  0  0  0  0
   -1.7506   -3.5248   -0.0000 C   0  0  0  0  0  0  0  0  0  0  0  0
   -3.2076   -3.1253   -0.0000 C   0  0  0  0  0  0  0  0  0  0  0  0
   -5.0404   -1.2924   -0.0000 C   0  0  0  0  0  0  0  0  0  0  0  0
   -6.1096   -2.3381   -0.0000 N   0  0  0  0  0  0  0  0  0  0  0  0
   -7.5665   -1.9386   -0.0000 C   0  0  0  0  0  0  0  0  0  0  0  0
   -8.0365   -0.5052   -0.0000 N   0  0  0  0  0  0  0  0  0  0  0  0
   -8.7885   -2.8081   -0.0000 N   0  0  0  0  0  0  0  0  0  0  0  0
   -9.5404   -0.4935   -0.0000 C   0  0  0  0  0  0  0  0  0  0  0  0
  -10.0104   -1.9151   -0.0000 C   0  0  0  0  0  0  0  0  0  0  0  0
  -10.3041    0.8107   -0.0000 C   0  0  0  0  0  0  0  0  0  0  0  0
  -11.4673   -2.2911   -0.0000 C   0  0  0  0  0  0  0  0  0  0  0  0
  -11.8080    0.8225   -0.0000 C   0  0  0  0  0  0  0  0  0  0  0  0
   -9.5639    2.1149   -0.0000 C   0  0  0  0  0  0  0  0  0  0  0  0
  -11.8668   -3.7245   -0.0000 N   0  0  0  0  0  0  0  0  0  0  0  0
  -12.5365   -1.2219   -0.0000 C   0  0  0  0  0  0  0  0  0  0  0  0
  -12.5600    2.1266   -0.0000 C   0  0  0  0  0  0  0  0  0  0  0  0
  -10.3276    3.4190   -0.0000 C   0  0  0  0  0  0  0  0  0  0  0  0
  -13.3119   -4.1005   -0.0000 C   0  0  0  0  0  0  0  0  0  0  0  0
  -13.9817   -1.6097   -0.0000 C   0  0  0  0  0  0  0  0  0  0  0  0
  -11.8198    3.4308   -0.0000 C   0  0  0  0  0  0  0  0  0  0  0  0
  -14.0287    2.4439   -0.0000 C   0  0  0  0  0  0  0  0  0  0  0  0
  -14.3811   -3.0313   -0.0000 C   0  0  0  0  0  0  0  0  0  0  0  0
  -13.7114   -5.5339   -0.0000 C   0  0  0  0  0  0  0  0  0  0  0  0
  -12.8302    4.5470   -0.0000 N   0  0  0  0  0  0  0  0  0  0  0  0
  -14.1931    3.9360   -0.0000 N   0  0  0  0  0  0  0  0  0  0  0  0
  1  2  1  0  0  0  0
  2  3  2  0  0  0  0
  2  4  1  0  0  0  0
  3  5  1  0  0  0  0
  3  6  1  0  0  0  0
  4  7  2  0  0  0  0
  6  8  2  0  0  0  0
  6  9  1  0  0  0  0
  9 10  1  0  0  0  0
 10 11  1  0  0  0  0
 11 12  2  0  0  0  0
 11 13  1  0  0  0  0
 12 14  1  0  0  0  0
 13 15  1  0  0  0  0
 14 16  1  0  0  0  0
 15 17  1  0  0  0  0
 16 18  2  0  0  0  0
 16 19  1  0  0  0  0
 17 20  2  0  0  0  0
 17 21  1  0  0  0  0
 18 22  1  0  0  0  0
 19 23  2  0  0  0  0
 20 24  1  0  0  0  0
 21 25  2  0  0  0  0
 22 26  2  0  0  0  0
 22 27  1  0  0  0  0
 24 28  2  0  0  0  0
 24 29  1  0  0  0  0
 26 30  1  0  0  0  0
 27 31  2  0  0  0  0
  7  8  1  0  0  0  0
 14 15  2  0  0  0  0
 23 26  1  0  0  0  0
 25 28  1  0  0  0  0
 30 31  1  0  0  0  0
M  END
>  <MolRegNo>
2798361

>  <m>
=

>  <Value>
8000

>  <Unit>
nM

>  <Type>
IC50

>  <pValue>
5.1

>  <Ligand Efficiency>
0

>  <Binding Efficiency>
0

>  <Surface Efficiency>
0

>  <Assay Index>
1632579

>  <Assay Category>


>  <Assay Organism>
Homo sapiens

>  <Target ID>
17045

>  <Target Name>
Cytochrome P450 3A4

>  <Target Organism>
Homo sapiens

>  <Target Description>
Target is a single protein chain

>  <Sequence Accession>
P08684

>  <Reference>


>  <Pubmed ID>
36858078

>  <DOI>
10.1016/j.bmcl.2023.129205

$$$$
2789606
Actelion Java MolfileCreator 1.0

 32 36  0  0  0  0  0  0  0  0999 V2000
    0.0000   -0.0000   -0.0000 O   0  0  0  0  0  0  0  0  0  0  0  0
    1.2873   -0.7323   -0.0000 C   0  0  0  0  0  0  0  0  0  0  0  0
    1.2755   -2.2204   -0.0000 N   0  0  0  0  0  0  0  0  0  0  0  0
    2.5747    0.0236   -0.0000 C   0  0  0  0  0  0  0  0  0  0  0  0
   -0.0354   -2.9526   -0.0000 C   0  0  0  0  0  0  0  0  0  0  0  0
    4.0628    0.0354   -0.0000 C   0  0  0  0  0  0  0  0  0  0  0  0
    3.3188    1.3346   -0.0000 C   0  0  0  0  0  0  0  0  0  0  0  0
   -1.3464   -2.1968   -0.0000 C   0  0  0  0  0  0  0  0  0  0  0  0
   -0.0472   -4.4289   -0.0000 C   0  0  0  0  0  0  0  0  0  0  0  0
   -2.6574   -2.9290   -0.0000 C   0  0  0  0  0  0  0  0  0  0  0  0
   -1.3464   -5.1730   -0.0000 C   0  0  0  0  0  0  0  0  0  0  0  0
   -2.6692   -4.4171   -0.0000 C   0  0  0  0  0  0  0  0  0  0  0  0
   -3.9801   -5.1494   -0.0000 N   0  0  0  0  0  0  0  0  0  0  0  0
   -3.9920   -6.6375   -0.0000 C   0  0  0  0  0  0  0  0  0  0  0  0
   -5.2911   -4.3935   -0.0000 C   0  0  0  0  0  0  0  0  0  0  0  0
   -5.3029   -7.3698   -0.0000 O   0  0  0  0  0  0  0  0  0  0  0  0
   -2.7046   -7.3698   -0.0000 C   0  0  0  0  0  0  0  0  0  0  0  0
   -5.3029   -2.8818   -0.0000 C   0  0  0  0  0  0  0  0  0  0  0  0
   -2.7164   -8.8579   -0.0000 N   0  0  0  0  0  0  0  0  0  0  0  0
   -6.6139   -2.1259   -0.0000 C   0  0  0  0  0  0  0  0  0  0  0  0
   -4.2164   -1.8661   -0.0000 C   0  0  0  0  0  0  0  0  0  0  0  0
   -3.8266   -9.8500   -0.0000 N   0  0  0  0  0  0  0  0  0  0  0  0
   -1.4291   -9.5901   -0.0000 C   0  0  0  0  0  0  0  0  0  0  0  0
   -6.2950   -0.6260   -0.0000 N   0  0  0  0  0  0  0  0  0  0  0  0
   -4.8305   -0.4724   -0.0000 C   0  0  0  0  0  0  0  0  0  0  0  0
   -3.2361  -11.2200   -0.0000 N   0  0  0  0  0  0  0  0  0  0  0  0
   -1.7716  -11.0665   -0.0000 C   0  0  0  0  0  0  0  0  0  0  0  0
    0.0118   -9.1295   -0.0000 C   0  0  0  0  0  0  0  0  0  0  0  0
   -7.3698    0.4488   -0.0000 C   0  0  0  0  0  0  0  0  0  0  0  0
   -0.6614  -12.0940   -0.0000 C   0  0  0  0  0  0  0  0  0  0  0  0
    1.1220  -10.1570   -0.0000 C   0  0  0  0  0  0  0  0  0  0  0  0
    0.7795  -11.6216   -0.0000 C   0  0  0  0  0  0  0  0  0  0  0  0
  1  2  2  0  0  0  0
  2  3  1  0  0  0  0
  2  4  1  0  0  0  0
  3  5  1  0  0  0  0
  4  6  1  0  0  0  0
  4  7  1  0  0  0  0
  5  8  2  0  0  0  0
  5  9  1  0  0  0  0
  8 10  1  0  0  0  0
  9 11  2  0  0  0  0
 10 12  2  0  0  0  0
 12 13  1  0  0  0  0
 13 14  1  0  0  0  0
 13 15  1  0  0  0  0
 14 16  2  0  0  0  0
 14 17  1  0  0  0  0
 15 18  1  0  0  0  0
 17 19  1  0  0  0  0
 18 20  2  0  0  0  0
 18 21  1  0  0  0  0
 19 22  1  0  0  0  0
 19 23  1  0  0  0  0
 20 24  1  0  0  0  0
 21 25  2  0  0  0  0
 22 26  2  0  0  0  0
 23 27  2  0  0  0  0
 23 28  1  0  0  0  0
 24 29  1  0  0  0  0
 27 30  1  0  0  0  0
 28 31  2  0  0  0  0
 30 32  2  0  0  0  0
  6  7  1  0  0  0  0
 11 12  1  0  0  0  0
 24 25  1  0  0  0  0
 26 27  1  0  0  0  0
 31 32  1  0  0  0  0
M  END
>  <MolRegNo>
2789606

>  <m>
=

>  <Value>
4600

>  <Unit>
nM

>  <Type>
IC50

>  <pValue>
5.34

>  <Ligand Efficiency>
0

>  <Binding Efficiency>
0

>  <Surface Efficiency>
0

>  <Assay Index>
1634423

>  <Assay Category>


>  <Assay Organism>
Homo sapiens

>  <Target ID>
17045

>  <Target Name>
Cytochrome P450 3A4

>  <Target Organism>
Homo sapiens

>  <Target Description>
Target is a single protein chain

>  <Sequence Accession>
P08684

>  <Reference>
J Med Chem 59 (14), 6595-6628 (2016)

>  <Pubmed ID>
26878082

>  <DOI>
10.1021/acs.jmedchem.5b01461

$$$$
1510733
Actelion Java MolfileCreator 1.0

 32 34  0  0  0  0  0  0  0  0999 V2000
    0.0000   -0.0000   -0.0000 O   0  0  0  0  0  0  0  0  0  0  0  0
   -0.0119    1.5090   -0.0000 C   0  0  0  0  0  0  0  0  0  0  0  0
    1.2714    2.2694   -0.0000 N   0  0  0  0  0  0  0  0  0  0  0  0
   -1.3189    2.2694   -0.0000 C   0  0  0  0  0  0  0  0  0  0  0  0
    1.2595    3.7784   -0.0000 C   0  0  0  0  0  0  0  0  0  0  0  0
    2.5546    1.5328   -0.0000 C   0  0  0  0  0  0  0  0  0  0  0  0
   -1.4852    3.7784   -0.0000 O   0  0  0  0  0  0  0  0  0  0  0  0
   -2.7091    1.6872   -0.0000 C   0  0  0  0  0  0  0  0  0  0  0  0
   -0.0475    4.5389   -0.0000 C   0  0  0  0  0  0  0  0  0  0  0  0
    2.5427    4.5389   -0.0000 C   0  0  0  0  0  0  0  0  0  0  0  0
    2.5427    0.0475   -0.0000 C   0  0  0  0  0  0  0  0  0  0  0  0
    3.8379    2.2932   -0.0000 C   0  0  0  0  0  0  0  0  0  0  0  0
   -2.9586    4.1111   -0.0000 C   0  0  0  0  0  0  0  0  0  0  0  0
   -3.7190    2.8160   -0.0000 C   0  0  0  0  0  0  0  0  0  0  0  0
   -0.0594    6.0598   -0.0000 C   0  0  0  0  0  0  0  0  0  0  0  0
    2.5308    6.0598   -0.0000 C   0  0  0  0  0  0  0  0  0  0  0  0
    1.2357   -0.6773   -0.0000 C   0  0  0  0  0  0  0  0  0  0  0  0
    3.8260   -0.6892   -0.0000 C   0  0  0  0  0  0  0  0  0  0  0  0
    3.8260    3.8022   -0.0000 O   0  0  0  0  0  0  0  0  0  0  0  0
    5.1211    1.5565   -0.0000 N   0  0  0  0  0  0  0  0  0  0  0  0
    1.2238    6.8202   -0.0000 C   0  0  0  0  0  0  0  0  0  0  0  0
    1.2120   -2.1625   -0.0000 N   0  0  0  0  0  0  0  0  0  0  0  0
    3.8141   -2.1744   -0.0000 C   0  0  0  0  0  0  0  0  0  0  0  0
    6.4043    2.3170   -0.0000 C   0  0  0  0  0  0  0  0  0  0  0  0
    1.2120    8.3292   -0.0000 C   0  0  0  0  0  0  0  0  0  0  0  0
    2.4952   -2.9111   -0.0000 C   0  0  0  0  0  0  0  0  0  0  0  0
    7.6876    1.5803   -0.0000 C   0  0  0  0  0  0  0  0  0  0  0  0
    6.3925    3.8260   -0.0000 C   0  0  0  0  0  0  0  0  0  0  0  0
    7.6757    3.0893   -0.0000 C   0  0  0  0  0  0  0  0  0  0  0  0
    2.4952    9.0897   -0.0000 C   0  0  0  0  0  0  0  0  0  0  0  0
   -0.0951    9.0897   -0.0000 C   0  0  0  0  0  0  0  0  0  0  0  0
    1.1882    9.8382   -0.0000 C   0  0  0  0  0  0  0  0  0  0  0  0
  1  2  2  0  0  0  0
  2  3  1  0  0  0  0
  2  4  1  0  0  0  0
  3  5  1  0  0  0  0
  3  6  1  0  0  0  0
  4  7  1  0  0  0  0
  4  8  2  0  0  0  0
  5  9  2  0  0  0  0
  5 10  1  0  0  0  0
  6 11  1  0  0  0  0
  6 12  1  0  0  0  0
  7 13  1  0  0  0  0
  8 14  1  0  0  0  0
  9 15  1  0  0  0  0
 10 16  2  0  0  0  0
 11 17  2  0  0  0  0
 11 18  1  0  0  0  0
 12 19  2  0  0  0  0
 12 20  1  0  0  0  0
 15 21  2  0  0  0  0
 17 22  1  0  0  0  0
 18 23  2  0  0  0  0
 20 24  1  0  0  0  0
 21 25  1  0  0  0  0
 22 26  2  0  0  0  0
 24 27  1  0  0  0  0
 24 28  1  0  0  0  0
 24 29  1  0  0  0  0
 25 30  1  0  0  0  0
 25 31  1  0  0  0  0
 25 32  1  0  0  0  0
 13 14  2  0  0  0  0
 16 21  1  0  0  0  0
 23 26  1  0  0  0  0
M  END
>  <MolRegNo>
1510733

>  <m>
=

>  <Value>
1700

>  <Unit>
nM

>  <Type>
IC50

>  <pValue>
5.77

>  <Ligand Efficiency>
0

>  <Binding Efficiency>
0

>  <Surface Efficiency>
0

>  <Assay Index>
1634423

>  <Assay Category>


>  <Assay Organism>
Homo sapiens

>  <Target ID>
17045

>  <Target Name>
Cytochrome P450 3A4

>  <Target Organism>
Homo sapiens

>  <Target Description>
Target is a single protein chain

>  <Sequence Accession>
P08684

>  <Reference>
J Med Chem 59 (14), 6595-6628 (2016)

>  <Pubmed ID>
26878082

>  <DOI>
10.1021/acs.jmedchem.5b01461

$$$$
2786874
Actelion Java MolfileCreator 1.0

105112  0  0  0  0  0  0  0  0999 V2000
    0.0000   -0.0000   -0.0000 O   0  0  0  0  0  0  0  0  0  0  0  0
    0.0000   -1.4701   -0.0000 C   0  0  0  0  0  0  0  0  0  0  0  0
    1.2776   -2.1876   -0.0000 N   0  0  0  0  0  0  0  0  0  0  0  0
   -1.3126   -2.2051   -0.0000 C   0  0  0  0  0  0  0  0  0  0  0  0
    2.5551   -1.4176   -0.0000 C   0  0  0  0  0  0  0  0  0  0  0  0
   -2.6251   -1.4526   -0.0000 N   0  0  0  0  0  0  0  0  0  0  0  0
   -1.3301   -4.4102   -0.0000 C   0  0  0  0  0  0  0  0  0  0  0  0
    3.8327   -2.1351   -0.0000 C   0  0  0  0  0  0  0  0  0  0  0  0
    2.5201    0.1050   -0.0000 C   0  0  0  0  0  0  0  0  0  0  0  0
   -3.9377   -2.1876   -0.0000 C   0  0  0  0  0  0  0  0  0  0  0  0
   -2.6426   -5.1278   -0.0000 C   0  0  0  0  0  0  0  0  0  0  0  0
   -0.0525   -5.1453   -0.0000 C   0  0  0  0  0  0  0  0  0  0  0  0
    3.8327   -3.6052   -0.0000 O   0  0  0  0  0  0  0  0  0  0  0  0
    5.1103   -1.3651   -0.0000 N   0  0  0  0  0  0  0  0  0  0  0  0
    3.7977    0.8750   -0.0000 C   0  0  0  0  0  0  0  0  0  0  0  0
   -3.9377   -3.6752   -0.0000 O   0  0  0  0  0  0  0  0  0  0  0  0
   -5.2503   -1.4351   -0.0000 C   0  0  0  0  0  0  0  0  0  0  0  0
   -3.9377   -4.3402   -0.0000 C   0  0  0  0  0  0  0  0  0  0  0  0
   -2.6776   -6.5978   -0.0000 C   0  0  0  0  0  0  0  0  0  0  0  0
   -0.0700   -6.6153   -0.0000 C   0  0  0  0  0  0  0  0  0  0  0  0
    1.2076   -4.3752   -0.0000 C   0  0  0  0  0  0  0  0  0  0  0  0
    3.7627    2.3801   -0.0000 C   0  0  0  0  0  0  0  0  0  0  0  0
   -6.5628   -2.1876   -0.0000 N   0  0  0  0  0  0  0  0  0  0  0  0
   -5.2678    0.0700   -0.0000 C   0  0  0  0  0  0  0  0  0  0  0  0
   -5.2503   -5.0578   -0.0000 C   0  0  0  0  0  0  0  0  0  0  0  0
   -3.9902   -7.3154   -0.0000 C   0  0  0  0  0  0  0  0  0  0  0  0
    1.1901   -7.3329   -0.0000 C   0  0  0  0  0  0  0  0  0  0  0  0
    2.4851   -5.0928   -0.0000 C   0  0  0  0  0  0  0  0  0  0  0  0
    5.0403    3.1502   -0.0000 C   0  0  0  0  0  0  0  0  0  0  0  0
   -7.8754   -1.4351   -0.0000 C   0  0  0  0  0  0  0  0  0  0  0  0
   -3.9902    0.8400   -0.0000 C   0  0  0  0  0  0  0  0  0  0  0  0
   -5.2853   -6.5278   -0.0000 C   0  0  0  0  0  0  0  0  0  0  0  0
    2.4676   -6.5803   -0.0000 C   0  0  0  0  0  0  0  0  0  0  0  0
    5.0053    4.6552   -0.0000 N   0  0  0  0  0  0  0  0  0  0  0  0
   -7.8929    0.0700   -0.0000 O   0  0  0  0  0  0  0  0  0  0  0  0
   -9.1880   -2.1701   -0.0000 C   0  0  0  0  0  0  0  0  0  0  0  0
   -3.8677    2.3451   -0.0000 C   0  0  0  0  0  0  0  0  0  0  0  0
   -2.6426    0.2625   -0.0000 C   0  0  0  0  0  0  0  0  0  0  0  0
  -10.5005   -1.4176   -0.0000 N   0  0  0  0  0  0  0  0  0  0  0  0
   -9.2055   -3.6402   -0.0000 C   0  0  0  0  0  0  0  0  0  0  0  0
   -2.4151    2.6776   -0.0000 C   0  0  0  0  0  0  0  0  0  0  0  0
   -4.8827    3.4652   -0.0000 C   0  0  0  0  0  0  0  0  0  0  0  0
   -1.6626    1.3826   -0.0000 N   0  0  0  0  0  0  0  0  0  0  0  0
  -11.7956   -2.1526   -0.0000 C   0  0  0  0  0  0  0  0  0  0  0  0
   -7.9279   -4.3577   -0.0000 C   0  0  0  0  0  0  0  0  0  0  0  0
   -1.9776    4.1127   -0.0000 C   0  0  0  0  0  0  0  0  0  0  0  0
   -4.4452    4.9002   -0.0000 C   0  0  0  0  0  0  0  0  0  0  0  0
  -11.8131   -3.6227   -0.0000 O   0  0  0  0  0  0  0  0  0  0  0  0
  -13.1257   -1.4001   -0.0000 C   0  0  0  0  0  0  0  0  0  0  0  0
   -7.9279   -5.8453   -0.0000 C   0  0  0  0  0  0  0  0  0  0  0  0
   -3.0102    5.2328   -0.0000 C   0  0  0  0  0  0  0  0  0  0  0  0
  -14.4382   -2.1351   -0.0000 N   0  0  0  0  0  0  0  0  0  0  0  0
  -13.1607    0.1225   -0.0000 C   0  0  0  0  0  0  0  0  0  0  0  0
   -6.6503   -6.5628   -0.0000 C   0  0  0  0  0  0  0  0  0  0  0  0
  -15.7508   -1.3651   -0.0000 C   0  0  0  0  0  0  0  0  0  0  0  0
  -11.8831    0.8925   -0.0000 C   0  0  0  0  0  0  0  0  0  0  0  0
   -6.6678   -8.0329   -0.0000 N   0  0  0  0  0  0  0  0  0  0  0  0
  -15.7858    0.1400   -0.0000 O   0  0  0  0  0  0  0  0  0  0  0  0
  -17.0634   -2.1001   -0.0000 C   0  0  0  0  0  0  0  0  0  0  0  0
  -11.9006    2.3976   -0.0000 C   0  0  0  0  0  0  0  0  0  0  0  0
  -18.3759   -1.3476   -0.0000 N   0  0  0  0  0  0  0  0  0  0  0  0
  -17.0634   -3.5877   -0.0000 C   0  0  0  0  0  0  0  0  0  0  0  0
  -10.6230    3.1852   -0.0000 C   0  0  0  0  0  0  0  0  0  0  0  0
  -19.6885   -2.0826   -0.0000 C   0  0  0  0  0  0  0  0  0  0  0  0
  -15.7858   -4.3052   -0.0000 C   0  0  0  0  0  0  0  0  0  0  0  0
  -10.6405    4.6902   -0.0000 N   0  0  0  0  0  0  0  0  0  0  0  0
  -19.6885   -3.5527   -0.0000 O   0  0  0  0  0  0  0  0  0  0  0  0
  -21.0010   -1.3301   -0.0000 C   0  0  0  0  0  0  0  0  0  0  0  0
  -15.6458   -5.7753   -0.0000 C   0  0  0  0  0  0  0  0  0  0  0  0
  -14.4382   -3.6752   -0.0000 C   0  0  0  0  0  0  0  0  0  0  0  0
  -22.3136   -2.0651   -0.0000 N   0  0  0  0  0  0  0  0  0  0  0  0
  -21.0361    0.1925   -0.0000 C   0  0  0  0  0  0  0  0  0  0  0  0
  -14.1932   -6.0728   -0.0000 C   0  0  0  0  0  0  0  0  0  0  0  0
  -16.6433   -6.8778   -0.0000 C   0  0  0  0  0  0  0  0  0  0  0  0
  -13.4407   -4.7602   -0.0000 N   0  0  0  0  0  0  0  0  0  0  0  0
  -23.6262   -1.3126   -0.0000 C   0  0  0  0  0  0  0  0  0  0  0  0
  -19.7585    0.9625   -0.0000 C   0  0  0  0  0  0  0  0  0  0  0  0
  -13.7382   -7.4729   -0.0000 C   0  0  0  0  0  0  0  0  0  0  0  0
  -16.2058   -8.2779   -0.0000 C   0  0  0  0  0  0  0  0  0  0  0  0
  -23.6437    0.1925   -0.0000 O   0  0  0  0  0  0  0  0  0  0  0  0
  -24.9387   -2.0651   -0.0000 C   0  0  0  0  0  0  0  0  0  0  0  0
  -19.6360    2.4676   -0.0000 C   0  0  0  0  0  0  0  0  0  0  0  0
  -18.4109    0.3850   -0.0000 C   0  0  0  0  0  0  0  0  0  0  0  0
  -14.7532   -8.5754   -0.0000 C   0  0  0  0  0  0  0  0  0  0  0  0
  -26.2513   -1.3126   -0.0000 N   0  0  0  0  0  0  0  0  0  0  0  0
  -24.9387   -3.5352   -0.0000 C   0  0  0  0  0  0  0  0  0  0  0  0
  -18.2009    2.8176   -0.0000 C   0  0  0  0  0  0  0  0  0  0  0  0
  -20.6685    3.6052   -0.0000 C   0  0  0  0  0  0  0  0  0  0  0  0
  -17.4309    1.5051   -0.0000 N   0  0  0  0  0  0  0  0  0  0  0  0
  -27.5464   -2.0476   -0.0000 C   0  0  0  0  0  0  0  0  0  0  0  0
  -23.6612   -4.2527   -0.0000 C   0  0  0  0  0  0  0  0  0  0  0  0
  -17.7634    4.2527   -0.0000 C   0  0  0  0  0  0  0  0  0  0  0  0
  -20.2310    5.0403   -0.0000 C   0  0  0  0  0  0  0  0  0  0  0  0
  -27.5639   -3.5177   -0.0000 O   0  0  0  0  0  0  0  0  0  0  0  0
  -28.8589   -1.2951   -0.0000 C   0  0  0  0  0  0  0  0  0  0  0  0
  -23.6787   -5.7228   -0.0000 C   0  0  0  0  0  0  0  0  0  0  0  0
  -18.7784    5.3728   -0.0000 C   0  0  0  0  0  0  0  0  0  0  0  0
  -30.1715   -2.0476   -0.0000 N   0  0  0  0  0  0  0  0  0  0  0  0
  -28.8764    0.2100   -0.0000 C   0  0  0  0  0  0  0  0  0  0  0  0
  -22.4011   -6.4403   -0.0000 C   0  0  0  0  0  0  0  0  0  0  0  0
  -27.5989    0.9800   -0.0000 C   0  0  0  0  0  0  0  0  0  0  0  0
  -22.4186   -7.9104   -0.0000 N   0  0  0  0  0  0  0  0  0  0  0  0
  -27.6339    2.5026   -0.0000 C   0  0  0  0  0  0  0  0  0  0  0  0
  -26.3563    3.2727   -0.0000 C   0  0  0  0  0  0  0  0  0  0  0  0
  -26.3913    4.7952   -0.0000 N   0  0  0  0  0  0  0  0  0  0  0  0
  1  2  2  0  0  0  0
  2  3  1  0  0  0  0
  2  4  1  0  0  0  0
  5  3  1  1  0  0  0
  4  6  1  0  0  0  0
  4  7  1  0  0  0  0
  5  8  1  0  0  0  0
  5  9  1  0  0  0  0
  6 10  1  0  0  0  0
  7 11  1  0  0  0  0
  7 12  1  0  0  0  0
  8 13  2  0  0  0  0
  8 14  1  0  0  0  0
  9 15  1  0  0  0  0
 10 16  2  0  0  0  0
 10 17  1  0  0  0  0
 11 18  2  0  0  0  0
 11 19  1  0  0  0  0
 12 20  2  0  0  0  0
 12 21  1  0  0  0  0
 15 22  1  0  0  0  0
 17 23  1  1  0  0  0
 17 24  1  0  0  0  0
 18 25  1  0  0  0  0
 19 26  2  0  0  0  0
 20 27  1  0  0  0  0
 21 28  2  0  0  0  0
 22 29  1  0  0  0  0
 23 30  1  0  0  0  0
 24 31  1  0  0  0  0
 25 32  2  0  0  0  0
 27 33  2  0  0  0  0
 29 34  1  0  0  0  0
 30 35  2  0  0  0  0
 30 36  1  0  0  0  0
 31 37  1  0  0  0  0
 31 38  2  0  0  0  0
 36 39  1  6  0  0  0
 36 40  1  0  0  0  0
 37 41  2  0  0  0  0
 37 42  1  0  0  0  0
 38 43  1  0  0  0  0
 39 44  1  0  0  0  0
 40 45  1  0  0  0  0
 41 46  1  0  0  0  0
 42 47  2  0  0  0  0
 44 48  2  0  0  0  0
 44 49  1  0  0  0  0
 45 50  1  0  0  0  0
 46 51  2  0  0  0  0
 49 52  1  1  0  0  0
 49 53  1  0  0  0  0
 50 54  1  0  0  0  0
 52 55  1  0  0  0  0
 53 56  1  0  0  0  0
 54 57  1  0  0  0  0
 55 58  2  0  0  0  0
 55 59  1  0  0  0  0
 56 60  1  0  0  0  0
 59 61  1  6  0  0  0
 59 62  1  0  0  0  0
 60 63  1  0  0  0  0
 61 64  1  0  0  0  0
 62 65  1  0  0  0  0
 63 66  1  0  0  0  0
 64 67  2  0  0  0  0
 64 68  1  0  0  0  0
 65 69  1  0  0  0  0
 65 70  2  0  0  0  0
 68 71  1  1  0  0  0
 68 72  1  0  0  0  0
 69 73  2  0  0  0  0
 69 74  1  0  0  0  0
 70 75  1  0  0  0  0
 71 76  1  0  0  0  0
 72 77  1  0  0  0  0
 73 78  1  0  0  0  0
 74 79  2  0  0  0  0
 76 80  2  0  0  0  0
 76 81  1  0  0  0  0
 77 82  1  0  0  0  0
 77 83  2  0  0  0  0
 78 84  2  0  0  0  0
 81 85  1  6  0  0  0
 81 86  1  0  0  0  0
 82 87  2  0  0  0  0
 82 88  1  0  0  0  0
 83 89  1  0  0  0  0
 85 90  1  0  0  0  0
 86 91  1  0  0  0  0
 87 92  1  0  0  0  0
 88 93  2  0  0  0  0
 90 94  2  0  0  0  0
 90 95  1  0  0  0  0
 91 96  1  0  0  0  0
 92 97  2  0  0  0  0
 95 98  1  1  0  0  0
 95 99  1  0  0  0  0
 96100  1  0  0  0  0
 99101  1  0  0  0  0
100102  1  0  0  0  0
101103  1  0  0  0  0
103104  1  0  0  0  0
104105  1  0  0  0  0
 26 32  1  0  0  0  0
 28 33  1  0  0  0  0
 41 43  1  0  0  0  0
 47 51  1  0  0  0  0
 73 75  1  0  0  0  0
 79 84  1  0  0  0  0
 87 89  1  0  0  0  0
 93 97  1  0  0  0  0
M  END
>  <MolRegNo>
2786874

>  <m>
=

>  <Value>
9300

>  <Unit>
nM

>  <Type>
IC50

>  <pValue>
5.03

>  <Ligand Efficiency>
0

>  <Binding Efficiency>
0

>  <Surface Efficiency>
0

>  <Assay Index>
1634484

>  <Assay Category>


>  <Assay Organism>
Homo sapiens

>  <Target ID>
17045

>  <Target Name>
Cytochrome P450 3A4

>  <Target Organism>
Homo sapiens

>  <Target Description>
Target is a single protein chain

>  <Sequence Accession>
P08684

>  <Reference>
J Med Chem 59 (7), 2918-2927 (2016)

>  <Pubmed ID>
26982623

>  <DOI>
10.1021/acs.jmedchem.5b02025

$$$$
2805690
Actelion Java MolfileCreator 1.0

 39 42  0  0  0  0  0  0  0  0999 V2000
    0.0000   -0.0000   -0.0000 Cl  0  0  0  0  0  0  0  0  0  0  0  0
   -0.0120   -1.4939   -0.0000 C   0  0  0  0  0  0  0  0  0  0  0  0
    1.2907   -2.2349   -0.0000 C   0  0  0  0  0  0  0  0  0  0  0  0
   -1.3266   -2.2468   -0.0000 C   0  0  0  0  0  0  0  0  0  0  0  0
    2.5814   -1.4700   -0.0000 N   0  0  0  0  0  0  0  0  0  0  0  0
    1.2788   -3.7288   -0.0000 C   0  0  0  0  0  0  0  0  0  0  0  0
   -1.3385   -3.7407   -0.0000 N   0  0  0  0  0  0  0  0  0  0  0  0
    2.5695    0.0478   -0.0000 C   0  0  0  0  0  0  0  0  0  0  0  0
    3.8722   -2.2110   -0.0000 C   0  0  0  0  0  0  0  0  0  0  0  0
   -0.0359   -4.4697   -0.0000 C   0  0  0  0  0  0  0  0  0  0  0  0
    3.8602    0.8127   -0.0000 C   0  0  0  0  0  0  0  0  0  0  0  0
    5.1629   -1.4461   -0.0000 C   0  0  0  0  0  0  0  0  0  0  0  0
   -0.0478   -5.9636   -0.0000 O   0  0  0  0  0  0  0  0  0  0  0  0
    5.1509    0.0717   -0.0000 C   0  0  0  0  0  0  0  0  0  0  0  0
    3.8483    2.3305   -0.0000 C   0  0  0  0  0  0  0  0  0  0  0  0
    1.2429   -6.7046   -0.0000 C   0  0  0  0  0  0  0  0  0  0  0  0
    6.4417    0.8366   -0.0000 O   0  0  0  0  0  0  0  0  0  0  0  0
    7.7324    0.0956   -0.0000 C   0  0  0  0  0  0  0  0  0  0  0  0
    9.0351    0.8605   -0.0000 C   0  0  0  0  0  0  0  0  0  0  0  0
    7.7204   -1.4102   -0.0000 C   0  0  0  0  0  0  0  0  0  0  0  0
   10.3258    0.1195   -0.0000 C   0  0  0  0  0  0  0  0  0  0  0  0
    9.0231   -2.1512   -0.0000 C   0  0  0  0  0  0  0  0  0  0  0  0
   10.3138   -1.3744   -0.0000 C   0  0  0  0  0  0  0  0  0  0  0  0
   11.6165   -2.1154   -0.0000 N   0  0  0  0  0  0  0  0  0  0  0  0
   11.7599   -3.6092   -0.0000 C   0  0  0  0  0  0  0  0  0  0  0  0
   12.9789   -1.4939   -0.0000 C   0  0  0  0  0  0  0  0  0  0  0  0
   13.2299   -3.9080   -0.0000 C   0  0  0  0  0  0  0  0  0  0  0  0
   10.6843   -4.6609   -0.0000 C   0  0  0  0  0  0  0  0  0  0  0  0
   13.9828   -2.6053   -0.0000 C   0  0  0  0  0  0  0  0  0  0  0  0
   13.9709   -5.1987   -0.0000 C   0  0  0  0  0  0  0  0  0  0  0  0
   11.0668   -6.1070   -0.0000 C   0  0  0  0  0  0  0  0  0  0  0  0
   15.4767   -2.5934   -0.0000 O   0  0  0  0  0  0  0  0  0  0  0  0
   12.5129   -6.4895   -0.0000 O   0  0  0  0  0  0  0  0  0  0  0  0
    9.9912   -7.1587   -0.0000 O   0  0  0  0  0  0  0  0  0  0  0  0
   16.2177   -1.2788   -0.0000 C   0  0  0  0  0  0  0  0  0  0  0  0
   17.7116   -1.2668   -0.0000 C   0  0  0  0  0  0  0  0  0  0  0  0
   18.4526    0.0478   -0.0000 C   0  0  0  0  0  0  0  0  0  0  0  0
   19.9465    0.0598   -0.0000 O   0  0  0  0  0  0  0  0  0  0  0  0
   20.6874    1.3744   -0.0000 C   0  0  0  0  0  0  0  0  0  0  0  0
  1  2  1  0  0  0  0
  2  3  2  0  0  0  0
  2  4  1  0  0  0  0
  3  5  1  0  0  0  0
  3  6  1  0  0  0  0
  4  7  2  0  0  0  0
  5  8  1  0  0  0  0
  5  9  1  0  0  0  0
  6 10  2  0  0  0  0
  8 11  1  0  0  0  0
  9 12  1  0  0  0  0
 10 13  1  0  0  0  0
 11 14  1  0  0  0  0
 11 15  1  6  0  0  0
 13 16  1  0  0  0  0
 14 17  1  1  0  0  0
 17 18  1  0  0  0  0
 18 19  2  0  0  0  0
 18 20  1  0  0  0  0
 19 21  1  0  0  0  0
 20 22  2  0  0  0  0
 21 23  2  0  0  0  0
 23 24  1  0  0  0  0
 24 25  1  0  0  0  0
 24 26  1  0  0  0  0
 25 27  1  0  0  0  0
 25 28  1  1  0  0  0
 26 29  1  0  0  0  0
 27 30  1  6  0  0  0
 28 31  1  0  0  0  0
 29 32  1  1  0  0  0
 31 33  2  0  0  0  0
 31 34  1  0  0  0  0
 32 35  1  0  0  0  0
 35 36  1  0  0  0  0
 36 37  1  0  0  0  0
 37 38  1  0  0  0  0
 38 39  1  0  0  0  0
  7 10  1  0  0  0  0
 12 14  1  0  0  0  0
 22 23  1  0  0  0  0
 27 29  1  0  0  0  0
M  END
>  <MolRegNo>
2805690

>  <m>
=

>  <Value>
40000

>  <Unit>
nM

>  <Type>
IC50

>  <pValue>
4.4

>  <Ligand Efficiency>
0

>  <Binding Efficiency>
0

>  <Surface Efficiency>
0

>  <Assay Index>
1636014

>  <Assay Category>


>  <Assay Organism>
Homo sapiens

>  <Target ID>
17045

>  <Target Name>
Cytochrome P450 3A4

>  <Target Organism>
Homo sapiens

>  <Target Description>
Target is a single protein chain

>  <Sequence Accession>
P08684

>  <Reference>


>  <Pubmed ID>
37030194

>  <DOI>
10.1016/j.bmc.2023.117273

$$$$
2220137
Actelion Java MolfileCreator 1.0

 37 40  0  0  0  0  0  0  0  0999 V2000
    0.0000   -0.0000   -0.0000 Cl  0  0  0  0  0  0  0  0  0  0  0  0
   -0.0120   -1.4947   -0.0000 C   0  0  0  0  0  0  0  0  0  0  0  0
    1.2795   -2.2361   -0.0000 C   0  0  0  0  0  0  0  0  0  0  0  0
   -1.3273   -2.2361   -0.0000 C   0  0  0  0  0  0  0  0  0  0  0  0
    2.5710   -1.4708   -0.0000 N   0  0  0  0  0  0  0  0  0  0  0  0
    1.2675   -3.7428   -0.0000 C   0  0  0  0  0  0  0  0  0  0  0  0
   -1.3393   -3.7428   -0.0000 N   0  0  0  0  0  0  0  0  0  0  0  0
    2.5470    0.0478   -0.0000 C   0  0  0  0  0  0  0  0  0  0  0  0
    3.8744   -2.2122   -0.0000 C   0  0  0  0  0  0  0  0  0  0  0  0
   -0.0598   -4.4842   -0.0000 C   0  0  0  0  0  0  0  0  0  0  0  0
    3.8505    0.8131   -0.0000 C   0  0  0  0  0  0  0  0  0  0  0  0
    5.1658   -1.4469   -0.0000 C   0  0  0  0  0  0  0  0  0  0  0  0
   -0.0717   -5.9790   -0.0000 O   0  0  0  0  0  0  0  0  0  0  0  0
    5.1419    0.0717   -0.0000 C   0  0  0  0  0  0  0  0  0  0  0  0
    3.8385    2.3318   -0.0000 C   0  0  0  0  0  0  0  0  0  0  0  0
   -1.3871   -6.7204   -0.0000 C   0  0  0  0  0  0  0  0  0  0  0  0
    6.4334    0.8371   -0.0000 O   0  0  0  0  0  0  0  0  0  0  0  0
    7.7248    0.0957   -0.0000 C   0  0  0  0  0  0  0  0  0  0  0  0
    7.7009   -1.3991   -0.0000 C   0  0  0  0  0  0  0  0  0  0  0  0
    9.0043    0.8610   -0.0000 C   0  0  0  0  0  0  0  0  0  0  0  0
    8.9924   -2.1405   -0.0000 C   0  0  0  0  0  0  0  0  0  0  0  0
   10.2958    0.1315   -0.0000 C   0  0  0  0  0  0  0  0  0  0  0  0
   10.2838   -1.3752   -0.0000 C   0  0  0  0  0  0  0  0  0  0  0  0
   11.5753   -2.1166   -0.0000 N   0  0  0  0  0  0  0  0  0  0  0  0
   12.9385   -1.4828   -0.0000 N   0  0  0  0  0  0  0  0  0  0  0  0
   11.7188   -3.5993   -0.0000 C   0  0  0  0  0  0  0  0  0  0  0  0
   13.9430   -2.5949   -0.0000 C   0  0  0  0  0  0  0  0  0  0  0  0
   13.1777   -3.8983   -0.0000 C   0  0  0  0  0  0  0  0  0  0  0  0
   10.5828   -4.6038   -0.0000 C   0  0  0  0  0  0  0  0  0  0  0  0
   15.4258   -2.4275   -0.0000 C   0  0  0  0  0  0  0  0  0  0  0  0
   13.7756   -5.2615   -0.0000 C   0  0  0  0  0  0  0  0  0  0  0  0
   10.8817   -6.0627   -0.0000 C   0  0  0  0  0  0  0  0  0  0  0  0
   16.2987   -3.6352   -0.0000 F   0  0  0  0  0  0  0  0  0  0  0  0
   16.0236   -1.0403   -0.0000 F   0  0  0  0  0  0  0  0  0  0  0  0
   16.9205   -2.4155   -0.0000 F   0  0  0  0  0  0  0  0  0  0  0  0
   12.3047   -6.5171   -0.0000 O   0  0  0  0  0  0  0  0  0  0  0  0
    9.7457   -7.0671   -0.0000 O   0  0  0  0  0  0  0  0  0  0  0  0
  1  2  1  0  0  0  0
  2  3  2  0  0  0  0
  2  4  1  0  0  0  0
  3  5  1  0  0  0  0
  3  6  1  0  0  0  0
  4  7  2  0  0  0  0
  5  8  1  0  0  0  0
  5  9  1  0  0  0  0
  6 10  2  0  0  0  0
  8 11  1  0  0  0  0
  9 12  1  0  0  0  0
 10 13  1  0  0  0  0
 11 14  1  0  0  0  0
 11 15  1  6  0  0  0
 13 16  1  0  0  0  0
 14 17  1  1  0  0  0
 17 18  1  0  0  0  0
 18 19  2  0  0  0  0
 18 20  1  0  0  0  0
 19 21  1  0  0  0  0
 20 22  2  0  0  0  0
 21 23  2  0  0  0  0
 23 24  1  0  0  0  0
 24 25  1  0  0  0  0
 24 26  1  0  0  0  0
 25 27  2  0  0  0  0
 26 28  1  0  0  0  0
 26 29  1  1  0  0  0
 27 30  1  0  0  0  0
 28 31  1  6  0  0  0
 29 32  1  0  0  0  0
 30 33  1  0  0  0  0
 30 34  1  0  0  0  0
 30 35  1  0  0  0  0
 32 36  2  0  0  0  0
 32 37  1  0  0  0  0
  7 10  1  0  0  0  0
 12 14  1  0  0  0  0
 22 23  1  0  0  0  0
 27 28  1  0  0  0  0
M  END
>  <MolRegNo>
2220137

>  <m>
=

>  <Value>
3400

>  <Unit>
nM

>  <Type>
IC50

>  <pValue>
5.47

>  <Ligand Efficiency>
0

>  <Binding Efficiency>
0

>  <Surface Efficiency>
0

>  <Assay Index>
1636014

>  <Assay Category>


>  <Assay Organism>
Homo sapiens

>  <Target ID>
17045

>  <Target Name>
Cytochrome P450 3A4

>  <Target Organism>
Homo sapiens

>  <Target Description>
Target is a single protein chain

>  <Sequence Accession>
P08684

>  <Reference>


>  <Pubmed ID>
37030194

>  <DOI>
10.1016/j.bmc.2023.117273

$$$$
2285732
Actelion Java MolfileCreator 1.0

 37 40  0  0  0  0  0  0  0  0999 V2000
    0.0000   -0.0000   -0.0000 O   0  0  0  0  0  0  0  0  0  0  0  0
    1.2987   -0.7387   -0.0000 C   0  0  0  0  0  0  0  0  0  0  0  0
    1.2987   -2.2280   -0.0000 N   0  0  0  0  0  0  0  0  0  0  0  0
    2.5854    0.0357   -0.0000 N   0  0  0  0  0  0  0  0  0  0  0  0
   -0.0119   -2.9786   -0.0000 C   0  0  0  0  0  0  0  0  0  0  0  0
    3.8841   -0.7030   -0.0000 C   0  0  0  0  0  0  0  0  0  0  0  0
   -0.0119   -4.4799   -0.0000 C   0  0  0  0  0  0  0  0  0  0  0  0
   -1.3225   -2.2280   -0.0000 C   0  0  0  0  0  0  0  0  0  0  0  0
    3.8722   -2.1923   -0.0000 C   0  0  0  0  0  0  0  0  0  0  0  0
    5.1590    0.0715   -0.0000 C   0  0  0  0  0  0  0  0  0  0  0  0
    1.2749   -5.2186   -0.0000 N   0  0  0  0  0  0  0  0  0  0  0  0
   -1.3225   -5.2186   -0.0000 C   0  0  0  0  0  0  0  0  0  0  0  0
   -2.6331   -2.9667   -0.0000 C   0  0  0  0  0  0  0  0  0  0  0  0
    5.1590   -2.9310   -0.0000 C   0  0  0  0  0  0  0  0  0  0  0  0
    6.4577   -0.6553   -0.0000 C   0  0  0  0  0  0  0  0  0  0  0  0
    2.5616   -4.4560   -0.0000 C   0  0  0  0  0  0  0  0  0  0  0  0
    1.2629   -6.7079   -0.0000 C   0  0  0  0  0  0  0  0  0  0  0  0
   -2.6331   -4.4560   -0.0000 C   0  0  0  0  0  0  0  0  0  0  0  0
   -3.9437   -2.2042   -0.0000 C   0  0  0  0  0  0  0  0  0  0  0  0
    6.4457   -2.1565   -0.0000 C   0  0  0  0  0  0  0  0  0  0  0  0
    3.8484   -5.1947   -0.0000 C   0  0  0  0  0  0  0  0  0  0  0  0
   -0.0477   -7.4466   -0.0000 C   0  0  0  0  0  0  0  0  0  0  0  0
   -5.2662   -2.9429   -0.0000 C   0  0  0  0  0  0  0  0  0  0  0  0
   -3.9556   -0.6791   -0.0000 C   0  0  0  0  0  0  0  0  0  0  0  0
    7.7444   -2.8833   -0.0000 C   0  0  0  0  0  0  0  0  0  0  0  0
    5.1352   -4.4322   -0.0000 C   0  0  0  0  0  0  0  0  0  0  0  0
    3.8365   -6.6840   -0.0000 C   0  0  0  0  0  0  0  0  0  0  0  0
   -1.3583   -6.6840   -0.0000 C   0  0  0  0  0  0  0  0  0  0  0  0
   -0.0596   -8.9359   -0.0000 C   0  0  0  0  0  0  0  0  0  0  0  0
   -5.2662   -4.4322   -0.0000 C   0  0  0  0  0  0  0  0  0  0  0  0
   -6.5768   -2.1804   -0.0000 C   0  0  0  0  0  0  0  0  0  0  0  0
   -5.2662    0.0834   -0.0000 C   0  0  0  0  0  0  0  0  0  0  0  0
   -4.0628   -5.3020   -0.0000 N   0  0  0  0  0  0  0  0  0  0  0  0
   -6.4934   -5.3020   -0.0000 N   0  0  0  0  0  0  0  0  0  0  0  0
   -6.5887   -0.6553   -0.0000 C   0  0  0  0  0  0  0  0  0  0  0  0
   -4.5394   -6.7198   -0.0000 N   0  0  0  0  0  0  0  0  0  0  0  0
   -6.0407   -6.7198   -0.0000 N   0  0  0  0  0  0  0  0  0  0  0  0
  1  2  2  0  0  0  0
  2  3  1  0  0  0  0
  2  4  1  0  0  0  0
  3  5  1  0  0  0  0
  4  6  1  0  0  0  0
  5  7  2  0  0  0  0
  5  8  1  0  0  0  0
  6  9  2  0  0  0  0
  6 10  1  0  0  0  0
  7 11  1  0  0  0  0
  7 12  1  0  0  0  0
  8 13  2  0  0  0  0
  9 14  1  0  0  0  0
 10 15  2  0  0  0  0
 11 16  1  0  0  0  0
 11 17  1  0  0  0  0
 12 18  2  0  0  0  0
 13 19  1  0  0  0  0
 14 20  2  0  0  0  0
 16 21  1  0  0  0  0
 17 22  1  0  0  0  0
 19 23  2  0  0  0  0
 19 24  1  0  0  0  0
 20 25  1  0  0  0  0
 21 26  1  0  0  0  0
 21 27  1  0  0  0  0
 22 28  1  0  0  0  0
 22 29  1  0  0  0  0
 23 30  1  0  0  0  0
 23 31  1  0  0  0  0
 24 32  2  0  0  0  0
 30 33  2  0  0  0  0
 30 34  1  0  0  0  0
 31 35  2  0  0  0  0
 33 36  1  0  0  0  0
 34 37  1  0  0  0  0
 13 18  1  0  0  0  0
 15 20  1  0  0  0  0
 32 35  1  0  0  0  0
 36 37  2  0  0  0  0
M  END
>  <MolRegNo>
2285732

>  <m>
=

>  <Value>
7800

>  <Unit>
nM

>  <Type>
IC50

>  <pValue>
5.11

>  <Ligand Efficiency>
0

>  <Binding Efficiency>
0

>  <Surface Efficiency>
0

>  <Assay Index>
1636572

>  <Assay Category>


>  <Assay Organism>
Homo sapiens

>  <Target ID>
17045

>  <Target Name>
Cytochrome P450 3A4

>  <Target Organism>
Homo sapiens

>  <Target Description>
Target is a single protein chain

>  <Sequence Accession>
P08684

>  <Reference>


>  <Pubmed ID>
37054759

>  <DOI>
10.1016/j.bmcl.2023.129280

$$$$
2787109
Actelion Java MolfileCreator 1.0

 39 44  0  0  0  0  0  0  0  0999 V2000
    0.0000   -0.0000   -0.0000 O   0  0  0  0  0  0  0  0  0  0  0  0
   -0.4127    1.4503   -0.0000 C   0  0  0  0  0  0  0  0  0  0  0  0
   -1.8159    1.8630   -0.0000 N   0  0  0  0  0  0  0  0  0  0  0  0
    0.6721    2.5116   -0.0000 N   0  0  0  0  0  0  0  0  0  0  0  0
   -2.9243    0.8254   -0.0000 C   0  0  0  0  0  0  0  0  0  0  0  0
    0.2594    3.9619   -0.0000 C   0  0  0  0  0  0  0  0  0  0  0  0
   -2.5351   -0.6014   -0.0000 C   0  0  0  0  0  0  0  0  0  0  0  0
   -4.3746    1.2381   -0.0000 C   0  0  0  0  0  0  0  0  0  0  0  0
   -1.1909    4.3746   -0.0000 C   0  0  0  0  0  0  0  0  0  0  0  0
    1.3442    5.0231   -0.0000 C   0  0  0  0  0  0  0  0  0  0  0  0
   -1.0494   -0.7311   -0.0000 O   0  0  0  0  0  0  0  0  0  0  0  0
   -3.5964   -1.6862   -0.0000 C   0  0  0  0  0  0  0  0  0  0  0  0
   -5.4358    0.1533   -0.0000 C   0  0  0  0  0  0  0  0  0  0  0  0
   -1.5565    5.8249   -0.0000 C   0  0  0  0  0  0  0  0  0  0  0  0
    0.9315    6.4734   -0.0000 C   0  0  0  0  0  0  0  0  0  0  0  0
   -0.2240   -1.9809   -0.0000 C   0  0  0  0  0  0  0  0  0  0  0  0
   -5.0467   -1.2735   -0.0000 C   0  0  0  0  0  0  0  0  0  0  0  0
   -3.4077   -3.1719   -0.0000 C   0  0  0  0  0  0  0  0  0  0  0  0
   -6.8861    0.5660   -0.0000 C   0  0  0  0  0  0  0  0  0  0  0  0
   -0.5188    6.8861   -0.0000 C   0  0  0  0  0  0  0  0  0  0  0  0
   -0.6957   -3.4077   -0.0000 C   0  0  0  0  0  0  0  0  0  0  0  0
   -4.7165   -3.9029   -0.0000 C   0  0  0  0  0  0  0  0  0  0  0  0
   -2.1106   -3.9147   -0.0000 C   0  0  0  0  0  0  0  0  0  0  0  0
   -7.2988    2.0163   -0.0000 C   0  0  0  0  0  0  0  0  0  0  0  0
   -7.9474   -0.4717   -0.0000 C   0  0  0  0  0  0  0  0  0  0  0  0
   -0.9315    8.3365   -0.0000 C   0  0  0  0  0  0  0  0  0  0  0  0
   -6.0254   -3.1365   -0.0000 C   0  0  0  0  0  0  0  0  0  0  0  0
   -4.7283   -5.3886   -0.0000 C   0  0  0  0  0  0  0  0  0  0  0  0
   -6.2140    3.0775   -0.0000 C   0  0  0  0  0  0  0  0  0  0  0  0
   -8.7492    2.4290   -0.0000 C   0  0  0  0  0  0  0  0  0  0  0  0
   -9.3977   -0.0590   -0.0000 C   0  0  0  0  0  0  0  0  0  0  0  0
   -7.3224   -3.8793   -0.0000 C   0  0  0  0  0  0  0  0  0  0  0  0
   -6.0372   -6.1197   -0.0000 C   0  0  0  0  0  0  0  0  0  0  0  0
   -4.7873    2.8417   -0.0000 N   0  0  0  0  0  0  0  0  0  0  0  0
   -6.4734    4.5868   -0.0000 N   0  0  0  0  0  0  0  0  0  0  0  0
   -9.8104    1.3914   -0.0000 C   0  0  0  0  0  0  0  0  0  0  0  0
   -7.3342   -5.3533   -0.0000 C   0  0  0  0  0  0  0  0  0  0  0  0
   -4.1034    4.1977   -0.0000 N   0  0  0  0  0  0  0  0  0  0  0  0
   -5.1410    5.2471   -0.0000 N   0  0  0  0  0  0  0  0  0  0  0  0
  1  2  2  0  0  0  0
  2  3  1  0  0  0  0
  2  4  1  0  0  0  0
  3  5  1  0  0  0  0
  4  6  1  0  0  0  0
  5  7  2  0  0  0  0
  5  8  1  0  0  0  0
  6  9  2  0  0  0  0
  6 10  1  0  0  0  0
  7 11  1  0  0  0  0
  7 12  1  0  0  0  0
  8 13  2  0  0  0  0
  9 14  1  0  0  0  0
 10 15  2  0  0  0  0
 11 16  1  0  0  0  0
 12 17  2  0  0  0  0
 12 18  1  0  0  0  0
 13 19  1  0  0  0  0
 14 20  2  0  0  0  0
 16 21  1  0  0  0  0
 18 22  1  0  0  0  0
 18 23  1  0  0  0  0
 19 24  2  0  0  0  0
 19 25  1  0  0  0  0
 20 26  1  0  0  0  0
 22 27  2  0  0  0  0
 22 28  1  0  0  0  0
 24 29  1  0  0  0  0
 24 30  1  0  0  0  0
 25 31  2  0  0  0  0
 27 32  1  0  0  0  0
 28 33  2  0  0  0  0
 29 34  1  0  0  0  0
 29 35  2  0  0  0  0
 30 36  2  0  0  0  0
 32 37  2  0  0  0  0
 34 38  2  0  0  0  0
 35 39  1  0  0  0  0
 13 17  1  0  0  0  0
 15 20  1  0  0  0  0
 21 23  1  0  0  0  0
 31 36  1  0  0  0  0
 33 37  1  0  0  0  0
 38 39  1  0  0  0  0
M  END
>  <MolRegNo>
2787109

>  <m>
=

>  <Value>
8400

>  <Unit>
nM

>  <Type>
IC50

>  <pValue>
5.08

>  <Ligand Efficiency>
0

>  <Binding Efficiency>
0

>  <Surface Efficiency>
0

>  <Assay Index>
1636572

>  <Assay Category>


>  <Assay Organism>
Homo sapiens

>  <Target ID>
17045

>  <Target Name>
Cytochrome P450 3A4

>  <Target Organism>
Homo sapiens

>  <Target Description>
Target is a single protein chain

>  <Sequence Accession>
P08684

>  <Reference>


>  <Pubmed ID>
37054759

>  <DOI>
10.1016/j.bmcl.2023.129280

$$$$
2806091
Actelion Java MolfileCreator 1.0

 36 38  0  0  0  0  0  0  0  0999 V2000
    0.0000   -0.0000   -0.0000 Cl  0  0  0  0  0  0  0  0  0  0  0  0
    1.2914    0.7720   -0.0000 C   0  0  0  0  0  0  0  0  0  0  0  0
    1.2773    2.2739   -0.0000 C   0  0  0  0  0  0  0  0  0  0  0  0
    2.5828    0.0281   -0.0000 C   0  0  0  0  0  0  0  0  0  0  0  0
    2.5547    3.0460   -0.0000 C   0  0  0  0  0  0  0  0  0  0  0  0
    3.8601    0.7861   -0.0000 C   0  0  0  0  0  0  0  0  0  0  0  0
    3.8461    2.3020   -0.0000 C   0  0  0  0  0  0  0  0  0  0  0  0
    5.1374    3.0600   -0.0000 C   0  0  0  0  0  0  0  0  0  0  0  0
    5.1234    4.5760   -0.0000 C   0  0  0  0  0  0  0  0  0  0  0  0
    6.4148    5.3339   -0.0000 N   0  0  0  0  0  0  0  0  0  0  0  0
    3.8039    5.3339   -0.0000 C   0  0  0  0  0  0  0  0  0  0  0  0
    6.4007    6.8499   -0.0000 N   0  0  0  0  0  0  0  0  0  0  0  0
    3.7899    6.8499   -0.0000 C   0  0  0  0  0  0  0  0  0  0  0  0
    2.4985    4.6040   -0.0000 C   0  0  0  0  0  0  0  0  0  0  0  0
    5.0813    7.6079   -0.0000 C   0  0  0  0  0  0  0  0  0  0  0  0
    7.6921    7.6079   -0.0000 C   0  0  0  0  0  0  0  0  0  0  0  0
    2.4845    7.6079   -0.0000 C   0  0  0  0  0  0  0  0  0  0  0  0
    1.1791    5.3620   -0.0000 C   0  0  0  0  0  0  0  0  0  0  0  0
    5.0672    9.1238   -0.0000 O   0  0  0  0  0  0  0  0  0  0  0  0
    8.9835    6.8780   -0.0000 C   0  0  0  0  0  0  0  0  0  0  0  0
    1.1650    6.8780   -0.0000 C   0  0  0  0  0  0  0  0  0  0  0  0
   10.3450    7.4956   -0.0000 N   0  0  0  0  0  0  0  0  0  0  0  0
    9.1238    5.4041   -0.0000 C   0  0  0  0  0  0  0  0  0  0  0  0
   11.3416    6.4007   -0.0000 C   0  0  0  0  0  0  0  0  0  0  0  0
   10.7240    8.9554   -0.0000 C   0  0  0  0  0  0  0  0  0  0  0  0
   10.5837    5.1094   -0.0000 C   0  0  0  0  0  0  0  0  0  0  0  0
   12.1558    9.3625   -0.0000 C   0  0  0  0  0  0  0  0  0  0  0  0
   12.5348   10.8223   -0.0000 N   0  0  0  0  0  0  0  0  0  0  0  0
   13.9665   11.2294   -0.0000 C   0  0  0  0  0  0  0  0  0  0  0  0
   14.3455   12.6892   -0.0000 O   0  0  0  0  0  0  0  0  0  0  0  0
   15.0193   10.1766   -0.0000 C   0  0  0  0  0  0  0  0  0  0  0  0
   16.4510   10.5837   -0.0000 C   0  0  0  0  0  0  0  0  0  0  0  0
   17.5038    9.5309   -0.0000 C   0  0  0  0  0  0  0  0  0  0  0  0
   18.9355    9.9380   -0.0000 O   0  0  0  0  0  0  0  0  0  0  0  0
   19.9882    8.8852   -0.0000 C   0  0  0  0  0  0  0  0  0  0  0  0
   14.1490    3.8180   -0.0000 Cl  0  0  0  0  0  0  0  0  0  0  0  0
  1  2  1  0  0  0  0
  2  3  2  0  0  0  0
  2  4  1  0  0  0  0
  3  5  1  0  0  0  0
  4  6  2  0  0  0  0
  5  7  2  0  0  0  0
  7  8  1  0  0  0  0
  8  9  1  0  0  0  0
  9 10  2  0  0  0  0
  9 11  1  0  0  0  0
 10 12  1  0  0  0  0
 11 13  2  0  0  0  0
 11 14  1  0  0  0  0
 12 15  1  0  0  0  0
 12 16  1  0  0  0  0
 13 17  1  0  0  0  0
 14 18  2  0  0  0  0
 15 19  2  0  0  0  0
 20 16  1  6  0  0  0
 17 21  2  0  0  0  0
 20 22  1  0  0  0  0
 20 23  1  0  0  0  0
 22 24  1  0  0  0  0
 22 25  1  0  0  0  0
 23 26  1  0  0  0  0
 25 27  1  0  0  0  0
 27 28  1  0  0  0  0
 28 29  1  0  0  0  0
 29 30  2  0  0  0  0
 29 31  1  0  0  0  0
 31 32  1  0  0  0  0
 32 33  1  0  0  0  0
 33 34  1  0  0  0  0
 34 35  1  0  0  0  0
  6  7  1  0  0  0  0
 13 15  1  0  0  0  0
 18 21  1  0  0  0  0
 24 26  1  0  0  0  0
M  END
>  <MolRegNo>
2806091

>  <m>
=

>  <Value>
1300

>  <Unit>
nM

>  <Type>
IC50

>  <pValue>
5.89

>  <Ligand Efficiency>
0

>  <Binding Efficiency>
0

>  <Surface Efficiency>
0

>  <Assay Index>
1638586

>  <Assay Category>


>  <Assay Organism>
Homo sapiens

>  <Target ID>
17045

>  <Target Name>
Cytochrome P450 3A4

>  <Target Organism>
Homo sapiens

>  <Target Description>
Target is a single protein chain

>  <Sequence Accession>
P08684

>  <Reference>
ACS Med Chem Lett 8 (5), 577-581 (2017)

>  <Pubmed ID>
28523114

>  <DOI>
10.1021/acsmedchemlett.7b00112

$$$$
2475686
Actelion Java MolfileCreator 1.0

 38 43  0  0  0  0  0  0  0  0999 V2000
    0.0000   -0.0000   -0.0000 O   0  0  0  0  0  0  0  0  0  0  0  0
   -0.7570    1.3129   -0.0000 N   0  0  0  0  0  0  0  0  0  0  0  0
    1.4549    0.3194   -0.0000 C   0  0  0  0  0  0  0  0  0  0  0  0
    0.2366    2.4366   -0.0000 C   0  0  0  0  0  0  0  0  0  0  0  0
    1.5968    1.8216   -0.0000 C   0  0  0  0  0  0  0  0  0  0  0  0
    2.5549   -0.6742   -0.0000 C   0  0  0  0  0  0  0  0  0  0  0  0
   -0.0828    3.9152   -0.0000 C   0  0  0  0  0  0  0  0  0  0  0  0
    2.8861    2.5786   -0.0000 C   0  0  0  0  0  0  0  0  0  0  0  0
    2.8743    4.0926   -0.0000 C   0  0  0  0  0  0  0  0  0  0  0  0
    4.1754    1.8452   -0.0000 C   0  0  0  0  0  0  0  0  0  0  0  0
    1.5613    4.8496   -0.0000 O   0  0  0  0  0  0  0  0  0  0  0  0
    4.1518    4.8496   -0.0000 C   0  0  0  0  0  0  0  0  0  0  0  0
    5.4647    2.6141   -0.0000 C   0  0  0  0  0  0  0  0  0  0  0  0
    1.5495    6.3637   -0.0000 C   0  0  0  0  0  0  0  0  0  0  0  0
    5.4411    4.1163   -0.0000 C   0  0  0  0  0  0  0  0  0  0  0  0
    6.7540    1.8807   -0.0000 N   0  0  0  0  0  0  0  0  0  0  0  0
    0.2366    7.1207   -0.0000 C   0  0  0  0  0  0  0  0  0  0  0  0
    6.7185    4.8851   -0.0000 C   0  0  0  0  0  0  0  0  0  0  0  0
    8.0433    2.6496   -0.0000 C   0  0  0  0  0  0  0  0  0  0  0  0
    0.0710    8.6229   -0.0000 C   0  0  0  0  0  0  0  0  0  0  0  0
   -1.1355    6.5174   -0.0000 C   0  0  0  0  0  0  0  0  0  0  0  0
    7.0142    6.3518   -0.0000 N   0  0  0  0  0  0  0  0  0  0  0  0
    7.9960    4.1518   -0.0000 C   0  0  0  0  0  0  0  0  0  0  0  0
   -1.4076    8.9423   -0.0000 N   0  0  0  0  0  0  0  0  0  0  0  0
   -2.1528    7.6411   -0.0000 C   0  0  0  0  0  0  0  0  0  0  0  0
    8.4809    6.5293   -0.0000 C   0  0  0  0  0  0  0  0  0  0  0  0
    5.9970    7.4755   -0.0000 C   0  0  0  0  0  0  0  0  0  0  0  0
    9.0842    5.1690   -0.0000 N   0  0  0  0  0  0  0  0  0  0  0  0
    9.2143    7.8422   -0.0000 C   0  0  0  0  0  0  0  0  0  0  0  0
    6.4465    8.9186   -0.0000 C   0  0  0  0  0  0  0  0  0  0  0  0
    4.5184    7.1680   -0.0000 C   0  0  0  0  0  0  0  0  0  0  0  0
   10.7047    7.8540   -0.0000 O   0  0  0  0  0  0  0  0  0  0  0  0
    7.9014    9.2380   -0.0000 C   0  0  0  0  0  0  0  0  0  0  0  0
    5.4292   10.0305   -0.0000 C   0  0  0  0  0  0  0  0  0  0  0  0
   11.4380    9.1670   -0.0000 C   0  0  0  0  0  0  0  0  0  0  0  0
    8.3508   10.6692   -0.0000 C   0  0  0  0  0  0  0  0  0  0  0  0
    5.8669   11.4617   -0.0000 C   0  0  0  0  0  0  0  0  0  0  0  0
    7.3336   11.7929   -0.0000 C   0  0  0  0  0  0  0  0  0  0  0  0
  1  2  1  0  0  0  0
  1  3  1  0  0  0  0
  2  4  2  0  0  0  0
  3  5  2  0  0  0  0
  3  6  1  0  0  0  0
  4  7  1  0  0  0  0
  5  8  1  0  0  0  0
  8  9  1  0  0  0  0
  8 10  2  0  0  0  0
  9 11  1  0  0  0  0
  9 12  2  0  0  0  0
 10 13  1  0  0  0  0
 11 14  1  0  0  0  0
 12 15  1  0  0  0  0
 13 16  2  0  0  0  0
 17 14  1  1  0  0  0
 15 18  2  0  0  0  0
 16 19  1  0  0  0  0
 17 20  1  0  0  0  0
 17 21  1  0  0  0  0
 18 22  1  0  0  0  0
 18 23  1  0  0  0  0
 20 24  1  0  0  0  0
 21 25  1  0  0  0  0
 22 26  1  0  0  0  0
 27 22  1  6  0  0  0
 23 28  1  0  0  0  0
 26 29  1  0  0  0  0
 27 30  1  0  0  0  0
 27 31  1  0  0  0  0
 29 32  1  0  0  0  0
 30 33  2  0  0  0  0
 30 34  1  0  0  0  0
 32 35  1  0  0  0  0
 33 36  1  0  0  0  0
 34 37  2  0  0  0  0
 36 38  2  0  0  0  0
  4  5  1  0  0  0  0
 13 15  1  0  0  0  0
 19 23  2  0  0  0  0
 24 25  1  0  0  0  0
 26 28  2  0  0  0  0
 37 38  1  0  0  0  0
M  END
>  <MolRegNo>
2475686

>  <m>
=

>  <Value>
6309.6

>  <Unit>
nM

>  <Type>
IC50

>  <pValue>
5.2

>  <Ligand Efficiency>
0.19

>  <Binding Efficiency>
10.16

>  <Surface Efficiency>
5.96

>  <Assay Index>
1643254

>  <Assay Category>


>  <Assay Organism>
Homo sapiens

>  <Target ID>
17045

>  <Target Name>
Cytochrome P450 3A4

>  <Target Organism>
Homo sapiens

>  <Target Description>
Target is a single protein chain

>  <Sequence Accession>
P08684

>  <Reference>


>  <Pubmed ID>


>  <DOI>
10.6019/CHEMBL4630907

$$$$
